# Generated by pormake.
# Topology iac, (4,6)-cn, num edge types: 1
# Building blocks:
#     Node 0, Type 0, BuildingBlock: QUQFOY_clean_sbu_1, # of connection points: 4
#     Node 1, Type 0, BuildingBlock: QUQFOY_clean_sbu_1, # of connection points: 4
#     Node 2, Type 0, BuildingBlock: QUQFOY_clean_sbu_1, # of connection points: 4
#     Node 3, Type 0, BuildingBlock: QUQFOY_clean_sbu_1, # of connection points: 4
#     Node 4, Type 0, BuildingBlock: QUQFOY_clean_sbu_1, # of connection points: 4
#     Node 5, Type 0, BuildingBlock: QUQFOY_clean_sbu_1, # of connection points: 4
#     Node 6, Type 0, BuildingBlock: QUQFOY_clean_sbu_1, # of connection points: 4
#     Node 7, Type 0, BuildingBlock: QUQFOY_clean_sbu_1, # of connection points: 4
#     Node 8, Type 0, BuildingBlock: QUQFOY_clean_sbu_1, # of connection points: 4
#     Node 9, Type 0, BuildingBlock: QUQFOY_clean_sbu_1, # of connection points: 4
#     Node 10, Type 0, BuildingBlock: QUQFOY_clean_sbu_1, # of connection points: 4
#     Node 11, Type 0, BuildingBlock: QUQFOY_clean_sbu_1, # of connection points: 4
#     Node 12, Type 0, BuildingBlock: QUQFOY_clean_sbu_1, # of connection points: 4
#     Node 13, Type 0, BuildingBlock: QUQFOY_clean_sbu_1, # of connection points: 4
#     Node 14, Type 0, BuildingBlock: QUQFOY_clean_sbu_1, # of connection points: 4
#     Node 15, Type 0, BuildingBlock: QUQFOY_clean_sbu_1, # of connection points: 4
#     Node 16, Type 0, BuildingBlock: QUQFOY_clean_sbu_1, # of connection points: 4
#     Node 17, Type 0, BuildingBlock: QUQFOY_clean_sbu_1, # of connection points: 4
#     Node 18, Type 0, BuildingBlock: QUQFOY_clean_sbu_1, # of connection points: 4
#     Node 19, Type 0, BuildingBlock: QUQFOY_clean_sbu_1, # of connection points: 4
#     Node 20, Type 0, BuildingBlock: QUQFOY_clean_sbu_1, # of connection points: 4
#     Node 21, Type 0, BuildingBlock: QUQFOY_clean_sbu_1, # of connection points: 4
#     Node 22, Type 0, BuildingBlock: QUQFOY_clean_sbu_1, # of connection points: 4
#     Node 23, Type 0, BuildingBlock: QUQFOY_clean_sbu_1, # of connection points: 4
#     Node 24, Type 1, BuildingBlock: JUFBIX_clean_sbu_0, # of connection points: 6
#     Node 25, Type 1, BuildingBlock: JUFBIX_clean_sbu_0, # of connection points: 6
#     Node 26, Type 1, BuildingBlock: JUFBIX_clean_sbu_0, # of connection points: 6
#     Node 27, Type 1, BuildingBlock: JUFBIX_clean_sbu_0, # of connection points: 6
#     Node 28, Type 1, BuildingBlock: JUFBIX_clean_sbu_0, # of connection points: 6
#     Node 29, Type 1, BuildingBlock: JUFBIX_clean_sbu_0, # of connection points: 6
#     Node 30, Type 1, BuildingBlock: JUFBIX_clean_sbu_0, # of connection points: 6
#     Node 31, Type 1, BuildingBlock: JUFBIX_clean_sbu_0, # of connection points: 6
#     Node 32, Type 1, BuildingBlock: JUFBIX_clean_sbu_0, # of connection points: 6
#     Node 33, Type 1, BuildingBlock: JUFBIX_clean_sbu_0, # of connection points: 6
#     Node 34, Type 1, BuildingBlock: JUFBIX_clean_sbu_0, # of connection points: 6
#     Node 35, Type 1, BuildingBlock: JUFBIX_clean_sbu_0, # of connection points: 6
#     Node 36, Type 1, BuildingBlock: JUFBIX_clean_sbu_0, # of connection points: 6
#     Node 37, Type 1, BuildingBlock: JUFBIX_clean_sbu_0, # of connection points: 6
#     Node 38, Type 1, BuildingBlock: JUFBIX_clean_sbu_0, # of connection points: 6
#     Node 39, Type 1, BuildingBlock: JUFBIX_clean_sbu_0, # of connection points: 6
#     Edge 40, Type (0, 1), BuildingBlock: CIFDUS_clean_linker_0, # of connection points: 2
#     Edge 41, Type (0, 1), BuildingBlock: CIFDUS_clean_linker_0, # of connection points: 2
#     Edge 42, Type (0, 1), BuildingBlock: CIFDUS_clean_linker_0, # of connection points: 2
#     Edge 43, Type (0, 1), BuildingBlock: CIFDUS_clean_linker_0, # of connection points: 2
#     Edge 44, Type (0, 1), BuildingBlock: CIFDUS_clean_linker_0, # of connection points: 2
#     Edge 45, Type (0, 1), BuildingBlock: CIFDUS_clean_linker_0, # of connection points: 2
#     Edge 46, Type (0, 1), BuildingBlock: CIFDUS_clean_linker_0, # of connection points: 2
#     Edge 47, Type (0, 1), BuildingBlock: CIFDUS_clean_linker_0, # of connection points: 2
#     Edge 48, Type (0, 1), BuildingBlock: CIFDUS_clean_linker_0, # of connection points: 2
#     Edge 49, Type (0, 1), BuildingBlock: CIFDUS_clean_linker_0, # of connection points: 2
#     Edge 50, Type (0, 1), BuildingBlock: CIFDUS_clean_linker_0, # of connection points: 2
#     Edge 51, Type (0, 1), BuildingBlock: CIFDUS_clean_linker_0, # of connection points: 2
#     Edge 52, Type (0, 1), BuildingBlock: CIFDUS_clean_linker_0, # of connection points: 2
#     Edge 53, Type (0, 1), BuildingBlock: CIFDUS_clean_linker_0, # of connection points: 2
#     Edge 54, Type (0, 1), BuildingBlock: CIFDUS_clean_linker_0, # of connection points: 2
#     Edge 55, Type (0, 1), BuildingBlock: CIFDUS_clean_linker_0, # of connection points: 2
#     Edge 56, Type (0, 1), BuildingBlock: CIFDUS_clean_linker_0, # of connection points: 2
#     Edge 57, Type (0, 1), BuildingBlock: CIFDUS_clean_linker_0, # of connection points: 2
#     Edge 58, Type (0, 1), BuildingBlock: CIFDUS_clean_linker_0, # of connection points: 2
#     Edge 59, Type (0, 1), BuildingBlock: CIFDUS_clean_linker_0, # of connection points: 2
#     Edge 60, Type (0, 1), BuildingBlock: CIFDUS_clean_linker_0, # of connection points: 2
#     Edge 61, Type (0, 1), BuildingBlock: CIFDUS_clean_linker_0, # of connection points: 2
#     Edge 62, Type (0, 1), BuildingBlock: CIFDUS_clean_linker_0, # of connection points: 2
#     Edge 63, Type (0, 1), BuildingBlock: CIFDUS_clean_linker_0, # of connection points: 2
#     Edge 64, Type (0, 1), BuildingBlock: CIFDUS_clean_linker_0, # of connection points: 2
#     Edge 65, Type (0, 1), BuildingBlock: CIFDUS_clean_linker_0, # of connection points: 2
#     Edge 66, Type (0, 1), BuildingBlock: CIFDUS_clean_linker_0, # of connection points: 2
#     Edge 67, Type (0, 1), BuildingBlock: CIFDUS_clean_linker_0, # of connection points: 2
#     Edge 68, Type (0, 1), BuildingBlock: CIFDUS_clean_linker_0, # of connection points: 2
#     Edge 69, Type (0, 1), BuildingBlock: CIFDUS_clean_linker_0, # of connection points: 2
#     Edge 70, Type (0, 1), BuildingBlock: CIFDUS_clean_linker_0, # of connection points: 2
#     Edge 71, Type (0, 1), BuildingBlock: CIFDUS_clean_linker_0, # of connection points: 2
#     Edge 72, Type (0, 1), BuildingBlock: CIFDUS_clean_linker_0, # of connection points: 2
#     Edge 73, Type (0, 1), BuildingBlock: CIFDUS_clean_linker_0, # of connection points: 2
#     Edge 74, Type (0, 1), BuildingBlock: CIFDUS_clean_linker_0, # of connection points: 2
#     Edge 75, Type (0, 1), BuildingBlock: CIFDUS_clean_linker_0, # of connection points: 2
#     Edge 76, Type (0, 1), BuildingBlock: CIFDUS_clean_linker_0, # of connection points: 2
#     Edge 77, Type (0, 1), BuildingBlock: CIFDUS_clean_linker_0, # of connection points: 2
#     Edge 78, Type (0, 1), BuildingBlock: CIFDUS_clean_linker_0, # of connection points: 2
#     Edge 79, Type (0, 1), BuildingBlock: CIFDUS_clean_linker_0, # of connection points: 2
#     Edge 80, Type (0, 1), BuildingBlock: CIFDUS_clean_linker_0, # of connection points: 2
#     Edge 81, Type (0, 1), BuildingBlock: CIFDUS_clean_linker_0, # of connection points: 2
#     Edge 82, Type (0, 1), BuildingBlock: CIFDUS_clean_linker_0, # of connection points: 2
#     Edge 83, Type (0, 1), BuildingBlock: CIFDUS_clean_linker_0, # of connection points: 2
#     Edge 84, Type (0, 1), BuildingBlock: CIFDUS_clean_linker_0, # of connection points: 2
#     Edge 85, Type (0, 1), BuildingBlock: CIFDUS_clean_linker_0, # of connection points: 2
#     Edge 86, Type (0, 1), BuildingBlock: CIFDUS_clean_linker_0, # of connection points: 2
#     Edge 87, Type (0, 1), BuildingBlock: CIFDUS_clean_linker_0, # of connection points: 2
#     Edge 88, Type (0, 1), BuildingBlock: CIFDUS_clean_linker_0, # of connection points: 2
#     Edge 89, Type (0, 1), BuildingBlock: CIFDUS_clean_linker_0, # of connection points: 2
#     Edge 90, Type (0, 1), BuildingBlock: CIFDUS_clean_linker_0, # of connection points: 2
#     Edge 91, Type (0, 1), BuildingBlock: CIFDUS_clean_linker_0, # of connection points: 2
#     Edge 92, Type (0, 1), BuildingBlock: CIFDUS_clean_linker_0, # of connection points: 2
#     Edge 93, Type (0, 1), BuildingBlock: CIFDUS_clean_linker_0, # of connection points: 2
#     Edge 94, Type (0, 1), BuildingBlock: CIFDUS_clean_linker_0, # of connection points: 2
#     Edge 95, Type (0, 1), BuildingBlock: CIFDUS_clean_linker_0, # of connection points: 2
#     Edge 96, Type (0, 1), BuildingBlock: CIFDUS_clean_linker_0, # of connection points: 2
#     Edge 97, Type (0, 1), BuildingBlock: CIFDUS_clean_linker_0, # of connection points: 2
#     Edge 98, Type (0, 1), BuildingBlock: CIFDUS_clean_linker_0, # of connection points: 2
#     Edge 99, Type (0, 1), BuildingBlock: CIFDUS_clean_linker_0, # of connection points: 2
#     Edge 100, Type (0, 1), BuildingBlock: CIFDUS_clean_linker_0, # of connection points: 2
#     Edge 101, Type (0, 1), BuildingBlock: CIFDUS_clean_linker_0, # of connection points: 2
#     Edge 102, Type (0, 1), BuildingBlock: CIFDUS_clean_linker_0, # of connection points: 2
#     Edge 103, Type (0, 1), BuildingBlock: CIFDUS_clean_linker_0, # of connection points: 2
#     Edge 104, Type (0, 1), BuildingBlock: CIFDUS_clean_linker_0, # of connection points: 2
#     Edge 105, Type (0, 1), BuildingBlock: CIFDUS_clean_linker_0, # of connection points: 2
#     Edge 106, Type (0, 1), BuildingBlock: CIFDUS_clean_linker_0, # of connection points: 2
#     Edge 107, Type (0, 1), BuildingBlock: CIFDUS_clean_linker_0, # of connection points: 2
#     Edge 108, Type (0, 1), BuildingBlock: CIFDUS_clean_linker_0, # of connection points: 2
#     Edge 109, Type (0, 1), BuildingBlock: CIFDUS_clean_linker_0, # of connection points: 2
#     Edge 110, Type (0, 1), BuildingBlock: CIFDUS_clean_linker_0, # of connection points: 2
#     Edge 111, Type (0, 1), BuildingBlock: CIFDUS_clean_linker_0, # of connection points: 2
#     Edge 112, Type (0, 1), BuildingBlock: CIFDUS_clean_linker_0, # of connection points: 2
#     Edge 113, Type (0, 1), BuildingBlock: CIFDUS_clean_linker_0, # of connection points: 2
#     Edge 114, Type (0, 1), BuildingBlock: CIFDUS_clean_linker_0, # of connection points: 2
#     Edge 115, Type (0, 1), BuildingBlock: CIFDUS_clean_linker_0, # of connection points: 2
#     Edge 116, Type (0, 1), BuildingBlock: CIFDUS_clean_linker_0, # of connection points: 2
#     Edge 117, Type (0, 1), BuildingBlock: CIFDUS_clean_linker_0, # of connection points: 2
#     Edge 118, Type (0, 1), BuildingBlock: CIFDUS_clean_linker_0, # of connection points: 2
#     Edge 119, Type (0, 1), BuildingBlock: CIFDUS_clean_linker_0, # of connection points: 2
#     Edge 120, Type (0, 1), BuildingBlock: CIFDUS_clean_linker_0, # of connection points: 2
#     Edge 121, Type (0, 1), BuildingBlock: CIFDUS_clean_linker_0, # of connection points: 2
#     Edge 122, Type (0, 1), BuildingBlock: CIFDUS_clean_linker_0, # of connection points: 2
#     Edge 123, Type (0, 1), BuildingBlock: CIFDUS_clean_linker_0, # of connection points: 2
#     Edge 124, Type (0, 1), BuildingBlock: CIFDUS_clean_linker_0, # of connection points: 2
#     Edge 125, Type (0, 1), BuildingBlock: CIFDUS_clean_linker_0, # of connection points: 2
#     Edge 126, Type (0, 1), BuildingBlock: CIFDUS_clean_linker_0, # of connection points: 2
#     Edge 127, Type (0, 1), BuildingBlock: CIFDUS_clean_linker_0, # of connection points: 2
#     Edge 128, Type (0, 1), BuildingBlock: CIFDUS_clean_linker_0, # of connection points: 2
#     Edge 129, Type (0, 1), BuildingBlock: CIFDUS_clean_linker_0, # of connection points: 2
#     Edge 130, Type (0, 1), BuildingBlock: CIFDUS_clean_linker_0, # of connection points: 2
#     Edge 131, Type (0, 1), BuildingBlock: CIFDUS_clean_linker_0, # of connection points: 2
#     Edge 132, Type (0, 1), BuildingBlock: CIFDUS_clean_linker_0, # of connection points: 2
#     Edge 133, Type (0, 1), BuildingBlock: CIFDUS_clean_linker_0, # of connection points: 2
#     Edge 134, Type (0, 1), BuildingBlock: CIFDUS_clean_linker_0, # of connection points: 2
#     Edge 135, Type (0, 1), BuildingBlock: CIFDUS_clean_linker_0, # of connection points: 2
# Relax obj value: 0.256
# Max RMSD: 0.252
# Mean RMSD: 0.172
data_MOF--net-iac--node1-QUQFOY_clean_sbu_1--node2-JUFBIX_clean_sbu_0--edge1-CIFDUS_clean_linker_0
_symmetry_space_group_name_H-M    P1
_symmetry_Int_Tables_number       1
_symmetry_cell_setting            triclinic
loop_
_symmetry_equiv_pos_as_xyz
'x, y, z'
_cell_length_a     48.608579
_cell_length_b     49.831116
_cell_length_c     49.538781
_cell_angle_alpha  90.611361
_cell_angle_beta   88.626198
_cell_angle_gamma 92.023418
loop_
_atom_site_label
_atom_site_type_symbol
_atom_site_fract_x
_atom_site_fract_y
_atom_site_fract_z
_atom_type_partial_charge
O0 O 0.03709 0.22076 0.14288 0.0
Cd1 Cd 0.03598 0.25004 0.1736 0.0
Cd2 Cd 0.06623 0.28135 0.12916 0.0
O3 O 0.05782 0.24316 0.10921 0.0
O4 O 0.00962 0.23336 0.2016 0.0
O5 O 1.00123 0.27153 0.18223 0.0
C6 C 0.99326 0.25289 0.19886 0.0
C7 C 0.0607 0.32424 0.10662 0.0
C8 C 0.04665 0.22129 0.11865 0.0
C9 C 0.09564 0.27062 0.18371 0.0
O10 O 0.09616 0.28125 0.16023 0.0
O11 O 0.07382 0.25813 0.19247 0.0
O12 O 0.08145 0.30928 0.10191 0.0
O13 O 0.04226 0.31479 0.12353 0.0
O14 O 0.12387 0.76675 0.42859 0.0
Cd15 Cd 0.09153 0.75519 0.45287 0.0
Cd16 Cd 0.05882 0.77373 0.41244 0.0
O17 O 0.09791 0.77943 0.39548 0.0
O18 O 0.10187 0.72541 0.47584 0.0
O19 O 0.07058 0.72174 0.44372 0.0
C20 C 0.08386 0.71095 0.46291 0.0
C21 C 0.02421 0.76818 0.38093 0.0
C22 C 0.12152 0.7759 0.40501 0.0
C23 C 0.05341 0.79628 0.47007 0.0
O24 O 0.0453 0.79517 0.44589 0.0
O25 O 0.07324 0.78246 0.47733 0.0
O26 O 0.03767 0.79062 0.38401 0.0
O27 O 0.03067 0.74818 0.39556 0.0
O28 O 0.53065 0.73566 0.64395 0.0
Cd29 Cd 0.52992 0.76638 0.6729 0.0
Cd30 Cd 0.5601 0.79322 0.62625 0.0
O31 O 0.5509 0.75401 0.60774 0.0
O32 O 0.50509 0.74936 0.70191 0.0
O33 O 0.49483 0.78694 0.68239 0.0
C34 C 0.48802 0.76829 0.69941 0.0
C35 C 0.54843 0.83624 0.60695 0.0
C36 C 0.5395 0.73345 0.61959 0.0
C37 C 0.59009 0.7858 0.68104 0.0
O38 O 0.5909 0.79423 0.65664 0.0
O39 O 0.56785 0.77509 0.69096 0.0
O40 O 0.57024 0.82385 0.59937 0.0
O41 O 0.53268 0.82405 0.6247 0.0
O42 O 0.62967 0.29116 0.92013 0.0
Cd43 Cd 0.59348 0.27852 0.93883 0.0
Cd44 Cd 0.56988 0.28967 0.89328 0.0
O45 O 0.61019 0.29195 0.88056 0.0
O46 O 0.60083 0.24952 0.96411 0.0
O47 O 0.57729 0.24352 0.92645 0.0
C48 C 0.58754 0.23359 0.94785 0.0
C49 C 0.53895 0.27343 0.86161 0.0
C50 C 0.63157 0.29374 0.8947 0.0
C51 C 0.55397 0.3215 0.94296 0.0
O52 O 0.55383 0.31949 0.9174 0.0
O53 O 0.56795 0.30574 0.95664 0.0
O54 O 0.55197 0.29618 0.85882 0.0
O55 O 0.54395 0.25918 0.8824 0.0
O56 O 0.12293 0.02765 0.28159 0.0
Cd57 Cd 0.14286 0.03376 0.31761 0.0
Cd58 Cd 0.09363 0.05753 0.32825 0.0
O59 O 0.08267 0.04522 0.29065 0.0
O60 O 0.17951 0.02049 0.30687 0.0
O61 O 0.1538 1.00169 0.33922 0.0
C62 C 0.17626 1.00213 0.32479 0.0
C63 C 0.07654 0.03363 0.36446 0.0
C64 C 0.09881 0.03313 0.2746 0.0
C65 C 0.14168 0.09318 0.33427 0.0
O66 O 0.11563 0.09324 0.33296 0.0
O67 O 0.15448 0.07171 0.33006 0.0
O68 O 0.06235 0.05217 0.35396 0.0
O69 O 0.10076 0.02904 0.35448 0.0
O70 O 0.26491 0.92089 0.63036 0.0
Cd71 Cd 0.253 0.93436 0.59366 0.0
Cd72 Cd 0.274 0.89077 0.57595 0.0
O73 O 0.26305 0.8795 0.61458 0.0
O74 O 0.21998 0.95531 0.60042 0.0
O75 O 0.2196 0.91622 0.57827 0.0
C76 C 0.20631 0.93607 0.58851 0.0
C77 C 0.26995 0.86256 0.53879 0.0
C78 C 0.26385 0.89582 0.63445 0.0
C79 C 0.30351 0.94261 0.56333 0.0
O80 O 0.30601 0.91807 0.5691 0.0
O81 O 0.28115 0.954 0.56892 0.0
O82 O 0.28749 0.85818 0.5572 0.0
O83 O 0.25277 0.88147 0.54293 0.0
O84 O 0.39144 0.03205 0.70925 0.0
Cd85 Cd 0.37272 0.03865 0.74614 0.0
Cd86 Cd 0.42378 0.03992 0.76314 0.0
O87 O 0.42969 0.05151 0.72383 0.0
O88 O 0.3387 0.05848 0.74167 0.0
O89 O 0.37765 0.07589 0.75864 0.0
C90 C 0.35276 0.07896 0.75083 0.0
C91 C 0.45213 0.05643 0.79701 0.0
C92 C 0.41494 0.04313 0.70445 0.0
C93 C 0.38731 0.99444 0.7795 0.0
O94 O 0.41166 1.001 0.77188 0.0
O95 O 0.36755 0.00918 0.77401 0.0
O96 O 0.46123 0.04111 0.77795 0.0
O97 O 0.42725 0.06448 0.7955 0.0
O98 O 0.30221 0.16385 0.07128 0.0
Cd99 Cd 0.30248 0.13782 0.03795 0.0
Cd100 Cd 0.27877 0.18462 0.01482 0.0
O101 O 0.28812 0.2017 0.05426 0.0
O102 O 0.3306 0.11024 0.04679 0.0
O103 O 0.336 0.13737 0.01215 0.0
C104 C 0.34576 0.1187 0.02668 0.0
C105 C 0.28754 0.20759 0.97211 0.0
C106 C 0.29641 0.18848 0.07449 0.0
C107 C 0.24344 0.13041 0.01979 0.0
O108 O 0.24565 0.15532 0.01359 0.0
O109 O 0.26418 0.11876 0.02909 0.0
O110 O 0.26759 0.2135 0.98853 0.0
O111 O 0.30381 0.18956 0.98029 0.0
O112 O 0.75528 0.4103 0.12666 0.0
Cd113 Cd 0.7493 0.43279 0.09306 0.0
Cd114 Cd 0.76743 0.39103 0.06792 0.0
O115 O 0.75715 0.37246 0.10357 0.0
O116 O 0.71967 0.45745 0.10196 0.0
O117 O 0.71553 0.42359 0.07258 0.0
C118 C 0.70468 0.44348 0.08541 0.0
C119 C 0.76159 0.36942 0.02684 0.0
C120 C 0.75539 0.38484 0.12601 0.0
C121 C 0.80225 0.44163 0.06557 0.0
O122 O 0.80183 0.41616 0.06492 0.0
O123 O 0.78145 0.45376 0.07464 0.0
O124 O 0.77898 0.36145 0.04398 0.0
O125 O 0.74534 0.38824 0.03424 0.0
O126 O 0.91191 0.54686 0.20913 0.0
Cd127 Cd 0.88559 0.55333 0.24095 0.0
Cd128 Cd 0.92691 0.54146 0.27143 0.0
O129 O 0.94765 0.54579 0.2354 0.0
O130 O 0.86074 0.58152 0.23115 0.0
O131 O 0.89305 0.58646 0.26216 0.0
C132 C 0.87364 0.59655 0.24848 0.0
C133 C 0.9541 0.55231 0.30794 0.0
C134 C 0.93772 0.54628 0.21205 0.0
C135 C 0.87545 0.50542 0.27274 0.0
O136 O 0.90066 0.50882 0.27846 0.0
O137 O 0.86377 0.52225 0.25832 0.0
O138 O 0.95835 0.53166 0.29288 0.0
O139 O 0.93399 0.56737 0.30234 0.0
O140 O 0.80144 0.66478 0.57345 0.0
Cd141 Cd 0.80168 0.63735 0.54115 0.0
Cd142 Cd 0.77386 0.68308 0.5168 0.0
O143 O 0.78278 0.70058 0.55615 0.0
O144 O 0.82793 0.60843 0.55173 0.0
O145 O 0.83547 0.63337 0.51587 0.0
C146 C 0.84362 0.61453 0.53119 0.0
C147 C 0.78589 0.70428 0.47369 0.0
C148 C 0.79314 0.68873 0.57631 0.0
C149 C 0.74148 0.62812 0.52467 0.0
O150 O 0.74192 0.65248 0.51657 0.0
O151 O 0.76315 0.61834 0.53419 0.0
O152 O 0.76447 0.7108 0.48789 0.0
O153 O 0.8011 0.68651 0.48416 0.0
O154 O 0.63258 0.53098 0.76274 0.0
Cd155 Cd 0.64721 0.53026 0.80157 0.0
Cd156 Cd 0.59677 0.54882 0.811 0.0
O157 O 0.58895 0.53819 0.77225 0.0
O158 O 0.68523 0.51935 0.79313 0.0
O159 O 0.65625 0.49521 0.8188 0.0
C160 C 0.68032 0.49832 0.80747 0.0
C161 C 0.57789 0.52559 0.84685 0.0
C162 C 0.60797 0.5331 0.75525 0.0
C163 C 0.64126 0.58594 0.82492 0.0
O164 O 0.61622 0.5854 0.81824 0.0
O165 O 0.65553 0.56525 0.82217 0.0
O166 O 0.56377 0.54293 0.83442 0.0
O167 O 0.60261 0.52092 0.83824 0.0
O168 O 0.08612 0.76909 0.90414 0.0
Cd169 Cd 0.05393 0.76926 0.93294 0.0
Cd170 Cd 0.02792 0.79388 0.88233 0.0
O171 O 0.06628 0.78125 0.86636 0.0
O172 O 0.06283 0.74052 0.96115 0.0
O173 O 0.02774 0.73562 0.93439 0.0
C174 C 0.04266 0.72533 0.95266 0.0
C175 C 0.98752 0.79337 0.85448 0.0
C176 C 0.08741 0.77361 0.8788 0.0
C177 C 0.03825 0.82926 0.93485 0.0
O178 O 0.03076 0.82577 0.91043 0.0
O179 O 0.04647 0.80925 0.9484 0.0
O180 O 0.00784 0.81039 0.85109 0.0
O181 O 0.99015 0.77586 0.8732 0.0
O182 O 0.01279 0.24405 0.64945 0.0
Cd183 Cd 0.02027 0.27745 0.6732 0.0
Cd184 Cd 0.04599 0.29684 0.62891 0.0
O185 O 0.03778 0.25896 0.61459 0.0
O186 O 0.99706 0.27442 0.70679 0.0
O187 O 0.99421 0.30709 0.67716 0.0
C188 C 0.9865 0.29664 0.69988 0.0
C189 C 0.02621 0.33328 0.61031 0.0
C190 C 0.02346 0.24039 0.62608 0.0
C191 C 0.08036 0.29413 0.67648 0.0
O192 O 0.07996 0.30235 0.65233 0.0
O193 O 0.059 0.28321 0.68744 0.0
O194 O 0.04712 0.32247 0.59848 0.0
O195 O 0.01649 0.32298 0.63244 0.0
O196 O 0.53546 0.23056 0.41399 0.0
Cd197 Cd 0.5405 0.26018 0.38454 0.0
Cd198 Cd 0.51665 0.29399 0.42793 0.0
O199 O 0.5242 0.25657 0.44883 0.0
O200 O 0.57128 0.24865 0.35871 0.0
O201 O 0.57529 0.28442 0.38496 0.0
C202 C 0.58648 0.26856 0.36735 0.0
C203 C 0.52545 0.33862 0.44777 0.0
C204 C 0.52989 0.23323 0.43914 0.0
C205 C 0.48429 0.28325 0.37414 0.0
O206 O 0.48559 0.29316 0.3981 0.0
O207 O 0.50442 0.27016 0.36426 0.0
O208 O 0.5057 0.32261 0.45617 0.0
O209 O 0.54123 0.32922 0.42884 0.0
O210 O 0.50148 0.76333 0.14197 0.0
Cd211 Cd 0.50902 0.79635 0.16637 0.0
Cd212 Cd 0.53573 0.81674 0.12379 0.0
O213 O 0.52703 0.7795 0.10825 0.0
O214 O 0.48623 0.79024 0.19948 0.0
O215 O 0.4816 0.82509 0.17278 0.0
C216 C 0.47441 0.81232 0.19454 0.0
C217 C 0.52487 0.85272 0.09779 0.0
C218 C 0.51244 0.76054 0.11863 0.0
C219 C 0.56932 0.81111 0.17165 0.0
O220 O 0.56931 0.82053 0.14797 0.0
O221 O 0.54754 0.80038 0.18195 0.0
O222 O 0.54514 0.83782 0.09121 0.0
O223 O 0.51065 0.84723 0.11954 0.0
O224 O 0.88446 0.08646 0.71542 0.0
Cd225 Cd 0.85563 0.09525 0.74459 0.0
Cd226 Cd 0.89447 0.07926 0.77751 0.0
O227 O 0.91888 0.08528 0.74346 0.0
O228 O 0.8334 0.12449 0.73127 0.0
O229 O 0.86045 0.12848 0.76678 0.0
C230 C 0.84383 0.13924 0.75033 0.0
C231 C 0.91913 0.08193 0.81749 0.0
C232 C 0.90998 0.08492 0.71962 0.0
C233 C 0.84221 0.04408 0.76829 0.0
O234 O 0.86664 0.04693 0.77673 0.0
O235 O 0.83121 0.06328 0.75646 0.0
O236 O 0.92181 0.06257 0.80048 0.0
O237 O 0.90227 0.10039 0.81191 0.0
O238 O 0.83175 0.18807 0.58316 0.0
Cd239 Cd 0.82411 0.15577 0.55788 0.0
Cd240 Cd 0.80842 0.19103 0.52389 0.0
O241 O 0.81938 0.21797 0.55379 0.0
O242 O 0.84186 0.12427 0.57293 0.0
O243 O 0.85301 0.14125 0.53278 0.0
C244 C 0.85606 0.12301 0.55068 0.0
C245 C 0.82423 0.19596 0.47994 0.0
C246 C 0.82769 0.21231 0.57709 0.0
C247 C 0.76499 0.15266 0.54162 0.0
O248 O 0.76995 0.17343 0.52755 0.0
O249 O 0.784 0.14248 0.55481 0.0
O250 O 0.80763 0.21267 0.49097 0.0
O251 O 0.83296 0.17666 0.49425 0.0
O252 O 0.66526 1.00372 0.25193 0.0
Cd253 Cd 0.67698 0.99987 0.29148 0.0
Cd254 Cd 0.62849 0.01123 0.29743 0.0
O255 O 0.62338 0.98962 0.26269 0.0
O256 O 0.71149 0.98038 0.29201 0.0
O257 O 0.67146 0.96438 0.30883 0.0
C258 C 0.69736 0.9613 0.30387 0.0
C259 C 0.60796 0.99988 0.33761 0.0
C260 C 0.64165 0.99506 0.24476 0.0
C261 C 0.66875 0.05392 0.30622 0.0
O262 O 0.64625 0.04931 0.29425 0.0
O263 O 0.68273 0.03439 0.31343 0.0
O264 O 0.59415 0.01134 0.31924 0.0
O265 O 0.63325 0.99408 0.33257 0.0
O266 O 0.7824 0.89812 0.0737 0.0
Cd267 Cd 0.78377 0.92605 0.04165 0.0
Cd268 Cd 0.81376 0.88197 0.01619 0.0
O269 O 0.80403 0.86399 0.05479 0.0
O270 O 0.75588 0.9545 0.05173 0.0
O271 O 0.75103 0.92807 0.01632 0.0
C272 C 0.74139 0.94711 0.0313 0.0
C273 C 0.80414 0.86153 0.97219 0.0
C274 C 0.79195 0.87461 0.0754 0.0
C275 C 0.8453 0.93596 0.0248 0.0
O276 O 0.84621 0.9112 0.01789 0.0
O277 O 0.82253 0.94581 0.03297 0.0
O278 O 0.82302 0.85312 0.98761 0.0
O279 O 0.7899 0.88103 0.98178 0.0
O280 O 0.31933 0.69568 0.08603 0.0
Cd281 Cd 0.31501 0.6625 0.06133 0.0
Cd282 Cd 0.29483 0.69528 0.02688 0.0
O283 O 0.29776 0.72183 0.05858 0.0
O284 O 0.33656 0.63321 0.07591 0.0
O285 O 0.34433 0.65077 0.03535 0.0
C286 C 0.34974 0.63295 0.05301 0.0
C287 C 0.31526 0.7073 0.98631 0.0
C288 C 0.3091 0.71815 0.08097 0.0
C289 C 0.25792 0.65002 0.04232 0.0
O290 O 0.261 0.66963 0.02631 0.0
O291 O 0.2767 0.64478 0.05857 0.0
O292 O 0.29286 0.71798 0.99478 0.0
O293 O 0.32636 0.68953 1.0009 0.0
O294 O 0.17085 0.49086 0.74513 0.0
Cd295 Cd 0.20013 0.49294 0.77373 0.0
Cd296 Cd 0.16156 0.50515 0.80695 0.0
O297 O 0.13744 0.4912 0.77592 0.0
O298 O 0.22982 0.46787 0.76736 0.0
O299 O 0.19922 0.46517 0.8016 0.0
C300 C 0.22053 0.45608 0.78903 0.0
C301 C 0.14642 0.49472 0.85023 0.0
C302 C 0.14542 0.48926 0.75145 0.0
C303 C 0.20299 0.5482 0.7923 0.0
O304 O 0.17943 0.54292 0.8029 0.0
O305 O 0.21663 0.52982 0.7811 0.0
O306 O 0.13304 0.51028 0.83515 0.0
O307 O 0.16881 0.48477 0.84086 0.0
O308 O 0.28555 0.39099 0.57611 0.0
Cd309 Cd 0.28262 0.42217 0.54801 0.0
Cd310 Cd 0.31434 0.38545 0.51356 0.0
O311 O 0.31081 0.36366 0.55098 0.0
O312 O 0.25161 0.44624 0.56116 0.0
O313 O 0.24978 0.42377 0.52284 0.0
C314 C 0.23802 0.43986 0.53982 0.0
C315 C 0.30209 0.36751 0.46939 0.0
C316 C 0.29888 0.36942 0.57367 0.0
C317 C 0.34146 0.4405 0.52768 0.0
O318 O 0.34304 0.41845 0.51433 0.0
O319 O 0.3197 0.44545 0.54173 0.0
O320 O 0.32369 0.36007 0.48159 0.0
O321 O 0.28685 0.38428 0.48241 0.0
O322 O 0.3654 0.58683 0.20334 0.0
Cd323 Cd 0.34013 0.59169 0.2368 0.0
Cd324 Cd 0.38173 0.57188 0.26424 0.0
O325 O 0.40104 0.57623 0.22719 0.0
O326 O 0.3187 0.62448 0.23337 0.0
O327 O 0.35048 0.61971 0.2643 0.0
C328 C 0.33264 0.63452 0.25321 0.0
C329 C 0.41202 0.5713 0.3 0.0
C330 C 0.39053 0.58094 0.20461 0.0
C331 C 0.327 0.53965 0.26052 0.0
O332 O 0.35166 0.54221 0.26823 0.0
O333 O 0.31639 0.55835 0.24753 0.0
O334 O 0.41059 0.55223 0.28246 0.0
O335 O 0.39646 0.59146 0.29712 0.0
Co336 Co 0.04454 0.03339 0.00987 0.0
C337 C 0.04063 0.06979 0.05421 0.0
Co338 Co 0.0534 0.01495 0.04831 0.0
C339 C 0.02023 0.04209 0.95836 0.0
C340 C 0.04815 0.07415 0.96987 0.0
N341 N 0.0381 0.04975 0.97758 0.0
N342 N 0.01842 0.06096 0.93923 0.0
C343 C 0.03599 0.08114 0.94633 0.0
H344 H 0.00777 0.02365 0.95909 0.0
H345 H 0.06262 0.08651 0.98121 0.0
C346 C 0.05698 0.97794 0.00509 0.0
N347 N 0.05956 0.99886 0.08062 0.0
C348 C 0.07424 0.0089 0.10133 0.0
C349 C 0.04849 0.97523 0.0895 0.0
N350 N 0.07243 0.99265 0.12284 0.0
C351 C 0.05613 0.97153 0.1157 0.0
C352 C 0.99757 0.00785 0.03332 0.0
O353 O 0.05029 0.99821 0.99127 0.0
O354 O 0.06118 0.98172 0.0301 0.0
O355 O 0.01521 1.00295 0.05102 0.0
O356 O 1.00526 0.02282 0.01365 0.0
O357 O 0.04547 0.04849 0.06707 0.0
H358 H 0.03496 0.96204 0.07799 0.0
H359 H 0.08481 0.02839 0.10118 0.0
O360 O 0.03863 0.06785 0.02865 0.0
O361 O 0.08383 0.04409 0.00621 0.0
O362 O 0.09174 0.02669 0.04543 0.0
C363 C 0.10062 0.04007 0.02505 0.0
H364 H 0.03944 0.09976 0.93549 0.0
H365 H 0.04964 0.9551 0.12877 0.0
Co366 Co 0.29941 0.83598 0.30538 0.0
C367 C 0.30049 0.78934 0.27633 0.0
Co368 Co 0.27993 0.84044 0.26611 0.0
C369 C 0.29653 0.84288 0.36179 0.0
C370 C 0.33291 0.822 0.35095 0.0
N371 N 0.3112 0.83388 0.34036 0.0
N372 N 0.30788 0.83707 0.38543 0.0
C373 C 0.3309 0.8239 0.37878 0.0
H374 H 0.27711 0.8526 0.36001 0.0
H375 H 0.34873 0.81208 0.33925 0.0
C376 C 0.27787 0.88654 0.29459 0.0
N377 N 0.26756 0.8417 0.23132 0.0
C378 C 0.28196 0.83149 0.21037 0.0
C379 C 0.24277 0.84695 0.22137 0.0
N380 N 0.26707 0.82896 0.18791 0.0
C381 C 0.2424 0.83906 0.19452 0.0
C382 C 0.24275 0.82302 0.30394 0.0
O383 O 0.28966 0.87263 0.31201 0.0
O384 O 0.27201 0.87629 0.27185 0.0
O385 O 0.24395 0.82984 0.27931 0.0
O386 O 0.26446 0.82429 0.31753 0.0
O387 O 0.28783 0.80392 0.26026 0.0
H388 H 0.2255 0.85404 0.23328 0.0
H389 H 0.30251 0.82419 0.21219 0.0
O390 O 0.30854 0.79945 0.29857 0.0
O391 O 0.33476 0.84728 0.29287 0.0
O392 O 0.31586 0.85102 0.2534 0.0
C393 C 0.33706 0.85254 0.26788 0.0
H394 H 0.34517 0.81613 0.39294 0.0
H395 H 0.22469 0.83869 0.18167 0.0
Co396 Co 0.51427 0.02958 0.51979 0.0
C397 C 0.52974 0.08486 0.50832 0.0
Co398 Co 0.55244 0.04393 0.53836 0.0
C399 C 0.4636 1.00109 0.51221 0.0
C400 C 0.47219 0.02787 0.47937 0.0
N401 N 0.48268 0.01884 0.50247 0.0
N402 N 0.44166 0.99875 0.49634 0.0
C403 C 0.44657 0.01572 0.47575 0.0
H404 H 0.46501 0.99108 0.5314 0.0
H405 H 0.48208 0.04289 0.46648 0.0
C406 C 0.53806 0.98844 0.54895 0.0
N407 N 0.58349 0.05401 0.55661 0.0
C408 C 0.60649 0.06723 0.54771 0.0
C409 C 0.58818 0.0481 0.58258 0.0
N410 N 0.62541 0.06963 0.56714 0.0
C411 C 0.61397 0.05767 0.58911 0.0
C412 C 0.50508 0.05059 0.56992 0.0
O413 O 0.51691 0.99342 0.5354 0.0
O414 O 0.55571 0.00761 0.55244 0.0
O415 O 0.53105 0.05384 0.56901 0.0
O416 O 0.49295 0.04036 0.54976 0.0
O417 O 0.54961 0.08042 0.52388 0.0
H418 H 0.57385 0.0372 0.59584 0.0
H419 H 0.60955 0.07426 0.52722 0.0
O420 O 0.51231 0.06556 0.50406 0.0
O421 O 0.53504 0.01867 0.49009 0.0
O422 O 0.57372 0.03384 0.50746 0.0
C423 C 0.56094 0.02227 0.48824 0.0
H424 H 0.43248 0.0194 0.45972 0.0
H425 H 0.62353 0.05603 0.60851 0.0
Co426 Co 0.33191 0.28498 0.76849 0.0
C427 C 0.30441 0.2972 0.72048 0.0
Co428 Co 0.28838 0.27255 0.77033 0.0
C429 C 0.38968 0.28056 0.77511 0.0
C430 C 0.38007 0.31775 0.75689 0.0
N431 N 0.36852 0.29486 0.76687 0.0
N432 N 0.41413 0.29365 0.77084 0.0
C433 C 0.40813 0.31711 0.75937 0.0
H434 H 0.38705 0.26094 0.78414 0.0
H435 H 0.36876 0.334 0.74873 0.0
C436 C 0.31436 0.26122 0.81865 0.0
N437 N 0.25189 0.26259 0.77184 0.0
C438 C 0.23123 0.27654 0.76213 0.0
C439 C 0.23986 0.24007 0.78222 0.0
N440 N 0.20672 0.26355 0.7657 0.0
C441 C 0.21193 0.24061 0.77847 0.0
C442 C 0.32184 0.23317 0.75102 0.0
O443 O 0.33546 0.27129 0.80592 0.0
O444 O 0.29172 0.25975 0.80642 0.0
O445 O 0.29686 0.23816 0.75638 0.0
O446 O 0.34026 0.25135 0.75454 0.0
O447 O 0.28442 0.28614 0.73384 0.0
H448 H 0.25075 0.22407 0.79137 0.0
H449 H 0.23421 0.29576 0.75232 0.0
O450 O 0.3279 0.29852 0.73147 0.0
O451 O 0.32383 0.31887 0.78254 0.0
O452 O 0.28016 0.30647 0.78448 0.0
C453 C 0.29912 0.32412 0.78843 0.0
H454 H 0.42279 0.33315 0.7541 0.0
H455 H 0.19686 0.22488 0.78362 0.0
Co456 Co 1.00535 0.98565 0.55528 0.0
C457 C 0.99324 0.01571 0.60033 0.0
Co458 Co 0.03009 0.02307 0.55764 0.0
C459 C 0.99581 0.93006 0.54728 0.0
C460 C 0.95762 0.94909 0.55481 0.0
N461 N 0.98513 0.9539 0.55332 0.0
N462 N 0.97628 0.91051 0.54466 0.0
C463 C 0.95207 0.9223 0.54907 0.0
H464 H 0.01752 0.92742 0.54305 0.0
H465 H 0.94259 0.96426 0.55865 0.0
C466 C 0.04156 0.99351 0.51214 0.0
N467 N 0.04999 0.05488 0.55935 0.0
C468 C 0.03928 0.07876 0.56532 0.0
C469 C 0.07713 0.06011 0.55494 0.0
N470 N 0.05852 0.0988 0.56501 0.0
C471 C 0.08246 0.08728 0.55838 0.0
C472 C 0.05502 0.98156 0.58125 0.0
O473 O 0.0216 0.9786 0.5207 0.0
O474 O 0.04922 0.01397 0.52576 0.0
O475 O 0.05642 0.0067 0.57779 0.0
O476 O 0.0347 0.96779 0.5722 0.0
O477 O 0.01077 0.03211 0.58976 0.0
H478 H 0.092 0.04516 0.5497 0.0
H479 H 0.01759 0.08136 0.56958 0.0
O480 O 0.98878 0.99296 0.5892 0.0
O481 O 0.97664 1.00373 0.53879 0.0
O482 O 1.00335 0.03998 0.53733 0.0
C483 C 0.98052 0.02816 0.53231 0.0
H484 H 0.93195 0.91248 0.54734 0.0
H485 H 0.10239 0.0976 0.55672 0.0
Co486 Co 0.29833 0.79737 0.81257 0.0
C487 C 0.24479 0.77535 0.82278 0.0
Co488 Co 0.28905 0.76081 0.78952 0.0
C489 C 0.32081 0.84861 0.82686 0.0
C490 C 0.29708 0.83161 0.85974 0.0
N491 N 0.30559 0.82678 0.83402 0.0
N492 N 0.32219 0.86691 0.84694 0.0
C493 C 0.30703 0.85665 0.86765 0.0
H494 H 0.32995 0.85151 0.8069 0.0
H495 H 0.28423 0.81799 0.87181 0.0
C496 C 0.34241 0.78296 0.779 0.0
N497 N 0.28213 0.73153 0.76826 0.0
C498 C 0.27037 0.70821 0.77638 0.0
C499 C 0.28853 0.72795 0.74183 0.0
N500 N 0.26918 0.69004 0.75617 0.0
C501 C 0.28064 0.70222 0.73432 0.0
C502 C 0.2754 0.80767 0.76431 0.0
O503 O 0.3345 0.80103 0.79546 0.0
O504 O 0.32592 0.76325 0.77407 0.0
O505 O 0.27649 0.7824 0.76224 0.0
O506 O 0.28398 0.8194 0.78554 0.0
O507 O 0.25176 0.75823 0.80486 0.0
H508 H 0.29864 0.74294 0.72904 0.0
H509 H 0.26365 0.70439 0.79702 0.0
O510 O 0.26231 0.79364 0.8294 0.0
O511 O 0.31267 0.77574 0.83926 0.0
O512 O 0.30168 0.73875 0.81731 0.0
C513 C 0.31198 0.75031 0.83783 0.0
H514 H 0.3033 0.86661 0.88685 0.0
H515 H 0.28319 0.69318 0.7145 0.0
Co516 Co 0.54608 0.03605 0.00564 0.0
C517 C 0.59738 0.02431 0.02699 0.0
Co518 Co 0.55062 0.051 0.04711 0.0
C519 C 0.53212 0.03813 0.94991 0.0
C520 C 0.54961 1.00072 0.95979 0.0
N521 N 0.54191 0.0243 0.97063 0.0
N522 N 0.53362 0.02424 0.92645 0.0
C523 C 0.54456 1.00064 0.93259 0.0
H524 H 0.5247 0.05831 0.9519 0.0
H525 H 0.55861 0.98479 0.97091 0.0
C526 C 0.49934 0.06206 0.02735 0.0
N527 N 0.55561 0.06275 0.08184 0.0
C528 C 0.56729 0.04821 0.10085 0.0
C529 C 0.55316 0.08746 0.09285 0.0
N530 N 0.57283 0.06281 0.12311 0.0
C531 C 0.56399 0.0876 0.11833 0.0
C532 C 0.56808 0.08787 0.00923 0.0
O533 O 0.5088 0.05039 0.00617 0.0
O534 O 0.51475 0.06482 0.04764 0.0
O535 O 0.56551 0.08374 0.03435 0.0
O536 O 0.5608 0.06948 0.99272 0.0
O537 O 0.58677 0.03685 0.04688 0.0
H538 H 0.54544 0.10454 0.08248 0.0
H539 H 0.57346 0.02773 0.09763 0.0
O540 O 0.5833 0.02153 0.00568 0.0
O541 O 0.5313 1.00277 0.01868 0.0
O542 O 0.53552 0.01828 0.06 0.0
C543 C 0.52818 0.99953 0.04397 0.0
H544 H 0.54841 0.98438 0.91849 0.0
H545 H 0.56606 0.10472 0.13186 0.0
Co546 Co 0.29106 0.26282 0.27624 0.0
C547 C 0.34664 0.2807 0.28402 0.0
Co548 Co 0.29991 0.3042 0.26379 0.0
C549 C 0.26282 0.21925 0.30304 0.0
C550 C 0.30105 0.20739 0.28499 0.0
N551 N 0.28471 0.22852 0.28832 0.0
N552 N 0.26481 0.19312 0.30911 0.0
C553 C 0.28886 0.18555 0.2978 0.0
H554 H 0.24579 0.23149 0.30924 0.0
H555 H 0.32044 0.20781 0.27379 0.0
C556 C 0.24434 0.28645 0.25584 0.0
N557 N 0.30539 0.33892 0.25144 0.0
C558 C 0.31096 0.36161 0.26571 0.0
C559 C 0.29917 0.3474 0.2266 0.0
N560 N 0.30794 0.38383 0.25087 0.0
C561 C 0.30079 0.37494 0.22618 0.0
C562 C 0.30462 0.26521 0.22097 0.0
O563 O 0.25198 0.26524 0.26727 0.0
O564 O 0.26188 0.3059 0.25349 0.0
O565 O 0.30845 0.29 0.22721 0.0
O566 O 0.29771 0.24911 0.23993 0.0
O567 O 0.33834 0.30262 0.27445 0.0
H568 H 0.29231 0.33451 0.21021 0.0
H569 H 0.31555 0.36193 0.28698 0.0
O570 O 0.3298 0.2605 0.28483 0.0
O571 O 0.2847 0.27625 0.31285 0.0
O572 O 0.29134 0.31783 0.30027 0.0
C573 C 0.28679 0.30108 0.31925 0.0
H574 H 0.29664 0.16546 0.29801 0.0
H575 H 0.2964 0.38745 0.20918 0.0
Co576 Co 0.5079 0.50698 0.04571 0.0
C577 C 0.49747 0.53768 0.09066 0.0
Co578 Co 0.53009 0.5461 0.04471 0.0
C579 C 0.50351 0.45127 0.03614 0.0
C580 C 0.46616 0.46436 0.05486 0.0
N581 N 0.49151 0.47313 0.04641 0.0
N582 N 0.4868 0.42931 0.03747 0.0
C583 C 0.46315 0.43716 0.0492 0.0
H584 H 0.52389 0.45157 0.0268 0.0
H585 H 0.45062 0.47705 0.06358 0.0
C586 C 0.54044 0.51579 0.99966 0.0
N587 N 0.5465 0.57974 0.04362 0.0
C588 C 0.53373 0.60247 0.05014 0.0
C589 C 0.57255 0.58757 0.0368 0.0
N590 N 0.55069 0.62429 0.04799 0.0
C591 C 0.5752 0.61511 0.03946 0.0
C592 C 0.56046 0.5084 0.06749 0.0
O593 O 0.52249 0.49992 0.01038 0.0
O594 O 0.54727 0.53752 0.0116 0.0
O595 O 0.55999 0.5333 0.06279 0.0
O596 O 0.54012 0.49311 0.0611 0.0
O597 O 0.51298 0.55464 0.07825 0.0
H598 H 0.58859 0.57413 0.03067 0.0
H599 H 0.51227 0.60293 0.0564 0.0
O600 O 0.49299 0.5145 0.0805 0.0
O601 O 0.47619 0.52102 0.03071 0.0
O602 O 0.49966 0.55918 0.02647 0.0
C603 C 0.47751 0.54539 0.02338 0.0
H604 H 0.44476 0.42456 0.05216 0.0
H605 H 0.59385 0.62727 0.03623 0.0
Co606 Co 0.79605 0.28854 0.29954 0.0
C607 C 0.74391 0.26493 0.31 0.0
Co608 Co 0.79244 0.24784 0.28274 0.0
C609 C 0.81744 0.34229 0.30501 0.0
C610 C 0.78783 0.33275 0.33643 0.0
N611 N 0.80054 0.32235 0.31431 0.0
N612 N 0.81573 0.36455 0.32033 0.0
C613 C 0.79699 0.35899 0.34001 0.0
H614 H 0.8304 0.34082 0.28702 0.0
H615 H 0.77289 0.32202 0.34916 0.0
C616 C 0.84403 0.27081 0.2712 0.0
N617 N 0.78742 0.2142 0.26812 0.0
C618 C 0.77175 0.19433 0.27925 0.0
C619 C 0.79339 0.20569 0.24278 0.0
N620 N 0.76689 0.17404 0.26172 0.0
C621 C 0.78058 0.18092 0.23872 0.0
C622 C 0.77692 0.28819 0.24848 0.0
O623 O 0.83355 0.29067 0.28372 0.0
O624 O 0.82945 0.24931 0.26886 0.0
O625 O 0.78009 0.26305 0.24999 0.0
O626 O 0.78262 0.30311 0.26854 0.0
O627 O 0.75488 0.24614 0.29648 0.0
H628 H 0.80467 0.2175 0.22773 0.0
H629 H 0.76211 0.19577 0.29911 0.0
O630 O 0.7586 0.28601 0.31468 0.0
O631 O 0.80969 0.2744 0.33066 0.0
O632 O 0.8051 0.23299 0.31577 0.0
C633 C 0.81245 0.24955 0.3342 0.0
H634 H 0.79065 0.37279 0.3558 0.0
H635 H 0.78025 0.16953 0.21999 0.0
Co636 Co 0.0369 0.51564 0.51416 0.0
C637 C 0.0863 0.50311 0.53954 0.0
Co638 Co 0.03627 0.52511 0.55736 0.0
C639 C 0.03094 0.52563 0.45828 0.0
C640 C 0.04855 0.48753 0.46487 0.0
N641 N 0.03847 0.5091 0.47784 0.0
N642 N 0.03592 0.51532 0.43348 0.0
C643 C 0.04696 0.49128 0.43752 0.0
H644 H 0.02222 0.545 0.46226 0.0
H645 H 0.05648 0.47023 0.47469 0.0
C646 C 0.98715 0.5378 0.53299 0.0
N647 N 0.03474 0.53139 0.59394 0.0
C648 C 0.05632 0.53641 0.60988 0.0
C649 C 0.01303 0.52714 0.61102 0.0
N650 N 0.0493 0.5345 0.63625 0.0
C651 C 0.02196 0.52896 0.63712 0.0
C652 C 0.05539 0.5673 0.52697 0.0
O653 O 0.99922 0.52915 0.51159 0.0
O654 O 0.99992 0.5374 0.55499 0.0
O655 O 0.05044 0.56068 0.55134 0.0
O656 O 0.0513 0.55023 0.50826 0.0
O657 O 0.07317 0.51253 0.5598 0.0
H658 H 0.9925 0.52105 0.60494 0.0
H659 H 0.0773 0.53887 0.60229 0.0
O660 O 0.07436 0.50241 0.51691 0.0
O661 O 0.02246 0.48083 0.51988 0.0
O662 O 0.02215 0.48964 0.56326 0.0
C663 C 0.01768 0.47329 0.5439 0.0
H664 H 0.05277 0.47708 0.42189 0.0
H665 H 0.00969 0.52468 0.65519 0.0
Co666 Co 0.81937 0.7932 0.27685 0.0
C667 C 0.80066 0.8058 0.22379 0.0
Co668 Co 0.77662 0.78043 0.26951 0.0
C669 C 0.87605 0.7909 0.29169 0.0
C670 C 0.86671 0.82865 0.2745 0.0
N671 N 0.85537 0.80457 0.28135 0.0
N672 N 0.89999 0.80553 0.29162 0.0
C673 C 0.89406 0.82936 0.28085 0.0
H674 H 0.87348 0.77054 0.29893 0.0
H675 H 0.85572 0.84473 0.26561 0.0
C676 C 0.79451 0.76807 0.32246 0.0
N677 N 0.74082 0.769 0.26512 0.0
C678 C 0.72059 0.78282 0.25434 0.0
C679 C 0.72881 0.74545 0.27297 0.0
N680 N 0.69634 0.76891 0.25521 0.0
C681 C 0.70136 0.74536 0.26691 0.0
C682 C 0.81381 0.74205 0.25624 0.0
O683 O 0.81714 0.7794 0.31425 0.0
O684 O 0.77479 0.76638 0.30597 0.0
O685 O 0.78848 0.74723 0.25609 0.0
O686 O 0.8311 0.75968 0.26456 0.0
O687 O 0.77819 0.795 0.23288 0.0
H688 H 0.73934 0.72947 0.28256 0.0
H689 H 0.72354 0.80292 0.24646 0.0
O690 O 0.82127 0.80668 0.23941 0.0
O691 O 0.8075 0.82692 0.28942 0.0
O692 O 0.7648 0.81331 0.28303 0.0
C693 C 0.78198 0.83128 0.29084 0.0
H694 H 0.90822 0.84642 0.27828 0.0
H695 H 0.68639 0.7291 0.27045 0.0
Co696 Co 0.81812 0.34435 0.80341 0.0
C697 C 0.82457 0.29493 0.77993 0.0
Co698 Co 0.80117 0.3419 0.76266 0.0
C699 C 0.81422 0.34949 0.86077 0.0
C700 C 0.85501 0.34015 0.84748 0.0
N701 N 0.83007 0.34617 0.83839 0.0
N702 N 0.82796 0.34511 0.88351 0.0
C703 C 0.8538 0.33952 0.87524 0.0
H704 H 0.79251 0.35342 0.86027 0.0
H705 H 0.87252 0.33517 0.83475 0.0
C706 C 0.79374 0.39066 0.78652 0.0
N707 N 0.78976 0.33876 0.72753 0.0
C708 C 0.80384 0.32573 0.70802 0.0
C709 C 0.76631 0.34583 0.71596 0.0
N710 N 0.79007 0.32372 0.68481 0.0
C711 C 0.76645 0.33658 0.68956 0.0
C712 C 0.76308 0.3268 0.80109 0.0
O713 O 0.80516 0.37985 0.80631 0.0
O714 O 0.79082 0.37774 0.76449 0.0
O715 O 0.76562 0.33066 0.77584 0.0
O716 O 0.78369 0.33104 0.81588 0.0
O717 O 0.8115 0.30557 0.76121 0.0
H718 H 0.74979 0.35604 0.72631 0.0
H719 H 0.82367 0.31718 0.71111 0.0
O720 O 0.83049 0.30883 0.80069 0.0
O721 O 0.85267 0.35728 0.79054 0.0
O722 O 0.83656 0.35307 0.74973 0.0
C723 C 0.85642 0.3587 0.76518 0.0
H724 H 0.87045 0.33457 0.8882 0.0
H725 H 0.74987 0.33798 0.6755 0.0
Co726 Co 0.78249 0.7735 0.77605 0.0
C727 C 0.83927 0.78589 0.78221 0.0
Co728 Co 0.79551 0.81256 0.75977 0.0
C729 C 0.74893 0.72619 0.78736 0.0
C730 C 0.78224 0.73169 0.81452 0.0
N731 N 0.77195 0.74131 0.79169 0.0
N732 N 0.7439 0.70797 0.80704 0.0
C733 C 0.76514 0.71128 0.82397 0.0
H734 H 0.73548 0.72954 0.77077 0.0
H735 H 0.79982 0.74035 0.82487 0.0
C736 C 0.73871 0.8001 0.75306 0.0
N737 N 0.80531 0.84546 0.74528 0.0
C738 C 0.81645 0.86687 0.75838 0.0
C739 C 0.79812 0.85483 0.72109 0.0
N740 N 0.81582 0.88938 0.74366 0.0
C741 C 0.80447 0.88193 0.72008 0.0
C742 C 0.79639 0.7704 0.72045 0.0
O743 O 0.74425 0.7795 0.76665 0.0
O744 O 0.75802 0.81756 0.74884 0.0
O745 O 0.80242 0.7952 0.72486 0.0
O746 O 0.78777 0.75621 0.7405 0.0
O747 O 0.83336 0.8076 0.7706 0.0
H748 H 0.78737 0.84311 0.70588 0.0
H749 H 0.82306 0.86639 0.77908 0.0
O750 O 0.8203 0.76777 0.78501 0.0
O751 O 0.77757 0.79053 0.81166 0.0
O752 O 0.78836 0.82978 0.79489 0.0
C753 C 0.78205 0.81557 0.81549 0.0
H754 H 0.76754 0.70098 0.84282 0.0
H755 H 0.80012 0.89528 0.70375 0.0
Co756 Co 0.53391 0.55156 0.4937 0.0
C757 C 0.52934 0.59008 0.53718 0.0
Co758 Co 0.53928 0.53504 0.5338 0.0
C759 C 0.5124 0.56336 0.44136 0.0
C760 C 0.54286 0.59236 0.45446 0.0
N761 N 0.53038 0.56863 0.46116 0.0
N762 N 0.51293 0.58307 0.42287 0.0
C763 C 0.53215 0.60129 0.43095 0.0
H764 H 0.49797 0.5463 0.44141 0.0
H765 H 0.55767 0.60328 0.4667 0.0
C766 C 0.54394 0.4967 0.4903 0.0
N767 N 0.54209 0.51831 0.56639 0.0
C768 C 0.55355 0.52713 0.58947 0.0
C769 C 0.52966 0.49441 0.57259 0.0
N770 N 0.5483 0.50978 0.60979 0.0
C771 C 0.53332 0.4892 0.59933 0.0
C772 C 0.48448 0.52917 0.51485 0.0
O773 O 0.54069 0.51719 0.47556 0.0
O774 O 0.54505 0.50046 0.51575 0.0
O775 O 0.49964 0.52588 0.53507 0.0
O776 O 0.49509 0.54149 0.49455 0.0
O777 O 0.53345 0.56979 0.55189 0.0
H778 H 0.51778 0.48201 0.55876 0.0
H779 H 0.5643 0.5464 0.59168 0.0
O780 O 0.52727 0.58594 0.51185 0.0
O781 O 0.57241 0.56115 0.49271 0.0
O782 O 0.57925 0.54447 0.53246 0.0
C783 C 0.58872 0.55737 0.51187 0.0
H784 H 0.53745 0.62009 0.42104 0.0
H785 H 0.52519 0.47194 0.61041 0.0
Co786 Co 0.01793 0.51944 0.01799 0.0
C787 C 0.04099 0.57192 0.01062 0.0
Co788 Co 0.05769 0.52469 0.03749 0.0
C789 C 0.96405 0.49701 0.01226 0.0
C790 C 0.97276 0.52605 0.98146 0.0
N791 N 0.98413 0.5137 1.00242 0.0
N792 N 0.94077 0.49841 0.99847 0.0
C793 C 0.94577 0.51681 0.97918 0.0
H794 H 0.96587 0.48494 0.03013 0.0
H795 H 0.98309 0.54132 0.96918 0.0
C796 C 0.03603 0.4726 0.04549 0.0
N797 N 0.09068 0.53009 0.05396 0.0
C798 C 0.11276 0.54439 0.04461 0.0
C799 C 0.09757 0.52176 0.07864 0.0
N800 N 0.13315 0.54562 0.06257 0.0
C801 C 0.12376 0.53128 0.08399 0.0
C802 C 0.01318 0.53787 0.06978 0.0
O803 O 0.01627 0.48205 0.03235 0.0
O804 O 0.05672 0.48812 0.0498 0.0
O805 O 0.03913 0.53574 0.06979 0.0
O806 O 1.0001 0.53171 0.04877 0.0
O807 O 0.05924 0.56178 0.02511 0.0
H808 H 0.08412 0.51013 0.09213 0.0
H809 H 0.11364 0.55398 0.02509 0.0
O810 O 0.02037 0.55673 1.00421 0.0
O811 O 0.03532 0.50716 0.98693 0.0
O812 O 0.07583 0.51343 0.00503 0.0
C813 C 0.06127 0.50595 0.98513 0.0
H814 H 0.93094 0.52328 0.96487 0.0
H815 H 0.13457 0.52878 0.1026 0.0
H816 H 0.03439 0.16974 0.1358 0.0
H817 H 0.05662 0.21393 0.0637 0.0
H818 H 0.05533 0.17195 0.03731 0.0
H819 H 0.04882 0.12182 0.03463 0.0
H820 H 0.02915 0.0783 0.10778 0.0
H821 H 0.0284 0.12043 0.13335 0.0
C822 C 0.03884 0.1704 0.11427 0.0
C823 C 0.04547 0.19549 0.10198 0.0
C824 C 0.0385 0.14595 0.09918 0.0
C825 C 0.05142 0.1953 0.07398 0.0
C826 C 0.05066 0.17112 0.05878 0.0
C827 C 0.04409 0.12154 0.05612 0.0
C828 C 0.03877 0.09648 0.06903 0.0
C829 C 0.04431 0.1462 0.07112 0.0
C830 C 0.03321 0.09691 0.09707 0.0
C831 C 0.03282 0.12116 0.11182 0.0
H832 H 0.12459 0.79417 0.3532 0.0
H833 H 0.17466 0.77262 0.4201 0.0
H834 H 0.21616 0.78441 0.39395 0.0
H835 H 0.23811 0.80154 0.35323 0.0
H836 H 0.1896 0.82393 0.28568 0.0
H837 H 0.14732 0.8107 0.31106 0.0
C838 C 0.14459 0.79202 0.36203 0.0
C839 C 0.14649 0.78263 0.38863 0.0
C840 C 0.16851 0.79886 0.34685 0.0
C841 C 0.17255 0.77984 0.39973 0.0
C842 C 0.19632 0.78656 0.3848 0.0
C843 C 0.21834 0.80356 0.34387 0.0
C844 C 0.21693 0.81387 0.31767 0.0
C845 C 0.19448 0.7962 0.3585 0.0
C846 C 0.19116 0.81605 0.30586 0.0
C847 C 0.16705 0.80858 0.32038 0.0
H848 H 0.58411 0.8767 0.58818 0.0
H849 H 0.49769 0.85802 0.60142 0.0
H850 H 0.48642 0.90206 0.58392 0.0
H851 H 0.50108 0.9469 0.56486 0.0
H852 H 0.58789 0.96664 0.55617 0.0
H853 H 0.59876 0.92197 0.57163 0.0
C854 C 0.56277 0.88216 0.58716 0.0
C855 C 0.54182 0.86355 0.59599 0.0
C856 C 0.5564 0.90814 0.57782 0.0
C857 C 0.51435 0.87158 0.59482 0.0
C858 C 0.50786 0.89693 0.58474 0.0
C859 C 0.52238 0.94144 0.56632 0.0
C860 C 0.54358 0.96052 0.55906 0.0
C861 C 0.52868 0.91554 0.57617 0.0
C862 C 0.57102 0.95278 0.56155 0.0
C863 C 0.57733 0.92702 0.57039 0.0
H864 H 0.53387 0.29074 0.81084 0.0
H865 H 0.49395 0.24027 0.87131 0.0
H866 H 0.45154 0.23892 0.84563 0.0
H867 H 0.42415 0.25923 0.81095 0.0
H868 H 0.46406 0.31061 0.75106 0.0
H869 H 0.50834 0.30458 0.77178 0.0
C870 C 0.51606 0.27892 0.81806 0.0
C871 C 0.51669 0.2661 0.84311 0.0
C872 C 0.49169 0.27892 0.80366 0.0
C873 C 0.4938 0.25042 0.85209 0.0
C874 C 0.46951 0.24988 0.83756 0.0
C875 C 0.44255 0.26855 0.8019 0.0
C876 C 0.44062 0.28601 0.77991 0.0
C877 C 0.4679 0.26515 0.81404 0.0
C878 C 0.46482 0.29781 0.76851 0.0
C879 C 0.49018 0.29424 0.78024 0.0
H880 H 1.00315 0.81758 0.46611 0.0
H881 H 0.07258 0.81383 0.51858 0.0
H882 H 0.05155 0.84594 0.54956 0.0
H883 H 0.01646 0.8791 0.55853 0.0
H884 H 0.94802 0.88437 0.50555 0.0
H885 H 0.96501 0.84679 0.47836 0.0
C886 C 0.01358 0.82368 0.48442 0.0
C887 C 0.03963 0.81386 0.48979 0.0
C888 C 1.00141 0.84213 0.50209 0.0
C889 C 0.05265 0.82138 0.51387 0.0
C890 C 0.04064 0.83968 0.5316 0.0
C891 C 1.00501 0.87145 0.54139 0.0
C892 C 0.98134 0.88443 0.53372 0.0
C893 C 0.01544 0.85069 0.52549 0.0
C894 C 0.96625 0.87446 0.51178 0.0
C895 C 0.97619 0.8533 0.49607 0.0
H896 H 0.45678 0.8103 0.71787 0.0
H897 H 0.45836 0.72385 0.71504 0.0
H898 H 0.41371 0.72066 0.73861 0.0
H899 H 0.37369 0.74216 0.7599 0.0
H900 H 0.37345 0.82843 0.7669 0.0
H901 H 0.41774 0.83196 0.7422 0.0
C902 C 0.44731 0.7908 0.72244 0.0
C903 C 0.46095 0.76734 0.71446 0.0
C904 C 0.42175 0.78906 0.73687 0.0
C905 C 0.44847 0.74224 0.72092 0.0
C906 C 0.42284 0.74037 0.73439 0.0
C907 C 0.38335 0.76175 0.75607 0.0
C908 C 0.37007 0.78499 0.76514 0.0
C909 C 0.40922 0.7636 0.74245 0.0
C910 C 0.38315 0.81018 0.76024 0.0
C911 C 0.4085 0.81222 0.746 0.0
H912 H 0.60457 0.20832 0.99205 0.0
H913 H 0.56252 0.1943 0.91715 0.0
H914 H 0.55512 0.1469 0.92843 0.0
H915 H 0.55817 0.11022 0.96094 0.0
H916 H 0.59833 0.12538 0.03666 0.0
H917 H 0.60925 0.17161 0.02347 0.0
C918 C 0.59391 0.1949 0.97809 0.0
C919 C 0.58395 0.2048 0.95391 0.0
C920 C 0.58946 0.1679 0.98482 0.0
C921 C 0.57025 0.18715 0.936 0.0
C922 C 0.56604 0.16007 0.9424 0.0
C923 C 0.56969 0.12357 0.97432 0.0
C924 C 0.57742 0.11454 0.99971 0.0
C925 C 0.57526 0.15032 0.96693 0.0
C926 C 0.59208 0.13201 0.01704 0.0
C927 C 0.59827 0.15842 0.00956 0.0
H928 H 0.14133 0.30558 0.18132 0.0
H929 H 0.10812 0.2366 0.22444 0.0
H930 H 0.15004 0.23513 0.25056 0.0
H931 H 0.19746 0.25262 0.26071 0.0
H932 H 0.22908 0.32341 0.21938 0.0
H933 H 0.18709 0.3249 0.19368 0.0
C934 C 0.14315 0.29027 0.1965 0.0
C935 C 0.12124 0.27116 0.20058 0.0
C936 C 0.16738 0.2898 0.21205 0.0
C937 C 0.12429 0.25169 0.22067 0.0
C938 C 0.14847 0.25076 0.23568 0.0
C939 C 0.1951 0.26853 0.24628 0.0
C940 C 0.21685 0.28787 0.24227 0.0
C941 C 0.17033 0.26961 0.23153 0.0
C942 C 0.21298 0.30827 0.22331 0.0
C943 C 0.18884 0.30911 0.20836 0.0
H944 H 0.13024 0.02758 0.22937 0.0
H945 H 0.04643 0.02032 0.25984 0.0
H946 H 0.03103 0.00527 0.21537 0.0
H947 H 0.04148 0.99473 0.16768 0.0
H948 H 0.12429 0.00584 0.13624 0.0
H949 H 0.14036 0.01875 0.18135 0.0
C950 C 0.10863 0.02264 0.22622 0.0
C951 C 0.08947 0.02488 0.2477 0.0
C952 C 0.0999 0.01463 0.20056 0.0
C953 C 0.06148 0.01882 0.24345 0.0
C954 C 0.0527 0.01013 0.21813 0.0
C955 C 0.06304 0.99974 0.171 0.0
C956 C 0.08191 0.99905 0.14923 0.0
C957 C 0.07174 0.00797 0.19658 0.0
C958 C 0.10969 0.00615 0.15309 0.0
C959 C 0.11875 0.01353 0.17872 0.0
H960 H 0.2528 0.88141 0.49149 0.0
H961 H 0.29598 0.81628 0.52582 0.0
H962 H 0.31087 0.80168 0.48064 0.0
H963 H 0.31528 0.81028 0.43175 0.0
H964 H 0.27496 0.878 0.39874 0.0
H965 H 0.25536 0.88868 0.44293 0.0
C966 C 0.26486 0.8636 0.48906 0.0
C967 C 0.27323 0.84992 0.51191 0.0
C968 C 0.27434 0.85609 0.46324 0.0
C969 C 0.28922 0.82711 0.50847 0.0
C970 C 0.29795 0.81891 0.48268 0.0
C971 C 0.30233 0.82742 0.43428 0.0
C972 C 0.29668 0.84327 0.41188 0.0
C973 C 0.2914 0.83381 0.45998 0.0
C974 C 0.27944 0.8652 0.41546 0.0
C975 C 0.26824 0.87142 0.4408 0.0
H976 H 0.4622 0.06884 0.68836 0.0
H977 H 0.39208 0.0233 0.65797 0.0
H978 H 0.4127 0.02441 0.61247 0.0
H979 H 0.45251 0.0347 0.58253 0.0
H980 H 0.52331 0.07845 0.61389 0.0
H981 H 0.50023 0.08193 0.65797 0.0
C982 C 0.45128 0.05927 0.67179 0.0
C983 C 0.42586 0.04566 0.67657 0.0
C984 C 0.46336 0.05965 0.64594 0.0
C985 C 0.41182 0.03371 0.65483 0.0
C986 C 0.42358 0.03432 0.62884 0.0
C987 C 0.4627 0.04538 0.59889 0.0
C988 C 0.48963 0.0561 0.5951 0.0
C989 C 0.44962 0.04672 0.62432 0.0
C990 C 0.50263 0.06985 0.61643 0.0
C991 C 0.4895 0.07179 0.64162 0.0
H992 H 0.3327 0.21141 0.93583 0.0
H993 H 0.2472 0.23109 0.9448 0.0
H994 H 0.24799 0.24879 0.89917 0.0
H995 H 0.2721 0.25812 0.85591 0.0
H996 H 0.35838 0.2423 0.84667 0.0
H997 H 0.35816 0.22406 0.89266 0.0
C998 C 0.31429 0.21969 0.92786 0.0
C999 C 0.28982 0.21966 0.94417 0.0
C1000 C 0.31498 0.23062 0.90128 0.0
C1001 C 0.26635 0.23076 0.93318 0.0
C1002 C 0.26673 0.2409 0.90686 0.0
C1003 C 0.29097 0.25077 0.86389 0.0
C1004 C 0.3152 0.25151 0.84744 0.0
C1005 C 0.29081 0.24084 0.89062 0.0
C1006 C 0.33941 0.24211 0.8586 0.0
C1007 C 0.33924 0.23156 0.885 0.0
H1008 H 0.10607 0.01384 0.40457 0.0
H1009 H 0.02305 0.02142 0.37753 0.0
H1010 H 1.00483 1.00282 0.42006 0.0
H1011 H 0.01252 0.99154 0.4672 0.0
H1012 H 0.09519 0.99115 0.49648 0.0
H1013 H 0.11382 0.99902 0.45073 0.0
C1014 C 0.08402 0.01086 0.40786 0.0
C1015 C 0.06584 0.0191 0.38827 0.0
C1016 C 0.07376 1.00143 0.43278 0.0
C1017 C 0.03733 0.01544 0.39263 0.0
C1018 C 0.02694 1.00479 0.41686 0.0
C1019 C 0.03459 0.99222 0.46322 0.0
C1020 C 0.05261 0.99049 0.4847 0.0
C1021 C 0.04494 0.99867 0.43741 0.0
C1022 C 0.08115 0.99217 0.47989 0.0
C1023 C 0.09171 0.99693 0.45388 0.0
H1024 H 0.24397 0.84765 0.65073 0.0
H1025 H 0.28355 0.92081 0.67987 0.0
H1026 H 0.28785 0.9009 0.72453 0.0
H1027 H 0.28462 0.8608 0.75352 0.0
H1028 H 0.24524 0.78791 0.72304 0.0
H1029 H 0.23623 0.80981 0.68074 0.0
C1030 C 0.25339 0.8593 0.66691 0.0
C1031 C 0.26391 0.88536 0.66203 0.0
C1032 C 0.25582 0.84779 0.69225 0.0
C1033 C 0.27549 0.90054 0.68323 0.0
C1034 C 0.278 0.88918 0.70869 0.0
C1035 C 0.2736 0.84995 0.73779 0.0
C1036 C 0.266 0.82273 0.74116 0.0
C1037 C 0.26884 0.86255 0.71322 0.0
C1038 C 0.25167 0.80882 0.72072 0.0
C1039 C 0.24652 0.82128 0.6965 0.0
H1040 H 0.50272 0.03826 0.80622 0.0
H1041 H 0.4371 0.08249 0.84386 0.0
H1042 H 0.45858 0.07866 0.88774 0.0
H1043 H 0.49222 0.0569 0.91603 0.0
H1044 H 0.5559 0.01044 0.87812 0.0
H1045 H 0.5387 0.02066 0.83367 0.0
C1046 C 0.49334 0.04758 0.82389 0.0
C1047 C 0.46815 0.06035 0.82182 0.0
C1048 C 0.50514 0.04433 0.8491 0.0
C1049 C 0.45645 0.07246 0.84491 0.0
C1050 C 0.46859 0.07006 0.87005 0.0
C1051 C 0.50261 0.04945 0.89801 0.0
C1052 C 0.52503 0.03258 0.90035 0.0
C1053 C 0.49233 0.0551 0.87251 0.0
C1054 C 0.53823 0.02294 0.87684 0.0
C1055 C 0.52852 0.02893 0.85143 0.0
H1056 H 0.30102 0.24244 0.09278 0.0
H1057 H 0.29548 0.16082 0.12136 0.0
H1058 H 0.29817 0.17667 0.16769 0.0
H1059 H 0.30157 0.21328 0.20125 0.0
H1060 H 0.30881 0.2952 0.17429 0.0
H1061 H 0.30626 0.27979 0.1272 0.0
C1062 C 0.30037 0.22812 0.10911 0.0
C1063 C 0.298 0.20022 0.10293 0.0
C1064 C 0.30239 0.23744 0.13648 0.0
C1065 C 0.29742 0.18229 0.12486 0.0
C1066 C 0.29893 0.19135 0.15168 0.0
C1067 C 0.30283 0.22788 0.18515 0.0
C1068 C 0.3055 0.25552 0.19181 0.0
C1069 C 0.30144 0.21883 0.15788 0.0
C1070 C 0.30698 0.27382 0.17021 0.0
C1071 C 0.30536 0.26497 0.14307 0.0
H1072 H 0.22466 0.08261 0.04321 0.0
H1073 H 0.19988 0.14411 0.98918 0.0
H1074 H 0.15495 0.12118 0.98451 0.0
H1075 H 0.12139 0.08427 0.99684 0.0
H1076 H 0.14508 0.0244 0.05315 0.0
H1077 H 0.19106 0.04574 0.05562 0.0
C1078 C 0.20955 0.09095 0.03024 0.0
C1079 C 0.21612 0.11525 0.01651 0.0
C1080 C 0.18319 0.07781 0.02801 0.0
C1081 C 0.19579 0.12562 1.00009 0.0
C1082 C 0.16991 0.11243 0.99736 0.0
C1083 C 0.1367 0.07565 0.0094 0.0
C1084 C 0.12951 0.05238 0.02456 0.0
C1085 C 0.16319 0.08857 0.01133 0.0
C1086 C 0.14975 0.04207 0.0411 0.0
C1087 C 0.17619 0.05437 0.04259 0.0
H1088 H 0.67872 0.48623 0.10618 0.0
H1089 H 0.66594 0.41576 0.05596 0.0
H1090 H 0.61841 0.42803 0.04877 0.0
H1091 H 0.58165 0.46053 0.05435 0.0
H1092 H 0.59614 0.53235 0.10203 0.0
H1093 H 0.64182 0.51751 0.11315 0.0
C1094 C 0.66553 0.47344 0.09376 0.0
C1095 C 0.67584 0.45025 0.08146 0.0
C1096 C 0.63852 0.48079 0.08945 0.0
C1097 C 0.65849 0.43387 0.06547 0.0
C1098 C 0.63132 0.44081 0.06143 0.0
C1099 C 0.59466 0.47256 0.06763 0.0
C1100 C 0.58573 0.49735 0.07752 0.0
C1101 C 0.62125 0.46441 0.07305 0.0
C1102 C 0.60277 0.51315 0.09428 0.0
C1103 C 0.62885 0.50476 0.10051 0.0
H1104 H 0.89647 0.4593 0.28935 0.0
H1105 H 0.81969 0.4984 0.27871 0.0
H1106 H 0.79417 0.4585 0.29537 0.0
H1107 H 0.79384 0.41164 0.31108 0.0
H1108 H 0.87036 0.37175 0.31774 0.0
H1109 H 0.89618 0.41299 0.30487 0.0
C1110 C 0.87415 0.45915 0.29084 0.0
C1111 C 0.85993 0.48164 0.28287 0.0
C1112 C 0.85971 0.4361 0.29983 0.0
C1113 C 0.83103 0.48116 0.28461 0.0
C1114 C 0.81646 0.45845 0.29421 0.0
C1115 C 0.81617 0.41239 0.31008 0.0
C1116 C 0.83049 0.38928 0.31555 0.0
C1117 C 0.8306 0.43575 0.30167 0.0
C1118 C 0.85929 0.38971 0.31372 0.0
C1119 C 0.8739 0.41311 0.30629 0.0
H1120 H 0.86811 0.5783 0.56306 0.0
H1121 H 0.87959 0.61974 0.48748 0.0
H1122 H 0.92376 0.59824 0.4798 0.0
H1123 H 0.9607 0.56876 0.49574 0.0
H1124 H 0.94896 0.52966 0.57261 0.0
H1125 H 0.90372 0.54872 0.57831 0.0
C1126 C 0.88013 0.58258 0.54479 0.0
C1127 C 0.87028 0.60075 0.52593 0.0
C1128 C 0.90574 0.57039 0.54066 0.0
C1129 C 0.88647 0.60595 0.50246 0.0
C1130 C 0.91183 0.5936 0.49802 0.0
C1131 C 0.94801 0.56411 0.51349 0.0
C1132 C 0.95834 0.54758 0.53366 0.0
C1133 C 0.92189 0.57587 0.51709 0.0
C1134 C 0.94169 0.54224 0.55676 0.0
C1135 C 0.91573 0.55322 0.5601 0.0
H1136 H 0.19252 0.09807 0.35403 0.0
H1137 H 0.12846 0.14415 0.32027 0.0
H1138 H 0.16136 0.1819 0.31288 0.0
H1139 H 0.2098 0.19779 0.30825 0.0
H1140 H 0.27386 0.14998 0.33954 0.0
H1141 H 0.23946 0.11663 0.35553 0.0
C1142 C 0.18561 0.11663 0.34561 0.0
C1143 C 0.15834 0.11824 0.33719 0.0
C1144 C 0.20477 0.1376 0.34045 0.0
C1145 C 0.14943 0.14247 0.32682 0.0
C1146 C 0.1683 0.1639 0.32231 0.0
C1147 C 0.21615 0.18043 0.31919 0.0
C1148 C 0.24434 0.17602 0.32228 0.0
C1149 C 0.19628 0.16112 0.32783 0.0
C1150 C 0.25231 0.1534 0.33639 0.0
C1151 C 0.23267 0.13444 0.34562 0.0
H1152 H 0.35149 0.92218 0.54587 0.0
H1153 H 0.30647 0.9954 0.54801 0.0
H1154 H 0.34455 0.01875 0.52381 0.0
H1155 H 0.39198 0.01877 0.50453 0.0
H1156 H 0.43714 0.94611 0.50503 0.0
H1157 H 0.39731 0.92168 0.52523 0.0
C1158 C 0.34991 0.94326 0.54109 0.0
C1159 C 0.32632 0.95711 0.54898 0.0
C1160 C 0.37175 0.95646 0.52734 0.0
C1161 C 0.32455 0.98434 0.54236 0.0
C1162 C 0.34623 0.99767 0.52843 0.0
C1163 C 0.39257 0.99744 0.50847 0.0
C1164 C 0.41692 0.9839 0.50311 0.0
C1165 C 0.37002 0.98396 0.52103 0.0
C1166 C 0.41822 0.95652 0.50883 0.0
C1167 C 0.39566 0.94275 0.52054 0.0
H1168 H 0.83025 0.62085 0.22781 0.0
H1169 H 0.90172 0.63553 0.2767 0.0
H1170 H 0.89054 0.68278 0.28141 0.0
H1171 H 0.85981 0.71929 0.2727 0.0
H1172 H 0.78705 0.70404 0.22584 0.0
H1173 H 0.79971 0.65739 0.21884 0.0
C1174 C 0.84342 0.63438 0.23947 0.0
C1175 C 0.86671 0.6248 0.25194 0.0
C1176 C 0.83677 0.66131 0.24225 0.0
C1177 C 0.88355 0.64248 0.26706 0.0
C1178 C 0.87726 0.66947 0.26966 0.0
C1179 C 0.84694 0.70584 0.26063 0.0
C1180 C 0.82266 0.71494 0.24965 0.0
C1181 C 0.85388 0.67903 0.25741 0.0
C1182 C 0.80588 0.69733 0.23443 0.0
C1183 C 0.81304 0.67072 0.23052 0.0
H1184 H 0.72516 0.49313 0.77518 0.0
H1185 H 0.68299 0.45841 0.84479 0.0
H1186 H 0.71773 0.42408 0.84689 0.0
H1187 H 0.75783 0.40197 0.82648 0.0
H1188 H 0.79623 0.43393 0.75383 0.0
H1189 H 0.76557 0.47192 0.7556 0.0
C1190 C 0.7237 0.47823 0.791 0.0
C1191 C 0.70158 0.4782 0.80979 0.0
C1192 C 0.74319 0.45828 0.79157 0.0
C1193 C 0.69978 0.45866 0.83001 0.0
C1194 C 0.71966 0.43914 0.83126 0.0
C1195 C 0.75987 0.41774 0.81154 0.0
C1196 C 0.7794 0.41574 0.79035 0.0
C1197 C 0.74119 0.43854 0.81188 0.0
C1198 C 0.78148 0.43553 0.77047 0.0
C1199 C 0.76386 0.45702 0.77139 0.0
H1200 H 0.06454 0.85162 0.98014 0.0
H1201 H 0.01279 0.87245 0.91455 0.0
H1202 H 0.01512 0.91937 0.92866 0.0
H1203 H 0.03176 0.95571 0.95965 0.0
H1204 H 0.08281 0.93513 0.02575 0.0
H1205 H 0.08099 0.88808 0.01142 0.0
C1206 C 0.05353 0.86631 0.96905 0.0
C1207 C 0.03841 0.85783 0.94616 0.0
C1208 C 0.05507 0.89393 0.97723 0.0
C1209 C 0.02464 0.87777 0.93217 0.0
C1210 C 0.02601 0.90494 0.94021 0.0
C1211 C 0.04284 0.94105 0.97072 0.0
C1212 C 0.05772 0.94954 0.99371 0.0
C1213 C 0.04131 0.91346 0.9626 0.0
C1214 C 0.07134 0.92968 0.00791 0.0
C1215 C 0.07021 0.9025 0.99977 0.0
H1216 H 0.95388 0.33707 0.68665 0.0
H1217 H 0.97456 0.28638 0.75281 0.0
H1218 H 0.93954 0.30704 0.78151 0.0
H1219 H 0.89937 0.33479 0.78567 0.0
H1220 H 0.87465 0.38085 0.71777 0.0
H1221 H 0.91576 0.36768 0.69208 0.0
C1222 C 0.95089 0.33074 0.70744 0.0
C1223 C 0.96639 0.30999 0.71754 0.0
C1224 C 0.93029 0.34218 0.72354 0.0
C1225 C 0.96248 0.30202 0.74449 0.0
C1226 C 0.94262 0.31394 0.76095 0.0
C1227 C 0.90359 0.34277 0.76564 0.0
C1228 C 0.88435 0.35889 0.75357 0.0
C1229 C 0.92596 0.3335 0.75044 0.0
C1230 C 0.8895 0.36861 0.7274 0.0
C1231 C 0.91271 0.36077 0.71265 0.0
H1232 H 0.51641 0.18094 0.42539 0.0
H1233 H 0.54422 0.22904 0.4928 0.0
H1234 H 0.54778 0.18824 0.51985 0.0
H1235 H 0.54376 0.13783 0.52425 0.0
H1236 H 0.5114 0.0913 0.45756 0.0
H1237 H 0.50897 0.13194 0.4308 0.0
C1238 C 0.52317 0.18263 0.44606 0.0
C1239 C 0.5302 0.20843 0.45676 0.0
C1240 C 0.52446 0.159 0.4618 0.0
C1241 C 0.53856 0.20979 0.48381 0.0
C1242 C 0.54072 0.18628 0.49932 0.0
C1243 C 0.53613 0.13659 0.50388 0.0
C1244 C 0.52794 0.11104 0.49308 0.0
C1245 C 0.53388 0.1606 0.48856 0.0
C1246 C 0.51781 0.1103 0.46666 0.0
C1247 C 0.51645 0.1337 0.4512 0.0
H1248 H 0.57646 0.78748 0.21967 0.0
H1249 H 0.62038 0.83168 0.15661 0.0
H1250 H 0.66397 0.82393 0.17836 0.0
H1251 H 0.68959 0.80094 0.21283 0.0
H1252 H 0.64549 0.7554 0.27461 0.0
H1253 H 0.6017 0.76709 0.25549 0.0
C1254 C 0.59549 0.79574 0.21078 0.0
C1255 C 0.59521 0.80992 0.18642 0.0
C1256 C 0.62038 0.79063 0.22293 0.0
C1257 C 0.62007 0.82056 0.17529 0.0
C1258 C 0.64498 0.81605 0.18764 0.0
C1259 C 0.67038 0.79397 0.22234 0.0
C1260 C 0.67068 0.77719 0.24495 0.0
C1261 C 0.64539 0.80055 0.21109 0.0
C1262 C 0.64569 0.76796 0.25692 0.0
C1263 C 0.62071 0.77476 0.2461 0.0
H1264 H 0.05609 0.22256 0.5853 0.0
H1265 H 0.99002 0.19731 0.6402 0.0
H1266 H 0.99453 0.15085 0.62497 0.0
H1267 H 0.02 0.11737 0.59931 0.0
H1268 H 0.08713 0.14226 0.54569 0.0
H1269 H 0.07987 0.18926 0.55777 0.0
C1270 C 0.04231 0.207 0.59361 0.0
C1271 C 0.02279 0.21332 0.6139 0.0
C1272 C 0.04561 0.18036 0.58543 0.0
C1273 C 1.00524 0.1929 0.6246 0.0
C1274 C 0.00791 0.16636 0.61602 0.0
C1275 C 0.03274 0.13308 0.58989 0.0
C1276 C 0.05407 0.12643 0.57162 0.0
C1277 C 0.02847 0.15984 0.59696 0.0
C1278 C 0.07083 0.14695 0.56005 0.0
C1279 C 0.06654 0.17375 0.56679 0.0
H1280 H 0.6179 0.23446 0.33674 0.0
H1281 H 0.62213 0.31136 0.37745 0.0
H1282 H 0.67066 0.31727 0.36365 0.0
H1283 H 0.71256 0.30043 0.34009 0.0
H1284 H 0.70786 0.22287 0.30046 0.0
H1285 H 0.65944 0.21755 0.31378 0.0
C1286 C 0.62933 0.25261 0.34253 0.0
C1287 C 0.61604 0.27247 0.3581 0.0
C1288 C 0.65749 0.25577 0.33476 0.0
C1289 C 0.63156 0.2957 0.36548 0.0
C1290 C 0.65945 0.2991 0.35759 0.0
C1291 C 0.70098 0.28234 0.33439 0.0
C1292 C 0.71422 0.26212 0.31918 0.0
C1293 C 0.67276 0.27924 0.34227 0.0
C1294 C 0.69857 0.23885 0.31212 0.0
C1295 C 0.67069 0.23574 0.31972 0.0
H1296 H 0.50256 0.89879 0.11531 0.0
H1297 H 0.53647 0.85985 0.04448 0.0
H1298 H 0.53592 0.90188 0.01962 0.0
H1299 H 0.53235 0.95075 0.02033 0.0
H1300 H 0.5032 0.99046 0.09278 0.0
H1301 H 0.49493 0.94713 0.11464 0.0
C1302 C 0.5092 0.89944 0.09426 0.0
C1303 C 0.51975 0.87652 0.08173 0.0
C1304 C 0.50995 0.92388 0.08051 0.0
C1305 C 0.52852 0.87747 0.05453 0.0
C1306 C 0.52825 0.90145 0.04035 0.0
C1307 C 0.52357 0.94981 0.04067 0.0
C1308 C 0.51858 0.97358 0.05507 0.0
C1309 C 0.52001 0.92498 0.05346 0.0
C1310 C 0.50742 0.97228 0.08146 0.0
C1311 C 0.50274 0.94757 0.09397 0.0
H1312 H 0.94327 0.75703 0.85129 0.0
H1313 H 0.97369 0.83332 0.82044 0.0
H1314 H 0.93175 0.83759 0.79492 0.0
H1315 H 0.88523 0.82049 0.7821 0.0
H1316 H 0.85545 0.74355 0.812 0.0
H1317 H 0.89784 0.73883 0.83657 0.0
C1318 C 0.94081 0.77455 0.83891 0.0
C1319 C 0.9619 0.79484 0.83806 0.0
C1320 C 0.91648 0.77685 0.82388 0.0
C1321 C 0.95808 0.8173 0.82166 0.0
C1322 C 0.93394 0.81981 0.80698 0.0
C1323 C 0.88808 0.80254 0.79373 0.0
C1324 C 0.8668 0.78244 0.79495 0.0
C1325 C 0.91284 0.79981 0.808 0.0
C1326 C 0.87119 0.75942 0.81039 0.0
C1327 C 0.89555 0.75669 0.82465 0.0
H1328 H 0.94426 0.0404 0.83936 0.0
H1329 H 0.93035 0.12482 0.85106 0.0
H1330 H 0.96027 0.12577 0.89023 0.0
H1331 H 0.99145 0.10262 0.92016 0.0
H1332 H 1.00397 0.01802 0.90873 0.0
H1333 H 0.97332 0.01701 0.87026 0.0
C1334 C 0.94771 0.05903 0.8505 0.0
C1335 C 0.93537 0.08258 0.84225 0.0
C1336 C 0.96471 0.05935 0.87289 0.0
C1337 C 0.93967 0.10646 0.85707 0.0
C1338 C 0.95684 0.10701 0.87936 0.0
C1339 C 0.98753 0.08406 0.90908 0.0
C1340 C 1.00007 0.06046 0.91695 0.0
C1341 C 0.96969 0.08363 0.88724 0.0
C1342 C 0.99443 0.03635 0.90296 0.0
C1343 C 0.97702 0.03581 0.88099 0.0
H1344 H 0.80599 0.26168 0.57528 0.0
H1345 H 0.84983 0.20963 0.62713 0.0
H1346 H 0.8432 0.24075 0.66493 0.0
H1347 H 0.82099 0.27995 0.68408 0.0
H1348 H 0.77574 0.33143 0.63304 0.0
H1349 H 0.7865 0.30285 0.59395 0.0
C1350 C 0.81462 0.25738 0.59469 0.0
C1351 C 0.82833 0.2333 0.59839 0.0
C1352 C 0.81002 0.27494 0.61652 0.0
C1353 C 0.83916 0.22798 0.62375 0.0
C1354 C 0.83525 0.24569 0.6454 0.0
C1355 C 0.81396 0.28536 0.66435 0.0
C1356 C 0.7976 0.30788 0.66147 0.0
C1357 C 0.82009 0.26882 0.64215 0.0
C1358 C 0.7881 0.31407 0.63581 0.0
C1359 C 0.79438 0.29783 0.61347 0.0
H1360 H 0.6347 1.00463 0.38433 0.0
H1361 H 0.55451 0.98852 0.35105 0.0
H1362 H 0.53335 0.99073 0.39623 0.0
H1363 H 0.53716 1.00262 0.4435 0.0
H1364 H 0.6165 0.02371 0.47668 0.0
H1365 H 0.63878 0.01403 0.43293 0.0
C1366 C 0.61268 1.00099 0.38716 0.0
C1367 C 0.59602 0.99641 0.3647 0.0
C1368 C 0.60062 1.00361 0.41292 0.0
C1369 C 0.56754 0.99213 0.36825 0.0
C1370 C 0.55551 0.9935 0.39396 0.0
C1371 C 0.55939 1.00487 0.44136 0.0
C1372 C 0.57519 0.01416 0.46314 0.0
C1373 C 0.57176 1.00013 0.41621 0.0
C1374 C 0.60393 0.01682 0.46006 0.0
C1375 C 0.61662 0.01128 0.43511 0.0
H1376 H 0.83183 0.85053 0.10523 0.0
H1377 H 0.74545 0.86705 0.10681 0.0
H1378 H 0.73995 0.84648 0.15143 0.0
H1379 H 0.75982 0.82472 0.19131 0.0
H1380 H 0.84715 0.81254 0.19172 0.0
H1381 H 0.85203 0.83024 0.14588 0.0
C1382 C 0.81173 0.84932 0.11518 0.0
C1383 C 0.78895 0.86002 0.10209 0.0
C1384 C 0.80889 0.83831 0.14166 0.0
C1385 C 0.7633 0.85883 0.11596 0.0
C1386 C 0.76015 0.84709 0.14167 0.0
C1387 C 0.77994 0.82582 0.18138 0.0
C1388 C 0.80306 0.81696 0.19535 0.0
C1389 C 0.7828 0.8369 0.15494 0.0
C1390 C 0.82892 0.81908 0.18188 0.0
C1391 C 0.83175 0.82923 0.15544 0.0
H1392 H 0.89978 0.04648 0.68316 0.0
H1393 H 0.96189 0.10485 0.70794 0.0
H1394 H 0.99386 0.08814 0.67298 0.0
H1395 H 1.00391 0.05625 0.63594 0.0
H1396 H 0.94256 0.99539 0.61458 0.0
H1397 H 0.91054 0.01338 0.64817 0.0
C1398 C 0.92021 0.05575 0.68056 0.0
C1399 C 0.92848 0.07715 0.69741 0.0
C1400 C 0.93865 0.04524 0.66152 0.0
C1401 C 0.95517 0.08856 0.69472 0.0
C1402 C 0.9734 0.07891 0.67495 0.0
C1403 C 0.98362 0.0468 0.63889 0.0
C1404 C 0.97559 0.02451 0.62295 0.0
C1405 C 0.9654 0.05708 0.65841 0.0
C1406 C 0.94931 0.01237 0.62688 0.0
C1407 C 0.93089 0.02279 0.64587 0.0
H1408 H 0.84331 0.23998 0.45483 0.0
H1409 H 0.81835 0.15737 0.44101 0.0
H1410 H 0.81545 0.16567 0.39239 0.0
H1411 H 0.81232 0.19882 0.35553 0.0
H1412 H 0.83766 0.28145 0.37113 0.0
H1413 H 0.84847 0.27069 0.41711 0.0
C1414 C 0.83814 0.22365 0.44095 0.0
C1415 C 0.8309 0.19828 0.45111 0.0
C1416 C 0.83608 0.22871 0.41343 0.0
C1417 C 0.82421 0.17708 0.4333 0.0
C1418 C 0.82222 0.18191 0.40563 0.0
C1419 C 0.82072 0.21427 0.36888 0.0
C1420 C 0.82334 0.24101 0.36016 0.0
C1421 C 0.82688 0.20801 0.39566 0.0
C1422 C 0.83469 0.2608 0.37751 0.0
C1423 C 0.84101 0.25472 0.40386 0.0
H1424 H 0.65156 0.04025 0.21737 0.0
H1425 H 0.60883 0.96309 0.21338 0.0
H1426 H 0.58376 0.97753 0.17401 0.0
H1427 H 0.57081 0.0137 0.14418 0.0
H1428 H 0.61059 0.09208 0.15098 0.0
H1429 H 0.63956 0.07596 0.18671 0.0
C1430 C 0.63741 0.02635 0.20726 0.0
C1431 C 0.63232 1.00051 0.21763 0.0
C1432 C 0.62195 0.03538 0.18596 0.0
C1433 C 0.61329 0.98289 0.2052 0.0
C1434 C 0.59876 0.99128 0.18305 0.0
C1435 C 0.58596 0.02714 0.15343 0.0
C1436 C 0.58858 0.054 0.14521 0.0
C1437 C 0.60233 0.01774 0.17386 0.0
C1438 C 0.60796 0.07144 0.15743 0.0
C1439 C 0.62471 0.06214 0.17754 0.0
H1440 H 0.78487 0.88469 0.92566 0.0
H1441 H 0.81325 0.81002 0.95591 0.0
H1442 H 0.80712 0.78894 0.91155 0.0
H1443 H 0.795 0.79158 0.86325 0.0
H1444 H 0.77122 0.86726 0.83149 0.0
H1445 H 0.77412 0.88771 0.87665 0.0
C1446 C 0.78953 0.86375 0.92262 0.0
C1447 C 0.79933 0.84902 0.94458 0.0
C1448 C 0.78678 0.85178 0.89645 0.0
C1449 C 0.80566 0.82199 0.93974 0.0
C1450 C 0.80213 0.80984 0.91421 0.0
C1451 C 0.79012 0.81248 0.86622 0.0
C1452 C 0.7824 0.82762 0.84371 0.0
C1453 C 0.79284 0.82449 0.89229 0.0
C1454 C 0.77694 0.85491 0.84818 0.0
C1455 C 0.77867 0.86669 0.87415 0.0
H1456 H 0.89686 0.92252 0.03961 0.0
H1457 H 0.85249 0.98872 0.00942 0.0
H1458 H 0.89508 0.0168 0.00831 0.0
H1459 H 0.94587 0.02266 0.01599 0.0
H1460 H 0.988 0.95722 0.05104 0.0
H1461 H 0.94596 0.92921 0.05023 0.0
C1462 C 0.89649 0.94308 0.03269 0.0
C1463 C 0.87138 0.95326 0.02426 0.0
C1464 C 0.92094 0.95948 0.0331 0.0
C1465 C 0.8714 0.9802 0.01592 0.0
C1466 C 0.89586 0.99631 0.01528 0.0
C1467 C 0.94577 1.00233 0.02357 0.0
C1468 C 0.97039 0.99227 0.03363 0.0
C1469 C 0.92089 0.98624 0.02385 0.0
C1470 C 0.96957 0.96581 0.04345 0.0
C1471 C 0.94543 0.94959 0.04287 0.0
H1472 H 0.39186 0.63469 0.016 0.0
H1473 H 0.35147 0.58402 0.07611 0.0
H1474 H 0.38452 0.54917 0.06699 0.0
H1475 H 0.42776 0.53547 0.04615 0.0
H1476 H 0.47192 0.58836 0.99069 0.0
H1477 H 0.43416 0.61963 0.993 0.0
C1478 C 0.39027 0.61594 0.02695 0.0
C1479 C 0.36956 0.61199 0.04689 0.0
C1480 C 0.4099 0.59634 0.02227 0.0
C1481 C 0.36759 0.58766 0.06098 0.0
C1482 C 0.38636 0.56768 0.05569 0.0
C1483 C 0.42868 0.55343 0.03391 0.0
C1484 C 0.45234 0.55963 0.01814 0.0
C1485 C 0.40794 0.57207 0.03687 0.0
C1486 C 0.45367 0.58318 1.00278 0.0
C1487 C 0.43229 0.60117 1.00439 0.0
H1488 H 0.24424 0.56677 0.75965 0.0
H1489 H 0.1843 0.59204 0.81964 0.0
H1490 H 0.19918 0.63887 0.81276 0.0
H1491 H 0.2283 0.67223 0.7889 0.0
H1492 H 0.28805 0.64695 0.72897 0.0
H1493 H 0.27339 0.60006 0.73599 0.0
C1494 C 0.23461 0.58247 0.77146 0.0
C1495 C 0.21333 0.57607 0.79021 0.0
C1496 C 0.24282 0.60916 0.76703 0.0
C1497 C 0.20078 0.59659 0.80512 0.0
C1498 C 0.20917 0.62329 0.80112 0.0
C1499 C 0.23822 0.65641 0.77754 0.0
C1500 C 0.25927 0.66282 0.7586 0.0
C1501 C 0.22999 0.62973 0.78198 0.0
C1502 C 0.27158 0.64235 0.74346 0.0
C1503 C 0.26342 0.61563 0.74767 0.0
H1504 H 0.20556 0.46926 0.57451 0.0
H1505 H 0.20647 0.43406 0.49463 0.0
H1506 H 0.16048 0.4506 0.48702 0.0
H1507 H 0.11919 0.47496 0.50319 0.0
H1508 H 0.1185 0.50888 0.58373 0.0
H1509 H 0.16461 0.4931 0.59069 0.0
C1510 C 0.1958 0.46522 0.55537 0.0
C1511 C 0.20982 0.45036 0.53519 0.0
C1512 C 0.16905 0.47463 0.55117 0.0
C1513 C 0.19645 0.44536 0.51062 0.0
C1514 C 0.17001 0.45486 0.50622 0.0
C1515 C 0.12914 0.47898 0.52224 0.0
C1516 C 0.11501 0.49328 0.54284 0.0
C1517 C 0.15598 0.46952 0.52635 0.0
C1518 C 0.12849 0.49801 0.56741 0.0
C1519 C 0.15505 0.48896 0.57148 0.0
H1520 H 0.86182 0.99877 0.78924 0.0
H1521 H 0.79388 0.02798 0.74466 0.0
H1522 H 0.77903 0.98189 0.73377 0.0
H1523 H 0.78845 0.9337 0.73275 0.0
H1524 H 0.85714 0.9049 0.77612 0.0
H1525 H 0.86883 0.9506 0.79151 0.0
C1526 C 0.84345 0.99512 0.77754 0.0
C1527 C 0.82923 0.01683 0.76745 0.0
C1528 C 0.83556 0.96869 0.77066 0.0
C1529 C 0.8053 0.01166 0.75259 0.0
C1530 C 0.79695 0.98532 0.74612 0.0
C1531 C 0.80605 0.93753 0.74544 0.0
C1532 C 0.82228 0.91618 0.75292 0.0
C1533 C 0.81253 0.96378 0.75421 0.0
C1534 C 0.84452 0.92115 0.77005 0.0
C1535 C 0.85115 0.9472 0.77883 0.0
H1536 H 0.7481 0.10991 0.57139 0.0
H1537 H 0.7194 0.16722 0.51459 0.0
H1538 H 0.67329 0.14602 0.51716 0.0
H1539 H 0.64118 0.11157 0.53621 0.0
H1540 H 0.67047 0.05466 0.59291 0.0
H1541 H 0.71652 0.07558 0.58985 0.0
C1542 C 0.73182 0.11781 0.55951 0.0
C1543 C 0.73713 0.1401 0.54286 0.0
C1544 C 0.70553 0.10567 0.56115 0.0
C1545 C 0.71578 0.15008 0.52763 0.0
C1546 C 0.68946 0.13798 0.52906 0.0
C1547 C 0.65774 0.10365 0.54765 0.0
C1548 C 0.65253 0.08172 0.5648 0.0
C1549 C 0.68412 0.11579 0.5458 0.0
C1550 C 0.67398 0.0718 0.57988 0.0
C1551 C 0.7003 0.08363 0.57803 0.0
H1552 H 0.27385 0.44455 0.78378 0.0
H1553 H 0.19555 0.41409 0.81539 0.0
H1554 H 0.2151 0.37034 0.82297 0.0
H1555 H 0.25204 0.33936 0.8129 0.0
H1556 H 0.33017 0.36993 0.7807 0.0
H1557 H 0.31336 0.41545 0.78184 0.0
C1558 C 0.26129 0.4284 0.79275 0.0
C1559 C 0.2333 0.43196 0.79836 0.0
C1560 C 0.27258 0.40349 0.79688 0.0
C1561 C 0.21716 0.41142 0.81065 0.0
C1562 C 0.22827 0.38648 0.8149 0.0
C1563 C 0.26554 0.35611 0.80674 0.0
C1564 C 0.29191 0.35143 0.79604 0.0
C1565 C 0.2556 0.38203 0.80694 0.0
C1566 C 0.30961 0.37316 0.78872 0.0
C1567 C 0.29997 0.39912 0.78917 0.0
H1568 H 0.30537 0.67248 0.22737 0.0
H1569 H 0.35192 0.65974 0.29889 0.0
H1570 H 0.34621 0.70663 0.31268 0.0
H1571 H 0.32792 0.75149 0.30409 0.0
H1572 H 0.28262 0.76326 0.23138 0.0
H1573 H 0.28816 0.71666 0.2184 0.0
C1574 C 0.31417 0.67987 0.24607 0.0
C1575 C 0.32887 0.6626 0.26216 0.0
C1576 C 0.31115 0.70679 0.25363 0.0
C1577 C 0.34042 0.67263 0.28616 0.0
C1578 C 0.33719 0.69944 0.29404 0.0
C1579 C 0.31929 0.74382 0.28543 0.0
C1580 C 0.30481 0.76092 0.26885 0.0
C1581 C 0.32261 0.71676 0.27789 0.0
C1582 C 0.29385 0.75065 0.24463 0.0
C1583 C 0.29694 0.72392 0.23714 0.0
H1584 H 0.53745 0.71678 0.56482 0.0
H1585 H 0.53785 0.68595 0.64588 0.0
H1586 H 0.53439 0.64023 0.62858 0.0
H1587 H 0.53134 0.60772 0.59059 0.0
H1588 H 0.52893 0.63753 0.50937 0.0
H1589 H 0.53281 0.68371 0.52637 0.0
C1590 C 0.53687 0.7001 0.5787 0.0
C1591 C 0.53797 0.70546 0.60688 0.0
C1592 C 0.5343 0.6731 0.56854 0.0
C1593 C 0.53691 0.68307 0.62421 0.0
C1594 C 0.53494 0.65658 0.61431 0.0
C1595 C 0.53143 0.62425 0.57654 0.0
C1596 C 0.52966 0.61858 0.54855 0.0
C1597 C 0.53353 0.65118 0.58653 0.0
C1598 C 0.53 0.64076 0.53098 0.0
C1599 C 0.53238 0.66745 0.54073 0.0
H1600 H 0.64184 0.29876 0.84098 0.0
H1601 H 0.68183 0.30016 0.918 0.0
H1602 H 0.72623 0.30943 0.8953 0.0
H1603 H 0.75314 0.31798 0.85408 0.0
H1604 H 0.7134 0.3176 0.77699 0.0
H1605 H 0.66908 0.30667 0.79946 0.0
C1606 C 0.66024 0.30104 0.85286 0.0
C1607 C 0.65853 0.29887 0.88116 0.0
C1608 C 0.6856 0.30642 0.83973 0.0
C1609 C 0.68259 0.30179 0.8962 0.0
C1610 C 0.70796 0.30706 0.88325 0.0
C1611 C 0.73485 0.31545 0.84208 0.0
C1612 C 0.7365 0.31869 0.8139 0.0
C1613 C 0.70961 0.30953 0.85508 0.0
C1614 C 0.71261 0.31521 0.79871 0.0
C1615 C 0.68732 0.30904 0.81154 0.0
H1616 H 0.01513 0.35487 0.09558 0.0
H1617 H 0.10383 0.35638 0.08955 0.0
H1618 H 0.10411 0.40149 0.07091 0.0
H1619 H 0.07965 0.44134 0.05658 0.0
H1620 H 0.99096 0.43937 0.05839 0.0
H1621 H 0.99022 0.39423 0.07798 0.0
C1622 C 0.03452 0.36504 0.09015 0.0
C1623 C 0.0595 0.35188 0.09429 0.0
C1624 C 0.03456 0.39118 0.07852 0.0
C1625 C 0.08428 0.36561 0.0867 0.0
C1626 C 0.08448 0.39161 0.07602 0.0
C1627 C 0.06008 0.43107 0.06116 0.0
C1628 C 0.03536 0.44416 0.05604 0.0
C1629 C 0.05982 0.40471 0.07187 0.0
C1630 C 0.01033 0.43007 0.06195 0.0
C1631 C 0.00992 0.40415 0.07329 0.0
H1632 H 0.01818 0.79803 0.33682 0.0
H1633 H 0.97785 0.73548 0.38426 0.0
H1634 H 0.93558 0.74011 0.35892 0.0
H1635 H 0.90895 0.76603 0.32735 0.0
H1636 H 0.95033 0.82791 0.27941 0.0
H1637 H 0.99338 0.81957 0.3012 0.0
C1638 C 1.00025 0.78511 0.34131 0.0
C1639 C 1.00087 0.76672 0.36253 0.0
C1640 C 0.97615 0.78811 0.32695 0.0
C1641 C 0.97776 0.74979 0.36796 0.0
C1642 C 0.95357 0.75261 0.35364 0.0
C1643 C 0.9274 0.77738 0.32121 0.0
C1644 C 0.92604 0.79811 0.30218 0.0
C1645 C 0.9523 0.77232 0.33368 0.0
C1646 C 0.95039 0.81247 0.29458 0.0
C1647 C 0.97516 0.80758 0.30688 0.0
H1648 H 0.53683 0.32333 0.99565 0.0
H1649 H 0.53456 0.36636 0.92055 0.0
H1650 H 0.50979 0.40227 0.94302 0.0
H1651 H 0.49257 0.42329 0.9847 0.0
H1652 H 0.49475 0.38138 0.05991 0.0
H1653 H 0.5152 0.34265 0.03676 0.0
C1654 C 0.53081 0.34054 0.98424 0.0
C1655 C 0.53786 0.34241 0.95659 0.0
C1656 C 0.51636 0.36106 0.99725 0.0
C1657 C 0.52952 0.36454 0.94189 0.0
C1658 C 0.51533 0.38506 0.95469 0.0
C1659 C 0.49689 0.40526 0.9957 0.0
C1660 C 0.49218 0.40471 0.02368 0.0
C1661 C 0.50908 0.38371 0.98238 0.0
C1662 C 0.49797 0.38172 0.03821 0.0
C1663 C 0.50993 0.35989 0.02504 0.0
H1664 H 0.96038 0.29565 0.21229 0.0
H1665 H 0.96412 0.20956 0.21832 0.0
H1666 H 0.91895 0.2075 0.24081 0.0
H1667 H 0.87771 0.22969 0.25834 0.0
H1668 H 0.87448 0.31594 0.2558 0.0
H1669 H 0.91976 0.31838 0.23277 0.0
C1670 C 0.9513 0.27646 0.21857 0.0
C1671 C 0.96579 0.25275 0.21337 0.0
C1672 C 0.92526 0.27542 0.23225 0.0
C1673 C 0.95368 0.22814 0.222 0.0
C1674 C 0.92771 0.22691 0.23487 0.0
C1675 C 0.88691 0.24908 0.25285 0.0
C1676 C 0.87246 0.27259 0.25874 0.0
C1677 C 0.91323 0.25036 0.24005 0.0
C1678 C 0.88501 0.2975 0.25165 0.0
C1679 C 0.91094 0.29889 0.23835 0.0
H1680 H 0.09346 0.68825 0.51092 0.0
H1681 H 0.06096 0.67119 0.43197 0.0
H1682 H 0.05041 0.62475 0.44493 0.0
H1683 H 0.04953 0.58976 0.47866 0.0
H1684 H 0.07914 0.60674 0.55873 0.0
H1685 H 0.09181 0.6529 0.54533 0.0
C1686 C 0.08424 0.67427 0.49653 0.0
C1687 C 0.0781 0.68292 0.47051 0.0
C1688 C 0.07771 0.64785 0.50432 0.0
C1689 C 0.06581 0.66487 0.45212 0.0
C1690 C 0.05981 0.63839 0.4595 0.0
C1691 C 0.05897 0.60345 0.49319 0.0
C1692 C 0.06367 0.59492 0.51956 0.0
C1693 C 0.06557 0.62978 0.48554 0.0
C1694 C 0.07542 0.61297 0.53829 0.0
C1695 C 0.08265 0.63926 0.53063 0.0
H1696 H 0.63743 0.81857 0.67609 0.0
H1697 H 0.60086 0.75456 0.7243 0.0
H1698 H 0.64238 0.75339 0.75093 0.0
H1699 H 0.69023 0.7695 0.76018 0.0
H1700 H 0.72576 0.83535 0.71376 0.0
H1701 H 0.68405 0.83684 0.68747 0.0
C1702 C 0.63846 0.80443 0.69247 0.0
C1703 C 0.6157 0.78661 0.69786 0.0
C1704 C 0.6625 0.80416 0.70833 0.0
C1705 C 0.61771 0.76864 0.71949 0.0
C1706 C 0.64163 0.76788 0.73482 0.0
C1707 C 0.68878 0.78441 0.74454 0.0
C1708 C 0.71149 0.80231 0.73924 0.0
C1709 C 0.6643 0.78544 0.72943 0.0
C1710 C 0.70886 0.82137 0.71868 0.0
C1711 C 0.6849 0.82218 0.7034 0.0
H1712 H 0.55877 0.51856 0.73478 0.0
H1713 H 0.64269 0.54034 0.71167 0.0
H1714 H 0.63123 0.5361 0.66396 0.0
H1715 H 0.59709 0.52597 0.62886 0.0
H1716 H 0.51423 0.5015 0.65244 0.0
H1717 H 0.52536 0.50709 0.70011 0.0
C1718 C 0.57452 0.52243 0.71928 0.0
C1719 C 0.60143 0.52988 0.72659 0.0
C1720 C 0.56793 0.5195 0.69209 0.0
C1721 C 0.6218 0.53449 0.70642 0.0
C1722 C 0.61527 0.53217 0.67919 0.0
C1723 C 0.58161 0.52206 0.64458 0.0
C1724 C 0.55497 0.51347 0.63753 0.0
C1725 C 0.58838 0.52471 0.67182 0.0
C1726 C 0.53492 0.50799 0.65773 0.0
C1727 C 0.54125 0.51124 0.68484 0.0
H1728 H 0.79683 0.33362 0.00593 0.0
H1729 H 0.73352 0.38723 0.98358 0.0
H1730 H 0.74779 0.38297 0.93612 0.0
H1731 H 0.78259 0.36952 0.90247 0.0
H1732 H 0.84683 0.31721 0.92552 0.0
H1733 H 0.82835 0.31631 0.97159 0.0
C1734 C 0.78572 0.34395 0.99066 0.0
C1735 C 0.76443 0.36104 0.99831 0.0
C1736 C 0.79479 0.34238 0.96371 0.0
C1737 C 0.75007 0.37403 0.97823 0.0
C1738 C 0.75843 0.37186 0.95114 0.0
C1739 C 0.79233 0.35755 0.91739 0.0
C1740 C 0.81641 0.34384 0.91053 0.0
C1741 C 0.78152 0.35701 0.94386 0.0
C1742 C 0.82879 0.32859 0.93031 0.0
C1743 C 0.81803 0.32779 0.95662 0.0
H1744 H 0.92511 0.55747 0.16078 0.0
H1745 H 0.99245 0.53584 0.21055 0.0
H1746 H 0.02306 0.53437 0.17083 0.0
H1747 H 0.02957 0.53582 0.12157 0.0
H1748 H 0.96159 0.55651 0.07219 0.0
H1749 H 0.93245 0.56223 0.11231 0.0
C1750 C 0.94648 0.55247 0.16295 0.0
C1751 C 0.95642 0.54639 0.18838 0.0
C1752 C 0.96388 0.55162 0.14017 0.0
C1753 C 0.98428 0.5404 0.19103 0.0
C1754 C 1.0018 0.53958 0.16839 0.0
C1755 C 0.00854 0.54205 0.11971 0.0
C1756 C 0.99759 0.54546 0.09413 0.0
C1757 C 0.99169 0.54474 0.1428 0.0
C1758 C 0.97032 0.55349 0.0918 0.0
C1759 C 0.95362 0.5567 0.11467 0.0
H1760 H 0.75103 0.72832 0.43878 0.0
H1761 H 0.83563 0.70692 0.44582 0.0
H1762 H 0.8465 0.7256 0.40106 0.0
H1763 H 0.8318 0.74768 0.35869 0.0
H1764 H 0.74614 0.76531 0.35101 0.0
H1765 H 0.73617 0.74878 0.39647 0.0
C1766 C 0.77191 0.72783 0.43066 0.0
C1767 C 0.79246 0.71626 0.44616 0.0
C1768 C 0.77793 0.73804 0.40435 0.0
C1769 C 0.81928 0.71562 0.43471 0.0
C1770 C 0.82555 0.72638 0.40894 0.0
C1771 C 0.81099 0.74804 0.36701 0.0
C1772 C 0.78983 0.75805 0.35106 0.0
C1773 C 0.80506 0.73762 0.39338 0.0
C1774 C 0.76295 0.75783 0.36242 0.0
C1775 C 0.75715 0.74833 0.38862 0.0
H1776 H 0.60713 0.51694 0.89085 0.0
H1777 H 0.52493 0.51071 0.86013 0.0
H1778 H 0.50627 0.50161 0.90561 0.0
H1779 H 0.51287 0.50302 0.95471 0.0
H1780 H 0.59437 0.51698 0.98537 0.0
H1781 H 0.61407 0.51516 0.93947 0.0
C1782 C 0.58524 0.5128 0.89408 0.0
C1783 C 0.56734 0.51438 0.87244 0.0
C1784 C 0.57462 0.50937 0.92036 0.0
C1785 C 0.53896 0.50956 0.87671 0.0
C1786 C 0.52833 0.50451 0.90265 0.0
C1787 C 0.53497 0.50497 0.95119 0.0
C1788 C 0.55231 0.51007 0.97297 0.0
C1789 C 0.54586 0.5055 0.92475 0.0
C1790 C 0.58083 0.51309 0.96859 0.0
C1791 C 0.59202 0.51211 0.94246 0.0
H1792 H 0.75937 0.33096 0.13173 0.0
H1793 H 0.74971 0.40467 0.17721 0.0
H1794 H 0.75263 0.38023 0.2193 0.0
H1795 H 0.76173 0.33911 0.24281 0.0
H1796 H 0.77326 0.26541 0.19799 0.0
H1797 H 0.76523 0.28874 0.15577 0.0
C1798 C 0.75766 0.34165 0.15084 0.0
C1799 C 0.7547 0.36964 0.15135 0.0
C1800 C 0.7597 0.32755 0.17497 0.0
C1801 C 0.75229 0.38317 0.17627 0.0
C1802 C 0.75393 0.36923 0.20034 0.0
C1803 C 0.76228 0.32803 0.22384 0.0
C1804 C 0.76845 0.3007 0.2234 0.0
C1805 C 0.75824 0.34159 0.19985 0.0
C1806 C 0.76866 0.28652 0.19876 0.0
C1807 C 0.76421 0.29987 0.17467 0.0
H1808 H 1.00521 0.53578 0.31497 0.0
H1809 H 0.93941 0.57755 0.35514 0.0
H1810 H 0.96185 0.57289 0.39851 0.0
H1811 H 0.9953 0.54951 0.42516 0.0
H1812 H 0.05995 0.50618 0.3847 0.0
H1813 H 0.0426 0.5187 0.34098 0.0
C1814 C 0.9961 0.54437 0.33317 0.0
C1815 C 0.97051 0.55644 0.33217 0.0
C1816 C 0.00856 0.5408 0.35789 0.0
C1817 C 0.95909 0.56804 0.3556 0.0
C1818 C 0.97176 0.56512 0.38036 0.0
C1819 C 1.00606 0.54338 0.40684 0.0
C1820 C 0.02849 0.52637 0.40814 0.0
C1821 C 0.99578 0.55039 0.38184 0.0
C1822 C 0.04216 0.5186 0.38417 0.0
C1823 C 0.03237 0.52589 0.35921 0.0
H1824 H 0.7957 0.74295 0.59321 0.0
H1825 H 0.79179 0.66218 0.62392 0.0
H1826 H 0.79235 0.67937 0.67002 0.0
H1827 H 0.7937 0.71727 0.70278 0.0
H1828 H 0.80051 0.79818 0.67286 0.0
H1829 H 0.79923 0.78122 0.6264 0.0
C1830 C 0.79496 0.7291 0.60995 0.0
C1831 C 0.79367 0.70107 0.60451 0.0
C1832 C 0.79591 0.73922 0.63708 0.0
C1833 C 0.79296 0.68375 0.62694 0.0
C1834 C 0.79322 0.6936 0.6536 0.0
C1835 C 0.79506 0.73125 0.68615 0.0
C1836 C 0.79725 0.75914 0.69183 0.0
C1837 C 0.79473 0.72128 0.65908 0.0
C1838 C 0.79901 0.77666 0.66957 0.0
C1839 C 0.79815 0.76693 0.64275 0.0
H1840 H 0.69616 0.63281 0.49274 0.0
H1841 H 0.72669 0.58532 0.55699 0.0
H1842 H 0.68306 0.55929 0.55933 0.0
H1843 H 0.63489 0.55035 0.54376 0.0
H1844 H 0.60671 0.59624 0.47702 0.0
H1845 H 0.65001 0.62189 0.47518 0.0
C1846 C 0.69337 0.61671 0.50721 0.0
C1847 C 0.71498 0.61132 0.52471 0.0
C1848 C 0.66825 0.60126 0.5081 0.0
C1849 C 0.71071 0.59006 0.54311 0.0
C1850 C 0.68558 0.57512 0.54456 0.0
C1851 C 0.63828 0.5658 0.52869 0.0
C1852 C 0.61701 0.57109 0.51064 0.0
C1853 C 0.66399 0.58054 0.52723 0.0
C1854 C 0.62227 0.59133 0.49125 0.0
C1855 C 0.64723 0.60626 0.49016 0.0
H1856 H 0.17293 0.96544 0.62008 0.0
H1857 H 0.17213 0.90798 0.55433 0.0
H1858 H 0.12247 0.913 0.54985 0.0
H1859 H 0.08095 0.93865 0.56072 0.0
H1860 H 0.08346 0.99787 0.62476 0.0
H1861 H 0.13065 0.98663 0.63453 0.0
C1862 C 0.16187 0.95388 0.60486 0.0
C1863 C 0.17614 0.93688 0.58713 0.0
C1864 C 0.1336 0.957 0.60235 0.0
C1865 C 0.16152 0.92148 0.56798 0.0
C1866 C 0.13318 0.92432 0.56544 0.0
C1867 C 0.09159 0.94828 0.57744 0.0
C1868 C 0.07902 0.96894 0.59212 0.0
C1869 C 0.11916 0.94261 0.58203 0.0
C1870 C 0.09294 0.98181 0.61338 0.0
C1871 C 0.11994 0.97561 0.61874 0.0
H1872 H 0.34579 0.98487 0.8154 0.0
H1873 H 0.41728 0.94938 0.77835 0.0
H1874 H 0.40554 0.90682 0.80062 0.0
H1875 H 0.37159 0.87857 0.82552 0.0
H1876 H 0.29979 0.91358 0.8618 0.0
H1877 H 0.31542 0.95804 0.84574 0.0
C1878 C 0.35885 0.96783 0.81239 0.0
C1879 C 0.38189 0.96982 0.79483 0.0
C1880 C 0.35205 0.94362 0.82527 0.0
C1881 C 0.39921 0.94803 0.79158 0.0
C1882 C 0.39255 0.92379 0.80428 0.0
C1883 C 0.35986 0.89617 0.83039 0.0
C1884 C 0.33456 0.89315 0.84435 0.0
C1885 C 0.36858 0.9212 0.82047 0.0
C1886 C 0.3194 0.91576 0.85108 0.0
C1887 C 0.32815 0.94098 0.84161 0.0
H1888 H 0.37837 0.09412 0.06212 0.0
H1889 H 0.37688 0.11999 0.97948 0.0
H1890 H 0.42343 0.10356 0.97148 0.0
H1891 H 0.46561 0.08252 0.98856 0.0
H1892 H 0.46723 0.06062 0.07251 0.0
H1893 H 0.42005 0.07459 0.07926 0.0
C1894 C 0.38811 0.09602 0.04227 0.0
C1895 C 0.37389 0.10812 0.0214 0.0
C1896 C 0.4152 0.08723 0.03804 0.0
C1897 C 0.38719 0.11075 0.99595 0.0
C1898 C 0.41389 0.10133 0.99136 0.0
C1899 C 0.45553 0.08071 0.00825 0.0
C1900 C 0.47011 0.07043 0.02998 0.0
C1901 C 0.42826 0.08962 0.01231 0.0
C1902 C 0.45672 0.06855 0.05544 0.0
C1903 C 0.42961 0.07651 0.05935 0.0
H1904 H 0.63734 0.63389 0.80082 0.0
H1905 H 0.67923 0.59318 0.86332 0.0
H1906 H 0.71427 0.62942 0.86486 0.0
H1907 H 0.73666 0.66783 0.84309 0.0
H1908 H 0.69574 0.70849 0.77948 0.0
H1909 H 0.65698 0.67668 0.78334 0.0
C1910 C 0.65358 0.63358 0.81545 0.0
C1911 C 0.65592 0.6111 0.8319 0.0
C1912 C 0.67434 0.65385 0.81531 0.0
C1913 C 0.67719 0.61047 0.85053 0.0
C1914 C 0.69734 0.63098 0.85117 0.0
C1915 C 0.71923 0.67028 0.83031 0.0
C1916 C 0.71982 0.69041 0.81059 0.0
C1917 C 0.69682 0.65204 0.83272 0.0
C1918 C 0.69663 0.69287 0.79435 0.0
C1919 C 0.67413 0.67478 0.7967 0.0
H1920 H 0.84772 0.42098 0.04212 0.0
H1921 H 0.81018 0.49624 0.06166 0.0
H1922 H 0.84887 0.52071 0.03961 0.0
H1923 H 0.89435 0.52057 0.01595 0.0
H1924 H 0.93207 0.44537 0.99859 0.0
H1925 H 0.89196 0.42075 0.01807 0.0
C1926 C 0.84795 0.44275 0.04168 0.0
C1927 C 0.82617 0.45675 0.05368 0.0
C1928 C 0.87008 0.4566 0.02896 0.0
C1929 C 0.8268 0.48496 0.05274 0.0
C1930 C 0.84882 0.49897 0.04001 0.0
C1931 C 0.89323 0.4988 0.01595 0.0
C1932 C 0.9155 0.48453 0.00554 0.0
C1933 C 0.87058 0.48498 0.02805 0.0
C1934 C 0.91468 0.45642 0.0062 0.0
C1935 C 0.89199 0.44249 0.01752 0.0
H1936 H 0.38146 0.12464 0.74145 0.0
H1937 H 0.29913 0.09281 0.7574 0.0
H1938 H 0.28132 0.13824 0.75598 0.0
H1939 H 0.29011 0.18714 0.75293 0.0
H1940 H 0.37281 0.21786 0.73542 0.0
H1941 H 0.38947 0.17245 0.73398 0.0
C1942 C 0.35963 0.12772 0.74475 0.0
C1943 C 0.34163 0.10581 0.75015 0.0
C1944 C 0.34963 0.15353 0.74326 0.0
C1945 C 0.31331 0.10968 0.75356 0.0
C1946 C 0.30317 0.13553 0.75264 0.0
C1947 C 0.31165 0.18383 0.74827 0.0
C1948 C 0.33025 0.20578 0.74464 0.0
C1949 C 0.32123 0.15764 0.74777 0.0
C1950 C 0.35811 0.20126 0.73852 0.0
C1951 C 0.36773 0.17534 0.73785 0.0
H1952 H 0.22141 0.99629 0.29293 0.0
H1953 H 0.17768 0.9614 0.3616 0.0
H1954 H 0.20944 0.92428 0.36126 0.0
H1955 H 0.24581 0.89903 0.33758 0.0
H1956 H 0.28527 0.93206 0.26592 0.0
H1957 H 0.25943 0.97307 0.27154 0.0
C1958 C 0.21898 0.98079 0.3081 0.0
C1959 C 0.19704 0.98142 0.32708 0.0
C1960 C 0.23665 0.95924 0.3072 0.0
C1961 C 0.19428 0.96122 0.34663 0.0
C1962 C 0.21242 0.94002 0.34642 0.0
C1963 C 0.24925 0.91565 0.32377 0.0
C1964 C 0.26748 0.91297 0.30157 0.0
C1965 C 0.23318 0.93844 0.32631 0.0
C1966 C 0.27144 0.93406 0.28326 0.0
C1967 C 0.25654 0.95731 0.28636 0.0
H1968 H 0.54659 0.38542 0.42345 0.0
H1969 H 0.51229 0.35556 0.49882 0.0
H1970 H 0.51643 0.40056 0.51876 0.0
H1971 H 0.52855 0.44909 0.51495 0.0
H1972 H 0.55869 0.48036 0.43866 0.0
H1973 H 0.55745 0.4348 0.41923 0.0
C1974 C 0.54023 0.38871 0.44431 0.0
C1975 C 0.52936 0.36665 0.45959 0.0
C1976 C 0.54185 0.41521 0.4556 0.0
C1977 C 0.52079 0.37178 0.48646 0.0
C1978 C 0.52315 0.39768 0.49795 0.0
C1979 C 0.53512 0.446 0.49412 0.0
C1980 C 0.54411 0.46849 0.47852 0.0
C1981 C 0.53351 0.41965 0.48275 0.0
C1982 C 0.55186 0.46373 0.45135 0.0
C1983 C 0.55112 0.43753 0.44017 0.0
H1984 H 0.43513 0.84821 0.1845 0.0
H1985 H 0.46624 0.79866 0.24702 0.0
H1986 H 0.42872 0.81138 0.27749 0.0
H1987 H 0.38415 0.83177 0.28435 0.0
H1988 H 0.35033 0.87767 0.22054 0.0
H1989 H 0.3921 0.87188 0.19288 0.0
C1990 C 0.43385 0.84054 0.20492 0.0
C1991 C 0.45314 0.82228 0.2134 0.0
C1992 C 0.41176 0.84735 0.22213 0.0
C1993 C 0.45134 0.81244 0.2399 0.0
C1994 C 0.42996 0.81977 0.25738 0.0
C1995 C 0.38629 0.8412 0.26473 0.0
C1996 C 0.36432 0.85512 0.25445 0.0
C1997 C 0.40965 0.83659 0.24846 0.0
C1998 C 0.3671 0.86687 0.22882 0.0
C1999 C 0.39084 0.86337 0.21293 0.0
H2000 H 0.07466 0.69506 0.98567 0.0
H2001 H 0.99947 0.69006 0.94124 0.0
H2002 H 0.99194 0.64321 0.95477 0.0
H2003 H 0.00695 0.60253 0.97895 0.0
H2004 H 0.08277 0.60798 0.02255 0.0
H2005 H 0.08952 0.65483 0.00971 0.0
C2006 C 0.05649 0.68387 0.97904 0.0
C2007 C 0.03764 0.69667 0.96241 0.0
C2008 C 0.05234 0.65649 0.98673 0.0
C2009 C 0.01441 0.68124 0.95404 0.0
C2010 C 0.01008 0.6542 0.96178 0.0
C2011 C 0.02496 0.61391 0.98569 0.0
C2012 C 0.04424 0.60111 1.0019 0.0
C2013 C 0.02894 0.64141 0.97806 0.0
C2014 C 0.06741 0.61672 0.01018 0.0
C2015 C 0.07137 0.6438 1.00281 0.0
H2016 H 0.08716 0.27682 0.72722 0.0
H2017 H 0.13134 0.31338 0.65956 0.0
H2018 H 0.17472 0.30919 0.68286 0.0
H2019 H 0.20005 0.29083 0.7201 0.0
H2020 H 0.15593 0.25256 0.78665 0.0
H2021 H 0.11214 0.26152 0.76579 0.0
C2022 C 0.1062 0.28415 0.71759 0.0
C2023 C 0.1061 0.29507 0.69154 0.0
C2024 C 0.13095 0.28108 0.73072 0.0
C2025 C 0.13093 0.30471 0.67952 0.0
C2026 C 0.1557 0.30224 0.69278 0.0
C2027 C 0.18085 0.28497 0.73032 0.0
C2028 C 0.18108 0.27097 0.75479 0.0
C2029 C 0.15596 0.28983 0.71805 0.0
C2030 C 0.15611 0.26305 0.76761 0.0
C2031 C 0.13117 0.26824 0.75576 0.0
H2032 H 0.54121 0.74649 0.0736 0.0
H2033 H 0.48276 0.71507 0.13337 0.0
H2034 H 0.48833 0.66977 0.11518 0.0
H2035 H 0.51352 0.63902 0.08579 0.0
H2036 H 0.57335 0.67018 0.02737 0.0
H2037 H 0.56391 0.71602 0.04208 0.0
C2038 C 0.5293 0.72984 0.08244 0.0
C2039 C 0.51176 0.73411 0.10498 0.0
C2040 C 0.53328 0.70388 0.0725 0.0
C2041 C 0.49649 0.71229 0.1161 0.0
C2042 C 0.49979 0.6864 0.10581 0.0
C2043 C 0.52412 0.65582 0.07587 0.0
C2044 C 0.54418 0.65126 0.05555 0.0
C2045 C 0.51871 0.68193 0.08455 0.0
C2046 C 0.55813 0.67323 0.0433 0.0
C2047 C 0.5526 0.69938 0.05159 0.0
H2048 H 0.13868 0.78011 0.89948 0.0
H2049 H 0.09759 0.76265 0.82486 0.0
H2050 H 0.14233 0.75969 0.80114 0.0
H2051 H 0.19377 0.76322 0.80141 0.0
H2052 H 0.23367 0.78514 0.87564 0.0
H2053 H 0.18914 0.78503 0.89955 0.0
C2054 C 0.13943 0.77546 0.87804 0.0
C2055 C 0.11461 0.77135 0.86411 0.0
C2056 C 0.16525 0.77461 0.86438 0.0
C2057 C 0.11622 0.76587 0.83619 0.0
C2058 C 0.14188 0.76415 0.8226 0.0
C2059 C 0.19265 0.76774 0.82285 0.0
C2060 C 0.21717 0.77395 0.83675 0.0
C2061 C 0.16662 0.7686 0.83643 0.0
C2062 C 0.21524 0.78027 0.86444 0.0
C2063 C 0.18972 0.78022 0.87816 0.0
H2064 H 0.02841 0.35068 0.55886 0.0
H2065 H 0.99957 0.37147 0.63917 0.0
H2066 H 0.98984 0.41665 0.62429 0.0
H2067 H 0.99688 0.45189 0.59036 0.0
H2068 H 0.02538 0.43085 0.50994 0.0
H2069 H 0.02717 0.38388 0.52276 0.0
C2070 C 0.01953 0.365 0.57292 0.0
C2071 C 0.01532 0.35818 0.6001 0.0
C2072 C 0.01402 0.39085 0.56426 0.0
C2073 C 1.00322 0.37651 0.61813 0.0
C2074 C 0.99775 0.40234 0.60968 0.0
C2075 C 1.00285 0.43689 0.57551 0.0
C2076 C 0.0116 0.4448 0.54951 0.0
C2077 C 1.00417 0.41001 0.58308 0.0
C2078 C 0.01877 0.42522 0.53021 0.0
C2079 C 0.02001 0.39839 0.53755 0.0
H2080 H 0.46132 0.25042 0.33443 0.0
H2081 H 0.44936 0.32514 0.37703 0.0
H2082 H 0.40774 0.33221 0.35161 0.0
H2083 H 0.37322 0.31661 0.31806 0.0
H2084 H 0.38237 0.23968 0.27909 0.0
H2085 H 0.42606 0.23421 0.30179 0.0
C2086 C 0.44974 0.26836 0.33805 0.0
C2087 C 0.45891 0.2873 0.35771 0.0
C2088 C 0.42505 0.27197 0.32378 0.0
C2089 C 0.44308 0.31015 0.36221 0.0
C2090 C 0.41916 0.31426 0.34756 0.0
C2091 C 0.38502 0.29885 0.31419 0.0
C2092 C 0.37461 0.27885 0.29627 0.0
C2093 C 0.40976 0.29529 0.32834 0.0
C2094 C 0.38988 0.25558 0.29237 0.0
C2095 C 0.41492 0.25239 0.3055 0.0
H2096 H 0.43156 0.61187 0.33218 0.0
H2097 H 0.43447 0.5263 0.31854 0.0
H2098 H 0.46593 0.52236 0.35569 0.0
H2099 H 0.49299 0.54317 0.39181 0.0
H2100 H 0.49164 0.62874 0.40485 0.0
H2101 H 0.45947 0.63286 0.36804 0.0
C2102 C 0.43904 0.5924 0.33746 0.0
C2103 C 0.43072 0.56944 0.32274 0.0
C2104 C 0.45753 0.5903 0.35859 0.0
C2105 C 0.44071 0.54431 0.32954 0.0
C2106 C 0.45866 0.542 0.35079 0.0
C2107 C 0.48551 0.56265 0.3866 0.0
C2108 C 0.49457 0.58557 0.40088 0.0
C2109 C 0.46725 0.56485 0.36539 0.0
C2110 C 0.48513 0.61084 0.39383 0.0
C2111 C 0.46663 0.61318 0.37294 0.0
H2112 H 0.28141 0.76453 0.07956 0.0
H2113 H 0.33283 0.7184 0.13032 0.0
H2114 H 0.32504 0.74971 0.16762 0.0
H2115 H 0.3008 0.78731 0.18659 0.0
H2116 H 0.24876 0.83374 0.13697 0.0
H2117 H 0.25928 0.80452 0.09818 0.0
C2118 C 0.29127 0.76152 0.09865 0.0
C2119 C 0.30758 0.73906 0.1022 0.0
C2120 C 0.2863 0.77931 0.12016 0.0
C2121 C 0.32013 0.73545 0.12708 0.0
C2122 C 0.31562 0.75328 0.14843 0.0
C2123 C 0.29223 0.79165 0.16722 0.0
C2124 C 0.27419 0.81292 0.16462 0.0
C2125 C 0.29833 0.7749 0.1453 0.0
C2126 C 0.26259 0.81744 0.13947 0.0
C2127 C 0.2687 0.80083 0.11734 0.0
H2128 H 0.09432 0.4843 0.86484 0.0
H2129 H 0.17592 0.49387 0.89636 0.0
H2130 H 0.15662 0.49549 0.94262 0.0
H2131 H 0.11589 0.50074 0.97284 0.0
H2132 H 0.03457 0.49106 0.93973 0.0
H2133 H 0.05446 0.48263 0.89528 0.0
C2134 C 0.10783 0.48617 0.88196 0.0
C2135 C 0.13623 0.48939 0.87761 0.0
C2136 C 0.09664 0.4874 0.90805 0.0
C2137 C 0.15386 0.49139 0.89959 0.0
C2138 C 0.14283 0.49255 0.92588 0.0
C2139 C 0.1026 0.49642 0.95595 0.0
C2140 C 0.07387 0.49721 0.95943 0.0
C2141 C 0.11416 0.49165 0.93022 0.0
C2142 C 0.0568 0.49108 0.93751 0.0
C2143 C 0.0681 0.48621 0.91204 0.0
H2144 H 0.26435 0.36208 0.61851 0.0
H2145 H 0.34287 0.33878 0.58546 0.0
H2146 H 0.35224 0.3154 0.62734 0.0
H2147 H 0.33885 0.30244 0.67473 0.0
H2148 H 0.25825 0.322 0.70554 0.0
H2149 H 0.2492 0.34555 0.66384 0.0
C2150 C 0.28343 0.35166 0.62029 0.0
C2151 C 0.30284 0.35244 0.59845 0.0
C2152 C 0.28848 0.33755 0.64445 0.0
C2153 C 0.32734 0.33855 0.60151 0.0
C2154 C 0.33283 0.32523 0.62569 0.0
C2155 C 0.31927 0.31178 0.6723 0.0
C2156 C 0.29939 0.31045 0.69373 0.0
C2157 C 0.3137 0.32474 0.64752 0.0
C2158 C 0.27402 0.32251 0.6897 0.0
C2159 C 0.2688 0.33612 0.66572 0.0
H2160 H 0.44611 0.58055 0.19955 0.0
H2161 H 0.37175 0.56989 0.15412 0.0
H2162 H 0.39855 0.55435 0.11505 0.0
H2163 H 0.44286 0.54142 0.09467 0.0
H2164 H 0.51746 0.55483 0.13874 0.0
H2165 H 0.49081 0.57133 0.17786 0.0
C2166 C 0.43581 0.57512 0.18097 0.0
C2167 C 0.40699 0.57613 0.17976 0.0
C2168 C 0.45132 0.56625 0.15863 0.0
C2169 C 0.39393 0.56937 0.15551 0.0
C2170 C 0.4092 0.56026 0.13324 0.0
C2171 C 0.4531 0.54778 0.113 0.0
C2172 C 0.48176 0.54635 0.11447 0.0
C2173 C 0.43779 0.55809 0.1348 0.0
C2174 C 0.49525 0.55538 0.1377 0.0
C2175 C 0.48007 0.56492 0.15985 0.0
H2176 H 0.31119 0.6789 0.94026 0.0
H2177 H 0.34302 0.75335 0.97401 0.0
H2178 H 0.35032 0.77174 0.9287 0.0
H2179 H 0.33917 0.76944 0.88111 0.0
H2180 H 0.30264 0.69668 0.84747 0.0
H2181 H 0.30624 0.67441 0.89094 0.0
C2182 C 0.32067 0.69875 0.93743 0.0
C2183 C 0.32682 0.71486 0.95999 0.0
C2184 C 0.32347 0.70954 0.91145 0.0
C2185 C 0.33848 0.74073 0.95662 0.0
C2186 C 0.3424 0.75124 0.93082 0.0
C2187 C 0.33249 0.74853 0.88311 0.0
C2188 C 0.32005 0.7349 0.86139 0.0
C2189 C 0.33366 0.73629 0.90827 0.0
C2190 C 0.312 0.70768 0.86406 0.0
C2191 C 0.31392 0.695 0.88893 0.0
H2192 H 0.15081 0.52061 0.70834 0.0
H2193 H 0.0941 0.46547 0.74928 0.0
H2194 H 0.05804 0.47592 0.71757 0.0
H2195 H 0.04307 0.50126 0.67861 0.0
H2196 H 0.0991 0.55923 0.6406 0.0
H2197 H 0.13518 0.54756 0.67133 0.0
C2198 C 0.1307 0.51047 0.70992 0.0
C2199 C 0.1251 0.49183 0.73047 0.0
C2200 C 0.10996 0.51758 0.69265 0.0
C2201 C 0.0988 0.47951 0.73313 0.0
C2202 C 0.07822 0.4857 0.71526 0.0
C2203 C 0.06295 0.51178 0.67746 0.0
C2204 C 0.06851 0.53101 0.65733 0.0
C2205 C 0.08352 0.50498 0.69518 0.0
C2206 C 0.09451 0.54419 0.65582 0.0
C2207 C 0.11513 0.53745 0.67325 0.0
H2208 H 0.31164 0.31865 0.44453 0.0
H2209 H 0.27862 0.39603 0.42955 0.0
H2210 H 0.27107 0.38321 0.38232 0.0
H2211 H 0.275 0.35008 0.34417 0.0
H2212 H 0.30346 0.27113 0.361 0.0
H2213 H 0.31133 0.28429 0.40783 0.0
C2214 C 0.30265 0.33268 0.43099 0.0
C2215 C 0.29593 0.35846 0.44086 0.0
C2216 C 0.29746 0.3248 0.40382 0.0
C2217 C 0.28399 0.37609 0.42281 0.0
C2218 C 0.27972 0.36876 0.39562 0.0
C2219 C 0.28263 0.33565 0.35814 0.0
C2220 C 0.28853 0.30948 0.34864 0.0
C2221 C 0.28649 0.34317 0.38572 0.0
C2222 C 0.2984 0.29125 0.36741 0.0
C2223 C 0.30311 0.29884 0.39436 0.0
H2224 H 0.37771 0.45688 0.4867 0.0
H2225 H 0.36138 0.46687 0.572 0.0
H2226 H 0.40349 0.49492 0.5761 0.0
H2227 H 0.44653 0.51558 0.55572 0.0
H2228 H 0.45992 0.50962 0.46955 0.0
H2229 H 0.4179 0.48165 0.46559 0.0
C2230 C 0.38326 0.46536 0.50615 0.0
C2231 C 0.36625 0.45948 0.52905 0.0
C2232 C 0.40724 0.4824 0.50825 0.0
C2233 C 0.37382 0.47101 0.55399 0.0
C2234 C 0.39808 0.48705 0.55639 0.0
C2235 C 0.44007 0.50847 0.53603 0.0
C2236 C 0.45667 0.51491 0.51297 0.0
C2237 C 0.41516 0.49279 0.5337 0.0
C2238 C 0.44767 0.50538 0.48767 0.0
C2239 C 0.4236 0.48913 0.48537 0.0
H2240 H 0.90137 0.12258 0.51744 0.0
H2241 H 0.85247 0.07374 0.5732 0.0
H2242 H 0.88453 0.03744 0.56773 0.0
H2243 H 0.92875 0.02164 0.55124 0.0
H2244 H 0.98094 0.07228 0.50018 0.0
H2245 H 0.94503 0.10553 0.49891 0.0
C2246 C 0.89765 0.10385 0.5281 0.0
C2247 C 0.87483 0.10085 0.54587 0.0
C2248 C 0.91666 0.08335 0.52551 0.0
C2249 C 0.87018 0.0766 0.5597 0.0
C2250 C 0.88839 0.05579 0.55648 0.0
C2251 C 0.93187 0.03955 0.5391 0.0
C2252 C 0.95716 0.04448 0.52553 0.0
C2253 C 0.91198 0.05918 0.53992 0.0
C2254 C 0.96139 0.06807 0.51052 0.0
C2255 C 0.94102 0.08715 0.51005 0.0
H2256 H 0.67303 0.08502 0.26266 0.0
H2257 H 0.69764 0.07978 0.34538 0.0
H2258 H 0.73057 0.11763 0.33876 0.0
H2259 H 0.7553 0.14882 0.30812 0.0
H2260 H 0.73306 0.15174 0.2245 0.0
H2261 H 0.69676 0.11732 0.2324 0.0
C2262 C 0.68501 0.09281 0.2794 0.0
C2263 C 0.68276 0.08025 0.30458 0.0
C2264 C 0.7049 0.11335 0.27496 0.0
C2265 C 0.69891 0.08966 0.32599 0.0
C2266 C 0.71791 0.11096 0.32209 0.0
C2267 C 0.74236 0.14198 0.29171 0.0
C2268 C 0.74687 0.15257 0.26578 0.0
C2269 C 0.72163 0.12235 0.29644 0.0
C2270 C 0.73028 0.14344 0.24452 0.0
C2271 C 0.70932 0.12407 0.24911 0.0
H2272 H 0.71486 0.98549 0.06109 0.0
H2273 H 0.70673 0.93719 0.98883 0.0
H2274 H 0.66237 0.95701 0.98025 0.0
H2275 H 0.62479 0.98777 0.99387 0.0
H2276 H 0.63366 0.03499 0.06693 0.0
H2277 H 0.67824 0.01611 0.07429 0.0
C2278 C 0.7035 0.9793 0.04337 0.0
C2279 C 0.71443 0.95975 0.02568 0.0
C2280 C 0.6778 0.9907 0.03861 0.0
C2281 C 0.69908 0.95212 1.00289 0.0
C2282 C 0.67358 0.96349 0.99794 0.0
C2283 C 0.63656 0.99407 0.01128 0.0
C2284 C 0.62551 0.01298 0.02973 0.0
C2285 C 0.66257 0.98279 0.01571 0.0
C2286 C 0.64126 0.02057 0.05228 0.0
C2287 C 0.66695 0.00973 0.0566 0.0
H2288 H 0.3418 0.49865 0.29166 0.0
H2289 H 0.28199 0.52003 0.23327 0.0
H2290 H 0.26871 0.47261 0.22708 0.0
H2291 H 0.27931 0.42516 0.23314 0.0
H2292 H 0.34138 0.40425 0.28926 0.0
H2293 H 0.3486 0.45153 0.30152 0.0
C2294 C 0.32544 0.49303 0.27796 0.0
C2295 C 0.31328 0.51279 0.26254 0.0
C2296 C 0.31876 0.4658 0.2737 0.0
C2297 C 0.29178 0.50522 0.24529 0.0
C2298 C 0.28441 0.47808 0.24151 0.0
C2299 C 0.2944 0.43098 0.24805 0.0
C2300 C 0.31025 0.41133 0.25985 0.0
C2301 C 0.2987 0.45821 0.25466 0.0
C2302 C 0.32905 0.41902 0.27982 0.0
C2303 C 0.33322 0.44604 0.28677 0.0
H2304 H 0.24895 0.60317 0.06843 0.0
H2305 H 0.21023 0.65847 0.01589 0.0
H2306 H 0.16804 0.63028 0.01705 0.0
H2307 H 0.142 0.59096 0.0343 0.0
H2308 H 0.1811 0.53546 0.0862 0.0
H2309 H 0.22355 0.56313 0.08423 0.0
C2310 C 0.23131 0.60912 0.05721 0.0
C2311 C 0.23261 0.63294 0.04224 0.0
C2312 C 0.20729 0.59291 0.05795 0.0
C2313 C 0.20968 0.64022 0.02761 0.0
C2314 C 0.18559 0.62416 0.02828 0.0
C2315 C 0.15992 0.58465 0.04481 0.0
C2316 C 0.15846 0.5612 0.06037 0.0
C2317 C 0.18417 0.60056 0.0435 0.0
C2318 C 0.18168 0.55361 0.07436 0.0
C2319 C 0.20594 0.56933 0.07314 0.0
H2320 H 0.75166 0.95138 0.30237 0.0
H2321 H 0.67141 0.91405 0.31806 0.0
H2322 H 0.69172 0.87003 0.31908 0.0
H2323 H 0.73096 0.84207 0.30897 0.0
H2324 H 0.81107 0.87906 0.29211 0.0
H2325 H 0.79215 0.92355 0.29854 0.0
C2326 C 0.73869 0.93364 0.30641 0.0
C2327 C 0.71008 0.93577 0.30952 0.0
C2328 C 0.75041 0.90844 0.30656 0.0
C2329 C 0.69351 0.91281 0.31531 0.0
C2330 C 0.70506 0.88765 0.31579 0.0
C2331 C 0.74433 0.85989 0.30708 0.0
C2332 C 0.77213 0.8575 0.29952 0.0
C2333 C 0.73329 0.88521 0.3104 0.0
C2334 C 0.78949 0.88055 0.29771 0.0
C2335 C 0.77868 0.90593 0.30125 0.0
H2336 H 0.86039 0.17504 0.789 0.0
H2337 H 0.81357 0.16798 0.7161 0.0
H2338 H 0.80447 0.21572 0.71837 0.0
H2339 H 0.80943 0.25924 0.74105 0.0
H2340 H 0.85539 0.26664 0.81444 0.0
H2341 H 0.86534 0.21892 0.81185 0.0
C2342 C 0.84812 0.18393 0.77367 0.0
C2343 C 0.83762 0.16796 0.75248 0.0
C2344 C 0.84288 0.21142 0.77511 0.0
C2345 C 0.8218 0.17978 0.73273 0.0
C2346 C 0.81663 0.2071 0.73394 0.0
C2347 C 0.82171 0.25048 0.75646 0.0
C2348 C 0.83163 0.26643 0.77792 0.0
C2349 C 0.82706 0.22308 0.75503 0.0
C2350 C 0.84747 0.25475 0.79773 0.0
C2351 C 0.85313 0.22747 0.79629 0.0
loop_
_geom_bond_atom_site_label_1
_geom_bond_atom_site_label_2
_geom_bond_distance
_geom_bond_site_symmetry_2
_ccdc_geom_bond_type
O0 Cd1 2.223 . S
O0 C8 1.315 . S
Cd1 O0 2.223 . S
Cd1 O4 2.297 1_455 S
Cd1 O5 2.439 1_455 S
Cd1 O11 2.240 . S
Cd2 O3 2.240 . S
Cd2 O10 2.223 . S
Cd2 O12 2.297 . S
Cd2 O13 2.439 . S
O3 Cd2 2.240 . S
O3 C8 1.279 . S
O4 Cd1 2.297 1_655 S
O4 C6 1.247 . S
O5 Cd1 2.439 1_655 S
O5 C6 1.208 . S
C6 O4 1.247 . S
C6 O5 1.208 . S
C7 O12 1.247 . S
C7 O13 1.208 . S
C8 O0 1.315 . S
C8 O3 1.279 . S
C9 O10 1.315 . S
C9 O11 1.279 . S
O10 Cd2 2.223 . S
O10 C9 1.315 . S
O11 Cd1 2.240 . S
O11 C9 1.279 . S
O12 Cd2 2.297 . S
O12 C7 1.247 . S
O13 Cd2 2.439 . S
O13 C7 1.208 . S
O14 Cd15 2.223 . S
O14 C22 1.315 . S
Cd15 O14 2.223 . S
Cd15 O18 2.297 . S
Cd15 O19 2.439 . S
Cd15 O25 2.240 . S
Cd16 O17 2.240 . S
Cd16 O24 2.223 . S
Cd16 O26 2.297 . S
Cd16 O27 2.439 . S
O17 Cd16 2.240 . S
O17 C22 1.279 . S
O18 Cd15 2.297 . S
O18 C20 1.247 . S
O19 Cd15 2.439 . S
O19 C20 1.208 . S
C20 O18 1.247 . S
C20 O19 1.208 . S
C21 O26 1.247 1_655 S
C21 O27 1.208 1_655 S
C22 O14 1.315 . S
C22 O17 1.279 . S
C23 O24 1.315 . S
C23 O25 1.279 . S
O24 Cd16 2.223 . S
O24 C23 1.315 . S
O25 Cd15 2.240 . S
O25 C23 1.279 . S
O26 Cd16 2.297 . S
O26 C21 1.247 1_455 S
O27 Cd16 2.439 . S
O27 C21 1.208 1_455 S
O28 Cd29 2.223 . S
O28 C36 1.315 . S
Cd29 O28 2.223 . S
Cd29 O32 2.297 . S
Cd29 O33 2.439 . S
Cd29 O39 2.240 . S
Cd30 O31 2.240 . S
Cd30 O38 2.223 . S
Cd30 O40 2.297 . S
Cd30 O41 2.439 . S
O31 Cd30 2.240 . S
O31 C36 1.279 . S
O32 Cd29 2.297 . S
O32 C34 1.247 . S
O33 Cd29 2.439 . S
O33 C34 1.208 . S
C34 O32 1.247 . S
C34 O33 1.208 . S
C35 O40 1.247 . S
C35 O41 1.208 . S
C36 O28 1.315 . S
C36 O31 1.279 . S
C37 O38 1.315 . S
C37 O39 1.279 . S
O38 Cd30 2.223 . S
O38 C37 1.315 . S
O39 Cd29 2.240 . S
O39 C37 1.279 . S
O40 Cd30 2.297 . S
O40 C35 1.247 . S
O41 Cd30 2.439 . S
O41 C35 1.208 . S
O42 Cd43 2.223 . S
O42 C50 1.315 . S
Cd43 O42 2.223 . S
Cd43 O46 2.297 . S
Cd43 O47 2.439 . S
Cd43 O53 2.240 . S
Cd44 O45 2.240 . S
Cd44 O52 2.223 . S
Cd44 O54 2.297 . S
Cd44 O55 2.439 . S
O45 Cd44 2.240 . S
O45 C50 1.279 . S
O46 Cd43 2.297 . S
O46 C48 1.247 . S
O47 Cd43 2.439 . S
O47 C48 1.208 . S
C48 O46 1.247 . S
C48 O47 1.208 . S
C49 O54 1.247 . S
C49 O55 1.208 . S
C50 O42 1.315 . S
C50 O45 1.279 . S
C51 O52 1.315 . S
C51 O53 1.279 . S
O52 Cd44 2.223 . S
O52 C51 1.315 . S
O53 Cd43 2.240 . S
O53 C51 1.279 . S
O54 Cd44 2.297 . S
O54 C49 1.247 . S
O55 Cd44 2.439 . S
O55 C49 1.208 . S
O56 Cd57 2.223 1_545 S
O56 C64 1.315 . S
Cd57 O56 2.223 1_565 S
Cd57 O60 2.297 . S
Cd57 O61 2.439 . S
Cd57 O67 2.240 1_565 S
Cd58 O59 2.240 1_545 S
Cd58 O66 2.223 . S
Cd58 O68 2.297 . S
Cd58 O69 2.439 1_545 S
O59 Cd58 2.240 1_565 S
O59 C64 1.279 1_565 S
O60 Cd57 2.297 . S
O60 C62 1.247 . S
O61 Cd57 2.439 . S
O61 C62 1.208 . S
C62 O60 1.247 . S
C62 O61 1.208 . S
C63 O68 1.247 . S
C63 O69 1.208 1_545 S
C64 O56 1.315 . S
C64 O59 1.279 1_545 S
C65 O66 1.315 . S
C65 O67 1.279 . S
O66 Cd58 2.223 . S
O66 C65 1.315 . S
O67 Cd57 2.240 1_545 S
O67 C65 1.279 . S
O68 Cd58 2.297 . S
O68 C63 1.247 . S
O69 Cd58 2.439 1_565 S
O69 C63 1.208 1_565 S
O70 Cd71 2.223 . S
O70 C78 1.315 . S
Cd71 O70 2.223 . S
Cd71 O74 2.297 . S
Cd71 O75 2.439 . S
Cd71 O81 2.240 . S
Cd72 O73 2.240 . S
Cd72 O80 2.223 . S
Cd72 O82 2.297 . S
Cd72 O83 2.439 . S
O73 Cd72 2.240 . S
O73 C78 1.279 . S
O74 Cd71 2.297 . S
O74 C76 1.247 . S
O75 Cd71 2.439 . S
O75 C76 1.208 . S
C76 O74 1.247 . S
C76 O75 1.208 . S
C77 O82 1.247 . S
C77 O83 1.208 . S
C78 O70 1.315 . S
C78 O73 1.279 . S
C79 O80 1.315 . S
C79 O81 1.279 . S
O80 Cd72 2.223 . S
O80 C79 1.315 . S
O81 Cd71 2.240 . S
O81 C79 1.279 . S
O82 Cd72 2.297 . S
O82 C77 1.247 . S
O83 Cd72 2.439 . S
O83 C77 1.208 . S
O84 Cd85 2.223 . S
O84 C92 1.315 . S
Cd85 O84 2.223 . S
Cd85 O88 2.297 . S
Cd85 O89 2.439 . S
Cd85 O95 2.240 . S
Cd86 O87 2.240 . S
Cd86 O94 2.223 . S
Cd86 O96 2.297 . S
Cd86 O97 2.439 . S
O87 Cd86 2.240 . S
O87 C92 1.279 . S
O88 Cd85 2.297 . S
O88 C90 1.247 . S
O89 Cd85 2.439 . S
O89 C90 1.208 . S
C90 O88 1.247 . S
C90 O89 1.208 . S
C91 O96 1.247 . S
C91 O97 1.208 . S
C92 O84 1.315 . S
C92 O87 1.279 . S
C93 O94 1.315 . S
C93 O95 1.279 . S
O94 Cd86 2.223 . S
O94 C93 1.315 . S
O95 Cd85 2.240 . S
O95 C93 1.279 . S
O96 Cd86 2.297 . S
O96 C91 1.247 . S
O97 Cd86 2.439 . S
O97 C91 1.208 . S
O98 Cd99 2.223 . S
O98 C106 1.315 . S
Cd99 O98 2.223 . S
Cd99 O102 2.297 . S
Cd99 O103 2.439 . S
Cd99 O109 2.240 . S
Cd100 O101 2.240 . S
Cd100 O108 2.223 . S
Cd100 O110 2.297 1_554 S
Cd100 O111 2.439 1_554 S
O101 Cd100 2.240 . S
O101 C106 1.279 . S
O102 Cd99 2.297 . S
O102 C104 1.247 . S
O103 Cd99 2.439 . S
O103 C104 1.208 . S
C104 O102 1.247 . S
C104 O103 1.208 . S
C105 O110 1.247 . S
C105 O111 1.208 . S
C106 O98 1.315 . S
C106 O101 1.279 . S
C107 O108 1.315 . S
C107 O109 1.279 . S
O108 Cd100 2.223 . S
O108 C107 1.315 . S
O109 Cd99 2.240 . S
O109 C107 1.279 . S
O110 Cd100 2.297 1_556 S
O110 C105 1.247 . S
O111 Cd100 2.439 1_556 S
O111 C105 1.208 . S
O112 Cd113 2.223 . S
O112 C120 1.315 . S
Cd113 O112 2.223 . S
Cd113 O116 2.297 . S
Cd113 O117 2.439 . S
Cd113 O123 2.240 . S
Cd114 O115 2.240 . S
Cd114 O122 2.223 . S
Cd114 O124 2.297 . S
Cd114 O125 2.439 . S
O115 Cd114 2.240 . S
O115 C120 1.279 . S
O116 Cd113 2.297 . S
O116 C118 1.247 . S
O117 Cd113 2.439 . S
O117 C118 1.208 . S
C118 O116 1.247 . S
C118 O117 1.208 . S
C119 O124 1.247 1_556 S
C119 O125 1.208 1_556 S
C120 O112 1.315 . S
C120 O115 1.279 . S
C121 O122 1.315 . S
C121 O123 1.279 . S
O122 Cd114 2.223 . S
O122 C121 1.315 . S
O123 Cd113 2.240 . S
O123 C121 1.279 . S
O124 Cd114 2.297 . S
O124 C119 1.247 1_554 S
O125 Cd114 2.439 . S
O125 C119 1.208 1_554 S
O126 Cd127 2.223 . S
O126 C134 1.315 . S
Cd127 O126 2.223 . S
Cd127 O130 2.297 . S
Cd127 O131 2.439 . S
Cd127 O137 2.240 . S
Cd128 O129 2.240 . S
Cd128 O136 2.223 . S
Cd128 O138 2.297 . S
Cd128 O139 2.439 . S
O129 Cd128 2.240 . S
O129 C134 1.279 . S
O130 Cd127 2.297 . S
O130 C132 1.247 . S
O131 Cd127 2.439 . S
O131 C132 1.208 . S
C132 O130 1.247 . S
C132 O131 1.208 . S
C133 O138 1.247 . S
C133 O139 1.208 . S
C134 O126 1.315 . S
C134 O129 1.279 . S
C135 O136 1.315 . S
C135 O137 1.279 . S
O136 Cd128 2.223 . S
O136 C135 1.315 . S
O137 Cd127 2.240 . S
O137 C135 1.279 . S
O138 Cd128 2.297 . S
O138 C133 1.247 . S
O139 Cd128 2.439 . S
O139 C133 1.208 . S
O140 Cd141 2.223 . S
O140 C148 1.315 . S
Cd141 O140 2.223 . S
Cd141 O144 2.297 . S
Cd141 O145 2.439 . S
Cd141 O151 2.240 . S
Cd142 O143 2.240 . S
Cd142 O150 2.223 . S
Cd142 O152 2.297 . S
Cd142 O153 2.439 . S
O143 Cd142 2.240 . S
O143 C148 1.279 . S
O144 Cd141 2.297 . S
O144 C146 1.247 . S
O145 Cd141 2.439 . S
O145 C146 1.208 . S
C146 O144 1.247 . S
C146 O145 1.208 . S
C147 O152 1.247 . S
C147 O153 1.208 . S
C148 O140 1.315 . S
C148 O143 1.279 . S
C149 O150 1.315 . S
C149 O151 1.279 . S
O150 Cd142 2.223 . S
O150 C149 1.315 . S
O151 Cd141 2.240 . S
O151 C149 1.279 . S
O152 Cd142 2.297 . S
O152 C147 1.247 . S
O153 Cd142 2.439 . S
O153 C147 1.208 . S
O154 Cd155 2.223 . S
O154 C162 1.315 . S
Cd155 O154 2.223 . S
Cd155 O158 2.297 . S
Cd155 O159 2.439 . S
Cd155 O165 2.240 . S
Cd156 O157 2.240 . S
Cd156 O164 2.223 . S
Cd156 O166 2.297 . S
Cd156 O167 2.439 . S
O157 Cd156 2.240 . S
O157 C162 1.279 . S
O158 Cd155 2.297 . S
O158 C160 1.247 . S
O159 Cd155 2.439 . S
O159 C160 1.208 . S
C160 O158 1.247 . S
C160 O159 1.208 . S
C161 O166 1.247 . S
C161 O167 1.208 . S
C162 O154 1.315 . S
C162 O157 1.279 . S
C163 O164 1.315 . S
C163 O165 1.279 . S
O164 Cd156 2.223 . S
O164 C163 1.315 . S
O165 Cd155 2.240 . S
O165 C163 1.279 . S
O166 Cd156 2.297 . S
O166 C161 1.247 . S
O167 Cd156 2.439 . S
O167 C161 1.208 . S
O168 Cd169 2.223 . S
O168 C176 1.315 . S
Cd169 O168 2.223 . S
Cd169 O172 2.297 . S
Cd169 O173 2.439 . S
Cd169 O179 2.240 . S
Cd170 O171 2.240 . S
Cd170 O178 2.223 . S
Cd170 O180 2.297 1_455 S
Cd170 O181 2.439 1_455 S
O171 Cd170 2.240 . S
O171 C176 1.279 . S
O172 Cd169 2.297 . S
O172 C174 1.247 . S
O173 Cd169 2.439 . S
O173 C174 1.208 . S
C174 O172 1.247 . S
C174 O173 1.208 . S
C175 O180 1.247 . S
C175 O181 1.208 . S
C176 O168 1.315 . S
C176 O171 1.279 . S
C177 O178 1.315 . S
C177 O179 1.279 . S
O178 Cd170 2.223 . S
O178 C177 1.315 . S
O179 Cd169 2.240 . S
O179 C177 1.279 . S
O180 Cd170 2.297 1_655 S
O180 C175 1.247 . S
O181 Cd170 2.439 1_655 S
O181 C175 1.208 . S
O182 Cd183 2.223 1_455 S
O182 C190 1.315 . S
Cd183 O182 2.223 1_655 S
Cd183 O186 2.297 . S
Cd183 O187 2.439 . S
Cd183 O193 2.240 1_655 S
Cd184 O185 2.240 1_455 S
Cd184 O192 2.223 . S
Cd184 O194 2.297 . S
Cd184 O195 2.439 1_455 S
O185 Cd184 2.240 1_655 S
O185 C190 1.279 1_655 S
O186 Cd183 2.297 . S
O186 C188 1.247 . S
O187 Cd183 2.439 . S
O187 C188 1.208 . S
C188 O186 1.247 . S
C188 O187 1.208 . S
C189 O194 1.247 . S
C189 O195 1.208 1_455 S
C190 O182 1.315 . S
C190 O185 1.279 1_455 S
C191 O192 1.315 . S
C191 O193 1.279 . S
O192 Cd184 2.223 . S
O192 C191 1.315 . S
O193 Cd183 2.240 1_455 S
O193 C191 1.279 . S
O194 Cd184 2.297 . S
O194 C189 1.247 . S
O195 Cd184 2.439 1_655 S
O195 C189 1.208 1_655 S
O196 Cd197 2.223 . S
O196 C204 1.315 . S
Cd197 O196 2.223 . S
Cd197 O200 2.297 . S
Cd197 O201 2.439 . S
Cd197 O207 2.240 . S
Cd198 O199 2.240 . S
Cd198 O206 2.223 . S
Cd198 O208 2.297 . S
Cd198 O209 2.439 . S
O199 Cd198 2.240 . S
O199 C204 1.279 . S
O200 Cd197 2.297 . S
O200 C202 1.247 . S
O201 Cd197 2.439 . S
O201 C202 1.208 . S
C202 O200 1.247 . S
C202 O201 1.208 . S
C203 O208 1.247 . S
C203 O209 1.208 . S
C204 O196 1.315 . S
C204 O199 1.279 . S
C205 O206 1.315 . S
C205 O207 1.279 . S
O206 Cd198 2.223 . S
O206 C205 1.315 . S
O207 Cd197 2.240 . S
O207 C205 1.279 . S
O208 Cd198 2.297 . S
O208 C203 1.247 . S
O209 Cd198 2.439 . S
O209 C203 1.208 . S
O210 Cd211 2.223 . S
O210 C218 1.315 . S
Cd211 O210 2.223 . S
Cd211 O214 2.297 . S
Cd211 O215 2.439 . S
Cd211 O221 2.240 . S
Cd212 O213 2.240 . S
Cd212 O220 2.223 . S
Cd212 O222 2.297 . S
Cd212 O223 2.439 . S
O213 Cd212 2.240 . S
O213 C218 1.279 . S
O214 Cd211 2.297 . S
O214 C216 1.247 . S
O215 Cd211 2.439 . S
O215 C216 1.208 . S
C216 O214 1.247 . S
C216 O215 1.208 . S
C217 O222 1.247 . S
C217 O223 1.208 . S
C218 O210 1.315 . S
C218 O213 1.279 . S
C219 O220 1.315 . S
C219 O221 1.279 . S
O220 Cd212 2.223 . S
O220 C219 1.315 . S
O221 Cd211 2.240 . S
O221 C219 1.279 . S
O222 Cd212 2.297 . S
O222 C217 1.247 . S
O223 Cd212 2.439 . S
O223 C217 1.208 . S
O224 Cd225 2.223 . S
O224 C232 1.315 . S
Cd225 O224 2.223 . S
Cd225 O228 2.297 . S
Cd225 O229 2.439 . S
Cd225 O235 2.240 . S
Cd226 O227 2.240 . S
Cd226 O234 2.223 . S
Cd226 O236 2.297 . S
Cd226 O237 2.439 . S
O227 Cd226 2.240 . S
O227 C232 1.279 . S
O228 Cd225 2.297 . S
O228 C230 1.247 . S
O229 Cd225 2.439 . S
O229 C230 1.208 . S
C230 O228 1.247 . S
C230 O229 1.208 . S
C231 O236 1.247 . S
C231 O237 1.208 . S
C232 O224 1.315 . S
C232 O227 1.279 . S
C233 O234 1.315 . S
C233 O235 1.279 . S
O234 Cd226 2.223 . S
O234 C233 1.315 . S
O235 Cd225 2.240 . S
O235 C233 1.279 . S
O236 Cd226 2.297 . S
O236 C231 1.247 . S
O237 Cd226 2.439 . S
O237 C231 1.208 . S
O238 Cd239 2.223 . S
O238 C246 1.315 . S
Cd239 O238 2.223 . S
Cd239 O242 2.297 . S
Cd239 O243 2.439 . S
Cd239 O249 2.240 . S
Cd240 O241 2.240 . S
Cd240 O248 2.223 . S
Cd240 O250 2.297 . S
Cd240 O251 2.439 . S
O241 Cd240 2.240 . S
O241 C246 1.279 . S
O242 Cd239 2.297 . S
O242 C244 1.247 . S
O243 Cd239 2.439 . S
O243 C244 1.208 . S
C244 O242 1.247 . S
C244 O243 1.208 . S
C245 O250 1.247 . S
C245 O251 1.208 . S
C246 O238 1.315 . S
C246 O241 1.279 . S
C247 O248 1.315 . S
C247 O249 1.279 . S
O248 Cd240 2.223 . S
O248 C247 1.315 . S
O249 Cd239 2.240 . S
O249 C247 1.279 . S
O250 Cd240 2.297 . S
O250 C245 1.247 . S
O251 Cd240 2.439 . S
O251 C245 1.208 . S
O252 Cd253 2.223 1_545 S
O252 C260 1.315 . S
Cd253 O252 2.223 1_565 S
Cd253 O256 2.297 . S
Cd253 O257 2.439 . S
Cd253 O263 2.240 1_565 S
Cd254 O255 2.240 1_545 S
Cd254 O262 2.223 . S
Cd254 O264 2.297 . S
Cd254 O265 2.442 . S
O255 Cd254 2.240 1_565 S
O255 C260 1.279 1_565 S
O256 Cd253 2.297 . S
O256 C258 1.247 . S
O257 Cd253 2.439 . S
O257 C258 1.208 . S
C258 O256 1.247 . S
C258 O257 1.208 . S
C259 O264 1.247 . S
C259 O265 1.214 . S
C260 O252 1.315 . S
C260 O255 1.279 1_545 S
C261 O262 1.315 . S
C261 O263 1.279 . S
O262 Cd254 2.223 . S
O262 C261 1.315 . S
O263 Cd253 2.240 1_545 S
O263 C261 1.279 . S
O264 Cd254 2.297 . S
O264 C259 1.247 . S
O265 Cd254 2.442 . S
O265 C259 1.214 . S
O266 Cd267 2.223 . S
O266 C274 1.315 . S
Cd267 O266 2.223 . S
Cd267 O270 2.297 . S
Cd267 O271 2.439 . S
Cd267 O277 2.240 . S
Cd268 O269 2.240 . S
Cd268 O276 2.223 . S
Cd268 O278 2.297 1_554 S
Cd268 O279 2.439 1_554 S
O269 Cd268 2.240 . S
O269 C274 1.279 . S
O270 Cd267 2.297 . S
O270 C272 1.247 . S
O271 Cd267 2.439 . S
O271 C272 1.208 . S
C272 O270 1.247 . S
C272 O271 1.208 . S
C273 O278 1.247 . S
C273 O279 1.208 . S
C274 O266 1.315 . S
C274 O269 1.279 . S
C275 O276 1.315 . S
C275 O277 1.279 . S
O276 Cd268 2.223 . S
O276 C275 1.315 . S
O277 Cd267 2.240 . S
O277 C275 1.279 . S
O278 Cd268 2.297 1_556 S
O278 C273 1.247 . S
O279 Cd268 2.439 1_556 S
O279 C273 1.208 . S
O280 Cd281 2.223 . S
O280 C288 1.315 . S
Cd281 O280 2.223 . S
Cd281 O284 2.297 . S
Cd281 O285 2.439 1_554 S
Cd281 O291 2.240 1_554 S
Cd282 O283 2.240 1_556 S
Cd282 O290 2.223 1_556 S
Cd282 O292 2.297 . S
Cd282 O293 2.439 . S
O283 Cd282 2.240 1_554 S
O283 C288 1.279 . S
O284 Cd281 2.297 . S
O284 C286 1.247 . S
O285 Cd281 2.439 1_556 S
O285 C286 1.208 1_556 S
C286 O284 1.247 . S
C286 O285 1.208 1_554 S
C287 O292 1.247 . S
C287 O293 1.208 . S
C288 O280 1.315 . S
C288 O283 1.279 . S
C289 O290 1.315 . S
C289 O291 1.279 1_554 S
O290 Cd282 2.223 1_554 S
O290 C289 1.315 . S
O291 Cd281 2.240 1_556 S
O291 C289 1.279 1_556 S
O292 Cd282 2.297 . S
O292 C287 1.247 . S
O293 Cd282 2.439 . S
O293 C287 1.208 . S
O294 Cd295 2.223 . S
O294 C302 1.315 . S
Cd295 O294 2.223 . S
Cd295 O298 2.297 . S
Cd295 O299 2.439 . S
Cd295 O305 2.240 . S
Cd296 O297 2.240 . S
Cd296 O304 2.223 . S
Cd296 O306 2.297 . S
Cd296 O307 2.439 . S
O297 Cd296 2.240 . S
O297 C302 1.279 . S
O298 Cd295 2.297 . S
O298 C300 1.247 . S
O299 Cd295 2.439 . S
O299 C300 1.208 . S
C300 O298 1.247 . S
C300 O299 1.208 . S
C301 O306 1.247 . S
C301 O307 1.208 . S
C302 O294 1.315 . S
C302 O297 1.279 . S
C303 O304 1.315 . S
C303 O305 1.279 . S
O304 Cd296 2.223 . S
O304 C303 1.315 . S
O305 Cd295 2.240 . S
O305 C303 1.279 . S
O306 Cd296 2.297 . S
O306 C301 1.247 . S
O307 Cd296 2.439 . S
O307 C301 1.208 . S
O308 Cd309 2.223 . S
O308 C316 1.315 . S
Cd309 O308 2.223 . S
Cd309 O312 2.297 . S
Cd309 O313 2.439 . S
Cd309 O319 2.240 . S
Cd310 O311 2.240 . S
Cd310 O318 2.223 . S
Cd310 O320 2.297 . S
Cd310 O321 2.439 . S
O311 Cd310 2.240 . S
O311 C316 1.279 . S
O312 Cd309 2.297 . S
O312 C314 1.247 . S
O313 Cd309 2.439 . S
O313 C314 1.208 . S
C314 O312 1.247 . S
C314 O313 1.208 . S
C315 O320 1.247 . S
C315 O321 1.208 . S
C316 O308 1.315 . S
C316 O311 1.279 . S
C317 O318 1.315 . S
C317 O319 1.279 . S
O318 Cd310 2.223 . S
O318 C317 1.315 . S
O319 Cd309 2.240 . S
O319 C317 1.279 . S
O320 Cd310 2.297 . S
O320 C315 1.247 . S
O321 Cd310 2.439 . S
O321 C315 1.208 . S
O322 Cd323 2.223 . S
O322 C330 1.315 . S
Cd323 O322 2.223 . S
Cd323 O326 2.297 . S
Cd323 O327 2.439 . S
Cd323 O333 2.240 . S
Cd324 O325 2.240 . S
Cd324 O332 2.223 . S
Cd324 O334 2.297 . S
Cd324 O335 2.439 . S
O325 Cd324 2.240 . S
O325 C330 1.279 . S
O326 Cd323 2.297 . S
O326 C328 1.247 . S
O327 Cd323 2.439 . S
O327 C328 1.208 . S
C328 O326 1.247 . S
C328 O327 1.208 . S
C329 O334 1.247 . S
C329 O335 1.208 . S
C330 O322 1.315 . S
C330 O325 1.279 . S
C331 O332 1.315 . S
C331 O333 1.279 . S
O332 Cd324 2.223 . S
O332 C331 1.315 . S
O333 Cd323 2.240 . S
O333 C331 1.279 . S
O334 Cd324 2.297 . S
O334 C329 1.247 . S
O335 Cd324 2.439 . S
O335 C329 1.208 . S
Co336 N341 2.057 1_554 S
Co336 O353 2.021 1_544 S
Co336 O356 2.031 1_455 S
Co336 O360 2.117 . S
Co336 O361 2.020 . S
C337 O357 1.259 . S
C337 O360 1.258 . S
Co338 N347 2.052 1_545 S
Co338 O354 2.117 1_545 S
Co338 O355 2.020 . S
Co338 O357 2.021 . S
Co338 O362 2.062 . S
C339 N341 1.316 . S
C339 N342 1.347 . S
C339 H344 0.931 . S
C340 N341 1.375 . S
C340 C343 1.350 . S
C340 H345 0.930 . S
N341 Co336 2.057 1_556 S
N341 C339 1.316 . S
N341 C340 1.375 . S
N342 C339 1.347 . S
N342 C343 1.373 . S
C343 C340 1.350 . S
C343 N342 1.373 . S
C343 H364 0.931 1_455 S
H344 C339 0.931 . S
H345 C340 0.930 . S
C346 O353 1.259 1_554 S
C346 O354 1.258 . S
N347 Co338 2.052 1_565 S
N347 C348 1.312 1_565 S
N347 C349 1.385 . S
C348 N347 1.312 1_545 S
C348 N350 1.347 1_545 S
C348 H359 0.931 . S
C349 N347 1.385 . S
C349 C351 1.350 . S
C349 H358 0.930 . S
N350 C348 1.347 1_565 S
N350 C351 1.373 . S
C351 C349 1.350 . S
C351 N350 1.373 . S
C351 H365 0.931 . S
C352 O355 1.256 1_655 S
C352 O356 1.264 . S
O353 Co336 2.021 1_566 S
O353 C346 1.259 1_556 S
O354 Co338 2.117 1_565 S
O354 C346 1.258 . S
O355 Co338 2.020 . S
O355 C352 1.256 1_455 S
O356 Co336 2.031 1_655 S
O356 C352 1.264 . S
O357 C337 1.259 . S
O357 Co338 2.021 . S
H358 C349 0.930 . S
H359 C348 0.931 . S
O360 Co336 2.117 . S
O360 C337 1.258 . S
O361 Co336 2.020 . S
O361 C363 1.256 . S
O362 Co338 2.062 . S
O362 C363 1.255 . S
C363 O361 1.256 . S
C363 O362 1.255 . S
H364 C343 0.931 1_655 S
H365 C351 0.931 . S
Co366 N371 2.057 . S
Co366 O383 2.021 . S
Co366 O386 2.062 . S
Co366 O390 2.117 . S
Co366 O391 2.020 . S
C367 O387 1.259 . S
C367 O390 1.258 . S
Co368 N377 2.057 . S
Co368 O384 2.117 . S
Co368 O385 2.020 . S
Co368 O387 2.021 . S
Co368 O392 2.062 . S
C369 N371 1.316 . S
C369 N372 1.347 . S
C369 H374 0.931 . S
C370 N371 1.375 . S
C370 C373 1.350 . S
C370 H375 0.930 . S
N371 Co366 2.057 . S
N371 C369 1.316 . S
N371 C370 1.375 . S
N372 C369 1.347 . S
N372 C373 1.373 . S
C373 C370 1.350 . S
C373 N372 1.373 . S
C373 H394 0.931 . S
H374 C369 0.931 . S
H375 C370 0.930 . S
C376 O383 1.259 . S
C376 O384 1.258 . S
N377 Co368 2.057 . S
N377 C378 1.316 . S
N377 C379 1.375 . S
C378 N377 1.316 . S
C378 N380 1.347 . S
C378 H389 0.931 . S
C379 N377 1.375 . S
C379 C381 1.350 . S
C379 H388 0.930 . S
N380 C378 1.347 . S
N380 C381 1.373 . S
C381 C379 1.350 . S
C381 N380 1.373 . S
C381 H395 0.931 . S
C382 O385 1.256 . S
C382 O386 1.255 . S
O383 Co366 2.021 . S
O383 C376 1.259 . S
O384 Co368 2.117 . S
O384 C376 1.258 . S
O385 Co368 2.020 . S
O385 C382 1.256 . S
O386 Co366 2.062 . S
O386 C382 1.255 . S
O387 C367 1.259 . S
O387 Co368 2.021 . S
H388 C379 0.930 . S
H389 C378 0.931 . S
O390 Co366 2.117 . S
O390 C367 1.258 . S
O391 Co366 2.020 . S
O391 C393 1.256 . S
O392 Co368 2.062 . S
O392 C393 1.255 . S
C393 O391 1.256 . S
C393 O392 1.255 . S
H394 C373 0.931 . S
H395 C381 0.931 . S
Co396 N401 2.057 . S
Co396 O413 2.021 1_545 S
Co396 O416 2.062 . S
Co396 O420 2.117 . S
Co396 O421 2.020 . S
C397 O417 1.259 . S
C397 O420 1.258 . S
Co398 N407 2.057 . S
Co398 O414 2.117 . S
Co398 O415 2.020 . S
Co398 O417 2.021 . S
Co398 O422 2.062 . S
C399 N401 1.316 . S
C399 N402 1.347 . S
C399 H404 0.931 1_545 S
C400 N401 1.375 . S
C400 C403 1.350 . S
C400 H405 0.930 . S
N401 Co396 2.057 . S
N401 C399 1.316 . S
N401 C400 1.375 . S
N402 C399 1.347 . S
N402 C403 1.373 . S
C403 C400 1.350 . S
C403 N402 1.373 . S
C403 H424 0.931 . S
H404 C399 0.931 1_565 S
H405 C400 0.930 . S
C406 O413 1.259 . S
C406 O414 1.258 1_565 S
N407 Co398 2.057 . S
N407 C408 1.316 . S
N407 C409 1.375 . S
C408 N407 1.316 . S
C408 N410 1.347 . S
C408 H419 0.931 . S
C409 N407 1.375 . S
C409 C411 1.350 . S
C409 H418 0.930 . S
N410 C408 1.347 . S
N410 C411 1.373 . S
C411 C409 1.350 . S
C411 N410 1.373 . S
C411 H425 0.931 . S
C412 O415 1.256 . S
C412 O416 1.255 . S
O413 Co396 2.021 1_565 S
O413 C406 1.259 . S
O414 Co398 2.117 . S
O414 C406 1.258 1_545 S
O415 Co398 2.020 . S
O415 C412 1.256 . S
O416 Co396 2.062 . S
O416 C412 1.255 . S
O417 C397 1.259 . S
O417 Co398 2.021 . S
H418 C409 0.930 . S
H419 C408 0.931 . S
O420 Co396 2.117 . S
O420 C397 1.258 . S
O421 Co396 2.020 . S
O421 C423 1.256 . S
O422 Co398 2.062 . S
O422 C423 1.255 . S
C423 O421 1.256 . S
C423 O422 1.255 . S
H424 C403 0.931 . S
H425 C411 0.931 . S
Co426 N431 2.057 . S
Co426 O443 2.021 . S
Co426 O446 2.062 . S
Co426 O450 2.117 . S
Co426 O451 2.020 . S
C427 O447 1.259 . S
C427 O450 1.258 . S
Co428 N437 2.057 . S
Co428 O444 2.117 . S
Co428 O445 2.020 . S
Co428 O447 2.021 . S
Co428 O452 2.062 . S
C429 N431 1.316 . S
C429 N432 1.347 . S
C429 H434 0.931 . S
C430 N431 1.375 . S
C430 C433 1.350 . S
C430 H435 0.930 . S
N431 Co426 2.057 . S
N431 C429 1.316 . S
N431 C430 1.375 . S
N432 C429 1.347 . S
N432 C433 1.373 . S
C433 C430 1.350 . S
C433 N432 1.373 . S
C433 H454 0.931 . S
H434 C429 0.931 . S
H435 C430 0.930 . S
C436 O443 1.259 . S
C436 O444 1.258 . S
N437 Co428 2.057 . S
N437 C438 1.316 . S
N437 C439 1.375 . S
C438 N437 1.316 . S
C438 N440 1.347 . S
C438 H449 0.931 . S
C439 N437 1.375 . S
C439 C441 1.350 . S
C439 H448 0.930 . S
N440 C438 1.347 . S
N440 C441 1.373 . S
C441 C439 1.350 . S
C441 N440 1.373 . S
C441 H455 0.931 . S
C442 O445 1.256 . S
C442 O446 1.255 . S
O443 Co426 2.021 . S
O443 C436 1.259 . S
O444 Co428 2.117 . S
O444 C436 1.258 . S
O445 Co428 2.020 . S
O445 C442 1.256 . S
O446 Co426 2.062 . S
O446 C442 1.255 . S
O447 C427 1.259 . S
O447 Co428 2.021 . S
H448 C439 0.930 . S
H449 C438 0.931 . S
O450 Co426 2.117 . S
O450 C427 1.258 . S
O451 Co426 2.020 . S
O451 C453 1.256 . S
O452 Co428 2.062 . S
O452 C453 1.255 . S
C453 O451 1.256 . S
C453 O452 1.255 . S
H454 C433 0.931 . S
H455 C441 0.931 . S
Co456 N461 2.057 1_545 S
Co456 O473 2.021 . S
Co456 O476 2.062 1_545 S
Co456 O480 2.117 . S
Co456 O481 2.020 1_455 S
C457 O477 1.259 . S
C457 O480 1.258 . S
Co458 N467 2.057 . S
Co458 O474 2.117 . S
Co458 O475 2.020 . S
Co458 O477 2.021 . S
Co458 O482 2.062 1_455 S
C459 N461 1.316 . S
C459 N462 1.347 . S
C459 H464 0.931 . S
C460 N461 1.375 1_655 S
C460 C463 1.350 . S
C460 H465 0.930 . S
N461 Co456 2.057 1_565 S
N461 C459 1.316 . S
N461 C460 1.375 1_455 S
N462 C459 1.347 . S
N462 C463 1.373 1_455 S
C463 C460 1.350 . S
C463 N462 1.373 1_655 S
C463 H484 0.931 . S
H464 C459 0.931 . S
H465 C460 0.930 . S
C466 O473 1.259 . S
C466 O474 1.258 . S
N467 Co458 2.057 . S
N467 C468 1.316 . S
N467 C469 1.375 . S
C468 N467 1.316 . S
C468 N470 1.347 . S
C468 H479 0.931 . S
C469 N467 1.375 . S
C469 C471 1.350 . S
C469 H478 0.930 . S
N470 C468 1.347 . S
N470 C471 1.373 . S
C471 C469 1.350 . S
C471 N470 1.373 . S
C471 H485 0.931 . S
C472 O475 1.256 . S
C472 O476 1.255 1_545 S
O473 Co456 2.021 . S
O473 C466 1.259 . S
O474 Co458 2.117 . S
O474 C466 1.258 . S
O475 Co458 2.020 . S
O475 C472 1.256 . S
O476 Co456 2.062 1_565 S
O476 C472 1.255 1_565 S
O477 C457 1.259 . S
O477 Co458 2.021 . S
H478 C469 0.930 . S
H479 C468 0.931 . S
O480 Co456 2.117 . S
O480 C457 1.258 . S
O481 Co456 2.020 1_655 S
O481 C483 1.256 . S
O482 Co458 2.062 1_655 S
O482 C483 1.255 . S
C483 O481 1.256 . S
C483 O482 1.255 . S
H484 C463 0.931 . S
H485 C471 0.931 . S
Co486 N491 2.057 . S
Co486 O503 2.021 . S
Co486 O506 2.062 . S
Co486 O510 2.117 . S
Co486 O511 2.020 . S
C487 O507 1.259 . S
C487 O510 1.258 . S
Co488 N497 2.057 . S
Co488 O504 2.117 . S
Co488 O505 2.020 . S
Co488 O507 2.021 . S
Co488 O512 2.062 . S
C489 N491 1.316 . S
C489 N492 1.347 . S
C489 H494 0.931 . S
C490 N491 1.375 . S
C490 C493 1.350 . S
C490 H495 0.930 . S
N491 Co486 2.057 . S
N491 C489 1.316 . S
N491 C490 1.375 . S
N492 C489 1.347 . S
N492 C493 1.373 . S
C493 C490 1.350 . S
C493 N492 1.373 . S
C493 H514 0.931 . S
H494 C489 0.931 . S
H495 C490 0.930 . S
C496 O503 1.259 . S
C496 O504 1.258 . S
N497 Co488 2.057 . S
N497 C498 1.316 . S
N497 C499 1.375 . S
C498 N497 1.316 . S
C498 N500 1.347 . S
C498 H509 0.931 . S
C499 N497 1.375 . S
C499 C501 1.350 . S
C499 H508 0.930 . S
N500 C498 1.347 . S
N500 C501 1.373 . S
C501 C499 1.350 . S
C501 N500 1.373 . S
C501 H515 0.931 . S
C502 O505 1.256 . S
C502 O506 1.255 . S
O503 Co486 2.021 . S
O503 C496 1.259 . S
O504 Co488 2.117 . S
O504 C496 1.258 . S
O505 Co488 2.020 . S
O505 C502 1.256 . S
O506 Co486 2.062 . S
O506 C502 1.255 . S
O507 C487 1.259 . S
O507 Co488 2.021 . S
H508 C499 0.930 . S
H509 C498 0.931 . S
O510 Co486 2.117 . S
O510 C487 1.258 . S
O511 Co486 2.020 . S
O511 C513 1.256 . S
O512 Co488 2.062 . S
O512 C513 1.255 . S
C513 O511 1.256 . S
C513 O512 1.255 . S
H514 C493 0.931 . S
H515 C501 0.931 . S
Co516 N521 2.057 1_554 S
Co516 O533 2.021 . S
Co516 O536 2.062 . S
Co516 O540 2.117 . S
Co516 O541 2.020 1_545 S
C517 O537 1.259 . S
C517 O540 1.258 . S
Co518 N527 2.057 . S
Co518 O534 2.117 . S
Co518 O535 2.020 . S
Co518 O537 2.021 . S
Co518 O542 2.062 . S
C519 N521 1.316 . S
C519 N522 1.347 . S
C519 H524 0.931 . S
C520 N521 1.375 . S
C520 C523 1.350 . S
C520 H525 0.928 . S
N521 Co516 2.057 1_556 S
N521 C519 1.316 . S
N521 C520 1.375 . S
N522 C519 1.347 . S
N522 C523 1.373 . S
C523 C520 1.350 . S
C523 N522 1.373 . S
C523 H544 0.931 1_545 S
H524 C519 0.931 . S
H525 C520 0.928 . S
C526 O533 1.259 . S
C526 O534 1.258 . S
N527 Co518 2.057 . S
N527 C528 1.316 . S
N527 C529 1.375 . S
C528 N527 1.316 . S
C528 N530 1.347 . S
C528 H539 0.931 . S
C529 N527 1.375 . S
C529 C531 1.350 . S
C529 H538 0.930 . S
N530 C528 1.347 . S
N530 C531 1.373 . S
C531 C529 1.350 . S
C531 N530 1.373 . S
C531 H545 0.931 . S
C532 O535 1.256 . S
C532 O536 1.255 . S
O533 Co516 2.021 . S
O533 C526 1.259 . S
O534 Co518 2.117 . S
O534 C526 1.258 . S
O535 Co518 2.020 . S
O535 C532 1.256 . S
O536 Co516 2.062 . S
O536 C532 1.255 . S
O537 C517 1.259 . S
O537 Co518 2.021 . S
H538 C529 0.930 . S
H539 C528 0.931 . S
O540 Co516 2.117 . S
O540 C517 1.258 . S
O541 Co516 2.020 1_565 S
O541 C543 1.256 . S
O542 Co518 2.062 . S
O542 C543 1.255 1_545 S
C543 O541 1.256 . S
C543 O542 1.255 1_565 S
H544 C523 0.931 1_565 S
H545 C531 0.931 . S
Co546 N551 2.057 . S
Co546 O563 2.021 . S
Co546 O566 2.062 . S
Co546 O570 2.117 . S
Co546 O571 2.020 . S
C547 O567 1.259 . S
C547 O570 1.258 . S
Co548 N557 2.057 . S
Co548 O564 2.117 . S
Co548 O565 2.020 . S
Co548 O567 2.021 . S
Co548 O572 2.062 . S
C549 N551 1.316 . S
C549 N552 1.347 . S
C549 H554 0.931 . S
C550 N551 1.375 . S
C550 C553 1.350 . S
C550 H555 0.930 . S
N551 Co546 2.057 . S
N551 C549 1.316 . S
N551 C550 1.375 . S
N552 C549 1.347 . S
N552 C553 1.373 . S
C553 C550 1.350 . S
C553 N552 1.373 . S
C553 H574 0.931 . S
H554 C549 0.931 . S
H555 C550 0.930 . S
C556 O563 1.259 . S
C556 O564 1.258 . S
N557 Co548 2.057 . S
N557 C558 1.316 . S
N557 C559 1.375 . S
C558 N557 1.316 . S
C558 N560 1.347 . S
C558 H569 0.931 . S
C559 N557 1.375 . S
C559 C561 1.350 . S
C559 H568 0.930 . S
N560 C558 1.347 . S
N560 C561 1.373 . S
C561 C559 1.350 . S
C561 N560 1.373 . S
C561 H575 0.931 . S
C562 O565 1.256 . S
C562 O566 1.255 . S
O563 Co546 2.021 . S
O563 C556 1.259 . S
O564 Co548 2.117 . S
O564 C556 1.258 . S
O565 Co548 2.020 . S
O565 C562 1.256 . S
O566 Co546 2.062 . S
O566 C562 1.255 . S
O567 C547 1.259 . S
O567 Co548 2.021 . S
H568 C559 0.930 . S
H569 C558 0.931 . S
O570 Co546 2.117 . S
O570 C547 1.258 . S
O571 Co546 2.020 . S
O571 C573 1.256 . S
O572 Co548 2.062 . S
O572 C573 1.255 . S
C573 O571 1.256 . S
C573 O572 1.255 . S
H574 C553 0.931 . S
H575 C561 0.931 . S
Co576 N581 2.057 . S
Co576 O593 2.021 1_554 S
Co576 O596 2.062 . S
Co576 O600 2.117 . S
Co576 O601 2.020 . S
C577 O597 1.259 . S
C577 O600 1.258 . S
Co578 N587 2.057 . S
Co578 O594 2.117 . S
Co578 O595 2.020 . S
Co578 O597 2.021 . S
Co578 O602 2.062 . S
C579 N581 1.316 . S
C579 N582 1.347 . S
C579 H584 0.931 1_554 S
C580 N581 1.375 . S
C580 C583 1.350 . S
C580 H585 0.930 . S
N581 Co576 2.057 . S
N581 C579 1.316 . S
N581 C580 1.375 . S
N582 C579 1.347 . S
N582 C583 1.373 . S
C583 C580 1.350 . S
C583 N582 1.373 . S
C583 H604 0.931 . S
H584 C579 0.931 1_556 S
H585 C580 0.930 . S
C586 O593 1.259 . S
C586 O594 1.258 1_556 S
N587 Co578 2.057 . S
N587 C588 1.316 . S
N587 C589 1.375 . S
C588 N587 1.316 . S
C588 N590 1.347 . S
C588 H599 0.931 . S
C589 N587 1.375 . S
C589 C591 1.350 . S
C589 H598 0.930 . S
N590 C588 1.347 . S
N590 C591 1.373 . S
C591 C589 1.350 . S
C591 N590 1.373 . S
C591 H605 0.931 . S
C592 O595 1.256 . S
C592 O596 1.255 . S
O593 Co576 2.021 1_556 S
O593 C586 1.259 . S
O594 Co578 2.117 . S
O594 C586 1.258 1_554 S
O595 Co578 2.020 . S
O595 C592 1.256 . S
O596 Co576 2.062 . S
O596 C592 1.255 . S
O597 C577 1.259 . S
O597 Co578 2.021 . S
H598 C589 0.930 . S
H599 C588 0.931 . S
O600 Co576 2.117 . S
O600 C577 1.258 . S
O601 Co576 2.020 . S
O601 C603 1.256 . S
O602 Co578 2.062 . S
O602 C603 1.255 . S
C603 O601 1.256 . S
C603 O602 1.255 . S
H604 C583 0.931 . S
H605 C591 0.931 . S
Co606 N611 2.057 . S
Co606 O623 2.021 . S
Co606 O626 2.062 . S
Co606 O630 2.117 . S
Co606 O631 2.020 . S
C607 O627 1.259 . S
C607 O630 1.258 . S
Co608 N617 2.057 . S
Co608 O624 2.117 . S
Co608 O625 2.020 . S
Co608 O627 2.021 . S
Co608 O632 2.062 . S
C609 N611 1.316 . S
C609 N612 1.347 . S
C609 H614 0.931 . S
C610 N611 1.375 . S
C610 C613 1.350 . S
C610 H615 0.930 . S
N611 Co606 2.057 . S
N611 C609 1.316 . S
N611 C610 1.375 . S
N612 C609 1.347 . S
N612 C613 1.373 . S
C613 C610 1.350 . S
C613 N612 1.373 . S
C613 H634 0.931 . S
H614 C609 0.931 . S
H615 C610 0.930 . S
C616 O623 1.259 . S
C616 O624 1.258 . S
N617 Co608 2.057 . S
N617 C618 1.316 . S
N617 C619 1.375 . S
C618 N617 1.316 . S
C618 N620 1.347 . S
C618 H629 0.931 . S
C619 N617 1.375 . S
C619 C621 1.350 . S
C619 H628 0.930 . S
N620 C618 1.347 . S
N620 C621 1.373 . S
C621 C619 1.350 . S
C621 N620 1.373 . S
C621 H635 0.931 . S
C622 O625 1.256 . S
C622 O626 1.255 . S
O623 Co606 2.021 . S
O623 C616 1.259 . S
O624 Co608 2.117 . S
O624 C616 1.258 . S
O625 Co608 2.020 . S
O625 C622 1.256 . S
O626 Co606 2.062 . S
O626 C622 1.255 . S
O627 C607 1.259 . S
O627 Co608 2.021 . S
H628 C619 0.930 . S
H629 C618 0.931 . S
O630 Co606 2.117 . S
O630 C607 1.258 . S
O631 Co606 2.020 . S
O631 C633 1.256 . S
O632 Co608 2.062 . S
O632 C633 1.255 . S
C633 O631 1.256 . S
C633 O632 1.255 . S
H634 C613 0.931 . S
H635 C621 0.931 . S
Co636 N641 2.057 . S
Co636 O653 2.021 1_455 S
Co636 O656 2.062 . S
Co636 O660 2.117 . S
Co636 O661 2.020 . S
C637 O657 1.259 . S
C637 O660 1.258 . S
Co638 N647 2.057 . S
Co638 O654 2.117 . S
Co638 O655 2.020 . S
Co638 O657 2.021 . S
Co638 O662 2.062 . S
C639 N641 1.316 . S
C639 N642 1.347 . S
C639 H644 0.931 1_455 S
C640 N641 1.375 . S
C640 C643 1.350 . S
C640 H645 0.930 . S
N641 Co636 2.057 . S
N641 C639 1.316 . S
N641 C640 1.375 . S
N642 C639 1.347 . S
N642 C643 1.373 . S
C643 C640 1.350 . S
C643 N642 1.373 . S
C643 H664 0.931 . S
H644 C639 0.931 1_655 S
H645 C640 0.930 . S
C646 O653 1.259 . S
C646 O654 1.258 1_655 S
N647 Co638 2.057 . S
N647 C648 1.316 . S
N647 C649 1.375 . S
C648 N647 1.316 . S
C648 N650 1.347 . S
C648 H659 0.931 . S
C649 N647 1.375 . S
C649 C651 1.350 . S
C649 H658 0.930 . S
N650 C648 1.347 . S
N650 C651 1.373 . S
C651 C649 1.350 . S
C651 N650 1.373 . S
C651 H665 0.931 . S
C652 O655 1.256 . S
C652 O656 1.255 . S
O653 Co636 2.021 1_655 S
O653 C646 1.259 . S
O654 Co638 2.117 . S
O654 C646 1.258 1_455 S
O655 Co638 2.020 . S
O655 C652 1.256 . S
O656 Co636 2.062 . S
O656 C652 1.255 . S
O657 C637 1.259 . S
O657 Co638 2.021 . S
H658 C649 0.930 . S
H659 C648 0.931 . S
O660 Co636 2.117 . S
O660 C637 1.258 . S
O661 Co636 2.020 . S
O661 C663 1.256 . S
O662 Co638 2.062 . S
O662 C663 1.255 . S
C663 O661 1.256 . S
C663 O662 1.255 . S
H664 C643 0.931 . S
H665 C651 0.931 . S
Co666 N671 2.057 . S
Co666 O683 2.021 . S
Co666 O686 2.062 . S
Co666 O690 2.117 . S
Co666 O691 2.020 . S
C667 O687 1.259 . S
C667 O690 1.258 . S
Co668 N677 2.057 . S
Co668 O684 2.117 . S
Co668 O685 2.020 . S
Co668 O687 2.021 . S
Co668 O692 2.062 . S
C669 N671 1.316 . S
C669 N672 1.347 . S
C669 H674 0.931 . S
C670 N671 1.375 . S
C670 C673 1.350 . S
C670 H675 0.930 . S
N671 Co666 2.057 . S
N671 C669 1.316 . S
N671 C670 1.375 . S
N672 C669 1.347 . S
N672 C673 1.373 . S
C673 C670 1.350 . S
C673 N672 1.373 . S
C673 H694 0.931 . S
H674 C669 0.931 . S
H675 C670 0.930 . S
C676 O683 1.259 . S
C676 O684 1.258 . S
N677 Co668 2.057 . S
N677 C678 1.316 . S
N677 C679 1.375 . S
C678 N677 1.316 . S
C678 N680 1.347 . S
C678 H689 0.931 . S
C679 N677 1.375 . S
C679 C681 1.350 . S
C679 H688 0.930 . S
N680 C678 1.347 . S
N680 C681 1.373 . S
C681 C679 1.350 . S
C681 N680 1.373 . S
C681 H695 0.931 . S
C682 O685 1.256 . S
C682 O686 1.255 . S
O683 Co666 2.021 . S
O683 C676 1.259 . S
O684 Co668 2.117 . S
O684 C676 1.258 . S
O685 Co668 2.020 . S
O685 C682 1.256 . S
O686 Co666 2.062 . S
O686 C682 1.255 . S
O687 C667 1.259 . S
O687 Co668 2.021 . S
H688 C679 0.930 . S
H689 C678 0.931 . S
O690 Co666 2.117 . S
O690 C667 1.258 . S
O691 Co666 2.020 . S
O691 C693 1.256 . S
O692 Co668 2.062 . S
O692 C693 1.255 . S
C693 O691 1.256 . S
C693 O692 1.255 . S
H694 C673 0.931 . S
H695 C681 0.931 . S
Co696 N701 2.057 . S
Co696 O713 2.021 . S
Co696 O716 2.062 . S
Co696 O720 2.117 . S
Co696 O721 2.020 . S
C697 O717 1.259 . S
C697 O720 1.258 . S
Co698 N707 2.057 . S
Co698 O714 2.117 . S
Co698 O715 2.020 . S
Co698 O717 2.021 . S
Co698 O722 2.062 . S
C699 N701 1.316 . S
C699 N702 1.347 . S
C699 H704 0.931 . S
C700 N701 1.375 . S
C700 C703 1.350 . S
C700 H705 0.930 . S
N701 Co696 2.057 . S
N701 C699 1.316 . S
N701 C700 1.375 . S
N702 C699 1.347 . S
N702 C703 1.373 . S
C703 C700 1.350 . S
C703 N702 1.373 . S
C703 H724 0.931 . S
H704 C699 0.931 . S
H705 C700 0.930 . S
C706 O713 1.259 . S
C706 O714 1.258 . S
N707 Co698 2.057 . S
N707 C708 1.316 . S
N707 C709 1.375 . S
C708 N707 1.316 . S
C708 N710 1.347 . S
C708 H719 0.931 . S
C709 N707 1.375 . S
C709 C711 1.350 . S
C709 H718 0.930 . S
N710 C708 1.347 . S
N710 C711 1.373 . S
C711 C709 1.350 . S
C711 N710 1.373 . S
C711 H725 0.931 . S
C712 O715 1.256 . S
C712 O716 1.255 . S
O713 Co696 2.021 . S
O713 C706 1.259 . S
O714 Co698 2.117 . S
O714 C706 1.258 . S
O715 Co698 2.020 . S
O715 C712 1.256 . S
O716 Co696 2.062 . S
O716 C712 1.255 . S
O717 C697 1.259 . S
O717 Co698 2.021 . S
H718 C709 0.930 . S
H719 C708 0.931 . S
O720 Co696 2.117 . S
O720 C697 1.258 . S
O721 Co696 2.020 . S
O721 C723 1.256 . S
O722 Co698 2.062 . S
O722 C723 1.255 . S
C723 O721 1.256 . S
C723 O722 1.255 . S
H724 C703 0.931 . S
H725 C711 0.931 . S
Co726 N731 2.057 . S
Co726 O743 2.021 . S
Co726 O746 2.062 . S
Co726 O750 2.117 . S
Co726 O751 2.020 . S
C727 O747 1.259 . S
C727 O750 1.258 . S
Co728 N737 2.057 . S
Co728 O744 2.117 . S
Co728 O745 2.020 . S
Co728 O747 2.021 . S
Co728 O752 2.062 . S
C729 N731 1.316 . S
C729 N732 1.347 . S
C729 H734 0.931 . S
C730 N731 1.375 . S
C730 C733 1.350 . S
C730 H735 0.930 . S
N731 Co726 2.057 . S
N731 C729 1.316 . S
N731 C730 1.375 . S
N732 C729 1.347 . S
N732 C733 1.373 . S
C733 C730 1.350 . S
C733 N732 1.373 . S
C733 H754 0.931 . S
H734 C729 0.931 . S
H735 C730 0.930 . S
C736 O743 1.259 . S
C736 O744 1.258 . S
N737 Co728 2.057 . S
N737 C738 1.316 . S
N737 C739 1.375 . S
C738 N737 1.316 . S
C738 N740 1.347 . S
C738 H749 0.931 . S
C739 N737 1.375 . S
C739 C741 1.350 . S
C739 H748 0.930 . S
N740 C738 1.347 . S
N740 C741 1.373 . S
C741 C739 1.350 . S
C741 N740 1.373 . S
C741 H755 0.931 . S
C742 O745 1.256 . S
C742 O746 1.255 . S
O743 Co726 2.021 . S
O743 C736 1.259 . S
O744 Co728 2.117 . S
O744 C736 1.258 . S
O745 Co728 2.020 . S
O745 C742 1.256 . S
O746 Co726 2.062 . S
O746 C742 1.255 . S
O747 C727 1.259 . S
O747 Co728 2.021 . S
H748 C739 0.930 . S
H749 C738 0.931 . S
O750 Co726 2.117 . S
O750 C727 1.258 . S
O751 Co726 2.020 . S
O751 C753 1.256 . S
O752 Co728 2.062 . S
O752 C753 1.255 . S
C753 O751 1.256 . S
C753 O752 1.255 . S
H754 C733 0.931 . S
H755 C741 0.931 . S
Co756 N761 2.057 . S
Co756 O773 2.021 . S
Co756 O776 2.062 . S
Co756 O780 2.117 . S
Co756 O781 2.020 . S
C757 O777 1.259 . S
C757 O780 1.258 . S
Co758 N767 2.057 . S
Co758 O774 2.117 . S
Co758 O775 2.020 . S
Co758 O777 2.021 . S
Co758 O782 2.062 . S
C759 N761 1.316 . S
C759 N762 1.347 . S
C759 H764 0.931 . S
C760 N761 1.375 . S
C760 C763 1.350 . S
C760 H765 0.930 . S
N761 Co756 2.057 . S
N761 C759 1.316 . S
N761 C760 1.375 . S
N762 C759 1.347 . S
N762 C763 1.373 . S
C763 C760 1.350 . S
C763 N762 1.373 . S
C763 H784 0.931 . S
H764 C759 0.931 . S
H765 C760 0.930 . S
C766 O773 1.259 . S
C766 O774 1.258 . S
N767 Co758 2.057 . S
N767 C768 1.316 . S
N767 C769 1.375 . S
C768 N767 1.316 . S
C768 N770 1.347 . S
C768 H779 0.931 . S
C769 N767 1.375 . S
C769 C771 1.350 . S
C769 H778 0.930 . S
N770 C768 1.347 . S
N770 C771 1.373 . S
C771 C769 1.350 . S
C771 N770 1.373 . S
C771 H785 0.931 . S
C772 O775 1.256 . S
C772 O776 1.255 . S
O773 Co756 2.021 . S
O773 C766 1.259 . S
O774 Co758 2.117 . S
O774 C766 1.258 . S
O775 Co758 2.020 . S
O775 C772 1.256 . S
O776 Co756 2.062 . S
O776 C772 1.255 . S
O777 C757 1.259 . S
O777 Co758 2.021 . S
H778 C769 0.930 . S
H779 C768 0.931 . S
O780 Co756 2.117 . S
O780 C757 1.258 . S
O781 Co756 2.020 . S
O781 C783 1.256 . S
O782 Co758 2.062 . S
O782 C783 1.255 . S
C783 O781 1.256 . S
C783 O782 1.255 . S
H784 C763 0.931 . S
H785 C771 0.931 . S
Co786 N791 2.057 1_455 S
Co786 O803 2.021 . S
Co786 O806 2.062 . S
Co786 O810 2.117 . S
Co786 O811 2.020 1_554 S
C787 O807 1.259 . S
C787 O810 1.258 . S
Co788 N797 2.057 . S
Co788 O804 2.117 . S
Co788 O805 2.020 . S
Co788 O807 2.021 . S
Co788 O812 2.062 . S
C789 N791 1.316 . S
C789 N792 1.347 . S
C789 H794 0.931 . S
C790 N791 1.375 . S
C790 C793 1.350 . S
C790 H795 0.930 . S
N791 Co786 2.057 1_655 S
N791 C789 1.316 . S
N791 C790 1.375 . S
N792 C789 1.347 . S
N792 C793 1.373 . S
C793 C790 1.350 . S
C793 N792 1.373 . S
C793 H814 0.931 . S
H794 C789 0.931 . S
H795 C790 0.930 . S
C796 O803 1.259 . S
C796 O804 1.258 . S
N797 Co788 2.057 . S
N797 C798 1.316 . S
N797 C799 1.375 . S
C798 N797 1.316 . S
C798 N800 1.347 . S
C798 H809 0.931 . S
C799 N797 1.375 . S
C799 C801 1.350 . S
C799 H808 0.930 . S
N800 C798 1.347 . S
N800 C801 1.373 . S
C801 C799 1.350 . S
C801 N800 1.373 . S
C801 H815 0.931 . S
C802 O805 1.256 . S
C802 O806 1.255 . S
O803 Co786 2.021 . S
O803 C796 1.259 . S
O804 Co788 2.117 . S
O804 C796 1.258 . S
O805 Co788 2.020 . S
O805 C802 1.256 . S
O806 Co786 2.062 . S
O806 C802 1.255 . S
O807 C787 1.259 . S
O807 Co788 2.021 . S
H808 C799 0.930 . S
H809 C798 0.931 . S
O810 Co786 2.117 . S
O810 C787 1.258 . S
O811 Co786 2.020 1_556 S
O811 C813 1.256 . S
O812 Co788 2.062 . S
O812 C813 1.255 1_554 S
C813 O811 1.256 . S
C813 O812 1.255 1_556 S
H814 C793 0.931 . S
H815 C801 0.931 . S
H816 C822 0.930 . S
H817 C825 0.930 . S
H818 C826 0.930 . S
H819 C827 0.930 . S
H820 C830 0.930 1_655 S
H821 C831 0.930 1_655 S
C822 H816 0.930 . S
C822 C823 1.355 . S
C822 C824 1.415 . S
C823 C822 1.355 . S
C823 C825 1.419 . S
C824 C822 1.415 . S
C824 C829 1.425 . S
C824 C831 1.409 . S
C825 H817 0.930 . S
C825 C823 1.419 . S
C825 C826 1.362 . S
C826 H818 0.930 . S
C826 C825 1.362 . S
C826 C829 1.409 . S
C827 H819 0.930 . S
C827 C828 1.355 . S
C827 C829 1.415 . S
C828 C827 1.355 . S
C828 C830 1.419 . S
C829 C824 1.425 . S
C829 C826 1.409 . S
C829 C827 1.415 . S
C830 H820 0.930 1_455 S
C830 C828 1.419 . S
C830 C831 1.362 . S
C831 H821 0.930 1_455 S
C831 C824 1.409 . S
C831 C830 1.362 . S
H832 C838 0.930 . S
H833 C841 0.930 . S
H834 C842 0.930 . S
H835 C843 0.930 . S
H836 C846 0.930 . S
H837 C847 0.930 . S
C838 H832 0.930 . S
C838 C839 1.355 . S
C838 C840 1.415 . S
C839 C838 1.355 . S
C839 C841 1.419 . S
C840 C838 1.415 . S
C840 C845 1.425 . S
C840 C847 1.409 . S
C841 H833 0.930 . S
C841 C839 1.419 . S
C841 C842 1.362 . S
C842 H834 0.930 . S
C842 C841 1.362 . S
C842 C845 1.409 . S
C843 H835 0.930 . S
C843 C844 1.355 . S
C843 C845 1.415 . S
C844 C843 1.355 . S
C844 C846 1.419 . S
C845 C840 1.425 . S
C845 C842 1.409 . S
C845 C843 1.415 . S
C846 H836 0.930 . S
C846 C844 1.419 . S
C846 C847 1.362 . S
C847 H837 0.930 . S
C847 C840 1.409 . S
C847 C846 1.362 . S
H848 C854 0.930 . S
H849 C857 0.930 . S
H850 C858 0.930 . S
H851 C859 0.930 . S
H852 C862 0.930 . S
H853 C863 0.930 . S
C854 H848 0.930 . S
C854 C855 1.355 . S
C854 C856 1.415 . S
C855 C854 1.355 . S
C855 C857 1.419 . S
C856 C854 1.415 . S
C856 C861 1.425 . S
C856 C863 1.409 . S
C857 H849 0.930 . S
C857 C855 1.419 . S
C857 C858 1.362 . S
C858 H850 0.930 . S
C858 C857 1.362 . S
C858 C861 1.409 . S
C859 H851 0.930 . S
C859 C860 1.355 . S
C859 C861 1.415 . S
C860 C859 1.355 . S
C860 C862 1.419 . S
C861 C856 1.425 . S
C861 C858 1.409 . S
C861 C859 1.415 . S
C862 H852 0.930 . S
C862 C860 1.419 . S
C862 C863 1.362 . S
C863 H853 0.930 . S
C863 C856 1.409 . S
C863 C862 1.362 . S
H864 C870 0.930 . S
H865 C873 0.930 . S
H866 C874 0.930 . S
H867 C875 0.930 . S
H868 C878 0.930 . S
H869 C879 0.930 . S
C870 H864 0.930 . S
C870 C871 1.355 . S
C870 C872 1.415 . S
C871 C870 1.355 . S
C871 C873 1.419 . S
C872 C870 1.415 . S
C872 C877 1.425 . S
C872 C879 1.409 . S
C873 H865 0.930 . S
C873 C871 1.419 . S
C873 C874 1.362 . S
C874 H866 0.930 . S
C874 C873 1.362 . S
C874 C877 1.409 . S
C875 H867 0.930 . S
C875 C876 1.355 . S
C875 C877 1.415 . S
C876 C875 1.355 . S
C876 C878 1.419 . S
C877 C872 1.425 . S
C877 C874 1.409 . S
C877 C875 1.415 . S
C878 H868 0.930 . S
C878 C876 1.419 . S
C878 C879 1.362 . S
C879 H869 0.930 . S
C879 C872 1.409 . S
C879 C878 1.362 . S
H880 C886 0.930 . S
H881 C889 0.930 . S
H882 C890 0.931 1_655 S
H883 C891 0.930 1_655 S
H884 C894 0.930 . S
H885 C895 0.930 . S
C886 H880 0.930 . S
C886 C887 1.355 . S
C886 C888 1.415 . S
C887 C886 1.355 . S
C887 C889 1.419 . S
C888 C886 1.415 . S
C888 C893 1.425 . S
C888 C895 1.409 . S
C889 H881 0.930 . S
C889 C887 1.419 . S
C889 C890 1.362 . S
C890 H882 0.931 1_455 S
C890 C889 1.362 . S
C890 C893 1.409 . S
C891 H883 0.930 1_455 S
C891 C892 1.355 . S
C891 C893 1.415 . S
C892 C891 1.355 . S
C892 C894 1.419 . S
C893 C888 1.425 . S
C893 C890 1.409 . S
C893 C891 1.415 . S
C894 H884 0.930 . S
C894 C892 1.419 . S
C894 C895 1.362 . S
C895 H885 0.930 . S
C895 C888 1.409 . S
C895 C894 1.362 . S
H896 C902 0.930 . S
H897 C905 0.930 . S
H898 C906 0.930 . S
H899 C907 0.930 . S
H900 C910 0.930 . S
H901 C911 0.930 . S
C902 H896 0.930 . S
C902 C903 1.355 . S
C902 C904 1.415 . S
C903 C902 1.355 . S
C903 C905 1.419 . S
C904 C902 1.415 . S
C904 C909 1.425 . S
C904 C911 1.409 . S
C905 H897 0.930 . S
C905 C903 1.419 . S
C905 C906 1.362 . S
C906 H898 0.930 . S
C906 C905 1.362 . S
C906 C909 1.409 . S
C907 H899 0.930 . S
C907 C908 1.355 . S
C907 C909 1.415 . S
C908 C907 1.355 . S
C908 C910 1.419 . S
C909 C904 1.425 . S
C909 C906 1.409 . S
C909 C907 1.415 . S
C910 H900 0.930 . S
C910 C908 1.419 . S
C910 C911 1.362 . S
C911 H901 0.930 . S
C911 C904 1.409 . S
C911 C910 1.362 . S
H912 C918 0.930 . S
H913 C921 0.930 . S
H914 C922 0.930 . S
H915 C923 0.930 1_554 S
H916 C926 0.918 1_554 S
H917 C927 0.930 . S
C918 H912 0.930 . S
C918 C919 1.355 . S
C918 C920 1.415 . S
C919 C918 1.355 . S
C919 C921 1.419 . S
C920 C918 1.415 . S
C920 C925 1.425 . S
C920 C927 1.409 . S
C921 H913 0.930 . S
C921 C919 1.419 . S
C921 C922 1.362 . S
C922 H914 0.930 . S
C922 C921 1.362 . S
C922 C925 1.409 . S
C923 H915 0.930 1_556 S
C923 C924 1.355 1_556 S
C923 C925 1.415 . S
C924 C923 1.355 1_554 S
C924 C926 1.412 1_554 S
C925 C920 1.425 . S
C925 C922 1.409 . S
C925 C923 1.415 . S
C926 H916 0.918 1_556 S
C926 C924 1.412 1_556 S
C926 C927 1.381 . S
C927 H917 0.930 . S
C927 C920 1.409 . S
C927 C926 1.381 . S
H928 C934 0.930 . S
H929 C937 0.930 . S
H930 C938 0.930 . S
H931 C939 0.930 . S
H932 C942 0.930 . S
H933 C943 0.930 . S
C934 H928 0.930 . S
C934 C935 1.355 . S
C934 C936 1.415 . S
C935 C934 1.355 . S
C935 C937 1.419 . S
C936 C934 1.415 . S
C936 C941 1.425 . S
C936 C943 1.409 . S
C937 H929 0.930 . S
C937 C935 1.419 . S
C937 C938 1.362 . S
C938 H930 0.930 . S
C938 C937 1.362 . S
C938 C941 1.409 . S
C939 H931 0.930 . S
C939 C940 1.355 . S
C939 C941 1.415 . S
C940 C939 1.355 . S
C940 C942 1.419 . S
C941 C936 1.425 . S
C941 C938 1.409 . S
C941 C939 1.415 . S
C942 H932 0.930 . S
C942 C940 1.419 . S
C942 C943 1.362 . S
C943 H933 0.930 . S
C943 C936 1.409 . S
C943 C942 1.362 . S
H944 C950 0.930 . S
H945 C953 0.930 . S
H946 C954 0.930 . S
H947 C955 0.930 . S
H948 C958 0.930 . S
H949 C959 0.930 . S
C950 H944 0.930 . S
C950 C951 1.355 . S
C950 C952 1.415 . S
C951 C950 1.355 . S
C951 C953 1.419 1_545 S
C952 C950 1.415 . S
C952 C957 1.425 1_545 S
C952 C959 1.409 . S
C953 H945 0.930 . S
C953 C951 1.419 1_565 S
C953 C954 1.362 . S
C954 H946 0.930 . S
C954 C953 1.362 . S
C954 C957 1.409 . S
C955 H947 0.930 . S
C955 C956 1.355 . S
C955 C957 1.415 . S
C956 C955 1.355 . S
C956 C958 1.419 1_565 S
C957 C952 1.425 1_565 S
C957 C954 1.409 . S
C957 C955 1.415 . S
C958 H948 0.930 . S
C958 C956 1.419 1_545 S
C958 C959 1.362 . S
C959 H949 0.930 . S
C959 C952 1.409 . S
C959 C958 1.362 . S
H960 C966 0.930 . S
H961 C969 0.930 . S
H962 C970 0.930 . S
H963 C971 0.930 . S
H964 C974 0.930 . S
H965 C975 0.930 . S
C966 H960 0.930 . S
C966 C967 1.355 . S
C966 C968 1.415 . S
C967 C966 1.355 . S
C967 C969 1.419 . S
C968 C966 1.415 . S
C968 C973 1.425 . S
C968 C975 1.409 . S
C969 H961 0.930 . S
C969 C967 1.419 . S
C969 C970 1.362 . S
C970 H962 0.930 . S
C970 C969 1.362 . S
C970 C973 1.409 . S
C971 H963 0.930 . S
C971 C972 1.355 . S
C971 C973 1.415 . S
C972 C971 1.355 . S
C972 C974 1.419 . S
C973 C968 1.425 . S
C973 C970 1.409 . S
C973 C971 1.415 . S
C974 H964 0.930 . S
C974 C972 1.419 . S
C974 C975 1.362 . S
C975 H965 0.930 . S
C975 C968 1.409 . S
C975 C974 1.362 . S
H976 C982 0.930 . S
H977 C985 0.930 . S
H978 C986 0.930 . S
H979 C987 0.930 . S
H980 C990 0.930 . S
H981 C991 0.930 . S
C982 H976 0.930 . S
C982 C983 1.355 . S
C982 C984 1.415 . S
C983 C982 1.355 . S
C983 C985 1.419 . S
C984 C982 1.415 . S
C984 C989 1.425 . S
C984 C991 1.409 . S
C985 H977 0.930 . S
C985 C983 1.419 . S
C985 C986 1.362 . S
C986 H978 0.930 . S
C986 C985 1.362 . S
C986 C989 1.409 . S
C987 H979 0.930 . S
C987 C988 1.355 . S
C987 C989 1.415 . S
C988 C987 1.355 . S
C988 C990 1.419 . S
C989 C984 1.425 . S
C989 C986 1.409 . S
C989 C987 1.415 . S
C990 H980 0.930 . S
C990 C988 1.419 . S
C990 C991 1.362 . S
C991 H981 0.930 . S
C991 C984 1.409 . S
C991 C990 1.362 . S
H992 C998 0.930 . S
H993 C1001 0.930 . S
H994 C1002 0.930 . S
H995 C1003 0.930 . S
H996 C1006 0.930 . S
H997 C1007 0.930 . S
C998 H992 0.930 . S
C998 C999 1.355 . S
C998 C1000 1.415 . S
C999 C998 1.355 . S
C999 C1001 1.419 . S
C1000 C998 1.415 . S
C1000 C1005 1.425 . S
C1000 C1007 1.409 . S
C1001 H993 0.930 . S
C1001 C999 1.419 . S
C1001 C1002 1.362 . S
C1002 H994 0.930 . S
C1002 C1001 1.362 . S
C1002 C1005 1.409 . S
C1003 H995 0.930 . S
C1003 C1004 1.355 . S
C1003 C1005 1.415 . S
C1004 C1003 1.355 . S
C1004 C1006 1.419 . S
C1005 C1000 1.425 . S
C1005 C1002 1.409 . S
C1005 C1003 1.415 . S
C1006 H996 0.930 . S
C1006 C1004 1.419 . S
C1006 C1007 1.362 . S
C1007 H997 0.930 . S
C1007 C1000 1.409 . S
C1007 C1006 1.362 . S
H1008 C1014 0.930 . S
H1009 C1017 0.930 . S
H1010 C1018 0.930 . S
H1011 C1019 0.930 . S
H1012 C1022 0.930 . S
H1013 C1023 0.930 . S
C1014 H1008 0.930 . S
C1014 C1015 1.355 . S
C1014 C1016 1.415 . S
C1015 C1014 1.355 . S
C1015 C1017 1.419 . S
C1016 C1014 1.415 . S
C1016 C1021 1.425 . S
C1016 C1023 1.409 . S
C1017 H1009 0.930 . S
C1017 C1015 1.419 . S
C1017 C1018 1.362 . S
C1018 H1010 0.930 . S
C1018 C1017 1.362 . S
C1018 C1021 1.409 . S
C1019 H1011 0.930 . S
C1019 C1020 1.355 . S
C1019 C1021 1.415 . S
C1020 C1019 1.355 . S
C1020 C1022 1.419 . S
C1021 C1016 1.425 . S
C1021 C1018 1.409 . S
C1021 C1019 1.415 . S
C1022 H1012 0.930 . S
C1022 C1020 1.419 . S
C1022 C1023 1.362 . S
C1023 H1013 0.930 . S
C1023 C1016 1.409 . S
C1023 C1022 1.362 . S
H1024 C1030 0.930 . S
H1025 C1033 0.930 . S
H1026 C1034 0.930 . S
H1027 C1035 0.930 . S
H1028 C1038 0.930 . S
H1029 C1039 0.930 . S
C1030 H1024 0.930 . S
C1030 C1031 1.355 . S
C1030 C1032 1.415 . S
C1031 C1030 1.355 . S
C1031 C1033 1.419 . S
C1032 C1030 1.415 . S
C1032 C1037 1.425 . S
C1032 C1039 1.409 . S
C1033 H1025 0.930 . S
C1033 C1031 1.419 . S
C1033 C1034 1.362 . S
C1034 H1026 0.930 . S
C1034 C1033 1.362 . S
C1034 C1037 1.409 . S
C1035 H1027 0.930 . S
C1035 C1036 1.355 . S
C1035 C1037 1.415 . S
C1036 C1035 1.355 . S
C1036 C1038 1.419 . S
C1037 C1032 1.425 . S
C1037 C1034 1.409 . S
C1037 C1035 1.415 . S
C1038 H1028 0.930 . S
C1038 C1036 1.419 . S
C1038 C1039 1.362 . S
C1039 H1029 0.930 . S
C1039 C1032 1.409 . S
C1039 C1038 1.362 . S
H1040 C1046 0.930 . S
H1041 C1049 0.930 . S
H1042 C1050 0.930 . S
H1043 C1051 0.930 . S
H1044 C1054 0.930 . S
H1045 C1055 0.930 . S
C1046 H1040 0.930 . S
C1046 C1047 1.355 . S
C1046 C1048 1.415 . S
C1047 C1046 1.355 . S
C1047 C1049 1.419 . S
C1048 C1046 1.415 . S
C1048 C1053 1.425 . S
C1048 C1055 1.409 . S
C1049 H1041 0.930 . S
C1049 C1047 1.419 . S
C1049 C1050 1.362 . S
C1050 H1042 0.930 . S
C1050 C1049 1.362 . S
C1050 C1053 1.409 . S
C1051 H1043 0.930 . S
C1051 C1052 1.355 . S
C1051 C1053 1.415 . S
C1052 C1051 1.355 . S
C1052 C1054 1.419 . S
C1053 C1048 1.425 . S
C1053 C1050 1.409 . S
C1053 C1051 1.415 . S
C1054 H1044 0.930 . S
C1054 C1052 1.419 . S
C1054 C1055 1.362 . S
C1055 H1045 0.930 . S
C1055 C1048 1.409 . S
C1055 C1054 1.362 . S
H1056 C1062 0.930 . S
H1057 C1065 0.930 . S
H1058 C1066 0.930 . S
H1059 C1067 0.930 . S
H1060 C1070 0.930 . S
H1061 C1071 0.930 . S
C1062 H1056 0.930 . S
C1062 C1063 1.355 . S
C1062 C1064 1.415 . S
C1063 C1062 1.355 . S
C1063 C1065 1.419 . S
C1064 C1062 1.415 . S
C1064 C1069 1.425 . S
C1064 C1071 1.409 . S
C1065 H1057 0.930 . S
C1065 C1063 1.419 . S
C1065 C1066 1.362 . S
C1066 H1058 0.930 . S
C1066 C1065 1.362 . S
C1066 C1069 1.409 . S
C1067 H1059 0.930 . S
C1067 C1068 1.355 . S
C1067 C1069 1.415 . S
C1068 C1067 1.355 . S
C1068 C1070 1.419 . S
C1069 C1064 1.425 . S
C1069 C1066 1.409 . S
C1069 C1067 1.415 . S
C1070 H1060 0.930 . S
C1070 C1068 1.419 . S
C1070 C1071 1.362 . S
C1071 H1061 0.930 . S
C1071 C1064 1.409 . S
C1071 C1070 1.362 . S
H1072 C1078 0.930 . S
H1073 C1081 0.930 . S
H1074 C1082 0.930 . S
H1075 C1083 0.930 . S
H1076 C1086 0.930 . S
H1077 C1087 0.930 . S
C1078 H1072 0.930 . S
C1078 C1079 1.355 . S
C1078 C1080 1.415 . S
C1079 C1078 1.355 . S
C1079 C1081 1.419 . S
C1080 C1078 1.415 . S
C1080 C1085 1.425 . S
C1080 C1087 1.409 . S
C1081 H1073 0.930 . S
C1081 C1079 1.419 . S
C1081 C1082 1.362 . S
C1082 H1074 0.930 . S
C1082 C1081 1.362 . S
C1082 C1085 1.409 . S
C1083 H1075 0.930 . S
C1083 C1084 1.355 . S
C1083 C1085 1.415 . S
C1084 C1083 1.355 . S
C1084 C1086 1.419 . S
C1085 C1080 1.425 . S
C1085 C1082 1.409 . S
C1085 C1083 1.415 . S
C1086 H1076 0.930 . S
C1086 C1084 1.419 . S
C1086 C1087 1.362 . S
C1087 H1077 0.930 . S
C1087 C1080 1.409 . S
C1087 C1086 1.362 . S
H1088 C1094 0.930 . S
H1089 C1097 0.930 . S
H1090 C1098 0.930 . S
H1091 C1099 0.930 . S
H1092 C1102 0.930 . S
H1093 C1103 0.930 . S
C1094 H1088 0.930 . S
C1094 C1095 1.355 . S
C1094 C1096 1.415 . S
C1095 C1094 1.355 . S
C1095 C1097 1.419 . S
C1096 C1094 1.415 . S
C1096 C1101 1.425 . S
C1096 C1103 1.409 . S
C1097 H1089 0.930 . S
C1097 C1095 1.419 . S
C1097 C1098 1.362 . S
C1098 H1090 0.930 . S
C1098 C1097 1.362 . S
C1098 C1101 1.409 . S
C1099 H1091 0.930 . S
C1099 C1100 1.355 . S
C1099 C1101 1.415 . S
C1100 C1099 1.355 . S
C1100 C1102 1.419 . S
C1101 C1096 1.425 . S
C1101 C1098 1.409 . S
C1101 C1099 1.415 . S
C1102 H1092 0.930 . S
C1102 C1100 1.419 . S
C1102 C1103 1.362 . S
C1103 H1093 0.930 . S
C1103 C1096 1.409 . S
C1103 C1102 1.362 . S
H1104 C1110 0.930 . S
H1105 C1113 0.930 . S
H1106 C1114 0.930 . S
H1107 C1115 0.930 . S
H1108 C1118 0.930 . S
H1109 C1119 0.930 . S
C1110 H1104 0.930 . S
C1110 C1111 1.355 . S
C1110 C1112 1.415 . S
C1111 C1110 1.355 . S
C1111 C1113 1.419 . S
C1112 C1110 1.415 . S
C1112 C1117 1.425 . S
C1112 C1119 1.409 . S
C1113 H1105 0.930 . S
C1113 C1111 1.419 . S
C1113 C1114 1.362 . S
C1114 H1106 0.930 . S
C1114 C1113 1.362 . S
C1114 C1117 1.409 . S
C1115 H1107 0.930 . S
C1115 C1116 1.355 . S
C1115 C1117 1.415 . S
C1116 C1115 1.355 . S
C1116 C1118 1.419 . S
C1117 C1112 1.425 . S
C1117 C1114 1.409 . S
C1117 C1115 1.415 . S
C1118 H1108 0.930 . S
C1118 C1116 1.419 . S
C1118 C1119 1.362 . S
C1119 H1109 0.930 . S
C1119 C1112 1.409 . S
C1119 C1118 1.362 . S
H1120 C1126 0.930 . S
H1121 C1129 0.930 . S
H1122 C1130 0.930 . S
H1123 C1131 0.930 . S
H1124 C1134 0.930 . S
H1125 C1135 0.930 . S
C1126 H1120 0.930 . S
C1126 C1127 1.355 . S
C1126 C1128 1.415 . S
C1127 C1126 1.355 . S
C1127 C1129 1.419 . S
C1128 C1126 1.415 . S
C1128 C1133 1.425 . S
C1128 C1135 1.409 . S
C1129 H1121 0.930 . S
C1129 C1127 1.419 . S
C1129 C1130 1.362 . S
C1130 H1122 0.930 . S
C1130 C1129 1.362 . S
C1130 C1133 1.409 . S
C1131 H1123 0.930 . S
C1131 C1132 1.355 . S
C1131 C1133 1.415 . S
C1132 C1131 1.355 . S
C1132 C1134 1.419 . S
C1133 C1128 1.425 . S
C1133 C1130 1.409 . S
C1133 C1131 1.415 . S
C1134 H1124 0.930 . S
C1134 C1132 1.419 . S
C1134 C1135 1.362 . S
C1135 H1125 0.930 . S
C1135 C1128 1.409 . S
C1135 C1134 1.362 . S
H1136 C1142 0.930 . S
H1137 C1145 0.930 . S
H1138 C1146 0.930 . S
H1139 C1147 0.930 . S
H1140 C1150 0.930 . S
H1141 C1151 0.930 . S
C1142 H1136 0.930 . S
C1142 C1143 1.355 . S
C1142 C1144 1.415 . S
C1143 C1142 1.355 . S
C1143 C1145 1.419 . S
C1144 C1142 1.415 . S
C1144 C1149 1.425 . S
C1144 C1151 1.409 . S
C1145 H1137 0.930 . S
C1145 C1143 1.419 . S
C1145 C1146 1.362 . S
C1146 H1138 0.930 . S
C1146 C1145 1.362 . S
C1146 C1149 1.409 . S
C1147 H1139 0.930 . S
C1147 C1148 1.355 . S
C1147 C1149 1.415 . S
C1148 C1147 1.355 . S
C1148 C1150 1.419 . S
C1149 C1144 1.425 . S
C1149 C1146 1.409 . S
C1149 C1147 1.415 . S
C1150 H1140 0.930 . S
C1150 C1148 1.419 . S
C1150 C1151 1.362 . S
C1151 H1141 0.930 . S
C1151 C1144 1.409 . S
C1151 C1150 1.362 . S
H1152 C1158 0.930 . S
H1153 C1161 0.930 . S
H1154 C1162 0.930 . S
H1155 C1163 0.930 1_545 S
H1156 C1166 0.930 . S
H1157 C1167 0.930 . S
C1158 H1152 0.930 . S
C1158 C1159 1.355 . S
C1158 C1160 1.415 . S
C1159 C1158 1.355 . S
C1159 C1161 1.419 . S
C1160 C1158 1.415 . S
C1160 C1165 1.425 . S
C1160 C1167 1.409 . S
C1161 H1153 0.930 . S
C1161 C1159 1.419 . S
C1161 C1162 1.362 . S
C1162 H1154 0.930 . S
C1162 C1161 1.362 . S
C1162 C1165 1.409 . S
C1163 H1155 0.930 1_565 S
C1163 C1164 1.355 . S
C1163 C1165 1.415 . S
C1164 C1163 1.355 . S
C1164 C1166 1.419 . S
C1165 C1160 1.425 . S
C1165 C1162 1.409 . S
C1165 C1163 1.415 . S
C1166 H1156 0.930 . S
C1166 C1164 1.419 . S
C1166 C1167 1.362 . S
C1167 H1157 0.930 . S
C1167 C1160 1.409 . S
C1167 C1166 1.362 . S
H1168 C1174 0.930 . S
H1169 C1177 0.930 . S
H1170 C1178 0.930 . S
H1171 C1179 0.930 . S
H1172 C1182 0.930 . S
H1173 C1183 0.930 . S
C1174 H1168 0.930 . S
C1174 C1175 1.355 . S
C1174 C1176 1.415 . S
C1175 C1174 1.355 . S
C1175 C1177 1.419 . S
C1176 C1174 1.415 . S
C1176 C1181 1.425 . S
C1176 C1183 1.409 . S
C1177 H1169 0.930 . S
C1177 C1175 1.419 . S
C1177 C1178 1.362 . S
C1178 H1170 0.930 . S
C1178 C1177 1.362 . S
C1178 C1181 1.409 . S
C1179 H1171 0.930 . S
C1179 C1180 1.355 . S
C1179 C1181 1.415 . S
C1180 C1179 1.355 . S
C1180 C1182 1.419 . S
C1181 C1176 1.425 . S
C1181 C1178 1.409 . S
C1181 C1179 1.415 . S
C1182 H1172 0.930 . S
C1182 C1180 1.419 . S
C1182 C1183 1.362 . S
C1183 H1173 0.930 . S
C1183 C1176 1.409 . S
C1183 C1182 1.362 . S
H1184 C1190 0.930 . S
H1185 C1193 0.930 . S
H1186 C1194 0.930 . S
H1187 C1195 0.930 . S
H1188 C1198 0.930 . S
H1189 C1199 0.930 . S
C1190 H1184 0.930 . S
C1190 C1191 1.355 . S
C1190 C1192 1.415 . S
C1191 C1190 1.355 . S
C1191 C1193 1.419 . S
C1192 C1190 1.415 . S
C1192 C1197 1.425 . S
C1192 C1199 1.409 . S
C1193 H1185 0.930 . S
C1193 C1191 1.419 . S
C1193 C1194 1.362 . S
C1194 H1186 0.930 . S
C1194 C1193 1.362 . S
C1194 C1197 1.409 . S
C1195 H1187 0.930 . S
C1195 C1196 1.355 . S
C1195 C1197 1.415 . S
C1196 C1195 1.355 . S
C1196 C1198 1.419 . S
C1197 C1192 1.425 . S
C1197 C1194 1.409 . S
C1197 C1195 1.415 . S
C1198 H1188 0.930 . S
C1198 C1196 1.419 . S
C1198 C1199 1.362 . S
C1199 H1189 0.930 . S
C1199 C1192 1.409 . S
C1199 C1198 1.362 . S
H1200 C1206 0.930 . S
H1201 C1209 0.930 . S
H1202 C1210 0.930 . S
H1203 C1211 0.930 . S
H1204 C1214 0.930 . S
H1205 C1215 0.930 . S
C1206 H1200 0.930 . S
C1206 C1207 1.355 . S
C1206 C1208 1.415 . S
C1207 C1206 1.355 . S
C1207 C1209 1.419 . S
C1208 C1206 1.415 . S
C1208 C1213 1.425 . S
C1208 C1215 1.409 1_556 S
C1209 H1201 0.930 . S
C1209 C1207 1.419 . S
C1209 C1210 1.362 . S
C1210 H1202 0.930 . S
C1210 C1209 1.362 . S
C1210 C1213 1.409 . S
C1211 H1203 0.930 . S
C1211 C1212 1.355 . S
C1211 C1213 1.415 . S
C1212 C1211 1.355 . S
C1212 C1214 1.419 1_556 S
C1213 C1208 1.425 . S
C1213 C1210 1.409 . S
C1213 C1211 1.415 . S
C1214 H1204 0.930 . S
C1214 C1212 1.419 1_554 S
C1214 C1215 1.362 . S
C1215 H1205 0.930 . S
C1215 C1208 1.409 1_554 S
C1215 C1214 1.362 . S
H1216 C1222 0.930 . S
H1217 C1225 0.930 . S
H1218 C1226 0.930 . S
H1219 C1227 0.930 . S
H1220 C1230 0.930 . S
H1221 C1231 0.930 . S
C1222 H1216 0.930 . S
C1222 C1223 1.355 . S
C1222 C1224 1.415 . S
C1223 C1222 1.355 . S
C1223 C1225 1.419 . S
C1224 C1222 1.415 . S
C1224 C1229 1.425 . S
C1224 C1231 1.409 . S
C1225 H1217 0.930 . S
C1225 C1223 1.419 . S
C1225 C1226 1.362 . S
C1226 H1218 0.930 . S
C1226 C1225 1.362 . S
C1226 C1229 1.409 . S
C1227 H1219 0.930 . S
C1227 C1228 1.355 . S
C1227 C1229 1.415 . S
C1228 C1227 1.355 . S
C1228 C1230 1.419 . S
C1229 C1224 1.425 . S
C1229 C1226 1.409 . S
C1229 C1227 1.415 . S
C1230 H1220 0.930 . S
C1230 C1228 1.419 . S
C1230 C1231 1.362 . S
C1231 H1221 0.930 . S
C1231 C1224 1.409 . S
C1231 C1230 1.362 . S
H1232 C1238 0.930 . S
H1233 C1241 0.930 . S
H1234 C1242 0.930 . S
H1235 C1243 0.930 . S
H1236 C1246 0.930 . S
H1237 C1247 0.930 . S
C1238 H1232 0.930 . S
C1238 C1239 1.355 . S
C1238 C1240 1.415 . S
C1239 C1238 1.355 . S
C1239 C1241 1.419 . S
C1240 C1238 1.415 . S
C1240 C1245 1.425 . S
C1240 C1247 1.409 . S
C1241 H1233 0.930 . S
C1241 C1239 1.419 . S
C1241 C1242 1.362 . S
C1242 H1234 0.930 . S
C1242 C1241 1.362 . S
C1242 C1245 1.409 . S
C1243 H1235 0.930 . S
C1243 C1244 1.355 . S
C1243 C1245 1.415 . S
C1244 C1243 1.355 . S
C1244 C1246 1.419 . S
C1245 C1240 1.425 . S
C1245 C1242 1.409 . S
C1245 C1243 1.415 . S
C1246 H1236 0.930 . S
C1246 C1244 1.419 . S
C1246 C1247 1.362 . S
C1247 H1237 0.930 . S
C1247 C1240 1.409 . S
C1247 C1246 1.362 . S
H1248 C1254 0.930 . S
H1249 C1257 0.930 . S
H1250 C1258 0.930 . S
H1251 C1259 0.930 . S
H1252 C1262 0.930 . S
H1253 C1263 0.930 . S
C1254 H1248 0.930 . S
C1254 C1255 1.355 . S
C1254 C1256 1.415 . S
C1255 C1254 1.355 . S
C1255 C1257 1.419 . S
C1256 C1254 1.415 . S
C1256 C1261 1.425 . S
C1256 C1263 1.409 . S
C1257 H1249 0.930 . S
C1257 C1255 1.419 . S
C1257 C1258 1.362 . S
C1258 H1250 0.930 . S
C1258 C1257 1.362 . S
C1258 C1261 1.409 . S
C1259 H1251 0.930 . S
C1259 C1260 1.355 . S
C1259 C1261 1.415 . S
C1260 C1259 1.355 . S
C1260 C1262 1.419 . S
C1261 C1256 1.425 . S
C1261 C1258 1.409 . S
C1261 C1259 1.415 . S
C1262 H1252 0.930 . S
C1262 C1260 1.419 . S
C1262 C1263 1.362 . S
C1263 H1253 0.930 . S
C1263 C1256 1.409 . S
C1263 C1262 1.362 . S
H1264 C1270 0.930 . S
H1265 C1273 0.930 . S
H1266 C1274 0.930 . S
H1267 C1275 0.930 . S
H1268 C1278 0.930 . S
H1269 C1279 0.930 . S
C1270 H1264 0.930 . S
C1270 C1271 1.355 . S
C1270 C1272 1.415 . S
C1271 C1270 1.355 . S
C1271 C1273 1.419 1_455 S
C1272 C1270 1.415 . S
C1272 C1277 1.425 . S
C1272 C1279 1.409 . S
C1273 H1265 0.930 . S
C1273 C1271 1.419 1_655 S
C1273 C1274 1.362 . S
C1274 H1266 0.930 . S
C1274 C1273 1.362 . S
C1274 C1277 1.409 1_655 S
C1275 H1267 0.930 . S
C1275 C1276 1.355 . S
C1275 C1277 1.415 . S
C1276 C1275 1.355 . S
C1276 C1278 1.419 . S
C1277 C1272 1.425 . S
C1277 C1274 1.409 1_455 S
C1277 C1275 1.415 . S
C1278 H1268 0.930 . S
C1278 C1276 1.419 . S
C1278 C1279 1.362 . S
C1279 H1269 0.930 . S
C1279 C1272 1.409 . S
C1279 C1278 1.362 . S
H1280 C1286 0.930 . S
H1281 C1289 0.930 . S
H1282 C1290 0.930 . S
H1283 C1291 0.930 . S
H1284 C1294 0.930 . S
H1285 C1295 0.930 . S
C1286 H1280 0.930 . S
C1286 C1287 1.355 . S
C1286 C1288 1.415 . S
C1287 C1286 1.355 . S
C1287 C1289 1.419 . S
C1288 C1286 1.415 . S
C1288 C1293 1.425 . S
C1288 C1295 1.409 . S
C1289 H1281 0.930 . S
C1289 C1287 1.419 . S
C1289 C1290 1.362 . S
C1290 H1282 0.930 . S
C1290 C1289 1.362 . S
C1290 C1293 1.409 . S
C1291 H1283 0.930 . S
C1291 C1292 1.355 . S
C1291 C1293 1.415 . S
C1292 C1291 1.355 . S
C1292 C1294 1.419 . S
C1293 C1288 1.425 . S
C1293 C1290 1.409 . S
C1293 C1291 1.415 . S
C1294 H1284 0.930 . S
C1294 C1292 1.419 . S
C1294 C1295 1.362 . S
C1295 H1285 0.930 . S
C1295 C1288 1.409 . S
C1295 C1294 1.362 . S
H1296 C1302 0.930 . S
H1297 C1305 0.930 . S
H1298 C1306 0.930 . S
H1299 C1307 0.930 . S
H1300 C1310 0.930 . S
H1301 C1311 0.930 . S
C1302 H1296 0.930 . S
C1302 C1303 1.355 . S
C1302 C1304 1.415 . S
C1303 C1302 1.355 . S
C1303 C1305 1.419 . S
C1304 C1302 1.415 . S
C1304 C1309 1.425 . S
C1304 C1311 1.409 . S
C1305 H1297 0.930 . S
C1305 C1303 1.419 . S
C1305 C1306 1.362 . S
C1306 H1298 0.930 . S
C1306 C1305 1.362 . S
C1306 C1309 1.409 . S
C1307 H1299 0.930 . S
C1307 C1308 1.355 . S
C1307 C1309 1.415 . S
C1308 C1307 1.355 . S
C1308 C1310 1.419 . S
C1309 C1304 1.425 . S
C1309 C1306 1.409 . S
C1309 C1307 1.415 . S
C1310 H1300 0.930 . S
C1310 C1308 1.419 . S
C1310 C1311 1.362 . S
C1311 H1301 0.930 . S
C1311 C1304 1.409 . S
C1311 C1310 1.362 . S
H1312 C1318 0.930 . S
H1313 C1321 0.930 . S
H1314 C1322 0.930 . S
H1315 C1323 0.930 . S
H1316 C1326 0.930 . S
H1317 C1327 0.930 . S
C1318 H1312 0.930 . S
C1318 C1319 1.355 . S
C1318 C1320 1.415 . S
C1319 C1318 1.355 . S
C1319 C1321 1.419 . S
C1320 C1318 1.415 . S
C1320 C1325 1.425 . S
C1320 C1327 1.409 . S
C1321 H1313 0.930 . S
C1321 C1319 1.419 . S
C1321 C1322 1.362 . S
C1322 H1314 0.930 . S
C1322 C1321 1.362 . S
C1322 C1325 1.409 . S
C1323 H1315 0.930 . S
C1323 C1324 1.355 . S
C1323 C1325 1.415 . S
C1324 C1323 1.355 . S
C1324 C1326 1.419 . S
C1325 C1320 1.425 . S
C1325 C1322 1.409 . S
C1325 C1323 1.415 . S
C1326 H1316 0.930 . S
C1326 C1324 1.419 . S
C1326 C1327 1.362 . S
C1327 H1317 0.930 . S
C1327 C1320 1.409 . S
C1327 C1326 1.362 . S
H1328 C1334 0.930 . S
H1329 C1337 0.930 . S
H1330 C1338 0.930 . S
H1331 C1339 0.930 . S
H1332 C1342 0.930 . S
H1333 C1343 0.930 . S
C1334 H1328 0.930 . S
C1334 C1335 1.355 . S
C1334 C1336 1.415 . S
C1335 C1334 1.355 . S
C1335 C1337 1.419 . S
C1336 C1334 1.415 . S
C1336 C1341 1.425 . S
C1336 C1343 1.409 . S
C1337 H1329 0.930 . S
C1337 C1335 1.419 . S
C1337 C1338 1.362 . S
C1338 H1330 0.930 . S
C1338 C1337 1.362 . S
C1338 C1341 1.409 . S
C1339 H1331 0.930 . S
C1339 C1340 1.355 . S
C1339 C1341 1.415 . S
C1340 C1339 1.355 . S
C1340 C1342 1.419 1_655 S
C1341 C1336 1.425 . S
C1341 C1338 1.409 . S
C1341 C1339 1.415 . S
C1342 H1332 0.930 . S
C1342 C1340 1.419 1_455 S
C1342 C1343 1.362 1_455 S
C1343 H1333 0.930 . S
C1343 C1336 1.409 . S
C1343 C1342 1.362 1_655 S
H1344 C1350 0.930 . S
H1345 C1353 0.930 . S
H1346 C1354 0.930 . S
H1347 C1355 0.930 . S
H1348 C1358 0.930 . S
H1349 C1359 0.930 . S
C1350 H1344 0.930 . S
C1350 C1351 1.355 . S
C1350 C1352 1.415 . S
C1351 C1350 1.355 . S
C1351 C1353 1.419 . S
C1352 C1350 1.415 . S
C1352 C1357 1.425 . S
C1352 C1359 1.409 . S
C1353 H1345 0.930 . S
C1353 C1351 1.419 . S
C1353 C1354 1.362 . S
C1354 H1346 0.930 . S
C1354 C1353 1.362 . S
C1354 C1357 1.409 . S
C1355 H1347 0.930 . S
C1355 C1356 1.355 . S
C1355 C1357 1.415 . S
C1356 C1355 1.355 . S
C1356 C1358 1.419 . S
C1357 C1352 1.425 . S
C1357 C1354 1.409 . S
C1357 C1355 1.415 . S
C1358 H1348 0.930 . S
C1358 C1356 1.419 . S
C1358 C1359 1.362 . S
C1359 H1349 0.930 . S
C1359 C1352 1.409 . S
C1359 C1358 1.362 . S
H1360 C1366 0.930 . S
H1361 C1369 0.930 . S
H1362 C1370 0.930 . S
H1363 C1371 0.930 1_565 S
H1364 C1374 0.930 . S
H1365 C1375 0.930 . S
C1366 H1360 0.930 . S
C1366 C1367 1.355 . S
C1366 C1368 1.415 . S
C1367 C1366 1.355 . S
C1367 C1369 1.419 1_545 S
C1368 C1366 1.415 . S
C1368 C1373 1.425 . S
C1368 C1375 1.409 . S
C1369 H1361 0.930 . S
C1369 C1367 1.419 1_565 S
C1369 C1370 1.362 . S
C1370 H1362 0.930 . S
C1370 C1369 1.362 . S
C1370 C1373 1.409 1_565 S
C1371 H1363 0.930 1_545 S
C1371 C1372 1.355 . S
C1371 C1373 1.415 . S
C1372 C1371 1.355 . S
C1372 C1374 1.419 . S
C1373 C1368 1.425 . S
C1373 C1370 1.409 1_545 S
C1373 C1371 1.415 . S
C1374 H1364 0.930 . S
C1374 C1372 1.419 . S
C1374 C1375 1.362 . S
C1375 H1365 0.930 . S
C1375 C1368 1.409 . S
C1375 C1374 1.362 . S
H1376 C1382 0.930 . S
H1377 C1385 0.930 . S
H1378 C1386 0.930 . S
H1379 C1387 0.930 . S
H1380 C1390 0.930 . S
H1381 C1391 0.930 . S
C1382 H1376 0.930 . S
C1382 C1383 1.355 . S
C1382 C1384 1.415 . S
C1383 C1382 1.355 . S
C1383 C1385 1.419 . S
C1384 C1382 1.415 . S
C1384 C1389 1.425 . S
C1384 C1391 1.409 . S
C1385 H1377 0.930 . S
C1385 C1383 1.419 . S
C1385 C1386 1.362 . S
C1386 H1378 0.930 . S
C1386 C1385 1.362 . S
C1386 C1389 1.409 . S
C1387 H1379 0.930 . S
C1387 C1388 1.355 . S
C1387 C1389 1.415 . S
C1388 C1387 1.355 . S
C1388 C1390 1.419 . S
C1389 C1384 1.425 . S
C1389 C1386 1.409 . S
C1389 C1387 1.415 . S
C1390 H1380 0.930 . S
C1390 C1388 1.419 . S
C1390 C1391 1.362 . S
C1391 H1381 0.930 . S
C1391 C1384 1.409 . S
C1391 C1390 1.362 . S
H1392 C1398 0.930 . S
H1393 C1401 0.930 . S
H1394 C1402 0.930 . S
H1395 C1403 0.930 . S
H1396 C1406 0.930 . S
H1397 C1407 0.902 1_565 S
C1398 H1392 0.930 . S
C1398 C1399 1.355 . S
C1398 C1400 1.415 . S
C1399 C1398 1.355 . S
C1399 C1401 1.419 . S
C1400 C1398 1.415 . S
C1400 C1405 1.425 . S
C1400 C1407 1.440 . S
C1401 H1393 0.930 . S
C1401 C1399 1.419 . S
C1401 C1402 1.362 . S
C1402 H1394 0.930 . S
C1402 C1401 1.362 . S
C1402 C1405 1.409 . S
C1403 H1395 0.930 . S
C1403 C1404 1.355 . S
C1403 C1405 1.415 . S
C1404 C1403 1.355 . S
C1404 C1406 1.419 1_545 S
C1405 C1400 1.425 . S
C1405 C1402 1.409 . S
C1405 C1403 1.415 . S
C1406 H1396 0.930 . S
C1406 C1404 1.419 1_565 S
C1406 C1407 1.359 1_565 S
C1407 H1397 0.902 1_545 S
C1407 C1400 1.440 . S
C1407 C1406 1.359 1_545 S
H1408 C1414 0.930 . S
H1409 C1417 0.930 . S
H1410 C1418 0.930 . S
H1411 C1419 0.930 . S
H1412 C1422 0.930 . S
H1413 C1423 0.930 . S
C1414 H1408 0.930 . S
C1414 C1415 1.355 . S
C1414 C1416 1.415 . S
C1415 C1414 1.355 . S
C1415 C1417 1.419 . S
C1416 C1414 1.415 . S
C1416 C1421 1.425 . S
C1416 C1423 1.409 . S
C1417 H1409 0.930 . S
C1417 C1415 1.419 . S
C1417 C1418 1.362 . S
C1418 H1410 0.930 . S
C1418 C1417 1.362 . S
C1418 C1421 1.409 . S
C1419 H1411 0.930 . S
C1419 C1420 1.355 . S
C1419 C1421 1.415 . S
C1420 C1419 1.355 . S
C1420 C1422 1.419 . S
C1421 C1416 1.425 . S
C1421 C1418 1.409 . S
C1421 C1419 1.415 . S
C1422 H1412 0.930 . S
C1422 C1420 1.419 . S
C1422 C1423 1.362 . S
C1423 H1413 0.930 . S
C1423 C1416 1.409 . S
C1423 C1422 1.362 . S
H1424 C1430 0.930 . S
H1425 C1433 0.930 . S
H1426 C1434 0.930 . S
H1427 C1435 0.930 . S
H1428 C1438 0.930 . S
H1429 C1439 0.930 . S
C1430 H1424 0.930 . S
C1430 C1431 1.355 . S
C1430 C1432 1.415 . S
C1431 C1430 1.355 . S
C1431 C1433 1.419 . S
C1432 C1430 1.415 . S
C1432 C1437 1.425 . S
C1432 C1439 1.409 . S
C1433 H1425 0.930 . S
C1433 C1431 1.419 . S
C1433 C1434 1.362 . S
C1434 H1426 0.930 . S
C1434 C1433 1.362 . S
C1434 C1437 1.409 . S
C1435 H1427 0.930 . S
C1435 C1436 1.355 . S
C1435 C1437 1.415 . S
C1436 C1435 1.355 . S
C1436 C1438 1.419 . S
C1437 C1432 1.425 . S
C1437 C1434 1.409 . S
C1437 C1435 1.415 . S
C1438 H1428 0.930 . S
C1438 C1436 1.419 . S
C1438 C1439 1.362 . S
C1439 H1429 0.930 . S
C1439 C1432 1.409 . S
C1439 C1438 1.362 . S
H1440 C1446 0.930 . S
H1441 C1449 0.930 . S
H1442 C1450 0.930 . S
H1443 C1451 0.930 . S
H1444 C1454 0.930 . S
H1445 C1455 0.930 . S
C1446 H1440 0.930 . S
C1446 C1447 1.355 . S
C1446 C1448 1.415 . S
C1447 C1446 1.355 . S
C1447 C1449 1.419 . S
C1448 C1446 1.415 . S
C1448 C1453 1.425 . S
C1448 C1455 1.409 . S
C1449 H1441 0.930 . S
C1449 C1447 1.419 . S
C1449 C1450 1.362 . S
C1450 H1442 0.930 . S
C1450 C1449 1.362 . S
C1450 C1453 1.409 . S
C1451 H1443 0.930 . S
C1451 C1452 1.355 . S
C1451 C1453 1.415 . S
C1452 C1451 1.355 . S
C1452 C1454 1.419 . S
C1453 C1448 1.425 . S
C1453 C1450 1.409 . S
C1453 C1451 1.415 . S
C1454 H1444 0.930 . S
C1454 C1452 1.419 . S
C1454 C1455 1.362 . S
C1455 H1445 0.930 . S
C1455 C1448 1.409 . S
C1455 C1454 1.362 . S
H1456 C1462 0.930 . S
H1457 C1465 0.930 . S
H1458 C1466 0.930 1_545 S
H1459 C1467 0.930 1_545 S
H1460 C1470 0.930 . S
H1461 C1471 0.930 . S
C1462 H1456 0.930 . S
C1462 C1463 1.355 . S
C1462 C1464 1.415 . S
C1463 C1462 1.355 . S
C1463 C1465 1.419 . S
C1464 C1462 1.415 . S
C1464 C1469 1.425 . S
C1464 C1471 1.409 . S
C1465 H1457 0.930 . S
C1465 C1463 1.419 . S
C1465 C1466 1.362 . S
C1466 H1458 0.930 1_565 S
C1466 C1465 1.362 . S
C1466 C1469 1.409 . S
C1467 H1459 0.930 1_565 S
C1467 C1468 1.355 . S
C1467 C1469 1.415 . S
C1468 C1467 1.355 . S
C1468 C1470 1.419 . S
C1469 C1464 1.425 . S
C1469 C1466 1.409 . S
C1469 C1467 1.415 . S
C1470 H1460 0.930 . S
C1470 C1468 1.419 . S
C1470 C1471 1.362 . S
C1471 H1461 0.930 . S
C1471 C1464 1.409 . S
C1471 C1470 1.362 . S
H1472 C1478 0.930 1_556 S
H1473 C1481 0.930 . S
H1474 C1482 0.930 . S
H1475 C1483 0.930 . S
H1476 C1486 0.930 . S
H1477 C1487 0.935 . S
C1478 H1472 0.930 1_554 S
C1478 C1479 1.355 . S
C1478 C1480 1.415 . S
C1479 C1478 1.355 . S
C1479 C1481 1.419 . S
C1480 C1478 1.415 . S
C1480 C1485 1.425 . S
C1480 C1487 1.409 . S
C1481 H1473 0.930 . S
C1481 C1479 1.419 . S
C1481 C1482 1.362 . S
C1482 H1474 0.930 . S
C1482 C1481 1.362 . S
C1482 C1485 1.409 . S
C1483 H1475 0.930 . S
C1483 C1484 1.355 . S
C1483 C1485 1.415 . S
C1484 C1483 1.355 . S
C1484 C1486 1.419 . S
C1485 C1480 1.425 . S
C1485 C1482 1.409 . S
C1485 C1483 1.415 . S
C1486 H1476 0.930 . S
C1486 C1484 1.419 . S
C1486 C1487 1.362 . S
C1487 H1477 0.935 . S
C1487 C1480 1.409 . S
C1487 C1486 1.362 . S
H1488 C1494 0.930 . S
H1489 C1497 0.930 . S
H1490 C1498 0.930 . S
H1491 C1499 0.930 . S
H1492 C1502 0.930 . S
H1493 C1503 0.930 . S
C1494 H1488 0.930 . S
C1494 C1495 1.355 . S
C1494 C1496 1.415 . S
C1495 C1494 1.355 . S
C1495 C1497 1.419 . S
C1496 C1494 1.415 . S
C1496 C1501 1.425 . S
C1496 C1503 1.409 . S
C1497 H1489 0.930 . S
C1497 C1495 1.419 . S
C1497 C1498 1.362 . S
C1498 H1490 0.930 . S
C1498 C1497 1.362 . S
C1498 C1501 1.409 . S
C1499 H1491 0.930 . S
C1499 C1500 1.355 . S
C1499 C1501 1.415 . S
C1500 C1499 1.355 . S
C1500 C1502 1.419 . S
C1501 C1496 1.425 . S
C1501 C1498 1.409 . S
C1501 C1499 1.415 . S
C1502 H1492 0.930 . S
C1502 C1500 1.419 . S
C1502 C1503 1.362 . S
C1503 H1493 0.930 . S
C1503 C1496 1.409 . S
C1503 C1502 1.362 . S
H1504 C1510 0.930 . S
H1505 C1513 0.930 . S
H1506 C1514 0.930 . S
H1507 C1515 0.930 . S
H1508 C1518 0.930 . S
H1509 C1519 0.930 . S
C1510 H1504 0.930 . S
C1510 C1511 1.355 . S
C1510 C1512 1.415 . S
C1511 C1510 1.355 . S
C1511 C1513 1.419 . S
C1512 C1510 1.415 . S
C1512 C1517 1.425 . S
C1512 C1519 1.409 . S
C1513 H1505 0.930 . S
C1513 C1511 1.419 . S
C1513 C1514 1.362 . S
C1514 H1506 0.930 . S
C1514 C1513 1.362 . S
C1514 C1517 1.409 . S
C1515 H1507 0.930 . S
C1515 C1516 1.355 . S
C1515 C1517 1.415 . S
C1516 C1515 1.355 . S
C1516 C1518 1.419 . S
C1517 C1512 1.425 . S
C1517 C1514 1.409 . S
C1517 C1515 1.415 . S
C1518 H1508 0.930 . S
C1518 C1516 1.419 . S
C1518 C1519 1.362 . S
C1519 H1509 0.930 . S
C1519 C1512 1.409 . S
C1519 C1518 1.362 . S
H1520 C1526 0.930 . S
H1521 C1529 0.930 1_545 S
H1522 C1530 0.930 . S
H1523 C1531 0.930 . S
H1524 C1534 0.930 . S
H1525 C1535 0.930 . S
C1526 H1520 0.930 . S
C1526 C1527 1.355 . S
C1526 C1528 1.415 . S
C1527 C1526 1.355 . S
C1527 C1529 1.419 . S
C1528 C1526 1.415 . S
C1528 C1533 1.425 . S
C1528 C1535 1.409 . S
C1529 H1521 0.930 1_565 S
C1529 C1527 1.419 . S
C1529 C1530 1.362 . S
C1530 H1522 0.930 . S
C1530 C1529 1.362 . S
C1530 C1533 1.409 . S
C1531 H1523 0.930 . S
C1531 C1532 1.355 . S
C1531 C1533 1.415 . S
C1532 C1531 1.355 . S
C1532 C1534 1.419 . S
C1533 C1528 1.425 . S
C1533 C1530 1.409 . S
C1533 C1531 1.415 . S
C1534 H1524 0.930 . S
C1534 C1532 1.419 . S
C1534 C1535 1.362 . S
C1535 H1525 0.930 . S
C1535 C1528 1.409 . S
C1535 C1534 1.362 . S
H1536 C1542 0.930 . S
H1537 C1545 0.930 . S
H1538 C1546 0.930 . S
H1539 C1547 0.930 . S
H1540 C1550 0.930 . S
H1541 C1551 0.930 . S
C1542 H1536 0.930 . S
C1542 C1543 1.355 . S
C1542 C1544 1.415 . S
C1543 C1542 1.355 . S
C1543 C1545 1.419 . S
C1544 C1542 1.415 . S
C1544 C1549 1.425 . S
C1544 C1551 1.409 . S
C1545 H1537 0.930 . S
C1545 C1543 1.419 . S
C1545 C1546 1.362 . S
C1546 H1538 0.930 . S
C1546 C1545 1.362 . S
C1546 C1549 1.409 . S
C1547 H1539 0.930 . S
C1547 C1548 1.355 . S
C1547 C1549 1.415 . S
C1548 C1547 1.355 . S
C1548 C1550 1.419 . S
C1549 C1544 1.425 . S
C1549 C1546 1.409 . S
C1549 C1547 1.415 . S
C1550 H1540 0.930 . S
C1550 C1548 1.419 . S
C1550 C1551 1.362 . S
C1551 H1541 0.930 . S
C1551 C1544 1.409 . S
C1551 C1550 1.362 . S
H1552 C1558 0.930 . S
H1553 C1561 0.930 . S
H1554 C1562 0.930 . S
H1555 C1563 0.930 . S
H1556 C1566 0.930 . S
H1557 C1567 0.930 . S
C1558 H1552 0.930 . S
C1558 C1559 1.355 . S
C1558 C1560 1.415 . S
C1559 C1558 1.355 . S
C1559 C1561 1.419 . S
C1560 C1558 1.415 . S
C1560 C1565 1.425 . S
C1560 C1567 1.409 . S
C1561 H1553 0.930 . S
C1561 C1559 1.419 . S
C1561 C1562 1.362 . S
C1562 H1554 0.930 . S
C1562 C1561 1.362 . S
C1562 C1565 1.409 . S
C1563 H1555 0.930 . S
C1563 C1564 1.355 . S
C1563 C1565 1.415 . S
C1564 C1563 1.355 . S
C1564 C1566 1.419 . S
C1565 C1560 1.425 . S
C1565 C1562 1.409 . S
C1565 C1563 1.415 . S
C1566 H1556 0.930 . S
C1566 C1564 1.419 . S
C1566 C1567 1.362 . S
C1567 H1557 0.930 . S
C1567 C1560 1.409 . S
C1567 C1566 1.362 . S
H1568 C1574 0.930 . S
H1569 C1577 0.930 . S
H1570 C1578 0.930 . S
H1571 C1579 0.930 . S
H1572 C1582 0.930 . S
H1573 C1583 0.930 . S
C1574 H1568 0.930 . S
C1574 C1575 1.355 . S
C1574 C1576 1.415 . S
C1575 C1574 1.355 . S
C1575 C1577 1.419 . S
C1576 C1574 1.415 . S
C1576 C1581 1.425 . S
C1576 C1583 1.409 . S
C1577 H1569 0.930 . S
C1577 C1575 1.419 . S
C1577 C1578 1.362 . S
C1578 H1570 0.930 . S
C1578 C1577 1.362 . S
C1578 C1581 1.409 . S
C1579 H1571 0.930 . S
C1579 C1580 1.355 . S
C1579 C1581 1.415 . S
C1580 C1579 1.355 . S
C1580 C1582 1.419 . S
C1581 C1576 1.425 . S
C1581 C1578 1.409 . S
C1581 C1579 1.415 . S
C1582 H1572 0.930 . S
C1582 C1580 1.419 . S
C1582 C1583 1.362 . S
C1583 H1573 0.930 . S
C1583 C1576 1.409 . S
C1583 C1582 1.362 . S
H1584 C1590 0.930 . S
H1585 C1593 0.930 . S
H1586 C1594 0.930 . S
H1587 C1595 0.930 . S
H1588 C1598 0.930 . S
H1589 C1599 0.930 . S
C1590 H1584 0.930 . S
C1590 C1591 1.355 . S
C1590 C1592 1.415 . S
C1591 C1590 1.355 . S
C1591 C1593 1.419 . S
C1592 C1590 1.415 . S
C1592 C1597 1.425 . S
C1592 C1599 1.409 . S
C1593 H1585 0.930 . S
C1593 C1591 1.419 . S
C1593 C1594 1.362 . S
C1594 H1586 0.930 . S
C1594 C1593 1.362 . S
C1594 C1597 1.409 . S
C1595 H1587 0.930 . S
C1595 C1596 1.355 . S
C1595 C1597 1.415 . S
C1596 C1595 1.355 . S
C1596 C1598 1.419 . S
C1597 C1592 1.425 . S
C1597 C1594 1.409 . S
C1597 C1595 1.415 . S
C1598 H1588 0.930 . S
C1598 C1596 1.419 . S
C1598 C1599 1.362 . S
C1599 H1589 0.930 . S
C1599 C1592 1.409 . S
C1599 C1598 1.362 . S
H1600 C1606 0.930 . S
H1601 C1609 0.930 . S
H1602 C1610 0.930 . S
H1603 C1611 0.930 . S
H1604 C1614 0.930 . S
H1605 C1615 0.930 . S
C1606 H1600 0.930 . S
C1606 C1607 1.355 . S
C1606 C1608 1.415 . S
C1607 C1606 1.355 . S
C1607 C1609 1.419 . S
C1608 C1606 1.415 . S
C1608 C1613 1.425 . S
C1608 C1615 1.409 . S
C1609 H1601 0.930 . S
C1609 C1607 1.419 . S
C1609 C1610 1.362 . S
C1610 H1602 0.930 . S
C1610 C1609 1.362 . S
C1610 C1613 1.409 . S
C1611 H1603 0.930 . S
C1611 C1612 1.355 . S
C1611 C1613 1.415 . S
C1612 C1611 1.355 . S
C1612 C1614 1.419 . S
C1613 C1608 1.425 . S
C1613 C1610 1.409 . S
C1613 C1611 1.415 . S
C1614 H1604 0.930 . S
C1614 C1612 1.419 . S
C1614 C1615 1.362 . S
C1615 H1605 0.930 . S
C1615 C1608 1.409 . S
C1615 C1614 1.362 . S
H1616 C1622 0.930 . S
H1617 C1625 0.930 . S
H1618 C1626 0.930 . S
H1619 C1627 0.930 . S
H1620 C1630 0.930 . S
H1621 C1631 0.930 . S
C1622 H1616 0.930 . S
C1622 C1623 1.355 . S
C1622 C1624 1.415 . S
C1623 C1622 1.355 . S
C1623 C1625 1.419 . S
C1624 C1622 1.415 . S
C1624 C1629 1.425 . S
C1624 C1631 1.409 . S
C1625 H1617 0.930 . S
C1625 C1623 1.419 . S
C1625 C1626 1.362 . S
C1626 H1618 0.930 . S
C1626 C1625 1.362 . S
C1626 C1629 1.409 . S
C1627 H1619 0.930 . S
C1627 C1628 1.355 . S
C1627 C1629 1.415 . S
C1628 C1627 1.355 . S
C1628 C1630 1.419 . S
C1629 C1624 1.425 . S
C1629 C1626 1.409 . S
C1629 C1627 1.415 . S
C1630 H1620 0.930 . S
C1630 C1628 1.419 . S
C1630 C1631 1.362 . S
C1631 H1621 0.930 . S
C1631 C1624 1.409 . S
C1631 C1630 1.362 . S
H1632 C1638 0.930 . S
H1633 C1641 0.930 . S
H1634 C1642 0.930 . S
H1635 C1643 0.930 . S
H1636 C1646 0.930 . S
H1637 C1647 0.930 . S
C1638 H1632 0.930 . S
C1638 C1639 1.355 . S
C1638 C1640 1.415 . S
C1639 C1638 1.355 . S
C1639 C1641 1.419 . S
C1640 C1638 1.415 . S
C1640 C1645 1.425 . S
C1640 C1647 1.409 . S
C1641 H1633 0.930 . S
C1641 C1639 1.419 . S
C1641 C1642 1.362 . S
C1642 H1634 0.930 . S
C1642 C1641 1.362 . S
C1642 C1645 1.409 . S
C1643 H1635 0.930 . S
C1643 C1644 1.355 . S
C1643 C1645 1.415 . S
C1644 C1643 1.355 . S
C1644 C1646 1.419 . S
C1645 C1640 1.425 . S
C1645 C1642 1.409 . S
C1645 C1643 1.415 . S
C1646 H1636 0.930 . S
C1646 C1644 1.419 . S
C1646 C1647 1.362 . S
C1647 H1637 0.930 . S
C1647 C1640 1.409 . S
C1647 C1646 1.362 . S
H1648 C1654 0.930 . S
H1649 C1657 0.930 . S
H1650 C1658 0.930 . S
H1651 C1659 0.930 . S
H1652 C1662 0.930 . S
H1653 C1663 0.930 . S
C1654 H1648 0.930 . S
C1654 C1655 1.355 . S
C1654 C1656 1.415 . S
C1655 C1654 1.355 . S
C1655 C1657 1.419 . S
C1656 C1654 1.415 . S
C1656 C1661 1.425 . S
C1656 C1663 1.409 1_556 S
C1657 H1649 0.930 . S
C1657 C1655 1.419 . S
C1657 C1658 1.362 . S
C1658 H1650 0.930 . S
C1658 C1657 1.362 . S
C1658 C1661 1.409 . S
C1659 H1651 0.930 . S
C1659 C1660 1.344 1_556 S
C1659 C1661 1.415 . S
C1660 C1659 1.344 1_554 S
C1660 C1662 1.425 . S
C1661 C1656 1.425 . S
C1661 C1658 1.409 . S
C1661 C1659 1.415 . S
C1662 H1652 0.930 . S
C1662 C1660 1.425 . S
C1662 C1663 1.362 . S
C1663 H1653 0.930 . S
C1663 C1656 1.409 1_554 S
C1663 C1662 1.362 . S
H1664 C1670 0.930 . S
H1665 C1673 0.930 . S
H1666 C1674 0.930 . S
H1667 C1675 0.930 . S
H1668 C1678 0.930 . S
H1669 C1679 0.930 . S
C1670 H1664 0.930 . S
C1670 C1671 1.355 . S
C1670 C1672 1.415 . S
C1671 C1670 1.355 . S
C1671 C1673 1.419 . S
C1672 C1670 1.415 . S
C1672 C1677 1.425 . S
C1672 C1679 1.409 . S
C1673 H1665 0.930 . S
C1673 C1671 1.419 . S
C1673 C1674 1.362 . S
C1674 H1666 0.930 . S
C1674 C1673 1.362 . S
C1674 C1677 1.409 . S
C1675 H1667 0.930 . S
C1675 C1676 1.355 . S
C1675 C1677 1.415 . S
C1676 C1675 1.355 . S
C1676 C1678 1.419 . S
C1677 C1672 1.425 . S
C1677 C1674 1.409 . S
C1677 C1675 1.415 . S
C1678 H1668 0.930 . S
C1678 C1676 1.419 . S
C1678 C1679 1.362 . S
C1679 H1669 0.930 . S
C1679 C1672 1.409 . S
C1679 C1678 1.362 . S
H1680 C1686 0.930 . S
H1681 C1689 0.930 . S
H1682 C1690 0.930 . S
H1683 C1691 0.930 . S
H1684 C1694 0.930 . S
H1685 C1695 0.930 . S
C1686 H1680 0.930 . S
C1686 C1687 1.355 . S
C1686 C1688 1.415 . S
C1687 C1686 1.355 . S
C1687 C1689 1.419 . S
C1688 C1686 1.415 . S
C1688 C1693 1.425 . S
C1688 C1695 1.409 . S
C1689 H1681 0.930 . S
C1689 C1687 1.419 . S
C1689 C1690 1.362 . S
C1690 H1682 0.930 . S
C1690 C1689 1.362 . S
C1690 C1693 1.409 . S
C1691 H1683 0.930 . S
C1691 C1692 1.355 . S
C1691 C1693 1.415 . S
C1692 C1691 1.355 . S
C1692 C1694 1.419 . S
C1693 C1688 1.425 . S
C1693 C1690 1.409 . S
C1693 C1691 1.415 . S
C1694 H1684 0.930 . S
C1694 C1692 1.419 . S
C1694 C1695 1.362 . S
C1695 H1685 0.930 . S
C1695 C1688 1.409 . S
C1695 C1694 1.362 . S
H1696 C1702 0.930 . S
H1697 C1705 0.930 . S
H1698 C1706 0.930 . S
H1699 C1707 0.930 . S
H1700 C1710 0.930 . S
H1701 C1711 0.930 . S
C1702 H1696 0.930 . S
C1702 C1703 1.355 . S
C1702 C1704 1.415 . S
C1703 C1702 1.355 . S
C1703 C1705 1.419 . S
C1704 C1702 1.415 . S
C1704 C1709 1.425 . S
C1704 C1711 1.409 . S
C1705 H1697 0.930 . S
C1705 C1703 1.419 . S
C1705 C1706 1.362 . S
C1706 H1698 0.930 . S
C1706 C1705 1.362 . S
C1706 C1709 1.409 . S
C1707 H1699 0.930 . S
C1707 C1708 1.355 . S
C1707 C1709 1.415 . S
C1708 C1707 1.355 . S
C1708 C1710 1.419 . S
C1709 C1704 1.425 . S
C1709 C1706 1.409 . S
C1709 C1707 1.415 . S
C1710 H1700 0.930 . S
C1710 C1708 1.419 . S
C1710 C1711 1.362 . S
C1711 H1701 0.930 . S
C1711 C1704 1.409 . S
C1711 C1710 1.362 . S
H1712 C1718 0.930 . S
H1713 C1721 0.930 . S
H1714 C1722 0.930 . S
H1715 C1723 0.930 . S
H1716 C1726 0.930 . S
H1717 C1727 0.930 . S
C1718 H1712 0.930 . S
C1718 C1719 1.355 . S
C1718 C1720 1.415 . S
C1719 C1718 1.355 . S
C1719 C1721 1.419 . S
C1720 C1718 1.415 . S
C1720 C1725 1.425 . S
C1720 C1727 1.409 . S
C1721 H1713 0.930 . S
C1721 C1719 1.419 . S
C1721 C1722 1.362 . S
C1722 H1714 0.930 . S
C1722 C1721 1.362 . S
C1722 C1725 1.409 . S
C1723 H1715 0.930 . S
C1723 C1724 1.355 . S
C1723 C1725 1.415 . S
C1724 C1723 1.355 . S
C1724 C1726 1.419 . S
C1725 C1720 1.425 . S
C1725 C1722 1.409 . S
C1725 C1723 1.415 . S
C1726 H1716 0.930 . S
C1726 C1724 1.419 . S
C1726 C1727 1.362 . S
C1727 H1717 0.930 . S
C1727 C1720 1.409 . S
C1727 C1726 1.362 . S
H1728 C1734 0.930 . S
H1729 C1737 0.930 . S
H1730 C1738 0.930 . S
H1731 C1739 0.930 . S
H1732 C1742 0.930 . S
H1733 C1743 0.930 . S
C1734 H1728 0.930 . S
C1734 C1735 1.355 . S
C1734 C1736 1.415 . S
C1735 C1734 1.355 . S
C1735 C1737 1.419 . S
C1736 C1734 1.415 . S
C1736 C1741 1.425 . S
C1736 C1743 1.409 . S
C1737 H1729 0.930 . S
C1737 C1735 1.419 . S
C1737 C1738 1.362 . S
C1738 H1730 0.930 . S
C1738 C1737 1.362 . S
C1738 C1741 1.409 . S
C1739 H1731 0.930 . S
C1739 C1740 1.355 . S
C1739 C1741 1.415 . S
C1740 C1739 1.355 . S
C1740 C1742 1.419 . S
C1741 C1736 1.425 . S
C1741 C1738 1.409 . S
C1741 C1739 1.415 . S
C1742 H1732 0.930 . S
C1742 C1740 1.419 . S
C1742 C1743 1.362 . S
C1743 H1733 0.930 . S
C1743 C1736 1.409 . S
C1743 C1742 1.362 . S
H1744 C1750 0.930 . S
H1745 C1753 0.930 . S
H1746 C1754 0.930 1_455 S
H1747 C1755 0.930 . S
H1748 C1758 0.930 . S
H1749 C1759 0.930 . S
C1750 H1744 0.930 . S
C1750 C1751 1.355 . S
C1750 C1752 1.415 . S
C1751 C1750 1.355 . S
C1751 C1753 1.419 . S
C1752 C1750 1.415 . S
C1752 C1757 1.425 . S
C1752 C1759 1.409 . S
C1753 H1745 0.930 . S
C1753 C1751 1.419 . S
C1753 C1754 1.362 . S
C1754 H1746 0.930 1_655 S
C1754 C1753 1.362 . S
C1754 C1757 1.409 . S
C1755 H1747 0.930 . S
C1755 C1756 1.355 . S
C1755 C1757 1.415 1_455 S
C1756 C1755 1.355 . S
C1756 C1758 1.419 1_455 S
C1757 C1752 1.425 . S
C1757 C1754 1.409 . S
C1757 C1755 1.415 1_655 S
C1758 H1748 0.930 . S
C1758 C1756 1.419 1_655 S
C1758 C1759 1.362 . S
C1759 H1749 0.930 . S
C1759 C1752 1.409 . S
C1759 C1758 1.362 . S
H1760 C1766 0.930 . S
H1761 C1769 0.930 . S
H1762 C1770 0.930 . S
H1763 C1771 0.930 . S
H1764 C1774 0.930 . S
H1765 C1775 0.930 . S
C1766 H1760 0.930 . S
C1766 C1767 1.355 . S
C1766 C1768 1.415 . S
C1767 C1766 1.355 . S
C1767 C1769 1.419 . S
C1768 C1766 1.415 . S
C1768 C1773 1.425 . S
C1768 C1775 1.409 . S
C1769 H1761 0.930 . S
C1769 C1767 1.419 . S
C1769 C1770 1.362 . S
C1770 H1762 0.930 . S
C1770 C1769 1.362 . S
C1770 C1773 1.409 . S
C1771 H1763 0.930 . S
C1771 C1772 1.355 . S
C1771 C1773 1.415 . S
C1772 C1771 1.355 . S
C1772 C1774 1.419 . S
C1773 C1768 1.425 . S
C1773 C1770 1.409 . S
C1773 C1771 1.415 . S
C1774 H1764 0.930 . S
C1774 C1772 1.419 . S
C1774 C1775 1.362 . S
C1775 H1765 0.930 . S
C1775 C1768 1.409 . S
C1775 C1774 1.362 . S
H1776 C1782 0.930 . S
H1777 C1785 0.930 . S
H1778 C1786 0.930 . S
H1779 C1787 0.930 . S
H1780 C1790 0.930 1_554 S
H1781 C1791 0.930 . S
C1782 H1776 0.930 . S
C1782 C1783 1.355 . S
C1782 C1784 1.415 . S
C1783 C1782 1.355 . S
C1783 C1785 1.419 . S
C1784 C1782 1.415 . S
C1784 C1789 1.425 . S
C1784 C1791 1.409 . S
C1785 H1777 0.930 . S
C1785 C1783 1.419 . S
C1785 C1786 1.362 . S
C1786 H1778 0.930 . S
C1786 C1785 1.362 . S
C1786 C1789 1.409 . S
C1787 H1779 0.930 . S
C1787 C1788 1.355 . S
C1787 C1789 1.415 . S
C1788 C1787 1.355 . S
C1788 C1790 1.419 . S
C1789 C1784 1.425 . S
C1789 C1786 1.409 . S
C1789 C1787 1.415 . S
C1790 H1780 0.930 1_556 S
C1790 C1788 1.419 . S
C1790 C1791 1.362 . S
C1791 H1781 0.930 . S
C1791 C1784 1.409 . S
C1791 C1790 1.362 . S
H1792 C1798 0.930 . S
H1793 C1801 0.930 . S
H1794 C1802 0.930 . S
H1795 C1803 0.930 . S
H1796 C1806 0.930 . S
H1797 C1807 0.930 . S
C1798 H1792 0.930 . S
C1798 C1799 1.355 . S
C1798 C1800 1.415 . S
C1799 C1798 1.355 . S
C1799 C1801 1.419 . S
C1800 C1798 1.415 . S
C1800 C1805 1.425 . S
C1800 C1807 1.409 . S
C1801 H1793 0.930 . S
C1801 C1799 1.419 . S
C1801 C1802 1.362 . S
C1802 H1794 0.930 . S
C1802 C1801 1.362 . S
C1802 C1805 1.409 . S
C1803 H1795 0.930 . S
C1803 C1804 1.355 . S
C1803 C1805 1.415 . S
C1804 C1803 1.355 . S
C1804 C1806 1.419 . S
C1805 C1800 1.425 . S
C1805 C1802 1.409 . S
C1805 C1803 1.415 . S
C1806 H1796 0.930 . S
C1806 C1804 1.419 . S
C1806 C1807 1.362 . S
C1807 H1797 0.930 . S
C1807 C1800 1.409 . S
C1807 C1806 1.362 . S
H1808 C1814 0.930 . S
H1809 C1817 0.930 . S
H1810 C1818 0.930 . S
H1811 C1819 0.930 . S
H1812 C1822 0.930 . S
H1813 C1823 0.930 . S
C1814 H1808 0.930 . S
C1814 C1815 1.355 . S
C1814 C1816 1.415 . S
C1815 C1814 1.355 . S
C1815 C1817 1.419 . S
C1816 C1814 1.415 . S
C1816 C1821 1.425 . S
C1816 C1823 1.409 1_655 S
C1817 H1809 0.930 . S
C1817 C1815 1.419 . S
C1817 C1818 1.362 . S
C1818 H1810 0.930 . S
C1818 C1817 1.362 . S
C1818 C1821 1.409 . S
C1819 H1811 0.930 . S
C1819 C1820 1.355 . S
C1819 C1821 1.415 . S
C1820 C1819 1.355 . S
C1820 C1822 1.419 1_655 S
C1821 C1816 1.425 . S
C1821 C1818 1.409 . S
C1821 C1819 1.415 . S
C1822 H1812 0.930 . S
C1822 C1820 1.419 1_455 S
C1822 C1823 1.362 . S
C1823 H1813 0.930 . S
C1823 C1816 1.409 1_455 S
C1823 C1822 1.362 . S
H1824 C1830 0.930 . S
H1825 C1833 0.930 . S
H1826 C1834 0.930 . S
H1827 C1835 0.930 . S
H1828 C1838 0.930 . S
H1829 C1839 0.930 . S
C1830 H1824 0.930 . S
C1830 C1831 1.355 . S
C1830 C1832 1.415 . S
C1831 C1830 1.355 . S
C1831 C1833 1.419 . S
C1832 C1830 1.415 . S
C1832 C1837 1.425 . S
C1832 C1839 1.409 . S
C1833 H1825 0.930 . S
C1833 C1831 1.419 . S
C1833 C1834 1.362 . S
C1834 H1826 0.930 . S
C1834 C1833 1.362 . S
C1834 C1837 1.409 . S
C1835 H1827 0.930 . S
C1835 C1836 1.355 . S
C1835 C1837 1.415 . S
C1836 C1835 1.355 . S
C1836 C1838 1.419 . S
C1837 C1832 1.425 . S
C1837 C1834 1.409 . S
C1837 C1835 1.415 . S
C1838 H1828 0.930 . S
C1838 C1836 1.419 . S
C1838 C1839 1.362 . S
C1839 H1829 0.930 . S
C1839 C1832 1.409 . S
C1839 C1838 1.362 . S
H1840 C1846 0.930 . S
H1841 C1849 0.930 . S
H1842 C1850 0.930 . S
H1843 C1851 0.930 . S
H1844 C1854 0.930 . S
H1845 C1855 0.930 . S
C1846 H1840 0.930 . S
C1846 C1847 1.355 . S
C1846 C1848 1.415 . S
C1847 C1846 1.355 . S
C1847 C1849 1.419 . S
C1848 C1846 1.415 . S
C1848 C1853 1.425 . S
C1848 C1855 1.409 . S
C1849 H1841 0.930 . S
C1849 C1847 1.419 . S
C1849 C1850 1.362 . S
C1850 H1842 0.930 . S
C1850 C1849 1.362 . S
C1850 C1853 1.409 . S
C1851 H1843 0.930 . S
C1851 C1852 1.355 . S
C1851 C1853 1.415 . S
C1852 C1851 1.355 . S
C1852 C1854 1.419 . S
C1853 C1848 1.425 . S
C1853 C1850 1.409 . S
C1853 C1851 1.415 . S
C1854 H1844 0.930 . S
C1854 C1852 1.419 . S
C1854 C1855 1.362 . S
C1855 H1845 0.930 . S
C1855 C1848 1.409 . S
C1855 C1854 1.362 . S
H1856 C1862 0.930 . S
H1857 C1865 0.930 . S
H1858 C1866 0.930 . S
H1859 C1867 0.930 . S
H1860 C1870 0.930 . S
H1861 C1871 0.930 . S
C1862 H1856 0.930 . S
C1862 C1863 1.355 . S
C1862 C1864 1.415 . S
C1863 C1862 1.355 . S
C1863 C1865 1.419 . S
C1864 C1862 1.415 . S
C1864 C1869 1.425 . S
C1864 C1871 1.409 1_565 S
C1865 H1857 0.930 . S
C1865 C1863 1.419 . S
C1865 C1866 1.362 . S
C1866 H1858 0.930 . S
C1866 C1865 1.362 . S
C1866 C1869 1.409 . S
C1867 H1859 0.930 . S
C1867 C1868 1.355 1_565 S
C1867 C1869 1.415 . S
C1868 C1867 1.355 1_545 S
C1868 C1870 1.419 . S
C1869 C1864 1.425 . S
C1869 C1866 1.409 . S
C1869 C1867 1.415 . S
C1870 H1860 0.930 . S
C1870 C1868 1.419 . S
C1870 C1871 1.362 . S
C1871 H1861 0.930 . S
C1871 C1864 1.409 1_545 S
C1871 C1870 1.362 . S
H1872 C1878 0.940 . S
H1873 C1881 0.930 . S
H1874 C1882 0.930 . S
H1875 C1883 0.930 . S
H1876 C1886 0.930 . S
H1877 C1887 0.930 . S
C1878 H1872 0.940 . S
C1878 C1879 1.355 . S
C1878 C1880 1.415 . S
C1879 C1878 1.355 . S
C1879 C1881 1.419 . S
C1880 C1878 1.415 . S
C1880 C1885 1.425 . S
C1880 C1887 1.409 . S
C1881 H1873 0.930 . S
C1881 C1879 1.419 . S
C1881 C1882 1.362 . S
C1882 H1874 0.930 . S
C1882 C1881 1.362 . S
C1882 C1885 1.409 . S
C1883 H1875 0.930 . S
C1883 C1884 1.355 . S
C1883 C1885 1.415 . S
C1884 C1883 1.355 . S
C1884 C1886 1.419 . S
C1885 C1880 1.425 . S
C1885 C1882 1.409 . S
C1885 C1883 1.415 . S
C1886 H1876 0.930 . S
C1886 C1884 1.419 . S
C1886 C1887 1.362 . S
C1887 H1877 0.930 . S
C1887 C1880 1.409 . S
C1887 C1886 1.362 . S
H1888 C1894 0.930 . S
H1889 C1897 0.930 . S
H1890 C1898 0.930 . S
H1891 C1899 0.930 . S
H1892 C1902 0.930 . S
H1893 C1903 0.930 . S
C1894 H1888 0.930 . S
C1894 C1895 1.355 . S
C1894 C1896 1.415 . S
C1895 C1894 1.355 . S
C1895 C1897 1.419 . S
C1896 C1894 1.415 . S
C1896 C1901 1.425 . S
C1896 C1903 1.409 . S
C1897 H1889 0.930 . S
C1897 C1895 1.419 . S
C1897 C1898 1.362 . S
C1898 H1890 0.930 . S
C1898 C1897 1.362 . S
C1898 C1901 1.409 . S
C1899 H1891 0.930 . S
C1899 C1900 1.355 . S
C1899 C1901 1.415 . S
C1900 C1899 1.355 . S
C1900 C1902 1.419 . S
C1901 C1896 1.425 . S
C1901 C1898 1.409 . S
C1901 C1899 1.415 . S
C1902 H1892 0.930 . S
C1902 C1900 1.419 . S
C1902 C1903 1.362 . S
C1903 H1893 0.930 . S
C1903 C1896 1.409 . S
C1903 C1902 1.362 . S
H1904 C1910 0.930 . S
H1905 C1913 0.930 . S
H1906 C1914 0.930 . S
H1907 C1915 0.930 . S
H1908 C1918 0.930 . S
H1909 C1919 0.930 . S
C1910 H1904 0.930 . S
C1910 C1911 1.355 . S
C1910 C1912 1.415 . S
C1911 C1910 1.355 . S
C1911 C1913 1.419 . S
C1912 C1910 1.415 . S
C1912 C1917 1.425 . S
C1912 C1919 1.409 . S
C1913 H1905 0.930 . S
C1913 C1911 1.419 . S
C1913 C1914 1.362 . S
C1914 H1906 0.930 . S
C1914 C1913 1.362 . S
C1914 C1917 1.409 . S
C1915 H1907 0.930 . S
C1915 C1916 1.355 . S
C1915 C1917 1.415 . S
C1916 C1915 1.355 . S
C1916 C1918 1.419 . S
C1917 C1912 1.425 . S
C1917 C1914 1.409 . S
C1917 C1915 1.415 . S
C1918 H1908 0.930 . S
C1918 C1916 1.419 . S
C1918 C1919 1.362 . S
C1919 H1909 0.930 . S
C1919 C1912 1.409 . S
C1919 C1918 1.362 . S
H1920 C1926 0.930 . S
H1921 C1929 0.930 . S
H1922 C1930 0.930 . S
H1923 C1931 0.930 . S
H1924 C1934 0.923 1_556 S
H1925 C1935 0.930 . S
C1926 H1920 0.930 . S
C1926 C1927 1.355 . S
C1926 C1928 1.415 . S
C1927 C1926 1.355 . S
C1927 C1929 1.419 . S
C1928 C1926 1.415 . S
C1928 C1933 1.425 . S
C1928 C1935 1.409 . S
C1929 H1921 0.930 . S
C1929 C1927 1.419 . S
C1929 C1930 1.362 . S
C1930 H1922 0.930 . S
C1930 C1929 1.362 . S
C1930 C1933 1.409 . S
C1931 H1923 0.930 . S
C1931 C1932 1.355 . S
C1931 C1933 1.415 . S
C1932 C1931 1.355 . S
C1932 C1934 1.419 . S
C1933 C1928 1.425 . S
C1933 C1930 1.409 . S
C1933 C1931 1.415 . S
C1934 H1924 0.923 1_554 S
C1934 C1932 1.419 . S
C1934 C1935 1.362 . S
C1935 H1925 0.930 . S
C1935 C1928 1.409 . S
C1935 C1934 1.362 . S
H1936 C1942 0.930 . S
H1937 C1945 0.930 . S
H1938 C1946 0.930 . S
H1939 C1947 0.930 . S
H1940 C1950 0.930 . S
H1941 C1951 0.930 . S
C1942 H1936 0.930 . S
C1942 C1943 1.355 . S
C1942 C1944 1.415 . S
C1943 C1942 1.355 . S
C1943 C1945 1.419 . S
C1944 C1942 1.415 . S
C1944 C1949 1.425 . S
C1944 C1951 1.409 . S
C1945 H1937 0.930 . S
C1945 C1943 1.419 . S
C1945 C1946 1.362 . S
C1946 H1938 0.930 . S
C1946 C1945 1.362 . S
C1946 C1949 1.409 . S
C1947 H1939 0.930 . S
C1947 C1948 1.355 . S
C1947 C1949 1.415 . S
C1948 C1947 1.355 . S
C1948 C1950 1.419 . S
C1949 C1944 1.425 . S
C1949 C1946 1.409 . S
C1949 C1947 1.415 . S
C1950 H1940 0.930 . S
C1950 C1948 1.419 . S
C1950 C1951 1.362 . S
C1951 H1941 0.930 . S
C1951 C1944 1.409 . S
C1951 C1950 1.362 . S
H1952 C1958 0.930 . S
H1953 C1961 0.930 . S
H1954 C1962 0.930 . S
H1955 C1963 0.930 . S
H1956 C1966 0.930 . S
H1957 C1967 0.930 . S
C1958 H1952 0.930 . S
C1958 C1959 1.355 . S
C1958 C1960 1.415 . S
C1959 C1958 1.355 . S
C1959 C1961 1.419 . S
C1960 C1958 1.415 . S
C1960 C1965 1.425 . S
C1960 C1967 1.409 . S
C1961 H1953 0.930 . S
C1961 C1959 1.419 . S
C1961 C1962 1.362 . S
C1962 H1954 0.930 . S
C1962 C1961 1.362 . S
C1962 C1965 1.409 . S
C1963 H1955 0.930 . S
C1963 C1964 1.355 . S
C1963 C1965 1.415 . S
C1964 C1963 1.355 . S
C1964 C1966 1.419 . S
C1965 C1960 1.425 . S
C1965 C1962 1.409 . S
C1965 C1963 1.415 . S
C1966 H1956 0.930 . S
C1966 C1964 1.419 . S
C1966 C1967 1.362 . S
C1967 H1957 0.930 . S
C1967 C1960 1.409 . S
C1967 C1966 1.362 . S
H1968 C1974 0.930 . S
H1969 C1977 0.930 . S
H1970 C1978 0.930 . S
H1971 C1979 0.930 . S
H1972 C1982 0.930 . S
H1973 C1983 0.930 . S
C1974 H1968 0.930 . S
C1974 C1975 1.355 . S
C1974 C1976 1.415 . S
C1975 C1974 1.355 . S
C1975 C1977 1.419 . S
C1976 C1974 1.415 . S
C1976 C1981 1.425 . S
C1976 C1983 1.409 . S
C1977 H1969 0.930 . S
C1977 C1975 1.419 . S
C1977 C1978 1.362 . S
C1978 H1970 0.930 . S
C1978 C1977 1.362 . S
C1978 C1981 1.409 . S
C1979 H1971 0.930 . S
C1979 C1980 1.355 . S
C1979 C1981 1.415 . S
C1980 C1979 1.355 . S
C1980 C1982 1.419 . S
C1981 C1976 1.425 . S
C1981 C1978 1.409 . S
C1981 C1979 1.415 . S
C1982 H1972 0.930 . S
C1982 C1980 1.419 . S
C1982 C1983 1.362 . S
C1983 H1973 0.930 . S
C1983 C1976 1.409 . S
C1983 C1982 1.362 . S
H1984 C1990 0.930 . S
H1985 C1993 0.930 . S
H1986 C1994 0.930 . S
H1987 C1995 0.930 . S
H1988 C1998 0.930 . S
H1989 C1999 0.930 . S
C1990 H1984 0.930 . S
C1990 C1991 1.355 . S
C1990 C1992 1.415 . S
C1991 C1990 1.355 . S
C1991 C1993 1.419 . S
C1992 C1990 1.415 . S
C1992 C1997 1.425 . S
C1992 C1999 1.409 . S
C1993 H1985 0.930 . S
C1993 C1991 1.419 . S
C1993 C1994 1.362 . S
C1994 H1986 0.930 . S
C1994 C1993 1.362 . S
C1994 C1997 1.409 . S
C1995 H1987 0.930 . S
C1995 C1996 1.355 . S
C1995 C1997 1.415 . S
C1996 C1995 1.355 . S
C1996 C1998 1.419 . S
C1997 C1992 1.425 . S
C1997 C1994 1.409 . S
C1997 C1995 1.415 . S
C1998 H1988 0.930 . S
C1998 C1996 1.419 . S
C1998 C1999 1.362 . S
C1999 H1989 0.930 . S
C1999 C1992 1.409 . S
C1999 C1998 1.362 . S
H2000 C2006 0.930 . S
H2001 C2009 0.930 1_655 S
H2002 C2010 0.930 . S
H2003 C2011 0.930 1_655 S
H2004 C2014 0.930 . S
H2005 C2015 0.930 . S
C2006 H2000 0.930 . S
C2006 C2007 1.355 . S
C2006 C2008 1.415 . S
C2007 C2006 1.355 . S
C2007 C2009 1.419 . S
C2008 C2006 1.415 . S
C2008 C2013 1.425 . S
C2008 C2015 1.409 . S
C2009 H2001 0.930 1_455 S
C2009 C2007 1.419 . S
C2009 C2010 1.362 1_455 S
C2010 H2002 0.930 . S
C2010 C2009 1.362 1_655 S
C2010 C2013 1.409 1_655 S
C2011 H2003 0.930 1_455 S
C2011 C2012 1.355 1_556 S
C2011 C2013 1.415 . S
C2012 C2011 1.355 1_554 S
C2012 C2014 1.419 . S
C2013 C2008 1.425 . S
C2013 C2010 1.409 1_455 S
C2013 C2011 1.415 . S
C2014 H2004 0.930 . S
C2014 C2012 1.419 . S
C2014 C2015 1.362 1_554 S
C2015 H2005 0.930 . S
C2015 C2008 1.409 . S
C2015 C2014 1.362 1_556 S
H2016 C2022 0.930 . S
H2017 C2025 0.930 . S
H2018 C2026 0.930 . S
H2019 C2027 0.930 . S
H2020 C2030 0.930 . S
H2021 C2031 0.930 . S
C2022 H2016 0.930 . S
C2022 C2023 1.355 . S
C2022 C2024 1.415 . S
C2023 C2022 1.355 . S
C2023 C2025 1.419 . S
C2024 C2022 1.415 . S
C2024 C2029 1.425 . S
C2024 C2031 1.409 . S
C2025 H2017 0.930 . S
C2025 C2023 1.419 . S
C2025 C2026 1.362 . S
C2026 H2018 0.930 . S
C2026 C2025 1.362 . S
C2026 C2029 1.409 . S
C2027 H2019 0.930 . S
C2027 C2028 1.355 . S
C2027 C2029 1.415 . S
C2028 C2027 1.355 . S
C2028 C2030 1.419 . S
C2029 C2024 1.425 . S
C2029 C2026 1.409 . S
C2029 C2027 1.415 . S
C2030 H2020 0.930 . S
C2030 C2028 1.419 . S
C2030 C2031 1.362 . S
C2031 H2021 0.930 . S
C2031 C2024 1.409 . S
C2031 C2030 1.362 . S
H2032 C2038 0.930 . S
H2033 C2041 0.930 . S
H2034 C2042 0.930 . S
H2035 C2043 0.930 . S
H2036 C2046 0.930 . S
H2037 C2047 0.930 . S
C2038 H2032 0.930 . S
C2038 C2039 1.355 . S
C2038 C2040 1.415 . S
C2039 C2038 1.355 . S
C2039 C2041 1.419 . S
C2040 C2038 1.415 . S
C2040 C2045 1.425 . S
C2040 C2047 1.409 . S
C2041 H2033 0.930 . S
C2041 C2039 1.419 . S
C2041 C2042 1.362 . S
C2042 H2034 0.930 . S
C2042 C2041 1.362 . S
C2042 C2045 1.409 . S
C2043 H2035 0.930 . S
C2043 C2044 1.355 . S
C2043 C2045 1.415 . S
C2044 C2043 1.355 . S
C2044 C2046 1.419 . S
C2045 C2040 1.425 . S
C2045 C2042 1.409 . S
C2045 C2043 1.415 . S
C2046 H2036 0.930 . S
C2046 C2044 1.419 . S
C2046 C2047 1.362 . S
C2047 H2037 0.930 . S
C2047 C2040 1.409 . S
C2047 C2046 1.362 . S
H2048 C2054 0.930 . S
H2049 C2057 0.930 . S
H2050 C2058 0.930 . S
H2051 C2059 0.930 . S
H2052 C2062 0.930 . S
H2053 C2063 0.930 . S
C2054 H2048 0.930 . S
C2054 C2055 1.355 . S
C2054 C2056 1.415 . S
C2055 C2054 1.355 . S
C2055 C2057 1.419 . S
C2056 C2054 1.415 . S
C2056 C2061 1.425 . S
C2056 C2063 1.409 . S
C2057 H2049 0.930 . S
C2057 C2055 1.419 . S
C2057 C2058 1.362 . S
C2058 H2050 0.930 . S
C2058 C2057 1.362 . S
C2058 C2061 1.409 . S
C2059 H2051 0.930 . S
C2059 C2060 1.355 . S
C2059 C2061 1.415 . S
C2060 C2059 1.355 . S
C2060 C2062 1.419 . S
C2061 C2056 1.425 . S
C2061 C2058 1.409 . S
C2061 C2059 1.415 . S
C2062 H2052 0.930 . S
C2062 C2060 1.419 . S
C2062 C2063 1.362 . S
C2063 H2053 0.930 . S
C2063 C2056 1.409 . S
C2063 C2062 1.362 . S
H2064 C2070 0.930 1_655 S
H2065 C2073 0.930 . S
H2066 C2074 0.930 . S
H2067 C2075 0.930 . S
H2068 C2078 0.930 1_655 S
H2069 C2079 0.923 1_655 S
C2070 H2064 0.930 1_455 S
C2070 C2071 1.355 . S
C2070 C2072 1.415 . S
C2071 C2070 1.355 . S
C2071 C2073 1.419 . S
C2072 C2070 1.415 . S
C2072 C2077 1.425 . S
C2072 C2079 1.415 . S
C2073 H2065 0.930 . S
C2073 C2071 1.419 . S
C2073 C2074 1.362 . S
C2074 H2066 0.930 . S
C2074 C2073 1.362 . S
C2074 C2077 1.409 . S
C2075 H2067 0.930 . S
C2075 C2076 1.355 . S
C2075 C2077 1.415 . S
C2076 C2075 1.355 . S
C2076 C2078 1.419 . S
C2077 C2072 1.425 . S
C2077 C2074 1.409 . S
C2077 C2075 1.415 . S
C2078 H2068 0.930 1_455 S
C2078 C2076 1.419 . S
C2078 C2079 1.364 . S
C2079 H2069 0.923 1_455 S
C2079 C2072 1.415 . S
C2079 C2078 1.364 . S
H2080 C2086 0.930 . S
H2081 C2089 0.930 . S
H2082 C2090 0.930 . S
H2083 C2091 0.930 . S
H2084 C2094 0.930 . S
H2085 C2095 0.930 . S
C2086 H2080 0.930 . S
C2086 C2087 1.355 . S
C2086 C2088 1.415 . S
C2087 C2086 1.355 . S
C2087 C2089 1.419 . S
C2088 C2086 1.415 . S
C2088 C2093 1.425 . S
C2088 C2095 1.409 . S
C2089 H2081 0.930 . S
C2089 C2087 1.419 . S
C2089 C2090 1.362 . S
C2090 H2082 0.930 . S
C2090 C2089 1.362 . S
C2090 C2093 1.409 . S
C2091 H2083 0.930 . S
C2091 C2092 1.355 . S
C2091 C2093 1.415 . S
C2092 C2091 1.355 . S
C2092 C2094 1.419 . S
C2093 C2088 1.425 . S
C2093 C2090 1.409 . S
C2093 C2091 1.415 . S
C2094 H2084 0.930 . S
C2094 C2092 1.419 . S
C2094 C2095 1.362 . S
C2095 H2085 0.930 . S
C2095 C2088 1.409 . S
C2095 C2094 1.362 . S
H2096 C2102 0.930 . S
H2097 C2105 0.930 . S
H2098 C2106 0.930 . S
H2099 C2107 0.930 . S
H2100 C2110 0.930 . S
H2101 C2111 0.930 . S
C2102 H2096 0.930 . S
C2102 C2103 1.355 . S
C2102 C2104 1.415 . S
C2103 C2102 1.355 . S
C2103 C2105 1.419 . S
C2104 C2102 1.415 . S
C2104 C2109 1.425 . S
C2104 C2111 1.409 . S
C2105 H2097 0.930 . S
C2105 C2103 1.419 . S
C2105 C2106 1.362 . S
C2106 H2098 0.930 . S
C2106 C2105 1.362 . S
C2106 C2109 1.409 . S
C2107 H2099 0.930 . S
C2107 C2108 1.355 . S
C2107 C2109 1.415 . S
C2108 C2107 1.355 . S
C2108 C2110 1.419 . S
C2109 C2104 1.425 . S
C2109 C2106 1.409 . S
C2109 C2107 1.415 . S
C2110 H2100 0.930 . S
C2110 C2108 1.419 . S
C2110 C2111 1.362 . S
C2111 H2101 0.930 . S
C2111 C2104 1.409 . S
C2111 C2110 1.362 . S
H2112 C2118 0.930 . S
H2113 C2121 0.930 . S
H2114 C2122 0.930 . S
H2115 C2123 0.930 . S
H2116 C2126 0.930 . S
H2117 C2127 0.930 . S
C2118 H2112 0.930 . S
C2118 C2119 1.355 . S
C2118 C2120 1.415 . S
C2119 C2118 1.355 . S
C2119 C2121 1.419 . S
C2120 C2118 1.415 . S
C2120 C2125 1.425 . S
C2120 C2127 1.409 . S
C2121 H2113 0.930 . S
C2121 C2119 1.419 . S
C2121 C2122 1.362 . S
C2122 H2114 0.930 . S
C2122 C2121 1.362 . S
C2122 C2125 1.409 . S
C2123 H2115 0.930 . S
C2123 C2124 1.355 . S
C2123 C2125 1.415 . S
C2124 C2123 1.355 . S
C2124 C2126 1.419 . S
C2125 C2120 1.425 . S
C2125 C2122 1.409 . S
C2125 C2123 1.415 . S
C2126 H2116 0.930 . S
C2126 C2124 1.419 . S
C2126 C2127 1.362 . S
C2127 H2117 0.930 . S
C2127 C2120 1.409 . S
C2127 C2126 1.362 . S
H2128 C2134 0.930 . S
H2129 C2137 0.930 . S
H2130 C2138 0.930 . S
H2131 C2139 0.930 . S
H2132 C2142 0.930 . S
H2133 C2143 0.930 . S
C2134 H2128 0.930 . S
C2134 C2135 1.355 . S
C2134 C2136 1.415 . S
C2135 C2134 1.355 . S
C2135 C2137 1.419 . S
C2136 C2134 1.415 . S
C2136 C2141 1.425 . S
C2136 C2143 1.409 . S
C2137 H2129 0.930 . S
C2137 C2135 1.419 . S
C2137 C2138 1.362 . S
C2138 H2130 0.930 . S
C2138 C2137 1.362 . S
C2138 C2141 1.409 . S
C2139 H2131 0.930 . S
C2139 C2140 1.355 . S
C2139 C2141 1.415 . S
C2140 C2139 1.355 . S
C2140 C2142 1.419 . S
C2141 C2136 1.425 . S
C2141 C2138 1.409 . S
C2141 C2139 1.415 . S
C2142 H2132 0.930 . S
C2142 C2140 1.419 . S
C2142 C2143 1.362 . S
C2143 H2133 0.930 . S
C2143 C2136 1.409 . S
C2143 C2142 1.362 . S
H2144 C2150 0.930 . S
H2145 C2153 0.930 . S
H2146 C2154 0.930 . S
H2147 C2155 0.930 . S
H2148 C2158 0.930 . S
H2149 C2159 0.930 . S
C2150 H2144 0.930 . S
C2150 C2151 1.355 . S
C2150 C2152 1.415 . S
C2151 C2150 1.355 . S
C2151 C2153 1.419 . S
C2152 C2150 1.415 . S
C2152 C2157 1.425 . S
C2152 C2159 1.409 . S
C2153 H2145 0.930 . S
C2153 C2151 1.419 . S
C2153 C2154 1.362 . S
C2154 H2146 0.930 . S
C2154 C2153 1.362 . S
C2154 C2157 1.409 . S
C2155 H2147 0.930 . S
C2155 C2156 1.355 . S
C2155 C2157 1.415 . S
C2156 C2155 1.355 . S
C2156 C2158 1.419 . S
C2157 C2152 1.425 . S
C2157 C2154 1.409 . S
C2157 C2155 1.415 . S
C2158 H2148 0.930 . S
C2158 C2156 1.419 . S
C2158 C2159 1.362 . S
C2159 H2149 0.930 . S
C2159 C2152 1.409 . S
C2159 C2158 1.362 . S
H2160 C2166 0.930 . S
H2161 C2169 0.930 . S
H2162 C2170 0.930 . S
H2163 C2171 0.930 . S
H2164 C2174 0.930 . S
H2165 C2175 0.930 . S
C2166 H2160 0.930 . S
C2166 C2167 1.355 . S
C2166 C2168 1.415 . S
C2167 C2166 1.355 . S
C2167 C2169 1.419 . S
C2168 C2166 1.415 . S
C2168 C2173 1.425 . S
C2168 C2175 1.409 . S
C2169 H2161 0.930 . S
C2169 C2167 1.419 . S
C2169 C2170 1.362 . S
C2170 H2162 0.930 . S
C2170 C2169 1.362 . S
C2170 C2173 1.409 . S
C2171 H2163 0.930 . S
C2171 C2172 1.355 . S
C2171 C2173 1.415 . S
C2172 C2171 1.355 . S
C2172 C2174 1.419 . S
C2173 C2168 1.425 . S
C2173 C2170 1.409 . S
C2173 C2171 1.415 . S
C2174 H2164 0.930 . S
C2174 C2172 1.419 . S
C2174 C2175 1.362 . S
C2175 H2165 0.930 . S
C2175 C2168 1.409 . S
C2175 C2174 1.362 . S
H2176 C2182 0.930 . S
H2177 C2185 0.930 . S
H2178 C2186 0.930 . S
H2179 C2187 0.930 . S
H2180 C2190 0.930 . S
H2181 C2191 0.930 . S
C2182 H2176 0.930 . S
C2182 C2183 1.355 . S
C2182 C2184 1.415 . S
C2183 C2182 1.355 . S
C2183 C2185 1.419 . S
C2184 C2182 1.415 . S
C2184 C2189 1.425 . S
C2184 C2191 1.409 . S
C2185 H2177 0.930 . S
C2185 C2183 1.419 . S
C2185 C2186 1.362 . S
C2186 H2178 0.930 . S
C2186 C2185 1.362 . S
C2186 C2189 1.409 . S
C2187 H2179 0.930 . S
C2187 C2188 1.355 . S
C2187 C2189 1.415 . S
C2188 C2187 1.355 . S
C2188 C2190 1.419 . S
C2189 C2184 1.425 . S
C2189 C2186 1.409 . S
C2189 C2187 1.415 . S
C2190 H2180 0.930 . S
C2190 C2188 1.419 . S
C2190 C2191 1.362 . S
C2191 H2181 0.930 . S
C2191 C2184 1.409 . S
C2191 C2190 1.362 . S
H2192 C2198 0.930 . S
H2193 C2201 0.930 . S
H2194 C2202 0.930 . S
H2195 C2203 0.930 . S
H2196 C2206 0.930 . S
H2197 C2207 0.930 . S
C2198 H2192 0.930 . S
C2198 C2199 1.355 . S
C2198 C2200 1.415 . S
C2199 C2198 1.355 . S
C2199 C2201 1.419 . S
C2200 C2198 1.415 . S
C2200 C2205 1.425 . S
C2200 C2207 1.409 . S
C2201 H2193 0.930 . S
C2201 C2199 1.419 . S
C2201 C2202 1.362 . S
C2202 H2194 0.930 . S
C2202 C2201 1.362 . S
C2202 C2205 1.409 . S
C2203 H2195 0.930 . S
C2203 C2204 1.355 . S
C2203 C2205 1.415 . S
C2204 C2203 1.355 . S
C2204 C2206 1.419 . S
C2205 C2200 1.425 . S
C2205 C2202 1.409 . S
C2205 C2203 1.415 . S
C2206 H2196 0.930 . S
C2206 C2204 1.419 . S
C2206 C2207 1.362 . S
C2207 H2197 0.930 . S
C2207 C2200 1.409 . S
C2207 C2206 1.362 . S
H2208 C2214 0.930 . S
H2209 C2217 0.930 . S
H2210 C2218 0.930 . S
H2211 C2219 0.930 . S
H2212 C2222 0.930 . S
H2213 C2223 0.930 . S
C2214 H2208 0.930 . S
C2214 C2215 1.355 . S
C2214 C2216 1.415 . S
C2215 C2214 1.355 . S
C2215 C2217 1.419 . S
C2216 C2214 1.415 . S
C2216 C2221 1.425 . S
C2216 C2223 1.409 . S
C2217 H2209 0.930 . S
C2217 C2215 1.419 . S
C2217 C2218 1.362 . S
C2218 H2210 0.930 . S
C2218 C2217 1.362 . S
C2218 C2221 1.409 . S
C2219 H2211 0.930 . S
C2219 C2220 1.355 . S
C2219 C2221 1.415 . S
C2220 C2219 1.355 . S
C2220 C2222 1.419 . S
C2221 C2216 1.425 . S
C2221 C2218 1.409 . S
C2221 C2219 1.415 . S
C2222 H2212 0.930 . S
C2222 C2220 1.419 . S
C2222 C2223 1.362 . S
C2223 H2213 0.930 . S
C2223 C2216 1.409 . S
C2223 C2222 1.362 . S
H2224 C2230 0.930 . S
H2225 C2233 0.930 . S
H2226 C2234 0.930 . S
H2227 C2235 0.930 . S
H2228 C2238 0.930 . S
H2229 C2239 0.930 . S
C2230 H2224 0.930 . S
C2230 C2231 1.355 . S
C2230 C2232 1.415 . S
C2231 C2230 1.355 . S
C2231 C2233 1.419 . S
C2232 C2230 1.415 . S
C2232 C2237 1.425 . S
C2232 C2239 1.409 . S
C2233 H2225 0.930 . S
C2233 C2231 1.419 . S
C2233 C2234 1.362 . S
C2234 H2226 0.930 . S
C2234 C2233 1.362 . S
C2234 C2237 1.409 . S
C2235 H2227 0.930 . S
C2235 C2236 1.355 . S
C2235 C2237 1.415 . S
C2236 C2235 1.355 . S
C2236 C2238 1.419 . S
C2237 C2232 1.425 . S
C2237 C2234 1.409 . S
C2237 C2235 1.415 . S
C2238 H2228 0.930 . S
C2238 C2236 1.419 . S
C2238 C2239 1.362 . S
C2239 H2229 0.930 . S
C2239 C2232 1.409 . S
C2239 C2238 1.362 . S
H2240 C2246 0.930 . S
H2241 C2249 0.930 . S
H2242 C2250 0.930 . S
H2243 C2251 0.930 . S
H2244 C2254 0.930 . S
H2245 C2255 0.930 . S
C2246 H2240 0.930 . S
C2246 C2247 1.355 . S
C2246 C2248 1.415 . S
C2247 C2246 1.355 . S
C2247 C2249 1.419 . S
C2248 C2246 1.415 . S
C2248 C2253 1.425 . S
C2248 C2255 1.409 . S
C2249 H2241 0.930 . S
C2249 C2247 1.419 . S
C2249 C2250 1.362 . S
C2250 H2242 0.930 . S
C2250 C2249 1.362 . S
C2250 C2253 1.409 . S
C2251 H2243 0.930 . S
C2251 C2252 1.355 . S
C2251 C2253 1.415 . S
C2252 C2251 1.355 . S
C2252 C2254 1.419 . S
C2253 C2248 1.425 . S
C2253 C2250 1.409 . S
C2253 C2251 1.415 . S
C2254 H2244 0.930 . S
C2254 C2252 1.419 . S
C2254 C2255 1.362 . S
C2255 H2245 0.930 . S
C2255 C2248 1.409 . S
C2255 C2254 1.362 . S
H2256 C2262 0.930 . S
H2257 C2265 0.930 . S
H2258 C2266 0.930 . S
H2259 C2267 0.930 . S
H2260 C2270 0.930 . S
H2261 C2271 0.930 . S
C2262 H2256 0.930 . S
C2262 C2263 1.355 . S
C2262 C2264 1.415 . S
C2263 C2262 1.355 . S
C2263 C2265 1.419 . S
C2264 C2262 1.415 . S
C2264 C2269 1.425 . S
C2264 C2271 1.409 . S
C2265 H2257 0.930 . S
C2265 C2263 1.419 . S
C2265 C2266 1.362 . S
C2266 H2258 0.930 . S
C2266 C2265 1.362 . S
C2266 C2269 1.409 . S
C2267 H2259 0.930 . S
C2267 C2268 1.355 . S
C2267 C2269 1.415 . S
C2268 C2267 1.355 . S
C2268 C2270 1.419 . S
C2269 C2264 1.425 . S
C2269 C2266 1.409 . S
C2269 C2267 1.415 . S
C2270 H2260 0.930 . S
C2270 C2268 1.419 . S
C2270 C2271 1.362 . S
C2271 H2261 0.930 . S
C2271 C2264 1.409 . S
C2271 C2270 1.362 . S
H2272 C2278 0.930 . S
H2273 C2281 0.930 . S
H2274 C2282 0.930 1_556 S
H2275 C2283 0.930 . S
H2276 C2286 0.930 . S
H2277 C2287 0.930 . S
C2278 H2272 0.930 . S
C2278 C2279 1.355 . S
C2278 C2280 1.415 . S
C2279 C2278 1.355 . S
C2279 C2281 1.419 . S
C2280 C2278 1.415 . S
C2280 C2285 1.425 . S
C2280 C2287 1.409 1_565 S
C2281 H2273 0.930 . S
C2281 C2279 1.419 . S
C2281 C2282 1.362 . S
C2282 H2274 0.930 1_554 S
C2282 C2281 1.362 . S
C2282 C2285 1.409 . S
C2283 H2275 0.930 . S
C2283 C2284 1.355 1_565 S
C2283 C2285 1.415 . S
C2284 C2283 1.355 1_545 S
C2284 C2286 1.419 . S
C2285 C2280 1.425 . S
C2285 C2282 1.409 . S
C2285 C2283 1.415 . S
C2286 H2276 0.930 . S
C2286 C2284 1.419 . S
C2286 C2287 1.362 . S
C2287 H2277 0.930 . S
C2287 C2280 1.409 1_545 S
C2287 C2286 1.362 . S
H2288 C2294 0.930 . S
H2289 C2297 0.930 . S
H2290 C2298 0.930 . S
H2291 C2299 0.930 . S
H2292 C2302 0.930 . S
H2293 C2303 0.930 . S
C2294 H2288 0.930 . S
C2294 C2295 1.355 . S
C2294 C2296 1.415 . S
C2295 C2294 1.355 . S
C2295 C2297 1.419 . S
C2296 C2294 1.415 . S
C2296 C2301 1.425 . S
C2296 C2303 1.409 . S
C2297 H2289 0.930 . S
C2297 C2295 1.419 . S
C2297 C2298 1.362 . S
C2298 H2290 0.930 . S
C2298 C2297 1.362 . S
C2298 C2301 1.409 . S
C2299 H2291 0.930 . S
C2299 C2300 1.355 . S
C2299 C2301 1.415 . S
C2300 C2299 1.355 . S
C2300 C2302 1.419 . S
C2301 C2296 1.425 . S
C2301 C2298 1.409 . S
C2301 C2299 1.415 . S
C2302 H2292 0.930 . S
C2302 C2300 1.419 . S
C2302 C2303 1.362 . S
C2303 H2293 0.930 . S
C2303 C2296 1.409 . S
C2303 C2302 1.362 . S
H2304 C2310 0.930 . S
H2305 C2313 0.930 . S
H2306 C2314 0.930 1_556 S
H2307 C2315 0.930 . S
H2308 C2318 0.930 . S
H2309 C2319 0.930 . S
C2310 H2304 0.930 . S
C2310 C2311 1.355 . S
C2310 C2312 1.415 . S
C2311 C2310 1.355 . S
C2311 C2313 1.419 1_554 S
C2312 C2310 1.415 . S
C2312 C2317 1.425 . S
C2312 C2319 1.409 . S
C2313 H2305 0.930 . S
C2313 C2311 1.419 1_556 S
C2313 C2314 1.362 1_556 S
C2314 H2306 0.930 1_554 S
C2314 C2313 1.362 1_554 S
C2314 C2317 1.409 . S
C2315 H2307 0.930 . S
C2315 C2316 1.355 . S
C2315 C2317 1.415 . S
C2316 C2315 1.355 . S
C2316 C2318 1.419 . S
C2317 C2312 1.425 . S
C2317 C2314 1.409 . S
C2317 C2315 1.415 . S
C2318 H2308 0.930 . S
C2318 C2316 1.419 . S
C2318 C2319 1.362 . S
C2319 H2309 0.930 . S
C2319 C2312 1.409 . S
C2319 C2318 1.362 . S
H2320 C2326 0.930 . S
H2321 C2329 0.930 . S
H2322 C2330 0.930 . S
H2323 C2331 0.930 . S
H2324 C2334 0.930 . S
H2325 C2335 0.930 . S
C2326 H2320 0.930 . S
C2326 C2327 1.355 . S
C2326 C2328 1.415 . S
C2327 C2326 1.355 . S
C2327 C2329 1.419 . S
C2328 C2326 1.415 . S
C2328 C2333 1.425 . S
C2328 C2335 1.409 . S
C2329 H2321 0.930 . S
C2329 C2327 1.419 . S
C2329 C2330 1.362 . S
C2330 H2322 0.930 . S
C2330 C2329 1.362 . S
C2330 C2333 1.409 . S
C2331 H2323 0.930 . S
C2331 C2332 1.355 . S
C2331 C2333 1.415 . S
C2332 C2331 1.355 . S
C2332 C2334 1.419 . S
C2333 C2328 1.425 . S
C2333 C2330 1.409 . S
C2333 C2331 1.415 . S
C2334 H2324 0.930 . S
C2334 C2332 1.419 . S
C2334 C2335 1.362 . S
C2335 H2325 0.930 . S
C2335 C2328 1.409 . S
C2335 C2334 1.362 . S
H2336 C2342 0.930 . S
H2337 C2345 0.930 . S
H2338 C2346 0.930 . S
H2339 C2347 0.930 . S
H2340 C2350 0.930 . S
H2341 C2351 0.930 . S
C2342 H2336 0.930 . S
C2342 C2343 1.355 . S
C2342 C2344 1.415 . S
C2343 C2342 1.355 . S
C2343 C2345 1.419 . S
C2344 C2342 1.415 . S
C2344 C2349 1.425 . S
C2344 C2351 1.409 . S
C2345 H2337 0.930 . S
C2345 C2343 1.419 . S
C2345 C2346 1.362 . S
C2346 H2338 0.930 . S
C2346 C2345 1.362 . S
C2346 C2349 1.409 . S
C2347 H2339 0.930 . S
C2347 C2348 1.355 . S
C2347 C2349 1.415 . S
C2348 C2347 1.355 . S
C2348 C2350 1.419 . S
C2349 C2344 1.425 . S
C2349 C2346 1.409 . S
C2349 C2347 1.415 . S
C2350 H2340 0.930 . S
C2350 C2348 1.419 . S
C2350 C2351 1.362 . S
C2351 H2341 0.930 . S
C2351 C2344 1.409 . S
C2351 C2350 1.362 . S
C828 C337 1.949 . S
C823 C8 1.951 . S
C839 C22 1.259 . S
C844 C382 1.227 . S
C855 C35 1.618 . S
C860 C406 1.619 . S
C876 N432 1.135 . S
C871 C49 1.121 . S
C887 C23 1.517 . S
C892 N462 1.581 . S
C908 C496 1.489 . S
C903 C34 1.443 . S
C924 C532 1.124 . S
C919 C48 1.090 . S
C935 C9 1.945 . S
C940 C556 1.927 . S
C951 C64 1.126 . S
C956 N350 1.128 . S
C967 C77 1.012 . S
C972 N372 1.074 . S
C988 C412 1.235 . S
C983 C92 1.248 . S
C1004 C436 1.880 . S
C999 C105 1.851 . S
C1015 C63 1.176 . S
C1020 C466 1.234 . S
C1036 C502 1.374 . S
C1031 C78 1.372 . S
C1052 N522 1.170 . S
C1047 C91 1.138 . S
C1068 C562 1.822 . S
C1063 C106 1.811 . S
C1084 C363 1.786 . S
C1079 C107 1.778 . S
C1100 C592 1.022 . S
C1095 C118 0.975 . S
C1111 C135 1.315 . S
C1116 N612 1.372 . S
C1132 C646 1.646 . S
C1127 C146 1.667 . S
C1143 C65 1.119 . S
C1148 N552 1.089 . S
C1164 N402 1.361 1_565 S
C1159 C79 1.311 . S
C1175 C132 1.171 . S
C1180 C682 1.167 . S
C1196 C706 1.062 . S
C1191 C160 1.095 . S
C1207 C177 1.950 . S
C1212 C346 1.925 1_556 S
C1228 C723 0.862 . S
C1223 C188 0.844 . S
C1239 C204 1.899 . S
C1244 C397 1.904 . S
C1255 C219 1.166 . S
C1260 N680 1.166 . S
C1276 N470 1.268 . S
C1271 C190 1.267 . S
C1292 C607 1.528 . S
C1287 C202 1.540 . S
C1308 C543 1.081 . S
C1303 C217 1.017 . S
C1324 C727 1.722 . S
C1319 C175 1.666 . S
C1340 N342 0.982 1_655 S
C1335 C231 0.985 . S
C1351 C246 1.288 . S
C1356 N710 1.297 . S
C1372 C423 0.975 . S
C1367 C259 0.978 . S
C1383 C274 1.922 . S
C1388 C667 1.929 . S
C1399 C232 1.351 . S
C1404 C457 1.334 1_655 S
C1415 C245 1.075 . S
C1420 C633 1.075 . S
C1436 N530 1.181 . S
C1431 C260 1.184 . S
C1447 C273 1.661 . S
C1452 C753 1.684 . S
C1463 C275 1.848 . S
C1468 C352 1.796 1_565 S
C1479 C286 0.984 . S
C1484 C603 1.062 . S
C1495 C303 1.257 . S
C1500 N500 1.261 . S
C1511 C314 1.471 . S
C1516 C637 1.475 . S
C1532 N740 1.072 . S
C1527 C233 1.074 1_565 S
C1548 N410 1.217 . S
C1543 C247 1.214 . S
C1564 C453 1.070 . S
C1559 C300 1.020 . S
C1580 C367 1.065 . S
C1575 C328 1.112 . S
C1591 C36 1.904 . S
C1596 C757 1.914 . S
C1612 C712 1.273 . S
C1607 C50 1.283 . S
C1628 C796 1.573 . S
C1623 C7 1.585 . S
C1639 C21 1.066 . S
C1644 N672 1.118 . S
C1655 C51 1.516 . S
C1660 N582 1.596 . S
C1676 C616 1.444 . S
C1671 C6 1.471 . S
C1692 C652 1.130 . S
C1687 C20 1.100 . S
C1708 C736 1.929 . S
C1703 C37 1.934 . S
C1724 N770 1.083 . S
C1719 C162 1.051 . S
C1735 C119 0.997 . S
C1740 N702 1.049 . S
C1751 C134 1.228 . S
C1756 C802 1.190 . S
C1772 C676 1.894 . S
C1767 C147 1.853 . S
C1788 C586 1.216 . S
C1783 C161 1.154 . S
C1799 C120 1.346 . S
C1804 C622 1.341 . S
C1820 N642 1.146 1_655 S
C1815 C133 1.117 . S
C1831 C148 1.787 . S
C1836 C742 1.797 . S
C1852 C783 1.813 . S
C1847 C149 1.835 . S
C1868 C472 0.976 . S
C1863 C76 0.982 . S
C1884 N492 1.406 . S
C1879 C93 1.378 1_565 S
C1895 C104 1.615 . S
C1900 C526 1.595 . S
C1916 N732 1.094 . S
C1911 C163 1.128 . S
C1927 C121 1.335 . S
C1932 N792 1.347 . S
C1948 C442 1.059 . S
C1943 C90 1.020 . S
C1964 C376 0.977 . S
C1959 C62 1.020 . S
C1975 C203 1.670 . S
C1980 C766 1.666 . S
C1996 C393 0.938 . S
C1991 C216 0.877 . S
C2012 C787 1.637 . S
C2007 C174 1.660 . S
C2023 C191 1.172 . S
C2028 N440 1.179 . S
C2039 C218 1.217 . S
C2044 N590 1.221 . S
C2055 C176 1.789 . S
C2060 C487 1.785 . S
C2071 C189 1.038 . S
C2076 C663 1.059 . S
C2087 C205 1.978 . S
C2092 C547 1.968 . S
C2108 N762 0.919 . S
C2103 C329 0.862 . S
C2119 C288 1.256 . S
C2124 N380 1.262 . S
C2140 C813 0.975 . S
C2135 C301 0.953 . S
C2151 C316 1.877 . S
C2156 C427 1.841 . S
C2167 C330 1.402 . S
C2172 C577 1.366 . S
C2188 C513 1.090 . S
C2183 C287 1.055 . S
C2199 C302 1.204 . S
C2204 N650 1.204 . S
C2220 C573 1.706 . S
C2215 C315 1.690 . S
C2236 C772 1.740 . S
C2231 C317 1.790 . S
C2252 C483 1.047 . S
C2247 C244 0.970 . S
C2263 C261 1.256 . S
C2268 N620 1.255 . S
C2284 C517 1.474 . S
C2279 C272 1.504 . S
C2300 N560 1.109 . S
C2295 C331 1.110 . S
C2311 C289 1.212 . S
C2316 N800 1.215 . S
C2332 C693 1.086 . S
C2327 C258 1.070 . S
C2348 C697 1.121 . S
C2343 C230 1.066 . S
