# Generated by pormake.
# Topology gar, (4,6)-cn, num edge types: 1
# Building blocks:
#     Node 0, Type 0, BuildingBlock: QUQFOY_clean_sbu_3, # of connection points: 4
#     Node 1, Type 0, BuildingBlock: QUQFOY_clean_sbu_3, # of connection points: 4
#     Node 2, Type 0, BuildingBlock: QUQFOY_clean_sbu_3, # of connection points: 4
#     Node 3, Type 0, BuildingBlock: QUQFOY_clean_sbu_3, # of connection points: 4
#     Node 4, Type 0, BuildingBlock: QUQFOY_clean_sbu_3, # of connection points: 4
#     Node 5, Type 0, BuildingBlock: QUQFOY_clean_sbu_3, # of connection points: 4
#     Node 6, Type 0, BuildingBlock: QUQFOY_clean_sbu_3, # of connection points: 4
#     Node 7, Type 0, BuildingBlock: QUQFOY_clean_sbu_3, # of connection points: 4
#     Node 8, Type 0, BuildingBlock: QUQFOY_clean_sbu_3, # of connection points: 4
#     Node 9, Type 0, BuildingBlock: QUQFOY_clean_sbu_3, # of connection points: 4
#     Node 10, Type 0, BuildingBlock: QUQFOY_clean_sbu_3, # of connection points: 4
#     Node 11, Type 0, BuildingBlock: QUQFOY_clean_sbu_3, # of connection points: 4
#     Node 12, Type 0, BuildingBlock: QUQFOY_clean_sbu_3, # of connection points: 4
#     Node 13, Type 0, BuildingBlock: QUQFOY_clean_sbu_3, # of connection points: 4
#     Node 14, Type 0, BuildingBlock: QUQFOY_clean_sbu_3, # of connection points: 4
#     Node 15, Type 0, BuildingBlock: QUQFOY_clean_sbu_3, # of connection points: 4
#     Node 16, Type 0, BuildingBlock: QUQFOY_clean_sbu_3, # of connection points: 4
#     Node 17, Type 0, BuildingBlock: QUQFOY_clean_sbu_3, # of connection points: 4
#     Node 18, Type 0, BuildingBlock: QUQFOY_clean_sbu_3, # of connection points: 4
#     Node 19, Type 0, BuildingBlock: QUQFOY_clean_sbu_3, # of connection points: 4
#     Node 20, Type 0, BuildingBlock: QUQFOY_clean_sbu_3, # of connection points: 4
#     Node 21, Type 0, BuildingBlock: QUQFOY_clean_sbu_3, # of connection points: 4
#     Node 22, Type 0, BuildingBlock: QUQFOY_clean_sbu_3, # of connection points: 4
#     Node 23, Type 0, BuildingBlock: QUQFOY_clean_sbu_3, # of connection points: 4
#     Node 24, Type 1, BuildingBlock: KUMBOL_clean_sbu_0, # of connection points: 6
#     Node 25, Type 1, BuildingBlock: KUMBOL_clean_sbu_0, # of connection points: 6
#     Node 26, Type 1, BuildingBlock: KUMBOL_clean_sbu_0, # of connection points: 6
#     Node 27, Type 1, BuildingBlock: KUMBOL_clean_sbu_0, # of connection points: 6
#     Node 28, Type 1, BuildingBlock: KUMBOL_clean_sbu_0, # of connection points: 6
#     Node 29, Type 1, BuildingBlock: KUMBOL_clean_sbu_0, # of connection points: 6
#     Node 30, Type 1, BuildingBlock: KUMBOL_clean_sbu_0, # of connection points: 6
#     Node 31, Type 1, BuildingBlock: KUMBOL_clean_sbu_0, # of connection points: 6
#     Node 32, Type 1, BuildingBlock: KUMBOL_clean_sbu_0, # of connection points: 6
#     Node 33, Type 1, BuildingBlock: KUMBOL_clean_sbu_0, # of connection points: 6
#     Node 34, Type 1, BuildingBlock: KUMBOL_clean_sbu_0, # of connection points: 6
#     Node 35, Type 1, BuildingBlock: KUMBOL_clean_sbu_0, # of connection points: 6
#     Node 36, Type 1, BuildingBlock: KUMBOL_clean_sbu_0, # of connection points: 6
#     Node 37, Type 1, BuildingBlock: KUMBOL_clean_sbu_0, # of connection points: 6
#     Node 38, Type 1, BuildingBlock: KUMBOL_clean_sbu_0, # of connection points: 6
#     Node 39, Type 1, BuildingBlock: KUMBOL_clean_sbu_0, # of connection points: 6
#     Edge 40, Type (0, 1), BuildingBlock: XIVTED_clean_linker_0, # of connection points: 2
#     Edge 41, Type (0, 1), BuildingBlock: XIVTED_clean_linker_0, # of connection points: 2
#     Edge 42, Type (0, 1), BuildingBlock: XIVTED_clean_linker_0, # of connection points: 2
#     Edge 43, Type (0, 1), BuildingBlock: XIVTED_clean_linker_0, # of connection points: 2
#     Edge 44, Type (0, 1), BuildingBlock: XIVTED_clean_linker_0, # of connection points: 2
#     Edge 45, Type (0, 1), BuildingBlock: XIVTED_clean_linker_0, # of connection points: 2
#     Edge 46, Type (0, 1), BuildingBlock: XIVTED_clean_linker_0, # of connection points: 2
#     Edge 47, Type (0, 1), BuildingBlock: XIVTED_clean_linker_0, # of connection points: 2
#     Edge 48, Type (0, 1), BuildingBlock: XIVTED_clean_linker_0, # of connection points: 2
#     Edge 49, Type (0, 1), BuildingBlock: XIVTED_clean_linker_0, # of connection points: 2
#     Edge 50, Type (0, 1), BuildingBlock: XIVTED_clean_linker_0, # of connection points: 2
#     Edge 51, Type (0, 1), BuildingBlock: XIVTED_clean_linker_0, # of connection points: 2
#     Edge 52, Type (0, 1), BuildingBlock: XIVTED_clean_linker_0, # of connection points: 2
#     Edge 53, Type (0, 1), BuildingBlock: XIVTED_clean_linker_0, # of connection points: 2
#     Edge 54, Type (0, 1), BuildingBlock: XIVTED_clean_linker_0, # of connection points: 2
#     Edge 55, Type (0, 1), BuildingBlock: XIVTED_clean_linker_0, # of connection points: 2
#     Edge 56, Type (0, 1), BuildingBlock: XIVTED_clean_linker_0, # of connection points: 2
#     Edge 57, Type (0, 1), BuildingBlock: XIVTED_clean_linker_0, # of connection points: 2
#     Edge 58, Type (0, 1), BuildingBlock: XIVTED_clean_linker_0, # of connection points: 2
#     Edge 59, Type (0, 1), BuildingBlock: XIVTED_clean_linker_0, # of connection points: 2
#     Edge 60, Type (0, 1), BuildingBlock: XIVTED_clean_linker_0, # of connection points: 2
#     Edge 61, Type (0, 1), BuildingBlock: XIVTED_clean_linker_0, # of connection points: 2
#     Edge 62, Type (0, 1), BuildingBlock: XIVTED_clean_linker_0, # of connection points: 2
#     Edge 63, Type (0, 1), BuildingBlock: XIVTED_clean_linker_0, # of connection points: 2
#     Edge 64, Type (0, 1), BuildingBlock: XIVTED_clean_linker_0, # of connection points: 2
#     Edge 65, Type (0, 1), BuildingBlock: XIVTED_clean_linker_0, # of connection points: 2
#     Edge 66, Type (0, 1), BuildingBlock: XIVTED_clean_linker_0, # of connection points: 2
#     Edge 67, Type (0, 1), BuildingBlock: XIVTED_clean_linker_0, # of connection points: 2
#     Edge 68, Type (0, 1), BuildingBlock: XIVTED_clean_linker_0, # of connection points: 2
#     Edge 69, Type (0, 1), BuildingBlock: XIVTED_clean_linker_0, # of connection points: 2
#     Edge 70, Type (0, 1), BuildingBlock: XIVTED_clean_linker_0, # of connection points: 2
#     Edge 71, Type (0, 1), BuildingBlock: XIVTED_clean_linker_0, # of connection points: 2
#     Edge 72, Type (0, 1), BuildingBlock: XIVTED_clean_linker_0, # of connection points: 2
#     Edge 73, Type (0, 1), BuildingBlock: XIVTED_clean_linker_0, # of connection points: 2
#     Edge 74, Type (0, 1), BuildingBlock: XIVTED_clean_linker_0, # of connection points: 2
#     Edge 75, Type (0, 1), BuildingBlock: XIVTED_clean_linker_0, # of connection points: 2
#     Edge 76, Type (0, 1), BuildingBlock: XIVTED_clean_linker_0, # of connection points: 2
#     Edge 77, Type (0, 1), BuildingBlock: XIVTED_clean_linker_0, # of connection points: 2
#     Edge 78, Type (0, 1), BuildingBlock: XIVTED_clean_linker_0, # of connection points: 2
#     Edge 79, Type (0, 1), BuildingBlock: XIVTED_clean_linker_0, # of connection points: 2
#     Edge 80, Type (0, 1), BuildingBlock: XIVTED_clean_linker_0, # of connection points: 2
#     Edge 81, Type (0, 1), BuildingBlock: XIVTED_clean_linker_0, # of connection points: 2
#     Edge 82, Type (0, 1), BuildingBlock: XIVTED_clean_linker_0, # of connection points: 2
#     Edge 83, Type (0, 1), BuildingBlock: XIVTED_clean_linker_0, # of connection points: 2
#     Edge 84, Type (0, 1), BuildingBlock: XIVTED_clean_linker_0, # of connection points: 2
#     Edge 85, Type (0, 1), BuildingBlock: XIVTED_clean_linker_0, # of connection points: 2
#     Edge 86, Type (0, 1), BuildingBlock: XIVTED_clean_linker_0, # of connection points: 2
#     Edge 87, Type (0, 1), BuildingBlock: XIVTED_clean_linker_0, # of connection points: 2
#     Edge 88, Type (0, 1), BuildingBlock: XIVTED_clean_linker_0, # of connection points: 2
#     Edge 89, Type (0, 1), BuildingBlock: XIVTED_clean_linker_0, # of connection points: 2
#     Edge 90, Type (0, 1), BuildingBlock: XIVTED_clean_linker_0, # of connection points: 2
#     Edge 91, Type (0, 1), BuildingBlock: XIVTED_clean_linker_0, # of connection points: 2
#     Edge 92, Type (0, 1), BuildingBlock: XIVTED_clean_linker_0, # of connection points: 2
#     Edge 93, Type (0, 1), BuildingBlock: XIVTED_clean_linker_0, # of connection points: 2
#     Edge 94, Type (0, 1), BuildingBlock: XIVTED_clean_linker_0, # of connection points: 2
#     Edge 95, Type (0, 1), BuildingBlock: XIVTED_clean_linker_0, # of connection points: 2
#     Edge 96, Type (0, 1), BuildingBlock: XIVTED_clean_linker_0, # of connection points: 2
#     Edge 97, Type (0, 1), BuildingBlock: XIVTED_clean_linker_0, # of connection points: 2
#     Edge 98, Type (0, 1), BuildingBlock: XIVTED_clean_linker_0, # of connection points: 2
#     Edge 99, Type (0, 1), BuildingBlock: XIVTED_clean_linker_0, # of connection points: 2
#     Edge 100, Type (0, 1), BuildingBlock: XIVTED_clean_linker_0, # of connection points: 2
#     Edge 101, Type (0, 1), BuildingBlock: XIVTED_clean_linker_0, # of connection points: 2
#     Edge 102, Type (0, 1), BuildingBlock: XIVTED_clean_linker_0, # of connection points: 2
#     Edge 103, Type (0, 1), BuildingBlock: XIVTED_clean_linker_0, # of connection points: 2
#     Edge 104, Type (0, 1), BuildingBlock: XIVTED_clean_linker_0, # of connection points: 2
#     Edge 105, Type (0, 1), BuildingBlock: XIVTED_clean_linker_0, # of connection points: 2
#     Edge 106, Type (0, 1), BuildingBlock: XIVTED_clean_linker_0, # of connection points: 2
#     Edge 107, Type (0, 1), BuildingBlock: XIVTED_clean_linker_0, # of connection points: 2
#     Edge 108, Type (0, 1), BuildingBlock: XIVTED_clean_linker_0, # of connection points: 2
#     Edge 109, Type (0, 1), BuildingBlock: XIVTED_clean_linker_0, # of connection points: 2
#     Edge 110, Type (0, 1), BuildingBlock: XIVTED_clean_linker_0, # of connection points: 2
#     Edge 111, Type (0, 1), BuildingBlock: XIVTED_clean_linker_0, # of connection points: 2
#     Edge 112, Type (0, 1), BuildingBlock: XIVTED_clean_linker_0, # of connection points: 2
#     Edge 113, Type (0, 1), BuildingBlock: XIVTED_clean_linker_0, # of connection points: 2
#     Edge 114, Type (0, 1), BuildingBlock: XIVTED_clean_linker_0, # of connection points: 2
#     Edge 115, Type (0, 1), BuildingBlock: XIVTED_clean_linker_0, # of connection points: 2
#     Edge 116, Type (0, 1), BuildingBlock: XIVTED_clean_linker_0, # of connection points: 2
#     Edge 117, Type (0, 1), BuildingBlock: XIVTED_clean_linker_0, # of connection points: 2
#     Edge 118, Type (0, 1), BuildingBlock: XIVTED_clean_linker_0, # of connection points: 2
#     Edge 119, Type (0, 1), BuildingBlock: XIVTED_clean_linker_0, # of connection points: 2
#     Edge 120, Type (0, 1), BuildingBlock: XIVTED_clean_linker_0, # of connection points: 2
#     Edge 121, Type (0, 1), BuildingBlock: XIVTED_clean_linker_0, # of connection points: 2
#     Edge 122, Type (0, 1), BuildingBlock: XIVTED_clean_linker_0, # of connection points: 2
#     Edge 123, Type (0, 1), BuildingBlock: XIVTED_clean_linker_0, # of connection points: 2
#     Edge 124, Type (0, 1), BuildingBlock: XIVTED_clean_linker_0, # of connection points: 2
#     Edge 125, Type (0, 1), BuildingBlock: XIVTED_clean_linker_0, # of connection points: 2
#     Edge 126, Type (0, 1), BuildingBlock: XIVTED_clean_linker_0, # of connection points: 2
#     Edge 127, Type (0, 1), BuildingBlock: XIVTED_clean_linker_0, # of connection points: 2
#     Edge 128, Type (0, 1), BuildingBlock: XIVTED_clean_linker_0, # of connection points: 2
#     Edge 129, Type (0, 1), BuildingBlock: XIVTED_clean_linker_0, # of connection points: 2
#     Edge 130, Type (0, 1), BuildingBlock: XIVTED_clean_linker_0, # of connection points: 2
#     Edge 131, Type (0, 1), BuildingBlock: XIVTED_clean_linker_0, # of connection points: 2
#     Edge 132, Type (0, 1), BuildingBlock: XIVTED_clean_linker_0, # of connection points: 2
#     Edge 133, Type (0, 1), BuildingBlock: XIVTED_clean_linker_0, # of connection points: 2
#     Edge 134, Type (0, 1), BuildingBlock: XIVTED_clean_linker_0, # of connection points: 2
#     Edge 135, Type (0, 1), BuildingBlock: XIVTED_clean_linker_0, # of connection points: 2
# Relax obj value: 0.121
# Max RMSD: 0.327
# Mean RMSD: 0.148
data_MOF--net-gar--node1-QUQFOY_clean_sbu_3--node2-KUMBOL_clean_sbu_0--edge1-XIVTED_clean_linker_0
_symmetry_space_group_name_H-M    P1
_symmetry_Int_Tables_number       1
_symmetry_cell_setting            triclinic
loop_
_symmetry_equiv_pos_as_xyz
'x, y, z'
_cell_length_a     61.671213
_cell_length_b     57.477901
_cell_length_c     56.999951
_cell_angle_alpha  101.24997
_cell_angle_beta   93.350852
_cell_angle_gamma 102.24275
loop_
_atom_site_label
_atom_site_type_symbol
_atom_site_fract_x
_atom_site_fract_y
_atom_site_fract_z
_atom_type_partial_charge
C0 C 0.0748 0.31763 0.3341 0.0
O1 O 0.09094 0.32978 0.32549 0.0
Cd2 Cd 0.12803 0.34801 0.34223 0.0
O3 O 0.07732 0.3124 0.35476 0.0
Cd4 Cd 0.10901 0.31878 0.38699 0.0
C5 C 0.11445 0.38069 0.39408 0.0
O6 O 0.13568 0.31601 0.35902 0.0
O7 O 0.15018 0.32311 0.39551 0.0
O8 O 0.09373 0.27947 0.3974 0.0
C9 C 0.15307 0.32064 0.37343 0.0
O10 O 0.12228 0.38075 0.3739 0.0
C11 C 0.09481 0.28838 0.41983 0.0
O12 O 0.10854 0.36113 0.40171 0.0
O13 O 0.10222 0.31125 0.42669 0.0
C14 C 0.98214 0.77943 0.71704 0.0
O15 O 0.99425 0.77075 0.73025 0.0
Cd16 Cd 0.02842 0.75918 0.72278 0.0
O17 O 0.98813 0.78418 0.69712 0.0
Cd18 Cd 0.01994 0.78036 0.67327 0.0
C19 C 0.00718 0.71921 0.66919 0.0
O20 O 0.0497 0.78931 0.70536 0.0
O21 O 0.05711 0.77214 0.67076 0.0
O22 O 0.02458 0.81831 0.65905 0.0
C23 C 0.06356 0.78057 0.69289 0.0
O24 O 0.01613 0.72285 0.69072 0.0
C25 C 0.02068 0.80794 0.63689 0.0
O26 O 0.00515 0.73691 0.65947 0.0
O27 O 0.01555 0.78481 0.63186 0.0
C28 C 0.57496 0.80993 0.81854 0.0
O29 O 0.59103 0.82264 0.81034 0.0
Cd30 Cd 0.62756 0.84169 0.8283 0.0
O31 O 0.57747 0.8043 0.83901 0.0
Cd32 Cd 0.60858 0.81056 0.87165 0.0
C33 C 0.61193 0.87203 0.88031 0.0
O34 O 0.63673 0.81051 0.84532 0.0
O35 O 0.64977 0.81998 0.88248 0.0
O36 O 0.59648 0.77036 0.88168 0.0
C37 C 0.65361 0.81764 0.86066 0.0
O38 O 0.62026 0.87315 0.86051 0.0
C39 C 0.59506 0.77912 0.90371 0.0
O40 O 0.6063 0.85201 0.88717 0.0
O41 O 0.59977 0.80217 0.9104 0.0
C42 C 0.47712 0.26708 0.21317 0.0
O43 O 0.49041 0.25996 0.2266 0.0
Cd44 Cd 0.52893 0.25996 0.22399 0.0
O45 O 0.48348 0.27539 0.19488 0.0
Cd46 Cd 0.51797 0.28091 0.17421 0.0
C47 C 0.5212 0.22123 0.16896 0.0
O48 O 0.54281 0.29612 0.21048 0.0
O49 O 0.55927 0.29143 0.17839 0.0
O50 O 0.51317 0.31625 0.15837 0.0
C51 C 0.56098 0.29725 0.20114 0.0
O52 O 0.52793 0.22538 0.19126 0.0
C53 C 0.51284 0.30579 0.13647 0.0
O54 O 0.51554 0.23766 0.15948 0.0
O55 O 0.51386 0.28355 0.13226 0.0
C56 C 0.0745 0.82047 0.16808 0.0
O57 O 0.08962 0.81443 0.18005 0.0
Cd58 Cd 0.12298 0.80533 0.16667 0.0
O59 O 0.07712 0.82458 0.14701 0.0
Cd60 Cd 0.10851 0.82844 0.11938 0.0
C61 C 0.10153 0.76608 0.11062 0.0
O62 O 0.13879 0.83929 0.15158 0.0
O63 O 0.14926 0.82671 0.11726 0.0
O64 O 0.1028 0.86998 0.12034 0.0
C65 C 0.15451 0.83431 0.13976 0.0
O66 O 0.11055 0.77126 0.13227 0.0
C67 C 0.10102 0.86937 0.09792 0.0
O68 O 0.09721 0.78295 0.10052 0.0
O69 O 0.10283 0.84948 0.0845 0.0
C70 C 0.48491 0.76559 0.38443 0.0
O71 O 0.49862 0.77503 0.37132 0.0
Cd72 Cd 0.53634 0.79363 0.38449 0.0
O73 O 0.49162 0.76239 0.40508 0.0
Cd74 Cd 0.5302 0.76686 0.42884 0.0
C75 C 0.53179 0.82834 0.44105 0.0
O76 O 0.55251 0.76288 0.39506 0.0
O77 O 0.57127 0.78286 0.42846 0.0
O78 O 0.52619 0.72274 0.42732 0.0
C79 C 0.5714 0.77278 0.40659 0.0
O80 O 0.5345 0.82592 0.41879 0.0
C81 C 0.52998 0.72357 0.44962 0.0
O82 O 0.52957 0.8099 0.45102 0.0
O83 O 0.53245 0.74454 0.46331 0.0
C84 C 0.57092 0.31041 0.66388 0.0
O85 O 0.58598 0.30305 0.67453 0.0
Cd86 Cd 0.62219 0.30148 0.66439 0.0
O87 O 0.57463 0.31948 0.64526 0.0
Cd88 Cd 0.60779 0.3278 0.62032 0.0
C89 C 0.60441 0.26536 0.60691 0.0
O90 O 0.63654 0.33906 0.65443 0.0
O91 O 0.64917 0.32869 0.62083 0.0
O92 O 0.6006 0.36907 0.62068 0.0
C93 C 0.65329 0.33613 0.64346 0.0
O94 O 0.6137 0.26929 0.62832 0.0
C95 C 0.60086 0.36876 0.59836 0.0
O96 O 0.5986 0.2827 0.59873 0.0
O97 O 0.60414 0.34925 0.58555 0.0
C98 C 0.98056 0.26569 0.88675 0.0
O99 O 0.99346 0.27569 0.87321 0.0
Cd100 Cd 0.03184 0.29358 0.88256 0.0
O101 O 0.98825 0.26218 0.9069 0.0
Cd102 Cd 0.02773 0.2671 0.92909 0.0
C103 C 0.03174 0.32949 0.93986 0.0
O104 O 0.04611 0.26156 0.89265 0.0
O105 O 0.06893 0.27735 0.9243 0.0
O106 O 0.0191 0.22321 0.9302 0.0
C107 C 0.06614 0.26882 0.90179 0.0
O108 O 0.03309 0.32649 0.91729 0.0
C109 C 0.02627 0.22496 0.95195 0.0
O110 O 0.02953 0.31126 0.95015 0.0
O111 O 0.033 0.24663 0.96431 0.0
C112 C 0.45396 0.05618 0.33767 0.0
O113 O 0.46693 0.04965 0.32251 0.0
Cd114 Cd 0.45797 0.03351 0.28122 0.0
O115 O 0.43366 0.05582 0.33127 0.0
Cd116 Cd 0.41069 0.04813 0.29146 0.0
C117 C 0.41069 0.98839 0.28166 0.0
O118 O 0.44073 0.06335 0.27036 0.0
O119 O 0.41289 0.04018 0.24712 0.0
O120 O 0.39694 0.08508 0.30209 0.0
C121 C 0.43225 0.05381 0.24914 0.0
O122 O 0.43109 0.99436 0.27785 0.0
C123 C 0.37663 0.07475 0.2952 0.0
O124 O 0.39952 1.00444 0.28788 0.0
O125 O 0.37205 0.05176 0.28791 0.0
C126 C 0.33933 0.13766 0.52488 0.0
O127 O 0.32222 0.12367 0.53 0.0
Cd128 Cd 0.28551 0.13087 0.5308 0.0
O129 O 0.33755 0.15684 0.51742 0.0
Cd130 Cd 0.3057 0.17605 0.50692 0.0
C131 C 0.29752 0.18995 0.56574 0.0
O132 O 0.27467 0.14004 0.49393 0.0
O133 O 0.26569 0.17445 0.50488 0.0
O134 O 0.3151 0.17749 0.46603 0.0
C135 C 0.25939 0.15176 0.49622 0.0
O136 O 0.28871 0.16723 0.56224 0.0
C137 C 0.31656 0.20014 0.46781 0.0
O138 O 0.30691 0.199 0.5491 0.0
O139 O 0.31438 0.21223 0.48841 0.0
C140 C 0.14962 0.02485 0.81596 0.0
O141 O 0.1408 0.03732 0.80371 0.0
Cd142 Cd 0.14792 0.04255 0.76329 0.0
O143 O 0.16411 0.01343 0.80645 0.0
Cd144 Cd 0.18392 1.00865 0.76351 0.0
C145 C 0.20321 0.07383 0.77002 0.0
O146 O 0.1483 1.00628 0.73387 0.0
O147 O 0.17894 0.01107 0.71833 0.0
O148 O 0.18844 0.96486 0.76907 0.0
C149 C 0.15803 0.00923 0.71515 0.0
O150 O 0.18251 0.07298 0.76588 0.0
C151 C 0.20816 0.96535 0.76323 0.0
O152 O 0.20945 0.05419 0.77231 0.0
O153 O 0.21698 0.98518 0.75716 0.0
C154 C 0.35951 0.96869 0.02155 0.0
O155 O 0.34763 0.98205 0.01451 0.0
Cd156 Cd 0.30804 0.97098 0.01348 0.0
O157 O 0.35074 0.95052 0.03026 0.0
Cd158 Cd 0.31469 0.92953 0.04125 0.0
C159 C 0.30093 0.91183 0.9814 0.0
O160 O 0.30189 0.96607 0.05355 0.0
O161 O 0.27635 0.93314 0.04975 0.0
O162 O 0.33575 0.92882 0.07833 0.0
C163 C 0.28211 0.95618 0.05631 0.0
O164 O 0.29939 0.93369 0.98199 0.0
C165 C 0.32855 0.90621 0.07725 0.0
O166 O 0.30638 0.90529 1.00055 0.0
O167 O 0.31455 0.89439 0.05945 0.0
C168 C 0.36529 0.44387 0.04695 0.0
O169 O 0.35271 0.45666 0.04019 0.0
Cd170 Cd 0.31542 0.43937 0.02337 0.0
O171 O 0.35735 0.4218 0.04835 0.0
Cd172 Cd 0.31949 0.3931 0.0455 0.0
C173 C 0.32241 0.38559 0.98609 0.0
O174 O 0.29723 0.42329 0.05394 0.0
O175 O 0.27859 0.38753 0.03638 0.0
O176 O 0.32911 0.39205 0.08701 0.0
C177 C 0.2784 0.40929 0.04611 0.0
O178 O 0.31933 0.4072 0.98988 0.0
C179 C 0.32258 0.36923 0.08501 0.0
O180 O 0.32349 0.37458 1.00337 0.0
O181 O 0.31528 0.35671 0.06398 0.0
C182 C 0.81413 0.07787 0.00714 0.0
O183 O 0.79878 0.06934 0.01912 0.0
Cd184 Cd 0.76979 0.08823 0.03319 0.0
O185 O 0.81522 0.09847 1.00148 0.0
Cd186 Cd 0.79318 0.13044 0.00632 0.0
C187 C 0.79859 0.14397 0.06706 0.0
O188 O 0.75663 0.10319 1.00052 0.0
O189 O 0.75748 0.14117 0.01351 0.0
O190 O 0.79527 0.13448 0.96485 0.0
C191 C 0.74597 0.11957 0.00666 0.0
O192 O 0.78564 0.12316 0.06555 0.0
C193 C 0.80304 0.15735 0.9697 0.0
O194 O 0.80558 0.1508 0.04832 0.0
O195 O 0.8077 0.16761 0.99181 0.0
C196 C 0.14523 0.538 0.26339 0.0
O197 O 0.13754 0.54103 0.24333 0.0
Cd198 Cd 0.15639 0.53893 0.20857 0.0
O199 O 0.16387 0.53188 0.2657 0.0
Cd200 Cd 0.19332 0.52111 0.23979 0.0
C201 C 0.20502 0.58036 0.23561 0.0
O202 O 0.1671 0.50132 0.2061 0.0
O203 O 0.19996 0.51166 0.19606 0.0
O204 O 0.19514 0.48799 0.26053 0.0
C205 C 0.17962 0.5013 0.18944 0.0
O206 O 0.18758 0.57494 0.22066 0.0
C207 C 0.21629 0.49238 0.26359 0.0
O208 O 0.2105 0.56446 0.24604 0.0
O209 O 0.22685 0.51007 0.25541 0.0
C210 C 0.86222 0.94761 0.53794 0.0
O211 O 0.84886 0.95759 0.52787 0.0
Cd212 Cd 0.81076 0.94023 0.51526 0.0
O213 O 0.85523 0.9273 0.54411 0.0
Cd214 Cd 0.81816 0.89758 0.54334 0.0
C215 C 0.81927 0.88506 0.48289 0.0
O216 O 0.79569 0.92754 0.54897 0.0
O217 O 0.77685 0.8909 0.53558 0.0
O218 O 0.82828 0.89921 0.58572 0.0
C219 C 0.77676 0.91316 0.54302 0.0
O220 O 0.81482 0.90594 0.48461 0.0
C221 C 0.8223 0.8765 0.58481 0.0
O222 O 0.82183 0.87631 0.50156 0.0
O223 O 0.81525 0.86299 0.56415 0.0
C224 C 0.97963 0.06753 0.32231 0.0
O225 O 0.99017 0.05776 0.30616 0.0
Cd226 Cd 0.97588 0.04651 0.26453 0.0
O227 O 0.96222 0.07504 0.31541 0.0
Cd228 Cd 0.94066 0.07697 0.27042 0.0
C229 C 0.92235 0.01267 0.26545 0.0
O230 O 0.97479 0.08018 0.24489 0.0
O231 O 0.94359 0.06461 0.2241 0.0
O232 O 0.93489 0.12244 0.28321 0.0
C233 C 0.96444 0.07244 0.22389 0.0
O234 O 0.9427 0.01329 0.26218 0.0
C235 C 0.9153 0.1196 0.27286 0.0
O236 O 0.9158 0.03283 0.26934 0.0
O237 O 0.90692 0.09758 0.26216 0.0
C238 C 0.30861 0.5971 0.51003 0.0
O239 O 0.29533 0.58742 0.52345 0.0
Cd240 Cd 0.26467 0.60192 0.53917 0.0
O241 O 0.30584 0.61603 0.50285 0.0
Cd242 Cd 0.27864 0.64259 0.50729 0.0
C243 C 0.29208 0.66077 0.56701 0.0
O244 O 0.24439 0.61241 0.50781 0.0
O245 O 0.24332 0.65002 0.52005 0.0
O246 O 0.27485 0.64254 0.4645 0.0
C247 C 0.23311 0.62782 0.51549 0.0
O248 O 0.28146 0.63941 0.56779 0.0
C249 C 0.28051 0.66553 0.46713 0.0
O250 O 0.29509 0.66707 0.54698 0.0
O251 O 0.28628 0.67786 0.48847 0.0
C252 C 0.47863 0.56938 0.82589 0.0
O253 O 0.48901 0.55932 0.80974 0.0
Cd254 Cd 0.47536 0.54777 0.76791 0.0
O255 O 0.46139 0.57718 0.81903 0.0
Cd256 Cd 0.43974 0.5793 0.77421 0.0
C257 C 0.4213 0.51504 0.76915 0.0
O258 O 0.47387 0.5813 0.74839 0.0
O259 O 0.44238 0.56722 0.72786 0.0
O260 O 0.43325 0.6246 0.78822 0.0
C261 C 0.46334 0.57381 0.72746 0.0
O262 O 0.44163 0.51545 0.76587 0.0
C263 C 0.41398 0.62177 0.7771 0.0
O264 O 0.41487 0.53527 0.77307 0.0
O265 O 0.40626 0.59997 0.76539 0.0
C266 C 0.64856 0.04135 0.75834 0.0
O267 O 0.64228 0.04611 0.73857 0.0
Cd268 Cd 0.66164 0.04338 0.70431 0.0
O269 O 0.66653 0.03394 0.76097 0.0
Cd270 Cd 0.69721 0.0247 0.73591 0.0
C271 C 0.70982 0.08422 0.73263 0.0
O272 O 0.67107 1.00503 0.7022 0.0
O273 O 0.7039 0.01509 0.69206 0.0
O274 O 0.69945 0.99181 0.75699 0.0
C275 C 0.68358 1.00457 0.68555 0.0
O276 O 0.69266 0.07906 0.71736 0.0
C277 C 0.72061 0.99616 0.75955 0.0
O278 O 0.71494 0.06806 0.74293 0.0
O279 O 0.7309 0.01366 0.75095 0.0
C280 C 0.8351 0.63316 0.01715 0.0
O281 O 0.81731 0.62031 0.02225 0.0
Cd282 Cd 0.78216 0.63067 0.02562 0.0
O283 O 0.83504 0.65345 0.01106 0.0
Cd284 Cd 0.8045 0.67583 1.00289 0.0
C285 C 0.79778 0.68904 0.06223 0.0
O286 O 0.77202 0.6415 0.9896 0.0
O287 O 0.76471 0.67638 1.00256 0.0
O288 O 0.81278 0.67762 0.96166 0.0
C289 C 0.75743 0.65398 0.99308 0.0
O290 O 0.7879 0.66657 0.05813 0.0
C291 C 0.81548 0.7005 0.96408 0.0
O292 O 0.80734 0.69817 0.04571 0.0
O293 O 0.81455 0.71248 0.98514 0.0
C294 C 0.95968 0.56265 0.8372 0.0
O295 O 0.96747 0.5561 0.81749 0.0
Cd296 Cd 0.94699 0.54311 0.77921 0.0
O297 O 0.93934 0.56416 0.83768 0.0
Cd298 Cd 0.90612 0.55885 0.8085 0.0
C299 C 0.90489 0.49899 0.79371 0.0
O300 O 0.92607 0.57282 0.77768 0.0
O301 O 0.89334 0.55114 0.76491 0.0
O302 O 0.89698 0.59666 0.82766 0.0
C303 C 0.91149 0.56339 0.76001 0.0
O304 O 0.92188 0.50488 0.78255 0.0
C305 C 0.87663 0.58712 0.82886 0.0
O306 O 0.89623 0.51515 0.80575 0.0
O307 O 0.87041 0.56413 0.82187 0.0
C308 C 0.84616 0.4753 0.50821 0.0
O309 O 0.83429 0.4894 0.50274 0.0
Cd310 Cd 0.79425 0.47663 0.49932 0.0
O311 O 0.83721 0.45565 0.51439 0.0
Cd312 Cd 0.80115 0.43163 0.52141 0.0
C313 C 0.78976 0.42181 0.46104 0.0
O314 O 0.7847 0.46549 0.53705 0.0
O315 O 0.76252 0.42973 0.52984 0.0
O316 O 0.8208 0.42209 0.5554 0.0
C317 C 0.76556 0.45244 0.53815 0.0
O318 O 0.78774 0.44369 0.46305 0.0
C319 C 0.81428 0.39915 0.54799 0.0
O320 O 0.79439 0.41381 0.47949 0.0
O321 O 0.80097 0.39157 0.52884 0.0
C322 C 0.64776 0.52209 0.31643 0.0
O323 O 0.63741 0.53228 0.30299 0.0
Cd324 Cd 0.64678 0.53982 0.26392 0.0
O325 O 0.66419 0.51314 0.30821 0.0
Cd326 Cd 0.68388 0.5077 0.26487 0.0
C327 C 0.70204 0.57268 0.2713 0.0
O328 O 0.64834 0.50419 0.23464 0.0
O329 O 0.67931 0.511 0.21995 0.0
O330 O 0.68878 0.464 0.2707 0.0
C331 C 0.65829 0.50803 0.21629 0.0
O332 O 0.68119 0.5712 0.26738 0.0
C333 C 0.7081 0.46417 0.26378 0.0
O334 O 0.70889 0.55334 0.27342 0.0
O335 O 0.71657 0.48383 0.25721 0.0
Gd336 Gd 0.0873 0.06901 0.03809 0.0
Gd337 Gd 0.03937 0.02308 0.00761 0.0
C338 C 0.034 0.9417 1.00364 0.0
C339 C 0.036 0.92659 0.96113 0.0
C340 C 0.03743 0.96951 0.9765 0.0
C341 C 0.0362 0.96548 0.9995 0.0
C342 C 0.03669 0.94999 0.95692 0.0
C343 C 0.03464 0.92244 0.98447 0.0
C344 C 0.03021 0.9378 0.02667 0.0
C345 C 0.02774 0.95713 0.04455 0.0
N346 N 0.03527 0.98444 0.01749 0.0
C347 C 0.02996 0.98034 0.03953 0.0
H348 H 0.02806 0.99503 0.05364 0.0
C349 C 0.03487 0.99615 0.95024 0.0
N350 N 0.03749 0.99218 0.97305 0.0
C351 C 0.0344 0.97749 0.93026 0.0
C352 C 0.03568 0.95438 0.93362 0.0
H353 H 0.03395 0.01401 0.94751 0.0
H354 H 0.03328 0.90412 0.98736 0.0
H355 H 0.0962 0.10047 0.99385 0.0
H356 H 0.02846 0.91984 0.0306 0.0
H357 H 0.02422 0.95421 0.06227 0.0
H358 H 0.03568 0.91141 0.94635 0.0
H359 H 0.10027 0.07591 0.09794 0.0
H360 H 0.09327 0.17407 0.02205 0.0
H361 H 0.09789 0.14203 0.98813 0.0
H362 H 0.0918 0.17746 0.10631 0.0
H363 H 0.03302 0.98093 0.91229 0.0
H364 H 0.03511 0.93989 0.9181 0.0
H365 H 0.09022 0.18691 0.0661 0.0
H366 H 0.10349 0.10752 0.13473 0.0
N367 N 0.08931 0.10816 0.03042 0.0
C368 C 0.09237 0.15573 0.02468 0.0
C369 C 0.09506 0.13772 0.00552 0.0
C370 C 0.08985 0.15018 0.04734 0.0
C371 C 0.08877 0.12599 0.04981 0.0
C372 C 0.09397 0.11405 0.00885 0.0
N373 N 0.09129 0.0979 0.07453 0.0
C374 C 0.08978 0.1207 0.07255 0.0
C375 C 0.09931 0.11137 0.1174 0.0
C376 C 0.09589 0.13427 0.11583 0.0
C377 C 0.09733 0.09342 0.09645 0.0
C378 C 0.09169 0.13941 0.09321 0.0
H379 H 0.09757 0.14818 0.1321 0.0
O380 O 0.11647 0.05317 0.03818 0.0
O381 O 0.07234 0.02898 0.0284 0.0
O382 O 0.03338 0.03596 0.04765 0.0
O383 O 0.06094 0.07065 0.06512 0.0
O384 O 0.08726 0.04324 0.0633 0.0
O385 O 0.12068 0.09169 0.04043 0.0
O386 O 0.00999 0.02608 0.98662 0.0
O387 O 0.05383 0.06337 0.01822 0.0
O388 O 0.09054 0.05906 0.99702 0.0
O389 O 0.06832 0.02001 0.98411 0.0
O390 O 0.03875 0.04973 0.98348 0.0
O391 O 0.00672 0.01363 0.02006 0.0
C392 C 0.07704 0.02347 0.04839 0.0
C393 C 0.09072 0.16297 0.09064 0.0
C394 C 0.08981 0.16836 0.06774 0.0
C395 C 0.13044 0.07421 0.04263 0.0
C396 C 0.14746 0.07892 0.0633 0.0
C397 C 0.15051 0.09972 0.08194 0.0
C398 C 0.16067 0.06205 0.06455 0.0
C399 C 0.17673 0.06564 0.08424 0.0
C400 C 0.16629 0.10329 0.10164 0.0
C401 C 0.17936 0.08638 0.10284 0.0
C402 C 0.04193 0.05476 0.06601 0.0
C403 C 0.0484 0.06935 0.99872 0.0
C404 C 0.99642 0.01771 1.0012 0.0
C405 C 0.97612 0.99977 0.99003 0.0
C406 C 0.97567 0.9749 0.98275 0.0
C407 C 0.9567 1.00806 0.98673 0.0
C408 C 0.93659 0.99176 0.97647 0.0
C409 C 0.9557 0.9585 0.97243 0.0
C410 C 0.93616 0.96682 0.96942 0.0
C411 C 0.08451 0.03809 0.98069 0.0
H412 H 0.14071 0.11319 0.0814 0.0
H413 H 0.15868 0.04633 0.0499 0.0
H414 H 0.16845 0.11924 0.116 0.0
H415 H 0.19149 0.08952 0.11831 0.0
H416 H 0.99059 0.96821 0.98514 0.0
H417 H 0.95716 0.02729 0.99277 0.0
H418 H 0.95532 0.93929 0.96689 0.0
H419 H 0.92081 0.95386 0.96156 0.0
Gd420 Gd 0.30271 0.80283 0.29148 0.0
Gd421 Gd 0.32009 0.76437 0.23922 0.0
C422 C 0.27811 0.70653 0.17734 0.0
C423 C 0.27462 0.66953 0.19269 0.0
C424 C 0.29616 0.70824 0.21679 0.0
C425 C 0.29094 0.71992 0.19895 0.0
C426 C 0.28853 0.68272 0.21349 0.0
C427 C 0.26943 0.68141 0.17462 0.0
C428 C 0.2751 0.7186 0.15874 0.0
C429 C 0.2855 0.74317 0.16157 0.0
N430 N 0.29971 0.74411 0.20199 0.0
C431 C 0.29805 0.75564 0.18331 0.0
H432 H 0.30599 0.7747 0.18547 0.0
C433 C 0.31755 0.70988 0.25301 0.0
N434 N 0.30965 0.72158 0.23674 0.0
C435 C 0.31046 0.68466 0.25045 0.0
C436 C 0.2956 0.67105 0.23083 0.0
H437 H 0.32894 0.71954 0.26846 0.0
H438 H 0.2593 0.67089 0.1583 0.0
H439 H 0.31649 0.78997 0.34434 0.0
H440 H 0.26541 0.70894 0.14186 0.0
H441 H 0.28379 0.75254 0.14708 0.0
H442 H 0.26834 0.65001 0.19008 0.0
H443 H 0.2938 0.84945 0.26489 0.0
H444 H 0.35818 0.85412 0.38942 0.0
H445 H 0.33906 0.81061 0.38292 0.0
H446 H 0.35631 0.91544 0.3439 0.0
H447 H 0.3164 0.67574 0.26377 0.0
H448 H 0.29008 0.65153 0.22899 0.0
H449 H 0.365 0.893 0.37444 0.0
H450 H 0.30719 0.89332 0.27107 0.0
N451 N 0.32318 0.82137 0.32902 0.0
C452 C 0.34829 0.84514 0.37247 0.0
C453 C 0.33747 0.82062 0.36892 0.0
C454 C 0.34552 0.85805 0.35449 0.0
C455 C 0.33244 0.84554 0.33274 0.0
C456 C 0.32469 0.80902 0.34709 0.0
N457 N 0.31358 0.84573 0.29549 0.0
C458 C 0.32747 0.85812 0.31551 0.0
C459 C 0.31316 0.88364 0.28365 0.0
C460 C 0.32854 0.89628 0.3032 0.0
C461 C 0.30561 0.85838 0.28021 0.0
C462 C 0.33556 0.88365 0.31969 0.0
H463 H 0.33439 0.91585 0.30575 0.0
O464 O 0.26673 0.79818 0.28496 0.0
O465 O 0.29709 0.76635 0.26751 0.0
O466 O 0.2873 0.77379 0.22757 0.0
O467 O 0.28575 0.80785 0.25702 0.0
O468 O 0.29576 0.76684 0.30365 0.0
O469 O 0.28275 0.80937 0.3212 0.0
O470 O 0.35589 0.76787 0.24603 0.0
O471 O 0.32549 0.80094 0.26285 0.0
O472 O 0.33646 0.79592 0.30227 0.0
O473 O 0.33779 0.76091 0.27422 0.0
O474 O 0.32712 0.79994 0.22652 0.0
O475 O 0.34041 0.75892 0.20964 0.0
C476 C 0.29312 0.75304 0.28252 0.0
C477 C 0.34972 0.89593 0.34062 0.0
C478 C 0.35468 0.88315 0.358 0.0
C479 C 0.26395 0.80065 0.30765 0.0
C480 C 0.24827 0.78028 0.31428 0.0
C481 C 0.22719 0.77078 0.30124 0.0
C482 C 0.25493 0.76886 0.33227 0.0
C483 C 0.24104 0.74785 0.33684 0.0
C484 C 0.2132 0.74998 0.30582 0.0
C485 C 0.2201 0.73843 0.32339 0.0
C486 C 0.27882 0.79294 0.23576 0.0
C487 C 0.32943 0.81394 0.24753 0.0
C488 C 0.35909 0.76646 0.22354 0.0
C489 C 0.37552 0.78697 0.21814 0.0
C490 C 0.39632 0.79568 0.23194 0.0
C491 C 0.36986 0.79927 0.2005 0.0
C492 C 0.38441 0.82034 0.19697 0.0
C493 C 0.41098 0.81657 0.2284 0.0
C494 C 0.40503 0.829 0.21115 0.0
C495 C 0.34506 0.77682 0.29486 0.0
H496 H 0.22174 0.77917 0.2872 0.0
H497 H 0.2713 0.77577 0.34221 0.0
H498 H 0.19702 0.74266 0.29558 0.0
H499 H 0.20898 0.72234 0.32664 0.0
H500 H 0.40103 0.78659 0.24575 0.0
H501 H 0.3537 0.79299 0.19002 0.0
H502 H 0.42692 0.82328 0.23923 0.0
H503 H 0.4166 0.84518 0.20874 0.0
Gd504 Gd 0.53227 0.04044 0.54464 0.0
Gd505 Gd 0.58322 0.05077 0.51616 0.0
C506 C 0.61508 0.12782 0.50859 0.0
C507 C 0.60819 0.12493 0.46563 0.0
C508 C 0.59665 0.0891 0.48265 0.0
C509 C 0.60449 0.10294 0.50551 0.0
C510 C 0.59906 0.09984 0.46241 0.0
C511 C 0.61616 0.1389 0.48868 0.0
C512 C 0.62522 0.14057 0.53138 0.0
C513 C 0.62573 0.12819 0.55006 0.0
N514 N 0.60348 0.09167 0.52441 0.0
C515 C 0.61503 0.10354 0.54616 0.0
H516 H 0.61595 0.09441 0.56084 0.0
C517 C 0.58352 0.04994 0.45757 0.0
N518 N 0.58802 0.06483 0.48005 0.0
C519 C 0.58555 0.0598 0.43703 0.0
C520 C 0.59298 0.08491 0.43945 0.0
H521 H 0.5774 0.03055 0.45533 0.0
H522 H 0.62393 0.15806 0.4908 0.0
H523 H 0.49126 0.06537 0.52566 0.0
H524 H 0.6335 0.15968 0.53448 0.0
H525 H 0.63428 0.13765 0.56753 0.0
H526 H 0.60987 0.13354 0.45032 0.0
H527 H 0.54014 0.99121 0.56687 0.0
H528 H 0.43672 1.00754 0.49031 0.0
H529 H 0.45369 0.05159 0.50359 0.0
H530 H 0.45806 0.93615 0.5055 0.0
H531 H 0.58129 0.04803 0.41934 0.0
H532 H 0.59458 0.09248 0.42349 0.0
H533 H 0.43883 0.96448 0.49044 0.0
H534 H 0.52346 0.94766 0.5598 0.0
N535 N 0.49579 0.02944 0.52466 0.0
C536 C 0.45321 0.01349 0.5001 0.0
C537 C 0.46269 0.03836 0.50762 0.0
C538 C 0.46471 0.9966 0.50617 0.0
C539 C 0.48611 1.00527 0.51903 0.0
C540 C 0.48397 0.04609 0.52022 0.0
N541 N 0.51659 0.9986 0.54191 0.0
C542 C 0.49691 0.98936 0.52774 0.0
C543 C 0.51593 0.95913 0.55045 0.0
C544 C 0.4967 0.94908 0.53456 0.0
C545 C 0.52552 0.98406 0.55422 0.0
C546 C 0.48659 0.9643 0.52348 0.0
H547 H 0.48932 0.92976 0.53172 0.0
O548 O 0.50732 0.03976 0.57023 0.0
O549 O 0.56242 0.06874 0.54107 0.0
O550 O 0.58769 0.05936 0.55662 0.0
O551 O 0.56032 0.02877 0.56336 0.0
O552 O 0.5319 0.07779 0.53742 0.0
O553 O 0.53972 0.06352 0.58063 0.0
O554 O 0.60009 0.02355 0.52514 0.0
O555 O 0.55633 0.02191 0.52526 0.0
O556 O 0.52295 0.04029 0.50576 0.0
O557 O 0.5561 0.05705 0.49134 0.0
O558 O 0.565 0.01607 0.49046 0.0
O559 O 0.61766 0.0515 0.50885 0.0
C560 C 0.55311 0.08557 0.53751 0.0
C561 C 0.46604 0.95537 0.50921 0.0
C562 C 0.45509 0.9715 0.50063 0.0
C563 C 0.51931 0.05823 0.58579 0.0
C564 C 0.50928 0.07932 0.59392 0.0
C565 C 0.52025 0.09765 0.61353 0.0
C566 C 0.48988 0.0823 0.58154 0.0
C567 C 0.48195 0.10373 0.58815 0.0
C568 C 0.51228 0.11866 0.62049 0.0
C569 C 0.49339 0.12179 0.60787 0.0
C570 C 0.58088 0.0422 0.56855 0.0
C571 C 0.55218 1.00701 0.5051 0.0
C572 C 0.6182 0.03156 0.51608 0.0
C573 C 0.62665 0.01294 0.50012 0.0
C574 C 0.61803 1.00481 0.47589 0.0
C575 C 0.6426 1.00216 0.50959 0.0
C576 C 0.65003 0.9833 0.49494 0.0
C577 C 0.62536 0.98621 0.46123 0.0
C578 C 0.64123 0.97548 0.47064 0.0
C579 C 0.53415 0.04968 0.48947 0.0
H580 H 0.5352 0.09582 0.62329 0.0
H581 H 0.48121 0.06825 0.56651 0.0
H582 H 0.52089 0.1327 0.63564 0.0
H583 H 0.48756 0.13826 0.6138 0.0
H584 H 0.60554 0.01269 0.46839 0.0
H585 H 0.64886 1.00815 0.52846 0.0
H586 H 0.61869 0.98005 0.44252 0.0
H587 H 0.64683 0.96127 0.45879 0.0
Gd588 Gd 0.34083 0.28895 0.78233 0.0
Gd589 Gd 0.2857 0.30155 0.76617 0.0
C590 C 0.2578 0.29813 0.68895 0.0
C591 C 0.25852 0.34062 0.68935 0.0
C592 C 0.2708 0.32853 0.72556 0.0
C593 C 0.26689 0.3047 0.71326 0.0
C594 C 0.26592 0.34668 0.71402 0.0
C595 C 0.25446 0.31634 0.67681 0.0
C596 C 0.25108 0.27339 0.67803 0.0
C597 C 0.25227 0.256 0.69175 0.0
N598 N 0.26968 0.28762 0.72581 0.0
C599 C 0.26122 0.2635 0.71586 0.0
H600 H 0.26192 0.24981 0.72617 0.0
C601 C 0.27748 0.35583 0.76332 0.0
N602 N 0.27732 0.33348 0.74944 0.0
C603 C 0.27289 0.3745 0.75273 0.0
C604 C 0.26752 0.37005 0.72788 0.0
H605 H 0.28177 0.35951 0.78252 0.0
H606 H 0.2478 0.31169 0.65805 0.0
H607 H 0.36376 0.34226 0.82073 0.0
H608 H 0.24402 0.26755 0.65941 0.0
H609 H 0.24634 0.23681 0.68379 0.0
H610 H 0.25496 0.35436 0.68008 0.0
H611 H 0.34443 0.23084 0.76878 0.0
H612 H 0.38295 0.32783 0.88868 0.0
H613 H 0.37966 0.35708 0.86283 0.0
H614 H 0.37239 0.24101 0.87191 0.0
H615 H 0.27359 0.39232 0.76373 0.0
H616 H 0.26387 0.38449 0.71972 0.0
H617 H 0.37964 0.28429 0.89207 0.0
H618 H 0.35265 0.19919 0.7894 0.0
N619 N 0.35691 0.30474 0.82254 0.0
C620 C 0.3758 0.32116 0.87014 0.0
C621 C 0.37405 0.3377 0.85558 0.0
C622 C 0.36932 0.29618 0.86022 0.0
C623 C 0.36007 0.28849 0.83598 0.0
C624 C 0.36493 0.32913 0.8316 0.0
N625 N 0.34939 0.25824 0.80087 0.0
C626 C 0.35614 0.26433 0.82472 0.0
C627 C 0.35357 0.21741 0.7996 0.0
C628 C 0.35926 0.22308 0.82446 0.0
C629 C 0.349 0.2354 0.78798 0.0
C630 C 0.36111 0.24693 0.83727 0.0
H631 H 0.36294 0.20917 0.83342 0.0
O632 O 0.36523 0.27631 0.75999 0.0
O633 O 0.31575 0.28995 0.75308 0.0
O634 O 0.28284 0.26082 0.76557 0.0
O635 O 0.31387 0.25698 0.78886 0.0
O636 O 0.33247 0.26184 0.7472 0.0
O637 O 0.37151 0.31398 0.77849 0.0
O638 O 0.26247 0.31295 0.79085 0.0
O639 O 0.31056 0.29979 0.79542 0.0
O640 O 0.34358 0.32947 0.78169 0.0
O641 O 0.31229 0.33314 0.75869 0.0
O642 O 0.29487 0.32865 0.80133 0.0
O643 O 0.25382 0.2772 0.76765 0.0
C644 C 0.31796 0.27148 0.73799 0.0
C645 C 0.36875 0.25414 0.86187 0.0
C646 C 0.37286 0.27877 0.87334 0.0
C647 C 0.37941 0.29731 0.7651 0.0
C648 C 0.4027 0.29691 0.77174 0.0
C649 C 0.40948 0.29477 0.79498 0.0
C650 C 0.41823 0.29823 0.7546 0.0
C651 C 0.44039 0.297 0.76059 0.0
C652 C 0.43147 0.29391 0.80111 0.0
C653 C 0.44682 0.29494 0.78407 0.0
C654 C 0.2933 0.24799 0.77763 0.0
C655 C 0.30895 0.31848 0.81051 0.0
C656 C 0.2472 0.29296 0.78361 0.0
C657 C 0.22432 0.29587 0.779 0.0
C658 C 0.21786 0.30339 0.75824 0.0
C659 C 0.20882 0.29123 0.79565 0.0
C660 C 0.18679 0.2939 0.79152 0.0
C661 C 0.19615 0.30623 0.75409 0.0
C662 C 0.18071 0.30153 0.77054 0.0
C663 C 0.333 0.34211 0.7695 0.0
H664 H 0.39778 0.29372 0.80836 0.0
H665 H 0.41293 0.29959 0.73655 0.0
H666 H 0.43662 0.2923 0.81909 0.0
H667 H 0.46379 0.29418 0.78927 0.0
H668 H 0.22959 0.30707 0.74529 0.0
H669 H 0.21384 0.28522 0.81158 0.0
H670 H 0.19126 0.31213 0.73807 0.0
H671 H 0.16405 0.30415 0.76695 0.0
Gd672 Gd 0.06779 0.01455 0.50569 0.0
Gd673 Gd 0.05948 0.07053 0.53957 0.0
C674 C 0.06936 0.09097 0.62168 0.0
C675 C 0.03171 0.09165 0.63173 0.0
C676 C 0.03917 0.08249 0.58989 0.0
C677 C 0.06143 0.08467 0.59703 0.0
C678 C 0.02409 0.08632 0.60715 0.0
C679 C 0.05431 0.09397 0.63899 0.0
C680 C 0.09225 0.0947 0.62818 0.0
C681 C 0.10668 0.09292 0.61028 0.0
N682 N 0.07553 0.08182 0.57984 0.0
C683 C 0.09802 0.08676 0.58608 0.0
H684 H 0.10941 0.08545 0.57249 0.0
C685 C 0.01102 0.07747 0.55814 0.0
N686 N 0.03242 0.0775 0.56601 0.0
C687 C 0.99542 0.08097 0.57456 0.0
C688 C 0.00192 0.08518 0.59917 0.0
H689 H 0.00574 0.07415 0.53918 0.0
H690 H 0.06005 0.09861 0.658 0.0
H691 H 0.01871 1.00116 0.47144 0.0
H692 H 0.09901 0.09951 0.64692 0.0
H693 H 0.12447 0.09622 0.6151 0.0
H694 H 0.02035 0.09448 0.64526 0.0
H695 H 0.12075 1.00774 0.50753 0.0
H696 H 0.03036 0.98478 0.39755 0.0
H697 H 0.00442 0.98996 0.42865 0.0
H698 H 0.10836 0.98578 0.40138 0.0
H699 H 0.9784 0.08042 0.56821 0.0
H700 H 0.98982 0.08798 0.61186 0.0
H701 H 0.06927 0.98353 0.38754 0.0
H702 H 0.14813 0.99892 0.47945 0.0
N703 N 0.05264 1.00321 0.46502 0.0
C704 C 0.03676 0.98978 0.4164 0.0
C705 C 0.02208 0.99261 0.43388 0.0
C706 C 0.05944 0.99265 0.42348 0.0
C707 C 0.06691 0.99924 0.44826 0.0
C708 C 0.0303 0.99902 0.45822 0.0
N709 N 0.09496 1.00552 0.48002 0.0
C710 C 0.08879 1.00038 0.45601 0.0
C711 C 0.13152 0.99938 0.4726 0.0
C712 C 0.12564 0.99502 0.44786 0.0
C713 C 0.11585 1.00439 0.4885 0.0
C714 C 0.10397 0.99516 0.43925 0.0
H715 H 0.1378 0.99109 0.43558 0.0
O716 O 0.07655 0.98435 0.51868 0.0
O717 O 0.06996 0.0363 0.54388 0.0
O718 O 0.09512 0.07338 0.53021 0.0
O719 O 0.09397 0.04367 0.49589 0.0
O720 O 0.096 0.02057 0.53532 0.0
O721 O 0.0436 0.98004 0.5004 0.0
O722 O 0.0491 0.09987 0.52654 0.0
O723 O 0.05767 0.04903 0.50141 0.0
O724 O 0.03198 0.01273 0.51394 0.0
O725 O 0.03406 0.04075 0.54951 0.0
O726 O 0.03133 0.06446 0.50982 0.0
O727 O 0.0818 0.10643 0.54608 0.0
C728 C 0.08838 0.033 0.5529 0.0
C729 C 0.0969 0.98965 0.41453 0.0
C730 C 0.07466 0.98839 0.40665 0.0
C731 C 0.05715 0.96985 0.511 0.0
C732 C 0.05676 0.94432 0.50106 0.0
C733 C 0.05979 0.93572 0.47702 0.0
C734 C 0.05319 0.92824 0.51662 0.0
C735 C 0.05277 0.90346 0.50868 0.0
C736 C 0.05911 0.91093 0.46877 0.0
C737 C 0.05556 0.89481 0.48446 0.0
C738 C 0.10374 0.06448 0.51063 0.0
C739 C 0.03931 0.0524 0.49224 0.0
C740 C 0.06763 0.11564 0.53511 0.0
C741 C 0.0657 0.1404 0.54552 0.0
C742 C 0.06144 0.14743 0.56942 0.0
C743 C 0.06758 0.15713 0.53049 0.0
C744 C 0.06507 0.18096 0.53893 0.0
C745 C 0.05918 0.17122 0.57814 0.0
C746 C 0.06099 0.18793 0.56304 0.0
C747 C 0.02361 0.02087 0.53393 0.0
H748 H 0.06262 0.94804 0.46477 0.0
H749 H 0.05048 0.93514 0.53508 0.0
H750 H 0.06141 0.90422 0.45019 0.0
H751 H 0.05532 0.87577 0.4778 0.0
H752 H 0.0598 0.13461 0.5812 0.0
H753 H 0.07117 0.15149 0.51211 0.0
H754 H 0.05588 0.17668 0.59661 0.0
H755 H 0.05886 0.20612 0.57011 0.0
Gd756 Gd 0.28721 0.77362 0.7812 0.0
Gd757 Gd 0.33443 0.81416 0.76665 0.0
C758 C 0.32941 0.87768 0.73081 0.0
C759 C 0.34254 0.86538 0.69198 0.0
C760 C 0.34099 0.83948 0.72122 0.0
C761 C 0.33228 0.8558 0.73694 0.0
C762 C 0.34674 0.84442 0.69879 0.0
C763 C 0.33392 0.882 0.70798 0.0
C764 C 0.32313 0.89511 0.74819 0.0
C765 C 0.32077 0.89094 0.7713 0.0
N766 N 0.32847 0.85131 0.75903 0.0
C767 C 0.32373 0.86895 0.77648 0.0
H768 H 0.3219 0.86599 0.7944 0.0
C769 C 0.35705 0.80519 0.71506 0.0
N770 N 0.34534 0.81967 0.72858 0.0
C771 C 0.36287 0.80925 0.69262 0.0
C772 C 0.35738 0.82871 0.68426 0.0
H773 H 0.36175 0.79021 0.72116 0.0
H774 H 0.33155 0.89856 0.70286 0.0
H775 H 0.29879 0.72174 0.75251 0.0
H776 H 0.32081 0.91215 0.7442 0.0
H777 H 0.3165 0.90455 0.78509 0.0
H778 H 0.34664 0.86934 0.67473 0.0
H779 H 0.26313 0.79898 0.82842 0.0
H780 H 0.30026 0.67473 0.80185 0.0
H781 H 0.30442 0.683 0.76117 0.0
H782 H 0.27558 0.71729 0.87243 0.0
H783 H 0.37167 0.79738 0.68181 0.0
H784 H 0.36207 0.8319 0.66693 0.0
H785 H 0.28967 0.68781 0.84345 0.0
H786 H 0.25373 0.7917 0.86798 0.0
N787 N 0.2925 0.73596 0.78811 0.0
C788 C 0.2979 0.69187 0.79816 0.0
C789 C 0.30019 0.69644 0.77518 0.0
C790 C 0.29168 0.70908 0.81582 0.0
C791 C 0.28885 0.73113 0.81008 0.0
C792 C 0.29704 0.7185 0.77036 0.0
N793 N 0.27701 0.76778 0.81939 0.0
C794 C 0.28076 0.74753 0.82623 0.0
C795 C 0.26139 0.77915 0.85645 0.0
C796 C 0.26603 0.75893 0.86409 0.0
C797 C 0.26677 0.78318 0.83386 0.0
C798 C 0.27552 0.74261 0.8488 0.0
H799 H 0.26178 0.75582 0.88157 0.0
O800 O 0.25188 0.77274 0.77719 0.0
O801 O 0.29705 0.80873 0.76741 0.0
O802 O 0.32483 0.82669 0.8041 0.0
O803 O 0.30872 0.79125 0.81574 0.0
O804 O 0.27353 0.80763 0.79113 0.0
O805 O 0.26477 0.74426 0.75557 0.0
O806 O 0.36794 0.81203 0.77851 0.0
O807 O 0.32444 0.77907 0.7803 0.0
O808 O 0.29565 0.76142 0.74326 0.0
O809 O 0.31483 0.7956 0.73117 0.0
O810 O 0.34715 0.77948 0.75553 0.0
O811 O 0.35898 0.84675 0.78497 0.0
C812 C 0.2841 0.82135 0.77824 0.0
C813 C 0.27934 0.72128 0.85511 0.0
C814 C 0.2874 0.70453 0.83863 0.0
C815 C 0.24714 0.75198 0.76181 0.0
C816 C 0.22767 0.73403 0.76565 0.0
C817 C 0.22935 0.71233 0.77269 0.0
C818 C 0.20669 0.73881 0.76145 0.0
C819 C 0.18727 0.72196 0.76357 0.0
C820 C 0.20998 0.69543 0.77493 0.0
C821 C 0.18894 0.70005 0.77011 0.0
C822 C 0.31843 0.8146 0.82094 0.0
C823 C 0.3366 0.76595 0.76866 0.0
C824 C 0.37515 0.83549 0.78462 0.0
C825 C 0.39498 0.84525 0.77339 0.0
C826 C 0.39406 0.86026 0.75682 0.0
C827 C 0.41441 0.83704 0.7773 0.0
C828 C 0.43259 0.84259 0.76396 0.0
C829 C 0.41207 0.86617 0.74372 0.0
C830 C 0.43111 0.85718 0.74698 0.0
C831 C 0.30318 0.7729 0.72635 0.0
H832 H 0.24547 0.70835 0.77619 0.0
H833 H 0.20543 0.75548 0.75577 0.0
H834 H 0.21126 0.67862 0.78016 0.0
H835 H 0.17406 0.68668 0.77153 0.0
H836 H 0.37931 0.867 0.75359 0.0
H837 H 0.41509 0.82601 0.7906 0.0
H838 H 0.41112 0.87738 0.73065 0.0
H839 H 0.44449 0.86146 0.73596 0.0
Gd840 Gd 0.5423 0.05102 0.99753 0.0
Gd841 Gd 0.56638 0.02903 0.04835 0.0
C842 C 0.64088 0.04497 0.07277 0.0
C843 C 0.64858 1.0046 0.06347 0.0
C844 C 0.61103 0.00999 0.05528 0.0
C845 C 0.61833 0.0348 0.06388 0.0
C846 C 0.62595 0.99451 0.05542 0.0
C847 C 0.65605 0.0298 0.07209 0.0
C848 C 0.64738 0.06999 0.08259 0.0
C849 C 0.63141 0.08402 0.08408 0.0
N850 N 0.60319 0.04886 0.06443 0.0
C851 C 0.60921 0.07303 0.0752 0.0
H852 H 0.59709 0.08414 0.07644 0.0
C853 C 0.5806 0.97628 0.04143 0.0
N854 N 0.58909 1.00089 0.04767 0.0
C855 C 0.59472 0.96017 0.04123 0.0
C856 C 0.61756 0.96933 0.04799 0.0
H857 H 0.56298 0.96911 0.03608 0.0
H858 H 0.67347 0.03731 0.07867 0.0
H859 H 0.51536 0.99477 0.96733 0.0
H860 H 0.66456 0.07854 0.08953 0.0
H861 H 0.63617 0.10331 0.09203 0.0
H862 H 0.66035 0.99303 0.06353 0.0
H863 H 0.54133 0.10977 0.00962 0.0
H864 H 0.44666 0.9946 0.95234 0.0
H865 H 0.47739 0.97297 0.95012 0.0
H866 H 0.44427 0.07818 0.98018 0.0
H867 H 0.58801 0.94071 0.03581 0.0
H868 H 0.62847 0.95681 0.04784 0.0
H869 H 0.43438 0.03389 0.96396 0.0
H870 H 0.51384 0.1355 0.00959 0.0
N871 N 0.50651 0.0286 0.97991 0.0
C872 C 0.46339 1.00435 0.95994 0.0
C873 C 0.48069 0.99211 0.95862 0.0
C874 C 0.46801 0.02921 0.97049 0.0
C875 C 0.49006 0.041 0.98023 0.0
C876 C 0.5023 1.00463 0.96846 0.0
N877 N 0.51709 0.0765 0.99762 0.0
C878 C 0.49553 0.06576 0.9895 0.0
C879 C 0.50843 0.11589 1.004 0.0
C880 C 0.48591 0.10498 0.99688 0.0
C881 C 0.52394 0.10131 1.00396 0.0
C882 C 0.47925 0.07964 0.98913 0.0
H883 H 0.47393 0.1163 0.99686 0.0
O884 O 0.55602 0.07574 0.97505 0.0
O885 O 0.57219 0.05092 0.02049 0.0
O886 O 0.55856 0.0661 0.06029 0.0
O887 O 0.53114 0.06943 0.03182 0.0
O888 O 0.57149 0.08337 0.0108 0.0
O889 O 0.54822 0.03655 0.96115 0.0
O890 O 0.54872 1.00631 0.07037 0.0
O891 O 0.53647 0.02978 0.02568 0.0
O892 O 0.55204 0.01464 0.98552 0.0
O893 O 0.57878 0.0116 0.01496 0.0
O894 O 0.53667 0.99712 0.03514 0.0
O895 O 0.56555 0.044 0.08619 0.0
C896 C 0.58336 0.07225 0.02206 0.0
C897 C 0.45707 0.06788 0.98038 0.0
C898 C 0.45145 0.04268 0.97111 0.0
C899 C 0.55492 0.05808 0.95647 0.0
C900 C 0.54577 0.06121 0.93338 0.0
C901 C 0.52474 0.06643 0.9302 0.0
C902 C 0.55829 0.05791 0.9139 0.0
C903 C 0.54997 0.05948 0.89097 0.0
C904 C 0.5164 0.06835 0.9075 0.0
C905 C 0.52891 0.06488 0.88792 0.0
C906 C 0.54197 0.0756 0.05369 0.0
C907 C 0.52508 1.00855 0.02397 0.0
C908 C 0.5541 0.0234 0.08981 0.0
C909 C 0.56041 0.01605 0.11183 0.0
C910 C 0.57624 1.00196 0.11331 0.0
C911 C 0.54865 0.02195 0.13137 0.0
C912 C 0.55183 0.01327 0.15223 0.0
C913 C 0.57975 0.99348 0.13436 0.0
C914 C 0.56733 0.99881 0.15373 0.0
C915 C 0.56889 1.00573 0.99273 0.0
H916 H 0.51481 0.06891 0.94513 0.0
H917 H 0.57467 0.0542 0.91673 0.0
H918 H 0.50014 0.07234 0.90502 0.0
H919 H 0.52198 0.06608 0.87041 0.0
H920 H 0.58547 0.99718 0.0982 0.0
H921 H 0.53616 0.03253 0.12995 0.0
H922 H 0.59179 0.9824 0.13548 0.0
H923 H 0.56973 0.99169 0.1697 0.0
Gd924 Gd 0.28319 0.26887 0.26906 0.0
Gd925 Gd 0.33217 0.31971 0.2958 0.0
C926 C 0.39778 0.34296 0.26345 0.0
C927 C 0.41987 0.31594 0.27488 0.0
C928 C 0.38241 0.31395 0.28718 0.0
C929 C 0.3801 0.33214 0.27534 0.0
C930 C 0.40258 0.30596 0.28746 0.0
C931 C 0.41745 0.33437 0.26283 0.0
C932 C 0.39542 0.36257 0.25314 0.0
C933 C 0.37625 0.37162 0.25574 0.0
N934 N 0.36096 0.34008 0.27635 0.0
C935 C 0.35936 0.36045 0.26791 0.0
H936 H 0.34474 0.3679 0.2703 0.0
C937 C 0.3678 0.28756 0.31215 0.0
N938 N 0.36514 0.30436 0.29877 0.0
C939 C 0.38749 0.27925 0.31308 0.0
C940 C 0.40488 0.28828 0.30048 0.0
H941 H 0.355 0.27995 0.32216 0.0
H942 H 0.43108 0.34223 0.25355 0.0
H943 H 0.26521 0.23899 0.3136 0.0
H944 H 0.40859 0.37133 0.24384 0.0
H945 H 0.37451 0.38729 0.24854 0.0
H946 H 0.43529 0.30973 0.27461 0.0
H947 H 0.26464 0.2968 0.22567 0.0
H948 H 0.20742 0.26105 0.33757 0.0
H949 H 0.23682 0.23848 0.34133 0.0
H950 H 0.18868 0.30645 0.28103 0.0
H951 H 0.38917 0.26571 0.32344 0.0
H952 H 0.42005 0.28164 0.30108 0.0
H953 H 0.18922 0.28537 0.31445 0.0
H954 H 0.23542 0.31736 0.21854 0.0
N955 N 0.2553 0.26563 0.29625 0.0
C956 C 0.22062 0.26232 0.32582 0.0
C957 C 0.23726 0.24973 0.32811 0.0
C958 C 0.22053 0.27529 0.30753 0.0
C959 C 0.23827 0.27666 0.29278 0.0
C960 C 0.25401 0.2509 0.31267 0.0
N961 N 0.25481 0.28904 0.25941 0.0
C962 C 0.23793 0.28849 0.27381 0.0
C963 C 0.2361 0.3097 0.2344 0.0
C964 C 0.21943 0.31038 0.2497 0.0
C965 C 0.25332 0.29843 0.23914 0.0
C966 C 0.21986 0.29924 0.26932 0.0
H967 H 0.20593 0.31889 0.24578 0.0
O968 O 0.27217 0.24889 0.23227 0.0
O969 O 0.31933 0.28401 0.27103 0.0
O970 O 0.32313 0.32362 0.25798 0.0
O971 O 0.29632 0.28824 0.23967 0.0
O972 O 0.30972 0.24659 0.26526 0.0
O973 O 0.26271 0.23231 0.26233 0.0
O974 O 0.33676 0.33095 0.3349 0.0
O975 O 0.2958 0.30459 0.29407 0.0
O976 O 0.29733 0.25929 0.3024 0.0
O977 O 0.32332 0.29484 0.32187 0.0
O978 O 0.30559 0.3405 0.29136 0.0
O979 O 0.34264 0.35796 0.31321 0.0
C980 C 0.32653 0.26489 0.26741 0.0
C981 C 0.20256 0.29824 0.28424 0.0
C982 C 0.20288 0.28628 0.30327 0.0
C983 C 0.26276 0.22909 0.23906 0.0
C984 C 0.2678 0.2062 0.22662 0.0
C985 C 0.26096 0.19745 0.20201 0.0
C986 C 0.27879 0.1926 0.23923 0.0
C987 C 0.2828 0.17032 0.22745 0.0
C988 C 0.26496 0.17534 0.19015 0.0
C989 C 0.27576 0.16177 0.20277 0.0
C990 C 0.30986 0.30945 0.23919 0.0
C991 C 0.28887 0.32356 0.29355 0.0
C992 C 0.33932 0.35394 0.3345 0.0
C993 C 0.32396 0.36698 0.34785 0.0
C994 C 0.31845 0.36249 0.37035 0.0
C995 C 0.31354 0.38273 0.33755 0.0
C996 C 0.29735 0.39333 0.34911 0.0
C997 C 0.30258 0.37315 0.38208 0.0
C998 C 0.29197 0.38834 0.37152 0.0
C999 C 0.31105 0.27273 0.32117 0.0
H1000 H 0.2524 0.20766 0.19201 0.0
H1001 H 0.28387 0.1991 0.25832 0.0
H1002 H 0.25965 0.16867 0.17114 0.0
H1003 H 0.27885 0.14477 0.19317 0.0
H1004 H 0.32615 0.35041 0.37866 0.0
H1005 H 0.31737 0.38606 0.32003 0.0
H1006 H 0.29832 0.36944 0.39935 0.0
H1007 H 0.27971 0.39632 0.381 0.0
Gd1008 Gd 0.56689 0.51606 0.00836 0.0
Gd1009 Gd 0.56146 0.57333 0.04193 0.0
C1010 C 0.56853 0.59072 0.12384 0.0
C1011 C 0.5316 0.59611 0.13257 0.0
C1012 C 0.54018 0.58697 0.0911 0.0
C1013 C 0.56157 0.58578 0.09898 0.0
C1014 C 0.52521 0.59283 0.10788 0.0
C1015 C 0.55322 0.59506 0.14054 0.0
C1016 C 0.59095 0.59236 0.13121 0.0
C1017 C 0.60603 0.59039 0.114 0.0
N1018 N 0.57615 0.58198 0.08245 0.0
C1019 C 0.59837 0.58565 0.08958 0.0
H1020 H 0.61024 0.58439 0.07648 0.0
C1021 C 0.51502 0.58889 0.05892 0.0
N1022 N 0.53456 0.58404 0.06709 0.0
C1023 C 0.49965 0.59467 0.0749 0.0
C1024 C 0.50457 0.59619 0.09944 0.0
H1025 H 0.51101 0.5882 0.04012 0.0
H1026 H 0.55819 0.59856 0.15968 0.0
H1027 H 0.51575 0.50294 0.97809 0.0
H1028 H 0.59694 0.59611 0.15012 0.0
H1029 H 0.62355 0.59247 0.11953 0.0
H1030 H 0.52022 0.60033 0.1457 0.0
H1031 H 0.61952 0.50961 0.00596 0.0
H1032 H 0.52212 0.48524 0.90285 0.0
H1033 H 0.49864 0.49125 0.93624 0.0
H1034 H 0.59971 0.48564 0.90022 0.0
H1035 H 0.48403 0.598 0.06828 0.0
H1036 H 0.49265 0.60077 0.11177 0.0
H1037 H 0.55996 0.48342 0.88956 0.0
H1038 H 0.64482 0.5001 0.97542 0.0
N1039 N 0.54893 0.50446 0.96881 0.0
C1040 C 0.52979 0.49045 0.92126 0.0
C1041 C 0.51648 0.49377 0.94005 0.0
C1042 C 0.55274 0.49317 0.9265 0.0
C1043 C 0.56189 0.50007 0.95078 0.0
C1044 C 0.52633 0.50045 0.96384 0.0
N1045 N 0.59203 0.50677 0.98034 0.0
C1046 C 0.58416 0.50124 0.95674 0.0
C1047 C 0.62782 0.50044 0.9699 0.0
C1048 C 0.6202 0.49563 0.94551 0.0
C1049 C 0.61339 0.50578 0.98717 0.0
C1050 C 0.59805 0.49568 0.93865 0.0
H1051 H 0.6314 0.49145 0.93216 0.0
O1052 O 0.57729 0.48503 0.01785 0.0
O1053 O 0.57057 0.53822 0.04656 0.0
O1054 O 0.59686 0.57309 0.03369 0.0
O1055 O 0.5928 0.54511 0.99778 0.0
O1056 O 0.59557 0.52087 0.03706 0.0
O1057 O 0.54242 0.48233 0.00626 0.0
O1058 O 0.56428 0.60106 0.02039 0.0
O1059 O 0.55737 0.55075 1.0041 0.0
O1060 O 0.53185 0.51379 0.0194 0.0
O1061 O 0.53239 0.54676 0.05061 0.0
O1062 O 0.53237 0.56817 0.01344 0.0
O1063 O 0.57815 0.61099 0.05743 0.0
C1064 C 0.58869 0.53366 0.05499 0.0
C1065 C 0.58927 0.48978 0.91438 0.0
C1066 C 0.56664 0.48854 0.90832 0.0
C1067 C 0.55711 0.47144 0.01378 0.0
C1068 C 0.55439 0.44549 1.00369 0.0
C1069 C 0.55753 0.43637 0.97982 0.0
C1070 C 0.54872 0.42956 0.01911 0.0
C1071 C 0.54665 0.40441 0.01131 0.0
C1072 C 0.555 0.41123 0.97162 0.0
C1073 C 0.54962 0.39528 0.98725 0.0
C1074 C 0.60397 0.56508 0.01288 0.0
C1075 C 0.53896 0.55465 0.99569 0.0
C1076 C 0.57358 0.61876 0.03823 0.0
C1077 C 0.56435 0.64062 0.04122 0.0
C1078 C 0.55227 0.64713 0.06061 0.0
C1079 C 0.56772 0.65518 0.02409 0.0
C1080 C 0.5591 0.67619 0.02608 0.0
C1081 C 0.54364 0.66795 0.06273 0.0
C1082 C 0.54702 0.68243 0.04562 0.0
C1083 C 0.52291 0.52491 0.03766 0.0
H1084 H 0.56192 0.44858 0.96769 0.0
H1085 H 0.5459 0.43695 0.03739 0.0
H1086 H 0.55743 0.40411 0.95318 0.0
H1087 H 0.54821 0.37597 0.98065 0.0
H1088 H 0.54951 0.63623 0.07411 0.0
H1089 H 0.57738 0.65027 0.00936 0.0
H1090 H 0.53428 0.67287 0.07768 0.0
H1091 H 0.53997 0.69835 0.04755 0.0
Gd1092 Gd 0.7878 0.27101 0.2769 0.0
Gd1093 Gd 0.83343 0.31003 0.25529 0.0
C1094 C 0.8257 0.35906 0.20277 0.0
C1095 C 0.83843 0.3384 0.16663 0.0
C1096 C 0.83784 0.3216 0.20268 0.0
C1097 C 0.82913 0.34044 0.21446 0.0
C1098 C 0.8429 0.32059 0.17873 0.0
C1099 C 0.82988 0.35762 0.17864 0.0
C1100 C 0.81912 0.37913 0.216 0.0
C1101 C 0.817 0.38073 0.24048 0.0
N1102 N 0.82558 0.34153 0.23788 0.0
C1103 C 0.82051 0.36176 0.25122 0.0
H1104 H 0.8194 0.36334 0.27028 0.0
C1105 C 0.85266 0.2872 0.20463 0.0
N1106 N 0.84225 0.30484 0.21502 0.0
C1107 C 0.85788 0.28545 0.18091 0.0
C1108 C 0.85281 0.30207 0.16782 0.0
H1109 H 0.85643 0.27389 0.21419 0.0
H1110 H 0.82715 0.37164 0.16931 0.0
H1111 H 0.8014 0.21764 0.26144 0.0
H1112 H 0.81641 0.39386 0.20772 0.0
H1113 H 0.81265 0.39654 0.25108 0.0
H1114 H 0.84207 0.33782 0.14818 0.0
H1115 H 0.76393 0.30589 0.31864 0.0
H1116 H 0.81085 0.18991 0.32486 0.0
H1117 H 0.81185 0.18611 0.28096 0.0
H1118 H 0.78501 0.24507 0.38517 0.0
H1119 H 0.86573 0.27117 0.17269 0.0
H1120 H 0.85693 0.30067 0.14945 0.0
H1121 H 0.80079 0.2121 0.36372 0.0
H1122 H 0.75633 0.30883 0.36061 0.0
N1123 N 0.79704 0.24008 0.29419 0.0
C1124 C 0.80681 0.20402 0.31644 0.0
C1125 C 0.80741 0.20181 0.29167 0.0
C1126 C 0.79981 0.22374 0.3298 0.0
C1127 C 0.79475 0.24161 0.31794 0.0
C1128 C 0.80193 0.21986 0.28073 0.0
N1129 N 0.77993 0.2762 0.31755 0.0
C1130 C 0.78566 0.26004 0.32994 0.0
C1131 C 0.76463 0.29504 0.35221 0.0
C1132 C 0.77126 0.27923 0.36538 0.0
C1133 C 0.76896 0.29319 0.3282 0.0
C1134 C 0.7817 0.26129 0.35424 0.0
H1135 H 0.76792 0.28078 0.38401 0.0
O1136 O 0.75564 0.2654 0.25614 0.0
O1137 O 0.79795 0.30657 0.26452 0.0
O1138 O 0.82362 0.32792 0.29084 0.0
O1139 O 0.81052 0.29541 0.30849 0.0
O1140 O 0.76783 0.30051 0.27761 0.0
O1141 O 0.76343 0.23659 0.27181 0.0
O1142 O 0.86566 0.31451 0.2756 0.0
O1143 O 0.82283 0.27424 0.26697 0.0
O1144 O 0.79681 0.25334 0.24076 0.0
O1145 O 0.81137 0.28562 0.2231 0.0
O1146 O 0.8538 0.28087 0.25587 0.0
O1147 O 0.85748 0.34484 0.26301 0.0
C1148 C 0.78079 0.31605 0.26818 0.0
C1149 C 0.78776 0.24427 0.36645 0.0
C1150 C 0.7968 0.22553 0.35426 0.0
C1151 C 0.74775 0.245 0.26255 0.0
C1152 C 0.7274 0.2441 0.27508 0.0
C1153 C 0.72648 0.23759 0.29761 0.0
C1154 C 0.70965 0.25241 0.26569 0.0
C1155 C 0.6915 0.25533 0.27898 0.0
C1156 C 0.70838 0.23996 0.3107 0.0
C1157 C 0.69111 0.249 0.30163 0.0
C1158 C 0.81935 0.31873 0.31006 0.0
C1159 C 0.84017 0.26501 0.26428 0.0
C1160 C 0.87327 0.33598 0.27132 0.0
C1161 C 0.89387 0.33878 0.25925 0.0
C1162 C 0.8941 0.34464 0.23642 0.0
C1163 C 0.91287 0.33331 0.26958 0.0
C1164 C 0.93181 0.33286 0.25699 0.0
C1165 C 0.91276 0.3443 0.22387 0.0
C1166 C 0.9314 0.33821 0.23389 0.0
C1167 C 0.80147 0.26252 0.22155 0.0
H1168 H 0.73995 0.23125 0.30547 0.0
H1169 H 0.71028 0.25699 0.24814 0.0
H1170 H 0.70796 0.23526 0.32818 0.0
H1171 H 0.6777 0.25143 0.31263 0.0
H1172 H 0.87974 0.34902 0.228 0.0
H1173 H 0.91272 0.32925 0.28736 0.0
H1174 H 0.91266 0.34842 0.20612 0.0
H1175 H 0.94536 0.33741 0.22334 0.0
Gd1176 Gd 0.0377 0.56189 0.49965 0.0
Gd1177 Gd 0.04783 0.52937 0.54785 0.0
C1178 C 0.11616 0.54036 0.58942 0.0
C1179 C 0.12424 0.50033 0.57784 0.0
C1180 C 0.08932 0.50787 0.56251 0.0
C1181 C 0.09554 0.53176 0.57499 0.0
C1182 C 0.1034 0.49172 0.56408 0.0
C1183 C 0.13062 0.52462 0.59047 0.0
C1184 C 0.12142 0.56436 0.60272 0.0
C1185 C 0.10601 0.57887 0.60195 0.0
N1186 N 0.08111 0.54639 0.57363 0.0
C1187 C 0.08571 0.56945 0.58751 0.0
H1188 H 0.07409 0.581 0.58713 0.0
C1189 C 0.06134 0.47623 0.53845 0.0
N1190 N 0.06913 0.50021 0.54938 0.0
C1191 C 0.07469 0.4595 0.53943 0.0
C1192 C 0.09592 0.46733 0.55211 0.0
H1193 H 0.04501 0.47013 0.52847 0.0
H1194 H 0.14659 0.53094 0.60133 0.0
H1195 H 0.01371 0.50954 0.46033 0.0
H1196 H 0.13711 0.57169 0.61397 0.0
H1197 H 0.10975 0.59734 0.61247 0.0
H1198 H 0.13537 0.48826 0.57914 0.0
H1199 H 0.0379 0.62056 0.51853 0.0
H1200 H 0.94981 0.51536 0.43216 0.0
H1201 H 0.97862 0.49153 0.43428 0.0
H1202 H 0.94755 0.59772 0.46668 0.0
H1203 H 0.06863 0.44062 0.53037 0.0
H1204 H 0.10623 0.45434 0.55287 0.0
H1205 H 0.93827 0.55501 0.44451 0.0
H1206 H 0.0128 0.64851 0.51584 0.0
N1207 N 0.00489 0.54323 0.47361 0.0
C1208 C 0.96524 0.52341 0.44371 0.0
C1209 C 0.98147 0.50993 0.44483 0.0
C1210 C 0.96935 0.54734 0.45705 0.0
C1211 C 0.98966 0.55691 0.4719 0.0
C1212 C 0.00143 0.52028 0.45967 0.0
N1213 N 0.01468 0.58943 0.49803 0.0
C1214 C 0.99472 0.58077 0.48454 0.0
C1215 C 0.00745 0.62947 0.50706 0.0
C1216 C 0.98634 0.62054 0.49423 0.0
C1217 C 0.02161 0.61363 0.50853 0.0
C1218 C 0.97985 0.59599 0.48248 0.0
H1219 H 0.97541 0.63284 0.49307 0.0
O1220 O 0.05878 0.59066 0.48634 0.0
O1221 O 0.06211 0.55608 0.52655 0.0
O1222 O 0.03941 0.56563 0.5623 0.0
O1223 O 0.01971 0.57552 0.53083 0.0
O1224 O 0.06465 0.59145 0.52329 0.0
O1225 O 0.04899 0.55394 0.46431 0.0
O1226 O 0.02562 0.50169 0.56144 0.0
O1227 O 0.02368 0.53532 0.52088 0.0
O1228 O 0.04833 0.52641 0.48528 0.0
O1229 O 0.06678 0.51662 0.51776 0.0
O1230 O 0.02038 0.50001 0.52426 0.0
O1231 O 0.03634 0.53877 0.58285 0.0
C1232 C 0.07364 0.57743 0.53389 0.0
C1233 C 0.95929 0.58639 0.46833 0.0
C1234 C 0.95403 0.56208 0.45568 0.0
C1235 C 0.05889 0.57662 0.46543 0.0
C1236 C 0.05461 0.58632 0.44413 0.0
C1237 C 0.03937 0.60119 0.44313 0.0
C1238 C 0.06596 0.58009 0.42419 0.0
C1239 C 0.06242 0.58867 0.4032 0.0
C1240 C 0.03568 0.60976 0.42228 0.0
C1241 C 0.04711 0.60356 0.40237 0.0
C1242 C 0.02523 0.57724 0.554 0.0
C1243 C 0.01171 0.51423 0.51366 0.0
C1244 C 0.02475 0.51668 0.58153 0.0
C1245 C 0.02453 0.50743 0.60363 0.0
C1246 C 0.03636 0.49007 0.60784 0.0
C1247 C 0.01092 0.51575 0.62048 0.0
C1248 C 0.00856 0.50672 0.64147 0.0
C1249 C 0.03411 0.48092 0.62884 0.0
C1250 C 0.02009 0.48903 0.64555 0.0
C1251 C 0.06215 0.51483 0.49448 0.0
H1252 H 0.03037 0.60616 0.45833 0.0
H1253 H 0.07733 0.56815 0.42496 0.0
H1254 H 0.02394 0.62125 0.42156 0.0
H1255 H 0.04414 0.61057 0.38646 0.0
H1256 H 0.04703 0.48347 0.5949 0.0
H1257 H 0.00161 0.52896 0.61689 0.0
H1258 H 0.04311 0.46742 0.6321 0.0
H1259 H 0.01842 0.48173 0.66167 0.0
Gd1260 Gd 0.84132 0.78613 0.27989 0.0
Gd1261 Gd 0.78663 0.79954 0.2647 0.0
C1262 C 0.75977 0.79879 0.18794 0.0
C1263 C 0.76026 0.84148 0.18984 0.0
C1264 C 0.77219 0.82813 0.22543 0.0
C1265 C 0.76854 0.80455 0.21234 0.0
C1266 C 0.76731 0.84673 0.21456 0.0
C1267 C 0.75651 0.81752 0.17653 0.0
C1268 C 0.75327 0.77426 0.17619 0.0
C1269 C 0.75429 0.75625 0.18919 0.0
N1270 N 0.77125 0.78688 0.22414 0.0
C1271 C 0.76291 0.76294 0.21342 0.0
H1272 H 0.76344 0.74884 0.2233 0.0
C1273 C 0.77811 0.85424 0.26387 0.0
N1274 N 0.77843 0.83235 0.24936 0.0
C1275 C 0.77347 0.87329 0.25394 0.0
C1276 C 0.76852 0.86969 0.2291 0.0
H1277 H 0.78187 0.85726 0.28309 0.0
H1278 H 0.75009 0.81349 0.15772 0.0
H1279 H 0.86514 0.84006 0.31694 0.0
H1280 H 0.74646 0.76905 0.15748 0.0
H1281 H 0.74846 0.7372 0.18058 0.0
H1282 H 0.75673 0.85559 0.18109 0.0
H1283 H 0.84421 0.72773 0.26784 0.0
H1284 H 0.88417 0.82734 0.38572 0.0
H1285 H 0.88125 0.8558 0.35889 0.0
H1286 H 0.87244 0.74045 0.37132 0.0
H1287 H 0.77376 0.89074 0.26545 0.0
H1288 H 0.76482 0.88443 0.22147 0.0
H1289 H 0.88031 0.78408 0.39036 0.0
H1290 H 0.85203 0.69664 0.2895 0.0
N1291 N 0.85791 0.80282 0.31978 0.0
C1292 C 0.87696 0.82026 0.36724 0.0
C1293 C 0.87542 0.83636 0.35213 0.0
C1294 C 0.87018 0.79518 0.35796 0.0
C1295 C 0.86085 0.78696 0.33378 0.0
C1296 C 0.86619 0.82727 0.32823 0.0
N1297 N 0.84963 0.75592 0.29934 0.0
C1298 C 0.8565 0.76259 0.32316 0.0
C1299 C 0.85323 0.7151 0.29924 0.0
C1300 C 0.85902 0.72139 0.32409 0.0
C1301 C 0.84889 0.73277 0.28703 0.0
C1302 C 0.86122 0.74552 0.33629 0.0
H1303 H 0.86251 0.70773 0.3335 0.0
O1304 O 0.8653 0.77214 0.25792 0.0
O1305 O 0.81614 0.78712 0.25069 0.0
O1306 O 0.78307 0.75866 0.26413 0.0
O1307 O 0.81416 0.75486 0.28729 0.0
O1308 O 0.83199 0.75825 0.24538 0.0
O1309 O 0.87212 0.81031 0.27487 0.0
O1310 O 0.76526 0.80753 0.2928 0.0
O1311 O 0.81157 0.79742 0.29375 0.0
O1312 O 0.84479 0.8266 0.2781 0.0
O1313 O 0.81279 0.83137 0.25715 0.0
O1314 O 0.79703 0.8272 0.29934 0.0
O1315 O 0.75232 0.77858 0.26199 0.0
C1316 C 0.81775 0.76807 0.23598 0.0
C1317 C 0.86899 0.75332 0.36083 0.0
C1318 C 0.87346 0.77815 0.37167 0.0
C1319 C 0.87968 0.79299 0.26207 0.0
C1320 C 0.90296 0.79259 0.26873 0.0
C1321 C 0.90891 0.78607 0.29024 0.0
C1322 C 0.91943 0.79906 0.2536 0.0
C1323 C 0.94189 0.79923 0.26005 0.0
C1324 C 0.93105 0.78598 0.29664 0.0
C1325 C 0.94744 0.79251 0.28172 0.0
C1326 C 0.79349 0.74592 0.27636 0.0
C1327 C 0.81086 0.8167 0.30855 0.0
C1328 C 0.74789 0.79125 0.2819 0.0
C1329 C 0.72683 0.79936 0.28154 0.0
C1330 C 0.72208 0.81376 0.26555 0.0
C1331 C 0.71196 0.79398 0.29855 0.0
C1332 C 0.69273 0.80349 0.30005 0.0
C1333 C 0.70297 0.82314 0.2669 0.0
C1334 C 0.68845 0.81824 0.28417 0.0
C1335 C 0.83391 0.83973 0.26683 0.0
H1336 H 0.89646 0.78107 0.30207 0.0
H1337 H 0.91482 0.80434 0.23709 0.0
H1338 H 0.93554 0.78084 0.31323 0.0
H1339 H 0.96446 0.79205 0.28706 0.0
H1340 H 0.73324 0.81797 0.25224 0.0
H1341 H 0.71563 0.78294 0.31101 0.0
H1342 H 0.69945 0.83437 0.25462 0.0
H1343 H 0.67372 0.8257 0.28494 0.0
Gd1344 Gd 0.8013 0.30814 0.79969 0.0
Gd1345 Gd 0.81845 0.27399 0.74503 0.0
C1346 C 0.80641 0.19098 0.7232 0.0
C1347 C 0.84383 0.18437 0.72847 0.0
C1348 C 0.83763 0.22548 0.7371 0.0
C1349 C 0.81499 0.21628 0.73137 0.0
C1350 C 0.8524 0.20966 0.73511 0.0
C1351 C 0.82086 0.17504 0.72249 0.0
C1352 C 0.78374 0.18255 0.71498 0.0
C1353 C 0.77041 0.19926 0.7144 0.0
N1354 N 0.80154 0.2322 0.73206 0.0
C1355 C 0.77964 0.22414 0.72295 0.0
H1356 H 0.76911 0.23683 0.72237 0.0
C1357 C 0.86781 0.25994 0.74521 0.0
N1358 N 0.84535 0.25002 0.74301 0.0
C1359 C 0.8831 0.24501 0.74362 0.0
C1360 C 0.87537 0.21975 0.73892 0.0
H1361 H 0.87412 0.27939 0.7487 0.0
H1362 H 0.81453 0.15553 0.71657 0.0
H1363 H 0.85984 0.31942 0.81565 0.0
H1364 H 0.77652 0.16327 0.70848 0.0
H1365 H 0.75295 0.193 0.70758 0.0
H1366 H 0.85489 0.17192 0.72711 0.0
H1367 H 0.76072 0.33663 0.79048 0.0
H1368 H 0.88118 0.39054 0.85814 0.0
H1369 H 0.88841 0.35047 0.84114 0.0
H1370 H 0.81955 0.42661 0.84783 0.0
H1371 H 0.90083 0.25301 0.74597 0.0
H1372 H 0.88725 0.20823 0.73755 0.0
H1373 H 0.85568 0.4188 0.86002 0.0
H1374 H 0.75304 0.37726 0.80093 0.0
N1375 N 0.83342 0.33852 0.82103 0.0
C1376 C 0.86776 0.37621 0.84783 0.0
C1377 C 0.87183 0.3536 0.83844 0.0
C1378 C 0.84683 0.38055 0.84249 0.0
C1379 C 0.82982 0.36124 0.82886 0.0
C1380 C 0.85477 0.33528 0.82457 0.0
N1381 N 0.79416 0.34756 0.80733 0.0
C1382 C 0.80968 0.36589 0.82162 0.0
C1383 C 0.76914 0.37444 0.80669 0.0
C1384 C 0.78524 0.39366 0.82059 0.0
C1385 C 0.77377 0.3514 0.80052 0.0
C1386 C 0.80574 0.38954 0.82836 0.0
H1387 H 0.78162 0.41153 0.8254 0.0
O1388 O 0.76553 0.29864 0.80125 0.0
O1389 O 0.79384 0.27363 0.77176 0.0
O1390 O 0.78359 0.28034 0.7384 0.0
O1391 O 0.78587 0.31648 0.76552 0.0
O1392 O 0.79478 0.27052 0.80769 0.0
O1393 O 0.78787 0.31286 0.83422 0.0
O1394 O 0.83475 0.29393 0.71972 0.0
O1395 O 0.81871 0.31023 0.76762 0.0
O1396 O 0.82817 0.2902 0.81238 0.0
O1397 O 0.83702 0.26577 0.77739 0.0
O1398 O 0.84862 0.30547 0.7552 0.0
O1399 O 0.80634 0.26402 0.70706 0.0
C1400 C 0.79082 0.2588 0.78561 0.0
C1401 C 0.82232 0.4084 0.84251 0.0
C1402 C 0.84283 0.40392 0.84955 0.0
C1403 C 0.76743 0.30268 0.82467 0.0
C1404 C 0.75486 0.28288 0.83489 0.0
C1405 C 0.73171 0.27509 0.82887 0.0
C1406 C 0.76579 0.27046 0.84902 0.0
C1407 C 0.75384 0.24992 0.85636 0.0
C1408 C 0.7197 0.25491 0.83644 0.0
C1409 C 0.73069 0.24224 0.84994 0.0
C1410 C 0.77723 0.30107 0.74497 0.0
C1411 C 0.83876 0.3206 0.7675 0.0
C1412 C 0.82192 0.28021 0.7012 0.0
C1413 C 0.83291 0.27249 0.67993 0.0
C1414 C 0.83955 0.25029 0.67524 0.0
C1415 C 0.83647 0.28794 0.66378 0.0
C1416 C 0.84625 0.28139 0.64263 0.0
C1417 C 0.84936 0.24361 0.65416 0.0
C1418 C 0.85253 0.25898 0.63774 0.0
C1419 C 0.83949 0.27464 0.80112 0.0
H1420 H 0.72299 0.28437 0.81794 0.0
H1421 H 0.7837 0.27615 0.85359 0.0
H1422 H 0.70186 0.24892 0.83162 0.0
H1423 H 0.72106 0.22659 0.85558 0.0
H1424 H 0.83698 0.23815 0.68766 0.0
H1425 H 0.83101 0.30493 0.66742 0.0
H1426 H 0.85435 0.22641 0.65044 0.0
H1427 H 0.85992 0.25346 0.62138 0.0
Gd1428 Gd 0.78436 0.77658 0.76779 0.0
Gd1429 Gd 0.83393 0.82509 0.79621 0.0
C1430 C 0.9016 0.85095 0.76886 0.0
C1431 C 0.92357 0.82455 0.78185 0.0
C1432 C 0.88463 0.82 0.78979 0.0
C1433 C 0.883 0.83882 0.77861 0.0
C1434 C 0.90511 0.81284 0.79181 0.0
C1435 C 0.92176 0.84342 0.77019 0.0
C1436 C 0.8996 0.87077 0.75873 0.0
C1437 C 0.87981 0.8788 0.75953 0.0
N1438 N 0.86348 0.84599 0.77811 0.0
C1439 C 0.86208 0.86653 0.76988 0.0
H1440 H 0.8471 0.87342 0.77136 0.0
C1441 C 0.86783 0.79067 0.81085 0.0
N1442 N 0.86635 0.80896 0.79904 0.0
C1443 C 0.88775 0.78302 0.81335 0.0
C1444 C 0.90648 0.79414 0.8038 0.0
H1445 H 0.85387 0.78132 0.81824 0.0
H1446 H 0.93617 0.85241 0.76271 0.0
H1447 H 0.76983 0.77815 0.8242 0.0
H1448 H 0.91346 0.88049 0.751 0.0
H1449 H 0.87829 0.89465 0.75253 0.0
H1450 H 0.93933 0.81915 0.78309 0.0
H1451 H 0.76571 0.77402 0.71036 0.0
H1452 H 0.70418 0.79011 0.82638 0.0
H1453 H 0.73764 0.78211 0.8463 0.0
H1454 H 0.68477 0.79965 0.74699 0.0
H1455 H 0.88858 0.76842 0.82259 0.0
H1456 H 0.92187 0.78811 0.8057 0.0
H1457 H 0.68486 0.79721 0.78948 0.0
H1458 H 0.73404 0.78232 0.68769 0.0
N1459 N 0.75574 0.78477 0.79178 0.0
C1460 C 0.71853 0.78873 0.81654 0.0
C1461 C 0.73736 0.78419 0.82782 0.0
C1462 C 0.71838 0.79134 0.79267 0.0
C1463 C 0.73741 0.78905 0.78053 0.0
C1464 C 0.7558 0.78212 0.81511 0.0
N1465 N 0.75479 0.78507 0.74474 0.0
C1466 C 0.73716 0.78983 0.75644 0.0
C1467 C 0.73484 0.78496 0.70708 0.0
C1468 C 0.71743 0.79177 0.71914 0.0
C1469 C 0.75299 0.78073 0.72009 0.0
C1470 C 0.71803 0.79337 0.74396 0.0
H1471 H 0.70309 0.79445 0.70897 0.0
O1472 O 0.77264 0.74423 0.73941 0.0
O1473 O 0.82123 0.78704 0.77603 0.0
O1474 O 0.82762 0.82787 0.75727 0.0
O1475 O 0.79263 0.8022 0.74218 0.0
O1476 O 0.80873 0.76565 0.74205 0.0
O1477 O 0.76777 0.74254 0.77637 0.0
O1478 O 0.8365 0.83532 0.83538 0.0
O1479 O 0.79697 0.81226 0.79284 0.0
O1480 O 0.79835 0.76591 0.80101 0.0
O1481 O 0.82424 0.80063 0.82226 0.0
O1482 O 0.80932 0.84742 0.7891 0.0
O1483 O 0.84646 0.86274 0.81502 0.0
C1484 C 0.82648 0.77663 0.75629 0.0
C1485 C 0.69956 0.7969 0.75629 0.0
C1486 C 0.69962 0.79554 0.7805 0.0
C1487 C 0.76544 0.73044 0.75418 0.0
C1488 C 0.76994 0.70591 0.74964 0.0
C1489 C 0.76376 0.69081 0.72669 0.0
C1490 C 0.77912 0.69685 0.76811 0.0
C1491 C 0.78211 0.67291 0.7638 0.0
C1492 C 0.76677 0.66702 0.72223 0.0
C1493 C 0.77586 0.65806 0.74066 0.0
C1494 C 0.8105 0.81899 0.7404 0.0
C1495 C 0.79143 0.83156 0.79022 0.0
C1496 C 0.84162 0.85852 0.83583 0.0
C1497 C 0.82746 0.87331 0.84898 0.0
C1498 C 0.82325 0.87125 0.8725 0.0
C1499 C 0.81683 0.88825 0.83769 0.0
C1500 C 0.80148 0.90022 0.84929 0.0
C1501 C 0.80834 0.88345 0.88431 0.0
C1502 C 0.79736 0.89768 0.87276 0.0
C1503 C 0.81168 0.77849 0.82054 0.0
H1504 H 0.75642 0.69736 0.71224 0.0
H1505 H 0.78358 0.70823 0.78592 0.0
H1506 H 0.76203 0.65549 0.70447 0.0
H1507 H 0.77833 0.63965 0.73669 0.0
H1508 H 0.83119 0.85985 0.88155 0.0
H1509 H 0.81975 0.88982 0.81946 0.0
H1510 H 0.80507 0.88163 0.9024 0.0
H1511 H 0.78576 0.9068 0.88225 0.0
Gd1512 Gd 0.5854 0.56509 0.53973 0.0
Gd1513 Gd 0.53523 0.52354 0.50986 0.0
C1514 C 0.53483 0.44321 0.50459 0.0
C1515 C 0.53486 0.42872 0.46161 0.0
C1516 C 0.53443 0.47105 0.47772 0.0
C1517 C 0.53518 0.46685 0.50085 0.0
C1518 C 0.53343 0.45178 0.4578 0.0
C1519 C 0.53554 0.42444 0.48497 0.0
C1520 C 0.53272 0.43886 0.52774 0.0
C1521 C 0.53008 0.45756 0.54625 0.0
N1522 N 0.5342 0.4853 0.51944 0.0
C1523 C 0.53063 0.48073 0.54172 0.0
H1524 H 0.5288 0.49493 0.55634 0.0
C1525 C 0.52675 0.49671 0.45208 0.0
N1526 N 0.53249 0.49336 0.47456 0.0
C1527 C 0.52592 0.47829 0.43179 0.0
C1528 C 0.52978 0.45589 0.43463 0.0
H1529 H 0.52346 0.51393 0.44985 0.0
H1530 H 0.53568 0.40629 0.48758 0.0
H1531 H 0.63358 0.56881 0.51435 0.0
H1532 H 0.53238 0.42097 0.53134 0.0
H1533 H 0.52787 0.45422 0.56409 0.0
H1534 H 0.53445 0.4138 0.44655 0.0
H1535 H 0.55099 0.59799 0.56752 0.0
H1536 H 0.65117 0.63754 0.49376 0.0
H1537 H 0.65881 0.59732 0.49537 0.0
H1538 H 0.59745 0.67975 0.52754 0.0
H1539 H 0.52217 0.48134 0.414 0.0
H1540 H 0.5289 0.44154 0.41889 0.0
H1541 H 0.62804 0.6681 0.50565 0.0
H1542 H 0.54479 0.63916 0.57332 0.0
N1543 N 0.61098 0.59198 0.52216 0.0
C1544 C 0.6399 0.62499 0.5019 0.0
C1545 C 0.64429 0.60234 0.5028 0.0
C1546 C 0.62156 0.63156 0.51243 0.0
C1547 C 0.60735 0.61451 0.52275 0.0
C1548 C 0.62991 0.58625 0.51353 0.0
N1549 N 0.57735 0.60426 0.5452 0.0
C1550 C 0.5902 0.62099 0.53498 0.0
C1551 C 0.55763 0.63431 0.56245 0.0
C1552 C 0.57017 0.65134 0.55129 0.0
C1553 C 0.56137 0.61078 0.55915 0.0
C1554 C 0.58672 0.64483 0.53736 0.0
H1555 H 0.56705 0.66947 0.55363 0.0
O1556 O 0.59311 0.57629 0.57863 0.0
O1557 O 0.56493 0.527 0.53558 0.0
O1558 O 0.52863 0.53446 0.54964 0.0
O1559 O 0.5612 0.56138 0.56898 0.0
O1560 O 0.59817 0.53082 0.52998 0.0
O1561 O 0.61888 0.56911 0.55645 0.0
O1562 O 0.50625 0.5397 0.5091 0.0
O1563 O 0.55235 0.56296 0.52084 0.0
O1564 O 0.59211 0.55345 0.49982 0.0
O1565 O 0.5612 0.52274 0.4819 0.0
O1566 O 0.53804 0.55023 0.48534 0.0
O1567 O 0.50159 0.50094 0.50486 0.0
C1568 C 0.58013 0.5153 0.53131 0.0
C1569 C 0.6001 0.66151 0.52619 0.0
C1570 C 0.61747 0.65487 0.51368 0.0
C1571 C 0.613 0.57214 0.57812 0.0
C1572 C 0.6186 0.55509 0.59267 0.0
C1573 C 0.60523 0.54808 0.61039 0.0
C1574 C 0.63673 0.54436 0.58765 0.0
C1575 C 0.64102 0.52619 0.59933 0.0
C1576 C 0.60952 0.53012 0.62219 0.0
C1577 C 0.62716 0.51899 0.61653 0.0
C1578 C 0.54027 0.54929 0.56935 0.0
C1579 C 0.54901 0.56919 0.50086 0.0
C1580 C 0.49201 0.51885 0.50426 0.0
C1581 C 0.47406 0.51524 0.4848 0.0
C1582 C 0.47259 0.49823 0.46308 0.0
C1583 C 0.45754 0.52856 0.4885 0.0
C1584 C 0.43973 0.52515 0.4707 0.0
C1585 C 0.45539 0.49542 0.44498 0.0
C1586 C 0.43904 0.50885 0.44869 0.0
C1587 C 0.5814 0.53645 0.48093 0.0
H1588 H 0.59117 0.55603 0.61477 0.0
H1589 H 0.64712 0.54954 0.57396 0.0
H1590 H 0.59896 0.5246 0.63558 0.0
H1591 H 0.63013 0.50499 0.62575 0.0
H1592 H 0.48442 0.48682 0.46019 0.0
H1593 H 0.45836 0.54132 0.50546 0.0
H1594 H 0.45445 0.48237 0.42824 0.0
H1595 H 0.4254 0.50578 0.43475 0.0
Gd1596 Gd 0.0338 0.53979 0.04133 0.0
Gd1597 Gd 0.08876 0.55387 0.01981 0.0
C1598 C 0.11944 0.63251 0.01608 0.0
C1599 C 0.11592 0.63081 0.9731 0.0
C1600 C 0.1039 0.59396 0.98842 0.0
C1601 C 0.10963 0.60732 0.01177 0.0
C1602 C 0.10769 0.60547 0.96882 0.0
C1603 C 0.12178 0.64431 0.9967 0.0
C1604 C 0.12762 0.64486 0.03961 0.0
C1605 C 0.12703 0.63186 0.0579 0.0
N1606 N 0.10745 0.59534 0.03013 0.0
C1607 C 0.11716 0.60692 0.05276 0.0
H1608 H 0.1172 0.59728 0.06715 0.0
C1609 C 0.09425 0.55518 0.9622 0.0
N1610 N 0.09622 0.56944 0.98485 0.0
C1611 C 0.09767 0.56579 0.94225 0.0
C1612 C 0.10399 0.59108 0.94552 0.0
H1613 H 0.08905 0.53562 0.95926 0.0
H1614 H 0.12894 0.6637 0.99972 0.0
H1615 H 0.99474 0.56595 0.02107 0.0
H1616 H 0.13526 0.66418 0.04366 0.0
H1617 H 0.13409 0.64105 0.07601 0.0
H1618 H 0.11862 0.63999 0.95827 0.0
H1619 H 0.0412 0.48885 0.05828 0.0
H1620 H 0.94107 0.51019 0.98057 0.0
H1621 H 0.95834 0.55384 0.99655 0.0
H1622 H 0.96009 0.43673 0.99342 0.0
H1623 H 0.09534 0.55444 0.92434 0.0
H1624 H 0.10671 0.59923 0.93002 0.0
H1625 H 0.94212 0.46644 0.97905 0.0
H1626 H 0.02404 0.44504 0.04909 0.0
N1627 N 0.99867 0.52964 0.01826 0.0
C1628 C 0.95715 0.51543 0.99123 0.0
C1629 C 0.96681 0.54007 1.00023 0.0
C1630 C 0.96788 0.49783 0.997 0.0
C1631 C 0.98874 0.50564 0.01103 0.0
C1632 C 0.98747 0.54686 0.01415 0.0
N1633 N 0.01795 0.49755 0.03413 0.0
C1634 C 0.99877 0.48904 0.01918 0.0
C1635 C 0.01681 0.45718 0.04042 0.0
C1636 C 0.99785 0.44798 0.02394 0.0
C1637 C 0.02655 0.48216 0.04554 0.0
C1638 C 0.9883 0.464 0.01346 0.0
H1639 H 0.99035 0.42862 0.01999 0.0
O1640 O 0.01826 0.5295 0.07229 0.0
O1641 O 0.0649 0.56903 0.04246 0.0
O1642 O 0.089 0.56156 0.06003 0.0
O1643 O 0.06102 0.53013 0.06375 0.0
O1644 O 0.03464 0.57797 0.03609 0.0
O1645 O 0.02453 0.5668 0.06903 0.0
O1646 O 0.1053 0.52639 0.02897 0.0
O1647 O 0.06092 0.52398 0.02508 0.0
O1648 O 0.02785 0.54035 1.00213 0.0
O1649 O 0.06304 0.55867 0.9922 0.0
O1650 O 0.07442 0.51906 0.99246 0.0
O1651 O 0.12455 0.55765 0.01858 0.0
C1652 C 0.05596 0.58601 0.03846 0.0
C1653 C 0.96823 0.45591 0.99826 0.0
C1654 C 0.95801 0.47282 0.99007 0.0
C1655 C 0.01427 0.55078 0.08013 0.0
C1656 C 0.9909 0.55112 0.0846 0.0
C1657 C 0.98067 0.53697 0.1001 0.0
C1658 C 0.97822 0.56397 0.07261 0.0
C1659 C 0.95528 0.56137 0.07503 0.0
C1660 C 0.95812 0.53501 0.10312 0.0
C1661 C 0.94543 0.54684 0.09047 0.0
C1662 C 0.08124 0.54384 0.07093 0.0
C1663 C 0.0595 0.50943 0.00486 0.0
C1664 C 0.12462 0.53664 0.0237 0.0
C1665 C 0.13585 0.52054 0.00794 0.0
C1666 C 0.13242 0.51733 0.98288 0.0
C1667 C 0.14946 0.50751 0.01801 0.0
C1668 C 0.15956 0.49123 1.00308 0.0
C1669 C 0.14237 0.50128 0.968 0.0
C1670 C 0.15583 0.48827 0.97797 0.0
C1671 C 0.04109 0.55078 0.98782 0.0
H1672 H 0.99006 0.52707 0.10957 0.0
H1673 H 0.98588 0.57526 0.06086 0.0
H1674 H 0.95034 0.52391 0.11499 0.0
H1675 H 0.92784 0.54464 0.09272 0.0
H1676 H 0.12203 0.52717 0.97482 0.0
H1677 H 0.15191 0.50979 0.03739 0.0
H1678 H 0.13968 0.49895 0.94866 0.0
H1679 H 0.16365 0.4762 0.96602 0.0
H1680 H 0.03832 0.2207 0.99865 0.0
H1681 H 0.04972 0.08313 0.95633 0.0
H1682 H 0.01907 0.17803 0.92651 0.0
H1683 H 0.04052 0.1102 0.03017 0.0
H1684 H 0.04355 0.12076 0.94639 0.0
H1685 H 0.04356 0.18355 0.01188 0.0
C1686 C 0.03502 0.20359 0.98563 0.0
C1687 C 0.02816 0.20267 0.96135 0.0
C1688 C 0.04295 0.11866 0.96483 0.0
C1689 C 0.03452 0.16015 0.97637 0.0
C1690 C 0.04656 0.09715 0.97056 0.0
C1691 C 0.04615 0.09359 0.99423 0.0
C1692 C 0.03874 0.13718 0.98281 0.0
C1693 C 0.04157 0.11237 0.01181 0.0
C1694 C 0.038 0.18239 0.99323 0.0
C1695 C 0.02428 0.17986 0.94538 0.0
N1696 N 0.03821 0.13344 0.00579 0.0
N1697 N 0.02769 0.15979 0.95308 0.0
H1698 H 0.17191 0.85397 0.18617 0.0
H1699 H 0.25833 0.76844 0.19032 0.0
H1700 H 0.18302 0.80508 0.12271 0.0
H1701 H 0.25732 0.83036 0.24649 0.0
H1702 H 0.22996 0.77972 0.16562 0.0
H1703 H 0.20244 0.84417 0.2087 0.0
C1704 C 0.18095 0.84135 0.17688 0.0
C1705 C 0.17488 0.83045 0.15244 0.0
C1706 C 0.23618 0.79096 0.18327 0.0
C1707 C 0.20983 0.81865 0.17843 0.0
C1708 C 0.25254 0.78459 0.19738 0.0
C1709 C 0.26098 0.79879 0.22039 0.0
C1710 C 0.22776 0.81146 0.19237 0.0
C1711 C 0.2519 0.81902 0.22878 0.0
C1712 C 0.19839 0.83569 0.1898 0.0
C1713 C 0.1872 0.8141 0.14145 0.0
N1714 N 0.23589 0.82465 0.21487 0.0
N1715 N 0.20394 0.80853 0.15456 0.0
H1716 H 0.51272 0.86074 0.42383 0.0
H1717 H 0.56779 0.97567 0.52879 0.0
H1718 H 0.54832 0.85277 0.48804 0.0
H1719 H 0.52056 0.97732 0.47085 0.0
H1720 H 0.55991 0.93092 0.51626 0.0
H1721 H 0.51429 0.90305 0.44235 0.0
C1722 C 0.52072 0.86786 0.44201 0.0
C1723 C 0.53045 0.85307 0.45432 0.0
C1724 C 0.55091 0.94098 0.50659 0.0
C1725 C 0.53272 0.90225 0.47576 0.0
C1726 C 0.55527 0.96651 0.51386 0.0
C1727 C 0.54433 0.98014 0.50121 0.0
C1728 C 0.53588 0.92903 0.48614 0.0
C1729 C 0.52899 0.96747 0.48139 0.0
C1730 C 0.5216 0.89214 0.45263 0.0
C1731 C 0.54049 0.86342 0.47791 0.0
N1732 N 0.52531 0.94276 0.47445 0.0
N1733 N 0.54166 0.88746 0.48774 0.0
H1734 H 0.53831 0.33709 0.66182 0.0
H1735 H 0.46775 0.26583 0.75064 0.0
H1736 H 0.5532 0.27599 0.68783 0.0
H1737 H 0.45036 0.32805 0.72933 0.0
H1738 H 0.49692 0.26753 0.72372 0.0
H1739 H 0.50393 0.33253 0.68238 0.0
C1740 C 0.53423 0.32259 0.67154 0.0
C1741 C 0.54881 0.30712 0.67339 0.0
C1742 C 0.48676 0.28085 0.72474 0.0
C1743 C 0.50976 0.30178 0.69676 0.0
C1744 C 0.4701 0.27989 0.74022 0.0
C1745 C 0.45681 0.29701 0.74248 0.0
C1746 C 0.49048 0.29925 0.71143 0.0
C1747 C 0.46031 0.31453 0.72813 0.0
C1748 C 0.5147 0.32005 0.68333 0.0
C1749 C 0.54273 0.28863 0.68622 0.0
N1750 N 0.477 0.3154 0.71338 0.0
N1751 N 0.52385 0.2866 0.6974 0.0
H1752 H 0.03821 0.85664 0.642 0.0
H1753 H 0.02599 0.85726 0.50194 0.0
H1754 H 0.01045 0.79116 0.58823 0.0
H1755 H 0.07142 0.91271 0.55508 0.0
H1756 H 0.01731 0.83328 0.53286 0.0
H1757 H 0.04647 0.87885 0.61002 0.0
C1758 C 0.03365 0.84698 0.62346 0.0
C1759 C 0.0237 0.82201 0.61776 0.0
C1760 C 0.02925 0.85065 0.53763 0.0
C1761 C 0.03327 0.84728 0.58104 0.0
C1762 C 0.03433 0.86424 0.51999 0.0
C1763 C 0.04922 0.88716 0.52602 0.0
C1764 C 0.03903 0.86021 0.56141 0.0
C1765 C 0.05944 0.8954 0.54974 0.0
C1766 C 0.03853 0.85963 0.6052 0.0
C1767 C 0.01821 0.81041 0.5934 0.0
N1768 N 0.054 0.88206 0.56656 0.0
N1769 N 0.02308 0.82315 0.57589 0.0
H1770 H 0.53417 0.7915 0.83321 0.0
H1771 H 0.47613 0.86459 0.76073 0.0
H1772 H 0.56452 0.81862 0.77446 0.0
H1773 H 0.4358 0.79915 0.77635 0.0
H1774 H 0.50934 0.84993 0.7691 0.0
H1775 H 0.49779 0.79458 0.81573 0.0
C1776 C 0.53315 0.79749 0.81639 0.0
C1777 C 0.5525 0.80537 0.8056 0.0
C1778 C 0.49314 0.83872 0.77045 0.0
C1779 C 0.51134 0.80937 0.78606 0.0
C1780 C 0.47411 0.84702 0.76557 0.0
C1781 C 0.45295 0.83324 0.76791 0.0
C1782 C 0.49116 0.81681 0.77833 0.0
C1783 C 0.4517 0.81082 0.77493 0.0
C1784 C 0.51243 0.79928 0.8065 0.0
C1785 C 0.55015 0.81287 0.78374 0.0
N1786 N 0.47059 0.80348 0.78029 0.0
N1787 N 0.53004 0.81527 0.77501 0.0
H1788 H 0.53977 0.18506 0.18016 0.0
H1789 H 0.50761 0.09862 0.04948 0.0
H1790 H 0.50227 0.20309 0.12255 0.0
H1791 H 0.56229 0.09604 0.09915 0.0
H1792 H 0.49988 0.13237 0.0786 0.0
H1793 H 0.54213 0.1473 0.15311 0.0
C1794 C 0.53185 0.18098 0.16191 0.0
C1795 C 0.52103 0.19738 0.15351 0.0
C1796 C 0.51354 0.12434 0.08305 0.0
C1797 C 0.52366 0.15426 0.12257 0.0
C1798 C 0.51809 0.10521 0.06638 0.0
C1799 C 0.53604 0.09492 0.07155 0.0
C1800 C 0.5268 0.1329 0.10518 0.0
C1801 C 0.54848 0.1036 0.09418 0.0
C1802 C 0.53327 0.15948 0.14648 0.0
C1803 C 0.511 0.1911 0.12969 0.0
N1804 N 0.54367 0.12215 0.11012 0.0
N1805 N 0.51264 0.17005 0.115 0.0
H1806 H 0.16281 0.33655 0.33251 0.0
H1807 H 0.28173 0.31152 0.33646 0.0
H1808 H 0.19374 0.32065 0.39559 0.0
H1809 H 0.25936 0.35167 0.28709 0.0
H1810 H 0.2517 0.31874 0.36082 0.0
H1811 H 0.1991 0.34628 0.31788 0.0
C1812 C 0.17728 0.33525 0.3434 0.0
C1813 C 0.17525 0.32751 0.3652 0.0
C1814 C 0.25346 0.32629 0.34487 0.0
C1815 C 0.21687 0.33793 0.3481 0.0
C1816 C 0.27041 0.32192 0.33081 0.0
C1817 C 0.27215 0.33005 0.30921 0.0
C1818 C 0.23794 0.33846 0.33697 0.0
C1819 C 0.25792 0.34442 0.30324 0.0
C1820 C 0.19807 0.34099 0.33508 0.0
C1821 C 0.19462 0.32631 0.37857 0.0
N1822 N 0.2409 0.3476 0.31671 0.0
N1823 N 0.21463 0.33095 0.36953 0.0
H1824 H 0.00815 0.09331 0.21657 0.0
H1825 H 0.00198 0.02669 0.07611 0.0
H1826 H 0.9478 0.04653 0.17731 0.0
H1827 H 0.05372 0.08934 0.1095 0.0
H1828 H 0.98345 0.03104 0.11335 0.0
H1829 H 0.02636 0.0895 0.17903 0.0
C1830 C 0.99861 0.08219 0.20016 0.0
C1831 C 0.97612 0.07035 0.20063 0.0
C1832 C 0.99891 0.04385 0.11263 0.0
C1833 C 0.99744 0.0655 0.1567 0.0
C1834 C 0.00965 0.04137 0.09116 0.0
C1835 C 0.02992 0.05751 0.08909 0.0
C1836 C 0.00838 0.06246 0.13294 0.0
C1837 C 0.03852 0.0761 0.10979 0.0
C1838 C 0.00912 0.08003 0.17853 0.0
C1839 C 0.96503 0.05619 0.17829 0.0
N1840 N 0.02796 0.07791 0.13052 0.0
N1841 N 0.97569 0.05409 0.15763 0.0
H1842 H 0.2667 0.64372 0.41995 0.0
H1843 H 0.26218 0.76944 0.38173 0.0
H1844 H 0.28931 0.71433 0.46753 0.0
H1845 H 0.23756 0.699 0.3344 0.0
H1846 H 0.27494 0.7496 0.41227 0.0
H1847 H 0.25903 0.66367 0.38726 0.0
C1848 C 0.2703 0.66344 0.42346 0.0
C1849 C 0.2785 0.67739 0.44657 0.0
C1850 C 0.26679 0.73845 0.39521 0.0
C1851 C 0.26955 0.70031 0.40928 0.0
C1852 C 0.25955 0.74978 0.37773 0.0
C1853 C 0.24866 0.73584 0.35554 0.0
C1854 C 0.26313 0.71294 0.39054 0.0
C1855 C 0.24553 0.71041 0.35143 0.0
C1856 C 0.26583 0.67481 0.4048 0.0
C1857 C 0.28289 0.70286 0.45005 0.0
N1858 N 0.25269 0.69976 0.36879 0.0
N1859 N 0.2782 0.71349 0.43165 0.0
H1860 H 0.64562 0.97303 0.66368 0.0
H1861 H 0.62606 0.06083 0.57615 0.0
H1862 H 0.6968 0.03285 0.65308 0.0
H1863 H 0.57409 1.00572 0.5938 0.0
H1864 H 0.65365 0.04679 0.59884 0.0
H1865 H 0.62146 0.97927 0.63114 0.0
C1866 C 0.65204 0.98694 0.65387 0.0
C1867 C 0.67314 1.00254 0.66113 0.0
C1868 C 0.63622 0.03772 0.59767 0.0
C1869 C 0.6453 0.01045 0.62454 0.0
C1870 C 0.62038 0.04587 0.5849 0.0
C1871 C 0.59761 0.03463 0.58328 0.0
C1872 C 0.62928 0.01818 0.60895 0.0
C1873 C 0.59138 0.01504 0.59465 0.0
C1874 C 0.63814 0.99072 0.63551 0.0
C1875 C 0.68066 0.02037 0.64797 0.0
N1876 N 0.60711 1.00752 0.60707 0.0
N1877 N 0.66654 0.02419 0.63059 0.0
H1878 H 0.33695 0.40853 0.95087 0.0
H1879 H 0.3101 0.28973 0.84409 0.0
H1880 H 0.3143 0.33648 0.96439 0.0
H1881 H 0.32355 0.36413 0.83557 0.0
H1882 H 0.31711 0.30469 0.88822 0.0
H1883 H 0.33824 0.39083 0.90893 0.0
C1884 C 0.33225 0.38888 0.94499 0.0
C1885 C 0.32513 0.374 0.96113 0.0
C1886 C 0.31884 0.31766 0.87661 0.0
C1887 C 0.32632 0.35338 0.91256 0.0
C1888 C 0.31505 0.30914 0.85153 0.0
C1889 C 0.31669 0.32581 0.83634 0.0
C1890 C 0.32418 0.34292 0.88627 0.0
C1891 C 0.32239 0.35073 0.84671 0.0
C1892 C 0.33302 0.37873 0.92094 0.0
C1893 C 0.31973 0.34861 0.95248 0.0
N1894 N 0.32595 0.35847 0.87091 0.0
N1895 N 0.32013 0.33905 0.92863 0.0
H1896 H 0.95823 0.07193 0.36558 0.0
H1897 H 0.06228 0.05248 0.45017 0.0
H1898 H 0.0209 0.0632 0.33981 0.0
H1899 H 0.99797 0.05526 0.47453 0.0
H1900 H 0.0479 0.05708 0.41019 0.0
H1901 H 0.97268 0.06767 0.40568 0.0
C1902 C 0.97507 0.0695 0.3682 0.0
C1903 C 0.98813 0.06813 0.34861 0.0
C1904 C 0.03685 0.05661 0.42424 0.0
C1905 C 0.00507 0.06278 0.39535 0.0
C1906 C 0.04512 0.05378 0.44722 0.0
C1907 C 0.03142 0.05305 0.46621 0.0
C1908 C 0.01465 0.05918 0.41981 0.0
C1909 C 0.00933 0.05544 0.46077 0.0
C1910 C 0.98335 0.06682 0.39127 0.0
C1911 C 0.00986 0.06448 0.35384 0.0
N1912 N 0.00182 0.05837 0.43854 0.0
N1913 N 0.01743 0.06198 0.3762 0.0
H1914 H 0.29814 0.65136 0.61142 0.0
H1915 H 0.3132 0.78828 0.68441 0.0
H1916 H 0.30116 0.71091 0.57489 0.0
H1917 H 0.2898 0.72361 0.71205 0.0
H1918 H 0.31434 0.76218 0.64499 0.0
H1919 H 0.30254 0.67994 0.64977 0.0
C1920 C 0.29998 0.67055 0.61148 0.0
C1921 C 0.29893 0.67873 0.58993 0.0
C1922 C 0.30899 0.75386 0.6598 0.0
C1923 C 0.30361 0.71162 0.63392 0.0
C1924 C 0.30835 0.76869 0.68226 0.0
C1925 C 0.30177 0.75815 0.70174 0.0
C1926 C 0.30312 0.72842 0.657 0.0
C1927 C 0.29523 0.73268 0.69778 0.0
C1928 C 0.30237 0.68686 0.63341 0.0
C1929 C 0.30178 0.70386 0.59114 0.0
N1930 N 0.29622 0.71877 0.67598 0.0
N1931 N 0.30372 0.71949 0.61285 0.0
H1932 H 0.61599 0.06682 0.76235 0.0
H1933 H 0.57505 0.02544 0.8808 0.0
H1934 H 0.64901 0.02321 0.79955 0.0
H1935 H 0.55599 0.0847 0.85477 0.0
H1936 H 0.59973 0.02142 0.84907 0.0
H1937 H 0.5916 0.07082 0.79421 0.0
C1938 C 0.61813 0.05807 0.77726 0.0
C1939 C 0.63452 0.04456 0.77826 0.0
C1940 C 0.59016 0.0353 0.85033 0.0
C1941 C 0.60649 0.04902 0.81476 0.0
C1942 C 0.57609 0.03766 0.86844 0.0
C1943 C 0.56358 0.05562 0.87059 0.0
C1944 C 0.59157 0.05082 0.83405 0.0
C1945 C 0.56517 0.0705 0.85369 0.0
C1946 C 0.60421 0.06044 0.79547 0.0
C1947 C 0.63662 0.03381 0.7981 0.0
N1948 N 0.57896 0.06779 0.83614 0.0
N1949 N 0.62263 0.03615 0.81555 0.0
H1950 H 0.30561 0.32162 0.08851 0.0
H1951 H 0.32348 0.35573 0.23241 0.0
H1952 H 0.33831 0.39248 0.13106 0.0
H1953 H 0.29886 0.28169 0.193 0.0
H1954 H 0.32792 0.369 0.19478 0.0
H1955 H 0.30239 0.30595 0.12568 0.0
C1956 C 0.3123 0.33381 0.10559 0.0
C1957 C 0.32219 0.35843 0.10665 0.0
C1958 C 0.32166 0.34979 0.19422 0.0
C1959 C 0.31833 0.34074 0.14913 0.0
C1960 C 0.31928 0.34216 0.21583 0.0
C1961 C 0.31128 0.31748 0.21599 0.0
C1962 C 0.31581 0.3327 0.17232 0.0
C1963 C 0.3052 0.30091 0.19374 0.0
C1964 C 0.31038 0.32487 0.12678 0.0
C1965 C 0.33048 0.3734 0.12929 0.0
N1966 N 0.30763 0.30881 0.17276 0.0
N1967 N 0.32826 0.36436 0.14952 0.0
H1968 H 0.29197 1.00455 0.07638 0.0
H1969 H 0.16518 0.01566 0.07196 0.0
H1970 H 0.23645 0.9423 0.05487 0.0
H1971 H 0.22167 0.07621 0.09713 0.0
H1972 H 0.19045 0.98787 0.06854 0.0
H1973 H 0.26602 0.03038 0.08715 0.0
C1974 C 0.27427 0.99628 0.07402 0.0
C1975 C 0.26632 0.97128 0.06448 0.0
C1976 C 0.19727 1.00721 0.07505 0.0
C1977 C 0.23641 1.00086 0.07669 0.0
C1978 C 0.18288 0.02308 0.07689 0.0
C1979 C 0.19137 0.04831 0.08462 0.0
C1980 C 0.22031 0.01667 0.08085 0.0
C1981 C 0.21437 0.0569 0.09122 0.0
C1982 C 0.25944 0.01106 0.08023 0.0
C1983 C 0.24324 0.96153 0.06206 0.0
N1984 N 0.22804 0.04113 0.08896 0.0
N1985 N 0.22903 0.97641 0.06791 0.0
H1986 H 0.72428 0.67393 0.01246 0.0
H1987 H 0.62793 0.55236 0.97492 0.0
H1988 H 0.73622 0.60689 0.97211 0.0
H1989 H 0.62932 0.60879 0.03768 0.0
H1990 H 0.66462 0.57449 0.9675 0.0
H1991 H 0.68597 0.65279 0.01504 0.0
C1992 C 0.71878 0.65485 1.00387 0.0
C1993 C 0.73353 0.64211 0.99222 0.0
C1994 C 0.65681 0.58193 0.98288 0.0
C1995 C 0.68968 0.61782 0.9951 0.0
C1996 C 0.63594 0.56926 0.9872 0.0
C1997 C 0.62571 0.5784 0.00728 0.0
C1998 C 0.66724 0.60416 0.99839 0.0
C1999 C 0.63665 0.60081 0.02218 0.0
C2000 C 0.69694 0.64276 0.00547 0.0
C2001 C 0.72542 0.61734 0.98141 0.0
N2002 N 0.65676 0.61291 0.01741 0.0
N2003 N 0.70404 0.60597 0.98315 0.0
H2004 H 0.74036 0.44952 0.2348 0.0
H2005 H 0.77033 0.34906 0.30487 0.0
H2006 H 0.70376 0.42905 0.29237 0.0
H2007 H 0.77315 0.33789 0.22847 0.0
H2008 H 0.75315 0.38375 0.30351 0.0
H2009 H 0.75877 0.41514 0.23472 0.0
C2010 C 0.73613 0.438 0.24756 0.0
C2011 C 0.72006 0.44279 0.26357 0.0
C2012 C 0.75795 0.37419 0.28703 0.0
C2013 C 0.74214 0.40273 0.26398 0.0
C2014 C 0.7682 0.35434 0.2878 0.0
C2015 C 0.77485 0.34077 0.26704 0.0
C2016 C 0.75383 0.38137 0.26518 0.0
C2017 C 0.76974 0.34814 0.24534 0.0
C2018 C 0.74673 0.4181 0.24741 0.0
C2019 C 0.71573 0.42657 0.2795 0.0
N2020 N 0.7601 0.36787 0.24509 0.0
N2021 N 0.72672 0.40791 0.27949 0.0
H2022 H 0.87421 0.44437 0.50732 0.0
H2023 H 0.9843 0.54631 0.51991 0.0
H2024 H 0.87327 0.51866 0.50435 0.0
H2025 H 0.98337 0.47021 0.49556 0.0
H2026 H 0.94393 0.53683 0.51465 0.0
H2027 H 0.91426 0.45351 0.5042 0.0
C2028 C 0.88244 0.46264 0.50606 0.0
C2029 C 0.87042 0.48088 0.50635 0.0
C2030 C 0.9525 0.52221 0.51006 0.0
C2031 C 0.91626 0.49137 0.5027 0.0
C2032 C 0.97568 0.52765 0.51291 0.0
C2033 C 0.98733 0.50911 0.50766 0.0
C2034 C 0.94077 0.49788 0.50278 0.0
C2035 C 0.97501 0.48508 0.49953 0.0
C2036 C 0.90527 0.46776 0.50406 0.0
C2037 C 0.88191 0.50411 0.50434 0.0
N2038 N 0.95233 0.48009 0.49756 0.0
N2039 N 0.90428 0.50877 0.50284 0.0
H2040 H 0.38183 0.12416 0.30821 0.0
H2041 H 0.27224 0.12116 0.22527 0.0
H2042 H 0.33338 0.05811 0.27508 0.0
H2043 H 0.31951 0.18729 0.26062 0.0
H2044 H 0.29229 0.09802 0.24688 0.0
H2045 H 0.35661 0.14792 0.29557 0.0
C2046 C 0.3657 0.11465 0.29867 0.0
C2047 C 0.35983 0.08912 0.29236 0.0
C2048 C 0.29818 0.11761 0.25006 0.0
C2049 C 0.33107 0.11618 0.27747 0.0
C2050 C 0.28686 0.13079 0.23757 0.0
C2051 C 0.29435 0.15613 0.24098 0.0
C2052 C 0.31724 0.12985 0.26596 0.0
C2053 C 0.3131 0.16777 0.25751 0.0
C2054 C 0.35135 0.12824 0.29136 0.0
C2055 C 0.33868 0.07777 0.28012 0.0
N2056 N 0.32401 0.15451 0.26923 0.0
N2057 N 0.32519 0.09139 0.27275 0.0
H2058 H 0.3813 0.16766 0.52828 0.0
H2059 H 0.44275 0.0702 0.56995 0.0
H2060 H 0.34784 0.09466 0.53193 0.0
H2061 H 0.47519 0.14568 0.57556 0.0
H2062 H 0.40913 0.07751 0.55061 0.0
H2063 H 0.41699 0.15863 0.54031 0.0
C2064 C 0.38146 0.14966 0.53128 0.0
C2065 C 0.36147 0.13199 0.52928 0.0
C2066 C 0.42363 0.09247 0.55598 0.0
C2067 C 0.40223 0.12155 0.54313 0.0
C2068 C 0.44292 0.08826 0.56692 0.0
C2069 C 0.46182 0.10741 0.57474 0.0
C2070 C 0.42315 0.116 0.55271 0.0
C2071 C 0.46089 0.13047 0.57036 0.0
C2072 C 0.40183 0.14455 0.53826 0.0
C2073 C 0.36275 0.10898 0.53347 0.0
N2074 N 0.44188 0.13414 0.55979 0.0
N2075 N 0.38269 0.10449 0.54028 0.0
H2076 H 0.69167 0.61079 0.25474 0.0
H2077 H 0.80613 0.7119 0.30048 0.0
H2078 H 0.74761 0.59225 0.2897 0.0
H2079 H 0.75257 0.71985 0.25286 0.0
H2080 H 0.78593 0.66961 0.29912 0.0
H2081 H 0.7141 0.65126 0.2564 0.0
C2082 C 0.70874 0.61509 0.26287 0.0
C2083 C 0.71743 0.59749 0.27215 0.0
C2084 C 0.77867 0.68059 0.28889 0.0
C2085 C 0.74391 0.64534 0.27421 0.0
C2086 C 0.7903 0.70487 0.28956 0.0
C2087 C 0.78143 0.71989 0.27653 0.0
C2088 C 0.75769 0.67102 0.27532 0.0
C2089 C 0.76042 0.70943 0.26323 0.0
C2090 C 0.72168 0.63852 0.26374 0.0
C2091 C 0.73996 0.60485 0.28222 0.0
N2092 N 0.74947 0.68603 0.26306 0.0
N2093 N 0.75229 0.62812 0.28311 0.0
H2094 H 0.86319 0.47818 0.804 0.0
H2095 H 0.88238 0.34304 0.77758 0.0
H2096 H 0.92407 0.4605 0.78016 0.0
H2097 H 0.81702 0.35781 0.76938 0.0
H2098 H 0.89876 0.38688 0.78632 0.0
H2099 H 0.84677 0.43455 0.79951 0.0
C2100 C 0.87314 0.46516 0.79797 0.0
C2101 C 0.89498 0.47295 0.79227 0.0
C2102 C 0.88081 0.38052 0.78283 0.0
C2103 C 0.87638 0.42332 0.78726 0.0
C2104 C 0.8715 0.3556 0.77785 0.0
C2105 C 0.84832 0.34698 0.77353 0.0
C2106 C 0.86683 0.39689 0.78323 0.0
C2107 C 0.8349 0.36384 0.77358 0.0
C2108 C 0.86372 0.44034 0.79532 0.0
C2109 C 0.90712 0.45531 0.78454 0.0
N2110 N 0.84435 0.38811 0.77854 0.0
N2111 N 0.89766 0.43132 0.7823 0.0
H2112 H 0.09837 0.8764 0.05077 0.0
H2113 H 0.07371 0.01004 0.09094 0.0
H2114 H 0.09411 0.91207 0.12371 0.0
H2115 H 0.0852 0.98219 0.01808 0.0
H2116 H 0.07895 0.97249 0.10179 0.0
H2117 H 0.09167 0.91278 0.03711 0.0
C2118 C 0.09604 0.89178 0.06392 0.0
C2119 C 0.09689 0.89098 0.08853 0.0
C2120 C 0.08023 0.97432 0.08334 0.0
C2121 C 0.08912 0.93279 0.07293 0.0
C2122 C 0.07716 0.99585 0.07711 0.0
C2123 C 0.07852 0.99919 0.05345 0.0
C2124 C 0.08509 0.95568 0.06594 0.0
C2125 C 0.08346 0.98021 0.03642 0.0
C2126 C 0.09222 0.91258 0.05609 0.0
C2127 C 0.09369 0.91161 0.10461 0.0
N2128 N 0.08652 0.95927 0.04297 0.0
N2129 N 0.08997 0.9314 0.09657 0.0
H2130 H 0.94573 0.27849 0.91043 0.0
H2131 H 0.86322 0.23943 0.78793 0.0
H2132 H 0.96098 0.23975 0.84309 0.0
H2133 H 0.85467 0.29285 0.84914 0.0
H2134 H 0.89489 0.23228 0.81096 0.0
H2135 H 0.90819 0.27649 0.89148 0.0
C2136 C 0.9409 0.26882 0.89194 0.0
C2137 C 0.9564 0.25911 0.87834 0.0
C2138 C 0.88603 0.2455 0.81941 0.0
C2139 C 0.9138 0.25714 0.85643 0.0
C2140 C 0.86797 0.24973 0.80615 0.0
C2141 C 0.85662 0.26743 0.81614 0.0
C2142 C 0.89279 0.25885 0.84308 0.0
C2143 C 0.8631 0.27936 0.84037 0.0
C2144 C 0.91961 0.26795 0.88103 0.0
C2145 C 0.94948 0.24735 0.85424 0.0
N2146 N 0.88085 0.27507 0.85289 0.0
N2147 N 0.92884 0.24682 0.84406 0.0
H2148 H 0.62187 0.22825 0.61682 0.0
H2149 H 0.54897 0.12101 0.51274 0.0
H2150 H 0.57553 0.24308 0.56505 0.0
H2151 H 0.57855 0.11044 0.579 0.0
H2152 H 0.5627 0.16552 0.52695 0.0
H2153 H 0.61103 0.18527 0.59803 0.0
C2154 C 0.60945 0.22256 0.60135 0.0
C2155 C 0.59943 0.23958 0.5928 0.0
C2156 C 0.56639 0.15343 0.53823 0.0
C2157 C 0.58678 0.18955 0.57099 0.0
C2158 C 0.55871 0.12809 0.53009 0.0
C2159 C 0.56336 0.11206 0.54439 0.0
C2160 C 0.57863 0.16275 0.56095 0.0
C2161 C 0.57528 0.12211 0.56706 0.0
C2162 C 0.60322 0.19783 0.59064 0.0
C2163 C 0.58368 0.23075 0.57238 0.0
N2164 N 0.5826 0.1467 0.57454 0.0
N2165 N 0.57772 0.20632 0.56225 0.0
H2166 H 0.60899 0.80999 0.41787 0.0
H2167 H 0.67147 0.75891 0.30695 0.0
H2168 H 0.57962 0.74369 0.36597 0.0
H2169 H 0.67837 0.83586 0.33393 0.0
H2170 H 0.64354 0.75044 0.33509 0.0
H2171 H 0.64054 0.81709 0.39365 0.0
C2172 C 0.60935 0.79677 0.40159 0.0
C2173 C 0.59165 0.77628 0.39381 0.0
C2174 C 0.65132 0.76916 0.33494 0.0
C2175 C 0.62764 0.78413 0.36634 0.0
C2176 C 0.66727 0.77398 0.31901 0.0
C2177 C 0.67707 0.7981 0.31809 0.0
C2178 C 0.64552 0.7886 0.35038 0.0
C2179 C 0.67101 0.81701 0.334 0.0
C2180 C 0.62725 0.8009 0.38775 0.0
C2181 C 0.59288 0.75979 0.3725 0.0
N2182 N 0.65567 0.81188 0.34957 0.0
N2183 N 0.61058 0.76402 0.35954 0.0
H2184 H 0.07492 0.23966 0.41065 0.0
H2185 H 0.08567 0.22972 0.54859 0.0
H2186 H 0.10004 0.30184 0.46894 0.0
H2187 H 0.04872 0.17155 0.49144 0.0
H2188 H 0.0911 0.25662 0.51996 0.0
H2189 H 0.06562 0.21428 0.44008 0.0
C2190 C 0.07841 0.24799 0.42964 0.0
C2191 C 0.08832 0.27289 0.43734 0.0
C2192 C 0.0817 0.23799 0.51374 0.0
C2193 C 0.07783 0.24395 0.47115 0.0
C2194 C 0.07848 0.22267 0.53012 0.0
C2195 C 0.06694 0.19823 0.52239 0.0
C2196 C 0.0734 0.2288 0.48944 0.0
C2197 C 0.05818 0.19007 0.49813 0.0
C2198 C 0.07306 0.23351 0.44644 0.0
C2199 C 0.09243 0.28272 0.46219 0.0
N2200 N 0.06174 0.20524 0.48252 0.0
N2201 N 0.08729 0.2682 0.4782 0.0
H2202 H 0.56586 0.29238 0.2477 0.0
H2203 H 0.69441 0.29014 0.2514 0.0
H2204 H 0.60316 0.3022 0.18718 0.0
H2205 H 0.64681 0.24356 0.28475 0.0
H2206 H 0.66377 0.30454 0.23426 0.0
H2207 H 0.59883 0.28554 0.26879 0.0
C2208 C 0.58109 0.29354 0.23901 0.0
C2209 C 0.58172 0.2975 0.21551 0.0
C2210 C 0.6602 0.29128 0.24548 0.0
C2211 C 0.61937 0.28988 0.23962 0.0
C2212 C 0.6776 0.28282 0.2551 0.0
C2213 C 0.67326 0.26528 0.26938 0.0
C2214 C 0.6384 0.2826 0.2506 0.0
C2215 C 0.65113 0.25724 0.27415 0.0
C2216 C 0.59981 0.28951 0.25102 0.0
C2217 C 0.60194 0.29892 0.20518 0.0
N2218 N 0.63454 0.26598 0.26479 0.0
N2219 N 0.62001 0.29499 0.21729 0.0
H2220 H 0.59978 0.9109 0.86661 0.0
H2221 H 0.60405 0.98515 1.00008 0.0
H2222 H 0.61574 0.88313 0.92897 0.0
H2223 H 0.55346 0.98685 0.94505 0.0
H2224 H 0.61654 0.95452 0.97185 0.0
H2225 H 0.5907 0.94595 0.89331 0.0
C2226 C 0.60165 0.9124 0.8859 0.0
C2227 C 0.60836 0.89419 0.89573 0.0
C2228 C 0.60272 0.96166 0.96601 0.0
C2229 C 0.59842 0.93389 0.92594 0.0
C2230 C 0.5954 0.979 0.98215 0.0
C2231 C 0.57716 0.98806 0.97519 0.0
C2232 C 0.59211 0.95369 0.94255 0.0
C2233 C 0.56732 0.98006 0.95131 0.0
C2234 C 0.59636 0.9322 0.901 0.0
C2235 C 0.61043 0.89674 0.92075 0.0
N2236 N 0.57492 0.96322 0.93577 0.0
N2237 N 0.60555 0.91631 0.93505 0.0
H2238 H 0.96121 0.76251 0.7532 0.0
H2239 H 0.84839 0.80285 0.7261 0.0
H2240 H 0.95154 0.79929 0.69547 0.0
H2241 H 0.85422 0.74956 0.76833 0.0
H2242 H 0.88645 0.80383 0.71568 0.0
H2243 H 0.92266 0.76057 0.76094 0.0
C2244 C 0.95106 0.77043 0.74228 0.0
C2245 C 0.95963 0.78102 0.72358 0.0
C2246 C 0.8794 0.79191 0.7272 0.0
C2247 C 0.91529 0.77867 0.73232 0.0
C2248 C 0.85782 0.79159 0.7334 0.0
C2249 C 0.84892 0.77723 0.74929 0.0
C2250 C 0.89177 0.77737 0.73665 0.0
C2251 C 0.86112 0.76175 0.75698 0.0
C2252 C 0.92894 0.76907 0.74657 0.0
C2253 C 0.94559 0.79091 0.71003 0.0
N2254 N 0.88211 0.76243 0.75083 0.0
N2255 N 0.92405 0.78954 0.71471 0.0
H2256 H 0.14208 0.98792 0.8433 0.0
H2257 H 0.10856 0.07411 0.95994 0.0
H2258 H 0.1404 0.06311 0.84764 0.0
H2259 H 0.08581 0.99608 0.94632 0.0
H2260 H 0.12511 0.07016 0.92164 0.0
H2261 H 0.12676 0.99012 0.88285 0.0
C2262 C 0.13893 1.005 0.85258 0.0
C2263 C 0.14288 0.02539 0.84164 0.0
C2264 C 0.11658 0.0538 0.92694 0.0
C2265 C 0.1251 0.0281 0.88766 0.0
C2266 C 0.10706 0.05605 0.9491 0.0
C2267 C 0.09545 0.03548 0.95696 0.0
C2268 C 0.11516 0.03069 0.91203 0.0
C2269 C 0.09435 0.01264 0.94139 0.0
C2270 C 0.12991 1.0062 0.87522 0.0
C2271 C 0.13785 0.0468 0.85492 0.0
N2272 N 0.10405 0.01089 0.92006 0.0
N2273 N 0.12954 0.04758 0.87683 0.0
H2274 H 0.84267 0.40971 0.5893 0.0
H2275 H 0.83162 0.26978 0.59472 0.0
H2276 H 0.80448 0.34945 0.53496 0.0
H2277 H 0.86461 0.3301 0.65184 0.0
H2278 H 0.82727 0.29863 0.56927 0.0
H2279 H 0.8556 0.38077 0.60973 0.0
C2280 C 0.83701 0.3904 0.58167 0.0
C2281 C 0.82227 0.38196 0.56057 0.0
C2282 C 0.83579 0.30554 0.58724 0.0
C2283 C 0.83713 0.34875 0.58371 0.0
C2284 C 0.83847 0.28906 0.60163 0.0
C2285 C 0.84825 0.29768 0.62541 0.0
C2286 C 0.84295 0.3307 0.59681 0.0
C2287 C 0.8567 0.32282 0.63365 0.0
C2288 C 0.84447 0.37388 0.59328 0.0
C2289 C 0.81565 0.35674 0.55134 0.0
N2290 N 0.85361 0.33849 0.61948 0.0
N2291 N 0.82304 0.34102 0.56304 0.0
H2292 H 0.49461 0.08369 0.35646 0.0
H2293 H 0.49208 0.02499 0.4704 0.0
H2294 H 0.43399 0.04244 0.37594 0.0
H2295 H 0.54644 0.08247 0.46115 0.0
H2296 H 0.46994 0.0323 0.43686 0.0
H2297 H 0.51309 0.0859 0.39607 0.0
C2298 C 0.48507 0.07561 0.36941 0.0
C2299 C 0.46287 0.06273 0.36306 0.0
C2300 C 0.48662 0.04348 0.44231 0.0
C2301 C 0.484 0.06447 0.40801 0.0
C2302 C 0.49926 0.03933 0.46145 0.0
C2303 C 0.52108 0.0532 0.46858 0.0
C2304 C 0.49602 0.06139 0.42996 0.0
C2305 C 0.5298 0.07112 0.456 0.0
C2306 C 0.49563 0.07678 0.39196 0.0
C2307 C 0.45115 0.05257 0.38031 0.0
N2308 N 0.51727 0.0746 0.43717 0.0
N2309 N 0.46203 0.05321 0.40195 0.0
H2310 H 0.81979 0.73716 0.08177 0.0
H2311 H 0.7992 0.72208 0.21427 0.0
H2312 H 0.77602 0.67488 0.09902 0.0
H2313 H 0.81945 0.79386 0.19964 0.0
H2314 H 0.79185 0.70496 0.1713 0.0
H2315 H 0.82124 0.75915 0.12384 0.0
C2316 C 0.81039 0.72817 0.09424 0.0
C2317 C 0.79807 0.70393 0.08682 0.0
C2318 C 0.79752 0.72452 0.1773 0.0
C2319 C 0.79966 0.7289 0.13472 0.0
C2320 C 0.80164 0.73427 0.20185 0.0
C2321 C 0.80934 0.7594 0.21041 0.0
C2322 C 0.80195 0.73984 0.16091 0.0
C2323 C 0.8129 0.77442 0.19363 0.0
C2324 C 0.81115 0.74076 0.11818 0.0
C2325 C 0.78607 0.69333 0.10378 0.0
N2326 N 0.80941 0.76436 0.16953 0.0
N2327 N 0.78736 0.70574 0.1268 0.0
H2328 H 0.17638 0.01671 0.6732 0.0
H2329 H 0.06585 0.03013 0.59531 0.0
H2330 H 0.11323 0.01093 0.70261 0.0
H2331 H 0.13065 0.03367 0.57016 0.0
H2332 H 0.08153 0.02473 0.63462 0.0
H2333 H 0.15912 0.02377 0.6362 0.0
C2334 C 0.15881 0.01682 0.67204 0.0
C2335 C 0.14655 0.01298 0.69168 0.0
C2336 C 0.09238 0.02685 0.62055 0.0
C2337 C 0.12602 0.02148 0.64798 0.0
C2338 C 0.08338 0.03016 0.59797 0.0
C2339 C 0.09681 0.03271 0.57889 0.0
C2340 C 0.1151 0.02587 0.62445 0.0
C2341 C 0.1194 0.032 0.58394 0.0
C2342 C 0.14884 0.02096 0.65061 0.0
C2343 C 0.12367 0.0136 0.68831 0.0
N2344 N 0.12759 0.02871 0.60571 0.0
N2345 N 0.11431 0.01771 0.66721 0.0
H2346 H 0.79313 0.43544 0.41751 0.0
H2347 H 0.82018 0.30909 0.355 0.0
H2348 H 0.78859 0.37328 0.45056 0.0
H2349 H 0.81592 0.3662 0.31694 0.0
H2350 H 0.81107 0.33405 0.39115 0.0
H2351 H 0.8018 0.41109 0.38045 0.0
C2352 C 0.79351 0.41657 0.41684 0.0
C2353 C 0.79032 0.40644 0.43722 0.0
C2354 C 0.81226 0.34123 0.37494 0.0
C2355 C 0.80074 0.37879 0.39524 0.0
C2356 C 0.81763 0.32705 0.35437 0.0
C2357 C 0.81848 0.33546 0.33291 0.0
C2358 C 0.80783 0.36405 0.37407 0.0
C2359 C 0.81533 0.35898 0.33312 0.0
C2360 C 0.79869 0.40277 0.39578 0.0
C2361 C 0.79115 0.38194 0.43537 0.0
N2362 N 0.80991 0.3724 0.35335 0.0
N2363 N 0.79649 0.36905 0.41486 0.0
H2364 H 0.46949 0.08562 0.24305 0.0
H2365 H 0.51816 0.98099 0.16502 0.0
H2366 H 0.43057 0.01255 0.21513 0.0
H2367 H 0.55118 0.05705 0.17979 0.0
H2368 H 0.4873 0.99149 0.18699 0.0
H2369 H 0.50021 0.07544 0.22111 0.0
C2370 C 0.46724 0.06762 0.23171 0.0
C2371 C 0.44753 0.04993 0.23076 0.0
C2372 C 0.50146 1.00584 0.18574 0.0
C2373 C 0.48278 0.03783 0.20645 0.0
C2374 C 0.5192 0.99979 0.17367 0.0
C2375 C 0.5372 0.01821 0.17105 0.0
C2376 C 0.5019 0.03045 0.19513 0.0
C2377 C 0.53763 0.04239 0.18184 0.0
C2378 C 0.48484 0.06172 0.21945 0.0
C2379 C 0.44544 0.02678 0.2161 0.0
N2380 N 0.52014 0.04786 0.19332 0.0
N2381 N 0.46304 0.02126 0.20474 0.0
H2382 H 0.81152 0.67806 0.91655 0.0
H2383 H 0.82883 0.80105 0.86688 0.0
H2384 H 0.82357 0.74932 0.96315 0.0
H2385 H 0.79804 0.73027 0.82312 0.0
H2386 H 0.83139 0.78243 0.90169 0.0
H2387 H 0.81137 0.6969 0.88162 0.0
C2388 C 0.81437 0.69771 0.91948 0.0
C2389 C 0.81755 0.71212 0.94291 0.0
C2390 C 0.82408 0.77096 0.88446 0.0
C2391 C 0.81729 0.73383 0.90281 0.0
C2392 C 0.82265 0.78155 0.86448 0.0
C2393 C 0.81317 0.7672 0.84184 0.0
C2394 C 0.81623 0.74572 0.88186 0.0
C2395 C 0.80538 0.74206 0.84008 0.0
C2396 C 0.81414 0.70844 0.89948 0.0
C2397 C 0.82105 0.73749 0.94547 0.0
N2398 N 0.80716 0.73212 0.85974 0.0
N2399 N 0.82083 0.74752 0.92569 0.0
H2400 H 0.81507 0.03221 0.0137 0.0
H2401 H 0.93124 0.03157 0.95933 0.0
H2402 H 0.85045 0.09018 0.98267 0.0
H2403 H 0.89568 0.97358 0.99003 0.0
H2404 H 0.8997 0.05103 0.96338 0.0
H2405 H 0.84257 1.00867 1.00155 0.0
C2406 C 0.82862 0.04002 1.0043 0.0
C2407 C 0.83057 0.06335 0.99941 0.0
C2408 C 0.89864 0.03391 0.96897 0.0
C2409 C 0.86212 0.03635 0.98534 0.0
C2410 C 0.91662 0.02279 0.96664 0.0
C2411 C 0.91613 1.00111 0.97465 0.0
C2412 C 0.88009 0.02335 0.97953 0.0
C2413 C 0.89671 0.99028 0.98363 0.0
C2414 C 0.84427 0.02648 0.99728 0.0
C2415 C 0.84837 0.07236 0.98697 0.0
N2416 N 0.87955 1.00169 0.98614 0.0
N2417 N 0.86354 0.05889 0.9805 0.0
H2418 H 0.39946 0.42028 0.04074 0.0
H2419 H 0.49551 0.54261 0.06965 0.0
H2420 H 0.38621 0.49171 0.06249 0.0
H2421 H 0.49972 0.47816 0.01821 0.0
H2422 H 0.45801 0.52209 0.07606 0.0
H2423 H 0.43925 0.43934 0.04193 0.0
C2424 C 0.40499 0.4399 0.04625 0.0
C2425 C 0.38955 0.45447 0.05134 0.0
C2426 C 0.46726 0.51249 0.06346 0.0
C2427 C 0.4348 0.47626 0.05279 0.0
C2428 C 0.48863 0.52423 0.05967 0.0
C2429 C 0.50068 0.51239 0.04293 0.0
C2430 C 0.45807 0.48853 0.05082 0.0
C2431 C 0.49101 0.48822 0.03104 0.0
C2432 C 0.42761 0.45075 0.04674 0.0
C2433 C 0.39756 0.47984 0.05821 0.0
N2434 N 0.47028 0.47712 0.03519 0.0
N2435 N 0.41963 0.48995 0.05868 0.0
H2436 H 0.38049 0.62548 0.74368 0.0
H2437 H 0.35009 0.75125 0.81137 0.0
H2438 H 0.41799 0.66661 0.81026 0.0
H2439 H 0.3437 0.72838 0.73436 0.0
H2440 H 0.36845 0.71717 0.81441 0.0
H2441 H 0.36112 0.65874 0.74285 0.0
C2442 C 0.38469 0.64134 0.75832 0.0
C2443 C 0.40135 0.64261 0.77703 0.0
C2444 C 0.36281 0.7194 0.79681 0.0
C2445 C 0.37808 0.68172 0.77646 0.0
C2446 C 0.35199 0.7389 0.79507 0.0
C2447 C 0.34463 0.74297 0.7725 0.0
C2448 C 0.36622 0.7031 0.7759 0.0
C2449 C 0.34856 0.72621 0.75223 0.0
C2450 C 0.37349 0.66059 0.75778 0.0
C2451 C 0.40556 0.66428 0.79528 0.0
N2452 N 0.35859 0.70732 0.75441 0.0
N2453 N 0.39406 0.6825 0.79463 0.0
H2454 H 0.20684 0.65704 0.53618 0.0
H2455 H 0.10251 0.54676 0.52838 0.0
H2456 H 0.20819 0.58149 0.51149 0.0
H2457 H 0.10031 0.62213 0.55193 0.0
H2458 H 0.14275 0.55878 0.52932 0.0
H2459 H 0.1694 0.64445 0.54772 0.0
C2460 C 0.19927 0.63783 0.53321 0.0
C2461 C 0.21051 0.62031 0.52259 0.0
C2462 C 0.13356 0.5727 0.53469 0.0
C2463 C 0.1677 0.60572 0.53591 0.0
C2464 C 0.11049 0.56579 0.53439 0.0
C2465 C 0.09799 0.58349 0.54001 0.0
C2466 C 0.14414 0.59754 0.54017 0.0
C2467 C 0.10938 0.60795 0.54736 0.0
C2468 C 0.17792 0.63061 0.53993 0.0
C2469 C 0.19998 0.59561 0.5194 0.0
N2470 N 0.13182 0.61432 0.54687 0.0
N2471 N 0.17909 0.58904 0.52588 0.0
H2472 H 0.76558 0.99902 0.76469 0.0
H2473 H 0.75715 0.90125 0.84845 0.0
H2474 H 0.70317 0.96062 0.78345 0.0
H2475 H 0.81801 0.93184 0.82087 0.0
H2476 H 0.73726 0.92409 0.82624 0.0
H2477 H 0.78525 0.97567 0.78645 0.0
C2478 C 0.75601 0.98566 0.77337 0.0
C2479 C 0.73269 0.98179 0.77226 0.0
C2480 C 0.75497 0.92581 0.82505 0.0
C2481 C 0.75513 0.95504 0.79732 0.0
C2482 C 0.76637 0.91288 0.83784 0.0
C2483 C 0.78929 0.91458 0.8365 0.0
C2484 C 0.76662 0.94082 0.811 0.0
C2485 C 0.8003 0.92976 0.82224 0.0
C2486 C 0.76725 0.9723 0.78577 0.0
C2487 C 0.72116 0.9642 0.78382 0.0
N2488 N 0.78889 0.94232 0.81013 0.0
N2489 N 0.7325 0.95154 0.79593 0.0
H2490 H 0.77238 0.95989 0.55749 0.0
H2491 H 0.65116 0.93491 0.48665 0.0
H2492 H 0.73523 0.88828 0.52096 0.0
H2493 H 0.68776 1.0058 0.52571 0.0
H2494 H 0.68059 0.917 0.50107 0.0
H2495 H 0.74031 0.97642 0.54849 0.0
C2496 C 0.75739 0.94759 0.54773 0.0
C2497 C 0.75655 0.92268 0.53978 0.0
C2498 C 0.68212 0.93645 0.50661 0.0
C2499 C 0.71974 0.94157 0.52922 0.0
C2500 C 0.66539 0.94672 0.49827 0.0
C2501 C 0.66707 0.97195 0.5048 0.0
C2502 C 0.70078 0.95151 0.52153 0.0
C2503 C 0.68567 0.98626 0.5203 0.0
C2504 C 0.73906 0.95706 0.54258 0.0
C2505 C 0.73663 0.9076 0.52734 0.0
N2506 N 0.70185 0.97587 0.52798 0.0
N2507 N 0.71908 0.91732 0.52225 0.0
H2508 H 0.37432 0.49873 0.76151 0.0
H2509 H 0.37565 0.36647 0.78909 0.0
H2510 H 0.43389 0.47444 0.77768 0.0
H2511 H 0.31884 0.37759 0.74867 0.0
H2512 H 0.39533 0.40802 0.78927 0.0
H2513 H 0.35201 0.45722 0.76101 0.0
C2514 C 0.38276 0.48489 0.76509 0.0
C2515 C 0.40624 0.49047 0.76956 0.0
C2516 C 0.3785 0.40153 0.78042 0.0
C2517 C 0.38062 0.44268 0.76926 0.0
C2518 C 0.36709 0.37756 0.78032 0.0
C2519 C 0.34514 0.36803 0.76909 0.0
C2520 C 0.36813 0.41685 0.76945 0.0
C2521 C 0.33544 0.3839 0.75798 0.0
C2522 C 0.36998 0.46108 0.76467 0.0
C2523 C 0.41598 0.47138 0.77396 0.0
N2524 N 0.34685 0.40738 0.75855 0.0
N2525 N 0.40329 0.44877 0.77382 0.0
H2526 H 0.20177 0.61791 0.21344 0.0
H2527 H 0.29157 0.71821 0.30902 0.0
H2528 H 0.23789 0.60121 0.27286 0.0
H2529 H 0.26181 0.73216 0.24439 0.0
H2530 H 0.26927 0.67611 0.29836 0.0
H2531 H 0.22188 0.66046 0.22597 0.0
C2532 C 0.21397 0.62315 0.22909 0.0
C2533 C 0.21813 0.6059 0.24211 0.0
C2534 C 0.26765 0.68836 0.28648 0.0
C2535 C 0.24099 0.65476 0.25679 0.0
C2536 C 0.28033 0.71231 0.29258 0.0
C2537 C 0.27913 0.72815 0.27699 0.0
C2538 C 0.25343 0.68049 0.26488 0.0
C2539 C 0.26379 0.72011 0.25638 0.0
C2540 C 0.22541 0.64749 0.23629 0.0
C2541 C 0.23418 0.61382 0.26222 0.0
N2542 N 0.25167 0.69674 0.25079 0.0
N2543 N 0.24496 0.63768 0.269 0.0
H2544 H 0.54022 0.68267 0.42398 0.0
H2545 H 0.52486 0.60111 0.52205 0.0
H2546 H 0.52707 0.71357 0.49544 0.0
H2547 H 0.5703 0.59233 0.4683 0.0
H2548 H 0.52111 0.63972 0.51129 0.0
H2549 H 0.54648 0.64677 0.43798 0.0
C2550 C 0.53847 0.68189 0.44262 0.0
C2551 C 0.533 0.70134 0.45848 0.0
C2552 C 0.53222 0.62959 0.50215 0.0
C2553 C 0.54002 0.6597 0.47468 0.0
C2554 C 0.53458 0.60771 0.50849 0.0
C2555 C 0.54884 0.59411 0.49693 0.0
C2556 C 0.54342 0.63747 0.48332 0.0
C2557 C 0.55977 0.60266 0.47827 0.0
C2558 C 0.54223 0.66137 0.45064 0.0
C2559 C 0.53123 0.69912 0.48252 0.0
N2560 N 0.55679 0.62364 0.47202 0.0
N2561 N 0.53448 0.67863 0.48981 0.0
H2562 H 0.67006 0.35839 0.68967 0.0
H2563 H 0.75504 0.27359 0.70182 0.0
H2564 H 0.68294 0.30782 0.62851 0.0
H2565 H 0.76072 0.34267 0.75062 0.0
H2566 H 0.72669 0.28357 0.67595 0.0
H2567 H 0.70124 0.35094 0.71354 0.0
C2568 C 0.67962 0.34593 0.68117 0.0
C2569 C 0.67392 0.33385 0.65697 0.0
C2570 C 0.73415 0.29651 0.69236 0.0
C2571 C 0.7094 0.32471 0.68448 0.0
C2572 C 0.75031 0.2908 0.70725 0.0
C2573 C 0.7601 0.30706 0.72887 0.0
C2574 C 0.72742 0.31853 0.6992 0.0
C2575 C 0.75332 0.32919 0.73463 0.0
C2576 C 0.69742 0.34165 0.69483 0.0
C2577 C 0.68686 0.31774 0.647 0.0
N2578 N 0.73732 0.33414 0.72007 0.0
N2579 N 0.70379 0.31341 0.66085 0.0
H2580 H 0.04851 0.35238 0.98717 0.0
H2581 H 0.02728 0.48207 0.96991 0.0
H2582 H 0.01664 0.36467 0.92279 0.0
H2583 H 0.07414 0.47595 0.02608 0.0
H2584 H 0.01777 0.43753 0.95663 0.0
H2585 H 0.05282 0.39595 0.00582 0.0
C2586 C 0.04212 0.36407 0.9771 0.0
C2587 C 0.03234 0.35479 0.95328 0.0
C2588 C 0.02992 0.44582 0.97209 0.0
C2589 C 0.03712 0.40457 0.97447 0.0
C2590 C 0.0352 0.47123 0.97974 0.0
C2591 C 0.05098 0.4826 0.99953 0.0
C2592 C 0.04084 0.43153 0.98398 0.0
C2593 C 0.06139 0.46778 0.01115 0.0
C2594 C 0.0447 0.38897 0.98768 0.0
C2595 C 0.0245 0.37094 0.94108 0.0
N2596 N 0.05614 0.44303 1.00324 0.0
N2597 N 0.02707 0.39483 0.95173 0.0
H2598 H 0.07192 0.83881 0.21488 0.0
H2599 H 0.94095 0.78659 0.21063 0.0
H2600 H 0.03057 0.80707 0.14789 0.0
H2601 H 0.98351 0.82848 0.27417 0.0
H2602 H 0.97212 0.79587 0.18642 0.0
H2603 H 0.03868 0.83747 0.23592 0.0
C2604 C 0.05572 0.83178 0.20455 0.0
C2605 C 0.05399 0.82291 0.17963 0.0
C2606 C 0.97452 0.80321 0.20562 0.0
C2607 C 0.01557 0.82079 0.20378 0.0
C2608 C 0.95673 0.79798 0.21945 0.0
C2609 C 0.95971 0.80644 0.24455 0.0
C2610 C 0.9954 0.817 0.21702 0.0
C2611 C 0.98055 0.82106 0.25499 0.0
C2612 C 0.03669 0.831 0.21658 0.0
C2613 C 0.03259 0.81415 0.16712 0.0
N2614 N 0.99754 0.82567 0.24125 0.0
N2615 N 0.01415 0.81294 0.1794 0.0
H2616 H 0.50629 0.28754 0.08779 0.0
H2617 H 0.56328 0.41367 0.05849 0.0
H2618 H 0.52227 0.35508 0.14084 0.0
H2619 H 0.51901 0.35841 1.00406 0.0
H2620 H 0.5523 0.38962 0.08827 0.0
H2621 H 0.51352 0.31078 0.0561 0.0
C2622 C 0.51103 0.30725 0.09274 0.0
C2623 C 0.5138 0.31943 0.11699 0.0
C2624 C 0.54491 0.38278 0.06983 0.0
C2625 C 0.52252 0.34586 0.08102 0.0
C2626 C 0.55114 0.39651 0.05277 0.0
C2627 C 0.54169 0.38833 0.02876 0.0
C2628 C 0.52943 0.36038 0.06289 0.0
C2629 C 0.5267 0.36544 0.02234 0.0
C2630 C 0.51515 0.32043 0.07467 0.0
C2631 C 0.51993 0.34495 0.12241 0.0
N2632 N 0.521 0.3522 0.03935 0.0
N2633 N 0.52439 0.35729 0.10459 0.0
H2634 H 0.06539 0.31868 0.28724 0.0
H2635 H 0.93416 0.30062 0.28685 0.0
H2636 H 0.03344 0.30442 0.35006 0.0
H2637 H 0.97563 0.35142 0.252 0.0
H2638 H 0.96796 0.29195 0.30467 0.0
H2639 H 0.0294 0.31848 0.26731 0.0
C2640 C 0.05075 0.31513 0.29676 0.0
C2641 C 0.0525 0.3121 0.32059 0.0
C2642 C 0.96945 0.30485 0.29299 0.0
C2643 C 0.01125 0.3119 0.29774 0.0
C2644 C 0.95025 0.31002 0.28295 0.0
C2645 C 0.95192 0.32683 0.26779 0.0
C2646 C 0.99036 0.31616 0.28738 0.0
C2647 C 0.9733 0.33795 0.26305 0.0
C2648 C 0.03024 0.31511 0.28536 0.0
C2649 C 0.03284 0.30707 0.33177 0.0
N2650 N 0.99161 0.33232 0.27271 0.0
N2651 N 0.01293 0.30743 0.32032 0.0
H2652 H 0.01336 0.67734 0.68186 0.0
H2653 H 0.99415 0.60347 0.54585 0.0
H2654 H 0.98834 0.70419 0.62244 0.0
H2655 H 0.03489 0.58847 0.60285 0.0
H2656 H 0.98282 0.63443 0.57532 0.0
H2657 H 0.01122 0.63832 0.65467 0.0
C2658 C 0.00704 0.67493 0.6632 0.0
C2659 C 0.00158 0.69428 0.65427 0.0
C2660 C 0.99409 0.62416 0.58132 0.0
C2661 C 0.99926 0.64976 0.62311 0.0
C2662 C 1.00076 0.60668 0.56449 0.0
C2663 C 0.01619 0.59403 0.57171 0.0
C2664 C 0.0027 0.62872 0.60553 0.0
C2665 C 0.02338 0.59816 0.5963 0.0
C2666 C 0.00588 0.65266 0.64769 0.0
C2667 C 0.99317 0.68994 0.63 0.0
N2668 N 0.01675 0.61533 0.61228 0.0
N2669 N 0.9926 0.66823 0.61514 0.0
H2670 H 0.69427 0.83103 0.88776 0.0
H2671 H 0.75748 0.84941 0.77287 0.0
H2672 H 0.66258 0.82945 0.81772 0.0
H2673 H 0.7864 0.83381 0.83701 0.0
H2674 H 0.7254 0.85743 0.79421 0.0
H2675 H 0.73054 0.84643 0.87416 0.0
C2676 C 0.69492 0.83419 0.86967 0.0
C2677 C 0.6755 0.82836 0.85365 0.0
C2678 C 0.73904 0.8528 0.80376 0.0
C2679 C 0.71659 0.84642 0.83822 0.0
C2680 C 0.75716 0.84813 0.79156 0.0
C2681 C 0.77377 0.8399 0.80305 0.0
C2682 C 0.73793 0.84934 0.8275 0.0
C2683 C 0.7733 0.83927 0.82743 0.0
C2684 C 0.71554 0.84318 0.86199 0.0
C2685 C 0.67716 0.83325 0.83056 0.0
N2686 N 0.75542 0.8435 0.8388 0.0
N2687 N 0.69736 0.84181 0.82348 0.0
H2688 H 0.44457 0.55176 0.68062 0.0
H2689 H 0.55852 0.57626 0.61522 0.0
H2690 H 0.5085 0.58764 0.71986 0.0
H2691 H 0.49646 0.53076 0.57857 0.0
H2692 H 0.54061 0.58202 0.65276 0.0
H2693 H 0.46279 0.54565 0.64333 0.0
C2694 C 0.46245 0.55848 0.68157 0.0
C2695 C 0.47474 0.57035 0.70401 0.0
C2696 C 0.53084 0.57072 0.63658 0.0
C2697 C 0.49621 0.56332 0.66023 0.0
C2698 C 0.54115 0.56732 0.61488 0.0
C2699 C 0.52931 0.55277 0.59308 0.0
C2700 C 0.50812 0.5598 0.63707 0.0
C2701 C 0.50662 0.54206 0.59451 0.0
C2702 C 0.47294 0.55489 0.66002 0.0
C2703 C 0.49803 0.57841 0.70337 0.0
N2704 N 0.49695 0.54583 0.61575 0.0
N2705 N 0.50781 0.57486 0.68216 0.0
H2706 H 0.8155 0.20693 0.97468 0.0
H2707 H 0.74998 0.20077 0.84871 0.0
H2708 H 0.79043 0.14028 0.92162 0.0
H2709 H 0.78435 0.26835 0.89599 0.0
H2710 H 0.76746 0.17848 0.87381 0.0
H2711 H 0.80793 0.23011 0.94467 0.0
C2712 C 0.80884 0.19718 0.95659 0.0
C2713 C 0.80328 0.17162 0.95074 0.0
C2714 C 0.77137 0.1982 0.87862 0.0
C2715 C 0.7942 0.19798 0.91648 0.0
C2716 C 0.76126 0.21088 0.86439 0.0
C2717 C 0.7655 0.23638 0.87052 0.0
C2718 C 0.78563 0.21108 0.89932 0.0
C2719 C 0.7806 0.24867 0.89071 0.0
C2720 C 0.80444 0.21042 0.93948 0.0
C2721 C 0.79475 0.15996 0.92701 0.0
N2722 N 0.78991 0.23589 0.90459 0.0
N2723 N 0.79015 0.17321 0.91086 0.0
H2724 H 0.14073 0.4716 0.1674 0.0
H2725 H 0.12602 0.56316 0.08252 0.0
H2726 H 0.19406 0.52967 0.1574 0.0
H2727 H 0.07274 0.50546 0.09366 0.0
H2728 H 0.15231 0.54808 0.10579 0.0
H2729 H 0.11746 0.47924 0.13491 0.0
C2730 C 0.14778 0.48543 0.15776 0.0
C2731 C 0.16926 0.50012 0.16516 0.0
C2732 C 0.13488 0.53868 0.10312 0.0
C2733 C 0.14248 0.50963 0.12861 0.0
C2734 C 0.11977 0.54743 0.09002 0.0
C2735 C 0.09701 0.53577 0.08637 0.0
C2736 C 0.12724 0.51814 0.11281 0.0
C2737 C 0.09006 0.51519 0.09619 0.0
C2738 C 0.13441 0.49 0.13942 0.0
C2739 C 0.1776 0.51788 0.15221 0.0
N2740 N 0.10509 0.50711 0.10905 0.0
N2741 N 0.16401 0.52248 0.13485 0.0
H2742 H 0.8387 0.90626 0.44897 0.0
H2743 H 0.81041 0.78752 0.34207 0.0
H2744 H 0.80897 0.83551 0.46185 0.0
H2745 H 0.82588 0.86207 0.33406 0.0
H2746 H 0.8164 0.80221 0.38632 0.0
H2747 H 0.84155 0.88773 0.40762 0.0
C2748 C 0.83281 0.88669 0.44305 0.0
C2749 C 0.8232 0.87248 0.45877 0.0
C2750 C 0.8188 0.81525 0.37478 0.0
C2751 C 0.82607 0.85094 0.41086 0.0
C2752 C 0.81559 0.80689 0.34964 0.0
C2753 C 0.81805 0.82369 0.33455 0.0
C2754 C 0.82448 0.84048 0.38459 0.0
C2755 C 0.82407 0.84856 0.3451 0.0
C2756 C 0.83444 0.87607 0.41935 0.0
C2757 C 0.81633 0.84713 0.4502 0.0
N2758 N 0.8271 0.85613 0.36933 0.0
N2759 N 0.81756 0.83713 0.42661 0.0
H2760 H 0.4576 0.5749 0.86941 0.0
H2761 H 0.56092 0.5528 0.953 0.0
H2762 H 0.51955 0.56397 0.84315 0.0
H2763 H 0.49782 0.55918 0.97883 0.0
H2764 H 0.5463 0.5572 0.91309 0.0
H2765 H 0.47204 0.57068 0.90955 0.0
C2766 C 0.47428 0.57198 0.87192 0.0
C2767 C 0.48714 0.56999 0.85218 0.0
C2768 C 0.53555 0.55755 0.92743 0.0
C2769 C 0.50404 0.56466 0.89895 0.0
C2770 C 0.54393 0.5548 0.95037 0.0
C2771 C 0.53065 0.55513 0.96975 0.0
C2772 C 0.51364 0.56109 0.9234 0.0
C2773 C 0.50884 0.5585 0.96473 0.0
C2774 C 0.48255 0.56933 0.89501 0.0
C2775 C 0.50866 0.56573 0.85728 0.0
N2776 N 0.50119 0.56131 0.9425 0.0
N2777 N 0.51621 0.56325 0.87966 0.0
H2778 H 0.79305 0.13379 0.1114 0.0
H2779 H 0.806 0.273 0.17682 0.0
H2780 H 0.81311 0.19374 0.0761 0.0
H2781 H 0.79328 0.21282 0.21297 0.0
H2782 H 0.80817 0.2445 0.13956 0.0
H2783 H 0.79383 0.16281 0.14896 0.0
C2784 C 0.79792 0.15309 0.11162 0.0
C2785 C 0.80291 0.16135 0.09053 0.0
C2786 C 0.80492 0.23757 0.15566 0.0
C2787 C 0.80342 0.19475 0.13348 0.0
C2788 C 0.80365 0.25382 0.17694 0.0
C2789 C 0.79992 0.24538 0.1982 0.0
C2790 C 0.80211 0.21266 0.15559 0.0
C2791 C 0.79641 0.22024 0.19712 0.0
C2792 C 0.79826 0.16967 0.13308 0.0
C2793 C 0.80919 0.18658 0.09194 0.0
N2794 N 0.79769 0.20482 0.17622 0.0
N2795 N 0.80903 0.20241 0.11301 0.0
H2796 H 0.15934 0.54359 0.31119 0.0
H2797 H 0.04606 0.57492 0.35563 0.0
H2798 H 0.10263 0.54418 0.26328 0.0
H2799 H 0.10619 0.58593 0.40312 0.0
H2800 H 0.06585 0.5611 0.32162 0.0
H2801 H 0.13902 0.5556 0.34548 0.0
C2802 C 0.14257 0.54602 0.30788 0.0
C2803 C 0.13272 0.54304 0.28436 0.0
C2804 C 0.07472 0.56657 0.33949 0.0
C2805 C 0.10951 0.55688 0.32337 0.0
C2806 C 0.06348 0.57465 0.35887 0.0
C2807 C 0.07448 0.58154 0.38223 0.0
C2808 C 0.0971 0.56534 0.34352 0.0
C2809 C 0.09697 0.58044 0.38544 0.0
C2810 C 0.13104 0.55301 0.32744 0.0
C2811 C 0.11096 0.54647 0.28111 0.0
N2812 N 0.10753 0.57243 0.3663 0.0
N2813 N 0.10012 0.55327 0.30039 0.0
H2814 H 0.80681 0.82931 0.58991 0.0
H2815 H 0.8269 0.86519 0.73407 0.0
H2816 H 0.8371 0.90166 0.63074 0.0
H2817 H 0.7979 0.79217 0.69454 0.0
H2818 H 0.83125 0.87854 0.69618 0.0
H2819 H 0.80404 0.81487 0.62764 0.0
C2820 C 0.81306 0.84211 0.60676 0.0
C2821 C 0.82218 0.86676 0.60712 0.0
C2822 C 0.82389 0.85957 0.69571 0.0
C2823 C 0.81888 0.8504 0.65039 0.0
C2824 C 0.82156 0.85193 0.71742 0.0
C2825 C 0.81204 0.82755 0.71752 0.0
C2826 C 0.81666 0.8427 0.67381 0.0
C2827 C 0.80488 0.81125 0.69531 0.0
C2828 C 0.81139 0.83387 0.62831 0.0
C2829 C 0.82992 0.88252 0.62953 0.0
N2830 N 0.80737 0.81909 0.67435 0.0
N2831 N 0.82802 0.87411 0.65018 0.0
H2832 H 0.76705 0.50053 0.55589 0.0
H2833 H 0.64076 0.47749 0.58884 0.0
H2834 H 0.72331 0.429 0.54412 0.0
H2835 H 0.68371 0.54866 0.59495 0.0
H2836 H 0.67146 0.45898 0.57527 0.0
H2837 H 0.73723 0.51818 0.57272 0.0
C2838 C 0.75117 0.48852 0.55687 0.0
C2839 C 0.74763 0.46326 0.54851 0.0
C2840 C 0.67419 0.47865 0.5797 0.0
C2841 C 0.71338 0.48335 0.56783 0.0
C2842 C 0.65674 0.48919 0.5876 0.0
C2843 C 0.65975 0.51461 0.59293 0.0
C2844 C 0.69475 0.49369 0.57725 0.0
C2845 C 0.68066 0.52897 0.59075 0.0
C2846 C 0.73413 0.49861 0.5665 0.0
C2847 C 0.72672 0.44859 0.55028 0.0
N2848 N 0.69733 0.51831 0.58303 0.0
N2849 N 0.71036 0.45885 0.55972 0.0
H2850 H 0.23999 0.10369 0.47679 0.0
H2851 H 0.12729 0.1093 0.53503 0.0
H2852 H 0.22469 0.17101 0.512 0.0
H2853 H 0.13061 0.05092 0.47579 0.0
H2854 H 0.16419 0.1309 0.52881 0.0
H2855 H 0.20111 0.08262 0.47781 0.0
C2856 C 0.22842 0.11406 0.48453 0.0
C2857 C 0.23562 0.13912 0.49445 0.0
C2858 C 0.15683 0.11338 0.51712 0.0
C2859 C 0.19138 0.11513 0.49596 0.0
C2860 C 0.13574 0.10093 0.52071 0.0
C2861 C 0.12586 0.07798 0.50615 0.0
C2862 C 0.1684 0.10276 0.49906 0.0
C2863 C 0.13769 0.0683 0.48774 0.0
C2864 C 0.20627 0.10205 0.48506 0.0
C2865 C 0.21992 0.15169 0.5042 0.0
N2866 N 0.15847 0.08062 0.48488 0.0
N2867 N 0.19864 0.13951 0.50497 0.0
H2868 H 0.24384 0.95289 0.73848 0.0
H2869 H 0.26548 0.85074 0.8104 0.0
H2870 H 0.20065 0.92857 0.7897 0.0
H2871 H 0.28093 0.84381 0.73709 0.0
H2872 H 0.24755 0.884 0.80595 0.0
H2873 H 0.26254 0.91898 0.74016 0.0
C2874 C 0.23818 0.94059 0.75016 0.0
C2875 C 0.22022 0.94418 0.7639 0.0
C2876 C 0.255 0.87553 0.79079 0.0
C2877 C 0.2425 0.90464 0.76634 0.0
C2878 C 0.2655 0.85633 0.79331 0.0
C2879 C 0.27556 0.8441 0.77438 0.0
C2880 C 0.2543 0.88371 0.76908 0.0
C2881 C 0.27418 0.85259 0.75262 0.0
C2882 C 0.24895 0.92096 0.75102 0.0
C2883 C 0.21413 0.92703 0.77858 0.0
N2884 N 0.26416 0.87178 0.75074 0.0
N2885 N 0.22523 0.90866 0.77959 0.0
H2886 H 0.38578 0.01074 0.01392 0.0
H2887 H 0.49813 0.96311 0.01024 0.0
H2888 H 0.38829 0.93898 0.02469 0.0
H2889 H 0.49657 0.03867 0.03356 0.0
H2890 H 0.45711 0.95235 0.00753 0.0
H2891 H 0.42619 0.01975 0.0123 0.0
C2892 C 0.3948 0.99686 0.01585 0.0
C2893 C 0.38373 0.97418 0.01972 0.0
C2894 C 0.46586 0.9713 0.013 0.0
C2895 C 0.42974 0.98431 0.01772 0.0
C2896 C 0.48913 0.9774 0.01451 0.0
C2897 C 0.5006 1.00186 0.02131 0.0
C2898 C 0.45422 0.98985 0.01845 0.0
C2899 C 0.48836 0.01972 0.02732 0.0
C2900 C 0.41782 1.00204 0.01498 0.0
C2901 C 0.39623 0.95681 0.02198 0.0
N2902 N 0.46579 0.01339 0.02554 0.0
N2903 N 0.41862 0.96223 0.02093 0.0
H2904 H 0.83139 0.57205 0.82808 0.0
H2905 H 0.81814 0.69654 0.79656 0.0
H2906 H 0.88438 0.63688 0.83933 0.0
H2907 H 0.76933 0.62829 0.77527 0.0
H2908 H 0.83794 0.67878 0.82432 0.0
H2909 H 0.80443 0.59641 0.82205 0.0
C2910 C 0.83731 0.59154 0.82998 0.0
C2911 C 0.86021 0.60234 0.83337 0.0
C2912 C 0.82269 0.66782 0.81388 0.0
C2913 C 0.82955 0.63016 0.82605 0.0
C2914 C 0.81134 0.67796 0.79806 0.0
C2915 C 0.79238 0.66362 0.78314 0.0
C2916 C 0.81506 0.64319 0.81466 0.0
C2917 C 0.78429 0.63971 0.7859 0.0
C2918 C 0.82191 0.60542 0.82641 0.0
C2919 C 0.86689 0.62771 0.83612 0.0
N2920 N 0.79586 0.63012 0.80106 0.0
N2921 N 0.85166 0.6407 0.83178 0.0
H2922 H 0.8787 0.65932 0.03084 0.0
H2923 H 0.91857 0.53804 0.04419 0.0
H2924 H 0.83842 0.5861 0.00901 0.0
H2925 H 0.95931 0.60981 0.07361 0.0
H2926 H 0.89187 0.5561 0.025 0.0
H2927 H 0.91091 0.64249 0.0407 0.0
C2928 C 0.87676 0.63975 0.02764 0.0
C2929 C 0.8558 0.62409 0.0193 0.0
C2930 C 0.90669 0.56803 0.03547 0.0
C2931 C 0.89237 0.60477 0.03055 0.0
C2932 C 0.92194 0.55767 0.04641 0.0
C2933 C 0.94097 0.57248 0.06074 0.0
C2934 C 0.91022 0.59352 0.03909 0.0
C2935 C 0.94474 0.5978 0.06276 0.0
C2936 C 0.89508 0.63016 0.0334 0.0
C2937 C 0.85418 0.59889 0.01565 0.0
N2938 N 0.92931 0.6076 0.05235 0.0
N2939 N 0.87208 0.5901 0.0214 0.0
H2940 H 0.24857 0.09225 0.78947 0.0
H2941 H 0.25219 0.22289 0.7544 0.0
H2942 H 0.19416 0.11251 0.75352 0.0
H2943 H 0.30607 0.21262 0.80003 0.0
H2944 H 0.23255 0.18116 0.75263 0.0
H2945 H 0.27151 0.13401 0.79206 0.0
C2946 C 0.24141 0.10521 0.782 0.0
C2947 C 0.21911 0.09841 0.77133 0.0
C2948 C 0.24871 0.18781 0.76303 0.0
C2949 C 0.24546 0.14654 0.77422 0.0
C2950 C 0.26012 0.21195 0.76405 0.0
C2951 C 0.28124 0.22182 0.7772 0.0
C2952 C 0.25815 0.17263 0.77519 0.0
C2953 C 0.2901 0.20607 0.78933 0.0
C2954 C 0.25454 0.12918 0.7836 0.0
C2955 C 0.21103 0.11644 0.76212 0.0
N2956 N 0.27863 0.18243 0.78801 0.0
N2957 N 0.22401 0.1392 0.76376 0.0
H2958 H 0.42885 0.95014 0.28759 0.0
H2959 H 0.32546 0.84758 0.22132 0.0
H2960 H 0.36709 0.96765 0.26578 0.0
H2961 H 0.36239 0.83723 0.28356 0.0
H2962 H 0.34632 0.8903 0.22943 0.0
H2963 H 0.40969 0.90676 0.27898 0.0
C2964 C 0.4113 0.94484 0.281 0.0
C2965 C 0.39945 0.96241 0.27747 0.0
C2966 C 0.34977 0.87862 0.24129 0.0
C2967 C 0.37788 0.91323 0.26704 0.0
C2968 C 0.33795 0.85442 0.23671 0.0
C2969 C 0.34175 0.83941 0.25238 0.0
C2970 C 0.36599 0.88745 0.26114 0.0
C2971 C 0.35855 0.84865 0.27162 0.0
C2972 C 0.40045 0.92022 0.27616 0.0
C2973 C 0.37674 0.95466 0.26892 0.0
N2974 N 0.37014 0.87221 0.27552 0.0
N2975 N 0.36672 0.93057 0.26372 0.0
H2976 H 0.59255 0.41189 0.62221 0.0
H2977 H 0.59107 0.47397 0.50699 0.0
H2978 H 0.60192 0.37519 0.5513 0.0
H2979 H 0.57532 0.50652 0.57657 0.0
H2980 H 0.59638 0.43836 0.52276 0.0
H2981 H 0.58756 0.44702 0.60596 0.0
C2982 C 0.59354 0.41113 0.60318 0.0
C2983 C 0.59765 0.39028 0.58819 0.0
C2984 C 0.59167 0.4532 0.5346 0.0
C2985 C 0.5919 0.431 0.56926 0.0
C2986 C 0.58857 0.47351 0.52556 0.0
C2987 C 0.58203 0.49291 0.54026 0.0
C2988 C 0.58879 0.45244 0.55881 0.0
C2989 C 0.57977 0.49171 0.56443 0.0
C2990 C 0.59066 0.43131 0.59388 0.0
C2991 C 0.59876 0.39069 0.56364 0.0
N2992 N 0.58304 0.47189 0.57287 0.0
N2993 N 0.59594 0.41061 0.555 0.0
H2994 H 0.46385 0.73504 0.34324 0.0
H2995 H 0.36831 0.80706 0.33635 0.0
H2996 H 0.45262 0.78693 0.4041 0.0
H2997 H 0.36601 0.73849 0.28809 0.0
H2998 H 0.39917 0.80048 0.36121 0.0
H2999 H 0.42788 0.73555 0.32293 0.0
C3000 C 0.4534 0.74593 0.35264 0.0
C3001 C 0.46097 0.76055 0.37558 0.0
C3002 C 0.39168 0.7867 0.34537 0.0
C3003 C 0.42025 0.76227 0.35193 0.0
C3004 C 0.37389 0.79037 0.33118 0.0
C3005 C 0.36395 0.77306 0.31028 0.0
C3006 C 0.4001 0.7658 0.3384 0.0
C3007 C 0.37279 0.75228 0.3041 0.0
C3008 C 0.43296 0.74641 0.34095 0.0
C3009 C 0.44712 0.77494 0.38666 0.0
N3010 N 0.39038 0.74935 0.31795 0.0
N3011 N 0.42761 0.77576 0.37458 0.0
H3012 H 0.11105 0.72796 0.12779 0.0
H3013 H 0.05526 0.62202 0.01355 0.0
H3014 H 0.07983 0.74365 0.0647 0.0
H3015 H 0.07658 0.61011 0.0826 0.0
H3016 H 0.06716 0.66641 0.02942 0.0
H3017 H 0.1018 0.68508 0.10903 0.0
C3018 C 0.1022 0.72248 0.10991 0.0
C3019 C 0.0961 0.73978 0.09799 0.0
C3020 C 0.06946 0.65409 0.04101 0.0
C3021 C 0.0853 0.68973 0.07612 0.0
C3022 C 0.06283 0.62881 0.03192 0.0
C3023 C 0.0657 0.61246 0.04659 0.0
C3024 C 0.07865 0.66303 0.06508 0.0
C3025 C 0.07478 0.62209 0.07049 0.0
C3026 C 0.0969 0.69776 0.09917 0.0
C3027 C 0.08481 0.73111 0.07469 0.0
N3028 N 0.08098 0.64664 0.07892 0.0
N3029 N 0.07972 0.7067 0.06453 0.0
H3030 H 0.06347 0.25231 0.85335 0.0
H3031 H 0.19248 0.30574 0.84114 0.0
H3032 H 0.11101 0.28971 0.91463 0.0
H3033 H 0.14281 0.27004 0.78127 0.0
H3034 H 0.16394 0.29829 0.86877 0.0
H3035 H 0.09322 0.25697 0.82724 0.0
C3036 C 0.08022 0.26147 0.86137 0.0
C3037 C 0.08468 0.27074 0.88626 0.0
C3038 C 0.15933 0.29205 0.84958 0.0
C3039 C 0.11908 0.27625 0.85623 0.0
C3040 C 0.17564 0.29617 0.8338 0.0
C3041 C 0.17004 0.28868 0.80878 0.0
C3042 C 0.13727 0.28023 0.84031 0.0
C3043 C 0.14788 0.27656 0.80035 0.0
C3044 C 0.09726 0.26414 0.84639 0.0
C3045 C 0.10679 0.28233 0.89555 0.0
N3046 N 0.13238 0.27279 0.81602 0.0
N3047 N 0.12317 0.28485 0.88051 0.0
H3048 H 0.58336 0.72913 0.89525 0.0
H3049 H 0.56968 0.72608 0.03368 0.0
H3050 H 0.59204 0.79344 0.95174 0.0
H3051 H 0.55755 0.66144 0.97708 0.0
H3052 H 0.57727 0.75102 1.00369 0.0
H3053 H 0.57348 0.70389 0.92476 0.0
C3054 C 0.58314 0.73794 0.91383 0.0
C3055 C 0.58857 0.76343 0.92104 0.0
C3056 C 0.57289 0.73138 0.9978 0.0
C3057 C 0.57733 0.73471 0.95489 0.0
C3058 C 0.56842 0.71712 0.01492 0.0
C3059 C 0.56302 0.6916 0.00793 0.0
C3060 C 0.572 0.72008 0.97345 0.0
C3061 C 0.56198 0.68103 0.98336 0.0
C3062 C 0.5775 0.72353 0.93067 0.0
C3063 C 0.588 0.77386 0.94536 0.0
N3064 N 0.56647 0.6953 0.96703 0.0
N3065 N 0.58255 0.75948 0.96139 0.0
H3066 H 0.0826 0.79623 0.7394 0.0
H3067 H 0.15501 0.69534 0.72823 0.0
H3068 H 0.08585 0.7466 0.67294 0.0
H3069 H 0.17133 0.76111 0.78343 0.0
H3070 H 0.12348 0.7092 0.71183 0.0
H3071 H 0.1105 0.77978 0.75926 0.0
C3072 C 0.08933 0.78205 0.72897 0.0
C3073 C 0.08204 0.77287 0.70448 0.0
C3074 C 0.13378 0.7204 0.72775 0.0
C3075 C 0.11331 0.75361 0.72713 0.0
C3076 C 0.15151 0.71236 0.73725 0.0
C3077 C 0.1656 0.72716 0.75712 0.0
C3078 C 0.13015 0.74327 0.73839 0.0
C3079 C 0.16072 0.74926 0.76803 0.0
C3080 C 0.1051 0.7726 0.74031 0.0
C3081 C 0.09114 0.75436 0.69181 0.0
N3082 N 0.14343 0.75675 0.75843 0.0
N3083 N 0.1062 0.74522 0.70333 0.0
H3084 H 0.11608 0.39312 0.44268 0.0
H3085 H 0.05373 0.49919 0.44526 0.0
H3086 H 0.10443 0.41952 0.37828 0.0
H3087 H 0.09564 0.49381 0.50653 0.0
H3088 H 0.07007 0.46918 0.41976 0.0
H3089 H 0.10634 0.42889 0.4664 0.0
C3090 C 0.11165 0.40661 0.43359 0.0
C3091 C 0.11097 0.40344 0.40856 0.0
C3092 C 0.07573 0.47484 0.43878 0.0
C3093 C 0.09947 0.44409 0.43543 0.0
C3094 C 0.06639 0.49184 0.45333 0.0
C3095 C 0.07286 0.49851 0.47818 0.0
C3096 C 0.09139 0.46439 0.44931 0.0
C3097 C 0.08956 0.48866 0.48763 0.0
C3098 C 0.10618 0.42703 0.44711 0.0
C3099 C 0.10522 0.42145 0.3976 0.0
N3100 N 0.098 0.47186 0.47326 0.0
N3101 N 0.0993 0.44092 0.41111 0.0
H3102 H 0.44541 0.28751 0.19469 0.0
H3103 H 0.35158 0.23233 0.27287 0.0
H3104 H 0.4557 0.24181 0.24421 0.0
H3105 H 0.34759 0.29089 0.23697 0.0
H3106 H 0.38727 0.23001 0.25662 0.0
H3107 H 0.40703 0.2841 0.2049 0.0
C3108 C 0.43958 0.27667 0.2076 0.0
C3109 C 0.45381 0.26506 0.21873 0.0
C3110 C 0.37851 0.24331 0.25225 0.0
C3111 C 0.40997 0.26084 0.23022 0.0
C3112 C 0.35826 0.24463 0.26152 0.0
C3113 C 0.34733 0.26254 0.25705 0.0
C3114 C 0.38744 0.25969 0.23802 0.0
C3115 C 0.35603 0.27751 0.24158 0.0
C3116 C 0.41769 0.27471 0.21339 0.0
C3117 C 0.44538 0.25125 0.23534 0.0
N3118 N 0.37573 0.27593 0.23278 0.0
N3119 N 0.42401 0.24955 0.2406 0.0
H3120 H 0.67051 0.52163 0.36143 0.0
H3121 H 0.56085 0.52408 0.43412 0.0
H3122 H 0.60554 0.52168 0.32942 0.0
H3123 H 0.62659 0.54232 0.47196 0.0
H3124 H 0.57721 0.51891 0.39589 0.0
H3125 H 0.6556 0.52489 0.40126 0.0
C3126 C 0.6531 0.52194 0.3625 0.0
C3127 C 0.63946 0.52123 0.34138 0.0
C3128 C 0.58822 0.5239 0.41246 0.0
C3129 C 0.62199 0.52509 0.38772 0.0
C3130 C 0.57872 0.52661 0.43461 0.0
C3131 C 0.592 0.5333 0.45695 0.0
C3132 C 0.61155 0.52764 0.41187 0.0
C3133 C 0.61537 0.53717 0.45557 0.0
C3134 C 0.64457 0.52404 0.38547 0.0
C3135 C 0.61701 0.52214 0.34471 0.0
N3136 N 0.62425 0.53417 0.43373 0.0
N3137 N 0.6092 0.52389 0.36691 0.0
H3138 H 0.35561 0.92753 0.11901 0.0
H3139 H 0.36425 0.80051 0.15145 0.0
H3140 H 0.3201 0.85749 0.07692 0.0
H3141 H 0.3886 0.86956 0.20119 0.0
H3142 H 0.35039 0.82155 0.12264 0.0
H3143 H 0.36997 0.90705 0.14825 0.0
C3144 C 0.35079 0.90785 0.11595 0.0
C3145 C 0.33665 0.89417 0.0955 0.0
C3146 C 0.35879 0.83214 0.13983 0.0
C3147 C 0.35315 0.87068 0.12874 0.0
C3148 C 0.36669 0.82014 0.15629 0.0
C3149 C 0.37753 0.83331 0.17877 0.0
C3150 C 0.36181 0.85756 0.14577 0.0
C3151 C 0.38056 0.85875 0.18394 0.0
C3152 C 0.35899 0.89619 0.13265 0.0
C3153 C 0.33093 0.86874 0.09244 0.0
N3154 N 0.37269 0.87007 0.16756 0.0
N3155 N 0.33928 0.85782 0.10884 0.0
H3156 H 0.00253 0.55737 0.84251 0.0
H3157 H 0.00907 0.57608 0.98522 0.0
H3158 H 0.94941 0.57569 0.88344 0.0
H3159 H 0.04965 0.53655 0.94159 0.0
H3160 H 0.99054 0.58285 0.94886 0.0
H3161 H 0.02411 0.55759 0.87972 0.0
C3162 C 0.99548 0.56172 0.85934 0.0
C3163 C 0.97396 0.56618 0.85984 0.0
C3164 C 0.00351 0.57271 0.94724 0.0
C3165 C 0.99862 0.56634 0.90242 0.0
C3166 C 0.01383 0.56858 0.9679 0.0
C3167 C 0.03046 0.55532 0.96615 0.0
C3168 C 0.01016 0.56373 0.92479 0.0
C3169 C 0.03694 0.54698 0.94353 0.0
C3170 C 0.0078 0.56173 0.88055 0.0
C3171 C 0.96582 0.57191 0.8822 0.0
N3172 N 0.02668 0.55124 0.92361 0.0
N3173 N 0.97812 0.57165 0.90265 0.0
H3174 H 0.31853 0.23845 0.58445 0.0
H3175 H 0.29926 0.22521 0.71724 0.0
H3176 H 0.27503 0.17635 0.60232 0.0
H3177 H 0.31795 0.29663 0.7014 0.0
H3178 H 0.29107 0.20749 0.67441 0.0
H3179 H 0.31943 0.26105 0.62615 0.0
C3180 C 0.30903 0.22965 0.59697 0.0
C3181 C 0.29702 0.20527 0.5899 0.0
C3182 C 0.29655 0.2271 0.68014 0.0
C3183 C 0.29801 0.23092 0.63737 0.0
C3184 C 0.30113 0.23719 0.7046 0.0
C3185 C 0.30867 0.26239 0.71275 0.0
C3186 C 0.30039 0.24217 0.66345 0.0
C3187 C 0.31152 0.27714 0.6957 0.0
C3188 C 0.30949 0.24258 0.6207 0.0
C3189 C 0.28488 0.19489 0.60689 0.0
N3190 N 0.30764 0.26676 0.6717 0.0
N3191 N 0.2859 0.20763 0.62974 0.0
H3192 H 0.67691 0.51665 0.1748 0.0
H3193 H 0.56622 0.52988 0.09719 0.0
H3194 H 0.61333 0.50868 0.20342 0.0
H3195 H 0.63089 0.53342 0.07172 0.0
H3196 H 0.58191 0.52384 0.13621 0.0
H3197 H 0.65965 0.52387 0.13787 0.0
C3198 C 0.65925 0.5163 0.17347 0.0
C3199 C 0.64685 0.51181 0.19285 0.0
C3200 C 0.59272 0.52608 0.12213 0.0
C3201 C 0.62635 0.52052 0.1493 0.0
C3202 C 0.58372 0.52973 0.09973 0.0
C3203 C 0.59714 0.53256 0.08069 0.0
C3204 C 0.61543 0.52505 0.12589 0.0
C3205 C 0.61969 0.5316 0.08552 0.0
C3206 C 0.64929 0.52053 0.15209 0.0
C3207 C 0.62386 0.51187 0.1893 0.0
N3208 N 0.62789 0.52803 0.10715 0.0
N3209 N 0.61452 0.51611 0.16828 0.0
H3210 H 0.30493 0.86422 0.97233 0.0
H3211 H 0.32033 0.86321 0.83446 0.0
H3212 H 0.29477 0.92142 0.93668 0.0
H3213 H 0.31375 0.79805 0.86293 0.0
H3214 H 0.31383 0.88537 0.87318 0.0
H3215 H 0.30924 0.8396 0.9334 0.0
C3216 C 0.30327 0.87148 0.95632 0.0
C3217 C 0.29967 0.89505 0.95784 0.0
C3218 C 0.3138 0.86622 0.87103 0.0
C3219 C 0.30501 0.86717 0.91344 0.0
C3220 C 0.31778 0.85357 0.84892 0.0
C3221 C 0.31746 0.82866 0.84534 0.0
C3222 C 0.30968 0.85401 0.88992 0.0
C3223 C 0.31396 0.81721 0.86487 0.0
C3224 C 0.30583 0.85744 0.93414 0.0
C3225 C 0.29765 0.90345 0.93647 0.0
N3226 N 0.31015 0.82999 0.88638 0.0
N3227 N 0.30059 0.88964 0.91524 0.0
H3228 H 0.89926 0.5203 0.72699 0.0
H3229 H 0.00809 0.55385 0.65988 0.0
H3230 H 0.94288 0.59193 0.74035 0.0
H3231 H 0.97435 0.48013 0.66039 0.0
H3232 H 0.98047 0.56887 0.68389 0.0
H3233 H 0.92174 0.50644 0.69543 0.0
C3234 C 0.91305 0.53335 0.72262 0.0
C3235 C 0.91937 0.55727 0.73628 0.0
C3236 C 0.97909 0.54941 0.67882 0.0
C3237 C 0.94536 0.54142 0.70088 0.0
C3238 C 0.9949 0.54086 0.66526 0.0
C3239 C 0.9935 0.51575 0.65836 0.0
C3240 C 0.96168 0.53274 0.68546 0.0
C3241 C 0.97612 0.49964 0.66568 0.0
C3242 C 0.92607 0.52532 0.70492 0.0
C3243 C 0.93756 0.57333 0.7302 0.0
N3244 N 0.96079 0.50842 0.67884 0.0
N3245 N 0.95011 0.56503 0.71313 0.0
H3246 H 0.31554 0.177 0.42089 0.0
H3247 H 0.32559 0.29736 0.36749 0.0
H3248 H 0.32177 0.24843 0.46556 0.0
H3249 H 0.30147 0.22462 0.32456 0.0
H3250 H 0.32875 0.2802 0.40326 0.0
H3251 H 0.31523 0.19468 0.38525 0.0
C3252 C 0.31709 0.19647 0.42326 0.0
C3253 C 0.31865 0.21124 0.44633 0.0
C3254 C 0.32278 0.268 0.38602 0.0
C3255 C 0.31821 0.23161 0.4054 0.0
C3256 C 0.32104 0.27776 0.36554 0.0
C3257 C 0.31318 0.26242 0.34293 0.0
C3258 C 0.31689 0.24265 0.38392 0.0
C3259 C 0.30742 0.23717 0.34161 0.0
C3260 C 0.31677 0.20652 0.40284 0.0
C3261 C 0.32053 0.23633 0.44816 0.0
N3262 N 0.30945 0.2281 0.36178 0.0
N3263 N 0.32023 0.24572 0.42798 0.0
H3264 H 0.32415 0.56344 0.52961 0.0
H3265 H 0.4189 0.54917 0.44232 0.0
H3266 H 0.33698 0.6068 0.47584 0.0
H3267 H 0.4179 0.52786 0.51083 0.0
H3268 H 0.38683 0.56732 0.45133 0.0
H3269 H 0.35629 0.54666 0.5197 0.0
C3270 C 0.33368 0.56939 0.51563 0.0
C3271 C 0.32786 0.58658 0.50354 0.0
C3272 C 0.39378 0.55879 0.4644 0.0
C3273 C 0.3648 0.56736 0.49212 0.0
C3274 C 0.41195 0.54839 0.45924 0.0
C3275 C 0.42106 0.53714 0.47593 0.0
C3276 C 0.38453 0.5575 0.48617 0.0
C3277 C 0.41156 0.53664 0.49762 0.0
C3278 C 0.35212 0.55987 0.51008 0.0
C3279 C 0.34094 0.59364 0.48565 0.0
N3280 N 0.39374 0.54654 0.50204 0.0
N3281 N 0.3588 0.58391 0.48038 0.0
H3282 H 0.88317 0.97375 0.50794 0.0
H3283 H 0.00238 0.0238 0.57535 0.0
H3284 H 0.89612 0.94651 0.57154 0.0
H3285 H 0.99216 0.991 0.49948 0.0
H3286 H 0.96308 1.00502 0.57869 0.0
H3287 H 0.92298 0.99093 0.50901 0.0
C3288 C 0.89438 0.97161 0.52233 0.0
C3289 C 0.88634 0.95867 0.5397 0.0
C3290 C 0.96971 1.00186 0.56147 0.0
C3291 C 0.93189 0.97862 0.54108 0.0
C3292 C 0.99197 0.01261 0.55948 0.0
C3293 C 1.00054 1.00902 0.53706 0.0
C3294 C 0.95599 0.9881 0.54078 0.0
C3295 C 0.98637 0.99432 0.5171 0.0
C3296 C 0.91706 0.98131 0.52281 0.0
C3297 C 0.90172 0.95628 0.55777 0.0
N3298 N 0.96474 0.98472 0.51936 0.0
N3299 N 0.9239 0.96638 0.55815 0.0
H3300 H 0.92449 0.16691 0.30189 0.0
H3301 H 0.83445 0.22074 0.23144 0.0
H3302 H 0.87769 0.12161 0.24349 0.0
H3303 H 0.86415 0.25554 0.3031 0.0
H3304 H 0.85127 0.18582 0.23397 0.0
H3305 H 0.90494 0.20016 0.30114 0.0
C3306 C 0.91015 0.16374 0.28883 0.0
C3307 C 0.90306 0.14073 0.27281 0.0
C3308 C 0.85384 0.20079 0.24943 0.0
C3309 C 0.88018 0.18003 0.27153 0.0
C3310 C 0.84385 0.22082 0.2481 0.0
C3311 C 0.84638 0.24103 0.26762 0.0
C3312 C 0.86783 0.20086 0.27005 0.0
C3313 C 0.86046 0.24021 0.28793 0.0
C3314 C 0.89883 0.18298 0.28845 0.0
C3315 C 0.8841 0.13857 0.25641 0.0
N3316 N 0.87048 0.22089 0.28854 0.0
N3317 N 0.8737 0.15765 0.2561 0.0
H3318 H 0.7193 0.15058 0.02254 0.0
H3319 H 0.61198 0.04223 0.01207 0.0
H3320 H 0.71857 0.07431 0.99877 0.0
H3321 H 0.6101 0.11784 0.03402 0.0
H3322 H 0.65185 0.05396 0.01073 0.0
H3323 H 0.68 0.13939 0.02938 0.0
C3324 C 0.71084 0.1315 0.01869 0.0
C3325 C 0.72213 0.11332 0.00997 0.0
C3326 C 0.64285 0.06807 0.01608 0.0
C3327 C 0.67741 0.10046 0.01792 0.0
C3328 C 0.62002 0.06131 0.01713 0.0
C3329 C 0.6078 0.07906 0.02374 0.0
C3330 C 0.65354 0.09285 0.02108 0.0
C3331 C 0.61908 0.10363 0.02914 0.0
C3332 C 0.68847 0.12514 0.02269 0.0
C3333 C 0.71047 0.08891 0.00539 0.0
N3334 N 0.64139 0.10987 0.02762 0.0
N3335 N 0.68874 0.0832 0.00942 0.0
H3336 H 0.19799 0.45573 0.28573 0.0
H3337 H 0.31523 0.4276 0.32385 0.0
H3338 H 0.26129 0.49564 0.27052 0.0
H3339 H 0.25301 0.3948 0.34755 0.0
H3340 H 0.29559 0.45155 0.30296 0.0
H3341 H 0.21765 0.43203 0.30705 0.0
C3342 C 0.21603 0.4595 0.28685 0.0
C3343 C 0.22801 0.47772 0.27632 0.0
C3344 C 0.28623 0.43914 0.31275 0.0
C3345 C 0.25065 0.45062 0.30073 0.0
C3346 C 0.29741 0.42534 0.3246 0.0
C3347 C 0.28575 0.40895 0.33735 0.0
C3348 C 0.26314 0.43654 0.31353 0.0
C3349 C 0.26274 0.40723 0.33805 0.0
C3350 C 0.22725 0.44599 0.29908 0.0
C3351 C 0.25137 0.4818 0.27838 0.0
N3352 N 0.25218 0.42073 0.3262 0.0
N3353 N 0.26192 0.46834 0.2903 0.0
H3354 H 0.23761 0.38635 0.02115 0.0
H3355 H 0.19188 0.50846 0.04134 0.0
H3356 H 0.27352 0.45492 0.06572 0.0
H3357 H 0.16119 0.44336 0.98836 0.0
H3358 H 0.21858 0.48699 0.05552 0.0
H3359 H 0.20627 0.4049 0.01395 0.0
C3360 C 0.2388 0.40521 0.02965 0.0
C3361 C 0.2583 0.41919 0.04383 0.0
C3362 C 0.2059 0.47735 0.04091 0.0
C3363 C 0.22257 0.44054 0.03563 0.0
C3364 C 0.19056 0.48955 0.0329 0.0
C3365 C 0.17445 0.47778 0.01344 0.0
C3366 C 0.20507 0.45316 0.02942 0.0
C3367 C 0.17363 0.45329 1.0031 0.0
C3368 C 0.22094 0.41582 0.02548 0.0
C3369 C 0.25889 0.44354 0.05447 0.0
N3370 N 0.18881 0.44185 0.01111 0.0
N3371 N 0.24137 0.45348 0.05002 0.0
H3372 H 0.8753 0.9966 0.25969 0.0
H3373 H 0.87753 0.86313 0.28387 0.0
H3374 H 0.93519 0.97151 0.27214 0.0
H3375 H 0.81911 0.87604 0.24806 0.0
H3376 H 0.89736 0.9046 0.28372 0.0
H3377 H 0.85309 0.95512 0.25945 0.0
C3378 C 0.88384 0.98259 0.26247 0.0
C3379 C 0.90739 0.98798 0.26584 0.0
C3380 C 0.88015 0.89852 0.27595 0.0
C3381 C 0.88185 0.94015 0.26587 0.0
C3382 C 0.86866 0.87458 0.27603 0.0
C3383 C 0.84622 0.86557 0.26619 0.0
C3384 C 0.86937 0.91431 0.26619 0.0
C3385 C 0.83612 0.88191 0.25625 0.0
C3386 C 0.87111 0.95879 0.26223 0.0
C3387 C 0.91723 0.96864 0.26929 0.0
N3388 N 0.84762 0.90531 0.25663 0.0
N3389 N 0.90459 0.94604 0.26934 0.0
H3390 H 0.69998 0.12433 0.71943 0.0
H3391 H 0.80756 0.21982 0.79121 0.0
H3392 H 0.74889 0.10261 0.76266 0.0
H3393 H 0.74813 0.23995 0.76679 0.0
H3394 H 0.78796 0.1766 0.77936 0.0
H3395 H 0.71957 0.16672 0.73387 0.0
C3396 C 0.71492 0.12842 0.73186 0.0
C3397 C 0.72273 0.10981 0.73989 0.0
C3398 C 0.77919 0.19047 0.77671 0.0
C3399 C 0.74517 0.15852 0.75671 0.0
C3400 C 0.79038 0.21499 0.78331 0.0
C3401 C 0.77957 0.23304 0.77889 0.0
C3402 C 0.75706 0.18425 0.76594 0.0
C3403 C 0.75714 0.22628 0.76954 0.0
C3404 C 0.726 0.1527 0.74026 0.0
C3405 C 0.74222 0.11635 0.75604 0.0
N3406 N 0.74666 0.20236 0.76308 0.0
N3407 N 0.75281 0.1402 0.7639 0.0
loop_
_geom_bond_atom_site_label_1
_geom_bond_atom_site_label_2
_geom_bond_distance
_geom_bond_site_symmetry_2
_ccdc_geom_bond_type
C0 O1 1.306 . S
C0 O3 1.160 . S
O1 C0 1.306 . S
O1 Cd2 2.228 . S
Cd2 O1 2.228 . S
Cd2 O6 2.273 . S
Cd2 O10 2.277 . S
O3 C0 1.160 . S
O3 Cd4 2.203 . S
Cd4 O3 2.203 . S
Cd4 O6 2.411 . S
Cd4 O7 2.333 . S
Cd4 O8 2.352 . S
Cd4 O12 2.277 . S
Cd4 O13 2.356 . S
C5 O10 1.209 . S
C5 O12 1.226 . S
O6 Cd2 2.273 . S
O6 Cd4 2.411 . S
O6 C9 1.320 . S
O7 Cd4 2.333 . S
O7 C9 1.214 . S
O8 Cd4 2.352 . S
O8 C11 1.258 . S
C9 O6 1.320 . S
C9 O7 1.214 . S
O10 Cd2 2.277 . S
O10 C5 1.209 . S
C11 O8 1.258 . S
C11 O13 1.282 . S
O12 Cd4 2.277 . S
O12 C5 1.226 . S
O13 Cd4 2.356 . S
O13 C11 1.282 . S
C14 O15 1.306 . S
C14 O17 1.160 . S
O15 C14 1.306 . S
O15 Cd16 2.228 1_655 S
Cd16 O15 2.228 1_455 S
Cd16 O20 2.273 . S
Cd16 O24 2.277 1_455 S
O17 C14 1.160 . S
O17 Cd18 2.203 1_655 S
Cd18 O17 2.203 1_455 S
Cd18 O20 2.411 . S
Cd18 O21 2.333 . S
Cd18 O22 2.352 . S
Cd18 O26 2.277 1_455 S
Cd18 O27 2.356 . S
C19 O24 1.209 . S
C19 O26 1.226 . S
O20 Cd16 2.273 . S
O20 Cd18 2.411 . S
O20 C23 1.320 . S
O21 Cd18 2.333 . S
O21 C23 1.214 . S
O22 Cd18 2.352 . S
O22 C25 1.258 . S
C23 O20 1.320 . S
C23 O21 1.214 . S
O24 Cd16 2.277 1_655 S
O24 C19 1.209 . S
C25 O22 1.258 . S
C25 O27 1.282 . S
O26 Cd18 2.277 1_655 S
O26 C19 1.226 . S
O27 Cd18 2.356 . S
O27 C25 1.282 . S
C28 O29 1.306 . S
C28 O31 1.160 . S
O29 C28 1.306 . S
O29 Cd30 2.228 . S
Cd30 O29 2.228 . S
Cd30 O34 2.273 . S
Cd30 O38 2.277 . S
O31 C28 1.160 . S
O31 Cd32 2.203 . S
Cd32 O31 2.203 . S
Cd32 O34 2.411 . S
Cd32 O35 2.333 . S
Cd32 O36 2.352 . S
Cd32 O40 2.277 . S
Cd32 O41 2.356 . S
C33 O38 1.209 . S
C33 O40 1.226 . S
O34 Cd30 2.273 . S
O34 Cd32 2.411 . S
O34 C37 1.320 . S
O35 Cd32 2.333 . S
O35 C37 1.214 . S
O36 Cd32 2.352 . S
O36 C39 1.258 . S
C37 O34 1.320 . S
C37 O35 1.214 . S
O38 Cd30 2.277 . S
O38 C33 1.209 . S
C39 O36 1.258 . S
C39 O41 1.282 . S
O40 Cd32 2.277 . S
O40 C33 1.226 . S
O41 Cd32 2.356 . S
O41 C39 1.282 . S
C42 O43 1.306 . S
C42 O45 1.160 . S
O43 C42 1.306 . S
O43 Cd44 2.228 . S
Cd44 O43 2.228 . S
Cd44 O48 2.273 . S
Cd44 O52 2.277 . S
O45 C42 1.160 . S
O45 Cd46 2.203 . S
Cd46 O45 2.203 . S
Cd46 O48 2.411 . S
Cd46 O49 2.333 . S
Cd46 O50 2.352 . S
Cd46 O54 2.277 . S
Cd46 O55 2.356 . S
C47 O52 1.209 . S
C47 O54 1.226 . S
O48 Cd44 2.273 . S
O48 Cd46 2.411 . S
O48 C51 1.320 . S
O49 Cd46 2.333 . S
O49 C51 1.214 . S
O50 Cd46 2.352 . S
O50 C53 1.258 . S
C51 O48 1.320 . S
C51 O49 1.214 . S
O52 Cd44 2.277 . S
O52 C47 1.209 . S
C53 O50 1.258 . S
C53 O55 1.282 . S
O54 Cd46 2.277 . S
O54 C47 1.226 . S
O55 Cd46 2.356 . S
O55 C53 1.282 . S
C56 O57 1.306 . S
C56 O59 1.160 . S
O57 C56 1.306 . S
O57 Cd58 2.228 . S
Cd58 O57 2.228 . S
Cd58 O62 2.273 . S
Cd58 O66 2.277 . S
O59 C56 1.160 . S
O59 Cd60 2.203 . S
Cd60 O59 2.203 . S
Cd60 O62 2.411 . S
Cd60 O63 2.333 . S
Cd60 O64 2.352 . S
Cd60 O68 2.277 . S
Cd60 O69 2.356 . S
C61 O66 1.209 . S
C61 O68 1.226 . S
O62 Cd58 2.273 . S
O62 Cd60 2.411 . S
O62 C65 1.320 . S
O63 Cd60 2.333 . S
O63 C65 1.214 . S
O64 Cd60 2.352 . S
O64 C67 1.258 . S
C65 O62 1.320 . S
C65 O63 1.214 . S
O66 Cd58 2.277 . S
O66 C61 1.209 . S
C67 O64 1.258 . S
C67 O69 1.282 . S
O68 Cd60 2.277 . S
O68 C61 1.226 . S
O69 Cd60 2.356 . S
O69 C67 1.282 . S
C70 O71 1.306 . S
C70 O73 1.160 . S
O71 C70 1.306 . S
O71 Cd72 2.228 . S
Cd72 O71 2.228 . S
Cd72 O76 2.273 . S
Cd72 O80 2.277 . S
O73 C70 1.160 . S
O73 Cd74 2.203 . S
Cd74 O73 2.203 . S
Cd74 O76 2.411 . S
Cd74 O77 2.333 . S
Cd74 O78 2.352 . S
Cd74 O82 2.277 . S
Cd74 O83 2.356 . S
C75 O80 1.209 . S
C75 O82 1.226 . S
O76 Cd72 2.273 . S
O76 Cd74 2.411 . S
O76 C79 1.320 . S
O77 Cd74 2.333 . S
O77 C79 1.214 . S
O78 Cd74 2.352 . S
O78 C81 1.258 . S
C79 O76 1.320 . S
C79 O77 1.214 . S
O80 Cd72 2.277 . S
O80 C75 1.209 . S
C81 O78 1.258 . S
C81 O83 1.282 . S
O82 Cd74 2.277 . S
O82 C75 1.226 . S
O83 Cd74 2.356 . S
O83 C81 1.282 . S
C84 O85 1.306 . S
C84 O87 1.160 . S
O85 C84 1.306 . S
O85 Cd86 2.228 . S
Cd86 O85 2.228 . S
Cd86 O90 2.273 . S
Cd86 O94 2.277 . S
O87 C84 1.160 . S
O87 Cd88 2.203 . S
Cd88 O87 2.203 . S
Cd88 O90 2.411 . S
Cd88 O91 2.333 . S
Cd88 O92 2.352 . S
Cd88 O96 2.277 . S
Cd88 O97 2.356 . S
C89 O94 1.209 . S
C89 O96 1.226 . S
O90 Cd86 2.273 . S
O90 Cd88 2.411 . S
O90 C93 1.320 . S
O91 Cd88 2.333 . S
O91 C93 1.214 . S
O92 Cd88 2.352 . S
O92 C95 1.258 . S
C93 O90 1.320 . S
C93 O91 1.214 . S
O94 Cd86 2.277 . S
O94 C89 1.209 . S
C95 O92 1.258 . S
C95 O97 1.282 . S
O96 Cd88 2.277 . S
O96 C89 1.226 . S
O97 Cd88 2.356 . S
O97 C95 1.282 . S
C98 O99 1.306 . S
C98 O101 1.160 . S
O99 C98 1.306 . S
O99 Cd100 2.228 1_655 S
Cd100 O99 2.228 1_455 S
Cd100 O104 2.273 . S
Cd100 O108 2.277 . S
O101 C98 1.160 . S
O101 Cd102 2.203 1_655 S
Cd102 O101 2.203 1_455 S
Cd102 O104 2.411 . S
Cd102 O105 2.333 . S
Cd102 O106 2.352 . S
Cd102 O110 2.277 . S
Cd102 O111 2.356 . S
C103 O108 1.209 . S
C103 O110 1.226 . S
O104 Cd100 2.273 . S
O104 Cd102 2.411 . S
O104 C107 1.320 . S
O105 Cd102 2.333 . S
O105 C107 1.214 . S
O106 Cd102 2.352 . S
O106 C109 1.258 . S
C107 O104 1.320 . S
C107 O105 1.214 . S
O108 Cd100 2.277 . S
O108 C103 1.209 . S
C109 O106 1.258 . S
C109 O111 1.282 . S
O110 Cd102 2.277 . S
O110 C103 1.226 . S
O111 Cd102 2.356 . S
O111 C109 1.282 . S
C112 O113 1.306 . S
C112 O115 1.160 . S
O113 C112 1.306 . S
O113 Cd114 2.228 1_545 S
Cd114 O113 2.228 1_565 S
Cd114 O118 2.273 1_565 S
Cd114 O122 2.277 . S
O115 C112 1.160 . S
O115 Cd116 2.203 . S
Cd116 O115 2.203 . S
Cd116 O118 2.411 . S
Cd116 O119 2.333 . S
Cd116 O120 2.352 . S
Cd116 O124 2.277 1_545 S
Cd116 O125 2.356 . S
C117 O122 1.209 . S
C117 O124 1.226 . S
O118 Cd114 2.273 1_545 S
O118 Cd116 2.411 . S
O118 C121 1.320 . S
O119 Cd116 2.333 . S
O119 C121 1.214 . S
O120 Cd116 2.352 . S
O120 C123 1.258 . S
C121 O118 1.320 . S
C121 O119 1.214 . S
O122 Cd114 2.277 . S
O122 C117 1.209 . S
C123 O120 1.258 . S
C123 O125 1.282 . S
O124 Cd116 2.277 1_565 S
O124 C117 1.226 . S
O125 Cd116 2.356 . S
O125 C123 1.282 . S
C126 O127 1.306 . S
C126 O129 1.160 . S
O127 C126 1.306 . S
O127 Cd128 2.228 . S
Cd128 O127 2.228 . S
Cd128 O132 2.273 . S
Cd128 O136 2.277 . S
O129 C126 1.160 . S
O129 Cd130 2.203 . S
Cd130 O129 2.203 . S
Cd130 O132 2.411 . S
Cd130 O133 2.333 . S
Cd130 O134 2.352 . S
Cd130 O138 2.277 . S
Cd130 O139 2.356 . S
C131 O136 1.209 . S
C131 O138 1.226 . S
O132 Cd128 2.273 . S
O132 Cd130 2.411 . S
O132 C135 1.320 . S
O133 Cd130 2.333 . S
O133 C135 1.214 . S
O134 Cd130 2.352 . S
O134 C137 1.258 . S
C135 O132 1.320 . S
C135 O133 1.214 . S
O136 Cd128 2.277 . S
O136 C131 1.209 . S
C137 O134 1.258 . S
C137 O139 1.282 . S
O138 Cd130 2.277 . S
O138 C131 1.226 . S
O139 Cd130 2.356 . S
O139 C137 1.282 . S
C140 O141 1.306 . S
C140 O143 1.160 . S
O141 C140 1.306 . S
O141 Cd142 2.228 . S
Cd142 O141 2.228 . S
Cd142 O146 2.273 1_545 S
Cd142 O150 2.277 . S
O143 C140 1.160 . S
O143 Cd144 2.203 1_545 S
Cd144 O143 2.203 1_565 S
Cd144 O146 2.411 . S
Cd144 O147 2.333 . S
Cd144 O148 2.352 . S
Cd144 O152 2.277 1_565 S
Cd144 O153 2.356 . S
C145 O150 1.209 . S
C145 O152 1.226 . S
O146 Cd142 2.273 1_565 S
O146 Cd144 2.411 . S
O146 C149 1.320 . S
O147 Cd144 2.333 . S
O147 C149 1.214 . S
O148 Cd144 2.352 . S
O148 C151 1.258 . S
C149 O146 1.320 . S
C149 O147 1.214 . S
O150 Cd142 2.277 . S
O150 C145 1.209 . S
C151 O148 1.258 . S
C151 O153 1.282 . S
O152 Cd144 2.277 1_545 S
O152 C145 1.226 . S
O153 Cd144 2.356 . S
O153 C151 1.282 . S
C154 O155 1.306 . S
C154 O157 1.160 . S
O155 C154 1.306 . S
O155 Cd156 2.228 1_554 S
Cd156 O155 2.228 1_556 S
Cd156 O160 2.273 1_556 S
Cd156 O164 2.277 . S
O157 C154 1.160 . S
O157 Cd158 2.203 . S
Cd158 O157 2.203 . S
Cd158 O160 2.411 . S
Cd158 O161 2.333 . S
Cd158 O162 2.352 . S
Cd158 O166 2.277 1_554 S
Cd158 O167 2.356 . S
C159 O164 1.209 . S
C159 O166 1.226 . S
O160 Cd156 2.273 1_554 S
O160 Cd158 2.411 . S
O160 C163 1.320 . S
O161 Cd158 2.333 . S
O161 C163 1.214 . S
O162 Cd158 2.352 . S
O162 C165 1.258 . S
C163 O160 1.320 . S
C163 O161 1.214 . S
O164 Cd156 2.277 . S
O164 C159 1.209 . S
C165 O162 1.258 . S
C165 O167 1.282 . S
O166 Cd158 2.277 1_556 S
O166 C159 1.226 . S
O167 Cd158 2.356 . S
O167 C165 1.282 . S
C168 O169 1.306 . S
C168 O171 1.160 . S
O169 C168 1.306 . S
O169 Cd170 2.228 . S
Cd170 O169 2.228 . S
Cd170 O174 2.273 . S
Cd170 O178 2.277 1_554 S
O171 C168 1.160 . S
O171 Cd172 2.203 . S
Cd172 O171 2.203 . S
Cd172 O174 2.411 . S
Cd172 O175 2.333 . S
Cd172 O176 2.352 . S
Cd172 O180 2.277 . S
Cd172 O181 2.356 . S
C173 O178 1.209 . S
C173 O180 1.226 1_556 S
O174 Cd170 2.273 . S
O174 Cd172 2.411 . S
O174 C177 1.320 . S
O175 Cd172 2.333 . S
O175 C177 1.214 . S
O176 Cd172 2.352 . S
O176 C179 1.258 . S
C177 O174 1.320 . S
C177 O175 1.214 . S
O178 Cd170 2.277 1_556 S
O178 C173 1.209 . S
C179 O176 1.258 . S
C179 O181 1.282 . S
O180 Cd172 2.277 . S
O180 C173 1.226 1_554 S
O181 Cd172 2.356 . S
O181 C179 1.282 . S
C182 O183 1.306 . S
C182 O185 1.160 . S
O183 C182 1.306 . S
O183 Cd184 2.228 . S
Cd184 O183 2.228 . S
Cd184 O188 2.273 . S
Cd184 O192 2.277 . S
O185 C182 1.160 . S
O185 Cd186 2.203 . S
Cd186 O185 2.203 . S
Cd186 O188 2.411 . S
Cd186 O189 2.333 . S
Cd186 O190 2.352 1_554 S
Cd186 O194 2.277 . S
Cd186 O195 2.356 . S
C187 O192 1.209 . S
C187 O194 1.226 . S
O188 Cd184 2.273 . S
O188 Cd186 2.411 . S
O188 C191 1.320 . S
O189 Cd186 2.333 . S
O189 C191 1.214 . S
O190 Cd186 2.352 1_556 S
O190 C193 1.258 . S
C191 O188 1.320 . S
C191 O189 1.214 . S
O192 Cd184 2.277 . S
O192 C187 1.209 . S
C193 O190 1.258 . S
C193 O195 1.282 1_556 S
O194 Cd186 2.277 . S
O194 C187 1.226 . S
O195 Cd186 2.356 . S
O195 C193 1.282 1_554 S
C196 O197 1.306 . S
C196 O199 1.160 . S
O197 C196 1.306 . S
O197 Cd198 2.228 . S
Cd198 O197 2.228 . S
Cd198 O202 2.273 . S
Cd198 O206 2.277 . S
O199 C196 1.160 . S
O199 Cd200 2.203 . S
Cd200 O199 2.203 . S
Cd200 O202 2.411 . S
Cd200 O203 2.333 . S
Cd200 O204 2.352 . S
Cd200 O208 2.277 . S
Cd200 O209 2.356 . S
C201 O206 1.209 . S
C201 O208 1.226 . S
O202 Cd198 2.273 . S
O202 Cd200 2.411 . S
O202 C205 1.320 . S
O203 Cd200 2.333 . S
O203 C205 1.214 . S
O204 Cd200 2.352 . S
O204 C207 1.258 . S
C205 O202 1.320 . S
C205 O203 1.214 . S
O206 Cd198 2.277 . S
O206 C201 1.209 . S
C207 O204 1.258 . S
C207 O209 1.282 . S
O208 Cd200 2.277 . S
O208 C201 1.226 . S
O209 Cd200 2.356 . S
O209 C207 1.282 . S
C210 O211 1.306 . S
C210 O213 1.160 . S
O211 C210 1.306 . S
O211 Cd212 2.228 . S
Cd212 O211 2.228 . S
Cd212 O216 2.273 . S
Cd212 O220 2.277 . S
O213 C210 1.160 . S
O213 Cd214 2.203 . S
Cd214 O213 2.203 . S
Cd214 O216 2.411 . S
Cd214 O217 2.333 . S
Cd214 O218 2.352 . S
Cd214 O222 2.277 . S
Cd214 O223 2.356 . S
C215 O220 1.209 . S
C215 O222 1.226 . S
O216 Cd212 2.273 . S
O216 Cd214 2.411 . S
O216 C219 1.320 . S
O217 Cd214 2.333 . S
O217 C219 1.214 . S
O218 Cd214 2.352 . S
O218 C221 1.258 . S
C219 O216 1.320 . S
C219 O217 1.214 . S
O220 Cd212 2.277 . S
O220 C215 1.209 . S
C221 O218 1.258 . S
C221 O223 1.282 . S
O222 Cd214 2.277 . S
O222 C215 1.226 . S
O223 Cd214 2.356 . S
O223 C221 1.282 . S
C224 O225 1.306 . S
C224 O227 1.160 . S
O225 C224 1.306 . S
O225 Cd226 2.228 . S
Cd226 O225 2.228 . S
Cd226 O230 2.273 . S
Cd226 O234 2.277 . S
O227 C224 1.160 . S
O227 Cd228 2.203 . S
Cd228 O227 2.203 . S
Cd228 O230 2.411 . S
Cd228 O231 2.333 . S
Cd228 O232 2.352 . S
Cd228 O236 2.277 . S
Cd228 O237 2.356 . S
C229 O234 1.209 . S
C229 O236 1.226 . S
O230 Cd226 2.273 . S
O230 Cd228 2.411 . S
O230 C233 1.320 . S
O231 Cd228 2.333 . S
O231 C233 1.214 . S
O232 Cd228 2.352 . S
O232 C235 1.258 . S
C233 O230 1.320 . S
C233 O231 1.214 . S
O234 Cd226 2.277 . S
O234 C229 1.209 . S
C235 O232 1.258 . S
C235 O237 1.282 . S
O236 Cd228 2.277 . S
O236 C229 1.226 . S
O237 Cd228 2.356 . S
O237 C235 1.282 . S
C238 O239 1.306 . S
C238 O241 1.160 . S
O239 C238 1.306 . S
O239 Cd240 2.228 . S
Cd240 O239 2.228 . S
Cd240 O244 2.273 . S
Cd240 O248 2.277 . S
O241 C238 1.160 . S
O241 Cd242 2.203 . S
Cd242 O241 2.203 . S
Cd242 O244 2.411 . S
Cd242 O245 2.333 . S
Cd242 O246 2.352 . S
Cd242 O250 2.277 . S
Cd242 O251 2.356 . S
C243 O248 1.209 . S
C243 O250 1.226 . S
O244 Cd240 2.273 . S
O244 Cd242 2.411 . S
O244 C247 1.320 . S
O245 Cd242 2.333 . S
O245 C247 1.214 . S
O246 Cd242 2.352 . S
O246 C249 1.258 . S
C247 O244 1.320 . S
C247 O245 1.214 . S
O248 Cd240 2.277 . S
O248 C243 1.209 . S
C249 O246 1.258 . S
C249 O251 1.282 . S
O250 Cd242 2.277 . S
O250 C243 1.226 . S
O251 Cd242 2.356 . S
O251 C249 1.282 . S
C252 O253 1.306 . S
C252 O255 1.160 . S
O253 C252 1.306 . S
O253 Cd254 2.228 . S
Cd254 O253 2.228 . S
Cd254 O258 2.273 . S
Cd254 O262 2.277 . S
O255 C252 1.160 . S
O255 Cd256 2.203 . S
Cd256 O255 2.203 . S
Cd256 O258 2.411 . S
Cd256 O259 2.333 . S
Cd256 O260 2.352 . S
Cd256 O264 2.277 . S
Cd256 O265 2.356 . S
C257 O262 1.209 . S
C257 O264 1.226 . S
O258 Cd254 2.273 . S
O258 Cd256 2.411 . S
O258 C261 1.320 . S
O259 Cd256 2.333 . S
O259 C261 1.214 . S
O260 Cd256 2.352 . S
O260 C263 1.258 . S
C261 O258 1.320 . S
C261 O259 1.214 . S
O262 Cd254 2.277 . S
O262 C257 1.209 . S
C263 O260 1.258 . S
C263 O265 1.282 . S
O264 Cd256 2.277 . S
O264 C257 1.226 . S
O265 Cd256 2.356 . S
O265 C263 1.282 . S
C266 O267 1.306 . S
C266 O269 1.160 . S
O267 C266 1.306 . S
O267 Cd268 2.228 . S
Cd268 O267 2.228 . S
Cd268 O272 2.273 . S
Cd268 O276 2.277 . S
O269 C266 1.160 . S
O269 Cd270 2.203 . S
Cd270 O269 2.203 . S
Cd270 O272 2.411 . S
Cd270 O273 2.333 . S
Cd270 O274 2.352 . S
Cd270 O278 2.277 . S
Cd270 O279 2.356 . S
C271 O276 1.209 . S
C271 O278 1.226 . S
O272 Cd268 2.273 . S
O272 Cd270 2.411 . S
O272 C275 1.320 . S
O273 Cd270 2.333 . S
O273 C275 1.214 . S
O274 Cd270 2.352 . S
O274 C277 1.258 . S
C275 O272 1.320 . S
C275 O273 1.214 . S
O276 Cd268 2.277 . S
O276 C271 1.209 . S
C277 O274 1.258 . S
C277 O279 1.282 . S
O278 Cd270 2.277 . S
O278 C271 1.226 . S
O279 Cd270 2.356 . S
O279 C277 1.282 . S
C280 O281 1.306 . S
C280 O283 1.160 1_554 S
O281 C280 1.306 . S
O281 Cd282 2.228 . S
Cd282 O281 2.228 . S
Cd282 O286 2.273 1_554 S
Cd282 O290 2.277 . S
O283 C280 1.160 1_556 S
O283 Cd284 2.203 . S
Cd284 O283 2.203 . S
Cd284 O286 2.411 . S
Cd284 O287 2.333 . S
Cd284 O288 2.352 . S
Cd284 O292 2.277 1_556 S
Cd284 O293 2.356 . S
C285 O290 1.209 . S
C285 O292 1.226 . S
O286 Cd282 2.273 1_556 S
O286 Cd284 2.411 . S
O286 C289 1.320 . S
O287 Cd284 2.333 . S
O287 C289 1.214 . S
O288 Cd284 2.352 . S
O288 C291 1.258 . S
C289 O286 1.320 . S
C289 O287 1.214 . S
O290 Cd282 2.277 . S
O290 C285 1.209 . S
C291 O288 1.258 . S
C291 O293 1.282 . S
O292 Cd284 2.277 1_554 S
O292 C285 1.226 . S
O293 Cd284 2.356 . S
O293 C291 1.282 . S
C294 O295 1.306 . S
C294 O297 1.160 . S
O295 C294 1.306 . S
O295 Cd296 2.228 . S
Cd296 O295 2.228 . S
Cd296 O300 2.273 . S
Cd296 O304 2.277 . S
O297 C294 1.160 . S
O297 Cd298 2.203 . S
Cd298 O297 2.203 . S
Cd298 O300 2.411 . S
Cd298 O301 2.333 . S
Cd298 O302 2.352 . S
Cd298 O306 2.277 . S
Cd298 O307 2.356 . S
C299 O304 1.209 . S
C299 O306 1.226 . S
O300 Cd296 2.273 . S
O300 Cd298 2.411 . S
O300 C303 1.320 . S
O301 Cd298 2.333 . S
O301 C303 1.214 . S
O302 Cd298 2.352 . S
O302 C305 1.258 . S
C303 O300 1.320 . S
C303 O301 1.214 . S
O304 Cd296 2.277 . S
O304 C299 1.209 . S
C305 O302 1.258 . S
C305 O307 1.282 . S
O306 Cd298 2.277 . S
O306 C299 1.226 . S
O307 Cd298 2.356 . S
O307 C305 1.282 . S
C308 O309 1.306 . S
C308 O311 1.160 . S
O309 C308 1.306 . S
O309 Cd310 2.228 . S
Cd310 O309 2.228 . S
Cd310 O314 2.273 . S
Cd310 O318 2.277 . S
O311 C308 1.160 . S
O311 Cd312 2.203 . S
Cd312 O311 2.203 . S
Cd312 O314 2.411 . S
Cd312 O315 2.333 . S
Cd312 O316 2.352 . S
Cd312 O320 2.277 . S
Cd312 O321 2.356 . S
C313 O318 1.209 . S
C313 O320 1.226 . S
O314 Cd310 2.273 . S
O314 Cd312 2.411 . S
O314 C317 1.320 . S
O315 Cd312 2.333 . S
O315 C317 1.214 . S
O316 Cd312 2.352 . S
O316 C319 1.258 . S
C317 O314 1.320 . S
C317 O315 1.214 . S
O318 Cd310 2.277 . S
O318 C313 1.209 . S
C319 O316 1.258 . S
C319 O321 1.282 . S
O320 Cd312 2.277 . S
O320 C313 1.226 . S
O321 Cd312 2.356 . S
O321 C319 1.282 . S
C322 O323 1.306 . S
C322 O325 1.160 . S
O323 C322 1.306 . S
O323 Cd324 2.228 . S
Cd324 O323 2.228 . S
Cd324 O328 2.273 . S
Cd324 O332 2.277 . S
O325 C322 1.160 . S
O325 Cd326 2.203 . S
Cd326 O325 2.203 . S
Cd326 O328 2.411 . S
Cd326 O329 2.333 . S
Cd326 O330 2.352 . S
Cd326 O334 2.277 . S
Cd326 O335 2.356 . S
C327 O332 1.209 . S
C327 O334 1.226 . S
O328 Cd324 2.273 . S
O328 Cd326 2.411 . S
O328 C331 1.320 . S
O329 Cd326 2.333 . S
O329 C331 1.214 . S
O330 Cd326 2.352 . S
O330 C333 1.258 . S
C331 O328 1.320 . S
C331 O329 1.214 . S
O332 Cd324 2.277 . S
O332 C327 1.209 . S
C333 O330 1.258 . S
C333 O335 1.282 . S
O334 Cd326 2.277 . S
O334 C327 1.226 . S
O335 Cd326 2.356 . S
O335 C333 1.282 . S
Gd336 N367 2.661 . S
Gd336 N373 2.601 . S
Gd336 O380 2.545 . S
Gd336 O381 2.606 . S
Gd336 O383 2.429 . S
Gd336 O384 2.545 . S
Gd336 O385 2.412 . S
Gd336 O387 2.362 . S
Gd336 O388 2.324 1_554 S
Gd336 C395 2.828 . S
Gd337 N346 2.661 1_545 S
Gd337 N350 2.601 1_544 S
Gd337 O381 2.362 . S
Gd337 O382 2.324 . S
Gd337 O386 2.545 1_454 S
Gd337 O387 2.606 . S
Gd337 O389 2.429 1_554 S
Gd337 O390 2.545 . S
Gd337 O391 2.412 1_455 S
Gd337 C404 2.828 1_454 S
C338 C341 1.409 1_655 S
C338 C343 1.431 1_554 S
C338 C344 1.412 . S
C339 C342 1.437 . S
C339 C343 1.317 . S
C339 H358 0.929 . S
C340 C341 1.428 1_556 S
C340 C342 1.412 1_455 S
C340 N350 1.362 . S
C341 C338 1.409 1_455 S
C341 C340 1.428 1_554 S
C341 N346 1.358 . S
C342 C339 1.437 . S
C342 C340 1.412 1_655 S
C342 C352 1.391 . S
C343 C338 1.431 1_556 S
C343 C339 1.317 . S
C343 H354 0.930 1_556 S
C344 C338 1.412 . S
C344 C345 1.355 1_655 S
C344 H356 0.930 . S
C345 C344 1.355 1_455 S
C345 C347 1.402 . S
C345 H357 0.930 . S
N346 Gd337 2.661 1_565 S
N346 C341 1.358 . S
N346 C347 1.307 . S
C347 C345 1.402 . S
C347 N346 1.307 . S
C347 H348 0.930 . S
H348 C347 0.930 . S
C349 N350 1.334 . S
C349 C351 1.381 1_455 S
C349 H353 0.930 . S
N350 Gd337 2.601 1_566 S
N350 C340 1.362 . S
N350 C349 1.334 . S
C351 C349 1.381 1_655 S
C351 C352 1.374 . S
C351 H363 0.932 . S
C352 C342 1.391 . S
C352 C351 1.374 . S
C352 H364 0.929 . S
H353 C349 0.930 . S
H354 C343 0.930 1_554 S
H355 C372 0.930 . S
H356 C344 0.930 . S
H357 C345 0.930 . S
H358 C339 0.929 . S
H359 C377 0.930 . S
H360 C368 0.909 1_556 S
H361 C369 0.930 . S
H362 C393 0.929 . S
H363 C351 0.932 . S
H364 C352 0.929 . S
H365 C394 0.930 . S
H366 C375 0.930 . S
N367 Gd336 2.661 . S
N367 C371 1.350 . S
N367 C372 1.307 1_554 S
C368 H360 0.909 1_554 S
C368 C369 1.339 1_554 S
C368 C370 1.449 . S
C369 H361 0.930 . S
C369 C368 1.339 1_556 S
C369 C372 1.402 . S
C370 C368 1.449 . S
C370 C371 1.417 . S
C370 C394 1.431 . S
C371 N367 1.350 . S
C371 C370 1.417 . S
C371 C374 1.426 . S
C372 H355 0.930 . S
C372 N367 1.307 1_556 S
C372 C369 1.402 . S
N373 Gd336 2.601 . S
N373 C374 1.359 . S
N373 C377 1.334 . S
C374 C371 1.426 . S
C374 N373 1.359 . S
C374 C378 1.413 . S
C375 H366 0.930 . S
C375 C376 1.359 . S
C375 C377 1.394 . S
C376 C375 1.359 . S
C376 C378 1.391 . S
C376 H379 0.929 . S
C377 H359 0.930 . S
C377 N373 1.334 . S
C377 C375 1.394 . S
C378 C374 1.413 . S
C378 C376 1.391 . S
C378 C393 1.437 . S
H379 C376 0.929 . S
O380 Gd336 2.545 . S
O380 C395 1.258 . S
O381 Gd336 2.606 . S
O381 Gd337 2.362 . S
O381 C392 1.284 1_545 S
O382 Gd337 2.324 . S
O382 C402 1.254 . S
O383 Gd336 2.429 . S
O383 C402 1.268 . S
O384 Gd336 2.545 . S
O384 C392 1.250 1_545 S
O385 Gd336 2.412 . S
O385 C395 1.252 . S
O386 Gd337 2.545 1_656 S
O386 C404 1.258 . S
O387 Gd336 2.362 . S
O387 Gd337 2.606 . S
O387 C403 1.284 . S
O388 Gd336 2.324 1_556 S
O388 C411 1.254 . S
O389 Gd337 2.429 1_556 S
O389 C411 1.268 . S
O390 Gd337 2.545 . S
O390 C403 1.250 . S
O391 Gd337 2.412 1_655 S
O391 C404 1.252 1_554 S
C392 O381 1.284 1_565 S
C392 O384 1.250 1_565 S
C393 H362 0.929 . S
C393 C378 1.437 . S
C393 C394 1.317 . S
C394 H365 0.930 . S
C394 C370 1.431 . S
C394 C393 1.317 . S
C395 Gd336 2.828 . S
C395 O380 1.258 . S
C395 O385 1.252 . S
C395 C396 1.497 . S
C396 C395 1.497 . S
C396 C397 1.395 . S
C396 C398 1.380 . S
C397 C396 1.395 . S
C397 C400 1.398 . S
C397 H412 0.930 . S
C398 C396 1.380 . S
C398 C399 1.391 . S
C398 H413 0.930 . S
C399 C398 1.391 . S
C399 C401 1.387 . S
C400 C397 1.398 . S
C400 C401 1.380 . S
C400 H414 0.930 . S
C401 C399 1.387 . S
C401 C400 1.380 . S
C401 H415 0.930 . S
C402 O382 1.254 . S
C402 O383 1.268 . S
C403 O387 1.284 . S
C403 O390 1.250 . S
C404 Gd337 2.828 1_656 S
C404 O386 1.258 . S
C404 O391 1.252 1_556 S
C404 C405 1.497 . S
C405 C404 1.497 . S
C405 C406 1.395 . S
C405 C407 1.380 1_556 S
C406 C405 1.395 . S
C406 C409 1.398 . S
C406 H416 0.930 . S
C407 C405 1.380 1_554 S
C407 C408 1.391 1_554 S
C407 H417 0.930 . S
C408 C407 1.391 1_556 S
C408 C410 1.388 . S
C409 C406 1.398 . S
C409 C410 1.380 . S
C409 H418 0.930 . S
C410 C408 1.388 . S
C410 C409 1.380 . S
C410 H419 0.930 . S
C411 O388 1.254 . S
C411 O389 1.268 . S
H412 C397 0.930 . S
H413 C398 0.930 . S
H414 C400 0.930 . S
H415 C401 0.930 . S
H416 C406 0.930 . S
H417 C407 0.930 . S
H418 C409 0.930 . S
H419 C410 0.930 . S
Gd420 N451 2.661 . S
Gd420 N457 2.601 . S
Gd420 O464 2.545 . S
Gd420 O465 2.606 . S
Gd420 O467 2.429 . S
Gd420 O468 2.545 . S
Gd420 O469 2.412 . S
Gd420 O471 2.362 . S
Gd420 O472 2.324 . S
Gd420 C479 2.828 . S
Gd421 N430 2.661 . S
Gd421 N434 2.601 . S
Gd421 O465 2.362 . S
Gd421 O466 2.324 . S
Gd421 O470 2.545 . S
Gd421 O471 2.606 . S
Gd421 O473 2.429 . S
Gd421 O474 2.545 . S
Gd421 O475 2.412 . S
Gd421 C488 2.828 . S
C422 C425 1.417 . S
C422 C427 1.431 . S
C422 C428 1.412 . S
C423 C426 1.437 . S
C423 C427 1.317 . S
C423 H442 0.929 . S
C424 C425 1.426 . S
C424 C426 1.413 . S
C424 N434 1.359 . S
C425 C422 1.417 . S
C425 C424 1.426 . S
C425 N430 1.350 . S
C426 C423 1.437 . S
C426 C424 1.413 . S
C426 C436 1.391 . S
C427 C422 1.431 . S
C427 C423 1.317 . S
C427 H438 0.930 . S
C428 C422 1.412 . S
C428 C429 1.355 . S
C428 H440 0.930 . S
C429 C428 1.355 . S
C429 C431 1.402 . S
C429 H441 0.930 . S
N430 Gd421 2.661 . S
N430 C425 1.350 . S
N430 C431 1.307 . S
C431 C429 1.402 . S
C431 N430 1.307 . S
C431 H432 0.930 . S
H432 C431 0.930 . S
C433 N434 1.334 . S
C433 C435 1.394 . S
C433 H437 0.930 . S
N434 Gd421 2.601 . S
N434 C424 1.359 . S
N434 C433 1.334 . S
C435 C433 1.394 . S
C435 C436 1.359 . S
C435 H447 0.930 . S
C436 C426 1.391 . S
C436 C435 1.359 . S
C436 H448 0.929 . S
H437 C433 0.930 . S
H438 C427 0.930 . S
H439 C456 0.930 . S
H440 C428 0.930 . S
H441 C429 0.930 . S
H442 C423 0.929 . S
H443 C461 0.930 . S
H444 C452 0.930 . S
H445 C453 0.930 . S
H446 C477 0.929 . S
H447 C435 0.930 . S
H448 C436 0.929 . S
H449 C478 0.930 . S
H450 C459 0.930 . S
N451 Gd420 2.661 . S
N451 C455 1.350 . S
N451 C456 1.307 . S
C452 H444 0.930 . S
C452 C453 1.355 . S
C452 C454 1.412 . S
C453 H445 0.930 . S
C453 C452 1.355 . S
C453 C456 1.402 . S
C454 C452 1.412 . S
C454 C455 1.417 . S
C454 C478 1.431 . S
C455 N451 1.350 . S
C455 C454 1.417 . S
C455 C458 1.426 . S
C456 H439 0.930 . S
C456 N451 1.307 . S
C456 C453 1.402 . S
N457 Gd420 2.601 . S
N457 C458 1.359 . S
N457 C461 1.334 . S
C458 C455 1.426 . S
C458 N457 1.359 . S
C458 C462 1.413 . S
C459 H450 0.930 . S
C459 C460 1.359 . S
C459 C461 1.394 . S
C460 C459 1.359 . S
C460 C462 1.391 . S
C460 H463 0.929 . S
C461 H443 0.930 . S
C461 N457 1.334 . S
C461 C459 1.394 . S
C462 C458 1.413 . S
C462 C460 1.391 . S
C462 C477 1.437 . S
H463 C460 0.929 . S
O464 Gd420 2.545 . S
O464 C479 1.258 . S
O465 Gd420 2.606 . S
O465 Gd421 2.362 . S
O465 C476 1.284 . S
O466 Gd421 2.324 . S
O466 C486 1.254 . S
O467 Gd420 2.429 . S
O467 C486 1.268 . S
O468 Gd420 2.545 . S
O468 C476 1.250 . S
O469 Gd420 2.412 . S
O469 C479 1.252 . S
O470 Gd421 2.545 . S
O470 C488 1.258 . S
O471 Gd420 2.362 . S
O471 Gd421 2.606 . S
O471 C487 1.284 . S
O472 Gd420 2.324 . S
O472 C495 1.254 . S
O473 Gd421 2.429 . S
O473 C495 1.268 . S
O474 Gd421 2.545 . S
O474 C487 1.250 . S
O475 Gd421 2.412 . S
O475 C488 1.252 . S
C476 O465 1.284 . S
C476 O468 1.250 . S
C477 H446 0.929 . S
C477 C462 1.437 . S
C477 C478 1.317 . S
C478 H449 0.930 . S
C478 C454 1.431 . S
C478 C477 1.317 . S
C479 Gd420 2.828 . S
C479 O464 1.258 . S
C479 O469 1.252 . S
C479 C480 1.497 . S
C480 C479 1.497 . S
C480 C481 1.395 . S
C480 C482 1.380 . S
C481 C480 1.395 . S
C481 C484 1.398 . S
C481 H496 0.930 . S
C482 C480 1.380 . S
C482 C483 1.391 . S
C482 H497 0.930 . S
C483 C482 1.391 . S
C483 C485 1.387 . S
C484 C481 1.398 . S
C484 C485 1.380 . S
C484 H498 0.930 . S
C485 C483 1.387 . S
C485 C484 1.380 . S
C485 H499 0.930 . S
C486 O466 1.254 . S
C486 O467 1.268 . S
C487 O471 1.284 . S
C487 O474 1.250 . S
C488 Gd421 2.828 . S
C488 O470 1.258 . S
C488 O475 1.252 . S
C488 C489 1.497 . S
C489 C488 1.497 . S
C489 C490 1.395 . S
C489 C491 1.380 . S
C490 C489 1.395 . S
C490 C493 1.398 . S
C490 H500 0.930 . S
C491 C489 1.380 . S
C491 C492 1.391 . S
C491 H501 0.930 . S
C492 C491 1.391 . S
C492 C494 1.387 . S
C493 C490 1.398 . S
C493 C494 1.380 . S
C493 H502 0.930 . S
C494 C492 1.387 . S
C494 C493 1.380 . S
C494 H503 0.930 . S
C495 O472 1.254 . S
C495 O473 1.268 . S
H496 C481 0.930 . S
H497 C482 0.930 . S
H498 C484 0.930 . S
H499 C485 0.930 . S
H500 C490 0.930 . S
H501 C491 0.930 . S
H502 C493 0.930 . S
H503 C494 0.930 . S
Gd504 N535 2.661 1_545 S
Gd504 N541 2.601 . S
Gd504 O548 2.545 . S
Gd504 O549 2.606 . S
Gd504 O551 2.429 . S
Gd504 O552 2.545 . S
Gd504 O553 2.412 . S
Gd504 O555 2.362 . S
Gd504 O556 2.324 . S
Gd504 C563 2.828 . S
Gd505 N514 2.661 . S
Gd505 N518 2.601 . S
Gd505 O549 2.362 . S
Gd505 O550 2.324 . S
Gd505 O554 2.545 . S
Gd505 O555 2.606 . S
Gd505 O557 2.429 . S
Gd505 O558 2.545 1_545 S
Gd505 O559 2.412 . S
Gd505 C572 2.828 . S
C506 C509 1.417 . S
C506 C511 1.431 . S
C506 C512 1.412 . S
C507 C510 1.437 . S
C507 C511 1.317 . S
C507 H526 0.929 . S
C508 C509 1.426 . S
C508 C510 1.413 . S
C508 N518 1.359 . S
C509 C506 1.417 . S
C509 C508 1.426 . S
C509 N514 1.350 . S
C510 C507 1.437 . S
C510 C508 1.413 . S
C510 C520 1.391 . S
C511 C506 1.431 . S
C511 C507 1.317 . S
C511 H522 0.930 . S
C512 C506 1.412 . S
C512 C513 1.355 . S
C512 H524 0.930 . S
C513 C512 1.355 . S
C513 C515 1.402 . S
C513 H525 0.930 . S
N514 Gd505 2.661 . S
N514 C509 1.350 . S
N514 C515 1.307 . S
C515 C513 1.402 . S
C515 N514 1.307 . S
C515 H516 0.930 . S
H516 C515 0.930 . S
C517 N518 1.334 . S
C517 C519 1.394 . S
C517 H521 0.930 . S
N518 Gd505 2.601 . S
N518 C508 1.359 . S
N518 C517 1.334 . S
C519 C517 1.394 . S
C519 C520 1.359 . S
C519 H531 0.930 . S
C520 C510 1.391 . S
C520 C519 1.359 . S
C520 H532 0.929 . S
H521 C517 0.930 . S
H522 C511 0.930 . S
H523 C540 0.930 . S
H524 C512 0.930 . S
H525 C513 0.930 . S
H526 C507 0.929 . S
H527 C545 0.930 . S
H528 C536 0.930 . S
H529 C537 0.930 . S
H530 C561 0.929 . S
H531 C519 0.930 . S
H532 C520 0.929 . S
H533 C562 0.930 . S
H534 C543 0.928 1_545 S
N535 Gd504 2.661 1_565 S
N535 C539 1.350 . S
N535 C540 1.307 . S
C536 H528 0.930 . S
C536 C537 1.355 . S
C536 C538 1.412 . S
C537 H529 0.930 . S
C537 C536 1.355 . S
C537 C540 1.402 . S
C538 C536 1.412 . S
C538 C539 1.417 . S
C538 C562 1.431 . S
C539 N535 1.350 . S
C539 C538 1.417 . S
C539 C542 1.426 . S
C540 H523 0.930 . S
C540 N535 1.307 . S
C540 C537 1.402 . S
N541 Gd504 2.601 . S
N541 C542 1.359 1_545 S
N541 C545 1.334 . S
C542 C539 1.426 . S
C542 N541 1.359 1_565 S
C542 C546 1.413 . S
C543 H534 0.928 1_565 S
C543 C544 1.369 . S
C543 C545 1.387 1_565 S
C544 C543 1.369 . S
C544 C546 1.391 . S
C544 H547 0.929 . S
C545 H527 0.930 . S
C545 N541 1.334 . S
C545 C543 1.387 1_545 S
C546 C542 1.413 . S
C546 C544 1.391 . S
C546 C561 1.437 . S
H547 C544 0.929 . S
O548 Gd504 2.545 . S
O548 C563 1.258 . S
O549 Gd504 2.606 . S
O549 Gd505 2.362 . S
O549 C560 1.284 . S
O550 Gd505 2.324 . S
O550 C570 1.254 . S
O551 Gd504 2.429 . S
O551 C570 1.268 . S
O552 Gd504 2.545 . S
O552 C560 1.250 . S
O553 Gd504 2.412 . S
O553 C563 1.252 . S
O554 Gd505 2.545 . S
O554 C572 1.258 . S
O555 Gd504 2.362 . S
O555 Gd505 2.606 . S
O555 C571 1.284 1_545 S
O556 Gd504 2.324 . S
O556 C579 1.254 . S
O557 Gd505 2.429 . S
O557 C579 1.268 . S
O558 Gd505 2.545 1_565 S
O558 C571 1.250 . S
O559 Gd505 2.412 . S
O559 C572 1.252 . S
C560 O549 1.284 . S
C560 O552 1.250 . S
C561 H530 0.929 . S
C561 C546 1.437 . S
C561 C562 1.317 . S
C562 H533 0.930 . S
C562 C538 1.431 . S
C562 C561 1.317 . S
C563 Gd504 2.828 . S
C563 O548 1.258 . S
C563 O553 1.252 . S
C563 C564 1.497 . S
C564 C563 1.497 . S
C564 C565 1.395 . S
C564 C566 1.380 . S
C565 C564 1.395 . S
C565 C568 1.398 . S
C565 H580 0.930 . S
C566 C564 1.380 . S
C566 C567 1.391 . S
C566 H581 0.930 . S
C567 C566 1.391 . S
C567 C569 1.387 . S
C568 C565 1.398 . S
C568 C569 1.380 . S
C568 H582 0.930 . S
C569 C567 1.387 . S
C569 C568 1.380 . S
C569 H583 0.930 . S
C570 O550 1.254 . S
C570 O551 1.268 . S
C571 O555 1.284 1_565 S
C571 O558 1.250 . S
C572 Gd505 2.828 . S
C572 O554 1.258 . S
C572 O559 1.252 . S
C572 C573 1.497 . S
C573 C572 1.497 . S
C573 C574 1.393 . S
C573 C575 1.380 1_545 S
C574 C573 1.393 . S
C574 C577 1.378 1_545 S
C574 H584 0.952 . S
C575 C573 1.380 1_565 S
C575 C576 1.391 . S
C575 H585 0.930 . S
C576 C575 1.391 . S
C576 C578 1.387 . S
C577 C574 1.378 1_565 S
C577 C578 1.380 . S
C577 H586 0.930 . S
C578 C576 1.387 . S
C578 C577 1.380 . S
C578 H587 0.930 . S
C579 O556 1.254 . S
C579 O557 1.268 . S
H580 C565 0.930 . S
H581 C566 0.930 . S
H582 C568 0.930 . S
H583 C569 0.930 . S
H584 C574 0.952 . S
H585 C575 0.930 . S
H586 C577 0.930 . S
H587 C578 0.930 . S
Gd588 N619 2.661 . S
Gd588 N625 2.601 . S
Gd588 O632 2.545 . S
Gd588 O633 2.606 . S
Gd588 O635 2.429 . S
Gd588 O636 2.545 . S
Gd588 O637 2.412 . S
Gd588 O639 2.362 . S
Gd588 O640 2.324 . S
Gd588 C647 2.828 . S
Gd589 N598 2.661 . S
Gd589 N602 2.601 . S
Gd589 O633 2.362 . S
Gd589 O634 2.324 . S
Gd589 O638 2.545 . S
Gd589 O639 2.606 . S
Gd589 O641 2.429 . S
Gd589 O642 2.545 . S
Gd589 O643 2.412 . S
Gd589 C656 2.828 . S
C590 C593 1.417 . S
C590 C595 1.431 . S
C590 C596 1.412 . S
C591 C594 1.437 . S
C591 C595 1.317 . S
C591 H610 0.929 . S
C592 C593 1.426 . S
C592 C594 1.413 . S
C592 N602 1.359 . S
C593 C590 1.417 . S
C593 C592 1.426 . S
C593 N598 1.350 . S
C594 C591 1.437 . S
C594 C592 1.413 . S
C594 C604 1.391 . S
C595 C590 1.431 . S
C595 C591 1.317 . S
C595 H606 0.930 . S
C596 C590 1.412 . S
C596 C597 1.355 . S
C596 H608 0.930 . S
C597 C596 1.355 . S
C597 C599 1.402 . S
C597 H609 0.930 . S
N598 Gd589 2.661 . S
N598 C593 1.350 . S
N598 C599 1.307 . S
C599 C597 1.402 . S
C599 N598 1.307 . S
C599 H600 0.930 . S
H600 C599 0.930 . S
C601 N602 1.334 . S
C601 C603 1.394 . S
C601 H605 0.930 . S
N602 Gd589 2.601 . S
N602 C592 1.359 . S
N602 C601 1.334 . S
C603 C601 1.394 . S
C603 C604 1.359 . S
C603 H615 0.930 . S
C604 C594 1.391 . S
C604 C603 1.359 . S
C604 H616 0.929 . S
H605 C601 0.930 . S
H606 C595 0.930 . S
H607 C624 0.930 . S
H608 C596 0.930 . S
H609 C597 0.930 . S
H610 C591 0.929 . S
H611 C629 0.930 . S
H612 C620 0.930 . S
H613 C621 0.930 . S
H614 C645 0.929 . S
H615 C603 0.930 . S
H616 C604 0.929 . S
H617 C646 0.930 . S
H618 C627 0.930 . S
N619 Gd588 2.661 . S
N619 C623 1.350 . S
N619 C624 1.307 . S
C620 H612 0.930 . S
C620 C621 1.355 . S
C620 C622 1.412 . S
C621 H613 0.930 . S
C621 C620 1.355 . S
C621 C624 1.402 . S
C622 C620 1.412 . S
C622 C623 1.417 . S
C622 C646 1.431 . S
C623 N619 1.350 . S
C623 C622 1.417 . S
C623 C626 1.426 . S
C624 H607 0.930 . S
C624 N619 1.307 . S
C624 C621 1.402 . S
N625 Gd588 2.601 . S
N625 C626 1.359 . S
N625 C629 1.334 . S
C626 C623 1.426 . S
C626 N625 1.359 . S
C626 C630 1.413 . S
C627 H618 0.930 . S
C627 C628 1.359 . S
C627 C629 1.394 . S
C628 C627 1.359 . S
C628 C630 1.391 . S
C628 H631 0.929 . S
C629 H611 0.930 . S
C629 N625 1.334 . S
C629 C627 1.394 . S
C630 C626 1.413 . S
C630 C628 1.391 . S
C630 C645 1.437 . S
H631 C628 0.929 . S
O632 Gd588 2.545 . S
O632 C647 1.258 . S
O633 Gd588 2.606 . S
O633 Gd589 2.362 . S
O633 C644 1.284 . S
O634 Gd589 2.324 . S
O634 C654 1.254 . S
O635 Gd588 2.429 . S
O635 C654 1.268 . S
O636 Gd588 2.545 . S
O636 C644 1.250 . S
O637 Gd588 2.412 . S
O637 C647 1.252 . S
O638 Gd589 2.545 . S
O638 C656 1.258 . S
O639 Gd588 2.362 . S
O639 Gd589 2.606 . S
O639 C655 1.284 . S
O640 Gd588 2.324 . S
O640 C663 1.254 . S
O641 Gd589 2.429 . S
O641 C663 1.268 . S
O642 Gd589 2.545 . S
O642 C655 1.250 . S
O643 Gd589 2.412 . S
O643 C656 1.252 . S
C644 O633 1.284 . S
C644 O636 1.250 . S
C645 H614 0.929 . S
C645 C630 1.437 . S
C645 C646 1.317 . S
C646 H617 0.930 . S
C646 C622 1.431 . S
C646 C645 1.317 . S
C647 Gd588 2.828 . S
C647 O632 1.258 . S
C647 O637 1.252 . S
C647 C648 1.497 . S
C648 C647 1.497 . S
C648 C649 1.395 . S
C648 C650 1.380 . S
C649 C648 1.395 . S
C649 C652 1.398 . S
C649 H664 0.930 . S
C650 C648 1.380 . S
C650 C651 1.391 . S
C650 H665 0.930 . S
C651 C650 1.391 . S
C651 C653 1.387 . S
C652 C649 1.398 . S
C652 C653 1.380 . S
C652 H666 0.930 . S
C653 C651 1.387 . S
C653 C652 1.380 . S
C653 H667 0.930 . S
C654 O634 1.254 . S
C654 O635 1.268 . S
C655 O639 1.284 . S
C655 O642 1.250 . S
C656 Gd589 2.828 . S
C656 O638 1.258 . S
C656 O643 1.252 . S
C656 C657 1.497 . S
C657 C656 1.497 . S
C657 C658 1.395 . S
C657 C659 1.380 . S
C658 C657 1.395 . S
C658 C661 1.398 . S
C658 H668 0.930 . S
C659 C657 1.380 . S
C659 C660 1.391 . S
C659 H669 0.930 . S
C660 C659 1.391 . S
C660 C662 1.387 . S
C661 C658 1.398 . S
C661 C662 1.380 . S
C661 H670 0.930 . S
C662 C660 1.387 . S
C662 C661 1.380 . S
C662 H671 0.930 . S
C663 O640 1.254 . S
C663 O641 1.268 . S
H664 C649 0.930 . S
H665 C650 0.930 . S
H666 C652 0.930 . S
H667 C653 0.930 . S
H668 C658 0.930 . S
H669 C659 0.930 . S
H670 C661 0.930 . S
H671 C662 0.930 . S
Gd672 N703 2.664 . S
Gd672 N709 2.607 . S
Gd672 O716 2.563 . S
Gd672 O717 2.593 1_565 S
Gd672 O719 2.418 1_565 S
Gd672 O720 2.548 1_565 S
Gd672 O721 2.432 . S
Gd672 O723 2.343 1_565 S
Gd672 O724 2.327 . S
Gd672 C731 2.849 . S
Gd673 N682 2.661 . S
Gd673 N686 2.601 . S
Gd673 O717 2.362 . S
Gd673 O718 2.324 . S
Gd673 O722 2.545 . S
Gd673 O723 2.606 . S
Gd673 O725 2.429 . S
Gd673 O726 2.545 . S
Gd673 O727 2.412 . S
Gd673 C740 2.828 . S
C674 C677 1.417 . S
C674 C679 1.431 . S
C674 C680 1.412 . S
C675 C678 1.437 . S
C675 C679 1.317 . S
C675 H694 0.929 . S
C676 C677 1.426 . S
C676 C678 1.413 . S
C676 N686 1.359 . S
C677 C674 1.417 . S
C677 C676 1.426 . S
C677 N682 1.350 . S
C678 C675 1.437 . S
C678 C676 1.413 . S
C678 C688 1.391 . S
C679 C674 1.431 . S
C679 C675 1.317 . S
C679 H690 0.930 . S
C680 C674 1.412 . S
C680 C681 1.355 . S
C680 H692 0.930 . S
C681 C680 1.355 . S
C681 C683 1.402 . S
C681 H693 0.930 . S
N682 Gd673 2.661 . S
N682 C677 1.350 . S
N682 C683 1.307 . S
C683 C681 1.402 . S
C683 N682 1.307 . S
C683 H684 0.930 . S
H684 C683 0.930 . S
C685 N686 1.334 . S
C685 C687 1.394 . S
C685 H689 0.930 . S
N686 Gd673 2.601 . S
N686 C676 1.359 . S
N686 C685 1.334 . S
C687 C685 1.394 . S
C687 C688 1.359 . S
C687 H699 0.930 1_455 S
C688 C678 1.391 . S
C688 C687 1.359 . S
C688 H700 0.929 . S
H689 C685 0.930 . S
H690 C679 0.930 . S
H691 C708 0.930 . S
H692 C680 0.930 . S
H693 C681 0.930 . S
H694 C675 0.929 . S
H695 C713 0.930 . S
H696 C704 0.930 . S
H697 C705 0.930 1_655 S
H698 C729 0.929 . S
H699 C687 0.930 1_655 S
H700 C688 0.929 . S
H701 C730 0.930 . S
H702 C711 0.930 . S
N703 Gd672 2.664 . S
N703 C707 1.350 . S
N703 C708 1.307 . S
C704 H696 0.930 . S
C704 C705 1.355 . S
C704 C706 1.412 . S
C705 H697 0.930 1_455 S
C705 C704 1.355 . S
C705 C708 1.402 . S
C706 C704 1.412 . S
C706 C707 1.417 . S
C706 C730 1.431 . S
C707 N703 1.350 . S
C707 C706 1.417 . S
C707 C710 1.426 . S
C708 H691 0.930 . S
C708 N703 1.307 . S
C708 C705 1.402 . S
N709 Gd672 2.607 . S
N709 C710 1.359 . S
N709 C713 1.334 . S
C710 C707 1.426 . S
C710 N709 1.359 . S
C710 C714 1.413 . S
C711 H702 0.930 . S
C711 C712 1.359 . S
C711 C713 1.394 . S
C712 C711 1.359 . S
C712 C714 1.391 . S
C712 H715 0.929 . S
C713 H695 0.930 . S
C713 N709 1.334 . S
C713 C711 1.394 . S
C714 C710 1.413 . S
C714 C712 1.391 . S
C714 C729 1.437 . S
H715 C712 0.929 . S
O716 Gd672 2.563 . S
O716 C731 1.258 . S
O717 Gd672 2.593 1_545 S
O717 Gd673 2.362 . S
O717 C728 1.284 . S
O718 Gd673 2.324 . S
O718 C738 1.254 . S
O719 Gd672 2.418 1_545 S
O719 C738 1.268 . S
O720 Gd672 2.548 1_545 S
O720 C728 1.250 . S
O721 Gd672 2.432 . S
O721 C731 1.252 . S
O722 Gd673 2.545 . S
O722 C740 1.258 . S
O723 Gd672 2.343 1_545 S
O723 Gd673 2.606 . S
O723 C739 1.284 . S
O724 Gd672 2.327 . S
O724 C747 1.229 1_565 S
O725 Gd673 2.429 . S
O725 C747 1.268 . S
O726 Gd673 2.545 . S
O726 C739 1.250 . S
O727 Gd673 2.412 . S
O727 C740 1.252 . S
C728 O717 1.284 . S
C728 O720 1.250 . S
C729 H698 0.929 . S
C729 C714 1.437 . S
C729 C730 1.317 . S
C730 H701 0.930 . S
C730 C706 1.431 . S
C730 C729 1.317 . S
C731 Gd672 2.849 . S
C731 O716 1.258 . S
C731 O721 1.252 . S
C731 C732 1.497 . S
C732 C731 1.497 . S
C732 C733 1.395 . S
C732 C734 1.380 . S
C733 C732 1.395 . S
C733 C736 1.398 . S
C733 H748 0.930 . S
C734 C732 1.380 . S
C734 C735 1.391 . S
C734 H749 0.930 . S
C735 C734 1.391 . S
C735 C737 1.387 . S
C736 C733 1.398 . S
C736 C737 1.380 . S
C736 H750 0.930 . S
C737 C735 1.387 . S
C737 C736 1.380 . S
C737 H751 0.930 . S
C738 O718 1.254 . S
C738 O719 1.268 . S
C739 O723 1.284 . S
C739 O726 1.250 . S
C740 Gd673 2.828 . S
C740 O722 1.258 . S
C740 O727 1.252 . S
C740 C741 1.497 . S
C741 C740 1.497 . S
C741 C742 1.395 . S
C741 C743 1.380 . S
C742 C741 1.395 . S
C742 C745 1.398 . S
C742 H752 0.930 . S
C743 C741 1.380 . S
C743 C744 1.391 . S
C743 H753 0.930 . S
C744 C743 1.391 . S
C744 C746 1.387 . S
C745 C742 1.398 . S
C745 C746 1.380 . S
C745 H754 0.930 . S
C746 C744 1.387 . S
C746 C745 1.380 . S
C746 H755 0.930 . S
C747 O724 1.229 1_545 S
C747 O725 1.268 . S
H748 C733 0.930 . S
H749 C734 0.930 . S
H750 C736 0.930 . S
H751 C737 0.930 . S
H752 C742 0.930 . S
H753 C743 0.930 . S
H754 C745 0.930 . S
H755 C746 0.930 . S
Gd756 N787 2.661 . S
Gd756 N793 2.601 . S
Gd756 O800 2.545 . S
Gd756 O801 2.606 . S
Gd756 O803 2.429 . S
Gd756 O804 2.545 . S
Gd756 O805 2.412 . S
Gd756 O807 2.362 . S
Gd756 O808 2.324 . S
Gd756 C815 2.828 . S
Gd757 N766 2.661 . S
Gd757 N770 2.601 . S
Gd757 O801 2.362 . S
Gd757 O802 2.324 . S
Gd757 O806 2.545 . S
Gd757 O807 2.606 . S
Gd757 O809 2.429 . S
Gd757 O810 2.545 . S
Gd757 O811 2.412 . S
Gd757 C824 2.828 . S
C758 C761 1.417 . S
C758 C763 1.431 . S
C758 C764 1.412 . S
C759 C762 1.437 . S
C759 C763 1.317 . S
C759 H778 0.929 . S
C760 C761 1.426 . S
C760 C762 1.413 . S
C760 N770 1.359 . S
C761 C758 1.417 . S
C761 C760 1.426 . S
C761 N766 1.350 . S
C762 C759 1.437 . S
C762 C760 1.413 . S
C762 C772 1.391 . S
C763 C758 1.431 . S
C763 C759 1.317 . S
C763 H774 0.930 . S
C764 C758 1.412 . S
C764 C765 1.355 . S
C764 H776 0.930 . S
C765 C764 1.355 . S
C765 C767 1.402 . S
C765 H777 0.930 . S
N766 Gd757 2.661 . S
N766 C761 1.350 . S
N766 C767 1.307 . S
C767 C765 1.402 . S
C767 N766 1.307 . S
C767 H768 0.930 . S
H768 C767 0.930 . S
C769 N770 1.334 . S
C769 C771 1.394 . S
C769 H773 0.930 . S
N770 Gd757 2.601 . S
N770 C760 1.359 . S
N770 C769 1.334 . S
C771 C769 1.394 . S
C771 C772 1.359 . S
C771 H783 0.930 . S
C772 C762 1.391 . S
C772 C771 1.359 . S
C772 H784 0.929 . S
H773 C769 0.930 . S
H774 C763 0.930 . S
H775 C792 0.930 . S
H776 C764 0.930 . S
H777 C765 0.930 . S
H778 C759 0.929 . S
H779 C797 0.930 . S
H780 C788 0.930 . S
H781 C789 0.930 . S
H782 C813 0.929 . S
H783 C771 0.930 . S
H784 C772 0.929 . S
H785 C814 0.930 . S
H786 C795 0.930 . S
N787 Gd756 2.661 . S
N787 C791 1.350 . S
N787 C792 1.307 . S
C788 H780 0.930 . S
C788 C789 1.355 . S
C788 C790 1.412 . S
C789 H781 0.930 . S
C789 C788 1.355 . S
C789 C792 1.402 . S
C790 C788 1.412 . S
C790 C791 1.417 . S
C790 C814 1.431 . S
C791 N787 1.350 . S
C791 C790 1.417 . S
C791 C794 1.426 . S
C792 H775 0.930 . S
C792 N787 1.307 . S
C792 C789 1.402 . S
N793 Gd756 2.601 . S
N793 C794 1.359 . S
N793 C797 1.334 . S
C794 C791 1.426 . S
C794 N793 1.359 . S
C794 C798 1.413 . S
C795 H786 0.930 . S
C795 C796 1.359 . S
C795 C797 1.394 . S
C796 C795 1.359 . S
C796 C798 1.391 . S
C796 H799 0.929 . S
C797 H779 0.930 . S
C797 N793 1.334 . S
C797 C795 1.394 . S
C798 C794 1.413 . S
C798 C796 1.391 . S
C798 C813 1.437 . S
H799 C796 0.929 . S
O800 Gd756 2.545 . S
O800 C815 1.258 . S
O801 Gd756 2.606 . S
O801 Gd757 2.362 . S
O801 C812 1.284 . S
O802 Gd757 2.324 . S
O802 C822 1.254 . S
O803 Gd756 2.429 . S
O803 C822 1.268 . S
O804 Gd756 2.545 . S
O804 C812 1.250 . S
O805 Gd756 2.412 . S
O805 C815 1.252 . S
O806 Gd757 2.545 . S
O806 C824 1.258 . S
O807 Gd756 2.362 . S
O807 Gd757 2.606 . S
O807 C823 1.284 . S
O808 Gd756 2.324 . S
O808 C831 1.254 . S
O809 Gd757 2.429 . S
O809 C831 1.268 . S
O810 Gd757 2.545 . S
O810 C823 1.250 . S
O811 Gd757 2.412 . S
O811 C824 1.252 . S
C812 O801 1.284 . S
C812 O804 1.250 . S
C813 H782 0.929 . S
C813 C798 1.437 . S
C813 C814 1.317 . S
C814 H785 0.930 . S
C814 C790 1.431 . S
C814 C813 1.317 . S
C815 Gd756 2.828 . S
C815 O800 1.258 . S
C815 O805 1.252 . S
C815 C816 1.497 . S
C816 C815 1.497 . S
C816 C817 1.395 . S
C816 C818 1.380 . S
C817 C816 1.395 . S
C817 C820 1.398 . S
C817 H832 0.930 . S
C818 C816 1.380 . S
C818 C819 1.391 . S
C818 H833 0.930 . S
C819 C818 1.391 . S
C819 C821 1.387 . S
C820 C817 1.398 . S
C820 C821 1.380 . S
C820 H834 0.930 . S
C821 C819 1.387 . S
C821 C820 1.380 . S
C821 H835 0.930 . S
C822 O802 1.254 . S
C822 O803 1.268 . S
C823 O807 1.284 . S
C823 O810 1.250 . S
C824 Gd757 2.828 . S
C824 O806 1.258 . S
C824 O811 1.252 . S
C824 C825 1.497 . S
C825 C824 1.497 . S
C825 C826 1.395 . S
C825 C827 1.380 . S
C826 C825 1.395 . S
C826 C829 1.398 . S
C826 H836 0.930 . S
C827 C825 1.380 . S
C827 C828 1.391 . S
C827 H837 0.930 . S
C828 C827 1.391 . S
C828 C830 1.387 . S
C829 C826 1.398 . S
C829 C830 1.380 . S
C829 H838 0.930 . S
C830 C828 1.387 . S
C830 C829 1.380 . S
C830 H839 0.930 . S
C831 O808 1.254 . S
C831 O809 1.268 . S
H832 C817 0.930 . S
H833 C818 0.930 . S
H834 C820 0.930 . S
H835 C821 0.930 . S
H836 C826 0.930 . S
H837 C827 0.930 . S
H838 C829 0.930 . S
H839 C830 0.930 . S
Gd840 N871 2.661 . S
Gd840 N877 2.601 . S
Gd840 O884 2.545 . S
Gd840 O885 2.606 1_556 S
Gd840 O887 2.429 1_556 S
Gd840 O888 2.545 . S
Gd840 O889 2.412 . S
Gd840 O891 2.362 1_556 S
Gd840 O892 2.324 . S
Gd840 C899 2.828 . S
Gd841 N850 2.661 . S
Gd841 N854 2.601 . S
Gd841 O885 2.362 . S
Gd841 O886 2.324 . S
Gd841 O890 2.545 1_545 S
Gd841 O891 2.606 . S
Gd841 O893 2.429 1_545 S
Gd841 O894 2.545 . S
Gd841 O895 2.412 . S
Gd841 C908 2.828 . S
C842 C845 1.417 . S
C842 C847 1.431 . S
C842 C848 1.412 . S
C843 C846 1.437 . S
C843 C847 1.317 . S
C843 H862 0.929 . S
C844 C845 1.426 . S
C844 C846 1.413 . S
C844 N854 1.359 . S
C845 C842 1.417 . S
C845 C844 1.426 . S
C845 N850 1.350 . S
C846 C843 1.437 . S
C846 C844 1.413 . S
C846 C856 1.391 1_545 S
C847 C842 1.431 . S
C847 C843 1.317 . S
C847 H858 0.930 . S
C848 C842 1.412 . S
C848 C849 1.355 . S
C848 H860 0.930 . S
C849 C848 1.355 . S
C849 C851 1.402 . S
C849 H861 0.930 . S
N850 Gd841 2.661 . S
N850 C845 1.350 . S
N850 C851 1.307 . S
C851 C849 1.402 . S
C851 N850 1.307 . S
C851 H852 0.930 . S
H852 C851 0.930 . S
C853 N854 1.334 1_565 S
C853 C855 1.394 . S
C853 H857 0.930 . S
N854 Gd841 2.601 . S
N854 C844 1.359 . S
N854 C853 1.334 1_545 S
C855 C853 1.394 . S
C855 C856 1.359 . S
C855 H867 0.930 . S
C856 C846 1.391 1_565 S
C856 C855 1.359 . S
C856 H868 0.929 . S
H857 C853 0.930 . S
H858 C847 0.930 . S
H859 C876 0.930 . S
H860 C848 0.930 . S
H861 C849 0.930 . S
H862 C843 0.929 . S
H863 C881 0.930 . S
H864 C872 0.930 . S
H865 C873 0.930 . S
H866 C897 0.929 . S
H867 C855 0.930 . S
H868 C856 0.929 . S
H869 C898 0.930 . S
H870 C879 0.930 . S
N871 Gd840 2.661 . S
N871 C875 1.350 . S
N871 C876 1.307 1_545 S
C872 H864 0.930 . S
C872 C873 1.355 . S
C872 C874 1.412 1_565 S
C873 H865 0.930 . S
C873 C872 1.355 . S
C873 C876 1.402 . S
C874 C872 1.412 1_545 S
C874 C875 1.417 . S
C874 C898 1.431 . S
C875 N871 1.350 . S
C875 C874 1.417 . S
C875 C878 1.426 . S
C876 H859 0.930 . S
C876 N871 1.307 1_565 S
C876 C873 1.402 . S
N877 Gd840 2.601 . S
N877 C878 1.359 . S
N877 C881 1.334 . S
C878 C875 1.426 . S
C878 N877 1.359 . S
C878 C882 1.413 . S
C879 H870 0.930 . S
C879 C880 1.359 . S
C879 C881 1.394 . S
C880 C879 1.359 . S
C880 C882 1.391 . S
C880 H883 0.929 . S
C881 H863 0.930 . S
C881 N877 1.334 . S
C881 C879 1.394 . S
C882 C878 1.413 . S
C882 C880 1.391 . S
C882 C897 1.437 . S
H883 C880 0.929 . S
O884 Gd840 2.545 . S
O884 C899 1.258 . S
O885 Gd840 2.606 1_554 S
O885 Gd841 2.362 . S
O885 C896 1.284 . S
O886 Gd841 2.324 . S
O886 C906 1.254 . S
O887 Gd840 2.429 1_554 S
O887 C906 1.268 . S
O888 Gd840 2.545 . S
O888 C896 1.250 1_556 S
O889 Gd840 2.412 . S
O889 C899 1.252 . S
O890 Gd841 2.545 1_565 S
O890 C908 1.258 1_565 S
O891 Gd840 2.362 1_554 S
O891 Gd841 2.606 . S
O891 C907 1.284 . S
O892 Gd840 2.324 . S
O892 C915 1.254 1_545 S
O893 Gd841 2.429 1_565 S
O893 C915 1.268 1_554 S
O894 Gd841 2.545 . S
O894 C907 1.250 . S
O895 Gd841 2.412 . S
O895 C908 1.252 . S
C896 O885 1.284 . S
C896 O888 1.250 1_554 S
C897 H866 0.929 . S
C897 C882 1.437 . S
C897 C898 1.317 . S
C898 H869 0.930 . S
C898 C874 1.431 . S
C898 C897 1.317 . S
C899 Gd840 2.828 . S
C899 O884 1.258 . S
C899 O889 1.252 . S
C899 C900 1.497 . S
C900 C899 1.497 . S
C900 C901 1.395 . S
C900 C902 1.380 . S
C901 C900 1.395 . S
C901 C904 1.398 . S
C901 H916 0.930 . S
C902 C900 1.380 . S
C902 C903 1.391 . S
C902 H917 0.930 . S
C903 C902 1.391 . S
C903 C905 1.387 . S
C904 C901 1.398 . S
C904 C905 1.380 . S
C904 H918 0.930 . S
C905 C903 1.387 . S
C905 C904 1.380 . S
C905 H919 0.930 . S
C906 O886 1.254 . S
C906 O887 1.268 . S
C907 O891 1.284 . S
C907 O894 1.250 . S
C908 Gd841 2.828 . S
C908 O890 1.258 1_545 S
C908 O895 1.252 . S
C908 C909 1.497 . S
C909 C908 1.497 . S
C909 C910 1.395 1_545 S
C909 C911 1.380 . S
C910 C909 1.395 1_565 S
C910 C913 1.398 . S
C910 H920 0.930 . S
C911 C909 1.380 . S
C911 C912 1.391 . S
C911 H921 0.930 . S
C912 C911 1.391 . S
C912 C914 1.387 1_545 S
C913 C910 1.398 . S
C913 C914 1.380 . S
C913 H922 0.930 . S
C914 C912 1.387 1_565 S
C914 C913 1.380 . S
C914 H923 0.930 . S
C915 O892 1.254 1_565 S
C915 O893 1.268 1_556 S
H916 C901 0.930 . S
H917 C902 0.930 . S
H918 C904 0.930 . S
H919 C905 0.930 . S
H920 C910 0.930 . S
H921 C911 0.930 . S
H922 C913 0.930 . S
H923 C914 0.930 . S
Gd924 N955 2.661 . S
Gd924 N961 2.601 . S
Gd924 O968 2.545 . S
Gd924 O969 2.606 . S
Gd924 O971 2.429 . S
Gd924 O972 2.545 . S
Gd924 O973 2.412 . S
Gd924 O975 2.362 . S
Gd924 O976 2.324 . S
Gd924 C983 2.828 . S
Gd925 N934 2.661 . S
Gd925 N938 2.601 . S
Gd925 O969 2.362 . S
Gd925 O970 2.324 . S
Gd925 O974 2.545 . S
Gd925 O975 2.606 . S
Gd925 O977 2.429 . S
Gd925 O978 2.545 . S
Gd925 O979 2.412 . S
Gd925 C992 2.828 . S
C926 C929 1.417 . S
C926 C931 1.431 . S
C926 C932 1.412 . S
C927 C930 1.437 . S
C927 C931 1.317 . S
C927 H946 0.929 . S
C928 C929 1.426 . S
C928 C930 1.413 . S
C928 N938 1.359 . S
C929 C926 1.417 . S
C929 C928 1.426 . S
C929 N934 1.350 . S
C930 C927 1.437 . S
C930 C928 1.413 . S
C930 C940 1.391 . S
C931 C926 1.431 . S
C931 C927 1.317 . S
C931 H942 0.930 . S
C932 C926 1.412 . S
C932 C933 1.355 . S
C932 H944 0.930 . S
C933 C932 1.355 . S
C933 C935 1.402 . S
C933 H945 0.930 . S
N934 Gd925 2.661 . S
N934 C929 1.350 . S
N934 C935 1.307 . S
C935 C933 1.402 . S
C935 N934 1.307 . S
C935 H936 0.930 . S
H936 C935 0.930 . S
C937 N938 1.334 . S
C937 C939 1.394 . S
C937 H941 0.930 . S
N938 Gd925 2.601 . S
N938 C928 1.359 . S
N938 C937 1.334 . S
C939 C937 1.394 . S
C939 C940 1.359 . S
C939 H951 0.930 . S
C940 C930 1.391 . S
C940 C939 1.359 . S
C940 H952 0.929 . S
H941 C937 0.930 . S
H942 C931 0.930 . S
H943 C960 0.930 . S
H944 C932 0.930 . S
H945 C933 0.930 . S
H946 C927 0.929 . S
H947 C965 0.930 . S
H948 C956 0.930 . S
H949 C957 0.930 . S
H950 C981 0.929 . S
H951 C939 0.930 . S
H952 C940 0.929 . S
H953 C982 0.930 . S
H954 C963 0.930 . S
N955 Gd924 2.661 . S
N955 C959 1.350 . S
N955 C960 1.307 . S
C956 H948 0.930 . S
C956 C957 1.355 . S
C956 C958 1.412 . S
C957 H949 0.930 . S
C957 C956 1.355 . S
C957 C960 1.402 . S
C958 C956 1.412 . S
C958 C959 1.417 . S
C958 C982 1.431 . S
C959 N955 1.350 . S
C959 C958 1.417 . S
C959 C962 1.426 . S
C960 H943 0.930 . S
C960 N955 1.307 . S
C960 C957 1.402 . S
N961 Gd924 2.601 . S
N961 C962 1.359 . S
N961 C965 1.334 . S
C962 C959 1.426 . S
C962 N961 1.359 . S
C962 C966 1.413 . S
C963 H954 0.930 . S
C963 C964 1.359 . S
C963 C965 1.394 . S
C964 C963 1.359 . S
C964 C966 1.391 . S
C964 H967 0.929 . S
C965 H947 0.930 . S
C965 N961 1.334 . S
C965 C963 1.394 . S
C966 C962 1.413 . S
C966 C964 1.391 . S
C966 C981 1.437 . S
H967 C964 0.929 . S
O968 Gd924 2.545 . S
O968 C983 1.258 . S
O969 Gd924 2.606 . S
O969 Gd925 2.362 . S
O969 C980 1.284 . S
O970 Gd925 2.324 . S
O970 C990 1.254 . S
O971 Gd924 2.429 . S
O971 C990 1.268 . S
O972 Gd924 2.545 . S
O972 C980 1.250 . S
O973 Gd924 2.412 . S
O973 C983 1.252 . S
O974 Gd925 2.545 . S
O974 C992 1.258 . S
O975 Gd924 2.362 . S
O975 Gd925 2.606 . S
O975 C991 1.284 . S
O976 Gd924 2.324 . S
O976 C999 1.254 . S
O977 Gd925 2.429 . S
O977 C999 1.268 . S
O978 Gd925 2.545 . S
O978 C991 1.250 . S
O979 Gd925 2.412 . S
O979 C992 1.252 . S
C980 O969 1.284 . S
C980 O972 1.250 . S
C981 H950 0.929 . S
C981 C966 1.437 . S
C981 C982 1.317 . S
C982 H953 0.930 . S
C982 C958 1.431 . S
C982 C981 1.317 . S
C983 Gd924 2.828 . S
C983 O968 1.258 . S
C983 O973 1.252 . S
C983 C984 1.497 . S
C984 C983 1.497 . S
C984 C985 1.395 . S
C984 C986 1.380 . S
C985 C984 1.395 . S
C985 C988 1.398 . S
C985 H1000 0.930 . S
C986 C984 1.380 . S
C986 C987 1.391 . S
C986 H1001 0.930 . S
C987 C986 1.391 . S
C987 C989 1.387 . S
C988 C985 1.398 . S
C988 C989 1.380 . S
C988 H1002 0.930 . S
C989 C987 1.387 . S
C989 C988 1.380 . S
C989 H1003 0.930 . S
C990 O970 1.254 . S
C990 O971 1.268 . S
C991 O975 1.284 . S
C991 O978 1.250 . S
C992 Gd925 2.828 . S
C992 O974 1.258 . S
C992 O979 1.252 . S
C992 C993 1.497 . S
C993 C992 1.497 . S
C993 C994 1.395 . S
C993 C995 1.380 . S
C994 C993 1.395 . S
C994 C997 1.398 . S
C994 H1004 0.930 . S
C995 C993 1.380 . S
C995 C996 1.391 . S
C995 H1005 0.930 . S
C996 C995 1.391 . S
C996 C998 1.387 . S
C997 C994 1.398 . S
C997 C998 1.380 . S
C997 H1006 0.930 . S
C998 C996 1.387 . S
C998 C997 1.380 . S
C998 H1007 0.930 . S
C999 O976 1.254 . S
C999 O977 1.268 . S
H1000 C985 0.930 . S
H1001 C986 0.930 . S
H1002 C988 0.930 . S
H1003 C989 0.930 . S
H1004 C994 0.930 . S
H1005 C995 0.930 . S
H1006 C997 0.930 . S
H1007 C998 0.930 . S
Gd1008 N1039 2.661 1_554 S
Gd1008 N1045 2.601 1_554 S
Gd1008 O1052 2.545 . S
Gd1008 O1053 2.606 . S
Gd1008 O1055 2.429 . S
Gd1008 O1056 2.545 . S
Gd1008 O1057 2.412 . S
Gd1008 O1059 2.362 1_554 S
Gd1008 O1060 2.324 . S
Gd1008 C1067 2.828 . S
Gd1009 N1018 2.661 . S
Gd1009 N1022 2.601 . S
Gd1009 O1053 2.362 . S
Gd1009 O1054 2.324 . S
Gd1009 O1058 2.545 . S
Gd1009 O1059 2.606 1_554 S
Gd1009 O1061 2.429 . S
Gd1009 O1062 2.545 1_554 S
Gd1009 O1063 2.412 . S
Gd1009 C1076 2.828 . S
C1010 C1013 1.417 . S
C1010 C1015 1.431 . S
C1010 C1016 1.412 . S
C1011 C1014 1.437 . S
C1011 C1015 1.317 . S
C1011 H1030 0.929 . S
C1012 C1013 1.426 . S
C1012 C1014 1.413 . S
C1012 N1022 1.359 . S
C1013 C1010 1.417 . S
C1013 C1012 1.426 . S
C1013 N1018 1.350 . S
C1014 C1011 1.437 . S
C1014 C1012 1.413 . S
C1014 C1024 1.391 . S
C1015 C1010 1.431 . S
C1015 C1011 1.317 . S
C1015 H1026 0.930 . S
C1016 C1010 1.412 . S
C1016 C1017 1.355 . S
C1016 H1028 0.930 . S
C1017 C1016 1.355 . S
C1017 C1019 1.402 . S
C1017 H1029 0.930 . S
N1018 Gd1009 2.661 . S
N1018 C1013 1.350 . S
N1018 C1019 1.307 . S
C1019 C1017 1.402 . S
C1019 N1018 1.307 . S
C1019 H1020 0.930 . S
H1020 C1019 0.930 . S
C1021 N1022 1.334 . S
C1021 C1023 1.394 . S
C1021 H1025 0.930 . S
N1022 Gd1009 2.601 . S
N1022 C1012 1.359 . S
N1022 C1021 1.334 . S
C1023 C1021 1.394 . S
C1023 C1024 1.359 . S
C1023 H1035 0.930 . S
C1024 C1014 1.391 . S
C1024 C1023 1.359 . S
C1024 H1036 0.929 . S
H1025 C1021 0.930 . S
H1026 C1015 0.930 . S
H1027 C1044 0.930 . S
H1028 C1016 0.930 . S
H1029 C1017 0.930 . S
H1030 C1011 0.929 . S
H1031 C1049 0.930 . S
H1032 C1040 0.930 . S
H1033 C1041 0.930 . S
H1034 C1065 0.929 . S
H1035 C1023 0.930 . S
H1036 C1024 0.929 . S
H1037 C1066 0.930 . S
H1038 C1047 0.930 . S
N1039 Gd1008 2.661 1_556 S
N1039 C1043 1.350 . S
N1039 C1044 1.307 . S
C1040 H1032 0.930 . S
C1040 C1041 1.355 . S
C1040 C1042 1.412 . S
C1041 H1033 0.930 . S
C1041 C1040 1.355 . S
C1041 C1044 1.402 . S
C1042 C1040 1.412 . S
C1042 C1043 1.417 . S
C1042 C1066 1.431 . S
C1043 N1039 1.350 . S
C1043 C1042 1.417 . S
C1043 C1046 1.426 . S
C1044 H1027 0.930 . S
C1044 N1039 1.307 . S
C1044 C1041 1.402 . S
N1045 Gd1008 2.601 1_556 S
N1045 C1046 1.359 . S
N1045 C1049 1.334 . S
C1046 C1043 1.426 . S
C1046 N1045 1.359 . S
C1046 C1050 1.413 . S
C1047 H1038 0.930 . S
C1047 C1048 1.359 . S
C1047 C1049 1.394 . S
C1048 C1047 1.359 . S
C1048 C1050 1.391 . S
C1048 H1051 0.929 . S
C1049 H1031 0.930 . S
C1049 N1045 1.334 . S
C1049 C1047 1.394 . S
C1050 C1046 1.413 . S
C1050 C1048 1.391 . S
C1050 C1065 1.437 . S
H1051 C1048 0.929 . S
O1052 Gd1008 2.545 . S
O1052 C1067 1.258 . S
O1053 Gd1008 2.606 . S
O1053 Gd1009 2.362 . S
O1053 C1064 1.284 . S
O1054 Gd1009 2.324 . S
O1054 C1074 1.254 . S
O1055 Gd1008 2.429 . S
O1055 C1074 1.268 . S
O1056 Gd1008 2.545 . S
O1056 C1064 1.250 . S
O1057 Gd1008 2.412 . S
O1057 C1067 1.252 . S
O1058 Gd1009 2.545 . S
O1058 C1076 1.258 . S
O1059 Gd1008 2.362 1_556 S
O1059 Gd1009 2.606 1_556 S
O1059 C1075 1.284 . S
O1060 Gd1008 2.324 . S
O1060 C1083 1.254 . S
O1061 Gd1009 2.429 . S
O1061 C1083 1.268 . S
O1062 Gd1009 2.545 1_556 S
O1062 C1075 1.250 . S
O1063 Gd1009 2.412 . S
O1063 C1076 1.252 . S
C1064 O1053 1.284 . S
C1064 O1056 1.250 . S
C1065 H1034 0.929 . S
C1065 C1050 1.437 . S
C1065 C1066 1.317 . S
C1066 H1037 0.930 . S
C1066 C1042 1.431 . S
C1066 C1065 1.317 . S
C1067 Gd1008 2.828 . S
C1067 O1052 1.258 . S
C1067 O1057 1.252 . S
C1067 C1068 1.497 . S
C1068 C1067 1.497 . S
C1068 C1069 1.395 . S
C1068 C1070 1.380 . S
C1069 C1068 1.395 . S
C1069 C1072 1.398 . S
C1069 H1084 0.930 . S
C1070 C1068 1.380 . S
C1070 C1071 1.391 . S
C1070 H1085 0.930 . S
C1071 C1070 1.391 . S
C1071 C1073 1.387 . S
C1072 C1069 1.398 . S
C1072 C1073 1.380 . S
C1072 H1086 0.930 . S
C1073 C1071 1.387 . S
C1073 C1072 1.380 . S
C1073 H1087 0.930 . S
C1074 O1054 1.254 . S
C1074 O1055 1.268 . S
C1075 O1059 1.284 . S
C1075 O1062 1.250 . S
C1076 Gd1009 2.828 . S
C1076 O1058 1.258 . S
C1076 O1063 1.252 . S
C1076 C1077 1.497 . S
C1077 C1076 1.497 . S
C1077 C1078 1.395 . S
C1077 C1079 1.380 . S
C1078 C1077 1.395 . S
C1078 C1081 1.398 . S
C1078 H1088 0.930 . S
C1079 C1077 1.380 . S
C1079 C1080 1.391 1_554 S
C1079 H1089 0.930 1_554 S
C1080 C1079 1.391 1_556 S
C1080 C1082 1.387 1_556 S
C1081 C1078 1.398 . S
C1081 C1082 1.380 . S
C1081 H1090 0.930 . S
C1082 C1080 1.387 1_554 S
C1082 C1081 1.380 . S
C1082 H1091 0.930 . S
C1083 O1060 1.254 . S
C1083 O1061 1.268 . S
H1084 C1069 0.930 . S
H1085 C1070 0.930 . S
H1086 C1072 0.930 . S
H1087 C1073 0.930 . S
H1088 C1078 0.930 . S
H1089 C1079 0.930 1_556 S
H1090 C1081 0.930 . S
H1091 C1082 0.930 . S
Gd1092 N1123 2.661 . S
Gd1092 N1129 2.601 . S
Gd1092 O1136 2.545 . S
Gd1092 O1137 2.606 . S
Gd1092 O1139 2.429 . S
Gd1092 O1140 2.545 . S
Gd1092 O1141 2.412 . S
Gd1092 O1143 2.362 . S
Gd1092 O1144 2.324 . S
Gd1092 C1151 2.828 . S
Gd1093 N1102 2.661 . S
Gd1093 N1106 2.601 . S
Gd1093 O1137 2.362 . S
Gd1093 O1138 2.324 . S
Gd1093 O1142 2.545 . S
Gd1093 O1143 2.606 . S
Gd1093 O1145 2.429 . S
Gd1093 O1146 2.545 . S
Gd1093 O1147 2.412 . S
Gd1093 C1160 2.828 . S
C1094 C1097 1.417 . S
C1094 C1099 1.431 . S
C1094 C1100 1.412 . S
C1095 C1098 1.437 . S
C1095 C1099 1.317 . S
C1095 H1114 0.929 . S
C1096 C1097 1.426 . S
C1096 C1098 1.413 . S
C1096 N1106 1.359 . S
C1097 C1094 1.417 . S
C1097 C1096 1.426 . S
C1097 N1102 1.350 . S
C1098 C1095 1.437 . S
C1098 C1096 1.413 . S
C1098 C1108 1.391 . S
C1099 C1094 1.431 . S
C1099 C1095 1.317 . S
C1099 H1110 0.930 . S
C1100 C1094 1.412 . S
C1100 C1101 1.355 . S
C1100 H1112 0.930 . S
C1101 C1100 1.355 . S
C1101 C1103 1.402 . S
C1101 H1113 0.930 . S
N1102 Gd1093 2.661 . S
N1102 C1097 1.350 . S
N1102 C1103 1.307 . S
C1103 C1101 1.402 . S
C1103 N1102 1.307 . S
C1103 H1104 0.930 . S
H1104 C1103 0.930 . S
C1105 N1106 1.334 . S
C1105 C1107 1.394 . S
C1105 H1109 0.930 . S
N1106 Gd1093 2.601 . S
N1106 C1096 1.359 . S
N1106 C1105 1.334 . S
C1107 C1105 1.394 . S
C1107 C1108 1.359 . S
C1107 H1119 0.930 . S
C1108 C1098 1.391 . S
C1108 C1107 1.359 . S
C1108 H1120 0.929 . S
H1109 C1105 0.930 . S
H1110 C1099 0.930 . S
H1111 C1128 0.930 . S
H1112 C1100 0.930 . S
H1113 C1101 0.930 . S
H1114 C1095 0.929 . S
H1115 C1133 0.930 . S
H1116 C1124 0.930 . S
H1117 C1125 0.930 . S
H1118 C1149 0.929 . S
H1119 C1107 0.930 . S
H1120 C1108 0.929 . S
H1121 C1150 0.930 . S
H1122 C1131 0.930 . S
N1123 Gd1092 2.661 . S
N1123 C1127 1.350 . S
N1123 C1128 1.307 . S
C1124 H1116 0.930 . S
C1124 C1125 1.355 . S
C1124 C1126 1.412 . S
C1125 H1117 0.930 . S
C1125 C1124 1.355 . S
C1125 C1128 1.402 . S
C1126 C1124 1.412 . S
C1126 C1127 1.417 . S
C1126 C1150 1.431 . S
C1127 N1123 1.350 . S
C1127 C1126 1.417 . S
C1127 C1130 1.426 . S
C1128 H1111 0.930 . S
C1128 N1123 1.307 . S
C1128 C1125 1.402 . S
N1129 Gd1092 2.601 . S
N1129 C1130 1.359 . S
N1129 C1133 1.334 . S
C1130 C1127 1.426 . S
C1130 N1129 1.359 . S
C1130 C1134 1.413 . S
C1131 H1122 0.930 . S
C1131 C1132 1.359 . S
C1131 C1133 1.394 . S
C1132 C1131 1.359 . S
C1132 C1134 1.391 . S
C1132 H1135 0.929 . S
C1133 H1115 0.930 . S
C1133 N1129 1.334 . S
C1133 C1131 1.394 . S
C1134 C1130 1.413 . S
C1134 C1132 1.391 . S
C1134 C1149 1.437 . S
H1135 C1132 0.929 . S
O1136 Gd1092 2.545 . S
O1136 C1151 1.258 . S
O1137 Gd1092 2.606 . S
O1137 Gd1093 2.362 . S
O1137 C1148 1.284 . S
O1138 Gd1093 2.324 . S
O1138 C1158 1.254 . S
O1139 Gd1092 2.429 . S
O1139 C1158 1.268 . S
O1140 Gd1092 2.545 . S
O1140 C1148 1.250 . S
O1141 Gd1092 2.412 . S
O1141 C1151 1.252 . S
O1142 Gd1093 2.545 . S
O1142 C1160 1.258 . S
O1143 Gd1092 2.362 . S
O1143 Gd1093 2.606 . S
O1143 C1159 1.284 . S
O1144 Gd1092 2.324 . S
O1144 C1167 1.254 . S
O1145 Gd1093 2.429 . S
O1145 C1167 1.268 . S
O1146 Gd1093 2.545 . S
O1146 C1159 1.250 . S
O1147 Gd1093 2.412 . S
O1147 C1160 1.252 . S
C1148 O1137 1.284 . S
C1148 O1140 1.250 . S
C1149 H1118 0.929 . S
C1149 C1134 1.437 . S
C1149 C1150 1.317 . S
C1150 H1121 0.930 . S
C1150 C1126 1.431 . S
C1150 C1149 1.317 . S
C1151 Gd1092 2.828 . S
C1151 O1136 1.258 . S
C1151 O1141 1.252 . S
C1151 C1152 1.497 . S
C1152 C1151 1.497 . S
C1152 C1153 1.395 . S
C1152 C1154 1.380 . S
C1153 C1152 1.395 . S
C1153 C1156 1.398 . S
C1153 H1168 0.930 . S
C1154 C1152 1.380 . S
C1154 C1155 1.391 . S
C1154 H1169 0.930 . S
C1155 C1154 1.391 . S
C1155 C1157 1.387 . S
C1156 C1153 1.398 . S
C1156 C1157 1.380 . S
C1156 H1170 0.930 . S
C1157 C1155 1.387 . S
C1157 C1156 1.380 . S
C1157 H1171 0.930 . S
C1158 O1138 1.254 . S
C1158 O1139 1.268 . S
C1159 O1143 1.284 . S
C1159 O1146 1.250 . S
C1160 Gd1093 2.828 . S
C1160 O1142 1.258 . S
C1160 O1147 1.252 . S
C1160 C1161 1.497 . S
C1161 C1160 1.497 . S
C1161 C1162 1.395 . S
C1161 C1163 1.380 . S
C1162 C1161 1.395 . S
C1162 C1165 1.398 . S
C1162 H1172 0.930 . S
C1163 C1161 1.380 . S
C1163 C1164 1.391 . S
C1163 H1173 0.930 . S
C1164 C1163 1.391 . S
C1164 C1166 1.387 . S
C1165 C1162 1.398 . S
C1165 C1166 1.380 . S
C1165 H1174 0.930 . S
C1166 C1164 1.387 . S
C1166 C1165 1.380 . S
C1166 H1175 0.930 . S
C1167 O1144 1.254 . S
C1167 O1145 1.268 . S
H1168 C1153 0.930 . S
H1169 C1154 0.930 . S
H1170 C1156 0.930 . S
H1171 C1157 0.930 . S
H1172 C1162 0.930 . S
H1173 C1163 0.930 . S
H1174 C1165 0.930 . S
H1175 C1166 0.930 . S
Gd1176 N1207 2.661 . S
Gd1176 N1213 2.601 . S
Gd1176 O1220 2.545 . S
Gd1176 O1221 2.606 . S
Gd1176 O1223 2.429 . S
Gd1176 O1224 2.545 . S
Gd1176 O1225 2.412 . S
Gd1176 O1227 2.362 . S
Gd1176 O1228 2.324 . S
Gd1176 C1235 2.828 . S
Gd1177 N1186 2.661 . S
Gd1177 N1190 2.601 . S
Gd1177 O1221 2.362 . S
Gd1177 O1222 2.324 . S
Gd1177 O1226 2.545 . S
Gd1177 O1227 2.606 . S
Gd1177 O1229 2.429 . S
Gd1177 O1230 2.545 . S
Gd1177 O1231 2.412 . S
Gd1177 C1244 2.828 . S
C1178 C1181 1.417 . S
C1178 C1183 1.431 . S
C1178 C1184 1.412 . S
C1179 C1182 1.437 . S
C1179 C1183 1.317 . S
C1179 H1198 0.929 . S
C1180 C1181 1.426 . S
C1180 C1182 1.413 . S
C1180 N1190 1.359 . S
C1181 C1178 1.417 . S
C1181 C1180 1.426 . S
C1181 N1186 1.350 . S
C1182 C1179 1.437 . S
C1182 C1180 1.413 . S
C1182 C1192 1.391 . S
C1183 C1178 1.431 . S
C1183 C1179 1.317 . S
C1183 H1194 0.930 . S
C1184 C1178 1.412 . S
C1184 C1185 1.355 . S
C1184 H1196 0.930 . S
C1185 C1184 1.355 . S
C1185 C1187 1.402 . S
C1185 H1197 0.930 . S
N1186 Gd1177 2.661 . S
N1186 C1181 1.350 . S
N1186 C1187 1.307 . S
C1187 C1185 1.402 . S
C1187 N1186 1.307 . S
C1187 H1188 0.930 . S
H1188 C1187 0.930 . S
C1189 N1190 1.334 . S
C1189 C1191 1.394 . S
C1189 H1193 0.930 . S
N1190 Gd1177 2.601 . S
N1190 C1180 1.359 . S
N1190 C1189 1.334 . S
C1191 C1189 1.394 . S
C1191 C1192 1.359 . S
C1191 H1203 0.930 . S
C1192 C1182 1.391 . S
C1192 C1191 1.359 . S
C1192 H1204 0.929 . S
H1193 C1189 0.930 . S
H1194 C1183 0.930 . S
H1195 C1212 0.930 . S
H1196 C1184 0.930 . S
H1197 C1185 0.930 . S
H1198 C1179 0.929 . S
H1199 C1217 0.930 . S
H1200 C1208 0.930 . S
H1201 C1209 0.930 . S
H1202 C1233 0.929 . S
H1203 C1191 0.930 . S
H1204 C1192 0.929 . S
H1205 C1234 0.930 . S
H1206 C1215 0.930 . S
N1207 Gd1176 2.661 . S
N1207 C1211 1.350 . S
N1207 C1212 1.307 . S
C1208 H1200 0.930 . S
C1208 C1209 1.355 . S
C1208 C1210 1.412 . S
C1209 H1201 0.930 . S
C1209 C1208 1.355 . S
C1209 C1212 1.402 1_655 S
C1210 C1208 1.412 . S
C1210 C1211 1.417 1_655 S
C1210 C1234 1.431 . S
C1211 N1207 1.350 . S
C1211 C1210 1.417 1_455 S
C1211 C1214 1.426 . S
C1212 H1195 0.930 . S
C1212 N1207 1.307 . S
C1212 C1209 1.402 1_455 S
N1213 Gd1176 2.601 . S
N1213 C1214 1.359 . S
N1213 C1217 1.334 . S
C1214 C1211 1.426 . S
C1214 N1213 1.359 . S
C1214 C1218 1.413 1_455 S
C1215 H1206 0.930 . S
C1215 C1216 1.359 1_455 S
C1215 C1217 1.394 . S
C1216 C1215 1.359 1_655 S
C1216 C1218 1.391 . S
C1216 H1219 0.929 . S
C1217 H1199 0.930 . S
C1217 N1213 1.334 . S
C1217 C1215 1.394 . S
C1218 C1214 1.413 1_655 S
C1218 C1216 1.391 . S
C1218 C1233 1.437 . S
H1219 C1216 0.929 . S
O1220 Gd1176 2.545 . S
O1220 C1235 1.258 . S
O1221 Gd1176 2.606 . S
O1221 Gd1177 2.362 . S
O1221 C1232 1.284 . S
O1222 Gd1177 2.324 . S
O1222 C1242 1.254 . S
O1223 Gd1176 2.429 . S
O1223 C1242 1.268 . S
O1224 Gd1176 2.545 . S
O1224 C1232 1.250 . S
O1225 Gd1176 2.412 . S
O1225 C1235 1.252 . S
O1226 Gd1177 2.545 . S
O1226 C1244 1.258 . S
O1227 Gd1176 2.362 . S
O1227 Gd1177 2.606 . S
O1227 C1243 1.284 . S
O1228 Gd1176 2.324 . S
O1228 C1251 1.254 . S
O1229 Gd1177 2.429 . S
O1229 C1251 1.268 . S
O1230 Gd1177 2.545 . S
O1230 C1243 1.250 . S
O1231 Gd1177 2.412 . S
O1231 C1244 1.252 . S
C1232 O1221 1.284 . S
C1232 O1224 1.250 . S
C1233 H1202 0.929 . S
C1233 C1218 1.437 . S
C1233 C1234 1.317 . S
C1234 H1205 0.930 . S
C1234 C1210 1.431 . S
C1234 C1233 1.317 . S
C1235 Gd1176 2.828 . S
C1235 O1220 1.258 . S
C1235 O1225 1.252 . S
C1235 C1236 1.497 . S
C1236 C1235 1.497 . S
C1236 C1237 1.395 . S
C1236 C1238 1.380 . S
C1237 C1236 1.395 . S
C1237 C1240 1.398 . S
C1237 H1252 0.930 . S
C1238 C1236 1.380 . S
C1238 C1239 1.391 . S
C1238 H1253 0.930 . S
C1239 C1238 1.391 . S
C1239 C1241 1.387 . S
C1240 C1237 1.398 . S
C1240 C1241 1.380 . S
C1240 H1254 0.930 . S
C1241 C1239 1.387 . S
C1241 C1240 1.380 . S
C1241 H1255 0.930 . S
C1242 O1222 1.254 . S
C1242 O1223 1.268 . S
C1243 O1227 1.284 . S
C1243 O1230 1.250 . S
C1244 Gd1177 2.828 . S
C1244 O1226 1.258 . S
C1244 O1231 1.252 . S
C1244 C1245 1.497 . S
C1245 C1244 1.497 . S
C1245 C1246 1.395 . S
C1245 C1247 1.380 . S
C1246 C1245 1.395 . S
C1246 C1249 1.398 . S
C1246 H1256 0.930 . S
C1247 C1245 1.380 . S
C1247 C1248 1.391 . S
C1247 H1257 0.930 . S
C1248 C1247 1.391 . S
C1248 C1250 1.387 . S
C1249 C1246 1.398 . S
C1249 C1250 1.380 . S
C1249 H1258 0.930 . S
C1250 C1248 1.387 . S
C1250 C1249 1.380 . S
C1250 H1259 0.930 . S
C1251 O1228 1.254 . S
C1251 O1229 1.268 . S
H1252 C1237 0.930 . S
H1253 C1238 0.930 . S
H1254 C1240 0.930 . S
H1255 C1241 0.930 . S
H1256 C1246 0.930 . S
H1257 C1247 0.930 . S
H1258 C1249 0.930 . S
H1259 C1250 0.930 . S
Gd1260 N1291 2.661 . S
Gd1260 N1297 2.601 . S
Gd1260 O1304 2.545 . S
Gd1260 O1305 2.606 . S
Gd1260 O1307 2.429 . S
Gd1260 O1308 2.545 . S
Gd1260 O1309 2.412 . S
Gd1260 O1311 2.362 . S
Gd1260 O1312 2.324 . S
Gd1260 C1319 2.828 . S
Gd1261 N1270 2.661 . S
Gd1261 N1274 2.601 . S
Gd1261 O1305 2.362 . S
Gd1261 O1306 2.324 . S
Gd1261 O1310 2.545 . S
Gd1261 O1311 2.606 . S
Gd1261 O1313 2.429 . S
Gd1261 O1314 2.545 . S
Gd1261 O1315 2.412 . S
Gd1261 C1328 2.828 . S
C1262 C1265 1.417 . S
C1262 C1267 1.431 . S
C1262 C1268 1.412 . S
C1263 C1266 1.437 . S
C1263 C1267 1.317 . S
C1263 H1282 0.929 . S
C1264 C1265 1.426 . S
C1264 C1266 1.413 . S
C1264 N1274 1.359 . S
C1265 C1262 1.417 . S
C1265 C1264 1.426 . S
C1265 N1270 1.350 . S
C1266 C1263 1.437 . S
C1266 C1264 1.413 . S
C1266 C1276 1.391 . S
C1267 C1262 1.431 . S
C1267 C1263 1.317 . S
C1267 H1278 0.930 . S
C1268 C1262 1.412 . S
C1268 C1269 1.355 . S
C1268 H1280 0.930 . S
C1269 C1268 1.355 . S
C1269 C1271 1.402 . S
C1269 H1281 0.930 . S
N1270 Gd1261 2.661 . S
N1270 C1265 1.350 . S
N1270 C1271 1.307 . S
C1271 C1269 1.402 . S
C1271 N1270 1.307 . S
C1271 H1272 0.930 . S
H1272 C1271 0.930 . S
C1273 N1274 1.334 . S
C1273 C1275 1.394 . S
C1273 H1277 0.930 . S
N1274 Gd1261 2.601 . S
N1274 C1264 1.359 . S
N1274 C1273 1.334 . S
C1275 C1273 1.394 . S
C1275 C1276 1.359 . S
C1275 H1287 0.930 . S
C1276 C1266 1.391 . S
C1276 C1275 1.359 . S
C1276 H1288 0.929 . S
H1277 C1273 0.930 . S
H1278 C1267 0.930 . S
H1279 C1296 0.930 . S
H1280 C1268 0.930 . S
H1281 C1269 0.930 . S
H1282 C1263 0.929 . S
H1283 C1301 0.930 . S
H1284 C1292 0.930 . S
H1285 C1293 0.930 . S
H1286 C1317 0.929 . S
H1287 C1275 0.930 . S
H1288 C1276 0.929 . S
H1289 C1318 0.930 . S
H1290 C1299 0.930 . S
N1291 Gd1260 2.661 . S
N1291 C1295 1.350 . S
N1291 C1296 1.307 . S
C1292 H1284 0.930 . S
C1292 C1293 1.355 . S
C1292 C1294 1.412 . S
C1293 H1285 0.930 . S
C1293 C1292 1.355 . S
C1293 C1296 1.402 . S
C1294 C1292 1.412 . S
C1294 C1295 1.417 . S
C1294 C1318 1.431 . S
C1295 N1291 1.350 . S
C1295 C1294 1.417 . S
C1295 C1298 1.426 . S
C1296 H1279 0.930 . S
C1296 N1291 1.307 . S
C1296 C1293 1.402 . S
N1297 Gd1260 2.601 . S
N1297 C1298 1.359 . S
N1297 C1301 1.334 . S
C1298 C1295 1.426 . S
C1298 N1297 1.359 . S
C1298 C1302 1.413 . S
C1299 H1290 0.930 . S
C1299 C1300 1.359 . S
C1299 C1301 1.394 . S
C1300 C1299 1.359 . S
C1300 C1302 1.391 . S
C1300 H1303 0.929 . S
C1301 H1283 0.930 . S
C1301 N1297 1.334 . S
C1301 C1299 1.394 . S
C1302 C1298 1.413 . S
C1302 C1300 1.391 . S
C1302 C1317 1.437 . S
H1303 C1300 0.929 . S
O1304 Gd1260 2.545 . S
O1304 C1319 1.258 . S
O1305 Gd1260 2.606 . S
O1305 Gd1261 2.362 . S
O1305 C1316 1.284 . S
O1306 Gd1261 2.324 . S
O1306 C1326 1.254 . S
O1307 Gd1260 2.429 . S
O1307 C1326 1.268 . S
O1308 Gd1260 2.545 . S
O1308 C1316 1.250 . S
O1309 Gd1260 2.412 . S
O1309 C1319 1.252 . S
O1310 Gd1261 2.545 . S
O1310 C1328 1.258 . S
O1311 Gd1260 2.362 . S
O1311 Gd1261 2.606 . S
O1311 C1327 1.284 . S
O1312 Gd1260 2.324 . S
O1312 C1335 1.254 . S
O1313 Gd1261 2.429 . S
O1313 C1335 1.268 . S
O1314 Gd1261 2.545 . S
O1314 C1327 1.250 . S
O1315 Gd1261 2.412 . S
O1315 C1328 1.252 . S
C1316 O1305 1.284 . S
C1316 O1308 1.250 . S
C1317 H1286 0.929 . S
C1317 C1302 1.437 . S
C1317 C1318 1.317 . S
C1318 H1289 0.930 . S
C1318 C1294 1.431 . S
C1318 C1317 1.317 . S
C1319 Gd1260 2.828 . S
C1319 O1304 1.258 . S
C1319 O1309 1.252 . S
C1319 C1320 1.497 . S
C1320 C1319 1.497 . S
C1320 C1321 1.395 . S
C1320 C1322 1.380 . S
C1321 C1320 1.395 . S
C1321 C1324 1.398 . S
C1321 H1336 0.930 . S
C1322 C1320 1.380 . S
C1322 C1323 1.391 . S
C1322 H1337 0.930 . S
C1323 C1322 1.391 . S
C1323 C1325 1.387 . S
C1324 C1321 1.398 . S
C1324 C1325 1.380 . S
C1324 H1338 0.930 . S
C1325 C1323 1.387 . S
C1325 C1324 1.380 . S
C1325 H1339 0.930 . S
C1326 O1306 1.254 . S
C1326 O1307 1.268 . S
C1327 O1311 1.284 . S
C1327 O1314 1.250 . S
C1328 Gd1261 2.828 . S
C1328 O1310 1.258 . S
C1328 O1315 1.252 . S
C1328 C1329 1.497 . S
C1329 C1328 1.497 . S
C1329 C1330 1.395 . S
C1329 C1331 1.380 . S
C1330 C1329 1.395 . S
C1330 C1333 1.398 . S
C1330 H1340 0.930 . S
C1331 C1329 1.380 . S
C1331 C1332 1.391 . S
C1331 H1341 0.930 . S
C1332 C1331 1.391 . S
C1332 C1334 1.387 . S
C1333 C1330 1.398 . S
C1333 C1334 1.380 . S
C1333 H1342 0.930 . S
C1334 C1332 1.387 . S
C1334 C1333 1.380 . S
C1334 H1343 0.930 . S
C1335 O1312 1.254 . S
C1335 O1313 1.268 . S
H1336 C1321 0.930 . S
H1337 C1322 0.930 . S
H1338 C1324 0.930 . S
H1339 C1325 0.930 . S
H1340 C1330 0.930 . S
H1341 C1331 0.930 . S
H1342 C1333 0.930 . S
H1343 C1334 0.930 . S
Gd1344 N1375 2.661 . S
Gd1344 N1381 2.601 . S
Gd1344 O1388 2.545 . S
Gd1344 O1389 2.606 . S
Gd1344 O1391 2.429 . S
Gd1344 O1392 2.545 . S
Gd1344 O1393 2.412 . S
Gd1344 O1395 2.362 . S
Gd1344 O1396 2.324 . S
Gd1344 C1403 2.828 . S
Gd1345 N1354 2.661 . S
Gd1345 N1358 2.601 . S
Gd1345 O1389 2.362 . S
Gd1345 O1390 2.324 . S
Gd1345 O1394 2.545 . S
Gd1345 O1395 2.606 . S
Gd1345 O1397 2.429 . S
Gd1345 O1398 2.545 . S
Gd1345 O1399 2.412 . S
Gd1345 C1412 2.828 . S
C1346 C1349 1.417 . S
C1346 C1351 1.431 . S
C1346 C1352 1.412 . S
C1347 C1350 1.437 . S
C1347 C1351 1.317 . S
C1347 H1366 0.929 . S
C1348 C1349 1.426 . S
C1348 C1350 1.413 . S
C1348 N1358 1.359 . S
C1349 C1346 1.417 . S
C1349 C1348 1.426 . S
C1349 N1354 1.350 . S
C1350 C1347 1.437 . S
C1350 C1348 1.413 . S
C1350 C1360 1.391 . S
C1351 C1346 1.431 . S
C1351 C1347 1.317 . S
C1351 H1362 0.930 . S
C1352 C1346 1.412 . S
C1352 C1353 1.355 . S
C1352 H1364 0.930 . S
C1353 C1352 1.355 . S
C1353 C1355 1.402 . S
C1353 H1365 0.930 . S
N1354 Gd1345 2.661 . S
N1354 C1349 1.350 . S
N1354 C1355 1.307 . S
C1355 C1353 1.402 . S
C1355 N1354 1.307 . S
C1355 H1356 0.930 . S
H1356 C1355 0.930 . S
C1357 N1358 1.334 . S
C1357 C1359 1.394 . S
C1357 H1361 0.930 . S
N1358 Gd1345 2.601 . S
N1358 C1348 1.359 . S
N1358 C1357 1.334 . S
C1359 C1357 1.394 . S
C1359 C1360 1.359 . S
C1359 H1371 0.930 . S
C1360 C1350 1.391 . S
C1360 C1359 1.359 . S
C1360 H1372 0.929 . S
H1361 C1357 0.930 . S
H1362 C1351 0.930 . S
H1363 C1380 0.930 . S
H1364 C1352 0.930 . S
H1365 C1353 0.930 . S
H1366 C1347 0.929 . S
H1367 C1385 0.930 . S
H1368 C1376 0.930 . S
H1369 C1377 0.930 . S
H1370 C1401 0.929 . S
H1371 C1359 0.930 . S
H1372 C1360 0.929 . S
H1373 C1402 0.930 . S
H1374 C1383 0.930 . S
N1375 Gd1344 2.661 . S
N1375 C1379 1.350 . S
N1375 C1380 1.307 . S
C1376 H1368 0.930 . S
C1376 C1377 1.355 . S
C1376 C1378 1.412 . S
C1377 H1369 0.930 . S
C1377 C1376 1.355 . S
C1377 C1380 1.402 . S
C1378 C1376 1.412 . S
C1378 C1379 1.417 . S
C1378 C1402 1.431 . S
C1379 N1375 1.350 . S
C1379 C1378 1.417 . S
C1379 C1382 1.426 . S
C1380 H1363 0.930 . S
C1380 N1375 1.307 . S
C1380 C1377 1.402 . S
N1381 Gd1344 2.601 . S
N1381 C1382 1.359 . S
N1381 C1385 1.334 . S
C1382 C1379 1.426 . S
C1382 N1381 1.359 . S
C1382 C1386 1.413 . S
C1383 H1374 0.930 . S
C1383 C1384 1.359 . S
C1383 C1385 1.394 . S
C1384 C1383 1.359 . S
C1384 C1386 1.391 . S
C1384 H1387 0.929 . S
C1385 H1367 0.930 . S
C1385 N1381 1.334 . S
C1385 C1383 1.394 . S
C1386 C1382 1.413 . S
C1386 C1384 1.391 . S
C1386 C1401 1.437 . S
H1387 C1384 0.929 . S
O1388 Gd1344 2.545 . S
O1388 C1403 1.258 . S
O1389 Gd1344 2.606 . S
O1389 Gd1345 2.362 . S
O1389 C1400 1.284 . S
O1390 Gd1345 2.324 . S
O1390 C1410 1.254 . S
O1391 Gd1344 2.429 . S
O1391 C1410 1.268 . S
O1392 Gd1344 2.545 . S
O1392 C1400 1.250 . S
O1393 Gd1344 2.412 . S
O1393 C1403 1.252 . S
O1394 Gd1345 2.545 . S
O1394 C1412 1.258 . S
O1395 Gd1344 2.362 . S
O1395 Gd1345 2.606 . S
O1395 C1411 1.284 . S
O1396 Gd1344 2.324 . S
O1396 C1419 1.254 . S
O1397 Gd1345 2.429 . S
O1397 C1419 1.268 . S
O1398 Gd1345 2.545 . S
O1398 C1411 1.250 . S
O1399 Gd1345 2.412 . S
O1399 C1412 1.252 . S
C1400 O1389 1.284 . S
C1400 O1392 1.250 . S
C1401 H1370 0.929 . S
C1401 C1386 1.437 . S
C1401 C1402 1.317 . S
C1402 H1373 0.930 . S
C1402 C1378 1.431 . S
C1402 C1401 1.317 . S
C1403 Gd1344 2.828 . S
C1403 O1388 1.258 . S
C1403 O1393 1.252 . S
C1403 C1404 1.497 . S
C1404 C1403 1.497 . S
C1404 C1405 1.395 . S
C1404 C1406 1.380 . S
C1405 C1404 1.395 . S
C1405 C1408 1.398 . S
C1405 H1420 0.930 . S
C1406 C1404 1.380 . S
C1406 C1407 1.391 . S
C1406 H1421 0.930 . S
C1407 C1406 1.391 . S
C1407 C1409 1.387 . S
C1408 C1405 1.398 . S
C1408 C1409 1.380 . S
C1408 H1422 0.930 . S
C1409 C1407 1.387 . S
C1409 C1408 1.380 . S
C1409 H1423 0.930 . S
C1410 O1390 1.254 . S
C1410 O1391 1.268 . S
C1411 O1395 1.284 . S
C1411 O1398 1.250 . S
C1412 Gd1345 2.828 . S
C1412 O1394 1.258 . S
C1412 O1399 1.252 . S
C1412 C1413 1.497 . S
C1413 C1412 1.497 . S
C1413 C1414 1.395 . S
C1413 C1415 1.380 . S
C1414 C1413 1.395 . S
C1414 C1417 1.398 . S
C1414 H1424 0.930 . S
C1415 C1413 1.380 . S
C1415 C1416 1.391 . S
C1415 H1425 0.930 . S
C1416 C1415 1.391 . S
C1416 C1418 1.387 . S
C1417 C1414 1.398 . S
C1417 C1418 1.380 . S
C1417 H1426 0.930 . S
C1418 C1416 1.387 . S
C1418 C1417 1.380 . S
C1418 H1427 0.930 . S
C1419 O1396 1.254 . S
C1419 O1397 1.268 . S
H1420 C1405 0.930 . S
H1421 C1406 0.930 . S
H1422 C1408 0.930 . S
H1423 C1409 0.930 . S
H1424 C1414 0.930 . S
H1425 C1415 0.930 . S
H1426 C1417 0.930 . S
H1427 C1418 0.930 . S
Gd1428 N1459 2.661 . S
Gd1428 N1465 2.601 . S
Gd1428 O1472 2.545 . S
Gd1428 O1473 2.606 . S
Gd1428 O1475 2.429 . S
Gd1428 O1476 2.545 . S
Gd1428 O1477 2.412 . S
Gd1428 O1479 2.362 . S
Gd1428 O1480 2.324 . S
Gd1428 C1487 2.828 . S
Gd1429 N1438 2.661 . S
Gd1429 N1442 2.601 . S
Gd1429 O1473 2.362 . S
Gd1429 O1474 2.324 . S
Gd1429 O1478 2.545 . S
Gd1429 O1479 2.606 . S
Gd1429 O1481 2.429 . S
Gd1429 O1482 2.545 . S
Gd1429 O1483 2.412 . S
Gd1429 C1496 2.828 . S
C1430 C1433 1.417 . S
C1430 C1435 1.431 . S
C1430 C1436 1.412 . S
C1431 C1434 1.437 . S
C1431 C1435 1.317 . S
C1431 H1450 0.929 . S
C1432 C1433 1.426 . S
C1432 C1434 1.413 . S
C1432 N1442 1.359 . S
C1433 C1430 1.417 . S
C1433 C1432 1.426 . S
C1433 N1438 1.350 . S
C1434 C1431 1.437 . S
C1434 C1432 1.413 . S
C1434 C1444 1.391 . S
C1435 C1430 1.431 . S
C1435 C1431 1.317 . S
C1435 H1446 0.930 . S
C1436 C1430 1.412 . S
C1436 C1437 1.355 . S
C1436 H1448 0.930 . S
C1437 C1436 1.355 . S
C1437 C1439 1.402 . S
C1437 H1449 0.930 . S
N1438 Gd1429 2.661 . S
N1438 C1433 1.350 . S
N1438 C1439 1.307 . S
C1439 C1437 1.402 . S
C1439 N1438 1.307 . S
C1439 H1440 0.930 . S
H1440 C1439 0.930 . S
C1441 N1442 1.334 . S
C1441 C1443 1.394 . S
C1441 H1445 0.930 . S
N1442 Gd1429 2.601 . S
N1442 C1432 1.359 . S
N1442 C1441 1.334 . S
C1443 C1441 1.394 . S
C1443 C1444 1.359 . S
C1443 H1455 0.930 . S
C1444 C1434 1.391 . S
C1444 C1443 1.359 . S
C1444 H1456 0.929 . S
H1445 C1441 0.930 . S
H1446 C1435 0.930 . S
H1447 C1464 0.930 . S
H1448 C1436 0.930 . S
H1449 C1437 0.930 . S
H1450 C1431 0.929 . S
H1451 C1469 0.930 . S
H1452 C1460 0.930 . S
H1453 C1461 0.930 . S
H1454 C1485 0.929 . S
H1455 C1443 0.930 . S
H1456 C1444 0.929 . S
H1457 C1486 0.930 . S
H1458 C1467 0.930 . S
N1459 Gd1428 2.661 . S
N1459 C1463 1.350 . S
N1459 C1464 1.307 . S
C1460 H1452 0.930 . S
C1460 C1461 1.355 . S
C1460 C1462 1.412 . S
C1461 H1453 0.930 . S
C1461 C1460 1.355 . S
C1461 C1464 1.402 . S
C1462 C1460 1.412 . S
C1462 C1463 1.417 . S
C1462 C1486 1.431 . S
C1463 N1459 1.350 . S
C1463 C1462 1.417 . S
C1463 C1466 1.426 . S
C1464 H1447 0.930 . S
C1464 N1459 1.307 . S
C1464 C1461 1.402 . S
N1465 Gd1428 2.601 . S
N1465 C1466 1.359 . S
N1465 C1469 1.334 . S
C1466 C1463 1.426 . S
C1466 N1465 1.359 . S
C1466 C1470 1.413 . S
C1467 H1458 0.930 . S
C1467 C1468 1.359 . S
C1467 C1469 1.394 . S
C1468 C1467 1.359 . S
C1468 C1470 1.391 . S
C1468 H1471 0.929 . S
C1469 H1451 0.930 . S
C1469 N1465 1.334 . S
C1469 C1467 1.394 . S
C1470 C1466 1.413 . S
C1470 C1468 1.391 . S
C1470 C1485 1.437 . S
H1471 C1468 0.929 . S
O1472 Gd1428 2.545 . S
O1472 C1487 1.258 . S
O1473 Gd1428 2.606 . S
O1473 Gd1429 2.362 . S
O1473 C1484 1.284 . S
O1474 Gd1429 2.324 . S
O1474 C1494 1.254 . S
O1475 Gd1428 2.429 . S
O1475 C1494 1.268 . S
O1476 Gd1428 2.545 . S
O1476 C1484 1.250 . S
O1477 Gd1428 2.412 . S
O1477 C1487 1.252 . S
O1478 Gd1429 2.545 . S
O1478 C1496 1.258 . S
O1479 Gd1428 2.362 . S
O1479 Gd1429 2.606 . S
O1479 C1495 1.284 . S
O1480 Gd1428 2.324 . S
O1480 C1503 1.254 . S
O1481 Gd1429 2.429 . S
O1481 C1503 1.268 . S
O1482 Gd1429 2.545 . S
O1482 C1495 1.250 . S
O1483 Gd1429 2.412 . S
O1483 C1496 1.252 . S
C1484 O1473 1.284 . S
C1484 O1476 1.250 . S
C1485 H1454 0.929 . S
C1485 C1470 1.437 . S
C1485 C1486 1.317 . S
C1486 H1457 0.930 . S
C1486 C1462 1.431 . S
C1486 C1485 1.317 . S
C1487 Gd1428 2.828 . S
C1487 O1472 1.258 . S
C1487 O1477 1.252 . S
C1487 C1488 1.497 . S
C1488 C1487 1.497 . S
C1488 C1489 1.395 . S
C1488 C1490 1.380 . S
C1489 C1488 1.395 . S
C1489 C1492 1.398 . S
C1489 H1504 0.930 . S
C1490 C1488 1.380 . S
C1490 C1491 1.391 . S
C1490 H1505 0.930 . S
C1491 C1490 1.391 . S
C1491 C1493 1.387 . S
C1492 C1489 1.398 . S
C1492 C1493 1.380 . S
C1492 H1506 0.930 . S
C1493 C1491 1.387 . S
C1493 C1492 1.380 . S
C1493 H1507 0.930 . S
C1494 O1474 1.254 . S
C1494 O1475 1.268 . S
C1495 O1479 1.284 . S
C1495 O1482 1.250 . S
C1496 Gd1429 2.828 . S
C1496 O1478 1.258 . S
C1496 O1483 1.252 . S
C1496 C1497 1.497 . S
C1497 C1496 1.497 . S
C1497 C1498 1.395 . S
C1497 C1499 1.380 . S
C1498 C1497 1.395 . S
C1498 C1501 1.398 . S
C1498 H1508 0.930 . S
C1499 C1497 1.380 . S
C1499 C1500 1.391 . S
C1499 H1509 0.930 . S
C1500 C1499 1.391 . S
C1500 C1502 1.387 . S
C1501 C1498 1.398 . S
C1501 C1502 1.380 . S
C1501 H1510 0.930 . S
C1502 C1500 1.387 . S
C1502 C1501 1.380 . S
C1502 H1511 0.930 . S
C1503 O1480 1.254 . S
C1503 O1481 1.268 . S
H1504 C1489 0.930 . S
H1505 C1490 0.930 . S
H1506 C1492 0.930 . S
H1507 C1493 0.930 . S
H1508 C1498 0.930 . S
H1509 C1499 0.930 . S
H1510 C1501 0.930 . S
H1511 C1502 0.930 . S
Gd1512 N1543 2.661 . S
Gd1512 N1549 2.601 . S
Gd1512 O1556 2.545 . S
Gd1512 O1557 2.606 . S
Gd1512 O1559 2.429 . S
Gd1512 O1560 2.545 . S
Gd1512 O1561 2.412 . S
Gd1512 O1563 2.362 . S
Gd1512 O1564 2.324 . S
Gd1512 C1571 2.828 . S
Gd1513 N1522 2.661 . S
Gd1513 N1526 2.601 . S
Gd1513 O1557 2.362 . S
Gd1513 O1558 2.324 . S
Gd1513 O1562 2.545 . S
Gd1513 O1563 2.606 . S
Gd1513 O1565 2.429 . S
Gd1513 O1566 2.545 . S
Gd1513 O1567 2.412 . S
Gd1513 C1580 2.828 . S
C1514 C1517 1.417 . S
C1514 C1519 1.431 . S
C1514 C1520 1.412 . S
C1515 C1518 1.437 . S
C1515 C1519 1.317 . S
C1515 H1534 0.929 . S
C1516 C1517 1.426 . S
C1516 C1518 1.413 . S
C1516 N1526 1.359 . S
C1517 C1514 1.417 . S
C1517 C1516 1.426 . S
C1517 N1522 1.350 . S
C1518 C1515 1.437 . S
C1518 C1516 1.413 . S
C1518 C1528 1.391 . S
C1519 C1514 1.431 . S
C1519 C1515 1.317 . S
C1519 H1530 0.930 . S
C1520 C1514 1.412 . S
C1520 C1521 1.355 . S
C1520 H1532 0.930 . S
C1521 C1520 1.355 . S
C1521 C1523 1.402 . S
C1521 H1533 0.930 . S
N1522 Gd1513 2.661 . S
N1522 C1517 1.350 . S
N1522 C1523 1.307 . S
C1523 C1521 1.402 . S
C1523 N1522 1.307 . S
C1523 H1524 0.930 . S
H1524 C1523 0.930 . S
C1525 N1526 1.334 . S
C1525 C1527 1.394 . S
C1525 H1529 0.930 . S
N1526 Gd1513 2.601 . S
N1526 C1516 1.359 . S
N1526 C1525 1.334 . S
C1527 C1525 1.394 . S
C1527 C1528 1.359 . S
C1527 H1539 0.930 . S
C1528 C1518 1.391 . S
C1528 C1527 1.359 . S
C1528 H1540 0.929 . S
H1529 C1525 0.930 . S
H1530 C1519 0.930 . S
H1531 C1548 0.930 . S
H1532 C1520 0.930 . S
H1533 C1521 0.930 . S
H1534 C1515 0.929 . S
H1535 C1553 0.930 . S
H1536 C1544 0.930 . S
H1537 C1545 0.930 . S
H1538 C1569 0.929 . S
H1539 C1527 0.930 . S
H1540 C1528 0.929 . S
H1541 C1570 0.930 . S
H1542 C1551 0.930 . S
N1543 Gd1512 2.661 . S
N1543 C1547 1.350 . S
N1543 C1548 1.307 . S
C1544 H1536 0.930 . S
C1544 C1545 1.355 . S
C1544 C1546 1.412 . S
C1545 H1537 0.930 . S
C1545 C1544 1.355 . S
C1545 C1548 1.402 . S
C1546 C1544 1.412 . S
C1546 C1547 1.417 . S
C1546 C1570 1.431 . S
C1547 N1543 1.350 . S
C1547 C1546 1.417 . S
C1547 C1550 1.426 . S
C1548 H1531 0.930 . S
C1548 N1543 1.307 . S
C1548 C1545 1.402 . S
N1549 Gd1512 2.601 . S
N1549 C1550 1.359 . S
N1549 C1553 1.334 . S
C1550 C1547 1.426 . S
C1550 N1549 1.359 . S
C1550 C1554 1.413 . S
C1551 H1542 0.930 . S
C1551 C1552 1.359 . S
C1551 C1553 1.394 . S
C1552 C1551 1.359 . S
C1552 C1554 1.391 . S
C1552 H1555 0.929 . S
C1553 H1535 0.930 . S
C1553 N1549 1.334 . S
C1553 C1551 1.394 . S
C1554 C1550 1.413 . S
C1554 C1552 1.391 . S
C1554 C1569 1.437 . S
H1555 C1552 0.929 . S
O1556 Gd1512 2.545 . S
O1556 C1571 1.258 . S
O1557 Gd1512 2.606 . S
O1557 Gd1513 2.362 . S
O1557 C1568 1.284 . S
O1558 Gd1513 2.324 . S
O1558 C1578 1.254 . S
O1559 Gd1512 2.429 . S
O1559 C1578 1.268 . S
O1560 Gd1512 2.545 . S
O1560 C1568 1.250 . S
O1561 Gd1512 2.412 . S
O1561 C1571 1.252 . S
O1562 Gd1513 2.545 . S
O1562 C1580 1.258 . S
O1563 Gd1512 2.362 . S
O1563 Gd1513 2.606 . S
O1563 C1579 1.284 . S
O1564 Gd1512 2.324 . S
O1564 C1587 1.254 . S
O1565 Gd1513 2.429 . S
O1565 C1587 1.268 . S
O1566 Gd1513 2.545 . S
O1566 C1579 1.250 . S
O1567 Gd1513 2.412 . S
O1567 C1580 1.252 . S
C1568 O1557 1.284 . S
C1568 O1560 1.250 . S
C1569 H1538 0.929 . S
C1569 C1554 1.437 . S
C1569 C1570 1.317 . S
C1570 H1541 0.930 . S
C1570 C1546 1.431 . S
C1570 C1569 1.317 . S
C1571 Gd1512 2.828 . S
C1571 O1556 1.258 . S
C1571 O1561 1.252 . S
C1571 C1572 1.497 . S
C1572 C1571 1.497 . S
C1572 C1573 1.395 . S
C1572 C1574 1.380 . S
C1573 C1572 1.395 . S
C1573 C1576 1.398 . S
C1573 H1588 0.930 . S
C1574 C1572 1.380 . S
C1574 C1575 1.391 . S
C1574 H1589 0.930 . S
C1575 C1574 1.391 . S
C1575 C1577 1.387 . S
C1576 C1573 1.398 . S
C1576 C1577 1.380 . S
C1576 H1590 0.930 . S
C1577 C1575 1.387 . S
C1577 C1576 1.380 . S
C1577 H1591 0.930 . S
C1578 O1558 1.254 . S
C1578 O1559 1.268 . S
C1579 O1563 1.284 . S
C1579 O1566 1.250 . S
C1580 Gd1513 2.828 . S
C1580 O1562 1.258 . S
C1580 O1567 1.252 . S
C1580 C1581 1.497 . S
C1581 C1580 1.497 . S
C1581 C1582 1.395 . S
C1581 C1583 1.380 . S
C1582 C1581 1.395 . S
C1582 C1585 1.398 . S
C1582 H1592 0.930 . S
C1583 C1581 1.380 . S
C1583 C1584 1.391 . S
C1583 H1593 0.930 . S
C1584 C1583 1.391 . S
C1584 C1586 1.387 . S
C1585 C1582 1.398 . S
C1585 C1586 1.380 . S
C1585 H1594 0.930 . S
C1586 C1584 1.387 . S
C1586 C1585 1.380 . S
C1586 H1595 0.930 . S
C1587 O1564 1.254 . S
C1587 O1565 1.268 . S
H1588 C1573 0.930 . S
H1589 C1574 0.930 . S
H1590 C1576 0.930 . S
H1591 C1577 0.930 . S
H1592 C1582 0.930 . S
H1593 C1583 0.930 . S
H1594 C1585 0.930 . S
H1595 C1586 0.930 . S
Gd1596 N1627 2.676 . S
Gd1596 N1633 2.601 . S
Gd1596 O1640 2.545 . S
Gd1596 O1641 2.606 . S
Gd1596 O1643 2.429 . S
Gd1596 O1644 2.545 . S
Gd1596 O1645 2.412 1_455 S
Gd1596 O1647 2.362 . S
Gd1596 O1648 2.324 1_554 S
Gd1596 C1655 2.828 1_455 S
Gd1597 N1606 2.661 . S
Gd1597 N1610 2.601 1_554 S
Gd1597 O1641 2.362 . S
Gd1597 O1642 2.324 . S
Gd1597 O1646 2.545 1_554 S
Gd1597 O1647 2.606 . S
Gd1597 O1649 2.429 1_554 S
Gd1597 O1650 2.543 . S
Gd1597 O1651 2.412 . S
Gd1597 C1664 2.828 1_554 S
C1598 C1601 1.417 . S
C1598 C1603 1.431 . S
C1598 C1604 1.412 . S
C1599 C1602 1.437 . S
C1599 C1603 1.317 1_556 S
C1599 H1618 0.929 . S
C1600 C1601 1.426 1_556 S
C1600 C1602 1.413 . S
C1600 N1610 1.359 . S
C1601 C1598 1.417 . S
C1601 C1600 1.426 1_554 S
C1601 N1606 1.350 . S
C1602 C1599 1.437 . S
C1602 C1600 1.413 . S
C1602 C1612 1.391 . S
C1603 C1598 1.431 . S
C1603 C1599 1.317 1_554 S
C1603 H1614 0.930 . S
C1604 C1598 1.412 . S
C1604 C1605 1.355 . S
C1604 H1616 0.930 . S
C1605 C1604 1.355 . S
C1605 C1607 1.402 . S
C1605 H1617 0.930 . S
N1606 Gd1597 2.661 . S
N1606 C1601 1.350 . S
N1606 C1607 1.307 . S
C1607 C1605 1.402 . S
C1607 N1606 1.307 . S
C1607 H1608 0.930 . S
H1608 C1607 0.930 . S
C1609 N1610 1.334 . S
C1609 C1611 1.394 . S
C1609 H1613 0.930 . S
N1610 Gd1597 2.601 1_556 S
N1610 C1600 1.359 . S
N1610 C1609 1.334 . S
C1611 C1609 1.394 . S
C1611 C1612 1.359 . S
C1611 H1623 0.930 . S
C1612 C1602 1.391 . S
C1612 C1611 1.359 . S
C1612 H1624 0.929 . S
H1613 C1609 0.930 . S
H1614 C1603 0.930 . S
H1615 C1632 0.930 1_455 S
H1616 C1604 0.930 . S
H1617 C1605 0.930 . S
H1618 C1599 0.929 . S
H1619 C1637 0.930 . S
H1620 C1628 0.930 . S
H1621 C1629 0.930 . S
H1622 C1653 0.929 . S
H1623 C1611 0.930 . S
H1624 C1612 0.929 . S
H1625 C1654 0.930 . S
H1626 C1635 0.930 . S
N1627 Gd1596 2.676 . S
N1627 C1631 1.338 1_455 S
N1627 C1632 1.306 1_454 S
C1628 H1620 0.930 . S
C1628 C1629 1.355 . S
C1628 C1630 1.412 1_556 S
C1629 H1621 0.930 . S
C1629 C1628 1.355 . S
C1629 C1632 1.402 . S
C1630 C1628 1.412 1_554 S
C1630 C1631 1.417 . S
C1630 C1654 1.431 . S
C1631 N1627 1.338 1_655 S
C1631 C1630 1.417 . S
C1631 C1634 1.426 . S
C1632 H1615 0.930 1_655 S
C1632 N1627 1.306 1_656 S
C1632 C1629 1.402 . S
N1633 Gd1596 2.601 . S
N1633 C1634 1.359 1_455 S
N1633 C1637 1.334 . S
C1634 C1631 1.426 . S
C1634 N1633 1.359 1_655 S
C1634 C1638 1.413 . S
C1635 H1626 0.930 . S
C1635 C1636 1.359 1_455 S
C1635 C1637 1.394 . S
C1636 C1635 1.359 1_655 S
C1636 C1638 1.391 . S
C1636 H1639 0.929 . S
C1637 H1619 0.930 . S
C1637 N1633 1.334 . S
C1637 C1635 1.394 . S
C1638 C1634 1.413 . S
C1638 C1636 1.391 . S
C1638 C1653 1.437 . S
H1639 C1636 0.929 . S
O1640 Gd1596 2.545 . S
O1640 C1655 1.258 1_455 S
O1641 Gd1596 2.606 . S
O1641 Gd1597 2.362 . S
O1641 C1652 1.284 . S
O1642 Gd1597 2.324 . S
O1642 C1662 1.254 . S
O1643 Gd1596 2.429 . S
O1643 C1662 1.268 . S
O1644 Gd1596 2.545 . S
O1644 C1652 1.250 . S
O1645 Gd1596 2.412 1_655 S
O1645 C1655 1.252 . S
O1646 Gd1597 2.545 1_556 S
O1646 C1664 1.258 . S
O1647 Gd1596 2.362 . S
O1647 Gd1597 2.606 . S
O1647 C1663 1.284 . S
O1648 Gd1596 2.324 1_556 S
O1648 C1671 1.254 . S
O1649 Gd1597 2.429 1_556 S
O1649 C1671 1.268 . S
O1650 Gd1597 2.543 . S
O1650 C1663 1.260 . S
O1651 Gd1597 2.412 . S
O1651 C1664 1.252 1_554 S
C1652 O1641 1.284 . S
C1652 O1644 1.250 . S
C1653 H1622 0.929 . S
C1653 C1638 1.437 . S
C1653 C1654 1.317 . S
C1654 H1625 0.930 . S
C1654 C1630 1.431 . S
C1654 C1653 1.317 . S
C1655 Gd1596 2.828 1_655 S
C1655 O1640 1.258 1_655 S
C1655 O1645 1.252 . S
C1655 C1656 1.497 . S
C1656 C1655 1.497 . S
C1656 C1657 1.395 . S
C1656 C1658 1.380 . S
C1657 C1656 1.395 . S
C1657 C1660 1.398 . S
C1657 H1672 0.930 . S
C1658 C1656 1.380 . S
C1658 C1659 1.391 . S
C1658 H1673 0.930 . S
C1659 C1658 1.391 . S
C1659 C1661 1.387 . S
C1660 C1657 1.398 . S
C1660 C1661 1.380 . S
C1660 H1674 0.930 . S
C1661 C1659 1.387 . S
C1661 C1660 1.380 . S
C1661 H1675 0.930 . S
C1662 O1642 1.254 . S
C1662 O1643 1.268 . S
C1663 O1647 1.284 . S
C1663 O1650 1.260 . S
C1664 Gd1597 2.828 1_556 S
C1664 O1646 1.258 . S
C1664 O1651 1.252 1_556 S
C1664 C1665 1.497 . S
C1665 C1664 1.497 . S
C1665 C1666 1.395 . S
C1665 C1667 1.380 1_556 S
C1666 C1665 1.395 . S
C1666 C1669 1.398 . S
C1666 H1676 0.930 . S
C1667 C1665 1.380 1_554 S
C1667 C1668 1.391 1_554 S
C1667 H1677 0.930 . S
C1668 C1667 1.391 1_556 S
C1668 C1670 1.387 . S
C1669 C1666 1.398 . S
C1669 C1670 1.380 . S
C1669 H1678 0.930 . S
C1670 C1668 1.387 . S
C1670 C1669 1.380 . S
C1670 H1679 0.930 . S
C1671 O1648 1.254 . S
C1671 O1649 1.268 . S
H1672 C1657 0.930 . S
H1673 C1658 0.930 . S
H1674 C1660 0.930 . S
H1675 C1661 0.930 . S
H1676 C1666 0.930 . S
H1677 C1667 0.930 . S
H1678 C1669 0.930 . S
H1679 C1670 0.930 . S
H1680 C1686 0.930 1_554 S
H1681 C1690 0.930 . S
H1682 C1695 0.929 . S
H1683 C1693 0.929 . S
H1684 C1688 0.929 . S
H1685 C1694 0.929 . S
C1686 H1680 0.930 1_556 S
C1686 C1687 1.367 . S
C1686 C1694 1.378 1_556 S
C1687 C1686 1.367 . S
C1687 C1695 1.433 . S
C1688 H1684 0.929 . S
C1688 C1690 1.378 . S
C1688 C1692 1.350 . S
C1689 C1692 1.463 . S
C1689 C1694 1.350 1_556 S
C1689 N1697 1.427 . S
C1690 H1681 0.930 . S
C1690 C1688 1.378 . S
C1690 C1691 1.367 1_556 S
C1691 C1690 1.367 1_554 S
C1691 C1693 1.433 . S
C1692 C1688 1.350 . S
C1692 C1689 1.463 . S
C1692 N1696 1.427 1_556 S
C1693 H1683 0.929 . S
C1693 C1691 1.433 . S
C1693 N1696 1.384 . S
C1694 H1685 0.929 . S
C1694 C1686 1.378 1_554 S
C1694 C1689 1.350 1_554 S
C1695 H1682 0.929 . S
C1695 C1687 1.433 . S
C1695 N1697 1.384 . S
N1696 C1692 1.427 1_554 S
N1696 C1693 1.384 . S
N1697 C1689 1.427 . S
N1697 C1695 1.384 . S
H1698 C1704 0.930 . S
H1699 C1708 0.930 . S
H1700 C1713 0.929 . S
H1701 C1711 0.929 . S
H1702 C1706 0.929 . S
H1703 C1712 0.929 . S
C1704 H1698 0.930 . S
C1704 C1705 1.367 . S
C1704 C1712 1.378 . S
C1705 C1704 1.367 . S
C1705 C1713 1.433 . S
C1706 H1702 0.929 . S
C1706 C1708 1.378 . S
C1706 C1710 1.350 . S
C1707 C1710 1.463 . S
C1707 C1712 1.350 . S
C1707 N1715 1.427 . S
C1708 H1699 0.930 . S
C1708 C1706 1.378 . S
C1708 C1709 1.367 . S
C1709 C1708 1.367 . S
C1709 C1711 1.433 . S
C1710 C1706 1.350 . S
C1710 C1707 1.463 . S
C1710 N1714 1.427 . S
C1711 H1701 0.929 . S
C1711 C1709 1.433 . S
C1711 N1714 1.384 . S
C1712 H1703 0.929 . S
C1712 C1704 1.378 . S
C1712 C1707 1.350 . S
C1713 H1700 0.929 . S
C1713 C1705 1.433 . S
C1713 N1715 1.384 . S
N1714 C1710 1.427 . S
N1714 C1711 1.384 . S
N1715 C1707 1.427 . S
N1715 C1713 1.384 . S
H1716 C1722 0.930 . S
H1717 C1726 0.930 . S
H1718 C1731 0.929 . S
H1719 C1729 0.929 . S
H1720 C1724 0.929 . S
H1721 C1730 0.929 . S
C1722 H1716 0.930 . S
C1722 C1723 1.367 . S
C1722 C1730 1.378 . S
C1723 C1722 1.367 . S
C1723 C1731 1.433 . S
C1724 H1720 0.929 . S
C1724 C1726 1.378 . S
C1724 C1728 1.350 . S
C1725 C1728 1.463 . S
C1725 C1730 1.350 . S
C1725 N1733 1.427 . S
C1726 H1717 0.930 . S
C1726 C1724 1.378 . S
C1726 C1727 1.367 . S
C1727 C1726 1.367 . S
C1727 C1729 1.433 . S
C1728 C1724 1.350 . S
C1728 C1725 1.463 . S
C1728 N1732 1.427 . S
C1729 H1719 0.929 . S
C1729 C1727 1.433 . S
C1729 N1732 1.384 . S
C1730 H1721 0.929 . S
C1730 C1722 1.378 . S
C1730 C1725 1.350 . S
C1731 H1718 0.929 . S
C1731 C1723 1.433 . S
C1731 N1733 1.384 . S
N1732 C1728 1.427 . S
N1732 C1729 1.384 . S
N1733 C1725 1.427 . S
N1733 C1731 1.384 . S
H1734 C1740 0.930 . S
H1735 C1744 0.930 . S
H1736 C1749 0.929 . S
H1737 C1747 0.929 . S
H1738 C1742 0.929 . S
H1739 C1748 0.929 . S
C1740 H1734 0.930 . S
C1740 C1741 1.367 . S
C1740 C1748 1.378 . S
C1741 C1740 1.367 . S
C1741 C1749 1.433 . S
C1742 H1738 0.929 . S
C1742 C1744 1.378 . S
C1742 C1746 1.350 . S
C1743 C1746 1.463 . S
C1743 C1748 1.350 . S
C1743 N1751 1.427 . S
C1744 H1735 0.930 . S
C1744 C1742 1.378 . S
C1744 C1745 1.367 . S
C1745 C1744 1.367 . S
C1745 C1747 1.433 . S
C1746 C1742 1.350 . S
C1746 C1743 1.463 . S
C1746 N1750 1.427 . S
C1747 H1737 0.929 . S
C1747 C1745 1.433 . S
C1747 N1750 1.384 . S
C1748 H1739 0.929 . S
C1748 C1740 1.378 . S
C1748 C1743 1.350 . S
C1749 H1736 0.929 . S
C1749 C1741 1.433 . S
C1749 N1751 1.384 . S
N1750 C1746 1.427 . S
N1750 C1747 1.384 . S
N1751 C1743 1.427 . S
N1751 C1749 1.384 . S
H1752 C1758 0.930 . S
H1753 C1762 0.930 . S
H1754 C1767 0.945 . S
H1755 C1765 0.929 . S
H1756 C1760 0.929 . S
H1757 C1766 0.929 . S
C1758 H1752 0.930 . S
C1758 C1759 1.367 . S
C1758 C1766 1.378 . S
C1759 C1758 1.367 . S
C1759 C1767 1.422 1_455 S
C1760 H1756 0.929 . S
C1760 C1762 1.378 . S
C1760 C1764 1.350 . S
C1761 C1764 1.463 . S
C1761 C1766 1.350 . S
C1761 N1769 1.427 . S
C1762 H1753 0.930 . S
C1762 C1760 1.378 . S
C1762 C1763 1.367 . S
C1763 C1762 1.367 . S
C1763 C1765 1.433 . S
C1764 C1760 1.350 . S
C1764 C1761 1.463 . S
C1764 N1768 1.427 . S
C1765 H1755 0.929 . S
C1765 C1763 1.433 . S
C1765 N1768 1.384 . S
C1766 H1757 0.929 . S
C1766 C1758 1.378 . S
C1766 C1761 1.350 . S
C1767 H1754 0.945 . S
C1767 C1759 1.422 1_655 S
C1767 N1769 1.379 1_655 S
N1768 C1764 1.427 . S
N1768 C1765 1.384 . S
N1769 C1761 1.427 . S
N1769 C1767 1.379 1_455 S
H1770 C1776 0.930 . S
H1771 C1780 0.930 . S
H1772 C1785 0.929 . S
H1773 C1783 0.929 . S
H1774 C1778 0.929 . S
H1775 C1784 0.929 . S
C1776 H1770 0.930 . S
C1776 C1777 1.367 . S
C1776 C1784 1.378 . S
C1777 C1776 1.367 . S
C1777 C1785 1.433 . S
C1778 H1774 0.929 . S
C1778 C1780 1.378 . S
C1778 C1782 1.350 . S
C1779 C1782 1.463 . S
C1779 C1784 1.350 . S
C1779 N1787 1.427 . S
C1780 H1771 0.930 . S
C1780 C1778 1.378 . S
C1780 C1781 1.367 . S
C1781 C1780 1.367 . S
C1781 C1783 1.433 . S
C1782 C1778 1.350 . S
C1782 C1779 1.463 . S
C1782 N1786 1.427 . S
C1783 H1773 0.929 . S
C1783 C1781 1.433 . S
C1783 N1786 1.384 . S
C1784 H1775 0.929 . S
C1784 C1776 1.378 . S
C1784 C1779 1.350 . S
C1785 H1772 0.929 . S
C1785 C1777 1.433 . S
C1785 N1787 1.384 . S
N1786 C1782 1.427 . S
N1786 C1783 1.384 . S
N1787 C1779 1.427 . S
N1787 C1785 1.384 . S
H1788 C1794 0.930 . S
H1789 C1798 0.930 . S
H1790 C1803 0.929 . S
H1791 C1801 0.929 . S
H1792 C1796 0.929 . S
H1793 C1802 0.929 . S
C1794 H1788 0.930 . S
C1794 C1795 1.367 . S
C1794 C1802 1.378 . S
C1795 C1794 1.367 . S
C1795 C1803 1.433 . S
C1796 H1792 0.929 . S
C1796 C1798 1.378 . S
C1796 C1800 1.350 . S
C1797 C1800 1.463 . S
C1797 C1802 1.350 . S
C1797 N1805 1.427 . S
C1798 H1789 0.930 . S
C1798 C1796 1.378 . S
C1798 C1799 1.367 . S
C1799 C1798 1.367 . S
C1799 C1801 1.433 . S
C1800 C1796 1.350 . S
C1800 C1797 1.463 . S
C1800 N1804 1.427 . S
C1801 H1791 0.929 . S
C1801 C1799 1.433 . S
C1801 N1804 1.384 . S
C1802 H1793 0.929 . S
C1802 C1794 1.378 . S
C1802 C1797 1.350 . S
C1803 H1790 0.929 . S
C1803 C1795 1.433 . S
C1803 N1805 1.384 . S
N1804 C1800 1.427 . S
N1804 C1801 1.384 . S
N1805 C1797 1.427 . S
N1805 C1803 1.384 . S
H1806 C1812 0.930 . S
H1807 C1816 0.930 . S
H1808 C1821 0.929 . S
H1809 C1819 0.929 . S
H1810 C1814 0.929 . S
H1811 C1820 0.929 . S
C1812 H1806 0.930 . S
C1812 C1813 1.367 . S
C1812 C1820 1.378 . S
C1813 C1812 1.367 . S
C1813 C1821 1.433 . S
C1814 H1810 0.929 . S
C1814 C1816 1.378 . S
C1814 C1818 1.350 . S
C1815 C1818 1.463 . S
C1815 C1820 1.350 . S
C1815 N1823 1.427 . S
C1816 H1807 0.930 . S
C1816 C1814 1.378 . S
C1816 C1817 1.367 . S
C1817 C1816 1.367 . S
C1817 C1819 1.433 . S
C1818 C1814 1.350 . S
C1818 C1815 1.463 . S
C1818 N1822 1.427 . S
C1819 H1809 0.929 . S
C1819 C1817 1.433 . S
C1819 N1822 1.384 . S
C1820 H1811 0.929 . S
C1820 C1812 1.378 . S
C1820 C1815 1.350 . S
C1821 H1808 0.929 . S
C1821 C1813 1.433 . S
C1821 N1823 1.384 . S
N1822 C1818 1.427 . S
N1822 C1819 1.384 . S
N1823 C1815 1.427 . S
N1823 C1821 1.384 . S
H1824 C1830 0.930 . S
H1825 C1834 0.930 . S
H1826 C1839 0.929 . S
H1827 C1837 0.929 . S
H1828 C1832 0.929 1_655 S
H1829 C1838 0.929 . S
C1830 H1824 0.930 . S
C1830 C1831 1.367 . S
C1830 C1838 1.378 1_655 S
C1831 C1830 1.367 . S
C1831 C1839 1.433 . S
C1832 H1828 0.929 1_455 S
C1832 C1834 1.378 . S
C1832 C1836 1.350 . S
C1833 C1836 1.463 1_655 S
C1833 C1838 1.350 1_655 S
C1833 N1841 1.427 . S
C1834 H1825 0.930 . S
C1834 C1832 1.378 . S
C1834 C1835 1.367 . S
C1835 C1834 1.367 . S
C1835 C1837 1.433 . S
C1836 C1832 1.350 . S
C1836 C1833 1.463 1_455 S
C1836 N1840 1.427 . S
C1837 H1827 0.929 . S
C1837 C1835 1.433 . S
C1837 N1840 1.384 . S
C1838 H1829 0.929 . S
C1838 C1830 1.378 1_455 S
C1838 C1833 1.350 1_455 S
C1839 H1826 0.929 . S
C1839 C1831 1.433 . S
C1839 N1841 1.384 . S
N1840 C1836 1.427 . S
N1840 C1837 1.384 . S
N1841 C1833 1.427 . S
N1841 C1839 1.384 . S
H1842 C1848 0.930 . S
H1843 C1852 0.930 . S
H1844 C1857 0.929 . S
H1845 C1855 0.929 . S
H1846 C1850 0.929 . S
H1847 C1856 0.929 . S
C1848 H1842 0.930 . S
C1848 C1849 1.367 . S
C1848 C1856 1.378 . S
C1849 C1848 1.367 . S
C1849 C1857 1.433 . S
C1850 H1846 0.929 . S
C1850 C1852 1.378 . S
C1850 C1854 1.350 . S
C1851 C1854 1.463 . S
C1851 C1856 1.350 . S
C1851 N1859 1.427 . S
C1852 H1843 0.930 . S
C1852 C1850 1.378 . S
C1852 C1853 1.367 . S
C1853 C1852 1.367 . S
C1853 C1855 1.433 . S
C1854 C1850 1.350 . S
C1854 C1851 1.463 . S
C1854 N1858 1.427 . S
C1855 H1845 0.929 . S
C1855 C1853 1.433 . S
C1855 N1858 1.384 . S
C1856 H1847 0.929 . S
C1856 C1848 1.378 . S
C1856 C1851 1.350 . S
C1857 H1844 0.929 . S
C1857 C1849 1.433 . S
C1857 N1859 1.384 . S
N1858 C1854 1.427 . S
N1858 C1855 1.384 . S
N1859 C1851 1.427 . S
N1859 C1857 1.384 . S
H1860 C1866 0.930 . S
H1861 C1870 0.930 . S
H1862 C1875 0.929 . S
H1863 C1873 0.929 . S
H1864 C1868 0.929 . S
H1865 C1874 0.929 . S
C1866 H1860 0.930 . S
C1866 C1867 1.367 . S
C1866 C1874 1.378 . S
C1867 C1866 1.367 . S
C1867 C1875 1.433 . S
C1868 H1864 0.929 . S
C1868 C1870 1.378 . S
C1868 C1872 1.350 . S
C1869 C1872 1.463 . S
C1869 C1874 1.350 . S
C1869 N1877 1.427 . S
C1870 H1861 0.930 . S
C1870 C1868 1.378 . S
C1870 C1871 1.367 . S
C1871 C1870 1.367 . S
C1871 C1873 1.433 . S
C1872 C1868 1.350 . S
C1872 C1869 1.463 . S
C1872 N1876 1.427 . S
C1873 H1863 0.929 . S
C1873 C1871 1.433 . S
C1873 N1876 1.384 . S
C1874 H1865 0.929 . S
C1874 C1866 1.378 . S
C1874 C1869 1.350 . S
C1875 H1862 0.929 . S
C1875 C1867 1.433 . S
C1875 N1877 1.384 . S
N1876 C1872 1.427 . S
N1876 C1873 1.384 . S
N1877 C1869 1.427 . S
N1877 C1875 1.384 . S
H1878 C1884 0.930 . S
H1879 C1888 0.930 . S
H1880 C1893 0.929 . S
H1881 C1891 0.929 . S
H1882 C1886 0.929 . S
H1883 C1892 0.929 . S
C1884 H1878 0.930 . S
C1884 C1885 1.367 . S
C1884 C1892 1.378 . S
C1885 C1884 1.367 . S
C1885 C1893 1.433 . S
C1886 H1882 0.929 . S
C1886 C1888 1.378 . S
C1886 C1890 1.350 . S
C1887 C1890 1.463 . S
C1887 C1892 1.350 . S
C1887 N1895 1.427 . S
C1888 H1879 0.930 . S
C1888 C1886 1.378 . S
C1888 C1889 1.367 . S
C1889 C1888 1.367 . S
C1889 C1891 1.433 . S
C1890 C1886 1.350 . S
C1890 C1887 1.463 . S
C1890 N1894 1.427 . S
C1891 H1881 0.929 . S
C1891 C1889 1.433 . S
C1891 N1894 1.384 . S
C1892 H1883 0.929 . S
C1892 C1884 1.378 . S
C1892 C1887 1.350 . S
C1893 H1880 0.929 . S
C1893 C1885 1.433 . S
C1893 N1895 1.384 . S
N1894 C1890 1.427 . S
N1894 C1891 1.384 . S
N1895 C1887 1.427 . S
N1895 C1893 1.384 . S
H1896 C1902 0.930 . S
H1897 C1906 0.930 . S
H1898 C1911 0.929 . S
H1899 C1909 0.929 . S
H1900 C1904 0.929 . S
H1901 C1910 0.929 . S
C1902 H1896 0.930 . S
C1902 C1903 1.367 . S
C1902 C1910 1.378 . S
C1903 C1902 1.367 . S
C1903 C1911 1.433 1_655 S
C1904 H1900 0.929 . S
C1904 C1906 1.378 . S
C1904 C1908 1.350 . S
C1905 C1908 1.463 . S
C1905 C1910 1.350 1_455 S
C1905 N1913 1.427 . S
C1906 H1897 0.930 . S
C1906 C1904 1.378 . S
C1906 C1907 1.367 . S
C1907 C1906 1.367 . S
C1907 C1909 1.433 . S
C1908 C1904 1.350 . S
C1908 C1905 1.463 . S
C1908 N1912 1.427 . S
C1909 H1899 0.929 . S
C1909 C1907 1.433 . S
C1909 N1912 1.384 . S
C1910 H1901 0.929 . S
C1910 C1902 1.378 . S
C1910 C1905 1.350 1_655 S
C1911 H1898 0.929 . S
C1911 C1903 1.433 1_455 S
C1911 N1913 1.384 . S
N1912 C1908 1.427 . S
N1912 C1909 1.384 . S
N1913 C1905 1.427 . S
N1913 C1911 1.384 . S
H1914 C1920 0.930 . S
H1915 C1924 0.930 . S
H1916 C1929 0.929 . S
H1917 C1927 0.929 . S
H1918 C1922 0.929 . S
H1919 C1928 0.929 . S
C1920 H1914 0.930 . S
C1920 C1921 1.367 . S
C1920 C1928 1.378 . S
C1921 C1920 1.367 . S
C1921 C1929 1.433 . S
C1922 H1918 0.929 . S
C1922 C1924 1.378 . S
C1922 C1926 1.350 . S
C1923 C1926 1.463 . S
C1923 C1928 1.350 . S
C1923 N1931 1.427 . S
C1924 H1915 0.930 . S
C1924 C1922 1.378 . S
C1924 C1925 1.367 . S
C1925 C1924 1.367 . S
C1925 C1927 1.433 . S
C1926 C1922 1.350 . S
C1926 C1923 1.463 . S
C1926 N1930 1.427 . S
C1927 H1917 0.929 . S
C1927 C1925 1.433 . S
C1927 N1930 1.384 . S
C1928 H1919 0.929 . S
C1928 C1920 1.378 . S
C1928 C1923 1.350 . S
C1929 H1916 0.929 . S
C1929 C1921 1.433 . S
C1929 N1931 1.384 . S
N1930 C1926 1.427 . S
N1930 C1927 1.384 . S
N1931 C1923 1.427 . S
N1931 C1929 1.384 . S
H1932 C1938 0.930 . S
H1933 C1942 0.930 . S
H1934 C1947 0.929 . S
H1935 C1945 0.929 . S
H1936 C1940 0.929 . S
H1937 C1946 0.929 . S
C1938 H1932 0.930 . S
C1938 C1939 1.367 . S
C1938 C1946 1.378 . S
C1939 C1938 1.367 . S
C1939 C1947 1.433 . S
C1940 H1936 0.929 . S
C1940 C1942 1.378 . S
C1940 C1944 1.350 . S
C1941 C1944 1.463 . S
C1941 C1946 1.350 . S
C1941 N1949 1.427 . S
C1942 H1933 0.930 . S
C1942 C1940 1.378 . S
C1942 C1943 1.367 . S
C1943 C1942 1.367 . S
C1943 C1945 1.433 . S
C1944 C1940 1.350 . S
C1944 C1941 1.463 . S
C1944 N1948 1.427 . S
C1945 H1935 0.929 . S
C1945 C1943 1.433 . S
C1945 N1948 1.384 . S
C1946 H1937 0.929 . S
C1946 C1938 1.378 . S
C1946 C1941 1.350 . S
C1947 H1934 0.929 . S
C1947 C1939 1.433 . S
C1947 N1949 1.384 . S
N1948 C1944 1.427 . S
N1948 C1945 1.384 . S
N1949 C1941 1.427 . S
N1949 C1947 1.384 . S
H1950 C1956 0.930 . S
H1951 C1960 0.930 . S
H1952 C1965 0.929 . S
H1953 C1963 0.929 . S
H1954 C1958 0.929 . S
H1955 C1964 0.929 . S
C1956 H1950 0.930 . S
C1956 C1957 1.367 . S
C1956 C1964 1.378 . S
C1957 C1956 1.367 . S
C1957 C1965 1.433 . S
C1958 H1954 0.929 . S
C1958 C1960 1.378 . S
C1958 C1962 1.350 . S
C1959 C1962 1.463 . S
C1959 C1964 1.350 . S
C1959 N1967 1.427 . S
C1960 H1951 0.930 . S
C1960 C1958 1.378 . S
C1960 C1961 1.367 . S
C1961 C1960 1.367 . S
C1961 C1963 1.433 . S
C1962 C1958 1.350 . S
C1962 C1959 1.463 . S
C1962 N1966 1.427 . S
C1963 H1953 0.929 . S
C1963 C1961 1.433 . S
C1963 N1966 1.384 . S
C1964 H1955 0.929 . S
C1964 C1956 1.378 . S
C1964 C1959 1.350 . S
C1965 H1952 0.929 . S
C1965 C1957 1.433 . S
C1965 N1967 1.384 . S
N1966 C1962 1.427 . S
N1966 C1963 1.384 . S
N1967 C1959 1.427 . S
N1967 C1965 1.384 . S
H1968 C1974 0.930 . S
H1969 C1978 0.931 . S
H1970 C1983 0.929 . S
H1971 C1981 0.929 1_556 S
H1972 C1976 0.929 . S
H1973 C1982 0.929 . S
C1974 H1968 0.930 . S
C1974 C1975 1.367 1_556 S
C1974 C1982 1.378 . S
C1975 C1974 1.367 1_554 S
C1975 C1983 1.433 . S
C1976 H1972 0.929 . S
C1976 C1978 1.378 . S
C1976 C1980 1.350 . S
C1977 C1980 1.463 . S
C1977 C1982 1.350 1_554 S
C1977 N1985 1.427 . S
C1978 H1969 0.931 . S
C1978 C1976 1.378 . S
C1978 C1979 1.367 1_565 S
C1979 C1978 1.367 1_545 S
C1979 C1981 1.433 . S
C1980 C1976 1.350 . S
C1980 C1977 1.463 . S
C1980 N1984 1.427 . S
C1981 H1971 0.929 1_554 S
C1981 C1979 1.433 . S
C1981 N1984 1.384 1_545 S
C1982 H1973 0.929 . S
C1982 C1974 1.378 . S
C1982 C1977 1.350 1_556 S
C1983 H1970 0.929 . S
C1983 C1975 1.433 . S
C1983 N1985 1.384 . S
N1984 C1980 1.427 . S
N1984 C1981 1.384 1_565 S
N1985 C1977 1.427 . S
N1985 C1983 1.384 . S
H1986 C1992 0.930 . S
H1987 C1996 0.930 . S
H1988 C2001 0.929 . S
H1989 C1999 0.929 . S
H1990 C1994 0.929 . S
H1991 C2000 0.929 . S
C1992 H1986 0.930 . S
C1992 C1993 1.367 1_554 S
C1992 C2000 1.378 . S
C1993 C1992 1.367 1_556 S
C1993 C2001 1.433 . S
C1994 H1990 0.929 . S
C1994 C1996 1.378 . S
C1994 C1998 1.350 . S
C1995 C1998 1.463 . S
C1995 C2000 1.350 1_556 S
C1995 N2003 1.427 . S
C1996 H1987 0.930 . S
C1996 C1994 1.378 . S
C1996 C1997 1.380 . S
C1997 C1996 1.380 . S
C1997 C1999 1.424 1_556 S
C1998 C1994 1.350 . S
C1998 C1995 1.463 . S
C1998 N2002 1.427 1_556 S
C1999 H1989 0.929 . S
C1999 C1997 1.424 1_554 S
C1999 N2002 1.384 . S
C2000 H1991 0.929 . S
C2000 C1992 1.378 . S
C2000 C1995 1.350 1_554 S
C2001 H1988 0.929 . S
C2001 C1993 1.433 . S
C2001 N2003 1.384 . S
N2002 C1998 1.427 1_554 S
N2002 C1999 1.384 . S
N2003 C1995 1.427 . S
N2003 C2001 1.384 . S
H2004 C2010 0.930 . S
H2005 C2014 0.930 . S
H2006 C2019 0.929 . S
H2007 C2017 0.929 . S
H2008 C2012 0.929 . S
H2009 C2018 0.929 . S
C2010 H2004 0.930 . S
C2010 C2011 1.367 . S
C2010 C2018 1.378 . S
C2011 C2010 1.367 . S
C2011 C2019 1.433 . S
C2012 H2008 0.929 . S
C2012 C2014 1.378 . S
C2012 C2016 1.350 . S
C2013 C2016 1.463 . S
C2013 C2018 1.350 . S
C2013 N2021 1.427 . S
C2014 H2005 0.930 . S
C2014 C2012 1.378 . S
C2014 C2015 1.367 . S
C2015 C2014 1.367 . S
C2015 C2017 1.433 . S
C2016 C2012 1.350 . S
C2016 C2013 1.463 . S
C2016 N2020 1.427 . S
C2017 H2007 0.929 . S
C2017 C2015 1.433 . S
C2017 N2020 1.384 . S
C2018 H2009 0.929 . S
C2018 C2010 1.378 . S
C2018 C2013 1.350 . S
C2019 H2006 0.929 . S
C2019 C2011 1.433 . S
C2019 N2021 1.384 . S
N2020 C2016 1.427 . S
N2020 C2017 1.384 . S
N2021 C2013 1.427 . S
N2021 C2019 1.384 . S
H2022 C2028 0.930 . S
H2023 C2032 0.946 . S
H2024 C2037 0.929 . S
H2025 C2035 0.929 . S
H2026 C2030 0.929 . S
H2027 C2036 0.929 . S
C2028 H2022 0.930 . S
C2028 C2029 1.367 . S
C2028 C2036 1.378 . S
C2029 C2028 1.367 . S
C2029 C2037 1.433 . S
C2030 H2026 0.929 . S
C2030 C2032 1.378 . S
C2030 C2034 1.350 . S
C2031 C2034 1.463 . S
C2031 C2036 1.350 . S
C2031 N2039 1.427 . S
C2032 H2023 0.946 . S
C2032 C2030 1.378 . S
C2032 C2033 1.367 1_655 S
C2033 C2032 1.367 1_455 S
C2033 C2035 1.433 . S
C2034 C2030 1.350 . S
C2034 C2031 1.463 . S
C2034 N2038 1.427 . S
C2035 H2025 0.929 . S
C2035 C2033 1.433 . S
C2035 N2038 1.384 1_455 S
C2036 H2027 0.929 . S
C2036 C2028 1.378 . S
C2036 C2031 1.350 . S
C2037 H2024 0.929 . S
C2037 C2029 1.433 . S
C2037 N2039 1.384 . S
N2038 C2034 1.427 . S
N2038 C2035 1.384 1_655 S
N2039 C2031 1.427 . S
N2039 C2037 1.384 . S
H2040 C2046 0.930 . S
H2041 C2050 0.930 . S
H2042 C2055 0.929 . S
H2043 C2053 0.929 . S
H2044 C2048 0.929 . S
H2045 C2054 0.929 . S
C2046 H2040 0.930 . S
C2046 C2047 1.367 . S
C2046 C2054 1.378 . S
C2047 C2046 1.367 . S
C2047 C2055 1.433 . S
C2048 H2044 0.929 . S
C2048 C2050 1.378 . S
C2048 C2052 1.350 . S
C2049 C2052 1.463 . S
C2049 C2054 1.350 . S
C2049 N2057 1.427 . S
C2050 H2041 0.930 . S
C2050 C2048 1.378 . S
C2050 C2051 1.367 . S
C2051 C2050 1.367 . S
C2051 C2053 1.433 . S
C2052 C2048 1.350 . S
C2052 C2049 1.463 . S
C2052 N2056 1.427 . S
C2053 H2043 0.929 . S
C2053 C2051 1.433 . S
C2053 N2056 1.384 . S
C2054 H2045 0.929 . S
C2054 C2046 1.378 . S
C2054 C2049 1.350 . S
C2055 H2042 0.929 . S
C2055 C2047 1.433 . S
C2055 N2057 1.384 . S
N2056 C2052 1.427 . S
N2056 C2053 1.384 . S
N2057 C2049 1.427 . S
N2057 C2055 1.384 . S
H2058 C2064 0.930 . S
H2059 C2068 0.930 . S
H2060 C2073 0.929 . S
H2061 C2071 0.929 . S
H2062 C2066 0.929 . S
H2063 C2072 0.929 . S
C2064 H2058 0.930 . S
C2064 C2065 1.367 . S
C2064 C2072 1.378 . S
C2065 C2064 1.367 . S
C2065 C2073 1.433 . S
C2066 H2062 0.929 . S
C2066 C2068 1.378 . S
C2066 C2070 1.350 . S
C2067 C2070 1.463 . S
C2067 C2072 1.350 . S
C2067 N2075 1.427 . S
C2068 H2059 0.930 . S
C2068 C2066 1.378 . S
C2068 C2069 1.367 . S
C2069 C2068 1.367 . S
C2069 C2071 1.433 . S
C2070 C2066 1.350 . S
C2070 C2067 1.463 . S
C2070 N2074 1.427 . S
C2071 H2061 0.929 . S
C2071 C2069 1.433 . S
C2071 N2074 1.384 . S
C2072 H2063 0.929 . S
C2072 C2064 1.378 . S
C2072 C2067 1.350 . S
C2073 H2060 0.929 . S
C2073 C2065 1.433 . S
C2073 N2075 1.384 . S
N2074 C2070 1.427 . S
N2074 C2071 1.384 . S
N2075 C2067 1.427 . S
N2075 C2073 1.384 . S
H2076 C2082 0.930 . S
H2077 C2086 0.930 . S
H2078 C2091 0.929 . S
H2079 C2089 0.929 . S
H2080 C2084 0.929 . S
H2081 C2090 0.929 . S
C2082 H2076 0.930 . S
C2082 C2083 1.367 . S
C2082 C2090 1.378 . S
C2083 C2082 1.367 . S
C2083 C2091 1.433 . S
C2084 H2080 0.929 . S
C2084 C2086 1.378 . S
C2084 C2088 1.350 . S
C2085 C2088 1.463 . S
C2085 C2090 1.350 . S
C2085 N2093 1.427 . S
C2086 H2077 0.930 . S
C2086 C2084 1.378 . S
C2086 C2087 1.367 . S
C2087 C2086 1.367 . S
C2087 C2089 1.433 . S
C2088 C2084 1.350 . S
C2088 C2085 1.463 . S
C2088 N2092 1.427 . S
C2089 H2079 0.929 . S
C2089 C2087 1.433 . S
C2089 N2092 1.384 . S
C2090 H2081 0.929 . S
C2090 C2082 1.378 . S
C2090 C2085 1.350 . S
C2091 H2078 0.929 . S
C2091 C2083 1.433 . S
C2091 N2093 1.384 . S
N2092 C2088 1.427 . S
N2092 C2089 1.384 . S
N2093 C2085 1.427 . S
N2093 C2091 1.384 . S
H2094 C2100 0.930 . S
H2095 C2104 0.930 . S
H2096 C2109 0.929 . S
H2097 C2107 0.929 . S
H2098 C2102 0.929 . S
H2099 C2108 0.929 . S
C2100 H2094 0.930 . S
C2100 C2101 1.367 . S
C2100 C2108 1.378 . S
C2101 C2100 1.367 . S
C2101 C2109 1.433 . S
C2102 H2098 0.929 . S
C2102 C2104 1.378 . S
C2102 C2106 1.350 . S
C2103 C2106 1.463 . S
C2103 C2108 1.350 . S
C2103 N2111 1.427 . S
C2104 H2095 0.930 . S
C2104 C2102 1.378 . S
C2104 C2105 1.367 . S
C2105 C2104 1.367 . S
C2105 C2107 1.433 . S
C2106 C2102 1.350 . S
C2106 C2103 1.463 . S
C2106 N2110 1.427 . S
C2107 H2097 0.929 . S
C2107 C2105 1.433 . S
C2107 N2110 1.384 . S
C2108 H2099 0.929 . S
C2108 C2100 1.378 . S
C2108 C2103 1.350 . S
C2109 H2096 0.929 . S
C2109 C2101 1.433 . S
C2109 N2111 1.384 . S
N2110 C2106 1.427 . S
N2110 C2107 1.384 . S
N2111 C2103 1.427 . S
N2111 C2109 1.384 . S
H2112 C2118 0.930 . S
H2113 C2122 0.930 . S
H2114 C2127 0.929 . S
H2115 C2125 0.929 . S
H2116 C2120 0.929 . S
H2117 C2126 0.929 . S
C2118 H2112 0.930 . S
C2118 C2119 1.367 . S
C2118 C2126 1.378 . S
C2119 C2118 1.367 . S
C2119 C2127 1.433 . S
C2120 H2116 0.929 . S
C2120 C2122 1.378 . S
C2120 C2124 1.350 . S
C2121 C2124 1.463 . S
C2121 C2126 1.350 . S
C2121 N2129 1.427 . S
C2122 H2113 0.930 . S
C2122 C2120 1.378 . S
C2122 C2123 1.367 . S
C2123 C2122 1.367 . S
C2123 C2125 1.433 . S
C2124 C2120 1.350 . S
C2124 C2121 1.463 . S
C2124 N2128 1.427 . S
C2125 H2115 0.929 . S
C2125 C2123 1.433 . S
C2125 N2128 1.384 . S
C2126 H2117 0.929 . S
C2126 C2118 1.378 . S
C2126 C2121 1.350 . S
C2127 H2114 0.929 . S
C2127 C2119 1.433 . S
C2127 N2129 1.384 . S
N2128 C2124 1.427 . S
N2128 C2125 1.384 . S
N2129 C2121 1.427 . S
N2129 C2127 1.384 . S
H2130 C2136 0.930 . S
H2131 C2140 0.930 . S
H2132 C2145 0.929 . S
H2133 C2143 0.929 . S
H2134 C2138 0.929 . S
H2135 C2144 0.929 . S
C2136 H2130 0.930 . S
C2136 C2137 1.367 . S
C2136 C2144 1.378 . S
C2137 C2136 1.367 . S
C2137 C2145 1.433 . S
C2138 H2134 0.929 . S
C2138 C2140 1.378 . S
C2138 C2142 1.350 . S
C2139 C2142 1.463 . S
C2139 C2144 1.350 . S
C2139 N2147 1.427 . S
C2140 H2131 0.930 . S
C2140 C2138 1.378 . S
C2140 C2141 1.367 . S
C2141 C2140 1.367 . S
C2141 C2143 1.433 . S
C2142 C2138 1.350 . S
C2142 C2139 1.463 . S
C2142 N2146 1.427 . S
C2143 H2133 0.929 . S
C2143 C2141 1.433 . S
C2143 N2146 1.384 . S
C2144 H2135 0.929 . S
C2144 C2136 1.378 . S
C2144 C2139 1.350 . S
C2145 H2132 0.929 . S
C2145 C2137 1.433 . S
C2145 N2147 1.384 . S
N2146 C2142 1.427 . S
N2146 C2143 1.384 . S
N2147 C2139 1.427 . S
N2147 C2145 1.384 . S
H2148 C2154 0.930 . S
H2149 C2158 0.930 . S
H2150 C2163 0.929 . S
H2151 C2161 0.929 . S
H2152 C2156 0.929 . S
H2153 C2162 0.929 . S
C2154 H2148 0.930 . S
C2154 C2155 1.367 . S
C2154 C2162 1.378 . S
C2155 C2154 1.367 . S
C2155 C2163 1.433 . S
C2156 H2152 0.929 . S
C2156 C2158 1.378 . S
C2156 C2160 1.350 . S
C2157 C2160 1.463 . S
C2157 C2162 1.350 . S
C2157 N2165 1.427 . S
C2158 H2149 0.930 . S
C2158 C2156 1.378 . S
C2158 C2159 1.367 . S
C2159 C2158 1.367 . S
C2159 C2161 1.433 . S
C2160 C2156 1.350 . S
C2160 C2157 1.463 . S
C2160 N2164 1.427 . S
C2161 H2151 0.929 . S
C2161 C2159 1.433 . S
C2161 N2164 1.384 . S
C2162 H2153 0.929 . S
C2162 C2154 1.378 . S
C2162 C2157 1.350 . S
C2163 H2150 0.929 . S
C2163 C2155 1.433 . S
C2163 N2165 1.384 . S
N2164 C2160 1.427 . S
N2164 C2161 1.384 . S
N2165 C2157 1.427 . S
N2165 C2163 1.384 . S
H2166 C2172 0.930 . S
H2167 C2176 0.930 . S
H2168 C2181 0.929 . S
H2169 C2179 0.929 . S
H2170 C2174 0.929 . S
H2171 C2180 0.929 . S
C2172 H2166 0.930 . S
C2172 C2173 1.367 . S
C2172 C2180 1.378 . S
C2173 C2172 1.367 . S
C2173 C2181 1.433 . S
C2174 H2170 0.929 . S
C2174 C2176 1.378 . S
C2174 C2178 1.350 . S
C2175 C2178 1.463 . S
C2175 C2180 1.350 . S
C2175 N2183 1.427 . S
C2176 H2167 0.930 . S
C2176 C2174 1.378 . S
C2176 C2177 1.367 . S
C2177 C2176 1.367 . S
C2177 C2179 1.433 . S
C2178 C2174 1.350 . S
C2178 C2175 1.463 . S
C2178 N2182 1.427 . S
C2179 H2169 0.929 . S
C2179 C2177 1.433 . S
C2179 N2182 1.384 . S
C2180 H2171 0.929 . S
C2180 C2172 1.378 . S
C2180 C2175 1.350 . S
C2181 H2168 0.929 . S
C2181 C2173 1.433 . S
C2181 N2183 1.384 . S
N2182 C2178 1.427 . S
N2182 C2179 1.384 . S
N2183 C2175 1.427 . S
N2183 C2181 1.384 . S
H2184 C2190 0.930 . S
H2185 C2194 0.930 . S
H2186 C2199 0.929 . S
H2187 C2197 0.929 . S
H2188 C2192 0.929 . S
H2189 C2198 0.929 . S
C2190 H2184 0.930 . S
C2190 C2191 1.367 . S
C2190 C2198 1.378 . S
C2191 C2190 1.367 . S
C2191 C2199 1.433 . S
C2192 H2188 0.929 . S
C2192 C2194 1.378 . S
C2192 C2196 1.350 . S
C2193 C2196 1.463 . S
C2193 C2198 1.350 . S
C2193 N2201 1.427 . S
C2194 H2185 0.930 . S
C2194 C2192 1.378 . S
C2194 C2195 1.367 . S
C2195 C2194 1.367 . S
C2195 C2197 1.433 . S
C2196 C2192 1.350 . S
C2196 C2193 1.463 . S
C2196 N2200 1.427 . S
C2197 H2187 0.929 . S
C2197 C2195 1.433 . S
C2197 N2200 1.384 . S
C2198 H2189 0.929 . S
C2198 C2190 1.378 . S
C2198 C2193 1.350 . S
C2199 H2186 0.929 . S
C2199 C2191 1.433 . S
C2199 N2201 1.384 . S
N2200 C2196 1.427 . S
N2200 C2197 1.384 . S
N2201 C2193 1.427 . S
N2201 C2199 1.384 . S
H2202 C2208 0.930 . S
H2203 C2212 0.930 . S
H2204 C2217 0.929 . S
H2205 C2215 0.929 . S
H2206 C2210 0.929 . S
H2207 C2216 0.929 . S
C2208 H2202 0.930 . S
C2208 C2209 1.367 . S
C2208 C2216 1.378 . S
C2209 C2208 1.367 . S
C2209 C2217 1.433 . S
C2210 H2206 0.929 . S
C2210 C2212 1.378 . S
C2210 C2214 1.350 . S
C2211 C2214 1.463 . S
C2211 C2216 1.350 . S
C2211 N2219 1.427 . S
C2212 H2203 0.930 . S
C2212 C2210 1.378 . S
C2212 C2213 1.367 . S
C2213 C2212 1.367 . S
C2213 C2215 1.433 . S
C2214 C2210 1.350 . S
C2214 C2211 1.463 . S
C2214 N2218 1.427 . S
C2215 H2205 0.929 . S
C2215 C2213 1.433 . S
C2215 N2218 1.384 . S
C2216 H2207 0.929 . S
C2216 C2208 1.378 . S
C2216 C2211 1.350 . S
C2217 H2204 0.929 . S
C2217 C2209 1.433 . S
C2217 N2219 1.384 . S
N2218 C2214 1.427 . S
N2218 C2215 1.384 . S
N2219 C2211 1.427 . S
N2219 C2217 1.384 . S
H2220 C2226 0.930 . S
H2221 C2230 0.930 1_554 S
H2222 C2235 0.929 . S
H2223 C2233 0.929 . S
H2224 C2228 0.929 . S
H2225 C2234 0.929 . S
C2226 H2220 0.930 . S
C2226 C2227 1.367 . S
C2226 C2234 1.378 . S
C2227 C2226 1.367 . S
C2227 C2235 1.433 . S
C2228 H2224 0.929 . S
C2228 C2230 1.378 . S
C2228 C2232 1.350 . S
C2229 C2232 1.463 . S
C2229 C2234 1.350 . S
C2229 N2237 1.427 . S
C2230 H2221 0.930 1_556 S
C2230 C2228 1.378 . S
C2230 C2231 1.367 . S
C2231 C2230 1.367 . S
C2231 C2233 1.433 . S
C2232 C2228 1.350 . S
C2232 C2229 1.463 . S
C2232 N2236 1.427 . S
C2233 H2223 0.929 . S
C2233 C2231 1.433 . S
C2233 N2236 1.384 . S
C2234 H2225 0.929 . S
C2234 C2226 1.378 . S
C2234 C2229 1.350 . S
C2235 H2222 0.929 . S
C2235 C2227 1.433 . S
C2235 N2237 1.384 . S
N2236 C2232 1.427 . S
N2236 C2233 1.384 . S
N2237 C2229 1.427 . S
N2237 C2235 1.384 . S
H2238 C2244 0.930 . S
H2239 C2248 0.930 . S
H2240 C2253 0.929 . S
H2241 C2251 0.929 . S
H2242 C2246 0.929 . S
H2243 C2252 0.929 . S
C2244 H2238 0.930 . S
C2244 C2245 1.367 . S
C2244 C2252 1.378 . S
C2245 C2244 1.367 . S
C2245 C2253 1.433 . S
C2246 H2242 0.929 . S
C2246 C2248 1.378 . S
C2246 C2250 1.350 . S
C2247 C2250 1.463 . S
C2247 C2252 1.350 . S
C2247 N2255 1.427 . S
C2248 H2239 0.930 . S
C2248 C2246 1.378 . S
C2248 C2249 1.367 . S
C2249 C2248 1.367 . S
C2249 C2251 1.433 . S
C2250 C2246 1.350 . S
C2250 C2247 1.463 . S
C2250 N2254 1.427 . S
C2251 H2241 0.929 . S
C2251 C2249 1.433 . S
C2251 N2254 1.384 . S
C2252 H2243 0.929 . S
C2252 C2244 1.378 . S
C2252 C2247 1.350 . S
C2253 H2240 0.929 . S
C2253 C2245 1.433 . S
C2253 N2255 1.384 . S
N2254 C2250 1.427 . S
N2254 C2251 1.384 . S
N2255 C2247 1.427 . S
N2255 C2253 1.384 . S
H2256 C2262 0.930 . S
H2257 C2266 0.930 . S
H2258 C2271 0.929 . S
H2259 C2269 0.929 . S
H2260 C2264 0.929 . S
H2261 C2270 0.929 . S
C2262 H2256 0.930 . S
C2262 C2263 1.367 . S
C2262 C2270 1.378 . S
C2263 C2262 1.367 . S
C2263 C2271 1.433 1_545 S
C2264 H2260 0.929 . S
C2264 C2266 1.378 . S
C2264 C2268 1.350 1_565 S
C2265 C2268 1.463 . S
C2265 C2270 1.350 . S
C2265 N2273 1.427 1_545 S
C2266 H2257 0.930 . S
C2266 C2264 1.378 . S
C2266 C2267 1.367 1_565 S
C2267 C2266 1.367 1_545 S
C2267 C2269 1.433 . S
C2268 C2264 1.350 1_545 S
C2268 C2265 1.463 . S
C2268 N2272 1.427 . S
C2269 H2259 0.929 . S
C2269 C2267 1.433 . S
C2269 N2272 1.384 . S
C2270 H2261 0.929 . S
C2270 C2262 1.378 . S
C2270 C2265 1.350 . S
C2271 H2258 0.929 . S
C2271 C2263 1.433 1_565 S
C2271 N2273 1.384 . S
N2272 C2268 1.427 . S
N2272 C2269 1.384 . S
N2273 C2265 1.427 1_565 S
N2273 C2271 1.384 . S
H2274 C2280 0.930 . S
H2275 C2284 0.930 . S
H2276 C2289 0.929 . S
H2277 C2287 0.929 . S
H2278 C2282 0.929 . S
H2279 C2288 0.929 . S
C2280 H2274 0.930 . S
C2280 C2281 1.367 . S
C2280 C2288 1.378 . S
C2281 C2280 1.367 . S
C2281 C2289 1.433 . S
C2282 H2278 0.929 . S
C2282 C2284 1.378 . S
C2282 C2286 1.350 . S
C2283 C2286 1.463 . S
C2283 C2288 1.350 . S
C2283 N2291 1.427 . S
C2284 H2275 0.930 . S
C2284 C2282 1.378 . S
C2284 C2285 1.367 . S
C2285 C2284 1.367 . S
C2285 C2287 1.433 . S
C2286 C2282 1.350 . S
C2286 C2283 1.463 . S
C2286 N2290 1.427 . S
C2287 H2277 0.929 . S
C2287 C2285 1.433 . S
C2287 N2290 1.384 . S
C2288 H2279 0.929 . S
C2288 C2280 1.378 . S
C2288 C2283 1.350 . S
C2289 H2276 0.929 . S
C2289 C2281 1.433 . S
C2289 N2291 1.384 . S
N2290 C2286 1.427 . S
N2290 C2287 1.384 . S
N2291 C2283 1.427 . S
N2291 C2289 1.384 . S
H2292 C2298 0.930 . S
H2293 C2302 0.930 . S
H2294 C2307 0.929 1_565 S
H2295 C2305 0.929 . S
H2296 C2300 0.958 . S
H2297 C2306 0.929 . S
C2298 H2292 0.930 . S
C2298 C2299 1.367 . S
C2298 C2306 1.378 . S
C2299 C2298 1.367 . S
C2299 C2307 1.433 . S
C2300 H2296 0.958 . S
C2300 C2302 1.378 . S
C2300 C2304 1.350 . S
C2301 C2304 1.463 . S
C2301 C2306 1.350 . S
C2301 N2309 1.427 . S
C2302 H2293 0.930 . S
C2302 C2300 1.378 . S
C2302 C2303 1.367 . S
C2303 C2302 1.367 . S
C2303 C2305 1.433 . S
C2304 C2300 1.350 . S
C2304 C2301 1.463 . S
C2304 N2308 1.427 . S
C2305 H2295 0.929 . S
C2305 C2303 1.433 . S
C2305 N2308 1.384 . S
C2306 H2297 0.929 . S
C2306 C2298 1.378 . S
C2306 C2301 1.350 . S
C2307 H2294 0.929 1_545 S
C2307 C2299 1.433 . S
C2307 N2309 1.384 . S
N2308 C2304 1.427 . S
N2308 C2305 1.384 . S
N2309 C2301 1.427 . S
N2309 C2307 1.384 . S
H2310 C2316 0.930 . S
H2311 C2320 0.930 . S
H2312 C2325 0.929 . S
H2313 C2323 0.929 . S
H2314 C2318 0.929 . S
H2315 C2324 0.929 . S
C2316 H2310 0.930 . S
C2316 C2317 1.367 . S
C2316 C2324 1.378 . S
C2317 C2316 1.367 . S
C2317 C2325 1.433 . S
C2318 H2314 0.929 . S
C2318 C2320 1.378 . S
C2318 C2322 1.350 . S
C2319 C2322 1.463 . S
C2319 C2324 1.350 . S
C2319 N2327 1.427 . S
C2320 H2311 0.930 . S
C2320 C2318 1.378 . S
C2320 C2321 1.367 . S
C2321 C2320 1.367 . S
C2321 C2323 1.433 . S
C2322 C2318 1.350 . S
C2322 C2319 1.463 . S
C2322 N2326 1.427 . S
C2323 H2313 0.929 . S
C2323 C2321 1.433 . S
C2323 N2326 1.384 . S
C2324 H2315 0.929 . S
C2324 C2316 1.378 . S
C2324 C2319 1.350 . S
C2325 H2312 0.929 . S
C2325 C2317 1.433 . S
C2325 N2327 1.384 . S
N2326 C2322 1.427 . S
N2326 C2323 1.384 . S
N2327 C2319 1.427 . S
N2327 C2325 1.384 . S
H2328 C2334 0.930 . S
H2329 C2338 0.930 . S
H2330 C2343 0.929 . S
H2331 C2341 0.949 . S
H2332 C2336 0.929 . S
H2333 C2342 0.929 . S
C2334 H2328 0.930 . S
C2334 C2335 1.367 . S
C2334 C2342 1.378 . S
C2335 C2334 1.367 . S
C2335 C2343 1.433 1_565 S
C2336 H2332 0.929 . S
C2336 C2338 1.378 . S
C2336 C2340 1.350 . S
C2337 C2340 1.463 . S
C2337 C2342 1.350 1_545 S
C2337 N2345 1.427 . S
C2338 H2329 0.930 . S
C2338 C2336 1.378 . S
C2338 C2339 1.367 . S
C2339 C2338 1.367 . S
C2339 C2341 1.394 1_545 S
C2340 C2336 1.350 . S
C2340 C2337 1.463 . S
C2340 N2344 1.427 1_545 S
C2341 H2331 0.949 . S
C2341 C2339 1.394 1_565 S
C2341 N2344 1.403 . S
C2342 H2333 0.929 . S
C2342 C2334 1.378 . S
C2342 C2337 1.350 1_565 S
C2343 H2330 0.929 . S
C2343 C2335 1.433 1_545 S
C2343 N2345 1.384 . S
N2344 C2340 1.427 1_565 S
N2344 C2341 1.403 . S
N2345 C2337 1.427 . S
N2345 C2343 1.384 . S
H2346 C2352 0.930 . S
H2347 C2356 0.930 . S
H2348 C2361 0.929 . S
H2349 C2359 0.929 . S
H2350 C2354 0.929 . S
H2351 C2360 0.929 . S
C2352 H2346 0.930 . S
C2352 C2353 1.367 . S
C2352 C2360 1.378 . S
C2353 C2352 1.367 . S
C2353 C2361 1.433 . S
C2354 H2350 0.929 . S
C2354 C2356 1.378 . S
C2354 C2358 1.350 . S
C2355 C2358 1.463 . S
C2355 C2360 1.350 . S
C2355 N2363 1.427 . S
C2356 H2347 0.930 . S
C2356 C2354 1.378 . S
C2356 C2357 1.367 . S
C2357 C2356 1.367 . S
C2357 C2359 1.433 . S
C2358 C2354 1.350 . S
C2358 C2355 1.463 . S
C2358 N2362 1.427 . S
C2359 H2349 0.929 . S
C2359 C2357 1.433 . S
C2359 N2362 1.384 . S
C2360 H2351 0.929 . S
C2360 C2352 1.378 . S
C2360 C2355 1.350 . S
C2361 H2348 0.929 . S
C2361 C2353 1.433 . S
C2361 N2363 1.384 . S
N2362 C2358 1.427 . S
N2362 C2359 1.384 . S
N2363 C2355 1.427 . S
N2363 C2361 1.384 . S
H2364 C2370 0.930 . S
H2365 C2374 0.930 1_565 S
H2366 C2379 0.929 . S
H2367 C2377 0.929 . S
H2368 C2372 0.929 1_565 S
H2369 C2378 0.929 . S
C2370 H2364 0.930 . S
C2370 C2371 1.367 . S
C2370 C2378 1.378 . S
C2371 C2370 1.367 . S
C2371 C2379 1.433 1_545 S
C2372 H2368 0.929 1_545 S
C2372 C2374 1.378 . S
C2372 C2376 1.350 . S
C2373 C2376 1.463 . S
C2373 C2378 1.350 . S
C2373 N2381 1.428 1_545 S
C2374 H2365 0.930 1_545 S
C2374 C2372 1.378 . S
C2374 C2375 1.367 . S
C2375 C2374 1.367 . S
C2375 C2377 1.433 . S
C2376 C2372 1.350 . S
C2376 C2373 1.463 . S
C2376 N2380 1.427 . S
C2377 H2367 0.929 . S
C2377 C2375 1.433 . S
C2377 N2380 1.384 . S
C2378 H2369 0.929 . S
C2378 C2370 1.378 . S
C2378 C2373 1.350 . S
C2379 H2366 0.929 . S
C2379 C2371 1.433 1_565 S
C2379 N2381 1.383 . S
N2380 C2376 1.427 . S
N2380 C2377 1.384 . S
N2381 C2373 1.428 1_565 S
N2381 C2379 1.383 . S
H2382 C2388 0.930 . S
H2383 C2392 0.930 . S
H2384 C2397 0.929 . S
H2385 C2395 0.929 . S
H2386 C2390 0.929 . S
H2387 C2396 0.929 . S
C2388 H2382 0.930 . S
C2388 C2389 1.367 . S
C2388 C2396 1.378 . S
C2389 C2388 1.367 . S
C2389 C2397 1.433 . S
C2390 H2386 0.929 . S
C2390 C2392 1.378 . S
C2390 C2394 1.350 . S
C2391 C2394 1.463 . S
C2391 C2396 1.350 . S
C2391 N2399 1.427 . S
C2392 H2383 0.930 . S
C2392 C2390 1.378 . S
C2392 C2393 1.367 . S
C2393 C2392 1.367 . S
C2393 C2395 1.433 . S
C2394 C2390 1.350 . S
C2394 C2391 1.463 . S
C2394 N2398 1.427 . S
C2395 H2385 0.929 . S
C2395 C2393 1.433 . S
C2395 N2398 1.384 . S
C2396 H2387 0.929 . S
C2396 C2388 1.378 . S
C2396 C2391 1.350 . S
C2397 H2384 0.929 . S
C2397 C2389 1.433 . S
C2397 N2399 1.384 . S
N2398 C2394 1.427 . S
N2398 C2395 1.384 . S
N2399 C2391 1.427 . S
N2399 C2397 1.384 . S
H2400 C2406 0.908 1_556 S
H2401 C2410 0.930 . S
H2402 C2415 0.929 . S
H2403 C2413 0.929 . S
H2404 C2408 0.929 . S
H2405 C2414 0.929 1_556 S
C2406 H2400 0.908 1_554 S
C2406 C2407 1.367 . S
C2406 C2414 1.378 . S
C2407 C2406 1.367 . S
C2407 C2415 1.433 . S
C2408 H2404 0.929 . S
C2408 C2410 1.378 . S
C2408 C2412 1.350 . S
C2409 C2412 1.463 . S
C2409 C2414 1.350 . S
C2409 N2417 1.427 . S
C2410 H2401 0.930 . S
C2410 C2408 1.378 . S
C2410 C2411 1.367 . S
C2411 C2410 1.367 . S
C2411 C2413 1.433 1_554 S
C2412 C2408 1.350 . S
C2412 C2409 1.463 . S
C2412 N2416 1.399 1_554 S
C2413 H2403 0.929 . S
C2413 C2411 1.433 1_556 S
C2413 N2416 1.390 . S
C2414 H2405 0.929 1_554 S
C2414 C2406 1.378 . S
C2414 C2409 1.350 . S
C2415 H2402 0.929 . S
C2415 C2407 1.433 . S
C2415 N2417 1.384 . S
N2416 C2412 1.399 1_556 S
N2416 C2413 1.390 . S
N2417 C2409 1.427 . S
N2417 C2415 1.384 . S
H2418 C2424 0.930 . S
H2419 C2428 0.930 . S
H2420 C2433 0.929 . S
H2421 C2431 0.929 . S
H2422 C2426 0.929 . S
H2423 C2432 0.929 . S
C2424 H2418 0.930 . S
C2424 C2425 1.367 . S
C2424 C2432 1.378 . S
C2425 C2424 1.367 . S
C2425 C2433 1.433 . S
C2426 H2422 0.929 . S
C2426 C2428 1.378 . S
C2426 C2430 1.350 . S
C2427 C2430 1.463 . S
C2427 C2432 1.350 . S
C2427 N2435 1.427 . S
C2428 H2419 0.930 . S
C2428 C2426 1.378 . S
C2428 C2429 1.367 . S
C2429 C2428 1.367 . S
C2429 C2431 1.433 . S
C2430 C2426 1.350 . S
C2430 C2427 1.463 . S
C2430 N2434 1.427 . S
C2431 H2421 0.929 . S
C2431 C2429 1.433 . S
C2431 N2434 1.384 . S
C2432 H2423 0.929 . S
C2432 C2424 1.378 . S
C2432 C2427 1.350 . S
C2433 H2420 0.929 . S
C2433 C2425 1.433 . S
C2433 N2435 1.384 . S
N2434 C2430 1.427 . S
N2434 C2431 1.384 . S
N2435 C2427 1.427 . S
N2435 C2433 1.384 . S
H2436 C2442 0.930 . S
H2437 C2446 0.930 . S
H2438 C2451 0.929 . S
H2439 C2449 0.929 . S
H2440 C2444 0.929 . S
H2441 C2450 0.929 . S
C2442 H2436 0.930 . S
C2442 C2443 1.367 . S
C2442 C2450 1.378 . S
C2443 C2442 1.367 . S
C2443 C2451 1.433 . S
C2444 H2440 0.929 . S
C2444 C2446 1.378 . S
C2444 C2448 1.350 . S
C2445 C2448 1.463 . S
C2445 C2450 1.350 . S
C2445 N2453 1.427 . S
C2446 H2437 0.930 . S
C2446 C2444 1.378 . S
C2446 C2447 1.367 . S
C2447 C2446 1.367 . S
C2447 C2449 1.433 . S
C2448 C2444 1.350 . S
C2448 C2445 1.463 . S
C2448 N2452 1.427 . S
C2449 H2439 0.929 . S
C2449 C2447 1.433 . S
C2449 N2452 1.384 . S
C2450 H2441 0.929 . S
C2450 C2442 1.378 . S
C2450 C2445 1.350 . S
C2451 H2438 0.929 . S
C2451 C2443 1.433 . S
C2451 N2453 1.384 . S
N2452 C2448 1.427 . S
N2452 C2449 1.384 . S
N2453 C2445 1.427 . S
N2453 C2451 1.384 . S
H2454 C2460 0.930 . S
H2455 C2464 0.930 . S
H2456 C2469 0.929 . S
H2457 C2467 0.929 . S
H2458 C2462 0.929 . S
H2459 C2468 0.929 . S
C2460 H2454 0.930 . S
C2460 C2461 1.367 . S
C2460 C2468 1.378 . S
C2461 C2460 1.367 . S
C2461 C2469 1.433 . S
C2462 H2458 0.929 . S
C2462 C2464 1.378 . S
C2462 C2466 1.350 . S
C2463 C2466 1.463 . S
C2463 C2468 1.350 . S
C2463 N2471 1.427 . S
C2464 H2455 0.930 . S
C2464 C2462 1.378 . S
C2464 C2465 1.367 . S
C2465 C2464 1.367 . S
C2465 C2467 1.433 . S
C2466 C2462 1.350 . S
C2466 C2463 1.463 . S
C2466 N2470 1.427 . S
C2467 H2457 0.929 . S
C2467 C2465 1.433 . S
C2467 N2470 1.384 . S
C2468 H2459 0.929 . S
C2468 C2460 1.378 . S
C2468 C2463 1.350 . S
C2469 H2456 0.929 . S
C2469 C2461 1.433 . S
C2469 N2471 1.384 . S
N2470 C2466 1.427 . S
N2470 C2467 1.384 . S
N2471 C2463 1.427 . S
N2471 C2469 1.384 . S
H2472 C2478 0.930 . S
H2473 C2482 0.930 . S
H2474 C2487 0.907 1_545 S
H2475 C2485 0.929 . S
H2476 C2480 0.929 . S
H2477 C2486 0.929 . S
C2478 H2472 0.930 . S
C2478 C2479 1.367 . S
C2478 C2486 1.378 . S
C2479 C2478 1.367 . S
C2479 C2487 1.433 . S
C2480 H2476 0.929 . S
C2480 C2482 1.378 . S
C2480 C2484 1.350 . S
C2481 C2484 1.463 . S
C2481 C2486 1.350 . S
C2481 N2489 1.427 . S
C2482 H2473 0.930 . S
C2482 C2480 1.378 . S
C2482 C2483 1.367 . S
C2483 C2482 1.367 . S
C2483 C2485 1.433 . S
C2484 C2480 1.350 . S
C2484 C2481 1.463 . S
C2484 N2488 1.427 . S
C2485 H2475 0.929 . S
C2485 C2483 1.433 . S
C2485 N2488 1.384 . S
C2486 H2477 0.929 . S
C2486 C2478 1.378 . S
C2486 C2481 1.350 . S
C2487 H2474 0.907 1_565 S
C2487 C2479 1.433 . S
C2487 N2489 1.384 . S
N2488 C2484 1.427 . S
N2488 C2485 1.384 . S
N2489 C2481 1.427 . S
N2489 C2487 1.384 . S
H2490 C2496 0.930 . S
H2491 C2500 0.930 . S
H2492 C2505 0.929 . S
H2493 C2503 0.929 . S
H2494 C2498 0.929 . S
H2495 C2504 0.929 . S
C2496 H2490 0.930 . S
C2496 C2497 1.367 . S
C2496 C2504 1.378 . S
C2497 C2496 1.367 . S
C2497 C2505 1.433 . S
C2498 H2494 0.929 . S
C2498 C2500 1.378 . S
C2498 C2502 1.350 . S
C2499 C2502 1.463 . S
C2499 C2504 1.350 . S
C2499 N2507 1.427 . S
C2500 H2491 0.930 . S
C2500 C2498 1.378 . S
C2500 C2501 1.367 . S
C2501 C2500 1.367 . S
C2501 C2503 1.433 . S
C2502 C2498 1.350 . S
C2502 C2499 1.463 . S
C2502 N2506 1.427 . S
C2503 H2493 0.929 . S
C2503 C2501 1.433 . S
C2503 N2506 1.384 . S
C2504 H2495 0.929 . S
C2504 C2496 1.378 . S
C2504 C2499 1.350 . S
C2505 H2492 0.929 . S
C2505 C2497 1.433 . S
C2505 N2507 1.384 . S
N2506 C2502 1.427 . S
N2506 C2503 1.384 . S
N2507 C2499 1.427 . S
N2507 C2505 1.384 . S
H2508 C2514 0.930 . S
H2509 C2518 0.930 . S
H2510 C2523 0.929 . S
H2511 C2521 0.929 . S
H2512 C2516 0.929 . S
H2513 C2522 0.929 . S
C2514 H2508 0.930 . S
C2514 C2515 1.367 . S
C2514 C2522 1.378 . S
C2515 C2514 1.367 . S
C2515 C2523 1.433 . S
C2516 H2512 0.929 . S
C2516 C2518 1.378 . S
C2516 C2520 1.350 . S
C2517 C2520 1.463 . S
C2517 C2522 1.350 . S
C2517 N2525 1.427 . S
C2518 H2509 0.930 . S
C2518 C2516 1.378 . S
C2518 C2519 1.367 . S
C2519 C2518 1.367 . S
C2519 C2521 1.433 . S
C2520 C2516 1.350 . S
C2520 C2517 1.463 . S
C2520 N2524 1.427 . S
C2521 H2511 0.929 . S
C2521 C2519 1.433 . S
C2521 N2524 1.384 . S
C2522 H2513 0.929 . S
C2522 C2514 1.378 . S
C2522 C2517 1.350 . S
C2523 H2510 0.929 . S
C2523 C2515 1.433 . S
C2523 N2525 1.384 . S
N2524 C2520 1.427 . S
N2524 C2521 1.384 . S
N2525 C2517 1.427 . S
N2525 C2523 1.384 . S
H2526 C2532 0.930 . S
H2527 C2536 0.930 . S
H2528 C2541 0.929 . S
H2529 C2539 0.929 . S
H2530 C2534 0.929 . S
H2531 C2540 0.929 . S
C2532 H2526 0.930 . S
C2532 C2533 1.367 . S
C2532 C2540 1.378 . S
C2533 C2532 1.367 . S
C2533 C2541 1.433 . S
C2534 H2530 0.929 . S
C2534 C2536 1.378 . S
C2534 C2538 1.350 . S
C2535 C2538 1.463 . S
C2535 C2540 1.350 . S
C2535 N2543 1.427 . S
C2536 H2527 0.930 . S
C2536 C2534 1.378 . S
C2536 C2537 1.367 . S
C2537 C2536 1.367 . S
C2537 C2539 1.433 . S
C2538 C2534 1.350 . S
C2538 C2535 1.463 . S
C2538 N2542 1.427 . S
C2539 H2529 0.929 . S
C2539 C2537 1.433 . S
C2539 N2542 1.384 . S
C2540 H2531 0.929 . S
C2540 C2532 1.378 . S
C2540 C2535 1.350 . S
C2541 H2528 0.929 . S
C2541 C2533 1.433 . S
C2541 N2543 1.384 . S
N2542 C2538 1.427 . S
N2542 C2539 1.384 . S
N2543 C2535 1.427 . S
N2543 C2541 1.384 . S
H2544 C2550 0.930 . S
H2545 C2554 0.930 . S
H2546 C2559 0.929 . S
H2547 C2557 0.929 . S
H2548 C2552 0.929 . S
H2549 C2558 0.929 . S
C2550 H2544 0.930 . S
C2550 C2551 1.367 . S
C2550 C2558 1.378 . S
C2551 C2550 1.367 . S
C2551 C2559 1.433 . S
C2552 H2548 0.929 . S
C2552 C2554 1.378 . S
C2552 C2556 1.350 . S
C2553 C2556 1.463 . S
C2553 C2558 1.350 . S
C2553 N2561 1.427 . S
C2554 H2545 0.930 . S
C2554 C2552 1.378 . S
C2554 C2555 1.367 . S
C2555 C2554 1.367 . S
C2555 C2557 1.433 . S
C2556 C2552 1.350 . S
C2556 C2553 1.463 . S
C2556 N2560 1.427 . S
C2557 H2547 0.929 . S
C2557 C2555 1.433 . S
C2557 N2560 1.384 . S
C2558 H2549 0.929 . S
C2558 C2550 1.378 . S
C2558 C2553 1.350 . S
C2559 H2546 0.929 . S
C2559 C2551 1.433 . S
C2559 N2561 1.384 . S
N2560 C2556 1.427 . S
N2560 C2557 1.384 . S
N2561 C2553 1.427 . S
N2561 C2559 1.384 . S
H2562 C2568 0.930 . S
H2563 C2572 0.930 . S
H2564 C2577 0.929 . S
H2565 C2575 0.929 . S
H2566 C2570 0.929 . S
H2567 C2576 0.929 . S
C2568 H2562 0.930 . S
C2568 C2569 1.367 . S
C2568 C2576 1.378 . S
C2569 C2568 1.367 . S
C2569 C2577 1.433 . S
C2570 H2566 0.929 . S
C2570 C2572 1.378 . S
C2570 C2574 1.350 . S
C2571 C2574 1.463 . S
C2571 C2576 1.350 . S
C2571 N2579 1.427 . S
C2572 H2563 0.930 . S
C2572 C2570 1.378 . S
C2572 C2573 1.367 . S
C2573 C2572 1.367 . S
C2573 C2575 1.433 . S
C2574 C2570 1.350 . S
C2574 C2571 1.463 . S
C2574 N2578 1.427 . S
C2575 H2565 0.929 . S
C2575 C2573 1.433 . S
C2575 N2578 1.384 . S
C2576 H2567 0.929 . S
C2576 C2568 1.378 . S
C2576 C2571 1.350 . S
C2577 H2564 0.929 . S
C2577 C2569 1.433 . S
C2577 N2579 1.384 . S
N2578 C2574 1.427 . S
N2578 C2575 1.384 . S
N2579 C2571 1.427 . S
N2579 C2577 1.384 . S
H2580 C2586 0.930 . S
H2581 C2590 0.930 . S
H2582 C2595 0.929 . S
H2583 C2593 0.929 . S
H2584 C2588 0.929 . S
H2585 C2594 0.929 1_554 S
C2586 H2580 0.930 . S
C2586 C2587 1.367 . S
C2586 C2594 1.378 . S
C2587 C2586 1.367 . S
C2587 C2595 1.433 . S
C2588 H2584 0.929 . S
C2588 C2590 1.378 . S
C2588 C2592 1.350 . S
C2589 C2592 1.463 . S
C2589 C2594 1.350 . S
C2589 N2597 1.427 . S
C2590 H2581 0.930 . S
C2590 C2588 1.378 . S
C2590 C2591 1.367 1_556 S
C2591 C2590 1.367 1_554 S
C2591 C2593 1.433 . S
C2592 C2588 1.350 . S
C2592 C2589 1.463 . S
C2592 N2596 1.427 1_556 S
C2593 H2583 0.929 . S
C2593 C2591 1.433 . S
C2593 N2596 1.384 . S
C2594 H2585 0.929 1_556 S
C2594 C2586 1.378 . S
C2594 C2589 1.350 . S
C2595 H2582 0.929 . S
C2595 C2587 1.433 . S
C2595 N2597 1.384 . S
N2596 C2592 1.427 1_554 S
N2596 C2593 1.384 . S
N2597 C2589 1.427 . S
N2597 C2595 1.384 . S
H2598 C2604 0.930 . S
H2599 C2608 0.930 . S
H2600 C2613 0.929 . S
H2601 C2611 0.929 . S
H2602 C2606 0.929 . S
H2603 C2612 0.929 . S
C2604 H2598 0.930 . S
C2604 C2605 1.367 . S
C2604 C2612 1.378 . S
C2605 C2604 1.367 . S
C2605 C2613 1.433 . S
C2606 H2602 0.929 . S
C2606 C2608 1.378 . S
C2606 C2610 1.350 . S
C2607 C2610 1.463 . S
C2607 C2612 1.350 1_655 S
C2607 N2615 1.427 . S
C2608 H2599 0.930 . S
C2608 C2606 1.378 . S
C2608 C2609 1.367 . S
C2609 C2608 1.367 . S
C2609 C2611 1.433 . S
C2610 C2606 1.350 . S
C2610 C2607 1.463 . S
C2610 N2614 1.427 . S
C2611 H2601 0.929 . S
C2611 C2609 1.433 . S
C2611 N2614 1.384 . S
C2612 H2603 0.929 . S
C2612 C2604 1.378 . S
C2612 C2607 1.350 1_455 S
C2613 H2600 0.929 . S
C2613 C2605 1.433 . S
C2613 N2615 1.384 1_455 S
N2614 C2610 1.427 . S
N2614 C2611 1.384 . S
N2615 C2607 1.427 . S
N2615 C2613 1.384 1_655 S
H2616 C2622 0.930 . S
H2617 C2626 0.930 . S
H2618 C2631 0.929 . S
H2619 C2629 0.929 . S
H2620 C2624 0.929 . S
H2621 C2630 0.929 . S
C2622 H2616 0.930 . S
C2622 C2623 1.367 . S
C2622 C2630 1.378 . S
C2623 C2622 1.367 . S
C2623 C2631 1.433 . S
C2624 H2620 0.929 . S
C2624 C2626 1.378 . S
C2624 C2628 1.350 . S
C2625 C2628 1.463 . S
C2625 C2630 1.350 . S
C2625 N2633 1.427 . S
C2626 H2617 0.930 . S
C2626 C2624 1.378 . S
C2626 C2627 1.367 . S
C2627 C2626 1.367 . S
C2627 C2629 1.433 . S
C2628 C2624 1.350 . S
C2628 C2625 1.463 . S
C2628 N2632 1.427 . S
C2629 H2619 0.929 . S
C2629 C2627 1.433 . S
C2629 N2632 1.384 . S
C2630 H2621 0.929 . S
C2630 C2622 1.378 . S
C2630 C2625 1.350 . S
C2631 H2618 0.929 . S
C2631 C2623 1.433 . S
C2631 N2633 1.384 . S
N2632 C2628 1.427 . S
N2632 C2629 1.384 . S
N2633 C2625 1.427 . S
N2633 C2631 1.384 . S
H2634 C2640 0.930 . S
H2635 C2644 0.930 . S
H2636 C2649 0.929 . S
H2637 C2647 0.929 . S
H2638 C2642 0.929 . S
H2639 C2648 0.929 . S
C2640 H2634 0.930 . S
C2640 C2641 1.367 . S
C2640 C2648 1.378 . S
C2641 C2640 1.367 . S
C2641 C2649 1.433 . S
C2642 H2638 0.929 . S
C2642 C2644 1.378 . S
C2642 C2646 1.350 . S
C2643 C2646 1.463 1_455 S
C2643 C2648 1.350 . S
C2643 N2651 1.427 . S
C2644 H2635 0.930 . S
C2644 C2642 1.378 . S
C2644 C2645 1.367 . S
C2645 C2644 1.367 . S
C2645 C2647 1.433 . S
C2646 C2642 1.350 . S
C2646 C2643 1.463 1_655 S
C2646 N2650 1.427 . S
C2647 H2637 0.929 . S
C2647 C2645 1.433 . S
C2647 N2650 1.384 . S
C2648 H2639 0.929 . S
C2648 C2640 1.378 . S
C2648 C2643 1.350 . S
C2649 H2636 0.929 . S
C2649 C2641 1.433 . S
C2649 N2651 1.384 . S
N2650 C2646 1.427 . S
N2650 C2647 1.384 . S
N2651 C2643 1.427 . S
N2651 C2649 1.384 . S
H2652 C2658 0.930 . S
H2653 C2662 0.930 . S
H2654 C2667 0.929 . S
H2655 C2665 0.929 . S
H2656 C2660 0.929 . S
H2657 C2666 0.929 . S
C2658 H2652 0.930 . S
C2658 C2659 1.367 . S
C2658 C2666 1.378 . S
C2659 C2658 1.367 . S
C2659 C2667 1.433 1_655 S
C2660 H2656 0.929 . S
C2660 C2662 1.378 . S
C2660 C2664 1.350 . S
C2661 C2664 1.463 . S
C2661 C2666 1.350 1_455 S
C2661 N2669 1.427 . S
C2662 H2653 0.930 . S
C2662 C2660 1.378 . S
C2662 C2663 1.367 . S
C2663 C2662 1.367 . S
C2663 C2665 1.433 . S
C2664 C2660 1.350 . S
C2664 C2661 1.463 . S
C2664 N2668 1.427 . S
C2665 H2655 0.929 . S
C2665 C2663 1.433 . S
C2665 N2668 1.384 . S
C2666 H2657 0.929 . S
C2666 C2658 1.378 . S
C2666 C2661 1.350 1_655 S
C2667 H2654 0.929 . S
C2667 C2659 1.433 1_455 S
C2667 N2669 1.384 . S
N2668 C2664 1.427 . S
N2668 C2665 1.384 . S
N2669 C2661 1.427 . S
N2669 C2667 1.384 . S
H2670 C2676 0.930 . S
H2671 C2680 0.930 . S
H2672 C2685 0.929 . S
H2673 C2683 0.929 . S
H2674 C2678 0.929 . S
H2675 C2684 0.929 . S
C2676 H2670 0.930 . S
C2676 C2677 1.367 . S
C2676 C2684 1.378 . S
C2677 C2676 1.367 . S
C2677 C2685 1.433 . S
C2678 H2674 0.929 . S
C2678 C2680 1.378 . S
C2678 C2682 1.350 . S
C2679 C2682 1.463 . S
C2679 C2684 1.350 . S
C2679 N2687 1.427 . S
C2680 H2671 0.930 . S
C2680 C2678 1.378 . S
C2680 C2681 1.367 . S
C2681 C2680 1.367 . S
C2681 C2683 1.433 . S
C2682 C2678 1.350 . S
C2682 C2679 1.463 . S
C2682 N2686 1.427 . S
C2683 H2673 0.929 . S
C2683 C2681 1.433 . S
C2683 N2686 1.384 . S
C2684 H2675 0.929 . S
C2684 C2676 1.378 . S
C2684 C2679 1.350 . S
C2685 H2672 0.929 . S
C2685 C2677 1.433 . S
C2685 N2687 1.384 . S
N2686 C2682 1.427 . S
N2686 C2683 1.384 . S
N2687 C2679 1.427 . S
N2687 C2685 1.384 . S
H2688 C2694 0.930 . S
H2689 C2698 0.930 . S
H2690 C2703 0.929 . S
H2691 C2701 0.929 . S
H2692 C2696 0.929 . S
H2693 C2702 0.929 . S
C2694 H2688 0.930 . S
C2694 C2695 1.367 . S
C2694 C2702 1.378 . S
C2695 C2694 1.367 . S
C2695 C2703 1.433 . S
C2696 H2692 0.929 . S
C2696 C2698 1.378 . S
C2696 C2700 1.350 . S
C2697 C2700 1.463 . S
C2697 C2702 1.350 . S
C2697 N2705 1.427 . S
C2698 H2689 0.930 . S
C2698 C2696 1.378 . S
C2698 C2699 1.367 . S
C2699 C2698 1.367 . S
C2699 C2701 1.433 . S
C2700 C2696 1.350 . S
C2700 C2697 1.463 . S
C2700 N2704 1.427 . S
C2701 H2691 0.929 . S
C2701 C2699 1.433 . S
C2701 N2704 1.384 . S
C2702 H2693 0.929 . S
C2702 C2694 1.378 . S
C2702 C2697 1.350 . S
C2703 H2690 0.929 . S
C2703 C2695 1.433 . S
C2703 N2705 1.384 . S
N2704 C2700 1.427 . S
N2704 C2701 1.384 . S
N2705 C2697 1.427 . S
N2705 C2703 1.384 . S
H2706 C2712 0.930 . S
H2707 C2716 0.930 . S
H2708 C2721 0.929 . S
H2709 C2719 0.929 . S
H2710 C2714 0.929 . S
H2711 C2720 0.929 . S
C2712 H2706 0.930 . S
C2712 C2713 1.367 . S
C2712 C2720 1.378 . S
C2713 C2712 1.367 . S
C2713 C2721 1.433 . S
C2714 H2710 0.929 . S
C2714 C2716 1.378 . S
C2714 C2718 1.350 . S
C2715 C2718 1.463 . S
C2715 C2720 1.350 . S
C2715 N2723 1.427 . S
C2716 H2707 0.930 . S
C2716 C2714 1.378 . S
C2716 C2717 1.367 . S
C2717 C2716 1.367 . S
C2717 C2719 1.433 . S
C2718 C2714 1.350 . S
C2718 C2715 1.463 . S
C2718 N2722 1.427 . S
C2719 H2709 0.929 . S
C2719 C2717 1.433 . S
C2719 N2722 1.384 . S
C2720 H2711 0.929 . S
C2720 C2712 1.378 . S
C2720 C2715 1.350 . S
C2721 H2708 0.929 . S
C2721 C2713 1.433 . S
C2721 N2723 1.384 . S
N2722 C2718 1.427 . S
N2722 C2719 1.384 . S
N2723 C2715 1.427 . S
N2723 C2721 1.384 . S
H2724 C2730 0.930 . S
H2725 C2734 0.930 . S
H2726 C2739 0.929 . S
H2727 C2737 0.929 . S
H2728 C2732 0.929 . S
H2729 C2738 0.929 . S
C2730 H2724 0.930 . S
C2730 C2731 1.367 . S
C2730 C2738 1.378 . S
C2731 C2730 1.367 . S
C2731 C2739 1.433 . S
C2732 H2728 0.929 . S
C2732 C2734 1.378 . S
C2732 C2736 1.350 . S
C2733 C2736 1.463 . S
C2733 C2738 1.350 . S
C2733 N2741 1.427 . S
C2734 H2725 0.930 . S
C2734 C2732 1.378 . S
C2734 C2735 1.367 . S
C2735 C2734 1.367 . S
C2735 C2737 1.433 . S
C2736 C2732 1.350 . S
C2736 C2733 1.463 . S
C2736 N2740 1.427 . S
C2737 H2727 0.929 . S
C2737 C2735 1.433 . S
C2737 N2740 1.384 . S
C2738 H2729 0.929 . S
C2738 C2730 1.378 . S
C2738 C2733 1.350 . S
C2739 H2726 0.929 . S
C2739 C2731 1.433 . S
C2739 N2741 1.384 . S
N2740 C2736 1.427 . S
N2740 C2737 1.384 . S
N2741 C2733 1.427 . S
N2741 C2739 1.384 . S
H2742 C2748 0.930 . S
H2743 C2752 0.930 . S
H2744 C2757 0.929 . S
H2745 C2755 0.929 . S
H2746 C2750 0.929 . S
H2747 C2756 0.929 . S
C2748 H2742 0.930 . S
C2748 C2749 1.367 . S
C2748 C2756 1.378 . S
C2749 C2748 1.367 . S
C2749 C2757 1.433 . S
C2750 H2746 0.929 . S
C2750 C2752 1.378 . S
C2750 C2754 1.350 . S
C2751 C2754 1.463 . S
C2751 C2756 1.350 . S
C2751 N2759 1.427 . S
C2752 H2743 0.930 . S
C2752 C2750 1.378 . S
C2752 C2753 1.367 . S
C2753 C2752 1.367 . S
C2753 C2755 1.433 . S
C2754 C2750 1.350 . S
C2754 C2751 1.463 . S
C2754 N2758 1.427 . S
C2755 H2745 0.929 . S
C2755 C2753 1.433 . S
C2755 N2758 1.384 . S
C2756 H2747 0.929 . S
C2756 C2748 1.378 . S
C2756 C2751 1.350 . S
C2757 H2744 0.929 . S
C2757 C2749 1.433 . S
C2757 N2759 1.384 . S
N2758 C2754 1.427 . S
N2758 C2755 1.384 . S
N2759 C2751 1.427 . S
N2759 C2757 1.384 . S
H2760 C2766 0.930 . S
H2761 C2770 0.930 . S
H2762 C2775 0.929 . S
H2763 C2773 0.929 . S
H2764 C2768 0.929 . S
H2765 C2774 0.929 . S
C2766 H2760 0.930 . S
C2766 C2767 1.367 . S
C2766 C2774 1.378 . S
C2767 C2766 1.367 . S
C2767 C2775 1.433 . S
C2768 H2764 0.929 . S
C2768 C2770 1.378 . S
C2768 C2772 1.350 . S
C2769 C2772 1.463 . S
C2769 C2774 1.350 . S
C2769 N2777 1.427 . S
C2770 H2761 0.930 . S
C2770 C2768 1.378 . S
C2770 C2771 1.367 . S
C2771 C2770 1.367 . S
C2771 C2773 1.433 . S
C2772 C2768 1.350 . S
C2772 C2769 1.463 . S
C2772 N2776 1.427 . S
C2773 H2763 0.929 . S
C2773 C2771 1.433 . S
C2773 N2776 1.384 . S
C2774 H2765 0.929 . S
C2774 C2766 1.378 . S
C2774 C2769 1.350 . S
C2775 H2762 0.929 . S
C2775 C2767 1.433 . S
C2775 N2777 1.384 . S
N2776 C2772 1.427 . S
N2776 C2773 1.384 . S
N2777 C2769 1.427 . S
N2777 C2775 1.384 . S
H2778 C2784 0.930 . S
H2779 C2788 0.930 . S
H2780 C2793 0.929 . S
H2781 C2791 0.929 . S
H2782 C2786 0.929 . S
H2783 C2792 0.929 . S
C2784 H2778 0.930 . S
C2784 C2785 1.367 . S
C2784 C2792 1.378 . S
C2785 C2784 1.367 . S
C2785 C2793 1.433 . S
C2786 H2782 0.929 . S
C2786 C2788 1.378 . S
C2786 C2790 1.350 . S
C2787 C2790 1.463 . S
C2787 C2792 1.350 . S
C2787 N2795 1.427 . S
C2788 H2779 0.930 . S
C2788 C2786 1.378 . S
C2788 C2789 1.367 . S
C2789 C2788 1.367 . S
C2789 C2791 1.433 . S
C2790 C2786 1.350 . S
C2790 C2787 1.463 . S
C2790 N2794 1.427 . S
C2791 H2781 0.929 . S
C2791 C2789 1.433 . S
C2791 N2794 1.384 . S
C2792 H2783 0.929 . S
C2792 C2784 1.378 . S
C2792 C2787 1.350 . S
C2793 H2780 0.929 . S
C2793 C2785 1.433 . S
C2793 N2795 1.384 . S
N2794 C2790 1.427 . S
N2794 C2791 1.384 . S
N2795 C2787 1.427 . S
N2795 C2793 1.384 . S
H2796 C2802 0.930 . S
H2797 C2806 0.930 . S
H2798 C2811 0.929 . S
H2799 C2809 0.929 . S
H2800 C2804 0.929 . S
H2801 C2810 0.929 . S
C2802 H2796 0.930 . S
C2802 C2803 1.367 . S
C2802 C2810 1.378 . S
C2803 C2802 1.367 . S
C2803 C2811 1.433 . S
C2804 H2800 0.929 . S
C2804 C2806 1.378 . S
C2804 C2808 1.350 . S
C2805 C2808 1.463 . S
C2805 C2810 1.350 . S
C2805 N2813 1.427 . S
C2806 H2797 0.930 . S
C2806 C2804 1.378 . S
C2806 C2807 1.367 . S
C2807 C2806 1.367 . S
C2807 C2809 1.433 . S
C2808 C2804 1.350 . S
C2808 C2805 1.463 . S
C2808 N2812 1.427 . S
C2809 H2799 0.929 . S
C2809 C2807 1.433 . S
C2809 N2812 1.384 . S
C2810 H2801 0.929 . S
C2810 C2802 1.378 . S
C2810 C2805 1.350 . S
C2811 H2798 0.929 . S
C2811 C2803 1.433 . S
C2811 N2813 1.384 . S
N2812 C2808 1.427 . S
N2812 C2809 1.384 . S
N2813 C2805 1.427 . S
N2813 C2811 1.384 . S
H2814 C2820 0.930 . S
H2815 C2824 0.930 . S
H2816 C2829 0.929 . S
H2817 C2827 0.929 . S
H2818 C2822 0.929 . S
H2819 C2828 0.929 . S
C2820 H2814 0.930 . S
C2820 C2821 1.367 . S
C2820 C2828 1.378 . S
C2821 C2820 1.367 . S
C2821 C2829 1.433 . S
C2822 H2818 0.929 . S
C2822 C2824 1.378 . S
C2822 C2826 1.350 . S
C2823 C2826 1.463 . S
C2823 C2828 1.350 . S
C2823 N2831 1.427 . S
C2824 H2815 0.930 . S
C2824 C2822 1.378 . S
C2824 C2825 1.367 . S
C2825 C2824 1.367 . S
C2825 C2827 1.433 . S
C2826 C2822 1.350 . S
C2826 C2823 1.463 . S
C2826 N2830 1.427 . S
C2827 H2817 0.929 . S
C2827 C2825 1.433 . S
C2827 N2830 1.384 . S
C2828 H2819 0.929 . S
C2828 C2820 1.378 . S
C2828 C2823 1.350 . S
C2829 H2816 0.929 . S
C2829 C2821 1.433 . S
C2829 N2831 1.384 . S
N2830 C2826 1.427 . S
N2830 C2827 1.384 . S
N2831 C2823 1.427 . S
N2831 C2829 1.384 . S
H2832 C2838 0.930 . S
H2833 C2842 0.930 . S
H2834 C2847 0.929 . S
H2835 C2845 0.929 . S
H2836 C2840 0.929 . S
H2837 C2846 0.929 . S
C2838 H2832 0.930 . S
C2838 C2839 1.367 . S
C2838 C2846 1.378 . S
C2839 C2838 1.367 . S
C2839 C2847 1.433 . S
C2840 H2836 0.929 . S
C2840 C2842 1.378 . S
C2840 C2844 1.350 . S
C2841 C2844 1.463 . S
C2841 C2846 1.350 . S
C2841 N2849 1.427 . S
C2842 H2833 0.930 . S
C2842 C2840 1.378 . S
C2842 C2843 1.367 . S
C2843 C2842 1.367 . S
C2843 C2845 1.433 . S
C2844 C2840 1.350 . S
C2844 C2841 1.463 . S
C2844 N2848 1.427 . S
C2845 H2835 0.929 . S
C2845 C2843 1.433 . S
C2845 N2848 1.384 . S
C2846 H2837 0.929 . S
C2846 C2838 1.378 . S
C2846 C2841 1.350 . S
C2847 H2834 0.929 . S
C2847 C2839 1.433 . S
C2847 N2849 1.384 . S
N2848 C2844 1.427 . S
N2848 C2845 1.384 . S
N2849 C2841 1.427 . S
N2849 C2847 1.384 . S
H2850 C2856 0.930 . S
H2851 C2860 0.930 . S
H2852 C2865 0.929 . S
H2853 C2863 0.929 . S
H2854 C2858 0.929 . S
H2855 C2864 0.929 . S
C2856 H2850 0.930 . S
C2856 C2857 1.367 . S
C2856 C2864 1.378 . S
C2857 C2856 1.367 . S
C2857 C2865 1.433 . S
C2858 H2854 0.929 . S
C2858 C2860 1.378 . S
C2858 C2862 1.350 . S
C2859 C2862 1.463 . S
C2859 C2864 1.350 . S
C2859 N2867 1.427 . S
C2860 H2851 0.930 . S
C2860 C2858 1.378 . S
C2860 C2861 1.367 . S
C2861 C2860 1.367 . S
C2861 C2863 1.433 . S
C2862 C2858 1.350 . S
C2862 C2859 1.463 . S
C2862 N2866 1.427 . S
C2863 H2853 0.929 . S
C2863 C2861 1.433 . S
C2863 N2866 1.384 . S
C2864 H2855 0.929 . S
C2864 C2856 1.378 . S
C2864 C2859 1.350 . S
C2865 H2852 0.929 . S
C2865 C2857 1.433 . S
C2865 N2867 1.384 . S
N2866 C2862 1.427 . S
N2866 C2863 1.384 . S
N2867 C2859 1.427 . S
N2867 C2865 1.384 . S
H2868 C2874 0.930 . S
H2869 C2878 0.930 . S
H2870 C2883 0.929 . S
H2871 C2881 0.929 . S
H2872 C2876 0.929 . S
H2873 C2882 0.929 . S
C2874 H2868 0.930 . S
C2874 C2875 1.367 . S
C2874 C2882 1.378 . S
C2875 C2874 1.367 . S
C2875 C2883 1.433 . S
C2876 H2872 0.929 . S
C2876 C2878 1.378 . S
C2876 C2880 1.350 . S
C2877 C2880 1.463 . S
C2877 C2882 1.350 . S
C2877 N2885 1.427 . S
C2878 H2869 0.930 . S
C2878 C2876 1.378 . S
C2878 C2879 1.367 . S
C2879 C2878 1.367 . S
C2879 C2881 1.433 . S
C2880 C2876 1.350 . S
C2880 C2877 1.463 . S
C2880 N2884 1.427 . S
C2881 H2871 0.929 . S
C2881 C2879 1.433 . S
C2881 N2884 1.384 . S
C2882 H2873 0.929 . S
C2882 C2874 1.378 . S
C2882 C2877 1.350 . S
C2883 H2870 0.929 . S
C2883 C2875 1.433 . S
C2883 N2885 1.384 . S
N2884 C2880 1.427 . S
N2884 C2881 1.384 . S
N2885 C2877 1.427 . S
N2885 C2883 1.384 . S
H2886 C2892 0.930 . S
H2887 C2896 0.930 . S
H2888 C2901 0.929 . S
H2889 C2899 0.929 . S
H2890 C2894 0.929 . S
H2891 C2900 0.929 . S
C2892 H2886 0.930 . S
C2892 C2893 1.367 1_556 S
C2892 C2900 1.378 . S
C2893 C2892 1.367 1_554 S
C2893 C2901 1.433 . S
C2894 H2890 0.929 . S
C2894 C2896 1.378 1_565 S
C2894 C2898 1.350 . S
C2895 C2898 1.463 . S
C2895 C2900 1.350 1_554 S
C2895 N2903 1.427 . S
C2896 H2887 0.930 . S
C2896 C2894 1.378 1_545 S
C2896 C2897 1.367 . S
C2897 C2896 1.367 . S
C2897 C2899 1.433 1_554 S
C2898 C2894 1.350 . S
C2898 C2895 1.463 . S
C2898 N2902 1.427 1_564 S
C2899 H2889 0.929 . S
C2899 C2897 1.433 1_556 S
C2899 N2902 1.384 . S
C2900 H2891 0.929 . S
C2900 C2892 1.378 . S
C2900 C2895 1.350 1_556 S
C2901 H2888 0.929 . S
C2901 C2893 1.433 . S
C2901 N2903 1.384 . S
N2902 C2898 1.427 1_546 S
N2902 C2899 1.384 . S
N2903 C2895 1.427 . S
N2903 C2901 1.384 . S
H2904 C2910 0.930 . S
H2905 C2914 0.930 . S
H2906 C2919 0.929 . S
H2907 C2917 0.929 . S
H2908 C2912 0.929 . S
H2909 C2918 0.929 . S
C2910 H2904 0.930 . S
C2910 C2911 1.367 . S
C2910 C2918 1.378 . S
C2911 C2910 1.367 . S
C2911 C2919 1.433 . S
C2912 H2908 0.929 . S
C2912 C2914 1.378 . S
C2912 C2916 1.350 . S
C2913 C2916 1.463 . S
C2913 C2918 1.350 . S
C2913 N2921 1.427 . S
C2914 H2905 0.930 . S
C2914 C2912 1.378 . S
C2914 C2915 1.367 . S
C2915 C2914 1.367 . S
C2915 C2917 1.433 . S
C2916 C2912 1.350 . S
C2916 C2913 1.463 . S
C2916 N2920 1.427 . S
C2917 H2907 0.929 . S
C2917 C2915 1.433 . S
C2917 N2920 1.384 . S
C2918 H2909 0.929 . S
C2918 C2910 1.378 . S
C2918 C2913 1.350 . S
C2919 H2906 0.929 . S
C2919 C2911 1.433 . S
C2919 N2921 1.384 . S
N2920 C2916 1.427 . S
N2920 C2917 1.384 . S
N2921 C2913 1.427 . S
N2921 C2919 1.384 . S
H2922 C2928 0.930 . S
H2923 C2932 0.930 . S
H2924 C2937 0.929 . S
H2925 C2935 0.929 . S
H2926 C2930 0.929 . S
H2927 C2936 0.929 1_556 S
C2928 H2922 0.930 . S
C2928 C2929 1.367 1_556 S
C2928 C2936 1.378 1_556 S
C2929 C2928 1.367 1_554 S
C2929 C2937 1.433 . S
C2930 H2926 0.929 . S
C2930 C2932 1.378 . S
C2930 C2934 1.350 . S
C2931 C2934 1.463 . S
C2931 C2936 1.350 . S
C2931 N2939 1.427 . S
C2932 H2923 0.930 . S
C2932 C2930 1.378 . S
C2932 C2933 1.367 . S
C2933 C2932 1.367 . S
C2933 C2935 1.433 . S
C2934 C2930 1.350 . S
C2934 C2931 1.463 . S
C2934 N2938 1.427 . S
C2935 H2925 0.929 . S
C2935 C2933 1.433 . S
C2935 N2938 1.384 . S
C2936 H2927 0.929 1_554 S
C2936 C2928 1.378 1_554 S
C2936 C2931 1.350 . S
C2937 H2924 0.929 . S
C2937 C2929 1.433 . S
C2937 N2939 1.384 . S
N2938 C2934 1.427 . S
N2938 C2935 1.384 . S
N2939 C2931 1.427 . S
N2939 C2937 1.384 . S
H2940 C2946 0.930 . S
H2941 C2950 0.930 . S
H2942 C2955 0.929 . S
H2943 C2953 0.929 . S
H2944 C2948 0.929 . S
H2945 C2954 0.929 . S
C2946 H2940 0.930 . S
C2946 C2947 1.367 . S
C2946 C2954 1.378 . S
C2947 C2946 1.367 . S
C2947 C2955 1.433 . S
C2948 H2944 0.929 . S
C2948 C2950 1.378 . S
C2948 C2952 1.350 . S
C2949 C2952 1.463 . S
C2949 C2954 1.350 . S
C2949 N2957 1.427 . S
C2950 H2941 0.930 . S
C2950 C2948 1.378 . S
C2950 C2951 1.367 . S
C2951 C2950 1.367 . S
C2951 C2953 1.433 . S
C2952 C2948 1.350 . S
C2952 C2949 1.463 . S
C2952 N2956 1.427 . S
C2953 H2943 0.929 . S
C2953 C2951 1.433 . S
C2953 N2956 1.384 . S
C2954 H2945 0.929 . S
C2954 C2946 1.378 . S
C2954 C2949 1.350 . S
C2955 H2942 0.929 . S
C2955 C2947 1.433 . S
C2955 N2957 1.384 . S
N2956 C2952 1.427 . S
N2956 C2953 1.384 . S
N2957 C2949 1.427 . S
N2957 C2955 1.384 . S
H2958 C2964 0.930 . S
H2959 C2968 0.930 . S
H2960 C2973 0.929 . S
H2961 C2971 0.929 . S
H2962 C2966 0.929 . S
H2963 C2972 0.929 . S
C2964 H2958 0.930 . S
C2964 C2965 1.367 . S
C2964 C2972 1.378 . S
C2965 C2964 1.367 . S
C2965 C2973 1.433 . S
C2966 H2962 0.929 . S
C2966 C2968 1.378 . S
C2966 C2970 1.350 . S
C2967 C2970 1.463 . S
C2967 C2972 1.350 . S
C2967 N2975 1.427 . S
C2968 H2959 0.930 . S
C2968 C2966 1.378 . S
C2968 C2969 1.367 . S
C2969 C2968 1.367 . S
C2969 C2971 1.433 . S
C2970 C2966 1.350 . S
C2970 C2967 1.463 . S
C2970 N2974 1.427 . S
C2971 H2961 0.929 . S
C2971 C2969 1.433 . S
C2971 N2974 1.384 . S
C2972 H2963 0.929 . S
C2972 C2964 1.378 . S
C2972 C2967 1.350 . S
C2973 H2960 0.929 . S
C2973 C2965 1.433 . S
C2973 N2975 1.384 . S
N2974 C2970 1.427 . S
N2974 C2971 1.384 . S
N2975 C2967 1.427 . S
N2975 C2973 1.384 . S
H2976 C2982 0.930 . S
H2977 C2986 0.930 . S
H2978 C2991 0.929 . S
H2979 C2989 0.929 . S
H2980 C2984 0.929 . S
H2981 C2990 0.929 . S
C2982 H2976 0.930 . S
C2982 C2983 1.367 . S
C2982 C2990 1.378 . S
C2983 C2982 1.367 . S
C2983 C2991 1.433 . S
C2984 H2980 0.929 . S
C2984 C2986 1.378 . S
C2984 C2988 1.350 . S
C2985 C2988 1.463 . S
C2985 C2990 1.350 . S
C2985 N2993 1.427 . S
C2986 H2977 0.930 . S
C2986 C2984 1.378 . S
C2986 C2987 1.367 . S
C2987 C2986 1.367 . S
C2987 C2989 1.433 . S
C2988 C2984 1.350 . S
C2988 C2985 1.463 . S
C2988 N2992 1.427 . S
C2989 H2979 0.929 . S
C2989 C2987 1.433 . S
C2989 N2992 1.384 . S
C2990 H2981 0.929 . S
C2990 C2982 1.378 . S
C2990 C2985 1.350 . S
C2991 H2978 0.929 . S
C2991 C2983 1.433 . S
C2991 N2993 1.384 . S
N2992 C2988 1.427 . S
N2992 C2989 1.384 . S
N2993 C2985 1.427 . S
N2993 C2991 1.384 . S
H2994 C3000 0.930 . S
H2995 C3004 0.930 . S
H2996 C3009 0.929 . S
H2997 C3007 0.929 . S
H2998 C3002 0.929 . S
H2999 C3008 0.929 . S
C3000 H2994 0.930 . S
C3000 C3001 1.367 . S
C3000 C3008 1.378 . S
C3001 C3000 1.367 . S
C3001 C3009 1.433 . S
C3002 H2998 0.929 . S
C3002 C3004 1.378 . S
C3002 C3006 1.350 . S
C3003 C3006 1.463 . S
C3003 C3008 1.350 . S
C3003 N3011 1.427 . S
C3004 H2995 0.930 . S
C3004 C3002 1.378 . S
C3004 C3005 1.367 . S
C3005 C3004 1.367 . S
C3005 C3007 1.433 . S
C3006 C3002 1.350 . S
C3006 C3003 1.463 . S
C3006 N3010 1.427 . S
C3007 H2997 0.929 . S
C3007 C3005 1.433 . S
C3007 N3010 1.384 . S
C3008 H2999 0.929 . S
C3008 C3000 1.378 . S
C3008 C3003 1.350 . S
C3009 H2996 0.929 . S
C3009 C3001 1.433 . S
C3009 N3011 1.384 . S
N3010 C3006 1.427 . S
N3010 C3007 1.384 . S
N3011 C3003 1.427 . S
N3011 C3009 1.384 . S
H3012 C3018 0.930 . S
H3013 C3022 0.930 1_556 S
H3014 C3027 0.929 . S
H3015 C3025 0.929 . S
H3016 C3020 0.929 . S
H3017 C3026 0.929 . S
C3018 H3012 0.930 . S
C3018 C3019 1.367 . S
C3018 C3026 1.378 . S
C3019 C3018 1.367 . S
C3019 C3027 1.433 . S
C3020 H3016 0.929 . S
C3020 C3022 1.378 . S
C3020 C3024 1.350 . S
C3021 C3024 1.463 . S
C3021 C3026 1.350 . S
C3021 N3029 1.427 . S
C3022 H3013 0.930 1_554 S
C3022 C3020 1.378 . S
C3022 C3023 1.367 . S
C3023 C3022 1.367 . S
C3023 C3025 1.433 . S
C3024 C3020 1.350 . S
C3024 C3021 1.463 . S
C3024 N3028 1.427 . S
C3025 H3015 0.929 . S
C3025 C3023 1.433 . S
C3025 N3028 1.384 . S
C3026 H3017 0.929 . S
C3026 C3018 1.378 . S
C3026 C3021 1.350 . S
C3027 H3014 0.929 . S
C3027 C3019 1.433 . S
C3027 N3029 1.384 . S
N3028 C3024 1.427 . S
N3028 C3025 1.384 . S
N3029 C3021 1.427 . S
N3029 C3027 1.384 . S
H3030 C3036 0.930 . S
H3031 C3040 0.930 . S
H3032 C3045 0.929 . S
H3033 C3043 0.929 . S
H3034 C3038 0.929 . S
H3035 C3044 0.929 . S
C3036 H3030 0.930 . S
C3036 C3037 1.367 . S
C3036 C3044 1.378 . S
C3037 C3036 1.367 . S
C3037 C3045 1.433 . S
C3038 H3034 0.929 . S
C3038 C3040 1.378 . S
C3038 C3042 1.350 . S
C3039 C3042 1.463 . S
C3039 C3044 1.350 . S
C3039 N3047 1.427 . S
C3040 H3031 0.930 . S
C3040 C3038 1.378 . S
C3040 C3041 1.367 . S
C3041 C3040 1.367 . S
C3041 C3043 1.433 . S
C3042 C3038 1.350 . S
C3042 C3039 1.463 . S
C3042 N3046 1.427 . S
C3043 H3033 0.929 . S
C3043 C3041 1.433 . S
C3043 N3046 1.384 . S
C3044 H3035 0.929 . S
C3044 C3036 1.378 . S
C3044 C3039 1.350 . S
C3045 H3032 0.929 . S
C3045 C3037 1.433 . S
C3045 N3047 1.384 . S
N3046 C3042 1.427 . S
N3046 C3043 1.384 . S
N3047 C3039 1.427 . S
N3047 C3045 1.384 . S
H3048 C3054 0.930 . S
H3049 C3058 0.895 1_554 S
H3050 C3063 0.929 . S
H3051 C3061 0.929 . S
H3052 C3056 0.929 . S
H3053 C3062 0.929 . S
C3054 H3048 0.930 . S
C3054 C3055 1.367 . S
C3054 C3062 1.378 . S
C3055 C3054 1.367 . S
C3055 C3063 1.433 . S
C3056 H3052 0.929 . S
C3056 C3058 1.378 . S
C3056 C3060 1.350 . S
C3057 C3060 1.463 . S
C3057 C3062 1.350 . S
C3057 N3065 1.427 . S
C3058 H3049 0.895 1_556 S
C3058 C3056 1.378 . S
C3058 C3059 1.367 . S
C3059 C3058 1.367 . S
C3059 C3061 1.433 . S
C3060 C3056 1.350 . S
C3060 C3057 1.463 . S
C3060 N3064 1.427 . S
C3061 H3051 0.929 . S
C3061 C3059 1.433 . S
C3061 N3064 1.384 . S
C3062 H3053 0.929 . S
C3062 C3054 1.378 . S
C3062 C3057 1.350 . S
C3063 H3050 0.929 . S
C3063 C3055 1.433 . S
C3063 N3065 1.384 . S
N3064 C3060 1.427 . S
N3064 C3061 1.384 . S
N3065 C3057 1.427 . S
N3065 C3063 1.384 . S
H3066 C3072 0.930 . S
H3067 C3076 0.930 . S
H3068 C3081 0.929 . S
H3069 C3079 0.929 . S
H3070 C3074 0.929 . S
H3071 C3080 0.929 . S
C3072 H3066 0.930 . S
C3072 C3073 1.367 . S
C3072 C3080 1.378 . S
C3073 C3072 1.367 . S
C3073 C3081 1.433 . S
C3074 H3070 0.929 . S
C3074 C3076 1.378 . S
C3074 C3078 1.350 . S
C3075 C3078 1.463 . S
C3075 C3080 1.350 . S
C3075 N3083 1.427 . S
C3076 H3067 0.930 . S
C3076 C3074 1.378 . S
C3076 C3077 1.367 . S
C3077 C3076 1.367 . S
C3077 C3079 1.433 . S
C3078 C3074 1.350 . S
C3078 C3075 1.463 . S
C3078 N3082 1.427 . S
C3079 H3069 0.929 . S
C3079 C3077 1.433 . S
C3079 N3082 1.384 . S
C3080 H3071 0.929 . S
C3080 C3072 1.378 . S
C3080 C3075 1.350 . S
C3081 H3068 0.929 . S
C3081 C3073 1.433 . S
C3081 N3083 1.384 . S
N3082 C3078 1.427 . S
N3082 C3079 1.384 . S
N3083 C3075 1.427 . S
N3083 C3081 1.384 . S
H3084 C3090 0.930 . S
H3085 C3094 0.930 . S
H3086 C3099 0.929 . S
H3087 C3097 0.929 . S
H3088 C3092 0.929 . S
H3089 C3098 0.929 . S
C3090 H3084 0.930 . S
C3090 C3091 1.367 . S
C3090 C3098 1.378 . S
C3091 C3090 1.367 . S
C3091 C3099 1.433 . S
C3092 H3088 0.929 . S
C3092 C3094 1.378 . S
C3092 C3096 1.350 . S
C3093 C3096 1.463 . S
C3093 C3098 1.350 . S
C3093 N3101 1.427 . S
C3094 H3085 0.930 . S
C3094 C3092 1.378 . S
C3094 C3095 1.367 . S
C3095 C3094 1.367 . S
C3095 C3097 1.433 . S
C3096 C3092 1.350 . S
C3096 C3093 1.463 . S
C3096 N3100 1.427 . S
C3097 H3087 0.929 . S
C3097 C3095 1.433 . S
C3097 N3100 1.384 . S
C3098 H3089 0.929 . S
C3098 C3090 1.378 . S
C3098 C3093 1.350 . S
C3099 H3086 0.929 . S
C3099 C3091 1.433 . S
C3099 N3101 1.384 . S
N3100 C3096 1.427 . S
N3100 C3097 1.384 . S
N3101 C3093 1.427 . S
N3101 C3099 1.384 . S
H3102 C3108 0.930 . S
H3103 C3112 0.930 . S
H3104 C3117 0.929 . S
H3105 C3115 0.929 . S
H3106 C3110 0.929 . S
H3107 C3116 0.929 . S
C3108 H3102 0.930 . S
C3108 C3109 1.367 . S
C3108 C3116 1.378 . S
C3109 C3108 1.367 . S
C3109 C3117 1.433 . S
C3110 H3106 0.929 . S
C3110 C3112 1.378 . S
C3110 C3114 1.350 . S
C3111 C3114 1.463 . S
C3111 C3116 1.350 . S
C3111 N3119 1.427 . S
C3112 H3103 0.930 . S
C3112 C3110 1.378 . S
C3112 C3113 1.367 . S
C3113 C3112 1.367 . S
C3113 C3115 1.433 . S
C3114 C3110 1.350 . S
C3114 C3111 1.463 . S
C3114 N3118 1.427 . S
C3115 H3105 0.929 . S
C3115 C3113 1.433 . S
C3115 N3118 1.384 . S
C3116 H3107 0.929 . S
C3116 C3108 1.378 . S
C3116 C3111 1.350 . S
C3117 H3104 0.929 . S
C3117 C3109 1.433 . S
C3117 N3119 1.384 . S
N3118 C3114 1.427 . S
N3118 C3115 1.384 . S
N3119 C3111 1.427 . S
N3119 C3117 1.384 . S
H3120 C3126 0.930 . S
H3121 C3130 0.930 . S
H3122 C3135 0.929 . S
H3123 C3133 0.929 . S
H3124 C3128 0.929 . S
H3125 C3134 0.929 . S
C3126 H3120 0.930 . S
C3126 C3127 1.367 . S
C3126 C3134 1.378 . S
C3127 C3126 1.367 . S
C3127 C3135 1.433 . S
C3128 H3124 0.929 . S
C3128 C3130 1.378 . S
C3128 C3132 1.350 . S
C3129 C3132 1.463 . S
C3129 C3134 1.350 . S
C3129 N3137 1.427 . S
C3130 H3121 0.930 . S
C3130 C3128 1.378 . S
C3130 C3131 1.367 . S
C3131 C3130 1.367 . S
C3131 C3133 1.433 . S
C3132 C3128 1.350 . S
C3132 C3129 1.463 . S
C3132 N3136 1.427 . S
C3133 H3123 0.929 . S
C3133 C3131 1.433 . S
C3133 N3136 1.384 . S
C3134 H3125 0.929 . S
C3134 C3126 1.378 . S
C3134 C3129 1.350 . S
C3135 H3122 0.929 . S
C3135 C3127 1.433 . S
C3135 N3137 1.384 . S
N3136 C3132 1.427 . S
N3136 C3133 1.384 . S
N3137 C3129 1.427 . S
N3137 C3135 1.384 . S
H3138 C3144 0.930 . S
H3139 C3148 0.930 . S
H3140 C3153 0.929 . S
H3141 C3151 0.929 . S
H3142 C3146 0.929 . S
H3143 C3152 0.929 . S
C3144 H3138 0.930 . S
C3144 C3145 1.367 . S
C3144 C3152 1.378 . S
C3145 C3144 1.367 . S
C3145 C3153 1.433 . S
C3146 H3142 0.929 . S
C3146 C3148 1.378 . S
C3146 C3150 1.350 . S
C3147 C3150 1.463 . S
C3147 C3152 1.350 . S
C3147 N3155 1.427 . S
C3148 H3139 0.930 . S
C3148 C3146 1.378 . S
C3148 C3149 1.367 . S
C3149 C3148 1.367 . S
C3149 C3151 1.433 . S
C3150 C3146 1.350 . S
C3150 C3147 1.463 . S
C3150 N3154 1.427 . S
C3151 H3141 0.929 . S
C3151 C3149 1.433 . S
C3151 N3154 1.384 . S
C3152 H3143 0.929 . S
C3152 C3144 1.378 . S
C3152 C3147 1.350 . S
C3153 H3140 0.929 . S
C3153 C3145 1.433 . S
C3153 N3155 1.384 . S
N3154 C3150 1.427 . S
N3154 C3151 1.384 . S
N3155 C3147 1.427 . S
N3155 C3153 1.384 . S
H3156 C3162 0.930 . S
H3157 C3166 0.930 . S
H3158 C3171 0.929 . S
H3159 C3169 0.929 . S
H3160 C3164 0.929 . S
H3161 C3170 0.929 . S
C3162 H3156 0.930 . S
C3162 C3163 1.367 . S
C3162 C3170 1.378 . S
C3163 C3162 1.367 . S
C3163 C3171 1.433 . S
C3164 H3160 0.929 . S
C3164 C3166 1.378 1_655 S
C3164 C3168 1.350 . S
C3165 C3168 1.463 . S
C3165 C3170 1.350 . S
C3165 N3173 1.427 . S
C3166 H3157 0.930 . S
C3166 C3164 1.378 1_455 S
C3166 C3167 1.367 . S
C3167 C3166 1.367 . S
C3167 C3169 1.433 . S
C3168 C3164 1.350 . S
C3168 C3165 1.463 . S
C3168 N3172 1.427 1_655 S
C3169 H3159 0.929 . S
C3169 C3167 1.433 . S
C3169 N3172 1.384 . S
C3170 H3161 0.929 . S
C3170 C3162 1.378 . S
C3170 C3165 1.350 . S
C3171 H3158 0.929 . S
C3171 C3163 1.433 . S
C3171 N3173 1.384 . S
N3172 C3168 1.427 1_455 S
N3172 C3169 1.384 . S
N3173 C3165 1.427 . S
N3173 C3171 1.384 . S
H3174 C3180 0.930 . S
H3175 C3184 0.930 . S
H3176 C3189 0.929 . S
H3177 C3187 0.929 . S
H3178 C3182 0.929 . S
H3179 C3188 0.929 . S
C3180 H3174 0.930 . S
C3180 C3181 1.367 . S
C3180 C3188 1.378 . S
C3181 C3180 1.367 . S
C3181 C3189 1.433 . S
C3182 H3178 0.929 . S
C3182 C3184 1.378 . S
C3182 C3186 1.350 . S
C3183 C3186 1.463 . S
C3183 C3188 1.350 . S
C3183 N3191 1.427 . S
C3184 H3175 0.930 . S
C3184 C3182 1.378 . S
C3184 C3185 1.367 . S
C3185 C3184 1.367 . S
C3185 C3187 1.433 . S
C3186 C3182 1.350 . S
C3186 C3183 1.463 . S
C3186 N3190 1.427 . S
C3187 H3177 0.929 . S
C3187 C3185 1.433 . S
C3187 N3190 1.384 . S
C3188 H3179 0.929 . S
C3188 C3180 1.378 . S
C3188 C3183 1.350 . S
C3189 H3176 0.929 . S
C3189 C3181 1.433 . S
C3189 N3191 1.384 . S
N3190 C3186 1.427 . S
N3190 C3187 1.384 . S
N3191 C3183 1.427 . S
N3191 C3189 1.384 . S
H3192 C3198 0.930 . S
H3193 C3202 0.930 . S
H3194 C3207 0.929 . S
H3195 C3205 0.929 . S
H3196 C3200 0.929 . S
H3197 C3206 0.929 . S
C3198 H3192 0.930 . S
C3198 C3199 1.367 . S
C3198 C3206 1.378 . S
C3199 C3198 1.367 . S
C3199 C3207 1.433 . S
C3200 H3196 0.929 . S
C3200 C3202 1.378 . S
C3200 C3204 1.350 . S
C3201 C3204 1.463 . S
C3201 C3206 1.350 . S
C3201 N3209 1.427 . S
C3202 H3193 0.930 . S
C3202 C3200 1.378 . S
C3202 C3203 1.367 . S
C3203 C3202 1.367 . S
C3203 C3205 1.433 . S
C3204 C3200 1.350 . S
C3204 C3201 1.463 . S
C3204 N3208 1.427 . S
C3205 H3195 0.929 . S
C3205 C3203 1.433 . S
C3205 N3208 1.384 . S
C3206 H3197 0.929 . S
C3206 C3198 1.378 . S
C3206 C3201 1.350 . S
C3207 H3194 0.929 . S
C3207 C3199 1.433 . S
C3207 N3209 1.384 . S
N3208 C3204 1.427 . S
N3208 C3205 1.384 . S
N3209 C3201 1.427 . S
N3209 C3207 1.384 . S
H3210 C3216 0.930 . S
H3211 C3220 0.930 . S
H3212 C3225 0.929 . S
H3213 C3223 0.929 . S
H3214 C3218 0.929 . S
H3215 C3224 0.929 . S
C3216 H3210 0.930 . S
C3216 C3217 1.367 . S
C3216 C3224 1.378 . S
C3217 C3216 1.367 . S
C3217 C3225 1.433 . S
C3218 H3214 0.929 . S
C3218 C3220 1.378 . S
C3218 C3222 1.350 . S
C3219 C3222 1.463 . S
C3219 C3224 1.350 . S
C3219 N3227 1.427 . S
C3220 H3211 0.930 . S
C3220 C3218 1.378 . S
C3220 C3221 1.367 . S
C3221 C3220 1.367 . S
C3221 C3223 1.433 . S
C3222 C3218 1.350 . S
C3222 C3219 1.463 . S
C3222 N3226 1.427 . S
C3223 H3213 0.929 . S
C3223 C3221 1.433 . S
C3223 N3226 1.384 . S
C3224 H3215 0.929 . S
C3224 C3216 1.378 . S
C3224 C3219 1.350 . S
C3225 H3212 0.929 . S
C3225 C3217 1.433 . S
C3225 N3227 1.384 . S
N3226 C3222 1.427 . S
N3226 C3223 1.384 . S
N3227 C3219 1.427 . S
N3227 C3225 1.384 . S
H3228 C3234 0.930 . S
H3229 C3238 0.930 1_455 S
H3230 C3243 0.929 . S
H3231 C3241 0.929 . S
H3232 C3236 0.929 . S
H3233 C3242 0.929 . S
C3234 H3228 0.930 . S
C3234 C3235 1.367 . S
C3234 C3242 1.378 . S
C3235 C3234 1.367 . S
C3235 C3243 1.433 . S
C3236 H3232 0.929 . S
C3236 C3238 1.378 . S
C3236 C3240 1.350 . S
C3237 C3240 1.463 . S
C3237 C3242 1.350 . S
C3237 N3245 1.427 . S
C3238 H3229 0.930 1_655 S
C3238 C3236 1.378 . S
C3238 C3239 1.378 . S
C3239 C3238 1.378 . S
C3239 C3241 1.441 . S
C3240 C3236 1.350 . S
C3240 C3237 1.463 . S
C3240 N3244 1.427 . S
C3241 H3231 0.929 . S
C3241 C3239 1.441 . S
C3241 N3244 1.384 . S
C3242 H3233 0.929 . S
C3242 C3234 1.378 . S
C3242 C3237 1.350 . S
C3243 H3230 0.929 . S
C3243 C3235 1.433 . S
C3243 N3245 1.384 . S
N3244 C3240 1.427 . S
N3244 C3241 1.384 . S
N3245 C3237 1.427 . S
N3245 C3243 1.384 . S
H3246 C3252 0.930 . S
H3247 C3256 0.930 . S
H3248 C3261 0.929 . S
H3249 C3259 0.929 . S
H3250 C3254 0.929 . S
H3251 C3260 0.929 . S
C3252 H3246 0.930 . S
C3252 C3253 1.367 . S
C3252 C3260 1.378 . S
C3253 C3252 1.367 . S
C3253 C3261 1.433 . S
C3254 H3250 0.929 . S
C3254 C3256 1.378 . S
C3254 C3258 1.350 . S
C3255 C3258 1.463 . S
C3255 C3260 1.350 . S
C3255 N3263 1.427 . S
C3256 H3247 0.930 . S
C3256 C3254 1.378 . S
C3256 C3257 1.367 . S
C3257 C3256 1.367 . S
C3257 C3259 1.433 . S
C3258 C3254 1.350 . S
C3258 C3255 1.463 . S
C3258 N3262 1.427 . S
C3259 H3249 0.929 . S
C3259 C3257 1.433 . S
C3259 N3262 1.384 . S
C3260 H3251 0.929 . S
C3260 C3252 1.378 . S
C3260 C3255 1.350 . S
C3261 H3248 0.929 . S
C3261 C3253 1.433 . S
C3261 N3263 1.384 . S
N3262 C3258 1.427 . S
N3262 C3259 1.384 . S
N3263 C3255 1.427 . S
N3263 C3261 1.384 . S
H3264 C3270 0.930 . S
H3265 C3274 0.930 . S
H3266 C3279 0.929 . S
H3267 C3277 0.929 . S
H3268 C3272 0.929 . S
H3269 C3278 0.929 . S
C3270 H3264 0.930 . S
C3270 C3271 1.367 . S
C3270 C3278 1.378 . S
C3271 C3270 1.367 . S
C3271 C3279 1.433 . S
C3272 H3268 0.929 . S
C3272 C3274 1.378 . S
C3272 C3276 1.350 . S
C3273 C3276 1.463 . S
C3273 C3278 1.350 . S
C3273 N3281 1.427 . S
C3274 H3265 0.930 . S
C3274 C3272 1.378 . S
C3274 C3275 1.367 . S
C3275 C3274 1.367 . S
C3275 C3277 1.433 . S
C3276 C3272 1.350 . S
C3276 C3273 1.463 . S
C3276 N3280 1.427 . S
C3277 H3267 0.929 . S
C3277 C3275 1.433 . S
C3277 N3280 1.384 . S
C3278 H3269 0.929 . S
C3278 C3270 1.378 . S
C3278 C3273 1.350 . S
C3279 H3266 0.929 . S
C3279 C3271 1.433 . S
C3279 N3281 1.384 . S
N3280 C3276 1.427 . S
N3280 C3277 1.384 . S
N3281 C3273 1.427 . S
N3281 C3279 1.384 . S
H3282 C3288 0.930 . S
H3283 C3292 0.930 . S
H3284 C3297 0.929 . S
H3285 C3295 0.929 . S
H3286 C3290 0.929 . S
H3287 C3296 0.929 . S
C3288 H3282 0.930 . S
C3288 C3289 1.367 . S
C3288 C3296 1.378 . S
C3289 C3288 1.367 . S
C3289 C3297 1.433 . S
C3290 H3286 0.929 . S
C3290 C3292 1.378 . S
C3290 C3294 1.350 . S
C3291 C3294 1.463 . S
C3291 C3296 1.350 . S
C3291 N3299 1.427 . S
C3292 H3283 0.930 . S
C3292 C3290 1.378 . S
C3292 C3293 1.367 . S
C3293 C3292 1.367 . S
C3293 C3295 1.433 . S
C3294 C3290 1.350 . S
C3294 C3291 1.463 . S
C3294 N3298 1.427 . S
C3295 H3285 0.929 . S
C3295 C3293 1.433 . S
C3295 N3298 1.384 . S
C3296 H3287 0.929 . S
C3296 C3288 1.378 . S
C3296 C3291 1.350 . S
C3297 H3284 0.929 . S
C3297 C3289 1.433 . S
C3297 N3299 1.384 . S
N3298 C3294 1.427 . S
N3298 C3295 1.384 . S
N3299 C3291 1.427 . S
N3299 C3297 1.384 . S
H3300 C3306 0.930 . S
H3301 C3310 0.930 . S
H3302 C3315 0.929 . S
H3303 C3313 0.929 . S
H3304 C3308 0.929 . S
H3305 C3314 0.929 . S
C3306 H3300 0.930 . S
C3306 C3307 1.367 . S
C3306 C3314 1.378 . S
C3307 C3306 1.367 . S
C3307 C3315 1.433 . S
C3308 H3304 0.929 . S
C3308 C3310 1.378 . S
C3308 C3312 1.350 . S
C3309 C3312 1.463 . S
C3309 C3314 1.350 . S
C3309 N3317 1.427 . S
C3310 H3301 0.930 . S
C3310 C3308 1.378 . S
C3310 C3311 1.367 . S
C3311 C3310 1.367 . S
C3311 C3313 1.433 . S
C3312 C3308 1.350 . S
C3312 C3309 1.463 . S
C3312 N3316 1.427 . S
C3313 H3303 0.929 . S
C3313 C3311 1.433 . S
C3313 N3316 1.384 . S
C3314 H3305 0.929 . S
C3314 C3306 1.378 . S
C3314 C3309 1.350 . S
C3315 H3302 0.929 . S
C3315 C3307 1.433 . S
C3315 N3317 1.384 . S
N3316 C3312 1.427 . S
N3316 C3313 1.384 . S
N3317 C3309 1.427 . S
N3317 C3315 1.384 . S
H3318 C3324 0.930 . S
H3319 C3328 0.919 1_556 S
H3320 C3333 0.929 1_556 S
H3321 C3331 0.929 . S
H3322 C3326 0.929 1_556 S
H3323 C3332 0.929 . S
C3324 H3318 0.930 . S
C3324 C3325 1.367 . S
C3324 C3332 1.378 . S
C3325 C3324 1.367 . S
C3325 C3333 1.433 . S
C3326 H3322 0.929 1_554 S
C3326 C3328 1.376 . S
C3326 C3330 1.350 . S
C3327 C3330 1.463 . S
C3327 C3332 1.350 . S
C3327 N3335 1.427 . S
C3328 H3319 0.919 1_554 S
C3328 C3326 1.376 . S
C3328 C3329 1.381 . S
C3329 C3328 1.381 . S
C3329 C3331 1.433 . S
C3330 C3326 1.350 . S
C3330 C3327 1.463 . S
C3330 N3334 1.427 . S
C3331 H3321 0.929 . S
C3331 C3329 1.433 . S
C3331 N3334 1.384 . S
C3332 H3323 0.929 . S
C3332 C3324 1.378 . S
C3332 C3327 1.350 . S
C3333 H3320 0.929 1_554 S
C3333 C3325 1.433 . S
C3333 N3335 1.384 . S
N3334 C3330 1.427 . S
N3334 C3331 1.384 . S
N3335 C3327 1.427 . S
N3335 C3333 1.384 . S
H3336 C3342 0.930 . S
H3337 C3346 0.930 . S
H3338 C3351 0.929 . S
H3339 C3349 0.929 . S
H3340 C3344 0.929 . S
H3341 C3350 0.929 . S
C3342 H3336 0.930 . S
C3342 C3343 1.367 . S
C3342 C3350 1.378 . S
C3343 C3342 1.367 . S
C3343 C3351 1.433 . S
C3344 H3340 0.929 . S
C3344 C3346 1.378 . S
C3344 C3348 1.350 . S
C3345 C3348 1.463 . S
C3345 C3350 1.350 . S
C3345 N3353 1.427 . S
C3346 H3337 0.930 . S
C3346 C3344 1.378 . S
C3346 C3347 1.367 . S
C3347 C3346 1.367 . S
C3347 C3349 1.433 . S
C3348 C3344 1.350 . S
C3348 C3345 1.463 . S
C3348 N3352 1.427 . S
C3349 H3339 0.929 . S
C3349 C3347 1.433 . S
C3349 N3352 1.384 . S
C3350 H3341 0.929 . S
C3350 C3342 1.378 . S
C3350 C3345 1.350 . S
C3351 H3338 0.929 . S
C3351 C3343 1.433 . S
C3351 N3353 1.384 . S
N3352 C3348 1.427 . S
N3352 C3349 1.384 . S
N3353 C3345 1.427 . S
N3353 C3351 1.384 . S
H3354 C3360 0.924 1_556 S
H3355 C3364 0.930 . S
H3356 C3369 0.929 . S
H3357 C3367 0.929 . S
H3358 C3362 0.929 . S
H3359 C3368 0.929 1_556 S
C3360 H3354 0.924 1_554 S
C3360 C3361 1.367 . S
C3360 C3368 1.378 . S
C3361 C3360 1.367 . S
C3361 C3369 1.433 . S
C3362 H3358 0.929 . S
C3362 C3364 1.378 . S
C3362 C3366 1.350 . S
C3363 C3366 1.463 . S
C3363 C3368 1.350 . S
C3363 N3371 1.427 . S
C3364 H3355 0.930 . S
C3364 C3362 1.378 . S
C3364 C3365 1.367 . S
C3365 C3364 1.367 . S
C3365 C3367 1.433 1_554 S
C3366 C3362 1.350 . S
C3366 C3363 1.463 . S
C3366 N3370 1.427 1_554 S
C3367 H3357 0.929 . S
C3367 C3365 1.433 1_556 S
C3367 N3370 1.384 . S
C3368 H3359 0.929 1_554 S
C3368 C3360 1.378 . S
C3368 C3363 1.350 . S
C3369 H3356 0.929 . S
C3369 C3361 1.433 . S
C3369 N3371 1.384 . S
N3370 C3366 1.427 1_556 S
N3370 C3367 1.384 . S
N3371 C3363 1.427 . S
N3371 C3369 1.384 . S
H3372 C3378 0.930 . S
H3373 C3382 0.930 . S
H3374 C3387 0.929 . S
H3375 C3385 0.929 . S
H3376 C3380 0.929 . S
H3377 C3386 0.929 . S
C3378 H3372 0.930 . S
C3378 C3379 1.367 . S
C3378 C3386 1.378 . S
C3379 C3378 1.367 . S
C3379 C3387 1.433 . S
C3380 H3376 0.929 . S
C3380 C3382 1.378 . S
C3380 C3384 1.350 . S
C3381 C3384 1.463 . S
C3381 C3386 1.350 . S
C3381 N3389 1.427 . S
C3382 H3373 0.930 . S
C3382 C3380 1.378 . S
C3382 C3383 1.367 . S
C3383 C3382 1.367 . S
C3383 C3385 1.433 . S
C3384 C3380 1.350 . S
C3384 C3381 1.463 . S
C3384 N3388 1.427 . S
C3385 H3375 0.929 . S
C3385 C3383 1.433 . S
C3385 N3388 1.384 . S
C3386 H3377 0.929 . S
C3386 C3378 1.378 . S
C3386 C3381 1.350 . S
C3387 H3374 0.929 . S
C3387 C3379 1.433 . S
C3387 N3389 1.384 . S
N3388 C3384 1.427 . S
N3388 C3385 1.384 . S
N3389 C3381 1.427 . S
N3389 C3387 1.384 . S
H3390 C3396 0.930 . S
H3391 C3400 0.930 . S
H3392 C3405 0.929 . S
H3393 C3403 0.929 . S
H3394 C3398 0.929 . S
H3395 C3404 0.929 . S
C3396 H3390 0.930 . S
C3396 C3397 1.367 . S
C3396 C3404 1.378 . S
C3397 C3396 1.367 . S
C3397 C3405 1.433 . S
C3398 H3394 0.929 . S
C3398 C3400 1.378 . S
C3398 C3402 1.350 . S
C3399 C3402 1.463 . S
C3399 C3404 1.350 . S
C3399 N3407 1.427 . S
C3400 H3391 0.930 . S
C3400 C3398 1.378 . S
C3400 C3401 1.367 . S
C3401 C3400 1.367 . S
C3401 C3403 1.433 . S
C3402 C3398 1.350 . S
C3402 C3399 1.463 . S
C3402 N3406 1.427 . S
C3403 H3393 0.929 . S
C3403 C3401 1.433 . S
C3403 N3406 1.384 . S
C3404 H3395 0.929 . S
C3404 C3396 1.378 . S
C3404 C3399 1.350 . S
C3405 H3392 0.929 . S
C3405 C3397 1.433 . S
C3405 N3407 1.384 . S
N3406 C3402 1.427 . S
N3406 C3403 1.384 . S
N3407 C3399 1.427 . S
N3407 C3405 1.384 . S
C1687 C109 1.783 . S
C1691 C403 1.642 . S
C1705 C65 2.231 . S
C1709 C486 2.159 . S
C1723 C75 1.578 . S
C1727 C571 1.492 . S
C1745 C651 1.474 . S
C1741 C84 1.600 . S
C1759 C25 1.538 . S
C1763 C735 1.523 . S
C1781 C828 0.934 . S
C1777 C28 0.984 . S
C1799 C906 0.936 . S
C1795 C47 0.938 . S
C1813 C9 1.506 . S
C1817 C991 1.327 . S
C1835 C402 2.077 . S
C1831 C233 2.190 . S
C1849 C249 0.698 . S
C1853 C483 0.692 . S
C1871 C570 1.219 . S
C1867 C275 1.279 . S
C1889 C655 1.539 . S
C1885 C173 1.644 . S
C1903 C224 2.143 . S
C1907 C739 2.008 . S
C1925 C831 1.142 . S
C1921 C243 1.226 . S
C1943 C903 0.800 . S
C1939 C266 0.788 . S
C1961 C990 1.456 . S
C1957 C179 1.584 . S
C1979 C399 1.427 . S
C1975 C163 1.516 . S
C1993 C289 1.952 . S
C1997 C1074 1.863 1_556 S
C2015 C1148 2.175 . S
C2011 C333 2.353 . S
C2033 C1243 0.570 . S
C2029 C308 0.463 . S
C2047 C123 0.976 . S
C2051 C987 0.981 . S
C2065 C126 1.474 . S
C2069 C567 1.444 . S
C2083 C327 2.283 . S
C2087 C1326 2.196 . S
C2105 C1411 0.785 . S
C2101 C299 0.815 . S
C2123 C392 1.672 . S
C2119 C67 1.814 . S
C2141 C1419 2.192 . S
C2137 C98 2.191 . S
C2155 C89 1.610 . S
C2159 C560 1.532 . S
C2173 C79 1.662 . S
C2177 C1332 1.529 . S
C2195 C744 1.524 . S
C2191 C11 1.555 . S
C2209 C51 1.018 . S
C2213 C1155 0.964 . S
C2231 C915 1.012 . S
C2227 C33 0.998 . S
C2249 C1484 1.325 . S
C2245 C14 1.496 . S
C2267 C411 2.079 . S
C2263 C140 2.177 . S
C2285 C1416 0.692 . S
C2281 C319 0.703 . S
C2299 C112 1.265 . S
C2303 C579 1.225 . S
C2317 C285 1.667 . S
C2321 C1316 1.545 . S
C2335 C149 2.218 . S
C2339 C728 2.043 . S
C2357 C1158 1.164 . S
C2353 C313 1.258 . S
C2371 C121 0.847 . S
C2375 C912 0.820 . S
C2389 C291 1.625 . S
C2393 C1503 1.500 . S
C2407 C182 1.514 . S
C2411 C408 1.432 1_554 S
C2425 C168 1.945 . S
C2429 C1083 1.882 . S
C2443 C263 2.401 . S
C2447 C823 2.235 . S
C2461 C247 0.504 . S
C2465 C1232 0.583 . S
C2483 C1500 0.930 . S
C2479 C277 0.936 1_565 S
C2497 C219 1.524 . S
C2501 C576 1.453 . S
C2519 C663 2.234 . S
C2515 C257 2.323 . S
C2537 C476 0.814 . S
C2533 C201 0.818 . S
C2551 C81 1.788 . S
C2555 C1579 1.656 . S
C2573 C1410 2.165 . S
C2569 C93 2.228 . S
C2587 C103 1.582 . S
C2591 C1663 1.488 . S
C2605 C56 1.596 . S
C2609 C1323 1.489 . S
C2623 C53 1.538 . S
C2627 C1071 1.520 . S
C2645 C1164 0.928 . S
C2641 C0 0.974 . S
C2663 C1242 0.936 . S
C2659 C19 0.938 . S
C2681 C1495 1.353 . S
C2677 C37 1.513 . S
C2699 C1578 2.086 . S
C2695 C261 2.190 . S
C2713 C193 0.681 . S
C2717 C1407 0.695 . S
C2735 C1662 1.217 . S
C2731 C205 1.280 . S
C2753 C1327 1.541 . S
C2749 C215 1.644 . S
C2771 C1075 2.019 . S
C2767 C252 2.151 . S
C2785 C187 1.227 . S
C2789 C1167 1.143 . S
C2807 C1239 0.788 . S
C2803 C196 0.794 . S
C2821 C221 1.584 . S
C2825 C1494 1.451 . S
C2843 C1575 1.442 . S
C2839 C317 1.512 . S
C2857 C135 1.953 . S
C2861 C738 1.864 . S
C2879 C812 2.173 . S
C2875 C151 2.357 . S
C2897 C907 0.527 . S
C2893 C154 0.445 . S
C2915 C1491 0.992 . S
C2911 C305 0.954 . S
C2929 C280 1.476 . S
C2933 C1659 1.438 . S
C2951 C654 2.196 . S
C2947 C145 2.277 . S
C2969 C487 0.815 . S
C2965 C117 0.816 . S
C2983 C95 1.814 . S
C2987 C1568 1.677 . S
C3005 C495 2.191 . S
C3001 C70 2.190 . S
C3019 C61 1.609 . S
C3023 C1652 1.530 . S
C3037 C107 1.661 . S
C3041 C660 1.529 . S
C3055 C39 1.559 . S
C3059 C1080 1.516 . S
C3077 C819 0.958 . S
C3073 C23 1.017 . S
C3091 C5 0.994 . S
C3095 C1251 1.010 . S
C3109 C42 1.500 . S
C3113 C980 1.337 . S
C3131 C1587 2.078 . S
C3127 C322 2.178 . S
C3145 C165 0.700 . S
C3149 C492 0.719 . S
C3167 C1671 1.239 . S
C3163 C294 1.259 . S
C3181 C131 1.669 . S
C3185 C644 1.554 . S
C3199 C331 2.217 . S
C3203 C1064 2.045 . S
C3221 C822 1.148 . S
C3217 C159 1.250 . S
C3235 C303 0.852 . S
C3239 C1248 0.806 1_655 S
C3257 C999 1.497 . S
C3253 C137 1.625 . S
C3275 C1584 1.424 . S
C3271 C238 1.514 . S
C3293 C747 1.894 1_665 S
C3289 C210 1.939 . S
C3307 C235 2.403 . S
C3311 C1159 2.228 . S
C3329 C896 0.571 . S
C3325 C191 0.507 . S
C3343 C207 0.921 . S
C3347 C996 0.943 . S
C3361 C177 1.520 . S
C3365 C1668 1.463 1_554 S
C3383 C1335 2.233 . S
C3379 C229 2.323 1_565 S
C3401 C1400 0.817 . S
C3397 C271 0.817 . S
