# Generated by pormake.
# Topology ocu, (6,8)-cn, num edge types: 1
# Building blocks:
#     Node 0, Type 0, BuildingBlock: CUWYAW_clean_sbu_0, # of connection points: 6
#     Node 1, Type 0, BuildingBlock: CUWYAW_clean_sbu_0, # of connection points: 6
#     Node 2, Type 0, BuildingBlock: CUWYAW_clean_sbu_0, # of connection points: 6
#     Node 3, Type 0, BuildingBlock: CUWYAW_clean_sbu_0, # of connection points: 6
#     Node 4, Type 0, BuildingBlock: CUWYAW_clean_sbu_0, # of connection points: 6
#     Node 5, Type 0, BuildingBlock: CUWYAW_clean_sbu_0, # of connection points: 6
#     Node 6, Type 0, BuildingBlock: CUWYAW_clean_sbu_0, # of connection points: 6
#     Node 7, Type 0, BuildingBlock: CUWYAW_clean_sbu_0, # of connection points: 6
#     Node 8, Type 1, BuildingBlock: GIZVER_clean_sbu_0, # of connection points: 8
#     Node 9, Type 1, BuildingBlock: GIZVER_clean_sbu_0, # of connection points: 8
#     Node 10, Type 1, BuildingBlock: GIZVER_clean_sbu_0, # of connection points: 8
#     Node 11, Type 1, BuildingBlock: GIZVER_clean_sbu_0, # of connection points: 8
#     Node 12, Type 1, BuildingBlock: GIZVER_clean_sbu_0, # of connection points: 8
#     Node 13, Type 1, BuildingBlock: GIZVER_clean_sbu_0, # of connection points: 8
#     Edge 14, Type (0, 1), BuildingBlock: AJUNOK_clean_linker_0, # of connection points: 2
#     Edge 15, Type (0, 1), BuildingBlock: AJUNOK_clean_linker_0, # of connection points: 2
#     Edge 16, Type (0, 1), BuildingBlock: AJUNOK_clean_linker_0, # of connection points: 2
#     Edge 17, Type (0, 1), BuildingBlock: AJUNOK_clean_linker_0, # of connection points: 2
#     Edge 18, Type (0, 1), BuildingBlock: AJUNOK_clean_linker_0, # of connection points: 2
#     Edge 19, Type (0, 1), BuildingBlock: AJUNOK_clean_linker_0, # of connection points: 2
#     Edge 20, Type (0, 1), BuildingBlock: AJUNOK_clean_linker_0, # of connection points: 2
#     Edge 21, Type (0, 1), BuildingBlock: AJUNOK_clean_linker_0, # of connection points: 2
#     Edge 22, Type (0, 1), BuildingBlock: AJUNOK_clean_linker_0, # of connection points: 2
#     Edge 23, Type (0, 1), BuildingBlock: AJUNOK_clean_linker_0, # of connection points: 2
#     Edge 24, Type (0, 1), BuildingBlock: AJUNOK_clean_linker_0, # of connection points: 2
#     Edge 25, Type (0, 1), BuildingBlock: AJUNOK_clean_linker_0, # of connection points: 2
#     Edge 26, Type (0, 1), BuildingBlock: AJUNOK_clean_linker_0, # of connection points: 2
#     Edge 27, Type (0, 1), BuildingBlock: AJUNOK_clean_linker_0, # of connection points: 2
#     Edge 28, Type (0, 1), BuildingBlock: AJUNOK_clean_linker_0, # of connection points: 2
#     Edge 29, Type (0, 1), BuildingBlock: AJUNOK_clean_linker_0, # of connection points: 2
#     Edge 30, Type (0, 1), BuildingBlock: AJUNOK_clean_linker_0, # of connection points: 2
#     Edge 31, Type (0, 1), BuildingBlock: AJUNOK_clean_linker_0, # of connection points: 2
#     Edge 32, Type (0, 1), BuildingBlock: AJUNOK_clean_linker_0, # of connection points: 2
#     Edge 33, Type (0, 1), BuildingBlock: AJUNOK_clean_linker_0, # of connection points: 2
#     Edge 34, Type (0, 1), BuildingBlock: AJUNOK_clean_linker_0, # of connection points: 2
#     Edge 35, Type (0, 1), BuildingBlock: AJUNOK_clean_linker_0, # of connection points: 2
#     Edge 36, Type (0, 1), BuildingBlock: AJUNOK_clean_linker_0, # of connection points: 2
#     Edge 37, Type (0, 1), BuildingBlock: AJUNOK_clean_linker_0, # of connection points: 2
#     Edge 38, Type (0, 1), BuildingBlock: AJUNOK_clean_linker_0, # of connection points: 2
#     Edge 39, Type (0, 1), BuildingBlock: AJUNOK_clean_linker_0, # of connection points: 2
#     Edge 40, Type (0, 1), BuildingBlock: AJUNOK_clean_linker_0, # of connection points: 2
#     Edge 41, Type (0, 1), BuildingBlock: AJUNOK_clean_linker_0, # of connection points: 2
#     Edge 42, Type (0, 1), BuildingBlock: AJUNOK_clean_linker_0, # of connection points: 2
#     Edge 43, Type (0, 1), BuildingBlock: AJUNOK_clean_linker_0, # of connection points: 2
#     Edge 44, Type (0, 1), BuildingBlock: AJUNOK_clean_linker_0, # of connection points: 2
#     Edge 45, Type (0, 1), BuildingBlock: AJUNOK_clean_linker_0, # of connection points: 2
#     Edge 46, Type (0, 1), BuildingBlock: AJUNOK_clean_linker_0, # of connection points: 2
#     Edge 47, Type (0, 1), BuildingBlock: AJUNOK_clean_linker_0, # of connection points: 2
#     Edge 48, Type (0, 1), BuildingBlock: AJUNOK_clean_linker_0, # of connection points: 2
#     Edge 49, Type (0, 1), BuildingBlock: AJUNOK_clean_linker_0, # of connection points: 2
#     Edge 50, Type (0, 1), BuildingBlock: AJUNOK_clean_linker_0, # of connection points: 2
#     Edge 51, Type (0, 1), BuildingBlock: AJUNOK_clean_linker_0, # of connection points: 2
#     Edge 52, Type (0, 1), BuildingBlock: AJUNOK_clean_linker_0, # of connection points: 2
#     Edge 53, Type (0, 1), BuildingBlock: AJUNOK_clean_linker_0, # of connection points: 2
#     Edge 54, Type (0, 1), BuildingBlock: AJUNOK_clean_linker_0, # of connection points: 2
#     Edge 55, Type (0, 1), BuildingBlock: AJUNOK_clean_linker_0, # of connection points: 2
#     Edge 56, Type (0, 1), BuildingBlock: AJUNOK_clean_linker_0, # of connection points: 2
#     Edge 57, Type (0, 1), BuildingBlock: AJUNOK_clean_linker_0, # of connection points: 2
#     Edge 58, Type (0, 1), BuildingBlock: AJUNOK_clean_linker_0, # of connection points: 2
#     Edge 59, Type (0, 1), BuildingBlock: AJUNOK_clean_linker_0, # of connection points: 2
#     Edge 60, Type (0, 1), BuildingBlock: AJUNOK_clean_linker_0, # of connection points: 2
#     Edge 61, Type (0, 1), BuildingBlock: AJUNOK_clean_linker_0, # of connection points: 2
# Relax obj value: 0.239
# Max RMSD: 0.252
# Mean RMSD: 0.168
data_MOF--net-ocu--node1-CUWYAW_clean_sbu_0--node2-GIZVER_clean_sbu_0--edge1-AJUNOK_clean_linker_0
_symmetry_space_group_name_H-M    P1
_symmetry_Int_Tables_number       1
_symmetry_cell_setting            triclinic
loop_
_symmetry_equiv_pos_as_xyz
'x, y, z'
_cell_length_a     34.476794
_cell_length_b     34.548252
_cell_length_c     24.819077
_cell_angle_alpha  79.481212
_cell_angle_beta   105.85941
_cell_angle_gamma 114.2404
loop_
_atom_site_label
_atom_site_type_symbol
_atom_site_fract_x
_atom_site_fract_y
_atom_site_fract_z
_atom_type_partial_charge
C0 C 0.38907 0.39761 0.44315 0.0
Eu1 Eu 0.35586 0.35789 0.35101 0.0
C2 C 0.37218 0.41604 0.47607 0.0
C3 C 0.38381 0.46033 0.47148 0.0
C4 C 0.36078 0.47756 0.49146 0.0
C5 C 0.32623 0.45071 0.51684 0.0
C6 C 0.31774 0.407 0.52686 0.0
C7 C 0.34057 0.38971 0.50665 0.0
C8 C 0.40395 0.39388 0.26753 0.0
C9 C 0.27307 0.38593 0.27874 0.0
C10 C 0.27715 0.27952 0.17167 0.0
Eu11 Eu 0.30974 0.31831 0.26429 0.0
C12 C 0.29586 0.26337 0.13896 0.0
C13 C 0.27397 0.22137 0.12347 0.0
C14 C 0.29651 0.20107 0.10812 0.0
C15 C 0.34092 0.22284 0.10827 0.0
C16 C 0.36135 0.26614 0.1179 0.0
C17 C 0.33901 0.28634 0.1333 0.0
C18 C 0.26377 0.28118 0.34972 0.0
C19 C 0.38833 0.28658 0.33866 0.0
O20 O 0.37235 0.35631 0.44248 0.0
O21 O 0.39304 0.41646 0.39336 0.0
O22 O 0.41767 0.38 0.31809 0.0
O23 O 0.363 0.38458 0.26083 0.0
O24 O 0.30041 0.38537 0.3283 0.0
O25 O 0.2729 0.36348 0.24115 0.0
O26 O 0.29207 0.32076 0.17274 0.0
O27 O 0.27471 0.25992 0.22143 0.0
O28 O 0.2485 0.29403 0.29931 0.0
O29 O 0.3045 0.29126 0.35472 0.0
O30 O 0.36506 0.29072 0.28711 0.0
O31 O 0.38629 0.30733 0.37665 0.0
H32 H 0.4085 0.48133 0.44878 0.0
H33 H 0.36757 0.51133 0.48276 0.0
H34 H 0.29133 0.38584 0.54676 0.0
H35 H 0.3314 0.3555 0.51183 0.0
H36 H 0.24071 0.20323 0.12794 0.0
H37 H 0.28042 0.16752 0.10111 0.0
H38 H 0.39566 0.28336 0.11819 0.0
H39 H 0.35669 0.31872 0.14533 0.0
C40 C 0.81863 0.31531 0.16344 0.0
Eu41 Eu 0.8332 0.32636 0.27029 0.0
C42 C 0.80191 0.33879 0.113 0.0
C43 C 0.82524 0.35258 0.07033 0.0
C44 C 0.84412 0.39647 0.05674 0.0
C45 C 0.84439 0.42373 0.09282 0.0
C46 C 0.80707 0.40993 0.11498 0.0
C47 C 0.78394 0.36604 0.12273 0.0
C48 C 0.77074 0.26042 0.31311 0.0
C49 C 0.77549 0.38129 0.27138 0.0
C50 C 0.84751 0.36497 0.47259 0.0
Eu51 Eu 0.83606 0.34753 0.36944 0.0
C52 C 0.86172 0.34521 0.52791 0.0
C53 C 0.83045 0.3294 0.5605 0.0
C54 C 0.80759 0.28551 0.56462 0.0
C55 C 0.81956 0.2592 0.54095 0.0
C56 C 0.86187 0.27553 0.5311 0.0
C57 C 0.88434 0.31965 0.52736 0.0
C58 C 0.89258 0.41602 0.32054 0.0
C59 C 0.89221 0.28983 0.36925 0.0
O60 O 0.85672 0.33736 0.19347 0.0
O61 O 0.79121 0.2937 0.19512 0.0
O62 O 0.80448 0.25786 0.30328 0.0
O63 O 0.77869 0.29952 0.31562 0.0
O64 O 0.79943 0.3748 0.24316 0.0
O65 O 0.78002 0.36836 0.32511 0.0
O66 O 0.81036 0.34087 0.44281 0.0
O67 O 0.87669 0.38347 0.44248 0.0
O68 O 0.85806 0.41474 0.33237 0.0
O69 O 0.88957 0.37774 0.32209 0.0
O70 O 0.87125 0.2998 0.39884 0.0
O71 O 0.88584 0.30057 0.3147 0.0
H72 H 0.83669 0.33164 0.05728 0.0
H73 H 0.86873 0.40762 0.03249 0.0
H74 H 0.80172 0.43088 0.13717 0.0
H75 H 0.75985 0.3544 0.14806 0.0
H76 H 0.81513 0.34956 0.5668 0.0
H77 H 0.77597 0.27428 0.57349 0.0
H78 H 0.87378 0.25592 0.516 0.0
H79 H 0.91256 0.33293 0.50904 0.0
C80 C 0.81877 0.75665 0.45721 0.0
Eu81 Eu 0.82016 0.80574 0.36548 0.0
C82 C 0.85883 0.75002 0.48817 0.0
C83 C 0.86651 0.717 0.47347 0.0
C84 C 0.90872 0.72226 0.474 0.0
C85 C 0.94385 0.76049 0.48948 0.0
C86 C 0.93707 0.79069 0.51227 0.0
C87 C 0.89472 0.78478 0.51312 0.0
C88 C 0.75629 0.79082 0.26938 0.0
C89 C 0.87701 0.78182 0.29332 0.0
C90 C 0.87531 0.9179 0.19688 0.0
Eu91 Eu 0.85187 0.86467 0.28255 0.0
C92 C 0.85471 0.93581 0.14485 0.0
C93 C 0.86507 0.97971 0.13851 0.0
C94 C 0.83396 0.99523 0.10641 0.0
C95 C 0.79269 0.96654 0.08146 0.0
C96 C 0.78712 0.92477 0.07639 0.0
C97 C 0.81825 0.9092 0.10856 0.0
C98 C 0.91372 0.87737 0.3815 0.0
C99 C 0.79251 0.88769 0.35162 0.0
O100 O 0.82085 0.79539 0.45508 0.0
O101 O 0.80217 0.74163 0.40776 0.0
O102 O 0.75012 0.78896 0.31916 0.0
O103 O 0.79651 0.80159 0.27208 0.0
O104 O 0.86293 0.77428 0.34103 0.0
O105 O 0.87334 0.81529 0.2603 0.0
O106 O 0.86621 0.87726 0.19982 0.0
O107 O 0.87383 0.92957 0.24322 0.0
O108 O 0.92058 0.87579 0.33371 0.0
O109 O 0.87384 0.86916 0.37511 0.0
O110 O 0.80547 0.89409 0.3029 0.0
O111 O 0.79772 0.85523 0.38631 0.0
H112 H 0.83968 0.68944 0.45515 0.0
H113 H 0.91358 0.69736 0.45904 0.0
H114 H 0.96389 0.8197 0.52644 0.0
H115 H 0.8898 0.80965 0.52776 0.0
H116 H 0.894 1.0009 0.16477 0.0
H117 H 0.83947 1.0279 0.11 0.0
H118 H 0.75612 0.90247 0.05543 0.0
H119 H 0.81088 0.87543 0.11055 0.0
C120 C 0.26177 0.89855 0.30942 0.0
Eu121 Eu 0.30529 0.85536 0.30148 0.0
C122 C 0.24901 0.89953 0.36002 0.0
C123 C 0.20994 0.90392 0.35632 0.0
C124 C 0.19831 0.90488 0.40524 0.0
C125 C 0.22582 0.90157 0.45792 0.0
C126 C 0.26395 0.89525 0.4617 0.0
C127 C 0.27537 0.8939 0.41284 0.0
C128 C 0.27148 0.79236 0.23103 0.0
C129 C 0.28124 0.77038 0.38843 0.0
C130 C 0.40459 0.76465 0.325 0.0
Eu131 Eu 0.36078 0.81025 0.32618 0.0
C132 C 0.39425 0.72717 0.29621 0.0
C133 C 0.42309 0.7061 0.31008 0.0
C134 C 0.4207 0.6789 0.27305 0.0
C135 C 0.38964 0.67297 0.22182 0.0
C136 C 0.35735 0.68974 0.21165 0.0
C137 C 0.35986 0.71708 0.24854 0.0
C138 C 0.3946 0.87833 0.39171 0.0
C139 C 0.37846 0.88927 0.2299 0.0
O140 O 0.30373 0.9154 0.31286 0.0
O141 O 0.24297 0.86192 0.28764 0.0
O142 O 0.27644 0.83177 0.21518 0.0
O143 O 0.29036 0.7896 0.28222 0.0
O144 O 0.28176 0.80966 0.37788 0.0
O145 O 0.3061 0.76098 0.36526 0.0
O146 O 0.38421 0.75933 0.36465 0.0
O147 O 0.40589 0.79876 0.29148 0.0
O148 O 0.39687 0.84152 0.40948 0.0
O149 O 0.37535 0.87663 0.34108 0.0
O150 O 0.37961 0.85095 0.24612 0.0
O151 O 0.35277 0.90063 0.24871 0.0
H152 H 0.18905 0.90744 0.31585 0.0
H153 H 0.16897 0.91045 0.40189 0.0
H154 H 0.28548 0.89297 0.50209 0.0
H155 H 0.30533 0.88946 0.41629 0.0
H156 H 0.44975 0.71358 0.34678 0.0
H157 H 0.44614 0.66644 0.2815 0.0
H158 H 0.33317 0.6853 0.17247 0.0
H159 H 0.33765 0.73356 0.23707 0.0
C160 C 0.39093 0.87783 0.68099 0.0
Eu161 Eu 0.3512 0.84361 0.76279 0.0
C162 C 0.43797 0.89718 0.68668 0.0
C163 C 0.46508 0.90347 0.74071 0.0
C164 C 0.50963 0.92714 0.74754 0.0
C165 C 0.52741 0.94443 0.70017 0.0
C166 C 0.50066 0.935 0.64613 0.0
C167 C 0.45602 0.91154 0.63942 0.0
C168 C 0.28929 0.763 0.75547 0.0
C169 C 0.27321 0.87653 0.76125 0.0
C170 C 0.30515 0.79787 0.95205 0.0
Eu171 Eu 0.32014 0.82518 0.85244 0.0
C172 C 0.30138 0.75935 0.98944 0.0
C173 C 0.31131 0.76226 0.04753 0.0
C174 C 0.28987 0.72734 0.08135 0.0
C175 C 0.25677 0.69166 0.05525 0.0
C176 C 0.25768 0.68474 1.00168 0.0
C177 C 0.27937 0.7193 0.96785 0.0
C178 C 0.38287 0.90572 0.85251 0.0
C179 C 0.39094 0.78825 0.85623 0.0
O180 O 0.37574 0.837 0.69426 0.0
O181 O 0.3754 0.8979 0.70382 0.0
O182 O 0.32779 0.7755 0.74653 0.0
O183 O 0.28463 0.79358 0.77118 0.0
O184 O 0.30585 0.88155 0.73865 0.0
O185 O 0.26747 0.85029 0.80662 0.0
O186 O 0.27414 0.79451 0.90662 0.0
O187 O 0.34385 0.82077 0.94316 0.0
O188 O 0.34406 0.8962 0.85901 0.0
O189 O 0.38613 0.87288 0.8423 0.0
O190 O 0.3515 0.77629 0.86468 0.0
O191 O 0.40398 0.82312 0.82301 0.0
H192 H 0.45133 0.89216 0.77748 0.0
H193 H 0.52954 0.9344 0.78933 0.0
H194 H 0.51362 0.94878 0.60882 0.0
H195 H 0.43545 0.9066 0.59755 0.0
H196 H 0.33007 0.79275 0.06521 0.0
H197 H 0.29125 0.73229 0.12383 0.0
H198 H 0.23429 0.65622 0.98171 0.0
H199 H 0.27354 0.71611 0.9234 0.0
C200 C 0.38199 0.30211 0.69113 0.0
Eu201 Eu 0.36508 0.32895 0.7715 0.0
C202 C 0.40692 0.28104 0.67449 0.0
C203 C 0.45144 0.30253 0.67362 0.0
C204 C 0.47289 0.28466 0.65076 0.0
C205 C 0.45049 0.24494 0.62735 0.0
C206 C 0.40632 0.22287 0.6298 0.0
C207 C 0.38487 0.24072 0.6528 0.0
C208 C 0.4189 0.39058 0.84221 0.0
C209 C 0.38272 0.27502 0.89352 0.0
C210 C 0.30789 0.35958 0.94894 0.0
Eu211 Eu 0.32812 0.334 0.87041 0.0
C212 C 0.28239 0.38168 0.96202 0.0
C213 C 0.24106 0.3582 0.97443 0.0
C214 C 0.21904 0.37812 0.99249 0.0
C215 C 0.23772 0.42216 0.99941 0.0
C216 C 0.27897 0.44574 0.98671 0.0
C217 C 0.30101 0.4258 0.96852 0.0
C218 C 0.27344 0.2741 0.79618 0.0
C219 C 0.31747 0.39328 0.75306 0.0
O220 O 0.35056 0.27886 0.71725 0.0
O221 O 0.40263 0.34074 0.70778 0.0
O222 O 0.41807 0.39458 0.78882 0.0
O223 O 0.39428 0.35355 0.85599 0.0
O224 O 0.37784 0.27794 0.83814 0.0
O225 O 0.37045 0.29791 0.91764 0.0
O226 O 0.34135 0.38236 0.92629 0.0
O227 O 0.28711 0.32155 0.93045 0.0
O228 O 0.27499 0.26858 0.84984 0.0
O229 O 0.29876 0.31125 0.78443 0.0
O230 O 0.32194 0.38921 0.80821 0.0
O231 O 0.32533 0.36808 0.72689 0.0
H232 H 0.46964 0.33366 0.68955 0.0
H233 H 0.50716 0.30223 0.65109 0.0
H234 H 0.38789 0.19232 0.61228 0.0
H235 H 0.35051 0.2234 0.65213 0.0
H236 H 0.22596 0.3241 0.97125 0.0
H237 H 0.18754 0.35871 1.0022 0.0
H238 H 0.29422 0.47976 0.99048 0.0
H239 H 0.33305 0.44497 0.96033 0.0
C240 C 0.76924 0.37982 0.77584 0.0
Eu241 Eu 0.81739 0.3345 0.80043 0.0
C242 C 0.76544 0.4059 0.81329 0.0
C243 C 0.73747 0.42805 0.79466 0.0
C244 C 0.73125 0.4493 0.83262 0.0
C245 C 0.75269 0.44826 0.88957 0.0
C246 C 0.78208 0.42762 0.90749 0.0
C247 C 0.78851 0.40674 0.8696 0.0
C248 C 0.79804 0.26715 0.7343 0.0
C249 C 0.77766 0.26563 0.8922 0.0
C250 C 0.91085 0.2454 0.89122 0.0
Eu251 Eu 0.86392 0.29192 0.85369 0.0
C252 C 0.91528 0.21258 0.86651 0.0
C253 C 0.95731 0.21531 0.86897 0.0
C254 C 0.9642 0.19661 0.82927 0.0
C255 C 0.9291 0.17533 0.78677 0.0
C256 C 0.8864 0.16716 0.78947 0.0
C257 C 0.87947 0.18577 0.82955 0.0
C258 C 0.88343 0.35693 0.92098 0.0
C259 C 0.90345 0.36565 0.75991 0.0
O260 O 0.80724 0.39303 0.76351 0.0
O261 O 0.75434 0.33899 0.78986 0.0
O262 O 0.80299 0.3062 0.71642 0.0
O263 O 0.80316 0.26474 0.78735 0.0
O264 O 0.78772 0.30626 0.87721 0.0
O265 O 0.79937 0.24757 0.87699 0.0
O266 O 0.87351 0.23616 0.90334 0.0
O267 O 0.92481 0.28319 0.86537 0.0
O268 O 0.87484 0.31728 0.93732 0.0
O269 O 0.87904 0.36073 0.86784 0.0
O270 O 0.89908 0.32623 0.78021 0.0
O271 O 0.87717 0.38057 0.77005 0.0
H272 H 0.71946 0.42776 0.75138 0.0
H273 H 0.70806 0.46469 0.81817 0.0
H274 H 0.79883 0.4264 0.95118 0.0
H275 H 0.81044 0.39001 0.88473 0.0
H276 H 0.98521 0.23564 0.89751 0.0
H277 H 0.99739 0.20259 0.82812 0.0
H278 H 0.859 0.1503 0.75734 0.0
H279 H 0.84666 0.18268 0.82804 0.0
C280 C 0.84761 0.90921 0.95525 0.0
Eu281 Eu 0.85812 0.87555 0.87798 0.0
C282 C 0.83262 0.94429 0.95147 0.0
C283 C 0.86117 0.98366 0.97285 0.0
C284 C 0.84651 1.01681 0.96788 0.0
C285 C 0.80304 1.01104 0.94147 0.0
C286 C 0.77489 0.97157 0.9201 0.0
C287 C 0.78942 0.93888 0.92476 0.0
C288 C 0.91539 0.91596 0.80607 0.0
C289 C 0.80164 0.89468 0.75409 0.0
C290 C 0.84814 0.79051 0.69324 0.0
Eu291 Eu 0.83705 0.81637 0.77843 0.0
C292 C 0.86584 0.76259 0.67773 0.0
C293 C 0.84356 0.71818 0.6773 0.0
C294 C 0.86105 0.69339 0.66015 0.0
C295 C 0.90106 0.7126 0.64312 0.0
C296 C 0.92326 0.75691 0.6444 0.0
C297 C 0.90556 0.78156 0.66047 0.0
C298 C 0.77858 0.77508 0.84884 0.0
C299 C 0.89551 0.79953 0.90337 0.0
O300 O 0.81829 0.8744 0.93268 0.0
O301 O 0.88595 0.91952 0.94437 0.0
O302 O 0.91597 0.93211 0.84975 0.0
O303 O 0.88495 0.87915 0.80517 0.0
O304 O 0.81435 0.90081 0.80835 0.0
O305 O 0.80644 0.8644 0.73332 0.0
O306 O 0.87683 0.82304 0.72079 0.0
O307 O 0.81143 0.77367 0.71037 0.0
O308 O 0.7787 0.75988 0.80462 0.0
O309 O 0.80927 0.81206 0.85155 0.0
O310 O 0.88254 0.79289 0.84891 0.0
O311 O 0.88897 0.82858 0.92424 0.0
H312 H 0.89466 0.98867 0.99371 0.0
H313 H 0.86886 1.04656 0.98555 0.0
H314 H 0.74069 0.96489 0.90181 0.0
H315 H 0.76626 0.90907 0.90789 0.0
H316 H 0.81273 0.7026 0.69009 0.0
H317 H 0.84362 0.6592 0.6612 0.0
H318 H 0.95409 0.77287 0.63168 0.0
H319 H 0.92292 0.81577 0.65882 0.0
Co320 Co 0.12377 1.00628 0.58192 0.0
Co321 Co 0.1381 1.03287 0.67769 0.0
Co322 Co 0.08993 0.08669 0.57484 0.0
O323 O 0.13583 1.06111 0.6048 0.0
H324 H 0.1644 0.0816 0.601 0.0
O325 O 1.04341 0.11124 0.54503 0.0
Co326 Co 1.04435 0.1552 0.58267 0.0
Co327 Co 1.04533 0.15167 0.48559 0.0
H328 H 1.01493 0.08847 0.53881 0.0
O329 O 0.19023 1.02497 0.71987 0.0
O330 O 0.13513 0.98071 0.66144 0.0
O331 O 0.08578 1.0176 0.70421 0.0
O332 O 1.04889 1.04558 0.62921 0.0
O333 O 0.12204 0.12779 0.63393 0.0
O334 O 1.04006 0.19087 0.62015 0.0
O335 O 0.98733 0.13178 0.58169 0.0
O336 O 0.10682 0.18398 0.59265 0.0
O337 O 0.13125 0.12929 0.5199 0.0
O338 O 0.09969 0.17237 0.46333 0.0
O339 O 1.03308 0.19289 0.5104 0.0
O340 O 0.99437 0.15429 0.43604 0.0
C341 C 0.15851 0.97728 0.56567 0.0
C342 C 1.04396 1.00331 0.53306 0.0
C343 C 1.05062 1.02205 0.67679 0.0
C344 C 0.17316 0.98935 0.69634 0.0
C345 C 1.00007 0.16321 0.61274 0.0
C346 C 0.13115 0.1677 0.62943 0.0
C347 C 0.13186 0.16064 0.4805 0.0
C348 C 1.00094 0.1849 0.46532 0.0
O349 O 0.11656 0.95838 0.55983 0.0
O350 O 0.17844 1.01636 0.58005 0.0
O351 O 1.05755 1.04318 0.51749 0.0
O352 O 1.06386 0.98969 0.57859 0.0
Co353 Co 0.62828 1.05888 1.00674 0.0
Co354 Co 0.59002 1.01108 0.081 0.0
Co355 Co 0.57349 0.09543 0.0644 0.0
O356 O 0.61484 0.06791 0.07379 0.0
H357 H 0.64045 0.07885 0.10333 0.0
O358 O 0.53339 0.12431 0.05156 0.0
Co359 Co 0.51992 0.14734 0.10367 0.0
Co360 Co 0.56028 0.17987 0.02976 0.0
H361 H 0.50758 0.11184 0.02297 0.0
O362 O 0.6253 0.98674 0.12852 0.0
O363 O 0.6147 0.99848 0.03373 0.0
O364 O 0.53044 0.98906 0.08793 0.0
O365 O 0.536 1.04937 0.11671 0.0
O366 O 0.61504 0.13056 0.13015 0.0
O367 O 0.50151 0.16647 0.1487 0.0
O368 O 0.46326 0.1313 0.0711 0.0
O369 O 0.57868 0.1668 0.14506 0.0
O370 O 0.61029 0.13801 1.01006 0.0
O371 O 0.6222 0.20233 0.03069 0.0
O372 O 0.53199 0.20364 0.05659 0.0
O373 O 0.52777 0.19447 0.96649 0.0
C374 C 0.68359 0.0663 0.98396 0.0
C375 C 0.53444 1.04063 0.96682 0.0
C376 C 0.51658 1.00836 0.1128 0.0
C377 C 0.63515 0.98628 0.08165 0.0
C378 C 0.46492 0.15093 0.11222 0.0
C379 C 0.61301 0.15872 0.15572 0.0
C380 C 0.63334 0.17833 1.01024 0.0
C381 C 0.51475 0.20665 1.00258 0.0
O382 O 0.64559 1.05239 0.95012 0.0
O383 O 0.68647 0.07447 0.03468 0.0
O384 O 0.53057 1.06105 1.00114 0.0
O385 O 0.57091 1.04015 0.96814 0.0
Co386 Co 0.09216 0.5034 0.1141 0.0
Co387 Co 0.09789 0.50819 0.21741 0.0
Co388 Co 1.04294 0.57159 0.14449 0.0
O389 O 0.09304 0.54888 0.15384 0.0
H390 H 0.12104 0.57227 0.15772 0.0
O391 O 0.99591 0.59908 0.14033 0.0
Co392 Co 1.00172 0.65368 0.17783 0.0
Co393 Co 1.00528 0.64458 0.08433 0.0
H394 H 0.96674 0.58001 0.12502 0.0
O395 O 0.15313 0.50618 0.25957 0.0
O396 O 0.1111 0.46877 0.18642 0.0
O397 O 1.04104 0.48102 0.2405 0.0
O398 O 1.03281 0.5422 0.21976 0.0
O399 O 0.08982 0.62254 0.18331 0.0
O400 O 1.00426 0.70004 0.21288 0.0
O401 O 0.94288 0.64659 0.18592 0.0
O402 O 1.06374 0.67327 0.18132 0.0
O403 O 1.05434 0.59973 0.06972 0.0
O404 O 1.06113 0.66597 0.0646 0.0
O405 O 0.99279 0.68724 0.10227 0.0
O406 O 0.95943 0.64504 0.02901 0.0
C407 C 0.13464 0.491 0.07957 0.0
C408 C 1.00022 0.48511 0.08848 0.0
C409 C 1.01634 0.50204 0.23077 0.0
C410 C 0.14705 0.47806 0.22659 0.0
C411 C 0.96243 0.68315 0.20964 0.0
C412 C 0.09532 0.6611 0.18707 0.0
C413 C 0.07608 0.63906 0.06035 0.0
C414 C 0.96652 0.67889 0.0523 0.0
O415 O 0.09392 0.46573 0.075 0.0
O416 O 0.14912 0.52559 0.10589 0.0
O417 O 0.99744 0.51966 0.0985 0.0
O418 O 1.03211 0.47444 0.11569 0.0
Co419 Co 0.63308 0.51699 0.05297 0.0
Co420 Co 0.63174 0.52566 0.14884 0.0
Co421 Co 0.58955 0.5892 0.056 0.0
O422 O 0.63668 0.56497 0.08703 0.0
H423 H 0.6655 0.58722 0.09203 0.0
O424 O 0.5423 0.61234 0.02274 0.0
Co425 Co 0.53508 0.64989 0.06281 0.0
Co426 Co 0.54878 0.65743 0.96864 0.0
H427 H 0.51485 0.58935 1.01032 0.0
O428 O 0.68152 0.52366 0.20018 0.0
O429 O 0.64317 0.48251 0.12805 0.0
O430 O 0.57635 0.50492 0.16999 0.0
O431 O 0.54539 0.54513 0.10642 0.0
O432 O 0.61888 0.63014 0.11735 0.0
O433 O 0.52293 0.67998 0.10123 0.0
O434 O 0.47713 0.6224 0.05349 0.0
O435 O 0.59591 0.68247 0.07889 0.0
O436 O 0.63295 0.6339 1.00563 0.0
O437 O 0.60796 0.68435 0.95776 0.0
O438 O 0.52849 0.69147 0.9951 0.0
O439 O 0.50049 0.66149 0.91271 0.0
C440 C 0.67485 0.50092 0.02555 0.0
C441 C 0.54984 0.50816 1.0044 0.0
C442 C 0.54361 0.51516 0.14784 0.0
C443 C 0.67482 0.49169 0.17339 0.0
C444 C 0.48403 0.65131 0.08583 0.0
C445 C 0.62398 0.6694 0.11236 0.0
C446 C 0.63808 0.66964 0.97348 0.0
C447 C 0.50068 0.68625 0.94647 0.0
O448 O 0.63384 0.47641 0.01952 0.0
O449 O 0.69031 0.53566 0.05149 0.0
O450 O 0.56085 0.54847 0.99551 0.0
O451 O 0.57166 0.49251 0.04587 0.0
Co452 Co 0.1829 0.53456 0.6192 0.0
Co453 Co 0.14521 0.5353 0.51158 0.0
Co454 Co 0.09553 0.56199 0.57493 0.0
O455 O 0.12506 0.52397 0.57726 0.0
H456 H 0.1059 0.49441 0.58121 0.0
O457 O 1.06669 0.59953 0.57475 0.0
Co458 Co 1.04567 0.62823 0.50954 0.0
Co459 Co 1.011 0.57393 0.57678 0.0
H460 H 0.08158 0.61789 0.60522 0.0
O461 O 0.15643 0.49538 0.48671 0.0
O462 O 0.20237 0.54451 0.5476 0.0
O463 O 0.14619 0.58551 0.46276 0.0
O464 O 0.13644 0.61287 0.52953 0.0
O465 O 1.05479 0.53526 0.50416 0.0
O466 O 1.03015 0.66163 0.4522 0.0
O467 O 1.06806 0.67739 0.54021 0.0
O468 O 1.01967 0.57865 0.46845 0.0
O469 O 1.05522 0.51355 0.6227 0.0
O470 O 0.98778 0.51207 0.58533 0.0
O471 O 0.98782 0.61177 0.53303 0.0
O472 O 0.99994 0.59619 0.62798 0.0
C473 C 0.21787 0.49749 0.65289 0.0
C474 C 0.17719 0.60733 0.64673 0.0
C475 C 0.15122 0.61786 0.48499 0.0
C476 C 0.19517 0.51439 0.51686 0.0
C477 C 1.05064 0.68927 0.49002 0.0
C478 C 1.02548 0.54476 0.46707 0.0
C479 C 1.01315 0.49481 0.61703 0.0
C480 C 0.98419 0.61562 0.58298 0.0
O481 O 0.23538 0.53819 0.65881 0.0
O482 O 0.17758 0.48036 0.62543 0.0
O483 O 0.13669 0.58744 0.64559 0.0
O484 O 0.19588 0.59414 0.62043 0.0
Co485 Co 0.71552 1.05378 0.52434 0.0
Co486 Co 0.67663 1.04071 0.42567 0.0
Co487 Co 0.62824 0.09477 0.47685 0.0
O488 O 0.65451 1.04792 0.48732 0.0
H489 H 0.63406 1.02067 0.49893 0.0
O490 O 0.60073 0.14148 0.46098 0.0
Co491 Co 0.53687 0.13672 0.4371 0.0
Co492 Co 0.59581 0.15384 0.52941 0.0
H493 H 0.61882 0.16729 0.44323 0.0
O494 O 0.67169 0.99512 0.38624 0.0
O495 O 0.72039 1.01614 0.46631 0.0
O496 O 0.70283 0.09839 0.39191 0.0
O497 O 0.65081 0.11497 0.4055 0.0
O498 O 0.57051 1.05348 0.43617 0.0
O499 O 0.48063 0.13813 0.41372 0.0
O500 O 0.54243 0.1951 0.41774 0.0
O501 O 0.51962 0.07514 0.44842 0.0
O502 O 0.60738 0.07025 0.54769 0.0
O503 O 0.61638 0.12245 0.59628 0.0
O504 O 0.53572 0.14123 0.51673 0.0
O505 O 0.59027 0.20347 0.53994 0.0
C506 C 0.74103 1.01601 0.59177 0.0
C507 C 0.70939 0.1284 0.57055 0.0
C508 C 0.69059 0.12604 0.40199 0.0
C509 C 0.70683 0.99376 0.4213 0.0
C510 C 0.49948 0.1795 0.40652 0.0
C511 C 0.53164 1.04603 0.44128 0.0
C512 C 0.61557 0.08569 0.59434 0.0
C513 C 0.54966 0.17855 0.53603 0.0
O514 O 0.76733 1.05033 0.56933 0.0
O515 O 0.69964 1.0066 0.57392 0.0
O516 O 0.68362 0.13558 0.52469 0.0
O517 O 0.71798 0.09422 0.57822 0.0
C518 C 0.18836 0.22899 0.36152 0.0
C519 C 0.23346 0.24725 0.38561 0.0
C520 C 0.15761 0.19928 0.39189 0.0
C521 C 0.16909 0.18533 0.4492 0.0
H522 H 0.17609 0.2382 0.31821 0.0
H523 H 0.12363 0.18793 0.37002 0.0
S524 S 0.28309 0.22207 0.53405 0.0
N525 N 0.2883 0.24761 0.47157 0.0
N526 N 0.23054 0.19267 0.52877 0.0
C527 C 0.21436 0.20232 0.47405 0.0
C528 C 0.24622 0.23282 0.44253 0.0
C529 C 0.91772 0.23045 0.36759 0.0
C530 C 0.9202 0.26364 0.39581 0.0
C531 C 0.94328 0.20547 0.39065 0.0
C532 C 0.97367 0.21244 0.44314 0.0
H533 H 0.89531 0.22328 0.3272 0.0
H534 H 0.93918 0.18043 0.36645 0.0
S535 S 0.99573 0.29761 0.53283 0.0
N536 N 0.95774 0.30337 0.47841 0.0
N537 N 1.0052 0.25693 0.52158 0.0
C538 C 0.97694 0.24598 0.47153 0.0
C539 C 0.95052 0.27125 0.44808 0.0
C540 C 0.98764 0.93514 0.40918 0.0
C541 C 0.94751 0.90739 0.42265 0.0
C542 C 1.01815 0.96705 0.44425 0.0
C543 C 1.01018 0.97172 0.49475 0.0
H544 H 0.99521 0.93296 0.37053 0.0
H545 H 1.0485 0.98778 0.43222 0.0
S546 S 0.91167 0.9068 0.55104 0.0
N547 N 0.90178 0.88748 0.49033 0.0
N548 N 0.96063 0.94529 0.558 0.0
C549 C 0.97103 0.94363 0.50969 0.0
C550 C 0.93931 0.91204 0.47319 0.0
C551 C 0.17672 0.89041 0.51934 0.0
C552 C 0.21777 0.91256 0.5066 0.0
C553 C 0.15931 0.91062 0.54419 0.0
C554 C 0.18244 0.95357 0.55611 0.0
H555 H 0.15614 0.85926 0.50431 0.0
H556 H 0.12605 0.89358 0.54922 0.0
S557 S 0.29662 1.01993 0.54615 0.0
N558 N 0.28525 0.97516 0.51927 0.0
N559 N 0.25233 1.01369 0.56608 0.0
C560 C 0.22618 0.97345 0.55182 0.0
C561 C 0.24403 0.95261 0.52697 0.0
C562 C 0.20146 0.88857 0.73656 0.0
C563 C 0.24698 0.90458 0.74027 0.0
C564 C 0.17734 0.91543 0.72007 0.0
C565 C 0.19786 0.95992 0.70883 0.0
H566 H 0.18427 0.85493 0.74649 0.0
H567 H 0.14258 0.90142 0.71807 0.0
S568 S 0.31611 1.01816 0.71225 0.0
N569 N 0.31095 0.96807 0.72937 0.0
N570 N 0.26672 1.01821 0.7019 0.0
C571 C 0.24325 0.97613 0.71227 0.0
C572 C 0.26741 0.94869 0.72702 0.0
C573 C 0.22459 0.26344 0.69957 0.0
C574 C 0.23856 0.24608 0.75368 0.0
C575 C 0.18972 0.23828 0.65973 0.0
C576 C 0.16827 0.19427 0.67181 0.0
H577 H 0.24027 0.29695 0.68827 0.0
H578 H 0.1798 0.25337 0.61905 0.0
S579 S 0.19491 0.1325 0.80626 0.0
N580 N 0.22947 0.18197 0.81651 0.0
N581 N 0.16531 0.1341 0.74179 0.0
C582 C 0.18306 0.17624 0.72537 0.0
C583 C 0.21781 0.2022 0.76621 0.0
C584 C 0.96458 0.2081 0.70712 0.0
C585 C 0.93848 0.17115 0.73438 0.0
C586 C 0.98086 0.20554 0.66302 0.0
C587 C 0.97134 0.16594 0.64456 0.0
H588 H 0.97442 0.23908 0.72204 0.0
H589 H 1.00344 0.23452 0.64592 0.0
S590 S 0.89692 1.06083 0.6945 0.0
N591 N 0.89825 0.09472 0.7348 0.0
N592 N 0.92863 0.0896 0.65068 0.0
C593 C 0.94128 0.12919 0.6672 0.0
C594 C 0.92488 0.13185 0.71266 0.0
C595 C 0.95385 0.98464 0.75033 0.0
C596 C 0.9443 0.94044 0.76439 0.0
C597 C 0.98544 1.01055 0.71823 0.0
C598 C 1.01015 0.99384 0.69956 0.0
H599 H 0.93753 0.99975 0.76589 0.0
H600 H 0.99225 1.04435 0.71082 0.0
S601 S 1.00014 0.88093 0.72653 0.0
N602 N 0.96362 0.88196 0.75707 0.0
N603 N 1.0225 0.92972 0.69818 0.0
C604 C 1.00048 0.9496 0.71271 0.0
C605 C 0.9679 0.92323 0.74454 0.0
C606 C 0.40162 0.20042 0.1575 0.0
C607 C 0.36815 0.19922 0.10978 0.0
C608 C 0.43088 0.18173 0.1594 0.0
C609 C 0.42784 0.16132 0.11346 0.0
H610 H 0.40592 0.21699 0.19314 0.0
H611 H 0.45718 0.18501 0.19631 0.0
S612 S 0.34221 0.14538 0.98128 0.0
N613 N 0.33061 0.1731 0.01779 0.0
N614 N 0.38581 0.13747 0.02078 0.0
C615 C 0.39256 0.15742 0.06683 0.0
C616 C 0.36264 0.1766 0.06508 0.0
C617 C 0.91542 0.42243 0.15172 0.0
C618 C 0.88697 0.44448 0.13203 0.0
C619 C 0.9549 0.43893 0.1898 0.0
C620 C 0.96899 0.47933 0.20857 0.0
H621 H 0.90795 0.39211 0.13689 0.0
H622 H 0.976 0.42124 0.20042 0.0
S623 S 0.90117 0.54371 0.18545 0.0
N624 N 0.8713 0.50402 0.14507 0.0
N625 N 0.94679 0.53612 0.21674 0.0
C626 C 0.939 0.49965 0.19499 0.0
C627 C 0.89795 0.48219 0.15642 0.0
C628 C 0.71775 0.96325 0.03417 0.0
C629 C 0.75367 0.97443 0.07989 0.0
C630 C 0.67876 0.966 0.03555 0.0
C631 C 0.67433 0.97904 0.08322 0.0
H632 H 0.7198 0.95226 0.99731 0.0
H633 H 0.65201 0.95809 0.99901 0.0
S634 S 0.75803 1.00956 0.21514 0.0
N635 N 0.78164 0.99699 0.17531 0.0
N636 N 0.70862 1.0028 0.17733 0.0
C637 C 0.70968 0.98953 0.12959 0.0
C638 C 0.74936 0.98711 0.12804 0.0
C639 C 0.19078 0.76893 0.19234 0.0
C640 C 0.22795 0.7584 0.2119 0.0
C641 C 0.14838 0.73743 0.18502 0.0
C642 C 0.14102 0.69381 0.1963 0.0
H643 H 0.19423 0.80194 0.18459 0.0
H644 H 0.12115 0.74756 0.17031 0.0
S645 S 0.22752 0.64927 0.2467 0.0
N646 N 0.25463 0.70133 0.24183 0.0
N647 N 0.17538 0.64192 0.22653 0.0
C648 C 0.17805 0.68279 0.21438 0.0
C649 C 0.22125 0.71505 0.22259 0.0
C650 C 0.46323 0.94747 0.87764 0.0
C651 C 0.42068 0.94413 0.87427 0.0
C652 C 0.49966 0.98036 0.90455 0.0
C653 C 0.49522 1.01113 0.93026 0.0
H654 H 0.46861 0.92348 0.8615 0.0
H655 H 0.53154 0.98026 0.90746 0.0
S656 S 0.39076 1.01959 0.92741 0.0
N657 N 0.37606 0.9769 0.89389 0.0
N658 N 0.44455 1.03814 0.9459 0.0
C659 C 0.45284 1.00949 0.92462 0.0
C660 C 0.41562 0.97617 0.89637 0.0
C661 C 0.16862 0.43256 0.99567 0.0
C662 C 0.2135 0.44297 0.01875 0.0
C663 C 0.14426 0.44949 1.01441 0.0
C664 C 0.16341 0.47802 0.05704 0.0
H665 H 0.15192 0.41081 0.96281 0.0
H666 H 0.10973 0.43962 0.9955 0.0
S667 S 0.27951 0.51501 0.13317 0.0
N668 N 0.276 0.48339 0.08796 0.0
N669 N 0.23029 0.51562 0.12234 0.0
C670 C 0.20842 0.48944 0.07999 0.0
C671 C 0.23335 0.47189 0.06111 0.0
C672 C 0.73821 0.25981 0.9672 0.0
C673 C 0.74216 0.24148 0.92372 0.0
C674 C 0.70371 0.23879 0.99549 0.0
C675 C 0.67101 0.19863 0.98115 0.0
H676 H 0.76202 0.29079 0.9795 0.0
H677 H 0.70253 0.25444 0.02873 0.0
S678 S 0.66246 0.14048 0.86377 0.0
N679 N 0.70837 0.18258 0.86443 0.0
N680 N 0.64313 0.14369 0.91608 0.0
C681 C 0.67418 0.18043 0.9368 0.0
C682 C 0.70972 0.20166 0.90851 0.0
C683 C 0.91593 0.73541 0.9228 0.0
C684 C 0.91569 0.77085 0.94295 0.0
C685 C 0.93184 0.70619 0.95863 0.0
C686 C 0.94884 0.71076 0.01677 0.0
H687 H 0.90314 0.7296 0.87877 0.0
H688 H 0.93095 0.67976 0.93997 0.0
S689 S 0.95611 0.79793 0.09188 0.0
N690 N 0.93412 0.80874 0.02588 0.0
N691 N 0.96448 0.75402 0.09284 0.0
C692 C 0.94922 0.74619 0.03775 0.0
C693 C 0.93259 0.77602 1.00111 0.0
C694 C 0.20493 0.40155 0.21891 0.0
C695 C 0.24139 0.40994 0.26561 0.0
C696 C 0.17497 0.42287 0.20649 0.0
C697 C 0.17945 0.4547 0.2394 0.0
H698 H 0.19904 0.37774 0.19152 0.0
H699 H 0.14797 0.41423 0.1704 0.0
S700 S 0.27122 0.4923 0.36371 0.0
N701 N 0.2805 0.45468 0.34315 0.0
N702 N 0.22634 0.49457 0.3201 0.0
C703 C 0.21646 0.46403 0.28544 0.0
C704 C 0.24652 0.44196 0.29836 0.0
C705 C 0.18497 0.63509 0.06497 0.0
C706 C 0.2128 0.67816 0.06556 0.0
C707 C 0.14027 0.62285 0.06043 0.0
C708 C 0.12203 0.65317 0.05743 0.0
H709 H 0.19761 0.61096 0.0657 0.0
H710 H 0.11983 0.58934 0.0589 0.0
S711 S 0.18008 0.77062 0.04897 0.0
N712 N 0.21819 0.75168 0.0568 0.0
N713 N 0.1346 0.72839 0.04976 0.0
C714 C 0.14936 0.69645 0.05652 0.0
C715 C 0.19469 0.70897 0.06081 0.0
C716 C 0.4176 0.22341 0.90241 0.0
C717 C 0.41052 0.25223 0.92802 0.0
C718 C 0.45046 0.20809 0.92811 0.0
C719 C 0.47787 0.2209 0.98063 0.0
H720 H 0.39866 0.2137 0.861 0.0
H721 H 0.45493 0.18666 0.90567 0.0
S722 S 0.47009 0.2921 0.06866 0.0
N723 N 0.4312 0.29013 1.01162 0.0
N724 N 0.49342 0.26113 0.05986 0.0
C725 C 0.46947 0.24744 1.00868 0.0
C726 C 0.43565 0.26312 0.98242 0.0
C727 C 0.93252 0.38009 0.01611 0.0
C728 C 0.91142 0.39156 0.96194 0.0
C729 C 0.95921 0.41013 0.05621 0.0
C730 C 0.96559 0.4538 0.04633 0.0
H731 H 0.92915 0.34728 0.02774 0.0
H732 H 0.97529 0.39872 0.09593 0.0
S733 S 0.91776 0.50176 0.9117 0.0
N734 N 0.89962 0.45092 0.90051 0.0
N735 N 0.94787 0.50675 0.97651 0.0
C736 C 0.94416 0.46591 0.9926 0.0
C737 C 0.91779 0.43522 0.95061 0.0
C738 C 0.79197 1.05972 0.99403 0.0
C739 C 0.78412 1.04247 0.94314 0.0
C740 C 0.76089 0.07141 1.00591 0.0
C741 C 0.72179 0.06743 0.96628 0.0
H742 H 0.81988 1.06008 0.027 0.0
H743 H 0.76584 0.07984 0.0479 0.0
S744 S 0.69666 1.04357 0.81745 0.0
N745 N 0.74268 1.03657 0.84652 0.0
N746 N 0.68397 1.05811 0.86794 0.0
C747 C 0.71807 1.05842 0.91146 0.0
C748 C 0.74966 1.04651 0.89982 0.0
C749 C 0.87804 0.71069 0.26626 0.0
C750 C 0.89906 0.75494 0.27608 0.0
C751 C 0.89727 0.68787 0.24467 0.0
C752 C 0.93962 0.70707 0.23204 0.0
H753 H 0.8456 0.69343 0.27401 0.0
H754 H 0.87854 0.65451 0.23815 0.0
S755 S 1.01023 0.82171 0.25177 0.0
N756 N 0.96576 0.81607 0.2707 0.0
N757 N 1.00169 0.77459 0.23408 0.0
C758 C 0.96101 0.75105 0.24298 0.0
C759 C 0.94107 0.77427 0.26346 0.0
C760 C 0.4313 0.90673 0.16767 0.0
C761 C 0.4103 0.92105 0.19623 0.0
C762 C 0.46442 0.93527 0.14056 0.0
C763 C 0.47922 0.98012 0.14081 0.0
H764 H 0.42251 0.8729 0.16671 0.0
H765 H 0.4791 0.92149 0.11997 0.0
S766 S 0.43453 1.03493 0.20874 0.0
N767 N 0.40621 0.98379 0.22213 0.0
N768 N 0.46864 1.03719 0.17158 0.0
C769 C 0.458 0.99509 0.16844 0.0
C770 C 0.42367 0.96578 0.19585 0.0
C771 C 0.72291 0.19283 0.26417 0.0
C772 C 0.72701 0.23128 0.28194 0.0
C773 C 0.68629 0.16953 0.22407 0.0
C774 C 0.65144 0.18312 0.19999 0.0
H775 H 0.74922 0.18143 0.27963 0.0
H776 H 0.68566 0.14088 0.21133 0.0
S777 S 0.64412 0.28013 0.23462 0.0
N778 N 0.69139 0.28051 0.27372 0.0
N779 N 0.62287 0.23705 0.19986 0.0
C780 C 0.65421 0.22053 0.21939 0.0
C781 C 0.69166 0.24434 0.2599 0.0
C782 C 0.72764 0.76709 0.91345 0.0
C783 C 0.74835 0.7492 0.8891 0.0
C784 C 0.69386 0.74127 0.94249 0.0
C785 C 0.67943 0.69603 0.95063 0.0
H786 H 0.73581 0.80115 0.90745 0.0
H787 H 0.67789 0.75707 0.95749 0.0
S788 S 0.72473 0.63311 0.89842 0.0
N789 N 0.7524 0.68275 0.87727 0.0
N790 N 0.69105 0.6354 0.93289 0.0
C791 C 0.70145 0.67807 0.92885 0.0
C792 C 0.73503 0.70419 0.89802 0.0
C793 C 0.46207 0.77672 0.87401 0.0
C794 C 0.4189 0.76224 0.8813 0.0
C795 C 0.48846 0.75251 0.896 0.0
C796 C 0.47301 0.71252 0.92619 0.0
H797 H 0.47569 0.80705 0.85082 0.0
H798 H 0.52117 0.76504 0.88874 0.0
S799 S 0.36292 0.65933 0.95765 0.0
N800 N 0.3626 0.70465 0.92231 0.0
N801 N 0.41156 0.65935 0.96164 0.0
C802 C 0.4301 0.69756 0.93377 0.0
C803 C 0.40335 0.72232 0.91204 0.0
C804 C 0.46239 0.40762 0.9398 0.0
C805 C 0.45061 0.4216 0.88306 0.0
C806 C 0.49414 0.43586 0.97875 0.0
C807 C 0.51474 0.47943 0.96281 0.0
H808 H 0.44775 0.37438 0.95404 0.0
H809 H 0.50265 0.42336 0.0217 0.0
S810 S 0.49321 0.53246 0.81975 0.0
N811 N 0.46068 0.48194 0.81318 0.0
N812 N 0.51952 0.53532 0.88629 0.0
C813 C 0.50214 0.49401 0.90644 0.0
C814 C 0.47035 0.46504 0.86662 0.0
C815 C 0.74538 0.50613 0.92942 0.0
C816 C 0.7396 0.46321 0.93131 0.0
C817 C 0.7276 0.51911 0.96424 0.0
C818 C 0.70232 0.48927 1.00035 0.0
H819 H 0.76258 0.52948 0.89975 0.0
H820 H 0.73121 0.55206 0.96021 0.0
S821 S 0.68041 0.3737 0.02329 0.0
N822 N 0.71023 0.39169 0.97546 0.0
N823 N 0.67465 0.4155 0.03802 0.0
C824 C 0.69791 0.44665 1.004 0.0
C825 C 0.71711 0.43375 0.97013 0.0
C826 C 0.71658 0.39993 0.19693 0.0
C827 C 0.75006 0.40936 0.24609 0.0
C828 C 0.69222 0.42611 0.17411 0.0
C829 C 0.70098 0.46373 0.19817 0.0
H830 H 0.70822 0.37145 0.17673 0.0
H831 H 0.66579 0.4164 0.13776 0.0
S832 S 0.78631 0.50301 0.32712 0.0
N833 N 0.79038 0.45873 0.3183 0.0
N834 N 0.74683 0.50852 0.27494 0.0
C835 C 0.73484 0.47346 0.24727 0.0
C836 C 0.75873 0.44629 0.27112 0.0
C837 C 0.6977 0.71912 0.24733 0.0
C838 C 0.72276 0.7607 0.22827 0.0
C839 C 0.66719 0.68911 0.20952 0.0
C840 C 0.65979 0.69982 0.15121 0.0
H841 H 0.70207 0.70946 0.29192 0.0
H842 H 0.64836 0.6577 0.22616 0.0
S843 S 0.71742 0.8038 0.07956 0.0
N844 N 0.73921 0.81026 0.14708 0.0
N845 N 0.68049 0.75465 0.07616 0.0
C846 C 0.68467 0.74118 0.13162 0.0
C847 C 0.71655 0.77137 0.17006 0.0
C848 C 0.40623 0.62299 0.17947 0.0
C849 C 0.39957 0.66109 0.17465 0.0
C850 C 0.43 0.61795 0.14545 0.0
C851 C 0.44858 0.65136 0.10714 0.0
H852 H 0.39595 0.59848 0.21251 0.0
H853 H 0.4373 0.58951 0.15287 0.0
S854 S 0.43565 0.75481 0.07345 0.0
N855 N 0.4085 0.7303 0.12335 0.0
N856 N 0.45528 0.72153 0.06194 0.0
C857 C 0.43925 0.68804 0.09884 0.0
C858 C 0.41397 0.69266 0.13196 0.0
C859 C 0.42852 0.43599 0.17496 0.0
C860 C 0.43612 0.42924 0.23462 0.0
C861 C 0.46157 0.46578 0.14612 0.0
C862 C 0.50397 0.49101 0.17528 0.0
H863 H 0.39746 0.41674 0.15016 0.0
H864 H 0.45446 0.46742 0.10068 0.0
S865 S 0.53982 0.4897 0.33104 0.0
N866 N 0.48943 0.4539 0.32066 0.0
N867 N 0.54944 0.50841 0.26791 0.0
C868 C 0.51082 0.48575 0.23458 0.0
C869 C 0.47778 0.4556 0.2636 0.0
C870 C 0.96592 0.69656 0.64501 0.0
C871 C 0.92092 0.68727 0.62533 0.0
C872 C 0.98626 0.67438 0.6286 0.0
C873 C 0.96279 0.64265 0.59084 0.0
H874 H 0.98557 0.72057 0.67454 0.0
H875 H 1.02063 0.68154 0.64651 0.0
S876 S 0.84437 0.6046 0.52794 0.0
N877 N 0.85319 0.64258 0.56704 0.0
N878 N 0.89228 0.60189 0.53501 0.0
C879 C 0.918 0.63295 0.57035 0.0
C880 C 0.89683 0.65486 0.58812 0.0
C881 C 0.59773 0.98053 0.67237 0.0
C882 C 0.56975 0.98024 0.70428 0.0
C883 C 0.61964 1.01811 0.64286 0.0
C884 C 0.61375 1.05578 0.64483 0.0
H885 H 0.59683 0.9508 0.66264 0.0
H886 H 0.63588 1.01615 0.61234 0.0
S887 S 0.5608 0.07419 0.74352 0.0
N888 N 0.55006 1.02254 0.75239 0.0
N889 N 0.59133 0.09357 0.69646 0.0
C890 C 0.5947 1.05766 0.68699 0.0
C891 C 0.57262 1.01938 0.71734 0.0
C892 C 0.30634 0.46093 0.7425 0.0
C893 C 0.29652 0.42235 0.72084 0.0
C894 C 0.2813 0.48556 0.71923 0.0
C895 C 0.24462 0.47163 0.67484 0.0
H896 H 0.33294 0.47162 0.77864 0.0
H897 H 0.28982 0.51492 0.73758 0.0
S898 S 0.20637 0.37354 0.60179 0.0
N899 N 0.24996 0.37291 0.64993 0.0
N900 N 0.20054 0.4173 0.60896 0.0
C901 C 0.23503 0.43351 0.65202 0.0
C902 C 0.26171 0.4094 0.67423 0.0
C903 C 0.78552 0.19429 0.70113 0.0
C904 C 0.77314 0.22945 0.69628 0.0
C905 C 0.76495 0.16178 0.66202 0.0
C906 C 0.73068 0.1624 0.61477 0.0
H907 H 0.8124 0.1925 0.73458 0.0
H908 H 0.77686 0.1364 0.66837 0.0
S909 S 0.68548 0.24759 0.58258 0.0
N910 N 0.72263 0.26114 0.64118 0.0
N911 N 0.68609 0.20331 0.56731 0.0
C912 C 0.71764 0.19723 0.61046 0.0
C913 C 0.73795 0.22945 0.65103 0.0
C914 C 0.96906 0.44517 0.38224 0.0
C915 C 0.93302 0.45216 0.34513 0.0
C916 C 0.99988 0.47581 0.41983 0.0
C917 C 0.996 0.51474 0.4221 0.0
H918 H 0.97181 0.41469 0.38523 0.0
H919 H 1.02581 0.46797 0.44911 0.0
S920 S 0.90878 0.54941 0.33124 0.0
N921 N 0.89664 0.50188 0.31172 0.0
N922 N 0.95419 0.55908 0.38014 0.0
C923 C 0.96155 0.52295 0.38262 0.0
C924 C 0.93037 0.49192 0.34482 0.0
C925 C 0.74046 0.93074 0.33255 0.0
C926 C 0.77245 0.91646 0.36944 0.0
C927 C 0.7204 0.95464 0.34994 0.0
C928 C 0.73094 0.96774 0.40561 0.0
H929 H 0.7297 0.92244 0.28945 0.0
H930 H 0.69596 0.9632 0.31834 0.0
S931 S 0.8145 0.94153 0.51993 0.0
N932 N 0.81368 0.91889 0.46619 0.0
N933 N 0.77874 0.96452 0.49681 0.0
C934 C 0.76376 0.9546 0.44259 0.0
C935 C 0.78334 0.92914 0.42531 0.0
C936 C 0.20978 0.73448 0.42517 0.0
C937 C 0.24993 0.73457 0.4203 0.0
C938 C 0.17828 0.69789 0.44822 0.0
C939 C 0.18543 0.65964 0.4672 0.0
H940 H 0.20185 0.76229 0.40912 0.0
H941 H 0.14756 0.69907 0.44911 0.0
S942 S 0.28696 0.64453 0.47102 0.0
N943 N 0.29581 0.69351 0.44229 0.0
N944 N 0.23776 0.62628 0.48381 0.0
C945 C 0.22615 0.66031 0.4647 0.0
C946 C 0.25792 0.69714 0.44191 0.0
C947 C 0.44991 0.26478 0.32757 0.0
C948 C 0.41634 0.25893 0.35481 0.0
C949 C 0.47727 0.24051 0.34495 0.0
C950 C 0.47182 0.20759 0.38933 0.0
H951 H 0.45577 0.28903 0.293 0.0
H952 H 0.50241 0.24709 0.32242 0.0
S953 S 0.38836 0.17807 0.47416 0.0
N954 N 0.38063 0.21754 0.42991 0.0
N955 N 0.42848 0.17071 0.45895 0.0
C956 C 0.4378 0.20103 0.41594 0.0
C957 C 0.41131 0.22681 0.39985 0.0
C958 C 0.7629 0.91616 0.65827 0.0
C959 C 0.78436 0.92539 0.71431 0.0
C960 C 0.74881 0.94555 0.61937 0.0
C961 C 0.75701 0.98614 0.63397 0.0
H962 H 0.75668 0.88585 0.64419 0.0
H963 H 0.73154 0.93648 0.57724 0.0
S964 S 0.80852 1.02578 0.77548 0.0
N965 N 0.8103 0.97801 0.78285 0.0
N966 N 0.78517 1.03317 0.70893 0.0
C967 C 0.77765 0.99577 0.68972 0.0
C968 C 0.79104 0.96551 0.72994 0.0
C969 C 0.792 0.1873 0.50546 0.0
C970 C 0.7853 0.22437 0.50751 0.0
C971 C 0.76231 0.15641 0.46892 0.0
C972 C 0.72483 0.16157 0.43324 0.0
H973 H 0.82019 0.18202 0.53255 0.0
H974 H 0.76793 0.12756 0.4704 0.0
S975 S 0.69538 0.2553 0.41606 0.0
N976 N 0.74017 0.26611 0.4662 0.0
N977 N 0.68512 0.20799 0.3975 0.0
C978 C 0.71882 0.19919 0.43283 0.0
C979 C 0.74871 0.2305 0.47015 0.0
C980 C 0.98839 0.7561 0.43015 0.0
C981 C 0.98676 0.76723 0.48101 0.0
C982 C 1.0174 0.73761 0.4297 0.0
C983 C 1.04496 0.73015 0.48022 0.0
H984 H 0.96276 0.75524 0.39301 0.0
H985 H 1.01296 0.72302 0.39218 0.0
S986 S 1.07026 0.77816 0.61383 0.0
N987 N 1.02678 0.78689 0.57548 0.0
N988 N 0.0829 0.75347 0.57419 0.0
C989 C 1.05183 0.75241 0.52635 0.0
C990 C 1.0218 0.77062 0.52705 0.0
C991 C 0.42188 0.95766 0.38971 0.0
C992 C 0.42852 0.91978 0.41231 0.0
C993 C 0.45505 0.998 0.40011 0.0
C994 C 0.49692 1.0025 0.43262 0.0
H995 H 0.39092 0.95616 0.36241 0.0
H996 H 0.44819 1.02597 0.38099 0.0
S997 S 0.53095 0.91397 0.50536 0.0
N998 N 0.47985 0.88975 0.47209 0.0
N999 N 0.54239 0.96556 0.49053 0.0
C1000 C 0.50385 0.96505 0.45684 0.0
C1001 C 0.46966 0.92378 0.44712 0.0
C1002 C 0.25037 0.44649 0.49366 0.0
C1003 C 0.29386 0.46658 0.52182 0.0
C1004 C 0.21917 0.46285 0.49154 0.0
C1005 C 0.23006 0.49972 0.51813 0.0
H1006 H 0.24054 0.41844 0.47164 0.0
H1007 H 0.18611 0.44601 0.46917 0.0
S1008 S 0.34004 0.56422 0.59742 0.0
N1009 N 0.34678 0.52499 0.57686 0.0
N1010 N 0.28801 0.5564 0.57286 0.0
C1011 C 0.27366 0.52031 0.54641 0.0
C1012 C 0.30557 0.50352 0.54837 0.0
C1013 C 0.46878 0.18407 0.61137 0.0
C1014 C 0.47306 0.2271 0.59995 0.0
C1015 C 0.49183 0.16773 0.58847 0.0
C1016 C 0.52032 0.19378 0.55343 0.0
H1017 H 0.44843 0.16312 0.63958 0.0
H1018 H 0.48865 0.13496 0.6001 0.0
S1019 S 0.53773 0.3063 0.50271 0.0
N1020 N 0.50395 0.29353 0.54494 0.0
N1021 N 0.548 0.26345 0.50399 0.0
C1022 C 0.5234 0.23617 0.53979 0.0
C1023 C 0.49963 0.25262 0.56239 0.0
C1024 C 0.93424 0.38746 0.67147 0.0
C1025 C 0.93752 0.39417 0.72726 0.0
C1026 C 0.96076 0.41884 0.63682 0.0
C1027 C 0.99285 0.45779 0.65694 0.0
H1028 H 0.90928 0.35883 0.6534 0.0
H1029 H 0.95493 0.41324 0.59324 0.0
S1030 S 1.01514 0.4907 0.80012 0.0
N1031 N 0.97564 0.443 0.80059 0.0
N1032 N 1.02617 0.50042 0.73711 0.0
C1033 C 0.99751 0.46391 0.71333 0.0
C1034 C 0.9698 0.43261 0.74793 0.0
C1035 C 0.22398 0.69311 0.75119 0.0
C1036 C 0.25388 0.72716 0.72439 0.0
C1037 C 0.19762 0.65481 0.72495 0.0
C1038 C 0.20117 0.64911 0.67181 0.0
H1039 H 0.22259 0.69523 0.79358 0.0
H1040 H 0.17602 0.62877 0.74757 0.0
S1041 S 0.27009 0.73084 0.58139 0.0
N1042 N 0.28138 0.75436 0.63907 0.0
N1043 N 0.23382 0.68247 0.59158 0.0
C1044 C 0.22931 0.68378 0.64383 0.0
C1045 C 0.25511 0.72274 0.66966 0.0
loop_
_geom_bond_atom_site_label_1
_geom_bond_atom_site_label_2
_geom_bond_distance
_geom_bond_site_symmetry_2
_ccdc_geom_bond_type
C0 Eu1 2.835 . S
C0 C2 1.500 . S
C0 O20 1.257 . S
C0 O21 1.260 . S
Eu1 C0 2.835 . S
Eu1 O20 2.473 . S
Eu1 O21 2.480 . S
Eu1 O22 2.430 . S
Eu1 O23 2.670 . S
Eu1 O24 2.394 . S
Eu1 O29 2.355 . S
Eu1 O31 2.374 . S
C2 C0 1.500 . S
C2 C3 1.377 . S
C2 C7 1.377 . S
C3 C2 1.377 . S
C3 C4 1.395 . S
C3 H32 0.931 . S
C4 C3 1.395 . S
C4 C5 1.383 . S
C4 H33 0.931 . S
C5 C4 1.383 . S
C5 C6 1.394 . S
C6 C5 1.394 . S
C6 C7 1.378 . S
C6 H34 0.931 . S
C7 C2 1.377 . S
C7 C6 1.378 . S
C7 H35 0.931 . S
C8 O22 1.259 . S
C8 O23 1.270 . S
C9 O24 1.251 . S
C9 O25 1.251 . S
C10 Eu11 2.835 . S
C10 C12 1.500 . S
C10 O26 1.257 . S
C10 O27 1.260 . S
Eu11 C10 2.835 . S
Eu11 O23 2.355 . S
Eu11 O25 2.374 . S
Eu11 O26 2.473 . S
Eu11 O27 2.480 . S
Eu11 O28 2.430 . S
Eu11 O29 2.670 . S
Eu11 O30 2.394 . S
C12 C10 1.500 . S
C12 C13 1.377 . S
C12 C17 1.377 . S
C13 C12 1.377 . S
C13 C14 1.395 . S
C13 H36 0.931 . S
C14 C13 1.395 . S
C14 C15 1.383 . S
C14 H37 0.931 . S
C15 C14 1.383 . S
C15 C16 1.394 . S
C16 C15 1.394 . S
C16 C17 1.378 . S
C16 H38 0.931 . S
C17 C12 1.377 . S
C17 C16 1.378 . S
C17 H39 0.931 . S
C18 O28 1.259 . S
C18 O29 1.270 . S
C19 O30 1.251 . S
C19 O31 1.251 . S
O20 C0 1.257 . S
O20 Eu1 2.473 . S
O21 C0 1.260 . S
O21 Eu1 2.480 . S
O22 Eu1 2.430 . S
O22 C8 1.259 . S
O23 Eu1 2.670 . S
O23 C8 1.270 . S
O23 Eu11 2.355 . S
O24 Eu1 2.394 . S
O24 C9 1.251 . S
O25 C9 1.251 . S
O25 Eu11 2.374 . S
O26 C10 1.257 . S
O26 Eu11 2.473 . S
O27 C10 1.260 . S
O27 Eu11 2.480 . S
O28 Eu11 2.430 . S
O28 C18 1.259 . S
O29 Eu1 2.355 . S
O29 Eu11 2.670 . S
O29 C18 1.270 . S
O30 Eu11 2.394 . S
O30 C19 1.251 . S
O31 Eu1 2.374 . S
O31 C19 1.251 . S
H32 C3 0.931 . S
H33 C4 0.931 . S
H34 C6 0.931 . S
H35 C7 0.931 . S
H36 C13 0.931 . S
H37 C14 0.931 . S
H38 C16 0.931 . S
H39 C17 0.931 . S
C40 Eu41 2.835 . S
C40 C42 1.500 . S
C40 O60 1.257 . S
C40 O61 1.260 . S
Eu41 C40 2.835 . S
Eu41 O60 2.473 . S
Eu41 O61 2.480 . S
Eu41 O62 2.430 . S
Eu41 O63 2.670 . S
Eu41 O64 2.394 . S
Eu41 O69 2.355 . S
Eu41 O71 2.374 . S
C42 C40 1.500 . S
C42 C43 1.377 . S
C42 C47 1.377 . S
C43 C42 1.377 . S
C43 C44 1.395 . S
C43 H72 0.931 . S
C44 C43 1.395 . S
C44 C45 1.383 . S
C44 H73 0.931 . S
C45 C44 1.383 . S
C45 C46 1.394 . S
C46 C45 1.394 . S
C46 C47 1.378 . S
C46 H74 0.931 . S
C47 C42 1.377 . S
C47 C46 1.378 . S
C47 H75 0.931 . S
C48 O62 1.259 . S
C48 O63 1.270 . S
C49 O64 1.251 . S
C49 O65 1.251 . S
C50 Eu51 2.835 . S
C50 C52 1.500 . S
C50 O66 1.257 . S
C50 O67 1.260 . S
Eu51 C50 2.835 . S
Eu51 O63 2.355 . S
Eu51 O65 2.374 . S
Eu51 O66 2.473 . S
Eu51 O67 2.480 . S
Eu51 O68 2.430 . S
Eu51 O69 2.670 . S
Eu51 O70 2.394 . S
C52 C50 1.500 . S
C52 C53 1.377 . S
C52 C57 1.377 . S
C53 C52 1.377 . S
C53 C54 1.395 . S
C53 H76 0.931 . S
C54 C53 1.395 . S
C54 C55 1.383 . S
C54 H77 0.931 . S
C55 C54 1.383 . S
C55 C56 1.394 . S
C56 C55 1.394 . S
C56 C57 1.378 . S
C56 H78 0.931 . S
C57 C52 1.377 . S
C57 C56 1.378 . S
C57 H79 0.931 . S
C58 O68 1.259 . S
C58 O69 1.270 . S
C59 O70 1.251 . S
C59 O71 1.251 . S
O60 C40 1.257 . S
O60 Eu41 2.473 . S
O61 C40 1.260 . S
O61 Eu41 2.480 . S
O62 Eu41 2.430 . S
O62 C48 1.259 . S
O63 Eu41 2.670 . S
O63 C48 1.270 . S
O63 Eu51 2.355 . S
O64 Eu41 2.394 . S
O64 C49 1.251 . S
O65 C49 1.251 . S
O65 Eu51 2.374 . S
O66 C50 1.257 . S
O66 Eu51 2.473 . S
O67 C50 1.260 . S
O67 Eu51 2.480 . S
O68 Eu51 2.430 . S
O68 C58 1.259 . S
O69 Eu41 2.355 . S
O69 Eu51 2.670 . S
O69 C58 1.270 . S
O70 Eu51 2.394 . S
O70 C59 1.251 . S
O71 Eu41 2.374 . S
O71 C59 1.251 . S
H72 C43 0.931 . S
H73 C44 0.931 . S
H74 C46 0.931 . S
H75 C47 0.931 . S
H76 C53 0.931 . S
H77 C54 0.931 . S
H78 C56 0.931 . S
H79 C57 0.931 . S
C80 Eu81 2.835 . S
C80 C82 1.500 . S
C80 O100 1.257 . S
C80 O101 1.260 . S
Eu81 C80 2.835 . S
Eu81 O100 2.473 . S
Eu81 O101 2.480 . S
Eu81 O102 2.430 . S
Eu81 O103 2.670 . S
Eu81 O104 2.394 . S
Eu81 O109 2.355 . S
Eu81 O111 2.374 . S
C82 C80 1.500 . S
C82 C83 1.377 . S
C82 C87 1.377 . S
C83 C82 1.377 . S
C83 C84 1.395 . S
C83 H112 0.931 . S
C84 C83 1.395 . S
C84 C85 1.383 . S
C84 H113 0.931 . S
C85 C84 1.383 . S
C85 C86 1.394 . S
C86 C85 1.394 . S
C86 C87 1.378 . S
C86 H114 0.931 . S
C87 C82 1.377 . S
C87 C86 1.378 . S
C87 H115 0.931 . S
C88 O102 1.259 . S
C88 O103 1.270 . S
C89 O104 1.251 . S
C89 O105 1.251 . S
C90 Eu91 2.835 . S
C90 C92 1.500 . S
C90 O106 1.257 . S
C90 O107 1.260 . S
Eu91 C90 2.835 . S
Eu91 O103 2.355 . S
Eu91 O105 2.374 . S
Eu91 O106 2.473 . S
Eu91 O107 2.480 . S
Eu91 O108 2.430 . S
Eu91 O109 2.670 . S
Eu91 O110 2.394 . S
C92 C90 1.500 . S
C92 C93 1.377 . S
C92 C97 1.377 . S
C93 C92 1.377 . S
C93 C94 1.395 . S
C93 H116 0.931 . S
C94 C93 1.395 . S
C94 C95 1.383 . S
C94 H117 0.931 . S
C95 C94 1.383 . S
C95 C96 1.394 . S
C96 C95 1.394 . S
C96 C97 1.378 . S
C96 H118 0.931 . S
C97 C92 1.377 . S
C97 C96 1.378 . S
C97 H119 0.931 . S
C98 O108 1.259 . S
C98 O109 1.270 . S
C99 O110 1.251 . S
C99 O111 1.251 . S
O100 C80 1.257 . S
O100 Eu81 2.473 . S
O101 C80 1.260 . S
O101 Eu81 2.480 . S
O102 Eu81 2.430 . S
O102 C88 1.259 . S
O103 Eu81 2.670 . S
O103 C88 1.270 . S
O103 Eu91 2.355 . S
O104 Eu81 2.394 . S
O104 C89 1.251 . S
O105 C89 1.251 . S
O105 Eu91 2.374 . S
O106 C90 1.257 . S
O106 Eu91 2.473 . S
O107 C90 1.260 . S
O107 Eu91 2.480 . S
O108 Eu91 2.430 . S
O108 C98 1.259 . S
O109 Eu81 2.355 . S
O109 Eu91 2.670 . S
O109 C98 1.270 . S
O110 Eu91 2.394 . S
O110 C99 1.251 . S
O111 Eu81 2.374 . S
O111 C99 1.251 . S
H112 C83 0.931 . S
H113 C84 0.931 . S
H114 C86 0.931 . S
H115 C87 0.931 . S
H116 C93 0.931 . S
H117 C94 0.931 . S
H118 C96 0.931 . S
H119 C97 0.931 . S
C120 Eu121 2.835 . S
C120 C122 1.500 . S
C120 O140 1.257 . S
C120 O141 1.260 . S
Eu121 C120 2.835 . S
Eu121 O140 2.473 . S
Eu121 O141 2.480 . S
Eu121 O142 2.430 . S
Eu121 O143 2.670 . S
Eu121 O144 2.394 . S
Eu121 O149 2.355 . S
Eu121 O151 2.374 . S
C122 C120 1.500 . S
C122 C123 1.377 . S
C122 C127 1.377 . S
C123 C122 1.377 . S
C123 C124 1.395 . S
C123 H152 0.931 . S
C124 C123 1.395 . S
C124 C125 1.383 . S
C124 H153 0.931 . S
C125 C124 1.383 . S
C125 C126 1.394 . S
C126 C125 1.394 . S
C126 C127 1.378 . S
C126 H154 0.931 . S
C127 C122 1.377 . S
C127 C126 1.378 . S
C127 H155 0.931 . S
C128 O142 1.259 . S
C128 O143 1.270 . S
C129 O144 1.251 . S
C129 O145 1.251 . S
C130 Eu131 2.835 . S
C130 C132 1.500 . S
C130 O146 1.257 . S
C130 O147 1.260 . S
Eu131 C130 2.835 . S
Eu131 O143 2.355 . S
Eu131 O145 2.374 . S
Eu131 O146 2.473 . S
Eu131 O147 2.480 . S
Eu131 O148 2.430 . S
Eu131 O149 2.670 . S
Eu131 O150 2.394 . S
C132 C130 1.500 . S
C132 C133 1.377 . S
C132 C137 1.377 . S
C133 C132 1.377 . S
C133 C134 1.395 . S
C133 H156 0.931 . S
C134 C133 1.395 . S
C134 C135 1.383 . S
C134 H157 0.931 . S
C135 C134 1.383 . S
C135 C136 1.394 . S
C136 C135 1.394 . S
C136 C137 1.378 . S
C136 H158 0.931 . S
C137 C132 1.377 . S
C137 C136 1.378 . S
C137 H159 0.931 . S
C138 O148 1.259 . S
C138 O149 1.270 . S
C139 O150 1.251 . S
C139 O151 1.251 . S
O140 C120 1.257 . S
O140 Eu121 2.473 . S
O141 C120 1.260 . S
O141 Eu121 2.480 . S
O142 Eu121 2.430 . S
O142 C128 1.259 . S
O143 Eu121 2.670 . S
O143 C128 1.270 . S
O143 Eu131 2.355 . S
O144 Eu121 2.394 . S
O144 C129 1.251 . S
O145 C129 1.251 . S
O145 Eu131 2.374 . S
O146 C130 1.257 . S
O146 Eu131 2.473 . S
O147 C130 1.260 . S
O147 Eu131 2.480 . S
O148 Eu131 2.430 . S
O148 C138 1.259 . S
O149 Eu121 2.355 . S
O149 Eu131 2.670 . S
O149 C138 1.270 . S
O150 Eu131 2.394 . S
O150 C139 1.251 . S
O151 Eu121 2.374 . S
O151 C139 1.251 . S
H152 C123 0.931 . S
H153 C124 0.931 . S
H154 C126 0.931 . S
H155 C127 0.931 . S
H156 C133 0.931 . S
H157 C134 0.931 . S
H158 C136 0.931 . S
H159 C137 0.931 . S
C160 Eu161 2.835 . S
C160 C162 1.500 . S
C160 O180 1.257 . S
C160 O181 1.260 . S
Eu161 C160 2.835 . S
Eu161 O180 2.473 . S
Eu161 O181 2.480 . S
Eu161 O182 2.430 . S
Eu161 O183 2.670 . S
Eu161 O184 2.394 . S
Eu161 O189 2.355 . S
Eu161 O191 2.374 . S
C162 C160 1.500 . S
C162 C163 1.377 . S
C162 C167 1.377 . S
C163 C162 1.377 . S
C163 C164 1.395 . S
C163 H192 0.931 . S
C164 C163 1.395 . S
C164 C165 1.383 . S
C164 H193 0.931 . S
C165 C164 1.383 . S
C165 C166 1.394 . S
C166 C165 1.394 . S
C166 C167 1.378 . S
C166 H194 0.931 . S
C167 C162 1.377 . S
C167 C166 1.378 . S
C167 H195 0.931 . S
C168 O182 1.259 . S
C168 O183 1.270 . S
C169 O184 1.251 . S
C169 O185 1.251 . S
C170 Eu171 2.835 . S
C170 C172 1.500 . S
C170 O186 1.257 . S
C170 O187 1.260 . S
Eu171 C170 2.835 . S
Eu171 O183 2.355 . S
Eu171 O185 2.374 . S
Eu171 O186 2.473 . S
Eu171 O187 2.480 . S
Eu171 O188 2.430 . S
Eu171 O189 2.670 . S
Eu171 O190 2.394 . S
C172 C170 1.500 . S
C172 C173 1.377 1_556 S
C172 C177 1.377 . S
C173 C172 1.377 1_554 S
C173 C174 1.395 . S
C173 H196 0.931 . S
C174 C173 1.395 . S
C174 C175 1.383 . S
C174 H197 0.931 . S
C175 C174 1.383 . S
C175 C176 1.394 1_554 S
C176 C175 1.394 1_556 S
C176 C177 1.378 . S
C176 H198 0.931 . S
C177 C172 1.377 . S
C177 C176 1.378 . S
C177 H199 0.931 . S
C178 O188 1.259 . S
C178 O189 1.270 . S
C179 O190 1.251 . S
C179 O191 1.251 . S
O180 C160 1.257 . S
O180 Eu161 2.473 . S
O181 C160 1.260 . S
O181 Eu161 2.480 . S
O182 Eu161 2.430 . S
O182 C168 1.259 . S
O183 Eu161 2.670 . S
O183 C168 1.270 . S
O183 Eu171 2.355 . S
O184 Eu161 2.394 . S
O184 C169 1.251 . S
O185 C169 1.251 . S
O185 Eu171 2.374 . S
O186 C170 1.257 . S
O186 Eu171 2.473 . S
O187 C170 1.260 . S
O187 Eu171 2.480 . S
O188 Eu171 2.430 . S
O188 C178 1.259 . S
O189 Eu161 2.355 . S
O189 Eu171 2.670 . S
O189 C178 1.270 . S
O190 Eu171 2.394 . S
O190 C179 1.251 . S
O191 Eu161 2.374 . S
O191 C179 1.251 . S
H192 C163 0.931 . S
H193 C164 0.931 . S
H194 C166 0.931 . S
H195 C167 0.931 . S
H196 C173 0.931 . S
H197 C174 0.931 . S
H198 C176 0.931 . S
H199 C177 0.931 . S
C200 Eu201 2.835 . S
C200 C202 1.500 . S
C200 O220 1.257 . S
C200 O221 1.260 . S
Eu201 C200 2.835 . S
Eu201 O220 2.473 . S
Eu201 O221 2.480 . S
Eu201 O222 2.430 . S
Eu201 O223 2.670 . S
Eu201 O224 2.394 . S
Eu201 O229 2.355 . S
Eu201 O231 2.374 . S
C202 C200 1.500 . S
C202 C203 1.377 . S
C202 C207 1.377 . S
C203 C202 1.377 . S
C203 C204 1.395 . S
C203 H232 0.931 . S
C204 C203 1.395 . S
C204 C205 1.383 . S
C204 H233 0.931 . S
C205 C204 1.383 . S
C205 C206 1.394 . S
C206 C205 1.394 . S
C206 C207 1.378 . S
C206 H234 0.931 . S
C207 C202 1.377 . S
C207 C206 1.378 . S
C207 H235 0.931 . S
C208 O222 1.259 . S
C208 O223 1.270 . S
C209 O224 1.251 . S
C209 O225 1.251 . S
C210 Eu211 2.835 . S
C210 C212 1.500 . S
C210 O226 1.257 . S
C210 O227 1.260 . S
Eu211 C210 2.835 . S
Eu211 O223 2.355 . S
Eu211 O225 2.374 . S
Eu211 O226 2.473 . S
Eu211 O227 2.480 . S
Eu211 O228 2.430 . S
Eu211 O229 2.670 . S
Eu211 O230 2.394 . S
C212 C210 1.500 . S
C212 C213 1.377 . S
C212 C217 1.377 . S
C213 C212 1.377 . S
C213 C214 1.395 . S
C213 H236 0.931 . S
C214 C213 1.395 . S
C214 C215 1.383 . S
C214 H237 0.931 . S
C215 C214 1.383 . S
C215 C216 1.394 . S
C216 C215 1.394 . S
C216 C217 1.378 . S
C216 H238 0.931 . S
C217 C212 1.377 . S
C217 C216 1.378 . S
C217 H239 0.931 . S
C218 O228 1.259 . S
C218 O229 1.270 . S
C219 O230 1.251 . S
C219 O231 1.251 . S
O220 C200 1.257 . S
O220 Eu201 2.473 . S
O221 C200 1.260 . S
O221 Eu201 2.480 . S
O222 Eu201 2.430 . S
O222 C208 1.259 . S
O223 Eu201 2.670 . S
O223 C208 1.270 . S
O223 Eu211 2.355 . S
O224 Eu201 2.394 . S
O224 C209 1.251 . S
O225 C209 1.251 . S
O225 Eu211 2.374 . S
O226 C210 1.257 . S
O226 Eu211 2.473 . S
O227 C210 1.260 . S
O227 Eu211 2.480 . S
O228 Eu211 2.430 . S
O228 C218 1.259 . S
O229 Eu201 2.355 . S
O229 Eu211 2.670 . S
O229 C218 1.270 . S
O230 Eu211 2.394 . S
O230 C219 1.251 . S
O231 Eu201 2.374 . S
O231 C219 1.251 . S
H232 C203 0.931 . S
H233 C204 0.931 . S
H234 C206 0.931 . S
H235 C207 0.931 . S
H236 C213 0.931 . S
H237 C214 0.931 . S
H238 C216 0.931 . S
H239 C217 0.931 . S
C240 Eu241 2.835 . S
C240 C242 1.500 . S
C240 O260 1.257 . S
C240 O261 1.260 . S
Eu241 C240 2.835 . S
Eu241 O260 2.473 . S
Eu241 O261 2.480 . S
Eu241 O262 2.430 . S
Eu241 O263 2.670 . S
Eu241 O264 2.394 . S
Eu241 O269 2.355 . S
Eu241 O271 2.374 . S
C242 C240 1.500 . S
C242 C243 1.377 . S
C242 C247 1.377 . S
C243 C242 1.377 . S
C243 C244 1.395 . S
C243 H272 0.931 . S
C244 C243 1.395 . S
C244 C245 1.383 . S
C244 H273 0.931 . S
C245 C244 1.383 . S
C245 C246 1.394 . S
C246 C245 1.394 . S
C246 C247 1.378 . S
C246 H274 0.931 . S
C247 C242 1.377 . S
C247 C246 1.378 . S
C247 H275 0.931 . S
C248 O262 1.259 . S
C248 O263 1.270 . S
C249 O264 1.251 . S
C249 O265 1.251 . S
C250 Eu251 2.835 . S
C250 C252 1.500 . S
C250 O266 1.257 . S
C250 O267 1.260 . S
Eu251 C250 2.835 . S
Eu251 O263 2.355 . S
Eu251 O265 2.374 . S
Eu251 O266 2.473 . S
Eu251 O267 2.480 . S
Eu251 O268 2.430 . S
Eu251 O269 2.670 . S
Eu251 O270 2.394 . S
C252 C250 1.500 . S
C252 C253 1.377 . S
C252 C257 1.377 . S
C253 C252 1.377 . S
C253 C254 1.395 . S
C253 H276 0.931 . S
C254 C253 1.395 . S
C254 C255 1.383 . S
C254 H277 0.931 . S
C255 C254 1.383 . S
C255 C256 1.394 . S
C256 C255 1.394 . S
C256 C257 1.378 . S
C256 H278 0.931 . S
C257 C252 1.377 . S
C257 C256 1.378 . S
C257 H279 0.931 . S
C258 O268 1.259 . S
C258 O269 1.270 . S
C259 O270 1.251 . S
C259 O271 1.251 . S
O260 C240 1.257 . S
O260 Eu241 2.473 . S
O261 C240 1.260 . S
O261 Eu241 2.480 . S
O262 Eu241 2.430 . S
O262 C248 1.259 . S
O263 Eu241 2.670 . S
O263 C248 1.270 . S
O263 Eu251 2.355 . S
O264 Eu241 2.394 . S
O264 C249 1.251 . S
O265 C249 1.251 . S
O265 Eu251 2.374 . S
O266 C250 1.257 . S
O266 Eu251 2.473 . S
O267 C250 1.260 . S
O267 Eu251 2.480 . S
O268 Eu251 2.430 . S
O268 C258 1.259 . S
O269 Eu241 2.355 . S
O269 Eu251 2.670 . S
O269 C258 1.270 . S
O270 Eu251 2.394 . S
O270 C259 1.251 . S
O271 Eu241 2.374 . S
O271 C259 1.251 . S
H272 C243 0.931 . S
H273 C244 0.931 . S
H274 C246 0.931 . S
H275 C247 0.931 . S
H276 C253 0.931 . S
H277 C254 0.931 . S
H278 C256 0.931 . S
H279 C257 0.931 . S
C280 Eu281 2.835 . S
C280 C282 1.500 . S
C280 O300 1.257 . S
C280 O301 1.260 . S
Eu281 C280 2.835 . S
Eu281 O300 2.473 . S
Eu281 O301 2.480 . S
Eu281 O302 2.430 . S
Eu281 O303 2.670 . S
Eu281 O304 2.394 . S
Eu281 O309 2.355 . S
Eu281 O311 2.374 . S
C282 C280 1.500 . S
C282 C283 1.377 . S
C282 C287 1.377 . S
C283 C282 1.377 . S
C283 C284 1.395 . S
C283 H312 0.931 . S
C284 C283 1.395 . S
C284 C285 1.383 . S
C284 H313 0.931 . S
C285 C284 1.383 . S
C285 C286 1.394 . S
C286 C285 1.394 . S
C286 C287 1.378 . S
C286 H314 0.931 . S
C287 C282 1.377 . S
C287 C286 1.378 . S
C287 H315 0.931 . S
C288 O302 1.259 . S
C288 O303 1.270 . S
C289 O304 1.251 . S
C289 O305 1.251 . S
C290 Eu291 2.835 . S
C290 C292 1.500 . S
C290 O306 1.257 . S
C290 O307 1.260 . S
Eu291 C290 2.835 . S
Eu291 O303 2.355 . S
Eu291 O305 2.374 . S
Eu291 O306 2.473 . S
Eu291 O307 2.480 . S
Eu291 O308 2.430 . S
Eu291 O309 2.670 . S
Eu291 O310 2.394 . S
C292 C290 1.500 . S
C292 C293 1.377 . S
C292 C297 1.377 . S
C293 C292 1.377 . S
C293 C294 1.395 . S
C293 H316 0.931 . S
C294 C293 1.395 . S
C294 C295 1.383 . S
C294 H317 0.931 . S
C295 C294 1.383 . S
C295 C296 1.394 . S
C296 C295 1.394 . S
C296 C297 1.378 . S
C296 H318 0.931 . S
C297 C292 1.377 . S
C297 C296 1.378 . S
C297 H319 0.931 . S
C298 O308 1.259 . S
C298 O309 1.270 . S
C299 O310 1.251 . S
C299 O311 1.251 . S
O300 C280 1.257 . S
O300 Eu281 2.473 . S
O301 C280 1.260 . S
O301 Eu281 2.480 . S
O302 Eu281 2.430 . S
O302 C288 1.259 . S
O303 Eu281 2.670 . S
O303 C288 1.270 . S
O303 Eu291 2.355 . S
O304 Eu281 2.394 . S
O304 C289 1.251 . S
O305 C289 1.251 . S
O305 Eu291 2.374 . S
O306 C290 1.257 . S
O306 Eu291 2.473 . S
O307 C290 1.260 . S
O307 Eu291 2.480 . S
O308 Eu291 2.430 . S
O308 C298 1.259 . S
O309 Eu281 2.355 . S
O309 Eu291 2.670 . S
O309 C298 1.270 . S
O310 Eu291 2.394 . S
O310 C299 1.251 . S
O311 Eu281 2.374 . S
O311 C299 1.251 . S
H312 C283 0.931 . S
H313 C284 0.931 . S
H314 C286 0.931 . S
H315 C287 0.931 . S
H316 C293 0.931 . S
H317 C294 0.931 . S
H318 C296 0.931 . S
H319 C297 0.931 . S
Co320 O323 2.042 . S
Co320 O330 2.264 . S
Co320 O349 2.286 . S
Co320 O350 2.069 . S
Co320 O352 2.015 1_455 S
Co321 O323 2.122 . S
Co321 O329 2.073 . S
Co321 O330 2.327 . S
Co321 O331 1.976 1_455 S
Co322 O323 2.087 1_545 S
Co322 O325 2.087 1_455 S
Co322 O332 2.111 1_445 S
Co322 O333 2.143 . S
Co322 O337 2.111 . S
Co322 O351 2.143 1_445 S
O323 Co320 2.042 . S
O323 Co321 2.122 . S
O323 Co322 2.087 1_565 S
O323 H324 0.980 1_565 S
H324 O323 0.980 1_545 S
O325 Co322 2.087 1_655 S
O325 Co326 2.042 . S
O325 Co327 2.122 . S
O325 H328 0.980 . S
Co326 O325 2.042 . S
Co326 O334 2.286 . S
Co326 O335 2.069 . S
Co326 O336 2.015 1_655 S
Co326 O339 2.264 . S
Co327 O325 2.122 . S
Co327 O338 1.976 1_655 S
Co327 O339 2.327 . S
Co327 O340 2.073 . S
H328 O325 0.980 . S
O329 Co321 2.073 . S
O329 C344 1.245 . S
O330 Co320 2.264 . S
O330 Co321 2.327 . S
O330 C344 1.257 . S
O331 Co321 1.976 1_655 S
O331 C343 1.251 . S
O332 Co322 2.111 1_665 S
O332 C343 1.274 . S
O333 Co322 2.143 . S
O333 C346 1.246 . S
O334 Co326 2.286 . S
O334 C345 1.259 . S
O335 Co326 2.069 . S
O335 C345 1.289 . S
O336 Co326 2.015 1_455 S
O336 C346 1.257 . S
O337 Co322 2.111 . S
O337 C347 1.274 . S
O338 Co327 1.976 1_455 S
O338 C347 1.251 . S
O339 Co326 2.264 . S
O339 Co327 2.327 . S
O339 C348 1.257 . S
O340 Co327 2.073 . S
O340 C348 1.245 . S
C341 O349 1.259 . S
C341 O350 1.289 . S
C342 O351 1.246 . S
C342 O352 1.257 . S
C343 O331 1.251 . S
C343 O332 1.274 . S
C344 O329 1.245 . S
C344 O330 1.257 . S
C345 O334 1.259 . S
C345 O335 1.289 . S
C346 O333 1.246 . S
C346 O336 1.257 . S
C347 O337 1.274 . S
C347 O338 1.251 . S
C348 O339 1.257 . S
C348 O340 1.245 . S
O349 Co320 2.286 . S
O349 C341 1.259 . S
O350 Co320 2.069 . S
O350 C341 1.289 . S
O351 Co322 2.143 1_665 S
O351 C342 1.246 . S
O352 Co320 2.015 1_655 S
O352 C342 1.257 . S
Co353 O356 2.042 1_566 S
Co353 O363 2.264 1_556 S
Co353 O382 2.286 . S
Co353 O383 2.069 . S
Co353 O385 2.015 . S
Co354 O356 2.122 1_565 S
Co354 O362 2.073 . S
Co354 O363 2.327 . S
Co354 O364 1.976 . S
Co355 O356 2.087 . S
Co355 O358 2.087 1_554 S
Co355 O365 2.111 . S
Co355 O366 2.143 . S
Co355 O370 2.111 1_554 S
Co355 O384 2.143 1_544 S
O356 Co353 2.042 1_544 S
O356 Co354 2.122 1_545 S
O356 Co355 2.087 . S
O356 H357 0.980 . S
H357 O356 0.980 . S
O358 Co355 2.087 1_556 S
O358 Co359 2.042 1_556 S
O358 Co360 2.122 . S
O358 H361 0.980 . S
Co359 O358 2.042 1_554 S
Co359 O367 2.286 . S
Co359 O368 2.069 . S
Co359 O369 2.015 . S
Co359 O372 2.264 1_554 S
Co360 O358 2.122 . S
Co360 O371 1.976 . S
Co360 O372 2.327 . S
Co360 O373 2.073 . S
H361 O358 0.980 . S
O362 Co354 2.073 . S
O362 C377 1.245 . S
O363 Co353 2.264 1_554 S
O363 Co354 2.327 . S
O363 C377 1.257 . S
O364 Co354 1.976 . S
O364 C376 1.251 . S
O365 Co355 2.111 . S
O365 C376 1.274 1_545 S
O366 Co355 2.143 . S
O366 C379 1.246 . S
O367 Co359 2.286 . S
O367 C378 1.259 . S
O368 Co359 2.069 . S
O368 C378 1.289 . S
O369 Co359 2.015 . S
O369 C379 1.257 . S
O370 Co355 2.111 1_556 S
O370 C380 1.274 . S
O371 Co360 1.976 . S
O371 C380 1.251 . S
O372 Co359 2.264 1_556 S
O372 Co360 2.327 . S
O372 C381 1.257 . S
O373 Co360 2.073 . S
O373 C381 1.245 . S
C374 O382 1.259 . S
C374 O383 1.289 . S
C375 O384 1.246 . S
C375 O385 1.257 . S
C376 O364 1.251 . S
C376 O365 1.274 1_565 S
C377 O362 1.245 . S
C377 O363 1.257 . S
C378 O367 1.259 . S
C378 O368 1.289 . S
C379 O366 1.246 . S
C379 O369 1.257 . S
C380 O370 1.274 . S
C380 O371 1.251 . S
C381 O372 1.257 . S
C381 O373 1.245 . S
O382 Co353 2.286 . S
O382 C374 1.259 . S
O383 Co353 2.069 . S
O383 C374 1.289 . S
O384 Co355 2.143 1_566 S
O384 C375 1.246 . S
O385 Co353 2.015 . S
O385 C375 1.257 . S
Co386 O389 2.042 . S
Co386 O396 2.264 . S
Co386 O415 2.286 . S
Co386 O416 2.069 . S
Co386 O418 2.015 1_455 S
Co387 O389 2.122 . S
Co387 O395 2.073 . S
Co387 O396 2.327 . S
Co387 O397 1.976 1_455 S
Co388 O389 2.087 . S
Co388 O391 2.087 1_455 S
Co388 O398 2.111 1_455 S
Co388 O399 2.143 . S
Co388 O403 2.111 . S
Co388 O417 2.143 1_455 S
O389 Co386 2.042 . S
O389 Co387 2.122 . S
O389 Co388 2.087 . S
O389 H390 0.980 . S
H390 O389 0.980 . S
O391 Co388 2.087 1_655 S
O391 Co392 2.042 . S
O391 Co393 2.122 1_554 S
O391 H394 0.980 . S
Co392 O391 2.042 . S
Co392 O400 2.286 . S
Co392 O401 2.069 . S
Co392 O402 2.015 1_655 S
Co392 O405 2.264 . S
Co393 O391 2.122 1_556 S
Co393 O404 1.976 1_655 S
Co393 O405 2.327 1_556 S
Co393 O406 2.073 . S
H394 O391 0.980 . S
O395 Co387 2.073 . S
O395 C410 1.245 . S
O396 Co386 2.264 . S
O396 Co387 2.327 . S
O396 C410 1.257 . S
O397 Co387 1.976 1_655 S
O397 C409 1.251 . S
O398 Co388 2.111 1_655 S
O398 C409 1.274 . S
O399 Co388 2.143 . S
O399 C412 1.246 . S
O400 Co392 2.286 . S
O400 C411 1.259 . S
O401 Co392 2.069 . S
O401 C411 1.289 . S
O402 Co392 2.015 1_455 S
O402 C412 1.257 . S
O403 Co388 2.111 . S
O403 C413 1.274 . S
O404 Co393 1.976 1_455 S
O404 C413 1.251 1_556 S
O405 Co392 2.264 . S
O405 Co393 2.327 1_554 S
O405 C414 1.257 1_554 S
O406 Co393 2.073 . S
O406 C414 1.245 . S
C407 O415 1.259 . S
C407 O416 1.289 . S
C408 O417 1.246 . S
C408 O418 1.257 . S
C409 O397 1.251 . S
C409 O398 1.274 . S
C410 O395 1.245 . S
C410 O396 1.257 . S
C411 O400 1.259 . S
C411 O401 1.289 . S
C412 O399 1.246 . S
C412 O402 1.257 . S
C413 O403 1.274 . S
C413 O404 1.251 1_554 S
C414 O405 1.257 1_556 S
C414 O406 1.245 . S
O415 Co386 2.286 . S
O415 C407 1.259 . S
O416 Co386 2.069 . S
O416 C407 1.289 . S
O417 Co388 2.143 1_655 S
O417 C408 1.246 . S
O418 Co386 2.015 1_655 S
O418 C408 1.257 . S
Co419 O422 2.042 . S
Co419 O429 2.264 . S
Co419 O448 2.286 1_554 S
Co419 O449 2.069 . S
Co419 O451 2.015 . S
Co420 O422 2.122 . S
Co420 O428 2.073 . S
Co420 O429 2.327 . S
Co420 O430 1.976 . S
Co421 O422 2.087 . S
Co421 O424 2.087 . S
Co421 O431 2.111 . S
Co421 O432 2.143 . S
Co421 O436 2.111 1_554 S
Co421 O450 2.143 1_554 S
O422 Co419 2.042 . S
O422 Co420 2.122 . S
O422 Co421 2.087 . S
O422 H423 0.980 . S
H423 O422 0.980 . S
O424 Co421 2.087 . S
O424 Co425 2.042 . S
O424 Co426 2.122 1_554 S
O424 H427 0.980 . S
Co425 O424 2.042 . S
Co425 O433 2.286 . S
Co425 O434 2.069 . S
Co425 O435 2.015 . S
Co425 O438 2.264 1_554 S
Co426 O424 2.122 1_556 S
Co426 O437 1.976 . S
Co426 O438 2.327 . S
Co426 O439 2.073 . S
H427 O424 0.980 . S
O428 Co420 2.073 . S
O428 C443 1.245 . S
O429 Co419 2.264 . S
O429 Co420 2.327 . S
O429 C443 1.257 . S
O430 Co420 1.976 . S
O430 C442 1.251 . S
O431 Co421 2.111 . S
O431 C442 1.274 . S
O432 Co421 2.143 . S
O432 C445 1.246 . S
O433 Co425 2.286 . S
O433 C444 1.259 . S
O434 Co425 2.069 . S
O434 C444 1.289 . S
O435 Co425 2.015 . S
O435 C445 1.257 . S
O436 Co421 2.111 1_556 S
O436 C446 1.274 . S
O437 Co426 1.976 . S
O437 C446 1.251 . S
O438 Co425 2.264 1_556 S
O438 Co426 2.327 . S
O438 C447 1.257 . S
O439 Co426 2.073 . S
O439 C447 1.245 . S
C440 O448 1.259 . S
C440 O449 1.289 1_556 S
C441 O450 1.246 . S
C441 O451 1.257 1_556 S
C442 O430 1.251 . S
C442 O431 1.274 . S
C443 O428 1.245 . S
C443 O429 1.257 . S
C444 O433 1.259 . S
C444 O434 1.289 . S
C445 O432 1.246 . S
C445 O435 1.257 . S
C446 O436 1.274 . S
C446 O437 1.251 . S
C447 O438 1.257 . S
C447 O439 1.245 . S
O448 Co419 2.286 1_556 S
O448 C440 1.259 . S
O449 Co419 2.069 . S
O449 C440 1.289 1_554 S
O450 Co421 2.143 1_556 S
O450 C441 1.246 . S
O451 Co419 2.015 . S
O451 C441 1.257 1_554 S
Co452 O455 2.042 . S
Co452 O462 2.264 . S
Co452 O481 2.286 . S
Co452 O482 2.069 . S
Co452 O484 2.015 . S
Co453 O455 2.122 . S
Co453 O461 2.073 . S
Co453 O462 2.327 . S
Co453 O463 1.976 . S
Co454 O455 2.087 . S
Co454 O457 2.087 . S
Co454 O464 2.111 . S
Co454 O465 2.143 1_455 S
Co454 O469 2.111 . S
Co454 O483 2.143 . S
O455 Co452 2.042 . S
O455 Co453 2.122 . S
O455 Co454 2.087 . S
O455 H456 0.980 . S
H456 O455 0.980 . S
O457 Co454 2.087 . S
O457 Co458 2.042 1_455 S
O457 Co459 2.122 . S
O457 H460 0.980 . S
Co458 O457 2.042 1_655 S
Co458 O466 2.286 . S
Co458 O467 2.069 . S
Co458 O468 2.015 . S
Co458 O471 2.264 . S
Co459 O457 2.122 . S
Co459 O470 1.976 1_455 S
Co459 O471 2.327 1_455 S
Co459 O472 2.073 1_455 S
H460 O457 0.980 . S
O461 Co453 2.073 . S
O461 C476 1.245 . S
O462 Co452 2.264 . S
O462 Co453 2.327 . S
O462 C476 1.257 . S
O463 Co453 1.976 . S
O463 C475 1.251 . S
O464 Co454 2.111 . S
O464 C475 1.274 . S
O465 Co454 2.143 1_655 S
O465 C478 1.246 . S
O466 Co458 2.286 . S
O466 C477 1.259 . S
O467 Co458 2.069 . S
O467 C477 1.289 . S
O468 Co458 2.015 . S
O468 C478 1.257 . S
O469 Co454 2.111 . S
O469 C479 1.274 1_455 S
O470 Co459 1.976 1_655 S
O470 C479 1.251 . S
O471 Co458 2.264 . S
O471 Co459 2.327 1_655 S
O471 C480 1.257 . S
O472 Co459 2.073 1_655 S
O472 C480 1.245 . S
C473 O481 1.259 . S
C473 O482 1.289 . S
C474 O483 1.246 . S
C474 O484 1.257 . S
C475 O463 1.251 . S
C475 O464 1.274 . S
C476 O461 1.245 . S
C476 O462 1.257 . S
C477 O466 1.259 . S
C477 O467 1.289 . S
C478 O465 1.246 . S
C478 O468 1.257 . S
C479 O469 1.274 1_655 S
C479 O470 1.251 . S
C480 O471 1.257 . S
C480 O472 1.245 . S
O481 Co452 2.286 . S
O481 C473 1.259 . S
O482 Co452 2.069 . S
O482 C473 1.289 . S
O483 Co454 2.143 . S
O483 C474 1.246 . S
O484 Co452 2.015 . S
O484 C474 1.257 . S
Co485 O488 2.042 . S
Co485 O495 2.264 . S
Co485 O514 2.286 . S
Co485 O515 2.069 . S
Co485 O517 2.015 1_565 S
Co486 O488 2.122 . S
Co486 O494 2.073 . S
Co486 O495 2.327 . S
Co486 O496 1.976 1_565 S
Co487 O488 2.087 1_545 S
Co487 O490 2.087 . S
Co487 O497 2.111 . S
Co487 O498 2.143 1_545 S
Co487 O502 2.111 1_545 S
Co487 O516 2.143 . S
O488 Co485 2.042 . S
O488 Co486 2.122 . S
O488 Co487 2.087 1_565 S
O488 H489 0.980 . S
H489 O488 0.980 . S
O490 Co487 2.087 . S
O490 Co491 2.042 . S
O490 Co492 2.122 . S
O490 H493 0.980 . S
Co491 O490 2.042 . S
Co491 O499 2.286 . S
Co491 O500 2.069 . S
Co491 O501 2.015 1_545 S
Co491 O504 2.264 . S
Co492 O490 2.122 . S
Co492 O503 1.976 1_545 S
Co492 O504 2.327 . S
Co492 O505 2.073 . S
H493 O490 0.980 . S
O494 Co486 2.073 . S
O494 C509 1.245 . S
O495 Co485 2.264 . S
O495 Co486 2.327 . S
O495 C509 1.257 . S
O496 Co486 1.976 1_545 S
O496 C508 1.251 . S
O497 Co487 2.111 . S
O497 C508 1.274 . S
O498 Co487 2.143 1_565 S
O498 C511 1.246 . S
O499 Co491 2.286 . S
O499 C510 1.259 . S
O500 Co491 2.069 . S
O500 C510 1.289 . S
O501 Co491 2.015 1_565 S
O501 C511 1.257 . S
O502 Co487 2.111 1_565 S
O502 C512 1.274 . S
O503 Co492 1.976 1_565 S
O503 C512 1.251 . S
O504 Co491 2.264 . S
O504 Co492 2.327 . S
O504 C513 1.257 . S
O505 Co492 2.073 . S
O505 C513 1.245 . S
C506 O514 1.259 . S
C506 O515 1.289 . S
C507 O516 1.246 . S
C507 O517 1.257 . S
C508 O496 1.251 . S
C508 O497 1.274 . S
C509 O494 1.245 . S
C509 O495 1.257 . S
C510 O499 1.259 . S
C510 O500 1.289 . S
C511 O498 1.246 . S
C511 O501 1.257 . S
C512 O502 1.274 . S
C512 O503 1.251 . S
C513 O504 1.257 . S
C513 O505 1.245 . S
O514 Co485 2.286 . S
O514 C506 1.259 . S
O515 Co485 2.069 . S
O515 C506 1.289 . S
O516 Co487 2.143 . S
O516 C507 1.246 . S
O517 Co485 2.015 1_545 S
O517 C507 1.257 . S
C518 C519 1.369 . S
C518 C520 1.419 . S
C518 H522 0.930 . S
C519 C518 1.369 . S
C519 C528 1.429 . S
C520 C518 1.419 . S
C520 C521 1.363 . S
C520 H523 0.929 . S
C521 C520 1.363 . S
C521 C527 1.428 . S
H522 C518 0.930 . S
H523 C520 0.929 . S
S524 N525 1.613 . S
S524 N526 1.610 . S
N525 S524 1.613 . S
N525 C528 1.350 . S
N526 S524 1.610 . S
N526 C527 1.351 . S
C527 C521 1.428 . S
C527 N526 1.351 . S
C527 C528 1.434 . S
C528 C519 1.429 . S
C528 N525 1.350 . S
C528 C527 1.434 . S
C529 C530 1.369 . S
C529 C531 1.419 . S
C529 H533 0.930 . S
C530 C529 1.369 . S
C530 C539 1.429 . S
C531 C529 1.419 . S
C531 C532 1.363 . S
C531 H534 0.929 . S
C532 C531 1.363 . S
C532 C538 1.428 . S
H533 C529 0.930 . S
H534 C531 0.929 . S
S535 N536 1.613 . S
S535 N537 1.610 . S
N536 S535 1.613 . S
N536 C539 1.350 . S
N537 S535 1.610 . S
N537 C538 1.351 . S
C538 C532 1.428 . S
C538 N537 1.351 . S
C538 C539 1.434 . S
C539 C530 1.429 . S
C539 N536 1.350 . S
C539 C538 1.434 . S
C540 C541 1.369 . S
C540 C542 1.419 . S
C540 H544 0.930 . S
C541 C540 1.369 . S
C541 C550 1.429 . S
C542 C540 1.419 . S
C542 C543 1.363 . S
C542 H545 0.929 . S
C543 C542 1.363 . S
C543 C549 1.428 . S
H544 C540 0.930 . S
H545 C542 0.929 . S
S546 N547 1.613 . S
S546 N548 1.610 . S
N547 S546 1.613 . S
N547 C550 1.350 . S
N548 S546 1.610 . S
N548 C549 1.351 . S
C549 C543 1.428 . S
C549 N548 1.351 . S
C549 C550 1.434 . S
C550 C541 1.429 . S
C550 N547 1.350 . S
C550 C549 1.434 . S
C551 C552 1.369 . S
C551 C553 1.419 . S
C551 H555 0.930 . S
C552 C551 1.369 . S
C552 C561 1.429 . S
C553 C551 1.419 . S
C553 C554 1.363 . S
C553 H556 0.929 . S
C554 C553 1.363 . S
C554 C560 1.428 . S
H555 C551 0.930 . S
H556 C553 0.929 . S
S557 N558 1.613 . S
S557 N559 1.610 . S
N558 S557 1.613 . S
N558 C561 1.350 . S
N559 S557 1.610 . S
N559 C560 1.351 . S
C560 C554 1.428 . S
C560 N559 1.351 . S
C560 C561 1.434 . S
C561 C552 1.429 . S
C561 N558 1.350 . S
C561 C560 1.434 . S
C562 C563 1.369 . S
C562 C564 1.419 . S
C562 H566 0.930 . S
C563 C562 1.369 . S
C563 C572 1.429 . S
C564 C562 1.419 . S
C564 C565 1.363 . S
C564 H567 0.929 . S
C565 C564 1.363 . S
C565 C571 1.428 . S
H566 C562 0.930 . S
H567 C564 0.929 . S
S568 N569 1.613 . S
S568 N570 1.610 . S
N569 S568 1.613 . S
N569 C572 1.350 . S
N570 S568 1.610 . S
N570 C571 1.351 . S
C571 C565 1.428 . S
C571 N570 1.351 . S
C571 C572 1.434 . S
C572 C563 1.429 . S
C572 N569 1.350 . S
C572 C571 1.434 . S
C573 C574 1.369 . S
C573 C575 1.419 . S
C573 H577 0.930 . S
C574 C573 1.369 . S
C574 C583 1.429 . S
C575 C573 1.419 . S
C575 C576 1.363 . S
C575 H578 0.929 . S
C576 C575 1.363 . S
C576 C582 1.428 . S
H577 C573 0.930 . S
H578 C575 0.929 . S
S579 N580 1.613 . S
S579 N581 1.610 . S
N580 S579 1.613 . S
N580 C583 1.350 . S
N581 S579 1.610 . S
N581 C582 1.351 . S
C582 C576 1.428 . S
C582 N581 1.351 . S
C582 C583 1.434 . S
C583 C574 1.429 . S
C583 N580 1.350 . S
C583 C582 1.434 . S
C584 C585 1.369 . S
C584 C586 1.419 . S
C584 H588 0.930 . S
C585 C584 1.369 . S
C585 C594 1.429 . S
C586 C584 1.419 . S
C586 C587 1.363 . S
C586 H589 0.929 . S
C587 C586 1.363 . S
C587 C593 1.428 . S
H588 C584 0.930 . S
H589 C586 0.929 . S
S590 N591 1.613 . S
S590 N592 1.610 . S
N591 S590 1.613 . S
N591 C594 1.350 . S
N592 S590 1.610 . S
N592 C593 1.351 . S
C593 C587 1.428 . S
C593 N592 1.351 . S
C593 C594 1.434 . S
C594 C585 1.429 . S
C594 N591 1.350 . S
C594 C593 1.434 . S
C595 C596 1.369 . S
C595 C597 1.419 . S
C595 H599 0.930 . S
C596 C595 1.369 . S
C596 C605 1.429 . S
C597 C595 1.419 . S
C597 C598 1.363 . S
C597 H600 0.929 . S
C598 C597 1.363 . S
C598 C604 1.428 . S
H599 C595 0.930 . S
H600 C597 0.929 . S
S601 N602 1.613 . S
S601 N603 1.610 . S
N602 S601 1.613 . S
N602 C605 1.350 . S
N603 S601 1.610 . S
N603 C604 1.351 . S
C604 C598 1.428 . S
C604 N603 1.351 . S
C604 C605 1.434 . S
C605 C596 1.429 . S
C605 N602 1.350 . S
C605 C604 1.434 . S
C606 C607 1.369 . S
C606 C608 1.419 . S
C606 H610 0.930 . S
C607 C606 1.369 . S
C607 C616 1.429 . S
C608 C606 1.419 . S
C608 C609 1.363 . S
C608 H611 0.929 . S
C609 C608 1.363 . S
C609 C615 1.428 . S
H610 C606 0.930 . S
H611 C608 0.929 . S
S612 N613 1.613 1_556 S
S612 N614 1.610 . S
N613 S612 1.613 1_554 S
N613 C616 1.350 . S
N614 S612 1.610 . S
N614 C615 1.351 1_556 S
C615 C609 1.428 . S
C615 N614 1.351 1_554 S
C615 C616 1.434 . S
C616 C607 1.429 . S
C616 N613 1.350 . S
C616 C615 1.434 . S
C617 C618 1.369 . S
C617 C619 1.419 . S
C617 H621 0.930 . S
C618 C617 1.369 . S
C618 C627 1.429 . S
C619 C617 1.419 . S
C619 C620 1.363 . S
C619 H622 0.929 . S
C620 C619 1.363 . S
C620 C626 1.428 . S
H621 C617 0.930 . S
H622 C619 0.929 . S
S623 N624 1.613 . S
S623 N625 1.610 . S
N624 S623 1.613 . S
N624 C627 1.350 . S
N625 S623 1.610 . S
N625 C626 1.351 . S
C626 C620 1.428 . S
C626 N625 1.351 . S
C626 C627 1.434 . S
C627 C618 1.429 . S
C627 N624 1.350 . S
C627 C626 1.434 . S
C628 C629 1.369 . S
C628 C630 1.419 . S
C628 H632 0.930 . S
C629 C628 1.369 . S
C629 C638 1.429 . S
C630 C628 1.419 . S
C630 C631 1.363 . S
C630 H633 0.929 . S
C631 C630 1.363 . S
C631 C637 1.428 . S
H632 C628 0.930 . S
H633 C630 0.929 . S
S634 N635 1.613 . S
S634 N636 1.610 . S
N635 S634 1.613 . S
N635 C638 1.350 . S
N636 S634 1.610 . S
N636 C637 1.351 . S
C637 C631 1.428 . S
C637 N636 1.351 . S
C637 C638 1.434 . S
C638 C629 1.429 . S
C638 N635 1.350 . S
C638 C637 1.434 . S
C639 C640 1.369 . S
C639 C641 1.419 . S
C639 H643 0.930 . S
C640 C639 1.369 . S
C640 C649 1.429 . S
C641 C639 1.419 . S
C641 C642 1.363 . S
C641 H644 0.929 . S
C642 C641 1.363 . S
C642 C648 1.428 . S
H643 C639 0.930 . S
H644 C641 0.929 . S
S645 N646 1.613 . S
S645 N647 1.610 . S
N646 S645 1.613 . S
N646 C649 1.350 . S
N647 S645 1.610 . S
N647 C648 1.351 . S
C648 C642 1.428 . S
C648 N647 1.351 . S
C648 C649 1.434 . S
C649 C640 1.429 . S
C649 N646 1.350 . S
C649 C648 1.434 . S
C650 C651 1.369 . S
C650 C652 1.419 . S
C650 H654 0.930 . S
C651 C650 1.369 . S
C651 C660 1.429 . S
C652 C650 1.419 . S
C652 C653 1.363 . S
C652 H655 0.929 . S
C653 C652 1.363 . S
C653 C659 1.428 . S
H654 C650 0.930 . S
H655 C652 0.929 . S
S656 N657 1.613 . S
S656 N658 1.610 . S
N657 S656 1.613 . S
N657 C660 1.350 . S
N658 S656 1.610 . S
N658 C659 1.351 . S
C659 C653 1.428 . S
C659 N658 1.351 . S
C659 C660 1.434 . S
C660 C651 1.429 . S
C660 N657 1.350 . S
C660 C659 1.434 . S
C661 C662 1.369 . S
C661 C663 1.419 . S
C661 H665 0.930 . S
C662 C661 1.369 . S
C662 C671 1.429 1_556 S
C663 C661 1.419 . S
C663 C664 1.363 1_556 S
C663 H666 0.929 . S
C664 C663 1.363 1_554 S
C664 C670 1.428 . S
H665 C661 0.930 . S
H666 C663 0.929 . S
S667 N668 1.613 . S
S667 N669 1.610 . S
N668 S667 1.613 . S
N668 C671 1.350 . S
N669 S667 1.610 . S
N669 C670 1.351 . S
C670 C664 1.428 . S
C670 N669 1.351 . S
C670 C671 1.434 . S
C671 C662 1.429 1_554 S
C671 N668 1.350 . S
C671 C670 1.434 . S
C672 C673 1.369 . S
C672 C674 1.419 . S
C672 H676 0.930 . S
C673 C672 1.369 . S
C673 C682 1.429 . S
C674 C672 1.419 . S
C674 C675 1.363 . S
C674 H677 0.919 1_556 S
C675 C674 1.363 . S
C675 C681 1.428 . S
H676 C672 0.930 . S
H677 C674 0.919 1_554 S
S678 N679 1.613 . S
S678 N680 1.610 . S
N679 S678 1.613 . S
N679 C682 1.350 . S
N680 S678 1.610 . S
N680 C681 1.351 . S
C681 C675 1.428 . S
C681 N680 1.351 . S
C681 C682 1.434 . S
C682 C673 1.429 . S
C682 N679 1.350 . S
C682 C681 1.434 . S
C683 C684 1.369 . S
C683 C685 1.419 . S
C683 H687 0.930 . S
C684 C683 1.369 . S
C684 C693 1.429 . S
C685 C683 1.419 . S
C685 C686 1.363 . S
C685 H688 0.929 . S
C686 C685 1.363 . S
C686 C692 1.428 . S
H687 C683 0.930 . S
H688 C685 0.929 . S
S689 N690 1.613 1_554 S
S689 N691 1.610 . S
N690 S689 1.613 1_556 S
N690 C693 1.350 . S
N691 S689 1.610 . S
N691 C692 1.351 1_554 S
C692 C686 1.428 . S
C692 N691 1.351 1_556 S
C692 C693 1.434 . S
C693 C684 1.429 . S
C693 N690 1.350 . S
C693 C692 1.434 . S
C694 C695 1.369 . S
C694 C696 1.419 . S
C694 H698 0.930 . S
C695 C694 1.369 . S
C695 C704 1.429 . S
C696 C694 1.419 . S
C696 C697 1.363 . S
C696 H699 0.929 . S
C697 C696 1.363 . S
C697 C703 1.428 . S
H698 C694 0.930 . S
H699 C696 0.929 . S
S700 N701 1.613 . S
S700 N702 1.610 . S
N701 S700 1.613 . S
N701 C704 1.350 . S
N702 S700 1.610 . S
N702 C703 1.351 . S
C703 C697 1.428 . S
C703 N702 1.351 . S
C703 C704 1.434 . S
C704 C695 1.429 . S
C704 N701 1.350 . S
C704 C703 1.434 . S
C705 C706 1.369 . S
C705 C707 1.419 . S
C705 H709 0.930 . S
C706 C705 1.369 . S
C706 C715 1.429 . S
C707 C705 1.419 . S
C707 C708 1.363 . S
C707 H710 0.929 . S
C708 C707 1.363 . S
C708 C714 1.428 . S
H709 C705 0.930 . S
H710 C707 0.929 . S
S711 N712 1.613 . S
S711 N713 1.610 . S
N712 S711 1.613 . S
N712 C715 1.350 1_556 S
N713 S711 1.610 . S
N713 C714 1.352 1_556 S
C714 C708 1.428 . S
C714 N713 1.352 1_554 S
C714 C715 1.434 . S
C715 C706 1.429 . S
C715 N712 1.350 1_554 S
C715 C714 1.434 . S
C716 C717 1.369 . S
C716 C718 1.419 . S
C716 H720 0.930 . S
C717 C716 1.369 . S
C717 C726 1.429 . S
C718 C716 1.419 . S
C718 C719 1.363 . S
C718 H721 0.929 . S
C719 C718 1.363 . S
C719 C725 1.428 . S
H720 C716 0.930 . S
H721 C718 0.929 . S
S722 N723 1.613 . S
S722 N724 1.610 . S
N723 S722 1.613 . S
N723 C726 1.350 . S
N724 S722 1.610 . S
N724 C725 1.351 . S
C725 C719 1.428 . S
C725 N724 1.351 . S
C725 C726 1.434 . S
C726 C717 1.429 . S
C726 N723 1.350 . S
C726 C725 1.434 . S
C727 C728 1.369 . S
C727 C729 1.419 . S
C727 H731 0.930 . S
C728 C727 1.369 . S
C728 C737 1.429 . S
C729 C727 1.419 . S
C729 C730 1.363 . S
C729 H732 0.929 . S
C730 C729 1.363 . S
C730 C736 1.428 . S
H731 C727 0.930 . S
H732 C729 0.929 . S
S733 N734 1.613 . S
S733 N735 1.610 . S
N734 S733 1.613 . S
N734 C737 1.350 . S
N735 S733 1.610 . S
N735 C736 1.351 . S
C736 C730 1.428 . S
C736 N735 1.351 . S
C736 C737 1.434 . S
C737 C728 1.429 . S
C737 N734 1.350 . S
C737 C736 1.434 . S
C738 C739 1.369 . S
C738 C740 1.419 . S
C738 H742 0.930 1_556 S
C739 C738 1.369 . S
C739 C748 1.429 . S
C740 C738 1.419 . S
C740 C741 1.363 . S
C740 H743 0.929 1_556 S
C741 C740 1.363 . S
C741 C747 1.428 . S
H742 C738 0.930 1_554 S
H743 C740 0.929 1_554 S
S744 N745 1.613 . S
S744 N746 1.610 . S
N745 S744 1.613 . S
N745 C748 1.350 . S
N746 S744 1.610 . S
N746 C747 1.351 . S
C747 C741 1.428 . S
C747 N746 1.351 . S
C747 C748 1.434 . S
C748 C739 1.429 . S
C748 N745 1.350 . S
C748 C747 1.434 . S
C749 C750 1.369 . S
C749 C751 1.419 . S
C749 H753 0.930 . S
C750 C749 1.369 . S
C750 C759 1.429 . S
C751 C749 1.419 . S
C751 C752 1.363 . S
C751 H754 0.929 . S
C752 C751 1.363 . S
C752 C758 1.428 . S
H753 C749 0.930 . S
H754 C751 0.929 . S
S755 N756 1.613 . S
S755 N757 1.610 . S
N756 S755 1.613 . S
N756 C759 1.350 . S
N757 S755 1.610 . S
N757 C758 1.351 . S
C758 C752 1.428 . S
C758 N757 1.351 . S
C758 C759 1.434 . S
C759 C750 1.429 . S
C759 N756 1.350 . S
C759 C758 1.434 . S
C760 C761 1.369 . S
C760 C762 1.419 . S
C760 H764 0.930 . S
C761 C760 1.369 . S
C761 C770 1.429 . S
C762 C760 1.419 . S
C762 C763 1.363 . S
C762 H765 0.929 . S
C763 C762 1.363 . S
C763 C769 1.428 . S
H764 C760 0.930 . S
H765 C762 0.929 . S
S766 N767 1.613 . S
S766 N768 1.610 . S
N767 S766 1.613 . S
N767 C770 1.350 . S
N768 S766 1.610 . S
N768 C769 1.351 . S
C769 C763 1.428 . S
C769 N768 1.351 . S
C769 C770 1.434 . S
C770 C761 1.429 . S
C770 N767 1.350 . S
C770 C769 1.434 . S
C771 C772 1.369 . S
C771 C773 1.419 . S
C771 H775 0.930 . S
C772 C771 1.369 . S
C772 C781 1.429 . S
C773 C771 1.419 . S
C773 C774 1.363 . S
C773 H776 0.929 . S
C774 C773 1.363 . S
C774 C780 1.428 . S
H775 C771 0.930 . S
H776 C773 0.929 . S
S777 N778 1.613 . S
S777 N779 1.610 . S
N778 S777 1.613 . S
N778 C781 1.350 . S
N779 S777 1.610 . S
N779 C780 1.351 . S
C780 C774 1.428 . S
C780 N779 1.351 . S
C780 C781 1.434 . S
C781 C772 1.429 . S
C781 N778 1.350 . S
C781 C780 1.434 . S
C782 C783 1.369 . S
C782 C784 1.419 . S
C782 H786 0.930 . S
C783 C782 1.369 . S
C783 C792 1.429 . S
C784 C782 1.419 . S
C784 C785 1.363 . S
C784 H787 0.929 . S
C785 C784 1.363 . S
C785 C791 1.428 . S
H786 C782 0.930 . S
H787 C784 0.929 . S
S788 N789 1.613 . S
S788 N790 1.610 . S
N789 S788 1.613 . S
N789 C792 1.350 . S
N790 S788 1.610 . S
N790 C791 1.351 . S
C791 C785 1.428 . S
C791 N790 1.351 . S
C791 C792 1.434 . S
C792 C783 1.429 . S
C792 N789 1.350 . S
C792 C791 1.434 . S
C793 C794 1.369 . S
C793 C795 1.419 . S
C793 H797 0.930 . S
C794 C793 1.369 . S
C794 C803 1.429 . S
C795 C793 1.419 . S
C795 C796 1.363 . S
C795 H798 0.929 . S
C796 C795 1.363 . S
C796 C802 1.428 . S
H797 C793 0.930 . S
H798 C795 0.929 . S
S799 N800 1.613 1_554 S
S799 N801 1.610 1_554 S
N800 S799 1.613 1_556 S
N800 C803 1.350 . S
N801 S799 1.610 1_556 S
N801 C802 1.351 . S
C802 C796 1.428 . S
C802 N801 1.351 . S
C802 C803 1.434 . S
C803 C794 1.429 . S
C803 N800 1.350 . S
C803 C802 1.434 . S
C804 C805 1.369 . S
C804 C806 1.419 . S
C804 H808 0.930 . S
C805 C804 1.369 . S
C805 C814 1.429 . S
C806 C804 1.419 . S
C806 C807 1.363 . S
C806 H809 0.929 . S
C807 C806 1.363 . S
C807 C813 1.428 . S
H808 C804 0.930 . S
H809 C806 0.929 . S
S810 N811 1.613 . S
S810 N812 1.610 . S
N811 S810 1.613 . S
N811 C814 1.350 . S
N812 S810 1.610 . S
N812 C813 1.351 . S
C813 C807 1.428 . S
C813 N812 1.351 . S
C813 C814 1.434 . S
C814 C805 1.429 . S
C814 N811 1.350 . S
C814 C813 1.434 . S
C815 C816 1.369 . S
C815 C817 1.419 . S
C815 H819 0.930 . S
C816 C815 1.369 . S
C816 C825 1.429 . S
C817 C815 1.419 . S
C817 C818 1.363 . S
C817 H820 0.929 . S
C818 C817 1.363 . S
C818 C824 1.428 . S
H819 C815 0.930 . S
H820 C817 0.929 . S
S821 N822 1.613 1_554 S
S821 N823 1.610 . S
N822 S821 1.613 1_556 S
N822 C825 1.350 . S
N823 S821 1.610 . S
N823 C824 1.351 1_554 S
C824 C818 1.428 . S
C824 N823 1.351 1_556 S
C824 C825 1.434 . S
C825 C816 1.429 . S
C825 N822 1.350 . S
C825 C824 1.434 . S
C826 C827 1.369 . S
C826 C828 1.419 . S
C826 H830 0.930 . S
C827 C826 1.369 . S
C827 C836 1.429 . S
C828 C826 1.419 . S
C828 C829 1.363 . S
C828 H831 0.929 . S
C829 C828 1.363 . S
C829 C835 1.428 . S
H830 C826 0.930 . S
H831 C828 0.929 . S
S832 N833 1.613 . S
S832 N834 1.610 . S
N833 S832 1.613 . S
N833 C836 1.350 . S
N834 S832 1.610 . S
N834 C835 1.351 . S
C835 C829 1.428 . S
C835 N834 1.351 . S
C835 C836 1.434 . S
C836 C827 1.429 . S
C836 N833 1.350 . S
C836 C835 1.434 . S
C837 C838 1.369 . S
C837 C839 1.419 . S
C837 H841 0.930 . S
C838 C837 1.369 . S
C838 C847 1.429 . S
C839 C837 1.419 . S
C839 C840 1.363 . S
C839 H842 0.929 . S
C840 C839 1.363 . S
C840 C846 1.428 . S
H841 C837 0.930 . S
H842 C839 0.929 . S
S843 N844 1.613 . S
S843 N845 1.610 . S
N844 S843 1.613 . S
N844 C847 1.350 . S
N845 S843 1.610 . S
N845 C846 1.351 . S
C846 C840 1.428 . S
C846 N845 1.351 . S
C846 C847 1.434 . S
C847 C838 1.429 . S
C847 N844 1.350 . S
C847 C846 1.434 . S
C848 C849 1.369 . S
C848 C850 1.419 . S
C848 H852 0.930 . S
C849 C848 1.369 . S
C849 C858 1.429 . S
C850 C848 1.419 . S
C850 C851 1.363 . S
C850 H853 0.929 . S
C851 C850 1.363 . S
C851 C857 1.428 . S
H852 C848 0.930 . S
H853 C850 0.929 . S
S854 N855 1.616 . S
S854 N856 1.611 . S
N855 S854 1.616 . S
N855 C858 1.350 . S
N856 S854 1.611 . S
N856 C857 1.351 . S
C857 C851 1.428 . S
C857 N856 1.351 . S
C857 C858 1.434 . S
C858 C849 1.429 . S
C858 N855 1.350 . S
C858 C857 1.434 . S
C859 C860 1.369 . S
C859 C861 1.419 . S
C859 H863 0.930 . S
C860 C859 1.369 . S
C860 C869 1.429 . S
C861 C859 1.419 . S
C861 C862 1.363 . S
C861 H864 0.929 . S
C862 C861 1.363 . S
C862 C868 1.428 . S
H863 C859 0.930 . S
H864 C861 0.929 . S
S865 N866 1.613 . S
S865 N867 1.610 . S
N866 S865 1.613 . S
N866 C869 1.350 . S
N867 S865 1.610 . S
N867 C868 1.351 . S
C868 C862 1.428 . S
C868 N867 1.351 . S
C868 C869 1.434 . S
C869 C860 1.429 . S
C869 N866 1.350 . S
C869 C868 1.434 . S
C870 C871 1.369 . S
C870 C872 1.419 . S
C870 H874 0.930 . S
C871 C870 1.369 . S
C871 C880 1.429 . S
C872 C870 1.419 . S
C872 C873 1.363 . S
C872 H875 0.929 . S
C873 C872 1.363 . S
C873 C879 1.428 . S
H874 C870 0.930 . S
H875 C872 0.929 . S
S876 N877 1.613 . S
S876 N878 1.610 . S
N877 S876 1.613 . S
N877 C880 1.350 . S
N878 S876 1.610 . S
N878 C879 1.351 . S
C879 C873 1.428 . S
C879 N878 1.351 . S
C879 C880 1.434 . S
C880 C871 1.429 . S
C880 N877 1.350 . S
C880 C879 1.434 . S
C881 C882 1.369 . S
C881 C883 1.419 . S
C881 H885 0.930 . S
C882 C881 1.369 . S
C882 C891 1.429 . S
C883 C881 1.419 . S
C883 C884 1.363 . S
C883 H886 0.929 . S
C884 C883 1.363 . S
C884 C890 1.428 . S
H885 C881 0.930 . S
H886 C883 0.929 . S
S887 N888 1.613 . S
S887 N889 1.610 . S
N888 S887 1.613 . S
N888 C891 1.350 . S
N889 S887 1.610 . S
N889 C890 1.351 . S
C890 C884 1.428 . S
C890 N889 1.351 . S
C890 C891 1.434 . S
C891 C882 1.429 . S
C891 N888 1.350 . S
C891 C890 1.434 . S
C892 C893 1.369 . S
C892 C894 1.419 . S
C892 H896 0.930 . S
C893 C892 1.369 . S
C893 C902 1.429 . S
C894 C892 1.419 . S
C894 C895 1.363 . S
C894 H897 0.929 . S
C895 C894 1.363 . S
C895 C901 1.428 . S
H896 C892 0.930 . S
H897 C894 0.929 . S
S898 N899 1.613 . S
S898 N900 1.610 . S
N899 S898 1.613 . S
N899 C902 1.350 . S
N900 S898 1.610 . S
N900 C901 1.351 . S
C901 C895 1.428 . S
C901 N900 1.351 . S
C901 C902 1.434 . S
C902 C893 1.429 . S
C902 N899 1.350 . S
C902 C901 1.434 . S
C903 C904 1.369 . S
C903 C905 1.419 . S
C903 H907 0.930 . S
C904 C903 1.369 . S
C904 C913 1.429 . S
C905 C903 1.419 . S
C905 C906 1.363 . S
C905 H908 0.929 . S
C906 C905 1.363 . S
C906 C912 1.428 . S
H907 C903 0.930 . S
H908 C905 0.929 . S
S909 N910 1.613 . S
S909 N911 1.610 . S
N910 S909 1.613 . S
N910 C913 1.350 . S
N911 S909 1.610 . S
N911 C912 1.351 . S
C912 C906 1.428 . S
C912 N911 1.351 . S
C912 C913 1.434 . S
C913 C904 1.429 . S
C913 N910 1.350 . S
C913 C912 1.434 . S
C914 C915 1.369 . S
C914 C916 1.419 . S
C914 H918 0.930 . S
C915 C914 1.369 . S
C915 C924 1.429 . S
C916 C914 1.419 . S
C916 C917 1.363 . S
C916 H919 0.929 . S
C917 C916 1.363 . S
C917 C923 1.428 . S
H918 C914 0.930 . S
H919 C916 0.929 . S
S920 N921 1.613 . S
S920 N922 1.610 . S
N921 S920 1.613 . S
N921 C924 1.350 . S
N922 S920 1.610 . S
N922 C923 1.351 . S
C923 C917 1.428 . S
C923 N922 1.351 . S
C923 C924 1.434 . S
C924 C915 1.429 . S
C924 N921 1.350 . S
C924 C923 1.434 . S
C925 C926 1.369 . S
C925 C927 1.419 . S
C925 H929 0.930 . S
C926 C925 1.369 . S
C926 C935 1.429 . S
C927 C925 1.419 . S
C927 C928 1.363 . S
C927 H930 0.929 . S
C928 C927 1.363 . S
C928 C934 1.428 . S
H929 C925 0.930 . S
H930 C927 0.929 . S
S931 N932 1.613 . S
S931 N933 1.610 . S
N932 S931 1.613 . S
N932 C935 1.350 . S
N933 S931 1.610 . S
N933 C934 1.351 . S
C934 C928 1.428 . S
C934 N933 1.351 . S
C934 C935 1.434 . S
C935 C926 1.429 . S
C935 N932 1.350 . S
C935 C934 1.434 . S
C936 C937 1.369 . S
C936 C938 1.419 . S
C936 H940 0.930 . S
C937 C936 1.369 . S
C937 C946 1.429 . S
C938 C936 1.419 . S
C938 C939 1.363 . S
C938 H941 0.929 . S
C939 C938 1.363 . S
C939 C945 1.428 . S
H940 C936 0.930 . S
H941 C938 0.929 . S
S942 N943 1.613 . S
S942 N944 1.610 . S
N943 S942 1.613 . S
N943 C946 1.350 . S
N944 S942 1.610 . S
N944 C945 1.351 . S
C945 C939 1.428 . S
C945 N944 1.351 . S
C945 C946 1.434 . S
C946 C937 1.429 . S
C946 N943 1.350 . S
C946 C945 1.434 . S
C947 C948 1.369 . S
C947 C949 1.419 . S
C947 H951 0.930 . S
C948 C947 1.369 . S
C948 C957 1.429 . S
C949 C947 1.419 . S
C949 C950 1.363 . S
C949 H952 0.929 . S
C950 C949 1.363 . S
C950 C956 1.428 . S
H951 C947 0.930 . S
H952 C949 0.929 . S
S953 N954 1.613 . S
S953 N955 1.610 . S
N954 S953 1.613 . S
N954 C957 1.350 . S
N955 S953 1.610 . S
N955 C956 1.351 . S
C956 C950 1.428 . S
C956 N955 1.351 . S
C956 C957 1.434 . S
C957 C948 1.429 . S
C957 N954 1.350 . S
C957 C956 1.434 . S
C958 C959 1.369 . S
C958 C960 1.419 . S
C958 H962 0.930 . S
C959 C958 1.369 . S
C959 C968 1.429 . S
C960 C958 1.419 . S
C960 C961 1.363 . S
C960 H963 0.929 . S
C961 C960 1.363 . S
C961 C967 1.428 . S
H962 C958 0.930 . S
H963 C960 0.929 . S
S964 N965 1.613 . S
S964 N966 1.610 . S
N965 S964 1.613 . S
N965 C968 1.350 . S
N966 S964 1.610 . S
N966 C967 1.351 . S
C967 C961 1.428 . S
C967 N966 1.351 . S
C967 C968 1.434 . S
C968 C959 1.429 . S
C968 N965 1.350 . S
C968 C967 1.434 . S
C969 C970 1.369 . S
C969 C971 1.419 . S
C969 H973 0.930 . S
C970 C969 1.369 . S
C970 C979 1.429 . S
C971 C969 1.419 . S
C971 C972 1.363 . S
C971 H974 0.929 . S
C972 C971 1.363 . S
C972 C978 1.428 . S
H973 C969 0.930 . S
H974 C971 0.929 . S
S975 N976 1.613 . S
S975 N977 1.610 . S
N976 S975 1.613 . S
N976 C979 1.350 . S
N977 S975 1.610 . S
N977 C978 1.351 . S
C978 C972 1.428 . S
C978 N977 1.351 . S
C978 C979 1.434 . S
C979 C970 1.429 . S
C979 N976 1.350 . S
C979 C978 1.434 . S
C980 C981 1.369 . S
C980 C982 1.419 . S
C980 H984 0.930 . S
C981 C980 1.369 . S
C981 C990 1.429 . S
C982 C980 1.419 . S
C982 C983 1.363 . S
C982 H985 0.929 . S
C983 C982 1.363 . S
C983 C989 1.428 . S
H984 C980 0.930 . S
H985 C982 0.929 . S
S986 N987 1.613 . S
S986 N988 1.610 . S
N987 S986 1.613 . S
N987 C990 1.350 . S
N988 S986 1.610 . S
N988 C989 1.351 . S
C989 C983 1.428 . S
C989 N988 1.351 . S
C989 C990 1.434 . S
C990 C981 1.429 . S
C990 N987 1.350 . S
C990 C989 1.434 . S
C991 C992 1.369 . S
C991 C993 1.419 . S
C991 H995 0.930 . S
C992 C991 1.369 . S
C992 C1001 1.429 . S
C993 C991 1.419 . S
C993 C994 1.363 . S
C993 H996 0.929 . S
C994 C993 1.363 . S
C994 C1000 1.428 . S
H995 C991 0.930 . S
H996 C993 0.929 . S
S997 N998 1.613 . S
S997 N999 1.610 . S
N998 S997 1.613 . S
N998 C1001 1.350 . S
N999 S997 1.610 . S
N999 C1000 1.351 . S
C1000 C994 1.428 . S
C1000 N999 1.351 . S
C1000 C1001 1.434 . S
C1001 C992 1.429 . S
C1001 N998 1.350 . S
C1001 C1000 1.434 . S
C1002 C1003 1.369 . S
C1002 C1004 1.419 . S
C1002 H1006 0.930 . S
C1003 C1002 1.369 . S
C1003 C1012 1.429 . S
C1004 C1002 1.419 . S
C1004 C1005 1.363 . S
C1004 H1007 0.929 . S
C1005 C1004 1.363 . S
C1005 C1011 1.428 . S
H1006 C1002 0.930 . S
H1007 C1004 0.929 . S
S1008 N1009 1.613 . S
S1008 N1010 1.610 . S
N1009 S1008 1.613 . S
N1009 C1012 1.350 . S
N1010 S1008 1.610 . S
N1010 C1011 1.351 . S
C1011 C1005 1.428 . S
C1011 N1010 1.351 . S
C1011 C1012 1.434 . S
C1012 C1003 1.429 . S
C1012 N1009 1.350 . S
C1012 C1011 1.434 . S
C1013 C1014 1.369 . S
C1013 C1015 1.419 . S
C1013 H1017 0.930 . S
C1014 C1013 1.369 . S
C1014 C1023 1.429 . S
C1015 C1013 1.419 . S
C1015 C1016 1.363 . S
C1015 H1018 0.929 . S
C1016 C1015 1.363 . S
C1016 C1022 1.428 . S
H1017 C1013 0.930 . S
H1018 C1015 0.929 . S
S1019 N1020 1.613 . S
S1019 N1021 1.610 . S
N1020 S1019 1.613 . S
N1020 C1023 1.350 . S
N1021 S1019 1.610 . S
N1021 C1022 1.351 . S
C1022 C1016 1.428 . S
C1022 N1021 1.351 . S
C1022 C1023 1.434 . S
C1023 C1014 1.429 . S
C1023 N1020 1.350 . S
C1023 C1022 1.434 . S
C1024 C1025 1.369 . S
C1024 C1026 1.419 . S
C1024 H1028 0.930 . S
C1025 C1024 1.369 . S
C1025 C1034 1.429 . S
C1026 C1024 1.419 . S
C1026 C1027 1.363 . S
C1026 H1029 0.929 . S
C1027 C1026 1.363 . S
C1027 C1033 1.428 . S
H1028 C1024 0.930 . S
H1029 C1026 0.929 . S
S1030 N1031 1.613 . S
S1030 N1032 1.610 . S
N1031 S1030 1.613 . S
N1031 C1034 1.350 . S
N1032 S1030 1.610 . S
N1032 C1033 1.351 . S
C1033 C1027 1.428 . S
C1033 N1032 1.351 . S
C1033 C1034 1.434 . S
C1034 C1025 1.429 . S
C1034 N1031 1.350 . S
C1034 C1033 1.434 . S
C1035 C1036 1.369 . S
C1035 C1037 1.419 . S
C1035 H1039 0.930 . S
C1036 C1035 1.369 . S
C1036 C1045 1.429 . S
C1037 C1035 1.419 . S
C1037 C1038 1.363 . S
C1037 H1040 0.929 . S
C1038 C1037 1.363 . S
C1038 C1044 1.428 . S
H1039 C1035 0.930 . S
H1040 C1037 0.929 . S
S1041 N1042 1.613 . S
S1041 N1043 1.610 . S
N1042 S1041 1.613 . S
N1042 C1045 1.350 . S
N1043 S1041 1.610 . S
N1043 C1044 1.351 . S
C1044 C1038 1.428 . S
C1044 N1043 1.351 . S
C1044 C1045 1.434 . S
C1045 C1036 1.429 . S
C1045 N1042 1.350 . S
C1045 C1044 1.434 . S
C521 C347 2.476 . S
C519 C18 2.600 . S
C532 C348 2.649 . S
C530 C59 2.655 . S
C543 C342 1.438 . S
C541 C98 1.479 . S
C552 C125 0.605 . S
C554 C341 0.628 . S
C563 C169 2.598 . S
C565 C344 2.597 . S
C576 C346 1.268 . S
C574 C218 1.314 . S
C585 C255 1.030 . S
C587 C345 1.015 . S
C596 C288 2.579 . S
C598 C343 2.444 . S
C609 C378 1.036 . S
C607 C15 1.011 . S
C618 C45 0.817 . S
C620 C409 0.561 . S
C631 C377 0.229 . S
C629 C95 0.319 . S
C642 C412 1.137 . S
C640 C128 1.130 . S
C651 C178 1.392 . S
C653 C375 1.321 . S
C664 C407 1.488 . S
C662 C215 1.495 . S
C673 C249 2.259 . S
C675 C380 2.359 . S
C684 C299 2.043 . S
C686 C414 1.985 . S
C695 C9 2.747 . S
C697 C410 2.731 . S
C706 C175 0.831 . S
C708 C413 0.996 . S
C719 C381 1.536 . S
C717 C209 1.541 . S
C730 C408 1.594 1_556 S
C728 C258 1.735 . S
C739 C285 1.466 . S
C741 C374 1.534 . S
C750 C89 3.119 . S
C752 C411 3.135 . S
C763 C376 2.545 . S
C761 C139 2.609 . S
C772 C48 1.888 . S
C774 C379 1.861 . S
C783 C298 2.601 . S
C785 C446 2.457 . S
C794 C179 2.262 . S
C796 C447 2.251 . S
C807 C441 1.451 . S
C805 C208 1.500 . S
C818 C440 1.020 . S
C816 C245 1.032 . S
C827 C49 2.346 . S
C829 C443 2.334 . S
C840 C445 1.326 . S
C838 C88 1.374 . S
C849 C135 0.861 . S
C851 C444 0.858 . S
C860 C8 2.604 . S
C862 C442 2.440 . S
C871 C295 1.436 . S
C873 C480 1.426 . S
C884 C512 0.740 . S
C882 C165 0.742 . S
C893 C219 1.734 . S
C895 C473 1.720 . S
C904 C248 2.049 . S
C906 C507 2.042 . S
C917 C478 1.693 . S
C915 C58 1.713 . S
C926 C99 3.300 . S
C928 C509 3.264 . S
C939 C475 2.753 . S
C937 C129 2.793 . S
C950 C510 2.743 . S
C948 C19 2.657 . S
C961 C506 2.055 . S
C959 C289 1.944 . S
C970 C55 0.928 . S
C972 C508 0.755 . S
C981 C85 0.415 . S
C983 C477 0.279 . S
C994 C511 1.412 . S
C992 C138 1.399 . S
C1003 C5 0.896 . S
C1005 C476 0.869 . S
C1014 C205 1.659 . S
C1016 C513 1.612 . S
C1027 C479 2.342 . S
C1025 C259 2.369 . S
C1038 C474 1.377 . S
C1036 C168 1.291 . S
