# Generated by pormake.
# Topology ocu, (6,8)-cn, num edge types: 1
# Building blocks:
#     Node 0, Type 0, BuildingBlock: KUMBUR_clean_sbu_0, # of connection points: 6
#     Node 1, Type 0, BuildingBlock: KUMBUR_clean_sbu_0, # of connection points: 6
#     Node 2, Type 0, BuildingBlock: KUMBUR_clean_sbu_0, # of connection points: 6
#     Node 3, Type 0, BuildingBlock: KUMBUR_clean_sbu_0, # of connection points: 6
#     Node 4, Type 0, BuildingBlock: KUMBUR_clean_sbu_0, # of connection points: 6
#     Node 5, Type 0, BuildingBlock: KUMBUR_clean_sbu_0, # of connection points: 6
#     Node 6, Type 0, BuildingBlock: KUMBUR_clean_sbu_0, # of connection points: 6
#     Node 7, Type 0, BuildingBlock: KUMBUR_clean_sbu_0, # of connection points: 6
#     Node 8, Type 1, BuildingBlock: VETTIZ_charged_sbu_0, # of connection points: 8
#     Node 9, Type 1, BuildingBlock: VETTIZ_charged_sbu_0, # of connection points: 8
#     Node 10, Type 1, BuildingBlock: VETTIZ_charged_sbu_0, # of connection points: 8
#     Node 11, Type 1, BuildingBlock: VETTIZ_charged_sbu_0, # of connection points: 8
#     Node 12, Type 1, BuildingBlock: VETTIZ_charged_sbu_0, # of connection points: 8
#     Node 13, Type 1, BuildingBlock: VETTIZ_charged_sbu_0, # of connection points: 8
#     Edge 14, Type (0, 1), BuildingBlock: XIVTED_clean_linker_0, # of connection points: 2
#     Edge 15, Type (0, 1), BuildingBlock: XIVTED_clean_linker_0, # of connection points: 2
#     Edge 16, Type (0, 1), BuildingBlock: XIVTED_clean_linker_0, # of connection points: 2
#     Edge 17, Type (0, 1), BuildingBlock: XIVTED_clean_linker_0, # of connection points: 2
#     Edge 18, Type (0, 1), BuildingBlock: XIVTED_clean_linker_0, # of connection points: 2
#     Edge 19, Type (0, 1), BuildingBlock: XIVTED_clean_linker_0, # of connection points: 2
#     Edge 20, Type (0, 1), BuildingBlock: XIVTED_clean_linker_0, # of connection points: 2
#     Edge 21, Type (0, 1), BuildingBlock: XIVTED_clean_linker_0, # of connection points: 2
#     Edge 22, Type (0, 1), BuildingBlock: XIVTED_clean_linker_0, # of connection points: 2
#     Edge 23, Type (0, 1), BuildingBlock: XIVTED_clean_linker_0, # of connection points: 2
#     Edge 24, Type (0, 1), BuildingBlock: XIVTED_clean_linker_0, # of connection points: 2
#     Edge 25, Type (0, 1), BuildingBlock: XIVTED_clean_linker_0, # of connection points: 2
#     Edge 26, Type (0, 1), BuildingBlock: XIVTED_clean_linker_0, # of connection points: 2
#     Edge 27, Type (0, 1), BuildingBlock: XIVTED_clean_linker_0, # of connection points: 2
#     Edge 28, Type (0, 1), BuildingBlock: XIVTED_clean_linker_0, # of connection points: 2
#     Edge 29, Type (0, 1), BuildingBlock: XIVTED_clean_linker_0, # of connection points: 2
#     Edge 30, Type (0, 1), BuildingBlock: XIVTED_clean_linker_0, # of connection points: 2
#     Edge 31, Type (0, 1), BuildingBlock: XIVTED_clean_linker_0, # of connection points: 2
#     Edge 32, Type (0, 1), BuildingBlock: XIVTED_clean_linker_0, # of connection points: 2
#     Edge 33, Type (0, 1), BuildingBlock: XIVTED_clean_linker_0, # of connection points: 2
#     Edge 34, Type (0, 1), BuildingBlock: XIVTED_clean_linker_0, # of connection points: 2
#     Edge 35, Type (0, 1), BuildingBlock: XIVTED_clean_linker_0, # of connection points: 2
#     Edge 36, Type (0, 1), BuildingBlock: XIVTED_clean_linker_0, # of connection points: 2
#     Edge 37, Type (0, 1), BuildingBlock: XIVTED_clean_linker_0, # of connection points: 2
#     Edge 38, Type (0, 1), BuildingBlock: XIVTED_clean_linker_0, # of connection points: 2
#     Edge 39, Type (0, 1), BuildingBlock: XIVTED_clean_linker_0, # of connection points: 2
#     Edge 40, Type (0, 1), BuildingBlock: XIVTED_clean_linker_0, # of connection points: 2
#     Edge 41, Type (0, 1), BuildingBlock: XIVTED_clean_linker_0, # of connection points: 2
#     Edge 42, Type (0, 1), BuildingBlock: XIVTED_clean_linker_0, # of connection points: 2
#     Edge 43, Type (0, 1), BuildingBlock: XIVTED_clean_linker_0, # of connection points: 2
#     Edge 44, Type (0, 1), BuildingBlock: XIVTED_clean_linker_0, # of connection points: 2
#     Edge 45, Type (0, 1), BuildingBlock: XIVTED_clean_linker_0, # of connection points: 2
#     Edge 46, Type (0, 1), BuildingBlock: XIVTED_clean_linker_0, # of connection points: 2
#     Edge 47, Type (0, 1), BuildingBlock: XIVTED_clean_linker_0, # of connection points: 2
#     Edge 48, Type (0, 1), BuildingBlock: XIVTED_clean_linker_0, # of connection points: 2
#     Edge 49, Type (0, 1), BuildingBlock: XIVTED_clean_linker_0, # of connection points: 2
#     Edge 50, Type (0, 1), BuildingBlock: XIVTED_clean_linker_0, # of connection points: 2
#     Edge 51, Type (0, 1), BuildingBlock: XIVTED_clean_linker_0, # of connection points: 2
#     Edge 52, Type (0, 1), BuildingBlock: XIVTED_clean_linker_0, # of connection points: 2
#     Edge 53, Type (0, 1), BuildingBlock: XIVTED_clean_linker_0, # of connection points: 2
#     Edge 54, Type (0, 1), BuildingBlock: XIVTED_clean_linker_0, # of connection points: 2
#     Edge 55, Type (0, 1), BuildingBlock: XIVTED_clean_linker_0, # of connection points: 2
#     Edge 56, Type (0, 1), BuildingBlock: XIVTED_clean_linker_0, # of connection points: 2
#     Edge 57, Type (0, 1), BuildingBlock: XIVTED_clean_linker_0, # of connection points: 2
#     Edge 58, Type (0, 1), BuildingBlock: XIVTED_clean_linker_0, # of connection points: 2
#     Edge 59, Type (0, 1), BuildingBlock: XIVTED_clean_linker_0, # of connection points: 2
#     Edge 60, Type (0, 1), BuildingBlock: XIVTED_clean_linker_0, # of connection points: 2
#     Edge 61, Type (0, 1), BuildingBlock: XIVTED_clean_linker_0, # of connection points: 2
# Relax obj value: 0.113
# Max RMSD: 0.247
# Mean RMSD: 0.164
data_MOF--net-ocu--node1-KUMBUR_clean_sbu_0--node2-VETTIZ_charged_sbu_0--edge1-XIVTED_clean_linker_0
_symmetry_space_group_name_H-M    P1
_symmetry_Int_Tables_number       1
_symmetry_cell_setting            triclinic
loop_
_symmetry_equiv_pos_as_xyz
'x, y, z'
_cell_length_a     38.876478
_cell_length_b     39.091349
_cell_length_c     41.884136
_cell_angle_alpha  78.550208
_cell_angle_beta   99.593146
_cell_angle_gamma 103.56803
loop_
_atom_site_label
_atom_site_type_symbol
_atom_site_fract_x
_atom_site_fract_y
_atom_site_fract_z
_atom_type_partial_charge
Tb0 Tb 0.2634 0.22344 0.24087 0.0
C1 C 0.3646 0.31586 0.3296 0.0
C2 C 0.37811 0.27448 0.3787 0.0
C3 C 0.42214 0.32812 0.36296 0.0
C4 C 0.35488 0.28429 0.35044 0.0
C5 C 0.39777 0.3389 0.33626 0.0
C6 C 0.41233 0.29587 0.38416 0.0
C7 C 0.37789 0.38353 0.293 0.0
N8 N 0.33982 0.32567 0.30481 0.0
C9 C 0.34538 0.35965 0.28739 0.0
C10 C 0.40453 0.37284 0.31707 0.0
Tb11 Tb 0.28712 0.28511 0.29757 0.0
N12 N 0.3212 0.26514 0.3448 0.0
C13 C 0.30802 0.23756 0.36819 0.0
C14 C 0.36555 0.2446 0.40145 0.0
C15 C 0.33012 0.22649 0.39647 0.0
H16 H 0.32513 0.36808 0.26848 0.0
H17 H 0.3198 0.20392 0.41434 0.0
H18 H 0.43076 0.28854 0.40548 0.0
H19 H 0.38247 0.41005 0.2786 0.0
H20 H 0.28076 0.22311 0.36475 0.0
H21 H 0.22553 0.30259 0.12326 0.0
H22 H 0.38254 0.23611 0.42344 0.0
H23 H 0.23172 0.1363 0.26554 0.0
H24 H 0.26688 0.28511 0.17072 0.0
H25 H 0.17579 0.09282 0.25588 0.0
H26 H 0.44798 0.3452 0.36826 0.0
H27 H 0.16322 0.26896 0.11682 0.0
H28 H 0.11755 0.2151 0.13592 0.0
H29 H 0.42962 0.39142 0.32147 0.0
H30 H 0.10392 0.15724 0.17216 0.0
N31 N 0.22854 0.24251 0.19351 0.0
C32 C 0.24006 0.26983 0.16913 0.0
C33 C 0.18134 0.26107 0.13819 0.0
C34 C 0.17069 0.2308 0.1612 0.0
C35 C 0.21651 0.28 0.14167 0.0
C36 C 0.19538 0.22171 0.18861 0.0
H37 H 0.12598 0.11083 0.21618 0.0
N38 N 0.21369 0.17953 0.23257 0.0
C39 C 0.17862 0.11992 0.24273 0.0
C40 C 0.18772 0.18904 0.20882 0.0
C41 C 0.21042 0.14482 0.24815 0.0
C42 C 0.15052 0.13023 0.22042 0.0
C43 C 0.1552 0.16484 0.20243 0.0
O44 O 0.31381 0.21555 0.23527 0.0
O45 O 0.29755 0.23719 0.28526 0.0
O46 O 0.33102 0.29427 0.26801 0.0
O47 O 0.29795 0.27319 0.22181 0.0
O48 O 0.27501 0.18465 0.28462 0.0
O49 O 0.26738 0.19311 0.20551 0.0
O50 O 0.27 0.33139 0.30124 0.0
O51 O 0.25091 0.27007 0.25414 0.0
O52 O 0.22058 0.20753 0.27209 0.0
O53 O 0.24378 0.24136 0.31397 0.0
O54 O 0.26944 0.32319 0.25581 0.0
O55 O 0.26091 0.28444 0.33789 0.0
C56 C 0.29663 0.2061 0.3021 0.0
C57 C 0.315 0.16234 0.21759 0.0
C58 C 0.34951 0.1264 0.19917 0.0
C59 C 0.3353 0.15744 0.19453 0.0
C60 C 0.34326 0.10071 0.22752 0.0
C61 C 0.3089 0.13598 0.24528 0.0
C62 C 0.32302 0.10546 0.2502 0.0
C63 C 0.32711 0.29174 0.2365 0.0
C64 C 0.30148 0.19552 0.21305 0.0
C65 C 0.1293 0.17522 0.17708 0.0
C66 C 0.13704 0.20819 0.15647 0.0
C67 C 0.24851 0.30121 0.23855 0.0
C68 C 0.2681 0.33997 0.35511 0.0
C69 C 0.24215 0.35431 0.36465 0.0
C70 C 0.25127 0.3757 0.38951 0.0
C71 C 0.2869 0.38274 0.40433 0.0
C72 C 0.30325 0.34707 0.37058 0.0
C73 C 0.31259 0.36845 0.39493 0.0
C74 C 0.21935 0.21674 0.30056 0.0
C75 C 0.25801 0.31759 0.32919 0.0
H76 H 0.33974 0.17765 0.17297 0.0
H77 H 0.35441 0.077 0.23251 0.0
H78 H 0.29356 0.13894 0.26335 0.0
H79 H 0.31846 0.08545 0.27184 0.0
H80 H 0.21483 0.34828 0.35307 0.0
H81 H 0.29506 0.3996 0.42303 0.0
H82 H 0.32348 0.33615 0.36396 0.0
H83 H 0.33989 0.37396 0.40656 0.0
Tb84 Tb 0.82172 0.21289 0.27418 0.0
C85 C 0.68742 0.2457 0.30204 0.0
C86 C 0.6427 0.25385 0.25488 0.0
C87 C 0.62422 0.22926 0.30874 0.0
C88 C 0.67877 0.25607 0.26857 0.0
C89 C 0.66009 0.23336 0.32256 0.0
C90 C 0.61554 0.23946 0.27497 0.0
C91 C 0.70538 0.23382 0.36937 0.0
N92 N 0.72247 0.24996 0.31476 0.0
C93 C 0.73153 0.246 0.34818 0.0
C94 C 0.66954 0.22674 0.35653 0.0
Tb95 Tb 0.76235 0.2693 0.27669 0.0
N96 N 0.70568 0.27033 0.24979 0.0
C97 C 0.698 0.28544 0.2176 0.0
C98 C 0.63492 0.26729 0.22162 0.0
C99 C 0.66271 0.28369 0.20307 0.0
H100 H 0.7587 0.25113 0.35935 0.0
H101 H 0.65698 0.29507 0.17751 0.0
H102 H 0.58774 0.23718 0.26478 0.0
H103 H 0.71297 0.22975 0.39569 0.0
H104 H 0.71865 0.29841 0.20242 0.0
H105 H 0.92509 0.19786 0.37659 0.0
H106 H 0.60759 0.26613 0.21027 0.0
H107 H 0.82595 0.23232 0.194 0.0
H108 H 0.86305 0.19119 0.34907 0.0
H109 H 0.87242 0.25579 0.15713 0.0
H110 H 0.60299 0.21931 0.32412 0.0
H111 H 0.9753 0.22776 0.34481 0.0
H112 H 0.99628 0.25624 0.29009 0.0
H113 H 0.64937 0.21723 0.37306 0.0
H114 H 0.98188 0.27238 0.23024 0.0
N115 N 0.87802 0.21799 0.3024 0.0
C116 C 0.88481 0.20422 0.335 0.0
C117 C 0.94816 0.225 0.33265 0.0
C118 C 0.9411 0.23725 0.29896 0.0
C119 C 0.91989 0.20802 0.35066 0.0
C120 C 0.90531 0.23303 0.28435 0.0
H121 H 0.93579 0.27175 0.18032 0.0
N122 N 0.86237 0.23632 0.23779 0.0
C123 C 0.87977 0.25245 0.18347 0.0
C124 C 0.89717 0.24254 0.25087 0.0
C125 C 0.8535 0.23918 0.20451 0.0
C126 C 0.91549 0.26152 0.19665 0.0
C127 C 0.92467 0.2559 0.23075 0.0
O128 O 0.81308 0.17807 0.23977 0.0
O129 O 0.77336 0.21652 0.29116 0.0
O130 O 0.79829 0.26132 0.32258 0.0
O131 O 0.84844 0.25441 0.30405 0.0
O132 O 0.79973 0.18004 0.31895 0.0
O133 O 0.83395 0.16253 0.29036 0.0
O134 O 0.80027 0.31686 0.28195 0.0
O135 O 0.80961 0.26545 0.25714 0.0
O136 O 0.77831 0.20747 0.23305 0.0
O137 O 0.73276 0.23177 0.24407 0.0
O138 O 0.77516 0.29322 0.22698 0.0
O139 O 0.74577 0.31295 0.28737 0.0
C140 C 0.77153 0.19262 0.31641 0.0
C141 C 0.79989 0.11615 0.26205 0.0
C142 C 0.78291 0.05553 0.29154 0.0
C143 C 0.79916 0.09161 0.29131 0.0
C144 C 0.76569 0.0441 0.26218 0.0
C145 C 0.78286 0.10435 0.23267 0.0
C146 C 0.76512 0.0687 0.23292 0.0
C147 C 0.8333 0.26503 0.32536 0.0
C148 C 0.8225 0.15233 0.26192 0.0
C149 C 0.96039 0.26174 0.24524 0.0
C150 C 0.9686 0.25248 0.27932 0.0
C151 C 0.8049 0.28353 0.22855 0.0
C152 C 0.77801 0.36858 0.26318 0.0
C153 C 0.75126 0.37277 0.23678 0.0
C154 C 0.75322 0.40491 0.21456 0.0
C155 C 0.7827 0.43306 0.21892 0.0
C156 C 0.8072 0.3969 0.26739 0.0
C157 C 0.80949 0.42901 0.2453 0.0
C158 C 0.74492 0.21197 0.22806 0.0
C159 C 0.77681 0.3341 0.28511 0.0
H160 H 0.81385 0.09994 0.31383 0.0
H161 H 0.75375 0.0162 0.26177 0.0
H162 H 0.78368 0.1225 0.20948 0.0
H163 H 0.75211 0.05984 0.21018 0.0
H164 H 0.72905 0.35079 0.23325 0.0
H165 H 0.78476 0.4583 0.20231 0.0
H166 H 0.82835 0.394 0.28752 0.0
H167 H 0.83209 0.4508 0.24861 0.0
Tb168 Tb 0.75127 0.74995 0.29524 0.0
C169 C 0.84703 0.85539 0.20102 0.0
C170 C 0.80691 0.87228 0.15304 0.0
C171 C 0.8613 0.91429 0.16805 0.0
C172 C 0.81562 0.84753 0.18096 0.0
C173 C 0.87095 0.88838 0.19429 0.0
C174 C 0.82926 0.90622 0.14738 0.0
C175 C 0.91409 0.86544 0.2364 0.0
N176 N 0.85564 0.82916 0.22531 0.0
C177 C 0.88955 0.83301 0.24168 0.0
C178 C 0.9045 0.89355 0.21302 0.0
Tb179 Tb 0.81298 0.77756 0.23429 0.0
N180 N 0.79539 0.81421 0.18704 0.0
C181 C 0.76789 0.80282 0.16399 0.0
C182 C 0.77714 0.86151 0.13079 0.0
C183 C 0.75805 0.82633 0.13592 0.0
H184 H 0.89763 0.81135 0.25936 0.0
H185 H 0.73556 0.81733 0.11839 0.0
H186 H 0.82278 0.9258 0.12635 0.0
H187 H 0.94046 0.86861 0.25017 0.0
H188 H 0.75249 0.77589 0.16746 0.0
H189 H 0.82773 0.70926 0.41123 0.0
H190 H 0.76951 0.87965 0.10903 0.0
H191 H 0.66821 0.71572 0.26614 0.0
H192 H 0.81154 0.75104 0.36214 0.0
H193 H 0.62385 0.65966 0.27651 0.0
H194 H 0.87908 0.94 0.16269 0.0
H195 H 0.79256 0.64744 0.42073 0.0
H196 H 0.73832 0.60225 0.40364 0.0
H197 H 0.92369 0.91849 0.20866 0.0
H198 H 0.68209 0.58884 0.36705 0.0
N199 N 0.76836 0.71309 0.34234 0.0
C200 C 0.79582 0.72422 0.36551 0.0
C201 C 0.78541 0.66565 0.39883 0.0
C202 C 0.75551 0.6553 0.37655 0.0
C203 C 0.80519 0.70055 0.39363 0.0
C204 C 0.74748 0.68007 0.34841 0.0
H205 H 0.63858 0.61058 0.32014 0.0
N206 N 0.70822 0.69866 0.30323 0.0
C207 C 0.64976 0.66287 0.29114 0.0
C208 C 0.716 0.67262 0.32816 0.0
C209 C 0.67503 0.69471 0.28541 0.0
C210 C 0.65823 0.63517 0.31568 0.0
C211 C 0.69148 0.64006 0.33495 0.0
O212 O 0.70661 0.76816 0.30239 0.0
O213 O 0.76616 0.78636 0.25065 0.0
O214 O 0.8256 0.81975 0.26486 0.0
O215 O 0.79844 0.78865 0.31111 0.0
O216 O 0.71328 0.77032 0.25511 0.0
O217 O 0.75641 0.77907 0.3335 0.0
O218 O 0.85472 0.75259 0.23173 0.0
O219 O 0.79845 0.74133 0.27917 0.0
O220 O 0.74218 0.70626 0.26714 0.0
O221 O 0.76424 0.7391 0.21944 0.0
O222 O 0.8515 0.7599 0.27495 0.0
O223 O 0.81107 0.75275 0.19335 0.0
C224 C 0.73545 0.79048 0.23638 0.0
C225 C 0.70428 0.77465 0.35687 0.0
C226 C 0.6765 0.79663 0.39478 0.0
C227 C 0.69389 0.80269 0.36661 0.0
C228 C 0.66981 0.76195 0.41308 0.0
C229 C 0.69723 0.7403 0.37536 0.0
C230 C 0.6801 0.73405 0.40335 0.0
C231 C 0.82022 0.81605 0.29598 0.0
C232 C 0.72327 0.78211 0.3279 0.0
C233 C 0.70036 0.61421 0.3616 0.0
C234 C 0.7324 0.62182 0.38239 0.0
C235 C 0.82967 0.73957 0.29398 0.0
C236 C 0.86688 0.75081 0.17901 0.0
C237 C 0.87282 0.72242 0.16595 0.0
C238 C 0.8993 0.72816 0.14488 0.0
C239 C 0.91951 0.76316 0.13738 0.0
C240 C 0.88663 0.78535 0.17017 0.0
C241 C 0.91283 0.7914 0.14955 0.0
C242 C 0.74489 0.71018 0.23547 0.0
C243 C 0.84157 0.74362 0.2033 0.0
H244 H 0.69978 0.82931 0.35244 0.0
H245 H 0.65603 0.75623 0.43458 0.0
H246 H 0.70501 0.7184 0.36829 0.0
H247 H 0.67468 0.70744 0.41751 0.0
H248 H 0.85672 0.69602 0.17238 0.0
H249 H 0.94105 0.76898 0.12252 0.0
H250 H 0.88229 0.80754 0.17962 0.0
H251 H 0.92847 0.81808 0.14335 0.0
Tb252 Tb 0.30001 0.72432 0.26604 0.0
C253 C 0.24124 0.84711 0.19306 0.0
C254 C 0.29455 0.89365 0.18977 0.0
C255 C 0.24499 0.89507 0.14604 0.0
C256 C 0.27516 0.86167 0.20611 0.0
C257 C 0.22523 0.86422 0.16336 0.0
C258 C 0.27963 0.90978 0.15925 0.0
C259 C 0.16997 0.82224 0.1726 0.0
N260 N 0.22289 0.81778 0.2109 0.0
C261 C 0.18693 0.80663 0.20214 0.0
C262 C 0.18938 0.85079 0.1528 0.0
Tb263 Tb 0.25306 0.79431 0.25928 0.0
N264 N 0.28864 0.84519 0.23553 0.0
C265 C 0.32076 0.86052 0.25096 0.0
C266 C 0.32794 0.90885 0.20498 0.0
C267 C 0.34086 0.89245 0.23594 0.0
H268 H 0.17168 0.78476 0.21758 0.0
H269 H 0.36647 0.90419 0.24812 0.0
H270 H 0.29427 0.93411 0.1461 0.0
H271 H 0.1419 0.81243 0.16527 0.0
H272 H 0.33127 0.84815 0.27475 0.0
H273 H 0.26363 0.62515 0.18628 0.0
H274 H 0.34366 0.93342 0.19329 0.0
H275 H 0.30794 0.71511 0.34771 0.0
H276 H 0.28931 0.68497 0.20093 0.0
H277 H 0.29106 0.66795 0.39394 0.0
H278 H 0.23333 0.90838 0.123 0.0
H279 H 0.23783 0.57574 0.22802 0.0
H280 H 0.22671 0.55365 0.2869 0.0
H281 H 0.1761 0.86315 0.13011 0.0
H282 H 0.23455 0.56529 0.34362 0.0
N283 N 0.2764 0.66998 0.24995 0.0
C284 C 0.27795 0.66358 0.21925 0.0
C285 C 0.24886 0.60197 0.23449 0.0
C286 C 0.25008 0.608 0.26654 0.0
C287 C 0.26343 0.62977 0.21088 0.0
C288 C 0.26471 0.64263 0.27364 0.0
H289 H 0.25918 0.60767 0.38389 0.0
N290 N 0.28566 0.68243 0.31113 0.0
C291 C 0.28471 0.66229 0.36911 0.0
C292 C 0.26946 0.64912 0.30538 0.0
C293 C 0.29428 0.6891 0.34264 0.0
C294 C 0.26663 0.62833 0.36335 0.0
C295 C 0.25925 0.62121 0.3312 0.0
O296 O 0.34615 0.70737 0.2918 0.0
O297 O 0.29922 0.7804 0.24694 0.0
O298 O 0.23116 0.76387 0.21853 0.0
O299 O 0.24785 0.70903 0.23797 0.0
O300 O 0.30515 0.74894 0.21507 0.0
O301 O 0.342 0.72448 0.23978 0.0
O302 O 0.20814 0.80519 0.27434 0.0
O303 O 0.2619 0.74332 0.28723 0.0
O304 O 0.32998 0.75853 0.30173 0.0
O305 O 0.29176 0.79583 0.30336 0.0
O306 O 0.21008 0.75058 0.27543 0.0
O307 O 0.26093 0.833 0.28974 0.0
C308 C 0.30386 0.78079 0.21755 0.0
C309 C 0.37204 0.67713 0.26054 0.0
C310 C 0.40162 0.64801 0.22908 0.0
C311 C 0.38964 0.67818 0.2332 0.0
C312 C 0.39536 0.61678 0.25252 0.0
C313 C 0.36602 0.64532 0.28328 0.0
C314 C 0.37761 0.61548 0.27922 0.0
C315 C 0.22808 0.72951 0.21776 0.0
C316 C 0.36004 0.7091 0.26513 0.0
C317 C 0.2429 0.587 0.32417 0.0
C318 C 0.23839 0.58038 0.29187 0.0
C319 C 0.22952 0.72839 0.2905 0.0
C320 C 0.21485 0.86408 0.28493 0.0
C321 C 0.21585 0.88027 0.31224 0.0
C322 C 0.20315 0.91198 0.30881 0.0
C323 C 0.19048 0.92772 0.2771 0.0
C324 C 0.20219 0.88035 0.25366 0.0
C325 C 0.1903 0.91212 0.24981 0.0
C326 C 0.3207 0.78283 0.31464 0.0
C327 C 0.22709 0.83025 0.29005 0.0
H328 H 0.39433 0.70251 0.21542 0.0
H329 H 0.40364 0.59299 0.2499 0.0
H330 H 0.3523 0.64337 0.30426 0.0
H331 H 0.37274 0.59111 0.29686 0.0
H332 H 0.22647 0.86788 0.33619 0.0
H333 H 0.17975 0.95158 0.27332 0.0
H334 H 0.20117 0.86854 0.23227 0.0
H335 H 0.18031 0.92439 0.2256 0.0
Tb336 Tb 0.29609 0.75182 0.76892 0.0
C337 C 0.15796 0.77806 0.78306 0.0
C338 C 0.11473 0.77885 0.73443 0.0
C339 C 0.09487 0.75592 0.7881 0.0
C340 C 0.15031 0.78523 0.74959 0.0
C341 C 0.13031 0.7642 0.80295 0.0
C342 C 0.08707 0.76327 0.75382 0.0
C343 C 0.17438 0.77138 0.85034 0.0
N344 N 0.19244 0.7869 0.79621 0.0
C345 C 0.20081 0.78504 0.82948 0.0
C346 C 0.13903 0.7603 0.83705 0.0
Tb347 Tb 0.23441 0.80849 0.76045 0.0
N348 N 0.17782 0.80056 0.73203 0.0
C349 C 0.17118 0.81306 0.69908 0.0
C350 C 0.10803 0.78947 0.70046 0.0
C351 C 0.13636 0.80715 0.68279 0.0
H352 H 0.22798 0.79306 0.84033 0.0
H353 H 0.13143 0.81622 0.65662 0.0
H354 H 0.05956 0.75778 0.74267 0.0
H355 H 0.18138 0.76916 0.87668 0.0
H356 H 0.19287 0.82658 0.68512 0.0
H357 H 0.41963 0.83108 0.72679 0.0
H358 H 0.08108 0.78507 0.68783 0.0
H359 H 0.25784 0.6655 0.76001 0.0
H360 H 0.37312 0.81244 0.76298 0.0
H361 H 0.25653 0.62619 0.72139 0.0
H362 H 0.07325 0.74488 0.8029 0.0
H363 H 0.41743 0.79888 0.68113 0.0
H364 H 0.38843 0.74684 0.65253 0.0
H365 H 0.11863 0.74969 0.85324 0.0
H366 H 0.34393 0.6907 0.65122 0.0
N367 N 0.34268 0.77055 0.73769 0.0
C368 C 0.37098 0.79806 0.74318 0.0
C369 C 0.39658 0.79051 0.69699 0.0
C370 C 0.3693 0.76066 0.69306 0.0
C371 C 0.39792 0.80869 0.72274 0.0
C372 C 0.34283 0.75085 0.71447 0.0
H373 H 0.29511 0.64525 0.67714 0.0
N374 N 0.29525 0.70934 0.73705 0.0
C375 C 0.27376 0.65245 0.7188 0.0
C376 C 0.31833 0.71907 0.71416 0.0
C377 C 0.27444 0.67547 0.74066 0.0
C378 C 0.29556 0.66327 0.69388 0.0
C379 C 0.31887 0.69655 0.6918 0.0
O380 O 0.3 0.72574 0.81821 0.0
O381 O 0.25093 0.76127 0.78843 0.0
O382 O 0.27349 0.81455 0.80473 0.0
O383 O 0.32095 0.80261 0.78644 0.0
O384 O 0.2498 0.71055 0.78301 0.0
O385 O 0.34462 0.73764 0.79167 0.0
O386 O 0.23974 0.84875 0.78907 0.0
O387 O 0.28506 0.80347 0.74822 0.0
O388 O 0.25995 0.74426 0.72347 0.0
O389 O 0.21087 0.76618 0.73034 0.0
O390 O 0.25542 0.83132 0.71304 0.0
O391 O 0.22942 0.85987 0.73671 0.0
C392 C 0.23178 0.72975 0.79205 0.0
C393 C 0.35633 0.74657 0.8468 0.0
C394 C 0.41601 0.76796 0.87426 0.0
C395 C 0.39325 0.74972 0.85031 0.0
C396 C 0.40088 0.78399 0.8942 0.0
C397 C 0.34165 0.76135 0.86801 0.0
C398 C 0.36392 0.78027 0.8913 0.0
C399 C 0.30819 0.81736 0.80645 0.0
C400 C 0.33396 0.72834 0.82044 0.0
C401 C 0.34342 0.70744 0.66882 0.0
C402 C 0.36869 0.73943 0.66951 0.0
C403 C 0.28437 0.81964 0.71885 0.0
C404 C 0.26612 0.90646 0.76261 0.0
C405 C 0.2706 0.92896 0.73254 0.0
C406 C 0.29375 0.96253 0.73071 0.0
C407 C 0.31381 0.97327 0.75938 0.0
C408 C 0.28614 0.91758 0.79129 0.0
C409 C 0.31042 0.95046 0.78955 0.0
C410 C 0.22651 0.74841 0.71498 0.0
C411 C 0.23803 0.87346 0.76351 0.0
H412 H 0.4038 0.73623 0.83512 0.0
H413 H 0.41744 0.7985 0.91267 0.0
H414 H 0.31313 0.75911 0.86617 0.0
H415 H 0.35247 0.79218 0.90712 0.0
H416 H 0.25391 0.92149 0.71048 0.0
H417 H 0.33101 0.99953 0.75855 0.0
H418 H 0.28224 0.9015 0.81505 0.0
H419 H 0.32554 0.95889 0.8118 0.0
Tb420 Tb 0.24368 0.24268 0.79403 0.0
C421 C 0.35241 0.35368 0.71378 0.0
C422 C 0.31824 0.37802 0.66451 0.0
C423 C 0.37361 0.41419 0.68648 0.0
C424 C 0.32264 0.35012 0.69094 0.0
C425 C 0.37885 0.38534 0.71144 0.0
C426 C 0.34329 0.41053 0.66301 0.0
C427 C 0.4152 0.35602 0.75604 0.0
N428 N 0.35665 0.32491 0.73691 0.0
C429 C 0.38813 0.32521 0.75728 0.0
C430 C 0.41031 0.38644 0.73335 0.0
Tb431 Tb 0.31104 0.27544 0.7375 0.0
N432 N 0.29983 0.31797 0.6929 0.0
C433 C 0.27407 0.31081 0.66717 0.0
C434 C 0.28996 0.37169 0.63955 0.0
C435 C 0.26824 0.33766 0.64055 0.0
H436 H 0.3921 0.30204 0.77519 0.0
H437 H 0.24698 0.33206 0.62085 0.0
H438 H 0.34019 0.43244 0.64312 0.0
H439 H 0.43971 0.35633 0.7727 0.0
H440 H 0.25708 0.28465 0.66738 0.0
H441 H 0.30725 0.1884 0.91215 0.0
H442 H 0.28559 0.39238 0.61881 0.0
H443 H 0.16295 0.21333 0.75557 0.0
H444 H 0.29683 0.23497 0.86519 0.0
H445 H 0.11699 0.15821 0.75807 0.0
H446 H 0.3934 0.43891 0.68442 0.0
H447 H 0.26978 0.12757 0.91452 0.0
H448 H 0.21641 0.08629 0.89009 0.0
H449 H 0.43134 0.41023 0.73235 0.0
H450 H 0.16396 0.07817 0.84815 0.0
N451 N 0.2547 0.20098 0.83964 0.0
C452 C 0.28018 0.2087 0.86546 0.0
C453 C 0.26517 0.14796 0.89357 0.0
C454 C 0.23729 0.14091 0.86845 0.0
C455 C 0.28625 0.18226 0.89238 0.0
C456 C 0.23258 0.16844 0.84171 0.0
H457 H 0.1261 0.10523 0.7993 0.0
N458 N 0.19879 0.19227 0.79487 0.0
C459 C 0.14124 0.15937 0.77516 0.0
C460 C 0.20331 0.16394 0.81847 0.0
C461 C 0.16755 0.19078 0.77393 0.0
C462 C 0.14654 0.12948 0.79835 0.0
C463 C 0.17762 0.13169 0.82077 0.0
O464 O 0.20104 0.26614 0.79726 0.0
O465 O 0.26163 0.28149 0.75158 0.0
O466 O 0.31936 0.31415 0.77114 0.0
O467 O 0.29242 0.27673 0.81485 0.0
O468 O 0.20812 0.2659 0.75365 0.0
O469 O 0.2449 0.26599 0.83562 0.0
O470 O 0.35458 0.25498 0.73087 0.0
O471 O 0.29343 0.23845 0.78043 0.0
O472 O 0.23782 0.20275 0.76187 0.0
O473 O 0.26291 0.24056 0.71743 0.0
O474 O 0.34577 0.24725 0.7755 0.0
O475 O 0.30705 0.25113 0.69624 0.0
C476 C 0.23138 0.28648 0.73632 0.0
C477 C 0.18912 0.26704 0.85036 0.0
C478 C 0.15451 0.28856 0.88312 0.0
C479 C 0.17974 0.29538 0.8608 0.0
C480 C 0.13924 0.25288 0.89506 0.0
C481 C 0.17364 0.23175 0.8627 0.0
C482 C 0.14888 0.22478 0.88499 0.0
C483 C 0.31367 0.30654 0.80242 0.0
C484 C 0.21419 0.2748 0.82585 0.0
C485 C 0.18317 0.10331 0.84613 0.0
C486 C 0.21304 0.10791 0.86997 0.0
C487 C 0.32227 0.2286 0.7936 0.0
C488 C 0.36042 0.25206 0.67617 0.0
C489 C 0.3703 0.22369 0.66633 0.0
C490 C 0.38989 0.22985 0.63952 0.0
C491 C 0.39944 0.26502 0.62283 0.0
C492 C 0.37034 0.28685 0.65926 0.0
C493 C 0.38977 0.29322 0.63272 0.0
C494 C 0.24367 0.20989 0.7306 0.0
C495 C 0.3389 0.24449 0.70348 0.0
H496 H 0.19151 0.32267 0.85101 0.0
H497 H 0.12012 0.24666 0.91252 0.0
H498 H 0.18053 0.20967 0.85496 0.0
H499 H 0.137 0.19747 0.89445 0.0
H500 H 0.36221 0.19676 0.67926 0.0
H501 H 0.4149 0.27086 0.60244 0.0
H502 H 0.36297 0.30897 0.66647 0.0
H503 H 0.39741 0.32016 0.61976 0.0
Tb504 Tb 0.81505 0.21904 0.77057 0.0
C505 C 0.74147 0.3328 0.68501 0.0
C506 C 0.78993 0.3828 0.67162 0.0
C507 C 0.73585 0.37341 0.63314 0.0
C508 C 0.77577 0.35175 0.69296 0.0
C509 C 0.7207 0.34429 0.65558 0.0
C510 C 0.77044 0.3926 0.64113 0.0
C511 C 0.67008 0.30061 0.6746 0.0
N512 N 0.72745 0.30496 0.70742 0.0
C513 C 0.69171 0.28998 0.70333 0.0
C514 C 0.68481 0.32732 0.65029 0.0
Tb515 Tb 0.76621 0.28981 0.7529 0.0
N516 N 0.79358 0.34203 0.72303 0.0
C517 C 0.82305 0.36516 0.73479 0.0
C518 C 0.82227 0.40428 0.68234 0.0
C519 C 0.83833 0.39595 0.7144 0.0
H520 H 0.67981 0.26901 0.72151 0.0
H521 H 0.86243 0.41335 0.72354 0.0
H522 H 0.78119 0.41601 0.62424 0.0
H523 H 0.64211 0.28799 0.67114 0.0
H524 H 0.83551 0.36023 0.75963 0.0
H525 H 0.71633 0.09758 0.79667 0.0
H526 H 0.83405 0.42829 0.6667 0.0
H527 H 0.89678 0.24456 0.80791 0.0
H528 H 0.74406 0.15282 0.7628 0.0
H529 H 0.9322 0.2276 0.86094 0.0
H530 H 0.72049 0.38225 0.61019 0.0
H531 H 0.74412 0.07939 0.8532 0.0
H532 H 0.79574 0.09049 0.89757 0.0
H533 H 0.66796 0.33548 0.62807 0.0
H534 H 0.85471 0.12595 0.91513 0.0
N535 N 0.78702 0.16686 0.79992 0.0
C536 C 0.75677 0.14537 0.78731 0.0
C537 C 0.75651 0.10377 0.83841 0.0
C538 C 0.78866 0.12463 0.85042 0.0
C539 C 0.74082 0.1139 0.80649 0.0
C540 C 0.80356 0.15616 0.83016 0.0
H541 H 0.90609 0.17691 0.90142 0.0
N542 N 0.85058 0.20462 0.81864 0.0
C543 C 0.90525 0.21289 0.85541 0.0
C544 C 0.83653 0.17587 0.83996 0.0
C545 C 0.88514 0.22233 0.82533 0.0
C546 C 0.89038 0.18435 0.87824 0.0
C547 C 0.85584 0.165 0.87041 0.0
O548 O 0.86003 0.20842 0.75564 0.0
O549 O 0.80935 0.27011 0.74086 0.0
O550 O 0.7509 0.26229 0.71041 0.0
O551 O 0.77053 0.20906 0.731 0.0
O552 O 0.85983 0.26108 0.75408 0.0
O553 O 0.807 0.17973 0.74082 0.0
O554 O 0.75062 0.29107 0.79863 0.0
O555 O 0.77166 0.23848 0.78155 0.0
O556 O 0.8245 0.24678 0.81291 0.0
O557 O 0.81624 0.30271 0.7856 0.0
O558 O 0.72136 0.24478 0.76317 0.0
O559 O 0.74596 0.33359 0.75879 0.0
C560 C 0.84172 0.28377 0.73765 0.0
C561 C 0.85365 0.14902 0.74668 0.0
C562 C 0.8664 0.10047 0.72444 0.0
C563 C 0.85288 0.13185 0.72005 0.0
C564 C 0.87954 0.08603 0.75649 0.0
C565 C 0.8668 0.13407 0.77829 0.0
C566 C 0.87941 0.10259 0.78313 0.0
C567 C 0.75267 0.22944 0.70819 0.0
C568 C 0.84101 0.1827 0.74058 0.0
C569 C 0.84047 0.13461 0.89149 0.0
C570 C 0.8069 0.11442 0.88149 0.0
C571 C 0.73937 0.22286 0.78151 0.0
C572 C 0.70251 0.31963 0.79526 0.0
C573 C 0.69645 0.34676 0.81003 0.0
C574 C 0.66177 0.34662 0.81622 0.0
C575 C 0.63346 0.31892 0.80759 0.0
C576 C 0.67367 0.29225 0.7872 0.0
C577 C 0.63946 0.29199 0.79324 0.0
C578 C 0.83027 0.28182 0.8109 0.0
C579 C 0.73878 0.32016 0.78837 0.0
H580 H 0.84189 0.14328 0.69588 0.0
H581 H 0.8909 0.0625 0.76104 0.0
H582 H 0.86769 0.14682 0.79913 0.0
H583 H 0.88978 0.09132 0.80757 0.0
H584 H 0.71854 0.36799 0.8164 0.0
H585 H 0.60668 0.31764 0.81255 0.0
H586 H 0.67725 0.27082 0.7764 0.0
H587 H 0.6175 0.27064 0.78697 0.0
Tb588 Tb 0.76885 0.73326 0.7363 0.0
C589 C 0.87934 0.83969 0.81391 0.0
C590 C 0.89997 0.80537 0.86513 0.0
C591 C 0.93873 0.85964 0.84174 0.0
C592 C 0.87362 0.81034 0.83806 0.0
C593 C 0.91169 0.86516 0.81568 0.0
C594 C 0.93289 0.82973 0.86645 0.0
C595 C 0.88723 0.90072 0.76721 0.0
N596 N 0.85238 0.84404 0.78936 0.0
C597 C 0.85566 0.87466 0.76649 0.0
C598 C 0.91553 0.89579 0.7917 0.0
Tb599 Tb 0.8015 0.79959 0.7901 0.0
N600 N 0.84126 0.78793 0.83609 0.0
C601 C 0.83259 0.76163 0.86206 0.0
C602 C 0.89195 0.77686 0.89061 0.0
C603 C 0.85785 0.75525 0.8893 0.0
H604 H 0.83446 0.87913 0.7471 0.0
H605 H 0.85093 0.73366 0.90926 0.0
H606 H 0.95357 0.82621 0.88689 0.0
H607 H 0.88973 0.92454 0.74874 0.0
H608 H 0.80644 0.74483 0.86175 0.0
H609 H 0.73253 0.80648 0.61632 0.0
H610 H 0.91143 0.77203 0.91181 0.0
H611 H 0.72837 0.65565 0.77513 0.0
H612 H 0.773 0.79053 0.66583 0.0
H613 H 0.66889 0.61573 0.77116 0.0
H614 H 0.96389 0.87873 0.84341 0.0
H615 H 0.66954 0.77426 0.61041 0.0
H616 H 0.62144 0.72431 0.63288 0.0
H617 H 0.93993 0.91603 0.7922 0.0
H618 H 0.60402 0.67216 0.67518 0.0
N619 N 0.73334 0.75009 0.68889 0.0
C620 C 0.7457 0.77603 0.66388 0.0
C621 C 0.68722 0.76711 0.63237 0.0
C622 C 0.67528 0.73914 0.65709 0.0
C623 C 0.72277 0.78526 0.63558 0.0
C624 C 0.69941 0.73105 0.68519 0.0
H625 H 0.62174 0.63108 0.72666 0.0
N626 N 0.71477 0.69393 0.73393 0.0
C627 C 0.67433 0.63998 0.75348 0.0
C628 C 0.6897 0.70188 0.70869 0.0
C629 C 0.70805 0.6626 0.75556 0.0
C630 C 0.64775 0.64879 0.7284 0.0
C631 C 0.65547 0.67975 0.70521 0.0
O632 O 0.78358 0.68548 0.7334 0.0
O633 O 0.80604 0.74925 0.7782 0.0
O634 O 0.84458 0.80158 0.76207 0.0
O635 O 0.80997 0.7785 0.71709 0.0
O636 O 0.78903 0.69596 0.77764 0.0
O637 O 0.79593 0.73221 0.69706 0.0
O638 O 0.77876 0.84304 0.79167 0.0
O639 O 0.76322 0.78253 0.74878 0.0
O640 O 0.72799 0.7296 0.76817 0.0
O641 O 0.76556 0.75226 0.8119 0.0
O642 O 0.7818 0.83558 0.74712 0.0
O643 O 0.77715 0.79912 0.83165 0.0
C644 C 0.81016 0.71871 0.79399 0.0
C645 C 0.78844 0.67637 0.68028 0.0
C646 C 0.80754 0.64336 0.64462 0.0
C647 C 0.81562 0.66485 0.66944 0.0
C648 C 0.77166 0.63362 0.63108 0.0
C649 C 0.75304 0.66636 0.66625 0.0
C650 C 0.74477 0.64508 0.6418 0.0
C651 C 0.84037 0.79574 0.73146 0.0
C652 C 0.79748 0.69874 0.70623 0.0
C653 C 0.63059 0.68862 0.67818 0.0
C654 C 0.6405 0.71831 0.65411 0.0
C655 C 0.76033 0.81254 0.73142 0.0
C656 C 0.77605 0.85531 0.84398 0.0
C657 C 0.74725 0.86474 0.85419 0.0
C658 C 0.75337 0.89002 0.87541 0.0
C659 C 0.78882 0.9053 0.8865 0.0
C660 C 0.81107 0.87081 0.85547 0.0
C661 C 0.81735 0.89562 0.87667 0.0
C662 C 0.7351 0.7336 0.79944 0.0
C663 C 0.76902 0.83011 0.82063 0.0
H664 H 0.84303 0.67301 0.68009 0.0
H665 H 0.76421 0.61664 0.61246 0.0
H666 H 0.73182 0.67484 0.67425 0.0
H667 H 0.71732 0.63729 0.63119 0.0
H668 H 0.72017 0.85295 0.84507 0.0
H669 H 0.79451 0.92443 0.90316 0.0
H670 H 0.83349 0.86389 0.84792 0.0
H671 H 0.84447 0.90749 0.88549 0.0
Fe672 Fe 1.01608 0.07435 0.52012 0.0
O673 O 1.02742 0.02654 0.53291 0.0
Fe674 Fe 0.07382 0.01906 0.51878 0.0
Fe675 Fe 0.99507 0.98284 0.51914 0.0
O676 O 1.03038 0.02817 0.53228 0.0
O677 O 0.04155 0.97536 0.50482 0.0
O678 O 0.03849 0.97368 0.50546 0.0
Fe679 Fe 0.05352 0.9277 0.51852 0.0
C680 C 0.95466 0.02388 0.55237 0.0
O681 O 0.97385 0.05928 0.48484 0.0
O682 O 0.98424 1.01001 0.47315 0.0
O683 O 0.08934 0.9494 0.48547 0.0
O684 O 0.1155 1.00409 0.5014 0.0
O685 O 0.06427 0.04686 0.47265 0.0
O686 O 0.04987 0.09432 0.48442 0.0
O687 O 0.9661 0.93639 0.50072 0.0
O688 O 1.00913 0.91278 0.48586 0.0
C689 C 0.06152 0.07925 0.46537 0.0
O690 O 0.09657 0.94384 0.55282 0.0
O691 O 0.08377 0.99153 0.56467 0.0
O692 O 0.97973 0.05239 0.55265 0.0
O693 O 0.95344 0.99778 0.53665 0.0
C694 C 0.96717 0.03488 0.46715 0.0
C695 C 0.97652 0.91683 0.48376 0.0
C696 C 1.00826 0.92335 0.57322 0.0
O697 O 1.00506 0.95556 0.56548 0.0
O698 O 1.02034 0.90813 0.55463 0.0
C699 C 0.11438 0.97796 0.48575 0.0
O700 O 0.10285 0.06527 0.53744 0.0
O701 O 0.05998 0.08787 0.55379 0.0
C702 C 0.10299 0.9686 0.57003 0.0
C703 C 0.09244 0.08359 0.55554 0.0
Fe704 Fe 0.52349 0.93229 0.03751 0.0
O705 O 0.53283 0.98447 0.03589 0.0
Fe706 Fe 0.49108 0.0113 1.01046 0.0
Fe707 Fe 0.57533 0.01768 0.01769 0.0
O708 O 0.52842 0.98399 0.0345 0.0
O709 O 0.53332 0.04409 0.99156 0.0
O710 O 0.53784 0.04441 0.99266 0.0
Fe711 Fe 0.54262 0.09624 0.98955 0.0
C712 C 0.59978 0.95367 0.07015 0.0
O713 O 0.55992 0.93419 1.00599 0.0
O714 O 0.56999 0.99001 0.97946 0.0
O715 O 0.49788 0.09171 0.95488 0.0
O716 O 0.4576 0.04626 0.98116 0.0
O717 O 0.48081 0.98349 0.97184 0.0
O718 O 0.48319 0.9284 0.99848 0.0
O719 O 0.61371 0.05689 0.99165 0.0
O720 O 0.58027 0.09649 0.9601 0.0
C721 C 0.47342 0.94977 0.97324 0.0
O722 O 0.50761 0.09451 0.0228 0.0
O723 O 0.49862 0.03849 0.04899 0.0
O724 O 0.56714 0.93684 0.07331 0.0
O725 O 0.60839 0.98268 0.04837 0.0
C726 C 0.57208 0.95752 0.98247 0.0
C727 C 0.60799 0.08183 0.9665 0.0
C728 C 0.59155 0.08038 0.05369 0.0
O729 O 0.58386 0.04642 0.05618 0.0
O730 O 0.58432 0.10063 0.02683 0.0
C731 C 0.46546 0.07497 0.95903 0.0
O732 O 0.45239 0.97235 0.03597 0.0
O733 O 0.48471 0.93123 0.06607 0.0
C734 C 0.49673 0.07089 0.04675 0.0
C735 C 0.45713 0.946 0.05989 0.0
Fe736 Fe 1.02784 0.54903 1.00688 0.0
O737 O 0.99646 0.50439 0.99333 0.0
Fe738 Fe 0.10777 0.52083 0.03701 0.0
Fe739 Fe 0.94396 0.49361 0.99322 0.0
O740 O 0.05599 0.51395 0.03441 0.0
O741 O 0.05522 0.50937 0.03736 0.0
O742 O 0.99577 0.49977 0.99616 0.0
Fe743 Fe 1.02372 0.46455 0.02409 0.0
C744 C 0.96716 0.54515 0.04348 0.0
O745 O 0.99195 0.57961 0.97538 0.0
O746 O 0.94767 0.53635 0.95449 0.0
O747 O 0.05194 0.46912 0.98536 0.0
O748 O 0.10807 0.48333 1.00836 0.0
O749 O 0.11145 0.56064 0.99588 0.0
O750 O 0.05751 0.55833 0.96739 0.0
O751 O 0.94593 0.45352 0.9685 0.0
O752 O 0.98677 0.42361 1.00285 0.0
C753 C 0.09143 0.56916 0.96948 0.0
O754 O 0.05995 0.43427 0.05609 0.0
O755 O 0.10442 0.47825 0.07578 0.0
O756 O 0.99981 0.54382 0.04564 0.0
O757 O 0.94381 0.53122 0.02195 0.0
C758 C 0.96334 0.56959 0.95506 0.0
C759 C 0.9618 0.42668 0.97794 0.0
C760 C 0.95929 0.44576 0.06105 0.0
O761 O 0.93999 0.45425 0.03422 0.0
O762 O 0.99343 0.45536 0.06355 0.0
C763 C 0.08482 0.46871 0.98716 0.0
O764 O 0.10564 0.56051 0.06199 0.0
O765 O 0.06446 0.59011 0.02805 0.0
C766 C 0.08888 0.44488 0.07595 0.0
C767 C 0.08941 0.58708 0.0529 0.0
Fe768 Fe 0.52519 0.52391 0.96561 0.0
O769 O 0.55514 0.51777 1.0111 0.0
Fe770 Fe 0.44002 0.52046 1.00217 0.0
Fe771 Fe 0.6093 0.52159 0.02126 0.0
O772 O 0.49431 0.5271 1.00166 0.0
O773 O 0.48666 0.50552 1.01314 0.0
O774 O 0.55713 0.52441 0.01662 0.0
Fe775 Fe 0.52134 0.51466 0.0519 0.0
C776 C 0.58749 0.4937 0.95278 0.0
O777 O 0.56027 0.57232 0.95931 0.0
O778 O 0.613 0.57091 0.99146 0.0
O779 O 0.51311 0.56695 0.04559 0.0
O780 O 0.45313 0.55819 0.033 0.0
O781 O 0.44306 0.56063 0.96086 0.0
O782 O 0.49636 0.5569 0.97654 0.0
O783 O 0.61253 0.54326 0.06323 0.0
O784 O 0.56257 0.52831 0.08922 0.0
C785 C 0.4748 0.57139 0.95511 0.0
O786 O 0.4818 0.49979 0.08181 0.0
O787 O 0.43529 0.48182 0.04405 0.0
O788 O 0.55708 0.50226 0.94402 0.0
O789 O 0.60692 0.49914 0.97985 0.0
C790 C 0.59249 0.58648 0.96891 0.0
C791 C 0.59588 0.54289 0.08748 0.0
C792 C 0.55295 0.46243 0.0505 0.0
O793 O 0.55982 0.49136 0.02893 0.0
O794 O 0.52594 0.46162 0.06327 0.0
C795 C 0.48288 0.575 0.04627 0.0
O796 O 0.43074 0.48326 0.97112 0.0
O797 O 0.48612 0.47574 0.96512 0.0
C798 C 0.45104 0.48053 0.07382 0.0
C799 C 0.45148 0.46785 0.96036 0.0
Fe800 Fe 0.03213 0.47224 0.5219 0.0
O801 O 0.0565 0.51642 0.54041 0.0
Fe802 Fe 0.99975 0.50826 0.44195 0.0
Fe803 Fe 0.06339 0.51867 0.5873 0.0
O804 O 1.00595 0.50635 0.49008 0.0
O805 O 1.0064 0.51064 0.4889 0.0
O806 O 0.05697 0.52061 0.53923 0.0
Fe807 Fe 1.03113 0.55487 0.50726 0.0
C808 C 0.997 0.45757 0.5838 0.0
O809 O 0.06533 0.44297 0.55859 0.0
O810 O 0.09854 0.48524 0.58915 0.0
O811 O 0.07106 0.56622 0.47666 0.0
O812 O 0.03737 0.55426 0.43012 0.0
O813 O 0.03834 0.47908 0.44342 0.0
O814 O 0.07145 0.48172 0.49208 0.0
O815 O 0.09688 0.56715 0.57451 0.0
O816 O 0.06173 0.59633 0.53274 0.0
C817 C 0.06713 0.47642 0.46253 0.0
O818 O 0.99829 0.58419 0.47039 0.0
O819 O 0.96477 0.54185 0.44001 0.0
O820 O 0.99231 0.4601 0.55258 0.0
O821 O 1.02608 0.47257 0.59896 0.0
C822 C 0.09211 0.45394 0.58043 0.0
C823 C 0.08858 0.59575 0.55623 0.0
C824 C 0.996 0.55119 0.56683 0.0
O825 O 1.02461 0.54778 0.58603 0.0
O826 O 0.99172 0.54629 0.53712 0.0
C827 C 0.06675 0.56841 0.44546 0.0
O828 O 0.96627 0.45964 0.45474 0.0
O829 O 1.00193 0.43075 0.49626 0.0
C830 C 0.97138 0.57318 0.44869 0.0
C831 C 0.97498 0.4311 0.47284 0.0
Fe832 Fe 0.52377 0.9648 0.52441 0.0
O833 O 0.55078 1.00772 0.54348 0.0
Fe834 Fe 0.49673 1.00421 0.44364 0.0
Fe835 Fe 0.55727 1.01022 0.59018 0.0
O836 O 0.50162 1.00181 0.49194 0.0
O837 O 0.50239 1.00642 0.49062 0.0
O838 O 0.55191 0.01201 0.54205 0.0
Fe839 Fe 0.53117 0.04934 0.50889 0.0
C840 C 0.48605 0.9536 0.58523 0.0
O841 O 0.55335 0.9322 0.56146 0.0
O842 O 0.58808 0.97251 0.59328 0.0
O843 O 0.57147 0.05544 0.47941 0.0
O844 O 0.53735 0.04836 0.43223 0.0
O845 O 0.53214 0.97149 0.44624 0.0
O846 O 0.56373 0.97065 0.49586 0.0
O847 O 0.59544 0.05512 0.57765 0.0
O848 O 0.56625 0.08863 0.53406 0.0
C849 C 0.55927 0.96522 0.46632 0.0
O850 O 0.50197 0.08197 0.47106 0.0
O851 O 0.46504 0.04074 0.4412 0.0
O852 O 0.48299 0.95563 0.55403 0.0
O853 O 0.51499 0.96783 0.60131 0.0
C854 C 0.58028 0.94169 0.58364 0.0
C855 C 0.59239 0.08466 0.55773 0.0
C856 C 0.49728 0.05288 0.56705 0.0
O857 O 0.52372 0.04498 0.58728 0.0
O858 O 0.49206 0.04685 0.53763 0.0
C859 C 0.56738 0.06013 0.44805 0.0
O860 O 0.45996 0.95753 0.45552 0.0
O861 O 0.49159 0.92534 0.49804 0.0
C862 C 0.47393 0.07209 0.44993 0.0
C863 C 0.46577 0.92795 0.47391 0.0
H864 H 0.17718 0.15007 0.29765 0.0
H865 H 0.0769 0.15213 0.44871 0.0
H866 H 0.19425 0.24026 0.34748 0.0
H867 H 0.08079 0.05586 0.41484 0.0
H868 H 0.10964 0.18723 0.40398 0.0
H869 H 0.13203 0.1178 0.33298 0.0
C870 C 0.17117 0.16328 0.31564 0.0
C871 C 0.18986 0.19775 0.31974 0.0
C872 C 0.10301 0.15843 0.40619 0.0
C873 C 0.1382 0.16105 0.3604 0.0
C874 C 0.08417 0.13837 0.43162 0.0
C875 C 0.07659 0.10096 0.43585 0.0
C876 C 0.11415 0.14098 0.38475 0.0
C877 C 0.08657 0.08462 0.41283 0.0
C878 C 0.14546 0.14478 0.33596 0.0
C879 C 0.18095 0.21348 0.34376 0.0
N880 N 0.10511 0.10473 0.38843 0.0
N881 N 0.15589 0.19495 0.36328 0.0
H882 H 0.81904 1.00265 0.29743 0.0
H883 H 0.9104 0.06655 0.46187 0.0
H884 H 0.76877 0.05372 0.35352 0.0
H885 H 0.9489 0.99277 0.41947 0.0
H886 H 0.85454 0.0557 0.42553 0.0
H887 H 0.85983 0.98731 0.34638 0.0
C888 C 0.81534 1.00892 0.32053 0.0
C889 C 0.79133 0.03033 0.32141 0.0
C890 C 0.87508 0.04165 0.42431 0.0
C891 C 0.83875 0.0146 0.37681 0.0
C892 C 0.90726 0.04836 0.44466 0.0
C893 C 0.93463 0.0311 0.44325 0.0
C894 C 0.87036 0.01789 0.40201 0.0
C895 C 0.92867 1.00706 0.42104 0.0
C896 C 0.83909 1.00077 0.34838 0.0
C897 C 0.78752 0.03775 0.35188 0.0
N898 N 0.89731 1.00145 0.40104 0.0
N899 N 0.81194 0.03106 0.3782 0.0
H900 H 0.79909 0.85271 0.33534 0.0
H901 H 0.98655 0.87041 0.44697 0.0
H902 H 0.89259 0.82987 0.3087 0.0
H903 H 0.90827 0.92743 0.45943 0.0
H904 H 0.94917 0.85152 0.39859 0.0
H905 H 0.83611 0.87896 0.3816 0.0
C906 C 0.82765 0.85441 0.33857 0.0
C907 C 0.84307 0.84013 0.31756 0.0
C908 C 0.94007 0.86815 0.41185 0.0
C909 C 0.8851 0.86835 0.37115 0.0
C910 C 0.96131 0.87878 0.43981 0.0
C911 C 0.95078 0.90081 0.45749 0.0
C912 C 0.90764 0.87919 0.40129 0.0
C913 C 0.91752 0.91038 0.44676 0.0
C914 C 0.84864 0.86904 0.3651 0.0
C915 C 0.87988 0.84185 0.32336 0.0
N916 N 0.89711 0.89954 0.4193 0.0
N917 N 0.89955 0.85526 0.34981 0.0
H918 H 0.21018 0.98284 0.3146 0.0
H919 H 0.15692 0.93059 0.49661 0.0
H920 H 0.19094 0.87622 0.37077 0.0
H921 H 0.13572 0.02561 0.43171 0.0
H922 H 0.18954 0.91926 0.4561 0.0
H923 H 0.19983 1.0058 0.36174 0.0
C924 C 0.20402 0.9642 0.33673 0.0
C925 C 0.20108 0.92729 0.33827 0.0
C926 C 0.17856 0.9431 0.45096 0.0
C927 C 0.19048 0.95382 0.39264 0.0
C928 C 0.16034 0.94977 0.47422 0.0
C929 C 0.14368 0.97898 0.46731 0.0
C930 C 0.17967 0.96554 0.42035 0.0
C931 C 0.14844 1.0029 0.43788 0.0
C932 C 0.19846 0.97748 0.3637 0.0
C933 C 0.19405 0.90483 0.36815 0.0
N934 N 0.16549 0.99528 0.41505 0.0
N935 N 0.18886 0.91842 0.39393 0.0
H936 H 0.30835 0.95751 0.67057 0.0
H937 H 0.12576 0.01924 0.60989 0.0
H938 H 0.26626 0.02187 0.72042 0.0
H939 H 0.16058 0.93792 0.57463 0.0
H940 H 0.18525 0.03574 0.63936 0.0
H941 H 0.26606 0.97032 0.62203 0.0
C942 C 0.29169 0.97621 0.67054 0.0
C943 C 0.28962 0.98755 0.69977 0.0
C944 C 0.17991 0.01444 0.62501 0.0
C945 C 0.24048 1.00101 0.6453 0.0
C946 C 0.14583 1.00467 0.60849 0.0
C947 C 0.13788 0.97655 0.59032 0.0
C948 C 0.20629 0.99594 0.62345 0.0
C949 C 0.16519 0.95916 0.58893 0.0
C950 C 0.26695 0.98283 0.64312 0.0
C951 C 0.26791 0.01188 0.6985 0.0
N952 N 0.19808 0.96898 0.60548 0.0
N953 N 0.24299 0.01669 0.67211 0.0
H954 H 0.19394 0.14654 0.74215 0.0
H955 H 0.16523 0.10873 0.55769 0.0
H956 H 0.25202 0.21544 0.66604 0.0
H957 H 0.07815 0.08954 0.61514 0.0
H958 H 0.20583 0.13381 0.60308 0.0
H959 H 0.15913 0.11101 0.70083 0.0
C960 C 0.19942 0.15429 0.71697 0.0
C961 C 0.22515 0.1849 0.70758 0.0
C962 C 0.17781 0.12384 0.60563 0.0
C963 C 0.18691 0.1434 0.66071 0.0
C964 C 0.15473 0.10968 0.57981 0.0
C965 C 0.11818 0.09797 0.58234 0.0
C966 C 0.16431 0.12524 0.63438 0.0
C967 C 0.106 0.09921 0.61181 0.0
C968 C 0.17981 0.13383 0.6935 0.0
C969 C 0.23216 0.19257 0.67467 0.0
N970 N 0.12897 0.1126 0.63666 0.0
N971 N 0.21314 0.17208 0.6525 0.0
H972 H 0.87709 0.1344 0.66158 0.0
H973 H 0.93584 0.9782 0.60821 0.0
H974 H 0.86204 0.02934 0.72095 0.0
H975 H 0.91057 0.06987 0.54046 0.0
H976 H 0.90425 0.99225 0.64865 0.0
H977 H 0.8856 0.10878 0.61618 0.0
C978 C 0.87484 0.10582 0.66511 0.0
C979 C 0.86888 0.08423 0.6956 0.0
C980 C 0.90458 1.00858 0.62453 0.0
C981 C 0.88006 0.05464 0.64327 0.0
C982 C 0.92222 1.00029 0.60137 0.0
C983 C 0.92557 0.02291 0.57107 0.0
C984 C 0.89093 0.03996 0.61727 0.0
C985 C 0.90838 0.05178 0.5636 0.0
C986 C 0.87997 0.09116 0.63899 0.0
C987 C 0.86741 0.04738 0.69834 0.0
N988 N 0.89239 0.05986 0.58673 0.0
N989 N 0.87351 0.03385 0.67271 0.0
H990 H 0.84403 0.78529 0.66957 0.0
H991 H 0.997 0.94628 0.62746 0.0
H992 H 0.90496 0.8396 0.74778 0.0
H993 H 0.98216 0.85148 0.5843 0.0
H994 H 0.96112 0.9114 0.67043 0.0
H995 H 0.89151 0.81261 0.63561 0.0
C996 C 0.86731 0.80292 0.67973 0.0
C997 C 0.87002 0.81077 0.71146 0.0
C998 C 0.96643 0.8982 0.65189 0.0
C999 C 0.92424 0.84242 0.67235 0.0
C1000 C 0.98673 0.91802 0.62738 0.0
C1001 C 0.9923 0.90174 0.6022 0.0
C1002 C 0.95095 0.86223 0.65061 0.0
C1003 C 0.97849 0.86506 0.60324 0.0
C1004 C 0.89449 0.81833 0.66032 0.0
C1005 C 0.90118 0.8336 0.7232 0.0
N1006 N 0.95777 0.84665 0.62668 0.0
N1007 N 0.92687 0.84924 0.70339 0.0
H1008 H 0.39865 0.17545 0.16331 0.0
H1009 H 0.46045 0.02555 0.09452 0.0
H1010 H 0.34943 0.06335 0.17969 0.0
H1011 H 0.48901 0.13741 0.05379 0.0
H1012 H 0.42506 0.04015 0.13069 0.0
H1013 H 0.43576 0.16331 0.12654 0.0
C1014 C 0.39537 0.14838 0.15906 0.0
C1015 C 0.37097 0.12037 0.17505 0.0
C1016 C 0.43912 0.06158 0.11393 0.0
C1017 C 0.41397 0.10626 0.13348 0.0
C1018 C 0.45961 0.05329 0.09332 0.0
C1019 C 0.47781 0.08027 0.07087 0.0
C1020 C 0.4368 0.09718 0.11247 0.0
C1021 C 0.47541 0.1157 0.0706 0.0
C1022 C 0.41677 0.14146 0.13821 0.0
C1023 C 0.36835 0.08577 0.16871 0.0
N1024 N 0.45528 0.12314 0.09106 0.0
N1025 N 0.38964 0.07974 0.14869 0.0
H1026 H 0.87753 0.31421 0.2438 0.0
H1027 H 0.88738 0.42259 0.06024 0.0
H1028 H 0.79313 0.30454 0.16322 0.0
H1029 H 0.98484 0.41496 0.1253 0.0
H1030 H 0.85359 0.38361 0.10148 0.0
H1031 H 0.91787 0.35348 0.20512 0.0
C1032 C 0.86762 0.31986 0.21798 0.0
C1033 C 0.83197 0.30518 0.20662 0.0
C1034 C 0.88235 0.39019 0.10706 0.0
C1035 C 0.87762 0.35117 0.16246 0.0
C1036 C 0.90204 0.41287 0.08328 0.0
C1037 C 0.93958 0.4225 0.08869 0.0
C1038 C 0.89961 0.37644 0.13741 0.0
C1039 C 0.95611 0.40851 0.11967 0.0
C1040 C 0.89062 0.34246 0.19594 0.0
C1041 C 0.8204 0.31459 0.1731 0.0
N1042 N 0.93608 0.38627 0.14282 0.0
N1043 N 0.84291 0.3367 0.15252 0.0
H1044 H 0.68016 0.77628 0.18984 0.0
H1045 H 0.66553 0.97854 0.10783 0.0
H1046 H 0.76005 0.86481 0.21927 0.0
H1047 H 0.59667 0.88275 0.07981 0.0
H1048 H 0.7033 0.94091 0.14628 0.0
H1049 H 0.65218 0.81731 0.14781 0.0
C1050 C 0.69224 0.80449 0.18707 0.0
C1051 C 0.72321 0.8167 0.20769 0.0
C1052 C 0.68008 0.92829 0.13141 0.0
C1053 C 0.68994 0.86521 0.15949 0.0
C1054 C 0.65862 0.94984 0.10923 0.0
C1055 C 0.62749 0.934 0.09042 0.0
C1056 C 0.67045 0.89063 0.13474 0.0
C1057 C 0.61998 0.89649 0.09381 0.0
C1058 C 0.67606 0.82817 0.16299 0.0
C1059 C 0.73685 0.85394 0.20334 0.0
N1060 N 0.64087 0.87651 0.11531 0.0
N1061 N 0.7201 0.87684 0.17989 0.0
H1062 H 0.19298 0.66056 0.22515 0.0
H1063 H 0.1167 0.65938 0.03837 0.0
H1064 H 0.20145 0.7589 0.1558 0.0
H1065 H 0.08458 0.57462 0.11733 0.0
H1066 H 0.14487 0.69861 0.07919 0.0
H1067 H 0.15149 0.63007 0.18477 0.0
C1068 C 0.18585 0.67582 0.20139 0.0
C1069 C 0.20075 0.71225 0.19374 0.0
C1070 C 0.13088 0.67169 0.08743 0.0
C1071 C 0.15322 0.6773 0.14689 0.0
C1072 C 0.1147 0.64948 0.0642 0.0
C1073 C 0.09872 0.61383 0.07477 0.0
C1074 C 0.13101 0.65773 0.12113 0.0
C1075 C 0.09703 0.60192 0.10836 0.0
C1076 C 0.16194 0.65842 0.17829 0.0
C1077 C 0.19038 0.73074 0.1626 0.0
N1078 N 0.11335 0.62364 0.13032 0.0
N1079 N 0.16756 0.71291 0.14 0.0
H1080 H 0.3813 0.83575 0.8111 0.0
H1081 H 0.414 0.97004 0.93671 0.0
H1082 H 0.29268 0.84889 0.854 0.0
H1083 H 0.48057 0.8934 0.94739 0.0
H1084 H 0.37326 0.93944 0.89451 0.0
H1085 H 0.42228 0.87043 0.8496 0.0
C1086 C 0.3703 0.84634 0.82815 0.0
C1087 C 0.33327 0.83963 0.82892 0.0
C1088 C 0.39698 0.92964 0.90599 0.0
C1089 C 0.3803 0.87988 0.87275 0.0
C1090 C 0.42031 0.94716 0.92978 0.0
C1091 C 0.45063 0.93416 0.94549 0.0
C1092 C 0.40471 0.89967 0.89721 0.0
C1093 C 0.4574 0.90417 0.9359 0.0
C1094 C 0.39381 0.86607 0.85018 0.0
C1095 C 0.32091 0.85377 0.85213 0.0
N1096 N 0.43478 0.88809 0.91218 0.0
N1097 N 0.34433 0.87348 0.87297 0.0
H1098 H 0.08724 0.29519 0.88879 0.0
H1099 H 0.15273 0.46493 0.97959 0.0
H1100 H 0.19744 0.34957 0.90254 0.0
H1101 H 0.04202 0.42247 0.94813 0.0
H1102 H 0.16986 0.42396 0.95087 0.0
H1103 H 0.07036 0.34195 0.91012 0.0
C1104 C 0.10792 0.31702 0.89628 0.0
C1105 C 0.14387 0.31826 0.89406 0.0
C1106 C 0.14184 0.42386 0.94997 0.0
C1107 C 0.12468 0.37214 0.91862 0.0
C1108 C 0.132 0.44731 0.96637 0.0
C1109 C 0.09582 0.4472 0.96648 0.0
C1110 C 0.11536 0.39972 0.93379 0.0
C1111 C 0.07024 0.42366 0.94881 0.0
C1112 C 0.09823 0.34385 0.9083 0.0
C1113 C 0.16941 0.34756 0.90368 0.0
N1114 N 0.08048 0.40071 0.93352 0.0
N1115 N 0.15938 0.37312 0.91582 0.0
H1116 H 0.67484 0.17795 0.77883 0.0
H1117 H 0.68069 0.11084 0.97356 0.0
H1118 H 0.76738 0.21023 0.84694 0.0
H1119 H 0.59088 0.0817 0.90165 0.0
H1120 H 0.7162 0.14174 0.92844 0.0
H1121 H 0.64645 0.13791 0.82406 0.0
C1122 C 0.68928 0.1763 0.80337 0.0
C1123 C 0.72369 0.19691 0.80902 0.0
C1124 C 0.68889 0.12805 0.92261 0.0
C1125 C 0.69109 0.15151 0.86146 0.0
C1126 C 0.6688 0.11013 0.94834 0.0
C1127 C 0.63284 0.0937 0.94125 0.0
C1128 C 0.67276 0.12941 0.88974 0.0
C1129 C 0.6185 0.09411 0.90817 0.0
C1130 C 0.67312 0.1534 0.82927 0.0
C1131 C 0.74106 0.1942 0.84142 0.0
N1132 N 0.6383 0.1118 0.88382 0.0
N1133 N 0.72455 0.172 0.86646 0.0
H1134 H 0.79226 0.66651 0.84419 0.0
H1135 H 0.98821 0.64282 0.93145 0.0
H1136 H 0.88449 0.74005 0.80908 0.0
H1137 H 0.89373 0.55907 0.92754 0.0
H1138 H 0.95341 0.68454 0.89501 0.0
H1139 H 0.83117 0.63426 0.88459 0.0
C1140 C 0.82085 0.67654 0.84559 0.0
C1141 C 0.83484 0.70661 0.82347 0.0
C1142 C 0.94052 0.65697 0.90221 0.0
C1143 C 0.88047 0.66837 0.86959 0.0
C1144 C 0.96037 0.63308 0.92309 0.0
C1145 C 0.9443 0.59688 0.93269 0.0
C1146 C 0.90404 0.6449 0.89146 0.0
C1147 C 0.9079 0.58628 0.92088 0.0
C1148 C 0.8432 0.65775 0.86853 0.0
C1149 C 0.87237 0.71756 0.82609 0.0
N1150 N 0.88936 0.6099 0.90139 0.0
N1151 N 0.89388 0.6984 0.84858 0.0
H1152 H 0.26379 0.3582 0.19202 0.0
H1153 H 0.0664 0.37096 0.10019 0.0
H1154 H 0.17408 0.27709 0.22245 0.0
H1155 H 0.15795 0.45799 0.10456 0.0
H1156 H 0.10269 0.33132 0.13787 0.0
H1157 H 0.22361 0.38896 0.15194 0.0
C1158 C 0.2355 0.34645 0.18988 0.0
C1159 C 0.22268 0.31454 0.21046 0.0
C1160 C 0.11457 0.35917 0.13051 0.0
C1161 C 0.17528 0.3509 0.16439 0.0
C1162 C 0.09385 0.38188 0.10888 0.0
C1163 C 0.10861 0.4184 0.09897 0.0
C1164 C 0.15059 0.37281 0.14181 0.0
C1165 C 0.14461 0.43049 0.11131 0.0
C1166 C 0.21235 0.36428 0.167 0.0
C1167 C 0.18541 0.30116 0.20669 0.0
N1168 N 0.16392 0.40805 0.13155 0.0
N1169 N 0.16302 0.3194 0.18421 0.0
H1170 H 0.24828 0.72381 0.8588 0.0
H1171 H 0.06346 0.59063 0.90422 0.0
H1172 H 0.16212 0.69312 0.78433 0.0
H1173 H 0.16076 0.6062 0.97119 0.0
H1174 H 0.09519 0.63238 0.86079 0.0
H1175 H 0.21273 0.68634 0.90101 0.0
C1176 C 0.22151 0.7098 0.85137 0.0
C1177 C 0.20784 0.71257 0.81795 0.0
C1178 C 0.10949 0.62657 0.88505 0.0
C1179 C 0.1669 0.66822 0.86644 0.0
C1180 C 0.09134 0.60266 0.90992 0.0
C1181 C 0.10924 0.59431 0.94171 0.0
C1182 C 0.14578 0.64279 0.89195 0.0
C1183 C 0.14552 0.61119 0.94728 0.0
C1184 C 0.20123 0.68805 0.8755 0.0
C1185 C 0.17336 0.69256 0.80984 0.0
N1186 N 0.16228 0.63438 0.92296 0.0
N1187 N 0.15408 0.67145 0.83377 0.0
H1188 H 0.37031 0.24677 0.84482 0.0
H1189 H 0.39764 0.04773 0.92641 0.0
H1190 H 0.30169 0.15455 0.81009 0.0
H1191 H 0.46861 0.14615 0.94556 0.0
H1192 H 0.35687 0.0831 0.88941 0.0
H1193 H 0.40012 0.20778 0.88773 0.0
C1194 C 0.36078 0.21815 0.84685 0.0
C1195 C 0.33256 0.20416 0.82432 0.0
C1196 C 0.38127 0.09681 0.90199 0.0
C1197 C 0.36837 0.15836 0.87308 0.0
C1198 C 0.40448 0.07658 0.92331 0.0
C1199 C 0.437 0.09379 0.93918 0.0
C1200 C 0.39034 0.13454 0.89685 0.0
C1201 C 0.44427 0.1314 0.93379 0.0
C1202 C 0.37817 0.19569 0.87125 0.0
C1203 C 0.32249 0.16662 0.82754 0.0
N1204 N 0.42148 0.15013 0.91337 0.0
N1205 N 0.34043 0.14507 0.85126 0.0
H1206 H 0.87783 0.34474 0.80212 0.0
H1207 H 0.93177 0.3551 0.99299 0.0
H1208 H 0.84156 0.25704 0.87725 0.0
H1209 H 0.96827 0.43744 0.91384 0.0
H1210 H 0.90461 0.31497 0.95273 0.0
H1211 H 0.91661 0.37553 0.84387 0.0
C1212 C 0.87778 0.33213 0.82755 0.0
C1213 C 0.85563 0.29888 0.83636 0.0
C1214 C 0.91918 0.34159 0.94431 0.0
C1215 C 0.9005 0.33389 0.88473 0.0
C1216 C 0.93484 0.36429 0.96726 0.0
C1217 C 0.95205 0.39946 0.95647 0.0
C1218 C 0.92095 0.35445 0.91061 0.0
C1219 C 0.95502 0.41048 0.92299 0.0
C1220 C 0.90028 0.34955 0.85147 0.0
C1221 C 0.85791 0.28299 0.86959 0.0
N1222 N 0.93941 0.38821 0.90129 0.0
N1223 N 0.87958 0.30091 0.89275 0.0
H1224 H 0.74627 0.95726 0.8791 0.0
H1225 H 0.57549 0.89014 0.97528 0.0
H1226 H 0.69176 0.84695 0.8966 0.0
H1227 H 0.61791 1.00131 0.94074 0.0
H1228 H 0.61647 0.87374 0.94539 0.0
H1229 H 0.69888 0.97386 0.90066 0.0
C1230 C 0.72427 0.93651 0.88743 0.0
C1231 C 0.7232 0.90059 0.88625 0.0
C1232 C 0.61657 0.90171 0.94405 0.0
C1233 C 0.66862 0.91948 0.91107 0.0
C1234 C 0.59312 0.91114 0.96112 0.0
C1235 C 0.59326 0.94722 0.96075 0.0
C1236 C 0.64079 0.9285 0.92671 0.0
C1237 C 0.61673 0.97316 0.9418 0.0
C1238 C 0.69708 0.94604 0.89958 0.0
C1239 C 0.69367 0.87496 0.89692 0.0
N1240 N 0.63976 0.9633 0.9259 0.0
N1241 N 0.66779 0.88484 0.90918 0.0
H1242 H 0.88964 0.65569 0.17113 0.0
H1243 H 1.00926 0.60395 0.0659 0.0
H1244 H 0.92561 0.73114 0.08669 0.0
H1245 H 0.9024 0.53989 0.06467 0.0
H1246 H 0.99097 0.64665 0.09182 0.0
H1247 H 0.90424 0.60833 0.14855 0.0
C1248 C 0.90028 0.66258 0.14788 0.0
C1249 C 0.90662 0.69814 0.13119 0.0
C1250 C 0.97178 0.62294 0.08626 0.0
C1251 C 0.92473 0.64391 0.10625 0.0
C1252 C 0.98215 0.59844 0.07168 0.0
C1253 C 0.95726 0.56829 0.06305 0.0
C1254 C 0.9366 0.6168 0.09314 0.0
C1255 C 0.92235 0.56285 0.07084 0.0
C1256 C 0.90882 0.63541 0.13523 0.0
C1257 C 0.92123 0.7048 0.10136 0.0
N1258 N 0.91301 0.58685 0.08563 0.0
N1259 N 0.93027 0.67815 0.0902 0.0
H1260 H 0.36965 0.82121 0.23126 0.0
H1261 H 0.38377 0.92473 0.0463 0.0
H1262 H 0.28272 0.80674 0.15349 0.0
H1263 H 0.46965 0.9315 0.12593 0.0
H1264 H 0.34316 0.88829 0.08555 0.0
H1265 H 0.40396 0.86744 0.19353 0.0
C1266 C 0.35759 0.82841 0.20629 0.0
C1267 C 0.32294 0.81124 0.19571 0.0
C1268 C 0.37079 0.89826 0.09444 0.0
C1269 C 0.36244 0.86328 0.15175 0.0
C1270 C 0.39382 0.91933 0.07211 0.0
C1271 C 0.43012 0.93098 0.08291 0.0
C1272 C 0.38428 0.88905 0.12767 0.0
C1273 C 0.44191 0.92284 0.11653 0.0
C1274 C 0.37721 0.85463 0.18463 0.0
C1275 C 0.30908 0.82021 0.16271 0.0
N1276 N 0.41923 0.90228 0.13754 0.0
N1277 N 0.3288 0.84573 0.14186 0.0
H1278 H 0.73093 0.14079 0.2287 0.0
H1279 H 0.59882 0.14983 0.06 0.0
H1280 H 0.70063 0.237 0.17467 0.0
H1281 H 0.62878 0.05201 0.11173 0.0
H1282 H 0.63353 0.18088 0.10345 0.0
H1283 H 0.69218 0.10694 0.18796 0.0
C1284 C 0.71637 0.15474 0.20792 0.0
C1285 C 0.71961 0.19172 0.20451 0.0
C1286 C 0.63255 0.15262 0.1055 0.0
C1287 C 0.6743 0.15331 0.15827 0.0
C1288 C 0.61269 0.13473 0.08056 0.0
C1289 C 0.61102 0.09812 0.08187 0.0
C1290 C 0.65127 0.13408 0.13227 0.0
C1291 C 0.62928 0.08018 0.10954 0.0
C1292 C 0.69392 0.13543 0.18493 0.0
C1293 C 0.6989 0.20851 0.17818 0.0
N1294 N 0.64884 0.09838 0.13352 0.0
N1295 N 0.67733 0.18924 0.15596 0.0
H1296 H 0.66134 0.71559 0.79044 0.0
H1297 H 0.65873 0.62893 0.98013 0.0
H1298 H 0.75324 0.70678 0.86267 0.0
H1299 H 0.56383 0.61888 0.90941 0.0
H1300 H 0.69109 0.67039 0.93845 0.0
H1301 H 0.62273 0.68826 0.83402 0.0
C1302 C 0.67331 0.70788 0.81533 0.0
C1303 C 0.71049 0.71403 0.82318 0.0
C1304 C 0.66303 0.65946 0.93213 0.0
C1305 C 0.66717 0.68386 0.87269 0.0
C1306 C 0.64446 0.63601 0.95609 0.0
C1307 C 0.60882 0.61949 0.94806 0.0
C1308 C 0.64598 0.66612 0.89983 0.0
C1309 C 0.59155 0.63035 0.91657 0.0
C1310 C 0.65143 0.69274 0.84016 0.0
C1311 C 0.72482 0.70361 0.85568 0.0
N1312 N 0.61053 0.65236 0.8933 0.0
N1313 N 0.70323 0.68921 0.87913 0.0
H1314 H 0.46257 0.76356 0.83245 0.0
H1315 H 0.52626 0.62344 0.97855 0.0
H1316 H 0.4569 0.76172 0.93484 0.0
H1317 H 0.45145 0.60137 0.89307 0.0
H1318 H 0.53938 0.68667 0.95404 0.0
H1319 H 0.50121 0.72036 0.84868 0.0
C1320 C 0.47061 0.75539 0.85836 0.0
C1321 C 0.45356 0.76331 0.88228 0.0
C1322 C 0.52129 0.66768 0.94015 0.0
C1323 C 0.49932 0.71635 0.90067 0.0
C1324 C 0.51345 0.63179 0.95414 0.0
C1325 C 0.48708 0.60761 0.93792 0.0
C1326 C 0.50297 0.67912 0.90969 0.0
C1327 C 0.47134 0.61952 0.90648 0.0
C1328 C 0.49295 0.73101 0.86748 0.0
C1329 C 0.46739 0.75455 0.91532 0.0
N1330 N 0.47922 0.6547 0.89347 0.0
N1331 N 0.4886 0.73034 0.92366 0.0
H1332 H 0.30891 0.29903 0.86809 0.0
H1333 H 0.4762 0.45212 0.90862 0.0
H1334 H 0.36442 0.36914 0.79097 0.0
H1335 H 0.38637 0.42219 0.96384 0.0
H1336 H 0.44305 0.41295 0.86959 0.0
H1337 H 0.3438 0.33611 0.90729 0.0
C1338 C 0.32861 0.322 0.85924 0.0
C1339 C 0.33416 0.3303 0.82597 0.0
C1340 C 0.43082 0.41482 0.89042 0.0
C1341 C 0.3747 0.37281 0.87138 0.0
C1342 C 0.44981 0.43679 0.91291 0.0
C1343 C 0.43404 0.44035 0.93961 0.0
C1344 C 0.39616 0.39568 0.89508 0.0
C1345 C 0.39954 0.42027 0.94362 0.0
C1346 C 0.34851 0.3432 0.8818 0.0
C1347 C 0.3599 0.36092 0.81636 0.0
N1348 N 0.38184 0.39869 0.92171 0.0
N1349 N 0.37949 0.38088 0.839 0.0
H1350 H 0.60638 0.38157 0.7999 0.0
H1351 H 0.65114 0.47184 0.96161 0.0
H1352 H 0.70031 0.3743 0.86996 0.0
H1353 H 0.55504 0.47478 0.8933 0.0
H1354 H 0.67207 0.44067 0.92609 0.0
H1355 H 0.59018 0.42062 0.83113 0.0
C1356 C 0.62374 0.3884 0.82179 0.0
C1357 C 0.65456 0.37428 0.83254 0.0
C1358 C 0.64649 0.44828 0.91879 0.0
C1359 C 0.63609 0.4191 0.86854 0.0
C1360 C 0.63442 0.4661 0.9391 0.0
C1361 C 0.60107 0.4759 0.93064 0.0
C1362 C 0.62514 0.44005 0.8897 0.0
C1363 C 0.58083 0.46773 0.90101 0.0
C1364 C 0.61448 0.41075 0.8396 0.0
C1365 C 0.67638 0.38461 0.86072 0.0
N1366 N 0.59311 0.45019 0.88174 0.0
N1367 N 0.66654 0.40611 0.87793 0.0
H1368 H 0.7582 0.43656 0.15031 0.0
H1369 H 0.54743 0.41249 0.10585 0.0
H1370 H 0.68166 0.38149 0.21693 0.0
H1371 H 0.62194 0.46933 0.03807 0.0
H1372 H 0.5963 0.39232 0.14336 0.0
H1373 H 0.70887 0.44277 0.10628 0.0
C1374 C 0.73106 0.42584 0.15567 0.0
C1375 C 0.72402 0.40871 0.18736 0.0
C1376 C 0.60198 0.40903 0.12015 0.0
C1377 C 0.66768 0.41514 0.13718 0.0
C1378 C 0.57403 0.42045 0.09862 0.0
C1379 C 0.58081 0.44387 0.06926 0.0
C1380 C 0.63701 0.42124 0.11233 0.0
C1381 C 0.61563 0.45257 0.0609 0.0
C1382 C 0.70297 0.42905 0.13049 0.0
C1383 C 0.6884 0.39466 0.19282 0.0
N1384 N 0.64263 0.4418 0.08263 0.0
N1385 N 0.66161 0.39836 0.16805 0.0
H1386 H 0.74272 0.71012 0.16994 0.0
H1387 H 0.57558 0.55426 0.14486 0.0
H1388 H 0.6984 0.64681 0.25606 0.0
H1389 H 0.66563 0.57746 0.09011 0.0
H1390 H 0.61193 0.59261 0.18384 0.0
H1391 H 0.70593 0.66704 0.13719 0.0
C1392 C 0.72507 0.68737 0.1821 0.0
C1393 C 0.72322 0.68276 0.21593 0.0
C1394 C 0.62351 0.58877 0.16336 0.0
C1395 C 0.68044 0.63312 0.17801 0.0
C1396 C 0.60285 0.56696 0.14111 0.0
C1397 C 0.61723 0.56265 0.11381 0.0
C1398 C 0.65836 0.60679 0.15776 0.0
C1399 C 0.65287 0.57993 0.11038 0.0
C1400 C 0.70405 0.66268 0.16326 0.0
C1401 C 0.69993 0.65218 0.22999 0.0
N1402 N 0.67183 0.60143 0.13169 0.0
N1403 N 0.6791 0.62865 0.21093 0.0
H1404 H 0.38237 0.67184 0.16352 0.0
H1405 H 0.52615 0.58863 0.10337 0.0
H1406 H 0.46211 0.62333 0.22896 0.0
H1407 H 0.43209 0.61438 0.04175 0.0
H1408 H 0.5113 0.61438 0.14689 0.0
H1409 H 0.40808 0.66347 0.11655 0.0
C1410 C 0.40567 0.66005 0.16802 0.0
C1411 C 0.41983 0.64797 0.20028 0.0
C1412 C 0.49429 0.61504 0.1236 0.0
C1413 C 0.44942 0.63815 0.14658 0.0
C1414 C 0.50303 0.60072 0.09854 0.0
C1415 C 0.48028 0.59915 0.06881 0.0
C1416 C 0.4627 0.62815 0.11887 0.0
C1417 C 0.45033 0.61481 0.0643 0.0
C1418 C 0.42022 0.65506 0.1412 0.0
C1419 C 0.44995 0.63259 0.20455 0.0
N1420 N 0.44225 0.62828 0.08908 0.0
N1421 N 0.46354 0.62795 0.17813 0.0
H1422 H 0.38907 0.34028 0.2528 0.0
H1423 H 0.39144 0.42877 0.06508 0.0
H1424 H 0.32717 0.29278 0.17131 0.0
H1425 H 0.47356 0.46761 0.14028 0.0
H1426 H 0.36696 0.37981 0.10559 0.0
H1427 H 0.42193 0.38685 0.21388 0.0
C1428 C 0.38195 0.33998 0.22682 0.0
C1429 C 0.35317 0.31454 0.21516 0.0
C1430 C 0.39042 0.39892 0.11335 0.0
C1431 C 0.39145 0.36621 0.17082 0.0
C1432 C 0.40428 0.42718 0.09019 0.0
C1433 C 0.43465 0.45245 0.09922 0.0
C1434 C 0.40672 0.39581 0.146 0.0
C1435 C 0.45008 0.44872 0.13224 0.0
C1436 C 0.40103 0.3662 0.20467 0.0
C1437 C 0.34738 0.31327 0.18143 0.0
N1438 N 0.43584 0.42089 0.15457 0.0
N1439 N 0.36585 0.33911 0.16045 0.0
H1440 H 0.81339 0.63708 0.58155 0.0
H1441 H 0.99304 0.56098 0.62948 0.0
H1442 H 0.86691 0.62088 0.68057 0.0
H1443 H 0.93456 0.56988 0.53211 0.0
H1444 H 0.94793 0.58369 0.6485 0.0
H1445 H 0.85829 0.61383 0.563 0.0
C1446 C 0.83447 0.62851 0.5995 0.0
C1447 C 0.83603 0.63082 0.63283 0.0
C1448 C 0.9449 0.58061 0.62299 0.0
C1449 C 0.88813 0.60435 0.61145 0.0
C1450 C 0.97069 0.56758 0.61206 0.0
C1451 C 0.96777 0.56344 0.57905 0.0
C1452 C 0.91587 0.58979 0.60081 0.0
C1453 C 0.93805 0.57248 0.55777 0.0
C1454 C 0.86026 0.61534 0.58879 0.0
C1455 C 0.86463 0.61998 0.65464 0.0
N1456 N 0.91341 0.58528 0.56898 0.0
N1457 N 0.88942 0.60717 0.6436 0.0
H1458 H 0.2958 0.80718 0.65969 0.0
H1459 H 0.47863 0.95513 0.64903 0.0
H1460 H 0.34089 0.87357 0.73314 0.0
H1461 H 0.42342 0.90646 0.56581 0.0
H1462 H 0.43048 0.92244 0.68095 0.0
H1463 H 0.34362 0.83968 0.6262 0.0
C1464 C 0.31607 0.82832 0.66894 0.0
C1465 C 0.31508 0.83677 0.69983 0.0
C1466 C 0.42871 0.91886 0.65571 0.0
C1467 C 0.36957 0.87495 0.66115 0.0
C1468 C 0.45641 0.93756 0.6373 0.0
C1469 C 0.45551 0.93382 0.60435 0.0
C1470 C 0.39947 0.89559 0.64155 0.0
C1471 C 0.42553 0.91051 0.59094 0.0
C1472 C 0.34324 0.84707 0.6497 0.0
C1473 C 0.34129 0.86534 0.71002 0.0
N1474 N 0.39897 0.89226 0.60954 0.0
N1475 N 0.36746 0.88307 0.69097 0.0
H1476 H 0.25359 0.36062 0.72226 0.0
H1477 H 0.08538 0.38086 0.58168 0.0
H1478 H 0.17964 0.27186 0.68635 0.0
H1479 H 0.15485 0.46983 0.62172 0.0
H1480 H 0.12323 0.34137 0.61555 0.0
H1481 H 0.22235 0.40173 0.68138 0.0
C1482 C 0.23154 0.34977 0.70516 0.0
C1483 C 0.21995 0.31258 0.70728 0.0
C1484 C 0.13034 0.36961 0.61677 0.0
C1485 C 0.18287 0.35959 0.66102 0.0
C1486 C 0.10866 0.39231 0.59723 0.0
C1487 C 0.1164 0.42908 0.59858 0.0
C1488 C 0.16037 0.38347 0.63803 0.0
C1489 C 0.14724 0.44183 0.61965 0.0
C1490 C 0.21332 0.37324 0.68203 0.0
C1491 C 0.1901 0.30025 0.68522 0.0
N1492 N 0.16773 0.41928 0.63839 0.0
N1493 N 0.17277 0.32342 0.66329 0.0
H1494 H 0.7113 0.26029 0.65518 0.0
H1495 H 0.66318 0.08763 0.5697 0.0
H1496 H 0.74905 0.16305 0.69414 0.0
H1497 H 0.58474 0.15069 0.56542 0.0
H1498 H 0.70655 0.12885 0.60074 0.0
H1499 H 0.6748 0.23172 0.61019 0.0
C1500 C 0.71177 0.23296 0.65456 0.0
C1501 C 0.73244 0.21377 0.67931 0.0
C1502 C 0.68013 0.1342 0.59232 0.0
C1503 C 0.69246 0.1818 0.62681 0.0
C1504 C 0.6555 0.11095 0.57434 0.0
C1505 C 0.62032 0.11569 0.56528 0.0
C1506 C 0.66956 0.16244 0.60137 0.0
C1507 C 0.61168 0.14626 0.5719 0.0
C1508 C 0.69125 0.21688 0.62862 0.0
C1509 C 0.73324 0.1789 0.67611 0.0
N1510 N 0.63605 0.1683 0.59017 0.0
N1511 N 0.71358 0.16411 0.65041 0.0
H1512 H 0.90691 0.28241 0.33876 0.0
H1513 H 0.90327 0.40719 0.46628 0.0
H1514 H 0.81086 0.29111 0.3726 0.0
H1515 H 1.00059 0.38073 0.45235 0.0
H1516 H 0.86918 0.36139 0.43457 0.0
H1517 H 0.94217 0.31569 0.38136 0.0
C1518 C 0.89315 0.29065 0.35541 0.0
C1519 C 0.85566 0.28336 0.35213 0.0
C1520 C 0.89794 0.36491 0.43896 0.0
C1521 C 0.89598 0.32219 0.40063 0.0
C1522 C 0.91735 0.39085 0.45737 0.0
C1523 C 0.9547 0.3973 0.46238 0.0
C1524 C 0.91599 0.34585 0.42452 0.0
C1525 C 0.97175 0.37601 0.44959 0.0
C1526 C 0.91336 0.30977 0.37972 0.0
C1527 C 0.83952 0.29558 0.37411 0.0
N1528 N 0.95231 0.35163 0.43074 0.0
N1529 N 0.85967 0.31448 0.39711 0.0
H1530 H 0.64566 0.84907 0.35525 0.0
H1531 H 0.6091 0.92997 0.50481 0.0
H1532 H 0.68004 0.81137 0.45692 0.0
H1533 H 0.56476 0.95789 0.4039 0.0
H1534 H 0.64257 0.89271 0.48717 0.0
H1535 H 0.62307 0.89506 0.37219 0.0
C1536 C 0.64884 0.85069 0.38112 0.0
C1537 C 0.66458 0.82609 0.40469 0.0
C1538 C 0.62577 0.90729 0.46888 0.0
C1539 C 0.63835 0.87859 0.42435 0.0
C1540 C 0.6068 0.92875 0.4789 0.0
C1541 C 0.58376 0.94685 0.45584 0.0
C1542 C 0.62179 0.90401 0.43557 0.0
C1543 C 0.58186 0.94414 0.42262 0.0
C1544 C 0.63574 0.87686 0.39081 0.0
C1545 C 0.66756 0.82934 0.43792 0.0
N1546 N 0.60038 0.92295 0.41354 0.0
N1547 N 0.65443 0.85496 0.44676 0.0
H1548 H 0.23717 0.729 0.3565 0.0
H1549 H 0.07361 0.56211 0.38325 0.0
H1550 H 0.18581 0.66441 0.28305 0.0
H1551 H 0.12658 0.62043 0.46119 0.0
H1552 H 0.11796 0.59677 0.34826 0.0
H1553 H 0.20147 0.68732 0.3969 0.0
C1554 C 0.21921 0.70534 0.34921 0.0
C1555 C 0.21536 0.6994 0.31667 0.0
C1556 C 0.12016 0.60206 0.37301 0.0
C1557 C 0.17311 0.65246 0.36231 0.0
C1558 C 0.09462 0.58226 0.39313 0.0
C1559 C 0.09587 0.58849 0.4253 0.0
C1560 C 0.14743 0.62889 0.3847 0.0
C1561 C 0.12433 0.61469 0.4366 0.0
C1562 C 0.19854 0.68177 0.37216 0.0
C1563 C 0.19041 0.66937 0.30808 0.0
N1564 N 0.14872 0.63414 0.41625 0.0
N1565 N 0.1703 0.64717 0.33063 0.0
H1566 H 0.37063 0.23298 0.31317 0.0
H1567 H 0.40164 0.05591 0.4409 0.0
H1568 H 0.28739 0.1458 0.34696 0.0
H1569 H 0.48927 0.14427 0.42059 0.0
H1570 H 0.36039 0.09105 0.40767 0.0
H1571 H 0.41495 0.20419 0.35224 0.0
C1572 C 0.36158 0.20816 0.32912 0.0
C1573 C 0.32493 0.19224 0.32716 0.0
C1574 C 0.38853 0.10321 0.41054 0.0
C1575 C 0.37574 0.15849 0.37142 0.0
C1576 C 0.41226 0.08304 0.4298 0.0
C1577 C 0.44922 0.09697 0.434 0.0
C1578 C 0.40134 0.13794 0.39435 0.0
C1579 C 0.46106 0.13242 0.41856 0.0
C1580 C 0.38694 0.19158 0.35132 0.0
C1581 C 0.31512 0.15942 0.34778 0.0
N1582 N 0.43733 0.15148 0.3992 0.0
N1583 N 0.34007 0.1439 0.36875 0.0
H1584 H 0.68635 0.78447 0.72223 0.0
H1585 H 0.65258 0.95842 0.59187 0.0
H1586 H 0.76872 0.86854 0.68223 0.0
H1587 H 0.56569 0.86961 0.61318 0.0
H1588 H 0.69445 0.92346 0.62435 0.0
H1589 H 0.64118 0.81175 0.68279 0.0
C1590 C 0.69504 0.8081 0.70471 0.0
C1591 C 0.73167 0.8237 0.70515 0.0
C1592 C 0.66633 0.91115 0.62183 0.0
C1593 C 0.67993 0.85595 0.66067 0.0
C1594 C 0.64226 0.93123 0.60302 0.0
C1595 C 0.60535 0.91708 0.5993 0.0
C1596 C 0.65391 0.87635 0.63812 0.0
C1597 C 0.59387 0.8816 0.61484 0.0
C1598 C 0.66919 0.82389 0.68235 0.0
C1599 C 0.741 0.85515 0.68261 0.0
N1600 N 0.61792 0.86266 0.63382 0.0
N1601 N 0.71562 0.87004 0.66166 0.0
H1602 H 0.77497 0.16873 0.38232 0.0
H1603 H 0.56526 0.08191 0.38114 0.0
H1604 H 0.69922 0.17434 0.29492 0.0
H1605 H 0.63884 0.08562 0.47026 0.0
H1606 H 0.61379 0.11456 0.34952 0.0
H1607 H 0.72617 0.1373 0.41462 0.0
C1608 C 0.74794 0.16364 0.36996 0.0
C1609 C 0.74113 0.17539 0.33598 0.0
C1610 C 0.61945 0.10829 0.37597 0.0
C1611 C 0.68475 0.13816 0.37287 0.0
C1612 C 0.59161 0.08948 0.39423 0.0
C1613 C 0.59756 0.08064 0.42876 0.0
C1614 C 0.65412 0.11844 0.39197 0.0
C1615 C 0.63262 0.09163 0.44385 0.0
C1616 C 0.72003 0.14559 0.38844 0.0
C1617 C 0.70564 0.16696 0.32119 0.0
N1618 N 0.65938 0.10971 0.42546 0.0
N1619 N 0.67893 0.14901 0.33964 0.0
H1620 H 0.80639 0.66569 0.31111 0.0
H1621 H 0.97972 0.64662 0.44574 0.0
H1622 H 0.88621 0.75481 0.33956 0.0
H1623 H 0.9072 0.55686 0.40956 0.0
H1624 H 0.94189 0.68611 0.41191 0.0
H1625 H 0.83838 0.62502 0.35179 0.0
C1626 C 0.83006 0.67676 0.32644 0.0
C1627 C 0.84312 0.71389 0.32231 0.0
C1628 C 0.93411 0.65771 0.41153 0.0
C1629 C 0.88072 0.66737 0.3684 0.0
C1630 C 0.95576 0.63503 0.43106 0.0
C1631 C 0.94714 0.59804 0.4307 0.0
C1632 C 0.90322 0.64359 0.39137 0.0
C1633 C 0.91547 0.58506 0.41076 0.0
C1634 C 0.84863 0.65353 0.34947 0.0
C1635 C 0.87478 0.72648 0.3422 0.0
N1636 N 0.89498 0.60759 0.39203 0.0
N1637 N 0.89229 0.70352 0.36415 0.0
H1638 H 0.39105 0.78066 0.3393 0.0
H1639 H 0.39372 0.90962 0.46563 0.0
H1640 H 0.29897 0.81374 0.3582 0.0
H1641 H 0.48754 0.87451 0.45476 0.0
H1642 H 0.35737 0.86619 0.43263 0.0
H1643 H 0.42604 0.80746 0.38626 0.0
C1644 C 0.37813 0.79319 0.35345 0.0
C1645 C 0.34222 0.79559 0.34435 0.0
C1646 C 0.3858 0.86727 0.43791 0.0
C1647 C 0.38178 0.82589 0.39804 0.0
C1648 C 0.40644 0.89185 0.45707 0.0
C1649 C 0.44348 0.8953 0.46308 0.0
C1650 C 0.40242 0.84665 0.42377 0.0
C1651 C 0.45889 0.87217 0.45099 0.0
C1652 C 0.39806 0.80842 0.38024 0.0
C1653 C 0.32675 0.81189 0.36371 0.0
N1654 N 0.43836 0.84922 0.4313 0.0
N1655 N 0.34662 0.82655 0.38932 0.0
H1656 H 0.24417 0.3818 0.45211 0.0
H1657 H 0.07109 0.46762 0.3999 0.0
H1658 H 0.19593 0.40351 0.35166 0.0
H1659 H 0.12732 0.45647 0.49819 0.0
H1660 H 0.1158 0.44361 0.38171 0.0
H1661 H 0.20071 0.40802 0.46935 0.0
C1662 C 0.22457 0.39226 0.43359 0.0
C1663 C 0.22396 0.39058 0.40029 0.0
C1664 C 0.11842 0.44655 0.40722 0.0
C1665 C 0.17357 0.42038 0.42006 0.0
C1666 C 0.09288 0.46028 0.41766 0.0
C1667 C 0.09529 0.46402 0.4507 0.0
C1668 C 0.14656 0.43625 0.42996 0.0
C1669 C 0.12429 0.45415 0.47249 0.0
C1670 C 0.19962 0.40713 0.44352 0.0
C1671 C 0.1973 0.40388 0.37761 0.0
N1672 N 0.14862 0.44058 0.46177 0.0
N1673 N 0.17322 0.41824 0.38791 0.0
H1674 H 0.41543 0.17358 0.67859 0.0
H1675 H 0.45145 0.0929 0.52822 0.0
H1676 H 0.38952 0.21785 0.57688 0.0
H1677 H 0.49198 0.0607 0.62947 0.0
H1678 H 0.42112 0.13305 0.54578 0.0
H1679 H 0.43624 0.12664 0.66113 0.0
C1680 C 0.41375 0.17325 0.65258 0.0
C1681 C 0.40088 0.19994 0.62921 0.0
C1682 C 0.4364 0.11694 0.56416 0.0
C1683 C 0.42499 0.14623 0.60897 0.0
C1684 C 0.45355 0.09381 0.55417 0.0
C1685 C 0.47457 0.0735 0.57735 0.0
C1686 C 0.44007 0.11967 0.5976 0.0
C1687 C 0.47637 0.07602 0.61064 0.0
C1688 C 0.42585 0.14653 0.64261 0.0
C1689 C 0.39976 0.19823 0.5958 0.0
N1690 N 0.45956 0.09876 0.6197 0.0
N1691 N 0.41172 0.17196 0.58671 0.0
H1692 H 0.81871 0.30318 0.67156 0.0
H1693 H 0.9951 0.45619 0.64872 0.0
H1694 H 0.90292 0.33093 0.74874 0.0
H1695 H 0.93476 0.40882 0.56634 0.0
H1696 H 0.95337 0.41779 0.68419 0.0
H1697 H 0.85298 0.34821 0.63166 0.0
C1698 C 0.84396 0.31932 0.68015 0.0
C1699 C 0.85773 0.31402 0.71357 0.0
C1700 C 0.94906 0.41567 0.65837 0.0
C1701 C 0.89712 0.36473 0.66834 0.0
C1702 C 0.97302 0.4377 0.63792 0.0
C1703 C 0.96904 0.43552 0.60434 0.0
C1704 C 0.92043 0.39085 0.64558 0.0
C1705 C 0.93918 0.41131 0.59206 0.0
C1706 C 0.86364 0.34465 0.6574 0.0
C1707 C 0.8911 0.33464 0.72331 0.0
N1708 N 0.91613 0.38969 0.61272 0.0
N1709 N 0.90942 0.35906 0.70096 0.0
H1710 H 0.15358 0.7339 0.69789 0.0
H1711 H 0.16035 0.61925 0.56299 0.0
H1712 H 0.25143 0.72493 0.6676 0.0
H1713 H 0.06317 0.64549 0.5776 0.0
H1714 H 0.19439 0.66231 0.59763 0.0
H1715 H 0.12 0.70515 0.65195 0.0
C1716 C 0.16807 0.72626 0.68144 0.0
C1717 C 0.20548 0.73176 0.68684 0.0
C1718 C 0.16571 0.65943 0.59269 0.0
C1719 C 0.16707 0.69832 0.63432 0.0
C1720 C 0.14633 0.63514 0.57256 0.0
C1721 C 0.10899 0.62927 0.56704 0.0
C1722 C 0.14758 0.67735 0.60823 0.0
C1723 C 0.092 0.64982 0.58074 0.0
C1724 C 0.14884 0.70976 0.6552 0.0
C1725 C 0.22266 0.72075 0.66488 0.0
N1726 N 0.11136 0.67249 0.60122 0.0
N1727 N 0.20337 0.70439 0.63984 0.0
loop_
_geom_bond_atom_site_label_1
_geom_bond_atom_site_label_2
_geom_bond_distance
_geom_bond_site_symmetry_2
_ccdc_geom_bond_type
Tb0 N31 2.660 . S
Tb0 N38 2.600 . S
Tb0 O44 2.546 . S
Tb0 O45 2.610 . S
Tb0 O47 2.320 . S
Tb0 O48 2.552 . S
Tb0 O49 2.413 . S
Tb0 O51 2.362 . S
Tb0 O52 2.421 . S
Tb0 C64 2.833 . S
C1 C4 1.432 . S
C1 C5 1.414 . S
C1 N8 1.359 . S
C2 C4 1.417 . S
C2 C6 1.432 . S
C2 C14 1.410 . S
C3 C5 1.444 . S
C3 C6 1.317 . S
C3 H26 0.929 . S
C4 C1 1.432 . S
C4 C2 1.417 . S
C4 N12 1.360 . S
C5 C1 1.414 . S
C5 C3 1.444 . S
C5 C10 1.385 . S
C6 C2 1.432 . S
C6 C3 1.317 . S
C6 H18 0.930 . S
C7 C9 1.392 . S
C7 C10 1.370 . S
C7 H19 0.931 . S
N8 C1 1.359 . S
N8 C9 1.327 . S
N8 Tb11 2.600 . S
C9 C7 1.392 . S
C9 N8 1.327 . S
C9 H16 0.930 . S
C10 C5 1.385 . S
C10 C7 1.370 . S
C10 H29 0.930 . S
Tb11 N8 2.600 . S
Tb11 N12 2.660 . S
Tb11 O45 2.362 . S
Tb11 O46 2.421 . S
Tb11 O50 2.546 . S
Tb11 O51 2.610 . S
Tb11 O53 2.320 . S
Tb11 O54 2.552 . S
Tb11 O55 2.413 . S
Tb11 C75 2.833 . S
N12 C4 1.360 . S
N12 Tb11 2.660 . S
N12 C13 1.305 . S
C13 N12 1.305 . S
C13 C15 1.407 . S
C13 H20 0.930 . S
C14 C2 1.410 . S
C14 C15 1.345 . S
C14 H22 0.930 . S
C15 C13 1.407 . S
C15 C14 1.345 . S
C15 H17 0.930 . S
H16 C9 0.930 . S
H17 C15 0.930 . S
H18 C6 0.930 . S
H19 C7 0.931 . S
H20 C13 0.930 . S
H21 C35 0.930 . S
H22 C14 0.930 . S
H23 C41 0.930 . S
H24 C32 0.930 . S
H25 C39 0.931 . S
H26 C3 0.929 . S
H27 C33 0.930 . S
H28 C66 0.930 . S
H29 C10 0.930 . S
H30 C65 0.929 . S
N31 Tb0 2.660 . S
N31 C32 1.305 . S
N31 C36 1.360 . S
C32 H24 0.930 . S
C32 N31 1.305 . S
C32 C35 1.407 . S
C33 H27 0.930 . S
C33 C34 1.410 . S
C33 C35 1.345 . S
C34 C33 1.410 . S
C34 C36 1.417 . S
C34 C66 1.432 . S
C35 H21 0.930 . S
C35 C32 1.407 . S
C35 C33 1.345 . S
C36 N31 1.360 . S
C36 C34 1.417 . S
C36 C40 1.432 . S
H37 C42 0.930 . S
N38 Tb0 2.600 . S
N38 C40 1.359 . S
N38 C41 1.327 . S
C39 H25 0.931 . S
C39 C41 1.392 . S
C39 C42 1.370 . S
C40 C36 1.432 . S
C40 N38 1.359 . S
C40 C43 1.414 . S
C41 H23 0.930 . S
C41 N38 1.327 . S
C41 C39 1.392 . S
C42 H37 0.930 . S
C42 C39 1.370 . S
C42 C43 1.385 . S
C43 C40 1.414 . S
C43 C42 1.385 . S
C43 C65 1.444 . S
O44 Tb0 2.546 . S
O44 C64 1.251 . S
O45 Tb0 2.610 . S
O45 Tb11 2.362 . S
O45 C56 1.283 . S
O46 Tb11 2.421 . S
O46 C63 1.262 . S
O47 Tb0 2.320 . S
O47 C63 1.260 . S
O48 Tb0 2.552 . S
O48 C56 1.243 . S
O49 Tb0 2.413 . S
O49 C64 1.256 . S
O50 Tb11 2.546 . S
O50 C75 1.251 . S
O51 Tb0 2.362 . S
O51 Tb11 2.610 . S
O51 C67 1.283 . S
O52 Tb0 2.421 . S
O52 C74 1.262 . S
O53 Tb11 2.320 . S
O53 C74 1.260 . S
O54 Tb11 2.552 . S
O54 C67 1.243 . S
O55 Tb11 2.413 . S
O55 C75 1.256 . S
C56 O45 1.283 . S
C56 O48 1.243 . S
C57 C59 1.382 . S
C57 C61 1.393 . S
C57 C64 1.500 . S
C58 C59 1.400 . S
C58 C60 1.384 . S
C59 C57 1.382 . S
C59 C58 1.400 . S
C59 H76 0.930 . S
C60 C58 1.384 . S
C60 C62 1.392 . S
C60 H77 0.931 . S
C61 C57 1.393 . S
C61 C62 1.401 . S
C61 H78 0.930 . S
C62 C60 1.392 . S
C62 C61 1.401 . S
C62 H79 0.930 . S
C63 O46 1.262 . S
C63 O47 1.260 . S
C64 Tb0 2.833 . S
C64 O44 1.251 . S
C64 O49 1.256 . S
C64 C57 1.500 . S
C65 H30 0.929 . S
C65 C43 1.444 . S
C65 C66 1.317 . S
C66 H28 0.930 . S
C66 C34 1.432 . S
C66 C65 1.317 . S
C67 O51 1.283 . S
C67 O54 1.243 . S
C68 C69 1.382 . S
C68 C72 1.393 . S
C68 C75 1.500 . S
C69 C68 1.382 . S
C69 C70 1.400 . S
C69 H80 0.930 . S
C70 C69 1.400 . S
C70 C71 1.384 . S
C71 C70 1.384 . S
C71 C73 1.392 . S
C71 H81 0.931 . S
C72 C68 1.393 . S
C72 C73 1.401 . S
C72 H82 0.930 . S
C73 C71 1.392 . S
C73 C72 1.401 . S
C73 H83 0.930 . S
C74 O52 1.262 . S
C74 O53 1.260 . S
C75 Tb11 2.833 . S
C75 O50 1.251 . S
C75 O55 1.256 . S
C75 C68 1.500 . S
H76 C59 0.930 . S
H77 C60 0.931 . S
H78 C61 0.930 . S
H79 C62 0.930 . S
H80 C69 0.930 . S
H81 C71 0.931 . S
H82 C72 0.930 . S
H83 C73 0.930 . S
Tb84 N115 2.660 . S
Tb84 N122 2.600 . S
Tb84 O128 2.546 . S
Tb84 O129 2.610 . S
Tb84 O131 2.320 . S
Tb84 O132 2.552 . S
Tb84 O133 2.413 . S
Tb84 O135 2.362 . S
Tb84 O136 2.421 . S
Tb84 C148 2.833 . S
C85 C88 1.432 . S
C85 C89 1.414 . S
C85 N92 1.359 . S
C86 C88 1.417 . S
C86 C90 1.432 . S
C86 C98 1.410 . S
C87 C89 1.444 . S
C87 C90 1.317 . S
C87 H110 0.929 . S
C88 C85 1.432 . S
C88 C86 1.417 . S
C88 N96 1.360 . S
C89 C85 1.414 . S
C89 C87 1.444 . S
C89 C94 1.385 . S
C90 C86 1.432 . S
C90 C87 1.317 . S
C90 H102 0.930 . S
C91 C93 1.392 . S
C91 C94 1.370 . S
C91 H103 0.931 . S
N92 C85 1.359 . S
N92 C93 1.327 . S
N92 Tb95 2.600 . S
C93 C91 1.392 . S
C93 N92 1.327 . S
C93 H100 0.930 . S
C94 C89 1.385 . S
C94 C91 1.370 . S
C94 H113 0.930 . S
Tb95 N92 2.600 . S
Tb95 N96 2.660 . S
Tb95 O129 2.362 . S
Tb95 O130 2.421 . S
Tb95 O134 2.546 . S
Tb95 O135 2.610 . S
Tb95 O137 2.320 . S
Tb95 O138 2.552 . S
Tb95 O139 2.413 . S
Tb95 C159 2.833 . S
N96 C88 1.360 . S
N96 Tb95 2.660 . S
N96 C97 1.305 . S
C97 N96 1.305 . S
C97 C99 1.407 . S
C97 H104 0.930 . S
C98 C86 1.410 . S
C98 C99 1.345 . S
C98 H106 0.930 . S
C99 C97 1.407 . S
C99 C98 1.345 . S
C99 H101 0.930 . S
H100 C93 0.930 . S
H101 C99 0.930 . S
H102 C90 0.930 . S
H103 C91 0.931 . S
H104 C97 0.930 . S
H105 C119 0.930 . S
H106 C98 0.930 . S
H107 C125 0.930 . S
H108 C116 0.930 . S
H109 C123 0.931 . S
H110 C87 0.929 . S
H111 C117 0.930 . S
H112 C150 0.930 . S
H113 C94 0.930 . S
H114 C149 0.929 . S
N115 Tb84 2.660 . S
N115 C116 1.305 . S
N115 C120 1.360 . S
C116 H108 0.930 . S
C116 N115 1.305 . S
C116 C119 1.407 . S
C117 H111 0.930 . S
C117 C118 1.410 . S
C117 C119 1.345 . S
C118 C117 1.410 . S
C118 C120 1.417 . S
C118 C150 1.432 . S
C119 H105 0.930 . S
C119 C116 1.407 . S
C119 C117 1.345 . S
C120 N115 1.360 . S
C120 C118 1.417 . S
C120 C124 1.432 . S
H121 C126 0.930 . S
N122 Tb84 2.600 . S
N122 C124 1.359 . S
N122 C125 1.327 . S
C123 H109 0.931 . S
C123 C125 1.392 . S
C123 C126 1.370 . S
C124 C120 1.432 . S
C124 N122 1.359 . S
C124 C127 1.414 . S
C125 H107 0.930 . S
C125 N122 1.327 . S
C125 C123 1.392 . S
C126 H121 0.930 . S
C126 C123 1.370 . S
C126 C127 1.385 . S
C127 C124 1.414 . S
C127 C126 1.385 . S
C127 C149 1.444 . S
O128 Tb84 2.546 . S
O128 C148 1.251 . S
O129 Tb84 2.610 . S
O129 Tb95 2.362 . S
O129 C140 1.283 . S
O130 Tb95 2.421 . S
O130 C147 1.262 . S
O131 Tb84 2.320 . S
O131 C147 1.260 . S
O132 Tb84 2.552 . S
O132 C140 1.243 . S
O133 Tb84 2.413 . S
O133 C148 1.256 . S
O134 Tb95 2.546 . S
O134 C159 1.251 . S
O135 Tb84 2.362 . S
O135 Tb95 2.610 . S
O135 C151 1.283 . S
O136 Tb84 2.421 . S
O136 C158 1.262 . S
O137 Tb95 2.320 . S
O137 C158 1.260 . S
O138 Tb95 2.552 . S
O138 C151 1.243 . S
O139 Tb95 2.413 . S
O139 C159 1.256 . S
C140 O129 1.283 . S
C140 O132 1.243 . S
C141 C143 1.382 . S
C141 C145 1.393 . S
C141 C148 1.500 . S
C142 C143 1.400 . S
C142 C144 1.384 . S
C143 C141 1.382 . S
C143 C142 1.400 . S
C143 H160 0.930 . S
C144 C142 1.384 . S
C144 C146 1.392 . S
C144 H161 0.931 . S
C145 C141 1.393 . S
C145 C146 1.401 . S
C145 H162 0.930 . S
C146 C144 1.392 . S
C146 C145 1.401 . S
C146 H163 0.930 . S
C147 O130 1.262 . S
C147 O131 1.260 . S
C148 Tb84 2.833 . S
C148 O128 1.251 . S
C148 O133 1.256 . S
C148 C141 1.500 . S
C149 H114 0.929 . S
C149 C127 1.444 . S
C149 C150 1.317 . S
C150 H112 0.930 . S
C150 C118 1.432 . S
C150 C149 1.317 . S
C151 O135 1.283 . S
C151 O138 1.243 . S
C152 C153 1.382 . S
C152 C156 1.393 . S
C152 C159 1.500 . S
C153 C152 1.382 . S
C153 C154 1.400 . S
C153 H164 0.930 . S
C154 C153 1.400 . S
C154 C155 1.384 . S
C155 C154 1.384 . S
C155 C157 1.392 . S
C155 H165 0.931 . S
C156 C152 1.393 . S
C156 C157 1.401 . S
C156 H166 0.930 . S
C157 C155 1.392 . S
C157 C156 1.401 . S
C157 H167 0.930 . S
C158 O136 1.262 . S
C158 O137 1.260 . S
C159 Tb95 2.833 . S
C159 O134 1.251 . S
C159 O139 1.256 . S
C159 C152 1.500 . S
H160 C143 0.930 . S
H161 C144 0.931 . S
H162 C145 0.930 . S
H163 C146 0.930 . S
H164 C153 0.930 . S
H165 C155 0.931 . S
H166 C156 0.930 . S
H167 C157 0.930 . S
Tb168 N199 2.660 . S
Tb168 N206 2.600 . S
Tb168 O212 2.546 . S
Tb168 O213 2.610 . S
Tb168 O215 2.320 . S
Tb168 O216 2.552 . S
Tb168 O217 2.413 . S
Tb168 O219 2.362 . S
Tb168 O220 2.421 . S
Tb168 C232 2.833 . S
C169 C172 1.432 . S
C169 C173 1.414 . S
C169 N176 1.359 . S
C170 C172 1.417 . S
C170 C174 1.432 . S
C170 C182 1.410 . S
C171 C173 1.444 . S
C171 C174 1.317 . S
C171 H194 0.929 . S
C172 C169 1.432 . S
C172 C170 1.417 . S
C172 N180 1.360 . S
C173 C169 1.414 . S
C173 C171 1.444 . S
C173 C178 1.385 . S
C174 C170 1.432 . S
C174 C171 1.317 . S
C174 H186 0.930 . S
C175 C177 1.392 . S
C175 C178 1.370 . S
C175 H187 0.931 . S
N176 C169 1.359 . S
N176 C177 1.327 . S
N176 Tb179 2.600 . S
C177 C175 1.392 . S
C177 N176 1.327 . S
C177 H184 0.930 . S
C178 C173 1.385 . S
C178 C175 1.370 . S
C178 H197 0.930 . S
Tb179 N176 2.600 . S
Tb179 N180 2.660 . S
Tb179 O213 2.362 . S
Tb179 O214 2.421 . S
Tb179 O218 2.546 . S
Tb179 O219 2.610 . S
Tb179 O221 2.320 . S
Tb179 O222 2.552 . S
Tb179 O223 2.413 . S
Tb179 C243 2.833 . S
N180 C172 1.360 . S
N180 Tb179 2.660 . S
N180 C181 1.305 . S
C181 N180 1.305 . S
C181 C183 1.407 . S
C181 H188 0.930 . S
C182 C170 1.410 . S
C182 C183 1.345 . S
C182 H190 0.930 . S
C183 C181 1.407 . S
C183 C182 1.345 . S
C183 H185 0.930 . S
H184 C177 0.930 . S
H185 C183 0.930 . S
H186 C174 0.930 . S
H187 C175 0.931 . S
H188 C181 0.930 . S
H189 C203 0.930 . S
H190 C182 0.930 . S
H191 C209 0.930 . S
H192 C200 0.930 . S
H193 C207 0.931 . S
H194 C171 0.929 . S
H195 C201 0.930 . S
H196 C234 0.930 . S
H197 C178 0.930 . S
H198 C233 0.929 . S
N199 Tb168 2.660 . S
N199 C200 1.305 . S
N199 C204 1.360 . S
C200 H192 0.930 . S
C200 N199 1.305 . S
C200 C203 1.407 . S
C201 H195 0.930 . S
C201 C202 1.410 . S
C201 C203 1.345 . S
C202 C201 1.410 . S
C202 C204 1.417 . S
C202 C234 1.432 . S
C203 H189 0.930 . S
C203 C200 1.407 . S
C203 C201 1.345 . S
C204 N199 1.360 . S
C204 C202 1.417 . S
C204 C208 1.432 . S
H205 C210 0.930 . S
N206 Tb168 2.600 . S
N206 C208 1.359 . S
N206 C209 1.327 . S
C207 H193 0.931 . S
C207 C209 1.392 . S
C207 C210 1.370 . S
C208 C204 1.432 . S
C208 N206 1.359 . S
C208 C211 1.414 . S
C209 H191 0.930 . S
C209 N206 1.327 . S
C209 C207 1.392 . S
C210 H205 0.930 . S
C210 C207 1.370 . S
C210 C211 1.385 . S
C211 C208 1.414 . S
C211 C210 1.385 . S
C211 C233 1.444 . S
O212 Tb168 2.546 . S
O212 C232 1.251 . S
O213 Tb168 2.610 . S
O213 Tb179 2.362 . S
O213 C224 1.283 . S
O214 Tb179 2.421 . S
O214 C231 1.262 . S
O215 Tb168 2.320 . S
O215 C231 1.260 . S
O216 Tb168 2.552 . S
O216 C224 1.243 . S
O217 Tb168 2.413 . S
O217 C232 1.256 . S
O218 Tb179 2.546 . S
O218 C243 1.251 . S
O219 Tb168 2.362 . S
O219 Tb179 2.610 . S
O219 C235 1.283 . S
O220 Tb168 2.421 . S
O220 C242 1.262 . S
O221 Tb179 2.320 . S
O221 C242 1.260 . S
O222 Tb179 2.552 . S
O222 C235 1.243 . S
O223 Tb179 2.413 . S
O223 C243 1.256 . S
C224 O213 1.283 . S
C224 O216 1.243 . S
C225 C227 1.382 . S
C225 C229 1.393 . S
C225 C232 1.500 . S
C226 C227 1.400 . S
C226 C228 1.384 . S
C227 C225 1.382 . S
C227 C226 1.400 . S
C227 H244 0.930 . S
C228 C226 1.384 . S
C228 C230 1.392 . S
C228 H245 0.931 . S
C229 C225 1.393 . S
C229 C230 1.401 . S
C229 H246 0.930 . S
C230 C228 1.392 . S
C230 C229 1.401 . S
C230 H247 0.930 . S
C231 O214 1.262 . S
C231 O215 1.260 . S
C232 Tb168 2.833 . S
C232 O212 1.251 . S
C232 O217 1.256 . S
C232 C225 1.500 . S
C233 H198 0.929 . S
C233 C211 1.444 . S
C233 C234 1.317 . S
C234 H196 0.930 . S
C234 C202 1.432 . S
C234 C233 1.317 . S
C235 O219 1.283 . S
C235 O222 1.243 . S
C236 C237 1.382 . S
C236 C240 1.393 . S
C236 C243 1.500 . S
C237 C236 1.382 . S
C237 C238 1.400 . S
C237 H248 0.930 . S
C238 C237 1.400 . S
C238 C239 1.384 . S
C239 C238 1.384 . S
C239 C241 1.392 . S
C239 H249 0.931 . S
C240 C236 1.393 . S
C240 C241 1.401 . S
C240 H250 0.930 . S
C241 C239 1.392 . S
C241 C240 1.401 . S
C241 H251 0.930 . S
C242 O220 1.262 . S
C242 O221 1.260 . S
C243 Tb179 2.833 . S
C243 O218 1.251 . S
C243 O223 1.256 . S
C243 C236 1.500 . S
H244 C227 0.930 . S
H245 C228 0.931 . S
H246 C229 0.930 . S
H247 C230 0.930 . S
H248 C237 0.930 . S
H249 C239 0.931 . S
H250 C240 0.930 . S
H251 C241 0.930 . S
Tb252 N283 2.660 . S
Tb252 N290 2.600 . S
Tb252 O296 2.546 . S
Tb252 O297 2.610 . S
Tb252 O299 2.320 . S
Tb252 O300 2.552 . S
Tb252 O301 2.413 . S
Tb252 O303 2.362 . S
Tb252 O304 2.421 . S
Tb252 C316 2.833 . S
C253 C256 1.432 . S
C253 C257 1.414 . S
C253 N260 1.359 . S
C254 C256 1.417 . S
C254 C258 1.432 . S
C254 C266 1.410 . S
C255 C257 1.444 . S
C255 C258 1.317 . S
C255 H278 0.929 . S
C256 C253 1.432 . S
C256 C254 1.417 . S
C256 N264 1.360 . S
C257 C253 1.414 . S
C257 C255 1.444 . S
C257 C262 1.385 . S
C258 C254 1.432 . S
C258 C255 1.317 . S
C258 H270 0.930 . S
C259 C261 1.392 . S
C259 C262 1.370 . S
C259 H271 0.931 . S
N260 C253 1.359 . S
N260 C261 1.327 . S
N260 Tb263 2.600 . S
C261 C259 1.392 . S
C261 N260 1.327 . S
C261 H268 0.930 . S
C262 C257 1.385 . S
C262 C259 1.370 . S
C262 H281 0.930 . S
Tb263 N260 2.600 . S
Tb263 N264 2.660 . S
Tb263 O297 2.362 . S
Tb263 O298 2.421 . S
Tb263 O302 2.546 . S
Tb263 O303 2.610 . S
Tb263 O305 2.320 . S
Tb263 O306 2.552 . S
Tb263 O307 2.413 . S
Tb263 C327 2.833 . S
N264 C256 1.360 . S
N264 Tb263 2.660 . S
N264 C265 1.305 . S
C265 N264 1.305 . S
C265 C267 1.407 . S
C265 H272 0.930 . S
C266 C254 1.410 . S
C266 C267 1.345 . S
C266 H274 0.930 . S
C267 C265 1.407 . S
C267 C266 1.345 . S
C267 H269 0.930 . S
H268 C261 0.930 . S
H269 C267 0.930 . S
H270 C258 0.930 . S
H271 C259 0.931 . S
H272 C265 0.930 . S
H273 C287 0.930 . S
H274 C266 0.930 . S
H275 C293 0.930 . S
H276 C284 0.930 . S
H277 C291 0.931 . S
H278 C255 0.929 . S
H279 C285 0.930 . S
H280 C318 0.930 . S
H281 C262 0.930 . S
H282 C317 0.929 . S
N283 Tb252 2.660 . S
N283 C284 1.305 . S
N283 C288 1.360 . S
C284 H276 0.930 . S
C284 N283 1.305 . S
C284 C287 1.407 . S
C285 H279 0.930 . S
C285 C286 1.410 . S
C285 C287 1.345 . S
C286 C285 1.410 . S
C286 C288 1.417 . S
C286 C318 1.432 . S
C287 H273 0.930 . S
C287 C284 1.407 . S
C287 C285 1.345 . S
C288 N283 1.360 . S
C288 C286 1.417 . S
C288 C292 1.432 . S
H289 C294 0.930 . S
N290 Tb252 2.600 . S
N290 C292 1.359 . S
N290 C293 1.327 . S
C291 H277 0.931 . S
C291 C293 1.392 . S
C291 C294 1.370 . S
C292 C288 1.432 . S
C292 N290 1.359 . S
C292 C295 1.414 . S
C293 H275 0.930 . S
C293 N290 1.327 . S
C293 C291 1.392 . S
C294 H289 0.930 . S
C294 C291 1.370 . S
C294 C295 1.385 . S
C295 C292 1.414 . S
C295 C294 1.385 . S
C295 C317 1.444 . S
O296 Tb252 2.546 . S
O296 C316 1.251 . S
O297 Tb252 2.610 . S
O297 Tb263 2.362 . S
O297 C308 1.283 . S
O298 Tb263 2.421 . S
O298 C315 1.262 . S
O299 Tb252 2.320 . S
O299 C315 1.260 . S
O300 Tb252 2.552 . S
O300 C308 1.243 . S
O301 Tb252 2.413 . S
O301 C316 1.256 . S
O302 Tb263 2.546 . S
O302 C327 1.251 . S
O303 Tb252 2.362 . S
O303 Tb263 2.610 . S
O303 C319 1.283 . S
O304 Tb252 2.421 . S
O304 C326 1.262 . S
O305 Tb263 2.320 . S
O305 C326 1.260 . S
O306 Tb263 2.552 . S
O306 C319 1.243 . S
O307 Tb263 2.413 . S
O307 C327 1.256 . S
C308 O297 1.283 . S
C308 O300 1.243 . S
C309 C311 1.382 . S
C309 C313 1.393 . S
C309 C316 1.500 . S
C310 C311 1.400 . S
C310 C312 1.384 . S
C311 C309 1.382 . S
C311 C310 1.400 . S
C311 H328 0.930 . S
C312 C310 1.384 . S
C312 C314 1.392 . S
C312 H329 0.931 . S
C313 C309 1.393 . S
C313 C314 1.401 . S
C313 H330 0.930 . S
C314 C312 1.392 . S
C314 C313 1.401 . S
C314 H331 0.930 . S
C315 O298 1.262 . S
C315 O299 1.260 . S
C316 Tb252 2.833 . S
C316 O296 1.251 . S
C316 O301 1.256 . S
C316 C309 1.500 . S
C317 H282 0.929 . S
C317 C295 1.444 . S
C317 C318 1.317 . S
C318 H280 0.930 . S
C318 C286 1.432 . S
C318 C317 1.317 . S
C319 O303 1.283 . S
C319 O306 1.243 . S
C320 C321 1.382 . S
C320 C324 1.393 . S
C320 C327 1.500 . S
C321 C320 1.382 . S
C321 C322 1.400 . S
C321 H332 0.930 . S
C322 C321 1.400 . S
C322 C323 1.384 . S
C323 C322 1.384 . S
C323 C325 1.392 . S
C323 H333 0.931 . S
C324 C320 1.393 . S
C324 C325 1.401 . S
C324 H334 0.930 . S
C325 C323 1.392 . S
C325 C324 1.401 . S
C325 H335 0.930 . S
C326 O304 1.262 . S
C326 O305 1.260 . S
C327 Tb263 2.833 . S
C327 O302 1.251 . S
C327 O307 1.256 . S
C327 C320 1.500 . S
H328 C311 0.930 . S
H329 C312 0.931 . S
H330 C313 0.930 . S
H331 C314 0.930 . S
H332 C321 0.930 . S
H333 C323 0.931 . S
H334 C324 0.930 . S
H335 C325 0.930 . S
Tb336 N367 2.660 . S
Tb336 N374 2.600 . S
Tb336 O380 2.546 . S
Tb336 O381 2.610 . S
Tb336 O383 2.320 . S
Tb336 O384 2.552 . S
Tb336 O385 2.413 . S
Tb336 O387 2.362 . S
Tb336 O388 2.421 . S
Tb336 C400 2.833 . S
C337 C340 1.432 . S
C337 C341 1.414 . S
C337 N344 1.359 . S
C338 C340 1.417 . S
C338 C342 1.432 . S
C338 C350 1.410 . S
C339 C341 1.444 . S
C339 C342 1.317 . S
C339 H362 0.929 . S
C340 C337 1.432 . S
C340 C338 1.417 . S
C340 N348 1.360 . S
C341 C337 1.414 . S
C341 C339 1.444 . S
C341 C346 1.385 . S
C342 C338 1.432 . S
C342 C339 1.317 . S
C342 H354 0.930 . S
C343 C345 1.392 . S
C343 C346 1.370 . S
C343 H355 0.931 . S
N344 C337 1.359 . S
N344 C345 1.327 . S
N344 Tb347 2.600 . S
C345 C343 1.392 . S
C345 N344 1.327 . S
C345 H352 0.930 . S
C346 C341 1.385 . S
C346 C343 1.370 . S
C346 H365 0.930 . S
Tb347 N344 2.600 . S
Tb347 N348 2.660 . S
Tb347 O381 2.362 . S
Tb347 O382 2.421 . S
Tb347 O386 2.546 . S
Tb347 O387 2.610 . S
Tb347 O389 2.320 . S
Tb347 O390 2.552 . S
Tb347 O391 2.413 . S
Tb347 C411 2.833 . S
N348 C340 1.360 . S
N348 Tb347 2.660 . S
N348 C349 1.305 . S
C349 N348 1.305 . S
C349 C351 1.407 . S
C349 H356 0.930 . S
C350 C338 1.410 . S
C350 C351 1.345 . S
C350 H358 0.930 . S
C351 C349 1.407 . S
C351 C350 1.345 . S
C351 H353 0.930 . S
H352 C345 0.930 . S
H353 C351 0.930 . S
H354 C342 0.930 . S
H355 C343 0.931 . S
H356 C349 0.930 . S
H357 C371 0.930 . S
H358 C350 0.930 . S
H359 C377 0.930 . S
H360 C368 0.930 . S
H361 C375 0.931 . S
H362 C339 0.929 . S
H363 C369 0.930 . S
H364 C402 0.930 . S
H365 C346 0.930 . S
H366 C401 0.929 . S
N367 Tb336 2.660 . S
N367 C368 1.305 . S
N367 C372 1.360 . S
C368 H360 0.930 . S
C368 N367 1.305 . S
C368 C371 1.407 . S
C369 H363 0.930 . S
C369 C370 1.410 . S
C369 C371 1.345 . S
C370 C369 1.410 . S
C370 C372 1.417 . S
C370 C402 1.432 . S
C371 H357 0.930 . S
C371 C368 1.407 . S
C371 C369 1.345 . S
C372 N367 1.360 . S
C372 C370 1.417 . S
C372 C376 1.432 . S
H373 C378 0.930 . S
N374 Tb336 2.600 . S
N374 C376 1.359 . S
N374 C377 1.327 . S
C375 H361 0.931 . S
C375 C377 1.392 . S
C375 C378 1.370 . S
C376 C372 1.432 . S
C376 N374 1.359 . S
C376 C379 1.414 . S
C377 H359 0.930 . S
C377 N374 1.327 . S
C377 C375 1.392 . S
C378 H373 0.930 . S
C378 C375 1.370 . S
C378 C379 1.385 . S
C379 C376 1.414 . S
C379 C378 1.385 . S
C379 C401 1.444 . S
O380 Tb336 2.546 . S
O380 C400 1.251 . S
O381 Tb336 2.610 . S
O381 Tb347 2.362 . S
O381 C392 1.283 . S
O382 Tb347 2.421 . S
O382 C399 1.262 . S
O383 Tb336 2.320 . S
O383 C399 1.260 . S
O384 Tb336 2.552 . S
O384 C392 1.243 . S
O385 Tb336 2.413 . S
O385 C400 1.256 . S
O386 Tb347 2.546 . S
O386 C411 1.251 . S
O387 Tb336 2.362 . S
O387 Tb347 2.610 . S
O387 C403 1.283 . S
O388 Tb336 2.421 . S
O388 C410 1.262 . S
O389 Tb347 2.320 . S
O389 C410 1.260 . S
O390 Tb347 2.552 . S
O390 C403 1.243 . S
O391 Tb347 2.413 . S
O391 C411 1.256 . S
C392 O381 1.283 . S
C392 O384 1.243 . S
C393 C395 1.382 . S
C393 C397 1.393 . S
C393 C400 1.500 . S
C394 C395 1.400 . S
C394 C396 1.384 . S
C395 C393 1.382 . S
C395 C394 1.400 . S
C395 H412 0.930 . S
C396 C394 1.384 . S
C396 C398 1.392 . S
C396 H413 0.931 . S
C397 C393 1.393 . S
C397 C398 1.401 . S
C397 H414 0.930 . S
C398 C396 1.392 . S
C398 C397 1.401 . S
C398 H415 0.930 . S
C399 O382 1.262 . S
C399 O383 1.260 . S
C400 Tb336 2.833 . S
C400 O380 1.251 . S
C400 O385 1.256 . S
C400 C393 1.500 . S
C401 H366 0.929 . S
C401 C379 1.444 . S
C401 C402 1.317 . S
C402 H364 0.930 . S
C402 C370 1.432 . S
C402 C401 1.317 . S
C403 O387 1.283 . S
C403 O390 1.243 . S
C404 C405 1.382 . S
C404 C408 1.393 . S
C404 C411 1.500 . S
C405 C404 1.382 . S
C405 C406 1.400 . S
C405 H416 0.930 . S
C406 C405 1.400 . S
C406 C407 1.384 . S
C407 C406 1.384 . S
C407 C409 1.392 . S
C407 H417 0.931 . S
C408 C404 1.393 . S
C408 C409 1.401 . S
C408 H418 0.930 . S
C409 C407 1.392 . S
C409 C408 1.401 . S
C409 H419 0.930 . S
C410 O388 1.262 . S
C410 O389 1.260 . S
C411 Tb347 2.833 . S
C411 O386 1.251 . S
C411 O391 1.256 . S
C411 C404 1.500 . S
H412 C395 0.930 . S
H413 C396 0.931 . S
H414 C397 0.930 . S
H415 C398 0.930 . S
H416 C405 0.930 . S
H417 C407 0.931 . S
H418 C408 0.930 . S
H419 C409 0.930 . S
Tb420 N451 2.660 . S
Tb420 N458 2.600 . S
Tb420 O464 2.546 . S
Tb420 O465 2.610 . S
Tb420 O467 2.320 . S
Tb420 O468 2.552 . S
Tb420 O469 2.413 . S
Tb420 O471 2.362 . S
Tb420 O472 2.421 . S
Tb420 C484 2.833 . S
C421 C424 1.432 . S
C421 C425 1.414 . S
C421 N428 1.359 . S
C422 C424 1.417 . S
C422 C426 1.432 . S
C422 C434 1.410 . S
C423 C425 1.444 . S
C423 C426 1.317 . S
C423 H446 0.929 . S
C424 C421 1.432 . S
C424 C422 1.417 . S
C424 N432 1.360 . S
C425 C421 1.414 . S
C425 C423 1.444 . S
C425 C430 1.385 . S
C426 C422 1.432 . S
C426 C423 1.317 . S
C426 H438 0.930 . S
C427 C429 1.392 . S
C427 C430 1.370 . S
C427 H439 0.931 . S
N428 C421 1.359 . S
N428 C429 1.327 . S
N428 Tb431 2.600 . S
C429 C427 1.392 . S
C429 N428 1.327 . S
C429 H436 0.930 . S
C430 C425 1.385 . S
C430 C427 1.370 . S
C430 H449 0.930 . S
Tb431 N428 2.600 . S
Tb431 N432 2.660 . S
Tb431 O465 2.362 . S
Tb431 O466 2.421 . S
Tb431 O470 2.546 . S
Tb431 O471 2.610 . S
Tb431 O473 2.320 . S
Tb431 O474 2.552 . S
Tb431 O475 2.413 . S
Tb431 C495 2.833 . S
N432 C424 1.360 . S
N432 Tb431 2.660 . S
N432 C433 1.305 . S
C433 N432 1.305 . S
C433 C435 1.407 . S
C433 H440 0.930 . S
C434 C422 1.410 . S
C434 C435 1.345 . S
C434 H442 0.930 . S
C435 C433 1.407 . S
C435 C434 1.345 . S
C435 H437 0.930 . S
H436 C429 0.930 . S
H437 C435 0.930 . S
H438 C426 0.930 . S
H439 C427 0.931 . S
H440 C433 0.930 . S
H441 C455 0.930 . S
H442 C434 0.930 . S
H443 C461 0.930 . S
H444 C452 0.930 . S
H445 C459 0.931 . S
H446 C423 0.929 . S
H447 C453 0.930 . S
H448 C486 0.930 . S
H449 C430 0.930 . S
H450 C485 0.929 . S
N451 Tb420 2.660 . S
N451 C452 1.305 . S
N451 C456 1.360 . S
C452 H444 0.930 . S
C452 N451 1.305 . S
C452 C455 1.407 . S
C453 H447 0.930 . S
C453 C454 1.410 . S
C453 C455 1.345 . S
C454 C453 1.410 . S
C454 C456 1.417 . S
C454 C486 1.432 . S
C455 H441 0.930 . S
C455 C452 1.407 . S
C455 C453 1.345 . S
C456 N451 1.360 . S
C456 C454 1.417 . S
C456 C460 1.432 . S
H457 C462 0.930 . S
N458 Tb420 2.600 . S
N458 C460 1.359 . S
N458 C461 1.327 . S
C459 H445 0.931 . S
C459 C461 1.392 . S
C459 C462 1.370 . S
C460 C456 1.432 . S
C460 N458 1.359 . S
C460 C463 1.414 . S
C461 H443 0.930 . S
C461 N458 1.327 . S
C461 C459 1.392 . S
C462 H457 0.930 . S
C462 C459 1.370 . S
C462 C463 1.385 . S
C463 C460 1.414 . S
C463 C462 1.385 . S
C463 C485 1.444 . S
O464 Tb420 2.546 . S
O464 C484 1.251 . S
O465 Tb420 2.610 . S
O465 Tb431 2.362 . S
O465 C476 1.283 . S
O466 Tb431 2.421 . S
O466 C483 1.262 . S
O467 Tb420 2.320 . S
O467 C483 1.260 . S
O468 Tb420 2.552 . S
O468 C476 1.243 . S
O469 Tb420 2.413 . S
O469 C484 1.256 . S
O470 Tb431 2.546 . S
O470 C495 1.251 . S
O471 Tb420 2.362 . S
O471 Tb431 2.610 . S
O471 C487 1.283 . S
O472 Tb420 2.421 . S
O472 C494 1.262 . S
O473 Tb431 2.320 . S
O473 C494 1.260 . S
O474 Tb431 2.552 . S
O474 C487 1.243 . S
O475 Tb431 2.413 . S
O475 C495 1.256 . S
C476 O465 1.283 . S
C476 O468 1.243 . S
C477 C479 1.382 . S
C477 C481 1.393 . S
C477 C484 1.500 . S
C478 C479 1.400 . S
C478 C480 1.384 . S
C479 C477 1.382 . S
C479 C478 1.400 . S
C479 H496 0.930 . S
C480 C478 1.384 . S
C480 C482 1.392 . S
C480 H497 0.931 . S
C481 C477 1.393 . S
C481 C482 1.401 . S
C481 H498 0.930 . S
C482 C480 1.392 . S
C482 C481 1.401 . S
C482 H499 0.930 . S
C483 O466 1.262 . S
C483 O467 1.260 . S
C484 Tb420 2.833 . S
C484 O464 1.251 . S
C484 O469 1.256 . S
C484 C477 1.500 . S
C485 H450 0.929 . S
C485 C463 1.444 . S
C485 C486 1.317 . S
C486 H448 0.930 . S
C486 C454 1.432 . S
C486 C485 1.317 . S
C487 O471 1.283 . S
C487 O474 1.243 . S
C488 C489 1.382 . S
C488 C492 1.393 . S
C488 C495 1.500 . S
C489 C488 1.382 . S
C489 C490 1.400 . S
C489 H500 0.930 . S
C490 C489 1.400 . S
C490 C491 1.384 . S
C491 C490 1.384 . S
C491 C493 1.392 . S
C491 H501 0.931 . S
C492 C488 1.393 . S
C492 C493 1.401 . S
C492 H502 0.930 . S
C493 C491 1.392 . S
C493 C492 1.401 . S
C493 H503 0.930 . S
C494 O472 1.262 . S
C494 O473 1.260 . S
C495 Tb431 2.833 . S
C495 O470 1.251 . S
C495 O475 1.256 . S
C495 C488 1.500 . S
H496 C479 0.930 . S
H497 C480 0.931 . S
H498 C481 0.930 . S
H499 C482 0.930 . S
H500 C489 0.930 . S
H501 C491 0.931 . S
H502 C492 0.930 . S
H503 C493 0.930 . S
Tb504 N535 2.660 . S
Tb504 N542 2.600 . S
Tb504 O548 2.546 . S
Tb504 O549 2.610 . S
Tb504 O551 2.320 . S
Tb504 O552 2.552 . S
Tb504 O553 2.413 . S
Tb504 O555 2.362 . S
Tb504 O556 2.421 . S
Tb504 C568 2.833 . S
C505 C508 1.432 . S
C505 C509 1.414 . S
C505 N512 1.359 . S
C506 C508 1.417 . S
C506 C510 1.432 . S
C506 C518 1.410 . S
C507 C509 1.444 . S
C507 C510 1.317 . S
C507 H530 0.929 . S
C508 C505 1.432 . S
C508 C506 1.417 . S
C508 N516 1.360 . S
C509 C505 1.414 . S
C509 C507 1.444 . S
C509 C514 1.385 . S
C510 C506 1.432 . S
C510 C507 1.317 . S
C510 H522 0.930 . S
C511 C513 1.392 . S
C511 C514 1.370 . S
C511 H523 0.931 . S
N512 C505 1.359 . S
N512 C513 1.327 . S
N512 Tb515 2.600 . S
C513 C511 1.392 . S
C513 N512 1.327 . S
C513 H520 0.930 . S
C514 C509 1.385 . S
C514 C511 1.370 . S
C514 H533 0.930 . S
Tb515 N512 2.600 . S
Tb515 N516 2.660 . S
Tb515 O549 2.362 . S
Tb515 O550 2.421 . S
Tb515 O554 2.546 . S
Tb515 O555 2.610 . S
Tb515 O557 2.320 . S
Tb515 O558 2.552 . S
Tb515 O559 2.413 . S
Tb515 C579 2.833 . S
N516 C508 1.360 . S
N516 Tb515 2.660 . S
N516 C517 1.305 . S
C517 N516 1.305 . S
C517 C519 1.407 . S
C517 H524 0.930 . S
C518 C506 1.410 . S
C518 C519 1.345 . S
C518 H526 0.930 . S
C519 C517 1.407 . S
C519 C518 1.345 . S
C519 H521 0.930 . S
H520 C513 0.930 . S
H521 C519 0.930 . S
H522 C510 0.930 . S
H523 C511 0.931 . S
H524 C517 0.930 . S
H525 C539 0.930 . S
H526 C518 0.930 . S
H527 C545 0.930 . S
H528 C536 0.930 . S
H529 C543 0.931 . S
H530 C507 0.929 . S
H531 C537 0.930 . S
H532 C570 0.930 . S
H533 C514 0.930 . S
H534 C569 0.929 . S
N535 Tb504 2.660 . S
N535 C536 1.305 . S
N535 C540 1.360 . S
C536 H528 0.930 . S
C536 N535 1.305 . S
C536 C539 1.407 . S
C537 H531 0.930 . S
C537 C538 1.410 . S
C537 C539 1.345 . S
C538 C537 1.410 . S
C538 C540 1.417 . S
C538 C570 1.432 . S
C539 H525 0.930 . S
C539 C536 1.407 . S
C539 C537 1.345 . S
C540 N535 1.360 . S
C540 C538 1.417 . S
C540 C544 1.432 . S
H541 C546 0.930 . S
N542 Tb504 2.600 . S
N542 C544 1.359 . S
N542 C545 1.327 . S
C543 H529 0.931 . S
C543 C545 1.392 . S
C543 C546 1.370 . S
C544 C540 1.432 . S
C544 N542 1.359 . S
C544 C547 1.414 . S
C545 H527 0.930 . S
C545 N542 1.327 . S
C545 C543 1.392 . S
C546 H541 0.930 . S
C546 C543 1.370 . S
C546 C547 1.385 . S
C547 C544 1.414 . S
C547 C546 1.385 . S
C547 C569 1.444 . S
O548 Tb504 2.546 . S
O548 C568 1.251 . S
O549 Tb504 2.610 . S
O549 Tb515 2.362 . S
O549 C560 1.283 . S
O550 Tb515 2.421 . S
O550 C567 1.262 . S
O551 Tb504 2.320 . S
O551 C567 1.260 . S
O552 Tb504 2.552 . S
O552 C560 1.243 . S
O553 Tb504 2.413 . S
O553 C568 1.256 . S
O554 Tb515 2.546 . S
O554 C579 1.251 . S
O555 Tb504 2.362 . S
O555 Tb515 2.610 . S
O555 C571 1.283 . S
O556 Tb504 2.421 . S
O556 C578 1.262 . S
O557 Tb515 2.320 . S
O557 C578 1.260 . S
O558 Tb515 2.552 . S
O558 C571 1.243 . S
O559 Tb515 2.413 . S
O559 C579 1.256 . S
C560 O549 1.283 . S
C560 O552 1.243 . S
C561 C563 1.382 . S
C561 C565 1.393 . S
C561 C568 1.500 . S
C562 C563 1.400 . S
C562 C564 1.384 . S
C563 C561 1.382 . S
C563 C562 1.400 . S
C563 H580 0.930 . S
C564 C562 1.384 . S
C564 C566 1.392 . S
C564 H581 0.931 . S
C565 C561 1.393 . S
C565 C566 1.401 . S
C565 H582 0.930 . S
C566 C564 1.392 . S
C566 C565 1.401 . S
C566 H583 0.930 . S
C567 O550 1.262 . S
C567 O551 1.260 . S
C568 Tb504 2.833 . S
C568 O548 1.251 . S
C568 O553 1.256 . S
C568 C561 1.500 . S
C569 H534 0.929 . S
C569 C547 1.444 . S
C569 C570 1.317 . S
C570 H532 0.930 . S
C570 C538 1.432 . S
C570 C569 1.317 . S
C571 O555 1.283 . S
C571 O558 1.243 . S
C572 C573 1.382 . S
C572 C576 1.393 . S
C572 C579 1.500 . S
C573 C572 1.382 . S
C573 C574 1.400 . S
C573 H584 0.930 . S
C574 C573 1.400 . S
C574 C575 1.384 . S
C575 C574 1.384 . S
C575 C577 1.392 . S
C575 H585 0.931 . S
C576 C572 1.393 . S
C576 C577 1.401 . S
C576 H586 0.930 . S
C577 C575 1.392 . S
C577 C576 1.401 . S
C577 H587 0.930 . S
C578 O556 1.262 . S
C578 O557 1.260 . S
C579 Tb515 2.833 . S
C579 O554 1.251 . S
C579 O559 1.256 . S
C579 C572 1.500 . S
H580 C563 0.930 . S
H581 C564 0.931 . S
H582 C565 0.930 . S
H583 C566 0.930 . S
H584 C573 0.930 . S
H585 C575 0.931 . S
H586 C576 0.930 . S
H587 C577 0.930 . S
Tb588 N619 2.660 . S
Tb588 N626 2.600 . S
Tb588 O632 2.546 . S
Tb588 O633 2.610 . S
Tb588 O635 2.320 . S
Tb588 O636 2.552 . S
Tb588 O637 2.413 . S
Tb588 O639 2.362 . S
Tb588 O640 2.421 . S
Tb588 C652 2.833 . S
C589 C592 1.432 . S
C589 C593 1.414 . S
C589 N596 1.359 . S
C590 C592 1.417 . S
C590 C594 1.432 . S
C590 C602 1.410 . S
C591 C593 1.444 . S
C591 C594 1.317 . S
C591 H614 0.929 . S
C592 C589 1.432 . S
C592 C590 1.417 . S
C592 N600 1.360 . S
C593 C589 1.414 . S
C593 C591 1.444 . S
C593 C598 1.385 . S
C594 C590 1.432 . S
C594 C591 1.317 . S
C594 H606 0.930 . S
C595 C597 1.392 . S
C595 C598 1.370 . S
C595 H607 0.931 . S
N596 C589 1.359 . S
N596 C597 1.327 . S
N596 Tb599 2.600 . S
C597 C595 1.392 . S
C597 N596 1.327 . S
C597 H604 0.930 . S
C598 C593 1.385 . S
C598 C595 1.370 . S
C598 H617 0.930 . S
Tb599 N596 2.600 . S
Tb599 N600 2.660 . S
Tb599 O633 2.362 . S
Tb599 O634 2.421 . S
Tb599 O638 2.546 . S
Tb599 O639 2.610 . S
Tb599 O641 2.320 . S
Tb599 O642 2.552 . S
Tb599 O643 2.413 . S
Tb599 C663 2.833 . S
N600 C592 1.360 . S
N600 Tb599 2.660 . S
N600 C601 1.305 . S
C601 N600 1.305 . S
C601 C603 1.407 . S
C601 H608 0.930 . S
C602 C590 1.410 . S
C602 C603 1.345 . S
C602 H610 0.930 . S
C603 C601 1.407 . S
C603 C602 1.345 . S
C603 H605 0.930 . S
H604 C597 0.930 . S
H605 C603 0.930 . S
H606 C594 0.930 . S
H607 C595 0.931 . S
H608 C601 0.930 . S
H609 C623 0.930 . S
H610 C602 0.930 . S
H611 C629 0.930 . S
H612 C620 0.930 . S
H613 C627 0.931 . S
H614 C591 0.929 . S
H615 C621 0.930 . S
H616 C654 0.930 . S
H617 C598 0.930 . S
H618 C653 0.929 . S
N619 Tb588 2.660 . S
N619 C620 1.305 . S
N619 C624 1.360 . S
C620 H612 0.930 . S
C620 N619 1.305 . S
C620 C623 1.407 . S
C621 H615 0.930 . S
C621 C622 1.410 . S
C621 C623 1.345 . S
C622 C621 1.410 . S
C622 C624 1.417 . S
C622 C654 1.432 . S
C623 H609 0.930 . S
C623 C620 1.407 . S
C623 C621 1.345 . S
C624 N619 1.360 . S
C624 C622 1.417 . S
C624 C628 1.432 . S
H625 C630 0.930 . S
N626 Tb588 2.600 . S
N626 C628 1.359 . S
N626 C629 1.327 . S
C627 H613 0.931 . S
C627 C629 1.392 . S
C627 C630 1.370 . S
C628 C624 1.432 . S
C628 N626 1.359 . S
C628 C631 1.414 . S
C629 H611 0.930 . S
C629 N626 1.327 . S
C629 C627 1.392 . S
C630 H625 0.930 . S
C630 C627 1.370 . S
C630 C631 1.385 . S
C631 C628 1.414 . S
C631 C630 1.385 . S
C631 C653 1.444 . S
O632 Tb588 2.546 . S
O632 C652 1.251 . S
O633 Tb588 2.610 . S
O633 Tb599 2.362 . S
O633 C644 1.283 . S
O634 Tb599 2.421 . S
O634 C651 1.262 . S
O635 Tb588 2.320 . S
O635 C651 1.260 . S
O636 Tb588 2.552 . S
O636 C644 1.243 . S
O637 Tb588 2.413 . S
O637 C652 1.256 . S
O638 Tb599 2.546 . S
O638 C663 1.251 . S
O639 Tb588 2.362 . S
O639 Tb599 2.610 . S
O639 C655 1.283 . S
O640 Tb588 2.421 . S
O640 C662 1.262 . S
O641 Tb599 2.320 . S
O641 C662 1.260 . S
O642 Tb599 2.552 . S
O642 C655 1.243 . S
O643 Tb599 2.413 . S
O643 C663 1.256 . S
C644 O633 1.283 . S
C644 O636 1.243 . S
C645 C647 1.382 . S
C645 C649 1.393 . S
C645 C652 1.500 . S
C646 C647 1.400 . S
C646 C648 1.384 . S
C647 C645 1.382 . S
C647 C646 1.400 . S
C647 H664 0.930 . S
C648 C646 1.384 . S
C648 C650 1.392 . S
C648 H665 0.931 . S
C649 C645 1.393 . S
C649 C650 1.401 . S
C649 H666 0.930 . S
C650 C648 1.392 . S
C650 C649 1.401 . S
C650 H667 0.930 . S
C651 O634 1.262 . S
C651 O635 1.260 . S
C652 Tb588 2.833 . S
C652 O632 1.251 . S
C652 O637 1.256 . S
C652 C645 1.500 . S
C653 H618 0.929 . S
C653 C631 1.444 . S
C653 C654 1.317 . S
C654 H616 0.930 . S
C654 C622 1.432 . S
C654 C653 1.317 . S
C655 O639 1.283 . S
C655 O642 1.243 . S
C656 C657 1.382 . S
C656 C660 1.393 . S
C656 C663 1.500 . S
C657 C656 1.382 . S
C657 C658 1.400 . S
C657 H668 0.930 . S
C658 C657 1.400 . S
C658 C659 1.384 . S
C659 C658 1.384 . S
C659 C661 1.392 . S
C659 H669 0.931 . S
C660 C656 1.393 . S
C660 C661 1.401 . S
C660 H670 0.930 . S
C661 C659 1.392 . S
C661 C660 1.401 . S
C661 H671 0.930 . S
C662 O640 1.262 . S
C662 O641 1.260 . S
C663 Tb599 2.833 . S
C663 O638 1.251 . S
C663 O643 1.256 . S
C663 C656 1.500 . S
H664 C647 0.930 . S
H665 C648 0.931 . S
H666 C649 0.930 . S
H667 C650 0.930 . S
H668 C657 0.930 . S
H669 C659 0.931 . S
H670 C660 0.930 . S
H671 C661 0.930 . S
Fe672 O673 1.886 1_455 S
Fe672 O676 1.715 . S
Fe672 O681 2.077 1_455 S
Fe672 O686 1.935 . S
Fe672 O692 2.077 1_455 S
Fe672 O701 1.935 . S
O673 Fe672 1.886 1_655 S
O673 Fe675 1.715 1_545 S
Fe674 O676 1.886 . S
Fe674 O677 1.715 1_545 S
Fe674 O684 1.935 1_545 S
Fe674 O685 2.077 . S
Fe674 O691 1.935 1_545 S
Fe674 O700 2.077 . S
Fe675 O673 1.715 1_565 S
Fe675 O678 1.886 . S
Fe675 O682 1.935 1_565 S
Fe675 O687 2.077 . S
Fe675 O693 1.935 1_565 S
Fe675 O697 2.077 . S
O676 Fe672 1.715 . S
O676 Fe674 1.886 . S
O677 Fe674 1.715 1_565 S
O677 Fe679 1.886 1_455 S
O678 Fe675 1.886 . S
O678 Fe679 1.715 . S
Fe679 O677 1.886 1_655 S
Fe679 O678 1.715 . S
Fe679 O683 2.077 1_655 S
Fe679 O688 1.935 . S
Fe679 O690 2.077 1_655 S
Fe679 O698 1.935 . S
C680 O692 1.381 . S
C680 O693 1.421 . S
O681 Fe672 2.077 1_655 S
O681 C694 1.381 . S
O682 Fe675 1.935 1_545 S
O682 C694 1.421 . S
O683 Fe679 2.077 1_455 S
O683 C699 1.381 . S
O684 Fe674 1.935 1_565 S
O684 C699 1.421 . S
O685 Fe674 2.077 . S
O685 C689 1.381 . S
O686 Fe672 1.935 . S
O686 C689 1.421 . S
O687 Fe675 2.077 . S
O687 C695 1.381 . S
O688 Fe679 1.935 . S
O688 C695 1.421 . S
C689 O685 1.381 . S
C689 O686 1.421 . S
O690 Fe679 2.077 1_455 S
O690 C702 1.381 . S
O691 Fe674 1.935 1_565 S
O691 C702 1.421 . S
O692 Fe672 2.077 1_655 S
O692 C680 1.381 . S
O693 Fe675 1.935 1_545 S
O693 C680 1.421 . S
C694 O681 1.381 . S
C694 O682 1.421 . S
C695 O687 1.381 . S
C695 O688 1.421 . S
C696 O697 1.381 . S
C696 O698 1.421 . S
O697 Fe675 2.077 . S
O697 C696 1.381 . S
O698 Fe679 1.935 . S
O698 C696 1.421 . S
C699 O683 1.381 . S
C699 O684 1.421 . S
O700 Fe674 2.077 . S
O700 C703 1.381 . S
O701 Fe672 1.935 . S
O701 C703 1.421 . S
C702 O690 1.381 . S
C702 O691 1.421 . S
C703 O700 1.381 . S
C703 O701 1.421 . S
Fe704 O705 1.886 . S
Fe704 O708 1.714 . S
Fe704 O713 2.077 1_554 S
Fe704 O718 1.935 1_554 S
Fe704 O724 2.077 . S
Fe704 O733 1.935 . S
O705 Fe704 1.886 . S
O705 Fe707 1.715 1_565 S
Fe706 O708 1.887 1_556 S
Fe706 O709 1.715 1_565 S
Fe706 O716 1.935 1_565 S
Fe706 O717 2.077 . S
Fe706 O723 1.935 1_566 S
Fe706 O732 2.077 1_556 S
Fe707 O705 1.715 1_545 S
Fe707 O710 1.886 1_554 S
Fe707 O714 1.935 1_544 S
Fe707 O719 2.077 1_554 S
Fe707 O725 1.935 1_545 S
Fe707 O729 2.077 . S
O708 Fe704 1.714 . S
O708 Fe706 1.887 1_554 S
O709 Fe706 1.715 1_545 S
O709 Fe711 1.886 . S
O710 Fe707 1.886 1_556 S
O710 Fe711 1.715 . S
Fe711 O709 1.886 . S
Fe711 O710 1.715 . S
Fe711 O715 2.077 . S
Fe711 O720 1.935 . S
Fe711 O722 2.077 1_556 S
Fe711 O730 1.935 1_556 S
C712 O724 1.381 . S
C712 O725 1.421 . S
O713 Fe704 2.077 1_556 S
O713 C726 1.381 . S
O714 Fe707 1.935 1_566 S
O714 C726 1.421 . S
O715 Fe711 2.077 . S
O715 C731 1.381 . S
O716 Fe706 1.935 1_545 S
O716 C731 1.421 . S
O717 Fe706 2.077 . S
O717 C721 1.381 . S
O718 Fe704 1.935 1_556 S
O718 C721 1.421 . S
O719 Fe707 2.077 1_556 S
O719 C727 1.381 . S
O720 Fe711 1.935 . S
O720 C727 1.421 . S
C721 O717 1.381 . S
C721 O718 1.421 . S
O722 Fe711 2.077 1_554 S
O722 C734 1.381 . S
O723 Fe706 1.935 1_544 S
O723 C734 1.421 . S
O724 Fe704 2.077 . S
O724 C712 1.381 . S
O725 Fe707 1.935 1_565 S
O725 C712 1.421 . S
C726 O713 1.381 . S
C726 O714 1.421 . S
C727 O719 1.381 . S
C727 O720 1.421 . S
C728 O729 1.381 . S
C728 O730 1.421 . S
O729 Fe707 2.077 . S
O729 C728 1.381 . S
O730 Fe711 1.935 1_554 S
O730 C728 1.421 . S
C731 O715 1.381 . S
C731 O716 1.421 . S
O732 Fe706 2.077 1_554 S
O732 C735 1.381 . S
O733 Fe704 1.935 . S
O733 C735 1.421 . S
C734 O722 1.381 . S
C734 O723 1.421 . S
C735 O732 1.381 . S
C735 O733 1.421 . S
Fe736 O737 1.886 1_455 S
Fe736 O740 1.715 . S
Fe736 O745 2.077 1_455 S
Fe736 O750 1.935 . S
Fe736 O756 2.077 1_456 S
Fe736 O765 1.935 1_556 S
O737 Fe736 1.886 1_655 S
O737 Fe739 1.715 . S
Fe738 O740 1.886 1_554 S
Fe738 O741 1.715 . S
Fe738 O748 1.935 1_554 S
Fe738 O749 2.077 1_554 S
Fe738 O755 1.935 . S
Fe738 O764 2.077 . S
Fe739 O737 1.715 . S
Fe739 O742 1.886 1_556 S
Fe739 O746 1.935 . S
Fe739 O751 2.077 . S
Fe739 O757 1.935 1_556 S
Fe739 O761 2.077 1_556 S
O740 Fe736 1.715 . S
O740 Fe738 1.886 1_556 S
O741 Fe738 1.715 . S
O741 Fe743 1.886 1_455 S
O742 Fe739 1.886 1_554 S
O742 Fe743 1.714 . S
Fe743 O741 1.886 1_655 S
Fe743 O742 1.714 . S
Fe743 O747 2.077 1_654 S
Fe743 O752 1.935 1_554 S
Fe743 O754 2.077 1_655 S
Fe743 O762 1.935 . S
C744 O756 1.381 . S
C744 O757 1.421 . S
O745 Fe736 2.077 1_655 S
O745 C758 1.381 . S
O746 Fe739 1.935 . S
O746 C758 1.421 . S
O747 Fe743 2.077 1_456 S
O747 C763 1.381 . S
O748 Fe738 1.935 1_556 S
O748 C763 1.421 . S
O749 Fe738 2.077 1_556 S
O749 C753 1.381 . S
O750 Fe736 1.935 . S
O750 C753 1.421 . S
O751 Fe739 2.077 . S
O751 C759 1.381 . S
O752 Fe743 1.935 1_556 S
O752 C759 1.421 . S
C753 O749 1.381 . S
C753 O750 1.421 . S
O754 Fe743 2.077 1_455 S
O754 C766 1.381 . S
O755 Fe738 1.935 . S
O755 C766 1.421 . S
O756 Fe736 2.077 1_654 S
O756 C744 1.381 . S
O757 Fe739 1.935 1_554 S
O757 C744 1.421 . S
C758 O745 1.381 . S
C758 O746 1.421 . S
C759 O751 1.381 . S
C759 O752 1.421 . S
C760 O761 1.381 . S
C760 O762 1.421 . S
O761 Fe739 2.077 1_554 S
O761 C760 1.381 . S
O762 Fe743 1.935 . S
O762 C760 1.421 . S
C763 O747 1.381 . S
C763 O748 1.421 . S
O764 Fe738 2.077 . S
O764 C767 1.381 . S
O765 Fe736 1.935 1_554 S
O765 C767 1.421 . S
C766 O754 1.381 . S
C766 O755 1.421 . S
C767 O764 1.381 . S
C767 O765 1.421 . S
Fe768 O769 1.886 . S
Fe768 O772 1.715 . S
Fe768 O777 2.077 . S
Fe768 O782 1.935 . S
Fe768 O788 2.077 . S
Fe768 O797 1.935 . S
O769 Fe768 1.886 . S
O769 Fe771 1.715 1_556 S
Fe770 O772 1.886 . S
Fe770 O773 1.715 1_556 S
Fe770 O780 1.935 1_556 S
Fe770 O781 2.077 . S
Fe770 O787 1.935 1_556 S
Fe770 O796 2.077 . S
Fe771 O769 1.715 1_554 S
Fe771 O774 1.886 . S
Fe771 O778 1.935 1_554 S
Fe771 O783 2.077 . S
Fe771 O789 1.935 1_554 S
Fe771 O793 2.077 . S
O772 Fe768 1.715 . S
O772 Fe770 1.886 . S
O773 Fe770 1.715 1_554 S
O773 Fe775 1.886 . S
O774 Fe771 1.886 . S
O774 Fe775 1.715 . S
Fe775 O773 1.886 . S
Fe775 O774 1.715 . S
Fe775 O779 2.077 . S
Fe775 O784 1.935 . S
Fe775 O786 2.077 . S
Fe775 O794 1.935 . S
C776 O788 1.381 . S
C776 O789 1.421 . S
O777 Fe768 2.077 . S
O777 C790 1.381 . S
O778 Fe771 1.935 1_556 S
O778 C790 1.421 . S
O779 Fe775 2.077 . S
O779 C795 1.381 . S
O780 Fe770 1.935 1_554 S
O780 C795 1.421 . S
O781 Fe770 2.077 . S
O781 C785 1.381 . S
O782 Fe768 1.935 . S
O782 C785 1.421 . S
O783 Fe771 2.077 . S
O783 C791 1.381 . S
O784 Fe775 1.935 . S
O784 C791 1.421 . S
C785 O781 1.381 . S
C785 O782 1.421 . S
O786 Fe775 2.077 . S
O786 C798 1.381 . S
O787 Fe770 1.935 1_554 S
O787 C798 1.421 . S
O788 Fe768 2.077 . S
O788 C776 1.381 . S
O789 Fe771 1.935 1_556 S
O789 C776 1.421 . S
C790 O777 1.381 . S
C790 O778 1.421 . S
C791 O783 1.381 . S
C791 O784 1.421 . S
C792 O793 1.381 . S
C792 O794 1.421 . S
O793 Fe771 2.077 . S
O793 C792 1.381 . S
O794 Fe775 1.935 . S
O794 C792 1.421 . S
C795 O779 1.381 . S
C795 O780 1.421 . S
O796 Fe770 2.077 . S
O796 C799 1.381 . S
O797 Fe768 1.935 . S
O797 C799 1.421 . S
C798 O786 1.381 . S
C798 O787 1.421 . S
C799 O796 1.381 . S
C799 O797 1.421 . S
Fe800 O801 1.886 . S
Fe800 O804 1.715 . S
Fe800 O809 2.077 1_655 S
Fe800 O814 1.935 1_655 S
Fe800 O820 2.077 . S
Fe800 O829 1.935 . S
O801 Fe800 1.886 . S
O801 Fe803 1.715 1_655 S
Fe802 O804 1.886 . S
Fe802 O805 1.715 1_655 S
Fe802 O812 1.935 1_655 S
Fe802 O813 2.077 1_655 S
Fe802 O819 1.935 . S
Fe802 O828 2.077 . S
Fe803 O801 1.715 1_455 S
Fe803 O806 1.886 . S
Fe803 O810 1.935 . S
Fe803 O815 2.077 . S
Fe803 O821 1.935 1_455 S
Fe803 O825 2.077 1_455 S
O804 Fe800 1.715 . S
O804 Fe802 1.886 . S
O805 Fe802 1.715 1_455 S
O805 Fe807 1.886 . S
O806 Fe803 1.886 . S
O806 Fe807 1.715 . S
Fe807 O805 1.886 . S
Fe807 O806 1.715 . S
Fe807 O811 2.077 . S
Fe807 O816 1.935 . S
Fe807 O818 2.077 1_455 S
Fe807 O826 1.935 1_455 S
C808 O820 1.381 . S
C808 O821 1.421 . S
O809 Fe800 2.077 1_455 S
O809 C822 1.381 . S
O810 Fe803 1.935 . S
O810 C822 1.421 . S
O811 Fe807 2.077 . S
O811 C827 1.381 . S
O812 Fe802 1.935 1_455 S
O812 C827 1.421 . S
O813 Fe802 2.077 1_455 S
O813 C817 1.381 . S
O814 Fe800 1.935 1_455 S
O814 C817 1.421 . S
O815 Fe803 2.077 . S
O815 C823 1.381 . S
O816 Fe807 1.935 . S
O816 C823 1.421 . S
C817 O813 1.381 . S
C817 O814 1.421 . S
O818 Fe807 2.077 1_655 S
O818 C830 1.381 . S
O819 Fe802 1.935 . S
O819 C830 1.421 . S
O820 Fe800 2.077 . S
O820 C808 1.381 . S
O821 Fe803 1.935 1_655 S
O821 C808 1.421 . S
C822 O809 1.381 . S
C822 O810 1.421 . S
C823 O815 1.381 . S
C823 O816 1.421 . S
C824 O825 1.381 . S
C824 O826 1.421 . S
O825 Fe803 2.077 1_655 S
O825 C824 1.381 . S
O826 Fe807 1.935 1_655 S
O826 C824 1.421 . S
C827 O811 1.381 . S
C827 O812 1.421 . S
O828 Fe802 2.077 . S
O828 C831 1.381 . S
O829 Fe800 1.935 . S
O829 C831 1.421 . S
C830 O818 1.381 . S
C830 O819 1.421 . S
C831 O828 1.381 . S
C831 O829 1.421 . S
Fe832 O833 1.886 . S
Fe832 O836 1.715 . S
Fe832 O841 2.077 . S
Fe832 O846 1.935 . S
Fe832 O852 2.077 . S
Fe832 O861 1.935 . S
O833 Fe832 1.886 . S
O833 Fe835 1.715 . S
Fe834 O836 1.886 1_545 S
Fe834 O837 1.715 . S
Fe834 O844 1.935 . S
Fe834 O845 2.077 1_545 S
Fe834 O851 1.935 . S
Fe834 O860 2.077 1_545 S
Fe835 O833 1.715 . S
Fe835 O838 1.886 1_565 S
Fe835 O842 1.935 . S
Fe835 O847 2.077 1_565 S
Fe835 O853 1.935 . S
Fe835 O857 2.077 1_565 S
O836 Fe832 1.715 . S
O836 Fe834 1.886 1_565 S
O837 Fe834 1.715 . S
O837 Fe839 1.886 . S
O838 Fe835 1.886 1_545 S
O838 Fe839 1.715 . S
Fe839 O837 1.886 . S
Fe839 O838 1.715 . S
Fe839 O843 2.077 . S
Fe839 O848 1.935 . S
Fe839 O850 2.077 . S
Fe839 O858 1.935 . S
C840 O852 1.381 . S
C840 O853 1.421 . S
O841 Fe832 2.077 . S
O841 C854 1.381 . S
O842 Fe835 1.935 . S
O842 C854 1.421 . S
O843 Fe839 2.077 . S
O843 C859 1.381 . S
O844 Fe834 1.935 . S
O844 C859 1.421 . S
O845 Fe834 2.077 1_565 S
O845 C849 1.381 . S
O846 Fe832 1.935 . S
O846 C849 1.421 . S
O847 Fe835 2.077 1_545 S
O847 C855 1.381 . S
O848 Fe839 1.935 . S
O848 C855 1.421 . S
C849 O845 1.381 . S
C849 O846 1.421 . S
O850 Fe839 2.077 . S
O850 C862 1.381 . S
O851 Fe834 1.935 . S
O851 C862 1.421 . S
O852 Fe832 2.077 . S
O852 C840 1.381 . S
O853 Fe835 1.935 . S
O853 C840 1.421 . S
C854 O841 1.381 . S
C854 O842 1.421 . S
C855 O847 1.381 . S
C855 O848 1.421 . S
C856 O857 1.381 . S
C856 O858 1.421 . S
O857 Fe835 2.077 1_545 S
O857 C856 1.381 . S
O858 Fe839 1.935 . S
O858 C856 1.421 . S
C859 O843 1.381 . S
C859 O844 1.421 . S
O860 Fe834 2.077 1_565 S
O860 C863 1.381 . S
O861 Fe832 1.935 . S
O861 C863 1.421 . S
C862 O850 1.381 . S
C862 O851 1.421 . S
C863 O860 1.381 . S
C863 O861 1.421 . S
H864 C870 0.930 . S
H865 C874 0.930 . S
H866 C879 0.929 . S
H867 C877 0.929 . S
H868 C872 0.929 . S
H869 C878 0.929 . S
C870 H864 0.930 . S
C870 C871 1.367 . S
C870 C878 1.378 . S
C871 C870 1.367 . S
C871 C879 1.433 . S
C872 H868 0.929 . S
C872 C874 1.378 . S
C872 C876 1.350 . S
C873 C876 1.463 . S
C873 C878 1.350 . S
C873 N881 1.427 . S
C874 H865 0.930 . S
C874 C872 1.378 . S
C874 C875 1.367 . S
C875 C874 1.367 . S
C875 C877 1.433 . S
C876 C872 1.350 . S
C876 C873 1.463 . S
C876 N880 1.427 . S
C877 H867 0.929 . S
C877 C875 1.433 . S
C877 N880 1.384 . S
C878 H869 0.929 . S
C878 C870 1.378 . S
C878 C873 1.350 . S
C879 H866 0.929 . S
C879 C871 1.433 . S
C879 N881 1.384 . S
N880 C876 1.427 . S
N880 C877 1.384 . S
N881 C873 1.427 . S
N881 C879 1.384 . S
H882 C888 0.930 . S
H883 C892 0.930 . S
H884 C897 0.929 . S
H885 C895 0.929 . S
H886 C890 0.929 . S
H887 C896 0.929 . S
C888 H882 0.930 . S
C888 C889 1.367 . S
C888 C896 1.378 . S
C889 C888 1.367 . S
C889 C897 1.433 . S
C890 H886 0.929 . S
C890 C892 1.378 . S
C890 C894 1.350 . S
C891 C894 1.463 . S
C891 C896 1.350 . S
C891 N899 1.427 . S
C892 H883 0.930 . S
C892 C890 1.378 . S
C892 C893 1.367 . S
C893 C892 1.367 . S
C893 C895 1.433 . S
C894 C890 1.350 . S
C894 C891 1.463 . S
C894 N898 1.427 . S
C895 H885 0.929 . S
C895 C893 1.433 . S
C895 N898 1.384 . S
C896 H887 0.929 . S
C896 C888 1.378 . S
C896 C891 1.350 . S
C897 H884 0.929 . S
C897 C889 1.433 . S
C897 N899 1.384 . S
N898 C894 1.427 . S
N898 C895 1.384 . S
N899 C891 1.427 . S
N899 C897 1.384 . S
H900 C906 0.930 . S
H901 C910 0.930 . S
H902 C915 0.929 . S
H903 C913 0.929 . S
H904 C908 0.929 . S
H905 C914 0.929 . S
C906 H900 0.930 . S
C906 C907 1.367 . S
C906 C914 1.378 . S
C907 C906 1.367 . S
C907 C915 1.433 . S
C908 H904 0.929 . S
C908 C910 1.378 . S
C908 C912 1.350 . S
C909 C912 1.463 . S
C909 C914 1.350 . S
C909 N917 1.427 . S
C910 H901 0.930 . S
C910 C908 1.378 . S
C910 C911 1.367 . S
C911 C910 1.367 . S
C911 C913 1.433 . S
C912 C908 1.350 . S
C912 C909 1.463 . S
C912 N916 1.427 . S
C913 H903 0.929 . S
C913 C911 1.433 . S
C913 N916 1.384 . S
C914 H905 0.929 . S
C914 C906 1.378 . S
C914 C909 1.350 . S
C915 H902 0.929 . S
C915 C907 1.433 . S
C915 N917 1.384 . S
N916 C912 1.427 . S
N916 C913 1.384 . S
N917 C909 1.427 . S
N917 C915 1.384 . S
H918 C924 0.930 . S
H919 C928 0.930 . S
H920 C933 0.929 . S
H921 C931 0.929 . S
H922 C926 0.929 . S
H923 C932 0.929 . S
C924 H918 0.930 . S
C924 C925 1.367 . S
C924 C932 1.378 . S
C925 C924 1.367 . S
C925 C933 1.433 . S
C926 H922 0.929 . S
C926 C928 1.378 . S
C926 C930 1.350 . S
C927 C930 1.463 . S
C927 C932 1.350 . S
C927 N935 1.427 . S
C928 H919 0.930 . S
C928 C926 1.378 . S
C928 C929 1.367 . S
C929 C928 1.367 . S
C929 C931 1.433 . S
C930 C926 1.350 . S
C930 C927 1.463 . S
C930 N934 1.427 . S
C931 H921 0.929 . S
C931 C929 1.433 . S
C931 N934 1.384 . S
C932 H923 0.929 . S
C932 C924 1.378 . S
C932 C927 1.350 . S
C933 H920 0.929 . S
C933 C925 1.433 . S
C933 N935 1.384 . S
N934 C930 1.427 . S
N934 C931 1.384 . S
N935 C927 1.427 . S
N935 C933 1.384 . S
H936 C942 0.930 . S
H937 C946 0.930 . S
H938 C951 0.929 . S
H939 C949 0.929 . S
H940 C944 0.929 . S
H941 C950 0.929 . S
C942 H936 0.930 . S
C942 C943 1.367 . S
C942 C950 1.378 . S
C943 C942 1.367 . S
C943 C951 1.433 . S
C944 H940 0.929 . S
C944 C946 1.378 . S
C944 C948 1.350 . S
C945 C948 1.463 . S
C945 C950 1.350 . S
C945 N953 1.427 . S
C946 H937 0.930 . S
C946 C944 1.378 . S
C946 C947 1.367 . S
C947 C946 1.367 . S
C947 C949 1.433 . S
C948 C944 1.350 . S
C948 C945 1.463 . S
C948 N952 1.427 . S
C949 H939 0.929 . S
C949 C947 1.433 . S
C949 N952 1.384 . S
C950 H941 0.929 . S
C950 C942 1.378 . S
C950 C945 1.350 . S
C951 H938 0.929 . S
C951 C943 1.433 . S
C951 N953 1.384 . S
N952 C948 1.427 . S
N952 C949 1.384 . S
N953 C945 1.427 . S
N953 C951 1.384 . S
H954 C960 0.930 . S
H955 C964 0.930 . S
H956 C969 0.929 . S
H957 C967 0.929 . S
H958 C962 0.929 . S
H959 C968 0.929 . S
C960 H954 0.930 . S
C960 C961 1.367 . S
C960 C968 1.378 . S
C961 C960 1.367 . S
C961 C969 1.433 . S
C962 H958 0.929 . S
C962 C964 1.378 . S
C962 C966 1.350 . S
C963 C966 1.463 . S
C963 C968 1.350 . S
C963 N971 1.427 . S
C964 H955 0.930 . S
C964 C962 1.378 . S
C964 C965 1.367 . S
C965 C964 1.367 . S
C965 C967 1.433 . S
C966 C962 1.350 . S
C966 C963 1.463 . S
C966 N970 1.427 . S
C967 H957 0.929 . S
C967 C965 1.433 . S
C967 N970 1.384 . S
C968 H959 0.929 . S
C968 C960 1.378 . S
C968 C963 1.350 . S
C969 H956 0.929 . S
C969 C961 1.433 . S
C969 N971 1.384 . S
N970 C966 1.427 . S
N970 C967 1.384 . S
N971 C963 1.427 . S
N971 C969 1.384 . S
H972 C978 0.930 . S
H973 C982 0.930 . S
H974 C987 0.929 . S
H975 C985 0.929 . S
H976 C980 0.929 . S
H977 C986 0.929 . S
C978 H972 0.930 . S
C978 C979 1.367 . S
C978 C986 1.378 . S
C979 C978 1.367 . S
C979 C987 1.433 . S
C980 H976 0.929 . S
C980 C982 1.378 . S
C980 C984 1.350 . S
C981 C984 1.463 . S
C981 C986 1.350 . S
C981 N989 1.427 . S
C982 H973 0.930 . S
C982 C980 1.378 . S
C982 C983 1.367 . S
C983 C982 1.367 . S
C983 C985 1.433 . S
C984 C980 1.350 . S
C984 C981 1.463 . S
C984 N988 1.427 . S
C985 H975 0.929 . S
C985 C983 1.433 . S
C985 N988 1.384 . S
C986 H977 0.929 . S
C986 C978 1.378 . S
C986 C981 1.350 . S
C987 H974 0.929 . S
C987 C979 1.433 . S
C987 N989 1.384 . S
N988 C984 1.427 . S
N988 C985 1.384 . S
N989 C981 1.427 . S
N989 C987 1.384 . S
H990 C996 0.930 . S
H991 C1000 0.930 . S
H992 C1005 0.929 . S
H993 C1003 0.929 . S
H994 C998 0.929 . S
H995 C1004 0.929 . S
C996 H990 0.930 . S
C996 C997 1.367 . S
C996 C1004 1.378 . S
C997 C996 1.367 . S
C997 C1005 1.433 . S
C998 H994 0.929 . S
C998 C1000 1.378 . S
C998 C1002 1.350 . S
C999 C1002 1.463 . S
C999 C1004 1.350 . S
C999 N1007 1.427 . S
C1000 H991 0.930 . S
C1000 C998 1.378 . S
C1000 C1001 1.367 . S
C1001 C1000 1.367 . S
C1001 C1003 1.433 . S
C1002 C998 1.350 . S
C1002 C999 1.463 . S
C1002 N1006 1.427 . S
C1003 H993 0.929 . S
C1003 C1001 1.433 . S
C1003 N1006 1.384 . S
C1004 H995 0.929 . S
C1004 C996 1.378 . S
C1004 C999 1.350 . S
C1005 H992 0.929 . S
C1005 C997 1.433 . S
C1005 N1007 1.384 . S
N1006 C1002 1.427 . S
N1006 C1003 1.384 . S
N1007 C999 1.427 . S
N1007 C1005 1.384 . S
H1008 C1014 0.930 . S
H1009 C1018 0.930 . S
H1010 C1023 0.929 . S
H1011 C1021 0.929 . S
H1012 C1016 0.929 . S
H1013 C1022 0.929 . S
C1014 H1008 0.930 . S
C1014 C1015 1.367 . S
C1014 C1022 1.378 . S
C1015 C1014 1.367 . S
C1015 C1023 1.433 . S
C1016 H1012 0.929 . S
C1016 C1018 1.378 . S
C1016 C1020 1.350 . S
C1017 C1020 1.463 . S
C1017 C1022 1.350 . S
C1017 N1025 1.427 . S
C1018 H1009 0.930 . S
C1018 C1016 1.378 . S
C1018 C1019 1.367 . S
C1019 C1018 1.367 . S
C1019 C1021 1.433 . S
C1020 C1016 1.350 . S
C1020 C1017 1.463 . S
C1020 N1024 1.427 . S
C1021 H1011 0.929 . S
C1021 C1019 1.433 . S
C1021 N1024 1.384 . S
C1022 H1013 0.929 . S
C1022 C1014 1.378 . S
C1022 C1017 1.350 . S
C1023 H1010 0.929 . S
C1023 C1015 1.433 . S
C1023 N1025 1.384 . S
N1024 C1020 1.427 . S
N1024 C1021 1.384 . S
N1025 C1017 1.427 . S
N1025 C1023 1.384 . S
H1026 C1032 0.930 . S
H1027 C1036 0.930 . S
H1028 C1041 0.929 . S
H1029 C1039 0.929 . S
H1030 C1034 0.929 . S
H1031 C1040 0.929 . S
C1032 H1026 0.930 . S
C1032 C1033 1.367 . S
C1032 C1040 1.378 . S
C1033 C1032 1.367 . S
C1033 C1041 1.433 . S
C1034 H1030 0.929 . S
C1034 C1036 1.378 . S
C1034 C1038 1.350 . S
C1035 C1038 1.463 . S
C1035 C1040 1.350 . S
C1035 N1043 1.427 . S
C1036 H1027 0.930 . S
C1036 C1034 1.378 . S
C1036 C1037 1.367 . S
C1037 C1036 1.367 . S
C1037 C1039 1.433 . S
C1038 C1034 1.350 . S
C1038 C1035 1.463 . S
C1038 N1042 1.427 . S
C1039 H1029 0.929 . S
C1039 C1037 1.433 . S
C1039 N1042 1.384 . S
C1040 H1031 0.929 . S
C1040 C1032 1.378 . S
C1040 C1035 1.350 . S
C1041 H1028 0.929 . S
C1041 C1033 1.433 . S
C1041 N1043 1.384 . S
N1042 C1038 1.427 . S
N1042 C1039 1.384 . S
N1043 C1035 1.427 . S
N1043 C1041 1.384 . S
H1044 C1050 0.930 . S
H1045 C1054 0.930 . S
H1046 C1059 0.929 . S
H1047 C1057 0.929 . S
H1048 C1052 0.929 . S
H1049 C1058 0.929 . S
C1050 H1044 0.930 . S
C1050 C1051 1.367 . S
C1050 C1058 1.378 . S
C1051 C1050 1.367 . S
C1051 C1059 1.433 . S
C1052 H1048 0.929 . S
C1052 C1054 1.378 . S
C1052 C1056 1.350 . S
C1053 C1056 1.463 . S
C1053 C1058 1.350 . S
C1053 N1061 1.427 . S
C1054 H1045 0.930 . S
C1054 C1052 1.378 . S
C1054 C1055 1.367 . S
C1055 C1054 1.367 . S
C1055 C1057 1.433 . S
C1056 C1052 1.350 . S
C1056 C1053 1.463 . S
C1056 N1060 1.427 . S
C1057 H1047 0.929 . S
C1057 C1055 1.433 . S
C1057 N1060 1.384 . S
C1058 H1049 0.929 . S
C1058 C1050 1.378 . S
C1058 C1053 1.350 . S
C1059 H1046 0.929 . S
C1059 C1051 1.433 . S
C1059 N1061 1.384 . S
N1060 C1056 1.427 . S
N1060 C1057 1.384 . S
N1061 C1053 1.427 . S
N1061 C1059 1.384 . S
H1062 C1068 0.930 . S
H1063 C1072 0.930 . S
H1064 C1077 0.929 . S
H1065 C1075 0.929 . S
H1066 C1070 0.929 . S
H1067 C1076 0.929 . S
C1068 H1062 0.930 . S
C1068 C1069 1.367 . S
C1068 C1076 1.378 . S
C1069 C1068 1.367 . S
C1069 C1077 1.433 . S
C1070 H1066 0.929 . S
C1070 C1072 1.378 . S
C1070 C1074 1.350 . S
C1071 C1074 1.463 . S
C1071 C1076 1.350 . S
C1071 N1079 1.427 . S
C1072 H1063 0.930 . S
C1072 C1070 1.378 . S
C1072 C1073 1.367 . S
C1073 C1072 1.367 . S
C1073 C1075 1.433 . S
C1074 C1070 1.350 . S
C1074 C1071 1.463 . S
C1074 N1078 1.427 . S
C1075 H1065 0.929 . S
C1075 C1073 1.433 . S
C1075 N1078 1.384 . S
C1076 H1067 0.929 . S
C1076 C1068 1.378 . S
C1076 C1071 1.350 . S
C1077 H1064 0.929 . S
C1077 C1069 1.433 . S
C1077 N1079 1.384 . S
N1078 C1074 1.427 . S
N1078 C1075 1.384 . S
N1079 C1071 1.427 . S
N1079 C1077 1.384 . S
H1080 C1086 0.930 . S
H1081 C1090 0.930 . S
H1082 C1095 0.929 . S
H1083 C1093 0.929 . S
H1084 C1088 0.929 . S
H1085 C1094 0.929 . S
C1086 H1080 0.930 . S
C1086 C1087 1.367 . S
C1086 C1094 1.378 . S
C1087 C1086 1.367 . S
C1087 C1095 1.433 . S
C1088 H1084 0.929 . S
C1088 C1090 1.378 . S
C1088 C1092 1.350 . S
C1089 C1092 1.463 . S
C1089 C1094 1.350 . S
C1089 N1097 1.427 . S
C1090 H1081 0.930 . S
C1090 C1088 1.378 . S
C1090 C1091 1.367 . S
C1091 C1090 1.367 . S
C1091 C1093 1.433 . S
C1092 C1088 1.350 . S
C1092 C1089 1.463 . S
C1092 N1096 1.427 . S
C1093 H1083 0.929 . S
C1093 C1091 1.433 . S
C1093 N1096 1.384 . S
C1094 H1085 0.929 . S
C1094 C1086 1.378 . S
C1094 C1089 1.350 . S
C1095 H1082 0.929 . S
C1095 C1087 1.433 . S
C1095 N1097 1.384 . S
N1096 C1092 1.427 . S
N1096 C1093 1.384 . S
N1097 C1089 1.427 . S
N1097 C1095 1.384 . S
H1098 C1104 0.930 . S
H1099 C1108 0.930 . S
H1100 C1113 0.929 . S
H1101 C1111 0.929 . S
H1102 C1106 0.929 . S
H1103 C1112 0.929 . S
C1104 H1098 0.930 . S
C1104 C1105 1.367 . S
C1104 C1112 1.378 . S
C1105 C1104 1.367 . S
C1105 C1113 1.433 . S
C1106 H1102 0.929 . S
C1106 C1108 1.378 . S
C1106 C1110 1.350 . S
C1107 C1110 1.463 . S
C1107 C1112 1.350 . S
C1107 N1115 1.427 . S
C1108 H1099 0.930 . S
C1108 C1106 1.378 . S
C1108 C1109 1.367 . S
C1109 C1108 1.367 . S
C1109 C1111 1.433 . S
C1110 C1106 1.350 . S
C1110 C1107 1.463 . S
C1110 N1114 1.427 . S
C1111 H1101 0.929 . S
C1111 C1109 1.433 . S
C1111 N1114 1.384 . S
C1112 H1103 0.929 . S
C1112 C1104 1.378 . S
C1112 C1107 1.350 . S
C1113 H1100 0.929 . S
C1113 C1105 1.433 . S
C1113 N1115 1.384 . S
N1114 C1110 1.427 . S
N1114 C1111 1.384 . S
N1115 C1107 1.427 . S
N1115 C1113 1.384 . S
H1116 C1122 0.930 . S
H1117 C1126 0.930 . S
H1118 C1131 0.929 . S
H1119 C1129 0.929 . S
H1120 C1124 0.929 . S
H1121 C1130 0.929 . S
C1122 H1116 0.930 . S
C1122 C1123 1.367 . S
C1122 C1130 1.378 . S
C1123 C1122 1.367 . S
C1123 C1131 1.433 . S
C1124 H1120 0.929 . S
C1124 C1126 1.378 . S
C1124 C1128 1.350 . S
C1125 C1128 1.463 . S
C1125 C1130 1.350 . S
C1125 N1133 1.427 . S
C1126 H1117 0.930 . S
C1126 C1124 1.378 . S
C1126 C1127 1.367 . S
C1127 C1126 1.367 . S
C1127 C1129 1.433 . S
C1128 C1124 1.350 . S
C1128 C1125 1.463 . S
C1128 N1132 1.427 . S
C1129 H1119 0.929 . S
C1129 C1127 1.433 . S
C1129 N1132 1.384 . S
C1130 H1121 0.929 . S
C1130 C1122 1.378 . S
C1130 C1125 1.350 . S
C1131 H1118 0.929 . S
C1131 C1123 1.433 . S
C1131 N1133 1.384 . S
N1132 C1128 1.427 . S
N1132 C1129 1.384 . S
N1133 C1125 1.427 . S
N1133 C1131 1.384 . S
H1134 C1140 0.930 . S
H1135 C1144 0.930 . S
H1136 C1149 0.929 . S
H1137 C1147 0.929 . S
H1138 C1142 0.929 . S
H1139 C1148 0.929 . S
C1140 H1134 0.930 . S
C1140 C1141 1.367 . S
C1140 C1148 1.378 . S
C1141 C1140 1.367 . S
C1141 C1149 1.433 . S
C1142 H1138 0.929 . S
C1142 C1144 1.378 . S
C1142 C1146 1.350 . S
C1143 C1146 1.463 . S
C1143 C1148 1.350 . S
C1143 N1151 1.427 . S
C1144 H1135 0.930 . S
C1144 C1142 1.378 . S
C1144 C1145 1.367 . S
C1145 C1144 1.367 . S
C1145 C1147 1.433 . S
C1146 C1142 1.350 . S
C1146 C1143 1.463 . S
C1146 N1150 1.427 . S
C1147 H1137 0.929 . S
C1147 C1145 1.433 . S
C1147 N1150 1.384 . S
C1148 H1139 0.929 . S
C1148 C1140 1.378 . S
C1148 C1143 1.350 . S
C1149 H1136 0.929 . S
C1149 C1141 1.433 . S
C1149 N1151 1.384 . S
N1150 C1146 1.427 . S
N1150 C1147 1.384 . S
N1151 C1143 1.427 . S
N1151 C1149 1.384 . S
H1152 C1158 0.930 . S
H1153 C1162 0.930 . S
H1154 C1167 0.929 . S
H1155 C1165 0.929 . S
H1156 C1160 0.929 . S
H1157 C1166 0.929 . S
C1158 H1152 0.930 . S
C1158 C1159 1.367 . S
C1158 C1166 1.378 . S
C1159 C1158 1.367 . S
C1159 C1167 1.433 . S
C1160 H1156 0.929 . S
C1160 C1162 1.378 . S
C1160 C1164 1.350 . S
C1161 C1164 1.463 . S
C1161 C1166 1.350 . S
C1161 N1169 1.427 . S
C1162 H1153 0.930 . S
C1162 C1160 1.378 . S
C1162 C1163 1.367 . S
C1163 C1162 1.367 . S
C1163 C1165 1.433 . S
C1164 C1160 1.350 . S
C1164 C1161 1.463 . S
C1164 N1168 1.427 . S
C1165 H1155 0.929 . S
C1165 C1163 1.433 . S
C1165 N1168 1.384 . S
C1166 H1157 0.929 . S
C1166 C1158 1.378 . S
C1166 C1161 1.350 . S
C1167 H1154 0.929 . S
C1167 C1159 1.433 . S
C1167 N1169 1.384 . S
N1168 C1164 1.427 . S
N1168 C1165 1.384 . S
N1169 C1161 1.427 . S
N1169 C1167 1.384 . S
H1170 C1176 0.930 . S
H1171 C1180 0.930 . S
H1172 C1185 0.929 . S
H1173 C1183 0.929 . S
H1174 C1178 0.929 . S
H1175 C1184 0.929 . S
C1176 H1170 0.930 . S
C1176 C1177 1.367 . S
C1176 C1184 1.378 . S
C1177 C1176 1.367 . S
C1177 C1185 1.433 . S
C1178 H1174 0.929 . S
C1178 C1180 1.378 . S
C1178 C1182 1.350 . S
C1179 C1182 1.463 . S
C1179 C1184 1.350 . S
C1179 N1187 1.427 . S
C1180 H1171 0.930 . S
C1180 C1178 1.378 . S
C1180 C1181 1.367 . S
C1181 C1180 1.367 . S
C1181 C1183 1.433 . S
C1182 C1178 1.350 . S
C1182 C1179 1.463 . S
C1182 N1186 1.427 . S
C1183 H1173 0.929 . S
C1183 C1181 1.433 . S
C1183 N1186 1.384 . S
C1184 H1175 0.929 . S
C1184 C1176 1.378 . S
C1184 C1179 1.350 . S
C1185 H1172 0.929 . S
C1185 C1177 1.433 . S
C1185 N1187 1.384 . S
N1186 C1182 1.427 . S
N1186 C1183 1.384 . S
N1187 C1179 1.427 . S
N1187 C1185 1.384 . S
H1188 C1194 0.930 . S
H1189 C1198 0.930 . S
H1190 C1203 0.929 . S
H1191 C1201 0.929 . S
H1192 C1196 0.929 . S
H1193 C1202 0.929 . S
C1194 H1188 0.930 . S
C1194 C1195 1.367 . S
C1194 C1202 1.378 . S
C1195 C1194 1.367 . S
C1195 C1203 1.433 . S
C1196 H1192 0.929 . S
C1196 C1198 1.378 . S
C1196 C1200 1.350 . S
C1197 C1200 1.463 . S
C1197 C1202 1.350 . S
C1197 N1205 1.427 . S
C1198 H1189 0.930 . S
C1198 C1196 1.378 . S
C1198 C1199 1.367 . S
C1199 C1198 1.367 . S
C1199 C1201 1.433 . S
C1200 C1196 1.350 . S
C1200 C1197 1.463 . S
C1200 N1204 1.427 . S
C1201 H1191 0.929 . S
C1201 C1199 1.433 . S
C1201 N1204 1.384 . S
C1202 H1193 0.929 . S
C1202 C1194 1.378 . S
C1202 C1197 1.350 . S
C1203 H1190 0.929 . S
C1203 C1195 1.433 . S
C1203 N1205 1.384 . S
N1204 C1200 1.427 . S
N1204 C1201 1.384 . S
N1205 C1197 1.427 . S
N1205 C1203 1.384 . S
H1206 C1212 0.930 . S
H1207 C1216 0.930 . S
H1208 C1221 0.929 . S
H1209 C1219 0.929 . S
H1210 C1214 0.929 . S
H1211 C1220 0.929 . S
C1212 H1206 0.930 . S
C1212 C1213 1.367 . S
C1212 C1220 1.378 . S
C1213 C1212 1.367 . S
C1213 C1221 1.433 . S
C1214 H1210 0.929 . S
C1214 C1216 1.378 . S
C1214 C1218 1.350 . S
C1215 C1218 1.463 . S
C1215 C1220 1.350 . S
C1215 N1223 1.427 . S
C1216 H1207 0.930 . S
C1216 C1214 1.378 . S
C1216 C1217 1.367 . S
C1217 C1216 1.367 . S
C1217 C1219 1.433 . S
C1218 C1214 1.350 . S
C1218 C1215 1.463 . S
C1218 N1222 1.427 . S
C1219 H1209 0.929 . S
C1219 C1217 1.433 . S
C1219 N1222 1.384 . S
C1220 H1211 0.929 . S
C1220 C1212 1.378 . S
C1220 C1215 1.350 . S
C1221 H1208 0.929 . S
C1221 C1213 1.433 . S
C1221 N1223 1.384 . S
N1222 C1218 1.427 . S
N1222 C1219 1.384 . S
N1223 C1215 1.427 . S
N1223 C1221 1.384 . S
H1224 C1230 0.930 . S
H1225 C1234 0.930 . S
H1226 C1239 0.929 . S
H1227 C1237 0.929 . S
H1228 C1232 0.929 . S
H1229 C1238 0.929 . S
C1230 H1224 0.930 . S
C1230 C1231 1.367 . S
C1230 C1238 1.378 . S
C1231 C1230 1.367 . S
C1231 C1239 1.433 . S
C1232 H1228 0.929 . S
C1232 C1234 1.378 . S
C1232 C1236 1.350 . S
C1233 C1236 1.463 . S
C1233 C1238 1.350 . S
C1233 N1241 1.427 . S
C1234 H1225 0.930 . S
C1234 C1232 1.378 . S
C1234 C1235 1.367 . S
C1235 C1234 1.367 . S
C1235 C1237 1.433 . S
C1236 C1232 1.350 . S
C1236 C1233 1.463 . S
C1236 N1240 1.427 . S
C1237 H1227 0.929 . S
C1237 C1235 1.433 . S
C1237 N1240 1.384 . S
C1238 H1229 0.929 . S
C1238 C1230 1.378 . S
C1238 C1233 1.350 . S
C1239 H1226 0.929 . S
C1239 C1231 1.433 . S
C1239 N1241 1.384 . S
N1240 C1236 1.427 . S
N1240 C1237 1.384 . S
N1241 C1233 1.427 . S
N1241 C1239 1.384 . S
H1242 C1248 0.930 . S
H1243 C1252 0.930 . S
H1244 C1257 0.929 . S
H1245 C1255 0.929 . S
H1246 C1250 0.929 . S
H1247 C1256 0.929 . S
C1248 H1242 0.930 . S
C1248 C1249 1.367 . S
C1248 C1256 1.378 . S
C1249 C1248 1.367 . S
C1249 C1257 1.433 . S
C1250 H1246 0.929 . S
C1250 C1252 1.378 . S
C1250 C1254 1.350 . S
C1251 C1254 1.463 . S
C1251 C1256 1.350 . S
C1251 N1259 1.427 . S
C1252 H1243 0.930 . S
C1252 C1250 1.378 . S
C1252 C1253 1.367 . S
C1253 C1252 1.367 . S
C1253 C1255 1.433 . S
C1254 C1250 1.350 . S
C1254 C1251 1.463 . S
C1254 N1258 1.427 . S
C1255 H1245 0.929 . S
C1255 C1253 1.433 . S
C1255 N1258 1.384 . S
C1256 H1247 0.929 . S
C1256 C1248 1.378 . S
C1256 C1251 1.350 . S
C1257 H1244 0.929 . S
C1257 C1249 1.433 . S
C1257 N1259 1.384 . S
N1258 C1254 1.427 . S
N1258 C1255 1.384 . S
N1259 C1251 1.427 . S
N1259 C1257 1.384 . S
H1260 C1266 0.930 . S
H1261 C1270 0.930 . S
H1262 C1275 0.929 . S
H1263 C1273 0.929 . S
H1264 C1268 0.929 . S
H1265 C1274 0.929 . S
C1266 H1260 0.930 . S
C1266 C1267 1.367 . S
C1266 C1274 1.378 . S
C1267 C1266 1.367 . S
C1267 C1275 1.433 . S
C1268 H1264 0.929 . S
C1268 C1270 1.378 . S
C1268 C1272 1.350 . S
C1269 C1272 1.463 . S
C1269 C1274 1.350 . S
C1269 N1277 1.427 . S
C1270 H1261 0.930 . S
C1270 C1268 1.378 . S
C1270 C1271 1.367 . S
C1271 C1270 1.367 . S
C1271 C1273 1.433 . S
C1272 C1268 1.350 . S
C1272 C1269 1.463 . S
C1272 N1276 1.427 . S
C1273 H1263 0.929 . S
C1273 C1271 1.433 . S
C1273 N1276 1.384 . S
C1274 H1265 0.929 . S
C1274 C1266 1.378 . S
C1274 C1269 1.350 . S
C1275 H1262 0.929 . S
C1275 C1267 1.433 . S
C1275 N1277 1.384 . S
N1276 C1272 1.427 . S
N1276 C1273 1.384 . S
N1277 C1269 1.427 . S
N1277 C1275 1.384 . S
H1278 C1284 0.930 . S
H1279 C1288 0.930 . S
H1280 C1293 0.929 . S
H1281 C1291 0.929 . S
H1282 C1286 0.929 . S
H1283 C1292 0.929 . S
C1284 H1278 0.930 . S
C1284 C1285 1.367 . S
C1284 C1292 1.378 . S
C1285 C1284 1.367 . S
C1285 C1293 1.433 . S
C1286 H1282 0.929 . S
C1286 C1288 1.378 . S
C1286 C1290 1.350 . S
C1287 C1290 1.463 . S
C1287 C1292 1.350 . S
C1287 N1295 1.427 . S
C1288 H1279 0.930 . S
C1288 C1286 1.378 . S
C1288 C1289 1.367 . S
C1289 C1288 1.367 . S
C1289 C1291 1.433 . S
C1290 C1286 1.350 . S
C1290 C1287 1.463 . S
C1290 N1294 1.427 . S
C1291 H1281 0.929 . S
C1291 C1289 1.433 . S
C1291 N1294 1.384 . S
C1292 H1283 0.929 . S
C1292 C1284 1.378 . S
C1292 C1287 1.350 . S
C1293 H1280 0.929 . S
C1293 C1285 1.433 . S
C1293 N1295 1.384 . S
N1294 C1290 1.427 . S
N1294 C1291 1.384 . S
N1295 C1287 1.427 . S
N1295 C1293 1.384 . S
H1296 C1302 0.930 . S
H1297 C1306 0.930 . S
H1298 C1311 0.929 . S
H1299 C1309 0.929 . S
H1300 C1304 0.929 . S
H1301 C1310 0.929 . S
C1302 H1296 0.930 . S
C1302 C1303 1.367 . S
C1302 C1310 1.378 . S
C1303 C1302 1.367 . S
C1303 C1311 1.433 . S
C1304 H1300 0.929 . S
C1304 C1306 1.378 . S
C1304 C1308 1.350 . S
C1305 C1308 1.463 . S
C1305 C1310 1.350 . S
C1305 N1313 1.427 . S
C1306 H1297 0.930 . S
C1306 C1304 1.378 . S
C1306 C1307 1.367 . S
C1307 C1306 1.367 . S
C1307 C1309 1.433 . S
C1308 C1304 1.350 . S
C1308 C1305 1.463 . S
C1308 N1312 1.427 . S
C1309 H1299 0.929 . S
C1309 C1307 1.433 . S
C1309 N1312 1.384 . S
C1310 H1301 0.929 . S
C1310 C1302 1.378 . S
C1310 C1305 1.350 . S
C1311 H1298 0.929 . S
C1311 C1303 1.433 . S
C1311 N1313 1.384 . S
N1312 C1308 1.427 . S
N1312 C1309 1.384 . S
N1313 C1305 1.427 . S
N1313 C1311 1.384 . S
H1314 C1320 0.930 . S
H1315 C1324 0.930 . S
H1316 C1329 0.929 . S
H1317 C1327 0.929 . S
H1318 C1322 0.929 . S
H1319 C1328 0.929 . S
C1320 H1314 0.930 . S
C1320 C1321 1.367 . S
C1320 C1328 1.378 . S
C1321 C1320 1.367 . S
C1321 C1329 1.433 . S
C1322 H1318 0.929 . S
C1322 C1324 1.378 . S
C1322 C1326 1.350 . S
C1323 C1326 1.463 . S
C1323 C1328 1.350 . S
C1323 N1331 1.427 . S
C1324 H1315 0.930 . S
C1324 C1322 1.378 . S
C1324 C1325 1.367 . S
C1325 C1324 1.367 . S
C1325 C1327 1.433 . S
C1326 C1322 1.350 . S
C1326 C1323 1.463 . S
C1326 N1330 1.427 . S
C1327 H1317 0.929 . S
C1327 C1325 1.433 . S
C1327 N1330 1.384 . S
C1328 H1319 0.929 . S
C1328 C1320 1.378 . S
C1328 C1323 1.350 . S
C1329 H1316 0.929 . S
C1329 C1321 1.433 . S
C1329 N1331 1.384 . S
N1330 C1326 1.427 . S
N1330 C1327 1.384 . S
N1331 C1323 1.427 . S
N1331 C1329 1.384 . S
H1332 C1338 0.930 . S
H1333 C1342 0.930 . S
H1334 C1347 0.929 . S
H1335 C1345 0.929 . S
H1336 C1340 0.929 . S
H1337 C1346 0.929 . S
C1338 H1332 0.930 . S
C1338 C1339 1.367 . S
C1338 C1346 1.378 . S
C1339 C1338 1.367 . S
C1339 C1347 1.433 . S
C1340 H1336 0.929 . S
C1340 C1342 1.378 . S
C1340 C1344 1.350 . S
C1341 C1344 1.463 . S
C1341 C1346 1.350 . S
C1341 N1349 1.427 . S
C1342 H1333 0.930 . S
C1342 C1340 1.378 . S
C1342 C1343 1.367 . S
C1343 C1342 1.367 . S
C1343 C1345 1.433 . S
C1344 C1340 1.350 . S
C1344 C1341 1.463 . S
C1344 N1348 1.427 . S
C1345 H1335 0.929 . S
C1345 C1343 1.433 . S
C1345 N1348 1.384 . S
C1346 H1337 0.929 . S
C1346 C1338 1.378 . S
C1346 C1341 1.350 . S
C1347 H1334 0.929 . S
C1347 C1339 1.433 . S
C1347 N1349 1.384 . S
N1348 C1344 1.427 . S
N1348 C1345 1.384 . S
N1349 C1341 1.427 . S
N1349 C1347 1.384 . S
H1350 C1356 0.930 . S
H1351 C1360 0.930 . S
H1352 C1365 0.929 . S
H1353 C1363 0.929 . S
H1354 C1358 0.929 . S
H1355 C1364 0.929 . S
C1356 H1350 0.930 . S
C1356 C1357 1.367 . S
C1356 C1364 1.378 . S
C1357 C1356 1.367 . S
C1357 C1365 1.433 . S
C1358 H1354 0.929 . S
C1358 C1360 1.378 . S
C1358 C1362 1.350 . S
C1359 C1362 1.463 . S
C1359 C1364 1.350 . S
C1359 N1367 1.427 . S
C1360 H1351 0.930 . S
C1360 C1358 1.378 . S
C1360 C1361 1.367 . S
C1361 C1360 1.367 . S
C1361 C1363 1.433 . S
C1362 C1358 1.350 . S
C1362 C1359 1.463 . S
C1362 N1366 1.427 . S
C1363 H1353 0.929 . S
C1363 C1361 1.433 . S
C1363 N1366 1.384 . S
C1364 H1355 0.929 . S
C1364 C1356 1.378 . S
C1364 C1359 1.350 . S
C1365 H1352 0.929 . S
C1365 C1357 1.433 . S
C1365 N1367 1.384 . S
N1366 C1362 1.427 . S
N1366 C1363 1.384 . S
N1367 C1359 1.427 . S
N1367 C1365 1.384 . S
H1368 C1374 0.930 . S
H1369 C1378 0.930 . S
H1370 C1383 0.929 . S
H1371 C1381 0.929 . S
H1372 C1376 0.929 . S
H1373 C1382 0.929 . S
C1374 H1368 0.930 . S
C1374 C1375 1.367 . S
C1374 C1382 1.378 . S
C1375 C1374 1.367 . S
C1375 C1383 1.433 . S
C1376 H1372 0.929 . S
C1376 C1378 1.378 . S
C1376 C1380 1.350 . S
C1377 C1380 1.463 . S
C1377 C1382 1.350 . S
C1377 N1385 1.427 . S
C1378 H1369 0.930 . S
C1378 C1376 1.378 . S
C1378 C1379 1.367 . S
C1379 C1378 1.367 . S
C1379 C1381 1.433 . S
C1380 C1376 1.350 . S
C1380 C1377 1.463 . S
C1380 N1384 1.427 . S
C1381 H1371 0.929 . S
C1381 C1379 1.433 . S
C1381 N1384 1.384 . S
C1382 H1373 0.929 . S
C1382 C1374 1.378 . S
C1382 C1377 1.350 . S
C1383 H1370 0.929 . S
C1383 C1375 1.433 . S
C1383 N1385 1.384 . S
N1384 C1380 1.427 . S
N1384 C1381 1.384 . S
N1385 C1377 1.427 . S
N1385 C1383 1.384 . S
H1386 C1392 0.930 . S
H1387 C1396 0.930 . S
H1388 C1401 0.929 . S
H1389 C1399 0.929 . S
H1390 C1394 0.929 . S
H1391 C1400 0.929 . S
C1392 H1386 0.930 . S
C1392 C1393 1.367 . S
C1392 C1400 1.378 . S
C1393 C1392 1.367 . S
C1393 C1401 1.433 . S
C1394 H1390 0.929 . S
C1394 C1396 1.378 . S
C1394 C1398 1.350 . S
C1395 C1398 1.463 . S
C1395 C1400 1.350 . S
C1395 N1403 1.427 . S
C1396 H1387 0.930 . S
C1396 C1394 1.378 . S
C1396 C1397 1.367 . S
C1397 C1396 1.367 . S
C1397 C1399 1.433 . S
C1398 C1394 1.350 . S
C1398 C1395 1.463 . S
C1398 N1402 1.427 . S
C1399 H1389 0.929 . S
C1399 C1397 1.433 . S
C1399 N1402 1.384 . S
C1400 H1391 0.929 . S
C1400 C1392 1.378 . S
C1400 C1395 1.350 . S
C1401 H1388 0.929 . S
C1401 C1393 1.433 . S
C1401 N1403 1.384 . S
N1402 C1398 1.427 . S
N1402 C1399 1.384 . S
N1403 C1395 1.427 . S
N1403 C1401 1.384 . S
H1404 C1410 0.930 . S
H1405 C1414 0.930 . S
H1406 C1419 0.929 . S
H1407 C1417 0.929 . S
H1408 C1412 0.929 . S
H1409 C1418 0.929 . S
C1410 H1404 0.930 . S
C1410 C1411 1.367 . S
C1410 C1418 1.378 . S
C1411 C1410 1.367 . S
C1411 C1419 1.433 . S
C1412 H1408 0.929 . S
C1412 C1414 1.378 . S
C1412 C1416 1.350 . S
C1413 C1416 1.463 . S
C1413 C1418 1.350 . S
C1413 N1421 1.427 . S
C1414 H1405 0.930 . S
C1414 C1412 1.378 . S
C1414 C1415 1.367 . S
C1415 C1414 1.367 . S
C1415 C1417 1.433 . S
C1416 C1412 1.350 . S
C1416 C1413 1.463 . S
C1416 N1420 1.427 . S
C1417 H1407 0.929 . S
C1417 C1415 1.433 . S
C1417 N1420 1.384 . S
C1418 H1409 0.929 . S
C1418 C1410 1.378 . S
C1418 C1413 1.350 . S
C1419 H1406 0.929 . S
C1419 C1411 1.433 . S
C1419 N1421 1.384 . S
N1420 C1416 1.427 . S
N1420 C1417 1.384 . S
N1421 C1413 1.427 . S
N1421 C1419 1.384 . S
H1422 C1428 0.930 . S
H1423 C1432 0.930 . S
H1424 C1437 0.929 . S
H1425 C1435 0.929 . S
H1426 C1430 0.929 . S
H1427 C1436 0.929 . S
C1428 H1422 0.930 . S
C1428 C1429 1.367 . S
C1428 C1436 1.378 . S
C1429 C1428 1.367 . S
C1429 C1437 1.433 . S
C1430 H1426 0.929 . S
C1430 C1432 1.378 . S
C1430 C1434 1.350 . S
C1431 C1434 1.463 . S
C1431 C1436 1.350 . S
C1431 N1439 1.427 . S
C1432 H1423 0.930 . S
C1432 C1430 1.378 . S
C1432 C1433 1.367 . S
C1433 C1432 1.367 . S
C1433 C1435 1.433 . S
C1434 C1430 1.350 . S
C1434 C1431 1.463 . S
C1434 N1438 1.427 . S
C1435 H1425 0.929 . S
C1435 C1433 1.433 . S
C1435 N1438 1.384 . S
C1436 H1427 0.929 . S
C1436 C1428 1.378 . S
C1436 C1431 1.350 . S
C1437 H1424 0.929 . S
C1437 C1429 1.433 . S
C1437 N1439 1.384 . S
N1438 C1434 1.427 . S
N1438 C1435 1.384 . S
N1439 C1431 1.427 . S
N1439 C1437 1.384 . S
H1440 C1446 0.930 . S
H1441 C1450 0.930 . S
H1442 C1455 0.929 . S
H1443 C1453 0.929 . S
H1444 C1448 0.929 . S
H1445 C1454 0.929 . S
C1446 H1440 0.930 . S
C1446 C1447 1.367 . S
C1446 C1454 1.378 . S
C1447 C1446 1.367 . S
C1447 C1455 1.433 . S
C1448 H1444 0.929 . S
C1448 C1450 1.378 . S
C1448 C1452 1.350 . S
C1449 C1452 1.463 . S
C1449 C1454 1.350 . S
C1449 N1457 1.427 . S
C1450 H1441 0.930 . S
C1450 C1448 1.378 . S
C1450 C1451 1.367 . S
C1451 C1450 1.367 . S
C1451 C1453 1.433 . S
C1452 C1448 1.350 . S
C1452 C1449 1.463 . S
C1452 N1456 1.427 . S
C1453 H1443 0.929 . S
C1453 C1451 1.433 . S
C1453 N1456 1.384 . S
C1454 H1445 0.929 . S
C1454 C1446 1.378 . S
C1454 C1449 1.350 . S
C1455 H1442 0.929 . S
C1455 C1447 1.433 . S
C1455 N1457 1.384 . S
N1456 C1452 1.427 . S
N1456 C1453 1.384 . S
N1457 C1449 1.427 . S
N1457 C1455 1.384 . S
H1458 C1464 0.930 . S
H1459 C1468 0.930 . S
H1460 C1473 0.929 . S
H1461 C1471 0.929 . S
H1462 C1466 0.929 . S
H1463 C1472 0.929 . S
C1464 H1458 0.930 . S
C1464 C1465 1.367 . S
C1464 C1472 1.378 . S
C1465 C1464 1.367 . S
C1465 C1473 1.433 . S
C1466 H1462 0.929 . S
C1466 C1468 1.378 . S
C1466 C1470 1.350 . S
C1467 C1470 1.463 . S
C1467 C1472 1.350 . S
C1467 N1475 1.427 . S
C1468 H1459 0.930 . S
C1468 C1466 1.378 . S
C1468 C1469 1.367 . S
C1469 C1468 1.367 . S
C1469 C1471 1.433 . S
C1470 C1466 1.350 . S
C1470 C1467 1.463 . S
C1470 N1474 1.427 . S
C1471 H1461 0.929 . S
C1471 C1469 1.433 . S
C1471 N1474 1.384 . S
C1472 H1463 0.929 . S
C1472 C1464 1.378 . S
C1472 C1467 1.350 . S
C1473 H1460 0.929 . S
C1473 C1465 1.433 . S
C1473 N1475 1.384 . S
N1474 C1470 1.427 . S
N1474 C1471 1.384 . S
N1475 C1467 1.427 . S
N1475 C1473 1.384 . S
H1476 C1482 0.930 . S
H1477 C1486 0.930 . S
H1478 C1491 0.929 . S
H1479 C1489 0.929 . S
H1480 C1484 0.929 . S
H1481 C1490 0.929 . S
C1482 H1476 0.930 . S
C1482 C1483 1.367 . S
C1482 C1490 1.378 . S
C1483 C1482 1.367 . S
C1483 C1491 1.433 . S
C1484 H1480 0.929 . S
C1484 C1486 1.378 . S
C1484 C1488 1.350 . S
C1485 C1488 1.463 . S
C1485 C1490 1.350 . S
C1485 N1493 1.427 . S
C1486 H1477 0.930 . S
C1486 C1484 1.378 . S
C1486 C1487 1.367 . S
C1487 C1486 1.367 . S
C1487 C1489 1.433 . S
C1488 C1484 1.350 . S
C1488 C1485 1.463 . S
C1488 N1492 1.427 . S
C1489 H1479 0.929 . S
C1489 C1487 1.433 . S
C1489 N1492 1.384 . S
C1490 H1481 0.929 . S
C1490 C1482 1.378 . S
C1490 C1485 1.350 . S
C1491 H1478 0.929 . S
C1491 C1483 1.433 . S
C1491 N1493 1.384 . S
N1492 C1488 1.427 . S
N1492 C1489 1.384 . S
N1493 C1485 1.427 . S
N1493 C1491 1.384 . S
H1494 C1500 0.930 . S
H1495 C1504 0.930 . S
H1496 C1509 0.929 . S
H1497 C1507 0.929 . S
H1498 C1502 0.929 . S
H1499 C1508 0.929 . S
C1500 H1494 0.930 . S
C1500 C1501 1.367 . S
C1500 C1508 1.378 . S
C1501 C1500 1.367 . S
C1501 C1509 1.433 . S
C1502 H1498 0.929 . S
C1502 C1504 1.378 . S
C1502 C1506 1.350 . S
C1503 C1506 1.463 . S
C1503 C1508 1.350 . S
C1503 N1511 1.427 . S
C1504 H1495 0.930 . S
C1504 C1502 1.378 . S
C1504 C1505 1.367 . S
C1505 C1504 1.367 . S
C1505 C1507 1.433 . S
C1506 C1502 1.350 . S
C1506 C1503 1.463 . S
C1506 N1510 1.427 . S
C1507 H1497 0.929 . S
C1507 C1505 1.433 . S
C1507 N1510 1.384 . S
C1508 H1499 0.929 . S
C1508 C1500 1.378 . S
C1508 C1503 1.350 . S
C1509 H1496 0.929 . S
C1509 C1501 1.433 . S
C1509 N1511 1.384 . S
N1510 C1506 1.427 . S
N1510 C1507 1.384 . S
N1511 C1503 1.427 . S
N1511 C1509 1.384 . S
H1512 C1518 0.930 . S
H1513 C1522 0.930 . S
H1514 C1527 0.929 . S
H1515 C1525 0.929 . S
H1516 C1520 0.929 . S
H1517 C1526 0.929 . S
C1518 H1512 0.930 . S
C1518 C1519 1.367 . S
C1518 C1526 1.378 . S
C1519 C1518 1.367 . S
C1519 C1527 1.433 . S
C1520 H1516 0.929 . S
C1520 C1522 1.378 . S
C1520 C1524 1.350 . S
C1521 C1524 1.463 . S
C1521 C1526 1.350 . S
C1521 N1529 1.427 . S
C1522 H1513 0.930 . S
C1522 C1520 1.378 . S
C1522 C1523 1.367 . S
C1523 C1522 1.367 . S
C1523 C1525 1.433 . S
C1524 C1520 1.350 . S
C1524 C1521 1.463 . S
C1524 N1528 1.427 . S
C1525 H1515 0.929 . S
C1525 C1523 1.433 . S
C1525 N1528 1.384 . S
C1526 H1517 0.929 . S
C1526 C1518 1.378 . S
C1526 C1521 1.350 . S
C1527 H1514 0.929 . S
C1527 C1519 1.433 . S
C1527 N1529 1.384 . S
N1528 C1524 1.427 . S
N1528 C1525 1.384 . S
N1529 C1521 1.427 . S
N1529 C1527 1.384 . S
H1530 C1536 0.930 . S
H1531 C1540 0.930 . S
H1532 C1545 0.929 . S
H1533 C1543 0.929 . S
H1534 C1538 0.929 . S
H1535 C1544 0.929 . S
C1536 H1530 0.930 . S
C1536 C1537 1.367 . S
C1536 C1544 1.378 . S
C1537 C1536 1.367 . S
C1537 C1545 1.433 . S
C1538 H1534 0.929 . S
C1538 C1540 1.378 . S
C1538 C1542 1.350 . S
C1539 C1542 1.463 . S
C1539 C1544 1.350 . S
C1539 N1547 1.427 . S
C1540 H1531 0.930 . S
C1540 C1538 1.378 . S
C1540 C1541 1.367 . S
C1541 C1540 1.367 . S
C1541 C1543 1.433 . S
C1542 C1538 1.350 . S
C1542 C1539 1.463 . S
C1542 N1546 1.427 . S
C1543 H1533 0.929 . S
C1543 C1541 1.433 . S
C1543 N1546 1.384 . S
C1544 H1535 0.929 . S
C1544 C1536 1.378 . S
C1544 C1539 1.350 . S
C1545 H1532 0.929 . S
C1545 C1537 1.433 . S
C1545 N1547 1.384 . S
N1546 C1542 1.427 . S
N1546 C1543 1.384 . S
N1547 C1539 1.427 . S
N1547 C1545 1.384 . S
H1548 C1554 0.930 . S
H1549 C1558 0.930 . S
H1550 C1563 0.929 . S
H1551 C1561 0.929 . S
H1552 C1556 0.929 . S
H1553 C1562 0.929 . S
C1554 H1548 0.930 . S
C1554 C1555 1.367 . S
C1554 C1562 1.378 . S
C1555 C1554 1.367 . S
C1555 C1563 1.433 . S
C1556 H1552 0.929 . S
C1556 C1558 1.378 . S
C1556 C1560 1.350 . S
C1557 C1560 1.463 . S
C1557 C1562 1.350 . S
C1557 N1565 1.427 . S
C1558 H1549 0.930 . S
C1558 C1556 1.378 . S
C1558 C1559 1.367 . S
C1559 C1558 1.367 . S
C1559 C1561 1.433 . S
C1560 C1556 1.350 . S
C1560 C1557 1.463 . S
C1560 N1564 1.427 . S
C1561 H1551 0.929 . S
C1561 C1559 1.433 . S
C1561 N1564 1.384 . S
C1562 H1553 0.929 . S
C1562 C1554 1.378 . S
C1562 C1557 1.350 . S
C1563 H1550 0.929 . S
C1563 C1555 1.433 . S
C1563 N1565 1.384 . S
N1564 C1560 1.427 . S
N1564 C1561 1.384 . S
N1565 C1557 1.427 . S
N1565 C1563 1.384 . S
H1566 C1572 0.930 . S
H1567 C1576 0.930 . S
H1568 C1581 0.929 . S
H1569 C1579 0.929 . S
H1570 C1574 0.929 . S
H1571 C1580 0.929 . S
C1572 H1566 0.930 . S
C1572 C1573 1.367 . S
C1572 C1580 1.378 . S
C1573 C1572 1.367 . S
C1573 C1581 1.433 . S
C1574 H1570 0.929 . S
C1574 C1576 1.378 . S
C1574 C1578 1.350 . S
C1575 C1578 1.463 . S
C1575 C1580 1.350 . S
C1575 N1583 1.427 . S
C1576 H1567 0.930 . S
C1576 C1574 1.378 . S
C1576 C1577 1.367 . S
C1577 C1576 1.367 . S
C1577 C1579 1.433 . S
C1578 C1574 1.350 . S
C1578 C1575 1.463 . S
C1578 N1582 1.427 . S
C1579 H1569 0.929 . S
C1579 C1577 1.433 . S
C1579 N1582 1.384 . S
C1580 H1571 0.929 . S
C1580 C1572 1.378 . S
C1580 C1575 1.350 . S
C1581 H1568 0.929 . S
C1581 C1573 1.433 . S
C1581 N1583 1.384 . S
N1582 C1578 1.427 . S
N1582 C1579 1.384 . S
N1583 C1575 1.427 . S
N1583 C1581 1.384 . S
H1584 C1590 0.930 . S
H1585 C1594 0.930 . S
H1586 C1599 0.929 . S
H1587 C1597 0.929 . S
H1588 C1592 0.929 . S
H1589 C1598 0.929 . S
C1590 H1584 0.930 . S
C1590 C1591 1.367 . S
C1590 C1598 1.378 . S
C1591 C1590 1.367 . S
C1591 C1599 1.433 . S
C1592 H1588 0.929 . S
C1592 C1594 1.378 . S
C1592 C1596 1.350 . S
C1593 C1596 1.463 . S
C1593 C1598 1.350 . S
C1593 N1601 1.427 . S
C1594 H1585 0.930 . S
C1594 C1592 1.378 . S
C1594 C1595 1.367 . S
C1595 C1594 1.367 . S
C1595 C1597 1.433 . S
C1596 C1592 1.350 . S
C1596 C1593 1.463 . S
C1596 N1600 1.427 . S
C1597 H1587 0.929 . S
C1597 C1595 1.433 . S
C1597 N1600 1.384 . S
C1598 H1589 0.929 . S
C1598 C1590 1.378 . S
C1598 C1593 1.350 . S
C1599 H1586 0.929 . S
C1599 C1591 1.433 . S
C1599 N1601 1.384 . S
N1600 C1596 1.427 . S
N1600 C1597 1.384 . S
N1601 C1593 1.427 . S
N1601 C1599 1.384 . S
H1602 C1608 0.930 . S
H1603 C1612 0.930 . S
H1604 C1617 0.929 . S
H1605 C1615 0.929 . S
H1606 C1610 0.929 . S
H1607 C1616 0.929 . S
C1608 H1602 0.930 . S
C1608 C1609 1.367 . S
C1608 C1616 1.378 . S
C1609 C1608 1.367 . S
C1609 C1617 1.433 . S
C1610 H1606 0.929 . S
C1610 C1612 1.378 . S
C1610 C1614 1.350 . S
C1611 C1614 1.463 . S
C1611 C1616 1.350 . S
C1611 N1619 1.427 . S
C1612 H1603 0.930 . S
C1612 C1610 1.378 . S
C1612 C1613 1.367 . S
C1613 C1612 1.367 . S
C1613 C1615 1.433 . S
C1614 C1610 1.350 . S
C1614 C1611 1.463 . S
C1614 N1618 1.427 . S
C1615 H1605 0.929 . S
C1615 C1613 1.433 . S
C1615 N1618 1.384 . S
C1616 H1607 0.929 . S
C1616 C1608 1.378 . S
C1616 C1611 1.350 . S
C1617 H1604 0.929 . S
C1617 C1609 1.433 . S
C1617 N1619 1.384 . S
N1618 C1614 1.427 . S
N1618 C1615 1.384 . S
N1619 C1611 1.427 . S
N1619 C1617 1.384 . S
H1620 C1626 0.930 . S
H1621 C1630 0.930 . S
H1622 C1635 0.929 . S
H1623 C1633 0.929 . S
H1624 C1628 0.929 . S
H1625 C1634 0.929 . S
C1626 H1620 0.930 . S
C1626 C1627 1.367 . S
C1626 C1634 1.378 . S
C1627 C1626 1.367 . S
C1627 C1635 1.433 . S
C1628 H1624 0.929 . S
C1628 C1630 1.378 . S
C1628 C1632 1.350 . S
C1629 C1632 1.463 . S
C1629 C1634 1.350 . S
C1629 N1637 1.427 . S
C1630 H1621 0.930 . S
C1630 C1628 1.378 . S
C1630 C1631 1.367 . S
C1631 C1630 1.367 . S
C1631 C1633 1.433 . S
C1632 C1628 1.350 . S
C1632 C1629 1.463 . S
C1632 N1636 1.427 . S
C1633 H1623 0.929 . S
C1633 C1631 1.433 . S
C1633 N1636 1.384 . S
C1634 H1625 0.929 . S
C1634 C1626 1.378 . S
C1634 C1629 1.350 . S
C1635 H1622 0.929 . S
C1635 C1627 1.433 . S
C1635 N1637 1.384 . S
N1636 C1632 1.427 . S
N1636 C1633 1.384 . S
N1637 C1629 1.427 . S
N1637 C1635 1.384 . S
H1638 C1644 0.930 . S
H1639 C1648 0.930 . S
H1640 C1653 0.929 . S
H1641 C1651 0.929 . S
H1642 C1646 0.929 . S
H1643 C1652 0.929 . S
C1644 H1638 0.930 . S
C1644 C1645 1.367 . S
C1644 C1652 1.378 . S
C1645 C1644 1.367 . S
C1645 C1653 1.433 . S
C1646 H1642 0.929 . S
C1646 C1648 1.378 . S
C1646 C1650 1.350 . S
C1647 C1650 1.463 . S
C1647 C1652 1.350 . S
C1647 N1655 1.427 . S
C1648 H1639 0.930 . S
C1648 C1646 1.378 . S
C1648 C1649 1.367 . S
C1649 C1648 1.367 . S
C1649 C1651 1.433 . S
C1650 C1646 1.350 . S
C1650 C1647 1.463 . S
C1650 N1654 1.427 . S
C1651 H1641 0.929 . S
C1651 C1649 1.433 . S
C1651 N1654 1.384 . S
C1652 H1643 0.929 . S
C1652 C1644 1.378 . S
C1652 C1647 1.350 . S
C1653 H1640 0.929 . S
C1653 C1645 1.433 . S
C1653 N1655 1.384 . S
N1654 C1650 1.427 . S
N1654 C1651 1.384 . S
N1655 C1647 1.427 . S
N1655 C1653 1.384 . S
H1656 C1662 0.930 . S
H1657 C1666 0.930 . S
H1658 C1671 0.929 . S
H1659 C1669 0.929 . S
H1660 C1664 0.929 . S
H1661 C1670 0.929 . S
C1662 H1656 0.930 . S
C1662 C1663 1.367 . S
C1662 C1670 1.378 . S
C1663 C1662 1.367 . S
C1663 C1671 1.433 . S
C1664 H1660 0.929 . S
C1664 C1666 1.378 . S
C1664 C1668 1.350 . S
C1665 C1668 1.463 . S
C1665 C1670 1.350 . S
C1665 N1673 1.427 . S
C1666 H1657 0.930 . S
C1666 C1664 1.378 . S
C1666 C1667 1.367 . S
C1667 C1666 1.367 . S
C1667 C1669 1.433 . S
C1668 C1664 1.350 . S
C1668 C1665 1.463 . S
C1668 N1672 1.427 . S
C1669 H1659 0.929 . S
C1669 C1667 1.433 . S
C1669 N1672 1.384 . S
C1670 H1661 0.929 . S
C1670 C1662 1.378 . S
C1670 C1665 1.350 . S
C1671 H1658 0.929 . S
C1671 C1663 1.433 . S
C1671 N1673 1.384 . S
N1672 C1668 1.427 . S
N1672 C1669 1.384 . S
N1673 C1665 1.427 . S
N1673 C1671 1.384 . S
H1674 C1680 0.930 . S
H1675 C1684 0.930 . S
H1676 C1689 0.929 . S
H1677 C1687 0.929 . S
H1678 C1682 0.929 . S
H1679 C1688 0.929 . S
C1680 H1674 0.930 . S
C1680 C1681 1.367 . S
C1680 C1688 1.378 . S
C1681 C1680 1.367 . S
C1681 C1689 1.433 . S
C1682 H1678 0.929 . S
C1682 C1684 1.378 . S
C1682 C1686 1.350 . S
C1683 C1686 1.463 . S
C1683 C1688 1.350 . S
C1683 N1691 1.427 . S
C1684 H1675 0.930 . S
C1684 C1682 1.378 . S
C1684 C1685 1.367 . S
C1685 C1684 1.367 . S
C1685 C1687 1.433 . S
C1686 C1682 1.350 . S
C1686 C1683 1.463 . S
C1686 N1690 1.427 . S
C1687 H1677 0.929 . S
C1687 C1685 1.433 . S
C1687 N1690 1.384 . S
C1688 H1679 0.929 . S
C1688 C1680 1.378 . S
C1688 C1683 1.350 . S
C1689 H1676 0.929 . S
C1689 C1681 1.433 . S
C1689 N1691 1.384 . S
N1690 C1686 1.427 . S
N1690 C1687 1.384 . S
N1691 C1683 1.427 . S
N1691 C1689 1.384 . S
H1692 C1698 0.930 . S
H1693 C1702 0.930 . S
H1694 C1707 0.929 . S
H1695 C1705 0.929 . S
H1696 C1700 0.929 . S
H1697 C1706 0.929 . S
C1698 H1692 0.930 . S
C1698 C1699 1.367 . S
C1698 C1706 1.378 . S
C1699 C1698 1.367 . S
C1699 C1707 1.433 . S
C1700 H1696 0.929 . S
C1700 C1702 1.378 . S
C1700 C1704 1.350 . S
C1701 C1704 1.463 . S
C1701 C1706 1.350 . S
C1701 N1709 1.427 . S
C1702 H1693 0.930 . S
C1702 C1700 1.378 . S
C1702 C1703 1.367 . S
C1703 C1702 1.367 . S
C1703 C1705 1.433 . S
C1704 C1700 1.350 . S
C1704 C1701 1.463 . S
C1704 N1708 1.427 . S
C1705 H1695 0.929 . S
C1705 C1703 1.433 . S
C1705 N1708 1.384 . S
C1706 H1697 0.929 . S
C1706 C1698 1.378 . S
C1706 C1701 1.350 . S
C1707 H1694 0.929 . S
C1707 C1699 1.433 . S
C1707 N1709 1.384 . S
N1708 C1704 1.427 . S
N1708 C1705 1.384 . S
N1709 C1701 1.427 . S
N1709 C1707 1.384 . S
H1710 C1716 0.930 . S
H1711 C1720 0.930 . S
H1712 C1725 0.929 . S
H1713 C1723 0.929 . S
H1714 C1718 0.929 . S
H1715 C1724 0.929 . S
C1716 H1710 0.930 . S
C1716 C1717 1.367 . S
C1716 C1724 1.378 . S
C1717 C1716 1.367 . S
C1717 C1725 1.433 . S
C1718 H1714 0.929 . S
C1718 C1720 1.378 . S
C1718 C1722 1.350 . S
C1719 C1722 1.463 . S
C1719 C1724 1.350 . S
C1719 N1727 1.427 . S
C1720 H1711 0.930 . S
C1720 C1718 1.378 . S
C1720 C1721 1.367 . S
C1721 C1720 1.367 . S
C1721 C1723 1.433 . S
C1722 C1718 1.350 . S
C1722 C1719 1.463 . S
C1722 N1726 1.427 . S
C1723 H1713 0.929 . S
C1723 C1721 1.433 . S
C1723 N1726 1.384 . S
C1724 H1715 0.929 . S
C1724 C1716 1.378 . S
C1724 C1719 1.350 . S
C1725 H1712 0.929 . S
C1725 C1717 1.433 . S
C1725 N1727 1.384 . S
N1726 C1722 1.427 . S
N1726 C1723 1.384 . S
N1727 C1719 1.427 . S
N1727 C1725 1.384 . S
C875 C689 1.518 . S
C871 C74 1.421 . S
C893 C694 0.677 . S
C889 C142 0.990 . S
C911 C695 1.532 . S
C907 C231 1.425 . S
C925 C322 1.256 . S
C929 C699 1.359 . S
C943 C406 0.952 . S
C947 C702 0.631 . S
C965 C703 1.525 . S
C961 C494 1.436 . S
C979 C562 1.268 . S
C983 C680 1.367 . S
C997 C651 1.427 . S
C1001 C696 1.524 . S
C1019 C734 1.352 . S
C1015 C58 1.306 . S
C1033 C151 1.489 . S
C1037 C760 1.511 . S
C1055 C712 2.429 . S
C1051 C224 2.359 . S
C1073 C767 1.405 . S
C1069 C315 1.376 . S
C1087 C399 1.402 . S
C1091 C721 1.433 . S
C1109 C763 1.346 . S
C1105 C478 1.292 . S
C1123 C571 1.456 . S
C1127 C727 1.527 . S
C1141 C644 2.345 . S
C1145 C758 2.426 . S
C1159 C67 2.343 . S
C1163 C766 2.425 . S
C1177 C392 1.496 . S
C1181 C753 1.516 . S
C1199 C731 2.438 . S
C1195 C487 2.362 . S
C1217 C759 1.406 . S
C1213 C578 1.383 . S
C1231 C658 1.302 . S
C1235 C726 1.349 . S
C1249 C238 1.297 . S
C1253 C744 1.348 . S
C1271 C735 1.524 . S
C1267 C308 1.454 . S
C1285 C158 1.385 . S
C1289 C728 1.418 . S
C1303 C662 1.408 . S
C1307 C790 1.433 . S
C1321 C394 0.972 . S
C1325 C785 0.375 . S
C1343 C799 1.417 . S
C1339 C483 1.395 . S
C1361 C776 1.337 . S
C1357 C574 1.230 . S
C1375 C154 1.000 . S
C1379 C792 0.391 . S
C1397 C791 1.416 . S
C1393 C242 1.394 . S
C1411 C310 1.241 . S
C1415 C795 1.343 . S
C1429 C63 1.406 . S
C1433 C798 1.441 . S
C1447 C646 1.292 . S
C1451 C824 1.380 . S
C1469 C840 1.521 . S
C1465 C403 1.515 . S
C1483 C476 2.368 . S
C1487 C822 2.491 . S
C1501 C567 1.383 . S
C1505 C855 1.391 . S
C1523 C831 1.381 . S
C1519 C147 1.378 . S
C1537 C226 1.317 . S
C1541 C849 1.358 . S
C1559 C827 1.495 . S
C1555 C319 1.437 . S
C1577 C862 2.474 . S
C1573 C56 2.382 . S
C1595 C854 2.473 . S
C1591 C655 2.386 . S
C1609 C140 1.515 . S
C1613 C859 1.521 . S
C1627 C235 2.370 . S
C1631 C830 2.490 . S
C1649 C863 1.393 . S
C1645 C326 1.390 . S
C1663 C70 1.290 . S
C1667 C817 1.379 . S
C1681 C490 1.312 . S
C1685 C856 1.362 . S
C1703 C808 1.487 . S
C1699 C560 1.448 . S
C1721 C823 1.382 . S
C1717 C410 1.371 . S
