# Generated by pormake.
# Topology hwx, (6,3)-cn, num edge types: 1
# Building blocks:
#     Node 0, Type 0, BuildingBlock: IZENUY_clean_sbu_0, # of connection points: 6
#     Node 1, Type 0, BuildingBlock: IZENUY_clean_sbu_0, # of connection points: 6
#     Node 2, Type 0, BuildingBlock: IZENUY_clean_sbu_0, # of connection points: 6
#     Node 3, Type 0, BuildingBlock: IZENUY_clean_sbu_0, # of connection points: 6
#     Node 4, Type 1, BuildingBlock: WUSLED_clean_sbu_0, # of connection points: 3
#     Node 5, Type 1, BuildingBlock: WUSLED_clean_sbu_0, # of connection points: 3
#     Node 6, Type 1, BuildingBlock: WUSLED_clean_sbu_0, # of connection points: 3
#     Node 7, Type 1, BuildingBlock: WUSLED_clean_sbu_0, # of connection points: 3
#     Node 8, Type 1, BuildingBlock: WUSLED_clean_sbu_0, # of connection points: 3
#     Node 9, Type 1, BuildingBlock: WUSLED_clean_sbu_0, # of connection points: 3
#     Node 10, Type 1, BuildingBlock: WUSLED_clean_sbu_0, # of connection points: 3
#     Node 11, Type 1, BuildingBlock: WUSLED_clean_sbu_0, # of connection points: 3
#     Edge 12, Type (0, 1), BuildingBlock: EZIPEK_clean_linker_0, # of connection points: 2
#     Edge 13, Type (0, 1), BuildingBlock: EZIPEK_clean_linker_0, # of connection points: 2
#     Edge 14, Type (0, 1), BuildingBlock: EZIPEK_clean_linker_0, # of connection points: 2
#     Edge 15, Type (0, 1), BuildingBlock: EZIPEK_clean_linker_0, # of connection points: 2
#     Edge 16, Type (0, 1), BuildingBlock: EZIPEK_clean_linker_0, # of connection points: 2
#     Edge 17, Type (0, 1), BuildingBlock: EZIPEK_clean_linker_0, # of connection points: 2
#     Edge 18, Type (0, 1), BuildingBlock: EZIPEK_clean_linker_0, # of connection points: 2
#     Edge 19, Type (0, 1), BuildingBlock: EZIPEK_clean_linker_0, # of connection points: 2
#     Edge 20, Type (0, 1), BuildingBlock: EZIPEK_clean_linker_0, # of connection points: 2
#     Edge 21, Type (0, 1), BuildingBlock: EZIPEK_clean_linker_0, # of connection points: 2
#     Edge 22, Type (0, 1), BuildingBlock: EZIPEK_clean_linker_0, # of connection points: 2
#     Edge 23, Type (0, 1), BuildingBlock: EZIPEK_clean_linker_0, # of connection points: 2
#     Edge 24, Type (0, 1), BuildingBlock: EZIPEK_clean_linker_0, # of connection points: 2
#     Edge 25, Type (0, 1), BuildingBlock: EZIPEK_clean_linker_0, # of connection points: 2
#     Edge 26, Type (0, 1), BuildingBlock: EZIPEK_clean_linker_0, # of connection points: 2
#     Edge 27, Type (0, 1), BuildingBlock: EZIPEK_clean_linker_0, # of connection points: 2
#     Edge 28, Type (0, 1), BuildingBlock: EZIPEK_clean_linker_0, # of connection points: 2
#     Edge 29, Type (0, 1), BuildingBlock: EZIPEK_clean_linker_0, # of connection points: 2
#     Edge 30, Type (0, 1), BuildingBlock: EZIPEK_clean_linker_0, # of connection points: 2
#     Edge 31, Type (0, 1), BuildingBlock: EZIPEK_clean_linker_0, # of connection points: 2
#     Edge 32, Type (0, 1), BuildingBlock: EZIPEK_clean_linker_0, # of connection points: 2
#     Edge 33, Type (0, 1), BuildingBlock: EZIPEK_clean_linker_0, # of connection points: 2
#     Edge 34, Type (0, 1), BuildingBlock: EZIPEK_clean_linker_0, # of connection points: 2
#     Edge 35, Type (0, 1), BuildingBlock: EZIPEK_clean_linker_0, # of connection points: 2
# Relax obj value: 0.048
# Max RMSD: 0.074
# Mean RMSD: 0.065
data_MOF--net-hwx--node1-IZENUY_clean_sbu_0--node2-WUSLED_clean_sbu_0--edge1-EZIPEK_clean_linker_0
_symmetry_space_group_name_H-M    P1
_symmetry_Int_Tables_number       1
_symmetry_cell_setting            triclinic
loop_
_symmetry_equiv_pos_as_xyz
'x, y, z'
_cell_length_a     48.779587
_cell_length_b     49.230406
_cell_length_c     23.272042
_cell_angle_alpha  90.557622
_cell_angle_beta   90.442768
_cell_angle_gamma 89.978757
loop_
_atom_site_label
_atom_site_type_symbol
_atom_site_fract_x
_atom_site_fract_y
_atom_site_fract_z
_atom_type_partial_charge
Fe0 Fe 0.24407 0.22498 0.08889 0.0
Fe1 Fe 0.24425 0.22452 0.95642 0.0
O2 O 0.23698 0.20818 0.02229 0.0
Fe3 Fe 0.22308 0.17472 0.02139 0.0
O4 O 0.20308 0.1794 0.08732 0.0
O5 O 0.20875 0.22229 0.11222 0.0
O6 O 0.23571 0.25929 0.06232 0.0
C7 C 0.22359 0.26763 0.01737 0.0
C8 C 0.25942 0.16995 0.11022 0.0
O9 O 0.22175 0.25284 0.97298 0.0
C10 C 0.26074 0.17303 0.92884 0.0
O11 O 0.28007 0.22891 0.07209 0.0
O12 O 0.27453 0.243 0.98347 0.0
O13 O 0.25213 0.16149 0.06121 0.0
O14 O 0.25365 0.19379 0.12707 0.0
C15 C 0.1939 0.19694 0.93339 0.0
O16 O 0.26741 0.19761 0.93473 0.0
O17 O 0.24035 0.16359 0.95516 0.0
C18 C 0.28921 0.24032 0.02805 0.0
O19 O 0.21531 0.20906 0.91694 0.0
O20 O 0.19299 0.18535 0.98137 0.0
C21 C 0.19589 0.20019 0.11579 0.0
Fe22 Fe 0.26884 0.72018 0.59049 0.0
Fe23 Fe 0.2898 0.67033 0.52215 0.0
O24 O 0.27596 0.70384 0.52384 0.0
Fe25 Fe 0.26965 0.72115 0.45842 0.0
O26 O 0.27706 0.75526 0.48703 0.0
O27 O 0.29145 0.74842 0.57523 0.0
O28 O 0.2979 0.70486 0.62892 0.0
C29 C 0.31908 0.69237 0.6121 0.0
C30 C 0.22405 0.73615 0.51833 0.0
O31 O 0.31975 0.68042 0.56399 0.0
C32 C 0.25421 0.6666 0.43125 0.0
O33 O 0.24576 0.69331 0.61205 0.0
O34 O 0.27196 0.65891 0.587 0.0
O35 O 0.23335 0.72476 0.47371 0.0
O36 O 0.23851 0.73856 0.56358 0.0
C37 C 0.31835 0.69696 0.43237 0.0
O38 O 0.26102 0.65744 0.47979 0.0
O39 O 0.26099 0.69035 0.41662 0.0
C40 C 0.25222 0.66861 0.61563 0.0
O41 O 0.31033 0.67561 0.45717 0.0
O42 O 0.30552 0.71896 0.43903 0.0
C43 C 0.28961 0.76327 0.5317 0.0
Fe44 Fe 0.77002 0.80262 0.95773 0.0
Fe45 Fe 0.76966 0.80225 0.08998 0.0
O46 O 0.77648 0.81917 0.02458 0.0
Fe47 Fe 0.79005 0.85275 0.0264 0.0
O48 O 0.77353 0.86366 0.95943 0.0
O49 O 0.7472 0.82941 0.93387 0.0
O50 O 0.73936 0.78419 0.9824 0.0
C51 C 0.72451 0.78662 0.02666 0.0
C52 C 0.82038 0.83073 0.94 0.0
O53 O 0.73359 0.79794 0.07185 0.0
C54 C 0.81766 0.82748 0.11938 0.0
O55 O 0.79247 0.77455 0.97516 0.0
O56 O 0.7779 0.76807 0.06299 0.0
O57 O 0.8206 0.84229 0.9885 0.0
O58 O 0.79944 0.81798 0.92166 0.0
C59 C 0.75328 0.85682 0.11295 0.0
O60 O 0.80524 0.80518 0.11293 0.0
O61 O 0.80946 0.84849 0.09367 0.0
C62 C 0.79056 0.75992 0.01892 0.0
O63 O 0.7601 0.83331 0.12935 0.0
O64 O 0.76034 0.86553 0.06447 0.0
C65 C 0.75372 0.85408 0.93048 0.0
Fe66 Fe 0.72467 0.3517 0.52619 0.0
Fe67 Fe 0.74383 0.30062 0.59132 0.0
O68 O 0.73753 0.3178 0.52584 0.0
Fe69 Fe 0.74398 0.3012 0.4591 0.0
O70 O 0.75324 0.33241 0.42126 0.0
O71 O 0.75463 0.36387 0.48859 0.0
O72 O 0.74154 0.36206 0.5935 0.0
C73 C 0.76051 0.35171 0.62316 0.0
C74 C 0.69619 0.3269 0.43237 0.0
O75 O 0.76653 0.32697 0.61851 0.0
C76 C 0.72353 0.25826 0.52716 0.0
O77 O 0.69404 0.34214 0.56423 0.0
O78 O 0.71416 0.31547 0.62761 0.0
O79 O 0.70829 0.30439 0.43757 0.0
O80 O 0.70485 0.34783 0.45885 0.0
C81 C 0.78941 0.2857 0.52083 0.0
O82 O 0.72145 0.27271 0.57161 0.0
O83 O 0.73608 0.26675 0.48366 0.0
C84 C 0.69395 0.32967 0.61123 0.0
O85 O 0.77476 0.28286 0.56522 0.0
O86 O 0.78005 0.29685 0.47617 0.0
C87 C 0.76081 0.35561 0.43896 0.0
C88 C 0.20473 0.55176 0.86789 0.0
C89 C 0.18702 0.57435 0.86452 0.0
C90 C 0.2149 0.59365 0.78849 0.0
C91 C 0.19199 0.59506 0.82474 0.0
C92 C 0.23262 0.57133 0.79242 0.0
C93 C 0.22754 0.55062 0.8315 0.0
U94 U 0.19426 0.51885 0.01676 0.0
O95 O 0.16995 0.48279 0.04068 0.0
O96 O 0.21461 0.48303 0.05349 0.0
C97 C 0.19175 0.46909 0.0573 0.0
C98 C 0.19969 0.52843 0.90645 0.0
C99 C 0.19357 0.43961 0.04361 0.0
C100 C 0.18137 0.39871 0.98883 0.0
C101 C 0.17954 0.42704 0.99736 0.0
C102 C 0.21115 0.39535 0.07214 0.0
C103 C 0.19742 0.3827 0.02607 0.0
C104 C 0.2092 0.42339 0.0808 0.0
C105 C 0.1959 0.57049 0.14754 0.0
C106 C 0.2176 0.57088 0.24212 0.0
C107 C 0.18999 0.60919 0.21204 0.0
C108 C 0.18424 0.59592 0.16 0.0
C109 C 0.20753 0.59722 0.25247 0.0
C110 C 0.21179 0.55753 0.1899 0.0
C111 C 0.19527 0.56095 0.08716 0.0
O112 O 0.22024 0.52174 0.94026 0.0
O113 O 0.17571 0.52685 0.93174 0.0
O114 O 0.17234 0.5506 0.06649 0.0
O115 O 0.21737 0.54867 0.06813 0.0
H116 H 0.16926 0.57588 0.89198 0.0
H117 H 0.17803 0.61214 0.82215 0.0
H118 H 0.25028 0.56979 0.76462 0.0
H119 H 0.24139 0.53342 0.83287 0.0
H120 H 0.17057 0.3893 0.95298 0.0
H121 H 0.1672 0.439 0.96813 0.0
H122 H 0.22349 0.38344 0.1015 0.0
H123 H 0.21993 0.4325 0.1171 0.0
H124 H 0.23138 0.56147 0.27276 0.0
H125 H 0.1824 0.62964 0.21895 0.0
H126 H 0.17222 0.6064 0.12774 0.0
H127 H 0.22112 0.53796 0.18125 0.0
C128 C 0.94324 0.84016 0.68085 0.0
C129 C 0.91566 0.84248 0.66384 0.0
C130 C 0.90222 0.84236 0.76435 0.0
C131 C 0.89513 0.8437 0.70573 0.0
C132 C 0.9298 0.84097 0.78081 0.0
C133 C 0.95013 0.83996 0.73934 0.0
U134 U 0.98395 0.83174 0.53515 0.0
O135 O 0.02762 0.84292 0.52747 0.0
O136 O 0.01487 0.79949 0.52369 0.0
C137 C 0.03496 0.81724 0.52375 0.0
C138 C 0.96561 0.83551 0.64039 0.0
C139 C 0.06372 0.80899 0.51718 0.0
C140 C 0.11094 0.81065 0.5512 0.0
C141 C 0.08425 0.82108 0.55147 0.0
C142 C 0.09707 0.77661 0.4808 0.0
C143 C 0.11737 0.78814 0.51635 0.0
C144 C 0.07037 0.78687 0.48148 0.0
C145 C 0.93569 0.84103 0.39353 0.0
C146 C 0.9232 0.82354 0.29899 0.0
C147 C 0.89548 0.8585 0.34425 0.0
C148 C 0.91333 0.85889 0.3915 0.0
C149 C 0.90005 0.84045 0.29831 0.0
C150 C 0.94087 0.8237 0.3466 0.0
C151 C 0.95187 0.83889 0.4467 0.0
O152 O 0.96502 0.81287 0.61012 0.0
O153 O 0.97542 0.85642 0.61255 0.0
O154 O 0.96556 0.85927 0.47004 0.0
O155 O 0.95566 0.81505 0.4704 0.0
H156 H 0.91004 0.84254 0.61872 0.0
H157 H 0.8738 0.84468 0.6926 0.0
H158 H 0.93552 0.83979 0.82581 0.0
H159 H 0.97133 0.83803 0.75302 0.0
H160 H 0.12641 0.81968 0.57905 0.0
H161 H 0.07939 0.83786 0.58012 0.0
H162 H 0.10177 0.75929 0.45357 0.0
H163 H 0.05477 0.77716 0.45502 0.0
H164 H 0.92691 0.80948 0.2638 0.0
H165 H 0.87759 0.87154 0.34439 0.0
H166 H 0.90897 0.87224 0.42757 0.0
H167 H 0.95809 0.8098 0.34749 0.0
C168 C 0.81352 0.45957 0.16881 0.0
C169 C 0.7912 0.44168 0.16281 0.0
C170 C 0.80128 0.42314 0.25693 0.0
C171 C 0.78512 0.42355 0.20681 0.0
C172 C 0.82445 0.43981 0.26145 0.0
C173 C 0.83047 0.45796 0.21767 0.0
U174 U 0.81886 0.50702 0.03183 0.0
O175 O 0.79804 0.54638 0.03169 0.0
O176 O 0.84368 0.5448 0.02943 0.0
C177 C 0.82131 0.55972 0.03015 0.0
C178 C 0.81648 0.48347 0.13203 0.0
C179 C 0.82148 0.58947 0.0314 0.0
C180 C 0.80021 0.63174 0.06141 0.0
C181 C 0.80183 0.60351 0.06385 0.0
C182 C 0.83834 0.63233 0.99509 0.0
C183 C 0.81811 0.64622 0.02627 0.0
C184 C 0.84006 0.60401 0.99777 0.0
C185 C 0.81329 0.46076 0.88884 0.0
C186 C 0.80444 0.45004 0.78855 0.0
C187 C 0.80812 0.41385 0.8583 0.0
C188 C 0.81307 0.43304 0.90203 0.0
C189 C 0.80328 0.42239 0.80157 0.0
C190 C 0.80947 0.46906 0.83192 0.0
C191 C 0.81591 0.48211 0.93257 0.0
O192 O 0.83977 0.48739 0.10519 0.0
O193 O 0.79472 0.49177 0.10349 0.0
O194 O 0.79403 0.4899 0.96095 0.0
O195 O 0.83927 0.48562 0.96023 0.0
H196 H 0.77768 0.4427 0.12576 0.0
H197 H 0.7672 0.41065 0.20287 0.0
H198 H 0.83701 0.43972 0.30004 0.0
H199 H 0.84747 0.4719 0.22358 0.0
H200 H 0.78454 0.64226 0.08577 0.0
H201 H 0.78743 0.5926 0.09031 0.0
H202 H 0.85217 0.64333 0.96754 0.0
H203 H 0.85522 0.59345 0.97214 0.0
H204 H 0.80039 0.45694 0.74523 0.0
H205 H 0.80693 0.3925 0.8689 0.0
H206 H 0.81592 0.42639 0.9459 0.0
H207 H 0.80952 0.49045 0.82128 0.0
C208 C 0.06669 0.19975 0.36496 0.0
C209 C 0.09371 0.19603 0.38434 0.0
C210 C 0.10993 0.19131 0.28445 0.0
C211 C 0.11511 0.19257 0.34468 0.0
C212 C 0.08301 0.19833 0.26678 0.0
C213 C 0.06175 0.20152 0.30605 0.0
U214 U 0.03266 0.20451 0.51483 0.0
O215 O 1.00168 0.23376 0.54495 0.0
O216 O 0.99183 0.19022 0.54213 0.0
C217 C 0.98292 0.21498 0.55261 0.0
C218 C 0.04331 0.20364 0.40421 0.0
C219 C 0.95423 0.22155 0.53583 0.0
C220 C 0.92048 0.25002 0.48702 0.0
C221 C 0.94768 0.24104 0.49396 0.0
C222 C 0.90587 0.21925 0.56128 0.0
C223 C 0.89952 0.23967 0.52175 0.0
C224 C 0.93293 0.21033 0.56823 0.0
C225 C 0.08712 0.19318 0.64161 0.0
C226 C 0.0871 0.19381 0.74623 0.0
C227 C 0.12989 0.18898 0.69479 0.0
C228 C 0.11564 0.1899 0.64281 0.0
C229 C 0.11587 0.19124 0.74687 0.0
C230 C 0.07271 0.1949 0.69362 0.0
C231 C 0.07415 0.19554 0.58459 0.0
O232 O 0.03503 0.18218 0.43243 0.0
O233 O 0.04357 0.22592 0.43568 0.0
O234 O 0.06731 0.21989 0.56682 0.0
O235 O 0.05766 0.17615 0.56627 0.0
H236 H 0.09834 0.19622 0.42996 0.0
H237 H 0.13558 0.19177 0.36236 0.0
H238 H 0.07785 0.20215 0.22246 0.0
H239 H 0.04131 0.20594 0.29014 0.0
H240 H 0.91593 0.26573 0.45608 0.0
H241 H 0.96364 0.25005 0.46827 0.0
H242 H 0.89004 0.21105 0.5885 0.0
H243 H 0.93743 0.19544 0.60097 0.0
H244 H 0.07598 0.19549 0.78622 0.0
H245 H 0.152 0.18693 0.6944 0.0
H246 H 0.12706 0.1885 0.60312 0.0
H247 H 0.05065 0.19741 0.69353 0.0
C248 C 0.69476 0.95835 0.66557 0.0
C249 C 0.70464 0.93253 0.65069 0.0
C250 C 0.70704 0.92104 0.75203 0.0
C251 C 0.71061 0.91382 0.69391 0.0
C252 C 0.69606 0.94645 0.76638 0.0
C253 C 0.68987 0.96495 0.72332 0.0
U254 U 0.69128 1.00596 0.52653 0.0
O255 O 0.66631 0.04364 0.53098 0.0
O256 O 0.71172 0.04534 0.53369 0.0
C257 C 0.68844 0.05867 0.53675 0.0
C258 C 0.69262 0.98023 0.62391 0.0
C259 C 0.68828 0.08785 0.52467 0.0
C260 C 0.67452 0.13277 0.55741 0.0
C261 C 0.67156 0.1046 0.55865 0.0
C262 C 0.71024 0.12789 0.48609 0.0
C263 C 0.69434 0.14449 0.52218 0.0
C264 C 0.70727 0.09964 0.48735 0.0
C265 C 0.69659 0.9594 0.38604 0.0
C266 C 0.68918 0.9423 0.2889 0.0
C267 C 0.72245 0.92048 0.35118 0.0
C268 C 0.71595 0.93874 0.39559 0.0
C269 C 0.70967 0.9228 0.29715 0.0
C270 C 0.68269 0.96045 0.3331 0.0
C271 C 0.69393 0.98306 0.42468 0.0
O272 O 0.71487 0.9878 0.59693 0.0
O273 O 0.66959 0.98433 0.59557 0.0
O274 O 0.67056 0.98722 0.45118 0.0
O275 O 0.71569 0.99076 0.45435 0.0
H276 H 0.70879 0.92733 0.60627 0.0
H277 H 0.71939 0.89432 0.68239 0.0
H278 H 0.6936 0.95244 0.81098 0.0
H279 H 0.68257 0.985 0.73538 0.0
H280 H 0.66225 0.14534 0.58574 0.0
H281 H 0.65716 0.09581 0.58844 0.0
H282 H 0.72561 0.13677 0.45865 0.0
H283 H 0.72054 0.08704 0.46116 0.0
H284 H 0.67929 0.9444 0.24732 0.0
H285 H 0.73831 0.90541 0.35799 0.0
H286 H 0.72704 0.93764 0.43601 0.0
H287 H 0.66799 0.97646 0.32467 0.0
C288 C 0.57179 0.34019 0.87155 0.0
C289 C 0.59947 0.3388 0.88833 0.0
C290 C 0.61274 0.34156 0.78805 0.0
C291 C 0.61997 0.33961 0.84647 0.0
C292 C 0.58519 0.34401 0.77199 0.0
C293 C 0.56488 0.3434 0.81352 0.0
U294 U 0.53063 0.33182 0.01597 0.0
O295 O 0.48709 0.34344 0.02382 0.0
O296 O 0.49943 0.29986 0.02592 0.0
C297 C 0.47953 0.31783 0.02651 0.0
C298 C 0.54916 0.33551 0.91109 0.0
C299 C 0.45071 0.30993 0.03249 0.0
C300 C 0.40367 0.31198 0.99785 0.0
C301 C 0.43048 0.32203 0.99797 0.0
C302 C 0.41688 0.27832 0.06828 0.0
C303 C 0.39686 0.28987 0.03255 0.0
C304 C 0.44371 0.28818 0.06797 0.0
C305 C 0.57855 0.34076 0.15847 0.0
C306 C 0.59151 0.32245 0.25127 0.0
C307 C 0.61788 0.35912 0.21006 0.0
C308 C 0.60015 0.35947 0.16264 0.0
C309 C 0.61393 0.34026 0.25403 0.0
C310 C 0.57397 0.3226 0.20351 0.0
C311 C 0.56246 0.33879 0.10509 0.0
O312 O 0.5496 0.31286 0.94043 0.0
O313 O 0.53927 0.35644 0.9396 0.0
O314 O 0.54905 0.35929 0.08231 0.0
O315 O 0.55863 0.31498 0.0803 0.0
H316 H 0.60509 0.3362 0.93307 0.0
H317 H 0.64129 0.3377 0.85923 0.0
H318 H 0.57938 0.34545 0.72709 0.0
H319 H 0.54359 0.34432 0.8 0.0
H320 H 0.3884 0.32099 0.96986 0.0
H321 H 0.43565 0.33851 0.96949 0.0
H322 H 0.41184 0.26129 0.09538 0.0
H323 H 0.45911 0.27849 0.09459 0.0
H324 H 0.58831 0.30774 0.28489 0.0
H325 H 0.63523 0.37284 0.21152 0.0
H326 H 0.60402 0.3735 0.12805 0.0
H327 H 0.55733 0.30806 0.20098 0.0
C328 C 0.312 0.06378 0.37898 0.0
C329 C 0.29168 0.08367 0.38689 0.0
C330 C 0.30029 0.10081 0.29108 0.0
C331 C 0.28586 0.10211 0.34303 0.0
C332 C 0.32152 0.08192 0.28446 0.0
C333 C 0.32731 0.06353 0.32816 0.0
U334 U 0.31455 0.01674 0.51734 0.0
O335 O 0.29434 0.97704 0.51481 0.0
O336 O 0.33979 0.97926 0.52313 0.0
C337 C 0.31771 0.96399 0.51935 0.0
C338 C 0.3144 0.04011 0.4167 0.0
C339 C 0.31837 0.93416 0.5185 0.0
C340 C 0.29761 0.89145 0.48883 0.0
C341 C 0.29875 0.91971 0.48614 0.0
C342 C 0.33625 0.89158 0.55507 0.0
C343 C 0.316 0.87729 0.5241 0.0
C344 C 0.33747 0.91994 0.55217 0.0
C345 C 0.30527 0.06324 0.65943 0.0
C346 C 0.29772 0.07433 0.75969 0.0
C347 C 0.30217 0.11022 0.6908 0.0
C348 C 0.30517 0.09087 0.64658 0.0
C349 C 0.30077 0.10245 0.74945 0.0
C350 C 0.30078 0.05514 0.71585 0.0
C351 C 0.30887 0.04185 0.61589 0.0
O352 O 0.33702 0.03659 0.44689 0.0
O353 O 0.29207 0.03172 0.44232 0.0
O354 O 0.28781 0.03388 0.58448 0.0
O355 O 0.33291 0.0383 0.59172 0.0
H356 H 0.27943 0.08406 0.42552 0.0
H357 H 0.26937 0.11663 0.34856 0.0
H358 H 0.33266 0.08056 0.24444 0.0
H359 H 0.34273 0.04804 0.32087 0.0
H360 H 0.28194 0.88064 0.46458 0.0
H361 H 0.28397 0.9303 0.45953 0.0
H362 H 0.35048 0.88085 0.58269 0.0
H363 H 0.35267 0.93077 0.57765 0.0
H364 H 0.29253 0.06661 0.80148 0.0
H365 H 0.30025 0.13098 0.67737 0.0
H366 H 0.30704 0.09748 0.60252 0.0
H367 H 0.29936 0.03375 0.72612 0.0
C368 C 0.44745 0.69446 0.17975 0.0
C369 C 0.42074 0.68867 0.15982 0.0
C370 C 0.40361 0.69112 0.25825 0.0
C371 C 0.39897 0.68679 0.19897 0.0
C372 C 0.43041 0.69636 0.27764 0.0
C373 C 0.45205 0.69785 0.23887 0.0
U374 U 0.48221 0.70086 0.03051 0.0
O375 O 0.51315 0.73071 1.00418 0.0
O376 O 0.52346 0.68728 1.00341 0.0
C377 C 0.53216 0.71223 0.99528 0.0
C378 C 0.47089 0.69847 0.14079 0.0
C379 C 0.56081 0.71902 1.01257 0.0
C380 C 0.59418 0.74832 0.06159 0.0
C381 C 0.56713 0.73885 0.0547 0.0
C382 C 0.6092 0.71733 0.98685 0.0
C383 C 0.61526 0.73812 0.02657 0.0
C384 C 0.58227 0.70793 0.97994 0.0
C385 C 0.42765 0.69062 0.90193 0.0
C386 C 0.42687 0.69004 0.79722 0.0
C387 C 0.38437 0.68699 0.85001 0.0
C388 C 0.39902 0.68821 0.90159 0.0
C389 C 0.39804 0.68815 0.79743 0.0
C390 C 0.44168 0.69133 0.8494 0.0
C391 C 0.4412 0.69264 0.95866 0.0
O392 O 0.47908 0.67735 0.11047 0.0
O393 O 0.47088 0.72116 0.11157 0.0
O394 O 0.44781 0.71679 0.97886 0.0
O395 O 0.45777 0.67312 0.97532 0.0
H396 H 0.41668 0.68604 0.11428 0.0
H397 H 0.37845 0.68264 0.18304 0.0
H398 H 0.43453 0.69974 0.32296 0.0
H399 H 0.47245 0.70228 0.25509 0.0
H400 H 0.59849 0.76432 0.09264 0.0
H401 H 0.55106 0.74782 0.08053 0.0
H402 H 0.62512 0.70925 0.95935 0.0
H403 H 0.57799 0.69282 0.94691 0.0
H404 H 0.43775 0.6909 0.75688 0.0
H405 H 0.36221 0.6855 0.85111 0.0
H406 H 0.38786 0.68753 0.94164 0.0
H407 H 0.4638 0.69312 0.84875 0.0
C408 C 0.18111 0.1911 0.21707 0.0
C409 C 0.17403 0.19695 0.15911 0.0
C410 C 0.12643 0.18534 0.18002 0.0
C411 C 0.13241 0.18612 0.23993 0.0
N412 N 0.16703 0.16634 0.30062 0.0
N413 N 0.13933 0.19981 0.08501 0.0
C414 C 0.16035 0.18253 0.25542 0.0
C415 C 0.14651 0.19403 0.1404 0.0
N416 N 0.20756 0.19359 0.23588 0.0
N417 N 0.10369 0.17193 0.16054 0.0
H418 H 0.15346 0.20638 0.0547 0.0
H419 H 0.11898 0.20034 0.07101 0.0
H420 H 0.09128 0.16093 0.18831 0.0
H421 H 0.09955 0.16852 0.11705 0.0
H422 H 0.21317 0.19163 0.27896 0.0
H423 H 0.22336 0.20008 0.20961 0.0
H424 H 0.18711 0.16078 0.31067 0.0
H425 H 0.15216 0.15496 0.32164 0.0
C426 C 0.24303 0.65771 0.71939 0.0
C427 C 0.23911 0.65136 0.65999 0.0
C428 C 0.21537 0.60909 0.68582 0.0
C429 C 0.22051 0.6149 0.7448 0.0
N430 N 0.23412 0.64668 0.81894 0.0
N431 N 0.22288 0.62066 0.58594 0.0
C432 C 0.2327 0.63986 0.76187 0.0
C433 C 0.22544 0.62701 0.64306 0.0
N434 N 0.25858 0.67967 0.73543 0.0
N435 N 0.19989 0.58688 0.67112 0.0
H436 H 0.22831 0.63405 0.55362 0.0
H437 H 0.21648 0.60187 0.57008 0.0
H438 H 0.19194 0.57364 0.7015 0.0
H439 H 0.19302 0.58251 0.62965 0.0
H440 H 0.26594 0.68301 0.77698 0.0
H441 H 0.26582 0.69397 0.70681 0.0
H442 H 0.23916 0.66601 0.83414 0.0
H443 H 0.22827 0.63359 0.85155 0.0
C444 C 0.83383 0.82137 0.22146 0.0
C445 C 0.83912 0.83043 0.16478 0.0
C446 C 0.88305 0.84957 0.19814 0.0
C447 C 0.87914 0.83732 0.25223 0.0
N448 N 0.85307 0.80739 0.31248 0.0
N449 N 0.87096 0.84961 0.09715 0.0
C450 C 0.85523 0.82191 0.26295 0.0
C451 C 0.86432 0.8437 0.15255 0.0
N452 N 0.80797 0.81388 0.23712 0.0
N453 N 0.90436 0.86718 0.19067 0.0
H454 H 0.85844 0.84451 0.06231 0.0
H455 H 0.89006 0.857 0.08515 0.0
H456 H 0.91866 0.87158 0.22302 0.0
H457 H 0.90651 0.8791 0.15425 0.0
H458 H 0.80259 0.81002 0.27949 0.0
H459 H 0.79112 0.81448 0.2095 0.0
H460 H 0.83745 0.79337 0.31934 0.0
H461 H 0.86813 0.80747 0.34456 0.0
C462 C 0.75727 0.37323 0.7206 0.0
C463 C 0.77281 0.3681 0.67033 0.0
C464 C 0.81034 0.39569 0.71006 0.0
C465 C 0.79338 0.40305 0.75702 0.0
N466 N 0.74839 0.4039 0.79974 0.0
N467 N 0.81261 0.37726 0.61298 0.0
C468 C 0.76616 0.39332 0.7602 0.0
C469 C 0.79902 0.38006 0.66384 0.0
N470 N 0.73459 0.35811 0.73208 0.0
N471 N 0.83726 0.40333 0.71015 0.0
H472 H 0.80476 0.36606 0.57831 0.0
H473 H 0.83056 0.38768 0.60353 0.0
H474 H 0.84604 0.41492 0.74325 0.0
H475 H 0.85136 0.39644 0.67997 0.0
H476 H 0.72383 0.35945 0.77051 0.0
H477 H 0.7286 0.34186 0.70643 0.0
H478 H 0.72743 0.39979 0.79911 0.0
H479 H 0.75392 0.41883 0.82974 0.0
C480 C 0.64934 0.34265 0.40029 0.0
C481 C 0.67484 0.33011 0.38701 0.0
C482 C 0.65919 0.32254 0.2878 0.0
C483 C 0.63488 0.33718 0.29987 0.0
N484 N 0.60863 0.36539 0.36418 0.0
N485 N 0.70642 0.31468 0.3137 0.0
C486 C 0.6305 0.34856 0.35514 0.0
C487 C 0.68045 0.32178 0.32958 0.0
N488 N 0.64257 0.34782 0.45619 0.0
N489 N 0.66185 0.30886 0.23672 0.0
H490 H 0.72307 0.31467 0.34183 0.0
H491 H 0.7121 0.31158 0.27107 0.0
H492 H 0.64695 0.30918 0.20434 0.0
H493 H 0.67776 0.29527 0.22854 0.0
H494 H 0.62328 0.35454 0.46886 0.0
H495 H 0.65533 0.34283 0.49056 0.0
H496 H 0.606 0.37671 0.40177 0.0
H497 H 0.59425 0.36978 0.33215 0.0
C498 C 0.28552 0.12985 0.89979 0.0
C499 C 0.27502 0.15592 0.88523 0.0
C500 C 0.29569 0.15097 0.79027 0.0
C501 C 0.29923 0.12284 0.79926 0.0
N502 N 0.31712 0.09403 0.87349 0.0
N503 N 0.26786 0.18989 0.81146 0.0
C504 C 0.29968 0.11432 0.85744 0.0
C505 C 0.27963 0.16621 0.82921 0.0
N506 N 0.28216 0.11977 0.95372 0.0
N507 N 0.31151 0.16412 0.75144 0.0
H508 H 0.25422 0.20113 0.83633 0.0
H509 H 0.26949 0.1966 0.76923 0.0
H510 H 0.32798 0.15439 0.73153 0.0
H511 H 0.31117 0.18518 0.74686 0.0
H512 H 0.28585 0.09951 0.96382 0.0
H513 H 0.27467 0.13129 0.98782 0.0
H514 H 0.32042 0.08834 0.91598 0.0
H515 H 0.33102 0.08546 0.84461 0.0
C516 C 0.33678 0.70918 0.33445 0.0
C517 C 0.33988 0.69489 0.38705 0.0
C518 C 0.38112 0.67319 0.34771 0.0
C519 C 0.38065 0.69129 0.30055 0.0
N520 N 0.36063 0.73125 0.25751 0.0
N521 N 0.36891 0.66684 0.44709 0.0
C522 C 0.35925 0.7107 0.29634 0.0
C523 C 0.3631 0.67775 0.39463 0.0
N524 N 0.31204 0.71988 0.31855 0.0
N525 N 0.39838 0.65135 0.34732 0.0
H526 H 0.35759 0.6712 0.48379 0.0
H527 H 0.38686 0.65607 0.45559 0.0
H528 H 0.41131 0.64697 0.31294 0.0
H529 H 0.39766 0.63614 0.37813 0.0
H530 H 0.30867 0.72854 0.2784 0.0
H531 H 0.29405 0.71681 0.34137 0.0
H532 H 0.34667 0.7473 0.25715 0.0
H533 H 0.37716 0.73385 0.22998 0.0
C534 C 0.71265 0.87632 0.88434 0.0
C535 C 0.74122 0.87096 0.88481 0.0
C536 C 0.74722 0.9016 0.80385 0.0
C537 C 0.71843 0.90377 0.79803 0.0
N538 N 0.6732 0.89049 0.82801 0.0
N539 N 0.78436 0.87318 0.83458 0.0
C540 C 0.70091 0.89029 0.83689 0.0
C541 C 0.75819 0.8822 0.8418 0.0
N542 N 0.69703 0.86935 0.93035 0.0
N543 N 0.7642 0.91846 0.77426 0.0
H544 H 0.79234 0.85719 0.85795 0.0
H545 H 0.79676 0.87911 0.80063 0.0
H546 H 0.75704 0.93338 0.74639 0.0
H547 H 0.78526 0.91947 0.78203 0.0
H548 H 0.67649 0.87475 0.93443 0.0
H549 H 0.70538 0.86055 0.96714 0.0
H550 H 0.65966 0.87877 0.85169 0.0
H551 H 0.66399 0.90066 0.79377 0.0
C552 C 0.85556 0.811 0.87487 0.0
C553 C 0.84362 0.83444 0.90014 0.0
C554 C 0.87194 0.86346 0.83912 0.0
C555 C 0.88106 0.83997 0.80923 0.0
N556 N 0.8799 0.79143 0.79421 0.0
N557 N 0.83843 0.88342 0.90292 0.0
C558 C 0.87233 0.81374 0.82577 0.0
C559 C 0.85147 0.86086 0.8819 0.0
N560 N 0.85186 0.78622 0.89965 0.0
N561 N 0.88313 0.88821 0.82708 0.0
H562 H 0.82343 0.88281 0.9344 0.0
H563 H 0.8408 0.90273 0.88578 0.0
H564 H 0.89726 0.89105 0.79424 0.0
H565 H 0.87993 0.90557 0.85205 0.0
H566 H 0.86198 0.76863 0.88652 0.0
H567 H 0.84102 0.78382 0.93768 0.0
H568 H 0.87164 0.77217 0.80016 0.0
H569 H 0.89289 0.79245 0.7589 0.0
C570 C 0.76227 0.40081 0.38832 0.0
C571 C 0.77332 0.37437 0.39703 0.0
C572 C 0.80227 0.37969 0.31209 0.0
C573 C 0.79276 0.40669 0.30651 0.0
N574 N 0.7689 0.44522 0.34702 0.0
N575 N 0.80848 0.34138 0.37513 0.0
C576 C 0.77456 0.41802 0.34737 0.0
C577 C 0.79469 0.36459 0.36112 0.0
N578 N 0.7388 0.40891 0.41536 0.0
N579 N 0.8182 0.36836 0.27018 0.0
H580 H 0.8047 0.33074 0.41269 0.0
H581 H 0.82567 0.33442 0.3532 0.0
H582 H 0.82498 0.37918 0.23467 0.0
H583 H 0.82302 0.34775 0.26847 0.0
H584 H 0.72853 0.42685 0.40541 0.0
H585 H 0.72773 0.3967 0.44302 0.0
H586 H 0.7583 0.45501 0.37997 0.0
H587 H 0.77685 0.45843 0.31659 0.0
C588 C 0.15472 0.2173 0.8793 0.0
C589 C 0.17068 0.19411 0.89241 0.0
C590 C 0.14551 0.16762 0.81936 0.0
C591 C 0.13211 0.1917 0.80129 0.0
N592 N 0.12608 0.24024 0.80945 0.0
N593 N 0.18322 0.14755 0.87232 0.0
C594 C 0.13706 0.21674 0.83038 0.0
C595 C 0.16645 0.16924 0.86213 0.0
N596 N 0.1562 0.23975 0.91422 0.0
N597 N 0.13795 0.14315 0.79587 0.0
H598 H 0.19787 0.1474 0.90503 0.0
H599 H 0.18375 0.13022 0.84632 0.0
H600 H 0.12263 0.14131 0.76453 0.0
H601 H 0.145 0.12454 0.81084 0.0
H602 H 0.14325 0.25645 0.91026 0.0
H603 H 0.16867 0.2406 0.95084 0.0
H604 H 0.13161 0.25947 0.82447 0.0
H605 H 0.11288 0.24076 0.77404 0.0
C606 C 0.21631 0.63552 0.39542 0.0
C607 C 0.24227 0.64791 0.38687 0.0
C608 C 0.24404 0.62846 0.28937 0.0
C609 C 0.21935 0.61424 0.29961 0.0
N610 N 0.18282 0.6019 0.36307 0.0
N611 N 0.28341 0.65118 0.32993 0.0
C612 C 0.20576 0.61701 0.35304 0.0
C613 C 0.25678 0.64309 0.33492 0.0
N614 N 0.20123 0.64246 0.44261 0.0
N615 N 0.25514 0.62854 0.23552 0.0
H616 H 0.294 0.66093 0.36277 0.0
H617 H 0.29599 0.64563 0.29582 0.0
H618 H 0.24721 0.61728 0.20105 0.0
H619 H 0.27091 0.64155 0.22366 0.0
H620 H 0.18122 0.63598 0.44933 0.0
H621 H 0.20793 0.65663 0.47321 0.0
H622 H 0.17331 0.60083 0.40285 0.0
H623 H 0.17425 0.58888 0.33218 0.0
C624 C 0.35858 0.71313 0.66566 0.0
C625 C 0.3425 0.68986 0.65271 0.0
C626 C 0.36788 0.66398 0.72545 0.0
C627 C 0.38144 0.68817 0.74335 0.0
N628 N 0.38765 0.73658 0.73496 0.0
N629 N 0.32983 0.6436 0.67312 0.0
C630 C 0.37645 0.71295 0.71429 0.0
C631 C 0.34678 0.66528 0.68296 0.0
N632 N 0.35699 0.73529 0.63082 0.0
N633 N 0.37542 0.6397 0.74885 0.0
H634 H 0.31482 0.64335 0.64107 0.0
H635 H 0.32943 0.62646 0.69896 0.0
H636 H 0.39079 0.6381 0.78008 0.0
H637 H 0.36827 0.62098 0.73393 0.0
H638 H 0.36995 0.75202 0.63464 0.0
H639 H 0.34442 0.73583 0.59438 0.0
H640 H 0.38216 0.75571 0.72007 0.0
H641 H 0.40107 0.73733 0.77002 0.0
C642 C 0.75377 0.89995 0.17217 0.0
C643 C 0.74041 0.87539 0.15539 0.0
C644 C 0.70706 0.8816 0.23295 0.0
C645 C 0.7196 0.9067 0.24743 0.0
N646 N 0.75078 0.94283 0.22343 0.0
N647 N 0.70145 0.8455 0.16219 0.0
C648 C 0.74161 0.91686 0.21455 0.0
C649 C 0.71619 0.86697 0.1837 0.0
N650 N 0.77897 0.90638 0.15078 0.0
N651 N 0.68666 0.87164 0.26676 0.0
H652 H 0.70686 0.83524 0.12458 0.0
H653 H 0.68251 0.83951 0.17792 0.0
H654 H 0.67882 0.88235 0.30187 0.0
H655 H 0.67871 0.8521 0.26251 0.0
H656 H 0.79102 0.92215 0.16715 0.0
H657 H 0.78915 0.89472 0.12019 0.0
H658 H 0.7644 0.95245 0.196 0.0
H659 H 0.74306 0.95566 0.25536 0.0
C660 C 0.656 0.31075 0.66941 0.0
C661 C 0.67111 0.33373 0.65177 0.0
C662 C 0.64634 0.36246 0.7208 0.0
C663 C 0.63356 0.33892 0.74254 0.0
N664 N 0.62753 0.29029 0.74207 0.0
N665 N 0.68298 0.38119 0.66422 0.0
C666 C 0.63876 0.31293 0.71808 0.0
C667 C 0.66677 0.3596 0.67802 0.0
N668 N 0.65748 0.28711 0.63821 0.0
N669 N 0.63854 0.38758 0.74027 0.0
H670 H 0.69742 0.38053 0.63166 0.0
H671 H 0.68344 0.39931 0.68766 0.0
H672 H 0.62434 0.3904 0.77309 0.0
H673 H 0.64461 0.40564 0.72125 0.0
H674 H 0.64507 0.27031 0.64535 0.0
H675 H 0.66931 0.28517 0.60125 0.0
H676 H 0.63292 0.27055 0.73035 0.0
H677 H 0.61422 0.2911 0.77691 0.0
C678 C 0.29578 0.15826 0.18284 0.0
C679 C 0.27162 0.15072 0.15214 0.0
C680 C 0.26993 0.10804 0.20558 0.0
C681 C 0.29147 0.11752 0.24165 0.0
N682 N 0.32394 0.15234 0.26825 0.0
N683 N 0.23284 0.12013 0.14178 0.0
C684 C 0.30418 0.14284 0.23126 0.0
C685 C 0.25803 0.12593 0.16499 0.0
N686 N 0.31124 0.17956 0.16437 0.0
N687 N 0.26091 0.08184 0.20979 0.0
H688 H 0.22256 0.13273 0.11324 0.0
H689 H 0.22079 0.10396 0.15521 0.0
H690 H 0.26866 0.06824 0.23995 0.0
H691 H 0.24756 0.0729 0.18001 0.0
H692 H 0.33032 0.1846 0.18176 0.0
H693 H 0.30633 0.19051 0.12759 0.0
H694 H 0.33177 0.17199 0.26684 0.0
H695 H 0.33119 0.14115 0.30305 0.0
C696 C 0.19355 0.30605 0.05249 0.0
C697 C 0.21432 0.29655 0.01471 0.0
C698 C 0.21983 0.34279 0.9767 0.0
C699 C 0.20074 0.35268 0.01753 0.0
N700 N 0.16647 0.34416 0.08879 0.0
N701 N 0.24956 0.30628 0.94543 0.0
C702 C 0.18677 0.33435 0.05401 0.0
C703 C 0.22775 0.31494 0.97734 0.0
N704 N 0.18057 0.2879 0.08715 0.0
N705 N 0.23031 0.36008 0.9368 0.0
H706 H 0.25599 0.28617 0.9434 0.0
H707 H 0.26274 0.31926 0.92397 0.0
H708 H 0.22626 0.38086 0.93664 0.0
H709 H 0.24133 0.35363 0.90106 0.0
H710 H 0.16688 0.29307 0.11942 0.0
H711 H 0.18354 0.26698 0.08369 0.0
H712 H 0.15441 0.33236 0.11538 0.0
H713 H 0.16067 0.36456 0.08938 0.0
C714 C 0.19178 0.77189 0.47968 0.0
C715 C 0.19662 0.74943 0.51667 0.0
C716 C 0.15059 0.75461 0.55744 0.0
C717 C 0.14515 0.77583 0.51822 0.0
N718 N 0.16002 0.80658 0.44517 0.0
N719 N 0.17961 0.71676 0.58416 0.0
C720 C 0.16562 0.78496 0.47998 0.0
C721 C 0.17581 0.74024 0.55415 0.0
N722 N 0.21229 0.78071 0.44466 0.0
N723 N 0.13176 0.7486 0.59872 0.0
H724 H 0.1973 0.70504 0.58093 0.0
H725 H 0.16439 0.70738 0.60793 0.0
H726 H 0.1127 0.75812 0.60145 0.0
H727 H 0.13572 0.73578 0.63309 0.0
H728 H 0.21039 0.79616 0.41485 0.0
H729 H 0.23194 0.77254 0.44503 0.0
H730 H 0.17372 0.81523 0.41677 0.0
H731 H 0.14118 0.81661 0.44503 0.0
C732 C 0.78773 0.71282 0.97692 0.0
C733 C 0.80024 0.73137 0.01633 0.0
C734 C 0.82678 0.69413 0.05926 0.0
C735 C 0.81421 0.67584 0.0197 0.0
N736 N 0.78749 0.66784 0.9337 0.0
N737 N 0.83403 0.74102 0.08979 0.0
C738 C 0.79625 0.68527 0.97616 0.0
C739 C 0.82053 0.72237 0.05606 0.0
N740 N 0.7664 0.72103 0.94276 0.0
N741 N 0.84464 0.68428 0.09966 0.0
H742 H 0.8309 0.76186 0.08601 0.0
H743 H 0.8495 0.73643 0.11904 0.0
H744 H 0.8504 0.66388 0.10122 0.0
H745 H 0.85345 0.6958 0.13255 0.0
H746 H 0.75405 0.70772 0.91909 0.0
H747 H 0.75943 0.74096 0.94105 0.0
H748 H 0.77721 0.67412 0.89679 0.0
H749 H 0.79246 0.64723 0.93274 0.0
C750 C 0.82399 0.25197 0.48214 0.0
C751 C 0.81764 0.27392 0.52015 0.0
C752 C 0.86448 0.27254 0.56001 0.0
C753 C 0.87131 0.25158 0.52027 0.0
N754 N 0.85804 0.21973 0.44623 0.0
N755 N 0.83278 0.30801 0.58826 0.0
C756 C 0.85118 0.24096 0.48171 0.0
C757 C 0.83809 0.28483 0.55751 0.0
N758 N 0.80387 0.24161 0.44693 0.0
N759 N 0.88308 0.28024 0.60136 0.0
H760 H 0.81406 0.31803 0.58622 0.0
H761 H 0.84752 0.31883 0.61152 0.0
H762 H 0.90308 0.27281 0.6031 0.0
H763 H 0.87822 0.29253 0.63647 0.0
H764 H 0.80677 0.22661 0.41591 0.0
H765 H 0.78355 0.24802 0.44848 0.0
H766 H 0.84466 0.2099 0.41804 0.0
H767 H 0.87766 0.21132 0.44528 0.0
C768 C 0.69374 0.22026 0.4894 0.0
C769 C 0.71429 0.22954 0.52863 0.0
C770 C 0.71851 0.18376 0.5686 0.0
C771 C 0.69991 0.17404 0.52612 0.0
N772 N 0.66782 0.18205 0.44924 0.0
N773 N 0.74884 0.21966 0.60063 0.0
C774 C 0.68694 0.19206 0.48726 0.0
C775 C 0.72713 0.21126 0.56742 0.0
N776 N 0.68069 0.23858 0.45485 0.0
N777 N 0.72762 0.16676 0.61084 0.0
H778 H 0.7559 0.23956 0.60204 0.0
H779 H 0.76141 0.2065 0.62364 0.0
H780 H 0.72282 0.14613 0.61196 0.0
H781 H 0.73816 0.17343 0.6474 0.0
H782 H 0.66585 0.23375 0.42421 0.0
H783 H 0.6841 0.25942 0.458 0.0
H784 H 0.65753 0.19346 0.41861 0.0
H785 H 0.66198 0.16167 0.44807 0.0
C786 C 0.32212 0.27535 0.06797 0.0
C787 C 0.31682 0.25306 0.02994 0.0
C788 C 0.3632 0.25676 0.9905 0.0
C789 C 0.36893 0.27802 0.03029 0.0
N790 N 0.35442 0.30956 0.10351 0.0
N791 N 0.33337 0.21957 0.96234 0.0
C792 C 0.34854 0.28781 0.06837 0.0
C793 C 0.33758 0.24312 0.99279 0.0
N794 N 0.30183 0.28447 0.10361 0.0
N795 N 0.38212 0.25001 0.94966 0.0
H796 H 0.3154 0.2083 0.96509 0.0
H797 H 0.34847 0.20966 0.93876 0.0
H798 H 0.40149 0.25893 0.94774 0.0
H799 H 0.37804 0.23713 0.91492 0.0
H800 H 0.30431 0.29928 0.13528 0.0
H801 H 0.2819 0.27696 0.10232 0.0
H802 H 0.34057 0.31905 0.13075 0.0
H803 H 0.37356 0.319 0.10461 0.0
C804 C 0.28629 0.81049 0.57327 0.0
C805 C 0.29916 0.79189 0.53489 0.0
C806 C 0.3252 0.8293 0.49216 0.0
C807 C 0.31253 0.84761 0.53112 0.0
N808 N 0.28578 0.85552 0.61626 0.0
N809 N 0.33376 0.78236 0.46417 0.0
C810 C 0.29465 0.8381 0.57417 0.0
C811 C 0.31951 0.80098 0.4961 0.0
N812 N 0.26482 0.80224 0.60626 0.0
N813 N 0.34247 0.83917 0.45127 0.0
H814 H 0.331 0.76151 0.46848 0.0
H815 H 0.34977 0.78709 0.43682 0.0
H816 H 0.34799 0.85961 0.44929 0.0
H817 H 0.35062 0.82759 0.41795 0.0
H818 H 0.25228 0.81557 0.62906 0.0
H819 H 0.25797 0.78226 0.6077 0.0
H820 H 0.27545 0.84919 0.65274 0.0
H821 H 0.29075 0.87612 0.61741 0.0
C822 C 0.69036 0.75301 0.06654 0.0
C823 C 0.6966 0.77389 0.02662 0.0
C824 C 0.64981 0.77059 0.98626 0.0
C825 C 0.64321 0.75068 0.02769 0.0
N826 N 0.6572 0.72036 0.1027 0.0
N827 N 0.68158 0.80453 0.95257 0.0
C828 C 0.66348 0.74134 0.06696 0.0
C829 C 0.6762 0.78297 0.9872 0.0
N830 N 0.71027 0.7443 0.1038 0.0
N831 N 0.63098 0.77709 0.9447 0.0
H832 H 0.7006 0.81385 0.95123 0.0
H833 H 0.66686 0.8146 0.92817 0.0
H834 H 0.6109 0.76985 0.94437 0.0
H835 H 0.63555 0.78827 0.9083 0.0
H836 H 0.70693 0.73134 0.13799 0.0
H837 H 0.73067 0.75035 0.10132 0.0
H838 H 0.67114 0.71062 0.12946 0.0
H839 H 0.63774 0.71164 0.10421 0.0
loop_
_geom_bond_atom_site_label_1
_geom_bond_atom_site_label_2
_geom_bond_distance
_geom_bond_site_symmetry_2
_ccdc_geom_bond_type
Fe0 O2 1.918 . S
Fe0 O5 1.997 . S
Fe0 O6 2.002 . S
Fe0 O11 1.976 . S
Fe0 O14 1.996 . S
Fe1 O2 1.918 1_556 S
Fe1 O9 1.997 . S
Fe1 O12 1.996 . S
Fe1 O16 1.976 . S
Fe1 O19 2.002 . S
O2 Fe0 1.918 . S
O2 Fe1 1.918 1_554 S
O2 Fe3 1.918 . S
Fe3 O2 1.918 . S
Fe3 O4 2.002 . S
Fe3 O13 1.976 . S
Fe3 O17 1.996 1_554 S
Fe3 O20 1.997 1_554 S
O4 Fe3 2.002 . S
O4 C21 1.295 . S
O5 Fe0 1.997 . S
O5 C21 1.235 . S
O6 Fe0 2.002 . S
O6 C7 1.295 . S
C7 O6 1.295 . S
C7 O9 1.235 1_554 S
C8 O13 1.287 . S
C8 O14 1.255 . S
O9 Fe1 1.997 . S
O9 C7 1.235 1_556 S
C10 O16 1.287 . S
C10 O17 1.255 . S
O11 Fe0 1.976 . S
O11 C18 1.287 . S
O12 Fe1 1.996 . S
O12 C18 1.255 1_556 S
O13 Fe3 1.976 . S
O13 C8 1.287 . S
O14 Fe0 1.996 . S
O14 C8 1.255 . S
C15 O19 1.295 . S
C15 O20 1.235 . S
O16 Fe1 1.976 . S
O16 C10 1.287 . S
O17 Fe3 1.996 1_556 S
O17 C10 1.255 . S
C18 O11 1.287 . S
C18 O12 1.255 1_554 S
O19 Fe1 2.002 . S
O19 C15 1.295 . S
O20 Fe3 1.997 1_556 S
O20 C15 1.235 . S
C21 O4 1.295 . S
C21 O5 1.235 . S
Fe22 O24 1.918 . S
Fe22 O27 1.997 . S
Fe22 O28 2.002 . S
Fe22 O33 1.976 . S
Fe22 O36 1.996 . S
Fe23 O24 1.918 . S
Fe23 O31 1.997 . S
Fe23 O34 1.996 . S
Fe23 O38 1.976 . S
Fe23 O41 2.002 . S
O24 Fe22 1.918 . S
O24 Fe23 1.918 . S
O24 Fe25 1.918 . S
Fe25 O24 1.918 . S
Fe25 O26 2.002 . S
Fe25 O35 1.976 . S
Fe25 O39 1.996 . S
Fe25 O42 1.997 . S
O26 Fe25 2.002 . S
O26 C43 1.295 . S
O27 Fe22 1.997 . S
O27 C43 1.235 . S
O28 Fe22 2.002 . S
O28 C29 1.295 . S
C29 O28 1.295 . S
C29 O31 1.235 . S
C30 O35 1.287 . S
C30 O36 1.255 . S
O31 Fe23 1.997 . S
O31 C29 1.235 . S
C32 O38 1.287 . S
C32 O39 1.255 . S
O33 Fe22 1.976 . S
O33 C40 1.287 . S
O34 Fe23 1.996 . S
O34 C40 1.255 . S
O35 Fe25 1.976 . S
O35 C30 1.287 . S
O36 Fe22 1.996 . S
O36 C30 1.255 . S
C37 O41 1.295 . S
C37 O42 1.235 . S
O38 Fe23 1.976 . S
O38 C32 1.287 . S
O39 Fe25 1.996 . S
O39 C32 1.255 . S
C40 O33 1.287 . S
C40 O34 1.255 . S
O41 Fe23 2.002 . S
O41 C37 1.295 . S
O42 Fe25 1.997 . S
O42 C37 1.235 . S
C43 O26 1.295 . S
C43 O27 1.235 . S
Fe44 O46 1.918 1_556 S
Fe44 O49 1.997 . S
Fe44 O50 2.002 . S
Fe44 O55 1.976 . S
Fe44 O58 1.996 . S
Fe45 O46 1.918 . S
Fe45 O53 1.997 . S
Fe45 O56 1.996 . S
Fe45 O60 1.976 . S
Fe45 O63 2.002 . S
O46 Fe44 1.918 1_554 S
O46 Fe45 1.918 . S
O46 Fe47 1.918 . S
Fe47 O46 1.918 . S
Fe47 O48 2.002 1_554 S
Fe47 O57 1.976 1_554 S
Fe47 O61 1.996 . S
Fe47 O64 1.997 . S
O48 Fe47 2.002 1_556 S
O48 C65 1.295 . S
O49 Fe44 1.997 . S
O49 C65 1.235 . S
O50 Fe44 2.002 . S
O50 C51 1.295 1_556 S
C51 O50 1.295 1_554 S
C51 O53 1.235 . S
C52 O57 1.287 . S
C52 O58 1.255 . S
O53 Fe45 1.997 . S
O53 C51 1.235 . S
C54 O60 1.287 . S
C54 O61 1.255 . S
O55 Fe44 1.976 . S
O55 C62 1.287 1_556 S
O56 Fe45 1.996 . S
O56 C62 1.255 . S
O57 Fe47 1.976 1_556 S
O57 C52 1.287 . S
O58 Fe44 1.996 . S
O58 C52 1.255 . S
C59 O63 1.295 . S
C59 O64 1.235 . S
O60 Fe45 1.976 . S
O60 C54 1.287 . S
O61 Fe47 1.996 . S
O61 C54 1.255 . S
C62 O55 1.287 1_554 S
C62 O56 1.255 . S
O63 Fe45 2.002 . S
O63 C59 1.295 . S
O64 Fe47 1.997 . S
O64 C59 1.235 . S
C65 O48 1.295 . S
C65 O49 1.235 . S
Fe66 O68 1.918 . S
Fe66 O71 1.997 . S
Fe66 O72 2.002 . S
Fe66 O77 1.976 . S
Fe66 O80 1.996 . S
Fe67 O68 1.918 . S
Fe67 O75 1.997 . S
Fe67 O78 1.996 . S
Fe67 O82 1.976 . S
Fe67 O85 2.002 . S
O68 Fe66 1.918 . S
O68 Fe67 1.918 . S
O68 Fe69 1.918 . S
Fe69 O68 1.918 . S
Fe69 O70 2.002 . S
Fe69 O79 1.976 . S
Fe69 O83 1.996 . S
Fe69 O86 1.997 . S
O70 Fe69 2.002 . S
O70 C87 1.295 . S
O71 Fe66 1.997 . S
O71 C87 1.235 . S
O72 Fe66 2.002 . S
O72 C73 1.295 . S
C73 O72 1.295 . S
C73 O75 1.235 . S
C74 O79 1.287 . S
C74 O80 1.255 . S
O75 Fe67 1.997 . S
O75 C73 1.235 . S
C76 O82 1.287 . S
C76 O83 1.255 . S
O77 Fe66 1.976 . S
O77 C84 1.287 . S
O78 Fe67 1.996 . S
O78 C84 1.255 . S
O79 Fe69 1.976 . S
O79 C74 1.287 . S
O80 Fe66 1.996 . S
O80 C74 1.255 . S
C81 O85 1.295 . S
C81 O86 1.235 . S
O82 Fe67 1.976 . S
O82 C76 1.287 . S
O83 Fe69 1.996 . S
O83 C76 1.255 . S
C84 O77 1.287 . S
C84 O78 1.255 . S
O85 Fe67 2.002 . S
O85 C81 1.295 . S
O86 Fe69 1.997 . S
O86 C81 1.235 . S
C87 O70 1.295 . S
C87 O71 1.235 . S
C88 C89 1.264 . S
C88 C93 1.479 . S
C88 C98 1.465 . S
C89 C88 1.264 . S
C89 C91 1.339 . S
C89 H116 0.931 . S
C90 C91 1.395 . S
C90 C92 1.320 . S
C91 C89 1.339 . S
C91 C90 1.395 . S
C91 H117 0.929 . S
C92 C90 1.320 . S
C92 C93 1.405 . S
C92 H118 0.930 . S
C93 C88 1.479 . S
C93 C92 1.405 . S
C93 H119 0.931 . S
U94 O95 2.451 1_554 S
U94 O96 2.461 . S
U94 C97 2.985 . S
U94 C98 2.842 1_554 S
U94 C111 2.888 . S
U94 O112 2.435 1_554 S
U94 O113 2.417 1_554 S
U94 O114 2.461 . S
U94 O115 2.452 . S
O95 U94 2.451 1_556 S
O95 C97 1.353 1_556 S
O96 U94 2.461 . S
O96 C97 1.286 . S
C97 U94 2.985 . S
C97 O95 1.353 1_554 S
C97 O96 1.286 . S
C97 C99 1.363 . S
C98 C88 1.465 . S
C98 U94 2.842 1_556 S
C98 O112 1.249 . S
C98 O113 1.202 . S
C99 C97 1.363 . S
C99 C101 1.408 1_554 S
C99 C104 1.342 . S
C100 C101 1.310 . S
C100 C103 1.461 1_556 S
C100 H120 0.932 . S
C101 C99 1.408 1_556 S
C101 C100 1.310 . S
C101 H121 0.930 . S
C102 C103 1.474 . S
C102 C104 1.285 . S
C102 H122 0.929 . S
C103 C100 1.461 1_554 S
C103 C102 1.474 . S
C104 C99 1.342 . S
C104 C102 1.285 . S
C104 H123 0.930 . S
C105 C108 1.424 . S
C105 C110 1.245 . S
C105 C111 1.428 . S
C106 C109 1.260 . S
C106 C110 1.477 . S
C106 H124 0.932 . S
C107 C108 1.384 . S
C107 C109 1.479 . S
C107 H125 0.929 . S
C108 C105 1.424 . S
C108 C107 1.384 . S
C108 H126 0.928 . S
C109 C106 1.260 . S
C109 C107 1.479 . S
C110 C105 1.245 . S
C110 C106 1.477 . S
C110 H127 0.932 . S
C111 U94 2.888 . S
C111 C105 1.428 . S
C111 O114 1.301 . S
C111 O115 1.282 . S
O112 U94 2.435 1_556 S
O112 C98 1.249 . S
O113 U94 2.417 1_556 S
O113 C98 1.202 . S
O114 U94 2.461 . S
O114 C111 1.301 . S
O115 U94 2.452 . S
O115 C111 1.282 . S
H116 C89 0.931 . S
H117 C91 0.929 . S
H118 C92 0.930 . S
H119 C93 0.931 . S
H120 C100 0.932 . S
H121 C101 0.930 . S
H122 C102 0.929 . S
H123 C104 0.930 . S
H124 C106 0.932 . S
H125 C107 0.929 . S
H126 C108 0.928 . S
H127 C110 0.932 . S
C128 C129 1.264 . S
C128 C133 1.479 . S
C128 C138 1.465 . S
C129 C128 1.264 . S
C129 C131 1.339 . S
C129 H156 0.931 . S
C130 C131 1.395 . S
C130 C132 1.320 . S
C131 C129 1.339 . S
C131 C130 1.395 . S
C131 H157 0.929 . S
C132 C130 1.320 . S
C132 C133 1.405 . S
C132 H158 0.930 . S
C133 C128 1.479 . S
C133 C132 1.405 . S
C133 H159 0.931 . S
U134 O135 2.454 1_655 S
U134 O136 2.458 1_655 S
U134 C137 2.984 1_655 S
U134 C138 2.847 . S
U134 C151 2.882 . S
U134 O152 2.441 . S
U134 O153 2.420 . S
U134 O154 2.455 . S
U134 O155 2.449 . S
O135 U134 2.454 1_455 S
O135 C137 1.353 . S
O136 U134 2.458 1_455 S
O136 C137 1.286 . S
C137 U134 2.984 1_455 S
C137 O135 1.353 . S
C137 O136 1.286 . S
C137 C139 1.363 . S
C138 C128 1.465 . S
C138 U134 2.847 . S
C138 O152 1.249 . S
C138 O153 1.202 . S
C139 C137 1.363 . S
C139 C141 1.408 . S
C139 C144 1.342 . S
C140 C141 1.310 . S
C140 C143 1.461 . S
C140 H160 0.932 . S
C141 C139 1.408 . S
C141 C140 1.310 . S
C141 H161 0.930 . S
C142 C143 1.474 . S
C142 C144 1.285 . S
C142 H162 0.929 . S
C143 C140 1.461 . S
C143 C142 1.474 . S
C144 C139 1.342 . S
C144 C142 1.285 . S
C144 H163 0.930 . S
C145 C148 1.424 . S
C145 C150 1.245 . S
C145 C151 1.428 . S
C146 C149 1.260 . S
C146 C150 1.477 . S
C146 H164 0.932 . S
C147 C148 1.384 . S
C147 C149 1.479 . S
C147 H165 0.929 . S
C148 C145 1.424 . S
C148 C147 1.384 . S
C148 H166 0.928 . S
C149 C146 1.260 . S
C149 C147 1.479 . S
C150 C145 1.245 . S
C150 C146 1.477 . S
C150 H167 0.932 . S
C151 U134 2.882 . S
C151 C145 1.428 . S
C151 O154 1.301 . S
C151 O155 1.282 . S
O152 U134 2.441 . S
O152 C138 1.249 . S
O153 U134 2.420 . S
O153 C138 1.202 . S
O154 U134 2.455 . S
O154 C151 1.301 . S
O155 U134 2.449 . S
O155 C151 1.282 . S
H156 C129 0.931 . S
H157 C131 0.929 . S
H158 C132 0.930 . S
H159 C133 0.931 . S
H160 C140 0.932 . S
H161 C141 0.930 . S
H162 C142 0.929 . S
H163 C144 0.930 . S
H164 C146 0.932 . S
H165 C147 0.929 . S
H166 C148 0.928 . S
H167 C150 0.932 . S
C168 C169 1.264 . S
C168 C173 1.479 . S
C168 C178 1.465 . S
C169 C168 1.264 . S
C169 C171 1.339 . S
C169 H196 0.931 . S
C170 C171 1.395 . S
C170 C172 1.320 . S
C171 C169 1.339 . S
C171 C170 1.395 . S
C171 H197 0.929 . S
C172 C170 1.320 . S
C172 C173 1.405 . S
C172 H198 0.930 . S
C173 C168 1.479 . S
C173 C172 1.405 . S
C173 H199 0.931 . S
U174 O175 2.454 . S
U174 O176 2.458 1_554 S
U174 C177 2.984 . S
U174 C178 2.847 . S
U174 C191 2.882 1_554 S
U174 O192 2.441 . S
U174 O193 2.420 . S
U174 O194 2.455 1_554 S
U174 O195 2.449 1_554 S
O175 U174 2.454 . S
O175 C177 1.353 . S
O176 U174 2.458 1_556 S
O176 C177 1.286 1_556 S
C177 U174 2.984 . S
C177 O175 1.353 . S
C177 O176 1.286 1_554 S
C177 C179 1.363 . S
C178 C168 1.465 . S
C178 U174 2.847 . S
C178 O192 1.249 . S
C178 O193 1.202 . S
C179 C177 1.363 . S
C179 C181 1.408 . S
C179 C184 1.342 1_554 S
C180 C181 1.310 . S
C180 C183 1.461 . S
C180 H200 0.932 . S
C181 C179 1.408 . S
C181 C180 1.310 . S
C181 H201 0.930 . S
C182 C183 1.474 1_556 S
C182 C184 1.285 . S
C182 H202 0.929 . S
C183 C180 1.461 . S
C183 C182 1.474 1_554 S
C184 C179 1.342 1_556 S
C184 C182 1.285 . S
C184 H203 0.930 . S
C185 C188 1.424 . S
C185 C190 1.245 . S
C185 C191 1.428 . S
C186 C189 1.260 . S
C186 C190 1.477 . S
C186 H204 0.932 . S
C187 C188 1.384 . S
C187 C189 1.479 . S
C187 H205 0.929 . S
C188 C185 1.424 . S
C188 C187 1.384 . S
C188 H206 0.928 . S
C189 C186 1.260 . S
C189 C187 1.479 . S
C190 C185 1.245 . S
C190 C186 1.477 . S
C190 H207 0.932 . S
C191 U174 2.882 1_556 S
C191 C185 1.428 . S
C191 O194 1.301 . S
C191 O195 1.282 . S
O192 U174 2.441 . S
O192 C178 1.249 . S
O193 U174 2.420 . S
O193 C178 1.202 . S
O194 U174 2.455 1_556 S
O194 C191 1.301 . S
O195 U174 2.449 1_556 S
O195 C191 1.282 . S
H196 C169 0.931 . S
H197 C171 0.929 . S
H198 C172 0.930 . S
H199 C173 0.931 . S
H200 C180 0.932 . S
H201 C181 0.930 . S
H202 C182 0.929 . S
H203 C184 0.930 . S
H204 C186 0.932 . S
H205 C187 0.929 . S
H206 C188 0.928 . S
H207 C190 0.932 . S
C208 C209 1.264 . S
C208 C213 1.479 . S
C208 C218 1.465 . S
C209 C208 1.264 . S
C209 C211 1.339 . S
C209 H236 0.931 . S
C210 C211 1.395 . S
C210 C212 1.320 . S
C211 C209 1.339 . S
C211 C210 1.395 . S
C211 H237 0.929 . S
C212 C210 1.320 . S
C212 C213 1.405 . S
C212 H238 0.930 . S
C213 C208 1.479 . S
C213 C212 1.405 . S
C213 H239 0.931 . S
U214 O215 2.454 1_455 S
U214 O216 2.458 1_455 S
U214 C217 2.984 1_455 S
U214 C218 2.847 . S
U214 C231 2.882 . S
U214 O232 2.441 . S
U214 O233 2.420 . S
U214 O234 2.455 . S
U214 O235 2.449 . S
O215 U214 2.454 1_655 S
O215 C217 1.353 . S
O216 U214 2.458 1_655 S
O216 C217 1.286 . S
C217 U214 2.984 1_655 S
C217 O215 1.353 . S
C217 O216 1.286 . S
C217 C219 1.363 . S
C218 C208 1.465 . S
C218 U214 2.847 . S
C218 O232 1.249 . S
C218 O233 1.202 . S
C219 C217 1.363 . S
C219 C221 1.408 . S
C219 C224 1.342 . S
C220 C221 1.310 . S
C220 C223 1.461 . S
C220 H240 0.932 . S
C221 C219 1.408 . S
C221 C220 1.310 . S
C221 H241 0.930 . S
C222 C223 1.474 . S
C222 C224 1.285 . S
C222 H242 0.929 . S
C223 C220 1.461 . S
C223 C222 1.474 . S
C224 C219 1.342 . S
C224 C222 1.285 . S
C224 H243 0.930 . S
C225 C228 1.424 . S
C225 C230 1.245 . S
C225 C231 1.428 . S
C226 C229 1.260 . S
C226 C230 1.477 . S
C226 H244 0.932 . S
C227 C228 1.384 . S
C227 C229 1.479 . S
C227 H245 0.929 . S
C228 C225 1.424 . S
C228 C227 1.384 . S
C228 H246 0.928 . S
C229 C226 1.260 . S
C229 C227 1.479 . S
C230 C225 1.245 . S
C230 C226 1.477 . S
C230 H247 0.932 . S
C231 U214 2.882 . S
C231 C225 1.428 . S
C231 O234 1.301 . S
C231 O235 1.282 . S
O232 U214 2.441 . S
O232 C218 1.249 . S
O233 U214 2.420 . S
O233 C218 1.202 . S
O234 U214 2.455 . S
O234 C231 1.301 . S
O235 U214 2.449 . S
O235 C231 1.282 . S
H236 C209 0.931 . S
H237 C211 0.929 . S
H238 C212 0.930 . S
H239 C213 0.931 . S
H240 C220 0.932 . S
H241 C221 0.930 . S
H242 C222 0.929 . S
H243 C224 0.930 . S
H244 C226 0.932 . S
H245 C227 0.929 . S
H246 C228 0.928 . S
H247 C230 0.932 . S
C248 C249 1.264 . S
C248 C253 1.479 . S
C248 C258 1.465 . S
C249 C248 1.264 . S
C249 C251 1.339 . S
C249 H276 0.931 . S
C250 C251 1.395 . S
C250 C252 1.320 . S
C251 C249 1.339 . S
C251 C250 1.395 . S
C251 H277 0.929 . S
C252 C250 1.320 . S
C252 C253 1.405 . S
C252 H278 0.930 . S
C253 C248 1.479 . S
C253 C252 1.405 . S
C253 H279 0.931 . S
U254 O255 2.454 1_565 S
U254 O256 2.458 1_565 S
U254 C257 2.984 1_565 S
U254 C258 2.847 . S
U254 C271 2.882 . S
U254 O272 2.441 . S
U254 O273 2.420 . S
U254 O274 2.455 . S
U254 O275 2.449 . S
O255 U254 2.454 1_545 S
O255 C257 1.353 . S
O256 U254 2.458 1_545 S
O256 C257 1.286 . S
C257 U254 2.984 1_545 S
C257 O255 1.353 . S
C257 O256 1.286 . S
C257 C259 1.363 . S
C258 C248 1.465 . S
C258 U254 2.847 . S
C258 O272 1.249 . S
C258 O273 1.202 . S
C259 C257 1.363 . S
C259 C261 1.408 . S
C259 C264 1.342 . S
C260 C261 1.310 . S
C260 C263 1.461 . S
C260 H280 0.932 . S
C261 C259 1.408 . S
C261 C260 1.310 . S
C261 H281 0.930 . S
C262 C263 1.474 . S
C262 C264 1.285 . S
C262 H282 0.929 . S
C263 C260 1.461 . S
C263 C262 1.474 . S
C264 C259 1.342 . S
C264 C262 1.285 . S
C264 H283 0.930 . S
C265 C268 1.424 . S
C265 C270 1.245 . S
C265 C271 1.428 . S
C266 C269 1.260 . S
C266 C270 1.477 . S
C266 H284 0.932 . S
C267 C268 1.384 . S
C267 C269 1.479 . S
C267 H285 0.929 . S
C268 C265 1.424 . S
C268 C267 1.384 . S
C268 H286 0.928 . S
C269 C266 1.260 . S
C269 C267 1.479 . S
C270 C265 1.245 . S
C270 C266 1.477 . S
C270 H287 0.932 . S
C271 U254 2.882 . S
C271 C265 1.428 . S
C271 O274 1.301 . S
C271 O275 1.282 . S
O272 U254 2.441 . S
O272 C258 1.249 . S
O273 U254 2.420 . S
O273 C258 1.202 . S
O274 U254 2.455 . S
O274 C271 1.301 . S
O275 U254 2.449 . S
O275 C271 1.282 . S
H276 C249 0.931 . S
H277 C251 0.929 . S
H278 C252 0.930 . S
H279 C253 0.931 . S
H280 C260 0.932 . S
H281 C261 0.930 . S
H282 C262 0.929 . S
H283 C264 0.930 . S
H284 C266 0.932 . S
H285 C267 0.929 . S
H286 C268 0.928 . S
H287 C270 0.932 . S
C288 C289 1.264 . S
C288 C293 1.479 . S
C288 C298 1.465 . S
C289 C288 1.264 . S
C289 C291 1.339 . S
C289 H316 0.931 . S
C290 C291 1.395 . S
C290 C292 1.320 . S
C291 C289 1.339 . S
C291 C290 1.395 . S
C291 H317 0.929 . S
C292 C290 1.320 . S
C292 C293 1.405 . S
C292 H318 0.930 . S
C293 C288 1.479 . S
C293 C292 1.405 . S
C293 H319 0.931 . S
U294 O295 2.454 1_554 S
U294 O296 2.458 . S
U294 C297 2.984 . S
U294 C298 2.847 1_554 S
U294 C311 2.882 . S
U294 O312 2.441 1_554 S
U294 O313 2.420 1_554 S
U294 O314 2.455 . S
U294 O315 2.449 . S
O295 U294 2.454 1_556 S
O295 C297 1.353 1_556 S
O296 U294 2.458 . S
O296 C297 1.286 . S
C297 U294 2.984 . S
C297 O295 1.353 1_554 S
C297 O296 1.286 . S
C297 C299 1.363 . S
C298 C288 1.465 . S
C298 U294 2.847 1_556 S
C298 O312 1.249 . S
C298 O313 1.202 . S
C299 C297 1.363 . S
C299 C301 1.408 1_554 S
C299 C304 1.342 . S
C300 C301 1.310 . S
C300 C303 1.461 1_556 S
C300 H320 0.932 . S
C301 C299 1.408 1_556 S
C301 C300 1.310 . S
C301 H321 0.930 . S
C302 C303 1.474 . S
C302 C304 1.285 . S
C302 H322 0.929 . S
C303 C300 1.461 1_554 S
C303 C302 1.474 . S
C304 C299 1.342 . S
C304 C302 1.285 . S
C304 H323 0.930 . S
C305 C308 1.424 . S
C305 C310 1.245 . S
C305 C311 1.428 . S
C306 C309 1.260 . S
C306 C310 1.477 . S
C306 H324 0.932 . S
C307 C308 1.384 . S
C307 C309 1.479 . S
C307 H325 0.929 . S
C308 C305 1.424 . S
C308 C307 1.384 . S
C308 H326 0.928 . S
C309 C306 1.260 . S
C309 C307 1.479 . S
C310 C305 1.245 . S
C310 C306 1.477 . S
C310 H327 0.932 . S
C311 U294 2.882 . S
C311 C305 1.428 . S
C311 O314 1.301 . S
C311 O315 1.282 . S
O312 U294 2.441 1_556 S
O312 C298 1.249 . S
O313 U294 2.420 1_556 S
O313 C298 1.202 . S
O314 U294 2.455 . S
O314 C311 1.301 . S
O315 U294 2.449 . S
O315 C311 1.282 . S
H316 C289 0.931 . S
H317 C291 0.929 . S
H318 C292 0.930 . S
H319 C293 0.931 . S
H320 C300 0.932 . S
H321 C301 0.930 . S
H322 C302 0.929 . S
H323 C304 0.930 . S
H324 C306 0.932 . S
H325 C307 0.929 . S
H326 C308 0.928 . S
H327 C310 0.932 . S
C328 C329 1.264 . S
C328 C333 1.479 . S
C328 C338 1.465 . S
C329 C328 1.264 . S
C329 C331 1.339 . S
C329 H356 0.931 . S
C330 C331 1.395 . S
C330 C332 1.320 . S
C331 C329 1.339 . S
C331 C330 1.395 . S
C331 H357 0.929 . S
C332 C330 1.320 . S
C332 C333 1.405 . S
C332 H358 0.930 . S
C333 C328 1.479 . S
C333 C332 1.405 . S
C333 H359 0.931 . S
U334 O335 2.454 1_545 S
U334 O336 2.458 1_545 S
U334 C337 2.984 1_545 S
U334 C338 2.847 . S
U334 C351 2.882 . S
U334 O352 2.441 . S
U334 O353 2.420 . S
U334 O354 2.455 . S
U334 O355 2.449 . S
O335 U334 2.454 1_565 S
O335 C337 1.353 . S
O336 U334 2.458 1_565 S
O336 C337 1.286 . S
C337 U334 2.984 1_565 S
C337 O335 1.353 . S
C337 O336 1.286 . S
C337 C339 1.363 . S
C338 C328 1.465 . S
C338 U334 2.847 . S
C338 O352 1.249 . S
C338 O353 1.202 . S
C339 C337 1.363 . S
C339 C341 1.408 . S
C339 C344 1.342 . S
C340 C341 1.310 . S
C340 C343 1.461 . S
C340 H360 0.932 . S
C341 C339 1.408 . S
C341 C340 1.310 . S
C341 H361 0.930 . S
C342 C343 1.474 . S
C342 C344 1.285 . S
C342 H362 0.929 . S
C343 C340 1.461 . S
C343 C342 1.474 . S
C344 C339 1.342 . S
C344 C342 1.285 . S
C344 H363 0.930 . S
C345 C348 1.424 . S
C345 C350 1.245 . S
C345 C351 1.428 . S
C346 C349 1.260 . S
C346 C350 1.477 . S
C346 H364 0.932 . S
C347 C348 1.384 . S
C347 C349 1.479 . S
C347 H365 0.929 . S
C348 C345 1.424 . S
C348 C347 1.384 . S
C348 H366 0.928 . S
C349 C346 1.260 . S
C349 C347 1.479 . S
C350 C345 1.245 . S
C350 C346 1.477 . S
C350 H367 0.932 . S
C351 U334 2.882 . S
C351 C345 1.428 . S
C351 O354 1.301 . S
C351 O355 1.282 . S
O352 U334 2.441 . S
O352 C338 1.249 . S
O353 U334 2.420 . S
O353 C338 1.202 . S
O354 U334 2.455 . S
O354 C351 1.301 . S
O355 U334 2.449 . S
O355 C351 1.282 . S
H356 C329 0.931 . S
H357 C331 0.929 . S
H358 C332 0.930 . S
H359 C333 0.931 . S
H360 C340 0.932 . S
H361 C341 0.930 . S
H362 C342 0.929 . S
H363 C344 0.930 . S
H364 C346 0.932 . S
H365 C347 0.929 . S
H366 C348 0.928 . S
H367 C350 0.932 . S
C368 C369 1.264 . S
C368 C373 1.479 . S
C368 C378 1.465 . S
C369 C368 1.264 . S
C369 C371 1.339 . S
C369 H396 0.931 . S
C370 C371 1.395 . S
C370 C372 1.320 . S
C371 C369 1.339 . S
C371 C370 1.395 . S
C371 H397 0.929 . S
C372 C370 1.320 . S
C372 C373 1.405 . S
C372 H398 0.930 . S
C373 C368 1.479 . S
C373 C372 1.405 . S
C373 H399 0.931 . S
U374 O375 2.454 . S
U374 O376 2.458 1_554 S
U374 C377 2.984 . S
U374 C378 2.847 . S
U374 C391 2.882 1_554 S
U374 O392 2.441 . S
U374 O393 2.420 . S
U374 O394 2.455 1_554 S
U374 O395 2.449 1_554 S
O375 U374 2.454 . S
O375 C377 1.353 . S
O376 U374 2.458 1_556 S
O376 C377 1.286 1_556 S
C377 U374 2.984 . S
C377 O375 1.353 . S
C377 O376 1.286 1_554 S
C377 C379 1.363 . S
C378 C368 1.465 . S
C378 U374 2.847 . S
C378 O392 1.249 . S
C378 O393 1.202 . S
C379 C377 1.363 . S
C379 C381 1.408 . S
C379 C384 1.342 1_554 S
C380 C381 1.310 . S
C380 C383 1.461 . S
C380 H400 0.932 . S
C381 C379 1.408 . S
C381 C380 1.310 . S
C381 H401 0.930 . S
C382 C383 1.474 1_556 S
C382 C384 1.285 . S
C382 H402 0.929 . S
C383 C380 1.461 . S
C383 C382 1.474 1_554 S
C384 C379 1.342 1_556 S
C384 C382 1.285 . S
C384 H403 0.930 . S
C385 C388 1.424 . S
C385 C390 1.245 . S
C385 C391 1.428 . S
C386 C389 1.260 . S
C386 C390 1.477 . S
C386 H404 0.932 . S
C387 C388 1.384 . S
C387 C389 1.479 . S
C387 H405 0.929 . S
C388 C385 1.424 . S
C388 C387 1.384 . S
C388 H406 0.928 . S
C389 C386 1.260 . S
C389 C387 1.479 . S
C390 C385 1.245 . S
C390 C386 1.477 . S
C390 H407 0.932 . S
C391 U374 2.882 1_556 S
C391 C385 1.428 . S
C391 O394 1.301 . S
C391 O395 1.282 . S
O392 U374 2.441 . S
O392 C378 1.249 . S
O393 U374 2.420 . S
O393 C378 1.202 . S
O394 U374 2.455 1_556 S
O394 C391 1.301 . S
O395 U374 2.449 1_556 S
O395 C391 1.282 . S
H396 C369 0.931 . S
H397 C371 0.929 . S
H398 C372 0.930 . S
H399 C373 0.931 . S
H400 C380 0.932 . S
H401 C381 0.930 . S
H402 C382 0.929 . S
H403 C384 0.930 . S
H404 C386 0.932 . S
H405 C387 0.929 . S
H406 C388 0.928 . S
H407 C390 0.932 . S
C408 C409 1.363 . S
C408 C414 1.379 . S
C408 N416 1.356 . S
C409 C408 1.363 . S
C409 C415 1.363 . S
C410 C411 1.363 . S
C410 C415 1.379 . S
C410 N417 1.356 . S
C411 C410 1.363 . S
C411 C414 1.363 . S
N412 C414 1.356 . S
N412 H424 0.984 . S
N412 H425 0.985 . S
N413 C415 1.356 . S
N413 H418 0.984 . S
N413 H419 0.985 . S
C414 C408 1.379 . S
C414 C411 1.363 . S
C414 N412 1.356 . S
C415 C409 1.363 . S
C415 C410 1.379 . S
C415 N413 1.356 . S
N416 C408 1.356 . S
N416 H422 0.984 . S
N416 H423 0.984 . S
N417 C410 1.356 . S
N417 H420 0.984 . S
N417 H421 0.985 . S
H418 N413 0.984 . S
H419 N413 0.985 . S
H420 N417 0.984 . S
H421 N417 0.985 . S
H422 N416 0.984 . S
H423 N416 0.984 . S
H424 N412 0.984 . S
H425 N412 0.985 . S
C426 C427 1.363 . S
C426 C432 1.379 . S
C426 N434 1.356 . S
C427 C426 1.363 . S
C427 C433 1.363 . S
C428 C429 1.363 . S
C428 C433 1.379 . S
C428 N435 1.356 . S
C429 C428 1.363 . S
C429 C432 1.363 . S
N430 C432 1.356 . S
N430 H442 0.984 . S
N430 H443 0.985 . S
N431 C433 1.356 . S
N431 H436 0.984 . S
N431 H437 0.985 . S
C432 C426 1.379 . S
C432 C429 1.363 . S
C432 N430 1.356 . S
C433 C427 1.363 . S
C433 C428 1.379 . S
C433 N431 1.356 . S
N434 C426 1.356 . S
N434 H440 0.984 . S
N434 H441 0.984 . S
N435 C428 1.356 . S
N435 H438 0.984 . S
N435 H439 0.985 . S
H436 N431 0.984 . S
H437 N431 0.985 . S
H438 N435 0.984 . S
H439 N435 0.985 . S
H440 N434 0.984 . S
H441 N434 0.984 . S
H442 N430 0.984 . S
H443 N430 0.985 . S
C444 C445 1.363 . S
C444 C450 1.379 . S
C444 N452 1.356 . S
C445 C444 1.363 . S
C445 C451 1.363 . S
C446 C447 1.363 . S
C446 C451 1.379 . S
C446 N453 1.356 . S
C447 C446 1.363 . S
C447 C450 1.363 . S
N448 C450 1.356 . S
N448 H460 0.984 . S
N448 H461 0.985 . S
N449 C451 1.356 . S
N449 H454 0.984 . S
N449 H455 0.985 . S
C450 C444 1.379 . S
C450 C447 1.363 . S
C450 N448 1.356 . S
C451 C445 1.363 . S
C451 C446 1.379 . S
C451 N449 1.356 . S
N452 C444 1.356 . S
N452 H458 0.984 . S
N452 H459 0.984 . S
N453 C446 1.356 . S
N453 H456 0.984 . S
N453 H457 0.985 . S
H454 N449 0.984 . S
H455 N449 0.985 . S
H456 N453 0.984 . S
H457 N453 0.985 . S
H458 N452 0.984 . S
H459 N452 0.984 . S
H460 N448 0.984 . S
H461 N448 0.985 . S
C462 C463 1.363 . S
C462 C468 1.379 . S
C462 N470 1.356 . S
C463 C462 1.363 . S
C463 C469 1.363 . S
C464 C465 1.363 . S
C464 C469 1.379 . S
C464 N471 1.356 . S
C465 C464 1.363 . S
C465 C468 1.363 . S
N466 C468 1.356 . S
N466 H478 0.984 . S
N466 H479 0.985 . S
N467 C469 1.356 . S
N467 H472 0.984 . S
N467 H473 0.985 . S
C468 C462 1.379 . S
C468 C465 1.363 . S
C468 N466 1.356 . S
C469 C463 1.363 . S
C469 C464 1.379 . S
C469 N467 1.356 . S
N470 C462 1.356 . S
N470 H476 0.984 . S
N470 H477 0.984 . S
N471 C464 1.356 . S
N471 H474 0.984 . S
N471 H475 0.985 . S
H472 N467 0.984 . S
H473 N467 0.985 . S
H474 N471 0.984 . S
H475 N471 0.985 . S
H476 N470 0.984 . S
H477 N470 0.984 . S
H478 N466 0.984 . S
H479 N466 0.985 . S
C480 C481 1.363 . S
C480 C486 1.379 . S
C480 N488 1.356 . S
C481 C480 1.363 . S
C481 C487 1.363 . S
C482 C483 1.363 . S
C482 C487 1.379 . S
C482 N489 1.356 . S
C483 C482 1.363 . S
C483 C486 1.363 . S
N484 C486 1.356 . S
N484 H496 0.984 . S
N484 H497 0.985 . S
N485 C487 1.356 . S
N485 H490 0.984 . S
N485 H491 0.985 . S
C486 C480 1.379 . S
C486 C483 1.363 . S
C486 N484 1.356 . S
C487 C481 1.363 . S
C487 C482 1.379 . S
C487 N485 1.356 . S
N488 C480 1.356 . S
N488 H494 0.984 . S
N488 H495 0.984 . S
N489 C482 1.356 . S
N489 H492 0.984 . S
N489 H493 0.985 . S
H490 N485 0.984 . S
H491 N485 0.985 . S
H492 N489 0.984 . S
H493 N489 0.985 . S
H494 N488 0.984 . S
H495 N488 0.984 . S
H496 N484 0.984 . S
H497 N484 0.985 . S
C498 C499 1.363 . S
C498 C504 1.379 . S
C498 N506 1.356 . S
C499 C498 1.363 . S
C499 C505 1.363 . S
C500 C501 1.363 . S
C500 C505 1.379 . S
C500 N507 1.356 . S
C501 C500 1.363 . S
C501 C504 1.363 . S
N502 C504 1.356 . S
N502 H514 0.984 . S
N502 H515 0.985 . S
N503 C505 1.356 . S
N503 H508 0.984 . S
N503 H509 0.985 . S
C504 C498 1.379 . S
C504 C501 1.363 . S
C504 N502 1.356 . S
C505 C499 1.363 . S
C505 C500 1.379 . S
C505 N503 1.356 . S
N506 C498 1.356 . S
N506 H512 0.984 . S
N506 H513 0.984 . S
N507 C500 1.356 . S
N507 H510 0.984 . S
N507 H511 0.985 . S
H508 N503 0.984 . S
H509 N503 0.985 . S
H510 N507 0.984 . S
H511 N507 0.985 . S
H512 N506 0.984 . S
H513 N506 0.984 . S
H514 N502 0.984 . S
H515 N502 0.985 . S
C516 C517 1.363 . S
C516 C522 1.379 . S
C516 N524 1.356 . S
C517 C516 1.363 . S
C517 C523 1.363 . S
C518 C519 1.363 . S
C518 C523 1.379 . S
C518 N525 1.356 . S
C519 C518 1.363 . S
C519 C522 1.363 . S
N520 C522 1.356 . S
N520 H532 0.984 . S
N520 H533 0.985 . S
N521 C523 1.356 . S
N521 H526 0.984 . S
N521 H527 0.985 . S
C522 C516 1.379 . S
C522 C519 1.363 . S
C522 N520 1.356 . S
C523 C517 1.363 . S
C523 C518 1.379 . S
C523 N521 1.356 . S
N524 C516 1.356 . S
N524 H530 0.984 . S
N524 H531 0.984 . S
N525 C518 1.356 . S
N525 H528 0.984 . S
N525 H529 0.985 . S
H526 N521 0.984 . S
H527 N521 0.985 . S
H528 N525 0.984 . S
H529 N525 0.985 . S
H530 N524 0.984 . S
H531 N524 0.984 . S
H532 N520 0.984 . S
H533 N520 0.985 . S
C534 C535 1.363 . S
C534 C540 1.379 . S
C534 N542 1.356 . S
C535 C534 1.363 . S
C535 C541 1.363 . S
C536 C537 1.363 . S
C536 C541 1.379 . S
C536 N543 1.356 . S
C537 C536 1.363 . S
C537 C540 1.363 . S
N538 C540 1.356 . S
N538 H550 0.984 . S
N538 H551 0.985 . S
N539 C541 1.356 . S
N539 H544 0.984 . S
N539 H545 0.985 . S
C540 C534 1.379 . S
C540 C537 1.363 . S
C540 N538 1.356 . S
C541 C535 1.363 . S
C541 C536 1.379 . S
C541 N539 1.356 . S
N542 C534 1.356 . S
N542 H548 0.984 . S
N542 H549 0.984 . S
N543 C536 1.356 . S
N543 H546 0.984 . S
N543 H547 0.985 . S
H544 N539 0.984 . S
H545 N539 0.985 . S
H546 N543 0.984 . S
H547 N543 0.985 . S
H548 N542 0.984 . S
H549 N542 0.984 . S
H550 N538 0.984 . S
H551 N538 0.985 . S
C552 C553 1.363 . S
C552 C558 1.379 . S
C552 N560 1.356 . S
C553 C552 1.363 . S
C553 C559 1.363 . S
C554 C555 1.363 . S
C554 C559 1.379 . S
C554 N561 1.356 . S
C555 C554 1.363 . S
C555 C558 1.363 . S
N556 C558 1.356 . S
N556 H568 0.984 . S
N556 H569 0.985 . S
N557 C559 1.356 . S
N557 H562 0.984 . S
N557 H563 0.985 . S
C558 C552 1.379 . S
C558 C555 1.363 . S
C558 N556 1.356 . S
C559 C553 1.363 . S
C559 C554 1.379 . S
C559 N557 1.356 . S
N560 C552 1.356 . S
N560 H566 0.984 . S
N560 H567 0.984 . S
N561 C554 1.356 . S
N561 H564 0.984 . S
N561 H565 0.985 . S
H562 N557 0.984 . S
H563 N557 0.985 . S
H564 N561 0.984 . S
H565 N561 0.985 . S
H566 N560 0.984 . S
H567 N560 0.984 . S
H568 N556 0.984 . S
H569 N556 0.985 . S
C570 C571 1.363 . S
C570 C576 1.379 . S
C570 N578 1.356 . S
C571 C570 1.363 . S
C571 C577 1.363 . S
C572 C573 1.363 . S
C572 C577 1.379 . S
C572 N579 1.356 . S
C573 C572 1.363 . S
C573 C576 1.363 . S
N574 C576 1.356 . S
N574 H586 0.984 . S
N574 H587 0.985 . S
N575 C577 1.356 . S
N575 H580 0.984 . S
N575 H581 0.985 . S
C576 C570 1.379 . S
C576 C573 1.363 . S
C576 N574 1.356 . S
C577 C571 1.363 . S
C577 C572 1.379 . S
C577 N575 1.356 . S
N578 C570 1.356 . S
N578 H584 0.984 . S
N578 H585 0.984 . S
N579 C572 1.356 . S
N579 H582 0.984 . S
N579 H583 0.985 . S
H580 N575 0.984 . S
H581 N575 0.985 . S
H582 N579 0.984 . S
H583 N579 0.985 . S
H584 N578 0.984 . S
H585 N578 0.984 . S
H586 N574 0.984 . S
H587 N574 0.985 . S
C588 C589 1.363 . S
C588 C594 1.379 . S
C588 N596 1.356 . S
C589 C588 1.363 . S
C589 C595 1.363 . S
C590 C591 1.363 . S
C590 C595 1.379 . S
C590 N597 1.356 . S
C591 C590 1.363 . S
C591 C594 1.363 . S
N592 C594 1.356 . S
N592 H604 0.984 . S
N592 H605 0.985 . S
N593 C595 1.356 . S
N593 H598 0.984 . S
N593 H599 0.985 . S
C594 C588 1.379 . S
C594 C591 1.363 . S
C594 N592 1.356 . S
C595 C589 1.363 . S
C595 C590 1.379 . S
C595 N593 1.356 . S
N596 C588 1.356 . S
N596 H602 0.984 . S
N596 H603 0.984 . S
N597 C590 1.356 . S
N597 H600 0.984 . S
N597 H601 0.985 . S
H598 N593 0.984 . S
H599 N593 0.985 . S
H600 N597 0.984 . S
H601 N597 0.985 . S
H602 N596 0.984 . S
H603 N596 0.984 . S
H604 N592 0.984 . S
H605 N592 0.985 . S
C606 C607 1.363 . S
C606 C612 1.379 . S
C606 N614 1.356 . S
C607 C606 1.363 . S
C607 C613 1.363 . S
C608 C609 1.363 . S
C608 C613 1.379 . S
C608 N615 1.356 . S
C609 C608 1.363 . S
C609 C612 1.363 . S
N610 C612 1.356 . S
N610 H622 0.984 . S
N610 H623 0.985 . S
N611 C613 1.356 . S
N611 H616 0.984 . S
N611 H617 0.985 . S
C612 C606 1.379 . S
C612 C609 1.363 . S
C612 N610 1.356 . S
C613 C607 1.363 . S
C613 C608 1.379 . S
C613 N611 1.356 . S
N614 C606 1.356 . S
N614 H620 0.984 . S
N614 H621 0.984 . S
N615 C608 1.356 . S
N615 H618 0.984 . S
N615 H619 0.985 . S
H616 N611 0.984 . S
H617 N611 0.985 . S
H618 N615 0.984 . S
H619 N615 0.985 . S
H620 N614 0.984 . S
H621 N614 0.984 . S
H622 N610 0.984 . S
H623 N610 0.985 . S
C624 C625 1.363 . S
C624 C630 1.379 . S
C624 N632 1.356 . S
C625 C624 1.363 . S
C625 C631 1.363 . S
C626 C627 1.363 . S
C626 C631 1.379 . S
C626 N633 1.356 . S
C627 C626 1.363 . S
C627 C630 1.363 . S
N628 C630 1.356 . S
N628 H640 0.984 . S
N628 H641 0.985 . S
N629 C631 1.356 . S
N629 H634 0.984 . S
N629 H635 0.985 . S
C630 C624 1.379 . S
C630 C627 1.363 . S
C630 N628 1.356 . S
C631 C625 1.363 . S
C631 C626 1.379 . S
C631 N629 1.356 . S
N632 C624 1.356 . S
N632 H638 0.984 . S
N632 H639 0.984 . S
N633 C626 1.356 . S
N633 H636 0.984 . S
N633 H637 0.985 . S
H634 N629 0.984 . S
H635 N629 0.985 . S
H636 N633 0.984 . S
H637 N633 0.985 . S
H638 N632 0.984 . S
H639 N632 0.984 . S
H640 N628 0.984 . S
H641 N628 0.985 . S
C642 C643 1.363 . S
C642 C648 1.379 . S
C642 N650 1.356 . S
C643 C642 1.363 . S
C643 C649 1.363 . S
C644 C645 1.363 . S
C644 C649 1.379 . S
C644 N651 1.356 . S
C645 C644 1.363 . S
C645 C648 1.363 . S
N646 C648 1.356 . S
N646 H658 0.984 . S
N646 H659 0.985 . S
N647 C649 1.356 . S
N647 H652 0.984 . S
N647 H653 0.985 . S
C648 C642 1.379 . S
C648 C645 1.363 . S
C648 N646 1.356 . S
C649 C643 1.363 . S
C649 C644 1.379 . S
C649 N647 1.356 . S
N650 C642 1.356 . S
N650 H656 0.984 . S
N650 H657 0.984 . S
N651 C644 1.356 . S
N651 H654 0.984 . S
N651 H655 0.985 . S
H652 N647 0.984 . S
H653 N647 0.985 . S
H654 N651 0.984 . S
H655 N651 0.985 . S
H656 N650 0.984 . S
H657 N650 0.984 . S
H658 N646 0.984 . S
H659 N646 0.985 . S
C660 C661 1.363 . S
C660 C666 1.379 . S
C660 N668 1.356 . S
C661 C660 1.363 . S
C661 C667 1.363 . S
C662 C663 1.363 . S
C662 C667 1.379 . S
C662 N669 1.356 . S
C663 C662 1.363 . S
C663 C666 1.363 . S
N664 C666 1.356 . S
N664 H676 0.984 . S
N664 H677 0.985 . S
N665 C667 1.356 . S
N665 H670 0.984 . S
N665 H671 0.985 . S
C666 C660 1.379 . S
C666 C663 1.363 . S
C666 N664 1.356 . S
C667 C661 1.363 . S
C667 C662 1.379 . S
C667 N665 1.356 . S
N668 C660 1.356 . S
N668 H674 0.984 . S
N668 H675 0.984 . S
N669 C662 1.356 . S
N669 H672 0.984 . S
N669 H673 0.985 . S
H670 N665 0.984 . S
H671 N665 0.985 . S
H672 N669 0.984 . S
H673 N669 0.985 . S
H674 N668 0.984 . S
H675 N668 0.984 . S
H676 N664 0.984 . S
H677 N664 0.985 . S
C678 C679 1.363 . S
C678 C684 1.379 . S
C678 N686 1.356 . S
C679 C678 1.363 . S
C679 C685 1.363 . S
C680 C681 1.363 . S
C680 C685 1.379 . S
C680 N687 1.356 . S
C681 C680 1.363 . S
C681 C684 1.363 . S
N682 C684 1.356 . S
N682 H694 0.984 . S
N682 H695 0.985 . S
N683 C685 1.356 . S
N683 H688 0.984 . S
N683 H689 0.985 . S
C684 C678 1.379 . S
C684 C681 1.363 . S
C684 N682 1.356 . S
C685 C679 1.363 . S
C685 C680 1.379 . S
C685 N683 1.356 . S
N686 C678 1.356 . S
N686 H692 0.984 . S
N686 H693 0.984 . S
N687 C680 1.356 . S
N687 H690 0.984 . S
N687 H691 0.985 . S
H688 N683 0.984 . S
H689 N683 0.985 . S
H690 N687 0.984 . S
H691 N687 0.985 . S
H692 N686 0.984 . S
H693 N686 0.984 . S
H694 N682 0.984 . S
H695 N682 0.985 . S
C696 C697 1.363 . S
C696 C702 1.379 . S
C696 N704 1.356 . S
C697 C696 1.363 . S
C697 C703 1.363 1_554 S
C698 C699 1.363 1_556 S
C698 C703 1.379 . S
C698 N705 1.356 . S
C699 C698 1.363 1_554 S
C699 C702 1.363 . S
N700 C702 1.356 . S
N700 H712 0.984 . S
N700 H713 0.985 . S
N701 C703 1.356 . S
N701 H706 0.984 . S
N701 H707 0.985 . S
C702 C696 1.379 . S
C702 C699 1.363 . S
C702 N700 1.356 . S
C703 C697 1.363 1_556 S
C703 C698 1.379 . S
C703 N701 1.356 . S
N704 C696 1.356 . S
N704 H710 0.984 . S
N704 H711 0.984 . S
N705 C698 1.356 . S
N705 H708 0.984 . S
N705 H709 0.985 . S
H706 N701 0.984 . S
H707 N701 0.985 . S
H708 N705 0.984 . S
H709 N705 0.985 . S
H710 N704 0.984 . S
H711 N704 0.984 . S
H712 N700 0.984 . S
H713 N700 0.985 . S
C714 C715 1.363 . S
C714 C720 1.379 . S
C714 N722 1.356 . S
C715 C714 1.363 . S
C715 C721 1.363 . S
C716 C717 1.363 . S
C716 C721 1.379 . S
C716 N723 1.356 . S
C717 C716 1.363 . S
C717 C720 1.363 . S
N718 C720 1.356 . S
N718 H730 0.984 . S
N718 H731 0.985 . S
N719 C721 1.356 . S
N719 H724 0.984 . S
N719 H725 0.985 . S
C720 C714 1.379 . S
C720 C717 1.363 . S
C720 N718 1.356 . S
C721 C715 1.363 . S
C721 C716 1.379 . S
C721 N719 1.356 . S
N722 C714 1.356 . S
N722 H728 0.984 . S
N722 H729 0.984 . S
N723 C716 1.356 . S
N723 H726 0.984 . S
N723 H727 0.985 . S
H724 N719 0.984 . S
H725 N719 0.985 . S
H726 N723 0.984 . S
H727 N723 0.985 . S
H728 N722 0.984 . S
H729 N722 0.984 . S
H730 N718 0.984 . S
H731 N718 0.985 . S
C732 C733 1.363 1_556 S
C732 C738 1.379 . S
C732 N740 1.356 . S
C733 C732 1.363 1_554 S
C733 C739 1.363 . S
C734 C735 1.363 . S
C734 C739 1.379 . S
C734 N741 1.356 . S
C735 C734 1.363 . S
C735 C738 1.363 1_554 S
N736 C738 1.356 . S
N736 H748 0.984 . S
N736 H749 0.985 . S
N737 C739 1.356 . S
N737 H742 0.984 . S
N737 H743 0.985 . S
C738 C732 1.379 . S
C738 C735 1.363 1_556 S
C738 N736 1.356 . S
C739 C733 1.363 . S
C739 C734 1.379 . S
C739 N737 1.356 . S
N740 C732 1.356 . S
N740 H746 0.984 . S
N740 H747 0.984 . S
N741 C734 1.356 . S
N741 H744 0.984 . S
N741 H745 0.985 . S
H742 N737 0.984 . S
H743 N737 0.985 . S
H744 N741 0.984 . S
H745 N741 0.985 . S
H746 N740 0.984 . S
H747 N740 0.984 . S
H748 N736 0.984 . S
H749 N736 0.985 . S
C750 C751 1.363 . S
C750 C756 1.379 . S
C750 N758 1.356 . S
C751 C750 1.363 . S
C751 C757 1.363 . S
C752 C753 1.363 . S
C752 C757 1.379 . S
C752 N759 1.356 . S
C753 C752 1.363 . S
C753 C756 1.363 . S
N754 C756 1.356 . S
N754 H766 0.984 . S
N754 H767 0.985 . S
N755 C757 1.356 . S
N755 H760 0.984 . S
N755 H761 0.985 . S
C756 C750 1.379 . S
C756 C753 1.363 . S
C756 N754 1.356 . S
C757 C751 1.363 . S
C757 C752 1.379 . S
C757 N755 1.356 . S
N758 C750 1.356 . S
N758 H764 0.984 . S
N758 H765 0.984 . S
N759 C752 1.356 . S
N759 H762 0.984 . S
N759 H763 0.985 . S
H760 N755 0.984 . S
H761 N755 0.985 . S
H762 N759 0.984 . S
H763 N759 0.985 . S
H764 N758 0.984 . S
H765 N758 0.984 . S
H766 N754 0.984 . S
H767 N754 0.985 . S
C768 C769 1.363 . S
C768 C774 1.379 . S
C768 N776 1.356 . S
C769 C768 1.363 . S
C769 C775 1.363 . S
C770 C771 1.363 . S
C770 C775 1.379 . S
C770 N777 1.356 . S
C771 C770 1.363 . S
C771 C774 1.363 . S
N772 C774 1.356 . S
N772 H784 0.984 . S
N772 H785 0.985 . S
N773 C775 1.356 . S
N773 H778 0.984 . S
N773 H779 0.985 . S
C774 C768 1.379 . S
C774 C771 1.363 . S
C774 N772 1.356 . S
C775 C769 1.363 . S
C775 C770 1.379 . S
C775 N773 1.356 . S
N776 C768 1.356 . S
N776 H782 0.984 . S
N776 H783 0.984 . S
N777 C770 1.356 . S
N777 H780 0.984 . S
N777 H781 0.985 . S
H778 N773 0.984 . S
H779 N773 0.985 . S
H780 N777 0.984 . S
H781 N777 0.985 . S
H782 N776 0.984 . S
H783 N776 0.984 . S
H784 N772 0.984 . S
H785 N772 0.985 . S
C786 C787 1.363 . S
C786 C792 1.379 . S
C786 N794 1.356 . S
C787 C786 1.363 . S
C787 C793 1.363 1_554 S
C788 C789 1.363 1_556 S
C788 C793 1.379 . S
C788 N795 1.356 . S
C789 C788 1.363 1_554 S
C789 C792 1.363 . S
N790 C792 1.356 . S
N790 H802 0.984 . S
N790 H803 0.985 . S
N791 C793 1.356 . S
N791 H796 0.984 . S
N791 H797 0.985 . S
C792 C786 1.379 . S
C792 C789 1.363 . S
C792 N790 1.356 . S
C793 C787 1.363 1_556 S
C793 C788 1.379 . S
C793 N791 1.356 . S
N794 C786 1.356 . S
N794 H800 0.984 . S
N794 H801 0.984 . S
N795 C788 1.356 . S
N795 H798 0.984 . S
N795 H799 0.985 . S
H796 N791 0.984 . S
H797 N791 0.985 . S
H798 N795 0.984 . S
H799 N795 0.985 . S
H800 N794 0.984 . S
H801 N794 0.984 . S
H802 N790 0.984 . S
H803 N790 0.985 . S
C804 C805 1.363 . S
C804 C810 1.379 . S
C804 N812 1.356 . S
C805 C804 1.363 . S
C805 C811 1.363 . S
C806 C807 1.363 . S
C806 C811 1.379 . S
C806 N813 1.356 . S
C807 C806 1.363 . S
C807 C810 1.363 . S
N808 C810 1.356 . S
N808 H820 0.984 . S
N808 H821 0.985 . S
N809 C811 1.356 . S
N809 H814 0.984 . S
N809 H815 0.985 . S
C810 C804 1.379 . S
C810 C807 1.363 . S
C810 N808 1.356 . S
C811 C805 1.363 . S
C811 C806 1.379 . S
C811 N809 1.356 . S
N812 C804 1.356 . S
N812 H818 0.984 . S
N812 H819 0.984 . S
N813 C806 1.356 . S
N813 H816 0.984 . S
N813 H817 0.985 . S
H814 N809 0.984 . S
H815 N809 0.985 . S
H816 N813 0.984 . S
H817 N813 0.985 . S
H818 N812 0.984 . S
H819 N812 0.984 . S
H820 N808 0.984 . S
H821 N808 0.985 . S
C822 C823 1.363 . S
C822 C828 1.379 . S
C822 N830 1.356 . S
C823 C822 1.363 . S
C823 C829 1.363 1_554 S
C824 C825 1.363 1_556 S
C824 C829 1.379 . S
C824 N831 1.356 . S
C825 C824 1.363 1_554 S
C825 C828 1.363 . S
N826 C828 1.356 . S
N826 H838 0.984 . S
N826 H839 0.985 . S
N827 C829 1.356 . S
N827 H832 0.984 . S
N827 H833 0.985 . S
C828 C822 1.379 . S
C828 C825 1.363 . S
C828 N826 1.356 . S
C829 C823 1.363 1_556 S
C829 C824 1.379 . S
C829 N827 1.356 . S
N830 C822 1.356 . S
N830 H836 0.984 . S
N830 H837 0.984 . S
N831 C824 1.356 . S
N831 H834 0.984 . S
N831 H835 0.985 . S
H832 N827 0.984 . S
H833 N827 0.985 . S
H834 N831 0.984 . S
H835 N831 0.985 . S
H836 N830 0.984 . S
H837 N830 0.984 . S
H838 N826 0.984 . S
H839 N826 0.985 . S
C409 C21 1.718 . S
C411 C210 1.631 . S
C427 C40 1.913 . S
C429 C90 1.873 . S
C447 C149 1.708 . S
C445 C54 1.723 . S
C463 C73 1.963 . S
C465 C189 1.739 . S
C483 C309 1.707 . S
C481 C74 1.721 . S
C501 C349 1.709 . S
C499 C10 1.922 . S
C519 C370 1.634 . S
C517 C37 1.721 . S
C537 C250 1.901 . S
C535 C65 1.954 . S
C553 C52 1.722 . S
C555 C130 1.715 . S
C571 C87 1.956 . S
C573 C170 1.758 . S
C589 C15 1.744 . S
C591 C229 1.622 . S
C609 C109 1.861 . S
C607 C32 1.909 . S
C625 C29 1.740 . S
C627 C389 1.619 . S
C645 C269 1.905 . S
C643 C59 1.965 . S
C663 C290 1.716 . S
C661 C84 1.725 . S
C679 C8 1.900 . S
C681 C330 1.717 . S
C699 C103 1.891 . S
C697 C7 1.998 . S
C717 C143 1.735 . S
C715 C30 1.759 . S
C733 C62 2.005 . S
C735 C183 1.898 . S
C751 C81 1.715 . S
C753 C223 1.715 . S
C771 C263 1.913 . S
C769 C76 2.005 . S
C787 C18 1.759 . S
C789 C303 1.735 . S
C805 C43 1.998 . S
C807 C343 1.878 . S
C823 C51 1.716 . S
C825 C383 1.716 . S
