# Generated by pormake.
# Topology gar, (4,6)-cn, num edge types: 1
# Building blocks:
#     Node 0, Type 0, BuildingBlock: QUQFOY_clean_sbu_1, # of connection points: 4
#     Node 1, Type 0, BuildingBlock: QUQFOY_clean_sbu_1, # of connection points: 4
#     Node 2, Type 0, BuildingBlock: QUQFOY_clean_sbu_1, # of connection points: 4
#     Node 3, Type 0, BuildingBlock: QUQFOY_clean_sbu_1, # of connection points: 4
#     Node 4, Type 0, BuildingBlock: QUQFOY_clean_sbu_1, # of connection points: 4
#     Node 5, Type 0, BuildingBlock: QUQFOY_clean_sbu_1, # of connection points: 4
#     Node 6, Type 0, BuildingBlock: QUQFOY_clean_sbu_1, # of connection points: 4
#     Node 7, Type 0, BuildingBlock: QUQFOY_clean_sbu_1, # of connection points: 4
#     Node 8, Type 0, BuildingBlock: QUQFOY_clean_sbu_1, # of connection points: 4
#     Node 9, Type 0, BuildingBlock: QUQFOY_clean_sbu_1, # of connection points: 4
#     Node 10, Type 0, BuildingBlock: QUQFOY_clean_sbu_1, # of connection points: 4
#     Node 11, Type 0, BuildingBlock: QUQFOY_clean_sbu_1, # of connection points: 4
#     Node 12, Type 0, BuildingBlock: QUQFOY_clean_sbu_1, # of connection points: 4
#     Node 13, Type 0, BuildingBlock: QUQFOY_clean_sbu_1, # of connection points: 4
#     Node 14, Type 0, BuildingBlock: QUQFOY_clean_sbu_1, # of connection points: 4
#     Node 15, Type 0, BuildingBlock: QUQFOY_clean_sbu_1, # of connection points: 4
#     Node 16, Type 0, BuildingBlock: QUQFOY_clean_sbu_1, # of connection points: 4
#     Node 17, Type 0, BuildingBlock: QUQFOY_clean_sbu_1, # of connection points: 4
#     Node 18, Type 0, BuildingBlock: QUQFOY_clean_sbu_1, # of connection points: 4
#     Node 19, Type 0, BuildingBlock: QUQFOY_clean_sbu_1, # of connection points: 4
#     Node 20, Type 0, BuildingBlock: QUQFOY_clean_sbu_1, # of connection points: 4
#     Node 21, Type 0, BuildingBlock: QUQFOY_clean_sbu_1, # of connection points: 4
#     Node 22, Type 0, BuildingBlock: QUQFOY_clean_sbu_1, # of connection points: 4
#     Node 23, Type 0, BuildingBlock: QUQFOY_clean_sbu_1, # of connection points: 4
#     Node 24, Type 1, BuildingBlock: KUMJIN_clean_sbu_1, # of connection points: 6
#     Node 25, Type 1, BuildingBlock: KUMJIN_clean_sbu_1, # of connection points: 6
#     Node 26, Type 1, BuildingBlock: KUMJIN_clean_sbu_1, # of connection points: 6
#     Node 27, Type 1, BuildingBlock: KUMJIN_clean_sbu_1, # of connection points: 6
#     Node 28, Type 1, BuildingBlock: KUMJIN_clean_sbu_1, # of connection points: 6
#     Node 29, Type 1, BuildingBlock: KUMJIN_clean_sbu_1, # of connection points: 6
#     Node 30, Type 1, BuildingBlock: KUMJIN_clean_sbu_1, # of connection points: 6
#     Node 31, Type 1, BuildingBlock: KUMJIN_clean_sbu_1, # of connection points: 6
#     Node 32, Type 1, BuildingBlock: KUMJIN_clean_sbu_1, # of connection points: 6
#     Node 33, Type 1, BuildingBlock: KUMJIN_clean_sbu_1, # of connection points: 6
#     Node 34, Type 1, BuildingBlock: KUMJIN_clean_sbu_1, # of connection points: 6
#     Node 35, Type 1, BuildingBlock: KUMJIN_clean_sbu_1, # of connection points: 6
#     Node 36, Type 1, BuildingBlock: KUMJIN_clean_sbu_1, # of connection points: 6
#     Node 37, Type 1, BuildingBlock: KUMJIN_clean_sbu_1, # of connection points: 6
#     Node 38, Type 1, BuildingBlock: KUMJIN_clean_sbu_1, # of connection points: 6
#     Node 39, Type 1, BuildingBlock: KUMJIN_clean_sbu_1, # of connection points: 6
#     Edge 40, Type (0, 1), BuildingBlock: TEMPAE_clean_linker_10, # of connection points: 2
#     Edge 41, Type (0, 1), BuildingBlock: TEMPAE_clean_linker_10, # of connection points: 2
#     Edge 42, Type (0, 1), BuildingBlock: TEMPAE_clean_linker_10, # of connection points: 2
#     Edge 43, Type (0, 1), BuildingBlock: TEMPAE_clean_linker_10, # of connection points: 2
#     Edge 44, Type (0, 1), BuildingBlock: TEMPAE_clean_linker_10, # of connection points: 2
#     Edge 45, Type (0, 1), BuildingBlock: TEMPAE_clean_linker_10, # of connection points: 2
#     Edge 46, Type (0, 1), BuildingBlock: TEMPAE_clean_linker_10, # of connection points: 2
#     Edge 47, Type (0, 1), BuildingBlock: TEMPAE_clean_linker_10, # of connection points: 2
#     Edge 48, Type (0, 1), BuildingBlock: TEMPAE_clean_linker_10, # of connection points: 2
#     Edge 49, Type (0, 1), BuildingBlock: TEMPAE_clean_linker_10, # of connection points: 2
#     Edge 50, Type (0, 1), BuildingBlock: TEMPAE_clean_linker_10, # of connection points: 2
#     Edge 51, Type (0, 1), BuildingBlock: TEMPAE_clean_linker_10, # of connection points: 2
#     Edge 52, Type (0, 1), BuildingBlock: TEMPAE_clean_linker_10, # of connection points: 2
#     Edge 53, Type (0, 1), BuildingBlock: TEMPAE_clean_linker_10, # of connection points: 2
#     Edge 54, Type (0, 1), BuildingBlock: TEMPAE_clean_linker_10, # of connection points: 2
#     Edge 55, Type (0, 1), BuildingBlock: TEMPAE_clean_linker_10, # of connection points: 2
#     Edge 56, Type (0, 1), BuildingBlock: TEMPAE_clean_linker_10, # of connection points: 2
#     Edge 57, Type (0, 1), BuildingBlock: TEMPAE_clean_linker_10, # of connection points: 2
#     Edge 58, Type (0, 1), BuildingBlock: TEMPAE_clean_linker_10, # of connection points: 2
#     Edge 59, Type (0, 1), BuildingBlock: TEMPAE_clean_linker_10, # of connection points: 2
#     Edge 60, Type (0, 1), BuildingBlock: TEMPAE_clean_linker_10, # of connection points: 2
#     Edge 61, Type (0, 1), BuildingBlock: TEMPAE_clean_linker_10, # of connection points: 2
#     Edge 62, Type (0, 1), BuildingBlock: TEMPAE_clean_linker_10, # of connection points: 2
#     Edge 63, Type (0, 1), BuildingBlock: TEMPAE_clean_linker_10, # of connection points: 2
#     Edge 64, Type (0, 1), BuildingBlock: TEMPAE_clean_linker_10, # of connection points: 2
#     Edge 65, Type (0, 1), BuildingBlock: TEMPAE_clean_linker_10, # of connection points: 2
#     Edge 66, Type (0, 1), BuildingBlock: TEMPAE_clean_linker_10, # of connection points: 2
#     Edge 67, Type (0, 1), BuildingBlock: TEMPAE_clean_linker_10, # of connection points: 2
#     Edge 68, Type (0, 1), BuildingBlock: TEMPAE_clean_linker_10, # of connection points: 2
#     Edge 69, Type (0, 1), BuildingBlock: TEMPAE_clean_linker_10, # of connection points: 2
#     Edge 70, Type (0, 1), BuildingBlock: TEMPAE_clean_linker_10, # of connection points: 2
#     Edge 71, Type (0, 1), BuildingBlock: TEMPAE_clean_linker_10, # of connection points: 2
#     Edge 72, Type (0, 1), BuildingBlock: TEMPAE_clean_linker_10, # of connection points: 2
#     Edge 73, Type (0, 1), BuildingBlock: TEMPAE_clean_linker_10, # of connection points: 2
#     Edge 74, Type (0, 1), BuildingBlock: TEMPAE_clean_linker_10, # of connection points: 2
#     Edge 75, Type (0, 1), BuildingBlock: TEMPAE_clean_linker_10, # of connection points: 2
#     Edge 76, Type (0, 1), BuildingBlock: TEMPAE_clean_linker_10, # of connection points: 2
#     Edge 77, Type (0, 1), BuildingBlock: TEMPAE_clean_linker_10, # of connection points: 2
#     Edge 78, Type (0, 1), BuildingBlock: TEMPAE_clean_linker_10, # of connection points: 2
#     Edge 79, Type (0, 1), BuildingBlock: TEMPAE_clean_linker_10, # of connection points: 2
#     Edge 80, Type (0, 1), BuildingBlock: TEMPAE_clean_linker_10, # of connection points: 2
#     Edge 81, Type (0, 1), BuildingBlock: TEMPAE_clean_linker_10, # of connection points: 2
#     Edge 82, Type (0, 1), BuildingBlock: TEMPAE_clean_linker_10, # of connection points: 2
#     Edge 83, Type (0, 1), BuildingBlock: TEMPAE_clean_linker_10, # of connection points: 2
#     Edge 84, Type (0, 1), BuildingBlock: TEMPAE_clean_linker_10, # of connection points: 2
#     Edge 85, Type (0, 1), BuildingBlock: TEMPAE_clean_linker_10, # of connection points: 2
#     Edge 86, Type (0, 1), BuildingBlock: TEMPAE_clean_linker_10, # of connection points: 2
#     Edge 87, Type (0, 1), BuildingBlock: TEMPAE_clean_linker_10, # of connection points: 2
#     Edge 88, Type (0, 1), BuildingBlock: TEMPAE_clean_linker_10, # of connection points: 2
#     Edge 89, Type (0, 1), BuildingBlock: TEMPAE_clean_linker_10, # of connection points: 2
#     Edge 90, Type (0, 1), BuildingBlock: TEMPAE_clean_linker_10, # of connection points: 2
#     Edge 91, Type (0, 1), BuildingBlock: TEMPAE_clean_linker_10, # of connection points: 2
#     Edge 92, Type (0, 1), BuildingBlock: TEMPAE_clean_linker_10, # of connection points: 2
#     Edge 93, Type (0, 1), BuildingBlock: TEMPAE_clean_linker_10, # of connection points: 2
#     Edge 94, Type (0, 1), BuildingBlock: TEMPAE_clean_linker_10, # of connection points: 2
#     Edge 95, Type (0, 1), BuildingBlock: TEMPAE_clean_linker_10, # of connection points: 2
#     Edge 96, Type (0, 1), BuildingBlock: TEMPAE_clean_linker_10, # of connection points: 2
#     Edge 97, Type (0, 1), BuildingBlock: TEMPAE_clean_linker_10, # of connection points: 2
#     Edge 98, Type (0, 1), BuildingBlock: TEMPAE_clean_linker_10, # of connection points: 2
#     Edge 99, Type (0, 1), BuildingBlock: TEMPAE_clean_linker_10, # of connection points: 2
#     Edge 100, Type (0, 1), BuildingBlock: TEMPAE_clean_linker_10, # of connection points: 2
#     Edge 101, Type (0, 1), BuildingBlock: TEMPAE_clean_linker_10, # of connection points: 2
#     Edge 102, Type (0, 1), BuildingBlock: TEMPAE_clean_linker_10, # of connection points: 2
#     Edge 103, Type (0, 1), BuildingBlock: TEMPAE_clean_linker_10, # of connection points: 2
#     Edge 104, Type (0, 1), BuildingBlock: TEMPAE_clean_linker_10, # of connection points: 2
#     Edge 105, Type (0, 1), BuildingBlock: TEMPAE_clean_linker_10, # of connection points: 2
#     Edge 106, Type (0, 1), BuildingBlock: TEMPAE_clean_linker_10, # of connection points: 2
#     Edge 107, Type (0, 1), BuildingBlock: TEMPAE_clean_linker_10, # of connection points: 2
#     Edge 108, Type (0, 1), BuildingBlock: TEMPAE_clean_linker_10, # of connection points: 2
#     Edge 109, Type (0, 1), BuildingBlock: TEMPAE_clean_linker_10, # of connection points: 2
#     Edge 110, Type (0, 1), BuildingBlock: TEMPAE_clean_linker_10, # of connection points: 2
#     Edge 111, Type (0, 1), BuildingBlock: TEMPAE_clean_linker_10, # of connection points: 2
#     Edge 112, Type (0, 1), BuildingBlock: TEMPAE_clean_linker_10, # of connection points: 2
#     Edge 113, Type (0, 1), BuildingBlock: TEMPAE_clean_linker_10, # of connection points: 2
#     Edge 114, Type (0, 1), BuildingBlock: TEMPAE_clean_linker_10, # of connection points: 2
#     Edge 115, Type (0, 1), BuildingBlock: TEMPAE_clean_linker_10, # of connection points: 2
#     Edge 116, Type (0, 1), BuildingBlock: TEMPAE_clean_linker_10, # of connection points: 2
#     Edge 117, Type (0, 1), BuildingBlock: TEMPAE_clean_linker_10, # of connection points: 2
#     Edge 118, Type (0, 1), BuildingBlock: TEMPAE_clean_linker_10, # of connection points: 2
#     Edge 119, Type (0, 1), BuildingBlock: TEMPAE_clean_linker_10, # of connection points: 2
#     Edge 120, Type (0, 1), BuildingBlock: TEMPAE_clean_linker_10, # of connection points: 2
#     Edge 121, Type (0, 1), BuildingBlock: TEMPAE_clean_linker_10, # of connection points: 2
#     Edge 122, Type (0, 1), BuildingBlock: TEMPAE_clean_linker_10, # of connection points: 2
#     Edge 123, Type (0, 1), BuildingBlock: TEMPAE_clean_linker_10, # of connection points: 2
#     Edge 124, Type (0, 1), BuildingBlock: TEMPAE_clean_linker_10, # of connection points: 2
#     Edge 125, Type (0, 1), BuildingBlock: TEMPAE_clean_linker_10, # of connection points: 2
#     Edge 126, Type (0, 1), BuildingBlock: TEMPAE_clean_linker_10, # of connection points: 2
#     Edge 127, Type (0, 1), BuildingBlock: TEMPAE_clean_linker_10, # of connection points: 2
#     Edge 128, Type (0, 1), BuildingBlock: TEMPAE_clean_linker_10, # of connection points: 2
#     Edge 129, Type (0, 1), BuildingBlock: TEMPAE_clean_linker_10, # of connection points: 2
#     Edge 130, Type (0, 1), BuildingBlock: TEMPAE_clean_linker_10, # of connection points: 2
#     Edge 131, Type (0, 1), BuildingBlock: TEMPAE_clean_linker_10, # of connection points: 2
#     Edge 132, Type (0, 1), BuildingBlock: TEMPAE_clean_linker_10, # of connection points: 2
#     Edge 133, Type (0, 1), BuildingBlock: TEMPAE_clean_linker_10, # of connection points: 2
#     Edge 134, Type (0, 1), BuildingBlock: TEMPAE_clean_linker_10, # of connection points: 2
#     Edge 135, Type (0, 1), BuildingBlock: TEMPAE_clean_linker_10, # of connection points: 2
# Relax obj value: 0.091
# Max RMSD: 0.188
# Mean RMSD: 0.141
data_MOF--net-gar--node1-QUQFOY_clean_sbu_1--node2-KUMJIN_clean_sbu_1--edge1-TEMPAE_clean_linker_10
_symmetry_space_group_name_H-M    P1
_symmetry_Int_Tables_number       1
_symmetry_cell_setting            triclinic
loop_
_symmetry_equiv_pos_as_xyz
'x, y, z'
_cell_length_a     61.742867
_cell_length_b     61.718845
_cell_length_c     57.863683
_cell_angle_alpha  96.504921
_cell_angle_beta   96.480018
_cell_angle_gamma 103.1419
loop_
_atom_site_label
_atom_site_type_symbol
_atom_site_fract_x
_atom_site_fract_y
_atom_site_fract_z
_atom_type_partial_charge
O0 O 0.05607 0.28181 0.38047 0.0
Cd1 Cd 0.0571 0.30108 0.35317 0.0
Cd2 Cd 0.04345 0.33031 0.39737 0.0
O3 O 0.05239 0.30355 0.41259 0.0
O4 O 0.07459 0.28557 0.33016 0.0
O5 O 0.08962 0.31899 0.34965 0.0
C6 C 0.0923 0.30201 0.33593 0.0
C7 C 0.04761 0.36595 0.42108 0.0
C8 C 0.05531 0.28511 0.40248 0.0
C9 C 1.00885 0.31166 0.35068 0.0
O10 O 0.01503 0.32169 0.37174 0.0
O11 O 0.02293 0.30354 0.33944 0.0
O12 O 0.03203 0.3486 0.42268 0.0
O13 O 0.0616 0.36316 0.4067 0.0
O14 O 0.01453 0.72045 0.70087 0.0
Cd15 Cd 0.0184 0.74938 0.72639 0.0
Cd16 Cd 0.03453 0.7684 0.68977 0.0
O17 O 0.02172 0.73752 0.6701 0.0
O18 O 0.99154 0.74358 0.74654 0.0
O19 O 0.99461 0.76936 0.72355 0.0
C20 C 0.98286 0.75858 0.73771 0.0
C21 C 0.0327 0.80041 0.67231 0.0
C22 C 0.01662 0.7195 0.67904 0.0
C23 C 0.07074 0.76636 0.72928 0.0
O24 O 0.06516 0.7705 0.70878 0.0
O25 O 0.05491 0.75983 0.74174 0.0
O26 O 0.04541 0.78762 0.66611 0.0
O27 O 0.02015 0.79477 0.68808 0.0
O28 O 0.59437 0.81783 0.87675 0.0
Cd29 Cd 0.56909 0.81713 0.89813 0.0
Cd30 Cd 0.54765 0.83366 0.85665 0.0
O31 O 0.57792 0.82482 0.84337 0.0
O32 O 0.58039 0.8019 0.92422 0.0
O33 O 0.54933 0.78634 0.89965 0.0
C34 C 0.56373 0.78477 0.91702 0.0
C35 C 0.50732 0.82167 0.83956 0.0
C36 C 0.59488 0.81986 0.85513 0.0
C37 C 0.55689 0.86295 0.90586 0.0
O38 O 0.55317 0.86208 0.88349 0.0
O39 O 0.56185 0.84637 0.91473 0.0
O40 O 0.52161 0.8367 0.83156 0.0
O41 O 0.51583 0.81207 0.85586 0.0
O42 O 0.51776 0.21062 0.19859 0.0
Cd43 Cd 0.52126 0.23925 0.22444 0.0
Cd44 Cd 0.53939 0.26012 0.18986 0.0
O45 O 0.52806 0.22925 0.16968 0.0
O46 O 0.49436 0.23428 0.24459 0.0
O47 O 0.49695 0.25841 0.2198 0.0
C48 C 0.48527 0.24841 0.2345 0.0
C49 C 0.53738 0.2922 0.17256 0.0
C50 C 0.52161 0.21068 0.1773 0.0
C51 C 0.5741 0.25814 0.2303 0.0
O52 O 0.56967 0.2634 0.21007 0.0
O53 O 0.55745 0.24986 0.24107 0.0
O54 O 0.55036 0.27963 0.16655 0.0
O55 O 0.5245 0.28614 0.18793 0.0
O56 O 0.05668 0.76307 0.12038 0.0
Cd57 Cd 0.05977 0.79319 0.14096 0.0
Cd58 Cd 0.08123 0.81427 0.10719 0.0
O59 O 0.07291 0.77777 0.09157 0.0
O60 O 0.03956 0.78556 0.16488 0.0
O61 O 0.03509 0.80991 0.14054 0.0
C62 C 0.02852 0.79935 0.15747 0.0
C63 C 0.07236 0.84915 0.09399 0.0
C64 C 0.064 0.76027 0.10091 0.0
C65 C 0.10912 0.81362 0.15439 0.0
O66 O 0.10917 0.82011 0.13417 0.0
O67 O 0.09083 0.80382 0.16075 0.0
O68 O 0.08809 0.84061 0.08664 0.0
O69 O 0.06059 0.83741 0.10747 0.0
O70 O 0.54718 0.77296 0.45061 0.0
Cd71 Cd 0.52857 0.77268 0.47847 0.0
Cd72 Cd 0.50126 0.79018 0.43559 0.0
O73 O 0.52818 0.78234 0.4199 0.0
O74 O 0.54511 0.75503 0.5003 0.0
O75 O 0.51077 0.74039 0.48308 0.0
C76 C 0.52841 0.73751 0.49549 0.0
C77 C 0.46525 0.78542 0.41262 0.0
C78 C 0.54533 0.77647 0.42926 0.0
C79 C 0.51967 0.82228 0.48324 0.0
O80 O 0.50984 0.81782 0.46207 0.0
O81 O 0.52709 0.80706 0.49327 0.0
O82 O 0.48217 0.80152 0.41108 0.0
O83 O 0.46869 0.77125 0.42657 0.0
O84 O 0.57 0.26047 0.6265 0.0
Cd85 Cd 0.57136 0.29083 0.64594 0.0
Cd86 Cd 0.58982 0.30931 0.61014 0.0
O87 O 0.57802 0.2733 0.59355 0.0
O88 O 0.55189 0.2824 0.67025 0.0
O89 O 0.54425 0.30414 0.6441 0.0
C90 C 0.53887 0.29394 0.66165 0.0
C91 C 0.58052 0.34491 0.59873 0.0
C92 C 0.57263 0.25652 0.60513 0.0
C93 C 0.62017 0.31004 0.65727 0.0
O94 O 0.61928 0.31247 0.63547 0.0
O95 O 0.60204 0.30458 0.66592 0.0
O96 O 0.59531 0.33604 0.58969 0.0
O97 O 0.57014 0.33338 0.61329 0.0
O98 O 0.01523 0.23599 0.95896 0.0
Cd99 Cd 0.01483 0.25934 0.93548 0.0
Cd100 Cd 0.99777 0.2833 0.97603 0.0
O101 O 1.00674 0.25376 0.99088 0.0
O102 O 0.03146 0.24733 0.91112 0.0
O103 O 0.04454 0.28056 0.93296 0.0
C104 C 0.04738 0.26529 0.91719 0.0
C105 C 1.00836 0.32385 0.99297 0.0
C106 C 1.01252 0.23659 0.98049 0.0
C107 C 0.96875 0.27066 0.92606 0.0
O108 O 0.97001 0.27681 0.9482 0.0
O109 O 0.98496 0.26431 0.91777 0.0
O110 O 0.99358 0.30911 1.00075 0.0
O111 O 0.01851 0.31566 0.97696 0.0
O112 O 0.39134 0.0205 0.28877 0.0
Cd113 Cd 0.37943 0.02487 0.32029 0.0
Cd114 Cd 0.41733 0.02502 0.33427 0.0
O115 O 0.42433 0.0405 0.30617 0.0
O116 O 0.35324 0.03722 0.31601 0.0
O117 O 0.38698 0.05627 0.33512 0.0
C118 C 0.36659 0.05583 0.32662 0.0
C119 C 0.43366 0.03762 0.37126 0.0
C120 C 0.41112 0.03144 0.28749 0.0
C121 C 0.38442 0.9845 0.33256 0.0
O122 O 0.40375 0.99153 0.32705 0.0
O123 O 0.37317 0.99851 0.33827 0.0
O124 O 0.44466 0.02987 0.35588 0.0
O125 O 0.41338 0.03926 0.36515 0.0
O126 O 0.28378 0.18598 0.56368 0.0
Cd127 Cd 0.28406 0.16649 0.53243 0.0
Cd128 Cd 0.26992 0.20041 0.51626 0.0
O129 O 0.28122 0.2178 0.55091 0.0
O130 O 0.30022 0.14421 0.5431 0.0
O131 O 0.31281 0.16768 0.51862 0.0
C132 C 0.31541 0.15184 0.53063 0.0
C133 C 0.27779 0.21202 0.47956 0.0
C134 C 0.2835 0.20656 0.56795 0.0
C135 C 0.23665 0.15548 0.51405 0.0
O136 O 0.2398 0.17661 0.51439 0.0
O137 O 0.2533 0.14682 0.51738 0.0
O138 O 0.26374 0.21954 0.49123 0.0
O139 O 0.28867 0.19907 0.48937 0.0
O140 O 0.14056 0.04946 0.76514 0.0
Cd141 Cd 0.15894 0.04873 0.79674 0.0
Cd142 Cd 0.1262 0.06562 0.81249 0.0
O143 O 0.10955 0.05506 0.7773 0.0
O144 O 0.18092 0.03338 0.78417 0.0
O145 O 0.15854 0.01884 0.8085 0.0
C146 C 0.17358 0.01688 0.79517 0.0
C147 C 0.11328 0.05522 0.84811 0.0
C148 C 0.12057 0.0513 0.76043 0.0
C149 C 0.17221 0.09694 0.81547 0.0
O150 O 0.15125 0.0954 0.81544 0.0
O151 O 0.17935 0.07929 0.81179 0.0
O152 O 0.1046 0.06842 0.83618 0.0
O153 O 0.1286 0.047 0.83943 0.0
O154 O 0.30759 0.93847 0.03664 0.0
Cd155 Cd 0.30316 0.9517 0.00623 0.0
Cd156 Cd 0.30384 0.91454 0.99252 0.0
O157 O 0.28621 0.90609 0.01934 0.0
O158 O 0.2921 0.97755 0.01619 0.0
O159 O 0.27172 0.94708 0.99197 0.0
C160 C 0.27293 0.96579 0.00514 0.0
C161 C 0.29458 0.90379 0.95396 0.0
C162 C 0.29519 0.91941 0.03802 0.0
C163 C 0.34426 0.94958 0.99701 0.0
O164 O 0.33689 0.93003 1.00197 0.0
O165 O 0.3306 0.96105 0.99083 0.0
O166 O 0.30178 0.8906 0.96718 0.0
O167 O 0.29076 0.92241 0.96305 0.0
O168 O 0.30408 0.38812 0.0923 0.0
Cd169 Cd 0.30812 0.41075 0.06873 0.0
Cd170 Cd 0.32277 0.3751 0.04442 0.0
O171 O 0.31217 0.35879 0.07268 0.0
O172 O 0.29341 0.43307 0.08366 0.0
O173 O 0.28073 0.41364 0.04822 0.0
C174 C 0.2783 0.4278 0.06538 0.0
C175 C 0.3129 0.3581 0.00433 0.0
C176 C 0.30582 0.36795 0.09077 0.0
C177 C 0.35599 0.42061 0.05935 0.0
O178 O 0.35284 0.39974 0.05199 0.0
O179 O 0.33994 0.42873 0.06532 0.0
O180 O 0.3272 0.35211 0.01875 0.0
O181 O 0.30335 0.37322 0.0128 0.0
O182 O 0.76953 0.13156 0.10792 0.0
Cd183 Cd 0.76869 0.11354 0.07619 0.0
Cd184 Cd 0.77138 0.15211 0.06619 0.0
O185 O 0.79322 0.15887 0.09628 0.0
O186 O 0.7881 0.09274 0.07967 0.0
O187 O 0.79605 0.12414 0.06311 0.0
C188 C 0.80232 0.10767 0.07134 0.0
C189 C 0.7772 0.16837 0.03362 0.0
C190 C 0.78474 0.1497 0.11275 0.0
C191 C 0.72862 0.12095 0.05799 0.0
O192 O 0.73857 0.14034 0.06845 0.0
O193 O 0.73939 0.10603 0.05411 0.0
O194 O 0.77216 0.17938 0.05175 0.0
O195 O 0.78027 0.14848 0.03461 0.0
O196 O 0.19567 0.55634 0.22944 0.0
Cd197 Cd 0.21536 0.55726 0.26005 0.0
Cd198 Cd 0.17796 0.55652 0.27374 0.0
O199 O 0.16971 0.53396 0.24394 0.0
O200 O 0.23698 0.53901 0.25763 0.0
O201 O 0.20586 0.53096 0.27504 0.0
C202 C 0.22317 0.52548 0.26787 0.0
C203 C 0.16192 0.55128 0.30668 0.0
C204 C 0.17629 0.5432 0.2267 0.0
C205 C 0.21063 0.59885 0.27732 0.0
O206 O 0.19011 0.5893 0.27045 0.0
O207 O 0.22491 0.58721 0.28024 0.0
O208 O 0.15047 0.55493 0.28808 0.0
O209 O 0.18233 0.54957 0.30619 0.0
O210 O 0.81218 0.89283 0.60179 0.0
Cd211 Cd 0.8121 0.91209 0.57545 0.0
Cd212 Cd 0.82218 0.87584 0.55016 0.0
O213 O 0.81085 0.8609 0.5794 0.0
O214 O 0.79655 0.93499 0.58686 0.0
O215 O 0.78314 0.90994 0.55495 0.0
C216 C 0.7808 0.9265 0.56949 0.0
C217 C 0.81212 0.85838 0.51061 0.0
C218 C 0.80969 0.87172 0.59926 0.0
C219 C 0.85694 0.92105 0.56128 0.0
O220 O 0.8528 0.89996 0.55471 0.0
O221 O 0.84216 0.93002 0.56891 0.0
O222 O 0.82687 0.85281 0.52483 0.0
O223 O 0.80176 0.87278 0.5191 0.0
O224 O 0.93924 0.02248 0.23627 0.0
Cd225 Cd 0.91842 0.01917 0.26123 0.0
Cd226 Cd 0.95424 1.00882 0.28686 0.0
O227 O 0.97015 0.0203 0.25823 0.0
O228 O 0.89524 0.03531 0.25177 0.0
O229 O 0.92101 0.04711 0.28352 0.0
C230 C 0.90448 0.05031 0.26963 0.0
C231 C 0.96999 0.01854 0.32711 0.0
C232 C 0.96022 0.02386 0.23888 0.0
C233 C 0.91036 0.97278 0.27307 0.0
O234 O 0.93118 0.97773 0.28114 0.0
O235 O 0.90129 0.98749 0.26522 0.0
O236 O 0.977 1.00491 0.31286 0.0
O237 O 0.95516 0.0282 0.31819 0.0
O238 O 0.26867 0.63595 0.60031 0.0
Cd239 Cd 0.26878 0.61488 0.5708 0.0
Cd240 Cd 0.2748 0.65179 0.55619 0.0
O241 O 0.29474 0.66026 0.58771 0.0
O242 O 0.28474 0.59168 0.57743 0.0
O243 O 0.29809 0.62187 0.56032 0.0
C244 C 0.30118 0.60464 0.56977 0.0
C245 C 0.28394 0.66704 0.52342 0.0
C246 C 0.28407 0.65397 0.60418 0.0
C247 C 0.2302 0.62309 0.54919 0.0
O248 O 0.24117 0.64296 0.55722 0.0
O249 O 0.24022 0.60731 0.54736 0.0
O250 O 0.27976 0.67913 0.54125 0.0
O251 O 0.28407 0.6463 0.52467 0.0
O252 O 0.43936 0.52318 0.73939 0.0
Cd253 Cd 0.4198 0.52345 0.76588 0.0
Cd254 Cd 0.45556 0.51083 0.78921 0.0
O255 O 0.47128 0.52463 0.76156 0.0
O256 O 0.39793 0.54017 0.75379 0.0
O257 O 0.42187 0.55241 0.78676 0.0
C258 C 0.40634 0.55556 0.77151 0.0
C259 C 0.47151 0.51923 0.82971 0.0
C260 C 0.46052 0.52585 0.74171 0.0
C261 C 0.41051 0.47681 0.77601 0.0
O262 O 0.43179 0.47988 0.78029 0.0
O263 O 0.4017 0.49308 0.77259 0.0
O264 O 0.4795 0.50725 0.81468 0.0
O265 O 0.45511 0.52741 0.82176 0.0
O266 O 0.69713 0.06115 0.72582 0.0
Cd267 Cd 0.7168 0.06108 0.75603 0.0
Cd268 Cd 0.68097 0.06056 0.77126 0.0
O269 O 0.67024 0.0399 0.74045 0.0
O270 O 0.73798 0.04306 0.75011 0.0
O271 O 0.70901 0.03434 0.77055 0.0
C272 C 0.72571 0.02929 0.76147 0.0
C273 C 0.664 0.05428 0.80326 0.0
C274 C 0.67815 0.0473 0.72286 0.0
C275 C 0.71522 0.10207 0.77809 0.0
O276 O 0.69444 0.0939 0.77147 0.0
O277 O 0.72875 0.08953 0.77789 0.0
O278 O 0.65417 0.06128 0.78574 0.0
O279 O 0.68307 0.04931 0.80183 0.0
O280 O 0.78565 0.69444 0.07113 0.0
Cd281 Cd 0.78385 0.67409 0.0398 0.0
Cd282 Cd 0.76592 0.70553 0.02161 0.0
O283 O 0.7763 0.72306 0.05635 0.0
O284 O 0.79873 0.65093 0.05027 0.0
O285 O 0.81181 0.67287 0.02487 0.0
C286 C 0.81364 0.65686 0.03691 0.0
C287 C 0.77612 0.71786 0.98582 0.0
C288 C 0.78241 0.71408 0.07408 0.0
C289 C 0.73491 0.66031 0.02121 0.0
O290 O 0.73611 0.68079 0.01881 0.0
O291 O 0.75264 0.65394 0.02705 0.0
O292 O 0.76266 0.72645 0.99741 0.0
O293 O 0.78473 0.70298 0.99491 0.0
O294 O 0.88819 0.51873 0.79561 0.0
Cd295 Cd 0.87781 0.52554 0.82761 0.0
Cd296 Cd 0.91584 0.52505 0.83841 0.0
O297 O 0.92098 0.54105 0.81006 0.0
O298 O 0.8841 0.55785 0.83973 0.0
O299 O 0.85128 0.53679 0.82076 0.0
C300 C 0.86392 0.55636 0.82964 0.0
C301 C 0.93184 0.53643 0.87526 0.0
C302 C 0.90669 0.53113 0.79247 0.0
C303 C 0.88173 0.48582 0.84073 0.0
O304 O 0.89977 0.492 0.83217 0.0
O305 O 0.87161 0.50046 0.84756 0.0
O306 O 0.94294 0.52862 0.85998 0.0
O307 O 0.91211 0.53947 0.86897 0.0
O308 O 0.81385 0.44063 0.546 0.0
Cd309 Cd 0.80982 0.452 0.51403 0.0
Cd310 Cd 0.80608 0.41331 0.50382 0.0
O311 O 0.78825 0.41003 0.53132 0.0
O312 O 0.80033 0.47955 0.52078 0.0
O313 O 0.77835 0.44781 0.49994 0.0
C314 C 0.78067 0.46786 0.51085 0.0
C315 C 0.79603 0.39655 0.46679 0.0
C316 C 0.7996 0.42323 0.5491 0.0
C317 C 0.84864 0.4435 0.50336 0.0
O318 O 0.83989 0.42608 0.51188 0.0
O319 O 0.83616 0.45553 0.49565 0.0
O320 O 0.80113 0.38525 0.48322 0.0
O321 O 0.79471 0.41711 0.47191 0.0
O322 O 0.64471 0.54337 0.26893 0.0
Cd323 Cd 0.66359 0.54463 0.30107 0.0
Cd324 Cd 0.63059 0.56164 0.31662 0.0
O325 O 0.61456 0.55164 0.28115 0.0
O326 O 0.68609 0.5273 0.29363 0.0
O327 O 0.66081 0.51673 0.31697 0.0
C328 C 0.6774 0.51312 0.30669 0.0
C329 C 0.61712 0.55317 0.35253 0.0
C330 C 0.62507 0.54641 0.26427 0.0
C331 C 0.67637 0.59317 0.31932 0.0
O332 O 0.65554 0.59114 0.32031 0.0
O333 O 0.68373 0.57585 0.31441 0.0
O334 O 0.61024 0.56743 0.34064 0.0
O335 O 0.63041 0.54237 0.34324 0.0
Eu336 Eu 0.0748 0.06032 0.06495 0.0
C337 C 0.99456 0.98405 0.00381 0.0
N338 N 1.00761 1.00378 0.99965 0.0
C339 C 1.00897 0.98716 0.96047 0.0
C340 C 0.98862 0.9649 0.98643 0.0
C341 C 0.01437 1.00572 0.97816 0.0
C342 C 0.99624 0.96661 0.96469 0.0
C343 C 0.97073 0.96371 0.02888 0.0
C344 C 0.98574 0.98344 0.02484 0.0
C345 C 0.9657 0.94433 0.01211 0.0
C346 C 0.97458 0.94494 0.99091 0.0
Eu347 Eu 0.01513 0.03434 0.03047 0.0
N348 N 0.99027 1.00264 0.04042 0.0
C349 C 0.96022 0.96439 0.04906 0.0
C350 C 0.97825 1.00392 0.05873 0.0
C351 C 0.96363 0.98474 0.06377 0.0
H352 H 0.02332 0.02167 0.97421 0.0
H353 H 0.95461 0.98579 0.07869 0.0
H354 H 0.07489 0.07315 0.12384 0.0
H355 H 0.11629 0.11214 0.00463 0.0
H356 H 0.97939 0.01979 0.06929 0.0
H357 H 0.94856 0.94963 0.05276 0.0
H358 H 0.09577 0.07765 0.01726 0.0
H359 H 0.01434 0.98883 0.94345 0.0
H360 H 0.9543 0.92903 0.01498 0.0
H361 H 0.96992 0.93007 0.97779 0.0
H362 H 0.08896 0.10557 0.15474 0.0
H363 H 0.99183 0.95235 0.95082 0.0
H364 H 0.12917 0.14706 0.03309 0.0
N365 N 0.08563 0.09106 0.09607 0.0
C366 C 0.0974 0.11078 0.09049 0.0
C367 C 0.09116 0.10738 0.13671 0.0
C368 C 0.10637 0.12965 0.10796 0.0
C369 C 0.08271 0.0891 0.11892 0.0
C370 C 0.10296 0.12776 0.13121 0.0
N371 N 0.09364 0.09315 0.05116 0.0
C372 C 0.09955 0.09296 0.02918 0.0
C373 C 0.11446 0.13185 0.06143 0.0
C374 C 0.10148 0.11186 0.06745 0.0
C375 C 0.11921 0.13208 0.03837 0.0
C376 C 0.11189 0.11246 0.02223 0.0
H377 H 0.10978 0.1418 0.14512 0.0
H378 H 0.12608 0.16416 0.11511 0.0
H379 H 0.13307 0.16612 0.07437 0.0
O380 O 0.10483 0.05018 0.05603 0.0
O381 O 0.0548 0.08728 0.05614 0.0
O382 O 0.03147 0.06964 0.02241 0.0
O383 O 0.10119 0.05932 0.09292 0.0
O384 O 0.0723 0.04156 0.02747 0.0
O385 O 0.04109 0.04902 0.00845 0.0
O386 O 0.99 0.05255 0.03852 0.0
O387 O 0.03496 1.00746 0.03834 0.0
O388 O 0.05899 0.0243 0.0721 0.0
O389 O 0.98708 0.03281 0.00342 0.0
O390 O 0.01541 0.04371 0.06999 0.0
O391 O 0.05107 0.05004 0.09066 0.0
C392 C 0.04122 0.08829 0.03695 0.0
C393 C 0.13495 0.04794 0.08576 0.0
C394 C 0.16374 0.0288 0.07748 0.0
C395 C 0.17394 0.03469 0.10094 0.0
C396 C 0.14509 0.05391 0.10933 0.0
C397 C 0.16464 0.04735 0.11683 0.0
C398 C 0.1445 0.03559 0.06986 0.0
C399 C 0.06051 0.04411 0.00799 0.0
C400 C 0.11326 0.05235 0.07813 0.0
C401 C 0.119 0.1496 0.10189 0.0
C402 C 0.12298 0.15071 0.07869 0.0
C403 C 0.04844 1.00597 0.05733 0.0
C404 C 0.95851 0.0529 0.00974 0.0
C405 C 0.92721 0.06752 0.01971 0.0
C406 C 0.91952 0.06644 0.99572 0.0
C407 C 0.95085 0.0518 0.98575 0.0
C408 C 0.9468 0.061 0.02668 0.0
C409 C 0.93141 0.05869 0.9788 0.0
C410 C 0.02932 0.04701 0.08976 0.0
C411 C 0.97898 0.04619 0.01724 0.0
H412 H 0.18902 0.02952 0.10685 0.0
H413 H 0.13776 0.06328 0.12198 0.0
H414 H 0.17241 0.05187 0.13499 0.0
H415 H 0.13669 0.03065 0.05168 0.0
H416 H 0.9043 0.07152 0.99015 0.0
H417 H 0.95995 0.04581 0.97244 0.0
H418 H 0.9525 0.06168 0.04525 0.0
H419 H 0.92551 0.05792 0.96032 0.0
Eu420 Eu 0.26821 0.79427 0.3125 0.0
C421 C 0.31671 0.75234 0.22171 0.0
N422 N 0.32638 0.76981 0.239 0.0
C423 C 0.36082 0.75792 0.24183 0.0
C424 C 0.32873 0.73658 0.21419 0.0
C425 C 0.34822 0.77306 0.24871 0.0
C426 C 0.35098 0.73949 0.2246 0.0
C427 C 0.28369 0.73111 0.19493 0.0
C428 C 0.29437 0.74959 0.21235 0.0
C429 C 0.29571 0.71558 0.18721 0.0
C430 C 0.31812 0.71824 0.1969 0.0
Eu431 Eu 0.30364 0.79353 0.25169 0.0
N432 N 0.28269 0.76401 0.22145 0.0
C433 C 0.26103 0.72835 0.18625 0.0
C434 C 0.26033 0.76073 0.21346 0.0
C435 C 0.24932 0.74326 0.19554 0.0
H436 H 0.35602 0.78757 0.26153 0.0
H437 H 0.23157 0.74082 0.18955 0.0
H438 H 0.21506 0.7977 0.30529 0.0
H439 H 0.34112 0.8496 0.37161 0.0
H440 H 0.25028 0.77028 0.22167 0.0
H441 H 0.25227 0.71441 0.17287 0.0
H442 H 0.32198 0.81818 0.34191 0.0
H443 H 0.37809 0.76048 0.24979 0.0
H444 H 0.28769 0.70122 0.17403 0.0
H445 H 0.32706 0.70591 0.19102 0.0
H446 H 0.19213 0.82342 0.31871 0.0
H447 H 0.36072 0.72767 0.21942 0.0
H448 H 0.32013 0.87544 0.3888 0.0
N449 N 0.24501 0.8166 0.32679 0.0
C450 C 0.2548 0.83453 0.34345 0.0
C451 C 0.20973 0.82673 0.32583 0.0
C452 C 0.24236 0.84963 0.35168 0.0
C453 C 0.22275 0.81226 0.31822 0.0
C454 C 0.2196 0.84558 0.34254 0.0
N455 N 0.28934 0.82419 0.34225 0.0
C456 C 0.31199 0.82834 0.3493 0.0
C457 C 0.28824 0.85719 0.36857 0.0
C458 C 0.2775 0.83825 0.3517 0.0
C459 C 0.31129 0.86107 0.37597 0.0
C460 C 0.32319 0.84657 0.36627 0.0
H461 H 0.20954 0.85689 0.34827 0.0
H462 H 0.24376 0.88027 0.3748 0.0
H463 H 0.28392 0.88684 0.38965 0.0
O464 O 0.26938 0.77258 0.33921 0.0
O465 O 0.27669 0.82774 0.30078 0.0
O466 O 0.30421 0.81629 0.28534 0.0
O467 O 0.23786 0.76931 0.3166 0.0
O468 O 0.30256 0.78517 0.31705 0.0
O469 O 0.32523 0.7947 0.28746 0.0
O470 O 0.302 0.81574 0.22546 0.0
O471 O 0.29363 0.75869 0.26009 0.0
O472 O 0.27424 0.77688 0.27949 0.0
O473 O 0.33459 0.81399 0.24264 0.0
O474 O 0.26906 0.80282 0.24743 0.0
O475 O 0.24636 0.79437 0.27743 0.0
C476 C 0.29283 0.83168 0.28805 0.0
C477 C 0.23624 0.75618 0.35414 0.0
C478 C 0.23669 0.73925 0.39033 0.0
C479 C 0.21321 0.73629 0.38834 0.0
C480 C 0.21292 0.75331 0.35266 0.0
C481 C 0.20153 0.74357 0.36985 0.0
C482 C 0.24805 0.74961 0.37327 0.0
C483 C 0.32187 0.78766 0.30814 0.0
C484 C 0.24809 0.76251 0.33435 0.0
C485 C 0.25301 0.86842 0.36842 0.0
C486 C 0.27587 0.87214 0.37691 0.0
C487 C 0.2799 0.75799 0.27518 0.0
C488 C 0.33303 0.82707 0.20519 0.0
C489 C 0.33006 0.84365 0.16929 0.0
C490 C 0.35191 0.84198 0.16636 0.0
C491 C 0.35494 0.82558 0.20227 0.0
C492 C 0.32074 0.83623 0.18868 0.0
C493 C 0.36429 0.833 0.18284 0.0
C494 C 0.2499 0.80114 0.25667 0.0
C495 C 0.32375 0.82242 0.22676 0.0
H496 H 0.20366 0.72778 0.40067 0.0
H497 H 0.20339 0.75792 0.33792 0.0
H498 H 0.18348 0.74101 0.36845 0.0
H499 H 0.26609 0.75195 0.37441 0.0
H500 H 0.35951 0.84802 0.15157 0.0
H501 H 0.36499 0.81919 0.2152 0.0
H502 H 0.30402 0.83801 0.19108 0.0
H503 H 0.38128 0.83211 0.18073 0.0
Eu504 Eu 0.5153 0.0327 0.56543 0.0
C505 C 0.5994 0.08785 0.51738 0.0
N506 N 0.58348 0.06828 0.50936 0.0
C507 C 0.58061 0.07838 0.47045 0.0
C508 C 0.60613 0.10355 0.50202 0.0
C509 C 0.57474 0.06307 0.48604 0.0
C510 C 0.59623 0.09874 0.47848 0.0
C511 C 0.62701 0.11173 0.54898 0.0
C512 C 0.60988 0.092 0.54081 0.0
C513 C 0.6334 0.12729 0.53365 0.0
C514 C 0.62297 0.12326 0.51031 0.0
Eu515 Eu 0.57756 0.04362 0.53775 0.0
N516 N 0.60346 0.07682 0.55561 0.0
C517 C 0.6375 0.11513 0.5723 0.0
C518 C 0.61461 0.07938 0.57782 0.0
C519 C 0.63142 0.09877 0.58671 0.0
H520 H 0.56379 0.0469 0.47887 0.0
H521 H 0.64004 0.10082 0.60447 0.0
H522 H 0.53004 0.03185 0.62488 0.0
H523 H 0.45318 0.97247 0.50129 0.0
H524 H 0.6112 0.06619 0.58835 0.0
H525 H 0.65073 0.13005 0.57916 0.0
H526 H 0.481 1.00828 0.51611 0.0
H527 H 0.57347 0.07421 0.45207 0.0
H528 H 0.64653 0.14249 0.53965 0.0
H529 H 0.6283 0.13539 0.49868 0.0
H530 H 0.5224 1.00516 0.65265 0.0
H531 H 0.601 0.11038 0.46619 0.0
H532 H 0.44515 0.94345 0.52739 0.0
N533 N 0.5115 1.00886 0.59484 0.0
C534 C 0.49659 0.9885 0.58742 0.0
C535 C 0.51534 1.00014 0.63431 0.0
C536 C 0.4909 0.97314 0.60341 0.0
C537 C 0.52011 0.01511 0.61815 0.0
C538 C 0.50083 0.97904 0.62691 0.0
N539 N 0.49062 0.99844 0.54883 0.0
C540 C 0.47863 0.99517 0.52694 0.0
C541 C 0.46931 0.96295 0.55667 0.0
C542 C 0.48574 0.98332 0.56408 0.0
C543 C 0.45796 0.95883 0.53364 0.0
C544 C 0.4625 0.97511 0.51879 0.0
H545 H 0.49681 0.96771 0.63966 0.0
H546 H 0.47028 0.94088 0.60794 0.0
H547 H 0.45145 0.93202 0.56718 0.0
O548 O 0.4878 0.04694 0.55115 0.0
O549 O 0.52476 1.00068 0.54716 0.0
O550 O 0.55724 1.00646 0.52823 0.0
O551 O 0.48912 0.0369 0.58589 0.0
O552 O 0.53054 0.04677 0.53576 0.0
O553 O 0.54809 0.03176 0.50948 0.0
O554 O 0.60435 0.0286 0.5522 0.0
O555 O 0.56811 0.076 0.55493 0.0
O556 O 0.53495 0.07039 0.57268 0.0
O557 O 0.60376 0.03883 0.51754 0.0
O558 O 0.56275 0.02959 0.56799 0.0
O559 O 0.54458 0.04569 0.59314 0.0
C560 C 0.53917 0.99322 0.53449 0.0
C561 C 0.47192 0.0664 0.58055 0.0
C562 C 0.44432 0.08883 0.5792 0.0
C563 C 0.45273 0.09884 0.60244 0.0
C564 C 0.48067 0.0771 0.60363 0.0
C565 C 0.47102 0.09317 0.61449 0.0
C566 C 0.45402 0.07272 0.56821 0.0
C567 C 0.52939 0.03535 0.51532 0.0
C568 C 0.47898 0.04654 0.57064 0.0
C569 C 0.47487 0.95271 0.5958 0.0
C570 C 0.46412 0.94766 0.57257 0.0
C571 C 0.55316 0.08371 0.56658 0.0
C572 C 0.62081 0.00927 0.52333 0.0
C573 C 0.64896 0.98751 0.52468 0.0
C574 C 0.64022 0.97693 0.5017 0.0
C575 C 0.61178 0.99807 0.50051 0.0
C576 C 0.63915 1.00357 0.53556 0.0
C577 C 0.62153 0.98203 0.48978 0.0
C578 C 0.56328 0.0415 0.58813 0.0
C579 C 0.61357 0.02909 0.53297 0.0
H580 H 0.44516 0.1111 0.61118 0.0
H581 H 0.49445 0.07251 0.61361 0.0
H582 H 0.47748 0.10093 0.63241 0.0
H583 H 0.44702 0.06445 0.55052 0.0
H584 H 0.64789 0.96471 0.49303 0.0
H585 H 0.59769 1.00225 0.49063 0.0
H586 H 0.64643 0.0123 0.55303 0.0
H587 H 0.61486 0.97386 0.47203 0.0
Eu588 Eu 0.32571 0.27034 0.79401 0.0
C589 C 0.2402 0.29954 0.73542 0.0
N590 N 0.2551 0.31113 0.75431 0.0
C591 C 0.25559 0.3457 0.73883 0.0
C592 C 0.23306 0.31061 0.71701 0.0
C593 C 0.26205 0.33405 0.75671 0.0
C594 C 0.24129 0.3339 0.71874 0.0
C595 C 0.21551 0.26423 0.71572 0.0
C596 C 0.23148 0.27659 0.73477 0.0
C597 C 0.2088 0.27514 0.69713 0.0
C598 C 0.21762 0.29824 0.69774 0.0
Eu599 Eu 0.26547 0.28947 0.78307 0.0
N600 N 0.23873 0.2663 0.75267 0.0
C601 C 0.20678 0.24125 0.71593 0.0
C602 C 0.22917 0.24432 0.75372 0.0
C603 C 0.21341 0.23132 0.73519 0.0
H604 H 0.27248 0.34348 0.77255 0.0
H605 H 0.20619 0.21375 0.73592 0.0
H606 H 0.30779 0.21537 0.80128 0.0
H607 H 0.39283 0.33524 0.84727 0.0
H608 H 0.23333 0.23697 0.76905 0.0
H609 H 0.19456 0.23116 0.70159 0.0
H610 H 0.3671 0.31596 0.81129 0.0
H611 H 0.26151 0.3638 0.74067 0.0
H612 H 0.19673 0.26587 0.68225 0.0
H613 H 0.21211 0.30645 0.68336 0.0
H614 H 0.31064 0.19194 0.83257 0.0
H615 H 0.23623 0.343 0.70495 0.0
H616 H 0.39412 0.31611 0.88257 0.0
N617 N 0.32706 0.24564 0.8224 0.0
C618 C 0.34056 0.25487 0.84312 0.0
C619 C 0.31888 0.20969 0.83588 0.0
C620 C 0.3433 0.2418 0.86123 0.0
C621 C 0.31692 0.22319 0.81829 0.0
C622 C 0.33194 0.21906 0.85751 0.0
N623 N 0.35106 0.28894 0.82748 0.0
C624 C 0.36603 0.30883 0.82732 0.0
C625 C 0.36829 0.28663 0.86624 0.0
C626 C 0.35291 0.27711 0.8457 0.0
C627 C 0.38202 0.30826 0.86717 0.0
C628 C 0.38124 0.3192 0.84737 0.0
H629 H 0.33371 0.20845 0.87094 0.0
H630 H 0.36014 0.24174 0.89619 0.0
H631 H 0.38201 0.28094 0.90053 0.0
O632 O 0.35511 0.28064 0.77617 0.0
O633 O 0.31088 0.28261 0.82615 0.0
O634 O 0.29111 0.30806 0.81438 0.0
O635 O 0.34884 0.24884 0.78969 0.0
O636 O 0.32945 0.30639 0.78694 0.0
O637 O 0.29559 0.31725 0.77976 0.0
O638 O 0.2369 0.27797 0.80298 0.0
O639 O 0.27442 0.27221 0.74944 0.0
O640 O 0.30865 0.26215 0.75612 0.0
O641 O 0.24612 0.31233 0.79497 0.0
O642 O 0.27133 0.26062 0.80183 0.0
O643 O 0.29374 0.24291 0.78204 0.0
C644 C 0.30108 0.29915 0.83081 0.0
C645 C 0.36962 0.25172 0.75765 0.0
C646 C 0.39899 0.25235 0.73267 0.0
C647 C 0.38834 0.2302 0.72245 0.0
C648 C 0.359 0.22969 0.74692 0.0
C649 C 0.36836 0.21904 0.72941 0.0
C650 C 0.38944 0.26316 0.75013 0.0
C651 C 0.31764 0.32088 0.78139 0.0
C652 C 0.3616 0.26218 0.77811 0.0
C653 C 0.35788 0.25155 0.88211 0.0
C654 C 0.37032 0.2739 0.88461 0.0
C655 C 0.29086 0.2639 0.74216 0.0
C656 C 0.21393 0.30443 0.81535 0.0
C657 C 0.18236 0.29778 0.83786 0.0
C658 C 0.17923 0.31917 0.83492 0.0
C659 C 0.2102 0.32576 0.8127 0.0
C660 C 0.19974 0.29024 0.82797 0.0
C661 C 0.19303 0.333 0.8224 0.0
C662 C 0.27531 0.24222 0.79152 0.0
C663 C 0.23242 0.29772 0.80429 0.0
H664 H 0.39551 0.22154 0.70905 0.0
H665 H 0.34372 0.22054 0.75237 0.0
H666 H 0.36026 0.20198 0.72142 0.0
H667 H 0.39789 0.28007 0.7585 0.0
H668 H 0.16591 0.32513 0.84229 0.0
H669 H 0.22054 0.33698 0.80297 0.0
H670 H 0.20217 0.2737 0.8301 0.0
H671 H 0.19037 0.34942 0.82017 0.0
Eu672 Eu 0.0574 0.01315 0.53909 0.0
C673 C 0.02984 0.09548 0.59568 0.0
N674 N 0.01838 0.08245 0.57554 0.0
C675 C 0.98337 0.08304 0.5894 0.0
C676 C 0.01837 0.10197 0.614 0.0
C677 C 0.9955 0.07755 0.57153 0.0
C678 C 0.99488 0.09489 0.61094 0.0
C679 C 0.06484 0.11975 0.61658 0.0
C680 C 0.05289 0.10414 0.59709 0.0
C681 C 0.05368 0.1252 0.63545 0.0
C682 C 0.03052 0.11623 0.63422 0.0
Eu683 Eu 0.04048 0.07301 0.54713 0.0
N684 N 0.0634 0.09828 0.57877 0.0
C685 C 0.08752 0.12992 0.61619 0.0
C686 C 0.08501 0.10925 0.57753 0.0
C687 C 0.09754 0.12489 0.59642 0.0
H688 H 0.98664 0.06976 0.55436 0.0
H689 H 0.11484 0.13317 0.59565 0.0
H690 H 0.11178 0.02647 0.53011 0.0
H691 H 0.98325 0.96023 0.48157 0.0
H692 H 0.09253 0.10577 0.56201 0.0
H693 H 0.09724 0.14207 0.63079 0.0
H694 H 1.00347 0.98703 0.51602 0.0
H695 H 0.96518 0.07854 0.58637 0.0
H696 H 0.06268 0.13685 0.65077 0.0
H697 H 0.02201 0.12118 0.64858 0.0
H698 H 0.13446 0.0174 0.49979 0.0
H699 H 0.98544 0.09947 0.62462 0.0
H700 H 1.00418 0.94757 0.45081 0.0
N701 N 0.08072 1.00716 0.51059 0.0
C702 C 0.07053 0.99222 0.49114 0.0
C703 C 0.11647 0.01036 0.49704 0.0
C704 C 0.08309 0.98601 0.47368 0.0
C705 C 0.10344 0.01581 0.51403 0.0
C706 C 0.10627 0.99543 0.47676 0.0
N707 N 0.03564 0.98929 0.50561 0.0
C708 C 1.01288 0.98144 0.50313 0.0
C709 C 0.03649 0.9677 0.46844 0.0
C710 C 0.04745 0.98298 0.48863 0.0
C711 C 1.01319 0.9593 0.46606 0.0
C712 C 1.00132 0.96636 0.4834 0.0
H713 H 0.11647 0.99108 0.46375 0.0
H714 H 0.08167 0.96545 0.44033 0.0
H715 H 0.04089 0.94954 0.43568 0.0
O716 O 0.05007 0.97859 0.54717 0.0
O717 O 0.04653 0.02829 0.5065 0.0
O718 O 0.01976 0.04671 0.51734 0.0
O719 O 0.08396 1.00065 0.55756 0.0
O720 O 0.02432 0.01114 0.55249 0.0
O721 O 1.01035 0.04283 0.54743 0.0
O722 O 0.05066 0.09434 0.5201 0.0
O723 O 0.06405 0.06535 0.57724 0.0
O724 O 0.0508 0.02749 0.57477 0.0
O725 O 0.02702 0.10215 0.54236 0.0
O726 O 0.06903 0.06731 0.52799 0.0
O727 O 0.08579 0.04448 0.54832 0.0
C728 C 0.02838 0.03573 0.50132 0.0
C729 C 0.07794 0.96286 0.56817 0.0
C730 C 0.07052 0.92981 0.58821 0.0
C731 C 0.0932 0.92927 0.58914 0.0
C732 C 0.10059 0.96212 0.56945 0.0
C733 C 0.10813 0.94536 0.57984 0.0
C734 C 0.06284 0.94663 0.57767 0.0
C735 C 1.00813 0.02186 0.55215 0.0
C736 C 0.07047 0.98104 0.55766 0.0
C737 C 0.07224 0.97049 0.45381 0.0
C738 C 0.04903 0.96139 0.45119 0.0
C739 C 0.06178 0.04682 0.58694 0.0
C740 C 0.02705 0.1178 0.50685 0.0
C741 C 0.02696 0.14899 0.48405 0.0
C742 C 1.00379 0.14025 0.47685 0.0
C743 C 1.00399 0.1093 0.49906 0.0
C744 C 0.03864 0.13751 0.49893 0.0
C745 C 0.99248 0.12048 0.48413 0.0
C746 C 0.08707 0.06206 0.53734 0.0
C747 C 0.03838 0.10818 0.52561 0.0
H748 H 0.09938 0.91644 0.59727 0.0
H749 H 0.11248 0.97449 0.56236 0.0
H750 H 0.12561 0.94488 0.58074 0.0
H751 H 0.04536 0.94716 0.57705 0.0
H752 H 0.99439 0.14884 0.4656 0.0
H753 H 0.99474 0.0944 0.50512 0.0
H754 H 0.05637 0.14444 0.5052 0.0
H755 H 0.97461 0.11405 0.47854 0.0
Eu756 Eu 0.29562 0.82008 0.75981 0.0
C757 C 0.24071 0.73424 0.80904 0.0
N758 N 0.25992 0.7507 0.81653 0.0
C759 C 0.25042 0.75392 0.85562 0.0
C760 C 0.2252 0.72767 0.82459 0.0
C761 C 0.26525 0.76004 0.83962 0.0
C762 C 0.23021 0.73786 0.84805 0.0
C763 C 0.21685 0.70646 0.77772 0.0
C764 C 0.2367 0.72339 0.78589 0.0
C765 C 0.20118 0.70041 0.79306 0.0
C766 C 0.2054 0.71088 0.81644 0.0
Eu767 Eu 0.28411 0.75779 0.78793 0.0
N768 N 0.25208 0.72948 0.77128 0.0
C769 C 0.21334 0.69607 0.75434 0.0
C770 C 0.24899 0.71918 0.74863 0.0
C771 C 0.22952 0.70243 0.73976 0.0
H772 H 0.28121 0.77163 0.84609 0.0
H773 H 0.22701 0.69443 0.7217 0.0
H774 H 0.29182 0.81135 0.70025 0.0
H775 H 0.35767 0.88269 0.82372 0.0
H776 H 0.26147 0.72389 0.73738 0.0
H777 H 0.19826 0.68309 0.74741 0.0
H778 H 0.32234 0.85405 0.8104 0.0
H779 H 0.25474 0.76137 0.8739 0.0
H780 H 0.18583 0.68748 0.78708 0.0
H781 H 0.19329 0.70573 0.82815 0.0
H782 H 0.31625 0.82134 0.67016 0.0
H783 H 0.21883 0.7331 0.86056 0.0
H784 H 0.38439 0.89294 0.79573 0.0
N785 N 0.3166 0.82857 0.72895 0.0
C786 C 0.33674 0.8438 0.73579 0.0
C787 C 0.32236 0.82746 0.68856 0.0
C788 C 0.35105 0.85033 0.71907 0.0
C789 C 0.3087 0.82157 0.70563 0.0
C790 C 0.34381 0.84153 0.69535 0.0
N791 N 0.32857 0.84812 0.77528 0.0
C792 C 0.33354 0.85858 0.79799 0.0
C793 C 0.36332 0.8702 0.7663 0.0
C794 C 0.34275 0.85391 0.75931 0.0
C795 C 0.36873 0.88045 0.78974 0.0
C796 C 0.35369 0.87473 0.80559 0.0
H797 H 0.35433 0.84618 0.68205 0.0
H798 H 0.38302 0.87091 0.71371 0.0
H799 H 0.39382 0.8881 0.75497 0.0
O800 O 0.28828 0.8532 0.76909 0.0
O801 O 0.32747 0.81405 0.78085 0.0
O802 O 0.32137 0.77682 0.78897 0.0
O803 O 0.27557 0.83279 0.73419 0.0
O804 O 0.28004 0.80697 0.78981 0.0
O805 O 0.29628 0.78852 0.81466 0.0
O806 O 0.29956 0.73009 0.77546 0.0
O807 O 0.25086 0.76702 0.77456 0.0
O808 O 0.25777 0.79953 0.75585 0.0
O809 O 0.2943 0.73702 0.81221 0.0
O810 O 0.2798 0.76583 0.75141 0.0
O811 O 0.30257 0.79211 0.73634 0.0
C812 C 0.33482 0.79678 0.78775 0.0
C813 C 0.26689 0.86876 0.73947 0.0
C814 C 0.24377 0.89546 0.7443 0.0
C815 C 0.24429 0.89872 0.72073 0.0
C816 C 0.26739 0.87225 0.71594 0.0
C817 C 0.25624 0.8873 0.70669 0.0
C818 C 0.25541 0.88073 0.75381 0.0
C819 C 0.29145 0.80714 0.81005 0.0
C820 C 0.27678 0.8513 0.7482 0.0
C821 C 0.37177 0.86596 0.72629 0.0
C822 C 0.37788 0.87583 0.74979 0.0
C823 C 0.24381 0.78194 0.7625 0.0
C824 C 0.31096 0.70602 0.80388 0.0
C825 C 0.33484 0.6798 0.7994 0.0
C826 C 0.3313 0.67392 0.82165 0.0
C827 C 0.30749 0.69957 0.82603 0.0
C828 C 0.32444 0.69574 0.79028 0.0
C829 C 0.3176 0.68366 0.83479 0.0
C830 C 0.29553 0.7711 0.73854 0.0
C831 C 0.30175 0.72471 0.79667 0.0
H832 H 0.23553 0.91022 0.71325 0.0
H833 H 0.27621 0.86315 0.70466 0.0
H834 H 0.25664 0.88991 0.68854 0.0
H835 H 0.2548 0.87798 0.77193 0.0
H836 H 0.33908 0.66158 0.82881 0.0
H837 H 0.29717 0.70709 0.83687 0.0
H838 H 0.32735 0.70051 0.77322 0.0
H839 H 0.31494 0.67899 0.85191 0.0
Eu840 Eu 0.53905 0.05519 0.01491 0.0
C841 C 0.58102 1.00532 0.10492 0.0
N842 N 0.56415 0.99594 0.08687 0.0
C843 C 0.57781 0.96258 0.08211 0.0
C844 C 0.59751 0.99386 0.11165 0.0
C845 C 0.56211 0.97475 0.07569 0.0
C846 C 0.5957 0.97224 0.10001 0.0
C847 C 0.6002 0.0374 0.13416 0.0
C848 C 0.58222 0.02677 0.11625 0.0
C849 C 0.61683 0.02616 0.1406 0.0
C850 C 0.61543 1.00442 0.12947 0.0
Eu851 Eu 0.53951 0.01838 0.07586 0.0
N852 N 0.56642 0.03767 0.10884 0.0
C853 C 0.6011 0.05914 0.14488 0.0
C854 C 0.56648 0.05827 0.12039 0.0
C855 C 0.58398 0.06947 0.13819 0.0
H856 H 0.54831 0.96713 0.06185 0.0
H857 H 0.58418 0.08604 0.1468 0.0
H858 H 0.52895 0.10496 0.03267 0.0
H859 H 0.50185 0.99703 0.93381 0.0
H860 H 0.55308 0.06624 0.11634 0.0
H861 H 0.61474 0.06794 0.15855 0.0
H862 H 0.53188 0.01562 0.96634 0.0
H863 H 0.57619 0.9458 0.07312 0.0
H864 H 0.63086 0.03415 0.15417 0.0
H865 H 0.62839 0.99596 0.13467 0.0
H866 H 0.49995 0.12583 0.02428 0.0
H867 H 0.608 0.96287 0.10471 0.0
H868 H 0.46806 0.01188 0.92668 0.0
N869 N 0.51352 0.07734 0.00605 0.0
C870 C 0.49656 0.06858 0.98812 0.0
C871 C 0.49868 0.10965 0.01409 0.0
C872 C 0.47937 0.07966 0.98299 0.0
C873 C 0.51508 0.09777 0.01881 0.0
C874 C 0.48058 0.10042 0.9963 0.0
N875 N 0.51417 0.03912 0.97952 0.0
C876 C 0.51681 0.02167 0.96424 0.0
C877 C 0.47956 0.0392 0.95555 0.0
C878 C 0.49676 0.04871 0.97457 0.0
C879 C 0.48102 0.01985 0.94133 0.0
C880 C 0.50002 0.01138 0.94536 0.0
H881 H 0.46781 0.10957 0.9928 0.0
H882 H 0.44818 0.07789 0.96068 0.0
H883 H 0.44822 0.04229 0.93674 0.0
O884 O 0.5684 0.05675 0.99716 0.0
O885 O 0.50662 0.04686 0.02897 0.0
O886 O 0.51527 0.01678 0.04293 0.0
O887 O 0.55985 0.08755 0.01001 0.0
O888 O 0.54154 0.01806 0.00727 0.0
O889 O 0.5408 0.99763 0.03992 0.0
O890 O 0.51531 0.01981 0.09993 0.0
O891 O 0.57474 0.03448 0.07206 0.0
O892 O 0.55315 0.04289 0.04491 0.0
O893 O 0.52048 0.98747 0.08612 0.0
O894 O 0.53089 0.05319 0.07971 0.0
O895 O 0.54388 0.07609 0.05138 0.0
C896 C 0.50146 0.02989 0.0406 0.0
C897 C 0.5744 0.0856 0.974 0.0
C898 C 0.58749 0.08002 0.93652 0.0
C899 C 0.57676 0.09598 0.92836 0.0
C900 C 0.56377 0.1018 0.96594 0.0
C901 C 0.56506 0.10698 0.94317 0.0
C902 C 0.58654 0.07507 0.95928 0.0
C903 C 0.54214 0.99958 0.01722 0.0
C904 C 0.57212 0.07836 0.997 0.0
C905 C 0.46173 0.06981 0.96467 0.0
C906 C 0.46176 0.04955 0.95104 0.0
C907 C 0.57351 0.04492 0.05441 0.0
C908 C 0.50972 0.99186 0.12412 0.0
C909 C 0.49239 0.99325 0.1595 0.0
C910 C 0.50563 0.9797 0.16879 0.0
C911 C 0.52324 0.97857 0.13349 0.0
C912 C 0.49455 0.99935 0.13729 0.0
C913 C 0.52113 0.97253 0.15584 0.0
C914 C 0.53645 0.07285 0.07171 0.0
C915 C 0.51067 0.99826 0.1007 0.0
H916 H 0.57778 0.10014 0.91076 0.0
H917 H 0.55431 0.11025 0.97704 0.0
H918 H 0.55694 0.11947 0.93698 0.0
H919 H 0.59502 0.06274 0.96539 0.0
H920 H 0.50402 0.97482 0.18604 0.0
H921 H 0.53526 0.97283 0.12361 0.0
H922 H 0.48409 0.00964 0.13008 0.0
H923 H 0.53143 0.9622 0.16308 0.0
Eu924 Eu 0.2717 0.24882 0.26146 0.0
C925 C 0.35007 0.33246 0.32103 0.0
N926 N 0.3308 0.31928 0.32599 0.0
C927 C 0.34605 0.32547 0.36691 0.0
C928 C 0.36798 0.34302 0.33907 0.0
C929 C 0.32865 0.31563 0.34854 0.0
C930 C 0.36576 0.33935 0.36219 0.0
C931 C 0.37159 0.34938 0.29227 0.0
C932 C 0.35184 0.33561 0.29789 0.0
C933 C 0.38919 0.3603 0.31024 0.0
C934 C 0.3874 0.35711 0.33357 0.0
Eu935 Eu 0.3006 0.30809 0.29455 0.0
N936 N 0.33443 0.325 0.28085 0.0
C937 C 0.3731 0.35182 0.26874 0.0
C938 C 0.3362 0.32692 0.25785 0.0
C939 C 0.3554 0.34032 0.25143 0.0
H940 H 0.31308 0.30633 0.35268 0.0
H941 H 0.35646 0.34186 0.23312 0.0
H942 H 0.26014 0.24813 0.2032 0.0
H943 H 0.21597 0.21536 0.32293 0.0
H944 H 0.32305 0.31813 0.2443 0.0
H945 H 0.38791 0.36235 0.26374 0.0
H946 H 0.25126 0.23467 0.31125 0.0
H947 H 0.344 0.3228 0.38478 0.0
H948 H 0.40433 0.37115 0.30626 0.0
H949 H 0.40117 0.36559 0.34724 0.0
H950 H 0.22786 0.23666 0.1717 0.0
H951 H 0.37908 0.34726 0.37652 0.0
H952 H 0.18196 0.20182 0.29339 0.0
N953 N 0.24109 0.24072 0.23056 0.0
C954 C 0.22081 0.23034 0.23608 0.0
C955 C 0.22548 0.23526 0.18977 0.0
C956 C 0.20204 0.22191 0.21839 0.0
C957 C 0.24367 0.2428 0.20774 0.0
C958 C 0.20452 0.22482 0.19512 0.0
N959 N 0.2376 0.23443 0.27589 0.0
C960 C 0.2366 0.23009 0.2984 0.0
C961 C 0.1985 0.21494 0.26507 0.0
C962 C 0.21907 0.22688 0.25924 0.0
C963 C 0.19738 0.21107 0.28829 0.0
C964 C 0.21652 0.21872 0.30502 0.0
H965 H 0.19057 0.2184 0.18106 0.0
H966 H 0.16719 0.20326 0.21082 0.0
H967 H 0.16409 0.19714 0.25164 0.0
O968 O 0.27933 0.21761 0.2705 0.0
O969 O 0.24744 0.27163 0.27004 0.0
O970 O 0.26569 0.29304 0.30453 0.0
O971 O 0.26536 0.21945 0.23506 0.0
O972 O 0.28925 0.24985 0.2991 0.0
O973 O 0.28751 0.28362 0.31876 0.0
O974 O 0.28923 0.3373 0.28432 0.0
O975 O 0.32647 0.2876 0.28521 0.0
O976 O 0.30834 0.26069 0.25365 0.0
O977 O 0.30196 0.33626 0.32113 0.0
O978 O 0.28241 0.30588 0.25728 0.0
O979 O 0.28564 0.27301 0.2369 0.0
C980 C 0.24692 0.2843 0.28991 0.0
C981 C 0.28787 0.19387 0.23933 0.0
C982 C 0.30814 0.16506 0.24431 0.0
C983 C 0.31204 0.16436 0.22083 0.0
C984 C 0.29204 0.19334 0.21587 0.0
C985 C 0.30407 0.17858 0.20671 0.0
C986 C 0.29597 0.17972 0.25336 0.0
C987 C 0.28929 0.26289 0.31883 0.0
C988 C 0.27338 0.2073 0.24895 0.0
C989 C 0.18163 0.2101 0.22424 0.0
C990 C 0.17988 0.2066 0.24749 0.0
C991 C 0.32713 0.27255 0.26713 0.0
C992 C 0.29017 0.36949 0.31336 0.0
C993 C 0.27001 0.39785 0.30663 0.0
C994 C 0.27844 0.40904 0.32949 0.0
C995 C 0.29872 0.38074 0.33622 0.0
C996 C 0.27619 0.37838 0.29842 0.0
C997 C 0.29294 0.40056 0.34417 0.0
C998 C 0.28374 0.29384 0.23744 0.0
C999 C 0.29366 0.34731 0.30607 0.0
H1000 H 0.32137 0.153 0.21352 0.0
H1001 H 0.2857 0.20397 0.2045 0.0
H1002 H 0.30707 0.17805 0.18861 0.0
H1003 H 0.29226 0.17969 0.27126 0.0
H1004 H 0.2739 0.42437 0.33585 0.0
H1005 H 0.30949 0.37401 0.34809 0.0
H1006 H 0.26932 0.36973 0.28083 0.0
H1007 H 0.29942 0.40916 0.3618 0.0
Eu1008 Eu 0.5605 0.50682 0.04333 0.0
C1009 C 0.53306 0.58727 0.10112 0.0
N1010 N 0.52148 0.57379 0.08119 0.0
C1011 C 0.48686 0.57177 0.09699 0.0
C1012 C 0.52189 0.59276 0.12013 0.0
C1013 C 0.49852 0.56719 0.07842 0.0
C1014 C 0.49862 0.58427 0.11809 0.0
C1015 C 0.56772 0.6129 0.12131 0.0
C1016 C 0.55583 0.5972 0.10184 0.0
C1017 C 0.55686 0.61746 0.14068 0.0
C1018 C 0.53404 0.60736 0.14013 0.0
Eu1019 Eu 0.54352 0.56727 0.05129 0.0
N1020 N 0.56613 0.59237 0.08301 0.0
C1021 C 0.59001 0.62407 0.12041 0.0
C1022 C 0.58721 0.60436 0.08126 0.0
C1023 C 0.59968 0.62003 0.10014 0.0
H1024 H 0.48896 0.55868 0.06179 0.0
H1025 H 0.61661 0.62915 0.09894 0.0
H1026 H 0.61489 0.52397 0.03348 0.0
H1027 H 0.49345 0.43851 0.99381 0.0
H1028 H 0.59421 0.60184 0.06521 0.0
H1029 H 0.59967 0.6363 0.13498 0.0
H1030 H 0.51228 0.46712 0.02767 0.0
H1031 H 0.46873 0.56601 0.09485 0.0
H1032 H 0.56581 0.62926 0.15591 0.0
H1033 H 0.52574 0.6116 0.15493 0.0
H1034 H 0.63719 0.51919 1.00173 0.0
H1035 H 0.48946 0.58811 0.1323 0.0
H1036 H 0.51323 0.43244 0.95968 0.0
N1037 N 0.58423 0.50321 0.01428 0.0
C1038 C 0.5749 0.48772 0.99498 0.0
C1039 C 0.61959 0.51053 0.99941 0.0
C1040 C 0.58746 0.48378 0.97667 0.0
C1041 C 0.60661 0.51365 0.01722 0.0
C1042 C 0.6099 0.49578 0.97889 0.0
N1043 N 0.54135 0.47879 0.01192 0.0
C1044 C 0.52053 0.46549 0.01237 0.0
C1045 C 0.5432 0.45828 0.97449 0.0
C1046 C 0.553 0.47502 0.99391 0.0
C1047 C 0.52135 0.4454 0.97429 0.0
C1048 C 0.51006 0.44887 0.99344 0.0
H1049 H 0.62009 0.4932 0.96525 0.0
H1050 H 0.58689 0.46445 0.94282 0.0
H1051 H 0.54813 0.4422 0.94088 0.0
O1052 O 0.55395 0.47367 0.05481 0.0
O1053 O 0.54723 0.51915 0.00945 0.0
O1054 O 0.52415 0.54288 0.01932 0.0
O1055 O 0.58818 0.49515 0.06114 0.0
O1056 O 0.52541 0.5038 0.05246 0.0
O1057 O 0.51364 0.53713 0.04939 0.0
O1058 O 0.5541 0.59162 0.0271 0.0
O1059 O 0.56722 0.55943 0.08102 0.0
O1060 O 0.55306 0.52173 0.07858 0.0
O1061 O 0.52796 0.59515 0.04794 0.0
O1062 O 0.57119 0.56069 0.03123 0.0
O1063 O 0.58833 0.53884 0.05246 0.0
C1064 C 0.53171 0.53018 0.00372 0.0
C1065 C 0.58269 0.45842 0.07456 0.0
C1066 C 0.57534 0.42564 0.09494 0.0
C1067 C 0.59778 0.42449 0.09504 0.0
C1068 C 0.60513 0.45713 0.07496 0.0
C1069 C 0.61258 0.44016 0.08508 0.0
C1070 C 0.56774 0.44254 0.08458 0.0
C1071 C 0.5102 0.51571 0.05231 0.0
C1072 C 0.57489 0.47599 0.06322 0.0
C1073 C 0.57752 0.46757 0.95706 0.0
C1074 C 0.55546 0.45485 0.95599 0.0
C1075 C 0.5645 0.54094 0.09079 0.0
C1076 C 0.5287 0.61348 0.01419 0.0
C1077 C 0.52958 0.6447 0.99158 0.0
C1078 C 0.50616 0.63753 0.98549 0.0
C1079 C 0.50531 0.60635 0.0075 0.0
C1080 C 0.54087 0.63254 0.00585 0.0
C1081 C 0.49416 0.61837 0.99325 0.0
C1082 C 0.58939 0.55619 0.04113 0.0
C1083 C 0.53998 0.60346 0.03255 0.0
H1084 H 0.60383 0.41145 0.10289 0.0
H1085 H 0.61685 0.46905 0.06719 0.0
H1086 H 0.62986 0.43914 0.08519 0.0
H1087 H 0.55037 0.44337 0.08445 0.0
H1088 H 0.49716 0.6469 0.97483 0.0
H1089 H 0.49556 0.59192 0.01391 0.0
H1090 H 0.55886 0.63845 0.01126 0.0
H1091 H 0.47609 0.61307 0.98858 0.0
Eu1092 Eu 0.79721 0.3152 0.26878 0.0
C1093 C 0.74384 0.2304 0.31792 0.0
N1094 N 0.76345 0.24634 0.32543 0.0
C1095 C 0.754 0.24992 0.36458 0.0
C1096 C 0.72842 0.22399 0.33364 0.0
C1097 C 0.769 0.25549 0.34861 0.0
C1098 C 0.7336 0.23421 0.35707 0.0
C1099 C 0.71923 0.20305 0.28669 0.0
C1100 C 0.73927 0.21985 0.29459 0.0
C1101 C 0.70395 0.19687 0.30236 0.0
C1102 C 0.70852 0.20729 0.32572 0.0
Eu1103 Eu 0.78757 0.25271 0.29656 0.0
N1104 N 0.75431 0.22596 0.2796 0.0
C1105 C 0.7152 0.19275 0.26325 0.0
C1106 C 0.75066 0.21564 0.25692 0.0
C1107 C 0.73101 0.19906 0.24832 0.0
H1108 H 0.78518 0.26666 0.35529 0.0
H1109 H 0.72816 0.19105 0.23025 0.0
H1110 H 0.79794 0.30124 0.20951 0.0
H1111 H 0.8575 0.37738 0.33328 0.0
H1112 H 0.76289 0.22003 0.24549 0.0
H1113 H 0.70003 0.17979 0.25658 0.0
H1114 H 0.82166 0.34978 0.31832 0.0
H1115 H 0.75841 0.25743 0.38284 0.0
H1116 H 0.68857 0.18392 0.2966 0.0
H1117 H 0.69661 0.20214 0.33763 0.0
H1118 H 0.82453 0.30912 0.18154 0.0
H1119 H 0.72218 0.22972 0.36963 0.0
H1120 H 0.88649 0.38557 0.30718 0.0
N1121 N 0.82103 0.31959 0.23943 0.0
C1122 C 0.84127 0.33468 0.24683 0.0
C1123 C 0.82959 0.31606 0.19991 0.0
C1124 C 0.85664 0.3404 0.23087 0.0
C1125 C 0.81471 0.31112 0.21612 0.0
C1126 C 0.85071 0.33055 0.20734 0.0
N1127 N 0.83129 0.34044 0.28541 0.0
C1128 C 0.83466 0.35227 0.30741 0.0
C1129 C 0.86679 0.36186 0.27766 0.0
C1130 C 0.84635 0.34556 0.27014 0.0
C1131 C 0.87101 0.37294 0.30081 0.0
C1132 C 0.85476 0.36829 0.31566 0.0
H1133 H 0.86203 0.33463 0.19458 0.0
H1134 H 0.88902 0.36086 0.22648 0.0
H1135 H 0.89791 0.37948 0.26734 0.0
O1136 O 0.78344 0.34346 0.2821 0.0
O1137 O 0.82986 0.30685 0.28692 0.0
O1138 O 0.8243 0.27334 0.30349 0.0
O1139 O 0.79187 0.33994 0.24678 0.0
O1140 O 0.78252 0.30232 0.29947 0.0
O1141 O 0.79832 0.28294 0.32372 0.0
O1142 O 0.79818 0.22217 0.28341 0.0
O1143 O 0.75489 0.2612 0.27945 0.0
O1144 O 0.75979 0.29486 0.26258 0.0
O1145 O 0.80284 0.23487 0.32093 0.0
O1146 O 0.80211 0.26692 0.26618 0.0
O1147 O 0.78535 0.28513 0.24144 0.0
C1148 C 0.8375 0.29194 0.29856 0.0
C1149 C 0.76354 0.35892 0.25252 0.0
C1150 C 0.74079 0.38632 0.25554 0.0
C1151 C 0.73153 0.37932 0.23182 0.0
C1152 C 0.75367 0.35183 0.2289 0.0
C1153 C 0.73781 0.36203 0.21867 0.0
C1154 C 0.75668 0.37593 0.26591 0.0
C1155 C 0.79459 0.30198 0.31918 0.0
C1156 C 0.7832 0.35123 0.26203 0.0
C1157 C 0.87711 0.35632 0.23856 0.0
C1158 C 0.88217 0.36698 0.26184 0.0
C1159 C 0.74694 0.27609 0.26808 0.0
C1160 C 0.80929 0.19878 0.31148 0.0
C1161 C 0.83214 0.17143 0.31137 0.0
C1162 C 0.8226 0.16345 0.33069 0.0
C1163 C 0.79982 0.19048 0.33065 0.0
C1164 C 0.82514 0.18894 0.30161 0.0
C1165 C 0.80646 0.17284 0.34014 0.0
C1166 C 0.79047 0.26661 0.24593 0.0
C1167 C 0.80633 0.22017 0.30467 0.0
H1168 H 0.71937 0.38724 0.22347 0.0
H1169 H 0.75872 0.3389 0.21802 0.0
H1170 H 0.73067 0.35681 0.20038 0.0
H1171 H 0.76445 0.38181 0.28398 0.0
H1172 H 0.82754 0.1498 0.33842 0.0
H1173 H 0.7879 0.19816 0.3388 0.0
H1174 H 0.83291 0.19571 0.2872 0.0
H1175 H 0.79939 0.1667 0.35513 0.0
Eu1176 Eu 0.03556 0.56264 0.52069 0.0
C1177 C 0.07814 0.51453 0.61344 0.0
N1178 N 0.06142 0.50478 0.59544 0.0
C1179 C 0.07498 0.47131 0.59206 0.0
C1180 C 0.09471 0.50335 0.62068 0.0
C1181 C 0.05915 0.48322 0.58531 0.0
C1182 C 0.09306 0.48155 0.60957 0.0
C1183 C 0.09639 0.54681 0.64269 0.0
C1184 C 0.07885 0.53592 0.62444 0.0
C1185 C 0.11325 0.53596 0.64955 0.0
C1186 C 0.11239 0.51427 0.63861 0.0
Eu1187 Eu 0.03755 0.5272 0.58235 0.0
N1188 N 0.06291 0.54645 0.6165 0.0
C1189 C 0.09663 0.5684 0.65329 0.0
C1190 C 0.06248 0.56705 0.62764 0.0
C1191 C 0.07941 0.5784 0.64597 0.0
H1192 H 0.0449 0.47515 0.57228 0.0
H1193 H 0.0792 0.59493 0.65437 0.0
H1194 H 0.02588 0.61271 0.5368 0.0
H1195 H 0.9817 0.48983 0.46082 0.0
H1196 H 0.04922 0.57497 0.62267 0.0
H1197 H 0.10987 0.57738 0.66729 0.0
H1198 H 0.01372 0.50952 0.49008 0.0
H1199 H 0.07324 0.45427 0.58374 0.0
H1200 H 0.12701 0.54418 0.66333 0.0
H1201 H 0.12545 0.50607 0.64416 0.0
H1202 H 0.99833 0.63459 0.52574 0.0
H1203 H 0.10546 0.47239 0.61461 0.0
H1204 H 0.95372 0.50984 0.44621 0.0
N1205 N 1.00935 0.58397 0.51205 0.0
C1206 C 0.99188 0.57441 0.49474 0.0
C1207 C 0.99631 0.61768 0.51692 0.0
C1208 C 0.9757 0.58622 0.48799 0.0
C1209 C 1.01181 0.60524 0.52321 0.0
C1210 C 0.97821 0.60816 0.49919 0.0
N1211 N 1.00489 0.54104 0.49244 0.0
C1212 C 1.00212 0.51884 0.48402 0.0
C1213 C 0.97068 0.54144 0.46784 0.0
C1214 C 0.98953 0.5523 0.48468 0.0
C1215 C 0.96802 0.5188 0.45906 0.0
C1216 C 0.98375 0.50744 0.46729 0.0
H1217 H 0.96615 0.61779 0.49447 0.0
H1218 H 0.94477 0.58448 0.46524 0.0
H1219 H 0.9403 0.54524 0.44772 0.0
O1220 O 0.0556 0.56258 0.492 0.0
O1221 O 1.00207 0.55183 0.53262 0.0
O1222 O 0.01828 0.52751 0.54774 0.0
O1223 O 0.05431 0.59457 0.51202 0.0
O1224 O 0.04669 0.52919 0.51548 0.0
O1225 O 0.04076 0.50722 0.54665 0.0
O1226 O 1.00998 0.52768 0.60252 0.0
O1227 O 0.07308 0.54443 0.58016 0.0
O1228 O 0.054 0.5542 0.55172 0.0
O1229 O 0.01701 0.49592 0.59015 0.0
O1230 O 0.02829 0.56174 0.58501 0.0
O1231 O 0.04338 0.58417 0.55719 0.0
C1232 C 1.00096 0.536 0.54566 0.0
C1233 C 0.07686 0.59665 0.48015 0.0
C1234 C 0.09678 0.59642 0.44631 0.0
C1235 C 0.10358 0.62 0.45061 0.0
C1236 C 0.0835 0.62024 0.48407 0.0
C1237 C 0.09705 0.63181 0.4695 0.0
C1238 C 0.08373 0.58479 0.46133 0.0
C1239 C 0.04598 0.5103 0.52508 0.0
C1240 C 0.06193 0.58446 0.49487 0.0
C1241 C 0.95733 0.57565 0.4707 0.0
C1242 C 0.9548 0.55331 0.4607 0.0
C1243 C 0.07379 0.55523 0.56249 0.0
C1244 C 1.0032 0.49938 0.62659 0.0
C1245 C 0.98924 0.50488 0.66374 0.0
C1246 C 0.99871 0.48792 0.67156 0.0
C1247 C 1.01246 0.48221 0.63439 0.0
C1248 C 0.99135 0.51044 0.64128 0.0
C1249 C 1.01014 0.47652 0.65682 0.0
C1250 C 0.03421 0.58128 0.57677 0.0
C1251 C 1.00557 0.50613 0.60333 0.0
H1252 H 0.11391 0.62924 0.43929 0.0
H1253 H 0.07818 0.62976 0.49833 0.0
H1254 H 0.10227 0.64998 0.47268 0.0
H1255 H 0.07835 0.56659 0.45785 0.0
H1256 H 0.9968 0.4832 0.68883 0.0
H1257 H 0.02147 0.47321 0.62327 0.0
H1258 H 0.98384 0.52347 0.6353 0.0
H1259 H 0.01715 0.46322 0.66275 0.0
Eu1260 Eu 0.81924 0.77301 0.29665 0.0
C1261 C 0.73854 0.80348 0.24131 0.0
N1262 N 0.75265 0.81468 0.26091 0.0
C1263 C 0.7565 0.84926 0.24482 0.0
C1264 C 0.73314 0.81478 0.22243 0.0
C1265 C 0.76132 0.83732 0.26312 0.0
C1266 C 0.74245 0.83792 0.22432 0.0
C1267 C 0.71461 0.76844 0.22023 0.0
C1268 C 0.72948 0.7806 0.24016 0.0
C1269 C 0.70938 0.77957 0.20125 0.0
C1270 C 0.71864 0.80267 0.20234 0.0
Eu1271 Eu 0.76131 0.79279 0.29001 0.0
N1272 N 0.73533 0.7702 0.25855 0.0
C1273 C 0.70531 0.7455 0.2201 0.0
C1274 C 0.72533 0.74826 0.25912 0.0
C1275 C 0.71046 0.73545 0.23979 0.0
H1276 H 0.77182 0.84628 0.27906 0.0
H1277 H 0.7028 0.7179 0.2402 0.0
H1278 H 0.80637 0.71955 0.30835 0.0
H1279 H 0.87348 0.84919 0.34893 0.0
H1280 H 0.7284 0.7408 0.27468 0.0
H1281 H 0.69377 0.73556 0.20515 0.0
H1282 H 0.84755 0.82694 0.31461 0.0
H1283 H 0.76356 0.8672 0.24657 0.0
H1284 H 0.69806 0.7705 0.18574 0.0
H1285 H 0.71435 0.81105 0.18762 0.0
H1286 H 0.81543 0.69869 0.34054 0.0
H1287 H 0.73875 0.84722 0.21019 0.0
H1288 H 0.88431 0.83065 0.38263 0.0
N1289 N 0.82563 0.75125 0.32637 0.0
C1290 C 0.84005 0.76258 0.34578 0.0
C1291 C 0.82235 0.71666 0.34228 0.0
C1292 C 0.84611 0.75116 0.36432 0.0
C1293 C 0.81697 0.72859 0.32422 0.0
C1294 C 0.83697 0.72797 0.3624 0.0
N1295 N 0.84229 0.79657 0.32932 0.0
C1296 C 0.85136 0.81888 0.32951 0.0
C1297 C 0.86387 0.79775 0.36704 0.0
C1298 C 0.84877 0.78575 0.34719 0.0
C1299 C 0.87256 0.82087 0.36774 0.0
C1300 C 0.86639 0.83144 0.34882 0.0
H1301 H 0.84124 0.71861 0.37628 0.0
H1302 H 0.86604 0.75461 0.39844 0.0
H1303 H 0.88163 0.79528 0.40077 0.0
O1304 O 0.84877 0.78458 0.27916 0.0
O1305 O 0.80447 0.78252 0.33005 0.0
O1306 O 0.78791 0.8104 0.32061 0.0
O1307 O 0.84275 0.7522 0.29143 0.0
O1308 O 0.81773 0.80321 0.27802 0.0
O1309 O 0.79323 0.82068 0.29539 0.0
O1310 O 0.73296 0.78149 0.30989 0.0
O1311 O 0.77396 0.78166 0.2554 0.0
O1312 O 0.79591 0.75663 0.26292 0.0
O1313 O 0.7433 0.81623 0.30435 0.0
O1314 O 0.76394 0.76134 0.30635 0.0
O1315 O 0.78806 0.74456 0.28734 0.0
C1316 C 0.79657 0.80002 0.33641 0.0
C1317 C 0.86507 0.75667 0.26067 0.0
C1318 C 0.89541 0.75967 0.23658 0.0
C1319 C 0.88749 0.73667 0.22791 0.0
C1320 C 0.85726 0.73377 0.25139 0.0
C1321 C 0.86845 0.7239 0.23513 0.0
C1322 C 0.88399 0.76971 0.25284 0.0
C1323 C 0.81078 0.8213 0.28427 0.0
C1324 C 0.85564 0.76624 0.28067 0.0
C1325 C 0.86112 0.76314 0.38409 0.0
C1326 C 0.86999 0.78633 0.38543 0.0
C1327 C 0.78423 0.76599 0.2482 0.0
C1328 C 0.7072 0.80559 0.31699 0.0
C1329 C 0.67527 0.80232 0.33945 0.0
C1330 C 0.66934 0.82004 0.32909 0.0
C1331 C 0.70033 0.82295 0.30667 0.0
C1332 C 0.69426 0.79495 0.33324 0.0
C1333 C 0.68164 0.83011 0.31276 0.0
C1334 C 0.76988 0.74339 0.2974 0.0
C1335 C 0.72975 0.80167 0.314 0.0
H1336 H 0.89607 0.72856 0.21547 0.0
H1337 H 0.84289 0.72329 0.25718 0.0
H1338 H 0.86257 0.70617 0.22839 0.0
H1339 H 0.89039 0.78729 0.26016 0.0
H1340 H 0.65503 0.82616 0.33368 0.0
H1341 H 0.70989 0.83167 0.29446 0.0
H1342 H 0.69951 0.78186 0.34176 0.0
H1343 H 0.67689 0.84386 0.3051 0.0
Eu1344 Eu 0.77715 0.29572 0.82077 0.0
C1345 C 0.82422 0.25196 0.72932 0.0
N1346 N 0.83482 0.26929 0.74646 0.0
C1347 C 0.86782 0.25497 0.74943 0.0
C1348 C 0.83476 0.23476 0.72239 0.0
C1349 C 0.85639 0.27119 0.75637 0.0
C1350 C 0.85688 0.23654 0.73256 0.0
C1351 C 0.79038 0.23235 0.70276 0.0
C1352 C 0.80238 0.25094 0.71938 0.0
C1353 C 0.8006 0.21487 0.69635 0.0
C1354 C 0.8228 0.21617 0.70598 0.0
Eu1355 Eu 0.81331 0.29393 0.75991 0.0
N1356 N 0.79259 0.26768 0.72677 0.0
C1357 C 0.76838 0.23176 0.69321 0.0
C1358 C 0.7719 0.26809 0.71577 0.0
C1359 C 0.7593 0.24996 0.69936 0.0
H1360 H 0.86472 0.28512 0.76983 0.0
H1361 H 0.74261 0.25009 0.6914 0.0
H1362 H 0.72705 0.30372 0.80069 0.0
H1363 H 0.83788 0.34239 0.89583 0.0
H1364 H 0.76485 0.2823 0.71913 0.0
H1365 H 0.75849 0.21764 0.68065 0.0
H1366 H 0.81821 0.30924 0.86689 0.0
H1367 H 0.88491 0.25648 0.7574 0.0
H1368 H 0.79153 0.20033 0.68386 0.0
H1369 H 0.8305 0.20261 0.70075 0.0
H1370 H 0.70482 0.33199 0.80692 0.0
H1371 H 0.86561 0.22374 0.72761 0.0
H1372 H 0.82194 0.37578 0.89984 0.0
N1373 N 0.75498 0.32208 0.82558 0.0
C1374 C 0.76356 0.3405 0.84202 0.0
C1375 C 0.72142 0.33469 0.81674 0.0
C1376 C 0.75167 0.35721 0.84595 0.0
C1377 C 0.73407 0.31876 0.81318 0.0
C1378 C 0.73032 0.35408 0.83307 0.0
N1379 N 0.79458 0.3253 0.85158 0.0
C1380 C 0.81261 0.32448 0.86701 0.0
C1381 C 0.79379 0.36115 0.87241 0.0
C1382 C 0.78429 0.3424 0.85505 0.0
C1383 C 0.81398 0.36162 0.88641 0.0
C1384 C 0.82313 0.34291 0.88408 0.0
H1385 H 0.72051 0.3664 0.83577 0.0
H1386 H 0.75255 0.38939 0.86593 0.0
H1387 H 0.78956 0.39293 0.88897 0.0
O1388 O 0.77721 0.27701 0.85033 0.0
O1389 O 0.78474 0.32765 0.80585 0.0
O1390 O 0.81358 0.31643 0.79316 0.0
O1391 O 0.74552 0.27446 0.82745 0.0
O1392 O 0.81389 0.29044 0.82776 0.0
O1393 O 0.83478 0.29245 0.79535 0.0
O1394 O 0.81237 0.32036 0.7383 0.0
O1395 O 0.79944 0.25846 0.76548 0.0
O1396 O 0.79096 0.27912 0.79326 0.0
O1397 O 0.84435 0.31412 0.75117 0.0
O1398 O 0.77773 0.30111 0.7569 0.0
O1399 O 0.75565 0.28468 0.78412 0.0
C1400 C 0.80139 0.33104 0.79381 0.0
C1401 C 0.74359 0.25477 0.86134 0.0
C1402 C 0.74599 0.23368 0.89382 0.0
C1403 C 0.72386 0.23405 0.8969 0.0
C1404 C 0.72132 0.25487 0.86418 0.0
C1405 C 0.71154 0.24457 0.88201 0.0
C1406 C 0.75582 0.24397 0.8761 0.0
C1407 C 0.83263 0.29017 0.81786 0.0
C1408 C 0.75546 0.26962 0.84659 0.0
C1409 C 0.76136 0.37628 0.86273 0.0
C1410 C 0.78245 0.37832 0.87582 0.0
C1411 C 0.78936 0.259 0.78356 0.0
C1412 C 0.84144 0.32907 0.71522 0.0
C1413 C 0.83601 0.34326 0.67808 0.0
C1414 C 0.85578 0.33779 0.67225 0.0
C1415 C 0.86136 0.32393 0.70935 0.0
C1416 C 0.82902 0.33905 0.69961 0.0
C1417 C 0.86844 0.32829 0.68791 0.0
C1418 C 0.75805 0.2939 0.76448 0.0
C1419 C 0.83399 0.32542 0.73796 0.0
H1420 H 0.71627 0.22642 0.91094 0.0
H1421 H 0.71193 0.26385 0.85343 0.0
H1422 H 0.69459 0.24516 0.88463 0.0
H1423 H 0.77315 0.2441 0.87431 0.0
H1424 H 0.86163 0.34129 0.65578 0.0
H1425 H 0.87153 0.31669 0.72132 0.0
H1426 H 0.81387 0.34353 0.70416 0.0
H1427 H 0.88385 0.32443 0.68349 0.0
Eu1428 Eu 0.77242 0.75804 0.77104 0.0
C1429 C 0.85021 0.83676 0.82829 0.0
N1430 N 0.83066 0.82421 0.8335 0.0
C1431 C 0.84682 0.82804 0.87386 0.0
C1432 C 0.86873 0.84583 0.84604 0.0
C1433 C 0.82873 0.81972 0.85587 0.0
C1434 C 0.86684 0.84128 0.86898 0.0
C1435 C 0.8714 0.8549 0.79977 0.0
C1436 C 0.85153 0.84127 0.80527 0.0
C1437 C 0.88969 0.86412 0.81753 0.0
C1438 C 0.88836 0.85962 0.84056 0.0
Eu1439 Eu 0.80002 0.81741 0.80328 0.0
N1440 N 0.83328 0.83289 0.78847 0.0
C1441 C 0.87213 0.85942 0.77667 0.0
C1442 C 0.83381 0.83774 0.7661 0.0
C1443 C 0.85327 0.85071 0.75975 0.0
H1444 H 0.81293 0.81088 0.86031 0.0
H1445 H 0.85346 0.85456 0.74196 0.0
H1446 H 0.75997 0.76331 0.71354 0.0
H1447 H 0.7194 0.71485 0.82927 0.0
H1448 H 0.81913 0.83256 0.75331 0.0
H1449 H 0.88703 0.86994 0.77182 0.0
H1450 H 0.7541 0.73693 0.81827 0.0
H1451 H 0.84508 0.82479 0.89163 0.0
H1452 H 0.90491 0.87492 0.81366 0.0
H1453 H 0.90258 0.86702 0.85408 0.0
H1454 H 0.72788 0.75073 0.68204 0.0
H1455 H 0.88064 0.84813 0.88311 0.0
H1456 H 0.6852 0.70195 0.79982 0.0
N1457 N 0.7419 0.74995 0.74005 0.0
C1458 C 0.72221 0.73729 0.74477 0.0
C1459 C 0.72596 0.74711 0.69967 0.0
C1460 C 0.70357 0.72908 0.72693 0.0
C1461 C 0.74405 0.7547 0.71779 0.0
C1462 C 0.70563 0.73426 0.70424 0.0
N1463 N 0.73929 0.73917 0.78404 0.0
C1464 C 0.73906 0.73277 0.80581 0.0
C1465 C 0.70086 0.71808 0.77249 0.0
C1466 C 0.72089 0.7317 0.76731 0.0
C1467 C 0.70024 0.71241 0.79519 0.0
C1468 C 0.71947 0.71973 0.81189 0.0
H1469 H 0.69177 0.72808 0.69005 0.0
H1470 H 0.66928 0.70892 0.71854 0.0
H1471 H 0.66687 0.69944 0.75842 0.0
O1472 O 0.78406 0.72855 0.77968 0.0
O1473 O 0.7453 0.77659 0.78304 0.0
O1474 O 0.76351 0.8072 0.81086 0.0
O1475 O 0.76973 0.73006 0.74354 0.0
O1476 O 0.79081 0.76115 0.80845 0.0
O1477 O 0.78454 0.79333 0.82695 0.0
O1478 O 0.79715 0.8502 0.795 0.0
O1479 O 0.82521 0.79525 0.7954 0.0
O1480 O 0.80766 0.77292 0.76114 0.0
O1481 O 0.80372 0.84518 0.8313 0.0
O1482 O 0.78022 0.81529 0.76674 0.0
O1483 O 0.78591 0.78318 0.74784 0.0
C1484 C 0.74473 0.79332 0.79955 0.0
C1485 C 0.78184 0.69652 0.74999 0.0
C1486 C 0.80114 0.66716 0.75605 0.0
C1487 C 0.7914 0.65584 0.73352 0.0
C1488 C 0.77207 0.6851 0.72752 0.0
C1489 C 0.77682 0.66477 0.71938 0.0
C1490 C 0.79615 0.68737 0.76426 0.0
C1491 C 0.78763 0.77311 0.82749 0.0
C1492 C 0.77863 0.71875 0.7579 0.0
C1493 C 0.68366 0.71551 0.73208 0.0
C1494 C 0.68229 0.71009 0.7548 0.0
C1495 C 0.82634 0.7825 0.77575 0.0
C1496 C 0.78376 0.87242 0.8234 0.0
C1497 C 0.76123 0.89792 0.8125 0.0
C1498 C 0.75595 0.9007 0.83542 0.0
C1499 C 0.77861 0.87533 0.84647 0.0
C1500 C 0.77505 0.88387 0.80657 0.0
C1501 C 0.76468 0.8894 0.85237 0.0
C1502 C 0.78167 0.8029 0.74724 0.0
C1503 C 0.79944 0.85894 0.81703 0.0
H1504 H 0.79485 0.63999 0.72701 0.0
H1505 H 0.761 0.69198 0.71616 0.0
H1506 H 0.76931 0.656 0.70205 0.0
H1507 H 0.80399 0.69629 0.78149 0.0
H1508 H 0.74573 0.91213 0.84033 0.0
H1509 H 0.78558 0.86705 0.85998 0.0
H1510 H 0.77941 0.88233 0.7889 0.0
H1511 H 0.76098 0.89186 0.87019 0.0
Eu1512 Eu 0.57923 0.55643 0.57181 0.0
C1513 C 0.49667 0.47931 0.51629 0.0
N1514 N 0.50687 0.49892 0.50932 0.0
C1515 C 0.49906 0.48138 0.46909 0.0
C1516 C 0.48764 0.45975 0.49979 0.0
C1517 C 0.50744 0.50033 0.48603 0.0
C1518 C 0.48935 0.46089 0.47602 0.0
C1519 C 0.48164 0.45956 0.54713 0.0
C1520 C 0.49377 0.47922 0.53973 0.0
C1521 C 0.47336 0.43986 0.53092 0.0
C1522 C 0.47635 0.43995 0.50731 0.0
Eu1523 Eu 0.51969 0.53058 0.5389 0.0
N1524 N 0.50138 0.49874 0.5549 0.0
C1525 C 0.47716 0.46057 0.57034 0.0
C1526 C 0.49506 0.50019 0.57673 0.0
C1527 C 0.48355 0.48111 0.58508 0.0
H1528 H 0.51264 0.51649 0.48049 0.0
H1529 H 0.47891 0.48245 0.60258 0.0
H1530 H 0.57288 0.56634 0.62942 0.0
H1531 H 0.61577 0.61538 0.51467 0.0
H1532 H 0.4975 0.51614 0.58724 0.0
H1533 H 0.46776 0.44589 0.57665 0.0
H1534 H 0.59316 0.58003 0.52359 0.0
H1535 H 0.49944 0.48277 0.45065 0.0
H1536 H 0.46398 0.42464 0.53631 0.0
H1537 H 0.46926 0.42481 0.49486 0.0
H1538 H 0.58569 0.59713 0.6624 0.0
H1539 H 0.48243 0.4463 0.4628 0.0
H1540 H 0.63216 0.64701 0.54661 0.0
N1541 N 0.58703 0.5857 0.60413 0.0
C1542 C 0.59975 0.60577 0.60042 0.0
C1543 C 0.58958 0.59984 0.64502 0.0
C1544 C 0.6082 0.62358 0.61913 0.0
C1545 C 0.58189 0.58253 0.62608 0.0
C1546 C 0.60291 0.6204 0.64157 0.0
N1547 N 0.59622 0.59112 0.56012 0.0
C1548 C 0.59999 0.59351 0.53767 0.0
C1549 C 0.61789 0.6291 0.57358 0.0
C1550 C 0.60461 0.60849 0.57788 0.0
C1551 C 0.62201 0.63148 0.5506 0.0
C1552 C 0.61281 0.61367 0.53254 0.0
H1553 H 0.60917 0.63364 0.65638 0.0
H1554 H 0.62876 0.65759 0.62919 0.0
H1555 H 0.63719 0.66242 0.58932 0.0
O1556 O 0.60952 0.54658 0.56337 0.0
O1557 O 0.55847 0.58241 0.56273 0.0
O1558 O 0.53648 0.56453 0.52838 0.0
O1559 O 0.60657 0.55841 0.59989 0.0
O1560 O 0.57921 0.54167 0.53339 0.0
O1561 O 0.54419 0.53962 0.51292 0.0
O1562 O 0.49107 0.54323 0.54947 0.0
O1563 O 0.53954 0.50338 0.54606 0.0
O1564 O 0.56502 0.52002 0.57879 0.0
O1565 O 0.49215 0.53113 0.51261 0.0
O1566 O 0.52401 0.55029 0.57604 0.0
O1567 O 0.55411 0.54056 0.59392 0.0
C1568 C 0.54614 0.58326 0.5427 0.0
C1569 C 0.64074 0.54754 0.59339 0.0
C1570 C 0.67137 0.53105 0.58516 0.0
C1571 C 0.68081 0.53631 0.6089 0.0
C1572 C 0.65018 0.55298 0.61722 0.0
C1573 C 0.67024 0.54742 0.62489 0.0
C1574 C 0.65161 0.53685 0.57741 0.0
C1575 C 0.56564 0.5397 0.51346 0.0
C1576 C 0.61854 0.55069 0.58544 0.0
C1577 C 0.62187 0.64388 0.61496 0.0
C1578 C 0.62669 0.64662 0.59226 0.0
C1579 C 0.55395 0.50174 0.56423 0.0
C1580 C 0.45925 0.54338 0.52028 0.0
C1581 C 0.42952 0.56186 0.52735 0.0
C1582 C 0.41793 0.55191 0.50492 0.0
C1583 C 0.44765 0.53376 0.49784 0.0
C1584 C 0.45011 0.55734 0.53509 0.0
C1585 C 0.42702 0.53798 0.49027 0.0
C1586 C 0.53522 0.54632 0.5951 0.0
C1587 C 0.48112 0.53925 0.52776 0.0
H1588 H 0.69622 0.53178 0.61496 0.0
H1589 H 0.64187 0.56106 0.62995 0.0
H1590 H 0.67741 0.55143 0.64326 0.0
H1591 H 0.6444 0.53235 0.55902 0.0
H1592 H 0.40168 0.55469 0.4988 0.0
H1593 H 0.45448 0.52291 0.48616 0.0
H1594 H 0.45915 0.56501 0.55231 0.0
H1595 H 0.41805 0.53043 0.47303 0.0
Eu1596 Eu 1.01147 0.53841 0.07533 0.0
C1597 C 0.09599 0.58943 0.02759 0.0
N1598 N 0.07955 0.57022 0.01984 0.0
C1599 C 0.07539 0.58088 0.9813 0.0
C1600 C 0.10206 0.60548 0.01243 0.0
C1601 C 0.06981 0.56545 0.99685 0.0
C1602 C 0.0914 0.60106 0.98916 0.0
C1603 C 0.12392 0.61303 0.05901 0.0
C1604 C 0.1071 0.59313 0.05072 0.0
C1605 C 0.12952 0.62912 0.044 0.0
C1606 C 0.11874 0.62531 0.02079 0.0
Eu1607 Eu 0.07336 0.54534 0.04788 0.0
N1608 N 0.10131 0.57744 0.06518 0.0
C1609 C 0.13482 0.6161 0.08214 0.0
C1610 C 0.11288 0.57966 0.08713 0.0
C1611 C 0.12946 0.59922 0.09616 0.0
H1612 H 0.05819 0.54956 0.99003 0.0
H1613 H 0.13836 0.60109 0.11376 0.0
H1614 H 0.03027 0.53584 0.13335 0.0
H1615 H 0.9447 0.48003 0.0138 0.0
H1616 H 0.1099 0.5661 0.09733 0.0
H1617 H 0.14779 0.63118 0.08915 0.0
H1618 H 0.97429 0.51485 0.02731 0.0
H1619 H 0.06754 0.57706 0.96314 0.0
H1620 H 0.14236 0.64451 0.05011 0.0
H1621 H 0.12348 0.63781 0.00937 0.0
H1622 H 0.02313 0.50932 0.16131 0.0
H1623 H 0.09571 0.61292 0.97698 0.0
H1624 H 0.93687 0.45124 0.04019 0.0
N1625 N 1.00853 0.51402 0.10433 0.0
C1626 C 0.99223 0.49445 0.09781 0.0
C1627 C 0.01465 0.50475 0.1434 0.0
C1628 C 0.98718 0.47904 0.11389 0.0
C1629 C 0.01905 0.51963 0.12708 0.0
C1630 C 0.99883 0.48431 0.13675 0.0
N1631 N 0.98417 0.5052 0.06004 0.0
C1632 C 0.9715 0.50212 0.03852 0.0
C1633 C 0.96256 0.47008 0.0685 0.0
C1634 C 0.9797 0.49003 0.0753 0.0
C1635 C 0.95013 0.46637 0.04601 0.0
C1636 C 0.95452 0.48254 0.03103 0.0
H1637 H 0.99526 0.47299 0.1496 0.0
H1638 H 0.96622 0.44721 0.11917 0.0
H1639 H 0.94492 0.43928 0.07946 0.0
O1640 O 0.98115 0.55039 0.06422 0.0
O1641 O 0.01773 0.50495 0.05633 0.0
O1642 O 0.05358 0.50853 0.04499 0.0
O1643 O 0.99274 0.54957 0.10145 0.0
O1644 O 0.02327 0.55165 0.04351 0.0
O1645 O 0.04278 0.53353 0.02115 0.0
O1646 O 0.10338 0.53299 0.05927 0.0
O1647 O 0.06505 0.57921 0.06194 0.0
O1648 O 0.03148 0.57563 0.07839 0.0
O1649 O 0.09109 0.53231 0.02186 0.0
O1650 O 0.06073 0.53306 0.07982 0.0
O1651 O 0.04182 0.55229 0.10153 0.0
C1652 C 0.0336 0.49625 0.04762 0.0
C1653 C 0.95911 0.56226 0.09408 0.0
C1654 C 0.93166 0.58479 0.08993 0.0
C1655 C 0.92533 0.5798 0.11174 0.0
C1656 C 0.95263 0.55762 0.11587 0.0
C1657 C 0.93578 0.56631 0.12457 0.0
C1658 C 0.94847 0.5757 0.08102 0.0
C1659 C 0.02395 0.53865 0.0245 0.0
C1660 C 0.97799 0.55422 0.08614 0.0
C1661 C 0.97025 0.45914 0.10699 0.0
C1662 C 0.95806 0.45464 0.08438 0.0
C1663 C 0.05016 0.58803 0.07239 0.0
C1664 C 0.12389 0.518 0.02943 0.0
C1665 C 0.15287 0.49763 0.03596 0.0
C1666 C 0.15539 0.49655 0.0121 0.0
C1667 C 0.12682 0.5169 0.00558 0.0
C1668 C 0.1372 0.50848 0.04476 0.0
C1669 C 0.14248 0.50624 0.99703 0.0
C1670 C 0.06045 0.54696 0.09833 0.0
C1671 C 0.10586 0.52775 0.03731 0.0
H1672 H 0.91208 0.58613 0.11879 0.0
H1673 H 0.96067 0.54734 0.12627 0.0
H1674 H 0.93084 0.56264 0.14135 0.0
H1675 H 0.95375 0.57964 0.06442 0.0
H1676 H 0.16748 0.48826 0.00517 0.0
H1677 H 0.11682 0.52408 0.99337 0.0
H1678 H 0.13512 0.50908 0.06316 0.0
H1679 H 0.14451 0.50537 0.97864 0.0
C1680 C 0.03746 0.21 0.99043 0.0
C1681 C 0.0174 0.21692 0.99276 0.0
C1682 C 0.04175 0.19013 0.99858 0.0
C1683 C 0.02536 0.17556 0.00889 0.0
C1684 C 1.00491 0.18234 0.01113 0.0
C1685 C 1.00135 0.20279 0.00346 0.0
C1686 C 0.06385 0.18446 0.99553 0.0
C1687 C 0.98644 0.16776 0.02138 0.0
C1688 C 0.02732 0.11224 0.00735 0.0
C1689 C 0.03774 0.11094 0.03008 0.0
C1690 C 0.02334 0.13269 1.00041 0.0
C1691 C 0.02941 0.15314 0.01643 0.0
C1692 C 0.03984 0.15197 0.03946 0.0
C1693 C 0.04403 0.1313 0.04584 0.0
C1694 C 1.01252 0.13234 0.97562 0.0
C1695 C 0.04667 0.17274 0.05755 0.0
H1696 H 0.05 0.22019 0.98187 0.0
H1697 H 0.9855 0.20718 0.00494 0.0
H1698 H 0.07196 0.18117 0.01245 0.0
H1699 H 0.06088 0.16888 0.98277 0.0
H1700 H 0.07565 0.19813 0.98909 0.0
H1701 H 0.97041 0.17303 0.01857 0.0
H1702 H 0.98346 0.14989 0.01352 0.0
H1703 H 0.99158 0.16879 0.04055 0.0
H1704 H 0.02228 0.09707 0.99464 0.0
H1705 H 0.05203 0.13108 0.06344 0.0
H1706 H 0.02379 0.1443 0.96668 0.0
H1707 H 0.99668 0.13792 0.97592 0.0
H1708 H 1.00869 0.11537 0.96509 0.0
H1709 H 0.05993 0.18547 0.05171 0.0
H1710 H 0.05314 0.16916 0.07505 0.0
H1711 H 0.03212 0.18025 0.05931 0.0
C1712 C 0.1493 0.83193 0.17296 0.0
C1713 C 0.13045 0.81367 0.1693 0.0
C1714 C 0.1691 0.83146 0.1876 0.0
C1715 C 0.17048 0.81185 0.19785 0.0
C1716 C 0.15166 0.79311 0.19345 0.0
C1717 C 0.13183 0.79448 0.17978 0.0
C1718 C 0.18846 0.85205 0.19229 0.0
C1719 C 0.1524 0.77143 0.20297 0.0
C1720 C 0.22911 0.80369 0.21705 0.0
C1721 C 0.23029 0.80558 0.24166 0.0
C1722 C 0.20957 0.8049 0.20264 0.0
C1723 C 0.19153 0.81067 0.21298 0.0
C1724 C 0.19336 0.81451 0.23783 0.0
C1725 C 0.21239 0.8114 0.25177 0.0
C1726 C 0.20792 0.79904 0.17634 0.0
C1727 C 0.17528 0.82208 0.24976 0.0
H1728 H 0.14836 0.84677 0.16489 0.0
H1729 H 0.11744 0.78013 0.17674 0.0
H1730 H 0.19483 0.85618 0.21138 0.0
H1731 H 0.20249 0.84873 0.18319 0.0
H1732 H 0.18364 0.86689 0.18604 0.0
H1733 H 0.13816 0.75731 0.19437 0.0
H1734 H 0.16837 0.7667 0.20047 0.0
H1735 H 0.15152 0.77365 0.22209 0.0
H1736 H 0.24316 0.80051 0.20878 0.0
H1737 H 0.2134 0.81402 0.27065 0.0
H1738 H 0.20812 0.81425 0.1678 0.0
H1739 H 0.19184 0.7866 0.16925 0.0
H1740 H 0.22198 0.79189 0.17132 0.0
H1741 H 0.17293 0.83801 0.24388 0.0
H1742 H 0.17938 0.8248 0.26922 0.0
H1743 H 0.15901 0.80945 0.24469 0.0
C1744 C 0.54313 0.86271 0.4924 0.0
C1745 C 0.52361 0.84656 0.49481 0.0
C1746 C 0.54536 0.88627 0.49839 0.0
C1747 C 0.52772 0.89454 0.50727 0.0
C1748 C 0.50791 0.87827 0.50963 0.0
C1749 C 0.50602 0.85481 0.50319 0.0
C1750 C 0.56658 0.90242 0.49468 0.0
C1751 C 0.48826 0.88573 0.51829 0.0
C1752 C 0.54132 0.9543 0.54383 0.0
C1753 C 0.53532 0.96794 0.5275 0.0
C1754 C 0.53902 0.9308 0.5375 0.0
C1755 C 0.53003 0.91997 0.5142 0.0
C1756 C 0.5235 0.9337 0.49774 0.0
C1757 C 0.52649 0.9573 0.50445 0.0
C1758 C 0.54656 0.9175 0.55581 0.0
C1759 C 0.51375 0.92366 0.47272 0.0
H1760 H 0.55649 0.8569 0.48493 0.0
H1761 H 0.4904 0.84286 0.50414 0.0
H1762 H 0.56243 0.91511 0.48393 0.0
H1763 H 0.57568 0.91161 0.5119 0.0
H1764 H 0.57796 0.89374 0.48581 0.0
H1765 H 0.47434 0.8713 0.52003 0.0
H1766 H 0.49374 0.89652 0.5356 0.0
H1767 H 0.48177 0.89601 0.50588 0.0
H1768 H 0.5483 0.96216 0.56165 0.0
H1769 H 0.52182 0.96747 0.49155 0.0
H1770 H 0.56011 0.90999 0.55003 0.0
H1771 H 0.53239 0.90345 0.55782 0.0
H1772 H 0.55289 0.92801 0.5732 0.0
H1773 H 0.52754 0.9211 0.4628 0.0
H1774 H 0.50484 0.93485 0.46379 0.0
H1775 H 0.50187 0.90705 0.47193 0.0
C1776 C 0.4976 0.28084 0.65916 0.0
C1777 C 0.51795 0.29428 0.67123 0.0
C1778 C 0.4782 0.2771 0.67015 0.0
C1779 C 0.47922 0.28754 0.69351 0.0
C1780 C 0.49951 0.30236 0.70512 0.0
C1781 C 0.5188 0.30521 0.69396 0.0
C1782 C 0.45695 0.26105 0.65721 0.0
C1783 C 0.5012 0.31413 0.72981 0.0
C1784 C 0.42247 0.28293 0.71478 0.0
C1785 C 0.42055 0.26352 0.72559 0.0
C1786 C 0.44198 0.29171 0.70512 0.0
C1787 C 0.45988 0.28083 0.70653 0.0
C1788 C 0.45847 0.26207 0.71883 0.0
C1789 C 0.43875 0.25356 0.72804 0.0
C1790 C 0.44294 0.31188 0.69242 0.0
C1791 C 0.47716 0.24999 0.72096 0.0
H1792 H 0.49719 0.27219 0.64166 0.0
H1793 H 0.53473 0.31544 0.70325 0.0
H1794 H 0.45106 0.24743 0.66768 0.0
H1795 H 0.44347 0.27013 0.65475 0.0
H1796 H 0.45934 0.25329 0.6397 0.0
H1797 H 0.51698 0.32754 0.73492 0.0
H1798 H 0.48668 0.32169 0.73155 0.0
H1799 H 0.50081 0.30174 0.74233 0.0
H1800 H 0.40834 0.29061 0.71293 0.0
H1801 H 0.43726 0.23867 0.73664 0.0
H1802 H 0.44009 0.30628 0.67318 0.0
H1803 H 0.45972 0.3238 0.69682 0.0
H1804 H 0.42993 0.32089 0.69675 0.0
H1805 H 0.47707 0.23995 0.70376 0.0
H1806 H 0.47517 0.23845 0.7344 0.0
H1807 H 0.49381 0.26208 0.72563 0.0
C1808 C 0.05468 0.83455 0.6597 0.0
C1809 C 0.03368 0.82135 0.66224 0.0
C1810 C 0.05644 0.85362 0.64841 0.0
C1811 C 0.03665 0.85924 0.63875 0.0
C1812 C 0.01535 0.84628 0.64186 0.0
C1813 C 0.01412 0.82755 0.65391 0.0
C1814 C 0.07954 0.86734 0.64616 0.0
C1815 C 0.99391 0.85147 0.63145 0.0
C1816 C 0.05066 0.91755 0.62141 0.0
C1817 C 0.05549 0.91258 0.59862 0.0
C1818 C 0.04226 0.90018 0.63419 0.0
C1819 C 0.03874 0.8775 0.62381 0.0
C1820 C 0.04151 0.87261 0.59996 0.0
C1821 C 0.05001 0.89026 0.58769 0.0
C1822 C 0.03937 0.90611 0.6595 0.0
C1823 C 0.03791 0.84873 0.58813 0.0
H1824 H 0.06979 0.8298 0.66643 0.0
H1825 H 0.99789 0.81717 0.65582 0.0
H1826 H 0.08178 0.86668 0.62736 0.0
H1827 H 0.08139 0.88522 0.65334 0.0
H1828 H 0.09319 0.86125 0.65557 0.0
H1829 H 0.97894 0.84171 0.63794 0.0
H1830 H 0.99474 0.86966 0.63558 0.0
H1831 H 0.99169 0.84729 0.61203 0.0
H1832 H 0.0551 0.93488 0.62986 0.0
H1833 H 0.0539 0.88653 0.57008 0.0
H1834 H 0.05405 0.9039 0.67113 0.0
H1835 H 0.02412 0.89484 0.66387 0.0
H1836 H 0.0382 0.92381 0.66341 0.0
H1837 H 0.05252 0.84209 0.59418 0.0
H1838 H 0.03627 0.84768 0.5687 0.0
H1839 H 0.02267 0.83772 0.59284 0.0
C1840 C 0.46863 0.82794 0.84536 0.0
C1841 C 0.48198 0.81727 0.83197 0.0
C1842 C 0.44506 0.82475 0.83841 0.0
C1843 C 0.43384 0.81019 0.81751 0.0
C1844 C 0.44727 0.79919 0.80404 0.0
C1845 C 0.47091 0.80297 0.81123 0.0
C1846 C 0.43211 0.83716 0.8535 0.0
C1847 C 0.43666 0.78354 0.7817 0.0
C1848 C 0.36871 0.78616 0.80979 0.0
C1849 C 0.36016 0.80018 0.79539 0.0
C1850 C 0.39223 0.78923 0.81708 0.0
C1851 C 0.40832 0.80663 0.80975 0.0
C1852 C 0.39977 0.82065 0.79497 0.0
C1853 C 0.37618 0.81737 0.78821 0.0
C1854 C 0.39987 0.77378 0.83288 0.0
C1855 C 0.41558 0.83943 0.78632 0.0
H1856 H 0.47675 0.83912 0.86132 0.0
H1857 H 0.48078 0.79462 0.80056 0.0
H1858 H 0.42365 0.84759 0.84293 0.0
H1859 H 0.41879 0.82496 0.8599 0.0
H1860 H 0.44306 0.84823 0.8689 0.0
H1861 H 0.44855 0.77448 0.77438 0.0
H1862 H 0.4217 0.771 0.78487 0.0
H1863 H 0.43085 0.79332 0.76835 0.0
H1864 H 0.35694 0.77278 0.81569 0.0
H1865 H 0.3703 0.82816 0.77682 0.0
H1866 H 0.409 0.7837 0.84977 0.0
H1867 H 0.41176 0.76537 0.82463 0.0
H1868 H 0.38562 0.76069 0.83665 0.0
H1869 H 0.42338 0.85289 0.80126 0.0
H1870 H 0.40685 0.84686 0.77255 0.0
H1871 H 0.42935 0.8333 0.77909 0.0
C1872 C 0.52542 0.19033 0.13833 0.0
C1873 C 0.52163 0.18948 0.16179 0.0
C1874 C 0.52839 0.17152 0.12399 0.0
C1875 C 0.52742 0.15101 0.13308 0.0
C1876 C 0.52346 0.1499 0.15667 0.0
C1877 C 0.52058 0.16907 0.1707 0.0
C1878 C 0.53268 0.17366 0.09907 0.0
C1879 C 0.5229 0.1286 0.16731 0.0
C1880 C 0.51307 0.09671 0.0893 0.0
C1881 C 0.5343 0.09299 0.08702 0.0
C1882 C 0.51066 0.11551 0.10414 0.0
C1883 C 0.52991 0.13067 0.11759 0.0
C1884 C 0.55145 0.12672 0.1155 0.0
C1885 C 0.55339 0.10819 0.09988 0.0
C1886 C 0.48747 0.11926 0.10532 0.0
C1887 C 0.57248 0.14208 0.1296 0.0
H1888 H 0.52649 0.20595 0.13114 0.0
H1889 H 0.51812 0.16822 0.18886 0.0
H1890 H 0.54841 0.1687 0.09599 0.0
H1891 H 0.51879 0.16209 0.08659 0.0
H1892 H 0.53411 0.19105 0.09498 0.0
H1893 H 0.51849 0.12997 0.18542 0.0
H1894 H 0.51057 0.11422 0.15625 0.0
H1895 H 0.53963 0.12471 0.1679 0.0
H1896 H 0.49833 0.08499 0.07923 0.0
H1897 H 0.56984 0.10526 0.09811 0.0
H1898 H 0.48677 0.13588 0.10015 0.0
H1899 H 0.4837 0.11943 0.12362 0.0
H1900 H 0.47423 0.10608 0.09366 0.0
H1901 H 0.57631 0.15822 0.1224 0.0
H1902 H 0.58723 0.13462 0.12909 0.0
H1903 H 0.57009 0.14595 0.1482 0.0
C1904 C 0.11824 0.28033 0.31694 0.0
C1905 C 0.11511 0.30058 0.32844 0.0
C1906 C 0.13952 0.27805 0.31105 0.0
C1907 C 0.15881 0.29649 0.31631 0.0
C1908 C 0.15577 0.31709 0.3278 0.0
C1909 C 0.13428 0.31882 0.33374 0.0
C1910 C 0.14142 0.25553 0.2995 0.0
C1911 C 0.17515 0.33763 0.3335 0.0
C1912 C 0.21903 0.28554 0.31953 0.0
C1913 C 0.22447 0.28755 0.2967 0.0
C1914 C 0.19802 0.2882 0.32601 0.0
C1915 C 0.18187 0.29403 0.30976 0.0
C1916 C 0.18766 0.29677 0.28692 0.0
C1917 C 0.20834 0.29298 0.28057 0.0
C1918 C 0.19303 0.28453 0.35038 0.0
C1919 C 0.17202 0.30403 0.26911 0.0
H1920 H 0.10397 0.26589 0.31284 0.0
H1921 H 0.13254 0.33463 0.34261 0.0
H1922 H 0.14761 0.25721 0.28237 0.0
H1923 H 0.15387 0.24935 0.31069 0.0
H1924 H 0.12512 0.24274 0.29649 0.0
H1925 H 0.1714 0.35105 0.34576 0.0
H1926 H 0.19059 0.33335 0.34138 0.0
H1927 H 0.17878 0.3444 0.31701 0.0
H1928 H 0.23107 0.2813 0.33228 0.0
H1929 H 0.21217 0.29488 0.26298 0.0
H1930 H 0.17703 0.27161 0.34928 0.0
H1931 H 0.19084 0.30031 0.36001 0.0
H1932 H 0.2066 0.27906 0.36069 0.0
H1933 H 0.15614 0.2908 0.26421 0.0
H1934 H 0.17952 0.30738 0.25291 0.0
H1935 H 0.16766 0.31951 0.27685 0.0
C1936 C 0.96276 0.03959 0.20095 0.0
C1937 C 0.97254 0.02963 0.21879 0.0
C1938 C 0.97291 0.0438 0.18082 0.0
C1939 C 0.99334 0.0377 0.17812 0.0
C1940 C 1.00363 0.02818 0.19633 0.0
C1941 C 0.99322 0.02443 0.21652 0.0
C1942 C 0.96134 0.05415 0.1621 0.0
C1943 C 0.02543 0.02149 0.19423 0.0
C1944 C 1.00553 0.02478 0.11544 0.0
C1945 C 0.01992 0.04497 0.11225 0.0
C1946 C 0.99667 0.02229 0.13663 0.0
C1947 C 1.00312 0.04012 0.15566 0.0
C1948 C 0.01836 0.06033 0.15286 0.0
C1949 C 0.02637 0.06258 0.13113 0.0
C1950 C 0.98021 1.00058 0.13853 0.0
C1951 C 0.02593 0.07971 0.17267 0.0
H1952 H 0.9469 0.04395 0.20257 0.0
H1953 H 1.00091 0.01677 0.23017 0.0
H1954 H 0.97329 0.06874 0.15733 0.0
H1955 H 0.95538 0.04165 0.14599 0.0
H1956 H 0.94671 0.05985 0.1678 0.0
H1957 H 0.03094 0.01365 0.2095 0.0
H1958 H 0.02359 0.00943 0.17797 0.0
H1959 H 0.03879 0.03652 0.19284 0.0
H1960 H 1.0016 0.01066 0.10155 0.0
H1961 H 0.03754 0.07823 0.12885 0.0
H1962 H 0.96354 1.00391 0.14047 0.0
H1963 H 0.98572 0.99356 0.15437 0.0
H1964 H 0.9782 0.98774 0.12284 0.0
H1965 H 1.01164 0.08727 0.17572 0.0
H1966 H 0.03996 0.093 0.16882 0.0
H1967 H 0.03143 0.07375 0.18923 0.0
C1968 C 0.29657 0.69856 0.50154 0.0
C1969 C 0.28537 0.67614 0.50129 0.0
C1970 C 0.29349 0.70932 0.48183 0.0
C1971 C 0.27805 0.69755 0.46201 0.0
C1972 C 0.26791 0.67438 0.46114 0.0
C1973 C 0.27204 0.6638 0.48079 0.0
C1974 C 0.30529 0.73376 0.48305 0.0
C1975 C 0.25119 0.6613 0.44037 0.0
C1976 C 0.24173 0.73041 0.43148 0.0
C1977 C 0.24902 0.7305 0.4094 0.0
C1978 C 0.25127 0.71994 0.44878 0.0
C1979 C 0.26934 0.71022 0.44437 0.0
C1980 C 0.27795 0.71159 0.42285 0.0
C1981 C 0.2674 0.72131 0.40539 0.0
C1982 C 0.24127 0.7184 0.4714 0.0
C1983 C 0.29787 0.70228 0.41805 0.0
H1984 H 0.30688 0.70798 0.51753 0.0
H1985 H 0.26321 0.64648 0.48087 0.0
H1986 H 0.31146 0.73701 0.46619 0.0
H1987 H 0.2933 0.74434 0.48621 0.0
H1988 H 0.3197 0.73908 0.49748 0.0
H1989 H 0.24422 0.64361 0.44289 0.0
H1990 H 0.23705 0.66946 0.43737 0.0
H1991 H 0.25934 0.66121 0.42426 0.0
H1992 H 0.22814 0.73811 0.43513 0.0
H1993 H 0.2732 0.72103 0.38841 0.0
H1994 H 0.25434 0.72602 0.48671 0.0
H1995 H 0.23473 0.70047 0.47326 0.0
H1996 H 0.22731 0.72696 0.47207 0.0
H1997 H 0.31157 0.70788 0.43316 0.0
H1998 H 0.30451 0.70756 0.40196 0.0
H1999 H 0.29291 0.68366 0.41575 0.0
C2000 C 0.66964 0.05665 0.68307 0.0
C2001 C 0.66337 0.04375 0.70071 0.0
C2002 C 0.6539 0.05697 0.66398 0.0
C2003 C 0.63172 0.04403 0.66284 0.0
C2004 C 0.62552 0.03027 0.68006 0.0
C2005 C 0.64163 0.03004 0.69873 0.0
C2006 C 0.66071 0.07175 0.64561 0.0
C2007 C 0.60179 0.0163 0.67909 0.0
C2008 C 0.58435 0.05876 0.62684 0.0
C2009 C 0.5808 0.04237 0.60718 0.0
C2010 C 0.60141 0.05989 0.64516 0.0
C2011 C 0.61491 0.04428 0.64328 0.0
C2012 C 0.61144 0.02781 0.62337 0.0
C2013 C 0.59408 0.02683 0.60558 0.0
C2014 C 0.60471 0.07739 0.66658 0.0
C2015 C 0.6259 0.01114 0.62103 0.0
H2016 H 0.68649 0.06727 0.68468 0.0
H2017 H 0.63687 0.01993 0.71234 0.0
H2018 H 0.65601 0.06185 0.62777 0.0
H2019 H 0.6516 0.08531 0.64608 0.0
H2020 H 0.67905 0.0796 0.64838 0.0
H2021 H 0.59944 1.00806 0.69504 0.0
H2022 H 0.58961 0.02694 0.67719 0.0
H2023 H 0.59761 1.00307 0.66351 0.0
H2024 H 0.57388 0.07067 0.6278 0.0
H2025 H 0.59085 0.01385 0.59048 0.0
H2026 H 0.62215 0.088 0.66952 0.0
H2027 H 0.60221 0.06902 0.6824 0.0
H2028 H 0.59289 0.08846 0.66492 0.0
H2029 H 0.64382 0.02023 0.62248 0.0
H2030 H 0.62116 0.99973 0.60402 0.0
H2031 H 0.62445 1.00079 0.63551 0.0
C2032 C 0.31765 0.3306 0.97079 0.0
C2033 C 0.30862 0.34856 0.97876 0.0
C2034 C 0.31524 0.32223 0.9467 0.0
C2035 C 0.30372 0.33215 0.92982 0.0
C2036 C 0.29416 0.35002 0.93773 0.0
C2037 C 0.2966 0.3579 0.96204 0.0
C2038 C 0.32547 0.303 0.93927 0.0
C2039 C 0.2816 0.36102 0.92047 0.0
C2040 C 0.31927 0.32545 0.86755 0.0
C2041 C 0.30142 0.30807 0.85576 0.0
C2042 C 0.31996 0.33373 0.89145 0.0
C2043 C 0.30246 0.32427 0.90397 0.0
C2044 C 0.28431 0.30671 0.89193 0.0
C2045 C 0.28402 0.29885 0.86799 0.0
C2046 C 0.33952 0.35256 0.90334 0.0
C2047 C 0.26544 0.29585 0.90445 0.0
H2048 H 0.32688 0.32314 0.98344 0.0
H2049 H 0.28952 0.37176 0.96789 0.0
H2050 H 0.31272 0.28931 0.92772 0.0
H2051 H 0.33924 0.30884 0.92898 0.0
H2052 H 0.33239 0.296 0.95454 0.0
H2053 H 0.27647 0.37566 0.92919 0.0
H2054 H 0.29218 0.36673 0.90699 0.0
H2055 H 0.26632 0.34862 0.91115 0.0
H2056 H 0.33274 0.33251 0.85806 0.0
H2057 H 0.27026 0.2853 0.85884 0.0
H2058 H 0.34866 0.34694 0.91825 0.0
H2059 H 0.33328 0.36702 0.91066 0.0
H2060 H 0.35155 0.35837 0.89112 0.0
H2061 H 0.27209 0.28702 0.91826 0.0
H2062 H 0.25183 0.28353 0.89228 0.0
H2063 H 0.25814 0.30881 0.91332 0.0
C2064 C 0.97421 0.03941 0.36833 0.0
C2065 C 0.97766 0.02155 0.353 0.0
C2066 C 0.98124 0.04187 0.3928 0.0
C2067 C 0.99161 0.02589 0.40232 0.0
C2068 C 0.99439 1.00745 0.38698 0.0
C2069 C 0.98768 1.00567 0.36262 0.0
C2070 C 0.97798 0.06182 0.40844 0.0
C2071 C 1.00436 0.98943 0.39636 0.0
C2072 C 0.03235 0.04157 0.45985 0.0
C2073 C 0.01867 0.03347 0.47626 0.0
C2074 C 0.02352 0.03987 0.436 0.0
C2075 C 1.00063 0.02892 0.42806 0.0
C2076 C 0.98687 0.02024 0.44461 0.0
C2077 C 0.99593 0.02312 0.46859 0.0
C2078 C 0.03874 0.04985 0.41926 0.0
C2079 C 0.96258 1.00786 0.43711 0.0
H2080 H 0.96629 0.05164 0.36116 0.0
H2081 H 0.98997 0.99151 0.35108 0.0
H2082 H 0.96899 0.05617 0.42306 0.0
H2083 H 0.99461 0.07279 0.4164 0.0
H2084 H 0.96835 0.07193 0.39868 0.0
H2085 H 1.00459 0.97569 0.38229 0.0
H2086 H 0.02181 0.99685 0.40518 0.0
H2087 H 0.99453 0.98209 0.40973 0.0
H2088 H 0.04992 0.04967 0.46581 0.0
H2089 H 0.98538 0.01671 0.48127 0.0
H2090 H 0.03134 0.06195 0.41018 0.0
H2091 H 0.04031 0.03641 0.40556 0.0
H2092 H 0.05582 0.05869 0.42834 0.0
H2093 H 0.95234 0.02018 0.43419 0.0
H2094 H 0.95584 0.9979 0.45068 0.0
H2095 H 0.96048 0.99637 0.42037 0.0
C2096 C 0.30399 0.6884 0.63073 0.0
C2097 C 0.28502 0.67048 0.62446 0.0
C2098 C 0.30394 0.7062 0.64772 0.0
C2099 C 0.28456 0.70569 0.65867 0.0
C2100 C 0.26517 0.68787 0.65215 0.0
C2101 C 0.26567 0.67027 0.63506 0.0
C2102 C 0.32478 0.72528 0.65437 0.0
C2103 C 0.24408 0.68735 0.66328 0.0
C2104 C 0.30071 0.73551 0.71995 0.0
C2105 C 0.29415 0.75535 0.71774 0.0
C2106 C 0.29579 0.71834 0.70108 0.0
C2107 C 0.28599 0.72222 0.67914 0.0
C2108 C 0.27985 0.74257 0.67659 0.0
C2109 C 0.28346 0.75878 0.69631 0.0
C2110 C 0.30118 0.69613 0.70456 0.0
C2111 C 0.27011 0.74748 0.65316 0.0
H2112 H 0.31875 0.6886 0.62215 0.0
H2113 H 0.25072 0.65671 0.62951 0.0
H2114 H 0.32032 0.74172 0.65448 0.0
H2115 H 0.33276 0.72471 0.67238 0.0
H2116 H 0.33732 0.72443 0.64217 0.0
H2117 H 0.23089 0.67159 0.65696 0.0
H2118 H 0.24798 0.68909 0.68269 0.0
H2119 H 0.23711 0.70175 0.65914 0.0
H2120 H 0.3092 0.73322 0.73652 0.0
H2121 H 0.27762 0.7739 0.69507 0.0
H2122 H 0.31504 0.69374 0.69468 0.0
H2123 H 0.28633 0.68206 0.69761 0.0
H2124 H 0.30624 0.69511 0.72338 0.0
H2125 H 0.28342 0.75015 0.64167 0.0
H2126 H 0.26343 0.76276 0.65499 0.0
H2127 H 0.25647 0.73308 0.64411 0.0
C2128 C 0.64197 0.0697 0.83069 0.0
C2129 C 0.6546 0.0542 0.82519 0.0
C2130 C 0.63351 0.07091 0.85194 0.0
C2131 C 0.63728 0.05572 0.86765 0.0
C2132 C 0.65033 0.04022 0.86236 0.0
C2133 C 0.6591 0.03979 0.84109 0.0
C2134 C 0.62037 0.08833 0.85741 0.0
C2135 C 0.65442 0.02364 0.8786 0.0
C2136 C 0.62427 0.0777 0.92563 0.0
C2137 C 0.60097 0.06952 0.92181 0.0
C2138 C 0.63725 0.07112 0.90918 0.0
C2139 C 0.62639 0.05584 0.88891 0.0
C2140 C 0.60323 0.04531 0.88672 0.0
C2141 C 0.59057 0.05264 0.90315 0.0
C2142 C 0.66188 0.08281 0.91205 0.0
C2143 C 0.59137 0.02839 0.86562 0.0
H2144 H 0.63904 0.08123 0.81853 0.0
H2145 H 0.66907 0.02795 0.83671 0.0
H2146 H 0.60256 0.07988 0.85786 0.0
H2147 H 0.62721 0.09832 0.87495 0.0
H2148 H 0.62079 0.10009 0.84419 0.0
H2149 H 0.6691 0.01691 0.87492 0.0
H2150 H 0.65719 0.03132 0.8973 0.0
H2151 H 0.63936 0.00933 0.87601 0.0
H2152 H 0.63209 0.09049 0.94052 0.0
H2153 H 0.57248 0.04608 0.90078 0.0
H2154 H 0.66399 0.09733 0.90209 0.0
H2155 H 0.67191 0.07145 0.90502 0.0
H2156 H 0.66872 0.08927 0.93078 0.0
H2157 H 0.58753 0.03741 0.85071 0.0
H2158 H 0.5753 0.01793 0.86928 0.0
H2159 H 0.60217 0.01722 0.86006 0.0
C2160 C 0.28098 0.35513 0.12028 0.0
C2161 C 0.30111 0.35579 0.111 0.0
C2162 C 0.27688 0.34533 0.1407 0.0
C2163 C 0.29388 0.33715 0.15295 0.0
C2164 C 0.31455 0.33848 0.14393 0.0
C2165 C 0.31766 0.34723 0.12276 0.0
C2166 C 0.25432 0.34375 0.14898 0.0
C2167 C 0.33362 0.33101 0.15679 0.0
C2168 C 0.28914 0.32849 0.21696 0.0
C2169 C 0.28487 0.30493 0.21554 0.0
C2170 C 0.29276 0.33931 0.197 0.0
C2171 C 0.28982 0.32628 0.17453 0.0
C2172 C 0.28409 0.30257 0.17279 0.0
C2173 C 0.28319 0.29238 0.19331 0.0
C2174 C 0.30072 0.3646 0.20017 0.0
C2175 C 0.27889 0.28785 0.14918 0.0
H2176 H 0.2683 0.36212 0.11139 0.0
H2177 H 0.33346 0.34828 0.11593 0.0
H2178 H 0.24794 0.32707 0.15444 0.0
H2179 H 0.25599 0.35671 0.1644 0.0
H2180 H 0.24163 0.3465 0.13513 0.0
H2181 H 0.34991 0.33805 0.1508 0.0
H2182 H 0.33525 0.33617 0.17604 0.0
H2183 H 0.33029 0.31242 0.15351 0.0
H2184 H 0.29107 0.33864 0.23396 0.0
H2185 H 0.28153 0.27457 0.19164 0.0
H2186 H 0.28744 0.3719 0.19202 0.0
H2187 H 0.31573 0.36964 0.19127 0.0
H2188 H 0.30509 0.37202 0.219 0.0
H2189 H 0.2668 0.29373 0.13718 0.0
H2190 H 0.2716 0.26995 0.15063 0.0
H2191 H 0.29439 0.28892 0.14098 0.0
C2192 C 0.23309 0.96712 0.99527 0.0
C2193 C 0.25258 0.97126 0.01156 0.0
C2194 C 0.21366 0.97236 1.00217 0.0
C2195 C 0.21402 0.98135 0.02585 0.0
C2196 C 0.23322 0.98373 0.04265 0.0
C2197 C 0.25241 0.97893 0.03517 0.0
C2198 C 0.19336 0.96953 0.98395 0.0
C2199 C 0.234 0.99251 0.06831 0.0
C2200 C 0.18819 0.02718 0.0471 0.0
C2201 C 0.17333 0.01584 0.06064 0.0
C2202 C 0.19985 0.01541 0.03307 0.0
C2203 C 0.19631 0.9919 0.03285 0.0
C2204 C 0.17955 0.98014 0.04469 0.0
C2205 C 0.16818 0.99242 0.05869 0.0
C2206 C 0.21785 0.02851 0.02088 0.0
C2207 C 0.17517 0.95501 0.04431 0.0
H2208 H 0.2333 0.9605 0.97714 0.0
H2209 H 0.26733 0.98108 0.04789 0.0
H2210 H 0.1776 0.96331 0.99122 0.0
H2211 H 0.19292 0.98608 0.97844 0.0
H2212 H 0.19385 0.95774 0.96812 0.0
H2213 H 0.24954 0.9913 0.07927 0.0
H2214 H 0.23326 0.01041 0.0702 0.0
H2215 H 0.21932 0.98299 0.07538 0.0
H2216 H 0.19162 0.04535 0.04856 0.0
H2217 H 0.15609 0.9839 0.06893 0.0
H2218 H 0.21767 0.01974 0.00302 0.0
H2219 H 0.23459 0.02994 0.03108 0.0
H2220 H 0.21583 0.04576 0.01945 0.0
H2221 H 0.17215 0.94643 0.02592 0.0
H2222 H 0.16049 0.94831 0.05312 0.0
H2223 H 0.19016 0.95072 0.05331 0.0
C2224 C 0.69326 0.65189 0.02158 0.0
C2225 C 0.71288 0.64421 0.02044 0.0
C2226 C 0.67303 0.63727 0.02455 0.0
C2227 C 0.67236 0.6144 0.0262 0.0
C2228 C 0.69188 0.60638 0.02423 0.0
C2229 C 0.71188 0.62136 0.0214 0.0
C2230 C 0.65263 0.64653 0.02693 0.0
C2231 C 0.6917 0.58202 0.02546 0.0
C2232 C 0.62765 0.58003 0.05651 0.0
C2233 C 0.61124 0.56964 0.03738 0.0
C2234 C 0.64741 0.59516 0.05321 0.0
C2235 C 0.6513 0.59882 0.0301 0.0
C2236 C 0.63514 0.58739 0.01067 0.0
C2237 C 0.61502 0.57335 0.01461 0.0
C2238 C 0.6638 0.60767 0.07444 0.0
C2239 C 0.63895 0.5902 0.98575 0.0
H2240 H 0.69392 0.66953 0.02111 0.0
H2241 H 0.72692 0.61523 0.0205 0.0
H2242 H 0.63789 0.63618 0.01462 0.0
H2243 H 0.64836 0.64581 0.04499 0.0
H2244 H 0.65542 0.66422 0.02346 0.0
H2245 H 0.70837 0.57848 0.02386 0.0
H2246 H 0.68665 0.57729 0.04236 0.0
H2247 H 0.67913 0.57108 0.01119 0.0
H2248 H 0.62446 0.57722 0.07412 0.0
H2249 H 0.60225 0.5651 0.99986 0.0
H2250 H 0.66641 0.62606 0.0744 0.0
H2251 H 0.68036 0.60365 0.07377 0.0
H2252 H 0.65787 0.60349 0.0912 0.0
H2253 H 0.63903 0.60766 0.98277 0.0
H2254 H 0.62577 0.57843 0.97262 0.0
H2255 H 0.65558 0.58735 0.98271 0.0
C2256 C 0.70707 0.49376 0.31867 0.0
C2257 C 0.68529 0.49253 0.30786 0.0
C2258 C 0.71676 0.47535 0.31528 0.0
C2259 C 0.70465 0.45577 0.29994 0.0
C2260 C 0.68211 0.45405 0.29016 0.0
C2261 C 0.6726 0.47245 0.29448 0.0
C2262 C 0.74057 0.47758 0.32658 0.0
C2263 C 0.66872 0.43356 0.27349 0.0
C2264 C 0.73568 0.42525 0.25973 0.0
C2265 C 0.73424 0.40504 0.26891 0.0
C2266 C 0.72703 0.4423 0.27041 0.0
C2267 C 0.71654 0.43896 0.29072 0.0
C2268 C 0.71604 0.41898 0.30075 0.0
C2269 C 0.72506 0.40223 0.28975 0.0
C2270 C 0.72813 0.46343 0.25923 0.0
C2271 C 0.70539 0.41503 0.32261 0.0
H2272 H 0.71686 0.50944 0.3289 0.0
H2273 H 0.65585 0.47175 0.28592 0.0
H2274 H 0.74238 0.46176 0.33308 0.0
H2275 H 0.75214 0.48095 0.31336 0.0
H2276 H 0.74588 0.49158 0.34146 0.0
H2277 H 0.65111 0.43446 0.26823 0.0
H2278 H 0.67678 0.43188 0.25739 0.0
H2279 H 0.6685 0.41815 0.28172 0.0
H2280 H 0.74313 0.42747 0.2438 0.0
H2281 H 0.72409 0.38656 0.29684 0.0
H2282 H 0.73616 0.47848 0.27233 0.0
H2283 H 0.71087 0.46472 0.25298 0.0
H2284 H 0.73772 0.46376 0.24409 0.0
H2285 H 0.71412 0.42841 0.3373 0.0
H2286 H 0.70607 0.39843 0.32795 0.0
H2287 H 0.68757 0.41593 0.3197 0.0
C2288 C 0.87928 0.45712 0.53568 0.0
C2289 C 0.87197 0.45434 0.51151 0.0
C2290 C 0.90025 0.47079 0.54521 0.0
C2291 C 0.9142 0.48116 0.52995 0.0
C2292 C 0.90724 0.47782 0.50535 0.0
C2293 C 0.88574 0.46468 0.49638 0.0
C2294 C 0.90709 0.47483 0.57156 0.0
C2295 C 0.92244 0.48809 0.48866 0.0
C2296 C 0.96105 0.53257 0.54861 0.0
C2297 C 0.97934 0.52282 0.54903 0.0
C2298 C 0.93928 0.51896 0.54414 0.0
C2299 C 0.9363 0.49539 0.53963 0.0
C2300 C 0.95475 0.48552 0.54212 0.0
C2301 C 0.97621 0.4995 0.54735 0.0
C2302 C 0.91967 0.52978 0.54212 0.0
C2303 C 0.952 0.46038 0.53711 0.0
H2304 H 0.86808 0.44956 0.5473 0.0
H2305 H 0.87963 0.4626 0.47775 0.0
H2306 H 0.92302 0.46986 0.57616 0.0
H2307 H 0.91019 0.49303 0.57813 0.0
H2308 H 0.89408 0.46537 0.5809 0.0
H2309 H 0.91424 0.48403 0.47008 0.0
H2310 H 0.92766 0.50664 0.4934 0.0
H2311 H 0.93797 0.48183 0.49011 0.0
H2312 H 0.96378 0.5507 0.55012 0.0
H2313 H 0.99052 0.49204 0.54766 0.0
H2314 H 0.90616 0.52119 0.55142 0.0
H2315 H 0.91255 0.52815 0.52335 0.0
H2316 H 0.92472 0.54794 0.54942 0.0
H2317 H 0.94193 0.45189 0.54966 0.0
H2318 H 0.96839 0.45567 0.53847 0.0
H2319 H 0.94281 0.45379 0.51917 0.0
C2320 C 0.37347 0.0914 0.31126 0.0
C2321 C 0.36029 0.07662 0.32364 0.0
C2322 C 0.36463 0.10724 0.30055 0.0
C2323 C 0.34256 0.10876 0.3034 0.0
C2324 C 0.33007 0.09532 0.31791 0.0
C2325 C 0.33897 0.07888 0.32749 0.0
C2326 C 0.37807 0.12081 0.28451 0.0
C2327 C 0.30669 0.09701 0.32168 0.0
C2328 C 0.32742 0.15948 0.28236 0.0
C2329 C 0.3164 0.15042 0.25962 0.0
C2330 C 0.33514 0.14582 0.29735 0.0
C2331 C 0.3319 0.12274 0.28918 0.0
C2332 C 0.32022 0.11336 0.26647 0.0
C2333 C 0.3126 0.12742 0.25188 0.0
C2334 C 0.34736 0.15618 0.32157 0.0
C2335 C 0.31664 0.08873 0.25714 0.0
H2336 H 0.38979 0.08904 0.30791 0.0
H2337 H 0.32885 0.06705 0.33686 0.0
H2338 H 0.36912 0.11645 0.26623 0.0
H2339 H 0.37981 0.13902 0.28987 0.0
H2340 H 0.39513 0.11775 0.28452 0.0
H2341 H 0.30088 0.08808 0.33632 0.0
H2342 H 0.30607 0.11486 0.32553 0.0
H2343 H 0.29481 0.08944 0.30542 0.0
H2344 H 0.33031 0.17735 0.28826 0.0
H2345 H 0.30366 0.12046 0.23444 0.0
H2346 H 0.36551 0.15678 0.32216 0.0
H2347 H 0.341 0.1458 0.33496 0.0
H2348 H 0.34556 0.17356 0.32643 0.0
H2349 H 0.33281 0.08549 0.25291 0.0
H2350 H 0.30409 0.08352 0.24096 0.0
H2351 H 0.31095 0.078 0.27048 0.0
C2352 C 0.35355 0.15383 0.54998 0.0
C2353 C 0.33592 0.14372 0.53194 0.0
C2354 C 0.37168 0.14407 0.55455 0.0
C2355 C 0.37202 0.12374 0.54069 0.0
C2356 C 0.35465 0.11402 0.52173 0.0
C2357 C 0.3366 0.12409 0.51769 0.0
C2358 C 0.38987 0.1549 0.57496 0.0
C2359 C 0.3545 0.09237 0.50662 0.0
C2360 C 0.42798 0.10806 0.54872 0.0
C2361 C 0.425 0.09493 0.5668 0.0
C2362 C 0.41043 0.11672 0.53906 0.0
C2363 C 0.3895 0.11179 0.5476 0.0
C2364 C 0.38608 0.09722 0.56481 0.0
C2365 C 0.40403 0.08916 0.57442 0.0
C2366 C 0.41475 0.13223 0.52083 0.0
C2367 C 0.36393 0.09128 0.57416 0.0
H2368 H 0.35265 0.16885 0.56115 0.0
H2369 H 0.32264 0.1162 0.50399 0.0
H2370 H 0.39004 0.14339 0.58836 0.0
H2371 H 0.40657 0.15803 0.5689 0.0
H2372 H 0.38748 0.17108 0.58349 0.0
H2373 H 0.34154 0.08866 0.49081 0.0
H2374 H 0.37118 0.09307 0.50092 0.0
H2375 H 0.35098 0.07825 0.51703 0.0
H2376 H 0.44434 0.11244 0.54298 0.0
H2377 H 0.40189 0.07884 0.58837 0.0
H2378 H 0.41628 0.14977 0.52899 0.0
H2379 H 0.40051 0.12799 0.50625 0.0
H2380 H 0.43046 0.1315 0.51345 0.0
H2381 H 0.36191 0.10608 0.58574 0.0
H2382 H 0.36291 0.07704 0.58447 0.0
H2383 H 0.34968 0.08677 0.5596 0.0
C2384 C 0.68285 0.63501 0.32248 0.0
C2385 C 0.69149 0.61582 0.32049 0.0
C2386 C 0.69597 0.65612 0.31982 0.0
C2387 C 0.71833 0.65813 0.31522 0.0
C2388 C 0.72746 0.63904 0.31417 0.0
C2389 C 0.71395 0.61813 0.31681 0.0
C2390 C 0.68548 0.67599 0.32069 0.0
C2391 C 0.75136 0.64063 0.30963 0.0
C2392 C 0.74591 0.70507 0.28315 0.0
C2393 C 0.75763 0.72132 0.3019 0.0
C2394 C 0.7324 0.68472 0.28728 0.0
C2395 C 0.73196 0.67999 0.31066 0.0
C2396 C 0.74472 0.69605 0.32959 0.0
C2397 C 0.75696 0.71684 0.32499 0.0
C2398 C 0.71823 0.66853 0.26669 0.0
C2399 C 0.74534 0.69134 0.35466 0.0
H2400 H 0.66551 0.63343 0.32521 0.0
H2401 H 0.72081 0.60343 0.31523 0.0
H2402 H 0.69652 0.69065 0.33257 0.0
H2403 H 0.68343 0.68098 0.30289 0.0
H2404 H 0.66874 0.67215 0.32673 0.0
H2405 H 0.75605 0.62429 0.30966 0.0
H2406 H 0.75363 0.64636 0.29238 0.0
H2407 H 0.76313 0.65329 0.32323 0.0
H2408 H 0.74657 0.70871 0.26531 0.0
H2409 H 0.76629 0.72948 0.33941 0.0
H2410 H 0.70032 0.66477 0.26938 0.0
H2411 H 0.72339 0.65241 0.26536 0.0
H2412 H 0.71963 0.6753 0.24978 0.0
H2413 H 0.72856 0.69036 0.3602 0.0
H2414 H 0.75793 0.70456 0.367 0.0
H2415 H 0.74937 0.67487 0.3561 0.0
C2416 C 0.86127 0.44784 0.84621 0.0
C2417 C 0.8681 0.46371 0.83155 0.0
C2418 C 0.84859 0.42637 0.83636 0.0
C2419 C 0.84277 0.42146 0.81159 0.0
C2420 C 0.84896 0.43784 0.79696 0.0
C2421 C 0.86166 0.45894 0.80722 0.0
C2422 C 0.84221 0.40879 0.85222 0.0
C2423 C 0.8427 0.43288 0.77053 0.0
C2424 C 0.8338 0.36065 0.78966 0.0
C2425 C 0.81064 0.35364 0.78957 0.0
C2426 C 0.84454 0.38326 0.79553 0.0
C2427 C 0.83147 0.3987 0.80081 0.0
C2428 C 0.80778 0.39198 0.79759 0.0
C2429 C 0.79749 0.36924 0.7916 0.0
C2430 C 0.86992 0.39015 0.79865 0.0
C2431 C 0.79353 0.40826 0.80312 0.0
H2432 H 0.86626 0.45205 0.86506 0.0
H2433 H 0.86678 0.47176 0.7962 0.0
H2434 H 0.82409 0.40023 0.84792 0.0
H2435 H 0.85179 0.39576 0.84941 0.0
H2436 H 0.84581 0.41609 0.8711 0.0
H2437 H 0.84862 0.44782 0.7618 0.0
H2438 H 0.85008 0.41918 0.76339 0.0
H2439 H 0.82419 0.42694 0.76585 0.0
H2440 H 0.84386 0.34843 0.78784 0.0
H2441 H 0.77944 0.36353 0.79099 0.0
H2442 H 0.87654 0.39494 0.81764 0.0
H2443 H 0.87576 0.40502 0.78982 0.0
H2444 H 0.87726 0.37638 0.79154 0.0
H2445 H 0.79518 0.41277 0.82247 0.0
H2446 H 0.77547 0.40092 0.79629 0.0
H2447 H 0.79927 0.424 0.79564 0.0
C2448 C 0.08634 0.88896 0.08296 0.0
C2449 C 0.06865 0.87198 0.08807 0.0
C2450 C 0.08345 0.91057 0.0784 0.0
C2451 C 0.06209 0.91587 0.07814 0.0
C2452 C 0.04412 0.89867 0.08302 0.0
C2453 C 0.04763 0.87744 0.08818 0.0
C2454 C 0.10355 0.92795 0.07418 0.0
C2455 C 0.02088 0.90263 0.08257 0.0
C2456 C 0.05825 0.97897 0.08574 0.0
C2457 C 0.05158 0.98281 0.06266 0.0
C2458 C 0.06137 0.95764 0.09096 0.0
C2459 C 0.05851 0.93912 0.07278 0.0
C2460 C 0.05204 0.94302 0.04942 0.0
C2461 C 0.04841 0.96434 0.04476 0.0
C2462 C 0.06776 0.95496 0.11621 0.0
C2463 C 0.04935 0.92466 0.02903 0.0
H2464 H 0.1028 0.88556 0.08306 0.0
H2465 H 0.03365 0.86487 0.092 0.0
H2466 H 0.09987 0.93422 0.0573 0.0
H2467 H 0.10727 0.94257 0.0883 0.0
H2468 H 0.11878 0.92126 0.0738 0.0
H2469 H 1.00883 0.88837 0.08782 0.0
H2470 H 0.02141 0.91819 0.0945 0.0
H2471 H 0.01452 0.90508 0.06457 0.0
H2472 H 0.06077 0.9927 0.09998 0.0
H2473 H 0.04352 0.96667 0.0268 0.0
H2474 H 0.08454 0.95121 0.1185 0.0
H2475 H 0.0556 0.94054 0.12102 0.0
H2476 H 0.06822 0.97027 0.12856 0.0
H2477 H 0.06593 0.92104 0.0272 0.0
H2478 H 0.04258 0.92934 0.01219 0.0
H2479 H 0.03801 0.90893 0.03228 0.0
C2480 C 0.95141 0.2879 0.89329 0.0
C2481 C 0.94883 0.27236 0.90937 0.0
C2482 C 0.93293 0.29019 0.87766 0.0
C2483 C 0.91114 0.27622 0.87746 0.0
C2484 C 0.90861 0.25999 0.8932 0.0
C2485 C 0.92731 0.25847 0.90909 0.0
C2486 C 0.93666 0.30799 0.86168 0.0
C2487 C 0.88606 0.24417 0.89323 0.0
C2488 C 0.86031 0.29867 0.85565 0.0
C2489 C 0.85284 0.28672 0.83295 0.0
C2490 C 0.87867 0.29498 0.8703 0.0
C2491 C 0.8909 0.27957 0.86192 0.0
C2492 C 0.88397 0.26798 0.83861 0.0
C2493 C 0.8651 0.27162 0.82455 0.0
C2494 C 0.88507 0.30781 0.89485 0.0
C2495 C 0.89659 0.25185 0.82838 0.0
H2496 H 0.96793 0.29869 0.8933 0.0
H2497 H 0.92515 0.24618 0.92114 0.0
H2498 H 0.92989 0.3005 0.84321 0.0
H2499 H 0.92745 0.3209 0.86663 0.0
H2500 H 0.95472 0.31644 0.86265 0.0
H2501 H 0.88652 0.23302 0.90697 0.0
H2502 H 0.87324 0.25382 0.89612 0.0
H2503 H 0.88055 0.23353 0.87583 0.0
H2504 H 0.8524 0.3116 0.86183 0.0
H2505 H 0.8598 0.26244 0.80695 0.0
H2506 H 0.90226 0.31885 0.89673 0.0
H2507 H 0.88529 0.29593 0.90786 0.0
H2508 H 0.87329 0.31834 0.89923 0.0
H2509 H 0.91391 0.26114 0.82693 0.0
H2510 H 0.88834 0.24307 0.81066 0.0
H2511 H 0.89804 0.23911 0.84017 0.0
C2512 C 0.58331 0.22001 0.6102 0.0
C2513 C 0.57163 0.23204 0.596 0.0
C2514 C 0.58048 0.19637 0.60534 0.0
C2515 C 0.56517 0.18354 0.58577 0.0
C2516 C 0.55341 0.19555 0.57111 0.0
C2517 C 0.55679 0.21944 0.57627 0.0
C2518 C 0.59376 0.18504 0.62156 0.0
C2519 C 0.53653 0.18293 0.55037 0.0
C2520 C 0.57216 0.12433 0.56192 0.0
C2521 C 0.55646 0.10929 0.57211 0.0
C2522 C 0.57508 0.14806 0.56615 0.0
C2523 C 0.56173 0.15781 0.58074 0.0
C2524 C 0.54563 0.14277 0.59097 0.0
C2525 C 0.54329 0.11904 0.58666 0.0
C2526 C 0.59266 0.16282 0.5549 0.0
C2527 C 0.53095 0.15169 0.60688 0.0
H2528 H 0.5946 0.22922 0.62569 0.0
H2529 H 0.54707 0.22808 0.56543 0.0
H2530 H 0.5822 0.17184 0.62883 0.0
H2531 H 0.60462 0.17664 0.61158 0.0
H2532 H 0.60452 0.19708 0.63641 0.0
H2533 H 0.52944 0.19438 0.53993 0.0
H2534 H 0.54442 0.17241 0.53873 0.0
H2535 H 0.52256 0.1714 0.55666 0.0
H2536 H 0.58203 0.11759 0.55008 0.0
H2537 H 0.53096 0.10809 0.59477 0.0
H2538 H 0.60564 0.17385 0.56875 0.0
H2539 H 0.58494 0.17388 0.54452 0.0
H2540 H 0.60101 0.15291 0.54315 0.0
H2541 H 0.54102 0.15878 0.62432 0.0
H2542 H 0.51637 0.1383 0.60944 0.0
H2543 H 0.52462 0.16539 0.59974 0.0
C2544 C 0.58276 0.76736 0.42589 0.0
C2545 C 0.56447 0.77492 0.41586 0.0
C2546 C 0.602 0.76784 0.41479 0.0
C2547 C 0.60334 0.77643 0.39317 0.0
C2548 C 0.58457 0.78319 0.38245 0.0
C2549 C 0.56537 0.78222 0.39379 0.0
C2550 C 0.62122 0.75999 0.42683 0.0
C2551 C 0.58503 0.79217 0.35925 0.0
C2552 C 0.65888 0.80726 0.3766 0.0
C2553 C 0.66133 0.79278 0.35707 0.0
C2554 C 0.64089 0.8015 0.38944 0.0
C2555 C 0.62495 0.78057 0.38281 0.0
C2556 C 0.62866 0.76493 0.36462 0.0
C2557 C 0.64675 0.77127 0.35184 0.0
C2558 C 0.63792 0.81866 0.40884 0.0
C2559 C 0.61281 0.74199 0.35783 0.0
H2560 H 0.58231 0.76145 0.44282 0.0
H2561 H 0.55137 0.78791 0.3857 0.0
H2562 H 0.62912 0.75081 0.4139 0.0
H2563 H 0.63427 0.77478 0.43617 0.0
H2564 H 0.61563 0.7489 0.43996 0.0
H2565 H 0.56985 0.79829 0.35405 0.0
H2566 H 0.60012 0.8062 0.36016 0.0
H2567 H 0.58608 0.77873 0.34528 0.0
H2568 H 0.67017 0.82387 0.38076 0.0
H2569 H 0.64853 0.76002 0.33677 0.0
H2570 H 0.63622 0.81116 0.42527 0.0
H2571 H 0.62225 0.82403 0.40389 0.0
H2572 H 0.65223 0.83378 0.41247 0.0
H2573 H 0.61036 0.73362 0.37366 0.0
H2574 H 0.61906 0.73106 0.34489 0.0
H2575 H 0.59612 0.7437 0.35008 0.0
C2576 C 0.04046 0.24515 0.4073 0.0
C2577 C 0.05549 0.26594 0.41582 0.0
C2578 C 0.03952 0.22663 0.41957 0.0
C2579 C 0.0545 0.22862 0.44058 0.0
C2580 C 0.07064 0.24928 0.44855 0.0
C2581 C 0.07062 0.26788 0.43637 0.0
C2582 C 0.02194 0.2051 0.41037 0.0
C2583 C 0.08804 0.25158 0.46976 0.0
C2584 C 0.0302 0.18986 0.48274 0.0
C2585 C 0.03801 0.17067 0.47663 0.0
C2586 C 0.03677 0.20937 0.47231 0.0
C2587 C 0.05149 0.20979 0.45516 0.0
C2588 C 0.06071 0.19096 0.45016 0.0
C2589 C 0.05381 0.17159 0.46093 0.0
C2590 C 0.02663 0.22898 0.47845 0.0
C2591 C 0.07668 0.19045 0.43232 0.0
H2592 H 0.02888 0.24357 0.39131 0.0
H2593 H 0.08266 0.28379 0.44264 0.0
H2594 H 0.03009 0.19097 0.40734 0.0
H2595 H 1.01052 0.20106 0.42361 0.0
H2596 H 1.01172 0.20619 0.39366 0.0
H2597 H 0.09971 0.26856 0.47351 0.0
H2598 H 0.07976 0.2482 0.48547 0.0
H2599 H 0.09798 0.23887 0.46682 0.0
H2600 H 0.01807 0.18921 0.49497 0.0
H2601 H 0.05982 0.15674 0.45606 0.0
H2602 H 0.01555 0.23116 0.46284 0.0
H2603 H 0.04001 0.24474 0.48347 0.0
H2604 H 0.01658 0.22659 0.49314 0.0
H2605 H 0.06693 0.1828 0.41487 0.0
H2606 H 0.0885 0.17994 0.43692 0.0
H2607 H 0.08653 0.20754 0.43081 0.0
C2608 C 0.60761 0.24879 0.25578 0.0
C2609 C 0.5992 0.26103 0.23919 0.0
C2610 C 0.6312 0.24995 0.2609 0.0
C2611 C 0.64728 0.26369 0.24934 0.0
C2612 C 0.63879 0.27607 0.23273 0.0
C2613 C 0.61539 0.27467 0.22805 0.0
C2614 C 0.63896 0.23624 0.27863 0.0
C2615 C 0.65448 0.29046 0.21918 0.0
C2616 C 0.71056 0.287 0.27513 0.0
C2617 C 0.72148 0.27249 0.26307 0.0
C2618 C 0.68675 0.28375 0.27155 0.0
C2619 C 0.67286 0.26588 0.2548 0.0
C2620 C 0.68391 0.25128 0.24232 0.0
C2621 C 0.70775 0.25443 0.24694 0.0
C2622 C 0.6764 0.29968 0.28574 0.0
C2623 C 0.67058 0.23231 0.22381 0.0
H2624 H 0.59574 0.2378 0.26433 0.0
H2625 H 0.60969 0.28421 0.21501 0.0
H2626 H 0.64908 0.22542 0.27073 0.0
H2627 H 0.64999 0.24765 0.29374 0.0
H2628 H 0.62469 0.22543 0.28523 0.0
H2629 H 0.64561 0.29972 0.20743 0.0
H2630 H 0.66792 0.30283 0.23142 0.0
H2631 H 0.66277 0.27969 0.20831 0.0
H2632 H 0.72073 0.30086 0.28783 0.0
H2633 H 0.71574 0.24297 0.23749 0.0
H2634 H 0.66308 0.29006 0.29459 0.0
H2635 H 0.66832 0.30943 0.27393 0.0
H2636 H 0.68899 0.31166 0.29927 0.0
H2637 H 0.66045 0.21911 0.23236 0.0
H2638 H 0.68159 0.22458 0.2133 0.0
H2639 H 0.65874 0.23838 0.21172 0.0
C2640 C 0.56451 0.90516 0.91875 0.0
C2641 C 0.55459 0.88306 0.922 0.0
C2642 C 0.56294 0.92402 0.93443 0.0
C2643 C 0.55042 0.921 0.95351 0.0
C2644 C 0.53991 0.89868 0.95647 0.0
C2645 C 0.54249 0.88013 0.94109 0.0
C2646 C 0.57511 0.94723 0.93082 0.0
C2647 C 0.52551 0.89437 0.97566 0.0
C2648 C 0.56059 0.96771 0.00693 0.0
C2649 C 0.54381 0.97907 1.00139 0.0
C2650 C 0.56301 0.94904 0.99159 0.0
C2651 C 0.54809 0.94105 0.97017 0.0
C2652 C 0.53072 0.95217 0.96489 0.0
C2653 C 0.52887 0.97092 0.98043 0.0
C2654 C 0.58186 0.93807 0.99819 0.0
C2655 C 0.51408 0.94439 0.94268 0.0
H2656 H 0.57405 0.9077 0.90425 0.0
H2657 H 0.53453 0.8632 0.94371 0.0
H2658 H 0.5632 0.95817 0.92922 0.0
H2659 H 0.5879 0.95497 0.94637 0.0
H2660 H 0.58363 0.94698 0.91491 0.0
H2661 H 0.51885 0.87614 0.97609 0.0
H2662 H 0.53528 0.90221 0.99304 0.0
H2663 H 0.51111 0.90224 0.97292 0.0
H2664 H 0.57221 0.97377 0.02308 0.0
H2665 H 0.51534 0.97896 0.97634 0.0
H2666 H 0.59315 0.93916 0.98451 0.0
H2667 H 0.57499 0.91997 0.99897 0.0
H2668 H 0.59194 0.94603 0.01544 0.0
H2669 H 0.52271 0.94823 0.92729 0.0
H2670 H 0.49992 0.95274 0.94255 0.0
H2671 H 0.50717 0.92592 0.94047 0.0
C2672 C 0.95754 0.78304 0.75438 0.0
C2673 C 0.95984 0.76247 0.74273 0.0
C2674 C 0.93624 0.78655 0.75945 0.0
C2675 C 0.91591 0.76944 0.75226 0.0
C2676 C 0.91814 0.74884 0.73991 0.0
C2677 C 0.93971 0.74555 0.73569 0.0
C2678 C 0.93557 0.8087 0.77293 0.0
C2679 C 0.89752 0.73015 0.73077 0.0
C2680 C 0.86365 0.77095 0.78505 0.0
C2681 C 0.84923 0.77936 0.76965 0.0
C2682 C 0.88469 0.76728 0.77944 0.0
C2683 C 0.8927 0.77286 0.75813 0.0
C2684 C 0.87828 0.78172 0.74265 0.0
C2685 C 0.85692 0.78447 0.74833 0.0
C2686 C 0.89832 0.75703 0.79641 0.0
C2687 C 0.88555 0.78867 0.72003 0.0
H2688 H 0.97259 0.79641 0.76005 0.0
H2689 H 0.94077 0.72965 0.72639 0.0
H2690 H 0.92348 0.81633 0.76304 0.0
H2691 H 0.92958 0.80588 0.78997 0.0
H2692 H 0.95231 0.8208 0.77644 0.0
H2693 H 0.90177 0.7147 0.72274 0.0
H2694 H 0.88758 0.72594 0.74518 0.0
H2695 H 0.88663 0.7358 0.7173 0.0
H2696 H 0.85819 0.76666 0.80146 0.0
H2697 H 0.84635 0.79113 0.73616 0.0
H2698 H 0.91511 0.76861 0.80237 0.0
H2699 H 0.90104 0.74119 0.78745 0.0
H2700 H 0.89001 0.75326 0.81205 0.0
H2701 H 0.9006 0.80301 0.72405 0.0
H2702 H 0.87217 0.79381 0.70903 0.0
H2703 H 0.89039 0.77469 0.70971 0.0
C2704 C 0.08387 0.04378 0.87425 0.0
C2705 C 0.1066 0.05076 0.87156 0.0
C2706 C 0.07721 0.04085 0.89651 0.0
C2707 C 0.09352 0.04616 0.91699 0.0
C2708 C 0.11656 0.05325 0.91433 0.0
C2709 C 0.12282 0.05491 0.89167 0.0
C2710 C 0.05257 0.03241 0.89814 0.0
C2711 C 0.13459 0.05983 0.93551 0.0
C2712 C 0.07079 0.0633 0.97348 0.0
C2713 C 0.07029 0.04472 0.98551 0.0
C2714 C 0.07933 0.06438 0.95194 0.0
C2715 C 0.08626 0.04578 0.94111 0.0
C2716 C 0.08542 0.02675 0.95307 0.0
C2717 C 0.07792 0.02666 0.97533 0.0
C2718 C 0.08107 0.08559 0.94086 0.0
C2719 C 0.0915 1.00606 0.94193 0.0
H2720 H 0.07124 0.04047 0.85883 0.0
H2721 H 0.14041 0.06051 0.88979 0.0
H2722 H 0.05008 0.01878 0.90927 0.0
H2723 H 0.04609 0.04624 0.90653 0.0
H2724 H 0.04242 0.02596 0.88058 0.0
H2725 H 0.15135 0.06736 0.93081 0.0
H2726 H 0.13029 0.0721 0.9487 0.0
H2727 H 0.13575 0.04483 0.94399 0.0
H2728 H 0.0649 0.07733 0.98127 0.0
H2729 H 0.07713 0.01207 0.98432 0.0
H2730 H 0.06973 0.08205 0.92389 0.0
H2731 H 0.09846 0.09181 0.93708 0.0
H2732 H 0.07662 0.09914 0.95232 0.0
H2733 H 0.07918 0.99835 0.92601 0.0
H2734 H 0.09153 0.99334 0.95406 0.0
H2735 H 0.10829 0.01054 0.93621 0.0
C2736 C 0.8218 0.41632 0.58423 0.0
C2737 C 0.8007 0.41532 0.57191 0.0
C2738 C 0.82372 0.40498 0.60361 0.0
C2739 C 0.80398 0.39306 0.61118 0.0
C2740 C 0.78257 0.39346 0.59983 0.0
C2741 C 0.78117 0.40424 0.57985 0.0
C2742 C 0.84689 0.4044 0.61482 0.0
C2743 C 0.76128 0.38179 0.60821 0.0
C2744 C 0.81676 0.34435 0.63844 0.0
C2745 C 0.82319 0.35408 0.66193 0.0
C2746 C 0.80813 0.35615 0.62188 0.0
C2747 C 0.80617 0.37823 0.62915 0.0
C2748 C 0.81062 0.38725 0.65326 0.0
C2749 C 0.8191 0.37497 0.6695 0.0
C2750 C 0.80332 0.34582 0.59633 0.0
C2751 C 0.80857 0.41067 0.66167 0.0
H2752 H 0.83687 0.42463 0.57771 0.0
H2753 H 0.76491 0.40363 0.57015 0.0
H2754 H 0.84893 0.4094 0.63411 0.0
H2755 H 0.84908 0.387 0.61165 0.0
H2756 H 0.86046 0.41569 0.6077 0.0
H2757 H 0.74603 0.38469 0.59814 0.0
H2758 H 0.75991 0.36343 0.60653 0.0
H2759 H 0.76175 0.38788 0.6271 0.0
H2760 H 0.81951 0.32794 0.63285 0.0
H2761 H 0.82394 0.38235 0.6878 0.0
H2762 H 0.81699 0.354 0.58697 0.0
H2763 H 0.78736 0.34855 0.58777 0.0
H2764 H 0.80225 0.32748 0.59416 0.0
H2765 H 0.8242 0.42299 0.65975 0.0
H2766 H 0.80627 0.41264 0.68049 0.0
H2767 H 0.79433 0.41489 0.65113 0.0
C2768 C 0.46647 0.05137 0.4013 0.0
C2769 C 0.44348 0.04179 0.3957 0.0
C2770 C 0.47775 0.05018 0.42311 0.0
C2771 C 0.46556 0.03878 0.43925 0.0
C2772 C 0.44207 0.03009 0.43417 0.0
C2773 C 0.43111 0.03198 0.41229 0.0
C2774 C 0.5029 0.05976 0.42817 0.0
C2775 C 0.42891 0.0177 0.45119 0.0
C2776 C 0.50536 0.01706 0.47836 0.0
C2777 C 0.51088 0.03434 0.4973 0.0
C2778 C 0.48858 0.017 0.4601 0.0
C2779 C 0.47801 0.03511 0.46082 0.0
C2780 C 0.48278 0.05194 0.48056 0.0
C2781 C 0.49924 0.05131 0.49874 0.0
C2782 C 0.48329 0.99847 0.4394 0.0
C2783 C 0.47213 0.07171 0.48151 0.0
H2784 H 0.47578 0.05876 0.38814 0.0
H2785 H 0.4133 0.02425 0.40748 0.0
H2786 H 0.50757 0.07067 0.44545 0.0
H2787 H 0.51152 0.04586 0.42899 0.0
H2788 H 0.50933 0.06973 0.41448 0.0
H2789 H 0.41086 0.01096 0.44396 0.0
H2790 H 0.43608 1.00353 0.45571 0.0
H2791 H 0.4302 0.02912 0.46779 0.0
H2792 H 0.51436 1.00387 0.47771 0.0
H2793 H 0.50386 0.06479 0.51346 0.0
H2794 H 0.48993 1.00522 0.42395 0.0
H2795 H 0.46485 0.99194 0.43461 0.0
H2796 H 0.49084 0.98427 0.44309 0.0
H2797 H 0.47927 0.08315 0.46932 0.0
H2798 H 0.47518 0.08142 0.49945 0.0
H2799 H 0.45375 0.06606 0.47574 0.0
C2800 C 0.80167 0.73779 0.11246 0.0
C2801 C 0.78213 0.72437 0.09855 0.0
C2802 C 0.80196 0.74486 0.13666 0.0
C2803 C 0.78234 0.73804 0.14736 0.0
C2804 C 0.76265 0.72431 0.13325 0.0
C2805 C 0.76279 0.71776 0.10912 0.0
C2806 C 0.82344 0.75919 0.15091 0.0
C2807 C 0.74146 0.71617 0.14372 0.0
C2808 C 0.78921 0.73871 0.21428 0.0
C2809 C 0.78276 0.75838 0.22233 0.0
C2810 C 0.78895 0.73181 0.1901 0.0
C2811 C 0.78242 0.74501 0.17328 0.0
C2812 C 0.77572 0.76476 0.18127 0.0
C2813 C 0.77584 0.77111 0.20555 0.0
C2814 C 0.7956 0.71029 0.18257 0.0
C2815 C 0.76883 0.7795 0.16415 0.0
H2816 H 0.81685 0.74236 0.10452 0.0
H2817 H 0.74784 0.70686 0.09854 0.0
H2818 H 0.82019 0.77441 0.16066 0.0
H2819 H 0.82992 0.74965 0.16411 0.0
H2820 H 0.83667 0.7645 0.13978 0.0
H2821 H 0.72831 0.70392 0.13097 0.0
H2822 H 0.74518 0.70812 0.15941 0.0
H2823 H 0.73463 0.73068 0.14957 0.0
H2824 H 0.79448 0.72857 0.22692 0.0
H2825 H 0.77099 0.7864 0.2114 0.0
H2826 H 0.81045 0.7139 0.17322 0.0
H2827 H 0.78174 0.69867 0.17011 0.0
H2828 H 0.7997 0.70161 0.1977 0.0
H2829 H 0.78314 0.78609 0.15481 0.0
H2830 H 0.76342 0.79392 0.17296 0.0
H2831 H 0.75483 0.76953 0.15068 0.0
C2832 C 0.08925 0.05149 0.72778 0.0
C2833 C 0.11137 0.05031 0.73503 0.0
C2834 C 0.08131 0.05126 0.70378 0.0
C2835 C 0.09576 0.04984 0.68649 0.0
C2836 C 0.11813 0.0488 0.69377 0.0
C2837 C 0.12557 0.049 0.71773 0.0
C2838 C 0.05739 0.0525 0.69687 0.0
C2839 C 0.13444 0.04782 0.67629 0.0
C2840 C 0.0693 0.02779 0.62247 0.0
C2841 C 0.07115 0.04764 0.61225 0.0
C2842 C 0.07751 0.02827 0.64636 0.0
C2843 C 0.08747 0.04912 0.6608 0.0
C2844 C 0.08987 0.06916 0.65048 0.0
C2845 C 0.08201 0.06811 0.6264 0.0
C2846 C 0.07567 1.00637 0.65614 0.0
C2847 C 0.10043 0.09184 0.66492 0.0
H2848 H 0.07814 0.05265 0.74084 0.0
H2849 H 0.14282 0.04836 0.72289 0.0
H2850 H 0.05707 0.06679 0.6869 0.0
H2851 H 0.04804 0.03692 0.68511 0.0
H2852 H 0.04853 0.05458 0.71234 0.0
H2853 H 0.15061 0.04509 0.6844 0.0
H2854 H 0.12702 0.03413 0.66146 0.0
H2855 H 0.13802 0.06382 0.66881 0.0
H2856 H 0.06148 0.01174 0.61177 0.0
H2857 H 0.0844 0.08341 0.61869 0.0
H2858 H 0.06568 1.00609 0.67094 0.0
H2859 H 0.09264 1.00483 0.66323 0.0
H2860 H 0.06769 0.99153 0.64268 0.0
H2861 H 0.08912 0.09575 0.67755 0.0
H2862 H 0.10347 0.1055 0.65386 0.0
H2863 H 0.11662 0.09171 0.67531 0.0
C2864 C 0.80816 0.39826 0.42788 0.0
C2865 C 0.79458 0.38674 0.4426 0.0
C2866 C 0.81073 0.38717 0.4063 0.0
C2867 C 0.79892 0.3645 0.39952 0.0
C2868 C 0.78462 0.35314 0.41408 0.0
C2869 C 0.78284 0.36443 0.43571 0.0
C2870 C 0.82659 0.39928 0.39125 0.0
C2871 C 0.7719 0.3288 0.40728 0.0
C2872 C 0.78347 0.33471 0.3382 0.0
C2873 C 0.79767 0.32001 0.33845 0.0
C2874 C 0.78524 0.35106 0.3574 0.0
C2875 C 0.80125 0.35217 0.37723 0.0
C2876 C 0.81655 0.33824 0.37697 0.0
C2877 C 0.81456 0.32222 0.35738 0.0
C2878 C 0.76879 0.36581 0.35724 0.0
C2879 C 0.83419 0.33946 0.39775 0.0
H2880 H 0.81774 0.41541 0.43386 0.0
H2881 H 0.77275 0.35568 0.44756 0.0
H2882 H 0.83993 0.39027 0.38848 0.0
H2883 H 0.81742 0.39939 0.37365 0.0
H2884 H 0.83469 0.4169 0.39927 0.0
H2885 H 0.76076 0.32291 0.42026 0.0
H2886 H 0.76148 0.32642 0.38984 0.0
H2887 H 0.78396 0.318 0.40589 0.0
H2888 H 0.7704 0.33288 0.32343 0.0
H2889 H 0.82582 0.31104 0.35706 0.0
H2890 H 0.77767 0.38362 0.36346 0.0
H2891 H 0.75659 0.36064 0.36946 0.0
H2892 H 0.75931 0.36467 0.33946 0.0
H2893 H 0.84646 0.35604 0.40042 0.0
H2894 H 0.84346 0.3261 0.39526 0.0
H2895 H 0.82641 0.33789 0.41405 0.0
C2896 C 0.44165 0.02409 0.2666 0.0
C2897 C 0.42048 0.02878 0.26564 0.0
C2898 C 0.45027 0.01876 0.24608 0.0
C2899 C 0.43779 0.01916 0.22414 0.0
C2900 C 0.41659 0.02444 0.22306 0.0
C2901 C 0.40788 0.02871 0.24399 0.0
C2902 C 0.47269 0.01253 0.24805 0.0
C2903 C 0.40309 0.02524 0.1999 0.0
C2904 C 0.47843 0.0234 0.18069 0.0
C2905 C 0.47584 1.00058 0.17268 0.0
C2906 C 0.4642 0.03016 0.19571 0.0
C2907 C 0.44722 0.0136 0.20261 0.0
C2908 C 0.44317 0.99081 0.19248 0.0
C2909 C 0.45775 0.98456 0.17769 0.0
C2910 C 0.46865 0.05467 0.20585 0.0
C2911 C 0.42523 0.97246 0.19907 0.0
H2912 H 0.4511 0.02364 0.28346 0.0
H2913 H 0.39135 0.03208 0.24348 0.0
H2914 H 0.47215 0.9976 0.23517 0.0
H2915 H 0.4858 0.02671 0.24427 0.0
H2916 H 0.47788 1.00881 0.2659 0.0
H2917 H 0.38769 0.03119 0.20226 0.0
H2918 H 0.41351 0.03655 0.18961 0.0
H2919 H 0.39806 1.00824 0.1894 0.0
H2920 H 0.4923 0.03576 0.17627 0.0
H2921 H 0.45557 0.96698 0.17081 0.0
H2922 H 0.47844 0.05748 0.22369 0.0
H2923 H 0.45267 0.05967 0.20757 0.0
H2924 H 0.47846 0.06575 0.19488 0.0
H2925 H 0.43303 0.96424 0.21276 0.0
H2926 H 0.41786 0.95939 0.18362 0.0
H2927 H 0.4115 0.9788 0.20603 0.0
C2928 C 0.79192 0.74609 0.96016 0.0
C2929 C 0.78049 0.72419 0.9623 0.0
C2930 C 0.79465 0.75282 0.93791 0.0
C2931 C 0.78486 0.73763 0.91709 0.0
C2932 C 0.77345 0.71535 0.91921 0.0
C2933 C 0.77177 0.70882 0.94174 0.0
C2934 C 0.80764 0.77643 0.93668 0.0
C2935 C 0.76239 0.69859 0.89771 0.0
C2936 C 0.77027 0.76617 0.86394 0.0
C2937 C 0.78692 0.76349 0.85003 0.0
C2938 C 0.76888 0.75697 0.88511 0.0
C2939 C 0.7852 0.74567 0.89337 0.0
C2940 C 0.80212 0.74296 0.87931 0.0
C2941 C 0.80251 0.75152 0.85765 0.0
C2942 C 0.74975 0.7592 0.89857 0.0
C2943 C 0.82033 0.73176 0.8875 0.0
H2944 H 0.79872 0.75802 0.97597 0.0
H2945 H 0.76281 0.69189 0.94329 0.0
H2946 H 0.82009 0.77616 0.92429 0.0
H2947 H 0.79598 0.78628 0.92994 0.0
H2948 H 0.81662 0.78521 0.95414 0.0
H2949 H 0.75229 0.68275 0.9023 0.0
H2950 H 0.75127 0.70593 0.88612 0.0
H2951 H 0.77539 0.69443 0.88745 0.0
H2952 H 0.75791 0.77505 0.85793 0.0
H2953 H 0.81546 0.74947 0.84699 0.0
H2954 H 0.7564 0.76954 0.91595 0.0
H2955 H 0.74064 0.74237 0.9018 0.0
H2956 H 0.7376 0.76707 0.88906 0.0
H2957 H 0.8315 0.74268 0.90283 0.0
H2958 H 0.83069 0.72868 0.87354 0.0
H2959 H 0.81304 0.71552 0.89337 0.0
C2960 C 0.83876 0.11744 0.05688 0.0
C2961 C 0.8258 0.10717 0.07274 0.0
C2962 C 0.86077 0.11553 0.05673 0.0
C2963 C 0.86965 0.10308 0.07291 0.0
C2964 C 0.85789 0.09607 0.09135 0.0
C2965 C 0.83568 0.09773 0.09075 0.0
C2966 C 0.8731 0.12391 0.03713 0.0
C2967 C 0.86777 0.08445 0.10995 0.0
C2968 C 0.89167 0.0625 0.03578 0.0
C2969 C 0.91401 0.07424 0.03737 0.0
C2970 C 0.87741 0.07058 0.04956 0.0
C2971 C 0.88597 0.09093 0.06523 0.0
C2972 C 0.90919 0.10139 0.06894 0.0
C2973 C 0.92312 0.09285 0.05474 0.0
C2974 C 0.85272 0.05862 0.04529 0.0
C2975 C 0.91899 0.12258 0.08614 0.0
H2976 H 0.83125 0.12564 0.04358 0.0
H2977 H 0.8259 0.09108 0.10392 0.0
H2978 H 0.89114 0.1314 0.04361 0.0
H2979 H 0.8719 0.10955 0.02322 0.0
H2980 H 0.86586 0.13667 0.02906 0.0
H2981 H 0.85913 0.08505 0.12576 0.0
H2982 H 0.86589 0.06655 0.10283 0.0
H2983 H 0.88598 0.09227 0.1152 0.0
H2984 H 0.88509 0.04766 0.02276 0.0
H2985 H 0.9407 0.10151 0.0562 0.0
H2986 H 0.8429 0.06914 0.03652 0.0
H2987 H 0.8464 0.05574 0.06214 0.0
H2988 H 0.8494 0.0421 0.03396 0.0
H2989 H 0.91995 0.13739 0.07672 0.0
H2990 H 0.93636 0.12297 0.09403 0.0
H2991 H 0.90866 0.12428 0.10043 0.0
C2992 C 0.38125 0.45624 0.05222 0.0
C2993 C 0.3786 0.43563 0.06084 0.0
C2994 C 0.40275 0.47007 0.05225 0.0
C2995 C 0.42199 0.46346 0.06183 0.0
C2996 C 0.41928 0.44308 0.07152 0.0
C2997 C 0.39761 0.42923 0.07056 0.0
C2998 C 0.40494 0.49133 0.04119 0.0
C2999 C 0.43927 0.4358 0.08269 0.0
C3000 C 0.47558 0.48595 0.03685 0.0
C3001 C 0.48724 0.50346 0.05445 0.0
C3002 C 0.45476 0.47233 0.03949 0.0
C3003 C 0.44487 0.47695 0.05984 0.0
C3004 C 0.45645 0.49497 0.07754 0.0
C3005 C 0.47765 0.50793 0.0747 0.0
C3006 C 0.44336 0.45293 0.02048 0.0
C3007 C 0.44644 0.50061 0.0994 0.0
H3008 H 0.36652 0.46113 0.04465 0.0
H3009 H 0.39547 0.41343 0.07757 0.0
H3010 H 0.4155 0.50591 0.05358 0.0
H3011 H 0.41344 0.48981 0.02539 0.0
H3012 H 0.38837 0.49486 0.03585 0.0
H3013 H 0.43433 0.41918 0.08879 0.0
H3014 H 0.45136 0.43489 0.07003 0.0
H3015 H 0.44817 0.44842 0.09797 0.0
H3016 H 0.48274 0.48295 0.02091 0.0
H3017 H 0.48688 0.52129 0.08846 0.0
H3018 H 0.42711 0.45554 0.01254 0.0
H3019 H 0.43964 0.43703 0.02813 0.0
H3020 H 0.45384 0.45093 0.00635 0.0
H3021 H 0.43131 0.50688 0.0946 0.0
H3022 H 0.45847 0.51366 0.11246 0.0
H3023 H 0.441 0.48534 0.10776 0.0
C3024 C 0.38634 0.58153 0.79096 0.0
C3025 C 0.39899 0.57659 0.77343 0.0
C3026 C 0.37779 0.60077 0.79174 0.0
C3027 C 0.38249 0.61556 0.77487 0.0
C3028 C 0.39593 0.61091 0.75759 0.0
C3029 C 0.40376 0.59123 0.75687 0.0
C3030 C 0.36323 0.60496 0.81025 0.0
C3031 C 0.40197 0.62666 0.73991 0.0
C3032 C 0.33925 0.64992 0.76926 0.0
C3033 C 0.34927 0.66841 0.78642 0.0
C3034 C 0.35082 0.63336 0.76352 0.0
C3035 C 0.37278 0.63554 0.77529 0.0
C3036 C 0.38383 0.65557 0.79051 0.0
C3037 C 0.37186 0.67179 0.79596 0.0
C3038 C 0.3386 0.61243 0.74686 0.0
C3039 C 0.40731 0.65881 0.80324 0.0
H3040 H 0.38259 0.56998 0.80358 0.0
H3041 H 0.41369 0.58726 0.7434 0.0
H3042 H 0.37 0.62199 0.82042 0.0
H3043 H 0.34603 0.60426 0.80165 0.0
H3044 H 0.36204 0.59242 0.82268 0.0
H3045 H 0.41257 0.62057 0.72759 0.0
H3046 H 0.38649 0.62873 0.72959 0.0
H3047 H 0.4112 0.64353 0.74918 0.0
H3048 H 0.3217 0.64728 0.7621 0.0
H3049 H 0.37948 0.68609 0.80937 0.0
H3050 H 0.33368 0.59835 0.75705 0.0
H3051 H 0.34968 0.60748 0.73449 0.0
H3052 H 0.32318 0.61475 0.73657 0.0
H3053 H 0.40647 0.65002 0.81894 0.0
H3054 H 0.41539 0.67688 0.80926 0.0
H3055 H 0.41806 0.65162 0.79196 0.0
C3056 C 0.19603 0.6261 0.56572 0.0
C3057 C 0.20598 0.61762 0.54727 0.0
C3058 C 0.1732 0.618 0.5665 0.0
C3059 C 0.16032 0.6017 0.54794 0.0
C3060 C 0.17003 0.59439 0.52845 0.0
C3061 C 0.19307 0.60217 0.52858 0.0
C3062 C 0.16346 0.62527 0.58809 0.0
C3063 C 0.15637 0.57723 0.50832 0.0
C3064 C 0.11363 0.55785 0.56288 0.0
C3065 C 0.09506 0.56622 0.5561 0.0
C3066 C 0.13511 0.56959 0.56072 0.0
C3067 C 0.13774 0.58966 0.55065 0.0
C3068 C 0.11902 0.59807 0.54346 0.0
C3069 C 0.0977 0.58629 0.54668 0.0
C3070 C 0.15494 0.56088 0.56993 0.0
C3071 C 0.12161 0.61963 0.53292 0.0
H3072 H 0.20639 0.63782 0.58036 0.0
H3073 H 0.2011 0.59577 0.51447 0.0
H3074 H 0.14672 0.62853 0.58326 0.0
H3075 H 0.16118 0.61157 0.59914 0.0
H3076 H 0.17463 0.64062 0.59888 0.0
H3077 H 0.16602 0.57505 0.4935 0.0
H3078 H 0.15099 0.56073 0.5145 0.0
H3079 H 0.14094 0.58234 0.50178 0.0
H3080 H 0.11142 0.54243 0.57065 0.0
H3081 H 0.08346 0.59332 0.54309 0.0
H3082 H 0.1665 0.57385 0.58341 0.0
H3083 H 0.16454 0.55725 0.55549 0.0
H3084 H 0.14976 0.54532 0.57796 0.0
H3085 H 0.135 0.63324 0.54374 0.0
H3086 H 0.10579 0.62536 0.53133 0.0
H3087 H 0.12668 0.61698 0.51522 0.0
C3088 C 0.73025 0.99313 0.74339 0.0
C3089 C 0.73011 1.00774 0.76359 0.0
C3090 C 0.7331 0.97159 0.74523 0.0
C3091 C 0.73658 0.96535 0.76783 0.0
C3092 C 0.73634 0.98028 0.78827 0.0
C3093 C 0.73267 1.00131 0.78579 0.0
C3094 C 0.73239 0.95565 0.72321 0.0
C3095 C 0.74066 0.97442 0.81279 0.0
C3096 C 0.73171 0.91023 0.78862 0.0
C3097 C 0.75444 0.91159 0.79542 0.0
C3098 C 0.72528 0.92618 0.77589 0.0
C3099 C 0.74214 0.94399 0.77086 0.0
C3100 C 0.76509 0.94389 0.77537 0.0
C3101 C 0.771 0.92743 0.7876 0.0
C3102 C 0.70064 0.92567 0.77073 0.0
C3103 C 0.78345 0.96289 0.77043 0.0
H3104 H 0.72761 0.9984 0.72625 0.0
H3105 H 0.73227 0.01295 0.80118 0.0
H3106 H 0.74884 0.95135 0.72285 0.0
H3107 H 0.71963 0.93973 0.72305 0.0
H3108 H 0.72831 0.96289 0.70701 0.0
H3109 H 0.739 0.98777 0.82658 0.0
H3110 H 0.72875 0.95852 0.81465 0.0
H3111 H 0.75791 0.97189 0.81609 0.0
H3112 H 0.71907 0.89751 0.7944 0.0
H3113 H 0.78861 0.92811 0.79282 0.0
H3114 H 0.69681 0.93186 0.75383 0.0
H3115 H 0.69613 0.93684 0.78485 0.0
H3116 H 0.68995 0.90844 0.77006 0.0
H3117 H 0.77942 0.96738 0.7527 0.0
H3118 H 0.80003 0.95858 0.7717 0.0
H3119 H 0.7849 0.97804 0.78339 0.0
C3120 C 0.75955 0.95472 0.58153 0.0
C3121 C 0.76071 0.9356 0.56655 0.0
C3122 C 0.74107 0.96424 0.57844 0.0
C3123 C 0.72335 0.9543 0.56 0.0
C3124 C 0.72393 0.93441 0.54549 0.0
C3125 C 0.74271 0.92535 0.54886 0.0
C3126 C 0.74088 0.98533 0.59436 0.0
C3127 C 0.70516 0.92322 0.52576 0.0
C3128 C 0.66681 0.96884 0.55469 0.0
C3129 C 0.66889 0.98219 0.53671 0.0
C3130 C 0.68487 0.96044 0.5635 0.0
C3131 C 0.70533 0.96583 0.55412 0.0
C3132 C 0.70788 0.98069 0.53713 0.0
C3133 C 0.68948 0.98855 0.52845 0.0
C3134 C 0.68152 0.94461 0.58156 0.0
C3135 C 0.72965 0.98726 0.52718 0.0
H3136 H 0.77333 0.9626 0.59542 0.0
H3137 H 0.74339 0.91042 0.53742 0.0
H3138 H 0.74113 0.99938 0.58393 0.0
H3139 H 0.72523 0.98283 0.60248 0.0
H3140 H 0.7555 0.99034 0.60857 0.0
H3141 H 0.70676 0.9064 0.51816 0.0
H3142 H 0.6886 0.92128 0.53206 0.0
H3143 H 0.70535 0.93393 0.51159 0.0
H3144 H 0.65072 0.96403 0.56093 0.0
H3145 H 0.69092 0.99907 0.51463 0.0
H3146 H 0.69616 0.94885 0.59567 0.0
H3147 H 0.68004 0.92721 0.57301 0.0
H3148 H 0.66608 0.94495 0.58963 0.0
H3149 H 0.74391 0.99378 0.54161 0.0
H3150 H 0.72938 1.00027 0.51544 0.0
H3151 H 0.73287 0.97225 0.51701 0.0
C3152 C 0.37882 0.45054 0.78908 0.0
C3153 C 0.3958 0.45415 0.77484 0.0
C3154 C 0.36501 0.42895 0.78863 0.0
C3155 C 0.36787 0.4107 0.77304 0.0
C3156 C 0.38449 0.41451 0.75795 0.0
C3157 C 0.39848 0.43618 0.75926 0.0
C3158 C 0.34792 0.42552 0.80543 0.0
C3159 C 0.38772 0.39564 0.74072 0.0
C3160 C 0.35062 0.35383 0.79333 0.0
C3161 C 0.33032 0.34377 0.77874 0.0
C3162 C 0.36348 0.375 0.79075 0.0
C3163 C 0.35502 0.38738 0.77428 0.0
C3164 C 0.33406 0.37777 0.75997 0.0
C3165 C 0.32217 0.35587 0.76205 0.0
C3166 C 0.38604 0.38418 0.80591 0.0
C3167 C 0.324 0.39074 0.74285 0.0
H3168 H 0.3768 0.46452 0.8011 0.0
H3169 H 0.41139 0.43916 0.74796 0.0
H3170 H 0.33122 0.4161 0.79591 0.0
H3171 H 0.35298 0.41532 0.81873 0.0
H3172 H 0.34628 0.44168 0.81478 0.0
H3173 H 0.40175 0.40127 0.73065 0.0
H3174 H 0.39113 0.3818 0.75012 0.0
H3175 H 0.37209 0.38864 0.72811 0.0
H3176 H 0.35622 0.34556 0.80738 0.0
H3177 H 0.30656 0.34822 0.75059 0.0
H3178 H 0.38556 0.39919 0.81816 0.0
H3179 H 0.39923 0.38955 0.79478 0.0
H3180 H 0.39099 0.3716 0.81636 0.0
H3181 H 0.32038 0.40575 0.75264 0.0
H3182 H 0.30814 0.38048 0.73215 0.0
H3183 H 0.33612 0.39687 0.73088 0.0
C3184 C 0.24123 0.63254 0.27902 0.0
C3185 C 0.2183 0.62301 0.27828 0.0
C3186 C 0.24885 0.65527 0.27786 0.0
C3187 C 0.23312 0.66865 0.27667 0.0
C3188 C 0.20992 0.65917 0.27549 0.0
C3189 C 0.20269 0.63623 0.27628 0.0
C3190 C 0.27364 0.66485 0.27754 0.0
C3191 C 0.19289 0.67318 0.27291 0.0
C3192 C 0.26319 0.72835 0.29791 0.0
C3193 C 0.2652 0.73649 0.27662 0.0
C3194 C 0.25031 0.70669 0.29826 0.0
C3195 C 0.24129 0.69265 0.27666 0.0
C3196 C 0.24354 0.70078 0.25507 0.0
C3197 C 0.25528 0.72278 0.25547 0.0
C3198 C 0.24759 0.69827 0.32152 0.0
C3199 C 0.2358 0.68607 0.23148 0.0
H3200 H 0.25322 0.62216 0.27989 0.0
H3201 H 0.18488 0.62865 0.27514 0.0
H3202 H 0.27611 0.67401 0.26223 0.0
H3203 H 0.28088 0.67707 0.29364 0.0
H3204 H 0.28321 0.65163 0.2766 0.0
H3205 H 0.17547 0.66323 0.2729 0.0
H3206 H 0.19696 0.68748 0.28743 0.0
H3207 H 0.19363 0.68037 0.2562 0.0
H3208 H 0.27265 0.73826 0.31396 0.0
H3209 H 0.25788 0.72871 0.23901 0.0
H3210 H 0.25794 0.68598 0.3241 0.0
H3211 H 0.2298 0.68947 0.32167 0.0
H3212 H 0.25282 0.71214 0.33653 0.0
H3213 H 0.25002 0.67945 0.22603 0.0
H3214 H 0.23083 0.69597 0.21779 0.0
H3215 H 0.22154 0.67158 0.23187 0.0
C3216 C 0.5113 0.69702 0.50294 0.0
C3217 C 0.53029 0.71464 0.5024 0.0
C3218 C 0.51327 0.67562 0.50899 0.0
C3219 C 0.53477 0.67098 0.51422 0.0
C3220 C 0.5539 0.68846 0.51276 0.0
C3221 C 0.55147 0.70984 0.50738 0.0
C3222 C 0.49218 0.65801 0.51009 0.0
C3223 C 0.57713 0.68435 0.51627 0.0
C3224 C 0.54513 0.62482 0.55221 0.0
C3225 C 0.54361 0.60583 0.5355 0.0
C3226 C 0.54169 0.64553 0.54557 0.0
C3227 C 0.53746 0.64824 0.52144 0.0
C3228 C 0.53649 0.62923 0.50448 0.0
C3229 C 0.53905 0.60846 0.51164 0.0
C3230 C 0.54216 0.66455 0.56456 0.0
C3231 C 0.53254 0.63052 0.47851 0.0
H3232 H 0.49476 0.70003 0.49892 0.0
H3233 H 0.56639 0.72278 0.50648 0.0
H3234 H 0.49211 0.64201 0.49919 0.0
H3235 H 0.49172 0.65458 0.52848 0.0
H3236 H 0.47672 0.66331 0.50398 0.0
H3237 H 0.59032 0.69911 0.51377 0.0
H3238 H 0.58096 0.6802 0.5342 0.0
H3239 H 0.57787 0.66968 0.50363 0.0
H3240 H 0.54845 0.62333 0.57068 0.0
H3241 H 0.53782 0.59422 0.49832 0.0
H3242 H 0.52608 0.66978 0.56217 0.0
H3243 H 0.55581 0.67933 0.56323 0.0
H3244 H 0.54475 0.65984 0.58245 0.0
H3245 H 0.51421 0.62709 0.47258 0.0
H3246 H 0.53912 0.61778 0.46816 0.0
H3247 H 0.54051 0.64741 0.47448 0.0
C3248 C 0.64322 0.31361 0.697 0.0
C3249 C 0.64179 0.31028 0.67236 0.0
C3250 C 0.66189 0.31073 0.7118 0.0
C3251 C 0.67977 0.30396 0.70199 0.0
C3252 C 0.67847 0.3006 0.67707 0.0
C3253 C 0.6597 0.30398 0.66264 0.0
C3254 C 0.66238 0.31487 0.73809 0.0
C3255 C 0.69648 0.2925 0.66557 0.0
C3256 C 0.73773 0.31654 0.74008 0.0
C3257 C 0.73753 0.2964 0.74933 0.0
C3258 C 0.71917 0.31918 0.72489 0.0
C3259 C 0.69994 0.301 0.71787 0.0
C3260 C 0.69985 0.2804 0.72676 0.0
C3261 C 0.71836 0.27851 0.74268 0.0
C3262 C 0.72009 0.34157 0.71642 0.0
C3263 C 0.68024 0.26023 0.71938 0.0
H3264 H 0.62947 0.31823 0.70483 0.0
H3265 H 0.6586 0.30071 0.64369 0.0
H3266 H 0.6641 0.29962 0.74586 0.0
H3267 H 0.67722 0.3286 0.74599 0.0
H3268 H 0.647 0.31952 0.74304 0.0
H3269 H 0.69382 0.29193 0.64617 0.0
H3270 H 0.71329 0.30354 0.6727 0.0
H3271 H 0.6966 0.27536 0.66959 0.0
H3272 H 0.75245 0.33046 0.74501 0.0
H3273 H 0.71814 0.26275 0.74935 0.0
H3274 H 0.70576 0.34819 0.72152 0.0
H3275 H 0.71845 0.33948 0.69695 0.0
H3276 H 0.73599 0.35421 0.72371 0.0
H3277 H 0.66576 0.26293 0.72806 0.0
H3278 H 0.68433 0.24456 0.72424 0.0
H3279 H 0.67489 0.25788 0.70011 0.0
C3280 C 0.02089 0.36535 0.98688 0.0
C3281 C 1.01253 0.3492 1.00119 0.0
C3282 C 0.02345 0.38891 0.9937 0.0
C3283 C 0.01845 0.39728 0.01598 0.0
C3284 C 1.01037 0.38104 0.03063 0.0
C3285 C 1.00715 0.35755 0.02299 0.0
C3286 C 0.03128 0.40486 0.97675 0.0
C3287 C 1.00512 0.38851 0.05464 0.0
C3288 C 0.0468 0.45977 0.04232 0.0
C3289 C 0.02916 0.47081 0.04004 0.0
C3290 C 0.0435 0.43625 0.03502 0.0
C3291 C 0.02207 0.42278 0.02418 0.0
C3292 C 1.00421 0.43391 0.02153 0.0
C3293 C 1.00788 0.45741 0.02964 0.0
C3294 C 0.06316 0.42577 0.03913 0.0
C3295 C 0.98125 0.42126 0.00916 0.0
H3296 H 0.0249 0.35953 0.96987 0.0
H3297 H 1.00062 0.34562 0.03438 0.0
H3298 H 0.02039 0.41682 0.97519 0.0
H3299 H 0.04862 0.41487 0.98342 0.0
H3300 H 0.03122 0.39586 0.95898 0.0
H3301 H 1.00076 0.3743 0.0648 0.0
H3302 H 0.01975 0.40127 0.06478 0.0
H3303 H 0.99079 0.39656 0.05285 0.0
H3304 H 0.0634 0.46957 0.05022 0.0
H3305 H 0.99413 0.46545 0.02705 0.0
H3306 H 0.06795 0.41992 0.02205 0.0
H3307 H 0.05843 0.41085 0.04823 0.0
H3308 H 0.07808 0.43774 0.0498 0.0
H3309 H 0.98195 0.41803 0.99003 0.0
H3310 H 0.96834 0.43088 0.01186 0.0
H3311 H 0.97591 0.40472 0.01524 0.0
C3312 C 1.01021 0.81465 0.18948 0.0
C3313 C 1.00828 0.8017 0.16755 0.0
C3314 C 0.99162 0.81317 0.20171 0.0
C3315 C 0.97098 0.79779 0.19202 0.0
C3316 C 0.96873 0.78574 0.16914 0.0
C3317 C 0.98745 0.78798 0.15711 0.0
C3318 C 0.9946 0.82681 0.22569 0.0
C3319 C 0.94703 0.76923 0.15806 0.0
C3320 C 0.93549 0.76429 0.23107 0.0
C3321 C 0.9161 0.7725 0.22897 0.0
C3322 C 0.95401 0.77339 0.22028 0.0
C3323 C 0.95316 0.7912 0.20702 0.0
C3324 C 0.93425 0.80066 0.20625 0.0
C3325 C 0.91588 0.79119 0.21733 0.0
C3326 C 0.97386 0.76284 0.22173 0.0
C3327 C 0.93304 0.82006 0.19288 0.0
H3328 H 0.02648 0.82515 0.19752 0.0
H3329 H 0.98617 0.77787 0.14018 0.0
H3330 H 0.9796 0.83338 0.22817 0.0
H3331 H 0.99666 0.81596 0.2394 0.0
H3332 H 1.00967 0.84116 0.22844 0.0
H3333 H 0.94833 0.76062 0.14052 0.0
H3334 H 0.94212 0.75627 0.16958 0.0
H3335 H 0.93335 0.7781 0.15603 0.0
H3336 H 0.93575 0.75004 0.24038 0.0
H3337 H 0.9009 0.7976 0.21582 0.0
H3338 H 0.98968 0.77589 0.22797 0.0
H3339 H 0.97523 0.75479 0.20399 0.0
H3340 H 0.97238 0.74992 0.23375 0.0
H3341 H 0.94822 0.83403 0.19874 0.0
H3342 H 0.91788 0.82645 0.19526 0.0
H3343 H 0.93272 0.81474 0.17386 0.0
C3344 C 0.55871 0.32432 0.156 0.0
C3345 C 0.53847 0.3134 0.1628 0.0
C3346 C 0.5605 0.34411 0.14599 0.0
C3347 C 0.54138 0.35298 0.14214 0.0
C3348 C 0.52093 0.34228 0.14938 0.0
C3349 C 0.51977 0.32263 0.1599 0.0
C3350 C 0.58285 0.35531 0.1392 0.0
C3351 C 0.50014 0.35106 0.14529 0.0
C3352 C 0.56023 0.41262 0.13025 0.0
C3353 C 0.56037 0.40898 0.10597 0.0
C3354 C 0.55159 0.39477 0.14225 0.0
C3355 C 0.54312 0.37288 0.12954 0.0
C3356 C 0.54109 0.36972 0.10468 0.0
C3357 C 0.54993 0.38786 0.09316 0.0
C3358 C 0.55389 0.39894 0.16871 0.0
C3359 C 0.53199 0.34671 0.09044 0.0
H3360 H 0.57331 0.3174 0.15863 0.0
H3361 H 0.50411 0.31414 0.16518 0.0
H3362 H 0.58119 0.35539 0.11992 0.0
H3363 H 0.58827 0.37306 0.14776 0.0
H3364 H 0.59626 0.3467 0.14428 0.0
H3365 H 0.48672 0.34297 0.15502 0.0
H3366 H 0.50414 0.36953 0.15062 0.0
H3367 H 0.49354 0.34767 0.12625 0.0
H3368 H 0.56842 0.42904 0.14006 0.0
H3369 H 0.55018 0.38514 0.07435 0.0
H3370 H 0.56889 0.39367 0.17626 0.0
H3371 H 0.53905 0.38895 0.17514 0.0
H3372 H 0.55601 0.41701 0.17537 0.0
H3373 H 0.54513 0.33709 0.09165 0.0
H3374 H 0.52707 0.34776 0.07161 0.0
H3375 H 0.51722 0.33717 0.09737 0.0
C3376 C 0.97174 0.29103 0.32369 0.0
C3377 C 0.9842 0.30914 0.34058 0.0
C3378 C 0.94806 0.28767 0.31686 0.0
C3379 C 0.93612 0.30297 0.32657 0.0
C3380 C 0.94869 0.3213 0.34348 0.0
C3381 C 0.97213 0.32403 0.35024 0.0
C3382 C 0.93571 0.26745 0.29937 0.0
C3383 C 0.93723 0.33791 0.355 0.0
C3384 C 0.8789 0.30806 0.29425 0.0
C3385 C 0.86278 0.29555 0.30615 0.0
C3386 C 0.90241 0.31032 0.30045 0.0
C3387 C 0.91068 0.30001 0.31928 0.0
C3388 C 0.89446 0.28756 0.33155 0.0
C3389 C 0.87105 0.2853 0.32474 0.0
C3390 C 0.91853 0.32377 0.28664 0.0
C3391 C 0.90172 0.27621 0.3518 0.0
H3392 H 0.98034 0.27899 0.31634 0.0
H3393 H 0.98107 0.33799 0.3635 0.0
H3394 H 0.92062 0.25825 0.30606 0.0
H3395 H 0.92984 0.27307 0.28274 0.0
H3396 H 0.94645 0.25568 0.2955 0.0
H3397 H 0.94925 0.35176 0.36716 0.0
H3398 H 0.92822 0.3453 0.34143 0.0
H3399 H 0.9245 0.32913 0.36507 0.0
H3400 H 0.87314 0.31562 0.27951 0.0
H3401 H 0.85912 0.27545 0.3342 0.0
H3402 H 0.92881 0.31307 0.27883 0.0
H3403 H 0.93024 0.33801 0.29854 0.0
H3404 H 0.90975 0.33054 0.27234 0.0
H3405 H 0.9072 0.26112 0.34489 0.0
H3406 H 0.88787 0.2708 0.36218 0.0
H3407 H 0.91618 0.28753 0.36374 0.0
C3408 C 0.01499 0.69642 0.63991 0.0
C3409 C 0.01681 0.69791 0.66451 0.0
C3410 C 0.01841 0.67761 0.62593 0.0
C3411 C 0.02402 0.65972 0.63668 0.0
C3412 C 0.02589 0.66106 0.66151 0.0
C3413 C 0.02209 0.67999 0.67508 0.0
C3414 C 0.01611 0.67693 0.59958 0.0
C3415 C 0.03276 0.64286 0.67382 0.0
C3416 C 1.01119 0.60183 0.59955 0.0
C3417 C 0.03178 0.6015 0.59172 0.0
C3418 C 1.0085 0.62064 0.6141 0.0
C3419 C 0.02708 0.63933 0.62179 0.0
C3420 C 0.04816 0.63874 0.61445 0.0
C3421 C 0.05012 0.62005 0.59909 0.0
C3422 C 0.98566 0.62061 0.62104 0.0
C3423 C 0.06867 0.65783 0.62274 0.0
H3424 H 1.0112 0.71022 0.63151 0.0
H3425 H 0.02418 0.68117 0.69406 0.0
H3426 H 0.03189 0.6749 0.59316 0.0
H3427 H 1.00256 0.66219 0.591 0.0
H3428 H 1.01218 0.69239 0.59392 0.0
H3429 H 0.03241 0.64576 0.69306 0.0
H3430 H 0.02152 0.62619 0.66646 0.0
H3431 H 0.05005 0.64216 0.67083 0.0
H3432 H 0.99703 0.58745 0.59389 0.0
H3433 H 0.06616 0.61965 0.59333 0.0
H3434 H 0.97996 0.63515 0.61513 0.0
H3435 H 0.98667 0.62251 0.64045 0.0
H3436 H 0.97285 0.60494 0.61337 0.0
H3437 H 0.06724 0.67237 0.61354 0.0
H3438 H 0.08439 0.65302 0.61917 0.0
H3439 H 0.07002 0.66345 0.64187 0.0
C3440 C 0.62485 0.82603 0.82633 0.0
C3441 C 0.61566 0.81532 0.84457 0.0
C3442 C 0.64544 0.82283 0.81866 0.0
C3443 C 0.65735 0.80794 0.82866 0.0
C3444 C 0.64784 0.79686 0.84676 0.0
C3445 C 0.62772 0.80082 0.8545 0.0
C3446 C 0.65465 0.83576 0.7999 0.0
C3447 C 0.65919 0.78091 0.85847 0.0
C3448 C 0.70091 0.7835 0.79547 0.0
C3449 C 0.72211 0.7967 0.8067 0.0
C3450 C 0.68013 0.78702 0.80217 0.0
C3451 C 0.67976 0.80423 0.82077 0.0
C3452 C 0.70112 0.81742 0.83228 0.0
C3453 C 0.72157 0.81364 0.82517 0.0
C3454 C 0.65834 0.77207 0.78928 0.0
C3455 C 0.70253 0.83599 0.85215 0.0
H3456 H 0.61636 0.83753 0.8185 0.0
H3457 H 0.62134 0.79232 0.86863 0.0
H3458 H 0.6727 0.84415 0.80544 0.0
H3459 H 0.65341 0.82394 0.78359 0.0
H3460 H 0.64542 0.84868 0.79587 0.0
H3461 H 0.64907 0.7722 0.87091 0.0
H3462 H 0.6623 0.76807 0.84504 0.0
H3463 H 0.67576 0.79033 0.86828 0.0
H3464 H 0.70047 0.77033 0.78124 0.0
H3465 H 0.73738 0.82421 0.83431 0.0
H3466 H 0.648 0.78245 0.78105 0.0
H3467 H 0.64859 0.76322 0.80187 0.0
H3468 H 0.66104 0.75936 0.77541 0.0
H3469 H 0.69685 0.85003 0.84499 0.0
H3470 H 0.71992 0.8426 0.86157 0.0
H3471 H 0.6913 0.83003 0.86499 0.0
C3472 C 0.46046 0.52162 0.69807 0.0
C3473 C 0.47212 0.53009 0.72078 0.0
C3474 C 0.4707 0.52543 0.67787 0.0
C3475 C 0.49307 0.53857 0.68021 0.0
C3476 C 0.50471 0.54773 0.70308 0.0
C3477 C 0.49426 0.54309 0.72307 0.0
C3478 C 0.45772 0.51484 0.65402 0.0
C3479 C 0.52817 0.56268 0.70638 0.0
C3480 C 0.52829 0.52907 0.63152 0.0
C3481 C 0.52535 0.54558 0.61749 0.0
C3482 C 0.51772 0.52654 0.6517 0.0
C3483 C 0.50467 0.54157 0.65886 0.0
C3484 C 0.50227 0.55882 0.64517 0.0
C3485 C 0.51219 0.56028 0.62436 0.0
C3486 C 0.5199 0.50722 0.66491 0.0
C3487 C 0.48887 0.57552 0.65212 0.0
H3488 H 0.44333 0.51155 0.69608 0.0
H3489 H 0.50323 0.55006 0.74049 0.0
H3490 H 0.45737 0.52781 0.6423 0.0
H3491 H 0.46621 0.50259 0.64572 0.0
H3492 H 0.44013 0.50597 0.65507 0.0
H3493 H 0.53479 0.56895 0.72519 0.0
H3494 H 0.53972 0.55339 0.69879 0.0
H3495 H 0.5282 0.57731 0.69683 0.0
H3496 H 0.53811 0.51739 0.6261 0.0
H3497 H 0.50982 0.57305 0.61358 0.0
H3498 H 0.50299 0.49615 0.66494 0.0
H3499 H 0.52722 0.51363 0.6835 0.0
H3500 H 0.53057 0.49696 0.65707 0.0
H3501 H 0.4707 0.56769 0.64666 0.0
H3502 H 0.49327 0.59082 0.64351 0.0
H3503 H 0.49161 0.58062 0.67145 0.0
C3504 C 0.76114 0.18887 0.00496 0.0
C3505 C 0.7774 0.17745 0.01156 0.0
C3506 C 0.75985 0.19641 0.98318 0.0
C3507 C 0.7758 0.19308 0.9682 0.0
C3508 C 0.7923 0.18154 0.97486 0.0
C3509 C 0.79268 0.1735 0.9965 0.0
C3510 C 0.74134 0.20783 0.97621 0.0
C3511 C 0.80985 0.17819 0.95958 0.0
C3512 C 0.7524 0.19937 0.90798 0.0
C3513 C 0.75878 0.2227 0.90946 0.0
C3514 C 0.76032 0.18873 0.92599 0.0
C3515 C 0.77479 0.20201 0.94573 0.0
C3516 C 0.78357 0.22528 0.94576 0.0
C3517 C 0.77526 0.23552 0.92749 0.0
C3518 C 0.75068 0.16386 0.92522 0.0
C3519 C 0.79952 0.23971 0.96637 0.0
H3520 H 0.74899 0.19131 0.01656 0.0
H3521 H 0.80512 0.16446 1.00183 0.0
H3522 H 0.74873 0.22573 0.97496 0.0
H3523 H 0.73198 0.19979 0.95869 0.0
H3524 H 0.72918 0.20717 0.98904 0.0
H3525 H 0.81799 0.16478 0.96467 0.0
H3526 H 0.80258 0.17387 0.94074 0.0
H3527 H 0.82303 0.19411 0.96155 0.0
H3528 H 0.73992 0.18968 0.8936 0.0
H3529 H 0.7803 0.25364 0.92823 0.0
H3530 H 0.73605 0.16138 0.93502 0.0
H3531 H 0.76313 0.15567 0.93357 0.0
H3532 H 0.74479 0.15536 0.90687 0.0
H3533 H 0.78983 0.24386 0.98058 0.0
H3534 H 0.80886 0.25572 0.96141 0.0
H3535 H 0.81175 0.23063 0.97359 0.0
C3536 C 0.13678 0.54145 0.21204 0.0
C3537 C 0.15938 0.54631 0.20853 0.0
C3538 C 0.12063 0.54695 0.19659 0.0
C3539 C 0.12727 0.55682 0.1769 0.0
C3540 C 0.15014 0.56299 0.17393 0.0
C3541 C 0.16603 0.55752 0.18983 0.0
C3542 C 0.0963 0.54055 0.20038 0.0
C3543 C 0.15755 0.5742 0.15329 0.0
C3544 C 0.08795 0.53245 0.12168 0.0
C3545 C 0.07711 0.54964 0.11865 0.0
C3546 C 0.10448 0.53484 0.14071 0.0
C3547 C 0.11024 0.55502 0.15675 0.0
C3548 C 0.09938 0.57253 0.15375 0.0
C3549 C 0.08248 0.56944 0.13468 0.0
C3550 C 0.11572 0.51574 0.14361 0.0
C3551 C 0.10531 0.59421 0.17064 0.0
H3552 H 0.13163 0.53351 0.22698 0.0
H3553 H 0.18362 0.56194 0.18759 0.0
H3554 H 0.08732 0.55333 0.19536 0.0
H3555 H 0.08781 0.52435 0.1892 0.0
H3556 H 0.09469 0.53847 0.21899 0.0
H3557 H 0.17613 0.57964 0.15469 0.0
H3558 H 0.15102 0.5624 0.13673 0.0
H3559 H 0.15049 0.58909 0.15203 0.0
H3560 H 0.08341 0.51709 0.10922 0.0
H3561 H 0.07387 0.58262 0.13195 0.0
H3562 H 0.11326 0.50979 0.16074 0.0
H3563 H 0.13407 0.52164 0.1435 0.0
H3564 H 0.10902 0.50121 0.12946 0.0
H3565 H 0.09825 0.5912 0.18711 0.0
H3566 H 0.09845 0.60752 0.16324 0.0
H3567 H 0.12379 0.60046 0.17533 0.0
C3568 C 0.82784 0.85274 0.47311 0.0
C3569 C 0.80904 0.8502 0.485 0.0
C3570 C 0.82565 0.8455 0.4488 0.0
C3571 C 0.80421 0.83456 0.4361 0.0
C3572 C 0.78513 0.83188 0.44811 0.0
C3573 C 0.78772 0.84013 0.47232 0.0
C3574 C 0.8463 0.84978 0.43665 0.0
C3575 C 0.76207 0.81966 0.43558 0.0
C3576 C 0.79512 0.83025 0.36898 0.0
C3577 C 0.7986 0.80891 0.36188 0.0
C3578 C 0.79691 0.8388 0.39297 0.0
C3579 C 0.80192 0.8256 0.41043 0.0
C3580 C 0.8053 0.80399 0.40333 0.0
C3581 C 0.80379 0.79602 0.37925 0.0
C3582 C 0.79369 0.86212 0.39961 0.0
C3583 C 0.81058 0.78921 0.42118 0.0
H3584 H 0.8443 0.86086 0.48282 0.0
H3585 H 0.77317 0.83812 0.48148 0.0
H3586 H 0.84924 0.83363 0.42885 0.0
H3587 H 0.84372 0.85953 0.42203 0.0
H3588 H 0.86161 0.85921 0.44882 0.0
H3589 H 0.74873 0.8206 0.44676 0.0
H3590 H 0.75809 0.82666 0.41923 0.0
H3591 H 0.76177 0.80171 0.43039 0.0
H3592 H 0.79122 0.84045 0.35578 0.0
H3593 H 0.80642 0.77949 0.37404 0.0
H3594 H 0.80909 0.87282 0.41068 0.0
H3595 H 0.77972 0.86139 0.4102 0.0
H3596 H 0.78995 0.87029 0.38399 0.0
H3597 H 0.82757 0.7967 0.43115 0.0
H3598 H 0.81017 0.77196 0.41285 0.0
H3599 H 0.79843 0.78805 0.434 0.0
C3600 C 0.46538 0.51668 0.87168 0.0
C3601 C 0.48014 0.52233 0.85534 0.0
C3602 C 0.47346 0.51758 0.89573 0.0
C3603 C 0.49682 0.52535 0.90398 0.0
C3604 C 0.51169 0.5317 0.88754 0.0
C3605 C 0.50325 0.52958 0.86344 0.0
C3606 C 0.45702 0.50964 0.9122 0.0
C3607 C 0.53663 0.54049 0.89537 0.0
C3608 C 0.51457 0.54648 0.97005 0.0
C3609 C 0.52252 0.52873 0.97826 0.0
C3610 C 0.5065 0.54575 0.94605 0.0
C3611 C 0.50573 0.52654 0.92966 0.0
C3612 C 0.51353 0.50847 0.93791 0.0
C3613 C 0.52192 0.5099 0.96192 0.0
C3614 C 0.49908 0.56575 0.93819 0.0
C3615 C 0.51247 0.48727 0.92155 0.0
H3616 H 0.44753 0.51068 0.86548 0.0
H3617 H 0.51474 0.53387 0.85089 0.0
H3618 H 0.46224 0.49641 0.92137 0.0
H3619 H 0.45696 0.52376 0.92585 0.0
H3620 H 0.43963 0.50276 0.90287 0.0
H3621 H 0.54553 0.54732 0.88113 0.0
H3622 H 0.53985 0.55392 0.9107 0.0
H3623 H 0.54387 0.52672 0.90099 0.0
H3624 H 0.51509 0.56126 0.98236 0.0
H3625 H 0.52758 0.49599 0.96795 0.0
H3626 H 0.48088 0.56085 0.93131 0.0
H3627 H 0.50814 0.57158 0.92366 0.0
H3628 H 0.50214 0.58 0.95269 0.0
H3629 H 0.49468 0.47773 0.91668 0.0
H3630 H 0.52209 0.47626 0.92977 0.0
H3631 H 0.51907 0.49124 0.90509 0.0
C3632 C 0.7696 0.16147 0.14823 0.0
C3633 C 0.7877 0.16338 0.13544 0.0
C3634 C 0.76967 0.17825 0.16648 0.0
C3635 C 0.78834 0.19697 0.1718 0.0
C3636 C 0.80713 0.19838 0.15971 0.0
C3637 C 0.80667 0.1813 0.1417 0.0
C3638 C 0.74942 0.17644 0.17925 0.0
C3639 C 0.82723 0.21835 0.16511 0.0
C3640 C 0.77929 0.24964 0.20414 0.0
C3641 C 0.79042 0.24939 0.22651 0.0
C3642 C 0.77901 0.2329 0.18571 0.0
C3643 C 0.78865 0.21491 0.19053 0.0
C3644 C 0.79955 0.2144 0.21311 0.0
C3645 C 0.80152 0.23246 0.23047 0.0
C3646 C 0.76857 0.23451 0.16125 0.0
C3647 C 0.80863 0.1946 0.21904 0.0
H3648 H 0.75479 0.1477 0.14302 0.0
H3649 H 0.82059 0.18257 0.13163 0.0
H3650 H 0.7547 0.18002 0.19855 0.0
H3651 H 0.7402 0.18909 0.17435 0.0
H3652 H 0.73763 0.15955 0.17486 0.0
H3653 H 0.83959 0.21757 0.15268 0.0
H3654 H 0.8217 0.23419 0.16436 0.0
H3655 H 0.83584 0.21912 0.18318 0.0
H3656 H 0.77103 0.26298 0.20096 0.0
H3657 H 0.81115 0.23286 0.24735 0.0
H3658 H 0.75292 0.22104 0.15595 0.0
H3659 H 0.78018 0.23208 0.1484 0.0
H3660 H 0.76442 0.25099 0.16012 0.0
H3661 H 0.79498 0.17895 0.21482 0.0
H3662 H 0.81565 0.19651 0.23791 0.0
H3663 H 0.82195 0.19243 0.20828 0.0
C3664 C 0.16376 0.56818 0.34752 0.0
C3665 C 0.15262 0.55185 0.32863 0.0
C3666 C 0.1532 0.57217 0.36715 0.0
C3667 C 0.13142 0.55886 0.36799 0.0
C3668 C 0.1208 0.54134 0.34951 0.0
C3669 C 0.13138 0.53839 0.32965 0.0
C3670 C 0.16476 0.59144 0.38626 0.0
C3671 C 0.09781 0.52659 0.35012 0.0
C3672 C 0.11394 0.56698 0.42812 0.0
C3673 C 0.10278 0.58415 0.42566 0.0
C3674 C 0.12216 0.55731 0.40891 0.0
C3675 C 0.11901 0.5651 0.387 0.0
C3676 C 0.10621 0.58119 0.3841 0.0
C3677 C 0.09829 0.59057 0.40356 0.0
C3678 C 0.13542 0.5399 0.41244 0.0
C3679 C 0.10245 0.59002 0.36104 0.0
H3680 H 0.18007 0.5788 0.34625 0.0
H3681 H 0.1229 0.52592 0.31472 0.0
H3682 H 0.15415 0.60366 0.38824 0.0
H3683 H 0.16708 0.58509 0.40332 0.0
H3684 H 0.18144 0.60049 0.38254 0.0
H3685 H 0.09334 0.51191 0.33597 0.0
H3686 H 0.09703 0.52042 0.36736 0.0
H3687 H 0.08502 0.53651 0.34791 0.0
H3688 H 0.11719 0.56193 0.44527 0.0
H3689 H 0.08919 0.60352 0.40169 0.0
H3690 H 0.15363 0.54799 0.41423 0.0
H3691 H 0.13137 0.52642 0.39709 0.0
H3692 H 0.13218 0.53218 0.42854 0.0
H3693 H 0.11786 0.6026 0.35901 0.0
H3694 H 0.08824 0.59831 0.3603 0.0
H3695 H 0.09902 0.57642 0.34589 0.0
C3696 C 0.82018 0.8668 0.6408 0.0
C3697 C 0.80497 0.86028 0.61992 0.0
C3698 C 0.81512 0.85826 0.66161 0.0
C3699 C 0.79401 0.84329 0.66177 0.0
C3700 C 0.77827 0.83728 0.64087 0.0
C3701 C 0.78405 0.84562 0.62009 0.0
C3702 C 0.83254 0.86499 0.68331 0.0
C3703 C 0.75519 0.82232 0.64058 0.0
C3704 C 0.79163 0.80228 0.70636 0.0
C3705 C 0.78283 0.81269 0.72477 0.0
C3706 C 0.79489 0.8119 0.68578 0.0
C3707 C 0.78921 0.83254 0.68323 0.0
C3708 C 0.77988 0.84301 0.7015 0.0
C3709 C 0.77694 0.83304 0.7221 0.0
C3710 C 0.80512 0.80024 0.66699 0.0
C3711 C 0.7737 0.86512 0.69977 0.0
H3712 H 0.83613 0.87863 0.64079 0.0
H3713 H 0.77193 0.84131 0.6042 0.0
H3714 H 0.82512 0.87127 0.69853 0.0
H3715 H 0.83841 0.85006 0.68777 0.0
H3716 H 0.84731 0.87821 0.68087 0.0
H3717 H 0.74455 0.81992 0.62324 0.0
H3718 H 0.75664 0.80563 0.64499 0.0
H3719 H 0.74662 0.82975 0.65419 0.0
H3720 H 0.79668 0.7868 0.70825 0.0
H3721 H 0.77037 0.84138 0.73625 0.0
H3722 H 0.82132 0.81131 0.66452 0.0
H3723 H 0.79386 0.79691 0.64996 0.0
H3724 H 0.80821 0.78404 0.67139 0.0
H3725 H 0.78913 0.87899 0.7042 0.0
H3726 H 0.76187 0.86815 0.71218 0.0
H3727 H 0.766 0.86581 0.68167 0.0
C3728 C 0.76116 0.48312 0.5406 0.0
C3729 C 0.76099 0.47505 0.51702 0.0
C3730 C 0.74239 0.48889 0.54816 0.0
C3731 C 0.72328 0.48719 0.53146 0.0
C3732 C 0.7227 0.47834 0.50768 0.0
C3733 C 0.74166 0.47197 0.50073 0.0
C3734 C 0.74333 0.49741 0.57392 0.0
C3735 C 0.70257 0.47646 0.48952 0.0
C3736 C 0.67707 0.49579 0.565 0.0
C3737 C 0.6819 0.51925 0.56823 0.0
C3738 C 0.68863 0.48445 0.55029 0.0
C3739 C 0.70535 0.49715 0.53907 0.0
C3740 C 0.70856 0.52075 0.54058 0.0
C3741 C 0.69671 0.53159 0.55531 0.0
C3742 C 0.68457 0.45924 0.54875 0.0
C3743 C 0.7263 0.5348 0.52887 0.0
H3744 H 0.77593 0.48452 0.5533 0.0
H3745 H 0.74159 0.46515 0.4826 0.0
H3746 H 0.74265 0.51532 0.5761 0.0
H3747 H 0.72867 0.4878 0.58095 0.0
H3748 H 0.75889 0.49602 0.58473 0.0
H3749 H 0.70281 0.465 0.47335 0.0
H3750 H 0.68667 0.47039 0.4966 0.0
H3751 H 0.70263 0.49334 0.48462 0.0
H3752 H 0.66498 0.48646 0.57471 0.0
H3753 H 0.69981 0.54978 0.55765 0.0
H3754 H 0.69773 0.45513 0.561 0.0
H3755 H 0.68557 0.45146 0.53078 0.0
H3756 H 0.66792 0.45161 0.55365 0.0
H3757 H 0.74306 0.53669 0.53923 0.0
H3758 H 0.72357 0.55186 0.5278 0.0
H3759 H 0.7266 0.52654 0.5109 0.0
C3760 C 0.19716 0.15163 0.52159 0.0
C3761 C 0.21374 0.14154 0.51382 0.0
C3762 C 0.17638 0.13857 0.52511 0.0
C3763 C 0.17191 0.11486 0.52025 0.0
C3764 C 0.18821 0.10459 0.51149 0.0
C3765 C 0.20907 0.11806 0.50862 0.0
C3766 C 0.15964 0.15012 0.53504 0.0
C3767 C 0.18366 0.07936 0.50544 0.0
C3768 C 0.12782 0.07925 0.55004 0.0
C3769 C 0.109 0.07459 0.53275 0.0
C3770 C 0.1484 0.09264 0.54634 0.0
C3771 C 0.15024 0.10078 0.52452 0.0
C3772 C 0.13133 0.09561 0.50681 0.0
C3773 C 0.11082 0.08284 0.5113 0.0
C3774 C 0.16802 0.09845 0.5659 0.0
C3775 C 0.13265 0.10382 0.48328 0.0
H3776 H 0.2008 0.16975 0.52602 0.0
H3777 H 0.22184 0.1102 0.50264 0.0
H3778 H 0.14298 0.14431 0.52397 0.0
H3779 H 0.15744 0.1457 0.55284 0.0
H3780 H 0.16511 0.16872 0.5364 0.0
H3781 H 0.19811 0.07398 0.49886 0.0
H3782 H 0.17984 0.0712 0.52113 0.0
H3783 H 0.16868 0.07314 0.49179 0.0
H3784 H 0.1262 0.07308 0.56674 0.0
H3785 H 0.09618 0.07914 0.49792 0.0
H3786 H 0.17385 0.11698 0.57058 0.0
H3787 H 0.1823 0.09229 0.55998 0.0
H3788 H 0.16367 0.09109 0.58193 0.0
H3789 H 0.13509 0.12234 0.48558 0.0
H3790 H 0.11718 0.09616 0.47055 0.0
H3791 H 0.14728 0.09994 0.47565 0.0
C3792 C 0.17864 0.97993 0.80644 0.0
C3793 C 0.18142 0.99606 0.79108 0.0
C3794 C 0.18662 0.96041 0.80228 0.0
C3795 C 0.19734 0.95703 0.78225 0.0
C3796 C 0.19933 0.97289 0.76629 0.0
C3797 C 0.19152 0.99223 0.77101 0.0
C3798 C 0.1841 0.94375 0.81955 0.0
C3799 C 0.20997 0.9696 0.74425 0.0
C3800 C 0.24239 0.92562 0.77588 0.0
C3801 C 0.23098 0.90771 0.75863 0.0
C3802 C 0.23099 0.94082 0.78568 0.0
C3803 C 0.20772 0.93775 0.77808 0.0
C3804 C 0.19579 0.91831 0.7624 0.0
C3805 C 0.20767 0.90355 0.75269 0.0
C3806 C 0.24433 0.96142 0.80219 0.0
C3807 C 0.17086 0.91408 0.75444 0.0
H3808 H 0.17065 0.98277 0.82187 0.0
H3809 H 0.19326 1.00438 0.75877 0.0
H3810 H 0.17738 0.92637 0.81021 0.0
H3811 H 0.20083 0.94447 0.82933 0.0
H3812 H 0.17282 0.94724 0.83242 0.0
H3813 H 0.20971 0.9833 0.73341 0.0
H3814 H 0.22769 0.96886 0.74898 0.0
H3815 H 0.20097 0.95341 0.73334 0.0
H3816 H 0.26047 0.9287 0.78035 0.0
H3817 H 0.19897 0.88943 0.73947 0.0
H3818 H 0.23533 0.96478 0.81723 0.0
H3819 H 0.24636 0.97625 0.79271 0.0
H3820 H 0.2613 0.95968 0.80905 0.0
H3821 H 0.16174 0.91311 0.76989 0.0
H3822 H 0.16418 0.89823 0.742 0.0
H3823 H 0.16717 0.92822 0.74573 0.0
C3824 C 0.37187 0.9828 0.01821 0.0
C3825 C 0.36729 0.96098 0.00601 0.0
C3826 C 0.39336 0.9932 0.02963 0.0
C3827 C 0.41049 0.98167 0.02786 0.0
C3828 C 0.40572 0.95921 0.0167 0.0
C3829 C 0.38392 0.94899 0.00588 0.0
C3830 C 0.39807 0.01698 0.04219 0.0
C3831 C 0.42388 0.94658 0.01494 0.0
C3832 C 0.46441 0.01764 0.01719 0.0
C3833 C 0.47779 0.01958 0.03876 0.0
C3834 C 0.44231 1.0053 0.01359 0.0
C3835 C 0.43364 0.99475 0.03217 0.0
C3836 C 0.44692 0.99696 0.0542 0.0
C3837 C 0.46903 0.00968 0.05727 0.0
C3838 C 0.42851 1.00315 0.98972 0.0
C3839 C 0.43796 0.98613 0.07446 0.0
H3840 H 0.35858 0.9916 0.01918 0.0
H3841 H 0.37991 0.93181 0.99703 0.0
H3842 H 0.40925 0.01897 0.0591 0.0
H3843 H 0.40683 0.02878 0.03118 0.0
H3844 H 0.38239 0.02187 0.04573 0.0
H3845 H 0.41686 0.92844 0.00826 0.0
H3846 H 0.4353 0.95392 0.00281 0.0
H3847 H 0.43414 0.94825 0.03236 0.0
H3848 H 0.47143 0.02502 0.00281 0.0
H3849 H 0.47937 0.01182 0.07401 0.0
H3850 H 0.41358 0.01003 0.99152 0.0
H3851 H 0.4224 0.98518 0.98202 0.0
H3852 H 0.43821 0.01219 0.97719 0.0
H3853 H 0.42823 0.99679 0.08333 0.0
H3854 H 0.45178 0.98442 0.08767 0.0
H3855 H 0.42654 0.96928 0.06835 0.0
C3856 C 0.87106 0.598 0.83177 0.0
C3857 C 0.85663 0.57658 0.82477 0.0
C3858 C 0.86579 0.61688 0.82337 0.0
C3859 C 0.84579 0.61398 0.80762 0.0
C3860 C 0.83101 0.59245 0.80091 0.0
C3861 C 0.83647 0.57408 0.80987 0.0
C3862 C 0.88169 0.63972 0.83097 0.0
C3863 C 0.80985 0.58858 0.78344 0.0
C3864 C 0.81226 0.65533 0.79435 0.0
C3865 C 0.81611 0.65762 0.77126 0.0
C3866 C 0.82407 0.64319 0.80779 0.0
C3867 C 0.8398 0.63309 0.79766 0.0
C3868 C 0.84535 0.63731 0.77525 0.0
C3869 C 0.83338 0.64966 0.76227 0.0
C3870 C 0.81792 0.6391 0.83173 0.0
C3871 C 0.8626 0.62734 0.76421 0.0
H3872 H 0.88677 0.59992 0.84316 0.0
H3873 H 0.82537 0.55754 0.8042 0.0
H3874 H 0.88661 0.64752 0.8154 0.0
H3875 H 0.87312 0.65097 0.84079 0.0
H3876 H 0.89715 0.63887 0.84232 0.0
H3877 H 0.80048 0.57063 0.7798 0.0
H3878 H 0.79854 0.59865 0.79016 0.0
H3879 H 0.81417 0.59411 0.76658 0.0
H3880 H 0.799 0.66174 0.80134 0.0
H3881 H 0.83679 0.65224 0.74468 0.0
H3882 H 0.83318 0.64032 0.8444 0.0
H3883 H 0.80712 0.62185 0.83045 0.0
H3884 H 0.8086 0.65121 0.83875 0.0
H3885 H 0.87945 0.63471 0.77454 0.0
H3886 H 0.86335 0.63059 0.74579 0.0
H3887 H 0.85884 0.6089 0.76434 0.0
C3888 C 0.8306 0.62523 0.04468 0.0
C3889 C 0.83265 0.64611 0.03673 0.0
C3890 C 0.84923 0.61616 0.04861 0.0
C3891 C 0.8705 0.62834 0.04458 0.0
C3892 C 0.8724 0.64866 0.03493 0.0
C3893 C 0.85332 0.65731 0.03097 0.0
C3894 C 0.84642 0.59436 0.05884 0.0
C3895 C 0.89474 0.6617 0.02984 0.0
C3896 C 0.91499 0.61785 0.08873 0.0
C3897 C 0.92023 0.59916 0.07664 0.0
C3898 C 0.90014 0.62884 0.07778 0.0
C3899 C 0.89077 0.62129 0.05395 0.0
C3900 C 0.89807 0.60417 0.04089 0.0
C3901 C 0.91261 0.59309 0.05248 0.0
C3902 C 0.89285 0.64707 0.09239 0.0
C3903 C 0.88907 0.59621 0.01526 0.0
H3904 H 0.81453 0.61634 0.04875 0.0
H3905 H 0.85486 0.67338 0.02463 0.0
H3906 H 0.85391 0.58243 0.04855 0.0
H3907 H 0.85536 0.59768 0.07711 0.0
H3908 H 0.82849 0.58615 0.05915 0.0
H3909 H 0.89354 0.67761 0.02311 0.0
H3910 H 0.90732 0.66577 0.04595 0.0
H3911 H 0.90112 0.65123 0.01661 0.0
H3912 H 0.92154 0.62309 0.1072 0.0
H3913 H 0.91681 0.5788 0.04296 0.0
H3914 H 0.87506 0.64085 0.09492 0.0
H3915 H 0.89388 0.66205 0.08326 0.0
H3916 H 0.90323 0.65232 0.10998 0.0
H3917 H 0.87242 0.58422 0.01369 0.0
H3918 H 0.90041 0.58745 0.0064 0.0
H3919 H 0.88681 0.61045 0.00592 0.0
C3920 C 0.17978 0.13798 0.81172 0.0
C3921 C 0.18801 0.11916 0.81591 0.0
C3922 C 0.19425 0.15809 0.80813 0.0
C3923 C 0.21758 0.15954 0.80902 0.0
C3924 C 0.2261 0.14091 0.81412 0.0
C3925 C 0.21123 0.12095 0.81743 0.0
C3926 C 0.1844 0.17741 0.80233 0.0
C3927 C 0.25092 0.14195 0.81573 0.0
C3928 C 0.25352 0.20259 0.77786 0.0
C3929 C 0.26208 0.22043 0.79616 0.0
C3930 C 0.23858 0.18284 0.78165 0.0
C3931 C 0.23312 0.1805 0.80456 0.0
C3932 C 0.24261 0.19817 0.82327 0.0
C3933 C 0.25659 0.21811 0.81874 0.0
C3934 C 0.22812 0.16479 0.76104 0.0
C3935 C 0.23774 0.19618 0.84804 0.0
H3936 H 0.16187 0.13672 0.81022 0.0
H3937 H 0.21779 0.10653 0.82065 0.0
H3938 H 0.1935 0.19316 0.81392 0.0
H3939 H 0.18636 0.18016 0.78398 0.0
H3940 H 0.16626 0.17427 0.80414 0.0
H3941 H 0.25486 0.12594 0.8196 0.0
H3942 H 0.25697 0.14587 0.79899 0.0
H3943 H 0.26044 0.15569 0.82974 0.0
H3944 H 0.25758 0.20459 0.76035 0.0
H3945 H 0.26335 0.23192 0.83291 0.0
H3946 H 0.20953 0.1616 0.75918 0.0
H3947 H 0.23255 0.14882 0.7641 0.0
H3948 H 0.23364 0.16947 0.74427 0.0
H3949 H 0.21975 0.19555 0.84889 0.0
H3950 H 0.2481 0.21052 0.86092 0.0
H3951 H 0.24094 0.18033 0.85333 0.0
C3952 C 0.35227 0.95929 0.30727 0.0
C3953 C 0.37224 0.96196 0.32257 0.0
C3954 C 0.34089 0.93821 0.29556 0.0
C3955 C 0.34931 0.91955 0.30025 0.0
C3956 C 0.37033 0.92233 0.31426 0.0
C3957 C 0.3818 0.94383 0.32523 0.0
C3958 C 0.31903 0.93567 0.27965 0.0
C3959 C 0.37985 0.9025 0.31883 0.0
C3960 C 0.30459 0.87046 0.30868 0.0
C3961 C 0.30455 0.85512 0.28899 0.0
C3962 C 0.31937 0.89152 0.31254 0.0
C3963 C 0.33375 0.89749 0.29572 0.0
C3964 C 0.33268 0.88273 0.27497 0.0
C3965 C 0.3178 0.86165 0.2719 0.0
C3966 C 0.32008 0.90702 0.33498 0.0
C3967 C 0.34695 0.88898 0.25603 0.0
H3968 H 0.34564 0.97374 0.3043 0.0
H3969 H 0.3978 0.9464 0.33632 0.0
H3970 H 0.31788 0.92353 0.26362 0.0
H3971 H 0.30474 0.92902 0.28898 0.0
H3972 H 0.31719 0.95197 0.27431 0.0
H3973 H 0.39745 0.90781 0.32788 0.0
H3974 H 0.36942 0.89222 0.32996 0.0
H3975 H 0.37933 0.8916 0.30205 0.0
H3976 H 0.29384 0.86576 0.32165 0.0
H3977 H 0.31649 0.85033 0.25626 0.0
H3978 H 0.31605 0.92289 0.33081 0.0
H3979 H 0.33723 0.9114 0.34512 0.0
H3980 H 0.30801 0.89939 0.34637 0.0
H3981 H 0.33858 0.89865 0.24438 0.0
H3982 H 0.349 0.87382 0.24502 0.0
H3983 H 0.36384 0.89967 0.26352 0.0
C3984 C 0.59253 0.38393 0.58498 0.0
C3985 C 0.5762 0.36772 0.59323 0.0
C3986 C 0.58915 0.40544 0.5806 0.0
C3987 C 0.56858 0.4115 0.58381 0.0
C3988 C 0.55194 0.3951 0.5919 0.0
C3989 C 0.55598 0.37393 0.5967 0.0
C3990 C 0.60794 0.42194 0.57278 0.0
C3991 C 0.52956 0.39988 0.59535 0.0
C3992 C 0.56684 0.47525 0.59162 0.0
C3993 C 0.55715 0.47849 0.5693 0.0
C3994 C 0.57027 0.45394 0.59657 0.0
C3995 C 0.56451 0.43471 0.57882 0.0
C3996 C 0.55479 0.43794 0.55624 0.0
C3997 C 0.55107 0.45932 0.55191 0.0
C3998 C 0.58022 0.45208 0.62107 0.0
C3999 C 0.54868 0.41876 0.53625 0.0
H4000 H 0.60839 0.37999 0.58236 0.0
H4001 H 0.543 0.362 0.60296 0.0
H4002 H 0.60178 0.42766 0.55633 0.0
H4003 H 0.61386 0.43702 0.58635 0.0
H4004 H 0.62245 0.41467 0.56981 0.0
H4005 H 0.51858 0.38616 0.60257 0.0
H4006 H 0.53206 0.41582 0.60744 0.0
H4007 H 0.52076 0.40209 0.57829 0.0
H4008 H 0.57164 0.48949 0.60552 0.0
H4009 H 0.54371 0.46111 0.53453 0.0
H4010 H 0.59674 0.44792 0.62064 0.0
H4011 H 0.56918 0.43822 0.62801 0.0
H4012 H 0.58259 0.46787 0.63339 0.0
H4013 H 0.56424 0.41447 0.53142 0.0
H4014 H 0.53941 0.42297 0.52044 0.0
H4015 H 0.53823 0.40358 0.54168 0.0
C4016 C 0.42794 0.76338 0.38953 0.0
C4017 C 0.44263 0.78407 0.39945 0.0
C4018 C 0.40727 0.76244 0.37566 0.0
C4019 C 0.40077 0.78261 0.37219 0.0
C4020 C 0.41493 0.80339 0.38351 0.0
C4021 C 0.43582 0.8039 0.39648 0.0
C4022 C 0.39274 0.73992 0.36402 0.0
C4023 C 0.408 0.82517 0.38188 0.0
C4024 C 0.36315 0.78791 0.31696 0.0
C4025 C 0.34183 0.78501 0.32414 0.0
C4026 C 0.38205 0.7861 0.33204 0.0
C4027 C 0.38008 0.78235 0.35553 0.0
C4028 C 0.35868 0.77962 0.3631 0.0
C4029 C 0.33984 0.7804 0.34722 0.0
C4030 C 0.40429 0.78853 0.32286 0.0
C4031 C 0.3554 0.77602 0.38797 0.0
H4032 H 0.43301 0.74797 0.39187 0.0
H4033 H 0.44681 0.81992 0.40456 0.0
H4034 H 0.3754 0.73786 0.36831 0.0
H4035 H 0.3917 0.73904 0.34464 0.0
H4036 H 0.39938 0.72571 0.36949 0.0
H4037 H 0.42003 0.83969 0.39313 0.0
H4038 H 0.40682 0.8286 0.36343 0.0
H4039 H 0.3911 0.82379 0.38728 0.0
H4040 H 0.36531 0.79186 0.29959 0.0
H4041 H 0.3236 0.77804 0.35328 0.0
H4042 H 0.41152 0.77412 0.32635 0.0
H4043 H 0.41636 0.80405 0.33215 0.0
H4044 H 0.40269 0.78938 0.30368 0.0
H4045 H 0.35257 0.75782 0.38928 0.0
H4046 H 0.34048 0.78157 0.39306 0.0
H4047 H 0.37032 0.78514 0.40079 0.0
C4048 C 0.04647 0.72094 0.0778 0.0
C4049 C 0.0648 0.73623 0.09216 0.0
C4050 C 0.04477 0.69726 0.07431 0.0
C4051 C 0.06144 0.68795 0.08588 0.0
C4052 C 0.07998 0.70337 0.10041 0.0
C4053 C 0.08139 0.72695 0.10329 0.0
C4054 C 0.02456 0.68203 0.05878 0.0
C4055 C 0.09813 0.69492 0.11366 0.0
C4056 C 0.04448 0.62461 0.09428 0.0
C4057 C 0.05399 0.61371 0.07668 0.0
C4058 C 0.0472 0.64842 0.09781 0.0
C4059 C 0.05929 0.66229 0.08308 0.0
C4060 C 0.06906 0.65137 0.06544 0.0
C4061 C 0.06645 0.6276 0.0626 0.0
C4062 C 0.03708 0.65876 0.11751 0.0
C4063 C 0.08196 0.6648 0.04902 0.0
H4064 H 0.03295 0.72742 0.06987 0.0
H4065 H 0.0952 0.73819 0.11525 0.0
H4066 H 0.02991 0.67032 0.04586 0.0
H4067 H 0.0139 0.67168 0.06965 0.0
H4068 H 0.01423 0.69161 0.04914 0.0
H4069 H 0.11033 0.70858 0.12588 0.0
H4070 H 0.09058 0.68171 0.12389 0.0
H4071 H 0.10741 0.68717 0.10104 0.0
H4072 H 0.03493 0.61448 0.10554 0.0
H4073 H 0.07364 0.61982 0.04867 0.0
H4074 H 0.02403 0.66683 0.11019 0.0
H4075 H 0.05018 0.67209 0.12911 0.0
H4076 H 0.02933 0.64615 0.12832 0.0
H4077 H 0.07077 0.67326 0.03896 0.0
H4078 H 0.08886 0.65417 0.03642 0.0
H4079 H 0.09604 0.67812 0.05923 0.0
C4080 C 0.07979 0.25015 0.90711 0.0
C4081 C 0.06863 0.26756 0.90717 0.0
C4082 C 0.09997 0.25176 0.89757 0.0
C4083 C 0.10872 0.27086 0.887 0.0
C4084 C 0.09738 0.28848 0.88699 0.0
C4085 C 0.07768 0.28679 0.89747 0.0
C4086 C 0.11199 0.23311 0.89893 0.0
C4087 C 0.10575 0.30889 0.87535 0.0
C4088 C 0.169 0.29024 0.87564 0.0
C4089 C 0.16669 0.28419 0.85125 0.0
C4090 C 0.15064 0.28444 0.88796 0.0
C4091 C 0.12942 0.27248 0.87548 0.0
C4092 C 0.12759 0.26456 0.85119 0.0
C4093 C 0.14629 0.27055 0.83934 0.0
C4094 C 0.15351 0.29295 0.91388 0.0
C4095 C 0.10539 0.25153 0.83727 0.0
H4096 H 0.07288 0.23539 0.91493 0.0
H4097 H 0.06896 0.30018 0.89743 0.0
H4098 H 0.11363 0.22573 0.88101 0.0
H4099 H 0.12926 0.23997 0.90851 0.0
H4100 H 0.10312 0.21951 0.90799 0.0
H4101 H 0.09562 0.32151 0.87772 0.0
H4102 H 0.12353 0.31702 0.88258 0.0
H4103 H 0.1051 0.30364 0.85624 0.0
H4104 H 0.18469 0.30114 0.88476 0.0
H4105 H 0.1444 0.26623 0.8204 0.0
H4106 H 0.14498 0.2797 0.92351 0.0
H4107 H 0.14564 0.30735 0.91656 0.0
H4108 H 0.17151 0.29868 0.92165 0.0
H4109 H 0.09779 0.2372 0.84609 0.0
H4110 H 0.10716 0.24496 0.81907 0.0
H4111 H 0.09353 0.26259 0.83636 0.0
C4112 C 0.57996 0.76088 0.94315 0.0
C4113 C 0.56175 0.76387 0.92798 0.0
C4114 C 0.57845 0.74128 0.95377 0.0
C4115 C 0.55813 0.72434 0.94942 0.0
C4116 C 0.53989 0.72701 0.93368 0.0
C4117 C 0.54195 0.74667 0.92308 0.0
C4118 C 0.59853 0.73879 0.96978 0.0
C4119 C 0.51789 0.70939 0.92858 0.0
C4120 C 0.55181 0.66452 0.96337 0.0
C4121 C 0.54151 0.66557 0.98368 0.0
C4122 C 0.55873 0.68387 0.95271 0.0
C4123 C 0.5551 0.70462 0.9626 0.0
C4124 C 0.54618 0.70595 0.9841 0.0
C4125 C 0.53939 0.68637 0.99431 0.0
C4126 C 0.56846 0.68169 0.93003 0.0
C4127 C 0.54247 0.72779 0.99554 0.0
H4128 H 0.59549 0.77389 0.94671 0.0
H4129 H 0.52787 0.74873 0.91128 0.0
H4130 H 0.59423 0.73733 0.98773 0.0
H4131 H 0.60331 0.72313 0.96339 0.0
H4132 H 0.61331 0.75322 0.97087 0.0
H4133 H 0.5061 0.71295 0.91435 0.0
H4134 H 0.52082 0.69254 0.92344 0.0
H4135 H 0.50974 0.70868 0.94472 0.0
H4136 H 0.5533 0.64835 0.95513 0.0
H4137 H 0.53138 0.68708 0.01003 0.0
H4138 H 0.58296 0.69608 0.92994 0.0
H4139 H 0.55552 0.68181 0.91513 0.0
H4140 H 0.574 0.66581 0.92703 0.0
H4141 H 0.55818 0.74127 0.9978 0.0
H4142 H 0.53682 0.72635 0.01298 0.0
H4143 H 0.52957 0.73307 0.98403 0.0
C4144 C 0.10612 0.76519 0.75847 0.0
C4145 C 0.09602 0.76816 0.73631 0.0
C4146 C 0.12982 0.76681 0.76343 0.0
C4147 C 0.14424 0.77134 0.74594 0.0
C4148 C 0.13398 0.77379 0.72351 0.0
C4149 C 0.11058 0.77235 0.71915 0.0
C4150 C 0.13956 0.76382 0.78758 0.0
C4151 C 0.14771 0.77745 0.70364 0.0
C4152 C 0.20884 0.79798 0.76004 0.0
C4153 C 0.21842 0.77934 0.75749 0.0
C4154 C 0.18509 0.79552 0.75718 0.0
C4155 C 0.16991 0.77391 0.75077 0.0
C4156 C 0.1796 0.75509 0.74749 0.0
C4157 C 0.20338 0.75798 0.75138 0.0
C4158 C 0.17618 0.81625 0.76111 0.0
C4159 C 0.16491 0.7317 0.7397 0.0
H4160 H 0.09557 0.76168 0.772 0.0
H4161 H 0.10362 0.77432 0.70169 0.0
H4162 H 0.14871 0.7503 0.78628 0.0
H4163 H 0.15192 0.77955 0.79592 0.0
H4164 H 0.12644 0.75955 0.79909 0.0
H4165 H 0.13765 0.78001 0.68746 0.0
H4166 H 0.16214 0.79228 0.70892 0.0
H4167 H 0.15467 0.76264 0.69942 0.0
H4168 H 0.21997 0.8146 0.76495 0.0
H4169 H 0.21026 0.74338 0.74912 0.0
H4170 H 0.16415 0.8141 0.77404 0.0
H4171 H 0.16688 0.81871 0.74445 0.0
H4172 H 0.18979 0.83164 0.76759 0.0
H4173 H 0.15653 0.72568 0.75455 0.0
H4174 H 0.17474 0.71962 0.73382 0.0
H4175 H 0.15158 0.73165 0.72511 0.0
C4176 C 0.06918 0.40326 0.44444 0.0
C4177 C 0.04861 0.38834 0.43466 0.0
C4178 C 0.06994 0.42389 0.45834 0.0
C4179 C 0.04969 0.43015 0.46192 0.0
C4180 C 0.02895 0.41562 0.45099 0.0
C4181 C 0.02864 0.39476 0.43799 0.0
C4182 C 0.09239 0.43866 0.46981 0.0
C4183 C 1.00704 0.42217 0.45293 0.0
C4184 C 0.04603 0.46907 0.51694 0.0
C4185 C 0.04855 0.49017 0.50924 0.0
C4186 C 0.0471 0.44978 0.502 0.0
C4187 C 0.04998 0.45113 0.47821 0.0
C4188 C 0.05235 0.4723 0.47011 0.0
C4189 C 0.05209 0.49152 0.48577 0.0
C4190 C 0.0448 0.42778 0.5117 0.0
C4191 C 0.05507 0.47486 0.44489 0.0
H4192 H 0.08467 0.39846 0.44191 0.0
H4193 H 1.01269 0.38354 0.43009 0.0
H4194 H 0.09434 0.45586 0.46511 0.0
H4195 H 0.09326 0.4401 0.48921 0.0
H4196 H 0.10666 0.43199 0.46459 0.0
H4197 H 0.99247 0.40967 0.44231 0.0
H4198 H 1.00411 0.4239 0.47154 0.0
H4199 H 1.00786 0.43877 0.44695 0.0
H4200 H 0.04281 0.46736 0.53459 0.0
H4201 H 0.05406 0.50756 0.47929 0.0
H4202 H 0.05913 0.42043 0.50819 0.0
H4203 H 0.0292 0.41558 0.50278 0.0
H4204 H 0.0442 0.42978 0.53092 0.0
H4205 H 0.07302 0.47696 0.44278 0.0
H4206 H 0.04982 0.48992 0.43976 0.0
H4207 H 0.04517 0.45987 0.43261 0.0
C4208 C 0.45212 0.26757 0.22758 0.0
C4209 C 0.46204 0.25234 0.23899 0.0
C4210 C 0.43041 0.27091 0.2312 0.0
C4211 C 0.41753 0.25893 0.24681 0.0
C4212 C 0.42737 0.24341 0.25819 0.0
C4213 C 0.44908 0.24036 0.25423 0.0
C4214 C 0.42121 0.28743 0.21818 0.0
C4215 C 0.41474 0.22965 0.27454 0.0
C4216 C 0.37066 0.28229 0.27465 0.0
C4217 C 0.35022 0.2693 0.26147 0.0
C4218 C 0.39217 0.27931 0.26995 0.0
C4219 C 0.39416 0.26274 0.25151 0.0
C4220 C 0.37356 0.24967 0.23801 0.0
C4221 C 0.35225 0.25312 0.243 0.0
C4222 C 0.41297 0.29398 0.28507 0.0
C4223 C 0.37387 0.23204 0.21786 0.0
H4224 H 0.46135 0.27697 0.21559 0.0
H4225 H 0.45588 0.22833 0.26313 0.0
H4226 H 0.4042 0.27923 0.20854 0.0
H4227 H 0.41946 0.30157 0.23091 0.0
H4228 H 0.43217 0.29434 0.20546 0.0
H4229 H 0.42456 0.21878 0.28272 0.0
H4230 H 0.41033 0.2409 0.28867 0.0
H4231 H 0.39874 0.21883 0.2647 0.0
H4232 H 0.36995 0.29494 0.28894 0.0
H4233 H 0.33704 0.24288 0.23233 0.0
H4234 H 0.42427 0.30316 0.2739 0.0
H4235 H 0.42232 0.28334 0.2943 0.0
H4236 H 0.409 0.30641 0.29836 0.0
H4237 H 0.37952 0.24044 0.20286 0.0
H4238 H 0.35699 0.22056 0.21187 0.0
H4239 H 0.38589 0.22187 0.22282 0.0
C4240 C 0.60373 0.56745 0.38963 0.0
C4241 C 0.61104 0.55047 0.37667 0.0
C4242 C 0.59859 0.56577 0.41264 0.0
C4243 C 0.60018 0.54634 0.42306 0.0
C4244 C 0.60762 0.52915 0.41011 0.0
C4245 C 0.61322 0.53154 0.3873 0.0
C4246 C 0.59135 0.58485 0.42581 0.0
C4247 C 0.60878 0.50774 0.41993 0.0
C4248 C 0.59845 0.54702 0.48967 0.0
C4249 C 0.57524 0.53981 0.49051 0.0
C4250 C 0.60691 0.54941 0.46804 0.0
C4251 C 0.59204 0.54324 0.44644 0.0
C4252 C 0.56887 0.53482 0.44719 0.0
C4253 C 0.56087 0.5339 0.46897 0.0
C4254 C 0.63165 0.55928 0.46835 0.0
C4255 C 0.5522 0.52721 0.42493 0.0
H4256 H 0.6023 0.58233 0.38187 0.0
H4257 H 0.61887 0.5183 0.37757 0.0
H4258 H 0.57369 0.57909 0.42891 0.0
H4259 H 0.60186 0.59038 0.44327 0.0
H4260 H 0.59262 0.59952 0.4161 0.0
H4261 H 0.61748 0.49727 0.40921 0.0
H4262 H 0.61758 0.51151 0.43825 0.0
H4263 H 0.59146 0.49779 0.42035 0.0
H4264 H 0.60999 0.5517 0.50597 0.0
H4265 H 0.54314 0.52866 0.46885 0.0
H4266 H 0.63403 0.57483 0.46 0.0
H4267 H 0.63903 0.54733 0.45793 0.0
H4268 H 0.64102 0.56345 0.48646 0.0
H4269 H 0.5498 0.54206 0.41675 0.0
H4270 H 0.53555 0.51773 0.42832 0.0
H4271 H 0.55855 0.51637 0.41203 0.0
C4272 C 0.31471 0.91649 0.07644 0.0
C4273 C 0.29473 0.91154 0.06076 0.0
C4274 C 0.31587 0.9064 0.09675 0.0
C4275 C 0.29633 0.89159 0.10162 0.0
C4276 C 0.27557 0.8884 0.087 0.0
C4277 C 0.27511 0.89805 0.06625 0.0
C4278 C 0.33846 0.90998 0.11171 0.0
C4279 C 0.25423 0.87385 0.09263 0.0
C4280 C 0.31426 0.84516 0.12855 0.0
C4281 C 0.3172 0.85364 0.15237 0.0
C4282 C 0.30512 0.8563 0.11172 0.0
C4283 C 0.29898 0.87647 0.1191 0.0
C4284 C 0.29989 0.88394 0.14329 0.0
C4285 C 0.30908 0.87234 0.1598 0.0
C4286 C 0.30424 0.8477 0.08604 0.0
C4287 C 0.29316 0.90517 0.15178 0.0
H4288 H 0.32986 0.92701 0.072 0.0
H4289 H 0.25962 0.89474 0.05413 0.0
H4290 H 0.33714 0.9144 0.13052 0.0
H4291 H 0.34421 0.89417 0.10989 0.0
H4292 H 0.35148 0.92349 0.10658 0.0
H4293 H 0.23919 0.87492 0.08072 0.0
H4294 H 0.25531 0.85606 0.09106 0.0
H4295 H 0.25201 0.87899 0.11105 0.0
H4296 H 0.32007 0.83033 0.12305 0.0
H4297 H 0.31115 0.87867 0.17838 0.0
H4298 H 0.31755 0.85902 0.07864 0.0
H4299 H 0.28785 0.84758 0.07594 0.0
H4300 H 0.3069 0.83043 0.08337 0.0
H4301 H 0.30783 0.91975 0.1533 0.0
H4302 H 0.28773 0.90457 0.1694 0.0
H4303 H 0.27942 0.90812 0.13937 0.0
C4304 C 0.9307 0.52259 0.91302 0.0
C4305 C 0.94052 0.53874 0.89975 0.0
C4306 C 0.94181 0.52094 0.93487 0.0
C4307 C 0.96276 0.5361 0.94325 0.0
C4308 C 0.9721 0.55316 0.93029 0.0
C4309 C 0.96086 0.55407 0.90835 0.0
C4310 C 0.93184 0.50242 0.94836 0.0
C4311 C 0.9946 0.56947 0.93889 0.0
C4312 C 0.99044 0.54846 0.00541 0.0
C4313 C 1.00672 0.53599 0.00446 0.0
C4314 C 0.97447 0.54693 0.98599 0.0
C4315 C 0.97581 0.53365 0.96497 0.0
C4316 C 0.99185 0.52058 0.96401 0.0
C4317 C 1.00696 0.52161 0.98408 0.0
C4318 C 0.95701 0.56047 0.98757 0.0
C4319 C 0.99368 0.50626 0.94167 0.0
H4320 H 0.91512 0.51041 0.90565 0.0
H4321 H 0.96833 0.56612 0.89748 0.0
H4322 H 0.94299 0.49071 0.94986 0.0
H4323 H 0.93062 0.50957 0.9665 0.0
H4324 H 0.9149 0.49263 0.93976 0.0
H4325 H 0.9987 0.58247 0.92721 0.0
H4326 H 0.99478 0.57802 0.95686 0.0
H4327 H 1.00802 0.56017 0.9398 0.0
H4328 H 0.99024 0.55957 0.02125 0.0
H4329 H 0.01944 0.51177 0.98359 0.0
H4330 H 0.94006 0.54979 0.98031 0.0
H4331 H 0.9606 0.57438 0.9769 0.0
H4332 H 0.9567 0.56779 0.00595 0.0
H4333 H 0.97873 0.49186 0.93729 0.0
H4334 H 1.00894 0.49954 0.94331 0.0
H4335 H 0.99414 0.51605 0.92671 0.0
C4336 C 0.29418 0.23862 0.60204 0.0
C4337 C 0.28399 0.21609 0.59301 0.0
C4338 C 0.29551 0.24665 0.62621 0.0
C4339 C 0.28594 0.23199 0.64164 0.0
C4340 C 0.27513 0.20939 0.63236 0.0
C4341 C 0.27449 0.20175 0.60839 0.0
C4342 C 0.30762 0.27071 0.63539 0.0
C4343 C 0.26393 0.19325 0.64769 0.0
C4344 C 0.30572 0.24521 0.70811 0.0
C4345 C 0.28926 0.25533 0.71642 0.0
C4346 C 0.30496 0.23777 0.68396 0.0
C4347 C 0.28717 0.24015 0.66743 0.0
C4348 C 0.2703 0.24991 0.67569 0.0
C4349 C 0.27173 0.25762 0.69986 0.0
C4350 C 0.32326 0.22731 0.67614 0.0
C4351 C 0.25072 0.25238 0.65892 0.0
H4352 H 0.30168 0.24979 0.59038 0.0
H4353 H 0.26627 0.18436 0.60157 0.0
H4354 H 0.29636 0.27941 0.64439 0.0
H4355 H 0.32226 0.2711 0.6486 0.0
H4356 H 0.31365 0.28018 0.6212 0.0
H4357 H 0.25743 0.17589 0.63815 0.0
H4358 H 0.27589 0.19277 0.66333 0.0
H4359 H 0.24969 0.1991 0.65415 0.0
H4360 H 0.31943 0.2432 0.72045 0.0
H4361 H 0.25917 0.26568 0.70566 0.0
H4362 H 0.33137 0.23655 0.66277 0.0
H4363 H 0.31592 0.20968 0.66775 0.0
H4364 H 0.33637 0.22736 0.69096 0.0
H4365 H 0.2568 0.26488 0.64731 0.0
H4366 H 0.23776 0.25797 0.66825 0.0
H4367 H 0.24272 0.23619 0.64751 0.0
C4368 C 0.59438 0.54891 0.232 0.0
C4369 C 0.6157 0.54533 0.23886 0.0
C4370 C 0.58633 0.54884 0.20806 0.0
C4371 C 0.5998 0.5451 0.19036 0.0
C4372 C 0.62144 0.54178 0.19724 0.0
C4373 C 0.62902 0.54188 0.22118 0.0
C4374 C 0.56331 0.55276 0.20166 0.0
C4375 C 0.63682 0.53845 0.17932 0.0
C4376 C 0.57066 0.52251 0.12717 0.0
C4377 C 0.57406 0.54192 0.11611 0.0
C4378 C 0.57915 0.52331 0.15107 0.0
C4379 C 0.59113 0.54407 0.16465 0.0
C4380 C 0.59506 0.56363 0.15346 0.0
C4381 C 0.58673 0.56223 0.12943 0.0
C4382 C 0.57538 0.50184 0.16182 0.0
C4383 C 0.60777 0.58619 0.16689 0.0
H4384 H 0.58399 0.55187 0.24534 0.0
H4385 H 0.64569 0.53946 0.22603 0.0
H4386 H 0.56439 0.56679 0.19109 0.0
H4387 H 0.55225 0.53752 0.19063 0.0
H4388 H 0.55539 0.55676 0.2174 0.0
H4389 H 0.6525 0.53456 0.18723 0.0
H4390 H 0.6281 0.5246 0.16507 0.0
H4391 H 0.64147 0.55394 0.17111 0.0
H4392 H 0.56134 0.50657 0.11713 0.0
H4393 H 0.59028 0.57716 0.12108 0.0
H4394 H 0.56593 0.50339 0.17689 0.0
H4395 H 0.59178 0.49881 0.16873 0.0
H4396 H 0.56595 0.487 0.14899 0.0
H4397 H 0.59725 0.5922 0.17933 0.0
H4398 H 0.61217 0.59902 0.15509 0.0
H4399 H 0.62344 0.58482 0.17741 0.0
C4400 C 0.27226 0.88589 0.91629 0.0
C4401 C 0.29268 0.89828 0.92886 0.0
C4402 C 0.27161 0.87464 0.89385 0.0
C4403 C 0.29193 0.8763 0.88428 0.0
C4404 C 0.3121 0.89113 0.89587 0.0
C4405 C 0.31232 0.90179 0.91848 0.0
C4406 C 0.24985 0.85879 0.88189 0.0
C4407 C 0.33371 0.89402 0.88532 0.0
C4408 C 0.30017 0.82319 0.85212 0.0
C4409 C 0.29207 0.82495 0.82908 0.0
C4410 C 0.29968 0.8397 0.87043 0.0
C4411 C 0.29297 0.85926 0.86504 0.0
C4412 C 0.28597 0.86164 0.84166 0.0
C4413 C 0.28398 0.84363 0.82419 0.0
C4414 C 0.30592 0.83593 0.89543 0.0
C4415 C 0.28048 0.88293 0.8349 0.0
H4416 H 0.25726 0.88341 0.92478 0.0
H4417 H 0.32805 0.91161 0.92861 0.0
H4418 H 0.24671 0.86076 0.86311 0.0
H4419 H 0.25098 0.84119 0.8827 0.0
H4420 H 0.23523 0.86157 0.89035 0.0
H4421 H 0.34681 0.90878 0.89474 0.0
H4422 H 0.34035 0.87883 0.88623 0.0
H4423 H 0.33061 0.89599 0.86649 0.0
H4424 H 0.30621 0.80865 0.85599 0.0
H4425 H 0.27692 0.84466 0.80654 0.0
H4426 H 0.29304 0.83922 0.90636 0.0
H4427 H 0.32216 0.84768 0.90323 0.0
H4428 H 0.30758 0.81849 0.89645 0.0
H4429 H 0.26243 0.88204 0.83554 0.0
H4430 H 0.28367 0.88504 0.81666 0.0
H4431 H 0.29055 0.89803 0.84694 0.0
C4432 C 0.92027 0.51013 0.76126 0.0
C4433 C 0.91392 0.52953 0.76955 0.0
C4434 C 0.93094 0.50936 0.7413 0.0
C4435 C 0.93487 0.5284 0.72939 0.0
C4436 C 0.9272 0.54756 0.737 0.0
C4437 C 0.91702 0.54803 0.75741 0.0
C4438 C 0.93926 0.48874 0.73394 0.0
C4439 C 0.93059 0.56778 0.72422 0.0
C4440 C 0.98589 0.52772 0.70059 0.0
C4441 C 0.97594 0.51577 0.67857 0.0
C4442 C 0.97261 0.53455 0.71663 0.0
C4443 C 0.94895 0.52864 0.71047 0.0
C4444 C 0.93908 0.51848 0.6874 0.0
C4445 C 0.95283 0.51227 0.67155 0.0
C4446 C 0.98375 0.54586 0.74095 0.0
C4447 C 0.91392 0.51177 0.68026 0.0
H4448 H 0.91797 0.49603 0.77114 0.0
H4449 H 0.91199 0.56296 0.76422 0.0
H4450 H 0.93393 0.48277 0.71489 0.0
H4451 H 0.95791 0.49307 0.73708 0.0
H4452 H 0.93302 0.47473 0.74382 0.0
H4453 H 0.92263 0.58084 0.73185 0.0
H4454 H 0.94881 0.5753 0.72496 0.0
H4455 H 0.92341 0.56262 0.70541 0.0
H4456 H 1.0039 0.53071 0.70564 0.0
H4457 H 0.94533 0.50313 0.65432 0.0
H4458 H 0.98185 0.53325 0.75329 0.0
H4459 H 0.97572 0.55928 0.74742 0.0
H4460 H 1.00197 0.55331 0.74136 0.0
H4461 H 0.90714 0.4952 0.68577 0.0
H4462 H 0.90939 0.51015 0.66091 0.0
H4463 H 0.90565 0.52404 0.68886 0.0
C4464 C 0.30106 0.22166 0.44712 0.0
C4465 C 0.28007 0.21697 0.4551 0.0
C4466 C 0.30316 0.22736 0.42432 0.0
C4467 C 0.28373 0.22751 0.40869 0.0
C4468 C 0.26239 0.22135 0.41625 0.0
C4469 C 0.26088 0.21672 0.43943 0.0
C4470 C 0.32628 0.23421 0.41733 0.0
C4471 C 0.24108 0.21963 0.3998 0.0
C4472 C 0.28557 0.26674 0.36202 0.0
C4473 C 0.28847 0.25346 0.34172 0.0
C4474 C 0.28524 0.25882 0.38386 0.0
C4475 C 0.28573 0.23621 0.38545 0.0
C4476 C 0.28732 0.22216 0.36476 0.0
C4477 C 0.28936 0.23112 0.34339 0.0
C4478 C 0.28429 0.27483 0.4053 0.0
C4479 C 0.28675 0.19762 0.3649 0.0
H4480 H 0.31595 0.22171 0.45903 0.0
H4481 H 0.24453 0.21254 0.44523 0.0
H4482 H 0.32708 0.22427 0.40039 0.0
H4483 H 0.32985 0.25217 0.41475 0.0
H4484 H 0.33959 0.23194 0.43078 0.0
H4485 H 0.22577 0.2125 0.40749 0.0
H4486 H 0.2402 0.23649 0.39547 0.0
H4487 H 0.24103 0.20888 0.38305 0.0
H4488 H 0.28326 0.28347 0.36099 0.0
H4489 H 0.29102 0.22039 0.32785 0.0
H4490 H 0.29734 0.27414 0.41987 0.0
H4491 H 0.26772 0.26987 0.41142 0.0
H4492 H 0.28687 0.29248 0.40172 0.0
H4493 H 0.30395 0.19585 0.37055 0.0
H4494 H 0.28083 0.18783 0.34708 0.0
H4495 H 0.27565 0.19015 0.37722 0.0
C4496 C 0.3419 0.61885 0.58205 0.0
C4497 C 0.32356 0.60081 0.5729 0.0
C4498 C 0.36381 0.61612 0.58303 0.0
C4499 C 0.36712 0.5953 0.57329 0.0
C4500 C 0.34845 0.57662 0.56558 0.0
C4501 C 0.32675 0.57956 0.56601 0.0
C4502 C 0.38321 0.63585 0.59315 0.0
C4503 C 0.35122 0.55402 0.55501 0.0
C4504 C 0.4089 0.59153 0.53258 0.0
C4505 C 0.41942 0.57634 0.54259 0.0
C4506 C 0.39318 0.60008 0.54377 0.0
C4507 C 0.38892 0.59406 0.56602 0.0
C4508 C 0.40244 0.58203 0.57798 0.0
C4509 C 0.41745 0.57286 0.56588 0.0
C4510 C 0.37917 0.61297 0.53032 0.0
C4511 C 0.39969 0.57743 0.6027 0.0
H4512 H 0.33911 0.63516 0.58807 0.0
H4513 H 0.31229 0.5657 0.55937 0.0
H4514 H 0.39808 0.63025 0.60049 0.0
H4515 H 0.38811 0.64614 0.57922 0.0
H4516 H 0.37838 0.64688 0.6072 0.0
H4517 H 0.33483 0.54184 0.54853 0.0
H4518 H 0.361 0.55594 0.54009 0.0
H4519 H 0.36062 0.54676 0.56833 0.0
H4520 H 0.41139 0.59499 0.51498 0.0
H4521 H 0.42618 0.56162 0.57393 0.0
H4522 H 0.38056 0.62966 0.54048 0.0
H4523 H 0.36119 0.60377 0.52749 0.0
H4524 H 0.38442 0.61559 0.5129 0.0
H4525 H 0.40215 0.59359 0.61442 0.0
H4526 H 0.41182 0.56813 0.6097 0.0
H4527 H 0.38241 0.56755 0.60334 0.0
C4528 C 0.8847 0.94275 0.53946 0.0
C4529 C 0.87921 0.93538 0.5605 0.0
C4530 C 0.90545 0.95768 0.53885 0.0
C4531 C 0.92097 0.96517 0.55979 0.0
C4532 C 0.91542 0.95754 0.58107 0.0
C4533 C 0.89445 0.94284 0.58118 0.0
C4534 C 0.91088 0.9652 0.51578 0.0
C4535 C 0.93151 0.96506 0.60372 0.0
C4536 C 0.98268 0.98453 0.55454 0.0
C4537 C 0.98584 1.00799 0.55557 0.0
C4538 C 0.96163 0.97047 0.55538 0.0
C4539 C 0.94343 0.98007 0.55915 0.0
C4540 C 0.94667 1.00374 0.56184 0.0
C4541 C 0.96767 0.01736 0.55938 0.0
C4542 C 0.95881 0.94528 0.55171 0.0
C4543 C 0.92789 0.01467 0.567 0.0
H4544 H 0.87265 0.93704 0.52357 0.0
H4545 H 0.88991 0.93716 0.59744 0.0
H4546 H 0.91581 0.98382 0.51765 0.0
H4547 H 0.92539 0.95898 0.5106 0.0
H4548 H 0.89647 0.95894 0.50144 0.0
H4549 H 0.92514 0.95655 0.6184 0.0
H4550 H 0.94806 0.9616 0.60143 0.0
H4551 H 0.93433 0.98349 0.60868 0.0
H4552 H 0.99654 0.9768 0.55228 0.0
H4553 H 0.96974 0.03524 0.56063 0.0
H4554 H 0.94544 0.93741 0.5367 0.0
H4555 H 0.95346 0.93812 0.56748 0.0
H4556 H 0.97452 0.94048 0.54811 0.0
H4557 H 0.91473 0.01082 0.55139 0.0
H4558 H 0.93388 0.03322 0.57155 0.0
H4559 H 0.91994 1.00783 0.58177 0.0
C4560 C 0.87473 0.07003 0.27697 0.0
C4561 C 0.89686 0.07104 0.27328 0.0
C4562 C 0.86716 0.08972 0.28048 0.0
C4563 C 0.88185 0.11072 0.27908 0.0
C4564 C 0.90384 0.11156 0.27384 0.0
C4565 C 0.91131 0.09167 0.27161 0.0
C4566 C 0.84351 0.08796 0.28598 0.0
C4567 C 0.91953 0.13336 0.2708 0.0
C4568 C 0.84709 0.15351 0.2776 0.0
C4569 C 0.84926 0.16116 0.3017 0.0
C4570 C 0.85983 0.1389 0.26927 0.0
C4571 C 0.87461 0.13166 0.28554 0.0
C4572 C 0.87879 0.14159 0.30939 0.0
C4573 C 0.86621 0.15645 0.31711 0.0
C4574 C 0.85598 0.12976 0.24344 0.0
C4575 C 0.89431 0.13438 0.32746 0.0
H4576 H 0.86355 0.05388 0.27774 0.0
H4577 H 0.92828 0.09216 0.26808 0.0
H4578 H 0.84331 0.1006 0.30116 0.0
H4579 H 0.83294 0.09132 0.27063 0.0
H4580 H 0.83566 0.07102 0.29003 0.0
H4581 H 0.93366 0.1304 0.26158 0.0
H4582 H 0.91037 0.14362 0.26073 0.0
H4583 H 0.92671 0.14332 0.28825 0.0
H4584 H 0.83432 0.15754 0.26552 0.0
H4585 H 0.86844 0.16308 0.33563 0.0
H4586 H 0.84383 0.1131 0.24034 0.0
H4587 H 0.87185 0.12748 0.23737 0.0
H4588 H 0.84897 0.14103 0.23265 0.0
H4589 H 0.88578 0.1177 0.3316 0.0
H4590 H 0.89878 0.14645 0.34402 0.0
H4591 H 0.91001 0.13266 0.32073 0.0
C4592 C 0.69404 0.11387 0.07509 0.0
C4593 C 0.70461 0.11466 0.05504 0.0
C4594 C 0.67095 0.10549 0.07296 0.0
C4595 C 0.65868 0.09843 0.05016 0.0
C4596 C 0.66917 0.10114 0.02987 0.0
C4597 C 0.69241 0.10893 0.03258 0.0
C4598 C 0.66031 0.10216 0.095 0.0
C4599 C 0.656 0.09432 0.00547 0.0
C4600 C 0.6112 0.04795 0.04566 0.0
C4601 C 0.59337 0.05807 0.04751 0.0
C4602 C 0.63274 0.06106 0.04616 0.0
C4603 C 0.63593 0.08462 0.04754 0.0
C4604 C 0.61773 0.09481 0.04804 0.0
C4605 C 0.59657 0.08131 0.04877 0.0
C4606 C 0.65218 0.0499 0.04712 0.0
C4607 C 0.62084 0.11996 0.04976 0.0
H4608 H 0.70401 0.11857 0.09239 0.0
H4609 H 0.70108 0.1101 0.0173 0.0
H4610 H 0.64333 0.10544 0.09338 0.0
H4611 H 0.65849 0.08445 0.09809 0.0
H4612 H 0.67081 0.11322 0.11069 0.0
H4613 H 0.66625 0.10009 0.99174 0.0
H4614 H 0.65005 0.07573 1.0018 0.0
H4615 H 0.64091 0.10129 0.0042 0.0
H4616 H 0.60849 0.02993 0.04557 0.0
H4617 H 0.5831 0.08924 0.05178 0.0
H4618 H 0.66334 0.05603 0.06414 0.0
H4619 H 0.66234 0.05434 0.03295 0.0
H4620 H 0.64652 0.03129 0.04535 0.0
H4621 H 0.62795 0.12793 0.06803 0.0
H4622 H 0.60466 0.12454 0.04518 0.0
H4623 H 0.63277 0.12709 0.03802 0.0
C4624 C 0.24202 0.49968 0.28599 0.0
C4625 C 0.22571 0.50315 0.26924 0.0
C4626 C 0.24442 0.478 0.2875 0.0
C4627 C 0.23044 0.45983 0.27132 0.0
C4628 C 0.21389 0.46346 0.25432 0.0
C4629 C 0.21148 0.48531 0.25373 0.0
C4630 C 0.26216 0.47471 0.30613 0.0
C4631 C 0.19904 0.44447 0.23674 0.0
C4632 C 0.26274 0.41655 0.27221 0.0
C4633 C 0.255 0.40697 0.29139 0.0
C4634 C 0.25225 0.43182 0.2624 0.0
C4635 C 0.23395 0.43729 0.27237 0.0
C4636 C 0.22394 0.42476 0.28903 0.0
C4637 C 0.23481 0.40966 0.29855 0.0
C4638 C 0.26299 0.44473 0.24427 0.0
C4639 C 0.20429 0.43005 0.29989 0.0
H4640 H 0.25269 0.51388 0.29794 0.0
H4641 H 0.1988 0.48857 0.24091 0.0
H4642 H 0.25488 0.46135 0.31631 0.0
H4643 H 0.27571 0.46938 0.29765 0.0
H4644 H 0.26983 0.49034 0.31864 0.0
H4645 H 0.18819 0.45058 0.22358 0.0
H4646 H 0.20944 0.43494 0.22736 0.0
H4647 H 0.1881 0.43254 0.24598 0.0
H4648 H 0.27828 0.41402 0.26662 0.0
H4649 H 0.22878 0.40167 0.31315 0.0
H4650 H 0.2741 0.46098 0.25318 0.0
H4651 H 0.2501 0.44852 0.23144 0.0
H4652 H 0.27337 0.43531 0.23465 0.0
H4653 H 0.21069 0.44398 0.31471 0.0
H4654 H 0.19483 0.41528 0.30692 0.0
H4655 H 0.19261 0.43551 0.28709 0.0
C4656 C 0.24911 0.44081 0.08555 0.0
C4657 C 0.25831 0.437 0.06482 0.0
C4658 C 0.22998 0.44946 0.08548 0.0
C4659 C 0.22039 0.4551 0.06432 0.0
C4660 C 0.2296 0.45117 0.0433 0.0
C4661 C 0.24829 0.44181 0.04375 0.0
C4662 C 0.22002 0.4525 0.10794 0.0
C4663 C 0.22015 0.45746 0.02047 0.0
C4664 C 0.16229 0.46405 0.04988 0.0
C4665 C 0.16732 0.48745 0.05101 0.0
C4666 C 0.17912 0.45316 0.05654 0.0
C4667 C 0.20139 0.46612 0.06403 0.0
C4668 C 0.20591 0.4899 0.06746 0.0
C4669 C 0.1887 0.50032 0.06093 0.0
C4670 C 0.17353 0.4278 0.05315 0.0
C4671 C 0.22942 0.50428 0.07554 0.0
H4672 H 0.25669 0.43667 0.10178 0.0
H4673 H 0.25548 0.43886 0.02778 0.0
H4674 H 0.22004 0.47041 0.1128 0.0
H4675 H 0.20225 0.44274 0.10529 0.0
H4676 H 0.22934 0.44696 0.12282 0.0
H4677 H 0.22864 0.4524 0.00555 0.0
H4678 H 0.20191 0.44944 0.01612 0.0
H4679 H 0.22212 0.47594 0.02233 0.0
H4680 H 0.1457 0.45421 0.04195 0.0
H4681 H 0.19246 0.51843 0.06149 0.0
H4682 H 0.18209 0.42161 0.06804 0.0
H4683 H 0.17956 0.42158 0.03691 0.0
H4684 H 0.15514 0.42047 0.05146 0.0
H4685 H 0.23706 0.49897 0.09155 0.0
H4686 H 0.22972 0.52241 0.07935 0.0
H4687 H 0.24008 0.50211 0.06165 0.0
C4688 C 0.87681 0.94125 0.25711 0.0
C4689 C 0.89648 0.94985 0.27324 0.0
C4690 C 0.86317 0.91976 0.2575 0.0
C4691 C 0.869 0.90686 0.27487 0.0
C4692 C 0.88899 0.91535 0.29103 0.0
C4693 C 0.90264 0.93664 0.28983 0.0
C4694 C 0.84236 0.91098 0.23953 0.0
C4695 C 0.89583 0.90205 0.30975 0.0
C4696 C 0.82194 0.86339 0.29256 0.0
C4697 C 0.82478 0.8433 0.28081 0.0
C4698 C 0.83618 0.88417 0.29067 0.0
C4699 C 0.85372 0.88489 0.27675 0.0
C4700 C 0.85665 0.86468 0.2648 0.0
C4701 C 0.84208 0.84416 0.26687 0.0
C4702 C 0.83271 0.90536 0.30392 0.0
C4703 C 0.875 0.86465 0.24961 0.0
H4704 H 0.87212 0.95129 0.24407 0.0
H4705 H 0.91784 0.94322 0.30232 0.0
H4706 H 0.84195 0.89386 0.23091 0.0
H4707 H 0.82718 0.90966 0.2484 0.0
H4708 H 0.84141 0.92204 0.22577 0.0
H4709 H 0.9112 0.91155 0.32177 0.0
H4710 H 0.88201 0.89733 0.32032 0.0
H4711 H 0.89903 0.88622 0.30137 0.0
H4712 H 0.80891 0.86289 0.30369 0.0
H4713 H 0.84441 0.82873 0.25769 0.0
H4714 H 0.82944 0.91702 0.29144 0.0
H4715 H 0.84818 0.91411 0.31615 0.0
H4716 H 0.81844 0.90192 0.31417 0.0
H4717 H 0.87058 0.87139 0.23321 0.0
H4718 H 0.87736 0.84748 0.24478 0.0
H4719 H 0.89123 0.87563 0.25865 0.0
C4720 C 0.71124 0.14046 0.78989 0.0
C4721 C 0.72413 0.12608 0.78179 0.0
C4722 C 0.71971 0.16365 0.79228 0.0
C4723 C 0.74108 0.17201 0.78587 0.0
C4724 C 0.75385 0.15748 0.77711 0.0
C4725 C 0.74527 0.13453 0.77551 0.0
C4726 C 0.70588 0.17919 0.80129 0.0
C4727 C 0.7764 0.16602 0.76919 0.0
C4728 C 0.75748 0.22872 0.76826 0.0
C4729 C 0.77334 0.23967 0.78748 0.0
C4730 C 0.74581 0.20673 0.76793 0.0
C4731 C 0.75005 0.19605 0.78767 0.0
C4732 C 0.765 0.20765 0.80792 0.0
C4733 C 0.77678 0.2297 0.80755 0.0
C4734 C 0.73082 0.1944 0.74564 0.0
C4735 C 0.76974 0.19618 0.829 0.0
H4736 H 0.69472 0.1336 0.79439 0.0
H4737 H 0.75484 0.12317 0.76864 0.0
H4738 H 0.71581 0.19135 0.8165 0.0
H4739 H 0.7015 0.18911 0.7874 0.0
H4740 H 0.69009 0.16991 0.80674 0.0
H4741 H 0.78291 0.15219 0.76072 0.0
H4742 H 0.77519 0.17803 0.75651 0.0
H4743 H 0.78883 0.1751 0.78454 0.0
H4744 H 0.75549 0.23686 0.75274 0.0
H4745 H 0.78966 0.23845 0.82202 0.0
H4746 H 0.71411 0.18587 0.74962 0.0
H4747 H 0.73834 0.18123 0.73751 0.0
H4748 H 0.72848 0.20582 0.73253 0.0
H4749 H 0.75376 0.18865 0.83528 0.0
H4750 H 0.78104 0.20794 0.84371 0.0
H4751 H 0.7777 0.18226 0.82396 0.0
loop_
_geom_bond_atom_site_label_1
_geom_bond_atom_site_label_2
_geom_bond_distance
_geom_bond_site_symmetry_2
_ccdc_geom_bond_type
O0 Cd1 2.223 . S
O0 C8 1.315 . S
Cd1 O0 2.223 . S
Cd1 O4 2.297 . S
Cd1 O5 2.439 . S
Cd1 O11 2.240 . S
Cd2 O3 2.240 . S
Cd2 O10 2.223 1_455 S
Cd2 O12 2.297 . S
Cd2 O13 2.439 . S
O3 Cd2 2.240 . S
O3 C8 1.279 . S
O4 Cd1 2.297 . S
O4 C6 1.247 . S
O5 Cd1 2.439 . S
O5 C6 1.208 . S
C6 O4 1.247 . S
C6 O5 1.208 . S
C7 O12 1.247 . S
C7 O13 1.208 . S
C8 O0 1.315 . S
C8 O3 1.279 . S
C9 O10 1.325 . S
C9 O11 1.241 1_655 S
O10 Cd2 2.223 1_655 S
O10 C9 1.325 . S
O11 Cd1 2.240 . S
O11 C9 1.241 1_455 S
O12 Cd2 2.297 . S
O12 C7 1.247 . S
O13 Cd2 2.439 . S
O13 C7 1.208 . S
O14 Cd15 2.223 . S
O14 C22 1.315 . S
Cd15 O14 2.223 . S
Cd15 O18 2.297 1_455 S
Cd15 O19 2.439 1_455 S
Cd15 O25 2.240 . S
Cd16 O17 2.240 . S
Cd16 O24 2.223 . S
Cd16 O26 2.297 . S
Cd16 O27 2.439 . S
O17 Cd16 2.240 . S
O17 C22 1.279 . S
O18 Cd15 2.297 1_655 S
O18 C20 1.247 . S
O19 Cd15 2.439 1_655 S
O19 C20 1.208 . S
C20 O18 1.247 . S
C20 O19 1.208 . S
C21 O26 1.247 . S
C21 O27 1.208 . S
C22 O14 1.315 . S
C22 O17 1.279 . S
C23 O24 1.315 . S
C23 O25 1.279 . S
O24 Cd16 2.223 . S
O24 C23 1.315 . S
O25 Cd15 2.240 . S
O25 C23 1.279 . S
O26 Cd16 2.297 . S
O26 C21 1.247 . S
O27 Cd16 2.439 . S
O27 C21 1.208 . S
O28 Cd29 2.223 . S
O28 C36 1.315 . S
Cd29 O28 2.223 . S
Cd29 O32 2.297 . S
Cd29 O33 2.439 . S
Cd29 O39 2.240 . S
Cd30 O31 2.240 . S
Cd30 O38 2.223 . S
Cd30 O40 2.297 . S
Cd30 O41 2.439 . S
O31 Cd30 2.240 . S
O31 C36 1.279 . S
O32 Cd29 2.297 . S
O32 C34 1.247 . S
O33 Cd29 2.439 . S
O33 C34 1.208 . S
C34 O32 1.247 . S
C34 O33 1.208 . S
C35 O40 1.247 . S
C35 O41 1.208 . S
C36 O28 1.315 . S
C36 O31 1.279 . S
C37 O38 1.315 . S
C37 O39 1.279 . S
O38 Cd30 2.223 . S
O38 C37 1.315 . S
O39 Cd29 2.240 . S
O39 C37 1.279 . S
O40 Cd30 2.297 . S
O40 C35 1.247 . S
O41 Cd30 2.439 . S
O41 C35 1.208 . S
O42 Cd43 2.223 . S
O42 C50 1.315 . S
Cd43 O42 2.223 . S
Cd43 O46 2.297 . S
Cd43 O47 2.439 . S
Cd43 O53 2.240 . S
Cd44 O45 2.240 . S
Cd44 O52 2.223 . S
Cd44 O54 2.297 . S
Cd44 O55 2.439 . S
O45 Cd44 2.240 . S
O45 C50 1.279 . S
O46 Cd43 2.297 . S
O46 C48 1.247 . S
O47 Cd43 2.439 . S
O47 C48 1.208 . S
C48 O46 1.247 . S
C48 O47 1.208 . S
C49 O54 1.247 . S
C49 O55 1.208 . S
C50 O42 1.315 . S
C50 O45 1.279 . S
C51 O52 1.315 . S
C51 O53 1.279 . S
O52 Cd44 2.223 . S
O52 C51 1.315 . S
O53 Cd43 2.240 . S
O53 C51 1.279 . S
O54 Cd44 2.297 . S
O54 C49 1.247 . S
O55 Cd44 2.439 . S
O55 C49 1.208 . S
O56 Cd57 2.223 . S
O56 C64 1.315 . S
Cd57 O56 2.223 . S
Cd57 O60 2.297 . S
Cd57 O61 2.439 . S
Cd57 O67 2.240 . S
Cd58 O59 2.240 . S
Cd58 O66 2.223 . S
Cd58 O68 2.297 . S
Cd58 O69 2.439 . S
O59 Cd58 2.240 . S
O59 C64 1.279 . S
O60 Cd57 2.297 . S
O60 C62 1.247 . S
O61 Cd57 2.439 . S
O61 C62 1.208 . S
C62 O60 1.247 . S
C62 O61 1.208 . S
C63 O68 1.247 . S
C63 O69 1.208 . S
C64 O56 1.315 . S
C64 O59 1.279 . S
C65 O66 1.315 . S
C65 O67 1.279 . S
O66 Cd58 2.223 . S
O66 C65 1.315 . S
O67 Cd57 2.240 . S
O67 C65 1.279 . S
O68 Cd58 2.297 . S
O68 C63 1.247 . S
O69 Cd58 2.439 . S
O69 C63 1.208 . S
O70 Cd71 2.223 . S
O70 C78 1.315 . S
Cd71 O70 2.223 . S
Cd71 O74 2.297 . S
Cd71 O75 2.439 . S
Cd71 O81 2.240 . S
Cd72 O73 2.240 . S
Cd72 O80 2.223 . S
Cd72 O82 2.297 . S
Cd72 O83 2.439 . S
O73 Cd72 2.240 . S
O73 C78 1.279 . S
O74 Cd71 2.297 . S
O74 C76 1.247 . S
O75 Cd71 2.439 . S
O75 C76 1.208 . S
C76 O74 1.247 . S
C76 O75 1.208 . S
C77 O82 1.247 . S
C77 O83 1.208 . S
C78 O70 1.315 . S
C78 O73 1.279 . S
C79 O80 1.315 . S
C79 O81 1.279 . S
O80 Cd72 2.223 . S
O80 C79 1.315 . S
O81 Cd71 2.240 . S
O81 C79 1.279 . S
O82 Cd72 2.297 . S
O82 C77 1.247 . S
O83 Cd72 2.439 . S
O83 C77 1.208 . S
O84 Cd85 2.223 . S
O84 C92 1.315 . S
Cd85 O84 2.223 . S
Cd85 O88 2.297 . S
Cd85 O89 2.439 . S
Cd85 O95 2.240 . S
Cd86 O87 2.240 . S
Cd86 O94 2.223 . S
Cd86 O96 2.297 . S
Cd86 O97 2.439 . S
O87 Cd86 2.240 . S
O87 C92 1.279 . S
O88 Cd85 2.297 . S
O88 C90 1.247 . S
O89 Cd85 2.439 . S
O89 C90 1.208 . S
C90 O88 1.247 . S
C90 O89 1.208 . S
C91 O96 1.247 . S
C91 O97 1.208 . S
C92 O84 1.315 . S
C92 O87 1.279 . S
C93 O94 1.315 . S
C93 O95 1.279 . S
O94 Cd86 2.223 . S
O94 C93 1.315 . S
O95 Cd85 2.240 . S
O95 C93 1.279 . S
O96 Cd86 2.297 . S
O96 C91 1.247 . S
O97 Cd86 2.439 . S
O97 C91 1.208 . S
O98 Cd99 2.223 1_655 S
O98 C106 1.315 . S
Cd99 O98 2.223 1_455 S
Cd99 O102 2.297 . S
Cd99 O103 2.439 . S
Cd99 O109 2.240 1_455 S
Cd100 O101 2.240 1_655 S
Cd100 O108 2.223 . S
Cd100 O110 2.297 . S
Cd100 O111 2.439 1_655 S
O101 Cd100 2.240 1_455 S
O101 C106 1.279 1_455 S
O102 Cd99 2.297 . S
O102 C104 1.247 . S
O103 Cd99 2.439 . S
O103 C104 1.208 . S
C104 O102 1.247 . S
C104 O103 1.208 . S
C105 O110 1.229 1_455 S
C105 O111 1.228 . S
C106 O98 1.315 . S
C106 O101 1.279 1_655 S
C107 O108 1.315 . S
C107 O109 1.279 . S
O108 Cd100 2.223 . S
O108 C107 1.315 . S
O109 Cd99 2.240 1_655 S
O109 C107 1.279 . S
O110 Cd100 2.297 . S
O110 C105 1.229 1_655 S
O111 Cd100 2.439 1_455 S
O111 C105 1.228 . S
O112 Cd113 2.223 . S
O112 C120 1.315 . S
Cd113 O112 2.223 . S
Cd113 O116 2.297 . S
Cd113 O117 2.439 . S
Cd113 O123 2.240 1_545 S
Cd114 O115 2.240 . S
Cd114 O122 2.223 1_545 S
Cd114 O124 2.297 1_545 S
Cd114 O125 2.439 . S
O115 Cd114 2.240 . S
O115 C120 1.279 . S
O116 Cd113 2.297 . S
O116 C118 1.247 . S
O117 Cd113 2.439 . S
O117 C118 1.208 . S
C118 O116 1.247 . S
C118 O117 1.208 . S
C119 O124 1.247 1_545 S
C119 O125 1.208 . S
C120 O112 1.315 . S
C120 O115 1.279 . S
C121 O122 1.315 . S
C121 O123 1.279 . S
O122 Cd114 2.223 1_565 S
O122 C121 1.315 . S
O123 Cd113 2.240 1_565 S
O123 C121 1.279 . S
O124 Cd114 2.297 1_565 S
O124 C119 1.247 1_565 S
O125 Cd114 2.439 . S
O125 C119 1.208 . S
O126 Cd127 2.223 . S
O126 C134 1.315 . S
Cd127 O126 2.223 . S
Cd127 O130 2.297 . S
Cd127 O131 2.439 . S
Cd127 O137 2.240 . S
Cd128 O129 2.240 . S
Cd128 O136 2.223 . S
Cd128 O138 2.297 . S
Cd128 O139 2.439 . S
O129 Cd128 2.240 . S
O129 C134 1.279 . S
O130 Cd127 2.297 . S
O130 C132 1.247 . S
O131 Cd127 2.439 . S
O131 C132 1.208 . S
C132 O130 1.247 . S
C132 O131 1.208 . S
C133 O138 1.247 . S
C133 O139 1.208 . S
C134 O126 1.315 . S
C134 O129 1.279 . S
C135 O136 1.315 . S
C135 O137 1.279 . S
O136 Cd128 2.223 . S
O136 C135 1.315 . S
O137 Cd127 2.240 . S
O137 C135 1.279 . S
O138 Cd128 2.297 . S
O138 C133 1.247 . S
O139 Cd128 2.439 . S
O139 C133 1.208 . S
O140 Cd141 2.223 . S
O140 C148 1.315 . S
Cd141 O140 2.223 . S
Cd141 O144 2.297 . S
Cd141 O145 2.439 . S
Cd141 O151 2.240 . S
Cd142 O143 2.240 . S
Cd142 O150 2.223 . S
Cd142 O152 2.297 . S
Cd142 O153 2.439 . S
O143 Cd142 2.240 . S
O143 C148 1.279 . S
O144 Cd141 2.297 . S
O144 C146 1.247 1_545 S
O145 Cd141 2.439 . S
O145 C146 1.208 1_545 S
C146 O144 1.247 1_565 S
C146 O145 1.208 1_565 S
C147 O152 1.247 . S
C147 O153 1.208 . S
C148 O140 1.315 . S
C148 O143 1.279 . S
C149 O150 1.315 . S
C149 O151 1.279 . S
O150 Cd142 2.223 . S
O150 C149 1.315 . S
O151 Cd141 2.240 . S
O151 C149 1.279 . S
O152 Cd142 2.297 . S
O152 C147 1.247 . S
O153 Cd142 2.439 . S
O153 C147 1.208 . S
O154 Cd155 2.223 . S
O154 C162 1.315 . S
Cd155 O154 2.223 . S
Cd155 O158 2.297 . S
Cd155 O159 2.439 1_554 S
Cd155 O165 2.240 1_554 S
Cd156 O157 2.240 1_556 S
Cd156 O164 2.223 1_556 S
Cd156 O166 2.297 . S
Cd156 O167 2.439 . S
O157 Cd156 2.240 1_554 S
O157 C162 1.279 . S
O158 Cd155 2.297 . S
O158 C160 1.247 . S
O159 Cd155 2.439 1_556 S
O159 C160 1.208 1_556 S
C160 O158 1.247 . S
C160 O159 1.208 1_554 S
C161 O166 1.247 . S
C161 O167 1.208 . S
C162 O154 1.315 . S
C162 O157 1.279 . S
C163 O164 1.315 . S
C163 O165 1.279 1_554 S
O164 Cd156 2.223 1_554 S
O164 C163 1.315 . S
O165 Cd155 2.240 1_556 S
O165 C163 1.279 1_556 S
O166 Cd156 2.297 . S
O166 C161 1.247 . S
O167 Cd156 2.439 . S
O167 C161 1.208 . S
O168 Cd169 2.223 . S
O168 C176 1.315 . S
Cd169 O168 2.223 . S
Cd169 O172 2.297 . S
Cd169 O173 2.439 . S
Cd169 O179 2.240 . S
Cd170 O171 2.240 . S
Cd170 O178 2.223 . S
Cd170 O180 2.297 . S
Cd170 O181 2.439 . S
O171 Cd170 2.240 . S
O171 C176 1.279 . S
O172 Cd169 2.297 . S
O172 C174 1.247 . S
O173 Cd169 2.439 . S
O173 C174 1.208 . S
C174 O172 1.247 . S
C174 O173 1.208 . S
C175 O180 1.247 1_556 S
C175 O181 1.208 1_556 S
C176 O168 1.315 . S
C176 O171 1.279 . S
C177 O178 1.315 . S
C177 O179 1.279 . S
O178 Cd170 2.223 . S
O178 C177 1.315 . S
O179 Cd169 2.240 . S
O179 C177 1.279 . S
O180 Cd170 2.297 . S
O180 C175 1.247 1_554 S
O181 Cd170 2.439 . S
O181 C175 1.208 1_554 S
O182 Cd183 2.223 . S
O182 C190 1.315 . S
Cd183 O182 2.223 . S
Cd183 O186 2.297 . S
Cd183 O187 2.439 . S
Cd183 O193 2.240 . S
Cd184 O185 2.240 . S
Cd184 O192 2.223 . S
Cd184 O194 2.297 . S
Cd184 O195 2.439 . S
O185 Cd184 2.240 . S
O185 C190 1.279 . S
O186 Cd183 2.297 . S
O186 C188 1.247 . S
O187 Cd183 2.439 . S
O187 C188 1.208 . S
C188 O186 1.247 . S
C188 O187 1.208 . S
C189 O194 1.247 . S
C189 O195 1.208 . S
C190 O182 1.315 . S
C190 O185 1.279 . S
C191 O192 1.315 . S
C191 O193 1.279 . S
O192 Cd184 2.223 . S
O192 C191 1.315 . S
O193 Cd183 2.240 . S
O193 C191 1.279 . S
O194 Cd184 2.297 . S
O194 C189 1.247 . S
O195 Cd184 2.439 . S
O195 C189 1.208 . S
O196 Cd197 2.223 . S
O196 C204 1.315 . S
Cd197 O196 2.223 . S
Cd197 O200 2.297 . S
Cd197 O201 2.439 . S
Cd197 O207 2.240 . S
Cd198 O199 2.240 . S
Cd198 O206 2.223 . S
Cd198 O208 2.297 . S
Cd198 O209 2.439 . S
O199 Cd198 2.240 . S
O199 C204 1.279 . S
O200 Cd197 2.297 . S
O200 C202 1.247 . S
O201 Cd197 2.439 . S
O201 C202 1.208 . S
C202 O200 1.247 . S
C202 O201 1.208 . S
C203 O208 1.247 . S
C203 O209 1.208 . S
C204 O196 1.315 . S
C204 O199 1.279 . S
C205 O206 1.315 . S
C205 O207 1.279 . S
O206 Cd198 2.223 . S
O206 C205 1.315 . S
O207 Cd197 2.240 . S
O207 C205 1.279 . S
O208 Cd198 2.297 . S
O208 C203 1.247 . S
O209 Cd198 2.439 . S
O209 C203 1.208 . S
O210 Cd211 2.223 . S
O210 C218 1.315 . S
Cd211 O210 2.223 . S
Cd211 O214 2.297 . S
Cd211 O215 2.439 . S
Cd211 O221 2.240 . S
Cd212 O213 2.240 . S
Cd212 O220 2.223 . S
Cd212 O222 2.297 . S
Cd212 O223 2.439 . S
O213 Cd212 2.240 . S
O213 C218 1.279 . S
O214 Cd211 2.297 . S
O214 C216 1.247 . S
O215 Cd211 2.439 . S
O215 C216 1.208 . S
C216 O214 1.247 . S
C216 O215 1.208 . S
C217 O222 1.247 . S
C217 O223 1.208 . S
C218 O210 1.315 . S
C218 O213 1.279 . S
C219 O220 1.315 . S
C219 O221 1.279 . S
O220 Cd212 2.223 . S
O220 C219 1.315 . S
O221 Cd211 2.240 . S
O221 C219 1.279 . S
O222 Cd212 2.297 . S
O222 C217 1.247 . S
O223 Cd212 2.439 . S
O223 C217 1.208 . S
O224 Cd225 2.223 . S
O224 C232 1.315 . S
Cd225 O224 2.223 . S
Cd225 O228 2.297 . S
Cd225 O229 2.439 . S
Cd225 O235 2.240 1_545 S
Cd226 O227 2.240 . S
Cd226 O234 2.223 1_545 S
Cd226 O236 2.297 1_545 S
Cd226 O237 2.439 . S
O227 Cd226 2.240 . S
O227 C232 1.279 . S
O228 Cd225 2.297 . S
O228 C230 1.247 . S
O229 Cd225 2.439 . S
O229 C230 1.208 . S
C230 O228 1.247 . S
C230 O229 1.208 . S
C231 O236 1.247 1_545 S
C231 O237 1.208 . S
C232 O224 1.315 . S
C232 O227 1.279 . S
C233 O234 1.315 . S
C233 O235 1.279 . S
O234 Cd226 2.223 1_565 S
O234 C233 1.315 . S
O235 Cd225 2.240 1_565 S
O235 C233 1.279 . S
O236 Cd226 2.297 1_565 S
O236 C231 1.247 1_565 S
O237 Cd226 2.439 . S
O237 C231 1.208 . S
O238 Cd239 2.223 . S
O238 C246 1.315 . S
Cd239 O238 2.223 . S
Cd239 O242 2.297 . S
Cd239 O243 2.439 . S
Cd239 O249 2.240 . S
Cd240 O241 2.240 . S
Cd240 O248 2.223 . S
Cd240 O250 2.297 . S
Cd240 O251 2.439 . S
O241 Cd240 2.240 . S
O241 C246 1.279 . S
O242 Cd239 2.297 . S
O242 C244 1.247 . S
O243 Cd239 2.439 . S
O243 C244 1.208 . S
C244 O242 1.247 . S
C244 O243 1.208 . S
C245 O250 1.247 . S
C245 O251 1.208 . S
C246 O238 1.315 . S
C246 O241 1.279 . S
C247 O248 1.315 . S
C247 O249 1.279 . S
O248 Cd240 2.223 . S
O248 C247 1.315 . S
O249 Cd239 2.240 . S
O249 C247 1.279 . S
O250 Cd240 2.297 . S
O250 C245 1.247 . S
O251 Cd240 2.439 . S
O251 C245 1.208 . S
O252 Cd253 2.223 . S
O252 C260 1.315 . S
Cd253 O252 2.223 . S
Cd253 O256 2.297 . S
Cd253 O257 2.439 . S
Cd253 O263 2.240 . S
Cd254 O255 2.240 . S
Cd254 O262 2.223 . S
Cd254 O264 2.297 . S
Cd254 O265 2.439 . S
O255 Cd254 2.240 . S
O255 C260 1.279 . S
O256 Cd253 2.297 . S
O256 C258 1.247 . S
O257 Cd253 2.439 . S
O257 C258 1.208 . S
C258 O256 1.247 . S
C258 O257 1.208 . S
C259 O264 1.247 . S
C259 O265 1.208 . S
C260 O252 1.315 . S
C260 O255 1.279 . S
C261 O262 1.315 . S
C261 O263 1.279 . S
O262 Cd254 2.223 . S
O262 C261 1.315 . S
O263 Cd253 2.240 . S
O263 C261 1.279 . S
O264 Cd254 2.297 . S
O264 C259 1.247 . S
O265 Cd254 2.439 . S
O265 C259 1.208 . S
O266 Cd267 2.223 . S
O266 C274 1.315 . S
Cd267 O266 2.223 . S
Cd267 O270 2.297 . S
Cd267 O271 2.439 . S
Cd267 O277 2.240 . S
Cd268 O269 2.240 . S
Cd268 O276 2.223 . S
Cd268 O278 2.297 . S
Cd268 O279 2.439 . S
O269 Cd268 2.240 . S
O269 C274 1.279 . S
O270 Cd267 2.297 . S
O270 C272 1.247 . S
O271 Cd267 2.439 . S
O271 C272 1.208 . S
C272 O270 1.247 . S
C272 O271 1.208 . S
C273 O278 1.247 . S
C273 O279 1.208 . S
C274 O266 1.315 . S
C274 O269 1.279 . S
C275 O276 1.315 . S
C275 O277 1.279 . S
O276 Cd268 2.223 . S
O276 C275 1.315 . S
O277 Cd267 2.240 . S
O277 C275 1.279 . S
O278 Cd268 2.297 . S
O278 C273 1.247 . S
O279 Cd268 2.439 . S
O279 C273 1.208 . S
O280 Cd281 2.223 . S
O280 C288 1.315 . S
Cd281 O280 2.223 . S
Cd281 O284 2.297 . S
Cd281 O285 2.439 . S
Cd281 O291 2.240 . S
Cd282 O283 2.240 . S
Cd282 O290 2.223 . S
Cd282 O292 2.297 1_554 S
Cd282 O293 2.439 1_554 S
O283 Cd282 2.240 . S
O283 C288 1.279 . S
O284 Cd281 2.297 . S
O284 C286 1.247 . S
O285 Cd281 2.439 . S
O285 C286 1.208 . S
C286 O284 1.247 . S
C286 O285 1.208 . S
C287 O292 1.247 . S
C287 O293 1.208 . S
C288 O280 1.315 . S
C288 O283 1.279 . S
C289 O290 1.315 . S
C289 O291 1.279 . S
O290 Cd282 2.223 . S
O290 C289 1.315 . S
O291 Cd281 2.240 . S
O291 C289 1.279 . S
O292 Cd282 2.297 1_556 S
O292 C287 1.247 . S
O293 Cd282 2.439 1_556 S
O293 C287 1.208 . S
O294 Cd295 2.223 . S
O294 C302 1.315 . S
Cd295 O294 2.223 . S
Cd295 O298 2.297 . S
Cd295 O299 2.439 . S
Cd295 O305 2.240 . S
Cd296 O297 2.240 . S
Cd296 O304 2.223 . S
Cd296 O306 2.297 . S
Cd296 O307 2.439 . S
O297 Cd296 2.240 . S
O297 C302 1.279 . S
O298 Cd295 2.297 . S
O298 C300 1.247 . S
O299 Cd295 2.439 . S
O299 C300 1.208 . S
C300 O298 1.247 . S
C300 O299 1.208 . S
C301 O306 1.247 . S
C301 O307 1.208 . S
C302 O294 1.315 . S
C302 O297 1.279 . S
C303 O304 1.315 . S
C303 O305 1.279 . S
O304 Cd296 2.223 . S
O304 C303 1.315 . S
O305 Cd295 2.240 . S
O305 C303 1.279 . S
O306 Cd296 2.297 . S
O306 C301 1.247 . S
O307 Cd296 2.439 . S
O307 C301 1.208 . S
O308 Cd309 2.223 . S
O308 C316 1.315 . S
Cd309 O308 2.223 . S
Cd309 O312 2.297 . S
Cd309 O313 2.439 . S
Cd309 O319 2.240 . S
Cd310 O311 2.240 . S
Cd310 O318 2.223 . S
Cd310 O320 2.297 . S
Cd310 O321 2.439 . S
O311 Cd310 2.240 . S
O311 C316 1.279 . S
O312 Cd309 2.297 . S
O312 C314 1.247 . S
O313 Cd309 2.439 . S
O313 C314 1.208 . S
C314 O312 1.247 . S
C314 O313 1.208 . S
C315 O320 1.247 . S
C315 O321 1.208 . S
C316 O308 1.315 . S
C316 O311 1.279 . S
C317 O318 1.315 . S
C317 O319 1.279 . S
O318 Cd310 2.223 . S
O318 C317 1.315 . S
O319 Cd309 2.240 . S
O319 C317 1.279 . S
O320 Cd310 2.297 . S
O320 C315 1.247 . S
O321 Cd310 2.439 . S
O321 C315 1.208 . S
O322 Cd323 2.223 . S
O322 C330 1.315 . S
Cd323 O322 2.223 . S
Cd323 O326 2.297 . S
Cd323 O327 2.439 . S
Cd323 O333 2.240 . S
Cd324 O325 2.240 . S
Cd324 O332 2.223 . S
Cd324 O334 2.297 . S
Cd324 O335 2.439 . S
O325 Cd324 2.240 . S
O325 C330 1.279 . S
O326 Cd323 2.297 . S
O326 C328 1.247 . S
O327 Cd323 2.439 . S
O327 C328 1.208 . S
C328 O326 1.247 . S
C328 O327 1.208 . S
C329 O334 1.247 . S
C329 O335 1.208 . S
C330 O322 1.315 . S
C330 O325 1.279 . S
C331 O332 1.315 . S
C331 O333 1.279 . S
O332 Cd324 2.223 . S
O332 C331 1.315 . S
O333 Cd323 2.240 . S
O333 C331 1.279 . S
O334 Cd324 2.297 . S
O334 C329 1.247 . S
O335 Cd324 2.439 . S
O335 C329 1.208 . S
Eu336 N365 2.600 . S
Eu336 N371 2.562 . S
Eu336 O380 2.462 . S
Eu336 O381 2.373 . S
Eu336 O383 2.432 . S
Eu336 O384 2.291 . S
Eu336 O388 2.335 . S
Eu336 O391 2.372 . S
Eu336 C400 2.787 . S
C337 N338 1.365 1_554 S
C337 C340 1.405 1_554 S
C337 C344 1.448 . S
N338 C337 1.365 1_556 S
N338 C341 1.319 . S
N338 Eu347 2.600 1_566 S
C339 C341 1.397 . S
C339 C342 1.367 . S
C339 H359 0.931 . S
C340 C337 1.405 1_556 S
C340 C342 1.403 . S
C340 C346 1.439 . S
C341 N338 1.319 . S
C341 C339 1.397 . S
C341 H352 0.930 1_565 S
C342 C339 1.367 . S
C342 C340 1.403 . S
C342 H363 0.929 . S
C343 C344 1.430 . S
C343 C345 1.387 . S
C343 C349 1.404 . S
C344 C337 1.448 . S
C344 C343 1.430 . S
C344 N348 1.351 . S
C345 C343 1.387 . S
C345 C346 1.374 1_554 S
C345 H360 0.931 . S
C346 C340 1.439 . S
C346 C345 1.374 1_556 S
C346 H361 0.931 . S
Eu347 N338 2.600 1_544 S
Eu347 N348 2.562 1_545 S
Eu347 O382 2.335 1_655 S
Eu347 O385 2.372 1_655 S
Eu347 O386 2.462 . S
Eu347 O387 2.328 1_645 S
Eu347 O389 2.432 . S
Eu347 O390 2.291 1_655 S
Eu347 C411 2.787 . S
N348 C344 1.351 . S
N348 Eu347 2.562 1_565 S
N348 C350 1.325 . S
C349 C343 1.404 . S
C349 C351 1.366 . S
C349 H357 0.930 . S
C350 N348 1.325 . S
C350 C351 1.416 . S
C350 H356 0.929 1_565 S
C351 C349 1.366 . S
C351 C350 1.416 . S
C351 H353 0.930 . S
H352 C341 0.930 1_545 S
H353 C351 0.930 . S
H354 C369 0.930 . S
H355 C376 0.930 . S
H356 C350 0.929 1_545 S
H357 C349 0.930 . S
H358 C372 0.929 . S
H359 C339 0.931 . S
H360 C345 0.931 . S
H361 C346 0.931 . S
H362 C367 0.931 . S
H363 C342 0.929 . S
H364 C375 0.930 . S
N365 Eu336 2.600 . S
N365 C366 1.365 . S
N365 C369 1.319 . S
C366 N365 1.365 . S
C366 C368 1.405 . S
C366 C374 1.448 . S
C367 H362 0.931 . S
C367 C369 1.397 . S
C367 C370 1.367 . S
C368 C366 1.405 . S
C368 C370 1.403 . S
C368 C401 1.439 . S
C369 H354 0.930 . S
C369 N365 1.319 . S
C369 C367 1.397 . S
C370 C367 1.367 . S
C370 C368 1.403 . S
C370 H377 0.929 . S
N371 Eu336 2.562 . S
N371 C372 1.325 . S
N371 C374 1.351 . S
C372 H358 0.929 . S
C372 N371 1.325 . S
C372 C376 1.416 . S
C373 C374 1.430 . S
C373 C375 1.404 . S
C373 C402 1.387 . S
C374 C366 1.448 . S
C374 N371 1.351 . S
C374 C373 1.430 . S
C375 H364 0.930 . S
C375 C373 1.404 . S
C375 C376 1.366 . S
C376 H355 0.930 . S
C376 C372 1.416 . S
C376 C375 1.366 . S
H377 C370 0.929 . S
H378 C401 0.931 . S
H379 C402 0.931 . S
O380 Eu336 2.462 . S
O380 C400 1.252 . S
O381 Eu336 2.373 . S
O381 C392 1.249 . S
O382 Eu347 2.335 1_455 S
O382 C392 1.264 . S
O383 Eu336 2.432 . S
O383 C400 1.268 . S
O384 Eu336 2.291 . S
O384 C399 1.255 . S
O385 Eu347 2.372 1_455 S
O385 C399 1.257 . S
O386 Eu347 2.462 . S
O386 C411 1.252 . S
O387 Eu347 2.328 1_465 S
O387 C403 1.268 . S
O388 Eu336 2.335 . S
O388 C403 1.264 1_545 S
O389 Eu347 2.432 . S
O389 C411 1.268 . S
O390 Eu347 2.291 1_455 S
O390 C410 1.255 . S
O391 Eu336 2.372 . S
O391 C410 1.257 . S
C392 O381 1.249 . S
C392 O382 1.264 . S
C393 C396 1.382 . S
C393 C398 1.390 . S
C393 C400 1.506 . S
C394 C395 1.398 . S
C394 C398 1.392 . S
C395 C394 1.398 . S
C395 C397 1.372 . S
C395 H412 0.931 . S
C396 C393 1.382 . S
C396 C397 1.390 . S
C396 H413 0.931 . S
C397 C395 1.372 . S
C397 C396 1.390 . S
C397 H414 0.929 . S
C398 C393 1.390 . S
C398 C394 1.392 . S
C398 H415 0.930 . S
C399 O384 1.255 . S
C399 O385 1.257 . S
C400 Eu336 2.787 . S
C400 O380 1.252 . S
C400 O383 1.268 . S
C400 C393 1.506 . S
C401 C368 1.439 . S
C401 H378 0.931 . S
C401 C402 1.374 . S
C402 C373 1.387 . S
C402 H379 0.931 . S
C402 C401 1.374 . S
C403 O387 1.268 . S
C403 O388 1.264 1_565 S
C404 C407 1.382 1_554 S
C404 C408 1.390 . S
C404 C411 1.506 . S
C405 C406 1.398 . S
C405 C408 1.392 . S
C406 C405 1.398 . S
C406 C409 1.372 1_554 S
C406 H416 0.931 . S
C407 C404 1.382 1_556 S
C407 C409 1.390 . S
C407 H417 0.931 . S
C408 C404 1.390 . S
C408 C405 1.392 . S
C408 H418 0.930 . S
C409 C406 1.372 1_556 S
C409 C407 1.390 . S
C409 H419 0.929 . S
C410 O390 1.255 . S
C410 O391 1.257 . S
C411 Eu347 2.787 . S
C411 O386 1.252 . S
C411 O389 1.268 . S
C411 C404 1.506 . S
H412 C395 0.931 . S
H413 C396 0.931 . S
H414 C397 0.929 . S
H415 C398 0.930 . S
H416 C406 0.931 . S
H417 C407 0.931 . S
H418 C408 0.930 . S
H419 C409 0.929 . S
Eu420 N449 2.600 . S
Eu420 N455 2.562 . S
Eu420 O464 2.462 . S
Eu420 O465 2.373 . S
Eu420 O467 2.432 . S
Eu420 O468 2.291 . S
Eu420 O472 2.335 . S
Eu420 O475 2.372 . S
Eu420 C484 2.787 . S
C421 N422 1.365 . S
C421 C424 1.405 . S
C421 C428 1.448 . S
N422 C421 1.365 . S
N422 C425 1.319 . S
N422 Eu431 2.600 . S
C423 C425 1.397 . S
C423 C426 1.367 . S
C423 H443 0.931 . S
C424 C421 1.405 . S
C424 C426 1.403 . S
C424 C430 1.439 . S
C425 N422 1.319 . S
C425 C423 1.397 . S
C425 H436 0.930 . S
C426 C423 1.367 . S
C426 C424 1.403 . S
C426 H447 0.929 . S
C427 C428 1.430 . S
C427 C429 1.387 . S
C427 C433 1.404 . S
C428 C421 1.448 . S
C428 C427 1.430 . S
C428 N432 1.351 . S
C429 C427 1.387 . S
C429 C430 1.374 . S
C429 H444 0.931 . S
C430 C424 1.439 . S
C430 C429 1.374 . S
C430 H445 0.931 . S
Eu431 N422 2.600 . S
Eu431 N432 2.562 . S
Eu431 O466 2.335 . S
Eu431 O469 2.372 . S
Eu431 O470 2.462 . S
Eu431 O471 2.373 . S
Eu431 O473 2.432 . S
Eu431 O474 2.291 . S
Eu431 C495 2.787 . S
N432 C428 1.351 . S
N432 Eu431 2.562 . S
N432 C434 1.325 . S
C433 C427 1.404 . S
C433 C435 1.366 . S
C433 H441 0.930 . S
C434 N432 1.325 . S
C434 C435 1.416 . S
C434 H440 0.929 . S
C435 C433 1.366 . S
C435 C434 1.416 . S
C435 H437 0.930 . S
H436 C425 0.930 . S
H437 C435 0.930 . S
H438 C453 0.930 . S
H439 C460 0.930 . S
H440 C434 0.929 . S
H441 C433 0.930 . S
H442 C456 0.929 . S
H443 C423 0.931 . S
H444 C429 0.931 . S
H445 C430 0.931 . S
H446 C451 0.931 . S
H447 C426 0.929 . S
H448 C459 0.930 . S
N449 Eu420 2.600 . S
N449 C450 1.365 . S
N449 C453 1.319 . S
C450 N449 1.365 . S
C450 C452 1.405 . S
C450 C458 1.448 . S
C451 H446 0.931 . S
C451 C453 1.397 . S
C451 C454 1.367 . S
C452 C450 1.405 . S
C452 C454 1.403 . S
C452 C485 1.439 . S
C453 H438 0.930 . S
C453 N449 1.319 . S
C453 C451 1.397 . S
C454 C451 1.367 . S
C454 C452 1.403 . S
C454 H461 0.929 . S
N455 Eu420 2.562 . S
N455 C456 1.325 . S
N455 C458 1.351 . S
C456 H442 0.929 . S
C456 N455 1.325 . S
C456 C460 1.416 . S
C457 C458 1.430 . S
C457 C459 1.404 . S
C457 C486 1.387 . S
C458 C450 1.448 . S
C458 N455 1.351 . S
C458 C457 1.430 . S
C459 H448 0.930 . S
C459 C457 1.404 . S
C459 C460 1.366 . S
C460 H439 0.930 . S
C460 C456 1.416 . S
C460 C459 1.366 . S
H461 C454 0.929 . S
H462 C485 0.931 . S
H463 C486 0.931 . S
O464 Eu420 2.462 . S
O464 C484 1.252 . S
O465 Eu420 2.373 . S
O465 C476 1.249 . S
O466 Eu431 2.335 . S
O466 C476 1.264 . S
O467 Eu420 2.432 . S
O467 C484 1.268 . S
O468 Eu420 2.291 . S
O468 C483 1.255 . S
O469 Eu431 2.372 . S
O469 C483 1.257 . S
O470 Eu431 2.462 . S
O470 C495 1.252 . S
O471 Eu431 2.373 . S
O471 C487 1.249 . S
O472 Eu420 2.335 . S
O472 C487 1.264 . S
O473 Eu431 2.432 . S
O473 C495 1.268 . S
O474 Eu431 2.291 . S
O474 C494 1.255 . S
O475 Eu420 2.372 . S
O475 C494 1.257 . S
C476 O465 1.249 . S
C476 O466 1.264 . S
C477 C480 1.382 . S
C477 C482 1.390 . S
C477 C484 1.506 . S
C478 C479 1.398 . S
C478 C482 1.392 . S
C479 C478 1.398 . S
C479 C481 1.372 . S
C479 H496 0.931 . S
C480 C477 1.382 . S
C480 C481 1.390 . S
C480 H497 0.931 . S
C481 C479 1.372 . S
C481 C480 1.390 . S
C481 H498 0.929 . S
C482 C477 1.390 . S
C482 C478 1.392 . S
C482 H499 0.930 . S
C483 O468 1.255 . S
C483 O469 1.257 . S
C484 Eu420 2.787 . S
C484 O464 1.252 . S
C484 O467 1.268 . S
C484 C477 1.506 . S
C485 C452 1.439 . S
C485 H462 0.931 . S
C485 C486 1.374 . S
C486 C457 1.387 . S
C486 H463 0.931 . S
C486 C485 1.374 . S
C487 O471 1.249 . S
C487 O472 1.264 . S
C488 C491 1.382 . S
C488 C492 1.390 . S
C488 C495 1.506 . S
C489 C490 1.398 . S
C489 C492 1.392 . S
C490 C489 1.398 . S
C490 C493 1.372 . S
C490 H500 0.931 . S
C491 C488 1.382 . S
C491 C493 1.390 . S
C491 H501 0.931 . S
C492 C488 1.390 . S
C492 C489 1.392 . S
C492 H502 0.930 . S
C493 C490 1.372 . S
C493 C491 1.390 . S
C493 H503 0.929 . S
C494 O474 1.255 . S
C494 O475 1.257 . S
C495 Eu431 2.787 . S
C495 O470 1.252 . S
C495 O473 1.268 . S
C495 C488 1.506 . S
H496 C479 0.931 . S
H497 C480 0.931 . S
H498 C481 0.929 . S
H499 C482 0.930 . S
H500 C490 0.931 . S
H501 C491 0.931 . S
H502 C492 0.930 . S
H503 C493 0.929 . S
Eu504 N533 2.587 1_545 S
Eu504 N539 2.562 1_545 S
Eu504 O548 2.462 . S
Eu504 O549 2.373 1_545 S
Eu504 O551 2.432 . S
Eu504 O552 2.291 . S
Eu504 O556 2.335 . S
Eu504 O559 2.372 . S
Eu504 C568 2.787 . S
C505 N506 1.365 . S
C505 C508 1.405 . S
C505 C512 1.448 . S
N506 C505 1.365 . S
N506 C509 1.319 . S
N506 Eu515 2.600 . S
C507 C509 1.397 . S
C507 C510 1.367 . S
C507 H527 0.931 . S
C508 C505 1.405 . S
C508 C510 1.403 . S
C508 C514 1.439 . S
C509 N506 1.319 . S
C509 C507 1.397 . S
C509 H520 0.930 . S
C510 C507 1.367 . S
C510 C508 1.403 . S
C510 H531 0.929 . S
C511 C512 1.430 . S
C511 C513 1.387 . S
C511 C517 1.404 . S
C512 C505 1.448 . S
C512 C511 1.430 . S
C512 N516 1.351 . S
C513 C511 1.387 . S
C513 C514 1.374 . S
C513 H528 0.931 . S
C514 C508 1.439 . S
C514 C513 1.374 . S
C514 H529 0.931 . S
Eu515 N506 2.600 . S
Eu515 N516 2.562 . S
Eu515 O550 2.335 1_545 S
Eu515 O553 2.372 . S
Eu515 O554 2.462 . S
Eu515 O555 2.373 . S
Eu515 O557 2.432 . S
Eu515 O558 2.291 . S
Eu515 C579 2.787 . S
N516 C512 1.351 . S
N516 Eu515 2.562 . S
N516 C518 1.325 . S
C517 C511 1.404 . S
C517 C519 1.366 . S
C517 H525 0.930 . S
C518 N516 1.325 . S
C518 C519 1.416 . S
C518 H524 0.929 . S
C519 C517 1.366 . S
C519 C518 1.416 . S
C519 H521 0.930 . S
H520 C509 0.930 . S
H521 C519 0.930 . S
H522 C537 0.930 . S
H523 C544 0.930 . S
H524 C518 0.929 . S
H525 C517 0.930 . S
H526 C540 0.929 . S
H527 C507 0.931 . S
H528 C513 0.931 . S
H529 C514 0.931 . S
H530 C535 0.931 . S
H531 C510 0.929 . S
H532 C543 0.930 . S
N533 Eu504 2.587 1_565 S
N533 C534 1.379 . S
N533 C537 1.320 1_565 S
C534 N533 1.379 . S
C534 C536 1.405 . S
C534 C542 1.448 . S
C535 H530 0.931 . S
C535 C537 1.397 1_565 S
C535 C538 1.367 . S
C536 C534 1.405 . S
C536 C538 1.403 . S
C536 C569 1.439 . S
C537 H522 0.930 . S
C537 N533 1.320 1_545 S
C537 C535 1.397 1_545 S
C538 C535 1.367 . S
C538 C536 1.403 . S
C538 H545 0.929 . S
N539 Eu504 2.562 1_565 S
N539 C540 1.325 . S
N539 C542 1.351 . S
C540 H526 0.929 . S
C540 N539 1.325 . S
C540 C544 1.416 . S
C541 C542 1.430 . S
C541 C543 1.404 . S
C541 C570 1.387 . S
C542 C534 1.448 . S
C542 N539 1.351 . S
C542 C541 1.430 . S
C543 H532 0.930 . S
C543 C541 1.404 . S
C543 C544 1.366 . S
C544 H523 0.930 . S
C544 C540 1.416 . S
C544 C543 1.366 . S
H545 C538 0.929 . S
H546 C569 0.931 . S
H547 C570 0.931 . S
O548 Eu504 2.462 . S
O548 C568 1.252 . S
O549 Eu504 2.373 1_565 S
O549 C560 1.249 . S
O550 Eu515 2.335 1_565 S
O550 C560 1.264 . S
O551 Eu504 2.432 . S
O551 C568 1.268 . S
O552 Eu504 2.291 . S
O552 C567 1.255 . S
O553 Eu515 2.372 . S
O553 C567 1.257 . S
O554 Eu515 2.462 . S
O554 C579 1.252 . S
O555 Eu515 2.373 . S
O555 C571 1.249 . S
O556 Eu504 2.335 . S
O556 C571 1.264 . S
O557 Eu515 2.432 . S
O557 C579 1.268 . S
O558 Eu515 2.291 . S
O558 C578 1.255 . S
O559 Eu504 2.372 . S
O559 C578 1.257 . S
C560 O549 1.249 . S
C560 O550 1.264 . S
C561 C564 1.382 . S
C561 C566 1.390 . S
C561 C568 1.506 . S
C562 C563 1.398 . S
C562 C566 1.392 . S
C563 C562 1.398 . S
C563 C565 1.372 . S
C563 H580 0.931 . S
C564 C561 1.382 . S
C564 C565 1.390 . S
C564 H581 0.931 . S
C565 C563 1.372 . S
C565 C564 1.390 . S
C565 H582 0.929 . S
C566 C561 1.390 . S
C566 C562 1.392 . S
C566 H583 0.930 . S
C567 O552 1.255 . S
C567 O553 1.257 . S
C568 Eu504 2.787 . S
C568 O548 1.252 . S
C568 O551 1.268 . S
C568 C561 1.506 . S
C569 C536 1.439 . S
C569 H546 0.931 . S
C569 C570 1.374 . S
C570 C541 1.387 . S
C570 H547 0.931 . S
C570 C569 1.374 . S
C571 O555 1.249 . S
C571 O556 1.264 . S
C572 C575 1.379 1_545 S
C572 C576 1.380 1_545 S
C572 C579 1.521 . S
C573 C574 1.398 . S
C573 C576 1.392 . S
C574 C573 1.398 . S
C574 C577 1.372 . S
C574 H584 0.931 . S
C575 C572 1.379 1_565 S
C575 C577 1.390 . S
C575 H585 0.958 . S
C576 C572 1.380 1_565 S
C576 C573 1.392 . S
C576 H586 0.930 . S
C577 C574 1.372 . S
C577 C575 1.390 . S
C577 H587 0.929 . S
C578 O558 1.255 . S
C578 O559 1.257 . S
C579 Eu515 2.787 . S
C579 O554 1.252 . S
C579 O557 1.268 . S
C579 C572 1.521 . S
H580 C563 0.931 . S
H581 C564 0.931 . S
H582 C565 0.929 . S
H583 C566 0.930 . S
H584 C574 0.931 . S
H585 C575 0.958 . S
H586 C576 0.930 . S
H587 C577 0.929 . S
Eu588 N617 2.600 . S
Eu588 N623 2.562 . S
Eu588 O632 2.462 . S
Eu588 O633 2.373 . S
Eu588 O635 2.432 . S
Eu588 O636 2.291 . S
Eu588 O640 2.335 . S
Eu588 O643 2.372 . S
Eu588 C652 2.787 . S
C589 N590 1.365 . S
C589 C592 1.405 . S
C589 C596 1.448 . S
N590 C589 1.365 . S
N590 C593 1.319 . S
N590 Eu599 2.600 . S
C591 C593 1.397 . S
C591 C594 1.367 . S
C591 H611 0.931 . S
C592 C589 1.405 . S
C592 C594 1.403 . S
C592 C598 1.439 . S
C593 N590 1.319 . S
C593 C591 1.397 . S
C593 H604 0.930 . S
C594 C591 1.367 . S
C594 C592 1.403 . S
C594 H615 0.929 . S
C595 C596 1.430 . S
C595 C597 1.387 . S
C595 C601 1.404 . S
C596 C589 1.448 . S
C596 C595 1.430 . S
C596 N600 1.351 . S
C597 C595 1.387 . S
C597 C598 1.374 . S
C597 H612 0.931 . S
C598 C592 1.439 . S
C598 C597 1.374 . S
C598 H613 0.931 . S
Eu599 N590 2.600 . S
Eu599 N600 2.562 . S
Eu599 O634 2.335 . S
Eu599 O637 2.372 . S
Eu599 O638 2.462 . S
Eu599 O639 2.373 . S
Eu599 O641 2.432 . S
Eu599 O642 2.291 . S
Eu599 C663 2.787 . S
N600 C596 1.351 . S
N600 Eu599 2.562 . S
N600 C602 1.325 . S
C601 C595 1.404 . S
C601 C603 1.366 . S
C601 H609 0.930 . S
C602 N600 1.325 . S
C602 C603 1.416 . S
C602 H608 0.929 . S
C603 C601 1.366 . S
C603 C602 1.416 . S
C603 H605 0.930 . S
H604 C593 0.930 . S
H605 C603 0.930 . S
H606 C621 0.930 . S
H607 C628 0.930 . S
H608 C602 0.929 . S
H609 C601 0.930 . S
H610 C624 0.929 . S
H611 C591 0.931 . S
H612 C597 0.931 . S
H613 C598 0.931 . S
H614 C619 0.931 . S
H615 C594 0.929 . S
H616 C627 0.930 . S
N617 Eu588 2.600 . S
N617 C618 1.365 . S
N617 C621 1.319 . S
C618 N617 1.365 . S
C618 C620 1.405 . S
C618 C626 1.448 . S
C619 H614 0.931 . S
C619 C621 1.397 . S
C619 C622 1.367 . S
C620 C618 1.405 . S
C620 C622 1.403 . S
C620 C653 1.439 . S
C621 H606 0.930 . S
C621 N617 1.319 . S
C621 C619 1.397 . S
C622 C619 1.367 . S
C622 C620 1.403 . S
C622 H629 0.929 . S
N623 Eu588 2.562 . S
N623 C624 1.325 . S
N623 C626 1.351 . S
C624 H610 0.929 . S
C624 N623 1.325 . S
C624 C628 1.416 . S
C625 C626 1.430 . S
C625 C627 1.404 . S
C625 C654 1.387 . S
C626 C618 1.448 . S
C626 N623 1.351 . S
C626 C625 1.430 . S
C627 H616 0.930 . S
C627 C625 1.404 . S
C627 C628 1.366 . S
C628 H607 0.930 . S
C628 C624 1.416 . S
C628 C627 1.366 . S
H629 C622 0.929 . S
H630 C653 0.931 . S
H631 C654 0.931 . S
O632 Eu588 2.462 . S
O632 C652 1.252 . S
O633 Eu588 2.373 . S
O633 C644 1.249 . S
O634 Eu599 2.335 . S
O634 C644 1.264 . S
O635 Eu588 2.432 . S
O635 C652 1.268 . S
O636 Eu588 2.291 . S
O636 C651 1.255 . S
O637 Eu599 2.372 . S
O637 C651 1.257 . S
O638 Eu599 2.462 . S
O638 C663 1.252 . S
O639 Eu599 2.373 . S
O639 C655 1.249 . S
O640 Eu588 2.335 . S
O640 C655 1.264 . S
O641 Eu599 2.432 . S
O641 C663 1.268 . S
O642 Eu599 2.291 . S
O642 C662 1.255 . S
O643 Eu588 2.372 . S
O643 C662 1.257 . S
C644 O633 1.249 . S
C644 O634 1.264 . S
C645 C648 1.382 . S
C645 C650 1.390 . S
C645 C652 1.506 . S
C646 C647 1.398 . S
C646 C650 1.392 . S
C647 C646 1.398 . S
C647 C649 1.372 . S
C647 H664 0.931 . S
C648 C645 1.382 . S
C648 C649 1.390 . S
C648 H665 0.931 . S
C649 C647 1.372 . S
C649 C648 1.390 . S
C649 H666 0.929 . S
C650 C645 1.390 . S
C650 C646 1.392 . S
C650 H667 0.930 . S
C651 O636 1.255 . S
C651 O637 1.257 . S
C652 Eu588 2.787 . S
C652 O632 1.252 . S
C652 O635 1.268 . S
C652 C645 1.506 . S
C653 C620 1.439 . S
C653 H630 0.931 . S
C653 C654 1.374 . S
C654 C625 1.387 . S
C654 H631 0.931 . S
C654 C653 1.374 . S
C655 O639 1.249 . S
C655 O640 1.264 . S
C656 C659 1.382 . S
C656 C660 1.390 . S
C656 C663 1.506 . S
C657 C658 1.398 . S
C657 C660 1.392 . S
C658 C657 1.398 . S
C658 C661 1.372 . S
C658 H668 0.931 . S
C659 C656 1.382 . S
C659 C661 1.390 . S
C659 H669 0.931 . S
C660 C656 1.390 . S
C660 C657 1.392 . S
C660 H670 0.930 . S
C661 C658 1.372 . S
C661 C659 1.390 . S
C661 H671 0.929 . S
C662 O642 1.255 . S
C662 O643 1.257 . S
C663 Eu599 2.787 . S
C663 O638 1.252 . S
C663 O641 1.268 . S
C663 C656 1.506 . S
H664 C647 0.931 . S
H665 C648 0.931 . S
H666 C649 0.929 . S
H667 C650 0.930 . S
H668 C658 0.931 . S
H669 C659 0.931 . S
H670 C660 0.930 . S
H671 C661 0.929 . S
Eu672 N701 2.600 1_545 S
Eu672 N707 2.562 1_545 S
Eu672 O716 2.462 1_545 S
Eu672 O717 2.373 . S
Eu672 O719 2.432 1_545 S
Eu672 O720 2.291 . S
Eu672 O724 2.335 . S
Eu672 O727 2.372 . S
Eu672 C736 2.787 1_545 S
C673 N674 1.365 . S
C673 C676 1.405 . S
C673 C680 1.448 . S
N674 C673 1.365 . S
N674 C677 1.319 1_455 S
N674 Eu683 2.600 . S
C675 C677 1.397 . S
C675 C678 1.367 . S
C675 H695 0.931 . S
C676 C673 1.405 . S
C676 C678 1.403 1_455 S
C676 C682 1.439 . S
C677 N674 1.319 1_655 S
C677 C675 1.397 . S
C677 H688 0.930 . S
C678 C675 1.367 . S
C678 C676 1.403 1_655 S
C678 H699 0.929 . S
C679 C680 1.430 . S
C679 C681 1.387 . S
C679 C685 1.404 . S
C680 C673 1.448 . S
C680 C679 1.430 . S
C680 N684 1.351 . S
C681 C679 1.387 . S
C681 C682 1.374 . S
C681 H696 0.931 . S
C682 C676 1.439 . S
C682 C681 1.374 . S
C682 H697 0.931 . S
Eu683 N674 2.600 . S
Eu683 N684 2.562 . S
Eu683 O718 2.335 . S
Eu683 O721 2.372 1_455 S
Eu683 O722 2.462 . S
Eu683 O723 2.373 . S
Eu683 O725 2.432 . S
Eu683 O726 2.291 . S
Eu683 C747 2.787 . S
N684 C680 1.351 . S
N684 Eu683 2.562 . S
N684 C686 1.325 . S
C685 C679 1.404 . S
C685 C687 1.366 . S
C685 H693 0.930 . S
C686 N684 1.325 . S
C686 C687 1.416 . S
C686 H692 0.929 . S
C687 C685 1.366 . S
C687 C686 1.416 . S
C687 H689 0.930 . S
H688 C677 0.930 . S
H689 C687 0.930 . S
H690 C705 0.930 1_545 S
H691 C712 0.930 . S
H692 C686 0.929 . S
H693 C685 0.930 . S
H694 C708 0.929 1_655 S
H695 C675 0.931 . S
H696 C681 0.931 . S
H697 C682 0.931 . S
H698 C703 0.931 1_545 S
H699 C678 0.929 . S
H700 C711 0.937 . S
N701 Eu672 2.600 1_565 S
N701 C702 1.365 . S
N701 C705 1.319 . S
C702 N701 1.365 . S
C702 C704 1.405 . S
C702 C710 1.448 . S
C703 H698 0.931 1_565 S
C703 C705 1.397 . S
C703 C706 1.367 . S
C704 C702 1.405 . S
C704 C706 1.403 . S
C704 C737 1.439 . S
C705 H690 0.930 1_565 S
C705 N701 1.319 . S
C705 C703 1.397 . S
C706 C703 1.367 . S
C706 C704 1.403 . S
C706 H713 0.929 . S
N707 Eu672 2.562 1_565 S
N707 C708 1.325 . S
N707 C710 1.351 . S
C708 H694 0.929 1_455 S
C708 N707 1.325 . S
C708 C712 1.416 1_455 S
C709 C710 1.430 . S
C709 C711 1.386 1_455 S
C709 C738 1.387 . S
C710 C702 1.448 . S
C710 N707 1.351 . S
C710 C709 1.430 . S
C711 H700 0.937 . S
C711 C709 1.386 1_655 S
C711 C712 1.379 . S
C712 H691 0.930 . S
C712 C708 1.416 1_655 S
C712 C711 1.379 . S
H713 C706 0.929 . S
H714 C737 0.931 . S
H715 C738 0.931 . S
O716 Eu672 2.462 1_565 S
O716 C736 1.252 . S
O717 Eu672 2.373 . S
O717 C728 1.249 . S
O718 Eu683 2.335 . S
O718 C728 1.264 . S
O719 Eu672 2.432 1_565 S
O719 C736 1.268 . S
O720 Eu672 2.291 . S
O720 C735 1.255 1_455 S
O721 Eu683 2.372 1_655 S
O721 C735 1.257 . S
O722 Eu683 2.462 . S
O722 C747 1.252 . S
O723 Eu683 2.373 . S
O723 C739 1.249 . S
O724 Eu672 2.335 . S
O724 C739 1.264 . S
O725 Eu683 2.432 . S
O725 C747 1.268 . S
O726 Eu683 2.291 . S
O726 C746 1.255 . S
O727 Eu672 2.372 . S
O727 C746 1.257 . S
C728 O717 1.249 . S
C728 O718 1.264 . S
C729 C732 1.382 . S
C729 C734 1.390 . S
C729 C736 1.506 . S
C730 C731 1.398 . S
C730 C734 1.392 . S
C731 C730 1.398 . S
C731 C733 1.372 . S
C731 H748 0.931 . S
C732 C729 1.382 . S
C732 C733 1.390 . S
C732 H749 0.931 . S
C733 C731 1.372 . S
C733 C732 1.390 . S
C733 H750 0.929 . S
C734 C729 1.390 . S
C734 C730 1.392 . S
C734 H751 0.930 . S
C735 O720 1.255 1_655 S
C735 O721 1.257 . S
C736 Eu672 2.787 1_565 S
C736 O716 1.252 . S
C736 O719 1.268 . S
C736 C729 1.506 . S
C737 C704 1.439 . S
C737 H714 0.931 . S
C737 C738 1.374 . S
C738 C709 1.387 . S
C738 H715 0.931 . S
C738 C737 1.374 . S
C739 O723 1.249 . S
C739 O724 1.264 . S
C740 C743 1.382 1_455 S
C740 C744 1.390 . S
C740 C747 1.506 . S
C741 C742 1.398 . S
C741 C744 1.392 . S
C742 C741 1.398 . S
C742 C745 1.372 1_455 S
C742 H752 0.931 . S
C743 C740 1.382 1_655 S
C743 C745 1.390 . S
C743 H753 0.931 . S
C744 C740 1.390 . S
C744 C741 1.392 . S
C744 H754 0.930 . S
C745 C742 1.372 1_655 S
C745 C743 1.390 . S
C745 H755 0.929 . S
C746 O726 1.255 . S
C746 O727 1.257 . S
C747 Eu683 2.787 . S
C747 O722 1.252 . S
C747 O725 1.268 . S
C747 C740 1.506 . S
H748 C731 0.931 . S
H749 C732 0.931 . S
H750 C733 0.929 . S
H751 C734 0.930 . S
H752 C742 0.931 . S
H753 C743 0.931 . S
H754 C744 0.930 . S
H755 C745 0.929 . S
Eu756 N785 2.600 . S
Eu756 N791 2.562 . S
Eu756 O800 2.462 . S
Eu756 O801 2.373 . S
Eu756 O803 2.432 . S
Eu756 O804 2.291 . S
Eu756 O808 2.335 . S
Eu756 O811 2.372 . S
Eu756 C820 2.787 . S
C757 N758 1.365 . S
C757 C760 1.405 . S
C757 C764 1.448 . S
N758 C757 1.365 . S
N758 C761 1.319 . S
N758 Eu767 2.600 . S
C759 C761 1.397 . S
C759 C762 1.367 . S
C759 H779 0.931 . S
C760 C757 1.405 . S
C760 C762 1.403 . S
C760 C766 1.439 . S
C761 N758 1.319 . S
C761 C759 1.397 . S
C761 H772 0.930 . S
C762 C759 1.367 . S
C762 C760 1.403 . S
C762 H783 0.929 . S
C763 C764 1.430 . S
C763 C765 1.387 . S
C763 C769 1.404 . S
C764 C757 1.448 . S
C764 C763 1.430 . S
C764 N768 1.351 . S
C765 C763 1.387 . S
C765 C766 1.374 . S
C765 H780 0.931 . S
C766 C760 1.439 . S
C766 C765 1.374 . S
C766 H781 0.931 . S
Eu767 N758 2.600 . S
Eu767 N768 2.562 . S
Eu767 O802 2.335 . S
Eu767 O805 2.372 . S
Eu767 O806 2.462 . S
Eu767 O807 2.373 . S
Eu767 O809 2.432 . S
Eu767 O810 2.291 . S
Eu767 C831 2.787 . S
N768 C764 1.351 . S
N768 Eu767 2.562 . S
N768 C770 1.325 . S
C769 C763 1.404 . S
C769 C771 1.366 . S
C769 H777 0.930 . S
C770 N768 1.325 . S
C770 C771 1.416 . S
C770 H776 0.929 . S
C771 C769 1.366 . S
C771 C770 1.416 . S
C771 H773 0.930 . S
H772 C761 0.930 . S
H773 C771 0.930 . S
H774 C789 0.930 . S
H775 C796 0.930 . S
H776 C770 0.929 . S
H777 C769 0.930 . S
H778 C792 0.929 . S
H779 C759 0.931 . S
H780 C765 0.931 . S
H781 C766 0.931 . S
H782 C787 0.931 . S
H783 C762 0.929 . S
H784 C795 0.930 . S
N785 Eu756 2.600 . S
N785 C786 1.365 . S
N785 C789 1.319 . S
C786 N785 1.365 . S
C786 C788 1.405 . S
C786 C794 1.448 . S
C787 H782 0.931 . S
C787 C789 1.397 . S
C787 C790 1.367 . S
C788 C786 1.405 . S
C788 C790 1.403 . S
C788 C821 1.439 . S
C789 H774 0.930 . S
C789 N785 1.319 . S
C789 C787 1.397 . S
C790 C787 1.367 . S
C790 C788 1.403 . S
C790 H797 0.929 . S
N791 Eu756 2.562 . S
N791 C792 1.325 . S
N791 C794 1.351 . S
C792 H778 0.929 . S
C792 N791 1.325 . S
C792 C796 1.416 . S
C793 C794 1.430 . S
C793 C795 1.404 . S
C793 C822 1.387 . S
C794 C786 1.448 . S
C794 N791 1.351 . S
C794 C793 1.430 . S
C795 H784 0.930 . S
C795 C793 1.404 . S
C795 C796 1.366 . S
C796 H775 0.930 . S
C796 C792 1.416 . S
C796 C795 1.366 . S
H797 C790 0.929 . S
H798 C821 0.931 . S
H799 C822 0.931 . S
O800 Eu756 2.462 . S
O800 C820 1.252 . S
O801 Eu756 2.373 . S
O801 C812 1.249 . S
O802 Eu767 2.335 . S
O802 C812 1.264 . S
O803 Eu756 2.432 . S
O803 C820 1.268 . S
O804 Eu756 2.291 . S
O804 C819 1.255 . S
O805 Eu767 2.372 . S
O805 C819 1.257 . S
O806 Eu767 2.462 . S
O806 C831 1.252 . S
O807 Eu767 2.373 . S
O807 C823 1.249 . S
O808 Eu756 2.335 . S
O808 C823 1.264 . S
O809 Eu767 2.432 . S
O809 C831 1.268 . S
O810 Eu767 2.291 . S
O810 C830 1.255 . S
O811 Eu756 2.372 . S
O811 C830 1.257 . S
C812 O801 1.249 . S
C812 O802 1.264 . S
C813 C816 1.382 . S
C813 C818 1.390 . S
C813 C820 1.506 . S
C814 C815 1.398 . S
C814 C818 1.392 . S
C815 C814 1.398 . S
C815 C817 1.372 . S
C815 H832 0.931 . S
C816 C813 1.382 . S
C816 C817 1.390 . S
C816 H833 0.931 . S
C817 C815 1.372 . S
C817 C816 1.390 . S
C817 H834 0.929 . S
C818 C813 1.390 . S
C818 C814 1.392 . S
C818 H835 0.930 . S
C819 O804 1.255 . S
C819 O805 1.257 . S
C820 Eu756 2.787 . S
C820 O800 1.252 . S
C820 O803 1.268 . S
C820 C813 1.506 . S
C821 C788 1.439 . S
C821 H798 0.931 . S
C821 C822 1.374 . S
C822 C793 1.387 . S
C822 H799 0.931 . S
C822 C821 1.374 . S
C823 O807 1.249 . S
C823 O808 1.264 . S
C824 C827 1.382 . S
C824 C828 1.390 . S
C824 C831 1.506 . S
C825 C826 1.398 . S
C825 C828 1.392 . S
C826 C825 1.398 . S
C826 C829 1.372 . S
C826 H836 0.931 . S
C827 C824 1.382 . S
C827 C829 1.390 . S
C827 H837 0.931 . S
C828 C824 1.390 . S
C828 C825 1.392 . S
C828 H838 0.930 . S
C829 C826 1.372 . S
C829 C827 1.390 . S
C829 H839 0.929 . S
C830 O810 1.255 . S
C830 O811 1.257 . S
C831 Eu767 2.787 . S
C831 O806 1.252 . S
C831 O809 1.268 . S
C831 C824 1.506 . S
H832 C815 0.931 . S
H833 C816 0.931 . S
H834 C817 0.929 . S
H835 C818 0.930 . S
H836 C826 0.931 . S
H837 C827 0.931 . S
H838 C828 0.930 . S
H839 C829 0.929 . S
Eu840 N869 2.589 1_554 S
Eu840 N875 2.562 1_554 S
Eu840 O884 2.462 1_554 S
Eu840 O885 2.373 . S
Eu840 O887 2.432 1_554 S
Eu840 O888 2.291 . S
Eu840 O892 2.335 . S
Eu840 O895 2.372 . S
Eu840 C904 2.787 1_554 S
C841 N842 1.365 1_545 S
C841 C844 1.405 1_545 S
C841 C848 1.448 . S
N842 C841 1.365 1_565 S
N842 C845 1.319 . S
N842 Eu851 2.600 1_565 S
C843 C845 1.397 . S
C843 C846 1.367 . S
C843 H863 0.931 . S
C844 C841 1.405 1_565 S
C844 C846 1.403 . S
C844 C850 1.439 1_565 S
C845 N842 1.319 . S
C845 C843 1.397 . S
C845 H856 0.930 . S
C846 C843 1.367 . S
C846 C844 1.403 . S
C846 H867 0.929 . S
C847 C848 1.430 . S
C847 C849 1.387 . S
C847 C853 1.404 . S
C848 C841 1.448 . S
C848 C847 1.430 . S
C848 N852 1.351 . S
C849 C847 1.387 . S
C849 C850 1.374 . S
C849 H864 0.931 . S
C850 C844 1.439 1_545 S
C850 C849 1.374 . S
C850 H865 0.931 1_545 S
Eu851 N842 2.600 1_545 S
Eu851 N852 2.562 . S
Eu851 O886 2.335 . S
Eu851 O889 2.372 1_545 S
Eu851 O890 2.462 . S
Eu851 O891 2.373 . S
Eu851 O893 2.432 1_545 S
Eu851 O894 2.291 . S
Eu851 C915 2.787 . S
N852 C848 1.351 . S
N852 Eu851 2.562 . S
N852 C854 1.325 . S
C853 C847 1.404 . S
C853 C855 1.366 . S
C853 H861 0.930 . S
C854 N852 1.325 . S
C854 C855 1.416 . S
C854 H860 0.929 . S
C855 C853 1.366 . S
C855 C854 1.416 . S
C855 H857 0.930 . S
H856 C845 0.930 . S
H857 C855 0.930 . S
H858 C873 0.930 . S
H859 C880 0.930 . S
H860 C854 0.929 . S
H861 C853 0.930 . S
H862 C876 0.925 . S
H863 C843 0.931 . S
H864 C849 0.931 . S
H865 C850 0.931 1_565 S
H866 C871 0.931 . S
H867 C846 0.929 . S
H868 C879 0.930 1_565 S
N869 Eu840 2.589 1_556 S
N869 C870 1.387 . S
N869 C873 1.308 1_556 S
C870 N869 1.387 . S
C870 C872 1.405 . S
C870 C878 1.448 . S
C871 H866 0.931 . S
C871 C873 1.397 . S
C871 C874 1.367 1_554 S
C872 C870 1.405 . S
C872 C874 1.403 . S
C872 C905 1.439 . S
C873 H858 0.930 . S
C873 N869 1.308 1_554 S
C873 C871 1.397 . S
C874 C871 1.367 1_556 S
C874 C872 1.403 . S
C874 H881 0.929 . S
N875 Eu840 2.562 1_556 S
N875 C876 1.325 . S
N875 C878 1.351 . S
C876 H862 0.925 . S
C876 N875 1.325 . S
C876 C880 1.416 1_545 S
C877 C878 1.430 . S
C877 C879 1.404 . S
C877 C906 1.387 . S
C878 C870 1.448 . S
C878 N875 1.351 . S
C878 C877 1.430 . S
C879 H868 0.930 1_545 S
C879 C877 1.404 . S
C879 C880 1.366 1_545 S
C880 H859 0.930 . S
C880 C876 1.416 1_565 S
C880 C879 1.366 1_565 S
H881 C874 0.929 . S
H882 C905 0.931 . S
H883 C906 0.931 . S
O884 Eu840 2.462 1_556 S
O884 C904 1.252 . S
O885 Eu840 2.373 . S
O885 C896 1.249 . S
O886 Eu851 2.335 . S
O886 C896 1.264 . S
O887 Eu840 2.432 1_556 S
O887 C904 1.268 . S
O888 Eu840 2.291 . S
O888 C903 1.255 1_545 S
O889 Eu851 2.372 1_565 S
O889 C903 1.257 . S
O890 Eu851 2.462 . S
O890 C915 1.252 . S
O891 Eu851 2.373 . S
O891 C907 1.249 . S
O892 Eu840 2.335 . S
O892 C907 1.264 . S
O893 Eu851 2.432 1_565 S
O893 C915 1.268 1_565 S
O894 Eu851 2.291 . S
O894 C914 1.255 . S
O895 Eu840 2.372 . S
O895 C914 1.257 . S
C896 O885 1.249 . S
C896 O886 1.264 . S
C897 C900 1.382 . S
C897 C902 1.390 . S
C897 C904 1.506 . S
C898 C899 1.398 . S
C898 C902 1.392 . S
C899 C898 1.398 . S
C899 C901 1.372 . S
C899 H916 0.931 . S
C900 C897 1.382 . S
C900 C901 1.390 . S
C900 H917 0.931 . S
C901 C899 1.372 . S
C901 C900 1.390 . S
C901 H918 0.929 . S
C902 C897 1.390 . S
C902 C898 1.392 . S
C902 H919 0.930 . S
C903 O888 1.255 1_565 S
C903 O889 1.257 . S
C904 Eu840 2.787 1_556 S
C904 O884 1.252 . S
C904 O887 1.268 . S
C904 C897 1.506 . S
C905 C872 1.439 . S
C905 H882 0.931 . S
C905 C906 1.374 . S
C906 C877 1.387 . S
C906 H883 0.931 . S
C906 C905 1.374 . S
C907 O891 1.249 . S
C907 O892 1.264 . S
C908 C911 1.382 . S
C908 C912 1.390 1_565 S
C908 C915 1.506 1_565 S
C909 C910 1.398 1_545 S
C909 C912 1.392 . S
C910 C909 1.398 1_565 S
C910 C913 1.372 . S
C910 H920 0.931 . S
C911 C908 1.382 . S
C911 C913 1.390 . S
C911 H921 0.931 . S
C912 C908 1.390 1_545 S
C912 C909 1.392 . S
C912 H922 0.930 . S
C913 C910 1.372 . S
C913 C911 1.390 . S
C913 H923 0.929 . S
C914 O894 1.255 . S
C914 O895 1.257 . S
C915 Eu851 2.787 . S
C915 O890 1.252 . S
C915 O893 1.268 1_545 S
C915 C908 1.506 1_545 S
H916 C899 0.931 . S
H917 C900 0.931 . S
H918 C901 0.929 . S
H919 C902 0.930 . S
H920 C910 0.931 . S
H921 C911 0.931 . S
H922 C912 0.930 . S
H923 C913 0.929 . S
Eu924 N953 2.600 . S
Eu924 N959 2.562 . S
Eu924 O968 2.462 . S
Eu924 O969 2.373 . S
Eu924 O971 2.432 . S
Eu924 O972 2.291 . S
Eu924 O976 2.335 . S
Eu924 O979 2.372 . S
Eu924 C988 2.787 . S
C925 N926 1.365 . S
C925 C928 1.405 . S
C925 C932 1.448 . S
N926 C925 1.365 . S
N926 C929 1.319 . S
N926 Eu935 2.600 . S
C927 C929 1.397 . S
C927 C930 1.367 . S
C927 H947 0.931 . S
C928 C925 1.405 . S
C928 C930 1.403 . S
C928 C934 1.439 . S
C929 N926 1.319 . S
C929 C927 1.397 . S
C929 H940 0.930 . S
C930 C927 1.367 . S
C930 C928 1.403 . S
C930 H951 0.929 . S
C931 C932 1.430 . S
C931 C933 1.387 . S
C931 C937 1.404 . S
C932 C925 1.448 . S
C932 C931 1.430 . S
C932 N936 1.351 . S
C933 C931 1.387 . S
C933 C934 1.374 . S
C933 H948 0.931 . S
C934 C928 1.439 . S
C934 C933 1.374 . S
C934 H949 0.931 . S
Eu935 N926 2.600 . S
Eu935 N936 2.562 . S
Eu935 O970 2.335 . S
Eu935 O973 2.372 . S
Eu935 O974 2.462 . S
Eu935 O975 2.373 . S
Eu935 O977 2.432 . S
Eu935 O978 2.291 . S
Eu935 C999 2.787 . S
N936 C932 1.351 . S
N936 Eu935 2.562 . S
N936 C938 1.325 . S
C937 C931 1.404 . S
C937 C939 1.366 . S
C937 H945 0.930 . S
C938 N936 1.325 . S
C938 C939 1.416 . S
C938 H944 0.929 . S
C939 C937 1.366 . S
C939 C938 1.416 . S
C939 H941 0.930 . S
H940 C929 0.930 . S
H941 C939 0.930 . S
H942 C957 0.930 . S
H943 C964 0.930 . S
H944 C938 0.929 . S
H945 C937 0.930 . S
H946 C960 0.929 . S
H947 C927 0.931 . S
H948 C933 0.931 . S
H949 C934 0.931 . S
H950 C955 0.931 . S
H951 C930 0.929 . S
H952 C963 0.930 . S
N953 Eu924 2.600 . S
N953 C954 1.365 . S
N953 C957 1.319 . S
C954 N953 1.365 . S
C954 C956 1.405 . S
C954 C962 1.448 . S
C955 H950 0.931 . S
C955 C957 1.397 . S
C955 C958 1.367 . S
C956 C954 1.405 . S
C956 C958 1.403 . S
C956 C989 1.439 . S
C957 H942 0.930 . S
C957 N953 1.319 . S
C957 C955 1.397 . S
C958 C955 1.367 . S
C958 C956 1.403 . S
C958 H965 0.929 . S
N959 Eu924 2.562 . S
N959 C960 1.325 . S
N959 C962 1.351 . S
C960 H946 0.929 . S
C960 N959 1.325 . S
C960 C964 1.416 . S
C961 C962 1.430 . S
C961 C963 1.404 . S
C961 C990 1.387 . S
C962 C954 1.448 . S
C962 N959 1.351 . S
C962 C961 1.430 . S
C963 H952 0.930 . S
C963 C961 1.404 . S
C963 C964 1.366 . S
C964 H943 0.930 . S
C964 C960 1.416 . S
C964 C963 1.366 . S
H965 C958 0.929 . S
H966 C989 0.931 . S
H967 C990 0.931 . S
O968 Eu924 2.462 . S
O968 C988 1.252 . S
O969 Eu924 2.373 . S
O969 C980 1.249 . S
O970 Eu935 2.335 . S
O970 C980 1.264 . S
O971 Eu924 2.432 . S
O971 C988 1.268 . S
O972 Eu924 2.291 . S
O972 C987 1.255 . S
O973 Eu935 2.372 . S
O973 C987 1.257 . S
O974 Eu935 2.462 . S
O974 C999 1.252 . S
O975 Eu935 2.373 . S
O975 C991 1.249 . S
O976 Eu924 2.335 . S
O976 C991 1.264 . S
O977 Eu935 2.432 . S
O977 C999 1.268 . S
O978 Eu935 2.291 . S
O978 C998 1.255 . S
O979 Eu924 2.372 . S
O979 C998 1.257 . S
C980 O969 1.249 . S
C980 O970 1.264 . S
C981 C984 1.382 . S
C981 C986 1.390 . S
C981 C988 1.506 . S
C982 C983 1.398 . S
C982 C986 1.392 . S
C983 C982 1.398 . S
C983 C985 1.372 . S
C983 H1000 0.931 . S
C984 C981 1.382 . S
C984 C985 1.390 . S
C984 H1001 0.931 . S
C985 C983 1.372 . S
C985 C984 1.390 . S
C985 H1002 0.929 . S
C986 C981 1.390 . S
C986 C982 1.392 . S
C986 H1003 0.930 . S
C987 O972 1.255 . S
C987 O973 1.257 . S
C988 Eu924 2.787 . S
C988 O968 1.252 . S
C988 O971 1.268 . S
C988 C981 1.506 . S
C989 C956 1.439 . S
C989 H966 0.931 . S
C989 C990 1.374 . S
C990 C961 1.387 . S
C990 H967 0.931 . S
C990 C989 1.374 . S
C991 O975 1.249 . S
C991 O976 1.264 . S
C992 C995 1.382 . S
C992 C996 1.390 . S
C992 C999 1.506 . S
C993 C994 1.398 . S
C993 C996 1.392 . S
C994 C993 1.398 . S
C994 C997 1.372 . S
C994 H1004 0.931 . S
C995 C992 1.382 . S
C995 C997 1.390 . S
C995 H1005 0.931 . S
C996 C992 1.390 . S
C996 C993 1.392 . S
C996 H1006 0.930 . S
C997 C994 1.372 . S
C997 C995 1.390 . S
C997 H1007 0.929 . S
C998 O978 1.255 . S
C998 O979 1.257 . S
C999 Eu935 2.787 . S
C999 O974 1.252 . S
C999 O977 1.268 . S
C999 C992 1.506 . S
H1000 C983 0.931 . S
H1001 C984 0.931 . S
H1002 C985 0.929 . S
H1003 C986 0.930 . S
H1004 C994 0.931 . S
H1005 C995 0.931 . S
H1006 C996 0.930 . S
H1007 C997 0.929 . S
Eu1008 N1037 2.600 . S
Eu1008 N1043 2.562 . S
Eu1008 O1052 2.462 . S
Eu1008 O1053 2.373 . S
Eu1008 O1055 2.432 . S
Eu1008 O1056 2.291 . S
Eu1008 O1060 2.335 . S
Eu1008 O1063 2.372 . S
Eu1008 C1072 2.787 . S
C1009 N1010 1.365 . S
C1009 C1012 1.405 . S
C1009 C1016 1.448 . S
N1010 C1009 1.365 . S
N1010 C1013 1.319 . S
N1010 Eu1019 2.600 . S
C1011 C1013 1.397 . S
C1011 C1014 1.367 . S
C1011 H1031 0.931 . S
C1012 C1009 1.405 . S
C1012 C1014 1.403 . S
C1012 C1018 1.439 . S
C1013 N1010 1.319 . S
C1013 C1011 1.397 . S
C1013 H1024 0.930 . S
C1014 C1011 1.367 . S
C1014 C1012 1.403 . S
C1014 H1035 0.929 . S
C1015 C1016 1.430 . S
C1015 C1017 1.387 . S
C1015 C1021 1.404 . S
C1016 C1009 1.448 . S
C1016 C1015 1.430 . S
C1016 N1020 1.351 . S
C1017 C1015 1.387 . S
C1017 C1018 1.374 . S
C1017 H1032 0.931 . S
C1018 C1012 1.439 . S
C1018 C1017 1.374 . S
C1018 H1033 0.931 . S
Eu1019 N1010 2.600 . S
Eu1019 N1020 2.562 . S
Eu1019 O1054 2.335 . S
Eu1019 O1057 2.372 . S
Eu1019 O1058 2.462 . S
Eu1019 O1059 2.373 . S
Eu1019 O1061 2.432 . S
Eu1019 O1062 2.291 . S
Eu1019 C1083 2.787 . S
N1020 C1016 1.351 . S
N1020 Eu1019 2.562 . S
N1020 C1022 1.325 . S
C1021 C1015 1.404 . S
C1021 C1023 1.366 . S
C1021 H1029 0.930 . S
C1022 N1020 1.325 . S
C1022 C1023 1.416 . S
C1022 H1028 0.929 . S
C1023 C1021 1.366 . S
C1023 C1022 1.416 . S
C1023 H1025 0.930 . S
H1024 C1013 0.930 . S
H1025 C1023 0.930 . S
H1026 C1041 0.930 . S
H1027 C1048 0.930 . S
H1028 C1022 0.929 . S
H1029 C1021 0.930 . S
H1030 C1044 0.929 . S
H1031 C1011 0.931 . S
H1032 C1017 0.931 . S
H1033 C1018 0.931 . S
H1034 C1039 0.931 . S
H1035 C1014 0.929 . S
H1036 C1047 0.930 . S
N1037 Eu1008 2.600 . S
N1037 C1038 1.365 1_554 S
N1037 C1041 1.319 . S
C1038 N1037 1.365 1_556 S
C1038 C1040 1.405 . S
C1038 C1046 1.448 . S
C1039 H1034 0.931 . S
C1039 C1041 1.397 1_556 S
C1039 C1042 1.367 . S
C1040 C1038 1.405 . S
C1040 C1042 1.403 . S
C1040 C1073 1.439 . S
C1041 H1026 0.930 . S
C1041 N1037 1.319 . S
C1041 C1039 1.397 1_554 S
C1042 C1039 1.367 . S
C1042 C1040 1.403 . S
C1042 H1049 0.929 . S
N1043 Eu1008 2.562 . S
N1043 C1044 1.325 . S
N1043 C1046 1.351 1_554 S
C1044 H1030 0.929 . S
C1044 N1043 1.325 . S
C1044 C1048 1.416 1_554 S
C1045 C1046 1.430 . S
C1045 C1047 1.404 . S
C1045 C1074 1.387 . S
C1046 C1038 1.448 . S
C1046 N1043 1.351 1_556 S
C1046 C1045 1.430 . S
C1047 H1036 0.930 . S
C1047 C1045 1.404 . S
C1047 C1048 1.366 . S
C1048 H1027 0.930 . S
C1048 C1044 1.416 1_556 S
C1048 C1047 1.366 . S
H1049 C1042 0.929 . S
H1050 C1073 0.931 . S
H1051 C1074 0.931 . S
O1052 Eu1008 2.462 . S
O1052 C1072 1.252 . S
O1053 Eu1008 2.373 . S
O1053 C1064 1.249 1_554 S
O1054 Eu1019 2.335 . S
O1054 C1064 1.264 1_554 S
O1055 Eu1008 2.432 . S
O1055 C1072 1.268 . S
O1056 Eu1008 2.291 . S
O1056 C1071 1.255 . S
O1057 Eu1019 2.372 . S
O1057 C1071 1.257 . S
O1058 Eu1019 2.462 . S
O1058 C1083 1.252 . S
O1059 Eu1019 2.373 . S
O1059 C1075 1.249 . S
O1060 Eu1008 2.335 . S
O1060 C1075 1.264 . S
O1061 Eu1019 2.432 . S
O1061 C1083 1.268 . S
O1062 Eu1019 2.291 . S
O1062 C1082 1.255 . S
O1063 Eu1008 2.372 . S
O1063 C1082 1.257 . S
C1064 O1053 1.249 1_556 S
C1064 O1054 1.264 1_556 S
C1065 C1068 1.382 . S
C1065 C1070 1.390 . S
C1065 C1072 1.506 . S
C1066 C1067 1.398 . S
C1066 C1070 1.392 . S
C1067 C1066 1.398 . S
C1067 C1069 1.372 . S
C1067 H1084 0.931 . S
C1068 C1065 1.382 . S
C1068 C1069 1.390 . S
C1068 H1085 0.931 . S
C1069 C1067 1.372 . S
C1069 C1068 1.390 . S
C1069 H1086 0.929 . S
C1070 C1065 1.390 . S
C1070 C1066 1.392 . S
C1070 H1087 0.930 . S
C1071 O1056 1.255 . S
C1071 O1057 1.257 . S
C1072 Eu1008 2.787 . S
C1072 O1052 1.252 . S
C1072 O1055 1.268 . S
C1072 C1065 1.506 . S
C1073 C1040 1.439 . S
C1073 H1050 0.931 . S
C1073 C1074 1.374 . S
C1074 C1045 1.387 . S
C1074 H1051 0.931 . S
C1074 C1073 1.374 . S
C1075 O1059 1.249 . S
C1075 O1060 1.264 . S
C1076 C1079 1.382 . S
C1076 C1080 1.390 . S
C1076 C1083 1.506 . S
C1077 C1078 1.398 . S
C1077 C1080 1.392 1_556 S
C1078 C1077 1.398 . S
C1078 C1081 1.372 1_556 S
C1078 H1088 0.931 . S
C1079 C1076 1.382 . S
C1079 C1081 1.390 . S
C1079 H1089 0.931 . S
C1080 C1076 1.390 . S
C1080 C1077 1.392 1_554 S
C1080 H1090 0.930 . S
C1081 C1078 1.372 1_554 S
C1081 C1079 1.390 . S
C1081 H1091 0.929 1_554 S
C1082 O1062 1.255 . S
C1082 O1063 1.257 . S
C1083 Eu1019 2.787 . S
C1083 O1058 1.252 . S
C1083 O1061 1.268 . S
C1083 C1076 1.506 . S
H1084 C1067 0.931 . S
H1085 C1068 0.931 . S
H1086 C1069 0.929 . S
H1087 C1070 0.930 . S
H1088 C1078 0.931 . S
H1089 C1079 0.931 . S
H1090 C1080 0.930 . S
H1091 C1081 0.929 1_556 S
Eu1092 N1121 2.600 . S
Eu1092 N1127 2.562 . S
Eu1092 O1136 2.462 . S
Eu1092 O1137 2.373 . S
Eu1092 O1139 2.432 . S
Eu1092 O1140 2.291 . S
Eu1092 O1144 2.335 . S
Eu1092 O1147 2.372 . S
Eu1092 C1156 2.787 . S
C1093 N1094 1.365 . S
C1093 C1096 1.405 . S
C1093 C1100 1.448 . S
N1094 C1093 1.365 . S
N1094 C1097 1.319 . S
N1094 Eu1103 2.600 . S
C1095 C1097 1.397 . S
C1095 C1098 1.367 . S
C1095 H1115 0.931 . S
C1096 C1093 1.405 . S
C1096 C1098 1.403 . S
C1096 C1102 1.439 . S
C1097 N1094 1.319 . S
C1097 C1095 1.397 . S
C1097 H1108 0.930 . S
C1098 C1095 1.367 . S
C1098 C1096 1.403 . S
C1098 H1119 0.929 . S
C1099 C1100 1.430 . S
C1099 C1101 1.387 . S
C1099 C1105 1.404 . S
C1100 C1093 1.448 . S
C1100 C1099 1.430 . S
C1100 N1104 1.351 . S
C1101 C1099 1.387 . S
C1101 C1102 1.374 . S
C1101 H1116 0.931 . S
C1102 C1096 1.439 . S
C1102 C1101 1.374 . S
C1102 H1117 0.931 . S
Eu1103 N1094 2.600 . S
Eu1103 N1104 2.562 . S
Eu1103 O1138 2.335 . S
Eu1103 O1141 2.372 . S
Eu1103 O1142 2.462 . S
Eu1103 O1143 2.373 . S
Eu1103 O1145 2.432 . S
Eu1103 O1146 2.291 . S
Eu1103 C1167 2.787 . S
N1104 C1100 1.351 . S
N1104 Eu1103 2.562 . S
N1104 C1106 1.325 . S
C1105 C1099 1.404 . S
C1105 C1107 1.366 . S
C1105 H1113 0.930 . S
C1106 N1104 1.325 . S
C1106 C1107 1.416 . S
C1106 H1112 0.929 . S
C1107 C1105 1.366 . S
C1107 C1106 1.416 . S
C1107 H1109 0.930 . S
H1108 C1097 0.930 . S
H1109 C1107 0.930 . S
H1110 C1125 0.930 . S
H1111 C1132 0.930 . S
H1112 C1106 0.929 . S
H1113 C1105 0.930 . S
H1114 C1128 0.929 . S
H1115 C1095 0.931 . S
H1116 C1101 0.931 . S
H1117 C1102 0.931 . S
H1118 C1123 0.931 . S
H1119 C1098 0.929 . S
H1120 C1131 0.930 . S
N1121 Eu1092 2.600 . S
N1121 C1122 1.365 . S
N1121 C1125 1.319 . S
C1122 N1121 1.365 . S
C1122 C1124 1.405 . S
C1122 C1130 1.448 . S
C1123 H1118 0.931 . S
C1123 C1125 1.397 . S
C1123 C1126 1.367 . S
C1124 C1122 1.405 . S
C1124 C1126 1.403 . S
C1124 C1157 1.439 . S
C1125 H1110 0.930 . S
C1125 N1121 1.319 . S
C1125 C1123 1.397 . S
C1126 C1123 1.367 . S
C1126 C1124 1.403 . S
C1126 H1133 0.929 . S
N1127 Eu1092 2.562 . S
N1127 C1128 1.325 . S
N1127 C1130 1.351 . S
C1128 H1114 0.929 . S
C1128 N1127 1.325 . S
C1128 C1132 1.416 . S
C1129 C1130 1.430 . S
C1129 C1131 1.404 . S
C1129 C1158 1.387 . S
C1130 C1122 1.448 . S
C1130 N1127 1.351 . S
C1130 C1129 1.430 . S
C1131 H1120 0.930 . S
C1131 C1129 1.404 . S
C1131 C1132 1.366 . S
C1132 H1111 0.930 . S
C1132 C1128 1.416 . S
C1132 C1131 1.366 . S
H1133 C1126 0.929 . S
H1134 C1157 0.931 . S
H1135 C1158 0.931 . S
O1136 Eu1092 2.462 . S
O1136 C1156 1.252 . S
O1137 Eu1092 2.373 . S
O1137 C1148 1.249 . S
O1138 Eu1103 2.335 . S
O1138 C1148 1.264 . S
O1139 Eu1092 2.432 . S
O1139 C1156 1.268 . S
O1140 Eu1092 2.291 . S
O1140 C1155 1.255 . S
O1141 Eu1103 2.372 . S
O1141 C1155 1.257 . S
O1142 Eu1103 2.462 . S
O1142 C1167 1.252 . S
O1143 Eu1103 2.373 . S
O1143 C1159 1.249 . S
O1144 Eu1092 2.335 . S
O1144 C1159 1.264 . S
O1145 Eu1103 2.432 . S
O1145 C1167 1.268 . S
O1146 Eu1103 2.291 . S
O1146 C1166 1.255 . S
O1147 Eu1092 2.372 . S
O1147 C1166 1.257 . S
C1148 O1137 1.249 . S
C1148 O1138 1.264 . S
C1149 C1152 1.382 . S
C1149 C1154 1.390 . S
C1149 C1156 1.506 . S
C1150 C1151 1.398 . S
C1150 C1154 1.392 . S
C1151 C1150 1.398 . S
C1151 C1153 1.372 . S
C1151 H1168 0.931 . S
C1152 C1149 1.382 . S
C1152 C1153 1.390 . S
C1152 H1169 0.931 . S
C1153 C1151 1.372 . S
C1153 C1152 1.390 . S
C1153 H1170 0.929 . S
C1154 C1149 1.390 . S
C1154 C1150 1.392 . S
C1154 H1171 0.930 . S
C1155 O1140 1.255 . S
C1155 O1141 1.257 . S
C1156 Eu1092 2.787 . S
C1156 O1136 1.252 . S
C1156 O1139 1.268 . S
C1156 C1149 1.506 . S
C1157 C1124 1.439 . S
C1157 H1134 0.931 . S
C1157 C1158 1.374 . S
C1158 C1129 1.387 . S
C1158 H1135 0.931 . S
C1158 C1157 1.374 . S
C1159 O1143 1.249 . S
C1159 O1144 1.264 . S
C1160 C1163 1.382 . S
C1160 C1164 1.390 . S
C1160 C1167 1.506 . S
C1161 C1162 1.398 . S
C1161 C1164 1.392 . S
C1162 C1161 1.398 . S
C1162 C1165 1.372 . S
C1162 H1172 0.931 . S
C1163 C1160 1.382 . S
C1163 C1165 1.390 . S
C1163 H1173 0.931 . S
C1164 C1160 1.390 . S
C1164 C1161 1.392 . S
C1164 H1174 0.930 . S
C1165 C1162 1.372 . S
C1165 C1163 1.390 . S
C1165 H1175 0.929 . S
C1166 O1146 1.255 . S
C1166 O1147 1.257 . S
C1167 Eu1103 2.787 . S
C1167 O1142 1.252 . S
C1167 O1145 1.268 . S
C1167 C1160 1.506 . S
H1168 C1151 0.931 . S
H1169 C1152 0.931 . S
H1170 C1153 0.929 . S
H1171 C1154 0.930 . S
H1172 C1162 0.931 . S
H1173 C1163 0.931 . S
H1174 C1164 0.930 . S
H1175 C1165 0.929 . S
Eu1176 N1205 2.600 1_455 S
Eu1176 N1211 2.562 1_455 S
Eu1176 O1220 2.462 . S
Eu1176 O1221 2.373 1_455 S
Eu1176 O1223 2.432 . S
Eu1176 O1224 2.291 . S
Eu1176 O1228 2.335 . S
Eu1176 O1231 2.372 . S
Eu1176 C1240 2.787 . S
C1177 N1178 1.365 . S
C1177 C1180 1.405 . S
C1177 C1184 1.448 . S
N1178 C1177 1.365 . S
N1178 C1181 1.319 . S
N1178 Eu1187 2.600 . S
C1179 C1181 1.397 . S
C1179 C1182 1.367 . S
C1179 H1199 0.931 . S
C1180 C1177 1.405 . S
C1180 C1182 1.403 . S
C1180 C1186 1.439 . S
C1181 N1178 1.319 . S
C1181 C1179 1.397 . S
C1181 H1192 0.930 . S
C1182 C1179 1.367 . S
C1182 C1180 1.403 . S
C1182 H1203 0.929 . S
C1183 C1184 1.430 . S
C1183 C1185 1.387 . S
C1183 C1189 1.404 . S
C1184 C1177 1.448 . S
C1184 C1183 1.430 . S
C1184 N1188 1.351 . S
C1185 C1183 1.387 . S
C1185 C1186 1.374 . S
C1185 H1200 0.931 . S
C1186 C1180 1.439 . S
C1186 C1185 1.374 . S
C1186 H1201 0.931 . S
Eu1187 N1178 2.600 . S
Eu1187 N1188 2.562 . S
Eu1187 O1222 2.335 1_455 S
Eu1187 O1225 2.372 . S
Eu1187 O1226 2.462 . S
Eu1187 O1227 2.373 . S
Eu1187 O1229 2.432 . S
Eu1187 O1230 2.291 . S
Eu1187 C1251 2.787 . S
N1188 C1184 1.351 . S
N1188 Eu1187 2.562 . S
N1188 C1190 1.325 . S
C1189 C1183 1.404 . S
C1189 C1191 1.366 . S
C1189 H1197 0.930 . S
C1190 N1188 1.325 . S
C1190 C1191 1.416 . S
C1190 H1196 0.929 . S
C1191 C1189 1.366 . S
C1191 C1190 1.416 . S
C1191 H1193 0.930 . S
H1192 C1181 0.930 . S
H1193 C1191 0.930 . S
H1194 C1209 0.930 1_455 S
H1195 C1216 0.930 . S
H1196 C1190 0.929 . S
H1197 C1189 0.930 . S
H1198 C1212 0.943 . S
H1199 C1179 0.931 . S
H1200 C1185 0.931 . S
H1201 C1186 0.931 . S
H1202 C1207 0.931 . S
H1203 C1182 0.929 . S
H1204 C1215 0.930 . S
N1205 Eu1176 2.600 1_655 S
N1205 C1206 1.365 . S
N1205 C1209 1.319 . S
C1206 N1205 1.365 . S
C1206 C1208 1.405 . S
C1206 C1214 1.448 . S
C1207 H1202 0.931 . S
C1207 C1209 1.397 . S
C1207 C1210 1.367 . S
C1208 C1206 1.405 . S
C1208 C1210 1.403 . S
C1208 C1241 1.439 . S
C1209 H1194 0.930 1_655 S
C1209 N1205 1.319 . S
C1209 C1207 1.397 . S
C1210 C1207 1.367 . S
C1210 C1208 1.403 . S
C1210 H1217 0.929 . S
N1211 Eu1176 2.562 1_655 S
N1211 C1212 1.325 . S
N1211 C1214 1.351 . S
C1212 H1198 0.943 . S
C1212 N1211 1.325 . S
C1212 C1216 1.416 . S
C1213 C1214 1.430 . S
C1213 C1215 1.404 . S
C1213 C1242 1.387 . S
C1214 C1206 1.448 . S
C1214 N1211 1.351 . S
C1214 C1213 1.430 . S
C1215 H1204 0.930 . S
C1215 C1213 1.404 . S
C1215 C1216 1.366 . S
C1216 H1195 0.930 . S
C1216 C1212 1.416 . S
C1216 C1215 1.366 . S
H1217 C1210 0.929 . S
H1218 C1241 0.931 . S
H1219 C1242 0.931 . S
O1220 Eu1176 2.462 . S
O1220 C1240 1.252 . S
O1221 Eu1176 2.373 1_655 S
O1221 C1232 1.249 . S
O1222 Eu1187 2.335 1_655 S
O1222 C1232 1.264 . S
O1223 Eu1176 2.432 . S
O1223 C1240 1.268 . S
O1224 Eu1176 2.291 . S
O1224 C1239 1.255 . S
O1225 Eu1187 2.372 . S
O1225 C1239 1.257 . S
O1226 Eu1187 2.462 . S
O1226 C1251 1.252 . S
O1227 Eu1187 2.373 . S
O1227 C1243 1.249 . S
O1228 Eu1176 2.335 . S
O1228 C1243 1.264 . S
O1229 Eu1187 2.432 . S
O1229 C1251 1.268 . S
O1230 Eu1187 2.291 . S
O1230 C1250 1.255 . S
O1231 Eu1176 2.372 . S
O1231 C1250 1.257 . S
C1232 O1221 1.249 . S
C1232 O1222 1.264 . S
C1233 C1236 1.382 . S
C1233 C1238 1.390 . S
C1233 C1240 1.506 . S
C1234 C1235 1.398 . S
C1234 C1238 1.392 . S
C1235 C1234 1.398 . S
C1235 C1237 1.372 . S
C1235 H1252 0.931 . S
C1236 C1233 1.382 . S
C1236 C1237 1.390 . S
C1236 H1253 0.931 . S
C1237 C1235 1.372 . S
C1237 C1236 1.390 . S
C1237 H1254 0.929 . S
C1238 C1233 1.390 . S
C1238 C1234 1.392 . S
C1238 H1255 0.930 . S
C1239 O1224 1.255 . S
C1239 O1225 1.257 . S
C1240 Eu1176 2.787 . S
C1240 O1220 1.252 . S
C1240 O1223 1.268 . S
C1240 C1233 1.506 . S
C1241 C1208 1.439 . S
C1241 H1218 0.931 . S
C1241 C1242 1.374 . S
C1242 C1213 1.387 . S
C1242 H1219 0.931 . S
C1242 C1241 1.374 . S
C1243 O1227 1.249 . S
C1243 O1228 1.264 . S
C1244 C1247 1.382 . S
C1244 C1248 1.390 . S
C1244 C1251 1.506 1_655 S
C1245 C1246 1.398 . S
C1245 C1248 1.392 . S
C1246 C1245 1.398 . S
C1246 C1249 1.372 . S
C1246 H1256 0.931 . S
C1247 C1244 1.382 . S
C1247 C1249 1.390 . S
C1247 H1257 0.931 . S
C1248 C1244 1.390 . S
C1248 C1245 1.392 . S
C1248 H1258 0.930 . S
C1249 C1246 1.372 . S
C1249 C1247 1.390 . S
C1249 H1259 0.929 . S
C1250 O1230 1.255 . S
C1250 O1231 1.257 . S
C1251 Eu1187 2.787 . S
C1251 O1226 1.252 . S
C1251 O1229 1.268 . S
C1251 C1244 1.506 1_455 S
H1252 C1235 0.931 . S
H1253 C1236 0.931 . S
H1254 C1237 0.929 . S
H1255 C1238 0.930 . S
H1256 C1246 0.931 . S
H1257 C1247 0.931 . S
H1258 C1248 0.930 . S
H1259 C1249 0.929 . S
Eu1260 N1289 2.600 . S
Eu1260 N1295 2.562 . S
Eu1260 O1304 2.462 . S
Eu1260 O1305 2.373 . S
Eu1260 O1307 2.432 . S
Eu1260 O1308 2.291 . S
Eu1260 O1312 2.335 . S
Eu1260 O1315 2.372 . S
Eu1260 C1324 2.787 . S
C1261 N1262 1.365 . S
C1261 C1264 1.405 . S
C1261 C1268 1.448 . S
N1262 C1261 1.365 . S
N1262 C1265 1.319 . S
N1262 Eu1271 2.600 . S
C1263 C1265 1.397 . S
C1263 C1266 1.367 . S
C1263 H1283 0.931 . S
C1264 C1261 1.405 . S
C1264 C1266 1.403 . S
C1264 C1270 1.439 . S
C1265 N1262 1.319 . S
C1265 C1263 1.397 . S
C1265 H1276 0.930 . S
C1266 C1263 1.367 . S
C1266 C1264 1.403 . S
C1266 H1287 0.929 . S
C1267 C1268 1.430 . S
C1267 C1269 1.387 . S
C1267 C1273 1.404 . S
C1268 C1261 1.448 . S
C1268 C1267 1.430 . S
C1268 N1272 1.351 . S
C1269 C1267 1.387 . S
C1269 C1270 1.374 . S
C1269 H1284 0.931 . S
C1270 C1264 1.439 . S
C1270 C1269 1.374 . S
C1270 H1285 0.931 . S
Eu1271 N1262 2.600 . S
Eu1271 N1272 2.562 . S
Eu1271 O1306 2.335 . S
Eu1271 O1309 2.372 . S
Eu1271 O1310 2.462 . S
Eu1271 O1311 2.373 . S
Eu1271 O1313 2.432 . S
Eu1271 O1314 2.291 . S
Eu1271 C1335 2.787 . S
N1272 C1268 1.351 . S
N1272 Eu1271 2.562 . S
N1272 C1274 1.325 . S
C1273 C1267 1.404 . S
C1273 C1275 1.366 . S
C1273 H1281 0.930 . S
C1274 N1272 1.325 . S
C1274 C1275 1.416 . S
C1274 H1280 0.929 . S
C1275 C1273 1.366 . S
C1275 C1274 1.416 . S
C1275 H1277 0.930 . S
H1276 C1265 0.930 . S
H1277 C1275 0.930 . S
H1278 C1293 0.930 . S
H1279 C1300 0.930 . S
H1280 C1274 0.929 . S
H1281 C1273 0.930 . S
H1282 C1296 0.929 . S
H1283 C1263 0.931 . S
H1284 C1269 0.931 . S
H1285 C1270 0.931 . S
H1286 C1291 0.931 . S
H1287 C1266 0.929 . S
H1288 C1299 0.930 . S
N1289 Eu1260 2.600 . S
N1289 C1290 1.365 . S
N1289 C1293 1.319 . S
C1290 N1289 1.365 . S
C1290 C1292 1.405 . S
C1290 C1298 1.448 . S
C1291 H1286 0.931 . S
C1291 C1293 1.397 . S
C1291 C1294 1.367 . S
C1292 C1290 1.405 . S
C1292 C1294 1.403 . S
C1292 C1325 1.439 . S
C1293 H1278 0.930 . S
C1293 N1289 1.319 . S
C1293 C1291 1.397 . S
C1294 C1291 1.367 . S
C1294 C1292 1.403 . S
C1294 H1301 0.929 . S
N1295 Eu1260 2.562 . S
N1295 C1296 1.325 . S
N1295 C1298 1.351 . S
C1296 H1282 0.929 . S
C1296 N1295 1.325 . S
C1296 C1300 1.416 . S
C1297 C1298 1.430 . S
C1297 C1299 1.404 . S
C1297 C1326 1.387 . S
C1298 C1290 1.448 . S
C1298 N1295 1.351 . S
C1298 C1297 1.430 . S
C1299 H1288 0.930 . S
C1299 C1297 1.404 . S
C1299 C1300 1.366 . S
C1300 H1279 0.930 . S
C1300 C1296 1.416 . S
C1300 C1299 1.366 . S
H1301 C1294 0.929 . S
H1302 C1325 0.931 . S
H1303 C1326 0.931 . S
O1304 Eu1260 2.462 . S
O1304 C1324 1.252 . S
O1305 Eu1260 2.373 . S
O1305 C1316 1.249 . S
O1306 Eu1271 2.335 . S
O1306 C1316 1.264 . S
O1307 Eu1260 2.432 . S
O1307 C1324 1.268 . S
O1308 Eu1260 2.291 . S
O1308 C1323 1.255 . S
O1309 Eu1271 2.372 . S
O1309 C1323 1.257 . S
O1310 Eu1271 2.462 . S
O1310 C1335 1.252 . S
O1311 Eu1271 2.373 . S
O1311 C1327 1.249 . S
O1312 Eu1260 2.335 . S
O1312 C1327 1.264 . S
O1313 Eu1271 2.432 . S
O1313 C1335 1.268 . S
O1314 Eu1271 2.291 . S
O1314 C1334 1.255 . S
O1315 Eu1260 2.372 . S
O1315 C1334 1.257 . S
C1316 O1305 1.249 . S
C1316 O1306 1.264 . S
C1317 C1320 1.382 . S
C1317 C1322 1.390 . S
C1317 C1324 1.506 . S
C1318 C1319 1.398 . S
C1318 C1322 1.392 . S
C1319 C1318 1.398 . S
C1319 C1321 1.372 . S
C1319 H1336 0.931 . S
C1320 C1317 1.382 . S
C1320 C1321 1.390 . S
C1320 H1337 0.931 . S
C1321 C1319 1.372 . S
C1321 C1320 1.390 . S
C1321 H1338 0.929 . S
C1322 C1317 1.390 . S
C1322 C1318 1.392 . S
C1322 H1339 0.930 . S
C1323 O1308 1.255 . S
C1323 O1309 1.257 . S
C1324 Eu1260 2.787 . S
C1324 O1304 1.252 . S
C1324 O1307 1.268 . S
C1324 C1317 1.506 . S
C1325 C1292 1.439 . S
C1325 H1302 0.931 . S
C1325 C1326 1.374 . S
C1326 C1297 1.387 . S
C1326 H1303 0.931 . S
C1326 C1325 1.374 . S
C1327 O1311 1.249 . S
C1327 O1312 1.264 . S
C1328 C1331 1.382 . S
C1328 C1332 1.390 . S
C1328 C1335 1.506 . S
C1329 C1330 1.398 . S
C1329 C1332 1.392 . S
C1330 C1329 1.398 . S
C1330 C1333 1.372 . S
C1330 H1340 0.931 . S
C1331 C1328 1.382 . S
C1331 C1333 1.390 . S
C1331 H1341 0.931 . S
C1332 C1328 1.390 . S
C1332 C1329 1.392 . S
C1332 H1342 0.930 . S
C1333 C1330 1.372 . S
C1333 C1331 1.390 . S
C1333 H1343 0.929 . S
C1334 O1314 1.255 . S
C1334 O1315 1.257 . S
C1335 Eu1271 2.787 . S
C1335 O1310 1.252 . S
C1335 O1313 1.268 . S
C1335 C1328 1.506 . S
H1336 C1319 0.931 . S
H1337 C1320 0.931 . S
H1338 C1321 0.929 . S
H1339 C1322 0.930 . S
H1340 C1330 0.931 . S
H1341 C1331 0.931 . S
H1342 C1332 0.930 . S
H1343 C1333 0.929 . S
Eu1344 N1373 2.600 . S
Eu1344 N1379 2.562 . S
Eu1344 O1388 2.462 . S
Eu1344 O1389 2.373 . S
Eu1344 O1391 2.432 . S
Eu1344 O1392 2.291 . S
Eu1344 O1396 2.335 . S
Eu1344 O1399 2.372 . S
Eu1344 C1408 2.787 . S
C1345 N1346 1.365 . S
C1345 C1348 1.405 . S
C1345 C1352 1.448 . S
N1346 C1345 1.365 . S
N1346 C1349 1.319 . S
N1346 Eu1355 2.600 . S
C1347 C1349 1.397 . S
C1347 C1350 1.367 . S
C1347 H1367 0.931 . S
C1348 C1345 1.405 . S
C1348 C1350 1.403 . S
C1348 C1354 1.439 . S
C1349 N1346 1.319 . S
C1349 C1347 1.397 . S
C1349 H1360 0.930 . S
C1350 C1347 1.367 . S
C1350 C1348 1.403 . S
C1350 H1371 0.929 . S
C1351 C1352 1.430 . S
C1351 C1353 1.387 . S
C1351 C1357 1.404 . S
C1352 C1345 1.448 . S
C1352 C1351 1.430 . S
C1352 N1356 1.351 . S
C1353 C1351 1.387 . S
C1353 C1354 1.374 . S
C1353 H1368 0.931 . S
C1354 C1348 1.439 . S
C1354 C1353 1.374 . S
C1354 H1369 0.931 . S
Eu1355 N1346 2.600 . S
Eu1355 N1356 2.562 . S
Eu1355 O1390 2.335 . S
Eu1355 O1393 2.372 . S
Eu1355 O1394 2.462 . S
Eu1355 O1395 2.373 . S
Eu1355 O1397 2.432 . S
Eu1355 O1398 2.291 . S
Eu1355 C1419 2.787 . S
N1356 C1352 1.351 . S
N1356 Eu1355 2.562 . S
N1356 C1358 1.325 . S
C1357 C1351 1.404 . S
C1357 C1359 1.366 . S
C1357 H1365 0.930 . S
C1358 N1356 1.325 . S
C1358 C1359 1.416 . S
C1358 H1364 0.929 . S
C1359 C1357 1.366 . S
C1359 C1358 1.416 . S
C1359 H1361 0.930 . S
H1360 C1349 0.930 . S
H1361 C1359 0.930 . S
H1362 C1377 0.930 . S
H1363 C1384 0.930 . S
H1364 C1358 0.929 . S
H1365 C1357 0.930 . S
H1366 C1380 0.929 . S
H1367 C1347 0.931 . S
H1368 C1353 0.931 . S
H1369 C1354 0.931 . S
H1370 C1375 0.931 . S
H1371 C1350 0.929 . S
H1372 C1383 0.930 . S
N1373 Eu1344 2.600 . S
N1373 C1374 1.365 . S
N1373 C1377 1.319 . S
C1374 N1373 1.365 . S
C1374 C1376 1.405 . S
C1374 C1382 1.448 . S
C1375 H1370 0.931 . S
C1375 C1377 1.397 . S
C1375 C1378 1.367 . S
C1376 C1374 1.405 . S
C1376 C1378 1.403 . S
C1376 C1409 1.439 . S
C1377 H1362 0.930 . S
C1377 N1373 1.319 . S
C1377 C1375 1.397 . S
C1378 C1375 1.367 . S
C1378 C1376 1.403 . S
C1378 H1385 0.929 . S
N1379 Eu1344 2.562 . S
N1379 C1380 1.325 . S
N1379 C1382 1.351 . S
C1380 H1366 0.929 . S
C1380 N1379 1.325 . S
C1380 C1384 1.416 . S
C1381 C1382 1.430 . S
C1381 C1383 1.404 . S
C1381 C1410 1.387 . S
C1382 C1374 1.448 . S
C1382 N1379 1.351 . S
C1382 C1381 1.430 . S
C1383 H1372 0.930 . S
C1383 C1381 1.404 . S
C1383 C1384 1.366 . S
C1384 H1363 0.930 . S
C1384 C1380 1.416 . S
C1384 C1383 1.366 . S
H1385 C1378 0.929 . S
H1386 C1409 0.931 . S
H1387 C1410 0.931 . S
O1388 Eu1344 2.462 . S
O1388 C1408 1.252 . S
O1389 Eu1344 2.373 . S
O1389 C1400 1.249 . S
O1390 Eu1355 2.335 . S
O1390 C1400 1.264 . S
O1391 Eu1344 2.432 . S
O1391 C1408 1.268 . S
O1392 Eu1344 2.291 . S
O1392 C1407 1.255 . S
O1393 Eu1355 2.372 . S
O1393 C1407 1.257 . S
O1394 Eu1355 2.462 . S
O1394 C1419 1.252 . S
O1395 Eu1355 2.373 . S
O1395 C1411 1.249 . S
O1396 Eu1344 2.335 . S
O1396 C1411 1.264 . S
O1397 Eu1355 2.432 . S
O1397 C1419 1.268 . S
O1398 Eu1355 2.291 . S
O1398 C1418 1.255 . S
O1399 Eu1344 2.372 . S
O1399 C1418 1.257 . S
C1400 O1389 1.249 . S
C1400 O1390 1.264 . S
C1401 C1404 1.382 . S
C1401 C1406 1.390 . S
C1401 C1408 1.506 . S
C1402 C1403 1.398 . S
C1402 C1406 1.392 . S
C1403 C1402 1.398 . S
C1403 C1405 1.372 . S
C1403 H1420 0.931 . S
C1404 C1401 1.382 . S
C1404 C1405 1.390 . S
C1404 H1421 0.931 . S
C1405 C1403 1.372 . S
C1405 C1404 1.390 . S
C1405 H1422 0.929 . S
C1406 C1401 1.390 . S
C1406 C1402 1.392 . S
C1406 H1423 0.930 . S
C1407 O1392 1.255 . S
C1407 O1393 1.257 . S
C1408 Eu1344 2.787 . S
C1408 O1388 1.252 . S
C1408 O1391 1.268 . S
C1408 C1401 1.506 . S
C1409 C1376 1.439 . S
C1409 H1386 0.931 . S
C1409 C1410 1.374 . S
C1410 C1381 1.387 . S
C1410 H1387 0.931 . S
C1410 C1409 1.374 . S
C1411 O1395 1.249 . S
C1411 O1396 1.264 . S
C1412 C1415 1.382 . S
C1412 C1416 1.390 . S
C1412 C1419 1.506 . S
C1413 C1414 1.398 . S
C1413 C1416 1.392 . S
C1414 C1413 1.398 . S
C1414 C1417 1.372 . S
C1414 H1424 0.931 . S
C1415 C1412 1.382 . S
C1415 C1417 1.390 . S
C1415 H1425 0.931 . S
C1416 C1412 1.390 . S
C1416 C1413 1.392 . S
C1416 H1426 0.930 . S
C1417 C1414 1.372 . S
C1417 C1415 1.390 . S
C1417 H1427 0.929 . S
C1418 O1398 1.255 . S
C1418 O1399 1.257 . S
C1419 Eu1355 2.787 . S
C1419 O1394 1.252 . S
C1419 O1397 1.268 . S
C1419 C1412 1.506 . S
H1420 C1403 0.931 . S
H1421 C1404 0.931 . S
H1422 C1405 0.929 . S
H1423 C1406 0.930 . S
H1424 C1414 0.931 . S
H1425 C1415 0.931 . S
H1426 C1416 0.930 . S
H1427 C1417 0.929 . S
Eu1428 N1457 2.600 . S
Eu1428 N1463 2.562 . S
Eu1428 O1472 2.462 . S
Eu1428 O1473 2.373 . S
Eu1428 O1475 2.432 . S
Eu1428 O1476 2.291 . S
Eu1428 O1480 2.335 . S
Eu1428 O1483 2.372 . S
Eu1428 C1492 2.787 . S
C1429 N1430 1.365 . S
C1429 C1432 1.405 . S
C1429 C1436 1.448 . S
N1430 C1429 1.365 . S
N1430 C1433 1.319 . S
N1430 Eu1439 2.600 . S
C1431 C1433 1.397 . S
C1431 C1434 1.367 . S
C1431 H1451 0.931 . S
C1432 C1429 1.405 . S
C1432 C1434 1.403 . S
C1432 C1438 1.439 . S
C1433 N1430 1.319 . S
C1433 C1431 1.397 . S
C1433 H1444 0.930 . S
C1434 C1431 1.367 . S
C1434 C1432 1.403 . S
C1434 H1455 0.929 . S
C1435 C1436 1.430 . S
C1435 C1437 1.387 . S
C1435 C1441 1.404 . S
C1436 C1429 1.448 . S
C1436 C1435 1.430 . S
C1436 N1440 1.351 . S
C1437 C1435 1.387 . S
C1437 C1438 1.374 . S
C1437 H1452 0.931 . S
C1438 C1432 1.439 . S
C1438 C1437 1.374 . S
C1438 H1453 0.931 . S
Eu1439 N1430 2.600 . S
Eu1439 N1440 2.562 . S
Eu1439 O1474 2.335 . S
Eu1439 O1477 2.372 . S
Eu1439 O1478 2.462 . S
Eu1439 O1479 2.373 . S
Eu1439 O1481 2.432 . S
Eu1439 O1482 2.291 . S
Eu1439 C1503 2.787 . S
N1440 C1436 1.351 . S
N1440 Eu1439 2.562 . S
N1440 C1442 1.325 . S
C1441 C1435 1.404 . S
C1441 C1443 1.366 . S
C1441 H1449 0.930 . S
C1442 N1440 1.325 . S
C1442 C1443 1.416 . S
C1442 H1448 0.929 . S
C1443 C1441 1.366 . S
C1443 C1442 1.416 . S
C1443 H1445 0.930 . S
H1444 C1433 0.930 . S
H1445 C1443 0.930 . S
H1446 C1461 0.930 . S
H1447 C1468 0.930 . S
H1448 C1442 0.929 . S
H1449 C1441 0.930 . S
H1450 C1464 0.929 . S
H1451 C1431 0.931 . S
H1452 C1437 0.931 . S
H1453 C1438 0.931 . S
H1454 C1459 0.931 . S
H1455 C1434 0.929 . S
H1456 C1467 0.930 . S
N1457 Eu1428 2.600 . S
N1457 C1458 1.365 . S
N1457 C1461 1.319 . S
C1458 N1457 1.365 . S
C1458 C1460 1.405 . S
C1458 C1466 1.448 . S
C1459 H1454 0.931 . S
C1459 C1461 1.397 . S
C1459 C1462 1.367 . S
C1460 C1458 1.405 . S
C1460 C1462 1.403 . S
C1460 C1493 1.439 . S
C1461 H1446 0.930 . S
C1461 N1457 1.319 . S
C1461 C1459 1.397 . S
C1462 C1459 1.367 . S
C1462 C1460 1.403 . S
C1462 H1469 0.929 . S
N1463 Eu1428 2.562 . S
N1463 C1464 1.325 . S
N1463 C1466 1.351 . S
C1464 H1450 0.929 . S
C1464 N1463 1.325 . S
C1464 C1468 1.416 . S
C1465 C1466 1.430 . S
C1465 C1467 1.404 . S
C1465 C1494 1.387 . S
C1466 C1458 1.448 . S
C1466 N1463 1.351 . S
C1466 C1465 1.430 . S
C1467 H1456 0.930 . S
C1467 C1465 1.404 . S
C1467 C1468 1.366 . S
C1468 H1447 0.930 . S
C1468 C1464 1.416 . S
C1468 C1467 1.366 . S
H1469 C1462 0.929 . S
H1470 C1493 0.931 . S
H1471 C1494 0.931 . S
O1472 Eu1428 2.462 . S
O1472 C1492 1.252 . S
O1473 Eu1428 2.373 . S
O1473 C1484 1.249 . S
O1474 Eu1439 2.335 . S
O1474 C1484 1.264 . S
O1475 Eu1428 2.432 . S
O1475 C1492 1.268 . S
O1476 Eu1428 2.291 . S
O1476 C1491 1.255 . S
O1477 Eu1439 2.372 . S
O1477 C1491 1.257 . S
O1478 Eu1439 2.462 . S
O1478 C1503 1.252 . S
O1479 Eu1439 2.373 . S
O1479 C1495 1.249 . S
O1480 Eu1428 2.335 . S
O1480 C1495 1.264 . S
O1481 Eu1439 2.432 . S
O1481 C1503 1.268 . S
O1482 Eu1439 2.291 . S
O1482 C1502 1.255 . S
O1483 Eu1428 2.372 . S
O1483 C1502 1.257 . S
C1484 O1473 1.249 . S
C1484 O1474 1.264 . S
C1485 C1488 1.382 . S
C1485 C1490 1.390 . S
C1485 C1492 1.506 . S
C1486 C1487 1.398 . S
C1486 C1490 1.392 . S
C1487 C1486 1.398 . S
C1487 C1489 1.372 . S
C1487 H1504 0.931 . S
C1488 C1485 1.382 . S
C1488 C1489 1.390 . S
C1488 H1505 0.931 . S
C1489 C1487 1.372 . S
C1489 C1488 1.390 . S
C1489 H1506 0.929 . S
C1490 C1485 1.390 . S
C1490 C1486 1.392 . S
C1490 H1507 0.930 . S
C1491 O1476 1.255 . S
C1491 O1477 1.257 . S
C1492 Eu1428 2.787 . S
C1492 O1472 1.252 . S
C1492 O1475 1.268 . S
C1492 C1485 1.506 . S
C1493 C1460 1.439 . S
C1493 H1470 0.931 . S
C1493 C1494 1.374 . S
C1494 C1465 1.387 . S
C1494 H1471 0.931 . S
C1494 C1493 1.374 . S
C1495 O1479 1.249 . S
C1495 O1480 1.264 . S
C1496 C1499 1.382 . S
C1496 C1500 1.390 . S
C1496 C1503 1.506 . S
C1497 C1498 1.398 . S
C1497 C1500 1.392 . S
C1498 C1497 1.398 . S
C1498 C1501 1.372 . S
C1498 H1508 0.931 . S
C1499 C1496 1.382 . S
C1499 C1501 1.390 . S
C1499 H1509 0.931 . S
C1500 C1496 1.390 . S
C1500 C1497 1.392 . S
C1500 H1510 0.930 . S
C1501 C1498 1.372 . S
C1501 C1499 1.390 . S
C1501 H1511 0.929 . S
C1502 O1482 1.255 . S
C1502 O1483 1.257 . S
C1503 Eu1439 2.787 . S
C1503 O1478 1.252 . S
C1503 O1481 1.268 . S
C1503 C1496 1.506 . S
H1504 C1487 0.931 . S
H1505 C1488 0.931 . S
H1506 C1489 0.929 . S
H1507 C1490 0.930 . S
H1508 C1498 0.931 . S
H1509 C1499 0.931 . S
H1510 C1500 0.930 . S
H1511 C1501 0.929 . S
Eu1512 N1541 2.600 . S
Eu1512 N1547 2.562 . S
Eu1512 O1556 2.462 . S
Eu1512 O1557 2.373 . S
Eu1512 O1559 2.432 . S
Eu1512 O1560 2.291 . S
Eu1512 O1564 2.335 . S
Eu1512 O1567 2.372 . S
Eu1512 C1576 2.787 . S
C1513 N1514 1.365 . S
C1513 C1516 1.405 . S
C1513 C1520 1.448 . S
N1514 C1513 1.365 . S
N1514 C1517 1.319 . S
N1514 Eu1523 2.600 . S
C1515 C1517 1.397 . S
C1515 C1518 1.367 . S
C1515 H1535 0.931 . S
C1516 C1513 1.405 . S
C1516 C1518 1.403 . S
C1516 C1522 1.439 . S
C1517 N1514 1.319 . S
C1517 C1515 1.397 . S
C1517 H1528 0.930 . S
C1518 C1515 1.367 . S
C1518 C1516 1.403 . S
C1518 H1539 0.929 . S
C1519 C1520 1.430 . S
C1519 C1521 1.387 . S
C1519 C1525 1.404 . S
C1520 C1513 1.448 . S
C1520 C1519 1.430 . S
C1520 N1524 1.351 . S
C1521 C1519 1.387 . S
C1521 C1522 1.374 . S
C1521 H1536 0.931 . S
C1522 C1516 1.439 . S
C1522 C1521 1.374 . S
C1522 H1537 0.931 . S
Eu1523 N1514 2.600 . S
Eu1523 N1524 2.562 . S
Eu1523 O1558 2.335 . S
Eu1523 O1561 2.372 . S
Eu1523 O1562 2.462 . S
Eu1523 O1563 2.373 . S
Eu1523 O1565 2.432 . S
Eu1523 O1566 2.291 . S
Eu1523 C1587 2.787 . S
N1524 C1520 1.351 . S
N1524 Eu1523 2.562 . S
N1524 C1526 1.325 . S
C1525 C1519 1.404 . S
C1525 C1527 1.366 . S
C1525 H1533 0.930 . S
C1526 N1524 1.325 . S
C1526 C1527 1.416 . S
C1526 H1532 0.929 . S
C1527 C1525 1.366 . S
C1527 C1526 1.416 . S
C1527 H1529 0.930 . S
H1528 C1517 0.930 . S
H1529 C1527 0.930 . S
H1530 C1545 0.930 . S
H1531 C1552 0.930 . S
H1532 C1526 0.929 . S
H1533 C1525 0.930 . S
H1534 C1548 0.929 . S
H1535 C1515 0.931 . S
H1536 C1521 0.931 . S
H1537 C1522 0.931 . S
H1538 C1543 0.931 . S
H1539 C1518 0.929 . S
H1540 C1551 0.930 . S
N1541 Eu1512 2.600 . S
N1541 C1542 1.365 . S
N1541 C1545 1.319 . S
C1542 N1541 1.365 . S
C1542 C1544 1.405 . S
C1542 C1550 1.448 . S
C1543 H1538 0.931 . S
C1543 C1545 1.397 . S
C1543 C1546 1.367 . S
C1544 C1542 1.405 . S
C1544 C1546 1.403 . S
C1544 C1577 1.439 . S
C1545 H1530 0.930 . S
C1545 N1541 1.319 . S
C1545 C1543 1.397 . S
C1546 C1543 1.367 . S
C1546 C1544 1.403 . S
C1546 H1553 0.929 . S
N1547 Eu1512 2.562 . S
N1547 C1548 1.325 . S
N1547 C1550 1.351 . S
C1548 H1534 0.929 . S
C1548 N1547 1.325 . S
C1548 C1552 1.416 . S
C1549 C1550 1.430 . S
C1549 C1551 1.404 . S
C1549 C1578 1.387 . S
C1550 C1542 1.448 . S
C1550 N1547 1.351 . S
C1550 C1549 1.430 . S
C1551 H1540 0.930 . S
C1551 C1549 1.404 . S
C1551 C1552 1.366 . S
C1552 H1531 0.930 . S
C1552 C1548 1.416 . S
C1552 C1551 1.366 . S
H1553 C1546 0.929 . S
H1554 C1577 0.931 . S
H1555 C1578 0.931 . S
O1556 Eu1512 2.462 . S
O1556 C1576 1.252 . S
O1557 Eu1512 2.373 . S
O1557 C1568 1.249 . S
O1558 Eu1523 2.335 . S
O1558 C1568 1.264 . S
O1559 Eu1512 2.432 . S
O1559 C1576 1.268 . S
O1560 Eu1512 2.291 . S
O1560 C1575 1.255 . S
O1561 Eu1523 2.372 . S
O1561 C1575 1.257 . S
O1562 Eu1523 2.462 . S
O1562 C1587 1.252 . S
O1563 Eu1523 2.373 . S
O1563 C1579 1.249 . S
O1564 Eu1512 2.335 . S
O1564 C1579 1.264 . S
O1565 Eu1523 2.432 . S
O1565 C1587 1.268 . S
O1566 Eu1523 2.291 . S
O1566 C1586 1.255 . S
O1567 Eu1512 2.372 . S
O1567 C1586 1.257 . S
C1568 O1557 1.249 . S
C1568 O1558 1.264 . S
C1569 C1572 1.382 . S
C1569 C1574 1.390 . S
C1569 C1576 1.506 . S
C1570 C1571 1.398 . S
C1570 C1574 1.392 . S
C1571 C1570 1.398 . S
C1571 C1573 1.372 . S
C1571 H1588 0.931 . S
C1572 C1569 1.382 . S
C1572 C1573 1.390 . S
C1572 H1589 0.931 . S
C1573 C1571 1.372 . S
C1573 C1572 1.390 . S
C1573 H1590 0.929 . S
C1574 C1569 1.390 . S
C1574 C1570 1.392 . S
C1574 H1591 0.930 . S
C1575 O1560 1.255 . S
C1575 O1561 1.257 . S
C1576 Eu1512 2.787 . S
C1576 O1556 1.252 . S
C1576 O1559 1.268 . S
C1576 C1569 1.506 . S
C1577 C1544 1.439 . S
C1577 H1554 0.931 . S
C1577 C1578 1.374 . S
C1578 C1549 1.387 . S
C1578 H1555 0.931 . S
C1578 C1577 1.374 . S
C1579 O1563 1.249 . S
C1579 O1564 1.264 . S
C1580 C1583 1.382 . S
C1580 C1584 1.390 . S
C1580 C1587 1.506 . S
C1581 C1582 1.398 . S
C1581 C1584 1.392 . S
C1582 C1581 1.398 . S
C1582 C1585 1.372 . S
C1582 H1592 0.931 . S
C1583 C1580 1.382 . S
C1583 C1585 1.390 . S
C1583 H1593 0.931 . S
C1584 C1580 1.390 . S
C1584 C1581 1.392 . S
C1584 H1594 0.930 . S
C1585 C1582 1.372 . S
C1585 C1583 1.390 . S
C1585 H1595 0.929 . S
C1586 O1566 1.255 . S
C1586 O1567 1.257 . S
C1587 Eu1523 2.787 . S
C1587 O1562 1.252 . S
C1587 O1565 1.268 . S
C1587 C1580 1.506 . S
H1588 C1571 0.931 . S
H1589 C1572 0.931 . S
H1590 C1573 0.929 . S
H1591 C1574 0.930 . S
H1592 C1582 0.931 . S
H1593 C1583 0.931 . S
H1594 C1584 0.930 . S
H1595 C1585 0.929 . S
Eu1596 N1625 2.596 1_455 S
Eu1596 N1631 2.552 1_455 S
Eu1596 O1640 2.447 1_455 S
Eu1596 O1641 2.382 . S
Eu1596 O1643 2.420 1_455 S
Eu1596 O1644 2.294 . S
Eu1596 O1648 2.340 . S
Eu1596 O1651 2.383 . S
Eu1596 C1660 2.772 1_455 S
C1597 N1598 1.365 . S
C1597 C1600 1.405 . S
C1597 C1604 1.448 . S
N1598 C1597 1.365 . S
N1598 C1601 1.319 1_554 S
N1598 Eu1607 2.600 . S
C1599 C1601 1.397 . S
C1599 C1602 1.367 . S
C1599 H1619 0.931 . S
C1600 C1597 1.405 . S
C1600 C1602 1.403 1_554 S
C1600 C1606 1.439 . S
C1601 N1598 1.319 1_556 S
C1601 C1599 1.397 . S
C1601 H1612 0.930 . S
C1602 C1599 1.367 . S
C1602 C1600 1.403 1_556 S
C1602 H1623 0.929 . S
C1603 C1604 1.430 . S
C1603 C1605 1.387 . S
C1603 C1609 1.404 . S
C1604 C1597 1.448 . S
C1604 C1603 1.430 . S
C1604 N1608 1.351 . S
C1605 C1603 1.387 . S
C1605 C1606 1.374 . S
C1605 H1620 0.931 . S
C1606 C1600 1.439 . S
C1606 C1605 1.374 . S
C1606 H1621 0.931 . S
Eu1607 N1598 2.600 . S
Eu1607 N1608 2.562 . S
Eu1607 O1642 2.335 . S
Eu1607 O1645 2.372 . S
Eu1607 O1646 2.462 . S
Eu1607 O1647 2.373 . S
Eu1607 O1649 2.432 . S
Eu1607 O1650 2.291 . S
Eu1607 C1671 2.787 . S
N1608 C1604 1.351 . S
N1608 Eu1607 2.562 . S
N1608 C1610 1.325 . S
C1609 C1603 1.404 . S
C1609 C1611 1.366 . S
C1609 H1617 0.930 . S
C1610 N1608 1.325 . S
C1610 C1611 1.416 . S
C1610 H1616 0.929 . S
C1611 C1609 1.366 . S
C1611 C1610 1.416 . S
C1611 H1613 0.930 . S
H1612 C1601 0.930 . S
H1613 C1611 0.930 . S
H1614 C1629 0.930 1_455 S
H1615 C1636 0.930 . S
H1616 C1610 0.929 . S
H1617 C1609 0.930 . S
H1618 C1632 0.929 . S
H1619 C1599 0.931 . S
H1620 C1605 0.931 . S
H1621 C1606 0.931 . S
H1622 C1627 0.930 1_455 S
H1623 C1602 0.929 . S
H1624 C1635 0.930 . S
N1625 Eu1596 2.596 1_655 S
N1625 C1626 1.365 . S
N1625 C1629 1.319 . S
C1626 N1625 1.365 . S
C1626 C1628 1.405 . S
C1626 C1634 1.448 . S
C1627 H1622 0.930 1_655 S
C1627 C1629 1.397 . S
C1627 C1630 1.367 . S
C1628 C1626 1.405 . S
C1628 C1630 1.403 . S
C1628 C1661 1.439 . S
C1629 H1614 0.930 1_655 S
C1629 N1625 1.319 . S
C1629 C1627 1.397 . S
C1630 C1627 1.367 . S
C1630 C1628 1.403 . S
C1630 H1637 0.929 . S
N1631 Eu1596 2.552 1_655 S
N1631 C1632 1.325 . S
N1631 C1634 1.351 . S
C1632 H1618 0.929 . S
C1632 N1631 1.325 . S
C1632 C1636 1.416 . S
C1633 C1634 1.430 . S
C1633 C1635 1.404 . S
C1633 C1662 1.387 . S
C1634 C1626 1.448 . S
C1634 N1631 1.351 . S
C1634 C1633 1.430 . S
C1635 H1624 0.930 . S
C1635 C1633 1.404 . S
C1635 C1636 1.366 . S
C1636 H1615 0.930 . S
C1636 C1632 1.416 . S
C1636 C1635 1.366 . S
H1637 C1630 0.929 . S
H1638 C1661 0.931 . S
H1639 C1662 0.931 . S
O1640 Eu1596 2.447 1_655 S
O1640 C1660 1.252 . S
O1641 Eu1596 2.382 . S
O1641 C1652 1.249 . S
O1642 Eu1607 2.335 . S
O1642 C1652 1.264 . S
O1643 Eu1596 2.420 1_655 S
O1643 C1660 1.268 . S
O1644 Eu1596 2.294 . S
O1644 C1659 1.255 . S
O1645 Eu1607 2.372 . S
O1645 C1659 1.257 . S
O1646 Eu1607 2.462 . S
O1646 C1671 1.252 . S
O1647 Eu1607 2.373 . S
O1647 C1663 1.249 . S
O1648 Eu1596 2.340 . S
O1648 C1663 1.264 . S
O1649 Eu1607 2.432 . S
O1649 C1671 1.268 . S
O1650 Eu1607 2.291 . S
O1650 C1670 1.255 . S
O1651 Eu1596 2.383 . S
O1651 C1670 1.257 . S
C1652 O1641 1.249 . S
C1652 O1642 1.264 . S
C1653 C1656 1.382 . S
C1653 C1658 1.390 . S
C1653 C1660 1.506 . S
C1654 C1655 1.398 . S
C1654 C1658 1.392 . S
C1655 C1654 1.398 . S
C1655 C1657 1.372 . S
C1655 H1672 0.931 . S
C1656 C1653 1.382 . S
C1656 C1657 1.390 . S
C1656 H1673 0.931 . S
C1657 C1655 1.372 . S
C1657 C1656 1.390 . S
C1657 H1674 0.929 . S
C1658 C1653 1.390 . S
C1658 C1654 1.392 . S
C1658 H1675 0.930 . S
C1659 O1644 1.255 . S
C1659 O1645 1.257 . S
C1660 Eu1596 2.772 1_655 S
C1660 O1640 1.252 . S
C1660 O1643 1.268 . S
C1660 C1653 1.506 . S
C1661 C1628 1.439 . S
C1661 H1638 0.931 . S
C1661 C1662 1.374 . S
C1662 C1633 1.387 . S
C1662 H1639 0.931 . S
C1662 C1661 1.374 . S
C1663 O1647 1.249 . S
C1663 O1648 1.264 . S
C1664 C1667 1.382 . S
C1664 C1668 1.390 . S
C1664 C1671 1.506 . S
C1665 C1666 1.398 . S
C1665 C1668 1.392 . S
C1666 C1665 1.398 . S
C1666 C1669 1.372 . S
C1666 H1676 0.931 . S
C1667 C1664 1.382 . S
C1667 C1669 1.390 . S
C1667 H1677 0.931 1_554 S
C1668 C1664 1.390 . S
C1668 C1665 1.392 . S
C1668 H1678 0.930 . S
C1669 C1666 1.372 . S
C1669 C1667 1.390 . S
C1669 H1679 0.929 1_554 S
C1670 O1650 1.255 . S
C1670 O1651 1.257 . S
C1671 Eu1607 2.787 . S
C1671 O1646 1.252 . S
C1671 O1649 1.268 . S
C1671 C1664 1.506 . S
H1672 C1655 0.931 . S
H1673 C1656 0.931 . S
H1674 C1657 0.929 . S
H1675 C1658 0.930 . S
H1676 C1666 0.931 . S
H1677 C1667 0.931 1_556 S
H1678 C1668 0.930 . S
H1679 C1669 0.929 1_556 S
C1680 C1681 1.391 1_455 S
C1680 C1682 1.394 . S
C1680 H1696 0.931 . S
C1681 C1680 1.391 1_655 S
C1681 C1685 1.376 . S
C1682 C1680 1.394 . S
C1682 C1683 1.369 1_556 S
C1682 C1686 1.531 . S
C1683 C1682 1.369 1_554 S
C1683 C1684 1.410 1_455 S
C1683 C1691 1.503 . S
C1684 C1683 1.410 1_655 S
C1684 C1685 1.392 1_554 S
C1684 C1687 1.511 . S
C1685 C1681 1.376 . S
C1685 C1684 1.392 1_556 S
C1685 H1697 0.929 . S
C1686 C1682 1.531 . S
C1686 H1698 0.960 1_556 S
C1686 H1699 0.962 . S
C1686 H1700 0.960 . S
C1687 C1684 1.511 . S
C1687 H1701 0.961 . S
C1687 H1702 0.961 . S
C1687 H1703 0.961 . S
C1688 C1689 1.370 . S
C1688 C1690 1.363 1_554 S
C1688 H1704 0.931 1_554 S
C1689 C1688 1.370 . S
C1689 C1693 1.408 . S
C1690 C1688 1.363 1_556 S
C1690 C1691 1.370 1_556 S
C1690 C1694 1.527 . S
C1691 C1683 1.503 . S
C1691 C1690 1.370 1_554 S
C1691 C1692 1.403 . S
C1692 C1691 1.403 . S
C1692 C1693 1.404 . S
C1692 C1695 1.539 . S
C1693 C1689 1.408 . S
C1693 C1692 1.404 . S
C1693 H1705 0.930 . S
C1694 C1690 1.527 . S
C1694 H1706 0.962 . S
C1694 H1707 0.952 1_455 S
C1694 H1708 0.962 1_455 S
C1695 C1692 1.539 . S
C1695 H1709 0.958 . S
C1695 H1710 0.961 . S
C1695 H1711 0.960 . S
H1696 C1680 0.931 . S
H1697 C1685 0.929 . S
H1698 C1686 0.960 1_554 S
H1699 C1686 0.962 . S
H1700 C1686 0.960 . S
H1701 C1687 0.961 . S
H1702 C1687 0.961 . S
H1703 C1687 0.961 . S
H1704 C1688 0.931 1_556 S
H1705 C1693 0.930 . S
H1706 C1694 0.962 . S
H1707 C1694 0.952 1_655 S
H1708 C1694 0.962 1_655 S
H1709 C1695 0.958 . S
H1710 C1695 0.961 . S
H1711 C1695 0.960 . S
C1712 C1713 1.391 . S
C1712 C1714 1.394 . S
C1712 H1728 0.931 . S
C1713 C1712 1.391 . S
C1713 C1717 1.376 . S
C1714 C1712 1.394 . S
C1714 C1715 1.369 . S
C1714 C1718 1.531 . S
C1715 C1714 1.369 . S
C1715 C1716 1.410 . S
C1715 C1723 1.503 . S
C1716 C1715 1.410 . S
C1716 C1717 1.392 . S
C1716 C1719 1.511 . S
C1717 C1713 1.376 . S
C1717 C1716 1.392 . S
C1717 H1729 0.929 . S
C1718 C1714 1.531 . S
C1718 H1730 0.960 . S
C1718 H1731 0.962 . S
C1718 H1732 0.960 . S
C1719 C1716 1.511 . S
C1719 H1733 0.961 . S
C1719 H1734 0.961 . S
C1719 H1735 0.961 . S
C1720 C1721 1.370 . S
C1720 C1722 1.363 . S
C1720 H1736 0.931 . S
C1721 C1720 1.370 . S
C1721 C1725 1.408 . S
C1722 C1720 1.363 . S
C1722 C1723 1.370 . S
C1722 C1726 1.524 . S
C1723 C1715 1.503 . S
C1723 C1722 1.370 . S
C1723 C1724 1.403 . S
C1724 C1723 1.403 . S
C1724 C1725 1.404 . S
C1724 C1727 1.539 . S
C1725 C1721 1.408 . S
C1725 C1724 1.404 . S
C1725 H1737 0.930 . S
C1726 C1722 1.524 . S
C1726 H1738 0.956 . S
C1726 H1739 0.961 . S
C1726 H1740 0.961 . S
C1727 C1724 1.539 . S
C1727 H1741 0.958 . S
C1727 H1742 0.961 . S
C1727 H1743 0.960 . S
H1728 C1712 0.931 . S
H1729 C1717 0.929 . S
H1730 C1718 0.960 . S
H1731 C1718 0.962 . S
H1732 C1718 0.960 . S
H1733 C1719 0.961 . S
H1734 C1719 0.961 . S
H1735 C1719 0.961 . S
H1736 C1720 0.931 . S
H1737 C1725 0.930 . S
H1738 C1726 0.956 . S
H1739 C1726 0.961 . S
H1740 C1726 0.961 . S
H1741 C1727 0.958 . S
H1742 C1727 0.961 . S
H1743 C1727 0.960 . S
C1744 C1745 1.391 . S
C1744 C1746 1.394 . S
C1744 H1760 0.931 . S
C1745 C1744 1.391 . S
C1745 C1749 1.376 . S
C1746 C1744 1.394 . S
C1746 C1747 1.369 . S
C1746 C1750 1.531 . S
C1747 C1746 1.369 . S
C1747 C1748 1.410 . S
C1747 C1755 1.503 . S
C1748 C1747 1.410 . S
C1748 C1749 1.392 . S
C1748 C1751 1.511 . S
C1749 C1745 1.376 . S
C1749 C1748 1.392 . S
C1749 H1761 0.929 . S
C1750 C1746 1.531 . S
C1750 H1762 0.960 . S
C1750 H1763 0.962 . S
C1750 H1764 0.960 . S
C1751 C1748 1.511 . S
C1751 H1765 0.961 . S
C1751 H1766 0.961 . S
C1751 H1767 0.961 . S
C1752 C1753 1.370 . S
C1752 C1754 1.363 . S
C1752 H1768 0.931 . S
C1753 C1752 1.370 . S
C1753 C1757 1.408 . S
C1754 C1752 1.363 . S
C1754 C1755 1.370 . S
C1754 C1758 1.524 . S
C1755 C1747 1.503 . S
C1755 C1754 1.370 . S
C1755 C1756 1.403 . S
C1756 C1755 1.403 . S
C1756 C1757 1.404 . S
C1756 C1759 1.539 . S
C1757 C1753 1.408 . S
C1757 C1756 1.404 . S
C1757 H1769 0.930 . S
C1758 C1754 1.524 . S
C1758 H1770 0.956 . S
C1758 H1771 0.961 . S
C1758 H1772 0.961 . S
C1759 C1756 1.539 . S
C1759 H1773 0.958 . S
C1759 H1774 0.961 . S
C1759 H1775 0.960 . S
H1760 C1744 0.931 . S
H1761 C1749 0.929 . S
H1762 C1750 0.960 . S
H1763 C1750 0.962 . S
H1764 C1750 0.960 . S
H1765 C1751 0.961 . S
H1766 C1751 0.961 . S
H1767 C1751 0.961 . S
H1768 C1752 0.931 . S
H1769 C1757 0.930 . S
H1770 C1758 0.956 . S
H1771 C1758 0.961 . S
H1772 C1758 0.961 . S
H1773 C1759 0.958 . S
H1774 C1759 0.961 . S
H1775 C1759 0.960 . S
C1776 C1777 1.391 . S
C1776 C1778 1.394 . S
C1776 H1792 0.931 . S
C1777 C1776 1.391 . S
C1777 C1781 1.376 . S
C1778 C1776 1.394 . S
C1778 C1779 1.369 . S
C1778 C1782 1.531 . S
C1779 C1778 1.369 . S
C1779 C1780 1.410 . S
C1779 C1787 1.503 . S
C1780 C1779 1.410 . S
C1780 C1781 1.392 . S
C1780 C1783 1.511 . S
C1781 C1777 1.376 . S
C1781 C1780 1.392 . S
C1781 H1793 0.929 . S
C1782 C1778 1.531 . S
C1782 H1794 0.960 . S
C1782 H1795 0.962 . S
C1782 H1796 0.960 . S
C1783 C1780 1.511 . S
C1783 H1797 0.961 . S
C1783 H1798 0.961 . S
C1783 H1799 0.961 . S
C1784 C1785 1.370 . S
C1784 C1786 1.363 . S
C1784 H1800 0.931 . S
C1785 C1784 1.370 . S
C1785 C1789 1.408 . S
C1786 C1784 1.363 . S
C1786 C1787 1.370 . S
C1786 C1790 1.524 . S
C1787 C1779 1.503 . S
C1787 C1786 1.370 . S
C1787 C1788 1.403 . S
C1788 C1787 1.403 . S
C1788 C1789 1.404 . S
C1788 C1791 1.539 . S
C1789 C1785 1.408 . S
C1789 C1788 1.404 . S
C1789 H1801 0.930 . S
C1790 C1786 1.524 . S
C1790 H1802 0.956 . S
C1790 H1803 0.961 . S
C1790 H1804 0.961 . S
C1791 C1788 1.539 . S
C1791 H1805 0.958 . S
C1791 H1806 0.961 . S
C1791 H1807 0.960 . S
H1792 C1776 0.931 . S
H1793 C1781 0.929 . S
H1794 C1782 0.960 . S
H1795 C1782 0.962 . S
H1796 C1782 0.960 . S
H1797 C1783 0.961 . S
H1798 C1783 0.961 . S
H1799 C1783 0.961 . S
H1800 C1784 0.931 . S
H1801 C1789 0.930 . S
H1802 C1790 0.956 . S
H1803 C1790 0.961 . S
H1804 C1790 0.961 . S
H1805 C1791 0.958 . S
H1806 C1791 0.961 . S
H1807 C1791 0.960 . S
C1808 C1809 1.391 . S
C1808 C1810 1.394 . S
C1808 H1824 0.931 . S
C1809 C1808 1.391 . S
C1809 C1813 1.376 . S
C1810 C1808 1.394 . S
C1810 C1811 1.369 . S
C1810 C1814 1.531 . S
C1811 C1810 1.369 . S
C1811 C1812 1.410 . S
C1811 C1819 1.503 . S
C1812 C1811 1.410 . S
C1812 C1813 1.392 . S
C1812 C1815 1.511 1_455 S
C1813 C1809 1.376 . S
C1813 C1812 1.392 . S
C1813 H1825 0.929 1_455 S
C1814 C1810 1.531 . S
C1814 H1826 0.960 . S
C1814 H1827 0.962 . S
C1814 H1828 0.960 . S
C1815 C1812 1.511 1_655 S
C1815 H1829 0.961 . S
C1815 H1830 0.961 . S
C1815 H1831 0.961 . S
C1816 C1817 1.370 . S
C1816 C1818 1.363 . S
C1816 H1832 0.931 . S
C1817 C1816 1.370 . S
C1817 C1821 1.408 . S
C1818 C1816 1.363 . S
C1818 C1819 1.370 . S
C1818 C1822 1.524 . S
C1819 C1811 1.503 . S
C1819 C1818 1.370 . S
C1819 C1820 1.403 . S
C1820 C1819 1.403 . S
C1820 C1821 1.404 . S
C1820 C1823 1.539 . S
C1821 C1817 1.408 . S
C1821 C1820 1.404 . S
C1821 H1833 0.930 . S
C1822 C1818 1.524 . S
C1822 H1834 0.956 . S
C1822 H1835 0.961 . S
C1822 H1836 0.961 . S
C1823 C1820 1.539 . S
C1823 H1837 0.958 . S
C1823 H1838 0.961 . S
C1823 H1839 0.960 . S
H1824 C1808 0.931 . S
H1825 C1813 0.929 1_655 S
H1826 C1814 0.960 . S
H1827 C1814 0.962 . S
H1828 C1814 0.960 . S
H1829 C1815 0.961 . S
H1830 C1815 0.961 . S
H1831 C1815 0.961 . S
H1832 C1816 0.931 . S
H1833 C1821 0.930 . S
H1834 C1822 0.956 . S
H1835 C1822 0.961 . S
H1836 C1822 0.961 . S
H1837 C1823 0.958 . S
H1838 C1823 0.961 . S
H1839 C1823 0.960 . S
C1840 C1841 1.391 . S
C1840 C1842 1.394 . S
C1840 H1856 0.931 . S
C1841 C1840 1.391 . S
C1841 C1845 1.376 . S
C1842 C1840 1.394 . S
C1842 C1843 1.369 . S
C1842 C1846 1.531 . S
C1843 C1842 1.369 . S
C1843 C1844 1.410 . S
C1843 C1851 1.503 . S
C1844 C1843 1.410 . S
C1844 C1845 1.392 . S
C1844 C1847 1.511 . S
C1845 C1841 1.376 . S
C1845 C1844 1.392 . S
C1845 H1857 0.929 . S
C1846 C1842 1.531 . S
C1846 H1858 0.960 . S
C1846 H1859 0.962 . S
C1846 H1860 0.960 . S
C1847 C1844 1.511 . S
C1847 H1861 0.961 . S
C1847 H1862 0.961 . S
C1847 H1863 0.961 . S
C1848 C1849 1.370 . S
C1848 C1850 1.363 . S
C1848 H1864 0.931 . S
C1849 C1848 1.370 . S
C1849 C1853 1.408 . S
C1850 C1848 1.363 . S
C1850 C1851 1.370 . S
C1850 C1854 1.524 . S
C1851 C1843 1.503 . S
C1851 C1850 1.370 . S
C1851 C1852 1.403 . S
C1852 C1851 1.403 . S
C1852 C1853 1.404 . S
C1852 C1855 1.539 . S
C1853 C1849 1.408 . S
C1853 C1852 1.404 . S
C1853 H1865 0.930 . S
C1854 C1850 1.524 . S
C1854 H1866 0.956 . S
C1854 H1867 0.961 . S
C1854 H1868 0.961 . S
C1855 C1852 1.539 . S
C1855 H1869 0.958 . S
C1855 H1870 0.961 . S
C1855 H1871 0.960 . S
H1856 C1840 0.931 . S
H1857 C1845 0.929 . S
H1858 C1846 0.960 . S
H1859 C1846 0.962 . S
H1860 C1846 0.960 . S
H1861 C1847 0.961 . S
H1862 C1847 0.961 . S
H1863 C1847 0.961 . S
H1864 C1848 0.931 . S
H1865 C1853 0.930 . S
H1866 C1854 0.956 . S
H1867 C1854 0.961 . S
H1868 C1854 0.961 . S
H1869 C1855 0.958 . S
H1870 C1855 0.961 . S
H1871 C1855 0.960 . S
C1872 C1873 1.391 . S
C1872 C1874 1.394 . S
C1872 H1888 0.931 . S
C1873 C1872 1.391 . S
C1873 C1877 1.376 . S
C1874 C1872 1.394 . S
C1874 C1875 1.369 . S
C1874 C1878 1.531 . S
C1875 C1874 1.369 . S
C1875 C1876 1.410 . S
C1875 C1883 1.503 . S
C1876 C1875 1.410 . S
C1876 C1877 1.392 . S
C1876 C1879 1.511 . S
C1877 C1873 1.376 . S
C1877 C1876 1.392 . S
C1877 H1889 0.929 . S
C1878 C1874 1.531 . S
C1878 H1890 0.960 . S
C1878 H1891 0.962 . S
C1878 H1892 0.960 . S
C1879 C1876 1.511 . S
C1879 H1893 0.961 . S
C1879 H1894 0.961 . S
C1879 H1895 0.961 . S
C1880 C1881 1.370 . S
C1880 C1882 1.363 . S
C1880 H1896 0.931 . S
C1881 C1880 1.370 . S
C1881 C1885 1.408 . S
C1882 C1880 1.363 . S
C1882 C1883 1.370 . S
C1882 C1886 1.524 . S
C1883 C1875 1.503 . S
C1883 C1882 1.370 . S
C1883 C1884 1.403 . S
C1884 C1883 1.403 . S
C1884 C1885 1.404 . S
C1884 C1887 1.539 . S
C1885 C1881 1.408 . S
C1885 C1884 1.404 . S
C1885 H1897 0.930 . S
C1886 C1882 1.524 . S
C1886 H1898 0.956 . S
C1886 H1899 0.961 . S
C1886 H1900 0.961 . S
C1887 C1884 1.539 . S
C1887 H1901 0.958 . S
C1887 H1902 0.961 . S
C1887 H1903 0.960 . S
H1888 C1872 0.931 . S
H1889 C1877 0.929 . S
H1890 C1878 0.960 . S
H1891 C1878 0.962 . S
H1892 C1878 0.960 . S
H1893 C1879 0.961 . S
H1894 C1879 0.961 . S
H1895 C1879 0.961 . S
H1896 C1880 0.931 . S
H1897 C1885 0.930 . S
H1898 C1886 0.956 . S
H1899 C1886 0.961 . S
H1900 C1886 0.961 . S
H1901 C1887 0.958 . S
H1902 C1887 0.961 . S
H1903 C1887 0.960 . S
C1904 C1905 1.391 . S
C1904 C1906 1.394 . S
C1904 H1920 0.931 . S
C1905 C1904 1.391 . S
C1905 C1909 1.376 . S
C1906 C1904 1.394 . S
C1906 C1907 1.369 . S
C1906 C1910 1.531 . S
C1907 C1906 1.369 . S
C1907 C1908 1.410 . S
C1907 C1915 1.503 . S
C1908 C1907 1.410 . S
C1908 C1909 1.392 . S
C1908 C1911 1.511 . S
C1909 C1905 1.376 . S
C1909 C1908 1.392 . S
C1909 H1921 0.929 . S
C1910 C1906 1.531 . S
C1910 H1922 0.960 . S
C1910 H1923 0.962 . S
C1910 H1924 0.960 . S
C1911 C1908 1.511 . S
C1911 H1925 0.961 . S
C1911 H1926 0.961 . S
C1911 H1927 0.961 . S
C1912 C1913 1.370 . S
C1912 C1914 1.363 . S
C1912 H1928 0.931 . S
C1913 C1912 1.370 . S
C1913 C1917 1.408 . S
C1914 C1912 1.363 . S
C1914 C1915 1.370 . S
C1914 C1918 1.524 . S
C1915 C1907 1.503 . S
C1915 C1914 1.370 . S
C1915 C1916 1.403 . S
C1916 C1915 1.403 . S
C1916 C1917 1.404 . S
C1916 C1919 1.539 . S
C1917 C1913 1.408 . S
C1917 C1916 1.404 . S
C1917 H1929 0.930 . S
C1918 C1914 1.524 . S
C1918 H1930 0.956 . S
C1918 H1931 0.961 . S
C1918 H1932 0.961 . S
C1919 C1916 1.539 . S
C1919 H1933 0.958 . S
C1919 H1934 0.961 . S
C1919 H1935 0.960 . S
H1920 C1904 0.931 . S
H1921 C1909 0.929 . S
H1922 C1910 0.960 . S
H1923 C1910 0.962 . S
H1924 C1910 0.960 . S
H1925 C1911 0.961 . S
H1926 C1911 0.961 . S
H1927 C1911 0.961 . S
H1928 C1912 0.931 . S
H1929 C1917 0.930 . S
H1930 C1918 0.956 . S
H1931 C1918 0.961 . S
H1932 C1918 0.961 . S
H1933 C1919 0.958 . S
H1934 C1919 0.961 . S
H1935 C1919 0.960 . S
C1936 C1937 1.391 . S
C1936 C1938 1.394 . S
C1936 H1952 0.931 . S
C1937 C1936 1.391 . S
C1937 C1941 1.376 . S
C1938 C1936 1.394 . S
C1938 C1939 1.369 . S
C1938 C1942 1.531 . S
C1939 C1938 1.369 . S
C1939 C1940 1.410 . S
C1939 C1947 1.503 . S
C1940 C1939 1.410 . S
C1940 C1941 1.392 . S
C1940 C1943 1.492 1_655 S
C1941 C1937 1.376 . S
C1941 C1940 1.392 . S
C1941 H1953 0.932 1_545 S
C1942 C1938 1.531 . S
C1942 H1954 0.960 . S
C1942 H1955 0.962 . S
C1942 H1956 0.960 . S
C1943 C1940 1.492 1_455 S
C1943 H1957 0.965 1_445 S
C1943 H1958 0.967 . S
C1943 H1959 0.971 . S
C1944 C1945 1.370 1_655 S
C1944 C1946 1.363 . S
C1944 H1960 0.931 . S
C1945 C1944 1.370 1_455 S
C1945 C1949 1.408 . S
C1946 C1944 1.363 . S
C1946 C1947 1.370 . S
C1946 C1950 1.524 1_545 S
C1947 C1939 1.503 . S
C1947 C1946 1.370 . S
C1947 C1948 1.412 . S
C1948 C1947 1.412 . S
C1948 C1949 1.394 1_655 S
C1948 C1951 1.538 1_655 S
C1949 C1945 1.408 . S
C1949 C1948 1.394 1_455 S
C1949 H1961 0.930 . S
C1950 C1946 1.524 1_565 S
C1950 H1962 0.960 . S
C1950 H1963 0.961 . S
C1950 H1964 0.961 . S
C1951 C1948 1.538 1_455 S
C1951 H1965 0.937 1_455 S
C1951 H1966 0.961 . S
C1951 H1967 0.960 . S
H1952 C1936 0.931 . S
H1953 C1941 0.932 1_565 S
H1954 C1942 0.960 . S
H1955 C1942 0.962 . S
H1956 C1942 0.960 . S
H1957 C1943 0.965 1_665 S
H1958 C1943 0.967 . S
H1959 C1943 0.971 . S
H1960 C1944 0.931 . S
H1961 C1949 0.930 . S
H1962 C1950 0.960 . S
H1963 C1950 0.961 . S
H1964 C1950 0.961 . S
H1965 C1951 0.937 1_655 S
H1966 C1951 0.961 . S
H1967 C1951 0.960 . S
C1968 C1969 1.391 . S
C1968 C1970 1.394 . S
C1968 H1984 0.931 . S
C1969 C1968 1.391 . S
C1969 C1973 1.376 . S
C1970 C1968 1.394 . S
C1970 C1971 1.369 . S
C1970 C1974 1.531 . S
C1971 C1970 1.369 . S
C1971 C1972 1.410 . S
C1971 C1979 1.503 . S
C1972 C1971 1.410 . S
C1972 C1973 1.392 . S
C1972 C1975 1.511 . S
C1973 C1969 1.376 . S
C1973 C1972 1.392 . S
C1973 H1985 0.929 . S
C1974 C1970 1.531 . S
C1974 H1986 0.960 . S
C1974 H1987 0.962 . S
C1974 H1988 0.960 . S
C1975 C1972 1.511 . S
C1975 H1989 0.961 . S
C1975 H1990 0.961 . S
C1975 H1991 0.961 . S
C1976 C1977 1.370 . S
C1976 C1978 1.363 . S
C1976 H1992 0.931 . S
C1977 C1976 1.370 . S
C1977 C1981 1.408 . S
C1978 C1976 1.363 . S
C1978 C1979 1.370 . S
C1978 C1982 1.524 . S
C1979 C1971 1.503 . S
C1979 C1978 1.370 . S
C1979 C1980 1.403 . S
C1980 C1979 1.403 . S
C1980 C1981 1.404 . S
C1980 C1983 1.539 . S
C1981 C1977 1.408 . S
C1981 C1980 1.404 . S
C1981 H1993 0.930 . S
C1982 C1978 1.524 . S
C1982 H1994 0.956 . S
C1982 H1995 0.961 . S
C1982 H1996 0.961 . S
C1983 C1980 1.539 . S
C1983 H1997 0.958 . S
C1983 H1998 0.961 . S
C1983 H1999 0.960 . S
H1984 C1968 0.931 . S
H1985 C1973 0.929 . S
H1986 C1974 0.960 . S
H1987 C1974 0.962 . S
H1988 C1974 0.960 . S
H1989 C1975 0.961 . S
H1990 C1975 0.961 . S
H1991 C1975 0.961 . S
H1992 C1976 0.931 . S
H1993 C1981 0.930 . S
H1994 C1982 0.956 . S
H1995 C1982 0.961 . S
H1996 C1982 0.961 . S
H1997 C1983 0.958 . S
H1998 C1983 0.961 . S
H1999 C1983 0.960 . S
C2000 C2001 1.391 . S
C2000 C2002 1.394 . S
C2000 H2016 0.931 . S
C2001 C2000 1.391 . S
C2001 C2005 1.376 . S
C2002 C2000 1.394 . S
C2002 C2003 1.369 . S
C2002 C2006 1.531 . S
C2003 C2002 1.369 . S
C2003 C2004 1.410 . S
C2003 C2011 1.503 . S
C2004 C2003 1.410 . S
C2004 C2005 1.392 . S
C2004 C2007 1.511 . S
C2005 C2001 1.376 . S
C2005 C2004 1.392 . S
C2005 H2017 0.929 . S
C2006 C2002 1.531 . S
C2006 H2018 0.960 . S
C2006 H2019 0.962 . S
C2006 H2020 0.960 . S
C2007 C2004 1.511 . S
C2007 H2021 0.961 . S
C2007 H2022 0.961 . S
C2007 H2023 0.961 1_545 S
C2008 C2009 1.370 . S
C2008 C2010 1.363 . S
C2008 H2024 0.931 . S
C2009 C2008 1.370 . S
C2009 C2013 1.408 . S
C2010 C2008 1.363 . S
C2010 C2011 1.370 . S
C2010 C2014 1.524 . S
C2011 C2003 1.503 . S
C2011 C2010 1.370 . S
C2011 C2012 1.403 . S
C2012 C2011 1.403 . S
C2012 C2013 1.404 . S
C2012 C2015 1.539 . S
C2013 C2009 1.408 . S
C2013 C2012 1.404 . S
C2013 H2025 0.930 . S
C2014 C2010 1.524 . S
C2014 H2026 0.956 . S
C2014 H2027 0.961 . S
C2014 H2028 0.961 . S
C2015 C2012 1.539 . S
C2015 H2029 0.958 . S
C2015 H2030 0.961 1_545 S
C2015 H2031 0.960 . S
H2016 C2000 0.931 . S
H2017 C2005 0.929 . S
H2018 C2006 0.960 . S
H2019 C2006 0.962 . S
H2020 C2006 0.960 . S
H2021 C2007 0.961 . S
H2022 C2007 0.961 . S
H2023 C2007 0.961 1_565 S
H2024 C2008 0.931 . S
H2025 C2013 0.930 . S
H2026 C2014 0.956 . S
H2027 C2014 0.961 . S
H2028 C2014 0.961 . S
H2029 C2015 0.958 . S
H2030 C2015 0.961 1_565 S
H2031 C2015 0.960 . S
C2032 C2033 1.391 . S
C2032 C2034 1.394 . S
C2032 H2048 0.931 . S
C2033 C2032 1.391 . S
C2033 C2037 1.376 . S
C2034 C2032 1.394 . S
C2034 C2035 1.369 . S
C2034 C2038 1.531 . S
C2035 C2034 1.369 . S
C2035 C2036 1.410 . S
C2035 C2043 1.503 . S
C2036 C2035 1.410 . S
C2036 C2037 1.392 . S
C2036 C2039 1.511 . S
C2037 C2033 1.376 . S
C2037 C2036 1.392 . S
C2037 H2049 0.929 . S
C2038 C2034 1.531 . S
C2038 H2050 0.960 . S
C2038 H2051 0.962 . S
C2038 H2052 0.960 . S
C2039 C2036 1.511 . S
C2039 H2053 0.961 . S
C2039 H2054 0.961 . S
C2039 H2055 0.961 . S
C2040 C2041 1.370 . S
C2040 C2042 1.363 . S
C2040 H2056 0.931 . S
C2041 C2040 1.370 . S
C2041 C2045 1.408 . S
C2042 C2040 1.363 . S
C2042 C2043 1.370 . S
C2042 C2046 1.524 . S
C2043 C2035 1.503 . S
C2043 C2042 1.370 . S
C2043 C2044 1.403 . S
C2044 C2043 1.403 . S
C2044 C2045 1.404 . S
C2044 C2047 1.539 . S
C2045 C2041 1.408 . S
C2045 C2044 1.404 . S
C2045 H2057 0.930 . S
C2046 C2042 1.524 . S
C2046 H2058 0.956 . S
C2046 H2059 0.961 . S
C2046 H2060 0.961 . S
C2047 C2044 1.539 . S
C2047 H2061 0.958 . S
C2047 H2062 0.961 . S
C2047 H2063 0.960 . S
H2048 C2032 0.931 . S
H2049 C2037 0.929 . S
H2050 C2038 0.960 . S
H2051 C2038 0.962 . S
H2052 C2038 0.960 . S
H2053 C2039 0.961 . S
H2054 C2039 0.961 . S
H2055 C2039 0.961 . S
H2056 C2040 0.931 . S
H2057 C2045 0.930 . S
H2058 C2046 0.956 . S
H2059 C2046 0.961 . S
H2060 C2046 0.961 . S
H2061 C2047 0.958 . S
H2062 C2047 0.961 . S
H2063 C2047 0.960 . S
C2064 C2065 1.391 . S
C2064 C2066 1.394 . S
C2064 H2080 0.931 . S
C2065 C2064 1.391 . S
C2065 C2069 1.376 1_545 S
C2066 C2064 1.394 . S
C2066 C2067 1.369 . S
C2066 C2070 1.531 . S
C2067 C2066 1.369 . S
C2067 C2068 1.410 1_545 S
C2067 C2075 1.503 . S
C2068 C2067 1.410 1_565 S
C2068 C2069 1.392 . S
C2068 C2071 1.511 . S
C2069 C2065 1.376 1_565 S
C2069 C2068 1.392 . S
C2069 H2081 0.929 . S
C2070 C2066 1.531 . S
C2070 H2082 0.960 . S
C2070 H2083 0.962 . S
C2070 H2084 0.960 . S
C2071 C2068 1.511 . S
C2071 H2085 0.961 . S
C2071 H2086 0.961 . S
C2071 H2087 0.961 . S
C2072 C2073 1.370 . S
C2072 C2074 1.363 . S
C2072 H2088 0.931 . S
C2073 C2072 1.370 . S
C2073 C2077 1.408 1_455 S
C2074 C2072 1.363 . S
C2074 C2075 1.370 1_455 S
C2074 C2078 1.524 . S
C2075 C2067 1.503 . S
C2075 C2074 1.370 1_655 S
C2075 C2076 1.403 . S
C2076 C2075 1.403 . S
C2076 C2077 1.404 . S
C2076 C2079 1.539 1_545 S
C2077 C2073 1.408 1_655 S
C2077 C2076 1.404 . S
C2077 H2089 0.930 . S
C2078 C2074 1.524 . S
C2078 H2090 0.956 . S
C2078 H2091 0.961 . S
C2078 H2092 0.961 . S
C2079 C2076 1.539 1_565 S
C2079 H2093 0.958 1_565 S
C2079 H2094 0.961 . S
C2079 H2095 0.960 . S
H2080 C2064 0.931 . S
H2081 C2069 0.929 . S
H2082 C2070 0.960 . S
H2083 C2070 0.962 . S
H2084 C2070 0.960 . S
H2085 C2071 0.961 . S
H2086 C2071 0.961 . S
H2087 C2071 0.961 . S
H2088 C2072 0.931 . S
H2089 C2077 0.930 . S
H2090 C2078 0.956 . S
H2091 C2078 0.961 . S
H2092 C2078 0.961 . S
H2093 C2079 0.958 1_545 S
H2094 C2079 0.961 . S
H2095 C2079 0.960 . S
C2096 C2097 1.391 . S
C2096 C2098 1.394 . S
C2096 H2112 0.931 . S
C2097 C2096 1.391 . S
C2097 C2101 1.376 . S
C2098 C2096 1.394 . S
C2098 C2099 1.369 . S
C2098 C2102 1.531 . S
C2099 C2098 1.369 . S
C2099 C2100 1.410 . S
C2099 C2107 1.503 . S
C2100 C2099 1.410 . S
C2100 C2101 1.392 . S
C2100 C2103 1.511 . S
C2101 C2097 1.376 . S
C2101 C2100 1.392 . S
C2101 H2113 0.929 . S
C2102 C2098 1.531 . S
C2102 H2114 0.960 . S
C2102 H2115 0.962 . S
C2102 H2116 0.960 . S
C2103 C2100 1.511 . S
C2103 H2117 0.961 . S
C2103 H2118 0.961 . S
C2103 H2119 0.961 . S
C2104 C2105 1.370 . S
C2104 C2106 1.363 . S
C2104 H2120 0.931 . S
C2105 C2104 1.370 . S
C2105 C2109 1.408 . S
C2106 C2104 1.363 . S
C2106 C2107 1.370 . S
C2106 C2110 1.524 . S
C2107 C2099 1.503 . S
C2107 C2106 1.370 . S
C2107 C2108 1.403 . S
C2108 C2107 1.403 . S
C2108 C2109 1.404 . S
C2108 C2111 1.539 . S
C2109 C2105 1.408 . S
C2109 C2108 1.404 . S
C2109 H2121 0.930 . S
C2110 C2106 1.524 . S
C2110 H2122 0.956 . S
C2110 H2123 0.961 . S
C2110 H2124 0.961 . S
C2111 C2108 1.539 . S
C2111 H2125 0.958 . S
C2111 H2126 0.961 . S
C2111 H2127 0.960 . S
H2112 C2096 0.931 . S
H2113 C2101 0.929 . S
H2114 C2102 0.960 . S
H2115 C2102 0.962 . S
H2116 C2102 0.960 . S
H2117 C2103 0.961 . S
H2118 C2103 0.961 . S
H2119 C2103 0.961 . S
H2120 C2104 0.931 . S
H2121 C2109 0.930 . S
H2122 C2110 0.956 . S
H2123 C2110 0.961 . S
H2124 C2110 0.961 . S
H2125 C2111 0.958 . S
H2126 C2111 0.961 . S
H2127 C2111 0.960 . S
C2128 C2129 1.391 . S
C2128 C2130 1.394 . S
C2128 H2144 0.931 . S
C2129 C2128 1.391 . S
C2129 C2133 1.376 . S
C2130 C2128 1.394 . S
C2130 C2131 1.369 . S
C2130 C2134 1.531 . S
C2131 C2130 1.369 . S
C2131 C2132 1.410 . S
C2131 C2139 1.503 . S
C2132 C2131 1.410 . S
C2132 C2133 1.392 . S
C2132 C2135 1.511 . S
C2133 C2129 1.376 . S
C2133 C2132 1.392 . S
C2133 H2145 0.929 . S
C2134 C2130 1.531 . S
C2134 H2146 0.960 . S
C2134 H2147 0.962 . S
C2134 H2148 0.960 . S
C2135 C2132 1.511 . S
C2135 H2149 0.961 . S
C2135 H2150 0.961 . S
C2135 H2151 0.961 . S
C2136 C2137 1.370 . S
C2136 C2138 1.363 . S
C2136 H2152 0.931 . S
C2137 C2136 1.370 . S
C2137 C2141 1.408 . S
C2138 C2136 1.363 . S
C2138 C2139 1.370 . S
C2138 C2142 1.524 . S
C2139 C2131 1.503 . S
C2139 C2138 1.370 . S
C2139 C2140 1.403 . S
C2140 C2139 1.403 . S
C2140 C2141 1.404 . S
C2140 C2143 1.539 . S
C2141 C2137 1.408 . S
C2141 C2140 1.404 . S
C2141 H2153 0.930 . S
C2142 C2138 1.524 . S
C2142 H2154 0.956 . S
C2142 H2155 0.961 . S
C2142 H2156 0.961 . S
C2143 C2140 1.539 . S
C2143 H2157 0.958 . S
C2143 H2158 0.961 . S
C2143 H2159 0.960 . S
H2144 C2128 0.931 . S
H2145 C2133 0.929 . S
H2146 C2134 0.960 . S
H2147 C2134 0.962 . S
H2148 C2134 0.960 . S
H2149 C2135 0.961 . S
H2150 C2135 0.961 . S
H2151 C2135 0.961 . S
H2152 C2136 0.931 . S
H2153 C2141 0.930 . S
H2154 C2142 0.956 . S
H2155 C2142 0.961 . S
H2156 C2142 0.961 . S
H2157 C2143 0.958 . S
H2158 C2143 0.961 . S
H2159 C2143 0.960 . S
C2160 C2161 1.391 . S
C2160 C2162 1.394 . S
C2160 H2176 0.931 . S
C2161 C2160 1.391 . S
C2161 C2165 1.376 . S
C2162 C2160 1.394 . S
C2162 C2163 1.369 . S
C2162 C2166 1.531 . S
C2163 C2162 1.369 . S
C2163 C2164 1.410 . S
C2163 C2171 1.503 . S
C2164 C2163 1.410 . S
C2164 C2165 1.392 . S
C2164 C2167 1.511 . S
C2165 C2161 1.376 . S
C2165 C2164 1.392 . S
C2165 H2177 0.929 . S
C2166 C2162 1.531 . S
C2166 H2178 0.960 . S
C2166 H2179 0.962 . S
C2166 H2180 0.960 . S
C2167 C2164 1.511 . S
C2167 H2181 0.961 . S
C2167 H2182 0.961 . S
C2167 H2183 0.961 . S
C2168 C2169 1.370 . S
C2168 C2170 1.363 . S
C2168 H2184 0.931 . S
C2169 C2168 1.370 . S
C2169 C2173 1.408 . S
C2170 C2168 1.363 . S
C2170 C2171 1.370 . S
C2170 C2174 1.524 . S
C2171 C2163 1.503 . S
C2171 C2170 1.370 . S
C2171 C2172 1.403 . S
C2172 C2171 1.403 . S
C2172 C2173 1.404 . S
C2172 C2175 1.539 . S
C2173 C2169 1.408 . S
C2173 C2172 1.404 . S
C2173 H2185 0.930 . S
C2174 C2170 1.524 . S
C2174 H2186 0.956 . S
C2174 H2187 0.961 . S
C2174 H2188 0.961 . S
C2175 C2172 1.539 . S
C2175 H2189 0.958 . S
C2175 H2190 0.961 . S
C2175 H2191 0.960 . S
H2176 C2160 0.931 . S
H2177 C2165 0.929 . S
H2178 C2166 0.960 . S
H2179 C2166 0.962 . S
H2180 C2166 0.960 . S
H2181 C2167 0.961 . S
H2182 C2167 0.961 . S
H2183 C2167 0.961 . S
H2184 C2168 0.931 . S
H2185 C2173 0.930 . S
H2186 C2174 0.956 . S
H2187 C2174 0.961 . S
H2188 C2174 0.961 . S
H2189 C2175 0.958 . S
H2190 C2175 0.961 . S
H2191 C2175 0.960 . S
C2192 C2193 1.391 1_556 S
C2192 C2194 1.394 1_556 S
C2192 H2208 0.931 . S
C2193 C2192 1.391 1_554 S
C2193 C2197 1.376 . S
C2194 C2192 1.394 1_554 S
C2194 C2195 1.369 . S
C2194 C2198 1.531 1_554 S
C2195 C2194 1.369 . S
C2195 C2196 1.410 . S
C2195 C2203 1.503 . S
C2196 C2195 1.410 . S
C2196 C2197 1.392 . S
C2196 C2199 1.511 . S
C2197 C2193 1.376 . S
C2197 C2196 1.392 . S
C2197 H2209 0.929 . S
C2198 C2194 1.531 1_556 S
C2198 H2210 0.960 . S
C2198 H2211 0.962 . S
C2198 H2212 0.960 . S
C2199 C2196 1.511 . S
C2199 H2213 0.961 . S
C2199 H2214 0.961 . S
C2199 H2215 0.961 . S
C2200 C2201 1.370 . S
C2200 C2202 1.363 . S
C2200 H2216 0.931 . S
C2201 C2200 1.370 . S
C2201 C2205 1.408 1_545 S
C2202 C2200 1.363 . S
C2202 C2203 1.370 1_545 S
C2202 C2206 1.524 . S
C2203 C2195 1.503 . S
C2203 C2202 1.370 1_565 S
C2203 C2204 1.403 . S
C2204 C2203 1.403 . S
C2204 C2205 1.404 . S
C2204 C2207 1.539 . S
C2205 C2201 1.408 1_565 S
C2205 C2204 1.404 . S
C2205 H2217 0.930 . S
C2206 C2202 1.524 . S
C2206 H2218 0.956 . S
C2206 H2219 0.961 . S
C2206 H2220 0.961 . S
C2207 C2204 1.539 . S
C2207 H2221 0.958 . S
C2207 H2222 0.961 . S
C2207 H2223 0.960 . S
H2208 C2192 0.931 . S
H2209 C2197 0.929 . S
H2210 C2198 0.960 . S
H2211 C2198 0.962 . S
H2212 C2198 0.960 . S
H2213 C2199 0.961 . S
H2214 C2199 0.961 . S
H2215 C2199 0.961 . S
H2216 C2200 0.931 . S
H2217 C2205 0.930 . S
H2218 C2206 0.956 . S
H2219 C2206 0.961 . S
H2220 C2206 0.961 . S
H2221 C2207 0.958 . S
H2222 C2207 0.961 . S
H2223 C2207 0.960 . S
C2224 C2225 1.391 . S
C2224 C2226 1.394 . S
C2224 H2240 0.931 . S
C2225 C2224 1.391 . S
C2225 C2229 1.376 . S
C2226 C2224 1.394 . S
C2226 C2227 1.369 . S
C2226 C2230 1.531 . S
C2227 C2226 1.369 . S
C2227 C2228 1.410 . S
C2227 C2235 1.503 . S
C2228 C2227 1.410 . S
C2228 C2229 1.392 . S
C2228 C2231 1.511 . S
C2229 C2225 1.376 . S
C2229 C2228 1.392 . S
C2229 H2241 0.929 . S
C2230 C2226 1.531 . S
C2230 H2242 0.960 . S
C2230 H2243 0.962 . S
C2230 H2244 0.960 . S
C2231 C2228 1.511 . S
C2231 H2245 0.961 . S
C2231 H2246 0.961 . S
C2231 H2247 0.961 . S
C2232 C2233 1.370 . S
C2232 C2234 1.363 . S
C2232 H2248 0.931 . S
C2233 C2232 1.370 . S
C2233 C2237 1.408 . S
C2234 C2232 1.363 . S
C2234 C2235 1.370 . S
C2234 C2238 1.524 . S
C2235 C2227 1.503 . S
C2235 C2234 1.370 . S
C2235 C2236 1.403 . S
C2236 C2235 1.403 . S
C2236 C2237 1.404 . S
C2236 C2239 1.539 1_554 S
C2237 C2233 1.408 . S
C2237 C2236 1.404 . S
C2237 H2249 0.930 1_554 S
C2238 C2234 1.524 . S
C2238 H2250 0.956 . S
C2238 H2251 0.961 . S
C2238 H2252 0.961 . S
C2239 C2236 1.539 1_556 S
C2239 H2253 0.958 . S
C2239 H2254 0.961 . S
C2239 H2255 0.960 . S
H2240 C2224 0.931 . S
H2241 C2229 0.929 . S
H2242 C2230 0.960 . S
H2243 C2230 0.962 . S
H2244 C2230 0.960 . S
H2245 C2231 0.961 . S
H2246 C2231 0.961 . S
H2247 C2231 0.961 . S
H2248 C2232 0.931 . S
H2249 C2237 0.930 1_556 S
H2250 C2238 0.956 . S
H2251 C2238 0.961 . S
H2252 C2238 0.961 . S
H2253 C2239 0.958 . S
H2254 C2239 0.961 . S
H2255 C2239 0.960 . S
C2256 C2257 1.391 . S
C2256 C2258 1.394 . S
C2256 H2272 0.931 . S
C2257 C2256 1.391 . S
C2257 C2261 1.376 . S
C2258 C2256 1.394 . S
C2258 C2259 1.369 . S
C2258 C2262 1.531 . S
C2259 C2258 1.369 . S
C2259 C2260 1.410 . S
C2259 C2267 1.503 . S
C2260 C2259 1.410 . S
C2260 C2261 1.392 . S
C2260 C2263 1.511 . S
C2261 C2257 1.376 . S
C2261 C2260 1.392 . S
C2261 H2273 0.929 . S
C2262 C2258 1.531 . S
C2262 H2274 0.960 . S
C2262 H2275 0.962 . S
C2262 H2276 0.960 . S
C2263 C2260 1.511 . S
C2263 H2277 0.961 . S
C2263 H2278 0.961 . S
C2263 H2279 0.961 . S
C2264 C2265 1.370 . S
C2264 C2266 1.363 . S
C2264 H2280 0.931 . S
C2265 C2264 1.370 . S
C2265 C2269 1.408 . S
C2266 C2264 1.363 . S
C2266 C2267 1.370 . S
C2266 C2270 1.524 . S
C2267 C2259 1.503 . S
C2267 C2266 1.370 . S
C2267 C2268 1.403 . S
C2268 C2267 1.403 . S
C2268 C2269 1.404 . S
C2268 C2271 1.539 . S
C2269 C2265 1.408 . S
C2269 C2268 1.404 . S
C2269 H2281 0.930 . S
C2270 C2266 1.524 . S
C2270 H2282 0.956 . S
C2270 H2283 0.961 . S
C2270 H2284 0.961 . S
C2271 C2268 1.539 . S
C2271 H2285 0.958 . S
C2271 H2286 0.961 . S
C2271 H2287 0.960 . S
H2272 C2256 0.931 . S
H2273 C2261 0.929 . S
H2274 C2262 0.960 . S
H2275 C2262 0.962 . S
H2276 C2262 0.960 . S
H2277 C2263 0.961 . S
H2278 C2263 0.961 . S
H2279 C2263 0.961 . S
H2280 C2264 0.931 . S
H2281 C2269 0.930 . S
H2282 C2270 0.956 . S
H2283 C2270 0.961 . S
H2284 C2270 0.961 . S
H2285 C2271 0.958 . S
H2286 C2271 0.961 . S
H2287 C2271 0.960 . S
C2288 C2289 1.391 . S
C2288 C2290 1.394 . S
C2288 H2304 0.931 . S
C2289 C2288 1.391 . S
C2289 C2293 1.376 . S
C2290 C2288 1.394 . S
C2290 C2291 1.369 . S
C2290 C2294 1.531 . S
C2291 C2290 1.369 . S
C2291 C2292 1.410 . S
C2291 C2299 1.503 . S
C2292 C2291 1.410 . S
C2292 C2293 1.392 . S
C2292 C2295 1.511 . S
C2293 C2289 1.376 . S
C2293 C2292 1.392 . S
C2293 H2305 0.929 . S
C2294 C2290 1.531 . S
C2294 H2306 0.960 . S
C2294 H2307 0.962 . S
C2294 H2308 0.960 . S
C2295 C2292 1.511 . S
C2295 H2309 0.961 . S
C2295 H2310 0.961 . S
C2295 H2311 0.961 . S
C2296 C2297 1.370 . S
C2296 C2298 1.363 . S
C2296 H2312 0.931 . S
C2297 C2296 1.370 . S
C2297 C2301 1.408 . S
C2298 C2296 1.363 . S
C2298 C2299 1.370 . S
C2298 C2302 1.524 . S
C2299 C2291 1.503 . S
C2299 C2298 1.370 . S
C2299 C2300 1.403 . S
C2300 C2299 1.403 . S
C2300 C2301 1.404 . S
C2300 C2303 1.539 . S
C2301 C2297 1.408 . S
C2301 C2300 1.404 . S
C2301 H2313 0.930 . S
C2302 C2298 1.524 . S
C2302 H2314 0.956 . S
C2302 H2315 0.961 . S
C2302 H2316 0.961 . S
C2303 C2300 1.539 . S
C2303 H2317 0.958 . S
C2303 H2318 0.961 . S
C2303 H2319 0.960 . S
H2304 C2288 0.931 . S
H2305 C2293 0.929 . S
H2306 C2294 0.960 . S
H2307 C2294 0.962 . S
H2308 C2294 0.960 . S
H2309 C2295 0.961 . S
H2310 C2295 0.961 . S
H2311 C2295 0.961 . S
H2312 C2296 0.931 . S
H2313 C2301 0.930 . S
H2314 C2302 0.956 . S
H2315 C2302 0.961 . S
H2316 C2302 0.961 . S
H2317 C2303 0.958 . S
H2318 C2303 0.961 . S
H2319 C2303 0.960 . S
C2320 C2321 1.391 . S
C2320 C2322 1.394 . S
C2320 H2336 0.931 . S
C2321 C2320 1.391 . S
C2321 C2325 1.376 . S
C2322 C2320 1.394 . S
C2322 C2323 1.369 . S
C2322 C2326 1.531 . S
C2323 C2322 1.369 . S
C2323 C2324 1.410 . S
C2323 C2331 1.503 . S
C2324 C2323 1.410 . S
C2324 C2325 1.392 . S
C2324 C2327 1.511 . S
C2325 C2321 1.376 . S
C2325 C2324 1.392 . S
C2325 H2337 0.929 . S
C2326 C2322 1.531 . S
C2326 H2338 0.960 . S
C2326 H2339 0.962 . S
C2326 H2340 0.960 . S
C2327 C2324 1.511 . S
C2327 H2341 0.961 . S
C2327 H2342 0.961 . S
C2327 H2343 0.961 . S
C2328 C2329 1.370 . S
C2328 C2330 1.363 . S
C2328 H2344 0.931 . S
C2329 C2328 1.370 . S
C2329 C2333 1.408 . S
C2330 C2328 1.363 . S
C2330 C2331 1.370 . S
C2330 C2334 1.524 . S
C2331 C2323 1.503 . S
C2331 C2330 1.370 . S
C2331 C2332 1.403 . S
C2332 C2331 1.403 . S
C2332 C2333 1.404 . S
C2332 C2335 1.539 . S
C2333 C2329 1.408 . S
C2333 C2332 1.404 . S
C2333 H2345 0.930 . S
C2334 C2330 1.524 . S
C2334 H2346 0.956 . S
C2334 H2347 0.961 . S
C2334 H2348 0.961 . S
C2335 C2332 1.539 . S
C2335 H2349 0.958 . S
C2335 H2350 0.961 . S
C2335 H2351 0.960 . S
H2336 C2320 0.931 . S
H2337 C2325 0.929 . S
H2338 C2326 0.960 . S
H2339 C2326 0.962 . S
H2340 C2326 0.960 . S
H2341 C2327 0.961 . S
H2342 C2327 0.961 . S
H2343 C2327 0.961 . S
H2344 C2328 0.931 . S
H2345 C2333 0.930 . S
H2346 C2334 0.956 . S
H2347 C2334 0.961 . S
H2348 C2334 0.961 . S
H2349 C2335 0.958 . S
H2350 C2335 0.961 . S
H2351 C2335 0.960 . S
C2352 C2353 1.391 . S
C2352 C2354 1.394 . S
C2352 H2368 0.931 . S
C2353 C2352 1.391 . S
C2353 C2357 1.376 . S
C2354 C2352 1.394 . S
C2354 C2355 1.369 . S
C2354 C2358 1.531 . S
C2355 C2354 1.369 . S
C2355 C2356 1.410 . S
C2355 C2363 1.503 . S
C2356 C2355 1.410 . S
C2356 C2357 1.392 . S
C2356 C2359 1.511 . S
C2357 C2353 1.376 . S
C2357 C2356 1.392 . S
C2357 H2369 0.929 . S
C2358 C2354 1.531 . S
C2358 H2370 0.960 . S
C2358 H2371 0.962 . S
C2358 H2372 0.960 . S
C2359 C2356 1.511 . S
C2359 H2373 0.961 . S
C2359 H2374 0.961 . S
C2359 H2375 0.961 . S
C2360 C2361 1.370 . S
C2360 C2362 1.363 . S
C2360 H2376 0.931 . S
C2361 C2360 1.370 . S
C2361 C2365 1.408 . S
C2362 C2360 1.363 . S
C2362 C2363 1.370 . S
C2362 C2366 1.524 . S
C2363 C2355 1.503 . S
C2363 C2362 1.370 . S
C2363 C2364 1.403 . S
C2364 C2363 1.403 . S
C2364 C2365 1.404 . S
C2364 C2367 1.539 . S
C2365 C2361 1.408 . S
C2365 C2364 1.404 . S
C2365 H2377 0.930 . S
C2366 C2362 1.524 . S
C2366 H2378 0.956 . S
C2366 H2379 0.961 . S
C2366 H2380 0.961 . S
C2367 C2364 1.539 . S
C2367 H2381 0.958 . S
C2367 H2382 0.961 . S
C2367 H2383 0.960 . S
H2368 C2352 0.931 . S
H2369 C2357 0.929 . S
H2370 C2358 0.960 . S
H2371 C2358 0.962 . S
H2372 C2358 0.960 . S
H2373 C2359 0.961 . S
H2374 C2359 0.961 . S
H2375 C2359 0.961 . S
H2376 C2360 0.931 . S
H2377 C2365 0.930 . S
H2378 C2366 0.956 . S
H2379 C2366 0.961 . S
H2380 C2366 0.961 . S
H2381 C2367 0.958 . S
H2382 C2367 0.961 . S
H2383 C2367 0.960 . S
C2384 C2385 1.391 . S
C2384 C2386 1.394 . S
C2384 H2400 0.931 . S
C2385 C2384 1.391 . S
C2385 C2389 1.376 . S
C2386 C2384 1.394 . S
C2386 C2387 1.369 . S
C2386 C2390 1.531 . S
C2387 C2386 1.369 . S
C2387 C2388 1.410 . S
C2387 C2395 1.503 . S
C2388 C2387 1.410 . S
C2388 C2389 1.392 . S
C2388 C2391 1.511 . S
C2389 C2385 1.376 . S
C2389 C2388 1.392 . S
C2389 H2401 0.929 . S
C2390 C2386 1.531 . S
C2390 H2402 0.960 . S
C2390 H2403 0.962 . S
C2390 H2404 0.960 . S
C2391 C2388 1.511 . S
C2391 H2405 0.961 . S
C2391 H2406 0.961 . S
C2391 H2407 0.961 . S
C2392 C2393 1.370 . S
C2392 C2394 1.363 . S
C2392 H2408 0.931 . S
C2393 C2392 1.370 . S
C2393 C2397 1.408 . S
C2394 C2392 1.363 . S
C2394 C2395 1.370 . S
C2394 C2398 1.524 . S
C2395 C2387 1.503 . S
C2395 C2394 1.370 . S
C2395 C2396 1.403 . S
C2396 C2395 1.403 . S
C2396 C2397 1.404 . S
C2396 C2399 1.539 . S
C2397 C2393 1.408 . S
C2397 C2396 1.404 . S
C2397 H2409 0.930 . S
C2398 C2394 1.524 . S
C2398 H2410 0.956 . S
C2398 H2411 0.961 . S
C2398 H2412 0.961 . S
C2399 C2396 1.539 . S
C2399 H2413 0.958 . S
C2399 H2414 0.961 . S
C2399 H2415 0.960 . S
H2400 C2384 0.931 . S
H2401 C2389 0.929 . S
H2402 C2390 0.960 . S
H2403 C2390 0.962 . S
H2404 C2390 0.960 . S
H2405 C2391 0.961 . S
H2406 C2391 0.961 . S
H2407 C2391 0.961 . S
H2408 C2392 0.931 . S
H2409 C2397 0.930 . S
H2410 C2398 0.956 . S
H2411 C2398 0.961 . S
H2412 C2398 0.961 . S
H2413 C2399 0.958 . S
H2414 C2399 0.961 . S
H2415 C2399 0.960 . S
C2416 C2417 1.391 . S
C2416 C2418 1.394 . S
C2416 H2432 0.931 . S
C2417 C2416 1.391 . S
C2417 C2421 1.376 . S
C2418 C2416 1.394 . S
C2418 C2419 1.369 . S
C2418 C2422 1.531 . S
C2419 C2418 1.369 . S
C2419 C2420 1.410 . S
C2419 C2427 1.503 . S
C2420 C2419 1.410 . S
C2420 C2421 1.392 . S
C2420 C2423 1.511 . S
C2421 C2417 1.376 . S
C2421 C2420 1.392 . S
C2421 H2433 0.929 . S
C2422 C2418 1.531 . S
C2422 H2434 0.960 . S
C2422 H2435 0.962 . S
C2422 H2436 0.960 . S
C2423 C2420 1.511 . S
C2423 H2437 0.961 . S
C2423 H2438 0.961 . S
C2423 H2439 0.961 . S
C2424 C2425 1.370 . S
C2424 C2426 1.363 . S
C2424 H2440 0.931 . S
C2425 C2424 1.370 . S
C2425 C2429 1.408 . S
C2426 C2424 1.363 . S
C2426 C2427 1.370 . S
C2426 C2430 1.524 . S
C2427 C2419 1.503 . S
C2427 C2426 1.370 . S
C2427 C2428 1.403 . S
C2428 C2427 1.403 . S
C2428 C2429 1.404 . S
C2428 C2431 1.539 . S
C2429 C2425 1.408 . S
C2429 C2428 1.404 . S
C2429 H2441 0.930 . S
C2430 C2426 1.524 . S
C2430 H2442 0.956 . S
C2430 H2443 0.961 . S
C2430 H2444 0.961 . S
C2431 C2428 1.539 . S
C2431 H2445 0.958 . S
C2431 H2446 0.961 . S
C2431 H2447 0.960 . S
H2432 C2416 0.931 . S
H2433 C2421 0.929 . S
H2434 C2422 0.960 . S
H2435 C2422 0.962 . S
H2436 C2422 0.960 . S
H2437 C2423 0.961 . S
H2438 C2423 0.961 . S
H2439 C2423 0.961 . S
H2440 C2424 0.931 . S
H2441 C2429 0.930 . S
H2442 C2430 0.956 . S
H2443 C2430 0.961 . S
H2444 C2430 0.961 . S
H2445 C2431 0.958 . S
H2446 C2431 0.961 . S
H2447 C2431 0.960 . S
C2448 C2449 1.391 . S
C2448 C2450 1.394 . S
C2448 H2464 0.931 . S
C2449 C2448 1.391 . S
C2449 C2453 1.376 . S
C2450 C2448 1.394 . S
C2450 C2451 1.369 . S
C2450 C2454 1.531 . S
C2451 C2450 1.369 . S
C2451 C2452 1.410 . S
C2451 C2459 1.503 . S
C2452 C2451 1.410 . S
C2452 C2453 1.392 . S
C2452 C2455 1.511 . S
C2453 C2449 1.376 . S
C2453 C2452 1.392 . S
C2453 H2465 0.929 . S
C2454 C2450 1.531 . S
C2454 H2466 0.960 . S
C2454 H2467 0.962 . S
C2454 H2468 0.960 . S
C2455 C2452 1.511 . S
C2455 H2469 0.961 . S
C2455 H2470 0.961 . S
C2455 H2471 0.961 . S
C2456 C2457 1.370 . S
C2456 C2458 1.363 . S
C2456 H2472 0.931 . S
C2457 C2456 1.370 . S
C2457 C2461 1.408 . S
C2458 C2456 1.363 . S
C2458 C2459 1.370 . S
C2458 C2462 1.524 . S
C2459 C2451 1.503 . S
C2459 C2458 1.370 . S
C2459 C2460 1.403 . S
C2460 C2459 1.403 . S
C2460 C2461 1.404 . S
C2460 C2463 1.539 . S
C2461 C2457 1.408 . S
C2461 C2460 1.404 . S
C2461 H2473 0.930 . S
C2462 C2458 1.524 . S
C2462 H2474 0.956 . S
C2462 H2475 0.961 . S
C2462 H2476 0.961 . S
C2463 C2460 1.539 . S
C2463 H2477 0.958 . S
C2463 H2478 0.961 . S
C2463 H2479 0.960 . S
H2464 C2448 0.931 . S
H2465 C2453 0.929 . S
H2466 C2454 0.960 . S
H2467 C2454 0.962 . S
H2468 C2454 0.960 . S
H2469 C2455 0.961 . S
H2470 C2455 0.961 . S
H2471 C2455 0.961 . S
H2472 C2456 0.931 . S
H2473 C2461 0.930 . S
H2474 C2462 0.956 . S
H2475 C2462 0.961 . S
H2476 C2462 0.961 . S
H2477 C2463 0.958 . S
H2478 C2463 0.961 . S
H2479 C2463 0.960 . S
C2480 C2481 1.391 . S
C2480 C2482 1.394 . S
C2480 H2496 0.931 . S
C2481 C2480 1.391 . S
C2481 C2485 1.376 . S
C2482 C2480 1.394 . S
C2482 C2483 1.369 . S
C2482 C2486 1.531 . S
C2483 C2482 1.369 . S
C2483 C2484 1.410 . S
C2483 C2491 1.503 . S
C2484 C2483 1.410 . S
C2484 C2485 1.392 . S
C2484 C2487 1.511 . S
C2485 C2481 1.376 . S
C2485 C2484 1.392 . S
C2485 H2497 0.929 . S
C2486 C2482 1.531 . S
C2486 H2498 0.960 . S
C2486 H2499 0.962 . S
C2486 H2500 0.960 . S
C2487 C2484 1.511 . S
C2487 H2501 0.961 . S
C2487 H2502 0.961 . S
C2487 H2503 0.961 . S
C2488 C2489 1.370 . S
C2488 C2490 1.363 . S
C2488 H2504 0.931 . S
C2489 C2488 1.370 . S
C2489 C2493 1.408 . S
C2490 C2488 1.363 . S
C2490 C2491 1.370 . S
C2490 C2494 1.524 . S
C2491 C2483 1.503 . S
C2491 C2490 1.370 . S
C2491 C2492 1.403 . S
C2492 C2491 1.403 . S
C2492 C2493 1.404 . S
C2492 C2495 1.539 . S
C2493 C2489 1.408 . S
C2493 C2492 1.404 . S
C2493 H2505 0.930 . S
C2494 C2490 1.524 . S
C2494 H2506 0.956 . S
C2494 H2507 0.961 . S
C2494 H2508 0.961 . S
C2495 C2492 1.539 . S
C2495 H2509 0.958 . S
C2495 H2510 0.961 . S
C2495 H2511 0.960 . S
H2496 C2480 0.931 . S
H2497 C2485 0.929 . S
H2498 C2486 0.960 . S
H2499 C2486 0.962 . S
H2500 C2486 0.960 . S
H2501 C2487 0.961 . S
H2502 C2487 0.961 . S
H2503 C2487 0.961 . S
H2504 C2488 0.931 . S
H2505 C2493 0.930 . S
H2506 C2494 0.956 . S
H2507 C2494 0.961 . S
H2508 C2494 0.961 . S
H2509 C2495 0.958 . S
H2510 C2495 0.961 . S
H2511 C2495 0.960 . S
C2512 C2513 1.391 . S
C2512 C2514 1.394 . S
C2512 H2528 0.931 . S
C2513 C2512 1.391 . S
C2513 C2517 1.376 . S
C2514 C2512 1.394 . S
C2514 C2515 1.369 . S
C2514 C2518 1.531 . S
C2515 C2514 1.369 . S
C2515 C2516 1.410 . S
C2515 C2523 1.503 . S
C2516 C2515 1.410 . S
C2516 C2517 1.392 . S
C2516 C2519 1.511 . S
C2517 C2513 1.376 . S
C2517 C2516 1.392 . S
C2517 H2529 0.929 . S
C2518 C2514 1.531 . S
C2518 H2530 0.960 . S
C2518 H2531 0.962 . S
C2518 H2532 0.960 . S
C2519 C2516 1.511 . S
C2519 H2533 0.961 . S
C2519 H2534 0.961 . S
C2519 H2535 0.961 . S
C2520 C2521 1.370 . S
C2520 C2522 1.363 . S
C2520 H2536 0.931 . S
C2521 C2520 1.370 . S
C2521 C2525 1.408 . S
C2522 C2520 1.363 . S
C2522 C2523 1.370 . S
C2522 C2526 1.524 . S
C2523 C2515 1.503 . S
C2523 C2522 1.370 . S
C2523 C2524 1.403 . S
C2524 C2523 1.403 . S
C2524 C2525 1.404 . S
C2524 C2527 1.539 . S
C2525 C2521 1.408 . S
C2525 C2524 1.404 . S
C2525 H2537 0.930 . S
C2526 C2522 1.524 . S
C2526 H2538 0.956 . S
C2526 H2539 0.961 . S
C2526 H2540 0.961 . S
C2527 C2524 1.539 . S
C2527 H2541 0.958 . S
C2527 H2542 0.961 . S
C2527 H2543 0.960 . S
H2528 C2512 0.931 . S
H2529 C2517 0.929 . S
H2530 C2518 0.960 . S
H2531 C2518 0.962 . S
H2532 C2518 0.960 . S
H2533 C2519 0.961 . S
H2534 C2519 0.961 . S
H2535 C2519 0.961 . S
H2536 C2520 0.931 . S
H2537 C2525 0.930 . S
H2538 C2526 0.956 . S
H2539 C2526 0.961 . S
H2540 C2526 0.961 . S
H2541 C2527 0.958 . S
H2542 C2527 0.961 . S
H2543 C2527 0.960 . S
C2544 C2545 1.391 . S
C2544 C2546 1.394 . S
C2544 H2560 0.931 . S
C2545 C2544 1.391 . S
C2545 C2549 1.376 . S
C2546 C2544 1.394 . S
C2546 C2547 1.369 . S
C2546 C2550 1.531 . S
C2547 C2546 1.369 . S
C2547 C2548 1.410 . S
C2547 C2555 1.503 . S
C2548 C2547 1.410 . S
C2548 C2549 1.392 . S
C2548 C2551 1.511 . S
C2549 C2545 1.376 . S
C2549 C2548 1.392 . S
C2549 H2561 0.929 . S
C2550 C2546 1.531 . S
C2550 H2562 0.960 . S
C2550 H2563 0.962 . S
C2550 H2564 0.960 . S
C2551 C2548 1.511 . S
C2551 H2565 0.961 . S
C2551 H2566 0.961 . S
C2551 H2567 0.961 . S
C2552 C2553 1.370 . S
C2552 C2554 1.363 . S
C2552 H2568 0.931 . S
C2553 C2552 1.370 . S
C2553 C2557 1.408 . S
C2554 C2552 1.363 . S
C2554 C2555 1.370 . S
C2554 C2558 1.524 . S
C2555 C2547 1.503 . S
C2555 C2554 1.370 . S
C2555 C2556 1.403 . S
C2556 C2555 1.403 . S
C2556 C2557 1.404 . S
C2556 C2559 1.539 . S
C2557 C2553 1.408 . S
C2557 C2556 1.404 . S
C2557 H2569 0.930 . S
C2558 C2554 1.524 . S
C2558 H2570 0.956 . S
C2558 H2571 0.961 . S
C2558 H2572 0.961 . S
C2559 C2556 1.539 . S
C2559 H2573 0.958 . S
C2559 H2574 0.961 . S
C2559 H2575 0.960 . S
H2560 C2544 0.931 . S
H2561 C2549 0.929 . S
H2562 C2550 0.960 . S
H2563 C2550 0.962 . S
H2564 C2550 0.960 . S
H2565 C2551 0.961 . S
H2566 C2551 0.961 . S
H2567 C2551 0.961 . S
H2568 C2552 0.931 . S
H2569 C2557 0.930 . S
H2570 C2558 0.956 . S
H2571 C2558 0.961 . S
H2572 C2558 0.961 . S
H2573 C2559 0.958 . S
H2574 C2559 0.961 . S
H2575 C2559 0.960 . S
C2576 C2577 1.391 . S
C2576 C2578 1.394 . S
C2576 H2592 0.931 . S
C2577 C2576 1.391 . S
C2577 C2581 1.376 . S
C2578 C2576 1.394 . S
C2578 C2579 1.369 . S
C2578 C2582 1.531 . S
C2579 C2578 1.369 . S
C2579 C2580 1.410 . S
C2579 C2587 1.503 . S
C2580 C2579 1.410 . S
C2580 C2581 1.392 . S
C2580 C2583 1.511 . S
C2581 C2577 1.376 . S
C2581 C2580 1.392 . S
C2581 H2593 0.929 . S
C2582 C2578 1.531 . S
C2582 H2594 0.960 . S
C2582 H2595 0.962 1_455 S
C2582 H2596 0.960 . S
C2583 C2580 1.511 . S
C2583 H2597 0.961 . S
C2583 H2598 0.961 . S
C2583 H2599 0.961 . S
C2584 C2585 1.370 . S
C2584 C2586 1.363 . S
C2584 H2600 0.931 . S
C2585 C2584 1.370 . S
C2585 C2589 1.408 . S
C2586 C2584 1.363 . S
C2586 C2587 1.370 . S
C2586 C2590 1.524 . S
C2587 C2579 1.503 . S
C2587 C2586 1.370 . S
C2587 C2588 1.403 . S
C2588 C2587 1.403 . S
C2588 C2589 1.404 . S
C2588 C2591 1.539 . S
C2589 C2585 1.408 . S
C2589 C2588 1.404 . S
C2589 H2601 0.930 . S
C2590 C2586 1.524 . S
C2590 H2602 0.954 . S
C2590 H2603 0.961 . S
C2590 H2604 0.961 . S
C2591 C2588 1.539 . S
C2591 H2605 0.958 . S
C2591 H2606 0.961 . S
C2591 H2607 0.960 . S
H2592 C2576 0.931 . S
H2593 C2581 0.929 . S
H2594 C2582 0.960 . S
H2595 C2582 0.962 1_655 S
H2596 C2582 0.960 . S
H2597 C2583 0.961 . S
H2598 C2583 0.961 . S
H2599 C2583 0.961 . S
H2600 C2584 0.931 . S
H2601 C2589 0.930 . S
H2602 C2590 0.954 . S
H2603 C2590 0.961 . S
H2604 C2590 0.961 . S
H2605 C2591 0.958 . S
H2606 C2591 0.961 . S
H2607 C2591 0.960 . S
C2608 C2609 1.391 . S
C2608 C2610 1.394 . S
C2608 H2624 0.931 . S
C2609 C2608 1.391 . S
C2609 C2613 1.376 . S
C2610 C2608 1.394 . S
C2610 C2611 1.369 . S
C2610 C2614 1.531 . S
C2611 C2610 1.369 . S
C2611 C2612 1.410 . S
C2611 C2619 1.503 . S
C2612 C2611 1.410 . S
C2612 C2613 1.392 . S
C2612 C2615 1.511 . S
C2613 C2609 1.376 . S
C2613 C2612 1.392 . S
C2613 H2625 0.929 . S
C2614 C2610 1.531 . S
C2614 H2626 0.960 . S
C2614 H2627 0.962 . S
C2614 H2628 0.960 . S
C2615 C2612 1.511 . S
C2615 H2629 0.961 . S
C2615 H2630 0.961 . S
C2615 H2631 0.961 . S
C2616 C2617 1.370 . S
C2616 C2618 1.363 . S
C2616 H2632 0.931 . S
C2617 C2616 1.370 . S
C2617 C2621 1.408 . S
C2618 C2616 1.363 . S
C2618 C2619 1.370 . S
C2618 C2622 1.524 . S
C2619 C2611 1.503 . S
C2619 C2618 1.370 . S
C2619 C2620 1.403 . S
C2620 C2619 1.403 . S
C2620 C2621 1.404 . S
C2620 C2623 1.539 . S
C2621 C2617 1.408 . S
C2621 C2620 1.404 . S
C2621 H2633 0.930 . S
C2622 C2618 1.524 . S
C2622 H2634 0.956 . S
C2622 H2635 0.961 . S
C2622 H2636 0.961 . S
C2623 C2620 1.539 . S
C2623 H2637 0.958 . S
C2623 H2638 0.961 . S
C2623 H2639 0.960 . S
H2624 C2608 0.931 . S
H2625 C2613 0.929 . S
H2626 C2614 0.960 . S
H2627 C2614 0.962 . S
H2628 C2614 0.960 . S
H2629 C2615 0.961 . S
H2630 C2615 0.961 . S
H2631 C2615 0.961 . S
H2632 C2616 0.931 . S
H2633 C2621 0.930 . S
H2634 C2622 0.956 . S
H2635 C2622 0.961 . S
H2636 C2622 0.961 . S
H2637 C2623 0.958 . S
H2638 C2623 0.961 . S
H2639 C2623 0.960 . S
C2640 C2641 1.391 . S
C2640 C2642 1.394 . S
C2640 H2656 0.931 . S
C2641 C2640 1.391 . S
C2641 C2645 1.376 . S
C2642 C2640 1.394 . S
C2642 C2643 1.369 . S
C2642 C2646 1.531 . S
C2643 C2642 1.369 . S
C2643 C2644 1.410 . S
C2643 C2651 1.503 . S
C2644 C2643 1.410 . S
C2644 C2645 1.392 . S
C2644 C2647 1.511 . S
C2645 C2641 1.376 . S
C2645 C2644 1.392 . S
C2645 H2657 0.929 . S
C2646 C2642 1.531 . S
C2646 H2658 0.960 . S
C2646 H2659 0.962 . S
C2646 H2660 0.960 . S
C2647 C2644 1.511 . S
C2647 H2661 0.961 . S
C2647 H2662 0.961 . S
C2647 H2663 0.961 . S
C2648 C2649 1.372 . S
C2648 C2650 1.373 . S
C2648 H2664 0.919 1_556 S
C2649 C2648 1.372 . S
C2649 C2653 1.408 . S
C2650 C2648 1.373 . S
C2650 C2651 1.370 . S
C2650 C2654 1.524 . S
C2651 C2643 1.503 . S
C2651 C2650 1.370 . S
C2651 C2652 1.403 . S
C2652 C2651 1.403 . S
C2652 C2653 1.404 . S
C2652 C2655 1.539 . S
C2653 C2649 1.408 . S
C2653 C2652 1.404 . S
C2653 H2665 0.930 . S
C2654 C2650 1.524 . S
C2654 H2666 0.956 . S
C2654 H2667 0.961 . S
C2654 H2668 0.961 1_556 S
C2655 C2652 1.539 . S
C2655 H2669 0.958 . S
C2655 H2670 0.961 . S
C2655 H2671 0.960 . S
H2656 C2640 0.931 . S
H2657 C2645 0.929 . S
H2658 C2646 0.960 . S
H2659 C2646 0.962 . S
H2660 C2646 0.960 . S
H2661 C2647 0.961 . S
H2662 C2647 0.961 . S
H2663 C2647 0.961 . S
H2664 C2648 0.919 1_554 S
H2665 C2653 0.930 . S
H2666 C2654 0.956 . S
H2667 C2654 0.961 . S
H2668 C2654 0.961 1_554 S
H2669 C2655 0.958 . S
H2670 C2655 0.961 . S
H2671 C2655 0.960 . S
C2672 C2673 1.391 . S
C2672 C2674 1.394 . S
C2672 H2688 0.931 . S
C2673 C2672 1.391 . S
C2673 C2677 1.376 . S
C2674 C2672 1.394 . S
C2674 C2675 1.369 . S
C2674 C2678 1.531 . S
C2675 C2674 1.369 . S
C2675 C2676 1.410 . S
C2675 C2683 1.503 . S
C2676 C2675 1.410 . S
C2676 C2677 1.392 . S
C2676 C2679 1.511 . S
C2677 C2673 1.376 . S
C2677 C2676 1.392 . S
C2677 H2689 0.929 . S
C2678 C2674 1.531 . S
C2678 H2690 0.960 . S
C2678 H2691 0.962 . S
C2678 H2692 0.960 . S
C2679 C2676 1.511 . S
C2679 H2693 0.961 . S
C2679 H2694 0.961 . S
C2679 H2695 0.961 . S
C2680 C2681 1.370 . S
C2680 C2682 1.363 . S
C2680 H2696 0.931 . S
C2681 C2680 1.370 . S
C2681 C2685 1.408 . S
C2682 C2680 1.363 . S
C2682 C2683 1.370 . S
C2682 C2686 1.524 . S
C2683 C2675 1.503 . S
C2683 C2682 1.370 . S
C2683 C2684 1.403 . S
C2684 C2683 1.403 . S
C2684 C2685 1.404 . S
C2684 C2687 1.539 . S
C2685 C2681 1.408 . S
C2685 C2684 1.404 . S
C2685 H2697 0.930 . S
C2686 C2682 1.524 . S
C2686 H2698 0.956 . S
C2686 H2699 0.961 . S
C2686 H2700 0.961 . S
C2687 C2684 1.539 . S
C2687 H2701 0.958 . S
C2687 H2702 0.961 . S
C2687 H2703 0.960 . S
H2688 C2672 0.931 . S
H2689 C2677 0.929 . S
H2690 C2678 0.960 . S
H2691 C2678 0.962 . S
H2692 C2678 0.960 . S
H2693 C2679 0.961 . S
H2694 C2679 0.961 . S
H2695 C2679 0.961 . S
H2696 C2680 0.931 . S
H2697 C2685 0.930 . S
H2698 C2686 0.956 . S
H2699 C2686 0.961 . S
H2700 C2686 0.961 . S
H2701 C2687 0.958 . S
H2702 C2687 0.961 . S
H2703 C2687 0.960 . S
C2704 C2705 1.391 . S
C2704 C2706 1.394 . S
C2704 H2720 0.931 . S
C2705 C2704 1.391 . S
C2705 C2709 1.376 . S
C2706 C2704 1.394 . S
C2706 C2707 1.369 . S
C2706 C2710 1.531 . S
C2707 C2706 1.369 . S
C2707 C2708 1.410 . S
C2707 C2715 1.503 . S
C2708 C2707 1.410 . S
C2708 C2709 1.392 . S
C2708 C2711 1.511 . S
C2709 C2705 1.376 . S
C2709 C2708 1.392 . S
C2709 H2721 0.929 . S
C2710 C2706 1.531 . S
C2710 H2722 0.960 . S
C2710 H2723 0.962 . S
C2710 H2724 0.960 . S
C2711 C2708 1.511 . S
C2711 H2725 0.961 . S
C2711 H2726 0.961 . S
C2711 H2727 0.961 . S
C2712 C2713 1.370 . S
C2712 C2714 1.363 . S
C2712 H2728 0.931 . S
C2713 C2712 1.370 . S
C2713 C2717 1.408 . S
C2714 C2712 1.363 . S
C2714 C2715 1.370 . S
C2714 C2718 1.524 . S
C2715 C2707 1.503 . S
C2715 C2714 1.370 . S
C2715 C2716 1.403 . S
C2716 C2715 1.403 . S
C2716 C2717 1.404 . S
C2716 C2719 1.539 1_545 S
C2717 C2713 1.408 . S
C2717 C2716 1.404 . S
C2717 H2729 0.930 . S
C2718 C2714 1.524 . S
C2718 H2730 0.956 . S
C2718 H2731 0.961 . S
C2718 H2732 0.961 . S
C2719 C2716 1.539 1_565 S
C2719 H2733 0.958 . S
C2719 H2734 0.961 . S
C2719 H2735 0.960 1_565 S
H2720 C2704 0.931 . S
H2721 C2709 0.929 . S
H2722 C2710 0.960 . S
H2723 C2710 0.962 . S
H2724 C2710 0.960 . S
H2725 C2711 0.961 . S
H2726 C2711 0.961 . S
H2727 C2711 0.961 . S
H2728 C2712 0.931 . S
H2729 C2717 0.930 . S
H2730 C2718 0.956 . S
H2731 C2718 0.961 . S
H2732 C2718 0.961 . S
H2733 C2719 0.958 . S
H2734 C2719 0.961 . S
H2735 C2719 0.960 1_545 S
C2736 C2737 1.391 . S
C2736 C2738 1.394 . S
C2736 H2752 0.931 . S
C2737 C2736 1.391 . S
C2737 C2741 1.376 . S
C2738 C2736 1.394 . S
C2738 C2739 1.369 . S
C2738 C2742 1.531 . S
C2739 C2738 1.369 . S
C2739 C2740 1.410 . S
C2739 C2747 1.503 . S
C2740 C2739 1.410 . S
C2740 C2741 1.392 . S
C2740 C2743 1.511 . S
C2741 C2737 1.376 . S
C2741 C2740 1.392 . S
C2741 H2753 0.929 . S
C2742 C2738 1.531 . S
C2742 H2754 0.960 . S
C2742 H2755 0.962 . S
C2742 H2756 0.960 . S
C2743 C2740 1.511 . S
C2743 H2757 0.961 . S
C2743 H2758 0.961 . S
C2743 H2759 0.961 . S
C2744 C2745 1.370 . S
C2744 C2746 1.363 . S
C2744 H2760 0.931 . S
C2745 C2744 1.370 . S
C2745 C2749 1.408 . S
C2746 C2744 1.363 . S
C2746 C2747 1.370 . S
C2746 C2750 1.524 . S
C2747 C2739 1.503 . S
C2747 C2746 1.370 . S
C2747 C2748 1.403 . S
C2748 C2747 1.403 . S
C2748 C2749 1.404 . S
C2748 C2751 1.539 . S
C2749 C2745 1.408 . S
C2749 C2748 1.404 . S
C2749 H2761 0.930 . S
C2750 C2746 1.524 . S
C2750 H2762 0.956 . S
C2750 H2763 0.961 . S
C2750 H2764 0.961 . S
C2751 C2748 1.539 . S
C2751 H2765 0.958 . S
C2751 H2766 0.961 . S
C2751 H2767 0.960 . S
H2752 C2736 0.931 . S
H2753 C2741 0.929 . S
H2754 C2742 0.960 . S
H2755 C2742 0.962 . S
H2756 C2742 0.960 . S
H2757 C2743 0.961 . S
H2758 C2743 0.961 . S
H2759 C2743 0.961 . S
H2760 C2744 0.931 . S
H2761 C2749 0.930 . S
H2762 C2750 0.956 . S
H2763 C2750 0.961 . S
H2764 C2750 0.961 . S
H2765 C2751 0.958 . S
H2766 C2751 0.961 . S
H2767 C2751 0.960 . S
C2768 C2769 1.391 . S
C2768 C2770 1.394 . S
C2768 H2784 0.931 . S
C2769 C2768 1.391 . S
C2769 C2773 1.376 . S
C2770 C2768 1.394 . S
C2770 C2771 1.369 . S
C2770 C2774 1.531 . S
C2771 C2770 1.369 . S
C2771 C2772 1.410 . S
C2771 C2779 1.503 . S
C2772 C2771 1.410 . S
C2772 C2773 1.392 . S
C2772 C2775 1.511 . S
C2773 C2769 1.376 . S
C2773 C2772 1.392 . S
C2773 H2785 0.929 . S
C2774 C2770 1.531 . S
C2774 H2786 0.960 . S
C2774 H2787 0.962 . S
C2774 H2788 0.960 . S
C2775 C2772 1.511 . S
C2775 H2789 0.961 1_545 S
C2775 H2790 0.961 . S
C2775 H2791 0.961 . S
C2776 C2777 1.370 . S
C2776 C2778 1.363 . S
C2776 H2792 0.943 . S
C2777 C2776 1.370 . S
C2777 C2781 1.408 . S
C2778 C2776 1.363 . S
C2778 C2779 1.370 . S
C2778 C2782 1.524 1_545 S
C2779 C2771 1.503 . S
C2779 C2778 1.370 . S
C2779 C2780 1.403 . S
C2780 C2779 1.403 . S
C2780 C2781 1.404 . S
C2780 C2783 1.539 . S
C2781 C2777 1.408 . S
C2781 C2780 1.404 . S
C2781 H2793 0.930 . S
C2782 C2778 1.524 1_565 S
C2782 H2794 0.956 . S
C2782 H2795 0.961 . S
C2782 H2796 0.961 . S
C2783 C2780 1.539 . S
C2783 H2797 0.958 . S
C2783 H2798 0.961 . S
C2783 H2799 0.960 . S
H2784 C2768 0.931 . S
H2785 C2773 0.929 . S
H2786 C2774 0.960 . S
H2787 C2774 0.962 . S
H2788 C2774 0.960 . S
H2789 C2775 0.961 1_565 S
H2790 C2775 0.961 . S
H2791 C2775 0.961 . S
H2792 C2776 0.943 . S
H2793 C2781 0.930 . S
H2794 C2782 0.956 . S
H2795 C2782 0.961 . S
H2796 C2782 0.961 . S
H2797 C2783 0.958 . S
H2798 C2783 0.961 . S
H2799 C2783 0.960 . S
C2800 C2801 1.391 . S
C2800 C2802 1.394 . S
C2800 H2816 0.931 . S
C2801 C2800 1.391 . S
C2801 C2805 1.376 . S
C2802 C2800 1.394 . S
C2802 C2803 1.369 . S
C2802 C2806 1.531 . S
C2803 C2802 1.369 . S
C2803 C2804 1.410 . S
C2803 C2811 1.503 . S
C2804 C2803 1.410 . S
C2804 C2805 1.392 . S
C2804 C2807 1.511 . S
C2805 C2801 1.376 . S
C2805 C2804 1.392 . S
C2805 H2817 0.929 . S
C2806 C2802 1.531 . S
C2806 H2818 0.960 . S
C2806 H2819 0.962 . S
C2806 H2820 0.960 . S
C2807 C2804 1.511 . S
C2807 H2821 0.961 . S
C2807 H2822 0.961 . S
C2807 H2823 0.961 . S
C2808 C2809 1.370 . S
C2808 C2810 1.363 . S
C2808 H2824 0.931 . S
C2809 C2808 1.370 . S
C2809 C2813 1.408 . S
C2810 C2808 1.363 . S
C2810 C2811 1.370 . S
C2810 C2814 1.524 . S
C2811 C2803 1.503 . S
C2811 C2810 1.370 . S
C2811 C2812 1.403 . S
C2812 C2811 1.403 . S
C2812 C2813 1.404 . S
C2812 C2815 1.539 . S
C2813 C2809 1.408 . S
C2813 C2812 1.404 . S
C2813 H2825 0.930 . S
C2814 C2810 1.524 . S
C2814 H2826 0.956 . S
C2814 H2827 0.961 . S
C2814 H2828 0.961 . S
C2815 C2812 1.539 . S
C2815 H2829 0.958 . S
C2815 H2830 0.961 . S
C2815 H2831 0.960 . S
H2816 C2800 0.931 . S
H2817 C2805 0.929 . S
H2818 C2806 0.960 . S
H2819 C2806 0.962 . S
H2820 C2806 0.960 . S
H2821 C2807 0.961 . S
H2822 C2807 0.961 . S
H2823 C2807 0.961 . S
H2824 C2808 0.931 . S
H2825 C2813 0.930 . S
H2826 C2814 0.956 . S
H2827 C2814 0.961 . S
H2828 C2814 0.961 . S
H2829 C2815 0.958 . S
H2830 C2815 0.961 . S
H2831 C2815 0.960 . S
C2832 C2833 1.391 . S
C2832 C2834 1.394 . S
C2832 H2848 0.931 . S
C2833 C2832 1.391 . S
C2833 C2837 1.376 . S
C2834 C2832 1.394 . S
C2834 C2835 1.369 . S
C2834 C2838 1.531 . S
C2835 C2834 1.369 . S
C2835 C2836 1.410 . S
C2835 C2843 1.503 . S
C2836 C2835 1.410 . S
C2836 C2837 1.392 . S
C2836 C2839 1.511 . S
C2837 C2833 1.376 . S
C2837 C2836 1.392 . S
C2837 H2849 0.929 . S
C2838 C2834 1.531 . S
C2838 H2850 0.960 . S
C2838 H2851 0.962 . S
C2838 H2852 0.960 . S
C2839 C2836 1.511 . S
C2839 H2853 0.961 . S
C2839 H2854 0.961 . S
C2839 H2855 0.961 . S
C2840 C2841 1.370 . S
C2840 C2842 1.363 . S
C2840 H2856 0.931 . S
C2841 C2840 1.370 . S
C2841 C2845 1.408 . S
C2842 C2840 1.363 . S
C2842 C2843 1.370 . S
C2842 C2846 1.563 . S
C2843 C2835 1.503 . S
C2843 C2842 1.370 . S
C2843 C2844 1.403 . S
C2844 C2843 1.403 . S
C2844 C2845 1.404 . S
C2844 C2847 1.539 . S
C2845 C2841 1.408 . S
C2845 C2844 1.404 . S
C2845 H2857 0.930 . S
C2846 C2842 1.563 . S
C2846 H2858 0.957 . S
C2846 H2859 0.950 . S
C2846 H2860 0.933 1_545 S
C2847 C2844 1.539 . S
C2847 H2861 0.958 . S
C2847 H2862 0.961 . S
C2847 H2863 0.960 . S
H2848 C2832 0.931 . S
H2849 C2837 0.929 . S
H2850 C2838 0.960 . S
H2851 C2838 0.962 . S
H2852 C2838 0.960 . S
H2853 C2839 0.961 . S
H2854 C2839 0.961 . S
H2855 C2839 0.961 . S
H2856 C2840 0.931 . S
H2857 C2845 0.930 . S
H2858 C2846 0.957 . S
H2859 C2846 0.950 . S
H2860 C2846 0.933 1_565 S
H2861 C2847 0.958 . S
H2862 C2847 0.961 . S
H2863 C2847 0.960 . S
C2864 C2865 1.391 . S
C2864 C2866 1.394 . S
C2864 H2880 0.931 . S
C2865 C2864 1.391 . S
C2865 C2869 1.376 . S
C2866 C2864 1.394 . S
C2866 C2867 1.369 . S
C2866 C2870 1.531 . S
C2867 C2866 1.369 . S
C2867 C2868 1.410 . S
C2867 C2875 1.503 . S
C2868 C2867 1.410 . S
C2868 C2869 1.392 . S
C2868 C2871 1.511 . S
C2869 C2865 1.376 . S
C2869 C2868 1.392 . S
C2869 H2881 0.929 . S
C2870 C2866 1.531 . S
C2870 H2882 0.960 . S
C2870 H2883 0.962 . S
C2870 H2884 0.960 . S
C2871 C2868 1.511 . S
C2871 H2885 0.961 . S
C2871 H2886 0.961 . S
C2871 H2887 0.961 . S
C2872 C2873 1.370 . S
C2872 C2874 1.363 . S
C2872 H2888 0.931 . S
C2873 C2872 1.370 . S
C2873 C2877 1.408 . S
C2874 C2872 1.363 . S
C2874 C2875 1.370 . S
C2874 C2878 1.524 . S
C2875 C2867 1.503 . S
C2875 C2874 1.370 . S
C2875 C2876 1.403 . S
C2876 C2875 1.403 . S
C2876 C2877 1.404 . S
C2876 C2879 1.539 . S
C2877 C2873 1.408 . S
C2877 C2876 1.404 . S
C2877 H2889 0.930 . S
C2878 C2874 1.524 . S
C2878 H2890 0.956 . S
C2878 H2891 0.961 . S
C2878 H2892 0.961 . S
C2879 C2876 1.539 . S
C2879 H2893 0.958 . S
C2879 H2894 0.961 . S
C2879 H2895 0.960 . S
H2880 C2864 0.931 . S
H2881 C2869 0.929 . S
H2882 C2870 0.960 . S
H2883 C2870 0.962 . S
H2884 C2870 0.960 . S
H2885 C2871 0.961 . S
H2886 C2871 0.961 . S
H2887 C2871 0.961 . S
H2888 C2872 0.931 . S
H2889 C2877 0.930 . S
H2890 C2878 0.956 . S
H2891 C2878 0.961 . S
H2892 C2878 0.961 . S
H2893 C2879 0.958 . S
H2894 C2879 0.961 . S
H2895 C2879 0.960 . S
C2896 C2897 1.391 . S
C2896 C2898 1.394 . S
C2896 H2912 0.931 . S
C2897 C2896 1.391 . S
C2897 C2901 1.376 . S
C2898 C2896 1.394 . S
C2898 C2899 1.369 . S
C2898 C2902 1.545 . S
C2899 C2898 1.369 . S
C2899 C2900 1.410 . S
C2899 C2907 1.503 . S
C2900 C2899 1.410 . S
C2900 C2901 1.392 . S
C2900 C2903 1.511 . S
C2901 C2897 1.376 . S
C2901 C2900 1.392 . S
C2901 H2913 0.929 . S
C2902 C2898 1.545 . S
C2902 H2914 0.941 1_545 S
C2902 H2915 0.997 . S
C2902 H2916 0.932 1_545 S
C2903 C2900 1.511 . S
C2903 H2917 0.961 . S
C2903 H2918 0.961 . S
C2903 H2919 0.961 1_545 S
C2904 C2905 1.370 . S
C2904 C2906 1.363 . S
C2904 H2920 0.931 . S
C2905 C2904 1.370 . S
C2905 C2909 1.408 1_545 S
C2906 C2904 1.363 . S
C2906 C2907 1.370 . S
C2906 C2910 1.524 . S
C2907 C2899 1.503 . S
C2907 C2906 1.370 . S
C2907 C2908 1.403 1_545 S
C2908 C2907 1.403 1_565 S
C2908 C2909 1.404 . S
C2908 C2911 1.539 . S
C2909 C2905 1.408 1_565 S
C2909 C2908 1.404 . S
C2909 H2921 0.930 . S
C2910 C2906 1.524 . S
C2910 H2922 0.956 . S
C2910 H2923 0.961 . S
C2910 H2924 0.961 . S
C2911 C2908 1.539 . S
C2911 H2925 0.958 . S
C2911 H2926 0.961 . S
C2911 H2927 0.960 . S
H2912 C2896 0.931 . S
H2913 C2901 0.929 . S
H2914 C2902 0.941 1_565 S
H2915 C2902 0.997 . S
H2916 C2902 0.932 1_565 S
H2917 C2903 0.961 . S
H2918 C2903 0.961 . S
H2919 C2903 0.961 1_565 S
H2920 C2904 0.931 . S
H2921 C2909 0.930 . S
H2922 C2910 0.956 . S
H2923 C2910 0.961 . S
H2924 C2910 0.961 . S
H2925 C2911 0.958 . S
H2926 C2911 0.961 . S
H2927 C2911 0.960 . S
C2928 C2929 1.391 . S
C2928 C2930 1.394 . S
C2928 H2944 0.931 . S
C2929 C2928 1.391 . S
C2929 C2933 1.376 . S
C2930 C2928 1.394 . S
C2930 C2931 1.369 . S
C2930 C2934 1.531 . S
C2931 C2930 1.369 . S
C2931 C2932 1.410 . S
C2931 C2939 1.503 . S
C2932 C2931 1.410 . S
C2932 C2933 1.392 . S
C2932 C2935 1.511 . S
C2933 C2929 1.376 . S
C2933 C2932 1.392 . S
C2933 H2945 0.929 . S
C2934 C2930 1.531 . S
C2934 H2946 0.960 . S
C2934 H2947 0.962 . S
C2934 H2948 0.960 . S
C2935 C2932 1.511 . S
C2935 H2949 0.961 . S
C2935 H2950 0.961 . S
C2935 H2951 0.961 . S
C2936 C2937 1.370 . S
C2936 C2938 1.363 . S
C2936 H2952 0.931 . S
C2937 C2936 1.370 . S
C2937 C2941 1.408 . S
C2938 C2936 1.363 . S
C2938 C2939 1.370 . S
C2938 C2942 1.524 . S
C2939 C2931 1.503 . S
C2939 C2938 1.370 . S
C2939 C2940 1.403 . S
C2940 C2939 1.403 . S
C2940 C2941 1.404 . S
C2940 C2943 1.539 . S
C2941 C2937 1.408 . S
C2941 C2940 1.404 . S
C2941 H2953 0.930 . S
C2942 C2938 1.524 . S
C2942 H2954 0.956 . S
C2942 H2955 0.961 . S
C2942 H2956 0.961 . S
C2943 C2940 1.539 . S
C2943 H2957 0.958 . S
C2943 H2958 0.961 . S
C2943 H2959 0.960 . S
H2944 C2928 0.931 . S
H2945 C2933 0.929 . S
H2946 C2934 0.960 . S
H2947 C2934 0.962 . S
H2948 C2934 0.960 . S
H2949 C2935 0.961 . S
H2950 C2935 0.961 . S
H2951 C2935 0.961 . S
H2952 C2936 0.931 . S
H2953 C2941 0.930 . S
H2954 C2942 0.956 . S
H2955 C2942 0.961 . S
H2956 C2942 0.961 . S
H2957 C2943 0.958 . S
H2958 C2943 0.961 . S
H2959 C2943 0.960 . S
C2960 C2961 1.391 . S
C2960 C2962 1.394 . S
C2960 H2976 0.931 . S
C2961 C2960 1.391 . S
C2961 C2965 1.376 . S
C2962 C2960 1.394 . S
C2962 C2963 1.369 . S
C2962 C2966 1.531 . S
C2963 C2962 1.369 . S
C2963 C2964 1.410 . S
C2963 C2971 1.503 . S
C2964 C2963 1.410 . S
C2964 C2965 1.392 . S
C2964 C2967 1.511 . S
C2965 C2961 1.376 . S
C2965 C2964 1.392 . S
C2965 H2977 0.929 . S
C2966 C2962 1.531 . S
C2966 H2978 0.960 . S
C2966 H2979 0.962 . S
C2966 H2980 0.960 . S
C2967 C2964 1.511 . S
C2967 H2981 0.961 . S
C2967 H2982 0.961 . S
C2967 H2983 0.961 . S
C2968 C2969 1.370 . S
C2968 C2970 1.363 . S
C2968 H2984 0.931 . S
C2969 C2968 1.370 . S
C2969 C2973 1.408 . S
C2970 C2968 1.363 . S
C2970 C2971 1.370 . S
C2970 C2974 1.524 . S
C2971 C2963 1.503 . S
C2971 C2970 1.370 . S
C2971 C2972 1.403 . S
C2972 C2971 1.403 . S
C2972 C2973 1.404 . S
C2972 C2975 1.539 . S
C2973 C2969 1.408 . S
C2973 C2972 1.404 . S
C2973 H2985 0.930 . S
C2974 C2970 1.524 . S
C2974 H2986 0.956 . S
C2974 H2987 0.961 . S
C2974 H2988 0.961 . S
C2975 C2972 1.539 . S
C2975 H2989 0.958 . S
C2975 H2990 0.961 . S
C2975 H2991 0.960 . S
H2976 C2960 0.931 . S
H2977 C2965 0.929 . S
H2978 C2966 0.960 . S
H2979 C2966 0.962 . S
H2980 C2966 0.960 . S
H2981 C2967 0.961 . S
H2982 C2967 0.961 . S
H2983 C2967 0.961 . S
H2984 C2968 0.931 . S
H2985 C2973 0.930 . S
H2986 C2974 0.956 . S
H2987 C2974 0.961 . S
H2988 C2974 0.961 . S
H2989 C2975 0.958 . S
H2990 C2975 0.961 . S
H2991 C2975 0.960 . S
C2992 C2993 1.391 . S
C2992 C2994 1.394 . S
C2992 H3008 0.931 . S
C2993 C2992 1.391 . S
C2993 C2997 1.376 . S
C2994 C2992 1.394 . S
C2994 C2995 1.369 . S
C2994 C2998 1.531 . S
C2995 C2994 1.369 . S
C2995 C2996 1.410 . S
C2995 C3003 1.503 . S
C2996 C2995 1.410 . S
C2996 C2997 1.392 . S
C2996 C2999 1.511 . S
C2997 C2993 1.376 . S
C2997 C2996 1.392 . S
C2997 H3009 0.929 . S
C2998 C2994 1.531 . S
C2998 H3010 0.960 . S
C2998 H3011 0.962 . S
C2998 H3012 0.960 . S
C2999 C2996 1.511 . S
C2999 H3013 0.961 . S
C2999 H3014 0.961 . S
C2999 H3015 0.961 . S
C3000 C3001 1.370 . S
C3000 C3002 1.363 . S
C3000 H3016 0.931 . S
C3001 C3000 1.370 . S
C3001 C3005 1.408 . S
C3002 C3000 1.363 . S
C3002 C3003 1.370 . S
C3002 C3006 1.524 . S
C3003 C2995 1.503 . S
C3003 C3002 1.370 . S
C3003 C3004 1.403 . S
C3004 C3003 1.403 . S
C3004 C3005 1.404 . S
C3004 C3007 1.539 . S
C3005 C3001 1.408 . S
C3005 C3004 1.404 . S
C3005 H3017 0.930 . S
C3006 C3002 1.524 . S
C3006 H3018 0.956 . S
C3006 H3019 0.961 . S
C3006 H3020 0.961 . S
C3007 C3004 1.539 . S
C3007 H3021 0.958 . S
C3007 H3022 0.961 . S
C3007 H3023 0.960 . S
H3008 C2992 0.931 . S
H3009 C2997 0.929 . S
H3010 C2998 0.960 . S
H3011 C2998 0.962 . S
H3012 C2998 0.960 . S
H3013 C2999 0.961 . S
H3014 C2999 0.961 . S
H3015 C2999 0.961 . S
H3016 C3000 0.931 . S
H3017 C3005 0.930 . S
H3018 C3006 0.956 . S
H3019 C3006 0.961 . S
H3020 C3006 0.961 . S
H3021 C3007 0.958 . S
H3022 C3007 0.961 . S
H3023 C3007 0.960 . S
C3024 C3025 1.391 . S
C3024 C3026 1.394 . S
C3024 H3040 0.931 . S
C3025 C3024 1.391 . S
C3025 C3029 1.376 . S
C3026 C3024 1.394 . S
C3026 C3027 1.369 . S
C3026 C3030 1.531 . S
C3027 C3026 1.369 . S
C3027 C3028 1.410 . S
C3027 C3035 1.503 . S
C3028 C3027 1.410 . S
C3028 C3029 1.392 . S
C3028 C3031 1.511 . S
C3029 C3025 1.376 . S
C3029 C3028 1.392 . S
C3029 H3041 0.929 . S
C3030 C3026 1.531 . S
C3030 H3042 0.960 . S
C3030 H3043 0.962 . S
C3030 H3044 0.960 . S
C3031 C3028 1.511 . S
C3031 H3045 0.961 . S
C3031 H3046 0.961 . S
C3031 H3047 0.961 . S
C3032 C3033 1.370 . S
C3032 C3034 1.363 . S
C3032 H3048 0.931 . S
C3033 C3032 1.370 . S
C3033 C3037 1.408 . S
C3034 C3032 1.363 . S
C3034 C3035 1.370 . S
C3034 C3038 1.524 . S
C3035 C3027 1.503 . S
C3035 C3034 1.370 . S
C3035 C3036 1.403 . S
C3036 C3035 1.403 . S
C3036 C3037 1.404 . S
C3036 C3039 1.539 . S
C3037 C3033 1.408 . S
C3037 C3036 1.404 . S
C3037 H3049 0.930 . S
C3038 C3034 1.524 . S
C3038 H3050 0.956 . S
C3038 H3051 0.961 . S
C3038 H3052 0.961 . S
C3039 C3036 1.539 . S
C3039 H3053 0.958 . S
C3039 H3054 0.961 . S
C3039 H3055 0.960 . S
H3040 C3024 0.931 . S
H3041 C3029 0.929 . S
H3042 C3030 0.960 . S
H3043 C3030 0.962 . S
H3044 C3030 0.960 . S
H3045 C3031 0.961 . S
H3046 C3031 0.961 . S
H3047 C3031 0.961 . S
H3048 C3032 0.931 . S
H3049 C3037 0.930 . S
H3050 C3038 0.956 . S
H3051 C3038 0.961 . S
H3052 C3038 0.961 . S
H3053 C3039 0.958 . S
H3054 C3039 0.961 . S
H3055 C3039 0.960 . S
C3056 C3057 1.391 . S
C3056 C3058 1.394 . S
C3056 H3072 0.931 . S
C3057 C3056 1.391 . S
C3057 C3061 1.376 . S
C3058 C3056 1.394 . S
C3058 C3059 1.369 . S
C3058 C3062 1.531 . S
C3059 C3058 1.369 . S
C3059 C3060 1.410 . S
C3059 C3067 1.503 . S
C3060 C3059 1.410 . S
C3060 C3061 1.392 . S
C3060 C3063 1.511 . S
C3061 C3057 1.376 . S
C3061 C3060 1.392 . S
C3061 H3073 0.929 . S
C3062 C3058 1.531 . S
C3062 H3074 0.960 . S
C3062 H3075 0.962 . S
C3062 H3076 0.960 . S
C3063 C3060 1.511 . S
C3063 H3077 0.961 . S
C3063 H3078 0.961 . S
C3063 H3079 0.961 . S
C3064 C3065 1.370 . S
C3064 C3066 1.363 . S
C3064 H3080 0.931 . S
C3065 C3064 1.370 . S
C3065 C3069 1.408 . S
C3066 C3064 1.363 . S
C3066 C3067 1.370 . S
C3066 C3070 1.524 . S
C3067 C3059 1.503 . S
C3067 C3066 1.370 . S
C3067 C3068 1.403 . S
C3068 C3067 1.403 . S
C3068 C3069 1.404 . S
C3068 C3071 1.539 . S
C3069 C3065 1.408 . S
C3069 C3068 1.404 . S
C3069 H3081 0.930 . S
C3070 C3066 1.524 . S
C3070 H3082 0.956 . S
C3070 H3083 0.961 . S
C3070 H3084 0.961 . S
C3071 C3068 1.539 . S
C3071 H3085 0.958 . S
C3071 H3086 0.961 . S
C3071 H3087 0.960 . S
H3072 C3056 0.931 . S
H3073 C3061 0.929 . S
H3074 C3062 0.960 . S
H3075 C3062 0.962 . S
H3076 C3062 0.960 . S
H3077 C3063 0.961 . S
H3078 C3063 0.961 . S
H3079 C3063 0.961 . S
H3080 C3064 0.931 . S
H3081 C3069 0.930 . S
H3082 C3070 0.956 . S
H3083 C3070 0.961 . S
H3084 C3070 0.961 . S
H3085 C3071 0.958 . S
H3086 C3071 0.961 . S
H3087 C3071 0.960 . S
C3088 C3089 1.391 . S
C3088 C3090 1.394 . S
C3088 H3104 0.931 . S
C3089 C3088 1.391 . S
C3089 C3093 1.376 . S
C3090 C3088 1.394 . S
C3090 C3091 1.369 . S
C3090 C3094 1.531 . S
C3091 C3090 1.369 . S
C3091 C3092 1.410 . S
C3091 C3099 1.503 . S
C3092 C3091 1.410 . S
C3092 C3093 1.392 . S
C3092 C3095 1.511 . S
C3093 C3089 1.376 . S
C3093 C3092 1.392 . S
C3093 H3105 0.929 1_565 S
C3094 C3090 1.531 . S
C3094 H3106 0.960 . S
C3094 H3107 0.962 . S
C3094 H3108 0.960 . S
C3095 C3092 1.511 . S
C3095 H3109 0.961 . S
C3095 H3110 0.961 . S
C3095 H3111 0.961 . S
C3096 C3097 1.370 . S
C3096 C3098 1.363 . S
C3096 H3112 0.931 . S
C3097 C3096 1.370 . S
C3097 C3101 1.408 . S
C3098 C3096 1.363 . S
C3098 C3099 1.370 . S
C3098 C3102 1.524 . S
C3099 C3091 1.503 . S
C3099 C3098 1.370 . S
C3099 C3100 1.403 . S
C3100 C3099 1.403 . S
C3100 C3101 1.404 . S
C3100 C3103 1.539 . S
C3101 C3097 1.408 . S
C3101 C3100 1.404 . S
C3101 H3113 0.930 . S
C3102 C3098 1.524 . S
C3102 H3114 0.956 . S
C3102 H3115 0.961 . S
C3102 H3116 0.961 . S
C3103 C3100 1.539 . S
C3103 H3117 0.958 . S
C3103 H3118 0.961 . S
C3103 H3119 0.960 . S
H3104 C3088 0.931 . S
H3105 C3093 0.929 1_545 S
H3106 C3094 0.960 . S
H3107 C3094 0.962 . S
H3108 C3094 0.960 . S
H3109 C3095 0.961 . S
H3110 C3095 0.961 . S
H3111 C3095 0.961 . S
H3112 C3096 0.931 . S
H3113 C3101 0.930 . S
H3114 C3102 0.956 . S
H3115 C3102 0.961 . S
H3116 C3102 0.961 . S
H3117 C3103 0.958 . S
H3118 C3103 0.961 . S
H3119 C3103 0.960 . S
C3120 C3121 1.391 . S
C3120 C3122 1.394 . S
C3120 H3136 0.931 . S
C3121 C3120 1.391 . S
C3121 C3125 1.376 . S
C3122 C3120 1.394 . S
C3122 C3123 1.369 . S
C3122 C3126 1.531 . S
C3123 C3122 1.369 . S
C3123 C3124 1.410 . S
C3123 C3131 1.503 . S
C3124 C3123 1.410 . S
C3124 C3125 1.392 . S
C3124 C3127 1.511 . S
C3125 C3121 1.376 . S
C3125 C3124 1.392 . S
C3125 H3137 0.929 . S
C3126 C3122 1.531 . S
C3126 H3138 0.960 . S
C3126 H3139 0.962 . S
C3126 H3140 0.960 . S
C3127 C3124 1.511 . S
C3127 H3141 0.961 . S
C3127 H3142 0.961 . S
C3127 H3143 0.961 . S
C3128 C3129 1.370 . S
C3128 C3130 1.363 . S
C3128 H3144 0.931 . S
C3129 C3128 1.370 . S
C3129 C3133 1.408 . S
C3130 C3128 1.363 . S
C3130 C3131 1.370 . S
C3130 C3134 1.524 . S
C3131 C3123 1.503 . S
C3131 C3130 1.370 . S
C3131 C3132 1.403 . S
C3132 C3131 1.403 . S
C3132 C3133 1.404 . S
C3132 C3135 1.539 . S
C3133 C3129 1.408 . S
C3133 C3132 1.404 . S
C3133 H3145 0.930 . S
C3134 C3130 1.524 . S
C3134 H3146 0.956 . S
C3134 H3147 0.961 . S
C3134 H3148 0.961 . S
C3135 C3132 1.539 . S
C3135 H3149 0.958 . S
C3135 H3150 0.961 . S
C3135 H3151 0.960 . S
H3136 C3120 0.931 . S
H3137 C3125 0.929 . S
H3138 C3126 0.960 . S
H3139 C3126 0.962 . S
H3140 C3126 0.960 . S
H3141 C3127 0.961 . S
H3142 C3127 0.961 . S
H3143 C3127 0.961 . S
H3144 C3128 0.931 . S
H3145 C3133 0.930 . S
H3146 C3134 0.956 . S
H3147 C3134 0.961 . S
H3148 C3134 0.961 . S
H3149 C3135 0.958 . S
H3150 C3135 0.961 . S
H3151 C3135 0.960 . S
C3152 C3153 1.391 . S
C3152 C3154 1.394 . S
C3152 H3168 0.931 . S
C3153 C3152 1.391 . S
C3153 C3157 1.376 . S
C3154 C3152 1.394 . S
C3154 C3155 1.369 . S
C3154 C3158 1.531 . S
C3155 C3154 1.369 . S
C3155 C3156 1.410 . S
C3155 C3163 1.503 . S
C3156 C3155 1.410 . S
C3156 C3157 1.392 . S
C3156 C3159 1.511 . S
C3157 C3153 1.376 . S
C3157 C3156 1.392 . S
C3157 H3169 0.929 . S
C3158 C3154 1.531 . S
C3158 H3170 0.960 . S
C3158 H3171 0.962 . S
C3158 H3172 0.960 . S
C3159 C3156 1.511 . S
C3159 H3173 0.961 . S
C3159 H3174 0.961 . S
C3159 H3175 0.961 . S
C3160 C3161 1.370 . S
C3160 C3162 1.363 . S
C3160 H3176 0.931 . S
C3161 C3160 1.370 . S
C3161 C3165 1.408 . S
C3162 C3160 1.363 . S
C3162 C3163 1.370 . S
C3162 C3166 1.524 . S
C3163 C3155 1.503 . S
C3163 C3162 1.370 . S
C3163 C3164 1.403 . S
C3164 C3163 1.403 . S
C3164 C3165 1.404 . S
C3164 C3167 1.539 . S
C3165 C3161 1.408 . S
C3165 C3164 1.404 . S
C3165 H3177 0.930 . S
C3166 C3162 1.524 . S
C3166 H3178 0.956 . S
C3166 H3179 0.961 . S
C3166 H3180 0.961 . S
C3167 C3164 1.539 . S
C3167 H3181 0.958 . S
C3167 H3182 0.961 . S
C3167 H3183 0.960 . S
H3168 C3152 0.931 . S
H3169 C3157 0.929 . S
H3170 C3158 0.960 . S
H3171 C3158 0.962 . S
H3172 C3158 0.960 . S
H3173 C3159 0.961 . S
H3174 C3159 0.961 . S
H3175 C3159 0.961 . S
H3176 C3160 0.931 . S
H3177 C3165 0.930 . S
H3178 C3166 0.956 . S
H3179 C3166 0.961 . S
H3180 C3166 0.961 . S
H3181 C3167 0.958 . S
H3182 C3167 0.961 . S
H3183 C3167 0.960 . S
C3184 C3185 1.391 . S
C3184 C3186 1.394 . S
C3184 H3200 0.931 . S
C3185 C3184 1.391 . S
C3185 C3189 1.376 . S
C3186 C3184 1.394 . S
C3186 C3187 1.369 . S
C3186 C3190 1.531 . S
C3187 C3186 1.369 . S
C3187 C3188 1.410 . S
C3187 C3195 1.503 . S
C3188 C3187 1.410 . S
C3188 C3189 1.392 . S
C3188 C3191 1.511 . S
C3189 C3185 1.376 . S
C3189 C3188 1.392 . S
C3189 H3201 0.929 . S
C3190 C3186 1.531 . S
C3190 H3202 0.960 . S
C3190 H3203 0.962 . S
C3190 H3204 0.960 . S
C3191 C3188 1.511 . S
C3191 H3205 0.961 . S
C3191 H3206 0.961 . S
C3191 H3207 0.961 . S
C3192 C3193 1.370 . S
C3192 C3194 1.363 . S
C3192 H3208 0.931 . S
C3193 C3192 1.370 . S
C3193 C3197 1.408 . S
C3194 C3192 1.363 . S
C3194 C3195 1.370 . S
C3194 C3198 1.524 . S
C3195 C3187 1.503 . S
C3195 C3194 1.370 . S
C3195 C3196 1.403 . S
C3196 C3195 1.403 . S
C3196 C3197 1.404 . S
C3196 C3199 1.539 . S
C3197 C3193 1.408 . S
C3197 C3196 1.404 . S
C3197 H3209 0.930 . S
C3198 C3194 1.524 . S
C3198 H3210 0.956 . S
C3198 H3211 0.961 . S
C3198 H3212 0.961 . S
C3199 C3196 1.539 . S
C3199 H3213 0.958 . S
C3199 H3214 0.961 . S
C3199 H3215 0.960 . S
H3200 C3184 0.931 . S
H3201 C3189 0.929 . S
H3202 C3190 0.960 . S
H3203 C3190 0.962 . S
H3204 C3190 0.960 . S
H3205 C3191 0.961 . S
H3206 C3191 0.961 . S
H3207 C3191 0.961 . S
H3208 C3192 0.931 . S
H3209 C3197 0.930 . S
H3210 C3198 0.956 . S
H3211 C3198 0.961 . S
H3212 C3198 0.961 . S
H3213 C3199 0.958 . S
H3214 C3199 0.961 . S
H3215 C3199 0.960 . S
C3216 C3217 1.391 . S
C3216 C3218 1.394 . S
C3216 H3232 0.931 . S
C3217 C3216 1.391 . S
C3217 C3221 1.376 . S
C3218 C3216 1.394 . S
C3218 C3219 1.369 . S
C3218 C3222 1.531 . S
C3219 C3218 1.369 . S
C3219 C3220 1.410 . S
C3219 C3227 1.503 . S
C3220 C3219 1.410 . S
C3220 C3221 1.392 . S
C3220 C3223 1.511 . S
C3221 C3217 1.376 . S
C3221 C3220 1.392 . S
C3221 H3233 0.929 . S
C3222 C3218 1.531 . S
C3222 H3234 0.960 . S
C3222 H3235 0.962 . S
C3222 H3236 0.960 . S
C3223 C3220 1.511 . S
C3223 H3237 0.961 . S
C3223 H3238 0.961 . S
C3223 H3239 0.961 . S
C3224 C3225 1.370 . S
C3224 C3226 1.363 . S
C3224 H3240 0.931 . S
C3225 C3224 1.370 . S
C3225 C3229 1.408 . S
C3226 C3224 1.363 . S
C3226 C3227 1.370 . S
C3226 C3230 1.524 . S
C3227 C3219 1.503 . S
C3227 C3226 1.370 . S
C3227 C3228 1.403 . S
C3228 C3227 1.403 . S
C3228 C3229 1.404 . S
C3228 C3231 1.539 . S
C3229 C3225 1.408 . S
C3229 C3228 1.404 . S
C3229 H3241 0.930 . S
C3230 C3226 1.524 . S
C3230 H3242 0.956 . S
C3230 H3243 0.961 . S
C3230 H3244 0.961 . S
C3231 C3228 1.539 . S
C3231 H3245 0.958 . S
C3231 H3246 0.961 . S
C3231 H3247 0.960 . S
H3232 C3216 0.931 . S
H3233 C3221 0.929 . S
H3234 C3222 0.960 . S
H3235 C3222 0.962 . S
H3236 C3222 0.960 . S
H3237 C3223 0.961 . S
H3238 C3223 0.961 . S
H3239 C3223 0.961 . S
H3240 C3224 0.931 . S
H3241 C3229 0.930 . S
H3242 C3230 0.956 . S
H3243 C3230 0.961 . S
H3244 C3230 0.961 . S
H3245 C3231 0.958 . S
H3246 C3231 0.961 . S
H3247 C3231 0.960 . S
C3248 C3249 1.391 . S
C3248 C3250 1.394 . S
C3248 H3264 0.931 . S
C3249 C3248 1.391 . S
C3249 C3253 1.376 . S
C3250 C3248 1.394 . S
C3250 C3251 1.369 . S
C3250 C3254 1.531 . S
C3251 C3250 1.369 . S
C3251 C3252 1.410 . S
C3251 C3259 1.503 . S
C3252 C3251 1.410 . S
C3252 C3253 1.392 . S
C3252 C3255 1.511 . S
C3253 C3249 1.376 . S
C3253 C3252 1.392 . S
C3253 H3265 0.929 . S
C3254 C3250 1.531 . S
C3254 H3266 0.960 . S
C3254 H3267 0.962 . S
C3254 H3268 0.960 . S
C3255 C3252 1.511 . S
C3255 H3269 0.961 . S
C3255 H3270 0.961 . S
C3255 H3271 0.961 . S
C3256 C3257 1.370 . S
C3256 C3258 1.363 . S
C3256 H3272 0.931 . S
C3257 C3256 1.370 . S
C3257 C3261 1.408 . S
C3258 C3256 1.363 . S
C3258 C3259 1.370 . S
C3258 C3262 1.524 . S
C3259 C3251 1.503 . S
C3259 C3258 1.370 . S
C3259 C3260 1.403 . S
C3260 C3259 1.403 . S
C3260 C3261 1.404 . S
C3260 C3263 1.539 . S
C3261 C3257 1.408 . S
C3261 C3260 1.404 . S
C3261 H3273 0.930 . S
C3262 C3258 1.524 . S
C3262 H3274 0.956 . S
C3262 H3275 0.961 . S
C3262 H3276 0.961 . S
C3263 C3260 1.539 . S
C3263 H3277 0.958 . S
C3263 H3278 0.961 . S
C3263 H3279 0.960 . S
H3264 C3248 0.931 . S
H3265 C3253 0.929 . S
H3266 C3254 0.960 . S
H3267 C3254 0.962 . S
H3268 C3254 0.960 . S
H3269 C3255 0.961 . S
H3270 C3255 0.961 . S
H3271 C3255 0.961 . S
H3272 C3256 0.931 . S
H3273 C3261 0.930 . S
H3274 C3262 0.956 . S
H3275 C3262 0.961 . S
H3276 C3262 0.961 . S
H3277 C3263 0.958 . S
H3278 C3263 0.961 . S
H3279 C3263 0.960 . S
C3280 C3281 1.391 . S
C3280 C3282 1.394 . S
C3280 H3296 0.931 . S
C3281 C3280 1.391 . S
C3281 C3285 1.376 1_456 S
C3282 C3280 1.394 . S
C3282 C3283 1.369 1_556 S
C3282 C3286 1.531 . S
C3283 C3282 1.369 1_554 S
C3283 C3284 1.410 1_455 S
C3283 C3291 1.503 . S
C3284 C3283 1.410 1_655 S
C3284 C3285 1.392 . S
C3284 C3287 1.511 . S
C3285 C3281 1.376 1_654 S
C3285 C3284 1.392 . S
C3285 H3297 0.929 . S
C3286 C3282 1.531 . S
C3286 H3298 0.960 . S
C3286 H3299 0.962 . S
C3286 H3300 0.960 . S
C3287 C3284 1.511 . S
C3287 H3301 0.961 . S
C3287 H3302 0.953 1_655 S
C3287 H3303 0.961 . S
C3288 C3289 1.370 . S
C3288 C3290 1.363 . S
C3288 H3304 0.931 . S
C3289 C3288 1.370 . S
C3289 C3293 1.408 1_455 S
C3290 C3288 1.363 . S
C3290 C3291 1.370 . S
C3290 C3294 1.524 . S
C3291 C3283 1.503 . S
C3291 C3290 1.370 . S
C3291 C3292 1.403 1_455 S
C3292 C3291 1.403 1_655 S
C3292 C3293 1.404 . S
C3292 C3295 1.539 . S
C3293 C3289 1.408 1_655 S
C3293 C3292 1.404 . S
C3293 H3305 0.930 . S
C3294 C3290 1.524 . S
C3294 H3306 0.956 . S
C3294 H3307 0.961 . S
C3294 H3308 0.961 . S
C3295 C3292 1.539 . S
C3295 H3309 0.958 1_554 S
C3295 H3310 0.961 . S
C3295 H3311 0.960 . S
H3296 C3280 0.931 . S
H3297 C3285 0.929 . S
H3298 C3286 0.960 . S
H3299 C3286 0.962 . S
H3300 C3286 0.960 . S
H3301 C3287 0.961 . S
H3302 C3287 0.953 1_455 S
H3303 C3287 0.961 . S
H3304 C3288 0.931 . S
H3305 C3293 0.930 . S
H3306 C3294 0.956 . S
H3307 C3294 0.961 . S
H3308 C3294 0.961 . S
H3309 C3295 0.958 1_556 S
H3310 C3295 0.961 . S
H3311 C3295 0.960 . S
C3312 C3313 1.391 . S
C3312 C3314 1.394 . S
C3312 H3328 0.931 1_655 S
C3313 C3312 1.391 . S
C3313 C3317 1.376 . S
C3314 C3312 1.394 . S
C3314 C3315 1.369 . S
C3314 C3318 1.531 . S
C3315 C3314 1.369 . S
C3315 C3316 1.410 . S
C3315 C3323 1.503 . S
C3316 C3315 1.410 . S
C3316 C3317 1.392 . S
C3316 C3319 1.511 . S
C3317 C3313 1.376 . S
C3317 C3316 1.392 . S
C3317 H3329 0.929 . S
C3318 C3314 1.531 . S
C3318 H3330 0.960 . S
C3318 H3331 0.962 . S
C3318 H3332 0.960 . S
C3319 C3316 1.511 . S
C3319 H3333 0.961 . S
C3319 H3334 0.961 . S
C3319 H3335 0.961 . S
C3320 C3321 1.370 . S
C3320 C3322 1.363 . S
C3320 H3336 0.931 . S
C3321 C3320 1.370 . S
C3321 C3325 1.408 . S
C3322 C3320 1.363 . S
C3322 C3323 1.370 . S
C3322 C3326 1.524 . S
C3323 C3315 1.503 . S
C3323 C3322 1.370 . S
C3323 C3324 1.403 . S
C3324 C3323 1.403 . S
C3324 C3325 1.404 . S
C3324 C3327 1.539 . S
C3325 C3321 1.408 . S
C3325 C3324 1.404 . S
C3325 H3337 0.930 . S
C3326 C3322 1.524 . S
C3326 H3338 0.956 . S
C3326 H3339 0.961 . S
C3326 H3340 0.961 . S
C3327 C3324 1.539 . S
C3327 H3341 0.958 . S
C3327 H3342 0.961 . S
C3327 H3343 0.960 . S
H3328 C3312 0.931 1_455 S
H3329 C3317 0.929 . S
H3330 C3318 0.960 . S
H3331 C3318 0.962 . S
H3332 C3318 0.960 . S
H3333 C3319 0.961 . S
H3334 C3319 0.961 . S
H3335 C3319 0.961 . S
H3336 C3320 0.931 . S
H3337 C3325 0.930 . S
H3338 C3326 0.956 . S
H3339 C3326 0.961 . S
H3340 C3326 0.961 . S
H3341 C3327 0.958 . S
H3342 C3327 0.961 . S
H3343 C3327 0.960 . S
C3344 C3345 1.391 . S
C3344 C3346 1.394 . S
C3344 H3360 0.931 . S
C3345 C3344 1.391 . S
C3345 C3349 1.376 . S
C3346 C3344 1.394 . S
C3346 C3347 1.369 . S
C3346 C3350 1.531 . S
C3347 C3346 1.369 . S
C3347 C3348 1.410 . S
C3347 C3355 1.503 . S
C3348 C3347 1.410 . S
C3348 C3349 1.392 . S
C3348 C3351 1.511 . S
C3349 C3345 1.376 . S
C3349 C3348 1.392 . S
C3349 H3361 0.929 . S
C3350 C3346 1.531 . S
C3350 H3362 0.960 . S
C3350 H3363 0.962 . S
C3350 H3364 0.960 . S
C3351 C3348 1.511 . S
C3351 H3365 0.961 . S
C3351 H3366 0.961 . S
C3351 H3367 0.961 . S
C3352 C3353 1.370 . S
C3352 C3354 1.363 . S
C3352 H3368 0.931 . S
C3353 C3352 1.370 . S
C3353 C3357 1.408 . S
C3354 C3352 1.363 . S
C3354 C3355 1.370 . S
C3354 C3358 1.524 . S
C3355 C3347 1.503 . S
C3355 C3354 1.370 . S
C3355 C3356 1.403 . S
C3356 C3355 1.403 . S
C3356 C3357 1.404 . S
C3356 C3359 1.539 . S
C3357 C3353 1.408 . S
C3357 C3356 1.404 . S
C3357 H3369 0.930 . S
C3358 C3354 1.524 . S
C3358 H3370 0.956 . S
C3358 H3371 0.961 . S
C3358 H3372 0.961 . S
C3359 C3356 1.539 . S
C3359 H3373 0.958 . S
C3359 H3374 0.961 . S
C3359 H3375 0.960 . S
H3360 C3344 0.931 . S
H3361 C3349 0.929 . S
H3362 C3350 0.960 . S
H3363 C3350 0.962 . S
H3364 C3350 0.960 . S
H3365 C3351 0.961 . S
H3366 C3351 0.961 . S
H3367 C3351 0.961 . S
H3368 C3352 0.931 . S
H3369 C3357 0.930 . S
H3370 C3358 0.956 . S
H3371 C3358 0.961 . S
H3372 C3358 0.961 . S
H3373 C3359 0.958 . S
H3374 C3359 0.961 . S
H3375 C3359 0.960 . S
C3376 C3377 1.391 . S
C3376 C3378 1.394 . S
C3376 H3392 0.931 . S
C3377 C3376 1.391 . S
C3377 C3381 1.376 . S
C3378 C3376 1.394 . S
C3378 C3379 1.369 . S
C3378 C3382 1.531 . S
C3379 C3378 1.369 . S
C3379 C3380 1.410 . S
C3379 C3387 1.503 . S
C3380 C3379 1.410 . S
C3380 C3381 1.392 . S
C3380 C3383 1.511 . S
C3381 C3377 1.376 . S
C3381 C3380 1.392 . S
C3381 H3393 0.929 . S
C3382 C3378 1.531 . S
C3382 H3394 0.960 . S
C3382 H3395 0.962 . S
C3382 H3396 0.960 . S
C3383 C3380 1.511 . S
C3383 H3397 0.961 . S
C3383 H3398 0.961 . S
C3383 H3399 0.961 . S
C3384 C3385 1.370 . S
C3384 C3386 1.363 . S
C3384 H3400 0.931 . S
C3385 C3384 1.370 . S
C3385 C3389 1.408 . S
C3386 C3384 1.363 . S
C3386 C3387 1.370 . S
C3386 C3390 1.524 . S
C3387 C3379 1.503 . S
C3387 C3386 1.370 . S
C3387 C3388 1.403 . S
C3388 C3387 1.403 . S
C3388 C3389 1.404 . S
C3388 C3391 1.539 . S
C3389 C3385 1.408 . S
C3389 C3388 1.404 . S
C3389 H3401 0.930 . S
C3390 C3386 1.524 . S
C3390 H3402 0.956 . S
C3390 H3403 0.961 . S
C3390 H3404 0.961 . S
C3391 C3388 1.539 . S
C3391 H3405 0.958 . S
C3391 H3406 0.961 . S
C3391 H3407 0.960 . S
H3392 C3376 0.931 . S
H3393 C3381 0.929 . S
H3394 C3382 0.960 . S
H3395 C3382 0.962 . S
H3396 C3382 0.960 . S
H3397 C3383 0.961 . S
H3398 C3383 0.961 . S
H3399 C3383 0.961 . S
H3400 C3384 0.931 . S
H3401 C3389 0.930 . S
H3402 C3390 0.956 . S
H3403 C3390 0.961 . S
H3404 C3390 0.961 . S
H3405 C3391 0.958 . S
H3406 C3391 0.961 . S
H3407 C3391 0.960 . S
C3408 C3409 1.391 . S
C3408 C3410 1.394 . S
C3408 H3424 0.931 . S
C3409 C3408 1.391 . S
C3409 C3413 1.376 . S
C3410 C3408 1.394 . S
C3410 C3411 1.369 . S
C3410 C3414 1.531 . S
C3411 C3410 1.369 . S
C3411 C3412 1.410 . S
C3411 C3419 1.503 . S
C3412 C3411 1.410 . S
C3412 C3413 1.392 . S
C3412 C3415 1.511 . S
C3413 C3409 1.376 . S
C3413 C3412 1.392 . S
C3413 H3425 0.929 . S
C3414 C3410 1.531 . S
C3414 H3426 0.960 . S
C3414 H3427 0.962 1_455 S
C3414 H3428 0.960 . S
C3415 C3412 1.511 . S
C3415 H3429 0.961 . S
C3415 H3430 0.961 . S
C3415 H3431 0.961 . S
C3416 C3417 1.370 1_655 S
C3416 C3418 1.363 . S
C3416 H3432 0.931 . S
C3417 C3416 1.370 1_455 S
C3417 C3421 1.408 . S
C3418 C3416 1.363 . S
C3418 C3419 1.370 1_655 S
C3418 C3422 1.524 . S
C3419 C3411 1.503 . S
C3419 C3418 1.370 1_455 S
C3419 C3420 1.403 . S
C3420 C3419 1.403 . S
C3420 C3421 1.404 . S
C3420 C3423 1.539 . S
C3421 C3417 1.408 . S
C3421 C3420 1.404 . S
C3421 H3433 0.930 . S
C3422 C3418 1.524 . S
C3422 H3434 0.956 . S
C3422 H3435 0.961 . S
C3422 H3436 0.961 . S
C3423 C3420 1.539 . S
C3423 H3437 0.958 . S
C3423 H3438 0.961 . S
C3423 H3439 0.960 . S
H3424 C3408 0.931 . S
H3425 C3413 0.929 . S
H3426 C3414 0.960 . S
H3427 C3414 0.962 1_655 S
H3428 C3414 0.960 . S
H3429 C3415 0.961 . S
H3430 C3415 0.961 . S
H3431 C3415 0.961 . S
H3432 C3416 0.931 . S
H3433 C3421 0.930 . S
H3434 C3422 0.956 . S
H3435 C3422 0.961 . S
H3436 C3422 0.961 . S
H3437 C3423 0.958 . S
H3438 C3423 0.961 . S
H3439 C3423 0.960 . S
C3440 C3441 1.391 . S
C3440 C3442 1.394 . S
C3440 H3456 0.931 . S
C3441 C3440 1.391 . S
C3441 C3445 1.376 . S
C3442 C3440 1.394 . S
C3442 C3443 1.369 . S
C3442 C3446 1.531 . S
C3443 C3442 1.369 . S
C3443 C3444 1.410 . S
C3443 C3451 1.503 . S
C3444 C3443 1.410 . S
C3444 C3445 1.392 . S
C3444 C3447 1.511 . S
C3445 C3441 1.376 . S
C3445 C3444 1.392 . S
C3445 H3457 0.929 . S
C3446 C3442 1.531 . S
C3446 H3458 0.960 . S
C3446 H3459 0.962 . S
C3446 H3460 0.960 . S
C3447 C3444 1.511 . S
C3447 H3461 0.961 . S
C3447 H3462 0.961 . S
C3447 H3463 0.961 . S
C3448 C3449 1.370 . S
C3448 C3450 1.363 . S
C3448 H3464 0.931 . S
C3449 C3448 1.370 . S
C3449 C3453 1.408 . S
C3450 C3448 1.363 . S
C3450 C3451 1.370 . S
C3450 C3454 1.524 . S
C3451 C3443 1.503 . S
C3451 C3450 1.370 . S
C3451 C3452 1.403 . S
C3452 C3451 1.403 . S
C3452 C3453 1.404 . S
C3452 C3455 1.539 . S
C3453 C3449 1.408 . S
C3453 C3452 1.404 . S
C3453 H3465 0.930 . S
C3454 C3450 1.524 . S
C3454 H3466 0.956 . S
C3454 H3467 0.961 . S
C3454 H3468 0.961 . S
C3455 C3452 1.539 . S
C3455 H3469 0.958 . S
C3455 H3470 0.961 . S
C3455 H3471 0.960 . S
H3456 C3440 0.931 . S
H3457 C3445 0.929 . S
H3458 C3446 0.960 . S
H3459 C3446 0.962 . S
H3460 C3446 0.960 . S
H3461 C3447 0.961 . S
H3462 C3447 0.961 . S
H3463 C3447 0.961 . S
H3464 C3448 0.931 . S
H3465 C3453 0.930 . S
H3466 C3454 0.956 . S
H3467 C3454 0.961 . S
H3468 C3454 0.961 . S
H3469 C3455 0.958 . S
H3470 C3455 0.961 . S
H3471 C3455 0.960 . S
C3472 C3473 1.391 . S
C3472 C3474 1.394 . S
C3472 H3488 0.931 . S
C3473 C3472 1.391 . S
C3473 C3477 1.376 . S
C3474 C3472 1.394 . S
C3474 C3475 1.369 . S
C3474 C3478 1.531 . S
C3475 C3474 1.369 . S
C3475 C3476 1.410 . S
C3475 C3483 1.503 . S
C3476 C3475 1.410 . S
C3476 C3477 1.392 . S
C3476 C3479 1.511 . S
C3477 C3473 1.376 . S
C3477 C3476 1.392 . S
C3477 H3489 0.929 . S
C3478 C3474 1.531 . S
C3478 H3490 0.960 . S
C3478 H3491 0.962 . S
C3478 H3492 0.960 . S
C3479 C3476 1.511 . S
C3479 H3493 0.961 . S
C3479 H3494 0.961 . S
C3479 H3495 0.961 . S
C3480 C3481 1.370 . S
C3480 C3482 1.363 . S
C3480 H3496 0.931 . S
C3481 C3480 1.370 . S
C3481 C3485 1.408 . S
C3482 C3480 1.363 . S
C3482 C3483 1.370 . S
C3482 C3486 1.524 . S
C3483 C3475 1.503 . S
C3483 C3482 1.370 . S
C3483 C3484 1.403 . S
C3484 C3483 1.403 . S
C3484 C3485 1.404 . S
C3484 C3487 1.539 . S
C3485 C3481 1.408 . S
C3485 C3484 1.404 . S
C3485 H3497 0.930 . S
C3486 C3482 1.524 . S
C3486 H3498 0.956 . S
C3486 H3499 0.961 . S
C3486 H3500 0.961 . S
C3487 C3484 1.539 . S
C3487 H3501 0.958 . S
C3487 H3502 0.961 . S
C3487 H3503 0.960 . S
H3488 C3472 0.931 . S
H3489 C3477 0.929 . S
H3490 C3478 0.960 . S
H3491 C3478 0.962 . S
H3492 C3478 0.960 . S
H3493 C3479 0.961 . S
H3494 C3479 0.961 . S
H3495 C3479 0.961 . S
H3496 C3480 0.931 . S
H3497 C3485 0.930 . S
H3498 C3486 0.956 . S
H3499 C3486 0.961 . S
H3500 C3486 0.961 . S
H3501 C3487 0.958 . S
H3502 C3487 0.961 . S
H3503 C3487 0.960 . S
C3504 C3505 1.390 1_556 S
C3504 C3506 1.394 . S
C3504 H3520 0.931 1_556 S
C3505 C3504 1.390 1_554 S
C3505 C3509 1.371 1_554 S
C3506 C3504 1.394 . S
C3506 C3507 1.369 . S
C3506 C3510 1.531 . S
C3507 C3506 1.369 . S
C3507 C3508 1.410 . S
C3507 C3515 1.503 . S
C3508 C3507 1.410 . S
C3508 C3509 1.392 . S
C3508 C3511 1.511 . S
C3509 C3505 1.371 1_556 S
C3509 C3508 1.392 . S
C3509 H3521 0.929 . S
C3510 C3506 1.531 . S
C3510 H3522 0.960 . S
C3510 H3523 0.962 . S
C3510 H3524 0.960 . S
C3511 C3508 1.511 . S
C3511 H3525 0.961 . S
C3511 H3526 0.961 . S
C3511 H3527 0.961 . S
C3512 C3513 1.370 . S
C3512 C3514 1.363 . S
C3512 H3528 0.931 . S
C3513 C3512 1.370 . S
C3513 C3517 1.408 . S
C3514 C3512 1.363 . S
C3514 C3515 1.370 . S
C3514 C3518 1.524 . S
C3515 C3507 1.503 . S
C3515 C3514 1.370 . S
C3515 C3516 1.403 . S
C3516 C3515 1.403 . S
C3516 C3517 1.404 . S
C3516 C3519 1.539 . S
C3517 C3513 1.408 . S
C3517 C3516 1.404 . S
C3517 H3529 0.930 . S
C3518 C3514 1.524 . S
C3518 H3530 0.956 . S
C3518 H3531 0.961 . S
C3518 H3532 0.961 . S
C3519 C3516 1.539 . S
C3519 H3533 0.958 . S
C3519 H3534 0.961 . S
C3519 H3535 0.960 . S
H3520 C3504 0.931 1_554 S
H3521 C3509 0.929 . S
H3522 C3510 0.960 . S
H3523 C3510 0.962 . S
H3524 C3510 0.960 . S
H3525 C3511 0.961 . S
H3526 C3511 0.961 . S
H3527 C3511 0.961 . S
H3528 C3512 0.931 . S
H3529 C3517 0.930 . S
H3530 C3518 0.956 . S
H3531 C3518 0.961 . S
H3532 C3518 0.961 . S
H3533 C3519 0.958 . S
H3534 C3519 0.961 . S
H3535 C3519 0.960 . S
C3536 C3537 1.391 . S
C3536 C3538 1.394 . S
C3536 H3552 0.931 . S
C3537 C3536 1.391 . S
C3537 C3541 1.376 . S
C3538 C3536 1.394 . S
C3538 C3539 1.369 . S
C3538 C3542 1.531 . S
C3539 C3538 1.369 . S
C3539 C3540 1.410 . S
C3539 C3547 1.503 . S
C3540 C3539 1.410 . S
C3540 C3541 1.392 . S
C3540 C3543 1.511 . S
C3541 C3537 1.376 . S
C3541 C3540 1.392 . S
C3541 H3553 0.929 . S
C3542 C3538 1.531 . S
C3542 H3554 0.960 . S
C3542 H3555 0.962 . S
C3542 H3556 0.960 . S
C3543 C3540 1.511 . S
C3543 H3557 0.961 . S
C3543 H3558 0.961 . S
C3543 H3559 0.961 . S
C3544 C3545 1.370 . S
C3544 C3546 1.363 . S
C3544 H3560 0.931 . S
C3545 C3544 1.370 . S
C3545 C3549 1.408 . S
C3546 C3544 1.363 . S
C3546 C3547 1.370 . S
C3546 C3550 1.524 . S
C3547 C3539 1.503 . S
C3547 C3546 1.370 . S
C3547 C3548 1.403 . S
C3548 C3547 1.403 . S
C3548 C3549 1.404 . S
C3548 C3551 1.539 . S
C3549 C3545 1.408 . S
C3549 C3548 1.404 . S
C3549 H3561 0.930 . S
C3550 C3546 1.524 . S
C3550 H3562 0.956 . S
C3550 H3563 0.961 . S
C3550 H3564 0.961 . S
C3551 C3548 1.539 . S
C3551 H3565 0.958 . S
C3551 H3566 0.961 . S
C3551 H3567 0.960 . S
H3552 C3536 0.931 . S
H3553 C3541 0.929 . S
H3554 C3542 0.960 . S
H3555 C3542 0.962 . S
H3556 C3542 0.960 . S
H3557 C3543 0.961 . S
H3558 C3543 0.961 . S
H3559 C3543 0.961 . S
H3560 C3544 0.931 . S
H3561 C3549 0.930 . S
H3562 C3550 0.956 . S
H3563 C3550 0.961 . S
H3564 C3550 0.961 . S
H3565 C3551 0.958 . S
H3566 C3551 0.961 . S
H3567 C3551 0.960 . S
C3568 C3569 1.391 . S
C3568 C3570 1.394 . S
C3568 H3584 0.931 . S
C3569 C3568 1.391 . S
C3569 C3573 1.376 . S
C3570 C3568 1.394 . S
C3570 C3571 1.369 . S
C3570 C3574 1.531 . S
C3571 C3570 1.369 . S
C3571 C3572 1.410 . S
C3571 C3579 1.503 . S
C3572 C3571 1.410 . S
C3572 C3573 1.392 . S
C3572 C3575 1.511 . S
C3573 C3569 1.376 . S
C3573 C3572 1.392 . S
C3573 H3585 0.929 . S
C3574 C3570 1.531 . S
C3574 H3586 0.960 . S
C3574 H3587 0.962 . S
C3574 H3588 0.960 . S
C3575 C3572 1.511 . S
C3575 H3589 0.961 . S
C3575 H3590 0.961 . S
C3575 H3591 0.961 . S
C3576 C3577 1.370 . S
C3576 C3578 1.363 . S
C3576 H3592 0.931 . S
C3577 C3576 1.370 . S
C3577 C3581 1.408 . S
C3578 C3576 1.363 . S
C3578 C3579 1.370 . S
C3578 C3582 1.524 . S
C3579 C3571 1.503 . S
C3579 C3578 1.370 . S
C3579 C3580 1.403 . S
C3580 C3579 1.403 . S
C3580 C3581 1.404 . S
C3580 C3583 1.539 . S
C3581 C3577 1.408 . S
C3581 C3580 1.404 . S
C3581 H3593 0.930 . S
C3582 C3578 1.524 . S
C3582 H3594 0.956 . S
C3582 H3595 0.961 . S
C3582 H3596 0.961 . S
C3583 C3580 1.539 . S
C3583 H3597 0.958 . S
C3583 H3598 0.961 . S
C3583 H3599 0.960 . S
H3584 C3568 0.931 . S
H3585 C3573 0.929 . S
H3586 C3574 0.960 . S
H3587 C3574 0.962 . S
H3588 C3574 0.960 . S
H3589 C3575 0.961 . S
H3590 C3575 0.961 . S
H3591 C3575 0.961 . S
H3592 C3576 0.931 . S
H3593 C3581 0.930 . S
H3594 C3582 0.956 . S
H3595 C3582 0.961 . S
H3596 C3582 0.961 . S
H3597 C3583 0.958 . S
H3598 C3583 0.961 . S
H3599 C3583 0.960 . S
C3600 C3601 1.391 . S
C3600 C3602 1.394 . S
C3600 H3616 0.931 . S
C3601 C3600 1.391 . S
C3601 C3605 1.376 . S
C3602 C3600 1.394 . S
C3602 C3603 1.369 . S
C3602 C3606 1.531 . S
C3603 C3602 1.369 . S
C3603 C3604 1.410 . S
C3603 C3611 1.503 . S
C3604 C3603 1.410 . S
C3604 C3605 1.392 . S
C3604 C3607 1.511 . S
C3605 C3601 1.376 . S
C3605 C3604 1.392 . S
C3605 H3617 0.929 . S
C3606 C3602 1.531 . S
C3606 H3618 0.960 . S
C3606 H3619 0.962 . S
C3606 H3620 0.960 . S
C3607 C3604 1.511 . S
C3607 H3621 0.961 . S
C3607 H3622 0.961 . S
C3607 H3623 0.961 . S
C3608 C3609 1.370 . S
C3608 C3610 1.363 . S
C3608 H3624 0.931 . S
C3609 C3608 1.370 . S
C3609 C3613 1.408 . S
C3610 C3608 1.363 . S
C3610 C3611 1.370 . S
C3610 C3614 1.524 . S
C3611 C3603 1.503 . S
C3611 C3610 1.370 . S
C3611 C3612 1.403 . S
C3612 C3611 1.403 . S
C3612 C3613 1.404 . S
C3612 C3615 1.539 . S
C3613 C3609 1.408 . S
C3613 C3612 1.404 . S
C3613 H3625 0.930 . S
C3614 C3610 1.524 . S
C3614 H3626 0.956 . S
C3614 H3627 0.961 . S
C3614 H3628 0.961 . S
C3615 C3612 1.539 . S
C3615 H3629 0.958 . S
C3615 H3630 0.961 . S
C3615 H3631 0.960 . S
H3616 C3600 0.931 . S
H3617 C3605 0.929 . S
H3618 C3606 0.960 . S
H3619 C3606 0.962 . S
H3620 C3606 0.960 . S
H3621 C3607 0.961 . S
H3622 C3607 0.961 . S
H3623 C3607 0.961 . S
H3624 C3608 0.931 . S
H3625 C3613 0.930 . S
H3626 C3614 0.956 . S
H3627 C3614 0.961 . S
H3628 C3614 0.961 . S
H3629 C3615 0.958 . S
H3630 C3615 0.961 . S
H3631 C3615 0.960 . S
C3632 C3633 1.391 . S
C3632 C3634 1.394 . S
C3632 H3648 0.931 . S
C3633 C3632 1.391 . S
C3633 C3637 1.376 . S
C3634 C3632 1.394 . S
C3634 C3635 1.369 . S
C3634 C3638 1.531 . S
C3635 C3634 1.369 . S
C3635 C3636 1.410 . S
C3635 C3643 1.503 . S
C3636 C3635 1.410 . S
C3636 C3637 1.392 . S
C3636 C3639 1.511 . S
C3637 C3633 1.376 . S
C3637 C3636 1.392 . S
C3637 H3649 0.929 . S
C3638 C3634 1.531 . S
C3638 H3650 0.960 . S
C3638 H3651 0.962 . S
C3638 H3652 0.960 . S
C3639 C3636 1.511 . S
C3639 H3653 0.961 . S
C3639 H3654 0.961 . S
C3639 H3655 0.961 . S
C3640 C3641 1.370 . S
C3640 C3642 1.363 . S
C3640 H3656 0.931 . S
C3641 C3640 1.370 . S
C3641 C3645 1.408 . S
C3642 C3640 1.363 . S
C3642 C3643 1.370 . S
C3642 C3646 1.524 . S
C3643 C3635 1.503 . S
C3643 C3642 1.370 . S
C3643 C3644 1.403 . S
C3644 C3643 1.403 . S
C3644 C3645 1.404 . S
C3644 C3647 1.539 . S
C3645 C3641 1.408 . S
C3645 C3644 1.404 . S
C3645 H3657 0.930 . S
C3646 C3642 1.524 . S
C3646 H3658 0.956 . S
C3646 H3659 0.961 . S
C3646 H3660 0.961 . S
C3647 C3644 1.539 . S
C3647 H3661 0.958 . S
C3647 H3662 0.961 . S
C3647 H3663 0.960 . S
H3648 C3632 0.931 . S
H3649 C3637 0.929 . S
H3650 C3638 0.960 . S
H3651 C3638 0.962 . S
H3652 C3638 0.960 . S
H3653 C3639 0.961 . S
H3654 C3639 0.961 . S
H3655 C3639 0.961 . S
H3656 C3640 0.931 . S
H3657 C3645 0.930 . S
H3658 C3646 0.956 . S
H3659 C3646 0.961 . S
H3660 C3646 0.961 . S
H3661 C3647 0.958 . S
H3662 C3647 0.961 . S
H3663 C3647 0.960 . S
C3664 C3665 1.391 . S
C3664 C3666 1.394 . S
C3664 H3680 0.931 . S
C3665 C3664 1.391 . S
C3665 C3669 1.376 . S
C3666 C3664 1.394 . S
C3666 C3667 1.369 . S
C3666 C3670 1.531 . S
C3667 C3666 1.369 . S
C3667 C3668 1.410 . S
C3667 C3675 1.503 . S
C3668 C3667 1.410 . S
C3668 C3669 1.392 . S
C3668 C3671 1.511 . S
C3669 C3665 1.376 . S
C3669 C3668 1.392 . S
C3669 H3681 0.929 . S
C3670 C3666 1.531 . S
C3670 H3682 0.960 . S
C3670 H3683 0.962 . S
C3670 H3684 0.960 . S
C3671 C3668 1.511 . S
C3671 H3685 0.961 . S
C3671 H3686 0.961 . S
C3671 H3687 0.961 . S
C3672 C3673 1.370 . S
C3672 C3674 1.363 . S
C3672 H3688 0.931 . S
C3673 C3672 1.370 . S
C3673 C3677 1.408 . S
C3674 C3672 1.363 . S
C3674 C3675 1.370 . S
C3674 C3678 1.524 . S
C3675 C3667 1.503 . S
C3675 C3674 1.370 . S
C3675 C3676 1.403 . S
C3676 C3675 1.403 . S
C3676 C3677 1.404 . S
C3676 C3679 1.539 . S
C3677 C3673 1.408 . S
C3677 C3676 1.404 . S
C3677 H3689 0.930 . S
C3678 C3674 1.524 . S
C3678 H3690 0.956 . S
C3678 H3691 0.961 . S
C3678 H3692 0.961 . S
C3679 C3676 1.539 . S
C3679 H3693 0.958 . S
C3679 H3694 0.961 . S
C3679 H3695 0.960 . S
H3680 C3664 0.931 . S
H3681 C3669 0.929 . S
H3682 C3670 0.960 . S
H3683 C3670 0.962 . S
H3684 C3670 0.960 . S
H3685 C3671 0.961 . S
H3686 C3671 0.961 . S
H3687 C3671 0.961 . S
H3688 C3672 0.931 . S
H3689 C3677 0.930 . S
H3690 C3678 0.956 . S
H3691 C3678 0.961 . S
H3692 C3678 0.961 . S
H3693 C3679 0.958 . S
H3694 C3679 0.961 . S
H3695 C3679 0.960 . S
C3696 C3697 1.391 . S
C3696 C3698 1.394 . S
C3696 H3712 0.931 . S
C3697 C3696 1.391 . S
C3697 C3701 1.376 . S
C3698 C3696 1.394 . S
C3698 C3699 1.369 . S
C3698 C3702 1.531 . S
C3699 C3698 1.369 . S
C3699 C3700 1.410 . S
C3699 C3707 1.503 . S
C3700 C3699 1.410 . S
C3700 C3701 1.392 . S
C3700 C3703 1.511 . S
C3701 C3697 1.376 . S
C3701 C3700 1.392 . S
C3701 H3713 0.929 . S
C3702 C3698 1.531 . S
C3702 H3714 0.960 . S
C3702 H3715 0.962 . S
C3702 H3716 0.960 . S
C3703 C3700 1.511 . S
C3703 H3717 0.961 . S
C3703 H3718 0.961 . S
C3703 H3719 0.961 . S
C3704 C3705 1.370 . S
C3704 C3706 1.363 . S
C3704 H3720 0.931 . S
C3705 C3704 1.370 . S
C3705 C3709 1.408 . S
C3706 C3704 1.363 . S
C3706 C3707 1.370 . S
C3706 C3710 1.524 . S
C3707 C3699 1.503 . S
C3707 C3706 1.370 . S
C3707 C3708 1.403 . S
C3708 C3707 1.403 . S
C3708 C3709 1.404 . S
C3708 C3711 1.539 . S
C3709 C3705 1.408 . S
C3709 C3708 1.404 . S
C3709 H3721 0.930 . S
C3710 C3706 1.524 . S
C3710 H3722 0.956 . S
C3710 H3723 0.961 . S
C3710 H3724 0.961 . S
C3711 C3708 1.539 . S
C3711 H3725 0.958 . S
C3711 H3726 0.961 . S
C3711 H3727 0.960 . S
H3712 C3696 0.931 . S
H3713 C3701 0.929 . S
H3714 C3702 0.960 . S
H3715 C3702 0.962 . S
H3716 C3702 0.960 . S
H3717 C3703 0.961 . S
H3718 C3703 0.961 . S
H3719 C3703 0.961 . S
H3720 C3704 0.931 . S
H3721 C3709 0.930 . S
H3722 C3710 0.956 . S
H3723 C3710 0.961 . S
H3724 C3710 0.961 . S
H3725 C3711 0.958 . S
H3726 C3711 0.961 . S
H3727 C3711 0.960 . S
C3728 C3729 1.391 . S
C3728 C3730 1.394 . S
C3728 H3744 0.931 . S
C3729 C3728 1.391 . S
C3729 C3733 1.376 . S
C3730 C3728 1.394 . S
C3730 C3731 1.369 . S
C3730 C3734 1.531 . S
C3731 C3730 1.369 . S
C3731 C3732 1.410 . S
C3731 C3739 1.503 . S
C3732 C3731 1.410 . S
C3732 C3733 1.392 . S
C3732 C3735 1.511 . S
C3733 C3729 1.376 . S
C3733 C3732 1.392 . S
C3733 H3745 0.929 . S
C3734 C3730 1.531 . S
C3734 H3746 0.960 . S
C3734 H3747 0.962 . S
C3734 H3748 0.960 . S
C3735 C3732 1.511 . S
C3735 H3749 0.961 . S
C3735 H3750 0.961 . S
C3735 H3751 0.961 . S
C3736 C3737 1.370 . S
C3736 C3738 1.363 . S
C3736 H3752 0.931 . S
C3737 C3736 1.370 . S
C3737 C3741 1.408 . S
C3738 C3736 1.363 . S
C3738 C3739 1.370 . S
C3738 C3742 1.524 . S
C3739 C3731 1.503 . S
C3739 C3738 1.370 . S
C3739 C3740 1.403 . S
C3740 C3739 1.403 . S
C3740 C3741 1.404 . S
C3740 C3743 1.539 . S
C3741 C3737 1.408 . S
C3741 C3740 1.404 . S
C3741 H3753 0.930 . S
C3742 C3738 1.524 . S
C3742 H3754 0.956 . S
C3742 H3755 0.961 . S
C3742 H3756 0.961 . S
C3743 C3740 1.539 . S
C3743 H3757 0.958 . S
C3743 H3758 0.961 . S
C3743 H3759 0.960 . S
H3744 C3728 0.931 . S
H3745 C3733 0.929 . S
H3746 C3734 0.960 . S
H3747 C3734 0.962 . S
H3748 C3734 0.960 . S
H3749 C3735 0.961 . S
H3750 C3735 0.961 . S
H3751 C3735 0.961 . S
H3752 C3736 0.931 . S
H3753 C3741 0.930 . S
H3754 C3742 0.956 . S
H3755 C3742 0.961 . S
H3756 C3742 0.961 . S
H3757 C3743 0.958 . S
H3758 C3743 0.961 . S
H3759 C3743 0.960 . S
C3760 C3761 1.391 . S
C3760 C3762 1.394 . S
C3760 H3776 0.931 . S
C3761 C3760 1.391 . S
C3761 C3765 1.376 . S
C3762 C3760 1.394 . S
C3762 C3763 1.369 . S
C3762 C3766 1.531 . S
C3763 C3762 1.369 . S
C3763 C3764 1.410 . S
C3763 C3771 1.503 . S
C3764 C3763 1.410 . S
C3764 C3765 1.392 . S
C3764 C3767 1.511 . S
C3765 C3761 1.376 . S
C3765 C3764 1.392 . S
C3765 H3777 0.929 . S
C3766 C3762 1.531 . S
C3766 H3778 0.960 . S
C3766 H3779 0.962 . S
C3766 H3780 0.960 . S
C3767 C3764 1.511 . S
C3767 H3781 0.961 . S
C3767 H3782 0.961 . S
C3767 H3783 0.961 . S
C3768 C3769 1.370 . S
C3768 C3770 1.363 . S
C3768 H3784 0.931 . S
C3769 C3768 1.370 . S
C3769 C3773 1.408 . S
C3770 C3768 1.363 . S
C3770 C3771 1.370 . S
C3770 C3774 1.524 . S
C3771 C3763 1.503 . S
C3771 C3770 1.370 . S
C3771 C3772 1.403 . S
C3772 C3771 1.403 . S
C3772 C3773 1.404 . S
C3772 C3775 1.539 . S
C3773 C3769 1.408 . S
C3773 C3772 1.404 . S
C3773 H3785 0.930 . S
C3774 C3770 1.524 . S
C3774 H3786 0.956 . S
C3774 H3787 0.961 . S
C3774 H3788 0.961 . S
C3775 C3772 1.539 . S
C3775 H3789 0.958 . S
C3775 H3790 0.961 . S
C3775 H3791 0.960 . S
H3776 C3760 0.931 . S
H3777 C3765 0.929 . S
H3778 C3766 0.960 . S
H3779 C3766 0.962 . S
H3780 C3766 0.960 . S
H3781 C3767 0.961 . S
H3782 C3767 0.961 . S
H3783 C3767 0.961 . S
H3784 C3768 0.931 . S
H3785 C3773 0.930 . S
H3786 C3774 0.956 . S
H3787 C3774 0.961 . S
H3788 C3774 0.961 . S
H3789 C3775 0.958 . S
H3790 C3775 0.961 . S
H3791 C3775 0.960 . S
C3792 C3793 1.391 . S
C3792 C3794 1.394 . S
C3792 H3808 0.931 . S
C3793 C3792 1.391 . S
C3793 C3797 1.376 . S
C3794 C3792 1.394 . S
C3794 C3795 1.369 . S
C3794 C3798 1.531 . S
C3795 C3794 1.369 . S
C3795 C3796 1.410 . S
C3795 C3803 1.503 . S
C3796 C3795 1.410 . S
C3796 C3797 1.392 . S
C3796 C3799 1.511 . S
C3797 C3793 1.376 . S
C3797 C3796 1.392 . S
C3797 H3809 0.929 . S
C3798 C3794 1.531 . S
C3798 H3810 0.960 . S
C3798 H3811 0.962 . S
C3798 H3812 0.960 . S
C3799 C3796 1.511 . S
C3799 H3813 0.961 . S
C3799 H3814 0.961 . S
C3799 H3815 0.961 . S
C3800 C3801 1.370 . S
C3800 C3802 1.363 . S
C3800 H3816 0.931 . S
C3801 C3800 1.370 . S
C3801 C3805 1.408 . S
C3802 C3800 1.363 . S
C3802 C3803 1.370 . S
C3802 C3806 1.524 . S
C3803 C3795 1.503 . S
C3803 C3802 1.370 . S
C3803 C3804 1.403 . S
C3804 C3803 1.403 . S
C3804 C3805 1.404 . S
C3804 C3807 1.539 . S
C3805 C3801 1.408 . S
C3805 C3804 1.404 . S
C3805 H3817 0.930 . S
C3806 C3802 1.524 . S
C3806 H3818 0.956 . S
C3806 H3819 0.961 . S
C3806 H3820 0.961 . S
C3807 C3804 1.539 . S
C3807 H3821 0.958 . S
C3807 H3822 0.961 . S
C3807 H3823 0.960 . S
H3808 C3792 0.931 . S
H3809 C3797 0.929 . S
H3810 C3798 0.960 . S
H3811 C3798 0.962 . S
H3812 C3798 0.960 . S
H3813 C3799 0.961 . S
H3814 C3799 0.961 . S
H3815 C3799 0.961 . S
H3816 C3800 0.931 . S
H3817 C3805 0.930 . S
H3818 C3806 0.956 . S
H3819 C3806 0.961 . S
H3820 C3806 0.961 . S
H3821 C3807 0.958 . S
H3822 C3807 0.961 . S
H3823 C3807 0.960 . S
C3824 C3825 1.391 . S
C3824 C3826 1.394 . S
C3824 H3840 0.931 . S
C3825 C3824 1.391 . S
C3825 C3829 1.376 . S
C3826 C3824 1.394 . S
C3826 C3827 1.369 . S
C3826 C3830 1.531 1_565 S
C3827 C3826 1.369 . S
C3827 C3828 1.410 . S
C3827 C3835 1.503 . S
C3828 C3827 1.410 . S
C3828 C3829 1.392 . S
C3828 C3831 1.511 . S
C3829 C3825 1.376 . S
C3829 C3828 1.392 . S
C3829 H3841 0.929 . S
C3830 C3826 1.531 1_545 S
C3830 H3842 0.960 . S
C3830 H3843 0.962 . S
C3830 H3844 0.960 . S
C3831 C3828 1.511 . S
C3831 H3845 0.961 1_554 S
C3831 H3846 0.961 . S
C3831 H3847 0.961 . S
C3832 C3833 1.370 . S
C3832 C3834 1.363 1_545 S
C3832 H3848 0.931 . S
C3833 C3832 1.370 . S
C3833 C3837 1.408 1_545 S
C3834 C3832 1.363 1_565 S
C3834 C3835 1.370 . S
C3834 C3838 1.524 1_554 S
C3835 C3827 1.503 . S
C3835 C3834 1.370 . S
C3835 C3836 1.403 . S
C3836 C3835 1.403 . S
C3836 C3837 1.404 . S
C3836 C3839 1.539 . S
C3837 C3833 1.408 1_565 S
C3837 C3836 1.404 . S
C3837 H3849 0.930 . S
C3838 C3834 1.524 1_556 S
C3838 H3850 0.974 . S
C3838 H3851 0.961 . S
C3838 H3852 0.961 . S
C3839 C3836 1.539 . S
C3839 H3853 0.958 . S
C3839 H3854 0.961 . S
C3839 H3855 0.960 . S
H3840 C3824 0.931 . S
H3841 C3829 0.929 . S
H3842 C3830 0.960 . S
H3843 C3830 0.962 . S
H3844 C3830 0.960 . S
H3845 C3831 0.961 1_556 S
H3846 C3831 0.961 . S
H3847 C3831 0.961 . S
H3848 C3832 0.931 . S
H3849 C3837 0.930 . S
H3850 C3838 0.974 . S
H3851 C3838 0.961 . S
H3852 C3838 0.961 . S
H3853 C3839 0.958 . S
H3854 C3839 0.961 . S
H3855 C3839 0.960 . S
C3856 C3857 1.391 . S
C3856 C3858 1.394 . S
C3856 H3872 0.931 . S
C3857 C3856 1.391 . S
C3857 C3861 1.376 . S
C3858 C3856 1.394 . S
C3858 C3859 1.369 . S
C3858 C3862 1.531 . S
C3859 C3858 1.369 . S
C3859 C3860 1.410 . S
C3859 C3867 1.503 . S
C3860 C3859 1.410 . S
C3860 C3861 1.392 . S
C3860 C3863 1.511 . S
C3861 C3857 1.376 . S
C3861 C3860 1.392 . S
C3861 H3873 0.929 . S
C3862 C3858 1.531 . S
C3862 H3874 0.960 . S
C3862 H3875 0.962 . S
C3862 H3876 0.960 . S
C3863 C3860 1.511 . S
C3863 H3877 0.961 . S
C3863 H3878 0.961 . S
C3863 H3879 0.961 . S
C3864 C3865 1.370 . S
C3864 C3866 1.363 . S
C3864 H3880 0.931 . S
C3865 C3864 1.370 . S
C3865 C3869 1.408 . S
C3866 C3864 1.363 . S
C3866 C3867 1.370 . S
C3866 C3870 1.524 . S
C3867 C3859 1.503 . S
C3867 C3866 1.370 . S
C3867 C3868 1.403 . S
C3868 C3867 1.403 . S
C3868 C3869 1.404 . S
C3868 C3871 1.539 . S
C3869 C3865 1.408 . S
C3869 C3868 1.404 . S
C3869 H3881 0.930 . S
C3870 C3866 1.524 . S
C3870 H3882 0.956 . S
C3870 H3883 0.961 . S
C3870 H3884 0.961 . S
C3871 C3868 1.539 . S
C3871 H3885 0.958 . S
C3871 H3886 0.961 . S
C3871 H3887 0.960 . S
H3872 C3856 0.931 . S
H3873 C3861 0.929 . S
H3874 C3862 0.960 . S
H3875 C3862 0.962 . S
H3876 C3862 0.960 . S
H3877 C3863 0.961 . S
H3878 C3863 0.961 . S
H3879 C3863 0.961 . S
H3880 C3864 0.931 . S
H3881 C3869 0.930 . S
H3882 C3870 0.956 . S
H3883 C3870 0.961 . S
H3884 C3870 0.961 . S
H3885 C3871 0.958 . S
H3886 C3871 0.961 . S
H3887 C3871 0.960 . S
C3888 C3889 1.391 . S
C3888 C3890 1.394 . S
C3888 H3904 0.931 . S
C3889 C3888 1.391 . S
C3889 C3893 1.376 . S
C3890 C3888 1.394 . S
C3890 C3891 1.369 . S
C3890 C3894 1.531 . S
C3891 C3890 1.369 . S
C3891 C3892 1.410 . S
C3891 C3899 1.503 . S
C3892 C3891 1.410 . S
C3892 C3893 1.392 . S
C3892 C3895 1.511 . S
C3893 C3889 1.376 . S
C3893 C3892 1.392 . S
C3893 H3905 0.929 . S
C3894 C3890 1.531 . S
C3894 H3906 0.960 . S
C3894 H3907 0.962 . S
C3894 H3908 0.960 . S
C3895 C3892 1.511 . S
C3895 H3909 0.961 . S
C3895 H3910 0.961 . S
C3895 H3911 0.961 . S
C3896 C3897 1.370 . S
C3896 C3898 1.363 . S
C3896 H3912 0.931 . S
C3897 C3896 1.370 . S
C3897 C3901 1.408 . S
C3898 C3896 1.363 . S
C3898 C3899 1.370 . S
C3898 C3902 1.524 . S
C3899 C3891 1.503 . S
C3899 C3898 1.370 . S
C3899 C3900 1.403 . S
C3900 C3899 1.403 . S
C3900 C3901 1.404 . S
C3900 C3903 1.539 . S
C3901 C3897 1.408 . S
C3901 C3900 1.404 . S
C3901 H3913 0.930 . S
C3902 C3898 1.524 . S
C3902 H3914 0.956 . S
C3902 H3915 0.961 . S
C3902 H3916 0.961 . S
C3903 C3900 1.539 . S
C3903 H3917 0.958 . S
C3903 H3918 0.983 . S
C3903 H3919 0.960 . S
H3904 C3888 0.931 . S
H3905 C3893 0.929 . S
H3906 C3894 0.960 . S
H3907 C3894 0.962 . S
H3908 C3894 0.960 . S
H3909 C3895 0.961 . S
H3910 C3895 0.961 . S
H3911 C3895 0.961 . S
H3912 C3896 0.931 . S
H3913 C3901 0.930 . S
H3914 C3902 0.956 . S
H3915 C3902 0.961 . S
H3916 C3902 0.961 . S
H3917 C3903 0.958 . S
H3918 C3903 0.983 . S
H3919 C3903 0.960 . S
C3920 C3921 1.391 . S
C3920 C3922 1.394 . S
C3920 H3936 0.931 . S
C3921 C3920 1.391 . S
C3921 C3925 1.376 . S
C3922 C3920 1.394 . S
C3922 C3923 1.369 . S
C3922 C3926 1.531 . S
C3923 C3922 1.369 . S
C3923 C3924 1.410 . S
C3923 C3931 1.503 . S
C3924 C3923 1.410 . S
C3924 C3925 1.392 . S
C3924 C3927 1.511 . S
C3925 C3921 1.376 . S
C3925 C3924 1.392 . S
C3925 H3937 0.929 . S
C3926 C3922 1.531 . S
C3926 H3938 0.960 . S
C3926 H3939 0.962 . S
C3926 H3940 0.960 . S
C3927 C3924 1.511 . S
C3927 H3941 0.961 . S
C3927 H3942 0.961 . S
C3927 H3943 0.961 . S
C3928 C3929 1.370 . S
C3928 C3930 1.363 . S
C3928 H3944 0.931 . S
C3929 C3928 1.370 . S
C3929 C3933 1.408 . S
C3930 C3928 1.363 . S
C3930 C3931 1.370 . S
C3930 C3934 1.524 . S
C3931 C3923 1.503 . S
C3931 C3930 1.370 . S
C3931 C3932 1.403 . S
C3932 C3931 1.403 . S
C3932 C3933 1.404 . S
C3932 C3935 1.539 . S
C3933 C3929 1.408 . S
C3933 C3932 1.404 . S
C3933 H3945 0.930 . S
C3934 C3930 1.524 . S
C3934 H3946 0.956 . S
C3934 H3947 0.961 . S
C3934 H3948 0.961 . S
C3935 C3932 1.539 . S
C3935 H3949 0.958 . S
C3935 H3950 0.961 . S
C3935 H3951 0.960 . S
H3936 C3920 0.931 . S
H3937 C3925 0.929 . S
H3938 C3926 0.960 . S
H3939 C3926 0.962 . S
H3940 C3926 0.960 . S
H3941 C3927 0.961 . S
H3942 C3927 0.961 . S
H3943 C3927 0.961 . S
H3944 C3928 0.931 . S
H3945 C3933 0.930 . S
H3946 C3934 0.956 . S
H3947 C3934 0.961 . S
H3948 C3934 0.961 . S
H3949 C3935 0.958 . S
H3950 C3935 0.961 . S
H3951 C3935 0.960 . S
C3952 C3953 1.391 . S
C3952 C3954 1.394 . S
C3952 H3968 0.931 . S
C3953 C3952 1.391 . S
C3953 C3957 1.376 . S
C3954 C3952 1.394 . S
C3954 C3955 1.369 . S
C3954 C3958 1.531 . S
C3955 C3954 1.369 . S
C3955 C3956 1.410 . S
C3955 C3963 1.503 . S
C3956 C3955 1.410 . S
C3956 C3957 1.392 . S
C3956 C3959 1.511 . S
C3957 C3953 1.376 . S
C3957 C3956 1.392 . S
C3957 H3969 0.929 . S
C3958 C3954 1.531 . S
C3958 H3970 0.960 . S
C3958 H3971 0.962 . S
C3958 H3972 0.960 . S
C3959 C3956 1.511 . S
C3959 H3973 0.961 . S
C3959 H3974 0.961 . S
C3959 H3975 0.961 . S
C3960 C3961 1.370 . S
C3960 C3962 1.363 . S
C3960 H3976 0.931 . S
C3961 C3960 1.370 . S
C3961 C3965 1.408 . S
C3962 C3960 1.363 . S
C3962 C3963 1.370 . S
C3962 C3966 1.524 . S
C3963 C3955 1.503 . S
C3963 C3962 1.370 . S
C3963 C3964 1.403 . S
C3964 C3963 1.403 . S
C3964 C3965 1.404 . S
C3964 C3967 1.539 . S
C3965 C3961 1.408 . S
C3965 C3964 1.404 . S
C3965 H3977 0.930 . S
C3966 C3962 1.524 . S
C3966 H3978 0.956 . S
C3966 H3979 0.961 . S
C3966 H3980 0.961 . S
C3967 C3964 1.539 . S
C3967 H3981 0.958 . S
C3967 H3982 0.961 . S
C3967 H3983 0.960 . S
H3968 C3952 0.931 . S
H3969 C3957 0.929 . S
H3970 C3958 0.960 . S
H3971 C3958 0.962 . S
H3972 C3958 0.960 . S
H3973 C3959 0.961 . S
H3974 C3959 0.961 . S
H3975 C3959 0.961 . S
H3976 C3960 0.931 . S
H3977 C3965 0.930 . S
H3978 C3966 0.956 . S
H3979 C3966 0.961 . S
H3980 C3966 0.961 . S
H3981 C3967 0.958 . S
H3982 C3967 0.961 . S
H3983 C3967 0.960 . S
C3984 C3985 1.391 . S
C3984 C3986 1.394 . S
C3984 H4000 0.931 . S
C3985 C3984 1.391 . S
C3985 C3989 1.376 . S
C3986 C3984 1.394 . S
C3986 C3987 1.369 . S
C3986 C3990 1.531 . S
C3987 C3986 1.369 . S
C3987 C3988 1.410 . S
C3987 C3995 1.503 . S
C3988 C3987 1.410 . S
C3988 C3989 1.392 . S
C3988 C3991 1.511 . S
C3989 C3985 1.376 . S
C3989 C3988 1.392 . S
C3989 H4001 0.929 . S
C3990 C3986 1.531 . S
C3990 H4002 0.960 . S
C3990 H4003 0.962 . S
C3990 H4004 0.960 . S
C3991 C3988 1.511 . S
C3991 H4005 0.961 . S
C3991 H4006 0.961 . S
C3991 H4007 0.961 . S
C3992 C3993 1.370 . S
C3992 C3994 1.363 . S
C3992 H4008 0.931 . S
C3993 C3992 1.370 . S
C3993 C3997 1.408 . S
C3994 C3992 1.363 . S
C3994 C3995 1.370 . S
C3994 C3998 1.524 . S
C3995 C3987 1.503 . S
C3995 C3994 1.370 . S
C3995 C3996 1.403 . S
C3996 C3995 1.403 . S
C3996 C3997 1.404 . S
C3996 C3999 1.539 . S
C3997 C3993 1.408 . S
C3997 C3996 1.404 . S
C3997 H4009 0.930 . S
C3998 C3994 1.524 . S
C3998 H4010 0.956 . S
C3998 H4011 0.961 . S
C3998 H4012 0.961 . S
C3999 C3996 1.539 . S
C3999 H4013 0.958 . S
C3999 H4014 0.961 . S
C3999 H4015 0.960 . S
H4000 C3984 0.931 . S
H4001 C3989 0.929 . S
H4002 C3990 0.960 . S
H4003 C3990 0.962 . S
H4004 C3990 0.960 . S
H4005 C3991 0.961 . S
H4006 C3991 0.961 . S
H4007 C3991 0.961 . S
H4008 C3992 0.931 . S
H4009 C3997 0.930 . S
H4010 C3998 0.956 . S
H4011 C3998 0.961 . S
H4012 C3998 0.961 . S
H4013 C3999 0.958 . S
H4014 C3999 0.961 . S
H4015 C3999 0.960 . S
C4016 C4017 1.391 . S
C4016 C4018 1.394 . S
C4016 H4032 0.931 . S
C4017 C4016 1.391 . S
C4017 C4021 1.376 . S
C4018 C4016 1.394 . S
C4018 C4019 1.369 . S
C4018 C4022 1.531 . S
C4019 C4018 1.369 . S
C4019 C4020 1.410 . S
C4019 C4027 1.503 . S
C4020 C4019 1.410 . S
C4020 C4021 1.392 . S
C4020 C4023 1.511 . S
C4021 C4017 1.376 . S
C4021 C4020 1.392 . S
C4021 H4033 0.929 . S
C4022 C4018 1.531 . S
C4022 H4034 0.960 . S
C4022 H4035 0.962 . S
C4022 H4036 0.960 . S
C4023 C4020 1.511 . S
C4023 H4037 0.961 . S
C4023 H4038 0.961 . S
C4023 H4039 0.961 . S
C4024 C4025 1.370 . S
C4024 C4026 1.363 . S
C4024 H4040 0.931 . S
C4025 C4024 1.370 . S
C4025 C4029 1.408 . S
C4026 C4024 1.363 . S
C4026 C4027 1.370 . S
C4026 C4030 1.524 . S
C4027 C4019 1.503 . S
C4027 C4026 1.370 . S
C4027 C4028 1.403 . S
C4028 C4027 1.403 . S
C4028 C4029 1.404 . S
C4028 C4031 1.539 . S
C4029 C4025 1.408 . S
C4029 C4028 1.404 . S
C4029 H4041 0.930 . S
C4030 C4026 1.524 . S
C4030 H4042 0.956 . S
C4030 H4043 0.961 . S
C4030 H4044 0.961 . S
C4031 C4028 1.539 . S
C4031 H4045 0.958 . S
C4031 H4046 0.961 . S
C4031 H4047 0.960 . S
H4032 C4016 0.931 . S
H4033 C4021 0.929 . S
H4034 C4022 0.960 . S
H4035 C4022 0.962 . S
H4036 C4022 0.960 . S
H4037 C4023 0.961 . S
H4038 C4023 0.961 . S
H4039 C4023 0.961 . S
H4040 C4024 0.931 . S
H4041 C4029 0.930 . S
H4042 C4030 0.956 . S
H4043 C4030 0.961 . S
H4044 C4030 0.961 . S
H4045 C4031 0.958 . S
H4046 C4031 0.961 . S
H4047 C4031 0.960 . S
C4048 C4049 1.391 . S
C4048 C4050 1.394 . S
C4048 H4064 0.931 . S
C4049 C4048 1.391 . S
C4049 C4053 1.376 . S
C4050 C4048 1.394 . S
C4050 C4051 1.369 . S
C4050 C4054 1.531 . S
C4051 C4050 1.369 . S
C4051 C4052 1.410 . S
C4051 C4059 1.503 . S
C4052 C4051 1.410 . S
C4052 C4053 1.392 . S
C4052 C4055 1.511 . S
C4053 C4049 1.376 . S
C4053 C4052 1.392 . S
C4053 H4065 0.929 . S
C4054 C4050 1.531 . S
C4054 H4066 0.960 . S
C4054 H4067 0.962 . S
C4054 H4068 0.960 . S
C4055 C4052 1.511 . S
C4055 H4069 0.961 . S
C4055 H4070 0.961 . S
C4055 H4071 0.961 . S
C4056 C4057 1.370 . S
C4056 C4058 1.363 . S
C4056 H4072 0.931 . S
C4057 C4056 1.370 . S
C4057 C4061 1.408 . S
C4058 C4056 1.363 . S
C4058 C4059 1.370 . S
C4058 C4062 1.524 . S
C4059 C4051 1.503 . S
C4059 C4058 1.370 . S
C4059 C4060 1.403 . S
C4060 C4059 1.403 . S
C4060 C4061 1.404 . S
C4060 C4063 1.539 . S
C4061 C4057 1.408 . S
C4061 C4060 1.404 . S
C4061 H4073 0.930 . S
C4062 C4058 1.524 . S
C4062 H4074 0.956 . S
C4062 H4075 0.961 . S
C4062 H4076 0.961 . S
C4063 C4060 1.539 . S
C4063 H4077 0.958 . S
C4063 H4078 0.961 . S
C4063 H4079 0.960 . S
H4064 C4048 0.931 . S
H4065 C4053 0.929 . S
H4066 C4054 0.960 . S
H4067 C4054 0.962 . S
H4068 C4054 0.960 . S
H4069 C4055 0.961 . S
H4070 C4055 0.961 . S
H4071 C4055 0.961 . S
H4072 C4056 0.931 . S
H4073 C4061 0.930 . S
H4074 C4062 0.956 . S
H4075 C4062 0.961 . S
H4076 C4062 0.961 . S
H4077 C4063 0.958 . S
H4078 C4063 0.961 . S
H4079 C4063 0.960 . S
C4080 C4081 1.391 . S
C4080 C4082 1.394 . S
C4080 H4096 0.931 . S
C4081 C4080 1.391 . S
C4081 C4085 1.376 . S
C4082 C4080 1.394 . S
C4082 C4083 1.369 . S
C4082 C4086 1.531 . S
C4083 C4082 1.369 . S
C4083 C4084 1.410 . S
C4083 C4091 1.503 . S
C4084 C4083 1.410 . S
C4084 C4085 1.392 . S
C4084 C4087 1.511 . S
C4085 C4081 1.376 . S
C4085 C4084 1.392 . S
C4085 H4097 0.929 . S
C4086 C4082 1.531 . S
C4086 H4098 0.960 . S
C4086 H4099 0.962 . S
C4086 H4100 0.960 . S
C4087 C4084 1.511 . S
C4087 H4101 0.961 . S
C4087 H4102 0.961 . S
C4087 H4103 0.961 . S
C4088 C4089 1.370 . S
C4088 C4090 1.363 . S
C4088 H4104 0.931 . S
C4089 C4088 1.370 . S
C4089 C4093 1.408 . S
C4090 C4088 1.363 . S
C4090 C4091 1.370 . S
C4090 C4094 1.524 . S
C4091 C4083 1.503 . S
C4091 C4090 1.370 . S
C4091 C4092 1.403 . S
C4092 C4091 1.403 . S
C4092 C4093 1.404 . S
C4092 C4095 1.539 . S
C4093 C4089 1.408 . S
C4093 C4092 1.404 . S
C4093 H4105 0.930 . S
C4094 C4090 1.524 . S
C4094 H4106 0.956 . S
C4094 H4107 0.961 . S
C4094 H4108 0.961 . S
C4095 C4092 1.539 . S
C4095 H4109 0.958 . S
C4095 H4110 0.961 . S
C4095 H4111 0.960 . S
H4096 C4080 0.931 . S
H4097 C4085 0.929 . S
H4098 C4086 0.960 . S
H4099 C4086 0.962 . S
H4100 C4086 0.960 . S
H4101 C4087 0.961 . S
H4102 C4087 0.961 . S
H4103 C4087 0.961 . S
H4104 C4088 0.931 . S
H4105 C4093 0.930 . S
H4106 C4094 0.956 . S
H4107 C4094 0.961 . S
H4108 C4094 0.961 . S
H4109 C4095 0.958 . S
H4110 C4095 0.961 . S
H4111 C4095 0.960 . S
C4112 C4113 1.391 . S
C4112 C4114 1.394 . S
C4112 H4128 0.931 . S
C4113 C4112 1.391 . S
C4113 C4117 1.376 . S
C4114 C4112 1.394 . S
C4114 C4115 1.369 . S
C4114 C4118 1.531 . S
C4115 C4114 1.369 . S
C4115 C4116 1.410 . S
C4115 C4123 1.503 . S
C4116 C4115 1.410 . S
C4116 C4117 1.392 . S
C4116 C4119 1.511 . S
C4117 C4113 1.376 . S
C4117 C4116 1.392 . S
C4117 H4129 0.929 . S
C4118 C4114 1.531 . S
C4118 H4130 0.960 . S
C4118 H4131 0.962 . S
C4118 H4132 0.960 . S
C4119 C4116 1.511 . S
C4119 H4133 0.961 . S
C4119 H4134 0.961 . S
C4119 H4135 0.961 . S
C4120 C4121 1.370 . S
C4120 C4122 1.363 . S
C4120 H4136 0.931 . S
C4121 C4120 1.370 . S
C4121 C4125 1.408 . S
C4122 C4120 1.363 . S
C4122 C4123 1.370 . S
C4122 C4126 1.524 . S
C4123 C4115 1.503 . S
C4123 C4122 1.370 . S
C4123 C4124 1.403 . S
C4124 C4123 1.403 . S
C4124 C4125 1.404 . S
C4124 C4127 1.539 . S
C4125 C4121 1.408 . S
C4125 C4124 1.404 . S
C4125 H4137 0.930 1_556 S
C4126 C4122 1.524 . S
C4126 H4138 0.956 . S
C4126 H4139 0.961 . S
C4126 H4140 0.961 . S
C4127 C4124 1.539 . S
C4127 H4141 0.958 1_556 S
C4127 H4142 0.969 . S
C4127 H4143 0.960 . S
H4128 C4112 0.931 . S
H4129 C4117 0.929 . S
H4130 C4118 0.960 . S
H4131 C4118 0.962 . S
H4132 C4118 0.960 . S
H4133 C4119 0.961 . S
H4134 C4119 0.961 . S
H4135 C4119 0.961 . S
H4136 C4120 0.931 . S
H4137 C4125 0.930 1_554 S
H4138 C4126 0.956 . S
H4139 C4126 0.961 . S
H4140 C4126 0.961 . S
H4141 C4127 0.958 1_554 S
H4142 C4127 0.969 . S
H4143 C4127 0.960 . S
C4144 C4145 1.391 . S
C4144 C4146 1.394 . S
C4144 H4160 0.931 . S
C4145 C4144 1.391 . S
C4145 C4149 1.376 . S
C4146 C4144 1.394 . S
C4146 C4147 1.369 . S
C4146 C4150 1.531 . S
C4147 C4146 1.369 . S
C4147 C4148 1.410 . S
C4147 C4155 1.503 . S
C4148 C4147 1.410 . S
C4148 C4149 1.392 . S
C4148 C4151 1.511 . S
C4149 C4145 1.376 . S
C4149 C4148 1.392 . S
C4149 H4161 0.929 . S
C4150 C4146 1.531 . S
C4150 H4162 0.960 . S
C4150 H4163 0.962 . S
C4150 H4164 0.960 . S
C4151 C4148 1.511 . S
C4151 H4165 0.961 . S
C4151 H4166 0.961 . S
C4151 H4167 0.961 . S
C4152 C4153 1.370 . S
C4152 C4154 1.363 . S
C4152 H4168 0.931 . S
C4153 C4152 1.370 . S
C4153 C4157 1.408 . S
C4154 C4152 1.363 . S
C4154 C4155 1.370 . S
C4154 C4158 1.524 . S
C4155 C4147 1.503 . S
C4155 C4154 1.370 . S
C4155 C4156 1.403 . S
C4156 C4155 1.403 . S
C4156 C4157 1.404 . S
C4156 C4159 1.539 . S
C4157 C4153 1.408 . S
C4157 C4156 1.404 . S
C4157 H4169 0.930 . S
C4158 C4154 1.524 . S
C4158 H4170 0.956 . S
C4158 H4171 0.961 . S
C4158 H4172 0.961 . S
C4159 C4156 1.539 . S
C4159 H4173 0.958 . S
C4159 H4174 0.961 . S
C4159 H4175 0.960 . S
H4160 C4144 0.931 . S
H4161 C4149 0.929 . S
H4162 C4150 0.960 . S
H4163 C4150 0.962 . S
H4164 C4150 0.960 . S
H4165 C4151 0.961 . S
H4166 C4151 0.961 . S
H4167 C4151 0.961 . S
H4168 C4152 0.931 . S
H4169 C4157 0.930 . S
H4170 C4158 0.956 . S
H4171 C4158 0.961 . S
H4172 C4158 0.961 . S
H4173 C4159 0.958 . S
H4174 C4159 0.961 . S
H4175 C4159 0.960 . S
C4176 C4177 1.391 . S
C4176 C4178 1.394 . S
C4176 H4192 0.931 . S
C4177 C4176 1.391 . S
C4177 C4181 1.376 . S
C4178 C4176 1.394 . S
C4178 C4179 1.369 . S
C4178 C4182 1.531 . S
C4179 C4178 1.369 . S
C4179 C4180 1.410 . S
C4179 C4187 1.503 . S
C4180 C4179 1.410 . S
C4180 C4181 1.392 . S
C4180 C4183 1.511 1_455 S
C4181 C4177 1.376 . S
C4181 C4180 1.392 . S
C4181 H4193 0.929 . S
C4182 C4178 1.531 . S
C4182 H4194 0.960 . S
C4182 H4195 0.962 . S
C4182 H4196 0.960 . S
C4183 C4180 1.511 1_655 S
C4183 H4197 0.961 . S
C4183 H4198 0.961 . S
C4183 H4199 0.961 . S
C4184 C4185 1.370 . S
C4184 C4186 1.363 . S
C4184 H4200 0.931 . S
C4185 C4184 1.370 . S
C4185 C4189 1.408 . S
C4186 C4184 1.363 . S
C4186 C4187 1.370 . S
C4186 C4190 1.524 . S
C4187 C4179 1.503 . S
C4187 C4186 1.370 . S
C4187 C4188 1.403 . S
C4188 C4187 1.403 . S
C4188 C4189 1.404 . S
C4188 C4191 1.539 . S
C4189 C4185 1.408 . S
C4189 C4188 1.404 . S
C4189 H4201 0.930 . S
C4190 C4186 1.524 . S
C4190 H4202 0.956 . S
C4190 H4203 0.961 . S
C4190 H4204 0.961 . S
C4191 C4188 1.539 . S
C4191 H4205 0.958 . S
C4191 H4206 0.961 . S
C4191 H4207 0.960 . S
H4192 C4176 0.931 . S
H4193 C4181 0.929 . S
H4194 C4182 0.960 . S
H4195 C4182 0.962 . S
H4196 C4182 0.960 . S
H4197 C4183 0.961 . S
H4198 C4183 0.961 . S
H4199 C4183 0.961 . S
H4200 C4184 0.931 . S
H4201 C4189 0.930 . S
H4202 C4190 0.956 . S
H4203 C4190 0.961 . S
H4204 C4190 0.961 . S
H4205 C4191 0.958 . S
H4206 C4191 0.961 . S
H4207 C4191 0.960 . S
C4208 C4209 1.391 . S
C4208 C4210 1.394 . S
C4208 H4224 0.931 . S
C4209 C4208 1.391 . S
C4209 C4213 1.376 . S
C4210 C4208 1.394 . S
C4210 C4211 1.369 . S
C4210 C4214 1.531 . S
C4211 C4210 1.369 . S
C4211 C4212 1.410 . S
C4211 C4219 1.503 . S
C4212 C4211 1.410 . S
C4212 C4213 1.392 . S
C4212 C4215 1.511 . S
C4213 C4209 1.376 . S
C4213 C4212 1.392 . S
C4213 H4225 0.929 . S
C4214 C4210 1.531 . S
C4214 H4226 0.960 . S
C4214 H4227 0.962 . S
C4214 H4228 0.960 . S
C4215 C4212 1.511 . S
C4215 H4229 0.961 . S
C4215 H4230 0.961 . S
C4215 H4231 0.961 . S
C4216 C4217 1.370 . S
C4216 C4218 1.363 . S
C4216 H4232 0.931 . S
C4217 C4216 1.370 . S
C4217 C4221 1.408 . S
C4218 C4216 1.363 . S
C4218 C4219 1.370 . S
C4218 C4222 1.524 . S
C4219 C4211 1.503 . S
C4219 C4218 1.370 . S
C4219 C4220 1.403 . S
C4220 C4219 1.403 . S
C4220 C4221 1.404 . S
C4220 C4223 1.539 . S
C4221 C4217 1.408 . S
C4221 C4220 1.404 . S
C4221 H4233 0.930 . S
C4222 C4218 1.524 . S
C4222 H4234 0.956 . S
C4222 H4235 0.961 . S
C4222 H4236 0.961 . S
C4223 C4220 1.539 . S
C4223 H4237 0.958 . S
C4223 H4238 0.961 . S
C4223 H4239 0.960 . S
H4224 C4208 0.931 . S
H4225 C4213 0.929 . S
H4226 C4214 0.960 . S
H4227 C4214 0.962 . S
H4228 C4214 0.960 . S
H4229 C4215 0.961 . S
H4230 C4215 0.961 . S
H4231 C4215 0.961 . S
H4232 C4216 0.931 . S
H4233 C4221 0.930 . S
H4234 C4222 0.956 . S
H4235 C4222 0.961 . S
H4236 C4222 0.961 . S
H4237 C4223 0.958 . S
H4238 C4223 0.961 . S
H4239 C4223 0.960 . S
C4240 C4241 1.391 . S
C4240 C4242 1.394 . S
C4240 H4256 0.931 . S
C4241 C4240 1.391 . S
C4241 C4245 1.376 . S
C4242 C4240 1.394 . S
C4242 C4243 1.369 . S
C4242 C4246 1.531 . S
C4243 C4242 1.369 . S
C4243 C4244 1.410 . S
C4243 C4251 1.503 . S
C4244 C4243 1.410 . S
C4244 C4245 1.392 . S
C4244 C4247 1.511 . S
C4245 C4241 1.376 . S
C4245 C4244 1.392 . S
C4245 H4257 0.929 . S
C4246 C4242 1.531 . S
C4246 H4258 0.960 . S
C4246 H4259 0.962 . S
C4246 H4260 0.960 . S
C4247 C4244 1.511 . S
C4247 H4261 0.961 . S
C4247 H4262 0.961 . S
C4247 H4263 0.961 . S
C4248 C4249 1.370 . S
C4248 C4250 1.363 . S
C4248 H4264 0.931 . S
C4249 C4248 1.370 . S
C4249 C4253 1.408 . S
C4250 C4248 1.363 . S
C4250 C4251 1.370 . S
C4250 C4254 1.524 . S
C4251 C4243 1.503 . S
C4251 C4250 1.370 . S
C4251 C4252 1.403 . S
C4252 C4251 1.403 . S
C4252 C4253 1.404 . S
C4252 C4255 1.539 . S
C4253 C4249 1.408 . S
C4253 C4252 1.404 . S
C4253 H4265 0.930 . S
C4254 C4250 1.524 . S
C4254 H4266 0.956 . S
C4254 H4267 0.961 . S
C4254 H4268 0.961 . S
C4255 C4252 1.539 . S
C4255 H4269 0.958 . S
C4255 H4270 0.961 . S
C4255 H4271 0.960 . S
H4256 C4240 0.931 . S
H4257 C4245 0.929 . S
H4258 C4246 0.960 . S
H4259 C4246 0.962 . S
H4260 C4246 0.960 . S
H4261 C4247 0.961 . S
H4262 C4247 0.961 . S
H4263 C4247 0.961 . S
H4264 C4248 0.931 . S
H4265 C4253 0.930 . S
H4266 C4254 0.956 . S
H4267 C4254 0.961 . S
H4268 C4254 0.961 . S
H4269 C4255 0.958 . S
H4270 C4255 0.961 . S
H4271 C4255 0.960 . S
C4272 C4273 1.391 . S
C4272 C4274 1.394 . S
C4272 H4288 0.931 . S
C4273 C4272 1.391 . S
C4273 C4277 1.376 . S
C4274 C4272 1.394 . S
C4274 C4275 1.369 . S
C4274 C4278 1.531 . S
C4275 C4274 1.369 . S
C4275 C4276 1.410 . S
C4275 C4283 1.503 . S
C4276 C4275 1.410 . S
C4276 C4277 1.392 . S
C4276 C4279 1.511 . S
C4277 C4273 1.376 . S
C4277 C4276 1.392 . S
C4277 H4289 0.929 . S
C4278 C4274 1.531 . S
C4278 H4290 0.960 . S
C4278 H4291 0.962 . S
C4278 H4292 0.960 . S
C4279 C4276 1.511 . S
C4279 H4293 0.961 . S
C4279 H4294 0.961 . S
C4279 H4295 0.961 . S
C4280 C4281 1.370 . S
C4280 C4282 1.363 . S
C4280 H4296 0.931 . S
C4281 C4280 1.370 . S
C4281 C4285 1.408 . S
C4282 C4280 1.363 . S
C4282 C4283 1.370 . S
C4282 C4286 1.524 . S
C4283 C4275 1.503 . S
C4283 C4282 1.370 . S
C4283 C4284 1.403 . S
C4284 C4283 1.403 . S
C4284 C4285 1.404 . S
C4284 C4287 1.539 . S
C4285 C4281 1.408 . S
C4285 C4284 1.404 . S
C4285 H4297 0.930 . S
C4286 C4282 1.524 . S
C4286 H4298 0.956 . S
C4286 H4299 0.961 . S
C4286 H4300 0.961 . S
C4287 C4284 1.539 . S
C4287 H4301 0.958 . S
C4287 H4302 0.961 . S
C4287 H4303 0.960 . S
H4288 C4272 0.931 . S
H4289 C4277 0.929 . S
H4290 C4278 0.960 . S
H4291 C4278 0.962 . S
H4292 C4278 0.960 . S
H4293 C4279 0.961 . S
H4294 C4279 0.961 . S
H4295 C4279 0.961 . S
H4296 C4280 0.931 . S
H4297 C4285 0.930 . S
H4298 C4286 0.956 . S
H4299 C4286 0.961 . S
H4300 C4286 0.961 . S
H4301 C4287 0.958 . S
H4302 C4287 0.961 . S
H4303 C4287 0.960 . S
C4304 C4305 1.391 . S
C4304 C4306 1.394 . S
C4304 H4320 0.931 . S
C4305 C4304 1.391 . S
C4305 C4309 1.376 . S
C4306 C4304 1.394 . S
C4306 C4307 1.369 . S
C4306 C4310 1.531 . S
C4307 C4306 1.369 . S
C4307 C4308 1.410 . S
C4307 C4315 1.503 . S
C4308 C4307 1.410 . S
C4308 C4309 1.392 . S
C4308 C4311 1.511 . S
C4309 C4305 1.376 . S
C4309 C4308 1.392 . S
C4309 H4321 0.929 . S
C4310 C4306 1.531 . S
C4310 H4322 0.960 . S
C4310 H4323 0.962 . S
C4310 H4324 0.960 . S
C4311 C4308 1.511 . S
C4311 H4325 0.961 . S
C4311 H4326 0.961 . S
C4311 H4327 0.961 . S
C4312 C4313 1.370 . S
C4312 C4314 1.363 1_554 S
C4312 H4328 0.931 . S
C4313 C4312 1.370 . S
C4313 C4317 1.408 1_554 S
C4314 C4312 1.363 1_556 S
C4314 C4315 1.370 . S
C4314 C4318 1.524 . S
C4315 C4307 1.503 . S
C4315 C4314 1.370 . S
C4315 C4316 1.403 . S
C4316 C4315 1.403 . S
C4316 C4317 1.404 . S
C4316 C4319 1.539 . S
C4317 C4313 1.408 1_556 S
C4317 C4316 1.404 . S
C4317 H4329 0.930 1_655 S
C4318 C4314 1.524 . S
C4318 H4330 0.956 . S
C4318 H4331 0.961 . S
C4318 H4332 0.961 . S
C4319 C4316 1.539 . S
C4319 H4333 0.958 . S
C4319 H4334 0.961 1_655 S
C4319 H4335 0.960 . S
H4320 C4304 0.931 . S
H4321 C4309 0.929 . S
H4322 C4310 0.960 . S
H4323 C4310 0.962 . S
H4324 C4310 0.960 . S
H4325 C4311 0.961 . S
H4326 C4311 0.961 . S
H4327 C4311 0.961 . S
H4328 C4312 0.931 . S
H4329 C4317 0.930 1_455 S
H4330 C4318 0.956 . S
H4331 C4318 0.961 . S
H4332 C4318 0.961 . S
H4333 C4319 0.958 . S
H4334 C4319 0.961 1_455 S
H4335 C4319 0.960 . S
C4336 C4337 1.391 . S
C4336 C4338 1.394 . S
C4336 H4352 0.931 . S
C4337 C4336 1.391 . S
C4337 C4341 1.376 . S
C4338 C4336 1.394 . S
C4338 C4339 1.369 . S
C4338 C4342 1.531 . S
C4339 C4338 1.369 . S
C4339 C4340 1.410 . S
C4339 C4347 1.503 . S
C4340 C4339 1.410 . S
C4340 C4341 1.392 . S
C4340 C4343 1.511 . S
C4341 C4337 1.376 . S
C4341 C4340 1.392 . S
C4341 H4353 0.929 . S
C4342 C4338 1.531 . S
C4342 H4354 0.960 . S
C4342 H4355 0.962 . S
C4342 H4356 0.960 . S
C4343 C4340 1.511 . S
C4343 H4357 0.961 . S
C4343 H4358 0.961 . S
C4343 H4359 0.961 . S
C4344 C4345 1.370 . S
C4344 C4346 1.363 . S
C4344 H4360 0.931 . S
C4345 C4344 1.370 . S
C4345 C4349 1.408 . S
C4346 C4344 1.363 . S
C4346 C4347 1.370 . S
C4346 C4350 1.524 . S
C4347 C4339 1.503 . S
C4347 C4346 1.370 . S
C4347 C4348 1.403 . S
C4348 C4347 1.403 . S
C4348 C4349 1.404 . S
C4348 C4351 1.539 . S
C4349 C4345 1.408 . S
C4349 C4348 1.404 . S
C4349 H4361 0.930 . S
C4350 C4346 1.524 . S
C4350 H4362 0.956 . S
C4350 H4363 0.961 . S
C4350 H4364 0.961 . S
C4351 C4348 1.539 . S
C4351 H4365 0.958 . S
C4351 H4366 0.961 . S
C4351 H4367 0.960 . S
H4352 C4336 0.931 . S
H4353 C4341 0.929 . S
H4354 C4342 0.960 . S
H4355 C4342 0.962 . S
H4356 C4342 0.960 . S
H4357 C4343 0.961 . S
H4358 C4343 0.961 . S
H4359 C4343 0.961 . S
H4360 C4344 0.931 . S
H4361 C4349 0.930 . S
H4362 C4350 0.956 . S
H4363 C4350 0.961 . S
H4364 C4350 0.961 . S
H4365 C4351 0.958 . S
H4366 C4351 0.961 . S
H4367 C4351 0.960 . S
C4368 C4369 1.391 . S
C4368 C4370 1.394 . S
C4368 H4384 0.931 . S
C4369 C4368 1.391 . S
C4369 C4373 1.376 . S
C4370 C4368 1.394 . S
C4370 C4371 1.369 . S
C4370 C4374 1.531 . S
C4371 C4370 1.369 . S
C4371 C4372 1.410 . S
C4371 C4379 1.503 . S
C4372 C4371 1.410 . S
C4372 C4373 1.392 . S
C4372 C4375 1.511 . S
C4373 C4369 1.376 . S
C4373 C4372 1.392 . S
C4373 H4385 0.929 . S
C4374 C4370 1.531 . S
C4374 H4386 0.960 . S
C4374 H4387 0.962 . S
C4374 H4388 0.960 . S
C4375 C4372 1.511 . S
C4375 H4389 0.961 . S
C4375 H4390 0.961 . S
C4375 H4391 0.961 . S
C4376 C4377 1.370 . S
C4376 C4378 1.363 . S
C4376 H4392 0.931 . S
C4377 C4376 1.370 . S
C4377 C4381 1.408 . S
C4378 C4376 1.363 . S
C4378 C4379 1.370 . S
C4378 C4382 1.524 . S
C4379 C4371 1.503 . S
C4379 C4378 1.370 . S
C4379 C4380 1.403 . S
C4380 C4379 1.403 . S
C4380 C4381 1.404 . S
C4380 C4383 1.539 . S
C4381 C4377 1.408 . S
C4381 C4380 1.404 . S
C4381 H4393 0.930 . S
C4382 C4378 1.524 . S
C4382 H4394 0.956 . S
C4382 H4395 0.961 . S
C4382 H4396 0.961 . S
C4383 C4380 1.539 . S
C4383 H4397 0.958 . S
C4383 H4398 0.961 . S
C4383 H4399 0.960 . S
H4384 C4368 0.931 . S
H4385 C4373 0.929 . S
H4386 C4374 0.960 . S
H4387 C4374 0.962 . S
H4388 C4374 0.960 . S
H4389 C4375 0.961 . S
H4390 C4375 0.961 . S
H4391 C4375 0.961 . S
H4392 C4376 0.931 . S
H4393 C4381 0.930 . S
H4394 C4382 0.956 . S
H4395 C4382 0.961 . S
H4396 C4382 0.961 . S
H4397 C4383 0.958 . S
H4398 C4383 0.961 . S
H4399 C4383 0.960 . S
C4400 C4401 1.391 . S
C4400 C4402 1.394 . S
C4400 H4416 0.931 . S
C4401 C4400 1.391 . S
C4401 C4405 1.376 . S
C4402 C4400 1.394 . S
C4402 C4403 1.369 . S
C4402 C4406 1.531 . S
C4403 C4402 1.369 . S
C4403 C4404 1.410 . S
C4403 C4411 1.503 . S
C4404 C4403 1.410 . S
C4404 C4405 1.392 . S
C4404 C4407 1.511 . S
C4405 C4401 1.376 . S
C4405 C4404 1.392 . S
C4405 H4417 0.929 . S
C4406 C4402 1.531 . S
C4406 H4418 0.960 . S
C4406 H4419 0.962 . S
C4406 H4420 0.960 . S
C4407 C4404 1.511 . S
C4407 H4421 0.961 . S
C4407 H4422 0.961 . S
C4407 H4423 0.961 . S
C4408 C4409 1.370 . S
C4408 C4410 1.363 . S
C4408 H4424 0.931 . S
C4409 C4408 1.370 . S
C4409 C4413 1.408 . S
C4410 C4408 1.363 . S
C4410 C4411 1.370 . S
C4410 C4414 1.524 . S
C4411 C4403 1.503 . S
C4411 C4410 1.370 . S
C4411 C4412 1.403 . S
C4412 C4411 1.403 . S
C4412 C4413 1.404 . S
C4412 C4415 1.539 . S
C4413 C4409 1.408 . S
C4413 C4412 1.404 . S
C4413 H4425 0.930 . S
C4414 C4410 1.524 . S
C4414 H4426 0.956 . S
C4414 H4427 0.961 . S
C4414 H4428 0.961 . S
C4415 C4412 1.539 . S
C4415 H4429 0.958 . S
C4415 H4430 0.961 . S
C4415 H4431 0.960 . S
H4416 C4400 0.931 . S
H4417 C4405 0.929 . S
H4418 C4406 0.960 . S
H4419 C4406 0.962 . S
H4420 C4406 0.960 . S
H4421 C4407 0.961 . S
H4422 C4407 0.961 . S
H4423 C4407 0.961 . S
H4424 C4408 0.931 . S
H4425 C4413 0.930 . S
H4426 C4414 0.956 . S
H4427 C4414 0.961 . S
H4428 C4414 0.961 . S
H4429 C4415 0.958 . S
H4430 C4415 0.961 . S
H4431 C4415 0.960 . S
C4432 C4433 1.391 . S
C4432 C4434 1.394 . S
C4432 H4448 0.931 . S
C4433 C4432 1.391 . S
C4433 C4437 1.376 . S
C4434 C4432 1.394 . S
C4434 C4435 1.369 . S
C4434 C4438 1.531 . S
C4435 C4434 1.369 . S
C4435 C4436 1.410 . S
C4435 C4443 1.503 . S
C4436 C4435 1.410 . S
C4436 C4437 1.392 . S
C4436 C4439 1.511 . S
C4437 C4433 1.376 . S
C4437 C4436 1.392 . S
C4437 H4449 0.929 . S
C4438 C4434 1.531 . S
C4438 H4450 0.960 . S
C4438 H4451 0.962 . S
C4438 H4452 0.960 . S
C4439 C4436 1.511 . S
C4439 H4453 0.961 . S
C4439 H4454 0.961 . S
C4439 H4455 0.961 . S
C4440 C4441 1.370 . S
C4440 C4442 1.363 . S
C4440 H4456 0.931 . S
C4441 C4440 1.370 . S
C4441 C4445 1.408 . S
C4442 C4440 1.363 . S
C4442 C4443 1.370 . S
C4442 C4446 1.524 . S
C4443 C4435 1.503 . S
C4443 C4442 1.370 . S
C4443 C4444 1.403 . S
C4444 C4443 1.403 . S
C4444 C4445 1.404 . S
C4444 C4447 1.539 . S
C4445 C4441 1.408 . S
C4445 C4444 1.404 . S
C4445 H4457 0.930 . S
C4446 C4442 1.524 . S
C4446 H4458 0.956 . S
C4446 H4459 0.961 . S
C4446 H4460 0.961 . S
C4447 C4444 1.539 . S
C4447 H4461 0.958 . S
C4447 H4462 0.961 . S
C4447 H4463 0.960 . S
H4448 C4432 0.931 . S
H4449 C4437 0.929 . S
H4450 C4438 0.960 . S
H4451 C4438 0.962 . S
H4452 C4438 0.960 . S
H4453 C4439 0.961 . S
H4454 C4439 0.961 . S
H4455 C4439 0.961 . S
H4456 C4440 0.931 . S
H4457 C4445 0.930 . S
H4458 C4446 0.956 . S
H4459 C4446 0.961 . S
H4460 C4446 0.961 . S
H4461 C4447 0.958 . S
H4462 C4447 0.961 . S
H4463 C4447 0.960 . S
C4464 C4465 1.391 . S
C4464 C4466 1.394 . S
C4464 H4480 0.931 . S
C4465 C4464 1.391 . S
C4465 C4469 1.376 . S
C4466 C4464 1.394 . S
C4466 C4467 1.369 . S
C4466 C4470 1.531 . S
C4467 C4466 1.369 . S
C4467 C4468 1.410 . S
C4467 C4475 1.503 . S
C4468 C4467 1.410 . S
C4468 C4469 1.392 . S
C4468 C4471 1.511 . S
C4469 C4465 1.376 . S
C4469 C4468 1.392 . S
C4469 H4481 0.929 . S
C4470 C4466 1.531 . S
C4470 H4482 0.960 . S
C4470 H4483 0.962 . S
C4470 H4484 0.960 . S
C4471 C4468 1.511 . S
C4471 H4485 0.961 . S
C4471 H4486 0.961 . S
C4471 H4487 0.961 . S
C4472 C4473 1.370 . S
C4472 C4474 1.363 . S
C4472 H4488 0.931 . S
C4473 C4472 1.370 . S
C4473 C4477 1.408 . S
C4474 C4472 1.363 . S
C4474 C4475 1.370 . S
C4474 C4478 1.524 . S
C4475 C4467 1.503 . S
C4475 C4474 1.370 . S
C4475 C4476 1.403 . S
C4476 C4475 1.403 . S
C4476 C4477 1.404 . S
C4476 C4479 1.539 . S
C4477 C4473 1.408 . S
C4477 C4476 1.404 . S
C4477 H4489 0.930 . S
C4478 C4474 1.524 . S
C4478 H4490 0.956 . S
C4478 H4491 0.961 . S
C4478 H4492 0.961 . S
C4479 C4476 1.539 . S
C4479 H4493 0.958 . S
C4479 H4494 0.961 . S
C4479 H4495 0.960 . S
H4480 C4464 0.931 . S
H4481 C4469 0.929 . S
H4482 C4470 0.960 . S
H4483 C4470 0.962 . S
H4484 C4470 0.960 . S
H4485 C4471 0.961 . S
H4486 C4471 0.961 . S
H4487 C4471 0.961 . S
H4488 C4472 0.931 . S
H4489 C4477 0.930 . S
H4490 C4478 0.956 . S
H4491 C4478 0.961 . S
H4492 C4478 0.961 . S
H4493 C4479 0.958 . S
H4494 C4479 0.961 . S
H4495 C4479 0.960 . S
C4496 C4497 1.391 . S
C4496 C4498 1.394 . S
C4496 H4512 0.931 . S
C4497 C4496 1.391 . S
C4497 C4501 1.376 . S
C4498 C4496 1.394 . S
C4498 C4499 1.369 . S
C4498 C4502 1.531 . S
C4499 C4498 1.369 . S
C4499 C4500 1.410 . S
C4499 C4507 1.503 . S
C4500 C4499 1.410 . S
C4500 C4501 1.392 . S
C4500 C4503 1.511 . S
C4501 C4497 1.376 . S
C4501 C4500 1.392 . S
C4501 H4513 0.929 . S
C4502 C4498 1.531 . S
C4502 H4514 0.960 . S
C4502 H4515 0.962 . S
C4502 H4516 0.960 . S
C4503 C4500 1.511 . S
C4503 H4517 0.961 . S
C4503 H4518 0.961 . S
C4503 H4519 0.961 . S
C4504 C4505 1.370 . S
C4504 C4506 1.363 . S
C4504 H4520 0.931 . S
C4505 C4504 1.370 . S
C4505 C4509 1.408 . S
C4506 C4504 1.363 . S
C4506 C4507 1.370 . S
C4506 C4510 1.524 . S
C4507 C4499 1.503 . S
C4507 C4506 1.370 . S
C4507 C4508 1.403 . S
C4508 C4507 1.403 . S
C4508 C4509 1.404 . S
C4508 C4511 1.539 . S
C4509 C4505 1.408 . S
C4509 C4508 1.404 . S
C4509 H4521 0.930 . S
C4510 C4506 1.524 . S
C4510 H4522 0.956 . S
C4510 H4523 0.961 . S
C4510 H4524 0.961 . S
C4511 C4508 1.539 . S
C4511 H4525 0.958 . S
C4511 H4526 0.961 . S
C4511 H4527 0.960 . S
H4512 C4496 0.931 . S
H4513 C4501 0.929 . S
H4514 C4502 0.960 . S
H4515 C4502 0.962 . S
H4516 C4502 0.960 . S
H4517 C4503 0.961 . S
H4518 C4503 0.961 . S
H4519 C4503 0.961 . S
H4520 C4504 0.931 . S
H4521 C4509 0.930 . S
H4522 C4510 0.956 . S
H4523 C4510 0.961 . S
H4524 C4510 0.961 . S
H4525 C4511 0.958 . S
H4526 C4511 0.961 . S
H4527 C4511 0.960 . S
C4528 C4529 1.391 . S
C4528 C4530 1.394 . S
C4528 H4544 0.931 . S
C4529 C4528 1.391 . S
C4529 C4533 1.376 . S
C4530 C4528 1.394 . S
C4530 C4531 1.369 . S
C4530 C4534 1.531 . S
C4531 C4530 1.369 . S
C4531 C4532 1.410 . S
C4531 C4539 1.503 . S
C4532 C4531 1.410 . S
C4532 C4533 1.392 . S
C4532 C4535 1.511 . S
C4533 C4529 1.376 . S
C4533 C4532 1.392 . S
C4533 H4545 0.929 . S
C4534 C4530 1.531 . S
C4534 H4546 0.960 . S
C4534 H4547 0.962 . S
C4534 H4548 0.960 . S
C4535 C4532 1.511 . S
C4535 H4549 0.961 . S
C4535 H4550 0.961 . S
C4535 H4551 0.961 . S
C4536 C4537 1.370 . S
C4536 C4538 1.363 . S
C4536 H4552 0.931 . S
C4537 C4536 1.370 . S
C4537 C4541 1.408 1_565 S
C4538 C4536 1.363 . S
C4538 C4539 1.370 . S
C4538 C4542 1.524 . S
C4539 C4531 1.503 . S
C4539 C4538 1.370 . S
C4539 C4540 1.403 . S
C4540 C4539 1.403 . S
C4540 C4541 1.404 1_565 S
C4540 C4543 1.539 1_565 S
C4541 C4537 1.408 1_545 S
C4541 C4540 1.404 1_545 S
C4541 H4553 0.930 . S
C4542 C4538 1.524 . S
C4542 H4554 0.956 . S
C4542 H4555 0.961 . S
C4542 H4556 0.961 . S
C4543 C4540 1.539 1_545 S
C4543 H4557 0.958 . S
C4543 H4558 0.961 . S
C4543 H4559 0.960 1_545 S
H4544 C4528 0.931 . S
H4545 C4533 0.929 . S
H4546 C4534 0.960 . S
H4547 C4534 0.962 . S
H4548 C4534 0.960 . S
H4549 C4535 0.961 . S
H4550 C4535 0.961 . S
H4551 C4535 0.961 . S
H4552 C4536 0.931 . S
H4553 C4541 0.930 . S
H4554 C4542 0.956 . S
H4555 C4542 0.961 . S
H4556 C4542 0.961 . S
H4557 C4543 0.958 . S
H4558 C4543 0.961 . S
H4559 C4543 0.960 1_565 S
C4560 C4561 1.391 . S
C4560 C4562 1.394 . S
C4560 H4576 0.931 . S
C4561 C4560 1.391 . S
C4561 C4565 1.376 . S
C4562 C4560 1.394 . S
C4562 C4563 1.369 . S
C4562 C4566 1.531 . S
C4563 C4562 1.369 . S
C4563 C4564 1.410 . S
C4563 C4571 1.503 . S
C4564 C4563 1.410 . S
C4564 C4565 1.392 . S
C4564 C4567 1.511 . S
C4565 C4561 1.376 . S
C4565 C4564 1.392 . S
C4565 H4577 0.929 . S
C4566 C4562 1.531 . S
C4566 H4578 0.960 . S
C4566 H4579 0.962 . S
C4566 H4580 0.960 . S
C4567 C4564 1.511 . S
C4567 H4581 0.961 . S
C4567 H4582 0.961 . S
C4567 H4583 0.961 . S
C4568 C4569 1.370 . S
C4568 C4570 1.363 . S
C4568 H4584 0.931 . S
C4569 C4568 1.370 . S
C4569 C4573 1.408 . S
C4570 C4568 1.363 . S
C4570 C4571 1.370 . S
C4570 C4574 1.524 . S
C4571 C4563 1.503 . S
C4571 C4570 1.370 . S
C4571 C4572 1.403 . S
C4572 C4571 1.403 . S
C4572 C4573 1.404 . S
C4572 C4575 1.539 . S
C4573 C4569 1.408 . S
C4573 C4572 1.404 . S
C4573 H4585 0.930 . S
C4574 C4570 1.524 . S
C4574 H4586 0.956 . S
C4574 H4587 0.961 . S
C4574 H4588 0.961 . S
C4575 C4572 1.539 . S
C4575 H4589 0.958 . S
C4575 H4590 0.961 . S
C4575 H4591 0.960 . S
H4576 C4560 0.931 . S
H4577 C4565 0.929 . S
H4578 C4566 0.960 . S
H4579 C4566 0.962 . S
H4580 C4566 0.960 . S
H4581 C4567 0.961 . S
H4582 C4567 0.961 . S
H4583 C4567 0.961 . S
H4584 C4568 0.931 . S
H4585 C4573 0.930 . S
H4586 C4574 0.956 . S
H4587 C4574 0.961 . S
H4588 C4574 0.961 . S
H4589 C4575 0.958 . S
H4590 C4575 0.961 . S
H4591 C4575 0.960 . S
C4592 C4593 1.391 . S
C4592 C4594 1.394 . S
C4592 H4608 0.931 . S
C4593 C4592 1.391 . S
C4593 C4597 1.376 . S
C4594 C4592 1.394 . S
C4594 C4595 1.369 . S
C4594 C4598 1.531 . S
C4595 C4594 1.369 . S
C4595 C4596 1.410 . S
C4595 C4603 1.503 . S
C4596 C4595 1.410 . S
C4596 C4597 1.392 . S
C4596 C4599 1.511 . S
C4597 C4593 1.376 . S
C4597 C4596 1.392 . S
C4597 H4609 0.929 . S
C4598 C4594 1.531 . S
C4598 H4610 0.960 . S
C4598 H4611 0.962 . S
C4598 H4612 0.960 . S
C4599 C4596 1.511 . S
C4599 H4613 0.961 . S
C4599 H4614 0.961 . S
C4599 H4615 0.961 . S
C4600 C4601 1.370 . S
C4600 C4602 1.363 . S
C4600 H4616 0.931 . S
C4601 C4600 1.370 . S
C4601 C4605 1.408 . S
C4602 C4600 1.363 . S
C4602 C4603 1.370 . S
C4602 C4606 1.524 . S
C4603 C4595 1.503 . S
C4603 C4602 1.370 . S
C4603 C4604 1.403 . S
C4604 C4603 1.403 . S
C4604 C4605 1.404 . S
C4604 C4607 1.539 . S
C4605 C4601 1.408 . S
C4605 C4604 1.404 . S
C4605 H4617 0.930 . S
C4606 C4602 1.524 . S
C4606 H4618 0.956 . S
C4606 H4619 0.961 . S
C4606 H4620 0.961 . S
C4607 C4604 1.539 . S
C4607 H4621 0.958 . S
C4607 H4622 0.961 . S
C4607 H4623 0.960 . S
H4608 C4592 0.931 . S
H4609 C4597 0.929 . S
H4610 C4598 0.960 . S
H4611 C4598 0.962 . S
H4612 C4598 0.960 . S
H4613 C4599 0.961 . S
H4614 C4599 0.961 . S
H4615 C4599 0.961 . S
H4616 C4600 0.931 . S
H4617 C4605 0.930 . S
H4618 C4606 0.956 . S
H4619 C4606 0.961 . S
H4620 C4606 0.961 . S
H4621 C4607 0.958 . S
H4622 C4607 0.961 . S
H4623 C4607 0.960 . S
C4624 C4625 1.391 . S
C4624 C4626 1.394 . S
C4624 H4640 0.931 . S
C4625 C4624 1.391 . S
C4625 C4629 1.376 . S
C4626 C4624 1.394 . S
C4626 C4627 1.369 . S
C4626 C4630 1.531 . S
C4627 C4626 1.369 . S
C4627 C4628 1.410 . S
C4627 C4635 1.503 . S
C4628 C4627 1.410 . S
C4628 C4629 1.392 . S
C4628 C4631 1.511 . S
C4629 C4625 1.376 . S
C4629 C4628 1.392 . S
C4629 H4641 0.929 . S
C4630 C4626 1.531 . S
C4630 H4642 0.960 . S
C4630 H4643 0.962 . S
C4630 H4644 0.960 . S
C4631 C4628 1.511 . S
C4631 H4645 0.961 . S
C4631 H4646 0.961 . S
C4631 H4647 0.961 . S
C4632 C4633 1.370 . S
C4632 C4634 1.363 . S
C4632 H4648 0.931 . S
C4633 C4632 1.370 . S
C4633 C4637 1.408 . S
C4634 C4632 1.363 . S
C4634 C4635 1.370 . S
C4634 C4638 1.524 . S
C4635 C4627 1.503 . S
C4635 C4634 1.370 . S
C4635 C4636 1.403 . S
C4636 C4635 1.403 . S
C4636 C4637 1.404 . S
C4636 C4639 1.539 . S
C4637 C4633 1.408 . S
C4637 C4636 1.404 . S
C4637 H4649 0.930 . S
C4638 C4634 1.524 . S
C4638 H4650 0.956 . S
C4638 H4651 0.961 . S
C4638 H4652 0.961 . S
C4639 C4636 1.539 . S
C4639 H4653 0.958 . S
C4639 H4654 0.961 . S
C4639 H4655 0.960 . S
H4640 C4624 0.931 . S
H4641 C4629 0.929 . S
H4642 C4630 0.960 . S
H4643 C4630 0.962 . S
H4644 C4630 0.960 . S
H4645 C4631 0.961 . S
H4646 C4631 0.961 . S
H4647 C4631 0.961 . S
H4648 C4632 0.931 . S
H4649 C4637 0.930 . S
H4650 C4638 0.956 . S
H4651 C4638 0.961 . S
H4652 C4638 0.961 . S
H4653 C4639 0.958 . S
H4654 C4639 0.961 . S
H4655 C4639 0.960 . S
C4656 C4657 1.391 . S
C4656 C4658 1.394 . S
C4656 H4672 0.931 . S
C4657 C4656 1.391 . S
C4657 C4661 1.376 . S
C4658 C4656 1.394 . S
C4658 C4659 1.369 . S
C4658 C4662 1.531 . S
C4659 C4658 1.369 . S
C4659 C4660 1.410 . S
C4659 C4667 1.503 . S
C4660 C4659 1.410 . S
C4660 C4661 1.392 . S
C4660 C4663 1.511 . S
C4661 C4657 1.376 . S
C4661 C4660 1.392 . S
C4661 H4673 0.929 . S
C4662 C4658 1.531 . S
C4662 H4674 0.960 . S
C4662 H4675 0.962 . S
C4662 H4676 0.960 . S
C4663 C4660 1.511 . S
C4663 H4677 0.961 . S
C4663 H4678 0.961 . S
C4663 H4679 0.961 . S
C4664 C4665 1.370 . S
C4664 C4666 1.363 . S
C4664 H4680 0.931 . S
C4665 C4664 1.370 . S
C4665 C4669 1.408 . S
C4666 C4664 1.363 . S
C4666 C4667 1.370 . S
C4666 C4670 1.524 . S
C4667 C4659 1.503 . S
C4667 C4666 1.370 . S
C4667 C4668 1.403 . S
C4668 C4667 1.403 . S
C4668 C4669 1.404 . S
C4668 C4671 1.539 . S
C4669 C4665 1.408 . S
C4669 C4668 1.404 . S
C4669 H4681 0.930 . S
C4670 C4666 1.524 . S
C4670 H4682 0.956 . S
C4670 H4683 0.961 . S
C4670 H4684 0.961 . S
C4671 C4668 1.539 . S
C4671 H4685 0.958 . S
C4671 H4686 0.961 . S
C4671 H4687 0.960 . S
H4672 C4656 0.931 . S
H4673 C4661 0.929 . S
H4674 C4662 0.960 . S
H4675 C4662 0.962 . S
H4676 C4662 0.960 . S
H4677 C4663 0.961 . S
H4678 C4663 0.961 . S
H4679 C4663 0.961 . S
H4680 C4664 0.931 . S
H4681 C4669 0.930 . S
H4682 C4670 0.956 . S
H4683 C4670 0.961 . S
H4684 C4670 0.961 . S
H4685 C4671 0.958 . S
H4686 C4671 0.961 . S
H4687 C4671 0.960 . S
C4688 C4689 1.391 . S
C4688 C4690 1.394 . S
C4688 H4704 0.931 . S
C4689 C4688 1.391 . S
C4689 C4693 1.376 . S
C4690 C4688 1.394 . S
C4690 C4691 1.369 . S
C4690 C4694 1.531 . S
C4691 C4690 1.369 . S
C4691 C4692 1.410 . S
C4691 C4699 1.503 . S
C4692 C4691 1.410 . S
C4692 C4693 1.392 . S
C4692 C4695 1.511 . S
C4693 C4689 1.376 . S
C4693 C4692 1.392 . S
C4693 H4705 0.929 . S
C4694 C4690 1.531 . S
C4694 H4706 0.960 . S
C4694 H4707 0.962 . S
C4694 H4708 0.960 . S
C4695 C4692 1.511 . S
C4695 H4709 0.961 . S
C4695 H4710 0.961 . S
C4695 H4711 0.961 . S
C4696 C4697 1.370 . S
C4696 C4698 1.363 . S
C4696 H4712 0.931 . S
C4697 C4696 1.370 . S
C4697 C4701 1.408 . S
C4698 C4696 1.363 . S
C4698 C4699 1.370 . S
C4698 C4702 1.524 . S
C4699 C4691 1.503 . S
C4699 C4698 1.370 . S
C4699 C4700 1.403 . S
C4700 C4699 1.403 . S
C4700 C4701 1.404 . S
C4700 C4703 1.539 . S
C4701 C4697 1.408 . S
C4701 C4700 1.404 . S
C4701 H4713 0.930 . S
C4702 C4698 1.524 . S
C4702 H4714 0.956 . S
C4702 H4715 0.961 . S
C4702 H4716 0.961 . S
C4703 C4700 1.539 . S
C4703 H4717 0.958 . S
C4703 H4718 0.961 . S
C4703 H4719 0.960 . S
H4704 C4688 0.931 . S
H4705 C4693 0.929 . S
H4706 C4694 0.960 . S
H4707 C4694 0.962 . S
H4708 C4694 0.960 . S
H4709 C4695 0.961 . S
H4710 C4695 0.961 . S
H4711 C4695 0.961 . S
H4712 C4696 0.931 . S
H4713 C4701 0.930 . S
H4714 C4702 0.956 . S
H4715 C4702 0.961 . S
H4716 C4702 0.961 . S
H4717 C4703 0.958 . S
H4718 C4703 0.961 . S
H4719 C4703 0.960 . S
C4720 C4721 1.391 . S
C4720 C4722 1.394 . S
C4720 H4736 0.931 . S
C4721 C4720 1.391 . S
C4721 C4725 1.376 . S
C4722 C4720 1.394 . S
C4722 C4723 1.369 . S
C4722 C4726 1.531 . S
C4723 C4722 1.369 . S
C4723 C4724 1.410 . S
C4723 C4731 1.503 . S
C4724 C4723 1.410 . S
C4724 C4725 1.392 . S
C4724 C4727 1.511 . S
C4725 C4721 1.376 . S
C4725 C4724 1.392 . S
C4725 H4737 0.929 . S
C4726 C4722 1.531 . S
C4726 H4738 0.960 . S
C4726 H4739 0.962 . S
C4726 H4740 0.960 . S
C4727 C4724 1.511 . S
C4727 H4741 0.961 . S
C4727 H4742 0.961 . S
C4727 H4743 0.961 . S
C4728 C4729 1.370 . S
C4728 C4730 1.363 . S
C4728 H4744 0.931 . S
C4729 C4728 1.370 . S
C4729 C4733 1.408 . S
C4730 C4728 1.363 . S
C4730 C4731 1.370 . S
C4730 C4734 1.524 . S
C4731 C4723 1.503 . S
C4731 C4730 1.370 . S
C4731 C4732 1.403 . S
C4732 C4731 1.403 . S
C4732 C4733 1.404 . S
C4732 C4735 1.539 . S
C4733 C4729 1.408 . S
C4733 C4732 1.404 . S
C4733 H4745 0.930 . S
C4734 C4730 1.524 . S
C4734 H4746 0.956 . S
C4734 H4747 0.961 . S
C4734 H4748 0.961 . S
C4735 C4732 1.539 . S
C4735 H4749 0.958 . S
C4735 H4750 0.961 . S
C4735 H4751 0.960 . S
H4736 C4720 0.931 . S
H4737 C4725 0.929 . S
H4738 C4726 0.960 . S
H4739 C4726 0.962 . S
H4740 C4726 0.960 . S
H4741 C4727 0.961 . S
H4742 C4727 0.961 . S
H4743 C4727 0.961 . S
H4744 C4728 0.931 . S
H4745 C4733 0.930 . S
H4746 C4734 0.956 . S
H4747 C4734 0.961 . S
H4748 C4734 0.961 . S
H4749 C4735 0.958 . S
H4750 C4735 0.961 . S
H4751 C4735 0.960 . S
C1681 C106 2.399 . S
C1689 C392 2.460 . S
C1713 C65 1.852 . S
C1721 C494 1.841 . S
C1745 C79 2.110 . S
C1753 C560 2.160 . S
C1785 C646 1.183 . S
C1777 C90 1.228 . S
C1809 C21 1.251 . S
C1817 C730 1.234 . S
C1849 C812 1.795 . S
C1841 C35 1.754 . S
C1881 C914 1.904 . S
C1873 C50 1.922 . S
C1905 C6 2.001 . S
C1913 C980 2.071 . S
C1945 C410 1.899 . S
C1937 C232 1.903 . S
C1969 C245 0.949 . S
C1977 C478 0.932 . S
C2009 C578 1.208 . S
C2001 C274 1.201 . S
C2041 C644 1.632 . S
C2033 C175 1.584 . S
C2065 C231 1.465 . S
C2073 C728 1.480 . S
C2105 C830 1.120 . S
C2097 C246 1.126 . S
C2137 C898 0.850 . S
C2129 C273 0.792 . S
C2169 C998 1.815 . S
C2161 C176 1.835 . S
C2201 C394 1.029 . S
C2193 C160 1.050 . S
C2225 C289 1.663 . S
C2233 C1082 1.657 . S
C2265 C1150 1.363 . S
C2257 C328 1.385 . S
C2297 C1232 0.985 . S
C2289 C317 0.970 . S
C2321 C118 0.952 . S
C2329 C982 1.022 . S
C2353 C132 1.318 . S
C2361 C562 1.346 . S
C2385 C331 1.739 . S
C2393 C1334 1.728 . S
C2425 C1400 1.057 . S
C2417 C303 1.063 . S
C2457 C403 2.083 . S
C2449 C63 2.059 . S
C2489 C1407 2.297 . S
C2481 C107 2.254 . S
C2513 C92 1.977 . S
C2521 C571 2.048 . S
C2545 C78 1.805 . S
C2553 C1329 1.682 . S
C2585 C741 1.682 . S
C2577 C8 1.805 . S
C2609 C51 1.987 . S
C2617 C1159 2.051 . S
C2649 C903 2.293 1_556 S
C2641 C37 2.232 . S
C2681 C1495 2.084 . S
C2673 C20 2.070 . S
C2713 C399 1.739 1_556 S
C2705 C147 1.736 . S
C2745 C1413 1.077 . S
C2737 C316 1.129 . S
C2769 C119 1.173 . S
C2777 C567 1.208 . S
C2801 C288 1.812 . S
C2809 C1327 1.818 . S
C2833 C148 1.801 . S
C2841 C739 1.820 . S
C2873 C1155 1.191 . S
C2865 C315 1.112 . S
C2897 C120 1.152 . S
C2905 C909 1.048 . S
C2929 C287 1.741 . S
C2937 C1491 1.739 . S
C2961 C188 0.946 . S
C2969 C405 0.910 . S
C2993 C177 1.998 . S
C3001 C1071 2.000 . S
C3025 C258 1.477 . S
C3033 C825 1.390 . S
C3057 C247 1.002 . S
C3065 C1243 1.038 . S
C3097 C1497 0.896 . S
C3089 C272 0.875 1_565 S
C3121 C216 1.225 . S
C3129 C573 1.213 . S
C3161 C651 1.998 . S
C3153 C261 1.995 . S
C3193 C487 1.046 . S
C3185 C205 1.045 . S
C3217 C76 2.026 . S
C3225 C1568 2.068 . S
C3257 C1418 1.904 . S
C3249 C93 1.921 . S
C3281 C105 1.763 . S
C3289 C1652 1.795 . S
C3313 C62 1.309 1_655 S
C3321 C1318 1.252 . S
C3345 C49 1.212 . S
C3353 C1066 1.206 . S
C3385 C1148 2.157 . S
C3377 C9 2.162 . S
C3417 C1250 1.835 . S
C3409 C22 1.851 . S
C3449 C1484 2.453 . S
C3441 C36 2.401 . S
C3481 C1586 1.825 . S
C3473 C260 1.817 . S
C3505 C189 0.797 . S
C3513 C1402 0.848 . S
C3545 C1670 1.112 . S
C3537 C204 1.142 . S
C3577 C1316 1.480 . S
C3569 C217 1.425 . S
C3609 C1064 1.636 . S
C3601 C259 1.576 . S
C3633 C190 1.210 . S
C3641 C1166 1.204 . S
C3673 C1234 0.889 . S
C3665 C203 0.886 . S
C3697 C218 1.901 . S
C3705 C1502 1.901 . S
C3737 C1570 1.045 . S
C3729 C314 0.976 . S
C3761 C135 1.737 . S
C3769 C746 1.730 . S
C3801 C814 1.326 . S
C3793 C146 1.347 . S
C3833 C896 1.056 . S
C3825 C163 1.053 . S
C3865 C1486 1.024 . S
C3857 C300 1.010 . S
C3889 C286 1.325 . S
C3897 C1654 1.355 . S
C3929 C662 1.658 . S
C3921 C149 1.663 . S
C3961 C476 0.986 . S
C3953 C121 0.988 . S
C3985 C91 2.050 . S
C3993 C1579 2.073 . S
C4025 C483 1.919 . S
C4017 C77 1.844 . S
C4049 C64 2.000 . S
C4057 C1663 2.035 . S
C4081 C104 1.431 . S
C4089 C657 1.406 . S
C4113 C34 1.438 . S
C4121 C1077 1.388 . S
C4153 C823 2.039 . S
C4145 C23 1.981 . S
C4177 C7 1.844 . S
C4185 C1239 1.919 . S
C4209 C48 2.072 . S
C4217 C991 2.069 . S
C4249 C1575 1.710 . S
C4241 C329 1.699 . S
C4273 C162 1.158 . S
C4281 C489 1.104 . S
C4313 C1659 1.183 1_655 S
C4305 C301 1.102 . S
C4337 C134 1.825 . S
C4345 C655 1.838 . S
C4369 C330 1.815 . S
C4377 C1075 1.839 . S
C4409 C819 1.192 . S
C4401 C161 1.197 . S
C4433 C302 1.169 . S
C4441 C1245 1.093 . S
C4473 C987 1.713 . S
C4465 C133 1.738 . S
C4505 C1581 1.057 . S
C4497 C244 1.069 . S
C4537 C735 1.954 1_565 S
C4529 C219 1.934 . S
C4561 C230 1.255 . S
C4569 C1161 1.208 . S
C4601 C907 1.007 . S
C4593 C191 0.974 . S
C4625 C202 1.082 . S
C4633 C993 1.022 . S
C4657 C174 1.419 . S
C4665 C1665 1.406 . S
C4697 C1323 1.959 . S
C4689 C233 1.938 . S
C4729 C1411 1.003 . S
C4721 C275 0.991 . S
