# Generated by pormake.
# Topology alb, (6,12)-cn, num edge types: 1
# Building blocks:
#     Node 0, Type 0, BuildingBlock: OJICUG_clean_sbu_0, # of connection points: 6
#     Node 1, Type 0, BuildingBlock: OJICUG_clean_sbu_0, # of connection points: 6
#     Node 2, Type 1, BuildingBlock: QEWDON_clean_sbu_0, # of connection points: 12
#     Edge 3, Type (0, 1), BuildingBlock: EZIPEK_clean_linker_0, # of connection points: 2
#     Edge 4, Type (0, 1), BuildingBlock: EZIPEK_clean_linker_0, # of connection points: 2
#     Edge 5, Type (0, 1), BuildingBlock: EZIPEK_clean_linker_0, # of connection points: 2
#     Edge 6, Type (0, 1), BuildingBlock: EZIPEK_clean_linker_0, # of connection points: 2
#     Edge 7, Type (0, 1), BuildingBlock: EZIPEK_clean_linker_0, # of connection points: 2
#     Edge 8, Type (0, 1), BuildingBlock: EZIPEK_clean_linker_0, # of connection points: 2
#     Edge 9, Type (0, 1), BuildingBlock: EZIPEK_clean_linker_0, # of connection points: 2
#     Edge 10, Type (0, 1), BuildingBlock: EZIPEK_clean_linker_0, # of connection points: 2
#     Edge 11, Type (0, 1), BuildingBlock: EZIPEK_clean_linker_0, # of connection points: 2
#     Edge 12, Type (0, 1), BuildingBlock: EZIPEK_clean_linker_0, # of connection points: 2
#     Edge 13, Type (0, 1), BuildingBlock: EZIPEK_clean_linker_0, # of connection points: 2
#     Edge 14, Type (0, 1), BuildingBlock: EZIPEK_clean_linker_0, # of connection points: 2
# Relax obj value: 0.127
# Max RMSD: 0.224
# Mean RMSD: 0.143
data_MOF--net-alb--node1-OJICUG_clean_sbu_0--node2-QEWDON_clean_sbu_0--edge1-EZIPEK_clean_linker_0
_symmetry_space_group_name_H-M    P1
_symmetry_Int_Tables_number       1
_symmetry_cell_setting            triclinic
loop_
_symmetry_equiv_pos_as_xyz
'x, y, z'
_cell_length_a     19.224706
_cell_length_b     19.321493
_cell_length_c     15.868318
_cell_angle_alpha  89.832734
_cell_angle_beta   90.311756
_cell_angle_gamma 119.5286
loop_
_atom_site_label
_atom_site_type_symbol
_atom_site_fract_x
_atom_site_fract_y
_atom_site_fract_z
_atom_type_partial_charge
Sc0 Sc 0.329 0.75261 0.12139 0.0
Sc1 Sc 0.14763 0.57695 0.16457 0.0
Sc2 Sc 0.32852 0.57503 0.153 0.0
O3 O 0.26773 0.63454 0.14527 0.0
C4 C 0.4167 0.69488 -0.00085 0.0
C5 C 0.16293 0.7011 0.0249 0.0
C6 C 0.17404 0.45184 0.05478 0.0
C7 C 0.21159 0.73925 0.267 0.0
C8 C 0.45326 0.73265 0.2374 0.0
C9 C 0.20359 0.49357 0.30305 0.0
O10 O 0.38488 0.73882 0.0086 0.0
O11 O 0.12538 0.62997 0.05311 0.0
O12 O 0.24942 0.48844 0.06416 0.0
O13 O 0.2814 0.77228 0.23536 0.0
O14 O 0.41401 0.65738 0.24056 0.0
O15 O 0.15669 0.51965 0.28095 0.0
O16 O 0.43319 0.77391 0.19186 0.0
O17 O 0.1545 0.6739 0.23937 0.0
O18 O 0.26341 0.50543 0.25921 0.0
O19 O 0.23363 0.75103 0.04774 0.0
O20 O 0.40355 0.63969 0.05083 0.0
O21 O 0.12863 0.4737 0.09064 0.0
Sc22 Sc 0.67189 0.25489 0.05403 0.0
Sc23 Sc 0.8454 0.43361 0.01059 0.0
Sc24 Sc 0.66441 0.42945 0.04229 0.0
O25 O 0.72764 0.37287 0.03653 0.0
C26 C 0.54344 0.26688 0.95096 0.0
C27 C 0.79208 0.28015 0.90279 0.0
C28 C 0.77234 0.51296 0.88769 0.0
C29 C 0.83007 0.30556 0.15001 0.0
C30 C 0.57865 0.3092 0.18282 0.0
C31 C 0.83076 0.55459 0.1281 0.0
O32 O 0.58655 0.23442 0.95766 0.0
O33 O 0.83074 0.35568 0.90667 0.0
O34 O 0.70258 0.47408 0.91805 0.0
O35 O 0.75422 0.26924 0.15228 0.0
O36 O 0.61939 0.38288 0.16562 0.0
O37 O 0.86727 0.51644 0.11137 0.0
O38 O 0.58928 0.25691 0.14547 0.0
O39 O 0.8709 0.36032 0.09674 0.0
O40 O 0.76123 0.53472 0.10004 0.0
O41 O 0.74248 0.23712 0.95924 0.0
O42 O 0.56016 0.33251 0.9853 0.0
O43 O 0.83279 0.51322 0.92168 0.0
Zn44 Zn 0.1151 0.14285 0.38868 0.0
Zn45 Zn 0.12459 0.98194 0.3845 0.0
O46 O 0.04836 0.02404 0.3894 0.0
H47 H -0.00791 0.99613 0.37536 0.0
C48 C 0.16071 0.29879 0.60046 0.0
O49 O 0.18488 0.32666 0.67682 0.0
Zn50 Zn 0.86601 0.83685 0.77011 0.0
Zn51 Zn 0.90284 0.98011 0.88085 0.0
O52 O 0.9323 0.9552 0.76797 0.0
H53 H 0.98252 0.98775 0.73989 0.0
Zn54 Zn 0.12301 0.13597 0.67026 0.0
O55 O 0.08702 0.02778 0.61906 0.0
Zn56 Zn 0.12224 0.96207 0.68907 0.0
H57 H 0.07166 0.02184 0.56046 0.0
Zn58 Zn 0.87573 -0.00166 0.53418 0.0
O59 O 0.92273 0.926 0.55535 0.0
H60 H 0.95024 0.92733 0.60659 0.0
Zn61 Zn 0.87888 0.83438 0.47436 0.0
C62 C 0.82705 0.10033 0.62894 0.0
O63 O 0.77343 0.07747 0.56832 0.0
O64 O 0.22923 0.17835 0.34867 0.0
O65 O 0.23278 0.06535 0.3374 0.0
O66 O 0.78329 0.90669 0.91037 0.0
O67 O 0.7585 0.80732 0.8223 0.0
O68 O 0.2175 0.15893 0.74753 0.0
O69 O 0.21306 0.04083 0.76029 0.0
C70 C -0.00181 0.836 0.33487 0.0
O71 O 0.77657 0.9393 0.45904 0.0
O72 O 0.78588 0.83387 0.41447 0.0
O73 O 0.9674 0.09736 0.92174 0.0
C74 C 0.26604 0.14086 0.33091 0.0
O75 O 0.05739 0.19766 0.33451 0.0
C76 C 0.00152 0.82715 0.81747 0.0
O77 O 0.13379 0.22502 0.58587 0.0
C78 C 0.73512 0.84066 0.87579 0.0
O79 O 0.87811 0.07642 0.62845 0.0
C80 C 0.16141 0.91123 0.53465 0.0
O81 O 0.07049 0.88158 0.31383 0.0
O82 O 0.9715 0.85657 0.39757 0.0
C83 C 0.24448 0.11499 0.77637 0.0
O84 O 0.92779 0.79516 0.83597 0.0
O85 O 0.02819 0.88064 0.76012 0.0
C86 C 0.83431 0.73253 0.61685 0.0
O87 O 0.16292 0.90398 0.61417 0.0
O88 O 0.13947 0.95834 0.50492 0.0
C89 C 0.75115 0.87572 0.41591 0.0
O90 O 0.83796 0.72889 0.53719 0.0
O91 O 0.8531 0.79925 0.6497 0.0
C92 C 0.0084 0.15523 0.8722 0.0
O93 O 0.01418 0.14114 0.79238 0.0
C94 C -0.00169 0.19836 0.36885 0.0
O95 O 0.97288 0.16463 0.44269 0.0
C96 C 0.15174 0.7378 0.41061 0.0
C97 C 0.19687 0.78046 0.33831 0.0
C98 C 0.23788 0.90546 0.41231 0.0
C99 C 0.18222 0.86453 0.47641 0.0
N100 N 0.08632 0.74079 0.53988 0.0
N101 N 0.26518 0.90687 0.26475 0.0
C102 C 0.13982 0.78029 0.47716 0.0
C103 C 0.23536 0.86493 0.33768 0.0
N104 N 0.12093 0.65736 0.41679 0.0
N105 N 0.29542 0.98266 0.42418 0.0
H106 H 0.25741 0.87979 0.20609 0.0
H107 H 0.28848 0.96829 0.26126 0.0
H108 H 0.30037 0.01265 0.48045 0.0
H109 H 0.34246 0.01292 0.38212 0.0
H110 H 0.09618 0.62478 0.47142 0.0
H111 H 0.12447 0.62206 0.36991 0.0
H112 H 0.04982 0.67955 0.54184 0.0
H113 H 0.07333 0.76936 0.58744 0.0
C114 C 0.43659 0.2781 0.18959 0.0
C115 C 0.50328 0.27983 0.23078 0.0
C116 C 0.41527 0.19986 0.34566 0.0
C117 C 0.34786 0.18692 0.29675 0.0
N118 N 0.29418 0.20292 0.16517 0.0
N119 N 0.55601 0.23809 0.34602 0.0
C120 C 0.35846 0.22319 0.21685 0.0
C121 C 0.49259 0.23929 0.30838 0.0
N122 N 0.44725 0.32936 0.12511 0.0
N123 N 0.40588 0.17765 0.42842 0.0
H124 H 0.61406 0.27012 0.32252 0.0
H125 H 0.55012 0.20228 0.39774 0.0
H126 H 0.35036 0.15142 0.45808 0.0
H127 H 0.45367 0.19186 0.46925 0.0
H128 H 0.40047 0.33452 0.09812 0.0
H129 H 0.50316 0.37365 0.10551 0.0
H130 H 0.30017 0.22011 0.10215 0.0
H131 H 0.23559 0.16244 0.18238 0.0
C132 C 0.17336 0.46758 0.46071 0.0
C133 C 0.1889 0.44439 0.38125 0.0
C134 C 0.21014 0.34478 0.45433 0.0
C135 C 0.17497 0.35387 0.52834 0.0
N136 N 0.11466 0.42221 0.59858 0.0
N137 N 0.20488 0.34606 0.30336 0.0
C138 C 0.15411 0.41498 0.53096 0.0
C139 C 0.20241 0.37864 0.37846 0.0
N140 N 0.18398 0.542 0.47142 0.0
N141 N 0.25561 0.3086 0.45691 0.0
H142 H 0.18598 0.3607 0.24795 0.0
H143 H 0.21388 0.29725 0.29875 0.0
H144 H 0.2656 0.28529 0.51214 0.0
H145 H 0.29258 0.31338 0.40675 0.0
H146 H 0.17912 0.56358 0.52997 0.0
H147 H 0.20913 0.58501 0.42441 0.0
H148 H 0.09275 0.462 0.59929 0.0
H149 H 0.09748 0.38367 0.64999 0.0
C150 C 0.91966 0.32723 0.2747 0.0
C151 C 0.87173 0.27768 0.20785 0.0
C152 C 0.90467 0.17474 0.24923 0.0
C153 C 0.94978 0.22297 0.31795 0.0
N154 N 0.98568 0.33558 0.40812 0.0
N155 N 0.80619 0.14836 0.14051 0.0
C156 C 0.95294 0.29648 0.33436 0.0
C157 C 0.86041 0.19959 0.19788 0.0
N158 N 0.93346 0.40354 0.28109 0.0
N159 N 0.90486 0.10538 0.2324 0.0
H160 H 0.77466 0.16432 0.09862 0.0
H161 H 0.78799 0.08795 0.13796 0.0
H162 H 0.93072 0.08134 0.27238 0.0
H163 H 0.88303 0.07352 0.17657 0.0
H164 H 0.97513 0.44538 0.32243 0.0
H165 H 0.90687 0.42689 0.24122 0.0
H166 H 0.9835 0.38583 0.42779 0.0
H167 H 0.00871 0.31324 0.45359 0.0
C168 C 0.52892 0.77453 0.37274 0.0
C169 C 0.52929 0.77405 0.28355 0.0
C170 C 0.67531 0.85304 0.28237 0.0
C171 C 0.67505 0.84551 0.37099 0.0
N172 N 0.60426 0.79389 0.50176 0.0
N173 N 0.6014 0.80485 0.15196 0.0
C174 C 0.60257 0.80525 0.41677 0.0
C175 C 0.60209 0.81172 0.23775 0.0
N176 N 0.4584 0.74767 0.41501 0.0
N177 N 0.74547 0.9006 0.2413 0.0
H178 H 0.54903 0.77473 0.11671 0.0
H179 H 0.65274 0.8238 0.11597 0.0
H180 H 0.80045 0.93069 0.27241 0.0
H181 H 0.74868 0.91564 0.17784 0.0
H182 H 0.45493 0.75415 0.47971 0.0
H183 H 0.40322 0.72469 0.38443 0.0
H184 H 0.55369 0.75717 0.53693 0.0
H185 H 0.65716 0.81683 0.53668 0.0
C186 C 0.88186 0.61785 0.26916 0.0
C187 C 0.87097 0.62623 0.18206 0.0
C188 C 0.92909 0.7705 0.19999 0.0
C189 C 0.94751 0.763 0.28508 0.0
N190 N 0.94765 0.68143 0.39964 0.0
N191 N 0.89093 0.71007 0.0613 0.0
C192 C 0.92509 0.68708 0.3195 0.0
C193 C 0.89605 0.70248 0.14655 0.0
N194 N 0.84832 0.54362 0.30435 0.0
N195 N 0.94149 0.84245 0.17107 0.0
H196 H 0.86771 0.66174 0.0201 0.0
H197 H 0.91496 0.76447 0.03026 0.0
H198 H 0.96491 0.89315 0.20893 0.0
H199 H 0.92238 0.85069 0.1123 0.0
H200 H 0.84656 0.53347 0.36897 0.0
H201 H 0.8163 0.4915 0.26944 0.0
H202 H 0.94381 0.62975 0.4245 0.0
H203 H 0.97459 0.73031 0.43973 0.0
C204 C 0.10381 0.79031 0.00314 0.0
C205 C 0.12074 0.73178 0.97016 0.0
C206 C 0.065 0.74035 0.83324 0.0
C207 C 0.05273 0.80222 0.86486 0.0
N208 N 0.07311 0.89602 0.97457 0.0
N209 N 0.12823 0.65883 0.85115 0.0
C210 C 0.07634 0.83034 0.94823 0.0
C211 C 0.10429 0.70888 0.88433 0.0
N212 N 0.11067 0.80509 0.0879 0.0
N213 N 0.03681 0.71011 0.75507 0.0
H214 H 0.15584 0.63389 0.88718 0.0
H215 H 0.12589 0.64623 0.78713 0.0
H216 H 0.01064 0.73409 0.71562 0.0
H217 H 0.03534 0.65925 0.73138 0.0
H218 H 0.09231 0.84141 0.1173 0.0
H219 H 0.12803 0.77519 0.13044 0.0
H220 H 0.09673 0.92463 0.03168 0.0
H221 H 0.05313 0.92642 0.93576 0.0
C222 C 0.46449 0.2457 0.82024 0.0
C223 C 0.46796 0.22491 0.90504 0.0
C224 C 0.3235 0.1359 0.90755 0.0
C225 C 0.3208 0.1532 0.82128 0.0
N226 N 0.38844 0.2113 0.69029 0.0
N227 N 0.40551 0.14333 0.0273 0.0
C228 C 0.39118 0.20462 0.77602 0.0
C229 C 0.3988 0.16775 0.94817 0.0
N230 N 0.53095 0.30544 0.78255 0.0
N231 N 0.254 0.09112 0.95085 0.0
H232 H 0.45979 0.1662 0.0594 0.0
H233 H 0.35867 0.09642 0.059 0.0
H234 H 0.19772 0.06629 0.92246 0.0
H235 H 0.25126 0.08318 0.01587 0.0
H236 H 0.52974 0.32982 0.72433 0.0
H237 H 0.58687 0.33448 0.8119 0.0
H238 H 0.43914 0.24092 0.65289 0.0
H239 H 0.33586 0.18153 0.65505 0.0
C240 C 0.15333 0.31563 0.01947 0.0
C241 C 0.13806 0.37925 0.00075 0.0
C242 C 0.04964 0.30113 0.88372 0.0
C243 C 0.05938 0.23566 0.9083 0.0
N244 N 0.1394 0.1887 0.9782 0.0
N245 N 0.0749 0.43502 0.9133 0.0
C246 C 0.1165 0.24523 0.97027 0.0
C247 C 0.08731 0.37275 0.93199 0.0
N248 N 0.19984 0.32029 0.08702 0.0
N249 N 0.00753 0.29597 0.8121 0.0
H250 H 0.10766 0.49098 0.94092 0.0
H251 H 0.03086 0.4314 0.87223 0.0
H252 H 0.98214 0.2458 0.77381 0.0
H253 H 0.00248 0.34278 0.78623 0.0
H254 H 0.20029 0.27108 0.11317 0.0
H255 H 0.23495 0.37205 0.12077 0.0
H256 H 0.18755 0.1959 0.01482 0.0
H257 H 0.11582 0.13758 0.94101 0.0
C258 C 0.80173 0.25832 0.74667 0.0
C259 C 0.80762 0.23919 0.83194 0.0
C260 C 0.82105 0.12593 0.78429 0.0
C261 C 0.82478 0.15044 0.69919 0.0
N262 N 0.83759 0.25233 0.60185 0.0
N263 N 0.84259 0.16672 0.9308 0.0
C264 C 0.82102 0.22057 0.68107 0.0
C265 C 0.82295 0.17629 0.85038 0.0
N266 N 0.77239 0.30807 0.72775 0.0
N267 N 0.81273 0.05343 0.80275 0.0
H268 H 0.85517 0.20901 0.97769 0.0
H269 H 0.85474 0.1221 0.9492 0.0
H270 H 0.81205 0.01413 0.75758 0.0
H271 H 0.79769 0.02964 0.8629 0.0
H272 H 0.76044 0.31847 0.66631 0.0
H273 H 0.7513 0.33148 0.77371 0.0
H274 H 0.84288 0.30742 0.58749 0.0
H275 H 0.85442 0.22784 0.55287 0.0
C276 C 0.53606 0.68478 0.95636 0.0
C277 C 0.48614 0.71844 0.94069 0.0
C278 C 0.59682 0.82376 0.86043 0.0
C279 C 0.64971 0.80083 0.89832 0.0
N280 N 0.66907 0.71746 0.99831 0.0
N281 N 0.465 0.81245 0.85997 0.0
C282 C 0.61926 0.73382 0.95126 0.0
C283 C 0.51526 0.78602 0.88709 0.0
N284 N 0.50432 0.60556 0.97267 0.0
N285 N 0.62379 0.8792 0.79755 0.0
H286 H 0.4031 0.77828 0.86603 0.0
H287 H 0.48452 0.86722 0.83068 0.0
H288 H 0.68227 0.90558 0.7755 0.0
H289 H 0.58708 0.89413 0.76265 0.0
H290 H 0.53985 0.57901 0.98062 0.0
H291 H 0.44326 0.56572 0.96589 0.0
H292 H 0.64746 0.67163 0.04268 0.0
H293 H 0.7312 0.753 0.99702 0.0
C294 C 0.74105 0.6054 0.80473 0.0
C295 C 0.78297 0.56205 0.81129 0.0
C296 C 0.84603 0.61595 0.67456 0.0
C297 C 0.8065 0.66148 0.67149 0.0
N298 N 0.69076 0.67008 0.71081 0.0
N299 N 0.85574 0.50721 0.73985 0.0
C300 C 0.74514 0.64599 0.72907 0.0
C301 C 0.82943 0.56127 0.74212 0.0
N302 N 0.7016 0.61271 0.8723 0.0
N303 N 0.90084 0.62641 0.61461 0.0
H304 H 0.84463 0.46616 0.7876 0.0
H305 H 0.88223 0.49755 0.68757 0.0
H306 H 0.91496 0.66646 0.56536 0.0
H307 H 0.93558 0.59888 0.61597 0.0
H308 H 0.67023 0.64351 0.86914 0.0
H309 H 0.70694 0.59585 0.93336 0.0
H310 H 0.63934 0.65338 0.74609 0.0
H311 H 0.6926 0.69939 0.65476 0.0
loop_
_geom_bond_atom_site_label_1
_geom_bond_atom_site_label_2
_geom_bond_distance
_geom_bond_site_symmetry_2
_ccdc_geom_bond_type
Sc0 O3 2.025 . S
Sc0 O10 2.105 . S
Sc0 O13 2.105 . S
Sc0 O16 2.105 . S
Sc0 O19 2.105 . S
Sc1 O3 2.025 . S
Sc1 O11 2.105 . S
Sc1 O15 2.105 . S
Sc1 O17 2.105 . S
Sc1 O21 2.105 . S
Sc2 O3 2.025 . S
Sc2 O12 2.105 . S
Sc2 O14 2.105 . S
Sc2 O18 2.105 . S
Sc2 O20 2.105 . S
O3 Sc0 2.025 . S
O3 Sc1 2.025 . S
O3 Sc2 2.025 . S
C4 O10 1.268 . S
C4 O20 1.268 . S
C5 O11 1.268 . S
C5 O19 1.268 . S
C6 O12 1.268 . S
C6 O21 1.268 . S
C7 O13 1.268 . S
C7 O17 1.268 . S
C8 O14 1.268 . S
C8 O16 1.268 . S
C9 O15 1.268 . S
C9 O18 1.268 . S
O10 Sc0 2.105 . S
O10 C4 1.268 . S
O11 Sc1 2.105 . S
O11 C5 1.268 . S
O12 Sc2 2.105 . S
O12 C6 1.268 . S
O13 Sc0 2.105 . S
O13 C7 1.268 . S
O14 Sc2 2.105 . S
O14 C8 1.268 . S
O15 Sc1 2.105 . S
O15 C9 1.268 . S
O16 Sc0 2.105 . S
O16 C8 1.268 . S
O17 Sc1 2.105 . S
O17 C7 1.268 . S
O18 Sc2 2.105 . S
O18 C9 1.268 . S
O19 Sc0 2.105 . S
O19 C5 1.268 . S
O20 Sc2 2.105 . S
O20 C4 1.268 . S
O21 Sc1 2.105 . S
O21 C6 1.268 . S
Sc22 O25 2.025 . S
Sc22 O32 2.105 1_554 S
Sc22 O35 2.105 . S
Sc22 O38 2.105 . S
Sc22 O41 2.105 1_554 S
Sc23 O25 2.025 . S
Sc23 O33 2.105 1_554 S
Sc23 O37 2.105 . S
Sc23 O39 2.105 . S
Sc23 O43 2.105 1_554 S
Sc24 O25 2.025 . S
Sc24 O34 2.105 1_554 S
Sc24 O36 2.105 . S
Sc24 O40 2.105 . S
Sc24 O42 2.105 1_554 S
O25 Sc22 2.025 . S
O25 Sc23 2.025 . S
O25 Sc24 2.025 . S
C26 O32 1.268 . S
C26 O42 1.268 . S
C27 O33 1.268 . S
C27 O41 1.268 . S
C28 O34 1.268 . S
C28 O43 1.268 . S
C29 O35 1.268 . S
C29 O39 1.268 . S
C30 O36 1.268 . S
C30 O38 1.268 . S
C31 O37 1.268 . S
C31 O40 1.268 . S
O32 Sc22 2.105 1_556 S
O32 C26 1.268 . S
O33 Sc23 2.105 1_556 S
O33 C27 1.268 . S
O34 Sc24 2.105 1_556 S
O34 C28 1.268 . S
O35 Sc22 2.105 . S
O35 C29 1.268 . S
O36 Sc24 2.105 . S
O36 C30 1.268 . S
O37 Sc23 2.105 . S
O37 C31 1.268 . S
O38 Sc22 2.105 . S
O38 C30 1.268 . S
O39 Sc23 2.105 . S
O39 C29 1.268 . S
O40 Sc24 2.105 . S
O40 C31 1.268 . S
O41 Sc22 2.105 1_556 S
O41 C27 1.268 . S
O42 Sc24 2.105 1_556 S
O42 C26 1.268 . S
O43 Sc23 2.105 1_556 S
O43 C28 1.268 . S
Zn44 O46 1.933 . S
Zn44 O64 1.985 . S
Zn44 O75 1.966 . S
Zn45 O46 1.911 1_565 S
Zn45 O65 1.970 1_565 S
Zn45 O81 1.945 . S
Zn45 O88 1.981 . S
O46 Zn44 1.933 . S
O46 Zn45 1.911 1_545 S
O46 H47 0.841 1_445 S
H47 O46 0.841 1_665 S
C48 O49 1.246 . S
C48 O77 1.276 . S
O49 C48 1.246 . S
Zn50 O52 1.911 . S
Zn50 O67 1.970 . S
Zn50 O84 1.945 1_655 S
Zn50 O91 1.981 . S
Zn51 O52 1.933 1_545 S
Zn51 O66 1.985 1_545 S
Zn51 O73 1.955 1_655 S
O52 Zn50 1.911 . S
O52 Zn51 1.933 1_565 S
O52 H53 0.841 1_665 S
H53 O52 0.841 1_445 S
Zn54 O55 1.933 . S
Zn54 O68 1.985 . S
Zn54 O77 1.955 . S
O55 Zn54 1.933 . S
O55 Zn56 1.911 . S
O55 H57 0.841 . S
Zn56 O55 1.911 . S
Zn56 O69 1.970 . S
Zn56 O85 1.981 1_545 S
Zn56 O87 1.945 1_545 S
H57 O55 0.841 . S
Zn58 O59 1.933 . S
Zn58 O71 1.985 . S
Zn58 O79 1.955 1_565 S
O59 Zn58 1.933 . S
O59 H60 0.841 . S
O59 Zn61 1.911 . S
H60 O59 0.841 . S
Zn61 O59 1.911 . S
Zn61 O72 1.970 . S
Zn61 O82 1.981 . S
Zn61 O90 1.945 . S
C62 O63 1.246 . S
C62 O79 1.276 . S
O63 C62 1.246 . S
O64 Zn44 1.985 . S
O64 C74 1.245 . S
O65 Zn45 1.970 1_545 S
O65 C74 1.263 . S
O66 Zn51 1.985 1_565 S
O66 C78 1.245 . S
O67 Zn50 1.970 . S
O67 C78 1.263 . S
O68 Zn54 1.985 . S
O68 C83 1.245 . S
O69 Zn56 1.970 . S
O69 C83 1.263 . S
C70 O81 1.262 1_655 S
C70 O82 1.245 . S
O71 Zn58 1.985 . S
O71 C89 1.245 . S
O72 Zn61 1.970 . S
O72 C89 1.263 . S
O73 Zn51 1.955 1_455 S
O73 C92 1.276 . S
C74 O64 1.245 . S
C74 O65 1.263 . S
O75 Zn44 1.966 . S
O75 C94 1.265 1_455 S
C76 O84 1.262 . S
C76 O85 1.245 . S
O77 C48 1.276 . S
O77 Zn54 1.955 . S
C78 O66 1.245 . S
C78 O67 1.263 . S
O79 Zn58 1.955 1_545 S
O79 C62 1.276 . S
C80 O87 1.262 . S
C80 O88 1.245 . S
O81 Zn45 1.945 . S
O81 C70 1.262 1_455 S
O82 Zn61 1.981 . S
O82 C70 1.245 . S
C83 O68 1.245 . S
C83 O69 1.263 . S
O84 Zn50 1.945 1_455 S
O84 C76 1.262 . S
O85 Zn56 1.981 1_565 S
O85 C76 1.245 . S
C86 O90 1.262 . S
C86 O91 1.245 . S
O87 Zn56 1.945 1_565 S
O87 C80 1.262 . S
O88 Zn45 1.981 . S
O88 C80 1.245 . S
C89 O71 1.245 . S
C89 O72 1.263 . S
O90 Zn61 1.945 . S
O90 C86 1.262 . S
O91 Zn50 1.981 . S
O91 C86 1.245 . S
C92 O73 1.276 . S
C92 O93 1.246 . S
O93 C92 1.246 . S
C94 O75 1.265 1_655 S
C94 O95 1.246 . S
O95 C94 1.246 . S
C96 C97 1.363 . S
C96 C102 1.379 . S
C96 N104 1.356 . S
C97 C96 1.363 . S
C97 C103 1.363 . S
C98 C99 1.363 . S
C98 C103 1.379 . S
C98 N105 1.356 . S
C99 C98 1.363 . S
C99 C102 1.363 . S
N100 C102 1.356 . S
N100 H112 0.984 . S
N100 H113 0.985 . S
N101 C103 1.356 . S
N101 H106 0.984 . S
N101 H107 0.985 . S
C102 C96 1.379 . S
C102 C99 1.363 . S
C102 N100 1.356 . S
C103 C97 1.363 . S
C103 C98 1.379 . S
C103 N101 1.356 . S
N104 C96 1.356 . S
N104 H110 0.984 . S
N104 H111 0.984 . S
N105 C98 1.356 . S
N105 H108 0.984 . S
N105 H109 0.985 1_565 S
H106 N101 0.984 . S
H107 N101 0.985 . S
H108 N105 0.984 . S
H109 N105 0.985 1_545 S
H110 N104 0.984 . S
H111 N104 0.984 . S
H112 N100 0.984 . S
H113 N100 0.985 . S
C114 C115 1.363 . S
C114 C120 1.379 . S
C114 N122 1.356 . S
C115 C114 1.363 . S
C115 C121 1.363 . S
C116 C117 1.363 . S
C116 C121 1.379 . S
C116 N123 1.356 . S
C117 C116 1.363 . S
C117 C120 1.363 . S
N118 C120 1.356 . S
N118 H130 0.984 . S
N118 H131 0.985 . S
N119 C121 1.356 . S
N119 H124 0.984 . S
N119 H125 0.985 . S
C120 C114 1.379 . S
C120 C117 1.363 . S
C120 N118 1.356 . S
C121 C115 1.363 . S
C121 C116 1.379 . S
C121 N119 1.356 . S
N122 C114 1.356 . S
N122 H128 0.984 . S
N122 H129 0.984 . S
N123 C116 1.356 . S
N123 H126 0.984 . S
N123 H127 0.985 . S
H124 N119 0.984 . S
H125 N119 0.985 . S
H126 N123 0.984 . S
H127 N123 0.985 . S
H128 N122 0.984 . S
H129 N122 0.984 . S
H130 N118 0.984 . S
H131 N118 0.985 . S
C132 C133 1.363 . S
C132 C138 1.379 . S
C132 N140 1.356 . S
C133 C132 1.363 . S
C133 C139 1.363 . S
C134 C135 1.363 . S
C134 C139 1.379 . S
C134 N141 1.356 . S
C135 C134 1.363 . S
C135 C138 1.363 . S
N136 C138 1.356 . S
N136 H148 0.984 . S
N136 H149 0.985 . S
N137 C139 1.356 . S
N137 H142 0.984 . S
N137 H143 0.985 . S
C138 C132 1.379 . S
C138 C135 1.363 . S
C138 N136 1.356 . S
C139 C133 1.363 . S
C139 C134 1.379 . S
C139 N137 1.356 . S
N140 C132 1.356 . S
N140 H146 0.984 . S
N140 H147 0.984 . S
N141 C134 1.356 . S
N141 H144 0.984 . S
N141 H145 0.985 . S
H142 N137 0.984 . S
H143 N137 0.985 . S
H144 N141 0.984 . S
H145 N141 0.985 . S
H146 N140 0.984 . S
H147 N140 0.984 . S
H148 N136 0.984 . S
H149 N136 0.985 . S
C150 C151 1.363 . S
C150 C156 1.379 . S
C150 N158 1.356 . S
C151 C150 1.363 . S
C151 C157 1.363 . S
C152 C153 1.363 . S
C152 C157 1.379 . S
C152 N159 1.356 . S
C153 C152 1.363 . S
C153 C156 1.363 . S
N154 C156 1.356 . S
N154 H166 0.984 1_655 S
N154 H167 0.985 . S
N155 C157 1.356 . S
N155 H160 0.984 . S
N155 H161 0.985 . S
C156 C150 1.379 . S
C156 C153 1.363 . S
C156 N154 1.356 . S
C157 C151 1.363 . S
C157 C152 1.379 . S
C157 N155 1.356 . S
N158 C150 1.356 . S
N158 H164 0.984 . S
N158 H165 0.984 . S
N159 C152 1.356 . S
N159 H162 0.984 . S
N159 H163 0.985 . S
H160 N155 0.984 . S
H161 N155 0.985 . S
H162 N159 0.984 . S
H163 N159 0.985 . S
H164 N158 0.984 . S
H165 N158 0.984 . S
H166 N154 0.984 1_455 S
H167 N154 0.985 . S
C168 C169 1.363 . S
C168 C174 1.379 . S
C168 N176 1.356 . S
C169 C168 1.363 . S
C169 C175 1.363 . S
C170 C171 1.363 . S
C170 C175 1.379 . S
C170 N177 1.356 . S
C171 C170 1.363 . S
C171 C174 1.363 . S
N172 C174 1.356 . S
N172 H184 0.984 . S
N172 H185 0.985 . S
N173 C175 1.356 . S
N173 H178 0.984 . S
N173 H179 0.985 . S
C174 C168 1.379 . S
C174 C171 1.363 . S
C174 N172 1.356 . S
C175 C169 1.363 . S
C175 C170 1.379 . S
C175 N173 1.356 . S
N176 C168 1.356 . S
N176 H182 0.984 . S
N176 H183 0.984 . S
N177 C170 1.356 . S
N177 H180 0.984 . S
N177 H181 0.985 . S
H178 N173 0.984 . S
H179 N173 0.985 . S
H180 N177 0.984 . S
H181 N177 0.985 . S
H182 N176 0.984 . S
H183 N176 0.984 . S
H184 N172 0.984 . S
H185 N172 0.985 . S
C186 C187 1.363 . S
C186 C192 1.379 . S
C186 N194 1.356 . S
C187 C186 1.363 . S
C187 C193 1.363 . S
C188 C189 1.363 . S
C188 C193 1.379 . S
C188 N195 1.356 . S
C189 C188 1.363 . S
C189 C192 1.363 . S
N190 C192 1.356 . S
N190 H202 0.984 . S
N190 H203 0.985 . S
N191 C193 1.356 . S
N191 H196 0.984 . S
N191 H197 0.985 . S
C192 C186 1.379 . S
C192 C189 1.363 . S
C192 N190 1.356 . S
C193 C187 1.363 . S
C193 C188 1.379 . S
C193 N191 1.356 . S
N194 C186 1.356 . S
N194 H200 0.984 . S
N194 H201 0.984 . S
N195 C188 1.356 . S
N195 H198 0.984 . S
N195 H199 0.985 . S
H196 N191 0.984 . S
H197 N191 0.985 . S
H198 N195 0.984 . S
H199 N195 0.985 . S
H200 N194 0.984 . S
H201 N194 0.984 . S
H202 N190 0.984 . S
H203 N190 0.985 . S
C204 C205 1.363 . S
C204 C210 1.379 . S
C204 N212 1.356 1_556 S
C205 C204 1.363 . S
C205 C211 1.363 . S
C206 C207 1.363 . S
C206 C211 1.379 . S
C206 N213 1.356 . S
C207 C206 1.363 . S
C207 C210 1.363 . S
N208 C210 1.356 . S
N208 H220 0.984 . S
N208 H221 0.985 . S
N209 C211 1.356 . S
N209 H214 0.984 . S
N209 H215 0.985 . S
C210 C204 1.379 . S
C210 C207 1.363 . S
C210 N208 1.356 . S
C211 C205 1.363 . S
C211 C206 1.379 . S
C211 N209 1.356 . S
N212 C204 1.356 1_554 S
N212 H218 0.984 . S
N212 H219 0.984 . S
N213 C206 1.356 . S
N213 H216 0.984 . S
N213 H217 0.985 . S
H214 N209 0.984 . S
H215 N209 0.985 . S
H216 N213 0.984 . S
H217 N213 0.985 . S
H218 N212 0.984 . S
H219 N212 0.984 . S
H220 N208 0.984 . S
H221 N208 0.985 . S
C222 C223 1.363 . S
C222 C228 1.379 . S
C222 N230 1.356 . S
C223 C222 1.363 . S
C223 C229 1.363 . S
C224 C225 1.363 . S
C224 C229 1.379 . S
C224 N231 1.356 . S
C225 C224 1.363 . S
C225 C228 1.363 . S
N226 C228 1.356 . S
N226 H238 0.984 . S
N226 H239 0.985 . S
N227 C229 1.356 . S
N227 H232 0.984 . S
N227 H233 0.985 . S
C228 C222 1.379 . S
C228 C225 1.363 . S
C228 N226 1.356 . S
C229 C223 1.363 . S
C229 C224 1.379 . S
C229 N227 1.356 . S
N230 C222 1.356 . S
N230 H236 0.984 . S
N230 H237 0.984 . S
N231 C224 1.356 . S
N231 H234 0.984 . S
N231 H235 0.985 . S
H232 N227 0.984 . S
H233 N227 0.985 . S
H234 N231 0.984 . S
H235 N231 0.985 . S
H236 N230 0.984 . S
H237 N230 0.984 . S
H238 N226 0.984 . S
H239 N226 0.985 . S
C240 C241 1.363 . S
C240 C246 1.379 . S
C240 N248 1.356 . S
C241 C240 1.363 . S
C241 C247 1.363 . S
C242 C243 1.363 . S
C242 C247 1.379 . S
C242 N249 1.356 . S
C243 C242 1.363 . S
C243 C246 1.363 . S
N244 C246 1.356 . S
N244 H256 0.984 . S
N244 H257 0.985 . S
N245 C247 1.356 . S
N245 H250 0.984 . S
N245 H251 0.985 . S
C246 C240 1.379 . S
C246 C243 1.363 . S
C246 N244 1.356 . S
C247 C241 1.363 . S
C247 C242 1.379 . S
C247 N245 1.356 . S
N248 C240 1.356 . S
N248 H254 0.984 1_556 S
N248 H255 0.984 1_556 S
N249 C242 1.356 . S
N249 H252 0.984 . S
N249 H253 0.985 . S
H250 N245 0.984 . S
H251 N245 0.985 . S
H252 N249 0.984 . S
H253 N249 0.985 . S
H254 N248 0.984 1_554 S
H255 N248 0.984 1_554 S
H256 N244 0.984 . S
H257 N244 0.985 . S
C258 C259 1.363 . S
C258 C264 1.379 . S
C258 N266 1.356 . S
C259 C258 1.363 . S
C259 C265 1.363 . S
C260 C261 1.363 . S
C260 C265 1.379 . S
C260 N267 1.356 . S
C261 C260 1.363 . S
C261 C264 1.363 . S
N262 C264 1.356 . S
N262 H274 0.984 . S
N262 H275 0.985 . S
N263 C265 1.356 . S
N263 H268 0.984 . S
N263 H269 0.985 . S
C264 C258 1.379 . S
C264 C261 1.363 . S
C264 N262 1.356 . S
C265 C259 1.363 . S
C265 C260 1.379 . S
C265 N263 1.356 . S
N266 C258 1.356 . S
N266 H272 0.984 . S
N266 H273 0.984 . S
N267 C260 1.356 . S
N267 H270 0.984 . S
N267 H271 0.985 . S
H268 N263 0.984 . S
H269 N263 0.985 . S
H270 N267 0.984 . S
H271 N267 0.985 . S
H272 N266 0.984 . S
H273 N266 0.984 . S
H274 N262 0.984 . S
H275 N262 0.985 . S
C276 C277 1.363 . S
C276 C282 1.379 . S
C276 N284 1.356 . S
C277 C276 1.363 . S
C277 C283 1.363 1_556 S
C278 C279 1.363 . S
C278 C283 1.379 1_556 S
C278 N285 1.356 . S
C279 C278 1.363 . S
C279 C282 1.363 . S
N280 C282 1.356 . S
N280 H292 0.984 . S
N280 H293 0.985 . S
N281 C283 1.356 . S
N281 H286 0.984 . S
N281 H287 0.985 . S
C282 C276 1.379 . S
C282 C279 1.363 . S
C282 N280 1.356 . S
C283 C277 1.363 1_554 S
C283 C278 1.379 1_554 S
C283 N281 1.356 . S
N284 C276 1.356 . S
N284 H290 0.984 . S
N284 H291 0.984 . S
N285 C278 1.356 . S
N285 H288 0.984 1_565 S
N285 H289 0.985 1_566 S
H286 N281 0.984 . S
H287 N281 0.985 . S
H288 N285 0.984 1_545 S
H289 N285 0.985 1_544 S
H290 N284 0.984 . S
H291 N284 0.984 . S
H292 N280 0.984 . S
H293 N280 0.985 . S
C294 C295 1.363 . S
C294 C300 1.379 . S
C294 N302 1.356 . S
C295 C294 1.363 . S
C295 C301 1.363 . S
C296 C297 1.363 . S
C296 C301 1.379 . S
C296 N303 1.356 . S
C297 C296 1.363 . S
C297 C300 1.363 . S
N298 C300 1.356 . S
N298 H310 0.984 . S
N298 H311 0.985 . S
N299 C301 1.356 . S
N299 H304 0.984 . S
N299 H305 0.985 . S
C300 C294 1.379 . S
C300 C297 1.363 . S
C300 N298 1.356 . S
C301 C295 1.363 . S
C301 C296 1.379 . S
C301 N299 1.356 . S
N302 C294 1.356 . S
N302 H308 0.984 . S
N302 H309 0.984 . S
N303 C296 1.356 . S
N303 H306 0.984 . S
N303 H307 0.985 . S
H304 N299 0.984 . S
H305 N299 0.985 . S
H306 N303 0.984 . S
H307 N303 0.985 . S
H308 N302 0.984 . S
H309 N302 0.984 . S
H310 N298 0.984 . S
H311 N298 0.985 . S
C97 C7 1.515 . S
C99 C80 1.533 . S
C117 C74 1.782 . S
C115 C30 1.703 . S
C135 C48 1.544 . S
C133 C9 1.530 . S
C153 C94 1.815 . S
C151 C29 1.890 . S
C171 C89 0.549 . S
C169 C8 0.587 . S
C187 C31 1.809 . S
C189 C70 1.766 . S
C205 C5 1.809 1_556 S
C207 C76 1.766 . S
C223 C26 0.587 . S
C225 C83 0.549 . S
C241 C6 1.890 1_556 S
C243 C92 1.815 . S
C259 C27 1.530 . S
C261 C62 1.544 . S
C279 C78 1.782 . S
C277 C4 1.703 1_556 S
C295 C28 1.515 . S
C297 C86 1.532 . S
