# Generated by pormake.
# Topology gar, (4,6)-cn, num edge types: 1
# Building blocks:
#     Node 0, Type 0, BuildingBlock: QUQFOY_clean_sbu_3, # of connection points: 4
#     Node 1, Type 0, BuildingBlock: QUQFOY_clean_sbu_3, # of connection points: 4
#     Node 2, Type 0, BuildingBlock: QUQFOY_clean_sbu_3, # of connection points: 4
#     Node 3, Type 0, BuildingBlock: QUQFOY_clean_sbu_3, # of connection points: 4
#     Node 4, Type 0, BuildingBlock: QUQFOY_clean_sbu_3, # of connection points: 4
#     Node 5, Type 0, BuildingBlock: QUQFOY_clean_sbu_3, # of connection points: 4
#     Node 6, Type 0, BuildingBlock: QUQFOY_clean_sbu_3, # of connection points: 4
#     Node 7, Type 0, BuildingBlock: QUQFOY_clean_sbu_3, # of connection points: 4
#     Node 8, Type 0, BuildingBlock: QUQFOY_clean_sbu_3, # of connection points: 4
#     Node 9, Type 0, BuildingBlock: QUQFOY_clean_sbu_3, # of connection points: 4
#     Node 10, Type 0, BuildingBlock: QUQFOY_clean_sbu_3, # of connection points: 4
#     Node 11, Type 0, BuildingBlock: QUQFOY_clean_sbu_3, # of connection points: 4
#     Node 12, Type 0, BuildingBlock: QUQFOY_clean_sbu_3, # of connection points: 4
#     Node 13, Type 0, BuildingBlock: QUQFOY_clean_sbu_3, # of connection points: 4
#     Node 14, Type 0, BuildingBlock: QUQFOY_clean_sbu_3, # of connection points: 4
#     Node 15, Type 0, BuildingBlock: QUQFOY_clean_sbu_3, # of connection points: 4
#     Node 16, Type 0, BuildingBlock: QUQFOY_clean_sbu_3, # of connection points: 4
#     Node 17, Type 0, BuildingBlock: QUQFOY_clean_sbu_3, # of connection points: 4
#     Node 18, Type 0, BuildingBlock: QUQFOY_clean_sbu_3, # of connection points: 4
#     Node 19, Type 0, BuildingBlock: QUQFOY_clean_sbu_3, # of connection points: 4
#     Node 20, Type 0, BuildingBlock: QUQFOY_clean_sbu_3, # of connection points: 4
#     Node 21, Type 0, BuildingBlock: QUQFOY_clean_sbu_3, # of connection points: 4
#     Node 22, Type 0, BuildingBlock: QUQFOY_clean_sbu_3, # of connection points: 4
#     Node 23, Type 0, BuildingBlock: QUQFOY_clean_sbu_3, # of connection points: 4
#     Node 24, Type 1, BuildingBlock: KUMJIN_clean_sbu_0, # of connection points: 6
#     Node 25, Type 1, BuildingBlock: KUMJIN_clean_sbu_0, # of connection points: 6
#     Node 26, Type 1, BuildingBlock: KUMJIN_clean_sbu_0, # of connection points: 6
#     Node 27, Type 1, BuildingBlock: KUMJIN_clean_sbu_0, # of connection points: 6
#     Node 28, Type 1, BuildingBlock: KUMJIN_clean_sbu_0, # of connection points: 6
#     Node 29, Type 1, BuildingBlock: KUMJIN_clean_sbu_0, # of connection points: 6
#     Node 30, Type 1, BuildingBlock: KUMJIN_clean_sbu_0, # of connection points: 6
#     Node 31, Type 1, BuildingBlock: KUMJIN_clean_sbu_0, # of connection points: 6
#     Node 32, Type 1, BuildingBlock: KUMJIN_clean_sbu_0, # of connection points: 6
#     Node 33, Type 1, BuildingBlock: KUMJIN_clean_sbu_0, # of connection points: 6
#     Node 34, Type 1, BuildingBlock: KUMJIN_clean_sbu_0, # of connection points: 6
#     Node 35, Type 1, BuildingBlock: KUMJIN_clean_sbu_0, # of connection points: 6
#     Node 36, Type 1, BuildingBlock: KUMJIN_clean_sbu_0, # of connection points: 6
#     Node 37, Type 1, BuildingBlock: KUMJIN_clean_sbu_0, # of connection points: 6
#     Node 38, Type 1, BuildingBlock: KUMJIN_clean_sbu_0, # of connection points: 6
#     Node 39, Type 1, BuildingBlock: KUMJIN_clean_sbu_0, # of connection points: 6
#     Edge 40, Type (0, 1), None
#     Edge 41, Type (0, 1), None
#     Edge 42, Type (0, 1), None
#     Edge 43, Type (0, 1), None
#     Edge 44, Type (0, 1), None
#     Edge 45, Type (0, 1), None
#     Edge 46, Type (0, 1), None
#     Edge 47, Type (0, 1), None
#     Edge 48, Type (0, 1), None
#     Edge 49, Type (0, 1), None
#     Edge 50, Type (0, 1), None
#     Edge 51, Type (0, 1), None
#     Edge 52, Type (0, 1), None
#     Edge 53, Type (0, 1), None
#     Edge 54, Type (0, 1), None
#     Edge 55, Type (0, 1), None
#     Edge 56, Type (0, 1), None
#     Edge 57, Type (0, 1), None
#     Edge 58, Type (0, 1), None
#     Edge 59, Type (0, 1), None
#     Edge 60, Type (0, 1), None
#     Edge 61, Type (0, 1), None
#     Edge 62, Type (0, 1), None
#     Edge 63, Type (0, 1), None
#     Edge 64, Type (0, 1), None
#     Edge 65, Type (0, 1), None
#     Edge 66, Type (0, 1), None
#     Edge 67, Type (0, 1), None
#     Edge 68, Type (0, 1), None
#     Edge 69, Type (0, 1), None
#     Edge 70, Type (0, 1), None
#     Edge 71, Type (0, 1), None
#     Edge 72, Type (0, 1), None
#     Edge 73, Type (0, 1), None
#     Edge 74, Type (0, 1), None
#     Edge 75, Type (0, 1), None
#     Edge 76, Type (0, 1), None
#     Edge 77, Type (0, 1), None
#     Edge 78, Type (0, 1), None
#     Edge 79, Type (0, 1), None
#     Edge 80, Type (0, 1), None
#     Edge 81, Type (0, 1), None
#     Edge 82, Type (0, 1), None
#     Edge 83, Type (0, 1), None
#     Edge 84, Type (0, 1), None
#     Edge 85, Type (0, 1), None
#     Edge 86, Type (0, 1), None
#     Edge 87, Type (0, 1), None
#     Edge 88, Type (0, 1), None
#     Edge 89, Type (0, 1), None
#     Edge 90, Type (0, 1), None
#     Edge 91, Type (0, 1), None
#     Edge 92, Type (0, 1), None
#     Edge 93, Type (0, 1), None
#     Edge 94, Type (0, 1), None
#     Edge 95, Type (0, 1), None
#     Edge 96, Type (0, 1), None
#     Edge 97, Type (0, 1), None
#     Edge 98, Type (0, 1), None
#     Edge 99, Type (0, 1), None
#     Edge 100, Type (0, 1), None
#     Edge 101, Type (0, 1), None
#     Edge 102, Type (0, 1), None
#     Edge 103, Type (0, 1), None
#     Edge 104, Type (0, 1), None
#     Edge 105, Type (0, 1), None
#     Edge 106, Type (0, 1), None
#     Edge 107, Type (0, 1), None
#     Edge 108, Type (0, 1), None
#     Edge 109, Type (0, 1), None
#     Edge 110, Type (0, 1), None
#     Edge 111, Type (0, 1), None
#     Edge 112, Type (0, 1), None
#     Edge 113, Type (0, 1), None
#     Edge 114, Type (0, 1), None
#     Edge 115, Type (0, 1), None
#     Edge 116, Type (0, 1), None
#     Edge 117, Type (0, 1), None
#     Edge 118, Type (0, 1), None
#     Edge 119, Type (0, 1), None
#     Edge 120, Type (0, 1), None
#     Edge 121, Type (0, 1), None
#     Edge 122, Type (0, 1), None
#     Edge 123, Type (0, 1), None
#     Edge 124, Type (0, 1), None
#     Edge 125, Type (0, 1), None
#     Edge 126, Type (0, 1), None
#     Edge 127, Type (0, 1), None
#     Edge 128, Type (0, 1), None
#     Edge 129, Type (0, 1), None
#     Edge 130, Type (0, 1), None
#     Edge 131, Type (0, 1), None
#     Edge 132, Type (0, 1), None
#     Edge 133, Type (0, 1), None
#     Edge 134, Type (0, 1), None
#     Edge 135, Type (0, 1), None
# Relax obj value: 0.232
# Max RMSD: 0.406
# Mean RMSD: 0.179
data_MOF--net-gar--node1-QUQFOY_clean_sbu_3--node2-KUMJIN_clean_sbu_0--edge1-none
_symmetry_space_group_name_H-M    P1
_symmetry_Int_Tables_number       1
_symmetry_cell_setting            triclinic
loop_
_symmetry_equiv_pos_as_xyz
'x, y, z'
_cell_length_a     32.956944
_cell_length_b     27.737311
_cell_length_c     27.533642
_cell_angle_alpha  103.42575
_cell_angle_beta   95.033488
_cell_angle_gamma 102.77712
loop_
_atom_site_label
_atom_site_type_symbol
_atom_site_fract_x
_atom_site_fract_y
_atom_site_fract_z
_atom_type_partial_charge
C0 C 0.12025 0.38995 0.27448 0.0
O1 O 0.14786 0.42605 0.26657 0.0
Cd2 Cd 0.2121 0.46458 0.32008 0.0
O3 O 0.12648 0.37069 0.31159 0.0
Cd4 Cd 0.18622 0.38355 0.3802 0.0
C5 C 0.17067 0.50478 0.42459 0.0
O6 O 0.23078 0.38211 0.31148 0.0
O7 O 0.26405 0.38936 0.38397 0.0
O8 O 0.1419 0.30569 0.39849 0.0
C9 C 0.2641 0.3806 0.33665 0.0
O10 O 0.18483 0.52003 0.38792 0.0
C11 C 0.15451 0.32015 0.4459 0.0
O12 O 0.17118 0.46037 0.42847 0.0
O13 O 0.18497 0.35966 0.4607 0.0
C14 C 0.93961 0.75695 0.75085 0.0
O15 O 0.95233 0.72272 0.76705 0.0
Cd16 Cd 0.02189 0.7083 0.76245 0.0
O17 O 0.96126 0.78027 0.72302 0.0
Cd18 Cd 0.03077 0.77977 0.68861 0.0
C19 C 0.04389 0.65836 0.64638 0.0
O20 O 0.06174 0.79434 0.77506 0.0
O21 O 0.1046 0.78814 0.72089 0.0
O22 O 0.06715 0.85822 0.66708 0.0
C23 C 0.09909 0.79711 0.76671 0.0
O24 O 0.04351 0.65185 0.69059 0.0
C25 C 0.05636 0.8395 0.61979 0.0
O26 O 0.03429 0.69729 0.63654 0.0
O27 O 0.02852 0.79746 0.60618 0.0
C28 C 0.61872 0.88461 0.77502 0.0
O29 O 0.64452 0.92014 0.7637 0.0
Cd30 Cd 0.70873 0.96157 0.8169 0.0
O31 O 0.6274 0.8687 0.81371 0.0
Cd32 Cd 0.68771 0.88405 0.88128 0.0
C33 C 0.66959 1.00365 0.92356 0.0
O34 O 0.73058 0.88105 0.81109 0.0
O35 O 0.76542 0.89127 0.88361 0.0
O36 O 0.64316 0.80612 0.89856 0.0
C37 C 0.76458 0.88117 0.83608 0.0
O38 O 0.68097 1.01698 0.88475 0.0
C39 C 0.65565 0.81989 0.94595 0.0
O40 O 0.67258 0.96069 0.92959 0.0
O41 O 0.68649 0.85893 0.96124 0.0
C42 C 0.43939 0.25686 0.25097 0.0
O43 O 0.45204 0.2225 0.26702 0.0
Cd44 Cd 0.52159 0.20789 0.26221 0.0
O45 O 0.46113 0.28029 0.22328 0.0
Cd46 Cd 0.53069 0.2799 0.18887 0.0
C47 C 0.54376 0.15833 0.14605 0.0
O48 O 0.56158 0.29404 0.27548 0.0
O49 O 0.60442 0.28876 0.22119 0.0
O50 O 0.5673 0.35846 0.16751 0.0
C51 C 0.59896 0.29732 0.26701 0.0
O52 O 0.54306 0.15146 0.1901 0.0
C53 C 0.55638 0.3399 0.12022 0.0
O54 O 0.53455 0.19759 0.13651 0.0
O55 O 0.52841 0.29798 0.1066 0.0
C56 C 0.10415 0.843 0.19648 0.0
O57 O 0.13253 0.85714 0.23435 0.0
Cd58 Cd 0.18645 0.81634 0.21653 0.0
O59 O 0.11334 0.84365 0.15278 0.0
Cd60 Cd 0.17542 0.8792 0.11817 0.0
C61 C 0.13844 0.73605 0.09627 0.0
O62 O 0.22541 0.89006 0.19938 0.0
O63 O 0.25598 0.87376 0.13568 0.0
O64 O 0.15448 0.96866 0.13371 0.0
C65 C 0.25852 0.88118 0.1836 0.0
O66 O 0.154 0.74244 0.14212 0.0
C67 C 0.14675 0.97454 0.08934 0.0
O68 O 0.14071 0.7757 0.07773 0.0
O69 O 0.15419 0.93839 0.05554 0.0
C70 C 0.45261 0.80536 0.36547 0.0
O71 O 0.48009 0.83306 0.34787 0.0
Cd72 Cd 0.55239 0.86299 0.36243 0.0
O73 O 0.46408 0.78591 0.40203 0.0
Cd74 Cd 0.54317 0.78944 0.45776 0.0
C75 C 0.57056 0.93676 0.48393 0.0
O76 O 0.57844 0.79869 0.38724 0.0
O77 O 0.61921 0.81708 0.4577 0.0
O78 O 0.54562 0.69244 0.44429 0.0
C79 C 0.6155 0.81469 0.41103 0.0
O80 O 0.56224 0.93337 0.43716 0.0
C81 C 0.55853 0.68945 0.48839 0.0
O82 O 0.56722 0.89546 0.50035 0.0
O83 O 0.56161 0.73121 0.52203 0.0
C84 C 0.60418 0.34309 0.69643 0.0
O85 O 0.6326 0.35726 0.73428 0.0
Cd86 Cd 0.68639 0.31626 0.71643 0.0
O87 O 0.61332 0.34369 0.65271 0.0
Cd88 Cd 0.67536 0.37913 0.61801 0.0
C89 C 0.63793 0.23598 0.59628 0.0
O90 O 0.72533 0.39 0.6993 0.0
O91 O 0.75603 0.37399 0.6357 0.0
O92 O 0.65427 0.46846 0.63345 0.0
C93 C 0.75852 0.38133 0.68361 0.0
O94 O 0.65358 0.24239 0.6421 0.0
C95 C 0.64663 0.47438 0.58907 0.0
O96 O 0.64033 0.2756 0.57767 0.0
O97 O 0.65421 0.4383 0.5553 0.0
C98 C 0.95302 0.30555 0.86542 0.0
O99 O 0.98055 0.33297 0.84764 0.0
Cd100 Cd 0.05278 0.36257 0.86293 0.0
O101 O 0.96448 0.28631 0.90217 0.0
Cd102 Cd 0.04366 0.28909 0.95782 0.0
C103 C 0.07208 0.43618 0.98444 0.0
O104 O 0.07874 0.29801 0.88721 0.0
O105 O 0.11959 0.31639 0.95765 0.0
O106 O 0.04589 0.19208 0.94421 0.0
C107 C 0.1158 0.31406 0.91101 0.0
O108 O 0.06251 0.43273 0.93785 0.0
C109 C 0.05847 0.18897 0.98837 0.0
O110 O 0.06938 0.3949 0.00074 0.0
O111 O 0.06148 0.23069 0.02204 0.0
C112 C 0.53127 0.09016 0.40963 0.0
O113 O 0.52623 0.04851 0.37742 0.0
Cd114 Cd 0.53342 0.96768 0.34096 0.0
O115 O 0.51097 0.12128 0.39918 0.0
Cd116 Cd 0.47502 0.07233 0.31021 0.0
C117 C 0.43174 0.94021 0.30749 0.0
O118 O 0.51926 1.01891 0.28805 0.0
O119 O 0.50373 0.05188 0.22789 0.0
O120 O 0.42909 0.1141 0.27067 0.0
C121 C 0.51703 1.01679 0.24202 0.0
O122 O 0.46159 0.9215 0.32104 0.0
C123 C 0.39628 0.0788 0.26934 0.0
O124 O 0.43774 0.98623 0.30522 0.0
O125 O 0.4001 0.0443 0.29138 0.0
C126 C 0.37731 0.16879 0.54145 0.0
O127 O 0.34813 0.13177 0.51572 0.0
Cd128 Cd 0.29331 0.14783 0.56297 0.0
O129 O 0.37077 0.21311 0.55096 0.0
Cd130 Cd 0.31473 0.24448 0.51338 0.0
C131 C 0.33455 0.27536 0.6425 0.0
O132 O 0.25442 0.16189 0.49529 0.0
O133 O 0.23282 0.22875 0.51861 0.0
O134 O 0.34545 0.23733 0.43138 0.0
C135 C 0.22361 0.17988 0.50742 0.0
O136 O 0.32158 0.22692 0.63539 0.0
C137 C 0.35826 0.28426 0.43131 0.0
O138 O 0.33584 0.29515 0.60477 0.0
O139 O 0.35024 0.31523 0.46931 0.0
C140 C 0.15387 0.06361 0.88859 0.0
O141 O 0.14518 0.09496 0.86479 0.0
Cd142 Cd 0.19637 0.09287 0.80071 0.0
O143 O 0.18126 0.03935 0.86847 0.0
Cd144 Cd 0.22697 0.03588 0.77338 0.0
C145 C 0.28499 0.17258 0.79564 0.0
O146 O 0.1638 0.0675 0.71089 0.0
O147 O 0.20005 0.02182 0.6726 0.0
O148 O 0.25364 0.95911 0.81121 0.0
C149 C 0.17277 0.04766 0.66742 0.0
O150 O 0.25086 0.1748 0.81301 0.0
C151 C 0.27666 0.93893 0.7814 0.0
O152 O 0.29015 0.12679 0.77993 0.0
O153 O 0.27612 0.95864 0.74358 0.0
C154 C 0.50112 0.03657 0.0057 0.0
O155 O 0.4956 0.07852 0.02907 0.0
Cd156 Cd 0.43267 0.07345 0.97962 0.0
O157 O 0.46899 1.0021 0.98363 0.0
Cd158 Cd 0.40582 0.02127 0.02032 0.0
C159 C 0.39457 0.95598 0.90984 0.0
O160 O 0.39701 0.10731 0.04231 0.0
O161 O 0.34043 0.04449 0.02537 0.0
O162 O 0.44815 0.02298 0.09469 0.0
C163 C 0.35825 0.09165 0.04417 0.0
O164 O 0.41608 0.99858 0.90667 0.0
C165 C 0.42305 0.98288 0.09912 0.0
O166 O 0.37883 0.95277 0.94955 0.0
O167 O 0.38603 0.97017 0.07502 0.0
C168 C 0.48255 0.49831 0.04773 0.0
O169 O 0.46012 0.52337 0.02989 0.0
Cd170 Cd 0.3902 0.49838 0.9981 0.0
O171 O 0.46428 0.45615 0.0591 0.0
Cd172 Cd 0.37791 0.404 0.05703 0.0
C173 C 0.37346 0.37183 0.92547 0.0
O174 O 0.34774 0.47563 0.05676 0.0
O175 O 0.30678 0.4031 0.01822 0.0
O176 O 0.3643 0.40642 0.14694 0.0
C177 C 0.31201 0.45111 0.03189 0.0
O178 O 0.38161 0.41988 0.93088 0.0
C179 C 0.34446 0.36032 0.14297 0.0
O180 O 0.36999 0.35307 0.96398 0.0
O181 O 0.34197 0.33115 0.09908 0.0
C182 C 0.84034 0.03376 0.06278 0.0
O183 O 0.80303 1.0134 0.06566 0.0
Cd184 Cd 0.78002 0.08941 0.09196 0.0
O185 O 0.85078 0.08185 0.07042 0.0
Cd186 Cd 0.79654 0.12871 0.05852 0.0
C187 C 0.81142 0.20462 0.16091 0.0
O188 O 0.72142 0.08739 0.03664 0.0
O189 O 0.7367 0.1582 0.09461 0.0
O190 O 0.78003 0.12867 0.97199 0.0
C191 C 0.70913 0.12391 0.06265 0.0
O192 O 0.79668 0.1609 0.16789 0.0
C193 C 0.80544 0.17211 0.9793 0.0
O194 O 0.82057 0.20771 0.11817 0.0
O195 O 0.83446 0.18486 0.01642 0.0
C196 C 0.20222 0.65083 0.3412 0.0
O197 O 0.17007 0.61459 0.3221 0.0
Cd198 Cd 0.16196 0.62988 0.24105 0.0
O199 O 0.2327 0.65663 0.31653 0.0
Cd200 Cd 0.24452 0.59632 0.2415 0.0
C201 C 0.25957 0.71419 0.2426 0.0
O202 O 0.17371 0.55497 0.19533 0.0
O203 O 0.22211 0.57606 0.15135 0.0
O204 O 0.27868 0.54584 0.2832 0.0
C205 C 0.1831 0.56132 0.15347 0.0
O206 O 0.21967 0.70455 0.24062 0.0
C207 C 0.31386 0.56584 0.27105 0.0
O208 O 0.27893 0.6796 0.24175 0.0
O209 O 0.31416 0.59161 0.23852 0.0
C210 C 0.98253 0.99786 0.54779 0.0
O211 O 0.96019 0.02304 0.52999 0.0
Cd212 Cd 0.89028 0.99805 0.49805 0.0
O213 O 0.96414 0.95564 0.55898 0.0
Cd214 Cd 0.87769 0.9036 0.55656 0.0
C215 C 0.87317 0.87139 0.4253 0.0
O216 O 0.84749 0.97545 0.5564 0.0
O217 O 0.80673 0.90309 0.51708 0.0
O218 O 0.86322 0.90594 0.64602 0.0
C219 C 0.81187 0.95107 0.53113 0.0
O220 O 0.88117 0.91945 0.43079 0.0
C221 C 0.8442 0.85961 0.64231 0.0
O222 O 0.86986 0.85253 0.46375 0.0
O223 O 0.8426 0.83021 0.59876 0.0
C224 C 0.05167 0.10299 0.40682 0.0
O225 O 0.07008 0.07948 0.37412 0.0
Cd226 Cd 0.02504 0.06792 0.29156 0.0
O227 O 0.0217 0.12136 0.38746 0.0
Cd228 Cd 0.97899 0.12186 0.2824 0.0
C229 C 0.93054 0.98319 0.27728 0.0
O230 O 0.05238 0.12009 0.23213 0.0
O231 O 0.9961 0.09639 0.18239 0.0
O232 O 0.96003 0.2207 0.30954 0.0
C233 C 0.03626 0.1071 0.18536 0.0
O234 O 0.96853 0.98457 0.27101 0.0
C235 C 0.92473 0.21488 0.28201 0.0
O236 O 0.92097 0.0271 0.28379 0.0
O237 O 0.91508 0.16923 0.25311 0.0
C238 C 0.34141 0.53593 0.56392 0.0
O239 O 0.30422 0.51595 0.56757 0.0
Cd240 Cd 0.28172 0.59237 0.59272 0.0
O241 O 0.35204 0.58397 0.57094 0.0
Cd242 Cd 0.29799 0.63136 0.55929 0.0
C243 C 0.31128 0.70825 0.66097 0.0
O244 O 0.22284 0.58901 0.53727 0.0
O245 O 0.23754 0.65962 0.59531 0.0
O246 O 0.28159 0.63021 0.47236 0.0
C247 C 0.21014 0.62498 0.56357 0.0
O248 O 0.29723 0.66433 0.66796 0.0
C249 C 0.30696 0.67359 0.47908 0.0
O250 O 0.32083 0.71154 0.61841 0.0
O251 O 0.33604 0.6867 0.51619 0.0
C252 C 0.55174 0.60357 0.90658 0.0
O253 O 0.56993 0.57974 0.87385 0.0
Cd254 Cd 0.52529 0.56819 0.79108 0.0
O255 O 0.52195 0.6223 0.88728 0.0
Cd256 Cd 0.47885 0.62329 0.7823 0.0
C257 C 0.43058 0.48362 0.77709 0.0
O258 O 0.55259 0.6214 0.7323 0.0
O259 O 0.49648 0.5977 0.68235 0.0
O260 O 0.45507 0.72115 0.81255 0.0
C261 C 0.53665 0.60831 0.68543 0.0
O262 O 0.46857 0.48496 0.77078 0.0
C263 C 0.42319 0.71525 0.77925 0.0
O264 O 0.42105 0.52761 0.78355 0.0
O265 O 0.4177 0.6711 0.74831 0.0
C266 C 0.70297 0.15033 0.84063 0.0
O267 O 0.67126 0.11351 0.82152 0.0
Cd268 Cd 0.66351 0.12954 0.74065 0.0
O269 O 0.73332 0.15686 0.81585 0.0
Cd270 Cd 0.74529 0.09691 0.74063 0.0
C271 C 0.75997 0.21466 0.74182 0.0
O272 O 0.67478 0.05485 0.69405 0.0
O273 O 0.72306 0.07774 0.65058 0.0
O274 O 0.77913 0.04606 0.78212 0.0
C275 C 0.68411 0.06215 0.65248 0.0
O276 O 0.7201 0.20482 0.73998 0.0
C277 C 0.8144 0.06608 0.77023 0.0
O278 O 0.77951 0.18024 0.741 0.0
O279 O 0.81491 0.09207 0.73788 0.0
C280 C 0.87752 0.6693 0.04162 0.0
O281 O 0.84846 0.6322 0.01577 0.0
Cd282 Cd 0.79356 0.64809 0.06286 0.0
O283 O 0.87088 0.71357 0.05114 0.0
Cd284 Cd 0.81482 0.74476 0.01332 0.0
C285 C 0.83456 0.7756 0.14242 0.0
O286 O 0.75458 0.66204 0.99516 0.0
O287 O 0.73296 0.72889 0.01851 0.0
O288 O 0.84562 0.73771 0.93137 0.0
C289 C 0.72376 0.68002 0.00729 0.0
O290 O 0.8217 0.72714 0.13527 0.0
C291 C 0.85828 0.78464 0.93121 0.0
O292 O 0.83582 0.79542 0.10471 0.0
O293 O 0.85014 0.81559 0.96914 0.0
C294 C 0.03235 0.5906 0.90904 0.0
O295 O 0.02689 0.54876 0.87699 0.0
Cd296 Cd 0.03361 0.46749 0.84139 0.0
O297 O 0.01191 0.62167 0.89876 0.0
Cd298 Cd 0.97542 0.57228 0.81013 0.0
C299 C 0.93197 0.44043 0.80812 0.0
O300 O 0.01913 0.51825 0.78812 0.0
O301 O 0.00406 0.55132 0.72787 0.0
O302 O 0.92937 0.61372 0.77039 0.0
C303 C 0.01709 0.51611 0.7421 0.0
O304 O 0.9617 0.42157 0.82174 0.0
C305 C 0.8966 0.57846 0.7693 0.0
O306 O 0.9382 0.48639 0.80563 0.0
O307 O 0.90049 0.54417 0.7916 0.0
C308 C 0.00183 0.53648 0.50623 0.0
O309 O 0.99577 0.57848 0.52859 0.0
Cd310 Cd 0.9331 0.57083 0.47655 0.0
O311 O 0.97013 0.5016 0.48359 0.0
Cd312 Cd 0.90573 0.51935 0.51787 0.0
C313 C 0.89695 0.45143 0.40852 0.0
O314 O 0.89658 0.60562 0.53764 0.0
O315 O 0.84013 0.54275 0.52163 0.0
O316 O 0.94757 0.52323 0.59348 0.0
C317 C 0.85788 0.59003 0.53983 0.0
O318 O 0.9173 0.49445 0.40491 0.0
C319 C 0.92268 0.48321 0.59841 0.0
O320 O 0.88107 0.44826 0.44813 0.0
O321 O 0.88575 0.46988 0.57399 0.0
C322 C 0.65416 0.56378 0.38841 0.0
O323 O 0.64533 0.59493 0.36443 0.0
Cd324 Cd 0.69659 0.59259 0.30049 0.0
O325 O 0.68167 0.53961 0.36844 0.0
Cd326 Cd 0.72761 0.53583 0.27334 0.0
C327 C 0.78501 0.6725 0.29538 0.0
O328 O 0.66409 0.56721 0.21077 0.0
O329 O 0.70078 0.52229 0.17239 0.0
O330 O 0.75545 0.45989 0.31188 0.0
C331 C 0.67326 0.54785 0.16726 0.0
O332 O 0.75077 0.67457 0.31254 0.0
C333 C 0.77841 0.43956 0.28205 0.0
O334 O 0.79044 0.62682 0.27994 0.0
O335 O 0.77729 0.45874 0.24388 0.0
Eu336 Eu 0.05595 0.03931 0.01185 0.0
C337 C 0.15942 0.2486 0.10108 0.0
C338 C 0.19259 0.27924 0.03558 0.0
C339 C 0.19792 0.33807 0.11728 0.0
C340 C 0.1703 0.23901 0.0538 0.0
C341 C 0.1722 0.29882 0.13312 0.0
C342 C 0.20794 0.32833 0.06826 0.0
C343 C 0.12948 0.26967 0.19148 0.0
N344 N 0.13657 0.20857 0.1159 0.0
C345 C 0.11725 0.22091 0.15807 0.0
C346 C 0.15911 0.30798 0.18027 0.0
Eu347 Eu 0.14344 0.12336 0.06778 0.0
N348 N 0.15561 0.19088 0.02402 0.0
C349 C 0.15453 0.18379 0.97295 0.0
C350 C 0.19707 0.26939 0.98459 0.0
C351 C 0.17607 0.22201 0.95264 0.0
H352 H 0.0939 0.19469 0.16977 0.0
H353 H 0.17598 0.21493 0.91228 0.0
H354 H 0.22606 0.35936 0.05539 0.0
H355 H 0.11647 0.27722 0.22641 0.0
H356 H 0.13574 0.14999 0.94715 0.0
H357 H 0.03036 0.95068 0.17071 0.0
H358 H 0.2139 0.29911 0.96905 0.0
H359 H 0.10043 0.96881 0.90644 0.0
H360 H 0.06618 1.0163 0.13365 0.0
H361 H 0.07958 0.885 0.85223 0.0
H362 H 0.20885 0.37641 0.14196 0.0
H363 H 0.99351 0.86515 0.11608 0.0
H364 H 0.97933 0.80386 0.03038 0.0
H365 H 0.16997 0.34515 0.20696 0.0
H366 H 0.99366 0.7857 0.94265 0.0
N367 N 0.04602 0.97309 0.05702 0.0
C368 C 0.04842 0.98127 0.10841 0.0
C369 C 0.00869 0.89483 0.09938 0.0
C370 C 0.01108 0.88445 0.04784 0.0
C371 C 0.02914 0.94299 0.13015 0.0
C372 C 0.0311 0.92464 0.02795 0.0
H373 H 0.02916 0.81621 0.87524 0.0
N374 N 0.0608 0.95428 0.96299 0.0
C375 C 0.06783 0.89256 0.88801 0.0
C376 C 0.03974 0.91456 0.97956 0.0
C377 C 0.07924 0.94197 0.92013 0.0
C378 C 0.04003 0.85386 0.90119 0.0
C379 C 0.02791 0.86372 0.94883 0.0
O380 O 0.99713 0.04514 0.97283 0.0
O381 O 0.07946 0.12546 0.03749 0.0
O382 O 0.10307 0.11763 0.13717 0.0
O383 O 0.03916 0.07668 0.09134 0.0
O384 O 0.05269 0.09502 0.96248 0.0
O385 O 0.99616 1.01811 0.04031 0.0
O386 O 0.20278 0.11679 0.10853 0.0
O387 O 0.12122 0.03693 0.04099 0.0
O388 O 0.09242 0.04651 0.94109 0.0
O389 O 0.15749 0.08592 0.98523 0.0
O390 O 0.14692 0.06678 0.1162 0.0
O391 O 0.20367 0.14903 0.04402 0.0
C392 C 0.067 0.13774 0.99703 0.0
C393 C 0.92954 1.01673 0.99753 0.0
C394 C 0.86217 1.00564 0.02747 0.0
C395 C 0.90608 1.01633 0.03743 0.0
C396 C 0.84176 0.98885 0.97738 0.0
C397 C 0.90884 1.00954 0.94938 0.0
C398 C 0.86515 0.99288 0.93843 0.0
C399 C 0.06106 0.10173 0.1363 0.0
C400 C 0.9754 0.03375 0.00764 0.0
C401 C 0.00418 0.82448 0.96646 0.0
C402 C 0.99586 0.83484 0.01617 0.0
C403 C 0.13412 0.02429 0.08124 0.0
C404 C 0.27005 0.14955 0.08394 0.0
C405 C 0.29241 0.11281 0.06867 0.0
C406 C 0.33537 0.12825 0.0665 0.0
C407 C 0.35648 0.18004 0.08363 0.0
C408 C 0.2908 0.20161 0.09745 0.0
C409 C 0.3342 0.2161 0.0991 0.0
C410 C 0.13417 0.06131 0.94044 0.0
C411 C 0.22455 0.13258 0.0757 0.0
H412 H 0.92188 0.03024 0.07611 0.0
H413 H 0.80781 0.9811 0.96893 0.0
H414 H 0.92732 1.01883 0.92136 0.0
H415 H 0.84919 0.98662 0.90062 0.0
H416 H 0.27587 0.07267 0.05555 0.0
H417 H 0.39 0.19314 0.08351 0.0
H418 H 0.27375 0.23089 0.10598 0.0
H419 H 0.351 0.25513 0.11081 0.0
Eu420 Eu 0.37011 0.80813 0.2249 0.0
C421 C 0.28707 0.93386 0.40063 0.0
C422 C 0.34347 0.99277 0.46206 0.0
C423 C 0.27226 0.97782 0.48168 0.0
C424 C 0.32922 0.95458 0.41619 0.0
C425 C 0.25791 0.94472 0.43317 0.0
C426 C 0.31471 1.00427 0.49492 0.0
C427 C 0.20279 0.89512 0.3652 0.0
N428 N 0.27487 0.89986 0.35494 0.0
C429 C 0.23311 0.8823 0.33585 0.0
C430 C 0.21527 0.92278 0.41534 0.0
Eu431 Eu 0.32395 0.8513 0.33242 0.0
N432 N 0.35618 0.93365 0.38884 0.0
C433 C 0.39828 0.9507 0.40624 0.0
C434 C 0.38643 1.01552 0.47482 0.0
C435 C 0.41396 0.99524 0.44551 0.0
H436 H 0.22261 0.85621 0.29921 0.0
H437 H 0.44721 1.01206 0.45535 0.0
H438 H 0.32521 0.03178 0.53133 0.0
H439 H 0.1697 0.88144 0.35001 0.0
H440 H 0.41975 0.92853 0.39267 0.0
H441 H 0.24856 0.64652 0.10521 0.0
H442 H 0.39871 0.04675 0.50832 0.0
H443 H 0.47337 0.81383 0.25962 0.0
H444 H 0.27559 0.73479 0.15845 0.0
H445 H 0.52636 0.77856 0.21678 0.0
H446 H 0.25057 0.98492 0.50825 0.0
H447 H 0.29771 0.60024 0.06599 0.0
H448 H 0.37182 0.60515 0.05008 0.0
H449 H 0.19166 0.92936 0.4387 0.0
H450 H 0.44618 0.65048 0.07232 0.0
N451 N 0.33799 0.72659 0.17058 0.0
C452 C 0.29687 0.71078 0.14936 0.0
C453 C 0.30943 0.63549 0.09528 0.0
C454 C 0.35232 0.65618 0.11059 0.0
C455 C 0.28158 0.66237 0.1161 0.0
C456 C 0.36575 0.6998 0.15199 0.0
H457 H 0.50426 0.71635 0.13429 0.0
N458 N 0.42088 0.7593 0.21188 0.0
C459 C 0.49328 0.76191 0.20322 0.0
C460 C 0.40836 0.71896 0.17032 0.0
C461 C 0.46298 0.77929 0.22968 0.0
C462 C 0.48067 0.72584 0.15705 0.0
C463 C 0.43808 0.70156 0.14145 0.0
O464 O 0.42768 0.84905 0.20665 0.0
O465 O 0.38093 0.86533 0.2986 0.0
O466 O 0.297 0.88396 0.2676 0.0
O467 O 0.3113 0.83163 0.19417 0.0
O468 O 0.38257 0.89424 0.23759 0.0
O469 O 0.37576 0.80458 0.1461 0.0
O470 O 0.28203 0.79358 0.35783 0.0
O471 O 0.32288 0.78152 0.27117 0.0
O472 O 0.40194 0.78083 0.28929 0.0
O473 O 0.38621 0.83171 0.36065 0.0
O474 O 0.2664 0.80053 0.28052 0.0
O475 O 0.33136 0.85079 0.41221 0.0
C476 C 0.3912 0.90584 0.28577 0.0
C477 C 0.4319 0.86211 0.12735 0.0
C478 C 0.44052 0.94065 0.10345 0.0
C479 C 0.42443 0.91038 0.13405 0.0
C480 C 0.46327 0.92203 0.0655 0.0
C481 C 0.45489 0.84341 0.0902 0.0
C482 C 0.46988 0.87328 0.05854 0.0
C483 C 0.2914 0.86598 0.21668 0.0
C484 C 0.41538 0.83019 0.15821 0.0
C485 C 0.42434 0.66204 0.09687 0.0
C486 C 0.38181 0.637 0.08348 0.0
C487 C 0.28371 0.76733 0.2561 0.0
C488 C 0.28729 0.78725 0.44113 0.0
C489 C 0.30065 0.74277 0.43922 0.0
C490 C 0.28832 0.71477 0.47325 0.0
C491 C 0.26322 0.73169 0.50914 0.0
C492 C 0.2625 0.80453 0.47677 0.0
C493 C 0.2506 0.77659 0.5111 0.0
C494 C 0.40819 0.79935 0.33951 0.0
C495 C 0.29701 0.81505 0.40466 0.0
H496 H 0.40459 0.92338 0.16102 0.0
H497 H 0.47288 0.94324 0.03858 0.0
H498 H 0.46001 0.80534 0.08479 0.0
H499 H 0.48451 0.85783 0.02703 0.0
H500 H 0.32075 0.7306 0.41212 0.0
H501 H 0.25501 0.71142 0.5371 0.0
H502 H 0.25227 0.83928 0.47773 0.0
H503 H 0.23237 0.78999 0.53969 0.0
Eu504 Eu 0.64512 0.08448 0.51046 0.0
C505 C 0.53971 0.02188 0.64799 0.0
C506 C 0.49358 0.93989 0.60077 0.0
C507 C 0.51323 0.95852 0.69142 0.0
C508 C 0.51818 0.98843 0.602 0.0
C509 C 0.53661 1.00725 0.69302 0.0
C510 C 0.491 0.92534 0.64566 0.0
C511 C 0.57705 0.09211 0.73897 0.0
N512 N 0.56368 0.06876 0.64887 0.0
C513 C 0.58055 0.1048 0.69319 0.0
C514 C 0.55631 0.04252 0.73871 0.0
Eu515 Eu 0.56219 0.08629 0.57074 0.0
N516 N 0.52035 1.00368 0.55886 0.0
C517 C 0.49758 0.97358 0.51395 0.0
C518 C 0.47203 0.90737 0.5545 0.0
C519 C 0.47338 0.92465 0.51094 0.0
H520 H 0.59736 0.14283 0.6926 0.0
H521 H 0.45674 0.89997 0.475 0.0
H522 H 0.47091 0.88886 0.64454 0.0
H523 H 0.5909 0.12017 0.77423 0.0
H524 H 0.50066 0.98582 0.47979 0.0
H525 H 0.75019 0.27329 0.59442 0.0
H526 H 0.45464 0.86877 0.55195 0.0
H527 H 0.60883 1.01993 0.3901 0.0
H528 H 0.70248 0.19259 0.59599 0.0
H529 H 0.62685 0.02731 0.30599 0.0
H530 H 0.51239 0.94762 0.72613 0.0
H531 H 0.76718 0.28802 0.51319 0.0
H532 H 0.76856 0.2474 0.42524 0.0
H533 H 0.55515 0.03228 0.77407 0.0
H534 H 0.73801 0.18031 0.34573 0.0
N535 N 0.6876 0.1651 0.51584 0.0
C536 C 0.70799 0.19945 0.55996 0.0
C537 C 0.74535 0.25304 0.51369 0.0
C538 C 0.72763 0.21502 0.46921 0.0
C539 C 0.73562 0.24509 0.55953 0.0
C540 C 0.69672 0.17219 0.47079 0.0
H541 H 0.68117 0.10208 0.29988 0.0
N542 N 0.64796 0.09315 0.42868 0.0
C543 C 0.64106 0.05786 0.33943 0.0
C544 C 0.67751 0.1348 0.42628 0.0
C545 C 0.63039 0.05413 0.38661 0.0
C546 C 0.67175 0.10019 0.33616 0.0
C547 C 0.69079 0.13873 0.37998 0.0
O548 O 0.67046 0.02415 0.46791 0.0
O549 O 0.58193 0.03123 0.50973 0.0
O550 O 0.61283 0.05899 0.61469 0.0
O551 O 0.66963 0.10518 0.59123 0.0
O552 O 0.63231 1.00329 0.52233 0.0
O553 O 0.71224 0.09055 0.52434 0.0
O554 O 0.53508 0.13878 0.62256 0.0
O555 O 0.62472 0.14023 0.57163 0.0
O556 O 0.59744 0.10754 0.46069 0.0
O557 O 0.53659 0.0776 0.49082 0.0
O558 O 0.57403 0.16885 0.56222 0.0
O559 O 0.49491 0.07518 0.56199 0.0
C560 C 0.59208 0.99064 0.51562 0.0
C561 C 0.74357 0.02653 0.48072 0.0
C562 C 0.79116 0.9758 0.49795 0.0
C563 C 0.75765 0.99709 0.51064 0.0
C564 C 0.80855 0.98315 0.45481 0.0
C565 C 0.76448 0.03813 0.44142 0.0
C566 C 0.79771 1.01713 0.42939 0.0
C567 C 0.65405 0.07542 0.61844 0.0
C568 C 0.70826 0.04732 0.49137 0.0
C569 C 0.7245 0.17914 0.37963 0.0
C570 C 0.74227 0.21703 0.42416 0.0
C571 C 0.61433 0.18113 0.56707 0.0
C572 C 0.46059 0.12947 0.61203 0.0
C573 C 0.44176 0.15035 0.57729 0.0
C574 C 0.40166 0.15752 0.58183 0.0
C575 C 0.38132 0.1453 0.62167 0.0
C576 C 0.43985 0.11591 0.65079 0.0
C577 C 0.40042 0.1245 0.65573 0.0
C578 C 0.55615 0.09733 0.45804 0.0
C579 C 0.49727 0.11136 0.60258 0.0
H580 H 0.74306 0.99144 0.54338 0.0
H581 H 0.83173 0.96444 0.44147 0.0
H582 H 0.75507 0.06319 0.42012 0.0
H583 H 0.81551 0.02769 0.40095 0.0
H584 H 0.45682 0.15743 0.54525 0.0
H585 H 0.3497 0.14894 0.62496 0.0
H586 H 0.45365 0.09739 0.67622 0.0
H587 H 0.38394 0.11338 0.68479 0.0
Eu588 Eu 0.30952 0.34361 0.78896 0.0
C589 C 0.46171 0.26178 0.845 0.0
C590 C 0.49675 0.32672 0.92027 0.0
C591 C 0.51803 0.24724 0.89871 0.0
C592 C 0.469 0.31082 0.87428 0.0
C593 C 0.4871 0.22983 0.85581 0.0
C594 C 0.52146 0.29478 0.93228 0.0
C595 C 0.44462 0.16253 0.78677 0.0
N596 N 0.4297 0.24518 0.80601 0.0
C597 C 0.41956 0.1953 0.7786 0.0
C598 C 0.4802 0.18113 0.82349 0.0
Eu599 Eu 0.40306 0.30938 0.77941 0.0
N600 N 0.44782 0.34245 0.85886 0.0
C601 C 0.45324 0.39067 0.88849 0.0
C602 C 0.49802 0.37373 0.95297 0.0
C603 C 0.47573 0.40548 0.93686 0.0
H604 H 0.39387 0.18209 0.74795 0.0
H605 H 0.47589 0.4418 0.96083 0.0
H606 H 0.54344 0.30657 0.96697 0.0
H607 H 0.43749 0.12372 0.76339 0.0
H608 H 0.43707 0.41677 0.87712 0.0
H609 H 0.22612 0.22529 0.60669 0.0
H610 H 0.51572 0.38564 0.99045 0.0
H611 H 0.32556 0.47194 0.83416 0.0
H612 H 0.26881 0.24371 0.68813 0.0
H613 H 0.28563 0.53682 0.82614 0.0
H614 H 0.53776 0.22311 0.90764 0.0
H615 H 0.19123 0.29021 0.58552 0.0
H616 H 0.16608 0.36921 0.62035 0.0
H617 H 0.50087 0.15669 0.82839 0.0
H618 H 0.17701 0.44992 0.68631 0.0
N619 N 0.265 0.32037 0.71079 0.0
C620 C 0.25499 0.2726 0.6793 0.0
C621 C 0.21033 0.29807 0.62157 0.0
C622 C 0.21503 0.34402 0.65773 0.0
C623 C 0.23013 0.26183 0.63286 0.0
C624 C 0.24519 0.35556 0.70097 0.0
H625 H 0.22066 0.51166 0.76491 0.0
N626 N 0.2877 0.41492 0.77196 0.0
C627 C 0.27668 0.4991 0.80034 0.0
C628 C 0.25491 0.40308 0.73432 0.0
C629 C 0.29961 0.46286 0.80407 0.0
C630 C 0.24015 0.48503 0.76536 0.0
C631 C 0.23023 0.4377 0.72983 0.0
O632 O 0.28721 0.38054 0.85646 0.0
O633 O 0.3717 0.35487 0.83462 0.0
O634 O 0.35418 0.23684 0.79262 0.0
O635 O 0.29032 0.25595 0.77707 0.0
O636 O 0.32091 0.319 0.86101 0.0
O637 O 0.24607 0.31329 0.80232 0.0
O638 O 0.42205 0.2624 0.71424 0.0
O639 O 0.33951 0.29491 0.73459 0.0
O640 O 0.36009 0.41754 0.77805 0.0
O641 O 0.42387 0.39641 0.78752 0.0
O642 O 0.38913 0.33061 0.70583 0.0
O643 O 0.46207 0.33733 0.75498 0.0
C644 C 0.36028 0.33941 0.87266 0.0
C645 C 0.21405 0.36424 0.85976 0.0
C646 C 0.14814 0.34743 0.89234 0.0
C647 C 0.18285 0.3311 0.87605 0.0
C648 C 0.14528 0.39717 0.89267 0.0
C649 C 0.21039 0.41346 0.85969 0.0
C650 C 0.17585 0.42977 0.87567 0.0
C651 C 0.3119 0.22321 0.78705 0.0
C652 C 0.25081 0.34698 0.84558 0.0
C653 C 0.19665 0.42403 0.69005 0.0
C654 C 0.19036 0.37818 0.65259 0.0
C655 C 0.35009 0.30803 0.69529 0.0
C656 C 0.49506 0.28023 0.70858 0.0
C657 C 0.52885 0.31543 0.6994 0.0
C658 C 0.56784 0.30444 0.69919 0.0
C659 C 0.57317 0.25779 0.70689 0.0
C660 C 0.49985 0.23284 0.71388 0.0
C661 C 0.539 0.222 0.7141 0.0
C662 C 0.40254 0.43061 0.78126 0.0
C663 C 0.45705 0.29686 0.71744 0.0
H664 H 0.18592 0.29314 0.87668 0.0
H665 H 0.12001 0.41134 0.90673 0.0
H666 H 0.23451 0.43967 0.84877 0.0
H667 H 0.17324 0.46796 0.87575 0.0
H668 H 0.52546 0.3525 0.69563 0.0
H669 H 0.6038 0.24963 0.70849 0.0
H670 H 0.47376 0.20472 0.71857 0.0
H671 H 0.54281 0.18631 0.72079 0.0
Eu672 Eu 0.09659 0.13635 0.57357 0.0
C673 C 0.14638 1.00392 0.39199 0.0
C674 C 0.08093 0.96759 0.33475 0.0
C675 C 0.14685 0.97338 0.30149 0.0
C676 C 0.10293 0.99033 0.38404 0.0
C677 C 0.16869 0.99733 0.35028 0.0
C678 C 0.10301 0.95784 0.29385 0.0
C679 C 0.23307 0.03677 0.40768 0.0
N680 N 0.16679 0.02454 0.44001 0.0
C681 C 0.21007 0.03747 0.44805 0.0
C682 C 0.21237 1.01541 0.35857 0.0
Eu683 Eu 0.12157 0.0264 0.50476 0.0
N684 N 0.08199 1.00175 0.42379 0.0
C685 C 0.03954 0.99491 0.41628 0.0
C686 C 0.03735 0.95821 0.32741 0.0
C687 C 0.0171 0.97591 0.36766 0.0
H688 H 0.22696 0.05106 0.48607 0.0
H689 H 0.98446 0.97593 0.3614 0.0
H690 H 0.0864 0.94045 0.25585 0.0
H691 H 0.26702 0.04992 0.41469 0.0
H692 H 0.02336 1.00733 0.44734 0.0
H693 H 0.23629 0.17874 0.71162 0.0
H694 H 0.01972 0.93994 0.29021 0.0
H695 H 0.9918 0.11197 0.59739 0.0
H696 H 0.19541 0.15049 0.62677 0.0
H697 H 0.95418 0.1115 0.66972 0.0
H698 H 0.16358 0.96729 0.26932 0.0
H699 H 0.20284 0.21525 0.78499 0.0
H700 H 0.13788 0.21508 0.82276 0.0
H701 H 0.23045 1.01209 0.32746 0.0
H702 H 0.06079 0.19197 0.81205 0.0
N703 N 0.13745 0.15503 0.65342 0.0
C704 C 0.17989 0.16095 0.65913 0.0
C705 C 0.18447 0.19623 0.74853 0.0
C706 C 0.14108 0.18789 0.7431 0.0
C707 C 0.20348 0.17848 0.70709 0.0
C708 C 0.1179 0.16644 0.69441 0.0
H709 H 0.99258 0.14939 0.75589 0.0
N710 N 0.05329 0.13656 0.64047 0.0
C711 C 0.98815 0.1243 0.67553 0.0
C712 C 0.07467 0.15543 0.68804 0.0
C713 C 0.01007 0.12326 0.63426 0.0
C714 C 0.00983 0.14578 0.72403 0.0
C715 C 0.05351 0.16264 0.73078 0.0
O716 O 0.06772 0.20125 0.58515 0.0
O717 O 0.08924 0.0885 0.49269 0.0
O718 O 0.17415 0.09618 0.50094 0.0
O719 O 0.15923 0.16822 0.54775 0.0
O720 O 0.05607 0.14223 0.50153 0.0
O721 O 0.13469 0.21266 0.5819 0.0
O722 O 0.15337 0.96552 0.5002 0.0
O723 O 0.12997 0.0731 0.58774 0.0
O724 O 0.03847 0.07205 0.56101 0.0
O725 O 0.05614 0.99682 0.53002 0.0
O726 O 0.16124 1.01743 0.57359 0.0
O727 O 0.08486 0.94756 0.48657 0.0
C728 C 0.06621 0.10944 0.46613 0.0
C729 C 0.10021 0.2663 0.54723 0.0
C730 C 0.12532 0.30803 0.48198 0.0
C731 C 0.12669 0.27096 0.50939 0.0
C732 C 0.09768 0.33961 0.49277 0.0
C733 C 0.07224 0.2975 0.55563 0.0
C734 C 0.07157 0.33431 0.52918 0.0
C735 C 0.18327 0.14656 0.51851 0.0
C736 C 0.10264 0.23286 0.58165 0.0
C737 C 0.07655 0.18535 0.77909 0.0
C738 C 0.12036 0.19865 0.78516 0.0
C739 C 0.15216 0.04819 0.61142 0.0
C740 C 0.11685 0.89414 0.52472 0.0
C741 C 0.08775 0.88843 0.55917 0.0
C742 C 0.08689 0.85051 0.5855 0.0
C743 C 0.11556 0.81977 0.57814 0.0
C744 C 0.14576 0.86387 0.51912 0.0
C745 C 0.14499 0.82686 0.54562 0.0
C746 C 0.02948 0.0219 0.55105 0.0
C747 C 0.11817 0.93029 0.4932 0.0
H748 H 0.14877 0.24736 0.50238 0.0
H749 H 0.09692 0.36949 0.47363 0.0
H750 H 0.05177 0.29457 0.58414 0.0
H751 H 0.05173 0.3601 0.53806 0.0
H752 H 0.06579 0.91234 0.56492 0.0
H753 H 0.11515 0.79001 0.59773 0.0
H754 H 0.16866 0.86834 0.4935 0.0
H755 H 0.16684 0.80302 0.54035 0.0
Eu756 Eu 0.38883 0.85458 0.75125 0.0
C757 C 0.34726 0.77311 0.92145 0.0
C758 C 0.35712 0.6869 0.89771 0.0
C759 C 0.36612 0.73139 0.98607 0.0
C760 C 0.34765 0.72992 0.88402 0.0
C761 C 0.35609 0.7737 0.9729 0.0
C762 C 0.36633 0.68802 0.94858 0.0
C763 C 0.33386 0.852 0.99587 0.0
N764 N 0.33253 0.81117 0.90821 0.0
C765 C 0.3221 0.84756 0.9448 0.0
C766 C 0.35142 0.81517 0.00998 0.0
Eu767 Eu 0.31773 0.8036 0.81956 0.0
N768 N 0.33571 0.72807 0.83487 0.0
C769 C 0.33309 0.68368 0.7985 0.0
C770 C 0.35597 0.64304 0.8601 0.0
C771 C 0.34457 0.64183 0.81031 0.0
H772 H 0.30644 0.87481 0.93417 0.0
H773 H 0.34384 0.60811 0.78067 0.0
H774 H 0.37282 0.65499 0.95938 0.0
H775 H 0.32752 0.8824 0.02436 0.0
H776 H 0.32396 0.67917 0.75929 0.0
H777 H 0.35627 0.04689 0.7947 0.0
H778 H 0.36334 0.60964 0.86912 0.0
H779 H 0.39622 0.78052 0.63756 0.0
H780 H 0.37164 0.9732 0.81478 0.0
H781 H 0.38606 0.78094 0.54795 0.0
H782 H 0.37215 0.73102 0.0253 0.0
H783 H 0.34587 0.05106 0.70698 0.0
H784 H 0.34996 1.0144 0.61667 0.0
H785 H 0.35811 0.81698 0.04963 0.0
H786 H 0.35642 0.94197 0.54976 0.0
N787 N 0.37429 0.93255 0.73863 0.0
C788 C 0.37044 0.97325 0.77595 0.0
C789 C 0.35568 1.01891 0.71529 0.0
C790 C 0.36072 0.97878 0.67708 0.0
C791 C 0.36081 1.01627 0.76482 0.0
C792 C 0.36951 0.93509 0.68971 0.0
H793 H 0.36722 0.85424 0.52368 0.0
N794 N 0.38177 0.85236 0.66409 0.0
C795 C 0.38192 0.81269 0.57668 0.0
C796 C 0.3729 0.89395 0.65165 0.0
C797 C 0.38805 0.81292 0.62755 0.0
C798 C 0.37132 0.85417 0.56314 0.0
C799 C 0.36782 0.89599 0.60071 0.0
O800 O 0.44454 0.88746 0.72415 0.0
O801 O 0.38366 0.79402 0.79773 0.0
O802 O 0.35821 0.87211 0.87323 0.0
O803 O 0.40265 0.91205 0.82677 0.0
O804 O 0.40342 0.77469 0.72874 0.0
O805 O 0.45137 0.86428 0.79364 0.0
O806 O 0.26719 0.77559 0.85617 0.0
O807 O 0.32761 0.86903 0.77979 0.0
O808 O 0.33768 0.79746 0.69491 0.0
O809 O 0.30827 0.74833 0.74492 0.0
O810 O 0.28232 0.86818 0.82353 0.0
O811 O 0.25296 0.77599 0.7785 0.0
C812 C 0.39881 0.75852 0.76897 0.0
C813 C 0.50206 0.85185 0.73809 0.0
C814 C 0.57735 0.86331 0.74436 0.0
C815 C 0.54141 0.86428 0.76764 0.0
C816 C 0.57324 0.84669 0.69159 0.0
C817 C 0.49788 0.82632 0.68677 0.0
C818 C 0.53355 0.82483 0.6633 0.0
C819 C 0.38615 0.91077 0.86816 0.0
C820 C 0.46991 0.8777 0.75742 0.0
C821 C 0.35986 0.93971 0.58858 0.0
C822 C 0.35631 0.98096 0.62665 0.0
C823 C 0.29684 0.892 0.79115 0.0
C824 C 0.2016 0.79015 0.83364 0.0
C825 C 0.17228 0.79539 0.79641 0.0
C826 C 0.13233 0.79983 0.80721 0.0
C827 C 0.12306 0.80187 0.85629 0.0
C828 C 0.19302 0.79758 0.88369 0.0
C829 C 0.15376 0.80319 0.8948 0.0
C830 C 0.31704 0.75409 0.70128 0.0
C831 C 0.23782 0.76987 0.81956 0.0
H832 H 0.54467 0.87931 0.80811 0.0
H833 H 0.60036 0.85016 0.67222 0.0
H834 H 0.46752 0.81267 0.66366 0.0
H835 H 0.53039 0.80969 0.62283 0.0
H836 H 0.17949 0.79268 0.75838 0.0
H837 H 0.09183 0.80082 0.86471 0.0
H838 H 0.21583 0.79703 0.91404 0.0
H839 H 0.14649 0.80614 0.93281 0.0
Eu840 Eu 0.6158 0.04027 0.0747 0.0
C841 C 0.50363 0.11919 0.93842 0.0
C842 C 0.48638 0.05103 0.86118 0.0
C843 C 0.44083 0.10843 0.8796 0.0
C844 C 0.51263 0.07679 0.90721 0.0
C845 C 0.46725 0.13493 0.92497 0.0
C846 C 0.4522 0.06894 0.84652 0.0
C847 C 0.48727 0.20465 1.00021 0.0
N848 N 0.53023 0.14504 0.98175 0.0
C849 C 0.5238 0.18906 0.01099 0.0
C850 C 0.45868 0.17724 0.95719 0.0
Eu851 Eu 0.59367 0.11962 0.99162 0.0
N852 N 0.54682 0.06074 0.92164 0.0
C853 C 0.55287 1.01553 0.89448 0.0
C854 C 0.49462 1.00737 0.83136 0.0
C855 C 0.52748 0.98905 0.84876 0.0
H856 H 0.54723 0.21291 0.04221 0.0
H857 H 0.53398 0.95532 0.82635 0.0
H858 H 0.43513 0.05293 0.80921 0.0
H859 H 0.48181 0.23884 0.02396 0.0
H860 H 0.57684 0.99889 0.90718 0.0
H861 H 0.67823 0.21048 0.23298 0.0
H862 H 0.47522 0.98699 0.79551 0.0
H863 H 0.66005 0.94571 0.02572 0.0
H864 H 0.63508 0.16467 0.15347 0.0
H865 H 0.7193 0.91228 0.05185 0.0
H866 H 0.41318 0.12047 0.86821 0.0
H867 H 0.73535 0.17695 0.26635 0.0
H868 H 0.77007 0.10599 0.25986 0.0
H869 H 0.43096 0.19024 0.94815 0.0
H870 H 0.78931 0.03362 0.20508 0.0
N871 N 0.66264 0.10064 0.14301 0.0
C872 C 0.6577 0.14726 0.168 0.0
C873 C 0.71489 0.15546 0.23204 0.0
C874 C 0.72169 0.10979 0.20476 0.0
C875 C 0.68325 0.17473 0.2131 0.0
C876 C 0.69618 0.08406 0.15845 0.0
H877 H 0.76811 0.95901 0.12975 0.0
N878 N 0.67896 1.01513 0.08421 0.0
C879 C 0.71612 0.94902 0.07277 0.0
C880 C 0.70476 0.04065 0.12831 0.0
C881 C 0.68332 0.9689 0.0574 0.0
C882 C 0.74346 0.97538 0.11707 0.0
C883 C 0.73817 0.02174 0.14528 0.0
O884 O 0.58647 0.95889 0.06434 0.0
O885 O 0.57505 0.04527 0.00877 0.0
O886 O 0.56814 0.14276 0.06615 0.0
O887 O 0.57773 0.08956 0.11913 0.0
O888 O 0.54553 1.00962 0.0587 0.0
O889 O 0.62079 1.00673 0.13692 0.0
O890 O 0.62197 0.20162 0.00585 0.0
O891 O 0.6344 0.11406 0.05739 0.0
O892 O 0.64301 1.01817 0.00163 0.0
O893 O 0.63292 0.07077 0.948 0.0
O894 O 0.66426 0.14701 0.00601 0.0
O895 O 0.59152 0.15576 0.93071 0.0
C896 C 0.53988 0.02354 0.01782 0.0
C897 C 0.5643 0.94452 0.13995 0.0
C898 C 0.5272 0.97372 0.20785 0.0
C899 C 0.54342 0.97993 0.16441 0.0
C900 C 0.52569 0.92788 0.22209 0.0
C901 C 0.56452 0.90021 0.15548 0.0
C902 C 0.54406 0.89123 0.19564 0.0
C903 C 0.56253 0.12673 0.10765 0.0
C904 C 0.59688 0.96232 0.11214 0.0
C905 C 0.76354 0.04767 0.19144 0.0
C906 C 0.75369 0.08981 0.22215 0.0
C907 C 0.66965 0.13401 0.0473 0.0
C908 C 0.64922 0.22006 0.93423 0.0
C909 C 0.67378 0.18718 0.91423 0.0
C910 C 0.69485 0.19501 0.87433 0.0
C911 C 0.69431 0.23868 0.85715 0.0
C912 C 0.64858 0.26326 0.91694 0.0
C913 C 0.67137 0.27253 0.87859 0.0
C914 C 0.64862 0.03407 0.96014 0.0
C915 C 0.61435 0.19995 0.95804 0.0
H916 H 0.54542 1.01576 0.15438 0.0
H917 H 0.51198 0.92114 0.25477 0.0
H918 H 0.5835 0.87506 0.13965 0.0
H919 H 0.54555 0.85805 0.20889 0.0
H920 H 0.67077 0.15072 0.92293 0.0
H921 H 0.70766 0.24405 0.82397 0.0
H922 H 0.62701 0.28641 0.92894 0.0
H923 H 0.66721 0.30237 0.86153 0.0
Eu924 Eu 0.38405 0.37591 0.29866 0.0
C925 C 0.22071 0.24046 0.27377 0.0
C926 C 0.20508 0.2267 0.35345 0.0
C927 C 0.16127 0.17212 0.27684 0.0
C928 C 0.2324 0.2477 0.32312 0.0
C929 C 0.18774 0.19881 0.24905 0.0
C930 C 0.16863 0.18833 0.32983 0.0
C931 C 0.21119 0.21346 0.17262 0.0
N932 N 0.24744 0.2668 0.24857 0.0
C933 C 0.23695 0.25972 0.19889 0.0
C934 C 0.18704 0.18189 0.19792 0.0
Eu935 Eu 0.31572 0.26349 0.27211 0.0
N936 N 0.27178 0.27494 0.34067 0.0
C937 C 0.27993 0.29887 0.39122 0.0
C938 C 0.216 0.24492 0.40557 0.0
C939 C 0.25259 0.28402 0.42456 0.0
H940 H 0.25368 0.28456 0.17864 0.0
H941 H 0.25987 0.30265 0.46454 0.0
H942 H 0.14758 0.16964 0.35175 0.0
H943 H 0.20952 0.20459 0.13308 0.0
H944 H 0.30551 0.33216 0.40593 0.0
H945 H 0.44425 0.34222 0.11324 0.0
H946 H 0.19535 0.23155 0.43072 0.0
H947 H 0.44386 0.37291 0.40787 0.0
H948 H 0.39694 0.31079 0.16917 0.0
H949 H 0.4832 0.45666 0.4482 0.0
H950 H 0.13563 0.13944 0.25792 0.0
H951 H 0.50772 0.41332 0.1499 0.0
H952 H 0.55308 0.475 0.22893 0.0
H953 H 0.16861 0.14495 0.17898 0.0
H954 H 0.56043 0.51111 0.32124 0.0
N955 N 0.43141 0.36331 0.2365 0.0
C956 C 0.42323 0.34245 0.18539 0.0
C957 C 0.48763 0.39752 0.17441 0.0
C958 C 0.4977 0.41485 0.22684 0.0
C959 C 0.45132 0.35864 0.15364 0.0
C960 C 0.47032 0.39243 0.25652 0.0
H961 H 0.52444 0.51201 0.39827 0.0
N962 N 0.45207 0.38163 0.33431 0.0
C963 C 0.48273 0.4445 0.4086 0.0
C964 C 0.47943 0.40559 0.30785 0.0
C965 C 0.45967 0.39567 0.38518 0.0
C966 C 0.5068 0.47367 0.38116 0.0
C967 C 0.5093 0.45145 0.33135 0.0
O968 O 0.40308 0.44788 0.3546 0.0
O969 O 0.32312 0.34083 0.32019 0.0
O970 O 0.32564 0.29577 0.19762 0.0
O971 O 0.34641 0.38191 0.23086 0.0
O972 O 0.32344 0.40313 0.29226 0.0
O973 O 0.40997 0.44612 0.27754 0.0
O974 O 0.29837 0.19844 0.20487 0.0
O975 O 0.37864 0.29776 0.25259 0.0
O976 O 0.37508 0.34501 0.37372 0.0
O977 O 0.35095 0.25778 0.34271 0.0
O978 O 0.37558 0.23932 0.28812 0.0
O979 O 0.28705 0.18649 0.27714 0.0
C980 C 0.30113 0.37075 0.3118 0.0
C981 C 0.40225 0.52214 0.32686 0.0
C982 C 0.3535 0.56676 0.29931 0.0
C983 C 0.36343 0.5213 0.3014 0.0
C984 C 0.38199 0.61378 0.32368 0.0
C985 C 0.43102 0.56893 0.35075 0.0
C986 C 0.42055 0.61477 0.3498 0.0
C987 C 0.33399 0.34385 0.19117 0.0
C988 C 0.415 0.47476 0.32314 0.0
C989 C 0.53658 0.4762 0.30314 0.0
C990 C 0.53205 0.45613 0.25075 0.0
C991 C 0.39911 0.26802 0.26595 0.0
C992 C 0.30258 0.11931 0.22006 0.0
C993 C 0.34038 0.11981 0.24799 0.0
C994 C 0.35563 0.07624 0.24121 0.0
C995 C 0.33195 0.0305 0.20739 0.0
C996 C 0.27942 0.07392 0.18555 0.0
C997 C 0.29402 0.02951 0.17948 0.0
C998 C 0.36661 0.2973 0.38131 0.0
C999 C 0.28596 0.16485 0.22983 0.0
H1000 H 0.34197 0.48582 0.28036 0.0
H1001 H 0.37438 0.64958 0.32245 0.0
H1002 H 0.46166 0.56993 0.36944 0.0
H1003 H 0.4426 0.65095 0.36843 0.0
H1004 H 0.35726 0.15292 0.27707 0.0
H1005 H 0.34306 0.99593 0.20208 0.0
H1006 H 0.24979 0.07256 0.16422 0.0
H1007 H 0.27588 0.99429 0.15325 0.0
Eu1008 Eu 0.59673 0.63658 0.07335 0.0
C1009 C 0.64631 0.50395 0.8919 0.0
C1010 C 0.58083 0.46775 0.83471 0.0
C1011 C 0.64672 0.47327 0.8014 0.0
C1012 C 0.60286 0.4905 0.88398 0.0
C1013 C 0.6686 0.49721 0.85016 0.0
C1014 C 0.60287 0.45786 0.79379 0.0
C1015 C 0.73301 0.53657 0.9075 0.0
N1016 N 0.66675 0.52457 0.9399 0.0
C1017 C 0.71003 0.53745 0.9479 0.0
C1018 C 0.71229 0.51517 0.85841 0.0
Eu1019 Eu 0.62158 0.52664 0.00472 0.0
N1020 N 0.58197 0.50204 0.92375 0.0
C1021 C 0.53952 0.49531 0.91627 0.0
C1022 C 0.53726 0.45849 0.8274 0.0
C1023 C 0.51706 0.47629 0.86766 0.0
H1024 H 0.72695 0.55109 0.98591 0.0
H1025 H 0.48442 0.47638 0.86141 0.0
H1026 H 0.58624 0.44045 0.75581 0.0
H1027 H 0.76697 0.54965 0.91448 0.0
H1028 H 0.52338 0.50776 0.94735 0.0
H1029 H 0.73625 0.67884 0.21161 0.0
H1030 H 0.51959 0.4402 0.79022 0.0
H1031 H 0.49185 0.61212 0.09704 0.0
H1032 H 0.69549 0.65071 0.12671 0.0
H1033 H 0.4542 0.61133 0.16927 0.0
H1034 H 0.66342 0.46708 0.76922 0.0
H1035 H 0.70275 0.71537 0.28492 0.0
H1036 H 0.63773 0.71551 0.32252 0.0
H1037 H 0.73035 0.51173 0.82729 0.0
H1038 H 0.56064 0.69232 0.3117 0.0
N1039 N 0.63748 0.65519 0.15326 0.0
C1040 C 0.67992 0.66113 0.15904 0.0
C1041 C 0.68441 0.69641 0.24843 0.0
C1042 C 0.64102 0.68814 0.24292 0.0
C1043 C 0.70345 0.67863 0.20703 0.0
C1044 C 0.61789 0.66664 0.1942 0.0
H1045 H 0.49249 0.6494 0.25547 0.0
N1046 N 0.55334 0.63665 0.14017 0.0
C1047 C 0.48816 0.62421 0.17513 0.0
C1048 C 0.57466 0.65559 0.18776 0.0
C1049 C 0.51013 0.62327 0.1339 0.0
C1050 C 0.50979 0.64581 0.22365 0.0
C1051 C 0.55345 0.66281 0.23046 0.0
O1052 O 0.56796 0.7016 0.08512 0.0
O1053 O 0.58924 0.58873 0.99242 0.0
O1054 O 0.67428 0.59632 0.00088 0.0
O1055 O 0.65935 0.66841 0.04752 0.0
O1056 O 0.5564 0.64282 0.00135 0.0
O1057 O 0.6349 0.71284 0.08174 0.0
O1058 O 0.65311 0.46551 0.99998 0.0
O1059 O 0.6302 0.57337 0.08771 0.0
O1060 O 0.53834 0.57254 0.05997 0.0
O1061 O 0.55632 0.49726 0.0305 0.0
O1062 O 0.66149 0.5177 0.07338 0.0
O1063 O 0.58461 0.44792 0.98679 0.0
C1064 C 0.56636 0.60992 0.9659 0.0
C1065 C 0.60044 0.76621 0.04667 0.0
C1066 C 0.62605 0.80774 0.98154 0.0
C1067 C 0.6274 0.77104 0.00935 0.0
C1068 C 0.59782 0.83871 0.99124 0.0
C1069 C 0.5719 0.79677 0.05402 0.0
C1070 C 0.57117 0.83319 0.02707 0.0
C1071 C 0.68341 0.64671 0.01837 0.0
C1072 C 0.60288 0.7331 0.08143 0.0
C1073 C 0.57644 0.68565 0.27878 0.0
C1074 C 0.62025 0.699 0.28492 0.0
C1075 C 0.65247 0.54842 0.1113 0.0
C1076 C 0.61655 0.39427 0.02472 0.0
C1077 C 0.58766 0.38876 0.05945 0.0
C1078 C 0.58684 0.35085 0.08579 0.0
C1079 C 0.61532 0.31988 0.07812 0.0
C1080 C 0.64525 0.36372 0.01879 0.0
C1081 C 0.64451 0.32671 0.04527 0.0
C1082 C 0.52948 0.52245 0.05084 0.0
C1083 C 0.61783 0.43044 0.9932 0.0
H1084 H 0.64981 0.74782 0.003 0.0
H1085 H 0.59702 0.86827 0.97168 0.0
H1086 H 0.55099 0.7936 0.08204 0.0
H1087 H 0.55082 0.85848 0.03507 0.0
H1088 H 0.56582 0.41283 0.06539 0.0
H1089 H 0.61492 0.29011 0.09769 0.0
H1090 H 0.66797 0.36801 0.99293 0.0
H1091 H 0.6662 0.30265 0.03973 0.0
Eu1092 Eu 0.88942 0.35369 0.24783 0.0
C1093 C 0.84653 0.27362 0.42183 0.0
C1094 C 0.85579 0.18709 0.39942 0.0
C1095 C 0.86437 0.23271 0.48747 0.0
C1096 C 0.847 0.23002 0.38496 0.0
C1097 C 0.85486 0.27492 0.47348 0.0
C1098 C 0.86448 0.18881 0.45054 0.0
C1099 C 0.83334 0.35395 0.49469 0.0
N1100 N 0.8326 0.31178 0.40775 0.0
C1101 C 0.8224 0.34909 0.44334 0.0
C1102 C 0.85029 0.31707 0.50982 0.0
Eu1103 Eu 0.81826 0.3031 0.3194 0.0
N1104 N 0.83609 0.22794 0.33552 0.0
C1105 C 0.83451 0.18366 0.29949 0.0
C1106 C 0.85461 0.14281 0.36233 0.0
C1107 C 0.84446 0.14142 0.31222 0.0
H1108 H 0.8078 0.37667 0.4316 0.0
H1109 H 0.84391 0.10746 0.28298 0.0
H1110 H 0.87057 0.1559 0.46195 0.0
H1111 H 0.82709 0.3849 0.52258 0.0
H1112 H 0.82728 0.17933 0.25995 0.0
H1113 H 0.86004 0.54767 0.29548 0.0
H1114 H 0.86127 0.10934 0.37197 0.0
H1115 H 0.89486 0.28095 0.13298 0.0
H1116 H 0.8755 0.47349 0.31406 0.0
H1117 H 0.87983 0.28058 0.04322 0.0
H1118 H 0.87009 0.23287 0.52688 0.0
H1119 H 0.84611 0.5518 0.20814 0.0
H1120 H 0.84531 0.51402 0.1169 0.0
H1121 H 0.85665 0.31948 0.54967 0.0
H1122 H 0.84752 0.44043 0.04857 0.0
N1123 N 0.87349 0.43152 0.23689 0.0
C1124 C 0.87212 0.47297 0.27501 0.0
C1125 C 0.85531 0.51893 0.21551 0.0
C1126 C 0.85738 0.47781 0.17641 0.0
C1127 C 0.86259 0.51643 0.26487 0.0
C1128 C 0.8656 0.43342 0.18806 0.0
H1129 H 0.85737 0.35266 0.02082 0.0
N1130 N 0.87631 0.34994 0.1606 0.0
C1131 C 0.87516 0.31141 0.0726 0.0
C1132 C 0.86619 0.39142 0.14917 0.0
C1133 C 0.88357 0.31179 0.12328 0.0
C1134 C 0.86242 0.35219 0.06009 0.0
C1135 C 0.85945 0.39367 0.09841 0.0
O1136 O 0.94055 0.38236 0.21338 0.0
O1137 O 0.87732 0.28723 0.28562 0.0
O1138 O 0.86679 0.36427 0.37372 0.0
O1139 O 0.90253 0.40965 0.32402 0.0
O1140 O 0.92016 0.28456 0.23794 0.0
O1141 O 0.95524 0.37091 0.28693 0.0
O1142 O 0.76686 0.27425 0.35431 0.0
O1143 O 0.82923 0.36912 0.27997 0.0
O1144 O 0.83955 0.29317 0.19344 0.0
O1145 O 0.80857 0.24646 0.24496 0.0
O1146 O 0.78529 0.37007 0.32557 0.0
O1147 O 0.75358 0.27885 0.27797 0.0
C1148 C 0.90582 0.26171 0.27102 0.0
C1149 C 0.00476 0.36034 0.22727 0.0
C1150 C 0.08032 0.37115 0.24018 0.0
C1151 C 0.04223 0.36817 0.25962 0.0
C1152 C 0.08022 0.36248 0.18787 0.0
C1153 C 0.00466 0.34443 0.17473 0.0
C1154 C 0.04238 0.34597 0.15522 0.0
C1155 C 0.88984 0.40596 0.36704 0.0
C1156 C 0.96997 0.38105 0.247 0.0
C1157 C 0.85194 0.43799 0.08725 0.0
C1158 C 0.85094 0.47992 0.12612 0.0
C1159 C 0.79918 0.39312 0.29236 0.0
C1160 C 0.70221 0.29192 0.33312 0.0
C1161 C 0.67241 0.29658 0.29614 0.0
C1162 C 0.63254 0.30072 0.30738 0.0
C1163 C 0.62381 0.30314 0.35672 0.0
C1164 C 0.69427 0.2999 0.38342 0.0
C1165 C 0.65505 0.30526 0.39502 0.0
C1166 C 0.81851 0.25068 0.20111 0.0
C1167 C 0.73793 0.27103 0.31818 0.0
H1168 H 0.04249 0.3762 0.29996 0.0
H1169 H 0.10923 0.3685 0.1721 0.0
H1170 H 0.97594 0.33462 0.14847 0.0
H1171 H 0.04241 0.33726 0.1148 0.0
H1172 H 0.67922 0.29357 0.25792 0.0
H1173 H 0.59265 0.30181 0.36552 0.0
H1174 H 0.71751 0.29985 0.41357 0.0
H1175 H 0.64822 0.30857 0.43324 0.0
Eu1176 Eu 0.11674 0.54091 0.57565 0.0
C1177 C 0.00515 0.61889 0.43806 0.0
C1178 C 0.98757 0.54829 0.36304 0.0
C1179 C 0.94274 0.60684 0.37824 0.0
C1180 C 0.01429 0.57592 0.40807 0.0
C1181 C 0.96874 0.6341 0.42369 0.0
C1182 C 0.95411 0.56643 0.34656 0.0
C1183 C 0.9877 0.70425 0.49863 0.0
N1184 N 0.03122 0.64518 0.48162 0.0
C1185 C 0.02424 0.68904 0.5104 0.0
C1186 C 0.95967 0.67647 0.45522 0.0
Eu1187 Eu 0.09469 0.62031 0.49275 0.0
N1188 N 0.04823 0.56011 0.42364 0.0
C1189 C 0.0531 0.51313 0.39955 0.0
C1190 C 0.9937 0.5017 0.33704 0.0
C1191 C 0.02603 0.48359 0.35607 0.0
H1192 H 0.04722 0.71303 0.542 0.0
H1193 H 0.02993 0.44678 0.33772 0.0
H1194 H 0.93733 0.54935 0.30927 0.0
H1195 H 0.98182 0.73839 0.52198 0.0
H1196 H 0.07655 0.49677 0.41404 0.0
H1197 H 0.17819 0.70907 0.73536 0.0
H1198 H 0.97234 0.47859 0.30369 0.0
H1199 H 0.1606 0.44614 0.52568 0.0
H1200 H 0.13539 0.66432 0.65542 0.0
H1201 H 0.21968 0.41229 0.55139 0.0
H1202 H 0.91517 0.61856 0.36596 0.0
H1203 H 0.23594 0.67574 0.76755 0.0
H1204 H 0.27018 0.60426 0.76037 0.0
H1205 H 0.93191 0.68909 0.44545 0.0
H1206 H 0.28991 0.53274 0.70491 0.0
N1207 N 0.16372 0.60093 0.64365 0.0
C1208 C 0.15836 0.64703 0.66938 0.0
C1209 C 0.21564 0.65469 0.73303 0.0
C1210 C 0.22274 0.60952 0.70506 0.0
C1211 C 0.18372 0.67393 0.71472 0.0
C1212 C 0.19738 0.5843 0.65861 0.0
H1213 H 0.26864 0.45861 0.62927 0.0
N1214 N 0.17988 0.51556 0.58418 0.0
C1215 C 0.21671 0.44911 0.57241 0.0
C1216 C 0.20586 0.54095 0.62817 0.0
C1217 C 0.18401 0.46924 0.55726 0.0
C1218 C 0.24414 0.47524 0.61667 0.0
C1219 C 0.23914 0.52174 0.64495 0.0
O1220 O 0.08813 0.45947 0.56561 0.0
O1221 O 0.07596 0.54622 0.51023 0.0
O1222 O 0.06857 0.64314 0.56677 0.0
O1223 O 0.07833 0.58998 0.61977 0.0
O1224 O 0.04643 0.50975 0.55957 0.0
O1225 O 0.12168 0.50805 0.63835 0.0
O1226 O 0.12263 0.70241 0.50703 0.0
O1227 O 0.13539 0.61488 0.55858 0.0
O1228 O 0.14396 0.51907 0.50252 0.0
O1229 O 0.1339 0.57167 0.44888 0.0
O1230 O 0.16516 0.64777 0.50703 0.0
O1231 O 0.09234 0.65644 0.43186 0.0
C1232 C 0.04081 0.52419 0.51901 0.0
C1233 C 0.06574 0.4449 0.64102 0.0
C1234 C 0.02769 0.47324 0.70818 0.0
C1235 C 0.0441 0.47967 0.6649 0.0
C1236 C 0.0267 0.42763 0.72269 0.0
C1237 C 0.06657 0.4009 0.65691 0.0
C1238 C 0.0459 0.39157 0.69682 0.0
C1239 C 0.06293 0.62699 0.60818 0.0
C1240 C 0.09835 0.46327 0.61355 0.0
C1241 C 0.26441 0.54723 0.69125 0.0
C1242 C 0.25452 0.58913 0.72227 0.0
C1243 C 0.17058 0.63477 0.54828 0.0
C1244 C 0.14964 0.7212 0.43537 0.0
C1245 C 0.17443 0.68859 0.41547 0.0
C1246 C 0.19473 0.69591 0.37491 0.0
C1247 C 0.19352 0.7391 0.35716 0.0
C1248 C 0.14834 0.76396 0.41753 0.0
C1249 C 0.17061 0.77295 0.37869 0.0
C1250 C 0.14975 0.53514 0.46116 0.0
C1251 C 0.11492 0.70075 0.45922 0.0
H1252 H 0.0457 0.51535 0.65469 0.0
H1253 H 0.01282 0.42071 0.75524 0.0
H1254 H 0.08614 0.37632 0.64156 0.0
H1255 H 0.04789 0.35869 0.71038 0.0
H1256 H 0.17189 0.65238 0.42457 0.0
H1257 H 0.20627 0.74403 0.32353 0.0
H1258 H 0.12657 0.78684 0.42945 0.0
H1259 H 0.16597 0.80244 0.36131 0.0
Eu1260 Eu 0.80938 0.84357 0.28897 0.0
C1261 C 0.96185 0.76184 0.34471 0.0
C1262 C 0.99688 0.8269 0.41993 0.0
C1263 C 0.0185 0.74765 0.3982 0.0
C1264 C 0.96905 0.81089 0.37399 0.0
C1265 C 0.98742 0.73005 0.35544 0.0
C1266 C 0.02182 0.79515 0.43181 0.0
C1267 C 0.94483 0.6625 0.28666 0.0
N1268 N 0.92974 0.74507 0.30583 0.0
C1269 C 0.91964 0.69514 0.2785 0.0
C1270 C 0.98052 0.68128 0.32322 0.0
Eu1271 Eu 0.90295 0.80917 0.27922 0.0
N1272 N 0.94768 0.84239 0.35867 0.0
C1273 C 0.95293 0.89055 0.38837 0.0
C1274 C 0.99798 0.87381 0.45271 0.0
C1275 C 0.97545 0.90539 0.43672 0.0
H1276 H 0.8939 0.68177 0.24789 0.0
H1277 H 0.97548 0.94165 0.46072 0.0
H1278 H 0.04388 0.80703 0.46643 0.0
H1279 H 0.93774 0.62363 0.26339 0.0
H1280 H 0.93667 0.9166 0.37705 0.0
H1281 H 0.72636 0.72536 0.10653 0.0
H1282 H 0.01574 0.88577 0.49015 0.0
H1283 H 0.8254 0.97204 0.33412 0.0
H1284 H 0.76888 0.74371 0.18806 0.0
H1285 H 0.78551 0.03687 0.32583 0.0
H1286 H 0.03839 0.72366 0.40706 0.0
H1287 H 0.69142 0.79027 0.08539 0.0
H1288 H 0.66584 0.86892 0.12038 0.0
H1289 H 0.00126 0.65691 0.32807 0.0
H1290 H 0.67665 0.94959 0.18637 0.0
N1291 N 0.7649 0.8203 0.2108 0.0
C1292 C 0.75501 0.77257 0.17925 0.0
C1293 C 0.7104 0.79805 0.1215 0.0
C1294 C 0.71493 0.8439 0.15773 0.0
C1295 C 0.73025 0.76185 0.13276 0.0
C1296 C 0.74505 0.85545 0.20099 0.0
H1297 H 0.7205 1.01159 0.26471 0.0
N1298 N 0.78757 0.91489 0.27192 0.0
C1299 C 0.77656 0.9991 0.30012 0.0
C1300 C 0.75475 0.90299 0.23432 0.0
C1301 C 0.79949 0.96289 0.30396 0.0
C1302 C 0.73999 0.98496 0.26521 0.0
C1303 C 0.73003 0.93756 0.2298 0.0
O1304 O 0.7872 0.88078 0.35649 0.0
O1305 O 0.87152 0.85454 0.33451 0.0
O1306 O 0.85411 0.73664 0.29226 0.0
O1307 O 0.79023 0.75593 0.2771 0.0
O1308 O 0.82068 0.81865 0.36082 0.0
O1309 O 0.74596 0.81346 0.30256 0.0
O1310 O 0.92193 0.76211 0.21408 0.0
O1311 O 0.83942 0.795 0.23447 0.0
O1312 O 0.86007 0.91741 0.27829 0.0
O1313 O 0.92381 0.89608 0.28746 0.0
O1314 O 0.88911 0.83068 0.20579 0.0
O1315 O 0.9619 0.83713 0.25467 0.0
C1316 C 0.86005 0.839 0.3725 0.0
C1317 C 0.71401 0.86463 0.35991 0.0
C1318 C 0.64794 0.84792 0.3923 0.0
C1319 C 0.68271 0.83154 0.37618 0.0
C1320 C 0.64509 0.89759 0.39238 0.0
C1321 C 0.71038 0.91384 0.35975 0.0
C1322 C 0.67575 0.93014 0.37545 0.0
C1323 C 0.81184 0.72314 0.28688 0.0
C1324 C 0.75076 0.84728 0.34575 0.0
C1325 C 0.69637 0.92377 0.19009 0.0
C1326 C 0.69014 0.87794 0.15262 0.0
C1327 C 0.85004 0.80822 0.19522 0.0
C1328 C 0.99498 0.78003 0.20845 0.0
C1329 C 0.0288 0.81531 0.19941 0.0
C1330 C 0.06779 0.80432 0.19916 0.0
C1331 C 0.07311 0.75761 0.20667 0.0
C1332 C 0.99979 0.7326 0.21361 0.0
C1333 C 0.03893 0.72174 0.21373 0.0
C1334 C 0.90249 0.93031 0.28136 0.0
C1335 C 0.95692 0.79659 0.21722 0.0
H1336 H 0.68575 0.79359 0.37689 0.0
H1337 H 0.61975 0.91177 0.40624 0.0
H1338 H 0.73457 0.94006 0.34895 0.0
H1339 H 0.67314 0.9683 0.37538 0.0
H1340 H 0.02543 0.85241 0.19575 0.0
H1341 H 0.10374 0.74943 0.20819 0.0
H1342 H 0.97369 0.70444 0.21821 0.0
H1343 H 0.04275 0.68597 0.2202 0.0
Eu1344 Eu 0.87049 0.30878 0.72489 0.0
C1345 C 0.78684 0.43345 0.90086 0.0
C1346 C 0.8432 0.4927 0.96217 0.0
C1347 C 0.77198 0.4778 0.98171 0.0
C1348 C 0.829 0.45435 0.91638 0.0
C1349 C 0.75766 0.44451 0.9333 0.0
C1350 C 0.81439 0.50436 0.99489 0.0
C1351 C 0.70257 0.39487 0.86535 0.0
N1352 N 0.77464 0.39916 0.85531 0.0
C1353 C 0.73288 0.38168 0.83616 0.0
C1354 C 0.71503 0.42264 0.91544 0.0
Eu1355 Eu 0.82406 0.3511 0.83243 0.0
N1356 N 0.85603 0.43339 0.88917 0.0
C1357 C 0.89812 0.45051 0.90663 0.0
C1358 C 0.88616 0.51539 0.97507 0.0
C1359 C 0.91376 0.49501 0.94595 0.0
H1360 H 0.72232 0.35551 0.79957 0.0
H1361 H 0.94705 0.51161 0.95605 0.0
H1362 H 0.82485 0.53201 0.03123 0.0
H1363 H 0.66948 0.38125 0.85012 0.0
H1364 H 0.91962 0.42841 0.89307 0.0
H1365 H 0.74913 0.14784 0.60382 0.0
H1366 H 0.8984 0.54662 0.00858 0.0
H1367 H 0.97364 0.31475 0.75958 0.0
H1368 H 0.77612 0.23581 0.6577 0.0
H1369 H 0.02675 0.27918 0.71728 0.0
H1370 H 0.75026 0.48497 0.00825 0.0
H1371 H 0.7983 0.1013 0.56518 0.0
H1372 H 0.87252 0.10588 0.55004 0.0
H1373 H 0.69141 0.4294 0.9387 0.0
H1374 H 0.94686 0.15108 0.5727 0.0
N1375 N 0.83842 0.22735 0.67026 0.0
C1376 C 0.79738 0.21174 0.64869 0.0
C1377 C 0.80998 0.13646 0.59463 0.0
C1378 C 0.85285 0.15693 0.61037 0.0
C1379 C 0.78212 0.16349 0.61515 0.0
C1380 C 0.8662 0.2005 0.65186 0.0
H1381 H 0.00485 0.21666 0.63499 0.0
N1382 N 0.92124 0.25998 0.71193 0.0
C1383 C 0.99368 0.26254 0.70361 0.0
C1384 C 0.9088 0.2196 0.67041 0.0
C1385 C 0.96332 0.28007 0.72979 0.0
C1386 C 0.98119 0.22629 0.65755 0.0
C1387 C 0.93859 0.2021 0.64176 0.0
O1388 O 0.92804 0.34999 0.70686 0.0
O1389 O 0.88111 0.36556 0.79882 0.0
O1390 O 0.79672 0.38373 0.7677 0.0
O1391 O 0.81177 0.33241 0.69411 0.0
O1392 O 0.88282 0.39493 0.73809 0.0
O1393 O 0.87625 0.30535 0.64617 0.0
O1394 O 0.78442 0.29043 0.8565 0.0
O1395 O 0.82303 0.28194 0.77061 0.0
O1396 O 0.90221 0.28117 0.78925 0.0
O1397 O 0.88671 0.33226 0.86059 0.0
O1398 O 0.76652 0.30084 0.78007 0.0
O1399 O 0.83002 0.35119 0.91251 0.0
C1400 C 0.8914 0.40623 0.78627 0.0
C1401 C 0.9323 0.36304 0.62756 0.0
C1402 C 0.94051 0.44136 0.60328 0.0
C1403 C 0.92444 0.4111 0.63391 0.0
C1404 C 0.96364 0.42289 0.56571 0.0
C1405 C 0.95561 0.3445 0.59073 0.0
C1406 C 0.97057 0.37434 0.55904 0.0
C1407 C 0.79148 0.36627 0.71673 0.0
C1408 C 0.91583 0.33111 0.6584 0.0
C1409 C 0.92495 0.16262 0.59714 0.0
C1410 C 0.88243 0.13767 0.5835 0.0
C1411 C 0.7839 0.26783 0.75534 0.0
C1412 C 0.78695 0.28562 0.94032 0.0
C1413 C 0.79966 0.24082 0.93883 0.0
C1414 C 0.78717 0.21351 0.97327 0.0
C1415 C 0.76242 0.23137 0.0092 0.0
C1416 C 0.76245 0.30385 0.97588 0.0
C1417 C 0.75029 0.27654 0.01064 0.0
C1418 C 0.90858 0.29973 0.83949 0.0
C1419 C 0.79754 0.31273 0.90357 0.0
H1420 H 0.90431 0.42388 0.66062 0.0
H1421 H 0.97329 0.44401 0.53877 0.0
H1422 H 0.961 0.30658 0.58558 0.0
H1423 H 0.98542 0.35897 0.52771 0.0
H1424 H 0.81958 0.22795 0.9118 0.0
H1425 H 0.75413 0.21166 0.03756 0.0
H1426 H 0.75277 0.33889 0.97653 0.0
H1427 H 0.73233 0.29068 0.03923 0.0
Eu1428 Eu 0.88423 0.87594 0.79821 0.0
C1429 C 0.72106 0.73939 0.77396 0.0
C1430 C 0.70577 0.72693 0.85413 0.0
C1431 C 0.66214 0.67088 0.77803 0.0
C1432 C 0.73285 0.74761 0.8234 0.0
C1433 C 0.68842 0.6971 0.74973 0.0
C1434 C 0.66951 0.68804 0.83098 0.0
C1435 C 0.71165 0.71067 0.67289 0.0
N1436 N 0.74752 0.76549 0.74833 0.0
C1437 C 0.73709 0.75735 0.69854 0.0
C1438 C 0.6878 0.67935 0.69867 0.0
Eu1439 Eu 0.81604 0.76342 0.77199 0.0
N1440 N 0.77213 0.77542 0.84064 0.0
C1441 C 0.78028 0.80004 0.89104 0.0
C1442 C 0.71675 0.74595 0.90616 0.0
C1443 C 0.75312 0.78548 0.92468 0.0
H1444 H 0.75356 0.78195 0.67789 0.0
H1445 H 0.76044 0.80456 0.96456 0.0
H1446 H 0.64863 0.66967 0.85327 0.0
H1447 H 0.70965 0.70172 0.63337 0.0
H1448 H 0.8059 0.83333 0.90549 0.0
H1449 H 0.94451 0.84252 0.6129 0.0
H1450 H 0.69628 0.73279 0.93156 0.0
H1451 H 0.94394 0.87255 0.90737 0.0
H1452 H 0.89715 0.81092 0.66872 0.0
H1453 H 0.9831 0.95635 0.94786 0.0
H1454 H 0.63662 0.63788 0.75955 0.0
H1455 H 0.00798 0.91358 0.6497 0.0
H1456 H 0.05329 0.97519 0.72884 0.0
H1457 H 0.66943 0.64218 0.68015 0.0
H1458 H 0.06053 1.01115 0.82117 0.0
N1459 N 0.93161 0.86336 0.73612 0.0
C1460 C 0.92344 0.84259 0.685 0.0
C1461 C 0.98787 0.89773 0.67416 0.0
C1462 C 0.99791 0.91496 0.7266 0.0
C1463 C 0.95156 0.85886 0.65331 0.0
C1464 C 0.97051 0.89245 0.7562 0.0
H1465 H 0.02431 1.01192 0.8981 0.0
N1466 N 0.95219 0.88148 0.83389 0.0
C1467 C 0.98272 0.94426 0.90827 0.0
C1468 C 0.97959 0.90552 0.80753 0.0
C1469 C 0.95973 0.89543 0.88476 0.0
C1470 C 0.00682 0.97352 0.88093 0.0
C1471 C 0.00942 0.95139 0.83113 0.0
O1472 O 0.90326 0.94789 0.85419 0.0
O1473 O 0.8232 0.84095 0.81947 0.0
O1474 O 0.82569 0.7954 0.69732 0.0
O1475 O 0.84664 0.88162 0.7302 0.0
O1476 O 0.82367 0.90314 0.79138 0.0
O1477 O 0.9102 0.94619 0.77717 0.0
O1478 O 0.79916 0.69826 0.70487 0.0
O1479 O 0.87887 0.79773 0.75234 0.0
O1480 O 0.87509 0.84525 0.87341 0.0
O1481 O 0.85124 0.75796 0.84268 0.0
O1482 O 0.876 0.73964 0.78836 0.0
O1483 O 0.78759 0.6864 0.77713 0.0
C1484 C 0.80118 0.87071 0.81071 0.0
C1485 C 0.90245 0.02219 0.8265 0.0
C1486 C 0.85389 0.06691 0.79872 0.0
C1487 C 0.86376 0.02141 0.80079 0.0
C1488 C 0.88228 0.1139 0.82341 0.0
C1489 C 0.93114 0.06897 0.85069 0.0
C1490 C 0.9207 0.11483 0.84981 0.0
C1491 C 0.83402 0.84338 0.69068 0.0
C1492 C 0.91519 0.9748 0.82277 0.0
C1493 C 0.03672 0.97623 0.803 0.0
C1494 C 0.03224 0.95624 0.7506 0.0
C1495 C 0.8994 0.76816 0.7659 0.0
C1496 C 0.80297 0.61906 0.72015 0.0
C1497 C 0.84098 0.61966 0.74763 0.0
C1498 C 0.85586 0.57585 0.74136 0.0
C1499 C 0.83171 0.52988 0.70832 0.0
C1500 C 0.77933 0.57346 0.68636 0.0
C1501 C 0.79364 0.52887 0.6807 0.0
C1502 C 0.86671 0.7976 0.88119 0.0
C1503 C 0.78656 0.66472 0.72984 0.0
H1504 H 0.84237 0.98594 0.77956 0.0
H1505 H 0.87469 0.14972 0.82223 0.0
H1506 H 0.9617 0.06994 0.86958 0.0
H1507 H 0.94268 0.15099 0.86869 0.0
H1508 H 0.85833 0.65308 0.77601 0.0
H1509 H 0.84255 0.49515 0.70339 0.0
H1510 H 0.74954 0.57208 0.66537 0.0
H1511 H 0.77514 0.49349 0.65504 0.0
Eu1512 Eu 0.55619 0.53986 0.51178 0.0
C1513 C 0.66116 0.74869 0.60162 0.0
C1514 C 0.69349 0.77918 0.53552 0.0
C1515 C 0.70008 0.83799 0.61751 0.0
C1516 C 0.67129 0.73905 0.55395 0.0
C1517 C 0.67456 0.79889 0.63372 0.0
C1518 C 0.70939 0.82819 0.56818 0.0
C1519 C 0.63332 0.76986 0.69337 0.0
N1520 N 0.63822 0.70883 0.61664 0.0
C1521 C 0.61998 0.72136 0.65967 0.0
C1522 C 0.66241 0.80817 0.68138 0.0
Eu1523 Eu 0.64385 0.62333 0.56766 0.0
N1524 N 0.65606 0.69101 0.5241 0.0
C1525 C 0.65459 0.68396 0.47299 0.0
C1526 C 0.69738 0.76937 0.48436 0.0
C1527 C 0.67601 0.72211 0.45251 0.0
H1528 H 0.59697 0.69536 0.67209 0.0
H1529 H 0.67557 0.71504 0.4121 0.0
H1530 H 0.72742 0.85912 0.5551 0.0
H1531 H 0.62134 0.7773 0.72901 0.0
H1532 H 0.63563 0.65021 0.44724 0.0
H1533 H 0.53005 0.45109 0.67046 0.0
H1534 H 0.71412 0.79903 0.46868 0.0
H1535 H 0.6006 0.46937 0.40622 0.0
H1536 H 0.56568 0.51688 0.6335 0.0
H1537 H 0.57984 0.38563 0.35203 0.0
H1538 H 0.71151 0.87627 0.64221 0.0
H1539 H 0.4937 0.36541 0.61579 0.0
H1540 H 0.47986 0.30413 0.53014 0.0
H1541 H 0.67351 0.84541 0.70793 0.0
H1542 H 0.49428 0.28609 0.44246 0.0
N1543 N 0.54601 0.47355 0.55685 0.0
C1544 C 0.54818 0.48175 0.60823 0.0
C1545 C 0.50881 0.39514 0.59913 0.0
C1546 C 0.51137 0.3848 0.54763 0.0
C1547 C 0.52899 0.44339 0.62991 0.0
C1548 C 0.53132 0.42506 0.52778 0.0
H1549 H 0.52959 0.31674 0.37504 0.0
N1550 N 0.56109 0.4548 0.46288 0.0
C1551 C 0.56812 0.39315 0.38783 0.0
C1552 C 0.5401 0.41502 0.47944 0.0
C1553 C 0.5795 0.44253 0.41998 0.0
C1554 C 0.54041 0.35439 0.40101 0.0
C1555 C 0.52835 0.36419 0.44868 0.0
O1556 O 0.49729 0.5455 0.47267 0.0
O1557 O 0.57989 0.62598 0.53744 0.0
O1558 O 0.60364 0.61799 0.63721 0.0
O1559 O 0.53962 0.57778 0.59134 0.0
O1560 O 0.55298 0.59556 0.46243 0.0
O1561 O 0.49655 0.51903 0.54051 0.0
O1562 O 0.70308 0.61503 0.60724 0.0
O1563 O 0.62129 0.5369 0.54075 0.0
O1564 O 0.59266 0.54707 0.44097 0.0
O1565 O 0.6578 0.58607 0.48503 0.0
O1566 O 0.6468 0.56654 0.61597 0.0
O1567 O 0.70402 0.64877 0.54375 0.0
C1568 C 0.56734 0.63827 0.497 0.0
C1569 C 0.42985 0.51739 0.49793 0.0
C1570 C 0.3628 0.5071 0.52857 0.0
C1571 C 0.40668 0.5175 0.53812 0.0
C1572 C 0.34205 0.48982 0.47861 0.0
C1573 C 0.40889 0.50979 0.44984 0.0
C1574 C 0.36517 0.49319 0.4393 0.0
C1575 C 0.56156 0.60269 0.63636 0.0
C1576 C 0.4757 0.53439 0.50769 0.0
C1577 C 0.50471 0.32487 0.46628 0.0
C1578 C 0.49633 0.33516 0.51597 0.0
C1579 C 0.634 0.52412 0.58098 0.0
C1580 C 0.77029 0.64788 0.58254 0.0
C1581 C 0.79238 0.61122 0.56574 0.0
C1582 C 0.83523 0.62665 0.56299 0.0
C1583 C 0.85657 0.67835 0.58112 0.0
C1584 C 0.79123 0.69989 0.59713 0.0
C1585 C 0.83457 0.71437 0.59828 0.0
C1586 C 0.63443 0.56161 0.44027 0.0
C1587 C 0.72478 0.63116 0.57448 0.0
H1588 H 0.42273 0.53172 0.57668 0.0
H1589 H 0.30809 0.4822 0.47047 0.0
H1590 H 0.42718 0.51879 0.42158 0.0
H1591 H 0.349 0.48656 0.40152 0.0
H1592 H 0.77567 0.57119 0.55191 0.0
H1593 H 0.89004 0.6914 0.58071 0.0
H1594 H 0.77433 0.72916 0.6068 0.0
H1595 H 0.85146 0.75343 0.61092 0.0
Eu1596 Eu 0.14574 0.58422 0.01093 0.0
C1597 C 0.03385 0.52368 0.14538 0.0
C1598 C 0.98408 0.44495 0.09644 0.0
C1599 C 0.99052 0.47024 0.18766 0.0
C1600 C 0.01356 0.49044 0.09848 0.0
C1601 C 0.02257 0.5131 0.19026 0.0
C1602 C 0.97233 0.43554 0.14104 0.0
C1603 C 0.07012 0.59338 0.2373 0.0
N1604 N 0.06218 0.56804 0.14721 0.0
C1605 C 0.07925 0.60365 0.19179 0.0
C1606 C 0.04166 0.54782 0.23648 0.0
Eu1607 Eu 0.06282 0.58632 0.0697 0.0
N1608 N 0.02024 0.50411 0.05525 0.0
C1609 C 0.99889 0.47441 0.00937 0.0
C1610 C 0.96484 0.41185 0.04947 0.0
C1611 C 0.972 0.42687 0.00559 0.0
H1612 H 0.09932 0.64015 0.1915 0.0
H1613 H 0.95658 0.40222 0.96911 0.0
H1614 H 0.94756 0.40249 0.1383 0.0
H1615 H 0.08394 0.62115 0.27276 0.0
H1616 H 0.00431 0.48611 0.97528 0.0
H1617 H 0.25065 0.77284 0.09497 0.0
H1618 H 0.94388 0.37513 0.0467 0.0
H1619 H 0.10939 0.51941 0.8905 0.0
H1620 H 0.20289 0.6921 0.09648 0.0
H1621 H 0.12752 0.52674 0.80642 0.0
H1622 H 0.9788 0.46594 0.2218 0.0
H1623 H 0.26783 0.78741 0.01376 0.0
H1624 H 0.2696 0.74636 0.92585 0.0
H1625 H 0.03398 0.54055 0.27173 0.0
H1626 H 0.23912 0.67957 0.8465 0.0
N1627 N 0.18823 0.66464 0.01634 0.0
C1628 C 0.20854 0.69897 0.06049 0.0
C1629 C 0.24599 0.75247 0.01424 0.0
C1630 C 0.22833 0.71442 0.96975 0.0
C1631 C 0.23615 0.7446 0.06008 0.0
C1632 C 0.19736 0.67168 0.97129 0.0
H1633 H 0.18199 0.6014 0.80039 0.0
N1634 N 0.14854 0.59265 0.92908 0.0
C1635 C 0.14173 0.55729 0.83986 0.0
C1636 C 0.17815 0.63427 0.92674 0.0
C1637 C 0.13101 0.55358 0.88702 0.0
C1638 C 0.17249 0.59957 0.83665 0.0
C1639 C 0.19153 0.63811 0.88048 0.0
O1640 O 0.17099 0.52387 0.9684 0.0
O1641 O 0.08292 0.5306 0.00954 0.0
O1642 O 0.1121 0.55808 0.11457 0.0
O1643 O 0.16937 0.60446 0.09203 0.0
O1644 O 0.13353 0.50326 0.02339 0.0
O1645 O 0.21284 0.5905 0.02461 0.0
O1646 O 0.03574 0.63862 0.12191 0.0
O1647 O 0.1255 0.64034 0.07179 0.0
O1648 O 0.09835 0.60725 0.96052 0.0
O1649 O 0.03714 0.5784 0.99025 0.0
O1650 O 0.07488 0.66874 0.06089 0.0
O1651 O 0.9956 0.57651 0.05987 0.0
C1652 C 0.09331 0.49026 0.01596 0.0
C1653 C 0.24399 0.52641 0.98117 0.0
C1654 C 0.29121 0.47544 0.99848 0.0
C1655 C 0.25794 0.49708 0.01124 0.0
C1656 C 0.3084 0.48222 0.95508 0.0
C1657 C 0.26477 0.53762 0.94166 0.0
C1658 C 0.29777 0.51622 0.92956 0.0
C1659 C 0.15337 0.57466 0.11907 0.0
C1660 C 0.20879 0.54721 0.99169 0.0
C1661 C 0.22539 0.6784 0.88023 0.0
C1662 C 0.24316 0.71624 0.92477 0.0
C1663 C 0.11518 0.68116 0.06686 0.0
C1664 C 0.96121 0.62991 0.11127 0.0
C1665 C 0.94212 0.65104 0.07698 0.0
C1666 C 0.90204 0.65804 0.08187 0.0
C1667 C 0.88191 0.64547 0.12172 0.0
C1668 C 0.94068 0.6159 0.15002 0.0
C1669 C 0.90122 0.62436 0.15538 0.0
C1670 C 0.05705 0.59757 0.95751 0.0
C1671 C 0.99791 0.61209 0.10094 0.0
H1672 H 0.24347 0.49181 0.04415 0.0
H1673 H 0.33133 0.46313 0.94174 0.0
H1674 H 0.25544 0.56264 0.92026 0.0
H1675 H 0.31556 0.52657 0.90106 0.0
H1676 H 0.95699 0.65842 0.0449 0.0
H1677 H 0.85029 0.64906 0.12526 0.0
H1678 H 0.95465 0.59718 0.17513 0.0
H1679 H 0.8849 0.61292 0.18443 0.0
loop_
_geom_bond_atom_site_label_1
_geom_bond_atom_site_label_2
_geom_bond_distance
_geom_bond_site_symmetry_2
_ccdc_geom_bond_type
C0 O1 1.306 . S
C0 O3 1.160 . S
O1 C0 1.306 . S
O1 Cd2 2.228 . S
Cd2 O1 2.228 . S
Cd2 O6 2.273 . S
Cd2 O10 2.277 . S
O3 C0 1.160 . S
O3 Cd4 2.203 . S
Cd4 O3 2.203 . S
Cd4 O6 2.411 . S
Cd4 O7 2.333 . S
Cd4 O8 2.352 . S
Cd4 O12 2.277 . S
Cd4 O13 2.356 . S
C5 O10 1.209 . S
C5 O12 1.226 . S
O6 Cd2 2.273 . S
O6 Cd4 2.411 . S
O6 C9 1.320 . S
O7 Cd4 2.333 . S
O7 C9 1.214 . S
O8 Cd4 2.352 . S
O8 C11 1.258 . S
C9 O6 1.320 . S
C9 O7 1.214 . S
O10 Cd2 2.277 . S
O10 C5 1.209 . S
C11 O8 1.258 . S
C11 O13 1.282 . S
O12 Cd4 2.277 . S
O12 C5 1.226 . S
O13 Cd4 2.356 . S
O13 C11 1.282 . S
C14 O15 1.306 . S
C14 O17 1.160 . S
O15 C14 1.306 . S
O15 Cd16 2.228 1_655 S
Cd16 O15 2.228 1_455 S
Cd16 O20 2.273 . S
Cd16 O24 2.277 1_455 S
O17 C14 1.160 . S
O17 Cd18 2.203 1_655 S
Cd18 O17 2.203 1_455 S
Cd18 O20 2.411 . S
Cd18 O21 2.333 . S
Cd18 O22 2.352 . S
Cd18 O26 2.277 1_455 S
Cd18 O27 2.356 . S
C19 O24 1.209 . S
C19 O26 1.226 . S
O20 Cd16 2.273 . S
O20 Cd18 2.411 . S
O20 C23 1.320 . S
O21 Cd18 2.333 . S
O21 C23 1.214 . S
O22 Cd18 2.352 . S
O22 C25 1.258 . S
C23 O20 1.320 . S
C23 O21 1.214 . S
O24 Cd16 2.277 1_655 S
O24 C19 1.209 . S
C25 O22 1.258 . S
C25 O27 1.282 . S
O26 Cd18 2.277 1_655 S
O26 C19 1.226 . S
O27 Cd18 2.356 . S
O27 C25 1.282 . S
C28 O29 1.306 . S
C28 O31 1.160 . S
O29 C28 1.306 . S
O29 Cd30 2.228 . S
Cd30 O29 2.228 . S
Cd30 O34 2.273 . S
Cd30 O38 2.277 . S
O31 C28 1.160 . S
O31 Cd32 2.203 . S
Cd32 O31 2.203 . S
Cd32 O34 2.411 . S
Cd32 O35 2.333 . S
Cd32 O36 2.352 . S
Cd32 O40 2.277 . S
Cd32 O41 2.356 . S
C33 O38 1.209 1_545 S
C33 O40 1.226 1_545 S
O34 Cd30 2.273 . S
O34 Cd32 2.411 . S
O34 C37 1.320 . S
O35 Cd32 2.333 . S
O35 C37 1.214 . S
O36 Cd32 2.352 . S
O36 C39 1.258 . S
C37 O34 1.320 . S
C37 O35 1.214 . S
O38 Cd30 2.277 . S
O38 C33 1.209 1_565 S
C39 O36 1.258 . S
C39 O41 1.282 . S
O40 Cd32 2.277 . S
O40 C33 1.226 1_565 S
O41 Cd32 2.356 . S
O41 C39 1.282 . S
C42 O43 1.306 . S
C42 O45 1.160 . S
O43 C42 1.306 . S
O43 Cd44 2.228 . S
Cd44 O43 2.228 . S
Cd44 O48 2.273 . S
Cd44 O52 2.277 . S
O45 C42 1.160 . S
O45 Cd46 2.203 . S
Cd46 O45 2.203 . S
Cd46 O48 2.411 . S
Cd46 O49 2.333 . S
Cd46 O50 2.352 . S
Cd46 O54 2.277 . S
Cd46 O55 2.356 . S
C47 O52 1.209 . S
C47 O54 1.226 . S
O48 Cd44 2.273 . S
O48 Cd46 2.411 . S
O48 C51 1.320 . S
O49 Cd46 2.333 . S
O49 C51 1.214 . S
O50 Cd46 2.352 . S
O50 C53 1.258 . S
C51 O48 1.320 . S
C51 O49 1.214 . S
O52 Cd44 2.277 . S
O52 C47 1.209 . S
C53 O50 1.258 . S
C53 O55 1.282 . S
O54 Cd46 2.277 . S
O54 C47 1.226 . S
O55 Cd46 2.356 . S
O55 C53 1.282 . S
C56 O57 1.306 . S
C56 O59 1.160 . S
O57 C56 1.306 . S
O57 Cd58 2.228 . S
Cd58 O57 2.228 . S
Cd58 O62 2.273 . S
Cd58 O66 2.277 . S
O59 C56 1.160 . S
O59 Cd60 2.203 . S
Cd60 O59 2.203 . S
Cd60 O62 2.411 . S
Cd60 O63 2.333 . S
Cd60 O64 2.352 . S
Cd60 O68 2.277 . S
Cd60 O69 2.356 . S
C61 O66 1.209 . S
C61 O68 1.226 . S
O62 Cd58 2.273 . S
O62 Cd60 2.411 . S
O62 C65 1.320 . S
O63 Cd60 2.333 . S
O63 C65 1.214 . S
O64 Cd60 2.352 . S
O64 C67 1.258 . S
C65 O62 1.320 . S
C65 O63 1.214 . S
O66 Cd58 2.277 . S
O66 C61 1.209 . S
C67 O64 1.258 . S
C67 O69 1.282 . S
O68 Cd60 2.277 . S
O68 C61 1.226 . S
O69 Cd60 2.356 . S
O69 C67 1.282 . S
C70 O71 1.306 . S
C70 O73 1.160 . S
O71 C70 1.306 . S
O71 Cd72 2.228 . S
Cd72 O71 2.228 . S
Cd72 O76 2.273 . S
Cd72 O80 2.277 . S
O73 C70 1.160 . S
O73 Cd74 2.203 . S
Cd74 O73 2.203 . S
Cd74 O76 2.411 . S
Cd74 O77 2.333 . S
Cd74 O78 2.352 . S
Cd74 O82 2.277 . S
Cd74 O83 2.356 . S
C75 O80 1.209 . S
C75 O82 1.226 . S
O76 Cd72 2.273 . S
O76 Cd74 2.411 . S
O76 C79 1.320 . S
O77 Cd74 2.333 . S
O77 C79 1.214 . S
O78 Cd74 2.352 . S
O78 C81 1.258 . S
C79 O76 1.320 . S
C79 O77 1.214 . S
O80 Cd72 2.277 . S
O80 C75 1.209 . S
C81 O78 1.258 . S
C81 O83 1.282 . S
O82 Cd74 2.277 . S
O82 C75 1.226 . S
O83 Cd74 2.356 . S
O83 C81 1.282 . S
C84 O85 1.306 . S
C84 O87 1.160 . S
O85 C84 1.306 . S
O85 Cd86 2.228 . S
Cd86 O85 2.228 . S
Cd86 O90 2.273 . S
Cd86 O94 2.277 . S
O87 C84 1.160 . S
O87 Cd88 2.203 . S
Cd88 O87 2.203 . S
Cd88 O90 2.411 . S
Cd88 O91 2.333 . S
Cd88 O92 2.352 . S
Cd88 O96 2.277 . S
Cd88 O97 2.356 . S
C89 O94 1.209 . S
C89 O96 1.226 . S
O90 Cd86 2.273 . S
O90 Cd88 2.411 . S
O90 C93 1.320 . S
O91 Cd88 2.333 . S
O91 C93 1.214 . S
O92 Cd88 2.352 . S
O92 C95 1.258 . S
C93 O90 1.320 . S
C93 O91 1.214 . S
O94 Cd86 2.277 . S
O94 C89 1.209 . S
C95 O92 1.258 . S
C95 O97 1.282 . S
O96 Cd88 2.277 . S
O96 C89 1.226 . S
O97 Cd88 2.356 . S
O97 C95 1.282 . S
C98 O99 1.306 . S
C98 O101 1.160 . S
O99 C98 1.306 . S
O99 Cd100 2.228 1_655 S
Cd100 O99 2.228 1_455 S
Cd100 O104 2.273 . S
Cd100 O108 2.277 . S
O101 C98 1.160 . S
O101 Cd102 2.203 1_655 S
Cd102 O101 2.203 1_455 S
Cd102 O104 2.411 . S
Cd102 O105 2.333 . S
Cd102 O106 2.352 . S
Cd102 O110 2.277 1_556 S
Cd102 O111 2.356 1_556 S
C103 O108 1.209 1_554 S
C103 O110 1.226 . S
O104 Cd100 2.273 . S
O104 Cd102 2.411 . S
O104 C107 1.320 . S
O105 Cd102 2.333 . S
O105 C107 1.214 . S
O106 Cd102 2.352 . S
O106 C109 1.258 1_556 S
C107 O104 1.320 . S
C107 O105 1.214 . S
O108 Cd100 2.277 . S
O108 C103 1.209 1_556 S
C109 O106 1.258 1_554 S
C109 O111 1.282 . S
O110 Cd102 2.277 1_554 S
O110 C103 1.226 . S
O111 Cd102 2.356 1_554 S
O111 C109 1.282 . S
C112 O113 1.306 1_545 S
C112 O115 1.160 . S
O113 C112 1.306 1_565 S
O113 Cd114 2.228 . S
Cd114 O113 2.228 . S
Cd114 O118 2.249 1_565 S
Cd114 O122 2.277 . S
O115 C112 1.160 . S
O115 Cd116 2.203 . S
Cd116 O115 2.203 . S
Cd116 O118 2.415 . S
Cd116 O119 2.333 1_545 S
Cd116 O120 2.352 . S
Cd116 O124 2.277 1_545 S
Cd116 O125 2.356 . S
C117 O122 1.209 . S
C117 O124 1.226 . S
O118 Cd114 2.249 1_545 S
O118 Cd116 2.415 . S
O118 C121 1.327 1_545 S
O119 Cd116 2.333 1_565 S
O119 C121 1.214 . S
O120 Cd116 2.352 . S
O120 C123 1.258 . S
C121 O118 1.327 1_565 S
C121 O119 1.214 . S
O122 Cd114 2.277 . S
O122 C117 1.209 . S
C123 O120 1.258 . S
C123 O125 1.282 . S
O124 Cd116 2.277 1_565 S
O124 C117 1.226 . S
O125 Cd116 2.356 . S
O125 C123 1.282 . S
C126 O127 1.306 . S
C126 O129 1.160 . S
O127 C126 1.306 . S
O127 Cd128 2.228 . S
Cd128 O127 2.228 . S
Cd128 O132 2.273 . S
Cd128 O136 2.277 . S
O129 C126 1.160 . S
O129 Cd130 2.203 . S
Cd130 O129 2.203 . S
Cd130 O132 2.411 . S
Cd130 O133 2.333 . S
Cd130 O134 2.352 . S
Cd130 O138 2.277 . S
Cd130 O139 2.356 . S
C131 O136 1.209 . S
C131 O138 1.226 . S
O132 Cd128 2.273 . S
O132 Cd130 2.411 . S
O132 C135 1.320 . S
O133 Cd130 2.333 . S
O133 C135 1.214 . S
O134 Cd130 2.352 . S
O134 C137 1.258 . S
C135 O132 1.320 . S
C135 O133 1.214 . S
O136 Cd128 2.277 . S
O136 C131 1.209 . S
C137 O134 1.258 . S
C137 O139 1.282 . S
O138 Cd130 2.277 . S
O138 C131 1.226 . S
O139 Cd130 2.356 . S
O139 C137 1.282 . S
C140 O141 1.306 . S
C140 O143 1.160 . S
O141 C140 1.306 . S
O141 Cd142 2.228 . S
Cd142 O141 2.228 . S
Cd142 O146 2.273 . S
Cd142 O150 2.277 . S
O143 C140 1.160 . S
O143 Cd144 2.203 . S
Cd144 O143 2.203 . S
Cd144 O146 2.411 . S
Cd144 O147 2.333 . S
Cd144 O148 2.352 1_545 S
Cd144 O152 2.277 . S
Cd144 O153 2.356 1_545 S
C145 O150 1.209 . S
C145 O152 1.226 . S
O146 Cd142 2.273 . S
O146 Cd144 2.411 . S
O146 C149 1.320 . S
O147 Cd144 2.333 . S
O147 C149 1.214 . S
O148 Cd144 2.352 1_565 S
O148 C151 1.258 . S
C149 O146 1.320 . S
C149 O147 1.214 . S
O150 Cd142 2.277 . S
O150 C145 1.209 . S
C151 O148 1.258 . S
C151 O153 1.282 . S
O152 Cd144 2.277 . S
O152 C145 1.226 . S
O153 Cd144 2.356 1_565 S
O153 C151 1.282 . S
C154 O155 1.306 1_554 S
C154 O157 1.160 . S
O155 C154 1.306 1_556 S
O155 Cd156 2.228 . S
Cd156 O155 2.228 . S
Cd156 O160 2.273 1_556 S
Cd156 O164 2.277 1_545 S
O157 C154 1.160 . S
O157 Cd158 2.203 1_545 S
Cd158 O157 2.203 1_565 S
Cd158 O160 2.411 1_565 S
Cd158 O161 2.333 1_554 S
Cd158 O162 2.352 . S
Cd158 O166 2.277 1_554 S
Cd158 O167 2.356 . S
C159 O164 1.209 . S
C159 O166 1.226 . S
O160 Cd156 2.273 1_554 S
O160 Cd158 2.411 1_545 S
O160 C163 1.320 . S
O161 Cd158 2.333 1_556 S
O161 C163 1.216 1_566 S
O162 Cd158 2.352 . S
O162 C165 1.258 . S
C163 O160 1.320 . S
C163 O161 1.216 1_544 S
O164 Cd156 2.277 1_565 S
O164 C159 1.209 . S
C165 O162 1.258 . S
C165 O167 1.282 . S
O166 Cd158 2.277 1_556 S
O166 C159 1.226 . S
O167 Cd158 2.356 . S
O167 C165 1.282 . S
C168 O169 1.306 . S
C168 O171 1.160 . S
O169 C168 1.306 . S
O169 Cd170 2.228 . S
Cd170 O169 2.228 . S
Cd170 O174 2.273 . S
Cd170 O178 2.277 1_554 S
O171 C168 1.160 . S
O171 Cd172 2.203 . S
Cd172 O171 2.203 . S
Cd172 O174 2.411 . S
Cd172 O175 2.333 . S
Cd172 O176 2.352 . S
Cd172 O180 2.277 1_554 S
Cd172 O181 2.356 . S
C173 O178 1.209 . S
C173 O180 1.226 . S
O174 Cd170 2.273 . S
O174 Cd172 2.411 . S
O174 C177 1.320 . S
O175 Cd172 2.333 . S
O175 C177 1.214 . S
O176 Cd172 2.352 . S
O176 C179 1.258 . S
C177 O174 1.320 . S
C177 O175 1.214 . S
O178 Cd170 2.277 1_556 S
O178 C173 1.209 . S
C179 O176 1.258 . S
C179 O181 1.282 . S
O180 Cd172 2.277 1_556 S
O180 C173 1.226 . S
O181 Cd172 2.356 . S
O181 C179 1.282 . S
C182 O183 1.306 . S
C182 O185 1.160 . S
O183 C182 1.306 . S
O183 Cd184 2.228 . S
Cd184 O183 2.228 . S
Cd184 O188 2.273 . S
Cd184 O192 2.277 . S
O185 C182 1.160 . S
O185 Cd186 2.203 . S
Cd186 O185 2.203 . S
Cd186 O188 2.411 . S
Cd186 O189 2.333 . S
Cd186 O190 2.352 1_554 S
Cd186 O194 2.277 . S
Cd186 O195 2.356 . S
C187 O192 1.209 . S
C187 O194 1.226 . S
O188 Cd184 2.273 . S
O188 Cd186 2.411 . S
O188 C191 1.320 . S
O189 Cd186 2.333 . S
O189 C191 1.214 . S
O190 Cd186 2.352 1_556 S
O190 C193 1.258 . S
C191 O188 1.320 . S
C191 O189 1.214 . S
O192 Cd184 2.277 . S
O192 C187 1.209 . S
C193 O190 1.258 . S
C193 O195 1.282 1_556 S
O194 Cd186 2.277 . S
O194 C187 1.226 . S
O195 Cd186 2.356 . S
O195 C193 1.282 1_554 S
C196 O197 1.306 . S
C196 O199 1.160 . S
O197 C196 1.306 . S
O197 Cd198 2.228 . S
Cd198 O197 2.228 . S
Cd198 O202 2.273 . S
Cd198 O206 2.277 . S
O199 C196 1.160 . S
O199 Cd200 2.203 . S
Cd200 O199 2.203 . S
Cd200 O202 2.411 . S
Cd200 O203 2.333 . S
Cd200 O204 2.352 . S
Cd200 O208 2.277 . S
Cd200 O209 2.356 . S
C201 O206 1.209 . S
C201 O208 1.226 . S
O202 Cd198 2.273 . S
O202 Cd200 2.411 . S
O202 C205 1.320 . S
O203 Cd200 2.333 . S
O203 C205 1.214 . S
O204 Cd200 2.352 . S
O204 C207 1.258 . S
C205 O202 1.320 . S
C205 O203 1.214 . S
O206 Cd198 2.277 . S
O206 C201 1.209 . S
C207 O204 1.258 . S
C207 O209 1.282 . S
O208 Cd200 2.277 . S
O208 C201 1.226 . S
O209 Cd200 2.356 . S
O209 C207 1.282 . S
C210 O211 1.306 . S
C210 O213 1.160 . S
O211 C210 1.306 . S
O211 Cd212 2.228 . S
Cd212 O211 2.228 . S
Cd212 O216 2.273 . S
Cd212 O220 2.277 . S
O213 C210 1.160 . S
O213 Cd214 2.203 . S
Cd214 O213 2.203 . S
Cd214 O216 2.411 . S
Cd214 O217 2.333 . S
Cd214 O218 2.352 . S
Cd214 O222 2.277 . S
Cd214 O223 2.356 . S
C215 O220 1.209 . S
C215 O222 1.226 . S
O216 Cd212 2.273 . S
O216 Cd214 2.411 . S
O216 C219 1.320 . S
O217 Cd214 2.333 . S
O217 C219 1.214 . S
O218 Cd214 2.352 . S
O218 C221 1.258 . S
C219 O216 1.320 . S
C219 O217 1.214 . S
O220 Cd212 2.277 . S
O220 C215 1.209 . S
C221 O218 1.258 . S
C221 O223 1.282 . S
O222 Cd214 2.277 . S
O222 C215 1.226 . S
O223 Cd214 2.356 . S
O223 C221 1.282 . S
C224 O225 1.306 . S
C224 O227 1.143 1_455 S
O225 C224 1.306 . S
O225 Cd226 2.228 . S
Cd226 O225 2.228 . S
Cd226 O230 2.273 . S
Cd226 O234 2.277 1_445 S
O227 C224 1.143 1_655 S
O227 Cd228 2.207 . S
Cd228 O227 2.207 . S
Cd228 O230 2.411 1_655 S
Cd228 O231 2.333 . S
Cd228 O232 2.352 . S
Cd228 O236 2.277 . S
Cd228 O237 2.356 . S
C229 O234 1.209 . S
C229 O236 1.226 1_565 S
O230 Cd226 2.273 . S
O230 Cd228 2.411 1_455 S
O230 C233 1.320 . S
O231 Cd228 2.333 . S
O231 C233 1.214 1_655 S
O232 Cd228 2.352 . S
O232 C235 1.258 . S
C233 O230 1.320 . S
C233 O231 1.214 1_455 S
O234 Cd226 2.277 1_665 S
O234 C229 1.209 . S
C235 O232 1.258 . S
C235 O237 1.282 . S
O236 Cd228 2.277 . S
O236 C229 1.226 1_545 S
O237 Cd228 2.356 . S
O237 C235 1.282 . S
C238 O239 1.306 . S
C238 O241 1.160 . S
O239 C238 1.306 . S
O239 Cd240 2.228 . S
Cd240 O239 2.228 . S
Cd240 O244 2.273 . S
Cd240 O248 2.277 . S
O241 C238 1.160 . S
O241 Cd242 2.203 . S
Cd242 O241 2.203 . S
Cd242 O244 2.411 . S
Cd242 O245 2.333 . S
Cd242 O246 2.352 . S
Cd242 O250 2.277 . S
Cd242 O251 2.356 . S
C243 O248 1.209 . S
C243 O250 1.226 . S
O244 Cd240 2.273 . S
O244 Cd242 2.411 . S
O244 C247 1.320 . S
O245 Cd242 2.333 . S
O245 C247 1.214 . S
O246 Cd242 2.352 . S
O246 C249 1.258 . S
C247 O244 1.320 . S
C247 O245 1.214 . S
O248 Cd240 2.277 . S
O248 C243 1.209 . S
C249 O246 1.258 . S
C249 O251 1.282 . S
O250 Cd242 2.277 . S
O250 C243 1.226 . S
O251 Cd242 2.356 . S
O251 C249 1.282 . S
C252 O253 1.306 . S
C252 O255 1.160 . S
O253 C252 1.306 . S
O253 Cd254 2.228 . S
Cd254 O253 2.228 . S
Cd254 O258 2.273 . S
Cd254 O262 2.277 . S
O255 C252 1.160 . S
O255 Cd256 2.203 . S
Cd256 O255 2.203 . S
Cd256 O258 2.411 . S
Cd256 O259 2.333 . S
Cd256 O260 2.352 . S
Cd256 O264 2.277 . S
Cd256 O265 2.356 . S
C257 O262 1.209 . S
C257 O264 1.226 . S
O258 Cd254 2.273 . S
O258 Cd256 2.411 . S
O258 C261 1.320 . S
O259 Cd256 2.333 . S
O259 C261 1.214 . S
O260 Cd256 2.352 . S
O260 C263 1.258 . S
C261 O258 1.320 . S
C261 O259 1.214 . S
O262 Cd254 2.277 . S
O262 C257 1.209 . S
C263 O260 1.258 . S
C263 O265 1.282 . S
O264 Cd256 2.277 . S
O264 C257 1.226 . S
O265 Cd256 2.356 . S
O265 C263 1.282 . S
C266 O267 1.306 . S
C266 O269 1.160 . S
O267 C266 1.306 . S
O267 Cd268 2.228 . S
Cd268 O267 2.228 . S
Cd268 O272 2.273 . S
Cd268 O276 2.277 . S
O269 C266 1.160 . S
O269 Cd270 2.203 . S
Cd270 O269 2.203 . S
Cd270 O272 2.411 . S
Cd270 O273 2.333 . S
Cd270 O274 2.352 . S
Cd270 O278 2.277 . S
Cd270 O279 2.356 . S
C271 O276 1.209 . S
C271 O278 1.226 . S
O272 Cd268 2.273 . S
O272 Cd270 2.411 . S
O272 C275 1.320 . S
O273 Cd270 2.333 . S
O273 C275 1.214 . S
O274 Cd270 2.352 . S
O274 C277 1.258 . S
C275 O272 1.320 . S
C275 O273 1.214 . S
O276 Cd268 2.277 . S
O276 C271 1.209 . S
C277 O274 1.258 . S
C277 O279 1.282 . S
O278 Cd270 2.277 . S
O278 C271 1.226 . S
O279 Cd270 2.356 . S
O279 C277 1.282 . S
C280 O281 1.306 . S
C280 O283 1.160 . S
O281 C280 1.306 . S
O281 Cd282 2.228 . S
Cd282 O281 2.228 . S
Cd282 O286 2.262 1_554 S
Cd282 O290 2.277 . S
O283 C280 1.160 . S
O283 Cd284 2.203 . S
Cd284 O283 2.203 . S
Cd284 O286 2.414 1_554 S
Cd284 O287 2.331 . S
Cd284 O288 2.352 1_554 S
Cd284 O292 2.277 . S
Cd284 O293 2.356 1_554 S
C285 O290 1.209 . S
C285 O292 1.226 . S
O286 Cd282 2.262 1_556 S
O286 Cd284 2.414 1_556 S
O286 C289 1.322 . S
O287 Cd284 2.331 . S
O287 C289 1.220 1_554 S
O288 Cd284 2.352 1_556 S
O288 C291 1.258 . S
C289 O286 1.322 . S
C289 O287 1.220 1_556 S
O290 Cd282 2.277 . S
O290 C285 1.209 . S
C291 O288 1.258 . S
C291 O293 1.282 . S
O292 Cd284 2.277 . S
O292 C285 1.226 . S
O293 Cd284 2.356 1_556 S
O293 C291 1.282 . S
C294 O295 1.306 . S
C294 O297 1.160 1_455 S
O295 C294 1.306 . S
O295 Cd296 2.228 . S
Cd296 O295 2.228 . S
Cd296 O300 2.273 . S
Cd296 O304 2.277 1_455 S
O297 C294 1.160 1_655 S
O297 Cd298 2.203 . S
Cd298 O297 2.203 . S
Cd298 O300 2.411 1_655 S
Cd298 O301 2.333 . S
Cd298 O302 2.352 . S
Cd298 O306 2.277 . S
Cd298 O307 2.356 . S
C299 O304 1.209 . S
C299 O306 1.226 . S
O300 Cd296 2.273 . S
O300 Cd298 2.411 1_455 S
O300 C303 1.320 1_455 S
O301 Cd298 2.333 . S
O301 C303 1.214 . S
O302 Cd298 2.352 . S
O302 C305 1.258 . S
C303 O300 1.320 1_655 S
C303 O301 1.214 . S
O304 Cd296 2.277 1_655 S
O304 C299 1.209 . S
C305 O302 1.258 . S
C305 O307 1.282 . S
O306 Cd298 2.277 . S
O306 C299 1.226 . S
O307 Cd298 2.356 . S
O307 C305 1.282 . S
C308 O309 1.306 1_455 S
C308 O311 1.160 1_455 S
O309 C308 1.306 1_655 S
O309 Cd310 2.228 . S
Cd310 O309 2.228 . S
Cd310 O314 2.273 . S
Cd310 O318 2.277 . S
O311 C308 1.160 1_655 S
O311 Cd312 2.203 . S
Cd312 O311 2.203 . S
Cd312 O314 2.411 . S
Cd312 O315 2.333 . S
Cd312 O316 2.352 . S
Cd312 O320 2.277 . S
Cd312 O321 2.356 . S
C313 O318 1.209 . S
C313 O320 1.226 . S
O314 Cd310 2.273 . S
O314 Cd312 2.411 . S
O314 C317 1.320 . S
O315 Cd312 2.333 . S
O315 C317 1.214 . S
O316 Cd312 2.352 . S
O316 C319 1.258 . S
C317 O314 1.320 . S
C317 O315 1.214 . S
O318 Cd310 2.277 . S
O318 C313 1.209 . S
C319 O316 1.258 . S
C319 O321 1.282 . S
O320 Cd312 2.277 . S
O320 C313 1.226 . S
O321 Cd312 2.356 . S
O321 C319 1.282 . S
C322 O323 1.306 . S
C322 O325 1.160 . S
O323 C322 1.306 . S
O323 Cd324 2.228 . S
Cd324 O323 2.228 . S
Cd324 O328 2.273 . S
Cd324 O332 2.277 . S
O325 C322 1.160 . S
O325 Cd326 2.203 . S
Cd326 O325 2.203 . S
Cd326 O328 2.411 . S
Cd326 O329 2.333 . S
Cd326 O330 2.352 . S
Cd326 O334 2.277 . S
Cd326 O335 2.356 . S
C327 O332 1.209 . S
C327 O334 1.226 . S
O328 Cd324 2.273 . S
O328 Cd326 2.411 . S
O328 C331 1.320 . S
O329 Cd326 2.333 . S
O329 C331 1.214 . S
O330 Cd326 2.352 . S
O330 C333 1.258 . S
C331 O328 1.320 . S
C331 O329 1.214 . S
O332 Cd324 2.277 . S
O332 C327 1.209 . S
C333 O330 1.258 . S
C333 O335 1.282 . S
O334 Cd326 2.277 . S
O334 C327 1.226 . S
O335 Cd326 2.356 . S
O335 C333 1.282 . S
Eu336 N367 2.657 1_545 S
Eu336 N374 2.609 1_544 S
Eu336 O380 2.558 1_454 S
Eu336 O381 2.612 . S
Eu336 O383 2.339 . S
Eu336 O384 2.563 . S
Eu336 O385 2.419 1_455 S
Eu336 O387 2.380 . S
Eu336 O388 2.432 1_554 S
Eu336 C400 2.848 1_454 S
C337 C340 1.429 . S
C337 C341 1.411 . S
C337 N344 1.377 . S
C338 C340 1.420 . S
C338 C342 1.423 . S
C338 C350 1.392 . S
C339 C341 1.420 . S
C339 C342 1.351 . S
C339 H362 0.931 . S
C340 C337 1.429 . S
C340 C338 1.420 . S
C340 N348 1.362 . S
C341 C337 1.411 . S
C341 C339 1.420 . S
C341 C346 1.395 . S
C342 C338 1.423 . S
C342 C339 1.351 . S
C342 H354 0.930 . S
C343 C345 1.400 . S
C343 C346 1.386 . S
C343 H355 0.930 . S
N344 C337 1.377 . S
N344 C345 1.321 . S
N344 Eu347 2.609 . S
C345 C343 1.400 . S
C345 N344 1.321 . S
C345 H352 0.930 . S
C346 C341 1.395 . S
C346 C343 1.386 . S
C346 H365 0.930 . S
Eu347 N344 2.609 . S
Eu347 N348 2.657 . S
Eu347 O381 2.380 . S
Eu347 O382 2.432 . S
Eu347 O386 2.558 . S
Eu347 O387 2.612 . S
Eu347 O389 2.339 1_554 S
Eu347 O390 2.563 . S
Eu347 O391 2.419 . S
Eu347 C411 2.848 . S
N348 C340 1.362 . S
N348 Eu347 2.657 . S
N348 C349 1.334 1_554 S
C349 N348 1.334 1_556 S
C349 C351 1.413 . S
C349 H356 0.929 . S
C350 C338 1.392 . S
C350 C351 1.367 1_554 S
C350 H358 0.930 . S
C351 C349 1.413 . S
C351 C350 1.367 1_556 S
C351 H353 0.930 . S
H352 C345 0.930 . S
H353 C351 0.930 . S
H354 C342 0.930 . S
H355 C343 0.930 . S
H356 C349 0.929 . S
H357 C371 0.930 . S
H358 C350 0.930 . S
H359 C377 0.930 . S
H360 C368 0.929 . S
H361 C375 0.930 . S
H362 C339 0.931 . S
H363 C369 0.930 . S
H364 C402 0.930 . S
H365 C346 0.930 . S
H366 C401 0.931 . S
N367 Eu336 2.657 1_565 S
N367 C368 1.334 . S
N367 C372 1.363 1_554 S
C368 H360 0.929 . S
C368 N367 1.334 . S
C368 C371 1.413 . S
C369 H363 0.930 . S
C369 C370 1.392 . S
C369 C371 1.367 1_655 S
C370 C369 1.392 . S
C370 C372 1.419 1_654 S
C370 C402 1.423 1_554 S
C371 H357 0.930 . S
C371 C368 1.413 . S
C371 C369 1.367 1_455 S
C372 N367 1.363 1_556 S
C372 C370 1.419 1_456 S
C372 C376 1.430 1_455 S
H373 C378 0.930 . S
N374 Eu336 2.609 1_566 S
N374 C376 1.377 1_455 S
N374 C377 1.321 . S
C375 H361 0.930 . S
C375 C377 1.400 1_655 S
C375 C378 1.386 . S
C376 C372 1.430 1_655 S
C376 N374 1.377 1_655 S
C376 C379 1.411 . S
C377 H359 0.930 . S
C377 N374 1.321 . S
C377 C375 1.400 1_455 S
C378 H373 0.930 . S
C378 C375 1.386 . S
C378 C379 1.395 . S
C379 C376 1.411 . S
C379 C378 1.395 . S
C379 C401 1.420 . S
O380 Eu336 2.558 1_656 S
O380 C400 1.257 . S
O381 Eu336 2.612 . S
O381 Eu347 2.380 . S
O381 C392 1.276 . S
O382 Eu347 2.432 . S
O382 C399 1.264 . S
O383 Eu336 2.339 . S
O383 C399 1.254 . S
O384 Eu336 2.563 . S
O384 C392 1.235 . S
O385 Eu336 2.419 1_655 S
O385 C400 1.249 1_554 S
O386 Eu347 2.558 . S
O386 C411 1.257 . S
O387 Eu336 2.380 . S
O387 Eu347 2.612 . S
O387 C403 1.276 1_545 S
O388 Eu336 2.432 1_556 S
O388 C410 1.264 . S
O389 Eu347 2.339 1_556 S
O389 C410 1.254 . S
O390 Eu347 2.563 . S
O390 C403 1.235 1_545 S
O391 Eu347 2.419 . S
O391 C411 1.249 . S
C392 O381 1.276 . S
C392 O384 1.235 . S
C393 C395 1.393 . S
C393 C397 1.395 1_545 S
C393 C400 1.492 . S
C394 C395 1.392 . S
C394 C396 1.386 . S
C395 C393 1.393 . S
C395 C394 1.392 . S
C395 H412 0.930 1_556 S
C396 C394 1.386 . S
C396 C398 1.395 1_545 S
C396 H413 0.930 . S
C397 C393 1.395 1_565 S
C397 C398 1.379 . S
C397 H414 0.930 . S
C398 C396 1.395 1_565 S
C398 C397 1.379 . S
C398 H415 0.930 . S
C399 O382 1.264 . S
C399 O383 1.254 . S
C400 Eu336 2.848 1_656 S
C400 O380 1.257 . S
C400 O385 1.249 1_556 S
C400 C393 1.492 . S
C401 H366 0.931 . S
C401 C379 1.420 . S
C401 C402 1.351 . S
C402 H364 0.930 . S
C402 C370 1.423 1_556 S
C402 C401 1.351 . S
C403 O387 1.276 1_565 S
C403 O390 1.235 1_565 S
C404 C405 1.393 . S
C404 C408 1.395 . S
C404 C411 1.492 . S
C405 C404 1.393 . S
C405 C406 1.392 . S
C405 H416 0.930 . S
C406 C405 1.392 . S
C406 C407 1.386 . S
C407 C406 1.386 . S
C407 C409 1.395 . S
C407 H417 0.930 . S
C408 C404 1.395 . S
C408 C409 1.379 . S
C408 H418 0.930 . S
C409 C407 1.395 . S
C409 C408 1.379 . S
C409 H419 0.930 . S
C410 O388 1.264 . S
C410 O389 1.254 . S
C411 Eu347 2.848 . S
C411 O386 1.257 . S
C411 O391 1.249 . S
C411 C404 1.492 . S
H412 C395 0.930 1_554 S
H413 C396 0.930 . S
H414 C397 0.930 . S
H415 C398 0.930 . S
H416 C405 0.930 . S
H417 C407 0.930 . S
H418 C408 0.930 . S
H419 C409 0.930 . S
Eu420 N451 2.657 . S
Eu420 N458 2.609 . S
Eu420 O464 2.558 . S
Eu420 O465 2.612 . S
Eu420 O467 2.339 . S
Eu420 O468 2.563 . S
Eu420 O469 2.419 . S
Eu420 O471 2.380 . S
Eu420 O472 2.432 . S
Eu420 C484 2.848 . S
C421 C424 1.429 . S
C421 C425 1.411 . S
C421 N428 1.377 . S
C422 C424 1.420 . S
C422 C426 1.423 1_565 S
C422 C434 1.392 . S
C423 C425 1.420 1_545 S
C423 C426 1.351 . S
C423 H446 0.931 . S
C424 C421 1.429 . S
C424 C422 1.420 . S
C424 N432 1.362 . S
C425 C421 1.411 . S
C425 C423 1.420 1_565 S
C425 C430 1.395 . S
C426 C422 1.423 1_545 S
C426 C423 1.351 . S
C426 H438 0.930 . S
C427 C429 1.400 . S
C427 C430 1.386 . S
C427 H439 0.930 . S
N428 C421 1.377 . S
N428 C429 1.321 . S
N428 Eu431 2.609 . S
C429 C427 1.400 . S
C429 N428 1.321 . S
C429 H436 0.930 . S
C430 C425 1.395 . S
C430 C427 1.386 . S
C430 H449 0.930 . S
Eu431 N428 2.609 . S
Eu431 N432 2.657 . S
Eu431 O465 2.380 . S
Eu431 O466 2.432 . S
Eu431 O470 2.558 . S
Eu431 O471 2.612 . S
Eu431 O473 2.339 . S
Eu431 O474 2.563 . S
Eu431 O475 2.419 . S
Eu431 C495 2.848 . S
N432 C424 1.362 . S
N432 Eu431 2.657 . S
N432 C433 1.334 . S
C433 N432 1.334 . S
C433 C435 1.413 . S
C433 H440 0.929 . S
C434 C422 1.392 . S
C434 C435 1.367 . S
C434 H442 0.930 1_565 S
C435 C433 1.413 . S
C435 C434 1.367 . S
C435 H437 0.930 . S
H436 C429 0.930 . S
H437 C435 0.930 . S
H438 C426 0.930 . S
H439 C427 0.930 . S
H440 C433 0.929 . S
H441 C455 0.930 . S
H442 C434 0.930 1_545 S
H443 C461 0.930 . S
H444 C452 0.929 . S
H445 C459 0.930 . S
H446 C423 0.931 . S
H447 C453 0.930 . S
H448 C486 0.930 . S
H449 C430 0.930 . S
H450 C485 0.931 . S
N451 Eu420 2.657 . S
N451 C452 1.334 . S
N451 C456 1.362 . S
C452 H444 0.929 . S
C452 N451 1.334 . S
C452 C455 1.413 . S
C453 H447 0.930 . S
C453 C454 1.392 . S
C453 C455 1.367 . S
C454 C453 1.392 . S
C454 C456 1.420 . S
C454 C486 1.423 . S
C455 H441 0.930 . S
C455 C452 1.413 . S
C455 C453 1.367 . S
C456 N451 1.362 . S
C456 C454 1.420 . S
C456 C460 1.429 . S
H457 C462 0.930 . S
N458 Eu420 2.609 . S
N458 C460 1.377 . S
N458 C461 1.321 . S
C459 H445 0.930 . S
C459 C461 1.400 . S
C459 C462 1.386 . S
C460 C456 1.429 . S
C460 N458 1.377 . S
C460 C463 1.411 . S
C461 H443 0.930 . S
C461 N458 1.321 . S
C461 C459 1.400 . S
C462 H457 0.930 . S
C462 C459 1.386 . S
C462 C463 1.395 . S
C463 C460 1.411 . S
C463 C462 1.395 . S
C463 C485 1.420 . S
O464 Eu420 2.558 . S
O464 C484 1.257 . S
O465 Eu420 2.612 . S
O465 Eu431 2.380 . S
O465 C476 1.276 . S
O466 Eu431 2.432 . S
O466 C483 1.264 . S
O467 Eu420 2.339 . S
O467 C483 1.254 . S
O468 Eu420 2.563 . S
O468 C476 1.235 . S
O469 Eu420 2.419 . S
O469 C484 1.249 . S
O470 Eu431 2.558 . S
O470 C495 1.257 . S
O471 Eu420 2.380 . S
O471 Eu431 2.612 . S
O471 C487 1.276 . S
O472 Eu420 2.432 . S
O472 C494 1.264 . S
O473 Eu431 2.339 . S
O473 C494 1.254 . S
O474 Eu431 2.563 . S
O474 C487 1.235 . S
O475 Eu431 2.419 . S
O475 C495 1.249 . S
C476 O465 1.276 . S
C476 O468 1.235 . S
C477 C479 1.393 . S
C477 C481 1.395 . S
C477 C484 1.492 . S
C478 C479 1.392 . S
C478 C480 1.386 . S
C479 C477 1.393 . S
C479 C478 1.392 . S
C479 H496 0.930 . S
C480 C478 1.386 . S
C480 C482 1.395 . S
C480 H497 0.930 . S
C481 C477 1.395 . S
C481 C482 1.379 . S
C481 H498 0.930 . S
C482 C480 1.395 . S
C482 C481 1.379 . S
C482 H499 0.930 . S
C483 O466 1.264 . S
C483 O467 1.254 . S
C484 Eu420 2.848 . S
C484 O464 1.257 . S
C484 O469 1.249 . S
C484 C477 1.492 . S
C485 H450 0.931 . S
C485 C463 1.420 . S
C485 C486 1.351 . S
C486 H448 0.930 . S
C486 C454 1.423 . S
C486 C485 1.351 . S
C487 O471 1.276 . S
C487 O474 1.235 . S
C488 C489 1.393 . S
C488 C492 1.395 . S
C488 C495 1.492 . S
C489 C488 1.393 . S
C489 C490 1.392 . S
C489 H500 0.930 . S
C490 C489 1.392 . S
C490 C491 1.386 . S
C491 C490 1.386 . S
C491 C493 1.395 . S
C491 H501 0.930 . S
C492 C488 1.395 . S
C492 C493 1.379 . S
C492 H502 0.930 . S
C493 C491 1.395 . S
C493 C492 1.379 . S
C493 H503 0.930 . S
C494 O472 1.264 . S
C494 O473 1.254 . S
C495 Eu431 2.848 . S
C495 O470 1.257 . S
C495 O475 1.249 . S
C495 C488 1.492 . S
H496 C479 0.930 . S
H497 C480 0.930 . S
H498 C481 0.930 . S
H499 C482 0.930 . S
H500 C489 0.930 . S
H501 C491 0.930 . S
H502 C492 0.930 . S
H503 C493 0.930 . S
Eu504 N535 2.657 . S
Eu504 N542 2.609 . S
Eu504 O548 2.568 . S
Eu504 O549 2.612 . S
Eu504 O551 2.339 . S
Eu504 O552 2.563 1_545 S
Eu504 O553 2.419 . S
Eu504 O555 2.380 . S
Eu504 O556 2.432 . S
Eu504 C568 2.848 . S
C505 C508 1.429 . S
C505 C509 1.411 . S
C505 N512 1.377 1_565 S
C506 C508 1.420 . S
C506 C510 1.423 . S
C506 C518 1.392 . S
C507 C509 1.420 . S
C507 C510 1.351 . S
C507 H530 0.931 . S
C508 C505 1.429 . S
C508 C506 1.420 . S
C508 N516 1.362 . S
C509 C505 1.411 . S
C509 C507 1.420 . S
C509 C514 1.395 . S
C510 C506 1.423 . S
C510 C507 1.351 . S
C510 H522 0.930 . S
C511 C513 1.400 . S
C511 C514 1.386 1_545 S
C511 H523 0.930 . S
N512 C505 1.377 1_545 S
N512 C513 1.321 . S
N512 Eu515 2.609 . S
C513 C511 1.400 . S
C513 N512 1.321 . S
C513 H520 0.930 . S
C514 C509 1.395 . S
C514 C511 1.386 1_565 S
C514 H533 0.930 . S
Eu515 N512 2.609 . S
Eu515 N516 2.657 1_545 S
Eu515 O549 2.380 . S
Eu515 O550 2.432 . S
Eu515 O554 2.558 . S
Eu515 O555 2.612 . S
Eu515 O557 2.339 . S
Eu515 O558 2.563 . S
Eu515 O559 2.419 . S
Eu515 C579 2.848 . S
N516 C508 1.362 . S
N516 Eu515 2.657 1_565 S
N516 C517 1.334 . S
C517 N516 1.334 . S
C517 C519 1.413 . S
C517 H524 0.929 . S
C518 C506 1.392 . S
C518 C519 1.367 . S
C518 H526 0.930 . S
C519 C517 1.413 . S
C519 C518 1.367 . S
C519 H521 0.930 . S
H520 C513 0.930 . S
H521 C519 0.930 . S
H522 C510 0.930 . S
H523 C511 0.930 . S
H524 C517 0.929 . S
H525 C539 0.930 . S
H526 C518 0.930 . S
H527 C545 0.930 . S
H528 C536 0.929 . S
H529 C543 0.930 . S
H530 C507 0.931 . S
H531 C537 0.930 . S
H532 C570 0.930 . S
H533 C514 0.930 . S
H534 C569 0.931 . S
N535 Eu504 2.657 . S
N535 C536 1.334 . S
N535 C540 1.362 . S
C536 H528 0.929 . S
C536 N535 1.334 . S
C536 C539 1.413 . S
C537 H531 0.930 . S
C537 C538 1.392 . S
C537 C539 1.367 . S
C538 C537 1.392 . S
C538 C540 1.420 . S
C538 C570 1.423 . S
C539 H525 0.930 . S
C539 C536 1.413 . S
C539 C537 1.367 . S
C540 N535 1.362 . S
C540 C538 1.420 . S
C540 C544 1.429 . S
H541 C546 0.930 . S
N542 Eu504 2.609 . S
N542 C544 1.377 . S
N542 C545 1.321 . S
C543 H529 0.930 . S
C543 C545 1.400 . S
C543 C546 1.386 . S
C544 C540 1.429 . S
C544 N542 1.377 . S
C544 C547 1.411 . S
C545 H527 0.930 . S
C545 N542 1.321 . S
C545 C543 1.400 . S
C546 H541 0.930 . S
C546 C543 1.386 . S
C546 C547 1.395 . S
C547 C544 1.411 . S
C547 C546 1.395 . S
C547 C569 1.420 . S
O548 Eu504 2.568 . S
O548 C568 1.252 . S
O549 Eu504 2.612 . S
O549 Eu515 2.380 . S
O549 C560 1.276 1_545 S
O550 Eu515 2.432 . S
O550 C567 1.264 . S
O551 Eu504 2.339 . S
O551 C567 1.254 . S
O552 Eu504 2.563 1_565 S
O552 C560 1.235 . S
O553 Eu504 2.419 . S
O553 C568 1.249 . S
O554 Eu515 2.558 . S
O554 C579 1.257 . S
O555 Eu504 2.380 . S
O555 Eu515 2.612 . S
O555 C571 1.276 . S
O556 Eu504 2.432 . S
O556 C578 1.264 . S
O557 Eu515 2.339 . S
O557 C578 1.254 . S
O558 Eu515 2.563 . S
O558 C571 1.235 . S
O559 Eu515 2.419 . S
O559 C579 1.249 . S
C560 O549 1.276 1_565 S
C560 O552 1.235 . S
C561 C563 1.393 . S
C561 C565 1.395 . S
C561 C568 1.492 1_565 S
C562 C563 1.392 . S
C562 C564 1.386 . S
C563 C561 1.393 . S
C563 C562 1.392 . S
C563 H580 0.930 . S
C564 C562 1.386 . S
C564 C566 1.395 . S
C564 H581 0.930 . S
C565 C561 1.395 . S
C565 C566 1.379 . S
C565 H582 0.930 . S
C566 C564 1.395 . S
C566 C565 1.379 . S
C566 H583 0.930 . S
C567 O550 1.264 . S
C567 O551 1.254 . S
C568 Eu504 2.848 . S
C568 O548 1.252 . S
C568 O553 1.249 . S
C568 C561 1.492 1_545 S
C569 H534 0.931 . S
C569 C547 1.420 . S
C569 C570 1.351 . S
C570 H532 0.930 . S
C570 C538 1.423 . S
C570 C569 1.351 . S
C571 O555 1.276 . S
C571 O558 1.235 . S
C572 C573 1.393 . S
C572 C576 1.395 . S
C572 C579 1.492 . S
C573 C572 1.393 . S
C573 C574 1.392 . S
C573 H584 0.930 . S
C574 C573 1.392 . S
C574 C575 1.386 . S
C575 C574 1.386 . S
C575 C577 1.395 . S
C575 H585 0.930 . S
C576 C572 1.395 . S
C576 C577 1.379 . S
C576 H586 0.930 . S
C577 C575 1.395 . S
C577 C576 1.379 . S
C577 H587 0.930 . S
C578 O556 1.264 . S
C578 O557 1.254 . S
C579 Eu515 2.848 . S
C579 O554 1.257 . S
C579 O559 1.249 . S
C579 C572 1.492 . S
H580 C563 0.930 . S
H581 C564 0.930 . S
H582 C565 0.930 . S
H583 C566 0.930 . S
H584 C573 0.930 . S
H585 C575 0.930 . S
H586 C576 0.930 . S
H587 C577 0.930 . S
Eu588 N619 2.657 . S
Eu588 N626 2.609 . S
Eu588 O632 2.558 . S
Eu588 O633 2.612 . S
Eu588 O635 2.339 . S
Eu588 O636 2.563 . S
Eu588 O637 2.419 . S
Eu588 O639 2.380 . S
Eu588 O640 2.432 . S
Eu588 C652 2.848 . S
C589 C592 1.429 . S
C589 C593 1.411 . S
C589 N596 1.377 . S
C590 C592 1.420 . S
C590 C594 1.423 . S
C590 C602 1.392 . S
C591 C593 1.420 . S
C591 C594 1.351 . S
C591 H614 0.931 . S
C592 C589 1.429 . S
C592 C590 1.420 . S
C592 N600 1.362 . S
C593 C589 1.411 . S
C593 C591 1.420 . S
C593 C598 1.395 . S
C594 C590 1.423 . S
C594 C591 1.351 . S
C594 H606 0.930 1_556 S
C595 C597 1.400 . S
C595 C598 1.386 . S
C595 H607 0.930 . S
N596 C589 1.377 . S
N596 C597 1.321 . S
N596 Eu599 2.609 . S
C597 C595 1.400 . S
C597 N596 1.321 . S
C597 H604 0.930 . S
C598 C593 1.395 . S
C598 C595 1.386 . S
C598 H617 0.930 . S
Eu599 N596 2.609 . S
Eu599 N600 2.657 . S
Eu599 O633 2.380 . S
Eu599 O634 2.432 . S
Eu599 O638 2.558 . S
Eu599 O639 2.612 . S
Eu599 O641 2.339 . S
Eu599 O642 2.563 . S
Eu599 O643 2.419 . S
Eu599 C663 2.848 . S
N600 C592 1.362 . S
N600 Eu599 2.657 . S
N600 C601 1.334 . S
C601 N600 1.334 . S
C601 C603 1.413 . S
C601 H608 0.929 . S
C602 C590 1.392 . S
C602 C603 1.367 . S
C602 H610 0.930 . S
C603 C601 1.413 . S
C603 C602 1.367 . S
C603 H605 0.930 . S
H604 C597 0.930 . S
H605 C603 0.930 . S
H606 C594 0.930 1_554 S
H607 C595 0.930 . S
H608 C601 0.929 . S
H609 C623 0.930 . S
H610 C602 0.930 . S
H611 C629 0.930 . S
H612 C620 0.929 . S
H613 C627 0.930 . S
H614 C591 0.931 . S
H615 C621 0.930 . S
H616 C654 0.930 . S
H617 C598 0.930 . S
H618 C653 0.931 . S
N619 Eu588 2.657 . S
N619 C620 1.334 . S
N619 C624 1.362 . S
C620 H612 0.929 . S
C620 N619 1.334 . S
C620 C623 1.413 . S
C621 H615 0.930 . S
C621 C622 1.392 . S
C621 C623 1.367 . S
C622 C621 1.392 . S
C622 C624 1.420 . S
C622 C654 1.423 . S
C623 H609 0.930 . S
C623 C620 1.413 . S
C623 C621 1.367 . S
C624 N619 1.362 . S
C624 C622 1.420 . S
C624 C628 1.429 . S
H625 C630 0.930 . S
N626 Eu588 2.609 . S
N626 C628 1.377 . S
N626 C629 1.321 . S
C627 H613 0.930 . S
C627 C629 1.400 . S
C627 C630 1.386 . S
C628 C624 1.429 . S
C628 N626 1.377 . S
C628 C631 1.411 . S
C629 H611 0.930 . S
C629 N626 1.321 . S
C629 C627 1.400 . S
C630 H625 0.930 . S
C630 C627 1.386 . S
C630 C631 1.395 . S
C631 C628 1.411 . S
C631 C630 1.395 . S
C631 C653 1.420 . S
O632 Eu588 2.558 . S
O632 C652 1.257 . S
O633 Eu588 2.612 . S
O633 Eu599 2.380 . S
O633 C644 1.276 . S
O634 Eu599 2.432 . S
O634 C651 1.264 . S
O635 Eu588 2.339 . S
O635 C651 1.254 . S
O636 Eu588 2.563 . S
O636 C644 1.235 . S
O637 Eu588 2.419 . S
O637 C652 1.249 . S
O638 Eu599 2.558 . S
O638 C663 1.257 . S
O639 Eu588 2.380 . S
O639 Eu599 2.612 . S
O639 C655 1.276 . S
O640 Eu588 2.432 . S
O640 C662 1.264 . S
O641 Eu599 2.339 . S
O641 C662 1.254 . S
O642 Eu599 2.563 . S
O642 C655 1.235 . S
O643 Eu599 2.419 . S
O643 C663 1.249 . S
C644 O633 1.276 . S
C644 O636 1.235 . S
C645 C647 1.393 . S
C645 C649 1.395 . S
C645 C652 1.492 . S
C646 C647 1.392 . S
C646 C648 1.386 . S
C647 C645 1.393 . S
C647 C646 1.392 . S
C647 H664 0.930 . S
C648 C646 1.386 . S
C648 C650 1.395 . S
C648 H665 0.930 . S
C649 C645 1.395 . S
C649 C650 1.379 . S
C649 H666 0.930 . S
C650 C648 1.395 . S
C650 C649 1.379 . S
C650 H667 0.930 . S
C651 O634 1.264 . S
C651 O635 1.254 . S
C652 Eu588 2.848 . S
C652 O632 1.257 . S
C652 O637 1.249 . S
C652 C645 1.492 . S
C653 H618 0.931 . S
C653 C631 1.420 . S
C653 C654 1.351 . S
C654 H616 0.930 . S
C654 C622 1.423 . S
C654 C653 1.351 . S
C655 O639 1.276 . S
C655 O642 1.235 . S
C656 C657 1.393 . S
C656 C660 1.395 . S
C656 C663 1.492 . S
C657 C656 1.393 . S
C657 C658 1.392 . S
C657 H668 0.930 . S
C658 C657 1.392 . S
C658 C659 1.386 . S
C659 C658 1.386 . S
C659 C661 1.395 . S
C659 H669 0.930 . S
C660 C656 1.395 . S
C660 C661 1.379 . S
C660 H670 0.930 . S
C661 C659 1.395 . S
C661 C660 1.379 . S
C661 H671 0.930 . S
C662 O640 1.264 . S
C662 O641 1.254 . S
C663 Eu599 2.848 . S
C663 O638 1.257 . S
C663 O643 1.249 . S
C663 C656 1.492 . S
H664 C647 0.930 . S
H665 C648 0.930 . S
H666 C649 0.930 . S
H667 C650 0.930 . S
H668 C657 0.930 . S
H669 C659 0.930 . S
H670 C660 0.930 . S
H671 C661 0.930 . S
Eu672 N703 2.657 . S
Eu672 N710 2.609 . S
Eu672 O716 2.558 . S
Eu672 O717 2.612 . S
Eu672 O719 2.339 . S
Eu672 O720 2.563 . S
Eu672 O721 2.419 . S
Eu672 O723 2.380 . S
Eu672 O724 2.432 . S
Eu672 C736 2.848 . S
C673 C676 1.429 . S
C673 C677 1.411 . S
C673 N680 1.377 . S
C674 C676 1.420 . S
C674 C678 1.423 . S
C674 C686 1.392 1_455 S
C675 C677 1.420 . S
C675 C678 1.351 . S
C675 H698 0.931 . S
C676 C673 1.429 . S
C676 C674 1.420 . S
C676 N684 1.362 . S
C677 C673 1.411 . S
C677 C675 1.420 . S
C677 C682 1.395 . S
C678 C674 1.423 . S
C678 C675 1.351 . S
C678 H690 0.930 . S
C679 C681 1.400 . S
C679 C682 1.386 . S
C679 H691 0.930 . S
N680 C673 1.377 . S
N680 C681 1.321 . S
N680 Eu683 2.609 . S
C681 C679 1.400 . S
C681 N680 1.321 . S
C681 H688 0.930 . S
C682 C677 1.395 . S
C682 C679 1.386 . S
C682 H701 0.930 . S
Eu683 N680 2.609 . S
Eu683 N684 2.657 . S
Eu683 O717 2.380 1_565 S
Eu683 O718 2.432 1_565 S
Eu683 O722 2.558 . S
Eu683 O723 2.612 1_565 S
Eu683 O725 2.339 . S
Eu683 O726 2.563 . S
Eu683 O727 2.419 . S
Eu683 C747 2.848 . S
N684 C676 1.362 . S
N684 Eu683 2.657 . S
N684 C685 1.334 . S
C685 N684 1.334 . S
C685 C687 1.413 1_455 S
C685 H692 0.933 . S
C686 C674 1.392 1_655 S
C686 C687 1.367 . S
C686 H694 0.930 . S
C687 C685 1.413 1_655 S
C687 C686 1.367 . S
C687 H689 0.930 . S
H688 C681 0.930 . S
H689 C687 0.930 . S
H690 C678 0.930 . S
H691 C679 0.930 . S
H692 C685 0.933 . S
H693 C707 0.930 . S
H694 C686 0.930 . S
H695 C713 0.930 . S
H696 C704 0.929 . S
H697 C711 0.930 1_655 S
H698 C675 0.931 . S
H699 C705 0.930 . S
H700 C738 0.930 . S
H701 C682 0.930 . S
H702 C737 0.931 . S
N703 Eu672 2.657 . S
N703 C704 1.334 . S
N703 C708 1.362 . S
C704 H696 0.929 . S
C704 N703 1.334 . S
C704 C707 1.413 . S
C705 H699 0.930 . S
C705 C706 1.392 . S
C705 C707 1.367 . S
C706 C705 1.392 . S
C706 C708 1.420 . S
C706 C738 1.423 . S
C707 H693 0.930 . S
C707 C704 1.413 . S
C707 C705 1.367 . S
C708 N703 1.362 . S
C708 C706 1.420 . S
C708 C712 1.429 . S
H709 C714 0.930 . S
N710 Eu672 2.609 . S
N710 C712 1.377 . S
N710 C713 1.321 . S
C711 H697 0.930 1_455 S
C711 C713 1.400 . S
C711 C714 1.386 . S
C712 C708 1.429 . S
C712 N710 1.377 . S
C712 C715 1.411 . S
C713 H695 0.930 . S
C713 N710 1.321 . S
C713 C711 1.400 . S
C714 H709 0.930 . S
C714 C711 1.386 . S
C714 C715 1.395 . S
C715 C712 1.411 . S
C715 C714 1.395 . S
C715 C737 1.420 . S
O716 Eu672 2.558 . S
O716 C736 1.257 . S
O717 Eu672 2.612 . S
O717 Eu683 2.380 1_545 S
O717 C728 1.276 . S
O718 Eu683 2.432 1_545 S
O718 C735 1.264 . S
O719 Eu672 2.339 . S
O719 C735 1.254 . S
O720 Eu672 2.563 . S
O720 C728 1.235 . S
O721 Eu672 2.419 . S
O721 C736 1.249 . S
O722 Eu683 2.558 . S
O722 C747 1.257 . S
O723 Eu672 2.380 . S
O723 Eu683 2.612 1_545 S
O723 C739 1.276 . S
O724 Eu672 2.432 . S
O724 C746 1.264 . S
O725 Eu683 2.339 . S
O725 C746 1.254 1_565 S
O726 Eu683 2.563 . S
O726 C739 1.235 1_565 S
O727 Eu683 2.419 . S
O727 C747 1.249 . S
C728 O717 1.276 . S
C728 O720 1.235 . S
C729 C731 1.393 . S
C729 C733 1.395 . S
C729 C736 1.492 . S
C730 C731 1.392 . S
C730 C732 1.386 . S
C731 C729 1.393 . S
C731 C730 1.392 . S
C731 H748 0.930 . S
C732 C730 1.386 . S
C732 C734 1.395 . S
C732 H749 0.930 . S
C733 C729 1.395 . S
C733 C734 1.379 . S
C733 H750 0.930 . S
C734 C732 1.395 . S
C734 C733 1.379 . S
C734 H751 0.930 . S
C735 O718 1.264 . S
C735 O719 1.254 . S
C736 Eu672 2.848 . S
C736 O716 1.257 . S
C736 O721 1.249 . S
C736 C729 1.492 . S
C737 H702 0.931 . S
C737 C715 1.420 . S
C737 C738 1.351 . S
C738 H700 0.930 . S
C738 C706 1.423 . S
C738 C737 1.351 . S
C739 O723 1.276 . S
C739 O726 1.235 1_545 S
C740 C741 1.393 . S
C740 C744 1.395 . S
C740 C747 1.492 . S
C741 C740 1.393 . S
C741 C742 1.392 . S
C741 H752 0.930 . S
C742 C741 1.392 . S
C742 C743 1.386 . S
C743 C742 1.386 . S
C743 C745 1.395 . S
C743 H753 0.930 . S
C744 C740 1.395 . S
C744 C745 1.379 . S
C744 H754 0.930 . S
C745 C743 1.395 . S
C745 C744 1.379 . S
C745 H755 0.930 . S
C746 O724 1.264 . S
C746 O725 1.254 1_545 S
C747 Eu683 2.848 . S
C747 O722 1.257 . S
C747 O727 1.249 . S
C747 C740 1.492 . S
H748 C731 0.930 . S
H749 C732 0.930 . S
H750 C733 0.930 . S
H751 C734 0.930 . S
H752 C741 0.930 . S
H753 C743 0.930 . S
H754 C744 0.930 . S
H755 C745 0.930 . S
Eu756 N787 2.657 . S
Eu756 N794 2.609 . S
Eu756 O800 2.558 . S
Eu756 O801 2.612 . S
Eu756 O803 2.339 . S
Eu756 O804 2.563 . S
Eu756 O805 2.419 . S
Eu756 O807 2.380 . S
Eu756 O808 2.432 . S
Eu756 C820 2.848 . S
C757 C760 1.429 . S
C757 C761 1.411 . S
C757 N764 1.377 . S
C758 C760 1.420 . S
C758 C762 1.423 . S
C758 C770 1.392 . S
C759 C761 1.420 . S
C759 C762 1.351 . S
C759 H782 0.931 . S
C760 C757 1.429 . S
C760 C758 1.420 . S
C760 N768 1.362 . S
C761 C757 1.411 . S
C761 C759 1.420 . S
C761 C766 1.395 . S
C762 C758 1.423 . S
C762 C759 1.351 . S
C762 H774 0.930 . S
C763 C765 1.400 . S
C763 C766 1.386 . S
C763 H775 0.930 . S
N764 C757 1.377 . S
N764 C765 1.321 . S
N764 Eu767 2.609 . S
C765 C763 1.400 . S
C765 N764 1.321 . S
C765 H772 0.930 . S
C766 C761 1.395 . S
C766 C763 1.386 . S
C766 H785 0.930 . S
Eu767 N764 2.609 . S
Eu767 N768 2.657 . S
Eu767 O801 2.380 . S
Eu767 O802 2.432 . S
Eu767 O806 2.558 . S
Eu767 O807 2.612 . S
Eu767 O809 2.339 . S
Eu767 O810 2.563 . S
Eu767 O811 2.419 . S
Eu767 C831 2.848 . S
N768 C760 1.362 . S
N768 Eu767 2.657 . S
N768 C769 1.334 . S
C769 N768 1.334 . S
C769 C771 1.413 . S
C769 H776 0.929 . S
C770 C758 1.392 . S
C770 C771 1.367 . S
C770 H778 0.930 . S
C771 C769 1.413 . S
C771 C770 1.367 . S
C771 H773 0.930 . S
H772 C765 0.930 . S
H773 C771 0.930 . S
H774 C762 0.930 . S
H775 C763 0.930 . S
H776 C769 0.929 . S
H777 C791 0.930 . S
H778 C770 0.930 . S
H779 C797 0.930 . S
H780 C788 0.929 . S
H781 C795 0.930 . S
H782 C759 0.931 . S
H783 C789 0.930 . S
H784 C822 0.930 . S
H785 C766 0.930 . S
H786 C821 0.938 . S
N787 Eu756 2.657 . S
N787 C788 1.334 . S
N787 C792 1.362 . S
C788 H780 0.929 . S
C788 N787 1.334 . S
C788 C791 1.413 1_565 S
C789 H783 0.930 . S
C789 C790 1.392 . S
C789 C791 1.367 . S
C790 C789 1.392 . S
C790 C792 1.420 1_545 S
C790 C822 1.423 . S
C791 H777 0.930 . S
C791 C788 1.413 1_545 S
C791 C789 1.367 . S
C792 N787 1.362 . S
C792 C790 1.420 1_565 S
C792 C796 1.429 . S
H793 C798 0.930 . S
N794 Eu756 2.609 . S
N794 C796 1.377 . S
N794 C797 1.321 . S
C795 H781 0.930 . S
C795 C797 1.400 . S
C795 C798 1.386 . S
C796 C792 1.429 . S
C796 N794 1.377 . S
C796 C799 1.411 . S
C797 H779 0.930 . S
C797 N794 1.321 . S
C797 C795 1.400 . S
C798 H793 0.930 . S
C798 C795 1.386 . S
C798 C799 1.395 . S
C799 C796 1.411 . S
C799 C798 1.395 . S
C799 C821 1.420 . S
O800 Eu756 2.558 . S
O800 C820 1.257 . S
O801 Eu756 2.612 . S
O801 Eu767 2.380 . S
O801 C812 1.276 . S
O802 Eu767 2.432 . S
O802 C819 1.264 . S
O803 Eu756 2.339 . S
O803 C819 1.254 . S
O804 Eu756 2.563 . S
O804 C812 1.235 . S
O805 Eu756 2.419 . S
O805 C820 1.249 . S
O806 Eu767 2.558 . S
O806 C831 1.257 . S
O807 Eu756 2.380 . S
O807 Eu767 2.612 . S
O807 C823 1.276 . S
O808 Eu756 2.432 . S
O808 C830 1.264 . S
O809 Eu767 2.339 . S
O809 C830 1.254 . S
O810 Eu767 2.563 . S
O810 C823 1.235 . S
O811 Eu767 2.419 . S
O811 C831 1.249 . S
C812 O801 1.276 . S
C812 O804 1.235 . S
C813 C815 1.393 . S
C813 C817 1.395 . S
C813 C820 1.492 . S
C814 C815 1.392 . S
C814 C816 1.386 . S
C815 C813 1.393 . S
C815 C814 1.392 . S
C815 H832 0.930 . S
C816 C814 1.386 . S
C816 C818 1.395 . S
C816 H833 0.930 . S
C817 C813 1.395 . S
C817 C818 1.379 . S
C817 H834 0.930 . S
C818 C816 1.395 . S
C818 C817 1.379 . S
C818 H835 0.930 . S
C819 O802 1.264 . S
C819 O803 1.254 . S
C820 Eu756 2.848 . S
C820 O800 1.257 . S
C820 O805 1.249 . S
C820 C813 1.492 . S
C821 H786 0.938 . S
C821 C799 1.420 . S
C821 C822 1.351 1_565 S
C822 H784 0.930 . S
C822 C790 1.423 . S
C822 C821 1.351 1_545 S
C823 O807 1.276 . S
C823 O810 1.235 . S
C824 C825 1.393 . S
C824 C828 1.395 . S
C824 C831 1.492 . S
C825 C824 1.393 . S
C825 C826 1.392 . S
C825 H836 0.930 . S
C826 C825 1.392 . S
C826 C827 1.386 . S
C827 C826 1.386 . S
C827 C829 1.395 . S
C827 H837 0.930 . S
C828 C824 1.395 . S
C828 C829 1.379 . S
C828 H838 0.930 . S
C829 C827 1.395 . S
C829 C828 1.379 . S
C829 H839 0.930 . S
C830 O808 1.264 . S
C830 O809 1.254 . S
C831 Eu767 2.848 . S
C831 O806 1.257 . S
C831 O811 1.249 . S
C831 C824 1.492 . S
H832 C815 0.930 . S
H833 C816 0.930 . S
H834 C817 0.930 . S
H835 C818 0.930 . S
H836 C825 0.930 . S
H837 C827 0.930 . S
H838 C828 0.930 . S
H839 C829 0.930 . S
Eu840 N871 2.657 . S
Eu840 N878 2.609 . S
Eu840 O884 2.558 1_545 S
Eu840 O885 2.612 . S
Eu840 O887 2.339 . S
Eu840 O888 2.563 1_545 S
Eu840 O889 2.419 . S
Eu840 O891 2.380 . S
Eu840 O892 2.432 1_545 S
Eu840 C904 2.848 1_545 S
C841 C844 1.429 . S
C841 C845 1.411 . S
C841 N848 1.377 . S
C842 C844 1.420 1_565 S
C842 C846 1.423 1_565 S
C842 C854 1.392 . S
C843 C845 1.420 . S
C843 C846 1.351 . S
C843 H866 0.931 . S
C844 C841 1.429 . S
C844 C842 1.420 1_545 S
C844 N852 1.362 . S
C845 C841 1.411 . S
C845 C843 1.420 . S
C845 C850 1.395 . S
C846 C842 1.423 1_545 S
C846 C843 1.351 . S
C846 H858 0.930 1_545 S
C847 C849 1.400 . S
C847 C850 1.386 . S
C847 H859 0.930 . S
N848 C841 1.377 . S
N848 C849 1.321 . S
N848 Eu851 2.609 . S
C849 C847 1.400 . S
C849 N848 1.321 . S
C849 H856 0.930 . S
C850 C845 1.395 . S
C850 C847 1.386 . S
C850 H869 0.930 . S
Eu851 N848 2.609 . S
Eu851 N852 2.657 . S
Eu851 O885 2.380 1_556 S
Eu851 O886 2.432 1_556 S
Eu851 O890 2.558 . S
Eu851 O891 2.612 1_556 S
Eu851 O893 2.339 . S
Eu851 O894 2.563 1_556 S
Eu851 O895 2.419 . S
Eu851 C915 2.848 . S
N852 C844 1.362 . S
N852 Eu851 2.657 . S
N852 C853 1.334 1_545 S
C853 N852 1.334 1_565 S
C853 C855 1.413 . S
C853 H860 0.929 . S
C854 C842 1.392 . S
C854 C855 1.367 . S
C854 H862 0.930 . S
C855 C853 1.413 . S
C855 C854 1.367 . S
C855 H857 0.930 . S
H856 C849 0.930 . S
H857 C855 0.930 . S
H858 C846 0.930 1_565 S
H859 C847 0.930 . S
H860 C853 0.929 . S
H861 C875 0.930 . S
H862 C854 0.930 . S
H863 C881 0.930 . S
H864 C872 0.929 . S
H865 C879 0.930 . S
H866 C843 0.931 . S
H867 C873 0.930 . S
H868 C906 0.930 . S
H869 C850 0.930 . S
H870 C905 0.931 . S
N871 Eu840 2.657 . S
N871 C872 1.334 . S
N871 C876 1.362 . S
C872 H864 0.929 . S
C872 N871 1.334 . S
C872 C875 1.413 . S
C873 H867 0.930 . S
C873 C874 1.392 . S
C873 C875 1.367 . S
C874 C873 1.392 . S
C874 C876 1.420 . S
C874 C906 1.423 . S
C875 H861 0.930 . S
C875 C872 1.413 . S
C875 C873 1.367 . S
C876 N871 1.362 . S
C876 C874 1.420 . S
C876 C880 1.429 . S
H877 C882 0.930 . S
N878 Eu840 2.609 . S
N878 C880 1.377 . S
N878 C881 1.321 1_545 S
C879 H865 0.930 . S
C879 C881 1.400 . S
C879 C882 1.386 . S
C880 C876 1.429 . S
C880 N878 1.377 . S
C880 C883 1.411 . S
C881 H863 0.930 . S
C881 N878 1.321 1_565 S
C881 C879 1.400 . S
C882 H877 0.930 . S
C882 C879 1.386 . S
C882 C883 1.395 1_565 S
C883 C880 1.411 . S
C883 C882 1.395 1_545 S
C883 C905 1.420 . S
O884 Eu840 2.558 1_565 S
O884 C904 1.257 . S
O885 Eu840 2.612 . S
O885 Eu851 2.380 1_554 S
O885 C896 1.276 . S
O886 Eu851 2.432 1_554 S
O886 C903 1.264 . S
O887 Eu840 2.339 . S
O887 C903 1.254 . S
O888 Eu840 2.563 1_565 S
O888 C896 1.235 1_565 S
O889 Eu840 2.419 . S
O889 C904 1.249 1_545 S
O890 Eu851 2.558 . S
O890 C915 1.257 . S
O891 Eu840 2.380 . S
O891 Eu851 2.612 1_554 S
O891 C907 1.276 . S
O892 Eu840 2.432 1_565 S
O892 C914 1.264 1_554 S
O893 Eu851 2.339 . S
O893 C914 1.254 1_545 S
O894 Eu851 2.563 1_554 S
O894 C907 1.235 . S
O895 Eu851 2.419 . S
O895 C915 1.249 . S
C896 O885 1.276 . S
C896 O888 1.235 1_545 S
C897 C899 1.393 1_565 S
C897 C901 1.395 . S
C897 C904 1.492 . S
C898 C899 1.392 1_565 S
C898 C900 1.386 . S
C899 C897 1.393 1_545 S
C899 C898 1.392 1_545 S
C899 H916 0.930 . S
C900 C898 1.386 . S
C900 C902 1.395 . S
C900 H917 0.930 . S
C901 C897 1.395 . S
C901 C902 1.379 . S
C901 H918 0.930 . S
C902 C900 1.395 . S
C902 C901 1.379 . S
C902 H919 0.930 . S
C903 O886 1.264 . S
C903 O887 1.254 . S
C904 Eu840 2.848 1_565 S
C904 O884 1.257 . S
C904 O889 1.249 1_565 S
C904 C897 1.492 . S
C905 H870 0.931 . S
C905 C883 1.420 . S
C905 C906 1.351 . S
C906 H868 0.930 . S
C906 C874 1.423 . S
C906 C905 1.351 . S
C907 O891 1.276 . S
C907 O894 1.235 . S
C908 C909 1.393 . S
C908 C912 1.395 . S
C908 C915 1.492 . S
C909 C908 1.393 . S
C909 C910 1.392 . S
C909 H920 0.930 . S
C910 C909 1.392 . S
C910 C911 1.386 . S
C911 C910 1.386 . S
C911 C913 1.395 . S
C911 H921 0.930 . S
C912 C908 1.395 . S
C912 C913 1.379 . S
C912 H922 0.930 . S
C913 C911 1.395 . S
C913 C912 1.379 . S
C913 H923 0.930 . S
C914 O892 1.264 1_556 S
C914 O893 1.254 1_565 S
C915 Eu851 2.848 . S
C915 O890 1.257 . S
C915 O895 1.249 . S
C915 C908 1.492 . S
H916 C899 0.930 . S
H917 C900 0.930 . S
H918 C901 0.930 . S
H919 C902 0.930 . S
H920 C909 0.930 . S
H921 C911 0.930 . S
H922 C912 0.930 . S
H923 C913 0.930 . S
Eu924 N955 2.657 . S
Eu924 N962 2.609 . S
Eu924 O968 2.558 . S
Eu924 O969 2.612 . S
Eu924 O971 2.339 . S
Eu924 O972 2.563 . S
Eu924 O973 2.419 . S
Eu924 O975 2.380 . S
Eu924 O976 2.432 . S
Eu924 C988 2.848 . S
C925 C928 1.429 . S
C925 C929 1.411 . S
C925 N932 1.377 . S
C926 C928 1.420 . S
C926 C930 1.423 . S
C926 C938 1.392 . S
C927 C929 1.420 . S
C927 C930 1.351 . S
C927 H950 0.931 . S
C928 C925 1.429 . S
C928 C926 1.420 . S
C928 N936 1.362 . S
C929 C925 1.411 . S
C929 C927 1.420 . S
C929 C934 1.395 . S
C930 C926 1.423 . S
C930 C927 1.351 . S
C930 H942 0.930 . S
C931 C933 1.400 . S
C931 C934 1.386 . S
C931 H943 0.930 . S
N932 C925 1.377 . S
N932 C933 1.321 . S
N932 Eu935 2.609 . S
C933 C931 1.400 . S
C933 N932 1.321 . S
C933 H940 0.930 . S
C934 C929 1.395 . S
C934 C931 1.386 . S
C934 H953 0.930 . S
Eu935 N932 2.609 . S
Eu935 N936 2.657 . S
Eu935 O969 2.380 . S
Eu935 O970 2.432 . S
Eu935 O974 2.558 . S
Eu935 O975 2.612 . S
Eu935 O977 2.339 . S
Eu935 O978 2.563 . S
Eu935 O979 2.419 . S
Eu935 C999 2.848 . S
N936 C928 1.362 . S
N936 Eu935 2.657 . S
N936 C937 1.334 . S
C937 N936 1.334 . S
C937 C939 1.413 . S
C937 H944 0.929 . S
C938 C926 1.392 . S
C938 C939 1.367 . S
C938 H946 0.930 . S
C939 C937 1.413 . S
C939 C938 1.367 . S
C939 H941 0.930 . S
H940 C933 0.930 . S
H941 C939 0.930 . S
H942 C930 0.930 . S
H943 C931 0.930 . S
H944 C937 0.929 . S
H945 C959 0.930 . S
H946 C938 0.930 . S
H947 C965 0.930 . S
H948 C956 0.929 . S
H949 C963 0.930 . S
H950 C927 0.931 . S
H951 C957 0.930 . S
H952 C990 0.930 . S
H953 C934 0.930 . S
H954 C989 0.931 . S
N955 Eu924 2.657 . S
N955 C956 1.334 . S
N955 C960 1.362 . S
C956 H948 0.929 . S
C956 N955 1.334 . S
C956 C959 1.413 . S
C957 H951 0.930 . S
C957 C958 1.392 . S
C957 C959 1.367 . S
C958 C957 1.392 . S
C958 C960 1.420 . S
C958 C990 1.423 . S
C959 H945 0.930 . S
C959 C956 1.413 . S
C959 C957 1.367 . S
C960 N955 1.362 . S
C960 C958 1.420 . S
C960 C964 1.429 . S
H961 C966 0.930 . S
N962 Eu924 2.609 . S
N962 C964 1.377 . S
N962 C965 1.321 . S
C963 H949 0.930 . S
C963 C965 1.400 . S
C963 C966 1.386 . S
C964 C960 1.429 . S
C964 N962 1.377 . S
C964 C967 1.411 . S
C965 H947 0.930 . S
C965 N962 1.321 . S
C965 C963 1.400 . S
C966 H961 0.930 . S
C966 C963 1.386 . S
C966 C967 1.395 . S
C967 C964 1.411 . S
C967 C966 1.395 . S
C967 C989 1.420 . S
O968 Eu924 2.558 . S
O968 C988 1.257 . S
O969 Eu924 2.612 . S
O969 Eu935 2.380 . S
O969 C980 1.276 . S
O970 Eu935 2.432 . S
O970 C987 1.264 . S
O971 Eu924 2.339 . S
O971 C987 1.254 . S
O972 Eu924 2.563 . S
O972 C980 1.235 . S
O973 Eu924 2.419 . S
O973 C988 1.249 . S
O974 Eu935 2.558 . S
O974 C999 1.257 . S
O975 Eu924 2.380 . S
O975 Eu935 2.612 . S
O975 C991 1.276 . S
O976 Eu924 2.432 . S
O976 C998 1.264 . S
O977 Eu935 2.339 . S
O977 C998 1.254 . S
O978 Eu935 2.563 . S
O978 C991 1.235 . S
O979 Eu935 2.419 . S
O979 C999 1.249 . S
C980 O969 1.276 . S
C980 O972 1.235 . S
C981 C983 1.393 . S
C981 C985 1.395 . S
C981 C988 1.492 . S
C982 C983 1.392 . S
C982 C984 1.386 . S
C983 C981 1.393 . S
C983 C982 1.392 . S
C983 H1000 0.930 . S
C984 C982 1.386 . S
C984 C986 1.395 . S
C984 H1001 0.930 . S
C985 C981 1.395 . S
C985 C986 1.379 . S
C985 H1002 0.930 . S
C986 C984 1.395 . S
C986 C985 1.379 . S
C986 H1003 0.930 . S
C987 O970 1.264 . S
C987 O971 1.254 . S
C988 Eu924 2.848 . S
C988 O968 1.257 . S
C988 O973 1.249 . S
C988 C981 1.492 . S
C989 H954 0.931 . S
C989 C967 1.420 . S
C989 C990 1.351 . S
C990 H952 0.930 . S
C990 C958 1.423 . S
C990 C989 1.351 . S
C991 O975 1.276 . S
C991 O978 1.235 . S
C992 C993 1.393 . S
C992 C996 1.395 . S
C992 C999 1.492 . S
C993 C992 1.393 . S
C993 C994 1.392 . S
C993 H1004 0.930 . S
C994 C993 1.392 . S
C994 C995 1.386 1_545 S
C995 C994 1.386 1_565 S
C995 C997 1.395 . S
C995 H1005 0.930 . S
C996 C992 1.395 . S
C996 C997 1.379 1_545 S
C996 H1006 0.930 . S
C997 C995 1.395 . S
C997 C996 1.379 1_565 S
C997 H1007 0.930 . S
C998 O976 1.264 . S
C998 O977 1.254 . S
C999 Eu935 2.848 . S
C999 O974 1.257 . S
C999 O979 1.249 . S
C999 C992 1.492 . S
H1000 C983 0.930 . S
H1001 C984 0.930 . S
H1002 C985 0.930 . S
H1003 C986 0.930 . S
H1004 C993 0.930 . S
H1005 C995 0.930 . S
H1006 C996 0.930 . S
H1007 C997 0.930 . S
Eu1008 N1039 2.657 . S
Eu1008 N1046 2.609 . S
Eu1008 O1052 2.558 . S
Eu1008 O1053 2.612 1_554 S
Eu1008 O1055 2.339 . S
Eu1008 O1056 2.563 1_554 S
Eu1008 O1057 2.419 . S
Eu1008 O1059 2.380 . S
Eu1008 O1060 2.432 . S
Eu1008 C1072 2.848 . S
C1009 C1012 1.429 . S
C1009 C1013 1.411 . S
C1009 N1016 1.377 . S
C1010 C1012 1.420 . S
C1010 C1014 1.423 . S
C1010 C1022 1.392 . S
C1011 C1013 1.420 . S
C1011 C1014 1.351 . S
C1011 H1034 0.931 . S
C1012 C1009 1.429 . S
C1012 C1010 1.420 . S
C1012 N1020 1.362 . S
C1013 C1009 1.411 . S
C1013 C1011 1.420 . S
C1013 C1018 1.395 . S
C1014 C1010 1.423 . S
C1014 C1011 1.351 . S
C1014 H1026 0.930 . S
C1015 C1017 1.400 . S
C1015 C1018 1.386 . S
C1015 H1027 0.930 . S
N1016 C1009 1.377 . S
N1016 C1017 1.321 . S
N1016 Eu1019 2.609 1_556 S
C1017 C1015 1.400 . S
C1017 N1016 1.321 . S
C1017 H1024 0.930 . S
C1018 C1013 1.395 . S
C1018 C1015 1.386 . S
C1018 H1037 0.930 . S
Eu1019 N1016 2.609 1_554 S
Eu1019 N1020 2.657 1_554 S
Eu1019 O1053 2.380 1_554 S
Eu1019 O1054 2.432 . S
Eu1019 O1058 2.558 . S
Eu1019 O1059 2.612 . S
Eu1019 O1061 2.339 . S
Eu1019 O1062 2.563 . S
Eu1019 O1063 2.419 . S
Eu1019 C1083 2.848 . S
N1020 C1012 1.362 . S
N1020 Eu1019 2.657 1_556 S
N1020 C1021 1.334 . S
C1021 N1020 1.334 . S
C1021 C1023 1.413 . S
C1021 H1028 0.929 . S
C1022 C1010 1.392 . S
C1022 C1023 1.367 . S
C1022 H1030 0.930 . S
C1023 C1021 1.413 . S
C1023 C1022 1.367 . S
C1023 H1025 0.930 . S
H1024 C1017 0.930 . S
H1025 C1023 0.930 . S
H1026 C1014 0.930 . S
H1027 C1015 0.930 . S
H1028 C1021 0.929 . S
H1029 C1043 0.930 . S
H1030 C1022 0.930 . S
H1031 C1049 0.930 . S
H1032 C1040 0.929 . S
H1033 C1047 0.930 . S
H1034 C1011 0.931 . S
H1035 C1041 0.930 . S
H1036 C1074 0.930 . S
H1037 C1018 0.930 . S
H1038 C1073 0.931 . S
N1039 Eu1008 2.657 . S
N1039 C1040 1.334 . S
N1039 C1044 1.362 . S
C1040 H1032 0.929 . S
C1040 N1039 1.334 . S
C1040 C1043 1.413 . S
C1041 H1035 0.930 . S
C1041 C1042 1.392 . S
C1041 C1043 1.367 . S
C1042 C1041 1.392 . S
C1042 C1044 1.420 . S
C1042 C1074 1.423 . S
C1043 H1029 0.930 . S
C1043 C1040 1.413 . S
C1043 C1041 1.367 . S
C1044 N1039 1.362 . S
C1044 C1042 1.420 . S
C1044 C1048 1.429 . S
H1045 C1050 0.930 . S
N1046 Eu1008 2.609 . S
N1046 C1048 1.377 . S
N1046 C1049 1.321 . S
C1047 H1033 0.930 . S
C1047 C1049 1.400 . S
C1047 C1050 1.386 . S
C1048 C1044 1.429 . S
C1048 N1046 1.377 . S
C1048 C1051 1.411 . S
C1049 H1031 0.930 . S
C1049 N1046 1.321 . S
C1049 C1047 1.400 . S
C1050 H1045 0.930 . S
C1050 C1047 1.386 . S
C1050 C1051 1.395 . S
C1051 C1048 1.411 . S
C1051 C1050 1.395 . S
C1051 C1073 1.420 . S
O1052 Eu1008 2.558 . S
O1052 C1072 1.257 . S
O1053 Eu1008 2.612 1_556 S
O1053 Eu1019 2.380 1_556 S
O1053 C1064 1.276 . S
O1054 Eu1019 2.432 . S
O1054 C1071 1.264 . S
O1055 Eu1008 2.339 . S
O1055 C1071 1.254 . S
O1056 Eu1008 2.563 1_556 S
O1056 C1064 1.235 . S
O1057 Eu1008 2.419 . S
O1057 C1072 1.249 . S
O1058 Eu1019 2.558 . S
O1058 C1083 1.257 . S
O1059 Eu1008 2.380 . S
O1059 Eu1019 2.612 . S
O1059 C1075 1.276 . S
O1060 Eu1008 2.432 . S
O1060 C1082 1.264 . S
O1061 Eu1019 2.339 . S
O1061 C1082 1.254 . S
O1062 Eu1019 2.563 . S
O1062 C1075 1.235 . S
O1063 Eu1019 2.419 . S
O1063 C1083 1.249 . S
C1064 O1053 1.276 . S
C1064 O1056 1.235 . S
C1065 C1067 1.393 . S
C1065 C1069 1.395 . S
C1065 C1072 1.492 . S
C1066 C1067 1.392 . S
C1066 C1068 1.386 . S
C1067 C1065 1.393 . S
C1067 C1066 1.392 . S
C1067 H1084 0.930 . S
C1068 C1066 1.386 . S
C1068 C1070 1.395 . S
C1068 H1085 0.930 . S
C1069 C1065 1.395 . S
C1069 C1070 1.379 . S
C1069 H1086 0.930 . S
C1070 C1068 1.395 . S
C1070 C1069 1.379 . S
C1070 H1087 0.930 . S
C1071 O1054 1.264 . S
C1071 O1055 1.254 . S
C1072 Eu1008 2.848 . S
C1072 O1052 1.257 . S
C1072 O1057 1.249 . S
C1072 C1065 1.492 . S
C1073 H1038 0.931 . S
C1073 C1051 1.420 . S
C1073 C1074 1.351 . S
C1074 H1036 0.930 . S
C1074 C1042 1.423 . S
C1074 C1073 1.351 . S
C1075 O1059 1.276 . S
C1075 O1062 1.235 . S
C1076 C1077 1.393 . S
C1076 C1080 1.395 1_554 S
C1076 C1083 1.492 . S
C1077 C1076 1.393 . S
C1077 C1078 1.392 . S
C1077 H1088 0.930 . S
C1078 C1077 1.392 . S
C1078 C1079 1.386 . S
C1079 C1078 1.386 . S
C1079 C1081 1.395 . S
C1079 H1089 0.930 . S
C1080 C1076 1.395 1_556 S
C1080 C1081 1.379 1_556 S
C1080 H1090 0.930 . S
C1081 C1079 1.395 . S
C1081 C1080 1.379 1_554 S
C1081 H1091 0.930 1_554 S
C1082 O1060 1.264 . S
C1082 O1061 1.254 . S
C1083 Eu1019 2.848 . S
C1083 O1058 1.257 . S
C1083 O1063 1.249 . S
C1083 C1076 1.492 . S
H1084 C1067 0.930 . S
H1085 C1068 0.930 . S
H1086 C1069 0.930 . S
H1087 C1070 0.930 . S
H1088 C1077 0.930 . S
H1089 C1079 0.930 . S
H1090 C1080 0.930 . S
H1091 C1081 0.930 1_556 S
Eu1092 N1123 2.657 . S
Eu1092 N1130 2.609 . S
Eu1092 O1136 2.558 . S
Eu1092 O1137 2.612 . S
Eu1092 O1139 2.339 . S
Eu1092 O1140 2.563 . S
Eu1092 O1141 2.419 . S
Eu1092 O1143 2.380 . S
Eu1092 O1144 2.432 . S
Eu1092 C1156 2.871 . S
C1093 C1096 1.429 . S
C1093 C1097 1.411 . S
C1093 N1100 1.377 . S
C1094 C1096 1.420 . S
C1094 C1098 1.423 . S
C1094 C1106 1.392 . S
C1095 C1097 1.420 . S
C1095 C1098 1.351 . S
C1095 H1118 0.931 . S
C1096 C1093 1.429 . S
C1096 C1094 1.420 . S
C1096 N1104 1.362 . S
C1097 C1093 1.411 . S
C1097 C1095 1.420 . S
C1097 C1102 1.395 . S
C1098 C1094 1.423 . S
C1098 C1095 1.351 . S
C1098 H1110 0.930 . S
C1099 C1101 1.400 . S
C1099 C1102 1.386 . S
C1099 H1111 0.930 . S
N1100 C1093 1.377 . S
N1100 C1101 1.321 . S
N1100 Eu1103 2.609 . S
C1101 C1099 1.400 . S
C1101 N1100 1.321 . S
C1101 H1108 0.930 . S
C1102 C1097 1.395 . S
C1102 C1099 1.386 . S
C1102 H1121 0.930 . S
Eu1103 N1100 2.609 . S
Eu1103 N1104 2.657 . S
Eu1103 O1137 2.380 . S
Eu1103 O1138 2.432 . S
Eu1103 O1142 2.558 . S
Eu1103 O1143 2.612 . S
Eu1103 O1145 2.339 . S
Eu1103 O1146 2.563 . S
Eu1103 O1147 2.419 . S
Eu1103 C1167 2.848 . S
N1104 C1096 1.362 . S
N1104 Eu1103 2.657 . S
N1104 C1105 1.334 . S
C1105 N1104 1.334 . S
C1105 C1107 1.413 . S
C1105 H1112 0.929 . S
C1106 C1094 1.392 . S
C1106 C1107 1.367 . S
C1106 H1114 0.930 . S
C1107 C1105 1.413 . S
C1107 C1106 1.367 . S
C1107 H1109 0.930 . S
H1108 C1101 0.930 . S
H1109 C1107 0.930 . S
H1110 C1098 0.930 . S
H1111 C1099 0.930 . S
H1112 C1105 0.929 . S
H1113 C1127 0.930 . S
H1114 C1106 0.930 . S
H1115 C1133 0.930 . S
H1116 C1124 0.929 . S
H1117 C1131 0.930 . S
H1118 C1095 0.931 . S
H1119 C1125 0.930 . S
H1120 C1158 0.930 . S
H1121 C1102 0.930 . S
H1122 C1157 0.931 . S
N1123 Eu1092 2.657 . S
N1123 C1124 1.334 . S
N1123 C1128 1.362 . S
C1124 H1116 0.929 . S
C1124 N1123 1.334 . S
C1124 C1127 1.413 . S
C1125 H1119 0.930 . S
C1125 C1126 1.392 . S
C1125 C1127 1.367 . S
C1126 C1125 1.392 . S
C1126 C1128 1.420 . S
C1126 C1158 1.423 . S
C1127 H1113 0.930 . S
C1127 C1124 1.413 . S
C1127 C1125 1.367 . S
C1128 N1123 1.362 . S
C1128 C1126 1.420 . S
C1128 C1132 1.429 . S
H1129 C1134 0.930 . S
N1130 Eu1092 2.609 . S
N1130 C1132 1.377 . S
N1130 C1133 1.321 . S
C1131 H1117 0.930 . S
C1131 C1133 1.400 . S
C1131 C1134 1.386 . S
C1132 C1128 1.429 . S
C1132 N1130 1.377 . S
C1132 C1135 1.411 . S
C1133 H1115 0.930 . S
C1133 N1130 1.321 . S
C1133 C1131 1.400 . S
C1134 H1129 0.930 . S
C1134 C1131 1.386 . S
C1134 C1135 1.395 . S
C1135 C1132 1.411 . S
C1135 C1134 1.395 . S
C1135 C1157 1.420 . S
O1136 Eu1092 2.558 . S
O1136 C1156 1.265 . S
O1137 Eu1092 2.612 . S
O1137 Eu1103 2.380 . S
O1137 C1148 1.276 . S
O1138 Eu1103 2.432 . S
O1138 C1155 1.264 . S
O1139 Eu1092 2.339 . S
O1139 C1155 1.254 . S
O1140 Eu1092 2.563 . S
O1140 C1148 1.235 . S
O1141 Eu1092 2.419 . S
O1141 C1156 1.264 . S
O1142 Eu1103 2.558 . S
O1142 C1167 1.257 . S
O1143 Eu1092 2.380 . S
O1143 Eu1103 2.612 . S
O1143 C1159 1.276 . S
O1144 Eu1092 2.432 . S
O1144 C1166 1.264 . S
O1145 Eu1103 2.339 . S
O1145 C1166 1.254 . S
O1146 Eu1103 2.563 . S
O1146 C1159 1.235 . S
O1147 Eu1103 2.419 . S
O1147 C1167 1.249 . S
C1148 O1137 1.276 . S
C1148 O1140 1.235 . S
C1149 C1151 1.393 . S
C1149 C1153 1.395 . S
C1149 C1156 1.468 1_455 S
C1150 C1151 1.392 . S
C1150 C1152 1.386 . S
C1151 C1149 1.393 . S
C1151 C1150 1.392 . S
C1151 H1168 0.930 . S
C1152 C1150 1.386 . S
C1152 C1154 1.395 . S
C1152 H1169 0.930 . S
C1153 C1149 1.395 . S
C1153 C1154 1.379 . S
C1153 H1170 0.930 . S
C1154 C1152 1.395 . S
C1154 C1153 1.379 . S
C1154 H1171 0.930 . S
C1155 O1138 1.264 . S
C1155 O1139 1.254 . S
C1156 Eu1092 2.871 . S
C1156 O1136 1.265 . S
C1156 O1141 1.264 . S
C1156 C1149 1.468 1_655 S
C1157 H1122 0.931 . S
C1157 C1135 1.420 . S
C1157 C1158 1.351 . S
C1158 H1120 0.930 . S
C1158 C1126 1.423 . S
C1158 C1157 1.351 . S
C1159 O1143 1.276 . S
C1159 O1146 1.235 . S
C1160 C1161 1.393 . S
C1160 C1164 1.395 . S
C1160 C1167 1.492 . S
C1161 C1160 1.393 . S
C1161 C1162 1.392 . S
C1161 H1172 0.930 . S
C1162 C1161 1.392 . S
C1162 C1163 1.386 . S
C1163 C1162 1.386 . S
C1163 C1165 1.395 . S
C1163 H1173 0.930 . S
C1164 C1160 1.395 . S
C1164 C1165 1.379 . S
C1164 H1174 0.930 . S
C1165 C1163 1.395 . S
C1165 C1164 1.379 . S
C1165 H1175 0.930 . S
C1166 O1144 1.264 . S
C1166 O1145 1.254 . S
C1167 Eu1103 2.848 . S
C1167 O1142 1.257 . S
C1167 O1147 1.249 . S
C1167 C1160 1.492 . S
H1168 C1151 0.930 . S
H1169 C1152 0.930 . S
H1170 C1153 0.930 . S
H1171 C1154 0.930 . S
H1172 C1161 0.930 . S
H1173 C1163 0.930 . S
H1174 C1164 0.930 . S
H1175 C1165 0.930 . S
Eu1176 N1207 2.657 . S
Eu1176 N1214 2.609 . S
Eu1176 O1220 2.558 . S
Eu1176 O1221 2.612 . S
Eu1176 O1223 2.339 . S
Eu1176 O1224 2.563 . S
Eu1176 O1225 2.419 . S
Eu1176 O1227 2.380 . S
Eu1176 O1228 2.432 . S
Eu1176 C1240 2.848 . S
C1177 C1180 1.429 . S
C1177 C1181 1.411 1_455 S
C1177 N1184 1.377 . S
C1178 C1180 1.420 1_655 S
C1178 C1182 1.423 . S
C1178 C1190 1.392 . S
C1179 C1181 1.420 . S
C1179 C1182 1.351 . S
C1179 H1202 0.931 . S
C1180 C1177 1.429 . S
C1180 C1178 1.420 1_455 S
C1180 N1188 1.362 . S
C1181 C1177 1.411 1_655 S
C1181 C1179 1.420 . S
C1181 C1186 1.395 . S
C1182 C1178 1.423 . S
C1182 C1179 1.351 . S
C1182 H1194 0.930 . S
C1183 C1185 1.400 . S
C1183 C1186 1.386 1_455 S
C1183 H1195 0.930 . S
N1184 C1177 1.377 . S
N1184 C1185 1.321 . S
N1184 Eu1187 2.609 . S
C1185 C1183 1.400 . S
C1185 N1184 1.321 . S
C1185 H1192 0.930 . S
C1186 C1181 1.395 . S
C1186 C1183 1.386 1_655 S
C1186 H1205 0.930 . S
Eu1187 N1184 2.609 . S
Eu1187 N1188 2.657 . S
Eu1187 O1221 2.380 . S
Eu1187 O1222 2.432 . S
Eu1187 O1226 2.558 . S
Eu1187 O1227 2.612 . S
Eu1187 O1229 2.339 . S
Eu1187 O1230 2.563 . S
Eu1187 O1231 2.419 . S
Eu1187 C1251 2.848 . S
N1188 C1180 1.362 . S
N1188 Eu1187 2.657 . S
N1188 C1189 1.334 . S
C1189 N1188 1.334 . S
C1189 C1191 1.413 1_455 S
C1189 H1196 0.929 . S
C1190 C1178 1.392 . S
C1190 C1191 1.367 . S
C1190 H1198 0.930 . S
C1191 C1189 1.413 1_655 S
C1191 C1190 1.367 . S
C1191 H1193 0.930 . S
H1192 C1185 0.930 . S
H1193 C1191 0.930 . S
H1194 C1182 0.930 . S
H1195 C1183 0.930 . S
H1196 C1189 0.929 . S
H1197 C1211 0.930 . S
H1198 C1190 0.930 . S
H1199 C1217 0.930 . S
H1200 C1208 0.929 . S
H1201 C1215 0.930 . S
H1202 C1179 0.931 . S
H1203 C1209 0.930 . S
H1204 C1242 0.930 . S
H1205 C1186 0.930 . S
H1206 C1241 0.931 . S
N1207 Eu1176 2.657 . S
N1207 C1208 1.334 . S
N1207 C1212 1.362 . S
C1208 H1200 0.929 . S
C1208 N1207 1.334 . S
C1208 C1211 1.413 . S
C1209 H1203 0.930 . S
C1209 C1210 1.392 . S
C1209 C1211 1.367 . S
C1210 C1209 1.392 . S
C1210 C1212 1.420 . S
C1210 C1242 1.423 . S
C1211 H1197 0.930 . S
C1211 C1208 1.413 . S
C1211 C1209 1.367 . S
C1212 N1207 1.362 . S
C1212 C1210 1.420 . S
C1212 C1216 1.429 . S
H1213 C1218 0.930 . S
N1214 Eu1176 2.609 . S
N1214 C1216 1.377 . S
N1214 C1217 1.321 . S
C1215 H1201 0.930 . S
C1215 C1217 1.400 . S
C1215 C1218 1.386 . S
C1216 C1212 1.429 . S
C1216 N1214 1.377 . S
C1216 C1219 1.411 . S
C1217 H1199 0.930 . S
C1217 N1214 1.321 . S
C1217 C1215 1.400 . S
C1218 H1213 0.930 . S
C1218 C1215 1.386 . S
C1218 C1219 1.395 . S
C1219 C1216 1.411 . S
C1219 C1218 1.395 . S
C1219 C1241 1.420 . S
O1220 Eu1176 2.558 . S
O1220 C1240 1.257 . S
O1221 Eu1176 2.612 . S
O1221 Eu1187 2.380 . S
O1221 C1232 1.276 . S
O1222 Eu1187 2.432 . S
O1222 C1239 1.264 . S
O1223 Eu1176 2.339 . S
O1223 C1239 1.254 . S
O1224 Eu1176 2.563 . S
O1224 C1232 1.235 . S
O1225 Eu1176 2.419 . S
O1225 C1240 1.249 . S
O1226 Eu1187 2.558 . S
O1226 C1251 1.257 . S
O1227 Eu1176 2.380 . S
O1227 Eu1187 2.612 . S
O1227 C1243 1.276 . S
O1228 Eu1176 2.432 . S
O1228 C1250 1.264 . S
O1229 Eu1187 2.339 . S
O1229 C1250 1.254 . S
O1230 Eu1187 2.563 . S
O1230 C1243 1.235 . S
O1231 Eu1187 2.419 . S
O1231 C1251 1.249 . S
C1232 O1221 1.276 . S
C1232 O1224 1.235 . S
C1233 C1235 1.393 . S
C1233 C1237 1.395 . S
C1233 C1240 1.492 . S
C1234 C1235 1.392 1_655 S
C1234 C1236 1.386 1_655 S
C1235 C1233 1.393 . S
C1235 C1234 1.392 1_455 S
C1235 H1252 0.930 . S
C1236 C1234 1.386 1_455 S
C1236 C1238 1.395 . S
C1236 H1253 0.930 1_455 S
C1237 C1233 1.395 . S
C1237 C1238 1.379 . S
C1237 H1254 0.930 . S
C1238 C1236 1.395 . S
C1238 C1237 1.379 . S
C1238 H1255 0.930 . S
C1239 O1222 1.264 . S
C1239 O1223 1.254 . S
C1240 Eu1176 2.848 . S
C1240 O1220 1.257 . S
C1240 O1225 1.249 . S
C1240 C1233 1.492 . S
C1241 H1206 0.931 . S
C1241 C1219 1.420 . S
C1241 C1242 1.351 . S
C1242 H1204 0.930 . S
C1242 C1210 1.423 . S
C1242 C1241 1.351 . S
C1243 O1227 1.276 . S
C1243 O1230 1.235 . S
C1244 C1245 1.393 . S
C1244 C1248 1.395 . S
C1244 C1251 1.492 . S
C1245 C1244 1.393 . S
C1245 C1246 1.392 . S
C1245 H1256 0.930 . S
C1246 C1245 1.392 . S
C1246 C1247 1.386 . S
C1247 C1246 1.386 . S
C1247 C1249 1.395 . S
C1247 H1257 0.930 . S
C1248 C1244 1.395 . S
C1248 C1249 1.379 . S
C1248 H1258 0.930 . S
C1249 C1247 1.395 . S
C1249 C1248 1.379 . S
C1249 H1259 0.930 . S
C1250 O1228 1.264 . S
C1250 O1229 1.254 . S
C1251 Eu1187 2.848 . S
C1251 O1226 1.257 . S
C1251 O1231 1.249 . S
C1251 C1244 1.492 . S
H1252 C1235 0.930 . S
H1253 C1236 0.930 1_655 S
H1254 C1237 0.930 . S
H1255 C1238 0.930 . S
H1256 C1245 0.930 . S
H1257 C1247 0.930 . S
H1258 C1248 0.930 . S
H1259 C1249 0.930 . S
Eu1260 N1291 2.657 . S
Eu1260 N1298 2.609 . S
Eu1260 O1304 2.558 . S
Eu1260 O1305 2.612 . S
Eu1260 O1307 2.339 . S
Eu1260 O1308 2.563 . S
Eu1260 O1309 2.419 . S
Eu1260 O1311 2.380 . S
Eu1260 O1312 2.432 . S
Eu1260 C1324 2.848 . S
C1261 C1264 1.429 . S
C1261 C1265 1.411 . S
C1261 N1268 1.377 . S
C1262 C1264 1.420 1_455 S
C1262 C1266 1.423 . S
C1262 C1274 1.392 . S
C1263 C1265 1.420 1_455 S
C1263 C1266 1.351 . S
C1263 H1286 0.931 . S
C1264 C1261 1.429 . S
C1264 C1262 1.420 1_655 S
C1264 N1272 1.362 . S
C1265 C1261 1.411 . S
C1265 C1263 1.420 1_655 S
C1265 C1270 1.395 . S
C1266 C1262 1.423 . S
C1266 C1263 1.351 . S
C1266 H1278 0.930 . S
C1267 C1269 1.400 . S
C1267 C1270 1.386 . S
C1267 H1279 0.930 . S
N1268 C1261 1.377 . S
N1268 C1269 1.321 . S
N1268 Eu1271 2.609 . S
C1269 C1267 1.400 . S
C1269 N1268 1.321 . S
C1269 H1276 0.930 . S
C1270 C1265 1.395 . S
C1270 C1267 1.386 . S
C1270 H1289 0.930 . S
Eu1271 N1268 2.609 . S
Eu1271 N1272 2.657 . S
Eu1271 O1305 2.380 . S
Eu1271 O1306 2.432 . S
Eu1271 O1310 2.558 . S
Eu1271 O1311 2.612 . S
Eu1271 O1313 2.339 . S
Eu1271 O1314 2.563 . S
Eu1271 O1315 2.419 . S
Eu1271 C1335 2.848 . S
N1272 C1264 1.362 . S
N1272 Eu1271 2.657 . S
N1272 C1273 1.334 . S
C1273 N1272 1.334 . S
C1273 C1275 1.413 . S
C1273 H1280 0.929 . S
C1274 C1262 1.392 . S
C1274 C1275 1.367 1_455 S
C1274 H1282 0.930 . S
C1275 C1273 1.413 . S
C1275 C1274 1.367 1_655 S
C1275 H1277 0.930 1_655 S
H1276 C1269 0.930 . S
H1277 C1275 0.930 1_455 S
H1278 C1266 0.930 . S
H1279 C1267 0.930 . S
H1280 C1273 0.929 . S
H1281 C1295 0.930 . S
H1282 C1274 0.930 . S
H1283 C1301 0.930 . S
H1284 C1292 0.929 . S
H1285 C1299 0.930 . S
H1286 C1263 0.931 . S
H1287 C1293 0.930 . S
H1288 C1326 0.930 . S
H1289 C1270 0.930 . S
H1290 C1325 0.931 . S
N1291 Eu1260 2.657 . S
N1291 C1292 1.334 . S
N1291 C1296 1.362 . S
C1292 H1284 0.929 . S
C1292 N1291 1.334 . S
C1292 C1295 1.413 . S
C1293 H1287 0.930 . S
C1293 C1294 1.392 . S
C1293 C1295 1.367 . S
C1294 C1293 1.392 . S
C1294 C1296 1.420 . S
C1294 C1326 1.423 . S
C1295 H1281 0.930 . S
C1295 C1292 1.413 . S
C1295 C1293 1.367 . S
C1296 N1291 1.362 . S
C1296 C1294 1.420 . S
C1296 C1300 1.429 . S
H1297 C1302 0.930 . S
N1298 Eu1260 2.609 . S
N1298 C1300 1.377 . S
N1298 C1301 1.321 . S
C1299 H1285 0.930 . S
C1299 C1301 1.400 . S
C1299 C1302 1.386 . S
C1300 C1296 1.429 . S
C1300 N1298 1.377 . S
C1300 C1303 1.411 . S
C1301 H1283 0.930 . S
C1301 N1298 1.321 . S
C1301 C1299 1.400 . S
C1302 H1297 0.930 . S
C1302 C1299 1.386 . S
C1302 C1303 1.395 . S
C1303 C1300 1.411 . S
C1303 C1302 1.395 . S
C1303 C1325 1.420 . S
O1304 Eu1260 2.558 . S
O1304 C1324 1.257 . S
O1305 Eu1260 2.612 . S
O1305 Eu1271 2.380 . S
O1305 C1316 1.276 . S
O1306 Eu1271 2.432 . S
O1306 C1323 1.264 . S
O1307 Eu1260 2.339 . S
O1307 C1323 1.254 . S
O1308 Eu1260 2.563 . S
O1308 C1316 1.235 . S
O1309 Eu1260 2.419 . S
O1309 C1324 1.249 . S
O1310 Eu1271 2.558 . S
O1310 C1335 1.257 . S
O1311 Eu1260 2.380 . S
O1311 Eu1271 2.612 . S
O1311 C1327 1.276 . S
O1312 Eu1260 2.432 . S
O1312 C1334 1.264 . S
O1313 Eu1271 2.339 . S
O1313 C1334 1.254 . S
O1314 Eu1271 2.563 . S
O1314 C1327 1.235 . S
O1315 Eu1271 2.419 . S
O1315 C1335 1.249 . S
C1316 O1305 1.276 . S
C1316 O1308 1.235 . S
C1317 C1319 1.393 . S
C1317 C1321 1.395 . S
C1317 C1324 1.492 . S
C1318 C1319 1.392 . S
C1318 C1320 1.386 . S
C1319 C1317 1.393 . S
C1319 C1318 1.392 . S
C1319 H1336 0.930 . S
C1320 C1318 1.386 . S
C1320 C1322 1.395 . S
C1320 H1337 0.930 . S
C1321 C1317 1.395 . S
C1321 C1322 1.379 . S
C1321 H1338 0.930 . S
C1322 C1320 1.395 . S
C1322 C1321 1.379 . S
C1322 H1339 0.930 . S
C1323 O1306 1.264 . S
C1323 O1307 1.254 . S
C1324 Eu1260 2.848 . S
C1324 O1304 1.257 . S
C1324 O1309 1.249 . S
C1324 C1317 1.492 . S
C1325 H1290 0.931 . S
C1325 C1303 1.420 . S
C1325 C1326 1.351 . S
C1326 H1288 0.930 . S
C1326 C1294 1.423 . S
C1326 C1325 1.351 . S
C1327 O1311 1.276 . S
C1327 O1314 1.235 . S
C1328 C1329 1.393 . S
C1328 C1332 1.395 . S
C1328 C1335 1.492 1_455 S
C1329 C1328 1.393 . S
C1329 C1330 1.392 . S
C1329 H1340 0.930 . S
C1330 C1329 1.392 . S
C1330 C1331 1.386 . S
C1331 C1330 1.386 . S
C1331 C1333 1.395 . S
C1331 H1341 0.930 . S
C1332 C1328 1.395 . S
C1332 C1333 1.379 . S
C1332 H1342 0.930 . S
C1333 C1331 1.395 . S
C1333 C1332 1.379 . S
C1333 H1343 0.930 . S
C1334 O1312 1.264 . S
C1334 O1313 1.254 . S
C1335 Eu1271 2.848 . S
C1335 O1310 1.257 . S
C1335 O1315 1.249 . S
C1335 C1328 1.492 1_655 S
H1336 C1319 0.930 . S
H1337 C1320 0.930 . S
H1338 C1321 0.930 . S
H1339 C1322 0.930 . S
H1340 C1329 0.930 . S
H1341 C1331 0.930 . S
H1342 C1332 0.930 . S
H1343 C1333 0.930 . S
Eu1344 N1375 2.657 . S
Eu1344 N1382 2.609 . S
Eu1344 O1388 2.558 . S
Eu1344 O1389 2.612 . S
Eu1344 O1391 2.339 . S
Eu1344 O1392 2.563 . S
Eu1344 O1393 2.419 . S
Eu1344 O1395 2.380 . S
Eu1344 O1396 2.432 . S
Eu1344 C1408 2.848 . S
C1345 C1348 1.429 . S
C1345 C1349 1.411 . S
C1345 N1352 1.377 . S
C1346 C1348 1.420 . S
C1346 C1350 1.423 1_556 S
C1346 C1358 1.392 . S
C1347 C1349 1.420 . S
C1347 C1350 1.351 1_556 S
C1347 H1370 0.931 1_556 S
C1348 C1345 1.429 . S
C1348 C1346 1.420 . S
C1348 N1356 1.362 . S
C1349 C1345 1.411 . S
C1349 C1347 1.420 . S
C1349 C1354 1.395 . S
C1350 C1346 1.423 1_554 S
C1350 C1347 1.351 1_554 S
C1350 H1362 0.930 . S
C1351 C1353 1.400 . S
C1351 C1354 1.386 . S
C1351 H1363 0.930 . S
N1352 C1345 1.377 . S
N1352 C1353 1.321 . S
N1352 Eu1355 2.609 . S
C1353 C1351 1.400 . S
C1353 N1352 1.321 . S
C1353 H1360 0.930 . S
C1354 C1349 1.395 . S
C1354 C1351 1.386 . S
C1354 H1373 0.930 . S
Eu1355 N1352 2.609 . S
Eu1355 N1356 2.657 . S
Eu1355 O1389 2.380 . S
Eu1355 O1390 2.432 . S
Eu1355 O1394 2.558 . S
Eu1355 O1395 2.612 . S
Eu1355 O1397 2.339 . S
Eu1355 O1398 2.563 . S
Eu1355 O1399 2.419 . S
Eu1355 C1419 2.848 . S
N1356 C1348 1.362 . S
N1356 Eu1355 2.657 . S
N1356 C1357 1.334 . S
C1357 N1356 1.334 . S
C1357 C1359 1.413 . S
C1357 H1364 0.929 . S
C1358 C1346 1.392 . S
C1358 C1359 1.367 . S
C1358 H1366 0.930 1_556 S
C1359 C1357 1.413 . S
C1359 C1358 1.367 . S
C1359 H1361 0.930 . S
H1360 C1353 0.930 . S
H1361 C1359 0.930 . S
H1362 C1350 0.930 . S
H1363 C1351 0.930 . S
H1364 C1357 0.929 . S
H1365 C1379 0.930 . S
H1366 C1358 0.930 1_554 S
H1367 C1385 0.930 . S
H1368 C1376 0.929 . S
H1369 C1383 0.930 1_455 S
H1370 C1347 0.931 1_554 S
H1371 C1377 0.930 . S
H1372 C1410 0.930 . S
H1373 C1354 0.930 . S
H1374 C1409 0.931 . S
N1375 Eu1344 2.657 . S
N1375 C1376 1.334 . S
N1375 C1380 1.362 . S
C1376 H1368 0.929 . S
C1376 N1375 1.334 . S
C1376 C1379 1.413 . S
C1377 H1371 0.930 . S
C1377 C1378 1.392 . S
C1377 C1379 1.367 . S
C1378 C1377 1.392 . S
C1378 C1380 1.420 . S
C1378 C1410 1.423 . S
C1379 H1365 0.930 . S
C1379 C1376 1.413 . S
C1379 C1377 1.367 . S
C1380 N1375 1.362 . S
C1380 C1378 1.420 . S
C1380 C1384 1.429 . S
H1381 C1386 0.930 . S
N1382 Eu1344 2.609 . S
N1382 C1384 1.377 . S
N1382 C1385 1.321 . S
C1383 H1369 0.930 1_655 S
C1383 C1385 1.400 . S
C1383 C1386 1.386 . S
C1384 C1380 1.429 . S
C1384 N1382 1.377 . S
C1384 C1387 1.411 . S
C1385 H1367 0.930 . S
C1385 N1382 1.321 . S
C1385 C1383 1.400 . S
C1386 H1381 0.930 . S
C1386 C1383 1.386 . S
C1386 C1387 1.395 . S
C1387 C1384 1.411 . S
C1387 C1386 1.395 . S
C1387 C1409 1.420 . S
O1388 Eu1344 2.558 . S
O1388 C1408 1.257 . S
O1389 Eu1344 2.612 . S
O1389 Eu1355 2.380 . S
O1389 C1400 1.276 . S
O1390 Eu1355 2.432 . S
O1390 C1407 1.264 . S
O1391 Eu1344 2.339 . S
O1391 C1407 1.254 . S
O1392 Eu1344 2.563 . S
O1392 C1400 1.235 . S
O1393 Eu1344 2.419 . S
O1393 C1408 1.249 . S
O1394 Eu1355 2.558 . S
O1394 C1419 1.257 . S
O1395 Eu1344 2.380 . S
O1395 Eu1355 2.612 . S
O1395 C1411 1.276 . S
O1396 Eu1344 2.432 . S
O1396 C1418 1.264 . S
O1397 Eu1355 2.339 . S
O1397 C1418 1.254 . S
O1398 Eu1355 2.563 . S
O1398 C1411 1.235 . S
O1399 Eu1355 2.419 . S
O1399 C1419 1.249 . S
C1400 O1389 1.276 . S
C1400 O1392 1.235 . S
C1401 C1403 1.393 . S
C1401 C1405 1.395 . S
C1401 C1408 1.492 . S
C1402 C1403 1.392 . S
C1402 C1404 1.386 . S
C1403 C1401 1.393 . S
C1403 C1402 1.392 . S
C1403 H1420 0.930 . S
C1404 C1402 1.386 . S
C1404 C1406 1.395 . S
C1404 H1421 0.930 . S
C1405 C1401 1.395 . S
C1405 C1406 1.379 . S
C1405 H1422 0.930 . S
C1406 C1404 1.395 . S
C1406 C1405 1.379 . S
C1406 H1423 0.930 1_655 S
C1407 O1390 1.264 . S
C1407 O1391 1.254 . S
C1408 Eu1344 2.848 . S
C1408 O1388 1.257 . S
C1408 O1393 1.249 . S
C1408 C1401 1.492 . S
C1409 H1374 0.931 . S
C1409 C1387 1.420 . S
C1409 C1410 1.351 . S
C1410 H1372 0.930 . S
C1410 C1378 1.423 . S
C1410 C1409 1.351 . S
C1411 O1395 1.276 . S
C1411 O1398 1.235 . S
C1412 C1413 1.393 . S
C1412 C1416 1.395 . S
C1412 C1419 1.492 . S
C1413 C1412 1.393 . S
C1413 C1414 1.392 1_556 S
C1413 H1424 0.930 . S
C1414 C1413 1.392 1_554 S
C1414 C1415 1.386 . S
C1415 C1414 1.386 . S
C1415 C1417 1.395 . S
C1415 H1425 0.930 . S
C1416 C1412 1.395 . S
C1416 C1417 1.379 1_556 S
C1416 H1426 0.930 . S
C1417 C1415 1.395 . S
C1417 C1416 1.379 1_554 S
C1417 H1427 0.930 . S
C1418 O1396 1.264 . S
C1418 O1397 1.254 . S
C1419 Eu1355 2.848 . S
C1419 O1394 1.257 . S
C1419 O1399 1.249 . S
C1419 C1412 1.492 . S
H1420 C1403 0.930 . S
H1421 C1404 0.930 . S
H1422 C1405 0.930 . S
H1423 C1406 0.930 1_455 S
H1424 C1413 0.930 . S
H1425 C1415 0.930 . S
H1426 C1416 0.930 . S
H1427 C1417 0.930 . S
Eu1428 N1459 2.657 . S
Eu1428 N1466 2.609 . S
Eu1428 O1472 2.558 . S
Eu1428 O1473 2.612 . S
Eu1428 O1475 2.339 . S
Eu1428 O1476 2.563 . S
Eu1428 O1477 2.419 . S
Eu1428 O1479 2.380 . S
Eu1428 O1480 2.432 . S
Eu1428 C1492 2.848 . S
C1429 C1432 1.429 . S
C1429 C1433 1.411 . S
C1429 N1436 1.377 . S
C1430 C1432 1.420 . S
C1430 C1434 1.423 . S
C1430 C1442 1.392 . S
C1431 C1433 1.420 . S
C1431 C1434 1.351 . S
C1431 H1454 0.931 . S
C1432 C1429 1.429 . S
C1432 C1430 1.420 . S
C1432 N1440 1.362 . S
C1433 C1429 1.411 . S
C1433 C1431 1.420 . S
C1433 C1438 1.395 . S
C1434 C1430 1.423 . S
C1434 C1431 1.351 . S
C1434 H1446 0.930 . S
C1435 C1437 1.400 . S
C1435 C1438 1.386 . S
C1435 H1447 0.930 . S
N1436 C1429 1.377 . S
N1436 C1437 1.321 . S
N1436 Eu1439 2.609 . S
C1437 C1435 1.400 . S
C1437 N1436 1.321 . S
C1437 H1444 0.930 . S
C1438 C1433 1.395 . S
C1438 C1435 1.386 . S
C1438 H1457 0.930 . S
Eu1439 N1436 2.609 . S
Eu1439 N1440 2.657 . S
Eu1439 O1473 2.380 . S
Eu1439 O1474 2.432 . S
Eu1439 O1478 2.558 . S
Eu1439 O1479 2.612 . S
Eu1439 O1481 2.339 . S
Eu1439 O1482 2.563 . S
Eu1439 O1483 2.419 . S
Eu1439 C1503 2.848 . S
N1440 C1432 1.362 . S
N1440 Eu1439 2.657 . S
N1440 C1441 1.334 . S
C1441 N1440 1.334 . S
C1441 C1443 1.413 . S
C1441 H1448 0.929 . S
C1442 C1430 1.392 . S
C1442 C1443 1.367 . S
C1442 H1450 0.930 . S
C1443 C1441 1.413 . S
C1443 C1442 1.367 . S
C1443 H1445 0.930 . S
H1444 C1437 0.930 . S
H1445 C1443 0.930 . S
H1446 C1434 0.930 . S
H1447 C1435 0.930 . S
H1448 C1441 0.929 . S
H1449 C1463 0.930 . S
H1450 C1442 0.930 . S
H1451 C1469 0.930 . S
H1452 C1460 0.929 . S
H1453 C1467 0.930 . S
H1454 C1431 0.931 . S
H1455 C1461 0.930 . S
H1456 C1494 0.930 . S
H1457 C1438 0.930 . S
H1458 C1493 0.931 . S
N1459 Eu1428 2.657 . S
N1459 C1460 1.334 . S
N1459 C1464 1.362 . S
C1460 H1452 0.929 . S
C1460 N1459 1.334 . S
C1460 C1463 1.413 . S
C1461 H1455 0.930 . S
C1461 C1462 1.392 . S
C1461 C1463 1.367 1_455 S
C1462 C1461 1.392 . S
C1462 C1464 1.420 1_455 S
C1462 C1494 1.423 . S
C1463 H1449 0.930 . S
C1463 C1460 1.413 . S
C1463 C1461 1.367 1_655 S
C1464 N1459 1.362 . S
C1464 C1462 1.420 1_655 S
C1464 C1468 1.429 . S
H1465 C1470 0.930 . S
N1466 Eu1428 2.609 . S
N1466 C1468 1.377 . S
N1466 C1469 1.321 . S
C1467 H1453 0.930 . S
C1467 C1469 1.400 . S
C1467 C1470 1.386 1_655 S
C1468 C1464 1.429 . S
C1468 N1466 1.377 . S
C1468 C1471 1.411 1_655 S
C1469 H1451 0.930 . S
C1469 N1466 1.321 . S
C1469 C1467 1.400 . S
C1470 H1465 0.930 . S
C1470 C1467 1.386 1_455 S
C1470 C1471 1.395 . S
C1471 C1468 1.411 1_455 S
C1471 C1470 1.395 . S
C1471 C1493 1.420 . S
O1472 Eu1428 2.558 . S
O1472 C1492 1.257 . S
O1473 Eu1428 2.612 . S
O1473 Eu1439 2.380 . S
O1473 C1484 1.276 . S
O1474 Eu1439 2.432 . S
O1474 C1491 1.264 . S
O1475 Eu1428 2.339 . S
O1475 C1491 1.254 . S
O1476 Eu1428 2.563 . S
O1476 C1484 1.235 . S
O1477 Eu1428 2.419 . S
O1477 C1492 1.249 . S
O1478 Eu1439 2.558 . S
O1478 C1503 1.257 . S
O1479 Eu1428 2.380 . S
O1479 Eu1439 2.612 . S
O1479 C1495 1.276 . S
O1480 Eu1428 2.432 . S
O1480 C1502 1.264 . S
O1481 Eu1439 2.339 . S
O1481 C1502 1.254 . S
O1482 Eu1439 2.563 . S
O1482 C1495 1.235 . S
O1483 Eu1439 2.419 . S
O1483 C1503 1.249 . S
C1484 O1473 1.276 . S
C1484 O1476 1.235 . S
C1485 C1487 1.393 . S
C1485 C1489 1.395 . S
C1485 C1492 1.492 1_545 S
C1486 C1487 1.392 . S
C1486 C1488 1.386 . S
C1487 C1485 1.393 . S
C1487 C1486 1.392 . S
C1487 H1504 0.930 . S
C1488 C1486 1.386 . S
C1488 C1490 1.395 . S
C1488 H1505 0.930 . S
C1489 C1485 1.395 . S
C1489 C1490 1.379 . S
C1489 H1506 0.930 . S
C1490 C1488 1.395 . S
C1490 C1489 1.379 . S
C1490 H1507 0.930 . S
C1491 O1474 1.264 . S
C1491 O1475 1.254 . S
C1492 Eu1428 2.848 . S
C1492 O1472 1.257 . S
C1492 O1477 1.249 . S
C1492 C1485 1.492 1_565 S
C1493 H1458 0.931 . S
C1493 C1471 1.420 . S
C1493 C1494 1.351 . S
C1494 H1456 0.930 . S
C1494 C1462 1.423 . S
C1494 C1493 1.351 . S
C1495 O1479 1.276 . S
C1495 O1482 1.235 . S
C1496 C1497 1.393 . S
C1496 C1500 1.395 . S
C1496 C1503 1.492 . S
C1497 C1496 1.393 . S
C1497 C1498 1.392 . S
C1497 H1508 0.930 . S
C1498 C1497 1.392 . S
C1498 C1499 1.386 . S
C1499 C1498 1.386 . S
C1499 C1501 1.395 . S
C1499 H1509 0.930 . S
C1500 C1496 1.395 . S
C1500 C1501 1.379 . S
C1500 H1510 0.930 . S
C1501 C1499 1.395 . S
C1501 C1500 1.379 . S
C1501 H1511 0.930 . S
C1502 O1480 1.264 . S
C1502 O1481 1.254 . S
C1503 Eu1439 2.848 . S
C1503 O1478 1.257 . S
C1503 O1483 1.249 . S
C1503 C1496 1.492 . S
H1504 C1487 0.930 . S
H1505 C1488 0.930 . S
H1506 C1489 0.930 . S
H1507 C1490 0.930 . S
H1508 C1497 0.930 . S
H1509 C1499 0.930 . S
H1510 C1500 0.930 . S
H1511 C1501 0.930 . S
Eu1512 N1543 2.657 . S
Eu1512 N1550 2.609 . S
Eu1512 O1556 2.558 . S
Eu1512 O1557 2.612 . S
Eu1512 O1559 2.339 . S
Eu1512 O1560 2.563 . S
Eu1512 O1561 2.419 . S
Eu1512 O1563 2.380 . S
Eu1512 O1564 2.432 . S
Eu1512 C1576 2.848 . S
C1513 C1516 1.429 . S
C1513 C1517 1.411 . S
C1513 N1520 1.377 . S
C1514 C1516 1.420 . S
C1514 C1518 1.423 . S
C1514 C1526 1.392 . S
C1515 C1517 1.420 . S
C1515 C1518 1.351 . S
C1515 H1538 0.931 . S
C1516 C1513 1.429 . S
C1516 C1514 1.420 . S
C1516 N1524 1.362 . S
C1517 C1513 1.411 . S
C1517 C1515 1.420 . S
C1517 C1522 1.395 . S
C1518 C1514 1.423 . S
C1518 C1515 1.351 . S
C1518 H1530 0.930 . S
C1519 C1521 1.400 . S
C1519 C1522 1.386 . S
C1519 H1531 0.930 . S
N1520 C1513 1.377 . S
N1520 C1521 1.321 . S
N1520 Eu1523 2.609 . S
C1521 C1519 1.400 . S
C1521 N1520 1.321 . S
C1521 H1528 0.930 . S
C1522 C1517 1.395 . S
C1522 C1519 1.386 . S
C1522 H1541 0.930 . S
Eu1523 N1520 2.609 . S
Eu1523 N1524 2.657 . S
Eu1523 O1557 2.380 . S
Eu1523 O1558 2.432 . S
Eu1523 O1562 2.558 . S
Eu1523 O1563 2.612 . S
Eu1523 O1565 2.339 . S
Eu1523 O1566 2.563 . S
Eu1523 O1567 2.419 . S
Eu1523 C1587 2.848 . S
N1524 C1516 1.362 . S
N1524 Eu1523 2.657 . S
N1524 C1525 1.334 . S
C1525 N1524 1.334 . S
C1525 C1527 1.413 . S
C1525 H1532 0.929 . S
C1526 C1514 1.392 . S
C1526 C1527 1.367 . S
C1526 H1534 0.930 . S
C1527 C1525 1.413 . S
C1527 C1526 1.367 . S
C1527 H1529 0.930 . S
H1528 C1521 0.930 . S
H1529 C1527 0.930 . S
H1530 C1518 0.930 . S
H1531 C1519 0.930 . S
H1532 C1525 0.929 . S
H1533 C1547 0.930 . S
H1534 C1526 0.930 . S
H1535 C1553 0.930 . S
H1536 C1544 0.929 . S
H1537 C1551 0.930 . S
H1538 C1515 0.931 . S
H1539 C1545 0.930 . S
H1540 C1578 0.930 . S
H1541 C1522 0.930 . S
H1542 C1577 0.931 . S
N1543 Eu1512 2.657 . S
N1543 C1544 1.334 . S
N1543 C1548 1.362 . S
C1544 H1536 0.929 . S
C1544 N1543 1.334 . S
C1544 C1547 1.413 . S
C1545 H1539 0.930 . S
C1545 C1546 1.392 . S
C1545 C1547 1.367 . S
C1546 C1545 1.392 . S
C1546 C1548 1.420 . S
C1546 C1578 1.423 . S
C1547 H1533 0.930 . S
C1547 C1544 1.413 . S
C1547 C1545 1.367 . S
C1548 N1543 1.362 . S
C1548 C1546 1.420 . S
C1548 C1552 1.429 . S
H1549 C1554 0.930 . S
N1550 Eu1512 2.609 . S
N1550 C1552 1.377 . S
N1550 C1553 1.321 . S
C1551 H1537 0.930 . S
C1551 C1553 1.400 . S
C1551 C1554 1.386 . S
C1552 C1548 1.429 . S
C1552 N1550 1.377 . S
C1552 C1555 1.411 . S
C1553 H1535 0.930 . S
C1553 N1550 1.321 . S
C1553 C1551 1.400 . S
C1554 H1549 0.930 . S
C1554 C1551 1.386 . S
C1554 C1555 1.395 . S
C1555 C1552 1.411 . S
C1555 C1554 1.395 . S
C1555 C1577 1.420 . S
O1556 Eu1512 2.558 . S
O1556 C1576 1.257 . S
O1557 Eu1512 2.612 . S
O1557 Eu1523 2.380 . S
O1557 C1568 1.276 . S
O1558 Eu1523 2.432 . S
O1558 C1575 1.264 . S
O1559 Eu1512 2.339 . S
O1559 C1575 1.254 . S
O1560 Eu1512 2.563 . S
O1560 C1568 1.235 . S
O1561 Eu1512 2.419 . S
O1561 C1576 1.249 . S
O1562 Eu1523 2.558 . S
O1562 C1587 1.257 . S
O1563 Eu1512 2.380 . S
O1563 Eu1523 2.612 . S
O1563 C1579 1.276 . S
O1564 Eu1512 2.432 . S
O1564 C1586 1.264 . S
O1565 Eu1523 2.339 . S
O1565 C1586 1.254 . S
O1566 Eu1523 2.563 . S
O1566 C1579 1.235 . S
O1567 Eu1523 2.419 . S
O1567 C1587 1.249 . S
C1568 O1557 1.276 . S
C1568 O1560 1.235 . S
C1569 C1571 1.393 . S
C1569 C1573 1.395 . S
C1569 C1576 1.492 . S
C1570 C1571 1.392 . S
C1570 C1572 1.386 . S
C1571 C1569 1.393 . S
C1571 C1570 1.392 . S
C1571 H1588 0.930 . S
C1572 C1570 1.386 . S
C1572 C1574 1.395 . S
C1572 H1589 0.930 . S
C1573 C1569 1.395 . S
C1573 C1574 1.379 . S
C1573 H1590 0.930 . S
C1574 C1572 1.395 . S
C1574 C1573 1.379 . S
C1574 H1591 0.930 . S
C1575 O1558 1.264 . S
C1575 O1559 1.254 . S
C1576 Eu1512 2.848 . S
C1576 O1556 1.257 . S
C1576 O1561 1.249 . S
C1576 C1569 1.492 . S
C1577 H1542 0.931 . S
C1577 C1555 1.420 . S
C1577 C1578 1.351 . S
C1578 H1540 0.930 . S
C1578 C1546 1.423 . S
C1578 C1577 1.351 . S
C1579 O1563 1.276 . S
C1579 O1566 1.235 . S
C1580 C1581 1.393 . S
C1580 C1584 1.395 . S
C1580 C1587 1.492 . S
C1581 C1580 1.393 . S
C1581 C1582 1.392 . S
C1581 H1592 0.930 . S
C1582 C1581 1.392 . S
C1582 C1583 1.386 . S
C1583 C1582 1.386 . S
C1583 C1585 1.395 . S
C1583 H1593 0.930 . S
C1584 C1580 1.395 . S
C1584 C1585 1.379 . S
C1584 H1594 0.930 . S
C1585 C1583 1.395 . S
C1585 C1584 1.379 . S
C1585 H1595 0.930 . S
C1586 O1564 1.264 . S
C1586 O1565 1.254 . S
C1587 Eu1523 2.848 . S
C1587 O1562 1.257 . S
C1587 O1567 1.249 . S
C1587 C1580 1.492 . S
H1588 C1571 0.930 . S
H1589 C1572 0.930 . S
H1590 C1573 0.930 . S
H1591 C1574 0.930 . S
H1592 C1581 0.930 . S
H1593 C1583 0.930 . S
H1594 C1584 0.930 . S
H1595 C1585 0.930 . S
Eu1596 N1627 2.657 . S
Eu1596 N1634 2.609 1_554 S
Eu1596 O1640 2.558 1_554 S
Eu1596 O1641 2.612 . S
Eu1596 O1643 2.339 . S
Eu1596 O1644 2.563 1_554 S
Eu1596 O1645 2.419 . S
Eu1596 O1647 2.380 . S
Eu1596 O1648 2.432 1_554 S
Eu1596 C1660 2.848 1_554 S
C1597 C1600 1.430 . S
C1597 C1601 1.415 . S
C1597 N1604 1.371 1_655 S
C1598 C1600 1.420 . S
C1598 C1602 1.423 . S
C1598 C1610 1.392 . S
C1599 C1601 1.420 . S
C1599 C1602 1.351 . S
C1599 H1622 0.931 . S
C1600 C1597 1.430 . S
C1600 C1598 1.420 . S
C1600 N1608 1.362 . S
C1601 C1597 1.415 . S
C1601 C1599 1.420 . S
C1601 C1606 1.394 1_655 S
C1602 C1598 1.423 . S
C1602 C1599 1.351 . S
C1602 H1614 0.930 . S
C1603 C1605 1.400 . S
C1603 C1606 1.387 . S
C1603 H1615 0.930 . S
N1604 C1597 1.371 1_455 S
N1604 C1605 1.321 . S
N1604 Eu1607 2.609 . S
C1605 C1603 1.400 . S
C1605 N1604 1.321 . S
C1605 H1612 0.930 . S
C1606 C1601 1.394 1_455 S
C1606 C1603 1.387 . S
C1606 H1625 0.928 1_455 S
Eu1607 N1604 2.609 . S
Eu1607 N1608 2.657 1_455 S
Eu1607 O1641 2.380 . S
Eu1607 O1642 2.432 . S
Eu1607 O1646 2.558 . S
Eu1607 O1647 2.612 . S
Eu1607 O1649 2.339 1_554 S
Eu1607 O1650 2.563 . S
Eu1607 O1651 2.419 1_455 S
Eu1607 C1671 2.848 1_455 S
N1608 C1600 1.362 . S
N1608 Eu1607 2.657 1_655 S
N1608 C1609 1.334 1_554 S
C1609 N1608 1.334 1_556 S
C1609 C1611 1.413 . S
C1609 H1616 0.929 . S
C1610 C1598 1.392 . S
C1610 C1611 1.367 1_554 S
C1610 H1618 0.930 . S
C1611 C1609 1.413 . S
C1611 C1610 1.367 1_556 S
C1611 H1613 0.930 . S
H1612 C1605 0.930 . S
H1613 C1611 0.930 . S
H1614 C1602 0.930 . S
H1615 C1603 0.930 . S
H1616 C1609 0.929 . S
H1617 C1631 0.930 . S
H1618 C1610 0.930 . S
H1619 C1637 0.930 . S
H1620 C1628 0.929 . S
H1621 C1635 0.930 . S
H1622 C1599 0.931 . S
H1623 C1629 0.930 . S
H1624 C1662 0.930 . S
H1625 C1606 0.928 1_655 S
H1626 C1661 0.931 . S
N1627 Eu1596 2.657 . S
N1627 C1628 1.334 . S
N1627 C1632 1.343 1_554 S
C1628 H1620 0.929 . S
C1628 N1627 1.334 . S
C1628 C1631 1.413 . S
C1629 H1623 0.930 . S
C1629 C1630 1.392 . S
C1629 C1631 1.367 . S
C1630 C1629 1.392 . S
C1630 C1632 1.422 1_554 S
C1630 C1662 1.423 1_554 S
C1631 H1617 0.930 . S
C1631 C1628 1.413 . S
C1631 C1629 1.367 . S
C1632 N1627 1.343 1_556 S
C1632 C1630 1.422 1_556 S
C1632 C1636 1.447 . S
H1633 C1638 0.930 . S
N1634 Eu1596 2.609 1_556 S
N1634 C1636 1.377 . S
N1634 C1637 1.321 . S
C1635 H1621 0.930 . S
C1635 C1637 1.400 . S
C1635 C1638 1.386 . S
C1636 C1632 1.447 . S
C1636 N1634 1.377 . S
C1636 C1639 1.411 . S
C1637 H1619 0.930 . S
C1637 N1634 1.321 . S
C1637 C1635 1.400 . S
C1638 H1633 0.930 . S
C1638 C1635 1.386 . S
C1638 C1639 1.395 . S
C1639 C1636 1.411 . S
C1639 C1638 1.395 . S
C1639 C1661 1.420 . S
O1640 Eu1596 2.558 1_556 S
O1640 C1660 1.257 . S
O1641 Eu1596 2.612 . S
O1641 Eu1607 2.380 . S
O1641 C1652 1.276 . S
O1642 Eu1607 2.432 . S
O1642 C1659 1.264 . S
O1643 Eu1596 2.339 . S
O1643 C1659 1.254 . S
O1644 Eu1596 2.563 1_556 S
O1644 C1652 1.235 1_556 S
O1645 Eu1596 2.419 . S
O1645 C1660 1.249 1_554 S
O1646 Eu1607 2.558 . S
O1646 C1671 1.257 1_455 S
O1647 Eu1596 2.380 . S
O1647 Eu1607 2.612 . S
O1647 C1663 1.276 . S
O1648 Eu1596 2.432 1_556 S
O1648 C1670 1.264 . S
O1649 Eu1607 2.339 1_556 S
O1649 C1670 1.254 . S
O1650 Eu1607 2.563 . S
O1650 C1663 1.235 . S
O1651 Eu1607 2.419 1_655 S
O1651 C1671 1.249 . S
C1652 O1641 1.276 . S
C1652 O1644 1.235 1_554 S
C1653 C1655 1.393 . S
C1653 C1657 1.395 . S
C1653 C1660 1.492 . S
C1654 C1655 1.392 . S
C1654 C1656 1.386 . S
C1655 C1653 1.393 . S
C1655 C1654 1.392 . S
C1655 H1672 0.930 1_556 S
C1656 C1654 1.386 . S
C1656 C1658 1.395 . S
C1656 H1673 0.930 . S
C1657 C1653 1.395 . S
C1657 C1658 1.379 . S
C1657 H1674 0.930 . S
C1658 C1656 1.395 . S
C1658 C1657 1.379 . S
C1658 H1675 0.930 . S
C1659 O1642 1.264 . S
C1659 O1643 1.254 . S
C1660 Eu1596 2.848 1_556 S
C1660 O1640 1.257 . S
C1660 O1645 1.249 1_556 S
C1660 C1653 1.492 . S
C1661 H1626 0.931 . S
C1661 C1639 1.420 . S
C1661 C1662 1.351 . S
C1662 H1624 0.930 . S
C1662 C1630 1.423 1_556 S
C1662 C1661 1.351 . S
C1663 O1647 1.276 . S
C1663 O1650 1.235 . S
C1664 C1665 1.393 . S
C1664 C1668 1.395 . S
C1664 C1671 1.492 . S
C1665 C1664 1.393 . S
C1665 C1666 1.392 . S
C1665 H1676 0.930 . S
C1666 C1665 1.392 . S
C1666 C1667 1.386 . S
C1667 C1666 1.386 . S
C1667 C1669 1.395 . S
C1667 H1677 0.930 . S
C1668 C1664 1.395 . S
C1668 C1669 1.379 . S
C1668 H1678 0.930 . S
C1669 C1667 1.395 . S
C1669 C1668 1.379 . S
C1669 H1679 0.930 . S
C1670 O1648 1.264 . S
C1670 O1649 1.254 . S
C1671 Eu1607 2.848 1_655 S
C1671 O1646 1.257 1_655 S
C1671 O1651 1.249 . S
C1671 C1664 1.492 . S
H1672 C1655 0.930 1_554 S
H1673 C1656 0.930 . S
H1674 C1657 0.930 . S
H1675 C1658 0.930 . S
H1676 C1665 0.930 . S
H1677 C1667 0.930 . S
H1678 C1668 0.930 . S
H1679 C1669 0.930 . S
C109 C392 2.782 . S
C65 C483 3.169 . S
C75 C560 2.170 . S
C658 C84 1.100 . S
C25 C742 3.131 . S
C814 C28 1.323 . S
C903 C47 2.989 . S
C9 C980 2.766 . S
C399 C233 3.127 . S
C249 C490 1.441 . S
C567 C275 1.726 . S
C644 C173 2.052 . S
C224 C728 2.910 . S
C830 C243 1.932 . S
C910 C266 0.255 . S
C987 C179 2.603 . S
C406 C163 2.468 . S
C289 C1071 2.384 1_556 S
C1159 C333 3.339 . S
C1232 C308 1.245 . S
C123 C994 4.154 . S
C126 C574 2.424 . S
C327 C1323 2.682 . S
C1400 C299 1.204 . S
C403 C67 2.859 . S
C1418 C98 3.021 . S
C89 C571 2.221 . S
C79 C1318 1.346 . S
C730 C11 3.169 . S
C51 C1162 1.436 . S
C914 C33 3.010 1_565 S
C1495 C14 2.665 . S
C410 C140 3.064 . S
C1402 C319 1.391 . S
C112 C578 1.556 . S
C285 C1327 2.060 . S
C149 C739 3.038 . S
C1155 C313 1.880 . S
C121 C898 0.369 . S
C291 C1502 2.656 . S
C182 C394 2.526 1_554 S
C168 C1082 2.230 . S
C263 C812 3.403 . S
C247 C1243 1.078 . S
C1486 C277 4.053 . S
C219 C562 2.544 . S
C662 C257 2.732 . S
C487 C201 1.126 . S
C81 C1568 2.783 . S
C1407 C93 3.169 . S
C103 C1652 2.170 . S
C56 C1330 1.100 . S
C53 C1078 3.132 . S
C1150 C0 1.323 . S
C1239 C19 2.988 1_455 S
C1484 C37 2.767 . S
C1575 C261 3.127 . S
C193 C1414 1.442 1_556 S
C1659 C205 1.726 . S
C1316 C215 2.053 . S
C1064 C252 2.910 . S
C187 C1166 1.932 . S
C1246 C196 0.256 . S
C221 C1491 2.604 . S
C1582 C317 2.471 . S
C135 C735 2.384 . S
C823 C151 3.339 . S
C896 C154 1.244 . S
C1498 C305 4.152 . S
C280 C1666 2.423 . S
C651 C145 2.681 . S
C476 C117 1.204 . S
C95 C1579 2.859 . S
C494 C70 3.021 . S
C61 C1663 2.222 . S
C107 C646 1.346 . S
C39 C1066 3.168 1_556 S
C826 C23 1.437 . S
C5 C1250 3.010 . S
C42 C991 2.666 . S
C1586 C322 3.063 . S
C165 C478 1.391 . S
C1670 C294 1.558 . S
C131 C655 2.059 . S
C331 C1075 3.038 . S
C819 C159 1.881 . S
C303 C1234 0.366 . S
C998 C137 2.656 . S
C1570 C238 2.526 . S
C746 C210 2.231 1_445 S
C235 C1148 3.403 . S
C907 C191 1.078 . S
C207 C982 4.052 . S
C177 C1654 2.544 1_554 S
C1334 C229 2.733 . S
C1411 C271 1.125 . S
