# Generated by pormake.
# Topology gar, (4,6)-cn, num edge types: 1
# Building blocks:
#     Node 0, Type 0, BuildingBlock: QUQFOY_clean_sbu_3, # of connection points: 4
#     Node 1, Type 0, BuildingBlock: QUQFOY_clean_sbu_3, # of connection points: 4
#     Node 2, Type 0, BuildingBlock: QUQFOY_clean_sbu_3, # of connection points: 4
#     Node 3, Type 0, BuildingBlock: QUQFOY_clean_sbu_3, # of connection points: 4
#     Node 4, Type 0, BuildingBlock: QUQFOY_clean_sbu_3, # of connection points: 4
#     Node 5, Type 0, BuildingBlock: QUQFOY_clean_sbu_3, # of connection points: 4
#     Node 6, Type 0, BuildingBlock: QUQFOY_clean_sbu_3, # of connection points: 4
#     Node 7, Type 0, BuildingBlock: QUQFOY_clean_sbu_3, # of connection points: 4
#     Node 8, Type 0, BuildingBlock: QUQFOY_clean_sbu_3, # of connection points: 4
#     Node 9, Type 0, BuildingBlock: QUQFOY_clean_sbu_3, # of connection points: 4
#     Node 10, Type 0, BuildingBlock: QUQFOY_clean_sbu_3, # of connection points: 4
#     Node 11, Type 0, BuildingBlock: QUQFOY_clean_sbu_3, # of connection points: 4
#     Node 12, Type 0, BuildingBlock: QUQFOY_clean_sbu_3, # of connection points: 4
#     Node 13, Type 0, BuildingBlock: QUQFOY_clean_sbu_3, # of connection points: 4
#     Node 14, Type 0, BuildingBlock: QUQFOY_clean_sbu_3, # of connection points: 4
#     Node 15, Type 0, BuildingBlock: QUQFOY_clean_sbu_3, # of connection points: 4
#     Node 16, Type 0, BuildingBlock: QUQFOY_clean_sbu_3, # of connection points: 4
#     Node 17, Type 0, BuildingBlock: QUQFOY_clean_sbu_3, # of connection points: 4
#     Node 18, Type 0, BuildingBlock: QUQFOY_clean_sbu_3, # of connection points: 4
#     Node 19, Type 0, BuildingBlock: QUQFOY_clean_sbu_3, # of connection points: 4
#     Node 20, Type 0, BuildingBlock: QUQFOY_clean_sbu_3, # of connection points: 4
#     Node 21, Type 0, BuildingBlock: QUQFOY_clean_sbu_3, # of connection points: 4
#     Node 22, Type 0, BuildingBlock: QUQFOY_clean_sbu_3, # of connection points: 4
#     Node 23, Type 0, BuildingBlock: QUQFOY_clean_sbu_3, # of connection points: 4
#     Node 24, Type 1, BuildingBlock: CUKXOW_clean_sbu_0, # of connection points: 6
#     Node 25, Type 1, BuildingBlock: CUKXOW_clean_sbu_0, # of connection points: 6
#     Node 26, Type 1, BuildingBlock: CUKXOW_clean_sbu_0, # of connection points: 6
#     Node 27, Type 1, BuildingBlock: CUKXOW_clean_sbu_0, # of connection points: 6
#     Node 28, Type 1, BuildingBlock: CUKXOW_clean_sbu_0, # of connection points: 6
#     Node 29, Type 1, BuildingBlock: CUKXOW_clean_sbu_0, # of connection points: 6
#     Node 30, Type 1, BuildingBlock: CUKXOW_clean_sbu_0, # of connection points: 6
#     Node 31, Type 1, BuildingBlock: CUKXOW_clean_sbu_0, # of connection points: 6
#     Node 32, Type 1, BuildingBlock: CUKXOW_clean_sbu_0, # of connection points: 6
#     Node 33, Type 1, BuildingBlock: CUKXOW_clean_sbu_0, # of connection points: 6
#     Node 34, Type 1, BuildingBlock: CUKXOW_clean_sbu_0, # of connection points: 6
#     Node 35, Type 1, BuildingBlock: CUKXOW_clean_sbu_0, # of connection points: 6
#     Node 36, Type 1, BuildingBlock: CUKXOW_clean_sbu_0, # of connection points: 6
#     Node 37, Type 1, BuildingBlock: CUKXOW_clean_sbu_0, # of connection points: 6
#     Node 38, Type 1, BuildingBlock: CUKXOW_clean_sbu_0, # of connection points: 6
#     Node 39, Type 1, BuildingBlock: CUKXOW_clean_sbu_0, # of connection points: 6
#     Edge 40, Type (0, 1), BuildingBlock: KIFKEQ_clean_linker_1, # of connection points: 2
#     Edge 41, Type (0, 1), BuildingBlock: KIFKEQ_clean_linker_1, # of connection points: 2
#     Edge 42, Type (0, 1), BuildingBlock: KIFKEQ_clean_linker_1, # of connection points: 2
#     Edge 43, Type (0, 1), BuildingBlock: KIFKEQ_clean_linker_1, # of connection points: 2
#     Edge 44, Type (0, 1), BuildingBlock: KIFKEQ_clean_linker_1, # of connection points: 2
#     Edge 45, Type (0, 1), BuildingBlock: KIFKEQ_clean_linker_1, # of connection points: 2
#     Edge 46, Type (0, 1), BuildingBlock: KIFKEQ_clean_linker_1, # of connection points: 2
#     Edge 47, Type (0, 1), BuildingBlock: KIFKEQ_clean_linker_1, # of connection points: 2
#     Edge 48, Type (0, 1), BuildingBlock: KIFKEQ_clean_linker_1, # of connection points: 2
#     Edge 49, Type (0, 1), BuildingBlock: KIFKEQ_clean_linker_1, # of connection points: 2
#     Edge 50, Type (0, 1), BuildingBlock: KIFKEQ_clean_linker_1, # of connection points: 2
#     Edge 51, Type (0, 1), BuildingBlock: KIFKEQ_clean_linker_1, # of connection points: 2
#     Edge 52, Type (0, 1), BuildingBlock: KIFKEQ_clean_linker_1, # of connection points: 2
#     Edge 53, Type (0, 1), BuildingBlock: KIFKEQ_clean_linker_1, # of connection points: 2
#     Edge 54, Type (0, 1), BuildingBlock: KIFKEQ_clean_linker_1, # of connection points: 2
#     Edge 55, Type (0, 1), BuildingBlock: KIFKEQ_clean_linker_1, # of connection points: 2
#     Edge 56, Type (0, 1), BuildingBlock: KIFKEQ_clean_linker_1, # of connection points: 2
#     Edge 57, Type (0, 1), BuildingBlock: KIFKEQ_clean_linker_1, # of connection points: 2
#     Edge 58, Type (0, 1), BuildingBlock: KIFKEQ_clean_linker_1, # of connection points: 2
#     Edge 59, Type (0, 1), BuildingBlock: KIFKEQ_clean_linker_1, # of connection points: 2
#     Edge 60, Type (0, 1), BuildingBlock: KIFKEQ_clean_linker_1, # of connection points: 2
#     Edge 61, Type (0, 1), BuildingBlock: KIFKEQ_clean_linker_1, # of connection points: 2
#     Edge 62, Type (0, 1), BuildingBlock: KIFKEQ_clean_linker_1, # of connection points: 2
#     Edge 63, Type (0, 1), BuildingBlock: KIFKEQ_clean_linker_1, # of connection points: 2
#     Edge 64, Type (0, 1), BuildingBlock: KIFKEQ_clean_linker_1, # of connection points: 2
#     Edge 65, Type (0, 1), BuildingBlock: KIFKEQ_clean_linker_1, # of connection points: 2
#     Edge 66, Type (0, 1), BuildingBlock: KIFKEQ_clean_linker_1, # of connection points: 2
#     Edge 67, Type (0, 1), BuildingBlock: KIFKEQ_clean_linker_1, # of connection points: 2
#     Edge 68, Type (0, 1), BuildingBlock: KIFKEQ_clean_linker_1, # of connection points: 2
#     Edge 69, Type (0, 1), BuildingBlock: KIFKEQ_clean_linker_1, # of connection points: 2
#     Edge 70, Type (0, 1), BuildingBlock: KIFKEQ_clean_linker_1, # of connection points: 2
#     Edge 71, Type (0, 1), BuildingBlock: KIFKEQ_clean_linker_1, # of connection points: 2
#     Edge 72, Type (0, 1), BuildingBlock: KIFKEQ_clean_linker_1, # of connection points: 2
#     Edge 73, Type (0, 1), BuildingBlock: KIFKEQ_clean_linker_1, # of connection points: 2
#     Edge 74, Type (0, 1), BuildingBlock: KIFKEQ_clean_linker_1, # of connection points: 2
#     Edge 75, Type (0, 1), BuildingBlock: KIFKEQ_clean_linker_1, # of connection points: 2
#     Edge 76, Type (0, 1), BuildingBlock: KIFKEQ_clean_linker_1, # of connection points: 2
#     Edge 77, Type (0, 1), BuildingBlock: KIFKEQ_clean_linker_1, # of connection points: 2
#     Edge 78, Type (0, 1), BuildingBlock: KIFKEQ_clean_linker_1, # of connection points: 2
#     Edge 79, Type (0, 1), BuildingBlock: KIFKEQ_clean_linker_1, # of connection points: 2
#     Edge 80, Type (0, 1), BuildingBlock: KIFKEQ_clean_linker_1, # of connection points: 2
#     Edge 81, Type (0, 1), BuildingBlock: KIFKEQ_clean_linker_1, # of connection points: 2
#     Edge 82, Type (0, 1), BuildingBlock: KIFKEQ_clean_linker_1, # of connection points: 2
#     Edge 83, Type (0, 1), BuildingBlock: KIFKEQ_clean_linker_1, # of connection points: 2
#     Edge 84, Type (0, 1), BuildingBlock: KIFKEQ_clean_linker_1, # of connection points: 2
#     Edge 85, Type (0, 1), BuildingBlock: KIFKEQ_clean_linker_1, # of connection points: 2
#     Edge 86, Type (0, 1), BuildingBlock: KIFKEQ_clean_linker_1, # of connection points: 2
#     Edge 87, Type (0, 1), BuildingBlock: KIFKEQ_clean_linker_1, # of connection points: 2
#     Edge 88, Type (0, 1), BuildingBlock: KIFKEQ_clean_linker_1, # of connection points: 2
#     Edge 89, Type (0, 1), BuildingBlock: KIFKEQ_clean_linker_1, # of connection points: 2
#     Edge 90, Type (0, 1), BuildingBlock: KIFKEQ_clean_linker_1, # of connection points: 2
#     Edge 91, Type (0, 1), BuildingBlock: KIFKEQ_clean_linker_1, # of connection points: 2
#     Edge 92, Type (0, 1), BuildingBlock: KIFKEQ_clean_linker_1, # of connection points: 2
#     Edge 93, Type (0, 1), BuildingBlock: KIFKEQ_clean_linker_1, # of connection points: 2
#     Edge 94, Type (0, 1), BuildingBlock: KIFKEQ_clean_linker_1, # of connection points: 2
#     Edge 95, Type (0, 1), BuildingBlock: KIFKEQ_clean_linker_1, # of connection points: 2
#     Edge 96, Type (0, 1), BuildingBlock: KIFKEQ_clean_linker_1, # of connection points: 2
#     Edge 97, Type (0, 1), BuildingBlock: KIFKEQ_clean_linker_1, # of connection points: 2
#     Edge 98, Type (0, 1), BuildingBlock: KIFKEQ_clean_linker_1, # of connection points: 2
#     Edge 99, Type (0, 1), BuildingBlock: KIFKEQ_clean_linker_1, # of connection points: 2
#     Edge 100, Type (0, 1), BuildingBlock: KIFKEQ_clean_linker_1, # of connection points: 2
#     Edge 101, Type (0, 1), BuildingBlock: KIFKEQ_clean_linker_1, # of connection points: 2
#     Edge 102, Type (0, 1), BuildingBlock: KIFKEQ_clean_linker_1, # of connection points: 2
#     Edge 103, Type (0, 1), BuildingBlock: KIFKEQ_clean_linker_1, # of connection points: 2
#     Edge 104, Type (0, 1), BuildingBlock: KIFKEQ_clean_linker_1, # of connection points: 2
#     Edge 105, Type (0, 1), BuildingBlock: KIFKEQ_clean_linker_1, # of connection points: 2
#     Edge 106, Type (0, 1), BuildingBlock: KIFKEQ_clean_linker_1, # of connection points: 2
#     Edge 107, Type (0, 1), BuildingBlock: KIFKEQ_clean_linker_1, # of connection points: 2
#     Edge 108, Type (0, 1), BuildingBlock: KIFKEQ_clean_linker_1, # of connection points: 2
#     Edge 109, Type (0, 1), BuildingBlock: KIFKEQ_clean_linker_1, # of connection points: 2
#     Edge 110, Type (0, 1), BuildingBlock: KIFKEQ_clean_linker_1, # of connection points: 2
#     Edge 111, Type (0, 1), BuildingBlock: KIFKEQ_clean_linker_1, # of connection points: 2
#     Edge 112, Type (0, 1), BuildingBlock: KIFKEQ_clean_linker_1, # of connection points: 2
#     Edge 113, Type (0, 1), BuildingBlock: KIFKEQ_clean_linker_1, # of connection points: 2
#     Edge 114, Type (0, 1), BuildingBlock: KIFKEQ_clean_linker_1, # of connection points: 2
#     Edge 115, Type (0, 1), BuildingBlock: KIFKEQ_clean_linker_1, # of connection points: 2
#     Edge 116, Type (0, 1), BuildingBlock: KIFKEQ_clean_linker_1, # of connection points: 2
#     Edge 117, Type (0, 1), BuildingBlock: KIFKEQ_clean_linker_1, # of connection points: 2
#     Edge 118, Type (0, 1), BuildingBlock: KIFKEQ_clean_linker_1, # of connection points: 2
#     Edge 119, Type (0, 1), BuildingBlock: KIFKEQ_clean_linker_1, # of connection points: 2
#     Edge 120, Type (0, 1), BuildingBlock: KIFKEQ_clean_linker_1, # of connection points: 2
#     Edge 121, Type (0, 1), BuildingBlock: KIFKEQ_clean_linker_1, # of connection points: 2
#     Edge 122, Type (0, 1), BuildingBlock: KIFKEQ_clean_linker_1, # of connection points: 2
#     Edge 123, Type (0, 1), BuildingBlock: KIFKEQ_clean_linker_1, # of connection points: 2
#     Edge 124, Type (0, 1), BuildingBlock: KIFKEQ_clean_linker_1, # of connection points: 2
#     Edge 125, Type (0, 1), BuildingBlock: KIFKEQ_clean_linker_1, # of connection points: 2
#     Edge 126, Type (0, 1), BuildingBlock: KIFKEQ_clean_linker_1, # of connection points: 2
#     Edge 127, Type (0, 1), BuildingBlock: KIFKEQ_clean_linker_1, # of connection points: 2
#     Edge 128, Type (0, 1), BuildingBlock: KIFKEQ_clean_linker_1, # of connection points: 2
#     Edge 129, Type (0, 1), BuildingBlock: KIFKEQ_clean_linker_1, # of connection points: 2
#     Edge 130, Type (0, 1), BuildingBlock: KIFKEQ_clean_linker_1, # of connection points: 2
#     Edge 131, Type (0, 1), BuildingBlock: KIFKEQ_clean_linker_1, # of connection points: 2
#     Edge 132, Type (0, 1), BuildingBlock: KIFKEQ_clean_linker_1, # of connection points: 2
#     Edge 133, Type (0, 1), BuildingBlock: KIFKEQ_clean_linker_1, # of connection points: 2
#     Edge 134, Type (0, 1), BuildingBlock: KIFKEQ_clean_linker_1, # of connection points: 2
#     Edge 135, Type (0, 1), BuildingBlock: KIFKEQ_clean_linker_1, # of connection points: 2
# Relax obj value: 0.106
# Max RMSD: 0.221
# Mean RMSD: 0.118
data_MOF--net-gar--node1-QUQFOY_clean_sbu_3--node2-CUKXOW_clean_sbu_0--edge1-KIFKEQ_clean_linker_1
_symmetry_space_group_name_H-M    P1
_symmetry_Int_Tables_number       1
_symmetry_cell_setting            triclinic
loop_
_symmetry_equiv_pos_as_xyz
'x, y, z'
_cell_length_a     56.564657
_cell_length_b     55.90408
_cell_length_c     55.838534
_cell_angle_alpha  94.747066
_cell_angle_beta   95.374762
_cell_angle_gamma 99.443136
loop_
_atom_site_label
_atom_site_type_symbol
_atom_site_fract_x
_atom_site_fract_y
_atom_site_fract_z
_atom_type_partial_charge
C0 C 0.98019 0.27221 0.37957 0.0
O1 O 0.99609 0.28644 0.37048 0.0
Cd2 Cd 0.03778 0.29705 0.3831 0.0
O3 O 0.98536 0.26175 0.39841 0.0
Cd4 Cd 0.02263 0.25953 0.42521 0.0
C5 C 0.03413 0.32082 0.44135 0.0
O6 O 0.04161 0.25692 0.38994 0.0
O7 O 0.06585 0.25452 0.42104 0.0
O8 O 0.0029 0.21874 0.43081 0.0
C9 C 0.06224 0.25414 0.39825 0.0
O10 O 0.04052 0.32393 0.42039 0.0
C11 C 0.01068 0.22002 0.45305 0.0
O12 O 0.02609 0.29966 0.44701 0.0
O13 O 0.02341 0.24002 0.46243 0.0
C14 C 0.96735 0.77573 0.65082 0.0
O15 O 0.98464 0.76612 0.65962 0.0
Cd16 Cd 0.02265 0.76815 0.64484 0.0
O17 O 0.969 0.78678 0.63176 0.0
Cd18 Cd 8e-05 0.79656 0.60362 0.0
C19 C 0.00552 0.73834 0.58812 0.0
O20 O 0.0303 0.8095 0.63662 0.0
O21 O 0.04488 0.80572 0.60279 0.0
O22 O 0.98798 0.83573 0.59866 0.0
C23 C 0.04855 0.81264 0.62523 0.0
O24 O 0.01766 0.73945 0.60868 0.0
C25 C 0.98714 0.83372 0.57579 0.0
O26 O 0.99514 0.75586 0.58222 0.0
O27 O 0.991 0.81375 0.5657 0.0
C28 C 0.48743 0.78254 0.88836 0.0
O29 O 0.50414 0.79563 0.87917 0.0
Cd30 Cd 0.54619 0.79999 0.88929 0.0
O31 O 0.49197 0.77021 0.90599 0.0
Cd32 Cd 0.52868 0.76228 0.93015 0.0
C33 C 0.54824 0.82273 0.94863 0.0
O34 O 0.54411 0.75807 0.89317 0.0
O35 O 0.5689 0.7506 0.92173 0.0
O36 O 0.50464 0.72331 0.93558 0.0
C37 C 0.56373 0.7514 0.89925 0.0
O38 O 0.55381 0.82602 0.92743 0.0
C39 C 0.51301 0.72341 0.95751 0.0
O40 O 0.53835 0.80189 0.95361 0.0
O41 O 0.52818 0.74194 0.96674 0.0
C42 C 0.45866 0.26889 0.14757 0.0
O43 O 0.47424 0.25622 0.15443 0.0
Cd44 Cd 0.50968 0.25232 0.1372 0.0
O45 O 0.46051 0.28025 0.12867 0.0
Cd46 Cd 0.49042 0.28618 0.09809 0.0
C47 C 0.48681 0.22618 0.08007 0.0
O48 O 0.52077 0.29378 0.13059 0.0
O49 O 0.53546 0.29181 0.09659 0.0
O50 O 0.48904 0.32887 0.09611 0.0
C51 C 0.53905 0.29715 0.11932 0.0
O52 O 0.49673 0.22443 0.1011 0.0
C53 C 0.48245 0.32734 0.07366 0.0
O54 O 0.48217 0.24647 0.07395 0.0
O55 O 0.47802 0.30621 0.0623 0.0
C56 C 0.95273 0.75874 0.19582 0.0
O57 O 0.96849 0.75014 0.20858 0.0
Cd58 Cd 0.00891 0.7487 0.19992 0.0
O59 O 0.95776 0.7679 0.17633 0.0
Cd60 Cd 0.99451 0.77507 0.15407 0.0
C61 C -0.00122 0.71564 0.14419 0.0
O62 O 0.02493 0.78796 0.1893 0.0
O63 O 0.03858 0.77887 0.15572 0.0
O64 O 0.9844 0.81432 0.14388 0.0
C65 C 0.04307 0.78701 0.17781 0.0
O66 O 0.00829 0.71791 0.16604 0.0
C67 C 0.9869 0.81101 0.12155 0.0
O68 O 0.98952 0.73278 0.13547 0.0
O69 O 0.99227 0.79069 0.11415 0.0
C70 C 0.47902 0.78912 0.33252 0.0
O71 O 0.49332 0.80458 0.32296 0.0
Cd72 Cd 0.53449 0.81923 0.33755 0.0
O73 O 0.48634 0.77988 0.35147 0.0
Cd74 Cd 0.52601 0.78379 0.37777 0.0
C75 C 0.52625 0.84409 0.39339 0.0
O76 O 0.5494 0.78221 0.34332 0.0
O77 O 0.57089 0.79136 0.3776 0.0
O78 O 0.51185 0.74137 0.38532 0.0
C79 C 0.57008 0.78577 0.35504 0.0
O80 O 0.534 0.84803 0.37315 0.0
C81 C 0.52115 0.74374 0.40718 0.0
O82 O 0.52056 0.82242 0.39892 0.0
O83 O 0.53232 0.76478 0.41553 0.0
C84 C 0.45027 0.24871 0.69506 0.0
O85 O 0.46536 0.23788 0.70624 0.0
Cd86 Cd 0.50693 0.23953 0.69946 0.0
O87 O 0.4562 0.2609 0.67754 0.0
Cd88 Cd 0.49265 0.26991 0.65535 0.0
C89 C 0.50022 0.21112 0.64211 0.0
O90 O 0.52107 0.28056 0.69229 0.0
O91 O 0.53702 0.28062 0.65887 0.0
O92 O 0.47877 0.30788 0.64536 0.0
C93 C 0.53999 0.2842 0.68172 0.0
O94 O 0.50905 0.21187 0.66404 0.0
C95 C 0.48234 0.30544 0.62323 0.0
O96 O 0.49056 0.22857 0.63462 0.0
O97 O 0.49015 0.28636 0.61604 0.0
C98 C 0.97807 0.29202 0.82884 0.0
O99 O 0.9912 0.30697 0.81761 0.0
Cd100 Cd 0.03147 0.3261 0.83152 0.0
O101 O 0.98647 0.28512 0.84868 0.0
Cd102 Cd 0.02662 0.29157 0.87429 0.0
C103 C 0.0232 0.35153 0.88774 0.0
O104 O 0.05058 0.29223 0.8402 0.0
O105 O 0.07126 0.30067 0.87505 0.0
O106 O 0.01851 0.24819 0.87984 0.0
C107 C 0.07108 0.29671 0.85236 0.0
O108 O 0.02755 0.35455 0.86612 0.0
C109 C 0.02307 0.25079 0.9027 0.0
O110 O 0.02146 0.33048 0.89526 0.0
O111 O 0.02898 0.27251 0.91261 0.0
C112 C 0.43963 0.0595 0.2908 0.0
O113 O 0.44872 0.04604 0.27601 0.0
Cd114 Cd 0.43877 0.03658 0.23346 0.0
O115 O 0.42286 0.07085 0.28343 0.0
Cd116 Cd 0.39965 0.07434 0.2431 0.0
C117 C 0.3792 0.01238 0.23607 0.0
O118 O 0.43389 0.07462 0.22018 0.0
O119 O 0.40057 0.07322 0.19805 0.0
O120 O 0.39546 0.11744 0.25303 0.0
C121 C 0.42313 0.07365 0.19917 0.0
O122 O 0.40001 0.0094 0.23072 0.0
C123 C 0.37253 0.11328 0.24993 0.0
O124 O 0.37488 0.03357 0.24227 0.0
O125 O 0.36251 0.09129 0.24391 0.0
C126 C 0.28573 0.09732 0.50238 0.0
O127 O 0.26591 0.08368 0.5046 0.0
Cd128 Cd 0.22658 0.09404 0.49757 0.0
O129 O 0.2863 0.11804 0.49423 0.0
Cd130 Cd 0.25755 0.14349 0.47846 0.0
C131 C 0.23853 0.14799 0.53422 0.0
O132 O 0.22683 0.11074 0.45996 0.0
O133 O 0.21539 0.1454 0.46327 0.0
O134 O 0.28103 0.15886 0.44656 0.0
C135 C 0.20993 0.12276 0.45669 0.0
O136 O 0.2261 0.12661 0.5299 0.0
C137 C 0.28183 0.18117 0.45397 0.0
O138 O 0.25216 0.15706 0.51921 0.0
O139 O 0.27193 0.18559 0.47295 0.0
C140 C 0.09833 0.99858 0.81638 0.0
O141 O 0.08717 0.00915 0.80075 0.0
Cd142 Cd 0.09957 0.0197 0.76294 0.0
O143 O 0.11829 0.99181 0.81263 0.0
Cd144 Cd 0.144 0.991 0.77825 0.0
C145 C 0.15693 0.05298 0.77891 0.0
O146 O 0.1101 0.98262 0.74758 0.0
O147 O 0.1446 0.98828 0.73382 0.0
O148 O 0.14941 0.94925 0.78266 0.0
C149 C 0.12186 0.98311 0.72945 0.0
O150 O 0.13479 0.05208 0.77143 0.0
C151 C 0.17227 0.95383 0.78563 0.0
O152 O 0.1651 0.03369 0.78338 0.0
O153 O 0.18214 0.97604 0.78647 0.0
C154 C 0.25519 0.92884 0.01459 0.0
O155 O 0.24159 0.94006 0.00193 0.0
Cd156 Cd 0.19919 0.92879 0.99316 0.0
O157 O 0.24626 0.91032 0.02487 0.0
Cd158 Cd 0.20497 0.88639 0.02921 0.0
C159 C 0.20019 0.87058 0.9672 0.0
O160 O 0.18732 0.92313 0.03237 0.0
O161 O 0.16072 0.89086 0.02995 0.0
O162 O 0.22256 0.8835 0.07104 0.0
C163 C 0.16541 0.91399 0.03262 0.0
O164 O 0.19636 0.89217 0.96505 0.0
C165 C 0.21445 0.86103 0.07173 0.0
O166 O 0.20436 0.86357 0.98818 0.0
O167 O 0.20175 0.85013 0.05273 0.0
C168 C 0.28485 0.44595 0.03513 0.0
O169 O 0.27209 0.45553 0.01993 0.0
Cd170 Cd 0.23019 0.44804 0.00842 0.0
O171 O 0.27532 0.42913 0.04717 0.0
Cd172 Cd 0.2334 0.40668 0.04791 0.0
C173 C 0.22993 0.38865 0.98802 0.0
O174 O 0.21676 0.44267 0.04645 0.0
O175 O 0.18993 0.41053 0.04279 0.0
O176 O 0.24352 0.39888 0.08951 0.0
C177 C 0.19472 0.43351 0.04333 0.0
O178 O 0.22531 0.40943 0.98332 0.0
C179 C 0.23253 0.37691 0.0864 0.0
O180 O 0.23503 0.38401 0.00961 0.0
O181 O 0.22218 0.36902 0.06543 0.0
C182 C 0.83221 0.12895 0.00838 0.0
O183 O 0.81839 0.11766 0.02195 0.0
Cd184 Cd 0.77823 0.12325 0.02804 0.0
O185 O 0.8261 0.14679 0.9977 0.0
Cd186 Cd 0.79039 0.16984 0.99758 0.0
C187 C 0.78814 0.18026 0.05931 0.0
O188 O 0.75996 0.13214 0.99051 0.0
O189 O 0.74647 0.16569 0.99619 0.0
O190 O 0.79816 0.1789 0.95583 0.0
C191 C 0.74191 0.14279 0.99147 0.0
O192 O 0.78016 0.15749 0.05794 0.0
C193 C 0.793 0.20019 0.9576 0.0
O194 O 0.79591 0.19 0.04091 0.0
O195 O 0.78829 0.2081 0.97829 0.0
C196 C 0.07261 0.49705 0.30825 0.0
O197 O 0.06165 0.50653 0.29158 0.0
Cd198 Cd 0.07178 0.51166 0.25164 0.0
O199 O 0.09136 0.48781 0.30452 0.0
Cd200 Cd 0.1144 0.48174 0.26807 0.0
C201 C 0.12983 0.54295 0.26514 0.0
O202 O 0.07976 0.47334 0.23667 0.0
O203 O 0.11411 0.48128 0.22333 0.0
O204 O 0.12351 0.4408 0.27653 0.0
C205 C 0.09143 0.47563 0.21853 0.0
O206 O 0.10845 0.54235 0.25531 0.0
C207 C 0.1462 0.44689 0.27658 0.0
O208 O 0.13618 0.52407 0.27332 0.0
O209 O 0.1538 0.4689 0.2733 0.0
C210 C 0.79753 0.9599 0.559 0.0
O211 O 0.78798 0.97395 0.54577 0.0
Cd212 Cd 0.75045 0.96536 0.52114 0.0
O213 O 0.78617 0.9389 0.56207 0.0
Cd214 Cd 0.74492 0.91509 0.55032 0.0
C215 C 0.75818 0.91033 0.4925 0.0
O216 O 0.72376 0.94842 0.54731 0.0
O217 O 0.70308 0.9138 0.53231 0.0
O218 O 0.73917 0.90316 0.59044 0.0
C219 C 0.70423 0.93662 0.53639 0.0
O220 O 0.75538 0.9324 0.49132 0.0
C221 C 0.73593 0.8804 0.58401 0.0
O222 O 0.75664 0.9003 0.51208 0.0
O223 O 0.73734 0.87389 0.56192 0.0
C224 C 0.90583 0.0611 0.27706 0.0
O225 O 0.91903 0.05098 0.26361 0.0
Cd226 Cd 0.90829 0.0346 0.22295 0.0
O227 O 0.88498 0.06476 0.26893 0.0
Cd228 Cd 0.8593 0.06088 0.22911 0.0
C229 C 0.85289 0.99902 0.22955 0.0
O230 O 0.89425 0.06879 0.20891 0.0
O231 O 0.86208 0.06116 0.18418 0.0
O232 O 0.85206 0.10089 0.24401 0.0
C233 C 0.88491 0.06638 0.18729 0.0
O234 O 0.87511 0.00116 0.22623 0.0
C235 C 0.82951 0.09673 0.23767 0.0
O236 O 0.84256 0.01764 0.2313 0.0
O237 O 0.82059 0.07569 0.22717 0.0
C238 C 0.33162 0.62865 0.50717 0.0
O239 O 0.31769 0.61739 0.52063 0.0
Cd240 Cd 0.27931 0.62545 0.52921 0.0
O241 O 0.32626 0.6473 0.4974 0.0
Cd242 Cd 0.29144 0.6716 0.49824 0.0
C243 C 0.2949 0.68257 0.56059 0.0
O244 O 0.26029 0.63494 0.49222 0.0
O245 O 0.24782 0.66853 0.50068 0.0
O246 O 0.29803 0.67928 0.45591 0.0
C247 C 0.24265 0.64576 0.49504 0.0
O248 O 0.28684 0.65986 0.55989 0.0
C249 C 0.2931 0.70066 0.45722 0.0
O250 O 0.29981 0.6922 0.5412 0.0
O251 O 0.2889 0.70925 0.47787 0.0
C252 C 0.40061 0.5508 0.7793 0.0
O253 O 0.41402 0.5414 0.76559 0.0
Cd254 Cd 0.40172 0.52583 0.72513 0.0
O255 O 0.37952 0.55389 0.7713 0.0
Cd256 Cd 0.35383 0.54995 0.73132 0.0
C257 C 0.34738 0.48866 0.73217 0.0
O258 O 0.38887 0.56094 0.71088 0.0
O259 O 0.35704 0.54759 0.68656 0.0
O260 O 0.34552 0.58844 0.74938 0.0
C261 C 0.3793 0.55672 0.68933 0.0
O262 O 0.36954 0.49132 0.72857 0.0
C263 C 0.324 0.58607 0.73963 0.0
O264 O 0.33669 0.50699 0.73406 0.0
O265 O 0.31595 0.56669 0.72574 0.0
C266 C 0.57387 0.99756 0.80725 0.0
O267 O 0.56352 0.00745 0.7905 0.0
Cd268 Cd 0.57297 0.0121 0.7505 0.0
O269 O 0.59197 0.9872 0.80346 0.0
Cd270 Cd 0.6156 0.98122 0.76714 0.0
C271 C 0.63081 0.04302 0.76665 0.0
O272 O 0.5814 0.97393 0.73542 0.0
O273 O 0.61607 0.98078 0.72256 0.0
O274 O 0.6243 0.94028 0.77577 0.0
C275 C 0.5934 0.97597 0.71748 0.0
O276 O 0.60933 0.0429 0.75738 0.0
C277 C 0.647 0.94607 0.77562 0.0
O278 O 0.63749 0.02351 0.77286 0.0
O279 O 0.65485 0.96799 0.77219 0.0
C280 C 0.78284 0.59954 0.01017 0.0
O281 O 0.76306 0.58902 0.0165 0.0
Cd282 Cd 0.72391 0.59896 0.0074 0.0
O283 O 0.7835 0.61746 0.99733 0.0
Cd284 Cd 0.75473 0.64183 0.97949 0.0
C285 C 0.73824 0.65688 0.03521 0.0
O286 O 0.72342 0.60772 0.96644 0.0
O287 O 0.7123 0.64228 0.9637 0.0
O288 O 0.77621 0.65246 0.94451 0.0
C289 C 0.70668 0.61926 0.96066 0.0
O290 O 0.72504 0.63599 0.03454 0.0
C291 C 0.77792 0.67531 0.94987 0.0
O292 O 0.75134 0.66218 0.01846 0.0
O293 O 0.76947 0.68208 0.96907 0.0
C294 C 0.94159 0.56472 0.79473 0.0
O295 O 0.952 0.55197 0.78056 0.0
Cd296 Cd 0.94129 0.54119 0.73831 0.0
O297 O 0.92389 0.57436 0.78654 0.0
Cd298 Cd 0.90149 0.57517 0.74532 0.0
C299 C 0.88296 0.51375 0.74138 0.0
O300 O 0.93536 0.57742 0.72088 0.0
O301 O 0.90046 0.56705 0.70074 0.0
O302 O 0.89603 0.61829 0.75178 0.0
C303 C 0.9231 0.57213 0.70043 0.0
O304 O 0.90395 0.51166 0.73593 0.0
C305 C 0.87312 0.6134 0.74867 0.0
O306 O 0.87775 0.53465 0.7471 0.0
O307 O 0.86374 0.59105 0.7442 0.0
C308 C 0.75642 0.42746 0.51239 0.0
O309 O 0.74186 0.43681 0.49887 0.0
Cd310 Cd 0.69926 0.42598 0.49401 0.0
O311 O 0.74877 0.41035 0.52506 0.0
Cd312 Cd 0.70832 0.38582 0.53076 0.0
C313 C 0.69962 0.36796 0.46897 0.0
O314 O 0.69005 0.42225 0.5345 0.0
O315 O 0.66438 0.38932 0.53285 0.0
O316 O 0.72639 0.38282 0.57241 0.0
C317 C 0.66852 0.41244 0.53576 0.0
O318 O 0.69409 0.38887 0.46652 0.0
C319 C 0.7182 0.36034 0.57301 0.0
O320 O 0.70635 0.36225 0.48993 0.0
O321 O 0.70553 0.34952 0.55397 0.0
C322 C 0.60409 0.51356 0.32544 0.0
O323 O 0.59423 0.52577 0.31042 0.0
Cd324 Cd 0.60275 0.53234 0.27055 0.0
O325 O 0.62206 0.50347 0.32067 0.0
Cd326 Cd 0.6475 0.50213 0.2859 0.0
C327 C 0.66066 0.56431 0.28418 0.0
O328 O 0.6127 0.49464 0.25679 0.0
O329 O 0.6463 0.49842 0.24122 0.0
O330 O 0.65173 0.45988 0.28757 0.0
C331 C 0.62346 0.49419 0.238 0.0
O332 O 0.6385 0.56331 0.27686 0.0
C333 C 0.67455 0.46355 0.29129 0.0
O334 O 0.66892 0.5452 0.28937 0.0
O335 O 0.68521 0.48561 0.29426 0.0
Tb336 Tb 0.01286 0.05547 0.00633 0.0
C337 C 0.02008 0.01322 0.96741 0.0
Tb338 Tb 0.99271 0.00102 0.01315 0.0
O339 O 0.05021 0.04989 0.01239 0.0
O340 O 0.02305 0.02771 0.02703 0.0
O341 O 0.02143 0.03694 0.97337 0.0
C342 C 0.9874 0.95507 0.02485 0.0
O343 O 0.00954 0.99594 0.97984 0.0
C344 C 0.96049 0.02613 0.99537 0.0
C345 C 0.98759 0.04234 0.05274 0.0
O346 O 0.971 0.96876 0.02474 0.0
O347 O 0.00672 0.96706 0.01777 0.0
O348 O 0.95492 0.0057 0.00467 0.0
O349 O 0.98272 0.02891 0.99312 0.0
O350 O 0.99163 0.01965 0.0488 0.0
O351 O 0.99286 0.05908 0.03764 0.0
C352 C 0.01429 0.0994 0.99051 0.0
O353 O 0.02575 0.09521 0.0107 0.0
O354 O 0.0023 0.07904 0.97964 0.0
C355 C 0.04497 0.03018 0.02312 0.0
Tb356 Tb 0.26461 0.80773 0.26626 0.0
C357 C 0.30427 0.7748 0.26911 0.0
Tb358 Tb 0.24834 0.75252 0.26178 0.0
O359 O 0.28103 0.80736 0.30328 0.0
O360 O 0.25091 0.78145 0.28933 0.0
O361 O 0.29903 0.79601 0.26328 0.0
C362 C 0.23646 0.70524 0.26758 0.0
O363 O 0.28735 0.75584 0.27142 0.0
C364 C 0.24603 0.77277 0.22082 0.0
C365 C 0.20861 0.78547 0.25924 0.0
O366 O 0.24508 0.71397 0.24874 0.0
O367 O 0.235 0.72318 0.28338 0.0
O368 O 0.23195 0.75306 0.22474 0.0
O369 O 0.26194 0.77881 0.23871 0.0
O370 O 0.2137 0.76396 0.26428 0.0
O371 O 0.22555 0.80468 0.25789 0.0
C372 C 0.27596 0.85407 0.25683 0.0
O373 O 0.26975 0.84712 0.27733 0.0
O374 O 0.27556 0.83501 0.24187 0.0
C375 C 0.26687 0.78762 0.30717 0.0
Tb376 Tb 0.53302 0.03018 0.50408 0.0
C377 C 0.52177 0.0143 0.55495 0.0
Tb378 Tb 0.48192 0.02898 0.5174 0.0
O379 O 0.54598 0.0616 0.53066 0.0
O380 O 0.51114 0.05621 0.51267 0.0
O381 O 0.53511 0.01178 0.53684 0.0
C382 C 0.44353 0.0429 0.53477 0.0
O383 O 0.50119 0.02301 0.55214 0.0
C384 C 0.48955 0.98929 0.49315 0.0
C385 C 0.49297 0.04262 0.46527 0.0
O386 O 0.46323 0.05714 0.53161 0.0
O387 O 0.4456 0.02045 0.52866 0.0
O388 O 0.46864 0.99623 0.49214 0.0
O389 O 0.5039 0.00305 0.50898 0.0
O390 O 0.47746 0.04209 0.48176 0.0
O391 O 0.51508 0.03775 0.46982 0.0
C392 C 0.57302 0.02119 0.48612 0.0
O393 O 0.57156 0.03951 0.5014 0.0
O394 O 0.55173 0.00821 0.48056 0.0
C395 C 0.52549 0.0692 0.52909 0.0
Tb396 Tb 0.2633 0.27645 0.79423 0.0
C397 C 0.26923 0.31881 0.75879 0.0
Tb398 Tb 0.24922 0.26395 0.74037 0.0
O399 O 0.29568 0.2599 0.7938 0.0
O400 O 0.28197 0.27454 0.76316 0.0
O401 O 0.26887 0.31279 0.78135 0.0
C402 C 0.24225 0.24448 0.69463 0.0
O403 O 0.26381 0.30241 0.73959 0.0
C404 C 0.21576 0.27783 0.76492 0.0
C405 C 0.24776 0.22178 0.77528 0.0
O406 O 0.26027 0.26116 0.70382 0.0
O407 O 0.22819 0.23895 0.71108 0.0
O408 O 0.21757 0.28184 0.74256 0.0
O409 O 0.23093 0.26491 0.7714 0.0
O410 O 0.25166 0.22821 0.75339 0.0
O411 O 0.24853 0.23817 0.794 0.0
C412 C 0.25764 0.29267 0.83897 0.0
O413 O 0.24144 0.28942 0.82057 0.0
O414 O 0.27772 0.28731 0.83226 0.0
C415 C 0.29732 0.26219 0.77093 0.0
Tb416 Tb 0.99109 0.02798 0.48258 0.0
C417 C 0.96257 0.00852 0.5242 0.0
Tb418 Tb 0.01999 0.0196 0.52973 0.0
O419 O 0.9784 0.9888 0.47425 0.0
O420 O 0.01148 0.00173 0.49445 0.0
O421 O 0.96182 0.02076 0.50478 0.0
C422 C 0.04123 0.00127 0.56706 0.0
O423 O 0.98297 0.00363 0.53502 0.0
C424 C 0.0122 0.06435 0.52713 0.0
C425 C 0.04744 0.0401 0.48851 0.0
O426 O 0.01826 0.99745 0.5604 0.0
O427 O 0.05214 0.01534 0.55277 0.0
O428 O 0.02982 0.05903 0.54108 0.0
O429 O -0.0011 0.04496 0.51828 0.0
O430 O 0.04745 0.02423 0.50489 0.0
O431 O 0.02736 0.04729 0.48016 0.0
C432 C 0.97343 0.04406 0.44234 0.0
O433 O 0.9884 0.02887 0.44361 0.0
O434 O 0.96808 0.05022 0.46386 0.0
C435 C 0.99643 0.98278 0.48708 0.0
Tb436 Tb 0.2794 0.77468 0.78041 0.0
C437 C 0.23774 0.7858 0.81101 0.0
Tb438 Tb 0.22924 0.77423 0.75365 0.0
O439 O 0.28339 0.81356 0.79212 0.0
O440 O 0.26228 0.79874 0.76038 0.0
O441 O 0.25834 0.77716 0.8112 0.0
C442 C 0.19225 0.78879 0.72974 0.0
O443 O 0.22467 0.78834 0.79054 0.0
C444 C 0.23923 0.73072 0.75971 0.0
C445 C 0.27056 0.76185 0.72321 0.0
O446 O 0.1904 0.77452 0.747 0.0
O447 O 0.21461 0.79461 0.7262 0.0
O448 O 0.22264 0.73467 0.74351 0.0
O449 O 0.24645 0.75011 0.77348 0.0
O450 O 0.24995 0.77026 0.72303 0.0
O451 O 0.28373 0.75956 0.74367 0.0
C452 C 0.32231 0.76916 0.80035 0.0
O453 O 0.31846 0.78223 0.78274 0.0
O454 O 0.3019 0.75868 0.80664 0.0
C455 C 0.2683 0.81781 0.77478 0.0
Tb456 Tb 0.47734 0.0094 0.00398 0.0
C457 C 0.5185 0.97869 0.01685 0.0
Tb458 Tb 0.52949 0.03501 0.01258 0.0
O459 O 0.47694 0.01151 0.96503 0.0
O460 O 0.50878 0.00913 0.98573 0.0
O461 O 0.49521 0.98001 0.01659 0.0
C462 C 0.57364 0.05764 0.00651 0.0
O463 O 0.53462 0.99734 0.01223 0.0
C464 C 0.50658 0.03328 0.0517 0.0
C465 C 0.48845 0.066 0.00028 0.0
O466 O 0.56769 0.04725 0.02552 0.0
O467 O 0.55468 0.05552 0.99098 0.0
O468 O 0.5298 0.03528 0.052 0.0
O469 O 0.49812 0.03539 0.03054 0.0
O470 O 0.51161 0.06436 -4e-05 0.0
O471 O 0.47228 0.04733 0.00492 0.0
C472 C 0.43262 0.98647 0.00773 0.0
O473 O 0.44051 0.99429 0.98825 0.0
O474 O 0.45 0.99139 0.02524 0.0
C475 C 0.49999 0.01239 0.96496 0.0
Tb476 Tb 0.24092 0.27515 0.28204 0.0
C477 C 0.2827 0.28504 0.3244 0.0
Tb478 Tb 0.2909 0.29495 0.27071 0.0
O479 O 0.252 0.2405 0.28908 0.0
O480 O 0.26767 0.26104 0.26341 0.0
O481 O 0.25921 0.28374 0.3185 0.0
C482 C 0.33612 0.29866 0.25993 0.0
O483 O 0.29852 0.28825 0.30837 0.0
C484 C 0.26373 0.32812 0.27814 0.0
C485 C 0.2493 0.28475 0.2286 0.0
O486 O 0.32469 0.2811 0.27033 0.0
O487 O 0.32235 0.31472 0.25648 0.0
O488 O 0.28128 0.33045 0.26468 0.0
O489 O 0.26408 0.30923 0.289 0.0
O490 O 0.27239 0.28418 0.2347 0.0
O491 O 0.23348 0.28337 0.24474 0.0
C492 C 0.19548 0.2664 0.29225 0.0
O493 O 0.20879 0.25005 0.28834 0.0
O494 O 0.20755 0.28766 0.28972 0.0
C495 C 0.26856 0.24242 0.2745 0.0
Tb496 Tb 0.48726 0.52898 0.98874 0.0
C497 C 0.45776 0.51028 0.02965 0.0
Tb498 Tb 0.51456 0.52297 0.03779 0.0
O499 O 0.47514 0.4895 0.9812 0.0
O500 O 0.50704 0.50342 0.00313 0.0
O501 O 0.45771 0.52313 0.01068 0.0
C502 C 0.53563 0.50802 0.07721 0.0
O503 O 0.47769 0.50467 0.04067 0.0
C504 C 0.50759 0.56742 0.0319 0.0
C505 C 0.54367 0.54261 0.99679 0.0
O506 O 0.51389 0.51272 0.07479 0.0
O507 O 0.54541 0.51156 0.05748 0.0
O508 O 0.52481 0.56263 0.04674 0.0
O509 O 0.49411 0.54785 0.02375 0.0
O510 O 0.54372 0.52885 0.01503 0.0
O511 O 0.52355 0.54815 0.98636 0.0
C512 C 0.46984 0.54282 0.94719 0.0
O513 O 0.48571 0.52868 0.94968 0.0
O514 O 0.46355 0.54929 0.96823 0.0
C515 C 0.49249 0.48415 0.99554 0.0
Tb516 Tb 0.774 0.27723 0.27714 0.0
C517 C 0.73353 0.28628 0.31044 0.0
Tb518 Tb 0.72237 0.27568 0.25286 0.0
O519 O 0.77861 0.31649 0.28831 0.0
O520 O 0.75492 0.30065 0.25845 0.0
O521 O 0.7551 0.27984 0.30942 0.0
C522 C 0.68455 0.28901 0.22933 0.0
O523 O 0.71863 0.28735 0.29073 0.0
C524 C 0.73431 0.23294 0.25808 0.0
C525 C 0.76247 0.26399 0.22007 0.0
O526 O 0.6833 0.27362 0.24565 0.0
O527 O 0.70687 0.29707 0.22681 0.0
O528 O 0.71744 0.23648 0.24197 0.0
O529 O 0.74118 0.25231 0.2719 0.0
O530 O 0.74137 0.27123 0.22107 0.0
O531 O 0.77725 0.263 0.23982 0.0
C532 C 0.81651 0.26841 0.29477 0.0
O533 O 0.81319 0.28454 0.27995 0.0
O534 O 0.79587 0.25713 0.29967 0.0
C535 C 0.76165 0.32 0.27237 0.0
Tb536 Tb 0.97723 0.5185 0.5038 0.0
C537 C 0.01268 0.48031 0.51499 0.0
Tb538 Tb 0.0311 0.53618 0.5156 0.0
O539 O 0.97885 0.52353 0.46545 0.0
O540 O 0.00835 0.51544 0.48625 0.0
O541 O 0.99015 0.48461 0.51189 0.0
C542 C 0.07706 0.55532 0.51276 0.0
O543 O 0.03179 0.49768 0.51544 0.0
C544 C 0.00611 0.5326 0.55303 0.0
C545 C -0.00314 0.57414 0.50485 0.0
O546 O 0.06522 0.55899 0.53114 0.0
O547 O 0.0631 0.54072 0.4961 0.0
O548 O 0.02857 0.52987 0.55375 0.0
O549 O -0.00017 0.5392 0.5328 0.0
O550 O 0.01835 0.56818 0.50255 0.0
O551 O 0.97843 0.55777 0.50943 0.0
C552 C 0.93138 0.49971 0.50777 0.0
O553 O 0.93878 0.51263 0.49078 0.0
O554 O 0.94978 0.49732 0.5225 0.0
C555 C 0.00147 0.52164 0.46597 0.0
Tb556 Tb 0.76661 0.78861 0.29384 0.0
C557 C 0.77213 0.83081 0.25784 0.0
Tb558 Tb 0.7515 0.77582 0.23766 0.0
O559 O 0.79764 0.77024 0.29115 0.0
O560 O 0.78361 0.78646 0.26169 0.0
O561 O 0.77317 0.82468 0.28045 0.0
C562 C 0.75331 0.76038 0.19184 0.0
O563 O 0.76547 0.81473 0.23843 0.0
C564 C 0.71448 0.78141 0.26206 0.0
C565 C 0.74559 0.73439 0.27398 0.0
O566 O 0.73931 0.775 0.19933 0.0
O567 O 0.76641 0.7546 0.21013 0.0
O568 O 0.71243 0.77711 0.23865 0.0
O569 O 0.73624 0.78225 0.26906 0.0
O570 O 0.74855 0.7399 0.25153 0.0
O571 O 0.74877 0.75103 0.29299 0.0
C572 C 0.76591 0.80797 0.33873 0.0
O573 O 0.74806 0.80453 0.3218 0.0
O574 O 0.7844 0.80035 0.33048 0.0
C575 C 0.79866 0.77336 0.26836 0.0
Tb576 Tb 0.76449 0.30884 0.76777 0.0
C577 C 0.80251 0.27434 0.77114 0.0
Tb578 Tb 0.74617 0.25399 0.76506 0.0
O579 O 0.78116 0.30887 0.80483 0.0
O580 O 0.7502 0.28386 0.79178 0.0
O581 O 0.79793 0.29541 0.76428 0.0
C582 C 0.73311 0.20773 0.77384 0.0
O583 O 0.78513 0.25635 0.77489 0.0
C584 C 0.74483 0.27268 0.72325 0.0
C585 C 0.70807 0.28867 0.76034 0.0
O586 O 0.74434 0.21479 0.75572 0.0
O587 O 0.72954 0.22673 0.78708 0.0
O588 O 0.73029 0.25341 0.72758 0.0
O589 O 0.76061 0.27887 0.74118 0.0
O590 O 0.71212 0.26714 0.7665 0.0
O591 O 0.72578 0.30692 0.7582 0.0
C592 C 0.77775 0.35488 0.75833 0.0
O593 O 0.76964 0.34829 0.77823 0.0
O594 O 0.77814 0.33562 0.74391 0.0
C595 C 0.76638 0.28987 0.80941 0.0
Tb596 Tb 0.73356 0.76825 0.7738 0.0
C597 C 0.77703 0.7756 0.81499 0.0
Tb598 Tb 0.78634 0.79043 0.76296 0.0
O599 O 0.74463 0.73321 0.77862 0.0
O600 O 0.7621 0.75668 0.75609 0.0
O601 O 0.75349 0.77492 0.80968 0.0
C602 C 0.82984 0.79338 0.74828 0.0
O603 O 0.79299 0.77943 0.79911 0.0
C604 C 0.7613 0.82406 0.77808 0.0
C605 C 0.74253 0.78286 0.72168 0.0
O606 O 0.8211 0.77838 0.76308 0.0
O607 O 0.81431 0.80714 0.74227 0.0
O608 O 0.78336 0.82939 0.77279 0.0
O609 O 0.75651 0.80134 0.77601 0.0
O610 O 0.76612 0.78396 0.72718 0.0
O611 O 0.72646 0.77873 0.73744 0.0
C612 C 0.68916 0.76188 0.7862 0.0
O613 O 0.69804 0.74576 0.77333 0.0
O614 O 0.70509 0.78155 0.79161 0.0
C615 C 0.76263 0.73712 0.76579 0.0
Tb616 Tb 0.51197 0.54962 0.5139 0.0
C617 C 0.5093 0.51031 0.46742 0.0
Tb618 Tb 0.4878 0.49556 0.51476 0.0
O619 O 0.54562 0.54393 0.53441 0.0
O620 O 0.52278 0.51546 0.51368 0.0
O621 O 0.51271 0.53351 0.47672 0.0
C622 C 0.4823 0.45069 0.52904 0.0
O623 O 0.50161 0.49175 0.47977 0.0
C624 C 0.45979 0.52563 0.49888 0.0
C625 C 0.48857 0.53432 0.56068 0.0
O626 O 0.4651 0.46036 0.51864 0.0
O627 O 0.50228 0.46615 0.53109 0.0
O628 O 0.45526 0.50217 0.49253 0.0
O629 O 0.47738 0.52985 0.51491 0.0
O630 O 0.48763 0.51112 0.55226 0.0
O631 O 0.49525 0.55264 0.54757 0.0
C632 C 0.51589 0.59272 0.49586 0.0
O633 O 0.52733 0.58885 0.51619 0.0
O634 O 0.50251 0.57258 0.48623 0.0
C635 C 0.54103 0.52034 0.52902 0.0
Tb636 Tb 0.02829 0.53212 0.00779 0.0
C637 C 0.01656 0.51382 0.05748 0.0
Tb638 Tb 0.97719 0.53033 0.02042 0.0
O639 O 0.04112 0.56208 0.03602 0.0
O640 O 0.00658 0.55802 0.01743 0.0
O641 O 0.03041 0.51259 0.03968 0.0
C642 C 0.93804 0.54102 0.03887 0.0
O643 O 0.9958 0.52221 0.05474 0.0
C644 C 0.985 0.49207 0.99407 0.0
C645 C 0.98923 0.54732 0.96978 0.0
O646 O 0.95798 0.55609 0.03849 0.0
O647 O 0.94027 0.51969 0.02917 0.0
O648 O 0.96439 0.49956 0.99269 0.0
O649 O -0.00102 0.50459 0.01101 0.0
O650 O 0.97361 0.54647 0.98619 0.0
O651 O 0.01098 0.54151 0.97403 0.0
C652 C 0.06773 0.52255 0.9892 0.0
O653 O 0.06656 0.54153 0.00378 0.0
O654 O 0.04644 0.50934 0.98469 0.0
C655 C 0.02075 0.56997 0.03461 0.0
H656 H 0.01379 0.20281 0.88546 0.0
H657 H 0.02983 0.25039 0.95204 0.0
H658 H 0.01194 0.16751 0.90825 0.0
H659 H 0.02735 0.2148 0.97506 0.0
H660 H 0.04516 0.14279 0.00452 0.0
H661 H 0.04743 0.18039 0.9843 0.0
H662 H 0.98604 0.14649 0.93397 0.0
H663 H 0.98432 0.10917 0.95359 0.0
C664 C 0.01676 0.20574 0.90501 0.0
C665 C 0.02181 0.22943 0.91691 0.0
C666 C 0.01557 0.18546 0.91812 0.0
C667 C 0.01924 0.18826 0.94355 0.0
C668 C 0.02457 0.21198 0.95551 0.0
C669 C 0.02584 0.23236 0.94232 0.0
C670 C 0.03212 0.14359 0.98924 0.0
C671 C 0.01477 0.12304 0.98042 0.0
C672 C 0.03334 0.16508 0.9777 0.0
C673 C 0.01715 0.16634 0.95723 0.0
C674 C -0.00079 0.14601 0.94923 0.0
C675 C -0.00189 0.12463 0.96059 0.0
H676 H 0.08162 0.76971 0.16167 0.0
H677 H 0.05988 0.80985 0.22293 0.0
H678 H 0.121 0.77048 0.18403 0.0
H679 H 0.09976 0.81108 0.2451 0.0
H680 H 0.18834 0.82662 0.25545 0.0
H681 H 0.14772 0.82875 0.23697 0.0
H682 H 0.13138 0.75027 0.22614 0.0
H683 H 0.17147 0.74794 0.24493 0.0
C684 C 0.08535 0.779 0.17977 0.0
C685 C 0.06763 0.78965 0.19058 0.0
C686 C 0.10783 0.77932 0.19258 0.0
C687 C 0.11323 0.7907 0.21627 0.0
C688 C 0.09594 0.8022 0.22683 0.0
C689 C 0.07319 0.80146 0.21417 0.0
C690 C 0.17591 0.80983 0.24958 0.0
C691 C 0.18316 0.78712 0.25169 0.0
C692 C 0.15272 0.81108 0.23902 0.0
C693 C 0.13665 0.78967 0.22999 0.0
C694 C 0.14357 0.76702 0.23285 0.0
C695 C 0.16648 0.76574 0.24378 0.0
H696 H 0.54991 0.89126 0.3977 0.0
H697 H 0.49311 0.84388 0.42589 0.0
H698 H 0.54138 0.92602 0.42324 0.0
H699 H 0.48415 0.87882 0.45073 0.0
H700 H 0.46019 0.95821 0.45836 0.0
H701 H 0.4697 0.9222 0.43554 0.0
H702 H 0.54092 0.93522 0.47438 0.0
H703 H 0.53098 0.97027 0.49823 0.0
C704 C 0.53569 0.88827 0.40939 0.0
C705 C 0.52222 0.86485 0.40985 0.0
C706 C 0.53085 0.90811 0.42397 0.0
C707 C 0.51206 0.90498 0.43877 0.0
C708 C 0.49867 0.88162 0.43937 0.0
C709 C 0.50391 0.86167 0.42527 0.0
C710 C 0.4778 0.95327 0.46212 0.0
C711 C 0.49503 0.96733 0.47969 0.0
C712 C 0.48321 0.93272 0.4491 0.0
C713 C 0.50608 0.92618 0.45314 0.0
C714 C 0.52325 0.9401 0.47081 0.0
C715 C 0.51762 0.96024 0.48426 0.0
H716 H 0.4172 0.27801 0.68409 0.0
H717 H 0.42868 0.21814 0.7254 0.0
H718 H 0.37944 0.27962 0.70133 0.0
H719 H 0.39049 0.21896 0.74182 0.0
H720 H 0.33777 0.24687 0.78975 0.0
H721 H 0.37356 0.24228 0.77002 0.0
H722 H 0.33937 0.26153 0.70345 0.0
H723 H 0.30423 0.26755 0.72384 0.0
C724 C 0.41146 0.2649 0.69653 0.0
C725 C 0.42609 0.2481 0.70351 0.0
C726 C 0.38968 0.26571 0.70636 0.0
C727 C 0.38186 0.24955 0.72321 0.0
C728 C 0.39612 0.23212 0.7294 0.0
C729 C 0.41799 0.23151 0.71981 0.0
C730 C 0.33789 0.24999 0.77087 0.0
C731 C 0.31819 0.25753 0.75831 0.0
C732 C 0.35837 0.24719 0.75944 0.0
C733 C 0.35951 0.25149 0.73502 0.0
C734 C 0.33942 0.25843 0.72234 0.0
C735 C 0.3191 0.26161 0.73392 0.0
H736 H 0.97884 0.83365 0.52676 0.0
H737 H 0.99057 0.88112 0.59349 0.0
H738 H 0.98053 0.86927 0.50381 0.0
H739 H 0.99259 0.91654 0.57053 0.0
H740 H 0.02906 0.97019 0.52054 0.0
H741 H 0.02442 0.93356 0.54198 0.0
H742 H 0.95693 0.9058 0.49816 0.0
H743 H 0.96116 0.94286 0.4773 0.0
C744 C 0.98144 0.85163 0.53649 0.0
C745 C 0.98465 0.85464 0.56189 0.0
C746 C 0.98241 0.87194 0.52338 0.0
C747 C 0.987 0.89552 0.53549 0.0
C748 C 0.98934 0.8985 0.56084 0.0
C749 C 0.98799 0.87822 0.57393 0.0
C750 C 0.01325 0.95627 0.51555 0.0
C751 C 0.99529 0.95944 0.49762 0.0
C752 C 0.01058 0.93539 0.52779 0.0
C753 C 0.99018 0.91709 0.52183 0.0
C754 C 0.97278 0.91972 0.50306 0.0
C755 C 0.97524 0.94084 0.49115 0.0
H756 H 0.47476 0.78666 0.84137 0.0
H757 H 0.44469 0.77073 0.90778 0.0
H758 H 0.4347 0.78078 0.82014 0.0
H759 H 0.40397 0.76613 0.88662 0.0
H760 H 0.33458 0.73972 0.83453 0.0
H761 H 0.37457 0.74155 0.85651 0.0
H762 H 0.40252 0.80205 0.81772 0.0
H763 H 0.36333 0.79924 0.79518 0.0
C764 C 0.45948 0.78232 0.85154 0.0
C765 C 0.46276 0.77957 0.87631 0.0
C766 C 0.43647 0.77899 0.83936 0.0
C767 C 0.4161 0.77342 0.85176 0.0
C768 C 0.41932 0.77028 0.87653 0.0
C769 C 0.44255 0.77312 0.88869 0.0
C770 C 0.34948 0.75314 0.83064 0.0
C771 C 0.34612 0.76916 0.81307 0.0
C772 C 0.37224 0.75437 0.84333 0.0
C773 C 0.39177 0.77183 0.83875 0.0
C774 C 0.38808 0.78795 0.82129 0.0
C775 C 0.36558 0.78644 0.80842 0.0
H776 H 0.48793 0.22239 0.03094 0.0
H777 H 0.47233 0.1802 0.09071 0.0
H778 H 0.48273 0.18447 0.0038 0.0
H779 H 0.46665 0.14276 0.06377 0.0
H780 H 0.44614 0.0788 0.0122 0.0
H781 H 0.44002 0.11963 0.02579 0.0
H782 H 0.50956 0.14975 0.00523 0.0
H783 H 0.51589 0.10891 0.99164 0.0
C784 C 0.48285 0.20507 0.0381 0.0
C785 C 0.48071 0.20409 0.06289 0.0
C786 C 0.47991 0.18348 0.02263 0.0
C787 C 0.47412 0.16078 0.0317 0.0
C788 C 0.47074 0.16002 0.05623 0.0
C789 C 0.47422 0.18142 0.07169 0.0
C790 C 0.45982 0.09413 0.00978 0.0
C791 C 0.4818 0.09054 0.00143 0.0
C792 C 0.45628 0.11751 0.01759 0.0
C793 C 0.47448 0.1377 0.01689 0.0
C794 C 0.49522 0.13446 0.00592 0.0
C795 C 0.49889 0.11103 -0.0017 0.0
H796 H 0.05966 0.26515 0.35198 0.0
H797 H 0.10783 0.24376 0.40795 0.0
H798 H 0.09067 0.26644 0.32469 0.0
H799 H 0.1391 0.2449 0.38008 0.0
H800 H 0.17659 0.22561 0.31174 0.0
H801 H 0.14387 0.22149 0.33766 0.0
H802 H 0.13245 0.2943 0.32585 0.0
H803 H 0.1654 0.29861 0.30026 0.0
C804 C 0.07688 0.26063 0.35846 0.0
C805 C 0.08142 0.25444 0.38217 0.0
C806 C 0.09459 0.26144 0.34279 0.0
C807 C 0.11712 0.2558 0.35037 0.0
C808 C 0.12169 0.24917 0.37389 0.0
C809 C 0.10396 0.24867 0.38981 0.0
C810 C 0.16677 0.24054 0.31437 0.0
C811 C 0.17333 0.26241 0.30405 0.0
C812 C 0.14832 0.23827 0.32937 0.0
C813 C 0.13597 0.25767 0.33384 0.0
C814 C 0.1418 0.27911 0.32259 0.0
C815 C 0.16049 0.28153 0.30792 0.0
H816 H 0.9331 0.06657 0.19128 0.0
H817 H 0.87153 0.06347 0.13832 0.0
H818 H 0.95866 0.06242 0.15907 0.0
H819 H 0.89753 0.05956 0.10585 0.0
H820 H 0.96029 0.07798 0.05775 0.0
H821 H 0.93515 0.08513 0.09005 0.0
H822 H 0.95999 0.02731 0.12661 0.0
H823 H 0.98491 0.0199 0.09424 0.0
C824 C 0.92502 0.06517 0.17273 0.0
C825 C 0.90022 0.06522 0.16732 0.0
C826 C 0.9397 0.0627 0.15432 0.0
C827 C 0.93003 0.06055 0.13004 0.0
C828 C 0.9054 0.06129 0.12449 0.0
C829 C 0.89054 0.06343 0.14301 0.0
C830 C 0.96067 0.06704 0.07287 0.0
C831 C 0.97472 0.04849 0.07359 0.0
C832 C 0.94608 0.07097 0.09117 0.0
C833 C 0.94562 0.05673 0.11071 0.0
C834 C 0.96014 0.03863 0.11176 0.0
C835 C 0.97439 0.0344 0.09327 0.0
H836 H 0.31368 0.69489 0.41501 0.0
H837 H 0.26602 0.73619 0.4497 0.0
H838 H 0.30738 0.71535 0.37824 0.0
H839 H 0.25907 0.75588 0.41262 0.0
H840 H 0.23328 0.75704 0.32789 0.0
H841 H 0.23996 0.73612 0.36443 0.0
H842 H 0.31593 0.76535 0.37007 0.0
H843 H 0.30917 0.7869 0.33422 0.0
C844 C 0.30192 0.70835 0.41481 0.0
C845 C 0.2905 0.71404 0.43537 0.0
C846 C 0.29828 0.72 0.39376 0.0
C847 C 0.28259 0.73704 0.39254 0.0
C848 C 0.27112 0.74269 0.41302 0.0
C849 C 0.27527 0.73155 0.43429 0.0
C850 C 0.25137 0.75892 0.33695 0.0
C851 C 0.27067 0.77371 0.32833 0.0
C852 C 0.25519 0.74706 0.35786 0.0
C853 C 0.27847 0.74919 0.3701 0.0
C854 C 0.29783 0.76339 0.36101 0.0
C855 C 0.29392 0.77577 0.34056 0.0
H856 H 0.61544 0.98671 0.67724 0.0
H857 H 0.5452 0.97228 0.70268 0.0
H858 H 0.59697 0.99495 0.63836 0.0
H859 H 0.52654 0.97992 0.6634 0.0
H860 H 0.50596 0.02358 0.59945 0.0
H861 H 0.52236 0.01278 0.63847 0.0
H862 H 0.57274 0.97598 0.60262 0.0
H863 H 0.55691 0.98722 0.56406 0.0
C864 C 0.59599 0.98496 0.67443 0.0
C865 C 0.58183 0.97881 0.6931 0.0
C866 C 0.58534 0.9896 0.65204 0.0
C867 C 0.56019 0.98812 0.64763 0.0
C868 C 0.54597 0.98157 0.66621 0.0
C869 C 0.55665 0.97696 0.68867 0.0
C870 C 0.52042 0.01305 0.59993 0.0
C871 C 0.5302 0.00646 0.57861 0.0
C872 C 0.52979 0.00676 0.62229 0.0
C873 C 0.54908 0.99367 0.62381 0.0
C874 C 0.55829 0.98652 0.60232 0.0
C875 C 0.54906 0.99289 0.58011 0.0
H876 H 0.25466 0.35071 0.98894 0.0
H877 H 0.20896 0.38574 0.94177 0.0
H878 H 0.26078 0.32329 0.95449 0.0
H879 H 0.21501 0.35832 0.90754 0.0
H880 H 0.21432 0.29439 0.85447 0.0
H881 H 0.20592 0.31359 0.89272 0.0
H882 H 0.28227 0.33062 0.91631 0.0
H883 H 0.29072 0.31092 0.87782 0.0
C884 C 0.24562 0.35228 0.97131 0.0
C885 C 0.2314 0.37039 0.96794 0.0
C886 C 0.24927 0.33672 0.95165 0.0
C887 C 0.2384 0.33878 0.92848 0.0
C888 C 0.22342 0.35624 0.92531 0.0
C889 C 0.22006 0.372 0.94485 0.0
C890 C 0.22931 0.30195 0.86795 0.0
C891 C 0.25319 0.30159 0.86323 0.0
C892 C 0.22448 0.31291 0.88978 0.0
C893 C 0.24346 0.32379 0.90723 0.0
C894 C 0.26734 0.32221 0.90311 0.0
C895 C 0.27219 0.3111 0.88116 0.0
H896 H 0.88025 0.05878 0.3163 0.0
H897 H 0.95198 0.07799 0.29542 0.0
H898 H 0.89722 0.06061 0.35858 0.0
H899 H 0.96881 0.08073 0.33748 0.0
H900 H 0.93813 0.07189 0.43524 0.0
H901 H 0.9215 0.08324 0.39629 0.0
H902 H 0.97106 0.04558 0.36002 0.0
H903 H 0.98752 0.03464 0.39839 0.0
C904 C 0.89954 0.0642 0.3209 0.0
C905 C 0.91491 0.0677 0.30269 0.0
C906 C 0.90924 0.06534 0.34506 0.0
C907 C 0.93438 0.07027 0.3512 0.0
C908 C 0.94942 0.07627 0.33318 0.0
C909 C 0.9398 0.07474 0.30913 0.0
C910 C 0.94551 0.06635 0.41886 0.0
C911 C 0.96399 0.05235 0.41967 0.0
C912 C 0.93601 0.07277 0.39667 0.0
C913 C 0.94514 0.0655 0.37516 0.0
C914 C 0.96397 0.05193 0.37628 0.0
C915 C 0.97327 0.04545 0.39826 0.0
H916 H 0.30015 0.66663 0.60514 0.0
H917 H 0.29407 0.73176 0.57024 0.0
H918 H 0.29765 0.68821 0.6441 0.0
H919 H 0.29178 0.7537 0.60971 0.0
H920 H 0.25188 0.76918 0.67784 0.0
H921 H 0.26188 0.7529 0.63899 0.0
H922 H 0.31691 0.71968 0.67556 0.0
H923 H 0.30666 0.73571 0.7146 0.0
C924 C 0.29867 0.68575 0.60582 0.0
C925 C 0.29717 0.69739 0.58444 0.0
C926 C 0.2974 0.69821 0.6283 0.0
C927 C 0.2944 0.72273 0.63019 0.0
C928 C 0.29384 0.73474 0.60893 0.0
C929 C 0.29537 0.72226 0.58632 0.0
C930 C 0.26628 0.75859 0.67768 0.0
C931 C 0.27834 0.75367 0.6995 0.0
C932 C 0.27216 0.7494 0.65529 0.0
C933 C 0.29018 0.73489 0.654 0.0
C934 C 0.30275 0.73057 0.6758 0.0
C935 C 0.29696 0.73989 0.69824 0.0
H936 H 0.58474 0.97367 0.84748 0.0
H937 H 0.54274 0.02633 0.82207 0.0
H938 H 0.56793 0.97691 0.88645 0.0
H939 H 0.5268 0.02998 0.86053 0.0
H940 H 0.47987 0.01097 0.9188 0.0
H941 H 0.49867 0.00614 0.88175 0.0
H942 H 0.56655 0.00422 0.92345 0.0
H943 H 0.54726 0.00831 0.96083 0.0
C944 C 0.57208 0.98596 0.85019 0.0
C945 C 0.56485 0.99942 0.83144 0.0
C946 C 0.56255 0.98793 0.87254 0.0
C947 C 0.54569 0.00344 0.87654 0.0
C948 C 0.53918 0.01735 0.85797 0.0
C949 C 0.54847 0.01529 0.83582 0.0
C950 C 0.49881 0.00955 0.92011 0.0
C951 C 0.51211 0.01018 0.94271 0.0
C952 C 0.50967 0.00688 0.89884 0.0
C953 C 0.53424 0.00501 0.89953 0.0
C954 C 0.54757 0.00542 0.92221 0.0
C955 C 0.53659 0.00799 0.94362 0.0
H956 H 0.2011 0.33494 0.08932 0.0
H957 H 0.26335 0.38285 0.12762 0.0
H958 H 0.20172 0.30759 0.12149 0.0
H959 H 0.26418 0.35523 0.15928 0.0
H960 H 0.27627 0.28552 0.19074 0.0
H961 H 0.26956 0.30547 0.15423 0.0
H962 H 0.19989 0.31676 0.17356 0.0
H963 H 0.20662 0.29719 0.21069 0.0
C964 C 0.21488 0.33959 0.10458 0.0
C965 C 0.23224 0.36094 0.10604 0.0
C966 C 0.21515 0.324 0.12288 0.0
C967 C 0.23311 0.32936 0.14251 0.0
C968 C 0.25031 0.35075 0.14408 0.0
C969 C 0.24976 0.36655 0.12609 0.0
C970 C 0.25923 0.29168 0.18703 0.0
C971 C 0.24216 0.29022 0.20385 0.0
C972 C 0.25546 0.30308 0.16614 0.0
C973 C 0.23443 0.31283 0.16151 0.0
C974 C 0.21626 0.30931 0.17695 0.0
C975 C 0.22012 0.29808 0.1981 0.0
H976 H 0.17241 0.96349 0.03572 0.0
H977 H 0.11575 0.90071 0.03055 0.0
H978 H 0.14261 0.99015 0.03465 0.0
H979 H 0.08553 0.92776 0.02925 0.0
H980 H 0.04162 0.99069 0.0503 0.0
H981 H 0.06939 0.96115 0.05324 0.0
H982 H 0.11286 0.99948 0.00418 0.0
H983 H 0.08532 0.02843 0.00116 0.0
C984 C 0.15354 0.9553 0.03436 0.0
C985 C 0.14656 0.92985 0.03301 0.0
C986 C 0.13637 0.97067 0.03363 0.0
C987 C 0.11157 0.96118 0.03154 0.0
C988 C 0.10447 0.93573 0.03092 0.0
C989 C 0.12178 0.92021 0.03155 0.0
C990 C 0.05699 0.99254 0.03998 0.0
C991 C 0.06122 0.01187 0.02545 0.0
C992 C 0.07291 0.97565 0.04166 0.0
C993 C 0.09356 0.97801 0.02912 0.0
C994 C 0.09747 0.99727 0.01447 0.0
C995 C 0.0816 0.01391 0.0127 0.0
H996 H 0.66622 0.64028 0.96022 0.0
H997 H 0.68991 0.57052 0.95749 0.0
H998 H 0.62565 0.62033 0.96571 0.0
H999 H 0.64932 0.5506 0.96261 0.0
H1000 H 0.58856 0.53376 0.01167 0.0
H1001 H 0.62673 0.55124 -0.00181 0.0
H1002 H 0.58932 0.59102 0.94825 0.0
H1003 H 0.55105 0.57382 0.96194 0.0
C1004 C 0.66263 0.62064 0.96019 0.0
C1005 C 0.68131 0.60701 0.9588 0.0
C1006 C 0.63938 0.6092 0.96329 0.0
C1007 C 0.63445 0.58396 0.96501 0.0
C1008 C 0.65275 0.57015 0.96187 0.0
C1009 C 0.67594 0.58155 0.95877 0.0
C1010 C 0.58841 0.54612 0.99773 0.0
C1011 C 0.56676 0.55242 0.98794 0.0
C1012 C 0.61028 0.55599 0.98985 0.0
C1013 C 0.61098 0.5724 0.97207 0.0
C1014 C 0.58932 0.57852 0.96208 0.0
C1015 C 0.56742 0.56858 0.96989 0.0
H1016 H 0.66055 0.42114 0.26312 0.0
H1017 H 0.71875 0.45993 0.31438 0.0
H1018 H 0.68247 0.3879 0.25709 0.0
H1019 H 0.74021 0.42547 0.31015 0.0
H1020 H 0.78243 0.36755 0.28337 0.0
H1021 H 0.76235 0.40296 0.28769 0.0
H1022 H 0.69319 0.35507 0.27265 0.0
H1023 H 0.7134 0.32084 0.2666 0.0
C1024 C 0.6779 0.42223 0.27358 0.0
C1025 C 0.68785 0.44297 0.28941 0.0
C1026 C 0.69051 0.40301 0.27028 0.0
C1027 C 0.71314 0.40351 0.28338 0.0
C1028 C 0.72305 0.42437 0.29942 0.0
C1029 C 0.71067 0.44405 0.30211 0.0
C1030 C 0.76293 0.36487 0.28058 0.0
C1031 C 0.74948 0.34145 0.27397 0.0
C1032 C 0.75133 0.38511 0.28335 0.0
C1033 C 0.72595 0.38222 0.28033 0.0
C1034 C 0.71269 0.35852 0.27426 0.0
C1035 C 0.72432 0.33858 0.27077 0.0
H1036 H 0.77901 0.44482 0.47525 0.0
H1037 H 0.79264 0.43004 0.54945 0.0
H1038 H 0.82131 0.46117 0.47471 0.0
H1039 H 0.83518 0.44793 0.54958 0.0
H1040 H 0.91455 0.46318 0.53451 0.0
H1041 H 0.8726 0.44444 0.53605 0.0
H1042 H 0.84952 0.49527 0.48822 0.0
H1043 H 0.89138 0.51269 0.48561 0.0
C1044 C 0.79112 0.44532 0.49158 0.0
C1045 C 0.78252 0.43634 0.51246 0.0
C1046 C 0.81542 0.45493 0.49137 0.0
C1047 C 0.83179 0.45642 0.51224 0.0
C1048 C 0.82323 0.44696 0.53308 0.0
C1049 C 0.79885 0.43679 0.5331 0.0
C1050 C 0.90039 0.47021 0.52433 0.0
C1051 C 0.9061 0.48918 0.50975 0.0
C1052 C 0.87633 0.45961 0.52532 0.0
C1053 C 0.85749 0.46808 0.51206 0.0
C1054 C 0.86342 0.48767 0.49812 0.0
C1055 C 0.88743 0.49786 0.49675 0.0
H1056 H 0.32417 0.10805 0.25286 0.0
H1057 H 0.38782 0.16289 0.2542 0.0
H1058 H 0.29987 0.13989 0.25839 0.0
H1059 H 0.36327 0.19491 0.25955 0.0
H1060 H 0.30213 0.24154 0.24195 0.0
H1061 H 0.32845 0.21119 0.23613 0.0
H1062 H 0.2969 0.17195 0.29204 0.0
H1063 H 0.27118 0.20241 0.29822 0.0
C1064 C 0.33299 0.12692 0.2543 0.0
C1065 C 0.35797 0.13291 0.25319 0.0
C1066 C 0.31906 0.14517 0.25756 0.0
C1067 C 0.32966 0.16991 0.25949 0.0
C1068 C 0.35458 0.17599 0.258 0.0
C1069 C 0.36864 0.15767 0.25508 0.0
C1070 C 0.30107 0.22658 0.25316 0.0
C1071 C 0.28469 0.22441 0.27063 0.0
C1072 C 0.31611 0.20921 0.24983 0.0
C1073 C 0.31466 0.18911 0.26356 0.0
C1074 C 0.29826 0.18706 0.281 0.0
C1075 C 0.28356 0.20455 0.28457 0.0
H1076 H 0.29644 0.05174 0.49652 0.0
H1077 H 0.32565 0.1252 0.5271 0.0
H1078 H 0.33433 0.03889 0.50922 0.0
H1079 H 0.36291 0.11222 0.5418 0.0
H1080 H 0.43553 0.08905 0.53349 0.0
H1081 H 0.39698 0.10224 0.52854 0.0
H1082 H 0.36124 0.02977 0.53898 0.0
H1083 H 0.40021 0.0162 0.54194 0.0
C1084 C 0.31097 0.06502 0.5063 0.0
C1085 C 0.30843 0.08948 0.5105 0.0
C1086 C 0.33262 0.05765 0.51393 0.0
C1087 C 0.35194 0.07447 0.5266 0.0
C1088 C 0.34883 0.09882 0.53155 0.0
C1089 C 0.32746 0.10631 0.52322 0.0
C1090 C 0.41945 0.07604 0.53514 0.0
C1091 C 0.42074 0.05155 0.53777 0.0
C1092 C 0.3972 0.08364 0.53245 0.0
C1093 C 0.3757 0.06704 0.53296 0.0
C1094 C 0.37727 0.04292 0.53768 0.0
C1095 C 0.3996 0.03517 0.53975 0.0
H1096 H 0.6483 0.60798 0.29654 0.0
H1097 H 0.70843 0.57499 0.27652 0.0
H1098 H 0.67219 0.64831 0.29632 0.0
H1099 H 0.73247 0.61583 0.27591 0.0
H1100 H 0.74476 0.69345 0.24293 0.0
H1101 H 0.72764 0.65137 0.24837 0.0
H1102 H 0.71015 0.67496 0.31911 0.0
H1103 H 0.72724 0.71689 0.31388 0.0
C1104 C 0.66676 0.60939 0.29233 0.0
C1105 C 0.67652 0.58837 0.28652 0.0
C1106 C 0.68047 0.63249 0.29231 0.0
C1107 C 0.70416 0.63518 0.2861 0.0
C1108 C 0.7142 0.6142 0.28071 0.0
C1109 C 0.70055 0.59092 0.28122 0.0
C1110 C 0.7375 0.68963 0.25975 0.0
C1111 C 0.73718 0.7086 0.27787 0.0
C1112 C 0.72791 0.66551 0.26293 0.0
C1113 C 0.71754 0.65996 0.28413 0.0
C1114 C 0.71794 0.67877 0.30254 0.0
C1115 C 0.72777 0.70279 0.29952 0.0
H1116 H 0.88617 0.46707 0.72538 0.0
H1117 H 0.83866 0.50994 0.75847 0.0
H1118 H 0.85758 0.43012 0.72797 0.0
H1119 H 0.8098 0.47271 0.76083 0.0
H1120 H 0.78503 0.39634 0.78961 0.0
H1121 H 0.80806 0.43612 0.78377 0.0
H1122 H 0.81722 0.40905 0.71108 0.0
H1123 H 0.79457 0.36937 0.71707 0.0
C1124 C 0.86953 0.46866 0.73304 0.0
C1125 C 0.86477 0.49149 0.74178 0.0
C1126 C 0.85304 0.44745 0.73436 0.0
C1127 C 0.83138 0.4485 0.74454 0.0
C1128 C 0.82641 0.47133 0.75303 0.0
C1129 C 0.84289 0.49264 0.75156 0.0
C1130 C 0.79164 0.3991 0.77228 0.0
C1131 C 0.78829 0.37979 0.75388 0.0
C1132 C 0.80474 0.42186 0.7689 0.0
C1133 C 0.81471 0.42561 0.74707 0.0
C1134 C 0.81015 0.40659 0.72825 0.0
C1135 C 0.79709 0.38392 0.73163 0.0
H1136 H 0.96975 0.85333 0.13086 0.0
H1137 H -0.0004 0.81259 0.07551 0.0
H1138 H 0.96856 0.88637 0.10508 0.0
H1139 H -0.00157 0.84578 0.0497 0.0
H1140 H 0.02158 0.92587 0.02908 0.0
H1141 H 0.01991 0.88931 0.05066 0.0
H1142 H 0.94755 0.89504 0.06617 0.0
H1143 H 0.94924 0.93146 0.04464 0.0
C1144 C 0.97588 0.85134 0.11311 0.0
C1145 C 0.98477 0.83034 0.10524 0.0
C1146 C 0.9751 0.87023 0.09829 0.0
C1147 C 0.98341 0.86867 0.07535 0.0
C1148 C 0.99207 0.84756 0.06735 0.0
C1149 C 0.99259 0.82852 0.08208 0.0
C1150 C 0.0052 0.91903 0.03676 0.0
C1151 C 0.98555 0.93147 0.03523 0.0
C1152 C 0.00422 0.89811 0.04908 0.0
C1153 C 0.98365 0.88941 0.06027 0.0
C1154 C 0.96375 0.90147 0.05801 0.0
C1155 C 0.96466 0.92223 0.04555 0.0
H1156 H 0.9587 0.29114 0.78231 0.0
H1157 H 0.93979 0.2737 0.85276 0.0
H1158 H 0.91642 0.28202 0.76636 0.0
H1159 H 0.89709 0.26534 0.83692 0.0
H1160 H 0.82131 0.24084 0.79724 0.0
H1161 H 0.86394 0.24056 0.80982 0.0
H1162 H 0.88382 0.30332 0.77107 0.0
H1163 H 0.84177 0.30319 0.7581 0.0
C1164 C 0.94548 0.28525 0.7944 0.0
C1165 C 0.95257 0.2835 0.8189 0.0
C1166 C 0.9212 0.2801 0.78526 0.0
C1167 C 0.90327 0.27341 0.80044 0.0
C1168 C 0.91042 0.27035 0.82468 0.0
C1169 C 0.93487 0.27524 0.8338 0.0
C1170 C 0.83487 0.25423 0.79102 0.0
C1171 C 0.82812 0.272 0.77661 0.0
C1172 C 0.85927 0.25422 0.79844 0.0
C1173 C 0.87736 0.27189 0.79145 0.0
C1174 C 0.8705 0.28916 0.77649 0.0
C1175 C 0.84627 0.2892 0.76916 0.0
H1176 H 0.53798 0.1872 0.64173 0.0
H1177 H 0.46811 0.18822 0.60401 0.0
H1178 H 0.54311 0.15327 0.61402 0.0
H1179 H 0.47212 0.15263 0.57714 0.0
H1180 H 0.49637 0.1022 0.51863 0.0
H1181 H 0.48949 0.13663 0.54541 0.0
H1182 H 0.5329 0.11279 0.60391 0.0
H1183 H 0.54119 0.07995 0.57647 0.0
C1184 C 0.52349 0.17978 0.62766 0.0
C1185 C 0.50261 0.19023 0.62507 0.0
C1186 C 0.52628 0.16007 0.61182 0.0
C1187 C 0.50788 0.14962 0.59336 0.0
C1188 C 0.48688 0.16019 0.59082 0.0
C1189 C 0.48444 0.18051 0.60631 0.0
C1190 C 0.5044 0.10455 0.53725 0.0
C1191 C 0.51957 0.08879 0.5455 0.0
C1192 C 0.50035 0.12416 0.55273 0.0
C1193 C 0.51092 0.128 0.57695 0.0
C1194 C 0.52515 0.11126 0.58527 0.0
C1195 C 0.52976 0.0922 0.56962 0.0
H1196 H 0.6176 0.79866 0.374 0.0
H1197 H 0.57211 0.77212 0.30751 0.0
H1198 H 0.65334 0.79909 0.35235 0.0
H1199 H 0.60753 0.77184 0.28615 0.0
H1200 H 0.67267 0.7965 0.24841 0.0
H1201 H 0.63864 0.79886 0.27174 0.0
H1202 H 0.677 0.77291 0.33223 0.0
H1203 H 0.71115 0.77097 0.3088 0.0
C1204 C 0.61523 0.7928 0.35482 0.0
C1205 C 0.59201 0.7855 0.34245 0.0
C1206 C 0.63571 0.79293 0.34242 0.0
C1207 C 0.63337 0.7857 0.31742 0.0
C1208 C 0.61009 0.77808 0.30525 0.0
C1209 C 0.58972 0.77806 0.31756 0.0
C1210 C 0.67386 0.79154 0.26678 0.0
C1211 C 0.69467 0.78399 0.27697 0.0
C1212 C 0.65431 0.79271 0.28013 0.0
C1213 C 0.65495 0.78595 0.3039 0.0
C1214 C 0.67599 0.77864 0.31416 0.0
C1215 C 0.69564 0.77764 0.3008 0.0
H1216 H 0.98661 0.17442 0.4368 0.0
H1217 H 0.02632 0.2172 0.50032 0.0
H1218 H 0.98487 0.13786 0.45781 0.0
H1219 H 0.02412 0.18061 0.52156 0.0
H1220 H 0.0463 0.10533 0.53346 0.0
H1221 H 0.04308 0.14444 0.51803 0.0
H1222 H 0.96864 0.11698 0.4907 0.0
H1223 H 0.9721 0.07787 0.50595 0.0
C1224 C 0.99456 0.17609 0.45541 0.0
C1225 C 0.00678 0.19862 0.46685 0.0
C1226 C 0.99346 0.15516 0.4675 0.0
C1227 C 0.00449 0.15636 0.4913 0.0
C1228 C 0.01577 0.17909 0.50311 0.0
C1229 C 0.01689 0.20004 0.49099 0.0
C1230 C 0.0292 0.10787 0.52446 0.0
C1231 C 0.00955 0.08865 0.52047 0.0
C1232 C 0.02729 0.13024 0.51572 0.0
C1233 C 0.00564 0.1337 0.50299 0.0
C1234 C 0.98567 0.1147 0.50005 0.0
C1235 C 0.98763 0.09236 0.50873 0.0
H1236 H 0.58229 0.28762 0.10547 0.0
H1237 H 0.54947 0.31876 0.16473 0.0
H1238 H 0.61953 0.2895 0.13258 0.0
H1239 H 0.58626 0.32046 0.19148 0.0
H1240 H 0.63675 0.27639 0.2338 0.0
H1241 H 0.6031 0.28297 0.2057 0.0
H1242 H 0.65323 0.31984 0.16137 0.0
H1243 H 0.68688 0.31356 0.18961 0.0
C1244 C 0.58326 0.29539 0.12403 0.0
C1245 C 0.56298 0.3026 0.13319 0.0
C1246 C 0.60444 0.29645 0.13949 0.0
C1247 C 0.60538 0.30467 0.16412 0.0
C1248 C 0.58572 0.31362 0.17267 0.0
C1249 C 0.56475 0.31266 0.15733 0.0
C1250 C 0.6405 0.28614 0.21822 0.0
C1251 C 0.66424 0.2945 0.21379 0.0
C1252 C 0.62135 0.28994 0.20221 0.0
C1253 C 0.62575 0.30189 0.18145 0.0
C1254 C 0.6495 0.31049 0.1772 0.0
C1255 C 0.66863 0.307 0.1934 0.0
H1256 H 0.57252 0.86874 0.94643 0.0
H1257 H 0.52833 0.82513 0.99142 0.0
H1258 H 0.56887 0.90538 0.97134 0.0
H1259 H 0.52487 0.86199 0.01656 0.0
H1260 H 0.56442 0.96915 0.01975 0.0
H1261 H 0.57642 0.92976 0.01092 0.0
H1262 H 0.50196 0.89459 0.00604 0.0
H1263 H 0.48992 0.93387 0.01516 0.0
C1264 C 0.56253 0.86691 0.96201 0.0
C1265 C 0.55037 0.84408 0.96668 0.0
C1266 C 0.56059 0.88792 0.97643 0.0
C1267 C 0.54638 0.88657 0.9958 0.0
C1268 C 0.53571 0.86357 0.00159 0.0
C1269 C 0.5378 0.84249 0.98723 0.0
C1270 C 0.55064 0.95296 0.01739 0.0
C1271 C 0.52613 0.95469 0.01755 0.0
C1272 C 0.55756 0.93041 0.01231 0.0
C1273 C 0.54011 0.90918 0.00734 0.0
C1274 C 0.51586 0.91062 0.00987 0.0
C1275 C 0.50893 0.9332 0.01497 0.0
H1276 H 0.9621 0.76148 0.69576 0.0
H1277 H 0.92518 0.79139 0.63697 0.0
H1278 H 0.92977 0.76641 0.72029 0.0
H1279 H 0.89219 0.79544 0.66133 0.0
H1280 H 0.8514 0.82534 0.71967 0.0
H1281 H 0.8846 0.82019 0.6959 0.0
H1282 H 0.88887 0.7514 0.72483 0.0
H1283 H 0.85638 0.75717 0.74928 0.0
C1284 C 0.94686 0.76871 0.68788 0.0
C1285 C 0.94625 0.77614 0.66441 0.0
C1286 C 0.92826 0.77148 0.70198 0.0
C1287 C 0.90848 0.78148 0.69285 0.0
C1288 C 0.90745 0.78815 0.66907 0.0
C1289 C 0.92622 0.7856 0.65502 0.0
C1290 C 0.85977 0.80934 0.72117 0.0
C1291 C 0.85155 0.79171 0.73631 0.0
C1292 C 0.87853 0.80622 0.70736 0.0
C1293 C 0.88919 0.78524 0.70824 0.0
C1294 C 0.88125 0.76789 0.72391 0.0
C1295 C 0.86266 0.77117 0.73792 0.0
H1296 H 0.05084 0.99147 0.82267 0.0
H1297 H 0.12158 0.99629 0.86124 0.0
H1298 H 0.03287 0.98949 0.86063 0.0
H1299 H 0.10347 0.99473 0.89949 0.0
H1300 H 0.06137 0.03748 0.95435 0.0
H1301 H 0.08161 0.02812 0.91901 0.0
H1302 H 0.0275 0.96395 0.89804 0.0
H1303 H 0.0073 0.97312 0.93402 0.0
C1304 C 0.06251 0.99179 0.83927 0.0
C1305 C 0.08763 0.99434 0.83909 0.0
C1306 C 0.05218 0.9904 0.86094 0.0
C1307 C 0.06679 0.99198 0.88291 0.0
C1308 C 0.09185 0.99348 0.88271 0.0
C1309 C 0.10218 0.99436 0.8609 0.0
C1310 C 0.05385 0.02127 0.94229 0.0
C1311 C 0.03255 0.00622 0.94661 0.0
C1312 C 0.06563 0.01576 0.92226 0.0
C1313 C 0.05614 0.9953 0.90589 0.0
C1314 C 0.03515 0.97982 0.91048 0.0
C1315 C 0.02361 0.98506 0.93094 0.0
H1316 H 0.70225 0.31257 0.57968 0.0
H1317 H 0.74487 0.379 0.6161 0.0
H1318 H 0.70944 0.29172 0.61566 0.0
H1319 H 0.75173 0.35827 0.6523 0.0
H1320 H 0.77813 0.30607 0.70513 0.0
H1321 H 0.77226 0.32752 0.66907 0.0
H1322 H 0.69841 0.29012 0.65602 0.0
H1323 H 0.7044 0.26888 0.69192 0.0
C1324 C 0.71314 0.32276 0.59538 0.0
C1325 C 0.72293 0.34751 0.59492 0.0
C1326 C 0.71715 0.31083 0.61613 0.0
C1327 C 0.73111 0.32326 0.63708 0.0
C1328 C 0.74112 0.34797 0.63651 0.0
C1329 C 0.73705 0.35993 0.61575 0.0
C1330 C 0.76059 0.30275 0.69471 0.0
C1331 C 0.74169 0.28597 0.7015 0.0
C1332 C 0.7572 0.31498 0.67397 0.0
C1333 C 0.73484 0.31057 0.65944 0.0
C1334 C 0.71599 0.29374 0.66641 0.0
C1335 C 0.71939 0.2816 0.68709 0.0
H1336 H 0.42229 0.08188 0.3299 0.0
H1337 H 0.47631 0.03929 0.31108 0.0
H1338 H 0.43555 0.08102 0.37286 0.0
H1339 H 0.48892 0.03791 0.35341 0.0
H1340 H 0.52155 0.05428 0.42967 0.0
H1341 H 0.50923 0.06208 0.3886 0.0
H1342 H 0.4349 0.05242 0.40367 0.0
H1343 H 0.44736 0.04532 0.44519 0.0
C1344 C 0.43704 0.07249 0.33486 0.0
C1345 C 0.4482 0.06069 0.31696 0.0
C1346 C 0.44452 0.07184 0.35948 0.0
C1347 C 0.46338 0.05946 0.36666 0.0
C1348 C 0.47467 0.04802 0.34867 0.0
C1349 C 0.46726 0.04867 0.32426 0.0
C1350 C 0.50258 0.05396 0.42434 0.0
C1351 C 0.48543 0.04891 0.44071 0.0
C1352 C 0.49548 0.05836 0.4007 0.0
C1353 C 0.47101 0.05757 0.39265 0.0
C1354 C 0.45391 0.05336 0.40927 0.0
C1355 C 0.46106 0.04914 0.43305 0.0
H1356 H 0.70577 0.65858 0.06838 0.0
H1357 H 0.77377 0.69582 0.04969 0.0
H1358 H 0.70961 0.68722 0.10474 0.0
H1359 H 0.77765 0.72402 0.08618 0.0
H1360 H 0.78628 0.73667 0.17251 0.0
H1361 H 0.7822 0.71418 0.1324 0.0
H1362 H 0.71318 0.73582 0.11555 0.0
H1363 H 0.71749 0.75882 0.1555 0.0
C1364 C 0.72141 0.67293 0.07195 0.0
C1365 C 0.73951 0.67491 0.05629 0.0
C1366 C 0.72351 0.68935 0.0926 0.0
C1367 C 0.74393 0.70768 0.09808 0.0
C1368 C 0.76179 0.70996 0.08225 0.0
C1369 C 0.75949 0.69386 0.0614 0.0
C1370 C 0.77046 0.73693 0.16005 0.0
C1371 C 0.75217 0.74934 0.16694 0.0
C1372 C 0.76816 0.72417 0.13718 0.0
C1373 C 0.74734 0.72329 0.12112 0.0
C1374 C 0.72933 0.73623 0.12777 0.0
C1375 C 0.73186 0.74941 0.15048 0.0
H1376 H 0.14026 0.97352 0.68692 0.0
H1377 H 0.0757 0.98843 0.71647 0.0
H1378 H 0.1202 0.97245 0.64606 0.0
H1379 H 0.05606 0.98856 0.67592 0.0
H1380 H 0.0199 0.97488 0.60056 0.0
H1381 H 0.03919 0.9656 0.6389 0.0
H1382 H 0.10815 0.00121 0.62083 0.0
H1383 H 0.08895 0.00962 0.58239 0.0
C1384 C 0.12179 0.97657 0.68463 0.0
C1385 C 0.10956 0.98118 0.70477 0.0
C1386 C 0.11031 0.97604 0.66127 0.0
C1387 C 0.08653 0.98052 0.65767 0.0
C1388 C 0.0742 0.98458 0.67794 0.0
C1389 C 0.08553 0.98472 0.70122 0.0
C1390 C 0.03923 0.98032 0.60473 0.0
C1391 C 0.05296 0.99316 0.58877 0.0
C1392 C 0.05027 0.97518 0.62671 0.0
C1393 C 0.0752 0.9829 0.63309 0.0
C1394 C 0.08899 0.99473 0.61646 0.0
C1395 C 0.07798 -0.00025 0.59449 0.0
H1396 H 0.71959 0.3261 0.46434 0.0
H1397 H 0.68267 0.37328 0.42265 0.0
H1398 H 0.72574 0.30309 0.42682 0.0
H1399 H 0.68931 0.35095 0.38553 0.0
H1400 H 0.6903 0.29862 0.32077 0.0
H1401 H 0.67954 0.31436 0.35947 0.0
H1402 H 0.74974 0.30813 0.39356 0.0
H1403 H 0.76026 0.29169 0.35494 0.0
C1404 C 0.71249 0.33138 0.44725 0.0
C1405 C 0.70067 0.35164 0.44665 0.0
C1406 C 0.71624 0.31834 0.42568 0.0
C1407 C 0.70817 0.32515 0.40297 0.0
C1408 C 0.69555 0.34483 0.40252 0.0
C1409 C 0.69185 0.35781 0.42396 0.0
C1410 C 0.70339 0.30031 0.33654 0.0
C1411 C 0.72624 0.29393 0.33456 0.0
C1412 C 0.69725 0.30953 0.3588 0.0
C1413 C 0.7138 0.31282 0.37978 0.0
C1414 C 0.73636 0.30566 0.37796 0.0
C1415 C 0.74248 0.29633 0.35568 0.0
H1416 H 0.46394 0.05405 0.19723 0.0
H1417 H 0.40965 0.08047 0.15212 0.0
H1418 H 0.48314 0.04296 0.16191 0.0
H1419 H 0.42983 0.07104 0.11662 0.0
H1420 H 0.45843 0.03264 0.05376 0.0
H1421 H 0.43801 0.04148 0.08909 0.0
H1422 H 0.50681 0.05635 0.13334 0.0
H1423 H 0.52668 0.04549 0.09829 0.0
C1424 C 0.45632 0.05787 0.17971 0.0
C1425 C 0.43528 0.06817 0.17747 0.0
C1426 C 0.46748 0.05166 0.15934 0.0
C1427 C 0.45829 0.05614 0.13611 0.0
C1428 C 0.43731 0.06678 0.13399 0.0
C1429 C 0.4258 0.07245 0.15438 0.0
C1430 C 0.46906 0.03731 0.07117 0.0
C1431 C 0.4941 0.03799 0.07331 0.0
C1432 C 0.45741 0.04282 0.09146 0.0
C1433 C 0.4706 0.04976 0.11438 0.0
C1434 C 0.49577 0.05056 0.11631 0.0
C1435 C 0.50729 0.04449 0.09612 0.0
H1436 H 0.79197 0.66664 0.9048 0.0
H1437 H 0.78376 0.72476 0.95777 0.0
H1438 H 0.79878 0.69598 0.87508 0.0
H1439 H 0.79075 0.75402 0.92812 0.0
H1440 H 0.81625 0.7546 0.82674 0.0
H1441 H 0.82381 0.73354 0.8626 0.0
H1442 H 0.76274 0.75764 0.89197 0.0
H1443 H 0.75522 0.77864 0.8563 0.0
C1444 C 0.79225 0.68573 0.91028 0.0
C1445 C 0.78689 0.69332 0.93346 0.0
C1446 C 0.7963 0.70258 0.89331 0.0
C1447 C 0.79501 0.72724 0.89925 0.0
C1448 C 0.79151 0.73507 0.92299 0.0
C1449 C 0.78754 0.71828 0.93994 0.0
C1450 C 0.80494 0.75607 0.84123 0.0
C1451 C 0.78504 0.76814 0.83869 0.0
C1452 C 0.80916 0.74383 0.86163 0.0
C1453 C 0.79377 0.7438 0.87996 0.0
C1454 C 0.77505 0.7575 0.87824 0.0
C1455 C 0.77066 0.76945 0.85775 0.0
H1456 H 0.84775 0.1156 0.96508 0.0
H1457 H 0.8663 0.11961 0.04217 0.0
H1458 H 0.88031 0.09215 0.9587 0.0
H1459 H 0.89936 0.0972 0.03575 0.0
H1460 H 0.97007 0.07623 0.00614 0.0
H1461 H 0.94123 0.10412 0.00695 0.0
H1462 H 0.88371 0.04476 0.98019 0.0
H1463 H 0.91268 0.0165 0.97997 0.0
C1464 C 0.85931 0.11221 0.98058 0.0
C1465 C 0.8547 0.11965 0.00411 0.0
C1466 C 0.87775 0.09865 0.97694 0.0
C1467 C 0.8923 0.09293 0.99675 0.0
C1468 C 0.88849 0.1015 0.02019 0.0
C1469 C 0.86966 0.11438 0.02384 0.0
C1470 C 0.95154 0.0691 -0.00028 0.0
C1471 C 0.94389 0.04409 0.99259 0.0
C1472 C 0.93492 0.08514 0.0004 0.0
C1473 C 0.91029 0.07663 0.99342 0.0
C1474 C 0.90266 0.05184 0.98538 0.0
C1475 C 0.91924 0.0357 0.9853 0.0
H1476 H 0.31013 0.4751 0.00672 0.0
H1477 H 0.3191 0.43613 0.06984 0.0
H1478 H 0.35275 0.49068 0.01106 0.0
H1479 H 0.3626 0.45242 0.07439 0.0
H1480 H 0.44157 0.46605 0.04516 0.0
H1481 H 0.39964 0.44997 0.05115 0.0
H1482 H 0.38042 0.52026 0.04015 0.0
H1483 H 0.42171 0.5358 0.03328 0.0
C1484 C 0.32117 0.46999 0.02172 0.0
C1485 C 0.31113 0.4546 0.03814 0.0
C1486 C 0.34567 0.47908 0.02427 0.0
C1487 C 0.36087 0.47323 0.0434 0.0
C1488 C 0.35115 0.45732 0.05959 0.0
C1489 C 0.32635 0.44807 0.05699 0.0
C1490 C 0.42837 0.47808 0.04463 0.0
C1491 C 0.43448 0.50192 0.0383 0.0
C1492 C 0.40451 0.46895 0.04813 0.0
C1493 C 0.38678 0.48376 0.04557 0.0
C1494 C 0.39364 0.5083 0.04162 0.0
C1495 C 0.4172 0.5172 0.03772 0.0
H1496 H 0.33014 0.62038 0.77812 0.0
H1497 H 0.28506 0.59533 0.71117 0.0
H1498 H 0.30787 0.65352 0.78489 0.0
H1499 H 0.26354 0.62944 0.71704 0.0
H1500 H 0.21807 0.68486 0.741 0.0
H1501 H 0.23659 0.64834 0.73777 0.0
H1502 H 0.30417 0.69075 0.77153 0.0
H1503 H 0.28511 0.72637 0.77554 0.0
C1504 C 0.31549 0.62207 0.76477 0.0
C1505 C 0.30942 0.60536 0.74406 0.0
C1506 C 0.30279 0.64123 0.76852 0.0
C1507 C 0.28402 0.64456 0.75137 0.0
C1508 C 0.27763 0.62742 0.73085 0.0
C1509 C 0.29006 0.60791 0.72736 0.0
C1510 C 0.23679 0.68614 0.74804 0.0
C1511 C 0.2501 0.70839 0.75904 0.0
C1512 C 0.24751 0.66527 0.74599 0.0
C1513 C 0.27197 0.66635 0.75447 0.0
C1514 C 0.28516 0.68879 0.76541 0.0
C1515 C 0.27426 0.7094 0.76782 0.0
H1516 H 0.22655 0.59683 0.48457 0.0
H1517 H 0.20337 0.664 0.50819 0.0
H1518 H 0.18663 0.57417 0.48887 0.0
H1519 H 0.16354 0.64137 0.51237 0.0
H1520 H 0.10595 0.58987 0.54445 0.0
H1521 H 0.14615 0.61142 0.53947 0.0
H1522 H 0.14383 0.56957 0.47043 0.0
H1523 H 0.10364 0.54794 0.47551 0.0
C1524 C 0.2129 0.60676 0.49051 0.0
C1525 C 0.21811 0.63218 0.49611 0.0
C1526 C 0.19004 0.5938 0.49291 0.0
C1527 C 0.17205 0.606 0.50112 0.0
C1528 C 0.17717 0.63145 0.50634 0.0
C1529 C 0.19993 0.64441 0.50378 0.0
C1530 C 0.11413 0.58521 0.5283 0.0
C1531 C 0.10178 0.56731 0.51035 0.0
C1532 C 0.13702 0.59763 0.52536 0.0
C1533 C 0.14804 0.59227 0.50449 0.0
C1534 C 0.13584 0.57397 0.48676 0.0
C1535 C 0.11285 0.56166 0.48963 0.0
H1536 H 0.69514 0.95286 0.77078 0.0
H1537 H 0.63654 0.89858 0.78636 0.0
H1538 H 0.72218 0.92336 0.7729 0.0
H1539 H 0.66388 0.86908 0.78942 0.0
H1540 H 0.71281 0.81564 0.76434 0.0
H1541 H 0.68513 0.84469 0.76568 0.0
H1542 H 0.74379 0.90103 0.79802 0.0
H1543 H 0.77144 0.87178 0.79607 0.0
C1544 C 0.68807 0.93467 0.77498 0.0
C1545 C 0.66361 0.92813 0.77836 0.0
C1546 C 0.70368 0.91771 0.77638 0.0
C1547 C 0.69539 0.89368 0.78141 0.0
C1548 C 0.67094 0.88725 0.78517 0.0
C1549 C 0.65525 0.90422 0.78358 0.0
C1550 C 0.71961 0.83404 0.77234 0.0
C1551 C 0.74417 0.8413 0.7806 0.0
C1552 C 0.70375 0.85084 0.77302 0.0
C1553 C 0.71205 0.87538 0.782 0.0
C1554 C 0.73668 0.88246 0.79061 0.0
C1555 C 0.75255 0.86567 0.78971 0.0
H1556 H 0.71213 0.98282 0.5235 0.0
H1557 H 0.65721 0.91874 0.52016 0.0
H1558 H 0.68374 0.00383 0.50212 0.0
H1559 H 0.62805 0.94037 0.5004 0.0
H1560 H 0.57844 0.9788 0.46113 0.0
H1561 H 0.61319 0.95835 0.46695 0.0
H1562 H 0.6519 0.02198 0.51216 0.0
H1563 H 0.61792 0.04257 0.50513 0.0
C1564 C 0.69387 0.97328 0.51833 0.0
C1565 C 0.68673 0.94925 0.52373 0.0
C1566 C 0.67755 0.98536 0.50609 0.0
C1567 C 0.65348 0.97396 0.49967 0.0
C1568 C 0.64652 0.94965 0.50462 0.0
C1569 C 0.66308 0.93732 0.51629 0.0
C1570 C 0.59482 0.98866 0.47146 0.0
C1571 C 0.59549 0.01205 0.48304 0.0
C1572 C 0.61459 0.97685 0.47511 0.0
C1573 C 0.63513 0.98819 0.49063 0.0
C1574 C 0.63653 0.01259 0.50004 0.0
C1575 C 0.61696 0.02446 0.49609 0.0
H1576 H 0.29865 0.47121 0.72486 0.0
H1577 H 0.36703 0.45045 0.74715 0.0
H1578 H 0.27787 0.43035 0.73108 0.0
H1579 H 0.34624 0.41014 0.75391 0.0
H1580 H 0.2961 0.35412 0.79154 0.0
H1581 H 0.31368 0.39557 0.78475 0.0
H1582 H 0.28003 0.38365 0.71121 0.0
H1583 H 0.26272 0.3418 0.71771 0.0
C1584 C 0.30921 0.45798 0.73111 0.0
C1585 C 0.33448 0.46402 0.73545 0.0
C1586 C 0.29734 0.43465 0.73458 0.0
C1587 C 0.3105 0.41723 0.74305 0.0
C1588 C 0.33569 0.42332 0.7475 0.0
C1589 C 0.34757 0.44635 0.7435 0.0
C1590 C 0.29221 0.36033 0.77397 0.0
C1591 C 0.27808 0.34459 0.75513 0.0
C1592 C 0.30236 0.38404 0.77009 0.0
C1593 C 0.29822 0.39271 0.74746 0.0
C1594 C 0.28338 0.37738 0.72885 0.0
C1595 C 0.2736 0.35344 0.73256 0.0
H1596 H 0.17121 0.55749 0.29625 0.0
H1597 H 0.12855 0.57997 0.23662 0.0
H1598 H 0.20016 0.59566 0.29793 0.0
H1599 H 0.15762 0.61759 0.23805 0.0
H1600 H 0.22755 0.66877 0.23093 0.0
H1601 H 0.20367 0.62814 0.23102 0.0
H1602 H 0.19667 0.64315 0.30684 0.0
H1603 H 0.22024 0.68411 0.30669 0.0
C1604 C 0.16809 0.57048 0.28346 0.0
C1605 C 0.14757 0.56577 0.26635 0.0
C1606 C 0.1846 0.59228 0.28447 0.0
C1607 C 0.18115 0.60941 0.26801 0.0
C1608 C 0.1608 0.60456 0.25078 0.0
C1609 C 0.14409 0.5831 0.25009 0.0
C1610 C 0.22129 0.66324 0.24772 0.0
C1611 C 0.22559 0.67957 0.26877 0.0
C1612 C 0.20755 0.64007 0.24772 0.0
C1613 C 0.19823 0.63265 0.26889 0.0
C1614 C 0.20375 0.64844 0.29032 0.0
C1615 C 0.21716 0.67182 0.29022 0.0
H1616 H 0.48828 0.70167 0.40026 0.0
H1617 H 0.55068 0.73859 0.4474 0.0
H1618 H 0.48661 0.66654 0.42332 0.0
H1619 H 0.55009 0.70281 0.46973 0.0
H1620 H 0.53179 0.6398 0.51661 0.0
H1621 H 0.53208 0.67731 0.49663 0.0
H1622 H 0.50585 0.634 0.42863 0.0
H1623 H 0.50425 0.59721 0.44884 0.0
C1624 C 0.50177 0.70217 0.4155 0.0
C1625 C 0.51967 0.72282 0.42193 0.0
C1626 C 0.50099 0.68191 0.42867 0.0
C1627 C 0.51849 0.68146 0.44827 0.0
C1628 C 0.53615 0.70242 0.45497 0.0
C1629 C 0.5366 0.72293 0.44207 0.0
C1630 C 0.5261 0.63851 0.49741 0.0
C1631 C 0.51783 0.61568 0.4843 0.0
C1632 C 0.52633 0.65995 0.48588 0.0
C1633 C 0.51867 0.65889 0.46094 0.0
C1634 C 0.51113 0.63582 0.44792 0.0
C1635 C 0.51045 0.6146 0.45948 0.0
H1636 H 0.55174 0.28144 0.72996 0.0
H1637 H 0.58333 0.2962 0.66407 0.0
H1638 H 0.59205 0.28518 0.75155 0.0
H1639 H 0.62354 0.29992 0.68563 0.0
H1640 H 0.69281 0.32436 0.73533 0.0
H1641 H 0.6519 0.32595 0.71822 0.0
H1642 H 0.62539 0.2606 0.75047 0.0
H1643 H 0.66631 0.25896 0.76771 0.0
C1644 C 0.56728 0.28574 0.72014 0.0
C1645 C 0.56435 0.28846 0.69528 0.0
C1646 C 0.59034 0.28775 0.73249 0.0
C1647 C 0.61096 0.29281 0.72029 0.0
C1648 C 0.60802 0.29626 0.6956 0.0
C1649 C 0.58498 0.29399 0.68321 0.0
C1650 C 0.67824 0.31056 0.73919 0.0
C1651 C 0.68289 0.2915 0.7529 0.0
C1652 C 0.65481 0.31138 0.72919 0.0
C1653 C 0.63545 0.29332 0.73285 0.0
C1654 C 0.63991 0.27488 0.74746 0.0
C1655 C 0.66339 0.27391 0.75727 0.0
H1656 H 0.01477 0.39577 0.87498 0.0
H1657 H 0.02185 0.35488 0.93688 0.0
H1658 H 0.00589 0.42971 0.90095 0.0
H1659 H 0.0131 0.38906 0.96287 0.0
H1660 H 0.02196 0.46718 0.00291 0.0
H1661 H 0.0321 0.43335 0.97741 0.0
H1662 H 0.97142 0.43671 0.92552 0.0
H1663 H 0.96131 0.47053 0.95106 0.0
C1664 C 0.01461 0.39406 0.89414 0.0
C1665 C 0.019 0.37256 0.90383 0.0
C1666 C 0.00936 0.41347 0.90898 0.0
C1667 C 0.00871 0.41198 0.9339 0.0
C1668 C 0.01361 0.39074 0.94373 0.0
C1669 C 0.01852 0.37115 0.92882 0.0
C1670 C 0.01083 0.46066 0.98604 0.0
C1671 C 0.9909 0.47146 0.97887 0.0
C1672 C 0.01654 0.44125 0.97154 0.0
C1673 C 0.00257 0.43243 0.94947 0.0
C1674 C 0.98263 0.44328 0.94233 0.0
C1675 C 0.97676 0.46251 0.95698 0.0
H1676 H 0.91067 0.76534 0.17022 0.0
H1677 H 0.94049 0.75248 0.24111 0.0
H1678 H 0.87145 0.76566 0.1852 0.0
H1679 H 0.90208 0.75403 0.25633 0.0
H1680 H 0.82787 0.74039 0.27707 0.0
H1681 H 0.8631 0.73395 0.25708 0.0
H1682 H 0.85012 0.78879 0.20948 0.0
H1683 H 0.81404 0.79399 0.22868 0.0
C1684 C 0.90887 0.76269 0.189 0.0
C1685 C 0.9287 0.7588 0.20443 0.0
C1686 C 0.88641 0.76299 0.19766 0.0
C1687 C 0.88337 0.75975 0.22202 0.0
C1688 C 0.90334 0.75594 0.23734 0.0
C1689 C 0.92557 0.75526 0.22863 0.0
C1690 C 0.83243 0.75078 0.2621 0.0
C1691 C 0.81844 0.76783 0.25457 0.0
C1692 C 0.85276 0.74729 0.25074 0.0
C1693 C 0.85992 0.76121 0.23191 0.0
C1694 C 0.84521 0.77758 0.22375 0.0
C1695 C 0.82457 0.7807 0.23484 0.0
H1696 H 0.44914 0.33824 0.03924 0.0
H1697 H 0.5184 0.36566 0.07959 0.0
H1698 H 0.45128 0.37605 0.01976 0.0
H1699 H 0.52202 0.40207 0.05872 0.0
H1700 H 0.51413 0.47562 0.03835 0.0
H1701 H 0.5102 0.43806 0.05712 0.0
H1702 H 0.46687 0.40077 0.99252 0.0
H1703 H 0.46893 0.43963 0.97514 0.0
C1704 C 0.46492 0.35233 0.04365 0.0
C1705 C 0.4834 0.34945 0.06112 0.0
C1706 C 0.46636 0.37391 0.03235 0.0
C1707 C 0.48674 0.39255 0.03774 0.0
C1708 C 0.50558 0.38885 0.05464 0.0
C1709 C 0.50367 0.36782 0.06651 0.0
C1710 C 0.50381 0.45942 0.02829 0.0
C1711 C 0.49187 0.46053 0.00547 0.0
C1712 C 0.50168 0.43761 0.03888 0.0
C1713 C 0.48841 0.41593 0.02636 0.0
C1714 C 0.47688 0.417 0.00305 0.0
C1715 C 0.4783 0.43919 0.99289 0.0
H1716 H 0.93731 0.26102 0.39873 0.0
H1717 H 0.96819 0.27076 0.33158 0.0
H1718 H 0.8968 0.25645 0.37708 0.0
H1719 H 0.92814 0.26517 0.30995 0.0
H1720 H 0.8597 0.29401 0.28815 0.0
H1721 H 0.89881 0.29134 0.30854 0.0
H1722 H 0.86586 0.23247 0.3466 0.0
H1723 H 0.82625 0.23574 0.32646 0.0
C1724 C 0.93537 0.26176 0.37934 0.0
C1725 C 0.95573 0.26684 0.36686 0.0
C1726 C 0.91226 0.25898 0.36693 0.0
C1727 C 0.90936 0.2609 0.34189 0.0
C1728 C 0.92982 0.26431 0.32933 0.0
C1729 C 0.95274 0.26749 0.34172 0.0
C1730 C 0.86083 0.28036 0.30071 0.0
C1731 C 0.8401 0.26511 0.30582 0.0
C1732 C 0.88325 0.2787 0.31229 0.0
C1733 C 0.88543 0.26156 0.32907 0.0
C1734 C 0.86466 0.24595 0.33389 0.0
C1735 C 0.8421 0.24772 0.3223 0.0
H1736 H 0.03604 0.70563 0.5875 0.0
H1737 H 0.97069 0.72131 0.55028 0.0
H1738 H 0.03237 0.66825 0.56081 0.0
H1739 H 0.96688 0.68338 0.52358 0.0
H1740 H 0.95841 0.59487 0.51712 0.0
H1741 H 0.95972 0.63732 0.53242 0.0
H1742 H 0.03306 0.65504 0.51552 0.0
H1743 H 0.0319 0.6128 0.50011 0.0
C1744 C 0.02095 0.70114 0.57352 0.0
C1745 C 0.0036 0.71633 0.57103 0.0
C1746 C 0.01897 0.67985 0.5581 0.0
C1747 C -0.00056 0.67308 0.54004 0.0
C1748 C 0.98213 0.6883 0.53734 0.0
C1749 C 0.98435 0.70994 0.55255 0.0
C1750 C 0.97457 0.60794 0.51595 0.0
C1751 C 0.99523 0.60033 0.50788 0.0
C1752 C 0.97527 0.63226 0.52467 0.0
C1753 C -0.00336 0.64925 0.52551 0.0
C1754 C 0.01649 0.64214 0.51537 0.0
C1755 C 0.01576 0.61794 0.50651 0.0
H1756 H 0.60804 0.73691 0.90479 0.0
H1757 H 0.55722 0.75982 0.85236 0.0
H1758 H 0.6364 0.7357 0.87402 0.0
H1759 H 0.58548 0.75896 0.82234 0.0
H1760 H 0.66292 0.795 0.80159 0.0
H1761 H 0.63069 0.78875 0.82787 0.0
H1762 H 0.63503 0.71222 0.82533 0.0
H1763 H 0.66693 0.71833 0.79827 0.0
C1764 C 0.60287 0.74143 0.88677 0.0
C1765 C 0.58059 0.74871 0.88107 0.0
C1766 C 0.61893 0.74057 0.86922 0.0
C1767 C 0.61288 0.74725 0.84602 0.0
C1768 C 0.59039 0.75374 0.84016 0.0
C1769 C 0.57433 0.75429 0.85743 0.0
C1770 C 0.65653 0.77676 0.80616 0.0
C1771 C 0.66708 0.7571 0.79791 0.0
C1772 C 0.63829 0.77322 0.82122 0.0
C1773 C 0.63079 0.75008 0.82864 0.0
C1774 C 0.64079 0.73021 0.81983 0.0
C1775 C 0.65871 0.73366 0.80423 0.0
H1776 H 0.36939 0.5304 0.64488 0.0
H1777 H 0.42427 0.58259 0.68914 0.0
H1778 H 0.39759 0.52621 0.61469 0.0
H1779 H 0.45229 0.57859 0.65887 0.0
H1780 H 0.48409 0.57859 0.5834 0.0
H1781 H 0.45725 0.58595 0.6141 0.0
H1782 H 0.43724 0.50844 0.61685 0.0
H1783 H 0.46411 0.50093 0.58659 0.0
C1784 C 0.38729 0.5413 0.64793 0.0
C1785 C 0.39468 0.55673 0.66937 0.0
C1786 C 0.40347 0.53875 0.6308 0.0
C1787 C 0.42718 0.5519 0.63463 0.0
C1788 C 0.43414 0.56827 0.65547 0.0
C1789 C 0.41811 0.57052 0.67277 0.0
C1790 C 0.47436 0.56313 0.5909 0.0
C1791 C 0.47623 0.53917 0.5824 0.0
C1792 C 0.45891 0.56736 0.60837 0.0
C1793 C 0.44484 0.54773 0.61742 0.0
C1794 C 0.44752 0.52388 0.60978 0.0
C1795 C 0.46316 0.51964 0.59262 0.0
H1796 H 0.76593 0.23585 0.95097 0.0
H1797 H 0.81384 0.19561 0.91536 0.0
H1798 H 0.75899 0.25639 0.91447 0.0
H1799 H 0.80751 0.21688 0.87915 0.0
H1800 H 0.80902 0.28763 0.83521 0.0
H1801 H 0.81598 0.26557 0.87065 0.0
H1802 H 0.7396 0.23904 0.86723 0.0
H1803 H 0.73268 0.2605 0.83112 0.0
C1804 C 0.77526 0.23164 0.93549 0.0
C1805 C 0.79055 0.21416 0.93615 0.0
C1806 C 0.7711 0.24326 0.91454 0.0
C1807 C 0.78261 0.23815 0.89394 0.0
C1808 C 0.79839 0.22116 0.89476 0.0
C1809 C 0.80204 0.20903 0.9155 0.0
C1810 C 0.79371 0.277 0.84196 0.0
C1811 C 0.77028 0.27585 0.83047 0.0
C1812 C 0.79773 0.26432 0.86218 0.0
C1813 C 0.77834 0.25071 0.87178 0.0
C1814 C 0.75487 0.24951 0.86028 0.0
C1815 C 0.75092 0.26168 0.83961 0.0
H1816 H 0.1124 0.48666 0.17774 0.0
H1817 H 0.04295 0.47079 0.20459 0.0
H1818 H 0.09288 0.49445 0.13915 0.0
H1819 H 0.02326 0.47804 0.16565 0.0
H1820 H 0.0009 0.52204 0.10226 0.0
H1821 H 0.01799 0.51098 0.14092 0.0
H1822 H 0.06809 0.47496 0.1038 0.0
H1823 H 0.05154 0.4864 0.06561 0.0
C1824 C 0.09292 0.48449 0.1753 0.0
C1825 C 0.07928 0.47808 0.19429 0.0
C1826 C 0.08166 0.48887 0.15309 0.0
C1827 C 0.05641 0.48689 0.14918 0.0
C1828 C 0.04272 0.48006 0.16806 0.0
C1829 C 0.05402 0.47568 0.19033 0.0
C1830 C 0.0154 0.51156 0.10238 0.0
C1831 C 0.02495 0.50533 0.08083 0.0
C1832 C 0.02518 0.50515 0.12454 0.0
C1833 C 0.04466 0.49229 0.12558 0.0
C1834 C 0.05352 0.48534 0.10385 0.0
C1835 C 0.04388 0.49182 0.08185 0.0
H1836 H 0.75055 0.92065 0.44586 0.0
H1837 H 0.77454 0.86692 0.48943 0.0
H1838 H 0.75373 0.89487 0.40931 0.0
H1839 H 0.77783 0.84123 0.45266 0.0
H1840 H 0.8021 0.81797 0.37604 0.0
H1841 H 0.80206 0.84299 0.41434 0.0
H1842 H 0.72911 0.85243 0.39269 0.0
H1843 H 0.72903 0.82745 0.3548 0.0
C1844 C 0.75676 0.90349 0.44765 0.0
C1845 C 0.76211 0.89571 0.4705 0.0
C1846 C 0.75846 0.88872 0.42675 0.0
C1847 C 0.76582 0.86607 0.42832 0.0
C1848 C 0.77215 0.85867 0.45109 0.0
C1849 C 0.77014 0.87331 0.47205 0.0
C1850 C 0.78603 0.82523 0.37968 0.0
C1851 C 0.76563 0.82099 0.36255 0.0
C1852 C 0.78601 0.83946 0.40148 0.0
C1853 C 0.76569 0.8498 0.40616 0.0
C1854 C 0.74512 0.84495 0.38926 0.0
C1855 C 0.74504 0.83058 0.36769 0.0
H1856 H 0.44688 0.56758 0.79734 0.0
H1857 H 0.3753 0.54914 0.81882 0.0
H1858 H 0.46388 0.57185 0.83942 0.0
H1859 H 0.39245 0.5525 0.86119 0.0
H1860 H 0.43332 0.56867 0.9378 0.0
H1861 H 0.41614 0.57692 0.89782 0.0
H1862 H 0.46728 0.53905 0.86442 0.0
H1863 H 0.48436 0.5313 0.90384 0.0
C1864 C 0.43477 0.56471 0.81117 0.0
C1865 C 0.40986 0.55756 0.8049 0.0
C1866 C 0.44449 0.56711 0.83524 0.0
C1867 C 0.42955 0.56191 0.85353 0.0
C1868 C 0.40441 0.55663 0.84747 0.0
C1869 C 0.39459 0.55461 0.82326 0.0
C1870 C 0.44093 0.56243 0.92182 0.0
C1871 C 0.46009 0.54934 0.92377 0.0
C1872 C 0.43109 0.56705 0.89902 0.0
C1873 C 0.44049 0.55882 0.87801 0.0
C1874 C 0.45994 0.54612 0.88024 0.0
C1875 C 0.46962 0.54148 0.90283 0.0
H1876 H 0.81461 0.22537 0.07845 0.0
H1877 H 0.75771 0.16845 0.09279 0.0
H1878 H 0.81086 0.24813 0.11742 0.0
H1879 H 0.7538 0.19117 0.13076 0.0
H1880 H 0.73271 0.25405 0.17779 0.0
H1881 H 0.74108 0.2364 0.13883 0.0
H1882 H 0.8144 0.23602 0.16763 0.0
H1883 H 0.80602 0.25345 0.20726 0.0
C1884 C 0.80134 0.21777 0.08977 0.0
C1885 C 0.78652 0.19504 0.08244 0.0
C1886 C 0.7993 0.23069 0.11208 0.0
C1887 C 0.78202 0.22136 0.12707 0.0
C1888 C 0.76723 0.19882 0.11959 0.0
C1889 C 0.76957 0.18579 0.09778 0.0
C1890 C 0.75077 0.25056 0.17594 0.0
C1891 C 0.76867 0.25516 0.19585 0.0
C1892 C 0.75551 0.24043 0.15353 0.0
C1893 C 0.77839 0.23494 0.15016 0.0
C1894 C 0.79666 0.24032 0.16968 0.0
C1895 C 0.7918 0.25015 0.19238 0.0
H1896 H 0.0978 0.5005 0.35348 0.0
H1897 H 0.02616 0.49531 0.31703 0.0
H1898 H 0.08213 0.50724 0.39252 0.0
H1899 H 0.01034 0.50076 0.35559 0.0
H1900 H 0.99086 0.53818 0.42267 0.0
H1901 H 0.00942 0.53183 0.38561 0.0
H1902 H 0.05836 0.49159 0.42249 0.0
H1903 H 0.04036 0.49913 0.45995 0.0
C1904 C 0.07866 0.50029 0.35386 0.0
C1905 C 0.06326 0.49763 0.3322 0.0
C1906 C 0.06963 0.50416 0.37622 0.0
C1907 C 0.04497 0.5051 0.37733 0.0
C1908 C 0.02953 0.50107 0.35558 0.0
C1909 C 0.03857 0.49765 0.33339 0.0
C1910 C 0.00572 0.52816 0.42287 0.0
C1911 C 0.01407 0.51905 0.44411 0.0
C1912 C 0.01626 0.52426 0.40155 0.0
C1913 C 0.03516 0.5107 0.40075 0.0
C1914 C 0.04397 0.50219 0.42232 0.0
C1915 C 0.03361 0.50644 0.4438 0.0
H1916 H 0.73517 0.83133 0.57711 0.0
H1917 H 0.7258 0.88869 0.63038 0.0
H1918 H 0.73032 0.80203 0.60721 0.0
H1919 H 0.721 0.85947 0.66032 0.0
H1920 H 0.70245 0.80183 0.70812 0.0
H1921 H 0.6951 0.82164 0.67139 0.0
H1922 H 0.75776 0.79863 0.64445 0.0
H1923 H 0.76506 0.7788 0.68095 0.0
C1924 C 0.73179 0.83761 0.59514 0.0
C1925 C 0.73116 0.86234 0.60152 0.0
C1926 C 0.72898 0.82085 0.61231 0.0
C1927 C 0.72522 0.82848 0.63603 0.0
C1928 C 0.72352 0.853 0.64207 0.0
C1929 C 0.72655 0.86978 0.625 0.0
C1930 C 0.71415 0.80029 0.69398 0.0
C1931 C 0.73451 0.78907 0.69748 0.0
C1932 C 0.71004 0.81178 0.67307 0.0
C1933 C 0.72605 0.81192 0.65528 0.0
C1934 C 0.74507 0.79873 0.65782 0.0
C1935 C 0.74933 0.78749 0.67879 0.0
H1936 H 0.6738 0.46201 0.54104 0.0
H1937 H 0.61947 0.39712 0.53406 0.0
H1938 H 0.64261 0.48719 0.54152 0.0
H1939 H 0.58805 0.42246 0.53501 0.0
H1940 H 0.53978 0.47529 0.50558 0.0
H1941 H 0.56961 0.4487 0.5095 0.0
H1942 H 0.61258 0.50108 0.56441 0.0
H1943 H 0.58253 0.52787 0.56027 0.0
C1944 C 0.65516 0.45308 0.53983 0.0
C1945 C 0.64917 0.42748 0.53738 0.0
C1946 C 0.63723 0.46759 0.5403 0.0
C1947 C 0.61271 0.45697 0.53832 0.0
C1948 C 0.60671 0.43132 0.53629 0.0
C1949 C 0.62472 0.41676 0.53587 0.0
C1950 C 0.55536 0.48098 0.51882 0.0
C1951 C 0.55866 0.50365 0.53278 0.0
C1952 C 0.57252 0.46566 0.52109 0.0
C1953 C 0.5936 0.47262 0.53728 0.0
C1954 C 0.59672 0.49519 0.55154 0.0
C1955 C 0.57946 0.51052 0.54928 0.0
H1956 H 0.19329 0.07393 0.44844 0.0
H1957 H 0.16936 0.14317 0.45968 0.0
H1958 H 0.15284 0.05276 0.45238 0.0
H1959 H 0.12895 0.12193 0.46395 0.0
H1960 H 0.09233 0.02957 0.50045 0.0
H1961 H 0.13038 0.04892 0.48797 0.0
H1962 H 0.0926 0.09405 0.44441 0.0
H1963 H 0.05451 0.07496 0.4571 0.0
C1964 C 0.17929 0.08463 0.45132 0.0
C1965 C 0.18458 0.11023 0.45408 0.0
C1966 C 0.15618 0.07249 0.45375 0.0
C1967 C 0.13786 0.08568 0.4589 0.0
C1968 C 0.14269 0.11126 0.45993 0.0
C1969 C 0.16586 0.12343 0.45753 0.0
C1970 C 0.09208 0.04346 0.48805 0.0
C1971 C 0.07038 0.05071 0.47981 0.0
C1972 C 0.11388 0.05444 0.48077 0.0
C1973 C 0.11445 0.07294 0.46512 0.0
C1974 C 0.09273 0.07995 0.45659 0.0
C1975 C 0.07091 0.06892 0.46381 0.0
H1976 H 0.15664 0.90568 0.77114 0.0
H1977 H 0.22035 0.95729 0.80032 0.0
H1978 H 0.18082 0.87335 0.76816 0.0
H1979 H 0.24443 0.92467 0.79776 0.0
H1980 H 0.26763 0.84947 0.81411 0.0
H1981 H 0.2448 0.8829 0.81751 0.0
H1982 H 0.21711 0.86668 0.7422 0.0
H1983 H 0.24117 0.83412 0.73847 0.0
C1984 C 0.17574 0.91006 0.7772 0.0
C1985 C 0.18662 0.93401 0.78599 0.0
C1986 C 0.18957 0.8916 0.7753 0.0
C1987 C 0.21444 0.89664 0.78258 0.0
C1988 C 0.22525 0.92039 0.79205 0.0
C1989 C 0.21149 0.93899 0.79352 0.0
C1990 C 0.25688 0.85322 0.7982 0.0
C1991 C 0.25556 0.83879 0.77612 0.0
C1992 C 0.24382 0.87229 0.8002 0.0
C1993 C 0.22903 0.8771 0.7802 0.0
C1994 C 0.22807 0.86299 0.75798 0.0
C1995 C 0.24154 0.8442 0.7559 0.0
H1996 H 0.27896 0.96785 0.99539 0.0
H1997 H 0.29155 0.90861 0.03732 0.0
H1998 H 0.32202 0.9802 0.99502 0.0
H1999 H 0.33516 0.92115 0.03676 0.0
H2000 H 0.39565 0.97722 0.97194 0.0
H2001 H 0.35327 0.96225 0.97516 0.0
H2002 H 0.36984 0.95646 0.05133 0.0
H2003 H 0.41264 0.97142 0.04801 0.0
C2004 C 0.29089 0.95744 0.00462 0.0
C2005 C 0.28169 0.93705 0.01621 0.0
C2006 C 0.31564 0.96449 0.00428 0.0
C2007 C 0.33197 0.95144 0.01554 0.0
C2008 C 0.32297 0.93155 0.02792 0.0
C2009 C 0.29802 0.92436 0.02818 0.0
C2010 C 0.39031 0.97259 0.98934 0.0
C2011 C 0.40736 0.97561 0.00975 0.0
C2012 C 0.36601 0.96413 0.99122 0.0
C2013 C 0.35817 0.95845 0.01356 0.0
C2014 C 0.37537 0.96063 0.03387 0.0
C2015 C 0.3998 0.96924 0.03199 0.0
H2016 H 0.88719 0.66319 0.75183 0.0
H2017 H 0.82443 0.60698 0.7492 0.0
H2018 H 0.86149 0.69442 0.75539 0.0
H2019 H 0.79903 0.63798 0.75283 0.0
H2020 H 0.76693 0.69834 0.7906 0.0
H2021 H 0.79455 0.66958 0.78604 0.0
H2022 H 0.82646 0.70973 0.73087 0.0
H2023 H 0.79821 0.73851 0.73514 0.0
C2024 C 0.86796 0.6575 0.75198 0.0
C2025 C 0.85788 0.63259 0.75038 0.0
C2026 C 0.85326 0.67537 0.75388 0.0
C2027 C 0.82828 0.66864 0.75455 0.0
C2028 C 0.81825 0.64375 0.75266 0.0
C2029 C 0.83283 0.62597 0.7505 0.0
C2030 C 0.77982 0.70108 0.77747 0.0
C2031 C 0.78042 0.72068 0.76323 0.0
C2032 C 0.79562 0.68456 0.77484 0.0
C2033 C 0.81256 0.68727 0.75798 0.0
C2034 C 0.81366 0.70726 0.7441 0.0
C2035 C 0.79756 0.72373 0.74656 0.0
H2036 H 0.82878 0.61906 0.00269 0.0
H2037 H 0.78803 0.56125 0.03654 0.0
H2038 H 0.86588 0.60491 0.01577 0.0
H2039 H 0.8253 0.54735 0.04989 0.0
H2040 H 0.8934 0.51301 0.03212 0.0
H2041 H 0.85506 0.52775 0.02943 0.0
H2042 H 0.89261 0.60099 0.05228 0.0
H2043 H 0.93098 0.58626 0.0546 0.0
C2044 C 0.82774 0.60344 0.01303 0.0
C2045 C 0.80543 0.59119 0.01839 0.0
C2046 C 0.84903 0.59549 0.02077 0.0
C2047 C 0.84847 0.57511 0.034 0.0
C2048 C 0.82623 0.56303 0.03964 0.0
C2049 C 0.80491 0.57102 0.03196 0.0
C2050 C 0.89335 0.53213 0.03722 0.0
C2051 C 0.91505 0.54858 0.04324 0.0
C2052 C 0.87142 0.54057 0.03571 0.0
C2053 C 0.87094 0.56559 0.04021 0.0
C2054 C 0.89254 0.58169 0.04824 0.0
C2055 C 0.91444 0.57324 0.04975 0.0
H2056 H 0.20524 0.06228 0.77382 0.0
H2057 H 0.14524 0.09756 0.78957 0.0
H2058 H 0.23096 0.1024 0.77467 0.0
H2059 H 0.17096 0.13732 0.79098 0.0
H2060 H 0.22929 0.20296 0.81449 0.0
H2061 H 0.21019 0.16117 0.81761 0.0
H2062 H 0.2283 0.13955 0.74661 0.0
H2063 H 0.24726 0.18162 0.74313 0.0
C2064 C 0.19768 0.07856 0.77784 0.0
C2065 C 0.17324 0.07683 0.7816 0.0
C2066 C 0.21233 0.10143 0.77818 0.0
C2067 C 0.2029 0.12287 0.78293 0.0
C2068 C 0.1787 0.12106 0.78745 0.0
C2069 C 0.16398 0.09832 0.78656 0.0
C2070 C 0.22963 0.18931 0.79964 0.0
C2071 C 0.23963 0.19573 0.77844 0.0
C2072 C 0.21861 0.16538 0.80146 0.0
C2073 C 0.21767 0.14724 0.78231 0.0
C2074 C 0.22891 0.15323 0.76168 0.0
C2075 C 0.23966 0.17732 0.75968 0.0
H2076 H 0.3364 0.00931 0.25615 0.0
H2077 H 0.37956 0.96602 0.21691 0.0
H2078 H 0.30736 0.97242 0.2595 0.0
H2079 H 0.35084 0.92944 0.22043 0.0
H2080 H 0.28572 0.89527 0.28866 0.0
H2081 H 0.3075 0.93524 0.28156 0.0
H2082 H 0.3094 0.9091 0.20688 0.0
H2083 H 0.28804 0.86923 0.21408 0.0
C2084 C 0.33956 0.99201 0.24801 0.0
C2085 C 0.36036 0.99061 0.23634 0.0
C2086 C 0.32301 0.97089 0.25006 0.0
C2087 C 0.32679 0.94803 0.24023 0.0
C2088 C 0.3472 0.9468 0.22793 0.0
C2089 C 0.36379 0.96779 0.22607 0.0
C2090 C 0.29043 0.89828 0.27066 0.0
C2091 C 0.28549 0.87916 0.252 0.0
C2092 C 0.30281 0.92116 0.26656 0.0
C2093 C 0.31044 0.92521 0.24373 0.0
C2094 C 0.30415 0.90641 0.22476 0.0
C2095 C 0.29183 0.88363 0.22886 0.0
H2096 H 0.45912 0.3443 0.6308 0.0
H2097 H 0.49796 0.30974 0.57877 0.0
H2098 H 0.4565 0.37743 0.60511 0.0
H2099 H 0.49559 0.34298 0.55336 0.0
H2100 H 0.51794 0.42549 0.54064 0.0
H2101 H 0.51529 0.38837 0.56112 0.0
H2102 H 0.43867 0.38571 0.56192 0.0
H2103 H 0.44127 0.42285 0.54085 0.0
C2104 C 0.46688 0.34365 0.6138 0.0
C2105 C 0.47886 0.32447 0.60689 0.0
C2106 C 0.46525 0.36253 0.59904 0.0
C2107 C 0.4759 0.36278 0.57729 0.0
C2108 C 0.48733 0.34329 0.5701 0.0
C2109 C 0.48862 0.32425 0.58463 0.0
C2110 C 0.50046 0.41677 0.54485 0.0
C2111 C 0.47979 0.42695 0.53915 0.0
C2112 C 0.49894 0.3955 0.5565 0.0
C2113 C 0.47678 0.38418 0.56312 0.0
C2114 C 0.45598 0.39414 0.55708 0.0
C2115 C 0.45743 0.41524 0.54493 0.0
H2116 H 0.43948 0.76727 0.35282 0.0
H2117 H 0.46101 0.79616 0.28726 0.0
H2118 H 0.3972 0.7609 0.33565 0.0
H2119 H 0.4192 0.78916 0.26995 0.0
H2120 H 0.32337 0.73885 0.29098 0.0
H2121 H 0.36572 0.73899 0.30492 0.0
H2122 H 0.3854 0.80823 0.27653 0.0
H2123 H 0.34357 0.80779 0.26215 0.0
C2124 C 0.43524 0.77188 0.33463 0.0
C2125 C 0.45359 0.78257 0.32157 0.0
C2126 C 0.41102 0.76813 0.32473 0.0
C2127 C 0.40473 0.77484 0.30152 0.0
C2128 C 0.42328 0.78434 0.28809 0.0
C2129 C 0.44732 0.78827 0.29801 0.0
C2130 C 0.33682 0.75386 0.28733 0.0
C2131 C 0.33003 0.77326 0.27534 0.0
C2132 C 0.36107 0.75406 0.29556 0.0
C2133 C 0.37903 0.7736 0.29186 0.0
C2134 C 0.37219 0.79266 0.27938 0.0
C2135 C 0.34808 0.79248 0.27122 0.0
H2136 H 0.96577 0.69164 0.10736 0.0
H2137 H 0.0353 0.68994 0.14547 0.0
H2138 H 0.96869 0.6548 0.08186 0.0
H2139 H 0.03942 0.6547 0.11902 0.0
H2140 H 0.03684 0.58106 0.08194 0.0
H2141 H 0.02894 0.6143 0.10917 0.0
H2142 H 0.9855 0.63787 0.0505 0.0
H2143 H 0.99187 0.60305 0.02407 0.0
C2144 C 0.98177 0.68345 0.11009 0.0
C2145 C 0.0002 0.69345 0.12849 0.0
C2146 C 0.98361 0.66242 0.09535 0.0
C2147 C 0.00428 0.65138 0.09824 0.0
C2148 C 0.02283 0.66189 0.11653 0.0
C2149 C 0.02062 0.68235 0.13166 0.0
C2150 C 0.02547 0.59333 0.07504 0.0
C2151 C 0.01514 0.58976 0.05097 0.0
C2152 C 0.02108 0.61261 0.09056 0.0
C2153 C 0.00695 0.6294 0.08213 0.0
C2154 C 0.99624 0.62537 0.05795 0.0
C2155 C 3e-05 0.60553 0.04265 0.0
H2156 H 0.11716 0.2984 0.8736 0.0
H2157 H 0.0755 0.29555 0.80419 0.0
H2158 H 0.15336 0.29627 0.85318 0.0
H2159 H 0.11145 0.29329 0.78391 0.0
H2160 H 0.18499 0.30956 0.7559 0.0
H2161 H 0.15113 0.31696 0.77813 0.0
H2162 H 0.1676 0.26449 0.82699 0.0
H2163 H 0.20121 0.25703 0.80471 0.0
C2164 C 0.11575 0.2975 0.85397 0.0
C2165 C 0.09342 0.29699 0.84044 0.0
C2166 C 0.13647 0.29617 0.84236 0.0
C2167 C 0.13526 0.29455 0.81696 0.0
C2168 C 0.11305 0.29478 0.80353 0.0
C2169 C 0.09234 0.29589 0.8151 0.0
C2170 C 0.18137 0.29971 0.77146 0.0
C2171 C 0.1958 0.28289 0.77872 0.0
C2172 C 0.16201 0.30392 0.78416 0.0
C2173 C 0.15674 0.29138 0.80438 0.0
C2174 C 0.17141 0.27475 0.81175 0.0
C2175 C 0.19063 0.27044 0.79896 0.0
H2176 H 0.52559 0.71993 0.00525 0.0
H2177 H 0.48745 0.67868 0.9402 0.0
H2178 H 0.52088 0.68314 0.02615 0.0
H2179 H 0.48337 0.6418 0.96084 0.0
H2180 H 0.46854 0.58062 0.00783 0.0
H2181 H 0.46598 0.61983 0.99229 0.0
H2182 H 0.53939 0.64724 0.02325 0.0
H2183 H 0.54164 0.60821 0.039 0.0
C2184 C 0.51597 0.70306 0.99551 0.0
C2185 C 0.50712 0.70209 0.97103 0.0
C2186 C 0.5134 0.68198 0.00743 0.0
C2187 C 0.50205 0.65952 0.99506 0.0
C2188 C 0.49203 0.65885 0.97095 0.0
C2189 C 0.49447 0.67997 0.95907 0.0
C2190 C 0.48404 0.59512 0.01129 0.0
C2191 C 0.50538 0.59147 0.02426 0.0
C2192 C 0.48258 0.61753 0.00246 0.0
C2193 C 0.5025 0.6366 0.00647 0.0
C2194 C 0.52359 0.63306 0.02017 0.0
C2195 C 0.52497 0.6107 0.02906 0.0
H2196 H 0.06046 0.83221 0.6715 0.0
H2197 H 0.0906 0.80174 0.61 0.0
H2198 H 0.09704 0.83021 0.69738 0.0
H2199 H 0.12737 0.79975 0.63608 0.0
H2200 H 0.19559 0.81367 0.69036 0.0
H2201 H 0.16274 0.82462 0.6643 0.0
H2202 H 0.11157 0.79193 0.71003 0.0
H2203 H 0.14449 0.78084 0.7361 0.0
C2204 C 0.07514 0.82556 0.66343 0.0
C2205 C 0.07261 0.81673 0.63886 0.0
C2206 C 0.09597 0.82432 0.67827 0.0
C2207 C 0.11469 0.81437 0.66878 0.0
C2208 C 0.11308 0.80748 0.6438 0.0
C2209 C 0.09212 0.80865 0.62888 0.0
C2210 C 0.17731 0.80897 0.69491 0.0
C2211 C 0.17241 0.79634 0.71512 0.0
C2212 C 0.1586 0.81518 0.67997 0.0
C2213 C 0.13474 0.80915 0.68522 0.0
C2214 C 0.12991 0.79702 0.70579 0.0
C2215 C 0.14863 0.79056 0.7206 0.0
H2216 H 0.00886 0.3238 0.48063 0.0
H2217 H 0.05941 0.36657 0.44073 0.0
H2218 H 0.0051 0.36076 0.50567 0.0
H2219 H 0.05571 0.40324 0.46574 0.0
H2220 H 0.97896 0.43844 0.50629 0.0
H2221 H 0.98659 0.39766 0.49443 0.0
H2222 H 0.06324 0.42365 0.5085 0.0
H2223 H 0.05581 0.46438 0.52034 0.0
C2224 C 0.01952 0.34098 0.47753 0.0
C2225 C 0.0343 0.34235 0.45859 0.0
C2226 C 0.01728 0.36209 0.4918 0.0
C2227 C 0.03011 0.3848 0.48764 0.0
C2228 C 0.04582 0.38593 0.46955 0.0
C2229 C 0.0478 0.36495 0.4551 0.0
C2230 C -0.00257 0.43535 0.50752 0.0
C2231 C 0.01677 0.4548 0.51371 0.0
C2232 C 0.00178 0.41195 0.50081 0.0
C2233 C 0.02552 0.40767 0.50016 0.0
C2234 C 0.04478 0.4266 0.50847 0.0
C2235 C 0.04046 0.44992 0.51527 0.0
H2236 H 0.45532 0.25348 0.19215 0.0
H2237 H 0.42044 0.29316 0.14002 0.0
H2238 H 0.42811 0.26276 0.22095 0.0
H2239 H 0.3921 0.30154 0.16884 0.0
H2240 H 0.35996 0.33206 0.23384 0.0
H2241 H 0.39006 0.32508 0.20653 0.0
H2242 H 0.3878 0.25234 0.22836 0.0
H2243 H 0.35878 0.25978 0.25621 0.0
C2244 C 0.44153 0.26384 0.18662 0.0
C2245 C 0.44002 0.27253 0.16368 0.0
C2246 C 0.42584 0.26913 0.20322 0.0
C2247 C 0.40792 0.28289 0.19724 0.0
C2248 C 0.40601 0.29123 0.17414 0.0
C2249 C 0.42202 0.28618 0.15752 0.0
C2250 C 0.36646 0.31486 0.23316 0.0
C2251 C 0.35726 0.29651 0.24715 0.0
C2252 C 0.38336 0.31071 0.21729 0.0
C2253 C 0.39112 0.28806 0.21505 0.0
C2254 C 0.38247 0.2701 0.22981 0.0
C2255 C 0.36585 0.27436 0.24583 0.0
H2256 H 0.59413 0.54978 0.35546 0.0
H2257 H 0.58957 0.47176 0.34624 0.0
H2258 H 0.57012 0.54614 0.38924 0.0
H2259 H 0.56412 0.46771 0.37944 0.0
H2260 H 0.53551 0.47528 0.45522 0.0
H2261 H 0.56014 0.47442 0.42154 0.0
H2262 H 0.52948 0.53402 0.39402 0.0
H2263 H 0.50613 0.53564 0.42836 0.0
C2264 C 0.5881 0.53182 0.36094 0.0
C2265 C 0.59366 0.51106 0.34841 0.0
C2266 C 0.57399 0.52964 0.38002 0.0
C2267 C 0.56446 0.50656 0.38663 0.0
C2268 C 0.57109 0.48577 0.37483 0.0
C2269 C 0.58573 0.48804 0.35592 0.0
C2270 C 0.53366 0.48774 0.44157 0.0
C2271 C 0.51903 0.50558 0.44431 0.0
C2272 C 0.54785 0.48734 0.42232 0.0
C2273 C 0.54734 0.50459 0.40538 0.0
C2274 C 0.53107 0.52105 0.4072 0.0
C2275 C 0.51736 0.52177 0.42663 0.0
H2276 H 0.24162 0.8799 0.11451 0.0
H2277 H 0.19913 0.81315 0.07865 0.0
H2278 H 0.24969 0.8592 0.15048 0.0
H2279 H 0.20753 0.79233 0.11439 0.0
H2280 H 0.20496 0.76883 0.19051 0.0
H2281 H 0.19768 0.79024 0.15502 0.0
H2282 H 0.27114 0.82886 0.16673 0.0
H2283 H 0.27832 0.8072 0.20245 0.0
C2284 C 0.23405 0.86077 0.11424 0.0
C2285 C 0.21962 0.84826 0.09362 0.0
C2286 C 0.23883 0.84883 0.13487 0.0
C2287 C 0.22926 0.82403 0.13553 0.0
C2288 C 0.21494 0.81151 0.11481 0.0
C2289 C 0.21021 0.82343 0.09418 0.0
C2290 C 0.21959 0.78187 0.1855 0.0
C2291 C 0.24216 0.78648 0.19946 0.0
C2292 C 0.21545 0.79411 0.16502 0.0
C2293 C 0.23381 0.8113 0.15776 0.0
C2294 C 0.25643 0.81601 0.17186 0.0
C2295 C 0.26058 0.80367 0.1924 0.0
H2296 H 0.92082 0.58503 0.83255 0.0
H2297 H 0.98002 0.54842 0.81675 0.0
H2298 H 0.93255 0.58476 0.87591 0.0
H2299 H 0.99114 0.54754 0.85947 0.0
H2300 H 0.01907 0.56331 0.93669 0.0
H2301 H 0.00805 0.57192 0.89559 0.0
H2302 H 0.93265 0.55605 0.90642 0.0
H2303 H 0.94381 0.54822 0.94806 0.0
C2304 C 0.93641 0.57713 0.83827 0.0
C2305 C 0.94945 0.56675 0.8211 0.0
C2306 C 0.94302 0.5768 0.86311 0.0
C2307 C 0.96285 0.56618 0.87126 0.0
C2308 C 0.97607 0.5563 0.85401 0.0
C2309 C 0.96953 0.55665 0.82936 0.0
C2310 C 0.00013 0.56186 0.93042 0.0
C2311 C 0.98231 0.55479 0.94559 0.0
C2312 C 0.99379 0.56672 0.90677 0.0
C2313 C 0.96943 0.5643 0.89747 0.0
C2314 C 0.95159 0.55826 0.91299 0.0
C2315 C 0.95797 0.55365 0.93683 0.0
H2316 H 0.27431 0.18206 0.55823 0.0
H2317 H 0.20103 0.14682 0.56179 0.0
H2318 H 0.27384 0.20602 0.59635 0.0
H2319 H 0.19982 0.17201 0.59934 0.0
H2320 H 0.21562 0.20024 0.67926 0.0
H2321 H 0.2138 0.17726 0.64004 0.0
H2322 H 0.25966 0.23816 0.61542 0.0
H2323 H 0.26275 0.26028 0.65541 0.0
C2324 C 0.25795 0.17973 0.56708 0.0
C2325 C 0.23772 0.16258 0.55717 0.0
C2326 C 0.25757 0.19365 0.58885 0.0
C2327 C 0.23673 0.19117 0.60096 0.0
C2328 C 0.21634 0.17415 0.59079 0.0
C2329 C 0.21694 0.15978 0.56924 0.0
C2330 C 0.22518 0.20868 0.66535 0.0
C2331 C 0.23945 0.23187 0.67023 0.0
C2332 C 0.22401 0.1956 0.64278 0.0
C2333 C 0.23668 0.20572 0.62447 0.0
C2334 C 0.25017 0.22947 0.62922 0.0
C2335 C 0.2518 0.24229 0.65201 0.0
H2336 H 0.63819 0.4809 0.19445 0.0
H2337 H 0.57856 0.50406 0.2274 0.0
H2338 H 0.61603 0.47945 0.15452 0.0
H2339 H 0.55708 0.50423 0.18782 0.0
H2340 H 0.5152 0.48982 0.1155 0.0
H2341 H 0.53594 0.48188 0.15355 0.0
H2342 H 0.60463 0.5055 0.12705 0.0
H2343 H 0.58373 0.51172 0.08862 0.0
C2344 C 0.62039 0.48579 0.19308 0.0
C2345 C 0.61008 0.49265 0.2139 0.0
C2346 C 0.60772 0.4851 0.17024 0.0
C2347 C 0.58473 0.4918 0.16783 0.0
C2348 C 0.57445 0.4984 0.18885 0.0
C2349 C 0.58687 0.49855 0.21161 0.0
C2350 C 0.53473 0.49294 0.11784 0.0
C2351 C 0.54795 0.50151 0.09938 0.0
C2352 C 0.54666 0.48859 0.13966 0.0
C2353 C 0.57203 0.49336 0.14361 0.0
C2354 C 0.58514 0.50125 0.12466 0.0
C2355 C 0.57319 0.50504 0.10267 0.0
H2356 H 0.1894 0.87929 0.92033 0.0
H2357 H 0.21587 0.82621 0.96288 0.0
H2358 H 0.19692 0.85679 0.88365 0.0
H2359 H 0.22288 0.80311 0.92575 0.0
H2360 H 0.261 0.78782 0.85692 0.0
H2361 H 0.24977 0.80567 0.89466 0.0
H2362 H 0.18505 0.82131 0.85627 0.0
H2363 H 0.19657 0.80411 0.81852 0.0
C2364 C 0.19648 0.86255 0.9219 0.0
C2365 C 0.20205 0.85469 0.94476 0.0
C2366 C 0.20068 0.84949 0.90069 0.0
C2367 C 0.21059 0.82802 0.90151 0.0
C2368 C 0.21554 0.81971 0.92433 0.0
C2369 C 0.21129 0.83284 0.94566 0.0
C2370 C 0.24424 0.79485 0.85652 0.0
C2371 C 0.22979 0.79455 0.8345 0.0
C2372 C 0.23771 0.80501 0.87829 0.0
C2373 C 0.21653 0.81517 0.87869 0.0
C2374 C 0.20172 0.81413 0.85675 0.0
C2375 C 0.20827 0.80405 0.83501 0.0
H2376 H 0.97115 0.58061 0.69493 0.0
H2377 H 0.90145 0.5511 0.65605 0.0
H2378 H 0.99058 0.56984 0.65938 0.0
H2379 H 0.92088 0.53959 0.62071 0.0
H2380 H 0.96228 0.54636 0.55416 0.0
H2381 H 0.94212 0.556 0.58942 0.0
H2382 H -0.00024 0.53567 0.63558 0.0
H2383 H 0.02034 0.5268 0.60011 0.0
C2384 C 0.95996 0.57181 0.67878 0.0
C2385 C 0.93474 0.56678 0.67832 0.0
C2386 C 0.97113 0.56539 0.65844 0.0
C2387 C 0.95736 0.55365 0.63714 0.0
C2388 C 0.93208 0.54885 0.63666 0.0
C2389 C 0.92091 0.5554 0.65696 0.0
C2390 C 0.97058 0.54381 0.57183 0.0
C2391 C 0.99297 0.53597 0.5744 0.0
C2392 C 0.95894 0.54922 0.59209 0.0
C2393 C 0.96932 0.54679 0.61547 0.0
C2394 C 0.99143 0.53823 0.61793 0.0
C2395 C 0.00314 0.53291 0.59761 0.0
H2396 H 0.2837 0.22997 0.46485 0.0
H2397 H 0.30128 0.17745 0.41109 0.0
H2398 H 0.2917 0.26187 0.43796 0.0
H2399 H 0.30905 0.20929 0.38417 0.0
H2400 H 0.25878 0.28652 0.3645 0.0
H2401 H 0.2664 0.26603 0.40042 0.0
H2402 H 0.33216 0.2489 0.37521 0.0
H2403 H 0.32445 0.26935 0.33903 0.0
C2404 C 0.28979 0.22533 0.44751 0.0
C2405 C 0.29142 0.2011 0.43987 0.0
C2406 C 0.29435 0.24361 0.43213 0.0
C2407 C 0.30072 0.23803 0.40888 0.0
C2408 C 0.30435 0.21422 0.40206 0.0
C2409 C 0.29972 0.19591 0.41742 0.0
C2410 C 0.27526 0.27907 0.36696 0.0
C2411 C 0.2908 0.27921 0.34878 0.0
C2412 C 0.27972 0.26743 0.38764 0.0
C2413 C 0.29972 0.25556 0.39045 0.0
C2414 C 0.31645 0.25765 0.37334 0.0
C2415 C 0.3121 0.26953 0.35272 0.0
H2416 H 0.34729 0.61482 0.4639 0.0
H2417 H 0.36494 0.61906 0.54111 0.0
H2418 H 0.37976 0.59106 0.45805 0.0
H2419 H 0.39749 0.59612 0.53538 0.0
H2420 H 0.46648 0.57288 0.51752 0.0
H2421 H 0.43774 0.60075 0.51643 0.0
H2422 H 0.38632 0.54674 0.47042 0.0
H2423 H 0.41534 0.51836 0.47167 0.0
C2424 C 0.35859 0.61132 0.47952 0.0
C2425 C 0.35389 0.61904 0.50295 0.0
C2426 C 0.37692 0.5975 0.47621 0.0
C2427 C 0.39115 0.59172 0.49626 0.0
C2428 C 0.38701 0.60044 0.51957 0.0
C2429 C 0.36844 0.61365 0.52286 0.0
C2430 C 0.44921 0.56692 0.50686 0.0
C2431 C 0.44312 0.54323 0.49489 0.0
C2432 C 0.43273 0.58297 0.50627 0.0
C2433 C 0.40972 0.5759 0.4935 0.0
C2434 C 0.404 0.55273 0.48031 0.0
C2435 C 0.42054 0.53646 0.48109 0.0
H2436 H 0.82275 0.00536 0.57226 0.0
H2437 H 0.83079 0.92981 0.56229 0.0
H2438 H 0.86588 0.0178 0.57075 0.0
H2439 H 0.87393 0.94228 0.56007 0.0
H2440 H 0.95379 0.97647 0.55834 0.0
H2441 H 0.91589 0.96517 0.57597 0.0
H2442 H 0.88278 0.01293 0.53152 0.0
H2443 H 0.92017 0.02426 0.5142 0.0
C2444 C 0.83392 0.99143 0.57061 0.0
C2445 C 0.82348 0.96668 0.5669 0.0
C2446 C 0.85854 0.99853 0.5696 0.0
C2447 C 0.87302 0.981 0.56451 0.0
C2448 C 0.86314 0.95617 0.5639 0.0
C2449 C 0.83845 0.94903 0.56521 0.0
C2450 C 0.93841 0.98464 0.55251 0.0
C2451 C 0.93994 0.00126 0.53489 0.0
C2452 C 0.9168 0.97818 0.56261 0.0
C2453 C 0.89658 0.98853 0.55546 0.0
C2454 C 0.89825 0.00514 0.53788 0.0
C2455 C 0.91962 0.01139 0.52769 0.0
H2456 H 0.78135 0.09424 0.22391 0.0
H2457 H 0.84389 0.14214 0.26157 0.0
H2458 H 0.75715 0.12611 0.23039 0.0
H2459 H 0.8198 0.17404 0.26774 0.0
H2460 H 0.76392 0.21827 0.29336 0.0
H2461 H 0.78646 0.18452 0.28963 0.0
H2462 H 0.75433 0.1658 0.21574 0.0
H2463 H 0.73215 0.19957 0.21952 0.0
C2464 C 0.78992 0.11153 0.2336 0.0
C2465 C 0.81455 0.11569 0.24213 0.0
C2466 C 0.77608 0.12983 0.23722 0.0
C2467 C 0.78657 0.15262 0.24954 0.0
C2468 C 0.81111 0.15659 0.25843 0.0
C2469 C 0.82495 0.13836 0.25473 0.0
C2470 C 0.76196 0.20705 0.27631 0.0
C2471 C 0.74668 0.21171 0.25664 0.0
C2472 C 0.77473 0.18768 0.27417 0.0
C2473 C 0.77224 0.17252 0.25235 0.0
C2474 C 0.75643 0.17692 0.23288 0.0
C2475 C 0.74377 0.1963 0.23503 0.0
H2476 H 0.72779 0.09431 0.996 0.0
H2477 H 0.69999 0.16069 0.98584 0.0
H2478 H 0.68683 0.07284 -0.00173 0.0
H2479 H 0.65912 0.13918 0.98793 0.0
H2480 H 0.58718 0.08502 0.97033 0.0
H2481 H 0.628 0.10474 0.96466 0.0
H2482 H 0.65611 0.07606 0.02879 0.0
H2483 H 0.61534 0.05658 0.03457 0.0
C2484 C 0.71292 0.10423 0.99397 0.0
C2485 C 0.71708 0.12919 0.99082 0.0
C2486 C 0.68953 0.09199 0.99542 0.0
C2487 C 0.66984 0.10439 0.99335 0.0
C2488 C 0.67394 0.12914 0.98942 0.0
C2489 C 0.69733 0.14146 0.98833 0.0
C2490 C 0.60212 0.08296 0.98317 0.0
C2491 C 0.59817 0.0694 0.00293 0.0
C2492 C 0.62541 0.09425 0.97996 0.0
C2493 C 0.6452 0.09185 0.99625 0.0
C2494 C 0.64123 0.07799 0.01582 0.0
C2495 C 0.61791 0.067 0.01922 0.0
H2496 H 0.19482 0.45536 0.27474 0.0
H2497 H 0.136 0.39836 0.28438 0.0
H2498 H 0.22255 0.42644 0.27659 0.0
H2499 H 0.16399 0.36918 0.28611 0.0
H2500 H 0.22945 0.33074 0.30993 0.0
H2501 H 0.20022 0.35877 0.31078 0.0
H2502 H 0.22933 0.39156 0.25007 0.0
H2503 H 0.25801 0.36357 0.24907 0.0
C2504 C 0.18778 0.43665 0.27737 0.0
C2505 C 0.1631 0.42921 0.27927 0.0
C2506 C 0.20371 0.42 0.2783 0.0
C2507 C 0.1955 0.39539 0.28126 0.0
C2508 C 0.17094 0.38801 0.28392 0.0
C2509 C 0.15489 0.40472 0.28282 0.0
C2510 C 0.22933 0.34376 0.29662 0.0
C2511 C 0.24593 0.34485 0.27935 0.0
C2512 C 0.21264 0.35984 0.29713 0.0
C2513 C 0.21251 0.37756 0.28059 0.0
C2514 C 0.22914 0.37847 0.26333 0.0
C2515 C 0.24557 0.36235 0.26272 0.0
H2516 H 0.20439 0.47897 0.02891 0.0
H2517 H 0.14599 0.41935 0.0326 0.0
H2518 H 0.17679 0.50093 0.00772 0.0
H2519 H 0.11793 0.44205 0.01251 0.0
H2520 H 0.07216 0.47887 0.96646 0.0
H2521 H 0.10555 0.45721 0.97525 0.0
H2522 H 0.1458 0.52209 0.01723 0.0
H2523 H 0.11297 0.54379 0.00759 0.0
C2524 C 0.18555 0.47065 0.02543 0.0
C2525 C 0.17728 0.44744 0.0325 0.0
C2526 C 0.16975 0.48327 0.01323 0.0
C2527 C 0.1452 0.47322 0.00826 0.0
C2528 C 0.13686 0.45006 0.01551 0.0
C2529 C 0.15281 0.43722 0.02739 0.0
C2530 C 0.08861 0.48872 0.97669 0.0
C2531 C 0.08995 0.51279 0.98678 0.0
C2532 C 0.10755 0.47624 0.98203 0.0
C2533 C 0.12796 0.48769 0.9976 0.0
C2534 C 0.13034 0.51266 0.00524 0.0
C2535 C 0.11151 0.52516 -0.00029 0.0
H2536 H 0.80386 0.98311 0.22393 0.0
H2537 H 0.87172 0.95975 0.24293 0.0
H2538 H 0.78229 0.94277 0.23067 0.0
H2539 H 0.85019 0.91996 0.2501 0.0
H2540 H 0.80157 0.86523 0.28955 0.0
H2541 H 0.81963 0.90635 0.28229 0.0
H2542 H 0.7814 0.896 0.21064 0.0
H2543 H 0.76352 0.85447 0.21761 0.0
C2544 C 0.81414 0.96942 0.22952 0.0
C2545 C 0.8395 0.97461 0.23285 0.0
C2546 C 0.80182 0.94639 0.2333 0.0
C2547 C 0.81463 0.9284 0.24102 0.0
C2548 C 0.83991 0.9336 0.24433 0.0
C2549 C 0.85221 0.95634 0.24007 0.0
C2550 C 0.79675 0.87173 0.27232 0.0
C2551 C 0.78118 0.85651 0.2541 0.0
C2552 C 0.80719 0.89524 0.26817 0.0
C2553 C 0.80194 0.90423 0.24589 0.0
C2554 C 0.78563 0.88947 0.22799 0.0
C2555 C 0.77552 0.86572 0.23197 0.0
H2556 H 0.61993 0.08867 0.77012 0.0
H2557 H 0.6803 0.0502 0.77166 0.0
H2558 H 0.64761 0.12741 0.77506 0.0
H2559 H 0.70814 0.08934 0.7763 0.0
H2560 H 0.7388 0.1662 0.74729 0.0
H2561 H 0.71618 0.12502 0.74841 0.0
H2562 H 0.68029 0.15133 0.80759 0.0
H2563 H 0.703 0.19231 0.80665 0.0
C2564 C 0.63913 0.08848 0.77156 0.0
C2565 C 0.64794 0.06638 0.77043 0.0
C2566 C 0.65497 0.11068 0.77457 0.0
C2567 C 0.67999 0.11133 0.77617 0.0
C2568 C 0.68891 0.08928 0.7751 0.0
C2569 C 0.67301 0.06696 0.77252 0.0
C2570 C 0.72644 0.16302 0.76083 0.0
C2571 C 0.72246 0.1824 0.77674 0.0
C2572 C 0.71359 0.13949 0.76153 0.0
C2573 C 0.69637 0.13511 0.77794 0.0
C2574 C 0.69331 0.1543 0.79461 0.0
C2575 C 0.70634 0.1777 0.79412 0.0
loop_
_geom_bond_atom_site_label_1
_geom_bond_atom_site_label_2
_geom_bond_distance
_geom_bond_site_symmetry_2
_ccdc_geom_bond_type
C0 O1 1.306 . S
C0 O3 1.160 . S
O1 C0 1.306 . S
O1 Cd2 2.228 1_655 S
Cd2 O1 2.228 1_455 S
Cd2 O6 2.273 . S
Cd2 O10 2.277 . S
O3 C0 1.160 . S
O3 Cd4 2.203 1_655 S
Cd4 O3 2.203 1_455 S
Cd4 O6 2.411 . S
Cd4 O7 2.333 . S
Cd4 O8 2.352 . S
Cd4 O12 2.277 . S
Cd4 O13 2.356 . S
C5 O10 1.209 . S
C5 O12 1.226 . S
O6 Cd2 2.273 . S
O6 Cd4 2.411 . S
O6 C9 1.320 . S
O7 Cd4 2.333 . S
O7 C9 1.214 . S
O8 Cd4 2.352 . S
O8 C11 1.258 . S
C9 O6 1.320 . S
C9 O7 1.214 . S
O10 Cd2 2.277 . S
O10 C5 1.209 . S
C11 O8 1.258 . S
C11 O13 1.282 . S
O12 Cd4 2.277 . S
O12 C5 1.226 . S
O13 Cd4 2.356 . S
O13 C11 1.282 . S
C14 O15 1.306 . S
C14 O17 1.160 . S
O15 C14 1.306 . S
O15 Cd16 2.228 1_655 S
Cd16 O15 2.228 1_455 S
Cd16 O20 2.273 . S
Cd16 O24 2.277 1_455 S
O17 C14 1.160 . S
O17 Cd18 2.203 1_655 S
Cd18 O17 2.203 1_455 S
Cd18 O20 2.411 . S
Cd18 O21 2.333 . S
Cd18 O22 2.352 . S
Cd18 O26 2.277 1_455 S
Cd18 O27 2.356 . S
C19 O24 1.209 . S
C19 O26 1.226 . S
O20 Cd16 2.273 . S
O20 Cd18 2.411 . S
O20 C23 1.320 . S
O21 Cd18 2.333 . S
O21 C23 1.214 . S
O22 Cd18 2.352 . S
O22 C25 1.258 . S
C23 O20 1.320 . S
C23 O21 1.214 . S
O24 Cd16 2.277 1_655 S
O24 C19 1.209 . S
C25 O22 1.258 . S
C25 O27 1.282 . S
O26 Cd18 2.277 1_655 S
O26 C19 1.226 . S
O27 Cd18 2.356 . S
O27 C25 1.282 . S
C28 O29 1.306 . S
C28 O31 1.160 . S
O29 C28 1.306 . S
O29 Cd30 2.228 . S
Cd30 O29 2.228 . S
Cd30 O34 2.273 . S
Cd30 O38 2.277 . S
O31 C28 1.160 . S
O31 Cd32 2.203 . S
Cd32 O31 2.203 . S
Cd32 O34 2.411 . S
Cd32 O35 2.333 . S
Cd32 O36 2.352 . S
Cd32 O40 2.277 . S
Cd32 O41 2.356 . S
C33 O38 1.209 . S
C33 O40 1.226 . S
O34 Cd30 2.273 . S
O34 Cd32 2.411 . S
O34 C37 1.320 . S
O35 Cd32 2.333 . S
O35 C37 1.214 . S
O36 Cd32 2.352 . S
O36 C39 1.258 . S
C37 O34 1.320 . S
C37 O35 1.214 . S
O38 Cd30 2.277 . S
O38 C33 1.209 . S
C39 O36 1.258 . S
C39 O41 1.282 . S
O40 Cd32 2.277 . S
O40 C33 1.226 . S
O41 Cd32 2.356 . S
O41 C39 1.282 . S
C42 O43 1.306 . S
C42 O45 1.160 . S
O43 C42 1.306 . S
O43 Cd44 2.228 . S
Cd44 O43 2.228 . S
Cd44 O48 2.273 . S
Cd44 O52 2.277 . S
O45 C42 1.160 . S
O45 Cd46 2.203 . S
Cd46 O45 2.203 . S
Cd46 O48 2.411 . S
Cd46 O49 2.333 . S
Cd46 O50 2.352 . S
Cd46 O54 2.277 . S
Cd46 O55 2.356 . S
C47 O52 1.209 . S
C47 O54 1.226 . S
O48 Cd44 2.273 . S
O48 Cd46 2.411 . S
O48 C51 1.320 . S
O49 Cd46 2.333 . S
O49 C51 1.214 . S
O50 Cd46 2.352 . S
O50 C53 1.258 . S
C51 O48 1.320 . S
C51 O49 1.214 . S
O52 Cd44 2.277 . S
O52 C47 1.209 . S
C53 O50 1.258 . S
C53 O55 1.282 . S
O54 Cd46 2.277 . S
O54 C47 1.226 . S
O55 Cd46 2.356 . S
O55 C53 1.282 . S
C56 O57 1.306 . S
C56 O59 1.160 . S
O57 C56 1.306 . S
O57 Cd58 2.228 1_655 S
Cd58 O57 2.228 1_455 S
Cd58 O62 2.273 . S
Cd58 O66 2.277 . S
O59 C56 1.160 . S
O59 Cd60 2.203 1_655 S
Cd60 O59 2.203 1_455 S
Cd60 O62 2.411 . S
Cd60 O63 2.333 . S
Cd60 O64 2.352 . S
Cd60 O68 2.277 . S
Cd60 O69 2.356 . S
C61 O66 1.209 . S
C61 O68 1.226 . S
O62 Cd58 2.273 . S
O62 Cd60 2.411 . S
O62 C65 1.320 . S
O63 Cd60 2.333 . S
O63 C65 1.214 . S
O64 Cd60 2.352 . S
O64 C67 1.258 . S
C65 O62 1.320 . S
C65 O63 1.214 . S
O66 Cd58 2.277 . S
O66 C61 1.209 . S
C67 O64 1.258 . S
C67 O69 1.282 . S
O68 Cd60 2.277 . S
O68 C61 1.226 . S
O69 Cd60 2.356 . S
O69 C67 1.282 . S
C70 O71 1.306 . S
C70 O73 1.160 . S
O71 C70 1.306 . S
O71 Cd72 2.228 . S
Cd72 O71 2.228 . S
Cd72 O76 2.273 . S
Cd72 O80 2.277 . S
O73 C70 1.160 . S
O73 Cd74 2.203 . S
Cd74 O73 2.203 . S
Cd74 O76 2.411 . S
Cd74 O77 2.333 . S
Cd74 O78 2.352 . S
Cd74 O82 2.277 . S
Cd74 O83 2.356 . S
C75 O80 1.209 . S
C75 O82 1.226 . S
O76 Cd72 2.273 . S
O76 Cd74 2.411 . S
O76 C79 1.320 . S
O77 Cd74 2.333 . S
O77 C79 1.214 . S
O78 Cd74 2.352 . S
O78 C81 1.258 . S
C79 O76 1.320 . S
C79 O77 1.214 . S
O80 Cd72 2.277 . S
O80 C75 1.209 . S
C81 O78 1.258 . S
C81 O83 1.282 . S
O82 Cd74 2.277 . S
O82 C75 1.226 . S
O83 Cd74 2.356 . S
O83 C81 1.282 . S
C84 O85 1.306 . S
C84 O87 1.160 . S
O85 C84 1.306 . S
O85 Cd86 2.228 . S
Cd86 O85 2.228 . S
Cd86 O90 2.273 . S
Cd86 O94 2.277 . S
O87 C84 1.160 . S
O87 Cd88 2.203 . S
Cd88 O87 2.203 . S
Cd88 O90 2.411 . S
Cd88 O91 2.333 . S
Cd88 O92 2.352 . S
Cd88 O96 2.277 . S
Cd88 O97 2.356 . S
C89 O94 1.209 . S
C89 O96 1.226 . S
O90 Cd86 2.273 . S
O90 Cd88 2.411 . S
O90 C93 1.320 . S
O91 Cd88 2.333 . S
O91 C93 1.214 . S
O92 Cd88 2.352 . S
O92 C95 1.258 . S
C93 O90 1.320 . S
C93 O91 1.214 . S
O94 Cd86 2.277 . S
O94 C89 1.209 . S
C95 O92 1.258 . S
C95 O97 1.282 . S
O96 Cd88 2.277 . S
O96 C89 1.226 . S
O97 Cd88 2.356 . S
O97 C95 1.282 . S
C98 O99 1.306 . S
C98 O101 1.160 . S
O99 C98 1.306 . S
O99 Cd100 2.228 1_655 S
Cd100 O99 2.228 1_455 S
Cd100 O104 2.273 . S
Cd100 O108 2.277 . S
O101 C98 1.160 . S
O101 Cd102 2.203 1_655 S
Cd102 O101 2.203 1_455 S
Cd102 O104 2.411 . S
Cd102 O105 2.333 . S
Cd102 O106 2.352 . S
Cd102 O110 2.277 . S
Cd102 O111 2.356 . S
C103 O108 1.209 . S
C103 O110 1.226 . S
O104 Cd100 2.273 . S
O104 Cd102 2.411 . S
O104 C107 1.320 . S
O105 Cd102 2.333 . S
O105 C107 1.214 . S
O106 Cd102 2.352 . S
O106 C109 1.258 . S
C107 O104 1.320 . S
C107 O105 1.214 . S
O108 Cd100 2.277 . S
O108 C103 1.209 . S
C109 O106 1.258 . S
C109 O111 1.282 . S
O110 Cd102 2.277 . S
O110 C103 1.226 . S
O111 Cd102 2.356 . S
O111 C109 1.282 . S
C112 O113 1.306 . S
C112 O115 1.160 . S
O113 C112 1.306 . S
O113 Cd114 2.228 . S
Cd114 O113 2.228 . S
Cd114 O118 2.273 . S
Cd114 O122 2.277 1_545 S
O115 C112 1.160 . S
O115 Cd116 2.203 . S
Cd116 O115 2.203 . S
Cd116 O118 2.411 . S
Cd116 O119 2.333 . S
Cd116 O120 2.352 . S
Cd116 O124 2.277 . S
Cd116 O125 2.356 . S
C117 O122 1.209 . S
C117 O124 1.226 1_565 S
O118 Cd114 2.273 . S
O118 Cd116 2.411 . S
O118 C121 1.320 . S
O119 Cd116 2.333 . S
O119 C121 1.214 . S
O120 Cd116 2.352 . S
O120 C123 1.258 . S
C121 O118 1.320 . S
C121 O119 1.214 . S
O122 Cd114 2.277 1_565 S
O122 C117 1.209 . S
C123 O120 1.258 . S
C123 O125 1.282 . S
O124 Cd116 2.277 . S
O124 C117 1.226 1_545 S
O125 Cd116 2.356 . S
O125 C123 1.282 . S
C126 O127 1.306 . S
C126 O129 1.160 . S
O127 C126 1.306 . S
O127 Cd128 2.228 . S
Cd128 O127 2.228 . S
Cd128 O132 2.273 . S
Cd128 O136 2.277 . S
O129 C126 1.160 . S
O129 Cd130 2.203 . S
Cd130 O129 2.203 . S
Cd130 O132 2.411 . S
Cd130 O133 2.333 . S
Cd130 O134 2.352 . S
Cd130 O138 2.277 . S
Cd130 O139 2.356 . S
C131 O136 1.209 . S
C131 O138 1.226 . S
O132 Cd128 2.273 . S
O132 Cd130 2.411 . S
O132 C135 1.320 . S
O133 Cd130 2.333 . S
O133 C135 1.214 . S
O134 Cd130 2.352 . S
O134 C137 1.258 . S
C135 O132 1.320 . S
C135 O133 1.214 . S
O136 Cd128 2.277 . S
O136 C131 1.209 . S
C137 O134 1.258 . S
C137 O139 1.282 . S
O138 Cd130 2.277 . S
O138 C131 1.226 . S
O139 Cd130 2.356 . S
O139 C137 1.282 . S
C140 O141 1.306 . S
C140 O143 1.144 1_545 S
O141 C140 1.306 . S
O141 Cd142 2.228 . S
Cd142 O141 2.228 . S
Cd142 O146 2.273 1_545 S
Cd142 O150 2.277 . S
O143 C140 1.144 1_565 S
O143 Cd144 2.204 . S
Cd144 O143 2.204 . S
Cd144 O146 2.411 . S
Cd144 O147 2.333 . S
Cd144 O148 2.352 . S
Cd144 O152 2.277 1_565 S
Cd144 O153 2.356 . S
C145 O150 1.209 . S
C145 O152 1.226 . S
O146 Cd142 2.273 1_565 S
O146 Cd144 2.411 . S
O146 C149 1.320 . S
O147 Cd144 2.333 . S
O147 C149 1.214 . S
O148 Cd144 2.352 . S
O148 C151 1.258 . S
C149 O146 1.320 . S
C149 O147 1.214 . S
O150 Cd142 2.277 . S
O150 C145 1.209 . S
C151 O148 1.258 . S
C151 O153 1.282 . S
O152 Cd144 2.277 1_545 S
O152 C145 1.226 . S
O153 Cd144 2.356 . S
O153 C151 1.282 . S
C154 O155 1.306 . S
C154 O157 1.160 . S
O155 C154 1.306 . S
O155 Cd156 2.228 1_554 S
Cd156 O155 2.228 1_556 S
Cd156 O160 2.273 1_556 S
Cd156 O164 2.277 . S
O157 C154 1.160 . S
O157 Cd158 2.203 . S
Cd158 O157 2.203 . S
Cd158 O160 2.411 . S
Cd158 O161 2.333 . S
Cd158 O162 2.352 . S
Cd158 O166 2.277 1_554 S
Cd158 O167 2.356 . S
C159 O164 1.209 . S
C159 O166 1.226 . S
O160 Cd156 2.273 1_554 S
O160 Cd158 2.411 . S
O160 C163 1.320 . S
O161 Cd158 2.333 . S
O161 C163 1.214 . S
O162 Cd158 2.352 . S
O162 C165 1.258 . S
C163 O160 1.320 . S
C163 O161 1.214 . S
O164 Cd156 2.277 . S
O164 C159 1.209 . S
C165 O162 1.258 . S
C165 O167 1.282 . S
O166 Cd158 2.277 1_556 S
O166 C159 1.226 . S
O167 Cd158 2.356 . S
O167 C165 1.282 . S
C168 O169 1.306 . S
C168 O171 1.160 . S
O169 C168 1.306 . S
O169 Cd170 2.228 1_554 S
Cd170 O169 2.228 1_556 S
Cd170 O174 2.273 1_556 S
Cd170 O178 2.277 . S
O171 C168 1.160 . S
O171 Cd172 2.203 . S
Cd172 O171 2.203 . S
Cd172 O174 2.411 . S
Cd172 O175 2.333 . S
Cd172 O176 2.352 . S
Cd172 O180 2.277 1_554 S
Cd172 O181 2.356 . S
C173 O178 1.209 . S
C173 O180 1.226 . S
O174 Cd170 2.273 1_554 S
O174 Cd172 2.411 . S
O174 C177 1.320 . S
O175 Cd172 2.333 . S
O175 C177 1.214 . S
O176 Cd172 2.352 . S
O176 C179 1.258 . S
C177 O174 1.320 . S
C177 O175 1.214 . S
O178 Cd170 2.277 . S
O178 C173 1.209 . S
C179 O176 1.258 . S
C179 O181 1.282 . S
O180 Cd172 2.277 1_556 S
O180 C173 1.226 . S
O181 Cd172 2.356 . S
O181 C179 1.282 . S
C182 O183 1.306 . S
C182 O185 1.152 1_554 S
O183 C182 1.306 . S
O183 Cd184 2.228 . S
Cd184 O183 2.228 . S
Cd184 O188 2.273 1_554 S
Cd184 O192 2.277 . S
O185 C182 1.152 1_556 S
O185 Cd186 2.203 . S
Cd186 O185 2.203 . S
Cd186 O188 2.411 . S
Cd186 O189 2.333 . S
Cd186 O190 2.352 . S
Cd186 O194 2.277 1_556 S
Cd186 O195 2.356 . S
C187 O192 1.209 . S
C187 O194 1.226 . S
O188 Cd184 2.273 1_556 S
O188 Cd186 2.411 . S
O188 C191 1.320 . S
O189 Cd186 2.333 . S
O189 C191 1.214 . S
O190 Cd186 2.352 . S
O190 C193 1.258 . S
C191 O188 1.320 . S
C191 O189 1.214 . S
O192 Cd184 2.277 . S
O192 C187 1.209 . S
C193 O190 1.258 . S
C193 O195 1.282 . S
O194 Cd186 2.277 1_554 S
O194 C187 1.226 . S
O195 Cd186 2.356 . S
O195 C193 1.282 . S
C196 O197 1.306 . S
C196 O199 1.160 . S
O197 C196 1.306 . S
O197 Cd198 2.228 . S
Cd198 O197 2.228 . S
Cd198 O202 2.273 . S
Cd198 O206 2.277 . S
O199 C196 1.160 . S
O199 Cd200 2.203 . S
Cd200 O199 2.203 . S
Cd200 O202 2.411 . S
Cd200 O203 2.333 . S
Cd200 O204 2.352 . S
Cd200 O208 2.277 . S
Cd200 O209 2.356 . S
C201 O206 1.209 . S
C201 O208 1.226 . S
O202 Cd198 2.273 . S
O202 Cd200 2.411 . S
O202 C205 1.320 . S
O203 Cd200 2.333 . S
O203 C205 1.214 . S
O204 Cd200 2.352 . S
O204 C207 1.258 . S
C205 O202 1.320 . S
C205 O203 1.214 . S
O206 Cd198 2.277 . S
O206 C201 1.209 . S
C207 O204 1.258 . S
C207 O209 1.282 . S
O208 Cd200 2.277 . S
O208 C201 1.226 . S
O209 Cd200 2.356 . S
O209 C207 1.282 . S
C210 O211 1.306 . S
C210 O213 1.160 . S
O211 C210 1.306 . S
O211 Cd212 2.228 . S
Cd212 O211 2.228 . S
Cd212 O216 2.273 . S
Cd212 O220 2.277 . S
O213 C210 1.160 . S
O213 Cd214 2.203 . S
Cd214 O213 2.203 . S
Cd214 O216 2.411 . S
Cd214 O217 2.333 . S
Cd214 O218 2.352 . S
Cd214 O222 2.277 . S
Cd214 O223 2.356 . S
C215 O220 1.209 . S
C215 O222 1.226 . S
O216 Cd212 2.273 . S
O216 Cd214 2.411 . S
O216 C219 1.320 . S
O217 Cd214 2.333 . S
O217 C219 1.214 . S
O218 Cd214 2.352 . S
O218 C221 1.258 . S
C219 O216 1.320 . S
C219 O217 1.214 . S
O220 Cd212 2.277 . S
O220 C215 1.209 . S
C221 O218 1.258 . S
C221 O223 1.282 . S
O222 Cd214 2.277 . S
O222 C215 1.226 . S
O223 Cd214 2.356 . S
O223 C221 1.282 . S
C224 O225 1.306 . S
C224 O227 1.160 . S
O225 C224 1.306 . S
O225 Cd226 2.228 . S
Cd226 O225 2.228 . S
Cd226 O230 2.273 . S
Cd226 O234 2.277 . S
O227 C224 1.160 . S
O227 Cd228 2.203 . S
Cd228 O227 2.203 . S
Cd228 O230 2.411 . S
Cd228 O231 2.333 . S
Cd228 O232 2.352 . S
Cd228 O236 2.277 . S
Cd228 O237 2.356 . S
C229 O234 1.209 . S
C229 O236 1.226 . S
O230 Cd226 2.273 . S
O230 Cd228 2.411 . S
O230 C233 1.320 . S
O231 Cd228 2.333 . S
O231 C233 1.214 . S
O232 Cd228 2.352 . S
O232 C235 1.258 . S
C233 O230 1.320 . S
C233 O231 1.214 . S
O234 Cd226 2.277 . S
O234 C229 1.209 . S
C235 O232 1.258 . S
C235 O237 1.282 . S
O236 Cd228 2.277 . S
O236 C229 1.226 . S
O237 Cd228 2.356 . S
O237 C235 1.282 . S
C238 O239 1.306 . S
C238 O241 1.160 . S
O239 C238 1.306 . S
O239 Cd240 2.228 . S
Cd240 O239 2.228 . S
Cd240 O244 2.273 . S
Cd240 O248 2.277 . S
O241 C238 1.160 . S
O241 Cd242 2.203 . S
Cd242 O241 2.203 . S
Cd242 O244 2.411 . S
Cd242 O245 2.333 . S
Cd242 O246 2.352 . S
Cd242 O250 2.277 . S
Cd242 O251 2.356 . S
C243 O248 1.209 . S
C243 O250 1.226 . S
O244 Cd240 2.273 . S
O244 Cd242 2.411 . S
O244 C247 1.320 . S
O245 Cd242 2.333 . S
O245 C247 1.214 . S
O246 Cd242 2.352 . S
O246 C249 1.258 . S
C247 O244 1.320 . S
C247 O245 1.214 . S
O248 Cd240 2.277 . S
O248 C243 1.209 . S
C249 O246 1.258 . S
C249 O251 1.282 . S
O250 Cd242 2.277 . S
O250 C243 1.226 . S
O251 Cd242 2.356 . S
O251 C249 1.282 . S
C252 O253 1.306 . S
C252 O255 1.160 . S
O253 C252 1.306 . S
O253 Cd254 2.228 . S
Cd254 O253 2.228 . S
Cd254 O258 2.273 . S
Cd254 O262 2.277 . S
O255 C252 1.160 . S
O255 Cd256 2.203 . S
Cd256 O255 2.203 . S
Cd256 O258 2.411 . S
Cd256 O259 2.333 . S
Cd256 O260 2.352 . S
Cd256 O264 2.277 . S
Cd256 O265 2.356 . S
C257 O262 1.209 . S
C257 O264 1.226 . S
O258 Cd254 2.273 . S
O258 Cd256 2.411 . S
O258 C261 1.320 . S
O259 Cd256 2.333 . S
O259 C261 1.214 . S
O260 Cd256 2.352 . S
O260 C263 1.258 . S
C261 O258 1.320 . S
C261 O259 1.214 . S
O262 Cd254 2.277 . S
O262 C257 1.209 . S
C263 O260 1.258 . S
C263 O265 1.282 . S
O264 Cd256 2.277 . S
O264 C257 1.226 . S
O265 Cd256 2.356 . S
O265 C263 1.282 . S
C266 O267 1.306 . S
C266 O269 1.160 . S
O267 C266 1.306 . S
O267 Cd268 2.228 . S
Cd268 O267 2.228 . S
Cd268 O272 2.273 . S
Cd268 O276 2.277 . S
O269 C266 1.160 . S
O269 Cd270 2.203 . S
Cd270 O269 2.203 . S
Cd270 O272 2.411 . S
Cd270 O273 2.333 . S
Cd270 O274 2.352 1_545 S
Cd270 O278 2.277 . S
Cd270 O279 2.356 1_545 S
C271 O276 1.209 . S
C271 O278 1.226 . S
O272 Cd268 2.273 . S
O272 Cd270 2.411 . S
O272 C275 1.320 . S
O273 Cd270 2.333 . S
O273 C275 1.214 . S
O274 Cd270 2.352 1_565 S
O274 C277 1.258 . S
C275 O272 1.320 . S
C275 O273 1.214 . S
O276 Cd268 2.277 . S
O276 C271 1.209 . S
C277 O274 1.258 . S
C277 O279 1.282 . S
O278 Cd270 2.277 . S
O278 C271 1.226 . S
O279 Cd270 2.356 1_565 S
O279 C277 1.282 . S
C280 O281 1.306 . S
C280 O283 1.160 . S
O281 C280 1.306 . S
O281 Cd282 2.228 . S
Cd282 O281 2.228 . S
Cd282 O286 2.273 . S
Cd282 O290 2.277 . S
O283 C280 1.160 . S
O283 Cd284 2.204 1_554 S
Cd284 O283 2.204 1_556 S
Cd284 O286 2.404 1_556 S
Cd284 O287 2.331 . S
Cd284 O288 2.394 . S
Cd284 O292 2.244 1_556 S
Cd284 O293 2.385 . S
C285 O290 1.209 . S
C285 O292 1.226 . S
O286 Cd282 2.273 . S
O286 Cd284 2.404 1_554 S
O286 C289 1.320 1_554 S
O287 Cd284 2.331 . S
O287 C289 1.214 . S
O288 Cd284 2.394 . S
O288 C291 1.258 . S
C289 O286 1.320 1_556 S
C289 O287 1.214 . S
O290 Cd282 2.277 . S
O290 C285 1.209 . S
C291 O288 1.258 . S
C291 O293 1.282 . S
O292 Cd284 2.244 1_554 S
O292 C285 1.226 . S
O293 Cd284 2.385 . S
O293 C291 1.282 . S
C294 O295 1.306 . S
C294 O297 1.160 . S
O295 C294 1.306 . S
O295 Cd296 2.228 . S
Cd296 O295 2.228 . S
Cd296 O300 2.273 . S
Cd296 O304 2.277 . S
O297 C294 1.160 . S
O297 Cd298 2.203 . S
Cd298 O297 2.203 . S
Cd298 O300 2.411 . S
Cd298 O301 2.333 . S
Cd298 O302 2.352 . S
Cd298 O306 2.277 . S
Cd298 O307 2.356 . S
C299 O304 1.209 . S
C299 O306 1.226 . S
O300 Cd296 2.273 . S
O300 Cd298 2.411 . S
O300 C303 1.320 . S
O301 Cd298 2.333 . S
O301 C303 1.214 . S
O302 Cd298 2.352 . S
O302 C305 1.258 . S
C303 O300 1.320 . S
C303 O301 1.214 . S
O304 Cd296 2.277 . S
O304 C299 1.209 . S
C305 O302 1.258 . S
C305 O307 1.282 . S
O306 Cd298 2.277 . S
O306 C299 1.226 . S
O307 Cd298 2.356 . S
O307 C305 1.282 . S
C308 O309 1.306 . S
C308 O311 1.160 . S
O309 C308 1.306 . S
O309 Cd310 2.228 . S
Cd310 O309 2.228 . S
Cd310 O314 2.273 . S
Cd310 O318 2.277 . S
O311 C308 1.160 . S
O311 Cd312 2.203 . S
Cd312 O311 2.203 . S
Cd312 O314 2.411 . S
Cd312 O315 2.333 . S
Cd312 O316 2.352 . S
Cd312 O320 2.277 . S
Cd312 O321 2.356 . S
C313 O318 1.209 . S
C313 O320 1.226 . S
O314 Cd310 2.273 . S
O314 Cd312 2.411 . S
O314 C317 1.320 . S
O315 Cd312 2.333 . S
O315 C317 1.214 . S
O316 Cd312 2.352 . S
O316 C319 1.258 . S
C317 O314 1.320 . S
C317 O315 1.214 . S
O318 Cd310 2.277 . S
O318 C313 1.209 . S
C319 O316 1.258 . S
C319 O321 1.282 . S
O320 Cd312 2.277 . S
O320 C313 1.226 . S
O321 Cd312 2.356 . S
O321 C319 1.282 . S
C322 O323 1.306 . S
C322 O325 1.160 . S
O323 C322 1.306 . S
O323 Cd324 2.228 . S
Cd324 O323 2.228 . S
Cd324 O328 2.273 . S
Cd324 O332 2.277 . S
O325 C322 1.160 . S
O325 Cd326 2.203 . S
Cd326 O325 2.203 . S
Cd326 O328 2.411 . S
Cd326 O329 2.333 . S
Cd326 O330 2.352 . S
Cd326 O334 2.277 . S
Cd326 O335 2.356 . S
C327 O332 1.209 . S
C327 O334 1.226 . S
O328 Cd324 2.273 . S
O328 Cd326 2.411 . S
O328 C331 1.320 . S
O329 Cd326 2.333 . S
O329 C331 1.214 . S
O330 Cd326 2.352 . S
O330 C333 1.258 . S
C331 O328 1.320 . S
C331 O329 1.214 . S
O332 Cd324 2.277 . S
O332 C327 1.209 . S
C333 O330 1.258 . S
C333 O335 1.282 . S
O334 Cd326 2.277 . S
O334 C327 1.226 . S
O335 Cd326 2.356 . S
O335 C333 1.282 . S
Tb336 O339 2.453 . S
Tb336 O340 2.596 . S
Tb336 O341 2.374 1_554 S
Tb336 O349 2.343 1_455 S
Tb336 O351 2.353 . S
Tb336 O353 2.427 . S
Tb336 O354 2.513 1_554 S
C337 O341 1.251 . S
C337 O343 1.263 . S
Tb338 O340 2.343 1_665 S
Tb338 O343 2.353 1_664 S
Tb338 O346 2.427 1_655 S
Tb338 O347 2.513 1_655 S
Tb338 O348 2.438 1_564 S
Tb338 O349 2.596 1_565 S
Tb338 O350 2.374 1_565 S
O339 Tb336 2.453 . S
O339 C355 1.245 . S
O340 Tb336 2.596 . S
O340 Tb338 2.343 1_445 S
O340 C355 1.259 . S
O341 Tb336 2.374 1_556 S
O341 C337 1.251 . S
C342 O346 1.275 . S
C342 O347 1.246 . S
O343 C337 1.263 . S
O343 Tb338 2.353 1_446 S
C344 O348 1.241 1_554 S
C344 O349 1.259 . S
C345 O350 1.250 . S
C345 O351 1.263 1_655 S
O346 Tb338 2.427 1_455 S
O346 C342 1.275 . S
O347 Tb338 2.513 1_455 S
O347 C342 1.246 . S
O348 Tb338 2.438 1_546 S
O348 C344 1.241 1_556 S
O349 Tb336 2.343 1_655 S
O349 Tb338 2.596 1_545 S
O349 C344 1.259 . S
O350 Tb338 2.374 1_545 S
O350 C345 1.250 . S
O351 Tb336 2.353 . S
O351 C345 1.263 1_455 S
C352 O353 1.275 . S
C352 O354 1.246 1_554 S
O353 Tb336 2.427 . S
O353 C352 1.275 . S
O354 Tb336 2.513 1_556 S
O354 C352 1.246 1_556 S
C355 O339 1.245 . S
C355 O340 1.259 . S
Tb356 O359 2.453 . S
Tb356 O360 2.596 . S
Tb356 O361 2.374 . S
Tb356 O369 2.343 . S
Tb356 O371 2.353 . S
Tb356 O373 2.427 . S
Tb356 O374 2.513 . S
C357 O361 1.251 . S
C357 O363 1.263 . S
Tb358 O360 2.343 . S
Tb358 O363 2.353 . S
Tb358 O366 2.427 . S
Tb358 O367 2.513 . S
Tb358 O368 2.453 . S
Tb358 O369 2.596 . S
Tb358 O370 2.374 . S
O359 Tb356 2.453 . S
O359 C375 1.245 . S
O360 Tb356 2.596 . S
O360 Tb358 2.343 . S
O360 C375 1.259 . S
O361 Tb356 2.374 . S
O361 C357 1.251 . S
C362 O366 1.275 . S
C362 O367 1.246 . S
O363 C357 1.263 . S
O363 Tb358 2.353 . S
C364 O368 1.245 . S
C364 O369 1.259 . S
C365 O370 1.250 . S
C365 O371 1.263 . S
O366 Tb358 2.427 . S
O366 C362 1.275 . S
O367 Tb358 2.513 . S
O367 C362 1.246 . S
O368 Tb358 2.453 . S
O368 C364 1.245 . S
O369 Tb356 2.343 . S
O369 Tb358 2.596 . S
O369 C364 1.259 . S
O370 Tb358 2.374 . S
O370 C365 1.250 . S
O371 Tb356 2.353 . S
O371 C365 1.263 . S
C372 O373 1.275 . S
C372 O374 1.246 . S
O373 Tb356 2.427 . S
O373 C372 1.275 . S
O374 Tb356 2.513 . S
O374 C372 1.246 . S
C375 O359 1.245 . S
C375 O360 1.259 . S
Tb376 O379 2.453 . S
Tb376 O380 2.596 . S
Tb376 O381 2.374 . S
Tb376 O389 2.343 . S
Tb376 O391 2.353 . S
Tb376 O393 2.427 . S
Tb376 O394 2.513 . S
C377 O381 1.251 . S
C377 O383 1.263 . S
Tb378 O380 2.343 . S
Tb378 O383 2.353 . S
Tb378 O386 2.427 . S
Tb378 O387 2.513 . S
Tb378 O388 2.453 1_545 S
Tb378 O389 2.596 . S
Tb378 O390 2.374 . S
O379 Tb376 2.453 . S
O379 C395 1.245 . S
O380 Tb376 2.596 . S
O380 Tb378 2.343 . S
O380 C395 1.259 . S
O381 Tb376 2.374 . S
O381 C377 1.251 . S
C382 O386 1.275 . S
C382 O387 1.246 . S
O383 C377 1.263 . S
O383 Tb378 2.353 . S
C384 O388 1.245 . S
C384 O389 1.259 1_565 S
C385 O390 1.250 . S
C385 O391 1.263 . S
O386 Tb378 2.427 . S
O386 C382 1.275 . S
O387 Tb378 2.513 . S
O387 C382 1.246 . S
O388 Tb378 2.453 1_565 S
O388 C384 1.245 . S
O389 Tb376 2.343 . S
O389 Tb378 2.596 . S
O389 C384 1.259 1_545 S
O390 Tb378 2.374 . S
O390 C385 1.250 . S
O391 Tb376 2.353 . S
O391 C385 1.263 . S
C392 O393 1.248 1_565 S
C392 O394 1.244 1_565 S
O393 Tb376 2.427 . S
O393 C392 1.248 1_545 S
O394 Tb376 2.513 . S
O394 C392 1.244 1_545 S
C395 O379 1.245 . S
C395 O380 1.259 . S
Tb396 O399 2.453 . S
Tb396 O400 2.596 . S
Tb396 O401 2.374 . S
Tb396 O409 2.343 . S
Tb396 O411 2.353 . S
Tb396 O413 2.427 . S
Tb396 O414 2.513 . S
C397 O401 1.251 . S
C397 O403 1.263 . S
Tb398 O400 2.343 . S
Tb398 O403 2.353 . S
Tb398 O406 2.427 . S
Tb398 O407 2.513 . S
Tb398 O408 2.453 . S
Tb398 O409 2.596 . S
Tb398 O410 2.374 . S
O399 Tb396 2.453 . S
O399 C415 1.245 . S
O400 Tb396 2.596 . S
O400 Tb398 2.343 . S
O400 C415 1.259 . S
O401 Tb396 2.374 . S
O401 C397 1.251 . S
C402 O406 1.275 . S
C402 O407 1.246 . S
O403 C397 1.263 . S
O403 Tb398 2.353 . S
C404 O408 1.245 . S
C404 O409 1.259 . S
C405 O410 1.250 . S
C405 O411 1.263 . S
O406 Tb398 2.427 . S
O406 C402 1.275 . S
O407 Tb398 2.513 . S
O407 C402 1.246 . S
O408 Tb398 2.453 . S
O408 C404 1.245 . S
O409 Tb396 2.343 . S
O409 Tb398 2.596 . S
O409 C404 1.259 . S
O410 Tb398 2.374 . S
O410 C405 1.250 . S
O411 Tb396 2.353 . S
O411 C405 1.263 . S
C412 O413 1.275 . S
C412 O414 1.246 . S
O413 Tb396 2.427 . S
O413 C412 1.275 . S
O414 Tb396 2.513 . S
O414 C412 1.246 . S
C415 O399 1.245 . S
C415 O400 1.259 . S
Tb416 O419 2.453 1_545 S
Tb416 O420 2.596 . S
Tb416 O421 2.374 1_455 S
Tb416 O429 2.343 . S
Tb416 O431 2.353 . S
Tb416 O433 2.427 . S
Tb416 O434 2.513 1_455 S
C417 O421 1.251 . S
C417 O423 1.263 . S
Tb418 O420 2.343 . S
Tb418 O423 2.353 1_455 S
Tb418 O426 2.427 . S
Tb418 O427 2.513 . S
Tb418 O428 2.453 . S
Tb418 O429 2.596 . S
Tb418 O430 2.374 . S
O419 Tb416 2.453 1_565 S
O419 C435 1.245 . S
O420 Tb416 2.596 . S
O420 Tb418 2.343 . S
O420 C435 1.259 1_545 S
O421 Tb416 2.374 1_655 S
O421 C417 1.251 . S
C422 O426 1.275 . S
C422 O427 1.246 . S
O423 C417 1.263 . S
O423 Tb418 2.353 1_655 S
C424 O428 1.245 . S
C424 O429 1.259 . S
C425 O430 1.250 . S
C425 O431 1.263 . S
O426 Tb418 2.427 . S
O426 C422 1.275 . S
O427 Tb418 2.513 . S
O427 C422 1.246 . S
O428 Tb418 2.453 . S
O428 C424 1.245 . S
O429 Tb416 2.343 . S
O429 Tb418 2.596 . S
O429 C424 1.259 . S
O430 Tb418 2.374 . S
O430 C425 1.250 . S
O431 Tb416 2.353 . S
O431 C425 1.263 . S
C432 O433 1.275 1_655 S
C432 O434 1.246 . S
O433 Tb416 2.427 . S
O433 C432 1.275 1_455 S
O434 Tb416 2.513 1_655 S
O434 C432 1.246 . S
C435 O419 1.245 . S
C435 O420 1.259 1_565 S
Tb436 O439 2.453 . S
Tb436 O440 2.596 . S
Tb436 O441 2.374 . S
Tb436 O449 2.343 . S
Tb436 O451 2.353 . S
Tb436 O453 2.427 . S
Tb436 O454 2.513 . S
C437 O441 1.251 . S
C437 O443 1.263 . S
Tb438 O440 2.343 . S
Tb438 O443 2.353 . S
Tb438 O446 2.427 . S
Tb438 O447 2.513 . S
Tb438 O448 2.453 . S
Tb438 O449 2.596 . S
Tb438 O450 2.374 . S
O439 Tb436 2.453 . S
O439 C455 1.245 . S
O440 Tb436 2.596 . S
O440 Tb438 2.343 . S
O440 C455 1.259 . S
O441 Tb436 2.374 . S
O441 C437 1.251 . S
C442 O446 1.275 . S
C442 O447 1.246 . S
O443 C437 1.263 . S
O443 Tb438 2.353 . S
C444 O448 1.245 . S
C444 O449 1.259 . S
C445 O450 1.250 . S
C445 O451 1.263 . S
O446 Tb438 2.427 . S
O446 C442 1.275 . S
O447 Tb438 2.513 . S
O447 C442 1.246 . S
O448 Tb438 2.453 . S
O448 C444 1.245 . S
O449 Tb436 2.343 . S
O449 Tb438 2.596 . S
O449 C444 1.259 . S
O450 Tb438 2.374 . S
O450 C445 1.250 . S
O451 Tb436 2.353 . S
O451 C445 1.263 . S
C452 O453 1.275 . S
C452 O454 1.246 . S
O453 Tb436 2.427 . S
O453 C452 1.275 . S
O454 Tb436 2.513 . S
O454 C452 1.246 . S
C455 O439 1.245 . S
C455 O440 1.259 . S
Tb456 O459 2.453 . S
Tb456 O460 2.596 . S
Tb456 O461 2.374 1_545 S
Tb456 O469 2.343 1_556 S
Tb456 O471 2.353 1_556 S
Tb456 O473 2.427 1_556 S
Tb456 O474 2.513 1_546 S
C457 O461 1.248 1_554 S
C457 O463 1.271 . S
Tb458 O460 2.343 1_554 S
Tb458 O463 2.353 1_545 S
Tb458 O466 2.427 . S
Tb458 O467 2.513 . S
Tb458 O468 2.453 . S
Tb458 O469 2.596 . S
Tb458 O470 2.374 . S
O459 Tb456 2.453 . S
O459 C475 1.245 . S
O460 Tb456 2.596 . S
O460 Tb458 2.343 1_556 S
O460 C475 1.259 . S
O461 Tb456 2.374 1_565 S
O461 C457 1.248 1_556 S
C462 O466 1.275 . S
C462 O467 1.246 . S
O463 C457 1.271 . S
O463 Tb458 2.353 1_565 S
C464 O468 1.245 . S
C464 O469 1.259 . S
C465 O470 1.250 . S
C465 O471 1.263 . S
O466 Tb458 2.427 . S
O466 C462 1.275 . S
O467 Tb458 2.513 . S
O467 C462 1.246 . S
O468 Tb458 2.453 . S
O468 C464 1.245 . S
O469 Tb456 2.343 1_554 S
O469 Tb458 2.596 . S
O469 C464 1.259 . S
O470 Tb458 2.374 . S
O470 C465 1.250 . S
O471 Tb456 2.353 1_554 S
O471 C465 1.263 . S
C472 O473 1.275 . S
C472 O474 1.246 1_545 S
O473 Tb456 2.427 1_554 S
O473 C472 1.275 . S
O474 Tb456 2.513 1_564 S
O474 C472 1.246 1_565 S
C475 O459 1.245 . S
C475 O460 1.259 . S
Tb476 O479 2.453 . S
Tb476 O480 2.596 . S
Tb476 O481 2.374 . S
Tb476 O489 2.343 . S
Tb476 O491 2.353 . S
Tb476 O493 2.427 . S
Tb476 O494 2.513 . S
C477 O481 1.251 . S
C477 O483 1.263 . S
Tb478 O480 2.343 . S
Tb478 O483 2.353 . S
Tb478 O486 2.427 . S
Tb478 O487 2.513 . S
Tb478 O488 2.453 . S
Tb478 O489 2.596 . S
Tb478 O490 2.374 . S
O479 Tb476 2.453 . S
O479 C495 1.245 . S
O480 Tb476 2.596 . S
O480 Tb478 2.343 . S
O480 C495 1.259 . S
O481 Tb476 2.374 . S
O481 C477 1.251 . S
C482 O486 1.275 . S
C482 O487 1.246 . S
O483 C477 1.263 . S
O483 Tb478 2.353 . S
C484 O488 1.245 . S
C484 O489 1.259 . S
C485 O490 1.250 . S
C485 O491 1.263 . S
O486 Tb478 2.427 . S
O486 C482 1.275 . S
O487 Tb478 2.513 . S
O487 C482 1.246 . S
O488 Tb478 2.453 . S
O488 C484 1.245 . S
O489 Tb476 2.343 . S
O489 Tb478 2.596 . S
O489 C484 1.259 . S
O490 Tb478 2.374 . S
O490 C485 1.250 . S
O491 Tb476 2.353 . S
O491 C485 1.263 . S
C492 O493 1.275 . S
C492 O494 1.246 . S
O493 Tb476 2.427 . S
O493 C492 1.275 . S
O494 Tb476 2.513 . S
O494 C492 1.246 . S
C495 O479 1.245 . S
C495 O480 1.259 . S
Tb496 O499 2.453 1_556 S
Tb496 O500 2.596 1_556 S
Tb496 O501 2.356 1_556 S
Tb496 O509 2.345 . S
Tb496 O511 2.353 . S
Tb496 O513 2.427 . S
Tb496 O514 2.513 . S
C497 O501 1.282 . S
C497 O503 1.263 . S
Tb498 O500 2.343 . S
Tb498 O503 2.353 . S
Tb498 O506 2.427 . S
Tb498 O507 2.513 . S
Tb498 O508 2.453 . S
Tb498 O509 2.589 1_554 S
Tb498 O510 2.374 . S
O499 Tb496 2.453 1_554 S
O499 C515 1.245 . S
O500 Tb496 2.596 1_554 S
O500 Tb498 2.343 . S
O500 C515 1.259 . S
O501 Tb496 2.356 1_554 S
O501 C497 1.282 . S
C502 O506 1.275 . S
C502 O507 1.246 . S
O503 C497 1.263 . S
O503 Tb498 2.353 . S
C504 O508 1.245 . S
C504 O509 1.259 1_554 S
C505 O510 1.250 . S
C505 O511 1.263 1_554 S
O506 Tb498 2.427 . S
O506 C502 1.275 . S
O507 Tb498 2.513 . S
O507 C502 1.246 . S
O508 Tb498 2.453 . S
O508 C504 1.245 . S
O509 Tb496 2.345 . S
O509 Tb498 2.589 1_556 S
O509 C504 1.259 1_556 S
O510 Tb498 2.374 . S
O510 C505 1.250 . S
O511 Tb496 2.353 . S
O511 C505 1.263 1_556 S
C512 O513 1.275 . S
C512 O514 1.246 . S
O513 Tb496 2.427 . S
O513 C512 1.275 . S
O514 Tb496 2.513 . S
O514 C512 1.246 . S
C515 O499 1.245 . S
C515 O500 1.259 . S
Tb516 O519 2.453 . S
Tb516 O520 2.596 . S
Tb516 O521 2.374 . S
Tb516 O529 2.343 . S
Tb516 O531 2.353 . S
Tb516 O533 2.427 . S
Tb516 O534 2.513 . S
C517 O521 1.251 . S
C517 O523 1.263 . S
Tb518 O520 2.343 . S
Tb518 O523 2.353 . S
Tb518 O526 2.427 . S
Tb518 O527 2.513 . S
Tb518 O528 2.453 . S
Tb518 O529 2.596 . S
Tb518 O530 2.374 . S
O519 Tb516 2.453 . S
O519 C535 1.245 . S
O520 Tb516 2.596 . S
O520 Tb518 2.343 . S
O520 C535 1.259 . S
O521 Tb516 2.374 . S
O521 C517 1.251 . S
C522 O526 1.275 . S
C522 O527 1.246 . S
O523 C517 1.263 . S
O523 Tb518 2.353 . S
C524 O528 1.245 . S
C524 O529 1.259 . S
C525 O530 1.250 . S
C525 O531 1.263 . S
O526 Tb518 2.427 . S
O526 C522 1.275 . S
O527 Tb518 2.513 . S
O527 C522 1.246 . S
O528 Tb518 2.453 . S
O528 C524 1.245 . S
O529 Tb516 2.343 . S
O529 Tb518 2.596 . S
O529 C524 1.259 . S
O530 Tb518 2.374 . S
O530 C525 1.250 . S
O531 Tb516 2.353 . S
O531 C525 1.263 . S
C532 O533 1.275 . S
C532 O534 1.246 . S
O533 Tb516 2.427 . S
O533 C532 1.275 . S
O534 Tb516 2.513 . S
O534 C532 1.246 . S
C535 O519 1.245 . S
C535 O520 1.259 . S
Tb536 O539 2.467 . S
Tb536 O540 2.596 1_655 S
Tb536 O541 2.374 . S
Tb536 O549 2.343 . S
Tb536 O551 2.353 . S
Tb536 O553 2.427 . S
Tb536 O554 2.513 . S
C537 O541 1.251 1_455 S
C537 O543 1.263 . S
Tb538 O540 2.343 . S
Tb538 O543 2.353 . S
Tb538 O546 2.427 . S
Tb538 O547 2.513 . S
Tb538 O548 2.453 . S
Tb538 O549 2.596 1_455 S
Tb538 O550 2.374 . S
O539 Tb536 2.467 . S
O539 C555 1.222 1_655 S
O540 Tb536 2.596 1_455 S
O540 Tb538 2.343 . S
O540 C555 1.259 . S
O541 Tb536 2.374 . S
O541 C537 1.251 1_655 S
C542 O546 1.275 . S
C542 O547 1.246 . S
O543 C537 1.263 . S
O543 Tb538 2.353 . S
C544 O548 1.245 1_655 S
C544 O549 1.259 . S
C545 O550 1.250 . S
C545 O551 1.263 1_455 S
O546 Tb538 2.427 . S
O546 C542 1.275 . S
O547 Tb538 2.513 . S
O547 C542 1.246 . S
O548 Tb538 2.453 . S
O548 C544 1.245 1_455 S
O549 Tb536 2.343 . S
O549 Tb538 2.596 1_655 S
O549 C544 1.259 . S
O550 Tb538 2.374 . S
O550 C545 1.250 . S
O551 Tb536 2.353 . S
O551 C545 1.263 1_655 S
C552 O553 1.275 . S
C552 O554 1.246 . S
O553 Tb536 2.427 . S
O553 C552 1.275 . S
O554 Tb536 2.513 . S
O554 C552 1.246 . S
C555 O539 1.222 1_455 S
C555 O540 1.259 . S
Tb556 O559 2.453 . S
Tb556 O560 2.596 . S
Tb556 O561 2.374 . S
Tb556 O569 2.343 . S
Tb556 O571 2.353 . S
Tb556 O573 2.427 . S
Tb556 O574 2.513 . S
C557 O561 1.251 . S
C557 O563 1.263 . S
Tb558 O560 2.343 . S
Tb558 O563 2.353 . S
Tb558 O566 2.427 . S
Tb558 O567 2.513 . S
Tb558 O568 2.453 . S
Tb558 O569 2.596 . S
Tb558 O570 2.374 . S
O559 Tb556 2.453 . S
O559 C575 1.245 . S
O560 Tb556 2.596 . S
O560 Tb558 2.343 . S
O560 C575 1.259 . S
O561 Tb556 2.374 . S
O561 C557 1.251 . S
C562 O566 1.275 . S
C562 O567 1.246 . S
O563 C557 1.263 . S
O563 Tb558 2.353 . S
C564 O568 1.245 . S
C564 O569 1.259 . S
C565 O570 1.250 . S
C565 O571 1.263 . S
O566 Tb558 2.427 . S
O566 C562 1.275 . S
O567 Tb558 2.513 . S
O567 C562 1.246 . S
O568 Tb558 2.453 . S
O568 C564 1.245 . S
O569 Tb556 2.343 . S
O569 Tb558 2.596 . S
O569 C564 1.259 . S
O570 Tb558 2.374 . S
O570 C565 1.250 . S
O571 Tb556 2.353 . S
O571 C565 1.263 . S
C572 O573 1.275 . S
C572 O574 1.246 . S
O573 Tb556 2.427 . S
O573 C572 1.275 . S
O574 Tb556 2.513 . S
O574 C572 1.246 . S
C575 O559 1.245 . S
C575 O560 1.259 . S
Tb576 O579 2.453 . S
Tb576 O580 2.596 . S
Tb576 O581 2.374 . S
Tb576 O589 2.343 . S
Tb576 O591 2.353 . S
Tb576 O593 2.427 . S
Tb576 O594 2.513 . S
C577 O581 1.251 . S
C577 O583 1.263 . S
Tb578 O580 2.343 . S
Tb578 O583 2.353 . S
Tb578 O586 2.427 . S
Tb578 O587 2.513 . S
Tb578 O588 2.453 . S
Tb578 O589 2.596 . S
Tb578 O590 2.374 . S
O579 Tb576 2.453 . S
O579 C595 1.245 . S
O580 Tb576 2.596 . S
O580 Tb578 2.343 . S
O580 C595 1.259 . S
O581 Tb576 2.374 . S
O581 C577 1.251 . S
C582 O586 1.275 . S
C582 O587 1.246 . S
O583 C577 1.263 . S
O583 Tb578 2.353 . S
C584 O588 1.245 . S
C584 O589 1.259 . S
C585 O590 1.250 . S
C585 O591 1.263 . S
O586 Tb578 2.427 . S
O586 C582 1.275 . S
O587 Tb578 2.513 . S
O587 C582 1.246 . S
O588 Tb578 2.453 . S
O588 C584 1.245 . S
O589 Tb576 2.343 . S
O589 Tb578 2.596 . S
O589 C584 1.259 . S
O590 Tb578 2.374 . S
O590 C585 1.250 . S
O591 Tb576 2.353 . S
O591 C585 1.263 . S
C592 O593 1.275 . S
C592 O594 1.246 . S
O593 Tb576 2.427 . S
O593 C592 1.275 . S
O594 Tb576 2.513 . S
O594 C592 1.246 . S
C595 O579 1.245 . S
C595 O580 1.259 . S
Tb596 O599 2.453 . S
Tb596 O600 2.596 . S
Tb596 O601 2.374 . S
Tb596 O609 2.343 . S
Tb596 O611 2.353 . S
Tb596 O613 2.427 . S
Tb596 O614 2.513 . S
C597 O601 1.251 . S
C597 O603 1.263 . S
Tb598 O600 2.343 . S
Tb598 O603 2.353 . S
Tb598 O606 2.427 . S
Tb598 O607 2.513 . S
Tb598 O608 2.453 . S
Tb598 O609 2.596 . S
Tb598 O610 2.374 . S
O599 Tb596 2.453 . S
O599 C615 1.245 . S
O600 Tb596 2.596 . S
O600 Tb598 2.343 . S
O600 C615 1.259 . S
O601 Tb596 2.374 . S
O601 C597 1.251 . S
C602 O606 1.275 . S
C602 O607 1.246 . S
O603 C597 1.263 . S
O603 Tb598 2.353 . S
C604 O608 1.245 . S
C604 O609 1.259 . S
C605 O610 1.250 . S
C605 O611 1.263 . S
O606 Tb598 2.427 . S
O606 C602 1.275 . S
O607 Tb598 2.513 . S
O607 C602 1.246 . S
O608 Tb598 2.453 . S
O608 C604 1.245 . S
O609 Tb596 2.343 . S
O609 Tb598 2.596 . S
O609 C604 1.259 . S
O610 Tb598 2.374 . S
O610 C605 1.250 . S
O611 Tb596 2.353 . S
O611 C605 1.263 . S
C612 O613 1.275 . S
C612 O614 1.246 . S
O613 Tb596 2.427 . S
O613 C612 1.275 . S
O614 Tb596 2.513 . S
O614 C612 1.246 . S
C615 O599 1.245 . S
C615 O600 1.259 . S
Tb616 O619 2.453 . S
Tb616 O620 2.596 . S
Tb616 O621 2.374 . S
Tb616 O629 2.343 . S
Tb616 O631 2.353 . S
Tb616 O633 2.427 . S
Tb616 O634 2.513 . S
C617 O621 1.251 . S
C617 O623 1.263 . S
Tb618 O620 2.343 . S
Tb618 O623 2.353 . S
Tb618 O626 2.427 . S
Tb618 O627 2.513 . S
Tb618 O628 2.453 . S
Tb618 O629 2.596 . S
Tb618 O630 2.374 . S
O619 Tb616 2.453 . S
O619 C635 1.245 . S
O620 Tb616 2.596 . S
O620 Tb618 2.343 . S
O620 C635 1.259 . S
O621 Tb616 2.374 . S
O621 C617 1.251 . S
C622 O626 1.275 . S
C622 O627 1.246 . S
O623 C617 1.263 . S
O623 Tb618 2.353 . S
C624 O628 1.245 . S
C624 O629 1.259 . S
C625 O630 1.250 . S
C625 O631 1.263 . S
O626 Tb618 2.427 . S
O626 C622 1.275 . S
O627 Tb618 2.513 . S
O627 C622 1.246 . S
O628 Tb618 2.453 . S
O628 C624 1.245 . S
O629 Tb616 2.343 . S
O629 Tb618 2.596 . S
O629 C624 1.259 . S
O630 Tb618 2.374 . S
O630 C625 1.250 . S
O631 Tb616 2.353 . S
O631 C625 1.263 . S
C632 O633 1.275 . S
C632 O634 1.246 . S
O633 Tb616 2.427 . S
O633 C632 1.275 . S
O634 Tb616 2.513 . S
O634 C632 1.246 . S
C635 O619 1.245 . S
C635 O620 1.259 . S
Tb636 O639 2.453 . S
Tb636 O640 2.596 . S
Tb636 O641 2.374 . S
Tb636 O649 2.343 . S
Tb636 O651 2.353 1_554 S
Tb636 O653 2.427 1_554 S
Tb636 O654 2.513 . S
C637 O641 1.251 . S
C637 O643 1.263 1_455 S
Tb638 O640 2.343 1_655 S
Tb638 O643 2.353 . S
Tb638 O646 2.427 . S
Tb638 O647 2.513 . S
Tb638 O648 2.453 . S
Tb638 O649 2.596 1_655 S
Tb638 O650 2.374 1_554 S
O639 Tb636 2.453 . S
O639 C655 1.245 . S
O640 Tb636 2.596 . S
O640 Tb638 2.343 1_455 S
O640 C655 1.259 . S
O641 Tb636 2.374 . S
O641 C637 1.251 . S
C642 O646 1.275 . S
C642 O647 1.246 . S
O643 C637 1.263 1_655 S
O643 Tb638 2.353 . S
C644 O648 1.255 . S
C644 O649 1.260 1_655 S
C645 O650 1.259 . S
C645 O651 1.254 1_655 S
O646 Tb638 2.427 . S
O646 C642 1.275 . S
O647 Tb638 2.513 . S
O647 C642 1.246 . S
O648 Tb638 2.453 . S
O648 C644 1.255 . S
O649 Tb636 2.343 . S
O649 Tb638 2.596 1_455 S
O649 C644 1.260 1_455 S
O650 Tb638 2.374 1_556 S
O650 C645 1.259 . S
O651 Tb636 2.353 1_556 S
O651 C645 1.254 1_455 S
C652 O653 1.275 1_554 S
C652 O654 1.246 . S
O653 Tb636 2.427 1_556 S
O653 C652 1.275 1_556 S
O654 Tb636 2.513 . S
O654 C652 1.246 . S
C655 O639 1.245 . S
C655 O640 1.259 . S
H656 C664 0.950 . S
H657 C669 0.950 1_655 S
H658 C666 0.950 . S
H659 C668 0.950 1_655 S
H660 C670 0.932 1_655 S
H661 C672 0.930 1_655 S
H662 C674 0.950 . S
H663 C675 0.950 . S
C664 H656 0.950 . S
C664 C665 1.386 . S
C664 C666 1.391 . S
C665 C664 1.386 . S
C665 C669 1.393 . S
C666 H658 0.950 . S
C666 C664 1.391 . S
C666 C667 1.400 . S
C667 C666 1.400 . S
C667 C668 1.398 . S
C667 C673 1.491 . S
C668 H659 0.950 1_455 S
C668 C667 1.398 . S
C668 C669 1.391 . S
C669 H657 0.950 1_455 S
C669 C665 1.393 . S
C669 C668 1.391 . S
C670 H660 0.932 1_455 S
C670 C671 1.409 1_554 S
C670 C672 1.391 1_554 S
C671 C670 1.409 1_556 S
C671 C675 1.393 . S
C672 H661 0.930 1_455 S
C672 C670 1.391 1_556 S
C672 C673 1.418 . S
C673 C667 1.491 . S
C673 C672 1.418 . S
C673 C674 1.398 . S
C674 H662 0.950 . S
C674 C673 1.398 . S
C674 C675 1.391 . S
C675 H663 0.950 . S
C675 C671 1.393 . S
C675 C674 1.391 . S
H676 C684 0.950 . S
H677 C689 0.950 . S
H678 C686 0.950 . S
H679 C688 0.950 . S
H680 C690 0.950 . S
H681 C692 0.950 . S
H682 C694 0.950 . S
H683 C695 0.950 . S
C684 H676 0.950 . S
C684 C685 1.386 . S
C684 C686 1.391 . S
C685 C684 1.386 . S
C685 C689 1.393 . S
C686 H678 0.950 . S
C686 C684 1.391 . S
C686 C687 1.400 . S
C687 C686 1.400 . S
C687 C688 1.398 . S
C687 C693 1.491 . S
C688 H679 0.950 . S
C688 C687 1.398 . S
C688 C689 1.391 . S
C689 H677 0.950 . S
C689 C685 1.393 . S
C689 C688 1.391 . S
C690 H680 0.950 . S
C690 C691 1.386 . S
C690 C692 1.391 . S
C691 C690 1.386 . S
C691 C695 1.393 . S
C692 H681 0.950 . S
C692 C690 1.391 . S
C692 C693 1.400 . S
C693 C687 1.491 . S
C693 C692 1.400 . S
C693 C694 1.398 . S
C694 H682 0.950 . S
C694 C693 1.398 . S
C694 C695 1.391 . S
C695 H683 0.950 . S
C695 C691 1.393 . S
C695 C694 1.391 . S
H696 C704 0.950 . S
H697 C709 0.950 . S
H698 C706 0.950 . S
H699 C708 0.950 . S
H700 C710 0.950 . S
H701 C712 0.950 . S
H702 C714 0.950 . S
H703 C715 0.950 . S
C704 H696 0.950 . S
C704 C705 1.386 . S
C704 C706 1.391 . S
C705 C704 1.386 . S
C705 C709 1.393 . S
C706 H698 0.950 . S
C706 C704 1.391 . S
C706 C707 1.400 . S
C707 C706 1.400 . S
C707 C708 1.398 . S
C707 C713 1.491 . S
C708 H699 0.950 . S
C708 C707 1.398 . S
C708 C709 1.391 . S
C709 H697 0.950 . S
C709 C705 1.393 . S
C709 C708 1.391 . S
C710 H700 0.950 . S
C710 C711 1.386 . S
C710 C712 1.391 . S
C711 C710 1.386 . S
C711 C715 1.393 . S
C712 H701 0.950 . S
C712 C710 1.391 . S
C712 C713 1.400 . S
C713 C707 1.491 . S
C713 C712 1.400 . S
C713 C714 1.398 . S
C714 H702 0.950 . S
C714 C713 1.398 . S
C714 C715 1.391 . S
C715 H703 0.950 . S
C715 C711 1.393 . S
C715 C714 1.391 . S
H716 C724 0.950 . S
H717 C729 0.950 . S
H718 C726 0.950 . S
H719 C728 0.950 . S
H720 C730 0.950 . S
H721 C732 0.950 . S
H722 C734 0.950 . S
H723 C735 0.950 . S
C724 H716 0.950 . S
C724 C725 1.386 . S
C724 C726 1.391 . S
C725 C724 1.386 . S
C725 C729 1.393 . S
C726 H718 0.950 . S
C726 C724 1.391 . S
C726 C727 1.400 . S
C727 C726 1.400 . S
C727 C728 1.398 . S
C727 C733 1.491 . S
C728 H719 0.950 . S
C728 C727 1.398 . S
C728 C729 1.391 . S
C729 H717 0.950 . S
C729 C725 1.393 . S
C729 C728 1.391 . S
C730 H720 0.950 . S
C730 C731 1.386 . S
C730 C732 1.391 . S
C731 C730 1.386 . S
C731 C735 1.393 . S
C732 H721 0.950 . S
C732 C730 1.391 . S
C732 C733 1.400 . S
C733 C727 1.491 . S
C733 C732 1.400 . S
C733 C734 1.398 . S
C734 H722 0.950 . S
C734 C733 1.398 . S
C734 C735 1.391 . S
C735 H723 0.950 . S
C735 C731 1.393 . S
C735 C734 1.391 . S
H736 C744 0.950 . S
H737 C749 0.950 . S
H738 C746 0.950 . S
H739 C748 0.950 . S
H740 C750 0.950 . S
H741 C752 0.950 . S
H742 C754 0.965 . S
H743 C755 0.941 1_655 S
C744 H736 0.950 . S
C744 C745 1.386 1_655 S
C744 C746 1.391 . S
C745 C744 1.386 1_455 S
C745 C749 1.393 . S
C746 H738 0.950 . S
C746 C744 1.391 . S
C746 C747 1.400 1_655 S
C747 C746 1.400 1_455 S
C747 C748 1.398 . S
C747 C753 1.491 . S
C748 H739 0.950 . S
C748 C747 1.398 . S
C748 C749 1.391 . S
C749 H737 0.950 . S
C749 C745 1.393 . S
C749 C748 1.391 . S
C750 H740 0.950 . S
C750 C751 1.386 . S
C750 C752 1.391 . S
C751 C750 1.386 . S
C751 C755 1.401 . S
C752 H741 0.950 . S
C752 C750 1.391 . S
C752 C753 1.400 . S
C753 C747 1.491 . S
C753 C752 1.400 . S
C753 C754 1.383 1_455 S
C754 H742 0.965 . S
C754 C753 1.383 1_655 S
C754 C755 1.395 1_655 S
C755 H743 0.941 1_455 S
C755 C751 1.401 . S
C755 C754 1.395 1_455 S
H756 C764 0.950 . S
H757 C769 0.950 . S
H758 C766 0.950 . S
H759 C768 0.950 . S
H760 C770 0.950 . S
H761 C772 0.950 . S
H762 C774 0.950 . S
H763 C775 0.950 . S
C764 H756 0.950 . S
C764 C765 1.386 . S
C764 C766 1.391 . S
C765 C764 1.386 . S
C765 C769 1.393 . S
C766 H758 0.950 . S
C766 C764 1.391 . S
C766 C767 1.400 . S
C767 C766 1.400 . S
C767 C768 1.398 . S
C767 C773 1.491 . S
C768 H759 0.950 . S
C768 C767 1.398 . S
C768 C769 1.391 . S
C769 H757 0.950 . S
C769 C765 1.393 . S
C769 C768 1.391 . S
C770 H760 0.950 . S
C770 C771 1.386 . S
C770 C772 1.391 . S
C771 C770 1.386 . S
C771 C775 1.393 . S
C772 H761 0.950 . S
C772 C770 1.391 . S
C772 C773 1.400 . S
C773 C767 1.491 . S
C773 C772 1.400 . S
C773 C774 1.398 . S
C774 H762 0.950 . S
C774 C773 1.398 . S
C774 C775 1.391 . S
C775 H763 0.950 . S
C775 C771 1.393 . S
C775 C774 1.391 . S
H776 C784 0.950 . S
H777 C789 0.950 . S
H778 C786 0.950 . S
H779 C788 0.950 . S
H780 C790 0.950 . S
H781 C792 0.950 . S
H782 C794 0.950 . S
H783 C795 0.950 . S
C784 H776 0.950 . S
C784 C785 1.386 . S
C784 C786 1.391 . S
C785 C784 1.386 . S
C785 C789 1.393 . S
C786 H778 0.950 . S
C786 C784 1.391 . S
C786 C787 1.400 . S
C787 C786 1.400 . S
C787 C788 1.398 . S
C787 C793 1.491 . S
C788 H779 0.950 . S
C788 C787 1.398 . S
C788 C789 1.391 . S
C789 H777 0.950 . S
C789 C785 1.393 . S
C789 C788 1.391 . S
C790 H780 0.950 . S
C790 C791 1.386 . S
C790 C792 1.391 . S
C791 C790 1.386 . S
C791 C795 1.393 . S
C792 H781 0.950 . S
C792 C790 1.391 . S
C792 C793 1.400 . S
C793 C787 1.491 . S
C793 C792 1.400 . S
C793 C794 1.398 . S
C794 H782 0.950 . S
C794 C793 1.398 . S
C794 C795 1.391 . S
C795 H783 0.950 . S
C795 C791 1.393 . S
C795 C794 1.391 . S
H796 C804 0.950 . S
H797 C809 0.950 . S
H798 C806 0.950 . S
H799 C808 0.950 . S
H800 C810 0.950 . S
H801 C812 0.950 . S
H802 C814 0.950 . S
H803 C815 0.950 . S
C804 H796 0.950 . S
C804 C805 1.386 . S
C804 C806 1.391 . S
C805 C804 1.386 . S
C805 C809 1.393 . S
C806 H798 0.950 . S
C806 C804 1.391 . S
C806 C807 1.400 . S
C807 C806 1.400 . S
C807 C808 1.398 . S
C807 C813 1.491 . S
C808 H799 0.950 . S
C808 C807 1.398 . S
C808 C809 1.391 . S
C809 H797 0.950 . S
C809 C805 1.393 . S
C809 C808 1.391 . S
C810 H800 0.950 . S
C810 C811 1.386 . S
C810 C812 1.391 . S
C811 C810 1.386 . S
C811 C815 1.393 . S
C812 H801 0.950 . S
C812 C810 1.391 . S
C812 C813 1.400 . S
C813 C807 1.491 . S
C813 C812 1.400 . S
C813 C814 1.398 . S
C814 H802 0.950 . S
C814 C813 1.398 . S
C814 C815 1.391 . S
C815 H803 0.950 . S
C815 C811 1.393 . S
C815 C814 1.391 . S
H816 C824 0.950 . S
H817 C829 0.950 . S
H818 C826 0.950 . S
H819 C828 0.950 . S
H820 C830 0.950 . S
H821 C832 0.950 . S
H822 C834 0.950 . S
H823 C835 0.950 1_455 S
C824 H816 0.950 . S
C824 C825 1.386 . S
C824 C826 1.391 . S
C825 C824 1.386 . S
C825 C829 1.393 . S
C826 H818 0.950 . S
C826 C824 1.391 . S
C826 C827 1.400 . S
C827 C826 1.400 . S
C827 C828 1.398 . S
C827 C833 1.491 . S
C828 H819 0.950 . S
C828 C827 1.398 . S
C828 C829 1.391 . S
C829 H817 0.950 . S
C829 C825 1.393 . S
C829 C828 1.391 . S
C830 H820 0.950 . S
C830 C831 1.386 . S
C830 C832 1.391 . S
C831 C830 1.386 . S
C831 C835 1.393 . S
C832 H821 0.950 . S
C832 C830 1.391 . S
C832 C833 1.400 . S
C833 C827 1.491 . S
C833 C832 1.400 . S
C833 C834 1.398 . S
C834 H822 0.950 . S
C834 C833 1.398 . S
C834 C835 1.391 . S
C835 H823 0.950 1_655 S
C835 C831 1.393 . S
C835 C834 1.391 . S
H836 C844 0.950 . S
H837 C849 0.950 . S
H838 C846 0.950 . S
H839 C848 0.950 . S
H840 C850 0.950 . S
H841 C852 0.950 . S
H842 C854 0.950 . S
H843 C855 0.950 . S
C844 H836 0.950 . S
C844 C845 1.386 . S
C844 C846 1.391 . S
C845 C844 1.386 . S
C845 C849 1.393 . S
C846 H838 0.950 . S
C846 C844 1.391 . S
C846 C847 1.400 . S
C847 C846 1.400 . S
C847 C848 1.398 . S
C847 C853 1.491 . S
C848 H839 0.950 . S
C848 C847 1.398 . S
C848 C849 1.391 . S
C849 H837 0.950 . S
C849 C845 1.393 . S
C849 C848 1.391 . S
C850 H840 0.950 . S
C850 C851 1.386 . S
C850 C852 1.391 . S
C851 C850 1.386 . S
C851 C855 1.393 . S
C852 H841 0.950 . S
C852 C850 1.391 . S
C852 C853 1.400 . S
C853 C847 1.491 . S
C853 C852 1.400 . S
C853 C854 1.398 . S
C854 H842 0.950 . S
C854 C853 1.398 . S
C854 C855 1.391 . S
C855 H843 0.950 . S
C855 C851 1.393 . S
C855 C854 1.391 . S
H856 C864 0.952 . S
H857 C869 0.950 . S
H858 C866 0.950 1_565 S
H859 C868 0.950 . S
H860 C870 0.950 . S
H861 C872 0.950 . S
H862 C874 0.950 . S
H863 C875 0.950 . S
C864 H856 0.952 . S
C864 C865 1.384 1_565 S
C864 C866 1.390 1_565 S
C865 C864 1.384 1_545 S
C865 C869 1.393 . S
C866 H858 0.950 1_545 S
C866 C864 1.390 1_545 S
C866 C867 1.400 . S
C867 C866 1.400 . S
C867 C868 1.398 . S
C867 C873 1.491 . S
C868 H859 0.950 . S
C868 C867 1.398 . S
C868 C869 1.391 . S
C869 H857 0.950 . S
C869 C865 1.393 . S
C869 C868 1.391 . S
C870 H860 0.950 . S
C870 C871 1.386 . S
C870 C872 1.391 . S
C871 C870 1.386 . S
C871 C875 1.393 . S
C872 H861 0.950 . S
C872 C870 1.391 . S
C872 C873 1.400 . S
C873 C867 1.491 . S
C873 C872 1.400 . S
C873 C874 1.398 . S
C874 H862 0.950 . S
C874 C873 1.398 . S
C874 C875 1.391 . S
C875 H863 0.950 . S
C875 C871 1.393 . S
C875 C874 1.391 . S
H876 C884 0.950 . S
H877 C889 0.950 . S
H878 C886 0.950 . S
H879 C888 0.950 . S
H880 C890 0.950 . S
H881 C892 0.950 . S
H882 C894 0.950 . S
H883 C895 0.950 . S
C884 H876 0.950 . S
C884 C885 1.386 . S
C884 C886 1.391 . S
C885 C884 1.386 . S
C885 C889 1.393 . S
C886 H878 0.950 . S
C886 C884 1.391 . S
C886 C887 1.400 . S
C887 C886 1.400 . S
C887 C888 1.398 . S
C887 C893 1.491 . S
C888 H879 0.950 . S
C888 C887 1.398 . S
C888 C889 1.391 . S
C889 H877 0.950 . S
C889 C885 1.393 . S
C889 C888 1.391 . S
C890 H880 0.950 . S
C890 C891 1.386 . S
C890 C892 1.391 . S
C891 C890 1.386 . S
C891 C895 1.393 . S
C892 H881 0.950 . S
C892 C890 1.391 . S
C892 C893 1.400 . S
C893 C887 1.491 . S
C893 C892 1.400 . S
C893 C894 1.398 . S
C894 H882 0.950 . S
C894 C893 1.398 . S
C894 C895 1.391 . S
C895 H883 0.950 . S
C895 C891 1.393 . S
C895 C894 1.391 . S
H896 C904 0.950 . S
H897 C909 0.950 . S
H898 C906 0.950 . S
H899 C908 0.950 . S
H900 C910 0.950 . S
H901 C912 0.950 . S
H902 C914 0.950 . S
H903 C915 0.950 . S
C904 H896 0.950 . S
C904 C905 1.386 . S
C904 C906 1.391 . S
C905 C904 1.386 . S
C905 C909 1.393 . S
C906 H898 0.950 . S
C906 C904 1.391 . S
C906 C907 1.400 . S
C907 C906 1.400 . S
C907 C908 1.398 . S
C907 C913 1.491 . S
C908 H899 0.950 . S
C908 C907 1.398 . S
C908 C909 1.391 . S
C909 H897 0.950 . S
C909 C905 1.393 . S
C909 C908 1.391 . S
C910 H900 0.950 . S
C910 C911 1.386 . S
C910 C912 1.391 . S
C911 C910 1.386 . S
C911 C915 1.393 . S
C912 H901 0.950 . S
C912 C910 1.391 . S
C912 C913 1.400 . S
C913 C907 1.491 . S
C913 C912 1.400 . S
C913 C914 1.398 . S
C914 H902 0.950 . S
C914 C913 1.398 . S
C914 C915 1.391 . S
C915 H903 0.950 . S
C915 C911 1.393 . S
C915 C914 1.391 . S
H916 C924 0.950 . S
H917 C929 0.950 . S
H918 C926 0.950 . S
H919 C928 0.950 . S
H920 C930 0.950 . S
H921 C932 0.950 . S
H922 C934 0.950 . S
H923 C935 0.950 . S
C924 H916 0.950 . S
C924 C925 1.386 . S
C924 C926 1.391 . S
C925 C924 1.386 . S
C925 C929 1.393 . S
C926 H918 0.950 . S
C926 C924 1.391 . S
C926 C927 1.400 . S
C927 C926 1.400 . S
C927 C928 1.398 . S
C927 C933 1.491 . S
C928 H919 0.950 . S
C928 C927 1.398 . S
C928 C929 1.391 . S
C929 H917 0.950 . S
C929 C925 1.393 . S
C929 C928 1.391 . S
C930 H920 0.950 . S
C930 C931 1.386 . S
C930 C932 1.391 . S
C931 C930 1.386 . S
C931 C935 1.393 . S
C932 H921 0.950 . S
C932 C930 1.391 . S
C932 C933 1.400 . S
C933 C927 1.491 . S
C933 C932 1.400 . S
C933 C934 1.398 . S
C934 H922 0.950 . S
C934 C933 1.398 . S
C934 C935 1.391 . S
C935 H923 0.950 . S
C935 C931 1.393 . S
C935 C934 1.391 . S
H936 C944 0.950 . S
H937 C949 0.950 . S
H938 C946 0.971 . S
H939 C948 0.950 . S
H940 C950 0.950 . S
H941 C952 0.950 . S
H942 C954 0.950 1_565 S
H943 C955 0.950 1_565 S
C944 H936 0.950 . S
C944 C945 1.386 1_565 S
C944 C946 1.396 . S
C945 C944 1.386 1_545 S
C945 C949 1.393 . S
C946 H938 0.971 . S
C946 C944 1.396 . S
C946 C947 1.376 1_565 S
C947 C946 1.376 1_545 S
C947 C948 1.398 . S
C947 C953 1.491 . S
C948 H939 0.950 . S
C948 C947 1.398 . S
C948 C949 1.391 . S
C949 H937 0.950 . S
C949 C945 1.393 . S
C949 C948 1.391 . S
C950 H940 0.950 . S
C950 C951 1.386 . S
C950 C952 1.391 . S
C951 C950 1.386 . S
C951 C955 1.393 . S
C952 H941 0.950 . S
C952 C950 1.391 . S
C952 C953 1.400 . S
C953 C947 1.491 . S
C953 C952 1.400 . S
C953 C954 1.398 . S
C954 H942 0.950 1_545 S
C954 C953 1.398 . S
C954 C955 1.391 . S
C955 H943 0.950 1_545 S
C955 C951 1.393 . S
C955 C954 1.391 . S
H956 C964 0.950 . S
H957 C969 0.950 . S
H958 C966 0.950 . S
H959 C968 0.950 . S
H960 C970 0.950 . S
H961 C972 0.950 . S
H962 C974 0.950 . S
H963 C975 0.950 . S
C964 H956 0.950 . S
C964 C965 1.386 . S
C964 C966 1.391 . S
C965 C964 1.386 . S
C965 C969 1.393 . S
C966 H958 0.950 . S
C966 C964 1.391 . S
C966 C967 1.400 . S
C967 C966 1.400 . S
C967 C968 1.398 . S
C967 C973 1.491 . S
C968 H959 0.950 . S
C968 C967 1.398 . S
C968 C969 1.391 . S
C969 H957 0.950 . S
C969 C965 1.393 . S
C969 C968 1.391 . S
C970 H960 0.950 . S
C970 C971 1.386 . S
C970 C972 1.391 . S
C971 C970 1.386 . S
C971 C975 1.393 . S
C972 H961 0.950 . S
C972 C970 1.391 . S
C972 C973 1.400 . S
C973 C967 1.491 . S
C973 C972 1.400 . S
C973 C974 1.398 . S
C974 H962 0.950 . S
C974 C973 1.398 . S
C974 C975 1.391 . S
C975 H963 0.950 . S
C975 C971 1.393 . S
C975 C974 1.391 . S
H976 C984 0.950 . S
H977 C989 0.950 . S
H978 C986 0.950 . S
H979 C988 0.950 . S
H980 C990 0.950 . S
H981 C992 0.950 . S
H982 C994 0.950 . S
H983 C995 0.950 . S
C984 H976 0.950 . S
C984 C985 1.386 . S
C984 C986 1.391 . S
C985 C984 1.386 . S
C985 C989 1.393 . S
C986 H978 0.950 . S
C986 C984 1.391 . S
C986 C987 1.400 . S
C987 C986 1.400 . S
C987 C988 1.398 . S
C987 C993 1.491 . S
C988 H979 0.950 . S
C988 C987 1.398 . S
C988 C989 1.391 . S
C989 H977 0.950 . S
C989 C985 1.393 . S
C989 C988 1.391 . S
C990 H980 0.950 . S
C990 C991 1.405 . S
C990 C992 1.391 . S
C991 C990 1.405 . S
C991 C995 1.389 1_565 S
C992 H981 0.950 . S
C992 C990 1.391 . S
C992 C993 1.400 . S
C993 C987 1.491 . S
C993 C992 1.400 . S
C993 C994 1.398 . S
C994 H982 0.950 . S
C994 C993 1.398 . S
C994 C995 1.391 1_565 S
C995 H983 0.950 . S
C995 C991 1.389 1_545 S
C995 C994 1.391 1_545 S
H996 C1004 0.950 . S
H997 C1009 0.950 . S
H998 C1006 0.950 . S
H999 C1008 0.950 . S
H1000 C1010 0.950 . S
H1001 C1012 0.950 . S
H1002 C1014 0.950 . S
H1003 C1015 0.950 . S
C1004 H996 0.950 . S
C1004 C1005 1.386 . S
C1004 C1006 1.391 . S
C1005 C1004 1.386 . S
C1005 C1009 1.393 1_556 S
C1006 H998 0.950 . S
C1006 C1004 1.391 . S
C1006 C1007 1.386 1_556 S
C1007 C1006 1.386 1_554 S
C1007 C1008 1.406 . S
C1007 C1013 1.498 . S
C1008 H999 0.950 . S
C1008 C1007 1.406 . S
C1008 C1009 1.391 . S
C1009 H997 0.950 . S
C1009 C1005 1.393 1_554 S
C1009 C1008 1.391 . S
C1010 H1000 0.950 . S
C1010 C1011 1.386 . S
C1010 C1012 1.391 . S
C1011 C1010 1.386 . S
C1011 C1015 1.393 1_554 S
C1012 H1001 0.950 . S
C1012 C1010 1.391 . S
C1012 C1013 1.400 . S
C1013 C1007 1.498 . S
C1013 C1012 1.400 . S
C1013 C1014 1.398 1_554 S
C1014 H1002 0.950 . S
C1014 C1013 1.398 1_556 S
C1014 C1015 1.391 . S
C1015 H1003 0.950 . S
C1015 C1011 1.393 1_556 S
C1015 C1014 1.391 . S
H1016 C1024 0.950 . S
H1017 C1029 0.950 . S
H1018 C1026 0.950 . S
H1019 C1028 0.950 . S
H1020 C1030 0.950 . S
H1021 C1032 0.950 . S
H1022 C1034 0.950 . S
H1023 C1035 0.950 . S
C1024 H1016 0.950 . S
C1024 C1025 1.386 . S
C1024 C1026 1.391 . S
C1025 C1024 1.386 . S
C1025 C1029 1.393 . S
C1026 H1018 0.950 . S
C1026 C1024 1.391 . S
C1026 C1027 1.400 . S
C1027 C1026 1.400 . S
C1027 C1028 1.398 . S
C1027 C1033 1.491 . S
C1028 H1019 0.950 . S
C1028 C1027 1.398 . S
C1028 C1029 1.391 . S
C1029 H1017 0.950 . S
C1029 C1025 1.393 . S
C1029 C1028 1.391 . S
C1030 H1020 0.950 . S
C1030 C1031 1.386 . S
C1030 C1032 1.391 . S
C1031 C1030 1.386 . S
C1031 C1035 1.393 . S
C1032 H1021 0.950 . S
C1032 C1030 1.391 . S
C1032 C1033 1.400 . S
C1033 C1027 1.491 . S
C1033 C1032 1.400 . S
C1033 C1034 1.398 . S
C1034 H1022 0.950 . S
C1034 C1033 1.398 . S
C1034 C1035 1.391 . S
C1035 H1023 0.950 . S
C1035 C1031 1.393 . S
C1035 C1034 1.391 . S
H1036 C1044 0.950 . S
H1037 C1049 0.950 . S
H1038 C1046 0.950 . S
H1039 C1048 0.950 . S
H1040 C1050 0.950 . S
H1041 C1052 0.950 . S
H1042 C1054 0.950 . S
H1043 C1055 0.950 . S
C1044 H1036 0.950 . S
C1044 C1045 1.386 . S
C1044 C1046 1.391 . S
C1045 C1044 1.386 . S
C1045 C1049 1.393 . S
C1046 H1038 0.950 . S
C1046 C1044 1.391 . S
C1046 C1047 1.400 . S
C1047 C1046 1.400 . S
C1047 C1048 1.398 . S
C1047 C1053 1.491 . S
C1048 H1039 0.950 . S
C1048 C1047 1.398 . S
C1048 C1049 1.391 . S
C1049 H1037 0.950 . S
C1049 C1045 1.393 . S
C1049 C1048 1.391 . S
C1050 H1040 0.950 . S
C1050 C1051 1.386 . S
C1050 C1052 1.391 . S
C1051 C1050 1.386 . S
C1051 C1055 1.393 . S
C1052 H1041 0.950 . S
C1052 C1050 1.391 . S
C1052 C1053 1.400 . S
C1053 C1047 1.491 . S
C1053 C1052 1.400 . S
C1053 C1054 1.398 . S
C1054 H1042 0.950 . S
C1054 C1053 1.398 . S
C1054 C1055 1.391 . S
C1055 H1043 0.950 . S
C1055 C1051 1.393 . S
C1055 C1054 1.391 . S
H1056 C1064 0.950 . S
H1057 C1069 0.950 . S
H1058 C1066 0.950 . S
H1059 C1068 0.950 . S
H1060 C1070 0.950 . S
H1061 C1072 0.950 . S
H1062 C1074 0.950 . S
H1063 C1075 0.950 . S
C1064 H1056 0.950 . S
C1064 C1065 1.386 . S
C1064 C1066 1.391 . S
C1065 C1064 1.386 . S
C1065 C1069 1.393 . S
C1066 H1058 0.950 . S
C1066 C1064 1.391 . S
C1066 C1067 1.400 . S
C1067 C1066 1.400 . S
C1067 C1068 1.398 . S
C1067 C1073 1.491 . S
C1068 H1059 0.950 . S
C1068 C1067 1.398 . S
C1068 C1069 1.391 . S
C1069 H1057 0.950 . S
C1069 C1065 1.393 . S
C1069 C1068 1.391 . S
C1070 H1060 0.950 . S
C1070 C1071 1.386 . S
C1070 C1072 1.391 . S
C1071 C1070 1.386 . S
C1071 C1075 1.393 . S
C1072 H1061 0.950 . S
C1072 C1070 1.391 . S
C1072 C1073 1.400 . S
C1073 C1067 1.491 . S
C1073 C1072 1.400 . S
C1073 C1074 1.398 . S
C1074 H1062 0.950 . S
C1074 C1073 1.398 . S
C1074 C1075 1.391 . S
C1075 H1063 0.950 . S
C1075 C1071 1.393 . S
C1075 C1074 1.391 . S
H1076 C1084 0.950 . S
H1077 C1089 0.950 . S
H1078 C1086 0.950 . S
H1079 C1088 0.950 . S
H1080 C1090 0.950 . S
H1081 C1092 0.950 . S
H1082 C1094 0.950 . S
H1083 C1095 0.950 . S
C1084 H1076 0.950 . S
C1084 C1085 1.386 . S
C1084 C1086 1.391 . S
C1085 C1084 1.386 . S
C1085 C1089 1.393 . S
C1086 H1078 0.950 . S
C1086 C1084 1.391 . S
C1086 C1087 1.400 . S
C1087 C1086 1.400 . S
C1087 C1088 1.398 . S
C1087 C1093 1.491 . S
C1088 H1079 0.950 . S
C1088 C1087 1.398 . S
C1088 C1089 1.391 . S
C1089 H1077 0.950 . S
C1089 C1085 1.393 . S
C1089 C1088 1.391 . S
C1090 H1080 0.950 . S
C1090 C1091 1.386 . S
C1090 C1092 1.391 . S
C1091 C1090 1.386 . S
C1091 C1095 1.393 . S
C1092 H1081 0.950 . S
C1092 C1090 1.391 . S
C1092 C1093 1.400 . S
C1093 C1087 1.491 . S
C1093 C1092 1.400 . S
C1093 C1094 1.398 . S
C1094 H1082 0.950 . S
C1094 C1093 1.398 . S
C1094 C1095 1.391 . S
C1095 H1083 0.950 . S
C1095 C1091 1.393 . S
C1095 C1094 1.391 . S
H1096 C1104 0.950 . S
H1097 C1109 0.950 . S
H1098 C1106 0.950 . S
H1099 C1108 0.950 . S
H1100 C1110 0.950 . S
H1101 C1112 0.950 . S
H1102 C1114 0.950 . S
H1103 C1115 0.950 . S
C1104 H1096 0.950 . S
C1104 C1105 1.386 . S
C1104 C1106 1.391 . S
C1105 C1104 1.386 . S
C1105 C1109 1.393 . S
C1106 H1098 0.950 . S
C1106 C1104 1.391 . S
C1106 C1107 1.400 . S
C1107 C1106 1.400 . S
C1107 C1108 1.398 . S
C1107 C1113 1.491 . S
C1108 H1099 0.950 . S
C1108 C1107 1.398 . S
C1108 C1109 1.391 . S
C1109 H1097 0.950 . S
C1109 C1105 1.393 . S
C1109 C1108 1.391 . S
C1110 H1100 0.950 . S
C1110 C1111 1.386 . S
C1110 C1112 1.391 . S
C1111 C1110 1.386 . S
C1111 C1115 1.393 . S
C1112 H1101 0.950 . S
C1112 C1110 1.391 . S
C1112 C1113 1.400 . S
C1113 C1107 1.491 . S
C1113 C1112 1.400 . S
C1113 C1114 1.398 . S
C1114 H1102 0.950 . S
C1114 C1113 1.398 . S
C1114 C1115 1.391 . S
C1115 H1103 0.950 . S
C1115 C1111 1.393 . S
C1115 C1114 1.391 . S
H1116 C1124 0.950 . S
H1117 C1129 0.950 . S
H1118 C1126 0.950 . S
H1119 C1128 0.950 . S
H1120 C1130 0.950 . S
H1121 C1132 0.950 . S
H1122 C1134 0.950 . S
H1123 C1135 0.950 . S
C1124 H1116 0.950 . S
C1124 C1125 1.386 . S
C1124 C1126 1.391 . S
C1125 C1124 1.386 . S
C1125 C1129 1.393 . S
C1126 H1118 0.950 . S
C1126 C1124 1.391 . S
C1126 C1127 1.400 . S
C1127 C1126 1.400 . S
C1127 C1128 1.398 . S
C1127 C1133 1.491 . S
C1128 H1119 0.950 . S
C1128 C1127 1.398 . S
C1128 C1129 1.391 . S
C1129 H1117 0.950 . S
C1129 C1125 1.393 . S
C1129 C1128 1.391 . S
C1130 H1120 0.950 . S
C1130 C1131 1.386 . S
C1130 C1132 1.391 . S
C1131 C1130 1.386 . S
C1131 C1135 1.393 . S
C1132 H1121 0.950 . S
C1132 C1130 1.391 . S
C1132 C1133 1.400 . S
C1133 C1127 1.491 . S
C1133 C1132 1.400 . S
C1133 C1134 1.398 . S
C1134 H1122 0.950 . S
C1134 C1133 1.398 . S
C1134 C1135 1.391 . S
C1135 H1123 0.950 . S
C1135 C1131 1.393 . S
C1135 C1134 1.391 . S
H1136 C1144 0.950 . S
H1137 C1149 0.950 . S
H1138 C1146 0.950 . S
H1139 C1148 0.950 . S
H1140 C1150 0.950 . S
H1141 C1152 0.950 . S
H1142 C1154 0.950 . S
H1143 C1155 0.950 . S
C1144 H1136 0.950 . S
C1144 C1145 1.386 1_655 S
C1144 C1146 1.391 . S
C1145 C1144 1.386 1_455 S
C1145 C1149 1.393 . S
C1146 H1138 0.950 . S
C1146 C1144 1.391 . S
C1146 C1147 1.400 1_655 S
C1147 C1146 1.400 1_455 S
C1147 C1148 1.398 . S
C1147 C1153 1.491 . S
C1148 H1139 0.950 . S
C1148 C1147 1.398 . S
C1148 C1149 1.391 . S
C1149 H1137 0.950 . S
C1149 C1145 1.393 . S
C1149 C1148 1.391 . S
C1150 H1140 0.950 . S
C1150 C1151 1.386 . S
C1150 C1152 1.391 . S
C1151 C1150 1.386 . S
C1151 C1155 1.393 1_455 S
C1152 H1141 0.950 . S
C1152 C1150 1.391 . S
C1152 C1153 1.400 . S
C1153 C1147 1.491 . S
C1153 C1152 1.400 . S
C1153 C1154 1.398 1_455 S
C1154 H1142 0.950 . S
C1154 C1153 1.398 1_655 S
C1154 C1155 1.391 . S
C1155 H1143 0.950 . S
C1155 C1151 1.393 1_655 S
C1155 C1154 1.391 . S
H1156 C1164 0.950 . S
H1157 C1169 0.950 . S
H1158 C1166 0.950 . S
H1159 C1168 0.950 . S
H1160 C1170 0.950 . S
H1161 C1172 0.950 . S
H1162 C1174 0.950 . S
H1163 C1175 0.950 . S
C1164 H1156 0.950 . S
C1164 C1165 1.386 . S
C1164 C1166 1.391 . S
C1165 C1164 1.386 . S
C1165 C1169 1.393 . S
C1166 H1158 0.950 . S
C1166 C1164 1.391 . S
C1166 C1167 1.400 . S
C1167 C1166 1.400 . S
C1167 C1168 1.398 . S
C1167 C1173 1.491 . S
C1168 H1159 0.950 . S
C1168 C1167 1.398 . S
C1168 C1169 1.391 . S
C1169 H1157 0.950 . S
C1169 C1165 1.393 . S
C1169 C1168 1.391 . S
C1170 H1160 0.950 . S
C1170 C1171 1.386 . S
C1170 C1172 1.391 . S
C1171 C1170 1.386 . S
C1171 C1175 1.393 . S
C1172 H1161 0.950 . S
C1172 C1170 1.391 . S
C1172 C1173 1.400 . S
C1173 C1167 1.491 . S
C1173 C1172 1.400 . S
C1173 C1174 1.398 . S
C1174 H1162 0.950 . S
C1174 C1173 1.398 . S
C1174 C1175 1.391 . S
C1175 H1163 0.950 . S
C1175 C1171 1.393 . S
C1175 C1174 1.391 . S
H1176 C1184 0.950 . S
H1177 C1189 0.950 . S
H1178 C1186 0.950 . S
H1179 C1188 0.950 . S
H1180 C1190 0.950 . S
H1181 C1192 0.950 . S
H1182 C1194 0.950 . S
H1183 C1195 0.950 . S
C1184 H1176 0.950 . S
C1184 C1185 1.386 . S
C1184 C1186 1.391 . S
C1185 C1184 1.386 . S
C1185 C1189 1.393 . S
C1186 H1178 0.950 . S
C1186 C1184 1.391 . S
C1186 C1187 1.400 . S
C1187 C1186 1.400 . S
C1187 C1188 1.398 . S
C1187 C1193 1.491 . S
C1188 H1179 0.950 . S
C1188 C1187 1.398 . S
C1188 C1189 1.391 . S
C1189 H1177 0.950 . S
C1189 C1185 1.393 . S
C1189 C1188 1.391 . S
C1190 H1180 0.950 . S
C1190 C1191 1.386 . S
C1190 C1192 1.391 . S
C1191 C1190 1.386 . S
C1191 C1195 1.393 . S
C1192 H1181 0.950 . S
C1192 C1190 1.391 . S
C1192 C1193 1.400 . S
C1193 C1187 1.491 . S
C1193 C1192 1.400 . S
C1193 C1194 1.398 . S
C1194 H1182 0.950 . S
C1194 C1193 1.398 . S
C1194 C1195 1.391 . S
C1195 H1183 0.950 . S
C1195 C1191 1.393 . S
C1195 C1194 1.391 . S
H1196 C1204 0.950 . S
H1197 C1209 0.950 . S
H1198 C1206 0.950 . S
H1199 C1208 0.950 . S
H1200 C1210 0.950 . S
H1201 C1212 0.950 . S
H1202 C1214 0.950 . S
H1203 C1215 0.950 . S
C1204 H1196 0.950 . S
C1204 C1205 1.386 . S
C1204 C1206 1.391 . S
C1205 C1204 1.386 . S
C1205 C1209 1.393 . S
C1206 H1198 0.950 . S
C1206 C1204 1.391 . S
C1206 C1207 1.400 . S
C1207 C1206 1.400 . S
C1207 C1208 1.398 . S
C1207 C1213 1.491 . S
C1208 H1199 0.950 . S
C1208 C1207 1.398 . S
C1208 C1209 1.391 . S
C1209 H1197 0.950 . S
C1209 C1205 1.393 . S
C1209 C1208 1.391 . S
C1210 H1200 0.950 . S
C1210 C1211 1.386 . S
C1210 C1212 1.391 . S
C1211 C1210 1.386 . S
C1211 C1215 1.393 . S
C1212 H1201 0.950 . S
C1212 C1210 1.391 . S
C1212 C1213 1.400 . S
C1213 C1207 1.491 . S
C1213 C1212 1.400 . S
C1213 C1214 1.398 . S
C1214 H1202 0.950 . S
C1214 C1213 1.398 . S
C1214 C1215 1.391 . S
C1215 H1203 0.950 . S
C1215 C1211 1.393 . S
C1215 C1214 1.391 . S
H1216 C1224 0.950 . S
H1217 C1229 0.950 . S
H1218 C1226 0.950 . S
H1219 C1228 0.950 . S
H1220 C1230 0.950 . S
H1221 C1232 0.950 . S
H1222 C1234 0.950 . S
H1223 C1235 0.950 . S
C1224 H1216 0.950 . S
C1224 C1225 1.386 1_655 S
C1224 C1226 1.391 . S
C1225 C1224 1.386 1_455 S
C1225 C1229 1.393 . S
C1226 H1218 0.950 . S
C1226 C1224 1.391 . S
C1226 C1227 1.400 1_655 S
C1227 C1226 1.400 1_455 S
C1227 C1228 1.398 . S
C1227 C1233 1.491 . S
C1228 H1219 0.950 . S
C1228 C1227 1.398 . S
C1228 C1229 1.391 . S
C1229 H1217 0.950 . S
C1229 C1225 1.393 . S
C1229 C1228 1.391 . S
C1230 H1220 0.950 . S
C1230 C1231 1.386 . S
C1230 C1232 1.391 . S
C1231 C1230 1.386 . S
C1231 C1235 1.393 1_455 S
C1232 H1221 0.950 . S
C1232 C1230 1.391 . S
C1232 C1233 1.400 . S
C1233 C1227 1.491 . S
C1233 C1232 1.400 . S
C1233 C1234 1.398 1_455 S
C1234 H1222 0.950 . S
C1234 C1233 1.398 1_655 S
C1234 C1235 1.391 . S
C1235 H1223 0.950 . S
C1235 C1231 1.393 1_655 S
C1235 C1234 1.391 . S
H1236 C1244 0.950 . S
H1237 C1249 0.950 . S
H1238 C1246 0.950 . S
H1239 C1248 0.950 . S
H1240 C1250 0.950 . S
H1241 C1252 0.950 . S
H1242 C1254 0.950 . S
H1243 C1255 0.950 . S
C1244 H1236 0.950 . S
C1244 C1245 1.386 . S
C1244 C1246 1.391 . S
C1245 C1244 1.386 . S
C1245 C1249 1.393 . S
C1246 H1238 0.950 . S
C1246 C1244 1.391 . S
C1246 C1247 1.400 . S
C1247 C1246 1.400 . S
C1247 C1248 1.398 . S
C1247 C1253 1.491 . S
C1248 H1239 0.950 . S
C1248 C1247 1.398 . S
C1248 C1249 1.391 . S
C1249 H1237 0.950 . S
C1249 C1245 1.393 . S
C1249 C1248 1.391 . S
C1250 H1240 0.950 . S
C1250 C1251 1.386 . S
C1250 C1252 1.391 . S
C1251 C1250 1.386 . S
C1251 C1255 1.393 . S
C1252 H1241 0.950 . S
C1252 C1250 1.391 . S
C1252 C1253 1.400 . S
C1253 C1247 1.491 . S
C1253 C1252 1.400 . S
C1253 C1254 1.398 . S
C1254 H1242 0.950 . S
C1254 C1253 1.398 . S
C1254 C1255 1.391 . S
C1255 H1243 0.950 . S
C1255 C1251 1.393 . S
C1255 C1254 1.391 . S
H1256 C1264 0.950 . S
H1257 C1269 0.950 . S
H1258 C1266 0.950 . S
H1259 C1268 0.950 . S
H1260 C1270 0.950 1_554 S
H1261 C1272 0.950 . S
H1262 C1274 0.950 . S
H1263 C1275 0.950 . S
C1264 H1256 0.950 . S
C1264 C1265 1.386 . S
C1264 C1266 1.391 . S
C1265 C1264 1.386 . S
C1265 C1269 1.393 . S
C1266 H1258 0.950 . S
C1266 C1264 1.391 . S
C1266 C1267 1.400 . S
C1267 C1266 1.400 . S
C1267 C1268 1.398 . S
C1267 C1273 1.491 . S
C1268 H1259 0.950 . S
C1268 C1267 1.398 . S
C1268 C1269 1.391 . S
C1269 H1257 0.950 . S
C1269 C1265 1.393 . S
C1269 C1268 1.391 . S
C1270 H1260 0.950 1_556 S
C1270 C1271 1.386 . S
C1270 C1272 1.391 . S
C1271 C1270 1.386 . S
C1271 C1275 1.393 . S
C1272 H1261 0.950 . S
C1272 C1270 1.391 . S
C1272 C1273 1.400 . S
C1273 C1267 1.491 . S
C1273 C1272 1.400 . S
C1273 C1274 1.398 . S
C1274 H1262 0.950 . S
C1274 C1273 1.398 . S
C1274 C1275 1.391 . S
C1275 H1263 0.950 . S
C1275 C1271 1.393 . S
C1275 C1274 1.391 . S
H1276 C1284 0.950 . S
H1277 C1289 0.950 . S
H1278 C1286 0.950 . S
H1279 C1288 0.950 . S
H1280 C1290 0.950 . S
H1281 C1292 0.950 . S
H1282 C1294 0.950 . S
H1283 C1295 0.950 . S
C1284 H1276 0.950 . S
C1284 C1285 1.386 . S
C1284 C1286 1.391 . S
C1285 C1284 1.386 . S
C1285 C1289 1.393 . S
C1286 H1278 0.950 . S
C1286 C1284 1.391 . S
C1286 C1287 1.400 . S
C1287 C1286 1.400 . S
C1287 C1288 1.398 . S
C1287 C1293 1.491 . S
C1288 H1279 0.950 . S
C1288 C1287 1.398 . S
C1288 C1289 1.391 . S
C1289 H1277 0.950 . S
C1289 C1285 1.393 . S
C1289 C1288 1.391 . S
C1290 H1280 0.950 . S
C1290 C1291 1.386 . S
C1290 C1292 1.391 . S
C1291 C1290 1.386 . S
C1291 C1295 1.393 . S
C1292 H1281 0.950 . S
C1292 C1290 1.391 . S
C1292 C1293 1.400 . S
C1293 C1287 1.491 . S
C1293 C1292 1.400 . S
C1293 C1294 1.398 . S
C1294 H1282 0.950 . S
C1294 C1293 1.398 . S
C1294 C1295 1.391 . S
C1295 H1283 0.950 . S
C1295 C1291 1.393 . S
C1295 C1294 1.391 . S
H1296 C1304 0.950 . S
H1297 C1309 0.950 . S
H1298 C1306 0.950 . S
H1299 C1308 0.950 . S
H1300 C1310 0.950 . S
H1301 C1312 0.950 . S
H1302 C1314 0.956 . S
H1303 C1315 0.944 1_565 S
C1304 H1296 0.950 . S
C1304 C1305 1.386 1_565 S
C1304 C1306 1.391 . S
C1305 C1304 1.386 1_545 S
C1305 C1309 1.393 . S
C1306 H1298 0.950 . S
C1306 C1304 1.391 . S
C1306 C1307 1.400 1_565 S
C1307 C1306 1.400 1_545 S
C1307 C1308 1.398 . S
C1307 C1313 1.491 . S
C1308 H1299 0.950 . S
C1308 C1307 1.398 . S
C1308 C1309 1.391 . S
C1309 H1297 0.950 . S
C1309 C1305 1.393 . S
C1309 C1308 1.391 . S
C1310 H1300 0.950 . S
C1310 C1311 1.386 . S
C1310 C1312 1.391 . S
C1311 C1310 1.386 . S
C1311 C1315 1.402 . S
C1312 H1301 0.950 . S
C1312 C1310 1.391 . S
C1312 C1313 1.400 . S
C1313 C1307 1.491 . S
C1313 C1312 1.400 . S
C1313 C1314 1.395 1_545 S
C1314 H1302 0.956 . S
C1314 C1313 1.395 1_565 S
C1314 C1315 1.388 1_565 S
C1315 H1303 0.944 1_545 S
C1315 C1311 1.402 . S
C1315 C1314 1.388 1_545 S
H1316 C1324 0.950 . S
H1317 C1329 0.950 . S
H1318 C1326 0.950 . S
H1319 C1328 0.950 . S
H1320 C1330 0.950 . S
H1321 C1332 0.950 . S
H1322 C1334 0.950 . S
H1323 C1335 0.950 . S
C1324 H1316 0.950 . S
C1324 C1325 1.386 . S
C1324 C1326 1.391 . S
C1325 C1324 1.386 . S
C1325 C1329 1.393 . S
C1326 H1318 0.950 . S
C1326 C1324 1.391 . S
C1326 C1327 1.400 . S
C1327 C1326 1.400 . S
C1327 C1328 1.398 . S
C1327 C1333 1.491 . S
C1328 H1319 0.950 . S
C1328 C1327 1.398 . S
C1328 C1329 1.391 . S
C1329 H1317 0.950 . S
C1329 C1325 1.393 . S
C1329 C1328 1.391 . S
C1330 H1320 0.950 . S
C1330 C1331 1.386 . S
C1330 C1332 1.391 . S
C1331 C1330 1.386 . S
C1331 C1335 1.393 . S
C1332 H1321 0.950 . S
C1332 C1330 1.391 . S
C1332 C1333 1.400 . S
C1333 C1327 1.491 . S
C1333 C1332 1.400 . S
C1333 C1334 1.398 . S
C1334 H1322 0.950 . S
C1334 C1333 1.398 . S
C1334 C1335 1.391 . S
C1335 H1323 0.950 . S
C1335 C1331 1.393 . S
C1335 C1334 1.391 . S
H1336 C1344 0.950 . S
H1337 C1349 0.950 . S
H1338 C1346 0.950 . S
H1339 C1348 0.950 . S
H1340 C1350 0.950 . S
H1341 C1352 0.950 . S
H1342 C1354 0.950 . S
H1343 C1355 0.950 . S
C1344 H1336 0.950 . S
C1344 C1345 1.386 . S
C1344 C1346 1.391 . S
C1345 C1344 1.386 . S
C1345 C1349 1.393 . S
C1346 H1338 0.950 . S
C1346 C1344 1.391 . S
C1346 C1347 1.400 . S
C1347 C1346 1.400 . S
C1347 C1348 1.398 . S
C1347 C1353 1.491 . S
C1348 H1339 0.950 . S
C1348 C1347 1.398 . S
C1348 C1349 1.391 . S
C1349 H1337 0.950 . S
C1349 C1345 1.393 . S
C1349 C1348 1.391 . S
C1350 H1340 0.950 . S
C1350 C1351 1.386 . S
C1350 C1352 1.391 . S
C1351 C1350 1.386 . S
C1351 C1355 1.393 . S
C1352 H1341 0.950 . S
C1352 C1350 1.391 . S
C1352 C1353 1.400 . S
C1353 C1347 1.491 . S
C1353 C1352 1.400 . S
C1353 C1354 1.398 . S
C1354 H1342 0.950 . S
C1354 C1353 1.398 . S
C1354 C1355 1.391 . S
C1355 H1343 0.950 . S
C1355 C1351 1.393 . S
C1355 C1354 1.391 . S
H1356 C1364 0.950 . S
H1357 C1369 0.950 . S
H1358 C1366 0.950 . S
H1359 C1368 0.950 . S
H1360 C1370 0.950 . S
H1361 C1372 0.950 . S
H1362 C1374 0.950 . S
H1363 C1375 0.950 . S
C1364 H1356 0.950 . S
C1364 C1365 1.386 . S
C1364 C1366 1.391 . S
C1365 C1364 1.386 . S
C1365 C1369 1.393 . S
C1366 H1358 0.950 . S
C1366 C1364 1.391 . S
C1366 C1367 1.400 . S
C1367 C1366 1.400 . S
C1367 C1368 1.398 . S
C1367 C1373 1.491 . S
C1368 H1359 0.950 . S
C1368 C1367 1.398 . S
C1368 C1369 1.391 . S
C1369 H1357 0.950 . S
C1369 C1365 1.393 . S
C1369 C1368 1.391 . S
C1370 H1360 0.950 . S
C1370 C1371 1.386 . S
C1370 C1372 1.391 . S
C1371 C1370 1.386 . S
C1371 C1375 1.393 . S
C1372 H1361 0.950 . S
C1372 C1370 1.391 . S
C1372 C1373 1.400 . S
C1373 C1367 1.491 . S
C1373 C1372 1.400 . S
C1373 C1374 1.398 . S
C1374 H1362 0.950 . S
C1374 C1373 1.398 . S
C1374 C1375 1.391 . S
C1375 H1363 0.950 . S
C1375 C1371 1.393 . S
C1375 C1374 1.391 . S
H1376 C1384 0.950 . S
H1377 C1389 0.950 . S
H1378 C1386 0.950 . S
H1379 C1388 0.950 . S
H1380 C1390 0.950 . S
H1381 C1392 0.950 . S
H1382 C1394 0.950 . S
H1383 C1395 0.950 . S
C1384 H1376 0.950 . S
C1384 C1385 1.386 . S
C1384 C1386 1.391 . S
C1385 C1384 1.386 . S
C1385 C1389 1.393 1_565 S
C1386 H1378 0.950 . S
C1386 C1384 1.391 . S
C1386 C1387 1.400 1_565 S
C1387 C1386 1.400 1_545 S
C1387 C1388 1.398 . S
C1387 C1393 1.491 . S
C1388 H1379 0.950 . S
C1388 C1387 1.398 . S
C1388 C1389 1.391 . S
C1389 H1377 0.950 . S
C1389 C1385 1.393 1_545 S
C1389 C1388 1.391 . S
C1390 H1380 0.950 . S
C1390 C1391 1.386 . S
C1390 C1392 1.391 . S
C1391 C1390 1.386 . S
C1391 C1395 1.393 1_545 S
C1392 H1381 0.950 . S
C1392 C1390 1.391 . S
C1392 C1393 1.400 . S
C1393 C1387 1.491 . S
C1393 C1392 1.400 . S
C1393 C1394 1.398 1_545 S
C1394 H1382 0.950 . S
C1394 C1393 1.398 1_565 S
C1394 C1395 1.391 . S
C1395 H1383 0.950 . S
C1395 C1391 1.393 1_565 S
C1395 C1394 1.391 . S
H1396 C1404 0.950 . S
H1397 C1409 0.950 . S
H1398 C1406 0.950 . S
H1399 C1408 0.950 . S
H1400 C1410 0.950 . S
H1401 C1412 0.950 . S
H1402 C1414 0.950 . S
H1403 C1415 0.950 . S
C1404 H1396 0.950 . S
C1404 C1405 1.386 . S
C1404 C1406 1.391 . S
C1405 C1404 1.386 . S
C1405 C1409 1.393 . S
C1406 H1398 0.950 . S
C1406 C1404 1.391 . S
C1406 C1407 1.400 . S
C1407 C1406 1.400 . S
C1407 C1408 1.398 . S
C1407 C1413 1.491 . S
C1408 H1399 0.950 . S
C1408 C1407 1.398 . S
C1408 C1409 1.391 . S
C1409 H1397 0.950 . S
C1409 C1405 1.393 . S
C1409 C1408 1.391 . S
C1410 H1400 0.950 . S
C1410 C1411 1.386 . S
C1410 C1412 1.391 . S
C1411 C1410 1.386 . S
C1411 C1415 1.393 . S
C1412 H1401 0.950 . S
C1412 C1410 1.391 . S
C1412 C1413 1.400 . S
C1413 C1407 1.491 . S
C1413 C1412 1.400 . S
C1413 C1414 1.398 . S
C1414 H1402 0.950 . S
C1414 C1413 1.398 . S
C1414 C1415 1.391 . S
C1415 H1403 0.950 . S
C1415 C1411 1.393 . S
C1415 C1414 1.391 . S
H1416 C1424 0.950 . S
H1417 C1429 0.950 . S
H1418 C1426 0.950 . S
H1419 C1428 0.950 . S
H1420 C1430 0.950 . S
H1421 C1432 0.950 . S
H1422 C1434 0.950 . S
H1423 C1435 0.950 1_565 S
C1424 H1416 0.950 . S
C1424 C1425 1.386 . S
C1424 C1426 1.391 . S
C1425 C1424 1.386 . S
C1425 C1429 1.393 . S
C1426 H1418 0.950 . S
C1426 C1424 1.391 . S
C1426 C1427 1.400 . S
C1427 C1426 1.400 . S
C1427 C1428 1.398 . S
C1427 C1433 1.491 . S
C1428 H1419 0.950 . S
C1428 C1427 1.398 . S
C1428 C1429 1.391 . S
C1429 H1417 0.950 . S
C1429 C1425 1.393 . S
C1429 C1428 1.391 . S
C1430 H1420 0.950 . S
C1430 C1431 1.386 . S
C1430 C1432 1.391 . S
C1431 C1430 1.386 . S
C1431 C1435 1.393 . S
C1432 H1421 0.950 . S
C1432 C1430 1.391 . S
C1432 C1433 1.400 . S
C1433 C1427 1.491 . S
C1433 C1432 1.400 . S
C1433 C1434 1.398 . S
C1434 H1422 0.950 . S
C1434 C1433 1.398 . S
C1434 C1435 1.391 . S
C1435 H1423 0.950 1_545 S
C1435 C1431 1.393 . S
C1435 C1434 1.391 . S
H1436 C1444 0.950 . S
H1437 C1449 0.950 . S
H1438 C1446 0.950 . S
H1439 C1448 0.950 . S
H1440 C1450 0.950 . S
H1441 C1452 0.950 . S
H1442 C1454 0.950 . S
H1443 C1455 0.950 . S
C1444 H1436 0.950 . S
C1444 C1445 1.386 . S
C1444 C1446 1.391 . S
C1445 C1444 1.386 . S
C1445 C1449 1.393 . S
C1446 H1438 0.950 . S
C1446 C1444 1.391 . S
C1446 C1447 1.400 . S
C1447 C1446 1.400 . S
C1447 C1448 1.398 . S
C1447 C1453 1.491 . S
C1448 H1439 0.950 . S
C1448 C1447 1.398 . S
C1448 C1449 1.391 . S
C1449 H1437 0.950 . S
C1449 C1445 1.393 . S
C1449 C1448 1.391 . S
C1450 H1440 0.950 . S
C1450 C1451 1.386 . S
C1450 C1452 1.391 . S
C1451 C1450 1.386 . S
C1451 C1455 1.393 . S
C1452 H1441 0.950 . S
C1452 C1450 1.391 . S
C1452 C1453 1.400 . S
C1453 C1447 1.491 . S
C1453 C1452 1.400 . S
C1453 C1454 1.398 . S
C1454 H1442 0.950 . S
C1454 C1453 1.398 . S
C1454 C1455 1.391 . S
C1455 H1443 0.950 . S
C1455 C1451 1.393 . S
C1455 C1454 1.391 . S
H1456 C1464 0.950 . S
H1457 C1469 0.950 . S
H1458 C1466 0.950 . S
H1459 C1468 0.950 . S
H1460 C1470 0.950 . S
H1461 C1472 0.950 . S
H1462 C1474 0.950 . S
H1463 C1475 0.950 . S
C1464 H1456 0.950 . S
C1464 C1465 1.386 1_556 S
C1464 C1466 1.391 . S
C1465 C1464 1.386 1_554 S
C1465 C1469 1.393 . S
C1466 H1458 0.950 . S
C1466 C1464 1.391 . S
C1466 C1467 1.400 1_556 S
C1467 C1466 1.400 1_554 S
C1467 C1468 1.398 . S
C1467 C1473 1.491 . S
C1468 H1459 0.950 . S
C1468 C1467 1.398 . S
C1468 C1469 1.391 . S
C1469 H1457 0.950 . S
C1469 C1465 1.393 . S
C1469 C1468 1.391 . S
C1470 H1460 0.950 . S
C1470 C1471 1.386 . S
C1470 C1472 1.391 . S
C1471 C1470 1.386 . S
C1471 C1475 1.393 1_554 S
C1472 H1461 0.950 . S
C1472 C1470 1.391 . S
C1472 C1473 1.400 . S
C1473 C1467 1.491 . S
C1473 C1472 1.400 . S
C1473 C1474 1.398 1_554 S
C1474 H1462 0.950 . S
C1474 C1473 1.398 1_556 S
C1474 C1475 1.391 . S
C1475 H1463 0.950 . S
C1475 C1471 1.393 1_556 S
C1475 C1474 1.391 . S
H1476 C1484 0.950 1_556 S
H1477 C1489 0.950 . S
H1478 C1486 0.950 1_556 S
H1479 C1488 0.950 . S
H1480 C1490 0.950 . S
H1481 C1492 0.950 . S
H1482 C1494 0.950 1_556 S
H1483 C1495 0.950 1_556 S
C1484 H1476 0.950 1_554 S
C1484 C1485 1.386 . S
C1484 C1486 1.391 . S
C1485 C1484 1.386 . S
C1485 C1489 1.393 . S
C1486 H1478 0.950 1_554 S
C1486 C1484 1.391 . S
C1486 C1487 1.400 . S
C1487 C1486 1.400 . S
C1487 C1488 1.398 . S
C1487 C1493 1.491 . S
C1488 H1479 0.950 . S
C1488 C1487 1.398 . S
C1488 C1489 1.391 . S
C1489 H1477 0.950 . S
C1489 C1485 1.393 . S
C1489 C1488 1.391 . S
C1490 H1480 0.950 . S
C1490 C1491 1.386 . S
C1490 C1492 1.391 . S
C1491 C1490 1.386 . S
C1491 C1495 1.393 . S
C1492 H1481 0.950 . S
C1492 C1490 1.391 . S
C1492 C1493 1.400 . S
C1493 C1487 1.491 . S
C1493 C1492 1.400 . S
C1493 C1494 1.398 . S
C1494 H1482 0.950 1_554 S
C1494 C1493 1.398 . S
C1494 C1495 1.391 . S
C1495 H1483 0.950 1_554 S
C1495 C1491 1.393 . S
C1495 C1494 1.391 . S
H1496 C1504 0.950 . S
H1497 C1509 0.950 . S
H1498 C1506 0.950 . S
H1499 C1508 0.950 . S
H1500 C1510 0.950 . S
H1501 C1512 0.950 . S
H1502 C1514 0.950 . S
H1503 C1515 0.950 . S
C1504 H1496 0.950 . S
C1504 C1505 1.386 . S
C1504 C1506 1.391 . S
C1505 C1504 1.386 . S
C1505 C1509 1.393 . S
C1506 H1498 0.950 . S
C1506 C1504 1.391 . S
C1506 C1507 1.400 . S
C1507 C1506 1.400 . S
C1507 C1508 1.398 . S
C1507 C1513 1.491 . S
C1508 H1499 0.950 . S
C1508 C1507 1.398 . S
C1508 C1509 1.391 . S
C1509 H1497 0.950 . S
C1509 C1505 1.393 . S
C1509 C1508 1.391 . S
C1510 H1500 0.950 . S
C1510 C1511 1.386 . S
C1510 C1512 1.391 . S
C1511 C1510 1.386 . S
C1511 C1515 1.393 . S
C1512 H1501 0.950 . S
C1512 C1510 1.391 . S
C1512 C1513 1.400 . S
C1513 C1507 1.491 . S
C1513 C1512 1.400 . S
C1513 C1514 1.398 . S
C1514 H1502 0.950 . S
C1514 C1513 1.398 . S
C1514 C1515 1.391 . S
C1515 H1503 0.950 . S
C1515 C1511 1.393 . S
C1515 C1514 1.391 . S
H1516 C1524 0.950 . S
H1517 C1529 0.950 . S
H1518 C1526 0.950 . S
H1519 C1528 0.950 . S
H1520 C1530 0.950 . S
H1521 C1532 0.950 . S
H1522 C1534 0.950 . S
H1523 C1535 0.950 . S
C1524 H1516 0.950 . S
C1524 C1525 1.386 . S
C1524 C1526 1.391 . S
C1525 C1524 1.386 . S
C1525 C1529 1.393 . S
C1526 H1518 0.950 . S
C1526 C1524 1.391 . S
C1526 C1527 1.400 . S
C1527 C1526 1.400 . S
C1527 C1528 1.398 . S
C1527 C1533 1.491 . S
C1528 H1519 0.950 . S
C1528 C1527 1.398 . S
C1528 C1529 1.391 . S
C1529 H1517 0.950 . S
C1529 C1525 1.393 . S
C1529 C1528 1.391 . S
C1530 H1520 0.950 . S
C1530 C1531 1.386 . S
C1530 C1532 1.391 . S
C1531 C1530 1.386 . S
C1531 C1535 1.393 . S
C1532 H1521 0.950 . S
C1532 C1530 1.391 . S
C1532 C1533 1.400 . S
C1533 C1527 1.491 . S
C1533 C1532 1.400 . S
C1533 C1534 1.398 . S
C1534 H1522 0.950 . S
C1534 C1533 1.398 . S
C1534 C1535 1.391 . S
C1535 H1523 0.950 . S
C1535 C1531 1.393 . S
C1535 C1534 1.391 . S
H1536 C1544 0.950 . S
H1537 C1549 0.950 . S
H1538 C1546 0.950 . S
H1539 C1548 0.950 . S
H1540 C1550 0.950 . S
H1541 C1552 0.950 . S
H1542 C1554 0.950 . S
H1543 C1555 0.950 . S
C1544 H1536 0.950 . S
C1544 C1545 1.386 . S
C1544 C1546 1.391 . S
C1545 C1544 1.386 . S
C1545 C1549 1.393 . S
C1546 H1538 0.950 . S
C1546 C1544 1.391 . S
C1546 C1547 1.400 . S
C1547 C1546 1.400 . S
C1547 C1548 1.398 . S
C1547 C1553 1.491 . S
C1548 H1539 0.950 . S
C1548 C1547 1.398 . S
C1548 C1549 1.391 . S
C1549 H1537 0.950 . S
C1549 C1545 1.393 . S
C1549 C1548 1.391 . S
C1550 H1540 0.950 . S
C1550 C1551 1.386 . S
C1550 C1552 1.391 . S
C1551 C1550 1.386 . S
C1551 C1555 1.393 . S
C1552 H1541 0.950 . S
C1552 C1550 1.391 . S
C1552 C1553 1.400 . S
C1553 C1547 1.491 . S
C1553 C1552 1.400 . S
C1553 C1554 1.398 . S
C1554 H1542 0.950 . S
C1554 C1553 1.398 . S
C1554 C1555 1.391 . S
C1555 H1543 0.950 . S
C1555 C1551 1.393 . S
C1555 C1554 1.391 . S
H1556 C1564 0.950 . S
H1557 C1569 0.950 . S
H1558 C1566 0.950 . S
H1559 C1568 0.950 . S
H1560 C1570 0.950 . S
H1561 C1572 0.950 . S
H1562 C1574 0.950 . S
H1563 C1575 0.950 1_545 S
C1564 H1556 0.950 . S
C1564 C1565 1.386 . S
C1564 C1566 1.391 . S
C1565 C1564 1.386 . S
C1565 C1569 1.393 . S
C1566 H1558 0.950 . S
C1566 C1564 1.391 . S
C1566 C1567 1.400 . S
C1567 C1566 1.400 . S
C1567 C1568 1.398 . S
C1567 C1573 1.491 . S
C1568 H1559 0.950 . S
C1568 C1567 1.398 . S
C1568 C1569 1.391 . S
C1569 H1557 0.950 . S
C1569 C1565 1.393 . S
C1569 C1568 1.391 . S
C1570 H1560 0.950 . S
C1570 C1571 1.386 . S
C1570 C1572 1.391 . S
C1571 C1570 1.386 . S
C1571 C1575 1.393 . S
C1572 H1561 0.950 . S
C1572 C1570 1.391 . S
C1572 C1573 1.400 . S
C1573 C1567 1.491 . S
C1573 C1572 1.400 . S
C1573 C1574 1.398 . S
C1574 H1562 0.950 . S
C1574 C1573 1.398 . S
C1574 C1575 1.391 . S
C1575 H1563 0.950 1_565 S
C1575 C1571 1.393 . S
C1575 C1574 1.391 . S
H1576 C1584 0.950 . S
H1577 C1589 0.950 . S
H1578 C1586 0.950 . S
H1579 C1588 0.950 . S
H1580 C1590 0.950 . S
H1581 C1592 0.950 . S
H1582 C1594 0.950 . S
H1583 C1595 0.950 . S
C1584 H1576 0.950 . S
C1584 C1585 1.386 . S
C1584 C1586 1.391 . S
C1585 C1584 1.386 . S
C1585 C1589 1.393 . S
C1586 H1578 0.950 . S
C1586 C1584 1.391 . S
C1586 C1587 1.400 . S
C1587 C1586 1.400 . S
C1587 C1588 1.398 . S
C1587 C1593 1.491 . S
C1588 H1579 0.950 . S
C1588 C1587 1.398 . S
C1588 C1589 1.391 . S
C1589 H1577 0.950 . S
C1589 C1585 1.393 . S
C1589 C1588 1.391 . S
C1590 H1580 0.950 . S
C1590 C1591 1.386 . S
C1590 C1592 1.391 . S
C1591 C1590 1.386 . S
C1591 C1595 1.393 . S
C1592 H1581 0.950 . S
C1592 C1590 1.391 . S
C1592 C1593 1.400 . S
C1593 C1587 1.491 . S
C1593 C1592 1.400 . S
C1593 C1594 1.398 . S
C1594 H1582 0.950 . S
C1594 C1593 1.398 . S
C1594 C1595 1.391 . S
C1595 H1583 0.950 . S
C1595 C1591 1.393 . S
C1595 C1594 1.391 . S
H1596 C1604 0.950 . S
H1597 C1609 0.950 . S
H1598 C1606 0.950 . S
H1599 C1608 0.950 . S
H1600 C1610 0.950 . S
H1601 C1612 0.950 . S
H1602 C1614 0.950 . S
H1603 C1615 0.950 . S
C1604 H1596 0.950 . S
C1604 C1605 1.386 . S
C1604 C1606 1.391 . S
C1605 C1604 1.386 . S
C1605 C1609 1.393 . S
C1606 H1598 0.950 . S
C1606 C1604 1.391 . S
C1606 C1607 1.400 . S
C1607 C1606 1.400 . S
C1607 C1608 1.398 . S
C1607 C1613 1.491 . S
C1608 H1599 0.950 . S
C1608 C1607 1.398 . S
C1608 C1609 1.391 . S
C1609 H1597 0.950 . S
C1609 C1605 1.393 . S
C1609 C1608 1.391 . S
C1610 H1600 0.950 . S
C1610 C1611 1.386 . S
C1610 C1612 1.391 . S
C1611 C1610 1.386 . S
C1611 C1615 1.393 . S
C1612 H1601 0.950 . S
C1612 C1610 1.391 . S
C1612 C1613 1.400 . S
C1613 C1607 1.491 . S
C1613 C1612 1.400 . S
C1613 C1614 1.398 . S
C1614 H1602 0.950 . S
C1614 C1613 1.398 . S
C1614 C1615 1.391 . S
C1615 H1603 0.950 . S
C1615 C1611 1.393 . S
C1615 C1614 1.391 . S
H1616 C1624 0.950 . S
H1617 C1629 0.950 . S
H1618 C1626 0.950 . S
H1619 C1628 0.950 . S
H1620 C1630 0.950 . S
H1621 C1632 0.950 . S
H1622 C1634 0.950 . S
H1623 C1635 0.950 . S
C1624 H1616 0.950 . S
C1624 C1625 1.386 . S
C1624 C1626 1.391 . S
C1625 C1624 1.386 . S
C1625 C1629 1.393 . S
C1626 H1618 0.950 . S
C1626 C1624 1.391 . S
C1626 C1627 1.400 . S
C1627 C1626 1.400 . S
C1627 C1628 1.398 . S
C1627 C1633 1.491 . S
C1628 H1619 0.950 . S
C1628 C1627 1.398 . S
C1628 C1629 1.391 . S
C1629 H1617 0.950 . S
C1629 C1625 1.393 . S
C1629 C1628 1.391 . S
C1630 H1620 0.950 . S
C1630 C1631 1.386 . S
C1630 C1632 1.391 . S
C1631 C1630 1.386 . S
C1631 C1635 1.393 . S
C1632 H1621 0.950 . S
C1632 C1630 1.391 . S
C1632 C1633 1.400 . S
C1633 C1627 1.491 . S
C1633 C1632 1.400 . S
C1633 C1634 1.398 . S
C1634 H1622 0.950 . S
C1634 C1633 1.398 . S
C1634 C1635 1.391 . S
C1635 H1623 0.950 . S
C1635 C1631 1.393 . S
C1635 C1634 1.391 . S
H1636 C1644 0.950 . S
H1637 C1649 0.950 . S
H1638 C1646 0.950 . S
H1639 C1648 0.950 . S
H1640 C1650 0.950 . S
H1641 C1652 0.950 . S
H1642 C1654 0.950 . S
H1643 C1655 0.950 . S
C1644 H1636 0.950 . S
C1644 C1645 1.386 . S
C1644 C1646 1.391 . S
C1645 C1644 1.386 . S
C1645 C1649 1.393 . S
C1646 H1638 0.950 . S
C1646 C1644 1.391 . S
C1646 C1647 1.400 . S
C1647 C1646 1.400 . S
C1647 C1648 1.398 . S
C1647 C1653 1.491 . S
C1648 H1639 0.950 . S
C1648 C1647 1.398 . S
C1648 C1649 1.391 . S
C1649 H1637 0.950 . S
C1649 C1645 1.393 . S
C1649 C1648 1.391 . S
C1650 H1640 0.950 . S
C1650 C1651 1.386 . S
C1650 C1652 1.391 . S
C1651 C1650 1.386 . S
C1651 C1655 1.393 . S
C1652 H1641 0.950 . S
C1652 C1650 1.391 . S
C1652 C1653 1.400 . S
C1653 C1647 1.491 . S
C1653 C1652 1.400 . S
C1653 C1654 1.398 . S
C1654 H1642 0.950 . S
C1654 C1653 1.398 . S
C1654 C1655 1.391 . S
C1655 H1643 0.950 . S
C1655 C1651 1.393 . S
C1655 C1654 1.391 . S
H1656 C1664 0.950 . S
H1657 C1669 0.950 . S
H1658 C1666 0.950 . S
H1659 C1668 0.950 . S
H1660 C1670 0.950 . S
H1661 C1672 0.950 . S
H1662 C1674 0.950 . S
H1663 C1675 0.950 . S
C1664 H1656 0.950 . S
C1664 C1665 1.386 . S
C1664 C1666 1.391 . S
C1665 C1664 1.386 . S
C1665 C1669 1.393 1_455 S
C1666 H1658 0.950 . S
C1666 C1664 1.391 . S
C1666 C1667 1.400 . S
C1667 C1666 1.400 . S
C1667 C1668 1.398 1_455 S
C1667 C1673 1.491 . S
C1668 H1659 0.950 . S
C1668 C1667 1.398 1_655 S
C1668 C1669 1.391 . S
C1669 H1657 0.950 . S
C1669 C1665 1.393 1_655 S
C1669 C1668 1.391 . S
C1670 H1660 0.950 . S
C1670 C1671 1.386 1_655 S
C1670 C1672 1.391 . S
C1671 C1670 1.386 1_455 S
C1671 C1675 1.393 . S
C1672 H1661 0.950 . S
C1672 C1670 1.391 . S
C1672 C1673 1.400 1_655 S
C1673 C1667 1.491 . S
C1673 C1672 1.400 1_455 S
C1673 C1674 1.398 . S
C1674 H1662 0.950 . S
C1674 C1673 1.398 . S
C1674 C1675 1.391 . S
C1675 H1663 0.950 . S
C1675 C1671 1.393 . S
C1675 C1674 1.391 . S
H1676 C1684 0.950 . S
H1677 C1689 0.950 . S
H1678 C1686 0.950 . S
H1679 C1688 0.950 . S
H1680 C1690 0.950 . S
H1681 C1692 0.950 . S
H1682 C1694 0.950 . S
H1683 C1695 0.950 . S
C1684 H1676 0.950 . S
C1684 C1685 1.386 . S
C1684 C1686 1.391 . S
C1685 C1684 1.386 . S
C1685 C1689 1.393 . S
C1686 H1678 0.950 . S
C1686 C1684 1.391 . S
C1686 C1687 1.400 . S
C1687 C1686 1.400 . S
C1687 C1688 1.398 . S
C1687 C1693 1.491 . S
C1688 H1679 0.950 . S
C1688 C1687 1.398 . S
C1688 C1689 1.391 . S
C1689 H1677 0.950 . S
C1689 C1685 1.393 . S
C1689 C1688 1.391 . S
C1690 H1680 0.950 . S
C1690 C1691 1.386 . S
C1690 C1692 1.391 . S
C1691 C1690 1.386 . S
C1691 C1695 1.393 . S
C1692 H1681 0.950 . S
C1692 C1690 1.391 . S
C1692 C1693 1.400 . S
C1693 C1687 1.491 . S
C1693 C1692 1.400 . S
C1693 C1694 1.398 . S
C1694 H1682 0.950 . S
C1694 C1693 1.398 . S
C1694 C1695 1.391 . S
C1695 H1683 0.950 . S
C1695 C1691 1.393 . S
C1695 C1694 1.391 . S
H1696 C1704 0.950 . S
H1697 C1709 0.950 . S
H1698 C1706 0.950 . S
H1699 C1708 0.950 . S
H1700 C1710 0.950 . S
H1701 C1712 0.950 . S
H1702 C1714 0.950 . S
H1703 C1715 0.950 . S
C1704 H1696 0.950 . S
C1704 C1705 1.386 . S
C1704 C1706 1.391 . S
C1705 C1704 1.386 . S
C1705 C1709 1.393 . S
C1706 H1698 0.950 . S
C1706 C1704 1.391 . S
C1706 C1707 1.400 . S
C1707 C1706 1.400 . S
C1707 C1708 1.398 . S
C1707 C1713 1.491 . S
C1708 H1699 0.950 . S
C1708 C1707 1.398 . S
C1708 C1709 1.391 . S
C1709 H1697 0.950 . S
C1709 C1705 1.393 . S
C1709 C1708 1.391 . S
C1710 H1700 0.950 . S
C1710 C1711 1.386 . S
C1710 C1712 1.391 . S
C1711 C1710 1.386 . S
C1711 C1715 1.393 . S
C1712 H1701 0.950 . S
C1712 C1710 1.391 . S
C1712 C1713 1.400 . S
C1713 C1707 1.491 . S
C1713 C1712 1.400 . S
C1713 C1714 1.398 . S
C1714 H1702 0.950 . S
C1714 C1713 1.398 . S
C1714 C1715 1.391 . S
C1715 H1703 0.950 . S
C1715 C1711 1.393 . S
C1715 C1714 1.391 . S
H1716 C1724 0.950 . S
H1717 C1729 0.950 . S
H1718 C1726 0.950 . S
H1719 C1728 0.950 . S
H1720 C1730 0.950 . S
H1721 C1732 0.950 . S
H1722 C1734 0.950 . S
H1723 C1735 0.950 . S
C1724 H1716 0.950 . S
C1724 C1725 1.386 . S
C1724 C1726 1.391 . S
C1725 C1724 1.386 . S
C1725 C1729 1.393 . S
C1726 H1718 0.950 . S
C1726 C1724 1.391 . S
C1726 C1727 1.400 . S
C1727 C1726 1.400 . S
C1727 C1728 1.398 . S
C1727 C1733 1.491 . S
C1728 H1719 0.950 . S
C1728 C1727 1.398 . S
C1728 C1729 1.391 . S
C1729 H1717 0.950 . S
C1729 C1725 1.393 . S
C1729 C1728 1.391 . S
C1730 H1720 0.950 . S
C1730 C1731 1.386 . S
C1730 C1732 1.391 . S
C1731 C1730 1.386 . S
C1731 C1735 1.393 . S
C1732 H1721 0.950 . S
C1732 C1730 1.391 . S
C1732 C1733 1.400 . S
C1733 C1727 1.491 . S
C1733 C1732 1.400 . S
C1733 C1734 1.398 . S
C1734 H1722 0.950 . S
C1734 C1733 1.398 . S
C1734 C1735 1.391 . S
C1735 H1723 0.950 . S
C1735 C1731 1.393 . S
C1735 C1734 1.391 . S
H1736 C1744 0.950 . S
H1737 C1749 0.950 . S
H1738 C1746 0.950 . S
H1739 C1748 0.950 . S
H1740 C1750 0.950 . S
H1741 C1752 0.950 . S
H1742 C1754 0.950 . S
H1743 C1755 0.950 . S
C1744 H1736 0.950 . S
C1744 C1745 1.386 1_455 S
C1744 C1746 1.391 . S
C1745 C1744 1.386 1_655 S
C1745 C1749 1.393 . S
C1746 H1738 0.950 . S
C1746 C1744 1.391 . S
C1746 C1747 1.400 1_455 S
C1747 C1746 1.400 1_655 S
C1747 C1748 1.398 . S
C1747 C1753 1.491 . S
C1748 H1739 0.950 . S
C1748 C1747 1.398 . S
C1748 C1749 1.391 . S
C1749 H1737 0.950 . S
C1749 C1745 1.393 . S
C1749 C1748 1.391 . S
C1750 H1740 0.950 . S
C1750 C1751 1.386 . S
C1750 C1752 1.391 . S
C1751 C1750 1.386 . S
C1751 C1755 1.393 1_655 S
C1752 H1741 0.950 . S
C1752 C1750 1.391 . S
C1752 C1753 1.400 . S
C1753 C1747 1.491 . S
C1753 C1752 1.400 . S
C1753 C1754 1.398 1_655 S
C1754 H1742 0.950 . S
C1754 C1753 1.398 1_455 S
C1754 C1755 1.391 . S
C1755 H1743 0.950 . S
C1755 C1751 1.393 1_455 S
C1755 C1754 1.391 . S
H1756 C1764 0.950 . S
H1757 C1769 0.950 . S
H1758 C1766 0.950 . S
H1759 C1768 0.950 . S
H1760 C1770 0.950 . S
H1761 C1772 0.950 . S
H1762 C1774 0.950 . S
H1763 C1775 0.950 . S
C1764 H1756 0.950 . S
C1764 C1765 1.386 . S
C1764 C1766 1.391 . S
C1765 C1764 1.386 . S
C1765 C1769 1.393 . S
C1766 H1758 0.950 . S
C1766 C1764 1.391 . S
C1766 C1767 1.400 . S
C1767 C1766 1.400 . S
C1767 C1768 1.398 . S
C1767 C1773 1.491 . S
C1768 H1759 0.950 . S
C1768 C1767 1.398 . S
C1768 C1769 1.391 . S
C1769 H1757 0.950 . S
C1769 C1765 1.393 . S
C1769 C1768 1.391 . S
C1770 H1760 0.950 . S
C1770 C1771 1.386 . S
C1770 C1772 1.391 . S
C1771 C1770 1.386 . S
C1771 C1775 1.393 . S
C1772 H1761 0.950 . S
C1772 C1770 1.391 . S
C1772 C1773 1.400 . S
C1773 C1767 1.491 . S
C1773 C1772 1.400 . S
C1773 C1774 1.398 . S
C1774 H1762 0.950 . S
C1774 C1773 1.398 . S
C1774 C1775 1.391 . S
C1775 H1763 0.950 . S
C1775 C1771 1.393 . S
C1775 C1774 1.391 . S
H1776 C1784 0.950 . S
H1777 C1789 0.950 . S
H1778 C1786 0.950 . S
H1779 C1788 0.950 . S
H1780 C1790 0.950 . S
H1781 C1792 0.950 . S
H1782 C1794 0.950 . S
H1783 C1795 0.950 . S
C1784 H1776 0.950 . S
C1784 C1785 1.386 . S
C1784 C1786 1.391 . S
C1785 C1784 1.386 . S
C1785 C1789 1.393 . S
C1786 H1778 0.950 . S
C1786 C1784 1.391 . S
C1786 C1787 1.400 . S
C1787 C1786 1.400 . S
C1787 C1788 1.398 . S
C1787 C1793 1.491 . S
C1788 H1779 0.950 . S
C1788 C1787 1.398 . S
C1788 C1789 1.391 . S
C1789 H1777 0.950 . S
C1789 C1785 1.393 . S
C1789 C1788 1.391 . S
C1790 H1780 0.950 . S
C1790 C1791 1.386 . S
C1790 C1792 1.391 . S
C1791 C1790 1.386 . S
C1791 C1795 1.393 . S
C1792 H1781 0.950 . S
C1792 C1790 1.391 . S
C1792 C1793 1.400 . S
C1793 C1787 1.491 . S
C1793 C1792 1.400 . S
C1793 C1794 1.398 . S
C1794 H1782 0.950 . S
C1794 C1793 1.398 . S
C1794 C1795 1.391 . S
C1795 H1783 0.950 . S
C1795 C1791 1.393 . S
C1795 C1794 1.391 . S
H1796 C1804 0.950 . S
H1797 C1809 0.950 . S
H1798 C1806 0.950 . S
H1799 C1808 0.950 . S
H1800 C1810 0.950 . S
H1801 C1812 0.950 . S
H1802 C1814 0.950 . S
H1803 C1815 0.950 . S
C1804 H1796 0.950 . S
C1804 C1805 1.386 . S
C1804 C1806 1.391 . S
C1805 C1804 1.386 . S
C1805 C1809 1.393 . S
C1806 H1798 0.950 . S
C1806 C1804 1.391 . S
C1806 C1807 1.400 . S
C1807 C1806 1.400 . S
C1807 C1808 1.398 . S
C1807 C1813 1.491 . S
C1808 H1799 0.950 . S
C1808 C1807 1.398 . S
C1808 C1809 1.391 . S
C1809 H1797 0.950 . S
C1809 C1805 1.393 . S
C1809 C1808 1.391 . S
C1810 H1800 0.950 . S
C1810 C1811 1.386 . S
C1810 C1812 1.391 . S
C1811 C1810 1.386 . S
C1811 C1815 1.393 . S
C1812 H1801 0.950 . S
C1812 C1810 1.391 . S
C1812 C1813 1.400 . S
C1813 C1807 1.491 . S
C1813 C1812 1.400 . S
C1813 C1814 1.398 . S
C1814 H1802 0.950 . S
C1814 C1813 1.398 . S
C1814 C1815 1.391 . S
C1815 H1803 0.950 . S
C1815 C1811 1.393 . S
C1815 C1814 1.391 . S
H1816 C1824 0.950 . S
H1817 C1829 0.950 . S
H1818 C1826 0.950 . S
H1819 C1828 0.950 . S
H1820 C1830 0.950 . S
H1821 C1832 0.950 . S
H1822 C1834 0.950 . S
H1823 C1835 0.950 . S
C1824 H1816 0.950 . S
C1824 C1825 1.386 . S
C1824 C1826 1.391 . S
C1825 C1824 1.386 . S
C1825 C1829 1.393 . S
C1826 H1818 0.950 . S
C1826 C1824 1.391 . S
C1826 C1827 1.400 . S
C1827 C1826 1.400 . S
C1827 C1828 1.398 . S
C1827 C1833 1.491 . S
C1828 H1819 0.950 . S
C1828 C1827 1.398 . S
C1828 C1829 1.391 . S
C1829 H1817 0.950 . S
C1829 C1825 1.393 . S
C1829 C1828 1.391 . S
C1830 H1820 0.950 . S
C1830 C1831 1.386 . S
C1830 C1832 1.391 . S
C1831 C1830 1.386 . S
C1831 C1835 1.393 . S
C1832 H1821 0.950 . S
C1832 C1830 1.391 . S
C1832 C1833 1.400 . S
C1833 C1827 1.491 . S
C1833 C1832 1.400 . S
C1833 C1834 1.398 . S
C1834 H1822 0.950 . S
C1834 C1833 1.398 . S
C1834 C1835 1.391 . S
C1835 H1823 0.950 . S
C1835 C1831 1.393 . S
C1835 C1834 1.391 . S
H1836 C1844 0.950 . S
H1837 C1849 0.950 . S
H1838 C1846 0.950 . S
H1839 C1848 0.950 . S
H1840 C1850 0.950 . S
H1841 C1852 0.950 . S
H1842 C1854 0.950 . S
H1843 C1855 0.950 . S
C1844 H1836 0.950 . S
C1844 C1845 1.386 . S
C1844 C1846 1.391 . S
C1845 C1844 1.386 . S
C1845 C1849 1.393 . S
C1846 H1838 0.950 . S
C1846 C1844 1.391 . S
C1846 C1847 1.400 . S
C1847 C1846 1.400 . S
C1847 C1848 1.398 . S
C1847 C1853 1.491 . S
C1848 H1839 0.950 . S
C1848 C1847 1.398 . S
C1848 C1849 1.391 . S
C1849 H1837 0.950 . S
C1849 C1845 1.393 . S
C1849 C1848 1.391 . S
C1850 H1840 0.950 . S
C1850 C1851 1.386 . S
C1850 C1852 1.391 . S
C1851 C1850 1.386 . S
C1851 C1855 1.393 . S
C1852 H1841 0.950 . S
C1852 C1850 1.391 . S
C1852 C1853 1.400 . S
C1853 C1847 1.491 . S
C1853 C1852 1.400 . S
C1853 C1854 1.398 . S
C1854 H1842 0.950 . S
C1854 C1853 1.398 . S
C1854 C1855 1.391 . S
C1855 H1843 0.950 . S
C1855 C1851 1.393 . S
C1855 C1854 1.391 . S
H1856 C1864 0.950 . S
H1857 C1869 0.950 . S
H1858 C1866 0.950 . S
H1859 C1868 0.950 . S
H1860 C1870 0.950 . S
H1861 C1872 0.950 . S
H1862 C1874 0.950 . S
H1863 C1875 0.950 . S
C1864 H1856 0.950 . S
C1864 C1865 1.386 . S
C1864 C1866 1.391 . S
C1865 C1864 1.386 . S
C1865 C1869 1.393 . S
C1866 H1858 0.950 . S
C1866 C1864 1.391 . S
C1866 C1867 1.400 . S
C1867 C1866 1.400 . S
C1867 C1868 1.398 . S
C1867 C1873 1.491 . S
C1868 H1859 0.950 . S
C1868 C1867 1.398 . S
C1868 C1869 1.391 . S
C1869 H1857 0.950 . S
C1869 C1865 1.393 . S
C1869 C1868 1.391 . S
C1870 H1860 0.950 . S
C1870 C1871 1.386 . S
C1870 C1872 1.391 . S
C1871 C1870 1.386 . S
C1871 C1875 1.393 . S
C1872 H1861 0.950 . S
C1872 C1870 1.391 . S
C1872 C1873 1.400 . S
C1873 C1867 1.491 . S
C1873 C1872 1.400 . S
C1873 C1874 1.398 . S
C1874 H1862 0.950 . S
C1874 C1873 1.398 . S
C1874 C1875 1.391 . S
C1875 H1863 0.950 . S
C1875 C1871 1.393 . S
C1875 C1874 1.391 . S
H1876 C1884 0.950 . S
H1877 C1889 0.950 . S
H1878 C1886 0.950 . S
H1879 C1888 0.950 . S
H1880 C1890 0.950 . S
H1881 C1892 0.950 . S
H1882 C1894 0.950 . S
H1883 C1895 0.950 . S
C1884 H1876 0.950 . S
C1884 C1885 1.386 . S
C1884 C1886 1.391 . S
C1885 C1884 1.386 . S
C1885 C1889 1.393 . S
C1886 H1878 0.950 . S
C1886 C1884 1.391 . S
C1886 C1887 1.400 . S
C1887 C1886 1.400 . S
C1887 C1888 1.398 . S
C1887 C1893 1.491 . S
C1888 H1879 0.950 . S
C1888 C1887 1.398 . S
C1888 C1889 1.391 . S
C1889 H1877 0.950 . S
C1889 C1885 1.393 . S
C1889 C1888 1.391 . S
C1890 H1880 0.950 . S
C1890 C1891 1.386 . S
C1890 C1892 1.391 . S
C1891 C1890 1.386 . S
C1891 C1895 1.393 . S
C1892 H1881 0.950 . S
C1892 C1890 1.391 . S
C1892 C1893 1.400 . S
C1893 C1887 1.491 . S
C1893 C1892 1.400 . S
C1893 C1894 1.398 . S
C1894 H1882 0.950 . S
C1894 C1893 1.398 . S
C1894 C1895 1.391 . S
C1895 H1883 0.950 . S
C1895 C1891 1.393 . S
C1895 C1894 1.391 . S
H1896 C1904 0.950 . S
H1897 C1909 0.950 . S
H1898 C1906 0.950 . S
H1899 C1908 0.950 . S
H1900 C1910 0.950 . S
H1901 C1912 0.950 . S
H1902 C1914 0.950 . S
H1903 C1915 0.950 . S
C1904 H1896 0.950 . S
C1904 C1905 1.386 . S
C1904 C1906 1.391 . S
C1905 C1904 1.386 . S
C1905 C1909 1.393 . S
C1906 H1898 0.950 . S
C1906 C1904 1.391 . S
C1906 C1907 1.400 . S
C1907 C1906 1.400 . S
C1907 C1908 1.398 . S
C1907 C1913 1.491 . S
C1908 H1899 0.950 . S
C1908 C1907 1.398 . S
C1908 C1909 1.391 . S
C1909 H1897 0.950 . S
C1909 C1905 1.393 . S
C1909 C1908 1.391 . S
C1910 H1900 0.950 . S
C1910 C1911 1.386 . S
C1910 C1912 1.391 . S
C1911 C1910 1.386 . S
C1911 C1915 1.393 . S
C1912 H1901 0.950 . S
C1912 C1910 1.391 . S
C1912 C1913 1.400 . S
C1913 C1907 1.491 . S
C1913 C1912 1.400 . S
C1913 C1914 1.398 . S
C1914 H1902 0.950 . S
C1914 C1913 1.398 . S
C1914 C1915 1.391 . S
C1915 H1903 0.950 . S
C1915 C1911 1.393 . S
C1915 C1914 1.391 . S
H1916 C1924 0.950 . S
H1917 C1929 0.950 . S
H1918 C1926 0.950 . S
H1919 C1928 0.950 . S
H1920 C1930 0.950 . S
H1921 C1932 0.950 . S
H1922 C1934 0.950 . S
H1923 C1935 0.950 . S
C1924 H1916 0.950 . S
C1924 C1925 1.386 . S
C1924 C1926 1.391 . S
C1925 C1924 1.386 . S
C1925 C1929 1.393 . S
C1926 H1918 0.950 . S
C1926 C1924 1.391 . S
C1926 C1927 1.400 . S
C1927 C1926 1.400 . S
C1927 C1928 1.398 . S
C1927 C1933 1.491 . S
C1928 H1919 0.950 . S
C1928 C1927 1.398 . S
C1928 C1929 1.391 . S
C1929 H1917 0.950 . S
C1929 C1925 1.393 . S
C1929 C1928 1.391 . S
C1930 H1920 0.950 . S
C1930 C1931 1.386 . S
C1930 C1932 1.391 . S
C1931 C1930 1.386 . S
C1931 C1935 1.393 . S
C1932 H1921 0.950 . S
C1932 C1930 1.391 . S
C1932 C1933 1.400 . S
C1933 C1927 1.491 . S
C1933 C1932 1.400 . S
C1933 C1934 1.398 . S
C1934 H1922 0.950 . S
C1934 C1933 1.398 . S
C1934 C1935 1.391 . S
C1935 H1923 0.950 . S
C1935 C1931 1.393 . S
C1935 C1934 1.391 . S
H1936 C1944 0.950 . S
H1937 C1949 0.950 . S
H1938 C1946 0.950 . S
H1939 C1948 0.950 . S
H1940 C1950 0.950 . S
H1941 C1952 0.950 . S
H1942 C1954 0.950 . S
H1943 C1955 0.950 . S
C1944 H1936 0.950 . S
C1944 C1945 1.386 . S
C1944 C1946 1.391 . S
C1945 C1944 1.386 . S
C1945 C1949 1.393 . S
C1946 H1938 0.950 . S
C1946 C1944 1.391 . S
C1946 C1947 1.400 . S
C1947 C1946 1.400 . S
C1947 C1948 1.398 . S
C1947 C1953 1.491 . S
C1948 H1939 0.950 . S
C1948 C1947 1.398 . S
C1948 C1949 1.391 . S
C1949 H1937 0.950 . S
C1949 C1945 1.393 . S
C1949 C1948 1.391 . S
C1950 H1940 0.950 . S
C1950 C1951 1.386 . S
C1950 C1952 1.391 . S
C1951 C1950 1.386 . S
C1951 C1955 1.393 . S
C1952 H1941 0.950 . S
C1952 C1950 1.391 . S
C1952 C1953 1.400 . S
C1953 C1947 1.491 . S
C1953 C1952 1.400 . S
C1953 C1954 1.398 . S
C1954 H1942 0.950 . S
C1954 C1953 1.398 . S
C1954 C1955 1.391 . S
C1955 H1943 0.950 . S
C1955 C1951 1.393 . S
C1955 C1954 1.391 . S
H1956 C1964 0.950 . S
H1957 C1969 0.950 . S
H1958 C1966 0.950 . S
H1959 C1968 0.950 . S
H1960 C1970 0.950 . S
H1961 C1972 0.950 . S
H1962 C1974 0.950 . S
H1963 C1975 0.950 . S
C1964 H1956 0.950 . S
C1964 C1965 1.386 . S
C1964 C1966 1.391 . S
C1965 C1964 1.386 . S
C1965 C1969 1.393 . S
C1966 H1958 0.950 . S
C1966 C1964 1.391 . S
C1966 C1967 1.400 . S
C1967 C1966 1.400 . S
C1967 C1968 1.398 . S
C1967 C1973 1.491 . S
C1968 H1959 0.950 . S
C1968 C1967 1.398 . S
C1968 C1969 1.391 . S
C1969 H1957 0.950 . S
C1969 C1965 1.393 . S
C1969 C1968 1.391 . S
C1970 H1960 0.950 . S
C1970 C1971 1.386 . S
C1970 C1972 1.391 . S
C1971 C1970 1.386 . S
C1971 C1975 1.393 . S
C1972 H1961 0.950 . S
C1972 C1970 1.391 . S
C1972 C1973 1.400 . S
C1973 C1967 1.491 . S
C1973 C1972 1.400 . S
C1973 C1974 1.398 . S
C1974 H1962 0.950 . S
C1974 C1973 1.398 . S
C1974 C1975 1.391 . S
C1975 H1963 0.950 . S
C1975 C1971 1.393 . S
C1975 C1974 1.391 . S
H1976 C1984 0.950 . S
H1977 C1989 0.950 . S
H1978 C1986 0.950 . S
H1979 C1988 0.950 . S
H1980 C1990 0.950 . S
H1981 C1992 0.950 . S
H1982 C1994 0.950 . S
H1983 C1995 0.950 . S
C1984 H1976 0.950 . S
C1984 C1985 1.386 . S
C1984 C1986 1.391 . S
C1985 C1984 1.386 . S
C1985 C1989 1.393 . S
C1986 H1978 0.950 . S
C1986 C1984 1.391 . S
C1986 C1987 1.400 . S
C1987 C1986 1.400 . S
C1987 C1988 1.398 . S
C1987 C1993 1.491 . S
C1988 H1979 0.950 . S
C1988 C1987 1.398 . S
C1988 C1989 1.391 . S
C1989 H1977 0.950 . S
C1989 C1985 1.393 . S
C1989 C1988 1.391 . S
C1990 H1980 0.950 . S
C1990 C1991 1.386 . S
C1990 C1992 1.391 . S
C1991 C1990 1.386 . S
C1991 C1995 1.393 . S
C1992 H1981 0.950 . S
C1992 C1990 1.391 . S
C1992 C1993 1.400 . S
C1993 C1987 1.491 . S
C1993 C1992 1.400 . S
C1993 C1994 1.398 . S
C1994 H1982 0.950 . S
C1994 C1993 1.398 . S
C1994 C1995 1.391 . S
C1995 H1983 0.950 . S
C1995 C1991 1.393 . S
C1995 C1994 1.391 . S
H1996 C2004 0.950 . S
H1997 C2009 0.950 . S
H1998 C2006 0.950 . S
H1999 C2008 0.950 . S
H2000 C2010 0.954 . S
H2001 C2012 0.950 . S
H2002 C2014 0.950 1_545 S
H2003 C2015 0.950 . S
C2004 H1996 0.950 . S
C2004 C2005 1.386 . S
C2004 C2006 1.391 . S
C2005 C2004 1.386 . S
C2005 C2009 1.393 . S
C2006 H1998 0.950 . S
C2006 C2004 1.391 . S
C2006 C2007 1.400 . S
C2007 C2006 1.400 . S
C2007 C2008 1.398 . S
C2007 C2013 1.491 . S
C2008 H1999 0.950 . S
C2008 C2007 1.398 . S
C2008 C2009 1.391 . S
C2009 H1997 0.950 . S
C2009 C2005 1.393 . S
C2009 C2008 1.391 . S
C2010 H2000 0.954 . S
C2010 C2011 1.386 1_565 S
C2010 C2012 1.391 . S
C2011 C2010 1.386 1_545 S
C2011 C2015 1.393 . S
C2012 H2001 0.950 . S
C2012 C2010 1.391 . S
C2012 C2013 1.400 . S
C2013 C2007 1.491 . S
C2013 C2012 1.400 . S
C2013 C2014 1.398 . S
C2014 H2002 0.950 1_565 S
C2014 C2013 1.398 . S
C2014 C2015 1.391 1_565 S
C2015 H2003 0.950 . S
C2015 C2011 1.393 . S
C2015 C2014 1.391 1_545 S
H2016 C2024 0.950 . S
H2017 C2029 0.950 . S
H2018 C2026 0.950 . S
H2019 C2028 0.950 . S
H2020 C2030 0.950 . S
H2021 C2032 0.950 . S
H2022 C2034 0.950 . S
H2023 C2035 0.950 . S
C2024 H2016 0.950 . S
C2024 C2025 1.386 . S
C2024 C2026 1.391 . S
C2025 C2024 1.386 . S
C2025 C2029 1.393 . S
C2026 H2018 0.950 . S
C2026 C2024 1.391 . S
C2026 C2027 1.400 . S
C2027 C2026 1.400 . S
C2027 C2028 1.398 . S
C2027 C2033 1.491 . S
C2028 H2019 0.950 . S
C2028 C2027 1.398 . S
C2028 C2029 1.391 . S
C2029 H2017 0.950 . S
C2029 C2025 1.393 . S
C2029 C2028 1.391 . S
C2030 H2020 0.950 . S
C2030 C2031 1.386 . S
C2030 C2032 1.391 . S
C2031 C2030 1.386 . S
C2031 C2035 1.393 . S
C2032 H2021 0.950 . S
C2032 C2030 1.391 . S
C2032 C2033 1.400 . S
C2033 C2027 1.491 . S
C2033 C2032 1.400 . S
C2033 C2034 1.398 . S
C2034 H2022 0.950 . S
C2034 C2033 1.398 . S
C2034 C2035 1.391 . S
C2035 H2023 0.950 . S
C2035 C2031 1.393 . S
C2035 C2034 1.391 . S
H2036 C2044 0.950 . S
H2037 C2049 0.950 . S
H2038 C2046 0.950 1_556 S
H2039 C2048 0.950 . S
H2040 C2050 0.950 . S
H2041 C2052 0.950 . S
H2042 C2054 0.939 1_556 S
H2043 C2055 0.950 . S
C2044 H2036 0.950 . S
C2044 C2045 1.386 1_556 S
C2044 C2046 1.391 1_556 S
C2045 C2044 1.386 1_554 S
C2045 C2049 1.393 . S
C2046 H2038 0.950 1_554 S
C2046 C2044 1.391 1_554 S
C2046 C2047 1.400 . S
C2047 C2046 1.400 . S
C2047 C2048 1.398 . S
C2047 C2053 1.491 . S
C2048 H2039 0.950 . S
C2048 C2047 1.398 . S
C2048 C2049 1.391 . S
C2049 H2037 0.950 . S
C2049 C2045 1.393 . S
C2049 C2048 1.391 . S
C2050 H2040 0.950 . S
C2050 C2051 1.386 . S
C2050 C2052 1.391 . S
C2051 C2050 1.386 . S
C2051 C2055 1.393 . S
C2052 H2041 0.950 . S
C2052 C2050 1.391 . S
C2052 C2053 1.400 . S
C2053 C2047 1.491 . S
C2053 C2052 1.400 . S
C2053 C2054 1.398 . S
C2054 H2042 0.939 1_554 S
C2054 C2053 1.398 . S
C2054 C2055 1.391 . S
C2055 H2043 0.950 . S
C2055 C2051 1.393 . S
C2055 C2054 1.391 . S
H2056 C2064 0.950 . S
H2057 C2069 0.950 . S
H2058 C2066 0.950 . S
H2059 C2068 0.950 . S
H2060 C2070 0.950 . S
H2061 C2072 0.950 . S
H2062 C2074 0.950 . S
H2063 C2075 0.950 . S
C2064 H2056 0.950 . S
C2064 C2065 1.386 . S
C2064 C2066 1.391 . S
C2065 C2064 1.386 . S
C2065 C2069 1.393 . S
C2066 H2058 0.950 . S
C2066 C2064 1.391 . S
C2066 C2067 1.400 . S
C2067 C2066 1.400 . S
C2067 C2068 1.398 . S
C2067 C2073 1.491 . S
C2068 H2059 0.950 . S
C2068 C2067 1.398 . S
C2068 C2069 1.391 . S
C2069 H2057 0.950 . S
C2069 C2065 1.393 . S
C2069 C2068 1.391 . S
C2070 H2060 0.950 . S
C2070 C2071 1.386 . S
C2070 C2072 1.391 . S
C2071 C2070 1.386 . S
C2071 C2075 1.393 . S
C2072 H2061 0.950 . S
C2072 C2070 1.391 . S
C2072 C2073 1.400 . S
C2073 C2067 1.491 . S
C2073 C2072 1.400 . S
C2073 C2074 1.398 . S
C2074 H2062 0.950 . S
C2074 C2073 1.398 . S
C2074 C2075 1.391 . S
C2075 H2063 0.950 . S
C2075 C2071 1.393 . S
C2075 C2074 1.391 . S
H2076 C2084 0.950 . S
H2077 C2089 0.950 . S
H2078 C2086 0.950 . S
H2079 C2088 0.950 . S
H2080 C2090 0.950 . S
H2081 C2092 0.950 . S
H2082 C2094 0.950 . S
H2083 C2095 0.950 . S
C2084 H2076 0.950 . S
C2084 C2085 1.386 . S
C2084 C2086 1.391 . S
C2085 C2084 1.386 . S
C2085 C2089 1.393 . S
C2086 H2078 0.950 . S
C2086 C2084 1.391 . S
C2086 C2087 1.400 . S
C2087 C2086 1.400 . S
C2087 C2088 1.398 . S
C2087 C2093 1.491 . S
C2088 H2079 0.950 . S
C2088 C2087 1.398 . S
C2088 C2089 1.391 . S
C2089 H2077 0.950 . S
C2089 C2085 1.393 . S
C2089 C2088 1.391 . S
C2090 H2080 0.950 . S
C2090 C2091 1.386 . S
C2090 C2092 1.391 . S
C2091 C2090 1.386 . S
C2091 C2095 1.393 . S
C2092 H2081 0.950 . S
C2092 C2090 1.391 . S
C2092 C2093 1.400 . S
C2093 C2087 1.491 . S
C2093 C2092 1.400 . S
C2093 C2094 1.398 . S
C2094 H2082 0.950 . S
C2094 C2093 1.398 . S
C2094 C2095 1.391 . S
C2095 H2083 0.950 . S
C2095 C2091 1.393 . S
C2095 C2094 1.391 . S
H2096 C2104 0.950 . S
H2097 C2109 0.950 . S
H2098 C2106 0.950 . S
H2099 C2108 0.950 . S
H2100 C2110 0.950 . S
H2101 C2112 0.950 . S
H2102 C2114 0.950 . S
H2103 C2115 0.950 . S
C2104 H2096 0.950 . S
C2104 C2105 1.386 . S
C2104 C2106 1.391 . S
C2105 C2104 1.386 . S
C2105 C2109 1.393 . S
C2106 H2098 0.950 . S
C2106 C2104 1.391 . S
C2106 C2107 1.400 . S
C2107 C2106 1.400 . S
C2107 C2108 1.398 . S
C2107 C2113 1.491 . S
C2108 H2099 0.950 . S
C2108 C2107 1.398 . S
C2108 C2109 1.391 . S
C2109 H2097 0.950 . S
C2109 C2105 1.393 . S
C2109 C2108 1.391 . S
C2110 H2100 0.950 . S
C2110 C2111 1.386 . S
C2110 C2112 1.391 . S
C2111 C2110 1.386 . S
C2111 C2115 1.393 . S
C2112 H2101 0.950 . S
C2112 C2110 1.391 . S
C2112 C2113 1.400 . S
C2113 C2107 1.491 . S
C2113 C2112 1.400 . S
C2113 C2114 1.398 . S
C2114 H2102 0.950 . S
C2114 C2113 1.398 . S
C2114 C2115 1.391 . S
C2115 H2103 0.950 . S
C2115 C2111 1.393 . S
C2115 C2114 1.391 . S
H2116 C2124 0.950 . S
H2117 C2129 0.950 . S
H2118 C2126 0.950 . S
H2119 C2128 0.950 . S
H2120 C2130 0.950 . S
H2121 C2132 0.950 . S
H2122 C2134 0.950 . S
H2123 C2135 0.950 . S
C2124 H2116 0.950 . S
C2124 C2125 1.386 . S
C2124 C2126 1.391 . S
C2125 C2124 1.386 . S
C2125 C2129 1.393 . S
C2126 H2118 0.950 . S
C2126 C2124 1.391 . S
C2126 C2127 1.400 . S
C2127 C2126 1.400 . S
C2127 C2128 1.398 . S
C2127 C2133 1.491 . S
C2128 H2119 0.950 . S
C2128 C2127 1.398 . S
C2128 C2129 1.391 . S
C2129 H2117 0.950 . S
C2129 C2125 1.393 . S
C2129 C2128 1.391 . S
C2130 H2120 0.950 . S
C2130 C2131 1.386 . S
C2130 C2132 1.391 . S
C2131 C2130 1.386 . S
C2131 C2135 1.393 . S
C2132 H2121 0.950 . S
C2132 C2130 1.391 . S
C2132 C2133 1.400 . S
C2133 C2127 1.491 . S
C2133 C2132 1.400 . S
C2133 C2134 1.398 . S
C2134 H2122 0.950 . S
C2134 C2133 1.398 . S
C2134 C2135 1.391 . S
C2135 H2123 0.950 . S
C2135 C2131 1.393 . S
C2135 C2134 1.391 . S
H2136 C2144 0.950 . S
H2137 C2149 0.950 . S
H2138 C2146 0.950 . S
H2139 C2148 0.950 . S
H2140 C2150 0.950 . S
H2141 C2152 0.950 . S
H2142 C2154 0.950 . S
H2143 C2155 0.950 . S
C2144 H2136 0.950 . S
C2144 C2145 1.386 1_655 S
C2144 C2146 1.391 . S
C2145 C2144 1.386 1_455 S
C2145 C2149 1.393 . S
C2146 H2138 0.950 . S
C2146 C2144 1.391 . S
C2146 C2147 1.400 1_655 S
C2147 C2146 1.400 1_455 S
C2147 C2148 1.398 . S
C2147 C2153 1.491 . S
C2148 H2139 0.950 . S
C2148 C2147 1.398 . S
C2148 C2149 1.391 . S
C2149 H2137 0.950 . S
C2149 C2145 1.393 . S
C2149 C2148 1.391 . S
C2150 H2140 0.950 . S
C2150 C2151 1.386 . S
C2150 C2152 1.391 . S
C2151 C2150 1.386 . S
C2151 C2155 1.393 1_455 S
C2152 H2141 0.950 . S
C2152 C2150 1.391 . S
C2152 C2153 1.400 . S
C2153 C2147 1.491 . S
C2153 C2152 1.400 . S
C2153 C2154 1.398 1_455 S
C2154 H2142 0.950 . S
C2154 C2153 1.398 1_655 S
C2154 C2155 1.391 . S
C2155 H2143 0.950 . S
C2155 C2151 1.393 1_655 S
C2155 C2154 1.391 . S
H2156 C2164 0.950 . S
H2157 C2169 0.950 . S
H2158 C2166 0.950 . S
H2159 C2168 0.950 . S
H2160 C2170 0.950 . S
H2161 C2172 0.950 . S
H2162 C2174 0.950 . S
H2163 C2175 0.950 . S
C2164 H2156 0.950 . S
C2164 C2165 1.386 . S
C2164 C2166 1.391 . S
C2165 C2164 1.386 . S
C2165 C2169 1.393 . S
C2166 H2158 0.950 . S
C2166 C2164 1.391 . S
C2166 C2167 1.400 . S
C2167 C2166 1.400 . S
C2167 C2168 1.398 . S
C2167 C2173 1.491 . S
C2168 H2159 0.950 . S
C2168 C2167 1.398 . S
C2168 C2169 1.391 . S
C2169 H2157 0.950 . S
C2169 C2165 1.393 . S
C2169 C2168 1.391 . S
C2170 H2160 0.950 . S
C2170 C2171 1.386 . S
C2170 C2172 1.391 . S
C2171 C2170 1.386 . S
C2171 C2175 1.393 . S
C2172 H2161 0.950 . S
C2172 C2170 1.391 . S
C2172 C2173 1.400 . S
C2173 C2167 1.491 . S
C2173 C2172 1.400 . S
C2173 C2174 1.398 . S
C2174 H2162 0.950 . S
C2174 C2173 1.398 . S
C2174 C2175 1.391 . S
C2175 H2163 0.950 . S
C2175 C2171 1.393 . S
C2175 C2174 1.391 . S
H2176 C2184 0.950 . S
H2177 C2189 0.950 . S
H2178 C2186 0.950 . S
H2179 C2188 0.950 . S
H2180 C2190 0.950 . S
H2181 C2192 0.950 . S
H2182 C2194 0.950 . S
H2183 C2195 0.950 1_554 S
C2184 H2176 0.950 . S
C2184 C2185 1.386 . S
C2184 C2186 1.391 . S
C2185 C2184 1.386 . S
C2185 C2189 1.393 . S
C2186 H2178 0.950 . S
C2186 C2184 1.391 . S
C2186 C2187 1.400 . S
C2187 C2186 1.400 . S
C2187 C2188 1.398 . S
C2187 C2193 1.491 . S
C2188 H2179 0.950 . S
C2188 C2187 1.398 . S
C2188 C2189 1.391 . S
C2189 H2177 0.950 . S
C2189 C2185 1.393 . S
C2189 C2188 1.391 . S
C2190 H2180 0.950 . S
C2190 C2191 1.386 . S
C2190 C2192 1.391 . S
C2191 C2190 1.386 . S
C2191 C2195 1.393 . S
C2192 H2181 0.950 . S
C2192 C2190 1.391 . S
C2192 C2193 1.400 . S
C2193 C2187 1.491 . S
C2193 C2192 1.400 . S
C2193 C2194 1.398 . S
C2194 H2182 0.950 . S
C2194 C2193 1.398 . S
C2194 C2195 1.391 . S
C2195 H2183 0.950 1_556 S
C2195 C2191 1.393 . S
C2195 C2194 1.391 . S
H2196 C2204 0.950 . S
H2197 C2209 0.950 . S
H2198 C2206 0.950 . S
H2199 C2208 0.950 . S
H2200 C2210 0.950 . S
H2201 C2212 0.950 . S
H2202 C2214 0.950 . S
H2203 C2215 0.950 . S
C2204 H2196 0.950 . S
C2204 C2205 1.386 . S
C2204 C2206 1.391 . S
C2205 C2204 1.386 . S
C2205 C2209 1.393 . S
C2206 H2198 0.950 . S
C2206 C2204 1.391 . S
C2206 C2207 1.400 . S
C2207 C2206 1.400 . S
C2207 C2208 1.398 . S
C2207 C2213 1.491 . S
C2208 H2199 0.950 . S
C2208 C2207 1.398 . S
C2208 C2209 1.391 . S
C2209 H2197 0.950 . S
C2209 C2205 1.393 . S
C2209 C2208 1.391 . S
C2210 H2200 0.950 . S
C2210 C2211 1.386 . S
C2210 C2212 1.391 . S
C2211 C2210 1.386 . S
C2211 C2215 1.393 . S
C2212 H2201 0.950 . S
C2212 C2210 1.391 . S
C2212 C2213 1.400 . S
C2213 C2207 1.491 . S
C2213 C2212 1.400 . S
C2213 C2214 1.398 . S
C2214 H2202 0.950 . S
C2214 C2213 1.398 . S
C2214 C2215 1.391 . S
C2215 H2203 0.950 . S
C2215 C2211 1.393 . S
C2215 C2214 1.391 . S
H2216 C2224 0.950 . S
H2217 C2229 0.950 1_655 S
H2218 C2226 0.950 . S
H2219 C2228 0.950 1_655 S
H2220 C2230 0.950 . S
H2221 C2232 0.976 . S
H2222 C2234 0.950 . S
H2223 C2235 0.950 . S
C2224 H2216 0.950 . S
C2224 C2225 1.386 . S
C2224 C2226 1.391 . S
C2225 C2224 1.386 . S
C2225 C2229 1.393 . S
C2226 H2218 0.950 . S
C2226 C2224 1.391 . S
C2226 C2227 1.400 . S
C2227 C2226 1.400 . S
C2227 C2228 1.398 . S
C2227 C2233 1.491 . S
C2228 H2219 0.950 1_455 S
C2228 C2227 1.398 . S
C2228 C2229 1.391 . S
C2229 H2217 0.950 1_455 S
C2229 C2225 1.393 . S
C2229 C2228 1.391 . S
C2230 H2220 0.950 . S
C2230 C2231 1.386 1_655 S
C2230 C2232 1.402 . S
C2231 C2230 1.386 1_455 S
C2231 C2235 1.393 . S
C2232 H2221 0.976 . S
C2232 C2230 1.402 . S
C2232 C2233 1.365 1_655 S
C2233 C2227 1.491 . S
C2233 C2232 1.365 1_455 S
C2233 C2234 1.398 . S
C2234 H2222 0.950 . S
C2234 C2233 1.398 . S
C2234 C2235 1.391 . S
C2235 H2223 0.950 . S
C2235 C2231 1.393 . S
C2235 C2234 1.391 . S
H2236 C2244 0.950 . S
H2237 C2249 0.950 . S
H2238 C2246 0.950 . S
H2239 C2248 0.950 . S
H2240 C2250 0.950 . S
H2241 C2252 0.950 . S
H2242 C2254 0.950 . S
H2243 C2255 0.950 . S
C2244 H2236 0.950 . S
C2244 C2245 1.386 . S
C2244 C2246 1.391 . S
C2245 C2244 1.386 . S
C2245 C2249 1.393 . S
C2246 H2238 0.950 . S
C2246 C2244 1.391 . S
C2246 C2247 1.400 . S
C2247 C2246 1.400 . S
C2247 C2248 1.398 . S
C2247 C2253 1.491 . S
C2248 H2239 0.950 . S
C2248 C2247 1.398 . S
C2248 C2249 1.391 . S
C2249 H2237 0.950 . S
C2249 C2245 1.393 . S
C2249 C2248 1.391 . S
C2250 H2240 0.950 . S
C2250 C2251 1.386 . S
C2250 C2252 1.391 . S
C2251 C2250 1.386 . S
C2251 C2255 1.393 . S
C2252 H2241 0.950 . S
C2252 C2250 1.391 . S
C2252 C2253 1.400 . S
C2253 C2247 1.491 . S
C2253 C2252 1.400 . S
C2253 C2254 1.398 . S
C2254 H2242 0.950 . S
C2254 C2253 1.398 . S
C2254 C2255 1.391 . S
C2255 H2243 0.950 . S
C2255 C2251 1.393 . S
C2255 C2254 1.391 . S
H2256 C2264 0.950 . S
H2257 C2269 0.950 . S
H2258 C2266 0.950 . S
H2259 C2268 0.950 . S
H2260 C2270 0.950 . S
H2261 C2272 0.950 . S
H2262 C2274 0.950 . S
H2263 C2275 0.950 . S
C2264 H2256 0.950 . S
C2264 C2265 1.386 . S
C2264 C2266 1.391 . S
C2265 C2264 1.386 . S
C2265 C2269 1.393 . S
C2266 H2258 0.950 . S
C2266 C2264 1.391 . S
C2266 C2267 1.400 . S
C2267 C2266 1.400 . S
C2267 C2268 1.398 . S
C2267 C2273 1.491 . S
C2268 H2259 0.950 . S
C2268 C2267 1.398 . S
C2268 C2269 1.391 . S
C2269 H2257 0.950 . S
C2269 C2265 1.393 . S
C2269 C2268 1.391 . S
C2270 H2260 0.950 . S
C2270 C2271 1.386 . S
C2270 C2272 1.391 . S
C2271 C2270 1.386 . S
C2271 C2275 1.393 . S
C2272 H2261 0.950 . S
C2272 C2270 1.391 . S
C2272 C2273 1.400 . S
C2273 C2267 1.491 . S
C2273 C2272 1.400 . S
C2273 C2274 1.398 . S
C2274 H2262 0.950 . S
C2274 C2273 1.398 . S
C2274 C2275 1.391 . S
C2275 H2263 0.950 . S
C2275 C2271 1.393 . S
C2275 C2274 1.391 . S
H2276 C2284 0.950 . S
H2277 C2289 0.950 . S
H2278 C2286 0.950 . S
H2279 C2288 0.950 . S
H2280 C2290 0.950 . S
H2281 C2292 0.950 . S
H2282 C2294 0.950 . S
H2283 C2295 0.950 . S
C2284 H2276 0.950 . S
C2284 C2285 1.386 . S
C2284 C2286 1.391 . S
C2285 C2284 1.386 . S
C2285 C2289 1.393 . S
C2286 H2278 0.950 . S
C2286 C2284 1.391 . S
C2286 C2287 1.400 . S
C2287 C2286 1.400 . S
C2287 C2288 1.398 . S
C2287 C2293 1.491 . S
C2288 H2279 0.950 . S
C2288 C2287 1.398 . S
C2288 C2289 1.391 . S
C2289 H2277 0.950 . S
C2289 C2285 1.393 . S
C2289 C2288 1.391 . S
C2290 H2280 0.950 . S
C2290 C2291 1.386 . S
C2290 C2292 1.391 . S
C2291 C2290 1.386 . S
C2291 C2295 1.393 . S
C2292 H2281 0.950 . S
C2292 C2290 1.391 . S
C2292 C2293 1.400 . S
C2293 C2287 1.491 . S
C2293 C2292 1.400 . S
C2293 C2294 1.398 . S
C2294 H2282 0.950 . S
C2294 C2293 1.398 . S
C2294 C2295 1.391 . S
C2295 H2283 0.950 . S
C2295 C2291 1.393 . S
C2295 C2294 1.391 . S
H2296 C2304 0.950 . S
H2297 C2309 0.950 . S
H2298 C2306 0.950 . S
H2299 C2308 0.950 . S
H2300 C2310 0.924 1_455 S
H2301 C2312 0.950 . S
H2302 C2314 0.950 . S
H2303 C2315 0.950 . S
C2304 H2296 0.950 . S
C2304 C2305 1.386 . S
C2304 C2306 1.391 . S
C2305 C2304 1.386 . S
C2305 C2309 1.393 . S
C2306 H2298 0.950 . S
C2306 C2304 1.391 . S
C2306 C2307 1.400 . S
C2307 C2306 1.400 . S
C2307 C2308 1.398 . S
C2307 C2313 1.491 . S
C2308 H2299 0.950 . S
C2308 C2307 1.398 . S
C2308 C2309 1.391 . S
C2309 H2297 0.950 . S
C2309 C2305 1.393 . S
C2309 C2308 1.391 . S
C2310 H2300 0.924 1_655 S
C2310 C2311 1.386 . S
C2310 C2312 1.391 . S
C2311 C2310 1.386 . S
C2311 C2315 1.393 . S
C2312 H2301 0.950 . S
C2312 C2310 1.391 . S
C2312 C2313 1.400 . S
C2313 C2307 1.491 . S
C2313 C2312 1.400 . S
C2313 C2314 1.398 . S
C2314 H2302 0.950 . S
C2314 C2313 1.398 . S
C2314 C2315 1.391 . S
C2315 H2303 0.950 . S
C2315 C2311 1.393 . S
C2315 C2314 1.391 . S
H2316 C2324 0.950 . S
H2317 C2329 0.950 . S
H2318 C2326 0.950 . S
H2319 C2328 0.950 . S
H2320 C2330 0.950 . S
H2321 C2332 0.950 . S
H2322 C2334 0.950 . S
H2323 C2335 0.950 . S
C2324 H2316 0.950 . S
C2324 C2325 1.386 . S
C2324 C2326 1.391 . S
C2325 C2324 1.386 . S
C2325 C2329 1.393 . S
C2326 H2318 0.950 . S
C2326 C2324 1.391 . S
C2326 C2327 1.400 . S
C2327 C2326 1.400 . S
C2327 C2328 1.398 . S
C2327 C2333 1.491 . S
C2328 H2319 0.950 . S
C2328 C2327 1.398 . S
C2328 C2329 1.391 . S
C2329 H2317 0.950 . S
C2329 C2325 1.393 . S
C2329 C2328 1.391 . S
C2330 H2320 0.950 . S
C2330 C2331 1.386 . S
C2330 C2332 1.391 . S
C2331 C2330 1.386 . S
C2331 C2335 1.393 . S
C2332 H2321 0.950 . S
C2332 C2330 1.391 . S
C2332 C2333 1.400 . S
C2333 C2327 1.491 . S
C2333 C2332 1.400 . S
C2333 C2334 1.398 . S
C2334 H2322 0.950 . S
C2334 C2333 1.398 . S
C2334 C2335 1.391 . S
C2335 H2323 0.950 . S
C2335 C2331 1.393 . S
C2335 C2334 1.391 . S
H2336 C2344 0.950 . S
H2337 C2349 0.950 . S
H2338 C2346 0.950 . S
H2339 C2348 0.950 . S
H2340 C2350 0.950 . S
H2341 C2352 0.950 . S
H2342 C2354 0.950 . S
H2343 C2355 0.950 . S
C2344 H2336 0.950 . S
C2344 C2345 1.386 . S
C2344 C2346 1.391 . S
C2345 C2344 1.386 . S
C2345 C2349 1.393 . S
C2346 H2338 0.950 . S
C2346 C2344 1.391 . S
C2346 C2347 1.400 . S
C2347 C2346 1.400 . S
C2347 C2348 1.398 . S
C2347 C2353 1.491 . S
C2348 H2339 0.950 . S
C2348 C2347 1.398 . S
C2348 C2349 1.391 . S
C2349 H2337 0.950 . S
C2349 C2345 1.393 . S
C2349 C2348 1.391 . S
C2350 H2340 0.950 . S
C2350 C2351 1.386 . S
C2350 C2352 1.391 . S
C2351 C2350 1.386 . S
C2351 C2355 1.393 . S
C2352 H2341 0.950 . S
C2352 C2350 1.391 . S
C2352 C2353 1.400 . S
C2353 C2347 1.491 . S
C2353 C2352 1.400 . S
C2353 C2354 1.398 . S
C2354 H2342 0.950 . S
C2354 C2353 1.398 . S
C2354 C2355 1.391 . S
C2355 H2343 0.950 . S
C2355 C2351 1.393 . S
C2355 C2354 1.391 . S
H2356 C2364 0.950 . S
H2357 C2369 0.950 . S
H2358 C2366 0.950 . S
H2359 C2368 0.950 . S
H2360 C2370 0.950 . S
H2361 C2372 0.950 . S
H2362 C2374 0.950 . S
H2363 C2375 0.950 . S
C2364 H2356 0.950 . S
C2364 C2365 1.386 . S
C2364 C2366 1.391 . S
C2365 C2364 1.386 . S
C2365 C2369 1.393 . S
C2366 H2358 0.950 . S
C2366 C2364 1.391 . S
C2366 C2367 1.400 . S
C2367 C2366 1.400 . S
C2367 C2368 1.398 . S
C2367 C2373 1.491 . S
C2368 H2359 0.950 . S
C2368 C2367 1.398 . S
C2368 C2369 1.391 . S
C2369 H2357 0.950 . S
C2369 C2365 1.393 . S
C2369 C2368 1.391 . S
C2370 H2360 0.950 . S
C2370 C2371 1.386 . S
C2370 C2372 1.391 . S
C2371 C2370 1.386 . S
C2371 C2375 1.393 . S
C2372 H2361 0.950 . S
C2372 C2370 1.391 . S
C2372 C2373 1.400 . S
C2373 C2367 1.491 . S
C2373 C2372 1.400 . S
C2373 C2374 1.398 . S
C2374 H2362 0.950 . S
C2374 C2373 1.398 . S
C2374 C2375 1.391 . S
C2375 H2363 0.950 . S
C2375 C2371 1.393 . S
C2375 C2374 1.391 . S
H2376 C2384 0.950 . S
H2377 C2389 0.950 . S
H2378 C2386 0.950 . S
H2379 C2388 0.950 . S
H2380 C2390 0.950 . S
H2381 C2392 0.950 . S
H2382 C2394 0.950 . S
H2383 C2395 0.950 1_455 S
C2384 H2376 0.950 . S
C2384 C2385 1.386 . S
C2384 C2386 1.391 . S
C2385 C2384 1.386 . S
C2385 C2389 1.393 . S
C2386 H2378 0.950 . S
C2386 C2384 1.391 . S
C2386 C2387 1.400 . S
C2387 C2386 1.400 . S
C2387 C2388 1.398 . S
C2387 C2393 1.491 . S
C2388 H2379 0.950 . S
C2388 C2387 1.398 . S
C2388 C2389 1.391 . S
C2389 H2377 0.950 . S
C2389 C2385 1.393 . S
C2389 C2388 1.391 . S
C2390 H2380 0.950 . S
C2390 C2391 1.386 . S
C2390 C2392 1.391 . S
C2391 C2390 1.386 . S
C2391 C2395 1.393 . S
C2392 H2381 0.950 . S
C2392 C2390 1.391 . S
C2392 C2393 1.400 . S
C2393 C2387 1.491 . S
C2393 C2392 1.400 . S
C2393 C2394 1.398 . S
C2394 H2382 0.950 . S
C2394 C2393 1.398 . S
C2394 C2395 1.391 . S
C2395 H2383 0.950 1_655 S
C2395 C2391 1.393 . S
C2395 C2394 1.391 . S
H2396 C2404 0.950 . S
H2397 C2409 0.950 . S
H2398 C2406 0.950 . S
H2399 C2408 0.950 . S
H2400 C2410 0.950 . S
H2401 C2412 0.950 . S
H2402 C2414 0.950 . S
H2403 C2415 0.950 . S
C2404 H2396 0.950 . S
C2404 C2405 1.386 . S
C2404 C2406 1.391 . S
C2405 C2404 1.386 . S
C2405 C2409 1.393 . S
C2406 H2398 0.950 . S
C2406 C2404 1.391 . S
C2406 C2407 1.400 . S
C2407 C2406 1.400 . S
C2407 C2408 1.398 . S
C2407 C2413 1.491 . S
C2408 H2399 0.950 . S
C2408 C2407 1.398 . S
C2408 C2409 1.391 . S
C2409 H2397 0.950 . S
C2409 C2405 1.393 . S
C2409 C2408 1.391 . S
C2410 H2400 0.950 . S
C2410 C2411 1.386 . S
C2410 C2412 1.391 . S
C2411 C2410 1.386 . S
C2411 C2415 1.393 . S
C2412 H2401 0.950 . S
C2412 C2410 1.391 . S
C2412 C2413 1.400 . S
C2413 C2407 1.491 . S
C2413 C2412 1.400 . S
C2413 C2414 1.398 . S
C2414 H2402 0.950 . S
C2414 C2413 1.398 . S
C2414 C2415 1.391 . S
C2415 H2403 0.950 . S
C2415 C2411 1.393 . S
C2415 C2414 1.391 . S
H2416 C2424 0.950 . S
H2417 C2429 0.950 . S
H2418 C2426 0.950 . S
H2419 C2428 0.950 . S
H2420 C2430 0.950 . S
H2421 C2432 0.950 . S
H2422 C2434 0.950 . S
H2423 C2435 0.950 . S
C2424 H2416 0.950 . S
C2424 C2425 1.386 . S
C2424 C2426 1.391 . S
C2425 C2424 1.386 . S
C2425 C2429 1.393 . S
C2426 H2418 0.950 . S
C2426 C2424 1.391 . S
C2426 C2427 1.400 . S
C2427 C2426 1.400 . S
C2427 C2428 1.398 . S
C2427 C2433 1.491 . S
C2428 H2419 0.950 . S
C2428 C2427 1.398 . S
C2428 C2429 1.391 . S
C2429 H2417 0.950 . S
C2429 C2425 1.393 . S
C2429 C2428 1.391 . S
C2430 H2420 0.950 . S
C2430 C2431 1.386 . S
C2430 C2432 1.391 . S
C2431 C2430 1.386 . S
C2431 C2435 1.393 . S
C2432 H2421 0.950 . S
C2432 C2430 1.391 . S
C2432 C2433 1.400 . S
C2433 C2427 1.491 . S
C2433 C2432 1.400 . S
C2433 C2434 1.398 . S
C2434 H2422 0.950 . S
C2434 C2433 1.398 . S
C2434 C2435 1.391 . S
C2435 H2423 0.950 . S
C2435 C2431 1.393 . S
C2435 C2434 1.391 . S
H2436 C2444 0.950 . S
H2437 C2449 0.950 . S
H2438 C2446 0.950 . S
H2439 C2448 0.950 . S
H2440 C2450 0.950 . S
H2441 C2452 0.950 . S
H2442 C2454 0.950 . S
H2443 C2455 0.950 1_545 S
C2444 H2436 0.950 . S
C2444 C2445 1.386 . S
C2444 C2446 1.391 . S
C2445 C2444 1.386 . S
C2445 C2449 1.393 . S
C2446 H2438 0.950 . S
C2446 C2444 1.391 . S
C2446 C2447 1.400 . S
C2447 C2446 1.400 . S
C2447 C2448 1.398 . S
C2447 C2453 1.491 . S
C2448 H2439 0.950 . S
C2448 C2447 1.398 . S
C2448 C2449 1.391 . S
C2449 H2437 0.950 . S
C2449 C2445 1.393 . S
C2449 C2448 1.391 . S
C2450 H2440 0.950 . S
C2450 C2451 1.386 . S
C2450 C2452 1.391 . S
C2451 C2450 1.386 . S
C2451 C2455 1.393 . S
C2452 H2441 0.950 . S
C2452 C2450 1.391 . S
C2452 C2453 1.400 . S
C2453 C2447 1.491 . S
C2453 C2452 1.400 . S
C2453 C2454 1.398 . S
C2454 H2442 0.950 . S
C2454 C2453 1.398 . S
C2454 C2455 1.391 . S
C2455 H2443 0.950 1_565 S
C2455 C2451 1.393 . S
C2455 C2454 1.391 . S
H2456 C2464 0.950 . S
H2457 C2469 0.950 . S
H2458 C2466 0.950 . S
H2459 C2468 0.950 . S
H2460 C2470 0.950 . S
H2461 C2472 0.950 . S
H2462 C2474 0.950 . S
H2463 C2475 0.950 . S
C2464 H2456 0.950 . S
C2464 C2465 1.386 . S
C2464 C2466 1.391 . S
C2465 C2464 1.386 . S
C2465 C2469 1.393 . S
C2466 H2458 0.950 . S
C2466 C2464 1.391 . S
C2466 C2467 1.400 . S
C2467 C2466 1.400 . S
C2467 C2468 1.398 . S
C2467 C2473 1.491 . S
C2468 H2459 0.950 . S
C2468 C2467 1.398 . S
C2468 C2469 1.391 . S
C2469 H2457 0.950 . S
C2469 C2465 1.393 . S
C2469 C2468 1.391 . S
C2470 H2460 0.950 . S
C2470 C2471 1.386 . S
C2470 C2472 1.391 . S
C2471 C2470 1.386 . S
C2471 C2475 1.393 . S
C2472 H2461 0.950 . S
C2472 C2470 1.391 . S
C2472 C2473 1.400 . S
C2473 C2467 1.491 . S
C2473 C2472 1.400 . S
C2473 C2474 1.398 . S
C2474 H2462 0.950 . S
C2474 C2473 1.398 . S
C2474 C2475 1.391 . S
C2475 H2463 0.950 . S
C2475 C2471 1.393 . S
C2475 C2474 1.391 . S
H2476 C2484 0.950 . S
H2477 C2489 0.950 . S
H2478 C2486 0.950 . S
H2479 C2488 0.950 . S
H2480 C2490 0.950 . S
H2481 C2492 0.950 . S
H2482 C2494 0.950 . S
H2483 C2495 0.950 . S
C2484 H2476 0.950 . S
C2484 C2485 1.386 1_554 S
C2484 C2486 1.391 . S
C2485 C2484 1.386 1_556 S
C2485 C2489 1.393 . S
C2486 H2478 0.950 . S
C2486 C2484 1.391 . S
C2486 C2487 1.400 . S
C2487 C2486 1.400 . S
C2487 C2488 1.398 1_554 S
C2487 C2493 1.491 . S
C2488 H2479 0.950 . S
C2488 C2487 1.398 1_556 S
C2488 C2489 1.391 . S
C2489 H2477 0.950 . S
C2489 C2485 1.393 . S
C2489 C2488 1.391 . S
C2490 H2480 0.950 . S
C2490 C2491 1.386 1_556 S
C2490 C2492 1.391 . S
C2491 C2490 1.386 1_554 S
C2491 C2495 1.393 . S
C2492 H2481 0.950 . S
C2492 C2490 1.391 . S
C2492 C2493 1.400 1_556 S
C2493 C2487 1.491 . S
C2493 C2492 1.400 1_554 S
C2493 C2494 1.398 . S
C2494 H2482 0.950 . S
C2494 C2493 1.398 . S
C2494 C2495 1.391 . S
C2495 H2483 0.950 . S
C2495 C2491 1.393 . S
C2495 C2494 1.391 . S
H2496 C2504 0.950 . S
H2497 C2509 0.950 . S
H2498 C2506 0.950 . S
H2499 C2508 0.950 . S
H2500 C2510 0.950 . S
H2501 C2512 0.950 . S
H2502 C2514 0.950 . S
H2503 C2515 0.950 . S
C2504 H2496 0.950 . S
C2504 C2505 1.386 . S
C2504 C2506 1.391 . S
C2505 C2504 1.386 . S
C2505 C2509 1.393 . S
C2506 H2498 0.950 . S
C2506 C2504 1.391 . S
C2506 C2507 1.400 . S
C2507 C2506 1.400 . S
C2507 C2508 1.398 . S
C2507 C2513 1.491 . S
C2508 H2499 0.950 . S
C2508 C2507 1.398 . S
C2508 C2509 1.391 . S
C2509 H2497 0.950 . S
C2509 C2505 1.393 . S
C2509 C2508 1.391 . S
C2510 H2500 0.950 . S
C2510 C2511 1.386 . S
C2510 C2512 1.391 . S
C2511 C2510 1.386 . S
C2511 C2515 1.393 . S
C2512 H2501 0.950 . S
C2512 C2510 1.391 . S
C2512 C2513 1.400 . S
C2513 C2507 1.491 . S
C2513 C2512 1.400 . S
C2513 C2514 1.398 . S
C2514 H2502 0.950 . S
C2514 C2513 1.398 . S
C2514 C2515 1.391 . S
C2515 H2503 0.950 . S
C2515 C2511 1.393 . S
C2515 C2514 1.391 . S
H2516 C2524 0.950 . S
H2517 C2529 0.950 . S
H2518 C2526 0.950 . S
H2519 C2528 0.950 1_556 S
H2520 C2530 0.950 . S
H2521 C2532 0.950 . S
H2522 C2534 0.950 . S
H2523 C2535 0.950 . S
C2524 H2516 0.950 . S
C2524 C2525 1.386 . S
C2524 C2526 1.391 . S
C2525 C2524 1.386 . S
C2525 C2529 1.393 . S
C2526 H2518 0.950 . S
C2526 C2524 1.391 . S
C2526 C2527 1.400 . S
C2527 C2526 1.400 . S
C2527 C2528 1.398 . S
C2527 C2533 1.491 . S
C2528 H2519 0.950 1_554 S
C2528 C2527 1.398 . S
C2528 C2529 1.391 . S
C2529 H2517 0.950 . S
C2529 C2525 1.393 . S
C2529 C2528 1.391 . S
C2530 H2520 0.950 . S
C2530 C2531 1.389 . S
C2530 C2532 1.391 . S
C2531 C2530 1.389 . S
C2531 C2535 1.387 1_556 S
C2532 H2521 0.950 . S
C2532 C2530 1.391 . S
C2532 C2533 1.400 1_556 S
C2533 C2527 1.491 . S
C2533 C2532 1.400 1_554 S
C2533 C2534 1.398 . S
C2534 H2522 0.950 . S
C2534 C2533 1.398 . S
C2534 C2535 1.391 . S
C2535 H2523 0.950 . S
C2535 C2531 1.387 1_554 S
C2535 C2534 1.391 . S
H2536 C2544 0.950 . S
H2537 C2549 0.950 . S
H2538 C2546 0.950 . S
H2539 C2548 0.950 . S
H2540 C2550 0.950 . S
H2541 C2552 0.950 . S
H2542 C2554 0.950 . S
H2543 C2555 0.950 . S
C2544 H2536 0.950 . S
C2544 C2545 1.386 . S
C2544 C2546 1.391 . S
C2545 C2544 1.386 . S
C2545 C2549 1.393 . S
C2546 H2538 0.950 . S
C2546 C2544 1.391 . S
C2546 C2547 1.400 . S
C2547 C2546 1.400 . S
C2547 C2548 1.398 . S
C2547 C2553 1.491 . S
C2548 H2539 0.950 . S
C2548 C2547 1.398 . S
C2548 C2549 1.391 . S
C2549 H2537 0.950 . S
C2549 C2545 1.393 . S
C2549 C2548 1.391 . S
C2550 H2540 0.950 . S
C2550 C2551 1.386 . S
C2550 C2552 1.391 . S
C2551 C2550 1.386 . S
C2551 C2555 1.393 . S
C2552 H2541 0.950 . S
C2552 C2550 1.391 . S
C2552 C2553 1.400 . S
C2553 C2547 1.491 . S
C2553 C2552 1.400 . S
C2553 C2554 1.398 . S
C2554 H2542 0.950 . S
C2554 C2553 1.398 . S
C2554 C2555 1.391 . S
C2555 H2543 0.950 . S
C2555 C2551 1.393 . S
C2555 C2554 1.391 . S
H2556 C2564 0.950 . S
H2557 C2569 0.950 . S
H2558 C2566 0.950 . S
H2559 C2568 0.950 . S
H2560 C2570 0.950 . S
H2561 C2572 0.950 . S
H2562 C2574 0.950 . S
H2563 C2575 0.950 . S
C2564 H2556 0.950 . S
C2564 C2565 1.386 . S
C2564 C2566 1.391 . S
C2565 C2564 1.386 . S
C2565 C2569 1.393 . S
C2566 H2558 0.950 . S
C2566 C2564 1.391 . S
C2566 C2567 1.400 . S
C2567 C2566 1.400 . S
C2567 C2568 1.398 . S
C2567 C2573 1.491 . S
C2568 H2559 0.950 . S
C2568 C2567 1.398 . S
C2568 C2569 1.391 . S
C2569 H2557 0.950 . S
C2569 C2565 1.393 . S
C2569 C2568 1.391 . S
C2570 H2560 0.950 . S
C2570 C2571 1.386 . S
C2570 C2572 1.391 . S
C2571 C2570 1.386 . S
C2571 C2575 1.393 . S
C2572 H2561 0.950 . S
C2572 C2570 1.391 . S
C2572 C2573 1.400 . S
C2573 C2567 1.491 . S
C2573 C2572 1.400 . S
C2573 C2574 1.398 . S
C2574 H2562 0.950 . S
C2574 C2573 1.398 . S
C2574 C2575 1.391 . S
C2575 H2563 0.950 . S
C2575 C2571 1.393 . S
C2575 C2574 1.391 . S
C665 C109 1.212 . S
C671 C352 1.196 1_556 S
C685 C65 1.304 . S
C691 C365 1.284 . S
C705 C75 1.348 . S
C711 C384 1.322 . S
C731 C415 1.920 . S
C725 C84 1.971 . S
C745 C25 1.726 . S
C751 C435 1.697 . S
C771 C452 0.833 . S
C765 C28 0.857 . S
C791 C465 1.506 . S
C785 C47 1.510 . S
C805 C9 1.045 . S
C811 C492 1.018 . S
C831 C345 1.275 . S
C825 C233 1.289 . S
C845 C249 1.434 . S
C851 C375 1.409 . S
C871 C377 1.712 . S
C865 C275 1.765 . S
C891 C412 0.859 . S
C885 C173 0.866 . S
C905 C224 1.157 . S
C911 C432 1.162 . S
C931 C445 1.775 . S
C925 C243 1.772 . S
C951 C475 1.258 . S
C945 C266 1.291 . S
C971 C485 1.144 . S
C965 C179 1.150 . S
C991 C355 1.599 1_565 S
C985 C163 1.651 . S
C1005 C289 1.784 . S
C1011 C505 1.763 . S
C1031 C535 1.574 . S
C1025 C333 1.565 . S
C1051 C552 1.131 . S
C1045 C308 1.154 . S
C1065 C123 1.925 . S
C1071 C495 1.908 . S
C1085 C126 1.280 . S
C1091 C382 1.251 . S
C1105 C327 1.875 . S
C1111 C565 1.862 . S
C1131 C592 1.044 . S
C1125 C299 1.046 . S
C1151 C342 1.213 . S
C1145 C67 1.239 . S
C1171 C577 1.297 . S
C1165 C98 1.321 . S
C1185 C89 1.371 . S
C1191 C395 1.343 . S
C1205 C79 2.002 . S
C1211 C564 1.966 . S
C1231 C424 1.717 . S
C1225 C11 1.749 . S
C1245 C51 0.871 . S
C1251 C522 0.843 . S
C1271 C457 1.529 1_556 S
C1265 C33 1.532 . S
C1291 C602 1.028 . S
C1285 C14 1.044 . S
C1311 C337 1.241 . S
C1305 C140 1.269 . S
C1331 C584 1.443 . S
C1325 C319 1.448 . S
C1345 C112 1.752 . S
C1351 C385 1.722 . S
C1365 C285 0.886 . S
C1371 C562 0.899 . S
C1385 C149 1.214 . S
C1391 C422 1.186 . S
C1411 C517 1.805 . S
C1405 C313 1.806 . S
C1425 C121 1.359 . S
C1431 C464 1.314 . S
C1445 C291 1.175 . S
C1451 C597 1.169 . S
C1465 C182 1.654 . S
C1471 C344 1.622 . S
C1485 C168 1.780 . S
C1491 C497 1.777 . S
C1505 C263 1.621 . S
C1511 C444 1.619 . S
C1525 C247 1.213 . S
C1531 C542 1.178 . S
C1551 C604 1.905 . S
C1545 C277 1.930 . S
C1565 C219 1.316 . S
C1571 C392 1.287 . S
C1591 C397 1.890 . S
C1585 C257 1.911 . S
C1611 C362 1.029 . S
C1605 C201 1.041 . S
C1625 C81 1.224 . S
C1631 C632 1.207 . S
C1651 C585 1.295 . S
C1645 C93 1.306 . S
C1665 C103 1.345 . S
C1671 C644 1.317 1_456 S
C1685 C56 1.969 . S
C1691 C575 1.927 . S
C1705 C53 1.724 . S
C1711 C515 1.701 . S
C1731 C532 0.840 . S
C1725 C0 0.828 . S
C1751 C545 1.504 1_655 S
C1745 C19 1.511 . S
C1771 C612 1.009 . S
C1765 C37 1.034 . S
C1791 C625 1.258 . S
C1785 C261 1.288 . S
C1805 C193 1.423 . S
C1811 C595 1.432 . S
C1831 C637 1.710 . S
C1825 C205 1.765 . S
C1851 C572 0.872 . S
C1845 C215 0.872 . S
C1871 C512 1.163 . S
C1865 C252 1.175 . S
C1885 C187 1.770 . S
C1891 C525 1.773 . S
C1911 C555 1.260 . S
C1905 C196 1.296 . S
C1925 C221 1.148 . S
C1931 C605 1.143 . S
C1951 C635 1.629 . S
C1945 C317 1.650 . S
C1965 C135 1.785 . S
C1971 C425 1.770 . S
C1991 C455 1.577 . S
C1985 C151 1.569 . S
C2011 C472 1.138 . S
C2005 C154 1.164 . S
C2031 C615 1.918 . S
C2025 C305 1.917 . S
C2045 C280 1.267 . S
C2051 C642 1.236 . S
C2071 C405 1.858 . S
C2065 C145 1.869 . S
C2091 C372 1.038 . S
C2085 C117 1.056 . S
C2105 C95 1.239 . S
C2111 C622 1.207 . S
C2131 C357 1.315 . S
C2125 C70 1.312 . S
C2145 C61 1.364 . S
C2151 C655 1.356 . S
C2165 C107 2.004 . S
C2171 C404 1.971 . S
C2185 C39 1.747 . S
C2191 C504 1.723 1_556 S
C2211 C442 0.874 . S
C2205 C23 0.860 . S
C2225 C5 1.538 . S
C2231 C537 1.527 . S
C2245 C42 1.024 . S
C2251 C482 0.993 . S
C2271 C617 1.250 . S
C2265 C322 1.257 . S
C2285 C165 1.459 . S
C2291 C364 1.426 . S
C2311 C645 1.728 . S
C2305 C294 1.755 . S
C2325 C131 0.881 . S
C2331 C402 0.895 . S
C2345 C331 1.214 . S
C2351 C502 1.189 . S
C2371 C437 1.805 . S
C2365 C159 1.805 . S
C2385 C303 1.361 . S
C2391 C544 1.324 . S
C2411 C477 1.158 . S
C2405 C137 1.181 . S
C2431 C624 1.620 . S
C2425 C238 1.655 . S
C2451 C417 1.774 1_565 S
C2445 C210 1.783 . S
C2465 C235 1.624 . S
C2471 C524 1.607 . S
C2491 C462 1.198 . S
C2485 C191 1.207 . S
C2505 C207 1.927 . S
C2511 C484 1.910 . S
C2525 C177 1.315 . S
C2531 C652 1.259 1_556 S
C2551 C557 1.890 . S
C2545 C229 1.911 1_565 S
C2571 C582 1.013 . S
C2565 C271 1.048 . S
