# Generated by pormake.
# Topology pyr, (3,6)-cn, num edge types: 1
# Building blocks:
#     Node 0, Type 0, BuildingBlock: OLANEW_clean_sbu_2, # of connection points: 3
#     Node 1, Type 0, BuildingBlock: OLANEW_clean_sbu_2, # of connection points: 3
#     Node 2, Type 0, BuildingBlock: OLANEW_clean_sbu_2, # of connection points: 3
#     Node 3, Type 0, BuildingBlock: OLANEW_clean_sbu_2, # of connection points: 3
#     Node 4, Type 0, BuildingBlock: OLANEW_clean_sbu_2, # of connection points: 3
#     Node 5, Type 0, BuildingBlock: OLANEW_clean_sbu_2, # of connection points: 3
#     Node 6, Type 0, BuildingBlock: OLANEW_clean_sbu_2, # of connection points: 3
#     Node 7, Type 0, BuildingBlock: OLANEW_clean_sbu_2, # of connection points: 3
#     Node 8, Type 1, BuildingBlock: MIFKUJ_clean_sbu_0, # of connection points: 6
#     Node 9, Type 1, BuildingBlock: MIFKUJ_clean_sbu_0, # of connection points: 6
#     Node 10, Type 1, BuildingBlock: MIFKUJ_clean_sbu_0, # of connection points: 6
#     Node 11, Type 1, BuildingBlock: MIFKUJ_clean_sbu_0, # of connection points: 6
#     Edge 12, Type (0, 1), BuildingBlock: CIFDUS_clean_linker_0, # of connection points: 2
#     Edge 13, Type (0, 1), BuildingBlock: CIFDUS_clean_linker_0, # of connection points: 2
#     Edge 14, Type (0, 1), BuildingBlock: CIFDUS_clean_linker_0, # of connection points: 2
#     Edge 15, Type (0, 1), BuildingBlock: CIFDUS_clean_linker_0, # of connection points: 2
#     Edge 16, Type (0, 1), BuildingBlock: CIFDUS_clean_linker_0, # of connection points: 2
#     Edge 17, Type (0, 1), BuildingBlock: CIFDUS_clean_linker_0, # of connection points: 2
#     Edge 18, Type (0, 1), BuildingBlock: CIFDUS_clean_linker_0, # of connection points: 2
#     Edge 19, Type (0, 1), BuildingBlock: CIFDUS_clean_linker_0, # of connection points: 2
#     Edge 20, Type (0, 1), BuildingBlock: CIFDUS_clean_linker_0, # of connection points: 2
#     Edge 21, Type (0, 1), BuildingBlock: CIFDUS_clean_linker_0, # of connection points: 2
#     Edge 22, Type (0, 1), BuildingBlock: CIFDUS_clean_linker_0, # of connection points: 2
#     Edge 23, Type (0, 1), BuildingBlock: CIFDUS_clean_linker_0, # of connection points: 2
#     Edge 24, Type (0, 1), BuildingBlock: CIFDUS_clean_linker_0, # of connection points: 2
#     Edge 25, Type (0, 1), BuildingBlock: CIFDUS_clean_linker_0, # of connection points: 2
#     Edge 26, Type (0, 1), BuildingBlock: CIFDUS_clean_linker_0, # of connection points: 2
#     Edge 27, Type (0, 1), BuildingBlock: CIFDUS_clean_linker_0, # of connection points: 2
#     Edge 28, Type (0, 1), BuildingBlock: CIFDUS_clean_linker_0, # of connection points: 2
#     Edge 29, Type (0, 1), BuildingBlock: CIFDUS_clean_linker_0, # of connection points: 2
#     Edge 30, Type (0, 1), BuildingBlock: CIFDUS_clean_linker_0, # of connection points: 2
#     Edge 31, Type (0, 1), BuildingBlock: CIFDUS_clean_linker_0, # of connection points: 2
#     Edge 32, Type (0, 1), BuildingBlock: CIFDUS_clean_linker_0, # of connection points: 2
#     Edge 33, Type (0, 1), BuildingBlock: CIFDUS_clean_linker_0, # of connection points: 2
#     Edge 34, Type (0, 1), BuildingBlock: CIFDUS_clean_linker_0, # of connection points: 2
#     Edge 35, Type (0, 1), BuildingBlock: CIFDUS_clean_linker_0, # of connection points: 2
# Relax obj value: 0.076
# Max RMSD: 0.167
# Mean RMSD: 0.122
data_MOF--net-pyr--node1-OLANEW_clean_sbu_2--node2-MIFKUJ_clean_sbu_0--edge1-CIFDUS_clean_linker_0
_symmetry_space_group_name_H-M    P1
_symmetry_Int_Tables_number       1
_symmetry_cell_setting            triclinic
loop_
_symmetry_equiv_pos_as_xyz
'x, y, z'
_cell_length_a     37.334049
_cell_length_b     33.861366
_cell_length_c     35.174926
_cell_angle_alpha  90.129126
_cell_angle_beta   87.728358
_cell_angle_gamma 103.06179
loop_
_atom_site_label
_atom_site_type_symbol
_atom_site_fract_x
_atom_site_fract_y
_atom_site_fract_z
_atom_type_partial_charge
O0 O 0.27508 0.19434 0.18086 0.0
Cd1 Cd 0.21893 0.2128 0.20627 0.0
O2 O 0.27135 0.14934 0.22674 0.0
Cd3 Cd 0.22095 0.15784 0.25574 0.0
O4 O 0.17738 0.13816 0.29935 0.0
C5 C 0.17693 0.10361 0.31366 0.0
O6 O 0.20133 0.08379 0.30081 0.0
C7 C 0.28785 0.16719 0.1971 0.0
C8 C 0.19799 0.27573 0.16789 0.0
O9 O 0.21934 0.28303 0.19596 0.0
O10 O 0.18719 0.23877 0.15749 0.0
O11 O 0.37064 0.88433 0.83354 0.0
Cd12 Cd 0.32717 0.85973 0.78413 0.0
O13 O 0.36527 0.94763 0.83314 0.0
Cd14 Cd 0.32316 0.93467 0.79051 0.0
O15 O 0.27651 0.92589 0.75322 0.0
C16 C 0.24426 0.91676 0.76851 0.0
O17 O 0.24048 0.91221 0.80565 0.0
C18 C 0.37992 0.92027 0.84612 0.0
C19 C 0.35943 0.81351 0.73334 0.0
O20 O 0.34283 0.79808 0.76424 0.0
O21 O 0.3601 0.85071 0.72588 0.0
O22 O 0.71695 0.4697 0.89447 0.0
Cd23 Cd 0.65035 0.44804 0.88562 0.0
O24 O 0.73117 0.41933 0.86221 0.0
Cd25 Cd 0.67348 0.38872 0.85765 0.0
O26 O 0.63392 0.3397 0.88668 0.0
C27 C 0.64565 0.33031 0.91807 0.0
O28 O 0.67761 0.35128 0.92901 0.0
C29 C 0.74114 0.45166 0.88122 0.0
C30 C 0.6235 0.48022 0.82226 0.0
O31 O 0.62827 0.49985 0.85354 0.0
O32 O 0.63224 0.44573 0.82056 0.0
O33 O 0.95129 0.66853 0.36192 0.0
Cd34 Cd 0.93162 0.59611 0.34844 0.0
O35 O 0.89918 0.66088 0.39464 0.0
Cd36 Cd 0.85447 0.67904 0.4272 0.0
O37 O 0.79844 0.67439 0.45001 0.0
C38 C 0.77385 0.67744 0.42692 0.0
O39 O 0.78364 0.68571 0.39101 0.0
C40 C 0.92945 0.68373 0.38288 0.0
C41 C 0.96136 0.57426 0.27978 0.0
O42 O 0.93043 0.58477 0.28117 0.0
O43 O 0.97821 0.57431 0.31084 0.0
O44 O 0.85888 0.81122 0.78593 0.0
Cd45 Cd 0.82704 0.76803 0.83764 0.0
O46 O 0.84112 0.864 0.80858 0.0
Cd47 Cd 0.83341 0.92514 0.8194 0.0
O48 O 0.80586 0.9594 0.85917 0.0
C49 C 0.77999 0.97536 0.84914 0.0
O50 O 0.77134 0.97379 0.81323 0.0
C51 C 0.85897 0.84864 0.78323 0.0
C52 C 0.8774 0.73999 0.88056 0.0
O53 O 0.86642 0.72317 0.84915 0.0
O54 O 0.86441 0.7701 0.89201 0.0
O55 O 0.73422 0.18401 0.31642 0.0
Cd56 Cd 0.77977 0.20599 0.36495 0.0
O57 O 0.70377 0.22265 0.3474 0.0
Cd58 Cd 0.65957 0.25277 0.36428 0.0
O59 O 0.6304 0.29114 0.39754 0.0
C60 C 0.64204 0.29998 0.43066 0.0
O61 O 0.6694 0.28511 0.44217 0.0
C62 C 0.70627 0.19956 0.31929 0.0
C63 C 0.82387 0.15268 0.3828 0.0
O64 O 0.79381 0.15225 0.4019 0.0
O65 O 0.83245 0.17749 0.35467 0.0
O66 O 0.49229 0.77416 0.2216 0.0
Cd67 Cd 0.48714 0.7042 0.24321 0.0
O68 O 0.43945 0.75555 0.19447 0.0
Cd69 Cd 0.39443 0.7582 0.15716 0.0
O70 O 0.34287 0.73727 0.1282 0.0
C71 C 0.34266 0.71642 0.09809 0.0
O72 O 0.37396 0.71008 0.08393 0.0
C73 C 0.46792 0.78299 0.20101 0.0
C74 C 0.49076 0.69047 0.3211 0.0
O75 O 0.52 0.70418 0.30049 0.0
O76 O 0.45969 0.68451 0.30521 0.0
O77 O 0.12315 0.39057 0.72839 0.0
Cd78 Cd 0.14939 0.35676 0.67616 0.0
O79 O 0.14032 0.35147 0.77065 0.0
Cd80 Cd 0.15058 0.30807 0.72824 0.0
O81 O 0.1396 0.25507 0.6917 0.0
C82 C 0.10645 0.23494 0.69144 0.0
O83 O 0.0813 0.24744 0.71239 0.0
C84 C 0.12675 0.3816 0.76293 0.0
C85 C 0.22489 0.39035 0.66792 0.0
O86 O 0.21219 0.36187 0.69206 0.0
O87 O 0.20199 0.40248 0.64715 0.0
Zn88 Zn 0.0514 0.9497 0.55964 0.0
Zn89 Zn 0.98352 0.97296 0.52648 0.0
C90 C 0.08818 0.03041 0.57346 0.0
O91 O 0.11426 0.01693 0.555 0.0
C92 C 0.97376 0.90605 0.4712 0.0
O93 O 0.98921 0.93391 0.44602 0.0
O94 O 0.09277 0.93086 0.5839 0.0
O95 O 0.00445 0.91471 0.5801 0.0
O96 O 0.97764 0.96601 0.58424 0.0
C97 C 0.09089 0.92829 0.62002 0.0
O98 O 0.06173 0.93544 0.63845 0.0
O99 O 0.05666 0.00678 0.57861 0.0
C100 C 0.94779 0.01827 0.47682 0.0
O101 O 0.97573 0.01536 0.45394 0.0
O102 O 0.94515 0.00242 0.50988 0.0
O103 O 0.03223 0.00228 0.50066 0.0
O104 O 0.06002 0.95166 0.50343 0.0
O105 O 0.96921 0.91617 0.50557 0.0
C106 C 0.98213 0.93251 0.59733 0.0
C107 C 0.056 0.98376 0.48724 0.0
Zn108 Zn 0.58559 0.0523 0.04485 0.0
Zn109 Zn 0.52665 0.07763 0.09247 0.0
C110 C 0.53156 0.00606 -0.00213 0.0
O111 O 0.55037 0.97886 0.00574 0.0
C112 C 0.56836 0.12522 0.15203 0.0
O113 O 0.54837 0.15142 0.14466 0.0
O114 O 0.62651 0.03939 0.01131 0.0
O115 O 0.60113 0.11111 0.0568 0.0
O116 O 0.54465 0.11531 0.04697 0.0
C117 C 0.63022 0.05471 0.97798 0.0
O118 O 0.60832 0.07807 0.96827 0.0
O119 O 0.54096 0.04116 0.01227 0.0
C120 C 0.46384 0.07765 0.1428 0.0
O121 O 0.47764 0.05165 0.16189 0.0
O122 O 0.48 0.09249 0.11188 0.0
O123 O 0.51656 0.01574 0.09002 0.0
O124 O 0.5753 0.01458 0.08932 0.0
O125 O 0.56384 0.09253 0.1332 0.0
C126 C 0.57891 0.13137 0.04546 0.0
C127 C 0.54197 0.99791 0.0981 0.0
Zn128 Zn 0.51516 0.52685 0.55569 0.0
Zn129 Zn 0.48918 0.58931 0.60468 0.0
C130 C 0.5747 0.57788 0.51447 0.0
O131 O 0.55328 0.56386 0.48642 0.0
C132 C 0.4277 0.52628 0.63293 0.0
O133 O 0.44399 0.53379 0.66544 0.0
O134 O 0.52216 0.4787 0.52496 0.0
O135 O 0.51027 0.5084 0.61075 0.0
O136 O 0.52801 0.57009 0.63294 0.0
C137 C 0.54837 0.46308 0.5347 0.0
O138 O 0.56731 0.47802 0.56421 0.0
O139 O 0.56382 0.56707 0.54835 0.0
C140 C 0.45909 0.65932 0.62306 0.0
O141 O 0.45589 0.66129 0.5861 0.0
O142 O 0.47378 0.63236 0.63676 0.0
O143 O 0.50208 0.61106 0.55131 0.0
O144 O 0.47651 0.55044 0.53063 0.0
O145 O 0.44274 0.54513 0.60315 0.0
C146 C 0.52624 0.53232 0.63593 0.0
C147 C 0.48502 0.58867 0.52572 0.0
Zn148 Zn 0.01087 0.52795 0.98005 0.0
Zn149 Zn 0.1006 0.51066 0.0379 0.0
C150 C 0.95251 0.48502 0.93242 0.0
O151 O 0.98 0.47864 0.91062 0.0
C152 C 0.14031 0.59081 0.06048 0.0
O153 O 0.11029 0.58992 0.08155 0.0
O154 O 0.01768 0.58428 0.95897 0.0
O155 O 0.00858 0.52866 0.03767 0.0
O156 O 0.05669 0.51907 0.06866 0.0
C157 C 0.99846 0.60668 0.9749 0.0
O158 O 0.98161 0.59517 0.00787 0.0
O159 O 0.95914 0.50321 0.96393 0.0
C160 C 0.13932 0.47432 0.09357 0.0
O161 O 0.14754 0.51134 0.10704 0.0
O162 O 0.11933 0.46701 0.0648 0.0
O163 O 0.09267 0.49038 0.98482 0.0
O164 O 0.04515 0.49844 0.952 0.0
O165 O 0.14158 0.56128 0.03843 0.0
C166 C 0.02448 0.52554 0.06849 0.0
C167 C 0.0744 0.48558 0.95482 0.0
H168 H 0.17128 0.03193 0.35002 0.0
H169 H 0.12312 0.13639 0.34786 0.0
H170 H 0.08081 0.10809 0.4009 0.0
H171 H 0.05851 0.05426 0.44875 0.0
H172 H 0.10764 0.95041 0.45064 0.0
H173 H 0.14853 0.97802 0.39675 0.0
C174 C 0.15149 0.04855 0.36101 0.0
C175 C 0.15045 0.08627 0.34501 0.0
C176 C 0.12745 0.03225 0.39154 0.0
C177 C 0.12456 0.1073 0.35967 0.0
C178 C 0.10037 0.09115 0.39002 0.0
C179 C 0.07807 0.0376 0.43731 0.0
C180 C 0.08002 0.00034 0.45385 0.0
C181 C 0.10172 0.05374 0.40631 0.0
C182 C 0.10557 0.97919 0.43861 0.0
C183 C 0.129 0.99494 0.40775 0.0
H184 H 0.40452 0.99261 0.88171 0.0
H185 H 0.41859 0.86951 0.87653 0.0
H186 H 0.4658 0.88505 0.92356 0.0
H187 H 0.50408 0.93358 0.96509 0.0
H188 H 0.49055 0.05675 0.97086 0.0
H189 H 0.44204 0.04104 0.92483 0.0
C190 C 0.41786 0.96916 0.8909 0.0
C191 C 0.40802 0.92999 0.87541 0.0
C192 C 0.44511 0.97826 0.91808 0.0
C193 C 0.42556 0.89995 0.88783 0.0
C194 C 0.45263 0.90878 0.91477 0.0
C195 C 0.49049 0.95702 0.95641 0.0
C196 C 0.50105 0.99631 0.97132 0.0
C197 C 0.46275 0.94784 0.92991 0.0
C198 C 0.48299 0.02623 0.95982 0.0
C199 C 0.45528 0.0173 0.93344 0.0
H200 H 0.5966 0.43988 0.75868 0.0
H201 H 0.61351 0.5569 0.81258 0.0
H202 H 0.58508 0.5833 0.75981 0.0
H203 H 0.55484 0.57308 0.69868 0.0
H204 H 0.53627 0.4555 0.6456 0.0
H205 H 0.56573 0.42945 0.69777 0.0
C206 C 0.59425 0.47122 0.75879 0.0
C207 C 0.60731 0.4964 0.78951 0.0
C208 C 0.57737 0.48609 0.72858 0.0
C209 C 0.60371 0.53684 0.78933 0.0
C210 C 0.58742 0.55198 0.75916 0.0
C211 C 0.5572 0.54174 0.69849 0.0
C212 C 0.54332 0.51634 0.66818 0.0
C213 C 0.57402 0.52684 0.7287 0.0
C214 C 0.54655 0.47575 0.66857 0.0
C215 C 0.56351 0.46082 0.69837 0.0
H216 H 0.93142 0.56899 0.21005 0.0
H217 H 0.02717 0.55309 0.26782 0.0
H218 H 0.05424 0.53499 0.20789 0.0
H219 H 0.05161 0.52545 0.1391 0.0
H220 H 0.95624 0.54179 0.08078 0.0
H221 H 0.9281 0.55763 0.14107 0.0
C222 C 0.95818 0.5615 0.20956 0.0
C223 C 0.97728 0.56257 0.24339 0.0
C224 C 0.97366 0.55112 0.17494 0.0
C225 C 0.01188 0.55262 0.24223 0.0
C226 C 0.0274 0.54223 0.20795 0.0
C227 C 0.02455 0.53221 0.13947 0.0
C228 C 0.00617 0.53248 0.10531 0.0
C229 C 0.00864 0.54161 0.17413 0.0
C230 C 0.9711 0.54135 0.10655 0.0
C231 C 0.95498 0.55052 0.14103 0.0
H232 H 0.32128 0.11137 0.22625 0.0
H233 H 0.33037 0.19672 0.1334 0.0
H234 H 0.3855 0.17635 0.10826 0.0
H235 H 0.43099 0.13411 0.11271 0.0
H236 H 0.42132 0.04917 0.20603 0.0
H237 H 0.36641 0.06966 0.23083 0.0
C238 C 0.33525 0.12565 0.2005 0.0
C239 C 0.3216 0.15557 0.18176 0.0
C240 C 0.36681 0.11381 0.18624 0.0
C241 C 0.34021 0.17364 0.14844 0.0
C242 C 0.37174 0.16197 0.13403 0.0
C243 C 0.41685 0.12002 0.13845 0.0
C244 C 0.4303 0.09007 0.15744 0.0
C245 C 0.38525 0.13204 0.15268 0.0
C246 C 0.41165 0.07226 0.19081 0.0
C247 C 0.38021 0.08397 0.20505 0.0
H248 H 0.24184 0.92068 0.69112 0.0
H249 H 0.1728 0.90636 0.7939 0.0
H250 H 0.11908 0.90623 0.75672 0.0
H251 H 0.09217 0.91394 0.69565 0.0
H252 H 0.16059 0.9282 0.59255 0.0
H253 H 0.21395 0.92415 0.62923 0.0
C254 C 0.21501 0.9173 0.70537 0.0
C255 C 0.21149 0.91391 0.74532 0.0
C256 C 0.18409 0.91728 0.68379 0.0
C257 C 0.17643 0.90921 0.76325 0.0
C258 C 0.14563 0.90917 0.74201 0.0
C259 C 0.11868 0.91589 0.68111 0.0
C260 C 0.12241 0.92168 0.64145 0.0
C261 C 0.14923 0.91376 0.70236 0.0
C262 C 0.15693 0.92376 0.62306 0.0
C263 C 0.1875 0.92161 0.64404 0.0
H264 H 0.79955 0.42075 0.85737 0.0
H265 H 0.7705 0.51354 0.92878 0.0
H266 H 0.83296 0.53129 0.95157 0.0
H267 H 0.8953 0.51886 0.95313 0.0
H268 H 0.92493 0.42762 0.88033 0.0
H269 H 0.86269 0.41064 0.85651 0.0
C270 C 0.80691 0.44513 0.87765 0.0
C271 C 0.78019 0.46562 0.8914 0.0
C272 C 0.8429 0.45512 0.89081 0.0
C273 C 0.79041 0.49723 0.91761 0.0
C274 C 0.82611 0.50727 0.93088 0.0
C275 C 0.88804 0.49507 0.93224 0.0
C276 C 0.91453 0.47414 0.91887 0.0
C277 C 0.85242 0.48603 0.91811 0.0
C278 C 0.90496 0.44401 0.89121 0.0
C279 C 0.86941 0.43435 0.87752 0.0
H280 H 0.74426 0.65674 0.49819 0.0
H281 H 0.71463 0.6735 0.38287 0.0
H282 H 0.64985 0.64729 0.40074 0.0
H283 H 0.60231 0.61391 0.44753 0.0
H284 H 0.63169 0.59634 0.56271 0.0
H285 H 0.69577 0.62901 0.54652 0.0
C286 C 0.72361 0.6551 0.47704 0.0
C287 C 0.7344 0.66658 0.43912 0.0
C288 C 0.68636 0.63961 0.48741 0.0
C289 C 0.7072 0.6646 0.4122 0.0
C290 C 0.6701 0.64951 0.42235 0.0
C291 C 0.62267 0.61752 0.46919 0.0
C292 C 0.61235 0.6022 0.5061 0.0
C293 C 0.65948 0.63599 0.45962 0.0
C294 C 0.63894 0.6077 0.53401 0.0
C295 C 0.67563 0.62624 0.52474 0.0
H296 H 0.2126 0.3558 0.18629 0.0
H297 H 0.15434 0.26983 0.10666 0.0
H298 H 0.13127 0.32356 0.07659 0.0
H299 H 0.12677 0.39471 0.07347 0.0
H300 H 0.18457 0.48056 0.15351 0.0
H301 H 0.20858 0.4271 0.18278 0.0
C302 C 0.19498 0.34881 0.16226 0.0
C303 C 0.18525 0.30879 0.1488 0.0
C304 C 0.18158 0.37982 0.14522 0.0
C305 C 0.16231 0.30033 0.11765 0.0
C306 C 0.14904 0.33105 0.10044 0.0
C307 C 0.14461 0.40178 0.09732 0.0
C308 C 0.15372 0.44164 0.11129 0.0
C309 C 0.15833 0.37086 0.11411 0.0
C310 C 0.17696 0.45017 0.1422 0.0
C311 C 0.19078 0.4196 0.15897 0.0
H312 H 0.66998 0.29734 0.97903 0.0
H313 H 0.57674 0.2828 0.90739 0.0
H314 H 0.54621 0.2213 0.94266 0.0
H315 H 0.54786 0.16946 0.99169 0.0
H316 H 0.64326 0.18327 0.06014 0.0
H317 H 0.67099 0.24745 0.02842 0.0
C318 C 0.64284 0.28099 0.97123 0.0
C319 C 0.62572 0.29461 0.94055 0.0
C320 C 0.62588 0.24542 0.99105 0.0
C321 C 0.59059 0.27289 0.93083 0.0
C322 C 0.57313 0.23772 0.95098 0.0
C323 C 0.57449 0.18686 -0.0001 0.0
C324 C 0.59355 0.1717 0.02813 0.0
C325 C 0.59075 0.22338 0.98083 0.0
C326 C 0.62819 0.19423 0.0383 0.0
C327 C 0.64406 0.23092 0.0202 0.0
H328 H 0.91288 0.71812 0.44907 0.0
H329 H 0.96975 0.74609 0.34001 0.0
H330 H 0.98794 0.81767 0.35728 0.0
H331 H 0.98819 0.87208 0.40373 0.0
H332 H 0.93252 0.84338 0.51351 0.0
H333 H 0.9129 0.77243 0.49539 0.0
C334 C 0.92854 0.74003 0.42879 0.0
C335 C 0.93931 0.72706 0.39305 0.0
C336 C 0.93925 0.78096 0.43911 0.0
C337 C 0.96097 0.75548 0.36764 0.0
C338 C 0.97135 0.79637 0.37748 0.0
C339 C 0.97165 0.85035 0.42364 0.0
C340 C 0.96179 0.8631 0.45988 0.0
C341 C 0.96074 0.80944 0.4132 0.0
C342 C 0.94056 0.83443 0.48544 0.0
C343 C 0.92928 0.79381 0.47511 0.0
H344 H 0.38304 0.74625 0.75124 0.0
H345 H 0.3782 0.82698 0.65786 0.0
H346 H 0.40909 0.78666 0.61539 0.0
H347 H 0.4368 0.72786 0.60477 0.0
H348 H 0.44405 0.64934 0.69933 0.0
H349 H 0.41319 0.68962 0.7414 0.0
C350 C 0.38863 0.75492 0.72155 0.0
C351 C 0.37806 0.78927 0.70759 0.0
C352 C 0.407 0.73213 0.69757 0.0
C353 C 0.38602 0.80058 0.66924 0.0
C354 C 0.40366 0.77755 0.64496 0.0
C355 C 0.43174 0.71968 0.63462 0.0
C356 C 0.44261 0.68556 0.64882 0.0
C357 C 0.41423 0.74321 0.65881 0.0
C358 C 0.43611 0.67553 0.68764 0.0
C359 C 0.4183 0.69844 0.71173 0.0
H360 H 0.9138 0.82893 0.74134 0.0
H361 H 0.85139 0.92137 0.75238 0.0
H362 H 0.88482 0.95665 0.69633 0.0
H363 H 0.93034 0.95915 0.64223 0.0
H364 H 0.99059 0.86429 0.63251 0.0
H365 H 0.95913 0.83201 0.68973 0.0
C366 C 0.90744 0.85688 0.73165 0.0
C367 C 0.88018 0.87251 0.75117 0.0
C368 C 0.92623 0.87644 0.69932 0.0
C369 C 0.87261 0.90893 0.73831 0.0
C370 C 0.89151 0.92891 0.706 0.0
C371 C 0.93657 0.93148 0.65272 0.0
C372 C 0.96268 0.91414 0.63278 0.0
C373 C 0.91817 0.91267 0.68599 0.0
C374 C 0.97052 0.87831 0.64692 0.0
C375 C 0.95258 0.85973 0.67979 0.0
H376 H 0.68945 0.13344 0.27419 0.0
H377 H 0.66087 0.24783 0.29748 0.0
H378 H 0.61508 0.23444 0.24879 0.0
H379 H 0.58399 0.19091 0.19843 0.0
H380 H 0.61391 0.07732 0.17374 0.0
H381 H 0.65855 0.09 0.22365 0.0
C382 C 0.67308 0.15536 0.2687 0.0
C383 C 0.6779 0.19108 0.29026 0.0
C384 C 0.64723 0.14778 0.24008 0.0
C385 C 0.65672 0.21934 0.28253 0.0
C386 C 0.63086 0.21198 0.25421 0.0
C387 C 0.60025 0.1689 0.20395 0.0
C388 C 0.59556 0.13325 0.18229 0.0
C389 C 0.62591 0.17633 0.23277 0.0
C390 C 0.61691 0.10507 0.1899 0.0
C391 C 0.64247 0.11225 0.21849 0.0
H392 H 0.44168 0.63452 0.36292 0.0
H393 H 0.54561 0.72091 0.36929 0.0
H394 H 0.55158 0.69919 0.4346 0.0
H395 H 0.52873 0.65306 0.4887 0.0
H396 H 0.42785 0.56229 0.47972 0.0
H397 H 0.41901 0.58832 0.41675 0.0
C398 C 0.46538 0.64894 0.37881 0.0
C399 C 0.49303 0.67946 0.36146 0.0
C400 C 0.4692 0.63535 0.41582 0.0
C401 C 0.52394 0.69737 0.38209 0.0
C402 C 0.52737 0.68495 0.4194 0.0
C403 C 0.5046 0.6394 0.47308 0.0
C404 C 0.47879 0.60607 0.4888 0.0
C405 C 0.50039 0.65363 0.43639 0.0
C406 C 0.44803 0.58801 0.46808 0.0
C407 C 0.44298 0.60287 0.43214 0.0
H408 H 0.144 0.38113 0.83693 0.0
H409 H 0.08203 0.43529 0.75924 0.0
H410 H 0.05981 0.47192 0.81187 0.0
H411 H 0.05743 0.48775 0.88024 0.0
H412 H 0.1214 0.43488 0.95694 0.0
H413 H 0.14332 0.39853 0.90433 0.0
C414 C 0.12564 0.40096 0.83145 0.0
C415 C 0.11453 0.4053 0.79426 0.0
C416 C 0.11326 0.42209 0.86168 0.0
C417 C 0.09105 0.43146 0.78761 0.0
C418 C 0.07824 0.45231 0.8177 0.0
C419 C 0.07607 0.46817 0.88543 0.0
C420 C 0.08759 0.4639 0.92251 0.0
C421 C 0.08902 0.44769 0.8549 0.0
C422 C 0.11214 0.43881 0.92869 0.0
C423 C 0.12467 0.41794 0.89863 0.0
H424 H 0.72701 0.01699 0.83734 0.0
H425 H 0.7818 0.96941 0.92649 0.0
H426 H 0.74079 0.9903 0.97432 0.0
H427 H 0.68746 0.01935 0.99073 0.0
H428 H 0.6337 0.0682 0.90152 0.0
H429 H 0.67617 0.04957 0.854 0.0
C430 C 0.73016 0.01142 0.86724 0.0
C431 C 0.7573 0.99142 0.87822 0.0
C432 C 0.7065 0.02354 0.89467 0.0
C433 C 0.76115 0.98474 0.91716 0.0
C434 C 0.73761 0.99654 0.94459 0.0
C435 C 0.68512 0.02601 0.96091 0.0
C436 C 0.65728 0.04488 0.94972 0.0
C437 C 0.70986 0.01548 0.93364 0.0
C438 C 0.65485 0.05367 0.91098 0.0
C439 C 0.67911 0.04298 0.88371 0.0
H440 H 0.81961 0.10724 0.44734 0.0
H441 H 0.8846 0.1402 0.34321 0.0
H442 H 0.928 0.10076 0.36278 0.0
H443 H 0.94862 0.05881 0.41016 0.0
H444 H 0.88474 0.027 0.51512 0.0
H445 H 0.83984 0.06415 0.49449 0.0
C446 C 0.84311 0.10554 0.42879 0.0
C447 C 0.84881 0.12667 0.39384 0.0
C448 C 0.86829 0.08322 0.44045 0.0
C449 C 0.87955 0.12432 0.37027 0.0
C450 C 0.90443 0.10179 0.38146 0.0
C451 C 0.92484 0.05985 0.42854 0.0
C452 C 0.92015 0.04018 0.46419 0.0
C453 C 0.89927 0.08146 0.41662 0.0
C454 C 0.88913 0.04194 0.48759 0.0
C455 C 0.8634 0.06316 0.47579 0.0
H456 H 0.27333 0.72048 0.12226 0.0
H457 H 0.3326 0.66468 0.03777 0.0
H458 H 0.27475 0.62348 0.01622 0.0
H459 H 0.20792 0.59878 0.02527 0.0
H460 H 0.14873 0.65377 0.11049 0.0
H461 H 0.2059 0.7 0.12746 0.0
C462 C 0.27361 0.69965 0.09884 0.0
C463 C 0.30735 0.69536 0.08202 0.0
C464 C 0.24023 0.67568 0.08681 0.0
C465 C 0.3071 0.66844 0.05148 0.0
C466 C 0.274 0.64476 0.03915 0.0
C467 C 0.20741 0.62121 0.04722 0.0
C468 C 0.17408 0.62242 0.06684 0.0
C469 C 0.24048 0.64743 0.05721 0.0
C470 C 0.17397 0.65192 0.09504 0.0
C471 C 0.2067 0.67834 0.10488 0.0
H472 H 0.26244 0.43722 0.6102 0.0
H473 H 0.27648 0.38712 0.71985 0.0
H474 H 0.34101 0.42338 0.71803 0.0
H475 H 0.39257 0.47225 0.68686 0.0
H476 H 0.37901 0.52057 0.57623 0.0
H477 H 0.31537 0.4818 0.57675 0.0
C478 C 0.27969 0.43408 0.6336 0.0
C479 C 0.2646 0.40983 0.66526 0.0
C480 C 0.31687 0.45474 0.63223 0.0
C481 C 0.2874 0.40564 0.69514 0.0
C482 C 0.3243 0.42645 0.69419 0.0
C483 C 0.37576 0.47407 0.66275 0.0
C484 C 0.39043 0.49957 0.63175 0.0
C485 C 0.33919 0.45152 0.66312 0.0
C486 C 0.36842 0.50122 0.60051 0.0
C487 C 0.33195 0.47917 0.60082 0.0
H488 H 0.92839 0.69967 0.8551 0.0
H489 H 0.88444 0.74476 0.95735 0.0
H490 H 0.92211 0.71131 -0.004 0.0
H491 H 0.96226 0.66321 0.0007 0.0
H492 H 0.00718 0.61954 0.8981 0.0
H493 H 0.97517 0.65936 0.85962 0.0
C494 C 0.92737 0.70246 0.88584 0.0
C495 C 0.90327 0.72396 0.90346 0.0
C496 C 0.94932 0.68352 0.90778 0.0
C497 C 0.90267 0.72812 0.9432 0.0
C498 C 0.92413 0.70895 0.96529 0.0
C499 C 0.96565 0.66306 0.96994 0.0
C500 C 0.98664 0.63796 0.95235 0.0
C501 C 0.94685 0.68573 0.94791 0.0
C502 C 0.99113 0.63848 0.91245 0.0
C503 C 0.97255 0.66098 0.89036 0.0
H504 H 0.53377 0.83121 0.1814 0.0
H505 H 0.41739 0.826 0.18005 0.0
H506 H 0.42978 0.89183 0.1475 0.0
H507 H 0.47414 0.95102 0.11922 0.0
H508 H 0.59052 0.95478 0.1212 0.0
H509 H 0.5776 0.88962 0.15385 0.0
C510 C 0.51108 0.84454 0.17416 0.0
C511 C 0.4747 0.82345 0.18263 0.0
C512 C 0.51843 0.88224 0.15552 0.0
C513 C 0.44561 0.84107 0.17294 0.0
C514 C 0.45272 0.8789 0.15461 0.0
C515 C 0.49665 0.93755 0.12676 0.0
C516 C 0.53326 0.95791 0.11764 0.0
C517 C 0.48906 0.89971 0.14556 0.0
C518 C 0.56207 0.93993 0.12771 0.0
C519 C 0.55475 0.9026 0.14647 0.0
H520 H 0.15095 0.20245 0.64355 0.0
H521 H 0.03937 0.18225 0.68976 0.0
H522 H 0.02339 0.11807 0.65596 0.0
H523 H 0.04168 0.0663 0.61543 0.0
H524 H 0.15336 0.08651 0.56946 0.0
H525 H 0.16853 0.15211 0.60083 0.0
C526 C 0.12309 0.18411 0.64613 0.0
C527 C 0.09649 0.19706 0.66936 0.0
C528 C 0.11406 0.14716 0.62668 0.0
C529 C 0.06046 0.173 0.67217 0.0
C530 C 0.05126 0.13623 0.65287 0.0
C531 C 0.06928 0.08516 0.61206 0.0
C532 C 0.09637 0.07136 0.59031 0.0
C533 C 0.07793 0.12282 0.63036 0.0
C534 C 0.13197 0.09627 0.58614 0.0
C535 C 0.14073 0.13381 0.60413 0.0
H536 H 0.58529 0.33588 0.41627 0.0
H537 H 0.66394 0.32697 0.50083 0.0
H538 H 0.64085 0.37525 0.54085 0.0
H539 H 0.60011 0.42177 0.55105 0.0
H540 H 0.5213 0.4315 0.46704 0.0
H541 H 0.54252 0.38091 0.42779 0.0
C542 C 0.59726 0.34438 0.44352 0.0
C543 C 0.62646 0.32793 0.45537 0.0
C544 C 0.58388 0.37232 0.46652 0.0
C545 C 0.64153 0.33917 0.49087 0.0
C546 C 0.62837 0.36684 0.51383 0.0
C547 C 0.58741 0.41275 0.52424 0.0
C548 C 0.55929 0.43056 0.51194 0.0
C549 C 0.59982 0.38387 0.5018 0.0
C550 C 0.54302 0.41829 0.4772 0.0
C551 C 0.55521 0.38943 0.45468 0.0
loop_
_geom_bond_atom_site_label_1
_geom_bond_atom_site_label_2
_geom_bond_distance
_geom_bond_site_symmetry_2
_ccdc_geom_bond_type
O0 Cd1 2.300 . S
O0 C7 1.275 . S
Cd1 O0 2.300 . S
Cd1 O9 2.381 . S
Cd1 O10 2.378 . S
O2 Cd3 2.385 . S
O2 C7 1.255 . S
Cd3 O2 2.385 . S
Cd3 O4 2.317 . S
O4 Cd3 2.317 . S
O4 C5 1.232 . S
C5 O4 1.232 . S
C5 O6 1.218 . S
O6 C5 1.218 . S
C7 O0 1.275 . S
C7 O2 1.255 . S
C8 O9 1.258 . S
C8 O10 1.256 . S
O9 Cd1 2.381 . S
O9 C8 1.258 . S
O10 Cd1 2.378 . S
O10 C8 1.256 . S
O11 Cd12 2.300 . S
O11 C18 1.275 . S
Cd12 O11 2.300 . S
Cd12 O20 2.381 . S
Cd12 O21 2.378 . S
O13 Cd14 2.385 . S
O13 C18 1.255 . S
Cd14 O13 2.385 . S
Cd14 O15 2.317 . S
O15 Cd14 2.317 . S
O15 C16 1.232 . S
C16 O15 1.232 . S
C16 O17 1.218 . S
O17 C16 1.218 . S
C18 O11 1.275 . S
C18 O13 1.255 . S
C19 O20 1.258 . S
C19 O21 1.256 . S
O20 Cd12 2.381 . S
O20 C19 1.258 . S
O21 Cd12 2.378 . S
O21 C19 1.256 . S
O22 Cd23 2.300 . S
O22 C29 1.275 . S
Cd23 O22 2.300 . S
Cd23 O31 2.381 . S
Cd23 O32 2.378 . S
O24 Cd25 2.385 . S
O24 C29 1.255 . S
Cd25 O24 2.385 . S
Cd25 O26 2.317 . S
O26 Cd25 2.317 . S
O26 C27 1.232 . S
C27 O26 1.232 . S
C27 O28 1.218 . S
O28 C27 1.218 . S
C29 O22 1.275 . S
C29 O24 1.255 . S
C30 O31 1.258 . S
C30 O32 1.256 . S
O31 Cd23 2.381 . S
O31 C30 1.258 . S
O32 Cd23 2.378 . S
O32 C30 1.256 . S
O33 Cd34 2.300 . S
O33 C40 1.275 . S
Cd34 O33 2.300 . S
Cd34 O42 2.381 . S
Cd34 O43 2.378 . S
O35 Cd36 2.385 . S
O35 C40 1.255 . S
Cd36 O35 2.385 . S
Cd36 O37 2.317 . S
O37 Cd36 2.317 . S
O37 C38 1.232 . S
C38 O37 1.232 . S
C38 O39 1.218 . S
O39 C38 1.218 . S
C40 O33 1.275 . S
C40 O35 1.255 . S
C41 O42 1.258 . S
C41 O43 1.256 . S
O42 Cd34 2.381 . S
O42 C41 1.258 . S
O43 Cd34 2.378 . S
O43 C41 1.256 . S
O44 Cd45 2.300 . S
O44 C51 1.275 . S
Cd45 O44 2.300 . S
Cd45 O53 2.381 . S
Cd45 O54 2.378 . S
O46 Cd47 2.385 . S
O46 C51 1.255 . S
Cd47 O46 2.385 . S
Cd47 O48 2.317 . S
O48 Cd47 2.317 . S
O48 C49 1.232 . S
C49 O48 1.232 . S
C49 O50 1.218 . S
O50 C49 1.218 . S
C51 O44 1.275 . S
C51 O46 1.255 . S
C52 O53 1.258 . S
C52 O54 1.256 . S
O53 Cd45 2.381 . S
O53 C52 1.258 . S
O54 Cd45 2.378 . S
O54 C52 1.256 . S
O55 Cd56 2.300 . S
O55 C62 1.275 . S
Cd56 O55 2.300 . S
Cd56 O64 2.381 . S
Cd56 O65 2.378 . S
O57 Cd58 2.385 . S
O57 C62 1.255 . S
Cd58 O57 2.385 . S
Cd58 O59 2.317 . S
O59 Cd58 2.317 . S
O59 C60 1.232 . S
C60 O59 1.232 . S
C60 O61 1.218 . S
O61 C60 1.218 . S
C62 O55 1.275 . S
C62 O57 1.255 . S
C63 O64 1.258 . S
C63 O65 1.256 . S
O64 Cd56 2.381 . S
O64 C63 1.258 . S
O65 Cd56 2.378 . S
O65 C63 1.256 . S
O66 Cd67 2.300 . S
O66 C73 1.275 . S
Cd67 O66 2.300 . S
Cd67 O75 2.381 . S
Cd67 O76 2.378 . S
O68 Cd69 2.385 . S
O68 C73 1.255 . S
Cd69 O68 2.385 . S
Cd69 O70 2.317 . S
O70 Cd69 2.317 . S
O70 C71 1.232 . S
C71 O70 1.232 . S
C71 O72 1.218 . S
O72 C71 1.218 . S
C73 O66 1.275 . S
C73 O68 1.255 . S
C74 O75 1.258 . S
C74 O76 1.256 . S
O75 Cd67 2.381 . S
O75 C74 1.258 . S
O76 Cd67 2.378 . S
O76 C74 1.256 . S
O77 Cd78 2.300 . S
O77 C84 1.275 . S
Cd78 O77 2.300 . S
Cd78 O86 2.381 . S
Cd78 O87 2.378 . S
O79 Cd80 2.385 . S
O79 C84 1.255 . S
Cd80 O79 2.385 . S
Cd80 O81 2.317 . S
O81 Cd80 2.317 . S
O81 C82 1.232 . S
C82 O81 1.232 . S
C82 O83 1.218 . S
O83 C82 1.218 . S
C84 O77 1.275 . S
C84 O79 1.255 . S
C85 O86 1.258 . S
C85 O87 1.256 . S
O86 Cd78 2.381 . S
O86 C85 1.258 . S
O87 Cd78 2.378 . S
O87 C85 1.256 . S
Zn88 O94 1.969 1_545 S
Zn88 O95 1.965 1_545 S
Zn88 O99 2.024 . S
Zn88 O104 1.969 . S
Zn89 O96 1.959 1_545 S
Zn89 O102 1.990 . S
Zn89 O103 1.981 1_655 S
Zn89 O105 2.000 1_545 S
C90 O91 1.229 . S
C90 O99 1.058 . S
O91 C90 1.229 . S
C92 O93 1.229 . S
C92 O105 1.058 . S
O93 C92 1.229 . S
O94 Zn88 1.969 1_565 S
O94 C97 1.267 . S
O95 Zn88 1.965 1_565 S
O95 C106 1.260 1_455 S
O96 Zn89 1.959 1_565 S
O96 C106 1.258 . S
C97 O94 1.267 . S
C97 O98 1.228 . S
O98 C97 1.228 . S
O99 Zn88 2.024 . S
O99 C90 1.058 . S
C100 O101 1.228 . S
C100 O102 1.267 . S
O101 C100 1.228 . S
O102 Zn89 1.990 . S
O102 C100 1.267 . S
O103 Zn89 1.981 1_455 S
O103 C107 1.260 . S
O104 Zn88 1.969 . S
O104 C107 1.258 . S
O105 Zn89 2.000 1_565 S
O105 C92 1.058 . S
C106 O95 1.260 1_655 S
C106 O96 1.258 . S
C107 O103 1.260 . S
C107 O104 1.258 . S
Zn108 O114 1.969 1_545 S
Zn108 O115 1.965 . S
Zn108 O119 2.024 1_554 S
Zn108 O124 1.969 1_545 S
Zn109 O116 1.969 . S
Zn109 O122 1.969 . S
Zn109 O123 1.965 . S
Zn109 O125 2.024 . S
C110 O111 1.229 . S
C110 O119 1.058 1_565 S
O111 C110 1.229 . S
C112 O113 1.229 . S
C112 O125 1.058 . S
O113 C112 1.229 . S
O114 Zn108 1.969 1_565 S
O114 C117 1.267 1_554 S
O115 Zn108 1.965 . S
O115 C126 1.260 . S
O116 Zn109 1.969 . S
O116 C126 1.258 . S
C117 O114 1.267 1_556 S
C117 O118 1.228 1_565 S
O118 C117 1.228 1_545 S
O119 Zn108 2.024 1_556 S
O119 C110 1.058 1_545 S
C120 O121 1.228 . S
C120 O122 1.267 . S
O121 C120 1.228 . S
O122 Zn109 1.969 . S
O122 C120 1.267 . S
O123 Zn109 1.965 . S
O123 C127 1.260 1_545 S
O124 Zn108 1.969 1_565 S
O124 C127 1.258 . S
O125 Zn109 2.024 . S
O125 C112 1.058 . S
C126 O115 1.260 . S
C126 O116 1.258 . S
C127 O123 1.260 1_565 S
C127 O124 1.258 . S
Zn128 O134 1.969 . S
Zn128 O135 1.965 . S
Zn128 O139 2.024 . S
Zn128 O144 1.969 . S
Zn129 O136 1.969 . S
Zn129 O142 1.969 . S
Zn129 O143 1.965 . S
Zn129 O145 2.024 . S
C130 O131 1.229 . S
C130 O139 1.058 . S
O131 C130 1.229 . S
C132 O133 1.229 . S
C132 O145 1.058 . S
O133 C132 1.229 . S
O134 Zn128 1.969 . S
O134 C137 1.267 . S
O135 Zn128 1.965 . S
O135 C146 1.260 . S
O136 Zn129 1.969 . S
O136 C146 1.258 . S
C137 O134 1.267 . S
C137 O138 1.228 . S
O138 C137 1.228 . S
O139 Zn128 2.024 . S
O139 C130 1.058 . S
C140 O141 1.228 . S
C140 O142 1.267 . S
O141 C140 1.228 . S
O142 Zn129 1.969 . S
O142 C140 1.267 . S
O143 Zn129 1.965 . S
O143 C147 1.260 . S
O144 Zn128 1.969 . S
O144 C147 1.258 . S
O145 Zn129 2.024 . S
O145 C132 1.058 . S
C146 O135 1.260 . S
C146 O136 1.258 . S
C147 O143 1.260 . S
C147 O144 1.258 . S
Zn148 O154 1.969 . S
Zn148 O155 1.965 1_556 S
Zn148 O159 2.024 1_455 S
Zn148 O164 1.969 . S
Zn149 O156 1.969 . S
Zn149 O162 1.969 . S
Zn149 O163 1.965 . S
Zn149 O165 2.024 . S
C150 O151 1.229 . S
C150 O159 1.058 . S
O151 C150 1.229 . S
C152 O153 1.229 . S
C152 O165 1.058 . S
O153 C152 1.229 . S
O154 Zn148 1.969 . S
O154 C157 1.267 1_455 S
O155 Zn148 1.965 1_554 S
O155 C166 1.260 . S
O156 Zn149 1.969 . S
O156 C166 1.258 . S
C157 O154 1.267 1_655 S
C157 O158 1.228 . S
O158 C157 1.228 . S
O159 Zn148 2.024 1_655 S
O159 C150 1.058 . S
C160 O161 1.228 . S
C160 O162 1.267 . S
O161 C160 1.228 . S
O162 Zn149 1.969 . S
O162 C160 1.267 . S
O163 Zn149 1.965 . S
O163 C167 1.260 1_554 S
O164 Zn148 1.969 . S
O164 C167 1.258 . S
O165 Zn149 2.024 . S
O165 C152 1.058 . S
C166 O155 1.260 . S
C166 O156 1.258 . S
C167 O163 1.260 1_556 S
C167 O164 1.258 . S
H168 C174 0.930 . S
H169 C177 0.930 . S
H170 C178 0.930 . S
H171 C179 0.930 . S
H172 C182 0.930 . S
H173 C183 0.930 . S
C174 H168 0.930 . S
C174 C175 1.355 . S
C174 C176 1.415 . S
C175 C174 1.355 . S
C175 C177 1.419 . S
C176 C174 1.415 . S
C176 C181 1.425 . S
C176 C183 1.409 . S
C177 H169 0.930 . S
C177 C175 1.419 . S
C177 C178 1.362 . S
C178 H170 0.930 . S
C178 C177 1.362 . S
C178 C181 1.409 . S
C179 H171 0.930 . S
C179 C180 1.355 . S
C179 C181 1.415 . S
C180 C179 1.355 . S
C180 C182 1.419 . S
C181 C176 1.425 . S
C181 C178 1.409 . S
C181 C179 1.415 . S
C182 H172 0.930 . S
C182 C180 1.419 . S
C182 C183 1.362 . S
C183 H173 0.930 . S
C183 C176 1.409 . S
C183 C182 1.362 . S
H184 C190 0.930 . S
H185 C193 0.930 . S
H186 C194 0.930 . S
H187 C195 0.930 . S
H188 C198 0.930 1_545 S
H189 C199 0.930 . S
C190 H184 0.930 . S
C190 C191 1.355 . S
C190 C192 1.415 . S
C191 C190 1.355 . S
C191 C193 1.419 . S
C192 C190 1.415 . S
C192 C197 1.425 . S
C192 C199 1.409 . S
C193 H185 0.930 . S
C193 C191 1.419 . S
C193 C194 1.362 . S
C194 H186 0.930 . S
C194 C193 1.362 . S
C194 C197 1.409 . S
C195 H187 0.930 . S
C195 C196 1.355 . S
C195 C197 1.415 . S
C196 C195 1.355 . S
C196 C198 1.419 . S
C197 C192 1.425 . S
C197 C194 1.409 . S
C197 C195 1.415 . S
C198 H188 0.930 1_565 S
C198 C196 1.419 . S
C198 C199 1.362 . S
C199 H189 0.930 . S
C199 C192 1.409 . S
C199 C198 1.362 . S
H200 C206 0.930 . S
H201 C209 0.930 . S
H202 C210 0.930 . S
H203 C211 0.930 . S
H204 C214 0.930 . S
H205 C215 0.930 . S
C206 H200 0.930 . S
C206 C207 1.355 . S
C206 C208 1.415 . S
C207 C206 1.355 . S
C207 C209 1.419 . S
C208 C206 1.415 . S
C208 C213 1.425 . S
C208 C215 1.409 . S
C209 H201 0.930 . S
C209 C207 1.419 . S
C209 C210 1.362 . S
C210 H202 0.930 . S
C210 C209 1.362 . S
C210 C213 1.409 . S
C211 H203 0.930 . S
C211 C212 1.355 . S
C211 C213 1.415 . S
C212 C211 1.355 . S
C212 C214 1.419 . S
C213 C208 1.425 . S
C213 C210 1.409 . S
C213 C211 1.415 . S
C214 H204 0.930 . S
C214 C212 1.419 . S
C214 C215 1.362 . S
C215 H205 0.930 . S
C215 C208 1.409 . S
C215 C214 1.362 . S
H216 C222 0.930 . S
H217 C225 0.930 . S
H218 C226 0.930 . S
H219 C227 0.930 . S
H220 C230 0.930 . S
H221 C231 0.930 . S
C222 H216 0.930 . S
C222 C223 1.355 . S
C222 C224 1.415 . S
C223 C222 1.355 . S
C223 C225 1.419 . S
C224 C222 1.415 . S
C224 C229 1.425 . S
C224 C231 1.409 . S
C225 H217 0.930 . S
C225 C223 1.419 . S
C225 C226 1.362 1_655 S
C226 H218 0.930 . S
C226 C225 1.362 1_455 S
C226 C229 1.409 1_455 S
C227 H219 0.930 . S
C227 C228 1.355 1_455 S
C227 C229 1.415 1_455 S
C228 C227 1.355 1_655 S
C228 C230 1.419 . S
C229 C224 1.425 . S
C229 C226 1.409 1_655 S
C229 C227 1.415 1_655 S
C230 H220 0.930 . S
C230 C228 1.419 . S
C230 C231 1.362 . S
C231 H221 0.930 . S
C231 C224 1.409 . S
C231 C230 1.362 . S
H232 C238 0.930 . S
H233 C241 0.930 . S
H234 C242 0.930 . S
H235 C243 0.930 . S
H236 C246 0.930 . S
H237 C247 0.930 . S
C238 H232 0.930 . S
C238 C239 1.355 . S
C238 C240 1.415 . S
C239 C238 1.355 . S
C239 C241 1.419 . S
C240 C238 1.415 . S
C240 C245 1.425 . S
C240 C247 1.409 . S
C241 H233 0.930 . S
C241 C239 1.419 . S
C241 C242 1.362 . S
C242 H234 0.930 . S
C242 C241 1.362 . S
C242 C245 1.409 . S
C243 H235 0.930 . S
C243 C244 1.355 . S
C243 C245 1.415 . S
C244 C243 1.355 . S
C244 C246 1.419 . S
C245 C240 1.425 . S
C245 C242 1.409 . S
C245 C243 1.415 . S
C246 H236 0.930 . S
C246 C244 1.419 . S
C246 C247 1.362 . S
C247 H237 0.930 . S
C247 C240 1.409 . S
C247 C246 1.362 . S
H248 C254 0.930 . S
H249 C257 0.930 . S
H250 C258 0.930 . S
H251 C259 0.930 . S
H252 C262 0.930 . S
H253 C263 0.930 . S
C254 H248 0.930 . S
C254 C255 1.355 . S
C254 C256 1.415 . S
C255 C254 1.355 . S
C255 C257 1.419 . S
C256 C254 1.415 . S
C256 C261 1.425 . S
C256 C263 1.409 . S
C257 H249 0.930 . S
C257 C255 1.419 . S
C257 C258 1.362 . S
C258 H250 0.930 . S
C258 C257 1.362 . S
C258 C261 1.409 . S
C259 H251 0.930 . S
C259 C260 1.355 . S
C259 C261 1.415 . S
C260 C259 1.355 . S
C260 C262 1.419 . S
C261 C256 1.425 . S
C261 C258 1.409 . S
C261 C259 1.415 . S
C262 H252 0.930 . S
C262 C260 1.419 . S
C262 C263 1.362 . S
C263 H253 0.930 . S
C263 C256 1.409 . S
C263 C262 1.362 . S
H264 C270 0.930 . S
H265 C273 0.930 . S
H266 C274 0.930 . S
H267 C275 0.930 . S
H268 C278 0.930 . S
H269 C279 0.930 . S
C270 H264 0.930 . S
C270 C271 1.355 . S
C270 C272 1.415 . S
C271 C270 1.355 . S
C271 C273 1.419 . S
C272 C270 1.415 . S
C272 C277 1.425 . S
C272 C279 1.409 . S
C273 H265 0.930 . S
C273 C271 1.419 . S
C273 C274 1.362 . S
C274 H266 0.930 . S
C274 C273 1.362 . S
C274 C277 1.409 . S
C275 H267 0.930 . S
C275 C276 1.355 . S
C275 C277 1.415 . S
C276 C275 1.355 . S
C276 C278 1.419 . S
C277 C272 1.425 . S
C277 C274 1.409 . S
C277 C275 1.415 . S
C278 H268 0.930 . S
C278 C276 1.419 . S
C278 C279 1.362 . S
C279 H269 0.930 . S
C279 C272 1.409 . S
C279 C278 1.362 . S
H280 C286 0.930 . S
H281 C289 0.930 . S
H282 C290 0.930 . S
H283 C291 0.930 . S
H284 C294 0.930 . S
H285 C295 0.930 . S
C286 H280 0.930 . S
C286 C287 1.355 . S
C286 C288 1.415 . S
C287 C286 1.355 . S
C287 C289 1.419 . S
C288 C286 1.415 . S
C288 C293 1.425 . S
C288 C295 1.409 . S
C289 H281 0.930 . S
C289 C287 1.419 . S
C289 C290 1.362 . S
C290 H282 0.930 . S
C290 C289 1.362 . S
C290 C293 1.409 . S
C291 H283 0.930 . S
C291 C292 1.355 . S
C291 C293 1.415 . S
C292 C291 1.355 . S
C292 C294 1.419 . S
C293 C288 1.425 . S
C293 C290 1.409 . S
C293 C291 1.415 . S
C294 H284 0.930 . S
C294 C292 1.419 . S
C294 C295 1.362 . S
C295 H285 0.930 . S
C295 C288 1.409 . S
C295 C294 1.362 . S
H296 C302 0.930 . S
H297 C305 0.930 . S
H298 C306 0.930 . S
H299 C307 0.930 . S
H300 C310 0.930 . S
H301 C311 0.930 . S
C302 H296 0.930 . S
C302 C303 1.355 . S
C302 C304 1.415 . S
C303 C302 1.355 . S
C303 C305 1.419 . S
C304 C302 1.415 . S
C304 C309 1.425 . S
C304 C311 1.409 . S
C305 H297 0.930 . S
C305 C303 1.419 . S
C305 C306 1.362 . S
C306 H298 0.930 . S
C306 C305 1.362 . S
C306 C309 1.409 . S
C307 H299 0.930 . S
C307 C308 1.355 . S
C307 C309 1.415 . S
C308 C307 1.355 . S
C308 C310 1.419 . S
C309 C304 1.425 . S
C309 C306 1.409 . S
C309 C307 1.415 . S
C310 H300 0.930 . S
C310 C308 1.419 . S
C310 C311 1.362 . S
C311 H301 0.930 . S
C311 C304 1.409 . S
C311 C310 1.362 . S
H312 C318 0.930 . S
H313 C321 0.930 . S
H314 C322 0.930 . S
H315 C323 0.930 . S
H316 C326 0.930 1_554 S
H317 C327 0.930 . S
C318 H312 0.930 . S
C318 C319 1.355 . S
C318 C320 1.415 . S
C319 C318 1.355 . S
C319 C321 1.419 . S
C320 C318 1.415 . S
C320 C325 1.425 . S
C320 C327 1.409 . S
C321 H313 0.930 . S
C321 C319 1.419 . S
C321 C322 1.362 . S
C322 H314 0.930 . S
C322 C321 1.362 . S
C322 C325 1.409 . S
C323 H315 0.930 . S
C323 C324 1.355 1_556 S
C323 C325 1.415 . S
C324 C323 1.355 1_554 S
C324 C326 1.419 1_554 S
C325 C320 1.425 . S
C325 C322 1.409 . S
C325 C323 1.415 . S
C326 H316 0.930 1_556 S
C326 C324 1.419 1_556 S
C326 C327 1.362 . S
C327 H317 0.930 . S
C327 C320 1.409 . S
C327 C326 1.362 . S
H328 C334 0.930 . S
H329 C337 0.930 . S
H330 C338 0.930 . S
H331 C339 0.930 . S
H332 C342 0.930 . S
H333 C343 0.930 . S
C334 H328 0.930 . S
C334 C335 1.355 . S
C334 C336 1.415 . S
C335 C334 1.355 . S
C335 C337 1.419 . S
C336 C334 1.415 . S
C336 C341 1.425 . S
C336 C343 1.409 . S
C337 H329 0.930 . S
C337 C335 1.419 . S
C337 C338 1.362 . S
C338 H330 0.930 . S
C338 C337 1.362 . S
C338 C341 1.409 . S
C339 H331 0.930 . S
C339 C340 1.355 . S
C339 C341 1.415 . S
C340 C339 1.355 . S
C340 C342 1.419 . S
C341 C336 1.425 . S
C341 C338 1.409 . S
C341 C339 1.415 . S
C342 H332 0.930 . S
C342 C340 1.419 . S
C342 C343 1.362 . S
C343 H333 0.930 . S
C343 C336 1.409 . S
C343 C342 1.362 . S
H344 C350 0.930 . S
H345 C353 0.930 . S
H346 C354 0.930 . S
H347 C355 0.930 . S
H348 C358 0.930 . S
H349 C359 0.930 . S
C350 H344 0.930 . S
C350 C351 1.355 . S
C350 C352 1.415 . S
C351 C350 1.355 . S
C351 C353 1.419 . S
C352 C350 1.415 . S
C352 C357 1.425 . S
C352 C359 1.409 . S
C353 H345 0.930 . S
C353 C351 1.419 . S
C353 C354 1.362 . S
C354 H346 0.930 . S
C354 C353 1.362 . S
C354 C357 1.409 . S
C355 H347 0.930 . S
C355 C356 1.355 . S
C355 C357 1.415 . S
C356 C355 1.355 . S
C356 C358 1.419 . S
C357 C352 1.425 . S
C357 C354 1.409 . S
C357 C355 1.415 . S
C358 H348 0.930 . S
C358 C356 1.419 . S
C358 C359 1.362 . S
C359 H349 0.930 . S
C359 C352 1.409 . S
C359 C358 1.362 . S
H360 C366 0.930 . S
H361 C369 0.930 . S
H362 C370 0.930 . S
H363 C371 0.930 . S
H364 C374 0.930 1_455 S
H365 C375 0.930 . S
C366 H360 0.930 . S
C366 C367 1.355 . S
C366 C368 1.415 . S
C367 C366 1.355 . S
C367 C369 1.419 . S
C368 C366 1.415 . S
C368 C373 1.425 . S
C368 C375 1.409 . S
C369 H361 0.930 . S
C369 C367 1.419 . S
C369 C370 1.362 . S
C370 H362 0.930 . S
C370 C369 1.362 . S
C370 C373 1.409 . S
C371 H363 0.930 . S
C371 C372 1.355 . S
C371 C373 1.415 . S
C372 C371 1.355 . S
C372 C374 1.419 . S
C373 C368 1.425 . S
C373 C370 1.409 . S
C373 C371 1.415 . S
C374 H364 0.930 1_655 S
C374 C372 1.419 . S
C374 C375 1.362 . S
C375 H365 0.930 . S
C375 C368 1.409 . S
C375 C374 1.362 . S
H376 C382 0.930 . S
H377 C385 0.930 . S
H378 C386 0.930 . S
H379 C387 0.930 . S
H380 C390 0.930 . S
H381 C391 0.930 . S
C382 H376 0.930 . S
C382 C383 1.355 . S
C382 C384 1.415 . S
C383 C382 1.355 . S
C383 C385 1.419 . S
C384 C382 1.415 . S
C384 C389 1.425 . S
C384 C391 1.409 . S
C385 H377 0.930 . S
C385 C383 1.419 . S
C385 C386 1.362 . S
C386 H378 0.930 . S
C386 C385 1.362 . S
C386 C389 1.409 . S
C387 H379 0.930 . S
C387 C388 1.355 . S
C387 C389 1.415 . S
C388 C387 1.355 . S
C388 C390 1.419 . S
C389 C384 1.425 . S
C389 C386 1.409 . S
C389 C387 1.415 . S
C390 H380 0.930 . S
C390 C388 1.419 . S
C390 C391 1.362 . S
C391 H381 0.930 . S
C391 C384 1.409 . S
C391 C390 1.362 . S
H392 C398 0.930 . S
H393 C401 0.930 . S
H394 C402 0.930 . S
H395 C403 0.930 . S
H396 C406 0.930 . S
H397 C407 0.930 . S
C398 H392 0.930 . S
C398 C399 1.355 . S
C398 C400 1.415 . S
C399 C398 1.355 . S
C399 C401 1.419 . S
C400 C398 1.415 . S
C400 C405 1.425 . S
C400 C407 1.409 . S
C401 H393 0.930 . S
C401 C399 1.419 . S
C401 C402 1.362 . S
C402 H394 0.930 . S
C402 C401 1.362 . S
C402 C405 1.409 . S
C403 H395 0.930 . S
C403 C404 1.355 . S
C403 C405 1.415 . S
C404 C403 1.355 . S
C404 C406 1.419 . S
C405 C400 1.425 . S
C405 C402 1.409 . S
C405 C403 1.415 . S
C406 H396 0.930 . S
C406 C404 1.419 . S
C406 C407 1.362 . S
C407 H397 0.930 . S
C407 C400 1.409 . S
C407 C406 1.362 . S
H408 C414 0.930 . S
H409 C417 0.930 . S
H410 C418 0.930 . S
H411 C419 0.930 . S
H412 C422 0.930 . S
H413 C423 0.930 . S
C414 H408 0.930 . S
C414 C415 1.355 . S
C414 C416 1.415 . S
C415 C414 1.355 . S
C415 C417 1.419 . S
C416 C414 1.415 . S
C416 C421 1.425 . S
C416 C423 1.409 . S
C417 H409 0.930 . S
C417 C415 1.419 . S
C417 C418 1.362 . S
C418 H410 0.930 . S
C418 C417 1.362 . S
C418 C421 1.409 . S
C419 H411 0.930 . S
C419 C420 1.355 . S
C419 C421 1.415 . S
C420 C419 1.355 . S
C420 C422 1.419 . S
C421 C416 1.425 . S
C421 C418 1.409 . S
C421 C419 1.415 . S
C422 H412 0.930 . S
C422 C420 1.419 . S
C422 C423 1.362 . S
C423 H413 0.930 . S
C423 C416 1.409 . S
C423 C422 1.362 . S
H424 C430 0.930 . S
H425 C433 0.930 . S
H426 C434 0.930 . S
H427 C435 0.930 . S
H428 C438 0.930 . S
H429 C439 0.930 . S
C430 H424 0.930 . S
C430 C431 1.355 . S
C430 C432 1.415 . S
C431 C430 1.355 . S
C431 C433 1.419 . S
C432 C430 1.415 . S
C432 C437 1.425 . S
C432 C439 1.409 . S
C433 H425 0.930 . S
C433 C431 1.419 . S
C433 C434 1.362 . S
C434 H426 0.930 . S
C434 C433 1.362 . S
C434 C437 1.409 . S
C435 H427 0.930 . S
C435 C436 1.355 . S
C435 C437 1.415 . S
C436 C435 1.355 . S
C436 C438 1.419 . S
C437 C432 1.425 . S
C437 C434 1.409 . S
C437 C435 1.415 . S
C438 H428 0.930 . S
C438 C436 1.419 . S
C438 C439 1.362 . S
C439 H429 0.930 . S
C439 C432 1.409 . S
C439 C438 1.362 . S
H440 C446 0.930 . S
H441 C449 0.930 . S
H442 C450 0.930 . S
H443 C451 0.930 . S
H444 C454 0.930 . S
H445 C455 0.930 . S
C446 H440 0.930 . S
C446 C447 1.355 . S
C446 C448 1.415 . S
C447 C446 1.355 . S
C447 C449 1.419 . S
C448 C446 1.415 . S
C448 C453 1.425 . S
C448 C455 1.409 . S
C449 H441 0.930 . S
C449 C447 1.419 . S
C449 C450 1.362 . S
C450 H442 0.930 . S
C450 C449 1.362 . S
C450 C453 1.409 . S
C451 H443 0.930 . S
C451 C452 1.355 . S
C451 C453 1.415 . S
C452 C451 1.355 . S
C452 C454 1.419 . S
C453 C448 1.425 . S
C453 C450 1.409 . S
C453 C451 1.415 . S
C454 H444 0.930 . S
C454 C452 1.419 . S
C454 C455 1.362 . S
C455 H445 0.930 . S
C455 C448 1.409 . S
C455 C454 1.362 . S
H456 C462 0.930 . S
H457 C465 0.930 . S
H458 C466 0.930 . S
H459 C467 0.930 . S
H460 C470 0.930 . S
H461 C471 0.930 . S
C462 H456 0.930 . S
C462 C463 1.355 . S
C462 C464 1.415 . S
C463 C462 1.355 . S
C463 C465 1.419 . S
C464 C462 1.415 . S
C464 C469 1.425 . S
C464 C471 1.409 . S
C465 H457 0.930 . S
C465 C463 1.419 . S
C465 C466 1.362 . S
C466 H458 0.930 . S
C466 C465 1.362 . S
C466 C469 1.409 . S
C467 H459 0.930 . S
C467 C468 1.355 . S
C467 C469 1.415 . S
C468 C467 1.355 . S
C468 C470 1.419 . S
C469 C464 1.425 . S
C469 C466 1.409 . S
C469 C467 1.415 . S
C470 H460 0.930 . S
C470 C468 1.419 . S
C470 C471 1.362 . S
C471 H461 0.930 . S
C471 C464 1.409 . S
C471 C470 1.362 . S
H472 C478 0.930 . S
H473 C481 0.930 . S
H474 C482 0.930 . S
H475 C483 0.930 . S
H476 C486 0.930 . S
H477 C487 0.930 . S
C478 H472 0.930 . S
C478 C479 1.355 . S
C478 C480 1.415 . S
C479 C478 1.355 . S
C479 C481 1.419 . S
C480 C478 1.415 . S
C480 C485 1.425 . S
C480 C487 1.409 . S
C481 H473 0.930 . S
C481 C479 1.419 . S
C481 C482 1.362 . S
C482 H474 0.930 . S
C482 C481 1.362 . S
C482 C485 1.409 . S
C483 H475 0.930 . S
C483 C484 1.355 . S
C483 C485 1.415 . S
C484 C483 1.355 . S
C484 C486 1.419 . S
C485 C480 1.425 . S
C485 C482 1.409 . S
C485 C483 1.415 . S
C486 H476 0.930 . S
C486 C484 1.419 . S
C486 C487 1.362 . S
C487 H477 0.930 . S
C487 C480 1.409 . S
C487 C486 1.362 . S
H488 C494 0.930 . S
H489 C497 0.930 . S
H490 C498 0.930 . S
H491 C499 0.930 1_455 S
H492 C502 0.930 . S
H493 C503 0.930 . S
C494 H488 0.930 . S
C494 C495 1.355 . S
C494 C496 1.415 . S
C495 C494 1.355 . S
C495 C497 1.419 . S
C496 C494 1.415 . S
C496 C501 1.425 . S
C496 C503 1.409 . S
C497 H489 0.930 . S
C497 C495 1.419 . S
C497 C498 1.362 . S
C498 H490 0.930 . S
C498 C497 1.362 . S
C498 C501 1.409 . S
C499 H491 0.930 1_655 S
C499 C500 1.355 . S
C499 C501 1.415 . S
C500 C499 1.355 . S
C500 C502 1.419 . S
C501 C496 1.425 . S
C501 C498 1.409 . S
C501 C499 1.415 . S
C502 H492 0.930 . S
C502 C500 1.419 . S
C502 C503 1.362 . S
C503 H493 0.930 . S
C503 C496 1.409 . S
C503 C502 1.362 . S
H504 C510 0.930 . S
H505 C513 0.930 . S
H506 C514 0.930 . S
H507 C515 0.930 . S
H508 C518 0.930 . S
H509 C519 0.930 . S
C510 H504 0.930 . S
C510 C511 1.355 . S
C510 C512 1.415 . S
C511 C510 1.355 . S
C511 C513 1.419 . S
C512 C510 1.415 . S
C512 C517 1.425 . S
C512 C519 1.409 . S
C513 H505 0.930 . S
C513 C511 1.419 . S
C513 C514 1.362 . S
C514 H506 0.930 . S
C514 C513 1.362 . S
C514 C517 1.409 . S
C515 H507 0.930 . S
C515 C516 1.355 . S
C515 C517 1.415 . S
C516 C515 1.355 . S
C516 C518 1.419 . S
C517 C512 1.425 . S
C517 C514 1.409 . S
C517 C515 1.415 . S
C518 H508 0.930 . S
C518 C516 1.419 . S
C518 C519 1.362 . S
C519 H509 0.930 . S
C519 C512 1.409 . S
C519 C518 1.362 . S
H520 C526 0.930 . S
H521 C529 0.930 . S
H522 C530 0.930 . S
H523 C531 0.930 . S
H524 C534 0.930 . S
H525 C535 0.930 . S
C526 H520 0.930 . S
C526 C527 1.355 . S
C526 C528 1.415 . S
C527 C526 1.355 . S
C527 C529 1.419 . S
C528 C526 1.415 . S
C528 C533 1.425 . S
C528 C535 1.409 . S
C529 H521 0.930 . S
C529 C527 1.419 . S
C529 C530 1.362 . S
C530 H522 0.930 . S
C530 C529 1.362 . S
C530 C533 1.409 . S
C531 H523 0.930 . S
C531 C532 1.355 . S
C531 C533 1.415 . S
C532 C531 1.355 . S
C532 C534 1.419 . S
C533 C528 1.425 . S
C533 C530 1.409 . S
C533 C531 1.415 . S
C534 H524 0.930 . S
C534 C532 1.419 . S
C534 C535 1.362 . S
C535 H525 0.930 . S
C535 C528 1.409 . S
C535 C534 1.362 . S
H536 C542 0.930 . S
H537 C545 0.930 . S
H538 C546 0.930 . S
H539 C547 0.930 . S
H540 C550 0.930 . S
H541 C551 0.930 . S
C542 H536 0.930 . S
C542 C543 1.355 . S
C542 C544 1.415 . S
C543 C542 1.355 . S
C543 C545 1.419 . S
C544 C542 1.415 . S
C544 C549 1.425 . S
C544 C551 1.409 . S
C545 H537 0.930 . S
C545 C543 1.419 . S
C545 C546 1.362 . S
C546 H538 0.930 . S
C546 C545 1.362 . S
C546 C549 1.409 . S
C547 H539 0.930 . S
C547 C548 1.355 . S
C547 C549 1.415 . S
C548 C547 1.355 . S
C548 C550 1.419 . S
C549 C544 1.425 . S
C549 C546 1.409 . S
C549 C547 1.415 . S
C550 H540 0.930 . S
C550 C548 1.419 . S
C550 C551 1.362 . S
C551 H541 0.930 . S
C551 C544 1.409 . S
C551 C550 1.362 . S
C175 C5 1.525 . S
C180 C107 1.761 . S
C191 C18 1.293 . S
C196 C110 1.393 . S
C212 C146 1.564 . S
C207 C30 1.621 . S
C223 C41 1.375 . S
C228 C166 1.413 1_655 S
C244 C120 1.897 . S
C239 C7 1.824 . S
C260 C97 1.729 . S
C255 C16 1.562 . S
C276 C150 1.565 . S
C271 C29 1.667 . S
C292 C130 1.100 . S
C287 C38 1.013 . S
C303 C8 1.434 . S
C308 C160 1.384 . S
C324 C126 1.782 . S
C319 C27 1.692 . S
C335 C40 1.708 . S
C340 C92 1.703 . S
C351 C19 1.106 . S
C356 C140 1.105 . S
C372 C106 1.561 . S
C367 C51 1.486 . S
C383 C62 1.425 . S
C388 C112 1.426 . S
C399 C74 1.711 . S
C404 C147 1.704 . S
C415 C84 1.445 . S
C420 C167 1.461 . S
C431 C49 1.676 . S
C436 C117 1.935 . S
C452 C100 1.450 . S
C447 C63 1.500 . S
C468 C152 1.449 . S
C463 C71 1.477 . S
C484 C132 1.256 . S
C479 C85 1.305 . S
C495 C52 1.356 . S
C500 C157 1.281 . S
C516 C127 1.857 . S
C511 C73 1.844 . S
C532 C90 1.429 . S
C527 C82 1.401 . S
C543 C60 1.304 . S
C548 C137 1.443 . S
