# Generated by pormake.
# Topology gar, (4,6)-cn, num edge types: 1
# Building blocks:
#     Node 0, Type 0, BuildingBlock: QUQFOY_clean_sbu_3, # of connection points: 4
#     Node 1, Type 0, BuildingBlock: QUQFOY_clean_sbu_3, # of connection points: 4
#     Node 2, Type 0, BuildingBlock: QUQFOY_clean_sbu_3, # of connection points: 4
#     Node 3, Type 0, BuildingBlock: QUQFOY_clean_sbu_3, # of connection points: 4
#     Node 4, Type 0, BuildingBlock: QUQFOY_clean_sbu_3, # of connection points: 4
#     Node 5, Type 0, BuildingBlock: QUQFOY_clean_sbu_3, # of connection points: 4
#     Node 6, Type 0, BuildingBlock: QUQFOY_clean_sbu_3, # of connection points: 4
#     Node 7, Type 0, BuildingBlock: QUQFOY_clean_sbu_3, # of connection points: 4
#     Node 8, Type 0, BuildingBlock: QUQFOY_clean_sbu_3, # of connection points: 4
#     Node 9, Type 0, BuildingBlock: QUQFOY_clean_sbu_3, # of connection points: 4
#     Node 10, Type 0, BuildingBlock: QUQFOY_clean_sbu_3, # of connection points: 4
#     Node 11, Type 0, BuildingBlock: QUQFOY_clean_sbu_3, # of connection points: 4
#     Node 12, Type 0, BuildingBlock: QUQFOY_clean_sbu_3, # of connection points: 4
#     Node 13, Type 0, BuildingBlock: QUQFOY_clean_sbu_3, # of connection points: 4
#     Node 14, Type 0, BuildingBlock: QUQFOY_clean_sbu_3, # of connection points: 4
#     Node 15, Type 0, BuildingBlock: QUQFOY_clean_sbu_3, # of connection points: 4
#     Node 16, Type 0, BuildingBlock: QUQFOY_clean_sbu_3, # of connection points: 4
#     Node 17, Type 0, BuildingBlock: QUQFOY_clean_sbu_3, # of connection points: 4
#     Node 18, Type 0, BuildingBlock: QUQFOY_clean_sbu_3, # of connection points: 4
#     Node 19, Type 0, BuildingBlock: QUQFOY_clean_sbu_3, # of connection points: 4
#     Node 20, Type 0, BuildingBlock: QUQFOY_clean_sbu_3, # of connection points: 4
#     Node 21, Type 0, BuildingBlock: QUQFOY_clean_sbu_3, # of connection points: 4
#     Node 22, Type 0, BuildingBlock: QUQFOY_clean_sbu_3, # of connection points: 4
#     Node 23, Type 0, BuildingBlock: QUQFOY_clean_sbu_3, # of connection points: 4
#     Node 24, Type 1, BuildingBlock: BETFEN_clean_sbu_0, # of connection points: 6
#     Node 25, Type 1, BuildingBlock: BETFEN_clean_sbu_0, # of connection points: 6
#     Node 26, Type 1, BuildingBlock: BETFEN_clean_sbu_0, # of connection points: 6
#     Node 27, Type 1, BuildingBlock: BETFEN_clean_sbu_0, # of connection points: 6
#     Node 28, Type 1, BuildingBlock: BETFEN_clean_sbu_0, # of connection points: 6
#     Node 29, Type 1, BuildingBlock: BETFEN_clean_sbu_0, # of connection points: 6
#     Node 30, Type 1, BuildingBlock: BETFEN_clean_sbu_0, # of connection points: 6
#     Node 31, Type 1, BuildingBlock: BETFEN_clean_sbu_0, # of connection points: 6
#     Node 32, Type 1, BuildingBlock: BETFEN_clean_sbu_0, # of connection points: 6
#     Node 33, Type 1, BuildingBlock: BETFEN_clean_sbu_0, # of connection points: 6
#     Node 34, Type 1, BuildingBlock: BETFEN_clean_sbu_0, # of connection points: 6
#     Node 35, Type 1, BuildingBlock: BETFEN_clean_sbu_0, # of connection points: 6
#     Node 36, Type 1, BuildingBlock: BETFEN_clean_sbu_0, # of connection points: 6
#     Node 37, Type 1, BuildingBlock: BETFEN_clean_sbu_0, # of connection points: 6
#     Node 38, Type 1, BuildingBlock: BETFEN_clean_sbu_0, # of connection points: 6
#     Node 39, Type 1, BuildingBlock: BETFEN_clean_sbu_0, # of connection points: 6
#     Edge 40, Type (0, 1), BuildingBlock: UVAHIK_clean_linker_0, # of connection points: 2
#     Edge 41, Type (0, 1), BuildingBlock: UVAHIK_clean_linker_0, # of connection points: 2
#     Edge 42, Type (0, 1), BuildingBlock: UVAHIK_clean_linker_0, # of connection points: 2
#     Edge 43, Type (0, 1), BuildingBlock: UVAHIK_clean_linker_0, # of connection points: 2
#     Edge 44, Type (0, 1), BuildingBlock: UVAHIK_clean_linker_0, # of connection points: 2
#     Edge 45, Type (0, 1), BuildingBlock: UVAHIK_clean_linker_0, # of connection points: 2
#     Edge 46, Type (0, 1), BuildingBlock: UVAHIK_clean_linker_0, # of connection points: 2
#     Edge 47, Type (0, 1), BuildingBlock: UVAHIK_clean_linker_0, # of connection points: 2
#     Edge 48, Type (0, 1), BuildingBlock: UVAHIK_clean_linker_0, # of connection points: 2
#     Edge 49, Type (0, 1), BuildingBlock: UVAHIK_clean_linker_0, # of connection points: 2
#     Edge 50, Type (0, 1), BuildingBlock: UVAHIK_clean_linker_0, # of connection points: 2
#     Edge 51, Type (0, 1), BuildingBlock: UVAHIK_clean_linker_0, # of connection points: 2
#     Edge 52, Type (0, 1), BuildingBlock: UVAHIK_clean_linker_0, # of connection points: 2
#     Edge 53, Type (0, 1), BuildingBlock: UVAHIK_clean_linker_0, # of connection points: 2
#     Edge 54, Type (0, 1), BuildingBlock: UVAHIK_clean_linker_0, # of connection points: 2
#     Edge 55, Type (0, 1), BuildingBlock: UVAHIK_clean_linker_0, # of connection points: 2
#     Edge 56, Type (0, 1), BuildingBlock: UVAHIK_clean_linker_0, # of connection points: 2
#     Edge 57, Type (0, 1), BuildingBlock: UVAHIK_clean_linker_0, # of connection points: 2
#     Edge 58, Type (0, 1), BuildingBlock: UVAHIK_clean_linker_0, # of connection points: 2
#     Edge 59, Type (0, 1), BuildingBlock: UVAHIK_clean_linker_0, # of connection points: 2
#     Edge 60, Type (0, 1), BuildingBlock: UVAHIK_clean_linker_0, # of connection points: 2
#     Edge 61, Type (0, 1), BuildingBlock: UVAHIK_clean_linker_0, # of connection points: 2
#     Edge 62, Type (0, 1), BuildingBlock: UVAHIK_clean_linker_0, # of connection points: 2
#     Edge 63, Type (0, 1), BuildingBlock: UVAHIK_clean_linker_0, # of connection points: 2
#     Edge 64, Type (0, 1), BuildingBlock: UVAHIK_clean_linker_0, # of connection points: 2
#     Edge 65, Type (0, 1), BuildingBlock: UVAHIK_clean_linker_0, # of connection points: 2
#     Edge 66, Type (0, 1), BuildingBlock: UVAHIK_clean_linker_0, # of connection points: 2
#     Edge 67, Type (0, 1), BuildingBlock: UVAHIK_clean_linker_0, # of connection points: 2
#     Edge 68, Type (0, 1), BuildingBlock: UVAHIK_clean_linker_0, # of connection points: 2
#     Edge 69, Type (0, 1), BuildingBlock: UVAHIK_clean_linker_0, # of connection points: 2
#     Edge 70, Type (0, 1), BuildingBlock: UVAHIK_clean_linker_0, # of connection points: 2
#     Edge 71, Type (0, 1), BuildingBlock: UVAHIK_clean_linker_0, # of connection points: 2
#     Edge 72, Type (0, 1), BuildingBlock: UVAHIK_clean_linker_0, # of connection points: 2
#     Edge 73, Type (0, 1), BuildingBlock: UVAHIK_clean_linker_0, # of connection points: 2
#     Edge 74, Type (0, 1), BuildingBlock: UVAHIK_clean_linker_0, # of connection points: 2
#     Edge 75, Type (0, 1), BuildingBlock: UVAHIK_clean_linker_0, # of connection points: 2
#     Edge 76, Type (0, 1), BuildingBlock: UVAHIK_clean_linker_0, # of connection points: 2
#     Edge 77, Type (0, 1), BuildingBlock: UVAHIK_clean_linker_0, # of connection points: 2
#     Edge 78, Type (0, 1), BuildingBlock: UVAHIK_clean_linker_0, # of connection points: 2
#     Edge 79, Type (0, 1), BuildingBlock: UVAHIK_clean_linker_0, # of connection points: 2
#     Edge 80, Type (0, 1), BuildingBlock: UVAHIK_clean_linker_0, # of connection points: 2
#     Edge 81, Type (0, 1), BuildingBlock: UVAHIK_clean_linker_0, # of connection points: 2
#     Edge 82, Type (0, 1), BuildingBlock: UVAHIK_clean_linker_0, # of connection points: 2
#     Edge 83, Type (0, 1), BuildingBlock: UVAHIK_clean_linker_0, # of connection points: 2
#     Edge 84, Type (0, 1), BuildingBlock: UVAHIK_clean_linker_0, # of connection points: 2
#     Edge 85, Type (0, 1), BuildingBlock: UVAHIK_clean_linker_0, # of connection points: 2
#     Edge 86, Type (0, 1), BuildingBlock: UVAHIK_clean_linker_0, # of connection points: 2
#     Edge 87, Type (0, 1), BuildingBlock: UVAHIK_clean_linker_0, # of connection points: 2
#     Edge 88, Type (0, 1), BuildingBlock: UVAHIK_clean_linker_0, # of connection points: 2
#     Edge 89, Type (0, 1), BuildingBlock: UVAHIK_clean_linker_0, # of connection points: 2
#     Edge 90, Type (0, 1), BuildingBlock: UVAHIK_clean_linker_0, # of connection points: 2
#     Edge 91, Type (0, 1), BuildingBlock: UVAHIK_clean_linker_0, # of connection points: 2
#     Edge 92, Type (0, 1), BuildingBlock: UVAHIK_clean_linker_0, # of connection points: 2
#     Edge 93, Type (0, 1), BuildingBlock: UVAHIK_clean_linker_0, # of connection points: 2
#     Edge 94, Type (0, 1), BuildingBlock: UVAHIK_clean_linker_0, # of connection points: 2
#     Edge 95, Type (0, 1), BuildingBlock: UVAHIK_clean_linker_0, # of connection points: 2
#     Edge 96, Type (0, 1), BuildingBlock: UVAHIK_clean_linker_0, # of connection points: 2
#     Edge 97, Type (0, 1), BuildingBlock: UVAHIK_clean_linker_0, # of connection points: 2
#     Edge 98, Type (0, 1), BuildingBlock: UVAHIK_clean_linker_0, # of connection points: 2
#     Edge 99, Type (0, 1), BuildingBlock: UVAHIK_clean_linker_0, # of connection points: 2
#     Edge 100, Type (0, 1), BuildingBlock: UVAHIK_clean_linker_0, # of connection points: 2
#     Edge 101, Type (0, 1), BuildingBlock: UVAHIK_clean_linker_0, # of connection points: 2
#     Edge 102, Type (0, 1), BuildingBlock: UVAHIK_clean_linker_0, # of connection points: 2
#     Edge 103, Type (0, 1), BuildingBlock: UVAHIK_clean_linker_0, # of connection points: 2
#     Edge 104, Type (0, 1), BuildingBlock: UVAHIK_clean_linker_0, # of connection points: 2
#     Edge 105, Type (0, 1), BuildingBlock: UVAHIK_clean_linker_0, # of connection points: 2
#     Edge 106, Type (0, 1), BuildingBlock: UVAHIK_clean_linker_0, # of connection points: 2
#     Edge 107, Type (0, 1), BuildingBlock: UVAHIK_clean_linker_0, # of connection points: 2
#     Edge 108, Type (0, 1), BuildingBlock: UVAHIK_clean_linker_0, # of connection points: 2
#     Edge 109, Type (0, 1), BuildingBlock: UVAHIK_clean_linker_0, # of connection points: 2
#     Edge 110, Type (0, 1), BuildingBlock: UVAHIK_clean_linker_0, # of connection points: 2
#     Edge 111, Type (0, 1), BuildingBlock: UVAHIK_clean_linker_0, # of connection points: 2
#     Edge 112, Type (0, 1), BuildingBlock: UVAHIK_clean_linker_0, # of connection points: 2
#     Edge 113, Type (0, 1), BuildingBlock: UVAHIK_clean_linker_0, # of connection points: 2
#     Edge 114, Type (0, 1), BuildingBlock: UVAHIK_clean_linker_0, # of connection points: 2
#     Edge 115, Type (0, 1), BuildingBlock: UVAHIK_clean_linker_0, # of connection points: 2
#     Edge 116, Type (0, 1), BuildingBlock: UVAHIK_clean_linker_0, # of connection points: 2
#     Edge 117, Type (0, 1), BuildingBlock: UVAHIK_clean_linker_0, # of connection points: 2
#     Edge 118, Type (0, 1), BuildingBlock: UVAHIK_clean_linker_0, # of connection points: 2
#     Edge 119, Type (0, 1), BuildingBlock: UVAHIK_clean_linker_0, # of connection points: 2
#     Edge 120, Type (0, 1), BuildingBlock: UVAHIK_clean_linker_0, # of connection points: 2
#     Edge 121, Type (0, 1), BuildingBlock: UVAHIK_clean_linker_0, # of connection points: 2
#     Edge 122, Type (0, 1), BuildingBlock: UVAHIK_clean_linker_0, # of connection points: 2
#     Edge 123, Type (0, 1), BuildingBlock: UVAHIK_clean_linker_0, # of connection points: 2
#     Edge 124, Type (0, 1), BuildingBlock: UVAHIK_clean_linker_0, # of connection points: 2
#     Edge 125, Type (0, 1), BuildingBlock: UVAHIK_clean_linker_0, # of connection points: 2
#     Edge 126, Type (0, 1), BuildingBlock: UVAHIK_clean_linker_0, # of connection points: 2
#     Edge 127, Type (0, 1), BuildingBlock: UVAHIK_clean_linker_0, # of connection points: 2
#     Edge 128, Type (0, 1), BuildingBlock: UVAHIK_clean_linker_0, # of connection points: 2
#     Edge 129, Type (0, 1), BuildingBlock: UVAHIK_clean_linker_0, # of connection points: 2
#     Edge 130, Type (0, 1), BuildingBlock: UVAHIK_clean_linker_0, # of connection points: 2
#     Edge 131, Type (0, 1), BuildingBlock: UVAHIK_clean_linker_0, # of connection points: 2
#     Edge 132, Type (0, 1), BuildingBlock: UVAHIK_clean_linker_0, # of connection points: 2
#     Edge 133, Type (0, 1), BuildingBlock: UVAHIK_clean_linker_0, # of connection points: 2
#     Edge 134, Type (0, 1), BuildingBlock: UVAHIK_clean_linker_0, # of connection points: 2
#     Edge 135, Type (0, 1), BuildingBlock: UVAHIK_clean_linker_0, # of connection points: 2
# Relax obj value: 0.163
# Max RMSD: 0.293
# Mean RMSD: 0.152
data_MOF--net-gar--node1-QUQFOY_clean_sbu_3--node2-BETFEN_clean_sbu_0--edge1-UVAHIK_clean_linker_0
_symmetry_space_group_name_H-M    P1
_symmetry_Int_Tables_number       1
_symmetry_cell_setting            triclinic
loop_
_symmetry_equiv_pos_as_xyz
'x, y, z'
_cell_length_a     80.032505
_cell_length_b     73.89529
_cell_length_c     73.46614
_cell_angle_alpha  95.374244
_cell_angle_beta   98.007379
_cell_angle_gamma 102.28632
loop_
_atom_site_label
_atom_site_type_symbol
_atom_site_fract_x
_atom_site_fract_y
_atom_site_fract_z
_atom_type_partial_charge
C0 C 0.98994 0.30321 0.38206 0.0
O1 O 0.00139 0.31329 0.37469 0.0
Cd2 Cd 0.03182 0.3202 0.3844 0.0
O3 O 0.99428 0.29557 0.39636 0.0
Cd4 Cd 0.02266 0.29546 0.41646 0.0
C5 C 0.03242 0.34312 0.4274 0.0
O6 O 0.03787 0.29104 0.39048 0.0
O7 O 0.05424 0.29774 0.41704 0.0
O8 O 0.00982 0.2627 0.41906 0.0
C9 C 0.05274 0.29277 0.39981 0.0
O10 O 0.03669 0.3435 0.41136 0.0
C11 C 0.01558 0.26333 0.43616 0.0
O12 O 0.02584 0.32761 0.43278 0.0
O13 O 0.02389 0.27921 0.44453 0.0
C14 C 0.02563 0.81392 0.67241 0.0
O15 O 0.03624 0.80685 0.68231 0.0
Cd16 Cd 0.06288 0.80183 0.67433 0.0
O17 O 0.02912 0.81956 0.65716 0.0
Cd18 Cd 0.05382 0.82239 0.639 0.0
C19 C 0.04889 0.7751 0.63137 0.0
O20 O 0.07746 0.8302 0.66524 0.0
O21 O 0.08471 0.82189 0.63916 0.0
O22 O 0.05286 0.85488 0.63707 0.0
C23 C 0.08941 0.828 0.65623 0.0
O24 O 0.05542 0.77693 0.64846 0.0
C25 C 0.05067 0.85407 0.61956 0.0
O26 O 0.04567 0.7892 0.62386 0.0
O27 O 0.04951 0.83815 0.61054 0.0
C28 C 0.48547 0.79259 0.88104 0.0
O29 O 0.49543 0.8001 0.87049 0.0
Cd30 Cd 0.52557 0.812 0.88034 0.0
O31 O 0.49161 0.78904 0.89698 0.0
Cd32 Cd 0.52136 0.78993 0.91486 0.0
C33 C 0.52632 0.83679 0.92322 0.0
O34 O 0.53611 0.78553 0.88841 0.0
O35 O 0.55296 0.79596 0.91444 0.0
O36 O 0.51071 0.75688 0.9178 0.0
C37 C 0.55134 0.78963 0.89748 0.0
O38 O 0.52763 0.83647 0.90611 0.0
C39 C 0.51668 0.75787 0.93489 0.0
O40 O 0.52379 0.82171 0.93064 0.0
O41 O 0.52427 0.77404 0.94313 0.0
C42 C 0.52539 0.30798 0.17161 0.0
O43 O 0.53583 0.30077 0.1816 0.0
Cd44 Cd 0.56274 0.29596 0.17411 0.0
O45 O 0.52917 0.31378 0.15651 0.0
Cd46 Cd 0.5542 0.31691 0.13875 0.0
C47 C 0.54984 0.26954 0.13083 0.0
O48 O 0.5773 0.32471 0.16562 0.0
O49 O 0.5853 0.31748 0.13961 0.0
O50 O 0.5526 0.34928 0.13722 0.0
C51 C 0.58956 0.32327 0.15679 0.0
O52 O 0.55591 0.27122 0.14804 0.0
C53 C 0.55078 0.34886 0.11976 0.0
O54 O 0.54678 0.28371 0.12334 0.0
O55 O 0.55016 0.33319 0.11052 0.0
C56 C 0.03611 0.81793 0.17478 0.0
O57 O 0.04708 0.81211 0.18554 0.0
Cd58 Cd 0.07523 0.80996 0.18025 0.0
O59 O 0.03997 0.82416 0.15989 0.0
Cd60 Cd 0.06554 0.82981 0.14312 0.0
C61 C 0.06283 0.78299 0.13717 0.0
O62 O 0.08734 0.8389 0.17063 0.0
O63 O 0.09746 0.83343 0.14564 0.0
O64 O 0.05989 0.8603 0.13838 0.0
C65 C 0.10048 0.83844 0.163 0.0
O66 O 0.06883 0.78508 0.15442 0.0
C67 C 0.0591 0.85844 0.12091 0.0
O68 O 0.05966 0.79679 0.12915 0.0
O69 O 0.06123 0.84303 0.11344 0.0
C70 C 0.48128 0.79932 0.38019 0.0
O71 O 0.49323 0.80986 0.37386 0.0
Cd72 Cd 0.5237 0.81447 0.38356 0.0
O73 O 0.4849 0.7901 0.39347 0.0
Cd74 Cd 0.51258 0.78866 0.41355 0.0
C75 C 0.524 0.83549 0.42675 0.0
O76 O 0.52938 0.78493 0.38878 0.0
O77 O 0.5443 0.79222 0.4162 0.0
O78 O 0.50155 0.7556 0.41597 0.0
C79 C 0.54386 0.78706 0.39915 0.0
O80 O 0.52994 0.83656 0.41159 0.0
C81 C 0.50534 0.75703 0.43349 0.0
O82 O 0.51547 0.82001 0.43044 0.0
O83 O 0.51162 0.77339 0.44193 0.0
C84 C 0.53465 0.31928 0.67314 0.0
O85 O 0.54534 0.31384 0.68462 0.0
Cd86 Cd 0.57375 0.31138 0.68028 0.0
O87 O 0.539 0.32505 0.65826 0.0
Cd88 Cd 0.56483 0.33073 0.64219 0.0
C89 C 0.56207 0.28395 0.6373 0.0
O90 O 0.58634 0.33966 0.66984 0.0
O91 O 0.59663 0.33432 0.6449 0.0
O92 O 0.55931 0.36115 0.63745 0.0
C93 C 0.59952 0.33898 0.66232 0.0
O94 O 0.56769 0.2863 0.65466 0.0
C95 C 0.55861 0.35931 0.61999 0.0
O96 O 0.55911 0.29759 0.62888 0.0
O97 O 0.56075 0.3439 0.61251 0.0
C98 C 0.98262 0.29139 0.87551 0.0
O99 O 0.99413 0.29943 0.86682 0.0
Cd100 Cd 0.02368 0.3111 0.87954 0.0
O101 O 0.98674 0.2872 0.89178 0.0
Cd102 Cd 0.0147 0.28828 0.91339 0.0
C103 C 0.01942 0.33501 0.92104 0.0
O104 O 0.0326 0.28478 0.88997 0.0
O105 O 0.04693 0.2949 0.91727 0.0
O106 O 0.00537 0.25516 0.91625 0.0
C107 C 0.04712 0.28923 0.90049 0.0
O108 O 0.02301 0.33492 0.90468 0.0
C109 C 0.00865 0.25683 0.93381 0.0
O110 O 0.01556 0.31984 0.9281 0.0
O111 O 0.01386 0.27338 0.94216 0.0
C112 C 0.47366 0.13319 0.33448 0.0
O113 O 0.481 0.12793 0.32132 0.0
Cd114 Cd 0.47252 0.12775 0.28867 0.0
O115 O 0.46001 0.13943 0.33123 0.0
Cd116 Cd 0.44114 0.14459 0.30353 0.0
C117 C 0.43198 0.09912 0.28392 0.0
O118 O 0.46352 0.15607 0.28611 0.0
O119 O 0.43766 0.15063 0.27108 0.0
O120 O 0.43449 0.17321 0.31647 0.0
C121 C 0.45377 0.1559 0.27096 0.0
O122 O 0.4471 0.1018 0.27956 0.0
C123 C 0.41827 0.16632 0.31429 0.0
O124 O 0.42734 0.11188 0.29354 0.0
O125 O 0.41303 0.14907 0.30829 0.0
C126 C 0.29453 0.16689 0.51866 0.0
O127 O 0.28304 0.15755 0.52654 0.0
Cd128 Cd 0.25478 0.16245 0.52813 0.0
O129 O 0.29154 0.18058 0.51034 0.0
Cd130 Cd 0.26652 0.19627 0.50489 0.0
C131 C 0.26657 0.20718 0.55097 0.0
O132 O 0.24313 0.16809 0.49829 0.0
O133 O 0.23492 0.19362 0.50368 0.0
O134 O 0.27125 0.19964 0.473 0.0
C135 C 0.23071 0.17607 0.49913 0.0
O136 O 0.25907 0.19007 0.55045 0.0
C137 C 0.27271 0.21717 0.47427 0.0
O138 O 0.27221 0.21333 0.53677 0.0
O139 O 0.2717 0.22526 0.49 0.0
C140 C 0.15777 0.07905 0.88428 0.0
O141 O 0.15029 0.0919 0.87987 0.0
Cd142 Cd 0.14748 0.10177 0.84967 0.0
O143 O 0.16599 0.07178 0.87306 0.0
Cd144 Cd 0.17337 0.07892 0.84252 0.0
C145 C 0.18731 0.12635 0.84787 0.0
O146 O 0.14324 0.07482 0.82686 0.0
O147 O 0.16365 0.08318 0.81087 0.0
O148 O 0.17649 0.04759 0.83253 0.0
C149 C 0.14764 0.07734 0.8112 0.0
O150 O 0.17156 0.12708 0.84752 0.0
C151 C 0.19263 0.0524 0.83231 0.0
O152 O 0.19164 0.11074 0.8478 0.0
O153 O 0.19999 0.0694 0.83769 0.0
C154 C 0.32097 0.95312 0.02657 0.0
O155 O 0.3108 0.9602 0.01606 0.0
Cd156 Cd 0.28044 0.94862 0.00781 0.0
O157 O 0.31512 0.93864 0.03405 0.0
Cd158 Cd 0.28604 0.91727 0.03484 0.0
C159 C 0.28092 0.90447 0.9879 0.0
O160 O 0.2718 0.94296 0.03685 0.0
O161 O 0.25429 0.91607 0.03344 0.0
O162 O 0.29776 0.91718 0.06746 0.0
C163 C 0.25647 0.93368 0.03604 0.0
O164 O 0.27849 0.92078 0.9864 0.0
C165 C 0.29246 0.8998 0.06785 0.0
O166 O 0.28428 0.89929 0.00385 0.0
O167 O 0.28442 0.8902 0.05268 0.0
C168 C 0.33247 0.45692 0.0411 0.0
O169 O 0.32193 0.46568 0.03351 0.0
Cd170 Cd 0.2916 0.45384 0.025 0.0
O171 O 0.32692 0.44089 0.04607 0.0
Cd172 Cd 0.29774 0.41934 0.04628 0.0
C173 C 0.29252 0.41233 -0.00066 0.0
O174 O 0.28165 0.44325 0.05202 0.0
O175 O 0.26593 0.41564 0.04246 0.0
O176 O 0.30723 0.41573 0.0786 0.0
C177 C 0.26671 0.43245 0.04868 0.0
O178 O 0.28995 0.4288 0.00027 0.0
C179 C 0.30266 0.39803 0.07668 0.0
O180 O 0.29606 0.405 0.01403 0.0
O181 O 0.29645 0.38999 0.06033 0.0
C182 C 0.80518 0.16596 0.02638 0.0
O183 O 0.79483 0.15649 0.03543 0.0
Cd184 Cd 0.76679 0.16099 0.0392 0.0
O185 O 0.80116 0.17951 0.01854 0.0
Cd186 Cd 0.77604 0.1952 0.0156 0.0
C187 C 0.77801 0.20564 0.06242 0.0
O188 O 0.75315 0.1666 0.01009 0.0
O189 O 0.74466 0.19209 0.01501 0.0
O190 O 0.77857 0.19713 0.98308 0.0
C191 C 0.74065 0.17449 0.01092 0.0
O192 O 0.77164 0.18825 0.06191 0.0
C193 C 0.77967 0.21454 0.98349 0.0
O194 O 0.78226 0.21237 0.04785 0.0
O195 O 0.77977 0.22348 -0.00082 0.0
C196 C 0.09763 0.48548 0.25699 0.0
O197 O 0.08843 0.48929 0.24295 0.0
Cd198 Cd 0.09366 0.48696 0.21166 0.0
O199 O 0.1109 0.47889 0.2553 0.0
Cd200 Cd 0.12696 0.46996 0.23073 0.0
C201 C 0.13463 0.51542 0.222 0.0
O202 O 0.10217 0.45821 0.20752 0.0
O203 O 0.12616 0.45999 0.19727 0.0
O204 O 0.13469 0.44436 0.24637 0.0
C205 C 0.10974 0.45646 0.19369 0.0
O206 O 0.119 0.51294 0.21389 0.0
C207 C 0.15092 0.45105 0.24787 0.0
O208 O 0.13997 0.5024 0.2295 0.0
O209 O 0.15568 0.46606 0.24097 0.0
C210 C 0.83085 0.95468 0.53668 0.0
O211 O 0.82012 0.96241 0.52779 0.0
Cd212 Cd 0.78945 0.95141 0.52181 0.0
O213 O 0.82554 0.9398 0.54379 0.0
Cd214 Cd 0.79658 0.91888 0.54541 0.0
C215 C 0.7884 0.90846 0.49842 0.0
O216 O 0.78108 0.9435 0.55038 0.0
O217 O 0.76489 0.91583 0.54283 0.0
O218 O 0.80695 0.91646 0.57786 0.0
C219 C 0.76607 0.93294 0.54817 0.0
O220 O 0.78484 0.92446 0.49843 0.0
C221 C 0.80206 0.89882 0.57667 0.0
O222 O 0.79411 0.90297 0.51355 0.0
O223 O 0.79528 0.89024 0.56066 0.0
C224 C 0.93355 0.04467 0.23433 0.0
O225 O 0.93876 0.03554 0.22161 0.0
Cd226 Cd 0.92263 0.02796 0.19098 0.0
O227 O 0.91933 0.04987 0.23114 0.0
Cd228 Cd 0.89542 0.04828 0.20536 0.0
C229 C 0.8857 0.00077 0.20043 0.0
O230 O 0.91578 0.05764 0.18521 0.0
O231 O 0.88913 0.05038 0.17168 0.0
O232 O 0.89148 0.07644 0.22297 0.0
C233 C 0.90488 0.05734 0.17092 0.0
O234 O 0.89926 0.00079 0.19318 0.0
C235 C 0.87504 0.07153 0.21984 0.0
O236 O 0.88219 0.01604 0.20616 0.0
O237 O 0.86827 0.05613 0.20972 0.0
C238 C 0.30113 0.66729 0.52774 0.0
O239 O 0.28945 0.65824 0.53561 0.0
Cd240 Cd 0.26253 0.66547 0.53941 0.0
O241 O 0.29902 0.68198 0.52065 0.0
Cd242 Cd 0.27512 0.6997 0.51672 0.0
C243 C 0.27634 0.71001 0.56338 0.0
O244 O 0.25121 0.67225 0.50999 0.0
O245 O 0.24362 0.69813 0.51546 0.0
O246 O 0.27864 0.70163 0.4844 0.0
C247 C 0.23905 0.68064 0.51065 0.0
O248 O 0.26898 0.69281 0.56251 0.0
C249 C 0.28046 0.71915 0.48492 0.0
O250 O 0.28127 0.71663 0.54903 0.0
O251 O 0.28064 0.72813 0.50062 0.0
C252 C 0.43028 0.53599 0.73253 0.0
O253 O 0.43543 0.52744 0.71935 0.0
Cd254 Cd 0.41866 0.52296 0.68898 0.0
O255 O 0.41639 0.54181 0.72965 0.0
Cd256 Cd 0.39249 0.54407 0.70571 0.0
C257 C 0.38019 0.49677 0.6969 0.0
O258 O 0.41341 0.55395 0.68648 0.0
O259 O 0.38693 0.55082 0.67322 0.0
O260 O 0.39345 0.57085 0.72795 0.0
C261 C 0.40299 0.55616 0.67272 0.0
O262 O 0.39397 0.49678 0.69007 0.0
C263 C 0.37714 0.56882 0.72618 0.0
O264 O 0.3771 0.51198 0.70354 0.0
O265 O 0.36793 0.55569 0.71421 0.0
C266 C 0.59499 0.9852 0.75914 0.0
O267 O 0.58658 0.98758 0.74391 0.0
Cd268 Cd 0.59671 0.98622 0.71483 0.0
O269 O 0.60911 0.97975 0.75961 0.0
Cd270 Cd 0.62785 0.97032 0.73814 0.0
C271 C 0.63656 0.01587 0.73094 0.0
O272 O 0.60633 0.95792 0.71136 0.0
O273 O 0.63239 0.96425 0.70579 0.0
O274 O 0.63446 0.94402 0.75357 0.0
C275 C 0.61636 0.95852 0.69945 0.0
O276 O 0.62174 0.01327 0.72081 0.0
C277 C 0.65064 0.9514 0.75741 0.0
O278 O 0.64113 0.00276 0.73894 0.0
O279 O 0.65585 0.96716 0.75205 0.0
C280 C 0.79235 0.66337 0.01515 0.0
O281 O 0.78074 0.65316 0.0222 0.0
Cd282 Cd 0.75338 0.65918 0.02591 0.0
O283 O 0.78957 0.67801 0.00846 0.0
Cd284 Cd 0.76467 0.69418 0.00432 0.0
C285 C 0.76753 0.70317 0.05094 0.0
O286 O 0.74074 0.66654 0.99714 0.0
O287 O 0.73344 0.69213 0.00516 0.0
O288 O 0.7687 0.69787 0.97236 0.0
C289 C 0.72872 0.67484 -0.00067 0.0
O290 O 0.76048 0.68586 0.04989 0.0
C291 C 0.77039 0.71544 0.97387 0.0
O292 O 0.77149 0.71035 0.03652 0.0
O293 O 0.76979 0.72343 0.98979 0.0
C294 C 0.97677 0.6347 0.83506 0.0
O295 O 0.98299 0.62779 0.82175 0.0
Cd296 Cd 0.97216 0.62403 0.78926 0.0
O297 O 0.96307 0.64091 0.83201 0.0
Cd298 Cd 0.94276 0.64341 0.80412 0.0
C299 C 0.9318 0.59685 0.78972 0.0
O300 O 0.96335 0.65188 0.78372 0.0
O301 O 0.93687 0.64302 0.77036 0.0
O302 O 0.93731 0.6738 0.81349 0.0
C303 C 0.95261 0.64881 0.76879 0.0
O304 O 0.94619 0.5985 0.78374 0.0
C305 C 0.92113 0.66756 0.81277 0.0
O306 O 0.92821 0.61058 0.79895 0.0
O307 O 0.91541 0.65 0.80929 0.0
C308 C 0.82117 0.45653 0.52935 0.0
O309 O 0.81088 0.46409 0.51959 0.0
Cd310 Cd 0.7804 0.45251 0.51243 0.0
O311 O 0.81538 0.44168 0.53629 0.0
Cd312 Cd 0.78621 0.42051 0.53668 0.0
C313 C 0.77988 0.40949 0.48952 0.0
O314 O 0.77159 0.44582 0.54125 0.0
O315 O 0.75432 0.41879 0.53358 0.0
O316 O 0.79786 0.41981 0.56915 0.0
C317 C 0.75629 0.43601 0.53903 0.0
O318 O 0.77665 0.42561 0.48917 0.0
C319 C 0.79259 0.4024 0.56937 0.0
O320 O 0.78468 0.40395 0.50496 0.0
O321 O 0.78459 0.39295 0.5541 0.0
C322 C 0.6541 0.58006 0.38322 0.0
O323 O 0.64548 0.59125 0.37673 0.0
Cd324 Cd 0.64249 0.59678 0.34481 0.0
O325 O 0.66354 0.57284 0.37349 0.0
Cd326 Cd 0.67152 0.57735 0.34287 0.0
C327 C 0.68071 0.62414 0.34201 0.0
O328 O 0.64153 0.56797 0.32607 0.0
O329 O 0.66181 0.57622 0.30994 0.0
O330 O 0.6788 0.54703 0.34013 0.0
C331 C 0.64604 0.56898 0.31027 0.0
O332 O 0.66444 0.6227 0.3391 0.0
C333 C 0.69443 0.5533 0.33832 0.0
O334 O 0.68685 0.61026 0.34611 0.0
O335 O 0.69961 0.57087 0.33937 0.0
Pr336 Pr 0.01379 0.0461 0.01158 0.0
Pr337 Pr 0.0515 0.06408 0.03356 0.0
C338 C 0.97987 0.04004 0.99768 0.0
C339 C 0.96708 0.05147 -0.00028 0.0
C340 C 0.95194 0.0485 0.98663 0.0
C341 C 0.94001 0.05969 0.98843 0.0
C342 C 0.94299 0.0739 0.00346 0.0
C343 C 0.95823 0.07685 0.01651 0.0
C344 C 0.97023 0.06586 0.01454 0.0
C345 C 0.04098 0.04284 0.99271 0.0
C346 C 0.03032 0.09247 0.01552 0.0
C347 C 0.08571 0.07081 0.04626 0.0
C348 C 0.09869 0.05955 0.04482 0.0
C349 C 0.11481 0.06476 0.05643 0.0
C350 C 0.12706 0.0539 0.05521 0.0
C351 C 0.12336 0.03761 0.04237 0.0
C352 C 0.10714 0.03249 0.03074 0.0
C353 C 0.09492 0.04334 0.03197 0.0
C354 C 0.02448 0.06695 0.05286 0.0
C355 C 0.03459 0.01781 0.03061 0.0
O356 O 0.98566 0.0335 0.01267 0.0
O357 O 0.99211 0.04662 0.98835 0.0
O358 O 0.03991 0.057 0.00297 0.0
O359 O 0.02686 0.02974 0.99057 0.0
O360 O 0.04613 0.09 0.02025 0.0
O361 O 0.01641 0.07879 0.01463 0.0
O362 O 0.07931 0.07599 0.03074 0.0
O363 O 0.07393 0.06499 0.05641 0.0
O364 O 0.02541 0.053 0.04221 0.0
O365 O 0.0387 0.07997 0.05526 0.0
O366 O 0.01882 0.02022 0.02538 0.0
O367 O 0.04857 0.03144 0.03156 0.0
H368 H 0.94937 0.03757 0.97502 0.0
H369 H 0.92834 0.05707 0.97822 0.0
H370 H 0.96099 0.08784 0.02808 0.0
H371 H 0.98204 0.06869 0.02454 0.0
H372 H 0.11789 0.07718 0.06648 0.0
H373 H 0.13933 0.05812 0.06453 0.0
H374 H 0.10395 0.0202 0.02052 0.0
H375 H 0.08252 0.03908 0.02289 0.0
Pr376 Pr 0.29494 0.83288 0.28842 0.0
Pr377 Pr 0.27665 0.79184 0.2666 0.0
C378 C 0.31648 0.8659 0.30199 0.0
C379 C 0.322 0.88402 0.29526 0.0
C380 C 0.30997 0.89432 0.28888 0.0
C381 C 0.31555 0.91117 0.28195 0.0
C382 C 0.33317 0.91782 0.28107 0.0
C383 C 0.34514 0.90749 0.28745 0.0
C384 C 0.3396 0.89079 0.29454 0.0
C385 C 0.25962 0.82655 0.27451 0.0
C386 C 0.29433 0.82473 0.24229 0.0
C387 C 0.25223 0.7624 0.24929 0.0
C388 C 0.24607 0.74246 0.25076 0.0
C389 C 0.25731 0.73019 0.25095 0.0
C390 C 0.25097 0.71119 0.25167 0.0
C391 C 0.23336 0.70421 0.2524 0.0
C392 C 0.22225 0.71658 0.25261 0.0
C393 C 0.22854 0.73552 0.25173 0.0
C394 C 0.31022 0.79213 0.2838 0.0
C395 C 0.28037 0.79963 0.31282 0.0
O396 O 0.32165 0.85196 0.29398 0.0
O397 O 0.30053 0.8613 0.30526 0.0
O398 O 0.27087 0.82084 0.26669 0.0
O399 O 0.26669 0.83697 0.29011 0.0
O400 O 0.285 0.80755 0.2419 0.0
O401 O 0.29993 0.83636 0.25788 0.0
O402 O 0.24931 0.77424 0.2623 0.0
O403 O 0.26738 0.76754 0.24403 0.0
O404 O 0.30269 0.80539 0.28384 0.0
O405 O 0.30009 0.77733 0.27387 0.0
O406 O 0.29204 0.81531 0.313 0.0
O407 O 0.27098 0.79002 0.29722 0.0
H408 H 0.29627 0.88935 0.28912 0.0
H409 H 0.30608 0.91888 0.27708 0.0
H410 H 0.35885 0.91247 0.28722 0.0
H411 H 0.34909 0.88307 0.29939 0.0
H412 H 0.27094 0.73521 0.25038 0.0
H413 H 0.25981 0.70194 0.25161 0.0
H414 H 0.20856 0.71151 0.25291 0.0
H415 H 0.21967 0.74475 0.25157 0.0
Pr416 Pr 0.55583 0.06165 0.5337 0.0
Pr417 Pr 0.51555 0.05424 0.52844 0.0
C418 C 0.58987 0.06189 0.53997 0.0
C419 C 0.60192 0.04941 0.54133 0.0
C420 C 0.61837 0.05542 0.53658 0.0
C421 C 0.63033 0.04418 0.53812 0.0
C422 C 0.6261 0.02667 0.54449 0.0
C423 C 0.60943 0.02051 0.54894 0.0
C424 C 0.59742 0.03181 0.54738 0.0
C425 C 0.54053 0.07744 0.50481 0.0
C426 C 0.53186 0.0205 0.51233 0.0
C427 C 0.4816 0.05417 0.52083 0.0
C428 C 0.46916 0.0662 0.52125 0.0
C429 C 0.45222 0.05824 0.5236 0.0
C430 C 0.44 0.06913 0.52414 0.0
C431 C 0.44446 0.08828 0.52237 0.0
C432 C 0.46149 0.09626 0.51992 0.0
C433 C 0.47379 0.0853 0.51944 0.0
C434 C 0.53057 0.03781 0.55705 0.0
C435 C 0.53981 0.09518 0.55062 0.0
O436 O 0.58061 0.06289 0.55322 0.0
O437 O 0.58133 0.0621 0.5235 0.0
O438 O 0.53491 0.06122 0.50865 0.0
O439 O 0.55497 0.08581 0.51546 0.0
O440 O 0.51808 0.02772 0.51019 0.0
O441 O 0.54676 0.02978 0.52236 0.0
O442 O 0.49199 0.0563 0.50852 0.0
O443 O 0.48903 0.05098 0.53685 0.0
O444 O 0.53644 0.05408 0.55337 0.0
O445 O 0.51582 0.03 0.54666 0.0
O446 O 0.55351 0.08784 0.55228 0.0
O447 O 0.5247 0.08598 0.54093 0.0
H448 H 0.622 0.06891 0.53176 0.0
H449 H 0.64291 0.0492 0.53424 0.0
H450 H 0.60581 0.00715 0.55399 0.0
H451 H 0.58472 0.0269 0.55104 0.0
H452 H 0.4484 0.04352 0.52497 0.0
H453 H 0.42694 0.06246 0.52571 0.0
H454 H 0.46536 0.11098 0.51863 0.0
H455 H 0.48687 0.09172 0.51771 0.0
Pr456 Pr 0.26693 0.30447 0.77255 0.0
Pr457 Pr 0.30678 0.31845 0.77822 0.0
C458 C 0.23362 0.28948 0.77464 0.0
C459 C 0.22055 0.29135 0.7866 0.0
C460 C 0.20573 0.29726 0.77941 0.0
C461 C 0.19293 0.2987 0.79021 0.0
C462 C 0.19457 0.29406 0.80841 0.0
C463 C 0.20953 0.28833 0.81569 0.0
C464 C 0.22241 0.28699 0.8049 0.0
C465 C 0.27884 0.33908 0.76103 0.0
C466 C 0.28815 0.32778 0.81328 0.0
C467 C 0.34012 0.33351 0.77632 0.0
C468 C 0.35321 0.33066 0.76487 0.0
C469 C 0.37055 0.33371 0.77328 0.0
C470 C 0.3832 0.33083 0.76277 0.0
C471 C 0.37873 0.32489 0.74362 0.0
C472 C 0.36133 0.32194 0.73518 0.0
C473 C 0.34864 0.32472 0.74575 0.0
C474 C 0.29474 0.28354 0.78915 0.0
C475 C 0.28536 0.29519 0.73725 0.0
O476 O 0.24648 0.28228 0.78112 0.0
O477 O 0.23829 0.3033 0.76516 0.0
O478 O 0.28485 0.33375 0.77585 0.0
O479 O 0.26557 0.32669 0.75193 0.0
O480 O 0.30137 0.33425 0.80494 0.0
O481 O 0.27465 0.31476 0.80462 0.0
O482 O 0.32715 0.33978 0.7685 0.0
O483 O 0.3355 0.32056 0.78678 0.0
O484 O 0.28891 0.28921 0.77447 0.0
O485 O 0.30788 0.29585 0.79861 0.0
O486 O 0.27195 0.28916 0.74546 0.0
O487 O 0.29922 0.30765 0.74613 0.0
H488 H 0.20399 0.30071 0.76536 0.0
H489 H 0.18173 0.30348 0.78426 0.0
H490 H 0.21112 0.28447 0.82958 0.0
H491 H 0.2337 0.28237 0.81084 0.0
H492 H 0.37429 0.3383 0.78802 0.0
H493 H 0.39654 0.33346 0.76961 0.0
H494 H 0.3575 0.31721 0.72048 0.0
H495 H 0.33528 0.32215 0.73901 0.0
Pr496 Pr 0.02641 0.04792 0.50812 0.0
Pr497 Pr 0.04292 0.06927 0.54511 0.0
C498 C 0.00884 0.02536 0.47763 0.0
C499 C 0.00553 0.02767 0.45786 0.0
C500 C 0.01926 0.03225 0.44781 0.0
C501 C 0.01602 0.03626 0.42964 0.0
C502 C -0.00093 0.03594 0.42131 0.0
C503 C 0.98532 0.03086 0.43117 0.0
C504 C 0.98853 0.02667 0.44926 0.0
C505 C 0.05991 0.06857 0.50812 0.0
C506 C 0.02699 0.0921 0.51214 0.0
C507 C 0.05976 0.09143 0.57611 0.0
C508 C 0.06292 0.08825 0.59562 0.0
C509 C 0.05871 0.10024 0.6093 0.0
C510 C 0.06017 0.09646 0.62765 0.0
C511 C 0.06597 0.08064 0.63265 0.0
C512 C 0.07036 0.06877 0.6189 0.0
C513 C 0.06873 0.07246 0.60055 0.0
C514 C 0.00918 0.0488 0.5443 0.0
C515 C 0.04201 0.02505 0.54123 0.0
O516 O 0.00139 0.03495 0.48859 0.0
O517 O 0.02475 0.02524 0.48469 0.0
O518 O 0.05542 0.05927 0.52095 0.0
O519 O 0.04725 0.06658 0.49447 0.0
O520 O 0.03874 0.09315 0.52698 0.0
O521 O 0.01825 0.07578 0.50323 0.0
O522 O 0.06769 0.08305 0.56464 0.0
O523 O 0.04362 0.0908 0.56934 0.0
O524 O 0.01411 0.0585 0.53198 0.0
O525 O 0.02165 0.04993 0.55796 0.0
O526 O 0.03043 0.02412 0.5263 0.0
O527 O 0.05081 0.0413 0.55025 0.0
H528 H 0.03254 0.03323 0.45409 0.0
H529 H 0.02683 0.0402 0.42232 0.0
H530 H 0.9721 0.03025 0.42491 0.0
H531 H 0.97775 0.02311 0.45671 0.0
H532 H 0.05396 0.11234 0.60571 0.0
H533 H 0.05648 0.10576 0.63785 0.0
H534 H 0.07518 0.05667 0.62231 0.0
H535 H 0.07186 0.06281 0.59021 0.0
Pr536 Pr 0.27593 0.78343 0.77428 0.0
Pr537 Pr 0.29159 0.83069 0.78019 0.0
C538 C 0.2682 0.74719 0.76075 0.0
C539 C 0.27274 0.73015 0.76631 0.0
C540 C 0.28072 0.72974 0.7845 0.0
C541 C 0.28842 0.71499 0.78865 0.0
C542 C 0.28835 0.70077 0.77458 0.0
C543 C 0.27939 0.70066 0.75671 0.0
C544 C 0.2716 0.71527 0.75261 0.0
C545 C 0.27573 0.8004 0.81022 0.0
C546 C 0.31683 0.80231 0.79475 0.0
C547 C 0.2987 0.86718 0.79256 0.0
C548 C 0.29357 0.88385 0.7864 0.0
C549 C 0.30566 0.90101 0.78922 0.0
C550 C 0.30036 0.91731 0.78541 0.0
C551 C 0.28279 0.91669 0.77897 0.0
C552 C 0.27094 0.89922 0.7752 0.0
C553 C 0.2763 0.88297 0.77873 0.0
C554 C 0.29201 0.8134 0.74437 0.0
C555 C 0.25064 0.81188 0.7599 0.0
O556 O 0.28115 0.75939 0.75664 0.0
O557 O 0.25821 0.75463 0.77048 0.0
O558 O 0.28053 0.80782 0.79656 0.0
O559 O 0.27001 0.7825 0.80522 0.0
O560 O 0.3138 0.81933 0.79631 0.0
O561 O 0.30566 0.78737 0.78526 0.0
O562 O 0.28641 0.85483 0.7976 0.0
O563 O 0.30884 0.8598 0.78299 0.0
O564 O 0.28683 0.80628 0.75798 0.0
O565 O 0.29806 0.83125 0.74933 0.0
O566 O 0.25359 0.79483 0.75854 0.0
O567 O 0.26194 0.82684 0.76912 0.0
H568 H 0.28189 0.74131 0.79517 0.0
H569 H 0.29543 0.71537 0.80246 0.0
H570 H 0.27924 0.68978 0.74568 0.0
H571 H 0.26561 0.71551 0.73849 0.0
H572 H 0.31909 0.9019 0.79492 0.0
H573 H 0.30992 0.93044 0.78809 0.0
H574 H 0.25729 0.89809 0.7705 0.0
H575 H 0.26675 0.86982 0.7762 0.0
Pr576 Pr 0.54236 0.04937 0.0492 0.0
Pr577 Pr 0.52884 0.05237 0.00739 0.0
C578 C 0.54855 0.05072 0.08621 0.0
C579 C 0.53983 0.05778 0.10055 0.0
C580 C 0.54495 0.05606 0.11919 0.0
C581 C 0.53683 0.06354 0.13278 0.0
C582 C 0.52351 0.07275 0.12779 0.0
C583 C 0.51831 0.07413 0.10901 0.0
C584 C 0.52641 0.06671 0.09551 0.0
C585 C 0.54352 0.01916 0.02399 0.0
C586 C 0.49965 0.03993 0.03374 0.0
C587 C 0.52142 0.04474 0.97038 0.0
C588 C 0.52938 0.05083 0.95445 0.0
C589 C 0.51937 0.05606 0.9395 0.0
C590 C 0.52625 0.0597 0.9234 0.0
C591 C 0.54317 0.05784 0.92188 0.0
C592 C 0.55347 0.05373 0.93739 0.0
C593 C 0.5467 0.05041 0.95354 0.0
C594 C 0.53138 0.08705 0.02824 0.0
C595 C 0.5707 0.06843 0.02428 0.0
O596 O 0.55662 0.0635 0.07729 0.0
O597 O 0.53941 0.03588 0.07529 0.0
O598 O 0.53132 0.02759 0.02357 0.0
O599 O 0.55556 0.02606 0.03819 0.0
O600 O 0.50265 0.03997 0.01654 0.0
O601 O 0.51222 0.04483 0.04823 0.0
O602 O 0.52968 0.03504 0.98094 0.0
O603 O 0.51481 0.05673 0.97964 0.0
O604 O 0.53496 0.07271 0.03437 0.0
O605 O 0.52622 0.08365 0.01045 0.0
O606 O 0.56704 0.06767 0.0412 0.0
O607 O 0.55903 0.06121 0.0094 0.0
H608 H 0.55529 0.04915 0.12322 0.0
H609 H 0.54099 0.06218 0.14716 0.0
H610 H 0.50832 0.08143 0.10476 0.0
H611 H 0.52241 0.06823 0.08113 0.0
H612 H 0.50605 0.05672 0.94005 0.0
H613 H 0.51807 0.06327 0.9119 0.0
H614 H 0.56647 0.05193 0.93679 0.0
H615 H 0.55484 0.0467 0.96499 0.0
Pr616 Pr 0.26779 0.29528 0.27155 0.0
Pr617 Pr 0.30233 0.32412 0.27964 0.0
C618 C 0.23614 0.27379 0.27211 0.0
C619 C 0.22204 0.27511 0.28264 0.0
C620 C 0.20577 0.26284 0.27724 0.0
C621 C 0.19231 0.26408 0.28722 0.0
C622 C 0.19491 0.27767 0.30274 0.0
C623 C 0.21128 0.28997 0.30805 0.0
C624 C 0.22473 0.28867 0.2981 0.0
C625 C 0.279 0.30907 0.24012 0.0
C626 C 0.26898 0.33935 0.28759 0.0
C627 C 0.33399 0.34502 0.27814 0.0
C628 C 0.34847 0.34271 0.26842 0.0
C629 C 0.36558 0.34982 0.2774 0.0
C630 C 0.37946 0.34715 0.26865 0.0
C631 C 0.37648 0.33736 0.25069 0.0
C632 C 0.35929 0.33037 0.24166 0.0
C633 C 0.34541 0.33292 0.25049 0.0
C634 C 0.29158 0.30963 0.31103 0.0
C635 C 0.3016 0.27973 0.26627 0.0
O636 O 0.25037 0.27133 0.28162 0.0
O637 O 0.23903 0.286 0.26048 0.0
O638 O 0.2798 0.31872 0.25545 0.0
O639 O 0.2715 0.29168 0.24034 0.0
O640 O 0.28443 0.34458 0.28295 0.0
O641 O 0.26151 0.32156 0.28727 0.0
O642 O 0.31982 0.34675 0.26789 0.0
O643 O 0.331 0.3343 0.29105 0.0
O644 O 0.29058 0.30038 0.29545 0.0
O645 O 0.29909 0.32709 0.3111 0.0
O646 O 0.28597 0.2749 0.27051 0.0
O647 O 0.30889 0.29732 0.26528 0.0
H648 H 0.20348 0.25233 0.26529 0.0
H649 H 0.1798 0.25455 0.28264 0.0
H650 H 0.21377 0.30044 0.32005 0.0
H651 H 0.23726 0.29821 0.30252 0.0
H652 H 0.3682 0.35734 0.29126 0.0
H653 H 0.39255 0.35285 0.2759 0.0
H654 H 0.35658 0.32259 0.22793 0.0
H655 H 0.33228 0.3271 0.24336 0.0
Pr656 Pr 0.52623 0.54159 0.00685 0.0
Pr657 Pr 0.54594 0.56684 0.04806 0.0
C658 C 0.50288 0.52257 0.97819 0.0
C659 C 0.49993 0.52411 0.95832 0.0
C660 C 0.51392 0.52811 0.94857 0.0
C661 C 0.51109 0.53149 0.93015 0.0
C662 C 0.4943 0.5312 0.92135 0.0
C663 C 0.4803 0.52688 0.93104 0.0
C664 C 0.48311 0.52331 0.94938 0.0
C665 C 0.56104 0.55923 0.00689 0.0
C666 C 0.52992 0.58808 0.01344 0.0
C667 C 0.56893 0.58515 0.07724 0.0
C668 C 0.57144 0.58181 0.09685 0.0
C669 C 0.56359 0.5909 0.10978 0.0
C670 C 0.56383 0.58585 0.12764 0.0
C671 C 0.57202 0.57169 0.13293 0.0
C672 C 0.58052 0.56318 0.12027 0.0
C673 C 0.58027 0.56821 0.10243 0.0
C674 C 0.51111 0.54918 0.04796 0.0
C675 C 0.54157 0.52024 0.04182 0.0
O676 O 0.49999 0.53641 0.98893 0.0
O677 O 0.51685 0.51696 0.98456 0.0
O678 O 0.55235 0.55933 0.01979 0.0
O679 O 0.55143 0.54859 0.99243 0.0
O680 O 0.54069 0.58971 0.02929 0.0
O681 O 0.52174 0.57173 0.00375 0.0
O682 O 0.57256 0.57278 0.06525 0.0
O683 O 0.55474 0.59059 0.07136 0.0
O684 O 0.51986 0.54906 0.03512 0.0
O685 O 0.52071 0.55975 0.06245 0.0
O686 O 0.53112 0.51876 0.02578 0.0
O687 O 0.5498 0.53653 0.05161 0.0
H688 H 0.52707 0.5291 0.9553 0.0
H689 H 0.52208 0.5349 0.92298 0.0
H690 H 0.4672 0.52637 0.92444 0.0
H691 H 0.4722 0.52038 0.95675 0.0
H692 H 0.55677 0.60152 0.10593 0.0
H693 H 0.5572 0.59268 0.13712 0.0
H694 H 0.58734 0.55258 0.12412 0.0
H695 H 0.58662 0.56105 0.09289 0.0
Pr696 Pr 0.77724 0.28654 0.27749 0.0
Pr697 Pr 0.79476 0.32955 0.2772 0.0
C698 C 0.76136 0.25009 0.27194 0.0
C699 C 0.76724 0.23322 0.27598 0.0
C700 C 0.75537 0.21599 0.27415 0.0
C701 C 0.76131 0.19965 0.27593 0.0
C702 C 0.77923 0.20034 0.27934 0.0
C703 C 0.79097 0.21787 0.28205 0.0
C704 C 0.78501 0.23413 0.28049 0.0
C705 C 0.78185 0.30942 0.31105 0.0
C706 C 0.81914 0.30019 0.29092 0.0
C707 C 0.80803 0.36633 0.28675 0.0
C708 C 0.80173 0.38289 0.29211 0.0
C709 C 0.81096 0.40048 0.28935 0.0
C710 C 0.80407 0.41615 0.29229 0.0
C711 C 0.78783 0.4144 0.29807 0.0
C712 C 0.77888 0.39674 0.30132 0.0
C713 C 0.78571 0.38109 0.2982 0.0
C714 C 0.7977 0.30892 0.24401 0.0
C715 C 0.75321 0.31496 0.26027 0.0
O716 O 0.76869 0.25882 0.25939 0.0
O717 O 0.76012 0.26134 0.28627 0.0
O718 O 0.77665 0.31388 0.29536 0.0
O719 O 0.78446 0.29263 0.30966 0.0
O720 O 0.81717 0.31757 0.292 0.0
O721 O 0.80644 0.28572 0.28354 0.0
O722 O 0.80827 0.35418 0.29866 0.0
O723 O 0.80228 0.35865 0.26962 0.0
O724 O 0.79095 0.30284 0.25733 0.0
O725 O 0.80379 0.32679 0.24786 0.0
O726 O 0.7549 0.29766 0.26133 0.0
O727 O 0.76577 0.32972 0.26725 0.0
H728 H 0.74158 0.21511 0.2708 0.0
H729 H 0.7519 0.18644 0.27409 0.0
H730 H 0.80484 0.21904 0.28438 0.0
H731 H 0.79435 0.24737 0.282 0.0
H732 H 0.82325 0.40201 0.28437 0.0
H733 H 0.81119 0.42948 0.28944 0.0
H734 H 0.76648 0.39495 0.30607 0.0
H735 H 0.7783 0.36753 0.30008 0.0
Pr736 Pr 0.04136 0.55578 0.54959 0.0
Pr737 Pr 0.02721 0.55886 0.50826 0.0
C738 C 0.05537 0.55938 0.58557 0.0
C739 C 0.04768 0.55924 0.60245 0.0
C740 C 0.05817 0.56396 0.61987 0.0
C741 C 0.0507 0.56666 0.63571 0.0
C742 C 0.03267 0.56489 0.63423 0.0
C743 C 0.02219 0.55902 0.61677 0.0
C744 C 0.02964 0.55617 0.60104 0.0
C745 C 0.03515 0.5229 0.52538 0.0
C746 C -0.00057 0.54507 0.53657 0.0
C747 C 0.01661 0.55094 0.47156 0.0
C748 C 0.02416 0.54559 0.45532 0.0
C749 C 0.02468 0.55692 0.44104 0.0
C750 C 0.0331 0.55321 0.42622 0.0
C751 C 0.04104 0.53798 0.42531 0.0
C752 C 0.04027 0.52646 0.4395 0.0
C753 C 0.03191 0.53025 0.45441 0.0
C754 C 0.02521 0.59149 0.53006 0.0
C755 C 0.06935 0.57342 0.52234 0.0
O756 O 0.05413 0.57363 0.57659 0.0
O757 O 0.05165 0.54352 0.57474 0.0
O758 O 0.04236 0.53887 0.52176 0.0
O759 O 0.03108 0.5237 0.54188 0.0
O760 O 0.00254 0.54393 0.51935 0.0
O761 O 0.01184 0.55188 0.5509 0.0
O762 O 0.01325 0.53857 0.48305 0.0
O763 O 0.02337 0.56791 0.47987 0.0
O764 O 0.03067 0.57791 0.53573 0.0
O765 O 0.02014 0.58823 0.51229 0.0
O766 O 0.06671 0.57005 0.53918 0.0
O767 O 0.05675 0.56924 0.50795 0.0
H768 H 0.07214 0.5663 0.62112 0.0
H769 H 0.0591 0.57087 0.649 0.0
H770 H 0.00832 0.55778 0.61499 0.0
H771 H 0.02138 0.55253 0.58764 0.0
H772 H 0.0189 0.56891 0.44157 0.0
H773 H 0.03366 0.5625 0.41565 0.0
H774 H 0.04603 0.51446 0.43905 0.0
H775 H 0.0317 0.5213 0.46526 0.0
Pr776 Pr 0.76392 0.80847 0.27033 0.0
Pr777 Pr 0.80416 0.81776 0.27688 0.0
C778 C 0.72961 0.79749 0.27047 0.0
C779 C 0.7166 0.79685 0.28284 0.0
C780 C 0.7006 0.80065 0.27618 0.0
C781 C 0.68771 0.79956 0.28727 0.0
C782 C 0.69052 0.79456 0.30526 0.0
C783 C 0.70674 0.79112 0.31207 0.0
C784 C 0.7197 0.79228 0.30095 0.0
C785 C 0.77981 0.84253 0.26035 0.0
C786 C 0.78576 0.82667 0.31238 0.0
C787 C 0.8381 0.83054 0.27593 0.0
C788 C 0.85165 0.82718 0.26531 0.0
C789 C 0.86836 0.82848 0.27484 0.0
C790 C 0.8816 0.82567 0.26518 0.0
C791 C 0.87839 0.82153 0.24576 0.0
C792 C 0.86159 0.82019 0.2362 0.0
C793 C 0.84828 0.82291 0.24592 0.0
C794 C 0.78874 0.78297 0.2857 0.0
C795 C 0.78197 0.79787 0.23483 0.0
O796 O 0.74028 0.7864 0.27271 0.0
O797 O 0.73694 0.81396 0.26669 0.0
O798 O 0.78458 0.83607 0.27499 0.0
O799 O 0.76593 0.83163 0.2506 0.0
O800 O 0.79962 0.8324 0.30473 0.0
O801 O 0.77152 0.81553 0.3027 0.0
O802 O 0.82594 0.83771 0.26767 0.0
O803 O 0.83237 0.81771 0.2861 0.0
O804 O 0.78362 0.79013 0.27166 0.0
O805 O 0.80302 0.79334 0.29524 0.0
O806 O 0.76761 0.79429 0.24208 0.0
O807 O 0.7969 0.80747 0.24468 0.0
H808 H 0.69803 0.80433 0.26229 0.0
H809 H 0.67552 0.80268 0.28173 0.0
H810 H 0.7093 0.78712 0.32581 0.0
H811 H 0.73202 0.7894 0.30641 0.0
H812 H 0.87121 0.83181 0.28979 0.0
H813 H 0.89446 0.82708 0.27291 0.0
H814 H 0.85871 0.81688 0.22126 0.0
H815 H 0.83542 0.82174 0.23829 0.0
Pr816 Pr 0.79225 0.32967 0.788 0.0
Pr817 Pr 0.78 0.29171 0.76681 0.0
C818 C 0.8098 0.3642 0.80301 0.0
C819 C 0.81491 0.38261 0.79653 0.0
C820 C 0.80473 0.39583 0.79815 0.0
C821 C 0.80966 0.41326 0.79212 0.0
C822 C 0.82491 0.41787 0.78444 0.0
C823 C 0.83504 0.4046 0.78278 0.0
C824 C 0.83012 0.3872 0.78877 0.0
C825 C 0.7572 0.3215 0.77244 0.0
C826 C 0.79402 0.32462 0.74254 0.0
C827 C 0.76203 0.25769 0.7507 0.0
C828 C 0.75621 0.23843 0.75492 0.0
C829 C 0.76585 0.22504 0.7514 0.0
C830 C 0.75953 0.20642 0.75371 0.0
C831 C 0.74339 0.20081 0.75945 0.0
C832 C 0.73402 0.21433 0.76352 0.0
C833 C 0.74035 0.23293 0.76125 0.0
C834 C 0.81507 0.29987 0.78203 0.0
C835 C 0.77854 0.29663 0.81238 0.0
O836 O 0.81735 0.35118 0.79721 0.0
O837 O 0.79332 0.35793 0.80349 0.0
O838 O 0.76925 0.31782 0.76449 0.0
O839 O 0.7631 0.33001 0.78911 0.0
O840 O 0.78359 0.30807 0.74159 0.0
O841 O 0.80069 0.33471 0.75878 0.0
O842 O 0.75476 0.2704 0.75777 0.0
O843 O 0.77858 0.26382 0.75043 0.0
O844 O 0.80316 0.30355 0.79025 0.0
O845 O 0.80901 0.29147 0.76534 0.0
O846 O 0.78849 0.31348 0.81337 0.0
O847 O 0.77217 0.28636 0.79616 0.0
H848 H 0.79299 0.39274 0.80416 0.0
H849 H 0.80155 0.42316 0.79351 0.0
H850 H 0.84707 0.40785 0.77733 0.0
H851 H 0.83836 0.37742 0.78748 0.0
H852 H 0.77808 0.22883 0.74641 0.0
H853 H 0.76711 0.19634 0.75063 0.0
H854 H 0.72141 0.21042 0.76767 0.0
H855 H 0.73252 0.24287 0.76391 0.0
Pr856 Pr 0.76832 0.79525 0.77169 0.0
Pr857 Pr 0.80234 0.82455 0.78099 0.0
C858 C 0.73655 0.77362 0.77109 0.0
C859 C 0.72219 0.77416 0.78161 0.0
C860 C 0.70553 0.77324 0.77207 0.0
C861 C 0.6919 0.77451 0.78178 0.0
C862 C 0.69462 0.7766 0.80129 0.0
C863 C 0.71134 0.77738 0.81081 0.0
C864 C 0.72499 0.77627 0.80109 0.0
C865 C 0.77993 0.81021 0.74092 0.0
C866 C 0.76849 0.83859 0.78906 0.0
C867 C 0.8339 0.84618 0.78045 0.0
C868 C 0.84839 0.8444 0.77059 0.0
C869 C 0.86548 0.85186 0.77945 0.0
C870 C 0.87939 0.84956 0.77056 0.0
C871 C 0.87644 0.8398 0.7526 0.0
C872 C 0.85926 0.83246 0.74369 0.0
C873 C 0.84536 0.83465 0.75264 0.0
C874 C 0.7912 0.80925 0.81182 0.0
C875 C 0.80263 0.78062 0.76683 0.0
O876 O 0.7507 0.77026 0.77995 0.0
O877 O 0.73961 0.78653 0.7602 0.0
O878 O 0.78027 0.81941 0.75638 0.0
O879 O 0.77274 0.79265 0.74066 0.0
O880 O 0.78393 0.84442 0.78461 0.0
O881 O 0.76136 0.82063 0.78822 0.0
O882 O 0.81973 0.84816 0.77039 0.0
O883 O 0.8309 0.83478 0.79281 0.0
O884 O 0.7906 0.80024 0.7962 0.0
O885 O 0.79854 0.8268 0.81224 0.0
O886 O 0.78692 0.77529 0.77076 0.0
O887 O 0.80962 0.79838 0.76624 0.0
H888 H 0.70309 0.77177 0.75706 0.0
H889 H 0.6793 0.77417 0.77397 0.0
H890 H 0.7139 0.7787 0.82579 0.0
H891 H 0.73775 0.77716 0.80886 0.0
H892 H 0.86807 0.85935 0.79332 0.0
H893 H 0.89247 0.85552 0.77772 0.0
H894 H 0.85657 0.82468 0.72995 0.0
H895 H 0.83225 0.82855 0.74562 0.0
Pr896 Pr 0.51067 0.54684 0.51332 0.0
Pr897 Pr 0.54951 0.56527 0.53288 0.0
C898 C 0.47619 0.54 0.50178 0.0
C899 C 0.46322 0.55111 0.50409 0.0
C900 C 0.44585 0.5441 0.49595 0.0
C901 C 0.43358 0.55479 0.49809 0.0
C902 C 0.43856 0.57274 0.50823 0.0
C903 C 0.45599 0.57967 0.51642 0.0
C904 C 0.46817 0.56887 0.51451 0.0
C905 C 0.53659 0.54377 0.49248 0.0
C906 C 0.52718 0.59318 0.51569 0.0
C907 C 0.58423 0.57256 0.54279 0.0
C908 C 0.5974 0.56148 0.54169 0.0
C909 C 0.61489 0.56961 0.54841 0.0
C910 C 0.6274 0.55902 0.5476 0.0
C911 C 0.62262 0.53996 0.54026 0.0
C912 C 0.605 0.532 0.5333 0.0
C913 C 0.59257 0.5427 0.53386 0.0
C914 C 0.52391 0.56856 0.55411 0.0
C915 C 0.53269 0.51896 0.53136 0.0
O916 O 0.48308 0.53453 0.5169 0.0
O917 O 0.48761 0.54621 0.49136 0.0
O918 O 0.53582 0.55785 0.503 0.0
O919 O 0.52277 0.53041 0.49125 0.0
O920 O 0.54311 0.59081 0.51967 0.0
O921 O 0.5134 0.57955 0.51564 0.0
O922 O 0.5766 0.57585 0.52691 0.0
O923 O 0.57345 0.56802 0.55437 0.0
O924 O 0.52428 0.55446 0.54332 0.0
O925 O 0.53809 0.58153 0.55564 0.0
O926 O 0.51677 0.52122 0.52677 0.0
O927 O 0.54653 0.53264 0.53176 0.0
H928 H 0.44178 0.53039 0.48793 0.0
H929 H 0.42023 0.54913 0.4916 0.0
H930 H 0.46015 0.59332 0.52455 0.0
H931 H 0.48144 0.57438 0.52122 0.0
H932 H 0.61889 0.58418 0.55427 0.0
H933 H 0.64083 0.56585 0.55265 0.0
H934 H 0.60067 0.51739 0.52772 0.0
H935 H 0.57917 0.53627 0.52827 0.0
Pr936 Pr 0.05581 0.56034 0.03359 0.0
Pr937 Pr 0.01581 0.55532 0.02187 0.0
C938 C 0.08871 0.55838 0.0454 0.0
C939 C 0.10066 0.54572 0.04617 0.0
C940 C 0.11739 0.55226 0.04233 0.0
C941 C 0.12934 0.541 0.04344 0.0
C942 C 0.12485 0.52293 0.0485 0.0
C943 C 0.10793 0.51622 0.05203 0.0
C944 C 0.09591 0.52755 0.0509 0.0
C945 C 0.04552 0.57623 0.00231 0.0
C946 C 0.03228 0.52081 0.00872 0.0
C947 C 0.98323 0.55765 0.00884 0.0
C948 C 0.9704 0.56895 0.01123 0.0
C949 C 0.95319 0.55977 0.01128 0.0
C950 C 0.94053 0.56992 0.01301 0.0
C951 C 0.94479 0.58955 0.01469 0.0
C952 C 0.9621 0.59879 0.01469 0.0
C953 C 0.97483 0.58857 0.01305 0.0
C954 C 0.02593 0.53859 0.05267 0.0
C955 C 0.03946 0.59493 0.04766 0.0
O956 O 0.07666 0.55613 0.05588 0.0
O957 O 0.08357 0.56289 0.0291 0.0
O958 O 0.03846 0.56034 0.00591 0.0
O959 O 0.05885 0.58435 0.01474 0.0
O960 O 0.02013 0.52975 0.00351 0.0
O961 O 0.0458 0.52859 0.02165 0.0
O962 O 0.9967 0.5649 0.00146 0.0
O963 O 0.9869 0.54789 0.02219 0.0
O964 O 0.03305 0.55463 0.0494 0.0
O965 O 0.01226 0.53114 0.04041 0.0
O966 O 0.05263 0.58691 0.05095 0.0
O967 O 0.02495 0.58645 0.03637 0.0
H968 H 0.12126 0.5662 0.03856 0.0
H969 H 0.14214 0.54647 0.04027 0.0
H970 H 0.1041 0.5024 0.05606 0.0
H971 H 0.08302 0.52219 0.05388 0.0
H972 H 0.94949 0.54465 0.0098 0.0
H973 H 0.92729 0.56234 0.01265 0.0
H974 H 0.96581 0.61389 0.0161 0.0
H975 H 0.98807 0.59599 0.01313 0.0
C976 C 0.00509 0.22236 0.93371 0.0
C977 C 0.00802 0.2402 0.94378 0.0
C978 C 0.00667 0.20687 0.94279 0.0
C979 C 0.00699 0.18807 0.98738 0.0
H980 H 0.03552 0.15746 0.96712 0.0
C981 C 0.01143 0.11479 0.00792 0.0
C982 C 0.02798 0.11082 0.01034 0.0
C983 C 0.009 0.13146 0.00152 0.0
C984 C 0.02761 0.16593 0.97302 0.0
H985 H 0.01411 0.25557 0.9714 0.0
H986 H 0.01659 0.22832 0.98732 0.0
H987 H 0.03049 0.18451 0.95242 0.0
H988 H 0.05502 0.12156 0.00842 0.0
H989 H 0.05071 0.15051 0.9971 0.0
H990 H 0.00401 0.16925 0.00789 0.0
C991 C 0.01317 0.22643 0.97236 0.0
C992 C 0.02459 0.18131 0.9645 0.0
C993 C 0.01177 0.24202 0.96324 0.0
C994 C 0.0421 0.12414 0.00671 0.0
C995 C 0.03963 0.14069 0.00012 0.0
C996 C 0.00983 0.17248 0.99578 0.0
C997 C 0.01104 0.20878 0.96218 0.0
C998 C 0.01422 0.19253 0.97153 0.0
C999 C 0.02302 0.14442 0.9972 0.0
C1000 C 0.0202 0.16126 0.9887 0.0
H1001 H 0.00215 0.22042 0.91872 0.0
H1002 H 0.00471 0.19339 0.9346 0.0
H1003 H -0.00109 0.19645 0.99307 0.0
H1004 H 0.00027 0.10488 0.01064 0.0
H1005 H 0.99603 0.1339 -0.00068 0.0
C1006 C 0.13056 0.83289 0.16651 0.0
C1007 C 0.11755 0.83943 0.1743 0.0
C1008 C 0.14596 0.83205 0.1777 0.0
C1009 C 0.16413 0.83098 0.22694 0.0
H1010 H 0.20786 0.83949 0.20849 0.0
C1011 C 0.23098 0.83565 0.27246 0.0
C1012 C 0.24224 0.82631 0.26443 0.0
C1013 C 0.21536 0.837 0.26198 0.0
C1014 C 0.1957 0.83693 0.21378 0.0
H1015 H 0.11079 0.85096 0.19976 0.0
H1016 H 0.13782 0.85009 0.21915 0.0
H1017 H 0.18194 0.84348 0.18909 0.0
H1018 H 0.24569 0.81041 0.23942 0.0
H1019 H 0.21857 0.81284 0.2212 0.0
H1020 H 0.1781 0.82474 0.25177 0.0
C1021 C 0.13597 0.84506 0.20452 0.0
C1022 C 0.18082 0.83917 0.20264 0.0
C1023 C 0.12052 0.84573 0.19337 0.0
C1024 C 0.23733 0.8178 0.24597 0.0
C1025 C 0.22185 0.81929 0.23548 0.0
C1026 C 0.17907 0.82892 0.23815 0.0
C1027 C 0.14879 0.83791 0.19691 0.0
C1028 C 0.16479 0.83611 0.20901 0.0
C1029 C 0.21084 0.82917 0.24326 0.0
C1030 C 0.19499 0.83173 0.23162 0.0
H1031 H 0.12862 0.82783 0.15188 0.0
H1032 H 0.15541 0.82625 0.17134 0.0
H1033 H 0.15199 0.82817 0.23222 0.0
H1034 H 0.23445 0.84233 0.28666 0.0
H1035 H 0.20713 0.84472 0.26832 0.0
C1036 C 0.51258 0.85589 0.4488 0.0
C1037 C 0.52596 0.85294 0.43922 0.0
C1038 C 0.51328 0.87358 0.45802 0.0
C1039 C 0.53533 0.92336 0.45791 0.0
H1040 H 0.51412 0.93159 0.50137 0.0
C1041 C 0.54574 0.99543 0.50078 0.0
C1042 C 0.53064 0.00121 0.5039 0.0
C1043 C 0.54482 0.97711 0.49327 0.0
C1044 C 0.51999 0.92942 0.48916 0.0
H1045 H 0.55111 0.86562 0.43288 0.0
H1046 H 0.55288 0.89603 0.44978 0.0
H1047 H 0.51405 0.89973 0.48877 0.0
H1048 H 0.50275 0.99226 0.50191 0.0
H1049 H 0.50121 0.95997 0.48908 0.0
H1050 H 0.54174 0.95312 0.45873 0.0
C1051 C 0.54141 0.8851 0.44951 0.0
C1052 C 0.51992 0.91119 0.48189 0.0
C1053 C 0.54052 0.86759 0.43999 0.0
C1054 C 0.51458 0.98824 0.4995 0.0
C1055 C 0.51371 0.96976 0.49231 0.0
C1056 C 0.53566 0.94153 0.46537 0.0
C1057 C 0.52754 0.88857 0.4581 0.0
C1058 C 0.52765 0.90791 0.46617 0.0
C1059 C 0.52882 0.96409 0.48906 0.0
C1060 C 0.52802 0.94473 0.48105 0.0
H1061 H 0.50113 0.84484 0.44829 0.0
H1062 H 0.50228 0.87567 0.46433 0.0
H1063 H 0.54095 0.9215 0.44548 0.0
H1064 H 0.55831 0.00509 0.50404 0.0
H1065 H 0.55665 0.97303 0.49096 0.0
C1066 C 0.51158 0.31022 0.69242 0.0
C1067 C 0.51689 0.31853 0.6771 0.0
C1068 C 0.49489 0.30931 0.69629 0.0
C1069 C 0.45869 0.33221 0.68968 0.0
H1070 H 0.43409 0.28792 0.7074 0.0
C1071 C 0.39307 0.32866 0.71545 0.0
C1072 C 0.39228 0.32181 0.7326 0.0
C1073 C 0.40653 0.32669 0.7057 0.0
C1074 C 0.44081 0.30039 0.7025 0.0
H1075 H 0.50872 0.33235 0.65376 0.0
H1076 H 0.47944 0.33084 0.66067 0.0
H1077 H 0.46106 0.28755 0.69564 0.0
H1078 H 0.40449 0.30686 0.75261 0.0
H1079 H 0.42803 0.30361 0.73577 0.0
H1080 H 0.43868 0.34523 0.69706 0.0
C1081 C 0.48831 0.32507 0.66966 0.0
C1082 C 0.45624 0.30018 0.69577 0.0
C1083 C 0.50505 0.32589 0.66569 0.0
C1084 C 0.40488 0.31247 0.73953 0.0
C1085 C 0.41825 0.31042 0.72976 0.0
C1086 C 0.44323 0.33243 0.69643 0.0
C1087 C 0.48307 0.31673 0.68499 0.0
C1088 C 0.46558 0.31624 0.68976 0.0
C1089 C 0.41934 0.31769 0.71285 0.0
C1090 C 0.43438 0.31667 0.70337 0.0
H1091 H 0.52033 0.3044 0.70151 0.0
H1092 H 0.49135 0.3031 0.7084 0.0
H1093 H 0.46567 0.34483 0.68526 0.0
H1094 H 0.38356 0.33599 0.70982 0.0
H1095 H 0.40698 0.33232 0.69264 0.0
C1096 C 0.04506 0.87016 0.5912 0.0
C1097 C 0.04999 0.87111 0.61047 0.0
C1098 C 0.04458 0.88648 0.58296 0.0
C1099 C 0.06262 0.93747 0.59049 0.0
H1100 H 0.02259 0.93991 0.55528 0.0
C1101 C 0.05258 0.00756 0.56664 0.0
C1102 C 0.04426 0.00743 0.54845 0.0
C1103 C 0.05376 0.99079 0.57366 0.0
C1104 C 0.03403 0.93945 0.56485 0.0
H1105 H 0.05838 0.89003 0.63612 0.0
H1106 H 0.05773 0.91831 0.62177 0.0
H1107 H 0.02385 0.91081 0.56799 0.0
H1108 H 0.0311 0.98951 0.52321 0.0
H1109 H 0.03364 0.96045 0.53516 0.0
H1110 H 0.07298 0.96595 0.58725 0.0
C1111 C 0.05424 0.905 0.613 0.0
C1112 C 0.0347 0.92273 0.57217 0.0
C1113 C 0.0545 0.88874 0.62124 0.0
C1114 C 0.03748 0.99015 0.53734 0.0
C1115 C 0.03882 0.97341 0.54427 0.0
C1116 C 0.06205 0.95414 0.58303 0.0
C1117 C 0.04928 0.90411 0.59377 0.0
C1118 C 0.04893 0.92158 0.58521 0.0
C1119 C 0.04682 0.97343 0.5626 0.0
C1120 C 0.04767 0.95545 0.5702 0.0
H1121 H 0.04151 0.85681 0.58252 0.0
H1122 H 0.04078 0.88534 0.56808 0.0
H1123 H 0.07388 0.93699 0.60034 0.0
H1124 H 0.05783 0.02061 0.57563 0.0
H1125 H 0.05978 0.99147 0.58792 0.0
C1126 C 0.45545 0.79316 0.88682 0.0
C1127 C 0.46658 0.78886 0.87473 0.0
C1128 C 0.43808 0.79257 0.87993 0.0
C1129 C 0.40189 0.77303 0.843 0.0
H1130 H 0.39104 0.82178 0.84597 0.0
C1131 C 0.34114 0.78573 0.79822 0.0
C1132 C 0.3333 0.79974 0.80486 0.0
C1133 C 0.35673 0.7834 0.80789 0.0
C1134 C 0.39355 0.80793 0.84532 0.0
H1135 H 0.4682 0.77955 0.8463 0.0
H1136 H 0.43768 0.77773 0.83446 0.0
H1137 H 0.41867 0.81823 0.86193 0.0
H1138 H 0.33521 0.8218 0.82717 0.0
H1139 H 0.36177 0.81716 0.84454 0.0
H1140 H 0.37674 0.76248 0.82683 0.0
C1141 C 0.44243 0.78183 0.84914 0.0
C1142 C 0.40948 0.80597 0.85444 0.0
C1143 C 0.45985 0.78291 0.8559 0.0
C1144 C 0.34114 0.81109 0.82155 0.0
C1145 C 0.35647 0.80847 0.83146 0.0
C1146 C 0.38576 0.77486 0.83423 0.0
C1147 C 0.43152 0.78714 0.86098 0.0
C1148 C 0.41388 0.78858 0.85312 0.0
C1149 C 0.36464 0.7947 0.82472 0.0
C1150 C 0.38144 0.79243 0.83498 0.0
H1151 H 0.46039 0.79795 0.90135 0.0
H1152 H 0.42986 0.79677 0.88928 0.0
H1153 H 0.40505 0.75946 0.84181 0.0
H1154 H 0.33539 0.77681 0.78534 0.0
H1155 H 0.36268 0.7729 0.80194 0.0
C1156 C 0.54108 0.24782 0.10052 0.0
C1157 C 0.54673 0.25077 0.1198 0.0
C1158 C 0.5388 0.23007 0.09047 0.0
C1159 C 0.53347 0.17957 0.09655 0.0
H1160 H 0.54845 0.17538 0.04873 0.0
C1161 C 0.53831 0.10848 0.05851 0.0
C1162 C 0.53294 0.10542 0.03921 0.0
C1163 C 0.53974 0.1261 0.06845 0.0
C1164 C 0.54403 0.17626 0.06199 0.0
H1165 H 0.5543 0.23708 0.14352 0.0
H1166 H 0.55055 0.2066 0.12615 0.0
H1167 H 0.55072 0.20618 0.06531 0.0
H1168 H 0.52472 0.11835 0.01527 0.0
H1169 H 0.52706 0.14878 0.03247 0.0
H1170 H 0.52686 0.14964 0.09326 0.0
C1171 C 0.5476 0.21783 0.11874 0.0
C1172 C 0.54529 0.19398 0.07149 0.0
C1173 C 0.54988 0.23546 0.12872 0.0
C1174 C 0.52898 0.12026 0.03012 0.0
C1175 C 0.53044 0.13779 0.03999 0.0
C1176 C 0.53223 0.16185 0.08706 0.0
C1177 C 0.54207 0.21482 0.09947 0.0
C1178 C 0.54008 0.19591 0.08895 0.0
C1179 C 0.53589 0.14104 0.05928 0.0
C1180 C 0.53749 0.15993 0.06963 0.0
H1181 H 0.53852 0.25924 0.09317 0.0
H1182 H 0.53436 0.22826 0.07567 0.0
H1183 H 0.52907 0.18045 0.10983 0.0
H1184 H 0.54146 0.09731 0.06589 0.0
H1185 H 0.54411 0.1281 0.08328 0.0
C1186 C 0.08437 0.29327 0.401 0.0
C1187 C 0.06773 0.29084 0.39066 0.0
C1188 C 0.09844 0.29156 0.3921 0.0
C1189 C 0.10893 0.27155 0.34807 0.0
H1190 H 0.15341 0.30641 0.36372 0.0
C1191 C 0.16973 0.26276 0.31738 0.0
C1192 C 0.18062 0.27898 0.31339 0.0
C1193 C 0.15629 0.26398 0.32738 0.0
C1194 C 0.14104 0.29663 0.35911 0.0
H1195 H 0.05279 0.28478 0.3629 0.0
H1196 H 0.07727 0.28203 0.34748 0.0
H1197 H 0.12928 0.30905 0.37998 0.0
H1198 H 0.1858 0.30923 0.31662 0.0
H1199 H 0.1623 0.31137 0.33398 0.0
H1200 H 0.12051 0.25943 0.3269 0.0
C1201 C 0.07947 0.28496 0.36243 0.0
C1202 C 0.12727 0.29801 0.36857 0.0
C1203 C 0.06545 0.28666 0.3713 0.0
C1204 C 0.17779 0.29647 0.31968 0.0
C1205 C 0.16433 0.2977 0.32966 0.0
C1206 C 0.12268 0.27017 0.33861 0.0
C1207 C 0.09615 0.28736 0.3727 0.0
C1208 C 0.11101 0.28555 0.3631 0.0
C1209 C 0.1534 0.28146 0.33361 0.0
C1210 C 0.13889 0.28274 0.34395 0.0
H1211 H 0.08653 0.29647 0.41594 0.0
H1212 H 0.1111 0.2933 0.40045 0.0
H1213 H 0.09665 0.26157 0.34362 0.0
H1214 H 0.17174 0.24908 0.31299 0.0
H1215 H 0.1483 0.25121 0.33043 0.0
C1216 C 0.90268 0.05321 0.13645 0.0
C1217 C 0.91086 0.06291 0.15382 0.0
C1218 C 0.91057 0.0562 0.12081 0.0
C1219 C 0.94545 0.08607 0.10197 0.0
H1220 H 0.95769 0.03964 0.08671 0.0
C1221 C 0.00818 0.08412 0.07249 0.0
C1222 C 0.00883 0.06824 0.06082 0.0
C1223 C 0.99321 0.08484 0.0801 0.0
C1224 C 0.95413 0.0527 0.09023 0.0
H1225 H 0.93258 0.08452 0.16837 0.0
H1226 H 0.94611 0.09003 0.14104 0.0
H1227 H 0.93509 0.03945 0.10537 0.0
H1228 H 0.99442 0.04083 0.04775 0.0
H1229 H 0.96803 0.04262 0.05959 0.0
H1230 H 0.96465 0.0994 0.08697 0.0
C1231 C 0.93377 0.08005 0.13945 0.0
C1232 C 0.94111 0.05254 0.101 0.0
C1233 C 0.92612 0.07677 0.1551 0.0
C1234 C 0.99421 0.05333 0.05654 0.0
C1235 C 0.97913 0.05427 0.0636 0.0
C1236 C 0.95827 0.0862 0.09081 0.0
C1237 C 0.92646 0.06924 0.12236 0.0
C1238 C 0.93707 0.06926 0.10747 0.0
C1239 C 0.97851 0.06982 0.07586 0.0
C1240 C 0.9632 0.06958 0.08534 0.0
H1241 H 0.8909 0.04243 0.13518 0.0
H1242 H 0.90475 0.04767 0.10773 0.0
H1243 H 0.94251 0.09915 0.10685 0.0
H1244 H 0.01932 0.09579 0.07602 0.0
H1245 H 0.99341 0.09692 0.08974 0.0
C1246 C 0.27746 0.71726 0.45035 0.0
C1247 C 0.2812 0.72826 0.46775 0.0
C1248 C 0.27696 0.72553 0.43398 0.0
C1249 C 0.29272 0.76874 0.41456 0.0
H1250 H 0.25386 0.74884 0.37494 0.0
C1251 C 0.28516 0.80367 0.34761 0.0
C1252 C 0.27857 0.79211 0.33071 0.0
C1253 C 0.28471 0.7964 0.36451 0.0
C1254 C 0.26495 0.75445 0.3857 0.0
H1255 H 0.28771 0.75669 0.48153 0.0
H1256 H 0.2872 0.7712 0.45282 0.0
H1257 H 0.25514 0.73524 0.40392 0.0
H1258 H 0.26619 0.76378 0.31838 0.0
H1259 H 0.26584 0.75096 0.34773 0.0
H1260 H 0.30287 0.78756 0.39628 0.0
C1261 C 0.28455 0.75612 0.45194 0.0
C1262 C 0.26563 0.74667 0.40239 0.0
C1263 C 0.28482 0.74781 0.46837 0.0
C1264 C 0.27124 0.77313 0.33114 0.0
C1265 C 0.27099 0.76579 0.34805 0.0
C1266 C 0.29217 0.77638 0.39779 0.0
C1267 C 0.28041 0.74505 0.43455 0.0
C1268 C 0.27954 0.75369 0.417 0.0
C1269 C 0.27787 0.77728 0.36501 0.0
C1270 C 0.27828 0.76933 0.38307 0.0
H1271 H 0.27457 0.70216 0.44932 0.0
H1272 H 0.27394 0.71662 0.42083 0.0
H1273 H 0.3037 0.77433 0.42548 0.0
H1274 H 0.29078 0.8184 0.34782 0.0
H1275 H 0.28975 0.80585 0.37719 0.0
C1276 C 0.59241 0.95149 0.67251 0.0
C1277 C 0.6096 0.96026 0.68015 0.0
C1278 C 0.58449 0.95662 0.65624 0.0
C1279 C 0.59234 0.98689 0.61855 0.0
H1280 H 0.54537 0.99126 0.62183 0.0
C1281 C 0.55665 0.0363 0.57956 0.0
C1282 C 0.53994 0.0279 0.57 0.0
C1283 C 0.56565 0.02639 0.59119 0.0
C1284 C 0.55843 0.98997 0.62066 0.0
H1285 H 0.63241 0.98039 0.67618 0.0
H1286 H 0.61849 0.9899 0.64832 0.0
H1287 H 0.56026 0.97577 0.64451 0.0
H1288 H 0.51941 0.00271 0.56523 0.0
H1289 H 0.53488 0.98566 0.58606 0.0
H1290 H 0.59056 0.00213 0.59513 0.0
C1291 C 0.61113 0.97872 0.65448 0.0
C1292 C 0.56695 0.98092 0.63354 0.0
C1293 C 0.61915 0.97327 0.67053 0.0
C1294 C 0.53227 0.00955 0.57246 0.0
C1295 C 0.54111 0.99978 0.58433 0.0
C1296 C 0.58387 0.99625 0.60582 0.0
C1297 C 0.59348 0.971 0.64756 0.0
C1298 C 0.58406 0.97929 0.63275 0.0
C1299 C 0.55788 0.00808 0.59375 0.0
C1300 C 0.56687 0.9979 0.60684 0.0
H1301 H 0.58482 0.94131 0.67961 0.0
H1302 H 0.57106 0.9499 0.65098 0.0
H1303 H 0.6054 0.98572 0.61732 0.0
H1304 H 0.56273 0.05052 0.5781 0.0
H1305 H 0.5785 0.03315 0.59851 0.0
C1306 C 0.28794 0.38266 0.97743 0.0
C1307 C 0.29206 0.40225 0.9808 0.0
C1308 C 0.28693 0.37354 0.95952 0.0
C1309 C 0.28367 0.38308 0.91002 0.0
H1310 H 0.29676 0.33575 0.9019 0.0
C1311 C 0.29836 0.35323 0.84001 0.0
C1312 C 0.28834 0.33535 0.8327 0.0
C1313 C 0.29828 0.36055 0.85824 0.0
C1314 C 0.29299 0.34893 0.90404 0.0
H1315 H 0.29915 0.42763 0.96828 0.0
H1316 H 0.29829 0.41197 0.93761 0.0
H1317 H 0.29793 0.35014 0.93358 0.0
H1318 H 0.27074 0.3109 0.8389 0.0
H1319 H 0.27106 0.32356 0.87106 0.0
H1320 H 0.27951 0.38216 0.88046 0.0
C1321 C 0.29499 0.40346 0.94838 0.0
C1322 C 0.29355 0.35715 0.92216 0.0
C1323 C 0.29564 0.4125 0.96608 0.0
C1324 C 0.27851 0.32478 0.84412 0.0
C1325 C 0.27875 0.33194 0.86252 0.0
C1326 C 0.28348 0.37506 0.89199 0.0
C1327 C 0.29033 0.38386 0.94469 0.0
C1328 C 0.28904 0.37446 0.92543 0.0
C1329 C 0.28851 0.34996 0.86966 0.0
C1330 C 0.28823 0.35799 0.88883 0.0
H1331 H 0.28509 0.37439 0.98851 0.0
H1332 H 0.28315 0.35845 0.95727 0.0
H1333 H 0.27956 0.39608 0.91181 0.0
H1334 H 0.30603 0.36172 0.83154 0.0
H1335 H 0.30595 0.37446 0.86349 0.0
C1336 C 0.95749 0.0402 0.25806 0.0
C1337 C 0.94372 0.04879 0.2532 0.0
C1338 C 0.96603 0.0428 0.27635 0.0
C1339 C 0.95717 0.05318 0.3231 0.0
H1340 H 0.00605 0.05526 0.33795 0.0
C1341 C 0.98505 0.05385 0.39907 0.0
C1342 C 0.9957 0.04133 0.40255 0.0
C1343 C 0.98096 0.05819 0.38118 0.0
C1344 C 0.99237 0.05464 0.33397 0.0
H1345 H 0.92887 0.06781 0.2634 0.0
H1346 H 0.94391 0.0725 0.29522 0.0
H1347 H 0.99489 0.05706 0.30557 0.0
H1348 H 0.01097 0.02401 0.39034 0.0
H1349 H 0.0035 0.03123 0.35886 0.0
H1350 H 0.95443 0.05019 0.35118 0.0
C1351 C 0.94785 0.06344 0.285 0.0
C1352 C 0.986 0.05568 0.31548 0.0
C1353 C 0.93925 0.06077 0.26676 0.0
C1354 C 0.00274 0.03373 0.38797 0.0
C1355 C 0.99854 0.03796 0.37001 0.0
C1356 C 0.96351 0.05213 0.3415 0.0
C1357 C 0.961 0.05409 0.29008 0.0
C1358 C 0.96829 0.05474 0.30984 0.0
C1359 C 0.98733 0.04994 0.36639 0.0
C1360 C 0.98113 0.05263 0.3471 0.0
H1361 H 0.96128 0.03094 0.24791 0.0
H1362 H 0.97602 0.03528 0.27988 0.0
H1363 H 0.9434 0.05202 0.31914 0.0
H1364 H 0.97976 0.0602 0.41018 0.0
H1365 H 0.97257 0.06776 0.37888 0.0
C1366 C 0.28832 0.74073 0.58429 0.0
C1367 C 0.27897 0.722 0.58149 0.0
C1368 C 0.29077 0.75149 0.6017 0.0
C1369 C 0.28929 0.74616 0.65151 0.0
H1370 H 0.28571 0.79782 0.65608 0.0
C1371 C 0.28156 0.78505 0.72065 0.0
C1372 C 0.29128 0.80346 0.72571 0.0
C1373 C 0.2809 0.77571 0.70298 0.0
C1374 C 0.28692 0.78345 0.65504 0.0
H1375 H 0.26455 0.70015 0.59487 0.0
H1376 H 0.26854 0.71876 0.62466 0.0
H1377 H 0.28335 0.78069 0.62533 0.0
H1378 H 0.30753 0.82677 0.71607 0.0
H1379 H 0.30635 0.81053 0.68515 0.0
H1380 H 0.29257 0.74878 0.68114 0.0
C1381 C 0.27439 0.72512 0.61368 0.0
C1382 C 0.28561 0.77364 0.6374 0.0
C1383 C 0.27199 0.71444 0.59643 0.0
C1384 C 0.30002 0.81252 0.71259 0.0
C1385 C 0.29927 0.80324 0.69485 0.0
C1386 C 0.2905 0.75591 0.66908 0.0
C1387 C 0.28393 0.74374 0.61667 0.0
C1388 C 0.28654 0.75476 0.63539 0.0
C1389 C 0.28979 0.78467 0.68986 0.0
C1390 C 0.28914 0.77461 0.67109 0.0
H1391 H 0.29387 0.74702 0.57311 0.0
H1392 H 0.29827 0.76576 0.60351 0.0
H1393 H 0.29049 0.73179 0.65059 0.0
H1394 H 0.27421 0.77797 0.73022 0.0
H1395 H 0.27317 0.76156 0.69948 0.0
C1396 C 0.57284 0.9942 0.7767 0.0
C1397 C 0.58969 0.9916 0.77661 0.0
C1398 C 0.56864 0.00323 0.79239 0.0
C1399 C 0.5843 0.01955 0.8425 0.0
H1400 H 0.55249 0.05203 0.83412 0.0
C1401 C 0.56709 0.06324 0.90271 0.0
C1402 C 0.54932 0.05758 0.90369 0.0
C1403 C 0.57328 0.05882 0.8864 0.0
C1404 C 0.5615 0.04313 0.83659 0.0
H1405 H 0.61524 0.99585 0.79306 0.0
H1406 H 0.60808 0.01205 0.82023 0.0
H1407 H 0.56071 0.03547 0.80768 0.0
H1408 H 0.52401 0.04432 0.88761 0.0
H1409 H 0.53479 0.03745 0.8591 0.0
H1410 H 0.58511 0.02741 0.87146 0.0
C1411 C 0.59796 0.00681 0.80837 0.0
C1412 C 0.56605 0.03345 0.82151 0.0
C1413 C 0.60208 0.99749 0.79277 0.0
C1414 C 0.53773 0.04911 0.88744 0.0
C1415 C 0.5439 0.04505 0.87106 0.0
C1416 C 0.57996 0.02947 0.85756 0.0
C1417 C 0.58129 0.01016 0.80822 0.0
C1418 C 0.5772 0.02121 0.82428 0.0
C1419 C 0.56176 0.04912 0.87067 0.0
C1420 C 0.56828 0.04105 0.85472 0.0
H1421 H 0.563 0.98968 0.76447 0.0
H1422 H 0.55552 0.00505 0.79197 0.0
H1423 H 0.59275 0.01012 0.84519 0.0
H1424 H 0.57634 0.07026 0.9148 0.0
H1425 H 0.58711 0.06229 0.88628 0.0
C1426 C 0.3091 0.39716 0.11093 0.0
C1427 C 0.30337 0.38754 0.09295 0.0
C1428 C 0.30823 0.38762 0.12647 0.0
C1429 C 0.28472 0.34407 0.14116 0.0
H1430 H 0.31915 0.3594 0.18566 0.0
C1431 C 0.28045 0.30571 0.20615 0.0
C1432 C 0.28364 0.31707 0.22326 0.0
C1433 C 0.28414 0.31342 0.19005 0.0
C1434 C 0.30936 0.35503 0.17338 0.0
H1435 H 0.29276 0.3602 0.07721 0.0
H1436 H 0.2915 0.34347 0.10432 0.0
H1437 H 0.32362 0.37417 0.15784 0.0
H1438 H 0.29354 0.34535 0.23704 0.0
H1439 H 0.3 0.35883 0.209 0.0
H1440 H 0.27041 0.32503 0.15675 0.0
C1441 C 0.29639 0.35848 0.10643 0.0
C1442 C 0.31191 0.3635 0.15741 0.0
C1443 C 0.29724 0.36805 0.09086 0.0
C1444 C 0.29096 0.33623 0.22405 0.0
C1445 C 0.29474 0.34393 0.20798 0.0
C1446 C 0.2822 0.33555 0.15711 0.0
C1447 C 0.30163 0.36818 0.12446 0.0
C1448 C 0.29953 0.35829 0.14113 0.0
C1449 C 0.29121 0.33266 0.19074 0.0
C1450 C 0.29439 0.34106 0.17349 0.0
H1451 H 0.31384 0.41219 0.11307 0.0
H1452 H 0.31218 0.39562 0.14009 0.0
H1453 H 0.27475 0.33988 0.12901 0.0
H1454 H 0.2749 0.29087 0.20513 0.0
H1455 H 0.28147 0.30429 0.17706 0.0
C1456 C 0.24529 0.96275 0.03833 0.0
C1457 C 0.24192 0.94315 0.03641 0.0
C1458 C 0.23179 0.97198 0.03835 0.0
C1459 C 0.18653 0.96647 0.04608 0.0
H1460 H 0.18851 0.00977 0.01972 0.0
C1461 C 0.13129 0.00641 0.03885 0.0
C1462 C 0.13638 0.02603 0.04111 0.0
C1463 C 0.14356 0.99556 0.03772 0.0
C1464 C 0.18783 0.99782 0.0273 0.0
H1465 H 0.22168 0.91785 0.0332 0.0
H1466 H 0.19794 0.93404 0.03316 0.0
H1467 H 0.21081 0.99201 0.01869 0.0
H1468 H 0.15836 0.04959 0.04372 0.0
H1469 H 0.17976 0.03072 0.04205 0.0
H1470 H 0.16358 0.97241 0.05478 0.0
C1471 C 0.21112 0.94224 0.03476 0.0
C1472 C 0.20062 0.98762 0.0267 0.0
C1473 C 0.22469 0.93296 0.0347 0.0
C1474 C 0.15402 0.03453 0.04217 0.0
C1475 C 0.16626 0.02369 0.04099 0.0
C1476 C 0.17371 0.9767 0.04668 0.0
C1477 C 0.21452 0.96187 0.03646 0.0
C1478 C 0.20026 0.97196 0.03627 0.0
C1479 C 0.1612 0.00408 0.03873 0.0
C1480 C 0.17433 0.99263 0.03747 0.0
H1481 H 0.25842 0.97105 0.03978 0.0
H1482 H 0.23493 0.9871 0.04004 0.0
H1483 H 0.18595 0.95458 0.05374 0.0
H1484 H 0.11783 0.99942 0.03817 0.0
H1485 H 0.1392 0.9805 0.03584 0.0
C1486 C 0.69938 0.67148 0.00879 0.0
C1487 C 0.71075 0.66412 0.99889 0.0
C1488 C 0.68295 0.66064 0.00968 0.0
C1489 C 0.64902 0.62121 0.98571 0.0
H1490 H 0.63633 0.61454 0.0341 0.0
C1491 C 0.58816 0.56667 0.99333 0.0
C1492 C 0.57862 0.57067 0.0072 0.0
C1493 C 0.60433 0.57815 0.99271 0.0
C1494 C 0.63947 0.61646 0.02044 0.0
H1495 H 0.71365 0.63988 0.98169 0.0
H1496 H 0.68475 0.62112 0.98274 0.0
H1497 H 0.66389 0.6352 0.0317 0.0
H1498 H 0.5784 0.58975 0.03134 0.0
H1499 H 0.60631 0.61029 0.02993 0.0
H1500 H 0.62454 0.60305 0.97429 0.0
C1501 C 0.68864 0.63523 0.99 0.0
C1502 C 0.65532 0.62826 0.0191 0.0
C1503 C 0.70518 0.64591 0.98941 0.0
C1504 C 0.5856 0.58626 0.0206 0.0
C1505 C 0.60165 0.59798 0.01979 0.0
C1506 C 0.63305 0.60968 0.987 0.0
C1507 C 0.67747 0.64237 0.00035 0.0
C1508 C 0.66031 0.6306 0.00173 0.0
C1509 C 0.61121 0.59418 0.00573 0.0
C1510 C 0.6281 0.60694 0.0044 0.0
H1511 H 0.70335 0.68546 0.01633 0.0
H1512 H 0.67454 0.66649 0.01765 0.0
H1513 H 0.65249 0.62293 0.97213 0.0
H1514 H 0.58309 0.55466 0.98288 0.0
H1515 H 0.6114 0.57439 0.98196 0.0
C1516 C 0.69843 0.52169 0.32784 0.0
C1517 C 0.7057 0.54067 0.334 0.0
C1518 C 0.70882 0.50991 0.32245 0.0
C1519 C 0.75235 0.50285 0.32976 0.0
H1520 H 0.7376 0.47041 0.28304 0.0
C1521 C 0.79015 0.44848 0.30779 0.0
C1522 C 0.77996 0.43076 0.30014 0.0
C1523 C 0.78254 0.46371 0.3101 0.0
C1524 C 0.74184 0.47928 0.29619 0.0
H1525 H 0.72955 0.56219 0.33969 0.0
H1526 H 0.74786 0.54131 0.3307 0.0
H1527 H 0.72132 0.49355 0.29116 0.0
H1528 H 0.7539 0.41533 0.28817 0.0
H1529 H 0.74055 0.44154 0.29298 0.0
H1530 H 0.77232 0.48805 0.33531 0.0
C1531 C 0.73408 0.53571 0.32989 0.0
C1532 C 0.73256 0.49254 0.30077 0.0
C1533 C 0.72362 0.54759 0.33502 0.0
C1534 C 0.76208 0.4287 0.29447 0.0
C1535 C 0.75446 0.44384 0.29692 0.0
C1536 C 0.76151 0.4894 0.32531 0.0
C1537 C 0.7267 0.51683 0.32336 0.0
C1538 C 0.73755 0.50417 0.31774 0.0
C1539 C 0.76456 0.4615 0.30489 0.0
C1540 C 0.75613 0.47719 0.30863 0.0
H1541 H 0.68464 0.51599 0.32683 0.0
H1542 H 0.7029 0.49533 0.31767 0.0
H1543 H 0.75636 0.51163 0.34298 0.0
H1544 H 0.80395 0.45052 0.31236 0.0
H1545 H 0.79072 0.47717 0.31608 0.0
C1546 C 0.84643 0.479 0.52171 0.0
C1547 C 0.83995 0.46537 0.53265 0.0
C1548 C 0.86391 0.48806 0.52497 0.0
C1549 C 0.90737 0.48491 0.54752 0.0
H1550 H 0.91886 0.53679 0.53893 0.0
C1551 C 0.97804 0.53053 0.55603 0.0
C1552 C 0.98148 0.53791 0.53962 0.0
C1553 C 0.961 0.52236 0.558 0.0
C1554 C 0.91583 0.52234 0.54147 0.0
H1555 H 0.84688 0.4504 0.5555 0.0
H1556 H 0.87755 0.4666 0.5615 0.0
H1557 H 0.88863 0.52094 0.5374 0.0
H1558 H 0.96982 0.54315 0.51275 0.0
H1559 H 0.94015 0.52947 0.51644 0.0
H1560 H 0.93479 0.48657 0.55162 0.0
C1561 C 0.86906 0.47008 0.55021 0.0
C1562 C 0.89852 0.51318 0.54046 0.0
C1563 C 0.85148 0.46082 0.54681 0.0
C1564 C 0.96757 0.53752 0.52552 0.0
C1565 C 0.95059 0.52977 0.52766 0.0
C1566 C 0.92477 0.49421 0.54879 0.0
C1567 C 0.87544 0.48397 0.53942 0.0
C1568 C 0.894 0.49417 0.54287 0.0
C1569 C 0.94715 0.52191 0.54379 0.0
C1570 C 0.92909 0.51285 0.54526 0.0
H1571 H 0.83798 0.48269 0.51051 0.0
H1572 H 0.86838 0.49824 0.516 0.0
H1573 H 0.9044 0.47027 0.54937 0.0
H1574 H 0.98854 0.53055 0.56707 0.0
H1575 H 0.95863 0.51641 0.57058 0.0
C1576 C 0.4113 0.19762 0.31529 0.0
C1577 C 0.40581 0.17828 0.3154 0.0
C1578 C 0.39918 0.20834 0.31133 0.0
C1579 C 0.35518 0.20197 0.28552 0.0
H1580 H 0.36169 0.25441 0.3035 0.0
C1581 C 0.33032 0.27179 0.26606 0.0
C1582 C 0.31241 0.26588 0.26603 0.0
C1583 C 0.34135 0.26009 0.27078 0.0
C1584 C 0.35985 0.2398 0.29824 0.0
H1585 H 0.38341 0.15533 0.31352 0.0
H1586 H 0.36222 0.17419 0.30728 0.0
H1587 H 0.381 0.23645 0.31783 0.0
H1588 H 0.29183 0.24242 0.2689 0.0
H1589 H 0.31116 0.22191 0.27689 0.0
H1590 H 0.33381 0.20538 0.26611 0.0
C1591 C 0.37588 0.18094 0.30953 0.0
C1592 C 0.37085 0.22952 0.30648 0.0
C1593 C 0.388 0.17018 0.3133 0.0
C1594 C 0.30558 0.24743 0.26896 0.0
C1595 C 0.31662 0.23567 0.27353 0.0
C1596 C 0.34406 0.21223 0.27741 0.0
C1597 C 0.38136 0.19994 0.30764 0.0
C1598 C 0.36875 0.21052 0.3001 0.0
C1599 C 0.33464 0.24224 0.27531 0.0
C1600 C 0.34644 0.23128 0.28356 0.0
H1601 H 0.42495 0.20424 0.31684 0.0
H1602 H 0.40387 0.22292 0.30993 0.0
H1603 H 0.35342 0.18745 0.28001 0.0
H1604 H 0.33601 0.28587 0.2637 0.0
H1605 H 0.3552 0.26529 0.27171 0.0
C1606 C 0.31558 0.14889 0.53141 0.0
C1607 C 0.31141 0.16146 0.51925 0.0
C1608 C 0.33091 0.14277 0.5316 0.0
C1609 C 0.37431 0.15245 0.51761 0.0
H1610 H 0.37037 0.09998 0.52261 0.0
C1611 C 0.4293 0.11243 0.51027 0.0
C1612 C 0.43119 0.09961 0.52298 0.0
C1613 C 0.41561 0.12159 0.50979 0.0
C1614 C 0.37175 0.1147 0.52139 0.0
H1615 H 0.32042 0.17789 0.4981 0.0
H1616 H 0.34724 0.16685 0.49821 0.0
H1617 H 0.34476 0.11278 0.52132 0.0
H1618 H 0.42095 0.0874 0.54601 0.0
H1619 H 0.39717 0.10323 0.54511 0.0
H1620 H 0.40144 0.15413 0.5175 0.0
C1621 C 0.33863 0.16191 0.50772 0.0
C1622 C 0.35705 0.12207 0.52066 0.0
C1623 C 0.32324 0.16817 0.50761 0.0
C1624 C 0.41962 0.09683 0.53574 0.0
C1625 C 0.40599 0.10591 0.53524 0.0
C1626 C 0.38909 0.145 0.51824 0.0
C1627 C 0.34248 0.14887 0.51953 0.0
C1628 C 0.35816 0.14109 0.5191 0.0
C1629 C 0.40357 0.11805 0.52199 0.0
C1630 C 0.38798 0.1261 0.52045 0.0
H1631 H 0.30694 0.14364 0.5408 0.0
H1632 H 0.33365 0.13314 0.54123 0.0
H1633 H 0.37563 0.16717 0.51647 0.0
H1634 H 0.43795 0.11482 0.5002 0.0
H1635 H 0.41406 0.13083 0.49939 0.0
C1636 C 0.68607 0.65337 0.32711 0.0
C1637 C 0.69246 0.64136 0.33862 0.0
C1638 C 0.69738 0.66844 0.32198 0.0
C1639 C 0.73832 0.70152 0.33494 0.0
H1640 H 0.73793 0.7024 0.28217 0.0
C1641 C 0.78557 0.75878 0.3073 0.0
C1642 C 0.77917 0.76555 0.29117 0.0
C1643 C 0.77599 0.74286 0.31307 0.0
C1644 C 0.73806 0.70257 0.29694 0.0
H1645 H 0.7156 0.63618 0.3544 0.0
H1646 H 0.73534 0.66308 0.34586 0.0
H1647 H 0.7188 0.67689 0.29308 0.0
H1648 H 0.75814 0.76068 0.268 0.0
H1649 H 0.74093 0.73364 0.27853 0.0
H1650 H 0.75691 0.72758 0.33894 0.0
C1651 C 0.72159 0.66054 0.34067 0.0
C1652 C 0.72717 0.68788 0.30315 0.0
C1653 C 0.71032 0.6452 0.34551 0.0
C1654 C 0.76325 0.75591 0.28066 0.0
C1655 C 0.7535 0.74022 0.28659 0.0
C1656 C 0.74898 0.71645 0.32873 0.0
C1657 C 0.71522 0.67201 0.32855 0.0
C1658 C 0.72716 0.68731 0.32217 0.0
C1659 C 0.75967 0.73353 0.30295 0.0
C1660 C 0.74892 0.71723 0.30963 0.0
H1661 H 0.6724 0.65073 0.32149 0.0
H1662 H 0.69221 0.67722 0.31271 0.0
H1663 H 0.73843 0.70135 0.34968 0.0
H1664 H 0.79792 0.76588 0.31557 0.0
H1665 H 0.78138 0.73792 0.32549 0.0
C1666 C 0.90475 0.57545 0.79514 0.0
C1667 C 0.91883 0.5789 0.78548 0.0
C1668 C 0.89244 0.55853 0.79113 0.0
C1669 C 0.88705 0.50986 0.77038 0.0
H1670 H 0.83897 0.50688 0.77551 0.0
C1671 C 0.83911 0.4392 0.76362 0.0
C1672 C 0.83099 0.4368 0.77929 0.0
C1673 C 0.84721 0.457 0.76038 0.0
C1674 C 0.85234 0.50755 0.77394 0.0
H1675 H 0.93077 0.56755 0.76364 0.0
H1676 H 0.90907 0.53817 0.75636 0.0
H1677 H 0.8587 0.53741 0.77732 0.0
H1678 H 0.82408 0.4513 0.80321 0.0
H1679 H 0.83806 0.48237 0.79741 0.0
H1680 H 0.88075 0.48003 0.76728 0.0
C1681 C 0.90775 0.54836 0.76734 0.0
C1682 C 0.86367 0.52499 0.77508 0.0
C1683 C 0.92018 0.5652 0.7715 0.0
C1684 C 0.8301 0.45267 0.79093 0.0
C1685 C 0.83811 0.47048 0.78761 0.0
C1686 C 0.87569 0.49246 0.76906 0.0
C1687 C 0.89381 0.54475 0.77722 0.0
C1688 C 0.88126 0.52634 0.7738 0.0
C1689 C 0.84723 0.47275 0.77267 0.0
C1690 C 0.85835 0.49114 0.77127 0.0
H1691 H 0.90336 0.58571 0.80602 0.0
H1692 H 0.88208 0.55611 0.79928 0.0
H1693 H 0.90054 0.51033 0.7696 0.0
H1694 H 0.83967 0.42726 0.75417 0.0
H1695 H 0.85396 0.45842 0.74861 0.0
C1696 C 0.0542 0.87139 0.09056 0.0
C1697 C 0.05611 0.87373 0.11002 0.0
C1698 C 0.05167 0.88611 0.08053 0.0
C1699 C 0.05917 0.93749 0.08592 0.0
H1700 H 0.02482 0.92985 0.04145 0.0
C1701 C 0.05372 0.99699 0.04191 0.0
C1702 C 0.03695 0.99968 0.03647 0.0
C1703 C 0.05612 0.98074 0.04918 0.0
C1704 C 0.03444 0.9322 0.05387 0.0
H1705 H 0.05666 0.89331 0.13415 0.0
H1706 H 0.05231 0.91882 0.11674 0.0
H1707 H 0.02871 0.90323 0.05777 0.0
H1708 H 0.00953 0.98694 0.03376 0.0
H1709 H 0.01374 0.95855 0.04652 0.0
H1710 H 0.06475 0.96641 0.0823 0.0
C1711 C 0.0529 0.90571 0.1092 0.0
C1712 C 0.03677 0.91693 0.06311 0.0
C1713 C 0.05531 0.89103 0.11919 0.0
C1714 C 0.02263 0.98535 0.03781 0.0
C1715 C 0.02504 0.96904 0.04506 0.0
C1716 C 0.05693 0.95268 0.07663 0.0
C1717 C 0.05116 0.9035 0.08977 0.0
C1718 C 0.04906 0.91945 0.07936 0.0
C1719 C 0.04182 0.96672 0.05119 0.0
C1720 C 0.04448 0.95027 0.06055 0.0
H1721 H 0.05474 0.85824 0.08308 0.0
H1722 H 0.05047 0.884 0.06557 0.0
H1723 H 0.06888 0.93989 0.09827 0.0
H1724 H 0.06509 0.00761 0.04094 0.0
H1725 H 0.06922 0.97926 0.05344 0.0
C1726 C 0.9602 0.28587 0.84728 0.0
C1727 C 0.9643 0.28813 0.86669 0.0
C1728 C 0.94356 0.2858 0.83857 0.0
C1729 C 0.89807 0.28317 0.8459 0.0
H1730 H 0.89691 0.31032 0.80318 0.0
C1731 C 0.83623 0.30361 0.81133 0.0
C1732 C 0.83241 0.29973 0.79191 0.0
C1733 C 0.85217 0.30209 0.82084 0.0
C1734 C 0.89701 0.30258 0.81499 0.0
H1735 H 0.954 0.29124 0.89225 0.0
H1736 H 0.92485 0.2916 0.87703 0.0
H1737 H 0.92456 0.30693 0.81921 0.0
H1738 H 0.84235 0.29167 0.76717 0.0
H1739 H 0.87033 0.28929 0.78377 0.0
H1740 H 0.8704 0.27923 0.84175 0.0
C1741 C 0.93447 0.28958 0.8685 0.0
C1742 C 0.91285 0.30053 0.82416 0.0
C1743 C 0.95115 0.28937 0.87725 0.0
C1744 C 0.84497 0.29476 0.78214 0.0
C1745 C 0.86098 0.29344 0.79164 0.0
C1746 C 0.88219 0.28538 0.83679 0.0
C1747 C 0.93063 0.28833 0.84905 0.0
C1748 C 0.91361 0.29063 0.83961 0.0
C1749 C 0.86467 0.29689 0.8111 0.0
C1750 C 0.8815 0.29498 0.82115 0.0
H1751 H 0.97002 0.28463 0.83877 0.0
H1752 H 0.94096 0.28419 0.82357 0.0
H1753 H 0.89813 0.27534 0.85764 0.0
H1754 H 0.82678 0.30748 0.81923 0.0
H1755 H 0.85474 0.30505 0.83582 0.0
C1756 C 0.55569 0.26166 0.60767 0.0
C1757 C 0.55884 0.2649 0.62715 0.0
C1758 C 0.55332 0.24356 0.59847 0.0
C1759 C 0.53996 0.20207 0.58303 0.0
H1760 H 0.56827 0.17066 0.60494 0.0
C1761 C 0.52724 0.12257 0.55925 0.0
C1762 C 0.54174 0.1147 0.55899 0.0
C1763 C 0.52925 0.14118 0.56674 0.0
C1764 C 0.56038 0.17926 0.59848 0.0
H1765 H 0.56129 0.25153 0.65218 0.0
H1766 H 0.55683 0.22027 0.63628 0.0
H1767 H 0.57221 0.20266 0.61886 0.0
H1768 H 0.56977 0.12037 0.56605 0.0
H1769 H 0.57328 0.15274 0.57873 0.0
H1770 H 0.52844 0.17866 0.56233 0.0
C1771 C 0.55667 0.23165 0.62803 0.0
C1772 C 0.56247 0.19758 0.60663 0.0
C1773 C 0.55915 0.24964 0.63717 0.0
C1774 C 0.55828 0.12588 0.56624 0.0
C1775 C 0.5603 0.14448 0.57358 0.0
C1776 C 0.53791 0.18369 0.57478 0.0
C1777 C 0.55398 0.22838 0.60859 0.0
C1778 C 0.55217 0.20918 0.59916 0.0
C1779 C 0.54581 0.15236 0.57404 0.0
C1780 C 0.54805 0.17202 0.58248 0.0
H1781 H 0.55537 0.27311 0.59955 0.0
H1782 H 0.55135 0.24152 0.58347 0.0
H1783 H 0.53174 0.21059 0.57698 0.0
H1784 H 0.51431 0.11435 0.55374 0.0
H1785 H 0.51779 0.1467 0.56708 0.0
C1786 C 0.5762 0.79198 0.40234 0.0
C1787 C 0.55974 0.78618 0.39128 0.0
C1788 C 0.59118 0.79186 0.39455 0.0
C1789 C 0.60653 0.77107 0.3542 0.0
H1790 H 0.64441 0.81507 0.36466 0.0
C1791 C 0.65919 0.78435 0.30826 0.0
C1792 C 0.67638 0.79255 0.3166 0.0
C1793 C 0.64575 0.78274 0.31866 0.0
C1794 C 0.63408 0.80255 0.36182 0.0
H1795 H 0.54605 0.77539 0.36349 0.0
H1796 H 0.5721 0.77514 0.34995 0.0
H1797 H 0.61949 0.81355 0.3807 0.0
H1798 H 0.69291 0.8054 0.34253 0.0
H1799 H 0.66942 0.80222 0.36083 0.0
H1800 H 0.62098 0.76008 0.33527 0.0
C1801 C 0.57347 0.7797 0.36464 0.0
C1802 C 0.6198 0.80169 0.371 0.0
C1803 C 0.55854 0.77995 0.37238 0.0
C1804 C 0.67983 0.79889 0.3357 0.0
C1805 C 0.66635 0.79725 0.34614 0.0
C1806 C 0.62081 0.77188 0.3451 0.0
C1807 C 0.58995 0.78575 0.3756 0.0
C1808 C 0.60574 0.78607 0.36705 0.0
C1809 C 0.64914 0.78919 0.33772 0.0
C1810 C 0.63463 0.78777 0.34855 0.0
H1811 H 0.57754 0.79685 0.41696 0.0
H1812 H 0.60371 0.79646 0.40336 0.0
H1813 H 0.59603 0.75871 0.35111 0.0
H1814 H 0.65609 0.77906 0.29365 0.0
H1815 H 0.63264 0.77669 0.31165 0.0
C1816 C 0.023 0.24637 0.46324 0.0
C1817 C 0.01395 0.24608 0.44534 0.0
C1818 C 0.023 0.22973 0.471 0.0
C1819 C 0.01586 0.17863 0.45709 0.0
H1820 H 0.01676 0.176 0.50965 0.0
C1821 C 0.013 0.10902 0.48827 0.0
C1822 C 0.02416 0.10961 0.505 0.0
C1823 C 0.0108 0.12554 0.48131 0.0
C1824 C 0.01666 0.17653 0.49496 0.0
H1825 H 0.99722 0.22808 0.42188 0.0
H1826 H 0.99689 0.19923 0.43552 0.0
H1827 H 0.01427 0.20496 0.49718 0.0
H1828 H 0.04164 0.12819 0.52761 0.0
H1829 H 0.03786 0.1569 0.51547 0.0
H1830 H 0.01829 0.15023 0.45487 0.0
C1831 C 0.00435 0.21223 0.44344 0.0
C1832 C 0.01524 0.19317 0.48779 0.0
C1833 C 0.0044 0.22883 0.43567 0.0
C1834 C 0.03291 0.12716 0.5147 0.0
C1835 C 0.03066 0.14366 0.50778 0.0
C1836 C 0.01721 0.16199 0.46424 0.0
C1837 C 0.01391 0.21238 0.46108 0.0
C1838 C 0.01489 0.19449 0.46875 0.0
C1839 C 0.01966 0.14309 0.49094 0.0
C1840 C 0.01771 0.16072 0.48328 0.0
H1841 H 0.03056 0.25939 0.47105 0.0
H1842 H 0.03065 0.23045 0.48453 0.0
H1843 H 0.01598 0.17915 0.44243 0.0
H1844 H 0.00602 0.09578 0.48042 0.0
H1845 H 0.00207 0.12454 0.46841 0.0
C1846 C 0.61894 0.31612 0.15912 0.0
C1847 C 0.60742 0.3254 0.16665 0.0
C1848 C 0.63532 0.3169 0.16918 0.0
C1849 C 0.66 0.32849 0.21752 0.0
H1850 H 0.69856 0.32301 0.1925 0.0
C1851 C 0.73107 0.33414 0.25409 0.0
C1852 C 0.73684 0.31773 0.25011 0.0
C1853 C 0.71563 0.33661 0.24414 0.0
C1854 C 0.68788 0.32461 0.19963 0.0
H1855 H 0.60424 0.3435 0.19022 0.0
H1856 H 0.63307 0.34579 0.2074 0.0
H1857 H 0.67134 0.32544 0.17441 0.0
H1858 H 0.73117 0.29126 0.23239 0.0
H1859 H 0.70455 0.2959 0.2147 0.0
H1860 H 0.67696 0.32817 0.24278 0.0
C1861 C 0.62932 0.3372 0.19406 0.0
C1862 C 0.6722 0.32583 0.18929 0.0
C1863 C 0.61281 0.33606 0.18416 0.0
C1864 C 0.72699 0.30398 0.23589 0.0
C1865 C 0.71184 0.30666 0.22568 0.0
C1866 C 0.67582 0.32769 0.22787 0.0
C1867 C 0.64073 0.32736 0.18689 0.0
C1868 C 0.65789 0.32744 0.19803 0.0
C1869 C 0.706 0.32294 0.22974 0.0
C1870 C 0.68978 0.32543 0.21898 0.0
H1871 H 0.61508 0.30766 0.1457 0.0
H1872 H 0.64347 0.30884 0.16325 0.0
H1873 H 0.6493 0.32937 0.22482 0.0
H1874 H 0.7384 0.34495 0.26499 0.0
H1875 H 0.71133 0.34928 0.24748 0.0
C1876 C 0.52229 0.86953 0.92552 0.0
C1877 C 0.52747 0.85501 0.93426 0.0
C1878 C 0.52361 0.88694 0.93559 0.0
C1879 C 0.54897 0.91957 0.97348 0.0
H1880 H 0.5085 0.94012 0.97585 0.0
C1881 C 0.55372 0.9897 0.01833 0.0
C1882 C 0.54215 0.00085 0.01305 0.0
C1883 C 0.55188 0.97188 0.00884 0.0
C1884 C 0.52004 0.93486 0.97508 0.0
H1885 H 0.5382 0.84742 0.96042 0.0
H1886 H 0.54116 0.87828 0.97796 0.0
H1887 H 0.5053 0.90912 0.95922 0.0
H1888 H 0.51971 0.00217 0.99346 0.0
H1889 H 0.51714 0.9717 0.97609 0.0
H1890 H 0.56395 0.94544 0.98837 0.0
C1891 C 0.5358 0.87594 0.96334 0.0
C1892 C 0.51812 0.91696 0.96569 0.0
C1893 C 0.53404 0.85831 0.95334 0.0
C1894 C 0.5289 0.99395 0.9978 0.0
C1895 C 0.5273 0.97629 0.98801 0.0
C1896 C 0.55098 0.93764 0.98249 0.0
C1897 C 0.53055 0.89037 0.95453 0.0
C1898 C 0.53255 0.90913 0.96489 0.0
C1899 C 0.53863 0.96483 0.99351 0.0
C1900 C 0.53653 0.94559 0.98354 0.0
H1901 H 0.51709 0.8674 0.91086 0.0
H1902 H 0.51954 0.89787 0.9285 0.0
H1903 H 0.56032 0.9139 0.97282 0.0
H1904 H 0.56397 0.99453 0.03015 0.0
H1905 H 0.56068 0.96352 0.0139 0.0
C1906 C 0.99687 0.82315 0.66845 0.0
C1907 C 0.00947 0.81618 0.67919 0.0
C1908 C 0.98199 0.8258 0.6754 0.0
C1909 C 0.9663 0.83364 0.71957 0.0
H1910 H 0.92026 0.81717 0.69052 0.0
C1911 C 0.90545 0.83187 0.75326 0.0
C1912 C 0.89125 0.83705 0.74336 0.0
C1913 C 0.91951 0.82948 0.74473 0.0
C1914 C 0.93304 0.82209 0.69874 0.0
H1915 H 0.01608 0.80624 0.70557 0.0
H1916 H 0.99033 0.81091 0.71757 0.0
H1917 H 0.94544 0.81295 0.67664 0.0
H1918 H 0.88068 0.84377 0.7167 0.0
H1919 H 0.90539 0.83988 0.70183 0.0
H1920 H 0.95411 0.84294 0.7416 0.0
C1921 C 0.99199 0.81448 0.70386 0.0
C1922 C 0.94746 0.81964 0.69078 0.0
C1923 C 0.00672 0.81171 0.6969 0.0
C1924 C 0.89138 0.83962 0.72465 0.0
C1925 C 0.90552 0.83735 0.71613 0.0
C1926 C 0.95195 0.8362 0.72747 0.0
C1927 C 0.97953 0.82171 0.69329 0.0
C1928 C 0.96422 0.82517 0.70121 0.0
C1929 C 0.91982 0.83234 0.7261 0.0
C1930 C 0.9351 0.83024 0.71727 0.0
H1931 H 0.99856 0.8267 0.65475 0.0
H1932 H 0.97263 0.83145 0.66696 0.0
H1933 H 0.97908 0.83836 0.72785 0.0
H1934 H 0.90559 0.82945 0.76759 0.0
H1935 H 0.93008 0.8252 0.75274 0.0
C1936 C 0.15139 0.08222 0.91645 0.0
C1937 C 0.15502 0.07115 0.9016 0.0
C1938 C 0.14507 0.07406 0.93122 0.0
C1939 C 0.13347 0.05343 0.96269 0.0
H1940 H 0.08983 0.01971 0.94033 0.0
C1941 C 0.05931 0.02363 0.97849 0.0
C1942 C 0.05712 0.04096 0.98608 0.0
C1943 C 0.07487 0.02228 0.97238 0.0
C1944 C 0.10213 0.0286 0.94703 0.0
H1945 H 0.15618 0.04309 0.89112 0.0
H1946 H 0.14454 0.02868 0.9168 0.0
H1947 H 0.11304 0.0266 0.92217 0.0
H1948 H 0.06935 0.07034 0.99346 0.0
H1949 H 0.09619 0.06812 0.98271 0.0
H1950 H 0.12218 0.05625 0.98726 0.0
C1951 C 0.14682 0.0437 0.91708 0.0
C1952 C 0.11547 0.03256 0.9366 0.0
C1953 C 0.15349 0.05195 0.90244 0.0
C1954 C 0.07076 0.05677 0.9878 0.0
C1955 C 0.08623 0.05544 0.98181 0.0
C1956 C 0.12021 0.04932 0.9732 0.0
C1957 C 0.14197 0.05461 0.93125 0.0
C1958 C 0.13083 0.04588 0.94399 0.0
C1959 C 0.08844 0.03824 0.97382 0.0
C1960 C 0.10401 0.03783 0.96507 0.0
H1961 H 0.15255 0.09707 0.91617 0.0
H1962 H 0.14128 0.08281 0.94184 0.0
H1963 H 0.1453 0.06356 0.96877 0.0
H1964 H 0.04901 0.01119 0.97721 0.0
H1965 H 0.0762 0.00884 0.9663 0.0
C1966 C 0.80404 0.40508 0.60332 0.0
C1967 C 0.7951 0.3939 0.58684 0.0
C1968 C 0.80561 0.39757 0.6201 0.0
C1969 C 0.80203 0.35289 0.64034 0.0
H1970 H 0.79556 0.38253 0.68412 0.0
C1971 C 0.78987 0.32152 0.70782 0.0
C1972 C 0.79689 0.33247 0.72499 0.0
C1973 C 0.79127 0.32907 0.69119 0.0
C1974 C 0.79768 0.37416 0.67212 0.0
H1975 H 0.78106 0.36589 0.5751 0.0
H1976 H 0.78369 0.35277 0.60444 0.0
H1977 H 0.79476 0.39532 0.65472 0.0
H1978 H 0.81128 0.35996 0.73802 0.0
H1979 H 0.81388 0.37312 0.70893 0.0
H1980 H 0.80478 0.33165 0.65774 0.0
C1981 C 0.78965 0.36735 0.60434 0.0
C1982 C 0.7972 0.3815 0.65521 0.0
C1983 C 0.78807 0.37489 0.58751 0.0
C1984 C 0.80571 0.35111 0.72507 0.0
C1985 C 0.80708 0.35869 0.70837 0.0
C1986 C 0.80253 0.34555 0.65727 0.0
C1987 C 0.79827 0.37865 0.62092 0.0
C1988 C 0.79926 0.37093 0.63904 0.0
C1989 C 0.79972 0.34781 0.6912 0.0
C1990 C 0.80022 0.35603 0.67338 0.0
H1991 H 0.8097 0.41976 0.60334 0.0
H1992 H 0.8126 0.40663 0.63248 0.0
H1993 H 0.80395 0.34445 0.62828 0.0
H1994 H 0.78296 0.30712 0.70716 0.0
H1995 H 0.78523 0.3203 0.67831 0.0
C1996 C 0.47177 0.1347 0.36838 0.0
C1997 C 0.48066 0.13116 0.3537 0.0
C1998 C 0.47787 0.1315 0.38629 0.0
C1999 C 0.51684 0.12476 0.41579 0.0
H2000 H 0.4839 0.09685 0.44279 0.0
C2001 C 0.51788 0.07496 0.47709 0.0
C2002 C 0.53223 0.08566 0.48954 0.0
C2003 C 0.51065 0.08258 0.46205 0.0
C2004 C 0.49324 0.10465 0.4354 0.0
H2005 H 0.50315 0.12191 0.34642 0.0
H2006 H 0.51366 0.11624 0.3775 0.0
H2007 H 0.47353 0.10672 0.4133 0.0
H2008 H 0.54984 0.11288 0.49667 0.0
H2009 H 0.53713 0.12628 0.47051 0.0
H2010 H 0.53661 0.12204 0.43739 0.0
C2011 C 0.50208 0.12166 0.37525 0.0
C2012 C 0.48729 0.11048 0.41864 0.0
C2013 C 0.49598 0.1248 0.35739 0.0
C2014 C 0.53889 0.10427 0.48711 0.0
C2015 C 0.53165 0.11191 0.47213 0.0
C2016 C 0.52277 0.11894 0.43251 0.0
C2017 C 0.49301 0.12479 0.38985 0.0
C2018 C 0.49907 0.1203 0.40851 0.0
C2019 C 0.51764 0.10106 0.45925 0.0
C2020 C 0.51107 0.10856 0.44235 0.0
H2021 H 0.45993 0.13962 0.366 0.0
H2022 H 0.47071 0.13419 0.39732 0.0
H2023 H 0.5262 0.1325 0.4084 0.0
H2024 H 0.5125 0.06056 0.4787 0.0
H2025 H 0.49998 0.07379 0.45226 0.0
C2026 C 0.77502 0.73435 0.07113 0.0
C2027 C 0.77094 0.71471 0.0693 0.0
C2028 C 0.77707 0.74483 0.08859 0.0
C2029 C 0.78866 0.76322 0.12923 0.0
H2030 H 0.75655 0.74314 0.16121 0.0
C2031 C 0.79647 0.79056 0.20763 0.0
C2032 C 0.78125 0.7906 0.21516 0.0
C2033 C 0.79556 0.78287 0.18923 0.0
C2034 C 0.76552 0.74912 0.15244 0.0
H2035 H 0.76672 0.69078 0.08454 0.0
H2036 H 0.77058 0.70888 0.11465 0.0
H2037 H 0.75434 0.72719 0.13032 0.0
H2038 H 0.75315 0.78343 0.20895 0.0
H2039 H 0.75157 0.77047 0.17699 0.0
H2040 H 0.7996 0.78542 0.15143 0.0
C2041 C 0.77171 0.71626 0.10266 0.0
C2042 C 0.7644 0.73979 0.13476 0.0
C2043 C 0.76958 0.70586 0.08533 0.0
C2044 C 0.76514 0.78337 0.20372 0.0
C2045 C 0.76423 0.77585 0.18536 0.0
C2046 C 0.78976 0.77263 0.147 0.0
C2047 C 0.77513 0.73585 0.10451 0.0
C2048 C 0.77605 0.74657 0.12298 0.0
C2049 C 0.7794 0.77517 0.17795 0.0
C2050 C 0.77822 0.76564 0.15885 0.0
H2051 H 0.77618 0.74159 0.05906 0.0
H2052 H 0.77966 0.75991 0.08954 0.0
H2053 H 0.79788 0.76877 0.12054 0.0
H2054 H 0.8091 0.79606 0.21605 0.0
H2055 H 0.80751 0.78246 0.18404 0.0
C2056 C 0.11701 0.07019 0.79451 0.0
C2057 C 0.13487 0.07315 0.79399 0.0
C2058 C 0.10509 0.06669 0.77804 0.0
C2059 C 0.10019 0.05176 0.7279 0.0
H2060 H 0.07015 0.08637 0.72212 0.0
C2061 C 0.07442 0.09146 0.6667 0.0
C2062 C 0.06792 0.07676 0.6522 0.0
C2063 C 0.0777 0.08776 0.68496 0.0
C2064 C 0.07829 0.07644 0.72361 0.0
H2065 H 0.15423 0.07415 0.77594 0.0
H2066 H 0.13349 0.06798 0.74732 0.0
H2067 H 0.08576 0.08491 0.75282 0.0
H2068 H 0.05873 0.04668 0.64567 0.0
H2069 H 0.06498 0.04024 0.67762 0.0
H2070 H 0.09355 0.04405 0.69858 0.0
C2071 C 0.12867 0.0683 0.76039 0.0
C2072 C 0.0871 0.0755 0.74116 0.0
C2073 C 0.14056 0.07204 0.77678 0.0
C2074 C 0.06411 0.0583 0.65648 0.0
C2075 C 0.06755 0.0546 0.67475 0.0
C2076 C 0.09128 0.05259 0.71039 0.0
C2077 C 0.11085 0.06577 0.76084 0.0
C2078 C 0.09869 0.06372 0.7433 0.0
C2079 C 0.07466 0.06929 0.6891 0.0
C2080 C 0.08083 0.06551 0.70798 0.0
H2081 H 0.11228 0.07092 0.80761 0.0
H2082 H 0.0914 0.0648 0.77871 0.0
H2083 H 0.10893 0.04242 0.72925 0.0
H2084 H 0.07773 0.1058 0.66391 0.0
H2085 H 0.08347 0.09935 0.69571 0.0
C2086 C 0.77289 0.40406 0.45482 0.0
C2087 C 0.77882 0.3978 0.47154 0.0
C2088 C 0.77284 0.39402 0.43771 0.0
C2089 C 0.79339 0.35941 0.41547 0.0
H2090 H 0.75617 0.35609 0.37451 0.0
C2091 C 0.78821 0.31372 0.34563 0.0
C2092 C 0.7823 0.32036 0.32918 0.0
C2093 C 0.78792 0.32321 0.36292 0.0
C2094 C 0.7668 0.35709 0.38571 0.0
H2095 H 0.78904 0.37573 0.4832 0.0
H2096 H 0.78879 0.35803 0.45321 0.0
H2097 H 0.75473 0.3715 0.40487 0.0
H2098 H 0.77155 0.34223 0.31797 0.0
H2099 H 0.77135 0.35916 0.34823 0.0
H2100 H 0.80548 0.34506 0.39629 0.0
C2101 C 0.78437 0.37091 0.45343 0.0
C2102 C 0.76595 0.36589 0.40318 0.0
C2103 C 0.7844 0.38098 0.47064 0.0
C2104 C 0.7763 0.33688 0.3304 0.0
C2105 C 0.77602 0.34643 0.34776 0.0
C2106 C 0.79424 0.35061 0.39799 0.0
C2107 C 0.7787 0.37739 0.43673 0.0
C2108 C 0.77926 0.36724 0.41831 0.0
C2109 C 0.78173 0.33964 0.36427 0.0
C2110 C 0.78097 0.34935 0.38284 0.0
H2111 H 0.76851 0.41695 0.45487 0.0
H2112 H 0.76861 0.39962 0.42522 0.0
H2113 H 0.80402 0.36045 0.42667 0.0
H2114 H 0.79288 0.30098 0.34517 0.0
H2115 H 0.79219 0.31737 0.37525 0.0
C2116 C 0.47849 0.15728 0.25357 0.0
C2117 C 0.46057 0.15487 0.25336 0.0
C2118 C 0.48476 0.15175 0.23768 0.0
C2119 C 0.47046 0.11583 0.19831 0.0
H2120 H 0.51408 0.13803 0.18346 0.0
C2121 C 0.49762 0.08071 0.1392 0.0
C2122 C 0.51555 0.08177 0.14204 0.0
C2123 C 0.49033 0.09075 0.15171 0.0
C2124 C 0.50194 0.13162 0.18758 0.0
H2125 H 0.43531 0.14678 0.23589 0.0
H2126 H 0.44632 0.13719 0.20809 0.0
H2127 H 0.50223 0.15592 0.20606 0.0
H2128 H 0.53984 0.09376 0.16044 0.0
H2129 H 0.52703 0.11091 0.18262 0.0
H2130 H 0.47038 0.09134 0.18033 0.0
C2131 C 0.45545 0.143 0.22064 0.0
C2132 C 0.49512 0.1419 0.20039 0.0
C2133 C 0.44918 0.14859 0.23653 0.0
C2134 C 0.52597 0.09257 0.15796 0.0
C2135 C 0.51867 0.1026 0.1705 0.0
C2136 C 0.47729 0.10554 0.18556 0.0
C2137 C 0.47321 0.14374 0.22133 0.0
C2138 C 0.47943 0.134 0.20604 0.0
C2139 C 0.50083 0.10202 0.16734 0.0
C2140 C 0.49322 0.11323 0.18026 0.0
H2141 H 0.48759 0.16223 0.26631 0.0
H2142 H 0.49852 0.15245 0.23862 0.0
H2143 H 0.45851 0.10923 0.20271 0.0
H2144 H 0.48925 0.07231 0.12713 0.0
H2145 H 0.47655 0.09007 0.14889 0.0
C2146 C 0.77123 0.71612 0.93996 0.0
C2147 C 0.77248 0.72584 0.95767 0.0
C2148 C 0.77262 0.7257 0.9245 0.0
C2149 C 0.78956 0.77177 0.91038 0.0
H2150 H 0.7578 0.75173 0.86463 0.0
C2151 C 0.78966 0.81109 0.84578 0.0
C2152 C 0.78747 0.80029 0.82847 0.0
C2153 C 0.78698 0.80252 0.86168 0.0
C2154 C 0.76692 0.75743 0.87721 0.0
H2155 H 0.77634 0.75333 0.97302 0.0
H2156 H 0.77888 0.7701 0.94597 0.0
H2157 H 0.75516 0.73589 0.89208 0.0
H2158 H 0.7804 0.77207 0.81415 0.0
H2159 H 0.77603 0.7571 0.84184 0.0
H2160 H 0.80155 0.79311 0.89546 0.0
C2161 C 0.77686 0.75504 0.94409 0.0
C2162 C 0.76537 0.74835 0.89298 0.0
C2163 C 0.77534 0.74542 0.95958 0.0
C2164 C 0.7822 0.78077 0.82731 0.0
C2165 C 0.77958 0.7722 0.8432 0.0
C2166 C 0.79118 0.7808 0.89457 0.0
C2167 C 0.77539 0.74527 0.92633 0.0
C2168 C 0.77673 0.75533 0.90974 0.0
C2169 C 0.78208 0.78293 0.86065 0.0
C2170 C 0.77995 0.7737 0.87771 0.0
H2171 H 0.76904 0.70104 0.93797 0.0
H2172 H 0.77167 0.71776 0.91108 0.0
H2173 H 0.79865 0.77741 0.923 0.0
H2174 H 0.7936 0.82617 0.84707 0.0
H2175 H 0.78872 0.81128 0.87478 0.0
C2176 C 0.83007 0.1644 0.00928 0.0
C2177 C 0.82172 0.16054 0.02456 0.0
C2178 C 0.84472 0.15749 0.00679 0.0
C2179 C 0.88005 0.13961 0.03106 0.0
H2180 H 0.87774 0.10954 0.98423 0.0
C2181 C 0.92496 0.08891 0.0228 0.0
C2182 C 0.93026 0.08561 0.00559 0.0
C2183 C 0.91281 0.09973 0.02481 0.0
C2184 C 0.87885 0.11818 0.99728 0.0
H2185 H 0.82264 0.1472 0.04964 0.0
H2186 H 0.84835 0.13557 0.0455 0.0
H2187 H 0.85525 0.12649 0.98834 0.0
H2188 H 0.92737 0.09146 0.97714 0.0
H2189 H 0.90657 0.11083 0.98072 0.0
H2190 H 0.90366 0.13154 0.04005 0.0
C2191 C 0.84351 0.14376 0.03537 0.0
C2192 C 0.8659 0.12786 -0.00038 0.0
C2193 C 0.82873 0.15034 0.03767 0.0
C2194 C 0.92333 0.09357 0.9905 0.0
C2195 C 0.91136 0.10463 0.99257 0.0
C2196 C 0.89314 0.13015 0.02866 0.0
C2197 C 0.85148 0.14696 0.01975 0.0
C2198 C 0.8662 0.1384 0.01664 0.0
C2199 C 0.90583 0.10778 0.00973 0.0
C2200 C 0.89256 0.11899 0.01185 0.0
H2201 H 0.82494 0.17217 0.99891 0.0
H2202 H 0.85068 0.16022 0.99466 0.0
H2203 H 0.88069 0.14779 0.04428 0.0
H2204 H 0.92994 0.08278 0.03463 0.0
H2205 H 0.90866 0.10145 0.03815 0.0
C2206 C 0.36383 0.45616 0.05095 0.0
C2207 C 0.35135 0.4653 0.04319 0.0
C2208 C 0.38157 0.46393 0.05181 0.0
C2209 C 0.41127 0.49665 0.02931 0.0
H2210 H 0.44475 0.49968 0.07368 0.0
C2211 C 0.48462 0.52579 0.0316 0.0
C2212 C 0.49322 0.53834 0.04729 0.0
C2213 C 0.46771 0.51546 0.03114 0.0
C2214 C 0.43554 0.49896 0.0612 0.0
H2215 H 0.34784 0.49001 0.03064 0.0
H2216 H 0.37849 0.50338 0.03219 0.0
H2217 H 0.41435 0.48434 0.07303 0.0
H2218 H 0.4911 0.54973 0.07491 0.0
H2219 H 0.46154 0.53182 0.07409 0.0
H2220 H 0.43226 0.5116 0.01759 0.0
C2221 C 0.37464 0.49013 0.03739 0.0
C2222 C 0.41818 0.49001 0.06077 0.0
C2223 C 0.35702 0.48248 0.03663 0.0
C2224 C 0.48473 0.54019 0.06261 0.0
C2225 C 0.46786 0.52982 0.06219 0.0
C2226 C 0.4286 0.50547 0.0297 0.0
C2227 C 0.38712 0.48088 0.04478 0.0
C2228 C 0.40581 0.48904 0.04492 0.0
C2229 C 0.45911 0.51739 0.04641 0.0
C2230 C 0.44091 0.50696 0.04572 0.0
H2231 H 0.35992 0.44292 0.05613 0.0
H2232 H 0.39091 0.45647 0.05756 0.0
H2233 H 0.40209 0.49592 0.0168 0.0
H2234 H 0.491 0.52385 0.01975 0.0
H2235 H 0.46142 0.50583 0.01887 0.0
C2236 C 0.35146 0.58016 0.73408 0.0
C2237 C 0.36929 0.58091 0.73784 0.0
C2238 C 0.34413 0.59192 0.74487 0.0
C2239 C 0.35632 0.63736 0.77344 0.0
H2240 H 0.30803 0.6244 0.77954 0.0
C2241 C 0.31275 0.68774 0.76662 0.0
C2242 C 0.29972 0.68772 0.77753 0.0
C2243 C 0.32321 0.67501 0.76833 0.0
C2244 C 0.32165 0.62817 0.77841 0.0
H2245 H 0.39329 0.59385 0.7564 0.0
H2246 H 0.38043 0.61425 0.77539 0.0
H2247 H 0.32243 0.59977 0.77053 0.0
H2248 H 0.28766 0.67504 0.79926 0.0
H2249 H 0.30589 0.6521 0.80199 0.0
H2250 H 0.35537 0.66577 0.78071 0.0
C2251 C 0.37218 0.60483 0.76389 0.0
C2252 C 0.32983 0.61411 0.77299 0.0
C2253 C 0.37954 0.59318 0.75299 0.0
C2254 C 0.29763 0.67515 0.79067 0.0
C2255 C 0.308 0.66212 0.79221 0.0
C2256 C 0.34818 0.65137 0.77892 0.0
C2257 C 0.35444 0.60456 0.75976 0.0
C2258 C 0.34699 0.61866 0.76955 0.0
C2259 C 0.32079 0.66188 0.78091 0.0
C2260 C 0.33053 0.64698 0.7805 0.0
H2261 H 0.34323 0.57079 0.72253 0.0
H2262 H 0.33048 0.59157 0.74106 0.0
H2263 H 0.36954 0.6414 0.77093 0.0
H2264 H 0.31467 0.69748 0.75653 0.0
H2265 H 0.33273 0.67497 0.75919 0.0
C2266 C 0.21663 0.65058 0.50466 0.0
C2267 C 0.22089 0.6701 0.50912 0.0
C2268 C 0.19979 0.64034 0.5045 0.0
C2269 C 0.16073 0.64275 0.52466 0.0
H2270 H 0.1392 0.59972 0.48817 0.0
C2271 C 0.10028 0.5892 0.53505 0.0
C2272 C 0.08692 0.58308 0.51973 0.0
C2273 C 0.11644 0.59966 0.53289 0.0
C2274 C 0.14499 0.61177 0.49839 0.0
H2275 H 0.21068 0.69426 0.51636 0.0
H2276 H 0.18117 0.67635 0.51599 0.0
H2277 H 0.16728 0.61902 0.48517 0.0
H2278 H 0.08031 0.58277 0.49 0.0
H2279 H 0.10855 0.60104 0.48628 0.0
H2280 H 0.13843 0.6356 0.53783 0.0
C2281 C 0.19095 0.66896 0.51283 0.0
C2282 C 0.16113 0.62273 0.49676 0.0
C2283 C 0.20782 0.67923 0.51294 0.0
C2284 C 0.09029 0.58724 0.50211 0.0
C2285 C 0.1065 0.59767 0.49995 0.0
C2286 C 0.14464 0.63176 0.52633 0.0
C2287 C 0.1868 0.64937 0.50883 0.0
C2288 C 0.16923 0.63828 0.50994 0.0
C2289 C 0.11967 0.60422 0.51536 0.0
C2290 C 0.13663 0.61607 0.51329 0.0
H2291 H 0.22641 0.64313 0.50164 0.0
H2292 H 0.19708 0.62527 0.50155 0.0
H2293 H 0.16669 0.65451 0.53516 0.0
H2294 H 0.09819 0.58622 0.54882 0.0
H2295 H 0.12642 0.60422 0.54499 0.0
C2296 C 0.68051 0.95163 0.77264 0.0
C2297 C 0.6631 0.94204 0.76719 0.0
C2298 C 0.69278 0.94253 0.78042 0.0
C2299 C 0.69889 0.90005 0.80091 0.0
H2300 H 0.73948 0.90687 0.77675 0.0
C2301 C 0.7407 0.84615 0.79527 0.0
C2302 C 0.75831 0.85227 0.79393 0.0
C2303 C 0.73032 0.85896 0.79703 0.0
C2304 C 0.72848 0.90509 0.78403 0.0
H2305 H 0.6447 0.9157 0.76649 0.0
H2306 H 0.6663 0.89962 0.77982 0.0
H2307 H 0.71864 0.92584 0.77046 0.0
H2308 H 0.77919 0.87668 0.79504 0.0
H2309 H 0.76113 0.89909 0.7985 0.0
H2310 H 0.70861 0.87886 0.8141 0.0
C2311 C 0.67038 0.91425 0.77824 0.0
C2312 C 0.71648 0.91596 0.78036 0.0
C2313 C 0.65804 0.92341 0.77049 0.0
C2314 C 0.76561 0.87152 0.79575 0.0
C2315 C 0.75524 0.88435 0.79766 0.0
C2316 C 0.71099 0.88919 0.80467 0.0
C2317 C 0.68794 0.92362 0.78285 0.0
C2318 C 0.70139 0.91332 0.78847 0.0
C2319 C 0.73735 0.87817 0.79763 0.0
C2320 C 0.72574 0.89134 0.79596 0.0
H2321 H 0.68477 0.96609 0.77053 0.0
H2322 H 0.70616 0.95019 0.78413 0.0
H2323 H 0.68746 0.89788 0.80752 0.0
H2324 H 0.73467 0.83141 0.79401 0.0
H2325 H 0.71658 0.85369 0.7968 0.0
C2326 C 0.73379 0.92939 0.54418 0.0
C2327 C 0.75061 0.94069 0.54949 0.0
C2328 C 0.71928 0.93705 0.54486 0.0
C2329 C 0.70555 0.97767 0.56624 0.0
H2330 H 0.6685 0.96622 0.52394 0.0
C2331 C 0.6566 0.02366 0.55402 0.0
C2332 C 0.63922 0.01516 0.54668 0.0
C2333 C 0.66918 0.01315 0.55547 0.0
C2334 C 0.67859 0.96933 0.536 0.0
H2335 H 0.7654 0.96881 0.55989 0.0
H2336 H 0.74019 0.98211 0.56104 0.0
H2337 H 0.69234 0.95031 0.52452 0.0
H2338 H 0.62141 0.98882 0.53531 0.0
H2339 H 0.64341 0.97033 0.53811 0.0
H2340 H 0.69197 0.99682 0.57765 0.0
C2341 C 0.73816 0.96732 0.5565 0.0
C2342 C 0.69226 0.96023 0.53632 0.0
C2343 C 0.75262 0.95971 0.55573 0.0
C2344 C 0.63466 0.99577 0.54112 0.0
C2345 C 0.6473 0.98522 0.54256 0.0
C2346 C 0.69189 0.98672 0.56594 0.0
C2347 C 0.72132 0.95612 0.55099 0.0
C2348 C 0.70605 0.96455 0.5513 0.0
C2349 C 0.66473 0.99382 0.54968 0.0
C2350 C 0.6784 0.98292 0.55067 0.0
H2351 H 0.73182 0.91468 0.53933 0.0
H2352 H 0.70646 0.92804 0.54066 0.0
H2353 H 0.71581 0.98104 0.57814 0.0
H2354 H 0.66052 0.03852 0.55866 0.0
H2355 H 0.68249 0.02029 0.56081 0.0
C2356 C 0.35224 0.47923 0.70447 0.0
C2357 C 0.36824 0.47899 0.69871 0.0
C2358 C 0.34181 0.46295 0.70855 0.0
C2359 C 0.34516 0.41824 0.72446 0.0
H2360 H 0.29493 0.40757 0.71406 0.0
C2361 C 0.28267 0.35771 0.73464 0.0
C2362 C 0.28794 0.35524 0.75311 0.0
C2363 C 0.2921 0.37217 0.72666 0.0
C2364 C 0.30894 0.41025 0.71694 0.0
H2365 H 0.38545 0.46123 0.69194 0.0
H2366 H 0.3671 0.43267 0.69902 0.0
H2367 H 0.31185 0.43313 0.7009 0.0
H2368 H 0.30683 0.36618 0.7779 0.0
H2369 H 0.32324 0.39157 0.76403 0.0
H2370 H 0.34225 0.39538 0.74051 0.0
C2371 C 0.36278 0.44557 0.70054 0.0
C2372 C 0.31863 0.42498 0.70951 0.0
C2373 C 0.37321 0.4619 0.69635 0.0
C2374 C 0.30256 0.36772 0.76359 0.0
C2375 C 0.31201 0.38215 0.75561 0.0
C2376 C 0.33547 0.40355 0.73192 0.0
C2377 C 0.34712 0.44601 0.70703 0.0
C2378 C 0.33684 0.42929 0.71338 0.0
C2379 C 0.30698 0.38443 0.737 0.0
C2380 C 0.31725 0.39954 0.72843 0.0
H2381 H 0.34797 0.49214 0.70638 0.0
H2382 H 0.32992 0.46382 0.71368 0.0
H2383 H 0.35916 0.42132 0.72787 0.0
H2384 H 0.27148 0.34822 0.72622 0.0
H2385 H 0.28796 0.37348 0.71227 0.0
C2386 C 0.14088 0.54895 0.21646 0.0
C2387 C 0.1465 0.53404 0.22393 0.0
C2388 C 0.15159 0.56688 0.21978 0.0
C2389 C 0.19689 0.59324 0.23533 0.0
H2390 H 0.17493 0.63374 0.24762 0.0
C2391 C 0.2145 0.67744 0.26361 0.0
C2392 C 0.22628 0.68396 0.25191 0.0
C2393 C 0.20629 0.65856 0.26169 0.0
C2394 C 0.18132 0.62257 0.24447 0.0
H2395 H 0.16803 0.52616 0.24021 0.0
H2396 H 0.18656 0.55746 0.24613 0.0
H2397 H 0.15752 0.60196 0.24052 0.0
H2398 H 0.23923 0.67585 0.22951 0.0
H2399 H 0.22472 0.64288 0.22595 0.0
H2400 H 0.22078 0.61392 0.23961 0.0
C2401 C 0.17396 0.55527 0.23759 0.0
C2402 C 0.17128 0.6044 0.24009 0.0
C2403 C 0.16327 0.53733 0.23425 0.0
C2404 C 0.2303 0.67115 0.23881 0.0
C2405 C 0.222 0.65227 0.2368 0.0
C2406 C 0.20697 0.61147 0.23975 0.0
C2407 C 0.16811 0.57029 0.23065 0.0
C2408 C 0.17892 0.58955 0.23534 0.0
C2409 C 0.2096 0.64586 0.24792 0.0
C2410 C 0.19926 0.62634 0.24427 0.0
H2411 H 0.12808 0.54688 0.20836 0.0
H2412 H 0.14686 0.57814 0.21395 0.0
H2413 H 0.20314 0.58209 0.23165 0.0
H2414 H 0.2114 0.68702 0.27403 0.0
H2415 H 0.19707 0.65397 0.27073 0.0
C2416 C 0.50021 0.72237 0.43314 0.0
C2417 C 0.50414 0.74026 0.4433 0.0
C2418 C 0.50142 0.70669 0.44206 0.0
C2419 C 0.50299 0.68815 0.48693 0.0
H2420 H 0.52962 0.65623 0.46514 0.0
C2421 C 0.50804 0.61539 0.5086 0.0
C2422 C 0.52455 0.61133 0.51024 0.0
C2423 C 0.50528 0.63182 0.50191 0.0
C2424 C 0.52223 0.66505 0.47145 0.0
H2425 H 0.51154 0.75557 0.47094 0.0
H2426 H 0.5134 0.72806 0.48657 0.0
H2427 H 0.52434 0.68314 0.45037 0.0
H2428 H 0.5512 0.62169 0.50661 0.0
H2429 H 0.54632 0.65021 0.49479 0.0
H2430 H 0.50086 0.66988 0.50799 0.0
C2431 C 0.50947 0.72624 0.47167 0.0
C2432 C 0.51905 0.68035 0.46288 0.0
C2433 C 0.50844 0.74198 0.46271 0.0
C2434 C 0.53832 0.62434 0.50553 0.0
C2435 C 0.53551 0.64064 0.49864 0.0
C2436 C 0.50598 0.67265 0.49539 0.0
C2437 C 0.50641 0.7085 0.46138 0.0
C2438 C 0.50941 0.69209 0.47051 0.0
C2439 C 0.51892 0.64443 0.4965 0.0
C2440 C 0.51572 0.66099 0.48777 0.0
H2441 H 0.49683 0.72052 0.41818 0.0
H2442 H 0.49874 0.69316 0.43379 0.0
H2443 H 0.49549 0.69693 0.49309 0.0
H2444 H 0.49715 0.60573 0.51217 0.0
H2445 H 0.49233 0.63433 0.50034 0.0
C2446 C 0.62962 0.33358 0.66545 0.0
C2447 C 0.61638 0.33919 0.67364 0.0
C2448 C 0.6448 0.33186 0.67645 0.0
C2449 C 0.67154 0.34622 0.72274 0.0
H2450 H 0.68761 0.30106 0.71193 0.0
C2451 C 0.72783 0.32864 0.77088 0.0
C2452 C 0.74 0.3215 0.76212 0.0
C2453 C 0.7122 0.33014 0.76057 0.0
C2454 C 0.68342 0.31384 0.71504 0.0
H2455 H 0.60896 0.34809 0.69973 0.0
H2456 H 0.6355 0.34523 0.71889 0.0
H2457 H 0.66211 0.30609 0.69258 0.0
H2458 H 0.74521 0.30983 0.73587 0.0
H2459 H 0.71822 0.31272 0.7179 0.0
H2460 H 0.69298 0.35413 0.74503 0.0
C2461 C 0.63414 0.34214 0.70398 0.0
C2462 C 0.66881 0.31672 0.70393 0.0
C2463 C 0.61892 0.34372 0.693 0.0
C2464 C 0.73606 0.31538 0.74301 0.0
C2465 C 0.72052 0.31694 0.73272 0.0
C2466 C 0.68623 0.3434 0.73379 0.0
C2467 C 0.64711 0.33588 0.69585 0.0
C2468 C 0.66274 0.33297 0.70761 0.0
C2469 C 0.70847 0.32456 0.74131 0.0
C2470 C 0.6924 0.3272 0.73004 0.0
H2471 H 0.62807 0.33001 0.65058 0.0
H2472 H 0.65468 0.32726 0.66978 0.0
H2473 H 0.66725 0.35895 0.72583 0.0
H2474 H 0.73051 0.33339 0.78561 0.0
H2475 H 0.70309 0.33576 0.76769 0.0
C2476 C 0.01618 0.3679 0.92197 0.0
C2477 C 0.01937 0.35307 0.93156 0.0
C2478 C 0.01643 0.38517 0.9316 0.0
C2479 C 0.03645 0.41627 0.97301 0.0
H2480 H 0.99814 0.44033 0.96301 0.0
C2481 C 0.03837 0.48918 0.01052 0.0
C2482 C 0.0304 0.50128 0.00059 0.0
C2483 C 0.03627 0.47054 0.00316 0.0
C2484 C 0.00909 0.43399 0.96579 0.0
H2485 H 0.02533 0.34469 0.95877 0.0
H2486 H 0.02637 0.37535 0.97568 0.0
H2487 H 0.99576 0.40871 0.94829 0.0
H2488 H 0.01417 0.50347 0.97511 0.0
H2489 H 0.01117 0.47127 0.9618 0.0
H2490 H 0.05023 0.44171 0.98968 0.0
C2491 C 0.02343 0.37336 0.96069 0.0
C2492 C 0.00761 0.4158 0.95747 0.0
C2493 C 0.02278 0.35587 0.95104 0.0
C2494 C 0.02039 0.49442 0.98311 0.0
C2495 C 0.01856 0.47587 0.97557 0.0
C2496 C 0.03808 0.43461 0.98106 0.0
C2497 C 0.02023 0.38813 0.95101 0.0
C2498 C 0.02131 0.40683 0.96093 0.0
C2499 C 0.0264 0.46362 0.98552 0.0
C2500 C 0.02446 0.44381 0.97746 0.0
H2501 H 0.01342 0.36613 0.90697 0.0
H2502 H 0.01404 0.39639 0.92383 0.0
H2503 H 0.04726 0.4097 0.9757 0.0
H2504 H 0.04597 0.494 0.02418 0.0
H2505 H 0.04222 0.46154 0.01146 0.0
C2506 C 0.00693 0.8261 0.17008 0.0
C2507 C 0.01875 0.81741 0.17985 0.0
C2508 C 0.99085 0.82604 0.17562 0.0
C2509 C 0.96966 0.82098 0.21694 0.0
H2510 H 0.92663 0.81275 0.18243 0.0
C2511 C 0.90458 0.80881 0.24267 0.0
C2512 C 0.89273 0.819 0.23568 0.0
C2513 C 0.91907 0.80789 0.23436 0.0
C2514 C 0.93858 0.81521 0.1922 0.0
H2515 H 0.02263 0.8012 0.20262 0.0
H2516 H 0.99474 0.80091 0.21201 0.0
H2517 H 0.95383 0.81288 0.17064 0.0
H2518 H 0.88639 0.83562 0.21402 0.0
H2519 H 0.91183 0.83402 0.19945 0.0
H2520 H 0.95458 0.82327 0.23848 0.0
C2521 C 0.99797 0.80816 0.20037 0.0
C2522 C 0.95414 0.81532 0.18546 0.0
C2523 C 0.01397 0.80827 0.19491 0.0
C2524 C 0.89526 0.82757 0.21966 0.0
C2525 C 0.90982 0.82666 0.21133 0.0
C2526 C 0.95419 0.82082 0.22364 0.0
C2527 C 0.98633 0.81728 0.19101 0.0
C2528 C 0.96981 0.81798 0.1978 0.0
C2529 C 0.92208 0.81717 0.21887 0.0
C2530 C 0.93844 0.81771 0.21139 0.0
H2531 H 0.0102 0.83323 0.15838 0.0
H2532 H 0.98217 0.83326 0.16817 0.0
H2533 H 0.98155 0.82354 0.22681 0.0
H2534 H 0.90278 0.80172 0.25475 0.0
H2535 H 0.92808 0.80011 0.24024 0.0
C2536 C 0.54559 0.36553 0.09169 0.0
C2537 C 0.54982 0.36605 0.11099 0.0
C2538 C 0.54475 0.38199 0.08379 0.0
C2539 C 0.5416 0.43138 0.09631 0.0
H2540 H 0.55642 0.43857 0.04896 0.0
C2541 C 0.55076 0.50291 0.06804 0.0
C2542 C 0.54364 0.50268 0.04937 0.0
C2543 C 0.55179 0.48622 0.0753 0.0
C2544 C 0.55213 0.43673 0.06215 0.0
H2545 H 0.55682 0.38438 0.13704 0.0
H2546 H 0.55587 0.41285 0.12339 0.0
H2547 H 0.55744 0.40949 0.06188 0.0
H2548 H 0.53243 0.4846 0.02362 0.0
H2549 H 0.53443 0.45562 0.03624 0.0
H2550 H 0.53659 0.45877 0.09668 0.0
C2551 C 0.55267 0.39979 0.11427 0.0
C2552 C 0.55264 0.41999 0.06955 0.0
C2553 C 0.55334 0.38339 0.12214 0.0
C2554 C 0.53795 0.48536 0.03807 0.0
C2555 C 0.53918 0.46871 0.04527 0.0
C2556 C 0.54127 0.44816 0.08901 0.0
C2557 C 0.54826 0.39938 0.09499 0.0
C2558 C 0.54741 0.41706 0.08678 0.0
C2559 C 0.54595 0.4689 0.06402 0.0
C2560 C 0.54654 0.45107 0.07185 0.0
H2561 H 0.54277 0.35241 0.08271 0.0
H2562 H 0.5411 0.381 0.06892 0.0
H2563 H 0.53708 0.42959 0.10939 0.0
H2564 H 0.55525 0.51596 0.07718 0.0
H2565 H 0.55723 0.48687 0.08976 0.0
C2566 C 0.95852 0.28577 0.37707 0.0
C2567 C 0.9715 0.30051 0.37356 0.0
C2568 C 0.94141 0.28291 0.36778 0.0
C2569 C 0.91666 0.29532 0.32581 0.0
H2570 H 0.87676 0.28245 0.35048 0.0
C2571 C 0.8511 0.31144 0.30053 0.0
C2572 C 0.83614 0.29706 0.29888 0.0
C2573 C 0.86713 0.30906 0.30883 0.0
C2574 C 0.8878 0.28578 0.34338 0.0
H2575 H 0.97649 0.32432 0.35826 0.0
H2576 H 0.94695 0.3197 0.34269 0.0
H2577 H 0.90582 0.28376 0.36721 0.0
H2578 H 0.8262 0.26889 0.30469 0.0
H2579 H 0.85439 0.26491 0.31971 0.0
H2580 H 0.89876 0.2982 0.30234 0.0
C2581 C 0.94993 0.30988 0.35201 0.0
C2582 C 0.90442 0.28651 0.35292 0.0
C2583 C 0.96691 0.31263 0.36109 0.0
C2584 C 0.83755 0.28017 0.30567 0.0
C2585 C 0.8536 0.27792 0.31434 0.0
C2586 C 0.90015 0.29482 0.31642 0.0
C2587 C 0.937 0.2948 0.35492 0.0
C2588 C 0.9191 0.29179 0.34439 0.0
C2589 C 0.86853 0.29237 0.31595 0.0
C2590 C 0.88561 0.29045 0.32523 0.0
H2591 H 0.96165 0.27619 0.38659 0.0
H2592 H 0.93176 0.27115 0.37035 0.0
H2593 H 0.92759 0.29888 0.3186 0.0
H2594 H 0.85044 0.3246 0.29542 0.0
H2595 H 0.87842 0.32046 0.31002 0.0
C2596 C 0.04965 0.74126 0.62921 0.0
C2597 C 0.04538 0.75624 0.62049 0.0
C2598 C 0.04688 0.7235 0.61937 0.0
C2599 C 0.02194 0.69306 0.57738 0.0
H2600 H 0.05722 0.6648 0.58677 0.0
C2601 C 0.02025 0.62376 0.53258 0.0
C2602 C 0.02601 0.60951 0.54123 0.0
C2603 C 0.02192 0.64134 0.54244 0.0
C2604 C 0.04711 0.67234 0.58416 0.0
H2605 H 0.03465 0.76403 0.59441 0.0
H2606 H 0.02981 0.73282 0.5771 0.0
H2607 H 0.06167 0.69621 0.60285 0.0
H2608 H 0.03767 0.60238 0.56718 0.0
H2609 H 0.04044 0.63311 0.58461 0.0
H2610 H 0.00735 0.66915 0.5587 0.0
C2611 C 0.03524 0.73494 0.59169 0.0
C2612 C 0.04968 0.69043 0.59335 0.0
C2613 C 0.03808 0.75285 0.60159 0.0
C2614 C 0.03316 0.61311 0.56013 0.0
C2615 C 0.03485 0.63076 0.57006 0.0
C2616 C 0.01934 0.67493 0.5682 0.0
C2617 C 0.03974 0.72008 0.60046 0.0
C2618 C 0.03712 0.70102 0.59013 0.0
C2619 C 0.02939 0.64518 0.56128 0.0
C2620 C 0.03189 0.66431 0.57147 0.0
H2621 H 0.05523 0.7432 0.64376 0.0
H2622 H 0.05022 0.71237 0.62668 0.0
H2623 H 0.01188 0.70069 0.57475 0.0
H2624 H 0.01472 0.62145 0.518 0.0
H2625 H 0.01778 0.65209 0.53512 0.0
C2626 C 0.56394 0.77879 0.87031 0.0
C2627 C 0.56645 0.78829 0.88832 0.0
C2628 C 0.57809 0.77746 0.8615 0.0
C2629 C 0.62322 0.80029 0.86068 0.0
H2630 H 0.62531 0.75248 0.83554 0.0
C2631 C 0.683 0.78998 0.82841 0.0
C2632 C 0.68011 0.77801 0.81166 0.0
C2633 C 0.6694 0.79122 0.83818 0.0
C2634 C 0.62484 0.766 0.84225 0.0
H2635 H 0.58577 0.80393 0.91118 0.0
H2636 H 0.61056 0.80179 0.89562 0.0
H2637 H 0.60112 0.75474 0.85174 0.0
H2638 H 0.66049 0.75787 0.79216 0.0
H2639 H 0.63672 0.7606 0.80872 0.0
H2640 H 0.64667 0.81171 0.85085 0.0
C2641 C 0.5976 0.79536 0.88838 0.0
C2642 C 0.611 0.76726 0.85161 0.0
C2643 C 0.58343 0.7965 0.89731 0.0
C2644 C 0.66321 0.76741 0.80488 0.0
C2645 C 0.64959 0.76876 0.81456 0.0
C2646 C 0.63698 0.79908 0.85115 0.0
C2647 C 0.59506 0.78576 0.87041 0.0
C2648 C 0.61001 0.78441 0.86088 0.0
C2649 C 0.6525 0.78063 0.83138 0.0
C2650 C 0.63796 0.78193 0.84176 0.0
H2651 H 0.55102 0.77231 0.863 0.0
H2652 H 0.57573 0.77013 0.84758 0.0
H2653 H 0.62269 0.81373 0.86754 0.0
H2654 H 0.69577 0.79857 0.83395 0.0
H2655 H 0.67221 0.80035 0.85117 0.0
C2656 C 0.42537 0.57642 0.65896 0.0
C2657 C 0.40969 0.56294 0.65641 0.0
C2658 C 0.43386 0.58041 0.644 0.0
C2659 C 0.44239 0.55436 0.60553 0.0
H2660 H 0.46639 0.60149 0.59244 0.0
C2661 C 0.49414 0.55521 0.55943 0.0
C2662 C 0.50883 0.57003 0.56307 0.0
C2663 C 0.47953 0.55623 0.56736 0.0
C2664 C 0.45992 0.58822 0.59606 0.0
H2665 H 0.38993 0.5439 0.63625 0.0
H2666 H 0.40525 0.55032 0.60998 0.0
H2667 H 0.4441 0.601 0.6122 0.0
H2668 H 0.51999 0.59752 0.57816 0.0
H2669 H 0.49495 0.59876 0.59349 0.0
H2670 H 0.45898 0.54157 0.59117 0.0
C2671 C 0.41071 0.55806 0.62352 0.0
C2672 C 0.44701 0.58796 0.60714 0.0
C2673 C 0.40198 0.5544 0.63848 0.0
C2674 C 0.50876 0.58591 0.57509 0.0
C2675 C 0.4943 0.58669 0.58364 0.0
C2676 C 0.45552 0.55464 0.5949 0.0
C2677 C 0.42699 0.57065 0.62633 0.0
C2678 C 0.4383 0.57103 0.6121 0.0
C2679 C 0.47951 0.57175 0.57998 0.0
C2680 C 0.46464 0.57159 0.59017 0.0
H2681 H 0.43149 0.58322 0.67271 0.0
H2682 H 0.44647 0.59001 0.64653 0.0
H2683 H 0.43616 0.54118 0.60958 0.0
H2684 H 0.49398 0.54263 0.55059 0.0
H2685 H 0.46834 0.54463 0.56374 0.0
C2686 C 0.7824 0.24302 0.96668 0.0
C2687 C 0.77995 0.22356 0.96624 0.0
C2688 C 0.78194 0.2512 0.95019 0.0
C2689 C 0.78431 0.24105 0.89984 0.0
H2690 H 0.764 0.28393 0.89539 0.0
C2691 C 0.77041 0.26907 0.82966 0.0
C2692 C 0.77616 0.28845 0.82983 0.0
C2693 C 0.77004 0.26125 0.8463 0.0
C2694 C 0.76978 0.27201 0.89646 0.0
H2695 H 0.77498 0.19747 0.94806 0.0
H2696 H 0.77373 0.21155 0.9195 0.0
H2697 H 0.76552 0.27034 0.92445 0.0
H2698 H 0.78537 0.31485 0.84768 0.0
H2699 H 0.78448 0.30122 0.87662 0.0
H2700 H 0.7883 0.24258 0.87173 0.0
C2701 C 0.77646 0.22065 0.93251 0.0
C2702 C 0.77076 0.26426 0.91317 0.0
C2703 C 0.77708 0.21252 0.94895 0.0
C2704 C 0.78089 0.29987 0.84702 0.0
C2705 C 0.78033 0.29206 0.86363 0.0
C2706 C 0.78317 0.24868 0.8831 0.0
C2707 C 0.77887 0.24011 0.93283 0.0
C2708 C 0.77804 0.24865 0.91512 0.0
C2709 C 0.7752 0.27263 0.86349 0.0
C2710 C 0.77591 0.26426 0.8812 0.0
H2711 H 0.78466 0.25193 0.97977 0.0
H2712 H 0.78412 0.26625 0.95107 0.0
H2713 H 0.79035 0.22931 0.90084 0.0
H2714 H 0.76671 0.25986 0.81669 0.0
H2715 H 0.76584 0.24624 0.84572 0.0
C2716 C 0.08292 0.45715 0.17227 0.0
C2717 C 0.10068 0.45731 0.17493 0.0
C2718 C 0.07497 0.46211 0.15598 0.0
C2719 C 0.08653 0.49117 0.11969 0.0
H2720 H 0.03736 0.47428 0.10094 0.0
C2721 C 0.04831 0.53651 0.07922 0.0
C2722 C 0.03459 0.52763 0.06507 0.0
C2723 C 0.05692 0.52596 0.09045 0.0
C2724 C 0.05117 0.47902 0.10575 0.0
H2725 H 0.12366 0.46109 0.16187 0.0
H2726 H 0.1096 0.46927 0.1331 0.0
H2727 H 0.05119 0.45721 0.12291 0.0
H2728 H 0.0193 0.50085 0.05118 0.0
H2729 H 0.03447 0.48242 0.07049 0.0
H2730 H 0.08656 0.51282 0.1023 0.0
C2731 C 0.10196 0.46586 0.14389 0.0
C2732 C 0.05907 0.46933 0.11854 0.0
C2733 C 0.10998 0.46099 0.16029 0.0
C2734 C 0.02968 0.50805 0.06221 0.0
C2735 C 0.03838 0.4975 0.07329 0.0
C2736 C 0.07867 0.50075 0.10674 0.0
C2737 C 0.08453 0.46717 0.14183 0.0
C2738 C 0.07675 0.47558 0.12607 0.0
C2739 C 0.05205 0.5063 0.08762 0.0
C2740 C 0.0608 0.49509 0.09998 0.0
H2741 H 0.07537 0.4543 0.18325 0.0
H2742 H 0.06157 0.4631 0.15503 0.0
H2743 H 0.10014 0.49652 0.12528 0.0
H2744 H 0.05232 0.5516 0.08167 0.0
H2745 H 0.06719 0.53323 0.10154 0.0
C2746 C 0.77811 0.90194 0.46422 0.0
C2747 C 0.78661 0.89681 0.48034 0.0
C2748 C 0.77738 0.89207 0.44688 0.0
C2749 C 0.77014 0.86363 0.41276 0.0
H2750 H 0.8122 0.8514 0.40006 0.0
C2751 C 0.77161 0.82605 0.34078 0.0
C2752 C 0.786 0.83278 0.33227 0.0
C2753 C 0.77162 0.83194 0.35943 0.0
C2754 C 0.80037 0.85478 0.40337 0.0
H2755 H 0.80073 0.87694 0.49082 0.0
H2756 H 0.79942 0.85958 0.46034 0.0
H2757 H 0.81185 0.86493 0.43162 0.0
H2758 H 0.81181 0.85081 0.33688 0.0
H2759 H 0.8117 0.86131 0.36935 0.0
H2760 H 0.7588 0.85415 0.38446 0.0
C2761 C 0.79342 0.87139 0.46123 0.0
C2762 C 0.8001 0.86232 0.42153 0.0
C2763 C 0.79406 0.88125 0.4787 0.0
C2764 C 0.8005 0.84535 0.34297 0.0
C2765 C 0.80049 0.85127 0.36164 0.0
C2766 C 0.7704 0.8561 0.39466 0.0
C2767 C 0.78517 0.8768 0.4451 0.0
C2768 C 0.78505 0.86711 0.42636 0.0
C2769 C 0.78599 0.84474 0.37007 0.0
C2770 C 0.78557 0.85179 0.38966 0.0
H2771 H 0.7722 0.91383 0.46491 0.0
H2772 H 0.77113 0.89679 0.43476 0.0
H2773 H 0.75828 0.86696 0.41606 0.0
H2774 H 0.76026 0.81623 0.33305 0.0
H2775 H 0.76034 0.8264 0.36552 0.0
C2776 C 0.43637 0.55178 0.76498 0.0
C2777 C 0.44028 0.53932 0.75144 0.0
C2778 C 0.44485 0.55415 0.7832 0.0
C2779 C 0.48214 0.54531 0.81388 0.0
H2780 H 0.4506 0.54247 0.84963 0.0
C2781 C 0.49834 0.52716 0.88819 0.0
C2782 C 0.49132 0.53575 0.90222 0.0
C2783 C 0.49434 0.53044 0.86986 0.0
C2784 C 0.45967 0.54366 0.83992 0.0
H2785 H 0.45674 0.52022 0.74616 0.0
H2786 H 0.47134 0.52406 0.77827 0.0
H2787 H 0.43967 0.54307 0.8173 0.0
H2788 H 0.47575 0.55546 0.9085 0.0
H2789 H 0.46895 0.5614 0.87653 0.0
H2790 H 0.50209 0.54548 0.83666 0.0
C2791 C 0.46184 0.53215 0.77467 0.0
C2792 C 0.45339 0.54398 0.82136 0.0
C2793 C 0.4534 0.52985 0.75633 0.0
C2794 C 0.481 0.54837 0.89782 0.0
C2795 C 0.47713 0.55176 0.87956 0.0
C2796 C 0.48846 0.54501 0.83255 0.0
C2797 C 0.45734 0.54401 0.78834 0.0
C2798 C 0.46451 0.5447 0.80812 0.0
C2799 C 0.48337 0.54245 0.86532 0.0
C2800 C 0.47723 0.54406 0.84572 0.0
H2801 H 0.42654 0.55954 0.76159 0.0
H2802 H 0.44137 0.56367 0.79337 0.0
H2803 H 0.49101 0.54601 0.80396 0.0
H2804 H 0.50633 0.51735 0.89129 0.0
H2805 H 0.49922 0.52293 0.85916 0.0
C2806 C 0.78918 0.23661 0.08305 0.0
C2807 C 0.78025 0.21773 0.08039 0.0
C2808 C 0.79131 0.24744 0.10036 0.0
C2809 C 0.77284 0.24875 0.14407 0.0
H2810 H 0.8175 0.28071 0.16583 0.0
C2811 C 0.7878 0.27959 0.22135 0.0
C2812 C 0.79697 0.29827 0.22569 0.0
C2813 C 0.78613 0.2702 0.20347 0.0
C2814 C 0.80488 0.272 0.15989 0.0
H2815 H 0.76644 0.19561 0.09393 0.0
H2816 H 0.77019 0.21428 0.12368 0.0
H2817 H 0.8135 0.26442 0.13446 0.0
H2818 H 0.81188 0.3217 0.21485 0.0
H2819 H 0.80894 0.30543 0.18374 0.0
H2820 H 0.76421 0.2562 0.16942 0.0
C2821 C 0.77543 0.22085 0.11248 0.0
C2822 C 0.80259 0.2627 0.14187 0.0
C2823 C 0.7734 0.21007 0.09536 0.0
C2824 C 0.80476 0.30726 0.21194 0.0
C2825 C 0.80314 0.2979 0.1941 0.0
C2826 C 0.77513 0.25802 0.16204 0.0
C2827 C 0.78439 0.23966 0.11527 0.0
C2828 C 0.78659 0.25077 0.13382 0.0
C2829 C 0.79363 0.27931 0.18955 0.0
C2830 C 0.79123 0.26963 0.17028 0.0
H2831 H 0.79463 0.24296 0.07185 0.0
H2832 H 0.79821 0.26194 0.10203 0.0
H2833 H 0.76025 0.23994 0.13819 0.0
H2834 H 0.78167 0.27233 0.23164 0.0
H2835 H 0.77893 0.2558 0.20054 0.0
C2836 C 0.07967 0.49859 0.27763 0.0
C2837 C 0.0937 0.49034 0.27566 0.0
C2838 C 0.0768 0.50485 0.29514 0.0
C2839 C 0.08503 0.49915 0.34416 0.0
H2840 H 0.07162 0.54654 0.3503 0.0
C2841 C 0.06565 0.52833 0.4122 0.0
C2842 C 0.04994 0.53411 0.40949 0.0
C2843 C 0.07385 0.52453 0.39715 0.0
C2844 C 0.07538 0.5333 0.34879 0.0
H2845 H 0.11548 0.48176 0.29063 0.0
H2846 H 0.11032 0.49267 0.32136 0.0
H2847 H 0.0806 0.53646 0.32138 0.0
H2848 H 0.03044 0.54027 0.38887 0.0
H2849 H 0.04478 0.53384 0.36275 0.0
H2850 H 0.07931 0.49579 0.37144 0.0
C2851 C 0.10161 0.49427 0.30925 0.0
C2852 C 0.08047 0.52752 0.33225 0.0
C2853 C 0.10453 0.48802 0.29167 0.0
C2854 C 0.04269 0.53618 0.39148 0.0
C2855 C 0.05091 0.53251 0.37651 0.0
C2856 C 0.07992 0.50495 0.36075 0.0
C2857 C 0.08787 0.503 0.31111 0.0
C2858 C 0.08481 0.51013 0.32955 0.0
C2859 C 0.06652 0.52659 0.37917 0.0
C2860 C 0.07453 0.52181 0.36296 0.0
H2861 H 0.07102 0.50053 0.26562 0.0
H2862 H 0.06587 0.51115 0.29618 0.0
H2863 H 0.08828 0.48566 0.34242 0.0
H2864 H 0.07169 0.52687 0.42596 0.0
H2865 H 0.08593 0.52008 0.39957 0.0
C2866 C 0.80936 0.89928 0.61105 0.0
C2867 C 0.80302 0.88904 0.59342 0.0
C2868 C 0.80863 0.89049 0.62707 0.0
C2869 C 0.80306 0.84451 0.64469 0.0
H2870 H 0.78633 0.86981 0.68463 0.0
C2871 C 0.78131 0.80809 0.70692 0.0
C2872 C 0.78455 0.81885 0.72437 0.0
C2873 C 0.78488 0.81646 0.69112 0.0
C2874 C 0.79129 0.86265 0.67378 0.0
H2875 H 0.79148 0.86134 0.57882 0.0
H2876 H 0.79022 0.84596 0.60681 0.0
H2877 H 0.7905 0.88461 0.65689 0.0
H2878 H 0.79458 0.84673 0.73908 0.0
H2879 H 0.80119 0.86129 0.71169 0.0
H2880 H 0.80383 0.82251 0.66162 0.0
C2881 C 0.79583 0.86082 0.60823 0.0
C2882 C 0.79366 0.87115 0.65782 0.0
C2883 C 0.7965 0.86964 0.59218 0.0
C2884 C 0.79185 0.83808 0.7258 0.0
C2885 C 0.79551 0.84644 0.71004 0.0
C2886 C 0.80077 0.83602 0.66073 0.0
C2887 C 0.80158 0.8712 0.62589 0.0
C2888 C 0.79953 0.86219 0.64304 0.0
C2889 C 0.79186 0.8358 0.69243 0.0
C2890 C 0.7948 0.84495 0.67548 0.0
H2891 H 0.81453 0.91423 0.61254 0.0
H2892 H 0.81344 0.89886 0.64042 0.0
H2893 H 0.80777 0.8373 0.63365 0.0
H2894 H 0.77569 0.79323 0.70539 0.0
H2895 H 0.78171 0.80783 0.67781 0.0
C2896 C 0.72499 0.43688 0.53012 0.0
C2897 C 0.74153 0.44496 0.54029 0.0
C2898 C 0.7116 0.44641 0.53021 0.0
C2899 C 0.70484 0.49449 0.54169 0.0
H2900 H 0.65656 0.46864 0.53647 0.0
C2901 C 0.65027 0.53189 0.55441 0.0
C2902 C 0.63588 0.52844 0.54009 0.0
C2903 C 0.66276 0.52125 0.55424 0.0
C2904 C 0.67001 0.476 0.53784 0.0
H2905 H 0.75684 0.46881 0.55928 0.0
H2906 H 0.73342 0.48487 0.56023 0.0
H2907 H 0.67897 0.45068 0.53727 0.0
H2908 H 0.6236 0.51084 0.51428 0.0
H2909 H 0.6451 0.49182 0.51452 0.0
H2910 H 0.69583 0.51981 0.5429 0.0
C2911 C 0.73083 0.47166 0.5515 0.0
C2912 C 0.68287 0.46573 0.53822 0.0
C2913 C 0.74424 0.46233 0.55109 0.0
C2914 C 0.63426 0.51378 0.52575 0.0
C2915 C 0.64662 0.5029 0.52579 0.0
C2916 C 0.69204 0.50472 0.54167 0.0
C2917 C 0.71439 0.46407 0.54073 0.0
C2918 C 0.70051 0.47484 0.5402 0.0
C2919 C 0.66105 0.50663 0.53997 0.0
C2920 C 0.67451 0.4956 0.53976 0.0
H2921 H 0.72257 0.42355 0.52161 0.0
H2922 H 0.69922 0.44013 0.52158 0.0
H2923 H 0.71816 0.50209 0.54269 0.0
H2924 H 0.65185 0.5427 0.56594 0.0
H2925 H 0.67369 0.52429 0.56545 0.0
C2926 C 0.2086 0.1457 0.4936 0.0
C2927 C 0.21283 0.16513 0.4988 0.0
C2928 C 0.19211 0.13509 0.49449 0.0
C2929 C 0.15318 0.11811 0.48795 0.0
H2930 H 0.13249 0.12738 0.53162 0.0
C2931 C 0.08155 0.08659 0.4914 0.0
C2932 C 0.07771 0.07905 0.50759 0.0
C2933 C 0.09822 0.09669 0.49059 0.0
C2934 C 0.13815 0.12455 0.51941 0.0
H2935 H 0.20295 0.18869 0.50877 0.0
H2936 H 0.17412 0.17013 0.51036 0.0
H2937 H 0.16114 0.146 0.52933 0.0
H2938 H 0.08826 0.07629 0.53572 0.0
H2939 H 0.11755 0.09421 0.53438 0.0
H2940 H 0.13022 0.09669 0.478 0.0
C2941 C 0.18364 0.16311 0.5057 0.0
C2942 C 0.15446 0.13534 0.518 0.0
C2943 C 0.2001 0.17376 0.50465 0.0
C2944 C 0.09088 0.08192 0.52305 0.0
C2945 C 0.10759 0.09223 0.52231 0.0
C2946 C 0.13682 0.10745 0.48928 0.0
C2947 C 0.1795 0.14364 0.50075 0.0
C2948 C 0.16214 0.13225 0.50224 0.0
C2949 C 0.11144 0.09966 0.50602 0.0
C2950 C 0.1291 0.11058 0.50499 0.0
H2951 H 0.21813 0.13862 0.48906 0.0
H2952 H 0.18936 0.12011 0.4907 0.0
H2953 H 0.1587 0.11545 0.47559 0.0
H2954 H 0.07164 0.08468 0.47927 0.0
H2955 H 0.1007 0.10243 0.47793 0.0
C2956 C 0.19324 0.02323 0.8127 0.0
C2957 C 0.20217 0.03917 0.82491 0.0
C2958 C 0.2023 0.01137 0.80452 0.0
C2959 C 0.24684 0.00886 0.79622 0.0
H2960 H 0.22662 0.95562 0.78821 0.0
C2961 C 0.28336 0.94945 0.79212 0.0
C2962 C 0.27635 0.93412 0.7783 0.0
C2963 C 0.27518 0.96427 0.7939 0.0
C2964 C 0.23228 0.97049 0.79008 0.0
H2965 H 0.2275 0.05508 0.8385 0.0
H2966 H 0.24332 0.03385 0.82514 0.0
H2967 H 0.21028 0.97689 0.80028 0.0
H2968 H 0.25624 0.92344 0.75434 0.0
H2969 H 0.24152 0.94897 0.75815 0.0
H2970 H 0.26937 0.00201 0.78716 0.0
C2971 C 0.22937 0.03082 0.82122 0.0
C2972 C 0.22292 0.98273 0.79697 0.0
C2973 C 0.22031 0.04289 0.82908 0.0
C2974 C 0.26173 0.93472 0.76546 0.0
C2975 C 0.25336 0.94937 0.76751 0.0
C2976 C 0.25634 0.99653 0.78968 0.0
C2977 C 0.2205 0.01498 0.8087 0.0
C2978 C 0.23014 0.00207 0.80035 0.0
C2979 C 0.25973 0.96393 0.78211 0.0
C2980 C 0.24917 0.97726 0.78672 0.0
H2981 H 0.17925 0.02018 0.80903 0.0
H2982 H 0.195 0.99956 0.7947 0.0
H2983 H 0.25269 0.02367 0.79821 0.0
H2984 H 0.29444 0.94947 0.80241 0.0
H2985 H 0.28024 0.97531 0.80536 0.0
C2986 C 0.3512 0.9579 0.04445 0.0
C2987 C 0.33973 0.96211 0.03001 0.0
C2988 C 0.36877 0.96719 0.04784 0.0
C2989 C 0.39838 0.00982 0.03737 0.0
H2990 H 0.43442 0.98303 0.04898 0.0
C2991 C 0.46775 0.03377 0.02283 0.0
C2992 C 0.48157 0.03338 0.03674 0.0
C2993 C 0.45067 0.02639 0.02493 0.0
C2994 C 0.42447 0.99074 0.04601 0.0
H2995 H 0.33786 0.97897 0.00746 0.0
H2996 H 0.36823 0.9946 0.01297 0.0
H2997 H 0.40401 0.96702 0.04697 0.0
H2998 H 0.48833 0.02515 0.06388 0.0
H2999 H 0.4583 0.01178 0.06733 0.0
H3000 H 0.41881 0.03323 0.03553 0.0
C3001 C 0.36371 0.98463 0.02213 0.0
C3002 C 0.40706 0.9816 0.04489 0.0
C3003 C 0.34625 0.97551 0.01886 0.0
C3004 C 0.47793 0.02571 0.05296 0.0
C3005 C 0.4608 0.01798 0.0549 0.0
C3006 C 0.41571 0.01884 0.03826 0.0
C3007 C 0.37519 0.9808 0.03678 0.0
C3008 C 0.39377 0.99091 0.0401 0.0
C3009 C 0.44703 0.01818 0.04084 0.0
C3010 C 0.4289 0.00928 0.04221 0.0
H3011 H 0.34657 0.94767 0.05332 0.0
H3012 H 0.37723 0.96395 0.05929 0.0
H3013 H 0.38854 0.01761 0.03417 0.0
H3014 H 0.47013 0.03963 0.01021 0.0
H3015 H 0.4403 0.0266 0.01382 0.0
C3016 C 0.9149 0.69903 0.81088 0.0
C3017 C 0.9091 0.68012 0.81287 0.0
C3018 C 0.903 0.70993 0.80654 0.0
C3019 C 0.85804 0.70391 0.78346 0.0
H3020 H 0.866 0.7569 0.79979 0.0
C3021 C 0.80756 0.74867 0.76962 0.0
C3022 C 0.81376 0.7671 0.76622 0.0
C3023 C 0.81905 0.73721 0.77351 0.0
C3024 C 0.86375 0.74215 0.79493 0.0
H3025 H 0.88644 0.65821 0.81361 0.0
H3026 H 0.86569 0.67741 0.8066 0.0
H3027 H 0.88604 0.7392 0.8131 0.0
H3028 H 0.83663 0.78736 0.76241 0.0
H3029 H 0.8566 0.76728 0.76914 0.0
H3030 H 0.83557 0.70691 0.76547 0.0
C3031 C 0.87939 0.68365 0.80777 0.0
C3032 C 0.87517 0.73201 0.80261 0.0
C3033 C 0.89128 0.67272 0.81197 0.0
C3034 C 0.83144 0.77329 0.76518 0.0
C3035 C 0.84291 0.76187 0.76916 0.0
C3036 C 0.84654 0.71405 0.77588 0.0
C3037 C 0.88509 0.70214 0.80428 0.0
C3038 C 0.87248 0.71279 0.79693 0.0
C3039 C 0.83691 0.74402 0.77409 0.0
C3040 C 0.84935 0.73327 0.78148 0.0
H3041 H 0.92856 0.70511 0.81144 0.0
H3042 H 0.90783 0.72411 0.80388 0.0
H3043 H 0.85579 0.68919 0.77849 0.0
H3044 H 0.794 0.74344 0.77043 0.0
H3045 H 0.81408 0.72347 0.77724 0.0
C3046 C 0.82172 0.66687 0.00514 0.0
C3047 C 0.80919 0.65799 0.01504 0.0
C3048 C 0.83728 0.66102 0.00485 0.0
C3049 C 0.85559 0.61979 0.01234 0.0
H3050 H 0.90037 0.65413 0.01679 0.0
C3051 C 0.91822 0.59452 0.02699 0.0
C3052 C 0.93102 0.60009 0.01607 0.0
C3053 C 0.90425 0.60307 0.02694 0.0
C3054 C 0.88793 0.64439 0.01538 0.0
H3055 H 0.80354 0.63649 0.03299 0.0
H3056 H 0.83047 0.62663 0.0327 0.0
H3057 H 0.87409 0.6663 0.01606 0.0
H3058 H 0.93955 0.61958 0.99711 0.0
H3059 H 0.91508 0.63462 0.9971 0.0
H3060 H 0.86926 0.59792 0.01182 0.0
C3061 C 0.8282 0.63776 0.02474 0.0
C3062 C 0.87289 0.65134 0.01491 0.0
C3063 C 0.81274 0.6435 0.02497 0.0
C3064 C 0.92994 0.61503 0.00575 0.0
C3065 C 0.91593 0.62363 0.00572 0.0
C3066 C 0.87054 0.61289 0.01288 0.0
C3067 C 0.84057 0.6462 0.01447 0.0
C3068 C 0.85657 0.63911 0.01369 0.0
C3069 C 0.90272 0.61742 0.01599 0.0
C3070 C 0.88691 0.62509 0.01469 0.0
H3071 H 0.81941 0.67811 0.99739 0.0
H3072 H 0.84653 0.66779 0.99675 0.0
H3073 H 0.84321 0.60992 0.01088 0.0
H3074 H 0.91886 0.58335 0.03543 0.0
H3075 H 0.8945 0.59826 0.03535 0.0
C3076 C 0.21685 0.14239 0.84263 0.0
C3077 C 0.20032 0.14347 0.84642 0.0
C3078 C 0.22822 0.15813 0.83866 0.0
C3079 C 0.22695 0.20243 0.82019 0.0
H3080 H 0.27692 0.21293 0.83412 0.0
C3081 C 0.27178 0.25417 0.7848 0.0
C3082 C 0.28571 0.26679 0.79622 0.0
C3083 C 0.26219 0.23913 0.79184 0.0
C3084 C 0.26298 0.21026 0.83024 0.0
H3085 H 0.18323 0.16222 0.85021 0.0
H3086 H 0.20317 0.18971 0.84363 0.0
H3087 H 0.25876 0.18745 0.84632 0.0
H3088 H 0.30092 0.2734 0.82378 0.0
H3089 H 0.28409 0.24711 0.83619 0.0
H3090 H 0.23107 0.22531 0.80432 0.0
C3091 C 0.20718 0.17659 0.84327 0.0
C3092 C 0.25259 0.19557 0.83709 0.0
C3093 C 0.19579 0.16085 0.84715 0.0
C3094 C 0.29025 0.26381 0.81467 0.0
C3095 C 0.28064 0.24875 0.82175 0.0
C3096 C 0.2373 0.21707 0.81336 0.0
C3097 C 0.22332 0.17531 0.83847 0.0
C3098 C 0.23446 0.19144 0.83207 0.0
C3099 C 0.26634 0.23641 0.81048 0.0
C3100 C 0.25544 0.22106 0.81816 0.0
H3101 H 0.22075 0.1292 0.84193 0.0
H3102 H 0.24051 0.15663 0.8349 0.0
H3103 H 0.21304 0.19949 0.81581 0.0
H3104 H 0.26809 0.25608 0.77047 0.0
H3105 H 0.25146 0.22968 0.7827 0.0
C3106 C 0.40368 0.07695 0.28436 0.0
C3107 C 0.41966 0.08087 0.27794 0.0
C3108 C 0.39243 0.0594 0.27954 0.0
C3109 C 0.39358 0.01084 0.2661 0.0
H3110 H 0.34351 0.00295 0.25957 0.0
C3111 C 0.35153 0.93741 0.26208 0.0
C3112 C 0.33934 0.93583 0.2742 0.0
C3113 C 0.35919 0.95485 0.2576 0.0
C3114 C 0.35747 0.00495 0.26134 0.0
H3115 H 0.43594 0.06971 0.26067 0.0
H3116 H 0.41619 0.03912 0.25213 0.0
H3117 H 0.36132 0.03447 0.2608 0.0
H3118 H 0.32485 0.95102 0.29031 0.0
H3119 H 0.33844 0.98158 0.28276 0.0
H3120 H 0.38989 0.98156 0.26731 0.0
C3121 C 0.41253 0.04954 0.26116 0.0
C3122 C 0.36766 0.02297 0.26207 0.0
C3123 C 0.42383 0.06708 0.26604 0.0
C3124 C 0.33416 0.95186 0.28087 0.0
C3125 C 0.34191 0.96934 0.27648 0.0
C3126 C 0.38343 0.99288 0.26536 0.0
C3127 C 0.39685 0.0454 0.26814 0.0
C3128 C 0.38585 0.02615 0.26489 0.0
C3129 C 0.35491 0.97107 0.26527 0.0
C3130 C 0.36529 0.98977 0.26339 0.0
H3131 H 0.40003 0.08728 0.29351 0.0
H3132 H 0.38056 0.0566 0.28536 0.0
H3133 H 0.40755 0.01282 0.26859 0.0
H3134 H 0.35549 0.92519 0.25648 0.0
H3135 H 0.36891 0.9557 0.24863 0.0
C3136 C 0.55388 0.37237 0.5897 0.0
C3137 C 0.55566 0.37462 0.60914 0.0
C3138 C 0.55136 0.38712 0.57972 0.0
C3139 C 0.55858 0.43846 0.58538 0.0
H3140 H 0.52411 0.4309 0.54102 0.0
C3141 C 0.55222 0.49842 0.54237 0.0
C3142 C 0.53535 0.50088 0.53707 0.0
C3143 C 0.55488 0.48212 0.54933 0.0
C3144 C 0.53377 0.43322 0.55341 0.0
H3145 H 0.55601 0.39406 0.63332 0.0
H3146 H 0.55166 0.41961 0.616 0.0
H3147 H 0.52829 0.40418 0.55704 0.0
H3148 H 0.50802 0.48769 0.53431 0.0
H3149 H 0.51268 0.45925 0.54659 0.0
H3150 H 0.56388 0.46745 0.58208 0.0
C3151 C 0.55236 0.40656 0.60843 0.0
C3152 C 0.53627 0.41791 0.56247 0.0
C3153 C 0.55476 0.39185 0.61836 0.0
C3154 C 0.52119 0.4863 0.53827 0.0
C3155 C 0.52386 0.46994 0.54523 0.0
C3156 C 0.55617 0.4537 0.57628 0.0
C3157 C 0.55073 0.40443 0.58901 0.0
C3158 C 0.54857 0.4204 0.57869 0.0
C3159 C 0.54074 0.46782 0.55118 0.0
C3160 C 0.54366 0.45132 0.56026 0.0
H3161 H 0.5545 0.35926 0.58219 0.0
H3162 H 0.55024 0.38509 0.56477 0.0
H3163 H 0.5683 0.44083 0.59772 0.0
H3164 H 0.56347 0.50924 0.54155 0.0
H3165 H 0.56805 0.48081 0.55349 0.0
C3166 C 0.4588 0.81378 0.36442 0.0
C3167 C 0.46308 0.79835 0.37212 0.0
C3168 C 0.44191 0.81298 0.35595 0.0
C3169 C 0.39628 0.785 0.34983 0.0
H3170 H 0.39117 0.81223 0.3075 0.0
C3171 C 0.33247 0.77608 0.29756 0.0
C3172 C 0.32743 0.79274 0.29439 0.0
C3173 C 0.34867 0.77654 0.30784 0.0
C3174 C 0.39241 0.80466 0.31937 0.0
H3175 H 0.45301 0.77004 0.37726 0.0
H3176 H 0.42352 0.76822 0.36163 0.0
H3177 H 0.42 0.81293 0.32365 0.0
H3178 H 0.33526 0.8229 0.29937 0.0
H3179 H 0.36388 0.82376 0.31686 0.0
H3180 H 0.3685 0.77616 0.34479 0.0
C3181 C 0.43311 0.78118 0.36258 0.0
C3182 C 0.40894 0.80513 0.32876 0.0
C3183 C 0.45003 0.78215 0.37146 0.0
C3184 C 0.33886 0.80988 0.3016 0.0
C3185 C 0.3552 0.81036 0.31156 0.0
C3186 C 0.37973 0.78425 0.34017 0.0
C3187 C 0.42887 0.79655 0.35451 0.0
C3188 C 0.41114 0.79549 0.34427 0.0
C3189 C 0.36022 0.79369 0.31479 0.0
C3190 C 0.37767 0.79422 0.32497 0.0
H3191 H 0.46854 0.82659 0.36501 0.0
H3192 H 0.43913 0.82533 0.35051 0.0
H3193 H 0.39736 0.7776 0.36182 0.0
H3194 H 0.32384 0.76267 0.29222 0.0
H3195 H 0.3523 0.76352 0.31006 0.0
C3196 C 0.05662 0.76114 0.10723 0.0
C3197 C 0.05934 0.76405 0.12671 0.0
C3198 C 0.05407 0.74311 0.09778 0.0
C3199 C 0.04051 0.70193 0.08131 0.0
H3200 H 0.0669 0.66919 0.10397 0.0
C3201 C 0.02707 0.62267 0.05558 0.0
C3202 C 0.04138 0.61437 0.05626 0.0
C3203 C 0.02913 0.6412 0.06339 0.0
C3204 C 0.05955 0.67815 0.09727 0.0
H3205 H 0.06074 0.75016 0.15147 0.0
H3206 H 0.05589 0.71903 0.13515 0.0
H3207 H 0.07107 0.70104 0.11832 0.0
H3208 H 0.06914 0.61924 0.06528 0.0
H3209 H 0.07277 0.65147 0.07842 0.0
H3210 H 0.02941 0.67906 0.05989 0.0
C3211 C 0.05628 0.73061 0.12709 0.0
C3212 C 0.06176 0.69641 0.10569 0.0
C3213 C 0.05897 0.74852 0.13647 0.0
C3214 C 0.05778 0.62507 0.06474 0.0
C3215 C 0.05986 0.64359 0.07235 0.0
C3216 C 0.03839 0.68363 0.07277 0.0
C3217 C 0.05408 0.72765 0.10764 0.0
C3218 C 0.05214 0.7085 0.09796 0.0
C3219 C 0.04556 0.6519 0.07192 0.0
C3220 C 0.04783 0.67148 0.08071 0.0
H3221 H 0.05682 0.77282 0.09932 0.0
H3222 H 0.0525 0.74136 0.0828 0.0
H3223 H 0.03281 0.71081 0.07502 0.0
H3224 H 0.01425 0.61483 0.04912 0.0
H3225 H 0.01778 0.64703 0.063 0.0
C3226 C 0.07966 0.29697 0.90415 0.0
C3227 C 0.06339 0.29037 0.89283 0.0
C3228 C 0.0949 0.29871 0.89645 0.0
C3229 C 0.11042 0.30326 0.85172 0.0
H3230 H 0.14984 0.28585 0.87435 0.0
C3231 C 0.16305 0.28881 0.81092 0.0
C3232 C 0.18047 0.29477 0.81947 0.0
C3233 C 0.1497 0.28967 0.82106 0.0
C3234 C 0.13902 0.29101 0.86802 0.0
H3235 H 0.05035 0.28 0.8647 0.0
H3236 H 0.07677 0.28286 0.85141 0.0
H3237 H 0.12471 0.28477 0.89014 0.0
H3238 H 0.19749 0.30621 0.8455 0.0
H3239 H 0.17402 0.3075 0.86333 0.0
H3240 H 0.12449 0.3092 0.82947 0.0
C3241 C 0.07782 0.28702 0.86613 0.0
C3242 C 0.12465 0.2904 0.87705 0.0
C3243 C 0.06267 0.28525 0.87379 0.0
C3244 C 0.18421 0.30135 0.83853 0.0
C3245 C 0.17079 0.30213 0.84873 0.0
C3246 C 0.12471 0.30384 0.84272 0.0
C3247 C 0.0941 0.29394 0.87731 0.0
C3248 C 0.11005 0.29615 0.86878 0.0
C3249 C 0.1534 0.29643 0.84004 0.0
C3250 C 0.13901 0.29736 0.85056 0.0
H3251 H 0.08062 0.30101 0.91888 0.0
H3252 H 0.10727 0.30413 0.9054 0.0
H3253 H 0.09953 0.3082 0.8452 0.0
H3254 H 0.15968 0.28324 0.79639 0.0
H3255 H 0.13642 0.2848 0.81406 0.0
C3256 C 0.52474 0.74151 0.96228 0.0
C3257 C 0.51581 0.74075 0.94423 0.0
C3258 C 0.52519 0.72507 0.97029 0.0
C3259 C 0.51977 0.6741 0.95712 0.0
H3260 H 0.51886 0.67157 0.00944 0.0
C3261 C 0.51674 0.60477 0.98874 0.0
C3262 C 0.52721 0.60552 0.00598 0.0
C3263 C 0.51463 0.6212 0.98154 0.0
C3264 C 0.51929 0.67208 0.99483 0.0
H3265 H 0.49985 0.72211 0.92071 0.0
H3266 H 0.50036 0.69363 0.93474 0.0
H3267 H 0.51626 0.7003 0.99652 0.0
H3268 H 0.54355 0.62436 0.02919 0.0
H3269 H 0.53994 0.65287 0.01659 0.0
H3270 H 0.52284 0.64594 0.95541 0.0
C3271 C 0.50735 0.70684 0.94261 0.0
C3272 C 0.51781 0.68859 0.9874 0.0
C3273 C 0.50693 0.72323 0.93461 0.0
C3274 C 0.53535 0.62316 0.01589 0.0
C3275 C 0.5332 0.63957 0.00871 0.0
C3276 C 0.52121 0.65761 0.96452 0.0
C3277 C 0.51672 0.70748 0.96045 0.0
C3278 C 0.51804 0.68984 0.96844 0.0
C3279 C 0.52289 0.63883 0.99138 0.0
C3280 C 0.52103 0.65636 0.98348 0.0
H3281 H 0.53178 0.75476 0.97005 0.0
H3282 H 0.53267 0.72615 0.98398 0.0
H3283 H 0.52036 0.6746 0.94253 0.0
H3284 H 0.51023 0.59148 0.98069 0.0
H3285 H 0.50642 0.62006 0.96826 0.0
C3286 C 0.11795 0.81891 0.65816 0.0
C3287 C 0.10711 0.82903 0.66592 0.0
C3288 C 0.13401 0.81843 0.6682 0.0
C3289 C 0.15814 0.8273 0.71666 0.0
H3290 H 0.19666 0.82088 0.69198 0.0
C3291 C 0.22757 0.83003 0.75487 0.0
C3292 C 0.23419 0.81447 0.74974 0.0
C3293 C 0.21227 0.83266 0.74481 0.0
C3294 C 0.18597 0.82265 0.69902 0.0
H3295 H 0.10488 0.84731 0.68984 0.0
H3296 H 0.13319 0.8473 0.70698 0.0
H3297 H 0.17008 0.82494 0.67383 0.0
H3298 H 0.23007 0.78963 0.7299 0.0
H3299 H 0.20359 0.7945 0.71215 0.0
H3300 H 0.1744 0.8255 0.74192 0.0
C3301 C 0.12911 0.83908 0.69348 0.0
C3302 C 0.17068 0.82486 0.68863 0.0
C3303 C 0.11292 0.83925 0.68359 0.0
C3304 C 0.22524 0.80167 0.73431 0.0
C3305 C 0.21017 0.80451 0.72405 0.0
C3306 C 0.17356 0.82545 0.72706 0.0
C3307 C 0.13976 0.82835 0.68611 0.0
C3308 C 0.15644 0.82699 0.69726 0.0
C3309 C 0.20354 0.82001 0.72921 0.0
C3310 C 0.18752 0.82289 0.71831 0.0
H3311 H 0.11375 0.81078 0.64462 0.0
H3312 H 0.14163 0.80976 0.6621 0.0
H3313 H 0.14742 0.82851 0.72384 0.0
H3314 H 0.23418 0.84014 0.76668 0.0
H3315 H 0.20742 0.84475 0.74902 0.0
C3316 C 0.0261 0.36242 0.4548 0.0
C3317 C 0.03422 0.36124 0.43908 0.0
C3318 C 0.02654 0.37987 0.46449 0.0
C3319 C 0.04974 0.43002 0.47117 0.0
H3320 H 0.00714 0.43841 0.48607 0.0
C3321 C 0.04269 0.50387 0.4987 0.0
C3322 C 0.03412 0.50491 0.51406 0.0
C3323 C 0.0425 0.48646 0.48908 0.0
C3324 C 0.0192 0.43628 0.48216 0.0
H3325 H 0.04969 0.37758 0.42168 0.0
H3326 H 0.05038 0.4077 0.43842 0.0
H3327 H 0.00792 0.40763 0.47154 0.0
H3328 H 0.01837 0.48861 0.53118 0.0
H3329 H 0.01818 0.45847 0.51469 0.0
H3330 H 0.06103 0.45868 0.48181 0.0
C3331 C 0.04374 0.39523 0.44338 0.0
C3332 C 0.01966 0.41858 0.47388 0.0
C3333 C 0.04324 0.37788 0.43369 0.0
C3334 C 0.02509 0.48828 0.51937 0.0
C3335 C 0.02489 0.47097 0.50982 0.0
C3336 C 0.04929 0.44773 0.47947 0.0
C3337 C 0.03521 0.39652 0.45875 0.0
C3338 C 0.03493 0.4152 0.46826 0.0
C3339 C 0.0337 0.46976 0.49464 0.0
C3340 C 0.03402 0.4511 0.48511 0.0
H3341 H 0.01903 0.34991 0.45934 0.0
H3342 H 0.02001 0.38033 0.47642 0.0
H3343 H 0.06178 0.42789 0.46722 0.0
H3344 H 0.04983 0.51646 0.49437 0.0
H3345 H 0.04926 0.48609 0.47732 0.0
C3346 C 0.50618 0.3059 0.19584 0.0
C3347 C 0.50918 0.3104 0.17821 0.0
C3348 C 0.49149 0.30901 0.20271 0.0
C3349 C 0.44735 0.31536 0.18942 0.0
H3350 H 0.4541 0.33857 0.24028 0.0
C3351 C 0.39161 0.33677 0.22287 0.0
C3352 C 0.39129 0.33426 0.24157 0.0
C3353 C 0.40574 0.33416 0.21447 0.0
C3354 C 0.45191 0.33185 0.22614 0.0
H3355 H 0.49873 0.3213 0.15378 0.0
H3356 H 0.47287 0.32659 0.16582 0.0
H3357 H 0.47896 0.33329 0.2267 0.0
H3358 H 0.40526 0.32643 0.26591 0.0
H3359 H 0.42969 0.32157 0.25127 0.0
H3360 H 0.42023 0.31361 0.18897 0.0
C3361 C 0.48201 0.32067 0.17428 0.0
C3362 C 0.46619 0.32889 0.21833 0.0
C3363 C 0.49685 0.3177 0.16743 0.0
C3364 C 0.40526 0.32881 0.25158 0.0
C3365 C 0.41931 0.32607 0.24317 0.0
C3366 C 0.43299 0.31821 0.19729 0.0
C3367 C 0.47932 0.31659 0.19211 0.0
C3368 C 0.46408 0.32045 0.19995 0.0
C3369 C 0.41982 0.32885 0.22455 0.0
C3370 C 0.43507 0.32634 0.21582 0.0
H3371 H 0.51533 0.3002 0.20455 0.0
H3372 H 0.48965 0.30544 0.21638 0.0
H3373 H 0.44531 0.30871 0.17526 0.0
H3374 H 0.3811 0.34113 0.21484 0.0
H3375 H 0.40576 0.33665 0.20019 0.0
C3376 C 0.65123 0.55482 0.40365 0.0
C3377 C 0.65109 0.57341 0.40102 0.0
C3378 C 0.64443 0.54713 0.41847 0.0
C3379 C 0.61217 0.53502 0.4368 0.0
H3380 H 0.61694 0.56074 0.48635 0.0
C3381 C 0.56517 0.55863 0.48536 0.0
C3382 C 0.55244 0.54229 0.48507 0.0
C3383 C 0.58074 0.55784 0.47937 0.0
C3384 C 0.61554 0.55324 0.47263 0.0
H3385 H 0.6454 0.59901 0.41266 0.0
H3386 H 0.634 0.58575 0.43881 0.0
H3387 H 0.64018 0.56866 0.46814 0.0
H3388 H 0.54589 0.51219 0.47837 0.0
H3389 H 0.57329 0.51077 0.46731 0.0
H3390 H 0.58683 0.52097 0.44047 0.0
C3391 C 0.63918 0.57708 0.42937 0.0
C3392 C 0.62887 0.5577 0.46229 0.0
C3393 C 0.64558 0.58464 0.41436 0.0
C3394 C 0.5555 0.52501 0.47857 0.0
C3395 C 0.57118 0.5242 0.47241 0.0
C3396 C 0.59872 0.53073 0.44704 0.0
C3397 C 0.63785 0.55806 0.4311 0.0
C3398 C 0.62687 0.54935 0.44394 0.0
C3399 C 0.58397 0.54066 0.4728 0.0
C3400 C 0.59987 0.54064 0.46461 0.0
H3401 H 0.65535 0.54584 0.39351 0.0
H3402 H 0.64347 0.53243 0.41952 0.0
H3403 H 0.6103 0.52844 0.42262 0.0
H3404 H 0.56305 0.57218 0.49008 0.0
H3405 H 0.59002 0.57085 0.47932 0.0
C3406 C 0.28795 0.87242 0.08607 0.0
C3407 C 0.29496 0.89143 0.08538 0.0
C3408 C 0.28948 0.86492 0.10291 0.0
C3409 C 0.29665 0.87924 0.15363 0.0
H3410 H 0.30456 0.82957 0.15668 0.0
C3411 C 0.30582 0.85036 0.22389 0.0
C3412 C 0.29716 0.83177 0.22436 0.0
C3413 C 0.30704 0.85744 0.20696 0.0
C3414 C 0.30221 0.84341 0.15606 0.0
H3415 H 0.30949 0.91735 0.10181 0.0
H3416 H 0.31231 0.90429 0.13101 0.0
H3417 H 0.30376 0.84215 0.12708 0.0
H3418 H 0.28341 0.80593 0.20721 0.0
H3419 H 0.28541 0.81829 0.17784 0.0
H3420 H 0.29489 0.88048 0.1825 0.0
C3421 C 0.30537 0.89519 0.11863 0.0
C3422 C 0.30173 0.85063 0.13906 0.0
C3423 C 0.30385 0.90266 0.10183 0.0
C3424 C 0.29021 0.82031 0.20744 0.0
C3425 C 0.29143 0.82739 0.19053 0.0
C3426 C 0.29711 0.87204 0.1706 0.0
C3427 C 0.29803 0.87628 0.11947 0.0
C3428 C 0.2989 0.86862 0.1376 0.0
C3429 C 0.29963 0.84613 0.19005 0.0
C3430 C 0.29983 0.854 0.17205 0.0
H3431 H 0.28099 0.86338 0.07367 0.0
H3432 H 0.28352 0.85034 0.10304 0.0
H3433 H 0.29413 0.89302 0.15301 0.0
H3434 H 0.31139 0.85962 0.2366 0.0
H3435 H 0.31371 0.87185 0.20714 0.0
C3436 C 0.97667 0.63812 0.86936 0.0
C3437 C 0.98498 0.63427 0.85428 0.0
C3438 C 0.98361 0.6356 0.88724 0.0
C3439 C 0.02334 0.62875 0.91568 0.0
H3440 H 0.99101 0.59935 0.94226 0.0
C3441 C 0.02446 0.57509 0.97361 0.0
C3442 C 0.03853 0.58517 0.98683 0.0
C3443 C 0.01768 0.58361 0.95904 0.0
C3444 C 0.00019 0.60757 0.935 0.0
H3445 H 0.00753 0.62569 0.8463 0.0
H3446 H 0.01948 0.62121 0.87732 0.0
H3447 H 0.98012 0.61064 0.91384 0.0
H3448 H 0.05647 0.61202 0.9954 0.0
H3449 H 0.04461 0.62696 0.96989 0.0
H3450 H 0.04347 0.62493 0.93634 0.0
C3451 C 0.00769 0.62628 0.87541 0.0
C3452 C 0.99394 0.61424 0.91886 0.0
C3453 C 0.00075 0.62871 0.85758 0.0
C3454 C 0.04568 0.60392 0.98529 0.0
C3455 C 0.03891 0.61245 0.9707 0.0
C3456 C 0.02959 0.62208 0.93181 0.0
C3457 C -0.00097 0.62933 0.89038 0.0
C3458 C 0.00548 0.62454 0.9088 0.0
C3459 C 0.02485 0.60237 0.9574 0.0
C3460 C 0.0181 0.61106 0.94141 0.0
H3461 H 0.96452 0.64248 0.86728 0.0
H3462 H 0.97675 0.63825 0.89856 0.0
H3463 H 0.03253 0.63682 0.90832 0.0
H3464 H 0.01877 0.56058 0.97445 0.0
H3465 H 0.00704 0.57537 0.94884 0.0
C3466 C 0.28167 0.2363 0.57284 0.0
C3467 C 0.2687 0.21968 0.56855 0.0
C3468 C 0.28412 0.24715 0.59015 0.0
C3469 C 0.2618 0.25609 0.62963 0.0
H3470 H 0.30752 0.26916 0.65967 0.0
C3471 C 0.27061 0.27372 0.70845 0.0
C3472 C 0.28461 0.28804 0.71753 0.0
C3473 C 0.26935 0.26742 0.68968 0.0
C3474 C 0.29471 0.26591 0.65138 0.0
H3475 H 0.24778 0.2018 0.57881 0.0
H3476 H 0.25189 0.22073 0.60862 0.0
H3477 H 0.30389 0.25531 0.62737 0.0
H3478 H 0.30839 0.30685 0.71392 0.0
H3479 H 0.3061 0.2959 0.68103 0.0
H3480 H 0.25251 0.26643 0.6535 0.0
C3481 C 0.26022 0.22539 0.59874 0.0
C3482 C 0.29265 0.25799 0.63287 0.0
C3483 C 0.25795 0.21447 0.58167 0.0
C3484 C 0.29747 0.29574 0.70739 0.0
C3485 C 0.29617 0.28944 0.68853 0.0
C3486 C 0.26386 0.26407 0.64803 0.0
C3487 C 0.27341 0.24175 0.60328 0.0
C3488 C 0.2761 0.25256 0.62197 0.0
C3489 C 0.282 0.27531 0.67941 0.0
C3490 C 0.28026 0.26862 0.6593 0.0
H3491 H 0.29018 0.24064 0.56303 0.0
H3492 H 0.29436 0.25975 0.59328 0.0
H3493 H 0.24892 0.25234 0.62147 0.0
H3494 H 0.26053 0.26735 0.71581 0.0
H3495 H 0.25846 0.25622 0.68325 0.0
C3496 C 0.6395 0.56124 0.27597 0.0
C3497 C 0.63354 0.56236 0.29302 0.0
C3498 C 0.62779 0.55587 0.25949 0.0
C3499 C 0.58479 0.55871 0.23971 0.0
H3500 H 0.59601 0.53156 0.19703 0.0
C3501 C 0.56967 0.547 0.15421 0.0
C3502 C 0.57199 0.56595 0.15169 0.0
C3503 C 0.57141 0.54175 0.17202 0.0
C3504 C 0.59234 0.53879 0.20881 0.0
H3505 H 0.61069 0.55814 0.30632 0.0
H3506 H 0.59009 0.549 0.27727 0.0
H3507 H 0.61053 0.52965 0.22792 0.0
H3508 H 0.57709 0.59416 0.16578 0.0
H3509 H 0.58027 0.58508 0.19678 0.0
H3510 H 0.56717 0.56853 0.22049 0.0
C3511 C 0.60386 0.55223 0.27677 0.0
C3512 C 0.60078 0.53783 0.22649 0.0
C3513 C 0.61563 0.55747 0.29333 0.0
C3514 C 0.57511 0.57945 0.16728 0.0
C3515 C 0.57684 0.57421 0.18506 0.0
C3516 C 0.57632 0.55967 0.222 0.0
C3517 C 0.60986 0.5516 0.25969 0.0
C3518 C 0.59774 0.54855 0.24198 0.0
C3519 C 0.57547 0.55537 0.18762 0.0
C3520 C 0.58068 0.55049 0.20633 0.0
H3521 H 0.65323 0.56482 0.27531 0.0
H3522 H 0.63281 0.55584 0.24654 0.0
H3523 H 0.58217 0.56711 0.2514 0.0
H3524 H 0.56687 0.53625 0.14241 0.0
H3525 H 0.5701 0.52711 0.17359 0.0
C3526 C 0.27808 0.8726 0.97021 0.0
C3527 C 0.28078 0.8921 0.97069 0.0
C3528 C 0.27793 0.86132 0.95366 0.0
C3529 C 0.2947 0.86241 0.90981 0.0
H3530 H 0.25502 0.82222 0.88914 0.0
C3531 C 0.28533 0.82887 0.83387 0.0
C3532 C 0.27689 0.81001 0.82913 0.0
C3533 C 0.28623 0.83793 0.85171 0.0
C3534 C 0.26639 0.83313 0.8948 0.0
H3535 H 0.28576 0.91499 0.95422 0.0
H3536 H 0.28593 0.89544 0.92574 0.0
H3537 H 0.25616 0.83912 0.91966 0.0
H3538 H 0.26336 0.78553 0.83959 0.0
H3539 H 0.26548 0.80101 0.8709 0.0
H3540 H 0.3052 0.8564 0.88536 0.0
C3541 C 0.28375 0.88885 0.93804 0.0
C3542 C 0.26698 0.84285 0.91231 0.0
C3543 C 0.28354 0.90003 0.95437 0.0
C3544 C 0.26977 0.80019 0.84277 0.0
C3545 C 0.27088 0.80914 0.86072 0.0
C3546 C 0.29427 0.85253 0.89249 0.0
C3547 C 0.28092 0.86939 0.93746 0.0
C3548 C 0.281 0.8578 0.91982 0.0
C3549 C 0.27903 0.82821 0.86546 0.0
C3550 C 0.27995 0.83796 0.88452 0.0
H3551 H 0.27589 0.86607 0.98253 0.0
H3552 H 0.27574 0.84633 0.95357 0.0
H3553 H 0.30577 0.87376 0.91538 0.0
H3554 H 0.29137 0.83661 0.82385 0.0
H3555 H 0.29244 0.85264 0.8546 0.0
C3556 C 0.97598 0.65138 0.74952 0.0
C3557 C 0.95852 0.64475 0.75109 0.0
C3558 C 0.98279 0.64393 0.73483 0.0
C3559 C 0.97706 0.59962 0.70734 0.0
H3560 H 0.00985 0.62643 0.67956 0.0
C3561 C 0.00803 0.56303 0.65224 0.0
C3562 C 0.02497 0.57158 0.65006 0.0
C3563 C -0.00052 0.57164 0.66459 0.0
C3564 C 0.00092 0.61874 0.68742 0.0
H3565 H 0.93411 0.62631 0.73777 0.0
H3566 H 0.94613 0.61316 0.71219 0.0
H3567 H 0.99473 0.6437 0.69906 0.0
H3568 H 0.04664 0.5952 0.66023 0.0
H3569 H 0.03211 0.60957 0.68245 0.0
H3570 H 0.98365 0.57472 0.69634 0.0
C3571 C 0.95451 0.62404 0.72237 0.0
C3572 C 0.99215 0.62864 0.6984 0.0
C3573 C 0.94764 0.63168 0.73692 0.0
C3574 C 0.03365 0.58813 0.66158 0.0
C3575 C 0.02518 0.59659 0.67408 0.0
C3576 C 0.98598 0.58972 0.69653 0.0
C3577 C 0.97226 0.62962 0.72162 0.0
C3578 C 0.98024 0.61916 0.70853 0.0
C3579 C 0.00779 0.58884 0.67519 0.0
C3580 C 0.99814 0.5992 0.6866 0.0
H3581 H 0.98462 0.66148 0.76023 0.0
H3582 H 0.99654 0.64843 0.73455 0.0
H3583 H 0.96814 0.59204 0.71531 0.0
H3584 H 0.0011 0.55009 0.64382 0.0
H3585 H 0.98609 0.56524 0.66514 0.0
C3586 C 0.27754 0.24702 0.45974 0.0
C3587 C 0.27486 0.22745 0.458 0.0
C3588 C 0.27899 0.25652 0.44417 0.0
C3589 C 0.26732 0.24943 0.39313 0.0
H3590 H 0.30307 0.29446 0.39511 0.0
C3591 C 0.28303 0.28141 0.32698 0.0
C3592 C 0.28819 0.30092 0.32791 0.0
C3593 C 0.28073 0.273 0.34301 0.0
C3594 C 0.29282 0.28208 0.39436 0.0
H3595 H 0.27173 0.20257 0.4385 0.0
H3596 H 0.27422 0.21909 0.41145 0.0
H3597 H 0.30056 0.27893 0.42281 0.0
H3598 H 0.29448 0.32695 0.34628 0.0
H3599 H 0.2901 0.31234 0.37427 0.0
H3600 H 0.25944 0.25257 0.36479 0.0
C3601 C 0.27508 0.2271 0.42481 0.0
C3602 C 0.29142 0.27314 0.41026 0.0
C3603 C 0.27378 0.21764 0.44036 0.0
C3604 C 0.29061 0.31187 0.34516 0.0
C3605 C 0.28821 0.30346 0.36122 0.0
C3606 C 0.26862 0.25843 0.37728 0.0
C3607 C 0.27763 0.24665 0.42649 0.0
C3608 C 0.27876 0.2566 0.40979 0.0
C3609 C 0.2834 0.28388 0.36041 0.0
C3610 C 0.2815 0.27478 0.37759 0.0
H3611 H 0.27842 0.255 0.47312 0.0
H3612 H 0.28084 0.27157 0.44593 0.0
H3613 H 0.25722 0.2369 0.39238 0.0
H3614 H 0.2811 0.27258 0.31388 0.0
H3615 H 0.27727 0.2579 0.3418 0.0
C3616 C 0.31804 0.64291 0.5329 0.0
C3617 C 0.31695 0.66004 0.52649 0.0
C3618 C 0.33248 0.63546 0.53151 0.0
C3619 C 0.36973 0.63742 0.50645 0.0
H3620 H 0.38449 0.60898 0.54495 0.0
C3621 C 0.429 0.60296 0.50733 0.0
C3622 C 0.4256 0.58414 0.51048 0.0
C3623 C 0.41677 0.61369 0.50954 0.0
C3624 C 0.38048 0.61683 0.53406 0.0
H3625 H 0.33044 0.68284 0.51365 0.0
H3626 H 0.356 0.66992 0.51153 0.0
H3627 H 0.36193 0.62583 0.54884 0.0
H3628 H 0.40689 0.56187 0.5186 0.0
H3629 H 0.38565 0.58066 0.52273 0.0
H3630 H 0.38855 0.62842 0.49181 0.0
C3631 C 0.34544 0.66215 0.51742 0.0
C3632 C 0.3675 0.62646 0.53624 0.0
C3633 C 0.33084 0.66961 0.51872 0.0
C3634 C 0.4098 0.57629 0.51596 0.0
C3635 C 0.39772 0.58708 0.51846 0.0
C3636 C 0.3829 0.62794 0.50438 0.0
C3637 C 0.34643 0.64496 0.52383 0.0
C3638 C 0.36162 0.63651 0.52227 0.0
C3639 C 0.40106 0.60589 0.51526 0.0
C3640 C 0.38813 0.61721 0.51799 0.0
H3641 H 0.30758 0.63499 0.53883 0.0
H3642 H 0.33251 0.622 0.53619 0.0
H3643 H 0.36547 0.64488 0.49534 0.0
H3644 H 0.44105 0.60933 0.503 0.0
H3645 H 0.41971 0.62816 0.50706 0.0
C3646 C 0.86212 0.95737 0.55043 0.0
C3647 C 0.84965 0.96294 0.53809 0.0
C3648 C 0.87981 0.9654 0.55147 0.0
C3649 C 0.91096 0.98965 0.52437 0.0
H3650 H 0.93983 0.00976 0.57181 0.0
C3651 C 0.978 0.0393 0.52954 0.0
C3652 C 0.99128 0.038 0.54364 0.0
C3653 C 0.96104 0.0291 0.52902 0.0
C3654 C 0.93205 0.00396 0.55845 0.0
H3655 H 0.84609 0.98121 0.51707 0.0
H3656 H 0.87675 0.99494 0.5188 0.0
H3657 H 0.90976 0.99324 0.57073 0.0
H3658 H 0.99741 0.02481 0.56806 0.0
H3659 H 0.96792 0.00667 0.56695 0.0
H3660 H 0.93311 0.00017 0.51201 0.0
C3661 C 0.87289 0.98439 0.52765 0.0
C3662 C 0.91481 0.99451 0.55786 0.0
C3663 C 0.85529 0.97659 0.52678 0.0
C3664 C 0.98736 0.02618 0.55711 0.0
C3665 C 0.97044 0.01587 0.55652 0.0
C3666 C 0.9282 0.99892 0.52495 0.0
C3667 C 0.88536 0.97891 0.53998 0.0
C3668 C 0.90402 0.98752 0.54079 0.0
C3669 C 0.95703 0.01722 0.5425 0.0
C3670 C 0.93892 0.00646 0.54198 0.0
H3671 H 0.8582 0.94691 0.55934 0.0
H3672 H 0.88917 0.96088 0.56107 0.0
H3673 H 0.903 0.98416 0.51101 0.0
H3674 H 0.98066 0.04833 0.51899 0.0
H3675 H 0.95104 0.03076 0.51819 0.0
C3676 C 0.84617 0.07858 0.22176 0.0
C3677 C 0.86417 0.08297 0.2278 0.0
C3678 C 0.83578 0.08927 0.22921 0.0
C3679 C 0.83336 0.12139 0.26927 0.0
H3680 H 0.80227 0.13983 0.23413 0.0
C3681 C 0.80165 0.18222 0.28859 0.0
C3682 C 0.78584 0.183 0.27795 0.0
C3683 C 0.80967 0.16764 0.28452 0.0
C3684 C 0.81054 0.13448 0.24421 0.0
H3685 H 0.88538 0.10173 0.24665 0.0
H3686 H 0.86708 0.12045 0.25978 0.0
H3687 H 0.81957 0.11927 0.22289 0.0
H3688 H 0.76534 0.16802 0.25575 0.0
H3689 H 0.77878 0.14217 0.24946 0.0
H3690 H 0.82429 0.13657 0.29063 0.0
C3691 C 0.8611 0.1087 0.24928 0.0
C3692 C 0.82055 0.12279 0.23771 0.0
C3693 C 0.87155 0.0981 0.24166 0.0
C3694 C 0.77748 0.16796 0.2643 0.0
C3695 C 0.78536 0.15324 0.26045 0.0
C3696 C 0.82316 0.13294 0.27581 0.0
C3697 C 0.84314 0.10445 0.24299 0.0
C3698 C 0.83215 0.11627 0.25015 0.0
C3699 C 0.80192 0.15335 0.26991 0.0
C3700 C 0.81173 0.13976 0.26333 0.0
H3701 H 0.84011 0.06695 0.21115 0.0
H3702 H 0.82195 0.08566 0.22423 0.0
H3703 H 0.84213 0.11638 0.27913 0.0
H3704 H 0.80825 0.19333 0.29954 0.0
H3705 H 0.8224 0.16821 0.29215 0.0
C3706 C 0.719 0.14394 0.00745 0.0
C3707 C 0.7227 0.16356 0.00992 0.0
C3708 C 0.70225 0.13358 0.00768 0.0
C3709 C 0.66211 0.13756 0.02525 0.0
H3710 H 0.64218 0.09135 0.9926 0.0
C3711 C 0.60089 0.08637 0.03747 0.0
C3712 C 0.58828 0.07828 0.02191 0.0
C3713 C 0.61719 0.0965 0.03531 0.0
C3714 C 0.64751 0.10429 0.00172 0.0
H3715 H 0.71163 0.18769 0.01399 0.0
H3716 H 0.68236 0.16961 0.0142 0.0
H3717 H 0.67044 0.10999 0.9893 0.0
H3718 H 0.58306 0.07428 0.99183 0.0
H3719 H 0.61148 0.09208 0.9881 0.0
H3720 H 0.63914 0.13203 0.03752 0.0
C3721 C 0.69247 0.16223 0.01238 0.0
C3722 C 0.66378 0.11488 -4e-05 0.0
C3723 C 0.70921 0.17259 0.01216 0.0
C3724 C 0.59247 0.08029 0.00413 0.0
C3725 C 0.60879 0.09043 0.00198 0.0
C3726 C 0.64589 0.12698 0.02703 0.0
C3727 C 0.68884 0.14261 0.01037 0.0
C3728 C 0.6713 0.13161 0.01175 0.0
C3729 C 0.62128 0.09881 0.01755 0.0
C3730 C 0.63843 0.11016 0.01537 0.0
H3731 H 0.72911 0.13655 0.00571 0.0
H3732 H 0.69995 0.11849 0.00628 0.0
H3733 H 0.66761 0.15026 0.03471 0.0
H3734 H 0.59817 0.08504 0.05138 0.0
H3735 H 0.62661 0.10249 0.0476 0.0
C3736 C 0.18147 0.45108 0.26053 0.0
C3737 C 0.16384 0.44196 0.25722 0.0
C3738 C 0.19391 0.44238 0.26866 0.0
C3739 C 0.20032 0.40284 0.29427 0.0
H3740 H 0.23986 0.40535 0.26874 0.0
C3741 C 0.24159 0.34797 0.2938 0.0
C3742 C 0.25908 0.35353 0.29177 0.0
C3743 C 0.23132 0.36101 0.29446 0.0
C3744 C 0.22915 0.40482 0.27637 0.0
H3745 H 0.14532 0.41686 0.26042 0.0
H3746 H 0.16717 0.40139 0.27425 0.0
H3747 H 0.21901 0.42379 0.26029 0.0
H3748 H 0.27995 0.37735 0.29067 0.0
H3749 H 0.26206 0.40016 0.29214 0.0
H3750 H 0.21031 0.3833 0.30993 0.0
C3751 C 0.17133 0.4154 0.2708 0.0
C3752 C 0.21714 0.41538 0.27147 0.0
C3753 C 0.15883 0.42418 0.26274 0.0
C3754 C 0.26645 0.37259 0.29195 0.0
C3755 C 0.25619 0.38564 0.29272 0.0
C3756 C 0.21239 0.39225 0.29921 0.0
C3757 C 0.18903 0.4243 0.27355 0.0
C3758 C 0.20245 0.41428 0.28013 0.0
C3759 C 0.23836 0.37988 0.29322 0.0
C3760 C 0.22678 0.39289 0.29006 0.0
H3761 H 0.18572 0.46491 0.25668 0.0
H3762 H 0.20741 0.44972 0.27089 0.0
H3763 H 0.18923 0.40191 0.30135 0.0
H3764 H 0.23552 0.3334 0.29384 0.0
H3765 H 0.21762 0.35608 0.29475 0.0
C3766 C 0.23433 0.42825 0.04374 0.0
C3767 C 0.25097 0.43966 0.05007 0.0
C3768 C 0.21957 0.43542 0.04463 0.0
C3769 C 0.20453 0.47388 0.06833 0.0
H3770 H 0.16852 0.46477 0.02518 0.0
C3771 C 0.15519 0.51971 0.05859 0.0
C3772 C 0.138 0.51141 0.05031 0.0
C3773 C 0.16786 0.50931 0.0596 0.0
C3774 C 0.1783 0.4672 0.03747 0.0
H3775 H 0.26516 0.46745 0.06248 0.0
H3776 H 0.2395 0.47989 0.06402 0.0
H3777 H 0.19274 0.4495 0.02503 0.0
H3778 H 0.1206 0.48554 0.03686 0.0
H3779 H 0.14278 0.46722 0.03887 0.0
H3780 H 0.19027 0.49172 0.08072 0.0
C3781 C 0.23781 0.46539 0.0585 0.0
C3782 C 0.19219 0.45846 0.03737 0.0
C3783 C 0.25253 0.45828 0.05751 0.0
C3784 C 0.13371 0.49232 0.0434 0.0
C3785 C 0.14644 0.48188 0.04439 0.0
C3786 C 0.19064 0.48255 0.06846 0.0
C3787 C 0.22116 0.45408 0.05202 0.0
C3788 C 0.20563 0.46199 0.05267 0.0
C3789 C 0.1637 0.4903 0.05242 0.0
C3790 C 0.17753 0.47962 0.05289 0.0
H3791 H 0.23271 0.41384 0.03795 0.0
H3792 H 0.20691 0.42632 0.03966 0.0
H3793 H 0.2145 0.4766 0.08048 0.0
H3794 H 0.15889 0.53432 0.06427 0.0
H3795 H 0.18104 0.51632 0.06566 0.0
C3796 C 0.85847 0.98341 0.20954 0.0
C3797 C 0.87425 0.98306 0.2033 0.0
C3798 C 0.84817 0.96722 0.21391 0.0
C3799 C 0.85052 0.92169 0.22864 0.0
H3800 H 0.8004 0.9124 0.2174 0.0
C3801 C 0.78582 0.86207 0.23514 0.0
C3802 C 0.79035 0.85845 0.25337 0.0
C3803 C 0.79618 0.87652 0.22805 0.0
C3804 C 0.81437 0.91466 0.22051 0.0
H3805 H 0.89136 0.96526 0.19633 0.0
H3806 H 0.87317 0.93676 0.20391 0.0
H3807 H 0.81809 0.9382 0.20544 0.0
H3808 H 0.80907 0.8672 0.27862 0.0
H3809 H 0.82714 0.8927 0.26632 0.0
H3810 H 0.84675 0.89802 0.24361 0.0
C3811 C 0.86893 0.94971 0.20555 0.0
C3812 C 0.82451 0.92956 0.21379 0.0
C3813 C 0.87927 0.96598 0.20108 0.0
C3814 C 0.80533 0.86967 0.26449 0.0
C3815 C 0.81573 0.88416 0.25739 0.0
C3816 C 0.84036 0.90676 0.23537 0.0
C3817 C 0.85334 0.95023 0.21218 0.0
C3818 C 0.84269 0.93339 0.21797 0.0
C3819 C 0.81128 0.88771 0.23907 0.0
C3820 C 0.82216 0.90319 0.23152 0.0
H3821 H 0.85418 0.9963 0.21142 0.0
H3822 H 0.83638 0.96818 0.21922 0.0
H3823 H 0.8645 0.92438 0.23223 0.0
H3824 H 0.77439 0.85355 0.22622 0.0
H3825 H 0.7925 0.87873 0.21382 0.0
C3826 C 0.64326 0.05013 0.72806 0.0
C3827 C 0.64857 0.03447 0.73415 0.0
C3828 C 0.65449 0.06779 0.73204 0.0
C3829 C 0.70061 0.09122 0.74442 0.0
H3830 H 0.68302 0.13376 0.76132 0.0
C3831 C 0.72589 0.17495 0.77342 0.0
C3832 C 0.73555 0.18078 0.75958 0.0
C3833 C 0.71663 0.15647 0.77212 0.0
C3834 C 0.68817 0.12197 0.75684 0.0
H3835 H 0.66994 0.02504 0.74895 0.0
H3836 H 0.68941 0.05578 0.75584 0.0
H3837 H 0.66367 0.10276 0.7549 0.0
H3838 H 0.74353 0.17166 0.73387 0.0
H3839 H 0.72753 0.13944 0.73172 0.0
H3840 H 0.72511 0.11045 0.74634 0.0
C3841 C 0.67663 0.0544 0.74793 0.0
C3842 C 0.67704 0.10429 0.75292 0.0
C3843 C 0.66541 0.0368 0.74404 0.0
C3844 C 0.73643 0.16756 0.74491 0.0
C3845 C 0.72722 0.14909 0.74365 0.0
C3846 C 0.71173 0.10892 0.74826 0.0
C3847 C 0.67125 0.07008 0.74208 0.0
C3848 C 0.68312 0.08878 0.74653 0.0
C3849 C 0.71691 0.14347 0.757 0.0
C3850 C 0.70558 0.12448 0.75436 0.0
H3851 H 0.63037 0.0488 0.72043 0.0
H3852 H 0.65009 0.07964 0.72718 0.0
H3853 H 0.70562 0.07951 0.73943 0.0
H3854 H 0.7252 0.18477 0.78505 0.0
H3855 H 0.70899 0.15242 0.78276 0.0
loop_
_geom_bond_atom_site_label_1
_geom_bond_atom_site_label_2
_geom_bond_distance
_geom_bond_site_symmetry_2
_ccdc_geom_bond_type
C0 O1 1.306 . S
C0 O3 1.160 . S
O1 C0 1.306 . S
O1 Cd2 2.228 1_655 S
Cd2 O1 2.228 1_455 S
Cd2 O6 2.273 . S
Cd2 O10 2.277 . S
O3 C0 1.160 . S
O3 Cd4 2.203 1_655 S
Cd4 O3 2.203 1_455 S
Cd4 O6 2.411 . S
Cd4 O7 2.333 . S
Cd4 O8 2.349 . S
Cd4 O12 2.277 . S
Cd4 O13 2.356 . S
C5 O10 1.209 . S
C5 O12 1.226 . S
O6 Cd2 2.273 . S
O6 Cd4 2.411 . S
O6 C9 1.320 . S
O7 Cd4 2.333 . S
O7 C9 1.214 . S
O8 Cd4 2.349 . S
O8 C11 1.262 . S
C9 O6 1.320 . S
C9 O7 1.214 . S
O10 Cd2 2.277 . S
O10 C5 1.209 . S
C11 O8 1.262 . S
C11 O13 1.282 . S
O12 Cd4 2.277 . S
O12 C5 1.226 . S
O13 Cd4 2.356 . S
O13 C11 1.282 . S
C14 O15 1.306 . S
C14 O17 1.160 . S
O15 C14 1.306 . S
O15 Cd16 2.228 . S
Cd16 O15 2.228 . S
Cd16 O20 2.273 . S
Cd16 O24 2.277 . S
O17 C14 1.160 . S
O17 Cd18 2.203 . S
Cd18 O17 2.203 . S
Cd18 O20 2.411 . S
Cd18 O21 2.333 . S
Cd18 O22 2.352 . S
Cd18 O26 2.277 . S
Cd18 O27 2.356 . S
C19 O24 1.209 . S
C19 O26 1.226 . S
O20 Cd16 2.273 . S
O20 Cd18 2.411 . S
O20 C23 1.320 . S
O21 Cd18 2.333 . S
O21 C23 1.214 . S
O22 Cd18 2.352 . S
O22 C25 1.258 . S
C23 O20 1.320 . S
C23 O21 1.214 . S
O24 Cd16 2.277 . S
O24 C19 1.209 . S
C25 O22 1.258 . S
C25 O27 1.282 . S
O26 Cd18 2.277 . S
O26 C19 1.226 . S
O27 Cd18 2.356 . S
O27 C25 1.282 . S
C28 O29 1.306 . S
C28 O31 1.160 . S
O29 C28 1.306 . S
O29 Cd30 2.228 . S
Cd30 O29 2.228 . S
Cd30 O34 2.273 . S
Cd30 O38 2.277 . S
O31 C28 1.160 . S
O31 Cd32 2.203 . S
Cd32 O31 2.203 . S
Cd32 O34 2.411 . S
Cd32 O35 2.333 . S
Cd32 O36 2.352 . S
Cd32 O40 2.277 . S
Cd32 O41 2.356 . S
C33 O38 1.209 . S
C33 O40 1.226 . S
O34 Cd30 2.273 . S
O34 Cd32 2.411 . S
O34 C37 1.320 . S
O35 Cd32 2.333 . S
O35 C37 1.214 . S
O36 Cd32 2.352 . S
O36 C39 1.258 . S
C37 O34 1.320 . S
C37 O35 1.214 . S
O38 Cd30 2.277 . S
O38 C33 1.209 . S
C39 O36 1.258 . S
C39 O41 1.282 . S
O40 Cd32 2.277 . S
O40 C33 1.226 . S
O41 Cd32 2.356 . S
O41 C39 1.282 . S
C42 O43 1.306 . S
C42 O45 1.160 . S
O43 C42 1.306 . S
O43 Cd44 2.228 . S
Cd44 O43 2.228 . S
Cd44 O48 2.273 . S
Cd44 O52 2.277 . S
O45 C42 1.160 . S
O45 Cd46 2.203 . S
Cd46 O45 2.203 . S
Cd46 O48 2.411 . S
Cd46 O49 2.333 . S
Cd46 O50 2.352 . S
Cd46 O54 2.277 . S
Cd46 O55 2.356 . S
C47 O52 1.209 . S
C47 O54 1.226 . S
O48 Cd44 2.273 . S
O48 Cd46 2.411 . S
O48 C51 1.320 . S
O49 Cd46 2.333 . S
O49 C51 1.214 . S
O50 Cd46 2.352 . S
O50 C53 1.258 . S
C51 O48 1.320 . S
C51 O49 1.214 . S
O52 Cd44 2.277 . S
O52 C47 1.209 . S
C53 O50 1.258 . S
C53 O55 1.282 . S
O54 Cd46 2.277 . S
O54 C47 1.226 . S
O55 Cd46 2.356 . S
O55 C53 1.282 . S
C56 O57 1.306 . S
C56 O59 1.160 . S
O57 C56 1.306 . S
O57 Cd58 2.228 . S
Cd58 O57 2.228 . S
Cd58 O62 2.273 . S
Cd58 O66 2.277 . S
O59 C56 1.160 . S
O59 Cd60 2.203 . S
Cd60 O59 2.203 . S
Cd60 O62 2.411 . S
Cd60 O63 2.333 . S
Cd60 O64 2.352 . S
Cd60 O68 2.277 . S
Cd60 O69 2.356 . S
C61 O66 1.209 . S
C61 O68 1.226 . S
O62 Cd58 2.273 . S
O62 Cd60 2.411 . S
O62 C65 1.320 . S
O63 Cd60 2.333 . S
O63 C65 1.214 . S
O64 Cd60 2.352 . S
O64 C67 1.258 . S
C65 O62 1.320 . S
C65 O63 1.214 . S
O66 Cd58 2.277 . S
O66 C61 1.209 . S
C67 O64 1.258 . S
C67 O69 1.282 . S
O68 Cd60 2.277 . S
O68 C61 1.226 . S
O69 Cd60 2.356 . S
O69 C67 1.282 . S
C70 O71 1.306 . S
C70 O73 1.160 . S
O71 C70 1.306 . S
O71 Cd72 2.228 . S
Cd72 O71 2.228 . S
Cd72 O76 2.273 . S
Cd72 O80 2.277 . S
O73 C70 1.160 . S
O73 Cd74 2.203 . S
Cd74 O73 2.203 . S
Cd74 O76 2.411 . S
Cd74 O77 2.333 . S
Cd74 O78 2.352 . S
Cd74 O82 2.277 . S
Cd74 O83 2.356 . S
C75 O80 1.209 . S
C75 O82 1.226 . S
O76 Cd72 2.273 . S
O76 Cd74 2.411 . S
O76 C79 1.320 . S
O77 Cd74 2.333 . S
O77 C79 1.214 . S
O78 Cd74 2.352 . S
O78 C81 1.258 . S
C79 O76 1.320 . S
C79 O77 1.214 . S
O80 Cd72 2.277 . S
O80 C75 1.209 . S
C81 O78 1.258 . S
C81 O83 1.282 . S
O82 Cd74 2.277 . S
O82 C75 1.226 . S
O83 Cd74 2.356 . S
O83 C81 1.282 . S
C84 O85 1.306 . S
C84 O87 1.160 . S
O85 C84 1.306 . S
O85 Cd86 2.228 . S
Cd86 O85 2.228 . S
Cd86 O90 2.273 . S
Cd86 O94 2.277 . S
O87 C84 1.160 . S
O87 Cd88 2.203 . S
Cd88 O87 2.203 . S
Cd88 O90 2.411 . S
Cd88 O91 2.333 . S
Cd88 O92 2.352 . S
Cd88 O96 2.277 . S
Cd88 O97 2.356 . S
C89 O94 1.209 . S
C89 O96 1.226 . S
O90 Cd86 2.273 . S
O90 Cd88 2.411 . S
O90 C93 1.320 . S
O91 Cd88 2.333 . S
O91 C93 1.214 . S
O92 Cd88 2.352 . S
O92 C95 1.258 . S
C93 O90 1.320 . S
C93 O91 1.214 . S
O94 Cd86 2.277 . S
O94 C89 1.209 . S
C95 O92 1.258 . S
C95 O97 1.282 . S
O96 Cd88 2.277 . S
O96 C89 1.226 . S
O97 Cd88 2.356 . S
O97 C95 1.282 . S
C98 O99 1.306 . S
C98 O101 1.160 . S
O99 C98 1.306 . S
O99 Cd100 2.228 1_655 S
Cd100 O99 2.228 1_455 S
Cd100 O104 2.273 . S
Cd100 O108 2.277 . S
O101 C98 1.160 . S
O101 Cd102 2.203 1_655 S
Cd102 O101 2.203 1_455 S
Cd102 O104 2.411 . S
Cd102 O105 2.333 . S
Cd102 O106 2.352 . S
Cd102 O110 2.277 . S
Cd102 O111 2.356 . S
C103 O108 1.209 . S
C103 O110 1.226 . S
O104 Cd100 2.273 . S
O104 Cd102 2.411 . S
O104 C107 1.320 . S
O105 Cd102 2.333 . S
O105 C107 1.214 . S
O106 Cd102 2.352 . S
O106 C109 1.258 . S
C107 O104 1.320 . S
C107 O105 1.214 . S
O108 Cd100 2.277 . S
O108 C103 1.209 . S
C109 O106 1.258 . S
C109 O111 1.282 . S
O110 Cd102 2.277 . S
O110 C103 1.226 . S
O111 Cd102 2.356 . S
O111 C109 1.282 . S
C112 O113 1.306 . S
C112 O115 1.160 . S
O113 C112 1.306 . S
O113 Cd114 2.228 . S
Cd114 O113 2.228 . S
Cd114 O118 2.273 . S
Cd114 O122 2.277 . S
O115 C112 1.160 . S
O115 Cd116 2.203 . S
Cd116 O115 2.203 . S
Cd116 O118 2.411 . S
Cd116 O119 2.333 . S
Cd116 O120 2.352 . S
Cd116 O124 2.277 . S
Cd116 O125 2.356 . S
C117 O122 1.209 . S
C117 O124 1.226 . S
O118 Cd114 2.273 . S
O118 Cd116 2.411 . S
O118 C121 1.320 . S
O119 Cd116 2.333 . S
O119 C121 1.214 . S
O120 Cd116 2.352 . S
O120 C123 1.258 . S
C121 O118 1.320 . S
C121 O119 1.214 . S
O122 Cd114 2.277 . S
O122 C117 1.209 . S
C123 O120 1.258 . S
C123 O125 1.282 . S
O124 Cd116 2.277 . S
O124 C117 1.226 . S
O125 Cd116 2.356 . S
O125 C123 1.282 . S
C126 O127 1.306 . S
C126 O129 1.160 . S
O127 C126 1.306 . S
O127 Cd128 2.228 . S
Cd128 O127 2.228 . S
Cd128 O132 2.273 . S
Cd128 O136 2.277 . S
O129 C126 1.160 . S
O129 Cd130 2.203 . S
Cd130 O129 2.203 . S
Cd130 O132 2.411 . S
Cd130 O133 2.333 . S
Cd130 O134 2.352 . S
Cd130 O138 2.277 . S
Cd130 O139 2.356 . S
C131 O136 1.209 . S
C131 O138 1.226 . S
O132 Cd128 2.273 . S
O132 Cd130 2.411 . S
O132 C135 1.320 . S
O133 Cd130 2.333 . S
O133 C135 1.214 . S
O134 Cd130 2.352 . S
O134 C137 1.258 . S
C135 O132 1.320 . S
C135 O133 1.214 . S
O136 Cd128 2.277 . S
O136 C131 1.209 . S
C137 O134 1.258 . S
C137 O139 1.282 . S
O138 Cd130 2.277 . S
O138 C131 1.226 . S
O139 Cd130 2.356 . S
O139 C137 1.282 . S
C140 O141 1.306 . S
C140 O143 1.160 . S
O141 C140 1.306 . S
O141 Cd142 2.228 . S
Cd142 O141 2.228 . S
Cd142 O146 2.273 . S
Cd142 O150 2.277 . S
O143 C140 1.160 . S
O143 Cd144 2.203 . S
Cd144 O143 2.203 . S
Cd144 O146 2.411 . S
Cd144 O147 2.333 . S
Cd144 O148 2.352 . S
Cd144 O152 2.277 . S
Cd144 O153 2.356 . S
C145 O150 1.209 . S
C145 O152 1.226 . S
O146 Cd142 2.273 . S
O146 Cd144 2.411 . S
O146 C149 1.320 . S
O147 Cd144 2.333 . S
O147 C149 1.214 . S
O148 Cd144 2.352 . S
O148 C151 1.258 . S
C149 O146 1.320 . S
C149 O147 1.214 . S
O150 Cd142 2.277 . S
O150 C145 1.209 . S
C151 O148 1.258 . S
C151 O153 1.282 . S
O152 Cd144 2.277 . S
O152 C145 1.226 . S
O153 Cd144 2.356 . S
O153 C151 1.282 . S
C154 O155 1.306 . S
C154 O157 1.160 . S
O155 C154 1.306 . S
O155 Cd156 2.228 . S
Cd156 O155 2.228 . S
Cd156 O160 2.273 . S
Cd156 O164 2.277 . S
O157 C154 1.160 . S
O157 Cd158 2.203 . S
Cd158 O157 2.203 . S
Cd158 O160 2.411 . S
Cd158 O161 2.333 . S
Cd158 O162 2.352 . S
Cd158 O166 2.277 . S
Cd158 O167 2.356 . S
C159 O164 1.209 . S
C159 O166 1.226 . S
O160 Cd156 2.273 . S
O160 Cd158 2.411 . S
O160 C163 1.320 . S
O161 Cd158 2.333 . S
O161 C163 1.214 . S
O162 Cd158 2.352 . S
O162 C165 1.258 . S
C163 O160 1.320 . S
C163 O161 1.214 . S
O164 Cd156 2.277 . S
O164 C159 1.209 . S
C165 O162 1.258 . S
C165 O167 1.282 . S
O166 Cd158 2.277 . S
O166 C159 1.226 . S
O167 Cd158 2.356 . S
O167 C165 1.282 . S
C168 O169 1.306 . S
C168 O171 1.160 . S
O169 C168 1.306 . S
O169 Cd170 2.228 . S
Cd170 O169 2.228 . S
Cd170 O174 2.273 . S
Cd170 O178 2.277 1_554 S
O171 C168 1.160 . S
O171 Cd172 2.203 . S
Cd172 O171 2.203 . S
Cd172 O174 2.411 . S
Cd172 O175 2.333 . S
Cd172 O176 2.352 . S
Cd172 O180 2.277 . S
Cd172 O181 2.356 . S
C173 O178 1.209 . S
C173 O180 1.226 1_556 S
O174 Cd170 2.273 . S
O174 Cd172 2.411 . S
O174 C177 1.320 . S
O175 Cd172 2.333 . S
O175 C177 1.214 . S
O176 Cd172 2.352 . S
O176 C179 1.258 . S
C177 O174 1.320 . S
C177 O175 1.214 . S
O178 Cd170 2.277 1_556 S
O178 C173 1.209 . S
C179 O176 1.258 . S
C179 O181 1.282 . S
O180 Cd172 2.277 . S
O180 C173 1.226 1_554 S
O181 Cd172 2.356 . S
O181 C179 1.282 . S
C182 O183 1.306 . S
C182 O185 1.163 . S
O183 C182 1.306 . S
O183 Cd184 2.228 . S
Cd184 O183 2.228 . S
Cd184 O188 2.273 1_554 S
Cd184 O192 2.277 . S
O185 C182 1.163 . S
O185 Cd186 2.204 1_554 S
Cd186 O185 2.204 1_556 S
Cd186 O188 2.411 . S
Cd186 O189 2.333 . S
Cd186 O190 2.352 . S
Cd186 O194 2.277 1_556 S
Cd186 O195 2.356 . S
C187 O192 1.209 . S
C187 O194 1.226 . S
O188 Cd184 2.273 1_556 S
O188 Cd186 2.411 . S
O188 C191 1.320 . S
O189 Cd186 2.333 . S
O189 C191 1.214 . S
O190 Cd186 2.352 . S
O190 C193 1.258 . S
C191 O188 1.320 . S
C191 O189 1.214 . S
O192 Cd184 2.277 . S
O192 C187 1.209 . S
C193 O190 1.258 . S
C193 O195 1.282 . S
O194 Cd186 2.277 1_554 S
O194 C187 1.226 . S
O195 Cd186 2.356 . S
O195 C193 1.282 . S
C196 O197 1.306 . S
C196 O199 1.160 . S
O197 C196 1.306 . S
O197 Cd198 2.228 . S
Cd198 O197 2.228 . S
Cd198 O202 2.273 . S
Cd198 O206 2.277 . S
O199 C196 1.160 . S
O199 Cd200 2.203 . S
Cd200 O199 2.203 . S
Cd200 O202 2.411 . S
Cd200 O203 2.333 . S
Cd200 O204 2.352 . S
Cd200 O208 2.277 . S
Cd200 O209 2.356 . S
C201 O206 1.209 . S
C201 O208 1.226 . S
O202 Cd198 2.273 . S
O202 Cd200 2.411 . S
O202 C205 1.320 . S
O203 Cd200 2.333 . S
O203 C205 1.214 . S
O204 Cd200 2.352 . S
O204 C207 1.258 . S
C205 O202 1.320 . S
C205 O203 1.214 . S
O206 Cd198 2.277 . S
O206 C201 1.209 . S
C207 O204 1.258 . S
C207 O209 1.282 . S
O208 Cd200 2.277 . S
O208 C201 1.226 . S
O209 Cd200 2.356 . S
O209 C207 1.282 . S
C210 O211 1.306 . S
C210 O213 1.160 . S
O211 C210 1.306 . S
O211 Cd212 2.228 . S
Cd212 O211 2.228 . S
Cd212 O216 2.273 . S
Cd212 O220 2.277 . S
O213 C210 1.160 . S
O213 Cd214 2.203 . S
Cd214 O213 2.203 . S
Cd214 O216 2.411 . S
Cd214 O217 2.333 . S
Cd214 O218 2.352 . S
Cd214 O222 2.277 . S
Cd214 O223 2.356 . S
C215 O220 1.209 . S
C215 O222 1.226 . S
O216 Cd212 2.273 . S
O216 Cd214 2.411 . S
O216 C219 1.320 . S
O217 Cd214 2.333 . S
O217 C219 1.214 . S
O218 Cd214 2.352 . S
O218 C221 1.258 . S
C219 O216 1.320 . S
C219 O217 1.214 . S
O220 Cd212 2.277 . S
O220 C215 1.209 . S
C221 O218 1.258 . S
C221 O223 1.282 . S
O222 Cd214 2.277 . S
O222 C215 1.226 . S
O223 Cd214 2.356 . S
O223 C221 1.282 . S
C224 O225 1.306 . S
C224 O227 1.160 . S
O225 C224 1.306 . S
O225 Cd226 2.228 . S
Cd226 O225 2.228 . S
Cd226 O230 2.273 . S
Cd226 O234 2.277 . S
O227 C224 1.160 . S
O227 Cd228 2.203 . S
Cd228 O227 2.203 . S
Cd228 O230 2.411 . S
Cd228 O231 2.333 . S
Cd228 O232 2.352 . S
Cd228 O236 2.277 . S
Cd228 O237 2.356 . S
C229 O234 1.209 . S
C229 O236 1.226 . S
O230 Cd226 2.273 . S
O230 Cd228 2.411 . S
O230 C233 1.320 . S
O231 Cd228 2.333 . S
O231 C233 1.214 . S
O232 Cd228 2.352 . S
O232 C235 1.258 . S
C233 O230 1.320 . S
C233 O231 1.214 . S
O234 Cd226 2.277 . S
O234 C229 1.209 . S
C235 O232 1.258 . S
C235 O237 1.282 . S
O236 Cd228 2.277 . S
O236 C229 1.226 . S
O237 Cd228 2.356 . S
O237 C235 1.282 . S
C238 O239 1.306 . S
C238 O241 1.160 . S
O239 C238 1.306 . S
O239 Cd240 2.228 . S
Cd240 O239 2.228 . S
Cd240 O244 2.273 . S
Cd240 O248 2.277 . S
O241 C238 1.160 . S
O241 Cd242 2.203 . S
Cd242 O241 2.203 . S
Cd242 O244 2.411 . S
Cd242 O245 2.333 . S
Cd242 O246 2.352 . S
Cd242 O250 2.277 . S
Cd242 O251 2.356 . S
C243 O248 1.209 . S
C243 O250 1.226 . S
O244 Cd240 2.273 . S
O244 Cd242 2.411 . S
O244 C247 1.320 . S
O245 Cd242 2.333 . S
O245 C247 1.214 . S
O246 Cd242 2.352 . S
O246 C249 1.258 . S
C247 O244 1.320 . S
C247 O245 1.214 . S
O248 Cd240 2.277 . S
O248 C243 1.209 . S
C249 O246 1.258 . S
C249 O251 1.282 . S
O250 Cd242 2.277 . S
O250 C243 1.226 . S
O251 Cd242 2.356 . S
O251 C249 1.282 . S
C252 O253 1.306 . S
C252 O255 1.160 . S
O253 C252 1.306 . S
O253 Cd254 2.228 . S
Cd254 O253 2.228 . S
Cd254 O258 2.273 . S
Cd254 O262 2.277 . S
O255 C252 1.160 . S
O255 Cd256 2.203 . S
Cd256 O255 2.203 . S
Cd256 O258 2.411 . S
Cd256 O259 2.333 . S
Cd256 O260 2.352 . S
Cd256 O264 2.277 . S
Cd256 O265 2.356 . S
C257 O262 1.209 . S
C257 O264 1.226 . S
O258 Cd254 2.273 . S
O258 Cd256 2.411 . S
O258 C261 1.320 . S
O259 Cd256 2.333 . S
O259 C261 1.214 . S
O260 Cd256 2.352 . S
O260 C263 1.258 . S
C261 O258 1.320 . S
C261 O259 1.214 . S
O262 Cd254 2.277 . S
O262 C257 1.209 . S
C263 O260 1.258 . S
C263 O265 1.282 . S
O264 Cd256 2.277 . S
O264 C257 1.226 . S
O265 Cd256 2.356 . S
O265 C263 1.282 . S
C266 O267 1.306 . S
C266 O269 1.151 1_545 S
O267 C266 1.306 . S
O267 Cd268 2.228 . S
Cd268 O267 2.228 . S
Cd268 O272 2.273 1_545 S
Cd268 O276 2.277 . S
O269 C266 1.151 1_565 S
O269 Cd270 2.204 . S
Cd270 O269 2.204 . S
Cd270 O272 2.411 . S
Cd270 O273 2.333 . S
Cd270 O274 2.352 . S
Cd270 O278 2.277 1_565 S
Cd270 O279 2.356 . S
C271 O276 1.209 . S
C271 O278 1.226 . S
O272 Cd268 2.273 1_565 S
O272 Cd270 2.411 . S
O272 C275 1.320 . S
O273 Cd270 2.333 . S
O273 C275 1.214 . S
O274 Cd270 2.352 . S
O274 C277 1.258 . S
C275 O272 1.320 . S
C275 O273 1.214 . S
O276 Cd268 2.277 . S
O276 C271 1.209 . S
C277 O274 1.258 . S
C277 O279 1.282 . S
O278 Cd270 2.277 1_545 S
O278 C271 1.226 . S
O279 Cd270 2.356 . S
O279 C277 1.282 . S
C280 O281 1.306 . S
C280 O283 1.160 . S
O281 C280 1.306 . S
O281 Cd282 2.228 . S
Cd282 O281 2.228 . S
Cd282 O286 2.273 . S
Cd282 O290 2.277 . S
O283 C280 1.160 . S
O283 Cd284 2.203 . S
Cd284 O283 2.203 . S
Cd284 O286 2.411 . S
Cd284 O287 2.333 . S
Cd284 O288 2.352 1_554 S
Cd284 O292 2.277 . S
Cd284 O293 2.356 . S
C285 O290 1.209 . S
C285 O292 1.226 . S
O286 Cd282 2.273 . S
O286 Cd284 2.411 . S
O286 C289 1.320 . S
O287 Cd284 2.333 . S
O287 C289 1.214 . S
O288 Cd284 2.352 1_556 S
O288 C291 1.258 . S
C289 O286 1.320 . S
C289 O287 1.214 . S
O290 Cd282 2.277 . S
O290 C285 1.209 . S
C291 O288 1.258 . S
C291 O293 1.282 1_556 S
O292 Cd284 2.277 . S
O292 C285 1.226 . S
O293 Cd284 2.356 . S
O293 C291 1.282 1_554 S
C294 O295 1.306 . S
C294 O297 1.160 . S
O295 C294 1.306 . S
O295 Cd296 2.228 . S
Cd296 O295 2.228 . S
Cd296 O300 2.273 . S
Cd296 O304 2.277 . S
O297 C294 1.160 . S
O297 Cd298 2.203 . S
Cd298 O297 2.203 . S
Cd298 O300 2.411 . S
Cd298 O301 2.333 . S
Cd298 O302 2.352 . S
Cd298 O306 2.277 . S
Cd298 O307 2.356 . S
C299 O304 1.209 . S
C299 O306 1.226 . S
O300 Cd296 2.273 . S
O300 Cd298 2.411 . S
O300 C303 1.320 . S
O301 Cd298 2.333 . S
O301 C303 1.214 . S
O302 Cd298 2.352 . S
O302 C305 1.258 . S
C303 O300 1.320 . S
C303 O301 1.214 . S
O304 Cd296 2.277 . S
O304 C299 1.209 . S
C305 O302 1.258 . S
C305 O307 1.282 . S
O306 Cd298 2.277 . S
O306 C299 1.226 . S
O307 Cd298 2.356 . S
O307 C305 1.282 . S
C308 O309 1.306 . S
C308 O311 1.160 . S
O309 C308 1.306 . S
O309 Cd310 2.228 . S
Cd310 O309 2.228 . S
Cd310 O314 2.273 . S
Cd310 O318 2.277 . S
O311 C308 1.160 . S
O311 Cd312 2.203 . S
Cd312 O311 2.203 . S
Cd312 O314 2.411 . S
Cd312 O315 2.333 . S
Cd312 O316 2.352 . S
Cd312 O320 2.277 . S
Cd312 O321 2.356 . S
C313 O318 1.209 . S
C313 O320 1.226 . S
O314 Cd310 2.273 . S
O314 Cd312 2.411 . S
O314 C317 1.320 . S
O315 Cd312 2.333 . S
O315 C317 1.214 . S
O316 Cd312 2.352 . S
O316 C319 1.258 . S
C317 O314 1.320 . S
C317 O315 1.214 . S
O318 Cd310 2.277 . S
O318 C313 1.209 . S
C319 O316 1.258 . S
C319 O321 1.282 . S
O320 Cd312 2.277 . S
O320 C313 1.226 . S
O321 Cd312 2.356 . S
O321 C319 1.282 . S
C322 O323 1.306 . S
C322 O325 1.160 . S
O323 C322 1.306 . S
O323 Cd324 2.228 . S
Cd324 O323 2.228 . S
Cd324 O328 2.273 . S
Cd324 O332 2.277 . S
O325 C322 1.160 . S
O325 Cd326 2.203 . S
Cd326 O325 2.203 . S
Cd326 O328 2.411 . S
Cd326 O329 2.333 . S
Cd326 O330 2.352 . S
Cd326 O334 2.277 . S
Cd326 O335 2.356 . S
C327 O332 1.209 . S
C327 O334 1.226 . S
O328 Cd324 2.273 . S
O328 Cd326 2.411 . S
O328 C331 1.320 . S
O329 Cd326 2.333 . S
O329 C331 1.214 . S
O330 Cd326 2.352 . S
O330 C333 1.258 . S
C331 O328 1.320 . S
C331 O329 1.214 . S
O332 Cd324 2.277 . S
O332 C327 1.209 . S
C333 O330 1.258 . S
C333 O335 1.282 . S
O334 Cd326 2.277 . S
O334 C327 1.226 . S
O335 Cd326 2.356 . S
O335 C333 1.282 . S
Pr336 C338 2.880 1_455 S
Pr336 O356 2.562 1_455 S
Pr336 O357 2.490 1_454 S
Pr336 O358 2.695 . S
Pr336 O359 2.512 1_554 S
Pr336 O361 2.437 . S
Pr336 O364 2.436 . S
Pr336 O366 2.438 . S
Pr337 C347 2.880 . S
Pr337 O358 2.436 . S
Pr337 O360 2.438 . S
Pr337 O362 2.562 . S
Pr337 O363 2.490 . S
Pr337 O364 2.695 . S
Pr337 O365 2.512 . S
Pr337 O367 2.437 . S
C338 Pr336 2.880 1_655 S
C338 C339 1.491 1_554 S
C338 O356 1.254 . S
C338 O357 1.225 1_554 S
C339 C338 1.491 1_556 S
C339 C340 1.392 . S
C339 C344 1.356 1_556 S
C340 C339 1.392 . S
C340 C341 1.368 . S
C340 H368 0.929 . S
C341 C340 1.368 . S
C341 C342 1.386 . S
C341 H369 0.929 . S
C342 C341 1.386 . S
C342 C343 1.373 1_556 S
C343 C342 1.373 1_554 S
C343 C344 1.409 . S
C343 H370 0.931 . S
C344 C339 1.356 1_554 S
C344 C343 1.409 . S
C344 H371 0.930 . S
C345 O358 1.270 1_556 S
C345 O359 1.248 . S
C346 O360 1.267 . S
C346 O361 1.278 . S
C347 Pr337 2.880 . S
C347 C348 1.491 . S
C347 O362 1.254 . S
C347 O363 1.225 . S
C348 C347 1.491 . S
C348 C349 1.392 . S
C348 C353 1.356 . S
C349 C348 1.392 . S
C349 C350 1.368 . S
C349 H372 0.929 . S
C350 C349 1.368 . S
C350 C351 1.386 . S
C350 H373 0.929 . S
C351 C350 1.386 . S
C351 C352 1.373 . S
C352 C351 1.373 . S
C352 C353 1.409 . S
C352 H374 0.931 . S
C353 C348 1.356 . S
C353 C352 1.409 . S
C353 H375 0.930 . S
C354 O364 1.270 . S
C354 O365 1.248 . S
C355 O366 1.267 . S
C355 O367 1.278 . S
O356 Pr336 2.562 1_655 S
O356 C338 1.254 . S
O357 Pr336 2.490 1_656 S
O357 C338 1.225 1_556 S
O358 Pr336 2.695 . S
O358 Pr337 2.436 . S
O358 C345 1.270 1_554 S
O359 Pr336 2.512 1_556 S
O359 C345 1.248 . S
O360 Pr337 2.438 . S
O360 C346 1.267 . S
O361 Pr336 2.437 . S
O361 C346 1.278 . S
O362 Pr337 2.562 . S
O362 C347 1.254 . S
O363 Pr337 2.490 . S
O363 C347 1.225 . S
O364 Pr336 2.436 . S
O364 Pr337 2.695 . S
O364 C354 1.270 . S
O365 Pr337 2.512 . S
O365 C354 1.248 . S
O366 Pr336 2.438 . S
O366 C355 1.267 . S
O367 Pr337 2.437 . S
O367 C355 1.278 . S
H368 C340 0.929 . S
H369 C341 0.929 . S
H370 C343 0.931 . S
H371 C344 0.930 . S
H372 C349 0.929 . S
H373 C350 0.929 . S
H374 C352 0.931 . S
H375 C353 0.930 . S
Pr376 C378 2.880 . S
Pr376 O396 2.562 . S
Pr376 O397 2.490 . S
Pr376 O398 2.695 . S
Pr376 O399 2.512 . S
Pr376 O401 2.437 . S
Pr376 O404 2.436 . S
Pr376 O406 2.438 . S
Pr377 C387 2.880 . S
Pr377 O398 2.436 . S
Pr377 O400 2.438 . S
Pr377 O402 2.562 . S
Pr377 O403 2.490 . S
Pr377 O404 2.695 . S
Pr377 O405 2.512 . S
Pr377 O407 2.437 . S
C378 Pr376 2.880 . S
C378 C379 1.491 . S
C378 O396 1.254 . S
C378 O397 1.225 . S
C379 C378 1.491 . S
C379 C380 1.392 . S
C379 C384 1.356 . S
C380 C379 1.392 . S
C380 C381 1.368 . S
C380 H408 0.929 . S
C381 C380 1.368 . S
C381 C382 1.386 . S
C381 H409 0.929 . S
C382 C381 1.386 . S
C382 C383 1.373 . S
C383 C382 1.373 . S
C383 C384 1.409 . S
C383 H410 0.931 . S
C384 C379 1.356 . S
C384 C383 1.409 . S
C384 H411 0.930 . S
C385 O398 1.270 . S
C385 O399 1.248 . S
C386 O400 1.267 . S
C386 O401 1.278 . S
C387 Pr377 2.880 . S
C387 C388 1.491 . S
C387 O402 1.254 . S
C387 O403 1.225 . S
C388 C387 1.491 . S
C388 C389 1.392 . S
C388 C393 1.356 . S
C389 C388 1.392 . S
C389 C390 1.368 . S
C389 H412 0.929 . S
C390 C389 1.368 . S
C390 C391 1.386 . S
C390 H413 0.929 . S
C391 C390 1.386 . S
C391 C392 1.373 . S
C392 C391 1.373 . S
C392 C393 1.409 . S
C392 H414 0.931 . S
C393 C388 1.356 . S
C393 C392 1.409 . S
C393 H415 0.930 . S
C394 O404 1.270 . S
C394 O405 1.248 . S
C395 O406 1.267 . S
C395 O407 1.278 . S
O396 Pr376 2.562 . S
O396 C378 1.254 . S
O397 Pr376 2.490 . S
O397 C378 1.225 . S
O398 Pr376 2.695 . S
O398 Pr377 2.436 . S
O398 C385 1.270 . S
O399 Pr376 2.512 . S
O399 C385 1.248 . S
O400 Pr377 2.438 . S
O400 C386 1.267 . S
O401 Pr376 2.437 . S
O401 C386 1.278 . S
O402 Pr377 2.562 . S
O402 C387 1.254 . S
O403 Pr377 2.490 . S
O403 C387 1.225 . S
O404 Pr376 2.436 . S
O404 Pr377 2.695 . S
O404 C394 1.270 . S
O405 Pr377 2.512 . S
O405 C394 1.248 . S
O406 Pr376 2.438 . S
O406 C395 1.267 . S
O407 Pr377 2.437 . S
O407 C395 1.278 . S
H408 C380 0.929 . S
H409 C381 0.929 . S
H410 C383 0.931 . S
H411 C384 0.930 . S
H412 C389 0.929 . S
H413 C390 0.929 . S
H414 C392 0.931 . S
H415 C393 0.930 . S
Pr416 C418 2.880 . S
Pr416 O436 2.562 . S
Pr416 O437 2.490 . S
Pr416 O438 2.695 . S
Pr416 O439 2.512 . S
Pr416 O441 2.437 . S
Pr416 O444 2.436 . S
Pr416 O446 2.438 . S
Pr417 C427 2.880 . S
Pr417 O438 2.436 . S
Pr417 O440 2.438 . S
Pr417 O442 2.562 . S
Pr417 O443 2.490 . S
Pr417 O444 2.695 . S
Pr417 O445 2.512 . S
Pr417 O447 2.437 . S
C418 Pr416 2.880 . S
C418 C419 1.491 . S
C418 O436 1.254 . S
C418 O437 1.225 . S
C419 C418 1.491 . S
C419 C420 1.392 . S
C419 C424 1.356 . S
C420 C419 1.392 . S
C420 C421 1.368 . S
C420 H448 0.929 . S
C421 C420 1.368 . S
C421 C422 1.386 . S
C421 H449 0.929 . S
C422 C421 1.386 . S
C422 C423 1.373 . S
C423 C422 1.373 . S
C423 C424 1.409 . S
C423 H450 0.887 1_545 S
C424 C419 1.356 . S
C424 C423 1.409 . S
C424 H451 0.930 . S
C425 O438 1.270 . S
C425 O439 1.248 . S
C426 O440 1.267 . S
C426 O441 1.278 . S
C427 Pr417 2.880 . S
C427 C428 1.491 . S
C427 O442 1.254 . S
C427 O443 1.225 . S
C428 C427 1.491 . S
C428 C429 1.392 . S
C428 C433 1.356 . S
C429 C428 1.392 . S
C429 C430 1.368 . S
C429 H452 0.929 . S
C430 C429 1.368 . S
C430 C431 1.386 . S
C430 H453 0.929 . S
C431 C430 1.386 . S
C431 C432 1.373 . S
C432 C431 1.373 . S
C432 C433 1.409 . S
C432 H454 0.931 . S
C433 C428 1.356 . S
C433 C432 1.409 . S
C433 H455 0.930 . S
C434 O444 1.270 . S
C434 O445 1.248 . S
C435 O446 1.267 . S
C435 O447 1.278 . S
O436 Pr416 2.562 . S
O436 C418 1.254 . S
O437 Pr416 2.490 . S
O437 C418 1.225 . S
O438 Pr416 2.695 . S
O438 Pr417 2.436 . S
O438 C425 1.270 . S
O439 Pr416 2.512 . S
O439 C425 1.248 . S
O440 Pr417 2.438 . S
O440 C426 1.267 . S
O441 Pr416 2.437 . S
O441 C426 1.278 . S
O442 Pr417 2.562 . S
O442 C427 1.254 . S
O443 Pr417 2.490 . S
O443 C427 1.225 . S
O444 Pr416 2.436 . S
O444 Pr417 2.695 . S
O444 C434 1.270 . S
O445 Pr417 2.512 . S
O445 C434 1.248 . S
O446 Pr416 2.438 . S
O446 C435 1.267 . S
O447 Pr417 2.437 . S
O447 C435 1.278 . S
H448 C420 0.929 . S
H449 C421 0.929 . S
H450 C423 0.887 1_565 S
H451 C424 0.930 . S
H452 C429 0.929 . S
H453 C430 0.929 . S
H454 C432 0.931 . S
H455 C433 0.930 . S
Pr456 C458 2.880 . S
Pr456 O476 2.562 . S
Pr456 O477 2.490 . S
Pr456 O478 2.695 . S
Pr456 O479 2.512 . S
Pr456 O481 2.437 . S
Pr456 O484 2.436 . S
Pr456 O486 2.438 . S
Pr457 C467 2.880 . S
Pr457 O478 2.436 . S
Pr457 O480 2.438 . S
Pr457 O482 2.562 . S
Pr457 O483 2.490 . S
Pr457 O484 2.695 . S
Pr457 O485 2.512 . S
Pr457 O487 2.437 . S
C458 Pr456 2.880 . S
C458 C459 1.491 . S
C458 O476 1.254 . S
C458 O477 1.225 . S
C459 C458 1.491 . S
C459 C460 1.392 . S
C459 C464 1.356 . S
C460 C459 1.392 . S
C460 C461 1.368 . S
C460 H488 0.929 . S
C461 C460 1.368 . S
C461 C462 1.386 . S
C461 H489 0.929 . S
C462 C461 1.386 . S
C462 C463 1.373 . S
C463 C462 1.373 . S
C463 C464 1.409 . S
C463 H490 0.931 . S
C464 C459 1.356 . S
C464 C463 1.409 . S
C464 H491 0.930 . S
C465 O478 1.270 . S
C465 O479 1.248 . S
C466 O480 1.267 . S
C466 O481 1.278 . S
C467 Pr457 2.880 . S
C467 C468 1.491 . S
C467 O482 1.254 . S
C467 O483 1.225 . S
C468 C467 1.491 . S
C468 C469 1.392 . S
C468 C473 1.356 . S
C469 C468 1.392 . S
C469 C470 1.368 . S
C469 H492 0.929 . S
C470 C469 1.368 . S
C470 C471 1.386 . S
C470 H493 0.929 . S
C471 C470 1.386 . S
C471 C472 1.373 . S
C472 C471 1.373 . S
C472 C473 1.409 . S
C472 H494 0.931 . S
C473 C468 1.356 . S
C473 C472 1.409 . S
C473 H495 0.930 . S
C474 O484 1.270 . S
C474 O485 1.248 . S
C475 O486 1.267 . S
C475 O487 1.278 . S
O476 Pr456 2.562 . S
O476 C458 1.254 . S
O477 Pr456 2.490 . S
O477 C458 1.225 . S
O478 Pr456 2.695 . S
O478 Pr457 2.436 . S
O478 C465 1.270 . S
O479 Pr456 2.512 . S
O479 C465 1.248 . S
O480 Pr457 2.438 . S
O480 C466 1.267 . S
O481 Pr456 2.437 . S
O481 C466 1.278 . S
O482 Pr457 2.562 . S
O482 C467 1.254 . S
O483 Pr457 2.490 . S
O483 C467 1.225 . S
O484 Pr456 2.436 . S
O484 Pr457 2.695 . S
O484 C474 1.270 . S
O485 Pr457 2.512 . S
O485 C474 1.248 . S
O486 Pr456 2.438 . S
O486 C475 1.267 . S
O487 Pr457 2.437 . S
O487 C475 1.278 . S
H488 C460 0.929 . S
H489 C461 0.929 . S
H490 C463 0.931 . S
H491 C464 0.930 . S
H492 C469 0.929 . S
H493 C470 0.929 . S
H494 C472 0.931 . S
H495 C473 0.930 . S
Pr496 C498 2.880 . S
Pr496 O516 2.562 . S
Pr496 O517 2.490 . S
Pr496 O518 2.695 . S
Pr496 O519 2.512 . S
Pr496 O521 2.437 . S
Pr496 O524 2.436 . S
Pr496 O526 2.438 . S
Pr497 C507 2.880 . S
Pr497 O518 2.436 . S
Pr497 O520 2.438 . S
Pr497 O522 2.562 . S
Pr497 O523 2.490 . S
Pr497 O524 2.695 . S
Pr497 O525 2.512 . S
Pr497 O527 2.437 . S
C498 Pr496 2.880 . S
C498 C499 1.491 . S
C498 O516 1.254 . S
C498 O517 1.225 . S
C499 C498 1.491 . S
C499 C500 1.392 . S
C499 C504 1.356 1_455 S
C500 C499 1.392 . S
C500 C501 1.368 . S
C500 H528 0.929 . S
C501 C500 1.368 . S
C501 C502 1.386 . S
C501 H529 0.929 . S
C502 C501 1.386 . S
C502 C503 1.373 1_455 S
C503 C502 1.373 1_655 S
C503 C504 1.409 . S
C503 H530 0.931 . S
C504 C499 1.356 1_655 S
C504 C503 1.409 . S
C504 H531 0.930 . S
C505 O518 1.270 . S
C505 O519 1.248 . S
C506 O520 1.267 . S
C506 O521 1.278 . S
C507 Pr497 2.880 . S
C507 C508 1.491 . S
C507 O522 1.254 . S
C507 O523 1.225 . S
C508 C507 1.491 . S
C508 C509 1.392 . S
C508 C513 1.356 . S
C509 C508 1.392 . S
C509 C510 1.368 . S
C509 H532 0.929 . S
C510 C509 1.368 . S
C510 C511 1.386 . S
C510 H533 0.929 . S
C511 C510 1.386 . S
C511 C512 1.373 . S
C512 C511 1.373 . S
C512 C513 1.409 . S
C512 H534 0.931 . S
C513 C508 1.356 . S
C513 C512 1.409 . S
C513 H535 0.930 . S
C514 O524 1.270 . S
C514 O525 1.248 . S
C515 O526 1.267 . S
C515 O527 1.278 . S
O516 Pr496 2.562 . S
O516 C498 1.254 . S
O517 Pr496 2.490 . S
O517 C498 1.225 . S
O518 Pr496 2.695 . S
O518 Pr497 2.436 . S
O518 C505 1.270 . S
O519 Pr496 2.512 . S
O519 C505 1.248 . S
O520 Pr497 2.438 . S
O520 C506 1.267 . S
O521 Pr496 2.437 . S
O521 C506 1.278 . S
O522 Pr497 2.562 . S
O522 C507 1.254 . S
O523 Pr497 2.490 . S
O523 C507 1.225 . S
O524 Pr496 2.436 . S
O524 Pr497 2.695 . S
O524 C514 1.270 . S
O525 Pr497 2.512 . S
O525 C514 1.248 . S
O526 Pr496 2.438 . S
O526 C515 1.267 . S
O527 Pr497 2.437 . S
O527 C515 1.278 . S
H528 C500 0.929 . S
H529 C501 0.929 . S
H530 C503 0.931 . S
H531 C504 0.930 . S
H532 C509 0.929 . S
H533 C510 0.929 . S
H534 C512 0.931 . S
H535 C513 0.930 . S
Pr536 C538 2.880 . S
Pr536 O556 2.562 . S
Pr536 O557 2.490 . S
Pr536 O558 2.695 . S
Pr536 O559 2.512 . S
Pr536 O561 2.437 . S
Pr536 O564 2.436 . S
Pr536 O566 2.438 . S
Pr537 C547 2.880 . S
Pr537 O558 2.436 . S
Pr537 O560 2.438 . S
Pr537 O562 2.562 . S
Pr537 O563 2.490 . S
Pr537 O564 2.695 . S
Pr537 O565 2.512 . S
Pr537 O567 2.437 . S
C538 Pr536 2.880 . S
C538 C539 1.491 . S
C538 O556 1.254 . S
C538 O557 1.225 . S
C539 C538 1.491 . S
C539 C540 1.392 . S
C539 C544 1.356 . S
C540 C539 1.392 . S
C540 C541 1.368 . S
C540 H568 0.929 . S
C541 C540 1.368 . S
C541 C542 1.386 . S
C541 H569 0.929 . S
C542 C541 1.386 . S
C542 C543 1.373 . S
C543 C542 1.373 . S
C543 C544 1.409 . S
C543 H570 0.931 . S
C544 C539 1.356 . S
C544 C543 1.409 . S
C544 H571 0.930 . S
C545 O558 1.270 . S
C545 O559 1.248 . S
C546 O560 1.267 . S
C546 O561 1.278 . S
C547 Pr537 2.880 . S
C547 C548 1.491 . S
C547 O562 1.254 . S
C547 O563 1.225 . S
C548 C547 1.491 . S
C548 C549 1.392 . S
C548 C553 1.356 . S
C549 C548 1.392 . S
C549 C550 1.368 . S
C549 H572 0.929 . S
C550 C549 1.368 . S
C550 C551 1.386 . S
C550 H573 0.929 . S
C551 C550 1.386 . S
C551 C552 1.373 . S
C552 C551 1.373 . S
C552 C553 1.409 . S
C552 H574 0.931 . S
C553 C548 1.356 . S
C553 C552 1.409 . S
C553 H575 0.930 . S
C554 O564 1.270 . S
C554 O565 1.248 . S
C555 O566 1.267 . S
C555 O567 1.278 . S
O556 Pr536 2.562 . S
O556 C538 1.254 . S
O557 Pr536 2.490 . S
O557 C538 1.225 . S
O558 Pr536 2.695 . S
O558 Pr537 2.436 . S
O558 C545 1.270 . S
O559 Pr536 2.512 . S
O559 C545 1.248 . S
O560 Pr537 2.438 . S
O560 C546 1.267 . S
O561 Pr536 2.437 . S
O561 C546 1.278 . S
O562 Pr537 2.562 . S
O562 C547 1.254 . S
O563 Pr537 2.490 . S
O563 C547 1.225 . S
O564 Pr536 2.436 . S
O564 Pr537 2.695 . S
O564 C554 1.270 . S
O565 Pr537 2.512 . S
O565 C554 1.248 . S
O566 Pr536 2.438 . S
O566 C555 1.267 . S
O567 Pr537 2.437 . S
O567 C555 1.278 . S
H568 C540 0.929 . S
H569 C541 0.929 . S
H570 C543 0.931 . S
H571 C544 0.930 . S
H572 C549 0.929 . S
H573 C550 0.929 . S
H574 C552 0.931 . S
H575 C553 0.930 . S
Pr576 C578 2.880 . S
Pr576 O596 2.562 . S
Pr576 O597 2.490 . S
Pr576 O598 2.695 . S
Pr576 O599 2.512 . S
Pr576 O601 2.437 . S
Pr576 O604 2.436 . S
Pr576 O606 2.438 . S
Pr577 C587 2.905 . S
Pr577 O598 2.419 1_556 S
Pr577 O600 2.421 1_556 S
Pr577 O602 2.584 . S
Pr577 O603 2.515 . S
Pr577 O604 2.669 1_556 S
Pr577 O605 2.505 1_556 S
Pr577 O607 2.432 1_556 S
C578 Pr576 2.880 . S
C578 C579 1.491 . S
C578 O596 1.254 . S
C578 O597 1.225 . S
C579 C578 1.491 . S
C579 C580 1.392 . S
C579 C584 1.356 . S
C580 C579 1.392 . S
C580 C581 1.368 . S
C580 H608 0.929 . S
C581 C580 1.368 . S
C581 C582 1.386 . S
C581 H609 0.929 . S
C582 C581 1.386 . S
C582 C583 1.373 . S
C583 C582 1.373 . S
C583 C584 1.409 . S
C583 H610 0.931 . S
C584 C579 1.356 . S
C584 C583 1.409 . S
C584 H611 0.930 . S
C585 O598 1.270 . S
C585 O599 1.248 . S
C586 O600 1.267 . S
C586 O601 1.278 . S
C587 Pr577 2.905 . S
C587 C588 1.491 . S
C587 O602 1.254 . S
C587 O603 1.225 . S
C588 C587 1.491 . S
C588 C589 1.392 . S
C588 C593 1.356 . S
C589 C588 1.392 . S
C589 C590 1.368 . S
C589 H612 0.929 . S
C590 C589 1.368 . S
C590 C591 1.386 . S
C590 H613 0.929 . S
C591 C590 1.386 . S
C591 C592 1.373 . S
C592 C591 1.373 . S
C592 C593 1.409 . S
C592 H614 0.931 . S
C593 C588 1.356 . S
C593 C592 1.409 . S
C593 H615 0.930 . S
C594 O604 1.270 . S
C594 O605 1.248 . S
C595 O606 1.267 . S
C595 O607 1.278 . S
O596 Pr576 2.562 . S
O596 C578 1.254 . S
O597 Pr576 2.490 . S
O597 C578 1.225 . S
O598 Pr576 2.695 . S
O598 Pr577 2.419 1_554 S
O598 C585 1.270 . S
O599 Pr576 2.512 . S
O599 C585 1.248 . S
O600 Pr577 2.421 1_554 S
O600 C586 1.267 . S
O601 Pr576 2.437 . S
O601 C586 1.278 . S
O602 Pr577 2.584 . S
O602 C587 1.254 . S
O603 Pr577 2.515 . S
O603 C587 1.225 . S
O604 Pr576 2.436 . S
O604 Pr577 2.669 1_554 S
O604 C594 1.270 . S
O605 Pr577 2.505 1_554 S
O605 C594 1.248 . S
O606 Pr576 2.438 . S
O606 C595 1.267 . S
O607 Pr577 2.432 1_554 S
O607 C595 1.278 . S
H608 C580 0.929 . S
H609 C581 0.929 . S
H610 C583 0.931 . S
H611 C584 0.930 . S
H612 C589 0.929 . S
H613 C590 0.929 . S
H614 C592 0.931 . S
H615 C593 0.930 . S
Pr616 C618 2.880 . S
Pr616 O636 2.562 . S
Pr616 O637 2.490 . S
Pr616 O638 2.695 . S
Pr616 O639 2.512 . S
Pr616 O641 2.437 . S
Pr616 O644 2.436 . S
Pr616 O646 2.438 . S
Pr617 C627 2.880 . S
Pr617 O638 2.436 . S
Pr617 O640 2.438 . S
Pr617 O642 2.562 . S
Pr617 O643 2.490 . S
Pr617 O644 2.695 . S
Pr617 O645 2.512 . S
Pr617 O647 2.437 . S
C618 Pr616 2.880 . S
C618 C619 1.491 . S
C618 O636 1.254 . S
C618 O637 1.225 . S
C619 C618 1.491 . S
C619 C620 1.392 . S
C619 C624 1.356 . S
C620 C619 1.392 . S
C620 C621 1.368 . S
C620 H648 0.929 . S
C621 C620 1.368 . S
C621 C622 1.386 . S
C621 H649 0.929 . S
C622 C621 1.386 . S
C622 C623 1.373 . S
C623 C622 1.373 . S
C623 C624 1.409 . S
C623 H650 0.931 . S
C624 C619 1.356 . S
C624 C623 1.409 . S
C624 H651 0.930 . S
C625 O638 1.270 . S
C625 O639 1.248 . S
C626 O640 1.267 . S
C626 O641 1.278 . S
C627 Pr617 2.880 . S
C627 C628 1.491 . S
C627 O642 1.254 . S
C627 O643 1.225 . S
C628 C627 1.491 . S
C628 C629 1.392 . S
C628 C633 1.356 . S
C629 C628 1.392 . S
C629 C630 1.368 . S
C629 H652 0.929 . S
C630 C629 1.368 . S
C630 C631 1.386 . S
C630 H653 0.929 . S
C631 C630 1.386 . S
C631 C632 1.373 . S
C632 C631 1.373 . S
C632 C633 1.409 . S
C632 H654 0.931 . S
C633 C628 1.356 . S
C633 C632 1.409 . S
C633 H655 0.930 . S
C634 O644 1.270 . S
C634 O645 1.248 . S
C635 O646 1.267 . S
C635 O647 1.278 . S
O636 Pr616 2.562 . S
O636 C618 1.254 . S
O637 Pr616 2.490 . S
O637 C618 1.225 . S
O638 Pr616 2.695 . S
O638 Pr617 2.436 . S
O638 C625 1.270 . S
O639 Pr616 2.512 . S
O639 C625 1.248 . S
O640 Pr617 2.438 . S
O640 C626 1.267 . S
O641 Pr616 2.437 . S
O641 C626 1.278 . S
O642 Pr617 2.562 . S
O642 C627 1.254 . S
O643 Pr617 2.490 . S
O643 C627 1.225 . S
O644 Pr616 2.436 . S
O644 Pr617 2.695 . S
O644 C634 1.270 . S
O645 Pr617 2.512 . S
O645 C634 1.248 . S
O646 Pr616 2.438 . S
O646 C635 1.267 . S
O647 Pr617 2.437 . S
O647 C635 1.278 . S
H648 C620 0.929 . S
H649 C621 0.929 . S
H650 C623 0.931 . S
H651 C624 0.930 . S
H652 C629 0.929 . S
H653 C630 0.929 . S
H654 C632 0.931 . S
H655 C633 0.930 . S
Pr656 C658 2.838 1_554 S
Pr656 O676 2.534 1_554 S
Pr656 O677 2.444 1_554 S
Pr656 O678 2.726 . S
Pr656 O679 2.508 . S
Pr656 O681 2.438 . S
Pr656 O684 2.470 . S
Pr656 O686 2.473 . S
Pr657 C667 2.880 . S
Pr657 O678 2.436 . S
Pr657 O680 2.438 . S
Pr657 O682 2.562 . S
Pr657 O683 2.490 . S
Pr657 O684 2.695 . S
Pr657 O685 2.512 . S
Pr657 O687 2.437 . S
C658 Pr656 2.838 1_556 S
C658 C659 1.491 . S
C658 O676 1.254 . S
C658 O677 1.225 . S
C659 C658 1.491 . S
C659 C660 1.392 . S
C659 C664 1.356 . S
C660 C659 1.392 . S
C660 C661 1.368 . S
C660 H688 0.929 . S
C661 C660 1.368 . S
C661 C662 1.386 . S
C661 H689 0.929 . S
C662 C661 1.386 . S
C662 C663 1.373 . S
C663 C662 1.373 . S
C663 C664 1.409 . S
C663 H690 0.931 . S
C664 C659 1.356 . S
C664 C663 1.409 . S
C664 H691 0.930 . S
C665 O678 1.270 . S
C665 O679 1.248 . S
C666 O680 1.267 . S
C666 O681 1.311 . S
C667 Pr657 2.880 . S
C667 C668 1.491 . S
C667 O682 1.254 . S
C667 O683 1.225 . S
C668 C667 1.491 . S
C668 C669 1.392 . S
C668 C673 1.356 . S
C669 C668 1.392 . S
C669 C670 1.368 . S
C669 H692 0.929 . S
C670 C669 1.368 . S
C670 C671 1.386 . S
C670 H693 0.929 . S
C671 C670 1.386 . S
C671 C672 1.373 . S
C672 C671 1.373 . S
C672 C673 1.409 . S
C672 H694 0.931 . S
C673 C668 1.356 . S
C673 C672 1.409 . S
C673 H695 0.930 . S
C674 O684 1.270 . S
C674 O685 1.248 . S
C675 O686 1.267 . S
C675 O687 1.278 . S
O676 Pr656 2.534 1_556 S
O676 C658 1.254 . S
O677 Pr656 2.444 1_556 S
O677 C658 1.225 . S
O678 Pr656 2.726 . S
O678 Pr657 2.436 . S
O678 C665 1.270 . S
O679 Pr656 2.508 . S
O679 C665 1.248 . S
O680 Pr657 2.438 . S
O680 C666 1.267 . S
O681 Pr656 2.438 . S
O681 C666 1.311 . S
O682 Pr657 2.562 . S
O682 C667 1.254 . S
O683 Pr657 2.490 . S
O683 C667 1.225 . S
O684 Pr656 2.470 . S
O684 Pr657 2.695 . S
O684 C674 1.270 . S
O685 Pr657 2.512 . S
O685 C674 1.248 . S
O686 Pr656 2.473 . S
O686 C675 1.267 . S
O687 Pr657 2.437 . S
O687 C675 1.278 . S
H688 C660 0.929 . S
H689 C661 0.929 . S
H690 C663 0.931 . S
H691 C664 0.930 . S
H692 C669 0.929 . S
H693 C670 0.929 . S
H694 C672 0.931 . S
H695 C673 0.930 . S
Pr696 C698 2.880 . S
Pr696 O716 2.562 . S
Pr696 O717 2.490 . S
Pr696 O718 2.695 . S
Pr696 O719 2.512 . S
Pr696 O721 2.437 . S
Pr696 O724 2.436 . S
Pr696 O726 2.438 . S
Pr697 C707 2.880 . S
Pr697 O718 2.436 . S
Pr697 O720 2.438 . S
Pr697 O722 2.562 . S
Pr697 O723 2.490 . S
Pr697 O724 2.695 . S
Pr697 O725 2.512 . S
Pr697 O727 2.437 . S
C698 Pr696 2.880 . S
C698 C699 1.491 . S
C698 O716 1.254 . S
C698 O717 1.225 . S
C699 C698 1.491 . S
C699 C700 1.392 . S
C699 C704 1.356 . S
C700 C699 1.392 . S
C700 C701 1.368 . S
C700 H728 0.929 . S
C701 C700 1.368 . S
C701 C702 1.386 . S
C701 H729 0.929 . S
C702 C701 1.386 . S
C702 C703 1.373 . S
C703 C702 1.373 . S
C703 C704 1.409 . S
C703 H730 0.931 . S
C704 C699 1.356 . S
C704 C703 1.409 . S
C704 H731 0.930 . S
C705 O718 1.270 . S
C705 O719 1.248 . S
C706 O720 1.267 . S
C706 O721 1.278 . S
C707 Pr697 2.880 . S
C707 C708 1.491 . S
C707 O722 1.254 . S
C707 O723 1.225 . S
C708 C707 1.491 . S
C708 C709 1.392 . S
C708 C713 1.356 . S
C709 C708 1.392 . S
C709 C710 1.368 . S
C709 H732 0.929 . S
C710 C709 1.368 . S
C710 C711 1.386 . S
C710 H733 0.929 . S
C711 C710 1.386 . S
C711 C712 1.373 . S
C712 C711 1.373 . S
C712 C713 1.409 . S
C712 H734 0.931 . S
C713 C708 1.356 . S
C713 C712 1.409 . S
C713 H735 0.930 . S
C714 O724 1.270 . S
C714 O725 1.248 . S
C715 O726 1.267 . S
C715 O727 1.278 . S
O716 Pr696 2.562 . S
O716 C698 1.254 . S
O717 Pr696 2.490 . S
O717 C698 1.225 . S
O718 Pr696 2.695 . S
O718 Pr697 2.436 . S
O718 C705 1.270 . S
O719 Pr696 2.512 . S
O719 C705 1.248 . S
O720 Pr697 2.438 . S
O720 C706 1.267 . S
O721 Pr696 2.437 . S
O721 C706 1.278 . S
O722 Pr697 2.562 . S
O722 C707 1.254 . S
O723 Pr697 2.490 . S
O723 C707 1.225 . S
O724 Pr696 2.436 . S
O724 Pr697 2.695 . S
O724 C714 1.270 . S
O725 Pr697 2.512 . S
O725 C714 1.248 . S
O726 Pr696 2.438 . S
O726 C715 1.267 . S
O727 Pr697 2.437 . S
O727 C715 1.278 . S
H728 C700 0.929 . S
H729 C701 0.929 . S
H730 C703 0.931 . S
H731 C704 0.930 . S
H732 C709 0.929 . S
H733 C710 0.929 . S
H734 C712 0.931 . S
H735 C713 0.930 . S
Pr736 C738 2.880 . S
Pr736 O756 2.562 . S
Pr736 O757 2.490 . S
Pr736 O758 2.695 . S
Pr736 O759 2.512 . S
Pr736 O761 2.437 . S
Pr736 O764 2.436 . S
Pr736 O766 2.438 . S
Pr737 C747 2.880 . S
Pr737 O758 2.436 . S
Pr737 O760 2.438 . S
Pr737 O762 2.562 . S
Pr737 O763 2.490 . S
Pr737 O764 2.695 . S
Pr737 O765 2.512 . S
Pr737 O767 2.437 . S
C738 Pr736 2.880 . S
C738 C739 1.491 . S
C738 O756 1.254 . S
C738 O757 1.225 . S
C739 C738 1.491 . S
C739 C740 1.392 . S
C739 C744 1.356 . S
C740 C739 1.392 . S
C740 C741 1.368 . S
C740 H768 0.929 . S
C741 C740 1.368 . S
C741 C742 1.347 1_455 S
C741 H769 0.929 . S
C742 C741 1.347 1_655 S
C742 C743 1.383 . S
C743 C742 1.383 . S
C743 C744 1.409 1_655 S
C743 H770 0.931 . S
C744 C739 1.356 . S
C744 C743 1.409 1_455 S
C744 H771 0.930 . S
C745 O758 1.270 . S
C745 O759 1.248 . S
C746 O760 1.270 . S
C746 O761 1.287 . S
C747 Pr737 2.880 . S
C747 C748 1.491 . S
C747 O762 1.254 . S
C747 O763 1.225 . S
C748 C747 1.491 . S
C748 C749 1.392 . S
C748 C753 1.356 . S
C749 C748 1.392 . S
C749 C750 1.368 . S
C749 H772 0.929 . S
C750 C749 1.368 . S
C750 C751 1.386 . S
C750 H773 0.929 . S
C751 C750 1.386 . S
C751 C752 1.373 . S
C752 C751 1.373 . S
C752 C753 1.409 . S
C752 H774 0.931 . S
C753 C748 1.356 . S
C753 C752 1.409 . S
C753 H775 0.930 . S
C754 O764 1.270 . S
C754 O765 1.248 . S
C755 O766 1.267 . S
C755 O767 1.278 . S
O756 Pr736 2.562 . S
O756 C738 1.254 . S
O757 Pr736 2.490 . S
O757 C738 1.225 . S
O758 Pr736 2.695 . S
O758 Pr737 2.436 . S
O758 C745 1.270 . S
O759 Pr736 2.512 . S
O759 C745 1.248 . S
O760 Pr737 2.438 . S
O760 C746 1.270 . S
O761 Pr736 2.437 . S
O761 C746 1.287 . S
O762 Pr737 2.562 . S
O762 C747 1.254 . S
O763 Pr737 2.490 . S
O763 C747 1.225 . S
O764 Pr736 2.436 . S
O764 Pr737 2.695 . S
O764 C754 1.270 . S
O765 Pr737 2.512 . S
O765 C754 1.248 . S
O766 Pr736 2.438 . S
O766 C755 1.267 . S
O767 Pr737 2.437 . S
O767 C755 1.278 . S
H768 C740 0.929 . S
H769 C741 0.929 . S
H770 C743 0.931 . S
H771 C744 0.930 . S
H772 C749 0.929 . S
H773 C750 0.929 . S
H774 C752 0.931 . S
H775 C753 0.930 . S
Pr776 C778 2.880 . S
Pr776 O796 2.562 . S
Pr776 O797 2.490 . S
Pr776 O798 2.695 . S
Pr776 O799 2.512 . S
Pr776 O801 2.437 . S
Pr776 O804 2.436 . S
Pr776 O806 2.438 . S
Pr777 C787 2.880 . S
Pr777 O798 2.436 . S
Pr777 O800 2.438 . S
Pr777 O802 2.562 . S
Pr777 O803 2.490 . S
Pr777 O804 2.695 . S
Pr777 O805 2.512 . S
Pr777 O807 2.437 . S
C778 Pr776 2.880 . S
C778 C779 1.491 . S
C778 O796 1.254 . S
C778 O797 1.225 . S
C779 C778 1.491 . S
C779 C780 1.392 . S
C779 C784 1.356 . S
C780 C779 1.392 . S
C780 C781 1.368 . S
C780 H808 0.929 . S
C781 C780 1.368 . S
C781 C782 1.386 . S
C781 H809 0.929 . S
C782 C781 1.386 . S
C782 C783 1.373 . S
C783 C782 1.373 . S
C783 C784 1.409 . S
C783 H810 0.931 . S
C784 C779 1.356 . S
C784 C783 1.409 . S
C784 H811 0.930 . S
C785 O798 1.270 . S
C785 O799 1.248 . S
C786 O800 1.267 . S
C786 O801 1.278 . S
C787 Pr777 2.880 . S
C787 C788 1.491 . S
C787 O802 1.254 . S
C787 O803 1.225 . S
C788 C787 1.491 . S
C788 C789 1.392 . S
C788 C793 1.356 . S
C789 C788 1.392 . S
C789 C790 1.368 . S
C789 H812 0.929 . S
C790 C789 1.368 . S
C790 C791 1.386 . S
C790 H813 0.929 . S
C791 C790 1.386 . S
C791 C792 1.373 . S
C792 C791 1.373 . S
C792 C793 1.409 . S
C792 H814 0.931 . S
C793 C788 1.356 . S
C793 C792 1.409 . S
C793 H815 0.930 . S
C794 O804 1.270 . S
C794 O805 1.248 . S
C795 O806 1.267 . S
C795 O807 1.278 . S
O796 Pr776 2.562 . S
O796 C778 1.254 . S
O797 Pr776 2.490 . S
O797 C778 1.225 . S
O798 Pr776 2.695 . S
O798 Pr777 2.436 . S
O798 C785 1.270 . S
O799 Pr776 2.512 . S
O799 C785 1.248 . S
O800 Pr777 2.438 . S
O800 C786 1.267 . S
O801 Pr776 2.437 . S
O801 C786 1.278 . S
O802 Pr777 2.562 . S
O802 C787 1.254 . S
O803 Pr777 2.490 . S
O803 C787 1.225 . S
O804 Pr776 2.436 . S
O804 Pr777 2.695 . S
O804 C794 1.270 . S
O805 Pr777 2.512 . S
O805 C794 1.248 . S
O806 Pr776 2.438 . S
O806 C795 1.267 . S
O807 Pr777 2.437 . S
O807 C795 1.278 . S
H808 C780 0.929 . S
H809 C781 0.929 . S
H810 C783 0.931 . S
H811 C784 0.930 . S
H812 C789 0.929 . S
H813 C790 0.929 . S
H814 C792 0.931 . S
H815 C793 0.930 . S
Pr816 C818 2.880 . S
Pr816 O836 2.562 . S
Pr816 O837 2.490 . S
Pr816 O838 2.695 . S
Pr816 O839 2.512 . S
Pr816 O841 2.437 . S
Pr816 O844 2.436 . S
Pr816 O846 2.438 . S
Pr817 C827 2.880 . S
Pr817 O838 2.436 . S
Pr817 O840 2.438 . S
Pr817 O842 2.562 . S
Pr817 O843 2.490 . S
Pr817 O844 2.695 . S
Pr817 O845 2.512 . S
Pr817 O847 2.437 . S
C818 Pr816 2.880 . S
C818 C819 1.491 . S
C818 O836 1.254 . S
C818 O837 1.225 . S
C819 C818 1.491 . S
C819 C820 1.392 . S
C819 C824 1.356 . S
C820 C819 1.392 . S
C820 C821 1.368 . S
C820 H848 0.929 . S
C821 C820 1.368 . S
C821 C822 1.386 . S
C821 H849 0.929 . S
C822 C821 1.386 . S
C822 C823 1.373 . S
C823 C822 1.373 . S
C823 C824 1.409 . S
C823 H850 0.931 . S
C824 C819 1.356 . S
C824 C823 1.409 . S
C824 H851 0.930 . S
C825 O838 1.270 . S
C825 O839 1.248 . S
C826 O840 1.267 . S
C826 O841 1.278 . S
C827 Pr817 2.880 . S
C827 C828 1.491 . S
C827 O842 1.254 . S
C827 O843 1.225 . S
C828 C827 1.491 . S
C828 C829 1.392 . S
C828 C833 1.356 . S
C829 C828 1.392 . S
C829 C830 1.368 . S
C829 H852 0.929 . S
C830 C829 1.368 . S
C830 C831 1.386 . S
C830 H853 0.929 . S
C831 C830 1.386 . S
C831 C832 1.373 . S
C832 C831 1.373 . S
C832 C833 1.409 . S
C832 H854 0.931 . S
C833 C828 1.356 . S
C833 C832 1.409 . S
C833 H855 0.930 . S
C834 O844 1.270 . S
C834 O845 1.248 . S
C835 O846 1.267 . S
C835 O847 1.278 . S
O836 Pr816 2.562 . S
O836 C818 1.254 . S
O837 Pr816 2.490 . S
O837 C818 1.225 . S
O838 Pr816 2.695 . S
O838 Pr817 2.436 . S
O838 C825 1.270 . S
O839 Pr816 2.512 . S
O839 C825 1.248 . S
O840 Pr817 2.438 . S
O840 C826 1.267 . S
O841 Pr816 2.437 . S
O841 C826 1.278 . S
O842 Pr817 2.562 . S
O842 C827 1.254 . S
O843 Pr817 2.490 . S
O843 C827 1.225 . S
O844 Pr816 2.436 . S
O844 Pr817 2.695 . S
O844 C834 1.270 . S
O845 Pr817 2.512 . S
O845 C834 1.248 . S
O846 Pr816 2.438 . S
O846 C835 1.267 . S
O847 Pr817 2.437 . S
O847 C835 1.278 . S
H848 C820 0.929 . S
H849 C821 0.929 . S
H850 C823 0.931 . S
H851 C824 0.930 . S
H852 C829 0.929 . S
H853 C830 0.929 . S
H854 C832 0.931 . S
H855 C833 0.930 . S
Pr856 C858 2.880 . S
Pr856 O876 2.562 . S
Pr856 O877 2.490 . S
Pr856 O878 2.695 . S
Pr856 O879 2.512 . S
Pr856 O881 2.437 . S
Pr856 O884 2.436 . S
Pr856 O886 2.438 . S
Pr857 C867 2.880 . S
Pr857 O878 2.436 . S
Pr857 O880 2.438 . S
Pr857 O882 2.562 . S
Pr857 O883 2.490 . S
Pr857 O884 2.695 . S
Pr857 O885 2.512 . S
Pr857 O887 2.437 . S
C858 Pr856 2.880 . S
C858 C859 1.491 . S
C858 O876 1.254 . S
C858 O877 1.225 . S
C859 C858 1.491 . S
C859 C860 1.392 . S
C859 C864 1.356 . S
C860 C859 1.392 . S
C860 C861 1.368 . S
C860 H888 0.929 . S
C861 C860 1.368 . S
C861 C862 1.386 . S
C861 H889 0.929 . S
C862 C861 1.386 . S
C862 C863 1.373 . S
C863 C862 1.373 . S
C863 C864 1.409 . S
C863 H890 0.931 . S
C864 C859 1.356 . S
C864 C863 1.409 . S
C864 H891 0.930 . S
C865 O878 1.270 . S
C865 O879 1.248 . S
C866 O880 1.267 . S
C866 O881 1.278 . S
C867 Pr857 2.880 . S
C867 C868 1.491 . S
C867 O882 1.254 . S
C867 O883 1.225 . S
C868 C867 1.491 . S
C868 C869 1.392 . S
C868 C873 1.356 . S
C869 C868 1.392 . S
C869 C870 1.368 . S
C869 H892 0.929 . S
C870 C869 1.368 . S
C870 C871 1.386 . S
C870 H893 0.929 . S
C871 C870 1.386 . S
C871 C872 1.373 . S
C872 C871 1.373 . S
C872 C873 1.409 . S
C872 H894 0.931 . S
C873 C868 1.356 . S
C873 C872 1.409 . S
C873 H895 0.930 . S
C874 O884 1.270 . S
C874 O885 1.248 . S
C875 O886 1.267 . S
C875 O887 1.278 . S
O876 Pr856 2.562 . S
O876 C858 1.254 . S
O877 Pr856 2.490 . S
O877 C858 1.225 . S
O878 Pr856 2.695 . S
O878 Pr857 2.436 . S
O878 C865 1.270 . S
O879 Pr856 2.512 . S
O879 C865 1.248 . S
O880 Pr857 2.438 . S
O880 C866 1.267 . S
O881 Pr856 2.437 . S
O881 C866 1.278 . S
O882 Pr857 2.562 . S
O882 C867 1.254 . S
O883 Pr857 2.490 . S
O883 C867 1.225 . S
O884 Pr856 2.436 . S
O884 Pr857 2.695 . S
O884 C874 1.270 . S
O885 Pr857 2.512 . S
O885 C874 1.248 . S
O886 Pr856 2.438 . S
O886 C875 1.267 . S
O887 Pr857 2.437 . S
O887 C875 1.278 . S
H888 C860 0.929 . S
H889 C861 0.929 . S
H890 C863 0.931 . S
H891 C864 0.930 . S
H892 C869 0.929 . S
H893 C870 0.929 . S
H894 C872 0.931 . S
H895 C873 0.930 . S
Pr896 C898 2.880 . S
Pr896 O916 2.562 . S
Pr896 O917 2.490 . S
Pr896 O918 2.695 . S
Pr896 O919 2.512 . S
Pr896 O921 2.437 . S
Pr896 O924 2.436 . S
Pr896 O926 2.438 . S
Pr897 C907 2.880 . S
Pr897 O918 2.436 . S
Pr897 O920 2.438 . S
Pr897 O922 2.562 . S
Pr897 O923 2.490 . S
Pr897 O924 2.695 . S
Pr897 O925 2.512 . S
Pr897 O927 2.437 . S
C898 Pr896 2.880 . S
C898 C899 1.491 . S
C898 O916 1.254 . S
C898 O917 1.225 . S
C899 C898 1.491 . S
C899 C900 1.392 . S
C899 C904 1.356 . S
C900 C899 1.392 . S
C900 C901 1.368 . S
C900 H928 0.929 . S
C901 C900 1.368 . S
C901 C902 1.386 . S
C901 H929 0.929 . S
C902 C901 1.386 . S
C902 C903 1.373 . S
C903 C902 1.373 . S
C903 C904 1.409 . S
C903 H930 0.931 . S
C904 C899 1.356 . S
C904 C903 1.409 . S
C904 H931 0.930 . S
C905 O918 1.270 . S
C905 O919 1.248 . S
C906 O920 1.267 . S
C906 O921 1.278 . S
C907 Pr897 2.880 . S
C907 C908 1.491 . S
C907 O922 1.254 . S
C907 O923 1.225 . S
C908 C907 1.491 . S
C908 C909 1.392 . S
C908 C913 1.356 . S
C909 C908 1.392 . S
C909 C910 1.368 . S
C909 H932 0.929 . S
C910 C909 1.368 . S
C910 C911 1.386 . S
C910 H933 0.929 . S
C911 C910 1.386 . S
C911 C912 1.373 . S
C912 C911 1.373 . S
C912 C913 1.409 . S
C912 H934 0.931 . S
C913 C908 1.356 . S
C913 C912 1.409 . S
C913 H935 0.930 . S
C914 O924 1.270 . S
C914 O925 1.248 . S
C915 O926 1.267 . S
C915 O927 1.278 . S
O916 Pr896 2.562 . S
O916 C898 1.254 . S
O917 Pr896 2.490 . S
O917 C898 1.225 . S
O918 Pr896 2.695 . S
O918 Pr897 2.436 . S
O918 C905 1.270 . S
O919 Pr896 2.512 . S
O919 C905 1.248 . S
O920 Pr897 2.438 . S
O920 C906 1.267 . S
O921 Pr896 2.437 . S
O921 C906 1.278 . S
O922 Pr897 2.562 . S
O922 C907 1.254 . S
O923 Pr897 2.490 . S
O923 C907 1.225 . S
O924 Pr896 2.436 . S
O924 Pr897 2.695 . S
O924 C914 1.270 . S
O925 Pr897 2.512 . S
O925 C914 1.248 . S
O926 Pr896 2.438 . S
O926 C915 1.267 . S
O927 Pr897 2.437 . S
O927 C915 1.278 . S
H928 C900 0.929 . S
H929 C901 0.929 . S
H930 C903 0.931 . S
H931 C904 0.930 . S
H932 C909 0.929 . S
H933 C910 0.929 . S
H934 C912 0.931 . S
H935 C913 0.930 . S
Pr936 C938 2.880 . S
Pr936 O956 2.562 . S
Pr936 O957 2.490 . S
Pr936 O958 2.695 . S
Pr936 O959 2.512 1_554 S
Pr936 O961 2.437 . S
Pr936 O964 2.436 . S
Pr936 O966 2.438 . S
Pr937 C947 2.880 1_455 S
Pr937 O958 2.436 . S
Pr937 O960 2.438 . S
Pr937 O962 2.562 1_455 S
Pr937 O963 2.490 1_455 S
Pr937 O964 2.695 . S
Pr937 O965 2.512 . S
Pr937 O967 2.437 . S
C938 Pr936 2.880 . S
C938 C939 1.491 . S
C938 O956 1.254 . S
C938 O957 1.225 . S
C939 C938 1.491 . S
C939 C940 1.392 1_554 S
C939 C944 1.356 . S
C940 C939 1.392 1_556 S
C940 C941 1.368 . S
C940 H968 0.929 . S
C941 C940 1.368 . S
C941 C942 1.386 1_556 S
C941 H969 0.929 . S
C942 C941 1.386 1_554 S
C942 C943 1.373 . S
C943 C942 1.373 . S
C943 C944 1.409 . S
C943 H970 0.931 . S
C944 C939 1.356 . S
C944 C943 1.409 . S
C944 H971 0.930 . S
C945 O958 1.270 1_556 S
C945 O959 1.248 . S
C946 O960 1.267 . S
C946 O961 1.278 . S
C947 Pr937 2.880 1_655 S
C947 C948 1.491 . S
C947 O962 1.254 . S
C947 O963 1.225 . S
C948 C947 1.491 . S
C948 C949 1.392 . S
C948 C953 1.356 . S
C949 C948 1.392 . S
C949 C950 1.368 . S
C949 H972 0.929 . S
C950 C949 1.368 . S
C950 C951 1.386 . S
C950 H973 0.929 . S
C951 C950 1.386 . S
C951 C952 1.373 . S
C952 C951 1.373 . S
C952 C953 1.409 . S
C952 H974 0.931 . S
C953 C948 1.356 . S
C953 C952 1.409 . S
C953 H975 0.930 . S
C954 O964 1.270 . S
C954 O965 1.248 . S
C955 O966 1.267 . S
C955 O967 1.278 . S
O956 Pr936 2.562 . S
O956 C938 1.254 . S
O957 Pr936 2.490 . S
O957 C938 1.225 . S
O958 Pr936 2.695 . S
O958 Pr937 2.436 . S
O958 C945 1.270 1_554 S
O959 Pr936 2.512 1_556 S
O959 C945 1.248 . S
O960 Pr937 2.438 . S
O960 C946 1.267 . S
O961 Pr936 2.437 . S
O961 C946 1.278 . S
O962 Pr937 2.562 1_655 S
O962 C947 1.254 . S
O963 Pr937 2.490 1_655 S
O963 C947 1.225 . S
O964 Pr936 2.436 . S
O964 Pr937 2.695 . S
O964 C954 1.270 . S
O965 Pr937 2.512 . S
O965 C954 1.248 . S
O966 Pr936 2.438 . S
O966 C955 1.267 . S
O967 Pr937 2.437 . S
O967 C955 1.278 . S
H968 C940 0.929 . S
H969 C941 0.929 . S
H970 C943 0.931 . S
H971 C944 0.930 . S
H972 C949 0.929 . S
H973 C950 0.929 . S
H974 C952 0.931 . S
H975 C953 0.930 . S
C976 C977 1.349 . S
C976 C978 1.327 . S
C976 H1001 0.950 . S
C977 C976 1.349 . S
C977 C993 1.349 . S
C978 C976 1.327 . S
C978 C997 1.429 . S
C978 H1002 0.950 . S
C979 C996 1.574 . S
C979 C998 1.368 . S
C979 H1003 0.949 . S
H980 C984 0.949 . S
C981 C982 1.349 . S
C981 C983 1.327 . S
C981 H1004 0.950 . S
C982 C981 1.349 . S
C982 C994 1.349 . S
C983 C981 1.327 . S
C983 C999 1.429 1_554 S
C983 H1005 0.950 . S
C984 H980 0.949 . S
C984 C992 1.574 . S
C984 C1000 1.368 . S
H985 C993 0.950 1_655 S
H986 C991 0.975 . S
H987 C992 0.949 . S
H988 C994 0.936 1_556 S
H989 C995 0.950 . S
H990 C996 0.949 1_554 S
C991 H986 0.975 . S
C991 C993 1.327 . S
C991 C997 1.429 . S
C992 C984 1.574 . S
C992 H987 0.949 . S
C992 C998 1.368 . S
C993 C977 1.349 . S
C993 H985 0.950 1_455 S
C993 C991 1.327 . S
C994 C982 1.349 . S
C994 H988 0.936 1_554 S
C994 C995 1.327 1_554 S
C995 H989 0.950 . S
C995 C994 1.327 1_556 S
C995 C999 1.429 . S
C996 C979 1.574 . S
C996 H990 0.949 1_556 S
C996 C1000 1.368 . S
C997 C978 1.429 . S
C997 C991 1.429 . S
C997 C998 1.523 . S
C998 C979 1.368 . S
C998 C992 1.368 . S
C998 C997 1.523 . S
C999 C983 1.429 1_556 S
C999 C995 1.429 . S
C999 C1000 1.523 . S
C1000 C984 1.368 . S
C1000 C996 1.368 . S
C1000 C999 1.523 . S
H1001 C976 0.950 . S
H1002 C978 0.950 . S
H1003 C979 0.949 . S
H1004 C981 0.950 . S
H1005 C983 0.950 . S
C1006 C1007 1.349 . S
C1006 C1008 1.327 . S
C1006 H1031 0.950 . S
C1007 C1006 1.349 . S
C1007 C1023 1.349 . S
C1008 C1006 1.327 . S
C1008 C1027 1.429 . S
C1008 H1032 0.950 . S
C1009 C1026 1.574 . S
C1009 C1028 1.368 . S
C1009 H1033 0.949 . S
H1010 C1014 0.949 . S
C1011 C1012 1.349 . S
C1011 C1013 1.327 . S
C1011 H1034 0.950 . S
C1012 C1011 1.349 . S
C1012 C1024 1.349 . S
C1013 C1011 1.327 . S
C1013 C1029 1.429 . S
C1013 H1035 0.950 . S
C1014 H1010 0.949 . S
C1014 C1022 1.574 . S
C1014 C1030 1.368 . S
H1015 C1023 0.950 . S
H1016 C1021 0.950 . S
H1017 C1022 0.949 . S
H1018 C1024 0.950 . S
H1019 C1025 0.950 . S
H1020 C1026 0.949 . S
C1021 H1016 0.950 . S
C1021 C1023 1.327 . S
C1021 C1027 1.429 . S
C1022 C1014 1.574 . S
C1022 H1017 0.949 . S
C1022 C1028 1.368 . S
C1023 C1007 1.349 . S
C1023 H1015 0.950 . S
C1023 C1021 1.327 . S
C1024 C1012 1.349 . S
C1024 H1018 0.950 . S
C1024 C1025 1.327 . S
C1025 H1019 0.950 . S
C1025 C1024 1.327 . S
C1025 C1029 1.429 . S
C1026 C1009 1.574 . S
C1026 H1020 0.949 . S
C1026 C1030 1.368 . S
C1027 C1008 1.429 . S
C1027 C1021 1.429 . S
C1027 C1028 1.523 . S
C1028 C1009 1.368 . S
C1028 C1022 1.368 . S
C1028 C1027 1.523 . S
C1029 C1013 1.429 . S
C1029 C1025 1.429 . S
C1029 C1030 1.523 . S
C1030 C1014 1.368 . S
C1030 C1026 1.368 . S
C1030 C1029 1.523 . S
H1031 C1006 0.950 . S
H1032 C1008 0.950 . S
H1033 C1009 0.949 . S
H1034 C1011 0.950 . S
H1035 C1013 0.950 . S
C1036 C1037 1.349 . S
C1036 C1038 1.327 . S
C1036 H1061 0.950 . S
C1037 C1036 1.349 . S
C1037 C1053 1.349 . S
C1038 C1036 1.327 . S
C1038 C1057 1.429 . S
C1038 H1062 0.950 . S
C1039 C1056 1.574 . S
C1039 C1058 1.368 . S
C1039 H1063 0.949 . S
H1040 C1044 0.949 . S
C1041 C1042 1.354 . S
C1041 C1043 1.281 1_545 S
C1041 H1064 0.993 . S
C1042 C1041 1.354 . S
C1042 C1054 1.349 1_545 S
C1043 C1041 1.281 1_565 S
C1043 C1059 1.429 . S
C1043 H1065 0.950 . S
C1044 H1040 0.949 . S
C1044 C1052 1.574 . S
C1044 C1060 1.368 . S
H1045 C1053 0.950 . S
H1046 C1051 0.950 . S
H1047 C1052 0.949 . S
H1048 C1054 0.950 . S
H1049 C1055 0.950 . S
H1050 C1056 0.949 . S
C1051 H1046 0.950 . S
C1051 C1053 1.327 . S
C1051 C1057 1.429 . S
C1052 C1044 1.574 . S
C1052 H1047 0.949 . S
C1052 C1058 1.368 . S
C1053 C1037 1.349 . S
C1053 H1045 0.950 . S
C1053 C1051 1.327 . S
C1054 C1042 1.349 1_565 S
C1054 H1048 0.950 . S
C1054 C1055 1.327 . S
C1055 H1049 0.950 . S
C1055 C1054 1.327 . S
C1055 C1059 1.429 . S
C1056 C1039 1.574 . S
C1056 H1050 0.949 . S
C1056 C1060 1.368 . S
C1057 C1038 1.429 . S
C1057 C1051 1.429 . S
C1057 C1058 1.523 . S
C1058 C1039 1.368 . S
C1058 C1052 1.368 . S
C1058 C1057 1.523 . S
C1059 C1043 1.429 . S
C1059 C1055 1.429 . S
C1059 C1060 1.523 . S
C1060 C1044 1.368 . S
C1060 C1056 1.368 . S
C1060 C1059 1.523 . S
H1061 C1036 0.950 . S
H1062 C1038 0.950 . S
H1063 C1039 0.949 . S
H1064 C1041 0.993 . S
H1065 C1043 0.950 . S
C1066 C1067 1.349 . S
C1066 C1068 1.327 . S
C1066 H1091 0.950 . S
C1067 C1066 1.349 . S
C1067 C1083 1.349 . S
C1068 C1066 1.327 . S
C1068 C1087 1.429 . S
C1068 H1092 0.950 . S
C1069 C1086 1.574 . S
C1069 C1088 1.368 . S
C1069 H1093 0.949 . S
H1070 C1074 0.949 . S
C1071 C1072 1.349 . S
C1071 C1073 1.327 . S
C1071 H1094 0.950 . S
C1072 C1071 1.349 . S
C1072 C1084 1.349 . S
C1073 C1071 1.327 . S
C1073 C1089 1.429 . S
C1073 H1095 0.950 . S
C1074 H1070 0.949 . S
C1074 C1082 1.574 . S
C1074 C1090 1.368 . S
H1075 C1083 0.950 . S
H1076 C1081 0.950 . S
H1077 C1082 0.949 . S
H1078 C1084 0.950 . S
H1079 C1085 0.950 . S
H1080 C1086 0.949 . S
C1081 H1076 0.950 . S
C1081 C1083 1.327 . S
C1081 C1087 1.429 . S
C1082 C1074 1.574 . S
C1082 H1077 0.949 . S
C1082 C1088 1.368 . S
C1083 C1067 1.349 . S
C1083 H1075 0.950 . S
C1083 C1081 1.327 . S
C1084 C1072 1.349 . S
C1084 H1078 0.950 . S
C1084 C1085 1.327 . S
C1085 H1079 0.950 . S
C1085 C1084 1.327 . S
C1085 C1089 1.429 . S
C1086 C1069 1.574 . S
C1086 H1080 0.949 . S
C1086 C1090 1.368 . S
C1087 C1068 1.429 . S
C1087 C1081 1.429 . S
C1087 C1088 1.523 . S
C1088 C1069 1.368 . S
C1088 C1082 1.368 . S
C1088 C1087 1.523 . S
C1089 C1073 1.429 . S
C1089 C1085 1.429 . S
C1089 C1090 1.523 . S
C1090 C1074 1.368 . S
C1090 C1086 1.368 . S
C1090 C1089 1.523 . S
H1091 C1066 0.950 . S
H1092 C1068 0.950 . S
H1093 C1069 0.949 . S
H1094 C1071 0.950 . S
H1095 C1073 0.950 . S
C1096 C1097 1.349 . S
C1096 C1098 1.327 . S
C1096 H1121 0.950 . S
C1097 C1096 1.349 . S
C1097 C1113 1.349 . S
C1098 C1096 1.327 . S
C1098 C1117 1.429 . S
C1098 H1122 0.950 . S
C1099 C1116 1.574 . S
C1099 C1118 1.368 . S
C1099 H1123 0.949 . S
H1100 C1104 0.949 . S
C1101 C1102 1.349 . S
C1101 C1103 1.327 1_545 S
C1101 H1124 0.950 . S
C1102 C1101 1.349 . S
C1102 C1114 1.349 1_545 S
C1103 C1101 1.327 1_565 S
C1103 C1119 1.429 . S
C1103 H1125 0.950 . S
C1104 H1100 0.949 . S
C1104 C1112 1.574 . S
C1104 C1120 1.368 . S
H1105 C1113 0.950 . S
H1106 C1111 0.950 . S
H1107 C1112 0.949 . S
H1108 C1114 0.950 . S
H1109 C1115 0.950 . S
H1110 C1116 0.949 . S
C1111 H1106 0.950 . S
C1111 C1113 1.327 . S
C1111 C1117 1.429 . S
C1112 C1104 1.574 . S
C1112 H1107 0.949 . S
C1112 C1118 1.368 . S
C1113 C1097 1.349 . S
C1113 H1105 0.950 . S
C1113 C1111 1.327 . S
C1114 C1102 1.349 1_565 S
C1114 H1108 0.950 . S
C1114 C1115 1.327 . S
C1115 H1109 0.950 . S
C1115 C1114 1.327 . S
C1115 C1119 1.429 . S
C1116 C1099 1.574 . S
C1116 H1110 0.949 . S
C1116 C1120 1.368 . S
C1117 C1098 1.429 . S
C1117 C1111 1.429 . S
C1117 C1118 1.523 . S
C1118 C1099 1.368 . S
C1118 C1112 1.368 . S
C1118 C1117 1.523 . S
C1119 C1103 1.429 . S
C1119 C1115 1.429 . S
C1119 C1120 1.523 . S
C1120 C1104 1.368 . S
C1120 C1116 1.368 . S
C1120 C1119 1.523 . S
H1121 C1096 0.950 . S
H1122 C1098 0.950 . S
H1123 C1099 0.949 . S
H1124 C1101 0.950 . S
H1125 C1103 0.950 . S
C1126 C1127 1.349 . S
C1126 C1128 1.327 . S
C1126 H1151 0.950 . S
C1127 C1126 1.349 . S
C1127 C1143 1.349 . S
C1128 C1126 1.327 . S
C1128 C1147 1.429 . S
C1128 H1152 0.950 . S
C1129 C1146 1.574 . S
C1129 C1148 1.368 . S
C1129 H1153 0.949 . S
H1130 C1134 0.949 . S
C1131 C1132 1.349 . S
C1131 C1133 1.327 . S
C1131 H1154 0.950 . S
C1132 C1131 1.349 . S
C1132 C1144 1.349 . S
C1133 C1131 1.327 . S
C1133 C1149 1.429 . S
C1133 H1155 0.950 . S
C1134 H1130 0.949 . S
C1134 C1142 1.574 . S
C1134 C1150 1.368 . S
H1135 C1143 0.950 . S
H1136 C1141 0.950 . S
H1137 C1142 0.949 . S
H1138 C1144 0.950 . S
H1139 C1145 0.950 . S
H1140 C1146 0.949 . S
C1141 H1136 0.950 . S
C1141 C1143 1.327 . S
C1141 C1147 1.429 . S
C1142 C1134 1.574 . S
C1142 H1137 0.949 . S
C1142 C1148 1.368 . S
C1143 C1127 1.349 . S
C1143 H1135 0.950 . S
C1143 C1141 1.327 . S
C1144 C1132 1.349 . S
C1144 H1138 0.950 . S
C1144 C1145 1.327 . S
C1145 H1139 0.950 . S
C1145 C1144 1.327 . S
C1145 C1149 1.429 . S
C1146 C1129 1.574 . S
C1146 H1140 0.949 . S
C1146 C1150 1.368 . S
C1147 C1128 1.429 . S
C1147 C1141 1.429 . S
C1147 C1148 1.523 . S
C1148 C1129 1.368 . S
C1148 C1142 1.368 . S
C1148 C1147 1.523 . S
C1149 C1133 1.429 . S
C1149 C1145 1.429 . S
C1149 C1150 1.523 . S
C1150 C1134 1.368 . S
C1150 C1146 1.368 . S
C1150 C1149 1.523 . S
H1151 C1126 0.950 . S
H1152 C1128 0.950 . S
H1153 C1129 0.949 . S
H1154 C1131 0.950 . S
H1155 C1133 0.950 . S
C1156 C1157 1.349 . S
C1156 C1158 1.327 . S
C1156 H1181 0.950 . S
C1157 C1156 1.349 . S
C1157 C1173 1.349 . S
C1158 C1156 1.327 . S
C1158 C1177 1.429 . S
C1158 H1182 0.950 . S
C1159 C1176 1.574 . S
C1159 C1178 1.368 . S
C1159 H1183 0.949 . S
H1160 C1164 0.949 . S
C1161 C1162 1.349 . S
C1161 C1163 1.327 . S
C1161 H1184 0.950 . S
C1162 C1161 1.349 . S
C1162 C1174 1.349 . S
C1163 C1161 1.327 . S
C1163 C1179 1.429 . S
C1163 H1185 0.950 . S
C1164 H1160 0.949 . S
C1164 C1172 1.574 . S
C1164 C1180 1.368 . S
H1165 C1173 0.950 . S
H1166 C1171 0.950 . S
H1167 C1172 0.949 . S
H1168 C1174 0.950 . S
H1169 C1175 0.950 . S
H1170 C1176 0.949 . S
C1171 H1166 0.950 . S
C1171 C1173 1.327 . S
C1171 C1177 1.429 . S
C1172 C1164 1.574 . S
C1172 H1167 0.949 . S
C1172 C1178 1.368 . S
C1173 C1157 1.349 . S
C1173 H1165 0.950 . S
C1173 C1171 1.327 . S
C1174 C1162 1.349 . S
C1174 H1168 0.950 . S
C1174 C1175 1.327 . S
C1175 H1169 0.950 . S
C1175 C1174 1.327 . S
C1175 C1179 1.429 . S
C1176 C1159 1.574 . S
C1176 H1170 0.949 . S
C1176 C1180 1.368 . S
C1177 C1158 1.429 . S
C1177 C1171 1.429 . S
C1177 C1178 1.523 . S
C1178 C1159 1.368 . S
C1178 C1172 1.368 . S
C1178 C1177 1.523 . S
C1179 C1163 1.429 . S
C1179 C1175 1.429 . S
C1179 C1180 1.523 . S
C1180 C1164 1.368 . S
C1180 C1176 1.368 . S
C1180 C1179 1.523 . S
H1181 C1156 0.950 . S
H1182 C1158 0.950 . S
H1183 C1159 0.949 . S
H1184 C1161 0.950 . S
H1185 C1163 0.950 . S
C1186 C1187 1.349 . S
C1186 C1188 1.327 . S
C1186 H1211 0.950 . S
C1187 C1186 1.349 . S
C1187 C1203 1.349 . S
C1188 C1186 1.327 . S
C1188 C1207 1.429 . S
C1188 H1212 0.950 . S
C1189 C1206 1.574 . S
C1189 C1208 1.368 . S
C1189 H1213 0.949 . S
H1190 C1194 0.949 . S
C1191 C1192 1.349 . S
C1191 C1193 1.327 . S
C1191 H1214 0.950 . S
C1192 C1191 1.349 . S
C1192 C1204 1.349 . S
C1193 C1191 1.327 . S
C1193 C1209 1.429 . S
C1193 H1215 0.950 . S
C1194 H1190 0.949 . S
C1194 C1202 1.574 . S
C1194 C1210 1.368 . S
H1195 C1203 0.950 . S
H1196 C1201 0.950 . S
H1197 C1202 0.949 . S
H1198 C1204 0.950 . S
H1199 C1205 0.950 . S
H1200 C1206 0.949 . S
C1201 H1196 0.950 . S
C1201 C1203 1.327 . S
C1201 C1207 1.429 . S
C1202 C1194 1.574 . S
C1202 H1197 0.949 . S
C1202 C1208 1.368 . S
C1203 C1187 1.349 . S
C1203 H1195 0.950 . S
C1203 C1201 1.327 . S
C1204 C1192 1.349 . S
C1204 H1198 0.950 . S
C1204 C1205 1.327 . S
C1205 H1199 0.950 . S
C1205 C1204 1.327 . S
C1205 C1209 1.429 . S
C1206 C1189 1.574 . S
C1206 H1200 0.949 . S
C1206 C1210 1.368 . S
C1207 C1188 1.429 . S
C1207 C1201 1.429 . S
C1207 C1208 1.523 . S
C1208 C1189 1.368 . S
C1208 C1202 1.368 . S
C1208 C1207 1.523 . S
C1209 C1193 1.429 . S
C1209 C1205 1.429 . S
C1209 C1210 1.523 . S
C1210 C1194 1.368 . S
C1210 C1206 1.368 . S
C1210 C1209 1.523 . S
H1211 C1186 0.950 . S
H1212 C1188 0.950 . S
H1213 C1189 0.949 . S
H1214 C1191 0.950 . S
H1215 C1193 0.950 . S
C1216 C1217 1.349 . S
C1216 C1218 1.327 . S
C1216 H1241 0.950 . S
C1217 C1216 1.349 . S
C1217 C1233 1.349 . S
C1218 C1216 1.327 . S
C1218 C1237 1.429 . S
C1218 H1242 0.950 . S
C1219 C1236 1.574 . S
C1219 C1238 1.368 . S
C1219 H1243 0.949 . S
H1220 C1224 0.949 . S
C1221 C1222 1.349 . S
C1221 C1223 1.327 . S
C1221 H1244 0.950 . S
C1222 C1221 1.349 . S
C1222 C1234 1.349 . S
C1223 C1221 1.327 . S
C1223 C1239 1.429 1_455 S
C1223 H1245 0.950 . S
C1224 H1220 0.949 . S
C1224 C1232 1.574 . S
C1224 C1240 1.368 . S
H1225 C1233 0.950 . S
H1226 C1231 0.950 . S
H1227 C1232 0.949 . S
H1228 C1234 0.950 . S
H1229 C1235 0.950 . S
H1230 C1236 0.949 1_455 S
C1231 H1226 0.950 . S
C1231 C1233 1.327 . S
C1231 C1237 1.429 . S
C1232 C1224 1.574 . S
C1232 H1227 0.949 . S
C1232 C1238 1.368 . S
C1233 C1217 1.349 . S
C1233 H1225 0.950 . S
C1233 C1231 1.327 . S
C1234 C1222 1.349 . S
C1234 H1228 0.950 . S
C1234 C1235 1.327 1_455 S
C1235 H1229 0.950 . S
C1235 C1234 1.327 1_655 S
C1235 C1239 1.429 . S
C1236 C1219 1.574 . S
C1236 H1230 0.949 1_655 S
C1236 C1240 1.368 . S
C1237 C1218 1.429 . S
C1237 C1231 1.429 . S
C1237 C1238 1.523 . S
C1238 C1219 1.368 . S
C1238 C1232 1.368 . S
C1238 C1237 1.523 . S
C1239 C1223 1.429 1_655 S
C1239 C1235 1.429 . S
C1239 C1240 1.523 . S
C1240 C1224 1.368 . S
C1240 C1236 1.368 . S
C1240 C1239 1.523 . S
H1241 C1216 0.950 . S
H1242 C1218 0.950 . S
H1243 C1219 0.949 . S
H1244 C1221 0.950 . S
H1245 C1223 0.950 . S
C1246 C1247 1.349 . S
C1246 C1248 1.327 . S
C1246 H1271 0.950 . S
C1247 C1246 1.349 . S
C1247 C1263 1.349 . S
C1248 C1246 1.327 . S
C1248 C1267 1.429 . S
C1248 H1272 0.950 . S
C1249 C1266 1.574 . S
C1249 C1268 1.368 . S
C1249 H1273 0.949 . S
H1250 C1254 0.949 . S
C1251 C1252 1.349 . S
C1251 C1253 1.327 . S
C1251 H1274 0.950 . S
C1252 C1251 1.349 . S
C1252 C1264 1.349 . S
C1253 C1251 1.327 . S
C1253 C1269 1.429 . S
C1253 H1275 0.950 . S
C1254 H1250 0.949 . S
C1254 C1262 1.574 . S
C1254 C1270 1.368 . S
H1255 C1263 0.950 . S
H1256 C1261 0.950 . S
H1257 C1262 0.949 . S
H1258 C1264 0.950 . S
H1259 C1265 0.950 . S
H1260 C1266 0.949 . S
C1261 H1256 0.950 . S
C1261 C1263 1.327 . S
C1261 C1267 1.429 . S
C1262 C1254 1.574 . S
C1262 H1257 0.949 . S
C1262 C1268 1.368 . S
C1263 C1247 1.349 . S
C1263 H1255 0.950 . S
C1263 C1261 1.327 . S
C1264 C1252 1.349 . S
C1264 H1258 0.950 . S
C1264 C1265 1.327 . S
C1265 H1259 0.950 . S
C1265 C1264 1.327 . S
C1265 C1269 1.429 . S
C1266 C1249 1.574 . S
C1266 H1260 0.949 . S
C1266 C1270 1.368 . S
C1267 C1248 1.429 . S
C1267 C1261 1.429 . S
C1267 C1268 1.523 . S
C1268 C1249 1.368 . S
C1268 C1262 1.368 . S
C1268 C1267 1.523 . S
C1269 C1253 1.429 . S
C1269 C1265 1.429 . S
C1269 C1270 1.523 . S
C1270 C1254 1.368 . S
C1270 C1266 1.368 . S
C1270 C1269 1.523 . S
H1271 C1246 0.950 . S
H1272 C1248 0.950 . S
H1273 C1249 0.949 . S
H1274 C1251 0.950 . S
H1275 C1253 0.950 . S
C1276 C1277 1.349 1_545 S
C1276 C1278 1.327 . S
C1276 H1301 0.950 . S
C1277 C1276 1.349 1_565 S
C1277 C1293 1.349 . S
C1278 C1276 1.327 . S
C1278 C1297 1.429 . S
C1278 H1302 0.950 . S
C1279 C1296 1.574 . S
C1279 C1298 1.368 . S
C1279 H1303 0.949 . S
H1280 C1284 0.949 . S
C1281 C1282 1.349 . S
C1281 C1283 1.327 . S
C1281 H1304 0.950 . S
C1282 C1281 1.349 . S
C1282 C1294 1.349 . S
C1283 C1281 1.327 . S
C1283 C1299 1.429 . S
C1283 H1305 0.950 . S
C1284 H1280 0.949 . S
C1284 C1292 1.574 . S
C1284 C1300 1.368 . S
H1285 C1293 0.950 . S
H1286 C1291 0.950 . S
H1287 C1292 0.949 . S
H1288 C1294 0.950 . S
H1289 C1295 0.950 . S
H1290 C1296 0.949 . S
C1291 H1286 0.950 . S
C1291 C1293 1.327 . S
C1291 C1297 1.429 1_565 S
C1292 C1284 1.574 . S
C1292 H1287 0.949 . S
C1292 C1298 1.368 . S
C1293 C1277 1.349 . S
C1293 H1285 0.950 . S
C1293 C1291 1.327 . S
C1294 C1282 1.349 . S
C1294 H1288 0.950 . S
C1294 C1295 1.327 . S
C1295 H1289 0.950 . S
C1295 C1294 1.327 . S
C1295 C1299 1.429 . S
C1296 C1279 1.574 . S
C1296 H1290 0.949 . S
C1296 C1300 1.368 . S
C1297 C1278 1.429 . S
C1297 C1291 1.429 1_545 S
C1297 C1298 1.523 . S
C1298 C1279 1.368 . S
C1298 C1292 1.368 . S
C1298 C1297 1.523 . S
C1299 C1283 1.429 . S
C1299 C1295 1.429 . S
C1299 C1300 1.523 . S
C1300 C1284 1.368 . S
C1300 C1296 1.368 . S
C1300 C1299 1.523 . S
H1301 C1276 0.950 . S
H1302 C1278 0.950 . S
H1303 C1279 0.949 . S
H1304 C1281 0.950 . S
H1305 C1283 0.950 . S
C1306 C1307 1.349 . S
C1306 C1308 1.327 . S
C1306 H1331 0.950 . S
C1307 C1306 1.349 . S
C1307 C1323 1.349 . S
C1308 C1306 1.327 . S
C1308 C1327 1.429 . S
C1308 H1332 0.950 . S
C1309 C1326 1.574 . S
C1309 C1328 1.368 . S
C1309 H1333 0.949 . S
H1310 C1314 0.949 . S
C1311 C1312 1.349 . S
C1311 C1313 1.327 . S
C1311 H1334 0.950 . S
C1312 C1311 1.349 . S
C1312 C1324 1.349 . S
C1313 C1311 1.327 . S
C1313 C1329 1.429 . S
C1313 H1335 0.950 . S
C1314 H1310 0.949 . S
C1314 C1322 1.574 . S
C1314 C1330 1.368 . S
H1315 C1323 0.950 . S
H1316 C1321 0.950 . S
H1317 C1322 0.949 . S
H1318 C1324 0.950 . S
H1319 C1325 0.950 . S
H1320 C1326 0.949 . S
C1321 H1316 0.950 . S
C1321 C1323 1.327 . S
C1321 C1327 1.429 . S
C1322 C1314 1.574 . S
C1322 H1317 0.949 . S
C1322 C1328 1.368 . S
C1323 C1307 1.349 . S
C1323 H1315 0.950 . S
C1323 C1321 1.327 . S
C1324 C1312 1.349 . S
C1324 H1318 0.950 . S
C1324 C1325 1.327 . S
C1325 H1319 0.950 . S
C1325 C1324 1.327 . S
C1325 C1329 1.429 . S
C1326 C1309 1.574 . S
C1326 H1320 0.949 . S
C1326 C1330 1.368 . S
C1327 C1308 1.429 . S
C1327 C1321 1.429 . S
C1327 C1328 1.523 . S
C1328 C1309 1.368 . S
C1328 C1322 1.368 . S
C1328 C1327 1.523 . S
C1329 C1313 1.429 . S
C1329 C1325 1.429 . S
C1329 C1330 1.523 . S
C1330 C1314 1.368 . S
C1330 C1326 1.368 . S
C1330 C1329 1.523 . S
H1331 C1306 0.950 . S
H1332 C1308 0.950 . S
H1333 C1309 0.949 . S
H1334 C1311 0.950 . S
H1335 C1313 0.950 . S
C1336 C1337 1.349 . S
C1336 C1338 1.327 . S
C1336 H1361 0.950 . S
C1337 C1336 1.349 . S
C1337 C1353 1.349 . S
C1338 C1336 1.327 . S
C1338 C1357 1.429 . S
C1338 H1362 0.950 . S
C1339 C1356 1.574 . S
C1339 C1358 1.368 . S
C1339 H1363 0.949 . S
H1340 C1344 0.949 . S
C1341 C1342 1.349 1_655 S
C1341 C1343 1.327 . S
C1341 H1364 0.950 . S
C1342 C1341 1.349 1_455 S
C1342 C1354 1.349 . S
C1343 C1341 1.327 . S
C1343 C1359 1.429 . S
C1343 H1365 0.950 . S
C1344 H1340 0.949 . S
C1344 C1352 1.574 . S
C1344 C1360 1.368 . S
H1345 C1353 0.950 . S
H1346 C1351 0.950 . S
H1347 C1352 0.949 . S
H1348 C1354 0.950 . S
H1349 C1355 0.950 . S
H1350 C1356 0.949 . S
C1351 H1346 0.950 . S
C1351 C1353 1.327 . S
C1351 C1357 1.429 . S
C1352 C1344 1.574 . S
C1352 H1347 0.949 . S
C1352 C1358 1.368 . S
C1353 C1337 1.349 . S
C1353 H1345 0.950 . S
C1353 C1351 1.327 . S
C1354 C1342 1.349 . S
C1354 H1348 0.950 . S
C1354 C1355 1.327 1_455 S
C1355 H1349 0.950 . S
C1355 C1354 1.327 1_655 S
C1355 C1359 1.429 . S
C1356 C1339 1.574 . S
C1356 H1350 0.949 . S
C1356 C1360 1.368 . S
C1357 C1338 1.429 . S
C1357 C1351 1.429 . S
C1357 C1358 1.523 . S
C1358 C1339 1.368 . S
C1358 C1352 1.368 . S
C1358 C1357 1.523 . S
C1359 C1343 1.429 . S
C1359 C1355 1.429 . S
C1359 C1360 1.523 . S
C1360 C1344 1.368 . S
C1360 C1356 1.368 . S
C1360 C1359 1.523 . S
H1361 C1336 0.950 . S
H1362 C1338 0.950 . S
H1363 C1339 0.949 . S
H1364 C1341 0.950 . S
H1365 C1343 0.950 . S
C1366 C1367 1.349 . S
C1366 C1368 1.327 . S
C1366 H1391 0.950 . S
C1367 C1366 1.349 . S
C1367 C1383 1.349 . S
C1368 C1366 1.327 . S
C1368 C1387 1.429 . S
C1368 H1392 0.950 . S
C1369 C1386 1.574 . S
C1369 C1388 1.368 . S
C1369 H1393 0.949 . S
H1370 C1374 0.949 . S
C1371 C1372 1.349 . S
C1371 C1373 1.327 . S
C1371 H1394 0.950 . S
C1372 C1371 1.349 . S
C1372 C1384 1.349 . S
C1373 C1371 1.327 . S
C1373 C1389 1.429 . S
C1373 H1395 0.950 . S
C1374 H1370 0.949 . S
C1374 C1382 1.574 . S
C1374 C1390 1.368 . S
H1375 C1383 0.950 . S
H1376 C1381 0.950 . S
H1377 C1382 0.949 . S
H1378 C1384 0.950 . S
H1379 C1385 0.950 . S
H1380 C1386 0.949 . S
C1381 H1376 0.950 . S
C1381 C1383 1.327 . S
C1381 C1387 1.429 . S
C1382 C1374 1.574 . S
C1382 H1377 0.949 . S
C1382 C1388 1.368 . S
C1383 C1367 1.349 . S
C1383 H1375 0.950 . S
C1383 C1381 1.327 . S
C1384 C1372 1.349 . S
C1384 H1378 0.950 . S
C1384 C1385 1.327 . S
C1385 H1379 0.950 . S
C1385 C1384 1.327 . S
C1385 C1389 1.429 . S
C1386 C1369 1.574 . S
C1386 H1380 0.949 . S
C1386 C1390 1.368 . S
C1387 C1368 1.429 . S
C1387 C1381 1.429 . S
C1387 C1388 1.523 . S
C1388 C1369 1.368 . S
C1388 C1382 1.368 . S
C1388 C1387 1.523 . S
C1389 C1373 1.429 . S
C1389 C1385 1.429 . S
C1389 C1390 1.523 . S
C1390 C1374 1.368 . S
C1390 C1386 1.368 . S
C1390 C1389 1.523 . S
H1391 C1366 0.950 . S
H1392 C1368 0.950 . S
H1393 C1369 0.949 . S
H1394 C1371 0.950 . S
H1395 C1373 0.950 . S
C1396 C1397 1.370 . S
C1396 C1398 1.327 . S
C1396 H1421 0.950 . S
C1397 C1396 1.370 . S
C1397 C1413 1.348 . S
C1398 C1396 1.327 . S
C1398 C1417 1.429 . S
C1398 H1422 0.950 . S
C1399 C1416 1.574 . S
C1399 C1418 1.368 . S
C1399 H1423 0.949 . S
H1400 C1404 0.949 . S
C1401 C1402 1.349 . S
C1401 C1403 1.327 . S
C1401 H1424 0.950 . S
C1402 C1401 1.349 . S
C1402 C1414 1.349 . S
C1403 C1401 1.327 . S
C1403 C1419 1.429 . S
C1403 H1425 0.950 . S
C1404 H1400 0.949 . S
C1404 C1412 1.574 . S
C1404 C1420 1.368 . S
H1405 C1413 0.932 1_565 S
H1406 C1411 0.950 . S
H1407 C1412 0.949 . S
H1408 C1414 0.950 . S
H1409 C1415 0.950 . S
H1410 C1416 0.949 . S
C1411 H1406 0.950 . S
C1411 C1413 1.340 . S
C1411 C1417 1.429 . S
C1412 C1404 1.574 . S
C1412 H1407 0.949 . S
C1412 C1418 1.368 . S
C1413 C1397 1.348 . S
C1413 H1405 0.932 1_545 S
C1413 C1411 1.340 . S
C1414 C1402 1.349 . S
C1414 H1408 0.950 . S
C1414 C1415 1.327 . S
C1415 H1409 0.950 . S
C1415 C1414 1.327 . S
C1415 C1419 1.429 . S
C1416 C1399 1.574 . S
C1416 H1410 0.949 . S
C1416 C1420 1.368 . S
C1417 C1398 1.429 . S
C1417 C1411 1.429 . S
C1417 C1418 1.523 . S
C1418 C1399 1.368 . S
C1418 C1412 1.368 . S
C1418 C1417 1.523 . S
C1419 C1403 1.429 . S
C1419 C1415 1.429 . S
C1419 C1420 1.523 . S
C1420 C1404 1.368 . S
C1420 C1416 1.368 . S
C1420 C1419 1.523 . S
H1421 C1396 0.950 . S
H1422 C1398 0.950 . S
H1423 C1399 0.949 . S
H1424 C1401 0.950 . S
H1425 C1403 0.950 . S
C1426 C1427 1.349 . S
C1426 C1428 1.327 . S
C1426 H1451 0.950 . S
C1427 C1426 1.349 . S
C1427 C1443 1.349 . S
C1428 C1426 1.327 . S
C1428 C1447 1.429 . S
C1428 H1452 0.950 . S
C1429 C1446 1.574 . S
C1429 C1448 1.368 . S
C1429 H1453 0.949 . S
H1430 C1434 0.949 . S
C1431 C1432 1.349 . S
C1431 C1433 1.327 . S
C1431 H1454 0.950 . S
C1432 C1431 1.349 . S
C1432 C1444 1.349 . S
C1433 C1431 1.327 . S
C1433 C1449 1.429 . S
C1433 H1455 0.950 . S
C1434 H1430 0.949 . S
C1434 C1442 1.574 . S
C1434 C1450 1.368 . S
H1435 C1443 0.950 . S
H1436 C1441 0.950 . S
H1437 C1442 0.949 . S
H1438 C1444 0.950 . S
H1439 C1445 0.950 . S
H1440 C1446 0.949 . S
C1441 H1436 0.950 . S
C1441 C1443 1.327 . S
C1441 C1447 1.429 . S
C1442 C1434 1.574 . S
C1442 H1437 0.949 . S
C1442 C1448 1.368 . S
C1443 C1427 1.349 . S
C1443 H1435 0.950 . S
C1443 C1441 1.327 . S
C1444 C1432 1.349 . S
C1444 H1438 0.950 . S
C1444 C1445 1.327 . S
C1445 H1439 0.950 . S
C1445 C1444 1.327 . S
C1445 C1449 1.429 . S
C1446 C1429 1.574 . S
C1446 H1440 0.949 . S
C1446 C1450 1.368 . S
C1447 C1428 1.429 . S
C1447 C1441 1.429 . S
C1447 C1448 1.523 . S
C1448 C1429 1.368 . S
C1448 C1442 1.368 . S
C1448 C1447 1.523 . S
C1449 C1433 1.429 . S
C1449 C1445 1.429 . S
C1449 C1450 1.523 . S
C1450 C1434 1.368 . S
C1450 C1446 1.368 . S
C1450 C1449 1.523 . S
H1451 C1426 0.950 . S
H1452 C1428 0.950 . S
H1453 C1429 0.949 . S
H1454 C1431 0.950 . S
H1455 C1433 0.950 . S
C1456 C1457 1.349 . S
C1456 C1458 1.327 . S
C1456 H1481 0.950 . S
C1457 C1456 1.349 . S
C1457 C1473 1.349 . S
C1458 C1456 1.327 . S
C1458 C1477 1.429 . S
C1458 H1482 0.950 . S
C1459 C1476 1.574 . S
C1459 C1478 1.368 . S
C1459 H1483 0.949 . S
H1460 C1464 0.949 . S
C1461 C1462 1.349 . S
C1461 C1463 1.327 1_545 S
C1461 H1484 0.950 1_545 S
C1462 C1461 1.349 . S
C1462 C1474 1.349 . S
C1463 C1461 1.327 1_565 S
C1463 C1479 1.413 1_565 S
C1463 H1485 0.950 . S
C1464 H1460 0.949 . S
C1464 C1472 1.574 1_545 S
C1464 C1480 1.368 1_545 S
H1465 C1473 0.950 . S
H1466 C1471 0.950 . S
H1467 C1472 0.949 . S
H1468 C1474 0.950 . S
H1469 C1475 0.950 . S
H1470 C1476 0.949 . S
C1471 H1466 0.950 . S
C1471 C1473 1.327 . S
C1471 C1477 1.429 . S
C1472 C1464 1.574 1_565 S
C1472 H1467 0.949 . S
C1472 C1478 1.368 . S
C1473 C1457 1.349 . S
C1473 H1465 0.950 . S
C1473 C1471 1.327 . S
C1474 C1462 1.349 . S
C1474 H1468 0.950 . S
C1474 C1475 1.327 . S
C1475 H1469 0.950 . S
C1475 C1474 1.327 . S
C1475 C1479 1.484 . S
C1476 C1459 1.574 . S
C1476 H1470 0.949 . S
C1476 C1480 1.368 . S
C1477 C1458 1.429 . S
C1477 C1471 1.429 . S
C1477 C1478 1.523 . S
C1478 C1459 1.368 . S
C1478 C1472 1.368 . S
C1478 C1477 1.523 . S
C1479 C1463 1.413 1_545 S
C1479 C1475 1.484 . S
C1479 C1480 1.488 1_545 S
C1480 C1464 1.368 1_565 S
C1480 C1476 1.368 . S
C1480 C1479 1.488 1_565 S
H1481 C1456 0.950 . S
H1482 C1458 0.950 . S
H1483 C1459 0.949 . S
H1484 C1461 0.950 1_565 S
H1485 C1463 0.950 . S
C1486 C1487 1.349 . S
C1486 C1488 1.327 . S
C1486 H1511 0.950 . S
C1487 C1486 1.349 . S
C1487 C1503 1.349 . S
C1488 C1486 1.327 . S
C1488 C1507 1.429 . S
C1488 H1512 0.950 . S
C1489 C1506 1.574 . S
C1489 C1508 1.368 . S
C1489 H1513 0.968 . S
H1490 C1494 0.949 . S
C1491 C1492 1.349 . S
C1491 C1493 1.327 . S
C1491 H1514 0.950 . S
C1492 C1491 1.349 . S
C1492 C1504 1.349 . S
C1493 C1491 1.327 . S
C1493 C1509 1.429 . S
C1493 H1515 0.950 . S
C1494 H1490 0.949 . S
C1494 C1502 1.574 . S
C1494 C1510 1.368 . S
H1495 C1503 0.944 1_556 S
H1496 C1501 0.953 1_556 S
H1497 C1502 0.949 . S
H1498 C1504 0.950 . S
H1499 C1505 0.950 . S
H1500 C1506 0.949 . S
C1501 H1496 0.953 1_554 S
C1501 C1503 1.327 . S
C1501 C1507 1.429 . S
C1502 C1494 1.574 . S
C1502 H1497 0.949 . S
C1502 C1508 1.368 . S
C1503 C1487 1.349 . S
C1503 H1495 0.944 1_554 S
C1503 C1501 1.327 . S
C1504 C1492 1.349 . S
C1504 H1498 0.950 . S
C1504 C1505 1.327 . S
C1505 H1499 0.950 . S
C1505 C1504 1.327 . S
C1505 C1509 1.429 . S
C1506 C1489 1.574 . S
C1506 H1500 0.949 . S
C1506 C1510 1.368 . S
C1507 C1488 1.429 . S
C1507 C1501 1.429 . S
C1507 C1508 1.523 . S
C1508 C1489 1.368 . S
C1508 C1502 1.368 . S
C1508 C1507 1.523 . S
C1509 C1493 1.429 . S
C1509 C1505 1.429 . S
C1509 C1510 1.523 . S
C1510 C1494 1.368 . S
C1510 C1506 1.368 . S
C1510 C1509 1.523 . S
H1511 C1486 0.950 . S
H1512 C1488 0.950 . S
H1513 C1489 0.968 . S
H1514 C1491 0.950 . S
H1515 C1493 0.950 . S
C1516 C1517 1.349 . S
C1516 C1518 1.327 . S
C1516 H1541 0.950 . S
C1517 C1516 1.349 . S
C1517 C1533 1.349 . S
C1518 C1516 1.327 . S
C1518 C1537 1.429 . S
C1518 H1542 0.950 . S
C1519 C1536 1.574 . S
C1519 C1538 1.368 . S
C1519 H1543 0.949 . S
H1520 C1524 0.949 . S
C1521 C1522 1.349 . S
C1521 C1523 1.327 . S
C1521 H1544 0.950 . S
C1522 C1521 1.349 . S
C1522 C1534 1.349 . S
C1523 C1521 1.327 . S
C1523 C1539 1.429 . S
C1523 H1545 0.950 . S
C1524 H1520 0.949 . S
C1524 C1532 1.574 . S
C1524 C1540 1.368 . S
H1525 C1533 0.950 . S
H1526 C1531 0.950 . S
H1527 C1532 0.949 . S
H1528 C1534 0.950 . S
H1529 C1535 0.950 . S
H1530 C1536 0.949 . S
C1531 H1526 0.950 . S
C1531 C1533 1.327 . S
C1531 C1537 1.429 . S
C1532 C1524 1.574 . S
C1532 H1527 0.949 . S
C1532 C1538 1.368 . S
C1533 C1517 1.349 . S
C1533 H1525 0.950 . S
C1533 C1531 1.327 . S
C1534 C1522 1.349 . S
C1534 H1528 0.950 . S
C1534 C1535 1.327 . S
C1535 H1529 0.950 . S
C1535 C1534 1.327 . S
C1535 C1539 1.429 . S
C1536 C1519 1.574 . S
C1536 H1530 0.949 . S
C1536 C1540 1.368 . S
C1537 C1518 1.429 . S
C1537 C1531 1.429 . S
C1537 C1538 1.523 . S
C1538 C1519 1.368 . S
C1538 C1532 1.368 . S
C1538 C1537 1.523 . S
C1539 C1523 1.429 . S
C1539 C1535 1.429 . S
C1539 C1540 1.523 . S
C1540 C1524 1.368 . S
C1540 C1536 1.368 . S
C1540 C1539 1.523 . S
H1541 C1516 0.950 . S
H1542 C1518 0.950 . S
H1543 C1519 0.949 . S
H1544 C1521 0.950 . S
H1545 C1523 0.950 . S
C1546 C1547 1.349 . S
C1546 C1548 1.327 . S
C1546 H1571 0.950 . S
C1547 C1546 1.349 . S
C1547 C1563 1.349 . S
C1548 C1546 1.327 . S
C1548 C1567 1.429 . S
C1548 H1572 0.950 . S
C1549 C1566 1.574 . S
C1549 C1568 1.368 . S
C1549 H1573 0.949 . S
H1550 C1554 0.949 . S
C1551 C1552 1.349 . S
C1551 C1553 1.327 . S
C1551 H1574 0.950 . S
C1552 C1551 1.349 . S
C1552 C1564 1.349 . S
C1553 C1551 1.327 . S
C1553 C1569 1.429 . S
C1553 H1575 0.950 . S
C1554 H1550 0.949 . S
C1554 C1562 1.574 . S
C1554 C1570 1.368 . S
H1555 C1563 0.950 . S
H1556 C1561 0.950 . S
H1557 C1562 0.949 . S
H1558 C1564 0.950 . S
H1559 C1565 0.950 . S
H1560 C1566 0.949 . S
C1561 H1556 0.950 . S
C1561 C1563 1.327 . S
C1561 C1567 1.429 . S
C1562 C1554 1.574 . S
C1562 H1557 0.949 . S
C1562 C1568 1.368 . S
C1563 C1547 1.349 . S
C1563 H1555 0.950 . S
C1563 C1561 1.327 . S
C1564 C1552 1.349 . S
C1564 H1558 0.950 . S
C1564 C1565 1.327 . S
C1565 H1559 0.950 . S
C1565 C1564 1.327 . S
C1565 C1569 1.429 . S
C1566 C1549 1.574 . S
C1566 H1560 0.949 . S
C1566 C1570 1.368 . S
C1567 C1548 1.429 . S
C1567 C1561 1.429 . S
C1567 C1568 1.523 . S
C1568 C1549 1.368 . S
C1568 C1562 1.368 . S
C1568 C1567 1.523 . S
C1569 C1553 1.429 . S
C1569 C1565 1.429 . S
C1569 C1570 1.523 . S
C1570 C1554 1.368 . S
C1570 C1566 1.368 . S
C1570 C1569 1.523 . S
H1571 C1546 0.950 . S
H1572 C1548 0.950 . S
H1573 C1549 0.949 . S
H1574 C1551 0.950 . S
H1575 C1553 0.950 . S
C1576 C1577 1.349 . S
C1576 C1578 1.327 . S
C1576 H1601 0.950 . S
C1577 C1576 1.349 . S
C1577 C1593 1.349 . S
C1578 C1576 1.327 . S
C1578 C1597 1.429 . S
C1578 H1602 0.950 . S
C1579 C1596 1.574 . S
C1579 C1598 1.368 . S
C1579 H1603 0.949 . S
H1580 C1584 0.949 . S
C1581 C1582 1.349 . S
C1581 C1583 1.327 . S
C1581 H1604 0.950 . S
C1582 C1581 1.349 . S
C1582 C1594 1.349 . S
C1583 C1581 1.327 . S
C1583 C1599 1.429 . S
C1583 H1605 0.950 . S
C1584 H1580 0.949 . S
C1584 C1592 1.574 . S
C1584 C1600 1.368 . S
H1585 C1593 0.950 . S
H1586 C1591 0.950 . S
H1587 C1592 0.949 . S
H1588 C1594 0.950 . S
H1589 C1595 0.950 . S
H1590 C1596 0.949 . S
C1591 H1586 0.950 . S
C1591 C1593 1.327 . S
C1591 C1597 1.429 . S
C1592 C1584 1.574 . S
C1592 H1587 0.949 . S
C1592 C1598 1.368 . S
C1593 C1577 1.349 . S
C1593 H1585 0.950 . S
C1593 C1591 1.327 . S
C1594 C1582 1.349 . S
C1594 H1588 0.950 . S
C1594 C1595 1.327 . S
C1595 H1589 0.950 . S
C1595 C1594 1.327 . S
C1595 C1599 1.429 . S
C1596 C1579 1.574 . S
C1596 H1590 0.949 . S
C1596 C1600 1.368 . S
C1597 C1578 1.429 . S
C1597 C1591 1.429 . S
C1597 C1598 1.523 . S
C1598 C1579 1.368 . S
C1598 C1592 1.368 . S
C1598 C1597 1.523 . S
C1599 C1583 1.429 . S
C1599 C1595 1.429 . S
C1599 C1600 1.523 . S
C1600 C1584 1.368 . S
C1600 C1596 1.368 . S
C1600 C1599 1.523 . S
H1601 C1576 0.950 . S
H1602 C1578 0.950 . S
H1603 C1579 0.949 . S
H1604 C1581 0.950 . S
H1605 C1583 0.950 . S
C1606 C1607 1.349 . S
C1606 C1608 1.327 . S
C1606 H1631 0.950 . S
C1607 C1606 1.349 . S
C1607 C1623 1.349 . S
C1608 C1606 1.327 . S
C1608 C1627 1.429 . S
C1608 H1632 0.950 . S
C1609 C1626 1.574 . S
C1609 C1628 1.368 . S
C1609 H1633 0.949 . S
H1610 C1614 0.949 . S
C1611 C1612 1.349 . S
C1611 C1613 1.327 . S
C1611 H1634 0.950 . S
C1612 C1611 1.349 . S
C1612 C1624 1.349 . S
C1613 C1611 1.327 . S
C1613 C1629 1.429 . S
C1613 H1635 0.950 . S
C1614 H1610 0.949 . S
C1614 C1622 1.574 . S
C1614 C1630 1.368 . S
H1615 C1623 0.950 . S
H1616 C1621 0.950 . S
H1617 C1622 0.949 . S
H1618 C1624 0.950 . S
H1619 C1625 0.950 . S
H1620 C1626 0.949 . S
C1621 H1616 0.950 . S
C1621 C1623 1.327 . S
C1621 C1627 1.429 . S
C1622 C1614 1.574 . S
C1622 H1617 0.949 . S
C1622 C1628 1.368 . S
C1623 C1607 1.349 . S
C1623 H1615 0.950 . S
C1623 C1621 1.327 . S
C1624 C1612 1.349 . S
C1624 H1618 0.950 . S
C1624 C1625 1.327 . S
C1625 H1619 0.950 . S
C1625 C1624 1.327 . S
C1625 C1629 1.429 . S
C1626 C1609 1.574 . S
C1626 H1620 0.949 . S
C1626 C1630 1.368 . S
C1627 C1608 1.429 . S
C1627 C1621 1.429 . S
C1627 C1628 1.523 . S
C1628 C1609 1.368 . S
C1628 C1622 1.368 . S
C1628 C1627 1.523 . S
C1629 C1613 1.429 . S
C1629 C1625 1.429 . S
C1629 C1630 1.523 . S
C1630 C1614 1.368 . S
C1630 C1626 1.368 . S
C1630 C1629 1.523 . S
H1631 C1606 0.950 . S
H1632 C1608 0.950 . S
H1633 C1609 0.949 . S
H1634 C1611 0.950 . S
H1635 C1613 0.950 . S
C1636 C1637 1.349 . S
C1636 C1638 1.327 . S
C1636 H1661 0.950 . S
C1637 C1636 1.349 . S
C1637 C1653 1.349 . S
C1638 C1636 1.327 . S
C1638 C1657 1.429 . S
C1638 H1662 0.950 . S
C1639 C1656 1.574 . S
C1639 C1658 1.368 . S
C1639 H1663 0.949 . S
H1640 C1644 0.949 . S
C1641 C1642 1.349 . S
C1641 C1643 1.327 . S
C1641 H1664 0.950 . S
C1642 C1641 1.349 . S
C1642 C1654 1.349 . S
C1643 C1641 1.327 . S
C1643 C1659 1.429 . S
C1643 H1665 0.950 . S
C1644 H1640 0.949 . S
C1644 C1652 1.574 . S
C1644 C1660 1.368 . S
H1645 C1653 0.950 . S
H1646 C1651 0.950 . S
H1647 C1652 0.949 . S
H1648 C1654 0.950 . S
H1649 C1655 0.950 . S
H1650 C1656 0.949 . S
C1651 H1646 0.950 . S
C1651 C1653 1.327 . S
C1651 C1657 1.429 . S
C1652 C1644 1.574 . S
C1652 H1647 0.949 . S
C1652 C1658 1.368 . S
C1653 C1637 1.349 . S
C1653 H1645 0.950 . S
C1653 C1651 1.327 . S
C1654 C1642 1.349 . S
C1654 H1648 0.950 . S
C1654 C1655 1.327 . S
C1655 H1649 0.950 . S
C1655 C1654 1.327 . S
C1655 C1659 1.429 . S
C1656 C1639 1.574 . S
C1656 H1650 0.949 . S
C1656 C1660 1.368 . S
C1657 C1638 1.429 . S
C1657 C1651 1.429 . S
C1657 C1658 1.523 . S
C1658 C1639 1.368 . S
C1658 C1652 1.368 . S
C1658 C1657 1.523 . S
C1659 C1643 1.429 . S
C1659 C1655 1.429 . S
C1659 C1660 1.523 . S
C1660 C1644 1.368 . S
C1660 C1656 1.368 . S
C1660 C1659 1.523 . S
H1661 C1636 0.950 . S
H1662 C1638 0.950 . S
H1663 C1639 0.949 . S
H1664 C1641 0.950 . S
H1665 C1643 0.950 . S
C1666 C1667 1.349 . S
C1666 C1668 1.327 . S
C1666 H1691 0.950 . S
C1667 C1666 1.349 . S
C1667 C1683 1.349 . S
C1668 C1666 1.327 . S
C1668 C1687 1.429 . S
C1668 H1692 0.950 . S
C1669 C1686 1.574 . S
C1669 C1688 1.368 . S
C1669 H1693 0.949 . S
H1670 C1674 0.949 . S
C1671 C1672 1.349 . S
C1671 C1673 1.327 . S
C1671 H1694 0.950 . S
C1672 C1671 1.349 . S
C1672 C1684 1.349 . S
C1673 C1671 1.327 . S
C1673 C1689 1.429 . S
C1673 H1695 0.950 . S
C1674 H1670 0.949 . S
C1674 C1682 1.574 . S
C1674 C1690 1.368 . S
H1675 C1683 0.950 . S
H1676 C1681 0.950 . S
H1677 C1682 0.949 . S
H1678 C1684 0.950 . S
H1679 C1685 0.950 . S
H1680 C1686 0.949 . S
C1681 H1676 0.950 . S
C1681 C1683 1.327 . S
C1681 C1687 1.429 . S
C1682 C1674 1.574 . S
C1682 H1677 0.949 . S
C1682 C1688 1.368 . S
C1683 C1667 1.349 . S
C1683 H1675 0.950 . S
C1683 C1681 1.327 . S
C1684 C1672 1.349 . S
C1684 H1678 0.950 . S
C1684 C1685 1.327 . S
C1685 H1679 0.950 . S
C1685 C1684 1.327 . S
C1685 C1689 1.429 . S
C1686 C1669 1.574 . S
C1686 H1680 0.949 . S
C1686 C1690 1.368 . S
C1687 C1668 1.429 . S
C1687 C1681 1.429 . S
C1687 C1688 1.523 . S
C1688 C1669 1.368 . S
C1688 C1682 1.368 . S
C1688 C1687 1.523 . S
C1689 C1673 1.429 . S
C1689 C1685 1.429 . S
C1689 C1690 1.523 . S
C1690 C1674 1.368 . S
C1690 C1686 1.368 . S
C1690 C1689 1.523 . S
H1691 C1666 0.950 . S
H1692 C1668 0.950 . S
H1693 C1669 0.949 . S
H1694 C1671 0.950 . S
H1695 C1673 0.950 . S
C1696 C1697 1.349 . S
C1696 C1698 1.327 . S
C1696 H1721 0.950 . S
C1697 C1696 1.349 . S
C1697 C1713 1.349 . S
C1698 C1696 1.327 . S
C1698 C1717 1.429 . S
C1698 H1722 0.950 . S
C1699 C1716 1.574 . S
C1699 C1718 1.368 . S
C1699 H1723 0.949 . S
H1700 C1704 0.949 . S
C1701 C1702 1.348 1_545 S
C1701 C1703 1.330 1_545 S
C1701 H1724 0.947 . S
C1702 C1701 1.348 1_565 S
C1702 C1714 1.349 . S
C1703 C1701 1.330 1_565 S
C1703 C1719 1.429 . S
C1703 H1725 0.950 . S
C1704 H1700 0.949 . S
C1704 C1712 1.574 . S
C1704 C1720 1.368 . S
H1705 C1713 0.950 . S
H1706 C1711 0.950 . S
H1707 C1712 0.949 . S
H1708 C1714 0.950 . S
H1709 C1715 0.950 . S
H1710 C1716 0.949 . S
C1711 H1706 0.950 . S
C1711 C1713 1.327 . S
C1711 C1717 1.429 . S
C1712 C1704 1.574 . S
C1712 H1707 0.949 . S
C1712 C1718 1.368 . S
C1713 C1697 1.349 . S
C1713 H1705 0.950 . S
C1713 C1711 1.327 . S
C1714 C1702 1.349 . S
C1714 H1708 0.950 . S
C1714 C1715 1.327 . S
C1715 H1709 0.950 . S
C1715 C1714 1.327 . S
C1715 C1719 1.429 . S
C1716 C1699 1.574 . S
C1716 H1710 0.949 . S
C1716 C1720 1.368 . S
C1717 C1698 1.429 . S
C1717 C1711 1.429 . S
C1717 C1718 1.523 . S
C1718 C1699 1.368 . S
C1718 C1712 1.368 . S
C1718 C1717 1.523 . S
C1719 C1703 1.429 . S
C1719 C1715 1.429 . S
C1719 C1720 1.523 . S
C1720 C1704 1.368 . S
C1720 C1716 1.368 . S
C1720 C1719 1.523 . S
H1721 C1696 0.950 . S
H1722 C1698 0.950 . S
H1723 C1699 0.949 . S
H1724 C1701 0.947 . S
H1725 C1703 0.950 . S
C1726 C1727 1.349 . S
C1726 C1728 1.327 . S
C1726 H1751 0.950 . S
C1727 C1726 1.349 . S
C1727 C1743 1.349 . S
C1728 C1726 1.327 . S
C1728 C1747 1.429 . S
C1728 H1752 0.950 . S
C1729 C1746 1.574 . S
C1729 C1748 1.368 . S
C1729 H1753 0.949 . S
H1730 C1734 0.949 . S
C1731 C1732 1.349 . S
C1731 C1733 1.327 . S
C1731 H1754 0.950 . S
C1732 C1731 1.349 . S
C1732 C1744 1.349 . S
C1733 C1731 1.327 . S
C1733 C1749 1.429 . S
C1733 H1755 0.950 . S
C1734 H1730 0.949 . S
C1734 C1742 1.574 . S
C1734 C1750 1.368 . S
H1735 C1743 0.950 . S
H1736 C1741 0.950 . S
H1737 C1742 0.949 . S
H1738 C1744 0.950 . S
H1739 C1745 0.950 . S
H1740 C1746 0.949 . S
C1741 H1736 0.950 . S
C1741 C1743 1.327 . S
C1741 C1747 1.429 . S
C1742 C1734 1.574 . S
C1742 H1737 0.949 . S
C1742 C1748 1.368 . S
C1743 C1727 1.349 . S
C1743 H1735 0.950 . S
C1743 C1741 1.327 . S
C1744 C1732 1.349 . S
C1744 H1738 0.950 . S
C1744 C1745 1.327 . S
C1745 H1739 0.950 . S
C1745 C1744 1.327 . S
C1745 C1749 1.429 . S
C1746 C1729 1.574 . S
C1746 H1740 0.949 . S
C1746 C1750 1.368 . S
C1747 C1728 1.429 . S
C1747 C1741 1.429 . S
C1747 C1748 1.523 . S
C1748 C1729 1.368 . S
C1748 C1742 1.368 . S
C1748 C1747 1.523 . S
C1749 C1733 1.429 . S
C1749 C1745 1.429 . S
C1749 C1750 1.523 . S
C1750 C1734 1.368 . S
C1750 C1746 1.368 . S
C1750 C1749 1.523 . S
H1751 C1726 0.950 . S
H1752 C1728 0.950 . S
H1753 C1729 0.949 . S
H1754 C1731 0.950 . S
H1755 C1733 0.950 . S
C1756 C1757 1.349 . S
C1756 C1758 1.327 . S
C1756 H1781 0.950 . S
C1757 C1756 1.349 . S
C1757 C1773 1.349 . S
C1758 C1756 1.327 . S
C1758 C1777 1.429 . S
C1758 H1782 0.950 . S
C1759 C1776 1.574 . S
C1759 C1778 1.368 . S
C1759 H1783 0.949 . S
H1760 C1764 0.949 . S
C1761 C1762 1.349 . S
C1761 C1763 1.327 . S
C1761 H1784 0.950 . S
C1762 C1761 1.349 . S
C1762 C1774 1.349 . S
C1763 C1761 1.327 . S
C1763 C1779 1.429 . S
C1763 H1785 0.950 . S
C1764 H1760 0.949 . S
C1764 C1772 1.574 . S
C1764 C1780 1.368 . S
H1765 C1773 0.950 . S
H1766 C1771 0.950 . S
H1767 C1772 0.949 . S
H1768 C1774 0.950 . S
H1769 C1775 0.950 . S
H1770 C1776 0.949 . S
C1771 H1766 0.950 . S
C1771 C1773 1.327 . S
C1771 C1777 1.429 . S
C1772 C1764 1.574 . S
C1772 H1767 0.949 . S
C1772 C1778 1.368 . S
C1773 C1757 1.349 . S
C1773 H1765 0.950 . S
C1773 C1771 1.327 . S
C1774 C1762 1.349 . S
C1774 H1768 0.950 . S
C1774 C1775 1.327 . S
C1775 H1769 0.950 . S
C1775 C1774 1.327 . S
C1775 C1779 1.429 . S
C1776 C1759 1.574 . S
C1776 H1770 0.949 . S
C1776 C1780 1.368 . S
C1777 C1758 1.429 . S
C1777 C1771 1.429 . S
C1777 C1778 1.523 . S
C1778 C1759 1.368 . S
C1778 C1772 1.368 . S
C1778 C1777 1.523 . S
C1779 C1763 1.429 . S
C1779 C1775 1.429 . S
C1779 C1780 1.523 . S
C1780 C1764 1.368 . S
C1780 C1776 1.368 . S
C1780 C1779 1.523 . S
H1781 C1756 0.950 . S
H1782 C1758 0.950 . S
H1783 C1759 0.949 . S
H1784 C1761 0.950 . S
H1785 C1763 0.950 . S
C1786 C1787 1.349 . S
C1786 C1788 1.327 . S
C1786 H1811 0.950 . S
C1787 C1786 1.349 . S
C1787 C1803 1.349 . S
C1788 C1786 1.327 . S
C1788 C1807 1.429 . S
C1788 H1812 0.950 . S
C1789 C1806 1.574 . S
C1789 C1808 1.368 . S
C1789 H1813 0.949 . S
H1790 C1794 0.949 . S
C1791 C1792 1.349 . S
C1791 C1793 1.327 . S
C1791 H1814 0.950 . S
C1792 C1791 1.349 . S
C1792 C1804 1.349 . S
C1793 C1791 1.327 . S
C1793 C1809 1.429 . S
C1793 H1815 0.950 . S
C1794 H1790 0.949 . S
C1794 C1802 1.574 . S
C1794 C1810 1.368 . S
H1795 C1803 0.950 . S
H1796 C1801 0.950 . S
H1797 C1802 0.949 . S
H1798 C1804 0.950 . S
H1799 C1805 0.950 . S
H1800 C1806 0.949 . S
C1801 H1796 0.950 . S
C1801 C1803 1.327 . S
C1801 C1807 1.429 . S
C1802 C1794 1.574 . S
C1802 H1797 0.949 . S
C1802 C1808 1.368 . S
C1803 C1787 1.349 . S
C1803 H1795 0.950 . S
C1803 C1801 1.327 . S
C1804 C1792 1.349 . S
C1804 H1798 0.950 . S
C1804 C1805 1.327 . S
C1805 H1799 0.950 . S
C1805 C1804 1.327 . S
C1805 C1809 1.429 . S
C1806 C1789 1.574 . S
C1806 H1800 0.949 . S
C1806 C1810 1.368 . S
C1807 C1788 1.429 . S
C1807 C1801 1.429 . S
C1807 C1808 1.523 . S
C1808 C1789 1.368 . S
C1808 C1802 1.368 . S
C1808 C1807 1.523 . S
C1809 C1793 1.429 . S
C1809 C1805 1.429 . S
C1809 C1810 1.523 . S
C1810 C1794 1.368 . S
C1810 C1806 1.368 . S
C1810 C1809 1.523 . S
H1811 C1786 0.950 . S
H1812 C1788 0.950 . S
H1813 C1789 0.949 . S
H1814 C1791 0.950 . S
H1815 C1793 0.950 . S
C1816 C1817 1.349 1_655 S
C1816 C1818 1.327 . S
C1816 H1841 0.950 . S
C1817 C1816 1.349 1_455 S
C1817 C1833 1.349 . S
C1818 C1816 1.327 . S
C1818 C1837 1.429 1_655 S
C1818 H1842 0.950 . S
C1819 C1836 1.574 . S
C1819 C1838 1.368 . S
C1819 H1843 0.949 . S
H1820 C1824 0.932 1_655 S
C1821 C1822 1.349 . S
C1821 C1823 1.327 . S
C1821 H1844 0.950 . S
C1822 C1821 1.349 . S
C1822 C1834 1.349 . S
C1823 C1821 1.327 . S
C1823 C1839 1.429 . S
C1823 H1845 0.950 . S
C1824 H1820 0.932 1_455 S
C1824 C1832 1.568 1_455 S
C1824 C1840 1.393 . S
H1825 C1833 0.950 . S
H1826 C1831 0.950 . S
H1827 C1832 0.949 . S
H1828 C1834 0.922 1_655 S
H1829 C1835 0.950 1_655 S
H1830 C1836 0.949 . S
C1831 H1826 0.950 . S
C1831 C1833 1.327 . S
C1831 C1837 1.429 . S
C1832 C1824 1.568 1_655 S
C1832 H1827 0.949 . S
C1832 C1838 1.368 1_655 S
C1833 C1817 1.349 . S
C1833 H1825 0.950 . S
C1833 C1831 1.327 . S
C1834 C1822 1.349 . S
C1834 H1828 0.922 1_455 S
C1834 C1835 1.327 . S
C1835 H1829 0.950 1_455 S
C1835 C1834 1.327 . S
C1835 C1839 1.429 . S
C1836 C1819 1.574 . S
C1836 H1830 0.949 . S
C1836 C1840 1.368 . S
C1837 C1818 1.429 1_455 S
C1837 C1831 1.429 . S
C1837 C1838 1.523 . S
C1838 C1819 1.368 . S
C1838 C1832 1.368 1_455 S
C1838 C1837 1.523 . S
C1839 C1823 1.429 . S
C1839 C1835 1.429 . S
C1839 C1840 1.523 . S
C1840 C1824 1.393 . S
C1840 C1836 1.368 . S
C1840 C1839 1.523 . S
H1841 C1816 0.950 . S
H1842 C1818 0.950 . S
H1843 C1819 0.949 . S
H1844 C1821 0.950 . S
H1845 C1823 0.950 . S
C1846 C1847 1.349 . S
C1846 C1848 1.327 . S
C1846 H1871 0.950 . S
C1847 C1846 1.349 . S
C1847 C1863 1.349 . S
C1848 C1846 1.327 . S
C1848 C1867 1.429 . S
C1848 H1872 0.950 . S
C1849 C1866 1.574 . S
C1849 C1868 1.368 . S
C1849 H1873 0.949 . S
H1850 C1854 0.949 . S
C1851 C1852 1.349 . S
C1851 C1853 1.327 . S
C1851 H1874 0.950 . S
C1852 C1851 1.349 . S
C1852 C1864 1.349 . S
C1853 C1851 1.327 . S
C1853 C1869 1.429 . S
C1853 H1875 0.950 . S
C1854 H1850 0.949 . S
C1854 C1862 1.574 . S
C1854 C1870 1.368 . S
H1855 C1863 0.950 . S
H1856 C1861 0.950 . S
H1857 C1862 0.949 . S
H1858 C1864 0.950 . S
H1859 C1865 0.950 . S
H1860 C1866 0.949 . S
C1861 H1856 0.950 . S
C1861 C1863 1.327 . S
C1861 C1867 1.429 . S
C1862 C1854 1.574 . S
C1862 H1857 0.949 . S
C1862 C1868 1.368 . S
C1863 C1847 1.349 . S
C1863 H1855 0.950 . S
C1863 C1861 1.327 . S
C1864 C1852 1.349 . S
C1864 H1858 0.950 . S
C1864 C1865 1.327 . S
C1865 H1859 0.950 . S
C1865 C1864 1.327 . S
C1865 C1869 1.429 . S
C1866 C1849 1.574 . S
C1866 H1860 0.949 . S
C1866 C1870 1.368 . S
C1867 C1848 1.429 . S
C1867 C1861 1.429 . S
C1867 C1868 1.523 . S
C1868 C1849 1.368 . S
C1868 C1862 1.368 . S
C1868 C1867 1.523 . S
C1869 C1853 1.429 . S
C1869 C1865 1.429 . S
C1869 C1870 1.523 . S
C1870 C1854 1.368 . S
C1870 C1866 1.368 . S
C1870 C1869 1.523 . S
H1871 C1846 0.950 . S
H1872 C1848 0.950 . S
H1873 C1849 0.949 . S
H1874 C1851 0.950 . S
H1875 C1853 0.950 . S
C1876 C1877 1.349 . S
C1876 C1878 1.327 . S
C1876 H1901 0.950 . S
C1877 C1876 1.349 . S
C1877 C1893 1.349 . S
C1878 C1876 1.327 . S
C1878 C1897 1.429 . S
C1878 H1902 0.950 . S
C1879 C1896 1.574 . S
C1879 C1898 1.368 . S
C1879 H1903 0.949 . S
H1880 C1884 0.949 . S
C1881 C1882 1.377 . S
C1881 C1883 1.327 . S
C1881 H1904 0.950 . S
C1882 C1881 1.377 . S
C1882 C1894 1.354 1_554 S
C1883 C1881 1.327 . S
C1883 C1899 1.429 1_554 S
C1883 H1905 0.950 . S
C1884 H1880 0.949 . S
C1884 C1892 1.574 . S
C1884 C1900 1.368 . S
H1885 C1893 0.950 . S
H1886 C1891 0.950 . S
H1887 C1892 0.949 . S
H1888 C1894 0.939 1_545 S
H1889 C1895 0.950 . S
H1890 C1896 0.949 . S
C1891 H1886 0.950 . S
C1891 C1893 1.327 . S
C1891 C1897 1.429 . S
C1892 C1884 1.574 . S
C1892 H1887 0.949 . S
C1892 C1898 1.368 . S
C1893 C1877 1.349 . S
C1893 H1885 0.950 . S
C1893 C1891 1.327 . S
C1894 C1882 1.354 1_556 S
C1894 H1888 0.939 1_565 S
C1894 C1895 1.327 . S
C1895 H1889 0.950 . S
C1895 C1894 1.327 . S
C1895 C1899 1.429 . S
C1896 C1879 1.574 . S
C1896 H1890 0.949 . S
C1896 C1900 1.368 . S
C1897 C1878 1.429 . S
C1897 C1891 1.429 . S
C1897 C1898 1.523 . S
C1898 C1879 1.368 . S
C1898 C1892 1.368 . S
C1898 C1897 1.523 . S
C1899 C1883 1.429 1_556 S
C1899 C1895 1.429 . S
C1899 C1900 1.523 . S
C1900 C1884 1.368 . S
C1900 C1896 1.368 . S
C1900 C1899 1.523 . S
H1901 C1876 0.950 . S
H1902 C1878 0.950 . S
H1903 C1879 0.949 . S
H1904 C1881 0.950 . S
H1905 C1883 0.950 . S
C1906 C1907 1.349 . S
C1906 C1908 1.327 1_455 S
C1906 H1931 0.950 . S
C1907 C1906 1.349 . S
C1907 C1923 1.349 . S
C1908 C1906 1.327 1_655 S
C1908 C1927 1.429 . S
C1908 H1932 0.950 . S
C1909 C1926 1.574 . S
C1909 C1928 1.368 . S
C1909 H1933 0.949 . S
H1910 C1914 0.949 . S
C1911 C1912 1.349 . S
C1911 C1913 1.327 . S
C1911 H1934 0.950 . S
C1912 C1911 1.349 . S
C1912 C1924 1.349 . S
C1913 C1911 1.327 . S
C1913 C1929 1.429 . S
C1913 H1935 0.950 . S
C1914 H1910 0.949 . S
C1914 C1922 1.574 . S
C1914 C1930 1.368 . S
H1915 C1923 0.950 . S
H1916 C1921 0.950 . S
H1917 C1922 0.949 . S
H1918 C1924 0.950 . S
H1919 C1925 0.950 . S
H1920 C1926 0.949 . S
C1921 H1916 0.950 . S
C1921 C1923 1.327 . S
C1921 C1927 1.429 1_455 S
C1922 C1914 1.574 . S
C1922 H1917 0.949 . S
C1922 C1928 1.368 . S
C1923 C1907 1.349 . S
C1923 H1915 0.950 . S
C1923 C1921 1.327 . S
C1924 C1912 1.349 . S
C1924 H1918 0.950 . S
C1924 C1925 1.327 . S
C1925 H1919 0.950 . S
C1925 C1924 1.327 . S
C1925 C1929 1.429 . S
C1926 C1909 1.574 . S
C1926 H1920 0.949 . S
C1926 C1930 1.368 . S
C1927 C1908 1.429 . S
C1927 C1921 1.429 1_655 S
C1927 C1928 1.523 . S
C1928 C1909 1.368 . S
C1928 C1922 1.368 . S
C1928 C1927 1.523 . S
C1929 C1913 1.429 . S
C1929 C1925 1.429 . S
C1929 C1930 1.523 . S
C1930 C1914 1.368 . S
C1930 C1926 1.368 . S
C1930 C1929 1.523 . S
H1931 C1906 0.950 . S
H1932 C1908 0.950 . S
H1933 C1909 0.949 . S
H1934 C1911 0.950 . S
H1935 C1913 0.950 . S
C1936 C1937 1.349 . S
C1936 C1938 1.327 . S
C1936 H1961 0.950 . S
C1937 C1936 1.349 . S
C1937 C1953 1.349 . S
C1938 C1936 1.327 . S
C1938 C1957 1.429 . S
C1938 H1962 0.950 . S
C1939 C1956 1.574 . S
C1939 C1958 1.368 . S
C1939 H1963 0.949 . S
H1940 C1944 0.949 . S
C1941 C1942 1.349 . S
C1941 C1943 1.327 . S
C1941 H1964 0.950 . S
C1942 C1941 1.349 . S
C1942 C1954 1.349 . S
C1943 C1941 1.327 . S
C1943 C1959 1.429 . S
C1943 H1965 0.950 . S
C1944 H1940 0.949 . S
C1944 C1952 1.574 . S
C1944 C1960 1.368 . S
H1945 C1953 0.950 . S
H1946 C1951 0.950 . S
H1947 C1952 0.949 . S
H1948 C1954 0.950 . S
H1949 C1955 0.950 . S
H1950 C1956 0.949 . S
C1951 H1946 0.950 . S
C1951 C1953 1.327 . S
C1951 C1957 1.429 . S
C1952 C1944 1.574 . S
C1952 H1947 0.949 . S
C1952 C1958 1.368 . S
C1953 C1937 1.349 . S
C1953 H1945 0.950 . S
C1953 C1951 1.327 . S
C1954 C1942 1.349 . S
C1954 H1948 0.950 . S
C1954 C1955 1.327 . S
C1955 H1949 0.950 . S
C1955 C1954 1.327 . S
C1955 C1959 1.429 . S
C1956 C1939 1.574 . S
C1956 H1950 0.949 . S
C1956 C1960 1.368 . S
C1957 C1938 1.429 . S
C1957 C1951 1.429 . S
C1957 C1958 1.523 . S
C1958 C1939 1.368 . S
C1958 C1952 1.368 . S
C1958 C1957 1.523 . S
C1959 C1943 1.429 . S
C1959 C1955 1.429 . S
C1959 C1960 1.523 . S
C1960 C1944 1.368 . S
C1960 C1956 1.368 . S
C1960 C1959 1.523 . S
H1961 C1936 0.950 . S
H1962 C1938 0.950 . S
H1963 C1939 0.949 . S
H1964 C1941 0.950 . S
H1965 C1943 0.950 . S
C1966 C1967 1.349 . S
C1966 C1968 1.327 . S
C1966 H1991 0.950 . S
C1967 C1966 1.349 . S
C1967 C1983 1.349 . S
C1968 C1966 1.327 . S
C1968 C1987 1.429 . S
C1968 H1992 0.950 . S
C1969 C1986 1.574 . S
C1969 C1988 1.368 . S
C1969 H1993 0.949 . S
H1970 C1974 0.949 . S
C1971 C1972 1.349 . S
C1971 C1973 1.327 . S
C1971 H1994 0.950 . S
C1972 C1971 1.349 . S
C1972 C1984 1.349 . S
C1973 C1971 1.327 . S
C1973 C1989 1.429 . S
C1973 H1995 0.950 . S
C1974 H1970 0.949 . S
C1974 C1982 1.574 . S
C1974 C1990 1.368 . S
H1975 C1983 0.950 . S
H1976 C1981 0.950 . S
H1977 C1982 0.949 . S
H1978 C1984 0.950 . S
H1979 C1985 0.950 . S
H1980 C1986 0.949 . S
C1981 H1976 0.950 . S
C1981 C1983 1.327 . S
C1981 C1987 1.429 . S
C1982 C1974 1.574 . S
C1982 H1977 0.949 . S
C1982 C1988 1.368 . S
C1983 C1967 1.349 . S
C1983 H1975 0.950 . S
C1983 C1981 1.327 . S
C1984 C1972 1.349 . S
C1984 H1978 0.950 . S
C1984 C1985 1.327 . S
C1985 H1979 0.950 . S
C1985 C1984 1.327 . S
C1985 C1989 1.429 . S
C1986 C1969 1.574 . S
C1986 H1980 0.949 . S
C1986 C1990 1.368 . S
C1987 C1968 1.429 . S
C1987 C1981 1.429 . S
C1987 C1988 1.523 . S
C1988 C1969 1.368 . S
C1988 C1982 1.368 . S
C1988 C1987 1.523 . S
C1989 C1973 1.429 . S
C1989 C1985 1.429 . S
C1989 C1990 1.523 . S
C1990 C1974 1.368 . S
C1990 C1986 1.368 . S
C1990 C1989 1.523 . S
H1991 C1966 0.950 . S
H1992 C1968 0.950 . S
H1993 C1969 0.949 . S
H1994 C1971 0.950 . S
H1995 C1973 0.950 . S
C1996 C1997 1.349 . S
C1996 C1998 1.327 . S
C1996 H2021 0.950 . S
C1997 C1996 1.349 . S
C1997 C2013 1.349 . S
C1998 C1996 1.327 . S
C1998 C2017 1.429 . S
C1998 H2022 0.950 . S
C1999 C2016 1.574 . S
C1999 C2018 1.368 . S
C1999 H2023 0.949 . S
H2000 C2004 0.949 . S
C2001 C2002 1.349 . S
C2001 C2003 1.327 . S
C2001 H2024 0.950 . S
C2002 C2001 1.349 . S
C2002 C2014 1.349 . S
C2003 C2001 1.327 . S
C2003 C2019 1.429 . S
C2003 H2025 0.950 . S
C2004 H2000 0.949 . S
C2004 C2012 1.574 . S
C2004 C2020 1.368 . S
H2005 C2013 0.950 . S
H2006 C2011 0.950 . S
H2007 C2012 0.949 . S
H2008 C2014 0.950 . S
H2009 C2015 0.950 . S
H2010 C2016 0.949 . S
C2011 H2006 0.950 . S
C2011 C2013 1.327 . S
C2011 C2017 1.429 . S
C2012 C2004 1.574 . S
C2012 H2007 0.949 . S
C2012 C2018 1.368 . S
C2013 C1997 1.349 . S
C2013 H2005 0.950 . S
C2013 C2011 1.327 . S
C2014 C2002 1.349 . S
C2014 H2008 0.950 . S
C2014 C2015 1.327 . S
C2015 H2009 0.950 . S
C2015 C2014 1.327 . S
C2015 C2019 1.429 . S
C2016 C1999 1.574 . S
C2016 H2010 0.949 . S
C2016 C2020 1.368 . S
C2017 C1998 1.429 . S
C2017 C2011 1.429 . S
C2017 C2018 1.523 . S
C2018 C1999 1.368 . S
C2018 C2012 1.368 . S
C2018 C2017 1.523 . S
C2019 C2003 1.429 . S
C2019 C2015 1.429 . S
C2019 C2020 1.523 . S
C2020 C2004 1.368 . S
C2020 C2016 1.368 . S
C2020 C2019 1.523 . S
H2021 C1996 0.950 . S
H2022 C1998 0.950 . S
H2023 C1999 0.949 . S
H2024 C2001 0.950 . S
H2025 C2003 0.950 . S
C2026 C2027 1.349 . S
C2026 C2028 1.327 . S
C2026 H2051 0.950 . S
C2027 C2026 1.349 . S
C2027 C2043 1.349 . S
C2028 C2026 1.327 . S
C2028 C2047 1.429 . S
C2028 H2052 0.950 . S
C2029 C2046 1.574 . S
C2029 C2048 1.368 . S
C2029 H2053 0.949 . S
H2030 C2034 0.949 . S
C2031 C2032 1.349 . S
C2031 C2033 1.327 . S
C2031 H2054 0.950 . S
C2032 C2031 1.349 . S
C2032 C2044 1.349 . S
C2033 C2031 1.327 . S
C2033 C2049 1.429 . S
C2033 H2055 0.950 . S
C2034 H2030 0.949 . S
C2034 C2042 1.574 . S
C2034 C2050 1.368 . S
H2035 C2043 0.950 . S
H2036 C2041 0.950 . S
H2037 C2042 0.949 . S
H2038 C2044 0.950 . S
H2039 C2045 0.950 . S
H2040 C2046 0.949 . S
C2041 H2036 0.950 . S
C2041 C2043 1.327 . S
C2041 C2047 1.429 . S
C2042 C2034 1.574 . S
C2042 H2037 0.949 . S
C2042 C2048 1.368 . S
C2043 C2027 1.349 . S
C2043 H2035 0.950 . S
C2043 C2041 1.327 . S
C2044 C2032 1.349 . S
C2044 H2038 0.950 . S
C2044 C2045 1.327 . S
C2045 H2039 0.950 . S
C2045 C2044 1.327 . S
C2045 C2049 1.429 . S
C2046 C2029 1.574 . S
C2046 H2040 0.949 . S
C2046 C2050 1.368 . S
C2047 C2028 1.429 . S
C2047 C2041 1.429 . S
C2047 C2048 1.523 . S
C2048 C2029 1.368 . S
C2048 C2042 1.368 . S
C2048 C2047 1.523 . S
C2049 C2033 1.429 . S
C2049 C2045 1.429 . S
C2049 C2050 1.523 . S
C2050 C2034 1.368 . S
C2050 C2046 1.368 . S
C2050 C2049 1.523 . S
H2051 C2026 0.950 . S
H2052 C2028 0.950 . S
H2053 C2029 0.949 . S
H2054 C2031 0.950 . S
H2055 C2033 0.950 . S
C2056 C2057 1.349 . S
C2056 C2058 1.327 . S
C2056 H2081 0.950 . S
C2057 C2056 1.349 . S
C2057 C2073 1.349 . S
C2058 C2056 1.327 . S
C2058 C2077 1.429 . S
C2058 H2082 0.950 . S
C2059 C2076 1.574 . S
C2059 C2078 1.368 . S
C2059 H2083 0.949 . S
H2060 C2064 0.949 . S
C2061 C2062 1.349 . S
C2061 C2063 1.327 . S
C2061 H2084 0.950 . S
C2062 C2061 1.349 . S
C2062 C2074 1.349 . S
C2063 C2061 1.327 . S
C2063 C2079 1.429 . S
C2063 H2085 0.950 . S
C2064 H2060 0.949 . S
C2064 C2072 1.574 . S
C2064 C2080 1.368 . S
H2065 C2073 0.950 . S
H2066 C2071 0.950 . S
H2067 C2072 0.949 . S
H2068 C2074 0.950 . S
H2069 C2075 0.950 . S
H2070 C2076 0.949 . S
C2071 H2066 0.950 . S
C2071 C2073 1.327 . S
C2071 C2077 1.429 . S
C2072 C2064 1.574 . S
C2072 H2067 0.949 . S
C2072 C2078 1.368 . S
C2073 C2057 1.349 . S
C2073 H2065 0.950 . S
C2073 C2071 1.327 . S
C2074 C2062 1.349 . S
C2074 H2068 0.950 . S
C2074 C2075 1.327 . S
C2075 H2069 0.950 . S
C2075 C2074 1.327 . S
C2075 C2079 1.429 . S
C2076 C2059 1.574 . S
C2076 H2070 0.949 . S
C2076 C2080 1.368 . S
C2077 C2058 1.429 . S
C2077 C2071 1.429 . S
C2077 C2078 1.523 . S
C2078 C2059 1.368 . S
C2078 C2072 1.368 . S
C2078 C2077 1.523 . S
C2079 C2063 1.429 . S
C2079 C2075 1.429 . S
C2079 C2080 1.523 . S
C2080 C2064 1.368 . S
C2080 C2076 1.368 . S
C2080 C2079 1.523 . S
H2081 C2056 0.950 . S
H2082 C2058 0.950 . S
H2083 C2059 0.949 . S
H2084 C2061 0.950 . S
H2085 C2063 0.950 . S
C2086 C2087 1.349 . S
C2086 C2088 1.327 . S
C2086 H2111 0.950 . S
C2087 C2086 1.349 . S
C2087 C2103 1.349 . S
C2088 C2086 1.327 . S
C2088 C2107 1.429 . S
C2088 H2112 0.950 . S
C2089 C2106 1.574 . S
C2089 C2108 1.368 . S
C2089 H2113 0.949 . S
H2090 C2094 0.949 . S
C2091 C2092 1.349 . S
C2091 C2093 1.327 . S
C2091 H2114 0.950 . S
C2092 C2091 1.349 . S
C2092 C2104 1.349 . S
C2093 C2091 1.327 . S
C2093 C2109 1.429 . S
C2093 H2115 0.950 . S
C2094 H2090 0.949 . S
C2094 C2102 1.574 . S
C2094 C2110 1.368 . S
H2095 C2103 0.950 . S
H2096 C2101 0.950 . S
H2097 C2102 0.949 . S
H2098 C2104 0.950 . S
H2099 C2105 0.950 . S
H2100 C2106 0.949 . S
C2101 H2096 0.950 . S
C2101 C2103 1.327 . S
C2101 C2107 1.429 . S
C2102 C2094 1.574 . S
C2102 H2097 0.949 . S
C2102 C2108 1.368 . S
C2103 C2087 1.349 . S
C2103 H2095 0.950 . S
C2103 C2101 1.327 . S
C2104 C2092 1.349 . S
C2104 H2098 0.950 . S
C2104 C2105 1.327 . S
C2105 H2099 0.950 . S
C2105 C2104 1.327 . S
C2105 C2109 1.429 . S
C2106 C2089 1.574 . S
C2106 H2100 0.949 . S
C2106 C2110 1.368 . S
C2107 C2088 1.429 . S
C2107 C2101 1.429 . S
C2107 C2108 1.523 . S
C2108 C2089 1.368 . S
C2108 C2102 1.368 . S
C2108 C2107 1.523 . S
C2109 C2093 1.429 . S
C2109 C2105 1.429 . S
C2109 C2110 1.523 . S
C2110 C2094 1.368 . S
C2110 C2106 1.368 . S
C2110 C2109 1.523 . S
H2111 C2086 0.950 . S
H2112 C2088 0.950 . S
H2113 C2089 0.949 . S
H2114 C2091 0.950 . S
H2115 C2093 0.950 . S
C2116 C2117 1.349 . S
C2116 C2118 1.327 . S
C2116 H2141 0.950 . S
C2117 C2116 1.349 . S
C2117 C2133 1.349 . S
C2118 C2116 1.327 . S
C2118 C2137 1.429 . S
C2118 H2142 0.950 . S
C2119 C2136 1.574 . S
C2119 C2138 1.368 . S
C2119 H2143 0.949 . S
H2120 C2124 0.949 . S
C2121 C2122 1.349 . S
C2121 C2123 1.327 . S
C2121 H2144 0.950 . S
C2122 C2121 1.349 . S
C2122 C2134 1.349 . S
C2123 C2121 1.327 . S
C2123 C2139 1.429 . S
C2123 H2145 0.950 . S
C2124 H2120 0.949 . S
C2124 C2132 1.574 . S
C2124 C2140 1.368 . S
H2125 C2133 0.950 . S
H2126 C2131 0.950 . S
H2127 C2132 0.949 . S
H2128 C2134 0.950 . S
H2129 C2135 0.950 . S
H2130 C2136 0.949 . S
C2131 H2126 0.950 . S
C2131 C2133 1.327 . S
C2131 C2137 1.429 . S
C2132 C2124 1.574 . S
C2132 H2127 0.949 . S
C2132 C2138 1.368 . S
C2133 C2117 1.349 . S
C2133 H2125 0.950 . S
C2133 C2131 1.327 . S
C2134 C2122 1.349 . S
C2134 H2128 0.950 . S
C2134 C2135 1.327 . S
C2135 H2129 0.950 . S
C2135 C2134 1.327 . S
C2135 C2139 1.429 . S
C2136 C2119 1.574 . S
C2136 H2130 0.949 . S
C2136 C2140 1.368 . S
C2137 C2118 1.429 . S
C2137 C2131 1.429 . S
C2137 C2138 1.523 . S
C2138 C2119 1.368 . S
C2138 C2132 1.368 . S
C2138 C2137 1.523 . S
C2139 C2123 1.429 . S
C2139 C2135 1.429 . S
C2139 C2140 1.523 . S
C2140 C2124 1.368 . S
C2140 C2136 1.368 . S
C2140 C2139 1.523 . S
H2141 C2116 0.950 . S
H2142 C2118 0.950 . S
H2143 C2119 0.949 . S
H2144 C2121 0.950 . S
H2145 C2123 0.950 . S
C2146 C2147 1.349 . S
C2146 C2148 1.327 . S
C2146 H2171 0.950 . S
C2147 C2146 1.349 . S
C2147 C2163 1.349 . S
C2148 C2146 1.327 . S
C2148 C2167 1.429 . S
C2148 H2172 0.950 . S
C2149 C2166 1.574 . S
C2149 C2168 1.368 . S
C2149 H2173 0.949 . S
H2150 C2154 0.949 . S
C2151 C2152 1.349 . S
C2151 C2153 1.327 . S
C2151 H2174 0.950 . S
C2152 C2151 1.349 . S
C2152 C2164 1.349 . S
C2153 C2151 1.327 . S
C2153 C2169 1.429 . S
C2153 H2175 0.950 . S
C2154 H2150 0.949 . S
C2154 C2162 1.574 . S
C2154 C2170 1.368 . S
H2155 C2163 0.950 . S
H2156 C2161 0.950 . S
H2157 C2162 0.949 . S
H2158 C2164 0.950 . S
H2159 C2165 0.950 . S
H2160 C2166 0.949 . S
C2161 H2156 0.950 . S
C2161 C2163 1.327 . S
C2161 C2167 1.429 . S
C2162 C2154 1.574 . S
C2162 H2157 0.949 . S
C2162 C2168 1.368 . S
C2163 C2147 1.349 . S
C2163 H2155 0.950 . S
C2163 C2161 1.327 . S
C2164 C2152 1.349 . S
C2164 H2158 0.950 . S
C2164 C2165 1.327 . S
C2165 H2159 0.950 . S
C2165 C2164 1.327 . S
C2165 C2169 1.429 . S
C2166 C2149 1.574 . S
C2166 H2160 0.949 . S
C2166 C2170 1.368 . S
C2167 C2148 1.429 . S
C2167 C2161 1.429 . S
C2167 C2168 1.523 . S
C2168 C2149 1.368 . S
C2168 C2162 1.368 . S
C2168 C2167 1.523 . S
C2169 C2153 1.429 . S
C2169 C2165 1.429 . S
C2169 C2170 1.523 . S
C2170 C2154 1.368 . S
C2170 C2166 1.368 . S
C2170 C2169 1.523 . S
H2171 C2146 0.950 . S
H2172 C2148 0.950 . S
H2173 C2149 0.949 . S
H2174 C2151 0.950 . S
H2175 C2153 0.950 . S
C2176 C2177 1.349 1_556 S
C2176 C2178 1.327 . S
C2176 H2201 0.950 . S
C2177 C2176 1.349 1_554 S
C2177 C2193 1.349 . S
C2178 C2176 1.327 . S
C2178 C2197 1.429 . S
C2178 H2202 0.950 . S
C2179 C2196 1.574 . S
C2179 C2198 1.368 1_554 S
C2179 H2203 0.949 . S
H2180 C2184 0.949 . S
C2181 C2182 1.348 . S
C2181 C2183 1.327 1_556 S
C2181 H2204 0.950 1_556 S
C2182 C2181 1.348 . S
C2182 C2194 1.349 . S
C2183 C2181 1.327 1_554 S
C2183 C2199 1.429 1_554 S
C2183 H2205 0.950 . S
C2184 H2180 0.949 . S
C2184 C2192 1.574 . S
C2184 C2200 1.368 . S
H2185 C2193 0.950 . S
H2186 C2191 0.950 . S
H2187 C2192 0.949 . S
H2188 C2194 0.950 . S
H2189 C2195 0.950 . S
H2190 C2196 0.949 . S
C2191 H2186 0.950 . S
C2191 C2193 1.327 . S
C2191 C2197 1.429 1_554 S
C2192 C2184 1.574 . S
C2192 H2187 0.949 . S
C2192 C2198 1.368 . S
C2193 C2177 1.349 . S
C2193 H2185 0.950 . S
C2193 C2191 1.327 . S
C2194 C2182 1.349 . S
C2194 H2188 0.950 . S
C2194 C2195 1.327 . S
C2195 H2189 0.950 . S
C2195 C2194 1.327 . S
C2195 C2199 1.429 . S
C2196 C2179 1.574 . S
C2196 H2190 0.949 . S
C2196 C2200 1.368 1_554 S
C2197 C2178 1.429 . S
C2197 C2191 1.429 1_556 S
C2197 C2198 1.523 . S
C2198 C2179 1.368 1_556 S
C2198 C2192 1.368 . S
C2198 C2197 1.523 . S
C2199 C2183 1.429 1_556 S
C2199 C2195 1.429 . S
C2199 C2200 1.523 . S
C2200 C2184 1.368 . S
C2200 C2196 1.368 1_556 S
C2200 C2199 1.523 . S
H2201 C2176 0.950 . S
H2202 C2178 0.950 . S
H2203 C2179 0.949 . S
H2204 C2181 0.950 1_554 S
H2205 C2183 0.950 . S
C2206 C2207 1.349 . S
C2206 C2208 1.327 . S
C2206 H2231 0.950 . S
C2207 C2206 1.349 . S
C2207 C2223 1.349 . S
C2208 C2206 1.327 . S
C2208 C2227 1.429 . S
C2208 H2232 0.950 . S
C2209 C2226 1.574 . S
C2209 C2228 1.368 . S
C2209 H2233 0.949 . S
H2210 C2214 0.949 . S
C2211 C2212 1.349 . S
C2211 C2213 1.327 . S
C2211 H2234 0.950 . S
C2212 C2211 1.349 . S
C2212 C2224 1.349 . S
C2213 C2211 1.327 . S
C2213 C2229 1.429 . S
C2213 H2235 0.950 . S
C2214 H2210 0.949 . S
C2214 C2222 1.574 . S
C2214 C2230 1.368 . S
H2215 C2223 0.950 . S
H2216 C2221 0.950 . S
H2217 C2222 0.949 . S
H2218 C2224 0.950 . S
H2219 C2225 0.950 . S
H2220 C2226 0.949 . S
C2221 H2216 0.950 . S
C2221 C2223 1.327 . S
C2221 C2227 1.429 . S
C2222 C2214 1.574 . S
C2222 H2217 0.949 . S
C2222 C2228 1.368 . S
C2223 C2207 1.349 . S
C2223 H2215 0.950 . S
C2223 C2221 1.327 . S
C2224 C2212 1.349 . S
C2224 H2218 0.950 . S
C2224 C2225 1.327 . S
C2225 H2219 0.950 . S
C2225 C2224 1.327 . S
C2225 C2229 1.429 . S
C2226 C2209 1.574 . S
C2226 H2220 0.949 . S
C2226 C2230 1.368 . S
C2227 C2208 1.429 . S
C2227 C2221 1.429 . S
C2227 C2228 1.523 . S
C2228 C2209 1.368 . S
C2228 C2222 1.368 . S
C2228 C2227 1.523 . S
C2229 C2213 1.429 . S
C2229 C2225 1.429 . S
C2229 C2230 1.523 . S
C2230 C2214 1.368 . S
C2230 C2226 1.368 . S
C2230 C2229 1.523 . S
H2231 C2206 0.950 . S
H2232 C2208 0.950 . S
H2233 C2209 0.949 . S
H2234 C2211 0.950 . S
H2235 C2213 0.950 . S
C2236 C2237 1.349 . S
C2236 C2238 1.327 . S
C2236 H2261 0.950 . S
C2237 C2236 1.349 . S
C2237 C2253 1.349 . S
C2238 C2236 1.327 . S
C2238 C2257 1.429 . S
C2238 H2262 0.950 . S
C2239 C2256 1.574 . S
C2239 C2258 1.368 . S
C2239 H2263 0.949 . S
H2240 C2244 0.949 . S
C2241 C2242 1.349 . S
C2241 C2243 1.327 . S
C2241 H2264 0.950 . S
C2242 C2241 1.349 . S
C2242 C2254 1.349 . S
C2243 C2241 1.327 . S
C2243 C2259 1.429 . S
C2243 H2265 0.950 . S
C2244 H2240 0.949 . S
C2244 C2252 1.574 . S
C2244 C2260 1.368 . S
H2245 C2253 0.950 . S
H2246 C2251 0.950 . S
H2247 C2252 0.949 . S
H2248 C2254 0.950 . S
H2249 C2255 0.950 . S
H2250 C2256 0.949 . S
C2251 H2246 0.950 . S
C2251 C2253 1.327 . S
C2251 C2257 1.429 . S
C2252 C2244 1.574 . S
C2252 H2247 0.949 . S
C2252 C2258 1.368 . S
C2253 C2237 1.349 . S
C2253 H2245 0.950 . S
C2253 C2251 1.327 . S
C2254 C2242 1.349 . S
C2254 H2248 0.950 . S
C2254 C2255 1.327 . S
C2255 H2249 0.950 . S
C2255 C2254 1.327 . S
C2255 C2259 1.429 . S
C2256 C2239 1.574 . S
C2256 H2250 0.949 . S
C2256 C2260 1.368 . S
C2257 C2238 1.429 . S
C2257 C2251 1.429 . S
C2257 C2258 1.523 . S
C2258 C2239 1.368 . S
C2258 C2252 1.368 . S
C2258 C2257 1.523 . S
C2259 C2243 1.429 . S
C2259 C2255 1.429 . S
C2259 C2260 1.523 . S
C2260 C2244 1.368 . S
C2260 C2256 1.368 . S
C2260 C2259 1.523 . S
H2261 C2236 0.950 . S
H2262 C2238 0.950 . S
H2263 C2239 0.949 . S
H2264 C2241 0.950 . S
H2265 C2243 0.950 . S
C2266 C2267 1.349 . S
C2266 C2268 1.327 . S
C2266 H2291 0.950 . S
C2267 C2266 1.349 . S
C2267 C2283 1.349 . S
C2268 C2266 1.327 . S
C2268 C2287 1.429 . S
C2268 H2292 0.950 . S
C2269 C2286 1.574 . S
C2269 C2288 1.368 . S
C2269 H2293 0.949 . S
H2270 C2274 0.949 . S
C2271 C2272 1.349 . S
C2271 C2273 1.327 . S
C2271 H2294 0.950 . S
C2272 C2271 1.349 . S
C2272 C2284 1.349 . S
C2273 C2271 1.327 . S
C2273 C2289 1.429 . S
C2273 H2295 0.950 . S
C2274 H2270 0.949 . S
C2274 C2282 1.574 . S
C2274 C2290 1.368 . S
H2275 C2283 0.950 . S
H2276 C2281 0.950 . S
H2277 C2282 0.949 . S
H2278 C2284 0.950 . S
H2279 C2285 0.950 . S
H2280 C2286 0.949 . S
C2281 H2276 0.950 . S
C2281 C2283 1.327 . S
C2281 C2287 1.429 . S
C2282 C2274 1.574 . S
C2282 H2277 0.949 . S
C2282 C2288 1.368 . S
C2283 C2267 1.349 . S
C2283 H2275 0.950 . S
C2283 C2281 1.327 . S
C2284 C2272 1.349 . S
C2284 H2278 0.950 . S
C2284 C2285 1.327 . S
C2285 H2279 0.950 . S
C2285 C2284 1.327 . S
C2285 C2289 1.429 . S
C2286 C2269 1.574 . S
C2286 H2280 0.949 . S
C2286 C2290 1.368 . S
C2287 C2268 1.429 . S
C2287 C2281 1.429 . S
C2287 C2288 1.523 . S
C2288 C2269 1.368 . S
C2288 C2282 1.368 . S
C2288 C2287 1.523 . S
C2289 C2273 1.429 . S
C2289 C2285 1.429 . S
C2289 C2290 1.523 . S
C2290 C2274 1.368 . S
C2290 C2286 1.368 . S
C2290 C2289 1.523 . S
H2291 C2266 0.950 . S
H2292 C2268 0.950 . S
H2293 C2269 0.949 . S
H2294 C2271 0.950 . S
H2295 C2273 0.950 . S
C2296 C2297 1.349 . S
C2296 C2298 1.327 . S
C2296 H2321 0.950 . S
C2297 C2296 1.349 . S
C2297 C2313 1.349 . S
C2298 C2296 1.327 . S
C2298 C2317 1.429 . S
C2298 H2322 0.950 . S
C2299 C2316 1.574 . S
C2299 C2318 1.368 . S
C2299 H2323 0.949 . S
H2300 C2304 0.949 . S
C2301 C2302 1.349 . S
C2301 C2303 1.327 . S
C2301 H2324 0.950 . S
C2302 C2301 1.349 . S
C2302 C2314 1.349 . S
C2303 C2301 1.327 . S
C2303 C2319 1.429 . S
C2303 H2325 0.950 . S
C2304 H2300 0.949 . S
C2304 C2312 1.574 . S
C2304 C2320 1.368 . S
H2305 C2313 0.950 . S
H2306 C2311 0.950 . S
H2307 C2312 0.949 . S
H2308 C2314 0.950 . S
H2309 C2315 0.950 . S
H2310 C2316 0.949 . S
C2311 H2306 0.950 . S
C2311 C2313 1.327 . S
C2311 C2317 1.429 . S
C2312 C2304 1.574 . S
C2312 H2307 0.949 . S
C2312 C2318 1.368 . S
C2313 C2297 1.349 . S
C2313 H2305 0.950 . S
C2313 C2311 1.327 . S
C2314 C2302 1.349 . S
C2314 H2308 0.950 . S
C2314 C2315 1.327 . S
C2315 H2309 0.950 . S
C2315 C2314 1.327 . S
C2315 C2319 1.429 . S
C2316 C2299 1.574 . S
C2316 H2310 0.949 . S
C2316 C2320 1.368 . S
C2317 C2298 1.429 . S
C2317 C2311 1.429 . S
C2317 C2318 1.523 . S
C2318 C2299 1.368 . S
C2318 C2312 1.368 . S
C2318 C2317 1.523 . S
C2319 C2303 1.429 . S
C2319 C2315 1.429 . S
C2319 C2320 1.523 . S
C2320 C2304 1.368 . S
C2320 C2316 1.368 . S
C2320 C2319 1.523 . S
H2321 C2296 0.950 . S
H2322 C2298 0.950 . S
H2323 C2299 0.949 . S
H2324 C2301 0.950 . S
H2325 C2303 0.950 . S
C2326 C2327 1.349 . S
C2326 C2328 1.327 . S
C2326 H2351 0.950 . S
C2327 C2326 1.349 . S
C2327 C2343 1.349 . S
C2328 C2326 1.327 . S
C2328 C2347 1.429 . S
C2328 H2352 0.950 . S
C2329 C2346 1.574 . S
C2329 C2348 1.368 . S
C2329 H2353 0.949 . S
H2330 C2334 0.949 . S
C2331 C2332 1.349 . S
C2331 C2333 1.324 1_545 S
C2331 H2354 0.950 . S
C2332 C2331 1.349 . S
C2332 C2344 1.349 1_545 S
C2333 C2331 1.324 1_565 S
C2333 C2349 1.432 . S
C2333 H2355 0.949 1_565 S
C2334 H2330 0.949 . S
C2334 C2342 1.574 . S
C2334 C2350 1.368 . S
H2335 C2343 0.950 . S
H2336 C2341 0.950 . S
H2337 C2342 0.949 . S
H2338 C2344 0.950 . S
H2339 C2345 0.950 . S
H2340 C2346 0.949 . S
C2341 H2336 0.950 . S
C2341 C2343 1.327 . S
C2341 C2347 1.429 . S
C2342 C2334 1.574 . S
C2342 H2337 0.949 . S
C2342 C2348 1.368 . S
C2343 C2327 1.349 . S
C2343 H2335 0.950 . S
C2343 C2341 1.327 . S
C2344 C2332 1.349 1_565 S
C2344 H2338 0.950 . S
C2344 C2345 1.327 . S
C2345 H2339 0.950 . S
C2345 C2344 1.327 . S
C2345 C2349 1.429 . S
C2346 C2329 1.574 . S
C2346 H2340 0.949 . S
C2346 C2350 1.368 . S
C2347 C2328 1.429 . S
C2347 C2341 1.429 . S
C2347 C2348 1.523 . S
C2348 C2329 1.368 . S
C2348 C2342 1.368 . S
C2348 C2347 1.523 . S
C2349 C2333 1.432 . S
C2349 C2345 1.429 . S
C2349 C2350 1.523 . S
C2350 C2334 1.368 . S
C2350 C2346 1.368 . S
C2350 C2349 1.523 . S
H2351 C2326 0.950 . S
H2352 C2328 0.950 . S
H2353 C2329 0.949 . S
H2354 C2331 0.950 . S
H2355 C2333 0.949 1_545 S
C2356 C2357 1.349 . S
C2356 C2358 1.327 . S
C2356 H2381 0.950 . S
C2357 C2356 1.349 . S
C2357 C2373 1.349 . S
C2358 C2356 1.327 . S
C2358 C2377 1.429 . S
C2358 H2382 0.950 . S
C2359 C2376 1.574 . S
C2359 C2378 1.368 . S
C2359 H2383 0.949 . S
H2360 C2364 0.949 . S
C2361 C2362 1.349 . S
C2361 C2363 1.327 . S
C2361 H2384 0.950 . S
C2362 C2361 1.349 . S
C2362 C2374 1.349 . S
C2363 C2361 1.327 . S
C2363 C2379 1.429 . S
C2363 H2385 0.950 . S
C2364 H2360 0.949 . S
C2364 C2372 1.574 . S
C2364 C2380 1.368 . S
H2365 C2373 0.950 . S
H2366 C2371 0.950 . S
H2367 C2372 0.949 . S
H2368 C2374 0.950 . S
H2369 C2375 0.950 . S
H2370 C2376 0.949 . S
C2371 H2366 0.950 . S
C2371 C2373 1.327 . S
C2371 C2377 1.429 . S
C2372 C2364 1.574 . S
C2372 H2367 0.949 . S
C2372 C2378 1.368 . S
C2373 C2357 1.349 . S
C2373 H2365 0.950 . S
C2373 C2371 1.327 . S
C2374 C2362 1.349 . S
C2374 H2368 0.950 . S
C2374 C2375 1.327 . S
C2375 H2369 0.950 . S
C2375 C2374 1.327 . S
C2375 C2379 1.429 . S
C2376 C2359 1.574 . S
C2376 H2370 0.949 . S
C2376 C2380 1.368 . S
C2377 C2358 1.429 . S
C2377 C2371 1.429 . S
C2377 C2378 1.523 . S
C2378 C2359 1.368 . S
C2378 C2372 1.368 . S
C2378 C2377 1.523 . S
C2379 C2363 1.429 . S
C2379 C2375 1.429 . S
C2379 C2380 1.523 . S
C2380 C2364 1.368 . S
C2380 C2376 1.368 . S
C2380 C2379 1.523 . S
H2381 C2356 0.950 . S
H2382 C2358 0.950 . S
H2383 C2359 0.949 . S
H2384 C2361 0.950 . S
H2385 C2363 0.950 . S
C2386 C2387 1.349 . S
C2386 C2388 1.327 . S
C2386 H2411 0.950 . S
C2387 C2386 1.349 . S
C2387 C2403 1.349 . S
C2388 C2386 1.327 . S
C2388 C2407 1.429 . S
C2388 H2412 0.950 . S
C2389 C2406 1.574 . S
C2389 C2408 1.368 . S
C2389 H2413 0.949 . S
H2390 C2394 0.949 . S
C2391 C2392 1.349 . S
C2391 C2393 1.327 . S
C2391 H2414 0.950 . S
C2392 C2391 1.349 . S
C2392 C2404 1.349 . S
C2393 C2391 1.327 . S
C2393 C2409 1.429 . S
C2393 H2415 0.950 . S
C2394 H2390 0.949 . S
C2394 C2402 1.574 . S
C2394 C2410 1.368 . S
H2395 C2403 0.950 . S
H2396 C2401 0.950 . S
H2397 C2402 0.949 . S
H2398 C2404 0.950 . S
H2399 C2405 0.950 . S
H2400 C2406 0.949 . S
C2401 H2396 0.950 . S
C2401 C2403 1.327 . S
C2401 C2407 1.429 . S
C2402 C2394 1.574 . S
C2402 H2397 0.949 . S
C2402 C2408 1.368 . S
C2403 C2387 1.349 . S
C2403 H2395 0.950 . S
C2403 C2401 1.327 . S
C2404 C2392 1.349 . S
C2404 H2398 0.950 . S
C2404 C2405 1.327 . S
C2405 H2399 0.950 . S
C2405 C2404 1.327 . S
C2405 C2409 1.429 . S
C2406 C2389 1.574 . S
C2406 H2400 0.949 . S
C2406 C2410 1.368 . S
C2407 C2388 1.429 . S
C2407 C2401 1.429 . S
C2407 C2408 1.523 . S
C2408 C2389 1.368 . S
C2408 C2402 1.368 . S
C2408 C2407 1.523 . S
C2409 C2393 1.429 . S
C2409 C2405 1.429 . S
C2409 C2410 1.523 . S
C2410 C2394 1.368 . S
C2410 C2406 1.368 . S
C2410 C2409 1.523 . S
H2411 C2386 0.950 . S
H2412 C2388 0.950 . S
H2413 C2389 0.949 . S
H2414 C2391 0.950 . S
H2415 C2393 0.950 . S
C2416 C2417 1.349 . S
C2416 C2418 1.327 . S
C2416 H2441 0.950 . S
C2417 C2416 1.349 . S
C2417 C2433 1.349 . S
C2418 C2416 1.327 . S
C2418 C2437 1.429 . S
C2418 H2442 0.950 . S
C2419 C2436 1.574 . S
C2419 C2438 1.368 . S
C2419 H2443 0.949 . S
H2420 C2424 0.949 . S
C2421 C2422 1.349 . S
C2421 C2423 1.327 . S
C2421 H2444 0.950 . S
C2422 C2421 1.349 . S
C2422 C2434 1.349 . S
C2423 C2421 1.327 . S
C2423 C2439 1.429 . S
C2423 H2445 0.950 . S
C2424 H2420 0.949 . S
C2424 C2432 1.574 . S
C2424 C2440 1.368 . S
H2425 C2433 0.950 . S
H2426 C2431 0.950 . S
H2427 C2432 0.949 . S
H2428 C2434 0.950 . S
H2429 C2435 0.950 . S
H2430 C2436 0.949 . S
C2431 H2426 0.950 . S
C2431 C2433 1.327 . S
C2431 C2437 1.429 . S
C2432 C2424 1.574 . S
C2432 H2427 0.949 . S
C2432 C2438 1.368 . S
C2433 C2417 1.349 . S
C2433 H2425 0.950 . S
C2433 C2431 1.327 . S
C2434 C2422 1.349 . S
C2434 H2428 0.950 . S
C2434 C2435 1.327 . S
C2435 H2429 0.950 . S
C2435 C2434 1.327 . S
C2435 C2439 1.429 . S
C2436 C2419 1.574 . S
C2436 H2430 0.949 . S
C2436 C2440 1.368 . S
C2437 C2418 1.429 . S
C2437 C2431 1.429 . S
C2437 C2438 1.523 . S
C2438 C2419 1.368 . S
C2438 C2432 1.368 . S
C2438 C2437 1.523 . S
C2439 C2423 1.429 . S
C2439 C2435 1.429 . S
C2439 C2440 1.523 . S
C2440 C2424 1.368 . S
C2440 C2436 1.368 . S
C2440 C2439 1.523 . S
H2441 C2416 0.950 . S
H2442 C2418 0.950 . S
H2443 C2419 0.949 . S
H2444 C2421 0.950 . S
H2445 C2423 0.950 . S
C2446 C2447 1.349 . S
C2446 C2448 1.327 . S
C2446 H2471 0.950 . S
C2447 C2446 1.349 . S
C2447 C2463 1.349 . S
C2448 C2446 1.327 . S
C2448 C2467 1.429 . S
C2448 H2472 0.950 . S
C2449 C2466 1.574 . S
C2449 C2468 1.368 . S
C2449 H2473 0.949 . S
H2450 C2454 0.949 . S
C2451 C2452 1.349 . S
C2451 C2453 1.327 . S
C2451 H2474 0.950 . S
C2452 C2451 1.349 . S
C2452 C2464 1.349 . S
C2453 C2451 1.327 . S
C2453 C2469 1.429 . S
C2453 H2475 0.950 . S
C2454 H2450 0.949 . S
C2454 C2462 1.574 . S
C2454 C2470 1.368 . S
H2455 C2463 0.950 . S
H2456 C2461 0.950 . S
H2457 C2462 0.949 . S
H2458 C2464 0.950 . S
H2459 C2465 0.950 . S
H2460 C2466 0.949 . S
C2461 H2456 0.950 . S
C2461 C2463 1.327 . S
C2461 C2467 1.429 . S
C2462 C2454 1.574 . S
C2462 H2457 0.949 . S
C2462 C2468 1.368 . S
C2463 C2447 1.349 . S
C2463 H2455 0.950 . S
C2463 C2461 1.327 . S
C2464 C2452 1.349 . S
C2464 H2458 0.950 . S
C2464 C2465 1.327 . S
C2465 H2459 0.950 . S
C2465 C2464 1.327 . S
C2465 C2469 1.429 . S
C2466 C2449 1.574 . S
C2466 H2460 0.949 . S
C2466 C2470 1.368 . S
C2467 C2448 1.429 . S
C2467 C2461 1.429 . S
C2467 C2468 1.523 . S
C2468 C2449 1.368 . S
C2468 C2462 1.368 . S
C2468 C2467 1.523 . S
C2469 C2453 1.429 . S
C2469 C2465 1.429 . S
C2469 C2470 1.523 . S
C2470 C2454 1.368 . S
C2470 C2466 1.368 . S
C2470 C2469 1.523 . S
H2471 C2446 0.950 . S
H2472 C2448 0.950 . S
H2473 C2449 0.949 . S
H2474 C2451 0.950 . S
H2475 C2453 0.950 . S
C2476 C2477 1.349 . S
C2476 C2478 1.327 . S
C2476 H2501 0.950 . S
C2477 C2476 1.349 . S
C2477 C2493 1.349 . S
C2478 C2476 1.327 . S
C2478 C2497 1.429 . S
C2478 H2502 0.950 . S
C2479 C2496 1.574 . S
C2479 C2498 1.368 . S
C2479 H2503 0.949 . S
H2480 C2484 0.949 . S
C2481 C2482 1.349 . S
C2481 C2483 1.327 . S
C2481 H2504 0.950 . S
C2482 C2481 1.349 . S
C2482 C2494 1.349 1_554 S
C2483 C2481 1.327 . S
C2483 C2499 1.429 1_554 S
C2483 H2505 0.950 . S
C2484 H2480 0.949 . S
C2484 C2492 1.574 . S
C2484 C2500 1.368 . S
H2485 C2493 0.950 . S
H2486 C2491 0.950 . S
H2487 C2492 0.949 . S
H2488 C2494 0.950 . S
H2489 C2495 0.950 . S
H2490 C2496 0.949 1_554 S
C2491 H2486 0.950 . S
C2491 C2493 1.327 . S
C2491 C2497 1.429 . S
C2492 C2484 1.574 . S
C2492 H2487 0.949 . S
C2492 C2498 1.368 . S
C2493 C2477 1.349 . S
C2493 H2485 0.950 . S
C2493 C2491 1.327 . S
C2494 C2482 1.349 1_556 S
C2494 H2488 0.950 . S
C2494 C2495 1.327 . S
C2495 H2489 0.950 . S
C2495 C2494 1.327 . S
C2495 C2499 1.429 . S
C2496 C2479 1.574 . S
C2496 H2490 0.949 1_556 S
C2496 C2500 1.368 . S
C2497 C2478 1.429 . S
C2497 C2491 1.429 . S
C2497 C2498 1.523 . S
C2498 C2479 1.368 . S
C2498 C2492 1.368 . S
C2498 C2497 1.523 . S
C2499 C2483 1.429 1_556 S
C2499 C2495 1.429 . S
C2499 C2500 1.523 . S
C2500 C2484 1.368 . S
C2500 C2496 1.368 . S
C2500 C2499 1.523 . S
H2501 C2476 0.950 . S
H2502 C2478 0.950 . S
H2503 C2479 0.949 . S
H2504 C2481 0.950 . S
H2505 C2483 0.950 . S
C2506 C2507 1.349 . S
C2506 C2508 1.327 1_455 S
C2506 H2531 0.950 . S
C2507 C2506 1.349 . S
C2507 C2523 1.349 . S
C2508 C2506 1.327 1_655 S
C2508 C2527 1.429 . S
C2508 H2532 0.950 . S
C2509 C2526 1.574 . S
C2509 C2528 1.368 . S
C2509 H2533 0.949 . S
H2510 C2514 0.949 . S
C2511 C2512 1.349 . S
C2511 C2513 1.327 . S
C2511 H2534 0.950 . S
C2512 C2511 1.349 . S
C2512 C2524 1.349 . S
C2513 C2511 1.327 . S
C2513 C2529 1.429 . S
C2513 H2535 0.950 . S
C2514 H2510 0.949 . S
C2514 C2522 1.574 . S
C2514 C2530 1.368 . S
H2515 C2523 0.950 . S
H2516 C2521 0.950 . S
H2517 C2522 0.949 . S
H2518 C2524 0.950 . S
H2519 C2525 0.950 . S
H2520 C2526 0.949 . S
C2521 H2516 0.950 . S
C2521 C2523 1.327 1_655 S
C2521 C2527 1.429 . S
C2522 C2514 1.574 . S
C2522 H2517 0.949 . S
C2522 C2528 1.368 . S
C2523 C2507 1.349 . S
C2523 H2515 0.950 . S
C2523 C2521 1.327 1_455 S
C2524 C2512 1.349 . S
C2524 H2518 0.950 . S
C2524 C2525 1.327 . S
C2525 H2519 0.950 . S
C2525 C2524 1.327 . S
C2525 C2529 1.429 . S
C2526 C2509 1.574 . S
C2526 H2520 0.949 . S
C2526 C2530 1.368 . S
C2527 C2508 1.429 . S
C2527 C2521 1.429 . S
C2527 C2528 1.523 . S
C2528 C2509 1.368 . S
C2528 C2522 1.368 . S
C2528 C2527 1.523 . S
C2529 C2513 1.429 . S
C2529 C2525 1.429 . S
C2529 C2530 1.523 . S
C2530 C2514 1.368 . S
C2530 C2526 1.368 . S
C2530 C2529 1.523 . S
H2531 C2506 0.950 . S
H2532 C2508 0.950 . S
H2533 C2509 0.949 . S
H2534 C2511 0.950 . S
H2535 C2513 0.950 . S
C2536 C2537 1.349 . S
C2536 C2538 1.327 . S
C2536 H2561 0.950 . S
C2537 C2536 1.349 . S
C2537 C2553 1.349 . S
C2538 C2536 1.327 . S
C2538 C2557 1.429 . S
C2538 H2562 0.950 . S
C2539 C2556 1.574 . S
C2539 C2558 1.368 . S
C2539 H2563 0.949 . S
H2540 C2544 0.949 . S
C2541 C2542 1.349 . S
C2541 C2543 1.327 . S
C2541 H2564 0.950 . S
C2542 C2541 1.349 . S
C2542 C2554 1.349 . S
C2543 C2541 1.327 . S
C2543 C2559 1.429 . S
C2543 H2565 0.950 . S
C2544 H2540 0.949 . S
C2544 C2552 1.574 . S
C2544 C2560 1.368 . S
H2545 C2553 0.950 . S
H2546 C2551 0.950 . S
H2547 C2552 0.949 . S
H2548 C2554 0.950 . S
H2549 C2555 0.950 . S
H2550 C2556 0.949 . S
C2551 H2546 0.950 . S
C2551 C2553 1.327 . S
C2551 C2557 1.429 . S
C2552 C2544 1.574 . S
C2552 H2547 0.949 . S
C2552 C2558 1.368 . S
C2553 C2537 1.349 . S
C2553 H2545 0.950 . S
C2553 C2551 1.327 . S
C2554 C2542 1.349 . S
C2554 H2548 0.950 . S
C2554 C2555 1.327 . S
C2555 H2549 0.950 . S
C2555 C2554 1.327 . S
C2555 C2559 1.429 . S
C2556 C2539 1.574 . S
C2556 H2550 0.949 . S
C2556 C2560 1.368 . S
C2557 C2538 1.429 . S
C2557 C2551 1.429 . S
C2557 C2558 1.523 . S
C2558 C2539 1.368 . S
C2558 C2552 1.368 . S
C2558 C2557 1.523 . S
C2559 C2543 1.429 . S
C2559 C2555 1.429 . S
C2559 C2560 1.523 . S
C2560 C2544 1.368 . S
C2560 C2556 1.368 . S
C2560 C2559 1.523 . S
H2561 C2536 0.950 . S
H2562 C2538 0.950 . S
H2563 C2539 0.949 . S
H2564 C2541 0.950 . S
H2565 C2543 0.950 . S
C2566 C2567 1.349 . S
C2566 C2568 1.327 . S
C2566 H2591 0.950 . S
C2567 C2566 1.349 . S
C2567 C2583 1.349 . S
C2568 C2566 1.327 . S
C2568 C2587 1.429 . S
C2568 H2592 0.950 . S
C2569 C2586 1.574 . S
C2569 C2588 1.368 . S
C2569 H2593 0.949 . S
H2570 C2574 0.949 . S
C2571 C2572 1.349 . S
C2571 C2573 1.327 . S
C2571 H2594 0.950 . S
C2572 C2571 1.349 . S
C2572 C2584 1.349 . S
C2573 C2571 1.327 . S
C2573 C2589 1.429 . S
C2573 H2595 0.950 . S
C2574 H2570 0.949 . S
C2574 C2582 1.574 . S
C2574 C2590 1.368 . S
H2575 C2583 0.950 . S
H2576 C2581 0.950 . S
H2577 C2582 0.949 . S
H2578 C2584 0.950 . S
H2579 C2585 0.950 . S
H2580 C2586 0.949 . S
C2581 H2576 0.950 . S
C2581 C2583 1.327 . S
C2581 C2587 1.429 . S
C2582 C2574 1.574 . S
C2582 H2577 0.949 . S
C2582 C2588 1.368 . S
C2583 C2567 1.349 . S
C2583 H2575 0.950 . S
C2583 C2581 1.327 . S
C2584 C2572 1.349 . S
C2584 H2578 0.950 . S
C2584 C2585 1.327 . S
C2585 H2579 0.950 . S
C2585 C2584 1.327 . S
C2585 C2589 1.429 . S
C2586 C2569 1.574 . S
C2586 H2580 0.949 . S
C2586 C2590 1.368 . S
C2587 C2568 1.429 . S
C2587 C2581 1.429 . S
C2587 C2588 1.523 . S
C2588 C2569 1.368 . S
C2588 C2582 1.368 . S
C2588 C2587 1.523 . S
C2589 C2573 1.429 . S
C2589 C2585 1.429 . S
C2589 C2590 1.523 . S
C2590 C2574 1.368 . S
C2590 C2586 1.368 . S
C2590 C2589 1.523 . S
H2591 C2566 0.950 . S
H2592 C2568 0.950 . S
H2593 C2569 0.949 . S
H2594 C2571 0.950 . S
H2595 C2573 0.950 . S
C2596 C2597 1.349 . S
C2596 C2598 1.327 . S
C2596 H2621 0.950 . S
C2597 C2596 1.349 . S
C2597 C2613 1.349 . S
C2598 C2596 1.327 . S
C2598 C2617 1.429 . S
C2598 H2622 0.950 . S
C2599 C2616 1.574 . S
C2599 C2618 1.368 . S
C2599 H2623 0.949 . S
H2600 C2604 0.949 . S
C2601 C2602 1.349 . S
C2601 C2603 1.327 . S
C2601 H2624 0.950 . S
C2602 C2601 1.349 . S
C2602 C2614 1.349 . S
C2603 C2601 1.327 . S
C2603 C2619 1.429 . S
C2603 H2625 0.950 . S
C2604 H2600 0.949 . S
C2604 C2612 1.574 . S
C2604 C2620 1.368 . S
H2605 C2613 0.950 . S
H2606 C2611 0.950 . S
H2607 C2612 0.949 . S
H2608 C2614 0.950 . S
H2609 C2615 0.950 . S
H2610 C2616 0.949 . S
C2611 H2606 0.950 . S
C2611 C2613 1.327 . S
C2611 C2617 1.429 . S
C2612 C2604 1.574 . S
C2612 H2607 0.949 . S
C2612 C2618 1.368 . S
C2613 C2597 1.349 . S
C2613 H2605 0.950 . S
C2613 C2611 1.327 . S
C2614 C2602 1.349 . S
C2614 H2608 0.950 . S
C2614 C2615 1.327 . S
C2615 H2609 0.950 . S
C2615 C2614 1.327 . S
C2615 C2619 1.429 . S
C2616 C2599 1.574 . S
C2616 H2610 0.949 . S
C2616 C2620 1.368 . S
C2617 C2598 1.429 . S
C2617 C2611 1.429 . S
C2617 C2618 1.523 . S
C2618 C2599 1.368 . S
C2618 C2612 1.368 . S
C2618 C2617 1.523 . S
C2619 C2603 1.429 . S
C2619 C2615 1.429 . S
C2619 C2620 1.523 . S
C2620 C2604 1.368 . S
C2620 C2616 1.368 . S
C2620 C2619 1.523 . S
H2621 C2596 0.950 . S
H2622 C2598 0.950 . S
H2623 C2599 0.949 . S
H2624 C2601 0.950 . S
H2625 C2603 0.950 . S
C2626 C2627 1.349 . S
C2626 C2628 1.327 . S
C2626 H2651 0.950 . S
C2627 C2626 1.349 . S
C2627 C2643 1.349 . S
C2628 C2626 1.327 . S
C2628 C2647 1.429 . S
C2628 H2652 0.950 . S
C2629 C2646 1.574 . S
C2629 C2648 1.368 . S
C2629 H2653 0.949 . S
H2630 C2634 0.949 . S
C2631 C2632 1.349 . S
C2631 C2633 1.327 . S
C2631 H2654 0.950 . S
C2632 C2631 1.349 . S
C2632 C2644 1.349 . S
C2633 C2631 1.327 . S
C2633 C2649 1.429 . S
C2633 H2655 0.950 . S
C2634 H2630 0.949 . S
C2634 C2642 1.574 . S
C2634 C2650 1.368 . S
H2635 C2643 0.950 . S
H2636 C2641 0.950 . S
H2637 C2642 0.949 . S
H2638 C2644 0.950 . S
H2639 C2645 0.950 . S
H2640 C2646 0.949 . S
C2641 H2636 0.950 . S
C2641 C2643 1.327 . S
C2641 C2647 1.429 . S
C2642 C2634 1.574 . S
C2642 H2637 0.949 . S
C2642 C2648 1.368 . S
C2643 C2627 1.349 . S
C2643 H2635 0.950 . S
C2643 C2641 1.327 . S
C2644 C2632 1.349 . S
C2644 H2638 0.950 . S
C2644 C2645 1.327 . S
C2645 H2639 0.950 . S
C2645 C2644 1.327 . S
C2645 C2649 1.429 . S
C2646 C2629 1.574 . S
C2646 H2640 0.949 . S
C2646 C2650 1.368 . S
C2647 C2628 1.429 . S
C2647 C2641 1.429 . S
C2647 C2648 1.523 . S
C2648 C2629 1.368 . S
C2648 C2642 1.368 . S
C2648 C2647 1.523 . S
C2649 C2633 1.429 . S
C2649 C2645 1.429 . S
C2649 C2650 1.523 . S
C2650 C2634 1.368 . S
C2650 C2646 1.368 . S
C2650 C2649 1.523 . S
H2651 C2626 0.950 . S
H2652 C2628 0.950 . S
H2653 C2629 0.949 . S
H2654 C2631 0.950 . S
H2655 C2633 0.950 . S
C2656 C2657 1.349 . S
C2656 C2658 1.327 . S
C2656 H2681 0.950 . S
C2657 C2656 1.349 . S
C2657 C2673 1.349 . S
C2658 C2656 1.327 . S
C2658 C2677 1.429 . S
C2658 H2682 0.950 . S
C2659 C2676 1.574 . S
C2659 C2678 1.368 . S
C2659 H2683 0.949 . S
H2660 C2664 0.949 . S
C2661 C2662 1.349 . S
C2661 C2663 1.327 . S
C2661 H2684 0.950 . S
C2662 C2661 1.349 . S
C2662 C2674 1.349 . S
C2663 C2661 1.327 . S
C2663 C2679 1.429 . S
C2663 H2685 0.950 . S
C2664 H2660 0.949 . S
C2664 C2672 1.574 . S
C2664 C2680 1.368 . S
H2665 C2673 0.950 . S
H2666 C2671 0.950 . S
H2667 C2672 0.949 . S
H2668 C2674 0.950 . S
H2669 C2675 0.950 . S
H2670 C2676 0.949 . S
C2671 H2666 0.950 . S
C2671 C2673 1.327 . S
C2671 C2677 1.429 . S
C2672 C2664 1.574 . S
C2672 H2667 0.949 . S
C2672 C2678 1.368 . S
C2673 C2657 1.349 . S
C2673 H2665 0.950 . S
C2673 C2671 1.327 . S
C2674 C2662 1.349 . S
C2674 H2668 0.950 . S
C2674 C2675 1.327 . S
C2675 H2669 0.950 . S
C2675 C2674 1.327 . S
C2675 C2679 1.429 . S
C2676 C2659 1.574 . S
C2676 H2670 0.949 . S
C2676 C2680 1.368 . S
C2677 C2658 1.429 . S
C2677 C2671 1.429 . S
C2677 C2678 1.523 . S
C2678 C2659 1.368 . S
C2678 C2672 1.368 . S
C2678 C2677 1.523 . S
C2679 C2663 1.429 . S
C2679 C2675 1.429 . S
C2679 C2680 1.523 . S
C2680 C2664 1.368 . S
C2680 C2676 1.368 . S
C2680 C2679 1.523 . S
H2681 C2656 0.950 . S
H2682 C2658 0.950 . S
H2683 C2659 0.949 . S
H2684 C2661 0.950 . S
H2685 C2663 0.950 . S
C2686 C2687 1.349 . S
C2686 C2688 1.327 . S
C2686 H2711 0.950 . S
C2687 C2686 1.349 . S
C2687 C2703 1.349 . S
C2688 C2686 1.327 . S
C2688 C2707 1.429 . S
C2688 H2712 0.950 . S
C2689 C2706 1.574 . S
C2689 C2708 1.368 . S
C2689 H2713 0.949 . S
H2690 C2694 0.949 . S
C2691 C2692 1.349 . S
C2691 C2693 1.327 . S
C2691 H2714 0.950 . S
C2692 C2691 1.349 . S
C2692 C2704 1.349 . S
C2693 C2691 1.327 . S
C2693 C2709 1.429 . S
C2693 H2715 0.950 . S
C2694 H2690 0.949 . S
C2694 C2702 1.574 . S
C2694 C2710 1.368 . S
H2695 C2703 0.950 . S
H2696 C2701 0.950 . S
H2697 C2702 0.949 . S
H2698 C2704 0.950 . S
H2699 C2705 0.950 . S
H2700 C2706 0.949 . S
C2701 H2696 0.950 . S
C2701 C2703 1.327 . S
C2701 C2707 1.429 . S
C2702 C2694 1.574 . S
C2702 H2697 0.949 . S
C2702 C2708 1.368 . S
C2703 C2687 1.349 . S
C2703 H2695 0.950 . S
C2703 C2701 1.327 . S
C2704 C2692 1.349 . S
C2704 H2698 0.950 . S
C2704 C2705 1.327 . S
C2705 H2699 0.950 . S
C2705 C2704 1.327 . S
C2705 C2709 1.429 . S
C2706 C2689 1.574 . S
C2706 H2700 0.949 . S
C2706 C2710 1.368 . S
C2707 C2688 1.429 . S
C2707 C2701 1.429 . S
C2707 C2708 1.523 . S
C2708 C2689 1.368 . S
C2708 C2702 1.368 . S
C2708 C2707 1.523 . S
C2709 C2693 1.429 . S
C2709 C2705 1.429 . S
C2709 C2710 1.523 . S
C2710 C2694 1.368 . S
C2710 C2706 1.368 . S
C2710 C2709 1.523 . S
H2711 C2686 0.950 . S
H2712 C2688 0.950 . S
H2713 C2689 0.949 . S
H2714 C2691 0.950 . S
H2715 C2693 0.950 . S
C2716 C2717 1.349 . S
C2716 C2718 1.327 . S
C2716 H2741 0.950 . S
C2717 C2716 1.349 . S
C2717 C2733 1.349 . S
C2718 C2716 1.327 . S
C2718 C2737 1.429 . S
C2718 H2742 0.950 . S
C2719 C2736 1.574 . S
C2719 C2738 1.368 . S
C2719 H2743 0.949 . S
H2720 C2724 0.949 . S
C2721 C2722 1.349 . S
C2721 C2723 1.327 . S
C2721 H2744 0.950 . S
C2722 C2721 1.349 . S
C2722 C2734 1.349 . S
C2723 C2721 1.327 . S
C2723 C2739 1.429 . S
C2723 H2745 0.950 . S
C2724 H2720 0.949 . S
C2724 C2732 1.574 . S
C2724 C2740 1.368 . S
H2725 C2733 0.950 . S
H2726 C2731 0.950 . S
H2727 C2732 0.949 . S
H2728 C2734 0.950 . S
H2729 C2735 0.950 . S
H2730 C2736 0.949 . S
C2731 H2726 0.950 . S
C2731 C2733 1.327 . S
C2731 C2737 1.429 . S
C2732 C2724 1.574 . S
C2732 H2727 0.949 . S
C2732 C2738 1.368 . S
C2733 C2717 1.349 . S
C2733 H2725 0.950 . S
C2733 C2731 1.327 . S
C2734 C2722 1.349 . S
C2734 H2728 0.950 . S
C2734 C2735 1.327 . S
C2735 H2729 0.950 . S
C2735 C2734 1.327 . S
C2735 C2739 1.429 . S
C2736 C2719 1.574 . S
C2736 H2730 0.949 . S
C2736 C2740 1.368 . S
C2737 C2718 1.429 . S
C2737 C2731 1.429 . S
C2737 C2738 1.523 . S
C2738 C2719 1.368 . S
C2738 C2732 1.368 . S
C2738 C2737 1.523 . S
C2739 C2723 1.429 . S
C2739 C2735 1.429 . S
C2739 C2740 1.523 . S
C2740 C2724 1.368 . S
C2740 C2736 1.368 . S
C2740 C2739 1.523 . S
H2741 C2716 0.950 . S
H2742 C2718 0.950 . S
H2743 C2719 0.949 . S
H2744 C2721 0.950 . S
H2745 C2723 0.950 . S
C2746 C2747 1.349 . S
C2746 C2748 1.327 . S
C2746 H2771 0.950 . S
C2747 C2746 1.349 . S
C2747 C2763 1.349 . S
C2748 C2746 1.327 . S
C2748 C2767 1.429 . S
C2748 H2772 0.950 . S
C2749 C2766 1.574 . S
C2749 C2768 1.368 . S
C2749 H2773 0.949 . S
H2750 C2754 0.949 . S
C2751 C2752 1.349 . S
C2751 C2753 1.327 . S
C2751 H2774 0.950 . S
C2752 C2751 1.349 . S
C2752 C2764 1.349 . S
C2753 C2751 1.327 . S
C2753 C2769 1.429 . S
C2753 H2775 0.950 . S
C2754 H2750 0.949 . S
C2754 C2762 1.574 . S
C2754 C2770 1.368 . S
H2755 C2763 0.950 . S
H2756 C2761 0.950 . S
H2757 C2762 0.949 . S
H2758 C2764 0.950 . S
H2759 C2765 0.950 . S
H2760 C2766 0.949 . S
C2761 H2756 0.950 . S
C2761 C2763 1.327 . S
C2761 C2767 1.429 . S
C2762 C2754 1.574 . S
C2762 H2757 0.949 . S
C2762 C2768 1.368 . S
C2763 C2747 1.349 . S
C2763 H2755 0.950 . S
C2763 C2761 1.327 . S
C2764 C2752 1.349 . S
C2764 H2758 0.950 . S
C2764 C2765 1.327 . S
C2765 H2759 0.950 . S
C2765 C2764 1.327 . S
C2765 C2769 1.429 . S
C2766 C2749 1.574 . S
C2766 H2760 0.949 . S
C2766 C2770 1.368 . S
C2767 C2748 1.429 . S
C2767 C2761 1.429 . S
C2767 C2768 1.523 . S
C2768 C2749 1.368 . S
C2768 C2762 1.368 . S
C2768 C2767 1.523 . S
C2769 C2753 1.429 . S
C2769 C2765 1.429 . S
C2769 C2770 1.523 . S
C2770 C2754 1.368 . S
C2770 C2766 1.368 . S
C2770 C2769 1.523 . S
H2771 C2746 0.950 . S
H2772 C2748 0.950 . S
H2773 C2749 0.949 . S
H2774 C2751 0.950 . S
H2775 C2753 0.950 . S
C2776 C2777 1.349 . S
C2776 C2778 1.327 . S
C2776 H2801 0.950 . S
C2777 C2776 1.349 . S
C2777 C2793 1.349 . S
C2778 C2776 1.327 . S
C2778 C2797 1.429 . S
C2778 H2802 0.950 . S
C2779 C2796 1.574 . S
C2779 C2798 1.368 . S
C2779 H2803 0.949 . S
H2780 C2784 0.949 . S
C2781 C2782 1.349 . S
C2781 C2783 1.327 . S
C2781 H2804 0.950 . S
C2782 C2781 1.349 . S
C2782 C2794 1.349 . S
C2783 C2781 1.327 . S
C2783 C2799 1.429 . S
C2783 H2805 0.950 . S
C2784 H2780 0.949 . S
C2784 C2792 1.574 . S
C2784 C2800 1.368 . S
H2785 C2793 0.950 . S
H2786 C2791 0.950 . S
H2787 C2792 0.949 . S
H2788 C2794 0.950 . S
H2789 C2795 0.950 . S
H2790 C2796 0.949 . S
C2791 H2786 0.950 . S
C2791 C2793 1.327 . S
C2791 C2797 1.429 . S
C2792 C2784 1.574 . S
C2792 H2787 0.949 . S
C2792 C2798 1.368 . S
C2793 C2777 1.349 . S
C2793 H2785 0.950 . S
C2793 C2791 1.327 . S
C2794 C2782 1.349 . S
C2794 H2788 0.950 . S
C2794 C2795 1.327 . S
C2795 H2789 0.950 . S
C2795 C2794 1.327 . S
C2795 C2799 1.429 . S
C2796 C2779 1.574 . S
C2796 H2790 0.949 . S
C2796 C2800 1.368 . S
C2797 C2778 1.429 . S
C2797 C2791 1.429 . S
C2797 C2798 1.523 . S
C2798 C2779 1.368 . S
C2798 C2792 1.368 . S
C2798 C2797 1.523 . S
C2799 C2783 1.429 . S
C2799 C2795 1.429 . S
C2799 C2800 1.523 . S
C2800 C2784 1.368 . S
C2800 C2796 1.368 . S
C2800 C2799 1.523 . S
H2801 C2776 0.950 . S
H2802 C2778 0.950 . S
H2803 C2779 0.949 . S
H2804 C2781 0.950 . S
H2805 C2783 0.950 . S
C2806 C2807 1.349 . S
C2806 C2808 1.327 . S
C2806 H2831 0.950 . S
C2807 C2806 1.349 . S
C2807 C2823 1.349 . S
C2808 C2806 1.327 . S
C2808 C2827 1.429 . S
C2808 H2832 0.950 . S
C2809 C2826 1.574 . S
C2809 C2828 1.368 . S
C2809 H2833 0.949 . S
H2810 C2814 0.949 . S
C2811 C2812 1.349 . S
C2811 C2813 1.327 . S
C2811 H2834 0.950 . S
C2812 C2811 1.349 . S
C2812 C2824 1.349 . S
C2813 C2811 1.327 . S
C2813 C2829 1.429 . S
C2813 H2835 0.950 . S
C2814 H2810 0.949 . S
C2814 C2822 1.574 . S
C2814 C2830 1.368 . S
H2815 C2823 0.950 . S
H2816 C2821 0.950 . S
H2817 C2822 0.949 . S
H2818 C2824 0.950 . S
H2819 C2825 0.950 . S
H2820 C2826 0.949 . S
C2821 H2816 0.950 . S
C2821 C2823 1.327 . S
C2821 C2827 1.429 . S
C2822 C2814 1.574 . S
C2822 H2817 0.949 . S
C2822 C2828 1.368 . S
C2823 C2807 1.349 . S
C2823 H2815 0.950 . S
C2823 C2821 1.327 . S
C2824 C2812 1.349 . S
C2824 H2818 0.950 . S
C2824 C2825 1.327 . S
C2825 H2819 0.950 . S
C2825 C2824 1.327 . S
C2825 C2829 1.429 . S
C2826 C2809 1.574 . S
C2826 H2820 0.949 . S
C2826 C2830 1.368 . S
C2827 C2808 1.429 . S
C2827 C2821 1.429 . S
C2827 C2828 1.523 . S
C2828 C2809 1.368 . S
C2828 C2822 1.368 . S
C2828 C2827 1.523 . S
C2829 C2813 1.429 . S
C2829 C2825 1.429 . S
C2829 C2830 1.523 . S
C2830 C2814 1.368 . S
C2830 C2826 1.368 . S
C2830 C2829 1.523 . S
H2831 C2806 0.950 . S
H2832 C2808 0.950 . S
H2833 C2809 0.949 . S
H2834 C2811 0.950 . S
H2835 C2813 0.950 . S
C2836 C2837 1.349 . S
C2836 C2838 1.327 . S
C2836 H2861 0.950 . S
C2837 C2836 1.349 . S
C2837 C2853 1.349 . S
C2838 C2836 1.327 . S
C2838 C2857 1.429 . S
C2838 H2862 0.950 . S
C2839 C2856 1.574 . S
C2839 C2858 1.368 . S
C2839 H2863 0.949 . S
H2840 C2844 0.949 . S
C2841 C2842 1.349 . S
C2841 C2843 1.327 . S
C2841 H2864 0.950 . S
C2842 C2841 1.349 . S
C2842 C2854 1.349 . S
C2843 C2841 1.327 . S
C2843 C2859 1.429 . S
C2843 H2865 0.950 . S
C2844 H2840 0.949 . S
C2844 C2852 1.574 . S
C2844 C2860 1.368 . S
H2845 C2853 0.950 . S
H2846 C2851 0.950 . S
H2847 C2852 0.949 . S
H2848 C2854 0.950 . S
H2849 C2855 0.950 . S
H2850 C2856 0.949 . S
C2851 H2846 0.950 . S
C2851 C2853 1.327 . S
C2851 C2857 1.429 . S
C2852 C2844 1.574 . S
C2852 H2847 0.949 . S
C2852 C2858 1.368 . S
C2853 C2837 1.349 . S
C2853 H2845 0.950 . S
C2853 C2851 1.327 . S
C2854 C2842 1.349 . S
C2854 H2848 0.950 . S
C2854 C2855 1.327 . S
C2855 H2849 0.950 . S
C2855 C2854 1.327 . S
C2855 C2859 1.429 . S
C2856 C2839 1.574 . S
C2856 H2850 0.949 . S
C2856 C2860 1.368 . S
C2857 C2838 1.429 . S
C2857 C2851 1.429 . S
C2857 C2858 1.523 . S
C2858 C2839 1.368 . S
C2858 C2852 1.368 . S
C2858 C2857 1.523 . S
C2859 C2843 1.429 . S
C2859 C2855 1.429 . S
C2859 C2860 1.523 . S
C2860 C2844 1.368 . S
C2860 C2856 1.368 . S
C2860 C2859 1.523 . S
H2861 C2836 0.950 . S
H2862 C2838 0.950 . S
H2863 C2839 0.949 . S
H2864 C2841 0.950 . S
H2865 C2843 0.950 . S
C2866 C2867 1.349 . S
C2866 C2868 1.327 . S
C2866 H2891 0.950 . S
C2867 C2866 1.349 . S
C2867 C2883 1.349 . S
C2868 C2866 1.327 . S
C2868 C2887 1.429 . S
C2868 H2892 0.950 . S
C2869 C2886 1.574 . S
C2869 C2888 1.368 . S
C2869 H2893 0.949 . S
H2870 C2874 0.949 . S
C2871 C2872 1.349 . S
C2871 C2873 1.327 . S
C2871 H2894 0.950 . S
C2872 C2871 1.349 . S
C2872 C2884 1.349 . S
C2873 C2871 1.327 . S
C2873 C2889 1.429 . S
C2873 H2895 0.950 . S
C2874 H2870 0.949 . S
C2874 C2882 1.574 . S
C2874 C2890 1.368 . S
H2875 C2883 0.950 . S
H2876 C2881 0.950 . S
H2877 C2882 0.949 . S
H2878 C2884 0.950 . S
H2879 C2885 0.950 . S
H2880 C2886 0.949 . S
C2881 H2876 0.950 . S
C2881 C2883 1.327 . S
C2881 C2887 1.429 . S
C2882 C2874 1.574 . S
C2882 H2877 0.949 . S
C2882 C2888 1.368 . S
C2883 C2867 1.349 . S
C2883 H2875 0.950 . S
C2883 C2881 1.327 . S
C2884 C2872 1.349 . S
C2884 H2878 0.950 . S
C2884 C2885 1.327 . S
C2885 H2879 0.950 . S
C2885 C2884 1.327 . S
C2885 C2889 1.429 . S
C2886 C2869 1.574 . S
C2886 H2880 0.949 . S
C2886 C2890 1.368 . S
C2887 C2868 1.429 . S
C2887 C2881 1.429 . S
C2887 C2888 1.523 . S
C2888 C2869 1.368 . S
C2888 C2882 1.368 . S
C2888 C2887 1.523 . S
C2889 C2873 1.429 . S
C2889 C2885 1.429 . S
C2889 C2890 1.523 . S
C2890 C2874 1.368 . S
C2890 C2886 1.368 . S
C2890 C2889 1.523 . S
H2891 C2866 0.950 . S
H2892 C2868 0.950 . S
H2893 C2869 0.949 . S
H2894 C2871 0.950 . S
H2895 C2873 0.950 . S
C2896 C2897 1.349 . S
C2896 C2898 1.327 . S
C2896 H2921 0.950 . S
C2897 C2896 1.349 . S
C2897 C2913 1.349 . S
C2898 C2896 1.327 . S
C2898 C2917 1.429 . S
C2898 H2922 0.950 . S
C2899 C2916 1.574 . S
C2899 C2918 1.368 . S
C2899 H2923 0.949 . S
H2900 C2904 0.949 . S
C2901 C2902 1.349 . S
C2901 C2903 1.327 . S
C2901 H2924 0.950 . S
C2902 C2901 1.349 . S
C2902 C2914 1.349 . S
C2903 C2901 1.327 . S
C2903 C2919 1.429 . S
C2903 H2925 0.950 . S
C2904 H2900 0.949 . S
C2904 C2912 1.574 . S
C2904 C2920 1.368 . S
H2905 C2913 0.950 . S
H2906 C2911 0.950 . S
H2907 C2912 0.949 . S
H2908 C2914 0.950 . S
H2909 C2915 0.950 . S
H2910 C2916 0.949 . S
C2911 H2906 0.950 . S
C2911 C2913 1.327 . S
C2911 C2917 1.429 . S
C2912 C2904 1.574 . S
C2912 H2907 0.949 . S
C2912 C2918 1.368 . S
C2913 C2897 1.349 . S
C2913 H2905 0.950 . S
C2913 C2911 1.327 . S
C2914 C2902 1.349 . S
C2914 H2908 0.950 . S
C2914 C2915 1.327 . S
C2915 H2909 0.950 . S
C2915 C2914 1.327 . S
C2915 C2919 1.429 . S
C2916 C2899 1.574 . S
C2916 H2910 0.949 . S
C2916 C2920 1.368 . S
C2917 C2898 1.429 . S
C2917 C2911 1.429 . S
C2917 C2918 1.523 . S
C2918 C2899 1.368 . S
C2918 C2912 1.368 . S
C2918 C2917 1.523 . S
C2919 C2903 1.429 . S
C2919 C2915 1.429 . S
C2919 C2920 1.523 . S
C2920 C2904 1.368 . S
C2920 C2916 1.368 . S
C2920 C2919 1.523 . S
H2921 C2896 0.950 . S
H2922 C2898 0.950 . S
H2923 C2899 0.949 . S
H2924 C2901 0.950 . S
H2925 C2903 0.950 . S
C2926 C2927 1.349 . S
C2926 C2928 1.327 . S
C2926 H2951 0.950 . S
C2927 C2926 1.349 . S
C2927 C2943 1.349 . S
C2928 C2926 1.327 . S
C2928 C2947 1.429 . S
C2928 H2952 0.950 . S
C2929 C2946 1.574 . S
C2929 C2948 1.368 . S
C2929 H2953 0.949 . S
H2930 C2934 0.949 . S
C2931 C2932 1.349 . S
C2931 C2933 1.327 . S
C2931 H2954 0.950 . S
C2932 C2931 1.349 . S
C2932 C2944 1.349 . S
C2933 C2931 1.327 . S
C2933 C2949 1.429 . S
C2933 H2955 0.950 . S
C2934 H2930 0.949 . S
C2934 C2942 1.574 . S
C2934 C2950 1.368 . S
H2935 C2943 0.950 . S
H2936 C2941 0.950 . S
H2937 C2942 0.949 . S
H2938 C2944 0.950 . S
H2939 C2945 0.950 . S
H2940 C2946 0.949 . S
C2941 H2936 0.950 . S
C2941 C2943 1.327 . S
C2941 C2947 1.429 . S
C2942 C2934 1.574 . S
C2942 H2937 0.949 . S
C2942 C2948 1.368 . S
C2943 C2927 1.349 . S
C2943 H2935 0.950 . S
C2943 C2941 1.327 . S
C2944 C2932 1.349 . S
C2944 H2938 0.950 . S
C2944 C2945 1.327 . S
C2945 H2939 0.950 . S
C2945 C2944 1.327 . S
C2945 C2949 1.429 . S
C2946 C2929 1.574 . S
C2946 H2940 0.949 . S
C2946 C2950 1.368 . S
C2947 C2928 1.429 . S
C2947 C2941 1.429 . S
C2947 C2948 1.523 . S
C2948 C2929 1.368 . S
C2948 C2942 1.368 . S
C2948 C2947 1.523 . S
C2949 C2933 1.429 . S
C2949 C2945 1.429 . S
C2949 C2950 1.523 . S
C2950 C2934 1.368 . S
C2950 C2946 1.368 . S
C2950 C2949 1.523 . S
H2951 C2926 0.950 . S
H2952 C2928 0.950 . S
H2953 C2929 0.949 . S
H2954 C2931 0.950 . S
H2955 C2933 0.950 . S
C2956 C2957 1.349 . S
C2956 C2958 1.327 1_545 S
C2956 H2981 0.950 . S
C2957 C2956 1.349 . S
C2957 C2973 1.349 . S
C2958 C2956 1.327 1_565 S
C2958 C2977 1.429 1_565 S
C2958 H2982 0.950 . S
C2959 C2976 1.574 . S
C2959 C2978 1.368 . S
C2959 H2983 0.949 1_565 S
H2960 C2964 0.949 . S
C2961 C2962 1.349 . S
C2961 C2963 1.327 . S
C2961 H2984 0.950 . S
C2962 C2961 1.349 . S
C2962 C2974 1.349 . S
C2963 C2961 1.327 . S
C2963 C2979 1.429 . S
C2963 H2985 0.950 . S
C2964 H2960 0.949 . S
C2964 C2972 1.574 . S
C2964 C2980 1.368 . S
H2965 C2973 0.950 . S
H2966 C2971 0.950 . S
H2967 C2972 0.949 . S
H2968 C2974 0.950 . S
H2969 C2975 0.950 . S
H2970 C2976 0.949 . S
C2971 H2966 0.950 . S
C2971 C2973 1.327 . S
C2971 C2977 1.429 . S
C2972 C2964 1.574 . S
C2972 H2967 0.949 . S
C2972 C2978 1.368 . S
C2973 C2957 1.349 . S
C2973 H2965 0.950 . S
C2973 C2971 1.327 . S
C2974 C2962 1.349 . S
C2974 H2968 0.950 . S
C2974 C2975 1.327 . S
C2975 H2969 0.950 . S
C2975 C2974 1.327 . S
C2975 C2979 1.429 . S
C2976 C2959 1.574 . S
C2976 H2970 0.949 . S
C2976 C2980 1.368 . S
C2977 C2958 1.429 1_545 S
C2977 C2971 1.429 . S
C2977 C2978 1.523 1_545 S
C2978 C2959 1.368 . S
C2978 C2972 1.368 . S
C2978 C2977 1.523 1_565 S
C2979 C2963 1.429 . S
C2979 C2975 1.429 . S
C2979 C2980 1.523 . S
C2980 C2964 1.368 . S
C2980 C2976 1.368 . S
C2980 C2979 1.523 . S
H2981 C2956 0.950 . S
H2982 C2958 0.950 . S
H2983 C2959 0.949 1_545 S
H2984 C2961 0.950 . S
H2985 C2963 0.950 . S
C2986 C2987 1.349 . S
C2986 C2988 1.327 . S
C2986 H3011 0.950 . S
C2987 C2986 1.349 . S
C2987 C3003 1.349 . S
C2988 C2986 1.327 . S
C2988 C3007 1.429 . S
C2988 H3012 0.950 . S
C2989 C3006 1.574 1_565 S
C2989 C3008 1.368 . S
C2989 H3013 0.949 . S
H2990 C2994 0.949 . S
C2991 C2992 1.349 . S
C2991 C2993 1.327 . S
C2991 H3014 0.950 . S
C2992 C2991 1.349 . S
C2992 C3004 1.349 . S
C2993 C2991 1.327 . S
C2993 C3009 1.429 . S
C2993 H3015 0.950 . S
C2994 H2990 0.949 . S
C2994 C3002 1.574 1_545 S
C2994 C3010 1.368 . S
H2995 C3003 0.950 . S
H2996 C3001 0.950 . S
H2997 C3002 0.949 . S
H2998 C3004 0.950 . S
H2999 C3005 0.950 . S
H3000 C3006 0.949 . S
C3001 H2996 0.950 . S
C3001 C3003 1.327 . S
C3001 C3007 1.429 . S
C3002 C2994 1.574 1_565 S
C3002 H2997 0.949 . S
C3002 C3008 1.368 . S
C3003 C2987 1.349 . S
C3003 H2995 0.950 . S
C3003 C3001 1.327 . S
C3004 C2992 1.349 . S
C3004 H2998 0.950 . S
C3004 C3005 1.327 . S
C3005 H2999 0.950 . S
C3005 C3004 1.327 . S
C3005 C3009 1.429 . S
C3006 C2989 1.574 1_545 S
C3006 H3000 0.949 . S
C3006 C3010 1.368 . S
C3007 C2988 1.429 . S
C3007 C3001 1.429 . S
C3007 C3008 1.523 . S
C3008 C2989 1.368 . S
C3008 C3002 1.368 . S
C3008 C3007 1.523 . S
C3009 C2993 1.429 . S
C3009 C3005 1.429 . S
C3009 C3010 1.523 . S
C3010 C2994 1.368 . S
C3010 C3006 1.368 . S
C3010 C3009 1.523 . S
H3011 C2986 0.950 . S
H3012 C2988 0.950 . S
H3013 C2989 0.949 . S
H3014 C2991 0.950 . S
H3015 C2993 0.950 . S
C3016 C3017 1.349 . S
C3016 C3018 1.327 . S
C3016 H3041 0.950 . S
C3017 C3016 1.349 . S
C3017 C3033 1.349 . S
C3018 C3016 1.327 . S
C3018 C3037 1.429 . S
C3018 H3042 0.950 . S
C3019 C3036 1.574 . S
C3019 C3038 1.368 . S
C3019 H3043 0.949 . S
H3020 C3024 0.949 . S
C3021 C3022 1.349 . S
C3021 C3023 1.327 . S
C3021 H3044 0.950 . S
C3022 C3021 1.349 . S
C3022 C3034 1.349 . S
C3023 C3021 1.327 . S
C3023 C3039 1.429 . S
C3023 H3045 0.950 . S
C3024 H3020 0.949 . S
C3024 C3032 1.574 . S
C3024 C3040 1.368 . S
H3025 C3033 0.950 . S
H3026 C3031 0.950 . S
H3027 C3032 0.949 . S
H3028 C3034 0.950 . S
H3029 C3035 0.950 . S
H3030 C3036 0.949 . S
C3031 H3026 0.950 . S
C3031 C3033 1.327 . S
C3031 C3037 1.429 . S
C3032 C3024 1.574 . S
C3032 H3027 0.949 . S
C3032 C3038 1.368 . S
C3033 C3017 1.349 . S
C3033 H3025 0.950 . S
C3033 C3031 1.327 . S
C3034 C3022 1.349 . S
C3034 H3028 0.950 . S
C3034 C3035 1.327 . S
C3035 H3029 0.950 . S
C3035 C3034 1.327 . S
C3035 C3039 1.429 . S
C3036 C3019 1.574 . S
C3036 H3030 0.949 . S
C3036 C3040 1.368 . S
C3037 C3018 1.429 . S
C3037 C3031 1.429 . S
C3037 C3038 1.523 . S
C3038 C3019 1.368 . S
C3038 C3032 1.368 . S
C3038 C3037 1.523 . S
C3039 C3023 1.429 . S
C3039 C3035 1.429 . S
C3039 C3040 1.523 . S
C3040 C3024 1.368 . S
C3040 C3036 1.368 . S
C3040 C3039 1.523 . S
H3041 C3016 0.950 . S
H3042 C3018 0.950 . S
H3043 C3019 0.949 . S
H3044 C3021 0.950 . S
H3045 C3023 0.950 . S
C3046 C3047 1.349 . S
C3046 C3048 1.327 . S
C3046 H3071 0.950 . S
C3047 C3046 1.349 . S
C3047 C3063 1.349 . S
C3048 C3046 1.327 . S
C3048 C3067 1.429 . S
C3048 H3072 0.950 . S
C3049 C3066 1.574 . S
C3049 C3068 1.368 . S
C3049 H3073 0.949 . S
H3050 C3054 0.949 . S
C3051 C3052 1.349 . S
C3051 C3053 1.327 . S
C3051 H3074 0.950 . S
C3052 C3051 1.349 . S
C3052 C3064 1.349 . S
C3053 C3051 1.327 . S
C3053 C3069 1.429 . S
C3053 H3075 0.950 . S
C3054 H3050 0.949 . S
C3054 C3062 1.574 . S
C3054 C3070 1.368 . S
H3055 C3063 0.950 . S
H3056 C3061 0.950 . S
H3057 C3062 0.949 . S
H3058 C3064 0.950 . S
H3059 C3065 0.950 . S
H3060 C3066 0.949 . S
C3061 H3056 0.950 . S
C3061 C3063 1.327 . S
C3061 C3067 1.429 . S
C3062 C3054 1.574 . S
C3062 H3057 0.949 . S
C3062 C3068 1.368 . S
C3063 C3047 1.349 . S
C3063 H3055 0.950 . S
C3063 C3061 1.327 . S
C3064 C3052 1.349 . S
C3064 H3058 0.950 . S
C3064 C3065 1.327 . S
C3065 H3059 0.950 . S
C3065 C3064 1.327 . S
C3065 C3069 1.429 . S
C3066 C3049 1.574 . S
C3066 H3060 0.949 . S
C3066 C3070 1.368 . S
C3067 C3048 1.429 . S
C3067 C3061 1.429 . S
C3067 C3068 1.523 . S
C3068 C3049 1.368 . S
C3068 C3062 1.368 . S
C3068 C3067 1.523 . S
C3069 C3053 1.429 . S
C3069 C3065 1.429 . S
C3069 C3070 1.523 . S
C3070 C3054 1.368 . S
C3070 C3066 1.368 . S
C3070 C3069 1.523 . S
H3071 C3046 0.950 . S
H3072 C3048 0.950 . S
H3073 C3049 0.949 . S
H3074 C3051 0.950 . S
H3075 C3053 0.950 . S
C3076 C3077 1.349 . S
C3076 C3078 1.327 . S
C3076 H3101 0.950 . S
C3077 C3076 1.349 . S
C3077 C3093 1.349 . S
C3078 C3076 1.327 . S
C3078 C3097 1.429 . S
C3078 H3102 0.950 . S
C3079 C3096 1.574 . S
C3079 C3098 1.368 . S
C3079 H3103 0.949 . S
H3080 C3084 0.949 . S
C3081 C3082 1.349 . S
C3081 C3083 1.327 . S
C3081 H3104 0.950 . S
C3082 C3081 1.349 . S
C3082 C3094 1.349 . S
C3083 C3081 1.327 . S
C3083 C3099 1.429 . S
C3083 H3105 0.950 . S
C3084 H3080 0.949 . S
C3084 C3092 1.574 . S
C3084 C3100 1.368 . S
H3085 C3093 0.950 . S
H3086 C3091 0.950 . S
H3087 C3092 0.949 . S
H3088 C3094 0.950 . S
H3089 C3095 0.950 . S
H3090 C3096 0.949 . S
C3091 H3086 0.950 . S
C3091 C3093 1.327 . S
C3091 C3097 1.429 . S
C3092 C3084 1.574 . S
C3092 H3087 0.949 . S
C3092 C3098 1.368 . S
C3093 C3077 1.349 . S
C3093 H3085 0.950 . S
C3093 C3091 1.327 . S
C3094 C3082 1.349 . S
C3094 H3088 0.950 . S
C3094 C3095 1.327 . S
C3095 H3089 0.950 . S
C3095 C3094 1.327 . S
C3095 C3099 1.429 . S
C3096 C3079 1.574 . S
C3096 H3090 0.949 . S
C3096 C3100 1.368 . S
C3097 C3078 1.429 . S
C3097 C3091 1.429 . S
C3097 C3098 1.523 . S
C3098 C3079 1.368 . S
C3098 C3092 1.368 . S
C3098 C3097 1.523 . S
C3099 C3083 1.429 . S
C3099 C3095 1.429 . S
C3099 C3100 1.523 . S
C3100 C3084 1.368 . S
C3100 C3096 1.368 . S
C3100 C3099 1.523 . S
H3101 C3076 0.950 . S
H3102 C3078 0.950 . S
H3103 C3079 0.949 . S
H3104 C3081 0.950 . S
H3105 C3083 0.950 . S
C3106 C3107 1.349 . S
C3106 C3108 1.327 . S
C3106 H3131 0.950 . S
C3107 C3106 1.349 . S
C3107 C3123 1.349 . S
C3108 C3106 1.327 . S
C3108 C3127 1.429 . S
C3108 H3132 0.950 . S
C3109 C3126 1.574 1_545 S
C3109 C3128 1.368 . S
C3109 H3133 0.949 . S
H3110 C3114 0.954 . S
C3111 C3112 1.349 . S
C3111 C3113 1.327 . S
C3111 H3134 0.950 . S
C3112 C3111 1.349 . S
C3112 C3124 1.349 . S
C3113 C3111 1.327 . S
C3113 C3129 1.429 . S
C3113 H3135 0.950 . S
C3114 H3110 0.954 . S
C3114 C3122 1.552 1_565 S
C3114 C3130 1.385 . S
H3115 C3123 0.950 . S
H3116 C3121 0.950 . S
H3117 C3122 0.949 . S
H3118 C3124 0.950 . S
H3119 C3125 0.950 . S
H3120 C3126 0.949 . S
C3121 H3116 0.950 . S
C3121 C3123 1.327 . S
C3121 C3127 1.429 . S
C3122 C3114 1.552 1_545 S
C3122 H3117 0.949 . S
C3122 C3128 1.368 . S
C3123 C3107 1.349 . S
C3123 H3115 0.950 . S
C3123 C3121 1.327 . S
C3124 C3112 1.349 . S
C3124 H3118 0.950 . S
C3124 C3125 1.327 . S
C3125 H3119 0.950 . S
C3125 C3124 1.327 . S
C3125 C3129 1.429 . S
C3126 C3109 1.574 1_565 S
C3126 H3120 0.949 . S
C3126 C3130 1.368 . S
C3127 C3108 1.429 . S
C3127 C3121 1.429 . S
C3127 C3128 1.523 . S
C3128 C3109 1.368 . S
C3128 C3122 1.368 . S
C3128 C3127 1.523 . S
C3129 C3113 1.429 . S
C3129 C3125 1.429 . S
C3129 C3130 1.523 . S
C3130 C3114 1.385 . S
C3130 C3126 1.368 . S
C3130 C3129 1.523 . S
H3131 C3106 0.950 . S
H3132 C3108 0.950 . S
H3133 C3109 0.949 . S
H3134 C3111 0.950 . S
H3135 C3113 0.950 . S
C3136 C3137 1.349 . S
C3136 C3138 1.327 . S
C3136 H3161 0.950 . S
C3137 C3136 1.349 . S
C3137 C3153 1.349 . S
C3138 C3136 1.327 . S
C3138 C3157 1.429 . S
C3138 H3162 0.950 . S
C3139 C3156 1.574 . S
C3139 C3158 1.368 . S
C3139 H3163 0.949 . S
H3140 C3144 0.949 . S
C3141 C3142 1.349 . S
C3141 C3143 1.327 . S
C3141 H3164 0.950 . S
C3142 C3141 1.349 . S
C3142 C3154 1.349 . S
C3143 C3141 1.327 . S
C3143 C3159 1.429 . S
C3143 H3165 0.950 . S
C3144 H3140 0.949 . S
C3144 C3152 1.574 . S
C3144 C3160 1.368 . S
H3145 C3153 0.950 . S
H3146 C3151 0.950 . S
H3147 C3152 0.949 . S
H3148 C3154 0.950 . S
H3149 C3155 0.950 . S
H3150 C3156 0.949 . S
C3151 H3146 0.950 . S
C3151 C3153 1.327 . S
C3151 C3157 1.429 . S
C3152 C3144 1.574 . S
C3152 H3147 0.949 . S
C3152 C3158 1.368 . S
C3153 C3137 1.349 . S
C3153 H3145 0.950 . S
C3153 C3151 1.327 . S
C3154 C3142 1.349 . S
C3154 H3148 0.950 . S
C3154 C3155 1.327 . S
C3155 H3149 0.950 . S
C3155 C3154 1.327 . S
C3155 C3159 1.429 . S
C3156 C3139 1.574 . S
C3156 H3150 0.949 . S
C3156 C3160 1.368 . S
C3157 C3138 1.429 . S
C3157 C3151 1.429 . S
C3157 C3158 1.523 . S
C3158 C3139 1.368 . S
C3158 C3152 1.368 . S
C3158 C3157 1.523 . S
C3159 C3143 1.429 . S
C3159 C3155 1.429 . S
C3159 C3160 1.523 . S
C3160 C3144 1.368 . S
C3160 C3156 1.368 . S
C3160 C3159 1.523 . S
H3161 C3136 0.950 . S
H3162 C3138 0.950 . S
H3163 C3139 0.949 . S
H3164 C3141 0.950 . S
H3165 C3143 0.950 . S
C3166 C3167 1.349 . S
C3166 C3168 1.327 . S
C3166 H3191 0.950 . S
C3167 C3166 1.349 . S
C3167 C3183 1.349 . S
C3168 C3166 1.327 . S
C3168 C3187 1.429 . S
C3168 H3192 0.950 . S
C3169 C3186 1.574 . S
C3169 C3188 1.368 . S
C3169 H3193 0.949 . S
H3170 C3174 0.949 . S
C3171 C3172 1.349 . S
C3171 C3173 1.327 . S
C3171 H3194 0.950 . S
C3172 C3171 1.349 . S
C3172 C3184 1.349 . S
C3173 C3171 1.327 . S
C3173 C3189 1.429 . S
C3173 H3195 0.950 . S
C3174 H3170 0.949 . S
C3174 C3182 1.574 . S
C3174 C3190 1.368 . S
H3175 C3183 0.950 . S
H3176 C3181 0.950 . S
H3177 C3182 0.949 . S
H3178 C3184 0.950 . S
H3179 C3185 0.950 . S
H3180 C3186 0.949 . S
C3181 H3176 0.950 . S
C3181 C3183 1.327 . S
C3181 C3187 1.429 . S
C3182 C3174 1.574 . S
C3182 H3177 0.949 . S
C3182 C3188 1.368 . S
C3183 C3167 1.349 . S
C3183 H3175 0.950 . S
C3183 C3181 1.327 . S
C3184 C3172 1.349 . S
C3184 H3178 0.950 . S
C3184 C3185 1.327 . S
C3185 H3179 0.950 . S
C3185 C3184 1.327 . S
C3185 C3189 1.429 . S
C3186 C3169 1.574 . S
C3186 H3180 0.949 . S
C3186 C3190 1.368 . S
C3187 C3168 1.429 . S
C3187 C3181 1.429 . S
C3187 C3188 1.523 . S
C3188 C3169 1.368 . S
C3188 C3182 1.368 . S
C3188 C3187 1.523 . S
C3189 C3173 1.429 . S
C3189 C3185 1.429 . S
C3189 C3190 1.523 . S
C3190 C3174 1.368 . S
C3190 C3186 1.368 . S
C3190 C3189 1.523 . S
H3191 C3166 0.950 . S
H3192 C3168 0.950 . S
H3193 C3169 0.949 . S
H3194 C3171 0.950 . S
H3195 C3173 0.950 . S
C3196 C3197 1.349 . S
C3196 C3198 1.327 . S
C3196 H3221 0.950 . S
C3197 C3196 1.349 . S
C3197 C3213 1.349 . S
C3198 C3196 1.327 . S
C3198 C3217 1.429 . S
C3198 H3222 0.950 . S
C3199 C3216 1.574 . S
C3199 C3218 1.368 . S
C3199 H3223 0.949 . S
H3200 C3204 0.949 . S
C3201 C3202 1.349 . S
C3201 C3203 1.327 . S
C3201 H3224 0.950 . S
C3202 C3201 1.349 . S
C3202 C3214 1.349 . S
C3203 C3201 1.327 . S
C3203 C3219 1.429 . S
C3203 H3225 0.950 . S
C3204 H3200 0.949 . S
C3204 C3212 1.574 . S
C3204 C3220 1.368 . S
H3205 C3213 0.950 . S
H3206 C3211 0.950 . S
H3207 C3212 0.949 . S
H3208 C3214 0.950 . S
H3209 C3215 0.950 . S
H3210 C3216 0.949 . S
C3211 H3206 0.950 . S
C3211 C3213 1.327 . S
C3211 C3217 1.429 . S
C3212 C3204 1.574 . S
C3212 H3207 0.949 . S
C3212 C3218 1.368 . S
C3213 C3197 1.349 . S
C3213 H3205 0.950 . S
C3213 C3211 1.327 . S
C3214 C3202 1.349 . S
C3214 H3208 0.950 . S
C3214 C3215 1.327 . S
C3215 H3209 0.950 . S
C3215 C3214 1.327 . S
C3215 C3219 1.429 . S
C3216 C3199 1.574 . S
C3216 H3210 0.949 . S
C3216 C3220 1.368 . S
C3217 C3198 1.429 . S
C3217 C3211 1.429 . S
C3217 C3218 1.523 . S
C3218 C3199 1.368 . S
C3218 C3212 1.368 . S
C3218 C3217 1.523 . S
C3219 C3203 1.429 . S
C3219 C3215 1.429 . S
C3219 C3220 1.523 . S
C3220 C3204 1.368 . S
C3220 C3216 1.368 . S
C3220 C3219 1.523 . S
H3221 C3196 0.950 . S
H3222 C3198 0.950 . S
H3223 C3199 0.949 . S
H3224 C3201 0.950 . S
H3225 C3203 0.950 . S
C3226 C3227 1.349 . S
C3226 C3228 1.327 . S
C3226 H3251 0.950 . S
C3227 C3226 1.349 . S
C3227 C3243 1.349 . S
C3228 C3226 1.327 . S
C3228 C3247 1.429 . S
C3228 H3252 0.950 . S
C3229 C3246 1.574 . S
C3229 C3248 1.368 . S
C3229 H3253 0.949 . S
H3230 C3234 0.949 . S
C3231 C3232 1.349 . S
C3231 C3233 1.327 . S
C3231 H3254 0.950 . S
C3232 C3231 1.349 . S
C3232 C3244 1.349 . S
C3233 C3231 1.327 . S
C3233 C3249 1.429 . S
C3233 H3255 0.950 . S
C3234 H3230 0.949 . S
C3234 C3242 1.574 . S
C3234 C3250 1.368 . S
H3235 C3243 0.950 . S
H3236 C3241 0.950 . S
H3237 C3242 0.949 . S
H3238 C3244 0.950 . S
H3239 C3245 0.950 . S
H3240 C3246 0.949 . S
C3241 H3236 0.950 . S
C3241 C3243 1.327 . S
C3241 C3247 1.429 . S
C3242 C3234 1.574 . S
C3242 H3237 0.949 . S
C3242 C3248 1.368 . S
C3243 C3227 1.349 . S
C3243 H3235 0.950 . S
C3243 C3241 1.327 . S
C3244 C3232 1.349 . S
C3244 H3238 0.950 . S
C3244 C3245 1.327 . S
C3245 H3239 0.950 . S
C3245 C3244 1.327 . S
C3245 C3249 1.429 . S
C3246 C3229 1.574 . S
C3246 H3240 0.949 . S
C3246 C3250 1.368 . S
C3247 C3228 1.429 . S
C3247 C3241 1.429 . S
C3247 C3248 1.523 . S
C3248 C3229 1.368 . S
C3248 C3242 1.368 . S
C3248 C3247 1.523 . S
C3249 C3233 1.429 . S
C3249 C3245 1.429 . S
C3249 C3250 1.523 . S
C3250 C3234 1.368 . S
C3250 C3246 1.368 . S
C3250 C3249 1.523 . S
H3251 C3226 0.950 . S
H3252 C3228 0.950 . S
H3253 C3229 0.949 . S
H3254 C3231 0.950 . S
H3255 C3233 0.950 . S
C3256 C3257 1.349 . S
C3256 C3258 1.327 . S
C3256 H3281 0.950 . S
C3257 C3256 1.349 . S
C3257 C3273 1.349 . S
C3258 C3256 1.327 . S
C3258 C3277 1.429 . S
C3258 H3282 0.950 . S
C3259 C3276 1.574 . S
C3259 C3278 1.368 . S
C3259 H3283 0.949 . S
H3260 C3264 0.949 . S
C3261 C3262 1.349 . S
C3261 C3263 1.327 . S
C3261 H3284 0.950 . S
C3262 C3261 1.349 . S
C3262 C3274 1.349 1_556 S
C3263 C3261 1.327 . S
C3263 C3279 1.429 . S
C3263 H3285 0.950 . S
C3264 H3260 0.949 . S
C3264 C3272 1.574 . S
C3264 C3280 1.368 . S
H3265 C3273 0.950 . S
H3266 C3271 0.950 . S
H3267 C3272 0.949 . S
H3268 C3274 0.950 . S
H3269 C3275 0.951 . S
H3270 C3276 0.949 . S
C3271 H3266 0.950 . S
C3271 C3273 1.327 . S
C3271 C3277 1.429 . S
C3272 C3264 1.574 . S
C3272 H3267 0.949 . S
C3272 C3278 1.368 . S
C3273 C3257 1.349 . S
C3273 H3265 0.950 . S
C3273 C3271 1.327 . S
C3274 C3262 1.349 1_554 S
C3274 H3268 0.950 . S
C3274 C3275 1.327 1_554 S
C3275 H3269 0.951 . S
C3275 C3274 1.327 1_556 S
C3275 C3279 1.429 . S
C3276 C3259 1.574 . S
C3276 H3270 0.949 . S
C3276 C3280 1.368 . S
C3277 C3258 1.429 . S
C3277 C3271 1.429 . S
C3277 C3278 1.523 . S
C3278 C3259 1.368 . S
C3278 C3272 1.368 . S
C3278 C3277 1.523 . S
C3279 C3263 1.429 . S
C3279 C3275 1.429 . S
C3279 C3280 1.523 . S
C3280 C3264 1.368 . S
C3280 C3276 1.368 . S
C3280 C3279 1.523 . S
H3281 C3256 0.950 . S
H3282 C3258 0.950 . S
H3283 C3259 0.949 . S
H3284 C3261 0.950 . S
H3285 C3263 0.950 . S
C3286 C3287 1.349 . S
C3286 C3288 1.327 . S
C3286 H3311 0.950 . S
C3287 C3286 1.349 . S
C3287 C3303 1.349 . S
C3288 C3286 1.327 . S
C3288 C3307 1.429 . S
C3288 H3312 0.950 . S
C3289 C3306 1.574 . S
C3289 C3308 1.368 . S
C3289 H3313 0.949 . S
H3290 C3294 0.949 . S
C3291 C3292 1.349 . S
C3291 C3293 1.327 . S
C3291 H3314 0.950 . S
C3292 C3291 1.349 . S
C3292 C3304 1.349 . S
C3293 C3291 1.327 . S
C3293 C3309 1.429 . S
C3293 H3315 0.950 . S
C3294 H3290 0.949 . S
C3294 C3302 1.574 . S
C3294 C3310 1.368 . S
H3295 C3303 0.950 . S
H3296 C3301 0.950 . S
H3297 C3302 0.949 . S
H3298 C3304 0.950 . S
H3299 C3305 0.950 . S
H3300 C3306 0.949 . S
C3301 H3296 0.950 . S
C3301 C3303 1.327 . S
C3301 C3307 1.429 . S
C3302 C3294 1.574 . S
C3302 H3297 0.949 . S
C3302 C3308 1.368 . S
C3303 C3287 1.349 . S
C3303 H3295 0.950 . S
C3303 C3301 1.327 . S
C3304 C3292 1.349 . S
C3304 H3298 0.950 . S
C3304 C3305 1.327 . S
C3305 H3299 0.950 . S
C3305 C3304 1.327 . S
C3305 C3309 1.429 . S
C3306 C3289 1.574 . S
C3306 H3300 0.949 . S
C3306 C3310 1.368 . S
C3307 C3288 1.429 . S
C3307 C3301 1.429 . S
C3307 C3308 1.523 . S
C3308 C3289 1.368 . S
C3308 C3302 1.368 . S
C3308 C3307 1.523 . S
C3309 C3293 1.429 . S
C3309 C3305 1.429 . S
C3309 C3310 1.523 . S
C3310 C3294 1.368 . S
C3310 C3306 1.368 . S
C3310 C3309 1.523 . S
H3311 C3286 0.950 . S
H3312 C3288 0.950 . S
H3313 C3289 0.949 . S
H3314 C3291 0.950 . S
H3315 C3293 0.950 . S
C3316 C3317 1.349 . S
C3316 C3318 1.327 . S
C3316 H3341 0.950 . S
C3317 C3316 1.349 . S
C3317 C3333 1.349 . S
C3318 C3316 1.327 . S
C3318 C3337 1.429 . S
C3318 H3342 0.950 . S
C3319 C3336 1.574 . S
C3319 C3338 1.368 . S
C3319 H3343 0.949 . S
H3320 C3324 0.949 . S
C3321 C3322 1.349 . S
C3321 C3323 1.327 . S
C3321 H3344 0.950 . S
C3322 C3321 1.349 . S
C3322 C3334 1.349 . S
C3323 C3321 1.327 . S
C3323 C3339 1.429 . S
C3323 H3345 0.950 . S
C3324 H3320 0.949 . S
C3324 C3332 1.574 . S
C3324 C3340 1.368 . S
H3325 C3333 0.950 . S
H3326 C3331 0.950 . S
H3327 C3332 0.949 . S
H3328 C3334 0.950 . S
H3329 C3335 0.950 . S
H3330 C3336 0.949 . S
C3331 H3326 0.950 . S
C3331 C3333 1.327 . S
C3331 C3337 1.429 . S
C3332 C3324 1.574 . S
C3332 H3327 0.949 . S
C3332 C3338 1.368 . S
C3333 C3317 1.349 . S
C3333 H3325 0.950 . S
C3333 C3331 1.327 . S
C3334 C3322 1.349 . S
C3334 H3328 0.950 . S
C3334 C3335 1.327 . S
C3335 H3329 0.950 . S
C3335 C3334 1.327 . S
C3335 C3339 1.429 . S
C3336 C3319 1.574 . S
C3336 H3330 0.949 . S
C3336 C3340 1.368 . S
C3337 C3318 1.429 . S
C3337 C3331 1.429 . S
C3337 C3338 1.523 . S
C3338 C3319 1.368 . S
C3338 C3332 1.368 . S
C3338 C3337 1.523 . S
C3339 C3323 1.429 . S
C3339 C3335 1.429 . S
C3339 C3340 1.523 . S
C3340 C3324 1.368 . S
C3340 C3336 1.368 . S
C3340 C3339 1.523 . S
H3341 C3316 0.950 . S
H3342 C3318 0.950 . S
H3343 C3319 0.949 . S
H3344 C3321 0.950 . S
H3345 C3323 0.950 . S
C3346 C3347 1.349 . S
C3346 C3348 1.327 . S
C3346 H3371 0.950 . S
C3347 C3346 1.349 . S
C3347 C3363 1.349 . S
C3348 C3346 1.327 . S
C3348 C3367 1.429 . S
C3348 H3372 0.950 . S
C3349 C3366 1.574 . S
C3349 C3368 1.368 . S
C3349 H3373 0.949 . S
H3350 C3354 0.949 . S
C3351 C3352 1.349 . S
C3351 C3353 1.327 . S
C3351 H3374 0.950 . S
C3352 C3351 1.349 . S
C3352 C3364 1.349 . S
C3353 C3351 1.327 . S
C3353 C3369 1.429 . S
C3353 H3375 0.950 . S
C3354 H3350 0.949 . S
C3354 C3362 1.574 . S
C3354 C3370 1.368 . S
H3355 C3363 0.950 . S
H3356 C3361 0.950 . S
H3357 C3362 0.949 . S
H3358 C3364 0.950 . S
H3359 C3365 0.950 . S
H3360 C3366 0.949 . S
C3361 H3356 0.950 . S
C3361 C3363 1.327 . S
C3361 C3367 1.429 . S
C3362 C3354 1.574 . S
C3362 H3357 0.949 . S
C3362 C3368 1.368 . S
C3363 C3347 1.349 . S
C3363 H3355 0.950 . S
C3363 C3361 1.327 . S
C3364 C3352 1.349 . S
C3364 H3358 0.950 . S
C3364 C3365 1.327 . S
C3365 H3359 0.950 . S
C3365 C3364 1.327 . S
C3365 C3369 1.429 . S
C3366 C3349 1.574 . S
C3366 H3360 0.949 . S
C3366 C3370 1.368 . S
C3367 C3348 1.429 . S
C3367 C3361 1.429 . S
C3367 C3368 1.523 . S
C3368 C3349 1.368 . S
C3368 C3362 1.368 . S
C3368 C3367 1.523 . S
C3369 C3353 1.429 . S
C3369 C3365 1.429 . S
C3369 C3370 1.523 . S
C3370 C3354 1.368 . S
C3370 C3366 1.368 . S
C3370 C3369 1.523 . S
H3371 C3346 0.950 . S
H3372 C3348 0.950 . S
H3373 C3349 0.949 . S
H3374 C3351 0.950 . S
H3375 C3353 0.950 . S
C3376 C3377 1.349 . S
C3376 C3378 1.327 . S
C3376 H3401 0.950 . S
C3377 C3376 1.349 . S
C3377 C3393 1.349 . S
C3378 C3376 1.327 . S
C3378 C3397 1.429 . S
C3378 H3402 0.950 . S
C3379 C3396 1.574 . S
C3379 C3398 1.368 . S
C3379 H3403 0.949 . S
H3380 C3384 0.949 . S
C3381 C3382 1.349 . S
C3381 C3383 1.327 . S
C3381 H3404 0.950 . S
C3382 C3381 1.349 . S
C3382 C3394 1.349 . S
C3383 C3381 1.327 . S
C3383 C3399 1.429 . S
C3383 H3405 0.950 . S
C3384 H3380 0.949 . S
C3384 C3392 1.574 . S
C3384 C3400 1.368 . S
H3385 C3393 0.950 . S
H3386 C3391 0.950 . S
H3387 C3392 0.949 . S
H3388 C3394 0.950 . S
H3389 C3395 0.950 . S
H3390 C3396 0.949 . S
C3391 H3386 0.950 . S
C3391 C3393 1.327 . S
C3391 C3397 1.429 . S
C3392 C3384 1.574 . S
C3392 H3387 0.949 . S
C3392 C3398 1.368 . S
C3393 C3377 1.349 . S
C3393 H3385 0.950 . S
C3393 C3391 1.327 . S
C3394 C3382 1.349 . S
C3394 H3388 0.950 . S
C3394 C3395 1.327 . S
C3395 H3389 0.950 . S
C3395 C3394 1.327 . S
C3395 C3399 1.429 . S
C3396 C3379 1.574 . S
C3396 H3390 0.949 . S
C3396 C3400 1.368 . S
C3397 C3378 1.429 . S
C3397 C3391 1.429 . S
C3397 C3398 1.523 . S
C3398 C3379 1.368 . S
C3398 C3392 1.368 . S
C3398 C3397 1.523 . S
C3399 C3383 1.429 . S
C3399 C3395 1.429 . S
C3399 C3400 1.523 . S
C3400 C3384 1.368 . S
C3400 C3396 1.368 . S
C3400 C3399 1.523 . S
H3401 C3376 0.950 . S
H3402 C3378 0.950 . S
H3403 C3379 0.949 . S
H3404 C3381 0.950 . S
H3405 C3383 0.950 . S
C3406 C3407 1.349 . S
C3406 C3408 1.327 . S
C3406 H3431 0.950 . S
C3407 C3406 1.349 . S
C3407 C3423 1.349 . S
C3408 C3406 1.327 . S
C3408 C3427 1.429 . S
C3408 H3432 0.950 . S
C3409 C3426 1.574 . S
C3409 C3428 1.368 . S
C3409 H3433 0.949 . S
H3410 C3414 0.949 . S
C3411 C3412 1.349 . S
C3411 C3413 1.327 . S
C3411 H3434 0.950 . S
C3412 C3411 1.349 . S
C3412 C3424 1.349 . S
C3413 C3411 1.327 . S
C3413 C3429 1.429 . S
C3413 H3435 0.950 . S
C3414 H3410 0.949 . S
C3414 C3422 1.574 . S
C3414 C3430 1.368 . S
H3415 C3423 0.950 . S
H3416 C3421 0.950 . S
H3417 C3422 0.949 . S
H3418 C3424 0.950 . S
H3419 C3425 0.950 . S
H3420 C3426 0.949 . S
C3421 H3416 0.950 . S
C3421 C3423 1.327 . S
C3421 C3427 1.429 . S
C3422 C3414 1.574 . S
C3422 H3417 0.949 . S
C3422 C3428 1.368 . S
C3423 C3407 1.349 . S
C3423 H3415 0.950 . S
C3423 C3421 1.327 . S
C3424 C3412 1.349 . S
C3424 H3418 0.950 . S
C3424 C3425 1.327 . S
C3425 H3419 0.950 . S
C3425 C3424 1.327 . S
C3425 C3429 1.429 . S
C3426 C3409 1.574 . S
C3426 H3420 0.949 . S
C3426 C3430 1.368 . S
C3427 C3408 1.429 . S
C3427 C3421 1.429 . S
C3427 C3428 1.523 . S
C3428 C3409 1.368 . S
C3428 C3422 1.368 . S
C3428 C3427 1.523 . S
C3429 C3413 1.429 . S
C3429 C3425 1.429 . S
C3429 C3430 1.523 . S
C3430 C3414 1.368 . S
C3430 C3426 1.368 . S
C3430 C3429 1.523 . S
H3431 C3406 0.950 . S
H3432 C3408 0.950 . S
H3433 C3409 0.949 . S
H3434 C3411 0.950 . S
H3435 C3413 0.950 . S
C3436 C3437 1.349 . S
C3436 C3438 1.327 . S
C3436 H3461 0.950 . S
C3437 C3436 1.349 . S
C3437 C3453 1.349 . S
C3438 C3436 1.327 . S
C3438 C3457 1.429 . S
C3438 H3462 0.950 . S
C3439 C3456 1.574 1_655 S
C3439 C3458 1.368 . S
C3439 H3463 0.949 . S
H3440 C3444 0.949 . S
C3441 C3442 1.349 . S
C3441 C3443 1.327 . S
C3441 H3464 0.950 . S
C3442 C3441 1.349 . S
C3442 C3454 1.349 . S
C3443 C3441 1.327 . S
C3443 C3459 1.429 . S
C3443 H3465 0.950 . S
C3444 H3440 0.949 . S
C3444 C3452 1.574 . S
C3444 C3460 1.368 . S
H3445 C3453 0.950 . S
H3446 C3451 0.950 . S
H3447 C3452 0.949 . S
H3448 C3454 0.950 . S
H3449 C3455 0.950 1_655 S
H3450 C3456 0.949 . S
C3451 H3446 0.950 . S
C3451 C3453 1.327 . S
C3451 C3457 1.429 . S
C3452 C3444 1.574 . S
C3452 H3447 0.949 . S
C3452 C3458 1.368 . S
C3453 C3437 1.349 . S
C3453 H3445 0.950 . S
C3453 C3451 1.327 . S
C3454 C3442 1.349 . S
C3454 H3448 0.950 . S
C3454 C3455 1.327 . S
C3455 H3449 0.950 1_455 S
C3455 C3454 1.327 . S
C3455 C3459 1.429 . S
C3456 C3439 1.574 1_455 S
C3456 H3450 0.949 . S
C3456 C3460 1.368 1_455 S
C3457 C3438 1.429 . S
C3457 C3451 1.429 . S
C3457 C3458 1.523 . S
C3458 C3439 1.368 . S
C3458 C3452 1.368 . S
C3458 C3457 1.523 . S
C3459 C3443 1.429 . S
C3459 C3455 1.429 . S
C3459 C3460 1.523 1_455 S
C3460 C3444 1.368 . S
C3460 C3456 1.368 1_655 S
C3460 C3459 1.523 1_655 S
H3461 C3436 0.950 . S
H3462 C3438 0.950 . S
H3463 C3439 0.949 . S
H3464 C3441 0.950 . S
H3465 C3443 0.950 . S
C3466 C3467 1.349 . S
C3466 C3468 1.327 . S
C3466 H3491 0.950 . S
C3467 C3466 1.349 . S
C3467 C3483 1.349 . S
C3468 C3466 1.327 . S
C3468 C3487 1.429 . S
C3468 H3492 0.950 . S
C3469 C3486 1.574 . S
C3469 C3488 1.368 . S
C3469 H3493 0.949 . S
H3470 C3474 0.949 . S
C3471 C3472 1.349 . S
C3471 C3473 1.327 . S
C3471 H3494 0.950 . S
C3472 C3471 1.349 . S
C3472 C3484 1.349 . S
C3473 C3471 1.327 . S
C3473 C3489 1.429 . S
C3473 H3495 0.950 . S
C3474 H3470 0.949 . S
C3474 C3482 1.574 . S
C3474 C3490 1.368 . S
H3475 C3483 0.950 . S
H3476 C3481 0.950 . S
H3477 C3482 0.949 . S
H3478 C3484 0.950 . S
H3479 C3485 0.950 . S
H3480 C3486 0.949 . S
C3481 H3476 0.950 . S
C3481 C3483 1.327 . S
C3481 C3487 1.429 . S
C3482 C3474 1.574 . S
C3482 H3477 0.949 . S
C3482 C3488 1.368 . S
C3483 C3467 1.349 . S
C3483 H3475 0.950 . S
C3483 C3481 1.327 . S
C3484 C3472 1.349 . S
C3484 H3478 0.950 . S
C3484 C3485 1.327 . S
C3485 H3479 0.950 . S
C3485 C3484 1.327 . S
C3485 C3489 1.429 . S
C3486 C3469 1.574 . S
C3486 H3480 0.949 . S
C3486 C3490 1.368 . S
C3487 C3468 1.429 . S
C3487 C3481 1.429 . S
C3487 C3488 1.523 . S
C3488 C3469 1.368 . S
C3488 C3482 1.368 . S
C3488 C3487 1.523 . S
C3489 C3473 1.429 . S
C3489 C3485 1.429 . S
C3489 C3490 1.523 . S
C3490 C3474 1.368 . S
C3490 C3486 1.368 . S
C3490 C3489 1.523 . S
H3491 C3466 0.950 . S
H3492 C3468 0.950 . S
H3493 C3469 0.949 . S
H3494 C3471 0.950 . S
H3495 C3473 0.950 . S
C3496 C3497 1.349 . S
C3496 C3498 1.327 . S
C3496 H3521 0.950 . S
C3497 C3496 1.349 . S
C3497 C3513 1.349 . S
C3498 C3496 1.327 . S
C3498 C3517 1.429 . S
C3498 H3522 0.950 . S
C3499 C3516 1.574 . S
C3499 C3518 1.368 . S
C3499 H3523 0.949 . S
H3500 C3504 0.949 . S
C3501 C3502 1.349 . S
C3501 C3503 1.327 . S
C3501 H3524 0.950 . S
C3502 C3501 1.349 . S
C3502 C3514 1.349 . S
C3503 C3501 1.327 . S
C3503 C3519 1.429 . S
C3503 H3525 0.950 . S
C3504 H3500 0.949 . S
C3504 C3512 1.574 . S
C3504 C3520 1.368 . S
H3505 C3513 0.950 . S
H3506 C3511 0.950 . S
H3507 C3512 0.949 . S
H3508 C3514 0.950 . S
H3509 C3515 0.950 . S
H3510 C3516 0.949 . S
C3511 H3506 0.950 . S
C3511 C3513 1.327 . S
C3511 C3517 1.429 . S
C3512 C3504 1.574 . S
C3512 H3507 0.949 . S
C3512 C3518 1.368 . S
C3513 C3497 1.349 . S
C3513 H3505 0.950 . S
C3513 C3511 1.327 . S
C3514 C3502 1.349 . S
C3514 H3508 0.950 . S
C3514 C3515 1.327 . S
C3515 H3509 0.950 . S
C3515 C3514 1.327 . S
C3515 C3519 1.429 . S
C3516 C3499 1.574 . S
C3516 H3510 0.949 . S
C3516 C3520 1.368 . S
C3517 C3498 1.429 . S
C3517 C3511 1.429 . S
C3517 C3518 1.523 . S
C3518 C3499 1.368 . S
C3518 C3512 1.368 . S
C3518 C3517 1.523 . S
C3519 C3503 1.429 . S
C3519 C3515 1.429 . S
C3519 C3520 1.523 . S
C3520 C3504 1.368 . S
C3520 C3516 1.368 . S
C3520 C3519 1.523 . S
H3521 C3496 0.950 . S
H3522 C3498 0.950 . S
H3523 C3499 0.949 . S
H3524 C3501 0.950 . S
H3525 C3503 0.950 . S
C3526 C3527 1.349 . S
C3526 C3528 1.327 . S
C3526 H3551 0.950 . S
C3527 C3526 1.349 . S
C3527 C3543 1.349 . S
C3528 C3526 1.327 . S
C3528 C3547 1.429 . S
C3528 H3552 0.950 . S
C3529 C3546 1.574 . S
C3529 C3548 1.368 . S
C3529 H3553 0.949 . S
H3530 C3534 0.949 . S
C3531 C3532 1.349 . S
C3531 C3533 1.327 . S
C3531 H3554 0.950 . S
C3532 C3531 1.349 . S
C3532 C3544 1.349 . S
C3533 C3531 1.327 . S
C3533 C3549 1.429 . S
C3533 H3555 0.950 . S
C3534 H3530 0.949 . S
C3534 C3542 1.574 . S
C3534 C3550 1.368 . S
H3535 C3543 0.950 . S
H3536 C3541 0.950 . S
H3537 C3542 0.949 . S
H3538 C3544 0.950 . S
H3539 C3545 0.950 . S
H3540 C3546 0.949 . S
C3541 H3536 0.950 . S
C3541 C3543 1.327 . S
C3541 C3547 1.429 . S
C3542 C3534 1.574 . S
C3542 H3537 0.949 . S
C3542 C3548 1.368 . S
C3543 C3527 1.349 . S
C3543 H3535 0.950 . S
C3543 C3541 1.327 . S
C3544 C3532 1.349 . S
C3544 H3538 0.950 . S
C3544 C3545 1.327 . S
C3545 H3539 0.950 . S
C3545 C3544 1.327 . S
C3545 C3549 1.429 . S
C3546 C3529 1.574 . S
C3546 H3540 0.949 . S
C3546 C3550 1.368 . S
C3547 C3528 1.429 . S
C3547 C3541 1.429 . S
C3547 C3548 1.523 . S
C3548 C3529 1.368 . S
C3548 C3542 1.368 . S
C3548 C3547 1.523 . S
C3549 C3533 1.429 . S
C3549 C3545 1.429 . S
C3549 C3550 1.523 . S
C3550 C3534 1.368 . S
C3550 C3546 1.368 . S
C3550 C3549 1.523 . S
H3551 C3526 0.950 . S
H3552 C3528 0.950 . S
H3553 C3529 0.949 . S
H3554 C3531 0.950 . S
H3555 C3533 0.950 . S
C3556 C3557 1.349 . S
C3556 C3558 1.327 . S
C3556 H3581 0.950 . S
C3557 C3556 1.349 . S
C3557 C3573 1.349 . S
C3558 C3556 1.327 . S
C3558 C3577 1.429 . S
C3558 H3582 0.950 . S
C3559 C3576 1.574 . S
C3559 C3578 1.368 . S
C3559 H3583 0.949 . S
H3560 C3564 0.949 . S
C3561 C3562 1.349 . S
C3561 C3563 1.327 . S
C3561 H3584 0.950 . S
C3562 C3561 1.349 . S
C3562 C3574 1.349 1_655 S
C3563 C3561 1.327 . S
C3563 C3579 1.429 . S
C3563 H3585 0.950 . S
C3564 H3560 0.949 . S
C3564 C3572 1.574 . S
C3564 C3580 1.368 . S
H3565 C3573 0.950 . S
H3566 C3571 0.950 . S
H3567 C3572 0.949 . S
H3568 C3574 0.950 . S
H3569 C3575 0.950 1_455 S
H3570 C3576 0.949 . S
C3571 H3566 0.950 . S
C3571 C3573 1.327 . S
C3571 C3577 1.429 . S
C3572 C3564 1.574 . S
C3572 H3567 0.949 . S
C3572 C3578 1.368 . S
C3573 C3557 1.349 . S
C3573 H3565 0.950 . S
C3573 C3571 1.327 . S
C3574 C3562 1.349 1_455 S
C3574 H3568 0.950 . S
C3574 C3575 1.327 1_455 S
C3575 H3569 0.950 1_655 S
C3575 C3574 1.327 1_655 S
C3575 C3579 1.429 . S
C3576 C3559 1.574 . S
C3576 H3570 0.949 . S
C3576 C3580 1.368 . S
C3577 C3558 1.429 . S
C3577 C3571 1.429 . S
C3577 C3578 1.523 . S
C3578 C3559 1.368 . S
C3578 C3572 1.368 . S
C3578 C3577 1.523 . S
C3579 C3563 1.429 . S
C3579 C3575 1.429 . S
C3579 C3580 1.523 . S
C3580 C3564 1.368 . S
C3580 C3576 1.368 . S
C3580 C3579 1.523 . S
H3581 C3556 0.950 . S
H3582 C3558 0.950 . S
H3583 C3559 0.949 . S
H3584 C3561 0.950 . S
H3585 C3563 0.950 . S
C3586 C3587 1.349 . S
C3586 C3588 1.327 . S
C3586 H3611 0.950 . S
C3587 C3586 1.349 . S
C3587 C3603 1.349 . S
C3588 C3586 1.327 . S
C3588 C3607 1.429 . S
C3588 H3612 0.950 . S
C3589 C3606 1.574 . S
C3589 C3608 1.368 . S
C3589 H3613 0.949 . S
H3590 C3594 0.949 . S
C3591 C3592 1.349 . S
C3591 C3593 1.327 . S
C3591 H3614 0.950 . S
C3592 C3591 1.349 . S
C3592 C3604 1.349 . S
C3593 C3591 1.327 . S
C3593 C3609 1.429 . S
C3593 H3615 0.950 . S
C3594 H3590 0.949 . S
C3594 C3602 1.574 . S
C3594 C3610 1.368 . S
H3595 C3603 0.950 . S
H3596 C3601 0.950 . S
H3597 C3602 0.949 . S
H3598 C3604 0.950 . S
H3599 C3605 0.950 . S
H3600 C3606 0.949 . S
C3601 H3596 0.950 . S
C3601 C3603 1.327 . S
C3601 C3607 1.429 . S
C3602 C3594 1.574 . S
C3602 H3597 0.949 . S
C3602 C3608 1.368 . S
C3603 C3587 1.349 . S
C3603 H3595 0.950 . S
C3603 C3601 1.327 . S
C3604 C3592 1.349 . S
C3604 H3598 0.950 . S
C3604 C3605 1.327 . S
C3605 H3599 0.950 . S
C3605 C3604 1.327 . S
C3605 C3609 1.429 . S
C3606 C3589 1.574 . S
C3606 H3600 0.949 . S
C3606 C3610 1.368 . S
C3607 C3588 1.429 . S
C3607 C3601 1.429 . S
C3607 C3608 1.523 . S
C3608 C3589 1.368 . S
C3608 C3602 1.368 . S
C3608 C3607 1.523 . S
C3609 C3593 1.429 . S
C3609 C3605 1.429 . S
C3609 C3610 1.523 . S
C3610 C3594 1.368 . S
C3610 C3606 1.368 . S
C3610 C3609 1.523 . S
H3611 C3586 0.950 . S
H3612 C3588 0.950 . S
H3613 C3589 0.949 . S
H3614 C3591 0.950 . S
H3615 C3593 0.950 . S
C3616 C3617 1.349 . S
C3616 C3618 1.327 . S
C3616 H3641 0.950 . S
C3617 C3616 1.349 . S
C3617 C3633 1.349 . S
C3618 C3616 1.327 . S
C3618 C3637 1.429 . S
C3618 H3642 0.950 . S
C3619 C3636 1.574 . S
C3619 C3638 1.368 . S
C3619 H3643 0.949 . S
H3620 C3624 0.949 . S
C3621 C3622 1.349 . S
C3621 C3623 1.327 . S
C3621 H3644 0.950 . S
C3622 C3621 1.349 . S
C3622 C3634 1.349 . S
C3623 C3621 1.327 . S
C3623 C3639 1.429 . S
C3623 H3645 0.950 . S
C3624 H3620 0.949 . S
C3624 C3632 1.574 . S
C3624 C3640 1.368 . S
H3625 C3633 0.950 . S
H3626 C3631 0.950 . S
H3627 C3632 0.949 . S
H3628 C3634 0.950 . S
H3629 C3635 0.950 . S
H3630 C3636 0.949 . S
C3631 H3626 0.950 . S
C3631 C3633 1.327 . S
C3631 C3637 1.429 . S
C3632 C3624 1.574 . S
C3632 H3627 0.949 . S
C3632 C3638 1.368 . S
C3633 C3617 1.349 . S
C3633 H3625 0.950 . S
C3633 C3631 1.327 . S
C3634 C3622 1.349 . S
C3634 H3628 0.950 . S
C3634 C3635 1.327 . S
C3635 H3629 0.950 . S
C3635 C3634 1.327 . S
C3635 C3639 1.429 . S
C3636 C3619 1.574 . S
C3636 H3630 0.949 . S
C3636 C3640 1.368 . S
C3637 C3618 1.429 . S
C3637 C3631 1.429 . S
C3637 C3638 1.523 . S
C3638 C3619 1.368 . S
C3638 C3632 1.368 . S
C3638 C3637 1.523 . S
C3639 C3623 1.429 . S
C3639 C3635 1.429 . S
C3639 C3640 1.523 . S
C3640 C3624 1.368 . S
C3640 C3636 1.368 . S
C3640 C3639 1.523 . S
H3641 C3616 0.950 . S
H3642 C3618 0.950 . S
H3643 C3619 0.949 . S
H3644 C3621 0.950 . S
H3645 C3623 0.950 . S
C3646 C3647 1.349 . S
C3646 C3648 1.327 . S
C3646 H3671 0.950 . S
C3647 C3646 1.349 . S
C3647 C3663 1.349 . S
C3648 C3646 1.327 . S
C3648 C3667 1.429 . S
C3648 H3672 0.950 . S
C3649 C3666 1.574 . S
C3649 C3668 1.368 . S
C3649 H3673 0.949 . S
H3650 C3654 0.949 . S
C3651 C3652 1.349 . S
C3651 C3653 1.327 . S
C3651 H3674 0.950 . S
C3652 C3651 1.349 . S
C3652 C3664 1.349 . S
C3653 C3651 1.327 . S
C3653 C3669 1.429 . S
C3653 H3675 0.950 . S
C3654 H3650 0.949 . S
C3654 C3662 1.574 . S
C3654 C3670 1.368 . S
H3655 C3663 0.950 . S
H3656 C3661 0.950 . S
H3657 C3662 0.949 . S
H3658 C3664 0.950 . S
H3659 C3665 0.950 . S
H3660 C3666 0.949 . S
C3661 H3656 0.950 . S
C3661 C3663 1.327 . S
C3661 C3667 1.429 . S
C3662 C3654 1.574 . S
C3662 H3657 0.949 . S
C3662 C3668 1.368 . S
C3663 C3647 1.349 . S
C3663 H3655 0.950 . S
C3663 C3661 1.327 . S
C3664 C3652 1.349 . S
C3664 H3658 0.950 . S
C3664 C3665 1.327 . S
C3665 H3659 0.950 . S
C3665 C3664 1.327 . S
C3665 C3669 1.429 . S
C3666 C3649 1.574 . S
C3666 H3660 0.949 . S
C3666 C3670 1.368 . S
C3667 C3648 1.429 . S
C3667 C3661 1.429 . S
C3667 C3668 1.523 . S
C3668 C3649 1.368 . S
C3668 C3662 1.368 . S
C3668 C3667 1.523 . S
C3669 C3653 1.429 . S
C3669 C3665 1.429 . S
C3669 C3670 1.523 1_545 S
C3670 C3654 1.368 . S
C3670 C3666 1.368 . S
C3670 C3669 1.523 1_565 S
H3671 C3646 0.950 . S
H3672 C3648 0.950 . S
H3673 C3649 0.949 . S
H3674 C3651 0.950 . S
H3675 C3653 0.950 . S
C3676 C3677 1.349 . S
C3676 C3678 1.327 . S
C3676 H3701 0.950 . S
C3677 C3676 1.349 . S
C3677 C3693 1.349 . S
C3678 C3676 1.327 . S
C3678 C3697 1.429 . S
C3678 H3702 0.950 . S
C3679 C3696 1.574 . S
C3679 C3698 1.368 . S
C3679 H3703 0.949 . S
H3680 C3684 0.949 . S
C3681 C3682 1.349 . S
C3681 C3683 1.327 . S
C3681 H3704 0.950 . S
C3682 C3681 1.349 . S
C3682 C3694 1.349 . S
C3683 C3681 1.327 . S
C3683 C3699 1.429 . S
C3683 H3705 0.950 . S
C3684 H3680 0.949 . S
C3684 C3692 1.574 . S
C3684 C3700 1.368 . S
H3685 C3693 0.950 . S
H3686 C3691 0.950 . S
H3687 C3692 0.949 . S
H3688 C3694 0.950 . S
H3689 C3695 0.950 . S
H3690 C3696 0.949 . S
C3691 H3686 0.950 . S
C3691 C3693 1.327 . S
C3691 C3697 1.429 . S
C3692 C3684 1.574 . S
C3692 H3687 0.949 . S
C3692 C3698 1.368 . S
C3693 C3677 1.349 . S
C3693 H3685 0.950 . S
C3693 C3691 1.327 . S
C3694 C3682 1.349 . S
C3694 H3688 0.950 . S
C3694 C3695 1.327 . S
C3695 H3689 0.950 . S
C3695 C3694 1.327 . S
C3695 C3699 1.429 . S
C3696 C3679 1.574 . S
C3696 H3690 0.949 . S
C3696 C3700 1.368 . S
C3697 C3678 1.429 . S
C3697 C3691 1.429 . S
C3697 C3698 1.523 . S
C3698 C3679 1.368 . S
C3698 C3692 1.368 . S
C3698 C3697 1.523 . S
C3699 C3683 1.429 . S
C3699 C3695 1.429 . S
C3699 C3700 1.523 . S
C3700 C3684 1.368 . S
C3700 C3696 1.368 . S
C3700 C3699 1.523 . S
H3701 C3676 0.950 . S
H3702 C3678 0.950 . S
H3703 C3679 0.949 . S
H3704 C3681 0.950 . S
H3705 C3683 0.950 . S
C3706 C3707 1.349 . S
C3706 C3708 1.327 . S
C3706 H3731 0.950 . S
C3707 C3706 1.349 . S
C3707 C3723 1.349 1_556 S
C3708 C3706 1.327 . S
C3708 C3727 1.429 1_556 S
C3708 H3732 0.950 . S
C3709 C3726 1.574 . S
C3709 C3728 1.368 . S
C3709 H3733 0.949 . S
H3710 C3714 0.954 . S
C3711 C3712 1.349 . S
C3711 C3713 1.327 . S
C3711 H3734 0.950 . S
C3712 C3711 1.349 . S
C3712 C3724 1.349 . S
C3713 C3711 1.327 . S
C3713 C3729 1.429 . S
C3713 H3735 0.950 . S
C3714 H3710 0.954 . S
C3714 C3722 1.580 . S
C3714 C3730 1.357 1_556 S
H3715 C3723 0.950 . S
H3716 C3721 0.950 . S
H3717 C3722 0.949 . S
H3718 C3724 0.950 . S
H3719 C3725 0.950 1_556 S
H3720 C3726 0.949 . S
C3721 H3716 0.950 . S
C3721 C3723 1.327 . S
C3721 C3727 1.429 . S
C3722 C3714 1.580 . S
C3722 H3717 0.949 . S
C3722 C3728 1.368 1_556 S
C3723 C3707 1.349 1_554 S
C3723 H3715 0.950 . S
C3723 C3721 1.327 . S
C3724 C3712 1.349 . S
C3724 H3718 0.950 . S
C3724 C3725 1.327 . S
C3725 H3719 0.950 1_554 S
C3725 C3724 1.327 . S
C3725 C3729 1.429 . S
C3726 C3709 1.574 . S
C3726 H3720 0.949 . S
C3726 C3730 1.368 . S
C3727 C3708 1.429 1_554 S
C3727 C3721 1.429 . S
C3727 C3728 1.523 . S
C3728 C3709 1.368 . S
C3728 C3722 1.368 1_554 S
C3728 C3727 1.523 . S
C3729 C3713 1.429 . S
C3729 C3725 1.429 . S
C3729 C3730 1.523 . S
C3730 C3714 1.357 1_554 S
C3730 C3726 1.368 . S
C3730 C3729 1.523 . S
H3731 C3706 0.950 . S
H3732 C3708 0.950 . S
H3733 C3709 0.949 . S
H3734 C3711 0.950 . S
H3735 C3713 0.950 . S
C3736 C3737 1.349 . S
C3736 C3738 1.327 . S
C3736 H3761 0.950 . S
C3737 C3736 1.349 . S
C3737 C3753 1.349 . S
C3738 C3736 1.327 . S
C3738 C3757 1.429 . S
C3738 H3762 0.950 . S
C3739 C3756 1.574 . S
C3739 C3758 1.368 . S
C3739 H3763 0.949 . S
H3740 C3744 0.949 . S
C3741 C3742 1.349 . S
C3741 C3743 1.327 . S
C3741 H3764 0.950 . S
C3742 C3741 1.349 . S
C3742 C3754 1.349 . S
C3743 C3741 1.327 . S
C3743 C3759 1.429 . S
C3743 H3765 0.950 . S
C3744 H3740 0.949 . S
C3744 C3752 1.574 . S
C3744 C3760 1.368 . S
H3745 C3753 0.950 . S
H3746 C3751 0.950 . S
H3747 C3752 0.949 . S
H3748 C3754 0.950 . S
H3749 C3755 0.950 . S
H3750 C3756 0.949 . S
C3751 H3746 0.950 . S
C3751 C3753 1.327 . S
C3751 C3757 1.429 . S
C3752 C3744 1.574 . S
C3752 H3747 0.949 . S
C3752 C3758 1.368 . S
C3753 C3737 1.349 . S
C3753 H3745 0.950 . S
C3753 C3751 1.327 . S
C3754 C3742 1.349 . S
C3754 H3748 0.950 . S
C3754 C3755 1.327 . S
C3755 H3749 0.950 . S
C3755 C3754 1.327 . S
C3755 C3759 1.429 . S
C3756 C3739 1.574 . S
C3756 H3750 0.949 . S
C3756 C3760 1.368 . S
C3757 C3738 1.429 . S
C3757 C3751 1.429 . S
C3757 C3758 1.523 . S
C3758 C3739 1.368 . S
C3758 C3752 1.368 . S
C3758 C3757 1.523 . S
C3759 C3743 1.429 . S
C3759 C3755 1.429 . S
C3759 C3760 1.523 . S
C3760 C3744 1.368 . S
C3760 C3756 1.368 . S
C3760 C3759 1.523 . S
H3761 C3736 0.950 . S
H3762 C3738 0.950 . S
H3763 C3739 0.949 . S
H3764 C3741 0.950 . S
H3765 C3743 0.950 . S
C3766 C3767 1.349 . S
C3766 C3768 1.327 . S
C3766 H3791 0.950 . S
C3767 C3766 1.349 . S
C3767 C3783 1.349 . S
C3768 C3766 1.327 . S
C3768 C3787 1.429 . S
C3768 H3792 0.950 1_554 S
C3769 C3786 1.574 . S
C3769 C3788 1.368 . S
C3769 H3793 0.949 . S
H3770 C3774 0.949 . S
C3771 C3772 1.349 . S
C3771 C3773 1.327 . S
C3771 H3794 0.950 . S
C3772 C3771 1.349 . S
C3772 C3784 1.349 1_554 S
C3773 C3771 1.327 . S
C3773 C3789 1.429 . S
C3773 H3795 0.950 . S
C3774 H3770 0.949 . S
C3774 C3782 1.574 1_556 S
C3774 C3790 1.368 1_556 S
H3775 C3783 0.950 . S
H3776 C3781 0.950 . S
H3777 C3782 0.949 1_556 S
H3778 C3784 0.950 . S
H3779 C3785 0.950 . S
H3780 C3786 0.949 . S
C3781 H3776 0.950 . S
C3781 C3783 1.327 . S
C3781 C3787 1.429 . S
C3782 C3774 1.574 1_554 S
C3782 H3777 0.949 1_554 S
C3782 C3788 1.368 . S
C3783 C3767 1.349 . S
C3783 H3775 0.950 . S
C3783 C3781 1.327 . S
C3784 C3772 1.349 1_556 S
C3784 H3778 0.950 . S
C3784 C3785 1.327 . S
C3785 H3779 0.950 . S
C3785 C3784 1.327 . S
C3785 C3789 1.429 1_556 S
C3786 C3769 1.574 . S
C3786 H3780 0.949 . S
C3786 C3790 1.368 . S
C3787 C3768 1.429 . S
C3787 C3781 1.429 . S
C3787 C3788 1.523 . S
C3788 C3769 1.368 . S
C3788 C3782 1.368 . S
C3788 C3787 1.523 . S
C3789 C3773 1.429 . S
C3789 C3785 1.429 1_554 S
C3789 C3790 1.523 . S
C3790 C3774 1.368 1_554 S
C3790 C3786 1.368 . S
C3790 C3789 1.523 . S
H3791 C3766 0.950 . S
H3792 C3768 0.950 1_556 S
H3793 C3769 0.949 . S
H3794 C3771 0.950 . S
H3795 C3773 0.950 . S
C3796 C3797 1.349 . S
C3796 C3798 1.327 . S
C3796 H3821 0.927 1_565 S
C3797 C3796 1.349 . S
C3797 C3813 1.349 . S
C3798 C3796 1.327 . S
C3798 C3817 1.429 . S
C3798 H3822 0.950 . S
C3799 C3816 1.574 . S
C3799 C3818 1.368 . S
C3799 H3823 0.949 . S
H3800 C3804 0.949 . S
C3801 C3802 1.349 . S
C3801 C3803 1.327 . S
C3801 H3824 0.950 . S
C3802 C3801 1.349 . S
C3802 C3814 1.349 . S
C3803 C3801 1.327 . S
C3803 C3819 1.429 . S
C3803 H3825 0.950 . S
C3804 H3800 0.949 . S
C3804 C3812 1.574 . S
C3804 C3820 1.368 . S
H3805 C3813 0.950 . S
H3806 C3811 0.950 . S
H3807 C3812 0.949 . S
H3808 C3814 0.950 . S
H3809 C3815 0.950 . S
H3810 C3816 0.949 . S
C3811 H3806 0.950 . S
C3811 C3813 1.327 . S
C3811 C3817 1.429 . S
C3812 C3804 1.574 . S
C3812 H3807 0.949 . S
C3812 C3818 1.368 . S
C3813 C3797 1.349 . S
C3813 H3805 0.950 . S
C3813 C3811 1.327 . S
C3814 C3802 1.349 . S
C3814 H3808 0.950 . S
C3814 C3815 1.327 . S
C3815 H3809 0.950 . S
C3815 C3814 1.327 . S
C3815 C3819 1.429 . S
C3816 C3799 1.574 . S
C3816 H3810 0.949 . S
C3816 C3820 1.368 . S
C3817 C3798 1.429 . S
C3817 C3811 1.429 . S
C3817 C3818 1.523 . S
C3818 C3799 1.368 . S
C3818 C3812 1.368 . S
C3818 C3817 1.523 . S
C3819 C3803 1.429 . S
C3819 C3815 1.429 . S
C3819 C3820 1.523 . S
C3820 C3804 1.368 . S
C3820 C3816 1.368 . S
C3820 C3819 1.523 . S
H3821 C3796 0.927 1_545 S
H3822 C3798 0.950 . S
H3823 C3799 0.949 . S
H3824 C3801 0.950 . S
H3825 C3803 0.950 . S
C3826 C3827 1.349 . S
C3826 C3828 1.327 . S
C3826 H3851 0.950 . S
C3827 C3826 1.349 . S
C3827 C3843 1.349 . S
C3828 C3826 1.327 . S
C3828 C3847 1.429 . S
C3828 H3852 0.950 . S
C3829 C3846 1.574 . S
C3829 C3848 1.368 . S
C3829 H3853 0.949 . S
H3830 C3834 0.949 . S
C3831 C3832 1.349 . S
C3831 C3833 1.327 . S
C3831 H3854 0.950 . S
C3832 C3831 1.349 . S
C3832 C3844 1.349 . S
C3833 C3831 1.327 . S
C3833 C3849 1.429 . S
C3833 H3855 0.950 . S
C3834 H3830 0.949 . S
C3834 C3842 1.574 . S
C3834 C3850 1.368 . S
H3835 C3843 0.950 . S
H3836 C3841 0.950 . S
H3837 C3842 0.949 . S
H3838 C3844 0.950 . S
H3839 C3845 0.950 . S
H3840 C3846 0.949 . S
C3841 H3836 0.950 . S
C3841 C3843 1.327 . S
C3841 C3847 1.429 . S
C3842 C3834 1.574 . S
C3842 H3837 0.949 . S
C3842 C3848 1.368 . S
C3843 C3827 1.349 . S
C3843 H3835 0.950 . S
C3843 C3841 1.327 . S
C3844 C3832 1.349 . S
C3844 H3838 0.950 . S
C3844 C3845 1.327 . S
C3845 H3839 0.950 . S
C3845 C3844 1.327 . S
C3845 C3849 1.429 . S
C3846 C3829 1.574 . S
C3846 H3840 0.949 . S
C3846 C3850 1.368 . S
C3847 C3828 1.429 . S
C3847 C3841 1.429 . S
C3847 C3848 1.523 . S
C3848 C3829 1.368 . S
C3848 C3842 1.368 . S
C3848 C3847 1.523 . S
C3849 C3833 1.429 . S
C3849 C3845 1.429 . S
C3849 C3850 1.523 . S
C3850 C3834 1.368 . S
C3850 C3846 1.368 . S
C3850 C3849 1.523 . S
H3851 C3826 0.950 . S
H3852 C3828 0.950 . S
H3853 C3829 0.949 . S
H3854 C3831 0.950 . S
H3855 C3833 0.950 . S
C977 C109 2.075 . S
C982 C346 2.020 . S
C1007 C65 1.751 . S
C1012 C385 1.707 . S
C1037 C75 1.244 . S
C1042 C426 1.228 . S
C1072 C471 1.430 . S
C1067 C84 1.440 . S
C1097 C25 2.018 . S
C1102 C515 1.988 . S
C1132 C546 1.140 . S
C1127 C28 1.158 . S
C1162 C594 1.993 . S
C1157 C47 2.002 . S
C1187 C9 1.635 . S
C1192 C622 1.599 . S
C1222 C354 1.427 . S
C1217 C233 1.427 . S
C1247 C249 1.254 . S
C1252 C395 1.218 . S
C1282 C434 1.423 . S
C1277 C275 1.422 . S
C1312 C466 1.288 . S
C1307 C173 1.301 . S
C1337 C224 0.164 . S
C1342 C502 0.149 . S
C1372 C554 2.284 . S
C1367 C243 2.302 . S
C1402 C591 0.665 . S
C1397 C266 0.675 . S
C1432 C625 1.825 . S
C1427 C179 1.837 . S
C1462 C351 1.817 . S
C1457 C163 1.850 . S
C1487 C289 1.984 . S
C1492 C665 1.939 . S
C1522 C711 1.002 . S
C1517 C333 1.003 . S
C1552 C746 1.286 1_655 S
C1547 C308 1.319 . S
C1577 C123 1.835 . S
C1582 C635 1.805 . S
C1607 C126 1.385 . S
C1612 C431 1.380 . S
C1637 C327 1.290 . S
C1642 C794 1.300 . S
C1672 C822 0.356 . S
C1667 C299 0.332 . S
C1702 C355 2.043 1_565 S
C1697 C67 2.102 . S
C1732 C834 1.740 . S
C1727 C98 1.760 . S
C1757 C89 1.283 . S
C1762 C435 1.269 . S
C1787 C79 1.488 . S
C1792 C782 1.469 . S
C1822 C506 2.050 . S
C1817 C11 2.072 . S
C1847 C51 1.194 . S
C1852 C715 1.158 . S
C1882 C585 2.010 1_565 S
C1877 C33 2.051 . S
C1912 C871 1.579 . S
C1907 C14 1.607 . S
C1942 C345 1.396 . S
C1937 C140 1.390 . S
C1972 C826 1.259 . S
C1967 C319 1.296 . S
C1997 C112 1.420 . S
C2002 C425 1.456 . S
C2027 C285 1.341 . S
C2032 C795 1.329 . S
C2057 C149 0.101 . S
C2062 C511 0.133 . S
C2092 C705 2.335 . S
C2087 C313 2.355 . S
C2117 C121 0.688 . S
C2122 C582 0.695 . S
C2147 C291 1.871 . S
C2152 C874 1.855 . S
C2177 C182 1.842 . S
C2182 C342 1.798 . S
C2207 C168 1.994 . S
C2212 C674 1.969 . S
C2237 C263 1.024 . S
C2242 C542 1.016 . S
C2267 C247 1.404 . S
C2272 C755 1.357 . S
C2302 C866 1.800 . S
C2297 C277 1.839 . S
C2327 C219 1.431 . S
C2332 C422 1.408 . S
C2362 C465 1.354 . S
C2357 C257 1.347 . S
C2392 C391 0.360 . S
C2387 C201 0.339 . S
C2417 C81 2.074 . S
C2422 C906 2.020 . S
C2452 C825 1.707 . S
C2447 C93 1.751 . S
C2477 C103 1.244 . S
C2482 C946 1.228 . S
C2507 C56 1.440 . S
C2512 C791 1.429 . S
C2537 C53 2.018 . S
C2542 C675 1.988 . S
C2572 C706 1.140 . S
C2567 C0 1.157 . S
C2602 C754 1.993 . S
C2597 C19 2.003 . S
C2632 C862 1.599 . S
C2627 C37 1.635 . S
C2662 C914 1.427 . S
C2657 C261 1.427 . S
C2687 C193 1.255 . S
C2692 C835 1.225 . S
C2722 C954 1.423 . S
C2717 C205 1.422 . S
C2752 C786 1.288 . S
C2747 C215 1.301 . S
C2782 C662 0.149 . S
C2777 C252 0.164 . S
C2807 C187 2.301 . S
C2812 C714 2.277 . S
C2842 C751 0.665 . S
C2837 C196 0.666 . S
C2867 C221 1.837 . S
C2872 C865 1.825 . S
C2902 C911 1.817 . S
C2897 C317 1.851 . S
C2927 C135 1.984 . S
C2932 C505 1.939 . S
C2962 C551 1.003 . S
C2957 C151 1.003 . S
C2992 C586 1.298 . S
C2987 C154 1.319 . S
C3022 C875 1.805 . S
C3017 C305 1.835 . S
C3047 C280 1.385 . S
C3052 C951 1.380 . S
C3082 C474 1.300 . S
C3077 C145 1.291 . S
C3112 C382 0.356 . S
C3107 C117 0.332 . S
C3137 C95 2.102 . S
C3142 C915 2.043 . S
C3172 C394 1.740 . S
C3167 C70 1.760 . S
C3197 C61 1.283 . S
C3202 C955 1.269 . S
C3227 C107 1.488 . S
C3232 C462 1.469 . S
C3257 C39 2.072 . S
C3262 C666 2.050 1_556 S
C3292 C555 1.158 . S
C3287 C23 1.194 . S
C3317 C5 2.051 . S
C3322 C745 2.040 . S
C3347 C42 1.607 . S
C3352 C631 1.579 . S
C3382 C905 1.396 . S
C3377 C322 1.390 . S
C3407 C165 1.296 . S
C3412 C386 1.259 . S
C3442 C945 1.456 . S
C3437 C294 1.420 . S
C3467 C131 1.341 . S
C3472 C475 1.330 . S
C3497 C331 0.101 . S
C3502 C671 0.133 . S
C3532 C545 2.335 . S
C3527 C159 2.355 1_556 S
C3557 C303 0.688 . S
C3562 C742 0.721 . S
C3592 C634 1.855 . S
C3587 C137 1.871 . S
C3622 C902 1.798 . S
C3617 C238 1.842 . S
C3652 C514 1.968 1_655 S
C3647 C210 1.994 . S
C3677 C235 1.025 . S
C3682 C702 1.017 . S
C3712 C595 1.357 . S
C3707 C191 1.402 . S
C3737 C207 1.837 . S
C3742 C626 1.800 . S
C3767 C177 1.430 . S
C3772 C942 1.408 . S
C3802 C785 1.354 . S
C3797 C229 1.347 1_565 S
C3832 C831 0.360 . S
C3827 C271 0.338 . S
