# Generated by pormake.
# Topology eea, (3,6)-cn, num edge types: 1
# Building blocks:
#     Node 0, Type 0, BuildingBlock: WUSLED_clean_sbu_0, # of connection points: 3
#     Node 1, Type 0, BuildingBlock: WUSLED_clean_sbu_0, # of connection points: 3
#     Node 2, Type 0, BuildingBlock: WUSLED_clean_sbu_0, # of connection points: 3
#     Node 3, Type 0, BuildingBlock: WUSLED_clean_sbu_0, # of connection points: 3
#     Node 4, Type 0, BuildingBlock: WUSLED_clean_sbu_0, # of connection points: 3
#     Node 5, Type 0, BuildingBlock: WUSLED_clean_sbu_0, # of connection points: 3
#     Node 6, Type 0, BuildingBlock: WUSLED_clean_sbu_0, # of connection points: 3
#     Node 7, Type 0, BuildingBlock: WUSLED_clean_sbu_0, # of connection points: 3
#     Node 8, Type 0, BuildingBlock: WUSLED_clean_sbu_0, # of connection points: 3
#     Node 9, Type 0, BuildingBlock: WUSLED_clean_sbu_0, # of connection points: 3
#     Node 10, Type 0, BuildingBlock: WUSLED_clean_sbu_0, # of connection points: 3
#     Node 11, Type 0, BuildingBlock: WUSLED_clean_sbu_0, # of connection points: 3
#     Node 12, Type 0, BuildingBlock: WUSLED_clean_sbu_0, # of connection points: 3
#     Node 13, Type 0, BuildingBlock: WUSLED_clean_sbu_0, # of connection points: 3
#     Node 14, Type 0, BuildingBlock: WUSLED_clean_sbu_0, # of connection points: 3
#     Node 15, Type 0, BuildingBlock: WUSLED_clean_sbu_0, # of connection points: 3
#     Node 16, Type 0, BuildingBlock: WUSLED_clean_sbu_0, # of connection points: 3
#     Node 17, Type 0, BuildingBlock: WUSLED_clean_sbu_0, # of connection points: 3
#     Node 18, Type 1, BuildingBlock: CUKXOW_clean_sbu_0, # of connection points: 6
#     Node 19, Type 1, BuildingBlock: CUKXOW_clean_sbu_0, # of connection points: 6
#     Node 20, Type 1, BuildingBlock: CUKXOW_clean_sbu_0, # of connection points: 6
#     Node 21, Type 1, BuildingBlock: CUKXOW_clean_sbu_0, # of connection points: 6
#     Node 22, Type 1, BuildingBlock: CUKXOW_clean_sbu_0, # of connection points: 6
#     Node 23, Type 1, BuildingBlock: CUKXOW_clean_sbu_0, # of connection points: 6
#     Node 24, Type 1, BuildingBlock: CUKXOW_clean_sbu_0, # of connection points: 6
#     Node 25, Type 1, BuildingBlock: CUKXOW_clean_sbu_0, # of connection points: 6
#     Node 26, Type 1, BuildingBlock: CUKXOW_clean_sbu_0, # of connection points: 6
#     Edge 27, Type (0, 1), BuildingBlock: CIFDUS_clean_linker_0, # of connection points: 2
#     Edge 28, Type (0, 1), BuildingBlock: CIFDUS_clean_linker_0, # of connection points: 2
#     Edge 29, Type (0, 1), BuildingBlock: CIFDUS_clean_linker_0, # of connection points: 2
#     Edge 30, Type (0, 1), BuildingBlock: CIFDUS_clean_linker_0, # of connection points: 2
#     Edge 31, Type (0, 1), BuildingBlock: CIFDUS_clean_linker_0, # of connection points: 2
#     Edge 32, Type (0, 1), BuildingBlock: CIFDUS_clean_linker_0, # of connection points: 2
#     Edge 33, Type (0, 1), BuildingBlock: CIFDUS_clean_linker_0, # of connection points: 2
#     Edge 34, Type (0, 1), BuildingBlock: CIFDUS_clean_linker_0, # of connection points: 2
#     Edge 35, Type (0, 1), BuildingBlock: CIFDUS_clean_linker_0, # of connection points: 2
#     Edge 36, Type (0, 1), BuildingBlock: CIFDUS_clean_linker_0, # of connection points: 2
#     Edge 37, Type (0, 1), BuildingBlock: CIFDUS_clean_linker_0, # of connection points: 2
#     Edge 38, Type (0, 1), BuildingBlock: CIFDUS_clean_linker_0, # of connection points: 2
#     Edge 39, Type (0, 1), BuildingBlock: CIFDUS_clean_linker_0, # of connection points: 2
#     Edge 40, Type (0, 1), BuildingBlock: CIFDUS_clean_linker_0, # of connection points: 2
#     Edge 41, Type (0, 1), BuildingBlock: CIFDUS_clean_linker_0, # of connection points: 2
#     Edge 42, Type (0, 1), BuildingBlock: CIFDUS_clean_linker_0, # of connection points: 2
#     Edge 43, Type (0, 1), BuildingBlock: CIFDUS_clean_linker_0, # of connection points: 2
#     Edge 44, Type (0, 1), BuildingBlock: CIFDUS_clean_linker_0, # of connection points: 2
#     Edge 45, Type (0, 1), BuildingBlock: CIFDUS_clean_linker_0, # of connection points: 2
#     Edge 46, Type (0, 1), BuildingBlock: CIFDUS_clean_linker_0, # of connection points: 2
#     Edge 47, Type (0, 1), BuildingBlock: CIFDUS_clean_linker_0, # of connection points: 2
#     Edge 48, Type (0, 1), BuildingBlock: CIFDUS_clean_linker_0, # of connection points: 2
#     Edge 49, Type (0, 1), BuildingBlock: CIFDUS_clean_linker_0, # of connection points: 2
#     Edge 50, Type (0, 1), BuildingBlock: CIFDUS_clean_linker_0, # of connection points: 2
#     Edge 51, Type (0, 1), BuildingBlock: CIFDUS_clean_linker_0, # of connection points: 2
#     Edge 52, Type (0, 1), BuildingBlock: CIFDUS_clean_linker_0, # of connection points: 2
#     Edge 53, Type (0, 1), BuildingBlock: CIFDUS_clean_linker_0, # of connection points: 2
#     Edge 54, Type (0, 1), BuildingBlock: CIFDUS_clean_linker_0, # of connection points: 2
#     Edge 55, Type (0, 1), BuildingBlock: CIFDUS_clean_linker_0, # of connection points: 2
#     Edge 56, Type (0, 1), BuildingBlock: CIFDUS_clean_linker_0, # of connection points: 2
#     Edge 57, Type (0, 1), BuildingBlock: CIFDUS_clean_linker_0, # of connection points: 2
#     Edge 58, Type (0, 1), BuildingBlock: CIFDUS_clean_linker_0, # of connection points: 2
#     Edge 59, Type (0, 1), BuildingBlock: CIFDUS_clean_linker_0, # of connection points: 2
#     Edge 60, Type (0, 1), BuildingBlock: CIFDUS_clean_linker_0, # of connection points: 2
#     Edge 61, Type (0, 1), BuildingBlock: CIFDUS_clean_linker_0, # of connection points: 2
#     Edge 62, Type (0, 1), BuildingBlock: CIFDUS_clean_linker_0, # of connection points: 2
#     Edge 63, Type (0, 1), BuildingBlock: CIFDUS_clean_linker_0, # of connection points: 2
#     Edge 64, Type (0, 1), BuildingBlock: CIFDUS_clean_linker_0, # of connection points: 2
#     Edge 65, Type (0, 1), BuildingBlock: CIFDUS_clean_linker_0, # of connection points: 2
#     Edge 66, Type (0, 1), BuildingBlock: CIFDUS_clean_linker_0, # of connection points: 2
#     Edge 67, Type (0, 1), BuildingBlock: CIFDUS_clean_linker_0, # of connection points: 2
#     Edge 68, Type (0, 1), BuildingBlock: CIFDUS_clean_linker_0, # of connection points: 2
#     Edge 69, Type (0, 1), BuildingBlock: CIFDUS_clean_linker_0, # of connection points: 2
#     Edge 70, Type (0, 1), BuildingBlock: CIFDUS_clean_linker_0, # of connection points: 2
#     Edge 71, Type (0, 1), BuildingBlock: CIFDUS_clean_linker_0, # of connection points: 2
#     Edge 72, Type (0, 1), BuildingBlock: CIFDUS_clean_linker_0, # of connection points: 2
#     Edge 73, Type (0, 1), BuildingBlock: CIFDUS_clean_linker_0, # of connection points: 2
#     Edge 74, Type (0, 1), BuildingBlock: CIFDUS_clean_linker_0, # of connection points: 2
#     Edge 75, Type (0, 1), BuildingBlock: CIFDUS_clean_linker_0, # of connection points: 2
#     Edge 76, Type (0, 1), BuildingBlock: CIFDUS_clean_linker_0, # of connection points: 2
#     Edge 77, Type (0, 1), BuildingBlock: CIFDUS_clean_linker_0, # of connection points: 2
#     Edge 78, Type (0, 1), BuildingBlock: CIFDUS_clean_linker_0, # of connection points: 2
#     Edge 79, Type (0, 1), BuildingBlock: CIFDUS_clean_linker_0, # of connection points: 2
#     Edge 80, Type (0, 1), BuildingBlock: CIFDUS_clean_linker_0, # of connection points: 2
# Relax obj value: 0.018
# Max RMSD: 0.122
# Mean RMSD: 0.056
data_MOF--net-eea--node1-WUSLED_clean_sbu_0--node2-CUKXOW_clean_sbu_0--edge1-CIFDUS_clean_linker_0
_symmetry_space_group_name_H-M    P1
_symmetry_Int_Tables_number       1
_symmetry_cell_setting            triclinic
loop_
_symmetry_equiv_pos_as_xyz
'x, y, z'
_cell_length_a     65.032528
_cell_length_b     61.934289
_cell_length_c     68.560491
_cell_angle_alpha  92.545482
_cell_angle_beta   92.942826
_cell_angle_gamma 119.93128
loop_
_atom_site_label
_atom_site_type_symbol
_atom_site_fract_x
_atom_site_fract_y
_atom_site_fract_z
_atom_type_partial_charge
C0 C 0.22251 0.16936 0.41533 0.0
C1 C 0.2394 0.19507 0.41696 0.0
C2 C 0.21039 0.20423 0.40109 0.0
C3 C 0.2334 0.21232 0.40986 0.0
C4 C 0.19361 0.17849 0.39954 0.0
C5 C 0.19962 0.16132 0.40654 0.0
U6 U 0.24631 0.13939 0.45237 0.0
O7 O 0.23054 0.09973 0.45776 0.0
O8 O 0.26574 0.11933 0.44641 0.0
C9 C 0.24803 0.0978 0.45072 0.0
C10 C 0.22832 0.15028 0.42163 0.0
C11 C 0.24095 0.07606 0.43656 0.0
C12 C 0.21337 0.04499 0.41095 0.0
C13 C 0.22092 0.06696 0.423 0.0
C14 C 0.24627 0.04148 0.42529 0.0
C15 C 0.22577 0.03177 0.41213 0.0
C16 C 0.25372 0.06334 0.43738 0.0
C17 C 0.27127 0.17009 0.50505 0.0
C18 C 0.29696 0.16358 0.52828 0.0
C19 C 0.27375 0.18149 0.53989 0.0
C20 C 0.26449 0.17989 0.52066 0.0
C21 C 0.29012 0.17338 0.54399 0.0
C22 C 0.28756 0.16186 0.509 0.0
C23 C 0.26128 0.16907 0.4849 0.0
O24 O 0.25096 0.15701 0.42449 0.0
O25 O 0.21528 0.13583 0.43479 0.0
O26 O 0.23894 0.15165 0.48053 0.0
O27 O 0.2749 0.17171 0.4706 0.0
H28 H 0.25723 0.20185 0.42363 0.0
H29 H 0.24668 0.23201 0.41147 0.0
H30 H 0.17585 0.17151 0.39262 0.0
H31 H 0.18637 0.1416 0.40489 0.0
H32 H 0.19769 0.03823 0.40082 0.0
H33 H 0.21084 0.07654 0.422 0.0
H34 H 0.2561 0.03168 0.42677 0.0
H35 H 0.26918 0.06999 0.44777 0.0
H36 H 0.3093 0.15688 0.53093 0.0
H37 H 0.26829 0.1894 0.55155 0.0
H38 H 0.25203 0.18644 0.51796 0.0
H39 H 0.293 0.1541 0.49722 0.0
C40 C 0.94664 0.16713 0.4225 0.0
C41 C 0.95251 0.19191 0.41981 0.0
C42 C 0.98922 0.20007 0.40561 0.0
C43 C 0.97361 0.20821 0.41152 0.0
C44 C 0.98361 0.17552 0.40891 0.0
C45 C 0.9626 0.15929 0.41717 0.0
U46 U 0.89691 0.13773 0.45881 0.0
O47 O 0.858 0.11863 0.45212 0.0
O48 O 0.87452 0.09791 0.46368 0.0
C49 C 0.85489 0.0967 0.45625 0.0
C50 C 0.92313 0.14838 0.42879 0.0
C51 C 0.83913 0.07478 0.4422 0.0
C52 C 0.81035 0.05541 0.41357 0.0
C53 C 0.82674 0.07678 0.42557 0.0
C54 C 0.8186 0.02965 0.43438 0.0
C55 C 0.80594 0.03152 0.41789 0.0
C56 C 0.83488 0.05095 0.44639 0.0
C57 C 0.90488 0.16851 0.51115 0.0
C58 C 0.87418 0.16266 0.53275 0.0
C59 C 0.91518 0.18142 0.54604 0.0
C60 C 0.92188 0.17899 0.52733 0.0
C61 C 0.89125 0.17348 0.54903 0.0
C62 C 0.8809 0.16016 0.51404 0.0
C63 C 0.91279 0.16724 0.49147 0.0
O64 O 0.92325 0.13392 0.44222 0.0
O65 O 0.90721 0.15529 0.43101 0.0
O66 O 0.90123 0.17043 0.4766 0.0
O67 O 0.91759 0.14932 0.48765 0.0
H68 H 0.94055 0.19855 0.4236 0.0
H69 H 0.97723 0.2269 0.40908 0.0
H70 H 0.99536 0.1687 0.40488 0.0
H71 H 0.95851 0.14029 0.41893 0.0
H72 H 0.8011 0.0576 0.40091 0.0
H73 H 0.82939 0.0948 0.42196 0.0
H74 H 0.81541 1.01158 0.43841 0.0
H75 H 0.8438 0.04869 0.45926 0.0
H76 H 0.85563 0.15658 0.53437 0.0
H77 H 0.92879 0.18942 0.55818 0.0
H78 H 0.94047 0.18548 0.52547 0.0
H79 H 0.86741 0.15198 0.5018 0.0
C80 C 0.86896 0.78659 0.42541 0.0
C81 C 0.8557 0.79269 0.43777 0.0
C82 C 0.83382 0.79653 0.40935 0.0
C83 C 0.83825 0.79758 0.42981 0.0
C84 C 0.84661 0.78954 0.39713 0.0
C85 C 0.86397 0.78467 0.40507 0.0
U86 U 0.90285 0.76885 0.46385 0.0
O87 O 0.92512 0.75196 0.45885 0.0
O88 O 0.94119 0.78973 0.47349 0.0
C89 C 0.94484 0.77216 0.46599 0.0
C90 C 0.88912 0.78385 0.43308 0.0
C91 C 0.96571 0.78055 0.45441 0.0
C92 C 0.98375 0.78592 0.42336 0.0
C93 C 0.96368 0.77934 0.43382 0.0
C94 C 1.00809 0.79569 0.45395 0.0
C95 C 1.00614 0.79375 0.43332 0.0
C96 C 0.98812 0.78914 0.46433 0.0
C97 C 0.8758 0.74241 0.51247 0.0
C98 C 0.87437 0.71103 0.53363 0.0
C99 C 0.87412 0.74741 0.5477 0.0
C100 C 0.87506 0.75603 0.52908 0.0
C101 C 0.87375 0.7248 0.55027 0.0
C102 C 0.87542 0.71975 0.51493 0.0
C103 C 0.87541 0.75155 0.49284 0.0
O104 O 0.90219 0.79887 0.44843 0.0
O105 O 0.88512 0.76091 0.43395 0.0
O106 O 0.87411 0.73739 0.4774 0.0
O107 O 0.88998 0.77549 0.49131 0.0
H108 H 0.85923 0.79428 0.45354 0.0
H109 H 0.82883 0.80302 0.43965 0.0
H110 H 0.84337 0.78807 0.38134 0.0
H111 H 0.87394 0.77993 0.39527 0.0
H112 H 0.98158 0.78411 0.4075 0.0
H113 H 0.94654 0.77286 0.42584 0.0
H114 H 0.02509 0.8021 0.46212 0.0
H115 H 0.99012 0.79038 0.4802 0.0
H116 H 0.87422 0.69362 0.53509 0.0
H117 H 0.8732 0.75829 0.56008 0.0
H118 H 0.87491 0.7733 0.52764 0.0
H119 H 0.87577 0.70866 0.50243 0.0
C120 C 0.08534 0.24868 0.61152 0.0
C121 C 0.06683 0.24349 0.59724 0.0
C122 C 0.04053 0.23942 0.62278 0.0
C123 C 0.04463 0.23888 0.60283 0.0
C124 C 0.05937 0.2452 0.63696 0.0
C125 C 0.08147 0.24971 0.63137 0.0
U126 U 0.13736 0.27072 0.57835 0.0
O127 O 0.17578 0.28847 0.58669 0.0
O128 O 0.15709 0.25184 0.56995 0.0
C129 C 0.17709 0.26923 0.57942 0.0
C130 C 0.10849 0.25216 0.60624 0.0
C131 C 0.18982 0.26029 0.59215 0.0
C132 C 0.20039 0.25126 0.62415 0.0
C133 C 0.18728 0.25889 0.61236 0.0
C134 C 0.21826 0.24581 0.59559 0.0
C135 C 0.21625 0.24486 0.61593 0.0
C136 C 0.20523 0.25348 0.58388 0.0
C137 C 0.13653 0.30215 0.53119 0.0
C138 C 0.17021 0.32726 0.51242 0.0
C139 C 0.12995 0.31024 0.49772 0.0
C140 C 0.12102 0.29933 0.51505 0.0
C141 C 0.15465 0.3243 0.49615 0.0
C142 C 0.16123 0.31618 0.52977 0.0
C143 C 0.12638 0.29042 0.54925 0.0
O144 O 0.10797 0.23868 0.59065 0.0
O145 O 0.12629 0.27532 0.6074 0.0
O146 O 0.13783 0.30311 0.56594 0.0
O147 O 0.11898 0.26643 0.54928 0.0
H148 H 0.06941 0.24264 0.5818 0.0
H149 H 0.03053 0.23432 0.59151 0.0
H150 H 0.05708 0.24629 0.65243 0.0
H151 H 0.09553 0.25378 0.64262 0.0
H152 H 0.19848 0.25091 0.63974 0.0
H153 H 0.17539 0.26398 0.61905 0.0
H154 H 0.22987 0.24052 0.58867 0.0
H155 H 0.20732 0.25426 0.5683 0.0
H156 H 0.18931 0.33774 0.51162 0.0
H157 H 0.11746 0.30782 0.48558 0.0
H158 H 0.10192 0.28867 0.51586 0.0
H159 H 0.17356 0.31851 0.54202 0.0
C160 C 0.79864 0.83802 0.599 0.0
C161 C 0.78464 0.8122 0.60045 0.0
C162 C 0.81466 0.8131 0.62388 0.0
C163 C 0.7925 0.79987 0.61277 0.0
C164 C 0.82845 0.83912 0.62272 0.0
C165 C 0.82049 0.85148 0.61047 0.0
U166 U 0.79073 0.8926 0.58318 0.0
O167 O 0.78657 0.90763 0.61155 0.0
O168 O 0.82161 0.9244 0.59986 0.0
C169 C 0.80879 0.92601 0.61347 0.0
C170 C 0.79056 0.85017 0.58484 0.0
C171 C 0.81243 0.95116 0.61868 0.0
C172 C 0.81518 0.98187 0.64368 0.0
C173 C 0.81093 0.95787 0.63814 0.0
C174 C 0.82227 0.99285 0.61025 0.0
C175 C 0.82113 0.99976 0.62984 0.0
C176 C 0.81787 0.96876 0.6047 0.0
C177 C 0.76123 0.89181 0.53195 0.0
C178 C 0.73784 0.89299 0.50364 0.0
C179 C 0.75259 0.86401 0.5026 0.0
C180 C 0.7632 0.87279 0.52182 0.0
C181 C 0.73978 0.87406 0.49324 0.0
C182 C 0.74839 0.90169 0.52273 0.0
C183 C 0.77294 0.90255 0.55178 0.0
O184 O 0.80731 0.86982 0.57724 0.0
O185 O 0.77259 0.85291 0.58951 0.0
O186 O 0.76046 0.89193 0.56655 0.0
O187 O 0.79545 0.90888 0.55473 0.0
H188 H 0.76777 0.80142 0.59171 0.0
H189 H 0.78155 0.7798 0.6131 0.0
H190 H 0.84546 0.84993 0.63124 0.0
H191 H 0.83158 0.87147 0.60976 0.0
H192 H 0.81438 0.98661 0.65891 0.0
H193 H 0.80677 0.94459 0.64916 0.0
H194 H 0.82651 1.00606 0.59918 0.0
H195 H 0.81892 0.96397 0.58954 0.0
H196 H 0.72861 0.9016 0.49687 0.0
H197 H 0.75432 0.84931 0.49511 0.0
H198 H 0.77306 0.8649 0.52869 0.0
H199 H 0.74681 0.9165 0.53024 0.0
C200 C 0.08951 0.8518 0.61622 0.0
C201 C 0.07059 0.83801 0.60177 0.0
C202 C 0.04387 0.81609 0.62691 0.0
C203 C 0.04801 0.82032 0.60707 0.0
C204 C 0.06306 0.82969 0.64122 0.0
C205 C 0.08555 0.84732 0.63593 0.0
U206 U 0.14312 0.88359 0.58407 0.0
O207 O 0.1644 0.92358 0.57908 0.0
O208 O 0.18136 0.90499 0.59374 0.0
C209 C 0.18379 0.92625 0.58848 0.0
C210 C 0.11314 0.87186 0.61146 0.0
C211 C 0.19757 0.9487 0.60259 0.0
C212 C 0.22659 0.9704 0.63078 0.0
C213 C 0.21123 0.94836 0.61906 0.0
C214 C 0.2146 0.99358 0.61019 0.0
C215 C 0.22878 0.99339 0.62632 0.0
C216 C 0.19929 0.97156 0.59844 0.0
C217 C 0.14412 0.85225 0.53421 0.0
C218 C 0.16112 0.86962 0.50389 0.0
C219 C 0.15362 0.82843 0.51068 0.0
C220 C 0.14496 0.83063 0.52853 0.0
C221 C 0.16149 0.84774 0.49798 0.0
C222 C 0.1526 0.87188 0.5218 0.0
C223 C 0.13315 0.8532 0.55247 0.0
O224 O 0.13037 0.86657 0.61178 0.0
O225 O 0.11347 0.88508 0.59687 0.0
O226 O 0.12605 0.86967 0.55414 0.0
O227 O 0.14345 0.85156 0.5689 0.0
H228 H 0.07317 0.84115 0.58645 0.0
H229 H 0.03366 0.81037 0.59564 0.0
H230 H 0.06075 0.82667 0.65659 0.0
H231 H 0.09986 0.85772 0.64732 0.0
H232 H 0.23702 0.96948 0.6432 0.0
H233 H 0.21059 0.9312 0.62266 0.0
H234 H 0.21603 1.01095 0.60612 0.0
H235 H 0.18937 0.97261 0.5857 0.0
H236 H 0.16737 0.88502 0.49462 0.0
H237 H 0.15345 0.81125 0.50655 0.0
H238 H 0.13843 0.81517 0.53777 0.0
H239 H 0.15234 0.88886 0.52577 0.0
C240 C 0.90191 0.50638 0.74553 0.0
C241 C 0.91129 0.52902 0.75717 0.0
C242 C 0.89881 0.54697 0.7312 0.0
C243 C 0.9098 0.54917 0.75004 0.0
C244 C 0.88974 0.52427 0.71961 0.0
C245 C 0.89128 0.50425 0.72671 0.0
U246 U 0.91623 0.47046 0.78401 0.0
O247 O 0.89435 0.43099 0.79016 0.0
O248 O 0.92945 0.44428 0.77914 0.0
C249 C 0.9097 0.42494 0.78386 0.0
C250 C 0.90265 0.48456 0.75255 0.0
C251 C 0.89966 0.40138 0.77109 0.0
C252 C 0.87558 0.35594 0.76792 0.0
C253 C 0.8842 0.37882 0.77888 0.0
C254 C 0.89755 0.37767 0.74091 0.0
C255 C 0.88224 0.35499 0.74883 0.0
C256 C 0.90615 0.40065 0.75192 0.0
C257 C 0.94493 0.49936 0.83588 0.0
C258 C 0.95086 0.51102 0.87101 0.0
C259 C 0.96539 0.4848 0.85767 0.0
C260 C 0.95656 0.48567 0.83882 0.0
C261 C 0.96262 0.49739 0.87407 0.0
C262 C 0.94216 0.512 0.85212 0.0
C263 C 0.93564 0.50072 0.81607 0.0
O264 O 0.92383 0.48695 0.75559 0.0
O265 O 0.88848 0.47304 0.76621 0.0
O266 O 0.91251 0.48664 0.81203 0.0
O267 O 0.94785 0.50039 0.80146 0.0
H268 H 0.91955 0.53102 0.77177 0.0
H269 H 0.91679 0.56627 0.75944 0.0
H270 H 0.88151 0.52198 0.70495 0.0
H271 H 0.88403 0.48698 0.71746 0.0
H272 H 0.86419 0.33894 0.77466 0.0
H273 H 0.87912 0.37884 0.79369 0.0
H274 H 0.90287 0.37768 0.7262 0.0
H275 H 0.91806 0.41775 0.74551 0.0
H276 H 0.94803 0.52064 0.88323 0.0
H277 H 0.97464 0.47442 0.85932 0.0
H278 H 0.9589 0.47569 0.82655 0.0
H279 H 0.93316 0.5226 0.85021 0.0
C280 C 0.61353 0.504 0.75686 0.0
C281 C 0.6299 0.52249 0.77107 0.0
C282 C 0.65916 0.5405 0.74682 0.0
C283 C 0.65253 0.54056 0.7661 0.0
C284 C 0.64253 0.52191 0.73271 0.0
C285 C 0.62002 0.50393 0.73769 0.0
U286 U 0.5613 0.47132 0.79009 0.0
O287 O 0.52275 0.45308 0.78154 0.0
O288 O 0.53813 0.431 0.79251 0.0
C289 C 0.51898 0.43075 0.78503 0.0
C290 C 0.58972 0.48435 0.76147 0.0
C291 C 0.50344 0.4101 0.77016 0.0
C292 C 0.49711 0.38025 0.74286 0.0
C293 C 0.51258 0.40098 0.75589 0.0
C294 C 0.46331 0.37791 0.75799 0.0
C295 C 0.47224 0.36833 0.74383 0.0
C296 C 0.47872 0.39852 0.77096 0.0
C297 C 0.56316 0.49679 0.8426 0.0
C298 C 0.56764 0.50883 0.87755 0.0
C299 C 0.52831 0.48204 0.8612 0.0
C300 C 0.53838 0.48286 0.84345 0.0
C301 C 0.54279 0.49502 0.87853 0.0
C302 C 0.57768 0.50971 0.85978 0.0
C303 C 0.57411 0.49817 0.82397 0.0
O304 O 0.58914 0.46921 0.77454 0.0
O305 O 0.57371 0.49117 0.76346 0.0
O306 O 0.56431 0.50282 0.80869 0.0
O307 O 0.57936 0.48062 0.81993 0.0
H308 H 0.62521 0.52289 0.78596 0.0
H309 H 0.66475 0.55469 0.77732 0.0
H310 H 0.64704 0.5209 0.71784 0.0
H311 H 0.60769 0.48976 0.72652 0.0
H312 H 0.50462 0.37357 0.73204 0.0
H313 H 0.53162 0.40967 0.75497 0.0
H314 H 0.44436 0.36906 0.75947 0.0
H315 H 0.47129 0.40514 0.78192 0.0
H316 H 0.57943 0.51873 0.89057 0.0
H317 H 0.50911 0.47147 0.86126 0.0
H318 H 0.52681 0.47272 0.83037 0.0
H319 H 0.59685 0.52048 0.85946 0.0
C320 C 0.53094 0.11927 0.75949 0.0
C321 C 0.50829 0.10415 0.76598 0.0
C322 C 0.49206 0.12459 0.74583 0.0
C323 C 0.48901 0.10677 0.75919 0.0
C324 C 0.51493 0.1399 0.73967 0.0
C325 C 0.53411 0.13721 0.7464 0.0
U326 U 0.56598 0.10081 0.79558 0.0
O327 O 0.58685 0.08265 0.78901 0.0
O328 O 0.60454 0.1204 0.8039 0.0
C329 C 0.60722 0.10276 0.79508 0.0
C330 C 0.55147 0.11655 0.7658 0.0
C331 C 0.62634 0.11076 0.78149 0.0
C332 C 0.65924 0.14316 0.76551 0.0
C333 C 0.64068 0.136 0.77778 0.0
C334 C 0.64928 0.10002 0.76016 0.0
C335 C 0.66391 0.12528 0.75665 0.0
C336 C 0.63084 0.0929 0.77249 0.0
C337 C 0.53987 0.07341 0.84405 0.0
C338 C 0.56053 0.07382 0.87484 0.0
C339 C 0.51777 0.04694 0.86935 0.0
C340 C 0.51832 0.05545 0.85072 0.0
C341 C 0.53881 0.05628 0.88179 0.0
C342 C 0.56107 0.08227 0.85612 0.0
C343 C 0.53939 0.08354 0.82503 0.0
O344 O 0.56518 0.1314 0.78099 0.0
O345 O 0.54742 0.09355 0.76624 0.0
O346 O 0.53721 0.06943 0.80927 0.0
O347 O 0.5547 0.10738 0.82384 0.0
H348 H 0.5055 0.0902 0.77614 0.0
H349 H 0.47165 0.09456 0.76415 0.0
H350 H 0.51809 0.15416 0.72974 0.0
H351 H 0.55148 0.14915 0.74132 0.0
H352 H 0.67028 0.1628 0.76336 0.0
H353 H 0.6378 0.15031 0.78452 0.0
H354 H 0.65205 0.08566 0.75336 0.0
H355 H 0.62014 0.07334 0.77509 0.0
H356 H 0.57709 0.0812 0.88394 0.0
H357 H 0.50071 0.0337 0.87427 0.0
H358 H 0.50176 0.04844 0.84167 0.0
H359 H 0.57795 0.09605 0.85125 0.0
C360 C 0.74571 0.5676 0.94154 0.0
C361 C 0.74024 0.58672 0.94472 0.0
C362 C 0.70321 0.55771 0.95834 0.0
C363 C 0.71921 0.58181 0.953 0.0
C364 C 0.70842 0.5385 0.95457 0.0
C365 C 0.72943 0.54342 0.94635 0.0
U366 U 0.79412 0.58835 0.90448 0.0
O367 O 0.83317 0.61091 0.9104 0.0
O368 O 0.81654 0.57226 0.8974 0.0
C369 C 0.83627 0.5922 0.90487 0.0
C370 C 0.76896 0.57268 0.93489 0.0
C371 C 0.85257 0.58801 0.91795 0.0
C372 C 0.86114 0.56153 0.93809 0.0
C373 C 0.84476 0.56581 0.92734 0.0
C374 C 0.89317 0.6019 0.93083 0.0
C375 C 0.88563 0.57934 0.93967 0.0
C376 C 0.87684 0.60612 0.92006 0.0
C377 C 0.78577 0.60955 0.85436 0.0
C378 C 0.81744 0.63453 0.83385 0.0
C379 C 0.77648 0.61198 0.81996 0.0
C380 C 0.7691 0.60288 0.83817 0.0
C381 C 0.80076 0.62808 0.81756 0.0
C382 C 0.81004 0.62529 0.85202 0.0
C383 C 0.77746 0.60022 0.87353 0.0
O384 O 0.7683 0.55747 0.92055 0.0
O385 O 0.78513 0.59618 0.93343 0.0
O386 O 0.78898 0.61588 0.88901 0.0
O387 O 0.77278 0.57733 0.87599 0.0
H388 H 0.75245 0.60562 0.94128 0.0
H389 H 0.71589 0.5971 0.95583 0.0
H390 H 0.69634 0.51963 0.95815 0.0
H391 H 0.73321 0.52835 0.94415 0.0
H392 H 0.85471 0.54389 0.94459 0.0
H393 H 0.82611 0.55151 0.92599 0.0
H394 H 0.9118 0.61624 0.93203 0.0
H395 H 0.88328 0.62341 0.91301 0.0
H396 H 0.83623 0.64712 0.83269 0.0
H397 H 0.76315 0.60626 0.80773 0.0
H398 H 0.7503 0.59064 0.83963 0.0
H399 H 0.82327 0.63065 0.86429 0.0
C400 C 0.45855 0.18368 0.95626 0.0
C401 C 0.447 0.15973 0.94637 0.0
C402 C 0.46505 0.14514 0.97086 0.0
C403 C 0.45019 0.14062 0.95362 0.0
C404 C 0.47653 0.16925 0.98062 0.0
C405 C 0.47331 0.18823 0.97339 0.0
U406 U 0.43856 0.21642 0.91862 0.0
O407 O 0.4226 0.2399 0.92431 0.0
O408 O 0.45761 0.25621 0.91259 0.0
C409 C 0.44124 0.26031 0.9194 0.0
C410 C 0.45545 0.20426 0.94938 0.0
C411 C 0.4498 0.28343 0.93243 0.0
C412 C 0.45114 0.30512 0.96345 0.0
C413 C 0.44467 0.28287 0.95214 0.0
C414 C 0.46856 0.32883 0.93575 0.0
C415 C 0.46292 0.3284 0.95533 0.0
C416 C 0.46203 0.30663 0.92446 0.0
C417 C 0.4084 0.18538 0.86719 0.0
C418 C 0.38367 0.19535 0.84579 0.0
C419 C 0.40112 0.172 0.83233 0.0
C420 C 0.4117 0.17316 0.85097 0.0
C421 C 0.38686 0.18299 0.82948 0.0
C422 C 0.3944 0.19662 0.86443 0.0
C423 C 0.41934 0.18566 0.88678 0.0
O424 O 0.46848 0.21649 0.93534 0.0
O425 O 0.4335 0.2 0.94707 0.0
O426 O 0.40738 0.18498 0.90186 0.0
O427 O 0.44233 0.20136 0.89009 0.0
H428 H 0.43555 0.15582 0.93308 0.0
H429 H 0.44126 0.1224 0.94558 0.0
H430 H 0.48779 0.17341 0.99406 0.0
H431 H 0.4823 0.20655 0.98131 0.0
H432 H 0.44678 0.30408 0.97854 0.0
H433 H 0.43531 0.26526 0.95871 0.0
H434 H 0.4773 0.34629 0.92889 0.0
H435 H 0.46604 0.30755 0.90927 0.0
H436 H 0.37307 0.20429 0.84411 0.0
H437 H 0.40378 0.1621 0.8202 0.0
H438 H 0.42236 0.16429 0.85274 0.0
H439 H 0.39168 0.20632 0.87668 0.0
C440 C 0.75609 0.18511 0.95131 0.0
C441 C 0.73397 0.17456 0.94021 0.0
C442 C 0.71347 0.15174 0.96786 0.0
C443 C 0.71287 0.15795 0.94839 0.0
C444 C 0.73574 0.16163 0.97858 0.0
C445 C 0.75673 0.17809 0.97041 0.0
U446 U 0.80593 0.21851 0.91528 0.0
O447 O 0.8445 0.24146 0.92305 0.0
O448 O 0.82499 0.25864 0.91035 0.0
C449 C 0.84537 0.26225 0.91838 0.0
C450 C 0.77838 0.20537 0.94447 0.0
C451 C 0.85921 0.28467 0.93233 0.0
C452 C 0.88049 0.33005 0.93801 0.0
C453 C 0.86538 0.30826 0.92603 0.0
C454 C 0.88331 0.30512 0.96307 0.0
C455 C 0.88995 0.3288 0.95658 0.0
C456 C 0.86807 0.28327 0.9511 0.0
C457 C 0.80707 0.19052 0.86436 0.0
C458 C 0.81438 0.20356 0.8311 0.0
C459 C 0.83005 0.17847 0.84403 0.0
C460 C 0.81996 0.17807 0.86169 0.0
C461 C 0.82733 0.19115 0.82846 0.0
C462 C 0.80436 0.20323 0.84879 0.0
C463 C 0.79578 0.18927 0.88298 0.0
O464 O 0.79627 0.20124 0.94334 0.0
O465 O 0.77647 0.2179 0.93016 0.0
O466 O 0.78731 0.20442 0.88579 0.0
O467 O 0.80682 0.18757 0.89895 0.0
H468 H 0.73287 0.1797 0.92546 0.0
H469 H 0.69603 0.15079 0.93974 0.0
H470 H 0.73695 0.15696 0.99347 0.0
H471 H 0.77351 0.18601 0.97931 0.0
H472 H 0.88545 0.34794 0.93241 0.0
H473 H 0.85902 0.30989 0.91156 0.0
H474 H 0.89005 0.30347 0.97737 0.0
H475 H 0.86367 0.26538 0.95641 0.0
H476 H 0.8121 0.21371 0.81952 0.0
H477 H 0.83956 0.16838 0.84244 0.0
H478 H 0.82209 0.16777 0.87322 0.0
H479 H 0.7944 0.21287 0.85018 0.0
C480 C 0.57238 0.84458 0.08446 0.0
C481 C 0.55289 0.84745 0.08872 0.0
C482 C 0.56696 0.88364 0.06931 0.0
C483 C 0.55025 0.86674 0.08128 0.0
C484 C 0.58666 0.88103 0.06535 0.0
C485 C 0.58926 0.86169 0.07273 0.0
U486 U 0.58673 0.80672 0.12129 0.0
O487 O 0.56636 0.76632 0.12515 0.0
O488 O 0.60276 0.78319 0.11613 0.0
C489 C 0.58333 0.76247 0.11942 0.0
C490 C 0.57399 0.82257 0.09043 0.0
C491 C 0.57588 0.74016 0.10569 0.0
C492 C 0.57793 0.72032 0.07489 0.0
C493 C 0.5835 0.74196 0.0867 0.0
C494 C 0.55654 0.6948 0.10063 0.0
C495 C 0.56458 0.69644 0.08178 0.0
C496 C 0.56215 0.71638 0.11241 0.0
C497 C 0.61155 0.8341 0.17495 0.0
C498 C 0.60417 0.82549 0.2091 0.0
C499 C 0.64458 0.84624 0.19974 0.0
C500 C 0.6361 0.84508 0.18028 0.0
C501 C 0.62874 0.83665 0.21447 0.0
C502 C 0.59569 0.82429 0.18963 0.0
C503 C 0.60278 0.83491 0.15462 0.0
O504 O 0.59546 0.82576 0.09393 0.0
O505 O 0.55901 0.80848 0.10279 0.0
O506 O 0.58001 0.81977 0.14938 0.0
O507 O 0.61644 0.83659 0.14058 0.0
H508 H 0.53936 0.83453 0.09752 0.0
H509 H 0.53503 0.86834 0.08489 0.0
H510 H 0.59974 0.89347 0.05601 0.0
H511 H 0.60425 0.85979 0.06886 0.0
H512 H 0.58418 0.72232 0.06038 0.0
H513 H 0.5941 0.76006 0.08111 0.0
H514 H 0.54654 0.67684 0.10659 0.0
H515 H 0.55623 0.71449 0.12705 0.0
H516 H 0.59141 0.81765 0.21996 0.0
H517 H 0.66362 0.85531 0.20334 0.0
H518 H 0.64889 0.85327 0.16948 0.0
H519 H 0.57669 0.81599 0.18618 0.0
C520 C 0.2806 0.83407 0.08927 0.0
C521 C 0.29511 0.82553 0.08162 0.0
C522 C 0.3238 0.86758 0.07358 0.0
C523 C 0.31644 0.84204 0.07392 0.0
C524 C 0.30973 0.87635 0.08195 0.0
C525 C 0.2883 0.85976 0.08967 0.0
U526 U 0.2291 0.80395 0.12384 0.0
O527 O 0.19048 0.78657 0.11594 0.0
O528 O 0.20524 0.76404 0.1272 0.0
C529 C 0.18628 0.76417 0.11971 0.0
C530 C 0.25668 0.81541 0.09474 0.0
C531 C 0.17039 0.74342 0.10506 0.0
C532 C 0.16292 0.71006 0.08055 0.0
C533 C 0.17887 0.73112 0.09302 0.0
C534 C 0.12998 0.71384 0.09155 0.0
C535 C 0.13823 0.70099 0.07984 0.0
C536 C 0.14588 0.73477 0.10402 0.0
C537 C 0.23234 0.8299 0.17614 0.0
C538 C 0.1977 0.81888 0.19435 0.0
C539 C 0.23687 0.83763 0.21165 0.0
C540 C 0.24682 0.8387 0.19382 0.0
C541 C 0.21216 0.82782 0.21218 0.0
C542 C 0.20766 0.8198 0.17655 0.0
C543 C 0.2432 0.8312 0.15748 0.0
O544 O 0.25583 0.80013 0.10781 0.0
O545 O 0.2411 0.82282 0.09682 0.0
O546 O 0.23363 0.83627 0.14227 0.0
O547 O 0.24797 0.81333 0.15334 0.0
H548 H 0.28958 0.80585 0.08106 0.0
H549 H 0.32701 0.83469 0.06794 0.0
H550 H 0.31478 0.89586 0.08184 0.0
H551 H 0.27749 0.86694 0.0954 0.0
H552 H 0.16991 0.7008 0.07156 0.0
H553 H 0.19773 0.7375 0.09349 0.0
H554 H 0.11111 0.70722 0.09159 0.0
H555 H 0.13895 0.74388 0.11326 0.0
H556 H 0.17867 0.81148 0.19408 0.0
H557 H 0.24855 0.84427 0.22504 0.0
H558 H 0.26588 0.84636 0.19386 0.0
H559 H 0.19607 0.81274 0.1631 0.0
C560 C 0.19775 0.45346 0.09127 0.0
C561 C 0.18502 0.45831 0.10505 0.0
C562 C 0.1585 0.45881 0.07875 0.0
C563 C 0.16561 0.46102 0.09885 0.0
C564 C 0.17107 0.45341 0.06508 0.0
C565 C 0.19051 0.45083 0.07128 0.0
U566 U 0.23416 0.43788 0.12795 0.0
O567 O 0.25503 0.41944 0.12265 0.0
O568 O 0.27282 0.45795 0.13605 0.0
C569 C 0.27539 0.43957 0.12866 0.0
C570 C 0.21884 0.45153 0.09731 0.0
C571 C 0.29464 0.44667 0.11555 0.0
C572 C 0.31034 0.45763 0.08376 0.0
C573 C 0.29187 0.45132 0.09602 0.0
C574 C 0.33457 0.45499 0.11054 0.0
C575 C 0.33191 0.45941 0.09085 0.0
C576 C 0.31612 0.44866 0.12272 0.0
C577 C 0.20846 0.41302 0.1771 0.0
C578 C 0.22887 0.41519 0.20856 0.0
C579 C 0.18664 0.38583 0.20211 0.0
C580 C 0.18719 0.39405 0.18339 0.0
C581 C 0.2074 0.39647 0.21504 0.0
C582 C 0.22941 0.42335 0.18973 0.0
C583 C 0.20786 0.42232 0.15772 0.0
O584 O 0.23309 0.4673 0.11191 0.0
O585 O 0.21509 0.42875 0.09855 0.0
O586 O 0.20548 0.40746 0.14242 0.0
O587 O 0.22316 0.44599 0.15584 0.0
H588 H 0.19025 0.46031 0.12058 0.0
H589 H 0.15653 0.46539 0.1098 0.0
H590 H 0.16586 0.4511 0.04953 0.0
H591 H 0.2 0.44692 0.06043 0.0
H592 H 0.30759 0.46071 0.06866 0.0
H593 H 0.27537 0.44989 0.09023 0.0
H594 H 0.35104 0.45664 0.11662 0.0
H595 H 0.31863 0.44528 0.1378 0.0
H596 H 0.24521 0.42361 0.21807 0.0
H597 H 0.16974 0.37167 0.20668 0.0
H598 H 0.17081 0.3859 0.17392 0.0
H599 H 0.2461 0.43793 0.18517 0.0
C600 C 0.42288 0.91937 0.28262 0.0
C601 C 0.40313 0.9159 0.27061 0.0
C602 C 0.38169 0.91373 0.29946 0.0
C603 C 0.38273 0.91309 0.27895 0.0
C604 C 0.40176 0.91769 0.31135 0.0
C605 C 0.42207 0.92047 0.30301 0.0
U606 U 0.46777 0.93295 0.243 0.0
O607 O 0.50652 0.94865 0.24725 0.0
O608 O 0.48379 0.91041 0.23381 0.0
C609 C 0.50544 0.92795 0.2403 0.0
C610 C 0.444 0.92051 0.27446 0.0
C611 C 0.52025 0.91991 0.25128 0.0
C612 C 0.53753 0.9144 0.28171 0.0
C613 C 0.52171 0.92027 0.27182 0.0
C614 C 0.55009 0.90721 0.25063 0.0
C615 C 0.55222 0.90821 0.27122 0.0
C616 C 0.5343 0.913 0.24081 0.0
C617 C 0.46335 0.95855 0.19396 0.0
C618 C 0.47696 0.95202 0.16296 0.0
C619 C 0.47133 0.98751 0.1686 0.0
C620 C 0.46425 0.9801 0.1873 0.0
C621 C 0.47746 0.97336 0.15609 0.0
C622 C 0.4701 0.94476 0.18169 0.0
C623 C 0.45483 0.95044 0.21344 0.0
O624 O 0.43988 0.90461 0.25937 0.0
O625 O 0.46228 0.94288 0.27286 0.0
O626 O 0.46889 0.96475 0.22871 0.0
O627 O 0.44548 0.92645 0.21572 0.0
H628 H 0.40336 0.91504 0.25481 0.0
H629 H 0.36778 0.91042 0.26932 0.0
H630 H 0.40159 0.91793 0.32714 0.0
H631 H 0.43703 0.92297 0.31256 0.0
H632 H 0.53879 0.91546 0.29757 0.0
H633 H 0.51102 0.92558 0.28019 0.0
H634 H 0.56077 0.90209 0.24206 0.0
H635 H 0.5334 0.91253 0.22496 0.0
H636 H 0.48191 0.94091 0.15382 0.0
H637 H 0.47138 1.00394 0.16373 0.0
H638 H 0.45916 0.99105 0.19649 0.0
H639 H 0.46986 0.92821 0.18649 0.0
C640 C 0.12532 0.52065 0.29047 0.0
C641 C 0.11676 0.49833 0.27858 0.0
C642 C 0.13019 0.48082 0.30427 0.0
C643 C 0.11913 0.47856 0.28544 0.0
C644 C 0.13856 0.50324 0.31607 0.0
C645 C 0.13615 0.52288 0.30924 0.0
U646 U 0.10923 0.5567 0.25309 0.0
O647 O 0.0937 0.58066 0.25912 0.0
O648 O 0.12934 0.59679 0.24863 0.0
C649 C 0.11301 0.60111 0.25528 0.0
C650 C 0.12332 0.54199 0.28392 0.0
C651 C 0.12142 0.62333 0.26933 0.0
C652 C 0.1517 0.65614 0.29258 0.0
C653 C 0.14315 0.63366 0.28093 0.0
C654 C 0.11655 0.65784 0.2818 0.0
C655 C 0.13867 0.66874 0.29294 0.0
C656 C 0.10808 0.63545 0.27012 0.0
C657 C 0.08214 0.52961 0.20038 0.0
C658 C 0.08231 0.55346 0.17301 0.0
C659 C 0.05512 0.50881 0.17103 0.0
C660 C 0.06407 0.50783 0.18981 0.0
C661 C 0.0641 0.53165 0.16232 0.0
C662 C 0.09115 0.55247 0.19183 0.0
C663 C 0.09145 0.52798 0.22011 0.0
O664 O 0.13756 0.55487 0.27071 0.0
O665 O 0.10167 0.53833 0.28072 0.0
O666 O 0.07849 0.52678 0.23457 0.0
O667 O 0.1144 0.54288 0.22469 0.0
H668 H 0.10836 0.49625 0.26403 0.0
H669 H 0.11268 0.46168 0.27587 0.0
H670 H 0.1468 0.50557 0.33073 0.0
H671 H 0.14278 0.53991 0.31869 0.0
H672 H 0.16864 0.66381 0.30115 0.0
H673 H 0.15378 0.62466 0.2807 0.0
H674 H 0.10615 0.6671 0.28149 0.0
H675 H 0.09134 0.62793 0.26123 0.0
H676 H 0.08995 0.57135 0.16676 0.0
H677 H 0.04088 0.49169 0.16348 0.0
H678 H 0.05679 0.48999 0.19613 0.0
H679 H 0.1051 0.56956 0.19967 0.0
C680 C 0.41324 0.52289 0.27619 0.0
C681 C 0.39212 0.5119 0.26368 0.0
C682 C 0.36991 0.48469 0.28885 0.0
C683 C 0.37072 0.49303 0.26995 0.0
C684 C 0.39125 0.49531 0.30108 0.0
C685 C 0.41259 0.51419 0.29484 0.0
U686 U 0.46419 0.55928 0.24243 0.0
O687 O 0.48156 0.59914 0.23681 0.0
O688 O 0.50243 0.58424 0.25086 0.0
C689 C 0.50222 0.60419 0.24532 0.0
C690 C 0.43563 0.54464 0.27092 0.0
C691 C 0.51506 0.62738 0.25863 0.0
C692 C 0.5353 0.67285 0.26244 0.0
C693 C 0.52135 0.65031 0.25097 0.0
C694 C 0.53682 0.65005 0.28971 0.0
C695 C 0.54344 0.67309 0.28191 0.0
C696 C 0.52275 0.62742 0.2782 0.0
C697 C 0.46637 0.5311 0.19194 0.0
C698 C 0.48614 0.55356 0.16408 0.0
C699 C 0.47679 0.51075 0.16619 0.0
C700 C 0.46677 0.51008 0.18393 0.0
C701 C 0.48658 0.53249 0.15594 0.0
C702 C 0.47625 0.55291 0.18189 0.0
C703 C 0.45527 0.5297 0.21054 0.0
O704 O 0.45434 0.54181 0.27041 0.0
O705 O 0.43386 0.55735 0.2567 0.0
O706 O 0.44587 0.54404 0.21301 0.0
O707 O 0.46721 0.52935 0.22648 0.0
H708 H 0.39199 0.51824 0.24923 0.0
H709 H 0.35467 0.48552 0.26016 0.0
H710 H 0.39149 0.48912 0.31557 0.0
H711 H 0.42858 0.52237 0.30478 0.0
H712 H 0.54032 0.69016 0.25579 0.0
H713 H 0.51591 0.65083 0.23587 0.0
H714 H 0.54254 0.6495 0.3047 0.0
H715 H 0.51824 0.61004 0.28453 0.0
H716 H 0.49317 0.57053 0.15657 0.0
H717 H 0.47712 0.4943 0.16065 0.0
H718 H 0.45932 0.49307 0.19144 0.0
H719 H 0.47623 0.56944 0.18772 0.0
Tb720 Tb 0.54319 0.03292 0.01926 0.0
C721 C 0.52543 0.97551 0.02597 0.0
Tb722 Tb 0.48912 0.99573 0.02057 0.0
O723 O 0.54588 0.0481 0.04963 0.0
O724 O 0.52001 1.01181 0.04006 0.0
O725 O 0.54327 0.99744 0.02152 0.0
C726 C 0.44624 0.97062 0.03447 0.0
O727 O 0.50367 0.97176 0.02812 0.0
C728 C 0.50534 1.00024 0.98568 0.0
C729 C 0.50687 0.05317 1.01384 0.0
O730 O 0.45249 0.96405 0.01857 0.0
O731 O 0.46397 0.99168 0.04223 0.0
O732 O 0.48622 0.98053 0.9903 0.0
O733 O 0.51223 0.01675 0.99968 0.0
O734 O 0.489 0.03117 0.01814 0.0
O735 O 0.52877 0.05712 1.01196 0.0
C736 C 0.58586 0.05704 1.0047 0.0
O737 O 0.58057 0.06337 0.02125 0.0
O738 O 0.56729 0.03688 0.99669 0.0
C739 C 0.52676 0.02822 0.05407 0.0
Tb740 Tb 0.99757 0.52564 0.01637 0.0
C741 C 0.051 0.56271 0.0299 0.0
Tb742 Tb 0.03133 0.5043 0.01923 0.0
O743 O 1.00261 0.53535 0.04804 0.0
O744 O 1.00579 0.50541 0.03656 0.0
O745 O 0.0311 0.56074 0.02174 0.0
C746 C 0.06433 0.49232 0.02997 0.0
O747 O 0.05368 0.54297 0.03195 0.0
C748 C 0.01964 0.51097 0.98371 0.0
C749 C 0.97771 0.46692 1.00672 0.0
O750 O 0.06502 0.50533 0.01544 0.0
O751 O 0.04484 0.48577 0.0384 0.0
O752 O 0.02504 0.49398 0.98762 0.0
O753 O 0.02316 0.5246 0.99918 0.0
O754 O 0.99778 0.46905 1.01469 0.0
O755 O 0.97491 0.48659 1.00457 0.0
C756 C 0.96701 0.53949 1.0024 0.0
O757 O 0.96436 0.52678 0.01758 0.0
O758 O 0.98693 0.5446 0.99534 0.0
C759 C 1.00872 0.51886 0.05202 0.0
Tb760 Tb 0.48759 0.50089 0.0195 0.0
C761 C 0.50664 0.46675 1.00345 0.0
Tb762 Tb 0.54178 0.52551 1.01514 0.0
O763 O 0.47934 0.49273 0.98763 0.0
O764 O 0.51172 0.5229 0.99938 0.0
O765 O 0.48923 0.46721 1.01243 0.0
C766 C 0.58412 0.54119 1.0009 0.0
O767 O 0.52727 0.48736 1.00142 0.0
C768 C 0.52889 0.51642 0.05095 0.0
C769 C 0.5227 0.55973 0.031 0.0
O770 O 0.5759 0.52634 1.01486 0.0
O771 O 0.56868 0.54758 0.99525 0.0
O772 O 0.54976 0.53405 0.04699 0.0
O773 O 0.51766 0.50356 0.03524 0.0
O774 O 0.54015 0.55933 0.02196 0.0
O775 O 0.50214 0.53905 0.03315 0.0
C776 C 0.44573 0.48324 0.03505 0.0
O777 O 0.45357 0.50001 0.02236 0.0
O778 O 0.46123 0.47628 0.03856 0.0
C779 C 0.50034 0.51014 0.98369 0.0
Tb780 Tb 0.2076 0.36907 0.35266 0.0
C781 C 0.19186 0.31186 0.3569 0.0
Tb782 Tb 0.1535 0.32953 0.35135 0.0
O783 O 0.208 0.38046 0.38396 0.0
O784 O 0.18339 0.34533 0.37163 0.0
O785 O 0.20891 0.33415 0.35229 0.0
C786 C 0.10997 0.30317 0.364 0.0
O787 O 0.16985 0.30719 0.35952 0.0
C788 C 0.17183 0.33699 0.31737 0.0
C789 C 0.16994 0.38734 0.34698 0.0
O790 O 0.11796 0.29588 0.34961 0.0
O791 O 0.1263 0.32551 0.37084 0.0
O792 O 0.15267 0.31653 0.32091 0.0
O793 O 0.17755 0.35275 0.33181 0.0
O794 O 0.1522 0.36446 0.34965 0.0
O795 O 0.19238 0.39266 0.34619 0.0
C796 C 0.25179 0.39764 0.34178 0.0
O797 O 0.24427 0.40037 0.35841 0.0
O798 O 0.23452 0.37846 0.33145 0.0
C799 C 0.18873 0.35973 0.38675 0.0
Tb800 Tb 0.6649 0.85646 0.34973 0.0
C801 C 0.71809 0.89477 0.36499 0.0
Tb802 Tb 0.69975 0.83639 0.35704 0.0
O803 O 0.66604 0.86668 0.38086 0.0
O804 O 0.67317 0.83859 0.37211 0.0
O805 O 0.69832 0.89208 0.35577 0.0
C806 C 0.72981 0.82299 0.37304 0.0
O807 O 0.72111 0.87552 0.3684 0.0
C808 C 0.69029 0.84024 0.32005 0.0
C809 C 0.64695 0.79809 0.34167 0.0
O810 O 0.73429 0.83795 0.35915 0.0
O811 O 0.70831 0.81542 0.3778 0.0
O812 O 0.69813 0.82576 0.32585 0.0
O813 O 0.69141 0.85414 0.33463 0.0
O814 O 0.66643 0.80105 0.35156 0.0
O815 O 0.64395 0.81726 0.33775 0.0
C816 C 0.63386 0.869 0.33444 0.0
O817 O 0.6294 0.85254 0.3471 0.0
O818 O 0.65595 0.87864 0.33053 0.0
C819 C 0.67411 0.85242 0.38664 0.0
Tb820 Tb 0.15728 0.84368 0.353 0.0
C821 C 0.16995 0.80109 0.34565 0.0
Tb822 Tb 0.21131 0.85779 0.35211 0.0
O823 O 0.15036 0.83166 0.32139 0.0
O824 O 0.18432 0.85788 0.3336 0.0
O825 O 0.15482 0.80715 0.35301 0.0
C826 C 0.25251 0.8699 0.33691 0.0
O827 O 0.192 0.81804 0.34239 0.0
C828 C 0.19217 0.84556 0.38608 0.0
C829 C 0.19888 0.90117 0.35954 0.0
O830 O 0.23135 0.85404 0.32898 0.0
O831 O 0.25065 0.87908 0.35381 0.0
O832 O 0.21097 0.84435 0.38189 0.0
O833 O 0.18754 0.85538 0.37229 0.0
O834 O 0.21523 0.89515 0.35489 0.0
O835 O 0.17585 0.88427 0.36039 0.0
C836 C 0.11628 0.8328 0.36778 0.0
O837 O 0.12493 0.8467 0.3532 0.0
O838 O 0.1306 0.82503 0.37367 0.0
C839 C 0.17279 0.84458 0.31822 0.0
Tb840 Tb 0.87759 0.69891 0.6853 0.0
C841 C 0.86057 0.64201 0.69012 0.0
Tb842 Tb 0.82321 0.6603 0.68678 0.0
O843 O 0.88526 0.69415 0.71576 0.0
O844 O 0.85172 0.6879 0.70608 0.0
O845 O 0.87704 0.66309 0.68337 0.0
C846 C 0.77952 0.63289 0.69888 0.0
O847 O 0.83945 0.63823 0.69447 0.0
C848 C 0.8409 0.66327 0.65228 0.0
C849 C 0.83913 0.71689 0.68045 0.0
O850 O 0.78425 0.64261 0.68209 0.0
O851 O 0.79938 0.6386 0.70874 0.0
O852 O 0.82206 0.64347 0.6572 0.0
O853 O 0.84683 0.68 0.66584 0.0
O854 O 0.82189 0.69477 0.68512 0.0
O855 O 0.86155 0.72212 0.67907 0.0
C856 C 0.92013 0.73178 0.6738 0.0
O857 O 0.9104 0.73543 0.68879 0.0
O858 O 0.90593 0.70949 0.66538 0.0
C859 C 0.86356 0.68583 0.72027 0.0
Tb860 Tb 0.3339 0.19122 0.68205 0.0
C861 C 0.38971 0.23144 0.69 0.0
Tb862 Tb 0.37045 0.17322 0.68171 0.0
O863 O 0.32623 0.18173 0.71258 0.0
O864 O 0.35843 0.18971 0.70231 0.0
O865 O 0.36778 0.22731 0.68539 0.0
C866 C 0.39816 0.15429 0.69186 0.0
O867 O 0.39425 0.21278 0.69126 0.0
C868 C 0.359 0.1844 0.64772 0.0
C869 C 0.31484 0.13291 0.67479 0.0
O870 O 0.39892 0.16522 0.67597 0.0
O871 O 0.38146 0.15359 0.70188 0.0
O872 O 0.37929 0.1857 0.6522 0.0
O873 O 0.34582 0.17469 0.66129 0.0
O874 O 0.33678 0.13711 0.67946 0.0
O875 O 0.31023 0.15147 0.67314 0.0
C876 C 0.30962 0.2121 0.66745 0.0
O877 O 0.30337 0.19751 0.68175 0.0
O878 O 0.32961 0.2152 0.66185 0.0
C879 C 0.346 0.18158 0.71653 0.0
Tb880 Tb 0.8211 0.16868 0.68625 0.0
C881 C 0.83692 0.12981 0.67413 0.0
Tb882 Tb 0.87509 0.18774 0.68241 0.0
O883 O 0.81162 0.15778 0.65487 0.0
O884 O 0.84599 0.18557 0.66507 0.0
O885 O 0.82068 0.13331 0.68243 0.0
C886 C 0.91757 0.19888 0.67039 0.0
O887 O 0.85822 0.14857 0.67094 0.0
C888 C 0.86197 0.18423 0.71851 0.0
C889 C 0.86 0.2272 0.69366 0.0
O890 O 0.90753 0.18522 0.68465 0.0
O891 O 0.90375 0.20651 0.66296 0.0
O892 O 0.88371 0.19865 0.71423 0.0
O893 O 0.85001 0.17082 0.70323 0.0
O894 O 0.8763 0.22348 0.68563 0.0
O895 O 0.8384 0.20855 0.69667 0.0
C896 C 0.77921 0.15202 0.70166 0.0
O897 O 0.78829 0.17017 0.69017 0.0
O898 O 0.79363 0.14346 0.70423 0.0
C899 C 0.83329 0.17171 0.65013 0.0
H900 H 0.35865 0.91568 0.08559 0.0
H901 H 0.33745 0.8577 0.03889 0.0
H902 H 0.37282 0.88455 0.02248 0.0
H903 H 0.41025 0.92428 0.02147 0.0
H904 H 0.43202 0.98229 0.06811 0.0
H905 H 0.39593 0.95593 0.08424 0.0
C906 C 0.36168 0.909 0.07175 0.0
C907 C 0.34541 0.88455 0.06363 0.0
C908 C 0.38217 0.92462 0.06229 0.0
C909 C 0.34981 0.8762 0.04573 0.0
C910 C 0.36999 0.89163 0.03622 0.0
C911 C 0.40698 0.93121 0.03508 0.0
C912 C 0.42369 0.95524 0.04352 0.0
C913 C 0.38636 0.91582 0.04439 0.0
C914 C 0.41933 0.9639 0.06125 0.0
C915 C 0.39874 0.94879 0.07052 0.0
H916 H 0.1555 0.48279 0.04727 0.0
H917 H 0.11615 0.44339 0.09516 0.0
H918 H 0.08354 0.45016 0.08437 0.0
H919 H 0.06611 0.46739 0.06122 0.0
H920 H 0.10543 0.50595 1.01309 0.0
H921 H 0.13787 0.49895 0.02386 0.0
C922 C 0.13968 0.47535 0.05523 0.0
C923 C 0.13838 0.46256 0.07202 0.0
C924 C 0.12089 0.4791 0.04885 0.0
C925 C 0.11785 0.45358 0.08234 0.0
C926 C 0.09909 0.4573 0.0761 0.0
C927 C 0.08175 0.47412 0.05307 0.0
C928 C 0.08338 0.48713 0.03638 0.0
C929 C 0.10042 0.47007 0.05938 0.0
C930 C 0.10375 0.49586 0.02598 0.0
C931 C 0.12233 0.49189 0.03214 0.0
H932 H 0.52367 0.65087 0.0776 0.0
H933 H 0.59491 0.68988 0.0591 0.0
H934 H 0.58805 0.65161 0.04109 0.0
H935 H 0.56241 0.60642 0.03177 0.0
H936 H 0.49147 0.56754 0.05108 0.0
H937 H 0.49781 0.6062 0.06766 0.0
C938 C 0.53776 0.65103 0.0697 0.0
C939 C 0.55981 0.67335 0.06982 0.0
C940 C 0.53381 0.62885 0.05954 0.0
C941 C 0.57766 0.67316 0.05914 0.0
C942 C 0.57381 0.65118 0.04893 0.0
C943 C 0.54826 0.60639 0.03949 0.0
C944 C 0.52649 0.5839 0.0401 0.0
C945 C 0.55203 0.62882 0.04917 0.0
C946 C 0.50843 0.58441 0.05026 0.0
C947 C 0.51203 0.60658 0.05982 0.0
H948 H 0.88849 0.37183 0.96273 0.0
H949 H 0.93113 0.33841 0.97736 0.0
H950 H 0.96136 0.37756 0.99518 0.0
H951 H 0.97684 0.42213 1.00501 0.0
H952 H 0.93417 0.45545 0.98972 0.0
H953 H 0.90307 0.41568 0.97375 0.0
C954 C 0.90441 0.37311 0.9698 0.0
C955 C 0.90751 0.35217 0.9686 0.0
C956 C 0.92186 0.39577 0.97987 0.0
C957 C 0.9281 0.35409 0.97817 0.0
C958 C 0.94551 0.37657 0.98826 0.0
C959 C 0.96066 0.42068 0.99836 0.0
C960 C 0.95805 0.44194 0.99857 0.0
C961 C 0.94274 0.39764 0.98901 0.0
C962 C 0.93686 0.43955 0.98981 0.0
C963 C 0.91899 0.41675 0.9806 0.0
H964 H 0.67263 0.57529 0.95073 0.0
H965 H 0.68544 0.52905 0.98909 0.0
H966 H 0.6502 0.5203 1.00578 0.0
H967 H 0.61544 0.52542 1.00947 0.0
H968 H 0.60238 0.57154 0.9713 0.0
H969 H 0.63815 0.58103 0.95483 0.0
C970 C 0.66784 0.56347 0.96285 0.0
C971 C 0.68167 0.55273 0.9685 0.0
C972 C 0.64752 0.55858 0.97251 0.0
C973 C 0.67496 0.53723 0.98413 0.0
C974 C 0.65487 0.53234 0.99382 0.0
C975 C 0.62053 0.53768 0.99763 0.0
C976 C 0.60639 0.54786 0.99166 0.0
C977 C 0.64098 0.54284 0.98811 0.0
C978 C 0.61308 0.56357 0.97622 0.0
C979 C 0.63349 0.56895 0.96676 0.0
H980 H 0.5063 0.14916 0.98688 0.0
H981 H 0.43185 0.09551 0.97262 0.0
H982 H 0.43772 0.06265 0.98563 0.0
H983 H 0.46429 0.04886 1.00061 0.0
H984 H 0.53879 0.10287 1.01428 0.0
H985 H 0.53244 0.1358 1.00243 0.0
C986 C 0.49125 0.13036 0.9868 0.0
C987 C 0.46864 0.12496 0.97873 0.0
C988 C 0.49473 0.11154 0.99435 0.0
C989 C 0.44952 0.10026 0.97847 0.0
C990 C 0.45283 0.08145 0.98606 0.0
C991 C 0.47905 0.0679 1.00125 0.0
C992 C 0.50199 0.07331 1.00843 0.0
C993 C 0.47538 0.08683 0.99401 0.0
C994 C 0.52096 0.09808 1.00884 0.0
C995 C 0.51737 0.11697 1.00201 0.0
H996 H 0.67312 0.10884 0.95269 0.0
H997 H 0.70327 0.15981 1.00467 0.0
H998 H 0.66703 0.13492 0.0208 0.0
H999 H 0.62632 0.0989 0.02015 0.0
H1000 H 0.59598 0.04785 0.9683 0.0
H1001 H 0.63247 0.07245 0.95218 0.0
C1002 C 0.67171 0.11456 0.96751 0.0
C1003 C 0.69105 0.13616 0.97743 0.0
C1004 C 0.65071 0.10008 0.97678 0.0
C1005 C 0.6889 0.1431 0.99674 0.0
C1006 C 0.66809 0.12893 1.00597 0.0
C1007 C 0.62777 0.09312 1.00537 0.0
C1008 C 0.6085 0.07153 0.99548 0.0
C1009 C 0.64886 0.10738 0.99616 0.0
C1010 C 0.61062 0.06431 0.97629 0.0
C1011 C 0.63147 0.07843 0.96703 0.0
H1012 H 0.88254 0.55663 0.97376 0.0
H1013 H 0.92885 0.58988 0.92771 0.0
H1014 H 0.95819 0.58126 0.94335 0.0
H1015 H 0.97058 0.56355 0.96967 0.0
H1016 H 0.92437 0.52946 0.01549 0.0
H1017 H 0.8951 0.5389 1.00032 0.0
C1018 C 0.89899 0.56187 0.96709 0.0
C1019 C 0.90345 0.57406 0.94961 0.0
C1020 C 0.91584 0.55667 0.97611 0.0
C1021 C 0.92504 0.58091 0.94132 0.0
C1022 C 0.94181 0.57583 0.95019 0.0
C1023 C 0.95414 0.55831 0.97639 0.0
C1024 C 0.94964 0.54589 0.99369 0.0
C1025 C 0.93741 0.5637 0.96755 0.0
C1026 C 0.92824 0.53909 1.00218 0.0
C1027 C 0.9115 0.54445 0.9935 0.0
H1028 H 0.50308 0.37447 0.95625 0.0
H1029 H 0.43487 0.33561 0.98024 0.0
H1030 H 0.44264 0.37448 0.99775 0.0
H1031 H 0.46809 0.41995 1.00528 0.0
H1032 H 0.53604 0.45884 0.98077 0.0
H1033 H 0.52892 0.41969 0.96439 0.0
C1034 C 0.48985 0.37449 0.96525 0.0
C1035 C 0.46839 0.35201 0.96684 0.0
C1036 C 0.49434 0.39702 0.97518 0.0
C1037 C 0.45168 0.35245 0.97888 0.0
C1038 C 0.45603 0.37477 0.98881 0.0
C1039 C 0.48142 0.4199 0.99644 0.0
C1040 C 0.50259 0.44248 0.99434 0.0
C1041 C 0.47721 0.39722 0.98695 0.0
C1042 C 0.5196 0.44186 0.98279 0.0
C1043 C 0.51554 0.41943 0.97333 0.0
H1044 H 0.13923 0.65758 0.07506 0.0
H1045 H 0.09812 0.69171 0.05741 0.0
H1046 H 0.06799 0.65236 0.03979 0.0
H1047 H 0.05238 0.60767 0.03061 0.0
H1048 H 0.09377 0.5738 0.04839 0.0
H1049 H 0.12474 0.61364 0.0644 0.0
C1050 C 0.1239 0.65657 0.06708 0.0
C1051 C 0.12095 0.67762 0.06768 0.0
C1052 C 0.10657 0.63384 0.05701 0.0
C1053 C 0.10072 0.67575 0.05746 0.0
C1054 C 0.0835 0.65325 0.04731 0.0
C1055 C 0.06824 0.60901 0.03784 0.0
C1056 C 0.07056 0.58759 0.03829 0.0
C1057 C 0.08606 0.63206 0.0472 0.0
C1058 C 0.09134 0.58983 0.04777 0.0
C1059 C 0.10914 0.61267 0.057 0.0
H1060 H 0.36069 0.43925 0.08909 0.0
H1061 H 0.34743 0.49391 0.06331 0.0
H1062 H 0.38056 0.50521 0.04289 0.0
H1063 H 0.4146 0.5008 0.03334 0.0
H1064 H 0.42829 0.44711 0.06033 0.0
H1065 H 0.39394 0.43442 0.07937 0.0
C1066 C 0.36512 0.45378 0.07913 0.0
C1067 C 0.3516 0.46577 0.07788 0.0
C1068 C 0.38436 0.46041 0.06763 0.0
C1069 C 0.35735 0.48417 0.0645 0.0
C1070 C 0.37641 0.49077 0.05288 0.0
C1071 C 0.40988 0.48618 0.04328 0.0
C1072 C 0.42391 0.47485 0.04539 0.0
C1073 C 0.39018 0.47915 0.05442 0.0
C1074 C 0.41774 0.45607 0.05841 0.0
C1075 C 0.39812 0.44883 0.06934 0.0
H1076 H 0.52561 0.87966 0.05371 0.0
H1077 H 0.6007 0.93249 0.06528 0.0
H1078 H 0.59501 0.96508 0.0515 0.0
H1079 H 0.56827 0.97919 0.03745 0.0
H1080 H 0.49304 0.92617 0.02696 0.0
H1081 H 0.49927 0.89329 0.03901 0.0
C1082 C 0.54074 0.89834 0.05338 0.0
C1083 C 0.56354 0.90354 0.06069 0.0
C1084 C 0.53733 0.91707 0.04555 0.0
C1085 C 0.58297 0.9278 0.05968 0.0
C1086 C 0.57971 0.94653 0.05185 0.0
C1087 C 0.5533 0.96037 0.03755 0.0
C1088 C 0.5302 0.95527 0.03129 0.0
C1089 C 0.55693 0.94144 0.04484 0.0
C1090 C 0.511 0.93076 0.03174 0.0
C1091 C 0.51452 0.91187 0.03867 0.0
H1092 H 0.02081 0.25021 0.41373 0.0
H1093 H 1.00603 0.18713 0.37406 0.0
H1094 H 0.04139 0.21338 0.35737 0.0
H1095 H 0.07711 0.2542 0.35423 0.0
H1096 H 0.09218 0.31725 0.39393 0.0
H1097 H 0.05608 0.2913 0.41011 0.0
C1098 C 0.02519 0.24224 0.40133 0.0
C1099 C 1.01075 0.21659 0.39533 0.0
C1100 C 0.04564 0.25752 0.39169 0.0
C1101 C 0.01696 0.20664 0.3793 0.0
C1102 C 0.03714 0.2217 0.36962 0.0
C1103 C 0.07236 0.26228 0.36631 0.0
C1104 C 0.08723 0.28764 0.3728 0.0
C1105 C 0.05169 0.24714 0.37572 0.0
C1106 C 0.08096 0.2978 0.38859 0.0
C1107 C 0.06034 0.28294 0.39789 0.0
H1108 H 0.78973 0.78466 0.42063 0.0
H1109 H 0.8397 0.82489 0.37851 0.0
H1110 H 0.81209 0.83646 0.36362 0.0
H1111 H 0.7737 0.83527 0.36238 0.0
H1112 H 0.72357 0.79533 0.40435 0.0
H1113 H 0.75128 0.78382 0.41957 0.0
C1114 C 0.79464 0.79611 0.40829 0.0
C1115 C 0.81675 0.8037 0.40066 0.0
C1116 C 0.77862 0.80279 0.39975 0.0
C1117 C 0.82267 0.81836 0.38451 0.0
C1118 C 0.80694 0.82515 0.37603 0.0
C1119 C 0.76886 0.82404 0.37486 0.0
C1120 C 0.74661 0.81608 0.38219 0.0
C1121 C 0.78485 0.81742 0.38347 0.0
C1122 C 0.74057 0.80157 0.39838 0.0
C1123 C 0.75643 0.79502 0.4071 0.0
H1124 H 0.25127 0.01455 0.39287 0.0
H1125 H 0.17967 0.99359 0.40562 0.0
H1126 H 0.1648 0.95217 0.38907 0.0
H1127 H 0.17238 0.92088 0.37306 0.0
H1128 H 0.24413 0.94149 0.36081 0.0
H1129 H 0.25853 0.9839 0.37502 0.0
C1130 C 0.23241 1.00094 0.39201 0.0
C1131 C 0.21667 1.00725 0.40059 0.0
C1132 C 0.22395 0.97698 0.3826 0.0
C1133 C 0.19221 0.98943 0.39902 0.0
C1134 C 0.18368 0.96563 0.38965 0.0
C1135 C 0.19115 0.93466 0.37325 0.0
C1136 C 0.2071 0.92776 0.36593 0.0
C1137 C 0.19942 0.95906 0.38165 0.0
C1138 C 0.23136 0.94607 0.36635 0.0
C1139 C 0.23967 0.9704 0.37455 0.0
H1140 H 0.58274 0.68565 0.30681 0.0
H1141 H 0.54001 0.71544 0.28338 0.0
H1142 H 0.56766 0.75627 0.30023 0.0
H1143 H 0.60485 0.78409 0.32046 0.0
H1144 H 0.6475 0.75432 0.34419 0.0
H1145 H 0.61883 0.71299 0.32869 0.0
C1146 C 0.57924 0.70094 0.30564 0.0
C1147 C 0.55934 0.69739 0.29366 0.0
C1148 C 0.59526 0.72449 0.31541 0.0
C1149 C 0.55535 0.71763 0.29218 0.0
C1150 C 0.57112 0.74102 0.3019 0.0
C1151 C 0.60785 0.76857 0.32241 0.0
C1152 C 0.62847 0.77251 0.33349 0.0
C1153 C 0.59131 0.74477 0.31334 0.0
C1154 C 0.63188 0.752 0.33578 0.0
C1155 C 0.61547 0.72828 0.32686 0.0
H1156 H 0.3353 0.88067 0.28647 0.0
H1157 H 0.3783 0.93731 0.33304 0.0
H1158 H 0.34252 0.92879 0.34893 0.0
H1159 H 0.29866 0.90466 0.34995 0.0
H1160 H 0.25606 0.84901 0.3027 0.0
H1161 H 0.29182 0.85793 0.28675 0.0
C1162 C 0.3369 0.89145 0.29994 0.0
C1163 C 0.35963 0.90955 0.30851 0.0
C1164 C 0.3162 0.88655 0.309 0.0
C1165 C 0.36116 0.92298 0.32619 0.0
C1166 C 0.34065 0.9182 0.33528 0.0
C1167 C 0.29727 0.89453 0.33617 0.0
C1168 C 0.27472 0.87608 0.32762 0.0
C1169 C 0.31804 0.89988 0.32692 0.0
C1170 C 0.27319 0.86322 0.30968 0.0
C1171 C 0.29366 0.86832 0.3005 0.0
H1172 H 0.16895 0.48471 0.32508 0.0
H1173 H 0.09844 0.43022 0.29999 0.0
H1174 H 0.10366 0.39653 0.3121 0.0
H1175 H 0.12883 0.38239 0.32927 0.0
H1176 H 0.19958 0.4374 0.35355 0.0
H1177 H 0.19343 0.47091 0.34279 0.0
C1178 C 0.15456 0.4655 0.32244 0.0
C1179 C 0.1333 0.46013 0.31162 0.0
C1180 C 0.15768 0.44622 0.32946 0.0
C1181 C 0.11511 0.43499 0.30805 0.0
C1182 C 0.11802 0.41568 0.31511 0.0
C1183 C 0.14272 0.40173 0.33247 0.0
C1184 C 0.1646 0.40734 0.34231 0.0
C1185 C 0.13928 0.42105 0.3258 0.0
C1186 C 0.18258 0.43251 0.34602 0.0
C1187 C 0.17911 0.45173 0.33981 0.0
H1188 H 0.35448 0.48323 0.32541 0.0
H1189 H 0.33318 0.44286 0.26828 0.0
H1190 H 0.29512 0.41224 0.2796 0.0
H1191 H 0.26746 0.39705 0.30572 0.0
H1192 H 0.28912 0.43738 0.3628 0.0
H1193 H 0.32753 0.4675 0.35164 0.0
C1194 C 0.3417 0.46756 0.31547 0.0
C1195 C 0.34686 0.4655 0.29596 0.0
C1196 C 0.31985 0.44989 0.32211 0.0
C1197 C 0.32971 0.44523 0.28327 0.0
C1198 C 0.30794 0.42757 0.28978 0.0
C1199 C 0.28069 0.41233 0.31574 0.0
C1200 C 0.27548 0.41494 0.33509 0.0
C1201 C 0.30275 0.42974 0.30915 0.0
C1202 C 0.2927 0.43493 0.34786 0.0
C1203 C 0.31467 0.45219 0.34146 0.0
H1204 H 0.54721 0.88099 0.3029 0.0
H1205 H 0.59811 0.92526 0.2627 0.0
H1206 H 0.62779 0.91733 0.27871 0.0
H1207 H 0.63944 0.89762 0.30404 0.0
H1208 H 0.58862 0.85289 0.34403 0.0
H1209 H 0.55898 0.86141 0.32842 0.0
C1210 C 0.56486 0.88908 0.29776 0.0
C1211 C 0.57031 0.90362 0.28153 0.0
C1212 C 0.58194 0.8844 0.30705 0.0
C1213 C 0.59324 0.9137 0.27495 0.0
C1214 C 0.61032 0.90929 0.28418 0.0
C1215 C 0.62191 0.88987 0.30939 0.0
C1216 C 0.61625 0.87476 0.32522 0.0
C1217 C 0.60487 0.89463 0.3002 0.0
C1218 C 0.59341 0.86463 0.33188 0.0
C1219 C 0.57645 0.86948 0.32295 0.0
H1220 H 0.11542 0.68654 0.31492 0.0
H1221 H 0.18453 0.7077 0.29532 0.0
H1222 H 0.20061 0.74974 0.31104 0.0
H1223 H 0.19464 0.78133 0.32857 0.0
H1224 H 0.12538 0.76058 0.34775 0.0
H1225 H 0.10992 0.71775 0.33399 0.0
C1226 C 0.134 0.70033 0.31409 0.0
C1227 C 0.14867 0.69384 0.30387 0.0
C1228 C 0.14316 0.72467 0.32305 0.0
C1229 C 0.17283 0.71195 0.30324 0.0
C1230 C 0.18204 0.73612 0.31213 0.0
C1231 C 0.1762 0.76744 0.32996 0.0
C1232 C 0.16124 0.7744 0.33918 0.0
C1233 C 0.16731 0.7428 0.32186 0.0
C1234 C 0.13739 0.75595 0.34077 0.0
C1235 C 0.12847 0.73138 0.33283 0.0
H1236 H 0.80888 0.99048 0.40637 0.0
H1237 H 0.7618 0.02061 0.40207 0.0
H1238 H 0.73102 0.98184 0.38407 0.0
H1239 H 0.71646 0.9381 0.37127 0.0
H1240 H 0.76378 0.90824 0.37677 0.0
H1241 H 0.79514 0.9479 0.39259 0.0
C1242 C 0.79187 0.98859 0.40156 0.0
C1243 C 0.78772 1.00849 0.40574 0.0
C1244 C 0.77412 0.96612 0.39144 0.0
C1245 C 0.76567 1.00576 0.39897 0.0
C1246 C 0.74794 0.98348 0.38876 0.0
C1247 C 0.73372 0.94038 0.37571 0.0
C1248 C 0.73758 0.92003 0.37285 0.0
C1249 C 0.75184 0.96337 0.38511 0.0
C1250 C 0.7601 0.92339 0.37885 0.0
C1251 C 0.77815 0.94614 0.38794 0.0
H1252 H 0.02117 0.81907 0.4002 0.0
H1253 H 0.03856 0.77927 0.44199 0.0
H1254 H 0.07378 0.78785 0.42543 0.0
H1255 H 0.09996 0.80677 0.39938 0.0
H1256 H 0.08342 0.84662 0.3572 0.0
H1257 H 0.04751 0.83773 0.37343 0.0
C1258 C 0.03257 0.81212 0.40557 0.0
C1259 C 0.02724 0.79873 0.42248 0.0
C1260 C 0.05296 0.8171 0.39589 0.0
C1261 C 0.04238 0.79003 0.42928 0.0
C1262 C 0.06249 0.79479 0.41974 0.0
C1263 C 0.08845 0.81344 0.39367 0.0
C1264 C 0.09428 0.82727 0.37709 0.0
C1265 C 0.06802 0.80837 0.40311 0.0
C1266 C 0.07927 0.83589 0.36994 0.0
C1267 C 0.05876 0.83082 0.37923 0.0
H1268 H 0.23645 0.245 0.38047 0.0
H1269 H 0.16889 0.20427 0.40522 0.0
H1270 H 0.15681 0.23286 0.39275 0.0
H1271 H 0.16549 0.26979 0.37546 0.0
H1272 H 0.23332 0.31168 0.35134 0.0
H1273 H 0.24514 0.28231 0.36288 0.0
C1274 C 0.21916 0.2425 0.38326 0.0
C1275 C 0.2036 0.22236 0.39374 0.0
C1276 C 0.21229 0.25916 0.37607 0.0
C1277 C 0.18113 0.21931 0.39699 0.0
C1278 C 0.17422 0.23574 0.38991 0.0
C1279 C 0.18279 0.27244 0.37251 0.0
C1280 C 0.19843 0.29297 0.36244 0.0
C1281 C 0.18962 0.2557 0.37943 0.0
C1282 C 0.22087 0.29609 0.359 0.0
C1283 C 0.22768 0.27931 0.36567 0.0
H1284 H 0.67097 0.56429 0.71301 0.0
H1285 H 0.70216 0.559 0.76841 0.0
H1286 H 0.74192 0.5878 0.75887 0.0
H1287 H 0.76812 0.61302 0.73407 0.0
H1288 H 0.73683 0.61755 0.67851 0.0
H1289 H 0.69695 0.59029 0.6887 0.0
C1290 C 0.68644 0.56927 0.72299 0.0
C1291 C 0.68341 0.55924 0.7414 0.0
C1292 C 0.70933 0.58562 0.7173 0.0
C1293 C 0.70378 0.5665 0.75424 0.0
C1294 C 0.7266 0.58286 0.74872 0.0
C1295 C 0.75255 0.60807 0.72423 0.0
C1296 C 0.75542 0.61717 0.7055 0.0
C1297 C 0.72962 0.59232 0.7302 0.0
C1298 C 0.7351 0.61074 0.69296 0.0
C1299 C 0.71228 0.59513 0.69879 0.0
H1300 H 0.48205 0.13264 0.70868 0.0
H1301 H 0.45607 0.12288 0.76616 0.0
H1302 H 0.42369 0.1294 0.75419 0.0
H1303 H 0.40396 0.14019 0.72776 0.0
H1304 H 0.43125 0.15179 0.67081 0.0
H1305 H 0.46199 0.14246 0.68223 0.0
C1306 C 0.46941 0.13209 0.71865 0.0
C1307 C 0.47166 0.12742 0.73835 0.0
C1308 C 0.45106 0.13624 0.71175 0.0
C1309 C 0.45472 0.12621 0.7509 0.0
C1310 C 0.43625 0.1301 0.74409 0.0
C1311 C 0.4165 0.14039 0.71783 0.0
C1312 C 0.41537 0.14662 0.69847 0.0
C1313 C 0.43439 0.13539 0.7246 0.0
C1314 C 0.4318 0.14703 0.68577 0.0
C1315 C 0.4494 0.14175 0.69231 0.0
H1316 H 0.90728 0.34075 0.72575 0.0
H1317 H 0.83777 0.31343 0.74676 0.0
H1318 H 0.82451 0.27199 0.73097 0.0
H1319 H 0.83308 0.24286 0.71253 0.0
H1320 H 0.90253 0.27025 0.69127 0.0
H1321 H 0.91508 0.31219 0.7055 0.0
C1322 C 0.88911 0.32588 0.72662 0.0
C1323 C 0.87367 0.3303 0.73763 0.0
C1324 C 0.88153 0.30196 0.71746 0.0
C1325 C 0.85024 0.31057 0.73871 0.0
C1326 C 0.84256 0.28682 0.7296 0.0
C1327 C 0.85091 0.25801 0.7108 0.0
C1328 C 0.8668 0.25318 0.70083 0.0
C1329 C 0.85814 0.28219 0.71916 0.0
C1330 C 0.88984 0.27321 0.69884 0.0
C1331 C 0.8971 0.2973 0.70704 0.0
H1332 H 0.22388 0.03326 0.63828 0.0
H1333 H 0.27447 1.00745 0.63974 0.0
H1334 H 0.30491 0.04735 0.65632 0.0
H1335 H 0.3181 0.09071 0.66847 0.0
H1336 H 0.26763 0.11675 0.66624 0.0
H1337 H 0.23647 0.07584 0.65197 0.0
C1338 C 0.24156 0.03634 0.64221 0.0
C1339 C 0.24678 0.01727 0.63766 0.0
C1340 C 0.25915 0.05951 0.6516 0.0
C1341 C 0.26976 0.02158 0.64321 0.0
C1342 C 0.28729 0.04451 0.6526 0.0
C1343 C 0.30023 0.08739 0.66511 0.0
C1344 C 0.29539 0.107 0.66838 0.0
C1345 C 0.2823 0.06376 0.65664 0.0
C1346 C 0.27204 0.10218 0.66385 0.0
C1347 C 0.25414 0.07873 0.65561 0.0
H1348 H 0.01735 0.21225 0.65279 0.0
H1349 H 1.00986 0.25338 0.60644 0.0
H1350 H 0.97104 0.24417 0.61675 0.0
H1351 H 0.93942 0.22508 0.63951 0.0
H1352 H 0.9477 0.18471 0.68607 0.0
H1353 H 0.98612 0.19335 0.67532 0.0
C1354 C 1.0074 0.21948 0.64505 0.0
C1355 C 0.01669 0.23363 0.6289 0.0
C1356 C 0.98521 0.21434 0.65117 0.0
C1357 C 1.00315 0.24226 0.6188 0.0
C1358 C 0.98098 0.23714 0.62477 0.0
C1359 C 0.94971 0.21825 0.64729 0.0
C1360 C 0.94081 0.20438 0.66362 0.0
C1361 C 0.97187 0.22329 0.641 0.0
C1362 C 0.9542 0.19549 0.6735 0.0
C1363 C 0.97617 0.20041 0.66736 0.0
H1364 H 0.79025 0.7756 0.64759 0.0
H1365 H 0.85968 0.81999 0.62676 0.0
H1366 H 0.87407 0.7958 0.64402 0.0
H1367 H 0.86614 0.75998 0.66288 0.0
H1368 H 0.79638 0.71496 0.68313 0.0
H1369 H 0.78308 0.74147 0.66835 0.0
C1370 C 0.80854 0.78001 0.64686 0.0
C1371 C 0.82379 0.79955 0.63578 0.0
C1372 C 0.81669 0.76585 0.6567 0.0
C1373 C 0.84757 0.80524 0.63529 0.0
C1374 C 0.8558 0.79129 0.64507 0.0
C1375 C 0.84813 0.75615 0.66438 0.0
C1376 C 0.8323 0.73531 0.67408 0.0
C1377 C 0.84042 0.7713 0.65557 0.0
C1378 C 0.809 0.73073 0.67572 0.0
C1379 C 0.8013 0.74587 0.6672 0.0
H1380 H 0.02155 0.82075 0.65823 0.0
H1381 H 1.01159 0.76997 0.60872 0.0
H1382 H 0.97246 0.73972 0.61856 0.0
H1383 H 0.9412 0.72715 0.64171 0.0
H1384 H 0.95163 0.77785 0.69135 0.0
H1385 H 0.99046 0.8084 0.68115 0.0
C1386 C 1.01097 0.80298 0.64966 0.0
C1387 C 0.01971 0.79773 0.63276 0.0
C1388 C 0.98851 0.78554 0.65549 0.0
C1389 C 1.00535 0.77474 0.62166 0.0
C1390 C 0.98297 0.75731 0.62736 0.0
C1391 C 0.95201 0.74488 0.65028 0.0
C1392 C 0.94359 0.75018 0.66733 0.0
C1393 C 0.97439 0.76244 0.6443 0.0
C1394 C 0.95772 0.77329 0.67822 0.0
C1395 C 0.97994 0.79078 0.67238 0.0
H1396 H 0.26262 0.25799 0.6132 0.0
H1397 H 0.20295 0.21526 0.6469 0.0
H1398 H 0.22683 0.20243 0.66665 0.0
H1399 H 0.26443 0.20195 0.67348 0.0
H1400 H 0.32319 0.2437 0.63866 0.0
H1401 H 0.29986 0.25802 0.62015 0.0
C1402 C 0.2547 0.24568 0.62474 0.0
C1403 C 0.23091 0.2375 0.62841 0.0
C1404 C 0.26842 0.23815 0.63587 0.0
C1405 C 0.22125 0.22204 0.6438 0.0
C1406 C 0.23487 0.21457 0.65505 0.0
C1407 C 0.27213 0.21436 0.66195 0.0
C1408 C 0.29553 0.22182 0.65749 0.0
C1409 C 0.25845 0.22235 0.65114 0.0
C1410 C 0.30525 0.23775 0.64243 0.0
C1411 C 0.2919 0.24591 0.63179 0.0
H1412 H 0.79764 0.01425 0.65439 0.0
H1413 H 0.85753 0.04366 0.61911 0.0
H1414 H 0.86769 0.08627 0.62966 0.0
H1415 H 0.85996 0.11527 0.64925 0.0
H1416 H 0.79982 0.08593 0.68431 0.0
H1417 H 0.78955 0.04333 0.67363 0.0
C1418 C 0.81299 0.02999 0.64909 0.0
C1419 C 0.82679 0.02569 0.63597 0.0
C1420 C 0.81876 0.0545 0.65524 0.0
C1421 C 0.84641 0.04635 0.62903 0.0
C1422 C 0.85234 0.07076 0.63516 0.0
C1423 C 0.84467 0.09959 0.65466 0.0
C1424 C 0.83081 0.1039 0.6677 0.0
C1425 C 0.83871 0.07507 0.64832 0.0
C1426 C 0.81085 0.08325 0.67429 0.0
C1427 C 0.80495 0.05883 0.6682 0.0
H1428 H 0.47792 0.32887 0.73227 0.0
H1429 H 0.42869 0.35618 0.72595 0.0
H1430 H 0.39947 0.31707 0.70759 0.0
H1431 H 0.38674 0.27392 0.69524 0.0
H1432 H 0.4362 0.24683 0.70146 0.0
H1433 H 0.46645 0.2871 0.71744 0.0
C1434 C 0.46099 0.32651 0.72657 0.0
C1435 C 0.45552 0.34548 0.73076 0.0
C1436 C 0.44417 0.30388 0.71598 0.0
C1437 C 0.4333 0.3418 0.72335 0.0
C1438 C 0.41657 0.31944 0.71274 0.0
C1439 C 0.40422 0.27688 0.69983 0.0
C1440 C 0.40897 0.25713 0.69721 0.0
C1441 C 0.42161 0.30013 0.70928 0.0
C1442 C 0.43184 0.26151 0.7033 0.0
C1443 C 0.44923 0.28459 0.71254 0.0
H1444 H 0.69424 0.10703 0.75561 0.0
H1445 H 0.6799 0.16107 0.73001 0.0
H1446 H 0.71402 0.17407 0.71047 0.0
H1447 H 0.74843 0.17025 0.70079 0.0
H1448 H 0.76154 0.11537 0.72634 0.0
H1449 H 0.72722 0.10227 0.74537 0.0
C1450 C 0.69828 0.12139 0.74555 0.0
C1451 C 0.68438 0.13295 0.74432 0.0
C1452 C 0.71776 0.12862 0.73424 0.0
C1453 C 0.69039 0.15198 0.73148 0.0
C1454 C 0.70984 0.15935 0.72019 0.0
C1455 C 0.7436 0.15532 0.71042 0.0
C1456 C 0.75747 0.14376 0.71211 0.0
C1457 C 0.72373 0.14784 0.72147 0.0
C1458 C 0.75113 0.12453 0.72473 0.0
C1459 C 0.73151 0.11704 0.73567 0.0
H1460 H 0.86016 0.54386 0.71097 0.0
H1461 H 0.93164 0.59729 0.7347 0.0
H1462 H 0.92705 0.63142 0.72263 0.0
H1463 H 0.90199 0.64627 0.70616 0.0
H1464 H 0.83014 0.59232 0.68372 0.0
H1465 H 0.83583 0.55828 0.69393 0.0
C1466 C 0.8749 0.56292 0.71329 0.0
C1467 C 0.89624 0.5679 0.72372 0.0
C1468 C 0.87211 0.58243 0.70637 0.0
C1469 C 0.91491 0.59286 0.72692 0.0
C1470 C 0.91236 0.6124 0.71989 0.0
C1471 C 0.88781 0.62702 0.70318 0.0
C1472 C 0.86575 0.62178 0.694 0.0
C1473 C 0.89098 0.60745 0.70966 0.0
C1474 C 0.84731 0.5968 0.69067 0.0
C1475 C 0.85051 0.57732 0.69658 0.0
H1476 H 0.50693 0.01975 0.14377 0.0
H1477 H 0.46164 0.94235 0.12256 0.0
H1478 H 0.47208 0.95272 0.08921 0.0
H1479 H 0.49499 0.98333 0.06619 0.0
H1480 H 0.54095 0.06071 0.0869 0.0
H1481 H 0.52926 0.05087 0.12026 0.0
C1482 C 0.49923 1.0052 0.13181 0.0
C1483 C 0.48365 0.98024 0.13574 0.0
C1484 C 0.50546 1.01129 0.11259 0.0
C1485 C 0.47397 0.96161 0.12006 0.0
C1486 C 0.47984 0.96754 0.10095 0.0
C1487 C 0.5023 0.99812 0.07796 0.0
C1488 C 0.51878 0.02276 0.07406 0.0
C1489 C 0.49571 0.99225 0.09706 0.0
C1490 C 0.52822 0.04162 0.08952 0.0
C1491 C 0.52156 0.03597 0.1086 0.0
H1492 H 0.04969 0.49772 0.13015 0.0
H1493 H 0.05602 0.56827 0.14948 0.0
H1494 H 0.04007 0.57065 0.11722 0.0
H1495 H 0.02374 0.55261 0.08354 0.0
H1496 H 1.01545 0.48127 0.06444 0.0
H1497 H 0.03255 0.47921 0.09651 0.0
C1498 C 0.04739 0.51352 0.12741 0.0
C1499 C 0.05424 0.53284 0.14239 0.0
C1500 C 0.03784 0.51465 0.10879 0.0
C1501 C 0.05139 0.55331 0.13829 0.0
C1502 C 0.04206 0.55462 0.11983 0.0
C1503 C 0.02563 0.53658 0.08642 0.0
C1504 C 0.01862 0.51725 0.07154 0.0
C1505 C 0.03518 0.5354 0.10498 0.0
C1506 C 0.02117 0.49662 0.0755 0.0
C1507 C 0.03078 0.49536 0.0939 0.0
H1508 H 0.47156 0.49519 0.1263 0.0
H1509 H 0.52622 0.57165 0.14281 0.0
H1510 H 0.54382 0.5734 0.11196 0.0
H1511 H 0.54404 0.55328 0.08023 0.0
H1512 H 0.49097 0.4763 0.06445 0.0
H1513 H 0.47254 0.47462 0.09504 0.0
C1514 C 0.48748 0.51218 0.12332 0.0
C1515 C 0.49739 0.53328 0.13701 0.0
C1516 C 0.49782 0.51298 0.10559 0.0
C1517 C 0.51784 0.55522 0.13254 0.0
C1518 C 0.5281 0.5562 0.11491 0.0
C1519 C 0.52852 0.5361 0.08357 0.0
C1520 C 0.51857 0.51504 0.06995 0.0
C1521 C 0.51828 0.53522 0.10134 0.0
C1522 C 0.4985 0.49293 0.07445 0.0
C1523 C 0.48811 0.49193 0.09203 0.0
H1524 H 0.98331 0.53432 0.90434 0.0
H1525 H 0.96219 0.45712 0.88947 0.0
H1526 H 0.97805 0.45477 0.92176 0.0
H1527 H 0.99821 0.4745 0.95424 0.0
H1528 H 0.01861 0.55118 0.96975 0.0
H1529 H 1.0022 0.55367 0.93747 0.0
C1530 C 0.98189 0.51687 0.9082 0.0
C1531 C 0.97171 0.49601 0.89423 0.0
C1532 C 0.99084 0.51551 0.927 0.0
C1533 C 0.97036 0.47368 0.89961 0.0
C1534 C 0.97928 0.47223 0.91818 0.0
C1535 C 0.99908 0.49177 0.95053 0.0
C1536 C 1.00948 0.5126 0.96437 0.0
C1537 C 0.98969 0.49304 0.93194 0.0
C1538 C 1.01037 0.53479 0.95943 0.0
C1539 C 1.00113 0.53625 0.94092 0.0
H1540 H 0.55651 0.53266 0.90761 0.0
H1541 H 0.50479 0.45484 0.89245 0.0
H1542 H 0.48676 0.45294 0.92311 0.0
H1543 H 0.48577 0.47314 0.95458 0.0
H1544 H 0.53789 0.55051 0.97018 0.0
H1545 H 0.55593 0.55269 0.9393 0.0
C1546 C 0.54144 0.51519 0.91106 0.0
C1547 C 0.53203 0.49397 0.89753 0.0
C1548 C 0.53124 0.51412 0.9289 0.0
C1549 C 0.51223 0.47163 0.90228 0.0
C1550 C 0.50196 0.47045 0.91993 0.0
C1551 C 0.50098 0.49051 0.95112 0.0
C1552 C 0.51061 0.51162 0.96466 0.0
C1553 C 0.51125 0.49157 0.93333 0.0
C1554 C 0.53041 0.53393 0.9601 0.0
C1555 C 0.54064 0.5352 0.9424 0.0
H1556 H 0.51233 1.00973 0.89467 0.0
H1557 H 0.56275 0.08629 0.91515 0.0
H1558 H 0.55832 0.07527 0.94903 0.0
H1559 H 0.53754 0.04475 0.97292 0.0
H1560 H 0.48675 0.96829 0.95268 0.0
H1561 H 0.4937 0.97846 0.91867 0.0
C1562 C 0.52238 0.02401 0.90655 0.0
C1563 C 0.53774 0.04886 0.90229 0.0
C1564 C 0.51953 0.0176 0.92606 0.0
C1565 C 0.55095 0.06699 0.9179 0.0
C1566 C 0.54829 0.06075 0.93733 0.0
C1567 C 0.5283 0.0302 0.96109 0.0
C1568 C 0.51161 1.00579 0.96532 0.0
C1569 C 0.5323 0.03623 0.94159 0.0
C1570 C 0.49965 0.98722 0.94981 0.0
C1571 C 0.50358 0.99305 0.93036 0.0
H1572 H 0.13878 0.30199 0.45931 0.0
H1573 H 0.19159 0.37121 0.49089 0.0
H1574 H 0.20643 0.38899 0.45991 0.0
H1575 H 0.20444 0.38458 0.42349 0.0
H1576 H 0.15238 0.3141 0.39294 0.0
H1577 H 0.13688 0.29748 0.42364 0.0
C1578 C 0.15338 0.32107 0.45944 0.0
C1579 C 0.16394 0.33526 0.47741 0.0
C1580 C 0.16185 0.33109 0.44164 0.0
C1581 C 0.18322 0.35979 0.47727 0.0
C1582 C 0.19163 0.37002 0.45955 0.0
C1583 C 0.1896 0.36569 0.42361 0.0
C1584 C 0.17928 0.35084 0.40583 0.0
C1585 C 0.1811 0.35583 0.44159 0.0
C1586 C 0.16031 0.32622 0.40627 0.0
C1587 C 0.15153 0.31654 0.4239 0.0
H1588 H 0.69694 0.8665 0.47803 0.0
H1589 H 0.75832 0.86264 0.46181 0.0
H1590 H 0.74227 0.85288 0.42747 0.0
H1591 H 0.71262 0.84981 0.40161 0.0
H1592 H 0.6527 0.85609 0.4181 0.0
H1593 H 0.66657 0.86112 0.45268 0.0
C1594 C 0.70689 0.86358 0.46702 0.0
C1595 C 0.72897 0.86561 0.47259 0.0
C1596 C 0.69785 0.85859 0.44727 0.0
C1597 C 0.74123 0.8611 0.45807 0.0
C1598 C 0.73214 0.8557 0.43836 0.0
C1599 C 0.70222 0.85138 0.4128 0.0
C1600 C 0.68139 0.85201 0.40734 0.0
C1601 C 0.71066 0.85487 0.43272 0.0
C1602 C 0.66868 0.85533 0.42199 0.0
C1603 C 0.67663 0.85827 0.44175 0.0
H1604 H 0.15007 0.86016 0.46322 0.0
H1605 H 0.1899 0.8282 0.48845 0.0
H1606 H 0.20238 0.82358 0.45613 0.0
H1607 H 0.20274 0.82974 0.42036 0.0
H1608 H 0.16324 0.86286 0.3964 0.0
H1609 H 0.14991 0.86569 0.42825 0.0
C1610 C 0.16166 0.85238 0.46172 0.0
C1611 C 0.16917 0.84477 0.47833 0.0
C1612 C 0.16874 0.84978 0.44314 0.0
C1613 C 0.18375 0.83417 0.47594 0.0
C1614 C 0.19097 0.83159 0.45744 0.0
C1615 C 0.19108 0.83737 0.42215 0.0
C1616 C 0.1837 0.84562 0.40582 0.0
C1617 C 0.18365 0.83942 0.44087 0.0
C1618 C 0.16878 0.85575 0.40848 0.0
C1619 C 0.16128 0.85765 0.42682 0.0
H1620 H 0.66507 0.82991 0.22863 0.0
H1621 H 0.61289 0.84821 0.24748 0.0
H1622 H 0.62747 0.85145 0.28165 0.0
H1623 H 0.65458 0.84809 0.3063 0.0
H1624 H 0.70683 0.83029 0.2875 0.0
H1625 H 0.69272 0.82773 0.25324 0.0
C1626 C 0.65703 0.83488 0.24017 0.0
C1627 C 0.63784 0.83874 0.23537 0.0
C1628 C 0.66558 0.83685 0.25985 0.0
C1629 C 0.62743 0.84475 0.25066 0.0
C1630 C 0.63588 0.8468 0.27025 0.0
C1631 C 0.66336 0.84455 0.29472 0.0
C1632 C 0.68221 0.84024 0.29944 0.0
C1633 C 0.65495 0.84289 0.27503 0.0
C1634 C 0.69247 0.83402 0.28423 0.0
C1635 C 0.68439 0.83252 0.26463 0.0
H1636 H 0.23072 0.86261 0.24368 0.0
H1637 H 0.16955 0.79114 0.2236 0.0
H1638 H 0.15172 0.79024 0.25424 0.0
H1639 H 0.15349 0.80969 0.28705 0.0
H1640 H 0.21525 0.88044 0.30728 0.0
H1641 H 0.23303 0.88139 0.27656 0.0
C1642 C 0.21363 0.84665 0.24604 0.0
C1643 C 0.20154 0.82703 0.23117 0.0
C1644 C 0.20356 0.84608 0.26383 0.0
C1645 C 0.17916 0.80675 0.23454 0.0
C1646 C 0.16898 0.80612 0.25215 0.0
C1647 C 0.1708 0.82532 0.28464 0.0
C1648 C 0.18309 0.84492 0.29941 0.0
C1649 C 0.18096 0.82571 0.2669 0.0
C1650 C 0.20553 0.86503 0.29618 0.0
C1651 C 0.21568 0.86562 0.2786 0.0
H1652 H 0.18329 0.34937 0.22718 0.0
H1653 H 0.22868 0.42654 0.24893 0.0
H1654 H 0.22343 0.4147 0.28262 0.0
H1655 H 0.20294 0.38291 0.30587 0.0
H1656 H 0.15696 0.30589 0.28406 0.0
H1657 H 0.16526 0.3172 0.25048 0.0
C1658 C 0.19207 0.36361 0.23929 0.0
C1659 C 0.20618 0.38885 0.23547 0.0
C1660 C 0.1887 0.35671 0.25864 0.0
C1661 C 0.21783 0.40696 0.25138 0.0
C1662 C 0.21469 0.40023 0.27068 0.0
C1663 C 0.19506 0.36855 0.29379 0.0
C1664 C 0.17927 0.3436 0.29743 0.0
C1665 C 0.19977 0.37523 0.27448 0.0
C1666 C 0.1691 0.32523 0.28162 0.0
C1667 C 0.1738 0.3317 0.26241 0.0
H1668 H 0.84052 0.63557 0.80033 0.0
H1669 H 0.77864 0.64371 0.79116 0.0
H1670 H 0.79202 0.6615 0.76006 0.0
H1671 H 0.82243 0.67671 0.73602 0.0
H1672 H 0.88434 0.66887 0.74569 0.0
H1673 H 0.87023 0.64983 0.77624 0.0
C1674 C 0.83003 0.64145 0.79167 0.0
C1675 C 0.80864 0.63837 0.79827 0.0
C1676 C 0.83799 0.65202 0.77391 0.0
C1677 C 0.79507 0.64559 0.78647 0.0
C1678 C 0.8028 0.65598 0.76871 0.0
C1679 C 0.83263 0.67054 0.74473 0.0
C1680 C 0.85431 0.67405 0.73857 0.0
C1681 C 0.82435 0.65949 0.76234 0.0
C1682 C 0.86762 0.66644 0.75016 0.0
C1683 C 0.85953 0.65547 0.76761 0.0
H1684 H 0.40642 0.18916 0.79445 0.0
H1685 H 0.34145 0.17347 0.8197 0.0
H1686 H 0.32267 0.1708 0.78714 0.0
H1687 H 0.32477 0.17314 0.75117 0.0
H1688 H 0.39061 0.19052 0.7267 0.0
H1689 H 0.40861 0.19162 0.75898 0.0
C1690 C 0.38808 0.18492 0.79285 0.0
C1691 C 0.37542 0.18149 0.80958 0.0
C1692 C 0.37739 0.18347 0.77408 0.0
C1693 C 0.35176 0.17646 0.80716 0.0
C1694 C 0.34094 0.17478 0.78849 0.0
C1695 C 0.34299 0.17699 0.75293 0.0
C1696 C 0.35611 0.18122 0.73639 0.0
C1697 C 0.35357 0.17827 0.7718 0.0
C1698 C 0.37984 0.18656 0.739 0.0
C1699 C 0.39028 0.18745 0.75755 0.0
H1700 H 0.80688 0.18564 0.79144 0.0
H1701 H 0.87099 0.19631 0.82266 0.0
H1702 H 0.8875 0.19534 0.79159 0.0
H1703 H 0.88362 0.19119 0.75521 0.0
H1704 H 0.82007 0.18205 0.72466 0.0
H1705 H 0.80345 0.18263 0.7555 0.0
C1706 C 0.82457 0.18802 0.7915 0.0
C1707 C 0.83761 0.19104 0.80945 0.0
C1708 C 0.83398 0.18745 0.77358 0.0
C1709 C 0.86038 0.19367 0.80911 0.0
C1710 C 0.86991 0.19324 0.79132 0.0
C1711 C 0.86612 0.18928 0.75538 0.0
C1712 C 0.85259 0.18549 0.73756 0.0
C1713 C 0.85685 0.19006 0.77342 0.0
C1714 C 0.83017 0.18346 0.73802 0.0
C1715 C 0.82087 0.1843 0.75576 0.0
H1716 H 0.33595 0.18832 0.5576 0.0
H1717 H 0.26577 0.16194 0.57689 0.0
H1718 H 0.28105 0.16434 0.61067 0.0
H1719 H 0.31404 0.17249 0.63471 0.0
H1720 H 0.38421 0.19866 0.61557 0.0
H1721 H 0.36926 0.19767 0.58185 0.0
C1722 C 0.32397 0.18293 0.56917 0.0
C1723 C 0.29971 0.1749 0.56461 0.0
C1724 C 0.33288 0.18431 0.58864 0.0
C1725 C 0.28455 0.16841 0.57991 0.0
C1726 C 0.29325 0.16966 0.59927 0.0
C1727 C 0.32611 0.17819 0.62318 0.0
C1728 C 0.35021 0.18561 0.62764 0.0
C1729 C 0.31735 0.17747 0.6038 0.0
C1730 C 0.36558 0.19286 0.61253 0.0
C1731 C 0.35702 0.19223 0.59323 0.0
H1732 H 0.85108 0.14148 0.56615 0.0
H1733 H 0.91568 0.21295 0.57697 0.0
H1734 H 0.90412 0.21855 0.60931 0.0
H1735 H 0.87467 0.20386 0.63424 0.0
H1736 H 0.81003 0.13268 0.62283 0.0
H1737 H 0.82224 0.12666 0.59096 0.0
C1738 C 0.86257 0.15842 0.57545 0.0
C1739 C 0.88422 0.17674 0.56894 0.0
C1740 C 0.85568 0.16171 0.59398 0.0
C1741 C 0.89903 0.19833 0.58154 0.0
C1742 C 0.89236 0.20167 0.60005 0.0
C1743 C 0.86349 0.18692 0.62487 0.0
C1744 C 0.84155 0.1687 0.63097 0.0
C1745 C 0.87064 0.18355 0.60642 0.0
C1746 C 0.82695 0.14707 0.61847 0.0
C1747 C 0.83395 0.14356 0.60023 0.0
H1748 H 0.84674 0.67711 0.56148 0.0
H1749 H 0.89821 0.75245 0.58424 0.0
H1750 H 0.89377 0.73947 0.61753 0.0
H1751 H 0.87311 0.70779 0.64032 0.0
H1752 H 0.8218 0.63221 0.61842 0.0
H1753 H 0.8285 0.64413 0.58464 0.0
C1754 C 0.85726 0.69059 0.5737 0.0
C1755 C 0.87254 0.71585 0.5703 0.0
C1756 C 0.85458 0.68298 0.59296 0.0
C1757 C 0.88594 0.73304 0.58638 0.0
C1758 C 0.8835 0.72562 0.60545 0.0
C1759 C 0.86377 0.69373 0.62819 0.0
C1760 C 0.84705 0.6691 0.6319 0.0
C1761 C 0.86755 0.70078 0.60894 0.0
C1762 C 0.83482 0.65127 0.61596 0.0
C1763 C 0.83858 0.65812 0.59666 0.0
loop_
_geom_bond_atom_site_label_1
_geom_bond_atom_site_label_2
_geom_bond_distance
_geom_bond_site_symmetry_2
_ccdc_geom_bond_type
C0 C1 1.264 . S
C0 C5 1.479 . S
C0 C10 1.465 . S
C1 C0 1.264 . S
C1 C3 1.339 . S
C1 H28 0.931 . S
C2 C3 1.395 . S
C2 C4 1.320 . S
C3 C1 1.339 . S
C3 C2 1.395 . S
C3 H29 0.929 . S
C4 C2 1.320 . S
C4 C5 1.405 . S
C4 H30 0.930 . S
C5 C0 1.479 . S
C5 C4 1.405 . S
C5 H31 0.931 . S
U6 O7 2.454 . S
U6 O8 2.458 . S
U6 C9 2.984 . S
U6 C10 2.847 . S
U6 C23 2.882 . S
U6 O24 2.441 . S
U6 O25 2.420 . S
U6 O26 2.455 . S
U6 O27 2.449 . S
O7 U6 2.454 . S
O7 C9 1.353 . S
O8 U6 2.458 . S
O8 C9 1.286 . S
C9 U6 2.984 . S
C9 O7 1.353 . S
C9 O8 1.286 . S
C9 C11 1.363 . S
C10 C0 1.465 . S
C10 U6 2.847 . S
C10 O24 1.249 . S
C10 O25 1.202 . S
C11 C9 1.363 . S
C11 C13 1.408 . S
C11 C16 1.342 . S
C12 C13 1.310 . S
C12 C15 1.461 . S
C12 H32 0.932 . S
C13 C11 1.408 . S
C13 C12 1.310 . S
C13 H33 0.930 . S
C14 C15 1.474 . S
C14 C16 1.285 . S
C14 H34 0.929 . S
C15 C12 1.461 . S
C15 C14 1.474 . S
C16 C11 1.342 . S
C16 C14 1.285 . S
C16 H35 0.930 . S
C17 C20 1.424 . S
C17 C22 1.245 . S
C17 C23 1.428 . S
C18 C21 1.260 . S
C18 C22 1.477 . S
C18 H36 0.932 . S
C19 C20 1.384 . S
C19 C21 1.479 . S
C19 H37 0.929 . S
C20 C17 1.424 . S
C20 C19 1.384 . S
C20 H38 0.928 . S
C21 C18 1.260 . S
C21 C19 1.479 . S
C22 C17 1.245 . S
C22 C18 1.477 . S
C22 H39 0.932 . S
C23 U6 2.882 . S
C23 C17 1.428 . S
C23 O26 1.301 . S
C23 O27 1.282 . S
O24 U6 2.441 . S
O24 C10 1.249 . S
O25 U6 2.420 . S
O25 C10 1.202 . S
O26 U6 2.455 . S
O26 C23 1.301 . S
O27 U6 2.449 . S
O27 C23 1.282 . S
H28 C1 0.931 . S
H29 C3 0.929 . S
H30 C4 0.930 . S
H31 C5 0.931 . S
H32 C12 0.932 . S
H33 C13 0.930 . S
H34 C14 0.929 . S
H35 C16 0.930 . S
H36 C18 0.932 . S
H37 C19 0.929 . S
H38 C20 0.928 . S
H39 C22 0.932 . S
C40 C41 1.264 . S
C40 C45 1.479 . S
C40 C50 1.465 . S
C41 C40 1.264 . S
C41 C43 1.339 . S
C41 H68 0.931 . S
C42 C43 1.395 . S
C42 C44 1.320 . S
C43 C41 1.339 . S
C43 C42 1.395 . S
C43 H69 0.929 . S
C44 C42 1.320 . S
C44 C45 1.405 . S
C44 H70 0.930 . S
C45 C40 1.479 . S
C45 C44 1.405 . S
C45 H71 0.931 . S
U46 O47 2.454 . S
U46 O48 2.458 . S
U46 C49 2.984 . S
U46 C50 2.847 . S
U46 C63 2.882 . S
U46 O64 2.441 . S
U46 O65 2.420 . S
U46 O66 2.455 . S
U46 O67 2.449 . S
O47 U46 2.454 . S
O47 C49 1.353 . S
O48 U46 2.458 . S
O48 C49 1.286 . S
C49 U46 2.984 . S
C49 O47 1.353 . S
C49 O48 1.286 . S
C49 C51 1.363 . S
C50 C40 1.465 . S
C50 U46 2.847 . S
C50 O64 1.249 . S
C50 O65 1.202 . S
C51 C49 1.363 . S
C51 C53 1.408 . S
C51 C56 1.342 . S
C52 C53 1.310 . S
C52 C55 1.461 . S
C52 H72 0.932 . S
C53 C51 1.408 . S
C53 C52 1.310 . S
C53 H73 0.930 . S
C54 C55 1.474 . S
C54 C56 1.285 . S
C54 H74 0.929 . S
C55 C52 1.461 . S
C55 C54 1.474 . S
C56 C51 1.342 . S
C56 C54 1.285 . S
C56 H75 0.930 . S
C57 C60 1.424 . S
C57 C62 1.245 . S
C57 C63 1.428 . S
C58 C61 1.260 . S
C58 C62 1.477 . S
C58 H76 0.932 . S
C59 C60 1.384 . S
C59 C61 1.479 . S
C59 H77 0.929 . S
C60 C57 1.424 . S
C60 C59 1.384 . S
C60 H78 0.928 . S
C61 C58 1.260 . S
C61 C59 1.479 . S
C62 C57 1.245 . S
C62 C58 1.477 . S
C62 H79 0.932 . S
C63 U46 2.882 . S
C63 C57 1.428 . S
C63 O66 1.301 . S
C63 O67 1.282 . S
O64 U46 2.441 . S
O64 C50 1.249 . S
O65 U46 2.420 . S
O65 C50 1.202 . S
O66 U46 2.455 . S
O66 C63 1.301 . S
O67 U46 2.449 . S
O67 C63 1.282 . S
H68 C41 0.931 . S
H69 C43 0.929 . S
H70 C44 0.930 . S
H71 C45 0.931 . S
H72 C52 0.932 . S
H73 C53 0.930 . S
H74 C54 0.929 . S
H75 C56 0.930 . S
H76 C58 0.932 . S
H77 C59 0.929 . S
H78 C60 0.928 . S
H79 C62 0.932 . S
C80 C81 1.264 . S
C80 C85 1.479 . S
C80 C90 1.465 . S
C81 C80 1.264 . S
C81 C83 1.339 . S
C81 H108 0.931 . S
C82 C83 1.395 . S
C82 C84 1.320 . S
C83 C81 1.339 . S
C83 C82 1.395 . S
C83 H109 0.929 . S
C84 C82 1.320 . S
C84 C85 1.405 . S
C84 H110 0.930 . S
C85 C80 1.479 . S
C85 C84 1.405 . S
C85 H111 0.931 . S
U86 O87 2.454 . S
U86 O88 2.458 . S
U86 C89 2.984 . S
U86 C90 2.847 . S
U86 C103 2.882 . S
U86 O104 2.441 . S
U86 O105 2.420 . S
U86 O106 2.455 . S
U86 O107 2.449 . S
O87 U86 2.454 . S
O87 C89 1.353 . S
O88 U86 2.458 . S
O88 C89 1.286 . S
C89 U86 2.984 . S
C89 O87 1.353 . S
C89 O88 1.286 . S
C89 C91 1.363 . S
C90 C80 1.465 . S
C90 U86 2.847 . S
C90 O104 1.249 . S
C90 O105 1.202 . S
C91 C89 1.363 . S
C91 C93 1.408 . S
C91 C96 1.342 . S
C92 C93 1.310 . S
C92 C95 1.461 . S
C92 H112 0.932 . S
C93 C91 1.408 . S
C93 C92 1.310 . S
C93 H113 0.930 . S
C94 C95 1.474 . S
C94 C96 1.285 . S
C94 H114 0.929 . S
C95 C92 1.461 . S
C95 C94 1.474 . S
C96 C91 1.342 . S
C96 C94 1.285 . S
C96 H115 0.930 . S
C97 C100 1.424 . S
C97 C102 1.245 . S
C97 C103 1.428 . S
C98 C101 1.260 . S
C98 C102 1.477 . S
C98 H116 0.932 . S
C99 C100 1.384 . S
C99 C101 1.479 . S
C99 H117 0.929 . S
C100 C97 1.424 . S
C100 C99 1.384 . S
C100 H118 0.928 . S
C101 C98 1.260 . S
C101 C99 1.479 . S
C102 C97 1.245 . S
C102 C98 1.477 . S
C102 H119 0.932 . S
C103 U86 2.882 . S
C103 C97 1.428 . S
C103 O106 1.301 . S
C103 O107 1.282 . S
O104 U86 2.441 . S
O104 C90 1.249 . S
O105 U86 2.420 . S
O105 C90 1.202 . S
O106 U86 2.455 . S
O106 C103 1.301 . S
O107 U86 2.449 . S
O107 C103 1.282 . S
H108 C81 0.931 . S
H109 C83 0.929 . S
H110 C84 0.930 . S
H111 C85 0.931 . S
H112 C92 0.932 . S
H113 C93 0.930 . S
H114 C94 0.929 . S
H115 C96 0.930 . S
H116 C98 0.932 . S
H117 C99 0.929 . S
H118 C100 0.928 . S
H119 C102 0.932 . S
C120 C121 1.264 . S
C120 C125 1.479 . S
C120 C130 1.465 . S
C121 C120 1.264 . S
C121 C123 1.339 . S
C121 H148 0.931 . S
C122 C123 1.395 . S
C122 C124 1.320 . S
C123 C121 1.339 . S
C123 C122 1.395 . S
C123 H149 0.929 . S
C124 C122 1.320 . S
C124 C125 1.405 . S
C124 H150 0.930 . S
C125 C120 1.479 . S
C125 C124 1.405 . S
C125 H151 0.931 . S
U126 O127 2.454 . S
U126 O128 2.458 . S
U126 C129 2.984 . S
U126 C130 2.847 . S
U126 C143 2.882 . S
U126 O144 2.441 . S
U126 O145 2.420 . S
U126 O146 2.455 . S
U126 O147 2.449 . S
O127 U126 2.454 . S
O127 C129 1.353 . S
O128 U126 2.458 . S
O128 C129 1.286 . S
C129 U126 2.984 . S
C129 O127 1.353 . S
C129 O128 1.286 . S
C129 C131 1.363 . S
C130 C120 1.465 . S
C130 U126 2.847 . S
C130 O144 1.249 . S
C130 O145 1.202 . S
C131 C129 1.363 . S
C131 C133 1.408 . S
C131 C136 1.342 . S
C132 C133 1.310 . S
C132 C135 1.461 . S
C132 H152 0.932 . S
C133 C131 1.408 . S
C133 C132 1.310 . S
C133 H153 0.930 . S
C134 C135 1.474 . S
C134 C136 1.285 . S
C134 H154 0.929 . S
C135 C132 1.461 . S
C135 C134 1.474 . S
C136 C131 1.342 . S
C136 C134 1.285 . S
C136 H155 0.930 . S
C137 C140 1.424 . S
C137 C142 1.245 . S
C137 C143 1.428 . S
C138 C141 1.260 . S
C138 C142 1.477 . S
C138 H156 0.932 . S
C139 C140 1.384 . S
C139 C141 1.479 . S
C139 H157 0.929 . S
C140 C137 1.424 . S
C140 C139 1.384 . S
C140 H158 0.928 . S
C141 C138 1.260 . S
C141 C139 1.479 . S
C142 C137 1.245 . S
C142 C138 1.477 . S
C142 H159 0.932 . S
C143 U126 2.882 . S
C143 C137 1.428 . S
C143 O146 1.301 . S
C143 O147 1.282 . S
O144 U126 2.441 . S
O144 C130 1.249 . S
O145 U126 2.420 . S
O145 C130 1.202 . S
O146 U126 2.455 . S
O146 C143 1.301 . S
O147 U126 2.449 . S
O147 C143 1.282 . S
H148 C121 0.931 . S
H149 C123 0.929 . S
H150 C124 0.930 . S
H151 C125 0.931 . S
H152 C132 0.932 . S
H153 C133 0.930 . S
H154 C134 0.929 . S
H155 C136 0.930 . S
H156 C138 0.932 . S
H157 C139 0.929 . S
H158 C140 0.928 . S
H159 C142 0.932 . S
C160 C161 1.264 . S
C160 C165 1.479 . S
C160 C170 1.465 . S
C161 C160 1.264 . S
C161 C163 1.339 . S
C161 H188 0.931 . S
C162 C163 1.395 . S
C162 C164 1.320 . S
C163 C161 1.339 . S
C163 C162 1.395 . S
C163 H189 0.929 . S
C164 C162 1.320 . S
C164 C165 1.405 . S
C164 H190 0.930 . S
C165 C160 1.479 . S
C165 C164 1.405 . S
C165 H191 0.931 . S
U166 O167 2.454 . S
U166 O168 2.458 . S
U166 C169 2.984 . S
U166 C170 2.847 . S
U166 C183 2.882 . S
U166 O184 2.441 . S
U166 O185 2.420 . S
U166 O186 2.455 . S
U166 O187 2.449 . S
O167 U166 2.454 . S
O167 C169 1.353 . S
O168 U166 2.458 . S
O168 C169 1.286 . S
C169 U166 2.984 . S
C169 O167 1.353 . S
C169 O168 1.286 . S
C169 C171 1.363 . S
C170 C160 1.465 . S
C170 U166 2.847 . S
C170 O184 1.249 . S
C170 O185 1.202 . S
C171 C169 1.363 . S
C171 C173 1.408 . S
C171 C176 1.342 . S
C172 C173 1.310 . S
C172 C175 1.461 . S
C172 H192 0.932 . S
C173 C171 1.408 . S
C173 C172 1.310 . S
C173 H193 0.930 . S
C174 C175 1.474 . S
C174 C176 1.285 . S
C174 H194 0.929 . S
C175 C172 1.461 . S
C175 C174 1.474 . S
C176 C171 1.342 . S
C176 C174 1.285 . S
C176 H195 0.930 . S
C177 C180 1.424 . S
C177 C182 1.245 . S
C177 C183 1.428 . S
C178 C181 1.260 . S
C178 C182 1.477 . S
C178 H196 0.932 . S
C179 C180 1.384 . S
C179 C181 1.479 . S
C179 H197 0.929 . S
C180 C177 1.424 . S
C180 C179 1.384 . S
C180 H198 0.928 . S
C181 C178 1.260 . S
C181 C179 1.479 . S
C182 C177 1.245 . S
C182 C178 1.477 . S
C182 H199 0.932 . S
C183 U166 2.882 . S
C183 C177 1.428 . S
C183 O186 1.301 . S
C183 O187 1.282 . S
O184 U166 2.441 . S
O184 C170 1.249 . S
O185 U166 2.420 . S
O185 C170 1.202 . S
O186 U166 2.455 . S
O186 C183 1.301 . S
O187 U166 2.449 . S
O187 C183 1.282 . S
H188 C161 0.931 . S
H189 C163 0.929 . S
H190 C164 0.930 . S
H191 C165 0.931 . S
H192 C172 0.932 . S
H193 C173 0.930 . S
H194 C174 0.929 . S
H195 C176 0.930 . S
H196 C178 0.932 . S
H197 C179 0.929 . S
H198 C180 0.928 . S
H199 C182 0.932 . S
C200 C201 1.264 . S
C200 C205 1.479 . S
C200 C210 1.465 . S
C201 C200 1.264 . S
C201 C203 1.339 . S
C201 H228 0.931 . S
C202 C203 1.395 . S
C202 C204 1.320 . S
C203 C201 1.339 . S
C203 C202 1.395 . S
C203 H229 0.929 . S
C204 C202 1.320 . S
C204 C205 1.405 . S
C204 H230 0.930 . S
C205 C200 1.479 . S
C205 C204 1.405 . S
C205 H231 0.931 . S
U206 O207 2.454 . S
U206 O208 2.458 . S
U206 C209 2.984 . S
U206 C210 2.847 . S
U206 C223 2.882 . S
U206 O224 2.441 . S
U206 O225 2.420 . S
U206 O226 2.455 . S
U206 O227 2.449 . S
O207 U206 2.454 . S
O207 C209 1.353 . S
O208 U206 2.458 . S
O208 C209 1.286 . S
C209 U206 2.984 . S
C209 O207 1.353 . S
C209 O208 1.286 . S
C209 C211 1.363 . S
C210 C200 1.465 . S
C210 U206 2.847 . S
C210 O224 1.249 . S
C210 O225 1.202 . S
C211 C209 1.363 . S
C211 C213 1.408 . S
C211 C216 1.342 . S
C212 C213 1.310 . S
C212 C215 1.461 . S
C212 H232 0.932 . S
C213 C211 1.408 . S
C213 C212 1.310 . S
C213 H233 0.930 . S
C214 C215 1.474 . S
C214 C216 1.285 . S
C214 H234 0.929 . S
C215 C212 1.461 . S
C215 C214 1.474 . S
C216 C211 1.342 . S
C216 C214 1.285 . S
C216 H235 0.930 . S
C217 C220 1.424 . S
C217 C222 1.245 . S
C217 C223 1.428 . S
C218 C221 1.260 . S
C218 C222 1.477 . S
C218 H236 0.932 . S
C219 C220 1.384 . S
C219 C221 1.479 . S
C219 H237 0.929 . S
C220 C217 1.424 . S
C220 C219 1.384 . S
C220 H238 0.928 . S
C221 C218 1.260 . S
C221 C219 1.479 . S
C222 C217 1.245 . S
C222 C218 1.477 . S
C222 H239 0.932 . S
C223 U206 2.882 . S
C223 C217 1.428 . S
C223 O226 1.301 . S
C223 O227 1.282 . S
O224 U206 2.441 . S
O224 C210 1.249 . S
O225 U206 2.420 . S
O225 C210 1.202 . S
O226 U206 2.455 . S
O226 C223 1.301 . S
O227 U206 2.449 . S
O227 C223 1.282 . S
H228 C201 0.931 . S
H229 C203 0.929 . S
H230 C204 0.930 . S
H231 C205 0.931 . S
H232 C212 0.932 . S
H233 C213 0.930 . S
H234 C214 0.929 . S
H235 C216 0.930 . S
H236 C218 0.932 . S
H237 C219 0.929 . S
H238 C220 0.928 . S
H239 C222 0.932 . S
C240 C241 1.264 . S
C240 C245 1.479 . S
C240 C250 1.465 . S
C241 C240 1.264 . S
C241 C243 1.339 . S
C241 H268 0.931 . S
C242 C243 1.395 . S
C242 C244 1.320 . S
C243 C241 1.339 . S
C243 C242 1.395 . S
C243 H269 0.929 . S
C244 C242 1.320 . S
C244 C245 1.405 . S
C244 H270 0.930 . S
C245 C240 1.479 . S
C245 C244 1.405 . S
C245 H271 0.931 . S
U246 O247 2.454 . S
U246 O248 2.458 . S
U246 C249 2.984 . S
U246 C250 2.847 . S
U246 C263 2.882 . S
U246 O264 2.441 . S
U246 O265 2.420 . S
U246 O266 2.455 . S
U246 O267 2.449 . S
O247 U246 2.454 . S
O247 C249 1.353 . S
O248 U246 2.458 . S
O248 C249 1.286 . S
C249 U246 2.984 . S
C249 O247 1.353 . S
C249 O248 1.286 . S
C249 C251 1.363 . S
C250 C240 1.465 . S
C250 U246 2.847 . S
C250 O264 1.249 . S
C250 O265 1.202 . S
C251 C249 1.363 . S
C251 C253 1.408 . S
C251 C256 1.342 . S
C252 C253 1.310 . S
C252 C255 1.461 . S
C252 H272 0.932 . S
C253 C251 1.408 . S
C253 C252 1.310 . S
C253 H273 0.930 . S
C254 C255 1.474 . S
C254 C256 1.285 . S
C254 H274 0.929 . S
C255 C252 1.461 . S
C255 C254 1.474 . S
C256 C251 1.342 . S
C256 C254 1.285 . S
C256 H275 0.930 . S
C257 C260 1.424 . S
C257 C262 1.245 . S
C257 C263 1.428 . S
C258 C261 1.260 . S
C258 C262 1.477 . S
C258 H276 0.932 . S
C259 C260 1.384 . S
C259 C261 1.479 . S
C259 H277 0.929 . S
C260 C257 1.424 . S
C260 C259 1.384 . S
C260 H278 0.928 . S
C261 C258 1.260 . S
C261 C259 1.479 . S
C262 C257 1.245 . S
C262 C258 1.477 . S
C262 H279 0.932 . S
C263 U246 2.882 . S
C263 C257 1.428 . S
C263 O266 1.301 . S
C263 O267 1.282 . S
O264 U246 2.441 . S
O264 C250 1.249 . S
O265 U246 2.420 . S
O265 C250 1.202 . S
O266 U246 2.455 . S
O266 C263 1.301 . S
O267 U246 2.449 . S
O267 C263 1.282 . S
H268 C241 0.931 . S
H269 C243 0.929 . S
H270 C244 0.930 . S
H271 C245 0.931 . S
H272 C252 0.932 . S
H273 C253 0.930 . S
H274 C254 0.929 . S
H275 C256 0.930 . S
H276 C258 0.932 . S
H277 C259 0.929 . S
H278 C260 0.928 . S
H279 C262 0.932 . S
C280 C281 1.264 . S
C280 C285 1.479 . S
C280 C290 1.465 . S
C281 C280 1.264 . S
C281 C283 1.339 . S
C281 H308 0.931 . S
C282 C283 1.395 . S
C282 C284 1.320 . S
C283 C281 1.339 . S
C283 C282 1.395 . S
C283 H309 0.929 . S
C284 C282 1.320 . S
C284 C285 1.405 . S
C284 H310 0.930 . S
C285 C280 1.479 . S
C285 C284 1.405 . S
C285 H311 0.931 . S
U286 O287 2.454 . S
U286 O288 2.458 . S
U286 C289 2.984 . S
U286 C290 2.847 . S
U286 C303 2.882 . S
U286 O304 2.441 . S
U286 O305 2.420 . S
U286 O306 2.455 . S
U286 O307 2.449 . S
O287 U286 2.454 . S
O287 C289 1.353 . S
O288 U286 2.458 . S
O288 C289 1.286 . S
C289 U286 2.984 . S
C289 O287 1.353 . S
C289 O288 1.286 . S
C289 C291 1.363 . S
C290 C280 1.465 . S
C290 U286 2.847 . S
C290 O304 1.249 . S
C290 O305 1.202 . S
C291 C289 1.363 . S
C291 C293 1.408 . S
C291 C296 1.342 . S
C292 C293 1.310 . S
C292 C295 1.461 . S
C292 H312 0.932 . S
C293 C291 1.408 . S
C293 C292 1.310 . S
C293 H313 0.930 . S
C294 C295 1.474 . S
C294 C296 1.285 . S
C294 H314 0.929 . S
C295 C292 1.461 . S
C295 C294 1.474 . S
C296 C291 1.342 . S
C296 C294 1.285 . S
C296 H315 0.930 . S
C297 C300 1.424 . S
C297 C302 1.245 . S
C297 C303 1.428 . S
C298 C301 1.260 . S
C298 C302 1.477 . S
C298 H316 0.932 . S
C299 C300 1.384 . S
C299 C301 1.479 . S
C299 H317 0.929 . S
C300 C297 1.424 . S
C300 C299 1.384 . S
C300 H318 0.928 . S
C301 C298 1.260 . S
C301 C299 1.479 . S
C302 C297 1.245 . S
C302 C298 1.477 . S
C302 H319 0.932 . S
C303 U286 2.882 . S
C303 C297 1.428 . S
C303 O306 1.301 . S
C303 O307 1.282 . S
O304 U286 2.441 . S
O304 C290 1.249 . S
O305 U286 2.420 . S
O305 C290 1.202 . S
O306 U286 2.455 . S
O306 C303 1.301 . S
O307 U286 2.449 . S
O307 C303 1.282 . S
H308 C281 0.931 . S
H309 C283 0.929 . S
H310 C284 0.930 . S
H311 C285 0.931 . S
H312 C292 0.932 . S
H313 C293 0.930 . S
H314 C294 0.929 . S
H315 C296 0.930 . S
H316 C298 0.932 . S
H317 C299 0.929 . S
H318 C300 0.928 . S
H319 C302 0.932 . S
C320 C321 1.264 . S
C320 C325 1.479 . S
C320 C330 1.465 . S
C321 C320 1.264 . S
C321 C323 1.339 . S
C321 H348 0.931 . S
C322 C323 1.395 . S
C322 C324 1.320 . S
C323 C321 1.339 . S
C323 C322 1.395 . S
C323 H349 0.929 . S
C324 C322 1.320 . S
C324 C325 1.405 . S
C324 H350 0.930 . S
C325 C320 1.479 . S
C325 C324 1.405 . S
C325 H351 0.931 . S
U326 O327 2.454 . S
U326 O328 2.458 . S
U326 C329 2.984 . S
U326 C330 2.847 . S
U326 C343 2.882 . S
U326 O344 2.441 . S
U326 O345 2.420 . S
U326 O346 2.455 . S
U326 O347 2.449 . S
O327 U326 2.454 . S
O327 C329 1.353 . S
O328 U326 2.458 . S
O328 C329 1.286 . S
C329 U326 2.984 . S
C329 O327 1.353 . S
C329 O328 1.286 . S
C329 C331 1.363 . S
C330 C320 1.465 . S
C330 U326 2.847 . S
C330 O344 1.249 . S
C330 O345 1.202 . S
C331 C329 1.363 . S
C331 C333 1.408 . S
C331 C336 1.342 . S
C332 C333 1.310 . S
C332 C335 1.461 . S
C332 H352 0.932 . S
C333 C331 1.408 . S
C333 C332 1.310 . S
C333 H353 0.930 . S
C334 C335 1.474 . S
C334 C336 1.285 . S
C334 H354 0.929 . S
C335 C332 1.461 . S
C335 C334 1.474 . S
C336 C331 1.342 . S
C336 C334 1.285 . S
C336 H355 0.930 . S
C337 C340 1.424 . S
C337 C342 1.245 . S
C337 C343 1.428 . S
C338 C341 1.260 . S
C338 C342 1.477 . S
C338 H356 0.932 . S
C339 C340 1.384 . S
C339 C341 1.479 . S
C339 H357 0.929 . S
C340 C337 1.424 . S
C340 C339 1.384 . S
C340 H358 0.928 . S
C341 C338 1.260 . S
C341 C339 1.479 . S
C342 C337 1.245 . S
C342 C338 1.477 . S
C342 H359 0.932 . S
C343 U326 2.882 . S
C343 C337 1.428 . S
C343 O346 1.301 . S
C343 O347 1.282 . S
O344 U326 2.441 . S
O344 C330 1.249 . S
O345 U326 2.420 . S
O345 C330 1.202 . S
O346 U326 2.455 . S
O346 C343 1.301 . S
O347 U326 2.449 . S
O347 C343 1.282 . S
H348 C321 0.931 . S
H349 C323 0.929 . S
H350 C324 0.930 . S
H351 C325 0.931 . S
H352 C332 0.932 . S
H353 C333 0.930 . S
H354 C334 0.929 . S
H355 C336 0.930 . S
H356 C338 0.932 . S
H357 C339 0.929 . S
H358 C340 0.928 . S
H359 C342 0.932 . S
C360 C361 1.264 . S
C360 C365 1.479 . S
C360 C370 1.465 . S
C361 C360 1.264 . S
C361 C363 1.339 . S
C361 H388 0.931 . S
C362 C363 1.395 . S
C362 C364 1.320 . S
C363 C361 1.339 . S
C363 C362 1.395 . S
C363 H389 0.929 . S
C364 C362 1.320 . S
C364 C365 1.405 . S
C364 H390 0.930 . S
C365 C360 1.479 . S
C365 C364 1.405 . S
C365 H391 0.931 . S
U366 O367 2.454 . S
U366 O368 2.458 . S
U366 C369 2.984 . S
U366 C370 2.847 . S
U366 C383 2.882 . S
U366 O384 2.441 . S
U366 O385 2.420 . S
U366 O386 2.455 . S
U366 O387 2.449 . S
O367 U366 2.454 . S
O367 C369 1.353 . S
O368 U366 2.458 . S
O368 C369 1.286 . S
C369 U366 2.984 . S
C369 O367 1.353 . S
C369 O368 1.286 . S
C369 C371 1.363 . S
C370 C360 1.465 . S
C370 U366 2.847 . S
C370 O384 1.249 . S
C370 O385 1.202 . S
C371 C369 1.363 . S
C371 C373 1.408 . S
C371 C376 1.342 . S
C372 C373 1.310 . S
C372 C375 1.461 . S
C372 H392 0.932 . S
C373 C371 1.408 . S
C373 C372 1.310 . S
C373 H393 0.930 . S
C374 C375 1.474 . S
C374 C376 1.285 . S
C374 H394 0.929 . S
C375 C372 1.461 . S
C375 C374 1.474 . S
C376 C371 1.342 . S
C376 C374 1.285 . S
C376 H395 0.930 . S
C377 C380 1.424 . S
C377 C382 1.245 . S
C377 C383 1.428 . S
C378 C381 1.260 . S
C378 C382 1.477 . S
C378 H396 0.932 . S
C379 C380 1.384 . S
C379 C381 1.479 . S
C379 H397 0.929 . S
C380 C377 1.424 . S
C380 C379 1.384 . S
C380 H398 0.928 . S
C381 C378 1.260 . S
C381 C379 1.479 . S
C382 C377 1.245 . S
C382 C378 1.477 . S
C382 H399 0.932 . S
C383 U366 2.882 . S
C383 C377 1.428 . S
C383 O386 1.301 . S
C383 O387 1.282 . S
O384 U366 2.441 . S
O384 C370 1.249 . S
O385 U366 2.420 . S
O385 C370 1.202 . S
O386 U366 2.455 . S
O386 C383 1.301 . S
O387 U366 2.449 . S
O387 C383 1.282 . S
H388 C361 0.931 . S
H389 C363 0.929 . S
H390 C364 0.930 . S
H391 C365 0.931 . S
H392 C372 0.932 . S
H393 C373 0.930 . S
H394 C374 0.929 . S
H395 C376 0.930 . S
H396 C378 0.932 . S
H397 C379 0.929 . S
H398 C380 0.928 . S
H399 C382 0.932 . S
C400 C401 1.264 . S
C400 C405 1.479 . S
C400 C410 1.465 . S
C401 C400 1.264 . S
C401 C403 1.339 . S
C401 H428 0.931 . S
C402 C403 1.395 . S
C402 C404 1.320 . S
C403 C401 1.339 . S
C403 C402 1.395 . S
C403 H429 0.929 . S
C404 C402 1.320 . S
C404 C405 1.405 . S
C404 H430 0.930 . S
C405 C400 1.479 . S
C405 C404 1.405 . S
C405 H431 0.931 . S
U406 O407 2.454 . S
U406 O408 2.458 . S
U406 C409 2.984 . S
U406 C410 2.847 . S
U406 C423 2.882 . S
U406 O424 2.441 . S
U406 O425 2.420 . S
U406 O426 2.455 . S
U406 O427 2.449 . S
O407 U406 2.454 . S
O407 C409 1.353 . S
O408 U406 2.458 . S
O408 C409 1.286 . S
C409 U406 2.984 . S
C409 O407 1.353 . S
C409 O408 1.286 . S
C409 C411 1.363 . S
C410 C400 1.465 . S
C410 U406 2.847 . S
C410 O424 1.249 . S
C410 O425 1.202 . S
C411 C409 1.363 . S
C411 C413 1.408 . S
C411 C416 1.342 . S
C412 C413 1.310 . S
C412 C415 1.461 . S
C412 H432 0.932 . S
C413 C411 1.408 . S
C413 C412 1.310 . S
C413 H433 0.930 . S
C414 C415 1.474 . S
C414 C416 1.285 . S
C414 H434 0.929 . S
C415 C412 1.461 . S
C415 C414 1.474 . S
C416 C411 1.342 . S
C416 C414 1.285 . S
C416 H435 0.930 . S
C417 C420 1.424 . S
C417 C422 1.245 . S
C417 C423 1.428 . S
C418 C421 1.260 . S
C418 C422 1.477 . S
C418 H436 0.932 . S
C419 C420 1.384 . S
C419 C421 1.479 . S
C419 H437 0.929 . S
C420 C417 1.424 . S
C420 C419 1.384 . S
C420 H438 0.928 . S
C421 C418 1.260 . S
C421 C419 1.479 . S
C422 C417 1.245 . S
C422 C418 1.477 . S
C422 H439 0.932 . S
C423 U406 2.882 . S
C423 C417 1.428 . S
C423 O426 1.301 . S
C423 O427 1.282 . S
O424 U406 2.441 . S
O424 C410 1.249 . S
O425 U406 2.420 . S
O425 C410 1.202 . S
O426 U406 2.455 . S
O426 C423 1.301 . S
O427 U406 2.449 . S
O427 C423 1.282 . S
H428 C401 0.931 . S
H429 C403 0.929 . S
H430 C404 0.930 . S
H431 C405 0.931 . S
H432 C412 0.932 . S
H433 C413 0.930 . S
H434 C414 0.929 . S
H435 C416 0.930 . S
H436 C418 0.932 . S
H437 C419 0.929 . S
H438 C420 0.928 . S
H439 C422 0.932 . S
C440 C441 1.264 . S
C440 C445 1.479 . S
C440 C450 1.465 . S
C441 C440 1.264 . S
C441 C443 1.339 . S
C441 H468 0.931 . S
C442 C443 1.395 . S
C442 C444 1.320 . S
C443 C441 1.339 . S
C443 C442 1.395 . S
C443 H469 0.929 . S
C444 C442 1.320 . S
C444 C445 1.405 . S
C444 H470 0.930 . S
C445 C440 1.479 . S
C445 C444 1.405 . S
C445 H471 0.931 . S
U446 O447 2.454 . S
U446 O448 2.458 . S
U446 C449 2.984 . S
U446 C450 2.847 . S
U446 C463 2.882 . S
U446 O464 2.441 . S
U446 O465 2.420 . S
U446 O466 2.455 . S
U446 O467 2.449 . S
O447 U446 2.454 . S
O447 C449 1.353 . S
O448 U446 2.458 . S
O448 C449 1.286 . S
C449 U446 2.984 . S
C449 O447 1.353 . S
C449 O448 1.286 . S
C449 C451 1.363 . S
C450 C440 1.465 . S
C450 U446 2.847 . S
C450 O464 1.249 . S
C450 O465 1.202 . S
C451 C449 1.363 . S
C451 C453 1.408 . S
C451 C456 1.342 . S
C452 C453 1.310 . S
C452 C455 1.461 . S
C452 H472 0.932 . S
C453 C451 1.408 . S
C453 C452 1.310 . S
C453 H473 0.930 . S
C454 C455 1.474 . S
C454 C456 1.285 . S
C454 H474 0.929 . S
C455 C452 1.461 . S
C455 C454 1.474 . S
C456 C451 1.342 . S
C456 C454 1.285 . S
C456 H475 0.930 . S
C457 C460 1.424 . S
C457 C462 1.245 . S
C457 C463 1.428 . S
C458 C461 1.260 . S
C458 C462 1.477 . S
C458 H476 0.932 . S
C459 C460 1.384 . S
C459 C461 1.479 . S
C459 H477 0.929 . S
C460 C457 1.424 . S
C460 C459 1.384 . S
C460 H478 0.928 . S
C461 C458 1.260 . S
C461 C459 1.479 . S
C462 C457 1.245 . S
C462 C458 1.477 . S
C462 H479 0.932 . S
C463 U446 2.882 . S
C463 C457 1.428 . S
C463 O466 1.301 . S
C463 O467 1.282 . S
O464 U446 2.441 . S
O464 C450 1.249 . S
O465 U446 2.420 . S
O465 C450 1.202 . S
O466 U446 2.455 . S
O466 C463 1.301 . S
O467 U446 2.449 . S
O467 C463 1.282 . S
H468 C441 0.931 . S
H469 C443 0.929 . S
H470 C444 0.930 . S
H471 C445 0.931 . S
H472 C452 0.932 . S
H473 C453 0.930 . S
H474 C454 0.929 . S
H475 C456 0.930 . S
H476 C458 0.932 . S
H477 C459 0.929 . S
H478 C460 0.928 . S
H479 C462 0.932 . S
C480 C481 1.264 . S
C480 C485 1.479 . S
C480 C490 1.465 . S
C481 C480 1.264 . S
C481 C483 1.339 . S
C481 H508 0.931 . S
C482 C483 1.395 . S
C482 C484 1.320 . S
C483 C481 1.339 . S
C483 C482 1.395 . S
C483 H509 0.929 . S
C484 C482 1.320 . S
C484 C485 1.405 . S
C484 H510 0.930 . S
C485 C480 1.479 . S
C485 C484 1.405 . S
C485 H511 0.931 . S
U486 O487 2.454 . S
U486 O488 2.458 . S
U486 C489 2.984 . S
U486 C490 2.847 . S
U486 C503 2.882 . S
U486 O504 2.441 . S
U486 O505 2.420 . S
U486 O506 2.455 . S
U486 O507 2.449 . S
O487 U486 2.454 . S
O487 C489 1.353 . S
O488 U486 2.458 . S
O488 C489 1.286 . S
C489 U486 2.984 . S
C489 O487 1.353 . S
C489 O488 1.286 . S
C489 C491 1.363 . S
C490 C480 1.465 . S
C490 U486 2.847 . S
C490 O504 1.249 . S
C490 O505 1.202 . S
C491 C489 1.363 . S
C491 C493 1.408 . S
C491 C496 1.342 . S
C492 C493 1.310 . S
C492 C495 1.461 . S
C492 H512 0.932 . S
C493 C491 1.408 . S
C493 C492 1.310 . S
C493 H513 0.930 . S
C494 C495 1.474 . S
C494 C496 1.285 . S
C494 H514 0.929 . S
C495 C492 1.461 . S
C495 C494 1.474 . S
C496 C491 1.342 . S
C496 C494 1.285 . S
C496 H515 0.930 . S
C497 C500 1.424 . S
C497 C502 1.245 . S
C497 C503 1.428 . S
C498 C501 1.260 . S
C498 C502 1.477 . S
C498 H516 0.932 . S
C499 C500 1.384 . S
C499 C501 1.479 . S
C499 H517 0.929 . S
C500 C497 1.424 . S
C500 C499 1.384 . S
C500 H518 0.928 . S
C501 C498 1.260 . S
C501 C499 1.479 . S
C502 C497 1.245 . S
C502 C498 1.477 . S
C502 H519 0.932 . S
C503 U486 2.882 . S
C503 C497 1.428 . S
C503 O506 1.301 . S
C503 O507 1.282 . S
O504 U486 2.441 . S
O504 C490 1.249 . S
O505 U486 2.420 . S
O505 C490 1.202 . S
O506 U486 2.455 . S
O506 C503 1.301 . S
O507 U486 2.449 . S
O507 C503 1.282 . S
H508 C481 0.931 . S
H509 C483 0.929 . S
H510 C484 0.930 . S
H511 C485 0.931 . S
H512 C492 0.932 . S
H513 C493 0.930 . S
H514 C494 0.929 . S
H515 C496 0.930 . S
H516 C498 0.932 . S
H517 C499 0.929 . S
H518 C500 0.928 . S
H519 C502 0.932 . S
C520 C521 1.264 . S
C520 C525 1.479 . S
C520 C530 1.465 . S
C521 C520 1.264 . S
C521 C523 1.339 . S
C521 H548 0.931 . S
C522 C523 1.395 . S
C522 C524 1.320 . S
C523 C521 1.339 . S
C523 C522 1.395 . S
C523 H549 0.929 . S
C524 C522 1.320 . S
C524 C525 1.405 . S
C524 H550 0.930 . S
C525 C520 1.479 . S
C525 C524 1.405 . S
C525 H551 0.931 . S
U526 O527 2.454 . S
U526 O528 2.458 . S
U526 C529 2.984 . S
U526 C530 2.847 . S
U526 C543 2.882 . S
U526 O544 2.441 . S
U526 O545 2.420 . S
U526 O546 2.455 . S
U526 O547 2.449 . S
O527 U526 2.454 . S
O527 C529 1.353 . S
O528 U526 2.458 . S
O528 C529 1.286 . S
C529 U526 2.984 . S
C529 O527 1.353 . S
C529 O528 1.286 . S
C529 C531 1.363 . S
C530 C520 1.465 . S
C530 U526 2.847 . S
C530 O544 1.249 . S
C530 O545 1.202 . S
C531 C529 1.363 . S
C531 C533 1.408 . S
C531 C536 1.342 . S
C532 C533 1.310 . S
C532 C535 1.461 . S
C532 H552 0.932 . S
C533 C531 1.408 . S
C533 C532 1.310 . S
C533 H553 0.930 . S
C534 C535 1.474 . S
C534 C536 1.285 . S
C534 H554 0.929 . S
C535 C532 1.461 . S
C535 C534 1.474 . S
C536 C531 1.342 . S
C536 C534 1.285 . S
C536 H555 0.930 . S
C537 C540 1.424 . S
C537 C542 1.245 . S
C537 C543 1.428 . S
C538 C541 1.260 . S
C538 C542 1.477 . S
C538 H556 0.932 . S
C539 C540 1.384 . S
C539 C541 1.479 . S
C539 H557 0.929 . S
C540 C537 1.424 . S
C540 C539 1.384 . S
C540 H558 0.928 . S
C541 C538 1.260 . S
C541 C539 1.479 . S
C542 C537 1.245 . S
C542 C538 1.477 . S
C542 H559 0.932 . S
C543 U526 2.882 . S
C543 C537 1.428 . S
C543 O546 1.301 . S
C543 O547 1.282 . S
O544 U526 2.441 . S
O544 C530 1.249 . S
O545 U526 2.420 . S
O545 C530 1.202 . S
O546 U526 2.455 . S
O546 C543 1.301 . S
O547 U526 2.449 . S
O547 C543 1.282 . S
H548 C521 0.931 . S
H549 C523 0.929 . S
H550 C524 0.930 . S
H551 C525 0.931 . S
H552 C532 0.932 . S
H553 C533 0.930 . S
H554 C534 0.929 . S
H555 C536 0.930 . S
H556 C538 0.932 . S
H557 C539 0.929 . S
H558 C540 0.928 . S
H559 C542 0.932 . S
C560 C561 1.264 . S
C560 C565 1.479 . S
C560 C570 1.465 . S
C561 C560 1.264 . S
C561 C563 1.339 . S
C561 H588 0.931 . S
C562 C563 1.395 . S
C562 C564 1.320 . S
C563 C561 1.339 . S
C563 C562 1.395 . S
C563 H589 0.929 . S
C564 C562 1.320 . S
C564 C565 1.405 . S
C564 H590 0.930 . S
C565 C560 1.479 . S
C565 C564 1.405 . S
C565 H591 0.931 . S
U566 O567 2.454 . S
U566 O568 2.458 . S
U566 C569 2.984 . S
U566 C570 2.847 . S
U566 C583 2.882 . S
U566 O584 2.441 . S
U566 O585 2.420 . S
U566 O586 2.455 . S
U566 O587 2.449 . S
O567 U566 2.454 . S
O567 C569 1.353 . S
O568 U566 2.458 . S
O568 C569 1.286 . S
C569 U566 2.984 . S
C569 O567 1.353 . S
C569 O568 1.286 . S
C569 C571 1.363 . S
C570 C560 1.465 . S
C570 U566 2.847 . S
C570 O584 1.249 . S
C570 O585 1.202 . S
C571 C569 1.363 . S
C571 C573 1.408 . S
C571 C576 1.342 . S
C572 C573 1.310 . S
C572 C575 1.461 . S
C572 H592 0.932 . S
C573 C571 1.408 . S
C573 C572 1.310 . S
C573 H593 0.930 . S
C574 C575 1.474 . S
C574 C576 1.285 . S
C574 H594 0.929 . S
C575 C572 1.461 . S
C575 C574 1.474 . S
C576 C571 1.342 . S
C576 C574 1.285 . S
C576 H595 0.930 . S
C577 C580 1.424 . S
C577 C582 1.245 . S
C577 C583 1.428 . S
C578 C581 1.260 . S
C578 C582 1.477 . S
C578 H596 0.932 . S
C579 C580 1.384 . S
C579 C581 1.479 . S
C579 H597 0.929 . S
C580 C577 1.424 . S
C580 C579 1.384 . S
C580 H598 0.928 . S
C581 C578 1.260 . S
C581 C579 1.479 . S
C582 C577 1.245 . S
C582 C578 1.477 . S
C582 H599 0.932 . S
C583 U566 2.882 . S
C583 C577 1.428 . S
C583 O586 1.301 . S
C583 O587 1.282 . S
O584 U566 2.441 . S
O584 C570 1.249 . S
O585 U566 2.420 . S
O585 C570 1.202 . S
O586 U566 2.455 . S
O586 C583 1.301 . S
O587 U566 2.449 . S
O587 C583 1.282 . S
H588 C561 0.931 . S
H589 C563 0.929 . S
H590 C564 0.930 . S
H591 C565 0.931 . S
H592 C572 0.932 . S
H593 C573 0.930 . S
H594 C574 0.929 . S
H595 C576 0.930 . S
H596 C578 0.932 . S
H597 C579 0.929 . S
H598 C580 0.928 . S
H599 C582 0.932 . S
C600 C601 1.264 . S
C600 C605 1.479 . S
C600 C610 1.465 . S
C601 C600 1.264 . S
C601 C603 1.339 . S
C601 H628 0.931 . S
C602 C603 1.395 . S
C602 C604 1.320 . S
C603 C601 1.339 . S
C603 C602 1.395 . S
C603 H629 0.929 . S
C604 C602 1.320 . S
C604 C605 1.405 . S
C604 H630 0.930 . S
C605 C600 1.479 . S
C605 C604 1.405 . S
C605 H631 0.931 . S
U606 O607 2.454 . S
U606 O608 2.458 . S
U606 C609 2.984 . S
U606 C610 2.847 . S
U606 C623 2.882 . S
U606 O624 2.441 . S
U606 O625 2.420 . S
U606 O626 2.455 . S
U606 O627 2.449 . S
O607 U606 2.454 . S
O607 C609 1.353 . S
O608 U606 2.458 . S
O608 C609 1.286 . S
C609 U606 2.984 . S
C609 O607 1.353 . S
C609 O608 1.286 . S
C609 C611 1.363 . S
C610 C600 1.465 . S
C610 U606 2.847 . S
C610 O624 1.249 . S
C610 O625 1.202 . S
C611 C609 1.363 . S
C611 C613 1.408 . S
C611 C616 1.342 . S
C612 C613 1.310 . S
C612 C615 1.461 . S
C612 H632 0.932 . S
C613 C611 1.408 . S
C613 C612 1.310 . S
C613 H633 0.930 . S
C614 C615 1.474 . S
C614 C616 1.285 . S
C614 H634 0.929 . S
C615 C612 1.461 . S
C615 C614 1.474 . S
C616 C611 1.342 . S
C616 C614 1.285 . S
C616 H635 0.930 . S
C617 C620 1.424 . S
C617 C622 1.245 . S
C617 C623 1.428 . S
C618 C621 1.260 . S
C618 C622 1.477 . S
C618 H636 0.932 . S
C619 C620 1.384 . S
C619 C621 1.479 . S
C619 H637 0.929 . S
C620 C617 1.424 . S
C620 C619 1.384 . S
C620 H638 0.928 . S
C621 C618 1.260 . S
C621 C619 1.479 . S
C622 C617 1.245 . S
C622 C618 1.477 . S
C622 H639 0.932 . S
C623 U606 2.882 . S
C623 C617 1.428 . S
C623 O626 1.301 . S
C623 O627 1.282 . S
O624 U606 2.441 . S
O624 C610 1.249 . S
O625 U606 2.420 . S
O625 C610 1.202 . S
O626 U606 2.455 . S
O626 C623 1.301 . S
O627 U606 2.449 . S
O627 C623 1.282 . S
H628 C601 0.931 . S
H629 C603 0.929 . S
H630 C604 0.930 . S
H631 C605 0.931 . S
H632 C612 0.932 . S
H633 C613 0.930 . S
H634 C614 0.929 . S
H635 C616 0.930 . S
H636 C618 0.932 . S
H637 C619 0.929 . S
H638 C620 0.928 . S
H639 C622 0.932 . S
C640 C641 1.264 . S
C640 C645 1.479 . S
C640 C650 1.465 . S
C641 C640 1.264 . S
C641 C643 1.339 . S
C641 H668 0.931 . S
C642 C643 1.395 . S
C642 C644 1.320 . S
C643 C641 1.339 . S
C643 C642 1.395 . S
C643 H669 0.929 . S
C644 C642 1.320 . S
C644 C645 1.405 . S
C644 H670 0.930 . S
C645 C640 1.479 . S
C645 C644 1.405 . S
C645 H671 0.931 . S
U646 O647 2.454 . S
U646 O648 2.458 . S
U646 C649 2.984 . S
U646 C650 2.847 . S
U646 C663 2.882 . S
U646 O664 2.441 . S
U646 O665 2.420 . S
U646 O666 2.455 . S
U646 O667 2.449 . S
O647 U646 2.454 . S
O647 C649 1.353 . S
O648 U646 2.458 . S
O648 C649 1.286 . S
C649 U646 2.984 . S
C649 O647 1.353 . S
C649 O648 1.286 . S
C649 C651 1.363 . S
C650 C640 1.465 . S
C650 U646 2.847 . S
C650 O664 1.249 . S
C650 O665 1.202 . S
C651 C649 1.363 . S
C651 C653 1.408 . S
C651 C656 1.342 . S
C652 C653 1.310 . S
C652 C655 1.461 . S
C652 H672 0.932 . S
C653 C651 1.408 . S
C653 C652 1.310 . S
C653 H673 0.930 . S
C654 C655 1.474 . S
C654 C656 1.285 . S
C654 H674 0.929 . S
C655 C652 1.461 . S
C655 C654 1.474 . S
C656 C651 1.342 . S
C656 C654 1.285 . S
C656 H675 0.930 . S
C657 C660 1.424 . S
C657 C662 1.245 . S
C657 C663 1.428 . S
C658 C661 1.260 . S
C658 C662 1.477 . S
C658 H676 0.932 . S
C659 C660 1.384 . S
C659 C661 1.479 . S
C659 H677 0.929 . S
C660 C657 1.424 . S
C660 C659 1.384 . S
C660 H678 0.928 . S
C661 C658 1.260 . S
C661 C659 1.479 . S
C662 C657 1.245 . S
C662 C658 1.477 . S
C662 H679 0.932 . S
C663 U646 2.882 . S
C663 C657 1.428 . S
C663 O666 1.301 . S
C663 O667 1.282 . S
O664 U646 2.441 . S
O664 C650 1.249 . S
O665 U646 2.420 . S
O665 C650 1.202 . S
O666 U646 2.455 . S
O666 C663 1.301 . S
O667 U646 2.449 . S
O667 C663 1.282 . S
H668 C641 0.931 . S
H669 C643 0.929 . S
H670 C644 0.930 . S
H671 C645 0.931 . S
H672 C652 0.932 . S
H673 C653 0.930 . S
H674 C654 0.929 . S
H675 C656 0.930 . S
H676 C658 0.932 . S
H677 C659 0.929 . S
H678 C660 0.928 . S
H679 C662 0.932 . S
C680 C681 1.264 . S
C680 C685 1.479 . S
C680 C690 1.465 . S
C681 C680 1.264 . S
C681 C683 1.339 . S
C681 H708 0.931 . S
C682 C683 1.395 . S
C682 C684 1.320 . S
C683 C681 1.339 . S
C683 C682 1.395 . S
C683 H709 0.929 . S
C684 C682 1.320 . S
C684 C685 1.405 . S
C684 H710 0.930 . S
C685 C680 1.479 . S
C685 C684 1.405 . S
C685 H711 0.931 . S
U686 O687 2.454 . S
U686 O688 2.458 . S
U686 C689 2.984 . S
U686 C690 2.847 . S
U686 C703 2.882 . S
U686 O704 2.441 . S
U686 O705 2.420 . S
U686 O706 2.455 . S
U686 O707 2.449 . S
O687 U686 2.454 . S
O687 C689 1.353 . S
O688 U686 2.458 . S
O688 C689 1.286 . S
C689 U686 2.984 . S
C689 O687 1.353 . S
C689 O688 1.286 . S
C689 C691 1.363 . S
C690 C680 1.465 . S
C690 U686 2.847 . S
C690 O704 1.249 . S
C690 O705 1.202 . S
C691 C689 1.363 . S
C691 C693 1.408 . S
C691 C696 1.342 . S
C692 C693 1.310 . S
C692 C695 1.461 . S
C692 H712 0.932 . S
C693 C691 1.408 . S
C693 C692 1.310 . S
C693 H713 0.930 . S
C694 C695 1.474 . S
C694 C696 1.285 . S
C694 H714 0.929 . S
C695 C692 1.461 . S
C695 C694 1.474 . S
C696 C691 1.342 . S
C696 C694 1.285 . S
C696 H715 0.930 . S
C697 C700 1.424 . S
C697 C702 1.245 . S
C697 C703 1.428 . S
C698 C701 1.260 . S
C698 C702 1.477 . S
C698 H716 0.932 . S
C699 C700 1.384 . S
C699 C701 1.479 . S
C699 H717 0.929 . S
C700 C697 1.424 . S
C700 C699 1.384 . S
C700 H718 0.928 . S
C701 C698 1.260 . S
C701 C699 1.479 . S
C702 C697 1.245 . S
C702 C698 1.477 . S
C702 H719 0.932 . S
C703 U686 2.882 . S
C703 C697 1.428 . S
C703 O706 1.301 . S
C703 O707 1.282 . S
O704 U686 2.441 . S
O704 C690 1.249 . S
O705 U686 2.420 . S
O705 C690 1.202 . S
O706 U686 2.455 . S
O706 C703 1.301 . S
O707 U686 2.449 . S
O707 C703 1.282 . S
H708 C681 0.931 . S
H709 C683 0.929 . S
H710 C684 0.930 . S
H711 C685 0.931 . S
H712 C692 0.932 . S
H713 C693 0.930 . S
H714 C694 0.929 . S
H715 C696 0.930 . S
H716 C698 0.932 . S
H717 C699 0.929 . S
H718 C700 0.928 . S
H719 C702 0.932 . S
Tb720 O723 2.453 . S
Tb720 O724 2.596 1_545 S
Tb720 O725 2.374 1_545 S
Tb720 O733 2.343 1_554 S
Tb720 O735 2.353 . S
Tb720 O737 2.427 1_554 S
Tb720 O738 2.513 1_554 S
C721 O725 1.251 . S
C721 O727 1.282 . S
Tb722 O724 2.343 1_556 S
Tb722 O727 2.346 1_556 S
Tb722 O730 2.427 1_556 S
Tb722 O731 2.513 1_556 S
Tb722 O732 2.453 . S
Tb722 O733 2.596 1_565 S
Tb722 O734 2.374 1_565 S
O723 Tb720 2.453 . S
O723 C739 1.245 . S
O724 Tb720 2.596 1_565 S
O724 Tb722 2.343 1_554 S
O724 C739 1.259 1_565 S
O725 Tb720 2.374 1_565 S
O725 C721 1.251 . S
C726 O730 1.275 . S
C726 O731 1.246 . S
O727 C721 1.282 . S
O727 Tb722 2.346 1_554 S
C728 O732 1.220 1_545 S
C728 O733 1.266 . S
C729 O734 1.250 . S
C729 O735 1.263 1_556 S
O730 Tb722 2.427 1_554 S
O730 C726 1.275 . S
O731 Tb722 2.513 1_554 S
O731 C726 1.246 . S
O732 Tb722 2.453 . S
O732 C728 1.220 1_565 S
O733 Tb720 2.343 1_556 S
O733 Tb722 2.596 1_545 S
O733 C728 1.266 . S
O734 Tb722 2.374 1_545 S
O734 C729 1.250 . S
O735 Tb720 2.353 . S
O735 C729 1.263 1_554 S
C736 O737 1.275 . S
C736 O738 1.246 . S
O737 Tb720 2.427 1_556 S
O737 C736 1.275 . S
O738 Tb720 2.513 1_556 S
O738 C736 1.246 . S
C739 O723 1.245 . S
C739 O724 1.259 1_545 S
Tb740 O743 2.453 . S
Tb740 O744 2.596 1_655 S
Tb740 O745 2.374 1_655 S
Tb740 O753 2.343 1_554 S
Tb740 O755 2.353 . S
Tb740 O757 2.427 1_554 S
Tb740 O758 2.513 1_554 S
C741 O745 1.251 . S
C741 O747 1.263 . S
Tb742 O744 2.343 1_556 S
Tb742 O747 2.353 1_556 S
Tb742 O750 2.427 1_556 S
Tb742 O751 2.513 1_556 S
Tb742 O752 2.453 . S
Tb742 O753 2.596 1_455 S
Tb742 O754 2.374 1_455 S
O743 Tb740 2.453 . S
O743 C759 1.245 1_655 S
O744 Tb740 2.596 1_455 S
O744 Tb742 2.343 1_554 S
O744 C759 1.259 . S
O745 Tb740 2.374 1_455 S
O745 C741 1.251 . S
C746 O750 1.275 . S
C746 O751 1.246 . S
O747 C741 1.263 . S
O747 Tb742 2.353 1_554 S
C748 O752 1.241 . S
C748 O753 1.261 1_455 S
C749 O754 1.250 . S
C749 O755 1.263 1_556 S
O750 Tb742 2.427 1_554 S
O750 C746 1.275 . S
O751 Tb742 2.513 1_554 S
O751 C746 1.246 . S
O752 Tb742 2.453 . S
O752 C748 1.241 . S
O753 Tb740 2.343 1_556 S
O753 Tb742 2.596 1_655 S
O753 C748 1.261 1_655 S
O754 Tb742 2.374 1_655 S
O754 C749 1.250 . S
O755 Tb740 2.353 . S
O755 C749 1.263 1_554 S
C756 O757 1.275 . S
C756 O758 1.246 . S
O757 Tb740 2.427 1_556 S
O757 C756 1.275 . S
O758 Tb740 2.513 1_556 S
O758 C756 1.246 . S
C759 O743 1.245 1_455 S
C759 O744 1.259 . S
Tb760 O763 2.453 . S
Tb760 O764 2.596 . S
Tb760 O765 2.374 . S
Tb760 O773 2.343 1_556 S
Tb760 O775 2.353 1_556 S
Tb760 O777 2.427 1_556 S
Tb760 O778 2.513 1_556 S
C761 O765 1.251 . S
C761 O767 1.263 1_556 S
Tb762 O764 2.343 1_554 S
Tb762 O767 2.353 . S
Tb762 O770 2.427 1_554 S
Tb762 O771 2.513 1_554 S
Tb762 O772 2.453 . S
Tb762 O773 2.596 . S
Tb762 O774 2.374 . S
O763 Tb760 2.453 . S
O763 C779 1.245 . S
O764 Tb760 2.596 . S
O764 Tb762 2.343 1_556 S
O764 C779 1.259 . S
O765 Tb760 2.374 . S
O765 C761 1.251 . S
C766 O770 1.275 . S
C766 O771 1.246 . S
O767 C761 1.263 1_554 S
O767 Tb762 2.353 . S
C768 O772 1.245 . S
C768 O773 1.259 . S
C769 O774 1.250 . S
C769 O775 1.263 . S
O770 Tb762 2.427 1_556 S
O770 C766 1.275 . S
O771 Tb762 2.513 1_556 S
O771 C766 1.246 . S
O772 Tb762 2.453 . S
O772 C768 1.245 . S
O773 Tb760 2.343 1_554 S
O773 Tb762 2.596 . S
O773 C768 1.259 . S
O774 Tb762 2.374 . S
O774 C769 1.250 . S
O775 Tb760 2.353 1_554 S
O775 C769 1.263 . S
C776 O777 1.275 . S
C776 O778 1.246 . S
O777 Tb760 2.427 1_554 S
O777 C776 1.275 . S
O778 Tb760 2.513 1_554 S
O778 C776 1.246 . S
C779 O763 1.245 . S
C779 O764 1.259 . S
Tb780 O783 2.453 . S
Tb780 O784 2.596 . S
Tb780 O785 2.374 . S
Tb780 O793 2.343 . S
Tb780 O795 2.353 . S
Tb780 O797 2.427 . S
Tb780 O798 2.513 . S
C781 O785 1.251 . S
C781 O787 1.263 . S
Tb782 O784 2.343 . S
Tb782 O787 2.353 . S
Tb782 O790 2.427 . S
Tb782 O791 2.513 . S
Tb782 O792 2.453 . S
Tb782 O793 2.596 . S
Tb782 O794 2.374 . S
O783 Tb780 2.453 . S
O783 C799 1.245 . S
O784 Tb780 2.596 . S
O784 Tb782 2.343 . S
O784 C799 1.259 . S
O785 Tb780 2.374 . S
O785 C781 1.251 . S
C786 O790 1.275 . S
C786 O791 1.246 . S
O787 C781 1.263 . S
O787 Tb782 2.353 . S
C788 O792 1.245 . S
C788 O793 1.259 . S
C789 O794 1.250 . S
C789 O795 1.263 . S
O790 Tb782 2.427 . S
O790 C786 1.275 . S
O791 Tb782 2.513 . S
O791 C786 1.246 . S
O792 Tb782 2.453 . S
O792 C788 1.245 . S
O793 Tb780 2.343 . S
O793 Tb782 2.596 . S
O793 C788 1.259 . S
O794 Tb782 2.374 . S
O794 C789 1.250 . S
O795 Tb780 2.353 . S
O795 C789 1.263 . S
C796 O797 1.275 . S
C796 O798 1.246 . S
O797 Tb780 2.427 . S
O797 C796 1.275 . S
O798 Tb780 2.513 . S
O798 C796 1.246 . S
C799 O783 1.245 . S
C799 O784 1.259 . S
Tb800 O803 2.453 . S
Tb800 O804 2.596 . S
Tb800 O805 2.374 . S
Tb800 O813 2.343 . S
Tb800 O815 2.353 . S
Tb800 O817 2.427 . S
Tb800 O818 2.513 . S
C801 O805 1.251 . S
C801 O807 1.263 . S
Tb802 O804 2.343 . S
Tb802 O807 2.353 . S
Tb802 O810 2.427 . S
Tb802 O811 2.513 . S
Tb802 O812 2.453 . S
Tb802 O813 2.596 . S
Tb802 O814 2.374 . S
O803 Tb800 2.453 . S
O803 C819 1.245 . S
O804 Tb800 2.596 . S
O804 Tb802 2.343 . S
O804 C819 1.259 . S
O805 Tb800 2.374 . S
O805 C801 1.251 . S
C806 O810 1.275 . S
C806 O811 1.246 . S
O807 C801 1.263 . S
O807 Tb802 2.353 . S
C808 O812 1.245 . S
C808 O813 1.259 . S
C809 O814 1.250 . S
C809 O815 1.263 . S
O810 Tb802 2.427 . S
O810 C806 1.275 . S
O811 Tb802 2.513 . S
O811 C806 1.246 . S
O812 Tb802 2.453 . S
O812 C808 1.245 . S
O813 Tb800 2.343 . S
O813 Tb802 2.596 . S
O813 C808 1.259 . S
O814 Tb802 2.374 . S
O814 C809 1.250 . S
O815 Tb800 2.353 . S
O815 C809 1.263 . S
C816 O817 1.275 . S
C816 O818 1.246 . S
O817 Tb800 2.427 . S
O817 C816 1.275 . S
O818 Tb800 2.513 . S
O818 C816 1.246 . S
C819 O803 1.245 . S
C819 O804 1.259 . S
Tb820 O823 2.453 . S
Tb820 O824 2.596 . S
Tb820 O825 2.374 . S
Tb820 O833 2.343 . S
Tb820 O835 2.353 . S
Tb820 O837 2.427 . S
Tb820 O838 2.513 . S
C821 O825 1.251 . S
C821 O827 1.263 . S
Tb822 O824 2.343 . S
Tb822 O827 2.353 . S
Tb822 O830 2.427 . S
Tb822 O831 2.513 . S
Tb822 O832 2.453 . S
Tb822 O833 2.596 . S
Tb822 O834 2.374 . S
O823 Tb820 2.453 . S
O823 C839 1.245 . S
O824 Tb820 2.596 . S
O824 Tb822 2.343 . S
O824 C839 1.259 . S
O825 Tb820 2.374 . S
O825 C821 1.251 . S
C826 O830 1.275 . S
C826 O831 1.246 . S
O827 C821 1.263 . S
O827 Tb822 2.353 . S
C828 O832 1.245 . S
C828 O833 1.259 . S
C829 O834 1.250 . S
C829 O835 1.263 . S
O830 Tb822 2.427 . S
O830 C826 1.275 . S
O831 Tb822 2.513 . S
O831 C826 1.246 . S
O832 Tb822 2.453 . S
O832 C828 1.245 . S
O833 Tb820 2.343 . S
O833 Tb822 2.596 . S
O833 C828 1.259 . S
O834 Tb822 2.374 . S
O834 C829 1.250 . S
O835 Tb820 2.353 . S
O835 C829 1.263 . S
C836 O837 1.275 . S
C836 O838 1.246 . S
O837 Tb820 2.427 . S
O837 C836 1.275 . S
O838 Tb820 2.513 . S
O838 C836 1.246 . S
C839 O823 1.245 . S
C839 O824 1.259 . S
Tb840 O843 2.453 . S
Tb840 O844 2.596 . S
Tb840 O845 2.374 . S
Tb840 O853 2.343 . S
Tb840 O855 2.353 . S
Tb840 O857 2.427 . S
Tb840 O858 2.513 . S
C841 O845 1.251 . S
C841 O847 1.263 . S
Tb842 O844 2.343 . S
Tb842 O847 2.353 . S
Tb842 O850 2.427 . S
Tb842 O851 2.513 . S
Tb842 O852 2.453 . S
Tb842 O853 2.596 . S
Tb842 O854 2.374 . S
O843 Tb840 2.453 . S
O843 C859 1.245 . S
O844 Tb840 2.596 . S
O844 Tb842 2.343 . S
O844 C859 1.259 . S
O845 Tb840 2.374 . S
O845 C841 1.251 . S
C846 O850 1.275 . S
C846 O851 1.246 . S
O847 C841 1.263 . S
O847 Tb842 2.353 . S
C848 O852 1.245 . S
C848 O853 1.259 . S
C849 O854 1.250 . S
C849 O855 1.263 . S
O850 Tb842 2.427 . S
O850 C846 1.275 . S
O851 Tb842 2.513 . S
O851 C846 1.246 . S
O852 Tb842 2.453 . S
O852 C848 1.245 . S
O853 Tb840 2.343 . S
O853 Tb842 2.596 . S
O853 C848 1.259 . S
O854 Tb842 2.374 . S
O854 C849 1.250 . S
O855 Tb840 2.353 . S
O855 C849 1.263 . S
C856 O857 1.275 . S
C856 O858 1.246 . S
O857 Tb840 2.427 . S
O857 C856 1.275 . S
O858 Tb840 2.513 . S
O858 C856 1.246 . S
C859 O843 1.245 . S
C859 O844 1.259 . S
Tb860 O863 2.453 . S
Tb860 O864 2.596 . S
Tb860 O865 2.374 . S
Tb860 O873 2.343 . S
Tb860 O875 2.353 . S
Tb860 O877 2.427 . S
Tb860 O878 2.513 . S
C861 O865 1.251 . S
C861 O867 1.263 . S
Tb862 O864 2.343 . S
Tb862 O867 2.353 . S
Tb862 O870 2.427 . S
Tb862 O871 2.513 . S
Tb862 O872 2.453 . S
Tb862 O873 2.596 . S
Tb862 O874 2.374 . S
O863 Tb860 2.453 . S
O863 C879 1.245 . S
O864 Tb860 2.596 . S
O864 Tb862 2.343 . S
O864 C879 1.259 . S
O865 Tb860 2.374 . S
O865 C861 1.251 . S
C866 O870 1.275 . S
C866 O871 1.246 . S
O867 C861 1.263 . S
O867 Tb862 2.353 . S
C868 O872 1.245 . S
C868 O873 1.259 . S
C869 O874 1.250 . S
C869 O875 1.263 . S
O870 Tb862 2.427 . S
O870 C866 1.275 . S
O871 Tb862 2.513 . S
O871 C866 1.246 . S
O872 Tb862 2.453 . S
O872 C868 1.245 . S
O873 Tb860 2.343 . S
O873 Tb862 2.596 . S
O873 C868 1.259 . S
O874 Tb862 2.374 . S
O874 C869 1.250 . S
O875 Tb860 2.353 . S
O875 C869 1.263 . S
C876 O877 1.275 . S
C876 O878 1.246 . S
O877 Tb860 2.427 . S
O877 C876 1.275 . S
O878 Tb860 2.513 . S
O878 C876 1.246 . S
C879 O863 1.245 . S
C879 O864 1.259 . S
Tb880 O883 2.453 . S
Tb880 O884 2.596 . S
Tb880 O885 2.374 . S
Tb880 O893 2.343 . S
Tb880 O895 2.353 . S
Tb880 O897 2.427 . S
Tb880 O898 2.513 . S
C881 O885 1.251 . S
C881 O887 1.263 . S
Tb882 O884 2.343 . S
Tb882 O887 2.353 . S
Tb882 O890 2.427 . S
Tb882 O891 2.513 . S
Tb882 O892 2.453 . S
Tb882 O893 2.596 . S
Tb882 O894 2.374 . S
O883 Tb880 2.453 . S
O883 C899 1.245 . S
O884 Tb880 2.596 . S
O884 Tb882 2.343 . S
O884 C899 1.259 . S
O885 Tb880 2.374 . S
O885 C881 1.251 . S
C886 O890 1.275 . S
C886 O891 1.246 . S
O887 C881 1.263 . S
O887 Tb882 2.353 . S
C888 O892 1.245 . S
C888 O893 1.259 . S
C889 O894 1.250 . S
C889 O895 1.263 . S
O890 Tb882 2.427 . S
O890 C886 1.275 . S
O891 Tb882 2.513 . S
O891 C886 1.246 . S
O892 Tb882 2.453 . S
O892 C888 1.245 . S
O893 Tb880 2.343 . S
O893 Tb882 2.596 . S
O893 C888 1.259 . S
O894 Tb882 2.374 . S
O894 C889 1.250 . S
O895 Tb880 2.353 . S
O895 C889 1.263 . S
C896 O897 1.275 . S
C896 O898 1.246 . S
O897 Tb880 2.427 . S
O897 C896 1.275 . S
O898 Tb880 2.513 . S
O898 C896 1.246 . S
C899 O883 1.245 . S
C899 O884 1.259 . S
H900 C906 0.930 . S
H901 C909 0.930 . S
H902 C910 0.930 . S
H903 C911 0.930 . S
H904 C914 0.930 . S
H905 C915 0.930 . S
C906 H900 0.930 . S
C906 C907 1.355 . S
C906 C908 1.415 . S
C907 C906 1.355 . S
C907 C909 1.419 . S
C908 C906 1.415 . S
C908 C913 1.425 . S
C908 C915 1.409 . S
C909 H901 0.930 . S
C909 C907 1.419 . S
C909 C910 1.362 . S
C910 H902 0.930 . S
C910 C909 1.362 . S
C910 C913 1.409 . S
C911 H903 0.930 . S
C911 C912 1.355 . S
C911 C913 1.415 . S
C912 C911 1.355 . S
C912 C914 1.419 . S
C913 C908 1.425 . S
C913 C910 1.409 . S
C913 C911 1.415 . S
C914 H904 0.930 . S
C914 C912 1.419 . S
C914 C915 1.362 . S
C915 H905 0.930 . S
C915 C908 1.409 . S
C915 C914 1.362 . S
H916 C922 0.930 . S
H917 C925 0.930 . S
H918 C926 0.930 . S
H919 C927 0.930 . S
H920 C930 0.930 . S
H921 C931 0.930 . S
C922 H916 0.930 . S
C922 C923 1.355 . S
C922 C924 1.415 . S
C923 C922 1.355 . S
C923 C925 1.419 . S
C924 C922 1.415 . S
C924 C929 1.425 . S
C924 C931 1.409 . S
C925 H917 0.930 . S
C925 C923 1.419 . S
C925 C926 1.362 . S
C926 H918 0.930 . S
C926 C925 1.362 . S
C926 C929 1.409 . S
C927 H919 0.930 . S
C927 C928 1.355 . S
C927 C929 1.415 . S
C928 C927 1.355 . S
C928 C930 1.419 . S
C929 C924 1.425 . S
C929 C926 1.409 . S
C929 C927 1.415 . S
C930 H920 0.930 . S
C930 C928 1.419 . S
C930 C931 1.362 . S
C931 H921 0.930 . S
C931 C924 1.409 . S
C931 C930 1.362 . S
H932 C938 0.930 . S
H933 C941 0.930 . S
H934 C942 0.930 1_556 S
H935 C943 0.930 1_556 S
H936 C946 0.930 . S
H937 C947 0.930 . S
C938 H932 0.930 . S
C938 C939 1.355 . S
C938 C940 1.415 . S
C939 C938 1.355 . S
C939 C941 1.419 . S
C940 C938 1.415 . S
C940 C945 1.425 . S
C940 C947 1.409 . S
C941 H933 0.930 . S
C941 C939 1.419 . S
C941 C942 1.362 . S
C942 H934 0.930 1_554 S
C942 C941 1.362 . S
C942 C945 1.409 . S
C943 H935 0.930 1_554 S
C943 C944 1.355 . S
C943 C945 1.415 . S
C944 C943 1.355 . S
C944 C946 1.419 . S
C945 C940 1.425 . S
C945 C942 1.409 . S
C945 C943 1.415 . S
C946 H936 0.930 . S
C946 C944 1.419 . S
C946 C947 1.362 . S
C947 H937 0.930 . S
C947 C940 1.409 . S
C947 C946 1.362 . S
H948 C954 0.930 . S
H949 C957 0.930 . S
H950 C958 0.930 . S
H951 C959 0.930 . S
H952 C962 0.930 . S
H953 C963 0.960 . S
C954 H948 0.930 . S
C954 C955 1.355 . S
C954 C956 1.415 . S
C955 C954 1.355 . S
C955 C957 1.419 . S
C956 C954 1.415 . S
C956 C961 1.425 . S
C956 C963 1.380 1_556 S
C957 H949 0.930 . S
C957 C955 1.419 . S
C957 C958 1.362 . S
C958 H950 0.930 . S
C958 C957 1.362 . S
C958 C961 1.409 . S
C959 H951 0.930 . S
C959 C960 1.355 . S
C959 C961 1.415 . S
C960 C959 1.355 . S
C960 C962 1.419 1_556 S
C961 C956 1.425 . S
C961 C958 1.409 . S
C961 C959 1.415 . S
C962 H952 0.930 . S
C962 C960 1.419 1_554 S
C962 C963 1.363 . S
C963 H953 0.960 . S
C963 C956 1.380 1_554 S
C963 C962 1.363 . S
H964 C970 0.930 . S
H965 C973 0.930 . S
H966 C974 0.930 . S
H967 C975 0.930 . S
H968 C978 0.930 . S
H969 C979 0.930 . S
C970 H964 0.930 . S
C970 C971 1.355 . S
C970 C972 1.415 . S
C971 C970 1.355 . S
C971 C973 1.419 . S
C972 C970 1.415 . S
C972 C977 1.425 . S
C972 C979 1.409 . S
C973 H965 0.930 . S
C973 C971 1.419 . S
C973 C974 1.362 . S
C974 H966 0.930 . S
C974 C973 1.362 . S
C974 C977 1.409 . S
C975 H967 0.930 . S
C975 C976 1.355 . S
C975 C977 1.415 . S
C976 C975 1.355 . S
C976 C978 1.419 . S
C977 C972 1.425 . S
C977 C974 1.409 . S
C977 C975 1.415 . S
C978 H968 0.930 . S
C978 C976 1.419 . S
C978 C979 1.362 . S
C979 H969 0.930 . S
C979 C972 1.409 . S
C979 C978 1.362 . S
H980 C986 0.930 . S
H981 C989 0.930 . S
H982 C990 0.930 . S
H983 C991 0.930 . S
H984 C994 0.930 . S
H985 C995 0.930 . S
C986 H980 0.930 . S
C986 C987 1.355 . S
C986 C988 1.415 . S
C987 C986 1.355 . S
C987 C989 1.419 . S
C988 C986 1.415 . S
C988 C993 1.425 . S
C988 C995 1.409 . S
C989 H981 0.930 . S
C989 C987 1.419 . S
C989 C990 1.362 . S
C990 H982 0.930 . S
C990 C989 1.362 . S
C990 C993 1.409 . S
C991 H983 0.930 . S
C991 C992 1.355 . S
C991 C993 1.415 . S
C992 C991 1.355 . S
C992 C994 1.419 . S
C993 C988 1.425 . S
C993 C990 1.409 . S
C993 C991 1.415 . S
C994 H984 0.930 . S
C994 C992 1.419 . S
C994 C995 1.362 . S
C995 H985 0.930 . S
C995 C988 1.409 . S
C995 C994 1.362 . S
H996 C1002 0.930 . S
H997 C1005 0.930 . S
H998 C1006 0.930 . S
H999 C1007 0.930 . S
H1000 C1010 0.930 . S
H1001 C1011 0.930 . S
C1002 H996 0.930 . S
C1002 C1003 1.355 . S
C1002 C1004 1.415 . S
C1003 C1002 1.355 . S
C1003 C1005 1.419 . S
C1004 C1002 1.415 . S
C1004 C1009 1.425 . S
C1004 C1011 1.409 . S
C1005 H997 0.930 . S
C1005 C1003 1.419 . S
C1005 C1006 1.362 . S
C1006 H998 0.930 . S
C1006 C1005 1.362 . S
C1006 C1009 1.409 . S
C1007 H999 0.930 . S
C1007 C1008 1.355 . S
C1007 C1009 1.415 . S
C1008 C1007 1.355 . S
C1008 C1010 1.419 . S
C1009 C1004 1.425 . S
C1009 C1006 1.409 . S
C1009 C1007 1.415 . S
C1010 H1000 0.930 . S
C1010 C1008 1.419 . S
C1010 C1011 1.362 . S
C1011 H1001 0.930 . S
C1011 C1004 1.409 . S
C1011 C1010 1.362 . S
H1012 C1018 0.930 . S
H1013 C1021 0.930 . S
H1014 C1022 0.930 . S
H1015 C1023 0.930 . S
H1016 C1026 0.930 1_554 S
H1017 C1027 0.930 . S
C1018 H1012 0.930 . S
C1018 C1019 1.355 . S
C1018 C1020 1.415 . S
C1019 C1018 1.355 . S
C1019 C1021 1.419 . S
C1020 C1018 1.415 . S
C1020 C1025 1.425 . S
C1020 C1027 1.409 . S
C1021 H1013 0.930 . S
C1021 C1019 1.419 . S
C1021 C1022 1.362 . S
C1022 H1014 0.930 . S
C1022 C1021 1.362 . S
C1022 C1025 1.409 . S
C1023 H1015 0.930 . S
C1023 C1024 1.355 . S
C1023 C1025 1.415 . S
C1024 C1023 1.355 . S
C1024 C1026 1.419 . S
C1025 C1020 1.425 . S
C1025 C1022 1.409 . S
C1025 C1023 1.415 . S
C1026 H1016 0.930 1_556 S
C1026 C1024 1.419 . S
C1026 C1027 1.362 . S
C1027 H1017 0.930 . S
C1027 C1020 1.409 . S
C1027 C1026 1.362 . S
H1028 C1034 0.930 . S
H1029 C1037 0.930 1_554 S
H1030 C1038 0.930 . S
H1031 C1039 0.930 1_554 S
H1032 C1042 0.930 . S
H1033 C1043 0.930 . S
C1034 H1028 0.930 . S
C1034 C1035 1.355 . S
C1034 C1036 1.415 . S
C1035 C1034 1.355 . S
C1035 C1037 1.419 . S
C1036 C1034 1.415 . S
C1036 C1041 1.425 . S
C1036 C1043 1.409 . S
C1037 H1029 0.930 1_556 S
C1037 C1035 1.419 . S
C1037 C1038 1.362 1_556 S
C1038 H1030 0.930 . S
C1038 C1037 1.362 1_554 S
C1038 C1041 1.409 1_554 S
C1039 H1031 0.930 1_556 S
C1039 C1040 1.355 . S
C1039 C1041 1.415 . S
C1040 C1039 1.355 . S
C1040 C1042 1.419 . S
C1041 C1036 1.425 . S
C1041 C1038 1.409 1_556 S
C1041 C1039 1.415 . S
C1042 H1032 0.930 . S
C1042 C1040 1.419 . S
C1042 C1043 1.362 . S
C1043 H1033 0.930 . S
C1043 C1036 1.409 . S
C1043 C1042 1.362 . S
H1044 C1050 0.930 . S
H1045 C1053 0.930 . S
H1046 C1054 0.930 . S
H1047 C1055 0.930 . S
H1048 C1058 0.930 . S
H1049 C1059 0.930 . S
C1050 H1044 0.930 . S
C1050 C1051 1.355 . S
C1050 C1052 1.415 . S
C1051 C1050 1.355 . S
C1051 C1053 1.419 . S
C1052 C1050 1.415 . S
C1052 C1057 1.425 . S
C1052 C1059 1.409 . S
C1053 H1045 0.930 . S
C1053 C1051 1.419 . S
C1053 C1054 1.362 . S
C1054 H1046 0.930 . S
C1054 C1053 1.362 . S
C1054 C1057 1.409 . S
C1055 H1047 0.930 . S
C1055 C1056 1.355 . S
C1055 C1057 1.415 . S
C1056 C1055 1.355 . S
C1056 C1058 1.419 . S
C1057 C1052 1.425 . S
C1057 C1054 1.409 . S
C1057 C1055 1.415 . S
C1058 H1048 0.930 . S
C1058 C1056 1.419 . S
C1058 C1059 1.362 . S
C1059 H1049 0.930 . S
C1059 C1052 1.409 . S
C1059 C1058 1.362 . S
H1060 C1066 0.930 . S
H1061 C1069 0.930 . S
H1062 C1070 0.930 . S
H1063 C1071 0.930 . S
H1064 C1074 0.930 . S
H1065 C1075 0.930 . S
C1066 H1060 0.930 . S
C1066 C1067 1.355 . S
C1066 C1068 1.415 . S
C1067 C1066 1.355 . S
C1067 C1069 1.419 . S
C1068 C1066 1.415 . S
C1068 C1073 1.425 . S
C1068 C1075 1.409 . S
C1069 H1061 0.930 . S
C1069 C1067 1.419 . S
C1069 C1070 1.362 . S
C1070 H1062 0.930 . S
C1070 C1069 1.362 . S
C1070 C1073 1.409 . S
C1071 H1063 0.930 . S
C1071 C1072 1.355 . S
C1071 C1073 1.415 . S
C1072 C1071 1.355 . S
C1072 C1074 1.419 . S
C1073 C1068 1.425 . S
C1073 C1070 1.409 . S
C1073 C1071 1.415 . S
C1074 H1064 0.930 . S
C1074 C1072 1.419 . S
C1074 C1075 1.362 . S
C1075 H1065 0.930 . S
C1075 C1068 1.409 . S
C1075 C1074 1.362 . S
H1076 C1082 0.930 . S
H1077 C1085 0.930 . S
H1078 C1086 0.988 . S
H1079 C1087 0.930 . S
H1080 C1090 0.930 . S
H1081 C1091 0.930 . S
C1082 H1076 0.930 . S
C1082 C1083 1.355 . S
C1082 C1084 1.415 . S
C1083 C1082 1.355 . S
C1083 C1085 1.419 . S
C1084 C1082 1.415 . S
C1084 C1089 1.425 . S
C1084 C1091 1.409 . S
C1085 H1077 0.930 . S
C1085 C1083 1.419 . S
C1085 C1086 1.362 . S
C1086 H1078 0.988 . S
C1086 C1085 1.362 . S
C1086 C1089 1.409 . S
C1087 H1079 0.930 . S
C1087 C1088 1.355 . S
C1087 C1089 1.415 . S
C1088 C1087 1.355 . S
C1088 C1090 1.419 . S
C1089 C1084 1.425 . S
C1089 C1086 1.409 . S
C1089 C1087 1.415 . S
C1090 H1080 0.930 . S
C1090 C1088 1.419 . S
C1090 C1091 1.362 . S
C1091 H1081 0.930 . S
C1091 C1084 1.409 . S
C1091 C1090 1.362 . S
H1092 C1098 0.930 . S
H1093 C1101 0.930 . S
H1094 C1102 0.930 . S
H1095 C1103 0.930 . S
H1096 C1106 0.930 . S
H1097 C1107 0.930 . S
C1098 H1092 0.930 . S
C1098 C1099 1.355 1_455 S
C1098 C1100 1.415 . S
C1099 C1098 1.355 1_655 S
C1099 C1101 1.419 . S
C1100 C1098 1.415 . S
C1100 C1105 1.425 . S
C1100 C1107 1.409 . S
C1101 H1093 0.930 . S
C1101 C1099 1.419 . S
C1101 C1102 1.362 1_655 S
C1102 H1094 0.930 . S
C1102 C1101 1.362 1_455 S
C1102 C1105 1.409 . S
C1103 H1095 0.930 . S
C1103 C1104 1.355 . S
C1103 C1105 1.415 . S
C1104 C1103 1.355 . S
C1104 C1106 1.419 . S
C1105 C1100 1.425 . S
C1105 C1102 1.409 . S
C1105 C1103 1.415 . S
C1106 H1096 0.930 . S
C1106 C1104 1.419 . S
C1106 C1107 1.362 . S
C1107 H1097 0.930 . S
C1107 C1100 1.409 . S
C1107 C1106 1.362 . S
H1108 C1114 0.930 . S
H1109 C1117 0.930 . S
H1110 C1118 0.930 . S
H1111 C1119 0.930 . S
H1112 C1122 0.930 . S
H1113 C1123 0.930 . S
C1114 H1108 0.930 . S
C1114 C1115 1.355 . S
C1114 C1116 1.415 . S
C1115 C1114 1.355 . S
C1115 C1117 1.419 . S
C1116 C1114 1.415 . S
C1116 C1121 1.425 . S
C1116 C1123 1.409 . S
C1117 H1109 0.930 . S
C1117 C1115 1.419 . S
C1117 C1118 1.362 . S
C1118 H1110 0.930 . S
C1118 C1117 1.362 . S
C1118 C1121 1.409 . S
C1119 H1111 0.930 . S
C1119 C1120 1.355 . S
C1119 C1121 1.415 . S
C1120 C1119 1.355 . S
C1120 C1122 1.419 . S
C1121 C1116 1.425 . S
C1121 C1118 1.409 . S
C1121 C1119 1.415 . S
C1122 H1112 0.930 . S
C1122 C1120 1.419 . S
C1122 C1123 1.362 . S
C1123 H1113 0.930 . S
C1123 C1116 1.409 . S
C1123 C1122 1.362 . S
H1124 C1130 0.930 . S
H1125 C1133 0.926 1_545 S
H1126 C1134 0.930 . S
H1127 C1135 0.930 . S
H1128 C1138 0.930 . S
H1129 C1139 0.930 . S
C1130 H1124 0.930 . S
C1130 C1131 1.355 1_565 S
C1130 C1132 1.415 . S
C1131 C1130 1.355 1_545 S
C1131 C1133 1.419 1_545 S
C1132 C1130 1.415 . S
C1132 C1137 1.425 . S
C1132 C1139 1.409 . S
C1133 H1125 0.926 1_565 S
C1133 C1131 1.419 1_565 S
C1133 C1134 1.362 . S
C1134 H1126 0.930 . S
C1134 C1133 1.362 . S
C1134 C1137 1.409 . S
C1135 H1127 0.930 . S
C1135 C1136 1.355 . S
C1135 C1137 1.415 . S
C1136 C1135 1.355 . S
C1136 C1138 1.419 . S
C1137 C1132 1.425 . S
C1137 C1134 1.409 . S
C1137 C1135 1.415 . S
C1138 H1128 0.930 . S
C1138 C1136 1.419 . S
C1138 C1139 1.362 . S
C1139 H1129 0.930 . S
C1139 C1132 1.409 . S
C1139 C1138 1.362 . S
H1140 C1146 0.930 . S
H1141 C1149 0.930 . S
H1142 C1150 0.930 . S
H1143 C1151 0.930 . S
H1144 C1154 0.930 . S
H1145 C1155 0.930 . S
C1146 H1140 0.930 . S
C1146 C1147 1.355 . S
C1146 C1148 1.415 . S
C1147 C1146 1.355 . S
C1147 C1149 1.419 . S
C1148 C1146 1.415 . S
C1148 C1153 1.425 . S
C1148 C1155 1.409 . S
C1149 H1141 0.930 . S
C1149 C1147 1.419 . S
C1149 C1150 1.362 . S
C1150 H1142 0.930 . S
C1150 C1149 1.362 . S
C1150 C1153 1.409 . S
C1151 H1143 0.930 . S
C1151 C1152 1.355 . S
C1151 C1153 1.415 . S
C1152 C1151 1.355 . S
C1152 C1154 1.419 . S
C1153 C1148 1.425 . S
C1153 C1150 1.409 . S
C1153 C1151 1.415 . S
C1154 H1144 0.930 . S
C1154 C1152 1.419 . S
C1154 C1155 1.362 . S
C1155 H1145 0.930 . S
C1155 C1148 1.409 . S
C1155 C1154 1.362 . S
H1156 C1162 0.930 . S
H1157 C1165 0.930 . S
H1158 C1166 0.930 . S
H1159 C1167 0.930 . S
H1160 C1170 0.930 . S
H1161 C1171 0.930 . S
C1162 H1156 0.930 . S
C1162 C1163 1.355 . S
C1162 C1164 1.415 . S
C1163 C1162 1.355 . S
C1163 C1165 1.419 . S
C1164 C1162 1.415 . S
C1164 C1169 1.425 . S
C1164 C1171 1.409 . S
C1165 H1157 0.930 . S
C1165 C1163 1.419 . S
C1165 C1166 1.362 . S
C1166 H1158 0.930 . S
C1166 C1165 1.362 . S
C1166 C1169 1.409 . S
C1167 H1159 0.930 . S
C1167 C1168 1.355 . S
C1167 C1169 1.415 . S
C1168 C1167 1.355 . S
C1168 C1170 1.419 . S
C1169 C1164 1.425 . S
C1169 C1166 1.409 . S
C1169 C1167 1.415 . S
C1170 H1160 0.930 . S
C1170 C1168 1.419 . S
C1170 C1171 1.362 . S
C1171 H1161 0.930 . S
C1171 C1164 1.409 . S
C1171 C1170 1.362 . S
H1172 C1178 0.930 . S
H1173 C1181 0.930 . S
H1174 C1182 0.930 . S
H1175 C1183 0.930 . S
H1176 C1186 0.930 . S
H1177 C1187 0.930 . S
C1178 H1172 0.930 . S
C1178 C1179 1.355 . S
C1178 C1180 1.415 . S
C1179 C1178 1.355 . S
C1179 C1181 1.419 . S
C1180 C1178 1.415 . S
C1180 C1185 1.425 . S
C1180 C1187 1.409 . S
C1181 H1173 0.930 . S
C1181 C1179 1.419 . S
C1181 C1182 1.362 . S
C1182 H1174 0.930 . S
C1182 C1181 1.362 . S
C1182 C1185 1.409 . S
C1183 H1175 0.930 . S
C1183 C1184 1.355 . S
C1183 C1185 1.415 . S
C1184 C1183 1.355 . S
C1184 C1186 1.419 . S
C1185 C1180 1.425 . S
C1185 C1182 1.409 . S
C1185 C1183 1.415 . S
C1186 H1176 0.930 . S
C1186 C1184 1.419 . S
C1186 C1187 1.362 . S
C1187 H1177 0.930 . S
C1187 C1180 1.409 . S
C1187 C1186 1.362 . S
H1188 C1194 0.930 . S
H1189 C1197 0.930 . S
H1190 C1198 0.930 . S
H1191 C1199 0.930 . S
H1192 C1202 0.930 . S
H1193 C1203 0.930 . S
C1194 H1188 0.930 . S
C1194 C1195 1.355 . S
C1194 C1196 1.415 . S
C1195 C1194 1.355 . S
C1195 C1197 1.419 . S
C1196 C1194 1.415 . S
C1196 C1201 1.425 . S
C1196 C1203 1.409 . S
C1197 H1189 0.930 . S
C1197 C1195 1.419 . S
C1197 C1198 1.362 . S
C1198 H1190 0.930 . S
C1198 C1197 1.362 . S
C1198 C1201 1.409 . S
C1199 H1191 0.930 . S
C1199 C1200 1.355 . S
C1199 C1201 1.415 . S
C1200 C1199 1.355 . S
C1200 C1202 1.419 . S
C1201 C1196 1.425 . S
C1201 C1198 1.409 . S
C1201 C1199 1.415 . S
C1202 H1192 0.930 . S
C1202 C1200 1.419 . S
C1202 C1203 1.362 . S
C1203 H1193 0.930 . S
C1203 C1196 1.409 . S
C1203 C1202 1.362 . S
H1204 C1210 0.930 . S
H1205 C1213 0.930 . S
H1206 C1214 0.930 . S
H1207 C1215 0.930 . S
H1208 C1218 0.930 . S
H1209 C1219 0.930 . S
C1210 H1204 0.930 . S
C1210 C1211 1.355 . S
C1210 C1212 1.415 . S
C1211 C1210 1.355 . S
C1211 C1213 1.419 . S
C1212 C1210 1.415 . S
C1212 C1217 1.425 . S
C1212 C1219 1.409 . S
C1213 H1205 0.930 . S
C1213 C1211 1.419 . S
C1213 C1214 1.362 . S
C1214 H1206 0.930 . S
C1214 C1213 1.362 . S
C1214 C1217 1.409 . S
C1215 H1207 0.930 . S
C1215 C1216 1.355 . S
C1215 C1217 1.415 . S
C1216 C1215 1.355 . S
C1216 C1218 1.419 . S
C1217 C1212 1.425 . S
C1217 C1214 1.409 . S
C1217 C1215 1.415 . S
C1218 H1208 0.930 . S
C1218 C1216 1.419 . S
C1218 C1219 1.362 . S
C1219 H1209 0.930 . S
C1219 C1212 1.409 . S
C1219 C1218 1.362 . S
H1220 C1226 0.930 . S
H1221 C1229 0.930 . S
H1222 C1230 0.930 . S
H1223 C1231 0.930 . S
H1224 C1234 0.930 . S
H1225 C1235 0.930 . S
C1226 H1220 0.930 . S
C1226 C1227 1.355 . S
C1226 C1228 1.415 . S
C1227 C1226 1.355 . S
C1227 C1229 1.419 . S
C1228 C1226 1.415 . S
C1228 C1233 1.425 . S
C1228 C1235 1.409 . S
C1229 H1221 0.930 . S
C1229 C1227 1.419 . S
C1229 C1230 1.362 . S
C1230 H1222 0.930 . S
C1230 C1229 1.362 . S
C1230 C1233 1.409 . S
C1231 H1223 0.930 . S
C1231 C1232 1.355 . S
C1231 C1233 1.415 . S
C1232 C1231 1.355 . S
C1232 C1234 1.419 . S
C1233 C1228 1.425 . S
C1233 C1230 1.409 . S
C1233 C1231 1.415 . S
C1234 H1224 0.930 . S
C1234 C1232 1.419 . S
C1234 C1235 1.362 . S
C1235 H1225 0.930 . S
C1235 C1228 1.409 . S
C1235 C1234 1.362 . S
H1236 C1242 0.930 . S
H1237 C1245 0.930 1_545 S
H1238 C1246 0.930 . S
H1239 C1247 0.930 . S
H1240 C1250 0.930 . S
H1241 C1251 0.930 . S
C1242 H1236 0.930 . S
C1242 C1243 1.355 . S
C1242 C1244 1.415 . S
C1243 C1242 1.355 . S
C1243 C1245 1.419 . S
C1244 C1242 1.415 . S
C1244 C1249 1.425 . S
C1244 C1251 1.409 . S
C1245 H1237 0.930 1_565 S
C1245 C1243 1.419 . S
C1245 C1246 1.362 . S
C1246 H1238 0.930 . S
C1246 C1245 1.362 . S
C1246 C1249 1.409 . S
C1247 H1239 0.930 . S
C1247 C1248 1.355 . S
C1247 C1249 1.415 . S
C1248 C1247 1.355 . S
C1248 C1250 1.419 . S
C1249 C1244 1.425 . S
C1249 C1246 1.409 . S
C1249 C1247 1.415 . S
C1250 H1240 0.930 . S
C1250 C1248 1.419 . S
C1250 C1251 1.362 . S
C1251 H1241 0.930 . S
C1251 C1244 1.409 . S
C1251 C1250 1.362 . S
H1252 C1258 0.930 . S
H1253 C1261 0.936 . S
H1254 C1262 0.930 . S
H1255 C1263 0.930 . S
H1256 C1266 0.930 . S
H1257 C1267 0.930 . S
C1258 H1252 0.930 . S
C1258 C1259 1.355 . S
C1258 C1260 1.415 . S
C1259 C1258 1.355 . S
C1259 C1261 1.419 . S
C1260 C1258 1.415 . S
C1260 C1265 1.425 . S
C1260 C1267 1.409 . S
C1261 H1253 0.936 . S
C1261 C1259 1.419 . S
C1261 C1262 1.362 . S
C1262 H1254 0.930 . S
C1262 C1261 1.362 . S
C1262 C1265 1.409 . S
C1263 H1255 0.930 . S
C1263 C1264 1.355 . S
C1263 C1265 1.415 . S
C1264 C1263 1.355 . S
C1264 C1266 1.419 . S
C1265 C1260 1.425 . S
C1265 C1262 1.409 . S
C1265 C1263 1.415 . S
C1266 H1256 0.930 . S
C1266 C1264 1.419 . S
C1266 C1267 1.362 . S
C1267 H1257 0.930 . S
C1267 C1260 1.409 . S
C1267 C1266 1.362 . S
H1268 C1274 0.930 . S
H1269 C1277 0.930 . S
H1270 C1278 0.930 . S
H1271 C1279 0.930 . S
H1272 C1282 0.930 . S
H1273 C1283 0.930 . S
C1274 H1268 0.930 . S
C1274 C1275 1.355 . S
C1274 C1276 1.415 . S
C1275 C1274 1.355 . S
C1275 C1277 1.419 . S
C1276 C1274 1.415 . S
C1276 C1281 1.425 . S
C1276 C1283 1.409 . S
C1277 H1269 0.930 . S
C1277 C1275 1.419 . S
C1277 C1278 1.362 . S
C1278 H1270 0.930 . S
C1278 C1277 1.362 . S
C1278 C1281 1.409 . S
C1279 H1271 0.930 . S
C1279 C1280 1.355 . S
C1279 C1281 1.415 . S
C1280 C1279 1.355 . S
C1280 C1282 1.419 . S
C1281 C1276 1.425 . S
C1281 C1278 1.409 . S
C1281 C1279 1.415 . S
C1282 H1272 0.930 . S
C1282 C1280 1.419 . S
C1282 C1283 1.362 . S
C1283 H1273 0.930 . S
C1283 C1276 1.409 . S
C1283 C1282 1.362 . S
H1284 C1290 0.930 . S
H1285 C1293 0.930 . S
H1286 C1294 0.930 . S
H1287 C1295 0.930 . S
H1288 C1298 0.930 . S
H1289 C1299 0.930 . S
C1290 H1284 0.930 . S
C1290 C1291 1.355 . S
C1290 C1292 1.415 . S
C1291 C1290 1.355 . S
C1291 C1293 1.419 . S
C1292 C1290 1.415 . S
C1292 C1297 1.425 . S
C1292 C1299 1.409 . S
C1293 H1285 0.930 . S
C1293 C1291 1.419 . S
C1293 C1294 1.362 . S
C1294 H1286 0.930 . S
C1294 C1293 1.362 . S
C1294 C1297 1.409 . S
C1295 H1287 0.930 . S
C1295 C1296 1.355 . S
C1295 C1297 1.415 . S
C1296 C1295 1.355 . S
C1296 C1298 1.419 . S
C1297 C1292 1.425 . S
C1297 C1294 1.409 . S
C1297 C1295 1.415 . S
C1298 H1288 0.930 . S
C1298 C1296 1.419 . S
C1298 C1299 1.362 . S
C1299 H1289 0.930 . S
C1299 C1292 1.409 . S
C1299 C1298 1.362 . S
H1300 C1306 0.930 . S
H1301 C1309 0.930 . S
H1302 C1310 0.930 . S
H1303 C1311 0.930 . S
H1304 C1314 0.930 . S
H1305 C1315 0.930 . S
C1306 H1300 0.930 . S
C1306 C1307 1.355 . S
C1306 C1308 1.415 . S
C1307 C1306 1.355 . S
C1307 C1309 1.419 . S
C1308 C1306 1.415 . S
C1308 C1313 1.425 . S
C1308 C1315 1.409 . S
C1309 H1301 0.930 . S
C1309 C1307 1.419 . S
C1309 C1310 1.362 . S
C1310 H1302 0.930 . S
C1310 C1309 1.362 . S
C1310 C1313 1.409 . S
C1311 H1303 0.930 . S
C1311 C1312 1.355 . S
C1311 C1313 1.415 . S
C1312 C1311 1.355 . S
C1312 C1314 1.419 . S
C1313 C1308 1.425 . S
C1313 C1310 1.409 . S
C1313 C1311 1.415 . S
C1314 H1304 0.930 . S
C1314 C1312 1.419 . S
C1314 C1315 1.362 . S
C1315 H1305 0.930 . S
C1315 C1308 1.409 . S
C1315 C1314 1.362 . S
H1316 C1322 0.930 . S
H1317 C1325 0.930 . S
H1318 C1326 0.930 . S
H1319 C1327 0.930 . S
H1320 C1330 0.930 . S
H1321 C1331 0.930 . S
C1322 H1316 0.930 . S
C1322 C1323 1.355 . S
C1322 C1324 1.415 . S
C1323 C1322 1.355 . S
C1323 C1325 1.419 . S
C1324 C1322 1.415 . S
C1324 C1329 1.425 . S
C1324 C1331 1.409 . S
C1325 H1317 0.930 . S
C1325 C1323 1.419 . S
C1325 C1326 1.362 . S
C1326 H1318 0.930 . S
C1326 C1325 1.362 . S
C1326 C1329 1.409 . S
C1327 H1319 0.930 . S
C1327 C1328 1.355 . S
C1327 C1329 1.415 . S
C1328 C1327 1.355 . S
C1328 C1330 1.419 . S
C1329 C1324 1.425 . S
C1329 C1326 1.409 . S
C1329 C1327 1.415 . S
C1330 H1320 0.930 . S
C1330 C1328 1.419 . S
C1330 C1331 1.362 . S
C1331 H1321 0.930 . S
C1331 C1324 1.409 . S
C1331 C1330 1.362 . S
H1332 C1338 0.930 . S
H1333 C1341 0.930 1_565 S
H1334 C1342 0.930 . S
H1335 C1343 0.930 . S
H1336 C1346 0.930 . S
H1337 C1347 0.930 . S
C1338 H1332 0.930 . S
C1338 C1339 1.355 . S
C1338 C1340 1.415 . S
C1339 C1338 1.355 . S
C1339 C1341 1.419 . S
C1340 C1338 1.415 . S
C1340 C1345 1.425 . S
C1340 C1347 1.409 . S
C1341 H1333 0.930 1_545 S
C1341 C1339 1.419 . S
C1341 C1342 1.362 . S
C1342 H1334 0.930 . S
C1342 C1341 1.362 . S
C1342 C1345 1.409 . S
C1343 H1335 0.930 . S
C1343 C1344 1.355 . S
C1343 C1345 1.415 . S
C1344 C1343 1.355 . S
C1344 C1346 1.419 . S
C1345 C1340 1.425 . S
C1345 C1342 1.409 . S
C1345 C1343 1.415 . S
C1346 H1336 0.930 . S
C1346 C1344 1.419 . S
C1346 C1347 1.362 . S
C1347 H1337 0.930 . S
C1347 C1340 1.409 . S
C1347 C1346 1.362 . S
H1348 C1354 0.930 . S
H1349 C1357 0.932 . S
H1350 C1358 0.930 . S
H1351 C1359 0.930 . S
H1352 C1362 0.930 . S
H1353 C1363 0.930 . S
C1354 H1348 0.930 . S
C1354 C1355 1.355 . S
C1354 C1356 1.415 . S
C1355 C1354 1.355 . S
C1355 C1357 1.419 . S
C1356 C1354 1.415 . S
C1356 C1361 1.425 . S
C1356 C1363 1.409 . S
C1357 H1349 0.932 . S
C1357 C1355 1.419 . S
C1357 C1358 1.362 . S
C1358 H1350 0.930 . S
C1358 C1357 1.362 . S
C1358 C1361 1.409 . S
C1359 H1351 0.930 . S
C1359 C1360 1.355 . S
C1359 C1361 1.415 . S
C1360 C1359 1.355 . S
C1360 C1362 1.419 . S
C1361 C1356 1.425 . S
C1361 C1358 1.409 . S
C1361 C1359 1.415 . S
C1362 H1352 0.930 . S
C1362 C1360 1.419 . S
C1362 C1363 1.362 . S
C1363 H1353 0.930 . S
C1363 C1356 1.409 . S
C1363 C1362 1.362 . S
H1364 C1370 0.930 . S
H1365 C1373 0.930 . S
H1366 C1374 0.930 . S
H1367 C1375 0.930 . S
H1368 C1378 0.930 . S
H1369 C1379 0.930 . S
C1370 H1364 0.930 . S
C1370 C1371 1.355 . S
C1370 C1372 1.415 . S
C1371 C1370 1.355 . S
C1371 C1373 1.419 . S
C1372 C1370 1.415 . S
C1372 C1377 1.425 . S
C1372 C1379 1.409 . S
C1373 H1365 0.930 . S
C1373 C1371 1.419 . S
C1373 C1374 1.362 . S
C1374 H1366 0.930 . S
C1374 C1373 1.362 . S
C1374 C1377 1.409 . S
C1375 H1367 0.930 . S
C1375 C1376 1.355 . S
C1375 C1377 1.415 . S
C1376 C1375 1.355 . S
C1376 C1378 1.419 . S
C1377 C1372 1.425 . S
C1377 C1374 1.409 . S
C1377 C1375 1.415 . S
C1378 H1368 0.930 . S
C1378 C1376 1.419 . S
C1378 C1379 1.362 . S
C1379 H1369 0.930 . S
C1379 C1372 1.409 . S
C1379 C1378 1.362 . S
H1380 C1386 0.930 . S
H1381 C1389 0.930 1_455 S
H1382 C1390 0.930 . S
H1383 C1391 0.930 . S
H1384 C1394 0.930 . S
H1385 C1395 0.930 . S
C1386 H1380 0.930 . S
C1386 C1387 1.355 1_655 S
C1386 C1388 1.415 . S
C1387 C1386 1.355 1_455 S
C1387 C1389 1.419 1_455 S
C1388 C1386 1.415 . S
C1388 C1393 1.425 . S
C1388 C1395 1.409 . S
C1389 H1381 0.930 1_655 S
C1389 C1387 1.419 1_655 S
C1389 C1390 1.362 . S
C1390 H1382 0.930 . S
C1390 C1389 1.362 . S
C1390 C1393 1.409 . S
C1391 H1383 0.930 . S
C1391 C1392 1.355 . S
C1391 C1393 1.415 . S
C1392 C1391 1.355 . S
C1392 C1394 1.419 . S
C1393 C1388 1.425 . S
C1393 C1390 1.409 . S
C1393 C1391 1.415 . S
C1394 H1384 0.930 . S
C1394 C1392 1.419 . S
C1394 C1395 1.362 . S
C1395 H1385 0.930 . S
C1395 C1388 1.409 . S
C1395 C1394 1.362 . S
H1396 C1402 0.930 . S
H1397 C1405 0.930 . S
H1398 C1406 0.930 . S
H1399 C1407 0.930 . S
H1400 C1410 0.930 . S
H1401 C1411 0.930 . S
C1402 H1396 0.930 . S
C1402 C1403 1.355 . S
C1402 C1404 1.415 . S
C1403 C1402 1.355 . S
C1403 C1405 1.419 . S
C1404 C1402 1.415 . S
C1404 C1409 1.425 . S
C1404 C1411 1.409 . S
C1405 H1397 0.930 . S
C1405 C1403 1.419 . S
C1405 C1406 1.362 . S
C1406 H1398 0.930 . S
C1406 C1405 1.362 . S
C1406 C1409 1.409 . S
C1407 H1399 0.930 . S
C1407 C1408 1.355 . S
C1407 C1409 1.415 . S
C1408 C1407 1.355 . S
C1408 C1410 1.419 . S
C1409 C1404 1.425 . S
C1409 C1406 1.409 . S
C1409 C1407 1.415 . S
C1410 H1400 0.930 . S
C1410 C1408 1.419 . S
C1410 C1411 1.362 . S
C1411 H1401 0.930 . S
C1411 C1404 1.409 . S
C1411 C1410 1.362 . S
H1412 C1418 0.930 . S
H1413 C1421 0.930 . S
H1414 C1422 0.930 . S
H1415 C1423 0.930 . S
H1416 C1426 0.930 . S
H1417 C1427 0.930 . S
C1418 H1412 0.930 . S
C1418 C1419 1.355 . S
C1418 C1420 1.415 . S
C1419 C1418 1.355 . S
C1419 C1421 1.419 . S
C1420 C1418 1.415 . S
C1420 C1425 1.425 . S
C1420 C1427 1.409 . S
C1421 H1413 0.930 . S
C1421 C1419 1.419 . S
C1421 C1422 1.362 . S
C1422 H1414 0.930 . S
C1422 C1421 1.362 . S
C1422 C1425 1.409 . S
C1423 H1415 0.930 . S
C1423 C1424 1.355 . S
C1423 C1425 1.415 . S
C1424 C1423 1.355 . S
C1424 C1426 1.419 . S
C1425 C1420 1.425 . S
C1425 C1422 1.409 . S
C1425 C1423 1.415 . S
C1426 H1416 0.930 . S
C1426 C1424 1.419 . S
C1426 C1427 1.362 . S
C1427 H1417 0.930 . S
C1427 C1420 1.409 . S
C1427 C1426 1.362 . S
H1428 C1434 0.930 . S
H1429 C1437 0.930 . S
H1430 C1438 0.930 . S
H1431 C1439 0.930 . S
H1432 C1442 0.930 . S
H1433 C1443 0.930 . S
C1434 H1428 0.930 . S
C1434 C1435 1.355 . S
C1434 C1436 1.415 . S
C1435 C1434 1.355 . S
C1435 C1437 1.419 . S
C1436 C1434 1.415 . S
C1436 C1441 1.425 . S
C1436 C1443 1.409 . S
C1437 H1429 0.930 . S
C1437 C1435 1.419 . S
C1437 C1438 1.362 . S
C1438 H1430 0.930 . S
C1438 C1437 1.362 . S
C1438 C1441 1.409 . S
C1439 H1431 0.930 . S
C1439 C1440 1.355 . S
C1439 C1441 1.415 . S
C1440 C1439 1.355 . S
C1440 C1442 1.419 . S
C1441 C1436 1.425 . S
C1441 C1438 1.409 . S
C1441 C1439 1.415 . S
C1442 H1432 0.930 . S
C1442 C1440 1.419 . S
C1442 C1443 1.362 . S
C1443 H1433 0.930 . S
C1443 C1436 1.409 . S
C1443 C1442 1.362 . S
H1444 C1450 0.930 . S
H1445 C1453 0.930 . S
H1446 C1454 0.930 . S
H1447 C1455 0.930 . S
H1448 C1458 0.930 . S
H1449 C1459 0.930 . S
C1450 H1444 0.930 . S
C1450 C1451 1.355 . S
C1450 C1452 1.415 . S
C1451 C1450 1.355 . S
C1451 C1453 1.419 . S
C1452 C1450 1.415 . S
C1452 C1457 1.425 . S
C1452 C1459 1.409 . S
C1453 H1445 0.930 . S
C1453 C1451 1.419 . S
C1453 C1454 1.362 . S
C1454 H1446 0.930 . S
C1454 C1453 1.362 . S
C1454 C1457 1.409 . S
C1455 H1447 0.930 . S
C1455 C1456 1.355 . S
C1455 C1457 1.415 . S
C1456 C1455 1.355 . S
C1456 C1458 1.419 . S
C1457 C1452 1.425 . S
C1457 C1454 1.409 . S
C1457 C1455 1.415 . S
C1458 H1448 0.930 . S
C1458 C1456 1.419 . S
C1458 C1459 1.362 . S
C1459 H1449 0.930 . S
C1459 C1452 1.409 . S
C1459 C1458 1.362 . S
H1460 C1466 0.930 . S
H1461 C1469 0.930 . S
H1462 C1470 0.930 . S
H1463 C1471 0.930 . S
H1464 C1474 0.930 . S
H1465 C1475 0.930 . S
C1466 H1460 0.930 . S
C1466 C1467 1.355 . S
C1466 C1468 1.415 . S
C1467 C1466 1.355 . S
C1467 C1469 1.419 . S
C1468 C1466 1.415 . S
C1468 C1473 1.425 . S
C1468 C1475 1.409 . S
C1469 H1461 0.930 . S
C1469 C1467 1.419 . S
C1469 C1470 1.362 . S
C1470 H1462 0.930 . S
C1470 C1469 1.362 . S
C1470 C1473 1.409 . S
C1471 H1463 0.930 . S
C1471 C1472 1.355 . S
C1471 C1473 1.415 . S
C1472 C1471 1.355 . S
C1472 C1474 1.419 . S
C1473 C1468 1.425 . S
C1473 C1470 1.409 . S
C1473 C1471 1.415 . S
C1474 H1464 0.930 . S
C1474 C1472 1.419 . S
C1474 C1475 1.362 . S
C1475 H1465 0.930 . S
C1475 C1468 1.409 . S
C1475 C1474 1.362 . S
H1476 C1482 0.930 1_545 S
H1477 C1485 0.930 . S
H1478 C1486 0.930 . S
H1479 C1487 0.930 . S
H1480 C1490 0.930 . S
H1481 C1491 0.930 . S
C1482 H1476 0.930 1_565 S
C1482 C1483 1.355 . S
C1482 C1484 1.415 . S
C1483 C1482 1.355 . S
C1483 C1485 1.419 . S
C1484 C1482 1.415 . S
C1484 C1489 1.425 . S
C1484 C1491 1.409 1_565 S
C1485 H1477 0.930 . S
C1485 C1483 1.419 . S
C1485 C1486 1.362 . S
C1486 H1478 0.930 . S
C1486 C1485 1.362 . S
C1486 C1489 1.409 . S
C1487 H1479 0.930 . S
C1487 C1488 1.355 . S
C1487 C1489 1.415 . S
C1488 C1487 1.355 . S
C1488 C1490 1.419 1_565 S
C1489 C1484 1.425 . S
C1489 C1486 1.409 . S
C1489 C1487 1.415 . S
C1490 H1480 0.930 . S
C1490 C1488 1.419 1_545 S
C1490 C1491 1.362 . S
C1491 H1481 0.930 . S
C1491 C1484 1.409 1_545 S
C1491 C1490 1.362 . S
H1492 C1498 0.930 . S
H1493 C1501 0.930 . S
H1494 C1502 0.930 . S
H1495 C1503 0.930 . S
H1496 C1506 0.930 . S
H1497 C1507 0.930 . S
C1498 H1492 0.930 . S
C1498 C1499 1.355 . S
C1498 C1500 1.415 . S
C1499 C1498 1.355 . S
C1499 C1501 1.419 1_455 S
C1500 C1498 1.415 . S
C1500 C1505 1.425 . S
C1500 C1507 1.409 . S
C1501 H1493 0.930 . S
C1501 C1499 1.419 1_655 S
C1501 C1502 1.362 . S
C1502 H1494 0.930 . S
C1502 C1501 1.362 . S
C1502 C1505 1.409 1_655 S
C1503 H1495 0.930 . S
C1503 C1504 1.355 1_655 S
C1503 C1505 1.415 1_655 S
C1504 C1503 1.355 1_455 S
C1504 C1506 1.419 . S
C1505 C1500 1.425 . S
C1505 C1502 1.409 1_455 S
C1505 C1503 1.415 1_455 S
C1506 H1496 0.930 . S
C1506 C1504 1.419 . S
C1506 C1507 1.362 . S
C1507 H1497 0.930 . S
C1507 C1500 1.409 . S
C1507 C1506 1.362 . S
H1508 C1514 0.930 . S
H1509 C1517 0.930 . S
H1510 C1518 0.930 . S
H1511 C1519 0.930 . S
H1512 C1522 0.930 . S
H1513 C1523 0.930 . S
C1514 H1508 0.930 . S
C1514 C1515 1.355 . S
C1514 C1516 1.415 . S
C1515 C1514 1.355 . S
C1515 C1517 1.419 . S
C1516 C1514 1.415 . S
C1516 C1521 1.425 . S
C1516 C1523 1.409 . S
C1517 H1509 0.930 . S
C1517 C1515 1.419 . S
C1517 C1518 1.362 . S
C1518 H1510 0.930 . S
C1518 C1517 1.362 . S
C1518 C1521 1.409 . S
C1519 H1511 0.930 . S
C1519 C1520 1.355 . S
C1519 C1521 1.415 . S
C1520 C1519 1.355 . S
C1520 C1522 1.419 . S
C1521 C1516 1.425 . S
C1521 C1518 1.409 . S
C1521 C1519 1.415 . S
C1522 H1512 0.930 . S
C1522 C1520 1.419 . S
C1522 C1523 1.362 . S
C1523 H1513 0.930 . S
C1523 C1516 1.409 . S
C1523 C1522 1.362 . S
H1524 C1530 0.930 . S
H1525 C1533 0.930 . S
H1526 C1534 0.930 . S
H1527 C1535 0.930 . S
H1528 C1538 0.930 . S
H1529 C1539 0.930 . S
C1530 H1524 0.930 . S
C1530 C1531 1.355 . S
C1530 C1532 1.415 . S
C1531 C1530 1.355 . S
C1531 C1533 1.419 1_655 S
C1532 C1530 1.415 . S
C1532 C1537 1.426 . S
C1532 C1539 1.409 . S
C1533 H1525 0.930 . S
C1533 C1531 1.419 1_455 S
C1533 C1534 1.362 . S
C1534 H1526 0.930 . S
C1534 C1533 1.362 . S
C1534 C1537 1.408 1_455 S
C1535 H1527 0.930 . S
C1535 C1536 1.355 1_455 S
C1535 C1537 1.414 1_455 S
C1536 C1535 1.355 1_655 S
C1536 C1538 1.419 . S
C1537 C1532 1.426 . S
C1537 C1534 1.408 1_655 S
C1537 C1535 1.414 1_655 S
C1538 H1528 0.930 . S
C1538 C1536 1.419 . S
C1538 C1539 1.362 . S
C1539 H1529 0.930 . S
C1539 C1532 1.409 . S
C1539 C1538 1.362 . S
H1540 C1546 0.930 . S
H1541 C1549 0.930 . S
H1542 C1550 0.930 . S
H1543 C1551 0.930 . S
H1544 C1554 0.930 . S
H1545 C1555 0.930 . S
C1546 H1540 0.930 . S
C1546 C1547 1.355 . S
C1546 C1548 1.415 . S
C1547 C1546 1.355 . S
C1547 C1549 1.419 . S
C1548 C1546 1.415 . S
C1548 C1553 1.425 . S
C1548 C1555 1.409 . S
C1549 H1541 0.930 . S
C1549 C1547 1.419 . S
C1549 C1550 1.362 . S
C1550 H1542 0.930 . S
C1550 C1549 1.362 . S
C1550 C1553 1.409 . S
C1551 H1543 0.930 . S
C1551 C1552 1.355 . S
C1551 C1553 1.415 . S
C1552 C1551 1.355 . S
C1552 C1554 1.419 . S
C1553 C1548 1.425 . S
C1553 C1550 1.409 . S
C1553 C1551 1.415 . S
C1554 H1544 0.930 . S
C1554 C1552 1.419 . S
C1554 C1555 1.362 . S
C1555 H1545 0.930 . S
C1555 C1548 1.409 . S
C1555 C1554 1.362 . S
H1556 C1562 0.930 . S
H1557 C1565 0.930 . S
H1558 C1566 0.930 . S
H1559 C1567 0.930 . S
H1560 C1570 0.930 . S
H1561 C1571 0.930 . S
C1562 H1556 0.930 . S
C1562 C1563 1.355 . S
C1562 C1564 1.415 . S
C1563 C1562 1.355 . S
C1563 C1565 1.419 . S
C1564 C1562 1.415 . S
C1564 C1569 1.425 . S
C1564 C1571 1.409 1_545 S
C1565 H1557 0.930 . S
C1565 C1563 1.419 . S
C1565 C1566 1.362 . S
C1566 H1558 0.930 . S
C1566 C1565 1.362 . S
C1566 C1569 1.409 . S
C1567 H1559 0.930 . S
C1567 C1568 1.355 . S
C1567 C1569 1.415 . S
C1568 C1567 1.355 . S
C1568 C1570 1.419 1_545 S
C1569 C1564 1.425 . S
C1569 C1566 1.409 . S
C1569 C1567 1.415 . S
C1570 H1560 0.930 . S
C1570 C1568 1.419 1_565 S
C1570 C1571 1.362 . S
C1571 H1561 0.930 . S
C1571 C1564 1.409 1_565 S
C1571 C1570 1.362 . S
H1572 C1578 0.930 . S
H1573 C1581 0.930 . S
H1574 C1582 0.930 . S
H1575 C1583 0.930 . S
H1576 C1586 0.930 . S
H1577 C1587 0.930 . S
C1578 H1572 0.930 . S
C1578 C1579 1.355 . S
C1578 C1580 1.415 . S
C1579 C1578 1.355 . S
C1579 C1581 1.419 . S
C1580 C1578 1.415 . S
C1580 C1585 1.425 . S
C1580 C1587 1.409 . S
C1581 H1573 0.930 . S
C1581 C1579 1.419 . S
C1581 C1582 1.362 . S
C1582 H1574 0.930 . S
C1582 C1581 1.362 . S
C1582 C1585 1.409 . S
C1583 H1575 0.930 . S
C1583 C1584 1.355 . S
C1583 C1585 1.415 . S
C1584 C1583 1.355 . S
C1584 C1586 1.419 . S
C1585 C1580 1.425 . S
C1585 C1582 1.409 . S
C1585 C1583 1.415 . S
C1586 H1576 0.930 . S
C1586 C1584 1.419 . S
C1586 C1587 1.362 . S
C1587 H1577 0.930 . S
C1587 C1580 1.409 . S
C1587 C1586 1.362 . S
H1588 C1594 0.930 . S
H1589 C1597 0.930 . S
H1590 C1598 0.930 . S
H1591 C1599 0.930 . S
H1592 C1602 0.930 . S
H1593 C1603 0.930 . S
C1594 H1588 0.930 . S
C1594 C1595 1.355 . S
C1594 C1596 1.415 . S
C1595 C1594 1.355 . S
C1595 C1597 1.419 . S
C1596 C1594 1.415 . S
C1596 C1601 1.425 . S
C1596 C1603 1.409 . S
C1597 H1589 0.930 . S
C1597 C1595 1.419 . S
C1597 C1598 1.362 . S
C1598 H1590 0.930 . S
C1598 C1597 1.362 . S
C1598 C1601 1.409 . S
C1599 H1591 0.930 . S
C1599 C1600 1.355 . S
C1599 C1601 1.415 . S
C1600 C1599 1.355 . S
C1600 C1602 1.419 . S
C1601 C1596 1.425 . S
C1601 C1598 1.409 . S
C1601 C1599 1.415 . S
C1602 H1592 0.930 . S
C1602 C1600 1.419 . S
C1602 C1603 1.362 . S
C1603 H1593 0.930 . S
C1603 C1596 1.409 . S
C1603 C1602 1.362 . S
H1604 C1610 0.930 . S
H1605 C1613 0.930 . S
H1606 C1614 0.930 . S
H1607 C1615 0.930 . S
H1608 C1618 0.930 . S
H1609 C1619 0.930 . S
C1610 H1604 0.930 . S
C1610 C1611 1.355 . S
C1610 C1612 1.415 . S
C1611 C1610 1.355 . S
C1611 C1613 1.419 . S
C1612 C1610 1.415 . S
C1612 C1617 1.425 . S
C1612 C1619 1.409 . S
C1613 H1605 0.930 . S
C1613 C1611 1.419 . S
C1613 C1614 1.362 . S
C1614 H1606 0.930 . S
C1614 C1613 1.362 . S
C1614 C1617 1.409 . S
C1615 H1607 0.930 . S
C1615 C1616 1.355 . S
C1615 C1617 1.415 . S
C1616 C1615 1.355 . S
C1616 C1618 1.419 . S
C1617 C1612 1.425 . S
C1617 C1614 1.409 . S
C1617 C1615 1.415 . S
C1618 H1608 0.930 . S
C1618 C1616 1.419 . S
C1618 C1619 1.362 . S
C1619 H1609 0.930 . S
C1619 C1612 1.409 . S
C1619 C1618 1.362 . S
H1620 C1626 0.930 . S
H1621 C1629 0.930 . S
H1622 C1630 0.930 . S
H1623 C1631 0.930 . S
H1624 C1634 0.930 . S
H1625 C1635 0.930 . S
C1626 H1620 0.930 . S
C1626 C1627 1.355 . S
C1626 C1628 1.415 . S
C1627 C1626 1.355 . S
C1627 C1629 1.419 . S
C1628 C1626 1.415 . S
C1628 C1633 1.425 . S
C1628 C1635 1.409 . S
C1629 H1621 0.930 . S
C1629 C1627 1.419 . S
C1629 C1630 1.362 . S
C1630 H1622 0.930 . S
C1630 C1629 1.362 . S
C1630 C1633 1.409 . S
C1631 H1623 0.930 . S
C1631 C1632 1.355 . S
C1631 C1633 1.415 . S
C1632 C1631 1.355 . S
C1632 C1634 1.419 . S
C1633 C1628 1.425 . S
C1633 C1630 1.409 . S
C1633 C1631 1.415 . S
C1634 H1624 0.930 . S
C1634 C1632 1.419 . S
C1634 C1635 1.362 . S
C1635 H1625 0.930 . S
C1635 C1628 1.409 . S
C1635 C1634 1.362 . S
H1636 C1642 0.930 . S
H1637 C1645 0.930 . S
H1638 C1646 0.930 . S
H1639 C1647 0.930 . S
H1640 C1650 0.930 . S
H1641 C1651 0.930 . S
C1642 H1636 0.930 . S
C1642 C1643 1.355 . S
C1642 C1644 1.415 . S
C1643 C1642 1.355 . S
C1643 C1645 1.419 . S
C1644 C1642 1.415 . S
C1644 C1649 1.425 . S
C1644 C1651 1.409 . S
C1645 H1637 0.930 . S
C1645 C1643 1.419 . S
C1645 C1646 1.362 . S
C1646 H1638 0.930 . S
C1646 C1645 1.362 . S
C1646 C1649 1.409 . S
C1647 H1639 0.930 . S
C1647 C1648 1.355 . S
C1647 C1649 1.415 . S
C1648 C1647 1.355 . S
C1648 C1650 1.419 . S
C1649 C1644 1.425 . S
C1649 C1646 1.409 . S
C1649 C1647 1.415 . S
C1650 H1640 0.930 . S
C1650 C1648 1.419 . S
C1650 C1651 1.362 . S
C1651 H1641 0.930 . S
C1651 C1644 1.409 . S
C1651 C1650 1.362 . S
H1652 C1658 0.930 . S
H1653 C1661 0.930 . S
H1654 C1662 0.930 . S
H1655 C1663 0.930 . S
H1656 C1666 0.930 . S
H1657 C1667 0.930 . S
C1658 H1652 0.930 . S
C1658 C1659 1.355 . S
C1658 C1660 1.415 . S
C1659 C1658 1.355 . S
C1659 C1661 1.419 . S
C1660 C1658 1.415 . S
C1660 C1665 1.425 . S
C1660 C1667 1.409 . S
C1661 H1653 0.930 . S
C1661 C1659 1.419 . S
C1661 C1662 1.362 . S
C1662 H1654 0.930 . S
C1662 C1661 1.362 . S
C1662 C1665 1.409 . S
C1663 H1655 0.930 . S
C1663 C1664 1.355 . S
C1663 C1665 1.415 . S
C1664 C1663 1.355 . S
C1664 C1666 1.419 . S
C1665 C1660 1.425 . S
C1665 C1662 1.409 . S
C1665 C1663 1.415 . S
C1666 H1656 0.930 . S
C1666 C1664 1.419 . S
C1666 C1667 1.362 . S
C1667 H1657 0.930 . S
C1667 C1660 1.409 . S
C1667 C1666 1.362 . S
H1668 C1674 0.930 . S
H1669 C1677 0.930 . S
H1670 C1678 0.930 . S
H1671 C1679 0.930 . S
H1672 C1682 0.930 . S
H1673 C1683 0.930 . S
C1674 H1668 0.930 . S
C1674 C1675 1.355 . S
C1674 C1676 1.415 . S
C1675 C1674 1.355 . S
C1675 C1677 1.419 . S
C1676 C1674 1.415 . S
C1676 C1681 1.425 . S
C1676 C1683 1.409 . S
C1677 H1669 0.930 . S
C1677 C1675 1.419 . S
C1677 C1678 1.362 . S
C1678 H1670 0.930 . S
C1678 C1677 1.362 . S
C1678 C1681 1.409 . S
C1679 H1671 0.930 . S
C1679 C1680 1.355 . S
C1679 C1681 1.415 . S
C1680 C1679 1.355 . S
C1680 C1682 1.419 . S
C1681 C1676 1.425 . S
C1681 C1678 1.409 . S
C1681 C1679 1.415 . S
C1682 H1672 0.930 . S
C1682 C1680 1.419 . S
C1682 C1683 1.362 . S
C1683 H1673 0.930 . S
C1683 C1676 1.409 . S
C1683 C1682 1.362 . S
H1684 C1690 0.930 . S
H1685 C1693 0.930 . S
H1686 C1694 0.930 . S
H1687 C1695 0.930 . S
H1688 C1698 0.930 . S
H1689 C1699 0.930 . S
C1690 H1684 0.930 . S
C1690 C1691 1.355 . S
C1690 C1692 1.415 . S
C1691 C1690 1.355 . S
C1691 C1693 1.419 . S
C1692 C1690 1.415 . S
C1692 C1697 1.425 . S
C1692 C1699 1.409 . S
C1693 H1685 0.930 . S
C1693 C1691 1.419 . S
C1693 C1694 1.362 . S
C1694 H1686 0.930 . S
C1694 C1693 1.362 . S
C1694 C1697 1.409 . S
C1695 H1687 0.930 . S
C1695 C1696 1.355 . S
C1695 C1697 1.415 . S
C1696 C1695 1.355 . S
C1696 C1698 1.419 . S
C1697 C1692 1.425 . S
C1697 C1694 1.409 . S
C1697 C1695 1.415 . S
C1698 H1688 0.930 . S
C1698 C1696 1.419 . S
C1698 C1699 1.362 . S
C1699 H1689 0.930 . S
C1699 C1692 1.409 . S
C1699 C1698 1.362 . S
H1700 C1706 0.930 . S
H1701 C1709 0.930 . S
H1702 C1710 0.930 . S
H1703 C1711 0.930 . S
H1704 C1714 0.930 . S
H1705 C1715 0.930 . S
C1706 H1700 0.930 . S
C1706 C1707 1.355 . S
C1706 C1708 1.415 . S
C1707 C1706 1.355 . S
C1707 C1709 1.419 . S
C1708 C1706 1.415 . S
C1708 C1713 1.425 . S
C1708 C1715 1.409 . S
C1709 H1701 0.930 . S
C1709 C1707 1.419 . S
C1709 C1710 1.362 . S
C1710 H1702 0.930 . S
C1710 C1709 1.362 . S
C1710 C1713 1.409 . S
C1711 H1703 0.930 . S
C1711 C1712 1.355 . S
C1711 C1713 1.415 . S
C1712 C1711 1.355 . S
C1712 C1714 1.419 . S
C1713 C1708 1.425 . S
C1713 C1710 1.409 . S
C1713 C1711 1.415 . S
C1714 H1704 0.930 . S
C1714 C1712 1.419 . S
C1714 C1715 1.362 . S
C1715 H1705 0.930 . S
C1715 C1708 1.409 . S
C1715 C1714 1.362 . S
H1716 C1722 0.930 . S
H1717 C1725 0.930 . S
H1718 C1726 0.930 . S
H1719 C1727 0.930 . S
H1720 C1730 0.930 . S
H1721 C1731 0.930 . S
C1722 H1716 0.930 . S
C1722 C1723 1.355 . S
C1722 C1724 1.415 . S
C1723 C1722 1.355 . S
C1723 C1725 1.419 . S
C1724 C1722 1.415 . S
C1724 C1729 1.425 . S
C1724 C1731 1.409 . S
C1725 H1717 0.930 . S
C1725 C1723 1.419 . S
C1725 C1726 1.362 . S
C1726 H1718 0.930 . S
C1726 C1725 1.362 . S
C1726 C1729 1.409 . S
C1727 H1719 0.930 . S
C1727 C1728 1.355 . S
C1727 C1729 1.415 . S
C1728 C1727 1.355 . S
C1728 C1730 1.419 . S
C1729 C1724 1.425 . S
C1729 C1726 1.409 . S
C1729 C1727 1.415 . S
C1730 H1720 0.930 . S
C1730 C1728 1.419 . S
C1730 C1731 1.362 . S
C1731 H1721 0.930 . S
C1731 C1724 1.409 . S
C1731 C1730 1.362 . S
H1732 C1738 0.930 . S
H1733 C1741 0.930 . S
H1734 C1742 0.930 . S
H1735 C1743 0.930 . S
H1736 C1746 0.930 . S
H1737 C1747 0.930 . S
C1738 H1732 0.930 . S
C1738 C1739 1.355 . S
C1738 C1740 1.415 . S
C1739 C1738 1.355 . S
C1739 C1741 1.419 . S
C1740 C1738 1.415 . S
C1740 C1745 1.425 . S
C1740 C1747 1.409 . S
C1741 H1733 0.930 . S
C1741 C1739 1.419 . S
C1741 C1742 1.362 . S
C1742 H1734 0.930 . S
C1742 C1741 1.362 . S
C1742 C1745 1.409 . S
C1743 H1735 0.930 . S
C1743 C1744 1.355 . S
C1743 C1745 1.415 . S
C1744 C1743 1.355 . S
C1744 C1746 1.419 . S
C1745 C1740 1.425 . S
C1745 C1742 1.409 . S
C1745 C1743 1.415 . S
C1746 H1736 0.930 . S
C1746 C1744 1.419 . S
C1746 C1747 1.362 . S
C1747 H1737 0.930 . S
C1747 C1740 1.409 . S
C1747 C1746 1.362 . S
H1748 C1754 0.930 . S
H1749 C1757 0.930 . S
H1750 C1758 0.930 . S
H1751 C1759 0.930 . S
H1752 C1762 0.930 . S
H1753 C1763 0.930 . S
C1754 H1748 0.930 . S
C1754 C1755 1.355 . S
C1754 C1756 1.415 . S
C1755 C1754 1.355 . S
C1755 C1757 1.419 . S
C1756 C1754 1.415 . S
C1756 C1761 1.425 . S
C1756 C1763 1.409 . S
C1757 H1749 0.930 . S
C1757 C1755 1.419 . S
C1757 C1758 1.362 . S
C1758 H1750 0.930 . S
C1758 C1757 1.362 . S
C1758 C1761 1.409 . S
C1759 H1751 0.930 . S
C1759 C1760 1.355 . S
C1759 C1761 1.415 . S
C1760 C1759 1.355 . S
C1760 C1762 1.419 . S
C1761 C1756 1.425 . S
C1761 C1758 1.409 . S
C1761 C1759 1.415 . S
C1762 H1752 0.930 . S
C1762 C1760 1.419 . S
C1762 C1763 1.362 . S
C1763 H1753 0.930 . S
C1763 C1756 1.409 . S
C1763 C1762 1.362 . S
C907 C522 1.597 . S
C912 C726 1.547 . S
C923 C562 1.536 . S
C928 C746 1.471 . S
C939 C495 1.624 . S
C944 C769 1.623 . S
C955 C455 1.473 . S
C960 C749 1.468 . S
C976 C766 1.462 . S
C971 C362 1.438 . S
C987 C402 1.540 . S
C992 C729 1.517 . S
C1008 C736 1.566 . S
C1003 C442 1.532 . S
C1024 C756 1.440 . S
C1019 C375 1.496 . S
C1035 C415 1.617 . S
C1040 C761 1.610 . S
C1051 C535 1.507 . S
C1056 C741 1.500 . S
C1067 C575 1.414 . S
C1072 C776 1.406 . S
C1088 C721 1.546 . S
C1083 C482 1.506 . S
C1104 C786 1.600 . S
C1099 C42 1.607 . S
C1115 C82 1.526 . S
C1120 C806 1.489 . S
C1131 C15 1.574 . S
C1136 C829 1.573 . S
C1147 C695 1.506 . S
C1152 C809 1.506 . S
C1163 C602 1.449 . S
C1168 C826 1.461 . S
C1179 C642 1.539 . S
C1184 C789 1.529 . S
C1195 C682 1.596 . S
C1200 C796 1.599 . S
C1211 C615 1.519 . S
C1216 C816 1.497 . S
C1232 C821 1.578 . S
C1227 C655 1.588 . S
C1243 C55 1.511 1_565 S
C1248 C801 1.507 . S
C1264 C836 1.437 . S
C1259 C95 1.445 1_455 S
C1275 C2 1.452 . S
C1280 C781 1.508 . S
C1296 C846 1.543 . S
C1291 C282 1.599 . S
C1307 C322 1.537 . S
C1312 C866 1.463 . S
C1328 C889 1.614 . S
C1323 C255 1.614 . S
C1344 C869 1.510 . S
C1339 C215 1.513 1_545 S
C1360 C886 1.443 . S
C1355 C122 1.465 1_655 S
C1371 C162 1.519 . S
C1376 C849 1.499 . S
C1387 C202 1.601 . S
C1392 C856 1.622 . S
C1403 C135 1.495 . S
C1408 C876 1.467 . S
C1424 C881 1.583 . S
C1419 C175 1.591 1_545 S
C1435 C295 1.514 . S
C1440 C861 1.509 . S
C1451 C335 1.427 . S
C1456 C896 1.433 . S
C1467 C242 1.526 . S
C1472 C841 1.553 . S
C1483 C621 1.283 . S
C1488 C739 1.212 1_565 S
C1504 C759 1.666 . S
C1499 C661 1.720 . S
C1515 C701 1.528 . S
C1520 C768 1.532 . S
C1531 C261 1.703 . S
C1536 C748 1.678 1_655 S
C1547 C301 1.540 . S
C1552 C779 1.510 . S
C1568 C728 1.209 . S
C1563 C341 1.277 . S
C1579 C141 1.267 . S
C1584 C799 1.281 . S
C1595 C181 1.715 . S
C1600 C819 1.590 . S
C1611 C221 1.540 . S
C1616 C828 1.525 . S
C1627 C501 1.642 . S
C1632 C808 1.627 . S
C1648 C839 1.451 . S
C1643 C541 1.530 . S
C1659 C581 1.280 . S
C1664 C788 1.196 . S
C1675 C381 1.277 . S
C1680 C859 1.264 . S
C1691 C421 1.723 . S
C1696 C879 1.668 . S
C1712 C888 1.529 . S
C1707 C461 1.541 . S
C1723 C21 1.642 . S
C1728 C868 1.614 . S
C1739 C61 1.545 . S
C1744 C899 1.477 . S
C1755 C101 1.268 . S
C1760 C848 1.213 . S
