# Generated by pormake.
# Topology fgl, (4,4)-cn, num edge types: 1
# Building blocks:
#     Node 0, Type 0, BuildingBlock: ESEHIV_clean_sbu_0, # of connection points: 4
#     Node 1, Type 0, BuildingBlock: ESEHIV_clean_sbu_0, # of connection points: 4
#     Node 2, Type 0, BuildingBlock: ESEHIV_clean_sbu_0, # of connection points: 4
#     Node 3, Type 0, BuildingBlock: ESEHIV_clean_sbu_0, # of connection points: 4
#     Node 4, Type 0, BuildingBlock: ESEHIV_clean_sbu_0, # of connection points: 4
#     Node 5, Type 0, BuildingBlock: ESEHIV_clean_sbu_0, # of connection points: 4
#     Node 6, Type 0, BuildingBlock: ESEHIV_clean_sbu_0, # of connection points: 4
#     Node 7, Type 0, BuildingBlock: ESEHIV_clean_sbu_0, # of connection points: 4
#     Node 8, Type 0, BuildingBlock: ESEHIV_clean_sbu_0, # of connection points: 4
#     Node 9, Type 0, BuildingBlock: ESEHIV_clean_sbu_0, # of connection points: 4
#     Node 10, Type 0, BuildingBlock: ESEHIV_clean_sbu_0, # of connection points: 4
#     Node 11, Type 0, BuildingBlock: ESEHIV_clean_sbu_0, # of connection points: 4
#     Node 12, Type 0, BuildingBlock: ESEHIV_clean_sbu_0, # of connection points: 4
#     Node 13, Type 0, BuildingBlock: ESEHIV_clean_sbu_0, # of connection points: 4
#     Node 14, Type 0, BuildingBlock: ESEHIV_clean_sbu_0, # of connection points: 4
#     Node 15, Type 0, BuildingBlock: ESEHIV_clean_sbu_0, # of connection points: 4
#     Node 16, Type 0, BuildingBlock: ESEHIV_clean_sbu_0, # of connection points: 4
#     Node 17, Type 0, BuildingBlock: ESEHIV_clean_sbu_0, # of connection points: 4
#     Node 18, Type 1, BuildingBlock: QUQFOY_clean_sbu_3, # of connection points: 4
#     Node 19, Type 1, BuildingBlock: QUQFOY_clean_sbu_3, # of connection points: 4
#     Node 20, Type 1, BuildingBlock: QUQFOY_clean_sbu_3, # of connection points: 4
#     Node 21, Type 1, BuildingBlock: QUQFOY_clean_sbu_3, # of connection points: 4
#     Node 22, Type 1, BuildingBlock: QUQFOY_clean_sbu_3, # of connection points: 4
#     Node 23, Type 1, BuildingBlock: QUQFOY_clean_sbu_3, # of connection points: 4
#     Node 24, Type 1, BuildingBlock: QUQFOY_clean_sbu_3, # of connection points: 4
#     Node 25, Type 1, BuildingBlock: QUQFOY_clean_sbu_3, # of connection points: 4
#     Node 26, Type 1, BuildingBlock: QUQFOY_clean_sbu_3, # of connection points: 4
#     Node 27, Type 1, BuildingBlock: QUQFOY_clean_sbu_3, # of connection points: 4
#     Node 28, Type 1, BuildingBlock: QUQFOY_clean_sbu_3, # of connection points: 4
#     Node 29, Type 1, BuildingBlock: QUQFOY_clean_sbu_3, # of connection points: 4
#     Node 30, Type 1, BuildingBlock: QUQFOY_clean_sbu_3, # of connection points: 4
#     Node 31, Type 1, BuildingBlock: QUQFOY_clean_sbu_3, # of connection points: 4
#     Node 32, Type 1, BuildingBlock: QUQFOY_clean_sbu_3, # of connection points: 4
#     Node 33, Type 1, BuildingBlock: QUQFOY_clean_sbu_3, # of connection points: 4
#     Node 34, Type 1, BuildingBlock: QUQFOY_clean_sbu_3, # of connection points: 4
#     Node 35, Type 1, BuildingBlock: QUQFOY_clean_sbu_3, # of connection points: 4
#     Edge 36, Type (0, 1), BuildingBlock: UVAHIK_clean_linker_0, # of connection points: 2
#     Edge 37, Type (0, 1), BuildingBlock: UVAHIK_clean_linker_0, # of connection points: 2
#     Edge 38, Type (0, 1), BuildingBlock: UVAHIK_clean_linker_0, # of connection points: 2
#     Edge 39, Type (0, 1), BuildingBlock: UVAHIK_clean_linker_0, # of connection points: 2
#     Edge 40, Type (0, 1), BuildingBlock: UVAHIK_clean_linker_0, # of connection points: 2
#     Edge 41, Type (0, 1), BuildingBlock: UVAHIK_clean_linker_0, # of connection points: 2
#     Edge 42, Type (0, 1), BuildingBlock: UVAHIK_clean_linker_0, # of connection points: 2
#     Edge 43, Type (0, 1), BuildingBlock: UVAHIK_clean_linker_0, # of connection points: 2
#     Edge 44, Type (0, 1), BuildingBlock: UVAHIK_clean_linker_0, # of connection points: 2
#     Edge 45, Type (0, 1), BuildingBlock: UVAHIK_clean_linker_0, # of connection points: 2
#     Edge 46, Type (0, 1), BuildingBlock: UVAHIK_clean_linker_0, # of connection points: 2
#     Edge 47, Type (0, 1), BuildingBlock: UVAHIK_clean_linker_0, # of connection points: 2
#     Edge 48, Type (0, 1), BuildingBlock: UVAHIK_clean_linker_0, # of connection points: 2
#     Edge 49, Type (0, 1), BuildingBlock: UVAHIK_clean_linker_0, # of connection points: 2
#     Edge 50, Type (0, 1), BuildingBlock: UVAHIK_clean_linker_0, # of connection points: 2
#     Edge 51, Type (0, 1), BuildingBlock: UVAHIK_clean_linker_0, # of connection points: 2
#     Edge 52, Type (0, 1), BuildingBlock: UVAHIK_clean_linker_0, # of connection points: 2
#     Edge 53, Type (0, 1), BuildingBlock: UVAHIK_clean_linker_0, # of connection points: 2
#     Edge 54, Type (0, 1), BuildingBlock: UVAHIK_clean_linker_0, # of connection points: 2
#     Edge 55, Type (0, 1), BuildingBlock: UVAHIK_clean_linker_0, # of connection points: 2
#     Edge 56, Type (0, 1), BuildingBlock: UVAHIK_clean_linker_0, # of connection points: 2
#     Edge 57, Type (0, 1), BuildingBlock: UVAHIK_clean_linker_0, # of connection points: 2
#     Edge 58, Type (0, 1), BuildingBlock: UVAHIK_clean_linker_0, # of connection points: 2
#     Edge 59, Type (0, 1), BuildingBlock: UVAHIK_clean_linker_0, # of connection points: 2
#     Edge 60, Type (0, 1), BuildingBlock: UVAHIK_clean_linker_0, # of connection points: 2
#     Edge 61, Type (0, 1), BuildingBlock: UVAHIK_clean_linker_0, # of connection points: 2
#     Edge 62, Type (0, 1), BuildingBlock: UVAHIK_clean_linker_0, # of connection points: 2
#     Edge 63, Type (0, 1), BuildingBlock: UVAHIK_clean_linker_0, # of connection points: 2
#     Edge 64, Type (0, 1), BuildingBlock: UVAHIK_clean_linker_0, # of connection points: 2
#     Edge 65, Type (0, 1), BuildingBlock: UVAHIK_clean_linker_0, # of connection points: 2
#     Edge 66, Type (0, 1), BuildingBlock: UVAHIK_clean_linker_0, # of connection points: 2
#     Edge 67, Type (0, 1), BuildingBlock: UVAHIK_clean_linker_0, # of connection points: 2
#     Edge 68, Type (0, 1), BuildingBlock: UVAHIK_clean_linker_0, # of connection points: 2
#     Edge 69, Type (0, 1), BuildingBlock: UVAHIK_clean_linker_0, # of connection points: 2
#     Edge 70, Type (0, 1), BuildingBlock: UVAHIK_clean_linker_0, # of connection points: 2
#     Edge 71, Type (0, 1), BuildingBlock: UVAHIK_clean_linker_0, # of connection points: 2
#     Edge 72, Type (0, 1), BuildingBlock: UVAHIK_clean_linker_0, # of connection points: 2
#     Edge 73, Type (0, 1), BuildingBlock: UVAHIK_clean_linker_0, # of connection points: 2
#     Edge 74, Type (0, 1), BuildingBlock: UVAHIK_clean_linker_0, # of connection points: 2
#     Edge 75, Type (0, 1), BuildingBlock: UVAHIK_clean_linker_0, # of connection points: 2
#     Edge 76, Type (0, 1), BuildingBlock: UVAHIK_clean_linker_0, # of connection points: 2
#     Edge 77, Type (0, 1), BuildingBlock: UVAHIK_clean_linker_0, # of connection points: 2
#     Edge 78, Type (0, 1), BuildingBlock: UVAHIK_clean_linker_0, # of connection points: 2
#     Edge 79, Type (0, 1), BuildingBlock: UVAHIK_clean_linker_0, # of connection points: 2
#     Edge 80, Type (0, 1), BuildingBlock: UVAHIK_clean_linker_0, # of connection points: 2
#     Edge 81, Type (0, 1), BuildingBlock: UVAHIK_clean_linker_0, # of connection points: 2
#     Edge 82, Type (0, 1), BuildingBlock: UVAHIK_clean_linker_0, # of connection points: 2
#     Edge 83, Type (0, 1), BuildingBlock: UVAHIK_clean_linker_0, # of connection points: 2
#     Edge 84, Type (0, 1), BuildingBlock: UVAHIK_clean_linker_0, # of connection points: 2
#     Edge 85, Type (0, 1), BuildingBlock: UVAHIK_clean_linker_0, # of connection points: 2
#     Edge 86, Type (0, 1), BuildingBlock: UVAHIK_clean_linker_0, # of connection points: 2
#     Edge 87, Type (0, 1), BuildingBlock: UVAHIK_clean_linker_0, # of connection points: 2
#     Edge 88, Type (0, 1), BuildingBlock: UVAHIK_clean_linker_0, # of connection points: 2
#     Edge 89, Type (0, 1), BuildingBlock: UVAHIK_clean_linker_0, # of connection points: 2
#     Edge 90, Type (0, 1), BuildingBlock: UVAHIK_clean_linker_0, # of connection points: 2
#     Edge 91, Type (0, 1), BuildingBlock: UVAHIK_clean_linker_0, # of connection points: 2
#     Edge 92, Type (0, 1), BuildingBlock: UVAHIK_clean_linker_0, # of connection points: 2
#     Edge 93, Type (0, 1), BuildingBlock: UVAHIK_clean_linker_0, # of connection points: 2
#     Edge 94, Type (0, 1), BuildingBlock: UVAHIK_clean_linker_0, # of connection points: 2
#     Edge 95, Type (0, 1), BuildingBlock: UVAHIK_clean_linker_0, # of connection points: 2
#     Edge 96, Type (0, 1), BuildingBlock: UVAHIK_clean_linker_0, # of connection points: 2
#     Edge 97, Type (0, 1), BuildingBlock: UVAHIK_clean_linker_0, # of connection points: 2
#     Edge 98, Type (0, 1), BuildingBlock: UVAHIK_clean_linker_0, # of connection points: 2
#     Edge 99, Type (0, 1), BuildingBlock: UVAHIK_clean_linker_0, # of connection points: 2
#     Edge 100, Type (0, 1), BuildingBlock: UVAHIK_clean_linker_0, # of connection points: 2
#     Edge 101, Type (0, 1), BuildingBlock: UVAHIK_clean_linker_0, # of connection points: 2
#     Edge 102, Type (0, 1), BuildingBlock: UVAHIK_clean_linker_0, # of connection points: 2
#     Edge 103, Type (0, 1), BuildingBlock: UVAHIK_clean_linker_0, # of connection points: 2
#     Edge 104, Type (0, 1), BuildingBlock: UVAHIK_clean_linker_0, # of connection points: 2
#     Edge 105, Type (0, 1), BuildingBlock: UVAHIK_clean_linker_0, # of connection points: 2
#     Edge 106, Type (0, 1), BuildingBlock: UVAHIK_clean_linker_0, # of connection points: 2
#     Edge 107, Type (0, 1), BuildingBlock: UVAHIK_clean_linker_0, # of connection points: 2
# Relax obj value: 0.013
# Max RMSD: 0.130
# Mean RMSD: 0.073
data_MOF--net-fgl--node1-ESEHIV_clean_sbu_0--node2-QUQFOY_clean_sbu_3--edge1-UVAHIK_clean_linker_0
_symmetry_space_group_name_H-M    P1
_symmetry_Int_Tables_number       1
_symmetry_cell_setting            triclinic
loop_
_symmetry_equiv_pos_as_xyz
'x, y, z'
_cell_length_a     98.126667
_cell_length_b     98.105831
_cell_length_c     66.73105
_cell_angle_alpha  89.011454
_cell_angle_beta   90.834049
_cell_angle_gamma 119.98295
loop_
_atom_site_label
_atom_site_type_symbol
_atom_site_fract_x
_atom_site_fract_y
_atom_site_fract_z
_atom_type_partial_charge
Cu0 Cu 0.03975 0.55203 0.00817 0.0
N1 N 0.05448 0.56555 0.02683 0.0
N2 N 0.06282 0.5817 0.05305 0.0
C3 C 0.05306 0.57651 0.03703 0.0
C4 C 0.07079 0.57379 0.05284 0.0
C5 C 0.06565 0.56386 0.03659 0.0
O6 O 0.02528 0.55976 0.00369 0.0
C7 C 0.0269 0.52776 0.03766 0.0
O8 O 0.02903 0.53901 0.04991 0.0
H9 H 0.04401 0.5795 0.03391 0.0
H10 H 0.06889 0.55513 0.03309 0.0
N11 N 0.04899 0.55153 0.98412 0.0
N12 N 0.05208 0.54207 0.95528 0.0
C13 C 0.04307 0.53916 0.97168 0.0
C14 C 0.06227 0.56268 0.97543 0.0
C15 C 0.06423 0.55687 0.95763 0.0
C16 C 0.01788 0.55858 0.98744 0.0
O17 O 0.0185 0.55014 0.9728 0.0
H18 H 0.03236 0.5282 0.97473 0.0
H19 H 0.06992 0.57423 0.98154 0.0
O20 O 0.02973 0.5309 0.01912 0.0
H21 H 0.07909 0.5745 0.06423 0.0
H22 H 0.07372 0.56318 0.9471 0.0
Cu23 Cu 0.5167 0.55964 0.01398 0.0
N24 N 0.51639 0.56666 0.98654 0.0
N25 N 0.52318 0.57533 0.9551 0.0
C26 C 0.52773 0.5716 0.97261 0.0
C27 C 0.50842 0.57252 0.9583 0.0
C28 C 0.50428 0.56718 0.97769 0.0
O29 O 0.53274 0.58229 0.02188 0.0
C30 C 0.50337 0.52789 0.99707 0.0
O31 O 0.51797 0.53296 0.9917 0.0
H32 H 0.53907 0.57256 0.97535 0.0
H33 H 0.49318 0.56377 0.98483 0.0
N34 N 0.51651 0.55251 0.04151 0.0
N35 N 0.5073 0.54157 0.07147 0.0
C36 C 0.50395 0.54599 0.05364 0.0
C37 C 0.52823 0.55223 0.05184 0.0
C38 C 0.52259 0.54554 0.07043 0.0
C39 C 0.54753 0.58754 0.02195 0.0
O40 O 0.55277 0.5782 0.01647 0.0
H41 H 0.4926 0.54446 0.04938 0.0
H42 H 0.53992 0.5563 0.04617 0.0
O43 O 0.50013 0.53713 0.00642 0.0
H44 H 0.50099 0.57395 0.94732 0.0
H45 H 0.52911 0.54334 0.08202 0.0
Cu46 Cu 0.4924 0.00963 0.02532 0.0
N47 N 0.48528 0.99797 0.00192 0.0
N48 N 0.47301 0.98911 0.9726 0.0
C49 C 0.47369 0.99662 0.98966 0.0
C50 C 0.48454 0.98546 0.9743 0.0
C51 C 0.49207 0.99092 0.99245 0.0
O52 O 0.47654 0.01369 0.03611 0.0
C53 C 0.51668 0.03526 0.00326 0.0
O54 O 0.50632 0.03077 0.98858 0.0
H55 H 0.46654 0.00189 0.9926 0.0
H56 H 0.50223 0.99043 0.99799 0.0
N57 N 0.49619 0.99803 0.04454 0.0
N58 N 0.50671 0.9929 0.0714 0.0
C59 C 0.50548 0.00404 0.06074 0.0
C60 C 0.49126 0.98253 0.04494 0.0
C61 C 0.49782 0.97933 0.06151 0.0
C62 C 0.47105 0.0217 0.02777 0.0
O63 O 0.4768 0.02885 0.01055 0.0
H64 H 0.51168 0.01646 0.06419 0.0
H65 H 0.4837 0.97423 0.03378 0.0
O66 O 0.51251 0.02844 0.02028 0.0
H67 H 0.48765 0.97973 0.96299 0.0
H68 H 0.49629 0.96797 0.06584 0.0
Cu69 Cu 0.51693 0.0343 0.52392 0.0
N70 N 0.53682 0.04469 0.51263 0.0
N71 N 0.55496 0.05235 0.48877 0.0
C72 C 0.53947 0.0453 0.49287 0.0
C73 C 0.56236 0.05661 0.50672 0.0
C74 C 0.55109 0.05184 0.52146 0.0
O75 O 0.50631 0.01225 0.51628 0.0
C76 C 0.49029 0.03796 0.51607 0.0
O77 O 0.48266 0.0245 0.52584 0.0
H78 H 0.53013 0.04019 0.4818 0.0
H79 H 0.55314 0.05299 0.53747 0.0
N80 N 0.51777 0.03551 0.5518 0.0
N81 N 0.50957 0.03554 0.5828 0.0
C82 C 0.50828 0.03833 0.56322 0.0
C83 C 0.52556 0.03107 0.56467 0.0
C84 C 0.52041 0.03094 0.58384 0.0
C85 C 0.51065 0.00197 0.51785 0.0
O86 O 0.50069 0.98748 0.5125 0.0
H87 H 0.49983 0.04137 0.55723 0.0
H88 H 0.53388 0.02751 0.56033 0.0
O89 O 0.50505 0.04404 0.51342 0.0
H90 H 0.57494 0.06211 0.50909 0.0
H91 H 0.52396 0.02728 0.59739 0.0
Cu92 Cu 0.0418 0.56588 0.51094 0.0
N93 N 0.05409 0.56266 0.52994 0.0
N94 N 0.0595 0.55182 0.55644 0.0
C95 C 0.04821 0.55285 0.54583 0.0
C96 C 0.07306 0.56141 0.54674 0.0
C97 C 0.06968 0.56807 0.53038 0.0
O98 O 0.02343 0.54515 0.50744 0.0
C99 C 0.04852 0.59462 0.52634 0.0
O100 O 0.06276 0.59654 0.52584 0.0
H101 H 0.03576 0.54617 0.54906 0.0
H102 H 0.07793 0.57607 0.51941 0.0
N103 N 0.05215 0.57297 0.48646 0.0
N104 N 0.05684 0.58329 0.4555 0.0
C105 C 0.05051 0.58276 0.47352 0.0
C106 C 0.05995 0.56724 0.47639 0.0
C107 C 0.06282 0.57356 0.45723 0.0
C108 C 0.01731 0.5392 0.49058 0.0
O109 O 0.02161 0.54823 0.47447 0.0
H110 H 0.04371 0.58838 0.47676 0.0
H111 H 0.06247 0.55837 0.48217 0.0
O112 O 0.03697 0.58157 0.52063 0.0
H113 H 0.08459 0.56344 0.55107 0.0
H114 H 0.06829 0.57072 0.44526 0.0
Cu115 Cu 0.5061 0.55509 0.50974 0.0
N116 N 0.52292 0.55649 0.49539 0.0
N117 N 0.54679 0.56774 0.48178 0.0
C118 C 0.53632 0.57003 0.49184 0.0
C119 C 0.5396 0.55212 0.47853 0.0
C120 C 0.52482 0.54517 0.48701 0.0
O121 O 0.51488 0.57345 0.52708 0.0
C122 C 0.48299 0.53936 0.482 0.0
O123 O 0.48643 0.52858 0.48788 0.0
H124 H 0.53839 0.58137 0.49676 0.0
H125 H 0.51624 0.53275 0.4874 0.0
N126 N 0.4972 0.5373 0.52641 0.0
N127 N 0.47893 0.51675 0.54374 0.0
C128 C 0.48239 0.53001 0.53338 0.0
C129 C 0.50343 0.52847 0.5327 0.0
C130 C 0.49218 0.51578 0.54342 0.0
C131 C 0.52601 0.57435 0.53815 0.0
O132 O 0.52953 0.56311 0.53713 0.0
H133 H 0.4741 0.53398 0.52997 0.0
H134 H 0.51518 0.53088 0.52931 0.0
O135 O 0.49032 0.55293 0.48994 0.0
H136 H 0.54484 0.54611 0.47118 0.0
H137 H 0.4936 0.50645 0.55015 0.0
Cu138 Cu 0.72221 0.89887 0.34392 0.0
N139 N 0.73024 0.9176 0.32919 0.0
N140 N 0.73033 0.93846 0.31534 0.0
C141 C 0.72189 0.92479 0.3254 0.0
C142 C 0.74461 0.94 0.31258 0.0
C143 C 0.74448 0.92696 0.32099 0.0
O144 O 0.71055 0.9012 0.36628 0.0
C145 C 0.72021 0.88111 0.31159 0.0
O146 O 0.73531 0.89139 0.31301 0.0
H147 H 0.70994 0.92026 0.33046 0.0
H148 H 0.75408 0.92455 0.32107 0.0
N149 N 0.73819 0.89615 0.35531 0.0
N150 N 0.74968 0.88339 0.36855 0.0
C151 C 0.73605 0.88232 0.36242 0.0
C152 C 0.75372 0.9064 0.35729 0.0
C153 C 0.76089 0.89847 0.36529 0.0
C154 C 0.71898 0.9136 0.37654 0.0
O155 O 0.73383 0.92251 0.3716 0.0
H156 H 0.72477 0.87156 0.36251 0.0
H157 H 0.75947 0.91872 0.35318 0.0
O158 O 0.711 0.88177 0.32444 0.0
H159 H 0.75435 0.94975 0.30493 0.0
H160 H 0.7733 0.90338 0.36856 0.0
Cu161 Cu 0.19173 0.89364 0.36097 0.0
N162 N 0.18871 0.87443 0.35171 0.0
N163 N 0.17616 0.84978 0.34023 0.0
C164 C 0.17476 0.86114 0.3495 0.0
C165 C 0.19171 0.85617 0.33667 0.0
C166 C 0.19941 0.87137 0.34378 0.0
O167 O 0.17611 0.88929 0.38138 0.0
C168 C 0.1849 0.9007 0.32171 0.0
O169 O 0.17484 0.88554 0.32075 0.0
H170 H 0.16369 0.86015 0.35358 0.0
H171 H 0.21185 0.87979 0.34264 0.0
N172 N 0.21126 0.90488 0.3736 0.0
N173 N 0.2329 0.92546 0.38603 0.0
C174 C 0.22055 0.92064 0.37331 0.0
C175 C 0.21795 0.8995 0.38688 0.0
C176 C 0.23132 0.91218 0.3946 0.0
C177 C 0.16135 0.88326 0.37878 0.0
O178 O 0.15558 0.8811 0.36048 0.0
H179 H 0.21785 0.92846 0.36471 0.0
H180 H 0.21312 0.88726 0.39116 0.0
O181 O 0.19202 0.90647 0.33819 0.0
H182 H 0.19713 0.85043 0.32913 0.0
H183 H 0.2391 0.9117 0.40589 0.0
Cu184 Cu 0.16572 0.35313 0.34891 0.0
N185 N 0.159 0.34338 0.32418 0.0
N186 N 0.14806 0.33738 0.29372 0.0
C187 C 0.14834 0.34372 0.31162 0.0
C188 C 0.15883 0.33269 0.2952 0.0
C189 C 0.16554 0.33638 0.31403 0.0
O190 O 0.15164 0.36 0.35878 0.0
C191 C 0.19294 0.37801 0.33056 0.0
O192 O 0.18335 0.37631 0.31564 0.0
H193 H 0.14157 0.3493 0.31509 0.0
H194 H 0.17502 0.33474 0.31967 0.0
N195 N 0.16572 0.33872 0.36728 0.0
N196 N 0.17272 0.3295 0.39385 0.0
C197 C 0.17404 0.34238 0.38446 0.0
C198 C 0.15881 0.32299 0.36572 0.0
C199 C 0.16317 0.31725 0.38211 0.0
C200 C 0.14829 0.36953 0.34985 0.0
O201 O 0.15524 0.37622 0.3329 0.0
H202 H 0.18148 0.35434 0.38948 0.0
H203 H 0.15147 0.31625 0.35328 0.0
O204 O 0.18739 0.36993 0.34654 0.0
H205 H 0.16199 0.32742 0.28333 0.0
H206 H 0.15979 0.30508 0.38503 0.0
Cu207 Cu 0.16714 0.34405 0.85485 0.0
N208 N 0.1671 0.33208 0.83343 0.0
N209 N 0.17495 0.32792 0.80406 0.0
C210 C 0.17778 0.3383 0.81875 0.0
C211 C 0.16188 0.31457 0.80978 0.0
C212 C 0.15706 0.31717 0.82796 0.0
O213 O 0.18795 0.35233 0.86726 0.0
C214 C 0.14977 0.35364 0.83279 0.0
O215 O 0.14241 0.33844 0.82953 0.0
H216 H 0.18709 0.35047 0.81855 0.0
H217 H 0.14668 0.30894 0.83615 0.0
N218 N 0.15148 0.33255 0.87367 0.0
N219 N 0.13458 0.32867 0.89815 0.0
C220 C 0.14591 0.33928 0.88598 0.0
C221 C 0.1434 0.31705 0.87812 0.0
C222 C 0.13292 0.31462 0.89323 0.0
C223 C 0.19 0.34232 0.87733 0.0
O224 O 0.17799 0.32805 0.87974 0.0
H225 H 0.14998 0.35177 0.88574 0.0
H226 H 0.14513 0.30818 0.87117 0.0
O227 O 0.16203 0.35961 0.84394 0.0
H228 H 0.1561 0.30376 0.80138 0.0
H229 H 0.12492 0.30345 0.90026 0.0
Cu230 Cu 0.68289 0.88855 0.84213 0.0
N231 N 0.66813 0.86847 0.83306 0.0
N232 N 0.65878 0.84392 0.82229 0.0
C233 C 0.6712 0.85671 0.83029 0.0
C234 C 0.64741 0.84775 0.82 0.0
C235 C 0.6532 0.86288 0.82671 0.0
O236 O 0.69424 0.88513 0.86446 0.0
C237 C 0.68574 0.90147 0.80469 0.0
O238 O 0.67056 0.89447 0.80797 0.0
H239 H 0.68252 0.85773 0.83347 0.0
H240 H 0.64705 0.86944 0.8264 0.0
N241 N 0.67322 0.89912 0.8527 0.0
N242 N 0.67069 0.91891 0.86449 0.0
C243 C 0.68055 0.91463 0.85656 0.0
C244 C 0.65823 0.89336 0.8585 0.0
C245 C 0.65662 0.90556 0.8657 0.0
C246 C 0.68507 0.87718 0.87885 0.0
O247 O 0.67002 0.87242 0.87682 0.0
H248 H 0.69285 0.92261 0.85342 0.0
H249 H 0.64915 0.88113 0.85797 0.0
O250 O 0.69466 0.90089 0.81844 0.0
H251 H 0.63579 0.8402 0.81382 0.0
H252 H 0.64599 0.90462 0.87173 0.0
Cu253 Cu 0.16593 0.88593 0.8504 0.0
N254 N 0.15759 0.86728 0.83578 0.0
N255 N 0.14666 0.8506 0.81025 0.0
C256 C 0.14964 0.86441 0.81829 0.0
C257 C 0.15299 0.84461 0.82336 0.0
C258 C 0.15977 0.85494 0.839 0.0
O259 O 0.15316 0.89606 0.84729 0.0
C260 C 0.18934 0.90856 0.82406 0.0
O261 O 0.17767 0.90887 0.81456 0.0
H262 H 0.14643 0.8725 0.81149 0.0
H263 H 0.16637 0.85383 0.8514 0.0
N264 N 0.16969 0.88391 0.87768 0.0
N265 N 0.1799 0.89148 0.90844 0.0
C266 C 0.17858 0.89616 0.88971 0.0
C267 C 0.16527 0.87096 0.88916 0.0
C268 C 0.17147 0.8756 0.90816 0.0
C269 C 0.13876 0.89208 0.85007 0.0
O270 O 0.13464 0.90268 0.84594 0.0
H271 H 0.18398 0.90831 0.88472 0.0
H272 H 0.15814 0.85899 0.88409 0.0
O273 O 0.18652 0.89972 0.83941 0.0
H274 H 0.15337 0.83388 0.82143 0.0
H275 H 0.17019 0.86785 0.92063 0.0
Cu276 Cu 0.39412 0.23658 0.70036 0.0
N277 N 0.40203 0.25652 0.68886 0.0
N278 N 0.4005 0.27639 0.67448 0.0
C279 C 0.39297 0.26082 0.67842 0.0
C280 C 0.41496 0.28217 0.68274 0.0
C281 C 0.41589 0.26982 0.69158 0.0
O282 O 0.38338 0.23723 0.72476 0.0
C283 C 0.38983 0.22366 0.66321 0.0
O284 O 0.40427 0.23563 0.66269 0.0
H285 H 0.38067 0.25282 0.67514 0.0
H286 H 0.42562 0.27067 0.70036 0.0
N287 N 0.41015 0.2325 0.70764 0.0
N288 N 0.42061 0.21809 0.71845 0.0
C289 C 0.40788 0.21991 0.71856 0.0
C290 C 0.42487 0.23897 0.70046 0.0
C291 C 0.43136 0.23004 0.70708 0.0
C292 C 0.39279 0.24712 0.73758 0.0
O293 O 0.40795 0.25412 0.73396 0.0
H294 H 0.39669 0.21157 0.72513 0.0
H295 H 0.43014 0.24883 0.6901 0.0
O296 O 0.38194 0.22129 0.67927 0.0
H297 H 0.42393 0.29448 0.68311 0.0
H298 H 0.44279 0.23178 0.70314 0.0
Cu299 Cu 0.84662 0.21107 0.67728 0.0
N300 N 0.86352 0.21488 0.66113 0.0
N301 N 0.88022 0.22616 0.63565 0.0
C302 C 0.86658 0.22327 0.64401 0.0
C303 C 0.88589 0.21906 0.64801 0.0
C304 C 0.87556 0.21214 0.6638 0.0
O305 O 0.85026 0.23239 0.68154 0.0
C306 C 0.82722 0.1837 0.65743 0.0
O307 O 0.83977 0.18247 0.66097 0.0
H308 H 0.85895 0.2274 0.6381 0.0
H309 H 0.87698 0.206 0.67655 0.0
N310 N 0.84648 0.20174 0.70194 0.0
N311 N 0.83617 0.1899 0.73131 0.0
C312 C 0.83323 0.19278 0.71232 0.0
C313 C 0.85837 0.20451 0.71457 0.0
C314 C 0.85204 0.19717 0.73269 0.0
C315 C 0.85228 0.23858 0.69878 0.0
O316 O 0.84756 0.22942 0.71475 0.0
H317 H 0.82169 0.18919 0.70617 0.0
H318 H 0.8707 0.21218 0.71132 0.0
O319 O 0.8273 0.1961 0.66318 0.0
H320 H 0.89696 0.21933 0.64625 0.0
H321 H 0.8587 0.19805 0.74615 0.0
Cu322 Cu 0.83625 0.67447 0.67588 0.0
N323 N 0.82985 0.66304 0.65226 0.0
N324 N 0.81883 0.65518 0.62208 0.0
C325 C 0.81875 0.66205 0.63938 0.0
C326 C 0.83033 0.65153 0.62428 0.0
C327 C 0.8371 0.65638 0.64296 0.0
O328 O 0.82022 0.67891 0.68517 0.0
C329 C 0.86099 0.70036 0.65486 0.0
O330 O 0.85078 0.69643 0.64008 0.0
H331 H 0.81153 0.6673 0.64203 0.0
H332 H 0.84715 0.65589 0.64892 0.0
N333 N 0.83939 0.66275 0.69558 0.0
N334 N 0.8502 0.65795 0.72237 0.0
C335 C 0.84826 0.6688 0.71209 0.0
C336 C 0.83544 0.64749 0.69541 0.0
C337 C 0.8422 0.6445 0.71195 0.0
C338 C 0.8157 0.68742 0.67594 0.0
O339 O 0.82268 0.69468 0.65924 0.0
H340 H 0.854 0.68116 0.71579 0.0
H341 H 0.82872 0.63932 0.68367 0.0
O342 O 0.8566 0.69311 0.67159 0.0
H343 H 0.83405 0.64636 0.61291 0.0
H344 H 0.84167 0.63347 0.71569 0.0
Cu345 Cu 0.83611 0.68912 0.15686 0.0
N346 N 0.83597 0.67944 0.13294 0.0
N347 N 0.84499 0.6767 0.10366 0.0
C348 C 0.84758 0.68612 0.11942 0.0
C349 C 0.83116 0.66352 0.10737 0.0
C350 C 0.82555 0.66529 0.12542 0.0
O351 O 0.85634 0.69496 0.16973 0.0
C352 C 0.82122 0.70361 0.13828 0.0
O353 O 0.81393 0.68978 0.12972 0.0
H354 H 0.85791 0.6976 0.12133 0.0
H355 H 0.81458 0.6569 0.13235 0.0
N356 N 0.82008 0.67599 0.17443 0.0
N357 N 0.80482 0.67004 0.2014 0.0
C358 C 0.81596 0.68162 0.19 0.0
C359 C 0.81119 0.66021 0.17594 0.0
C360 C 0.80169 0.6565 0.19255 0.0
C361 C 0.85766 0.68342 0.17643 0.0
O362 O 0.84555 0.66914 0.17478 0.0
H363 H 0.82122 0.69407 0.19296 0.0
H364 H 0.81197 0.65193 0.16624 0.0
O365 O 0.83231 0.70655 0.15075 0.0
H366 H 0.82544 0.65345 0.09761 0.0
H367 H 0.7936 0.64479 0.19812 0.0
Cu368 Cu 0.3804 0.23127 0.19327 0.0
N369 N 0.389 0.2204 0.18082 0.0
N370 N 0.38845 0.19915 0.16812 0.0
C371 C 0.38333 0.20479 0.18276 0.0
C372 C 0.39785 0.21176 0.15659 0.0
C373 C 0.39811 0.22482 0.1644 0.0
O374 O 0.37289 0.22153 0.21965 0.0
C375 C 0.3608 0.2414 0.17303 0.0
O376 O 0.36253 0.24967 0.18909 0.0
H377 H 0.37441 0.19746 0.1935 0.0
H378 H 0.40338 0.23637 0.15749 0.0
N379 N 0.3953 0.25229 0.19843 0.0
N380 N 0.40375 0.2766 0.20976 0.0
C381 C 0.39264 0.26125 0.21104 0.0
C382 C 0.40886 0.26226 0.18915 0.0
C383 C 0.41413 0.27728 0.19617 0.0
C384 C 0.36124 0.20823 0.22454 0.0
O385 O 0.35094 0.19955 0.21081 0.0
H386 H 0.38225 0.25664 0.22027 0.0
H387 H 0.41412 0.25906 0.17736 0.0
O388 O 0.36562 0.23151 0.17342 0.0
H389 H 0.40338 0.21143 0.14283 0.0
H390 H 0.42422 0.28796 0.19071 0.0
Cu391 Cu 0.83528 0.24274 0.17755 0.0
N392 N 0.82549 0.24384 0.15392 0.0
N393 N 0.8117 0.2352 0.1254 0.0
C394 C 0.81605 0.23121 0.14281 0.0
C395 C 0.8186 0.25107 0.12575 0.0
C396 C 0.82711 0.25637 0.14339 0.0
O397 O 0.82084 0.22318 0.19072 0.0
C398 C 0.85858 0.24032 0.15493 0.0
O399 O 0.84799 0.23441 0.14056 0.0
H400 H 0.81323 0.2194 0.14704 0.0
H401 H 0.83436 0.26848 0.1479 0.0
N402 N 0.84033 0.25935 0.19486 0.0
N403 N 0.85237 0.27556 0.22051 0.0
C404 C 0.85113 0.26352 0.20959 0.0
C405 C 0.83449 0.26911 0.19628 0.0
C406 C 0.84191 0.27915 0.21211 0.0
C407 C 0.80826 0.22194 0.19763 0.0
O408 O 0.80611 0.23411 0.19634 0.0
H409 H 0.85799 0.25778 0.21206 0.0
H410 H 0.82536 0.26881 0.1867 0.0
O411 O 0.85497 0.24368 0.17163 0.0
H412 H 0.81785 0.2584 0.114 0.0
H413 H 0.83952 0.28815 0.21722 0.0
C414 C 0.01834 0.65464 0.29238 0.0
O415 O 0.00869 0.65887 0.29786 0.0
Cd416 Cd 0.00418 0.67708 0.27866 0.0
O417 O 0.02477 0.6587 0.27516 0.0
Cd418 Cd 0.02322 0.67283 0.24403 0.0
C419 C 0.0427 0.70634 0.27069 0.0
O420 O 0.99551 0.66617 0.24597 0.0
O421 O 0.00993 0.68508 0.22565 0.0
O422 O 0.02225 0.65089 0.22556 0.0
C423 C 0.99636 0.67594 0.23266 0.0
O424 O 0.0296 0.70171 0.27941 0.0
C425 C 0.03216 0.65939 0.21231 0.0
O426 O 0.044 0.69785 0.25748 0.0
O427 O 0.03797 0.67417 0.21372 0.0
C428 C 0.39608 0.45209 0.22544 0.0
O429 O 0.38246 0.44187 0.21943 0.0
Cd430 Cd 0.36231 0.42318 0.24114 0.0
O431 O 0.39962 0.4531 0.24403 0.0
Cd432 Cd 0.38621 0.43969 0.27586 0.0
C433 C 0.38152 0.40477 0.26036 0.0
O434 O 0.36075 0.43785 0.26845 0.0
O435 O 0.36139 0.42482 0.2944 0.0
O436 O 0.40082 0.46586 0.29096 0.0
C437 C 0.3539 0.42986 0.28397 0.0
O438 O 0.36998 0.40367 0.25009 0.0
C439 C 0.40462 0.46121 0.30683 0.0
O440 O 0.39032 0.41717 0.27027 0.0
O441 O 0.40043 0.44669 0.30791 0.0
C442 C 0.62344 0.03088 0.22486 0.0
O443 O 0.63342 0.02656 0.22148 0.0
Cd444 Cd 0.65506 0.03101 0.24235 0.0
O445 O 0.6243 0.03827 0.24082 0.0
Cd446 Cd 0.64157 0.04718 0.27137 0.0
C447 C 0.67443 0.07138 0.24536 0.0
O448 O 0.64419 0.02405 0.27498 0.0
O449 O 0.66037 0.04357 0.29288 0.0
O450 O 0.61857 0.03978 0.29206 0.0
C451 C 0.65497 0.02933 0.2881 0.0
O452 O 0.67448 0.05901 0.23995 0.0
C453 C 0.62461 0.05258 0.30168 0.0
O454 O 0.66312 0.07044 0.25558 0.0
O455 O 0.63838 0.06313 0.29668 0.0
C456 C 0.04634 0.40467 0.75133 0.0
O457 O 0.04477 0.40341 0.73241 0.0
Cd458 Cd 0.02971 0.41184 0.7126 0.0
O459 O 0.0393 0.41034 0.76119 0.0
Cd460 Cd 0.02126 0.42117 0.75367 0.0
C461 C 0.99236 0.38795 0.73068 0.0
O462 O 0.03638 0.43722 0.72477 0.0
O463 O 0.01458 0.43679 0.73015 0.0
O464 O 0.03625 0.43966 0.78021 0.0
C465 C 0.02722 0.44242 0.72023 0.0
O466 O 0.00202 0.39224 0.71622 0.0
C467 C 0.0246 0.43827 0.78991 0.0
O468 O 0.99642 0.39554 0.74712 0.0
O469 O 0.01104 0.4285 0.78312 0.0
C470 C 0.66984 0.66758 0.74991 0.0
O471 O 0.6683 0.66594 0.76881 0.0
Cd472 Cd 0.64645 0.66291 0.7877 0.0
O473 O 0.65887 0.6672 0.73894 0.0
Cd474 Cd 0.63172 0.6631 0.74427 0.0
C475 C 0.64598 0.69625 0.77218 0.0
O476 O 0.62367 0.64303 0.77092 0.0
O477 O 0.60814 0.65221 0.76524 0.0
O478 O 0.62336 0.64859 0.71268 0.0
C479 C 0.6109 0.64263 0.77493 0.0
O480 O 0.64814 0.68865 0.78635 0.0
C481 C 0.61639 0.65568 0.70585 0.0
O482 O 0.64096 0.69002 0.7551 0.0
O483 O 0.61681 0.66639 0.7167 0.0
C484 C 0.39471 0.0673 0.78267 0.0
O485 O 0.39281 0.06415 0.8013 0.0
Cd486 Cd 0.38773 0.03963 0.81549 0.0
O487 O 0.39407 0.0572 0.77033 0.0
Cd488 Cd 0.39021 0.03003 0.77039 0.0
C489 C 0.35366 0.01456 0.78949 0.0
O490 O 0.4063 0.03416 0.80019 0.0
O491 O 0.39382 0.01038 0.78955 0.0
O492 O 0.40947 0.04173 0.74371 0.0
C493 C 0.40358 0.02016 0.80189 0.0
O494 O 0.36076 0.02125 0.80563 0.0
C495 C 0.40407 0.02943 0.73322 0.0
O496 O 0.36134 0.01618 0.77353 0.0
O497 O 0.39177 0.01733 0.7396 0.0
C498 C 0.67831 0.98274 0.63215 0.0
O499 O 0.66991 0.98869 0.63684 0.0
Cd500 Cd 0.66143 0.00287 0.6154 0.0
O501 O 0.68281 0.9836 0.61402 0.0
Cd502 Cd 0.6792 0.99535 0.58114 0.0
C503 C 0.69776 0.03278 0.6007 0.0
O504 O 0.65144 0.98858 0.58516 0.0
O505 O 0.66403 0.00509 0.56147 0.0
O506 O 0.67521 0.97215 0.56191 0.0
C507 C 0.6511 0.99678 0.57047 0.0
O508 O 0.68488 0.02834 0.60983 0.0
C509 C 0.68582 0.9798 0.54897 0.0
O510 O 0.6996 0.02305 0.59014 0.0
O511 O 0.69375 0.99462 0.55128 0.0
C512 C 0.06009 0.78669 0.53806 0.0
O513 O 0.04581 0.77757 0.53314 0.0
Cd514 Cd 0.02546 0.7586 0.5543 0.0
O515 O 0.0649 0.78618 0.55581 0.0
Cd516 Cd 0.05253 0.77024 0.58723 0.0
C517 C 0.04039 0.73448 0.56568 0.0
O518 O 0.02833 0.77181 0.58512 0.0
O519 O 0.02883 0.7565 0.60822 0.0
O520 O 0.06973 0.79315 0.60805 0.0
C521 C 0.02172 0.763 0.60016 0.0
O522 O 0.02944 0.73602 0.55744 0.0
C523 C 0.07413 0.78573 0.61979 0.0
O524 O 0.05102 0.74558 0.5761 0.0
O525 O 0.06909 0.77137 0.61581 0.0
C526 C 0.27825 0.34755 0.55487 0.0
O527 O 0.28765 0.34233 0.55271 0.0
Cd528 Cd 0.3077 0.34591 0.57631 0.0
O529 O 0.27853 0.35467 0.57082 0.0
Cd530 Cd 0.29222 0.36154 0.60386 0.0
C531 C 0.3271 0.38646 0.58291 0.0
O532 O 0.29559 0.33872 0.60812 0.0
O533 O 0.30866 0.35766 0.62863 0.0
O534 O 0.26622 0.35082 0.61799 0.0
C535 C 0.30503 0.34401 0.62285 0.0
O536 O 0.32668 0.37394 0.57715 0.0
C537 C 0.26968 0.36207 0.62987 0.0
O538 O 0.31542 0.38585 0.59191 0.0
O539 O 0.28369 0.37361 0.62918 0.0
C540 C 0.72306 0.7674 0.08393 0.0
O541 O 0.72104 0.76727 0.06507 0.0
Cd542 Cd 0.70401 0.7742 0.04737 0.0
O543 O 0.71546 0.77144 0.09555 0.0
Cd544 Cd 0.69508 0.78016 0.09128 0.0
C545 C 0.6687 0.74599 0.06695 0.0
O546 O 0.70831 0.79783 0.06248 0.0
O547 O 0.68571 0.79487 0.06926 0.0
O548 O 0.70789 0.79678 0.12084 0.0
C549 C 0.69795 0.80156 0.05851 0.0
O550 O 0.67754 0.75196 0.05176 0.0
C551 C 0.69539 0.79351 0.13009 0.0
O552 O 0.6726 0.753 0.0838 0.0
O553 O 0.68255 0.78387 0.12151 0.0
C554 C 0.32817 0.99918 0.11655 0.0
O555 O 0.32708 0.99743 0.13546 0.0
Cd556 Cd 0.30659 0.99783 0.15412 0.0
O557 O 0.31733 0.99973 0.10641 0.0
Cd558 Cd 0.29094 0.99715 0.1118 0.0
C559 C 0.31045 0.03252 0.13448 0.0
O560 O 0.28177 0.97888 0.14053 0.0
O561 O 0.26927 0.99143 0.13476 0.0
O562 O 0.28176 0.97783 0.0852 0.0
C563 C 0.27039 0.98095 0.14485 0.0
O564 O 0.3116 0.02467 0.14916 0.0
C565 C 0.27461 0.98337 0.07497 0.0
O566 O 0.30412 0.02579 0.11796 0.0
O567 O 0.27526 0.99579 0.08156 0.0
C568 C 0.04727 0.40034 0.10773 0.0
O569 O 0.04832 0.39821 0.12639 0.0
Cd570 Cd 0.05218 0.37797 0.14129 0.0
O571 O 0.04862 0.39154 0.095 0.0
Cd572 Cd 0.05314 0.3687 0.09607 0.0
C573 C 0.01979 0.34575 0.1222 0.0
O574 O 0.07262 0.37721 0.1232 0.0
O575 O 0.0624 0.35304 0.11425 0.0
O576 O 0.07012 0.37749 0.06654 0.0
C577 C 0.07242 0.36422 0.12491 0.0
O578 O 0.02711 0.35354 0.13767 0.0
C579 C 0.06192 0.36485 0.05689 0.0
O580 O 0.02616 0.34956 0.105 0.0
O581 O 0.04938 0.35438 0.06516 0.0
C582 C 0.34951 0.31823 0.99213 0.0
O583 O 0.3427 0.32612 0.99511 0.0
Cd584 Cd 0.33828 0.34202 0.97169 0.0
O585 O 0.35495 0.31827 0.97476 0.0
Cd586 Cd 0.35571 0.33167 0.94095 0.0
C587 C 0.37649 0.36922 0.95977 0.0
O588 O 0.32873 0.32696 0.94207 0.0
O589 O 0.34311 0.34349 0.91937 0.0
O590 O 0.3501 0.30804 0.92156 0.0
C591 C 0.32959 0.33545 0.92711 0.0
O592 O 0.36347 0.36605 0.96762 0.0
C593 C 0.36187 0.31493 0.91001 0.0
O594 O 0.37761 0.35867 0.95013 0.0
O595 O 0.37118 0.32944 0.9133 0.0
C596 C 0.719 0.11988 0.88553 0.0
O597 O 0.70475 0.11407 0.88 0.0
Cd598 Cd 0.68308 0.09714 0.90147 0.0
O599 O 0.72232 0.11817 0.90359 0.0
Cd600 Cd 0.70859 0.10687 0.93587 0.0
C601 C 0.69522 0.07089 0.91636 0.0
O602 O 0.68481 0.10947 0.93264 0.0
O603 O 0.68497 0.09404 0.95603 0.0
O604 O 0.72649 0.13255 0.94971 0.0
C605 C 0.67802 0.10059 0.94766 0.0
O606 O 0.68566 0.07394 0.90694 0.0
C607 C 0.73075 0.12759 0.96487 0.0
O608 O 0.70603 0.0812 0.92749 0.0
O609 O 0.72511 0.11278 0.96635 0.0
C610 C 0.96984 0.7001 0.87253 0.0
O611 O 0.98089 0.69733 0.86883 0.0
Cd612 Cd -0.0011 0.69787 0.89356 0.0
O613 O 0.96808 0.70386 0.89012 0.0
Cd614 Cd 0.98084 0.70766 0.92375 0.0
C615 C 0.01661 0.73646 0.90728 0.0
O616 O 0.98132 0.68343 0.92019 0.0
O617 O 0.99226 0.69581 0.94727 0.0
O618 O 0.95407 0.6994 0.93438 0.0
C619 C 0.98755 0.68353 0.9369 0.0
O620 O 0.01802 0.72548 0.89952 0.0
C621 C 0.95805 0.70767 0.95008 0.0
O622 O 0.00391 0.73348 0.91593 0.0
O623 O 0.97271 0.71637 0.95329 0.0
C624 C 0.40256 0.11146 0.44319 0.0
O625 O 0.40306 0.11366 0.42435 0.0
Cd626 Cd 0.38416 0.11761 0.40575 0.0
O627 O 0.39261 0.11295 0.45371 0.0
Cd628 Cd 0.37194 0.12097 0.44817 0.0
C629 C 0.34988 0.0863 0.42441 0.0
O630 O 0.38239 0.13909 0.41894 0.0
O631 O 0.35759 0.12896 0.42429 0.0
O632 O 0.38269 0.14091 0.47459 0.0
C633 C 0.36952 0.13846 0.41413 0.0
O634 O 0.35913 0.09303 0.40972 0.0
C635 C 0.37052 0.13489 0.48553 0.0
O636 O 0.35219 0.09327 0.44114 0.0
O637 O 0.35884 0.12216 0.47933 0.0
C638 C 0.00919 0.35741 0.43397 0.0
O639 O 0.00866 0.35654 0.45298 0.0
Cd640 Cd 0.98631 0.35023 0.47311 0.0
O641 O 0.99705 0.35489 0.42375 0.0
Cd642 Cd 0.96918 0.34768 0.43151 0.0
C643 C 0.97978 0.3803 0.45961 0.0
O644 O 0.96518 0.32795 0.45707 0.0
O645 O 0.94675 0.33368 0.45492 0.0
O646 O 0.9595 0.33161 0.40118 0.0
C647 C 0.95173 0.32507 0.46262 0.0
O648 O 0.9834 0.37358 0.47349 0.0
C649 C 0.95232 0.3384 0.39408 0.0
O650 O 0.97532 0.37396 0.44249 0.0
O651 O 0.95318 0.34964 0.40421 0.0
C652 C 0.74537 0.74207 0.43439 0.0
O653 O 0.74402 0.73888 0.45303 0.0
Cd654 Cd 0.74115 0.71527 0.46806 0.0
O655 O 0.7449 0.73223 0.42176 0.0
Cd656 Cd 0.74123 0.7052 0.42258 0.0
C657 C 0.70615 0.68838 0.44675 0.0
O658 O 0.75881 0.70938 0.45091 0.0
O659 O 0.74551 0.68559 0.44024 0.0
O660 O 0.75883 0.71188 0.39407 0.0
C661 C 0.75589 0.69527 0.45213 0.0
O662 O 0.71384 0.69523 0.4625 0.0
C663 C 0.74923 0.70037 0.38342 0.0
O664 O 0.71307 0.69073 0.42999 0.0
O665 O 0.73574 0.69134 0.39081 0.0
C666 C 0.02426 0.50986 0.06644 0.0
C667 C 0.02427 0.51247 0.04567 0.0
C668 C 0.02447 0.49657 0.07394 0.0
C669 C 0.01905 0.45762 0.05995 0.0
H670 H 0.04996 0.46639 0.102 0.0
C671 C 0.04199 0.4151 0.08042 0.0
C672 C 0.04401 0.41289 0.10089 0.0
C673 C 0.03848 0.42668 0.07415 0.0
C674 C 0.04114 0.46368 0.09044 0.0
H675 H 0.02349 0.50265 0.01649 0.0
H676 H 0.02398 0.47961 0.02954 0.0
H677 H 0.04462 0.48699 0.0907 0.0
H678 H 0.04392 0.4212 0.13082 0.0
H679 H 0.03775 0.44129 0.11989 0.0
H680 H 0.01578 0.43435 0.05952 0.0
C681 C 0.02374 0.48776 0.04008 0.0
C682 C 0.03803 0.47548 0.084 0.0
C683 C 0.02353 0.50103 0.03259 0.0
C684 C 0.04251 0.42259 0.11492 0.0
C685 C 0.03903 0.43417 0.10866 0.0
C686 C 0.02217 0.44581 0.06639 0.0
C687 C 0.02467 0.4856 0.06082 0.0
C688 C 0.02703 0.47263 0.06859 0.0
C689 C 0.03694 0.43634 0.08821 0.0
C690 C 0.03333 0.44874 0.08162 0.0
H691 H 0.02475 0.5184 0.07694 0.0
H692 H 0.02489 0.49509 0.09002 0.0
H693 H 0.01039 0.455 0.0482 0.0
H694 H 0.04307 0.40784 0.06921 0.0
H695 H 0.03715 0.4282 0.05827 0.0
C696 C 0.55369 0.61479 0.03171 0.0
C697 C 0.55877 0.60391 0.02841 0.0
C698 C 0.56439 0.63023 0.03761 0.0
C699 C 0.60384 0.65482 0.06074 0.0
H700 H 0.6025 0.68954 0.034 0.0
C701 C 0.64683 0.72037 0.08122 0.0
C702 C 0.65413 0.73039 0.06468 0.0
C703 C 0.63402 0.7051 0.07842 0.0
C704 C 0.60302 0.67998 0.04166 0.0
H705 H 0.57916 0.6008 0.02898 0.0
H706 H 0.59773 0.6276 0.0393 0.0
H707 H 0.58268 0.6625 0.02599 0.0
H708 H 0.65324 0.73234 0.0323 0.0
H709 H 0.63098 0.70603 0.02753 0.0
H710 H 0.62438 0.67234 0.0761 0.0
C711 C 0.58545 0.6242 0.03743 0.0
C712 C 0.59157 0.66446 0.03717 0.0
C713 C 0.57479 0.60883 0.03135 0.0
C714 C 0.64796 0.72497 0.04541 0.0
C715 C 0.6351 0.70987 0.04265 0.0
C716 C 0.6152 0.67035 0.06537 0.0
C717 C 0.58042 0.63514 0.04057 0.0
C718 C 0.59197 0.65167 0.04641 0.0
C719 C 0.62808 0.69963 0.05906 0.0
C720 C 0.6151 0.68314 0.05565 0.0
H721 H 0.54144 0.61143 0.02962 0.0
H722 H 0.56009 0.63831 0.04002 0.0
H723 H 0.6044 0.64526 0.0683 0.0
H724 H 0.65129 0.72414 0.09625 0.0
H725 H 0.62881 0.69755 0.0914 0.0
C726 C 0.45271 0.01599 0.0564 0.0
C727 C 0.45731 0.02167 0.03673 0.0
C728 C 0.43911 0.01481 0.06452 0.0
C729 C 0.40085 0.01014 0.05014 0.0
H730 H 0.40024 0.02183 0.10519 0.0
C731 C 0.34542 0.00615 0.0862 0.0
C732 C 0.34249 0.00133 0.10642 0.0
C733 C 0.35945 0.00917 0.07712 0.0
C734 C 0.40013 0.01831 0.08987 0.0
H735 H 0.45132 0.03078 0.01027 0.0
H736 H 0.42745 0.02863 0.02449 0.0
H737 H 0.4249 0.02674 0.09055 0.0
H738 H 0.35186 0.99544 0.13272 0.0
H739 H 0.37605 0.00032 0.11681 0.0
H740 H 0.37601 0.00139 0.04957 0.0
C741 C 0.4344 0.02507 0.03356 0.0
C742 C 0.4143 0.0212 0.08146 0.0
C743 C 0.44813 0.02641 0.02548 0.0
C744 C 0.35376 0.99925 0.11717 0.0
C745 C 0.36772 0.00218 0.10807 0.0
C746 C 0.38662 0.00715 0.0586 0.0
C747 C 0.4297 0.01915 0.05313 0.0
C748 C 0.41481 0.01702 0.06157 0.0
C749 C 0.37086 0.00738 0.08801 0.0
C750 C 0.38605 0.01104 0.07865 0.0
H751 H 0.4595 0.01224 0.06548 0.0
H752 H 0.43574 0.01006 0.07956 0.0
H753 H 0.40082 0.00662 0.03484 0.0
H754 H 0.33703 0.00793 0.07749 0.0
H755 H 0.36151 0.01329 0.0617 0.0
C756 C 0.4886 0.05851 0.49472 0.0
C757 C 0.48185 0.04623 0.50899 0.0
C758 C 0.48053 0.06619 0.48809 0.0
C759 C 0.4499 0.0753 0.5025 0.0
H760 H 0.44609 0.08098 0.4455 0.0
C761 C 0.40884 0.09745 0.47065 0.0
C762 C 0.41293 0.10606 0.45253 0.0
C763 C 0.41773 0.09086 0.47815 0.0
C764 C 0.44726 0.07982 0.4615 0.0
H765 H 0.4614 0.03258 0.52768 0.0
H766 H 0.44749 0.04618 0.51637 0.0
H767 H 0.46081 0.06844 0.45725 0.0
H768 H 0.43007 0.11515 0.42863 0.0
H769 H 0.44593 0.10439 0.44206 0.0
H770 H 0.4367 0.08697 0.50689 0.0
C771 C 0.45898 0.0498 0.51024 0.0
C772 C 0.45566 0.07252 0.46821 0.0
C773 C 0.46692 0.04194 0.51662 0.0
C774 C 0.42648 0.10845 0.44254 0.0
C775 C 0.43551 0.10211 0.45018 0.0
C776 C 0.4417 0.08283 0.49581 0.0
C777 C 0.46565 0.06197 0.49584 0.0
C778 C 0.45702 0.07009 0.48878 0.0
C779 C 0.43111 0.0929 0.46788 0.0
C780 C 0.44017 0.08516 0.47518 0.0
H781 H 0.50007 0.0621 0.48854 0.0
H782 H 0.48601 0.07559 0.47706 0.0
H783 H 0.45088 0.07374 0.51846 0.0
H784 H 0.39839 0.09526 0.47864 0.0
H785 H 0.41377 0.08372 0.49166 0.0
C786 C 0.00375 0.51493 0.46957 0.0
C787 C 0.00832 0.52183 0.48858 0.0
C788 C 0.99799 0.4988 0.46724 0.0
C789 C 0.00162 0.46694 0.49139 0.0
H790 H 0.96894 0.44002 0.45395 0.0
C791 C 0.98395 0.40186 0.48292 0.0
C792 C 0.981 0.39574 0.46344 0.0
C793 C 0.98557 0.41659 0.48653 0.0
C794 C 0.9782 0.44743 0.46433 0.0
H795 H 0.00933 0.51694 0.52025 0.0
H796 H -0.00084 0.48885 0.51617 0.0
H797 H 0.9741 0.46677 0.45948 0.0
H798 H 0.97725 0.40028 0.4325 0.0
H799 H 0.98045 0.42614 0.43873 0.0
H800 H 0.00608 0.44791 0.49592 0.0
C801 C 0.00031 0.49596 0.50302 0.0
C802 C 0.98111 0.46273 0.46754 0.0
C803 C 0.00603 0.51206 0.50536 0.0
C804 C 0.97949 0.40462 0.4477 0.0
C805 C 0.98122 0.41943 0.4513 0.0
C806 C -0.00122 0.45172 0.48812 0.0
C807 C 0.9967 0.48924 0.48386 0.0
C808 C 0.99288 0.47267 0.48109 0.0
C809 C 0.98442 0.42567 0.47075 0.0
C810 C 0.98707 0.44176 0.47451 0.0
H811 H 0.00534 0.52209 0.45632 0.0
H812 H 0.99536 0.494 0.45227 0.0
H813 H 0.01101 0.47439 0.5016 0.0
H814 H 0.98503 0.39529 0.49544 0.0
H815 H 0.98772 0.42086 0.50176 0.0
C816 C 0.57107 0.59234 0.48993 0.0
C817 C 0.5627 0.57951 0.47711 0.0
C818 C 0.58647 0.60387 0.48555 0.0
C819 C 0.61457 0.62214 0.44473 0.0
H820 H 0.64543 0.63618 0.48779 0.0
C821 C 0.68113 0.66607 0.43294 0.0
C822 C 0.68914 0.67688 0.44832 0.0
C823 C 0.66545 0.65424 0.4354 0.0
C824 C 0.63692 0.63257 0.47565 0.0
H825 H 0.56382 0.56872 0.44962 0.0
H826 H 0.59094 0.58905 0.44185 0.0
H827 H 0.61869 0.61511 0.49405 0.0
H828 H 0.68673 0.68428 0.47788 0.0
H829 H 0.65938 0.66398 0.48194 0.0
H830 H 0.63279 0.63981 0.4264 0.0
C831 C 0.58548 0.59012 0.45527 0.0
C832 C 0.62162 0.62044 0.47923 0.0
C833 C 0.57006 0.57845 0.45978 0.0
C834 C 0.68097 0.67602 0.46584 0.0
C835 C 0.6653 0.66431 0.46822 0.0
C836 C 0.6299 0.63439 0.44116 0.0
C837 C 0.59384 0.6029 0.46819 0.0
C838 C 0.61025 0.6152 0.46388 0.0
C839 C 0.65745 0.65306 0.45324 0.0
C840 C 0.64121 0.63985 0.45666 0.0
H841 H 0.56579 0.59337 0.50353 0.0
H842 H 0.59257 0.61365 0.49569 0.0
H843 H 0.60598 0.61839 0.43267 0.0
H844 H 0.68711 0.6664 0.41927 0.0
H845 H 0.65979 0.64572 0.42361 0.0
C846 C 0.01267 0.57976 0.99863 0.0
C847 C 0.01097 0.56883 0.98403 0.0
C848 C 0.00835 0.59108 0.9944 0.0
C849 C 0.00358 0.61207 0.95113 0.0
H850 H 0.9864 0.62802 0.99034 0.0
C851 C 0.9851 0.6575 0.93022 0.0
C852 C 0.9896 0.67017 0.94327 0.0
C853 C 0.98693 0.64476 0.93585 0.0
C854 C 0.99133 0.62376 0.97932 0.0
H855 H 0.00243 0.56058 0.954 0.0
H856 H 0.99457 0.58013 0.94676 0.0
H857 H 0.98975 0.60554 0.99897 0.0
H858 H -0.00062 0.67933 0.97258 0.0
H859 H 0.00264 0.65693 0.98246 0.0
H860 H 0.0052 0.63025 0.93149 0.0
C861 C -0.00037 0.58019 0.96132 0.0
C862 C 0.99323 0.61088 0.98423 0.0
C863 C 0.00402 0.5689 0.96552 0.0
C864 C 0.99585 0.66975 0.9622 0.0
C865 C 0.99762 0.6569 0.96789 0.0
C866 C 0.00164 0.62487 0.94621 0.0
C867 C 0.00216 0.59169 0.97551 0.0
C868 C -0.00061 0.60489 0.97018 0.0
C869 C 0.99326 0.64433 0.95469 0.0
C870 C 0.99549 0.63086 0.96023 0.0
H871 H 0.01798 0.58004 0.01308 0.0
H872 H 0.01057 0.59981 0.00563 0.0
H873 H 0.00872 0.60803 0.94011 0.0
H874 H 0.98017 0.65741 0.91556 0.0
H875 H 0.98325 0.63515 0.92547 0.0
C876 C 0.4942 0.50134 0.98179 0.0
C877 C 0.49081 0.5115 0.99254 0.0
C878 C 0.48243 0.48583 0.9778 0.0
C879 C 0.44322 0.45464 0.9955 0.0
H880 H 0.44047 0.43569 0.94398 0.0
C881 C 0.38845 0.39667 0.97286 0.0
C882 C 0.3903 0.38534 0.96246 0.0
C883 C 0.40119 0.41173 0.97612 0.0
C884 C 0.44118 0.44072 0.95854 0.0
H885 H 0.4722 0.51323 0.00733 0.0
H886 H 0.45172 0.48633 1.00027 0.0
H887 H 0.4616 0.46256 0.95037 0.0
H888 H 0.40721 0.38123 0.94709 0.0
H889 H 0.42962 0.40767 0.9529 0.0
H890 H 0.42284 0.43291 0.00372 0.0
C891 C 0.46354 0.49026 0.99513 0.0
C892 C 0.45331 0.45616 0.96221 0.0
C893 C 0.47529 0.50576 0.99908 0.0
C894 C 0.40532 0.38963 0.95516 0.0
C895 C 0.41816 0.40481 0.95843 0.0
C896 C 0.43115 0.43925 0.99185 0.0
C897 C 0.46694 0.48004 0.98451 0.0
C898 C 0.45438 0.4634 0.98068 0.0
C899 C 0.41627 0.41602 0.96914 0.0
C900 C 0.42981 0.43212 0.97324 0.0
H901 H 0.50601 0.50533 0.97653 0.0
H902 H 0.48554 0.4783 0.96976 0.0
H903 H 0.44385 0.45964 0.01006 0.0
H904 H 0.37708 0.39394 0.97861 0.0
H905 H 0.39915 0.42009 0.98403 0.0
C906 C 0.53862 0.05294 0.98002 0.0
C907 C 0.53361 0.04607 0.99914 0.0
C908 C 0.55465 0.06115 0.97528 0.0
C909 C 0.59081 0.06132 0.98916 0.0
H910 H 0.61218 0.10035 0.95866 0.0
C911 C 0.65679 0.09005 0.97328 0.0
C912 C 0.66221 0.09693 0.95432 0.0
C913 C 0.64153 0.08551 0.97932 0.0
C914 C 0.60635 0.08935 0.96698 0.0
H915 H 0.54164 0.04326 0.0286 0.0
H916 H 0.5695 0.05751 0.02027 0.0
H917 H 0.58469 0.08976 0.96824 0.0
H918 H 0.656 0.10479 0.92694 0.0
H919 H 0.62908 0.09639 0.93719 0.0
H920 H 0.61204 0.06045 0.98744 0.0
C921 C 0.56101 0.0564 0.0089 0.0
C922 C 0.59062 0.08334 0.97254 0.0
C923 C 0.54504 0.04831 0.0137 0.0
C924 C 0.65215 0.09955 0.94168 0.0
C925 C 0.63674 0.09479 0.94762 0.0
C926 C 0.6064 0.06721 0.98345 0.0
C927 C 0.56597 0.06255 0.9895 0.0
C928 C 0.58273 0.0693 0.98379 0.0
C929 C 0.63115 0.08748 0.96642 0.0
C930 C 0.61446 0.08135 0.97238 0.0
H931 H 0.53014 0.05147 0.96847 0.0
H932 H 0.55811 0.06574 0.96019 0.0
H933 H 0.58494 0.05029 0.99744 0.0
H934 H 0.66433 0.08806 0.98348 0.0
H935 H 0.63785 0.08034 0.99411 0.0
C936 C 0.52706 0.99857 0.544 0.0
C937 C 0.52618 0.00545 0.52577 0.0
C938 C 0.54102 0.99898 0.54992 0.0
C939 C 0.58392 0.01776 0.53957 0.0
H940 H 0.5788 0.97848 0.56092 0.0
C941 C 0.6367 0.00688 0.54889 0.0
C942 C 0.63688 0.998 0.56556 0.0
C943 C 0.62343 0.0083 0.5445 0.0
C944 C 0.58051 0.98964 0.55528 0.0
H945 H 0.53886 0.01721 0.49885 0.0
H946 H 0.56346 0.0185 0.50936 0.0
H947 H 0.55569 0.98072 0.55318 0.0
H948 H 0.62321 0.98373 0.59076 0.0
H949 H 0.60025 0.9864 0.58338 0.0
H950 H 0.60877 0.0267 0.5417 0.0
C951 C 0.55355 0.01323 0.51947 0.0
C952 C 0.5672 0.99092 0.55082 0.0
C953 C 0.53953 0.01272 0.51353 0.0
C954 C 0.62345 0.99057 0.57773 0.0
C955 C 0.61022 0.99205 0.5734 0.0
C956 C 0.59726 0.01651 0.54414 0.0
C957 C 0.55438 0.00605 0.53756 0.0
C958 C 0.56869 0.00499 0.54287 0.0
C959 C 0.60999 0.00094 0.55671 0.0
C960 C 0.59577 0.0024 0.55202 0.0
H961 H 0.51678 0.99248 0.55343 0.0
H962 H 0.54123 0.99345 0.56401 0.0
H963 H 0.58553 0.02882 0.53364 0.0
H964 H 0.64681 0.01273 0.53915 0.0
H965 H 0.62367 0.01503 0.53134 0.0
C966 C 0.03208 0.60764 0.52901 0.0
C967 C 0.04634 0.60785 0.53252 0.0
C968 C 0.0306 0.6207 0.53375 0.0
C969 C 0.04834 0.65681 0.56431 0.0
H970 H 0.02994 0.67201 0.52432 0.0
C971 C 0.05356 0.71814 0.56941 0.0
C972 C 0.04063 0.7196 0.56297 0.0
C973 C 0.05375 0.70413 0.56645 0.0
C974 C 0.0349 0.66783 0.53581 0.0
H975 H 0.07008 0.62179 0.54426 0.0
H976 H 0.06746 0.64442 0.55257 0.0
H977 H 0.0306 0.64793 0.51835 0.0
H978 H 0.01762 0.70728 0.54872 0.0
H979 H 0.01782 0.68289 0.54399 0.0
H980 H 0.05261 0.67666 0.58183 0.0
C981 C 0.05741 0.63419 0.54621 0.0
C982 C 0.03528 0.654 0.53236 0.0
C983 C 0.05893 0.62123 0.54132 0.0
C984 C 0.02785 0.70666 0.55373 0.0
C985 C 0.02799 0.69265 0.5509 0.0
C986 C 0.04787 0.67059 0.56783 0.0
C987 C 0.04329 0.63417 0.54229 0.0
C988 C 0.0421 0.64838 0.5465 0.0
C989 C 0.04098 0.69121 0.55709 0.0
C990 C 0.04124 0.67635 0.55357 0.0
H991 H 0.02217 0.59752 0.52223 0.0
H992 H 0.01952 0.62028 0.53071 0.0
H993 H 0.05351 0.65269 0.57561 0.0
H994 H 0.06363 0.72789 0.57652 0.0
H995 H 0.06405 0.70355 0.57119 0.0
C996 C 0.4596 0.48934 0.55312 0.0
C997 C 0.46376 0.50524 0.55149 0.0
C998 C 0.4446 0.47802 0.55943 0.0
C999 C 0.40393 0.47032 0.5623 0.0
H1000 H 0.39842 0.43445 0.59403 0.0
C1001 C 0.34305 0.4161 0.58501 0.0
C1002 C 0.34191 0.40164 0.5802 0.0
C1003 C 0.35752 0.43015 0.5835 0.0
C1004 C 0.39979 0.44444 0.58523 0.0
H1005 H 0.45552 0.52177 0.55589 0.0
H1006 H 0.42926 0.50194 0.56698 0.0
H1007 H 0.42479 0.45664 0.58866 0.0
H1008 H 0.35504 0.39073 0.5697 0.0
H1009 H 0.38 0.41502 0.56733 0.0
H1010 H 0.3788 0.45783 0.55872 0.0
C1011 C 0.43758 0.49824 0.56307 0.0
C1012 C 0.41488 0.4571 0.58207 0.0
C1013 C 0.45262 0.50959 0.55672 0.0
C1014 C 0.35543 0.4016 0.57357 0.0
C1015 C 0.3698 0.41551 0.57233 0.0
C1016 C 0.38876 0.45764 0.56561 0.0
C1017 C 0.43337 0.4823 0.56437 0.0
C1018 C 0.41719 0.46997 0.57003 0.0
C1019 C 0.37106 0.42989 0.5775 0.0
C1020 C 0.38664 0.44438 0.57657 0.0
H1021 H 0.46774 0.4855 0.54889 0.0
H1022 H 0.44166 0.4658 0.55985 0.0
H1023 H 0.40531 0.48002 0.55287 0.0
H1024 H 0.33286 0.41653 0.59013 0.0
H1025 H 0.35822 0.44114 0.58749 0.0
C1026 C 0.76397 0.86866 0.36925 0.0
C1027 C 0.7517 0.87076 0.37619 0.0
C1028 C 0.76514 0.85562 0.37561 0.0
C1029 C 0.75644 0.82775 0.41595 0.0
H1030 H 0.75031 0.79678 0.37619 0.0
C1031 C 0.74223 0.7655 0.43933 0.0
C1032 C 0.74742 0.75735 0.42743 0.0
C1033 C 0.74412 0.77995 0.43294 0.0
C1034 C 0.75239 0.80541 0.38749 0.0
H1035 H 0.73144 0.8614 0.39556 0.0
H1036 H 0.73382 0.83885 0.4073 0.0
H1037 H 0.75203 0.82153 0.36562 0.0
H1038 H 0.75889 0.75803 0.39962 0.0
H1039 H 0.76285 0.78363 0.3888 0.0
H1040 H 0.75722 0.81205 0.43784 0.0
C1041 C 0.74234 0.84714 0.39674 0.0
C1042 C 0.75329 0.81954 0.38139 0.0
C1043 C 0.74094 0.85993 0.39001 0.0
C1044 C 0.75466 0.76401 0.40903 0.0
C1045 C 0.75685 0.77866 0.4028 0.0
C1046 C 0.75589 0.8138 0.42204 0.0
C1047 C 0.75431 0.84478 0.38938 0.0
C1048 C 0.75502 0.83066 0.39561 0.0
C1049 C 0.75156 0.78682 0.41466 0.0
C1050 C 0.75349 0.80226 0.40795 0.0
H1051 H 0.7723 0.87683 0.35845 0.0
H1052 H 0.77445 0.85397 0.36977 0.0
H1053 H 0.75789 0.83626 0.42713 0.0
H1054 H 0.73645 0.76058 0.45349 0.0
H1055 H 0.73949 0.78559 0.44227 0.0
C1056 C 0.25075 0.94564 0.41008 0.0
C1057 C 0.24449 0.94149 0.39062 0.0
C1058 C 0.26152 0.96132 0.4147 0.0
C1059 C 0.27666 0.00233 0.39544 0.0
H1060 H 0.31071 0.0122 0.43314 0.0
C1061 C 0.33134 0.06415 0.40245 0.0
C1062 C 0.33656 0.07004 0.42182 0.0
C1063 C 0.31932 0.04864 0.39969 0.0
C1064 C 0.30115 0.00961 0.42276 0.0
H1065 H 0.24493 0.95045 0.36063 0.0
H1066 H 0.26405 0.97768 0.3684 0.0
H1067 H 0.29173 0.98476 0.42592 0.0
H1068 H 0.33313 0.06423 0.45352 0.0
H1069 H 0.31221 0.0369 0.44863 0.0
H1070 H 0.2865 0.02725 0.39181 0.0
C1071 C 0.26031 0.96897 0.38034 0.0
C1072 C 0.29023 0.99387 0.41863 0.0
C1073 C 0.24941 0.95333 0.37581 0.0
C1074 C 0.32934 0.06006 0.43841 0.0
C1075 C 0.31745 0.04441 0.43562 0.0
C1076 C 0.28769 0.01804 0.39939 0.0
C1077 C 0.26644 0.97323 0.39991 0.0
C1078 C 0.27788 0.99 0.40478 0.0
C1079 C 0.31235 0.03854 0.41621 0.0
C1080 C 0.30011 0.02185 0.41299 0.0
H1081 H 0.24701 0.93682 0.42188 0.0
H1082 H 0.26573 0.96411 0.43 0.0
H1083 H 0.26714 0.99989 0.38507 0.0
H1084 H 0.33661 0.07152 0.38934 0.0
H1085 H 0.31573 0.04441 0.38455 0.0
C1086 C 0.12734 0.37687 0.34499 0.0
C1087 C 0.13551 0.37176 0.35768 0.0
C1088 C 0.11432 0.37755 0.35205 0.0
C1089 C 0.09551 0.37999 0.39799 0.0
H1090 H 0.05623 0.35755 0.36843 0.0
C1091 C 0.03636 0.36123 0.43514 0.0
C1092 C 0.02402 0.361 0.42388 0.0
C1093 C 0.0503 0.3643 0.42596 0.0
C1094 C 0.06714 0.36414 0.37671 0.0
H1095 H 0.13678 0.36389 0.38786 0.0
H1096 H 0.11432 0.36542 0.40024 0.0
H1097 H 0.08035 0.36033 0.35436 0.0
H1098 H 0.0168 0.36397 0.39403 0.0
H1099 H 0.04139 0.36969 0.37797 0.0
H1100 H 0.08249 0.3839 0.4203 0.0
C1101 C 0.11791 0.36879 0.38483 0.0
C1102 C 0.08095 0.36569 0.36865 0.0
C1103 C 0.13073 0.36786 0.37771 0.0
C1104 C 0.02605 0.36402 0.40314 0.0
C1105 C 0.04012 0.36723 0.39392 0.0
C1106 C 0.08178 0.37862 0.40593 0.0
C1107 C 0.10943 0.37343 0.37202 0.0
C1108 C 0.09519 0.37332 0.37943 0.0
C1109 C 0.05243 0.36739 0.40524 0.0
C1110 C 0.06732 0.37032 0.39565 0.0
H1111 H 0.1307 0.37987 0.32945 0.0
H1112 H 0.10803 0.38123 0.34189 0.0
H1113 H 0.10638 0.38614 0.40649 0.0
H1114 H 0.03521 0.35882 0.45111 0.0
H1115 H 0.05931 0.36392 0.43513 0.0
C1116 C 0.13521 0.35845 0.80563 0.0
C1117 C 0.14285 0.36285 0.82429 0.0
C1118 C 0.12577 0.36448 0.79879 0.0
C1119 C 0.11416 0.39468 0.80652 0.0
H1120 H 0.07563 0.36302 0.78117 0.0
C1121 C 0.06247 0.40491 0.78128 0.0
C1122 C 0.05688 0.39994 0.76168 0.0
C1123 C 0.07309 0.40103 0.79041 0.0
C1124 C 0.08635 0.37203 0.78813 0.0
H1125 H 0.14725 0.37759 0.8501 0.0
H1126 H 0.1304 0.38808 0.83824 0.0
H1127 H 0.09455 0.35588 0.79397 0.0
H1128 H 0.05793 0.38682 0.73648 0.0
H1129 H 0.07613 0.37991 0.75243 0.0
H1130 H 0.10568 0.41078 0.80065 0.0
C1131 C 0.1319 0.38007 0.82877 0.0
C1132 C 0.09727 0.36797 0.7954 0.0
C1133 C 0.14159 0.37414 0.83555 0.0
C1134 C 0.06196 0.39084 0.75158 0.0
C1135 C 0.07237 0.38682 0.76076 0.0
C1136 C 0.10311 0.39873 0.79931 0.0
C1137 C 0.12344 0.37486 0.8106 0.0
C1138 C 0.1115 0.37929 0.80426 0.0
C1139 C 0.07811 0.39189 0.78024 0.0
C1140 C 0.08924 0.3875 0.78966 0.0
H1141 H 0.13609 0.34986 0.79656 0.0
H1142 H 0.11988 0.36059 0.78443 0.0
H1143 H 0.12497 0.40369 0.81326 0.0
H1144 H 0.05886 0.41201 0.78944 0.0
H1145 H 0.07725 0.40503 0.80547 0.0
C1146 C 0.649 0.82105 0.79998 0.0
C1147 C 0.65809 0.82951 0.81656 0.0
C1148 C 0.64844 0.80714 0.79428 0.0
C1149 C 0.66917 0.78429 0.8011 0.0
H1150 H 0.62958 0.74985 0.78186 0.0
C1151 C 0.65668 0.72035 0.79339 0.0
C1152 C 0.64882 0.71231 0.77589 0.0
C1153 C 0.65867 0.73518 0.79738 0.0
C1154 C 0.64076 0.75943 0.787 0.0
H1155 H 0.67356 0.82996 0.84033 0.0
H1156 H 0.6723 0.80547 0.83077 0.0
H1157 H 0.63117 0.77452 0.79107 0.0
H1158 H 0.63714 0.71369 0.74869 0.0
H1159 H 0.6405 0.73952 0.75582 0.0
H1160 H 0.67856 0.76891 0.7975 0.0
C1161 C 0.66591 0.80976 0.8218 0.0
C1162 C 0.6417 0.7736 0.79224 0.0
C1163 C 0.6666 0.82376 0.82735 0.0
C1164 C 0.64324 0.71955 0.76231 0.0
C1165 C 0.64508 0.7343 0.76643 0.0
C1166 C 0.66817 0.77005 0.79604 0.0
C1167 C 0.65682 0.80125 0.80518 0.0
C1168 C 0.65591 0.78623 0.79938 0.0
C1169 C 0.6527 0.74221 0.78408 0.0
C1170 C 0.65395 0.75748 0.78895 0.0
H1171 H 0.64253 0.82533 0.79118 0.0
H1172 H 0.64157 0.8011 0.78117 0.0
H1173 H 0.68038 0.79383 0.80619 0.0
H1174 H 0.66117 0.71514 0.80413 0.0
H1175 H 0.6645 0.74096 0.81117 0.0
C1176 C 0.20981 0.93075 0.80316 0.0
C1177 C 0.2058 0.91867 0.81745 0.0
C1178 C 0.22558 0.94083 0.79801 0.0
C1179 C 0.26541 0.95539 0.81892 0.0
H1180 H 0.27946 0.97181 0.76526 0.0
C1181 C 0.32787 0.00583 0.80588 0.0
C1182 C 0.33629 0.00462 0.78982 0.0
C1183 C 0.3117 0.99571 0.80747 0.0
C1184 C 0.27572 0.96723 0.78029 0.0
H1185 H 0.2151 0.90719 0.8368 0.0
H1186 H 0.24238 0.92446 0.8276 0.0
H1187 H 0.25166 0.95268 0.77108 0.0
H1188 H 0.3342 0.99223 0.76233 0.0
H1189 H 0.30581 0.97423 0.76533 0.0
H1190 H 0.28933 0.96956 0.82816 0.0
C1191 C 0.23346 0.92647 0.82072 0.0
C1192 C 0.25978 0.9564 0.78366 0.0
C1193 C 0.21779 0.91652 0.82594 0.0
C1194 C 0.32804 0.99343 0.77491 0.0
C1195 C 0.31178 0.98316 0.77659 0.0
C1196 C 0.28125 0.96613 0.81556 0.0
C1197 C 0.2376 0.93896 0.80702 0.0
C1198 C 0.25447 0.95036 0.80304 0.0
C1199 C 0.30351 0.98399 0.79315 0.0
C1200 C 0.2866 0.97229 0.79626 0.0
H1201 H 0.20083 0.9327 0.79633 0.0
H1202 H 0.22837 0.95039 0.7875 0.0
H1203 H 0.26173 0.95118 0.83408 0.0
H1204 H 0.3338 0.01449 0.81747 0.0
H1205 H 0.30564 0.99696 0.82013 0.0
C1206 C 0.73489 0.96551 0.31191 0.0
C1207 C 0.72502 0.94922 0.30971 0.0
C1208 C 0.72899 0.97574 0.30857 0.0
C1209 C 0.6969 0.97869 0.28372 0.0
H1210 H 0.70151 0.00676 0.32682 0.0
C1211 C 0.65661 0.00484 0.28821 0.0
C1212 C 0.66337 0.02077 0.2932 0.0
C1213 C 0.66521 0.99711 0.29045 0.0
C1214 C 0.7003 0.99916 0.31453 0.0
H1215 H 0.70164 0.93085 0.3014 0.0
H1216 H 0.69139 0.94864 0.29528 0.0
H1217 H 0.71557 0.99204 0.32863 0.0
H1218 H 0.68418 0.04096 0.30525 0.0
H1219 H 0.69933 0.02746 0.30894 0.0
H1220 H 0.68163 0.98565 0.26961 0.0
C1221 C 0.70361 0.95355 0.29969 0.0
C1222 C 0.70837 0.99078 0.31555 0.0
C1223 C 0.70941 0.94337 0.30331 0.0
C1224 C 0.67866 0.02866 0.30132 0.0
C1225 C 0.68733 0.02092 0.30344 0.0
C1226 C 0.68894 0.98712 0.28263 0.0
C1227 C 0.71325 0.96979 0.30261 0.0
C1228 C 0.70645 0.98022 0.30035 0.0
C1229 C 0.6808 0.00516 0.29757 0.0
C1230 C 0.69024 0.99716 0.29824 0.0
H1231 H 0.74693 0.97024 0.31698 0.0
H1232 H 0.73666 0.98823 0.31083 0.0
H1233 H 0.6954 0.97078 0.27168 0.0
H1234 H 0.64479 0.99843 0.28211 0.0
H1235 H 0.65968 0.98484 0.28632 0.0
C1236 C 0.16523 0.82707 0.31716 0.0
C1237 C 0.16344 0.83475 0.33369 0.0
C1238 C 0.15252 0.81308 0.31002 0.0
C1239 C 0.10914 0.79097 0.30959 0.0
H1240 H 0.11383 0.75578 0.29339 0.0
C1241 C 0.05557 0.73023 0.29241 0.0
C1242 C 0.05664 0.72146 0.27667 0.0
C1243 C 0.06877 0.74414 0.29867 0.0
C1244 C 0.11235 0.76558 0.29758 0.0
H1245 H 0.14697 0.83319 0.3562 0.0
H1246 H 0.12487 0.80894 0.34369 0.0
H1247 H 0.13665 0.77962 0.30594 0.0
H1248 H 0.07248 0.72065 0.255 0.0
H1249 H 0.09547 0.74509 0.26572 0.0
H1250 H 0.08492 0.77705 0.30117 0.0
C1251 C 0.13603 0.81391 0.33601 0.0
C1252 C 0.12544 0.77923 0.30482 0.0
C1253 C 0.14873 0.82783 0.34319 0.0
C1254 C 0.07123 0.72707 0.2672 0.0
C1255 C 0.08445 0.74104 0.27344 0.0
C1256 C 0.09609 0.77737 0.30229 0.0
C1257 C 0.13771 0.80646 0.31919 0.0
C1258 C 0.12394 0.79203 0.31107 0.0
C1259 C 0.0834 0.74972 0.28932 0.0
C1260 C 0.09749 0.76444 0.29634 0.0
H1261 H 0.1763 0.83209 0.30931 0.0
H1262 H 0.15417 0.8077 0.29693 0.0
H1263 H 0.10765 0.80073 0.31391 0.0
H1264 H 0.04457 0.72625 0.30014 0.0
H1265 H 0.06756 0.75036 0.31115 0.0
C1266 C 0.22045 0.3861 0.34166 0.0
C1267 C 0.2102 0.38712 0.32756 0.0
C1268 C 0.23648 0.39279 0.33754 0.0
C1269 C 0.26334 0.40468 0.29437 0.0
H1270 H 0.29581 0.42194 0.33542 0.0
C1271 C 0.32922 0.43065 0.27633 0.0
C1272 C 0.3378 0.42619 0.28924 0.0
C1273 C 0.314 0.42715 0.28126 0.0
C1274 C 0.28685 0.41705 0.32383 0.0
H1275 H 0.20895 0.39682 0.29859 0.0
H1276 H 0.23696 0.40882 0.29163 0.0
H1277 H 0.26879 0.41444 0.34381 0.0
H1278 H 0.33719 0.41471 0.31755 0.0
H1279 H 0.31059 0.40858 0.32613 0.0
H1280 H 0.28138 0.40725 0.27443 0.0
C1281 C 0.23254 0.40248 0.30565 0.0
C1282 C 0.27136 0.41275 0.32862 0.0
C1283 C 0.21649 0.3957 0.30972 0.0
C1284 C 0.33088 0.41828 0.30727 0.0
C1285 C 0.31569 0.41487 0.31225 0.0
C1286 C 0.27882 0.40906 0.28956 0.0
C1287 C 0.24267 0.40076 0.31928 0.0
C1288 C 0.25937 0.40637 0.31399 0.0
C1289 C 0.30705 0.41921 0.29926 0.0
C1290 C 0.29073 0.41516 0.30427 0.0
H1291 H 0.21601 0.37954 0.35555 0.0
H1292 H 0.24387 0.39109 0.34833 0.0
H1293 H 0.2544 0.39952 0.2828 0.0
H1294 H 0.33424 0.4368 0.26236 0.0
H1295 H 0.30772 0.43079 0.27103 0.0
C1296 C 0.2196 0.35639 0.87435 0.0
C1297 C 0.20574 0.34549 0.88425 0.0
C1298 C 0.23393 0.35694 0.87878 0.0
C1299 C 0.24786 0.33066 0.89897 0.0
H1300 H 0.28885 0.36827 0.90258 0.0
C1301 C 0.30142 0.32836 0.93042 0.0
C1302 C 0.31603 0.33739 0.92098 0.0
C1303 C 0.2886 0.3302 0.92512 0.0
C1304 C 0.2775 0.35766 0.90138 0.0
H1305 H 0.19625 0.32753 0.90755 0.0
H1306 H 0.22105 0.32874 0.91555 0.0
H1307 H 0.26551 0.37061 0.89546 0.0
H1308 H 0.32864 0.35557 0.89855 0.0
H1309 H 0.30611 0.35873 0.8892 0.0
H1310 H 0.25966 0.31767 0.90489 0.0
C1311 C 0.22089 0.33653 0.90395 0.0
C1312 C 0.26413 0.35901 0.89733 0.0
C1313 C 0.20668 0.33592 0.89948 0.0
C1314 C 0.31751 0.34838 0.9061 0.0
C1315 C 0.30465 0.35028 0.90082 0.0
C1316 C 0.26114 0.32932 0.90301 0.0
C1317 C 0.23459 0.34661 0.8932 0.0
C1318 C 0.2491 0.34551 0.89643 0.0
C1319 C 0.29 0.34115 0.91023 0.0
C1320 C 0.27611 0.34278 0.9046 0.0
H1321 H 0.21922 0.36385 0.86246 0.0
H1322 H 0.24427 0.36487 0.87024 0.0
H1323 H 0.23655 0.31998 0.89782 0.0
H1324 H 0.29986 0.31985 0.94201 0.0
H1325 H 0.27758 0.32314 0.93293 0.0
C1326 C 0.66282 0.93892 0.8692 0.0
C1327 C 0.67437 0.93447 0.87035 0.0
C1328 C 0.66637 0.95404 0.87459 0.0
C1329 C 0.69325 0.98825 0.90459 0.0
H1330 H 0.67843 0.01008 0.86951 0.0
C1331 C 0.70622 0.05246 0.91796 0.0
C1332 C 0.69377 0.05526 0.91345 0.0
C1333 C 0.70498 0.03798 0.9133 0.0
C1334 C 0.68252 0.0041 0.8796 0.0
H1335 H 0.69863 0.9423 0.8785 0.0
H1336 H 0.70483 0.96881 0.88799 0.0
H1337 H 0.67414 0.98438 0.86013 0.0
H1338 H 0.66997 0.04473 0.90157 0.0
H1339 H 0.66772 0.01964 0.89395 0.0
H1340 H 0.70135 0.00792 0.92428 0.0
C1341 C 0.69304 0.96056 0.88285 0.0
C1342 C 0.68008 0.98938 0.87418 0.0
C1343 C 0.68953 0.94545 0.87724 0.0
C1344 C 0.67989 0.0431 0.90497 0.0
C1345 C 0.67863 0.0287 0.90046 0.0
C1346 C 0.69561 0.003 0.91011 0.0
C1347 C 0.68152 0.96504 0.88142 0.0
C1348 C 0.68517 0.98116 0.88675 0.0
C1349 C 0.69126 0.02605 0.90411 0.0
C1350 C 0.68998 0.01096 0.89784 0.0
H1351 H 0.65109 0.93079 0.86381 0.0
H1352 H 0.65719 0.9571 0.87353 0.0
H1353 H 0.69726 0.98215 0.9146 0.0
H1354 H 0.71706 0.0616 0.92449 0.0
H1355 H 0.71493 0.03632 0.9163 0.0
C1356 C 0.13012 0.8648 0.86396 0.0
C1357 C 0.12648 0.87626 0.85745 0.0
C1358 C 0.11839 0.84995 0.87046 0.0
C1359 C 0.07898 0.82862 0.89185 0.0
H1360 H 0.0772 0.79187 0.86848 0.0
C1361 C 0.02662 0.76551 0.90508 0.0
C1362 C 0.02958 0.75291 0.90494 0.0
C1363 C 0.03861 0.78084 0.90058 0.0
C1364 C 0.07766 0.80195 0.87551 0.0
H1365 H 0.10723 0.88106 0.85345 0.0
H1366 H 0.0868 0.85528 0.86524 0.0
H1367 H 0.09778 0.818 0.85832 0.0
H1368 H 0.04763 0.7466 0.90116 0.0
H1369 H 0.06864 0.77328 0.89428 0.0
H1370 H 0.05912 0.81265 0.90942 0.0
C1371 C 0.09887 0.8578 0.86503 0.0
C1372 C 0.08942 0.81694 0.86955 0.0
C1373 C 0.11063 0.87257 0.85821 0.0
C1374 C 0.04493 0.75604 0.90113 0.0
C1375 C 0.05696 0.77136 0.897 0.0
C1376 C 0.06733 0.8136 0.89807 0.0
C1377 C 0.10264 0.84629 0.87104 0.0
C1378 C 0.09018 0.83042 0.8776 0.0
C1379 C 0.05391 0.78394 0.89616 0.0
C1380 C 0.06648 0.80003 0.88995 0.0
H1381 H 0.14198 0.86724 0.86424 0.0
H1382 H 0.12169 0.84139 0.87529 0.0
H1383 H 0.0794 0.83885 0.89842 0.0
H1384 H 0.01488 0.76345 0.90783 0.0
H1385 H 0.03571 0.79013 0.89989 0.0
C1386 C 0.42841 0.19792 0.71481 0.0
C1387 C 0.42122 0.20459 0.72598 0.0
C1388 C 0.4273 0.18371 0.72097 0.0
C1389 C 0.41948 0.15733 0.76425 0.0
H1390 H 0.40314 0.12396 0.72509 0.0
C1391 C 0.3955 0.09284 0.78795 0.0
C1392 C 0.39815 0.08304 0.77545 0.0
C1393 C 0.39926 0.10794 0.78158 0.0
C1394 C 0.40796 0.13319 0.73615 0.0
H1395 H 0.40791 0.20211 0.75271 0.0
H1396 H 0.40618 0.17739 0.76371 0.0
H1397 H 0.40908 0.15036 0.71494 0.0
H1398 H 0.40681 0.08137 0.74641 0.0
H1399 H 0.41379 0.10791 0.73545 0.0
H1400 H 0.41854 0.14032 0.78545 0.0
C1401 C 0.41257 0.18309 0.75015 0.0
C1402 C 0.41134 0.1483 0.73031 0.0
C1403 C 0.41348 0.19715 0.74383 0.0
C1404 C 0.40454 0.08862 0.75634 0.0
C1405 C 0.40849 0.10382 0.75004 0.0
C1406 C 0.41628 0.14227 0.77004 0.0
C1407 C 0.4192 0.17608 0.73857 0.0
C1408 C 0.41691 0.16044 0.74439 0.0
C1409 C 0.40597 0.1137 0.76264 0.0
C1410 C 0.41024 0.12994 0.75614 0.0
H1411 H 0.4343 0.20334 0.70088 0.0
H1412 H 0.43258 0.17857 0.71185 0.0
H1413 H 0.42393 0.16654 0.77534 0.0
H1414 H 0.39045 0.08885 0.80269 0.0
H1415 H 0.39679 0.11504 0.7915 0.0
C1416 C 0.86678 0.26242 0.72051 0.0
C1417 C 0.86335 0.25576 0.70128 0.0
C1418 C 0.87935 0.2777 0.72357 0.0
C1419 C 0.91743 0.30586 0.70084 0.0
H1420 H 0.91803 0.33517 0.73957 0.0
C1421 C 0.9715 0.36755 0.70867 0.0
C1422 C 0.97645 0.37385 0.72794 0.0
C1423 C 0.95701 0.3539 0.70568 0.0
C1424 C 0.91812 0.32705 0.72885 0.0
H1425 H 0.86994 0.2605 0.66996 0.0
H1426 H 0.89166 0.28717 0.67525 0.0
H1427 H 0.89362 0.31044 0.73334 0.0
H1428 H 0.96968 0.37079 0.75917 0.0
H1429 H 0.94436 0.34666 0.75401 0.0
H1430 H 0.94188 0.32215 0.69654 0.0
C1431 C 0.88481 0.28044 0.68807 0.0
C1432 C 0.90409 0.31288 0.72523 0.0
C1433 C 0.87222 0.26517 0.685 0.0
C1434 C 0.96626 0.36627 0.74414 0.0
C1435 C 0.95171 0.35247 0.74114 0.0
C1436 C 0.93141 0.31993 0.7045 0.0
C1437 C 0.88886 0.28674 0.70749 0.0
C1438 C 0.90355 0.30212 0.71109 0.0
C1439 C 0.94699 0.34597 0.72187 0.0
C1440 C 0.93198 0.33081 0.71847 0.0
H1441 H 0.86023 0.25555 0.73343 0.0
H1442 H 0.88211 0.28209 0.73873 0.0
H1443 H 0.91763 0.29772 0.69024 0.0
H1444 H 0.97887 0.37312 0.69574 0.0
H1445 H 0.95369 0.34956 0.69055 0.0
C1446 C 0.79362 0.69308 0.67045 0.0
C1447 C 0.80171 0.68786 0.68311 0.0
C1448 C 0.77969 0.69229 0.67679 0.0
C1449 C 0.75737 0.68963 0.72203 0.0
H1450 H 0.72063 0.67022 0.6873 0.0
C1451 C 0.69561 0.66826 0.75266 0.0
C1452 C 0.68471 0.67022 0.74086 0.0
C1453 C 0.70994 0.67128 0.7447 0.0
C1454 C 0.73082 0.6759 0.69707 0.0
H1455 H 0.80175 0.67811 0.71252 0.0
H1456 H 0.77764 0.67693 0.72362 0.0
H1457 H 0.74592 0.67462 0.67516 0.0
H1458 H 0.68029 0.67671 0.71127 0.0
H1459 H 0.70553 0.68226 0.6974 0.0
H1460 H 0.74245 0.69099 0.74393 0.0
C1461 C 0.78202 0.68161 0.7088 0.0
C1462 C 0.7453 0.6784 0.69012 0.0
C1463 C 0.79581 0.68223 0.7024 0.0
C1464 C 0.68842 0.67506 0.72075 0.0
C1465 C 0.70286 0.67819 0.71279 0.0
C1466 C 0.74297 0.68725 0.72892 0.0
C1467 C 0.77371 0.68647 0.696 0.0
C1468 C 0.75867 0.68504 0.70266 0.0
C1469 C 0.71387 0.67648 0.72476 0.0
C1470 C 0.72942 0.68007 0.7167 0.0
H1471 H 0.79782 0.69742 0.65546 0.0
H1472 H 0.77359 0.69621 0.66666 0.0
H1473 H 0.76752 0.69502 0.73192 0.0
H1474 H 0.69311 0.66438 0.76814 0.0
H1475 H 0.71791 0.66944 0.75424 0.0
C1476 C 0.80876 0.71454 0.11538 0.0
C1477 C 0.81541 0.71472 0.13422 0.0
C1478 C 0.80115 0.72316 0.11186 0.0
C1479 C 0.77823 0.73761 0.13664 0.0
H1480 H 0.78384 0.76042 0.08659 0.0
C1481 C 0.73895 0.76462 0.11239 0.0
C1482 C 0.73451 0.76289 0.09202 0.0
C1483 C 0.75019 0.76072 0.11938 0.0
C1484 C 0.78201 0.754 0.1006 0.0
H1485 H 0.81948 0.72424 0.16415 0.0
H1486 H 0.80578 0.73923 0.15806 0.0
H1487 H 0.80161 0.75064 0.09537 0.0
H1488 H 0.73819 0.75528 0.06324 0.0
H1489 H 0.75727 0.7483 0.07536 0.0
H1490 H 0.75817 0.74039 0.14143 0.0
C1491 C 0.80667 0.73249 0.14598 0.0
C1492 C 0.79228 0.74849 0.10567 0.0
C1493 C 0.81463 0.72406 0.1494 0.0
C1494 C 0.74139 0.75696 0.07897 0.0
C1495 C 0.75249 0.75305 0.08592 0.0
C1496 C 0.76782 0.74304 0.13147 0.0
C1497 C 0.79973 0.73199 0.12719 0.0
C1498 C 0.79029 0.73988 0.12349 0.0
C1499 C 0.75722 0.75502 0.10615 0.0
C1500 C 0.76931 0.75092 0.11308 0.0
H1501 H 0.80912 0.70739 0.10342 0.0
H1502 H 0.7958 0.72239 0.09729 0.0
H1503 H 0.77634 0.73093 0.15042 0.0
H1504 H 0.73391 0.76915 0.12287 0.0
H1505 H 0.75356 0.76242 0.13506 0.0
C1506 C 0.3775 0.17151 0.17932 0.0
C1507 C 0.38245 0.18276 0.16373 0.0
C1508 C 0.37045 0.15548 0.1751 0.0
C1509 C 0.34807 0.12674 0.13588 0.0
H1510 H 0.35818 0.09938 0.16739 0.0
C1511 C 0.32092 0.05983 0.1199 0.0
C1512 C 0.31747 0.04978 0.13667 0.0
C1513 C 0.32898 0.07622 0.12223 0.0
C1514 C 0.35506 0.1068 0.15859 0.0
H1515 H 0.38398 0.18593 0.13144 0.0
H1516 H 0.37176 0.15791 0.12407 0.0
H1517 H 0.37251 0.12759 0.17329 0.0
H1518 H 0.31909 0.04911 0.16911 0.0
H1519 H 0.33266 0.07742 0.17316 0.0
H1520 H 0.3304 0.10589 0.12142 0.0
C1521 C 0.37329 0.16153 0.13957 0.0
C1522 C 0.36333 0.123 0.16195 0.0
C1523 C 0.38047 0.1776 0.1438 0.0
C1524 C 0.32172 0.05647 0.15582 0.0
C1525 C 0.32964 0.07277 0.15814 0.0
C1526 C 0.33971 0.11049 0.13259 0.0
C1527 C 0.36808 0.15028 0.15517 0.0
C1528 C 0.35984 0.13315 0.15078 0.0
C1529 C 0.33367 0.08289 0.14139 0.0
C1530 C 0.34297 0.10028 0.14408 0.0
H1531 H 0.37893 0.17513 0.1948 0.0
H1532 H 0.36647 0.14711 0.18747 0.0
H1533 H 0.345 0.13424 0.12716 0.0
H1534 H 0.31786 0.05506 0.10494 0.0
H1535 H 0.33194 0.08365 0.10897 0.0
C1536 C 0.8866 0.25232 0.16612 0.0
C1537 C 0.87527 0.2456 0.15079 0.0
C1538 C 0.9026 0.25975 0.16171 0.0
C1539 C 0.92895 0.28109 0.12032 0.0
H1540 H 0.96088 0.2828 0.1568 0.0
C1541 C 0.9952 0.32357 0.10736 0.0
C1542 C 0.00372 0.33207 0.12428 0.0
C1543 C 0.97995 0.3108 0.10936 0.0
C1544 C 0.95209 0.28246 0.14649 0.0
H1545 H 0.87182 0.24042 0.11903 0.0
H1546 H 0.89984 0.25333 0.11138 0.0
H1547 H 0.93327 0.26335 0.16242 0.0
H1548 H 0.00295 0.33365 0.15662 0.0
H1549 H 0.97634 0.31153 0.16003 0.0
H1550 H 0.94769 0.30049 0.10474 0.0
C1551 C 0.8963 0.25305 0.12675 0.0
C1552 C 0.9363 0.27131 0.14968 0.0
C1553 C 0.88026 0.24557 0.13117 0.0
C1554 C 0.99673 0.32738 0.14326 0.0
C1555 C 0.98152 0.3146 0.14525 0.0
C1556 C 0.94474 0.29222 0.11711 0.0
C1557 C 0.90764 0.26063 0.14189 0.0
C1558 C 0.92452 0.27076 0.1369 0.0
C1559 C 0.97293 0.30623 0.12832 0.0
C1560 C 0.95644 0.29327 0.13044 0.0
H1561 H 0.88316 0.25249 0.18142 0.0
H1562 H 0.91101 0.26558 0.17371 0.0
H1563 H 0.92016 0.28114 0.11036 0.0
H1564 H 0.00026 0.32682 0.09252 0.0
H1565 H 0.97367 0.30449 0.09605 0.0
C1566 C 0.39693 0.29959 0.67444 0.0
C1567 C 0.39324 0.28495 0.66653 0.0
C1568 C 0.388 0.3066 0.66903 0.0
C1569 C 0.34826 0.29534 0.65076 0.0
H1570 H 0.36548 0.34021 0.64283 0.0
C1571 C 0.31127 0.32229 0.62124 0.0
C1572 C 0.31401 0.33642 0.6298 0.0
C1573 C 0.32086 0.31597 0.62627 0.0
C1574 C 0.3605 0.32767 0.64525 0.0
H1575 H 0.3782 0.26677 0.6457 0.0
H1576 H 0.36277 0.27908 0.636 0.0
H1577 H 0.38321 0.32987 0.64919 0.0
H1578 H 0.32855 0.35473 0.65089 0.0
H1579 H 0.3452 0.34359 0.65979 0.0
H1580 H 0.32556 0.29311 0.64681 0.0
C1581 C 0.37224 0.28494 0.64679 0.0
C1582 C 0.37065 0.32176 0.64884 0.0
C1583 C 0.3811 0.27793 0.65225 0.0
C1584 C 0.32619 0.34384 0.64398 0.0
C1585 C 0.3358 0.33754 0.64897 0.0
C1586 C 0.33813 0.30124 0.64715 0.0
C1587 C 0.37528 0.29911 0.65557 0.0
C1588 C 0.36464 0.30552 0.65154 0.0
C1589 C 0.33338 0.32367 0.63994 0.0
C1590 C 0.34413 0.31746 0.64431 0.0
H1591 H 0.40612 0.30518 0.68562 0.0
H1592 H 0.39058 0.31749 0.67613 0.0
H1593 H 0.34323 0.2828 0.65323 0.0
H1594 H 0.30199 0.31631 0.61024 0.0
H1595 H 0.31878 0.30532 0.61895 0.0
C1596 C 0.79796 0.16773 0.65027 0.0
C1597 C 0.81328 0.17026 0.64794 0.0
C1598 C 0.78491 0.1539 0.64308 0.0
C1599 C 0.7734 0.12019 0.60859 0.0
H1600 H 0.73842 0.09758 0.64484 0.0
C1601 C 0.72626 0.05428 0.59763 0.0
C1602 C 0.7107 0.04935 0.60325 0.0
C1603 C 0.73842 0.06968 0.60153 0.0
C1604 C 0.74795 0.1038 0.63433 0.0
H1605 H 0.82688 0.16056 0.63545 0.0
H1606 H 0.80435 0.13676 0.62296 0.0
H1607 H 0.75975 0.1236 0.65379 0.0
H1608 H 0.69573 0.05709 0.61668 0.0
H1609 H 0.71666 0.08375 0.623 0.0
H1610 H 0.76167 0.10036 0.58917 0.0
C1611 C 0.8023 0.14534 0.63027 0.0
C1612 C 0.7602 0.11878 0.6395 0.0
C1613 C 0.81525 0.159 0.63759 0.0
C1614 C 0.70757 0.06035 0.61232 0.0
C1615 C 0.71964 0.07569 0.61609 0.0
C1616 C 0.76111 0.10523 0.60337 0.0
C1617 C 0.78693 0.14244 0.63319 0.0
C1618 C 0.77319 0.12712 0.62681 0.0
C1619 C 0.7353 0.08055 0.61106 0.0
C1620 C 0.74826 0.09674 0.61625 0.0
H1621 H 0.79604 0.17614 0.65823 0.0
H1622 H 0.77322 0.1521 0.64544 0.0
H1623 H 0.78313 0.12635 0.59832 0.0
H1624 H 0.72912 0.04614 0.59068 0.0
H1625 H 0.75033 0.07291 0.59757 0.0
C1626 C 0.88303 0.71959 0.63295 0.0
C1627 C 0.87796 0.7111 0.65108 0.0
C1628 C 0.89903 0.72795 0.62818 0.0
C1629 C 0.9394 0.74225 0.64947 0.0
H1630 H 0.94915 0.73823 0.59454 0.0
C1631 C -0.00048 0.7509 0.62465 0.0
C1632 C 0.0059 0.75935 0.60675 0.0
C1633 C 0.98437 0.74701 0.63055 0.0
C1634 C 0.94664 0.73963 0.60988 0.0
H1635 H 0.88584 0.70532 0.67884 0.0
H1636 H 0.91357 0.71947 0.67036 0.0
H1637 H 0.92192 0.72827 0.60407 0.0
H1638 H 0.00149 0.77054 0.58113 0.0
H1639 H 0.97495 0.76357 0.59132 0.0
H1640 H 0.96418 0.75307 0.65531 0.0
C1641 C 0.90529 0.71997 0.6599 0.0
C1642 C 0.93101 0.73399 0.61536 0.0
C1643 C 0.88932 0.71176 0.66475 0.0
C1644 C 0.99689 0.764 0.59499 0.0
C1645 C 0.98168 0.75996 0.60078 0.0
C1646 C 0.95502 0.74775 0.64402 0.0
C1647 C 0.91034 0.72789 0.64135 0.0
C1648 C 0.92714 0.73507 0.63528 0.0
C1649 C 0.97522 0.75136 0.61856 0.0
C1650 C 0.95878 0.74636 0.6242 0.0
H1651 H 0.87459 0.71943 0.62216 0.0
H1652 H 0.90249 0.7342 0.61397 0.0
H1653 H 0.93693 0.74356 0.66486 0.0
H1654 H 0.00619 0.74718 0.63405 0.0
H1655 H 0.97965 0.74025 0.64423 0.0
C1656 C 0.87214 0.67341 0.19721 0.0
C1657 C 0.87262 0.68532 0.18472 0.0
C1658 C 0.88594 0.67361 0.20308 0.0
C1659 C 0.9296 0.69822 0.20564 0.0
H1660 H 0.92685 0.65738 0.20597 0.0
C1661 C 0.98419 0.68988 0.21427 0.0
C1662 C 0.98253 0.67757 0.22701 0.0
C1663 C 0.97117 0.69154 0.20922 0.0
C1664 C 0.92781 0.66886 0.20616 0.0
H1665 H 0.88809 0.70717 0.1692 0.0
H1666 H 0.91239 0.70743 0.17919 0.0
H1667 H 0.90379 0.65939 0.19729 0.0
H1668 H 0.96583 0.65737 0.24447 0.0
H1669 H 0.94315 0.6602 0.23561 0.0
H1670 H 0.95379 0.70764 0.21428 0.0
C1671 C 0.90126 0.69799 0.18466 0.0
C1672 C 0.91454 0.67004 0.20122 0.0
C1673 C 0.88735 0.69787 0.17892 0.0
C1674 C 0.96753 0.66695 0.23456 0.0
C1675 C 0.95451 0.66854 0.22941 0.0
C1676 C 0.94294 0.69705 0.21049 0.0
C1677 C 0.90069 0.68562 0.19641 0.0
C1678 C 0.91516 0.6847 0.20111 0.0
C1679 C 0.95614 0.68084 0.21666 0.0
C1680 C 0.94216 0.68231 0.211 0.0
H1681 H 0.86099 0.66367 0.20217 0.0
H1682 H 0.885 0.66415 0.21263 0.0
H1683 H 0.93052 0.70969 0.20586 0.0
H1684 H 0.99558 0.69829 0.20821 0.0
H1685 H 0.97282 0.70106 0.19923 0.0
C1686 C 0.4168 0.30395 0.22241 0.0
C1687 C 0.40303 0.28964 0.21834 0.0
C1688 C 0.41592 0.3167 0.2301 0.0
C1689 C 0.38785 0.32668 0.2542 0.0
H1690 H 0.41591 0.36865 0.23346 0.0
C1691 C 0.37317 0.37657 0.25421 0.0
C1692 C 0.385 0.39171 0.25982 0.0
C1693 C 0.37654 0.36442 0.2522 0.0
C1694 C 0.40814 0.35703 0.23961 0.0
H1695 H 0.37753 0.27773 0.21869 0.0
H1696 H 0.37598 0.29979 0.23167 0.0
H1697 H 0.41975 0.34686 0.224 0.0
H1698 H 0.40963 0.40589 0.26797 0.0
H1699 H 0.41561 0.3846 0.26402 0.0
H1700 H 0.37582 0.33677 0.26904 0.0
C1701 C 0.38751 0.30112 0.22962 0.0
C1702 C 0.41035 0.34453 0.23424 0.0
C1703 C 0.38839 0.2884 0.22211 0.0
C1704 C 0.40025 0.39434 0.26371 0.0
C1705 C 0.4037 0.3822 0.26134 0.0
C1706 C 0.38554 0.33912 0.25936 0.0
C1707 C 0.40124 0.31547 0.23375 0.0
C1708 C 0.40002 0.32911 0.24112 0.0
C1709 C 0.39188 0.36714 0.25545 0.0
C1710 C 0.39547 0.35437 0.25182 0.0
H1711 H 0.42824 0.30523 0.21974 0.0
H1712 H 0.42676 0.3275 0.23327 0.0
H1713 H 0.3799 0.31508 0.26025 0.0
H1714 H 0.3613 0.37414 0.25114 0.0
H1715 H 0.36722 0.35297 0.24747 0.0
C1716 C 0.7959 0.19274 0.20233 0.0
C1717 C 0.7955 0.20669 0.20521 0.0
C1718 C 0.78308 0.1782 0.20783 0.0
C1719 C 0.7404 0.15936 0.21689 0.0
H1720 H 0.74548 0.12543 0.2393 0.0
C1721 C 0.68814 0.10088 0.24563 0.0
C1722 C 0.68804 0.087 0.2404 0.0
C1723 C 0.70131 0.11559 0.24171 0.0
C1724 C 0.7439 0.13477 0.23289 0.0
H1725 H 0.7817 0.21641 0.21696 0.0
H1726 H 0.75954 0.19112 0.22692 0.0
H1727 H 0.76868 0.151 0.23265 0.0
H1728 H 0.70165 0.07774 0.22675 0.0
H1729 H 0.72454 0.10339 0.21988 0.0
H1730 H 0.71562 0.14313 0.21719 0.0
C1731 C 0.76955 0.19135 0.21996 0.0
C1732 C 0.75718 0.1494 0.22908 0.0
C1733 C 0.7823 0.20586 0.21437 0.0
C1734 C 0.70133 0.08818 0.231 0.0
C1735 C 0.7145 0.10287 0.22718 0.0
C1736 C 0.72714 0.14476 0.22079 0.0
C1737 C 0.76966 0.17733 0.21641 0.0
C1738 C 0.75558 0.16186 0.22098 0.0
C1739 C 0.71466 0.11672 0.23259 0.0
C1740 C 0.72874 0.13229 0.22875 0.0
H1741 H 0.80589 0.193 0.19524 0.0
H1742 H 0.78349 0.16761 0.20472 0.0
H1743 H 0.73876 0.16861 0.2103 0.0
H1744 H 0.67812 0.1004 0.25292 0.0
H1745 H 0.70115 0.12607 0.24618 0.0
C1746 C 0.06159 0.5329 0.92714 0.0
C1747 C 0.04913 0.5316 0.93872 0.0
C1748 C 0.05871 0.52264 0.91125 0.0
C1749 C 0.02852 0.48389 0.89092 0.0
H1750 H 0.05293 0.49973 0.84227 0.0
C1751 C 0.01408 0.44687 0.81835 0.0
C1752 C 0.02693 0.4481 0.80775 0.0
C1753 C 0.0165 0.45676 0.83458 0.0
C1754 C 0.04611 0.49506 0.85582 0.0
H1755 H 0.02379 0.51865 0.94223 0.0
H1756 H 0.01875 0.50089 0.91452 0.0
H1757 H 0.05774 0.5176 0.8698 0.0
H1758 H 0.05242 0.46052 0.80616 0.0
H1759 H 0.0566 0.4776 0.83438 0.0
H1760 H 0.01683 0.46135 0.87679 0.0
C1761 C 0.03082 0.50961 0.91798 0.0
C1762 C 0.04889 0.50533 0.87166 0.0
C1763 C 0.0337 0.51983 0.9339 0.0
C1764 C 0.04223 0.45927 0.81392 0.0
C1765 C 0.04464 0.46916 0.83004 0.0
C1766 C 0.02571 0.47363 0.87503 0.0
C1767 C 0.04328 0.51083 0.90644 0.0
C1768 C 0.04019 0.49988 0.88947 0.0
C1769 C 0.03182 0.46814 0.8405 0.0
C1770 C 0.03452 0.47907 0.85731 0.0
H1771 H 0.07363 0.54168 0.93058 0.0
H1772 H 0.06864 0.5238 0.90294 0.0
H1773 H 0.02174 0.47919 0.90449 0.0
H1774 H 0.00214 0.43841 0.81396 0.0
H1775 H 0.00635 0.45572 0.84221 0.0
C1776 C 0.52846 0.58964 0.92269 0.0
C1777 C 0.53204 0.58104 0.93678 0.0
C1778 C 0.53676 0.59495 0.90477 0.0
C1779 C 0.57413 0.60442 0.88097 0.0
H1780 H 0.55139 0.6019 0.83186 0.0
C1781 C 0.60534 0.62432 0.80432 0.0
C1782 C 0.60103 0.6334 0.79211 0.0
C1783 C 0.59658 0.61651 0.82135 0.0
C1784 C 0.55794 0.60279 0.84546 0.0
H1785 H 0.54725 0.57129 0.94288 0.0
H1786 H 0.56183 0.58066 0.91159 0.0
H1787 H 0.53696 0.59116 0.86295 0.0
H1788 H 0.58395 0.6411 0.78797 0.0
H1789 H 0.56879 0.62764 0.81769 0.0
H1790 H 0.59514 0.61629 0.86353 0.0
C1791 C 0.55263 0.58338 0.91456 0.0
C1792 C 0.54966 0.59664 0.86328 0.0
C1793 C 0.54428 0.57802 0.93252 0.0
C1794 C 0.58757 0.63419 0.79703 0.0
C1795 C 0.57883 0.62639 0.81404 0.0
C1796 C 0.58242 0.61061 0.86313 0.0
C1797 C 0.5489 0.59183 0.90044 0.0
C1798 C 0.55767 0.59756 0.8813 0.0
C1799 C 0.58331 0.61759 0.82653 0.0
C1800 C 0.57443 0.61004 0.8452 0.0
H1801 H 0.51935 0.59249 0.92559 0.0
H1802 H 0.5338 0.60171 0.8944 0.0
H1803 H 0.58067 0.60545 0.89463 0.0
H1804 H 0.61564 0.62345 0.8009 0.0
H1805 H 0.60024 0.60967 0.83051 0.0
C1806 C 0.46966 0.98877 0.93581 0.0
C1807 C 0.46369 0.98782 0.95511 0.0
C1808 C 0.46156 0.98971 0.91893 0.0
C1809 C 0.43392 0.00319 0.90517 0.0
H1810 H 0.43315 0.98528 0.85352 0.0
C1811 C 0.40619 0.99941 0.82112 0.0
C1812 C 0.4102 0.01524 0.81865 0.0
C1813 C 0.41198 0.99474 0.83752 0.0
C1814 C 0.43315 0.99024 0.86789 0.0
H1815 H 0.44402 0.98591 0.97179 0.0
H1816 H 0.42979 0.9874 0.94233 0.0
H1817 H 0.44358 0.97816 0.88288 0.0
H1818 H 0.4237 0.03865 0.83108 0.0
H1819 H 0.43388 0.03051 0.8595 0.0
H1820 H 0.42347 0.01522 0.89032 0.0
C1821 C 0.44092 0.98781 0.94026 0.0
C1822 C 0.43923 0.98627 0.88465 0.0
C1823 C 0.44904 0.98693 0.95712 0.0
C1824 C 0.42031 0.02633 0.83265 0.0
C1825 C 0.42607 0.02167 0.84901 0.0
C1826 C 0.42787 0.00716 0.88846 0.0
C1827 C 0.4473 0.98966 0.92102 0.0
C1828 C 0.43981 0.99282 0.90344 0.0
C1829 C 0.42185 0.0058 0.85175 0.0
C1830 C 0.4276 0.00089 0.86959 0.0
H1831 H 0.48098 0.98963 0.93377 0.0
H1832 H 0.46688 0.99128 0.90434 0.0
H1833 H 0.43437 0.00861 0.91935 0.0
H1834 H 0.39844 0.99062 0.81057 0.0
H1835 H 0.40845 0.98241 0.8393 0.0
C1836 C 0.49308 0.02269 0.6124 0.0
C1837 C 0.49952 0.03519 0.5985 0.0
C1838 C 0.48205 0.02152 0.62639 0.0
C1839 C 0.45493 0.03705 0.6365 0.0
H1840 H 0.4524 0.01847 0.68905 0.0
C1841 C 0.42292 0.04311 0.70527 0.0
C1842 C 0.41253 0.02905 0.71532 0.0
C1843 C 0.43229 0.04307 0.68974 0.0
C1844 C 0.45291 0.02354 0.67433 0.0
H1845 H 0.50006 0.05656 0.58869 0.0
H1846 H 0.48153 0.05512 0.61374 0.0
H1847 H 0.47213 0.02069 0.6654 0.0
H1848 H 0.40356 0.00389 0.71681 0.0
H1849 H 0.42038 0.00393 0.68995 0.0
H1850 H 0.43615 0.04058 0.64608 0.0
C1851 C 0.48439 0.0458 0.61344 0.0
C1852 C 0.46417 0.02478 0.66071 0.0
C1853 C 0.49514 0.04676 0.59921 0.0
C1854 C 0.4114 0.01488 0.70922 0.0
C1855 C 0.42105 0.0149 0.69398 0.0
C1856 C 0.4439 0.03611 0.6503 0.0
C1857 C 0.47746 0.03301 0.62703 0.0
C1858 C 0.46537 0.03158 0.64158 0.0
C1859 C 0.43169 0.02903 0.68429 0.0
C1860 C 0.4428 0.02935 0.66931 0.0
H1861 H 0.49609 0.01348 0.61191 0.0
H1862 H 0.47684 0.01134 0.63629 0.0
H1863 H 0.45516 0.042 0.6218 0.0
H1864 H 0.42402 0.0542 0.70968 0.0
H1865 H 0.44047 0.05411 0.68252 0.0
C1866 C 0.044 0.53685 0.58609 0.0
C1867 C 0.05723 0.54188 0.57379 0.0
C1868 C 0.04137 0.52668 0.60236 0.0
C1869 C 0.05162 0.49738 0.62186 0.0
H1870 H 0.03458 0.50237 0.67149 0.0
C1871 C 0.04478 0.45958 0.6926 0.0
C1872 C 0.03093 0.45409 0.70377 0.0
C1873 C 0.04834 0.47057 0.67704 0.0
C1874 C 0.03918 0.50071 0.65766 0.0
H1875 H 0.07818 0.5402 0.56927 0.0
H1876 H 0.07376 0.5227 0.59788 0.0
H1877 H 0.04047 0.52127 0.64413 0.0
H1878 H 0.00996 0.45587 0.70735 0.0
H1879 H 0.0161 0.47498 0.68011 0.0
H1880 H 0.0503 0.47681 0.63539 0.0
C1881 C 0.06529 0.52648 0.59474 0.0
C1882 C 0.04258 0.51156 0.64196 0.0
C1883 C 0.06792 0.53667 0.57844 0.0
C1884 C 0.02073 0.45988 0.69906 0.0
C1885 C 0.02431 0.47091 0.68352 0.0
C1886 C 0.04824 0.48655 0.63757 0.0
C1887 C 0.05191 0.52127 0.60684 0.0
C1888 C 0.04877 0.51 0.62381 0.0
C1889 C 0.03815 0.47638 0.67229 0.0
C1890 C 0.04192 0.48804 0.65565 0.0
H1891 H 0.03561 0.54076 0.58317 0.0
H1892 H 0.03087 0.52282 0.61121 0.0
H1893 H 0.05614 0.49566 0.608 0.0
H1894 H 0.05292 0.4554 0.69587 0.0
H1895 H 0.05919 0.47467 0.66889 0.0
C1896 C 0.52967 0.5966 0.56031 0.0
C1897 C 0.53564 0.58781 0.55138 0.0
C1898 C 0.53864 0.60793 0.57479 0.0
C1899 C 0.5794 0.63039 0.59613 0.0
H1900 H 0.55845 0.62701 0.6463 0.0
C1901 C 0.61046 0.64235 0.67264 0.0
C1902 C 0.6078 0.65137 0.68649 0.0
C1903 C 0.60199 0.63781 0.65464 0.0
C1904 C 0.56443 0.62828 0.63229 0.0
H1905 H 0.55594 0.58464 0.5496 0.0
H1906 H 0.57131 0.60401 0.57453 0.0
H1907 H 0.5428 0.61383 0.61657 0.0
H1908 H 0.59415 0.66272 0.69233 0.0
H1909 H 0.57902 0.65441 0.66097 0.0
H1910 H 0.60104 0.64402 0.61218 0.0
C1911 C 0.55986 0.60239 0.57054 0.0
C1912 C 0.55547 0.6208 0.61522 0.0
C1913 C 0.55093 0.59111 0.55635 0.0
C1914 C 0.59651 0.65582 0.6819 0.0
C1915 C 0.58781 0.65103 0.66403 0.0
C1916 C 0.58833 0.63768 0.6132 0.0
C1917 C 0.55377 0.61076 0.58027 0.0
C1918 C 0.56289 0.6213 0.59712 0.0
C1919 C 0.59048 0.64198 0.65023 0.0
C1920 C 0.58095 0.63628 0.63159 0.0
H1921 H 0.51791 0.59428 0.55674 0.0
H1922 H 0.53366 0.61425 0.58194 0.0
H1923 H 0.58549 0.63133 0.58232 0.0
H1924 H 0.61908 0.63875 0.67574 0.0
H1925 H 0.60416 0.63069 0.64436 0.0
C1926 C 0.06039 0.60417 0.06453 0.0
C1927 C 0.0623 0.59119 0.06895 0.0
C1928 C 0.05865 0.61269 0.07993 0.0
C1929 C 0.06187 0.61774 0.13593 0.0
H1930 H 0.0348 0.63543 0.1258 0.0
C1931 C 0.03427 0.63704 0.19802 0.0
C1932 C 0.03665 0.65237 0.19598 0.0
C1933 C 0.03845 0.63037 0.1826 0.0
C1934 C 0.04247 0.63063 0.12878 0.0
H1935 H 0.06378 0.57683 0.09289 0.0
H1936 H 0.06006 0.59112 0.11974 0.0
H1937 H 0.04006 0.62227 0.09889 0.0
H1938 H 0.04516 0.67267 0.17611 0.0
H1939 H 0.05198 0.66075 0.14886 0.0
H1940 H 0.0635 0.62552 0.16621 0.0
C1941 C 0.0605 0.59524 0.10449 0.0
C1942 C 0.04562 0.62316 0.11331 0.0
C1943 C 0.06259 0.58697 0.08909 0.0
C1944 C 0.04323 0.66085 0.17814 0.0
C1945 C 0.04708 0.65403 0.16253 0.0
C1946 C 0.05843 0.62492 0.1515 0.0
C1947 C 0.05837 0.60818 0.10018 0.0
C1948 C 0.05537 0.61657 0.11662 0.0
C1949 C 0.04478 0.63875 0.16465 0.0
C1950 C 0.0487 0.63143 0.14807 0.0
H1951 H 0.06022 0.6077 0.04911 0.0
H1952 H 0.05746 0.62277 0.07587 0.0
H1953 H 0.0697 0.61319 0.13911 0.0
H1954 H 0.02926 0.63023 0.2116 0.0
H1955 H 0.03648 0.61853 0.18455 0.0
C1956 C 0.50215 0.53513 0.10761 0.0
C1957 C 0.49658 0.53366 0.08778 0.0
C1958 C 0.49173 0.52739 0.12338 0.0
C1959 C 0.44948 0.5084 0.13651 0.0
H1960 H 0.46063 0.48767 0.17826 0.0
C1961 C 0.40372 0.46233 0.19034 0.0
C1962 C 0.40793 0.46268 0.21064 0.0
C1963 C 0.41489 0.472 0.17621 0.0
C1964 C 0.45743 0.49358 0.16686 0.0
H1965 H 0.47569 0.52258 0.06899 0.0
H1966 H 0.45757 0.50906 0.09635 0.0
H1967 H 0.47952 0.50263 0.15196 0.0
H1968 H 0.42723 0.4736 0.23199 0.0
H1969 H 0.44675 0.4905 0.20723 0.0
H1970 H 0.42731 0.49913 0.15122 0.0
C1971 C 0.46995 0.51648 0.09982 0.0
C1972 C 0.46826 0.50216 0.15179 0.0
C1973 C 0.48036 0.52424 0.08409 0.0
C1974 C 0.42359 0.47302 0.21648 0.0
C1975 C 0.43479 0.48265 0.20229 0.0
C1976 C 0.43866 0.49979 0.15152 0.0
C1977 C 0.47549 0.51797 0.11966 0.0
C1978 C 0.46434 0.50953 0.1363 0.0
C1979 C 0.43056 0.48222 0.182 0.0
C1980 C 0.44244 0.49213 0.16674 0.0
H1981 H 0.51455 0.54245 0.11099 0.0
H1982 H 0.49637 0.52895 0.13851 0.0
H1983 H 0.4462 0.51419 0.12504 0.0
H1984 H 0.39179 0.45451 0.18528 0.0
H1985 H 0.4113 0.47123 0.16066 0.0
C1986 C 0.5241 0.98653 0.09161 0.0
C1987 C 0.51662 0.99544 0.08866 0.0
C1988 C 0.53483 0.98998 0.10733 0.0
C1989 C 0.54778 0.00949 0.15598 0.0
H1990 H 0.58805 0.0142 0.14149 0.0
C1991 C 0.6011 0.03382 0.21082 0.0
C1992 C 0.6106 0.02686 0.21015 0.0
C1993 C 0.58918 0.03004 0.19652 0.0
C1994 C 0.5768 0.01272 0.1459 0.0
H1995 H 0.51389 0.01439 0.10039 0.0
H1996 H 0.53263 0.02037 0.128 0.0
H1997 H 0.56756 0.00668 0.11612 0.0
H1998 H 0.61471 0.01011 0.19431 0.0
H1999 H 0.59383 0.00326 0.16991 0.0
H2000 H 0.55694 0.01529 0.18587 0.0
C2001 C 0.53023 0.01079 0.11808 0.0
C2002 C 0.56508 0.00843 0.13133 0.0
C2003 C 0.51963 0.00746 0.10221 0.0
C2004 C 0.60776 0.01587 0.19513 0.0
C2005 C 0.59581 0.01199 0.18103 0.0
C2006 C 0.55948 0.01363 0.17066 0.0
C2007 C 0.53816 0.00228 0.12055 0.0
C2008 C 0.55044 0.0067 0.13623 0.0
C2009 C 0.58648 0.01913 0.18137 0.0
C2010 C 0.57411 0.01521 0.1658 0.0
H2011 H 0.52208 0.97728 0.08133 0.0
H2012 H 0.54069 0.98314 0.10903 0.0
H2013 H 0.53655 0.00818 0.16014 0.0
H2014 H 0.60301 0.04235 0.22221 0.0
H2015 H 0.5823 0.03586 0.19711 0.0
C2016 C 0.57718 0.06569 0.46513 0.0
C2017 C 0.56189 0.05348 0.46949 0.0
C2018 C 0.58385 0.06658 0.44641 0.0
C2019 C 0.5807 0.04174 0.40393 0.0
H2020 H 0.60357 0.08114 0.37447 0.0
C2021 C 0.60104 0.04287 0.32362 0.0
C2022 C 0.61649 0.05453 0.31893 0.0
C2023 C 0.594 0.04371 0.34122 0.0
C2024 C 0.59733 0.07007 0.3826 0.0
H2025 H 0.54175 0.03248 0.45772 0.0
H2026 H 0.55325 0.03414 0.42516 0.0
H2027 H 0.59245 0.08073 0.4072 0.0
H2028 H 0.63642 0.07659 0.32859 0.0
H2029 H 0.6242 0.07794 0.3595 0.0
H2030 H 0.58567 0.03105 0.37963 0.0
C2031 C 0.56012 0.04302 0.43617 0.0
C2032 C 0.59098 0.06985 0.40133 0.0
C2033 C 0.55344 0.04218 0.45477 0.0
C2034 C 0.62449 0.06742 0.33178 0.0
C2035 C 0.61746 0.06822 0.34947 0.0
C2036 C 0.58706 0.04196 0.3853 0.0
C2037 C 0.57541 0.05517 0.43179 0.0
C2038 C 0.58253 0.05565 0.41213 0.0
C2039 C 0.60226 0.05618 0.35461 0.0
C2040 C 0.59538 0.0561 0.37434 0.0
H2041 H 0.58392 0.07461 0.47613 0.0
H2042 H 0.59572 0.07602 0.4435 0.0
H2043 H 0.5745 0.03066 0.41206 0.0
H2044 H 0.59452 0.03286 0.31393 0.0
H2045 H 0.58214 0.03442 0.34451 0.0
C2046 C 0.05197 0.58297 0.41901 0.0
C2047 C 0.05518 0.59067 0.4375 0.0
C2048 C 0.04901 0.58953 0.40186 0.0
C2049 C 0.0553 0.62637 0.37891 0.0
H2050 H 0.01615 0.60039 0.35033 0.0
C2051 C 0.03738 0.64649 0.30552 0.0
C2052 C 0.02266 0.64563 0.30662 0.0
C2053 C 0.04198 0.63919 0.32022 0.0
C2054 C 0.02716 0.60773 0.3581 0.0
H2055 H 0.05834 0.61147 0.45243 0.0
H2056 H 0.05355 0.62318 0.4223 0.0
H2057 H 0.02368 0.58918 0.37856 0.0
H2058 H 0.00102 0.63593 0.32354 0.0
H2059 H 0.00888 0.6228 0.34878 0.0
H2060 H 0.05875 0.64493 0.35844 0.0
C2061 C 0.0532 0.61201 0.42114 0.0
C2062 C 0.0315 0.60131 0.37416 0.0
C2063 C 0.05585 0.60529 0.43837 0.0
C2064 C 0.01244 0.63684 0.32229 0.0
C2065 C 0.01691 0.62928 0.3367 0.0
C2066 C 0.0511 0.6327 0.36258 0.0
C2067 C 0.0495 0.60407 0.40279 0.0
C2068 C 0.0455 0.61063 0.38491 0.0
C2069 C 0.03182 0.63059 0.33601 0.0
C2070 C 0.03688 0.62351 0.35221 0.0
H2071 H 0.05121 0.57161 0.41795 0.0
H2072 H 0.04623 0.5832 0.38789 0.0
H2073 H 0.06618 0.63378 0.3869 0.0
H2074 H 0.04554 0.65325 0.2937 0.0
H2075 H 0.05352 0.64033 0.31931 0.0
C2076 C 0.45938 0.51976 0.4637 0.0
C2077 C 0.47147 0.53544 0.46555 0.0
C2078 C 0.45026 0.5147 0.44633 0.0
C2079 C 0.45359 0.52349 0.39267 0.0
H2080 H 0.41082 0.48833 0.39282 0.0
C2081 C 0.41918 0.4883 0.32149 0.0
C2082 C 0.41254 0.47191 0.32382 0.0
C2083 C 0.42566 0.49824 0.33799 0.0
C2084 C 0.42274 0.49819 0.39254 0.0
H2085 H 0.483 0.5584 0.45118 0.0
H2086 H 0.46691 0.54952 0.42044 0.0
H2087 H 0.42227 0.50281 0.42363 0.0
H2088 H 0.40764 0.45313 0.3452 0.0
H2089 H 0.41872 0.47043 0.37394 0.0
H2090 H 0.45402 0.51857 0.36152 0.0
C2091 C 0.46457 0.54114 0.43251 0.0
C2092 C 0.42931 0.50649 0.41016 0.0
C2093 C 0.47366 0.54627 0.45014 0.0
C2094 C 0.41269 0.4657 0.34289 0.0
C2095 C 0.41891 0.47558 0.35938 0.0
C2096 C 0.44692 0.51526 0.37493 0.0
C2097 C 0.45305 0.52517 0.43022 0.0
C2098 C 0.44503 0.51883 0.41066 0.0
C2099 C 0.42534 0.49192 0.35714 0.0
C2100 C 0.43164 0.50217 0.37492 0.0
H2101 H 0.45744 0.51117 0.47538 0.0
H2102 H 0.44169 0.5023 0.44509 0.0
H2103 H 0.46576 0.53284 0.39253 0.0
H2104 H 0.41923 0.49343 0.30697 0.0
H2105 H 0.43058 0.5108 0.33588 0.0
C2106 C 0.72615 0.86771 0.28446 0.0
C2107 C 0.7148 0.86942 0.29505 0.0
C2108 C 0.72196 0.85771 0.26808 0.0
C2109 C 0.69173 0.83823 0.22866 0.0
H2110 H 0.71462 0.81605 0.22034 0.0
C2111 C 0.68209 0.79876 0.15878 0.0
C2112 C 0.69588 0.80072 0.14982 0.0
C2113 C 0.68277 0.80581 0.17723 0.0
C2114 C 0.70817 0.82223 0.22232 0.0
H2115 H 0.68994 0.86165 0.29661 0.0
H2116 H 0.6825 0.84394 0.2677 0.0
H2117 H 0.71812 0.83 0.25149 0.0
H2118 H 0.72117 0.81166 0.15339 0.0
H2119 H 0.72233 0.82377 0.1854 0.0
H2120 H 0.68188 0.83044 0.19927 0.0
C2121 C 0.69475 0.85052 0.27221 0.0
C2122 C 0.71017 0.83025 0.24025 0.0
C2123 C 0.69897 0.86058 0.28887 0.0
C2124 C 0.71031 0.80984 0.15982 0.0
C2125 C 0.71096 0.81673 0.17829 0.0
C2126 C 0.68966 0.83009 0.21068 0.0
C2127 C 0.70624 0.84898 0.26159 0.0
C2128 C 0.70232 0.83873 0.24352 0.0
C2129 C 0.69722 0.81483 0.1873 0.0
C2130 C 0.69816 0.8223 0.20708 0.0
H2131 H 0.73847 0.87427 0.28867 0.0
H2132 H 0.73123 0.85714 0.26019 0.0
H2133 H 0.68554 0.84467 0.23055 0.0
H2134 H 0.67077 0.79185 0.15149 0.0
H2135 H 0.67194 0.80401 0.18375 0.0
C2136 C 0.18398 0.90335 0.28433 0.0
C2137 C 0.19026 0.91028 0.30298 0.0
C2138 C 0.19077 0.91144 0.26647 0.0
C2139 C 0.21867 0.95068 0.24462 0.0
H2140 H 0.22581 0.92607 0.20564 0.0
C2141 C 0.24852 0.97646 0.16799 0.0
C2142 C 0.2599 0.97266 0.16202 0.0
C2143 C 0.23892 0.96891 0.18454 0.0
C2144 C 0.22395 0.93312 0.21638 0.0
H2145 H 0.20807 0.93155 0.31739 0.0
H2146 H 0.21991 0.94562 0.28625 0.0
H2147 H 0.21069 0.91327 0.23567 0.0
H2148 H 0.27002 0.95785 0.1687 0.0
H2149 H 0.25331 0.94471 0.19753 0.0
H2150 H 0.23234 0.97062 0.2255 0.0
C2151 C 0.2097 0.93394 0.28542 0.0
C2152 C 0.21511 0.92575 0.2335 0.0
C2153 C 0.20292 0.92584 0.30331 0.0
C2154 C 0.26135 0.96104 0.17286 0.0
C2155 C 0.25171 0.95344 0.18933 0.0
C2156 C 0.22747 0.95805 0.22742 0.0
C2157 C 0.20399 0.92666 0.2668 0.0
C2158 C 0.21248 0.93444 0.24794 0.0
C2159 C 0.24041 0.95732 0.19543 0.0
C2160 C 0.23038 0.94939 0.21321 0.0
H2161 H 0.17418 0.89142 0.28349 0.0
H2162 H 0.1859 0.9056 0.25237 0.0
H2163 H 0.21678 0.9577 0.25537 0.0
H2164 H 0.24708 0.98535 0.15994 0.0
H2165 H 0.23023 0.97206 0.18871 0.0
C2166 C 0.12546 0.33778 0.27767 0.0
C2167 C 0.13976 0.33788 0.27601 0.0
C2168 C 0.11815 0.33984 0.26071 0.0
C2169 C 0.11739 0.33887 0.20525 0.0
H2170 H 0.10029 0.36671 0.21069 0.0
C2171 C 0.09173 0.37376 0.15339 0.0
C2172 C 0.08153 0.36151 0.14069 0.0
C2173 C 0.09949 0.37088 0.16919 0.0
C2174 C 0.10515 0.35904 0.20885 0.0
H2175 H 0.15745 0.33989 0.25518 0.0
H2176 H 0.14475 0.34354 0.22558 0.0
H2177 H 0.11215 0.36115 0.23964 0.0
H2178 H 0.07179 0.33674 0.13423 0.0
H2179 H 0.08514 0.33168 0.16193 0.0
H2180 H 0.11068 0.33706 0.17432 0.0
C2181 C 0.13906 0.34166 0.23996 0.0
C2182 C 0.11174 0.35566 0.22553 0.0
C2183 C 0.14634 0.33955 0.25693 0.0
C2184 C 0.07957 0.34643 0.14377 0.0
C2185 C 0.0873 0.34354 0.15958 0.0
C2186 C 0.11081 0.34227 0.18854 0.0
C2187 C 0.12503 0.3421 0.24171 0.0
C2188 C 0.11789 0.3455 0.22394 0.0
C2189 C 0.09719 0.35569 0.17262 0.0
C2190 C 0.1046 0.35238 0.19017 0.0
H2191 H 0.11999 0.33626 0.29212 0.0
H2192 H 0.10717 0.33977 0.2625 0.0
H2193 H 0.12195 0.33092 0.20356 0.0
H2194 H 0.09354 0.38553 0.15133 0.0
H2195 H 0.10723 0.38055 0.17877 0.0
C2196 C 0.13319 0.34676 0.92224 0.0
C2197 C 0.12622 0.33191 0.9132 0.0
C2198 C 0.12504 0.35015 0.93643 0.0
C2199 C 0.09228 0.33145 0.97212 0.0
H2200 H 0.09589 0.37268 0.97166 0.0
C2201 C 0.05847 0.34734 0.02816 0.0
C2202 C 0.06734 0.36188 0.03775 0.0
C2203 C 0.06441 0.34373 0.01141 0.0
C2204 C 0.09484 0.36115 0.97204 0.0
H2205 H 0.10517 0.30895 0.91206 0.0
H2206 H 0.09087 0.31486 0.93693 0.0
H2207 H 0.10866 0.36599 0.94559 0.0
H2208 H 0.08909 0.38428 0.03681 0.0
H2209 H 0.09948 0.37797 0.00763 0.0
H2210 H 0.07862 0.32668 0.9987 0.0
C2211 C 0.10274 0.32384 0.93311 0.0
C2212 C 0.10217 0.35732 0.95714 0.0
C2213 C 0.11093 0.32044 0.91889 0.0
C2214 C 0.08197 0.37299 0.02974 0.0
C2215 C 0.0879 0.36939 0.01297 0.0
C2216 C 0.08494 0.33528 0.98701 0.0
C2217 C 0.10969 0.33877 0.94197 0.0
C2218 C 0.10113 0.34249 0.95714 0.0
C2219 C 0.07932 0.3546 0.00387 0.0
C2220 C 0.08627 0.35023 0.98727 0.0
H2221 H 0.14507 0.35576 0.91854 0.0
H2222 H 0.13088 0.36164 0.94328 0.0
H2223 H 0.09142 0.32 0.97271 0.0
H2224 H 0.04712 0.33854 0.03391 0.0
H2225 H 0.05741 0.33234 0.00453 0.0
C2226 C 0.70411 0.87179 0.89902 0.0
C2227 C 0.69046 0.87304 0.89777 0.0
C2228 C 0.70768 0.86612 0.91675 0.0
C2229 C 0.69751 0.85888 0.97123 0.0
H2230 H 0.70864 0.82628 0.96754 0.0
C2231 C 0.68777 0.81587 0.03688 0.0
C2232 C 0.69921 0.81152 0.04073 0.0
C2233 C 0.68873 0.82485 0.01982 0.0
C2234 C 0.70574 0.83552 0.96888 0.0
H2235 H 0.67023 0.8699 0.91443 0.0
H2236 H 0.67636 0.86023 0.94479 0.0
H2237 H 0.70751 0.83999 0.93713 0.0
H2238 H 0.7207 0.8133 0.02959 0.0
H2239 H 0.72235 0.82892 0.99983 0.0
H2240 H 0.69534 0.85419 0.00284 0.0
C2241 C 0.68443 0.8636 0.93235 0.0
C2242 C 0.70514 0.84342 0.95142 0.0
C2243 C 0.68083 0.86906 0.91477 0.0
C2244 C 0.71168 0.81644 0.02711 0.0
C2245 C 0.71258 0.82533 0.00996 0.0
C2246 C 0.69805 0.85096 0.98861 0.0
C2247 C 0.69778 0.86186 0.93362 0.0
C2248 C 0.70065 0.85496 0.95231 0.0
C2249 C 0.70111 0.82965 0.00607 0.0
C2250 C 0.70184 0.83893 0.98766 0.0
H2251 H 0.71172 0.87468 0.88616 0.0
H2252 H 0.71811 0.865 0.91723 0.0
H2253 H 0.69435 0.86793 0.9726 0.0
H2254 H 0.67798 0.81225 0.04699 0.0
H2255 H 0.67956 0.82776 0.0172 0.0
C2256 C 0.18466 0.89613 0.94491 0.0
C2257 C 0.18888 0.90132 0.92501 0.0
C2258 C 0.19355 0.90552 0.96096 0.0
C2259 C 0.21962 0.9229 0.99142 0.0
H2260 H 0.23855 0.96832 0.9892 0.0
C2261 C 0.26613 0.96224 0.04939 0.0
C2262 C 0.26547 0.97523 0.05675 0.0
C2263 C 0.25686 0.9538 0.03305 0.0
C2264 C 0.23325 0.95564 0.99016 0.0
H2265 H 0.20591 0.9205 0.90647 0.0
H2266 H 0.22149 0.93678 0.93436 0.0
H2267 H 0.22169 0.95248 0.96172 0.0
H2268 H 0.25472 0.98973 0.05242 0.0
H2269 H 0.23832 0.97485 0.02397 0.0
H2270 H 0.23085 0.92597 0.02 0.0
C2271 C 0.21111 0.92557 0.93762 0.0
C2272 C 0.22372 0.94656 0.97426 0.0
C2273 C 0.20217 0.91621 0.92158 0.0
C2274 C 0.25554 0.9798 0.04708 0.0
C2275 C 0.24617 0.97129 0.03072 0.0
C2276 C 0.22911 0.93196 0.00729 0.0
C2277 C 0.20697 0.92032 0.95754 0.0
C2278 C 0.21683 0.93006 0.97464 0.0
C2279 C 0.24657 0.95805 0.02365 0.0
C2280 C 0.23615 0.94847 0.00683 0.0
H2281 H 0.17437 0.88485 0.94812 0.0
H2282 H 0.18982 0.90119 0.97607 0.0
H2283 H 0.21469 0.91026 0.99219 0.0
H2284 H 0.27374 0.95846 0.05637 0.0
H2285 H 0.25777 0.94391 0.02778 0.0
C2286 C 0.69909 0.90856 0.40397 0.0
C2287 C 0.7128 0.91884 0.39328 0.0
C2288 C 0.69444 0.914 0.42054 0.0
C2289 C 0.70024 0.95101 0.44341 0.0
H2290 H 0.68905 0.92765 0.49361 0.0
C2291 C 0.70008 0.98064 0.51743 0.0
C2292 C 0.68834 0.97189 0.53163 0.0
C2293 C 0.70195 0.97337 0.50059 0.0
C2294 C 0.69194 0.93427 0.47966 0.0
H2295 H 0.73202 0.94298 0.39142 0.0
H2296 H 0.72394 0.95228 0.41971 0.0
H2297 H 0.69332 0.91609 0.46381 0.0
H2298 H 0.66945 0.94847 0.53922 0.0
H2299 H 0.67261 0.93583 0.50982 0.0
H2300 H 0.69896 0.96919 0.45905 0.0
C2301 C 0.71672 0.94007 0.41549 0.0
C2302 C 0.69437 0.9276 0.46253 0.0
C2303 C 0.72143 0.93465 0.39926 0.0
C2304 C 0.67866 0.9556 0.52865 0.0
C2305 C 0.68052 0.94831 0.51178 0.0
C2306 C 0.69778 0.95763 0.46044 0.0
C2307 C 0.70323 0.92987 0.4265 0.0
C2308 C 0.69885 0.93601 0.44425 0.0
C2309 C 0.69211 0.95711 0.49737 0.0
C2310 C 0.69388 0.94952 0.47896 0.0
H2311 H 0.6922 0.89631 0.39982 0.0
H2312 H 0.68393 0.90582 0.42863 0.0
H2313 H 0.70337 0.95774 0.42952 0.0
H2314 H 0.70779 0.99318 0.51922 0.0
H2315 H 0.71122 0.98054 0.49012 0.0
C2316 C 0.13445 0.86672 0.39365 0.0
C2317 C 0.15077 0.87645 0.39629 0.0
C2318 C 0.1248 0.85865 0.40999 0.0
C2319 C 0.1269 0.8434 0.46027 0.0
H2320 H 0.08455 0.8363 0.46551 0.0
C2321 C 0.08684 0.80865 0.52747 0.0
C2322 C 0.07098 0.79803 0.52286 0.0
C2323 C 0.09687 0.81931 0.51293 0.0
C2324 C 0.09631 0.83807 0.46419 0.0
H2325 H 0.1696 0.88591 0.41843 0.0
H2326 H 0.15279 0.87205 0.44684 0.0
H2327 H 0.10127 0.85321 0.43853 0.0
H2328 H 0.05332 0.79032 0.4992 0.0
H2329 H 0.07073 0.80864 0.47402 0.0
H2330 H 0.12187 0.82808 0.48574 0.0
C2331 C 0.14747 0.87039 0.43209 0.0
C2332 C 0.1059 0.84778 0.4487 0.0
C2333 C 0.1571 0.87844 0.41579 0.0
C2334 C 0.06543 0.79834 0.50338 0.0
C2335 C 0.07541 0.80897 0.48892 0.0
C2336 C 0.1173 0.83368 0.47574 0.0
C2337 C 0.13125 0.86013 0.42936 0.0
C2338 C 0.12127 0.85046 0.44643 0.0
C2339 C 0.09125 0.81962 0.49347 0.0
C2340 C 0.10182 0.83074 0.47777 0.0
H2341 H 0.12917 0.86487 0.37885 0.0
H2342 H 0.11238 0.85077 0.4073 0.0
H2343 H 0.13859 0.845 0.45881 0.0
H2344 H 0.0915 0.80877 0.54231 0.0
H2345 H 0.10898 0.82744 0.517 0.0
C2346 C 0.18652 0.31852 0.41363 0.0
C2347 C 0.18112 0.3293 0.4116 0.0
C2348 C 0.19595 0.31934 0.42999 0.0
C2349 C 0.20777 0.33457 0.48104 0.0
H2350 H 0.24669 0.33551 0.46849 0.0
C2351 C 0.25798 0.35287 0.5391 0.0
C2352 C 0.26661 0.34497 0.5389 0.0
C2353 C 0.24697 0.35032 0.52399 0.0
C2354 C 0.23577 0.33501 0.47235 0.0
H2355 H 0.18064 0.34885 0.42549 0.0
H2356 H 0.19705 0.35024 0.45416 0.0
H2357 H 0.22786 0.33139 0.44183 0.0
H2358 H 0.27024 0.32798 0.52289 0.0
H2359 H 0.2508 0.32325 0.49692 0.0
H2360 H 0.21556 0.33805 0.51159 0.0
C2361 C 0.19406 0.34121 0.44307 0.0
C2362 C 0.225 0.33267 0.45704 0.0
C2363 C 0.18479 0.34051 0.42661 0.0
C2364 C 0.2639 0.33438 0.52338 0.0
C2365 C 0.25279 0.33172 0.50842 0.0
C2366 C 0.21847 0.33676 0.49641 0.0
C2367 C 0.19997 0.33082 0.44472 0.0
C2368 C 0.21094 0.33252 0.46121 0.0
C2369 C 0.24424 0.33971 0.50846 0.0
C2370 C 0.23266 0.3371 0.49223 0.0
H2371 H 0.18396 0.30984 0.40222 0.0
H2372 H 0.20026 0.31111 0.431 0.0
H2373 H 0.19695 0.33438 0.48467 0.0
H2374 H 0.25984 0.36114 0.55081 0.0
H2375 H 0.24078 0.35687 0.52434 0.0
C2376 C 0.19936 0.34328 0.78466 0.0
C2377 C 0.1836 0.3311 0.78565 0.0
C2378 C 0.20755 0.3471 0.76663 0.0
C2379 C 0.2084 0.33121 0.71774 0.0
H2380 H 0.23456 0.37518 0.70274 0.0
C2381 C 0.24254 0.34876 0.64389 0.0
C2382 C 0.2583 0.36088 0.64502 0.0
C2383 C 0.23223 0.34604 0.65962 0.0
C2384 C 0.2274 0.36285 0.70677 0.0
H2385 H 0.16418 0.3132 0.76836 0.0
H2386 H 0.17861 0.31973 0.73686 0.0
H2387 H 0.21897 0.36814 0.73328 0.0
H2388 H 0.27544 0.38016 0.66307 0.0
H2389 H 0.25755 0.37525 0.69075 0.0
H2390 H 0.21711 0.32587 0.69164 0.0
C2391 C 0.18458 0.32632 0.75014 0.0
C2392 C 0.21847 0.35883 0.72425 0.0
C2393 C 0.17634 0.32254 0.76821 0.0
C2394 C 0.26335 0.37076 0.66175 0.0
C2395 C 0.25306 0.36795 0.67759 0.0
C2396 C 0.2174 0.33523 0.70034 0.0
C2397 C 0.20022 0.33875 0.74914 0.0
C2398 C 0.209 0.34297 0.73002 0.0
C2399 C 0.23748 0.3553 0.67693 0.0
C2400 C 0.22713 0.3511 0.69473 0.0
H2401 H 0.20545 0.34989 0.79786 0.0
H2402 H 0.21969 0.35651 0.76643 0.0
H2403 H 0.20137 0.3189 0.72193 0.0
H2404 H 0.23826 0.34105 0.63108 0.0
H2405 H 0.22022 0.33644 0.65841 0.0
C2406 C 0.70462 0.9248 0.78348 0.0
C2407 C 0.6915 0.9096 0.78508 0.0
C2408 C 0.70751 0.93349 0.76545 0.0
C2409 C 0.6953 0.93007 0.7112 0.0
H2410 H 0.70176 0.97202 0.71813 0.0
C2411 C 0.67893 0.97567 0.66835 0.0
C2412 C 0.68302 0.97515 0.64834 0.0
C2413 C 0.68321 0.96879 0.68388 0.0
C2414 C 0.69997 0.96033 0.71588 0.0
H2415 H 0.6718 0.8912 0.76884 0.0
H2416 H 0.67687 0.90604 0.73771 0.0
H2417 H 0.70406 0.95769 0.74696 0.0
H2418 H 0.69498 0.96689 0.62918 0.0
H2419 H 0.70242 0.95472 0.65646 0.0
H2420 H 0.69042 0.93242 0.68029 0.0
C2421 C 0.685 0.91142 0.7501 0.0
C2422 C 0.7015 0.95217 0.73242 0.0
C2423 C 0.68203 0.9029 0.76804 0.0
C2424 C 0.69159 0.96751 0.64436 0.0
C2425 C 0.69582 0.9605 0.66001 0.0
C2426 C 0.69379 0.93824 0.69464 0.0
C2427 C 0.69746 0.92702 0.74867 0.0
C2428 C 0.69871 0.93673 0.73046 0.0
C2429 C 0.69171 0.9611 0.68002 0.0
C2430 C 0.6956 0.9533 0.69688 0.0
H2431 H 0.71201 0.93032 0.79644 0.0
H2432 H 0.7173 0.94544 0.76486 0.0
H2433 H 0.69329 0.91829 0.70902 0.0
H2434 H 0.67234 0.98141 0.67213 0.0
H2435 H 0.67952 0.96925 0.69895 0.0
C2436 C 0.13847 0.85385 0.7759 0.0
C2437 C 0.1394 0.84417 0.79106 0.0
C2438 C 0.13187 0.8477 0.75716 0.0
C2439 C 0.10603 0.80996 0.73122 0.0
H2440 H 0.12458 0.83498 0.6832 0.0
C2441 C 0.08647 0.78394 0.65217 0.0
C2442 C 0.08363 0.79307 0.63808 0.0
C2443 C 0.09402 0.79038 0.67038 0.0
C2444 C 0.1192 0.8279 0.69648 0.0
H2445 H 0.13371 0.82024 0.79822 0.0
H2446 H 0.12268 0.80968 0.76551 0.0
H2447 H 0.13597 0.84568 0.71592 0.0
H2448 H 0.08699 0.81631 0.63182 0.0
H2449 H 0.10025 0.82759 0.66357 0.0
H2450 H 0.08935 0.79214 0.71173 0.0
C2451 C 0.12687 0.82201 0.76818 0.0
C2452 C 0.12569 0.83404 0.71527 0.0
C2453 C 0.1334 0.82814 0.78694 0.0
C2454 C 0.08901 0.80896 0.64233 0.0
C2455 C 0.09665 0.81544 0.66051 0.0
C2456 C 0.09961 0.80379 0.71243 0.0
C2457 C 0.12605 0.83171 0.75299 0.0
C2458 C 0.11917 0.82517 0.73292 0.0
C2459 C 0.099 0.80615 0.67491 0.0
C2460 C 0.1061 0.81268 0.69483 0.0
H2461 H 0.14306 0.86626 0.77831 0.0
H2462 H 0.13125 0.8555 0.74597 0.0
H2463 H 0.1005 0.80288 0.74444 0.0
H2464 H 0.08251 0.77167 0.64937 0.0
H2465 H 0.09585 0.78297 0.68101 0.0
C2466 C 0.37073 0.19804 0.64587 0.0
C2467 C 0.38375 0.21341 0.64526 0.0
C2468 C 0.36644 0.18837 0.62884 0.0
C2469 C 0.37301 0.19055 0.57336 0.0
H2470 H 0.36361 0.14731 0.57879 0.0
C2471 C 0.38192 0.15808 0.50847 0.0
C2472 C 0.37001 0.14261 0.50432 0.0
C2473 C 0.38143 0.16566 0.52579 0.0
C2474 C 0.36604 0.15931 0.57704 0.0
H2475 H 0.40213 0.2307 0.62601 0.0
H2476 H 0.39488 0.21414 0.59699 0.0
H2477 H 0.36601 0.16244 0.60884 0.0
H2478 H 0.34834 0.12291 0.51546 0.0
H2479 H 0.34765 0.13613 0.54603 0.0
H2480 H 0.37364 0.18767 0.54171 0.0
C2481 C 0.38777 0.20943 0.61032 0.0
C2482 C 0.36735 0.16798 0.59426 0.0
C2483 C 0.39204 0.21895 0.62716 0.0
C2484 C 0.35768 0.13483 0.51816 0.0
C2485 C 0.35731 0.14238 0.53571 0.0
C2486 C 0.37186 0.18198 0.55626 0.0
C2487 C 0.37499 0.19396 0.61083 0.0
C2488 C 0.37128 0.18387 0.59267 0.0
C2489 C 0.36911 0.15796 0.53962 0.0
C2490 C 0.36872 0.16638 0.55787 0.0
H2491 H 0.36413 0.19337 0.65959 0.0
H2492 H 0.35648 0.17654 0.62978 0.0
H2493 H 0.37562 0.2026 0.57143 0.0
H2494 H 0.3916 0.16444 0.4982 0.0
H2495 H 0.39082 0.17758 0.52845 0.0
C2496 C 0.89896 0.23431 0.60729 0.0
C2497 C 0.8875 0.23574 0.61802 0.0
C2498 C 0.90588 0.24362 0.59018 0.0
C2499 C 0.91208 0.28028 0.56451 0.0
H2500 H 0.9211 0.26274 0.51831 0.0
C2501 C 0.9304 0.31326 0.48845 0.0
C2502 C 0.94343 0.3138 0.4792 0.0
C2503 C 0.92327 0.30328 0.50493 0.0
C2504 C 0.91873 0.26782 0.53116 0.0
H2505 H 0.87468 0.24847 0.61913 0.0
H2506 H 0.88618 0.26406 0.58921 0.0
H2507 H 0.90961 0.24636 0.54816 0.0
H2508 H 0.95892 0.30396 0.47962 0.0
H2509 H 0.9464 0.28648 0.50826 0.0
H2510 H 0.92102 0.30166 0.5474 0.0
C2511 C 0.89004 0.25594 0.5941 0.0
C2512 C 0.91221 0.25846 0.54831 0.0
C2513 C 0.88322 0.24675 0.6112 0.0
C2514 C 0.94891 0.30384 0.48644 0.0
C2515 C 0.9417 0.29376 0.50278 0.0
C2516 C 0.91847 0.28957 0.54734 0.0
C2517 C 0.9015 0.25456 0.58337 0.0
C2518 C 0.90877 0.26456 0.56521 0.0
C2519 C 0.92892 0.29351 0.51238 0.0
C2520 C 0.92185 0.28346 0.53046 0.0
H2521 H 0.9025 0.22592 0.61198 0.0
H2522 H 0.91479 0.24234 0.58242 0.0
H2523 H 0.90992 0.2855 0.57736 0.0
H2524 H 0.92589 0.32076 0.4832 0.0
H2525 H 0.91333 0.30321 0.51188 0.0
C2526 C 0.81757 0.65692 0.58517 0.0
C2527 C 0.81052 0.65489 0.604 0.0
C2528 C 0.81058 0.65912 0.56796 0.0
C2529 C 0.78458 0.67446 0.55383 0.0
H2530 H 0.78528 0.6588 0.50111 0.0
C2531 C 0.75868 0.67409 0.46986 0.0
C2532 C 0.76273 0.68998 0.46822 0.0
C2533 C 0.7644 0.66893 0.4858 0.0
C2534 C 0.78492 0.66318 0.51577 0.0
H2535 H 0.79004 0.65231 0.61933 0.0
H2536 H 0.77776 0.65604 0.58929 0.0
H2537 H 0.79429 0.64993 0.53027 0.0
H2538 H 0.77631 0.713 0.48163 0.0
H2539 H 0.78638 0.70401 0.50936 0.0
H2540 H 0.77516 0.68763 0.53947 0.0
C2541 C 0.78888 0.65631 0.5879 0.0
C2542 C 0.79017 0.65819 0.53242 0.0
C2543 C 0.79588 0.65414 0.60508 0.0
C2544 C 0.77291 0.70067 0.48255 0.0
C2545 C 0.7786 0.69551 0.49849 0.0
C2546 C 0.77939 0.67947 0.53723 0.0
C2547 C 0.79639 0.6593 0.56926 0.0
C2548 C 0.79009 0.66382 0.55162 0.0
C2549 C 0.77425 0.67955 0.50043 0.0
C2550 C 0.7796 0.67397 0.518 0.0
H2551 H 0.82892 0.6577 0.58386 0.0
H2552 H 0.81671 0.66151 0.55384 0.0
H2553 H 0.78458 0.6792 0.56837 0.0
H2554 H 0.75086 0.66558 0.45903 0.0
H2555 H 0.76076 0.65655 0.48697 0.0
C2556 C 0.78325 0.66082 0.22602 0.0
C2557 C 0.79853 0.67193 0.21984 0.0
C2558 C 0.77716 0.66295 0.24379 0.0
C2559 C 0.7896 0.68408 0.29178 0.0
H2560 H 0.74752 0.6783 0.29258 0.0
C2561 C 0.769 0.7071 0.35633 0.0
C2562 C 0.75383 0.69716 0.36384 0.0
C2563 C 0.77379 0.70347 0.33859 0.0
C2564 C 0.75923 0.67979 0.29265 0.0
H2565 H 0.81954 0.69374 0.22778 0.0
H2566 H 0.8089 0.69755 0.25843 0.0
H2567 H 0.75708 0.67235 0.26219 0.0
H2568 H 0.73164 0.67581 0.35837 0.0
H2569 H 0.74006 0.66942 0.32739 0.0
H2570 H 0.79183 0.69159 0.32212 0.0
C2571 C 0.80161 0.68716 0.24965 0.0
C2572 C 0.76468 0.67636 0.27527 0.0
C2573 C 0.80764 0.68508 0.23192 0.0
C2574 C 0.74341 0.68372 0.35295 0.0
C2575 C 0.7482 0.68008 0.33517 0.0
C2576 C 0.78415 0.6875 0.30911 0.0
C2577 C 0.78631 0.67615 0.25579 0.0
C2578 C 0.78001 0.67868 0.27458 0.0
C2579 C 0.76353 0.68981 0.32795 0.0
C2580 C 0.76899 0.6856 0.30967 0.0
H2581 H 0.77593 0.65062 0.21697 0.0
H2582 H 0.76535 0.65421 0.24822 0.0
H2583 H 0.80136 0.6857 0.29184 0.0
H2584 H 0.77729 0.71758 0.36432 0.0
H2585 H 0.78558 0.71136 0.33322 0.0
C2586 C 0.37392 0.20917 0.25785 0.0
C2587 C 0.36068 0.20183 0.24515 0.0
C2588 C 0.37411 0.20261 0.27658 0.0
C2589 C 0.35345 0.1649 0.30612 0.0
H2590 H 0.37866 0.19176 0.34964 0.0
C2591 C 0.35315 0.14153 0.38699 0.0
C2592 C 0.36801 0.14638 0.39568 0.0
C2593 C 0.35174 0.14841 0.36905 0.0
C2594 C 0.37163 0.1841 0.3376 0.0
H2595 H 0.33702 0.18199 0.24261 0.0
H2596 H 0.33704 0.17087 0.27562 0.0
H2597 H 0.37653 0.20355 0.31818 0.0
H2598 H 0.39302 0.16249 0.39246 0.0
H2599 H 0.39053 0.17477 0.3614 0.0
H2600 H 0.34827 0.14547 0.32596 0.0
C2601 C 0.34754 0.18148 0.27087 0.0
C2602 C 0.37045 0.19085 0.31943 0.0
C2603 C 0.34744 0.18794 0.25195 0.0
C2604 C 0.38141 0.15848 0.38618 0.0
C2605 C 0.37997 0.16556 0.36843 0.0
C2606 C 0.35443 0.15817 0.32441 0.0
C2607 C 0.36096 0.18861 0.28342 0.0
C2608 C 0.36149 0.18137 0.30327 0.0
C2609 C 0.36514 0.1605 0.35954 0.0
C2610 C 0.36367 0.16768 0.34031 0.0
H2611 H 0.38442 0.21979 0.2531 0.0
H2612 H 0.38482 0.20837 0.28542 0.0
H2613 H 0.34667 0.15711 0.29406 0.0
H2614 H 0.34258 0.13221 0.39385 0.0
H2615 H 0.34014 0.14433 0.36268 0.0
C2616 C 0.86632 0.29783 0.24408 0.0
C2617 C 0.86259 0.28275 0.23763 0.0
C2618 C 0.87644 0.30479 0.26047 0.0
C2619 C 0.90786 0.3033 0.28967 0.0
H2620 H 0.89706 0.32307 0.33156 0.0
C2621 C 0.94055 0.31947 0.36569 0.0
C2622 C 0.94303 0.33319 0.37523 0.0
C2623 C 0.93126 0.31419 0.34835 0.0
C2624 C 0.9004 0.31783 0.31986 0.0
H2625 H 0.86632 0.26306 0.24409 0.0
H2626 H 0.88403 0.27528 0.2722 0.0
H2627 H 0.87988 0.31247 0.30229 0.0
H2628 H 0.93793 0.3523 0.37381 0.0
H2629 H 0.92204 0.3433 0.34331 0.0
H2630 H 0.92839 0.30868 0.30704 0.0
C2631 C 0.87931 0.2818 0.26439 0.0
C2632 C 0.89053 0.31172 0.3031 0.0
C2633 C 0.86914 0.27481 0.24817 0.0
C2634 C 0.9362 0.34164 0.36687 0.0
C2635 C 0.92698 0.33641 0.34944 0.0
C2636 C 0.91779 0.3095 0.30633 0.0
C2637 C 0.88314 0.29689 0.2707 0.0
C2638 C 0.89404 0.30421 0.28795 0.0
C2639 C 0.9243 0.32255 0.34001 0.0
C2640 C 0.91411 0.31667 0.32178 0.0
H2641 H 0.86167 0.3044 0.23631 0.0
H2642 H 0.87925 0.31649 0.26492 0.0
H2643 H 0.91103 0.29781 0.27808 0.0
H2644 H 0.94556 0.31264 0.37181 0.0
H2645 H 0.92927 0.30333 0.34174 0.0
C2646 C 0.37177 0.24433 0.76203 0.0
C2647 C 0.38743 0.25226 0.75529 0.0
C2648 C 0.36736 0.24994 0.77866 0.0
C2649 C 0.37953 0.2866 0.80636 0.0
H2650 H 0.35763 0.26023 0.85215 0.0
C2651 C 0.37779 0.31424 0.88118 0.0
C2652 C 0.36415 0.30666 0.89293 0.0
C2653 C 0.37955 0.30684 0.86441 0.0
C2654 C 0.36355 0.26776 0.83939 0.0
H2655 H 0.41065 0.27235 0.76088 0.0
H2656 H 0.40296 0.28203 0.78914 0.0
H2657 H 0.36173 0.24845 0.82241 0.0
H2658 H 0.34169 0.2852 0.89625 0.0
H2659 H 0.34459 0.27243 0.86684 0.0
H2660 H 0.38133 0.30587 0.82295 0.0
C2661 C 0.39406 0.27151 0.78176 0.0
C2662 C 0.36589 0.26097 0.82233 0.0
C2663 C 0.39847 0.26584 0.76553 0.0
C2664 C 0.3524 0.29138 0.88761 0.0
C2665 C 0.3541 0.284 0.87073 0.0
C2666 C 0.37708 0.29335 0.82325 0.0
C2667 C 0.37847 0.26374 0.78853 0.0
C2668 C 0.3742 0.27037 0.80577 0.0
C2669 C 0.36764 0.29168 0.85873 0.0
C2670 C 0.36936 0.28412 0.84025 0.0
H2671 H 0.36297 0.23384 0.75452 0.0
H2672 H 0.35524 0.24369 0.78353 0.0
H2673 H 0.38576 0.29415 0.79374 0.0
H2674 H 0.38712 0.32597 0.88486 0.0
H2675 H 0.39033 0.31305 0.85594 0.0
C2676 C 0.82894 0.17799 0.76549 0.0
C2677 C 0.82485 0.1826 0.74733 0.0
C2678 C 0.81815 0.1716 0.78125 0.0
C2679 C 0.78127 0.16907 0.79949 0.0
H2680 H 0.77806 0.13465 0.8324 0.0
C2681 C 0.72857 0.13193 0.85148 0.0
C2682 C 0.73181 0.12817 0.87073 0.0
C2683 C 0.74052 0.13918 0.83727 0.0
C2684 C 0.77894 0.14438 0.82346 0.0
H2685 H 0.80581 0.18382 0.73181 0.0
H2686 H 0.78712 0.17228 0.75865 0.0
H2687 H 0.79776 0.14584 0.80595 0.0
H2688 H 0.75024 0.12918 0.89013 0.0
H2689 H 0.77106 0.14176 0.86523 0.0
H2690 H 0.76223 0.16737 0.81672 0.0
C2691 C 0.79879 0.17392 0.76096 0.0
C2692 C 0.79025 0.15082 0.80832 0.0
C2693 C 0.80956 0.18037 0.74532 0.0
C2694 C 0.74733 0.13194 0.87546 0.0
C2695 C 0.75925 0.13905 0.86117 0.0
C2696 C 0.76991 0.16256 0.81449 0.0
C2697 C 0.80296 0.16961 0.77923 0.0
C2698 C 0.79145 0.16315 0.79599 0.0
C2699 C 0.75597 0.14273 0.8419 0.0
C2700 C 0.76852 0.15005 0.82654 0.0
H2701 H 0.84049 0.17933 0.76764 0.0
H2702 H 0.82182 0.16849 0.79514 0.0
H2703 H 0.78207 0.1788 0.79064 0.0
H2704 H 0.71677 0.12919 0.84731 0.0
H2705 H 0.73759 0.14173 0.82248 0.0
C2706 C 0.86242 0.67194 0.75367 0.0
C2707 C 0.86065 0.66098 0.73913 0.0
C2708 C 0.87373 0.67614 0.76885 0.0
C2709 C 0.91192 0.68005 0.77813 0.0
H2710 H 0.90328 0.68064 0.83452 0.0
C2711 C 0.95772 0.68973 0.83904 0.0
C2712 C 0.95818 0.69761 0.85663 0.0
C2713 C 0.94591 0.68601 0.82474 0.0
C2714 C 0.90597 0.68083 0.81881 0.0
H2715 H 0.86906 0.64561 0.72918 0.0
H2716 H 0.88902 0.65312 0.75561 0.0
H2717 H 0.88191 0.672 0.81 0.0
H2718 H 0.94689 0.70829 0.87269 0.0
H2719 H 0.92655 0.7023 0.84734 0.0
H2720 H 0.93597 0.68925 0.78662 0.0
C2721 C 0.88159 0.65837 0.75529 0.0
C2722 C 0.8937 0.67576 0.80482 0.0
C2723 C 0.8701 0.65397 0.74032 0.0
C2724 C 0.94682 0.70214 0.85932 0.0
C2725 C 0.93508 0.69858 0.84486 0.0
C2726 C 0.92422 0.68533 0.79204 0.0
C2727 C 0.88363 0.66965 0.76951 0.0
C2728 C 0.89655 0.67516 0.7844 0.0
C2729 C 0.93435 0.69027 0.82751 0.0
C2730 C 0.92139 0.68561 0.8126 0.0
H2731 H 0.8552 0.67742 0.75309 0.0
H2732 H 0.87511 0.68489 0.77962 0.0
H2733 H 0.91446 0.67996 0.7624 0.0
H2734 H 0.9662 0.68594 0.83654 0.0
H2735 H 0.9456 0.67936 0.8118 0.0
C2736 C 0.86394 0.69553 0.07924 0.0
C2737 C 0.85514 0.68008 0.08673 0.0
C2738 C 0.87436 0.69902 0.06339 0.0
C2739 C 0.88525 0.68043 0.02307 0.0
H2740 H 0.92453 0.72013 0.02437 0.0
C2741 C 0.93017 0.69882 0.95913 0.0
C2742 C 0.94617 0.70644 0.96449 0.0
C2743 C 0.91878 0.69652 0.97322 0.0
C2744 C 0.91369 0.70892 0.02383 0.0
H2745 H 0.85029 0.65615 0.08352 0.0
H2746 H 0.86883 0.66223 0.05625 0.0
H2747 H 0.90533 0.7138 0.05061 0.0
H2748 H 0.96284 0.71785 0.98871 0.0
H2749 H 0.94301 0.71342 0.01346 0.0
H2750 H 0.89398 0.67519 0.9969 0.0
C2751 C 0.86742 0.67164 0.0622 0.0
C2752 C 0.90253 0.70538 0.03876 0.0
C2753 C 0.85681 0.66812 0.07788 0.0
C2754 C 0.9506 0.71202 0.9841 0.0
C2755 C 0.9392 0.70954 0.99827 0.0
C2756 C 0.8965 0.68389 0.00828 0.0
C2757 C 0.87642 0.68717 0.05483 0.0
C2758 C 0.88816 0.69107 0.03862 0.0
C2759 C 0.92311 0.70159 0.99309 0.0
C2760 C 0.9109 0.69817 0.00848 0.0
H2761 H 0.86268 0.70491 0.08559 0.0
H2762 H 0.88077 0.71103 0.05785 0.0
H2763 H 0.87425 0.66939 0.02227 0.0
H2764 H 0.9264 0.69449 0.94408 0.0
H2765 H 0.90657 0.69068 0.96852 0.0
C2766 C 0.35934 0.24089 0.13524 0.0
C2767 C 0.35669 0.24612 0.15353 0.0
C2768 C 0.35812 0.24748 0.11693 0.0
C2769 C 0.36041 0.28414 0.09713 0.0
H2770 H 0.34438 0.26103 0.0477 0.0
C2771 C 0.34679 0.31138 0.02869 0.0
C2772 C 0.35104 0.30922 0.00944 0.0
C2773 C 0.34791 0.30315 0.04529 0.0
C2774 C 0.34909 0.26767 0.06133 0.0
H2775 H 0.34969 0.26173 0.16666 0.0
H2776 H 0.34719 0.27289 0.13491 0.0
H2777 H 0.3444 0.24709 0.07855 0.0
H2778 H 0.35972 0.29641 0.9927 0.0
H2779 H 0.36165 0.28185 0.02198 0.0
H2780 H 0.36499 0.30465 0.08012 0.0
C2781 C 0.35066 0.264 0.13468 0.0
C2782 C 0.34907 0.25968 0.07904 0.0
C2783 C 0.35193 0.25747 0.15294 0.0
C2784 C 0.35639 0.29842 0.00728 0.0
C2785 C 0.35742 0.29002 0.02403 0.0
C2786 C 0.3604 0.29207 0.07953 0.0
C2787 C 0.35419 0.25946 0.11644 0.0
C2788 C 0.35451 0.26779 0.09727 0.0
C2789 C 0.35329 0.2924 0.04328 0.0
C2790 C 0.35451 0.28394 0.06145 0.0
H2791 H 0.3631 0.23222 0.13508 0.0
H2792 H 0.36096 0.24369 0.10325 0.0
H2793 H 0.36515 0.29091 0.11067 0.0
H2794 H 0.34257 0.31953 0.03109 0.0
H2795 H 0.34436 0.30511 0.05976 0.0
C2796 C 0.79351 0.20841 0.11276 0.0
C2797 C 0.80297 0.22471 0.10918 0.0
C2798 C 0.78605 0.19805 0.09695 0.0
C2799 C 0.77194 0.19569 0.04517 0.0
H2800 H 0.77507 0.15786 0.04311 0.0
C2801 C 0.74874 0.15489 0.97699 0.0
C2802 C 0.74092 0.13857 0.98061 0.0
C2803 C 0.75708 0.16543 0.99232 0.0
C2804 C 0.77389 0.16825 0.04356 0.0
H2805 H 0.81155 0.24278 0.08592 0.0
H2806 H 0.79823 0.2247 0.05843 0.0
H2807 H 0.78743 0.17615 0.07069 0.0
H2808 H 0.73601 0.1205 0.00306 0.0
H2809 H 0.75025 0.13888 0.02999 0.0
H2810 H 0.75812 0.18772 0.01837 0.0
C2811 C 0.79669 0.22001 0.07356 0.0
C2812 C 0.78102 0.17875 0.05936 0.0
C2813 C 0.80429 0.23038 0.08937 0.0
C2814 C 0.74199 0.13301 0.99977 0.0
C2815 C 0.75021 0.14358 0.0152 0.0
C2816 C 0.76468 0.18513 0.02948 0.0
C2817 C 0.78768 0.20371 0.07716 0.0
C2818 C 0.78012 0.19259 0.06033 0.0
C2819 C 0.75766 0.15995 0.01175 0.0
C2820 C 0.76558 0.17126 0.02842 0.0
H2821 H 0.79187 0.20358 0.12779 0.0
H2822 H 0.77893 0.18559 0.10024 0.0
H2823 H 0.77088 0.20615 0.04565 0.0
H2824 H 0.74824 0.15955 0.96234 0.0
H2825 H 0.76297 0.17792 0.98892 0.0
loop_
_geom_bond_atom_site_label_1
_geom_bond_atom_site_label_2
_geom_bond_distance
_geom_bond_site_symmetry_2
_ccdc_geom_bond_type
Cu0 N1 1.999 . S
Cu0 O6 1.974 1_554 S
Cu0 N11 1.985 1_554 S
Cu0 O20 1.959 . S
N1 Cu0 1.999 . S
N1 C3 1.263 . S
N1 C5 1.389 . S
N2 C3 1.358 . S
N2 C4 1.400 . S
C3 N1 1.263 . S
C3 N2 1.358 . S
C3 H9 0.930 . S
C4 N2 1.400 . S
C4 C5 1.351 . S
C4 H21 0.930 . S
C5 N1 1.389 . S
C5 C4 1.351 . S
C5 H10 0.930 . S
O6 Cu0 1.974 1_556 S
O6 C16 1.282 . S
C7 O8 1.261 . S
C7 O20 1.251 . S
O8 C7 1.261 . S
H9 C3 0.930 . S
H10 C5 0.930 . S
N11 Cu0 1.985 1_556 S
N11 C13 1.335 . S
N11 C14 1.390 . S
N12 C13 1.345 . S
N12 C15 1.336 . S
C13 N11 1.335 . S
C13 N12 1.345 . S
C13 H18 0.930 . S
C14 N11 1.390 . S
C14 C15 1.346 . S
C14 H19 0.930 . S
C15 N12 1.336 . S
C15 C14 1.346 . S
C15 H22 0.929 . S
C16 O6 1.282 . S
C16 O17 1.216 . S
O17 C16 1.216 . S
H18 C13 0.930 . S
H19 C14 0.930 . S
O20 Cu0 1.959 . S
O20 C7 1.251 . S
H21 C4 0.930 . S
H22 C15 0.929 . S
Cu23 N24 1.999 1_554 S
Cu23 O29 1.974 . S
Cu23 N34 1.985 . S
Cu23 O43 1.959 1_554 S
N24 Cu23 1.999 1_556 S
N24 C26 1.263 . S
N24 C28 1.389 . S
N25 C26 1.358 . S
N25 C27 1.400 . S
C26 N24 1.263 . S
C26 N25 1.358 . S
C26 H32 0.930 . S
C27 N25 1.400 . S
C27 C28 1.351 . S
C27 H44 0.930 . S
C28 N24 1.389 . S
C28 C27 1.351 . S
C28 H33 0.930 . S
O29 Cu23 1.974 . S
O29 C39 1.282 . S
C30 O31 1.261 1_556 S
C30 O43 1.251 . S
O31 C30 1.261 1_554 S
H32 C26 0.930 . S
H33 C28 0.930 . S
N34 Cu23 1.985 . S
N34 C36 1.335 . S
N34 C37 1.390 . S
N35 C36 1.345 . S
N35 C38 1.336 . S
C36 N34 1.335 . S
C36 N35 1.345 . S
C36 H41 0.930 . S
C37 N34 1.390 . S
C37 C38 1.346 . S
C37 H42 0.930 . S
C38 N35 1.336 . S
C38 C37 1.346 . S
C38 H45 0.929 . S
C39 O29 1.282 . S
C39 O40 1.216 . S
O40 C39 1.216 . S
H41 C36 0.930 . S
H42 C37 0.930 . S
O43 Cu23 1.959 1_556 S
O43 C30 1.251 . S
H44 C27 0.930 . S
H45 C38 0.929 . S
Cu46 N47 1.999 1_554 S
Cu46 O52 1.974 . S
Cu46 N57 1.985 . S
Cu46 O66 1.959 . S
N47 Cu46 1.999 1_556 S
N47 C49 1.263 . S
N47 C51 1.426 . S
N48 C49 1.358 . S
N48 C50 1.462 . S
C49 N47 1.263 . S
C49 N48 1.358 . S
C49 H55 0.930 . S
C50 N48 1.462 . S
C50 C51 1.347 . S
C50 H67 0.903 1_545 S
C51 N47 1.426 . S
C51 C50 1.347 . S
C51 H56 0.883 1_545 S
O52 Cu46 1.974 . S
O52 C62 1.282 . S
C53 O54 1.261 . S
C53 O66 1.251 . S
O54 C53 1.261 . S
H55 C49 0.930 . S
H56 C51 0.883 1_565 S
N57 Cu46 1.985 . S
N57 C59 1.335 . S
N57 C60 1.390 . S
N58 C59 1.345 . S
N58 C61 1.336 . S
C59 N57 1.335 . S
C59 N58 1.345 . S
C59 H64 0.930 . S
C60 N57 1.390 . S
C60 C61 1.346 . S
C60 H65 0.930 . S
C61 N58 1.336 . S
C61 C60 1.346 . S
C61 H68 0.929 . S
C62 O52 1.282 . S
C62 O63 1.216 . S
O63 C62 1.216 . S
H64 C59 0.930 . S
H65 C60 0.930 . S
O66 Cu46 1.959 . S
O66 C53 1.251 . S
H67 C50 0.903 1_565 S
H68 C61 0.929 . S
Cu69 N70 1.999 . S
Cu69 O75 1.974 . S
Cu69 N80 1.985 . S
Cu69 O89 1.959 . S
N70 Cu69 1.999 . S
N70 C72 1.263 . S
N70 C74 1.389 . S
N71 C72 1.358 . S
N71 C73 1.400 . S
C72 N70 1.263 . S
C72 N71 1.358 . S
C72 H78 0.930 . S
C73 N71 1.400 . S
C73 C74 1.351 . S
C73 H90 0.930 . S
C74 N70 1.389 . S
C74 C73 1.351 . S
C74 H79 0.930 . S
O75 Cu69 1.974 . S
O75 C85 1.282 . S
C76 O77 1.261 . S
C76 O89 1.251 . S
O77 C76 1.261 . S
H78 C72 0.930 . S
H79 C74 0.930 . S
N80 Cu69 1.985 . S
N80 C82 1.335 . S
N80 C83 1.390 . S
N81 C82 1.345 . S
N81 C84 1.336 . S
C82 N80 1.335 . S
C82 N81 1.345 . S
C82 H87 0.930 . S
C83 N80 1.390 . S
C83 C84 1.346 . S
C83 H88 0.930 . S
C84 N81 1.336 . S
C84 C83 1.346 . S
C84 H91 0.929 . S
C85 O75 1.282 . S
C85 O86 1.216 1_545 S
O86 C85 1.216 1_565 S
H87 C82 0.930 . S
H88 C83 0.930 . S
O89 Cu69 1.959 . S
O89 C76 1.251 . S
H90 C73 0.930 . S
H91 C84 0.929 . S
Cu92 N93 1.999 . S
Cu92 O98 1.974 . S
Cu92 N103 1.985 . S
Cu92 O112 1.959 . S
N93 Cu92 1.999 . S
N93 C95 1.263 . S
N93 C97 1.389 . S
N94 C95 1.358 . S
N94 C96 1.400 . S
C95 N93 1.263 . S
C95 N94 1.358 . S
C95 H101 0.930 . S
C96 N94 1.400 . S
C96 C97 1.351 . S
C96 H113 0.930 . S
C97 N93 1.389 . S
C97 C96 1.351 . S
C97 H102 0.930 . S
O98 Cu92 1.974 . S
O98 C108 1.282 . S
C99 O100 1.261 . S
C99 O112 1.251 . S
O100 C99 1.261 . S
H101 C95 0.930 . S
H102 C97 0.930 . S
N103 Cu92 1.985 . S
N103 C105 1.335 . S
N103 C106 1.390 . S
N104 C105 1.345 . S
N104 C107 1.336 . S
C105 N103 1.335 . S
C105 N104 1.345 . S
C105 H110 0.930 . S
C106 N103 1.390 . S
C106 C107 1.346 . S
C106 H111 0.930 . S
C107 N104 1.336 . S
C107 C106 1.346 . S
C107 H114 0.929 . S
C108 O98 1.282 . S
C108 O109 1.216 . S
O109 C108 1.216 . S
H110 C105 0.930 . S
H111 C106 0.930 . S
O112 Cu92 1.959 . S
O112 C99 1.251 . S
H113 C96 0.930 . S
H114 C107 0.929 . S
Cu115 N116 1.999 . S
Cu115 O121 1.974 . S
Cu115 N126 1.985 . S
Cu115 O135 1.959 . S
N116 Cu115 1.999 . S
N116 C118 1.263 . S
N116 C120 1.389 . S
N117 C118 1.358 . S
N117 C119 1.400 . S
C118 N116 1.263 . S
C118 N117 1.358 . S
C118 H124 0.930 . S
C119 N117 1.400 . S
C119 C120 1.351 . S
C119 H136 0.930 . S
C120 N116 1.389 . S
C120 C119 1.351 . S
C120 H125 0.930 . S
O121 Cu115 1.974 . S
O121 C131 1.282 . S
C122 O123 1.261 . S
C122 O135 1.251 . S
O123 C122 1.261 . S
H124 C118 0.930 . S
H125 C120 0.930 . S
N126 Cu115 1.985 . S
N126 C128 1.335 . S
N126 C129 1.390 . S
N127 C128 1.345 . S
N127 C130 1.336 . S
C128 N126 1.335 . S
C128 N127 1.345 . S
C128 H133 0.930 . S
C129 N126 1.390 . S
C129 C130 1.346 . S
C129 H134 0.930 . S
C130 N127 1.336 . S
C130 C129 1.346 . S
C130 H137 0.929 . S
C131 O121 1.282 . S
C131 O132 1.216 . S
O132 C131 1.216 . S
H133 C128 0.930 . S
H134 C129 0.930 . S
O135 Cu115 1.959 . S
O135 C122 1.251 . S
H136 C119 0.930 . S
H137 C130 0.929 . S
Cu138 N139 1.999 . S
Cu138 O144 1.974 . S
Cu138 N149 1.985 . S
Cu138 O158 1.959 . S
N139 Cu138 1.999 . S
N139 C141 1.263 . S
N139 C143 1.389 . S
N140 C141 1.358 . S
N140 C142 1.400 . S
C141 N139 1.263 . S
C141 N140 1.358 . S
C141 H147 0.930 . S
C142 N140 1.400 . S
C142 C143 1.351 . S
C142 H159 0.930 . S
C143 N139 1.389 . S
C143 C142 1.351 . S
C143 H148 0.930 . S
O144 Cu138 1.974 . S
O144 C154 1.282 . S
C145 O146 1.261 . S
C145 O158 1.251 . S
O146 C145 1.261 . S
H147 C141 0.930 . S
H148 C143 0.930 . S
N149 Cu138 1.985 . S
N149 C151 1.335 . S
N149 C152 1.390 . S
N150 C151 1.345 . S
N150 C153 1.336 . S
C151 N149 1.335 . S
C151 N150 1.345 . S
C151 H156 0.930 . S
C152 N149 1.390 . S
C152 C153 1.346 . S
C152 H157 0.930 . S
C153 N150 1.336 . S
C153 C152 1.346 . S
C153 H160 0.929 . S
C154 O144 1.282 . S
C154 O155 1.216 . S
O155 C154 1.216 . S
H156 C151 0.930 . S
H157 C152 0.930 . S
O158 Cu138 1.959 . S
O158 C145 1.251 . S
H159 C142 0.930 . S
H160 C153 0.929 . S
Cu161 N162 1.999 . S
Cu161 O167 1.974 . S
Cu161 N172 1.985 . S
Cu161 O181 1.959 . S
N162 Cu161 1.999 . S
N162 C164 1.263 . S
N162 C166 1.389 . S
N163 C164 1.358 . S
N163 C165 1.400 . S
C164 N162 1.263 . S
C164 N163 1.358 . S
C164 H170 0.930 . S
C165 N163 1.400 . S
C165 C166 1.351 . S
C165 H182 0.930 . S
C166 N162 1.389 . S
C166 C165 1.351 . S
C166 H171 0.930 . S
O167 Cu161 1.974 . S
O167 C177 1.282 . S
C168 O169 1.261 . S
C168 O181 1.251 . S
O169 C168 1.261 . S
H170 C164 0.930 . S
H171 C166 0.930 . S
N172 Cu161 1.985 . S
N172 C174 1.335 . S
N172 C175 1.390 . S
N173 C174 1.345 . S
N173 C176 1.336 . S
C174 N172 1.335 . S
C174 N173 1.345 . S
C174 H179 0.930 . S
C175 N172 1.390 . S
C175 C176 1.346 . S
C175 H180 0.930 . S
C176 N173 1.336 . S
C176 C175 1.346 . S
C176 H183 0.929 . S
C177 O167 1.282 . S
C177 O178 1.216 . S
O178 C177 1.216 . S
H179 C174 0.930 . S
H180 C175 0.930 . S
O181 Cu161 1.959 . S
O181 C168 1.251 . S
H182 C165 0.930 . S
H183 C176 0.929 . S
Cu184 N185 1.999 . S
Cu184 O190 1.974 . S
Cu184 N195 1.985 . S
Cu184 O204 1.959 . S
N185 Cu184 1.999 . S
N185 C187 1.263 . S
N185 C189 1.389 . S
N186 C187 1.358 . S
N186 C188 1.400 . S
C187 N185 1.263 . S
C187 N186 1.358 . S
C187 H193 0.930 . S
C188 N186 1.400 . S
C188 C189 1.351 . S
C188 H205 0.930 . S
C189 N185 1.389 . S
C189 C188 1.351 . S
C189 H194 0.930 . S
O190 Cu184 1.974 . S
O190 C200 1.282 . S
C191 O192 1.261 . S
C191 O204 1.251 . S
O192 C191 1.261 . S
H193 C187 0.930 . S
H194 C189 0.930 . S
N195 Cu184 1.985 . S
N195 C197 1.335 . S
N195 C198 1.390 . S
N196 C197 1.345 . S
N196 C199 1.336 . S
C197 N195 1.335 . S
C197 N196 1.345 . S
C197 H202 0.930 . S
C198 N195 1.390 . S
C198 C199 1.346 . S
C198 H203 0.930 . S
C199 N196 1.336 . S
C199 C198 1.346 . S
C199 H206 0.929 . S
C200 O190 1.282 . S
C200 O201 1.216 . S
O201 C200 1.216 . S
H202 C197 0.930 . S
H203 C198 0.930 . S
O204 Cu184 1.959 . S
O204 C191 1.251 . S
H205 C188 0.930 . S
H206 C199 0.929 . S
Cu207 N208 1.999 . S
Cu207 O213 1.974 . S
Cu207 N218 1.985 . S
Cu207 O227 1.959 . S
N208 Cu207 1.999 . S
N208 C210 1.263 . S
N208 C212 1.389 . S
N209 C210 1.358 . S
N209 C211 1.400 . S
C210 N208 1.263 . S
C210 N209 1.358 . S
C210 H216 0.930 . S
C211 N209 1.400 . S
C211 C212 1.351 . S
C211 H228 0.930 . S
C212 N208 1.389 . S
C212 C211 1.351 . S
C212 H217 0.930 . S
O213 Cu207 1.974 . S
O213 C223 1.282 . S
C214 O215 1.261 . S
C214 O227 1.251 . S
O215 C214 1.261 . S
H216 C210 0.930 . S
H217 C212 0.930 . S
N218 Cu207 1.985 . S
N218 C220 1.335 . S
N218 C221 1.390 . S
N219 C220 1.345 . S
N219 C222 1.336 . S
C220 N218 1.335 . S
C220 N219 1.345 . S
C220 H225 0.930 . S
C221 N218 1.390 . S
C221 C222 1.346 . S
C221 H226 0.930 . S
C222 N219 1.336 . S
C222 C221 1.346 . S
C222 H229 0.929 . S
C223 O213 1.282 . S
C223 O224 1.216 . S
O224 C223 1.216 . S
H225 C220 0.930 . S
H226 C221 0.930 . S
O227 Cu207 1.959 . S
O227 C214 1.251 . S
H228 C211 0.930 . S
H229 C222 0.929 . S
Cu230 N231 1.999 . S
Cu230 O236 1.974 . S
Cu230 N241 1.985 . S
Cu230 O250 1.959 . S
N231 Cu230 1.999 . S
N231 C233 1.263 . S
N231 C235 1.389 . S
N232 C233 1.358 . S
N232 C234 1.400 . S
C233 N231 1.263 . S
C233 N232 1.358 . S
C233 H239 0.930 . S
C234 N232 1.400 . S
C234 C235 1.351 . S
C234 H251 0.930 . S
C235 N231 1.389 . S
C235 C234 1.351 . S
C235 H240 0.930 . S
O236 Cu230 1.974 . S
O236 C246 1.282 . S
C237 O238 1.261 . S
C237 O250 1.251 . S
O238 C237 1.261 . S
H239 C233 0.930 . S
H240 C235 0.930 . S
N241 Cu230 1.985 . S
N241 C243 1.335 . S
N241 C244 1.390 . S
N242 C243 1.345 . S
N242 C245 1.336 . S
C243 N241 1.335 . S
C243 N242 1.345 . S
C243 H248 0.930 . S
C244 N241 1.390 . S
C244 C245 1.346 . S
C244 H249 0.930 . S
C245 N242 1.336 . S
C245 C244 1.346 . S
C245 H252 0.929 . S
C246 O236 1.282 . S
C246 O247 1.216 . S
O247 C246 1.216 . S
H248 C243 0.930 . S
H249 C244 0.930 . S
O250 Cu230 1.959 . S
O250 C237 1.251 . S
H251 C234 0.930 . S
H252 C245 0.929 . S
Cu253 N254 1.999 . S
Cu253 O259 1.974 . S
Cu253 N264 1.985 . S
Cu253 O273 1.959 . S
N254 Cu253 1.999 . S
N254 C256 1.263 . S
N254 C258 1.389 . S
N255 C256 1.358 . S
N255 C257 1.400 . S
C256 N254 1.263 . S
C256 N255 1.358 . S
C256 H262 0.930 . S
C257 N255 1.400 . S
C257 C258 1.351 . S
C257 H274 0.930 . S
C258 N254 1.389 . S
C258 C257 1.351 . S
C258 H263 0.930 . S
O259 Cu253 1.974 . S
O259 C269 1.282 . S
C260 O261 1.261 . S
C260 O273 1.251 . S
O261 C260 1.261 . S
H262 C256 0.930 . S
H263 C258 0.930 . S
N264 Cu253 1.985 . S
N264 C266 1.335 . S
N264 C267 1.390 . S
N265 C266 1.345 . S
N265 C268 1.336 . S
C266 N264 1.335 . S
C266 N265 1.345 . S
C266 H271 0.930 . S
C267 N264 1.390 . S
C267 C268 1.346 . S
C267 H272 0.930 . S
C268 N265 1.336 . S
C268 C267 1.346 . S
C268 H275 0.929 . S
C269 O259 1.282 . S
C269 O270 1.216 . S
O270 C269 1.216 . S
H271 C266 0.930 . S
H272 C267 0.930 . S
O273 Cu253 1.959 . S
O273 C260 1.251 . S
H274 C257 0.930 . S
H275 C268 0.929 . S
Cu276 N277 1.999 . S
Cu276 O282 1.974 . S
Cu276 N287 1.985 . S
Cu276 O296 1.959 . S
N277 Cu276 1.999 . S
N277 C279 1.263 . S
N277 C281 1.389 . S
N278 C279 1.358 . S
N278 C280 1.400 . S
C279 N277 1.263 . S
C279 N278 1.358 . S
C279 H285 0.930 . S
C280 N278 1.400 . S
C280 C281 1.351 . S
C280 H297 0.930 . S
C281 N277 1.389 . S
C281 C280 1.351 . S
C281 H286 0.930 . S
O282 Cu276 1.974 . S
O282 C292 1.282 . S
C283 O284 1.261 . S
C283 O296 1.251 . S
O284 C283 1.261 . S
H285 C279 0.930 . S
H286 C281 0.930 . S
N287 Cu276 1.985 . S
N287 C289 1.335 . S
N287 C290 1.390 . S
N288 C289 1.345 . S
N288 C291 1.336 . S
C289 N287 1.335 . S
C289 N288 1.345 . S
C289 H294 0.930 . S
C290 N287 1.390 . S
C290 C291 1.346 . S
C290 H295 0.930 . S
C291 N288 1.336 . S
C291 C290 1.346 . S
C291 H298 0.929 . S
C292 O282 1.282 . S
C292 O293 1.216 . S
O293 C292 1.216 . S
H294 C289 0.930 . S
H295 C290 0.930 . S
O296 Cu276 1.959 . S
O296 C283 1.251 . S
H297 C280 0.930 . S
H298 C291 0.929 . S
Cu299 N300 1.999 . S
Cu299 O305 1.974 . S
Cu299 N310 1.985 . S
Cu299 O319 1.959 . S
N300 Cu299 1.999 . S
N300 C302 1.263 . S
N300 C304 1.389 . S
N301 C302 1.358 . S
N301 C303 1.400 . S
C302 N300 1.263 . S
C302 N301 1.358 . S
C302 H308 0.930 . S
C303 N301 1.400 . S
C303 C304 1.351 . S
C303 H320 0.930 . S
C304 N300 1.389 . S
C304 C303 1.351 . S
C304 H309 0.930 . S
O305 Cu299 1.974 . S
O305 C315 1.282 . S
C306 O307 1.261 . S
C306 O319 1.251 . S
O307 C306 1.261 . S
H308 C302 0.930 . S
H309 C304 0.930 . S
N310 Cu299 1.985 . S
N310 C312 1.335 . S
N310 C313 1.390 . S
N311 C312 1.345 . S
N311 C314 1.336 . S
C312 N310 1.335 . S
C312 N311 1.345 . S
C312 H317 0.930 . S
C313 N310 1.390 . S
C313 C314 1.346 . S
C313 H318 0.930 . S
C314 N311 1.336 . S
C314 C313 1.346 . S
C314 H321 0.929 . S
C315 O305 1.282 . S
C315 O316 1.216 . S
O316 C315 1.216 . S
H317 C312 0.930 . S
H318 C313 0.930 . S
O319 Cu299 1.959 . S
O319 C306 1.251 . S
H320 C303 0.930 . S
H321 C314 0.929 . S
Cu322 N323 1.999 . S
Cu322 O328 1.974 . S
Cu322 N333 1.985 . S
Cu322 O342 1.959 . S
N323 Cu322 1.999 . S
N323 C325 1.263 . S
N323 C327 1.389 . S
N324 C325 1.358 . S
N324 C326 1.400 . S
C325 N323 1.263 . S
C325 N324 1.358 . S
C325 H331 0.930 . S
C326 N324 1.400 . S
C326 C327 1.351 . S
C326 H343 0.930 . S
C327 N323 1.389 . S
C327 C326 1.351 . S
C327 H332 0.930 . S
O328 Cu322 1.974 . S
O328 C338 1.282 . S
C329 O330 1.261 . S
C329 O342 1.251 . S
O330 C329 1.261 . S
H331 C325 0.930 . S
H332 C327 0.930 . S
N333 Cu322 1.985 . S
N333 C335 1.335 . S
N333 C336 1.390 . S
N334 C335 1.345 . S
N334 C337 1.336 . S
C335 N333 1.335 . S
C335 N334 1.345 . S
C335 H340 0.930 . S
C336 N333 1.390 . S
C336 C337 1.346 . S
C336 H341 0.930 . S
C337 N334 1.336 . S
C337 C336 1.346 . S
C337 H344 0.929 . S
C338 O328 1.282 . S
C338 O339 1.216 . S
O339 C338 1.216 . S
H340 C335 0.930 . S
H341 C336 0.930 . S
O342 Cu322 1.959 . S
O342 C329 1.251 . S
H343 C326 0.930 . S
H344 C337 0.929 . S
Cu345 N346 1.999 . S
Cu345 O351 1.974 . S
Cu345 N356 1.985 . S
Cu345 O365 1.959 . S
N346 Cu345 1.999 . S
N346 C348 1.263 . S
N346 C350 1.389 . S
N347 C348 1.358 . S
N347 C349 1.400 . S
C348 N346 1.263 . S
C348 N347 1.358 . S
C348 H354 0.930 . S
C349 N347 1.400 . S
C349 C350 1.351 . S
C349 H366 0.930 . S
C350 N346 1.389 . S
C350 C349 1.351 . S
C350 H355 0.930 . S
O351 Cu345 1.974 . S
O351 C361 1.282 . S
C352 O353 1.261 . S
C352 O365 1.251 . S
O353 C352 1.261 . S
H354 C348 0.930 . S
H355 C350 0.930 . S
N356 Cu345 1.985 . S
N356 C358 1.335 . S
N356 C359 1.390 . S
N357 C358 1.345 . S
N357 C360 1.336 . S
C358 N356 1.335 . S
C358 N357 1.345 . S
C358 H363 0.930 . S
C359 N356 1.390 . S
C359 C360 1.346 . S
C359 H364 0.930 . S
C360 N357 1.336 . S
C360 C359 1.346 . S
C360 H367 0.929 . S
C361 O351 1.282 . S
C361 O362 1.216 . S
O362 C361 1.216 . S
H363 C358 0.930 . S
H364 C359 0.930 . S
O365 Cu345 1.959 . S
O365 C352 1.251 . S
H366 C349 0.930 . S
H367 C360 0.929 . S
Cu368 N369 1.999 . S
Cu368 O374 1.974 . S
Cu368 N379 1.985 . S
Cu368 O388 1.959 . S
N369 Cu368 1.999 . S
N369 C371 1.263 . S
N369 C373 1.389 . S
N370 C371 1.358 . S
N370 C372 1.400 . S
C371 N369 1.263 . S
C371 N370 1.358 . S
C371 H377 0.930 . S
C372 N370 1.400 . S
C372 C373 1.351 . S
C372 H389 0.930 . S
C373 N369 1.389 . S
C373 C372 1.351 . S
C373 H378 0.930 . S
O374 Cu368 1.974 . S
O374 C384 1.282 . S
C375 O376 1.261 . S
C375 O388 1.251 . S
O376 C375 1.261 . S
H377 C371 0.930 . S
H378 C373 0.930 . S
N379 Cu368 1.985 . S
N379 C381 1.335 . S
N379 C382 1.390 . S
N380 C381 1.345 . S
N380 C383 1.336 . S
C381 N379 1.335 . S
C381 N380 1.345 . S
C381 H386 0.930 . S
C382 N379 1.390 . S
C382 C383 1.346 . S
C382 H387 0.930 . S
C383 N380 1.336 . S
C383 C382 1.346 . S
C383 H390 0.929 . S
C384 O374 1.282 . S
C384 O385 1.216 . S
O385 C384 1.216 . S
H386 C381 0.930 . S
H387 C382 0.930 . S
O388 Cu368 1.959 . S
O388 C375 1.251 . S
H389 C372 0.930 . S
H390 C383 0.929 . S
Cu391 N392 1.999 . S
Cu391 O397 1.974 . S
Cu391 N402 1.985 . S
Cu391 O411 1.959 . S
N392 Cu391 1.999 . S
N392 C394 1.263 . S
N392 C396 1.389 . S
N393 C394 1.358 . S
N393 C395 1.400 . S
C394 N392 1.263 . S
C394 N393 1.358 . S
C394 H400 0.930 . S
C395 N393 1.400 . S
C395 C396 1.351 . S
C395 H412 0.930 . S
C396 N392 1.389 . S
C396 C395 1.351 . S
C396 H401 0.930 . S
O397 Cu391 1.974 . S
O397 C407 1.282 . S
C398 O399 1.261 . S
C398 O411 1.251 . S
O399 C398 1.261 . S
H400 C394 0.930 . S
H401 C396 0.930 . S
N402 Cu391 1.985 . S
N402 C404 1.335 . S
N402 C405 1.390 . S
N403 C404 1.345 . S
N403 C406 1.336 . S
C404 N402 1.335 . S
C404 N403 1.345 . S
C404 H409 0.930 . S
C405 N402 1.390 . S
C405 C406 1.346 . S
C405 H410 0.930 . S
C406 N403 1.336 . S
C406 C405 1.346 . S
C406 H413 0.929 . S
C407 O397 1.282 . S
C407 O408 1.216 . S
O408 C407 1.216 . S
H409 C404 0.930 . S
H410 C405 0.930 . S
O411 Cu391 1.959 . S
O411 C398 1.251 . S
H412 C395 0.930 . S
H413 C406 0.929 . S
C414 O415 1.306 . S
C414 O417 1.160 . S
O415 C414 1.306 . S
O415 Cd416 2.228 . S
Cd416 O415 2.228 . S
Cd416 O420 2.273 1_455 S
Cd416 O424 2.277 . S
O417 C414 1.160 . S
O417 Cd418 2.203 . S
Cd418 O417 2.203 . S
Cd418 O420 2.411 1_455 S
Cd418 O421 2.333 . S
Cd418 O422 2.352 . S
Cd418 O426 2.277 . S
Cd418 O427 2.356 . S
C419 O424 1.209 . S
C419 O426 1.226 . S
O420 Cd416 2.273 1_655 S
O420 Cd418 2.411 1_655 S
O420 C423 1.320 . S
O421 Cd418 2.333 . S
O421 C423 1.214 1_455 S
O422 Cd418 2.352 . S
O422 C425 1.258 . S
C423 O420 1.320 . S
C423 O421 1.214 1_655 S
O424 Cd416 2.277 . S
O424 C419 1.209 . S
C425 O422 1.258 . S
C425 O427 1.282 . S
O426 Cd418 2.277 . S
O426 C419 1.226 . S
O427 Cd418 2.356 . S
O427 C425 1.282 . S
C428 O429 1.306 . S
C428 O431 1.160 . S
O429 C428 1.306 . S
O429 Cd430 2.228 . S
Cd430 O429 2.228 . S
Cd430 O434 2.273 . S
Cd430 O438 2.277 . S
O431 C428 1.160 . S
O431 Cd432 2.203 . S
Cd432 O431 2.203 . S
Cd432 O434 2.411 . S
Cd432 O435 2.333 . S
Cd432 O436 2.352 . S
Cd432 O440 2.277 . S
Cd432 O441 2.356 . S
C433 O438 1.209 . S
C433 O440 1.226 . S
O434 Cd430 2.273 . S
O434 Cd432 2.411 . S
O434 C437 1.320 . S
O435 Cd432 2.333 . S
O435 C437 1.214 . S
O436 Cd432 2.352 . S
O436 C439 1.258 . S
C437 O434 1.320 . S
C437 O435 1.214 . S
O438 Cd430 2.277 . S
O438 C433 1.209 . S
C439 O436 1.258 . S
C439 O441 1.282 . S
O440 Cd432 2.277 . S
O440 C433 1.226 . S
O441 Cd432 2.356 . S
O441 C439 1.282 . S
C442 O443 1.306 . S
C442 O445 1.160 . S
O443 C442 1.306 . S
O443 Cd444 2.228 . S
Cd444 O443 2.228 . S
Cd444 O448 2.273 . S
Cd444 O452 2.277 . S
O445 C442 1.160 . S
O445 Cd446 2.203 . S
Cd446 O445 2.203 . S
Cd446 O448 2.411 . S
Cd446 O449 2.333 . S
Cd446 O450 2.352 . S
Cd446 O454 2.277 . S
Cd446 O455 2.356 . S
C447 O452 1.209 . S
C447 O454 1.226 . S
O448 Cd444 2.273 . S
O448 Cd446 2.411 . S
O448 C451 1.320 . S
O449 Cd446 2.333 . S
O449 C451 1.214 . S
O450 Cd446 2.352 . S
O450 C453 1.258 . S
C451 O448 1.320 . S
C451 O449 1.214 . S
O452 Cd444 2.277 . S
O452 C447 1.209 . S
C453 O450 1.258 . S
C453 O455 1.282 . S
O454 Cd446 2.277 . S
O454 C447 1.226 . S
O455 Cd446 2.356 . S
O455 C453 1.282 . S
C456 O457 1.306 . S
C456 O459 1.160 . S
O457 C456 1.306 . S
O457 Cd458 2.228 . S
Cd458 O457 2.228 . S
Cd458 O462 2.273 . S
Cd458 O466 2.277 . S
O459 C456 1.160 . S
O459 Cd460 2.203 . S
Cd460 O459 2.203 . S
Cd460 O462 2.411 . S
Cd460 O463 2.333 . S
Cd460 O464 2.352 . S
Cd460 O468 2.277 1_455 S
Cd460 O469 2.356 . S
C461 O466 1.157 1_655 S
C461 O468 1.255 . S
O462 Cd458 2.273 . S
O462 Cd460 2.411 . S
O462 C465 1.320 . S
O463 Cd460 2.333 . S
O463 C465 1.214 . S
O464 Cd460 2.352 . S
O464 C467 1.258 . S
C465 O462 1.320 . S
C465 O463 1.214 . S
O466 Cd458 2.277 . S
O466 C461 1.157 1_455 S
C467 O464 1.258 . S
C467 O469 1.282 . S
O468 Cd460 2.277 1_655 S
O468 C461 1.255 . S
O469 Cd460 2.356 . S
O469 C467 1.282 . S
C470 O471 1.306 . S
C470 O473 1.160 . S
O471 C470 1.306 . S
O471 Cd472 2.228 . S
Cd472 O471 2.228 . S
Cd472 O476 2.273 . S
Cd472 O480 2.277 . S
O473 C470 1.160 . S
O473 Cd474 2.203 . S
Cd474 O473 2.203 . S
Cd474 O476 2.411 . S
Cd474 O477 2.333 . S
Cd474 O478 2.352 . S
Cd474 O482 2.277 . S
Cd474 O483 2.356 . S
C475 O480 1.209 . S
C475 O482 1.226 . S
O476 Cd472 2.273 . S
O476 Cd474 2.411 . S
O476 C479 1.320 . S
O477 Cd474 2.333 . S
O477 C479 1.214 . S
O478 Cd474 2.352 . S
O478 C481 1.258 . S
C479 O476 1.320 . S
C479 O477 1.214 . S
O480 Cd472 2.277 . S
O480 C475 1.209 . S
C481 O478 1.258 . S
C481 O483 1.282 . S
O482 Cd474 2.277 . S
O482 C475 1.226 . S
O483 Cd474 2.356 . S
O483 C481 1.282 . S
C484 O485 1.306 . S
C484 O487 1.160 . S
O485 C484 1.306 . S
O485 Cd486 2.228 . S
Cd486 O485 2.228 . S
Cd486 O490 2.273 . S
Cd486 O494 2.277 . S
O487 C484 1.160 . S
O487 Cd488 2.203 . S
Cd488 O487 2.203 . S
Cd488 O490 2.411 . S
Cd488 O491 2.333 . S
Cd488 O492 2.352 . S
Cd488 O496 2.277 . S
Cd488 O497 2.356 . S
C489 O494 1.209 . S
C489 O496 1.226 . S
O490 Cd486 2.273 . S
O490 Cd488 2.411 . S
O490 C493 1.320 . S
O491 Cd488 2.333 . S
O491 C493 1.214 . S
O492 Cd488 2.352 . S
O492 C495 1.258 . S
C493 O490 1.320 . S
C493 O491 1.214 . S
O494 Cd486 2.277 . S
O494 C489 1.209 . S
C495 O492 1.258 . S
C495 O497 1.282 . S
O496 Cd488 2.277 . S
O496 C489 1.226 . S
O497 Cd488 2.356 . S
O497 C495 1.282 . S
C498 O499 1.306 . S
C498 O501 1.160 . S
O499 C498 1.306 . S
O499 Cd500 2.228 1_565 S
Cd500 O499 2.228 1_545 S
Cd500 O504 2.273 1_545 S
Cd500 O508 2.277 . S
O501 C498 1.160 . S
O501 Cd502 2.165 1_565 S
Cd502 O501 2.165 1_545 S
Cd502 O504 2.429 1_545 S
Cd502 O505 2.372 . S
Cd502 O506 2.302 1_545 S
Cd502 O510 2.317 . S
Cd502 O511 2.337 1_545 S
C503 O508 1.209 . S
C503 O510 1.226 . S
O504 Cd500 2.273 1_565 S
O504 Cd502 2.429 1_565 S
O504 C507 1.320 1_565 S
O505 Cd502 2.372 . S
O505 C507 1.214 . S
O506 Cd502 2.302 1_565 S
O506 C509 1.258 . S
C507 O504 1.320 1_545 S
C507 O505 1.214 . S
O508 Cd500 2.277 . S
O508 C503 1.209 . S
C509 O506 1.258 . S
C509 O511 1.282 . S
O510 Cd502 2.317 . S
O510 C503 1.226 . S
O511 Cd502 2.337 1_565 S
O511 C509 1.282 . S
C512 O513 1.306 . S
C512 O515 1.160 . S
O513 C512 1.306 . S
O513 Cd514 2.228 . S
Cd514 O513 2.228 . S
Cd514 O518 2.273 . S
Cd514 O522 2.277 . S
O515 C512 1.160 . S
O515 Cd516 2.203 . S
Cd516 O515 2.203 . S
Cd516 O518 2.411 . S
Cd516 O519 2.333 . S
Cd516 O520 2.352 . S
Cd516 O524 2.277 . S
Cd516 O525 2.356 . S
C517 O522 1.209 . S
C517 O524 1.226 . S
O518 Cd514 2.273 . S
O518 Cd516 2.411 . S
O518 C521 1.320 . S
O519 Cd516 2.333 . S
O519 C521 1.214 . S
O520 Cd516 2.352 . S
O520 C523 1.258 . S
C521 O518 1.320 . S
C521 O519 1.214 . S
O522 Cd514 2.277 . S
O522 C517 1.209 . S
C523 O520 1.258 . S
C523 O525 1.282 . S
O524 Cd516 2.277 . S
O524 C517 1.226 . S
O525 Cd516 2.356 . S
O525 C523 1.282 . S
C526 O527 1.306 . S
C526 O529 1.160 . S
O527 C526 1.306 . S
O527 Cd528 2.228 . S
Cd528 O527 2.228 . S
Cd528 O532 2.273 . S
Cd528 O536 2.277 . S
O529 C526 1.160 . S
O529 Cd530 2.203 . S
Cd530 O529 2.203 . S
Cd530 O532 2.411 . S
Cd530 O533 2.333 . S
Cd530 O534 2.352 . S
Cd530 O538 2.277 . S
Cd530 O539 2.356 . S
C531 O536 1.209 . S
C531 O538 1.226 . S
O532 Cd528 2.273 . S
O532 Cd530 2.411 . S
O532 C535 1.320 . S
O533 Cd530 2.333 . S
O533 C535 1.214 . S
O534 Cd530 2.352 . S
O534 C537 1.258 . S
C535 O532 1.320 . S
C535 O533 1.214 . S
O536 Cd528 2.277 . S
O536 C531 1.209 . S
C537 O534 1.258 . S
C537 O539 1.282 . S
O538 Cd530 2.277 . S
O538 C531 1.226 . S
O539 Cd530 2.356 . S
O539 C537 1.282 . S
C540 O541 1.306 . S
C540 O543 1.160 . S
O541 C540 1.306 . S
O541 Cd542 2.228 . S
Cd542 O541 2.228 . S
Cd542 O546 2.273 . S
Cd542 O550 2.277 . S
O543 C540 1.160 . S
O543 Cd544 2.203 . S
Cd544 O543 2.203 . S
Cd544 O546 2.411 . S
Cd544 O547 2.333 . S
Cd544 O548 2.352 . S
Cd544 O552 2.277 . S
Cd544 O553 2.356 . S
C545 O550 1.209 . S
C545 O552 1.226 . S
O546 Cd542 2.273 . S
O546 Cd544 2.411 . S
O546 C549 1.320 . S
O547 Cd544 2.333 . S
O547 C549 1.214 . S
O548 Cd544 2.352 . S
O548 C551 1.258 . S
C549 O546 1.320 . S
C549 O547 1.214 . S
O550 Cd542 2.277 . S
O550 C545 1.209 . S
C551 O548 1.258 . S
C551 O553 1.282 . S
O552 Cd544 2.277 . S
O552 C545 1.226 . S
O553 Cd544 2.356 . S
O553 C551 1.282 . S
C554 O555 1.303 1_545 S
C554 O557 1.170 . S
O555 C554 1.303 1_565 S
O555 Cd556 2.215 1_565 S
Cd556 O555 2.215 1_545 S
Cd556 O560 2.265 1_545 S
Cd556 O564 2.308 . S
O557 C554 1.170 . S
O557 Cd558 2.203 1_545 S
Cd558 O557 2.203 1_565 S
Cd558 O560 2.411 . S
Cd558 O561 2.333 . S
Cd558 O562 2.352 . S
Cd558 O566 2.277 1_565 S
Cd558 O567 2.356 . S
C559 O564 1.209 . S
C559 O566 1.226 . S
O560 Cd556 2.265 1_565 S
O560 Cd558 2.411 . S
O560 C563 1.320 . S
O561 Cd558 2.333 . S
O561 C563 1.214 . S
O562 Cd558 2.352 . S
O562 C565 1.258 . S
C563 O560 1.320 . S
C563 O561 1.214 . S
O564 Cd556 2.308 . S
O564 C559 1.209 . S
C565 O562 1.258 . S
C565 O567 1.282 . S
O566 Cd558 2.277 1_545 S
O566 C559 1.226 . S
O567 Cd558 2.356 . S
O567 C565 1.282 . S
C568 O569 1.306 . S
C568 O571 1.160 . S
O569 C568 1.306 . S
O569 Cd570 2.228 . S
Cd570 O569 2.228 . S
Cd570 O574 2.273 . S
Cd570 O578 2.277 . S
O571 C568 1.160 . S
O571 Cd572 2.203 . S
Cd572 O571 2.203 . S
Cd572 O574 2.411 . S
Cd572 O575 2.333 . S
Cd572 O576 2.352 . S
Cd572 O580 2.277 . S
Cd572 O581 2.356 . S
C573 O578 1.209 . S
C573 O580 1.226 . S
O574 Cd570 2.273 . S
O574 Cd572 2.411 . S
O574 C577 1.320 . S
O575 Cd572 2.333 . S
O575 C577 1.214 . S
O576 Cd572 2.352 . S
O576 C579 1.258 . S
C577 O574 1.320 . S
C577 O575 1.214 . S
O578 Cd570 2.277 . S
O578 C573 1.209 . S
C579 O576 1.258 . S
C579 O581 1.282 . S
O580 Cd572 2.277 . S
O580 C573 1.226 . S
O581 Cd572 2.356 . S
O581 C579 1.282 . S
C582 O583 1.306 . S
C582 O585 1.160 . S
O583 C582 1.306 . S
O583 Cd584 2.228 . S
Cd584 O583 2.228 . S
Cd584 O588 2.273 . S
Cd584 O592 2.277 . S
O585 C582 1.160 . S
O585 Cd586 2.203 . S
Cd586 O585 2.203 . S
Cd586 O588 2.411 . S
Cd586 O589 2.333 . S
Cd586 O590 2.352 . S
Cd586 O594 2.277 . S
Cd586 O595 2.356 . S
C587 O592 1.209 . S
C587 O594 1.226 . S
O588 Cd584 2.273 . S
O588 Cd586 2.411 . S
O588 C591 1.320 . S
O589 Cd586 2.333 . S
O589 C591 1.214 . S
O590 Cd586 2.352 . S
O590 C593 1.258 . S
C591 O588 1.320 . S
C591 O589 1.214 . S
O592 Cd584 2.277 . S
O592 C587 1.209 . S
C593 O590 1.258 . S
C593 O595 1.282 . S
O594 Cd586 2.277 . S
O594 C587 1.226 . S
O595 Cd586 2.356 . S
O595 C593 1.282 . S
C596 O597 1.306 . S
C596 O599 1.160 . S
O597 C596 1.306 . S
O597 Cd598 2.228 . S
Cd598 O597 2.228 . S
Cd598 O602 2.273 . S
Cd598 O606 2.277 . S
O599 C596 1.160 . S
O599 Cd600 2.203 . S
Cd600 O599 2.203 . S
Cd600 O602 2.411 . S
Cd600 O603 2.333 . S
Cd600 O604 2.352 . S
Cd600 O608 2.277 . S
Cd600 O609 2.356 . S
C601 O606 1.209 . S
C601 O608 1.226 . S
O602 Cd598 2.273 . S
O602 Cd600 2.411 . S
O602 C605 1.320 . S
O603 Cd600 2.333 . S
O603 C605 1.214 . S
O604 Cd600 2.352 . S
O604 C607 1.258 . S
C605 O602 1.320 . S
C605 O603 1.214 . S
O606 Cd598 2.277 . S
O606 C601 1.209 . S
C607 O604 1.258 . S
C607 O609 1.282 . S
O608 Cd600 2.277 . S
O608 C601 1.226 . S
O609 Cd600 2.356 . S
O609 C607 1.282 . S
C610 O611 1.306 . S
C610 O613 1.160 . S
O611 C610 1.306 . S
O611 Cd612 2.228 . S
Cd612 O611 2.228 . S
Cd612 O616 2.273 . S
Cd612 O620 2.277 . S
O613 C610 1.160 . S
O613 Cd614 2.203 . S
Cd614 O613 2.203 . S
Cd614 O616 2.411 . S
Cd614 O617 2.333 . S
Cd614 O618 2.352 . S
Cd614 O622 2.277 . S
Cd614 O623 2.356 . S
C615 O620 1.209 1_455 S
C615 O622 1.226 1_455 S
O616 Cd612 2.273 . S
O616 Cd614 2.411 . S
O616 C619 1.320 . S
O617 Cd614 2.333 . S
O617 C619 1.214 . S
O618 Cd614 2.352 . S
O618 C621 1.258 . S
C619 O616 1.320 . S
C619 O617 1.214 . S
O620 Cd612 2.277 . S
O620 C615 1.209 1_655 S
C621 O618 1.258 . S
C621 O623 1.282 . S
O622 Cd614 2.277 . S
O622 C615 1.226 1_655 S
O623 Cd614 2.356 . S
O623 C621 1.282 . S
C624 O625 1.306 . S
C624 O627 1.160 . S
O625 C624 1.306 . S
O625 Cd626 2.228 . S
Cd626 O625 2.228 . S
Cd626 O630 2.273 . S
Cd626 O634 2.277 . S
O627 C624 1.160 . S
O627 Cd628 2.203 . S
Cd628 O627 2.203 . S
Cd628 O630 2.411 . S
Cd628 O631 2.333 . S
Cd628 O632 2.352 . S
Cd628 O636 2.277 . S
Cd628 O637 2.356 . S
C629 O634 1.209 . S
C629 O636 1.226 . S
O630 Cd626 2.273 . S
O630 Cd628 2.411 . S
O630 C633 1.320 . S
O631 Cd628 2.333 . S
O631 C633 1.214 . S
O632 Cd628 2.352 . S
O632 C635 1.258 . S
C633 O630 1.320 . S
C633 O631 1.214 . S
O634 Cd626 2.277 . S
O634 C629 1.209 . S
C635 O632 1.258 . S
C635 O637 1.282 . S
O636 Cd628 2.277 . S
O636 C629 1.226 . S
O637 Cd628 2.356 . S
O637 C635 1.282 . S
C638 O639 1.306 . S
C638 O641 1.160 1_455 S
O639 C638 1.306 . S
O639 Cd640 2.228 1_455 S
Cd640 O639 2.228 1_655 S
Cd640 O644 2.273 . S
Cd640 O648 2.277 . S
O641 C638 1.160 1_655 S
O641 Cd642 2.203 . S
Cd642 O641 2.203 . S
Cd642 O644 2.411 . S
Cd642 O645 2.333 . S
Cd642 O646 2.352 . S
Cd642 O650 2.277 . S
Cd642 O651 2.356 . S
C643 O648 1.209 . S
C643 O650 1.226 . S
O644 Cd640 2.273 . S
O644 Cd642 2.411 . S
O644 C647 1.320 . S
O645 Cd642 2.333 . S
O645 C647 1.214 . S
O646 Cd642 2.352 . S
O646 C649 1.258 . S
C647 O644 1.320 . S
C647 O645 1.214 . S
O648 Cd640 2.277 . S
O648 C643 1.209 . S
C649 O646 1.258 . S
C649 O651 1.282 . S
O650 Cd642 2.277 . S
O650 C643 1.226 . S
O651 Cd642 2.356 . S
O651 C649 1.282 . S
C652 O653 1.306 . S
C652 O655 1.160 . S
O653 C652 1.306 . S
O653 Cd654 2.228 . S
Cd654 O653 2.228 . S
Cd654 O658 2.273 . S
Cd654 O662 2.277 . S
O655 C652 1.160 . S
O655 Cd656 2.203 . S
Cd656 O655 2.203 . S
Cd656 O658 2.411 . S
Cd656 O659 2.333 . S
Cd656 O660 2.352 . S
Cd656 O664 2.277 . S
Cd656 O665 2.356 . S
C657 O662 1.209 . S
C657 O664 1.226 . S
O658 Cd654 2.273 . S
O658 Cd656 2.411 . S
O658 C661 1.320 . S
O659 Cd656 2.333 . S
O659 C661 1.214 . S
O660 Cd656 2.352 . S
O660 C663 1.258 . S
C661 O658 1.320 . S
C661 O659 1.214 . S
O662 Cd654 2.277 . S
O662 C657 1.209 . S
C663 O660 1.258 . S
C663 O665 1.282 . S
O664 Cd656 2.277 . S
O664 C657 1.226 . S
O665 Cd656 2.356 . S
O665 C663 1.282 . S
C666 C667 1.349 . S
C666 C668 1.327 . S
C666 H691 0.950 . S
C667 C666 1.349 . S
C667 C683 1.349 . S
C668 C666 1.327 . S
C668 C687 1.429 . S
C668 H692 0.950 . S
C669 C686 1.574 . S
C669 C688 1.368 . S
C669 H693 0.949 . S
H670 C674 0.949 . S
C671 C672 1.349 . S
C671 C673 1.327 . S
C671 H694 0.950 . S
C672 C671 1.349 . S
C672 C684 1.349 . S
C673 C671 1.327 . S
C673 C689 1.429 . S
C673 H695 0.950 . S
C674 H670 0.949 . S
C674 C682 1.574 . S
C674 C690 1.368 . S
H675 C683 0.899 1_556 S
H676 C681 0.950 . S
H677 C682 0.949 . S
H678 C684 0.950 . S
H679 C685 0.950 . S
H680 C686 0.949 . S
C681 H676 0.950 . S
C681 C683 1.327 . S
C681 C687 1.429 . S
C682 C674 1.574 . S
C682 H677 0.949 . S
C682 C688 1.368 . S
C683 C667 1.349 . S
C683 H675 0.899 1_554 S
C683 C681 1.327 . S
C684 C672 1.349 . S
C684 H678 0.950 . S
C684 C685 1.327 . S
C685 H679 0.950 . S
C685 C684 1.327 . S
C685 C689 1.429 . S
C686 C669 1.574 . S
C686 H680 0.949 . S
C686 C690 1.368 . S
C687 C668 1.429 . S
C687 C681 1.429 . S
C687 C688 1.523 . S
C688 C669 1.368 . S
C688 C682 1.368 . S
C688 C687 1.523 . S
C689 C673 1.429 . S
C689 C685 1.429 . S
C689 C690 1.523 . S
C690 C674 1.368 . S
C690 C686 1.368 . S
C690 C689 1.523 . S
H691 C666 0.950 . S
H692 C668 0.950 . S
H693 C669 0.949 . S
H694 C671 0.950 . S
H695 C673 0.950 . S
C696 C697 1.349 . S
C696 C698 1.327 . S
C696 H721 0.950 . S
C697 C696 1.349 . S
C697 C713 1.349 . S
C698 C696 1.327 . S
C698 C717 1.429 . S
C698 H722 0.950 . S
C699 C716 1.574 . S
C699 C718 1.368 . S
C699 H723 0.949 . S
H700 C704 0.949 . S
C701 C702 1.349 . S
C701 C703 1.327 . S
C701 H724 0.950 . S
C702 C701 1.349 . S
C702 C714 1.349 . S
C703 C701 1.327 . S
C703 C719 1.429 . S
C703 H725 0.950 . S
C704 H700 0.949 . S
C704 C712 1.574 . S
C704 C720 1.368 . S
H705 C713 0.950 . S
H706 C711 0.950 . S
H707 C712 0.949 . S
H708 C714 0.950 . S
H709 C715 0.950 . S
H710 C716 0.949 . S
C711 H706 0.950 . S
C711 C713 1.327 . S
C711 C717 1.429 . S
C712 C704 1.574 . S
C712 H707 0.949 . S
C712 C718 1.368 . S
C713 C697 1.349 . S
C713 H705 0.950 . S
C713 C711 1.327 . S
C714 C702 1.349 . S
C714 H708 0.950 . S
C714 C715 1.327 . S
C715 H709 0.950 . S
C715 C714 1.327 . S
C715 C719 1.429 . S
C716 C699 1.574 . S
C716 H710 0.949 . S
C716 C720 1.368 . S
C717 C698 1.429 . S
C717 C711 1.429 . S
C717 C718 1.523 . S
C718 C699 1.368 . S
C718 C712 1.368 . S
C718 C717 1.523 . S
C719 C703 1.429 . S
C719 C715 1.429 . S
C719 C720 1.523 . S
C720 C704 1.368 . S
C720 C716 1.368 . S
C720 C719 1.523 . S
H721 C696 0.950 . S
H722 C698 0.950 . S
H723 C699 0.949 . S
H724 C701 0.950 . S
H725 C703 0.950 . S
C726 C727 1.349 1_565 S
C726 C728 1.327 . S
C726 H751 0.950 . S
C727 C726 1.349 1_545 S
C727 C743 1.349 . S
C728 C726 1.327 . S
C728 C747 1.429 1_565 S
C728 H752 0.950 . S
C729 C746 1.574 . S
C729 C748 1.368 . S
C729 H753 0.949 . S
H730 C734 0.949 . S
C731 C732 1.349 . S
C731 C733 1.327 . S
C731 H754 0.950 . S
C732 C731 1.349 . S
C732 C744 1.349 1_545 S
C733 C731 1.327 . S
C733 C749 1.429 . S
C733 H755 0.950 . S
C734 H730 0.949 . S
C734 C742 1.574 . S
C734 C750 1.368 1_565 S
H735 C743 0.950 . S
H736 C741 0.950 . S
H737 C742 0.949 . S
H738 C744 0.950 . S
H739 C745 0.950 . S
H740 C746 0.949 . S
C741 H736 0.950 . S
C741 C743 1.327 . S
C741 C747 1.429 . S
C742 C734 1.574 . S
C742 H737 0.949 . S
C742 C748 1.368 1_565 S
C743 C727 1.349 . S
C743 H735 0.950 . S
C743 C741 1.327 . S
C744 C732 1.349 1_565 S
C744 H738 0.950 . S
C744 C745 1.327 . S
C745 H739 0.950 . S
C745 C744 1.327 . S
C745 C749 1.429 1_565 S
C746 C729 1.574 . S
C746 H740 0.949 . S
C746 C750 1.368 . S
C747 C728 1.429 1_545 S
C747 C741 1.429 . S
C747 C748 1.523 . S
C748 C729 1.368 . S
C748 C742 1.368 1_545 S
C748 C747 1.523 . S
C749 C733 1.429 . S
C749 C745 1.429 1_545 S
C749 C750 1.523 . S
C750 C734 1.368 1_545 S
C750 C746 1.368 . S
C750 C749 1.523 . S
H751 C726 0.950 . S
H752 C728 0.950 . S
H753 C729 0.949 . S
H754 C731 0.950 . S
H755 C733 0.950 . S
C756 C757 1.349 . S
C756 C758 1.327 . S
C756 H781 0.950 . S
C757 C756 1.349 . S
C757 C773 1.349 . S
C758 C756 1.327 . S
C758 C777 1.429 . S
C758 H782 0.950 . S
C759 C776 1.574 . S
C759 C778 1.368 . S
C759 H783 0.949 . S
H760 C764 0.949 . S
C761 C762 1.349 . S
C761 C763 1.327 . S
C761 H784 0.950 . S
C762 C761 1.349 . S
C762 C774 1.349 . S
C763 C761 1.327 . S
C763 C779 1.429 . S
C763 H785 0.950 . S
C764 H760 0.949 . S
C764 C772 1.574 . S
C764 C780 1.368 . S
H765 C773 0.950 . S
H766 C771 0.950 . S
H767 C772 0.949 . S
H768 C774 0.950 . S
H769 C775 0.950 . S
H770 C776 0.949 . S
C771 H766 0.950 . S
C771 C773 1.327 . S
C771 C777 1.429 . S
C772 C764 1.574 . S
C772 H767 0.949 . S
C772 C778 1.368 . S
C773 C757 1.349 . S
C773 H765 0.950 . S
C773 C771 1.327 . S
C774 C762 1.349 . S
C774 H768 0.950 . S
C774 C775 1.327 . S
C775 H769 0.950 . S
C775 C774 1.327 . S
C775 C779 1.429 . S
C776 C759 1.574 . S
C776 H770 0.949 . S
C776 C780 1.368 . S
C777 C758 1.429 . S
C777 C771 1.429 . S
C777 C778 1.523 . S
C778 C759 1.368 . S
C778 C772 1.368 . S
C778 C777 1.523 . S
C779 C763 1.429 . S
C779 C775 1.429 . S
C779 C780 1.523 . S
C780 C764 1.368 . S
C780 C776 1.368 . S
C780 C779 1.523 . S
H781 C756 0.950 . S
H782 C758 0.950 . S
H783 C759 0.949 . S
H784 C761 0.950 . S
H785 C763 0.950 . S
C786 C787 1.349 . S
C786 C788 1.327 . S
C786 H811 0.950 . S
C787 C786 1.349 . S
C787 C803 1.349 . S
C788 C786 1.327 . S
C788 C807 1.429 . S
C788 H812 0.950 . S
C789 C806 1.574 . S
C789 C808 1.368 . S
C789 H813 0.949 . S
H790 C794 0.949 . S
C791 C792 1.349 . S
C791 C793 1.327 . S
C791 H814 0.950 . S
C792 C791 1.349 . S
C792 C804 1.339 1_655 S
C793 C791 1.327 . S
C793 C809 1.429 1_655 S
C793 H815 0.950 . S
C794 H790 0.949 . S
C794 C802 1.574 . S
C794 C810 1.368 . S
H795 C803 0.950 . S
H796 C801 0.950 . S
H797 C802 0.949 . S
H798 C804 0.970 . S
H799 C805 0.950 . S
H800 C806 0.949 . S
C801 H796 0.950 . S
C801 C803 1.327 . S
C801 C807 1.429 . S
C802 C794 1.574 . S
C802 H797 0.949 . S
C802 C808 1.368 . S
C803 C787 1.349 . S
C803 H795 0.950 . S
C803 C801 1.327 . S
C804 C792 1.339 1_455 S
C804 H798 0.970 . S
C804 C805 1.322 . S
C805 H799 0.950 . S
C805 C804 1.322 . S
C805 C809 1.429 . S
C806 C789 1.574 . S
C806 H800 0.949 . S
C806 C810 1.368 . S
C807 C788 1.429 . S
C807 C801 1.429 . S
C807 C808 1.523 . S
C808 C789 1.368 . S
C808 C802 1.368 . S
C808 C807 1.523 . S
C809 C793 1.429 1_455 S
C809 C805 1.429 . S
C809 C810 1.523 . S
C810 C794 1.368 . S
C810 C806 1.368 . S
C810 C809 1.523 . S
H811 C786 0.950 . S
H812 C788 0.950 . S
H813 C789 0.949 . S
H814 C791 0.950 . S
H815 C793 0.950 . S
C816 C817 1.349 . S
C816 C818 1.327 . S
C816 H841 0.950 . S
C817 C816 1.349 . S
C817 C833 1.349 . S
C818 C816 1.327 . S
C818 C837 1.429 . S
C818 H842 0.950 . S
C819 C836 1.574 . S
C819 C838 1.368 . S
C819 H843 0.949 . S
H820 C824 0.949 . S
C821 C822 1.349 . S
C821 C823 1.327 . S
C821 H844 0.950 . S
C822 C821 1.349 . S
C822 C834 1.349 . S
C823 C821 1.327 . S
C823 C839 1.429 . S
C823 H845 0.950 . S
C824 H820 0.949 . S
C824 C832 1.574 . S
C824 C840 1.368 . S
H825 C833 0.950 . S
H826 C831 0.950 . S
H827 C832 0.949 . S
H828 C834 0.950 . S
H829 C835 0.950 . S
H830 C836 0.949 . S
C831 H826 0.950 . S
C831 C833 1.327 . S
C831 C837 1.429 . S
C832 C824 1.574 . S
C832 H827 0.949 . S
C832 C838 1.368 . S
C833 C817 1.349 . S
C833 H825 0.950 . S
C833 C831 1.327 . S
C834 C822 1.349 . S
C834 H828 0.950 . S
C834 C835 1.327 . S
C835 H829 0.950 . S
C835 C834 1.327 . S
C835 C839 1.429 . S
C836 C819 1.574 . S
C836 H830 0.949 . S
C836 C840 1.368 . S
C837 C818 1.429 . S
C837 C831 1.429 . S
C837 C838 1.523 . S
C838 C819 1.368 . S
C838 C832 1.368 . S
C838 C837 1.523 . S
C839 C823 1.429 . S
C839 C835 1.429 . S
C839 C840 1.523 . S
C840 C824 1.368 . S
C840 C836 1.368 . S
C840 C839 1.523 . S
H841 C816 0.950 . S
H842 C818 0.950 . S
H843 C819 0.949 . S
H844 C821 0.950 . S
H845 C823 0.950 . S
C846 C847 1.349 . S
C846 C848 1.327 . S
C846 H871 0.917 1_556 S
C847 C846 1.349 . S
C847 C863 1.349 . S
C848 C846 1.327 . S
C848 C867 1.429 . S
C848 H872 0.950 . S
C849 C866 1.574 1_455 S
C849 C868 1.368 . S
C849 H873 0.949 1_455 S
H850 C854 0.949 . S
C851 C852 1.349 . S
C851 C853 1.327 . S
C851 H874 0.950 . S
C852 C851 1.349 . S
C852 C864 1.349 1_655 S
C853 C851 1.327 . S
C853 C869 1.379 1_655 S
C853 H875 0.950 . S
C854 H850 0.949 . S
C854 C862 1.574 . S
C854 C870 1.368 . S
H855 C863 0.950 . S
H856 C861 0.950 . S
H857 C862 0.949 . S
H858 C864 0.950 . S
H859 C865 0.950 . S
H860 C866 0.949 . S
C861 H856 0.950 . S
C861 C863 1.327 . S
C861 C867 1.429 . S
C862 C854 1.574 . S
C862 H857 0.949 . S
C862 C868 1.368 . S
C863 C847 1.349 . S
C863 H855 0.950 . S
C863 C861 1.327 . S
C864 C852 1.349 1_455 S
C864 H858 0.950 . S
C864 C865 1.327 . S
C865 H859 0.950 . S
C865 C864 1.327 . S
C865 C869 1.428 . S
C866 C849 1.574 1_655 S
C866 H860 0.949 . S
C866 C870 1.368 1_655 S
C867 C848 1.429 . S
C867 C861 1.429 . S
C867 C868 1.523 . S
C868 C849 1.368 . S
C868 C862 1.368 . S
C868 C867 1.523 . S
C869 C853 1.379 1_455 S
C869 C865 1.428 . S
C869 C870 1.571 . S
C870 C854 1.368 . S
C870 C866 1.368 1_455 S
C870 C869 1.571 . S
H871 C846 0.917 1_554 S
H872 C848 0.950 . S
H873 C849 0.949 1_655 S
H874 C851 0.950 . S
H875 C853 0.950 . S
C876 C877 1.349 . S
C876 C878 1.327 . S
C876 H901 0.950 . S
C877 C876 1.349 . S
C877 C893 1.349 1_556 S
C878 C876 1.327 . S
C878 C897 1.429 . S
C878 H902 0.950 . S
C879 C896 1.574 . S
C879 C898 1.368 . S
C879 H903 0.949 1_556 S
H880 C884 0.949 . S
C881 C882 1.349 . S
C881 C883 1.327 . S
C881 H904 0.950 . S
C882 C881 1.349 . S
C882 C894 1.349 . S
C883 C881 1.327 . S
C883 C899 1.429 . S
C883 H905 0.950 . S
C884 H880 0.949 . S
C884 C892 1.574 . S
C884 C900 1.368 . S
H885 C893 0.950 . S
H886 C891 0.950 . S
H887 C892 0.949 . S
H888 C894 0.950 . S
H889 C895 0.950 . S
H890 C896 0.949 . S
C891 H886 0.950 . S
C891 C893 1.327 . S
C891 C897 1.429 1_554 S
C892 C884 1.574 . S
C892 H887 0.949 . S
C892 C898 1.368 . S
C893 C877 1.349 1_554 S
C893 H885 0.950 . S
C893 C891 1.327 . S
C894 C882 1.349 . S
C894 H888 0.950 . S
C894 C895 1.327 . S
C895 H889 0.950 . S
C895 C894 1.327 . S
C895 C899 1.429 . S
C896 C879 1.574 . S
C896 H890 0.949 . S
C896 C900 1.368 . S
C897 C878 1.429 . S
C897 C891 1.429 1_556 S
C897 C898 1.523 . S
C898 C879 1.368 . S
C898 C892 1.368 . S
C898 C897 1.523 . S
C899 C883 1.429 . S
C899 C895 1.429 . S
C899 C900 1.523 . S
C900 C884 1.368 . S
C900 C896 1.368 . S
C900 C899 1.523 . S
H901 C876 0.950 . S
H902 C878 0.950 . S
H903 C879 0.949 1_554 S
H904 C881 0.950 . S
H905 C883 0.950 . S
C906 C907 1.349 . S
C906 C908 1.327 . S
C906 H931 0.950 . S
C907 C906 1.349 . S
C907 C923 1.349 . S
C908 C906 1.327 . S
C908 C927 1.429 . S
C908 H932 0.950 . S
C909 C926 1.574 . S
C909 C928 1.368 . S
C909 H933 0.949 . S
H910 C914 0.949 . S
C911 C912 1.349 . S
C911 C913 1.327 . S
C911 H934 0.950 . S
C912 C911 1.349 . S
C912 C924 1.349 . S
C913 C911 1.327 . S
C913 C929 1.429 . S
C913 H935 0.950 . S
C914 H910 0.949 . S
C914 C922 1.574 . S
C914 C930 1.368 . S
H915 C923 0.950 1_554 S
H916 C921 0.950 . S
H917 C922 0.949 . S
H918 C924 0.950 . S
H919 C925 0.950 . S
H920 C926 0.949 . S
C921 H916 0.950 . S
C921 C923 1.327 . S
C921 C927 1.429 . S
C922 C914 1.574 . S
C922 H917 0.949 . S
C922 C928 1.368 . S
C923 C907 1.349 . S
C923 H915 0.950 1_556 S
C923 C921 1.327 . S
C924 C912 1.349 . S
C924 H918 0.950 . S
C924 C925 1.327 . S
C925 H919 0.950 . S
C925 C924 1.327 . S
C925 C929 1.429 . S
C926 C909 1.574 . S
C926 H920 0.949 . S
C926 C930 1.368 . S
C927 C908 1.429 . S
C927 C921 1.429 . S
C927 C928 1.523 . S
C928 C909 1.368 . S
C928 C922 1.368 . S
C928 C927 1.523 . S
C929 C913 1.429 . S
C929 C925 1.429 . S
C929 C930 1.523 . S
C930 C914 1.368 . S
C930 C926 1.368 . S
C930 C929 1.523 . S
H931 C906 0.950 . S
H932 C908 0.950 . S
H933 C909 0.949 . S
H934 C911 0.950 . S
H935 C913 0.950 . S
C936 C937 1.349 1_565 S
C936 C938 1.327 . S
C936 H961 0.950 . S
C937 C936 1.349 1_545 S
C937 C953 1.349 . S
C938 C936 1.327 . S
C938 C957 1.429 1_565 S
C938 H962 0.950 . S
C939 C956 1.574 . S
C939 C958 1.368 . S
C939 H963 0.949 . S
H940 C944 0.949 . S
C941 C942 1.349 . S
C941 C943 1.327 . S
C941 H964 0.950 . S
C942 C941 1.349 . S
C942 C954 1.349 1_545 S
C943 C941 1.327 . S
C943 C959 1.429 . S
C943 H965 0.950 . S
C944 H940 0.949 . S
C944 C952 1.574 . S
C944 C960 1.368 1_565 S
H945 C953 0.950 . S
H946 C951 0.950 . S
H947 C952 0.949 . S
H948 C954 0.950 . S
H949 C955 0.950 . S
H950 C956 0.949 . S
C951 H946 0.950 . S
C951 C953 1.327 . S
C951 C957 1.429 . S
C952 C944 1.574 . S
C952 H947 0.949 . S
C952 C958 1.368 1_565 S
C953 C937 1.349 . S
C953 H945 0.950 . S
C953 C951 1.327 . S
C954 C942 1.349 1_565 S
C954 H948 0.950 . S
C954 C955 1.327 . S
C955 H949 0.950 . S
C955 C954 1.327 . S
C955 C959 1.429 1_565 S
C956 C939 1.574 . S
C956 H950 0.949 . S
C956 C960 1.368 . S
C957 C938 1.429 1_545 S
C957 C951 1.429 . S
C957 C958 1.523 . S
C958 C939 1.368 . S
C958 C952 1.368 1_545 S
C958 C957 1.523 . S
C959 C943 1.429 . S
C959 C955 1.429 1_545 S
C959 C960 1.523 . S
C960 C944 1.368 1_545 S
C960 C956 1.368 . S
C960 C959 1.523 . S
H961 C936 0.950 . S
H962 C938 0.950 . S
H963 C939 0.949 . S
H964 C941 0.950 . S
H965 C943 0.950 . S
C966 C967 1.349 . S
C966 C968 1.327 . S
C966 H991 0.950 . S
C967 C966 1.349 . S
C967 C983 1.349 . S
C968 C966 1.327 . S
C968 C987 1.429 . S
C968 H992 0.950 . S
C969 C986 1.574 . S
C969 C988 1.368 . S
C969 H993 0.949 . S
H970 C974 0.949 . S
C971 C972 1.349 . S
C971 C973 1.327 . S
C971 H994 0.950 . S
C972 C971 1.349 . S
C972 C984 1.349 . S
C973 C971 1.327 . S
C973 C989 1.429 . S
C973 H995 0.950 . S
C974 H970 0.949 . S
C974 C982 1.574 . S
C974 C990 1.368 . S
H975 C983 0.950 . S
H976 C981 0.950 . S
H977 C982 0.949 . S
H978 C984 0.950 . S
H979 C985 0.950 . S
H980 C986 0.949 . S
C981 H976 0.950 . S
C981 C983 1.327 . S
C981 C987 1.429 . S
C982 C974 1.574 . S
C982 H977 0.949 . S
C982 C988 1.368 . S
C983 C967 1.349 . S
C983 H975 0.950 . S
C983 C981 1.327 . S
C984 C972 1.349 . S
C984 H978 0.950 . S
C984 C985 1.327 . S
C985 H979 0.950 . S
C985 C984 1.327 . S
C985 C989 1.429 . S
C986 C969 1.574 . S
C986 H980 0.949 . S
C986 C990 1.368 . S
C987 C968 1.429 . S
C987 C981 1.429 . S
C987 C988 1.523 . S
C988 C969 1.368 . S
C988 C982 1.368 . S
C988 C987 1.523 . S
C989 C973 1.429 . S
C989 C985 1.429 . S
C989 C990 1.523 . S
C990 C974 1.368 . S
C990 C986 1.368 . S
C990 C989 1.523 . S
H991 C966 0.950 . S
H992 C968 0.950 . S
H993 C969 0.949 . S
H994 C971 0.950 . S
H995 C973 0.950 . S
C996 C997 1.349 . S
C996 C998 1.327 . S
C996 H1021 0.950 . S
C997 C996 1.349 . S
C997 C1013 1.349 . S
C998 C996 1.327 . S
C998 C1017 1.429 . S
C998 H1022 0.950 . S
C999 C1016 1.574 . S
C999 C1018 1.368 . S
C999 H1023 0.949 . S
H1000 C1004 0.949 . S
C1001 C1002 1.349 . S
C1001 C1003 1.327 . S
C1001 H1024 0.950 . S
C1002 C1001 1.349 . S
C1002 C1014 1.349 . S
C1003 C1001 1.327 . S
C1003 C1019 1.429 . S
C1003 H1025 0.950 . S
C1004 H1000 0.949 . S
C1004 C1012 1.574 . S
C1004 C1020 1.368 . S
H1005 C1013 0.950 . S
H1006 C1011 0.950 . S
H1007 C1012 0.949 . S
H1008 C1014 0.950 . S
H1009 C1015 0.950 . S
H1010 C1016 0.949 . S
C1011 H1006 0.950 . S
C1011 C1013 1.327 . S
C1011 C1017 1.429 . S
C1012 C1004 1.574 . S
C1012 H1007 0.949 . S
C1012 C1018 1.368 . S
C1013 C997 1.349 . S
C1013 H1005 0.950 . S
C1013 C1011 1.327 . S
C1014 C1002 1.349 . S
C1014 H1008 0.950 . S
C1014 C1015 1.327 . S
C1015 H1009 0.950 . S
C1015 C1014 1.327 . S
C1015 C1019 1.429 . S
C1016 C999 1.574 . S
C1016 H1010 0.949 . S
C1016 C1020 1.368 . S
C1017 C998 1.429 . S
C1017 C1011 1.429 . S
C1017 C1018 1.523 . S
C1018 C999 1.368 . S
C1018 C1012 1.368 . S
C1018 C1017 1.523 . S
C1019 C1003 1.429 . S
C1019 C1015 1.429 . S
C1019 C1020 1.523 . S
C1020 C1004 1.368 . S
C1020 C1016 1.368 . S
C1020 C1019 1.523 . S
H1021 C996 0.950 . S
H1022 C998 0.950 . S
H1023 C999 0.949 . S
H1024 C1001 0.950 . S
H1025 C1003 0.950 . S
C1026 C1027 1.349 . S
C1026 C1028 1.327 . S
C1026 H1051 0.950 . S
C1027 C1026 1.349 . S
C1027 C1043 1.349 . S
C1028 C1026 1.327 . S
C1028 C1047 1.429 . S
C1028 H1052 0.950 . S
C1029 C1046 1.574 . S
C1029 C1048 1.368 . S
C1029 H1053 0.949 . S
H1030 C1034 0.949 . S
C1031 C1032 1.349 . S
C1031 C1033 1.327 . S
C1031 H1054 0.950 . S
C1032 C1031 1.349 . S
C1032 C1044 1.349 . S
C1033 C1031 1.327 . S
C1033 C1049 1.429 . S
C1033 H1055 0.950 . S
C1034 H1030 0.949 . S
C1034 C1042 1.574 . S
C1034 C1050 1.368 . S
H1035 C1043 0.950 . S
H1036 C1041 0.950 . S
H1037 C1042 0.949 . S
H1038 C1044 0.950 . S
H1039 C1045 0.950 . S
H1040 C1046 0.949 . S
C1041 H1036 0.950 . S
C1041 C1043 1.327 . S
C1041 C1047 1.429 . S
C1042 C1034 1.574 . S
C1042 H1037 0.949 . S
C1042 C1048 1.368 . S
C1043 C1027 1.349 . S
C1043 H1035 0.950 . S
C1043 C1041 1.327 . S
C1044 C1032 1.349 . S
C1044 H1038 0.950 . S
C1044 C1045 1.327 . S
C1045 H1039 0.950 . S
C1045 C1044 1.327 . S
C1045 C1049 1.429 . S
C1046 C1029 1.574 . S
C1046 H1040 0.949 . S
C1046 C1050 1.368 . S
C1047 C1028 1.429 . S
C1047 C1041 1.429 . S
C1047 C1048 1.523 . S
C1048 C1029 1.368 . S
C1048 C1042 1.368 . S
C1048 C1047 1.523 . S
C1049 C1033 1.429 . S
C1049 C1045 1.429 . S
C1049 C1050 1.523 . S
C1050 C1034 1.368 . S
C1050 C1046 1.368 . S
C1050 C1049 1.523 . S
H1051 C1026 0.950 . S
H1052 C1028 0.950 . S
H1053 C1029 0.949 . S
H1054 C1031 0.950 . S
H1055 C1033 0.950 . S
C1056 C1057 1.349 . S
C1056 C1058 1.327 . S
C1056 H1081 0.950 . S
C1057 C1056 1.349 . S
C1057 C1073 1.349 . S
C1058 C1056 1.327 . S
C1058 C1077 1.429 . S
C1058 H1082 0.950 . S
C1059 C1076 1.574 . S
C1059 C1078 1.368 1_545 S
C1059 H1083 0.949 1_545 S
H1060 C1064 0.949 . S
C1061 C1062 1.349 . S
C1061 C1063 1.327 . S
C1061 H1084 0.950 . S
C1062 C1061 1.349 . S
C1062 C1074 1.349 . S
C1063 C1061 1.327 . S
C1063 C1079 1.429 . S
C1063 H1085 0.950 . S
C1064 H1060 0.949 . S
C1064 C1072 1.599 . S
C1064 C1080 1.368 . S
H1065 C1073 0.950 . S
H1066 C1071 0.950 . S
H1067 C1072 0.947 1_565 S
H1068 C1074 0.950 . S
H1069 C1075 0.950 . S
H1070 C1076 0.949 . S
C1071 H1066 0.950 . S
C1071 C1073 1.327 . S
C1071 C1077 1.429 . S
C1072 C1064 1.599 . S
C1072 H1067 0.947 1_545 S
C1072 C1078 1.348 1_545 S
C1073 C1057 1.349 . S
C1073 H1065 0.950 . S
C1073 C1071 1.327 . S
C1074 C1062 1.349 . S
C1074 H1068 0.950 . S
C1074 C1075 1.327 . S
C1075 H1069 0.950 . S
C1075 C1074 1.327 . S
C1075 C1079 1.429 . S
C1076 C1059 1.574 . S
C1076 H1070 0.949 . S
C1076 C1080 1.368 . S
C1077 C1058 1.429 . S
C1077 C1071 1.429 . S
C1077 C1078 1.523 . S
C1078 C1059 1.368 1_565 S
C1078 C1072 1.348 1_565 S
C1078 C1077 1.523 . S
C1079 C1063 1.429 . S
C1079 C1075 1.429 . S
C1079 C1080 1.523 . S
C1080 C1064 1.368 . S
C1080 C1076 1.368 . S
C1080 C1079 1.523 . S
H1081 C1056 0.950 . S
H1082 C1058 0.950 . S
H1083 C1059 0.949 1_565 S
H1084 C1061 0.950 . S
H1085 C1063 0.950 . S
C1086 C1087 1.349 . S
C1086 C1088 1.327 . S
C1086 H1111 0.950 . S
C1087 C1086 1.349 . S
C1087 C1103 1.349 . S
C1088 C1086 1.327 . S
C1088 C1107 1.429 . S
C1088 H1112 0.950 . S
C1089 C1106 1.574 . S
C1089 C1108 1.368 . S
C1089 H1113 0.949 . S
H1090 C1094 0.949 . S
C1091 C1092 1.349 . S
C1091 C1093 1.327 . S
C1091 H1114 0.950 . S
C1092 C1091 1.349 . S
C1092 C1104 1.349 . S
C1093 C1091 1.327 . S
C1093 C1109 1.429 . S
C1093 H1115 0.950 . S
C1094 H1090 0.949 . S
C1094 C1102 1.574 . S
C1094 C1110 1.368 . S
H1095 C1103 0.950 . S
H1096 C1101 0.950 . S
H1097 C1102 0.949 . S
H1098 C1104 0.950 . S
H1099 C1105 0.950 . S
H1100 C1106 0.949 . S
C1101 H1096 0.950 . S
C1101 C1103 1.327 . S
C1101 C1107 1.429 . S
C1102 C1094 1.574 . S
C1102 H1097 0.949 . S
C1102 C1108 1.368 . S
C1103 C1087 1.349 . S
C1103 H1095 0.950 . S
C1103 C1101 1.327 . S
C1104 C1092 1.349 . S
C1104 H1098 0.950 . S
C1104 C1105 1.327 . S
C1105 H1099 0.950 . S
C1105 C1104 1.327 . S
C1105 C1109 1.429 . S
C1106 C1089 1.574 . S
C1106 H1100 0.949 . S
C1106 C1110 1.368 . S
C1107 C1088 1.429 . S
C1107 C1101 1.429 . S
C1107 C1108 1.523 . S
C1108 C1089 1.368 . S
C1108 C1102 1.368 . S
C1108 C1107 1.523 . S
C1109 C1093 1.429 . S
C1109 C1105 1.429 . S
C1109 C1110 1.523 . S
C1110 C1094 1.368 . S
C1110 C1106 1.368 . S
C1110 C1109 1.523 . S
H1111 C1086 0.950 . S
H1112 C1088 0.950 . S
H1113 C1089 0.949 . S
H1114 C1091 0.950 . S
H1115 C1093 0.950 . S
C1116 C1117 1.349 . S
C1116 C1118 1.327 . S
C1116 H1141 0.950 . S
C1117 C1116 1.349 . S
C1117 C1133 1.349 . S
C1118 C1116 1.327 . S
C1118 C1137 1.429 . S
C1118 H1142 0.950 . S
C1119 C1136 1.574 . S
C1119 C1138 1.368 . S
C1119 H1143 0.949 . S
H1120 C1124 0.949 . S
C1121 C1122 1.349 . S
C1121 C1123 1.327 . S
C1121 H1144 0.950 . S
C1122 C1121 1.349 . S
C1122 C1134 1.349 . S
C1123 C1121 1.327 . S
C1123 C1139 1.429 . S
C1123 H1145 0.950 . S
C1124 H1120 0.949 . S
C1124 C1132 1.574 . S
C1124 C1140 1.368 . S
H1125 C1133 0.950 . S
H1126 C1131 0.950 . S
H1127 C1132 0.949 . S
H1128 C1134 0.950 . S
H1129 C1135 0.950 . S
H1130 C1136 0.949 . S
C1131 H1126 0.950 . S
C1131 C1133 1.327 . S
C1131 C1137 1.429 . S
C1132 C1124 1.574 . S
C1132 H1127 0.949 . S
C1132 C1138 1.368 . S
C1133 C1117 1.349 . S
C1133 H1125 0.950 . S
C1133 C1131 1.327 . S
C1134 C1122 1.349 . S
C1134 H1128 0.950 . S
C1134 C1135 1.327 . S
C1135 H1129 0.950 . S
C1135 C1134 1.327 . S
C1135 C1139 1.429 . S
C1136 C1119 1.574 . S
C1136 H1130 0.949 . S
C1136 C1140 1.368 . S
C1137 C1118 1.429 . S
C1137 C1131 1.429 . S
C1137 C1138 1.523 . S
C1138 C1119 1.368 . S
C1138 C1132 1.368 . S
C1138 C1137 1.523 . S
C1139 C1123 1.429 . S
C1139 C1135 1.429 . S
C1139 C1140 1.523 . S
C1140 C1124 1.368 . S
C1140 C1136 1.368 . S
C1140 C1139 1.523 . S
H1141 C1116 0.950 . S
H1142 C1118 0.950 . S
H1143 C1119 0.949 . S
H1144 C1121 0.950 . S
H1145 C1123 0.950 . S
C1146 C1147 1.349 . S
C1146 C1148 1.327 . S
C1146 H1171 0.950 . S
C1147 C1146 1.349 . S
C1147 C1163 1.349 . S
C1148 C1146 1.327 . S
C1148 C1167 1.429 . S
C1148 H1172 0.950 . S
C1149 C1166 1.574 . S
C1149 C1168 1.368 . S
C1149 H1173 0.949 . S
H1150 C1154 0.949 . S
C1151 C1152 1.349 . S
C1151 C1153 1.327 . S
C1151 H1174 0.950 . S
C1152 C1151 1.349 . S
C1152 C1164 1.349 . S
C1153 C1151 1.327 . S
C1153 C1169 1.429 . S
C1153 H1175 0.950 . S
C1154 H1150 0.949 . S
C1154 C1162 1.574 . S
C1154 C1170 1.368 . S
H1155 C1163 0.950 . S
H1156 C1161 0.950 . S
H1157 C1162 0.949 . S
H1158 C1164 0.950 . S
H1159 C1165 0.950 . S
H1160 C1166 0.949 . S
C1161 H1156 0.950 . S
C1161 C1163 1.327 . S
C1161 C1167 1.429 . S
C1162 C1154 1.574 . S
C1162 H1157 0.949 . S
C1162 C1168 1.368 . S
C1163 C1147 1.349 . S
C1163 H1155 0.950 . S
C1163 C1161 1.327 . S
C1164 C1152 1.349 . S
C1164 H1158 0.950 . S
C1164 C1165 1.327 . S
C1165 H1159 0.950 . S
C1165 C1164 1.327 . S
C1165 C1169 1.429 . S
C1166 C1149 1.574 . S
C1166 H1160 0.949 . S
C1166 C1170 1.368 . S
C1167 C1148 1.429 . S
C1167 C1161 1.429 . S
C1167 C1168 1.523 . S
C1168 C1149 1.368 . S
C1168 C1162 1.368 . S
C1168 C1167 1.523 . S
C1169 C1153 1.429 . S
C1169 C1165 1.429 . S
C1169 C1170 1.523 . S
C1170 C1154 1.368 . S
C1170 C1166 1.368 . S
C1170 C1169 1.523 . S
H1171 C1146 0.950 . S
H1172 C1148 0.950 . S
H1173 C1149 0.949 . S
H1174 C1151 0.950 . S
H1175 C1153 0.950 . S
C1176 C1177 1.349 . S
C1176 C1178 1.327 . S
C1176 H1201 0.950 . S
C1177 C1176 1.349 . S
C1177 C1193 1.349 . S
C1178 C1176 1.327 . S
C1178 C1197 1.429 . S
C1178 H1202 0.950 . S
C1179 C1196 1.574 . S
C1179 C1198 1.368 . S
C1179 H1203 0.949 . S
H1180 C1184 0.949 . S
C1181 C1182 1.327 1_565 S
C1181 C1183 1.327 . S
C1181 H1204 0.950 . S
C1182 C1181 1.327 1_545 S
C1182 C1194 1.368 . S
C1183 C1181 1.327 . S
C1183 C1199 1.429 . S
C1183 H1205 0.950 . S
C1184 H1180 0.949 . S
C1184 C1192 1.574 . S
C1184 C1200 1.368 . S
H1185 C1193 0.950 . S
H1186 C1191 0.950 . S
H1187 C1192 0.949 . S
H1188 C1194 0.950 . S
H1189 C1195 0.950 . S
H1190 C1196 0.949 . S
C1191 H1186 0.950 . S
C1191 C1193 1.327 . S
C1191 C1197 1.429 . S
C1192 C1184 1.574 . S
C1192 H1187 0.949 . S
C1192 C1198 1.368 . S
C1193 C1177 1.349 . S
C1193 H1185 0.950 . S
C1193 C1191 1.327 . S
C1194 C1182 1.368 . S
C1194 H1188 0.950 . S
C1194 C1195 1.327 1_545 S
C1195 H1189 0.950 . S
C1195 C1194 1.327 1_565 S
C1195 C1199 1.429 . S
C1196 C1179 1.574 . S
C1196 H1190 0.949 . S
C1196 C1200 1.368 . S
C1197 C1178 1.429 . S
C1197 C1191 1.429 . S
C1197 C1198 1.523 . S
C1198 C1179 1.368 . S
C1198 C1192 1.368 . S
C1198 C1197 1.523 . S
C1199 C1183 1.429 . S
C1199 C1195 1.429 . S
C1199 C1200 1.523 . S
C1200 C1184 1.368 . S
C1200 C1196 1.368 . S
C1200 C1199 1.523 . S
H1201 C1176 0.950 . S
H1202 C1178 0.950 . S
H1203 C1179 0.949 . S
H1204 C1181 0.950 . S
H1205 C1183 0.950 . S
C1206 C1207 1.349 . S
C1206 C1208 1.327 . S
C1206 H1231 0.950 . S
C1207 C1206 1.349 . S
C1207 C1223 1.349 . S
C1208 C1206 1.327 . S
C1208 C1227 1.429 . S
C1208 H1232 0.950 . S
C1209 C1226 1.574 . S
C1209 C1228 1.368 . S
C1209 H1233 0.949 . S
H1210 C1214 0.949 . S
C1211 C1212 1.349 . S
C1211 C1213 1.327 . S
C1211 H1234 0.950 . S
C1212 C1211 1.349 . S
C1212 C1224 1.349 . S
C1213 C1211 1.327 . S
C1213 C1229 1.429 . S
C1213 H1235 0.950 1_545 S
C1214 H1210 0.949 . S
C1214 C1222 1.574 1_545 S
C1214 C1230 1.368 1_545 S
H1215 C1223 0.950 . S
H1216 C1221 0.950 . S
H1217 C1222 0.949 . S
H1218 C1224 0.950 . S
H1219 C1225 0.950 . S
H1220 C1226 0.949 . S
C1221 H1216 0.950 . S
C1221 C1223 1.327 . S
C1221 C1227 1.429 . S
C1222 C1214 1.574 1_565 S
C1222 H1217 0.949 . S
C1222 C1228 1.368 . S
C1223 C1207 1.349 . S
C1223 H1215 0.950 . S
C1223 C1221 1.327 . S
C1224 C1212 1.349 . S
C1224 H1218 0.950 . S
C1224 C1225 1.327 . S
C1225 H1219 0.950 . S
C1225 C1224 1.327 . S
C1225 C1229 1.429 . S
C1226 C1209 1.574 . S
C1226 H1220 0.949 . S
C1226 C1230 1.368 . S
C1227 C1208 1.429 . S
C1227 C1221 1.429 . S
C1227 C1228 1.523 . S
C1228 C1209 1.368 . S
C1228 C1222 1.368 . S
C1228 C1227 1.523 . S
C1229 C1213 1.429 . S
C1229 C1225 1.429 . S
C1229 C1230 1.523 1_545 S
C1230 C1214 1.368 1_565 S
C1230 C1226 1.368 . S
C1230 C1229 1.523 1_565 S
H1231 C1206 0.950 . S
H1232 C1208 0.950 . S
H1233 C1209 0.949 . S
H1234 C1211 0.950 . S
H1235 C1213 0.950 1_565 S
C1236 C1237 1.349 . S
C1236 C1238 1.327 . S
C1236 H1261 0.950 . S
C1237 C1236 1.349 . S
C1237 C1253 1.349 . S
C1238 C1236 1.327 . S
C1238 C1257 1.429 . S
C1238 H1262 0.950 . S
C1239 C1256 1.574 . S
C1239 C1258 1.368 . S
C1239 H1263 0.949 . S
H1240 C1244 0.949 . S
C1241 C1242 1.349 . S
C1241 C1243 1.327 . S
C1241 H1264 0.950 . S
C1242 C1241 1.349 . S
C1242 C1254 1.349 . S
C1243 C1241 1.327 . S
C1243 C1259 1.429 . S
C1243 H1265 0.950 . S
C1244 H1240 0.949 . S
C1244 C1252 1.574 . S
C1244 C1260 1.368 . S
H1245 C1253 0.950 . S
H1246 C1251 0.950 . S
H1247 C1252 0.949 . S
H1248 C1254 0.950 . S
H1249 C1255 0.950 . S
H1250 C1256 0.949 . S
C1251 H1246 0.950 . S
C1251 C1253 1.327 . S
C1251 C1257 1.429 . S
C1252 C1244 1.574 . S
C1252 H1247 0.949 . S
C1252 C1258 1.368 . S
C1253 C1237 1.349 . S
C1253 H1245 0.950 . S
C1253 C1251 1.327 . S
C1254 C1242 1.349 . S
C1254 H1248 0.950 . S
C1254 C1255 1.327 . S
C1255 H1249 0.950 . S
C1255 C1254 1.327 . S
C1255 C1259 1.429 . S
C1256 C1239 1.574 . S
C1256 H1250 0.949 . S
C1256 C1260 1.368 . S
C1257 C1238 1.429 . S
C1257 C1251 1.429 . S
C1257 C1258 1.523 . S
C1258 C1239 1.368 . S
C1258 C1252 1.368 . S
C1258 C1257 1.523 . S
C1259 C1243 1.429 . S
C1259 C1255 1.429 . S
C1259 C1260 1.523 . S
C1260 C1244 1.368 . S
C1260 C1256 1.368 . S
C1260 C1259 1.523 . S
H1261 C1236 0.950 . S
H1262 C1238 0.950 . S
H1263 C1239 0.949 . S
H1264 C1241 0.950 . S
H1265 C1243 0.950 . S
C1266 C1267 1.349 . S
C1266 C1268 1.327 . S
C1266 H1291 0.950 . S
C1267 C1266 1.349 . S
C1267 C1283 1.349 . S
C1268 C1266 1.327 . S
C1268 C1287 1.429 . S
C1268 H1292 0.950 . S
C1269 C1286 1.574 . S
C1269 C1288 1.368 . S
C1269 H1293 0.949 . S
H1270 C1274 0.949 . S
C1271 C1272 1.349 . S
C1271 C1273 1.327 . S
C1271 H1294 0.950 . S
C1272 C1271 1.349 . S
C1272 C1284 1.349 . S
C1273 C1271 1.327 . S
C1273 C1289 1.429 . S
C1273 H1295 0.950 . S
C1274 H1270 0.949 . S
C1274 C1282 1.574 . S
C1274 C1290 1.368 . S
H1275 C1283 0.950 . S
H1276 C1281 0.950 . S
H1277 C1282 0.949 . S
H1278 C1284 0.950 . S
H1279 C1285 0.950 . S
H1280 C1286 0.949 . S
C1281 H1276 0.950 . S
C1281 C1283 1.327 . S
C1281 C1287 1.429 . S
C1282 C1274 1.574 . S
C1282 H1277 0.949 . S
C1282 C1288 1.368 . S
C1283 C1267 1.349 . S
C1283 H1275 0.950 . S
C1283 C1281 1.327 . S
C1284 C1272 1.349 . S
C1284 H1278 0.950 . S
C1284 C1285 1.327 . S
C1285 H1279 0.950 . S
C1285 C1284 1.327 . S
C1285 C1289 1.429 . S
C1286 C1269 1.574 . S
C1286 H1280 0.949 . S
C1286 C1290 1.368 . S
C1287 C1268 1.429 . S
C1287 C1281 1.429 . S
C1287 C1288 1.523 . S
C1288 C1269 1.368 . S
C1288 C1282 1.368 . S
C1288 C1287 1.523 . S
C1289 C1273 1.429 . S
C1289 C1285 1.429 . S
C1289 C1290 1.523 . S
C1290 C1274 1.368 . S
C1290 C1286 1.368 . S
C1290 C1289 1.523 . S
H1291 C1266 0.950 . S
H1292 C1268 0.950 . S
H1293 C1269 0.949 . S
H1294 C1271 0.950 . S
H1295 C1273 0.950 . S
C1296 C1297 1.349 . S
C1296 C1298 1.327 . S
C1296 H1321 0.950 . S
C1297 C1296 1.349 . S
C1297 C1313 1.349 . S
C1298 C1296 1.327 . S
C1298 C1317 1.429 . S
C1298 H1322 0.950 . S
C1299 C1316 1.574 . S
C1299 C1318 1.368 . S
C1299 H1323 0.949 . S
H1300 C1304 0.949 . S
C1301 C1302 1.349 . S
C1301 C1303 1.327 . S
C1301 H1324 0.950 . S
C1302 C1301 1.349 . S
C1302 C1314 1.349 . S
C1303 C1301 1.327 . S
C1303 C1319 1.429 . S
C1303 H1325 0.950 . S
C1304 H1300 0.949 . S
C1304 C1312 1.574 . S
C1304 C1320 1.368 . S
H1305 C1313 0.950 . S
H1306 C1311 0.950 . S
H1307 C1312 0.949 . S
H1308 C1314 0.950 . S
H1309 C1315 0.950 . S
H1310 C1316 0.949 . S
C1311 H1306 0.950 . S
C1311 C1313 1.327 . S
C1311 C1317 1.429 . S
C1312 C1304 1.574 . S
C1312 H1307 0.949 . S
C1312 C1318 1.368 . S
C1313 C1297 1.349 . S
C1313 H1305 0.950 . S
C1313 C1311 1.327 . S
C1314 C1302 1.349 . S
C1314 H1308 0.950 . S
C1314 C1315 1.327 . S
C1315 H1309 0.950 . S
C1315 C1314 1.327 . S
C1315 C1319 1.429 . S
C1316 C1299 1.574 . S
C1316 H1310 0.949 . S
C1316 C1320 1.368 . S
C1317 C1298 1.429 . S
C1317 C1311 1.429 . S
C1317 C1318 1.523 . S
C1318 C1299 1.368 . S
C1318 C1312 1.368 . S
C1318 C1317 1.523 . S
C1319 C1303 1.429 . S
C1319 C1315 1.429 . S
C1319 C1320 1.523 . S
C1320 C1304 1.368 . S
C1320 C1316 1.368 . S
C1320 C1319 1.523 . S
H1321 C1296 0.950 . S
H1322 C1298 0.950 . S
H1323 C1299 0.949 . S
H1324 C1301 0.950 . S
H1325 C1303 0.950 . S
C1326 C1327 1.349 . S
C1326 C1328 1.327 . S
C1326 H1351 0.950 . S
C1327 C1326 1.349 . S
C1327 C1343 1.349 . S
C1328 C1326 1.327 . S
C1328 C1347 1.429 . S
C1328 H1352 0.950 . S
C1329 C1346 1.574 1_565 S
C1329 C1348 1.368 . S
C1329 H1353 0.949 . S
H1330 C1334 0.949 . S
C1331 C1332 1.349 . S
C1331 C1333 1.327 . S
C1331 H1354 0.950 . S
C1332 C1331 1.349 . S
C1332 C1344 1.349 . S
C1333 C1331 1.327 . S
C1333 C1349 1.429 . S
C1333 H1355 0.950 . S
C1334 H1330 0.949 . S
C1334 C1342 1.614 . S
C1334 C1350 1.368 . S
H1335 C1343 0.950 . S
H1336 C1341 0.950 . S
H1337 C1342 0.937 1_565 S
H1338 C1344 0.950 . S
H1339 C1345 0.950 . S
H1340 C1346 0.949 . S
C1341 H1336 0.950 . S
C1341 C1343 1.327 . S
C1341 C1347 1.429 . S
C1342 C1334 1.614 . S
C1342 H1337 0.937 1_545 S
C1342 C1348 1.343 1_545 S
C1343 C1327 1.349 . S
C1343 H1335 0.950 . S
C1343 C1341 1.327 . S
C1344 C1332 1.349 . S
C1344 H1338 0.950 . S
C1344 C1345 1.327 . S
C1345 H1339 0.950 . S
C1345 C1344 1.327 . S
C1345 C1349 1.429 . S
C1346 C1329 1.574 1_545 S
C1346 H1340 0.949 . S
C1346 C1350 1.368 . S
C1347 C1328 1.429 . S
C1347 C1341 1.429 . S
C1347 C1348 1.523 . S
C1348 C1329 1.368 . S
C1348 C1342 1.343 1_565 S
C1348 C1347 1.523 . S
C1349 C1333 1.429 . S
C1349 C1345 1.429 . S
C1349 C1350 1.523 . S
C1350 C1334 1.368 . S
C1350 C1346 1.368 . S
C1350 C1349 1.523 . S
H1351 C1326 0.950 . S
H1352 C1328 0.950 . S
H1353 C1329 0.949 . S
H1354 C1331 0.950 . S
H1355 C1333 0.950 . S
C1356 C1357 1.349 . S
C1356 C1358 1.327 . S
C1356 H1381 0.950 . S
C1357 C1356 1.349 . S
C1357 C1373 1.349 . S
C1358 C1356 1.327 . S
C1358 C1377 1.429 . S
C1358 H1382 0.950 . S
C1359 C1376 1.574 . S
C1359 C1378 1.368 . S
C1359 H1383 0.949 . S
H1360 C1364 0.949 . S
C1361 C1362 1.349 . S
C1361 C1363 1.327 . S
C1361 H1384 0.950 . S
C1362 C1361 1.349 . S
C1362 C1374 1.349 . S
C1363 C1361 1.327 . S
C1363 C1379 1.429 . S
C1363 H1385 0.950 . S
C1364 H1360 0.949 . S
C1364 C1372 1.574 . S
C1364 C1380 1.368 . S
H1365 C1373 0.950 . S
H1366 C1371 0.950 . S
H1367 C1372 0.949 . S
H1368 C1374 0.950 . S
H1369 C1375 0.950 . S
H1370 C1376 0.949 . S
C1371 H1366 0.950 . S
C1371 C1373 1.327 . S
C1371 C1377 1.429 . S
C1372 C1364 1.574 . S
C1372 H1367 0.949 . S
C1372 C1378 1.368 . S
C1373 C1357 1.349 . S
C1373 H1365 0.950 . S
C1373 C1371 1.327 . S
C1374 C1362 1.349 . S
C1374 H1368 0.950 . S
C1374 C1375 1.327 . S
C1375 H1369 0.950 . S
C1375 C1374 1.327 . S
C1375 C1379 1.429 . S
C1376 C1359 1.574 . S
C1376 H1370 0.949 . S
C1376 C1380 1.368 . S
C1377 C1358 1.429 . S
C1377 C1371 1.429 . S
C1377 C1378 1.523 . S
C1378 C1359 1.368 . S
C1378 C1372 1.368 . S
C1378 C1377 1.523 . S
C1379 C1363 1.429 . S
C1379 C1375 1.429 . S
C1379 C1380 1.523 . S
C1380 C1364 1.368 . S
C1380 C1376 1.368 . S
C1380 C1379 1.523 . S
H1381 C1356 0.950 . S
H1382 C1358 0.950 . S
H1383 C1359 0.949 . S
H1384 C1361 0.950 . S
H1385 C1363 0.950 . S
C1386 C1387 1.349 . S
C1386 C1388 1.327 . S
C1386 H1411 0.950 . S
C1387 C1386 1.349 . S
C1387 C1403 1.349 . S
C1388 C1386 1.327 . S
C1388 C1407 1.429 . S
C1388 H1412 0.950 . S
C1389 C1406 1.574 . S
C1389 C1408 1.368 . S
C1389 H1413 0.949 . S
H1390 C1394 0.949 . S
C1391 C1392 1.349 . S
C1391 C1393 1.327 . S
C1391 H1414 0.950 . S
C1392 C1391 1.349 . S
C1392 C1404 1.349 . S
C1393 C1391 1.327 . S
C1393 C1409 1.429 . S
C1393 H1415 0.950 . S
C1394 H1390 0.949 . S
C1394 C1402 1.574 . S
C1394 C1410 1.368 . S
H1395 C1403 0.950 . S
H1396 C1401 0.950 . S
H1397 C1402 0.949 . S
H1398 C1404 0.950 . S
H1399 C1405 0.950 . S
H1400 C1406 0.949 . S
C1401 H1396 0.950 . S
C1401 C1403 1.327 . S
C1401 C1407 1.429 . S
C1402 C1394 1.574 . S
C1402 H1397 0.949 . S
C1402 C1408 1.368 . S
C1403 C1387 1.349 . S
C1403 H1395 0.950 . S
C1403 C1401 1.327 . S
C1404 C1392 1.349 . S
C1404 H1398 0.950 . S
C1404 C1405 1.327 . S
C1405 H1399 0.950 . S
C1405 C1404 1.327 . S
C1405 C1409 1.429 . S
C1406 C1389 1.574 . S
C1406 H1400 0.949 . S
C1406 C1410 1.368 . S
C1407 C1388 1.429 . S
C1407 C1401 1.429 . S
C1407 C1408 1.523 . S
C1408 C1389 1.368 . S
C1408 C1402 1.368 . S
C1408 C1407 1.523 . S
C1409 C1393 1.429 . S
C1409 C1405 1.429 . S
C1409 C1410 1.523 . S
C1410 C1394 1.368 . S
C1410 C1406 1.368 . S
C1410 C1409 1.523 . S
H1411 C1386 0.950 . S
H1412 C1388 0.950 . S
H1413 C1389 0.949 . S
H1414 C1391 0.950 . S
H1415 C1393 0.950 . S
C1416 C1417 1.349 . S
C1416 C1418 1.327 . S
C1416 H1441 0.950 . S
C1417 C1416 1.349 . S
C1417 C1433 1.349 . S
C1418 C1416 1.327 . S
C1418 C1437 1.429 . S
C1418 H1442 0.950 . S
C1419 C1436 1.574 . S
C1419 C1438 1.368 . S
C1419 H1443 0.949 . S
H1420 C1424 0.949 . S
C1421 C1422 1.349 . S
C1421 C1423 1.327 . S
C1421 H1444 0.950 . S
C1422 C1421 1.349 . S
C1422 C1434 1.349 . S
C1423 C1421 1.327 . S
C1423 C1439 1.429 . S
C1423 H1445 0.950 . S
C1424 H1420 0.949 . S
C1424 C1432 1.574 . S
C1424 C1440 1.368 . S
H1425 C1433 0.950 . S
H1426 C1431 0.950 . S
H1427 C1432 0.949 . S
H1428 C1434 0.950 . S
H1429 C1435 0.950 . S
H1430 C1436 0.949 . S
C1431 H1426 0.950 . S
C1431 C1433 1.327 . S
C1431 C1437 1.429 . S
C1432 C1424 1.574 . S
C1432 H1427 0.949 . S
C1432 C1438 1.368 . S
C1433 C1417 1.349 . S
C1433 H1425 0.950 . S
C1433 C1431 1.327 . S
C1434 C1422 1.349 . S
C1434 H1428 0.950 . S
C1434 C1435 1.327 . S
C1435 H1429 0.950 . S
C1435 C1434 1.327 . S
C1435 C1439 1.429 . S
C1436 C1419 1.574 . S
C1436 H1430 0.949 . S
C1436 C1440 1.368 . S
C1437 C1418 1.429 . S
C1437 C1431 1.429 . S
C1437 C1438 1.523 . S
C1438 C1419 1.368 . S
C1438 C1432 1.368 . S
C1438 C1437 1.523 . S
C1439 C1423 1.429 . S
C1439 C1435 1.429 . S
C1439 C1440 1.523 . S
C1440 C1424 1.368 . S
C1440 C1436 1.368 . S
C1440 C1439 1.523 . S
H1441 C1416 0.950 . S
H1442 C1418 0.950 . S
H1443 C1419 0.949 . S
H1444 C1421 0.950 . S
H1445 C1423 0.950 . S
C1446 C1447 1.349 . S
C1446 C1448 1.327 . S
C1446 H1471 0.950 . S
C1447 C1446 1.349 . S
C1447 C1463 1.349 . S
C1448 C1446 1.327 . S
C1448 C1467 1.429 . S
C1448 H1472 0.950 . S
C1449 C1466 1.574 . S
C1449 C1468 1.368 . S
C1449 H1473 0.949 . S
H1450 C1454 0.949 . S
C1451 C1452 1.349 . S
C1451 C1453 1.327 . S
C1451 H1474 0.950 . S
C1452 C1451 1.349 . S
C1452 C1464 1.349 . S
C1453 C1451 1.327 . S
C1453 C1469 1.429 . S
C1453 H1475 0.950 . S
C1454 H1450 0.949 . S
C1454 C1462 1.574 . S
C1454 C1470 1.368 . S
H1455 C1463 0.950 . S
H1456 C1461 0.950 . S
H1457 C1462 0.949 . S
H1458 C1464 0.950 . S
H1459 C1465 0.950 . S
H1460 C1466 0.949 . S
C1461 H1456 0.950 . S
C1461 C1463 1.327 . S
C1461 C1467 1.429 . S
C1462 C1454 1.574 . S
C1462 H1457 0.949 . S
C1462 C1468 1.368 . S
C1463 C1447 1.349 . S
C1463 H1455 0.950 . S
C1463 C1461 1.327 . S
C1464 C1452 1.349 . S
C1464 H1458 0.950 . S
C1464 C1465 1.327 . S
C1465 H1459 0.950 . S
C1465 C1464 1.327 . S
C1465 C1469 1.429 . S
C1466 C1449 1.574 . S
C1466 H1460 0.949 . S
C1466 C1470 1.368 . S
C1467 C1448 1.429 . S
C1467 C1461 1.429 . S
C1467 C1468 1.523 . S
C1468 C1449 1.368 . S
C1468 C1462 1.368 . S
C1468 C1467 1.523 . S
C1469 C1453 1.429 . S
C1469 C1465 1.429 . S
C1469 C1470 1.523 . S
C1470 C1454 1.368 . S
C1470 C1466 1.368 . S
C1470 C1469 1.523 . S
H1471 C1446 0.950 . S
H1472 C1448 0.950 . S
H1473 C1449 0.949 . S
H1474 C1451 0.950 . S
H1475 C1453 0.950 . S
C1476 C1477 1.349 . S
C1476 C1478 1.327 . S
C1476 H1501 0.950 . S
C1477 C1476 1.349 . S
C1477 C1493 1.349 . S
C1478 C1476 1.327 . S
C1478 C1497 1.429 . S
C1478 H1502 0.950 . S
C1479 C1496 1.574 . S
C1479 C1498 1.368 . S
C1479 H1503 0.949 . S
H1480 C1484 0.949 . S
C1481 C1482 1.349 . S
C1481 C1483 1.327 . S
C1481 H1504 0.950 . S
C1482 C1481 1.349 . S
C1482 C1494 1.349 . S
C1483 C1481 1.327 . S
C1483 C1499 1.429 . S
C1483 H1505 0.950 . S
C1484 H1480 0.949 . S
C1484 C1492 1.574 . S
C1484 C1500 1.368 . S
H1485 C1493 0.950 . S
H1486 C1491 0.950 . S
H1487 C1492 0.949 . S
H1488 C1494 0.950 . S
H1489 C1495 0.950 . S
H1490 C1496 0.949 . S
C1491 H1486 0.950 . S
C1491 C1493 1.327 . S
C1491 C1497 1.429 . S
C1492 C1484 1.574 . S
C1492 H1487 0.949 . S
C1492 C1498 1.368 . S
C1493 C1477 1.349 . S
C1493 H1485 0.950 . S
C1493 C1491 1.327 . S
C1494 C1482 1.349 . S
C1494 H1488 0.950 . S
C1494 C1495 1.327 . S
C1495 H1489 0.950 . S
C1495 C1494 1.327 . S
C1495 C1499 1.429 . S
C1496 C1479 1.574 . S
C1496 H1490 0.949 . S
C1496 C1500 1.368 . S
C1497 C1478 1.429 . S
C1497 C1491 1.429 . S
C1497 C1498 1.523 . S
C1498 C1479 1.368 . S
C1498 C1492 1.368 . S
C1498 C1497 1.523 . S
C1499 C1483 1.429 . S
C1499 C1495 1.429 . S
C1499 C1500 1.523 . S
C1500 C1484 1.368 . S
C1500 C1496 1.368 . S
C1500 C1499 1.523 . S
H1501 C1476 0.950 . S
H1502 C1478 0.950 . S
H1503 C1479 0.949 . S
H1504 C1481 0.950 . S
H1505 C1483 0.950 . S
C1506 C1507 1.349 . S
C1506 C1508 1.327 . S
C1506 H1531 0.950 . S
C1507 C1506 1.349 . S
C1507 C1523 1.349 . S
C1508 C1506 1.327 . S
C1508 C1527 1.429 . S
C1508 H1532 0.950 . S
C1509 C1526 1.574 . S
C1509 C1528 1.368 . S
C1509 H1533 0.949 . S
H1510 C1514 0.949 . S
C1511 C1512 1.349 . S
C1511 C1513 1.327 . S
C1511 H1534 0.950 . S
C1512 C1511 1.349 . S
C1512 C1524 1.349 . S
C1513 C1511 1.327 . S
C1513 C1529 1.429 . S
C1513 H1535 0.950 . S
C1514 H1510 0.949 . S
C1514 C1522 1.574 . S
C1514 C1530 1.368 . S
H1515 C1523 0.950 . S
H1516 C1521 0.950 . S
H1517 C1522 0.949 . S
H1518 C1524 0.950 . S
H1519 C1525 0.950 . S
H1520 C1526 0.949 . S
C1521 H1516 0.950 . S
C1521 C1523 1.327 . S
C1521 C1527 1.429 . S
C1522 C1514 1.574 . S
C1522 H1517 0.949 . S
C1522 C1528 1.368 . S
C1523 C1507 1.349 . S
C1523 H1515 0.950 . S
C1523 C1521 1.327 . S
C1524 C1512 1.349 . S
C1524 H1518 0.950 . S
C1524 C1525 1.327 . S
C1525 H1519 0.950 . S
C1525 C1524 1.327 . S
C1525 C1529 1.429 . S
C1526 C1509 1.574 . S
C1526 H1520 0.949 . S
C1526 C1530 1.368 . S
C1527 C1508 1.429 . S
C1527 C1521 1.429 . S
C1527 C1528 1.523 . S
C1528 C1509 1.368 . S
C1528 C1522 1.368 . S
C1528 C1527 1.523 . S
C1529 C1513 1.429 . S
C1529 C1525 1.429 . S
C1529 C1530 1.523 . S
C1530 C1514 1.368 . S
C1530 C1526 1.368 . S
C1530 C1529 1.523 . S
H1531 C1506 0.950 . S
H1532 C1508 0.950 . S
H1533 C1509 0.949 . S
H1534 C1511 0.950 . S
H1535 C1513 0.950 . S
C1536 C1537 1.349 . S
C1536 C1538 1.327 . S
C1536 H1561 0.950 . S
C1537 C1536 1.349 . S
C1537 C1553 1.349 . S
C1538 C1536 1.327 . S
C1538 C1557 1.429 . S
C1538 H1562 0.950 . S
C1539 C1556 1.574 . S
C1539 C1558 1.368 . S
C1539 H1563 0.949 . S
H1540 C1544 0.949 . S
C1541 C1542 1.349 1_655 S
C1541 C1543 1.327 . S
C1541 H1564 0.950 . S
C1542 C1541 1.349 1_455 S
C1542 C1554 1.349 . S
C1543 C1541 1.327 . S
C1543 C1559 1.429 . S
C1543 H1565 0.950 . S
C1544 H1540 0.949 . S
C1544 C1552 1.574 . S
C1544 C1560 1.368 . S
H1545 C1553 0.950 . S
H1546 C1551 0.950 . S
H1547 C1552 0.949 . S
H1548 C1554 0.950 . S
H1549 C1555 0.950 . S
H1550 C1556 0.949 . S
C1551 H1546 0.950 . S
C1551 C1553 1.327 . S
C1551 C1557 1.429 . S
C1552 C1544 1.574 . S
C1552 H1547 0.949 . S
C1552 C1558 1.368 . S
C1553 C1537 1.349 . S
C1553 H1545 0.950 . S
C1553 C1551 1.327 . S
C1554 C1542 1.349 . S
C1554 H1548 0.950 . S
C1554 C1555 1.327 1_455 S
C1555 H1549 0.950 . S
C1555 C1554 1.327 1_655 S
C1555 C1559 1.429 . S
C1556 C1539 1.574 . S
C1556 H1550 0.949 . S
C1556 C1560 1.368 . S
C1557 C1538 1.429 . S
C1557 C1551 1.429 . S
C1557 C1558 1.523 . S
C1558 C1539 1.368 . S
C1558 C1552 1.368 . S
C1558 C1557 1.523 . S
C1559 C1543 1.429 . S
C1559 C1555 1.429 . S
C1559 C1560 1.523 . S
C1560 C1544 1.368 . S
C1560 C1556 1.368 . S
C1560 C1559 1.523 . S
H1561 C1536 0.950 . S
H1562 C1538 0.950 . S
H1563 C1539 0.949 . S
H1564 C1541 0.950 . S
H1565 C1543 0.950 . S
C1566 C1567 1.349 . S
C1566 C1568 1.327 . S
C1566 H1591 0.950 . S
C1567 C1566 1.349 . S
C1567 C1583 1.349 . S
C1568 C1566 1.327 . S
C1568 C1587 1.429 . S
C1568 H1592 0.950 . S
C1569 C1586 1.574 . S
C1569 C1588 1.368 . S
C1569 H1593 0.949 . S
H1570 C1574 0.949 . S
C1571 C1572 1.349 . S
C1571 C1573 1.327 . S
C1571 H1594 0.950 . S
C1572 C1571 1.349 . S
C1572 C1584 1.349 . S
C1573 C1571 1.327 . S
C1573 C1589 1.429 . S
C1573 H1595 0.950 . S
C1574 H1570 0.949 . S
C1574 C1582 1.574 . S
C1574 C1590 1.368 . S
H1575 C1583 0.950 . S
H1576 C1581 0.950 . S
H1577 C1582 0.949 . S
H1578 C1584 0.950 . S
H1579 C1585 0.950 . S
H1580 C1586 0.949 . S
C1581 H1576 0.950 . S
C1581 C1583 1.327 . S
C1581 C1587 1.429 . S
C1582 C1574 1.574 . S
C1582 H1577 0.949 . S
C1582 C1588 1.368 . S
C1583 C1567 1.349 . S
C1583 H1575 0.950 . S
C1583 C1581 1.327 . S
C1584 C1572 1.349 . S
C1584 H1578 0.950 . S
C1584 C1585 1.327 . S
C1585 H1579 0.950 . S
C1585 C1584 1.327 . S
C1585 C1589 1.429 . S
C1586 C1569 1.574 . S
C1586 H1580 0.949 . S
C1586 C1590 1.368 . S
C1587 C1568 1.429 . S
C1587 C1581 1.429 . S
C1587 C1588 1.523 . S
C1588 C1569 1.368 . S
C1588 C1582 1.368 . S
C1588 C1587 1.523 . S
C1589 C1573 1.429 . S
C1589 C1585 1.429 . S
C1589 C1590 1.523 . S
C1590 C1574 1.368 . S
C1590 C1586 1.368 . S
C1590 C1589 1.523 . S
H1591 C1566 0.950 . S
H1592 C1568 0.950 . S
H1593 C1569 0.949 . S
H1594 C1571 0.950 . S
H1595 C1573 0.950 . S
C1596 C1597 1.349 . S
C1596 C1598 1.327 . S
C1596 H1621 0.950 . S
C1597 C1596 1.349 . S
C1597 C1613 1.349 . S
C1598 C1596 1.327 . S
C1598 C1617 1.429 . S
C1598 H1622 0.950 . S
C1599 C1616 1.574 . S
C1599 C1618 1.368 . S
C1599 H1623 0.949 . S
H1600 C1604 0.949 . S
C1601 C1602 1.349 . S
C1601 C1603 1.327 . S
C1601 H1624 0.950 . S
C1602 C1601 1.349 . S
C1602 C1614 1.349 . S
C1603 C1601 1.327 . S
C1603 C1619 1.429 . S
C1603 H1625 0.950 . S
C1604 H1600 0.949 . S
C1604 C1612 1.574 . S
C1604 C1620 1.368 . S
H1605 C1613 0.950 . S
H1606 C1611 0.950 . S
H1607 C1612 0.949 . S
H1608 C1614 0.950 . S
H1609 C1615 0.950 . S
H1610 C1616 0.949 . S
C1611 H1606 0.950 . S
C1611 C1613 1.327 . S
C1611 C1617 1.429 . S
C1612 C1604 1.574 . S
C1612 H1607 0.949 . S
C1612 C1618 1.368 . S
C1613 C1597 1.349 . S
C1613 H1605 0.950 . S
C1613 C1611 1.327 . S
C1614 C1602 1.349 . S
C1614 H1608 0.950 . S
C1614 C1615 1.327 . S
C1615 H1609 0.950 . S
C1615 C1614 1.327 . S
C1615 C1619 1.429 . S
C1616 C1599 1.574 . S
C1616 H1610 0.949 . S
C1616 C1620 1.368 . S
C1617 C1598 1.429 . S
C1617 C1611 1.429 . S
C1617 C1618 1.523 . S
C1618 C1599 1.368 . S
C1618 C1612 1.368 . S
C1618 C1617 1.523 . S
C1619 C1603 1.429 . S
C1619 C1615 1.429 . S
C1619 C1620 1.523 . S
C1620 C1604 1.368 . S
C1620 C1616 1.368 . S
C1620 C1619 1.523 . S
H1621 C1596 0.950 . S
H1622 C1598 0.950 . S
H1623 C1599 0.949 . S
H1624 C1601 0.950 . S
H1625 C1603 0.950 . S
C1626 C1627 1.349 . S
C1626 C1628 1.327 . S
C1626 H1651 0.950 . S
C1627 C1626 1.349 . S
C1627 C1643 1.349 . S
C1628 C1626 1.327 . S
C1628 C1647 1.429 . S
C1628 H1652 0.950 . S
C1629 C1646 1.574 . S
C1629 C1648 1.368 . S
C1629 H1653 0.949 . S
H1630 C1634 0.949 . S
C1631 C1632 1.349 . S
C1631 C1633 1.327 1_455 S
C1631 H1654 0.950 . S
C1632 C1631 1.349 . S
C1632 C1644 1.349 . S
C1633 C1631 1.327 1_655 S
C1633 C1649 1.429 . S
C1633 H1655 0.950 . S
C1634 H1630 0.949 . S
C1634 C1642 1.574 . S
C1634 C1650 1.368 . S
H1635 C1643 0.950 . S
H1636 C1641 0.950 . S
H1637 C1642 0.949 . S
H1638 C1644 0.950 . S
H1639 C1645 0.950 . S
H1640 C1646 0.949 . S
C1641 H1636 0.950 . S
C1641 C1643 1.327 . S
C1641 C1647 1.429 . S
C1642 C1634 1.574 . S
C1642 H1637 0.949 . S
C1642 C1648 1.368 . S
C1643 C1627 1.349 . S
C1643 H1635 0.950 . S
C1643 C1641 1.327 . S
C1644 C1632 1.349 . S
C1644 H1638 0.950 . S
C1644 C1645 1.327 1_455 S
C1645 H1639 0.950 . S
C1645 C1644 1.327 1_655 S
C1645 C1649 1.429 . S
C1646 C1629 1.574 . S
C1646 H1640 0.949 . S
C1646 C1650 1.368 . S
C1647 C1628 1.429 . S
C1647 C1641 1.429 . S
C1647 C1648 1.523 . S
C1648 C1629 1.368 . S
C1648 C1642 1.368 . S
C1648 C1647 1.523 . S
C1649 C1633 1.429 . S
C1649 C1645 1.429 . S
C1649 C1650 1.523 . S
C1650 C1634 1.368 . S
C1650 C1646 1.368 . S
C1650 C1649 1.523 . S
H1651 C1626 0.950 . S
H1652 C1628 0.950 . S
H1653 C1629 0.949 . S
H1654 C1631 0.950 . S
H1655 C1633 0.950 . S
C1656 C1657 1.349 . S
C1656 C1658 1.327 . S
C1656 H1681 0.950 . S
C1657 C1656 1.349 . S
C1657 C1673 1.349 . S
C1658 C1656 1.327 . S
C1658 C1677 1.429 . S
C1658 H1682 0.950 . S
C1659 C1676 1.574 . S
C1659 C1678 1.368 . S
C1659 H1683 0.949 . S
H1660 C1664 0.949 . S
C1661 C1662 1.349 . S
C1661 C1663 1.327 . S
C1661 H1684 0.950 . S
C1662 C1661 1.349 . S
C1662 C1674 1.349 . S
C1663 C1661 1.327 . S
C1663 C1679 1.429 . S
C1663 H1685 0.950 . S
C1664 H1660 0.949 . S
C1664 C1672 1.574 . S
C1664 C1680 1.368 . S
H1665 C1673 0.950 . S
H1666 C1671 0.950 . S
H1667 C1672 0.949 . S
H1668 C1674 0.950 . S
H1669 C1675 0.950 . S
H1670 C1676 0.949 . S
C1671 H1666 0.950 . S
C1671 C1673 1.327 . S
C1671 C1677 1.429 . S
C1672 C1664 1.574 . S
C1672 H1667 0.949 . S
C1672 C1678 1.368 . S
C1673 C1657 1.349 . S
C1673 H1665 0.950 . S
C1673 C1671 1.327 . S
C1674 C1662 1.349 . S
C1674 H1668 0.950 . S
C1674 C1675 1.327 . S
C1675 H1669 0.950 . S
C1675 C1674 1.327 . S
C1675 C1679 1.429 . S
C1676 C1659 1.574 . S
C1676 H1670 0.949 . S
C1676 C1680 1.368 . S
C1677 C1658 1.429 . S
C1677 C1671 1.429 . S
C1677 C1678 1.523 . S
C1678 C1659 1.368 . S
C1678 C1672 1.368 . S
C1678 C1677 1.523 . S
C1679 C1663 1.429 . S
C1679 C1675 1.429 . S
C1679 C1680 1.523 . S
C1680 C1664 1.368 . S
C1680 C1676 1.368 . S
C1680 C1679 1.523 . S
H1681 C1656 0.950 . S
H1682 C1658 0.950 . S
H1683 C1659 0.949 . S
H1684 C1661 0.950 . S
H1685 C1663 0.950 . S
C1686 C1687 1.349 . S
C1686 C1688 1.327 . S
C1686 H1711 0.950 . S
C1687 C1686 1.349 . S
C1687 C1703 1.349 . S
C1688 C1686 1.327 . S
C1688 C1707 1.429 . S
C1688 H1712 0.950 . S
C1689 C1706 1.574 . S
C1689 C1708 1.368 . S
C1689 H1713 0.949 . S
H1690 C1694 0.949 . S
C1691 C1692 1.349 . S
C1691 C1693 1.327 . S
C1691 H1714 0.950 . S
C1692 C1691 1.349 . S
C1692 C1704 1.349 . S
C1693 C1691 1.327 . S
C1693 C1709 1.429 . S
C1693 H1715 0.950 . S
C1694 H1690 0.949 . S
C1694 C1702 1.574 . S
C1694 C1710 1.368 . S
H1695 C1703 0.950 . S
H1696 C1701 0.950 . S
H1697 C1702 0.949 . S
H1698 C1704 0.950 . S
H1699 C1705 0.950 . S
H1700 C1706 0.949 . S
C1701 H1696 0.950 . S
C1701 C1703 1.327 . S
C1701 C1707 1.429 . S
C1702 C1694 1.574 . S
C1702 H1697 0.949 . S
C1702 C1708 1.368 . S
C1703 C1687 1.349 . S
C1703 H1695 0.950 . S
C1703 C1701 1.327 . S
C1704 C1692 1.349 . S
C1704 H1698 0.950 . S
C1704 C1705 1.327 . S
C1705 H1699 0.950 . S
C1705 C1704 1.327 . S
C1705 C1709 1.429 . S
C1706 C1689 1.574 . S
C1706 H1700 0.949 . S
C1706 C1710 1.368 . S
C1707 C1688 1.429 . S
C1707 C1701 1.429 . S
C1707 C1708 1.523 . S
C1708 C1689 1.368 . S
C1708 C1702 1.368 . S
C1708 C1707 1.523 . S
C1709 C1693 1.429 . S
C1709 C1705 1.429 . S
C1709 C1710 1.523 . S
C1710 C1694 1.368 . S
C1710 C1706 1.368 . S
C1710 C1709 1.523 . S
H1711 C1686 0.950 . S
H1712 C1688 0.950 . S
H1713 C1689 0.949 . S
H1714 C1691 0.950 . S
H1715 C1693 0.950 . S
C1716 C1717 1.349 . S
C1716 C1718 1.327 . S
C1716 H1741 0.950 . S
C1717 C1716 1.349 . S
C1717 C1733 1.349 . S
C1718 C1716 1.327 . S
C1718 C1737 1.429 . S
C1718 H1742 0.950 . S
C1719 C1736 1.574 . S
C1719 C1738 1.368 . S
C1719 H1743 0.949 . S
H1720 C1724 0.949 . S
C1721 C1722 1.349 . S
C1721 C1723 1.327 . S
C1721 H1744 0.950 . S
C1722 C1721 1.349 . S
C1722 C1734 1.349 . S
C1723 C1721 1.327 . S
C1723 C1739 1.429 . S
C1723 H1745 0.950 . S
C1724 H1720 0.949 . S
C1724 C1732 1.574 . S
C1724 C1740 1.368 . S
H1725 C1733 0.950 . S
H1726 C1731 0.950 . S
H1727 C1732 0.949 . S
H1728 C1734 0.950 . S
H1729 C1735 0.950 . S
H1730 C1736 0.949 . S
C1731 H1726 0.950 . S
C1731 C1733 1.327 . S
C1731 C1737 1.429 . S
C1732 C1724 1.574 . S
C1732 H1727 0.949 . S
C1732 C1738 1.368 . S
C1733 C1717 1.349 . S
C1733 H1725 0.950 . S
C1733 C1731 1.327 . S
C1734 C1722 1.349 . S
C1734 H1728 0.950 . S
C1734 C1735 1.327 . S
C1735 H1729 0.950 . S
C1735 C1734 1.327 . S
C1735 C1739 1.429 . S
C1736 C1719 1.574 . S
C1736 H1730 0.949 . S
C1736 C1740 1.368 . S
C1737 C1718 1.429 . S
C1737 C1731 1.429 . S
C1737 C1738 1.523 . S
C1738 C1719 1.368 . S
C1738 C1732 1.368 . S
C1738 C1737 1.523 . S
C1739 C1723 1.429 . S
C1739 C1735 1.429 . S
C1739 C1740 1.523 . S
C1740 C1724 1.368 . S
C1740 C1736 1.368 . S
C1740 C1739 1.523 . S
H1741 C1716 0.950 . S
H1742 C1718 0.950 . S
H1743 C1719 0.949 . S
H1744 C1721 0.950 . S
H1745 C1723 0.950 . S
C1746 C1747 1.349 . S
C1746 C1748 1.327 . S
C1746 H1771 0.950 . S
C1747 C1746 1.349 . S
C1747 C1763 1.349 . S
C1748 C1746 1.327 . S
C1748 C1767 1.429 . S
C1748 H1772 0.950 . S
C1749 C1766 1.574 . S
C1749 C1768 1.368 . S
C1749 H1773 0.949 . S
H1750 C1754 0.949 . S
C1751 C1752 1.349 . S
C1751 C1753 1.327 . S
C1751 H1774 0.950 . S
C1752 C1751 1.349 . S
C1752 C1764 1.349 . S
C1753 C1751 1.327 . S
C1753 C1769 1.429 . S
C1753 H1775 0.950 . S
C1754 H1750 0.949 . S
C1754 C1762 1.574 . S
C1754 C1770 1.368 . S
H1755 C1763 0.950 . S
H1756 C1761 0.950 . S
H1757 C1762 0.949 . S
H1758 C1764 0.950 . S
H1759 C1765 0.950 . S
H1760 C1766 0.949 . S
C1761 H1756 0.950 . S
C1761 C1763 1.327 . S
C1761 C1767 1.429 . S
C1762 C1754 1.574 . S
C1762 H1757 0.949 . S
C1762 C1768 1.368 . S
C1763 C1747 1.349 . S
C1763 H1755 0.950 . S
C1763 C1761 1.327 . S
C1764 C1752 1.349 . S
C1764 H1758 0.950 . S
C1764 C1765 1.327 . S
C1765 H1759 0.950 . S
C1765 C1764 1.327 . S
C1765 C1769 1.429 . S
C1766 C1749 1.574 . S
C1766 H1760 0.949 . S
C1766 C1770 1.368 . S
C1767 C1748 1.429 . S
C1767 C1761 1.429 . S
C1767 C1768 1.523 . S
C1768 C1749 1.368 . S
C1768 C1762 1.368 . S
C1768 C1767 1.523 . S
C1769 C1753 1.429 . S
C1769 C1765 1.429 . S
C1769 C1770 1.523 . S
C1770 C1754 1.368 . S
C1770 C1766 1.368 . S
C1770 C1769 1.523 . S
H1771 C1746 0.950 . S
H1772 C1748 0.950 . S
H1773 C1749 0.949 . S
H1774 C1751 0.950 . S
H1775 C1753 0.950 . S
C1776 C1777 1.349 . S
C1776 C1778 1.327 . S
C1776 H1801 0.950 . S
C1777 C1776 1.349 . S
C1777 C1793 1.349 . S
C1778 C1776 1.327 . S
C1778 C1797 1.429 . S
C1778 H1802 0.950 . S
C1779 C1796 1.574 . S
C1779 C1798 1.368 . S
C1779 H1803 0.949 . S
H1780 C1784 0.949 . S
C1781 C1782 1.349 . S
C1781 C1783 1.327 . S
C1781 H1804 0.950 . S
C1782 C1781 1.349 . S
C1782 C1794 1.349 . S
C1783 C1781 1.327 . S
C1783 C1799 1.429 . S
C1783 H1805 0.950 . S
C1784 H1780 0.949 . S
C1784 C1792 1.574 . S
C1784 C1800 1.368 . S
H1785 C1793 0.950 . S
H1786 C1791 0.950 . S
H1787 C1792 0.949 . S
H1788 C1794 0.950 . S
H1789 C1795 0.950 . S
H1790 C1796 0.949 . S
C1791 H1786 0.950 . S
C1791 C1793 1.327 . S
C1791 C1797 1.429 . S
C1792 C1784 1.574 . S
C1792 H1787 0.949 . S
C1792 C1798 1.368 . S
C1793 C1777 1.349 . S
C1793 H1785 0.950 . S
C1793 C1791 1.327 . S
C1794 C1782 1.349 . S
C1794 H1788 0.950 . S
C1794 C1795 1.327 . S
C1795 H1789 0.950 . S
C1795 C1794 1.327 . S
C1795 C1799 1.429 . S
C1796 C1779 1.574 . S
C1796 H1790 0.949 . S
C1796 C1800 1.368 . S
C1797 C1778 1.429 . S
C1797 C1791 1.429 . S
C1797 C1798 1.523 . S
C1798 C1779 1.368 . S
C1798 C1792 1.368 . S
C1798 C1797 1.523 . S
C1799 C1783 1.429 . S
C1799 C1795 1.429 . S
C1799 C1800 1.523 . S
C1800 C1784 1.368 . S
C1800 C1796 1.368 . S
C1800 C1799 1.523 . S
H1801 C1776 0.950 . S
H1802 C1778 0.950 . S
H1803 C1779 0.949 . S
H1804 C1781 0.950 . S
H1805 C1783 0.950 . S
C1806 C1807 1.349 . S
C1806 C1808 1.327 . S
C1806 H1831 0.950 . S
C1807 C1806 1.349 . S
C1807 C1823 1.357 . S
C1808 C1806 1.327 . S
C1808 C1827 1.429 . S
C1808 H1832 0.950 . S
C1809 C1826 1.574 . S
C1809 C1828 1.368 . S
C1809 H1833 0.949 1_545 S
H1810 C1814 0.949 . S
C1811 C1812 1.349 . S
C1811 C1813 1.327 . S
C1811 H1834 0.950 . S
C1812 C1811 1.349 . S
C1812 C1824 1.349 . S
C1813 C1811 1.327 . S
C1813 C1829 1.429 . S
C1813 H1835 0.950 . S
C1814 H1810 0.949 . S
C1814 C1822 1.574 . S
C1814 C1830 1.368 . S
H1815 C1823 0.915 1_565 S
H1816 C1821 0.950 1_565 S
H1817 C1822 0.949 . S
H1818 C1824 0.950 . S
H1819 C1825 0.950 . S
H1820 C1826 0.949 . S
C1821 H1816 0.950 1_545 S
C1821 C1823 1.360 . S
C1821 C1827 1.429 . S
C1822 C1814 1.574 . S
C1822 H1817 0.949 . S
C1822 C1828 1.368 . S
C1823 C1807 1.357 . S
C1823 H1815 0.915 1_545 S
C1823 C1821 1.360 . S
C1824 C1812 1.349 . S
C1824 H1818 0.950 . S
C1824 C1825 1.327 . S
C1825 H1819 0.950 . S
C1825 C1824 1.327 . S
C1825 C1829 1.429 . S
C1826 C1809 1.574 . S
C1826 H1820 0.949 . S
C1826 C1830 1.368 . S
C1827 C1808 1.429 . S
C1827 C1821 1.429 . S
C1827 C1828 1.523 . S
C1828 C1809 1.368 . S
C1828 C1822 1.368 . S
C1828 C1827 1.523 . S
C1829 C1813 1.429 . S
C1829 C1825 1.429 . S
C1829 C1830 1.523 . S
C1830 C1814 1.368 . S
C1830 C1826 1.368 . S
C1830 C1829 1.523 . S
H1831 C1806 0.950 . S
H1832 C1808 0.950 . S
H1833 C1809 0.949 1_565 S
H1834 C1811 0.950 . S
H1835 C1813 0.950 . S
C1836 C1837 1.349 . S
C1836 C1838 1.327 . S
C1836 H1861 0.950 1_545 S
C1837 C1836 1.349 . S
C1837 C1853 1.349 . S
C1838 C1836 1.327 . S
C1838 C1857 1.429 . S
C1838 H1862 0.936 1_545 S
C1839 C1856 1.574 . S
C1839 C1858 1.368 . S
C1839 H1863 0.949 . S
H1840 C1844 0.949 . S
C1841 C1842 1.349 . S
C1841 C1843 1.327 . S
C1841 H1864 0.950 . S
C1842 C1841 1.349 . S
C1842 C1854 1.349 . S
C1843 C1841 1.327 . S
C1843 C1859 1.429 . S
C1843 H1865 0.950 . S
C1844 H1840 0.949 . S
C1844 C1852 1.574 . S
C1844 C1860 1.368 . S
H1845 C1853 0.950 . S
H1846 C1851 0.950 . S
H1847 C1852 1.019 . S
H1848 C1854 0.950 . S
H1849 C1855 0.950 . S
H1850 C1856 0.949 . S
C1851 H1846 0.950 . S
C1851 C1853 1.327 . S
C1851 C1857 1.429 . S
C1852 C1844 1.574 . S
C1852 H1847 1.019 . S
C1852 C1858 1.368 . S
C1853 C1837 1.349 . S
C1853 H1845 0.950 . S
C1853 C1851 1.327 . S
C1854 C1842 1.349 . S
C1854 H1848 0.950 . S
C1854 C1855 1.327 . S
C1855 H1849 0.950 . S
C1855 C1854 1.327 . S
C1855 C1859 1.429 . S
C1856 C1839 1.574 . S
C1856 H1850 0.949 . S
C1856 C1860 1.368 . S
C1857 C1838 1.429 . S
C1857 C1851 1.429 . S
C1857 C1858 1.523 . S
C1858 C1839 1.368 . S
C1858 C1852 1.368 . S
C1858 C1857 1.523 . S
C1859 C1843 1.429 . S
C1859 C1855 1.429 . S
C1859 C1860 1.523 . S
C1860 C1844 1.368 . S
C1860 C1856 1.368 . S
C1860 C1859 1.523 . S
H1861 C1836 0.950 1_565 S
H1862 C1838 0.936 1_565 S
H1863 C1839 0.949 . S
H1864 C1841 0.950 . S
H1865 C1843 0.950 . S
C1866 C1867 1.349 . S
C1866 C1868 1.327 . S
C1866 H1891 0.950 . S
C1867 C1866 1.349 . S
C1867 C1883 1.349 . S
C1868 C1866 1.327 . S
C1868 C1887 1.429 . S
C1868 H1892 0.950 . S
C1869 C1886 1.574 . S
C1869 C1888 1.368 . S
C1869 H1893 0.949 . S
H1870 C1874 0.949 . S
C1871 C1872 1.349 . S
C1871 C1873 1.327 . S
C1871 H1894 0.950 . S
C1872 C1871 1.349 . S
C1872 C1884 1.349 . S
C1873 C1871 1.327 . S
C1873 C1889 1.429 . S
C1873 H1895 0.950 . S
C1874 H1870 0.949 . S
C1874 C1882 1.574 . S
C1874 C1890 1.368 . S
H1875 C1883 0.950 . S
H1876 C1881 0.950 . S
H1877 C1882 0.949 . S
H1878 C1884 0.950 . S
H1879 C1885 0.950 . S
H1880 C1886 0.949 . S
C1881 H1876 0.950 . S
C1881 C1883 1.327 . S
C1881 C1887 1.429 . S
C1882 C1874 1.574 . S
C1882 H1877 0.949 . S
C1882 C1888 1.368 . S
C1883 C1867 1.349 . S
C1883 H1875 0.950 . S
C1883 C1881 1.327 . S
C1884 C1872 1.349 . S
C1884 H1878 0.950 . S
C1884 C1885 1.327 . S
C1885 H1879 0.950 . S
C1885 C1884 1.327 . S
C1885 C1889 1.429 . S
C1886 C1869 1.574 . S
C1886 H1880 0.949 . S
C1886 C1890 1.368 . S
C1887 C1868 1.429 . S
C1887 C1881 1.429 . S
C1887 C1888 1.523 . S
C1888 C1869 1.368 . S
C1888 C1882 1.368 . S
C1888 C1887 1.523 . S
C1889 C1873 1.429 . S
C1889 C1885 1.429 . S
C1889 C1890 1.523 . S
C1890 C1874 1.368 . S
C1890 C1886 1.368 . S
C1890 C1889 1.523 . S
H1891 C1866 0.950 . S
H1892 C1868 0.950 . S
H1893 C1869 0.949 . S
H1894 C1871 0.950 . S
H1895 C1873 0.950 . S
C1896 C1897 1.349 . S
C1896 C1898 1.327 . S
C1896 H1921 0.950 . S
C1897 C1896 1.349 . S
C1897 C1913 1.349 . S
C1898 C1896 1.327 . S
C1898 C1917 1.429 . S
C1898 H1922 0.950 . S
C1899 C1916 1.574 . S
C1899 C1918 1.368 . S
C1899 H1923 0.949 . S
H1900 C1904 0.949 . S
C1901 C1902 1.349 . S
C1901 C1903 1.327 . S
C1901 H1924 0.950 . S
C1902 C1901 1.349 . S
C1902 C1914 1.349 . S
C1903 C1901 1.327 . S
C1903 C1919 1.429 . S
C1903 H1925 0.950 . S
C1904 H1900 0.949 . S
C1904 C1912 1.574 . S
C1904 C1920 1.368 . S
H1905 C1913 0.950 . S
H1906 C1911 0.950 . S
H1907 C1912 0.949 . S
H1908 C1914 0.950 . S
H1909 C1915 0.950 . S
H1910 C1916 0.949 . S
C1911 H1906 0.950 . S
C1911 C1913 1.327 . S
C1911 C1917 1.429 . S
C1912 C1904 1.574 . S
C1912 H1907 0.949 . S
C1912 C1918 1.368 . S
C1913 C1897 1.349 . S
C1913 H1905 0.950 . S
C1913 C1911 1.327 . S
C1914 C1902 1.349 . S
C1914 H1908 0.950 . S
C1914 C1915 1.327 . S
C1915 H1909 0.950 . S
C1915 C1914 1.327 . S
C1915 C1919 1.429 . S
C1916 C1899 1.574 . S
C1916 H1910 0.949 . S
C1916 C1920 1.368 . S
C1917 C1898 1.429 . S
C1917 C1911 1.429 . S
C1917 C1918 1.523 . S
C1918 C1899 1.368 . S
C1918 C1912 1.368 . S
C1918 C1917 1.523 . S
C1919 C1903 1.429 . S
C1919 C1915 1.429 . S
C1919 C1920 1.523 . S
C1920 C1904 1.368 . S
C1920 C1916 1.368 . S
C1920 C1919 1.523 . S
H1921 C1896 0.950 . S
H1922 C1898 0.950 . S
H1923 C1899 0.949 . S
H1924 C1901 0.950 . S
H1925 C1903 0.950 . S
C1926 C1927 1.349 . S
C1926 C1928 1.327 . S
C1926 H1951 0.950 . S
C1927 C1926 1.349 . S
C1927 C1943 1.349 . S
C1928 C1926 1.327 . S
C1928 C1947 1.429 . S
C1928 H1952 0.950 . S
C1929 C1946 1.574 . S
C1929 C1948 1.368 . S
C1929 H1953 0.949 . S
H1930 C1934 0.949 . S
C1931 C1932 1.349 . S
C1931 C1933 1.327 . S
C1931 H1954 0.950 . S
C1932 C1931 1.349 . S
C1932 C1944 1.349 . S
C1933 C1931 1.327 . S
C1933 C1949 1.429 . S
C1933 H1955 0.950 . S
C1934 H1930 0.949 . S
C1934 C1942 1.574 . S
C1934 C1950 1.368 . S
H1935 C1943 0.950 . S
H1936 C1941 0.950 . S
H1937 C1942 0.949 . S
H1938 C1944 0.950 . S
H1939 C1945 0.950 . S
H1940 C1946 0.949 . S
C1941 H1936 0.950 . S
C1941 C1943 1.327 . S
C1941 C1947 1.429 . S
C1942 C1934 1.574 . S
C1942 H1937 0.949 . S
C1942 C1948 1.368 . S
C1943 C1927 1.349 . S
C1943 H1935 0.950 . S
C1943 C1941 1.327 . S
C1944 C1932 1.349 . S
C1944 H1938 0.950 . S
C1944 C1945 1.327 . S
C1945 H1939 0.950 . S
C1945 C1944 1.327 . S
C1945 C1949 1.429 . S
C1946 C1929 1.574 . S
C1946 H1940 0.949 . S
C1946 C1950 1.368 . S
C1947 C1928 1.429 . S
C1947 C1941 1.429 . S
C1947 C1948 1.523 . S
C1948 C1929 1.368 . S
C1948 C1942 1.368 . S
C1948 C1947 1.523 . S
C1949 C1933 1.429 . S
C1949 C1945 1.429 . S
C1949 C1950 1.523 . S
C1950 C1934 1.368 . S
C1950 C1946 1.368 . S
C1950 C1949 1.523 . S
H1951 C1926 0.950 . S
H1952 C1928 0.950 . S
H1953 C1929 0.949 . S
H1954 C1931 0.950 . S
H1955 C1933 0.950 . S
C1956 C1957 1.349 . S
C1956 C1958 1.327 . S
C1956 H1981 0.950 . S
C1957 C1956 1.349 . S
C1957 C1973 1.349 . S
C1958 C1956 1.327 . S
C1958 C1977 1.429 . S
C1958 H1982 0.950 . S
C1959 C1976 1.574 . S
C1959 C1978 1.368 . S
C1959 H1983 0.949 . S
H1960 C1964 0.949 . S
C1961 C1962 1.349 . S
C1961 C1963 1.327 . S
C1961 H1984 0.950 . S
C1962 C1961 1.349 . S
C1962 C1974 1.349 . S
C1963 C1961 1.327 . S
C1963 C1979 1.429 . S
C1963 H1985 0.950 . S
C1964 H1960 0.949 . S
C1964 C1972 1.574 . S
C1964 C1980 1.368 . S
H1965 C1973 0.950 . S
H1966 C1971 0.950 . S
H1967 C1972 0.949 . S
H1968 C1974 0.950 . S
H1969 C1975 0.950 . S
H1970 C1976 0.949 . S
C1971 H1966 0.950 . S
C1971 C1973 1.327 . S
C1971 C1977 1.429 . S
C1972 C1964 1.574 . S
C1972 H1967 0.949 . S
C1972 C1978 1.368 . S
C1973 C1957 1.349 . S
C1973 H1965 0.950 . S
C1973 C1971 1.327 . S
C1974 C1962 1.349 . S
C1974 H1968 0.950 . S
C1974 C1975 1.327 . S
C1975 H1969 0.950 . S
C1975 C1974 1.327 . S
C1975 C1979 1.429 . S
C1976 C1959 1.574 . S
C1976 H1970 0.949 . S
C1976 C1980 1.368 . S
C1977 C1958 1.429 . S
C1977 C1971 1.429 . S
C1977 C1978 1.523 . S
C1978 C1959 1.368 . S
C1978 C1972 1.368 . S
C1978 C1977 1.523 . S
C1979 C1963 1.429 . S
C1979 C1975 1.429 . S
C1979 C1980 1.523 . S
C1980 C1964 1.368 . S
C1980 C1976 1.368 . S
C1980 C1979 1.523 . S
H1981 C1956 0.950 . S
H1982 C1958 0.950 . S
H1983 C1959 0.949 . S
H1984 C1961 0.950 . S
H1985 C1963 0.950 . S
C1986 C1987 1.349 . S
C1986 C1988 1.327 . S
C1986 H2011 0.950 1_545 S
C1987 C1986 1.349 . S
C1987 C2003 1.349 . S
C1988 C1986 1.327 . S
C1988 C2007 1.429 . S
C1988 H2012 0.950 . S
C1989 C2006 1.574 . S
C1989 C2008 1.368 . S
C1989 H2013 0.949 . S
H1990 C1994 0.949 . S
C1991 C1992 1.349 . S
C1991 C1993 1.327 . S
C1991 H2014 0.950 . S
C1992 C1991 1.349 . S
C1992 C2004 1.349 . S
C1993 C1991 1.327 . S
C1993 C2009 1.429 . S
C1993 H2015 0.950 . S
C1994 H1990 0.949 . S
C1994 C2002 1.574 . S
C1994 C2010 1.368 . S
H1995 C2003 0.950 . S
H1996 C2001 0.950 . S
H1997 C2002 0.949 . S
H1998 C2004 0.950 . S
H1999 C2005 0.950 . S
H2000 C2006 0.949 . S
C2001 H1996 0.950 . S
C2001 C2003 1.327 . S
C2001 C2007 1.429 . S
C2002 C1994 1.574 . S
C2002 H1997 0.949 . S
C2002 C2008 1.368 . S
C2003 C1987 1.349 . S
C2003 H1995 0.950 . S
C2003 C2001 1.327 . S
C2004 C1992 1.349 . S
C2004 H1998 0.950 . S
C2004 C2005 1.327 . S
C2005 H1999 0.950 . S
C2005 C2004 1.327 . S
C2005 C2009 1.429 . S
C2006 C1989 1.574 . S
C2006 H2000 0.949 . S
C2006 C2010 1.368 . S
C2007 C1988 1.429 . S
C2007 C2001 1.429 . S
C2007 C2008 1.523 . S
C2008 C1989 1.368 . S
C2008 C2002 1.368 . S
C2008 C2007 1.523 . S
C2009 C1993 1.429 . S
C2009 C2005 1.429 . S
C2009 C2010 1.523 . S
C2010 C1994 1.368 . S
C2010 C2006 1.368 . S
C2010 C2009 1.523 . S
H2011 C1986 0.950 1_565 S
H2012 C1988 0.950 . S
H2013 C1989 0.949 . S
H2014 C1991 0.950 . S
H2015 C1993 0.950 . S
C2016 C2017 1.349 . S
C2016 C2018 1.327 . S
C2016 H2041 0.950 . S
C2017 C2016 1.349 . S
C2017 C2033 1.349 . S
C2018 C2016 1.327 . S
C2018 C2037 1.429 . S
C2018 H2042 0.950 . S
C2019 C2036 1.574 . S
C2019 C2038 1.368 . S
C2019 H2043 0.949 . S
H2020 C2024 0.949 . S
C2021 C2022 1.349 . S
C2021 C2023 1.327 . S
C2021 H2044 0.950 . S
C2022 C2021 1.349 . S
C2022 C2034 1.349 . S
C2023 C2021 1.327 . S
C2023 C2039 1.429 . S
C2023 H2045 0.950 . S
C2024 H2020 0.949 . S
C2024 C2032 1.574 . S
C2024 C2040 1.368 . S
H2025 C2033 0.950 . S
H2026 C2031 0.950 . S
H2027 C2032 0.949 . S
H2028 C2034 0.950 . S
H2029 C2035 0.950 . S
H2030 C2036 0.949 . S
C2031 H2026 0.950 . S
C2031 C2033 1.327 . S
C2031 C2037 1.429 . S
C2032 C2024 1.574 . S
C2032 H2027 0.949 . S
C2032 C2038 1.368 . S
C2033 C2017 1.349 . S
C2033 H2025 0.950 . S
C2033 C2031 1.327 . S
C2034 C2022 1.349 . S
C2034 H2028 0.950 . S
C2034 C2035 1.327 . S
C2035 H2029 0.950 . S
C2035 C2034 1.327 . S
C2035 C2039 1.429 . S
C2036 C2019 1.574 . S
C2036 H2030 0.949 . S
C2036 C2040 1.368 . S
C2037 C2018 1.429 . S
C2037 C2031 1.429 . S
C2037 C2038 1.523 . S
C2038 C2019 1.368 . S
C2038 C2032 1.368 . S
C2038 C2037 1.523 . S
C2039 C2023 1.429 . S
C2039 C2035 1.429 . S
C2039 C2040 1.523 . S
C2040 C2024 1.368 . S
C2040 C2036 1.368 . S
C2040 C2039 1.523 . S
H2041 C2016 0.950 . S
H2042 C2018 0.950 . S
H2043 C2019 0.949 . S
H2044 C2021 0.950 . S
H2045 C2023 0.950 . S
C2046 C2047 1.349 . S
C2046 C2048 1.327 . S
C2046 H2071 0.950 . S
C2047 C2046 1.349 . S
C2047 C2063 1.349 . S
C2048 C2046 1.327 . S
C2048 C2067 1.429 . S
C2048 H2072 0.950 . S
C2049 C2066 1.574 . S
C2049 C2068 1.368 . S
C2049 H2073 0.949 . S
H2050 C2054 0.949 . S
C2051 C2052 1.349 . S
C2051 C2053 1.327 . S
C2051 H2074 0.950 . S
C2052 C2051 1.349 . S
C2052 C2064 1.349 . S
C2053 C2051 1.327 . S
C2053 C2069 1.429 . S
C2053 H2075 0.950 . S
C2054 H2050 0.949 . S
C2054 C2062 1.574 . S
C2054 C2070 1.368 . S
H2055 C2063 0.950 . S
H2056 C2061 0.950 . S
H2057 C2062 0.949 . S
H2058 C2064 0.950 . S
H2059 C2065 0.950 . S
H2060 C2066 0.949 . S
C2061 H2056 0.950 . S
C2061 C2063 1.327 . S
C2061 C2067 1.429 . S
C2062 C2054 1.574 . S
C2062 H2057 0.949 . S
C2062 C2068 1.368 . S
C2063 C2047 1.349 . S
C2063 H2055 0.950 . S
C2063 C2061 1.327 . S
C2064 C2052 1.349 . S
C2064 H2058 0.950 . S
C2064 C2065 1.327 . S
C2065 H2059 0.950 . S
C2065 C2064 1.327 . S
C2065 C2069 1.429 . S
C2066 C2049 1.574 . S
C2066 H2060 0.949 . S
C2066 C2070 1.368 . S
C2067 C2048 1.429 . S
C2067 C2061 1.429 . S
C2067 C2068 1.523 . S
C2068 C2049 1.368 . S
C2068 C2062 1.368 . S
C2068 C2067 1.523 . S
C2069 C2053 1.429 . S
C2069 C2065 1.429 . S
C2069 C2070 1.523 . S
C2070 C2054 1.368 . S
C2070 C2066 1.368 . S
C2070 C2069 1.523 . S
H2071 C2046 0.950 . S
H2072 C2048 0.950 . S
H2073 C2049 0.949 . S
H2074 C2051 0.950 . S
H2075 C2053 0.950 . S
C2076 C2077 1.349 . S
C2076 C2078 1.327 . S
C2076 H2101 0.950 . S
C2077 C2076 1.349 . S
C2077 C2093 1.349 . S
C2078 C2076 1.327 . S
C2078 C2097 1.429 . S
C2078 H2102 0.950 . S
C2079 C2096 1.574 . S
C2079 C2098 1.368 . S
C2079 H2103 0.949 . S
H2080 C2084 0.949 . S
C2081 C2082 1.349 . S
C2081 C2083 1.327 . S
C2081 H2104 0.950 . S
C2082 C2081 1.349 . S
C2082 C2094 1.349 . S
C2083 C2081 1.327 . S
C2083 C2099 1.429 . S
C2083 H2105 0.950 . S
C2084 H2080 0.949 . S
C2084 C2092 1.574 . S
C2084 C2100 1.368 . S
H2085 C2093 0.950 . S
H2086 C2091 0.950 . S
H2087 C2092 0.949 . S
H2088 C2094 0.950 . S
H2089 C2095 0.950 . S
H2090 C2096 0.949 . S
C2091 H2086 0.950 . S
C2091 C2093 1.327 . S
C2091 C2097 1.429 . S
C2092 C2084 1.574 . S
C2092 H2087 0.949 . S
C2092 C2098 1.368 . S
C2093 C2077 1.349 . S
C2093 H2085 0.950 . S
C2093 C2091 1.327 . S
C2094 C2082 1.349 . S
C2094 H2088 0.950 . S
C2094 C2095 1.327 . S
C2095 H2089 0.950 . S
C2095 C2094 1.327 . S
C2095 C2099 1.429 . S
C2096 C2079 1.574 . S
C2096 H2090 0.949 . S
C2096 C2100 1.368 . S
C2097 C2078 1.429 . S
C2097 C2091 1.429 . S
C2097 C2098 1.523 . S
C2098 C2079 1.368 . S
C2098 C2092 1.368 . S
C2098 C2097 1.523 . S
C2099 C2083 1.429 . S
C2099 C2095 1.429 . S
C2099 C2100 1.523 . S
C2100 C2084 1.368 . S
C2100 C2096 1.368 . S
C2100 C2099 1.523 . S
H2101 C2076 0.950 . S
H2102 C2078 0.950 . S
H2103 C2079 0.949 . S
H2104 C2081 0.950 . S
H2105 C2083 0.950 . S
C2106 C2107 1.349 . S
C2106 C2108 1.327 . S
C2106 H2131 0.950 . S
C2107 C2106 1.349 . S
C2107 C2123 1.349 . S
C2108 C2106 1.327 . S
C2108 C2127 1.429 . S
C2108 H2132 0.950 . S
C2109 C2126 1.574 . S
C2109 C2128 1.368 . S
C2109 H2133 0.949 . S
H2110 C2114 0.949 . S
C2111 C2112 1.349 . S
C2111 C2113 1.327 . S
C2111 H2134 0.950 . S
C2112 C2111 1.349 . S
C2112 C2124 1.349 . S
C2113 C2111 1.327 . S
C2113 C2129 1.429 . S
C2113 H2135 0.950 . S
C2114 H2110 0.949 . S
C2114 C2122 1.574 . S
C2114 C2130 1.368 . S
H2115 C2123 0.950 . S
H2116 C2121 0.950 . S
H2117 C2122 0.949 . S
H2118 C2124 0.950 . S
H2119 C2125 0.950 . S
H2120 C2126 0.949 . S
C2121 H2116 0.950 . S
C2121 C2123 1.327 . S
C2121 C2127 1.429 . S
C2122 C2114 1.574 . S
C2122 H2117 0.949 . S
C2122 C2128 1.368 . S
C2123 C2107 1.349 . S
C2123 H2115 0.950 . S
C2123 C2121 1.327 . S
C2124 C2112 1.349 . S
C2124 H2118 0.950 . S
C2124 C2125 1.327 . S
C2125 H2119 0.950 . S
C2125 C2124 1.327 . S
C2125 C2129 1.429 . S
C2126 C2109 1.574 . S
C2126 H2120 0.949 . S
C2126 C2130 1.368 . S
C2127 C2108 1.429 . S
C2127 C2121 1.429 . S
C2127 C2128 1.523 . S
C2128 C2109 1.368 . S
C2128 C2122 1.368 . S
C2128 C2127 1.523 . S
C2129 C2113 1.429 . S
C2129 C2125 1.429 . S
C2129 C2130 1.523 . S
C2130 C2114 1.368 . S
C2130 C2126 1.368 . S
C2130 C2129 1.523 . S
H2131 C2106 0.950 . S
H2132 C2108 0.950 . S
H2133 C2109 0.949 . S
H2134 C2111 0.950 . S
H2135 C2113 0.950 . S
C2136 C2137 1.349 . S
C2136 C2138 1.327 . S
C2136 H2161 0.950 . S
C2137 C2136 1.349 . S
C2137 C2153 1.349 . S
C2138 C2136 1.327 . S
C2138 C2157 1.429 . S
C2138 H2162 0.950 . S
C2139 C2156 1.574 . S
C2139 C2158 1.368 . S
C2139 H2163 0.949 . S
H2140 C2144 0.949 . S
C2141 C2142 1.349 . S
C2141 C2143 1.327 . S
C2141 H2164 0.950 . S
C2142 C2141 1.349 . S
C2142 C2154 1.349 . S
C2143 C2141 1.327 . S
C2143 C2159 1.429 . S
C2143 H2165 0.950 . S
C2144 H2140 0.949 . S
C2144 C2152 1.574 . S
C2144 C2160 1.368 . S
H2145 C2153 0.950 . S
H2146 C2151 0.950 . S
H2147 C2152 0.949 . S
H2148 C2154 0.950 . S
H2149 C2155 0.950 . S
H2150 C2156 0.949 . S
C2151 H2146 0.950 . S
C2151 C2153 1.327 . S
C2151 C2157 1.429 . S
C2152 C2144 1.574 . S
C2152 H2147 0.949 . S
C2152 C2158 1.368 . S
C2153 C2137 1.349 . S
C2153 H2145 0.950 . S
C2153 C2151 1.327 . S
C2154 C2142 1.349 . S
C2154 H2148 0.950 . S
C2154 C2155 1.327 . S
C2155 H2149 0.950 . S
C2155 C2154 1.327 . S
C2155 C2159 1.429 . S
C2156 C2139 1.574 . S
C2156 H2150 0.949 . S
C2156 C2160 1.368 . S
C2157 C2138 1.429 . S
C2157 C2151 1.429 . S
C2157 C2158 1.523 . S
C2158 C2139 1.368 . S
C2158 C2152 1.368 . S
C2158 C2157 1.523 . S
C2159 C2143 1.429 . S
C2159 C2155 1.429 . S
C2159 C2160 1.523 . S
C2160 C2144 1.368 . S
C2160 C2156 1.368 . S
C2160 C2159 1.523 . S
H2161 C2136 0.950 . S
H2162 C2138 0.950 . S
H2163 C2139 0.949 . S
H2164 C2141 0.950 . S
H2165 C2143 0.950 . S
C2166 C2167 1.349 . S
C2166 C2168 1.327 . S
C2166 H2191 0.950 . S
C2167 C2166 1.349 . S
C2167 C2183 1.349 . S
C2168 C2166 1.327 . S
C2168 C2187 1.429 . S
C2168 H2192 0.950 . S
C2169 C2186 1.574 . S
C2169 C2188 1.368 . S
C2169 H2193 0.949 . S
H2170 C2174 0.949 . S
C2171 C2172 1.349 . S
C2171 C2173 1.327 . S
C2171 H2194 0.950 . S
C2172 C2171 1.349 . S
C2172 C2184 1.349 . S
C2173 C2171 1.327 . S
C2173 C2189 1.429 . S
C2173 H2195 0.950 . S
C2174 H2170 0.949 . S
C2174 C2182 1.574 . S
C2174 C2190 1.368 . S
H2175 C2183 0.950 . S
H2176 C2181 0.950 . S
H2177 C2182 0.949 . S
H2178 C2184 0.950 . S
H2179 C2185 0.950 . S
H2180 C2186 0.949 . S
C2181 H2176 0.950 . S
C2181 C2183 1.327 . S
C2181 C2187 1.429 . S
C2182 C2174 1.574 . S
C2182 H2177 0.949 . S
C2182 C2188 1.368 . S
C2183 C2167 1.349 . S
C2183 H2175 0.950 . S
C2183 C2181 1.327 . S
C2184 C2172 1.349 . S
C2184 H2178 0.950 . S
C2184 C2185 1.327 . S
C2185 H2179 0.950 . S
C2185 C2184 1.327 . S
C2185 C2189 1.429 . S
C2186 C2169 1.574 . S
C2186 H2180 0.949 . S
C2186 C2190 1.368 . S
C2187 C2168 1.429 . S
C2187 C2181 1.429 . S
C2187 C2188 1.523 . S
C2188 C2169 1.368 . S
C2188 C2182 1.368 . S
C2188 C2187 1.523 . S
C2189 C2173 1.429 . S
C2189 C2185 1.429 . S
C2189 C2190 1.523 . S
C2190 C2174 1.368 . S
C2190 C2186 1.368 . S
C2190 C2189 1.523 . S
H2191 C2166 0.950 . S
H2192 C2168 0.950 . S
H2193 C2169 0.949 . S
H2194 C2171 0.950 . S
H2195 C2173 0.950 . S
C2196 C2197 1.349 . S
C2196 C2198 1.327 . S
C2196 H2221 0.950 . S
C2197 C2196 1.349 . S
C2197 C2213 1.349 . S
C2198 C2196 1.327 . S
C2198 C2217 1.429 . S
C2198 H2222 0.950 . S
C2199 C2216 1.574 . S
C2199 C2218 1.368 . S
C2199 H2223 0.949 . S
H2200 C2204 0.949 1_554 S
C2201 C2202 1.349 . S
C2201 C2203 1.327 . S
C2201 H2224 0.950 . S
C2202 C2201 1.349 . S
C2202 C2214 1.349 . S
C2203 C2201 1.327 . S
C2203 C2219 1.429 . S
C2203 H2225 0.950 . S
C2204 H2200 0.949 1_556 S
C2204 C2212 1.574 . S
C2204 C2220 1.373 . S
H2205 C2213 0.950 . S
H2206 C2211 0.950 . S
H2207 C2212 0.949 . S
H2208 C2214 0.950 . S
H2209 C2215 0.950 . S
H2210 C2216 0.949 . S
C2211 H2206 0.950 . S
C2211 C2213 1.327 . S
C2211 C2217 1.429 . S
C2212 C2204 1.574 . S
C2212 H2207 0.949 . S
C2212 C2218 1.368 . S
C2213 C2197 1.349 . S
C2213 H2205 0.950 . S
C2213 C2211 1.327 . S
C2214 C2202 1.349 . S
C2214 H2208 0.950 . S
C2214 C2215 1.327 . S
C2215 H2209 0.950 . S
C2215 C2214 1.327 . S
C2215 C2219 1.429 . S
C2216 C2199 1.574 . S
C2216 H2210 0.949 . S
C2216 C2220 1.397 . S
C2217 C2198 1.429 . S
C2217 C2211 1.429 . S
C2217 C2218 1.523 . S
C2218 C2199 1.368 . S
C2218 C2212 1.368 . S
C2218 C2217 1.523 . S
C2219 C2203 1.429 . S
C2219 C2215 1.429 . S
C2219 C2220 1.483 1_554 S
C2220 C2204 1.373 . S
C2220 C2216 1.397 . S
C2220 C2219 1.483 1_556 S
H2221 C2196 0.950 . S
H2222 C2198 0.950 . S
H2223 C2199 0.949 . S
H2224 C2201 0.950 . S
H2225 C2203 0.950 . S
C2226 C2227 1.349 . S
C2226 C2228 1.327 . S
C2226 H2251 0.950 . S
C2227 C2226 1.349 . S
C2227 C2243 1.349 . S
C2228 C2226 1.327 . S
C2228 C2247 1.429 . S
C2228 H2252 0.950 . S
C2229 C2246 1.574 . S
C2229 C2248 1.368 . S
C2229 H2253 0.949 . S
H2230 C2234 0.949 . S
C2231 C2232 1.349 . S
C2231 C2233 1.327 . S
C2231 H2254 0.950 . S
C2232 C2231 1.349 . S
C2232 C2244 1.349 . S
C2233 C2231 1.327 . S
C2233 C2249 1.429 . S
C2233 H2255 0.950 . S
C2234 H2230 0.949 . S
C2234 C2242 1.574 . S
C2234 C2250 1.368 . S
H2235 C2243 0.950 . S
H2236 C2241 0.950 . S
H2237 C2242 0.949 . S
H2238 C2244 0.950 . S
H2239 C2245 0.950 1_556 S
H2240 C2246 0.949 1_554 S
C2241 H2236 0.950 . S
C2241 C2243 1.327 . S
C2241 C2247 1.429 . S
C2242 C2234 1.574 . S
C2242 H2237 0.949 . S
C2242 C2248 1.368 . S
C2243 C2227 1.349 . S
C2243 H2235 0.950 . S
C2243 C2241 1.327 . S
C2244 C2232 1.349 . S
C2244 H2238 0.950 . S
C2244 C2245 1.327 . S
C2245 H2239 0.950 1_554 S
C2245 C2244 1.327 . S
C2245 C2249 1.429 . S
C2246 C2229 1.574 . S
C2246 H2240 0.949 1_556 S
C2246 C2250 1.368 . S
C2247 C2228 1.429 . S
C2247 C2241 1.429 . S
C2247 C2248 1.523 . S
C2248 C2229 1.368 . S
C2248 C2242 1.368 . S
C2248 C2247 1.523 . S
C2249 C2233 1.429 . S
C2249 C2245 1.429 . S
C2249 C2250 1.523 1_554 S
C2250 C2234 1.368 . S
C2250 C2246 1.368 . S
C2250 C2249 1.523 1_556 S
H2251 C2226 0.950 . S
H2252 C2228 0.950 . S
H2253 C2229 0.949 . S
H2254 C2231 0.950 . S
H2255 C2233 0.950 . S
C2256 C2257 1.349 . S
C2256 C2258 1.327 . S
C2256 H2281 0.950 . S
C2257 C2256 1.349 . S
C2257 C2273 1.349 . S
C2258 C2256 1.327 . S
C2258 C2277 1.429 . S
C2258 H2282 0.950 . S
C2259 C2276 1.574 . S
C2259 C2278 1.368 . S
C2259 H2283 0.949 . S
H2260 C2264 0.949 . S
C2261 C2262 1.349 . S
C2261 C2263 1.327 . S
C2261 H2284 0.950 . S
C2262 C2261 1.349 . S
C2262 C2274 1.349 . S
C2263 C2261 1.327 . S
C2263 C2279 1.429 . S
C2263 H2285 0.950 . S
C2264 H2260 0.949 . S
C2264 C2272 1.574 . S
C2264 C2280 1.368 1_556 S
H2265 C2273 0.950 . S
H2266 C2271 0.950 . S
H2267 C2272 0.949 . S
H2268 C2274 0.950 . S
H2269 C2275 0.950 . S
H2270 C2276 0.949 1_554 S
C2271 H2266 0.950 . S
C2271 C2273 1.327 . S
C2271 C2277 1.429 . S
C2272 C2264 1.574 . S
C2272 H2267 0.949 . S
C2272 C2278 1.368 . S
C2273 C2257 1.349 . S
C2273 H2265 0.950 . S
C2273 C2271 1.327 . S
C2274 C2262 1.349 . S
C2274 H2268 0.950 . S
C2274 C2275 1.327 . S
C2275 H2269 0.950 . S
C2275 C2274 1.327 . S
C2275 C2279 1.429 . S
C2276 C2259 1.574 . S
C2276 H2270 0.949 1_556 S
C2276 C2280 1.368 1_556 S
C2277 C2258 1.429 . S
C2277 C2271 1.429 . S
C2277 C2278 1.523 . S
C2278 C2259 1.368 . S
C2278 C2272 1.368 . S
C2278 C2277 1.523 . S
C2279 C2263 1.429 . S
C2279 C2275 1.429 . S
C2279 C2280 1.523 . S
C2280 C2264 1.368 1_554 S
C2280 C2276 1.368 1_554 S
C2280 C2279 1.523 . S
H2281 C2256 0.950 . S
H2282 C2258 0.950 . S
H2283 C2259 0.949 . S
H2284 C2261 0.950 . S
H2285 C2263 0.950 . S
C2286 C2287 1.349 . S
C2286 C2288 1.327 . S
C2286 H2311 0.950 . S
C2287 C2286 1.349 . S
C2287 C2303 1.349 . S
C2288 C2286 1.327 . S
C2288 C2307 1.429 . S
C2288 H2312 0.950 . S
C2289 C2306 1.574 . S
C2289 C2308 1.368 . S
C2289 H2313 0.949 . S
H2290 C2294 0.949 . S
C2291 C2292 1.349 . S
C2291 C2293 1.327 . S
C2291 H2314 0.950 . S
C2292 C2291 1.349 . S
C2292 C2304 1.349 . S
C2293 C2291 1.327 . S
C2293 C2309 1.429 . S
C2293 H2315 0.950 . S
C2294 H2290 0.949 . S
C2294 C2302 1.574 . S
C2294 C2310 1.368 . S
H2295 C2303 0.950 . S
H2296 C2301 0.950 . S
H2297 C2302 0.949 . S
H2298 C2304 0.950 . S
H2299 C2305 0.950 . S
H2300 C2306 0.949 . S
C2301 H2296 0.950 . S
C2301 C2303 1.327 . S
C2301 C2307 1.429 . S
C2302 C2294 1.574 . S
C2302 H2297 0.949 . S
C2302 C2308 1.368 . S
C2303 C2287 1.349 . S
C2303 H2295 0.950 . S
C2303 C2301 1.327 . S
C2304 C2292 1.349 . S
C2304 H2298 0.950 . S
C2304 C2305 1.327 . S
C2305 H2299 0.950 . S
C2305 C2304 1.327 . S
C2305 C2309 1.429 . S
C2306 C2289 1.574 . S
C2306 H2300 0.949 . S
C2306 C2310 1.368 . S
C2307 C2288 1.429 . S
C2307 C2301 1.429 . S
C2307 C2308 1.523 . S
C2308 C2289 1.368 . S
C2308 C2302 1.368 . S
C2308 C2307 1.523 . S
C2309 C2293 1.429 . S
C2309 C2305 1.429 . S
C2309 C2310 1.523 . S
C2310 C2294 1.368 . S
C2310 C2306 1.368 . S
C2310 C2309 1.523 . S
H2311 C2286 0.950 . S
H2312 C2288 0.950 . S
H2313 C2289 0.949 . S
H2314 C2291 0.950 . S
H2315 C2293 0.950 . S
C2316 C2317 1.349 . S
C2316 C2318 1.327 . S
C2316 H2341 0.950 . S
C2317 C2316 1.349 . S
C2317 C2333 1.349 . S
C2318 C2316 1.327 . S
C2318 C2337 1.429 . S
C2318 H2342 0.950 . S
C2319 C2336 1.574 . S
C2319 C2338 1.368 . S
C2319 H2343 0.949 . S
H2320 C2324 0.949 . S
C2321 C2322 1.349 . S
C2321 C2323 1.327 . S
C2321 H2344 0.950 . S
C2322 C2321 1.349 . S
C2322 C2334 1.349 . S
C2323 C2321 1.327 . S
C2323 C2339 1.429 . S
C2323 H2345 0.950 . S
C2324 H2320 0.949 . S
C2324 C2332 1.574 . S
C2324 C2340 1.368 . S
H2325 C2333 0.950 . S
H2326 C2331 0.950 . S
H2327 C2332 0.949 . S
H2328 C2334 0.950 . S
H2329 C2335 0.950 . S
H2330 C2336 0.949 . S
C2331 H2326 0.950 . S
C2331 C2333 1.327 . S
C2331 C2337 1.429 . S
C2332 C2324 1.574 . S
C2332 H2327 0.949 . S
C2332 C2338 1.368 . S
C2333 C2317 1.349 . S
C2333 H2325 0.950 . S
C2333 C2331 1.327 . S
C2334 C2322 1.349 . S
C2334 H2328 0.950 . S
C2334 C2335 1.327 . S
C2335 H2329 0.950 . S
C2335 C2334 1.327 . S
C2335 C2339 1.429 . S
C2336 C2319 1.574 . S
C2336 H2330 0.949 . S
C2336 C2340 1.368 . S
C2337 C2318 1.429 . S
C2337 C2331 1.429 . S
C2337 C2338 1.523 . S
C2338 C2319 1.368 . S
C2338 C2332 1.368 . S
C2338 C2337 1.523 . S
C2339 C2323 1.429 . S
C2339 C2335 1.429 . S
C2339 C2340 1.523 . S
C2340 C2324 1.368 . S
C2340 C2336 1.368 . S
C2340 C2339 1.523 . S
H2341 C2316 0.950 . S
H2342 C2318 0.950 . S
H2343 C2319 0.949 . S
H2344 C2321 0.950 . S
H2345 C2323 0.950 . S
C2346 C2347 1.349 . S
C2346 C2348 1.327 . S
C2346 H2371 0.950 . S
C2347 C2346 1.349 . S
C2347 C2363 1.349 . S
C2348 C2346 1.327 . S
C2348 C2367 1.429 . S
C2348 H2372 0.950 . S
C2349 C2366 1.574 . S
C2349 C2368 1.368 . S
C2349 H2373 0.949 . S
H2350 C2354 0.949 . S
C2351 C2352 1.349 . S
C2351 C2353 1.327 . S
C2351 H2374 0.950 . S
C2352 C2351 1.349 . S
C2352 C2364 1.349 . S
C2353 C2351 1.327 . S
C2353 C2369 1.429 . S
C2353 H2375 0.950 . S
C2354 H2350 0.949 . S
C2354 C2362 1.574 . S
C2354 C2370 1.368 . S
H2355 C2363 0.950 . S
H2356 C2361 0.950 . S
H2357 C2362 0.949 . S
H2358 C2364 0.950 . S
H2359 C2365 0.950 . S
H2360 C2366 0.949 . S
C2361 H2356 0.950 . S
C2361 C2363 1.327 . S
C2361 C2367 1.429 . S
C2362 C2354 1.574 . S
C2362 H2357 0.949 . S
C2362 C2368 1.368 . S
C2363 C2347 1.349 . S
C2363 H2355 0.950 . S
C2363 C2361 1.327 . S
C2364 C2352 1.349 . S
C2364 H2358 0.950 . S
C2364 C2365 1.327 . S
C2365 H2359 0.950 . S
C2365 C2364 1.327 . S
C2365 C2369 1.429 . S
C2366 C2349 1.574 . S
C2366 H2360 0.949 . S
C2366 C2370 1.368 . S
C2367 C2348 1.429 . S
C2367 C2361 1.429 . S
C2367 C2368 1.523 . S
C2368 C2349 1.368 . S
C2368 C2362 1.368 . S
C2368 C2367 1.523 . S
C2369 C2353 1.429 . S
C2369 C2365 1.429 . S
C2369 C2370 1.523 . S
C2370 C2354 1.368 . S
C2370 C2366 1.368 . S
C2370 C2369 1.523 . S
H2371 C2346 0.950 . S
H2372 C2348 0.950 . S
H2373 C2349 0.949 . S
H2374 C2351 0.950 . S
H2375 C2353 0.950 . S
C2376 C2377 1.349 . S
C2376 C2378 1.327 . S
C2376 H2401 0.950 . S
C2377 C2376 1.349 . S
C2377 C2393 1.349 . S
C2378 C2376 1.327 . S
C2378 C2397 1.429 . S
C2378 H2402 0.950 . S
C2379 C2396 1.574 . S
C2379 C2398 1.368 . S
C2379 H2403 0.949 . S
H2380 C2384 0.949 . S
C2381 C2382 1.349 . S
C2381 C2383 1.327 . S
C2381 H2404 0.950 . S
C2382 C2381 1.349 . S
C2382 C2394 1.349 . S
C2383 C2381 1.327 . S
C2383 C2399 1.429 . S
C2383 H2405 0.950 . S
C2384 H2380 0.949 . S
C2384 C2392 1.574 . S
C2384 C2400 1.368 . S
H2385 C2393 0.950 . S
H2386 C2391 0.950 . S
H2387 C2392 0.949 . S
H2388 C2394 0.950 . S
H2389 C2395 0.950 . S
H2390 C2396 0.949 . S
C2391 H2386 0.950 . S
C2391 C2393 1.327 . S
C2391 C2397 1.429 . S
C2392 C2384 1.574 . S
C2392 H2387 0.949 . S
C2392 C2398 1.368 . S
C2393 C2377 1.349 . S
C2393 H2385 0.950 . S
C2393 C2391 1.327 . S
C2394 C2382 1.349 . S
C2394 H2388 0.950 . S
C2394 C2395 1.327 . S
C2395 H2389 0.950 . S
C2395 C2394 1.327 . S
C2395 C2399 1.429 . S
C2396 C2379 1.574 . S
C2396 H2390 0.949 . S
C2396 C2400 1.368 . S
C2397 C2378 1.429 . S
C2397 C2391 1.429 . S
C2397 C2398 1.523 . S
C2398 C2379 1.368 . S
C2398 C2392 1.368 . S
C2398 C2397 1.523 . S
C2399 C2383 1.429 . S
C2399 C2395 1.429 . S
C2399 C2400 1.523 . S
C2400 C2384 1.368 . S
C2400 C2396 1.368 . S
C2400 C2399 1.523 . S
H2401 C2376 0.950 . S
H2402 C2378 0.950 . S
H2403 C2379 0.949 . S
H2404 C2381 0.950 . S
H2405 C2383 0.950 . S
C2406 C2407 1.349 . S
C2406 C2408 1.327 . S
C2406 H2431 0.950 . S
C2407 C2406 1.349 . S
C2407 C2423 1.349 . S
C2408 C2406 1.327 . S
C2408 C2427 1.429 . S
C2408 H2432 0.950 . S
C2409 C2426 1.574 . S
C2409 C2428 1.368 . S
C2409 H2433 0.949 . S
H2410 C2414 0.949 . S
C2411 C2412 1.349 . S
C2411 C2413 1.327 . S
C2411 H2434 0.950 . S
C2412 C2411 1.349 . S
C2412 C2424 1.349 . S
C2413 C2411 1.327 . S
C2413 C2429 1.429 . S
C2413 H2435 0.950 . S
C2414 H2410 0.949 . S
C2414 C2422 1.574 . S
C2414 C2430 1.368 . S
H2415 C2423 0.950 . S
H2416 C2421 0.950 . S
H2417 C2422 0.949 . S
H2418 C2424 0.950 . S
H2419 C2425 0.950 . S
H2420 C2426 0.949 . S
C2421 H2416 0.950 . S
C2421 C2423 1.327 . S
C2421 C2427 1.429 . S
C2422 C2414 1.574 . S
C2422 H2417 0.949 . S
C2422 C2428 1.368 . S
C2423 C2407 1.349 . S
C2423 H2415 0.950 . S
C2423 C2421 1.327 . S
C2424 C2412 1.349 . S
C2424 H2418 0.950 . S
C2424 C2425 1.327 . S
C2425 H2419 0.950 . S
C2425 C2424 1.327 . S
C2425 C2429 1.429 . S
C2426 C2409 1.574 . S
C2426 H2420 0.949 . S
C2426 C2430 1.368 . S
C2427 C2408 1.429 . S
C2427 C2421 1.429 . S
C2427 C2428 1.523 . S
C2428 C2409 1.368 . S
C2428 C2422 1.368 . S
C2428 C2427 1.523 . S
C2429 C2413 1.429 . S
C2429 C2425 1.429 . S
C2429 C2430 1.523 . S
C2430 C2414 1.368 . S
C2430 C2426 1.368 . S
C2430 C2429 1.523 . S
H2431 C2406 0.950 . S
H2432 C2408 0.950 . S
H2433 C2409 0.949 . S
H2434 C2411 0.950 . S
H2435 C2413 0.950 . S
C2436 C2437 1.349 . S
C2436 C2438 1.327 . S
C2436 H2461 0.950 . S
C2437 C2436 1.349 . S
C2437 C2453 1.349 . S
C2438 C2436 1.327 . S
C2438 C2457 1.429 . S
C2438 H2462 0.950 . S
C2439 C2456 1.574 . S
C2439 C2458 1.368 . S
C2439 H2463 0.949 . S
H2440 C2444 0.949 . S
C2441 C2442 1.349 . S
C2441 C2443 1.327 . S
C2441 H2464 0.950 . S
C2442 C2441 1.349 . S
C2442 C2454 1.349 . S
C2443 C2441 1.327 . S
C2443 C2459 1.429 . S
C2443 H2465 0.950 . S
C2444 H2440 0.949 . S
C2444 C2452 1.574 . S
C2444 C2460 1.368 . S
H2445 C2453 0.950 . S
H2446 C2451 0.950 . S
H2447 C2452 0.949 . S
H2448 C2454 0.950 . S
H2449 C2455 0.950 . S
H2450 C2456 0.949 . S
C2451 H2446 0.950 . S
C2451 C2453 1.327 . S
C2451 C2457 1.429 . S
C2452 C2444 1.574 . S
C2452 H2447 0.949 . S
C2452 C2458 1.368 . S
C2453 C2437 1.349 . S
C2453 H2445 0.950 . S
C2453 C2451 1.327 . S
C2454 C2442 1.349 . S
C2454 H2448 0.950 . S
C2454 C2455 1.327 . S
C2455 H2449 0.950 . S
C2455 C2454 1.327 . S
C2455 C2459 1.429 . S
C2456 C2439 1.574 . S
C2456 H2450 0.949 . S
C2456 C2460 1.368 . S
C2457 C2438 1.429 . S
C2457 C2451 1.429 . S
C2457 C2458 1.523 . S
C2458 C2439 1.368 . S
C2458 C2452 1.368 . S
C2458 C2457 1.523 . S
C2459 C2443 1.429 . S
C2459 C2455 1.429 . S
C2459 C2460 1.523 . S
C2460 C2444 1.368 . S
C2460 C2456 1.368 . S
C2460 C2459 1.523 . S
H2461 C2436 0.950 . S
H2462 C2438 0.950 . S
H2463 C2439 0.949 . S
H2464 C2441 0.950 . S
H2465 C2443 0.950 . S
C2466 C2467 1.349 . S
C2466 C2468 1.327 . S
C2466 H2491 0.950 . S
C2467 C2466 1.349 . S
C2467 C2483 1.349 . S
C2468 C2466 1.327 . S
C2468 C2487 1.429 . S
C2468 H2492 0.950 . S
C2469 C2486 1.574 . S
C2469 C2488 1.368 . S
C2469 H2493 0.949 . S
H2470 C2474 0.949 . S
C2471 C2472 1.349 . S
C2471 C2473 1.327 . S
C2471 H2494 0.950 . S
C2472 C2471 1.349 . S
C2472 C2484 1.349 . S
C2473 C2471 1.327 . S
C2473 C2489 1.429 . S
C2473 H2495 0.950 . S
C2474 H2470 0.949 . S
C2474 C2482 1.574 . S
C2474 C2490 1.368 . S
H2475 C2483 0.950 . S
H2476 C2481 0.950 . S
H2477 C2482 0.949 . S
H2478 C2484 0.950 . S
H2479 C2485 0.950 . S
H2480 C2486 0.949 . S
C2481 H2476 0.950 . S
C2481 C2483 1.327 . S
C2481 C2487 1.429 . S
C2482 C2474 1.574 . S
C2482 H2477 0.949 . S
C2482 C2488 1.368 . S
C2483 C2467 1.349 . S
C2483 H2475 0.950 . S
C2483 C2481 1.327 . S
C2484 C2472 1.349 . S
C2484 H2478 0.950 . S
C2484 C2485 1.327 . S
C2485 H2479 0.950 . S
C2485 C2484 1.327 . S
C2485 C2489 1.429 . S
C2486 C2469 1.574 . S
C2486 H2480 0.949 . S
C2486 C2490 1.368 . S
C2487 C2468 1.429 . S
C2487 C2481 1.429 . S
C2487 C2488 1.523 . S
C2488 C2469 1.368 . S
C2488 C2482 1.368 . S
C2488 C2487 1.523 . S
C2489 C2473 1.429 . S
C2489 C2485 1.429 . S
C2489 C2490 1.523 . S
C2490 C2474 1.368 . S
C2490 C2486 1.368 . S
C2490 C2489 1.523 . S
H2491 C2466 0.950 . S
H2492 C2468 0.950 . S
H2493 C2469 0.949 . S
H2494 C2471 0.950 . S
H2495 C2473 0.950 . S
C2496 C2497 1.349 . S
C2496 C2498 1.327 . S
C2496 H2521 0.950 . S
C2497 C2496 1.349 . S
C2497 C2513 1.349 . S
C2498 C2496 1.327 . S
C2498 C2517 1.429 . S
C2498 H2522 0.950 . S
C2499 C2516 1.574 . S
C2499 C2518 1.368 . S
C2499 H2523 0.949 . S
H2500 C2504 0.949 . S
C2501 C2502 1.349 . S
C2501 C2503 1.327 . S
C2501 H2524 0.950 . S
C2502 C2501 1.349 . S
C2502 C2514 1.349 . S
C2503 C2501 1.327 . S
C2503 C2519 1.429 . S
C2503 H2525 0.950 . S
C2504 H2500 0.949 . S
C2504 C2512 1.574 . S
C2504 C2520 1.368 . S
H2505 C2513 0.950 . S
H2506 C2511 0.950 . S
H2507 C2512 0.949 . S
H2508 C2514 0.950 . S
H2509 C2515 0.950 . S
H2510 C2516 0.949 . S
C2511 H2506 0.950 . S
C2511 C2513 1.327 . S
C2511 C2517 1.429 . S
C2512 C2504 1.574 . S
C2512 H2507 0.949 . S
C2512 C2518 1.368 . S
C2513 C2497 1.349 . S
C2513 H2505 0.950 . S
C2513 C2511 1.327 . S
C2514 C2502 1.349 . S
C2514 H2508 0.950 . S
C2514 C2515 1.327 . S
C2515 H2509 0.950 . S
C2515 C2514 1.327 . S
C2515 C2519 1.429 . S
C2516 C2499 1.574 . S
C2516 H2510 0.949 . S
C2516 C2520 1.368 . S
C2517 C2498 1.429 . S
C2517 C2511 1.429 . S
C2517 C2518 1.523 . S
C2518 C2499 1.368 . S
C2518 C2512 1.368 . S
C2518 C2517 1.523 . S
C2519 C2503 1.429 . S
C2519 C2515 1.429 . S
C2519 C2520 1.523 . S
C2520 C2504 1.368 . S
C2520 C2516 1.368 . S
C2520 C2519 1.523 . S
H2521 C2496 0.950 . S
H2522 C2498 0.950 . S
H2523 C2499 0.949 . S
H2524 C2501 0.950 . S
H2525 C2503 0.950 . S
C2526 C2527 1.349 . S
C2526 C2528 1.327 . S
C2526 H2551 0.950 . S
C2527 C2526 1.349 . S
C2527 C2543 1.349 . S
C2528 C2526 1.327 . S
C2528 C2547 1.429 . S
C2528 H2552 0.950 . S
C2529 C2546 1.574 . S
C2529 C2548 1.368 . S
C2529 H2553 0.949 . S
H2530 C2534 0.949 . S
C2531 C2532 1.349 . S
C2531 C2533 1.327 . S
C2531 H2554 0.950 . S
C2532 C2531 1.349 . S
C2532 C2544 1.349 . S
C2533 C2531 1.327 . S
C2533 C2549 1.429 . S
C2533 H2555 0.950 . S
C2534 H2530 0.949 . S
C2534 C2542 1.574 . S
C2534 C2550 1.368 . S
H2535 C2543 0.950 . S
H2536 C2541 0.950 . S
H2537 C2542 0.949 . S
H2538 C2544 0.950 . S
H2539 C2545 0.950 . S
H2540 C2546 0.949 . S
C2541 H2536 0.950 . S
C2541 C2543 1.327 . S
C2541 C2547 1.429 . S
C2542 C2534 1.574 . S
C2542 H2537 0.949 . S
C2542 C2548 1.368 . S
C2543 C2527 1.349 . S
C2543 H2535 0.950 . S
C2543 C2541 1.327 . S
C2544 C2532 1.349 . S
C2544 H2538 0.950 . S
C2544 C2545 1.327 . S
C2545 H2539 0.950 . S
C2545 C2544 1.327 . S
C2545 C2549 1.429 . S
C2546 C2529 1.574 . S
C2546 H2540 0.949 . S
C2546 C2550 1.368 . S
C2547 C2528 1.429 . S
C2547 C2541 1.429 . S
C2547 C2548 1.523 . S
C2548 C2529 1.368 . S
C2548 C2542 1.368 . S
C2548 C2547 1.523 . S
C2549 C2533 1.429 . S
C2549 C2545 1.429 . S
C2549 C2550 1.523 . S
C2550 C2534 1.368 . S
C2550 C2546 1.368 . S
C2550 C2549 1.523 . S
H2551 C2526 0.950 . S
H2552 C2528 0.950 . S
H2553 C2529 0.949 . S
H2554 C2531 0.950 . S
H2555 C2533 0.950 . S
C2556 C2557 1.349 . S
C2556 C2558 1.327 . S
C2556 H2581 0.950 . S
C2557 C2556 1.349 . S
C2557 C2573 1.349 . S
C2558 C2556 1.327 . S
C2558 C2577 1.429 . S
C2558 H2582 0.950 . S
C2559 C2576 1.574 . S
C2559 C2578 1.368 . S
C2559 H2583 0.949 . S
H2560 C2564 0.949 . S
C2561 C2562 1.349 . S
C2561 C2563 1.327 . S
C2561 H2584 0.950 . S
C2562 C2561 1.349 . S
C2562 C2574 1.349 . S
C2563 C2561 1.327 . S
C2563 C2579 1.429 . S
C2563 H2585 0.950 . S
C2564 H2560 0.949 . S
C2564 C2572 1.574 . S
C2564 C2580 1.368 . S
H2565 C2573 0.950 . S
H2566 C2571 0.950 . S
H2567 C2572 0.949 . S
H2568 C2574 0.950 . S
H2569 C2575 0.950 . S
H2570 C2576 0.949 . S
C2571 H2566 0.950 . S
C2571 C2573 1.327 . S
C2571 C2577 1.429 . S
C2572 C2564 1.574 . S
C2572 H2567 0.949 . S
C2572 C2578 1.368 . S
C2573 C2557 1.349 . S
C2573 H2565 0.950 . S
C2573 C2571 1.327 . S
C2574 C2562 1.349 . S
C2574 H2568 0.950 . S
C2574 C2575 1.327 . S
C2575 H2569 0.950 . S
C2575 C2574 1.327 . S
C2575 C2579 1.429 . S
C2576 C2559 1.574 . S
C2576 H2570 0.949 . S
C2576 C2580 1.368 . S
C2577 C2558 1.429 . S
C2577 C2571 1.429 . S
C2577 C2578 1.523 . S
C2578 C2559 1.368 . S
C2578 C2572 1.368 . S
C2578 C2577 1.523 . S
C2579 C2563 1.429 . S
C2579 C2575 1.429 . S
C2579 C2580 1.523 . S
C2580 C2564 1.368 . S
C2580 C2576 1.368 . S
C2580 C2579 1.523 . S
H2581 C2556 0.950 . S
H2582 C2558 0.950 . S
H2583 C2559 0.949 . S
H2584 C2561 0.950 . S
H2585 C2563 0.950 . S
C2586 C2587 1.349 . S
C2586 C2588 1.327 . S
C2586 H2611 0.950 . S
C2587 C2586 1.349 . S
C2587 C2603 1.349 . S
C2588 C2586 1.327 . S
C2588 C2607 1.429 . S
C2588 H2612 0.950 . S
C2589 C2606 1.574 . S
C2589 C2608 1.368 . S
C2589 H2613 0.949 . S
H2590 C2594 0.949 . S
C2591 C2592 1.349 . S
C2591 C2593 1.327 . S
C2591 H2614 0.950 . S
C2592 C2591 1.349 . S
C2592 C2604 1.349 . S
C2593 C2591 1.327 . S
C2593 C2609 1.429 . S
C2593 H2615 0.950 . S
C2594 H2590 0.949 . S
C2594 C2602 1.574 . S
C2594 C2610 1.368 . S
H2595 C2603 0.950 . S
H2596 C2601 0.950 . S
H2597 C2602 0.949 . S
H2598 C2604 0.950 . S
H2599 C2605 0.950 . S
H2600 C2606 0.949 . S
C2601 H2596 0.950 . S
C2601 C2603 1.327 . S
C2601 C2607 1.429 . S
C2602 C2594 1.574 . S
C2602 H2597 0.949 . S
C2602 C2608 1.368 . S
C2603 C2587 1.349 . S
C2603 H2595 0.950 . S
C2603 C2601 1.327 . S
C2604 C2592 1.349 . S
C2604 H2598 0.950 . S
C2604 C2605 1.327 . S
C2605 H2599 0.950 . S
C2605 C2604 1.327 . S
C2605 C2609 1.429 . S
C2606 C2589 1.574 . S
C2606 H2600 0.949 . S
C2606 C2610 1.368 . S
C2607 C2588 1.429 . S
C2607 C2601 1.429 . S
C2607 C2608 1.523 . S
C2608 C2589 1.368 . S
C2608 C2602 1.368 . S
C2608 C2607 1.523 . S
C2609 C2593 1.429 . S
C2609 C2605 1.429 . S
C2609 C2610 1.523 . S
C2610 C2594 1.368 . S
C2610 C2606 1.368 . S
C2610 C2609 1.523 . S
H2611 C2586 0.950 . S
H2612 C2588 0.950 . S
H2613 C2589 0.949 . S
H2614 C2591 0.950 . S
H2615 C2593 0.950 . S
C2616 C2617 1.349 . S
C2616 C2618 1.327 . S
C2616 H2641 0.950 . S
C2617 C2616 1.349 . S
C2617 C2633 1.349 . S
C2618 C2616 1.327 . S
C2618 C2637 1.429 . S
C2618 H2642 0.950 . S
C2619 C2636 1.574 . S
C2619 C2638 1.368 . S
C2619 H2643 0.949 . S
H2620 C2624 0.949 . S
C2621 C2622 1.349 . S
C2621 C2623 1.327 . S
C2621 H2644 0.950 . S
C2622 C2621 1.349 . S
C2622 C2634 1.349 . S
C2623 C2621 1.327 . S
C2623 C2639 1.429 . S
C2623 H2645 0.950 . S
C2624 H2620 0.949 . S
C2624 C2632 1.574 . S
C2624 C2640 1.368 . S
H2625 C2633 0.950 . S
H2626 C2631 0.950 . S
H2627 C2632 0.949 . S
H2628 C2634 0.950 . S
H2629 C2635 0.950 . S
H2630 C2636 0.949 . S
C2631 H2626 0.950 . S
C2631 C2633 1.327 . S
C2631 C2637 1.429 . S
C2632 C2624 1.574 . S
C2632 H2627 0.949 . S
C2632 C2638 1.368 . S
C2633 C2617 1.349 . S
C2633 H2625 0.950 . S
C2633 C2631 1.327 . S
C2634 C2622 1.349 . S
C2634 H2628 0.950 . S
C2634 C2635 1.327 . S
C2635 H2629 0.950 . S
C2635 C2634 1.327 . S
C2635 C2639 1.429 . S
C2636 C2619 1.574 . S
C2636 H2630 0.949 . S
C2636 C2640 1.368 . S
C2637 C2618 1.429 . S
C2637 C2631 1.429 . S
C2637 C2638 1.523 . S
C2638 C2619 1.368 . S
C2638 C2632 1.368 . S
C2638 C2637 1.523 . S
C2639 C2623 1.429 . S
C2639 C2635 1.429 . S
C2639 C2640 1.523 . S
C2640 C2624 1.368 . S
C2640 C2636 1.368 . S
C2640 C2639 1.523 . S
H2641 C2616 0.950 . S
H2642 C2618 0.950 . S
H2643 C2619 0.949 . S
H2644 C2621 0.950 . S
H2645 C2623 0.950 . S
C2646 C2647 1.349 . S
C2646 C2648 1.327 . S
C2646 H2671 0.950 . S
C2647 C2646 1.349 . S
C2647 C2663 1.349 . S
C2648 C2646 1.327 . S
C2648 C2667 1.429 . S
C2648 H2672 0.950 . S
C2649 C2666 1.574 . S
C2649 C2668 1.368 . S
C2649 H2673 0.949 . S
H2650 C2654 0.949 . S
C2651 C2652 1.349 . S
C2651 C2653 1.327 . S
C2651 H2674 0.950 . S
C2652 C2651 1.349 . S
C2652 C2664 1.349 . S
C2653 C2651 1.327 . S
C2653 C2669 1.429 . S
C2653 H2675 0.950 . S
C2654 H2650 0.949 . S
C2654 C2662 1.574 . S
C2654 C2670 1.368 . S
H2655 C2663 0.950 . S
H2656 C2661 0.950 . S
H2657 C2662 0.949 . S
H2658 C2664 0.950 . S
H2659 C2665 0.950 . S
H2660 C2666 0.949 . S
C2661 H2656 0.950 . S
C2661 C2663 1.327 . S
C2661 C2667 1.429 . S
C2662 C2654 1.574 . S
C2662 H2657 0.949 . S
C2662 C2668 1.368 . S
C2663 C2647 1.349 . S
C2663 H2655 0.950 . S
C2663 C2661 1.327 . S
C2664 C2652 1.349 . S
C2664 H2658 0.950 . S
C2664 C2665 1.327 . S
C2665 H2659 0.950 . S
C2665 C2664 1.327 . S
C2665 C2669 1.429 . S
C2666 C2649 1.574 . S
C2666 H2660 0.949 . S
C2666 C2670 1.368 . S
C2667 C2648 1.429 . S
C2667 C2661 1.429 . S
C2667 C2668 1.523 . S
C2668 C2649 1.368 . S
C2668 C2662 1.368 . S
C2668 C2667 1.523 . S
C2669 C2653 1.429 . S
C2669 C2665 1.429 . S
C2669 C2670 1.523 . S
C2670 C2654 1.368 . S
C2670 C2666 1.368 . S
C2670 C2669 1.523 . S
H2671 C2646 0.950 . S
H2672 C2648 0.950 . S
H2673 C2649 0.949 . S
H2674 C2651 0.950 . S
H2675 C2653 0.950 . S
C2676 C2677 1.349 . S
C2676 C2678 1.327 . S
C2676 H2701 0.950 . S
C2677 C2676 1.349 . S
C2677 C2693 1.349 . S
C2678 C2676 1.327 . S
C2678 C2697 1.429 . S
C2678 H2702 0.950 . S
C2679 C2696 1.574 . S
C2679 C2698 1.368 . S
C2679 H2703 0.949 . S
H2680 C2684 0.949 . S
C2681 C2682 1.349 . S
C2681 C2683 1.327 . S
C2681 H2704 0.950 . S
C2682 C2681 1.349 . S
C2682 C2694 1.349 . S
C2683 C2681 1.327 . S
C2683 C2699 1.429 . S
C2683 H2705 0.950 . S
C2684 H2680 0.949 . S
C2684 C2692 1.574 . S
C2684 C2700 1.368 . S
H2685 C2693 0.950 . S
H2686 C2691 0.950 . S
H2687 C2692 0.949 . S
H2688 C2694 0.950 . S
H2689 C2695 0.950 . S
H2690 C2696 0.949 . S
C2691 H2686 0.950 . S
C2691 C2693 1.327 . S
C2691 C2697 1.429 . S
C2692 C2684 1.574 . S
C2692 H2687 0.949 . S
C2692 C2698 1.368 . S
C2693 C2677 1.349 . S
C2693 H2685 0.950 . S
C2693 C2691 1.327 . S
C2694 C2682 1.349 . S
C2694 H2688 0.950 . S
C2694 C2695 1.327 . S
C2695 H2689 0.950 . S
C2695 C2694 1.327 . S
C2695 C2699 1.429 . S
C2696 C2679 1.574 . S
C2696 H2690 0.949 . S
C2696 C2700 1.368 . S
C2697 C2678 1.429 . S
C2697 C2691 1.429 . S
C2697 C2698 1.523 . S
C2698 C2679 1.368 . S
C2698 C2692 1.368 . S
C2698 C2697 1.523 . S
C2699 C2683 1.429 . S
C2699 C2695 1.429 . S
C2699 C2700 1.523 . S
C2700 C2684 1.368 . S
C2700 C2696 1.368 . S
C2700 C2699 1.523 . S
H2701 C2676 0.950 . S
H2702 C2678 0.950 . S
H2703 C2679 0.949 . S
H2704 C2681 0.950 . S
H2705 C2683 0.950 . S
C2706 C2707 1.349 . S
C2706 C2708 1.327 . S
C2706 H2731 0.950 . S
C2707 C2706 1.349 . S
C2707 C2723 1.349 . S
C2708 C2706 1.327 . S
C2708 C2727 1.429 . S
C2708 H2732 0.950 . S
C2709 C2726 1.574 . S
C2709 C2728 1.368 . S
C2709 H2733 0.949 . S
H2710 C2714 0.949 . S
C2711 C2712 1.349 . S
C2711 C2713 1.327 . S
C2711 H2734 0.950 . S
C2712 C2711 1.349 . S
C2712 C2724 1.349 . S
C2713 C2711 1.327 . S
C2713 C2729 1.429 . S
C2713 H2735 0.950 . S
C2714 H2710 0.949 . S
C2714 C2722 1.574 . S
C2714 C2730 1.368 . S
H2715 C2723 0.950 . S
H2716 C2721 0.950 . S
H2717 C2722 0.949 . S
H2718 C2724 0.950 . S
H2719 C2725 0.950 . S
H2720 C2726 0.949 . S
C2721 H2716 0.950 . S
C2721 C2723 1.327 . S
C2721 C2727 1.429 . S
C2722 C2714 1.574 . S
C2722 H2717 0.949 . S
C2722 C2728 1.368 . S
C2723 C2707 1.349 . S
C2723 H2715 0.950 . S
C2723 C2721 1.327 . S
C2724 C2712 1.349 . S
C2724 H2718 0.950 . S
C2724 C2725 1.327 . S
C2725 H2719 0.950 . S
C2725 C2724 1.327 . S
C2725 C2729 1.429 . S
C2726 C2709 1.574 . S
C2726 H2720 0.949 . S
C2726 C2730 1.368 . S
C2727 C2708 1.429 . S
C2727 C2721 1.429 . S
C2727 C2728 1.523 . S
C2728 C2709 1.368 . S
C2728 C2722 1.368 . S
C2728 C2727 1.523 . S
C2729 C2713 1.429 . S
C2729 C2725 1.429 . S
C2729 C2730 1.523 . S
C2730 C2714 1.368 . S
C2730 C2726 1.368 . S
C2730 C2729 1.523 . S
H2731 C2706 0.950 . S
H2732 C2708 0.950 . S
H2733 C2709 0.949 . S
H2734 C2711 0.950 . S
H2735 C2713 0.950 . S
C2736 C2737 1.349 . S
C2736 C2738 1.327 . S
C2736 H2761 0.950 . S
C2737 C2736 1.349 . S
C2737 C2753 1.349 . S
C2738 C2736 1.327 . S
C2738 C2757 1.429 . S
C2738 H2762 0.950 . S
C2739 C2756 1.574 . S
C2739 C2758 1.368 . S
C2739 H2763 0.949 . S
H2740 C2744 0.949 . S
C2741 C2742 1.349 . S
C2741 C2743 1.327 . S
C2741 H2764 0.950 . S
C2742 C2741 1.349 . S
C2742 C2754 1.349 . S
C2743 C2741 1.327 . S
C2743 C2759 1.429 1_556 S
C2743 H2765 0.950 . S
C2744 H2740 0.949 . S
C2744 C2752 1.574 . S
C2744 C2760 1.368 . S
H2745 C2753 0.950 . S
H2746 C2751 0.950 . S
H2747 C2752 0.949 . S
H2748 C2754 0.950 . S
H2749 C2755 0.950 . S
H2750 C2756 0.949 . S
C2751 H2746 0.950 . S
C2751 C2753 1.327 . S
C2751 C2757 1.429 . S
C2752 C2744 1.574 . S
C2752 H2747 0.949 . S
C2752 C2758 1.368 . S
C2753 C2737 1.349 . S
C2753 H2745 0.950 . S
C2753 C2751 1.327 . S
C2754 C2742 1.349 . S
C2754 H2748 0.950 . S
C2754 C2755 1.327 1_556 S
C2755 H2749 0.950 . S
C2755 C2754 1.327 1_554 S
C2755 C2759 1.429 . S
C2756 C2739 1.574 . S
C2756 H2750 0.949 . S
C2756 C2760 1.368 . S
C2757 C2738 1.429 . S
C2757 C2751 1.429 . S
C2757 C2758 1.523 . S
C2758 C2739 1.368 . S
C2758 C2752 1.368 . S
C2758 C2757 1.523 . S
C2759 C2743 1.429 1_554 S
C2759 C2755 1.429 . S
C2759 C2760 1.523 . S
C2760 C2744 1.368 . S
C2760 C2756 1.368 . S
C2760 C2759 1.523 . S
H2761 C2736 0.950 . S
H2762 C2738 0.950 . S
H2763 C2739 0.949 . S
H2764 C2741 0.950 . S
H2765 C2743 0.950 . S
C2766 C2767 1.349 . S
C2766 C2768 1.327 . S
C2766 H2791 0.950 . S
C2767 C2766 1.349 . S
C2767 C2783 1.349 . S
C2768 C2766 1.327 . S
C2768 C2787 1.429 . S
C2768 H2792 0.950 . S
C2769 C2786 1.574 . S
C2769 C2788 1.368 . S
C2769 H2793 0.949 . S
H2770 C2774 0.949 . S
C2771 C2772 1.349 1_554 S
C2771 C2773 1.327 . S
C2771 H2794 0.950 . S
C2772 C2771 1.349 1_556 S
C2772 C2784 1.349 . S
C2773 C2771 1.327 . S
C2773 C2789 1.429 . S
C2773 H2795 0.950 . S
C2774 H2770 0.949 . S
C2774 C2782 1.574 . S
C2774 C2790 1.368 . S
H2775 C2783 0.950 . S
H2776 C2781 0.950 . S
H2777 C2782 0.949 . S
H2778 C2784 0.950 . S
H2779 C2785 0.950 . S
H2780 C2786 0.949 . S
C2781 H2776 0.950 . S
C2781 C2783 1.327 . S
C2781 C2787 1.429 . S
C2782 C2774 1.574 . S
C2782 H2777 0.949 . S
C2782 C2788 1.368 . S
C2783 C2767 1.349 . S
C2783 H2775 0.950 . S
C2783 C2781 1.327 . S
C2784 C2772 1.349 . S
C2784 H2778 0.950 . S
C2784 C2785 1.327 1_556 S
C2785 H2779 0.950 . S
C2785 C2784 1.327 1_554 S
C2785 C2789 1.429 . S
C2786 C2769 1.574 . S
C2786 H2780 0.949 . S
C2786 C2790 1.368 . S
C2787 C2768 1.429 . S
C2787 C2781 1.429 . S
C2787 C2788 1.523 . S
C2788 C2769 1.368 . S
C2788 C2782 1.368 . S
C2788 C2787 1.523 . S
C2789 C2773 1.429 . S
C2789 C2785 1.429 . S
C2789 C2790 1.523 . S
C2790 C2774 1.368 . S
C2790 C2786 1.368 . S
C2790 C2789 1.523 . S
H2791 C2766 0.950 . S
H2792 C2768 0.950 . S
H2793 C2769 0.949 . S
H2794 C2771 0.950 . S
H2795 C2773 0.950 . S
C2796 C2797 1.349 . S
C2796 C2798 1.327 . S
C2796 H2821 0.950 . S
C2797 C2796 1.349 . S
C2797 C2813 1.349 . S
C2798 C2796 1.327 . S
C2798 C2817 1.429 . S
C2798 H2822 0.950 . S
C2799 C2816 1.574 . S
C2799 C2818 1.368 . S
C2799 H2823 0.949 . S
H2800 C2804 0.949 . S
C2801 C2802 1.349 . S
C2801 C2803 1.327 . S
C2801 H2824 0.950 . S
C2802 C2801 1.349 . S
C2802 C2814 1.349 . S
C2803 C2801 1.327 . S
C2803 C2819 1.429 1_556 S
C2803 H2825 0.950 . S
C2804 H2800 0.949 . S
C2804 C2812 1.574 . S
C2804 C2820 1.368 . S
H2805 C2813 0.950 . S
H2806 C2811 0.950 . S
H2807 C2812 0.949 . S
H2808 C2814 0.950 . S
H2809 C2815 0.950 . S
H2810 C2816 0.949 . S
C2811 H2806 0.950 . S
C2811 C2813 1.327 . S
C2811 C2817 1.429 . S
C2812 C2804 1.574 . S
C2812 H2807 0.949 . S
C2812 C2818 1.368 . S
C2813 C2797 1.349 . S
C2813 H2805 0.950 . S
C2813 C2811 1.327 . S
C2814 C2802 1.349 . S
C2814 H2808 0.950 . S
C2814 C2815 1.327 1_556 S
C2815 H2809 0.950 . S
C2815 C2814 1.327 1_554 S
C2815 C2819 1.429 . S
C2816 C2799 1.574 . S
C2816 H2810 0.949 . S
C2816 C2820 1.368 . S
C2817 C2798 1.429 . S
C2817 C2811 1.429 . S
C2817 C2818 1.523 . S
C2818 C2799 1.368 . S
C2818 C2812 1.368 . S
C2818 C2817 1.523 . S
C2819 C2803 1.429 1_554 S
C2819 C2815 1.429 . S
C2819 C2820 1.523 . S
C2820 C2804 1.368 . S
C2820 C2816 1.368 . S
C2820 C2819 1.523 . S
H2821 C2796 0.950 . S
H2822 C2798 0.950 . S
H2823 C2799 0.949 . S
H2824 C2801 0.950 . S
H2825 C2803 0.950 . S
C667 C7 1.438 . S
C672 C568 1.438 . S
C702 C545 1.817 . S
C697 C39 1.793 . S
C732 C554 1.580 . S
C727 C62 1.567 . S
C757 C76 1.830 . S
C762 C624 1.829 . S
C787 C108 1.512 . S
C792 C643 1.513 . S
C817 N117 1.375 . S
C822 C657 1.386 . S
C852 C619 1.421 . S
C847 C16 1.405 . S
C877 C30 1.839 . S
C882 C587 1.844 . S
C912 C605 1.536 . S
C907 C53 1.538 1_556 S
C937 C85 1.810 . S
C942 C507 1.806 . S
C972 C517 1.717 . S
C967 C99 1.708 . S
C997 N127 1.281 . S
C1002 C531 1.325 . S
C1027 N150 1.157 . S
C1032 C652 1.172 . S
C1062 C629 1.592 . S
C1057 N173 1.567 . S
C1092 C638 1.421 . S
C1087 C200 1.403 . S
C1117 C214 1.659 . S
C1122 C456 1.664 . S
C1147 N232 1.551 . S
C1152 C475 1.570 . S
C1177 C260 1.529 . S
C1182 C489 1.544 . S
C1212 C451 1.271 . S
C1207 N140 1.227 . S
C1237 N163 1.298 . S
C1242 C419 1.344 . S
C1272 C437 1.617 . S
C1267 C191 1.615 . S
C1302 C591 1.905 . S
C1297 C223 1.911 . S
C1332 C601 1.516 . S
C1327 N242 1.463 . S
C1362 C615 1.491 . S
C1357 C269 1.491 . S
C1387 N288 1.295 . S
C1392 C484 1.309 . S
C1417 C315 1.545 . S
C1422 C461 1.605 . S
C1447 C338 1.637 . S
C1452 C470 1.653 . S
C1477 C352 1.847 . S
C1482 C540 1.846 . S
C1512 C559 1.618 . S
C1507 N370 1.600 . S
C1542 C573 1.605 . S
C1537 C398 1.595 . S
C1572 C535 1.226 . S
C1567 N278 1.177 . S
C1597 C306 1.742 . S
C1602 C503 1.748 . S
C1627 C329 1.639 . S
C1632 C521 1.638 . S
C1662 C423 1.556 . S
C1657 C361 1.562 . S
C1687 N380 1.504 . S
C1692 C433 1.555 . S
C1722 C447 1.466 . S
C1717 C407 1.465 . S
C1752 C467 1.379 . S
C1747 N12 1.342 . S
C1777 N25 1.566 . S
C1782 C479 1.584 . S
C1812 C493 1.321 . S
C1807 N48 1.303 . S
C1842 C495 1.322 . S
C1837 N81 1.306 . S
C1872 C465 1.541 . S
C1867 N94 1.495 . S
C1902 C481 1.549 . S
C1897 C131 1.535 . S
C1932 C425 1.379 . S
C1927 N2 1.373 . S
C1957 N35 1.488 . S
C1962 C428 1.518 . S
C1987 N58 1.263 . S
C1992 C442 1.288 . S
C2022 C453 1.268 . S
C2017 N71 1.229 . S
C2052 C414 1.381 . S
C2047 N104 1.359 . S
C2082 C439 1.568 . S
C2077 C122 1.572 . S
C2107 C145 1.978 . S
C2112 C551 1.984 . S
C2137 C168 1.730 . S
C2142 C563 1.731 . S
C2167 N186 1.419 . S
C2172 C577 1.433 . S
C2202 C579 1.344 . S
C2197 N219 1.332 . S
C2232 C549 1.795 . S
C2227 C246 1.775 . S
C2262 C565 1.467 . S
C2257 N265 1.447 . S
C2292 C509 1.872 . S
C2287 C154 1.886 . S
C2317 C177 1.826 . S
C2322 C512 1.814 . S
C2347 N196 1.264 . S
C2352 C526 1.288 . S
C2377 N209 1.137 . S
C2382 C537 1.181 . S
C2407 C237 1.814 . S
C2412 C498 1.803 . S
C2442 C523 1.427 . S
C2437 N255 1.382 . S
C2467 C283 1.753 . S
C2472 C635 1.753 . S
C2497 N301 1.446 . S
C2502 C647 1.460 . S
C2527 N324 1.293 . S
C2532 C661 1.305 . S
C2562 C663 1.167 . S
C2557 N357 1.150 . S
C2592 C633 1.767 . S
C2587 C384 1.753 . S
C2617 N403 1.300 . S
C2622 C649 1.317 . S
C2647 C292 1.851 . S
C2652 C593 1.839 . S
C2682 C596 1.390 . S
C2677 N311 1.361 . S
C2707 N334 1.367 . S
C2712 C610 1.398 . S
C2737 N347 1.269 . S
C2742 C621 1.304 . S
C2772 C582 1.849 . S
C2767 C375 1.861 . S
C2797 N393 1.324 . S
C2802 C607 1.370 . S
