# Generated by pormake.
# Topology anh, (6,3)-cn, num edge types: 1
# Building blocks:
#     Node 0, Type 0, BuildingBlock: BETGAK_clean_sbu_0, # of connection points: 6
#     Node 1, Type 0, BuildingBlock: BETGAK_clean_sbu_0, # of connection points: 6
#     Node 2, Type 0, BuildingBlock: BETGAK_clean_sbu_0, # of connection points: 6
#     Node 3, Type 1, BuildingBlock: OLANEW_clean_sbu_2, # of connection points: 3
#     Node 4, Type 1, BuildingBlock: OLANEW_clean_sbu_2, # of connection points: 3
#     Node 5, Type 1, BuildingBlock: OLANEW_clean_sbu_2, # of connection points: 3
#     Node 6, Type 1, BuildingBlock: OLANEW_clean_sbu_2, # of connection points: 3
#     Node 7, Type 1, BuildingBlock: OLANEW_clean_sbu_2, # of connection points: 3
#     Node 8, Type 1, BuildingBlock: OLANEW_clean_sbu_2, # of connection points: 3
#     Edge 9, Type (0, 1), BuildingBlock: XUDNAN_clean_linker_2, # of connection points: 2
#     Edge 10, Type (0, 1), BuildingBlock: XUDNAN_clean_linker_2, # of connection points: 2
#     Edge 11, Type (0, 1), BuildingBlock: XUDNAN_clean_linker_2, # of connection points: 2
#     Edge 12, Type (0, 1), BuildingBlock: XUDNAN_clean_linker_2, # of connection points: 2
#     Edge 13, Type (0, 1), BuildingBlock: XUDNAN_clean_linker_2, # of connection points: 2
#     Edge 14, Type (0, 1), BuildingBlock: XUDNAN_clean_linker_2, # of connection points: 2
#     Edge 15, Type (0, 1), BuildingBlock: XUDNAN_clean_linker_2, # of connection points: 2
#     Edge 16, Type (0, 1), BuildingBlock: XUDNAN_clean_linker_2, # of connection points: 2
#     Edge 17, Type (0, 1), BuildingBlock: XUDNAN_clean_linker_2, # of connection points: 2
#     Edge 18, Type (0, 1), BuildingBlock: XUDNAN_clean_linker_2, # of connection points: 2
#     Edge 19, Type (0, 1), BuildingBlock: XUDNAN_clean_linker_2, # of connection points: 2
#     Edge 20, Type (0, 1), BuildingBlock: XUDNAN_clean_linker_2, # of connection points: 2
#     Edge 21, Type (0, 1), BuildingBlock: XUDNAN_clean_linker_2, # of connection points: 2
#     Edge 22, Type (0, 1), BuildingBlock: XUDNAN_clean_linker_2, # of connection points: 2
#     Edge 23, Type (0, 1), BuildingBlock: XUDNAN_clean_linker_2, # of connection points: 2
#     Edge 24, Type (0, 1), BuildingBlock: XUDNAN_clean_linker_2, # of connection points: 2
#     Edge 25, Type (0, 1), BuildingBlock: XUDNAN_clean_linker_2, # of connection points: 2
#     Edge 26, Type (0, 1), BuildingBlock: XUDNAN_clean_linker_2, # of connection points: 2
# Relax obj value: 0.143
# Max RMSD: 0.166
# Mean RMSD: 0.114
data_MOF--net-anh--node1-BETGAK_clean_sbu_0--node2-OLANEW_clean_sbu_2--edge1-XUDNAN_clean_linker_2
_symmetry_space_group_name_H-M    P1
_symmetry_Int_Tables_number       1
_symmetry_cell_setting            triclinic
loop_
_symmetry_equiv_pos_as_xyz
'x, y, z'
_cell_length_a     37.224158
_cell_length_b     41.706521
_cell_length_c     50.644512
_cell_angle_alpha  91.724811
_cell_angle_beta   89.762
_cell_angle_gamma 130.37267
loop_
_atom_site_label
_atom_site_type_symbol
_atom_site_fract_x
_atom_site_fract_y
_atom_site_fract_z
_atom_type_partial_charge
La0 La 0.06153 0.52053 0.12665 0.0
La1 La 0.99891 0.53334 0.15337 0.0
C2 C 0.11581 0.52275 0.09529 0.0
C3 C 0.16585 0.5426 0.09461 0.0
C4 C 0.19124 0.55117 0.11799 0.0
C5 C 0.23622 0.56359 0.11689 0.0
C6 C 0.25676 0.56799 0.09238 0.0
C7 C 0.23239 0.56223 0.06908 0.0
C8 C 0.18722 0.54944 0.07021 0.0
C9 C 0.05725 0.5133 0.1782 0.0
C10 C 0.10355 0.61335 0.14584 0.0
C11 C 0.94322 0.53131 0.18338 0.0
C12 C 0.89172 0.50403 0.18464 0.0
C13 C 0.86312 0.4668 0.16909 0.0
C14 C 0.81423 0.44199 0.16893 0.0
C15 C 0.7929 0.45472 0.18361 0.0
C16 C 0.82192 0.49207 0.19943 0.0
C17 C 0.87092 0.51637 0.20004 0.0
C18 C 1.00342 0.53935 0.10136 0.0
C19 C 0.95677 0.44044 0.13557 0.0
O20 O 0.09085 0.49427 0.11305 0.0
O21 O 0.10594 0.54761 0.09381 0.0
O22 O 0.06552 0.49422 0.16206 0.0
O23 O 0.05745 0.53902 0.16576 0.0
O24 O 0.10842 0.59003 0.13052 0.0
O25 O 0.06563 0.59627 0.16016 0.0
O26 O 0.96155 0.5539 0.16237 0.0
O27 O 0.96136 0.51379 0.18873 0.0
O28 O 0.99641 0.55974 0.11709 0.0
O29 O 1.00279 0.51408 0.11455 0.0
O30 O 0.95353 0.46433 0.15136 0.0
O31 O 0.99355 0.45725 0.12016 0.0
H32 H 0.17541 0.54631 0.13706 0.0
H33 H 0.25359 0.56731 0.13524 0.0
H34 H 0.24752 0.56616 0.0499 0.0
H35 H 0.16826 0.5433 0.05197 0.0
H36 H 0.87873 0.45753 0.15653 0.0
H37 H 0.79332 0.41322 0.15686 0.0
H38 H 0.80709 0.50343 0.21065 0.0
H39 H 0.89265 0.54541 0.21192 0.0
La40 La 0.57235 0.01528 0.4803 0.0
La41 La 0.50863 0.03464 0.47538 0.0
C42 C 0.6109 0.98488 0.49084 0.0
C43 C 0.59719 0.94632 0.50212 0.0
C44 C 0.61864 0.93044 0.49287 0.0
C45 C 0.60756 0.89467 0.50371 0.0
C46 C 0.57492 0.87414 0.5242 0.0
C47 C 0.55267 0.88969 0.53307 0.0
C48 C 0.56364 0.92545 0.52207 0.0
C49 C 0.57002 0.03917 0.43353 0.0
C50 C 0.46205 0.94151 0.47151 0.0
C51 C 0.47116 0.06513 0.46229 0.0
C52 C 0.48012 0.10447 0.46898 0.0
C53 C 0.44227 0.10262 0.47576 0.0
C54 C 0.4502 0.13924 0.48354 0.0
C55 C 0.49624 0.17846 0.48473 0.0
C56 C 0.53406 0.18026 0.47757 0.0
C57 C 0.52609 0.14365 0.46975 0.0
C58 C 0.51454 0.01529 0.52353 0.0
C59 C 0.62012 0.10994 0.48539 0.0
O60 O 0.59227 0.98033 0.46772 0.0
O61 O 0.61146 0.01039 0.50687 0.0
O62 O 0.60734 0.04889 0.44453 0.0
O63 O 0.53476 0.01468 0.44786 0.0
O64 O 0.50092 0.954 0.48363 0.0
O65 O 0.45985 0.96922 0.46183 0.0
O66 O 0.45634 0.03938 0.48164 0.0
O67 O 0.50303 0.06842 0.44831 0.0
O68 O 0.47728 0.0071 0.51361 0.0
O69 O 0.54757 0.03664 0.50748 0.0
O70 O 0.57813 0.09797 0.47981 0.0
O71 O 0.62634 0.08249 0.48873 0.0
H72 H 0.64428 0.94592 0.47731 0.0
H73 H 0.62459 0.88307 0.49598 0.0
H74 H 0.52762 0.87484 0.54891 0.0
H75 H 0.54639 0.93706 0.52938 0.0
H76 H 0.40657 0.07269 0.47541 0.0
H77 H 0.42036 0.13666 0.4892 0.0
H78 H 0.56988 0.21002 0.47789 0.0
H79 H 0.55594 0.14605 0.46448 0.0
La80 La 0.57249 0.56859 0.85871 0.0
La81 La 0.496 0.4754 0.86419 0.0
C82 C 0.62163 0.64252 0.84225 0.0
C83 C 0.61637 0.67362 0.83591 0.0
C84 C 0.5842 0.67517 0.84909 0.0
C85 C 0.58209 0.70672 0.8437 0.0
C86 C 0.61248 0.7375 0.82525 0.0
C87 C 0.64375 0.73505 0.81168 0.0
C88 C 0.64559 0.70342 0.81694 0.0
C89 C 0.557 0.54307 0.90734 0.0
C90 C 0.46348 0.52774 0.86407 0.0
C91 C 0.44865 0.39959 0.87642 0.0
C92 C 0.45356 0.36725 0.87177 0.0
C93 C 0.4237 0.33393 0.85326 0.0
C94 C 0.42886 0.304 0.84788 0.0
C95 C 0.46381 0.30643 0.86103 0.0
C96 C 0.49314 0.33933 0.87994 0.0
C97 C 0.48808 0.36937 0.88527 0.0
C98 C 0.51239 0.50186 0.8157 0.0
C99 C 0.60602 0.51705 0.86241 0.0
O100 O 0.61867 0.63367 0.86714 0.0
O101 O 0.59947 0.60888 0.82663 0.0
O102 O 0.59809 0.57479 0.89885 0.0
O103 O 0.52615 0.529 0.88949 0.0
O104 O 0.50652 0.55869 0.85545 0.0
O105 O 0.45264 0.49272 0.87272 0.0
O106 O 0.43963 0.41123 0.85555 0.0
O107 O 0.47976 0.43177 0.89224 0.0
O108 O 0.47107 0.47113 0.82425 0.0
O109 O 0.54292 0.51474 0.83349 0.0
O110 O 0.56132 0.48437 0.86733 0.0
O111 O 0.61877 0.55357 0.85568 0.0
H112 H 0.56149 0.65259 0.86393 0.0
H113 H 0.55781 0.70787 0.85459 0.0
H114 H 0.66712 0.75784 0.79707 0.0
H115 H 0.67052 0.70268 0.80649 0.0
H116 H 0.39644 0.33114 0.84277 0.0
H117 H 0.40514 0.2787 0.83353 0.0
H118 H 0.52065 0.34234 0.89029 0.0
H119 H 0.51159 0.39448 0.89976 0.0
O120 O 0.57986 0.06834 0.22555 0.0
Cd121 Cd 0.58482 0.0708 0.17724 0.0
O122 O 0.5154 1.00315 0.23349 0.0
Cd123 Cd 0.48848 0.97247 0.19418 0.0
O124 O 0.42604 0.91432 0.17457 0.0
C125 C 0.38837 0.90895 0.17613 0.0
O126 O 0.39071 0.93912 0.1873 0.0
C127 C 0.55091 0.04009 0.2417 0.0
C128 C 0.67123 0.14695 0.16192 0.0
O129 O 0.63588 0.14452 0.16731 0.0
O130 O 0.66581 0.11343 0.16355 0.0
O131 O 0.62709 0.52836 0.6287 0.0
Cd132 Cd 0.6567 0.52958 0.58517 0.0
O133 O 0.59859 0.55539 0.61125 0.0
Cd134 Cd 0.56574 0.58396 0.61089 0.0
O135 O 0.5456 0.62151 0.6019 0.0
C136 C 0.57791 0.65835 0.59379 0.0
O137 O 0.6209 0.67172 0.59187 0.0
C138 C 0.60481 0.54179 0.63134 0.0
C139 C 0.60808 0.4496 0.56143 0.0
O140 O 0.64471 0.46642 0.57613 0.0
O141 O 0.59417 0.47044 0.55817 0.0
O142 O 0.07167 0.51828 0.90777 0.0
Cd143 Cd 0.10537 0.50588 0.86963 0.0
O144 O 0.01715 0.51889 0.89054 0.0
Cd145 Cd 0.9566 0.51934 0.89056 0.0
O146 O 0.88913 0.509 0.88712 0.0
C147 C 0.88552 0.53658 0.88161 0.0
O148 O 0.92414 0.57534 0.87767 0.0
C149 C 0.03987 0.52155 0.91063 0.0
C150 C 0.19318 0.52301 0.87372 0.0
O151 O 0.19089 0.55129 0.86764 0.0
O152 O 0.15429 0.48674 0.87918 0.0
O153 O 0.05724 0.55769 0.38106 0.0
Cd154 Cd 0.06433 0.58169 0.42708 0.0
O155 O 1.00836 0.4885 0.38562 0.0
Cd156 Cd 0.98355 0.47826 0.42629 0.0
O157 O 0.9233 0.42848 0.44982 0.0
C158 C 0.91259 0.39263 0.44925 0.0
O159 O 0.9397 0.38804 0.43622 0.0
C160 C 0.03481 0.52052 0.37137 0.0
C161 C 0.15672 0.65578 0.43988 0.0
O162 O 0.14364 0.6193 0.44355 0.0
O163 O 0.12621 0.65741 0.43017 0.0
O164 O 0.5304 0.98861 0.73182 0.0
Cd165 Cd 0.52931 0.98103 0.77974 0.0
O166 O 0.49814 0.01779 0.72594 0.0
Cd167 Cd 0.49329 0.03475 0.76654 0.0
O168 O 0.49072 0.07504 0.7943 0.0
C169 C 0.48594 0.09974 0.78423 0.0
O170 O 0.48249 0.09938 0.75839 0.0
C171 C 0.51546 1.00173 0.71665 0.0
C172 C 0.55967 0.93637 0.79202 0.0
O173 O 0.5158 0.91704 0.78812 0.0
O174 O 0.58886 0.97654 0.79039 0.0
O175 O 0.42357 0.33748 0.05789 0.0
Cd176 Cd 0.39344 0.28497 0.09138 0.0
O177 O 0.45376 0.38569 0.08987 0.0
Cd178 Cd 0.4866 0.45021 0.10233 0.0
O179 O 0.48129 0.49931 0.1043 0.0
C180 C 0.45937 0.49886 0.08493 0.0
O181 O 0.44503 0.47157 0.0652 0.0
C182 C 0.44785 0.37586 0.06533 0.0
C183 C 0.46965 0.31141 0.12318 0.0
O184 O 0.44253 0.31881 0.13043 0.0
O185 O 0.45976 0.29044 0.10143 0.0
H186 H 0.27629 0.53021 0.05725 0.0
H187 H 0.33525 0.61675 0.12549 0.0
H188 H 0.40087 0.61582 0.12758 0.0
H189 H 0.29612 0.46704 0.07884 0.0
H190 H 0.31136 0.45763 0.04743 0.0
H191 H 0.27385 0.47063 0.04852 0.0
H192 H 0.33099 0.53373 0.01855 0.0
H193 H 0.36863 0.52067 0.01713 0.0
H194 H 0.39243 0.57278 0.02801 0.0
H195 H 0.45244 0.59637 0.12638 0.0
H196 H 0.48669 0.56189 0.12107 0.0
H197 H 0.3957 0.49097 0.05236 0.0
C198 C 0.30394 0.55042 0.07199 0.0
C199 C 0.30054 0.57365 0.09116 0.0
C200 C 0.33679 0.5984 0.1107 0.0
C201 C 0.37444 0.59835 0.11191 0.0
C202 C 0.37576 0.57394 0.0932 0.0
C203 C 0.34179 0.55094 0.07335 0.0
C204 C 0.3486 0.52424 0.05711 0.0
C205 C 0.3049 0.47712 0.05806 0.0
C206 C 0.36091 0.53874 0.02851 0.0
C207 C 0.39036 0.53423 0.07168 0.0
C208 C 0.40599 0.56336 0.09223 0.0
C209 C 0.44122 0.5743 0.10998 0.0
C210 C 0.46036 0.55445 0.10686 0.0
C211 C 0.44411 0.52396 0.0862 0.0
C212 C 0.4095 0.51466 0.06808 0.0
H213 H 0.71161 0.14787 0.47416 0.0
H214 H 0.6214 0.17494 0.49803 0.0
H215 H 0.68862 0.25118 0.49513 0.0
H216 H 0.82133 0.24059 0.50724 0.0
H217 H 0.85743 0.24761 0.48031 0.0
H218 H 0.80369 0.19568 0.48737 0.0
H219 H 0.77424 0.18585 0.43915 0.0
H220 H 0.82768 0.23773 0.43196 0.0
H221 H 0.7713 0.22387 0.42612 0.0
H222 H 0.76469 0.32443 0.48665 0.0
H223 H 0.84202 0.38807 0.47164 0.0
H224 H 0.88159 0.31265 0.45211 0.0
C225 C 0.70635 0.16991 0.47946 0.0
C226 C 0.66143 0.15554 0.48658 0.0
C227 C 0.65555 0.18529 0.49256 0.0
C228 C 0.69359 0.22867 0.49109 0.0
C229 C 0.73726 0.24181 0.48349 0.0
C230 C 0.74379 0.21327 0.47776 0.0
C231 C 0.79306 0.23523 0.46791 0.0
C232 C 0.8205 0.22943 0.48685 0.0
C233 C 0.79145 0.21975 0.43961 0.0
C234 C 0.81305 0.2805 0.46862 0.0
C235 C 0.78057 0.28375 0.47797 0.0
C236 C 0.79054 0.32228 0.4795 0.0
C237 C 0.8346 0.35829 0.47094 0.0
C238 C 0.86801 0.35548 0.46072 0.0
C239 C 0.85704 0.31602 0.45993 0.0
H240 H 0.53708 0.7353 0.81926 0.0
H241 H 0.69009 0.82063 0.8216 0.0
H242 H 0.69289 0.88031 0.81393 0.0
H243 H 0.52622 0.78588 0.76758 0.0
H244 H 0.47628 0.77749 0.78167 0.0
H245 H 0.48602 0.74132 0.78789 0.0
H246 H 0.4855 0.75343 0.8383 0.0
H247 H 0.47573 0.78963 0.83225 0.0
H248 H 0.52529 0.80627 0.85248 0.0
H249 H 0.67957 0.93085 0.80605 0.0
H250 H 0.65094 0.96889 0.7974 0.0
H251 H 0.50637 0.8513 0.79964 0.0
C252 C 0.57114 0.76659 0.81835 0.0
C253 C 0.6134 0.77321 0.82092 0.0
C254 C 0.65726 0.81464 0.81932 0.0
C255 C 0.65923 0.84882 0.81513 0.0
C256 C 0.61703 0.84121 0.81252 0.0
C257 C 0.57378 0.80117 0.814 0.0
C258 C 0.53377 0.8017 0.81001 0.0
C259 C 0.50382 0.77502 0.78532 0.0
C260 C 0.50328 0.78688 0.83474 0.0
C261 C 0.56135 0.84827 0.80604 0.0
C262 C 0.60932 0.87045 0.80769 0.0
C263 C 0.64207 0.91384 0.80471 0.0
C264 C 0.62542 0.93518 0.79982 0.0
C265 C 0.5764 0.91319 0.79781 0.0
C266 C 0.54405 0.86908 0.80104 0.0
H267 H 0.7361 0.41226 0.13948 0.0
H268 H 0.73197 0.44261 0.22168 0.0
H269 H 0.6474 0.40639 0.21595 0.0
H270 H 0.66068 0.42549 0.11308 0.0
H271 H 0.63212 0.38166 0.08959 0.0
H272 H 0.69173 0.40866 0.10054 0.0
H273 H 0.66759 0.33826 0.11562 0.0
H274 H 0.60784 0.31091 0.10455 0.0
H275 H 0.61969 0.30672 0.13818 0.0
H276 H 0.56447 0.37164 0.19982 0.0
H277 H 0.48956 0.33798 0.17533 0.0
H278 H 0.54778 0.3256 0.1053 0.0
C279 C 0.71749 0.4105 0.1566 0.0
C280 C 0.74113 0.43049 0.18107 0.0
C281 C 0.71511 0.42824 0.20259 0.0
C282 C 0.66689 0.40739 0.1996 0.0
C283 C 0.64499 0.38834 0.17513 0.0
C284 C 0.66941 0.38928 0.15413 0.0
C285 C 0.6382 0.3671 0.12972 0.0
C286 C 0.65679 0.39756 0.1069 0.0
C287 C 0.63302 0.32845 0.12154 0.0
C288 C 0.59251 0.35426 0.14005 0.0
C289 C 0.59703 0.36684 0.16626 0.0
C290 C 0.56029 0.36099 0.17943 0.0
C291 C 0.51798 0.34197 0.16538 0.0
C292 C 0.51275 0.32872 0.13856 0.0
C293 C 0.55039 0.33458 0.12595 0.0
H294 H 0.37437 0.904 0.45011 0.0
H295 H 0.45541 0.87549 0.48717 0.0
H296 H 0.38642 0.7996 0.48301 0.0
H297 H 0.26424 0.8232 0.48081 0.0
H298 H 0.22887 0.81154 0.45196 0.0
H299 H 0.28477 0.86365 0.45762 0.0
H300 H 0.31229 0.85947 0.41154 0.0
H301 H 0.25648 0.80735 0.40573 0.0
H302 H 0.31057 0.81615 0.40321 0.0
H303 H 0.30852 0.72652 0.47463 0.0
H304 H 0.22737 0.66193 0.46316 0.0
H305 H 0.19672 0.73796 0.43198 0.0
C306 C 0.37771 0.88186 0.45734 0.0
C307 C 0.42048 0.89586 0.46895 0.0
C308 C 0.42314 0.86568 0.4782 0.0
C309 C 0.38411 0.82243 0.47592 0.0
C310 C 0.34254 0.80974 0.46439 0.0
C311 C 0.33905 0.83856 0.45529 0.0
C312 C 0.29022 0.81665 0.44384 0.0
C313 C 0.26558 0.82953 0.4595 0.0
C314 C 0.29255 0.82543 0.41433 0.0
C315 C 0.26677 0.77099 0.4479 0.0
C316 C 0.29759 0.7677 0.45974 0.0
C317 C 0.28408 0.72874 0.46537 0.0
C318 C 0.23786 0.6922 0.45876 0.0
C319 C 0.20554 0.69475 0.44668 0.0
C320 C 0.22045 0.73484 0.44123 0.0
H321 H 0.46087 0.2739 0.81229 0.0
H322 H 0.47997 0.26742 0.89584 0.0
H323 H 0.48856 0.21435 0.88556 0.0
H324 H 0.39211 0.16399 0.79601 0.0
H325 H 0.41861 0.17256 0.76428 0.0
H326 H 0.41489 0.21049 0.77832 0.0
H327 H 0.50528 0.2694 0.77416 0.0
H328 H 0.50929 0.23165 0.7601 0.0
H329 H 0.54429 0.26316 0.789 0.0
H330 H 0.49323 0.16025 0.86585 0.0
H331 H 0.49541 0.11143 0.83839 0.0
H332 H 0.47319 0.15391 0.76798 0.0
C333 C 0.46655 0.26116 0.82847 0.0
C334 C 0.46962 0.27483 0.8549 0.0
C335 C 0.47792 0.25779 0.87542 0.0
C336 C 0.48261 0.22745 0.86978 0.0
C337 C 0.47914 0.21456 0.84351 0.0
C338 C 0.47149 0.23104 0.8232 0.0
C339 C 0.46932 0.2121 0.79664 0.0
C340 C 0.42085 0.18837 0.78302 0.0
C341 C 0.50944 0.24611 0.77894 0.0
C342 C 0.47651 0.18208 0.80515 0.0
C343 C 0.48215 0.18389 0.83224 0.0
C344 C 0.48896 0.15868 0.8446 0.0
C345 C 0.4901 0.131 0.82885 0.0
C346 C 0.48451 0.12875 0.80101 0.0
C347 C 0.47765 0.15478 0.78917 0.0
H348 H 0.63825 0.86334 0.53589 0.0
H349 H 0.48965 0.80151 0.54041 0.0
H350 H 0.47413 0.74019 0.56025 0.0
H351 H 0.62148 0.77123 0.51687 0.0
H352 H 0.67192 0.78685 0.53566 0.0
H353 H 0.67117 0.82629 0.523 0.0
H354 H 0.68679 0.85905 0.57027 0.0
H355 H 0.68748 0.81964 0.5831 0.0
H356 H 0.64771 0.82641 0.59643 0.0
H357 H 0.47503 0.68457 0.57859 0.0
H358 H 0.49217 0.63966 0.59349 0.0
H359 H 0.63988 0.73824 0.57564 0.0
C360 C 0.60232 0.83684 0.54084 0.0
C361 C 0.56516 0.83729 0.53651 0.0
C362 C 0.51882 0.80216 0.5438 0.0
C363 C 0.50963 0.7671 0.55496 0.0
C364 C 0.54713 0.76767 0.55872 0.0
C365 C 0.59253 0.80168 0.55185 0.0
C366 C 0.62658 0.79436 0.55735 0.0
C367 C 0.64909 0.79469 0.53169 0.0
C368 C 0.66436 0.82679 0.57802 0.0
C369 C 0.59327 0.75076 0.5683 0.0
C370 C 0.5476 0.73585 0.56904 0.0
C371 C 0.5107 0.69601 0.57815 0.0
C372 C 0.52078 0.67073 0.58657 0.0
C373 C 0.56737 0.6854 0.58575 0.0
C374 C 0.60391 0.72605 0.57658 0.0
H375 H 0.70379 0.57755 0.85893 0.0
H376 H 0.59052 0.44459 0.87172 0.0
H377 H 0.64877 0.43519 0.87768 0.0
H378 H 0.77927 0.56543 0.82263 0.0
H379 H 0.83314 0.61246 0.83728 0.0
H380 H 0.78247 0.6088 0.83348 0.0
H381 H 0.78601 0.62524 0.88356 0.0
H382 H 0.83659 0.62882 0.88754 0.0
H383 H 0.78498 0.59297 0.907 0.0
H384 H 0.71984 0.44007 0.88323 0.0
H385 H 0.79775 0.45894 0.8872 0.0
H386 H 0.86576 0.58856 0.87082 0.0
C387 C 0.69116 0.54639 0.86279 0.0
C388 C 0.64215 0.51183 0.8648 0.0
C389 C 0.62756 0.4717 0.87008 0.0
C390 C 0.66053 0.46596 0.87351 0.0
C391 C 0.7084 0.50061 0.87163 0.0
C392 C 0.72376 0.54005 0.86632 0.0
C393 C 0.77737 0.57208 0.86561 0.0
C394 C 0.79404 0.59079 0.83811 0.0
C395 C 0.79741 0.60683 0.88722 0.0
C396 C 0.78967 0.54454 0.87142 0.0
C397 C 0.74932 0.5034 0.87481 0.0
C398 C 0.75164 0.47222 0.88054 0.0
C399 C 0.7962 0.48327 0.88279 0.0
C400 C 0.83826 0.52524 0.87934 0.0
C401 C 0.83454 0.55615 0.87357 0.0
H402 H 0.19988 0.66074 0.14076 0.0
H403 H 0.09224 0.67035 0.1559 0.0
H404 H 0.15352 0.74738 0.16132 0.0
H405 H 0.28117 0.73819 0.18946 0.0
H406 H 0.33326 0.7597 0.1707 0.0
H407 H 0.28095 0.70553 0.16519 0.0
H408 H 0.2813 0.71847 0.11547 0.0
H409 H 0.33365 0.77277 0.12083 0.0
H410 H 0.28181 0.75997 0.1057 0.0
H411 H 0.22501 0.82207 0.1672 0.0
H412 H 0.30369 0.89072 0.17594 0.0
H413 H 0.36734 0.83463 0.15883 0.0
C414 C 0.18936 0.67926 0.14479 0.0
C415 C 0.1413 0.65964 0.14778 0.0
C416 C 0.12884 0.68472 0.15359 0.0
C417 C 0.16337 0.72854 0.15656 0.0
C418 C 0.21039 0.74695 0.15385 0.0
C419 C 0.22365 0.72328 0.14826 0.0
C420 C 0.27705 0.75108 0.14841 0.0
C421 C 0.2941 0.73783 0.16971 0.0
C422 C 0.29447 0.75053 0.12096 0.0
C423 C 0.29148 0.7938 0.15533 0.0
C424 C 0.2523 0.79056 0.15798 0.0
C425 C 0.25604 0.82514 0.16505 0.0
C426 C 0.301 0.86406 0.17 0.0
C427 C 0.34184 0.86823 0.16809 0.0
C428 C 0.3369 0.83261 0.16026 0.0
H429 H 0.56725 0.24248 0.51775 0.0
H430 H 0.44475 0.2021 0.47225 0.0
H431 H 0.4589 0.26631 0.48765 0.0
H432 H 0.55189 0.28773 0.57338 0.0
H433 H 0.61414 0.33096 0.57834 0.0
H434 H 0.59395 0.28158 0.56398 0.0
H435 H 0.64613 0.32001 0.5233 0.0
H436 H 0.66661 0.36952 0.53756 0.0
H437 H 0.63987 0.35258 0.50496 0.0
H438 H 0.48735 0.33566 0.50754 0.0
H439 H 0.52787 0.40479 0.53037 0.0
H440 H 0.632 0.39972 0.5625 0.0
C441 C 0.54359 0.24726 0.51082 0.0
C442 C 0.50487 0.21722 0.49377 0.0
C443 C 0.47433 0.22441 0.48555 0.0
C444 C 0.4822 0.26088 0.49409 0.0
C445 C 0.52072 0.28981 0.51088 0.0
C446 C 0.55089 0.2834 0.51916 0.0
C447 C 0.58981 0.31938 0.53714 0.0
C448 C 0.58727 0.30398 0.56485 0.0
C449 C 0.63848 0.34169 0.52501 0.0
C450 C 0.57699 0.34721 0.53758 0.0
C451 C 0.53699 0.32959 0.52235 0.0
C452 C 0.51865 0.34972 0.51956 0.0
C453 C 0.54192 0.38898 0.53261 0.0
C454 C 0.58309 0.40769 0.54826 0.0
C455 C 0.60056 0.38627 0.55077 0.0
H456 H 0.36876 0.47167 0.8783 0.0
H457 H 0.47772 0.59843 0.85142 0.0
H458 H 0.42187 0.61112 0.85287 0.0
H459 H 0.27358 0.45169 0.8404 0.0
H460 H 0.23017 0.42207 0.86554 0.0
H461 H 0.27912 0.42293 0.86346 0.0
H462 H 0.30181 0.44959 0.91228 0.0
H463 H 0.25299 0.44892 0.91449 0.0
H464 H 0.31197 0.49666 0.92264 0.0
H465 H 0.35473 0.61089 0.85689 0.0
H466 H 0.27952 0.59645 0.86112 0.0
H467 H 0.21118 0.46924 0.88424 0.0
C468 C 0.38092 0.50214 0.87281 0.0
C469 C 0.42821 0.53416 0.86497 0.0
C470 C 0.44218 0.5734 0.85773 0.0
C471 C 0.41055 0.58099 0.85848 0.0
C472 C 0.36451 0.54902 0.86634 0.0
C473 C 0.34946 0.51025 0.87324 0.0
C474 C 0.29741 0.48105 0.88019 0.0
C475 C 0.26836 0.44213 0.86127 0.0
C476 C 0.29066 0.46831 0.90912 0.0
C477 C 0.28569 0.50947 0.876 0.0
C478 C 0.32518 0.54862 0.86819 0.0
C479 C 0.32358 0.58032 0.86299 0.0
C480 C 0.28052 0.57178 0.8655 0.0
C481 C 0.23908 0.53173 0.87305 0.0
C482 C 0.24206 0.50026 0.87853 0.0
H483 H 0.86673 0.39653 0.15358 0.0
H484 H 0.95855 0.37917 0.11647 0.0
H485 H 0.89498 0.3019 0.11817 0.0
H486 H 0.8113 0.31426 0.19752 0.0
H487 H 0.75366 0.29868 0.19388 0.0
H488 H 0.80553 0.35235 0.18872 0.0
H489 H 0.77515 0.3483 0.14165 0.0
H490 H 0.72263 0.295 0.14713 0.0
H491 H 0.7583 0.30647 0.11882 0.0
H492 H 0.82251 0.22628 0.12693 0.0
H493 H 0.7458 0.15888 0.139 0.0
H494 H 0.70055 0.22646 0.16809 0.0
C495 C 0.87349 0.37668 0.1455 0.0
C496 C 0.91776 0.3941 0.13486 0.0
C497 C 0.92489 0.36665 0.12459 0.0
C498 C 0.88901 0.3227 0.12554 0.0
C499 C 0.84592 0.30668 0.1364 0.0
C500 C 0.83785 0.3329 0.14582 0.0
C501 C 0.78848 0.30796 0.15643 0.0
C502 C 0.78986 0.31897 0.18589 0.0
C503 C 0.75942 0.31484 0.14003 0.0
C504 C 0.77037 0.26353 0.15225 0.0
C505 C 0.80398 0.26339 0.14066 0.0
C506 C 0.7958 0.22604 0.13573 0.0
C507 C 0.75216 0.18791 0.14272 0.0
C508 C 0.71703 0.18732 0.15433 0.0
C509 C 0.72643 0.22576 0.15899 0.0
H510 H 0.02133 0.49959 0.06703 0.0
H511 H 0.99038 0.58353 0.07019 0.0
H512 H 0.99362 0.5865 0.02138 0.0
H513 H 0.10574 0.55212 0.01544 0.0
H514 H 0.08874 0.50428 1.00025 0.0
H515 H 0.08156 0.50712 0.03518 0.0
H516 H 0.99298 0.44174 0.03041 0.0
H517 H 0.99959 0.43836 0.99543 0.0
H518 H 0.95629 0.44166 0.00724 0.0
H519 H 0.99972 0.57955 0.97194 0.0
H520 H 1.01355 0.56724 0.92632 0.0
H521 H 0.04417 0.49062 0.95607 0.0
C522 C 1.01534 0.51866 0.05745 0.0
C523 C 1.00557 0.54132 0.07229 0.0
C524 C 0.99788 0.56591 0.0591 0.0
C525 C 0.99958 0.56772 0.03142 0.0
C526 C 1.00945 0.54506 0.01732 0.0
C527 C 0.01764 0.52132 0.02993 0.0
C528 C 0.02929 0.50119 0.01038 0.0
C529 C 0.07931 0.51716 0.01562 0.0
C530 C 0.99232 0.45287 0.0109 0.0
C531 C 0.02628 0.5172 0.98475 0.0
C532 C 1.01431 0.5421 0.9891 0.0
C533 C 1.009 0.56003 0.96831 0.0
C534 C 0.01645 0.55254 0.94244 0.0
C535 C 0.02938 0.52761 0.93764 0.0
C536 C 0.03435 0.50985 0.95915 0.0
H537 H 0.50118 0.99043 0.39507 0.0
H538 H 0.63903 0.11213 0.41082 0.0
H539 H 0.64551 0.12853 0.36371 0.0
H540 H 0.53184 0.96861 0.3368 0.0
H541 H 0.47639 0.942 0.31949 0.0
H542 H 0.47818 0.94245 0.355 0.0
H543 H 0.43789 0.97485 0.35759 0.0
H544 H 0.43546 0.97409 0.32201 0.0
H545 H 0.46335 0.02266 0.34073 0.0
H546 H 0.64113 0.12896 0.31476 0.0
H547 H 0.62656 0.11319 0.26681 0.0
H548 H 0.49301 0.98964 0.282 0.0
C549 C 0.53186 0.02102 0.38863 0.0
C550 C 0.56934 0.0504 0.40642 0.0
C551 C 0.60985 0.08951 0.39735 0.0
C552 C 0.61379 0.0991 0.37069 0.0
C553 C 0.57702 0.06902 0.35334 0.0
C554 C 0.53675 0.03077 0.36187 0.0
C555 C 0.50488 1.00234 0.33867 0.0
C556 C 0.49741 0.96145 0.33743 0.0
C557 C 0.45759 0.99294 0.33982 0.0
C558 C 0.53412 0.03015 0.31584 0.0
C559 C 0.57522 0.0687 0.32479 0.0
C560 C 0.6088 0.09904 0.30748 0.0
C561 C 0.60028 0.08974 0.28024 0.0
C562 C 0.55868 0.05018 0.27054 0.0
C563 C 0.52513 0.02024 0.28871 0.0
H564 H 0.59234 0.53363 0.78836 0.0
H565 H 0.45307 0.49497 0.78043 0.0
H566 H 0.46511 0.50823 0.73264 0.0
H567 H 0.65114 0.61463 0.73731 0.0
H568 H 0.68495 0.60017 0.72572 0.0
H569 H 0.66831 0.59383 0.75986 0.0
H570 H 0.62877 0.51501 0.75565 0.0
H571 H 0.64503 0.52099 0.72153 0.0
H572 H 0.5841 0.48174 0.73037 0.0
H573 H 0.48952 0.52019 0.68544 0.0
H574 H 0.52279 0.52636 0.64172 0.0
H575 H 0.64456 0.55369 0.67978 0.0
C576 C 0.56499 0.52904 0.7766 0.0
C577 C 0.52202 0.51382 0.78793 0.0
C578 C 0.48633 0.50689 0.77198 0.0
C579 C 0.49293 0.51447 0.7449 0.0
C580 C 0.53527 0.52857 0.7341 0.0
C581 C 0.57065 0.53563 0.7494 0.0
C582 C 0.61067 0.54655 0.73247 0.0
C583 C 0.65648 0.59147 0.73925 0.0
C584 C 0.61751 0.51413 0.73517 0.0
C585 C 0.59176 0.54359 0.70525 0.0
C586 C 0.54867 0.53402 0.70667 0.0
C587 C 0.52358 0.52831 0.68407 0.0
C588 C 0.54289 0.53218 0.65933 0.0
C589 C 0.58656 0.54122 0.65742 0.0
C590 C 0.61125 0.54708 0.68071 0.0
H591 H 0.45567 0.99643 0.56429 0.0
H592 H 0.58902 0.02782 0.54671 0.0
H593 H 0.60009 0.0214 0.59362 0.0
H594 H 0.49822 0.05969 0.62369 0.0
H595 H 0.44345 0.02471 0.64086 0.0
H596 H 0.44302 0.02639 0.6054 0.0
H597 H 0.39614 0.94596 0.60165 0.0
H598 H 0.39646 0.94403 0.63714 0.0
H599 H 0.41923 0.92426 0.61738 0.0
H600 H 0.59662 0.01165 0.64255 0.0
H601 H 0.58434 0.00853 0.69072 0.0
H602 H 0.45813 0.9921 0.67743 0.0
C603 C 0.48682 1.00129 0.57028 0.0
C604 C 0.52083 0.01118 0.55168 0.0
C605 C 0.56184 0.01874 0.5604 0.0
C606 C 0.5685 0.01538 0.58708 0.0
C607 C 0.53432 0.00549 0.60493 0.0
C608 C 0.4947 0.99933 0.597 0.0
C609 C 0.46571 0.99316 0.62053 0.0
C610 C 0.46243 0.02807 0.62274 0.0
C611 C 0.41647 0.94924 0.61908 0.0
C612 C 0.49535 0.99702 0.64291 0.0
C613 C 0.53423 1.00321 0.63341 0.0
C614 C 0.56643 0.007 0.65024 0.0
C615 C 0.55909 0.00504 0.67754 0.0
C616 C 0.52048 1.00032 0.68776 0.0
C617 C 0.48814 0.99605 0.67015 0.0
H618 H 0.47295 0.47448 0.92693 0.0
H619 H 0.62034 0.57509 0.94812 0.0
H620 H 0.60632 0.54616 0.99246 0.0
H621 H 0.42332 0.46278 0.99206 0.0
H622 H 0.38035 0.40618 0.98849 0.0
H623 H 0.40059 0.43779 0.95972 0.0
H624 H 0.42444 0.39674 0.93892 0.0
H625 H 0.40537 0.36543 0.96768 0.0
H626 H 0.46495 0.39476 0.95651 0.0
H627 H 0.57722 0.50499 0.0336 0.0
H628 H 0.53674 0.45127 0.06766 0.0
H629 H 0.40994 0.37388 0.01839 0.0
C630 C 0.50222 0.49039 0.94092 0.0
C631 C 0.54779 0.52684 0.93414 0.0
C632 C 0.58515 0.54711 0.953 0.0
C633 C 0.5775 0.53098 0.97822 0.0
C634 C 0.53237 0.4944 0.9841 0.0
C635 C 0.49542 0.47412 0.96594 0.0
C636 C 0.45138 0.43338 0.97645 0.0
C637 C 0.41156 0.43516 0.97935 0.0
C638 C 0.43565 0.39535 0.95885 0.0
C639 C 0.46961 0.43355 0.00318 0.0
C640 C 0.5161 0.46953 0.00741 0.0
C641 C 0.54075 0.47683 0.03059 0.0
C642 C 0.51743 0.44631 0.04986 0.0
C643 C 0.47021 0.40884 0.04568 0.0
C644 C 0.44603 0.40241 0.02204 0.0
H645 H 0.06278 0.56462 0.21653 0.0
H646 H 0.0415 0.44986 0.20454 0.0
H647 H 0.03408 0.43975 0.25263 0.0
H648 H 0.13384 0.60028 0.27622 0.0
H649 H 0.10936 0.62168 0.29173 0.0
H650 H 0.11178 0.61951 0.25624 0.0
H651 H 0.0217 0.57731 0.25265 0.0
H652 H 0.01901 0.57948 0.28812 0.0
H653 H 0.98218 0.52934 0.2703 0.0
H654 H 0.02686 0.44082 0.30141 0.0
H655 H 0.02348 0.45444 0.34869 0.0
H656 H 0.05387 0.57071 0.33003 0.0
C657 C 0.05645 0.53737 0.22412 0.0
C658 C 0.05261 0.50791 0.20695 0.0
C659 C 0.04463 0.47278 0.21745 0.0
C660 C 0.04031 0.46675 0.2447 0.0
C661 C 0.04453 0.49641 0.26117 0.0
C662 C 0.0527 0.53117 0.25139 0.0
C663 C 0.05668 0.55861 0.2736 0.0
C664 C 0.10584 0.60263 0.27449 0.0
C665 C 0.01756 0.56133 0.27101 0.0
C666 C 0.04937 0.53375 0.29734 0.0
C667 C 0.04204 0.49781 0.28962 0.0
C668 C 0.03288 0.46899 0.30776 0.0
C669 C 0.03096 0.47697 0.33455 0.0
C670 C 0.03877 0.51376 0.34304 0.0
C671 C 0.04845 0.54265 0.32414 0.0
loop_
_geom_bond_atom_site_label_1
_geom_bond_atom_site_label_2
_geom_bond_distance
_geom_bond_site_symmetry_2
_ccdc_geom_bond_type
La0 C2 2.928 . S
La0 O20 2.521 . S
La0 O21 2.628 . S
La0 O22 2.554 . S
La0 O23 2.757 . S
La0 O24 2.470 . S
La0 O29 2.482 . S
La0 O31 2.503 1_455 S
La1 C11 2.928 . S
La1 O23 2.482 1_655 S
La1 O25 2.503 1_655 S
La1 O26 2.521 . S
La1 O27 2.628 . S
La1 O28 2.554 . S
La1 O29 2.757 1_655 S
La1 O30 2.470 . S
C2 La0 2.928 . S
C2 C3 1.503 . S
C2 O20 1.261 . S
C2 O21 1.243 . S
C3 C2 1.503 . S
C3 C4 1.394 . S
C3 C8 1.373 . S
C4 C3 1.394 . S
C4 C5 1.380 . S
C4 H32 0.930 . S
C5 C4 1.380 . S
C5 C6 1.376 . S
C5 H33 0.930 . S
C6 C5 1.376 . S
C6 C7 1.370 . S
C7 C6 1.370 . S
C7 C8 1.396 . S
C7 H34 0.929 . S
C8 C3 1.373 . S
C8 C7 1.396 . S
C8 H35 0.929 . S
C9 O22 1.240 . S
C9 O23 1.289 . S
C10 O24 1.258 . S
C10 O25 1.256 . S
C11 La1 2.928 . S
C11 C12 1.503 . S
C11 O26 1.261 . S
C11 O27 1.243 . S
C12 C11 1.503 . S
C12 C13 1.394 . S
C12 C17 1.373 . S
C13 C12 1.394 . S
C13 C14 1.380 . S
C13 H36 0.930 . S
C14 C13 1.380 . S
C14 C15 1.376 . S
C14 H37 0.930 . S
C15 C14 1.376 . S
C15 C16 1.370 . S
C16 C15 1.370 . S
C16 C17 1.396 . S
C16 H38 0.929 . S
C17 C12 1.373 . S
C17 C16 1.396 . S
C17 H39 0.929 . S
C18 O28 1.240 1_455 S
C18 O29 1.289 . S
C19 O30 1.258 . S
C19 O31 1.256 . S
O20 La0 2.521 . S
O20 C2 1.261 . S
O21 La0 2.628 . S
O21 C2 1.243 . S
O22 La0 2.554 . S
O22 C9 1.240 . S
O23 La0 2.757 . S
O23 La1 2.482 1_455 S
O23 C9 1.289 . S
O24 La0 2.470 . S
O24 C10 1.258 . S
O25 La1 2.503 1_455 S
O25 C10 1.256 . S
O26 La1 2.521 . S
O26 C11 1.261 . S
O27 La1 2.628 . S
O27 C11 1.243 . S
O28 La1 2.554 . S
O28 C18 1.240 1_655 S
O29 La0 2.482 . S
O29 La1 2.757 1_455 S
O29 C18 1.289 . S
O30 La1 2.470 . S
O30 C19 1.258 . S
O31 La0 2.503 1_655 S
O31 C19 1.256 . S
H32 C4 0.930 . S
H33 C5 0.930 . S
H34 C7 0.929 . S
H35 C8 0.929 . S
H36 C13 0.930 . S
H37 C14 0.930 . S
H38 C16 0.929 . S
H39 C17 0.929 . S
La40 C42 2.928 . S
La40 O60 2.521 . S
La40 O61 2.628 . S
La40 O62 2.554 . S
La40 O63 2.757 1_565 S
La40 O64 2.470 . S
La40 O69 2.482 . S
La40 O71 2.503 1_565 S
La41 C51 2.928 . S
La41 O63 2.482 . S
La41 O65 2.503 1_545 S
La41 O66 2.521 . S
La41 O67 2.628 . S
La41 O68 2.554 . S
La41 O69 2.757 1_545 S
La41 O70 2.470 . S
C42 La40 2.928 . S
C42 C43 1.503 . S
C42 O60 1.261 . S
C42 O61 1.243 . S
C43 C42 1.503 . S
C43 C44 1.394 . S
C43 C48 1.373 . S
C44 C43 1.394 . S
C44 C45 1.380 . S
C44 H72 0.930 . S
C45 C44 1.380 . S
C45 C46 1.376 . S
C45 H73 0.930 . S
C46 C45 1.376 . S
C46 C47 1.370 . S
C47 C46 1.370 . S
C47 C48 1.396 . S
C47 H74 0.929 . S
C48 C43 1.373 . S
C48 C47 1.396 . S
C48 H75 0.929 . S
C49 O62 1.240 1_545 S
C49 O63 1.289 . S
C50 O64 1.258 . S
C50 O65 1.256 . S
C51 La41 2.928 . S
C51 C52 1.503 . S
C51 O66 1.261 . S
C51 O67 1.243 . S
C52 C51 1.503 . S
C52 C53 1.394 . S
C52 C57 1.373 . S
C53 C52 1.394 . S
C53 C54 1.380 . S
C53 H76 0.930 . S
C54 C53 1.380 . S
C54 C55 1.376 . S
C54 H77 0.930 . S
C55 C54 1.376 . S
C55 C56 1.370 . S
C56 C55 1.370 . S
C56 C57 1.396 . S
C56 H78 0.929 . S
C57 C52 1.373 . S
C57 C56 1.396 . S
C57 H79 0.929 . S
C58 O68 1.240 . S
C58 O69 1.290 1_545 S
C59 O70 1.258 . S
C59 O71 1.256 . S
O60 La40 2.521 . S
O60 C42 1.261 . S
O61 La40 2.628 . S
O61 C42 1.243 . S
O62 La40 2.554 . S
O62 C49 1.240 1_565 S
O63 La40 2.757 1_545 S
O63 La41 2.482 . S
O63 C49 1.289 . S
O64 La40 2.470 . S
O64 C50 1.258 . S
O65 La41 2.503 1_565 S
O65 C50 1.256 . S
O66 La41 2.521 . S
O66 C51 1.261 . S
O67 La41 2.628 . S
O67 C51 1.243 . S
O68 La41 2.554 . S
O68 C58 1.240 . S
O69 La40 2.482 . S
O69 La41 2.757 1_565 S
O69 C58 1.290 1_565 S
O70 La41 2.470 . S
O70 C59 1.258 . S
O71 La40 2.503 1_545 S
O71 C59 1.256 . S
H72 C44 0.930 . S
H73 C45 0.930 . S
H74 C47 0.929 . S
H75 C48 0.929 . S
H76 C53 0.930 . S
H77 C54 0.930 . S
H78 C56 0.929 . S
H79 C57 0.929 . S
La80 C82 2.928 . S
La80 O100 2.521 . S
La80 O101 2.628 . S
La80 O102 2.554 . S
La80 O103 2.757 . S
La80 O104 2.470 . S
La80 O109 2.482 . S
La80 O111 2.503 . S
La81 C91 2.928 . S
La81 O103 2.482 . S
La81 O105 2.503 . S
La81 O106 2.521 . S
La81 O107 2.628 . S
La81 O108 2.554 . S
La81 O109 2.757 . S
La81 O110 2.470 . S
C82 La80 2.928 . S
C82 C83 1.503 . S
C82 O100 1.261 . S
C82 O101 1.243 . S
C83 C82 1.503 . S
C83 C84 1.394 . S
C83 C88 1.373 . S
C84 C83 1.394 . S
C84 C85 1.380 . S
C84 H112 0.930 . S
C85 C84 1.380 . S
C85 C86 1.376 . S
C85 H113 0.930 . S
C86 C85 1.376 . S
C86 C87 1.370 . S
C87 C86 1.370 . S
C87 C88 1.396 . S
C87 H114 0.929 . S
C88 C83 1.373 . S
C88 C87 1.396 . S
C88 H115 0.929 . S
C89 O102 1.240 . S
C89 O103 1.289 . S
C90 O104 1.258 . S
C90 O105 1.256 . S
C91 La81 2.928 . S
C91 C92 1.503 . S
C91 O106 1.261 . S
C91 O107 1.243 . S
C92 C91 1.503 . S
C92 C93 1.394 . S
C92 C97 1.373 . S
C93 C92 1.394 . S
C93 C94 1.380 . S
C93 H116 0.930 . S
C94 C93 1.380 . S
C94 C95 1.376 . S
C94 H117 0.930 . S
C95 C94 1.376 . S
C95 C96 1.370 . S
C96 C95 1.370 . S
C96 C97 1.396 . S
C96 H118 0.929 . S
C97 C92 1.373 . S
C97 C96 1.396 . S
C97 H119 0.929 . S
C98 O108 1.240 . S
C98 O109 1.289 . S
C99 O110 1.258 . S
C99 O111 1.256 . S
O100 La80 2.521 . S
O100 C82 1.261 . S
O101 La80 2.628 . S
O101 C82 1.243 . S
O102 La80 2.554 . S
O102 C89 1.240 . S
O103 La80 2.757 . S
O103 La81 2.482 . S
O103 C89 1.289 . S
O104 La80 2.470 . S
O104 C90 1.258 . S
O105 La81 2.503 . S
O105 C90 1.256 . S
O106 La81 2.521 . S
O106 C91 1.261 . S
O107 La81 2.628 . S
O107 C91 1.243 . S
O108 La81 2.554 . S
O108 C98 1.240 . S
O109 La80 2.482 . S
O109 La81 2.757 . S
O109 C98 1.289 . S
O110 La81 2.470 . S
O110 C99 1.258 . S
O111 La80 2.503 . S
O111 C99 1.256 . S
H112 C84 0.930 . S
H113 C85 0.930 . S
H114 C87 0.929 . S
H115 C88 0.929 . S
H116 C93 0.930 . S
H117 C94 0.930 . S
H118 C96 0.929 . S
H119 C97 0.929 . S
O120 Cd121 2.300 . S
O120 C127 1.275 . S
Cd121 O120 2.300 . S
Cd121 O129 2.381 . S
Cd121 O130 2.378 . S
O122 Cd123 2.385 . S
O122 C127 1.255 1_565 S
Cd123 O122 2.385 . S
Cd123 O124 2.317 . S
O124 Cd123 2.317 . S
O124 C125 1.232 . S
C125 O124 1.232 . S
C125 O126 1.218 . S
O126 C125 1.218 . S
C127 O120 1.275 . S
C127 O122 1.255 1_545 S
C128 O129 1.258 . S
C128 O130 1.256 . S
O129 Cd121 2.381 . S
O129 C128 1.258 . S
O130 Cd121 2.378 . S
O130 C128 1.256 . S
O131 Cd132 2.300 . S
O131 C138 1.275 . S
Cd132 O131 2.300 . S
Cd132 O140 2.381 . S
Cd132 O141 2.378 . S
O133 Cd134 2.385 . S
O133 C138 1.255 . S
Cd134 O133 2.385 . S
Cd134 O135 2.317 . S
O135 Cd134 2.317 . S
O135 C136 1.232 . S
C136 O135 1.232 . S
C136 O137 1.218 . S
O137 C136 1.218 . S
C138 O131 1.275 . S
C138 O133 1.255 . S
C139 O140 1.258 . S
C139 O141 1.256 . S
O140 Cd132 2.381 . S
O140 C139 1.258 . S
O141 Cd132 2.378 . S
O141 C139 1.256 . S
O142 Cd143 2.300 . S
O142 C149 1.275 . S
Cd143 O142 2.300 . S
Cd143 O151 2.381 . S
Cd143 O152 2.378 . S
O144 Cd145 2.385 . S
O144 C149 1.255 1_655 S
Cd145 O144 2.385 . S
Cd145 O146 2.317 . S
O146 Cd145 2.317 . S
O146 C147 1.232 . S
C147 O146 1.232 . S
C147 O148 1.218 . S
O148 C147 1.218 . S
C149 O142 1.275 . S
C149 O144 1.255 1_455 S
C150 O151 1.258 . S
C150 O152 1.256 . S
O151 Cd143 2.381 . S
O151 C150 1.258 . S
O152 Cd143 2.378 . S
O152 C150 1.256 . S
O153 Cd154 2.300 . S
O153 C160 1.275 1_455 S
Cd154 O153 2.300 . S
Cd154 O162 2.381 . S
Cd154 O163 2.378 . S
O155 Cd156 2.385 . S
O155 C160 1.255 . S
Cd156 O155 2.385 . S
Cd156 O157 2.317 . S
O157 Cd156 2.317 . S
O157 C158 1.232 . S
C158 O157 1.232 . S
C158 O159 1.218 . S
O159 C158 1.218 . S
C160 O153 1.275 1_655 S
C160 O155 1.255 . S
C161 O162 1.258 . S
C161 O163 1.256 . S
O162 Cd154 2.381 . S
O162 C161 1.258 . S
O163 Cd154 2.378 . S
O163 C161 1.256 . S
O164 Cd165 2.300 . S
O164 C171 1.275 1_565 S
Cd165 O164 2.300 . S
Cd165 O173 2.381 . S
Cd165 O174 2.378 . S
O166 Cd167 2.385 . S
O166 C171 1.255 . S
Cd167 O166 2.385 . S
Cd167 O168 2.317 . S
O168 Cd167 2.317 . S
O168 C169 1.232 . S
C169 O168 1.232 . S
C169 O170 1.218 . S
O170 C169 1.218 . S
C171 O164 1.275 1_545 S
C171 O166 1.255 . S
C172 O173 1.258 . S
C172 O174 1.256 . S
O173 Cd165 2.381 . S
O173 C172 1.258 . S
O174 Cd165 2.378 . S
O174 C172 1.256 . S
O175 Cd176 2.300 . S
O175 C182 1.275 . S
Cd176 O175 2.300 . S
Cd176 O184 2.381 . S
Cd176 O185 2.378 . S
O177 Cd178 2.385 . S
O177 C182 1.255 . S
Cd178 O177 2.385 . S
Cd178 O179 2.317 . S
O179 Cd178 2.317 . S
O179 C180 1.232 . S
C180 O179 1.232 . S
C180 O181 1.218 . S
O181 C180 1.218 . S
C182 O175 1.275 . S
C182 O177 1.255 . S
C183 O184 1.258 . S
C183 O185 1.256 . S
O184 Cd176 2.381 . S
O184 C183 1.258 . S
O185 Cd176 2.378 . S
O185 C183 1.256 . S
H186 C198 0.930 . S
H187 C200 0.930 . S
H188 C201 0.930 . S
H189 C205 0.959 . S
H190 C205 0.959 . S
H191 C205 0.961 . S
H192 C206 0.960 . S
H193 C206 0.961 . S
H194 C206 0.959 . S
H195 C209 0.929 . S
H196 C210 0.931 . S
H197 C212 0.930 . S
C198 H186 0.930 . S
C198 C199 1.399 . S
C198 C203 1.399 . S
C199 C198 1.399 . S
C199 C200 1.376 . S
C200 H187 0.930 . S
C200 C199 1.376 . S
C200 C201 1.388 . S
C201 H188 0.930 . S
C201 C200 1.388 . S
C201 C202 1.390 . S
C202 C201 1.390 . S
C202 C203 1.394 . S
C202 C208 1.465 . S
C203 C198 1.399 . S
C203 C202 1.394 . S
C203 C204 1.516 . S
C204 C203 1.516 . S
C204 C205 1.502 . S
C204 C206 1.561 . S
C204 C207 1.526 . S
C205 H189 0.959 . S
C205 H190 0.959 . S
C205 H191 0.961 . S
C205 C204 1.502 . S
C206 H192 0.960 . S
C206 H193 0.961 . S
C206 H194 0.959 . S
C206 C204 1.561 . S
C207 C204 1.526 . S
C207 C208 1.396 . S
C207 C212 1.390 . S
C208 C202 1.465 . S
C208 C207 1.396 . S
C208 C209 1.399 . S
C209 H195 0.929 . S
C209 C208 1.399 . S
C209 C210 1.385 . S
C210 H196 0.931 . S
C210 C209 1.385 . S
C210 C211 1.389 . S
C211 C210 1.389 . S
C211 C212 1.387 . S
C212 H197 0.930 . S
C212 C207 1.390 . S
C212 C211 1.387 . S
H213 C225 0.930 . S
H214 C227 0.930 . S
H215 C228 0.930 . S
H216 C232 0.959 . S
H217 C232 0.959 . S
H218 C232 0.961 . S
H219 C233 0.960 . S
H220 C233 0.961 . S
H221 C233 0.959 . S
H222 C236 0.929 . S
H223 C237 0.931 . S
H224 C239 0.930 . S
C225 H213 0.930 . S
C225 C226 1.399 . S
C225 C230 1.399 . S
C226 C225 1.399 . S
C226 C227 1.376 . S
C227 H214 0.930 . S
C227 C226 1.376 . S
C227 C228 1.388 . S
C228 H215 0.930 . S
C228 C227 1.388 . S
C228 C229 1.390 . S
C229 C228 1.390 . S
C229 C230 1.394 . S
C229 C235 1.465 . S
C230 C225 1.399 . S
C230 C229 1.394 . S
C230 C231 1.516 . S
C231 C230 1.516 . S
C231 C232 1.502 . S
C231 C233 1.561 . S
C231 C234 1.526 . S
C232 H216 0.959 . S
C232 H217 0.959 . S
C232 H218 0.961 . S
C232 C231 1.502 . S
C233 H219 0.960 . S
C233 H220 0.961 . S
C233 H221 0.959 . S
C233 C231 1.561 . S
C234 C231 1.526 . S
C234 C235 1.396 . S
C234 C239 1.390 . S
C235 C229 1.465 . S
C235 C234 1.396 . S
C235 C236 1.399 . S
C236 H222 0.929 . S
C236 C235 1.399 . S
C236 C237 1.385 . S
C237 H223 0.931 . S
C237 C236 1.385 . S
C237 C238 1.389 . S
C238 C237 1.389 . S
C238 C239 1.387 . S
C239 H224 0.930 . S
C239 C234 1.390 . S
C239 C238 1.387 . S
H240 C252 0.930 . S
H241 C254 0.930 . S
H242 C255 0.930 . S
H243 C259 0.959 . S
H244 C259 0.959 . S
H245 C259 0.961 . S
H246 C260 0.960 . S
H247 C260 0.961 . S
H248 C260 0.959 . S
H249 C263 0.929 . S
H250 C264 0.931 . S
H251 C266 0.930 . S
C252 H240 0.930 . S
C252 C253 1.399 . S
C252 C257 1.399 . S
C253 C252 1.399 . S
C253 C254 1.376 . S
C254 H241 0.930 . S
C254 C253 1.376 . S
C254 C255 1.388 . S
C255 H242 0.930 . S
C255 C254 1.388 . S
C255 C256 1.390 . S
C256 C255 1.390 . S
C256 C257 1.394 . S
C256 C262 1.465 . S
C257 C252 1.399 . S
C257 C256 1.394 . S
C257 C258 1.516 . S
C258 C257 1.516 . S
C258 C259 1.502 . S
C258 C260 1.561 . S
C258 C261 1.526 . S
C259 H243 0.959 . S
C259 H244 0.959 . S
C259 H245 0.961 . S
C259 C258 1.502 . S
C260 H246 0.960 . S
C260 H247 0.961 . S
C260 H248 0.959 . S
C260 C258 1.561 . S
C261 C258 1.526 . S
C261 C262 1.396 . S
C261 C266 1.390 . S
C262 C256 1.465 . S
C262 C261 1.396 . S
C262 C263 1.399 . S
C263 H249 0.929 . S
C263 C262 1.399 . S
C263 C264 1.385 . S
C264 H250 0.931 . S
C264 C263 1.385 . S
C264 C265 1.389 . S
C265 C264 1.389 . S
C265 C266 1.387 . S
C266 H251 0.930 . S
C266 C261 1.390 . S
C266 C265 1.387 . S
H267 C279 0.930 . S
H268 C281 0.930 . S
H269 C282 0.930 . S
H270 C286 0.959 . S
H271 C286 0.959 . S
H272 C286 0.961 . S
H273 C287 0.960 . S
H274 C287 0.961 . S
H275 C287 0.959 . S
H276 C290 0.929 . S
H277 C291 0.931 . S
H278 C293 0.930 . S
C279 H267 0.930 . S
C279 C280 1.399 . S
C279 C284 1.399 . S
C280 C279 1.399 . S
C280 C281 1.376 . S
C281 H268 0.930 . S
C281 C280 1.376 . S
C281 C282 1.388 . S
C282 H269 0.930 . S
C282 C281 1.388 . S
C282 C283 1.390 . S
C283 C282 1.390 . S
C283 C284 1.394 . S
C283 C289 1.465 . S
C284 C279 1.399 . S
C284 C283 1.394 . S
C284 C285 1.516 . S
C285 C284 1.516 . S
C285 C286 1.502 . S
C285 C287 1.561 . S
C285 C288 1.526 . S
C286 H270 0.959 . S
C286 H271 0.959 . S
C286 H272 0.961 . S
C286 C285 1.502 . S
C287 H273 0.960 . S
C287 H274 0.961 . S
C287 H275 0.959 . S
C287 C285 1.561 . S
C288 C285 1.526 . S
C288 C289 1.396 . S
C288 C293 1.390 . S
C289 C283 1.465 . S
C289 C288 1.396 . S
C289 C290 1.399 . S
C290 H276 0.929 . S
C290 C289 1.399 . S
C290 C291 1.385 . S
C291 H277 0.931 . S
C291 C290 1.385 . S
C291 C292 1.389 . S
C292 C291 1.389 . S
C292 C293 1.387 . S
C293 H278 0.930 . S
C293 C288 1.390 . S
C293 C292 1.387 . S
H294 C306 0.930 . S
H295 C308 0.930 . S
H296 C309 0.930 . S
H297 C313 0.959 . S
H298 C313 0.959 . S
H299 C313 0.961 . S
H300 C314 0.960 . S
H301 C314 0.961 . S
H302 C314 0.959 . S
H303 C317 0.929 . S
H304 C318 0.931 . S
H305 C320 0.930 . S
C306 H294 0.930 . S
C306 C307 1.399 . S
C306 C311 1.399 . S
C307 C306 1.399 . S
C307 C308 1.376 . S
C308 H295 0.930 . S
C308 C307 1.376 . S
C308 C309 1.388 . S
C309 H296 0.930 . S
C309 C308 1.388 . S
C309 C310 1.390 . S
C310 C309 1.390 . S
C310 C311 1.394 . S
C310 C316 1.465 . S
C311 C306 1.399 . S
C311 C310 1.394 . S
C311 C312 1.516 . S
C312 C311 1.516 . S
C312 C313 1.502 . S
C312 C314 1.561 . S
C312 C315 1.526 . S
C313 H297 0.959 . S
C313 H298 0.959 . S
C313 H299 0.961 . S
C313 C312 1.502 . S
C314 H300 0.960 . S
C314 H301 0.961 . S
C314 H302 0.959 . S
C314 C312 1.561 . S
C315 C312 1.526 . S
C315 C316 1.396 . S
C315 C320 1.390 . S
C316 C310 1.465 . S
C316 C315 1.396 . S
C316 C317 1.399 . S
C317 H303 0.929 . S
C317 C316 1.399 . S
C317 C318 1.385 . S
C318 H304 0.931 . S
C318 C317 1.385 . S
C318 C319 1.389 . S
C319 C318 1.389 . S
C319 C320 1.387 . S
C320 H305 0.930 . S
C320 C315 1.390 . S
C320 C319 1.387 . S
H321 C333 0.930 . S
H322 C335 0.930 . S
H323 C336 0.930 . S
H324 C340 0.959 . S
H325 C340 0.959 . S
H326 C340 0.961 . S
H327 C341 0.960 . S
H328 C341 0.961 . S
H329 C341 0.959 . S
H330 C344 0.929 . S
H331 C345 0.931 . S
H332 C347 0.930 . S
C333 H321 0.930 . S
C333 C334 1.399 . S
C333 C338 1.399 . S
C334 C333 1.399 . S
C334 C335 1.376 . S
C335 H322 0.930 . S
C335 C334 1.376 . S
C335 C336 1.388 . S
C336 H323 0.930 . S
C336 C335 1.388 . S
C336 C337 1.390 . S
C337 C336 1.390 . S
C337 C338 1.394 . S
C337 C343 1.465 . S
C338 C333 1.399 . S
C338 C337 1.394 . S
C338 C339 1.516 . S
C339 C338 1.516 . S
C339 C340 1.502 . S
C339 C341 1.561 . S
C339 C342 1.526 . S
C340 H324 0.959 . S
C340 H325 0.959 . S
C340 H326 0.961 . S
C340 C339 1.502 . S
C341 H327 0.960 . S
C341 H328 0.961 . S
C341 H329 0.959 . S
C341 C339 1.561 . S
C342 C339 1.526 . S
C342 C343 1.396 . S
C342 C347 1.390 . S
C343 C337 1.465 . S
C343 C342 1.396 . S
C343 C344 1.399 . S
C344 H330 0.929 . S
C344 C343 1.399 . S
C344 C345 1.385 . S
C345 H331 0.931 . S
C345 C344 1.385 . S
C345 C346 1.389 . S
C346 C345 1.389 . S
C346 C347 1.387 . S
C347 H332 0.930 . S
C347 C342 1.390 . S
C347 C346 1.387 . S
H348 C360 0.930 . S
H349 C362 0.930 . S
H350 C363 0.930 . S
H351 C367 0.959 . S
H352 C367 0.959 . S
H353 C367 0.961 . S
H354 C368 0.960 . S
H355 C368 0.961 . S
H356 C368 0.959 . S
H357 C371 0.929 . S
H358 C372 0.931 . S
H359 C374 0.930 . S
C360 H348 0.930 . S
C360 C361 1.399 . S
C360 C365 1.399 . S
C361 C360 1.399 . S
C361 C362 1.376 . S
C362 H349 0.930 . S
C362 C361 1.376 . S
C362 C363 1.388 . S
C363 H350 0.930 . S
C363 C362 1.388 . S
C363 C364 1.390 . S
C364 C363 1.390 . S
C364 C365 1.394 . S
C364 C370 1.465 . S
C365 C360 1.399 . S
C365 C364 1.394 . S
C365 C366 1.516 . S
C366 C365 1.516 . S
C366 C367 1.502 . S
C366 C368 1.561 . S
C366 C369 1.526 . S
C367 H351 0.959 . S
C367 H352 0.959 . S
C367 H353 0.961 . S
C367 C366 1.502 . S
C368 H354 0.960 . S
C368 H355 0.961 . S
C368 H356 0.959 . S
C368 C366 1.561 . S
C369 C366 1.526 . S
C369 C370 1.396 . S
C369 C374 1.390 . S
C370 C364 1.465 . S
C370 C369 1.396 . S
C370 C371 1.399 . S
C371 H357 0.929 . S
C371 C370 1.399 . S
C371 C372 1.385 . S
C372 H358 0.931 . S
C372 C371 1.385 . S
C372 C373 1.389 . S
C373 C372 1.389 . S
C373 C374 1.387 . S
C374 H359 0.930 . S
C374 C369 1.390 . S
C374 C373 1.387 . S
H375 C387 0.930 . S
H376 C389 0.930 . S
H377 C390 0.930 . S
H378 C394 0.959 . S
H379 C394 0.959 . S
H380 C394 0.961 . S
H381 C395 0.960 . S
H382 C395 0.961 . S
H383 C395 0.959 . S
H384 C398 0.929 . S
H385 C399 0.931 . S
H386 C401 0.930 . S
C387 H375 0.930 . S
C387 C388 1.399 . S
C387 C392 1.399 . S
C388 C387 1.399 . S
C388 C389 1.376 . S
C389 H376 0.930 . S
C389 C388 1.376 . S
C389 C390 1.388 . S
C390 H377 0.930 . S
C390 C389 1.388 . S
C390 C391 1.390 . S
C391 C390 1.390 . S
C391 C392 1.394 . S
C391 C397 1.465 . S
C392 C387 1.399 . S
C392 C391 1.394 . S
C392 C393 1.516 . S
C393 C392 1.516 . S
C393 C394 1.502 . S
C393 C395 1.561 . S
C393 C396 1.526 . S
C394 H378 0.959 . S
C394 H379 0.959 . S
C394 H380 0.961 . S
C394 C393 1.502 . S
C395 H381 0.960 . S
C395 H382 0.961 . S
C395 H383 0.959 . S
C395 C393 1.561 . S
C396 C393 1.526 . S
C396 C397 1.396 . S
C396 C401 1.390 . S
C397 C391 1.465 . S
C397 C396 1.396 . S
C397 C398 1.399 . S
C398 H384 0.929 . S
C398 C397 1.399 . S
C398 C399 1.385 . S
C399 H385 0.931 . S
C399 C398 1.385 . S
C399 C400 1.389 . S
C400 C399 1.389 . S
C400 C401 1.387 . S
C401 H386 0.930 . S
C401 C396 1.390 . S
C401 C400 1.387 . S
H402 C414 0.930 . S
H403 C416 0.930 . S
H404 C417 0.930 . S
H405 C421 0.959 . S
H406 C421 0.959 . S
H407 C421 0.961 . S
H408 C422 0.960 . S
H409 C422 0.961 . S
H410 C422 0.959 . S
H411 C425 0.929 . S
H412 C426 0.931 . S
H413 C428 0.930 . S
C414 H402 0.930 . S
C414 C415 1.399 . S
C414 C419 1.399 . S
C415 C414 1.399 . S
C415 C416 1.376 . S
C416 H403 0.930 . S
C416 C415 1.376 . S
C416 C417 1.388 . S
C417 H404 0.930 . S
C417 C416 1.388 . S
C417 C418 1.390 . S
C418 C417 1.390 . S
C418 C419 1.394 . S
C418 C424 1.465 . S
C419 C414 1.399 . S
C419 C418 1.394 . S
C419 C420 1.516 . S
C420 C419 1.516 . S
C420 C421 1.502 . S
C420 C422 1.561 . S
C420 C423 1.526 . S
C421 H405 0.959 . S
C421 H406 0.959 . S
C421 H407 0.961 . S
C421 C420 1.502 . S
C422 H408 0.960 . S
C422 H409 0.961 . S
C422 H410 0.959 . S
C422 C420 1.561 . S
C423 C420 1.526 . S
C423 C424 1.396 . S
C423 C428 1.390 . S
C424 C418 1.465 . S
C424 C423 1.396 . S
C424 C425 1.399 . S
C425 H411 0.929 . S
C425 C424 1.399 . S
C425 C426 1.385 . S
C426 H412 0.931 . S
C426 C425 1.385 . S
C426 C427 1.389 . S
C427 C426 1.389 . S
C427 C428 1.387 . S
C428 H413 0.930 . S
C428 C423 1.390 . S
C428 C427 1.387 . S
H429 C441 0.930 . S
H430 C443 0.930 . S
H431 C444 0.930 . S
H432 C448 0.959 . S
H433 C448 0.959 . S
H434 C448 0.961 . S
H435 C449 0.960 . S
H436 C449 0.961 . S
H437 C449 0.959 . S
H438 C452 0.929 . S
H439 C453 0.931 . S
H440 C455 0.930 . S
C441 H429 0.930 . S
C441 C442 1.399 . S
C441 C446 1.399 . S
C442 C441 1.399 . S
C442 C443 1.376 . S
C443 H430 0.930 . S
C443 C442 1.376 . S
C443 C444 1.388 . S
C444 H431 0.930 . S
C444 C443 1.388 . S
C444 C445 1.390 . S
C445 C444 1.390 . S
C445 C446 1.394 . S
C445 C451 1.465 . S
C446 C441 1.399 . S
C446 C445 1.394 . S
C446 C447 1.516 . S
C447 C446 1.516 . S
C447 C448 1.502 . S
C447 C449 1.561 . S
C447 C450 1.526 . S
C448 H432 0.959 . S
C448 H433 0.959 . S
C448 H434 0.961 . S
C448 C447 1.502 . S
C449 H435 0.960 . S
C449 H436 0.961 . S
C449 H437 0.959 . S
C449 C447 1.561 . S
C450 C447 1.526 . S
C450 C451 1.396 . S
C450 C455 1.390 . S
C451 C445 1.465 . S
C451 C450 1.396 . S
C451 C452 1.399 . S
C452 H438 0.929 . S
C452 C451 1.399 . S
C452 C453 1.385 . S
C453 H439 0.931 . S
C453 C452 1.385 . S
C453 C454 1.389 . S
C454 C453 1.389 . S
C454 C455 1.387 . S
C455 H440 0.930 . S
C455 C450 1.390 . S
C455 C454 1.387 . S
H456 C468 0.930 . S
H457 C470 0.930 . S
H458 C471 0.930 . S
H459 C475 0.959 . S
H460 C475 0.959 . S
H461 C475 0.961 . S
H462 C476 0.960 . S
H463 C476 0.961 . S
H464 C476 0.959 . S
H465 C479 0.929 . S
H466 C480 0.931 . S
H467 C482 0.930 . S
C468 H456 0.930 . S
C468 C469 1.399 . S
C468 C473 1.399 . S
C469 C468 1.399 . S
C469 C470 1.376 . S
C470 H457 0.930 . S
C470 C469 1.376 . S
C470 C471 1.388 . S
C471 H458 0.930 . S
C471 C470 1.388 . S
C471 C472 1.390 . S
C472 C471 1.390 . S
C472 C473 1.394 . S
C472 C478 1.465 . S
C473 C468 1.399 . S
C473 C472 1.394 . S
C473 C474 1.516 . S
C474 C473 1.516 . S
C474 C475 1.502 . S
C474 C476 1.561 . S
C474 C477 1.526 . S
C475 H459 0.959 . S
C475 H460 0.959 . S
C475 H461 0.961 . S
C475 C474 1.502 . S
C476 H462 0.960 . S
C476 H463 0.961 . S
C476 H464 0.959 . S
C476 C474 1.561 . S
C477 C474 1.526 . S
C477 C478 1.396 . S
C477 C482 1.390 . S
C478 C472 1.465 . S
C478 C477 1.396 . S
C478 C479 1.399 . S
C479 H465 0.929 . S
C479 C478 1.399 . S
C479 C480 1.385 . S
C480 H466 0.931 . S
C480 C479 1.385 . S
C480 C481 1.389 . S
C481 C480 1.389 . S
C481 C482 1.387 . S
C482 H467 0.930 . S
C482 C477 1.390 . S
C482 C481 1.387 . S
H483 C495 0.930 . S
H484 C497 0.930 . S
H485 C498 0.930 . S
H486 C502 0.959 . S
H487 C502 0.959 . S
H488 C502 0.961 . S
H489 C503 0.960 . S
H490 C503 0.961 . S
H491 C503 0.959 . S
H492 C506 0.929 . S
H493 C507 0.931 . S
H494 C509 0.930 . S
C495 H483 0.930 . S
C495 C496 1.399 . S
C495 C500 1.399 . S
C496 C495 1.399 . S
C496 C497 1.376 . S
C497 H484 0.930 . S
C497 C496 1.376 . S
C497 C498 1.388 . S
C498 H485 0.930 . S
C498 C497 1.388 . S
C498 C499 1.390 . S
C499 C498 1.390 . S
C499 C500 1.394 . S
C499 C505 1.465 . S
C500 C495 1.399 . S
C500 C499 1.394 . S
C500 C501 1.516 . S
C501 C500 1.516 . S
C501 C502 1.502 . S
C501 C503 1.561 . S
C501 C504 1.526 . S
C502 H486 0.959 . S
C502 H487 0.959 . S
C502 H488 0.961 . S
C502 C501 1.502 . S
C503 H489 0.960 . S
C503 H490 0.961 . S
C503 H491 0.959 . S
C503 C501 1.561 . S
C504 C501 1.526 . S
C504 C505 1.396 . S
C504 C509 1.390 . S
C505 C499 1.465 . S
C505 C504 1.396 . S
C505 C506 1.399 . S
C506 H492 0.929 . S
C506 C505 1.399 . S
C506 C507 1.385 . S
C507 H493 0.931 . S
C507 C506 1.385 . S
C507 C508 1.389 . S
C508 C507 1.389 . S
C508 C509 1.387 . S
C509 H494 0.930 . S
C509 C504 1.390 . S
C509 C508 1.387 . S
H510 C522 0.930 . S
H511 C524 0.930 . S
H512 C525 0.930 . S
H513 C529 0.959 . S
H514 C529 0.959 1_556 S
H515 C529 0.961 . S
H516 C530 0.960 . S
H517 C530 0.961 1_556 S
H518 C530 0.959 . S
H519 C533 0.929 . S
H520 C534 0.931 . S
H521 C536 0.930 . S
C522 H510 0.930 . S
C522 C523 1.399 . S
C522 C527 1.399 . S
C523 C522 1.399 . S
C523 C524 1.376 . S
C524 H511 0.930 . S
C524 C523 1.376 . S
C524 C525 1.388 . S
C525 H512 0.930 . S
C525 C524 1.388 . S
C525 C526 1.390 . S
C526 C525 1.390 . S
C526 C527 1.394 . S
C526 C532 1.465 . S
C527 C522 1.399 . S
C527 C526 1.394 . S
C527 C528 1.516 . S
C528 C527 1.516 . S
C528 C529 1.502 . S
C528 C530 1.561 1_455 S
C528 C531 1.526 1_554 S
C529 H513 0.959 . S
C529 H514 0.959 1_554 S
C529 H515 0.961 . S
C529 C528 1.502 . S
C530 H516 0.960 . S
C530 H517 0.961 1_554 S
C530 H518 0.959 . S
C530 C528 1.561 1_655 S
C531 C528 1.526 1_556 S
C531 C532 1.396 1_556 S
C531 C536 1.390 . S
C532 C526 1.465 . S
C532 C531 1.396 1_554 S
C532 C533 1.399 1_554 S
C533 H519 0.929 . S
C533 C532 1.399 1_556 S
C533 C534 1.385 . S
C534 H520 0.931 . S
C534 C533 1.385 . S
C534 C535 1.389 . S
C535 C534 1.389 . S
C535 C536 1.387 . S
C536 H521 0.930 . S
C536 C531 1.390 . S
C536 C535 1.387 . S
H537 C549 0.930 . S
H538 C551 0.930 . S
H539 C552 0.930 . S
H540 C556 0.959 . S
H541 C556 0.959 . S
H542 C556 0.961 . S
H543 C557 0.960 . S
H544 C557 0.961 . S
H545 C557 0.959 . S
H546 C560 0.929 . S
H547 C561 0.931 . S
H548 C563 0.930 . S
C549 H537 0.930 . S
C549 C550 1.399 1_565 S
C549 C554 1.399 . S
C550 C549 1.399 1_545 S
C550 C551 1.376 . S
C551 H538 0.930 . S
C551 C550 1.376 . S
C551 C552 1.388 . S
C552 H539 0.930 . S
C552 C551 1.388 . S
C552 C553 1.390 . S
C553 C552 1.390 . S
C553 C554 1.394 1_545 S
C553 C559 1.465 . S
C554 C549 1.399 . S
C554 C553 1.394 1_565 S
C554 C555 1.516 . S
C555 C554 1.516 . S
C555 C556 1.502 . S
C555 C557 1.561 . S
C555 C558 1.526 . S
C556 H540 0.959 . S
C556 H541 0.959 . S
C556 H542 0.961 . S
C556 C555 1.502 . S
C557 H543 0.960 . S
C557 H544 0.961 . S
C557 H545 0.959 . S
C557 C555 1.561 . S
C558 C555 1.526 . S
C558 C559 1.396 1_565 S
C558 C563 1.390 . S
C559 C553 1.465 . S
C559 C558 1.396 1_545 S
C559 C560 1.399 . S
C560 H546 0.929 . S
C560 C559 1.399 . S
C560 C561 1.385 . S
C561 H547 0.931 . S
C561 C560 1.385 . S
C561 C562 1.389 . S
C562 C561 1.389 . S
C562 C563 1.387 1_545 S
C563 H548 0.930 . S
C563 C558 1.390 . S
C563 C562 1.387 1_565 S
H564 C576 0.930 . S
H565 C578 0.930 . S
H566 C579 0.930 . S
H567 C583 0.959 . S
H568 C583 0.959 . S
H569 C583 0.961 . S
H570 C584 0.960 . S
H571 C584 0.961 . S
H572 C584 0.959 . S
H573 C587 0.929 . S
H574 C588 0.931 . S
H575 C590 0.930 . S
C576 H564 0.930 . S
C576 C577 1.399 . S
C576 C581 1.399 . S
C577 C576 1.399 . S
C577 C578 1.376 . S
C578 H565 0.930 . S
C578 C577 1.376 . S
C578 C579 1.388 . S
C579 H566 0.930 . S
C579 C578 1.388 . S
C579 C580 1.390 . S
C580 C579 1.390 . S
C580 C581 1.394 . S
C580 C586 1.465 . S
C581 C576 1.399 . S
C581 C580 1.394 . S
C581 C582 1.516 . S
C582 C581 1.516 . S
C582 C583 1.502 . S
C582 C584 1.561 . S
C582 C585 1.526 . S
C583 H567 0.959 . S
C583 H568 0.959 . S
C583 H569 0.961 . S
C583 C582 1.502 . S
C584 H570 0.960 . S
C584 H571 0.961 . S
C584 H572 0.959 . S
C584 C582 1.561 . S
C585 C582 1.526 . S
C585 C586 1.396 . S
C585 C590 1.390 . S
C586 C580 1.465 . S
C586 C585 1.396 . S
C586 C587 1.399 . S
C587 H573 0.929 . S
C587 C586 1.399 . S
C587 C588 1.385 . S
C588 H574 0.931 . S
C588 C587 1.385 . S
C588 C589 1.389 . S
C589 C588 1.389 . S
C589 C590 1.387 . S
C590 H575 0.930 . S
C590 C585 1.390 . S
C590 C589 1.387 . S
H591 C603 0.930 . S
H592 C605 0.930 . S
H593 C606 0.930 . S
H594 C610 0.959 . S
H595 C610 0.959 . S
H596 C610 0.961 . S
H597 C611 0.960 . S
H598 C611 0.961 . S
H599 C611 0.959 . S
H600 C614 0.929 . S
H601 C615 0.931 . S
H602 C617 0.930 . S
C603 H591 0.930 . S
C603 C604 1.399 1_565 S
C603 C608 1.399 . S
C604 C603 1.399 1_545 S
C604 C605 1.376 . S
C605 H592 0.930 . S
C605 C604 1.376 . S
C605 C606 1.388 . S
C606 H593 0.930 . S
C606 C605 1.388 . S
C606 C607 1.390 . S
C607 C606 1.390 . S
C607 C608 1.394 1_545 S
C607 C613 1.465 . S
C608 C603 1.399 . S
C608 C607 1.394 1_565 S
C608 C609 1.516 . S
C609 C608 1.516 . S
C609 C610 1.502 . S
C609 C611 1.561 . S
C609 C612 1.526 . S
C610 H594 0.959 . S
C610 H595 0.959 . S
C610 H596 0.961 . S
C610 C609 1.502 . S
C611 H597 0.960 . S
C611 H598 0.961 . S
C611 H599 0.959 . S
C611 C609 1.561 . S
C612 C609 1.526 . S
C612 C613 1.396 1_565 S
C612 C617 1.390 . S
C613 C607 1.465 . S
C613 C612 1.396 1_545 S
C613 C614 1.399 . S
C614 H600 0.929 . S
C614 C613 1.399 . S
C614 C615 1.385 . S
C615 H601 0.931 . S
C615 C614 1.385 . S
C615 C616 1.389 . S
C616 C615 1.389 . S
C616 C617 1.387 1_545 S
C617 H602 0.930 . S
C617 C612 1.390 . S
C617 C616 1.387 1_565 S
H618 C630 0.930 . S
H619 C632 0.930 . S
H620 C633 0.930 . S
H621 C637 0.959 . S
H622 C637 0.959 . S
H623 C637 0.961 . S
H624 C638 0.960 . S
H625 C638 0.961 . S
H626 C638 0.959 . S
H627 C641 0.929 . S
H628 C642 0.931 . S
H629 C644 0.930 . S
C630 H618 0.930 . S
C630 C631 1.399 . S
C630 C635 1.399 . S
C631 C630 1.399 . S
C631 C632 1.376 . S
C632 H619 0.930 . S
C632 C631 1.376 . S
C632 C633 1.388 . S
C633 H620 0.930 . S
C633 C632 1.388 . S
C633 C634 1.390 . S
C634 C633 1.390 . S
C634 C635 1.394 . S
C634 C640 1.465 . S
C635 C630 1.399 . S
C635 C634 1.394 . S
C635 C636 1.516 . S
C636 C635 1.516 . S
C636 C637 1.502 . S
C636 C638 1.561 . S
C636 C639 1.526 . S
C637 H621 0.959 . S
C637 H622 0.959 . S
C637 H623 0.961 . S
C637 C636 1.502 . S
C638 H624 0.960 . S
C638 H625 0.961 . S
C638 H626 0.959 . S
C638 C636 1.561 . S
C639 C636 1.526 . S
C639 C640 1.396 . S
C639 C644 1.390 1_556 S
C640 C634 1.465 . S
C640 C639 1.396 . S
C640 C641 1.399 1_556 S
C641 H627 0.929 . S
C641 C640 1.399 1_554 S
C641 C642 1.385 . S
C642 H628 0.931 . S
C642 C641 1.385 . S
C642 C643 1.389 . S
C643 C642 1.389 . S
C643 C644 1.387 . S
C644 H629 0.930 . S
C644 C639 1.390 1_554 S
C644 C643 1.387 . S
H645 C657 0.930 . S
H646 C659 0.930 . S
H647 C660 0.930 . S
H648 C664 0.959 . S
H649 C664 0.959 . S
H650 C664 0.961 . S
H651 C665 0.960 . S
H652 C665 0.961 . S
H653 C665 0.959 . S
H654 C668 0.929 . S
H655 C669 0.931 . S
H656 C671 0.930 . S
C657 H645 0.930 . S
C657 C658 1.399 . S
C657 C662 1.399 . S
C658 C657 1.399 . S
C658 C659 1.376 1_455 S
C659 H646 0.930 . S
C659 C658 1.376 1_655 S
C659 C660 1.388 . S
C660 H647 0.930 . S
C660 C659 1.388 . S
C660 C661 1.390 . S
C661 C660 1.390 . S
C661 C662 1.394 1_655 S
C661 C667 1.465 . S
C662 C657 1.399 . S
C662 C661 1.394 1_455 S
C662 C663 1.516 . S
C663 C662 1.516 . S
C663 C664 1.502 . S
C663 C665 1.561 . S
C663 C666 1.526 . S
C664 H648 0.959 . S
C664 H649 0.959 . S
C664 H650 0.961 . S
C664 C663 1.502 . S
C665 H651 0.960 . S
C665 H652 0.961 . S
C665 H653 0.959 . S
C665 C663 1.561 . S
C666 C663 1.526 . S
C666 C667 1.396 1_455 S
C666 C671 1.390 . S
C667 C661 1.465 . S
C667 C666 1.396 1_655 S
C667 C668 1.399 . S
C668 H654 0.929 . S
C668 C667 1.399 . S
C668 C669 1.385 . S
C669 H655 0.931 . S
C669 C668 1.385 . S
C669 C670 1.389 . S
C670 C669 1.389 . S
C670 C671 1.387 1_655 S
C671 H656 0.930 . S
C671 C666 1.390 . S
C671 C670 1.387 1_455 S
C199 C6 0.711 . S
C211 C180 0.775 . S
C226 C59 2.031 . S
C238 C158 1.750 . S
C253 C86 1.068 . S
C265 C172 0.995 . S
C280 C15 0.474 . S
C292 C183 0.324 . S
C319 C161 1.813 . S
C307 C50 1.852 . S
C346 C169 1.233 . S
C334 C95 1.405 . S
C361 C46 1.341 . S
C373 C136 1.059 . S
C388 C99 3.275 . S
C400 C147 2.904 . S
C415 C10 2.069 . S
C427 C125 1.806 . S
C454 C139 1.046 . S
C442 C55 1.070 . S
C481 C150 2.836 . S
C469 C90 2.886 . S
C496 C19 1.771 . S
C508 C128 1.710 . S
C535 C149 1.687 . S
C523 C18 1.608 . S
C550 C49 1.438 . S
C562 C127 1.394 . S
C577 C98 1.503 . S
C589 C138 1.495 . S
C616 C171 1.428 . S
C604 C58 1.465 . S
C643 C182 1.133 . S
C631 C89 1.191 . S
C658 C9 1.417 . S
C670 C160 1.418 . S
