# Generated by pormake.
# Topology soc, (4,6)-cn, num edge types: 1
# Building blocks:
#     Node 0, Type 0, BuildingBlock: ESEHIV_clean_sbu_0, # of connection points: 4
#     Node 1, Type 0, BuildingBlock: ESEHIV_clean_sbu_0, # of connection points: 4
#     Node 2, Type 0, BuildingBlock: ESEHIV_clean_sbu_0, # of connection points: 4
#     Node 3, Type 0, BuildingBlock: ESEHIV_clean_sbu_0, # of connection points: 4
#     Node 4, Type 0, BuildingBlock: ESEHIV_clean_sbu_0, # of connection points: 4
#     Node 5, Type 0, BuildingBlock: ESEHIV_clean_sbu_0, # of connection points: 4
#     Node 6, Type 0, BuildingBlock: ESEHIV_clean_sbu_0, # of connection points: 4
#     Node 7, Type 0, BuildingBlock: ESEHIV_clean_sbu_0, # of connection points: 4
#     Node 8, Type 0, BuildingBlock: ESEHIV_clean_sbu_0, # of connection points: 4
#     Node 9, Type 0, BuildingBlock: ESEHIV_clean_sbu_0, # of connection points: 4
#     Node 10, Type 0, BuildingBlock: ESEHIV_clean_sbu_0, # of connection points: 4
#     Node 11, Type 0, BuildingBlock: ESEHIV_clean_sbu_0, # of connection points: 4
#     Node 12, Type 1, BuildingBlock: PAMTOO_clean_sbu_0, # of connection points: 6
#     Node 13, Type 1, BuildingBlock: PAMTOO_clean_sbu_0, # of connection points: 6
#     Node 14, Type 1, BuildingBlock: PAMTOO_clean_sbu_0, # of connection points: 6
#     Node 15, Type 1, BuildingBlock: PAMTOO_clean_sbu_0, # of connection points: 6
#     Node 16, Type 1, BuildingBlock: PAMTOO_clean_sbu_0, # of connection points: 6
#     Node 17, Type 1, BuildingBlock: PAMTOO_clean_sbu_0, # of connection points: 6
#     Node 18, Type 1, BuildingBlock: PAMTOO_clean_sbu_0, # of connection points: 6
#     Node 19, Type 1, BuildingBlock: PAMTOO_clean_sbu_0, # of connection points: 6
#     Edge 20, Type (0, 1), BuildingBlock: TEMPAE_clean_linker_10, # of connection points: 2
#     Edge 21, Type (0, 1), BuildingBlock: TEMPAE_clean_linker_10, # of connection points: 2
#     Edge 22, Type (0, 1), BuildingBlock: TEMPAE_clean_linker_10, # of connection points: 2
#     Edge 23, Type (0, 1), BuildingBlock: TEMPAE_clean_linker_10, # of connection points: 2
#     Edge 24, Type (0, 1), BuildingBlock: TEMPAE_clean_linker_10, # of connection points: 2
#     Edge 25, Type (0, 1), BuildingBlock: TEMPAE_clean_linker_10, # of connection points: 2
#     Edge 26, Type (0, 1), BuildingBlock: TEMPAE_clean_linker_10, # of connection points: 2
#     Edge 27, Type (0, 1), BuildingBlock: TEMPAE_clean_linker_10, # of connection points: 2
#     Edge 28, Type (0, 1), BuildingBlock: TEMPAE_clean_linker_10, # of connection points: 2
#     Edge 29, Type (0, 1), BuildingBlock: TEMPAE_clean_linker_10, # of connection points: 2
#     Edge 30, Type (0, 1), BuildingBlock: TEMPAE_clean_linker_10, # of connection points: 2
#     Edge 31, Type (0, 1), BuildingBlock: TEMPAE_clean_linker_10, # of connection points: 2
#     Edge 32, Type (0, 1), BuildingBlock: TEMPAE_clean_linker_10, # of connection points: 2
#     Edge 33, Type (0, 1), BuildingBlock: TEMPAE_clean_linker_10, # of connection points: 2
#     Edge 34, Type (0, 1), BuildingBlock: TEMPAE_clean_linker_10, # of connection points: 2
#     Edge 35, Type (0, 1), BuildingBlock: TEMPAE_clean_linker_10, # of connection points: 2
#     Edge 36, Type (0, 1), BuildingBlock: TEMPAE_clean_linker_10, # of connection points: 2
#     Edge 37, Type (0, 1), BuildingBlock: TEMPAE_clean_linker_10, # of connection points: 2
#     Edge 38, Type (0, 1), BuildingBlock: TEMPAE_clean_linker_10, # of connection points: 2
#     Edge 39, Type (0, 1), BuildingBlock: TEMPAE_clean_linker_10, # of connection points: 2
#     Edge 40, Type (0, 1), BuildingBlock: TEMPAE_clean_linker_10, # of connection points: 2
#     Edge 41, Type (0, 1), BuildingBlock: TEMPAE_clean_linker_10, # of connection points: 2
#     Edge 42, Type (0, 1), BuildingBlock: TEMPAE_clean_linker_10, # of connection points: 2
#     Edge 43, Type (0, 1), BuildingBlock: TEMPAE_clean_linker_10, # of connection points: 2
#     Edge 44, Type (0, 1), BuildingBlock: TEMPAE_clean_linker_10, # of connection points: 2
#     Edge 45, Type (0, 1), BuildingBlock: TEMPAE_clean_linker_10, # of connection points: 2
#     Edge 46, Type (0, 1), BuildingBlock: TEMPAE_clean_linker_10, # of connection points: 2
#     Edge 47, Type (0, 1), BuildingBlock: TEMPAE_clean_linker_10, # of connection points: 2
#     Edge 48, Type (0, 1), BuildingBlock: TEMPAE_clean_linker_10, # of connection points: 2
#     Edge 49, Type (0, 1), BuildingBlock: TEMPAE_clean_linker_10, # of connection points: 2
#     Edge 50, Type (0, 1), BuildingBlock: TEMPAE_clean_linker_10, # of connection points: 2
#     Edge 51, Type (0, 1), BuildingBlock: TEMPAE_clean_linker_10, # of connection points: 2
#     Edge 52, Type (0, 1), BuildingBlock: TEMPAE_clean_linker_10, # of connection points: 2
#     Edge 53, Type (0, 1), BuildingBlock: TEMPAE_clean_linker_10, # of connection points: 2
#     Edge 54, Type (0, 1), BuildingBlock: TEMPAE_clean_linker_10, # of connection points: 2
#     Edge 55, Type (0, 1), BuildingBlock: TEMPAE_clean_linker_10, # of connection points: 2
#     Edge 56, Type (0, 1), BuildingBlock: TEMPAE_clean_linker_10, # of connection points: 2
#     Edge 57, Type (0, 1), BuildingBlock: TEMPAE_clean_linker_10, # of connection points: 2
#     Edge 58, Type (0, 1), BuildingBlock: TEMPAE_clean_linker_10, # of connection points: 2
#     Edge 59, Type (0, 1), BuildingBlock: TEMPAE_clean_linker_10, # of connection points: 2
#     Edge 60, Type (0, 1), BuildingBlock: TEMPAE_clean_linker_10, # of connection points: 2
#     Edge 61, Type (0, 1), BuildingBlock: TEMPAE_clean_linker_10, # of connection points: 2
#     Edge 62, Type (0, 1), BuildingBlock: TEMPAE_clean_linker_10, # of connection points: 2
#     Edge 63, Type (0, 1), BuildingBlock: TEMPAE_clean_linker_10, # of connection points: 2
#     Edge 64, Type (0, 1), BuildingBlock: TEMPAE_clean_linker_10, # of connection points: 2
#     Edge 65, Type (0, 1), BuildingBlock: TEMPAE_clean_linker_10, # of connection points: 2
#     Edge 66, Type (0, 1), BuildingBlock: TEMPAE_clean_linker_10, # of connection points: 2
#     Edge 67, Type (0, 1), BuildingBlock: TEMPAE_clean_linker_10, # of connection points: 2
# Relax obj value: 0.106
# Max RMSD: 0.216
# Mean RMSD: 0.144
data_MOF--net-soc--node1-ESEHIV_clean_sbu_0--node2-PAMTOO_clean_sbu_0--edge1-TEMPAE_clean_linker_10
_symmetry_space_group_name_H-M    P1
_symmetry_Int_Tables_number       1
_symmetry_cell_setting            triclinic
loop_
_symmetry_equiv_pos_as_xyz
'x, y, z'
_cell_length_a     57.922784
_cell_length_b     45.608403
_cell_length_c     43.549316
_cell_angle_alpha  91.988169
_cell_angle_beta   91.935061
_cell_angle_gamma 71.11061
loop_
_atom_site_label
_atom_site_type_symbol
_atom_site_fract_x
_atom_site_fract_y
_atom_site_fract_z
_atom_type_partial_charge
Cu0 Cu 0.05921 0.02207 0.32179 0.0
N1 N 0.07697 0.04242 0.34599 0.0
N2 N 0.10142 0.07049 0.35836 0.0
C3 C 0.08888 0.06089 0.33564 0.0
C4 C 0.09685 0.05788 0.38413 0.0
C5 C 0.08176 0.04066 0.37645 0.0
O6 O 0.08297 0.98973 0.29791 0.0
C7 C 0.02059 0.07656 0.31593 0.0
O8 O 0.02731 0.07863 0.34482 0.0
H9 H 0.08822 0.06726 0.31187 0.0
H10 H 0.07504 0.02754 0.39201 0.0
N11 N 0.04486 1.00039 0.34632 0.0
N12 N 0.02019 0.97406 0.35892 0.0
C13 C 0.02318 0.99597 0.34083 0.0
C14 C 0.05598 0.98059 0.36856 0.0
C15 C 0.04075 0.96449 0.37653 0.0
C16 C 0.09942 0.993 0.28095 0.0
O17 O 0.09851 0.02094 0.27329 0.0
H18 H 0.01073 1.00685 0.32233 0.0
H19 H 0.0745 0.97662 0.37693 0.0
O20 O 0.03265 0.05297 0.29978 0.0
H21 H 0.10439 0.06014 0.40682 0.0
H22 H 0.04496 0.94619 0.39305 0.0
Cu23 Cu 0.04914 0.035 0.71821 0.0
N24 N 0.03395 0.01199 0.69357 0.0
N25 N 0.01004 0.98321 0.68183 0.0
C26 C 0.01795 0.9992 0.70409 0.0
C27 C 0.02151 0.98613 0.6562 0.0
C28 C 0.03634 1.00384 0.66354 0.0
O29 O 0.02277 0.06627 0.74014 0.0
C30 C 0.09045 0.9853 0.7249 0.0
O31 O 0.08699 0.98729 0.69498 0.0
H32 H 0.01217 1.00179 0.72769 0.0
H33 H 0.04835 0.00973 0.64821 0.0
N34 N 0.06488 0.05622 0.69509 0.0
N35 N 0.09104 0.08128 0.68521 0.0
C36 C 0.08337 0.06557 0.70613 0.0
C37 C 0.06062 0.06633 0.66611 0.0
C38 C 0.07674 0.08185 0.65996 0.0
C39 C 0.00683 0.08384 0.72197 0.0
O40 O 0.0099 0.07898 0.69226 0.0
H41 H 0.09059 0.06154 0.72941 0.0
H42 H 0.04657 0.06314 0.65068 0.0
O43 O 0.07517 1.00511 0.74202 0.0
H44 H 0.01981 0.97559 0.63395 0.0
H45 H 0.07784 0.09266 0.63856 0.0
Cu46 Cu 0.31999 0.01727 0.03294 0.0
N47 N 0.33801 0.97873 0.01685 0.0
N48 N 0.34683 0.93711 0.98547 0.0
C49 C 0.32989 0.96403 0.99385 0.0
C50 C 0.36643 0.93469 1.00409 0.0
C51 C 0.36099 0.96062 0.02333 0.0
O52 O 0.28725 0.01589 0.04055 0.0
C53 C 0.3027 0.07182 0.99304 0.0
O54 O 0.28156 0.07757 1.00619 0.0
H55 H 0.31179 0.97302 0.98354 0.0
H56 H 0.3731 0.96612 0.04033 0.0
N57 N 0.33314 0.02552 0.07058 0.0
N58 N 0.3386 0.05159 0.11306 0.0
C59 C 0.32904 0.05362 0.08418 0.0
C60 C 0.34551 1.00497 0.09161 0.0
C61 C 0.3491 0.02099 0.11776 0.0
C62 C 0.27749 1.0026 0.05945 0.0
O63 O 0.25362 0.00967 0.0579 0.0
H64 H 0.3187 0.07505 0.07332 0.0
H65 H 0.35056 0.98007 0.0887 0.0
O66 O 0.32054 0.04834 1.00171 0.0
H67 H 0.38365 0.91602 1.00327 0.0
H68 H 0.3577 0.01087 0.13907 0.0
Cu69 Cu 0.09518 0.33751 0.03525 0.0
N70 N 0.11143 0.35641 0.00996 0.0
N71 N 0.13682 0.36206 0.97476 0.0
C72 C 0.12703 0.3424 0.98761 0.0
C73 C 0.12662 0.38968 0.98922 0.0
C74 C 0.111 0.38611 0.01096 0.0
O75 O 0.11807 0.31482 0.06735 0.0
C76 C 0.06445 0.30033 0.01746 0.0
O77 O 0.06494 0.29393 0.04672 0.0
H78 H 0.13137 0.3181 0.9812 0.0
H79 H 0.10048 0.40377 0.02681 0.0
N80 N 0.07119 0.36778 0.05694 0.0
N81 N 0.03682 0.38731 0.08324 0.0
C82 C 0.04786 0.36879 0.05956 0.0
C83 C 0.07495 0.3869 0.07936 0.0
C84 C 0.05377 0.39902 0.09562 0.0
C85 C 0.14117 0.3032 0.06482 0.0
O86 O 0.15063 0.30037 0.03748 0.0
H87 H 0.03978 0.35402 0.0463 0.0
H88 H 0.09243 0.38975 0.08508 0.0
O89 O 0.07808 0.31526 1.00849 0.0
H90 H 0.13081 0.41068 0.98515 0.0
H91 H 0.05157 0.41365 0.11614 0.0
Cu92 Cu 0.82442 0.01795 0.01366 0.0
N93 N 0.8451 0.03124 0.9901 0.0
N94 N 0.85448 0.06446 0.96058 0.0
C95 C 0.83798 0.06 0.97926 0.0
C96 C 0.87282 0.0372 0.95935 0.0
C97 C 0.86699 0.01663 0.97777 0.0
O98 O 0.80659 0.05536 0.03882 0.0
C99 C 0.82213 0.97112 0.97239 0.0
O100 O 0.84498 0.96195 0.98218 0.0
H101 H 0.82034 0.0769 0.98388 0.0
H102 H 0.87757 0.99259 0.98096 0.0
N103 N 0.84118 0.98942 0.0428 0.0
N104 N 0.84533 0.96103 0.08464 0.0
C105 C 0.82978 0.98187 0.06605 0.0
C106 C 0.86497 0.97325 0.04679 0.0
C107 C 0.86758 0.95553 0.07255 0.0
C108 C 0.82139 0.06568 0.05505 0.0
O109 O 0.84485 0.05053 0.05299 0.0
H110 H 0.81034 0.99195 0.06917 0.0
H111 H 0.87937 0.97408 0.03205 0.0
O112 O 0.80779 0.99649 0.98401 0.0
H113 H 0.88898 0.03231 0.94571 0.0
H114 H 0.8845 0.9394 0.08117 0.0
Cu115 Cu 0.01417 0.71929 0.02747 0.0
N116 N 1.00028 0.6982 0.99871 0.0
N117 N 0.97611 0.69129 0.96001 0.0
C118 C 0.98148 0.71192 0.97953 0.0
C119 C 0.99219 0.66343 0.96726 0.0
C120 C 0.00705 0.66776 0.99125 0.0
O121 O 0.98897 0.73986 0.05745 0.0
C122 C 0.04364 0.72937 0.98428 0.0
O123 O 0.0455 0.70008 0.97974 0.0
H124 H 0.97244 0.73674 0.97933 0.0
H125 H 0.02202 0.65009 1.00205 0.0
N126 N 0.0407 0.69256 0.049 0.0
N127 N 0.07702 0.67815 0.07326 0.0
C128 C 0.06115 0.69958 0.05569 0.0
C129 C 0.04381 0.66548 0.06279 0.0
C130 C 0.06623 0.65665 0.07807 0.0
C131 C 0.98001 0.72137 0.07037 0.0
O132 O 0.9875 0.69202 0.06171 0.0
H133 H 0.06401 0.72067 0.04869 0.0
H134 H 0.03068 0.65318 0.06224 0.0
O135 O 0.02888 0.74499 1.00463 0.0
H136 H 0.99316 0.64153 0.95605 0.0
H137 H 0.07397 0.63618 0.09166 0.0
Cu138 Cu 0.54791 0.53805 0.84462 0.0
N139 N 0.56041 0.56551 0.86652 0.0
N140 N 0.58397 0.5953 0.87548 0.0
C141 C 0.58118 0.57069 0.85961 0.0
C142 C 0.56412 0.60597 0.89317 0.0
C143 C 0.54954 0.58764 0.88744 0.0
O144 O 0.57606 0.50762 0.82494 0.0
C145 C 0.50274 0.55657 0.80944 0.0
O146 O 0.50324 0.52777 0.81196 0.0
H147 H 0.5931 0.55796 0.84164 0.0
H148 H 0.53164 0.59143 0.8965 0.0
N149 N 0.5342 0.51681 0.87062 0.0
N150 N 0.51639 0.48233 0.88345 0.0
C151 C 0.5306 0.48975 0.86314 0.0
C152 C 0.5224 0.52663 0.89702 0.0
C153 C 0.51144 0.50539 0.90502 0.0
C154 C 0.59117 0.48977 0.84374 0.0
O155 O 0.58616 0.49276 0.87311 0.0
H156 H 0.53721 0.47676 0.84218 0.0
H157 H 0.52057 0.54852 0.90866 0.0
O158 O 0.52129 0.56405 0.81861 0.0
H159 H 0.55994 0.62623 0.90832 0.0
H160 H 0.49931 0.50799 0.92402 0.0
Cu161 Cu 0.55649 0.52844 0.21302 0.0
N162 N 0.53739 0.50802 0.1917 0.0
N163 N 0.5095 0.48404 0.18423 0.0
C164 C 0.51991 0.49928 0.20454 0.0
C165 C 0.52089 0.4832 0.15752 0.0
C166 C 0.53815 0.49789 0.16223 0.0
O167 O 0.53362 0.56161 0.23753 0.0
C168 C 0.59588 0.47545 0.21781 0.0
O169 O 0.59055 0.47628 0.18823 0.0
H170 H 0.51501 0.50402 0.2284 0.0
H171 H 0.55081 0.50014 0.14553 0.0
N172 N 0.5721 0.54716 0.18664 0.0
N173 N 0.59637 0.5735 0.17271 0.0
C174 C 0.59014 0.55842 0.19549 0.0
C175 C 0.56685 0.5552 0.1571 0.0
C176 C 0.58176 0.57154 0.14848 0.0
C177 C 0.51969 0.58389 0.22178 0.0
O178 O 0.52197 0.58281 0.19185 0.0
H179 H 0.59776 0.55678 0.21866 0.0
H180 H 0.55244 0.55085 0.14321 0.0
O181 O 0.58264 0.49711 0.23519 0.0
H182 H 0.51754 0.47189 0.13637 0.0
H183 H 0.58157 0.58166 0.12632 0.0
Cu184 Cu 0.79568 0.52729 0.51136 0.0
N185 N 0.77634 0.55609 0.48406 0.0
N186 N 0.77032 0.59051 0.44705 0.0
C187 C 0.78061 0.58166 0.47482 0.0
C188 C 0.75877 0.57009 0.43859 0.0
C189 C 0.76243 0.54895 0.46151 0.0
O190 O 0.80947 0.54856 0.54434 0.0
C191 C 0.81989 0.46509 0.48601 0.0
O192 O 0.81583 0.4547 0.51232 0.0
H193 H 0.79358 0.59118 0.48593 0.0
H194 H 0.75813 0.52757 0.45991 0.0
N195 N 0.7757 0.51085 0.53265 0.0
N196 N 0.76533 0.48499 0.56948 0.0
C197 C 0.78321 0.49388 0.55779 0.0
C198 C 0.75202 0.51345 0.52833 0.0
C199 C 0.74558 0.49733 0.55099 0.0
C200 C 0.8214 0.56764 0.54311 0.0
O201 O 0.83046 0.57148 0.51689 0.0
H202 H 0.80179 0.48758 0.56668 0.0
H203 H 0.7402 0.52626 0.51023 0.0
O204 O 0.81598 0.4942 0.48346 0.0
H205 H 0.75083 0.56843 0.41599 0.0
H206 H 0.72771 0.49514 0.55366 0.0
Cu207 Cu 0.60216 0.78547 0.52202 0.0
N208 N 0.62254 0.76526 0.48965 0.0
N209 N 0.64799 0.75838 0.45025 0.0
C210 C 0.63588 0.77793 0.47284 0.0
C211 C 0.64195 0.73237 0.45313 0.0
C212 C 0.62627 0.7367 0.47731 0.0
O213 O 0.62123 0.80151 0.55162 0.0
C214 C 0.56126 0.80363 0.48719 0.0
O215 O 0.56988 0.77364 0.4815 0.0
H216 H 0.63667 0.80108 0.47725 0.0
H217 H 0.6178 0.72038 0.48488 0.0
N218 N 0.58847 0.76024 0.54346 0.0
N219 N 0.55991 0.74914 0.56998 0.0
C220 C 0.56675 0.77153 0.55723 0.0
C221 C 0.59589 0.72949 0.54783 0.0
C222 C 0.57826 0.72256 0.56409 0.0
C223 C 0.63997 0.781 0.56266 0.0
O224 O 0.64467 0.75214 0.55281 0.0
H225 H 0.55582 0.79577 0.55701 0.0
H226 H 0.61278 0.71323 0.53966 0.0
O227 O 0.57377 0.81628 0.50436 0.0
H228 H 0.64791 0.71187 0.43838 0.0
H229 H 0.579 0.69974 0.57112 0.0
Cu230 Cu 0.30553 0.53375 0.52439 0.0
N231 N 0.32411 0.54925 0.49766 0.0
N232 N 0.33228 0.58095 0.46367 0.0
C233 C 0.31525 0.57566 0.48146 0.0
C234 C 0.35268 0.55656 0.46905 0.0
C235 C 0.34761 0.53724 0.48981 0.0
O236 O 0.28625 0.56962 0.54813 0.0
C237 C 0.30051 0.48796 0.4865 0.0
O238 O 0.32381 0.47798 0.49434 0.0
H239 H 0.29656 0.59077 0.48298 0.0
H240 H 0.36016 0.51579 0.49833 0.0
N241 N 0.32254 0.50403 0.5542 0.0
N242 N 0.32796 0.46962 0.59214 0.0
C243 C 0.31344 0.48417 0.56841 0.0
C244 C 0.34366 0.50162 0.56945 0.0
C245 C 0.34696 0.48068 0.59279 0.0
C246 C 0.2997 0.58383 0.56124 0.0
O247 O 0.32332 0.57302 0.5569 0.0
H248 H 0.29586 0.48164 0.56248 0.0
H249 H 0.3554 0.51508 0.56479 0.0
O250 O 0.28722 0.51387 0.4977 0.0
H251 H 0.37007 0.5524 0.45838 0.0
H252 H 0.36199 0.47447 0.60938 0.0
Cu253 Cu 0.51073 0.24243 0.52405 0.0
N254 N 0.53697 0.21616 0.50252 0.0
N255 N 0.57205 0.20332 0.47747 0.0
C256 C 0.5577 0.22257 0.49844 0.0
C257 C 0.5599 0.18365 0.46825 0.0
C258 C 0.53813 0.19179 0.48361 0.0
O259 O 0.52573 0.26923 0.54819 0.0
C260 C 0.46339 0.27593 0.49567 0.0
O261 O 0.45529 0.28422 0.5235 0.0
H262 H 0.56162 0.24196 0.50972 0.0
H263 H 0.52361 0.18188 0.47991 0.0
N264 N 0.49832 0.21982 0.55039 0.0
N265 N 0.47844 0.20863 0.58927 0.0
C266 C 0.48235 0.23132 0.57307 0.0
C267 C 0.50479 0.18883 0.55223 0.0
C268 C 0.49257 0.18186 0.57608 0.0
C269 C 0.53793 0.25759 0.57239 0.0
O270 O 0.53675 0.2311 0.58181 0.0
H271 H 0.47398 0.25588 0.57762 0.0
H272 H 0.51793 0.17243 0.53775 0.0
O273 O 0.48595 0.26093 0.4921 0.0
H274 H 0.56555 0.16594 0.45032 0.0
H275 H 0.49452 0.15878 0.58352 0.0
Dy276 Dy 0.28301 0.27751 0.30994 0.0
Dy277 Dy 0.3108 0.30786 0.26011 0.0
C278 C 0.31482 0.23536 0.25612 0.0
O279 O 0.31529 0.28261 0.33667 0.0
O280 O 0.33871 0.29137 0.29826 0.0
O281 O 0.28188 0.24418 0.34349 0.0
O282 O 0.24931 0.28256 0.33255 0.0
O283 O 0.30109 0.34206 0.29891 0.0
O284 O 0.26906 0.32911 0.31672 0.0
O285 O 0.27212 0.3171 0.24272 0.0
O286 O 0.26399 0.2767 0.26456 0.0
O287 O 0.31065 0.34619 0.2323 0.0
O288 O 0.3403 0.3025 0.22915 0.0
C289 C 0.33569 0.28568 0.3271 0.0
O290 O 0.30707 0.23634 0.28427 0.0
O291 O 0.31449 0.26038 0.24184 0.0
C292 C 0.24338 0.23618 0.34645 0.0
C293 C 0.21305 0.19865 0.34507 0.0
C294 C 0.23541 0.18882 0.32984 0.0
C295 C 0.25042 0.20753 0.33035 0.0
C296 C 0.22118 0.24587 0.36177 0.0
C297 C 0.20612 0.22736 0.36102 0.0
C298 C 0.25842 0.25678 0.34725 0.0
C299 C 0.28183 0.34815 0.31596 0.0
C300 C 0.2596 0.29765 0.24331 0.0
C301 C 0.34974 0.34782 0.2197 0.0
C302 C 0.38477 0.37838 0.21648 0.0
C303 C 0.36985 0.38295 0.24224 0.0
C304 C 0.35253 0.36764 0.24392 0.0
C305 C 0.36452 0.34333 0.19403 0.0
C306 C 0.3819 0.35841 0.19242 0.0
C307 C 0.33184 0.33124 0.22062 0.0
H308 H 0.2411 0.16689 0.31718 0.0
H309 H 0.26739 0.19969 0.31809 0.0
H310 H 0.21543 0.26789 0.37429 0.0
H311 H 0.18914 0.23536 0.37326 0.0
H312 H 0.37182 0.39801 0.26122 0.0
H313 H 0.34139 0.3712 0.26409 0.0
H314 H 0.36261 0.32811 0.17514 0.0
H315 H 0.3929 0.35473 0.17213 0.0
Dy316 Dy 0.79796 0.25475 0.29065 0.0
Dy317 Dy 0.81667 0.2933 0.24007 0.0
C318 C 0.7599 0.31485 0.25955 0.0
O319 O 0.80677 0.2251 0.24764 0.0
O320 O 0.79764 0.26403 0.21355 0.0
O321 O 0.77917 0.2224 0.2996 0.0
O322 O 0.7966 0.24029 0.33727 0.0
O323 O 0.84979 0.25234 0.24954 0.0
O324 O 0.83871 0.23528 0.29415 0.0
O325 O 0.82823 0.30772 0.2866 0.0
O326 O 0.79798 0.29956 0.31399 0.0
O327 O 0.81987 0.33641 0.22481 0.0
O328 O 0.83225 0.29486 0.19608 0.0
C329 C 0.80082 0.23491 0.21958 0.0
O330 O 0.7631 0.28776 0.2717 0.0
O331 O 0.77827 0.32249 0.24952 0.0
C332 C 0.76206 0.22569 0.34827 0.0
C333 C 0.7209 0.22507 0.38063 0.0
C334 C 0.71899 0.24829 0.35927 0.0
C335 C 0.73943 0.2486 0.3432 0.0
C336 C 0.76422 0.20315 0.37018 0.0
C337 C 0.74385 0.20282 0.38625 0.0
C338 C 0.78308 0.22318 0.32923 0.0
C339 C 0.85503 0.23431 0.27347 0.0
C340 C 0.81454 0.31332 0.31107 0.0
C341 C 0.85169 0.33255 0.19085 0.0
C342 C 0.8919 0.3488 0.17182 0.0
C343 C 0.89501 0.32602 0.19406 0.0
C344 C 0.87503 0.31797 0.20354 0.0
C345 C 0.84848 0.35539 0.16897 0.0
C346 C 0.86836 0.36346 0.15952 0.0
C347 C 0.83047 0.32401 0.19942 0.0
H348 H 0.70164 0.26598 0.35471 0.0
H349 H 0.73746 0.26619 0.3263 0.0
H350 H 0.78154 0.18517 0.37419 0.0
H351 H 0.74591 0.18442 0.40224 0.0
H352 H 0.91286 0.31451 0.20418 0.0
H353 H 0.87779 0.3003 0.22055 0.0
H354 H 0.83057 0.36678 0.15888 0.0
H355 H 0.86537 0.38072 0.14204 0.0
Dy356 Dy 0.7928 0.7612 0.23608 0.0
Dy357 Dy 0.8234 0.78722 0.29204 0.0
C358 C 0.76797 0.78798 0.30097 0.0
O359 O 0.79968 0.802 0.21767 0.0
O360 O 0.80464 0.82761 0.26239 0.0
O361 O 0.76212 0.7689 0.20417 0.0
O362 O 0.7908 0.7242 0.20515 0.0
O363 O 0.8475 0.77755 0.2515 0.0
O364 O 0.83211 0.7447 0.22244 0.0
O365 O 0.82949 0.7374 0.30268 0.0
O366 O 0.79837 0.7284 0.27369 0.0
O367 O 0.85591 0.78155 0.31994 0.0
O368 O 0.82419 0.82257 0.32615 0.0
C369 C 0.80233 0.82628 0.23232 0.0
O370 O 0.76475 0.78596 0.27093 0.0
O371 O 0.78931 0.78618 0.31358 0.0
C372 C 0.75081 0.72354 0.19325 0.0
C373 C 0.71646 0.6913 0.18945 0.0
C374 C 0.70907 0.72316 0.19722 0.0
C375 C 0.72606 0.73912 0.1991 0.0
C376 C 0.75815 0.69177 0.18545 0.0
C377 C 0.74124 0.6758 0.18377 0.0
C378 C 0.76912 0.73993 0.19452 0.0
C379 C 0.84879 0.75828 0.22802 0.0
C380 C 0.81464 0.72134 0.29617 0.0
C381 C 0.86309 0.82891 0.33335 0.0
C382 C 0.89364 0.86645 0.33658 0.0
C383 C 0.89983 0.83906 0.31831 0.0
C384 C 0.8847 0.82057 0.3166 0.0
C385 C 0.85672 0.85637 0.35132 0.0
C386 C 0.87175 0.87501 0.35282 0.0
C387 C 0.84729 0.80909 0.33287 0.0
H388 H 0.69008 0.73592 0.20134 0.0
H389 H 0.71974 0.76366 0.20496 0.0
H390 H 0.77707 0.67916 0.18066 0.0
H391 H 0.74768 0.6512 0.17822 0.0
H392 H 0.91669 0.83144 0.30583 0.0
H393 H 0.89012 0.79958 0.30245 0.0
H394 H 0.84012 0.86335 0.36435 0.0
H395 H 0.86617 0.89617 0.36672 0.0
Dy396 Dy 0.32328 0.81436 0.28708 0.0
Dy397 Dy 0.30464 0.77074 0.23701 0.0
C398 C 0.36117 0.7538 0.25648 0.0
O399 O 0.32767 0.83106 0.24001 0.0
O400 O 0.29935 0.81532 0.21251 0.0
O401 O 0.34628 0.8426 0.29607 0.0
O402 O 0.32127 0.83942 0.33066 0.0
O403 O 0.27003 0.80154 0.25753 0.0
O404 O 0.28377 0.84026 0.27784 0.0
O405 O 0.3149 0.74245 0.27966 0.0
O406 O 0.3155 0.77909 0.31689 0.0
O407 O 0.29132 0.73238 0.22837 0.0
O408 O 0.2993 0.75614 0.18999 0.0
C409 C 0.31317 0.8332 0.21566 0.0
O410 O 0.35537 0.77133 0.28145 0.0
O411 O 0.34535 0.75601 0.23356 0.0
C412 C 0.35792 0.84822 0.34726 0.0
C413 C 0.39862 0.84546 0.38573 0.0
C414 C 0.39447 0.81807 0.37492 0.0
C415 C 0.37432 0.81944 0.35572 0.0
C416 C 0.36141 0.87553 0.35889 0.0
C417 C 0.38157 0.87421 0.378 0.0
C418 C 0.33867 0.85031 0.32392 0.0
C419 C 0.2659 0.82977 0.269 0.0
C420 C 0.31559 0.75088 0.30879 0.0
C421 C 0.26787 0.73334 0.18323 0.0
C422 C 0.22603 0.72187 0.15806 0.0
C423 C 0.22426 0.74181 0.18392 0.0
C424 C 0.24501 0.74755 0.19637 0.0
C425 C 0.26955 0.71455 0.15674 0.0
C426 C 0.24882 0.70895 0.14417 0.0
C427 C 0.29038 0.735 0.19866 0.0
H428 H 0.40705 0.79555 0.38083 0.0
H429 H 0.37193 0.79811 0.34677 0.0
H430 H 0.34901 0.89794 0.35229 0.0
H431 H 0.38434 0.89571 0.38562 0.0
H432 H 0.20706 0.75201 0.19531 0.0
H433 H 0.24336 0.76211 0.21691 0.0
H434 H 0.28706 0.70342 0.1463 0.0
H435 H 0.25073 0.69406 0.12385 0.0
Dy436 Dy 0.28055 0.7524 0.80292 0.0
Dy437 Dy 0.30497 0.78392 0.75016 0.0
C438 C 0.24981 0.81768 0.77215 0.0
O439 O 0.28472 0.72434 0.75942 0.0
O440 O 0.27773 0.7646 0.72727 0.0
O441 O 0.25592 0.7272 0.81216 0.0
O442 O 0.27574 0.74122 0.8498 0.0
O443 O 0.33146 0.73654 0.75752 0.0
O444 O 0.32078 0.72564 0.80525 0.0
O445 O 0.3209 0.79148 0.79603 0.0
O446 O 0.2882 0.79313 0.82484 0.0
O447 O 0.32137 0.81754 0.73547 0.0
O448 O 0.31683 0.78232 0.70353 0.0
C449 C 0.27753 0.73658 0.73257 0.0
O450 O 0.24961 0.79146 0.78375 0.0
O451 O 0.26988 0.82115 0.76177 0.0
C452 C 0.2366 0.7377 0.85997 0.0
C453 C 0.19224 0.75172 0.89174 0.0
C454 C 0.19683 0.77403 0.87339 0.0
C455 C 0.21881 0.76707 0.85763 0.0
C456 C 0.23225 0.71563 0.87845 0.0
C457 C 0.21037 0.72248 0.89408 0.0
C458 C 0.25903 0.7287 0.84188 0.0
C459 C 0.33644 0.72034 0.78273 0.0
C460 C 0.30834 0.79977 0.82125 0.0
C461 C 0.35098 0.79872 0.69674 0.0
C462 C 0.39759 0.78608 0.67083 0.0
C463 C 0.39338 0.7659 0.69215 0.0
C464 C 0.37031 0.77216 0.70496 0.0
C465 C 0.35519 0.81915 0.67599 0.0
C466 C 0.37821 0.81296 0.6632 0.0
C467 C 0.32609 0.80466 0.70816 0.0
H468 H 0.18343 0.79683 0.87114 0.0
H469 H 0.22179 0.7844 0.84329 0.0
H470 H 0.2456 0.69272 0.88027 0.0
H471 H 0.20741 0.7044 0.90731 0.0
H472 H 0.40775 0.74487 0.69841 0.0
H473 H 0.36743 0.756 0.72087 0.0
H474 H 0.34055 0.83978 0.66934 0.0
H475 H 0.38081 0.82932 0.64734 0.0
Dy476 Dy 0.29485 0.25731 0.76341 0.0
Dy477 Dy 0.32959 0.28222 0.81224 0.0
C478 C 0.27174 0.29839 0.82219 0.0
O479 O 0.29257 0.30522 0.74775 0.0
O480 O 0.32834 0.30868 0.76926 0.0
O481 O 0.26132 0.26504 0.73699 0.0
O482 O 0.29117 0.22181 0.73144 0.0
O483 O 0.35604 0.24866 0.78082 0.0
O484 O 0.32989 0.24946 0.73999 0.0
O485 O 0.32079 0.24552 0.83791 0.0
O486 O 0.30758 0.2194 0.79867 0.0
O487 O 0.36127 0.27379 0.84279 0.0
O488 O 0.33516 0.3201 0.83878 0.0
C489 C 0.31037 0.31748 0.7488 0.0
O490 O 0.27101 0.27588 0.8031 0.0
O491 O 0.29079 0.30812 0.82446 0.0
C492 C 0.25129 0.22036 0.72196 0.0
C493 C 0.21796 0.18709 0.71688 0.0
C494 C 0.22593 0.19489 0.74599 0.0
C495 C 0.24255 0.21139 0.74852 0.0
C496 C 0.24337 0.2127 0.693 0.0
C497 C 0.22685 0.19623 0.69044 0.0
C498 C 0.26872 0.23758 0.72372 0.0
C499 C 0.35203 0.2439 0.75148 0.0
C500 C 0.31442 0.22168 0.82771 0.0
C501 C 0.37624 0.31619 0.84975 0.0
C502 C 0.41217 0.34559 0.85345 0.0
C503 C 0.4122 0.32326 0.87489 0.0
C504 C 0.39429 0.30878 0.87311 0.0
C505 C 0.37683 0.33744 0.82745 0.0
C506 C 0.39459 0.35214 0.8294 0.0
C507 C 0.35614 0.30312 0.85026 0.0
H508 H 0.21954 0.18796 0.76675 0.0
H509 H 0.24861 0.21709 0.77109 0.0
H510 H 0.24993 0.21956 0.6723 0.0
H511 H 0.22078 0.19101 0.66772 0.0
H512 H 0.42545 0.31793 0.89375 0.0
H513 H 0.39411 0.29243 0.8905 0.0
H514 H 0.36321 0.34331 0.80902 0.0
H515 H 0.39437 0.369 0.81237 0.0
Dy516 Dy 0.81677 0.31241 0.80584 0.0
Dy517 Dy 0.78724 0.27285 0.76103 0.0
C518 C 0.84572 0.24902 0.7684 0.0
O519 O 0.79964 0.34203 0.76644 0.0
O520 O 0.79981 0.30334 0.73128 0.0
O521 O 0.84251 0.33791 0.80947 0.0
O522 O 0.8252 0.3297 0.85022 0.0
O523 O 0.75943 0.31768 0.77396 0.0
O524 O 0.77687 0.3329 0.81742 0.0
O525 O 0.79049 0.25363 0.8082 0.0
O526 O 0.82247 0.26803 0.82869 0.0
O527 O 0.75915 0.25135 0.75617 0.0
O528 O 0.78027 0.25334 0.7167 0.0
C529 C 0.79801 0.33224 0.73806 0.0
O530 O 0.84487 0.27733 0.77726 0.0
O531 O 0.82582 0.24117 0.76429 0.0
C532 C 0.86538 0.33266 0.85651 0.0
C533 C 0.91011 0.32005 0.89064 0.0
C534 C 0.90046 0.29608 0.88238 0.0
C535 C 0.87833 0.30232 0.86549 0.0
C536 C 0.87508 0.35646 0.86429 0.0
C537 C 0.89714 0.35028 0.88107 0.0
C538 C 0.84168 0.34024 0.83942 0.0
C539 C 0.75779 0.33497 0.79905 0.0
C540 C 0.80842 0.2506 0.82848 0.0
C541 C 0.73868 0.2558 0.70726 0.0
C542 C 0.69454 0.26716 0.67187 0.0
C543 C 0.69457 0.28061 0.70151 0.0
C544 C 0.71633 0.27505 0.71894 0.0
C545 C 0.73883 0.24316 0.67738 0.0
C546 C 0.71711 0.24883 0.65988 0.0
C547 C 0.7615 0.24681 0.72654 0.0
H548 H 0.90974 0.27257 0.88946 0.0
H549 H 0.87123 0.28352 0.85968 0.0
H550 H 0.86551 0.37999 0.85744 0.0
H551 H 0.90411 0.36926 0.88634 0.0
H552 H 0.67766 0.29458 0.7118 0.0
H553 H 0.71551 0.2852 0.7419 0.0
H554 H 0.75575 0.22829 0.66776 0.0
H555 H 0.71801 0.23852 0.63699 0.0
Dy556 Dy 0.78844 0.76035 0.78227 0.0
Dy557 Dy 0.81935 0.78952 0.73705 0.0
C558 C 0.80929 0.72554 0.71917 0.0
O559 O 0.82809 0.73726 0.79308 0.0
O560 O 0.84328 0.77498 0.77864 0.0
O561 O 0.78456 0.72043 0.80384 0.0
O562 O 0.76022 0.76655 0.81551 0.0
O563 O 0.80439 0.82769 0.77253 0.0
O564 O 0.79549 0.79916 0.81011 0.0
O565 O 0.78381 0.79495 0.71247 0.0
O566 O 0.75975 0.79208 0.7523 0.0
O567 O 0.82144 0.82555 0.70753 0.0
O568 O 0.85216 0.78313 0.71185 0.0
C569 C 0.84506 0.75061 0.79482 0.0
O570 O 0.7905 0.73362 0.73743 0.0
O571 O 0.8257 0.73992 0.72113 0.0
C572 C 0.74542 0.72452 0.82215 0.0
C573 C 0.70912 0.69722 0.83185 0.0
C574 C 0.72239 0.69083 0.80454 0.0
C575 C 0.74044 0.70438 0.79972 0.0
C576 C 0.73167 0.73168 0.84886 0.0
C577 C 0.71367 0.71825 0.85367 0.0
C578 C 0.76577 0.73685 0.81959 0.0
C579 C 0.79882 0.82474 0.80113 0.0
C580 C 0.76228 0.79854 0.7237 0.0
C581 C 0.86096 0.8285 0.70086 0.0
C582 C 0.89399 0.86216 0.70046 0.0
C583 C 0.87822 0.86566 0.72521 0.0
C584 C 0.86186 0.84883 0.72547 0.0
C585 C 0.87663 0.82497 0.67624 0.0
C586 C 0.89302 0.84161 0.67601 0.0
C587 C 0.84396 0.81064 0.70018 0.0
H588 H 0.71936 0.67463 0.78736 0.0
H589 H 0.75083 0.69857 0.77888 0.0
H590 H 0.73523 0.74724 0.86639 0.0
H591 H 0.70345 0.72411 0.87464 0.0
H592 H 0.87873 0.88114 0.74446 0.0
H593 H 0.84995 0.85167 0.74479 0.0
H594 H 0.87613 0.80937 0.65706 0.0
H595 H 0.9047 0.83874 0.65646 0.0
C596 C 0.1226 0.10564 0.38088 0.0
C597 C 0.1173 0.08895 0.35545 0.0
C598 C 0.13842 0.12312 0.37856 0.0
C599 C 0.1491 0.12419 0.35003 0.0
C600 C 0.14375 0.10761 0.3242 0.0
C601 C 0.12803 0.0901 0.32725 0.0
C602 C 0.14371 0.14046 0.40665 0.0
C603 C 0.1547 0.1083 0.29336 0.0
C604 C 0.1718 0.19235 0.33883 0.0
C605 C 0.19694 0.1791 0.34466 0.0
C606 C 0.15609 0.17459 0.33989 0.0
C607 C 0.16573 0.14287 0.34724 0.0
C608 C 0.19117 0.12924 0.35267 0.0
C609 C 0.2065 0.1475 0.35116 0.0
C610 C 0.12913 0.18987 0.33352 0.0
C611 C 0.20211 0.09555 0.3608 0.0
H612 H 0.11421 0.10529 0.40264 0.0
H613 H 0.12447 0.07693 0.30757 0.0
H614 H 0.16365 0.13287 0.41174 0.0
H615 H 0.13786 0.16566 0.40227 0.0
H616 H 0.13429 0.1368 0.42727 0.0
H617 H 0.14841 0.09451 0.27541 0.0
H618 H 0.1498 0.13256 0.28572 0.0
H619 H 0.1749 0.09903 0.29532 0.0
H620 H 0.1644 0.21669 0.33341 0.0
H621 H 0.2259 0.13726 0.35594 0.0
H622 H 0.11872 0.18903 0.3542 0.0
H623 H 0.12279 0.17711 0.31469 0.0
H624 H 0.12468 0.21445 0.32701 0.0
H625 H 0.19444 0.09141 0.38262 0.0
H626 H 0.2223 0.08826 0.36348 0.0
H627 H 0.19728 0.08063 0.34276 0.0
C628 C 0.99045 0.12984 0.319 0.0
C629 C 0.9983 0.10062 0.30408 0.0
C630 C 0.96795 0.15201 0.31141 0.0
C631 C 0.95256 0.14482 0.2885 0.0
C632 C 0.96076 0.1158 0.27245 0.0
C633 C 0.98363 0.09408 0.2803 0.0
C634 C 0.96023 0.1827 0.32887 0.0
C635 C 0.94489 0.10712 0.248 0.0
C636 C 0.88469 0.18764 0.2983 0.0
C637 C 0.88001 0.21134 0.2769 0.0
C638 C 0.90797 0.16539 0.30155 0.0
C639 C 0.92729 0.16686 0.28321 0.0
C640 C 0.92269 0.19057 0.2614 0.0
C641 C 0.89913 0.21239 0.2584 0.0
C642 C 0.91195 0.14047 0.32499 0.0
C643 C 0.94279 0.19323 0.24162 0.0
H644 H 1.00176 0.13522 0.33724 0.0
H645 H 0.98948 0.07151 0.26881 0.0
H646 H 0.95441 0.20213 0.31266 0.0
H647 H 0.94434 0.18435 0.34317 0.0
H648 H 0.97509 0.18574 0.34413 0.0
H649 H 0.95466 0.085 0.23579 0.0
H650 H 0.92852 0.10465 0.25869 0.0
H651 H 0.93839 0.1257 0.23093 0.0
H652 H 0.87009 0.18631 0.31253 0.0
H653 H 0.89578 0.23051 0.24175 0.0
H654 H 0.92521 0.14302 0.34301 0.0
H655 H 0.91983 0.11724 0.3139 0.0
H656 H 0.89477 0.14143 0.33623 0.0
H657 H 0.95729 0.19784 0.25638 0.0
H658 H 0.93607 0.2121 0.22483 0.0
H659 H 0.95131 0.17106 0.22888 0.0
C660 C 0.00599 0.92874 0.36162 0.0
C661 C 1.00093 0.96042 0.35648 0.0
C662 C 0.98772 0.91478 0.35818 0.0
C663 C 0.96368 0.93298 0.34963 0.0
C664 C 0.95835 0.96506 0.34471 0.0
C665 C 0.97709 0.97836 0.34802 0.0
C666 C 0.99424 0.88043 0.36326 0.0
C667 C 0.93288 0.98529 0.33595 0.0
C668 C 0.92322 0.88927 0.31392 0.0
C669 C 0.91036 0.88539 0.3394 0.0
C670 C 0.94021 0.90532 0.31675 0.0
C671 C 0.94427 0.91818 0.34569 0.0
C672 C 0.93078 0.91528 0.37125 0.0
C673 C 0.91413 0.89878 0.36786 0.0
C674 C 0.95431 0.90778 0.28896 0.0
C675 C 0.93446 0.92886 0.40244 0.0
H676 H 0.02445 0.91462 0.3676 0.0
H677 H 0.97308 1.00287 0.34424 0.0
H678 H 0.98291 0.8763 0.38162 0.0
H679 H 0.99027 0.86863 0.34199 0.0
H680 H 0.01378 0.86958 0.36986 0.0
H681 H 0.93166 0.0099 0.33341 0.0
H682 H 0.92692 0.9767 0.31393 0.0
H683 H 0.91989 0.98412 0.35365 0.0
H684 H 0.92012 0.87957 0.2917 0.0
H685 H 0.90459 0.89562 0.38781 0.0
H686 H 0.97406 0.89559 0.29313 0.0
H687 H 0.95214 0.93241 0.28488 0.0
H688 H 0.94832 0.8976 0.26784 0.0
H689 H 0.95318 0.9168 0.41139 0.0
H690 H 0.92119 0.92674 0.41936 0.0
H691 H 0.93262 0.95372 0.40057 0.0
C692 C 0.12689 0.93908 0.29211 0.0
C693 C 0.12177 0.96607 0.27493 0.0
C694 C 0.1495 0.9153 0.29019 0.0
C695 C 0.1674 0.91819 0.27021 0.0
C696 C 0.16187 0.94461 0.25161 0.0
C697 C 0.13925 0.96832 0.2544 0.0
C698 C 0.15468 0.88781 0.31076 0.0
C699 C 0.1802 0.94837 0.22955 0.0
C700 C 0.23469 0.87781 0.28976 0.0
C701 C 0.24036 0.85132 0.27041 0.0
C702 C 0.21099 0.89936 0.29023 0.0
C703 C 0.19247 0.89476 0.27043 0.0
C704 C 0.19803 0.86797 0.25092 0.0
C705 C 0.22182 0.84645 0.25135 0.0
C706 C 0.20581 0.92723 0.31186 0.0
C707 C 0.17899 0.86239 0.2291 0.0
H708 H 0.11363 0.9371 0.3082 0.0
H709 H 0.1355 0.98898 0.24096 0.0
H710 H 0.16121 0.86586 0.29707 0.0
H711 H 0.16941 0.88797 0.32767 0.0
H712 H 0.13834 0.88796 0.3235 0.0
H713 H 0.17229 0.96858 0.21456 0.0
H714 H 0.19601 0.9516 0.24263 0.0
H715 H 0.18724 0.92718 0.21483 0.0
H716 H 0.24883 0.88174 0.30466 0.0
H717 H 0.22606 0.82622 0.23608 0.0
H718 H 0.19045 0.92821 0.32686 0.0
H719 H 0.20021 0.9488 0.29853 0.0
H720 H 0.22192 0.92684 0.32663 0.0
H721 H 0.16292 0.86199 0.24199 0.0
H722 H 0.18608 0.84023 0.21576 0.0
H723 H 0.17256 0.88167 0.21277 0.0
C724 C 0.12293 0.96302 0.76595 0.0
C725 C 0.11225 0.96057 0.73699 0.0
C726 C 0.14515 0.94071 0.77524 0.0
C727 C 0.15675 0.91534 0.7552 0.0
C728 C 0.14549 0.91234 0.72647 0.0
C729 C 0.12356 0.93491 0.71776 0.0
C730 C 0.15657 0.94475 0.80606 0.0
C731 C 0.15691 0.88558 0.70445 0.0
C732 C 0.22518 0.87197 0.75698 0.0
C733 C 0.22631 0.84384 0.77014 0.0
C734 C 0.20283 0.8961 0.75353 0.0
C735 C 0.18097 0.89213 0.7634 0.0
C736 C 0.18213 0.86431 0.77781 0.0
C737 C 0.2047 0.84058 0.78099 0.0
C738 C 0.2025 0.92538 0.73813 0.0
C739 C 0.15937 0.85897 0.78867 0.0
H740 H 0.1144 0.98283 0.78087 0.0
H741 H 0.11536 0.93259 0.69544 0.0
H742 H 0.16066 0.9233 0.8194 0.0
H743 H 0.17415 0.94888 0.80267 0.0
H744 H 0.1446 0.96448 0.81978 0.0
H745 H 0.14538 0.88601 0.68345 0.0
H746 H 0.17494 0.8863 0.69741 0.0
H747 H 0.16003 0.86324 0.71592 0.0
H748 H 0.2417 0.87497 0.74874 0.0
H749 H 0.20524 0.81915 0.79147 0.0
H750 H 0.19225 0.94605 0.75205 0.0
H751 H 0.19298 0.92687 0.71541 0.0
H752 H 0.22117 0.92625 0.73462 0.0
H753 H 0.14834 0.8792 0.80255 0.0
H754 H 0.16361 0.83787 0.80265 0.0
H755 H 0.14792 0.85632 0.7685 0.0
C756 C 0.12929 0.08313 0.71068 0.0
C757 C 0.10992 0.09538 0.68965 0.0
C758 C 0.14738 0.09714 0.71602 0.0
C759 C 0.14611 0.12404 0.69989 0.0
C760 C 0.12675 0.13638 0.67843 0.0
C761 C 0.1089 0.12189 0.67355 0.0
C762 C 0.16783 0.08319 0.73895 0.0
C763 C 0.12479 0.16506 0.6608 0.0
C764 C 0.17955 0.17794 0.73219 0.0
C765 C 0.2002 0.16981 0.7138 0.0
C766 C 0.16194 0.16294 0.7282 0.0
C767 C 0.1651 0.13923 0.70531 0.0
C768 C 0.18616 0.13047 0.68713 0.0
C769 C 0.20345 0.14585 0.69161 0.0
C770 C 0.13971 0.17287 0.74805 0.0
C771 C 0.19024 0.10516 0.66264 0.0
H772 H 0.13042 0.06238 0.72283 0.0
H773 H 0.09385 0.1317 0.65758 0.0
H774 H 0.18567 0.07683 0.72752 0.0
H775 H 0.16797 0.10049 0.75744 0.0
H776 H 0.16616 0.0622 0.74959 0.0
H777 H 0.10869 0.17161 0.64481 0.0
H778 H 0.12341 0.18481 0.67704 0.0
H779 H 0.14149 0.16122 0.64733 0.0
H780 H 0.17683 0.19663 0.74916 0.0
H781 H 0.21957 0.13915 0.67766 0.0
H782 H 0.13803 0.15263 0.76007 0.0
H783 H 0.12302 0.18211 0.73344 0.0
H784 H 0.14038 0.19096 0.76549 0.0
H785 H 0.18991 0.08337 0.67287 0.0
H786 H 0.2079 0.10056 0.65104 0.0
H787 H 0.17528 0.11175 0.64504 0.0
C788 C 0.97649 0.11112 0.76283 0.0
C789 C 0.98476 0.10903 0.73266 0.0
C790 C 0.95441 0.1339 0.77143 0.0
C791 C 0.94041 0.1551 0.74939 0.0
C792 C 0.94911 0.15352 0.71922 0.0
C793 C 0.97101 0.13064 0.7113 0.0
C794 C 0.94577 0.13485 0.80385 0.0
C795 C 0.93498 0.17563 0.69495 0.0
C796 C 0.87167 0.19438 0.75503 0.0
C797 C 0.87002 0.22482 0.76419 0.0
C798 C 0.89444 0.1712 0.7514 0.0
C799 C 0.91624 0.17844 0.75707 0.0
C800 C 0.91473 0.2089 0.76706 0.0
C801 C 0.89171 0.23167 0.77046 0.0
C802 C 0.89514 0.13909 0.74068 0.0
C803 C 0.93746 0.21768 0.7734 0.0
H804 H 0.98692 0.09453 0.77947 0.0
H805 H 0.97725 0.12954 0.68797 0.0
H806 H 0.94204 0.15847 0.81418 0.0
H807 H 0.92838 0.12952 0.80361 0.0
H808 H 0.95931 0.11802 0.81872 0.0
H809 H 0.94463 0.17196 0.67281 0.0
H810 H 0.91686 0.17264 0.69073 0.0
H811 H 0.93174 0.19994 0.70301 0.0
H812 H 0.85513 0.18861 0.75042 0.0
H813 H 0.89078 0.25493 0.77793 0.0
H814 H 0.90697 0.1215 0.75637 0.0
H815 H 0.90313 0.13397 0.71752 0.0
H816 H 0.8767 0.13651 0.73949 0.0
H817 H 0.95009 0.20103 0.78925 0.0
H818 H 0.93329 0.24143 0.78361 0.0
H819 H 0.9472 0.21653 0.75166 0.0
C820 C 0.97843 0.96231 0.66028 0.0
C821 C 0.99333 0.96606 0.68513 0.0
C822 C 0.96201 0.94577 0.6633 0.0
C823 C 0.96056 0.93256 0.69182 0.0
C824 C 0.97555 0.93624 0.717 0.0
C825 C 0.99173 0.95296 0.71335 0.0
C826 C 0.94623 0.94242 0.63597 0.0
C827 C 0.97465 0.92229 0.7477 0.0
C828 C 0.90358 0.91183 0.70708 0.0
C829 C 0.91131 0.88001 0.69974 0.0
C830 C 0.91948 0.92923 0.70483 0.0
C831 C 0.94367 0.91437 0.69515 0.0
C832 C 0.9517 0.88214 0.68829 0.0
C833 C 0.93541 0.86536 0.69064 0.0
C834 C 0.91028 0.96358 0.71229 0.0
C835 C 0.97743 0.86542 0.67819 0.0
H836 H 0.97938 0.97268 0.63856 0.0
H837 H 1.00346 0.95533 0.7325 0.0
H838 H 0.95001 0.91753 0.62981 0.0
H839 H 0.92667 0.95203 0.64186 0.0
H840 H 0.94933 0.95444 0.61553 0.0
H841 H 0.98726 0.92768 0.76511 0.0
H842 H 0.95584 0.93106 0.75653 0.0
H843 H 0.97956 0.89673 0.74501 0.0
H844 H 0.8849 0.92329 0.71383 0.0
H845 H 0.94155 0.84067 0.68536 0.0
H846 H 0.91129 0.97671 0.69168 0.0
H847 H 0.92201 0.96945 0.73053 0.0
H848 H 0.89113 0.97147 0.72012 0.0
H849 H 0.98086 0.87529 0.65654 0.0
H850 H 0.98093 0.84016 0.67435 0.0
H851 H 0.99073 0.86877 0.69576 0.0
C852 C 0.35465 0.07437 0.15778 0.0
C853 C 0.3364 0.0766 0.13513 0.0
C854 C 0.35275 0.09861 0.17936 0.0
C855 C 0.332 0.1256 0.17838 0.0
C856 C 0.31338 0.12782 0.1558 0.0
C857 C 0.31585 0.10335 0.13441 0.0
C858 C 0.37308 0.09554 0.20291 0.0
C859 C 0.29088 0.15615 0.15412 0.0
C860 C 0.31435 0.18093 0.24739 0.0
C861 C 0.32184 0.20562 0.23839 0.0
C862 C 0.31821 0.15423 0.22852 0.0
C863 C 0.33003 0.1521 0.20018 0.0
C864 C 0.33863 0.17632 0.19171 0.0
C865 C 0.33435 0.20281 0.21084 0.0
C866 C 0.30868 0.12892 0.23827 0.0
C867 C 0.35153 0.17482 0.16183 0.0
H868 H 0.37065 0.05387 0.15826 0.0
H869 H 0.30148 0.10498 0.11735 0.0
H870 H 0.38134 0.11402 0.19984 0.0
H871 H 0.36572 0.09862 0.22642 0.0
H872 H 0.38765 0.07268 0.20115 0.0
H873 H 0.27774 0.15384 0.13577 0.0
H874 H 0.28152 0.16036 0.17644 0.0
H875 H 0.29617 0.17689 0.14964 0.0
H876 H 0.30456 0.18297 0.26856 0.0
H877 H 0.34038 0.22168 0.20383 0.0
H878 H 0.32334 0.10613 0.23725 0.0
H879 H 0.29381 0.12745 0.22217 0.0
H880 H 0.30149 0.13306 0.26191 0.0
H881 H 0.36687 0.15276 0.15978 0.0
H882 H 0.35877 0.19443 0.15977 0.0
H883 H 0.33867 0.17534 0.14223 0.0
C884 C 0.9955 0.38312 0.07763 0.0
C885 C 0.01424 0.38766 0.09648 0.0
C886 C 0.97486 0.37895 0.09028 0.0
C887 C 0.97294 0.37917 0.12262 0.0
C888 C 0.99127 0.38505 0.14178 0.0
C889 C 0.01167 0.38929 0.12848 0.0
C890 C 0.95567 0.37295 0.06897 0.0
C891 C 0.98989 0.38544 0.17636 0.0
C892 C 0.91105 0.38771 0.15548 0.0
C893 C 0.91309 0.35676 0.16072 0.0
C894 C 0.93044 0.39541 0.14335 0.0
C895 C 0.95244 0.3716 0.13638 0.0
C896 C 0.95477 0.34037 0.14208 0.0
C897 C 0.93508 0.33333 0.15418 0.0
C898 C 0.92726 0.42895 0.13754 0.0
C899 C 0.97793 0.31431 0.1349 0.0
H900 H 0.99728 0.38213 0.0529 0.0
H901 H 0.02618 0.39235 0.14324 0.0
H902 H 0.95698 0.34818 0.06988 0.0
H903 H 0.93709 0.38698 0.07623 0.0
H904 H 0.95793 0.37831 0.04479 0.0
H905 H 1.00468 0.39257 0.18797 0.0
H906 H 0.97204 0.40149 0.18394 0.0
H907 H 0.99132 0.36196 0.18408 0.0
H908 H 0.89423 0.40599 0.16085 0.0
H909 H 0.93668 0.30934 0.15776 0.0
H910 H 0.9292 0.43199 0.11269 0.0
H911 H 0.94173 0.43592 0.15006 0.0
H912 H 0.90919 0.44476 0.14479 0.0
H913 H 0.98132 0.31336 0.1099 0.0
H914 H 0.97712 0.2914 0.14164 0.0
H915 H 0.99375 0.31855 0.14704 0.0
C916 C 0.81479 0.94695 0.11387 0.0
C917 C 0.83896 0.94643 0.11051 0.0
C918 C 0.80851 0.93099 0.13735 0.0
C919 C 0.82689 0.91357 0.15781 0.0
C920 C 0.8511 0.91399 0.15561 0.0
C921 C 0.85684 0.93054 0.13205 0.0
C922 C 0.78246 0.93108 0.13889 0.0
C923 C 0.87123 0.89548 0.17696 0.0
C924 C 0.80625 0.87904 0.22587 0.0
C925 C 0.80756 0.84971 0.21369 0.0
C926 C 0.81287 0.90016 0.20817 0.0
C927 C 0.82137 0.89134 0.17801 0.0
C928 C 0.82327 0.86148 0.16601 0.0
C929 C 0.81614 0.84122 0.18384 0.0
C930 C 0.81059 0.93191 0.22154 0.0
C931 C 0.83271 0.85088 0.13417 0.0
H932 H 0.80074 0.9587 0.09743 0.0
H933 H 0.87545 0.93042 0.13018 0.0
H934 H 0.78146 0.90807 0.13116 0.0
H935 H 0.77606 0.93526 0.16287 0.0
H936 H 0.7698 0.94899 0.12414 0.0
H937 H 0.88804 0.90201 0.17545 0.0
H938 H 0.8652 0.89874 0.20111 0.0
H939 H 0.87583 0.87044 0.1709 0.0
H940 H 0.79996 0.88549 0.24907 0.0
H941 H 0.81788 0.81829 0.17448 0.0
H942 H 0.79717 0.94988 0.20767 0.0
H943 H 0.82833 0.93621 0.22056 0.0
H944 H 0.80465 0.93472 0.24577 0.0
H945 H 0.82025 0.86552 0.1167 0.0
H946 H 0.83431 0.82628 0.12901 0.0
H947 H 0.85092 0.85353 0.13169 0.0
C948 C 0.10644 0.67391 0.11642 0.0
C949 C 0.09997 0.67967 0.08541 0.0
C950 C 0.1274 0.67915 0.12926 0.0
C951 C 0.14242 0.68968 0.11038 0.0
C952 C 0.13654 0.69391 0.07867 0.0
C953 C 0.11517 0.68937 0.06672 0.0
C954 C 0.13295 0.67461 0.16321 0.0
C955 C 0.15215 0.70437 0.0573 0.0
C956 C 0.18124 0.73605 0.14494 0.0
C957 C 0.20446 0.71359 0.14631 0.0
C958 C 0.1608 0.72839 0.13392 0.0
C959 C 0.16365 0.69758 0.1239 0.0
C960 C 0.18697 0.67477 0.12533 0.0
C961 C 0.20706 0.683 0.13667 0.0
C962 C 0.13624 0.75342 0.13243 0.0
C963 C 0.19082 0.64189 0.11407 0.0
H964 H 0.09448 0.6667 0.13086 0.0
H965 H 0.11016 0.69365 0.04268 0.0
H966 H 0.15184 0.65879 0.167 0.0
H967 H 0.13178 0.69717 0.17462 0.0
H968 H 0.12013 0.66495 0.1744 0.0
H969 H 0.15043 0.69574 0.03347 0.0
H970 H 0.14587 0.73008 0.05721 0.0
H971 H 0.17172 0.69619 0.06435 0.0
H972 H 0.1791 0.75979 0.15198 0.0
H973 H 0.22483 0.66535 0.13811 0.0
H974 H 0.12249 0.74602 0.14433 0.0
H975 H 0.13003 0.75736 0.10809 0.0
H976 H 0.13677 0.77572 0.14302 0.0
H977 H 0.17855 0.632 0.12607 0.0
H978 H 0.20997 0.62665 0.11766 0.0
H979 H 0.1861 0.64174 0.08916 0.0
C980 C 0.35644 0.88411 0.96313 0.0
C981 C 0.34434 0.91606 0.96116 0.0
C982 C 0.35285 0.86333 0.94035 0.0
C983 C 0.33683 0.87489 0.91508 0.0
C984 C 0.32518 0.90719 0.91252 0.0
C985 C 0.3291 0.92734 0.93556 0.0
C986 C 0.36558 0.829 0.94381 0.0
C987 C 0.30806 0.92045 0.88582 0.0
C988 C 0.3372 0.82675 0.84209 0.0
C989 C 0.31669 0.81737 0.84593 0.0
C990 C 0.34452 0.84466 0.86488 0.0
C991 C 0.33101 0.85333 0.8921 0.0
C992 C 0.31074 0.84318 0.89648 0.0
C993 C 0.30383 0.82535 0.87336 0.0
C994 C 0.36625 0.85506 0.85946 0.0
C995 C 0.29589 0.85194 0.92523 0.0
H996 H 0.36812 0.87529 0.98296 0.0
H997 H 0.32014 0.95206 0.93357 0.0
H998 H 0.35186 0.81724 0.94723 0.0
H999 H 0.37543 0.81884 0.92257 0.0
H1000 H 0.37878 0.82394 0.96357 0.0
H1001 H 0.30134 0.9462 0.88655 0.0
H1002 H 0.31736 0.9124 0.86376 0.0
H1003 H 0.29209 0.91207 0.88603 0.0
H1004 H 0.34732 0.82059 0.82104 0.0
H1005 H 0.28807 0.81804 0.87667 0.0
H1006 H 0.37938 0.849 0.87921 0.0
H1007 H 0.36017 0.88065 0.85758 0.0
H1008 H 0.37587 0.84447 0.83815 0.0
H1009 H 0.30794 0.84544 0.94594 0.0
H1010 H 0.2816 0.84058 0.92592 0.0
H1011 H 0.28689 0.87742 0.92651 0.0
C1012 C 0.17365 0.32529 0.95159 0.0
C1013 C 0.15565 0.35455 0.95217 0.0
C1014 C 0.1924 0.31777 0.93018 0.0
C1015 C 0.19304 0.33994 0.90851 0.0
C1016 C 0.17487 0.3695 0.90889 0.0
C1017 C 0.15649 0.37652 0.93085 0.0
C1018 C 0.21158 0.28611 0.93082 0.0
C1019 C 0.17472 0.39359 0.8859 0.0
C1020 C 0.25373 0.32771 0.87022 0.0
C1021 C 0.25091 0.31184 0.84292 0.0
C1022 C 0.23486 0.33759 0.89153 0.0
C1023 C 0.21254 0.33184 0.88518 0.0
C1024 C 0.20927 0.3169 0.85711 0.0
C1025 C 0.22852 0.30692 0.83645 0.0
C1026 C 0.23916 0.35315 0.92134 0.0
C1027 C 0.18565 0.31069 0.84925 0.0
H1028 H 0.17334 0.30841 0.96834 0.0
H1029 H 0.14251 0.39905 0.93107 0.0
H1030 H 0.21129 0.27357 0.9086 0.0
H1031 H 0.22999 0.28851 0.93385 0.0
H1032 H 0.20881 0.2718 0.94959 0.0
H1033 H 0.15938 0.41551 0.88934 0.0
H1034 H 0.19213 0.39884 0.88769 0.0
H1035 H 0.17323 0.38447 0.86223 0.0
H1036 H 0.271 0.33144 0.8755 0.0
H1037 H 0.2261 0.29484 0.81533 0.0
H1038 H 0.23861 0.33842 0.94087 0.0
H1039 H 0.22447 0.37564 0.9247 0.0
H1040 H 0.25703 0.35733 0.92214 0.0
H1041 H 0.1829 0.29415 0.86569 0.0
H1042 H 0.1854 0.30085 0.82559 0.0
H1043 H 0.17 0.33243 0.85139 0.0
C1044 C 0.83692 0.12078 0.95532 0.0
C1045 C 0.85107 0.09187 0.94329 0.0
C1046 C 0.83031 0.14723 0.93744 0.0
C1047 C 0.8383 0.14474 0.90687 0.0
C1048 C 0.85358 0.11595 0.895 0.0
C1049 C 0.85979 0.08974 0.91341 0.0
C1050 C 0.81413 0.1776 0.95095 0.0
C1051 C 0.86268 0.11264 0.86256 0.0
C1052 C 0.80108 0.2045 0.85063 0.0
C1053 C 0.81491 0.22462 0.84995 0.0
C1054 C 0.80848 0.17837 0.86916 0.0
C1055 C 0.83025 0.17223 0.88721 0.0
C1056 C 0.84411 0.19261 0.88691 0.0
C1057 C 0.83623 0.21862 0.8684 0.0
C1058 C 0.79313 0.15719 0.86925 0.0
C1059 C 0.86746 0.18673 0.90581 0.0
H1060 H 0.83058 0.12257 0.97864 0.0
H1061 H 0.87058 0.0674 0.904 0.0
H1062 H 0.8229 0.19578 0.94924 0.0
H1063 H 0.7966 0.18545 0.9377 0.0
H1064 H 0.81012 0.17575 0.97544 0.0
H1065 H 0.87549 0.08907 0.85742 0.0
H1066 H 0.84699 0.11742 0.84601 0.0
H1067 H 0.87206 0.12985 0.8587 0.0
H1068 H 0.78465 0.20892 0.83642 0.0
H1069 H 0.84716 0.23391 0.86799 0.0
H1070 H 0.78732 0.15549 0.89296 0.0
H1071 H 0.80409 0.13349 0.86148 0.0
H1072 H 0.7766 0.16538 0.8541 0.0
H1073 H 0.86377 0.1857 0.93051 0.0
H1074 H 0.87609 0.20494 0.90301 0.0
H1075 H 0.88069 0.16397 0.89903 0.0
C1076 C 0.96121 0.68006 0.90853 0.0
C1077 C 0.95767 0.69807 0.93581 0.0
C1078 C 0.94371 0.68715 0.8844 0.0
C1079 C 0.92207 0.71269 0.88777 0.0
C1080 C 0.91827 0.73073 0.9154 0.0
C1081 C 0.93614 0.72325 0.93901 0.0
C1082 C 0.94851 0.66755 0.85519 0.0
C1083 C 0.89532 0.75797 0.92003 0.0
C1084 C 0.8851 0.75144 0.81789 0.0
C1085 C 0.86583 0.73907 0.81696 0.0
C1086 C 0.9039 0.74241 0.8403 0.0
C1087 C 0.90332 0.72068 0.86247 0.0
C1088 C 0.88422 0.7076 0.86124 0.0
C1089 C 0.86578 0.71684 0.83845 0.0
C1090 C 0.92407 0.7567 0.84069 0.0
C1091 C 0.88287 0.68453 0.8846 0.0
H1092 H 0.97793 0.66083 0.90577 0.0
H1093 H 0.93316 0.73698 0.96019 0.0
H1094 H 0.93365 0.65746 0.85059 0.0
H1095 H 0.94864 0.68222 0.83543 0.0
H1096 H 0.96618 0.6484 0.85626 0.0
H1097 H 0.89503 0.76939 0.94303 0.0
H1098 H 0.89366 0.7754 0.90222 0.0
H1099 H 0.87906 0.75021 0.9174 0.0
H1100 H 0.88535 0.76855 0.80136 0.0
H1101 H 0.85094 0.7072 0.83802 0.0
H1102 H 0.94212 0.73827 0.84056 0.0
H1103 H 0.92336 0.77082 0.86211 0.0
H1104 H 0.9227 0.77176 0.82074 0.0
H1105 H 0.90008 0.66466 0.88509 0.0
H1106 H 0.8674 0.67554 0.87972 0.0
H1107 H 0.88069 0.69563 0.90787 0.0
C1108 C 0.18286 0.2838 0.08997 0.0
C1109 C 0.15757 0.29818 0.09269 0.0
C1110 C 0.19904 0.2825 0.11515 0.0
C1111 C 0.18985 0.29619 0.14382 0.0
C1112 C 0.16429 0.30986 0.14701 0.0
C1113 C 0.14848 0.31056 0.12151 0.0
C1114 C 0.22609 0.26724 0.11077 0.0
C1115 C 0.15367 0.32479 0.17708 0.0
C1116 C 0.23103 0.27379 0.21546 0.0
C1117 C 0.24095 0.29812 0.21863 0.0
C1118 C 0.21433 0.27294 0.19145 0.0
C1119 C 0.20707 0.29716 0.17008 0.0
C1120 C 0.2167 0.32204 0.17342 0.0
C1121 C 0.23357 0.32214 0.19748 0.0
C1122 C 0.20479 0.24581 0.18864 0.0
C1123 C 0.20935 0.34846 0.15133 0.0
H1124 H 0.19013 0.27409 0.06789 0.0
H1125 H 0.12903 0.32192 0.12391 0.0
H1126 H 0.23556 0.2848 0.11379 0.0
H1127 H 0.23377 0.24948 0.1284 0.0
H1128 H 0.23022 0.25603 0.08764 0.0
H1129 H 0.1334 0.3331 0.1763 0.0
H1130 H 0.16006 0.3081 0.19593 0.0
H1131 H 0.16011 0.34478 0.18285 0.0
H1132 H 0.23666 0.25495 0.23146 0.0
H1133 H 0.24104 0.34107 0.19965 0.0
H1134 H 0.2103 0.23323 0.16643 0.0
H1135 H 0.18455 0.25413 0.18874 0.0
H1136 H 0.2117 0.22924 0.20755 0.0
H1137 H 0.21484 0.33954 0.12775 0.0
H1138 H 0.2178 0.36657 0.15761 0.0
H1139 H 0.18921 0.35931 0.15077 0.0
C1140 C 0.066 0.76835 0.9787 0.0
C1141 C 0.06118 0.74129 0.96864 0.0
C1142 C 0.08537 0.77637 0.96637 0.0
C1143 C 0.1004 0.75664 0.94386 0.0
C1144 C 0.09476 0.73018 0.93271 0.0
C1145 C 0.07522 0.72307 0.94498 0.0
C1146 C 0.09038 0.80518 0.97841 0.0
C1147 C 0.11023 0.70826 0.90893 0.0
C1148 C 0.14617 0.77421 0.8928 0.0
C1149 C 0.16843 0.75795 0.90744 0.0
C1150 C 0.12366 0.77633 0.90568 0.0
C1151 C 0.12332 0.76147 0.93363 0.0
C1152 C 0.14566 0.74687 0.94945 0.0
C1153 C 0.16782 0.74552 0.93635 0.0
C1154 C 0.10029 0.79287 0.88841 0.0
C1155 C 0.14631 0.73065 0.97923 0.0
H1156 H 0.0553 0.78261 0.99694 0.0
H1157 H 0.07155 0.70229 0.9367 0.0
H1158 H 0.10648 0.79856 0.99433 0.0
H1159 H 0.09467 0.81793 0.95933 0.0
H1160 H 0.07464 0.82096 0.99106 0.0
H1161 H 0.10282 0.68939 0.90175 0.0
H1162 H 0.11156 0.72107 0.88824 0.0
H1163 H 0.12903 0.69761 0.91838 0.0
H1164 H 0.14627 0.78398 0.8705 0.0
H1165 H 0.18481 0.73374 0.94839 0.0
H1166 H 0.08633 0.80723 0.9044 0.0
H1167 H 0.09287 0.77555 0.87707 0.0
H1168 H 0.10323 0.80795 0.87046 0.0
H1169 H 0.13334 0.74605 0.99565 0.0
H1170 H 0.16482 0.72315 0.99021 0.0
H1171 H 0.14059 0.70987 0.97477 0.0
C1172 C 0.32665 0.08536 0.95067 0.0
C1173 C 0.30534 0.09253 0.96793 0.0
C1174 C 0.32886 0.10469 0.92686 0.0
C1175 C 0.30941 0.1322 0.91996 0.0
C1176 C 0.28788 0.13949 0.93731 0.0
C1177 C 0.28609 0.1197 0.96079 0.0
C1178 C 0.35215 0.0957 0.90911 0.0
C1179 C 0.26667 0.16852 0.93129 0.0
C1180 C 0.32221 0.19971 0.88116 0.0
C1181 C 0.31418 0.1975 0.85051 0.0
C1182 C 0.32115 0.17849 0.90355 0.0
C1183 C 0.3118 0.15401 0.89558 0.0
C1184 C 0.30397 0.15129 0.8646 0.0
C1185 C 0.30524 0.17292 0.84257 0.0
C1186 C 0.32968 0.18269 0.93605 0.0
C1187 C 0.29387 0.12573 0.8548 0.0
H1188 H 0.34166 0.0645 0.95566 0.0
H1189 H 0.26949 0.12575 0.97375 0.0
H1190 H 0.34801 0.09402 0.88418 0.0
H1191 H 0.36098 0.11388 0.91234 0.0
H1192 H 0.36531 0.07321 0.91642 0.0
H1193 H 0.251 0.17073 0.94624 0.0
H1194 H 0.27255 0.18923 0.93524 0.0
H1195 H 0.26039 0.16859 0.90693 0.0
H1196 H 0.3292 0.21839 0.88794 0.0
H1197 H 0.29888 0.17079 0.81918 0.0
H1198 H 0.34394 0.16115 0.94351 0.0
H1199 H 0.31423 0.1872 0.95188 0.0
H1200 H 0.33722 0.20218 0.93849 0.0
H1201 H 0.30721 0.10287 0.86057 0.0
H1202 H 0.28948 0.12582 0.82976 0.0
H1203 H 0.27703 0.1283 0.86753 0.0
C1204 C 0.04044 0.30975 0.96735 0.0
C1205 C 0.04428 0.29695 0.99673 0.0
C1206 C 0.01943 0.31109 0.94942 0.0
C1207 C 1.00174 0.29915 0.96088 0.0
C1208 C 0.00607 0.28485 0.98987 0.0
C1209 C 0.02717 0.28402 1.00743 0.0
C1210 C 0.01562 0.32664 0.91876 0.0
C1211 C 0.98788 0.27159 1.00297 0.0
C1212 C 0.93591 0.33542 0.93201 0.0
C1213 C 0.93343 0.31389 0.9093 0.0
C1214 C 0.95785 0.3307 0.94905 0.0
C1215 C 0.97802 0.30365 0.94356 0.0
C1216 C 0.97555 0.28149 0.92113 0.0
C1217 C 0.95338 0.28687 0.90429 0.0
C1218 C 0.95953 0.35491 0.97279 0.0
C1219 C 0.99646 0.25224 0.91467 0.0
H1220 H 0.05341 0.31989 0.95876 0.0
H1221 H 0.02983 0.27408 0.03004 0.0
H1222 H 0.0116 0.31127 0.90053 0.0
H1223 H 0.99963 0.34812 0.91978 0.0
H1224 H 0.03177 0.33283 0.9121 0.0
H1225 H 0.99509 0.25827 0.02405 0.0
H1226 H 0.97098 0.29069 1.00882 0.0
H1227 H 0.98275 0.25618 0.98572 0.0
H1228 H 0.92058 0.35606 0.93665 0.0
H1229 H 0.95187 0.27016 0.8867 0.0
H1230 H 0.974 0.36455 0.96659 0.0
H1231 H 0.96472 0.34421 0.99556 0.0
H1232 H 0.94207 0.37428 0.97493 0.0
H1233 H 0.01212 0.2582 0.90594 0.0
H1234 H 0.99138 0.23667 0.89749 0.0
H1235 H 1.00276 0.23942 0.9362 0.0
C1236 C 0.83167 0.92291 0.93913 0.0
C1237 C 0.81482 0.95186 0.94753 0.0
C1238 C 0.82687 0.90441 0.91484 0.0
C1239 C 0.80449 0.91466 0.89802 0.0
C1240 C 0.7871 0.94363 0.90653 0.0
C1241 C 0.79244 0.96189 0.93114 0.0
C1242 C 0.84604 0.8738 0.90704 0.0
C1243 C 0.76294 0.95544 0.88943 0.0
C1244 C 0.80648 0.87456 0.81865 0.0
C1245 C 0.79777 0.84998 0.82476 0.0
C1246 C 0.80759 0.89668 0.84177 0.0
C1247 C 0.79968 0.89454 0.87189 0.0
C1248 C 0.78988 0.87059 0.87777 0.0
C1249 C 0.78915 0.84869 0.85435 0.0
C1250 C 0.81834 0.92155 0.83428 0.0
C1251 C 0.78112 0.86722 0.90929 0.0
H1252 H 0.84901 0.91454 0.9515 0.0
H1253 H 0.77929 0.98413 0.93719 0.0
H1254 H 0.83842 0.85457 0.90912 0.0
H1255 H 0.85159 0.87357 0.88288 0.0
H1256 H 0.86257 0.86914 0.92221 0.0
H1257 H 0.75111 0.97793 0.89913 0.0
H1258 H 0.76604 0.95843 0.8649 0.0
H1259 H 0.75313 0.93824 0.89017 0.0
H1260 H 0.81323 0.87597 0.79602 0.0
H1261 H 0.78218 0.83008 0.85951 0.0
H1262 H 0.83607 0.91734 0.8468 0.0
H1263 H 0.80614 0.94464 0.84199 0.0
H1264 H 0.82141 0.92212 0.80929 0.0
H1265 H 0.79694 0.85995 0.92562 0.0
H1266 H 0.77145 0.84978 0.90937 0.0
H1267 H 0.76866 0.88977 0.91793 0.0
C1268 C 0.96248 0.70954 0.11779 0.0
C1269 C 0.96215 0.73113 0.09545 0.0
C1270 C 0.94447 0.71588 0.14004 0.0
C1271 C 0.92519 0.74444 0.13982 0.0
C1272 C 0.92506 0.76686 0.1179 0.0
C1273 C 0.94372 0.76004 0.09607 0.0
C1274 C 0.94573 0.69153 0.16328 0.0
C1275 C 0.9047 0.79748 0.11674 0.0
C1276 C 0.86715 0.74116 0.17623 0.0
C1277 C 0.86856 0.75419 0.20562 0.0
C1278 C 0.88492 0.73902 0.15424 0.0
C1279 C 0.90482 0.74982 0.1618 0.0
C1280 C 0.90624 0.76324 0.19133 0.0
C1281 C 0.88809 0.76539 0.21277 0.0
C1282 C 0.88254 0.72483 0.12294 0.0
C1283 C 0.92721 0.77478 0.20052 0.0
H1284 H 0.97682 0.68725 0.11762 0.0
H1285 H 0.94327 0.7767 0.07872 0.0
H1286 H 0.9447 0.70168 0.18692 0.0
H1287 H 0.92992 0.68302 0.1597 0.0
H1288 H 0.96276 0.67141 0.16163 0.0
H1289 H 0.90803 0.81323 0.0998 0.0
H1290 H 0.88725 0.79339 0.1104 0.0
H1291 H 0.90237 0.80924 0.13969 0.0
H1292 H 0.85197 0.73294 0.1702 0.0
H1293 H 0.88931 0.77575 0.23529 0.0
H1294 H 0.89797 0.70304 0.11959 0.0
H1295 H 0.88346 0.7408 0.10471 0.0
H1296 H 0.86518 0.71952 0.11988 0.0
H1297 H 0.94458 0.75512 0.2003 0.0
H1298 H 0.92507 0.78597 0.22379 0.0
H1299 H 0.92882 0.79171 0.18373 0.0
C1300 C 0.30818 0.95165 0.07617 0.0
C1301 C 0.29076 0.98032 0.08364 0.0
C1302 C 0.31503 0.92709 0.0973 0.0
C1303 C 0.304 0.931 0.12656 0.0
C1304 C 0.28748 0.96054 0.13467 0.0
C1305 C 0.2811 0.98455 0.11326 0.0
C1306 C 0.33295 0.89634 0.08749 0.0
C1307 C 0.2752 0.96632 0.16536 0.0
C1308 C 0.29449 0.86242 0.16749 0.0
C1309 C 0.31198 0.85684 0.19167 0.0
C1310 C 0.29227 0.88565 0.14579 0.0
C1311 C 0.30798 0.904 0.14781 0.0
C1312 C 0.32612 0.89793 0.17165 0.0
C1313 C 0.32782 0.87471 0.19322 0.0
C1314 C 0.27252 0.89114 0.1211 0.0
C1315 C 0.34344 0.91651 0.17482 0.0
H1316 H 0.31518 0.94761 0.05313 0.0
H1317 H 0.26732 1.00639 0.11914 0.0
H1318 H 0.34663 0.88698 0.10612 0.0
H1319 H 0.32308 0.87943 0.08277 0.0
H1320 H 0.34262 0.89821 0.06641 0.0
H1321 H 0.26439 0.99111 0.16926 0.0
H1322 H 0.26279 0.95229 0.16653 0.0
H1323 H 0.28896 0.95902 0.18431 0.0
H1324 H 0.28208 0.84901 0.16581 0.0
H1325 H 0.34151 0.87077 0.21157 0.0
H1326 H 0.28053 0.88987 0.09811 0.0
H1327 H 0.25922 0.91477 0.12415 0.0
H1328 H 0.26254 0.87407 0.12154 0.0
H1329 H 0.35232 0.91641 0.15262 0.0
H1330 H 0.35782 0.9074 0.1928 0.0
H1331 H 0.33314 0.94099 0.18084 0.0
C1332 C 0.832 0.10629 0.08705 0.0
C1333 C 0.81391 0.09376 0.07616 0.0
C1334 C 0.82714 0.13064 0.10906 0.0
C1335 C 0.80342 0.14346 0.1209 0.0
C1336 C 0.78471 0.13181 0.10932 0.0
C1337 C 0.79015 0.10712 0.08709 0.0
C1338 C 0.84779 0.142 0.12037 0.0
C1339 C 0.75911 0.14489 0.12104 0.0
C1340 C 0.80353 0.18087 0.20092 0.0
C1341 C 0.79897 0.21227 0.19444 0.0
C1342 C 0.80367 0.15866 0.17748 0.0
C1343 C 0.79906 0.16776 0.14645 0.0
C1344 C 0.79343 0.19963 0.13986 0.0
C1345 C 0.79351 0.2214 0.1638 0.0
C1346 C 0.80993 0.12509 0.18585 0.0
C1347 C 0.78827 0.2106 0.10729 0.0
H1348 H 0.8504 0.09665 0.07868 0.0
H1349 H 0.776 0.09777 0.07898 0.0
H1350 H 0.84275 0.16738 0.11741 0.0
H1351 H 0.85128 0.13764 0.14528 0.0
H1352 H 0.86499 0.13044 0.10808 0.0
H1353 H 0.74617 0.13544 0.108 0.0
H1354 H 0.75902 0.13931 0.14562 0.0
H1355 H 0.75254 0.17052 0.11956 0.0
H1356 H 0.80765 0.17333 0.22439 0.0
H1357 H 0.7898 0.24552 0.15834 0.0
H1358 H 0.82794 0.11159 0.17642 0.0
H1359 H 0.79628 0.1151 0.17552 0.0
H1360 H 0.81073 0.12207 0.21111 0.0
H1361 H 0.80529 0.20207 0.09404 0.0
H1362 H 0.78123 0.23629 0.10626 0.0
H1363 H 0.77478 0.20102 0.09582 0.0
C1364 C 0.6256 0.59135 0.86049 0.0
C1365 C 0.60255 0.60937 0.87096 0.0
C1366 C 0.64336 0.60494 0.854 0.0
C1367 C 0.638 0.63735 0.85821 0.0
C1368 C 0.61496 0.65562 0.86927 0.0
C1369 C 0.59751 0.64142 0.8755 0.0
C1370 C 0.66778 0.58466 0.84237 0.0
C1371 C 0.60861 0.69026 0.87411 0.0
C1372 C 0.69039 0.66998 0.86756 0.0
C1373 C 0.69112 0.68139 0.83822 0.0
C1374 C 0.67328 0.65546 0.87432 0.0
C1375 C 0.65653 0.65216 0.85115 0.0
C1376 C 0.65732 0.66329 0.82136 0.0
C1377 C 0.67464 0.67777 0.81524 0.0
C1378 C 0.67306 0.64378 0.90631 0.0
C1379 C 0.63974 0.66013 0.79606 0.0
H1380 H 0.62975 0.56654 0.85735 0.0
H1381 H 0.57968 0.65559 0.88315 0.0
H1382 H 0.67092 0.59235 0.81944 0.0
H1383 H 0.68265 0.58692 0.85804 0.0
H1384 H 0.66908 0.55983 0.84045 0.0
H1385 H 0.59002 0.70108 0.88331 0.0
H1386 H 0.62201 0.69551 0.89034 0.0
H1387 H 0.60963 0.70116 0.85204 0.0
H1388 H 0.70337 0.67219 0.88527 0.0
H1389 H 0.67499 0.68676 0.79261 0.0
H1390 H 0.67581 0.61854 0.90527 0.0
H1391 H 0.65505 0.65539 0.91669 0.0
H1392 H 0.68746 0.64796 0.92165 0.0
H1393 H 0.64134 0.63538 0.79225 0.0
H1394 H 0.64304 0.66952 0.77403 0.0
H1395 H 0.62072 0.67259 0.80291 0.0
C1396 C 0.47612 0.61248 0.80705 0.0
C1397 C 0.47924 0.58094 0.8013 0.0
C1398 C 0.4531 0.63532 0.80335 0.0
C1399 C 0.43264 0.62657 0.7934 0.0
C1400 C 0.43587 0.59492 0.7865 0.0
C1401 C 0.45903 0.57256 0.79063 0.0
C1402 C 0.45053 0.66875 0.81098 0.0
C1403 C 0.4147 0.58455 0.77543 0.0
C1404 C 0.3686 0.67996 0.81305 0.0
C1405 C 0.36074 0.69569 0.78551 0.0
C1406 C 0.39191 0.65751 0.81594 0.0
C1407 C 0.40781 0.65041 0.79068 0.0
C1408 C 0.39991 0.66604 0.76278 0.0
C1409 C 0.3766 0.6884 0.76056 0.0
C1410 C 0.39961 0.64152 0.84615 0.0
C1411 C 0.41612 0.65917 0.73521 0.0
H1412 H 0.49151 0.61929 0.81549 0.0
H1413 H 0.46116 0.54832 0.78608 0.0
H1414 H 0.44249 0.68341 0.79102 0.0
H1415 H 0.4379 0.67726 0.83032 0.0
H1416 H 0.46829 0.67194 0.81747 0.0
H1417 H 0.4204 0.55932 0.76973 0.0
H1418 H 0.40073 0.58981 0.79342 0.0
H1419 H 0.40588 0.59746 0.75473 0.0
H1420 H 0.35664 0.6854 0.83252 0.0
H1421 H 0.37084 0.70022 0.73908 0.0
H1422 H 0.41642 0.6457 0.85529 0.0
H1423 H 0.404 0.61611 0.84265 0.0
H1424 H 0.38524 0.64968 0.86364 0.0
H1425 H 0.4335 0.66357 0.74117 0.0
H1426 H 0.40736 0.67346 0.71523 0.0
H1427 H 0.42079 0.63434 0.72827 0.0
C1428 C 0.5018 0.44641 0.8504 0.0
C1429 C 0.50506 0.45845 0.87977 0.0
C1430 C 0.48864 0.42559 0.84608 0.0
C1431 C 0.47822 0.41679 0.87165 0.0
C1432 C 0.4822 0.42783 0.90148 0.0
C1433 C 0.49566 0.44842 0.90519 0.0
C1434 C 0.48492 0.41417 0.8139 0.0
C1435 C 0.47136 0.41894 0.92933 0.0
C1436 C 0.42062 0.39586 0.85613 0.0
C1437 C 0.4294 0.36345 0.85734 0.0
C1438 C 0.43634 0.41343 0.86096 0.0
C1439 C 0.4615 0.39818 0.86684 0.0
C1440 C 0.47054 0.36542 0.86781 0.0
C1441 C 0.45431 0.34842 0.86325 0.0
C1442 C 0.42595 0.44835 0.86003 0.0
C1443 C 0.49732 0.34839 0.87353 0.0
H1444 H 0.50862 0.45416 0.83047 0.0
H1445 H 0.49842 0.45714 0.92798 0.0
H1446 H 0.48939 0.3886 0.81324 0.0
H1447 H 0.46547 0.42429 0.80668 0.0
H1448 H 0.49629 0.42056 0.79697 0.0
H1449 H 0.47761 0.42767 0.95112 0.0
H1450 H 0.45115 0.42857 0.92767 0.0
H1451 H 0.47625 0.39337 0.93026 0.0
H1452 H 0.4013 0.40754 0.85203 0.0
H1453 H 0.46112 0.32333 0.86403 0.0
H1454 H 0.43479 0.45706 0.84181 0.0
H1455 H 0.42984 0.45874 0.88221 0.0
H1456 H 0.40591 0.45659 0.85554 0.0
H1457 H 0.50825 0.35411 0.85563 0.0
H1458 H 0.50142 0.32285 0.87346 0.0
H1459 H 0.50334 0.35594 0.89602 0.0
C1460 C 0.62732 0.47134 0.80884 0.0
C1461 C 0.61465 0.46671 0.83411 0.0
C1462 C 0.65091 0.45095 0.80232 0.0
C1463 C 0.66183 0.42506 0.82118 0.0
C1464 C 0.64871 0.41991 0.84614 0.0
C1465 C 0.62549 0.44086 0.85242 0.0
C1466 C 0.66437 0.45746 0.77569 0.0
C1467 C 0.65926 0.3923 0.86644 0.0
C1468 C 0.71246 0.35495 0.79046 0.0
C1469 C 0.73344 0.35817 0.80544 0.0
C1470 C 0.68925 0.37674 0.79495 0.0
C1471 C 0.68672 0.40282 0.81472 0.0
C1472 C 0.70782 0.40647 0.82971 0.0
C1473 C 0.73089 0.384 0.82509 0.0
C1474 C 0.66734 0.37149 0.77888 0.0
C1475 C 0.70598 0.4341 0.85073 0.0
H1476 H 0.61919 0.49146 0.79485 0.0
H1477 H 0.61577 0.43703 0.87193 0.0
H1478 H 0.6817 0.4607 0.78413 0.0
H1479 H 0.66922 0.43739 0.75925 0.0
H1480 H 0.65344 0.47847 0.76322 0.0
H1481 H 0.64649 0.3912 0.88449 0.0
H1482 H 0.66385 0.37054 0.85234 0.0
H1483 H 0.67644 0.39331 0.87778 0.0
H1484 H 0.7141 0.33508 0.77528 0.0
H1485 H 0.74695 0.38691 0.83651 0.0
H1486 H 0.65732 0.39185 0.76502 0.0
H1487 H 0.65457 0.36883 0.79618 0.0
H1488 H 0.67246 0.35053 0.76352 0.0
H1489 H 0.6967 0.45587 0.83847 0.0
H1490 H 0.72415 0.43454 0.8593 0.0
H1491 H 0.69474 0.43373 0.87075 0.0
C1492 C 0.62823 0.42437 0.20989 0.0
C1493 C 0.61771 0.45027 0.22921 0.0
C1494 C 0.6503 0.40162 0.21784 0.0
C1495 C 0.66244 0.4046 0.24593 0.0
C1496 C 0.65143 0.42993 0.26629 0.0
C1497 C 0.62914 0.45248 0.25772 0.0
C1498 C 0.66118 0.37507 0.1954 0.0
C1499 C 0.66369 0.43388 0.29653 0.0
C1500 C 0.7146 0.33218 0.26918 0.0
C1501 C 0.73491 0.33809 0.25743 0.0
C1502 C 0.691 0.35411 0.26684 0.0
C1503 C 0.68755 0.38261 0.25229 0.0
C1504 C 0.70807 0.38896 0.24108 0.0
C1505 C 0.73138 0.36674 0.24379 0.0
C1506 C 0.66968 0.34643 0.27923 0.0
C1507 C 0.70533 0.41892 0.22529 0.0
H1508 H 0.61945 0.42215 0.18795 0.0
H1509 H 0.62118 0.47236 0.27281 0.0
H1510 H 0.6784 0.37683 0.18651 0.0
H1511 H 0.66576 0.3526 0.20708 0.0
H1512 H 0.64866 0.37487 0.17556 0.0
H1513 H 0.65164 0.45262 0.31124 0.0
H1514 H 0.66929 0.41194 0.30927 0.0
H1515 H 0.68049 0.43962 0.29221 0.0
H1516 H 0.71705 0.31031 0.28003 0.0
H1517 H 0.74684 0.37181 0.23477 0.0
H1518 H 0.65756 0.34355 0.25991 0.0
H1519 H 0.6587 0.36572 0.29423 0.0
H1520 H 0.67561 0.32479 0.29254 0.0
H1521 H 0.6944 0.42007 0.20367 0.0
H1522 H 0.72321 0.42123 0.21965 0.0
H1523 H 0.69537 0.43901 0.2401 0.0
C1524 C 0.63478 0.57953 0.19336 0.0
C1525 C 0.61363 0.59024 0.1748 0.0
C1526 C 0.65159 0.59585 0.19601 0.0
C1527 C 0.64696 0.62375 0.18001 0.0
C1528 C 0.62557 0.63476 0.16137 0.0
C1529 C 0.60924 0.61776 0.15883 0.0
C1530 C 0.67437 0.58312 0.21577 0.0
C1531 C 0.61984 0.66463 0.14427 0.0
C1532 C 0.67959 0.68017 0.20808 0.0
C1533 C 0.69844 0.67424 0.18697 0.0
C1534 C 0.66262 0.66404 0.20602 0.0
C1535 C 0.66467 0.64122 0.18244 0.0
C1536 C 0.68365 0.63508 0.1611 0.0
C1537 C 0.70018 0.65178 0.1635 0.0
C1538 C 0.64254 0.67134 0.22911 0.0
C1539 C 0.68651 0.61083 0.13571 0.0
H1540 H 0.63831 0.55812 0.20548 0.0
H1541 H 0.59273 0.62634 0.14485 0.0
H1542 H 0.69078 0.5789 0.20165 0.0
H1543 H 0.67512 0.6003 0.23412 0.0
H1544 H 0.67526 0.5611 0.22667 0.0
H1545 H 0.60226 0.67021 0.13108 0.0
H1546 H 0.61894 0.68408 0.16072 0.0
H1547 H 0.63461 0.66304 0.1281 0.0
H1548 H 0.67827 0.69716 0.22654 0.0
H1549 H 0.71439 0.6474 0.14674 0.0
H1550 H 0.644 0.65033 0.24217 0.0
H1551 H 0.62447 0.67839 0.21704 0.0
H1552 H 0.64317 0.69017 0.24566 0.0
H1553 H 0.68861 0.58802 0.14566 0.0
H1554 H 0.70253 0.60844 0.12133 0.0
H1555 H 0.66988 0.61691 0.12067 0.0
C1556 C 0.49478 0.63951 0.2225 0.0
C1557 C 0.50004 0.61021 0.23532 0.0
C1558 C 0.4734 0.66376 0.22962 0.0
C1559 C 0.45647 0.6585 0.24964 0.0
C1560 C 0.46234 0.62945 0.26407 0.0
C1561 C 0.48421 0.60563 0.25689 0.0
C1562 C 0.46825 0.69441 0.21411 0.0
C1563 C 0.44476 0.6228 0.2854 0.0
C1564 C 0.40423 0.72928 0.27663 0.0
C1565 C 0.38569 0.7297 0.2548 0.0
C1566 C 0.42721 0.706 0.27569 0.0
C1567 C 0.43173 0.68228 0.2526 0.0
C1568 C 0.41297 0.68235 0.23083 0.0
C1569 C 0.39032 0.70607 0.23207 0.0
C1570 C 0.44676 0.70705 0.2991 0.0
C1571 C 0.41688 0.65744 0.20593 0.0
H1572 H 0.50704 0.64312 0.20584 0.0
H1573 H 0.48806 0.5829 0.26653 0.0
H1574 H 0.45311 0.69741 0.19695 0.0
H1575 H 0.46238 0.71388 0.23114 0.0
H1576 H 0.48443 0.69599 0.20215 0.0
H1577 H 0.45319 0.60081 0.29771 0.0
H1578 H 0.43808 0.64201 0.30256 0.0
H1579 H 0.42864 0.62102 0.27193 0.0
H1580 H 0.40087 0.74733 0.29438 0.0
H1581 H 0.3761 0.70586 0.21532 0.0
H1582 H 0.46249 0.71008 0.28731 0.0
H1583 H 0.45359 0.68481 0.31129 0.0
H1584 H 0.44008 0.72624 0.31633 0.0
H1585 H 0.43141 0.65856 0.1905 0.0
H1586 H 0.40005 0.65977 0.19185 0.0
H1587 H 0.42308 0.6342 0.21627 0.0
C1588 C 0.48948 0.45891 0.21935 0.0
C1589 C 0.49099 0.47026 0.19021 0.0
C1590 C 0.47202 0.44459 0.22524 0.0
C1591 C 0.45558 0.4417 0.20144 0.0
C1592 C 0.45675 0.45356 0.17212 0.0
C1593 C 0.4745 0.46759 0.16683 0.0
C1594 C 0.47151 0.43199 0.25673 0.0
C1595 C 0.43939 0.45116 0.14622 0.0
C1596 C 0.42677 0.37803 0.20423 0.0
C1597 C 0.40325 0.39441 0.21436 0.0
C1598 C 0.44409 0.39305 0.20047 0.0
C1599 C 0.43771 0.4253 0.20684 0.0
C1600 C 0.41414 0.44189 0.21762 0.0
C1601 C 0.39721 0.4262 0.22136 0.0
C1602 C 0.46912 0.37447 0.18927 0.0
C1603 C 0.40665 0.47632 0.22453 0.0
H1604 H 0.50237 0.46052 0.2374 0.0
H1605 H 0.47537 0.47668 0.14441 0.0
H1606 H 0.45306 0.44208 0.26641 0.0
H1607 H 0.47547 0.40651 0.25494 0.0
H1608 H 0.48501 0.437 0.27301 0.0
H1609 H 0.44213 0.46252 0.12512 0.0
H1610 H 0.44195 0.42642 0.14054 0.0
H1611 H 0.42024 0.46201 0.15343 0.0
H1612 H 0.43162 0.35335 0.19921 0.0
H1613 H 0.37898 0.439 0.22896 0.0
H1614 H 0.48337 0.37724 0.2057 0.0
H1615 H 0.47227 0.38324 0.16687 0.0
H1616 H 0.47145 0.34938 0.18638 0.0
H1617 H 0.41958 0.48149 0.24155 0.0
H1618 H 0.38792 0.48563 0.23365 0.0
H1619 H 0.40737 0.48874 0.2033 0.0
C1620 C 0.81937 0.58057 0.60025 0.0
C1621 C 0.82169 0.58898 0.57004 0.0
C1622 C 0.81811 0.60143 0.62544 0.0
C1623 C 0.8183 0.63197 0.62044 0.0
C1624 C 0.82049 0.64057 0.58994 0.0
C1625 C 0.82254 0.61894 0.56534 0.0
C1626 C 0.81643 0.59082 0.65748 0.0
C1627 C 0.82003 0.673 0.58314 0.0
C1628 C 0.79079 0.69593 0.68119 0.0
C1629 C 0.81163 0.70059 0.69504 0.0
C1630 C 0.79266 0.67377 0.65708 0.0
C1631 C 0.81598 0.65503 0.64689 0.0
C1632 C 0.83708 0.65909 0.66145 0.0
C1633 C 0.83466 0.68207 0.68486 0.0
C1634 C 0.76958 0.67126 0.6418 0.0
C1635 C 0.86231 0.63918 0.65221 0.0
H1636 H 0.81864 0.55756 0.60421 0.0
H1637 H 0.82392 0.62596 0.54213 0.0
H1638 H 0.83119 0.5945 0.67246 0.0
H1639 H 0.79881 0.60481 0.66755 0.0
H1640 H 0.81785 0.56596 0.65781 0.0
H1641 H 0.82146 0.6763 0.55821 0.0
H1642 H 0.80281 0.69005 0.59141 0.0
H1643 H 0.8353 0.67825 0.5956 0.0
H1644 H 0.7729 0.71039 0.68852 0.0
H1645 H 0.85088 0.68535 0.69546 0.0
H1646 H 0.7701 0.64675 0.64002 0.0
H1647 H 0.76799 0.67995 0.61807 0.0
H1648 H 0.75302 0.68489 0.65441 0.0
H1649 H 0.86401 0.61429 0.65338 0.0
H1650 H 0.87684 0.64364 0.6671 0.0
H1651 H 0.86544 0.64366 0.62809 0.0
C1652 C 0.52477 0.78156 0.60007 0.0
C1653 C 0.53733 0.75311 0.58558 0.0
C1654 C 0.5024 0.78627 0.61439 0.0
C1655 C 0.49216 0.76197 0.61434 0.0
C1656 C 0.50483 0.73306 0.60008 0.0
C1657 C 0.52723 0.72897 0.58594 0.0
C1658 C 0.48962 0.81742 0.62939 0.0
C1659 C 0.49454 0.70658 0.59936 0.0
C1660 C 0.4437 0.76699 0.67351 0.0
C1661 C 0.42192 0.7791 0.65626 0.0
C1662 C 0.46663 0.76095 0.66013 0.0
C1663 C 0.46796 0.76711 0.62867 0.0
C1664 C 0.44609 0.77899 0.61104 0.0
C1665 C 0.42342 0.78479 0.62499 0.0
C1666 C 0.48947 0.7484 0.6798 0.0
C1667 C 0.44662 0.7858 0.57742 0.0
H1668 H 0.53251 0.80023 0.60043 0.0
H1669 H 0.53656 0.70704 0.57456 0.0
H1670 H 0.47147 0.82799 0.61815 0.0
H1671 H 0.4865 0.81451 0.65393 0.0
H1672 H 0.50021 0.83373 0.62801 0.0
H1673 H 0.5069 0.68531 0.58811 0.0
H1674 H 0.49122 0.70106 0.62308 0.0
H1675 H 0.4767 0.71341 0.58676 0.0
H1676 H 0.44283 0.76279 0.69771 0.0
H1677 H 0.40679 0.79361 0.61125 0.0
H1678 H 0.49978 0.76513 0.68083 0.0
H1679 H 0.50155 0.72647 0.66943 0.0
H1680 H 0.48541 0.74395 0.70361 0.0
H1681 H 0.45573 0.80351 0.57469 0.0
H1682 H 0.42804 0.79439 0.56672 0.0
H1683 H 0.4574 0.76459 0.56464 0.0
C1684 C 0.31624 0.42328 0.60388 0.0
C1685 C 0.32351 0.44862 0.61391 0.0
C1686 C 0.31345 0.40164 0.62487 0.0
C1687 C 0.31715 0.40586 0.65696 0.0
C1688 C 0.32375 0.43206 0.66716 0.0
C1689 C 0.32724 0.45265 0.64562 0.0
C1690 C 0.30723 0.37371 0.61258 0.0
C1691 C 0.32723 0.43833 0.70096 0.0
C1692 C 0.29063 0.36323 0.71438 0.0
C1693 C 0.31155 0.3399 0.7249 0.0
C1694 C 0.29214 0.38487 0.69254 0.0
C1695 C 0.31498 0.38254 0.67981 0.0
C1696 C 0.33601 0.3583 0.68972 0.0
C1697 C 0.3341 0.33778 0.71236 0.0
C1698 C 0.26932 0.41072 0.68364 0.0
C1699 C 0.36061 0.35383 0.67623 0.0
H1700 H 0.31354 0.41983 0.57946 0.0
H1701 H 0.33267 0.47227 0.6536 0.0
H1702 H 0.32192 0.35222 0.61926 0.0
H1703 H 0.29015 0.37301 0.62281 0.0
H1704 H 0.30493 0.37363 0.58715 0.0
H1705 H 0.33057 0.46077 0.70539 0.0
H1706 H 0.31085 0.43858 0.71362 0.0
H1707 H 0.34296 0.41953 0.71048 0.0
H1708 H 0.27314 0.36514 0.72392 0.0
H1709 H 0.35034 0.31955 0.7199 0.0
H1710 H 0.26579 0.40972 0.6585 0.0
H1711 H 0.27186 0.43344 0.68916 0.0
H1712 H 0.25303 0.40964 0.69569 0.0
H1713 H 0.35955 0.35059 0.65091 0.0
H1714 H 0.37506 0.33349 0.68576 0.0
H1715 H 0.36607 0.37477 0.68083 0.0
C1716 C 0.57138 0.28148 0.56911 0.0
C1717 C 0.55699 0.26934 0.58683 0.0
C1718 C 0.59319 0.28519 0.58138 0.0
C1719 C 0.60059 0.27693 0.6122 0.0
C1720 C 0.58514 0.26677 0.63069 0.0
C1721 C 0.56371 0.26293 0.61775 0.0
C1722 C 0.60909 0.29595 0.56075 0.0
C1723 C 0.59198 0.258 0.66369 0.0
C1724 C 0.66771 0.24583 0.63703 0.0
C1725 C 0.67101 0.27085 0.65431 0.0
C1726 C 0.64529 0.24806 0.6221 0.0
C1727 C 0.62535 0.27594 0.62454 0.0
C1728 C 0.6287 0.30162 0.6411 0.0
C1729 C 0.6514 0.2988 0.65572 0.0
C1730 C 0.64268 0.22004 0.60468 0.0
C1731 C 0.60803 0.3318 0.64422 0.0
H1732 H 0.5665 0.28611 0.54509 0.0
H1733 H 0.55269 0.25352 0.63159 0.0
H1734 H 0.61545 0.31392 0.57269 0.0
H1735 H 0.62551 0.27612 0.5549 0.0
H1736 H 0.59938 0.30548 0.53902 0.0
H1737 H 0.57698 0.25336 0.67578 0.0
H1738 H 0.60826 0.23686 0.6644 0.0
H1739 H 0.59686 0.27674 0.67642 0.0
H1740 H 0.68244 0.22395 0.63601 0.0
H1741 H 0.65372 0.31852 0.66847 0.0
H1742 H 0.63514 0.22645 0.58119 0.0
H1743 H 0.62966 0.21125 0.61652 0.0
H1744 H 0.66035 0.20098 0.60281 0.0
H1745 H 0.59994 0.33967 0.62128 0.0
H1746 H 0.61405 0.35038 0.65556 0.0
H1747 H 0.5934 0.32831 0.65799 0.0
C1748 C 0.81576 0.45485 0.42893 0.0
C1749 C 0.82412 0.44368 0.45832 0.0
C1750 C 0.81556 0.43438 0.40382 0.0
C1751 C 0.82432 0.40181 0.40786 0.0
C1752 C 0.83401 0.39049 0.43709 0.0
C1753 C 0.83355 0.41143 0.46189 0.0
C1754 C 0.80473 0.4477 0.37335 0.0
C1755 C 0.84405 0.35612 0.44257 0.0
C1756 C 0.7989 0.34829 0.35724 0.0
C1757 C 0.81721 0.33614 0.33554 0.0
C1758 C 0.80081 0.36998 0.3803 0.0
C1759 C 0.82178 0.37964 0.38236 0.0
C1760 C 0.84039 0.36741 0.36057 0.0
C1761 C 0.8378 0.34612 0.33735 0.0
C1762 C 0.78028 0.38256 0.40255 0.0
C1763 C 0.86324 0.3765 0.36205 0.0
H1764 H 0.80811 0.47965 0.42589 0.0
H1765 H 0.84006 0.40246 0.48442 0.0
H1766 H 0.81749 0.43712 0.35457 0.0
H1767 H 0.78769 0.44212 0.36829 0.0
H1768 H 0.8004 0.47327 0.37314 0.0
H1769 H 0.85315 0.35097 0.46554 0.0
H1770 H 0.829 0.34602 0.44089 0.0
H1771 H 0.85736 0.34438 0.4247 0.0
H1772 H 0.78279 0.34109 0.35607 0.0
H1773 H 0.85212 0.33694 0.32085 0.0
H1774 H 0.7735 0.40826 0.40217 0.0
H1775 H 0.78706 0.37593 0.42628 0.0
H1776 H 0.76475 0.37383 0.39716 0.0
H1777 H 0.85845 0.402 0.36045 0.0
H1778 H 0.87596 0.36525 0.34337 0.0
H1779 H 0.87287 0.36994 0.3845 0.0
C1780 C 0.68177 0.73934 0.41347 0.0
C1781 C 0.66378 0.7641 0.42763 0.0
C1782 C 0.69748 0.74447 0.39183 0.0
C1783 C 0.69514 0.77518 0.38379 0.0
C1784 C 0.67679 0.80026 0.39758 0.0
C1785 C 0.66141 0.79445 0.41931 0.0
C1786 C 0.71641 0.71683 0.37747 0.0
C1787 C 0.67349 0.83332 0.38952 0.0
C1788 C 0.75188 0.78858 0.35387 0.0
C1789 C 0.74792 0.78836 0.32183 0.0
C1790 C 0.73472 0.78483 0.37412 0.0
C1791 C 0.71275 0.78107 0.3623 0.0
C1792 C 0.70826 0.78167 0.33007 0.0
C1793 C 0.72587 0.78525 0.31024 0.0
C1794 C 0.74055 0.78368 0.40821 0.0
C1795 C 0.68518 0.77752 0.31648 0.0
H1796 H 0.68395 0.7158 0.41968 0.0
H1797 H 0.64736 0.81378 0.42955 0.0
H1798 H 0.70974 0.71193 0.35431 0.0
H1799 H 0.73389 0.72133 0.37457 0.0
H1800 H 0.71999 0.69574 0.39133 0.0
H1801 H 0.65772 0.85018 0.4012 0.0
H1802 H 0.69022 0.83906 0.39615 0.0
H1803 H 0.67074 0.83611 0.36431 0.0
H1804 H 0.76882 0.79077 0.36327 0.0
H1805 H 0.72263 0.78471 0.2856 0.0
H1806 H 0.7409 0.761 0.41702 0.0
H1807 H 0.72611 0.80192 0.42059 0.0
H1808 H 0.75843 0.78695 0.4138 0.0
H1809 H 0.68511 0.75371 0.32076 0.0
H1810 H 0.6834 0.78119 0.2913 0.0
H1811 H 0.66896 0.79391 0.32772 0.0
C1812 C 0.34992 0.61284 0.43184 0.0
C1813 C 0.32943 0.60666 0.44299 0.0
C1814 C 0.34755 0.63696 0.41116 0.0
C1815 C 0.32409 0.65598 0.40111 0.0
C1816 C 0.30331 0.65032 0.41261 0.0
C1817 C 0.30619 0.6259 0.43317 0.0
C1818 C 0.37032 0.64183 0.3997 0.0
C1819 C 0.2779 0.66983 0.40278 0.0
C1820 C 0.31796 0.7342 0.36449 0.0
C1821 C 0.31733 0.72709 0.33283 0.0
C1822 C 0.31991 0.71158 0.38687 0.0
C1823 C 0.32139 0.68081 0.37766 0.0
C1824 C 0.32069 0.67359 0.34577 0.0
C1825 C 0.31865 0.6966 0.32397 0.0
C1826 C 0.3205 0.72059 0.42047 0.0
C1827 C 0.32231 0.6413 0.33454 0.0
H1828 H 0.36801 0.59887 0.43929 0.0
H1829 H 0.29009 0.62165 0.44109 0.0
H1830 H 0.3711 0.63838 0.37436 0.0
H1831 H 0.36989 0.66598 0.4049 0.0
H1832 H 0.38723 0.62571 0.41015 0.0
H1833 H 0.26356 0.66365 0.41478 0.0
H1834 H 0.27538 0.69473 0.40742 0.0
H1835 H 0.2753 0.6668 0.37765 0.0
H1836 H 0.31697 0.7575 0.37188 0.0
H1837 H 0.31824 0.69047 0.29974 0.0
H1838 H 0.33789 0.70633 0.43143 0.0
H1839 H 0.30548 0.71591 0.4324 0.0
H1840 H 0.31871 0.74546 0.42407 0.0
H1841 H 0.33974 0.62444 0.34275 0.0
H1842 H 0.32126 0.63934 0.30908 0.0
H1843 H 0.30729 0.63457 0.34413 0.0
C1844 C 0.4519 0.26089 0.44262 0.0
C1845 C 0.44581 0.28023 0.46896 0.0
C1846 C 0.43466 0.2622 0.41863 0.0
C1847 C 0.41082 0.28389 0.42051 0.0
C1848 C 0.40488 0.30436 0.44647 0.0
C1849 C 0.42229 0.30201 0.4705 0.0
C1850 C 0.44172 0.23951 0.39179 0.0
C1851 C 0.37993 0.3284 0.44913 0.0
C1852 C 0.37148 0.30145 0.34665 0.0
C1853 C 0.35555 0.28431 0.35027 0.0
C1854 C 0.38931 0.30187 0.3694 0.0
C1855 C 0.39178 0.28408 0.39612 0.0
C1856 C 0.37602 0.26628 0.39956 0.0
C1857 C 0.35794 0.26697 0.37688 0.0
C1858 C 0.40521 0.32183 0.36509 0.0
C1859 C 0.37827 0.24641 0.42723 0.0
H1860 H 0.46991 0.24378 0.44125 0.0
H1861 H 0.41741 0.31714 0.49066 0.0
H1862 H 0.43013 0.2243 0.39098 0.0
H1863 H 0.4385 0.25206 0.36988 0.0
H1864 H 0.46117 0.22471 0.39323 0.0
H1865 H 0.37879 0.34424 0.4694 0.0
H1866 H 0.37527 0.34242 0.42812 0.0
H1867 H 0.36594 0.3168 0.45116 0.0
H1868 H 0.36955 0.31529 0.3264 0.0
H1869 H 0.34576 0.25361 0.37985 0.0
H1870 H 0.42471 0.30733 0.3653 0.0
H1871 H 0.40279 0.33894 0.38446 0.0
H1872 H 0.40089 0.33453 0.34321 0.0
H1873 H 0.39712 0.22994 0.42934 0.0
H1874 H 0.3653 0.233 0.42594 0.0
H1875 H 0.37478 0.26118 0.44846 0.0
C1876 C 0.65097 0.81858 0.5995 0.0
C1877 C 0.65616 0.78858 0.58661 0.0
C1878 C 0.66625 0.82517 0.62271 0.0
C1879 C 0.68715 0.80119 0.63317 0.0
C1880 C 0.69249 0.77096 0.62007 0.0
C1881 C 0.67698 0.76507 0.59705 0.0
C1882 C 0.66003 0.85768 0.63611 0.0
C1883 C 0.71464 0.74469 0.63041 0.0
C1884 C 0.74311 0.81325 0.67168 0.0
C1885 C 0.74089 0.80549 0.70211 0.0
C1886 C 0.72482 0.81424 0.64937 0.0
C1887 C 0.70381 0.8072 0.65761 0.0
C1888 C 0.70064 0.80159 0.68873 0.0
C1889 C 0.7192 0.80086 0.71063 0.0
C1890 C 0.72888 0.82055 0.61652 0.0
C1891 C 0.6785 0.79404 0.69851 0.0
H1892 H 0.63491 0.83687 0.5916 0.0
H1893 H 0.68123 0.74181 0.58725 0.0
H1894 H 0.65741 0.85751 0.66121 0.0
H1895 H 0.67536 0.86677 0.63289 0.0
H1896 H 0.64322 0.87375 0.6254 0.0
H1897 H 0.71613 0.7225 0.61795 0.0
H1898 H 0.7315 0.75049 0.62667 0.0
H1899 H 0.71383 0.7412 0.65538 0.0
H1900 H 0.75966 0.81721 0.66487 0.0
H1901 H 0.71722 0.79494 0.73407 0.0
H1902 H 0.71213 0.83713 0.6063 0.0
H1903 H 0.73319 0.79865 0.60265 0.0
H1904 H 0.74418 0.83003 0.61465 0.0
H1905 H 0.66157 0.81052 0.68858 0.0
H1906 H 0.67704 0.79465 0.72392 0.0
H1907 H 0.67965 0.77047 0.68977 0.0
C1908 C 0.59803 0.23486 0.46547 0.0
C1909 C 0.59397 0.20609 0.46483 0.0
C1910 C 0.61888 0.23823 0.45267 0.0
C1911 C 0.63612 0.21226 0.43864 0.0
C1912 C 0.63233 0.18308 0.43809 0.0
C1913 C 0.61129 0.18034 0.45119 0.0
C1914 C 0.62222 0.26977 0.4537 0.0
C1915 C 0.65042 0.1548 0.42347 0.0
C1916 C 0.6771 0.22717 0.37897 0.0
C1917 C 0.69892 0.22298 0.3959 0.0
C1918 C 0.65654 0.22374 0.39261 0.0
C1919 C 0.65783 0.21587 0.42393 0.0
C1920 C 0.67971 0.21189 0.44124 0.0
C1921 C 0.69999 0.21551 0.42702 0.0
C1922 C 0.6335 0.22827 0.37341 0.0
C1923 C 0.68172 0.20373 0.47476 0.0
H1924 H 0.58463 0.25509 0.47535 0.0
H1925 H 0.60846 0.15801 0.45088 0.0
H1926 H 0.64012 0.26833 0.46462 0.0
H1927 H 0.62219 0.2779 0.42998 0.0
H1928 H 0.60763 0.28733 0.46663 0.0
H1929 H 0.64505 0.13368 0.42546 0.0
H1930 H 0.65206 0.15879 0.39877 0.0
H1931 H 0.66874 0.15055 0.43444 0.0
H1932 H 0.67624 0.23246 0.3548 0.0
H1933 H 0.7167 0.21259 0.44033 0.0
H1934 H 0.61813 0.24683 0.38391 0.0
H1935 H 0.62855 0.2067 0.3728 0.0
H1936 H 0.63543 0.23455 0.34944 0.0
H1937 H 0.66789 0.22191 0.48802 0.0
H1938 H 0.70008 0.20125 0.48494 0.0
H1939 H 0.67788 0.18165 0.47743 0.0
C1940 C 0.79351 0.59334 0.40206 0.0
C1941 C 0.77888 0.6083 0.42653 0.0
C1942 C 0.80311 0.6099 0.38246 0.0
C1943 C 0.79723 0.64234 0.38695 0.0
C1944 C 0.78291 0.65744 0.41225 0.0
C1945 C 0.77426 0.63999 0.43213 0.0
C1946 C 0.81928 0.59274 0.35673 0.0
C1947 C 0.77655 0.69189 0.41859 0.0
C1948 C 0.82851 0.68922 0.34333 0.0
C1949 C 0.81267 0.69792 0.31774 0.0
C1950 C 0.82418 0.67032 0.36581 0.0
C1951 C 0.80325 0.66072 0.3629 0.0
C1952 C 0.78745 0.66911 0.33693 0.0
C1953 C 0.79264 0.68697 0.31446 0.0
C1954 C 0.8416 0.66128 0.393 0.0
C1955 C 0.76471 0.65976 0.33287 0.0
H1956 H 0.79767 0.56853 0.39862 0.0
H1957 H 0.76348 0.65111 0.45171 0.0
H1958 H 0.80926 0.59828 0.33441 0.0
H1959 H 0.8357 0.60014 0.35578 0.0
H1960 H 0.82522 0.56721 0.3594 0.0
H1961 H 0.75902 0.70123 0.43077 0.0
H1962 H 0.791 0.69611 0.43373 0.0
H1963 H 0.77524 0.70509 0.39734 0.0
H1964 H 0.84396 0.69764 0.34611 0.0
H1965 H 0.78019 0.69343 0.29485 0.0
H1966 H 0.84646 0.63607 0.397 0.0
H1967 H 0.83263 0.67379 0.41393 0.0
H1968 H 0.85861 0.66695 0.38982 0.0
H1969 H 0.76986 0.63529 0.32454 0.0
H1970 H 0.75158 0.67427 0.31587 0.0
H1971 H 0.75527 0.66151 0.35492 0.0
C1972 C 0.52828 0.84323 0.45856 0.0
C1973 C 0.53542 0.81948 0.47979 0.0
C1974 C 0.50445 0.85258 0.44574 0.0
C1975 C 0.48772 0.83773 0.45457 0.0
C1976 C 0.49441 0.81569 0.4781 0.0
C1977 C 0.51827 0.80669 0.49024 0.0
C1978 C 0.49789 0.87643 0.42099 0.0
C1979 C 0.47716 0.79949 0.48852 0.0
C1980 C 0.42095 0.86445 0.42849 0.0
C1981 C 0.42135 0.84407 0.40343 0.0
C1982 C 0.4425 0.86338 0.44495 0.0
C1983 C 0.4649 0.84132 0.43619 0.0
C1984 C 0.46543 0.82101 0.41068 0.0
C1985 C 0.44371 0.82271 0.3946 0.0
C1986 C 0.44125 0.8854 0.472 0.0
C1987 C 0.48895 0.79707 0.4006 0.0
H1988 H 0.54171 0.85287 0.45041 0.0
H1989 H 0.52396 0.78829 0.50677 0.0
H1990 H 0.49785 0.86466 0.39826 0.0
H1991 H 0.47931 0.8931 0.42432 0.0
H1992 H 0.51109 0.88946 0.42053 0.0
H1993 H 0.48379 0.78666 0.51003 0.0
H1994 H 0.45874 0.81633 0.49239 0.0
H1995 H 0.47528 0.78271 0.47032 0.0
H1996 H 0.40372 0.88093 0.43555 0.0
H1997 H 0.44428 0.80739 0.37483 0.0
H1998 H 0.45469 0.89779 0.46963 0.0
H1999 H 0.44609 0.87216 0.49349 0.0
H2000 H 0.42279 0.90276 0.47434 0.0
H2001 H 0.50264 0.80848 0.39574 0.0
H2002 H 0.48634 0.78368 0.37973 0.0
H2003 H 0.49662 0.78059 0.41936 0.0
C2004 C 0.30438 0.43841 0.45849 0.0
C2005 C 0.29109 0.46979 0.46353 0.0
C2006 C 0.29825 0.42123 0.43421 0.0
C2007 C 0.27834 0.43582 0.41424 0.0
C2008 C 0.26401 0.46707 0.42011 0.0
C2009 C 0.27052 0.48375 0.44485 0.0
C2010 C 0.31391 0.38784 0.42908 0.0
C2011 C 0.24264 0.48334 0.39935 0.0
C2012 C 0.28886 0.39665 0.33581 0.0
C2013 C 0.2764 0.37506 0.33775 0.0
C2014 C 0.28791 0.41851 0.35957 0.0
C2015 C 0.27426 0.41871 0.38599 0.0
C2016 C 0.25999 0.39876 0.38692 0.0
C2017 C 0.26119 0.37717 0.36272 0.0
C2018 C 0.30318 0.43962 0.35748 0.0
C2019 C 0.24511 0.39835 0.41459 0.0
H2020 H 0.32012 0.42739 0.47312 0.0
H2021 H 0.26023 0.50802 0.44865 0.0
H2022 H 0.30235 0.37266 0.42651 0.0
H2023 H 0.32408 0.38557 0.4075 0.0
H2024 H 0.32732 0.37926 0.44823 0.0
H2025 H 0.23132 0.50592 0.40943 0.0
H2026 H 0.24947 0.48764 0.377 0.0
H2027 H 0.23093 0.46861 0.39456 0.0
H2028 H 0.3004 0.3955 0.31641 0.0
H2029 H 0.25139 0.3607 0.36438 0.0
H2030 H 0.31921 0.43174 0.37343 0.0
H2031 H 0.29255 0.46371 0.36447 0.0
H2032 H 0.30989 0.43973 0.33389 0.0
H2033 H 0.25751 0.38654 0.4336 0.0
H2034 H 0.23178 0.38585 0.40956 0.0
H2035 H 0.23512 0.42227 0.42279 0.0
C2036 C 0.45504 0.24008 0.63247 0.0
C2037 C 0.46261 0.21217 0.61516 0.0
C2038 C 0.43871 0.2443 0.65665 0.0
C2039 C 0.42985 0.21996 0.66402 0.0
C2040 C 0.43806 0.19137 0.64744 0.0
C2041 C 0.45419 0.18789 0.62318 0.0
C2042 C 0.43023 0.27527 0.67354 0.0
C2043 C 0.42907 0.16481 0.65458 0.0
C2044 C 0.39688 0.22519 0.73954 0.0
C2045 C 0.37237 0.23616 0.72957 0.0
C2046 C 0.41589 0.21947 0.71848 0.0
C2047 C 0.4102 0.22538 0.68689 0.0
C2048 C 0.38551 0.23661 0.67683 0.0
C2049 C 0.36699 0.24163 0.69817 0.0
C2050 C 0.44203 0.20726 0.73 0.0
C2051 C 0.37857 0.24378 0.64349 0.0
H2052 H 0.4617 0.25883 0.62706 0.0
H2053 H 0.45961 0.16632 0.60996 0.0
H2054 H 0.41058 0.28692 0.66822 0.0
H2055 H 0.43219 0.27208 0.69874 0.0
H2056 H 0.44051 0.2908 0.66707 0.0
H2057 H 0.43897 0.14318 0.64169 0.0
H2058 H 0.43119 0.1602 0.67954 0.0
H2059 H 0.40934 0.17105 0.64852 0.0
H2060 H 0.4012 0.22106 0.76375 0.0
H2061 H 0.34814 0.25062 0.69018 0.0
H2062 H 0.45167 0.22391 0.72496 0.0
H2063 H 0.45166 0.18511 0.71781 0.0
H2064 H 0.44343 0.2033 0.75512 0.0
H2065 H 0.38625 0.2616 0.63589 0.0
H2066 H 0.35848 0.2524 0.63943 0.0
H2067 H 0.38638 0.2227 0.62885 0.0
C2068 C 0.78722 0.46086 0.61647 0.0
C2069 C 0.76775 0.46498 0.59515 0.0
C2070 C 0.79139 0.43931 0.63978 0.0
C2071 C 0.77527 0.42206 0.64253 0.0
C2072 C 0.75493 0.42699 0.6221 0.0
C2073 C 0.75154 0.4482 0.59843 0.0
C2074 C 0.81342 0.43449 0.66104 0.0
C2075 C 0.73704 0.40946 0.62492 0.0
C2076 C 0.80002 0.34586 0.68354 0.0
C2077 C 0.7921 0.3549 0.71344 0.0
C2078 C 0.79445 0.36749 0.66005 0.0
C2079 C 0.78006 0.39855 0.66662 0.0
C2080 C 0.7714 0.40751 0.69662 0.0
C2081 C 0.77782 0.38563 0.71981 0.0
C2082 C 0.80445 0.35732 0.62844 0.0
C2083 C 0.75551 0.44024 0.70425 0.0
H2084 H 0.79947 0.47427 0.61487 0.0
H2085 H 0.73651 0.45102 0.58212 0.0
H2086 H 0.80759 0.43939 0.68519 0.0
H2087 H 0.82533 0.40995 0.65948 0.0
H2088 H 0.82436 0.44955 0.65552 0.0
H2089 H 0.72125 0.41755 0.60857 0.0
H2090 H 0.74634 0.38437 0.62043 0.0
H2091 H 0.73011 0.41208 0.64864 0.0
H2092 H 0.81104 0.32205 0.67869 0.0
H2093 H 0.77131 0.39246 0.74288 0.0
H2094 H 0.81657 0.37062 0.62229 0.0
H2095 H 0.78934 0.36232 0.61104 0.0
H2096 H 0.81498 0.33219 0.62702 0.0
H2097 H 0.76594 0.45649 0.70151 0.0
H2098 H 0.74882 0.4428 0.72813 0.0
H2099 H 0.73954 0.44729 0.68813 0.0
C2100 C 0.26622 0.61967 0.59336 0.0
C2101 C 0.29012 0.61065 0.58262 0.0
C2102 C 0.25858 0.64303 0.61636 0.0
C2103 C 0.27538 0.65719 0.62893 0.0
C2104 C 0.29909 0.64914 0.617 0.0
C2105 C 0.30605 0.62621 0.59392 0.0
C2106 C 0.23298 0.65155 0.62808 0.0
C2107 C 0.31766 0.66358 0.6297 0.0
C2108 C 0.26375 0.72992 0.67835 0.0
C2109 C 0.27215 0.71725 0.70713 0.0
C2110 C 0.26216 0.71078 0.65294 0.0
C2111 C 0.26955 0.67827 0.6564 0.0
C2112 C 0.27611 0.66569 0.68592 0.0
C2113 C 0.27718 0.68537 0.71096 0.0
C2114 C 0.25442 0.72513 0.62199 0.0
C2115 C 0.28425 0.63115 0.69063 0.0
H2116 H 0.25377 0.60787 0.58455 0.0
H2117 H 0.32445 0.61978 0.58544 0.0
H2118 H 0.23344 0.64105 0.65078 0.0
H2119 H 0.22489 0.67704 0.63129 0.0
H2120 H 0.22094 0.64311 0.61222 0.0
H2121 H 0.33502 0.65551 0.61704 0.0
H2122 H 0.31022 0.68919 0.62857 0.0
H2123 H 0.3218 0.65768 0.65423 0.0
H2124 H 0.25936 0.75463 0.67531 0.0
H2125 H 0.28337 0.67539 0.7332 0.0
H2126 H 0.24264 0.71371 0.6092 0.0
H2127 H 0.27082 0.7219 0.60812 0.0
H2128 H 0.24443 0.75037 0.6242 0.0
H2129 H 0.27143 0.62068 0.67885 0.0
H2130 H 0.28563 0.62542 0.71535 0.0
H2131 H 0.30245 0.62025 0.68044 0.0
loop_
_geom_bond_atom_site_label_1
_geom_bond_atom_site_label_2
_geom_bond_distance
_geom_bond_site_symmetry_2
_ccdc_geom_bond_type
Cu0 N1 1.999 . S
Cu0 O6 1.974 . S
Cu0 N11 1.985 . S
Cu0 O20 1.959 . S
N1 Cu0 1.999 . S
N1 C3 1.263 . S
N1 C5 1.389 . S
N2 C3 1.358 . S
N2 C4 1.400 . S
C3 N1 1.263 . S
C3 N2 1.358 . S
C3 H9 0.930 . S
C4 N2 1.400 . S
C4 C5 1.351 . S
C4 H21 0.930 . S
C5 N1 1.389 . S
C5 C4 1.351 . S
C5 H10 0.930 . S
O6 Cu0 1.974 . S
O6 C16 1.282 1_545 S
C7 O8 1.261 . S
C7 O20 1.251 . S
O8 C7 1.261 . S
H9 C3 0.930 . S
H10 C5 0.930 . S
N11 Cu0 1.985 . S
N11 C13 1.335 . S
N11 C14 1.390 1_545 S
N12 C13 1.345 1_565 S
N12 C15 1.336 . S
C13 N11 1.335 . S
C13 N12 1.345 1_545 S
C13 H18 0.930 1_455 S
C14 N11 1.390 1_565 S
C14 C15 1.346 . S
C14 H19 0.930 . S
C15 N12 1.336 . S
C15 C14 1.346 . S
C15 H22 0.929 . S
C16 O6 1.282 1_565 S
C16 O17 1.216 . S
O17 C16 1.216 . S
H18 C13 0.930 1_655 S
H19 C14 0.930 . S
O20 Cu0 1.959 . S
O20 C7 1.251 . S
H21 C4 0.930 . S
H22 C15 0.929 . S
Cu23 N24 1.999 1_545 S
Cu23 O29 1.974 . S
Cu23 N34 1.985 . S
Cu23 O43 1.959 1_545 S
N24 Cu23 1.999 1_565 S
N24 C26 1.263 . S
N24 C28 1.389 . S
N25 C26 1.358 . S
N25 C27 1.400 . S
C26 N24 1.263 . S
C26 N25 1.358 . S
C26 H32 0.930 . S
C27 N25 1.400 . S
C27 C28 1.351 . S
C27 H44 0.930 . S
C28 N24 1.389 . S
C28 C27 1.351 . S
C28 H33 0.930 . S
O29 Cu23 1.974 . S
O29 C39 1.282 . S
C30 O31 1.261 . S
C30 O43 1.251 . S
O31 C30 1.261 . S
H32 C26 0.930 . S
H33 C28 0.930 . S
N34 Cu23 1.985 . S
N34 C36 1.335 . S
N34 C37 1.390 . S
N35 C36 1.345 . S
N35 C38 1.336 . S
C36 N34 1.335 . S
C36 N35 1.345 . S
C36 H41 0.930 . S
C37 N34 1.390 . S
C37 C38 1.346 . S
C37 H42 0.930 . S
C38 N35 1.336 . S
C38 C37 1.346 . S
C38 H45 0.929 . S
C39 O29 1.282 . S
C39 O40 1.216 . S
O40 C39 1.216 . S
H41 C36 0.930 . S
H42 C37 0.930 . S
O43 Cu23 1.959 1_565 S
O43 C30 1.251 . S
H44 C27 0.930 . S
H45 C38 0.929 . S
Cu46 N47 1.999 1_544 S
Cu46 O52 1.974 1_545 S
Cu46 N57 1.985 . S
Cu46 O66 1.959 1_554 S
N47 Cu46 1.999 1_566 S
N47 C49 1.263 . S
N47 C51 1.389 . S
N48 C49 1.358 . S
N48 C50 1.400 . S
C49 N47 1.263 . S
C49 N48 1.358 . S
C49 H55 0.930 . S
C50 N48 1.400 . S
C50 C51 1.351 . S
C50 H67 0.930 . S
C51 N47 1.389 . S
C51 C50 1.351 . S
C51 H56 0.929 1_565 S
O52 Cu46 1.974 1_565 S
O52 C62 1.282 . S
C53 O54 1.261 . S
C53 O66 1.251 . S
O54 C53 1.261 . S
H55 C49 0.930 . S
H56 C51 0.929 1_545 S
N57 Cu46 1.985 . S
N57 C59 1.335 . S
N57 C60 1.390 . S
N58 C59 1.345 . S
N58 C61 1.336 . S
C59 N57 1.335 . S
C59 N58 1.345 . S
C59 H64 0.930 . S
C60 N57 1.390 . S
C60 C61 1.346 . S
C60 H65 0.930 . S
C61 N58 1.336 . S
C61 C60 1.346 . S
C61 H68 0.929 . S
C62 O52 1.282 . S
C62 O63 1.216 . S
O63 C62 1.216 . S
H64 C59 0.930 . S
H65 C60 0.930 . S
O66 Cu46 1.959 1_556 S
O66 C53 1.251 . S
H67 C50 0.930 . S
H68 C61 0.929 . S
Cu69 N70 1.999 1_554 S
Cu69 O75 1.974 . S
Cu69 N80 1.985 . S
Cu69 O89 1.959 1_554 S
N70 Cu69 1.999 1_556 S
N70 C72 1.263 . S
N70 C74 1.389 . S
N71 C72 1.358 . S
N71 C73 1.400 . S
C72 N70 1.263 . S
C72 N71 1.358 . S
C72 H78 0.930 1_556 S
C73 N71 1.400 . S
C73 C74 1.351 . S
C73 H90 0.930 . S
C74 N70 1.389 . S
C74 C73 1.351 . S
C74 H79 0.930 . S
O75 Cu69 1.974 . S
O75 C85 1.282 . S
C76 O77 1.261 . S
C76 O89 1.251 . S
O77 C76 1.261 . S
H78 C72 0.930 1_554 S
H79 C74 0.930 . S
N80 Cu69 1.985 . S
N80 C82 1.335 . S
N80 C83 1.390 . S
N81 C82 1.345 . S
N81 C84 1.336 . S
C82 N80 1.335 . S
C82 N81 1.345 . S
C82 H87 0.930 . S
C83 N80 1.390 . S
C83 C84 1.346 . S
C83 H88 0.930 . S
C84 N81 1.336 . S
C84 C83 1.346 . S
C84 H91 0.929 . S
C85 O75 1.282 . S
C85 O86 1.216 . S
O86 C85 1.216 . S
H87 C82 0.930 . S
H88 C83 0.930 . S
O89 Cu69 1.959 1_556 S
O89 C76 1.251 . S
H90 C73 0.930 . S
H91 C84 0.929 . S
Cu92 N93 1.999 1_554 S
Cu92 O98 1.974 . S
Cu92 N103 1.985 1_545 S
Cu92 O112 1.959 1_544 S
N93 Cu92 1.999 1_556 S
N93 C95 1.263 . S
N93 C97 1.389 . S
N94 C95 1.358 . S
N94 C96 1.400 . S
C95 N93 1.263 . S
C95 N94 1.358 . S
C95 H101 0.930 . S
C96 N94 1.400 . S
C96 C97 1.351 . S
C96 H113 0.930 . S
C97 N93 1.389 . S
C97 C96 1.351 . S
C97 H102 0.930 . S
O98 Cu92 1.974 . S
O98 C108 1.282 . S
C99 O100 1.261 . S
C99 O112 1.251 . S
O100 C99 1.261 . S
H101 C95 0.930 . S
H102 C97 0.930 . S
N103 Cu92 1.985 1_565 S
N103 C105 1.335 . S
N103 C106 1.390 . S
N104 C105 1.345 . S
N104 C107 1.336 . S
C105 N103 1.335 . S
C105 N104 1.345 . S
C105 H110 0.930 . S
C106 N103 1.390 . S
C106 C107 1.346 . S
C106 H111 0.930 1_565 S
C107 N104 1.336 . S
C107 C106 1.346 . S
C107 H114 0.929 . S
C108 O98 1.282 . S
C108 O109 1.216 . S
O109 C108 1.216 . S
H110 C105 0.930 . S
H111 C106 0.930 1_545 S
O112 Cu92 1.959 1_566 S
O112 C99 1.251 . S
H113 C96 0.930 . S
H114 C107 0.929 . S
Cu115 N116 1.967 1_454 S
Cu115 O121 1.986 1_455 S
Cu115 N126 1.999 . S
Cu115 O135 1.947 1_554 S
N116 Cu115 1.967 1_656 S
N116 C118 1.289 . S
N116 C120 1.385 1_655 S
N117 C118 1.358 . S
N117 C119 1.400 . S
C118 N116 1.289 . S
C118 N117 1.358 . S
C118 H124 0.930 . S
C119 N117 1.400 . S
C119 C120 1.351 1_655 S
C119 H136 0.930 . S
C120 N116 1.385 1_455 S
C120 C119 1.351 1_455 S
C120 H125 0.930 . S
O121 Cu115 1.986 1_655 S
O121 C131 1.282 . S
C122 O123 1.261 . S
C122 O135 1.251 . S
O123 C122 1.261 . S
H124 C118 0.930 . S
H125 C120 0.930 . S
N126 Cu115 1.999 . S
N126 C128 1.335 . S
N126 C129 1.390 . S
N127 C128 1.345 . S
N127 C130 1.336 . S
C128 N126 1.335 . S
C128 N127 1.345 . S
C128 H133 0.930 . S
C129 N126 1.390 . S
C129 C130 1.346 . S
C129 H134 0.930 . S
C130 N127 1.336 . S
C130 C129 1.346 . S
C130 H137 0.929 . S
C131 O121 1.282 . S
C131 O132 1.216 . S
O132 C131 1.216 . S
H133 C128 0.930 . S
H134 C129 0.930 . S
O135 Cu115 1.947 1_556 S
O135 C122 1.251 . S
H136 C119 0.930 . S
H137 C130 0.929 . S
Cu138 N139 1.999 . S
Cu138 O144 1.974 . S
Cu138 N149 1.985 . S
Cu138 O158 1.959 . S
N139 Cu138 1.999 . S
N139 C141 1.263 . S
N139 C143 1.389 . S
N140 C141 1.358 . S
N140 C142 1.400 . S
C141 N139 1.263 . S
C141 N140 1.358 . S
C141 H147 0.930 . S
C142 N140 1.400 . S
C142 C143 1.351 . S
C142 H159 0.930 . S
C143 N139 1.389 . S
C143 C142 1.351 . S
C143 H148 0.930 . S
O144 Cu138 1.974 . S
O144 C154 1.282 . S
C145 O146 1.261 . S
C145 O158 1.251 . S
O146 C145 1.261 . S
H147 C141 0.930 . S
H148 C143 0.930 . S
N149 Cu138 1.985 . S
N149 C151 1.335 . S
N149 C152 1.390 . S
N150 C151 1.345 . S
N150 C153 1.336 . S
C151 N149 1.335 . S
C151 N150 1.345 . S
C151 H156 0.930 . S
C152 N149 1.390 . S
C152 C153 1.346 . S
C152 H157 0.930 . S
C153 N150 1.336 . S
C153 C152 1.346 . S
C153 H160 0.929 . S
C154 O144 1.282 . S
C154 O155 1.216 . S
O155 C154 1.216 . S
H156 C151 0.930 . S
H157 C152 0.930 . S
O158 Cu138 1.959 . S
O158 C145 1.251 . S
H159 C142 0.930 . S
H160 C153 0.929 . S
Cu161 N162 1.999 . S
Cu161 O167 1.974 . S
Cu161 N172 1.985 . S
Cu161 O181 1.959 . S
N162 Cu161 1.999 . S
N162 C164 1.263 . S
N162 C166 1.389 . S
N163 C164 1.358 . S
N163 C165 1.400 . S
C164 N162 1.263 . S
C164 N163 1.358 . S
C164 H170 0.930 . S
C165 N163 1.400 . S
C165 C166 1.351 . S
C165 H182 0.930 . S
C166 N162 1.389 . S
C166 C165 1.351 . S
C166 H171 0.930 . S
O167 Cu161 1.974 . S
O167 C177 1.282 . S
C168 O169 1.261 . S
C168 O181 1.251 . S
O169 C168 1.261 . S
H170 C164 0.930 . S
H171 C166 0.930 . S
N172 Cu161 1.985 . S
N172 C174 1.335 . S
N172 C175 1.390 . S
N173 C174 1.345 . S
N173 C176 1.336 . S
C174 N172 1.335 . S
C174 N173 1.345 . S
C174 H179 0.930 . S
C175 N172 1.390 . S
C175 C176 1.346 . S
C175 H180 0.930 . S
C176 N173 1.336 . S
C176 C175 1.346 . S
C176 H183 0.929 . S
C177 O167 1.282 . S
C177 O178 1.216 . S
O178 C177 1.216 . S
H179 C174 0.930 . S
H180 C175 0.930 . S
O181 Cu161 1.959 . S
O181 C168 1.251 . S
H182 C165 0.930 . S
H183 C176 0.929 . S
Cu184 N185 1.999 . S
Cu184 O190 1.974 . S
Cu184 N195 1.985 . S
Cu184 O204 1.959 . S
N185 Cu184 1.999 . S
N185 C187 1.263 . S
N185 C189 1.389 . S
N186 C187 1.358 . S
N186 C188 1.400 . S
C187 N185 1.263 . S
C187 N186 1.358 . S
C187 H193 0.930 . S
C188 N186 1.400 . S
C188 C189 1.351 . S
C188 H205 0.930 . S
C189 N185 1.389 . S
C189 C188 1.351 . S
C189 H194 0.930 . S
O190 Cu184 1.974 . S
O190 C200 1.282 . S
C191 O192 1.261 . S
C191 O204 1.251 . S
O192 C191 1.261 . S
H193 C187 0.930 . S
H194 C189 0.930 . S
N195 Cu184 1.985 . S
N195 C197 1.335 . S
N195 C198 1.390 . S
N196 C197 1.345 . S
N196 C199 1.336 . S
C197 N195 1.335 . S
C197 N196 1.345 . S
C197 H202 0.930 . S
C198 N195 1.390 . S
C198 C199 1.346 . S
C198 H203 0.930 . S
C199 N196 1.336 . S
C199 C198 1.346 . S
C199 H206 0.929 . S
C200 O190 1.282 . S
C200 O201 1.216 . S
O201 C200 1.216 . S
H202 C197 0.930 . S
H203 C198 0.930 . S
O204 Cu184 1.959 . S
O204 C191 1.251 . S
H205 C188 0.930 . S
H206 C199 0.929 . S
Cu207 N208 1.999 . S
Cu207 O213 1.974 . S
Cu207 N218 1.985 . S
Cu207 O227 1.959 . S
N208 Cu207 1.999 . S
N208 C210 1.263 . S
N208 C212 1.389 . S
N209 C210 1.358 . S
N209 C211 1.400 . S
C210 N208 1.263 . S
C210 N209 1.358 . S
C210 H216 0.930 . S
C211 N209 1.400 . S
C211 C212 1.351 . S
C211 H228 0.930 . S
C212 N208 1.389 . S
C212 C211 1.351 . S
C212 H217 0.930 . S
O213 Cu207 1.974 . S
O213 C223 1.282 . S
C214 O215 1.261 . S
C214 O227 1.251 . S
O215 C214 1.261 . S
H216 C210 0.930 . S
H217 C212 0.930 . S
N218 Cu207 1.985 . S
N218 C220 1.335 . S
N218 C221 1.390 . S
N219 C220 1.345 . S
N219 C222 1.336 . S
C220 N218 1.335 . S
C220 N219 1.345 . S
C220 H225 0.930 . S
C221 N218 1.390 . S
C221 C222 1.346 . S
C221 H226 0.930 . S
C222 N219 1.336 . S
C222 C221 1.346 . S
C222 H229 0.929 . S
C223 O213 1.282 . S
C223 O224 1.216 . S
O224 C223 1.216 . S
H225 C220 0.930 . S
H226 C221 0.930 . S
O227 Cu207 1.959 . S
O227 C214 1.251 . S
H228 C211 0.930 . S
H229 C222 0.929 . S
Cu230 N231 1.999 . S
Cu230 O236 1.974 . S
Cu230 N241 1.985 . S
Cu230 O250 1.959 . S
N231 Cu230 1.999 . S
N231 C233 1.263 . S
N231 C235 1.389 . S
N232 C233 1.358 . S
N232 C234 1.400 . S
C233 N231 1.263 . S
C233 N232 1.358 . S
C233 H239 0.930 . S
C234 N232 1.400 . S
C234 C235 1.351 . S
C234 H251 0.930 . S
C235 N231 1.389 . S
C235 C234 1.351 . S
C235 H240 0.930 . S
O236 Cu230 1.974 . S
O236 C246 1.282 . S
C237 O238 1.261 . S
C237 O250 1.251 . S
O238 C237 1.261 . S
H239 C233 0.930 . S
H240 C235 0.930 . S
N241 Cu230 1.985 . S
N241 C243 1.335 . S
N241 C244 1.390 . S
N242 C243 1.345 . S
N242 C245 1.336 . S
C243 N241 1.335 . S
C243 N242 1.345 . S
C243 H248 0.930 . S
C244 N241 1.390 . S
C244 C245 1.346 . S
C244 H249 0.930 . S
C245 N242 1.336 . S
C245 C244 1.346 . S
C245 H252 0.929 . S
C246 O236 1.282 . S
C246 O247 1.216 . S
O247 C246 1.216 . S
H248 C243 0.930 . S
H249 C244 0.930 . S
O250 Cu230 1.959 . S
O250 C237 1.251 . S
H251 C234 0.930 . S
H252 C245 0.929 . S
Cu253 N254 1.999 . S
Cu253 O259 1.974 . S
Cu253 N264 1.985 . S
Cu253 O273 1.959 . S
N254 Cu253 1.999 . S
N254 C256 1.263 . S
N254 C258 1.389 . S
N255 C256 1.358 . S
N255 C257 1.400 . S
C256 N254 1.263 . S
C256 N255 1.358 . S
C256 H262 0.930 . S
C257 N255 1.400 . S
C257 C258 1.351 . S
C257 H274 0.930 . S
C258 N254 1.389 . S
C258 C257 1.351 . S
C258 H263 0.930 . S
O259 Cu253 1.974 . S
O259 C269 1.282 . S
C260 O261 1.261 . S
C260 O273 1.251 . S
O261 C260 1.261 . S
H262 C256 0.930 . S
H263 C258 0.930 . S
N264 Cu253 1.985 . S
N264 C266 1.335 . S
N264 C267 1.390 . S
N265 C266 1.345 . S
N265 C268 1.336 . S
C266 N264 1.335 . S
C266 N265 1.345 . S
C266 H271 0.930 . S
C267 N264 1.390 . S
C267 C268 1.346 . S
C267 H272 0.930 . S
C268 N265 1.336 . S
C268 C267 1.346 . S
C268 H275 0.929 . S
C269 O259 1.282 . S
C269 O270 1.216 . S
O270 C269 1.216 . S
H271 C266 0.930 . S
H272 C267 0.930 . S
O273 Cu253 1.959 . S
O273 C260 1.251 . S
H274 C257 0.930 . S
H275 C268 0.929 . S
Dy276 O279 2.307 . S
Dy276 O281 2.395 . S
Dy276 O282 2.379 . S
Dy276 O284 2.339 . S
Dy276 O286 2.298 . S
Dy276 O290 2.275 . S
Dy276 C298 2.738 . S
Dy277 O280 2.298 . S
Dy277 O283 2.275 . S
Dy277 O285 2.307 . S
Dy277 O287 2.395 . S
Dy277 O288 2.379 . S
Dy277 O291 2.339 . S
Dy277 C307 2.738 . S
C278 O290 1.254 . S
C278 O291 1.257 . S
O279 Dy276 2.307 . S
O279 C289 1.266 . S
O280 Dy277 2.298 . S
O280 C289 1.236 . S
O281 Dy276 2.395 . S
O281 C298 1.255 . S
O282 Dy276 2.379 . S
O282 C298 1.249 . S
O283 Dy277 2.275 . S
O283 C299 1.254 . S
O284 Dy276 2.339 . S
O284 C299 1.257 . S
O285 Dy277 2.307 . S
O285 C300 1.266 . S
O286 Dy276 2.298 . S
O286 C300 1.236 . S
O287 Dy277 2.395 . S
O287 C307 1.255 . S
O288 Dy277 2.379 . S
O288 C307 1.249 . S
C289 O279 1.266 . S
C289 O280 1.236 . S
O290 Dy276 2.275 . S
O290 C278 1.254 . S
O291 Dy277 2.339 . S
O291 C278 1.257 . S
C292 C295 1.344 . S
C292 C296 1.328 . S
C292 C298 1.516 . S
C293 C294 1.304 . S
C293 C297 1.323 . S
C294 C293 1.304 . S
C294 C295 1.371 . S
C294 H308 0.930 . S
C295 C292 1.344 . S
C295 C294 1.371 . S
C295 H309 0.931 . S
C296 C292 1.328 . S
C296 C297 1.433 . S
C296 H310 0.931 . S
C297 C293 1.323 . S
C297 C296 1.433 . S
C297 H311 0.933 . S
C298 Dy276 2.738 . S
C298 O281 1.255 . S
C298 O282 1.249 . S
C298 C292 1.516 . S
C299 O283 1.254 . S
C299 O284 1.257 . S
C300 O285 1.266 . S
C300 O286 1.236 . S
C301 C304 1.344 . S
C301 C305 1.328 . S
C301 C307 1.516 . S
C302 C303 1.304 . S
C302 C306 1.323 . S
C303 C302 1.304 . S
C303 C304 1.371 . S
C303 H312 0.930 . S
C304 C301 1.344 . S
C304 C303 1.371 . S
C304 H313 0.931 . S
C305 C301 1.328 . S
C305 C306 1.433 . S
C305 H314 0.931 . S
C306 C302 1.323 . S
C306 C305 1.433 . S
C306 H315 0.933 . S
C307 Dy277 2.738 . S
C307 O287 1.255 . S
C307 O288 1.249 . S
C307 C301 1.516 . S
H308 C294 0.930 . S
H309 C295 0.931 . S
H310 C296 0.931 . S
H311 C297 0.933 . S
H312 C303 0.930 . S
H313 C304 0.931 . S
H314 C305 0.931 . S
H315 C306 0.933 . S
Dy316 O319 2.307 . S
Dy316 O321 2.395 . S
Dy316 O322 2.379 . S
Dy316 O324 2.339 . S
Dy316 O326 2.298 . S
Dy316 O330 2.275 . S
Dy316 C338 2.738 . S
Dy317 O320 2.298 . S
Dy317 O323 2.275 . S
Dy317 O325 2.307 . S
Dy317 O327 2.395 . S
Dy317 O328 2.379 . S
Dy317 O331 2.339 . S
Dy317 C347 2.738 . S
C318 O330 1.254 . S
C318 O331 1.257 . S
O319 Dy316 2.307 . S
O319 C329 1.266 . S
O320 Dy317 2.298 . S
O320 C329 1.236 . S
O321 Dy316 2.395 . S
O321 C338 1.255 . S
O322 Dy316 2.379 . S
O322 C338 1.249 . S
O323 Dy317 2.275 . S
O323 C339 1.254 . S
O324 Dy316 2.339 . S
O324 C339 1.257 . S
O325 Dy317 2.307 . S
O325 C340 1.266 . S
O326 Dy316 2.298 . S
O326 C340 1.236 . S
O327 Dy317 2.395 . S
O327 C347 1.255 . S
O328 Dy317 2.379 . S
O328 C347 1.249 . S
C329 O319 1.266 . S
C329 O320 1.236 . S
O330 Dy316 2.275 . S
O330 C318 1.254 . S
O331 Dy317 2.339 . S
O331 C318 1.257 . S
C332 C335 1.344 . S
C332 C336 1.328 . S
C332 C338 1.516 . S
C333 C334 1.304 . S
C333 C337 1.323 . S
C334 C333 1.304 . S
C334 C335 1.371 . S
C334 H348 0.930 . S
C335 C332 1.344 . S
C335 C334 1.371 . S
C335 H349 0.931 . S
C336 C332 1.328 . S
C336 C337 1.433 . S
C336 H350 0.931 . S
C337 C333 1.323 . S
C337 C336 1.433 . S
C337 H351 0.933 . S
C338 Dy316 2.738 . S
C338 O321 1.255 . S
C338 O322 1.249 . S
C338 C332 1.516 . S
C339 O323 1.254 . S
C339 O324 1.257 . S
C340 O325 1.266 . S
C340 O326 1.236 . S
C341 C344 1.344 . S
C341 C345 1.328 . S
C341 C347 1.516 . S
C342 C343 1.304 . S
C342 C346 1.323 . S
C343 C342 1.304 . S
C343 C344 1.371 . S
C343 H352 0.930 . S
C344 C341 1.344 . S
C344 C343 1.371 . S
C344 H353 0.931 . S
C345 C341 1.328 . S
C345 C346 1.433 . S
C345 H354 0.931 . S
C346 C342 1.323 . S
C346 C345 1.433 . S
C346 H355 0.933 . S
C347 Dy317 2.738 . S
C347 O327 1.255 . S
C347 O328 1.249 . S
C347 C341 1.516 . S
H348 C334 0.930 . S
H349 C335 0.931 . S
H350 C336 0.931 . S
H351 C337 0.933 . S
H352 C343 0.930 . S
H353 C344 0.931 . S
H354 C345 0.931 . S
H355 C346 0.933 . S
Dy356 O359 2.307 . S
Dy356 O361 2.395 . S
Dy356 O362 2.379 . S
Dy356 O364 2.339 . S
Dy356 O366 2.298 . S
Dy356 O370 2.275 . S
Dy356 C378 2.738 . S
Dy357 O360 2.298 . S
Dy357 O363 2.275 . S
Dy357 O365 2.307 . S
Dy357 O367 2.395 . S
Dy357 O368 2.379 . S
Dy357 O371 2.339 . S
Dy357 C387 2.738 . S
C358 O370 1.254 . S
C358 O371 1.257 . S
O359 Dy356 2.307 . S
O359 C369 1.266 . S
O360 Dy357 2.298 . S
O360 C369 1.236 . S
O361 Dy356 2.395 . S
O361 C378 1.255 . S
O362 Dy356 2.379 . S
O362 C378 1.249 . S
O363 Dy357 2.275 . S
O363 C379 1.254 . S
O364 Dy356 2.339 . S
O364 C379 1.257 . S
O365 Dy357 2.307 . S
O365 C380 1.266 . S
O366 Dy356 2.298 . S
O366 C380 1.236 . S
O367 Dy357 2.395 . S
O367 C387 1.255 . S
O368 Dy357 2.379 . S
O368 C387 1.249 . S
C369 O359 1.266 . S
C369 O360 1.236 . S
O370 Dy356 2.275 . S
O370 C358 1.254 . S
O371 Dy357 2.339 . S
O371 C358 1.257 . S
C372 C375 1.344 . S
C372 C376 1.328 . S
C372 C378 1.516 . S
C373 C374 1.304 . S
C373 C377 1.323 . S
C374 C373 1.304 . S
C374 C375 1.371 . S
C374 H388 0.930 . S
C375 C372 1.344 . S
C375 C374 1.371 . S
C375 H389 0.931 . S
C376 C372 1.328 . S
C376 C377 1.433 . S
C376 H390 0.931 . S
C377 C373 1.323 . S
C377 C376 1.433 . S
C377 H391 0.933 . S
C378 Dy356 2.738 . S
C378 O361 1.255 . S
C378 O362 1.249 . S
C378 C372 1.516 . S
C379 O363 1.254 . S
C379 O364 1.257 . S
C380 O365 1.266 . S
C380 O366 1.236 . S
C381 C384 1.344 . S
C381 C385 1.328 . S
C381 C387 1.516 . S
C382 C383 1.304 . S
C382 C386 1.323 . S
C383 C382 1.304 . S
C383 C384 1.371 . S
C383 H392 0.930 . S
C384 C381 1.344 . S
C384 C383 1.371 . S
C384 H393 0.931 . S
C385 C381 1.328 . S
C385 C386 1.433 . S
C385 H394 0.931 . S
C386 C382 1.323 . S
C386 C385 1.433 . S
C386 H395 0.933 . S
C387 Dy357 2.738 . S
C387 O367 1.255 . S
C387 O368 1.249 . S
C387 C381 1.516 . S
H388 C374 0.930 . S
H389 C375 0.931 . S
H390 C376 0.931 . S
H391 C377 0.933 . S
H392 C383 0.930 . S
H393 C384 0.931 . S
H394 C385 0.931 . S
H395 C386 0.933 . S
Dy396 O399 2.307 . S
Dy396 O401 2.395 . S
Dy396 O402 2.379 . S
Dy396 O404 2.339 . S
Dy396 O406 2.298 . S
Dy396 O410 2.275 . S
Dy396 C418 2.738 . S
Dy397 O400 2.298 . S
Dy397 O403 2.275 . S
Dy397 O405 2.307 . S
Dy397 O407 2.395 . S
Dy397 O408 2.379 . S
Dy397 O411 2.339 . S
Dy397 C427 2.738 . S
C398 O410 1.254 . S
C398 O411 1.257 . S
O399 Dy396 2.307 . S
O399 C409 1.266 . S
O400 Dy397 2.298 . S
O400 C409 1.236 . S
O401 Dy396 2.395 . S
O401 C418 1.255 . S
O402 Dy396 2.379 . S
O402 C418 1.249 . S
O403 Dy397 2.275 . S
O403 C419 1.254 . S
O404 Dy396 2.339 . S
O404 C419 1.257 . S
O405 Dy397 2.307 . S
O405 C420 1.266 . S
O406 Dy396 2.298 . S
O406 C420 1.236 . S
O407 Dy397 2.395 . S
O407 C427 1.255 . S
O408 Dy397 2.379 . S
O408 C427 1.249 . S
C409 O399 1.266 . S
C409 O400 1.236 . S
O410 Dy396 2.275 . S
O410 C398 1.254 . S
O411 Dy397 2.339 . S
O411 C398 1.257 . S
C412 C415 1.344 . S
C412 C416 1.328 . S
C412 C418 1.516 . S
C413 C414 1.304 . S
C413 C417 1.323 . S
C414 C413 1.304 . S
C414 C415 1.371 . S
C414 H428 0.930 . S
C415 C412 1.344 . S
C415 C414 1.371 . S
C415 H429 0.931 . S
C416 C412 1.328 . S
C416 C417 1.433 . S
C416 H430 0.931 . S
C417 C413 1.323 . S
C417 C416 1.433 . S
C417 H431 0.933 . S
C418 Dy396 2.738 . S
C418 O401 1.255 . S
C418 O402 1.249 . S
C418 C412 1.516 . S
C419 O403 1.254 . S
C419 O404 1.257 . S
C420 O405 1.266 . S
C420 O406 1.236 . S
C421 C424 1.344 . S
C421 C425 1.328 . S
C421 C427 1.516 . S
C422 C423 1.304 . S
C422 C426 1.323 . S
C423 C422 1.304 . S
C423 C424 1.371 . S
C423 H432 0.930 . S
C424 C421 1.344 . S
C424 C423 1.371 . S
C424 H433 0.931 . S
C425 C421 1.328 . S
C425 C426 1.433 . S
C425 H434 0.931 . S
C426 C422 1.323 . S
C426 C425 1.433 . S
C426 H435 0.933 . S
C427 Dy397 2.738 . S
C427 O407 1.255 . S
C427 O408 1.249 . S
C427 C421 1.516 . S
H428 C414 0.930 . S
H429 C415 0.931 . S
H430 C416 0.931 . S
H431 C417 0.933 . S
H432 C423 0.930 . S
H433 C424 0.931 . S
H434 C425 0.931 . S
H435 C426 0.933 . S
Dy436 O439 2.307 . S
Dy436 O441 2.395 . S
Dy436 O442 2.379 . S
Dy436 O444 2.339 . S
Dy436 O446 2.298 . S
Dy436 O450 2.275 . S
Dy436 C458 2.738 . S
Dy437 O440 2.298 . S
Dy437 O443 2.275 . S
Dy437 O445 2.307 . S
Dy437 O447 2.395 . S
Dy437 O448 2.379 . S
Dy437 O451 2.339 . S
Dy437 C467 2.738 . S
C438 O450 1.254 . S
C438 O451 1.257 . S
O439 Dy436 2.307 . S
O439 C449 1.266 . S
O440 Dy437 2.298 . S
O440 C449 1.236 . S
O441 Dy436 2.395 . S
O441 C458 1.255 . S
O442 Dy436 2.379 . S
O442 C458 1.249 . S
O443 Dy437 2.275 . S
O443 C459 1.254 . S
O444 Dy436 2.339 . S
O444 C459 1.257 . S
O445 Dy437 2.307 . S
O445 C460 1.266 . S
O446 Dy436 2.298 . S
O446 C460 1.236 . S
O447 Dy437 2.395 . S
O447 C467 1.255 . S
O448 Dy437 2.379 . S
O448 C467 1.249 . S
C449 O439 1.266 . S
C449 O440 1.236 . S
O450 Dy436 2.275 . S
O450 C438 1.254 . S
O451 Dy437 2.339 . S
O451 C438 1.257 . S
C452 C455 1.344 . S
C452 C456 1.328 . S
C452 C458 1.516 . S
C453 C454 1.304 . S
C453 C457 1.323 . S
C454 C453 1.304 . S
C454 C455 1.371 . S
C454 H468 0.930 . S
C455 C452 1.344 . S
C455 C454 1.371 . S
C455 H469 0.931 . S
C456 C452 1.328 . S
C456 C457 1.433 . S
C456 H470 0.931 . S
C457 C453 1.323 . S
C457 C456 1.433 . S
C457 H471 0.933 . S
C458 Dy436 2.738 . S
C458 O441 1.255 . S
C458 O442 1.249 . S
C458 C452 1.516 . S
C459 O443 1.254 . S
C459 O444 1.257 . S
C460 O445 1.266 . S
C460 O446 1.236 . S
C461 C464 1.344 . S
C461 C465 1.328 . S
C461 C467 1.516 . S
C462 C463 1.304 . S
C462 C466 1.323 . S
C463 C462 1.304 . S
C463 C464 1.371 . S
C463 H472 0.930 . S
C464 C461 1.344 . S
C464 C463 1.371 . S
C464 H473 0.931 . S
C465 C461 1.328 . S
C465 C466 1.433 . S
C465 H474 0.931 . S
C466 C462 1.323 . S
C466 C465 1.433 . S
C466 H475 0.933 . S
C467 Dy437 2.738 . S
C467 O447 1.255 . S
C467 O448 1.249 . S
C467 C461 1.516 . S
H468 C454 0.930 . S
H469 C455 0.931 . S
H470 C456 0.931 . S
H471 C457 0.933 . S
H472 C463 0.930 . S
H473 C464 0.931 . S
H474 C465 0.931 . S
H475 C466 0.933 . S
Dy476 O479 2.307 . S
Dy476 O481 2.395 . S
Dy476 O482 2.379 . S
Dy476 O484 2.339 . S
Dy476 O486 2.298 . S
Dy476 O490 2.275 . S
Dy476 C498 2.738 . S
Dy477 O480 2.298 . S
Dy477 O483 2.275 . S
Dy477 O485 2.307 . S
Dy477 O487 2.395 . S
Dy477 O488 2.379 . S
Dy477 O491 2.339 . S
Dy477 C507 2.738 . S
C478 O490 1.254 . S
C478 O491 1.257 . S
O479 Dy476 2.307 . S
O479 C489 1.266 . S
O480 Dy477 2.298 . S
O480 C489 1.236 . S
O481 Dy476 2.395 . S
O481 C498 1.255 . S
O482 Dy476 2.379 . S
O482 C498 1.249 . S
O483 Dy477 2.275 . S
O483 C499 1.254 . S
O484 Dy476 2.339 . S
O484 C499 1.257 . S
O485 Dy477 2.307 . S
O485 C500 1.266 . S
O486 Dy476 2.298 . S
O486 C500 1.236 . S
O487 Dy477 2.395 . S
O487 C507 1.255 . S
O488 Dy477 2.379 . S
O488 C507 1.249 . S
C489 O479 1.266 . S
C489 O480 1.236 . S
O490 Dy476 2.275 . S
O490 C478 1.254 . S
O491 Dy477 2.339 . S
O491 C478 1.257 . S
C492 C495 1.344 . S
C492 C496 1.328 . S
C492 C498 1.516 . S
C493 C494 1.304 . S
C493 C497 1.323 . S
C494 C493 1.304 . S
C494 C495 1.371 . S
C494 H508 0.930 . S
C495 C492 1.344 . S
C495 C494 1.371 . S
C495 H509 0.931 . S
C496 C492 1.328 . S
C496 C497 1.433 . S
C496 H510 0.931 . S
C497 C493 1.323 . S
C497 C496 1.433 . S
C497 H511 0.933 . S
C498 Dy476 2.738 . S
C498 O481 1.255 . S
C498 O482 1.249 . S
C498 C492 1.516 . S
C499 O483 1.254 . S
C499 O484 1.257 . S
C500 O485 1.266 . S
C500 O486 1.236 . S
C501 C504 1.344 . S
C501 C505 1.328 . S
C501 C507 1.516 . S
C502 C503 1.304 . S
C502 C506 1.323 . S
C503 C502 1.304 . S
C503 C504 1.371 . S
C503 H512 0.930 . S
C504 C501 1.344 . S
C504 C503 1.371 . S
C504 H513 0.931 . S
C505 C501 1.328 . S
C505 C506 1.433 . S
C505 H514 0.931 . S
C506 C502 1.323 . S
C506 C505 1.433 . S
C506 H515 0.933 . S
C507 Dy477 2.738 . S
C507 O487 1.255 . S
C507 O488 1.249 . S
C507 C501 1.516 . S
H508 C494 0.930 . S
H509 C495 0.931 . S
H510 C496 0.931 . S
H511 C497 0.933 . S
H512 C503 0.930 . S
H513 C504 0.931 . S
H514 C505 0.931 . S
H515 C506 0.933 . S
Dy516 O519 2.307 . S
Dy516 O521 2.395 . S
Dy516 O522 2.379 . S
Dy516 O524 2.339 . S
Dy516 O526 2.298 . S
Dy516 O530 2.275 . S
Dy516 C538 2.738 . S
Dy517 O520 2.298 . S
Dy517 O523 2.275 . S
Dy517 O525 2.307 . S
Dy517 O527 2.395 . S
Dy517 O528 2.379 . S
Dy517 O531 2.339 . S
Dy517 C547 2.738 . S
C518 O530 1.254 . S
C518 O531 1.257 . S
O519 Dy516 2.307 . S
O519 C529 1.266 . S
O520 Dy517 2.298 . S
O520 C529 1.236 . S
O521 Dy516 2.395 . S
O521 C538 1.255 . S
O522 Dy516 2.379 . S
O522 C538 1.249 . S
O523 Dy517 2.275 . S
O523 C539 1.254 . S
O524 Dy516 2.339 . S
O524 C539 1.257 . S
O525 Dy517 2.307 . S
O525 C540 1.266 . S
O526 Dy516 2.298 . S
O526 C540 1.236 . S
O527 Dy517 2.395 . S
O527 C547 1.255 . S
O528 Dy517 2.379 . S
O528 C547 1.249 . S
C529 O519 1.266 . S
C529 O520 1.236 . S
O530 Dy516 2.275 . S
O530 C518 1.254 . S
O531 Dy517 2.339 . S
O531 C518 1.257 . S
C532 C535 1.344 . S
C532 C536 1.328 . S
C532 C538 1.516 . S
C533 C534 1.304 . S
C533 C537 1.323 . S
C534 C533 1.304 . S
C534 C535 1.371 . S
C534 H548 0.930 . S
C535 C532 1.344 . S
C535 C534 1.371 . S
C535 H549 0.931 . S
C536 C532 1.328 . S
C536 C537 1.433 . S
C536 H550 0.931 . S
C537 C533 1.323 . S
C537 C536 1.433 . S
C537 H551 0.933 . S
C538 Dy516 2.738 . S
C538 O521 1.255 . S
C538 O522 1.249 . S
C538 C532 1.516 . S
C539 O523 1.254 . S
C539 O524 1.257 . S
C540 O525 1.266 . S
C540 O526 1.236 . S
C541 C544 1.344 . S
C541 C545 1.328 . S
C541 C547 1.516 . S
C542 C543 1.304 . S
C542 C546 1.323 . S
C543 C542 1.304 . S
C543 C544 1.371 . S
C543 H552 0.930 . S
C544 C541 1.344 . S
C544 C543 1.371 . S
C544 H553 0.931 . S
C545 C541 1.328 . S
C545 C546 1.433 . S
C545 H554 0.931 . S
C546 C542 1.323 . S
C546 C545 1.433 . S
C546 H555 0.933 . S
C547 Dy517 2.738 . S
C547 O527 1.255 . S
C547 O528 1.249 . S
C547 C541 1.516 . S
H548 C534 0.930 . S
H549 C535 0.931 . S
H550 C536 0.931 . S
H551 C537 0.933 . S
H552 C543 0.930 . S
H553 C544 0.931 . S
H554 C545 0.931 . S
H555 C546 0.933 . S
Dy556 O559 2.307 . S
Dy556 O561 2.395 . S
Dy556 O562 2.379 . S
Dy556 O564 2.339 . S
Dy556 O566 2.298 . S
Dy556 O570 2.275 . S
Dy556 C578 2.738 . S
Dy557 O560 2.298 . S
Dy557 O563 2.275 . S
Dy557 O565 2.307 . S
Dy557 O567 2.395 . S
Dy557 O568 2.379 . S
Dy557 O571 2.339 . S
Dy557 C587 2.738 . S
C558 O570 1.254 . S
C558 O571 1.257 . S
O559 Dy556 2.307 . S
O559 C569 1.266 . S
O560 Dy557 2.298 . S
O560 C569 1.236 . S
O561 Dy556 2.395 . S
O561 C578 1.255 . S
O562 Dy556 2.379 . S
O562 C578 1.249 . S
O563 Dy557 2.275 . S
O563 C579 1.254 . S
O564 Dy556 2.339 . S
O564 C579 1.257 . S
O565 Dy557 2.307 . S
O565 C580 1.266 . S
O566 Dy556 2.298 . S
O566 C580 1.236 . S
O567 Dy557 2.395 . S
O567 C587 1.255 . S
O568 Dy557 2.379 . S
O568 C587 1.249 . S
C569 O559 1.266 . S
C569 O560 1.236 . S
O570 Dy556 2.275 . S
O570 C558 1.254 . S
O571 Dy557 2.339 . S
O571 C558 1.257 . S
C572 C575 1.344 . S
C572 C576 1.328 . S
C572 C578 1.516 . S
C573 C574 1.304 . S
C573 C577 1.323 . S
C574 C573 1.304 . S
C574 C575 1.371 . S
C574 H588 0.930 . S
C575 C572 1.344 . S
C575 C574 1.371 . S
C575 H589 0.931 . S
C576 C572 1.328 . S
C576 C577 1.433 . S
C576 H590 0.931 . S
C577 C573 1.323 . S
C577 C576 1.433 . S
C577 H591 0.933 . S
C578 Dy556 2.738 . S
C578 O561 1.255 . S
C578 O562 1.249 . S
C578 C572 1.516 . S
C579 O563 1.254 . S
C579 O564 1.257 . S
C580 O565 1.266 . S
C580 O566 1.236 . S
C581 C584 1.344 . S
C581 C585 1.328 . S
C581 C587 1.516 . S
C582 C583 1.304 . S
C582 C586 1.323 . S
C583 C582 1.304 . S
C583 C584 1.371 . S
C583 H592 0.930 . S
C584 C581 1.344 . S
C584 C583 1.371 . S
C584 H593 0.931 . S
C585 C581 1.328 . S
C585 C586 1.433 . S
C585 H594 0.931 . S
C586 C582 1.323 . S
C586 C585 1.433 . S
C586 H595 0.933 . S
C587 Dy557 2.738 . S
C587 O567 1.255 . S
C587 O568 1.249 . S
C587 C581 1.516 . S
H588 C574 0.930 . S
H589 C575 0.931 . S
H590 C576 0.931 . S
H591 C577 0.933 . S
H592 C583 0.930 . S
H593 C584 0.931 . S
H594 C585 0.931 . S
H595 C586 0.933 . S
C596 C597 1.391 . S
C596 C598 1.394 . S
C596 H612 0.931 . S
C597 C596 1.391 . S
C597 C601 1.376 . S
C598 C596 1.394 . S
C598 C599 1.369 . S
C598 C602 1.531 . S
C599 C598 1.369 . S
C599 C600 1.410 . S
C599 C607 1.503 . S
C600 C599 1.410 . S
C600 C601 1.392 . S
C600 C603 1.511 . S
C601 C597 1.376 . S
C601 C600 1.392 . S
C601 H613 0.929 . S
C602 C598 1.531 . S
C602 H614 0.960 . S
C602 H615 0.962 . S
C602 H616 0.960 . S
C603 C600 1.511 . S
C603 H617 0.961 . S
C603 H618 0.961 . S
C603 H619 0.961 . S
C604 C605 1.370 . S
C604 C606 1.363 . S
C604 H620 0.931 . S
C605 C604 1.370 . S
C605 C609 1.408 . S
C606 C604 1.363 . S
C606 C607 1.370 . S
C606 C610 1.524 . S
C607 C599 1.503 . S
C607 C606 1.370 . S
C607 C608 1.403 . S
C608 C607 1.403 . S
C608 C609 1.404 . S
C608 C611 1.539 . S
C609 C605 1.408 . S
C609 C608 1.404 . S
C609 H621 0.930 . S
C610 C606 1.524 . S
C610 H622 0.956 . S
C610 H623 0.961 . S
C610 H624 0.961 . S
C611 C608 1.539 . S
C611 H625 0.958 . S
C611 H626 0.961 . S
C611 H627 0.960 . S
H612 C596 0.931 . S
H613 C601 0.929 . S
H614 C602 0.960 . S
H615 C602 0.962 . S
H616 C602 0.960 . S
H617 C603 0.961 . S
H618 C603 0.961 . S
H619 C603 0.961 . S
H620 C604 0.931 . S
H621 C609 0.930 . S
H622 C610 0.956 . S
H623 C610 0.961 . S
H624 C610 0.961 . S
H625 C611 0.958 . S
H626 C611 0.961 . S
H627 C611 0.960 . S
C628 C629 1.391 . S
C628 C630 1.394 . S
C628 H644 0.931 . S
C629 C628 1.391 . S
C629 C633 1.376 . S
C630 C628 1.394 . S
C630 C631 1.369 . S
C630 C634 1.531 . S
C631 C630 1.369 . S
C631 C632 1.410 . S
C631 C639 1.503 . S
C632 C631 1.410 . S
C632 C633 1.392 . S
C632 C635 1.511 . S
C633 C629 1.376 . S
C633 C632 1.392 . S
C633 H645 0.929 . S
C634 C630 1.531 . S
C634 H646 0.960 . S
C634 H647 0.962 . S
C634 H648 0.960 . S
C635 C632 1.511 . S
C635 H649 0.961 . S
C635 H650 0.961 . S
C635 H651 0.961 . S
C636 C637 1.370 . S
C636 C638 1.363 . S
C636 H652 0.931 . S
C637 C636 1.370 . S
C637 C641 1.408 . S
C638 C636 1.363 . S
C638 C639 1.370 . S
C638 C642 1.524 . S
C639 C631 1.503 . S
C639 C638 1.370 . S
C639 C640 1.403 . S
C640 C639 1.403 . S
C640 C641 1.404 . S
C640 C643 1.539 . S
C641 C637 1.408 . S
C641 C640 1.404 . S
C641 H653 0.930 . S
C642 C638 1.524 . S
C642 H654 0.956 . S
C642 H655 0.961 . S
C642 H656 0.961 . S
C643 C640 1.539 . S
C643 H657 0.958 . S
C643 H658 0.961 . S
C643 H659 0.960 . S
H644 C628 0.931 . S
H645 C633 0.929 . S
H646 C634 0.960 . S
H647 C634 0.962 . S
H648 C634 0.960 . S
H649 C635 0.961 . S
H650 C635 0.961 . S
H651 C635 0.961 . S
H652 C636 0.931 . S
H653 C641 0.930 . S
H654 C642 0.956 . S
H655 C642 0.961 . S
H656 C642 0.961 . S
H657 C643 0.958 . S
H658 C643 0.961 . S
H659 C643 0.960 . S
C660 C661 1.391 . S
C660 C662 1.394 . S
C660 H676 0.931 1_655 S
C661 C660 1.391 . S
C661 C665 1.376 . S
C662 C660 1.394 . S
C662 C663 1.369 . S
C662 C666 1.531 . S
C663 C662 1.369 . S
C663 C664 1.410 . S
C663 C671 1.503 . S
C664 C663 1.410 . S
C664 C665 1.392 . S
C664 C667 1.511 . S
C665 C661 1.376 . S
C665 C664 1.392 . S
C665 H677 0.929 1_565 S
C666 C662 1.531 . S
C666 H678 0.960 . S
C666 H679 0.962 . S
C666 H680 0.960 . S
C667 C664 1.511 . S
C667 H681 0.961 1_565 S
C667 H682 0.961 . S
C667 H683 0.961 . S
C668 C669 1.370 . S
C668 C670 1.363 . S
C668 H684 0.931 . S
C669 C668 1.370 . S
C669 C673 1.408 . S
C670 C668 1.363 . S
C670 C671 1.370 . S
C670 C674 1.524 . S
C671 C663 1.503 . S
C671 C670 1.370 . S
C671 C672 1.403 . S
C672 C671 1.403 . S
C672 C673 1.404 . S
C672 C675 1.539 . S
C673 C669 1.408 . S
C673 C672 1.404 . S
C673 H685 0.930 . S
C674 C670 1.524 . S
C674 H686 0.956 . S
C674 H687 0.961 . S
C674 H688 0.961 . S
C675 C672 1.539 . S
C675 H689 0.958 . S
C675 H690 0.961 . S
C675 H691 0.960 . S
H676 C660 0.931 1_455 S
H677 C665 0.929 1_545 S
H678 C666 0.960 . S
H679 C666 0.962 . S
H680 C666 0.960 . S
H681 C667 0.961 1_545 S
H682 C667 0.961 . S
H683 C667 0.961 . S
H684 C668 0.931 . S
H685 C673 0.930 . S
H686 C674 0.956 . S
H687 C674 0.961 . S
H688 C674 0.961 . S
H689 C675 0.958 . S
H690 C675 0.961 . S
H691 C675 0.960 . S
C692 C693 1.391 . S
C692 C694 1.394 . S
C692 H708 0.931 . S
C693 C692 1.391 . S
C693 C697 1.376 . S
C694 C692 1.394 . S
C694 C695 1.369 . S
C694 C698 1.531 . S
C695 C694 1.369 . S
C695 C696 1.410 . S
C695 C703 1.503 . S
C696 C695 1.410 . S
C696 C697 1.392 . S
C696 C699 1.511 . S
C697 C693 1.376 . S
C697 C696 1.392 . S
C697 H709 0.929 . S
C698 C694 1.531 . S
C698 H710 0.960 . S
C698 H711 0.962 . S
C698 H712 0.960 . S
C699 C696 1.511 . S
C699 H713 0.961 . S
C699 H714 0.961 . S
C699 H715 0.961 . S
C700 C701 1.370 . S
C700 C702 1.363 . S
C700 H716 0.931 . S
C701 C700 1.370 . S
C701 C705 1.408 . S
C702 C700 1.363 . S
C702 C703 1.370 . S
C702 C706 1.524 . S
C703 C695 1.503 . S
C703 C702 1.370 . S
C703 C704 1.403 . S
C704 C703 1.403 . S
C704 C705 1.404 . S
C704 C707 1.539 . S
C705 C701 1.408 . S
C705 C704 1.404 . S
C705 H717 0.930 . S
C706 C702 1.524 . S
C706 H718 0.956 . S
C706 H719 0.961 . S
C706 H720 0.961 . S
C707 C704 1.539 . S
C707 H721 0.958 . S
C707 H722 0.961 . S
C707 H723 0.960 . S
H708 C692 0.931 . S
H709 C697 0.929 . S
H710 C698 0.960 . S
H711 C698 0.962 . S
H712 C698 0.960 . S
H713 C699 0.961 . S
H714 C699 0.961 . S
H715 C699 0.961 . S
H716 C700 0.931 . S
H717 C705 0.930 . S
H718 C706 0.956 . S
H719 C706 0.961 . S
H720 C706 0.961 . S
H721 C707 0.958 . S
H722 C707 0.961 . S
H723 C707 0.960 . S
C724 C725 1.391 . S
C724 C726 1.394 . S
C724 H740 0.931 . S
C725 C724 1.391 . S
C725 C729 1.376 . S
C726 C724 1.394 . S
C726 C727 1.369 . S
C726 C730 1.531 . S
C727 C726 1.369 . S
C727 C728 1.410 . S
C727 C735 1.503 . S
C728 C727 1.410 . S
C728 C729 1.392 . S
C728 C731 1.511 . S
C729 C725 1.376 . S
C729 C728 1.392 . S
C729 H741 0.929 . S
C730 C726 1.531 . S
C730 H742 0.960 . S
C730 H743 0.962 . S
C730 H744 0.960 . S
C731 C728 1.511 . S
C731 H745 0.961 . S
C731 H746 0.961 . S
C731 H747 0.961 . S
C732 C733 1.370 . S
C732 C734 1.363 . S
C732 H748 0.931 . S
C733 C732 1.370 . S
C733 C737 1.408 . S
C734 C732 1.363 . S
C734 C735 1.370 . S
C734 C738 1.524 . S
C735 C727 1.503 . S
C735 C734 1.370 . S
C735 C736 1.403 . S
C736 C735 1.403 . S
C736 C737 1.404 . S
C736 C739 1.539 . S
C737 C733 1.408 . S
C737 C736 1.404 . S
C737 H749 0.930 . S
C738 C734 1.524 . S
C738 H750 0.956 . S
C738 H751 0.961 . S
C738 H752 0.961 . S
C739 C736 1.539 . S
C739 H753 0.958 . S
C739 H754 0.961 . S
C739 H755 0.960 . S
H740 C724 0.931 . S
H741 C729 0.929 . S
H742 C730 0.960 . S
H743 C730 0.962 . S
H744 C730 0.960 . S
H745 C731 0.961 . S
H746 C731 0.961 . S
H747 C731 0.961 . S
H748 C732 0.931 . S
H749 C737 0.930 . S
H750 C738 0.956 . S
H751 C738 0.961 . S
H752 C738 0.961 . S
H753 C739 0.958 . S
H754 C739 0.961 . S
H755 C739 0.960 . S
C756 C757 1.391 . S
C756 C758 1.394 . S
C756 H772 0.931 . S
C757 C756 1.391 . S
C757 C761 1.376 . S
C758 C756 1.394 . S
C758 C759 1.369 . S
C758 C762 1.531 . S
C759 C758 1.369 . S
C759 C760 1.410 . S
C759 C767 1.503 . S
C760 C759 1.410 . S
C760 C761 1.392 . S
C760 C763 1.511 . S
C761 C757 1.376 . S
C761 C760 1.392 . S
C761 H773 0.929 . S
C762 C758 1.531 . S
C762 H774 0.960 . S
C762 H775 0.962 . S
C762 H776 0.960 . S
C763 C760 1.511 . S
C763 H777 0.961 . S
C763 H778 0.961 . S
C763 H779 0.961 . S
C764 C765 1.370 . S
C764 C766 1.363 . S
C764 H780 0.931 . S
C765 C764 1.370 . S
C765 C769 1.408 . S
C766 C764 1.363 . S
C766 C767 1.370 . S
C766 C770 1.524 . S
C767 C759 1.503 . S
C767 C766 1.370 . S
C767 C768 1.403 . S
C768 C767 1.403 . S
C768 C769 1.404 . S
C768 C771 1.539 . S
C769 C765 1.408 . S
C769 C768 1.404 . S
C769 H781 0.930 . S
C770 C766 1.524 . S
C770 H782 0.956 . S
C770 H783 0.961 . S
C770 H784 0.961 . S
C771 C768 1.539 . S
C771 H785 0.958 . S
C771 H786 0.961 . S
C771 H787 0.960 . S
H772 C756 0.931 . S
H773 C761 0.929 . S
H774 C762 0.960 . S
H775 C762 0.962 . S
H776 C762 0.960 . S
H777 C763 0.961 . S
H778 C763 0.961 . S
H779 C763 0.961 . S
H780 C764 0.931 . S
H781 C769 0.930 . S
H782 C770 0.956 . S
H783 C770 0.961 . S
H784 C770 0.961 . S
H785 C771 0.958 . S
H786 C771 0.961 . S
H787 C771 0.960 . S
C788 C789 1.391 . S
C788 C790 1.394 . S
C788 H804 0.931 . S
C789 C788 1.391 . S
C789 C793 1.376 . S
C790 C788 1.394 . S
C790 C791 1.369 . S
C790 C794 1.531 . S
C791 C790 1.369 . S
C791 C792 1.410 . S
C791 C799 1.503 . S
C792 C791 1.410 . S
C792 C793 1.392 . S
C792 C795 1.511 . S
C793 C789 1.376 . S
C793 C792 1.392 . S
C793 H805 0.929 . S
C794 C790 1.531 . S
C794 H806 0.960 . S
C794 H807 0.962 . S
C794 H808 0.960 . S
C795 C792 1.511 . S
C795 H809 0.961 . S
C795 H810 0.961 . S
C795 H811 0.961 . S
C796 C797 1.370 . S
C796 C798 1.363 . S
C796 H812 0.931 . S
C797 C796 1.370 . S
C797 C801 1.408 . S
C798 C796 1.363 . S
C798 C799 1.370 . S
C798 C802 1.524 . S
C799 C791 1.503 . S
C799 C798 1.370 . S
C799 C800 1.403 . S
C800 C799 1.403 . S
C800 C801 1.404 . S
C800 C803 1.539 . S
C801 C797 1.408 . S
C801 C800 1.404 . S
C801 H813 0.930 . S
C802 C798 1.524 . S
C802 H814 0.956 . S
C802 H815 0.961 . S
C802 H816 0.961 . S
C803 C800 1.539 . S
C803 H817 0.958 . S
C803 H818 0.961 . S
C803 H819 0.960 . S
H804 C788 0.931 . S
H805 C793 0.929 . S
H806 C794 0.960 . S
H807 C794 0.962 . S
H808 C794 0.960 . S
H809 C795 0.961 . S
H810 C795 0.961 . S
H811 C795 0.961 . S
H812 C796 0.931 . S
H813 C801 0.930 . S
H814 C802 0.956 . S
H815 C802 0.961 . S
H816 C802 0.961 . S
H817 C803 0.958 . S
H818 C803 0.961 . S
H819 C803 0.960 . S
C820 C821 1.391 . S
C820 C822 1.394 . S
C820 H836 0.931 . S
C821 C820 1.391 . S
C821 C825 1.377 . S
C822 C820 1.394 . S
C822 C823 1.369 . S
C822 C826 1.531 . S
C823 C822 1.369 . S
C823 C824 1.410 . S
C823 C831 1.503 . S
C824 C823 1.410 . S
C824 C825 1.404 . S
C824 C827 1.511 . S
C825 C821 1.377 . S
C825 C824 1.404 . S
C825 H837 0.915 1_655 S
C826 C822 1.531 . S
C826 H838 0.960 . S
C826 H839 0.962 . S
C826 H840 0.960 . S
C827 C824 1.511 . S
C827 H841 0.961 1_655 S
C827 H842 0.961 . S
C827 H843 0.961 1_655 S
C828 C829 1.370 . S
C828 C830 1.363 . S
C828 H844 0.931 . S
C829 C828 1.370 . S
C829 C833 1.408 . S
C830 C828 1.363 . S
C830 C831 1.370 . S
C830 C834 1.524 . S
C831 C823 1.503 . S
C831 C830 1.370 . S
C831 C832 1.403 . S
C832 C831 1.403 . S
C832 C833 1.404 . S
C832 C835 1.539 . S
C833 C829 1.408 . S
C833 C832 1.404 . S
C833 H845 0.930 . S
C834 C830 1.524 . S
C834 H846 0.956 . S
C834 H847 0.961 . S
C834 H848 0.961 . S
C835 C832 1.539 . S
C835 H849 0.958 . S
C835 H850 0.961 . S
C835 H851 0.960 . S
H836 C820 0.931 . S
H837 C825 0.915 1_455 S
H838 C826 0.960 . S
H839 C826 0.962 . S
H840 C826 0.960 . S
H841 C827 0.961 1_455 S
H842 C827 0.961 . S
H843 C827 0.961 1_455 S
H844 C828 0.931 . S
H845 C833 0.930 . S
H846 C834 0.956 . S
H847 C834 0.961 . S
H848 C834 0.961 . S
H849 C835 0.958 . S
H850 C835 0.961 . S
H851 C835 0.960 . S
C852 C853 1.391 . S
C852 C854 1.394 . S
C852 H868 0.931 . S
C853 C852 1.391 . S
C853 C857 1.376 . S
C854 C852 1.394 . S
C854 C855 1.369 . S
C854 C858 1.531 . S
C855 C854 1.369 . S
C855 C856 1.410 . S
C855 C863 1.503 . S
C856 C855 1.410 . S
C856 C857 1.392 . S
C856 C859 1.511 . S
C857 C853 1.376 . S
C857 C856 1.392 . S
C857 H869 0.929 . S
C858 C854 1.531 . S
C858 H870 0.960 . S
C858 H871 0.962 . S
C858 H872 0.960 . S
C859 C856 1.511 . S
C859 H873 0.961 . S
C859 H874 0.961 . S
C859 H875 0.961 . S
C860 C861 1.370 . S
C860 C862 1.363 . S
C860 H876 0.931 . S
C861 C860 1.370 . S
C861 C865 1.408 . S
C862 C860 1.363 . S
C862 C863 1.370 . S
C862 C866 1.524 . S
C863 C855 1.503 . S
C863 C862 1.370 . S
C863 C864 1.403 . S
C864 C863 1.403 . S
C864 C865 1.404 . S
C864 C867 1.539 . S
C865 C861 1.408 . S
C865 C864 1.404 . S
C865 H877 0.930 . S
C866 C862 1.524 . S
C866 H878 0.956 . S
C866 H879 0.961 . S
C866 H880 0.961 . S
C867 C864 1.539 . S
C867 H881 0.958 . S
C867 H882 0.961 . S
C867 H883 0.960 . S
H868 C852 0.931 . S
H869 C857 0.929 . S
H870 C858 0.960 . S
H871 C858 0.962 . S
H872 C858 0.960 . S
H873 C859 0.961 . S
H874 C859 0.961 . S
H875 C859 0.961 . S
H876 C860 0.931 . S
H877 C865 0.930 . S
H878 C866 0.956 . S
H879 C866 0.961 . S
H880 C866 0.961 . S
H881 C867 0.958 . S
H882 C867 0.961 . S
H883 C867 0.960 . S
C884 C885 1.391 . S
C884 C886 1.394 1_455 S
C884 H900 0.931 . S
C885 C884 1.391 . S
C885 C889 1.376 . S
C886 C884 1.394 1_655 S
C886 C887 1.369 . S
C886 C890 1.531 . S
C887 C886 1.369 . S
C887 C888 1.410 . S
C887 C895 1.503 . S
C888 C887 1.410 . S
C888 C889 1.392 1_655 S
C888 C891 1.511 . S
C889 C885 1.376 . S
C889 C888 1.392 1_455 S
C889 H901 0.929 . S
C890 C886 1.531 . S
C890 H902 0.960 . S
C890 H903 0.962 . S
C890 H904 0.960 . S
C891 C888 1.511 . S
C891 H905 0.961 . S
C891 H906 0.961 . S
C891 H907 0.961 . S
C892 C893 1.370 . S
C892 C894 1.363 . S
C892 H908 0.931 . S
C893 C892 1.370 . S
C893 C897 1.408 . S
C894 C892 1.363 . S
C894 C895 1.370 . S
C894 C898 1.524 . S
C895 C887 1.503 . S
C895 C894 1.370 . S
C895 C896 1.403 . S
C896 C895 1.403 . S
C896 C897 1.404 . S
C896 C899 1.539 . S
C897 C893 1.408 . S
C897 C896 1.404 . S
C897 H909 0.930 . S
C898 C894 1.524 . S
C898 H910 0.956 . S
C898 H911 0.961 . S
C898 H912 0.961 . S
C899 C896 1.539 . S
C899 H913 0.958 . S
C899 H914 0.961 . S
C899 H915 0.960 1_655 S
H900 C884 0.931 . S
H901 C889 0.929 . S
H902 C890 0.960 . S
H903 C890 0.962 . S
H904 C890 0.960 . S
H905 C891 0.961 . S
H906 C891 0.961 . S
H907 C891 0.961 . S
H908 C892 0.931 . S
H909 C897 0.930 . S
H910 C898 0.956 . S
H911 C898 0.961 . S
H912 C898 0.961 . S
H913 C899 0.958 . S
H914 C899 0.961 . S
H915 C899 0.960 1_455 S
C916 C917 1.391 . S
C916 C918 1.394 . S
C916 H932 0.931 . S
C917 C916 1.391 . S
C917 C921 1.376 . S
C918 C916 1.394 . S
C918 C919 1.369 . S
C918 C922 1.531 . S
C919 C918 1.369 . S
C919 C920 1.410 . S
C919 C927 1.503 . S
C920 C919 1.410 . S
C920 C921 1.392 . S
C920 C923 1.511 . S
C921 C917 1.376 . S
C921 C920 1.392 . S
C921 H933 0.929 . S
C922 C918 1.531 . S
C922 H934 0.960 . S
C922 H935 0.962 . S
C922 H936 0.960 . S
C923 C920 1.511 . S
C923 H937 0.961 . S
C923 H938 0.961 . S
C923 H939 0.961 . S
C924 C925 1.370 . S
C924 C926 1.363 . S
C924 H940 0.931 . S
C925 C924 1.370 . S
C925 C929 1.408 . S
C926 C924 1.363 . S
C926 C927 1.370 . S
C926 C930 1.524 . S
C927 C919 1.503 . S
C927 C926 1.370 . S
C927 C928 1.403 . S
C928 C927 1.403 . S
C928 C929 1.404 . S
C928 C931 1.539 . S
C929 C925 1.408 . S
C929 C928 1.404 . S
C929 H941 0.930 . S
C930 C926 1.524 . S
C930 H942 0.956 . S
C930 H943 0.961 . S
C930 H944 0.961 . S
C931 C928 1.539 . S
C931 H945 0.958 . S
C931 H946 0.961 . S
C931 H947 0.960 . S
H932 C916 0.931 . S
H933 C921 0.929 . S
H934 C922 0.960 . S
H935 C922 0.962 . S
H936 C922 0.960 . S
H937 C923 0.961 . S
H938 C923 0.961 . S
H939 C923 0.961 . S
H940 C924 0.931 . S
H941 C929 0.930 . S
H942 C930 0.956 . S
H943 C930 0.961 . S
H944 C930 0.961 . S
H945 C931 0.958 . S
H946 C931 0.961 . S
H947 C931 0.960 . S
C948 C949 1.391 . S
C948 C950 1.394 . S
C948 H964 0.931 . S
C949 C948 1.391 . S
C949 C953 1.376 . S
C950 C948 1.394 . S
C950 C951 1.369 . S
C950 C954 1.531 . S
C951 C950 1.369 . S
C951 C952 1.410 . S
C951 C959 1.503 . S
C952 C951 1.410 . S
C952 C953 1.392 . S
C952 C955 1.511 . S
C953 C949 1.376 . S
C953 C952 1.392 . S
C953 H965 0.929 . S
C954 C950 1.531 . S
C954 H966 0.960 . S
C954 H967 0.962 . S
C954 H968 0.960 . S
C955 C952 1.511 . S
C955 H969 0.961 . S
C955 H970 0.961 . S
C955 H971 0.961 . S
C956 C957 1.370 . S
C956 C958 1.363 . S
C956 H972 0.931 . S
C957 C956 1.370 . S
C957 C961 1.408 . S
C958 C956 1.363 . S
C958 C959 1.370 . S
C958 C962 1.524 . S
C959 C951 1.503 . S
C959 C958 1.370 . S
C959 C960 1.403 . S
C960 C959 1.403 . S
C960 C961 1.404 . S
C960 C963 1.539 . S
C961 C957 1.408 . S
C961 C960 1.404 . S
C961 H973 0.930 . S
C962 C958 1.524 . S
C962 H974 0.956 . S
C962 H975 0.961 . S
C962 H976 0.961 . S
C963 C960 1.539 . S
C963 H977 0.958 . S
C963 H978 0.961 . S
C963 H979 0.960 . S
H964 C948 0.931 . S
H965 C953 0.929 . S
H966 C954 0.960 . S
H967 C954 0.962 . S
H968 C954 0.960 . S
H969 C955 0.961 . S
H970 C955 0.961 . S
H971 C955 0.961 . S
H972 C956 0.931 . S
H973 C961 0.930 . S
H974 C962 0.956 . S
H975 C962 0.961 . S
H976 C962 0.961 . S
H977 C963 0.958 . S
H978 C963 0.961 . S
H979 C963 0.960 . S
C980 C981 1.391 . S
C980 C982 1.394 . S
C980 H996 0.931 . S
C981 C980 1.391 . S
C981 C985 1.376 . S
C982 C980 1.394 . S
C982 C983 1.369 . S
C982 C986 1.531 . S
C983 C982 1.369 . S
C983 C984 1.410 . S
C983 C991 1.503 . S
C984 C983 1.410 . S
C984 C985 1.392 . S
C984 C987 1.511 . S
C985 C981 1.376 . S
C985 C984 1.392 . S
C985 H997 0.929 . S
C986 C982 1.531 . S
C986 H998 0.960 . S
C986 H999 0.962 . S
C986 H1000 0.960 . S
C987 C984 1.511 . S
C987 H1001 0.961 . S
C987 H1002 0.961 . S
C987 H1003 0.961 . S
C988 C989 1.370 . S
C988 C990 1.363 . S
C988 H1004 0.931 . S
C989 C988 1.370 . S
C989 C993 1.408 . S
C990 C988 1.363 . S
C990 C991 1.370 . S
C990 C994 1.524 . S
C991 C983 1.503 . S
C991 C990 1.370 . S
C991 C992 1.403 . S
C992 C991 1.403 . S
C992 C993 1.404 . S
C992 C995 1.539 . S
C993 C989 1.408 . S
C993 C992 1.404 . S
C993 H1005 0.930 . S
C994 C990 1.524 . S
C994 H1006 0.956 . S
C994 H1007 0.961 . S
C994 H1008 0.961 . S
C995 C992 1.539 . S
C995 H1009 0.958 . S
C995 H1010 0.961 . S
C995 H1011 0.960 . S
H996 C980 0.931 . S
H997 C985 0.929 . S
H998 C986 0.960 . S
H999 C986 0.962 . S
H1000 C986 0.960 . S
H1001 C987 0.961 . S
H1002 C987 0.961 . S
H1003 C987 0.961 . S
H1004 C988 0.931 . S
H1005 C993 0.930 . S
H1006 C994 0.956 . S
H1007 C994 0.961 . S
H1008 C994 0.961 . S
H1009 C995 0.958 . S
H1010 C995 0.961 . S
H1011 C995 0.960 . S
C1012 C1013 1.391 . S
C1012 C1014 1.394 . S
C1012 H1028 0.931 . S
C1013 C1012 1.391 . S
C1013 C1017 1.376 . S
C1014 C1012 1.394 . S
C1014 C1015 1.369 . S
C1014 C1018 1.531 . S
C1015 C1014 1.369 . S
C1015 C1016 1.410 . S
C1015 C1023 1.503 . S
C1016 C1015 1.410 . S
C1016 C1017 1.392 . S
C1016 C1019 1.511 . S
C1017 C1013 1.376 . S
C1017 C1016 1.392 . S
C1017 H1029 0.929 . S
C1018 C1014 1.531 . S
C1018 H1030 0.960 . S
C1018 H1031 0.962 . S
C1018 H1032 0.960 . S
C1019 C1016 1.511 . S
C1019 H1033 0.961 . S
C1019 H1034 0.961 . S
C1019 H1035 0.961 . S
C1020 C1021 1.370 . S
C1020 C1022 1.363 . S
C1020 H1036 0.931 . S
C1021 C1020 1.370 . S
C1021 C1025 1.408 . S
C1022 C1020 1.363 . S
C1022 C1023 1.370 . S
C1022 C1026 1.524 . S
C1023 C1015 1.503 . S
C1023 C1022 1.370 . S
C1023 C1024 1.403 . S
C1024 C1023 1.403 . S
C1024 C1025 1.404 . S
C1024 C1027 1.539 . S
C1025 C1021 1.408 . S
C1025 C1024 1.404 . S
C1025 H1037 0.930 . S
C1026 C1022 1.524 . S
C1026 H1038 0.956 . S
C1026 H1039 0.961 . S
C1026 H1040 0.961 . S
C1027 C1024 1.539 . S
C1027 H1041 0.958 . S
C1027 H1042 0.961 . S
C1027 H1043 0.960 . S
H1028 C1012 0.931 . S
H1029 C1017 0.929 . S
H1030 C1018 0.960 . S
H1031 C1018 0.962 . S
H1032 C1018 0.960 . S
H1033 C1019 0.961 . S
H1034 C1019 0.961 . S
H1035 C1019 0.961 . S
H1036 C1020 0.931 . S
H1037 C1025 0.930 . S
H1038 C1026 0.956 . S
H1039 C1026 0.961 . S
H1040 C1026 0.961 . S
H1041 C1027 0.958 . S
H1042 C1027 0.961 . S
H1043 C1027 0.960 . S
C1044 C1045 1.391 . S
C1044 C1046 1.394 . S
C1044 H1060 0.931 . S
C1045 C1044 1.391 . S
C1045 C1049 1.376 . S
C1046 C1044 1.394 . S
C1046 C1047 1.369 . S
C1046 C1050 1.531 . S
C1047 C1046 1.369 . S
C1047 C1048 1.410 . S
C1047 C1055 1.503 . S
C1048 C1047 1.410 . S
C1048 C1049 1.392 . S
C1048 C1051 1.511 . S
C1049 C1045 1.376 . S
C1049 C1048 1.392 . S
C1049 H1061 0.929 . S
C1050 C1046 1.531 . S
C1050 H1062 0.960 . S
C1050 H1063 0.962 . S
C1050 H1064 0.960 . S
C1051 C1048 1.511 . S
C1051 H1065 0.961 . S
C1051 H1066 0.961 . S
C1051 H1067 0.961 . S
C1052 C1053 1.370 . S
C1052 C1054 1.363 . S
C1052 H1068 0.931 . S
C1053 C1052 1.370 . S
C1053 C1057 1.408 . S
C1054 C1052 1.363 . S
C1054 C1055 1.370 . S
C1054 C1058 1.524 . S
C1055 C1047 1.503 . S
C1055 C1054 1.370 . S
C1055 C1056 1.403 . S
C1056 C1055 1.403 . S
C1056 C1057 1.404 . S
C1056 C1059 1.539 . S
C1057 C1053 1.408 . S
C1057 C1056 1.404 . S
C1057 H1069 0.930 . S
C1058 C1054 1.524 . S
C1058 H1070 0.956 . S
C1058 H1071 0.961 . S
C1058 H1072 0.961 . S
C1059 C1056 1.539 . S
C1059 H1073 0.958 . S
C1059 H1074 0.961 . S
C1059 H1075 0.960 . S
H1060 C1044 0.931 . S
H1061 C1049 0.929 . S
H1062 C1050 0.960 . S
H1063 C1050 0.962 . S
H1064 C1050 0.960 . S
H1065 C1051 0.961 . S
H1066 C1051 0.961 . S
H1067 C1051 0.961 . S
H1068 C1052 0.931 . S
H1069 C1057 0.930 . S
H1070 C1058 0.956 . S
H1071 C1058 0.961 . S
H1072 C1058 0.961 . S
H1073 C1059 0.958 . S
H1074 C1059 0.961 . S
H1075 C1059 0.960 . S
C1076 C1077 1.391 . S
C1076 C1078 1.394 . S
C1076 H1092 0.931 . S
C1077 C1076 1.391 . S
C1077 C1081 1.376 . S
C1078 C1076 1.394 . S
C1078 C1079 1.369 . S
C1078 C1082 1.531 . S
C1079 C1078 1.369 . S
C1079 C1080 1.410 . S
C1079 C1087 1.503 . S
C1080 C1079 1.410 . S
C1080 C1081 1.392 . S
C1080 C1083 1.511 . S
C1081 C1077 1.376 . S
C1081 C1080 1.392 . S
C1081 H1093 0.929 . S
C1082 C1078 1.531 . S
C1082 H1094 0.960 . S
C1082 H1095 0.962 . S
C1082 H1096 0.960 . S
C1083 C1080 1.511 . S
C1083 H1097 0.961 . S
C1083 H1098 0.961 . S
C1083 H1099 0.961 . S
C1084 C1085 1.370 . S
C1084 C1086 1.363 . S
C1084 H1100 0.931 . S
C1085 C1084 1.370 . S
C1085 C1089 1.408 . S
C1086 C1084 1.363 . S
C1086 C1087 1.370 . S
C1086 C1090 1.524 . S
C1087 C1079 1.503 . S
C1087 C1086 1.370 . S
C1087 C1088 1.403 . S
C1088 C1087 1.403 . S
C1088 C1089 1.404 . S
C1088 C1091 1.539 . S
C1089 C1085 1.408 . S
C1089 C1088 1.404 . S
C1089 H1101 0.930 . S
C1090 C1086 1.524 . S
C1090 H1102 0.956 . S
C1090 H1103 0.961 . S
C1090 H1104 0.961 . S
C1091 C1088 1.539 . S
C1091 H1105 0.958 . S
C1091 H1106 0.961 . S
C1091 H1107 0.960 . S
H1092 C1076 0.931 . S
H1093 C1081 0.929 . S
H1094 C1082 0.960 . S
H1095 C1082 0.962 . S
H1096 C1082 0.960 . S
H1097 C1083 0.961 . S
H1098 C1083 0.961 . S
H1099 C1083 0.961 . S
H1100 C1084 0.931 . S
H1101 C1089 0.930 . S
H1102 C1090 0.956 . S
H1103 C1090 0.961 . S
H1104 C1090 0.961 . S
H1105 C1091 0.958 . S
H1106 C1091 0.961 . S
H1107 C1091 0.960 . S
C1108 C1109 1.391 . S
C1108 C1110 1.394 . S
C1108 H1124 0.931 . S
C1109 C1108 1.391 . S
C1109 C1113 1.376 . S
C1110 C1108 1.394 . S
C1110 C1111 1.369 . S
C1110 C1114 1.531 . S
C1111 C1110 1.369 . S
C1111 C1112 1.410 . S
C1111 C1119 1.503 . S
C1112 C1111 1.410 . S
C1112 C1113 1.392 . S
C1112 C1115 1.511 . S
C1113 C1109 1.376 . S
C1113 C1112 1.392 . S
C1113 H1125 0.929 . S
C1114 C1110 1.531 . S
C1114 H1126 0.960 . S
C1114 H1127 0.962 . S
C1114 H1128 0.960 . S
C1115 C1112 1.511 . S
C1115 H1129 0.961 . S
C1115 H1130 0.961 . S
C1115 H1131 0.961 . S
C1116 C1117 1.370 . S
C1116 C1118 1.363 . S
C1116 H1132 0.931 . S
C1117 C1116 1.370 . S
C1117 C1121 1.408 . S
C1118 C1116 1.363 . S
C1118 C1119 1.370 . S
C1118 C1122 1.524 . S
C1119 C1111 1.503 . S
C1119 C1118 1.370 . S
C1119 C1120 1.403 . S
C1120 C1119 1.403 . S
C1120 C1121 1.404 . S
C1120 C1123 1.539 . S
C1121 C1117 1.408 . S
C1121 C1120 1.404 . S
C1121 H1133 0.930 . S
C1122 C1118 1.524 . S
C1122 H1134 0.956 . S
C1122 H1135 0.961 . S
C1122 H1136 0.961 . S
C1123 C1120 1.539 . S
C1123 H1137 0.958 . S
C1123 H1138 0.961 . S
C1123 H1139 0.960 . S
H1124 C1108 0.931 . S
H1125 C1113 0.929 . S
H1126 C1114 0.960 . S
H1127 C1114 0.962 . S
H1128 C1114 0.960 . S
H1129 C1115 0.961 . S
H1130 C1115 0.961 . S
H1131 C1115 0.961 . S
H1132 C1116 0.931 . S
H1133 C1121 0.930 . S
H1134 C1122 0.956 . S
H1135 C1122 0.961 . S
H1136 C1122 0.961 . S
H1137 C1123 0.958 . S
H1138 C1123 0.961 . S
H1139 C1123 0.960 . S
C1140 C1141 1.391 . S
C1140 C1142 1.394 . S
C1140 H1156 0.931 . S
C1141 C1140 1.391 . S
C1141 C1145 1.376 . S
C1142 C1140 1.394 . S
C1142 C1143 1.369 . S
C1142 C1146 1.531 . S
C1143 C1142 1.369 . S
C1143 C1144 1.410 . S
C1143 C1151 1.503 . S
C1144 C1143 1.410 . S
C1144 C1145 1.392 . S
C1144 C1147 1.511 . S
C1145 C1141 1.376 . S
C1145 C1144 1.392 . S
C1145 H1157 0.929 . S
C1146 C1142 1.531 . S
C1146 H1158 0.960 . S
C1146 H1159 0.962 . S
C1146 H1160 0.960 . S
C1147 C1144 1.511 . S
C1147 H1161 0.961 . S
C1147 H1162 0.961 . S
C1147 H1163 0.961 . S
C1148 C1149 1.370 . S
C1148 C1150 1.363 . S
C1148 H1164 0.931 . S
C1149 C1148 1.370 . S
C1149 C1153 1.408 . S
C1150 C1148 1.363 . S
C1150 C1151 1.370 . S
C1150 C1154 1.524 . S
C1151 C1143 1.503 . S
C1151 C1150 1.370 . S
C1151 C1152 1.403 . S
C1152 C1151 1.403 . S
C1152 C1153 1.404 . S
C1152 C1155 1.539 . S
C1153 C1149 1.408 . S
C1153 C1152 1.404 . S
C1153 H1165 0.930 . S
C1154 C1150 1.524 . S
C1154 H1166 0.956 . S
C1154 H1167 0.961 . S
C1154 H1168 0.961 . S
C1155 C1152 1.539 . S
C1155 H1169 0.958 . S
C1155 H1170 0.961 . S
C1155 H1171 0.960 . S
H1156 C1140 0.931 . S
H1157 C1145 0.929 . S
H1158 C1146 0.960 . S
H1159 C1146 0.962 . S
H1160 C1146 0.960 . S
H1161 C1147 0.961 . S
H1162 C1147 0.961 . S
H1163 C1147 0.961 . S
H1164 C1148 0.931 . S
H1165 C1153 0.930 . S
H1166 C1154 0.956 . S
H1167 C1154 0.961 . S
H1168 C1154 0.961 . S
H1169 C1155 0.958 . S
H1170 C1155 0.961 . S
H1171 C1155 0.960 . S
C1172 C1173 1.391 . S
C1172 C1174 1.394 . S
C1172 H1188 0.931 . S
C1173 C1172 1.391 . S
C1173 C1177 1.376 . S
C1174 C1172 1.394 . S
C1174 C1175 1.369 . S
C1174 C1178 1.531 . S
C1175 C1174 1.369 . S
C1175 C1176 1.410 . S
C1175 C1183 1.503 . S
C1176 C1175 1.410 . S
C1176 C1177 1.392 . S
C1176 C1179 1.511 . S
C1177 C1173 1.376 . S
C1177 C1176 1.392 . S
C1177 H1189 0.929 . S
C1178 C1174 1.531 . S
C1178 H1190 0.960 . S
C1178 H1191 0.962 . S
C1178 H1192 0.960 . S
C1179 C1176 1.511 . S
C1179 H1193 0.961 . S
C1179 H1194 0.961 . S
C1179 H1195 0.961 . S
C1180 C1181 1.370 . S
C1180 C1182 1.363 . S
C1180 H1196 0.931 . S
C1181 C1180 1.370 . S
C1181 C1185 1.408 . S
C1182 C1180 1.363 . S
C1182 C1183 1.370 . S
C1182 C1186 1.524 . S
C1183 C1175 1.503 . S
C1183 C1182 1.370 . S
C1183 C1184 1.403 . S
C1184 C1183 1.403 . S
C1184 C1185 1.404 . S
C1184 C1187 1.539 . S
C1185 C1181 1.408 . S
C1185 C1184 1.404 . S
C1185 H1197 0.930 . S
C1186 C1182 1.524 . S
C1186 H1198 0.956 . S
C1186 H1199 0.961 . S
C1186 H1200 0.961 . S
C1187 C1184 1.539 . S
C1187 H1201 0.958 . S
C1187 H1202 0.961 . S
C1187 H1203 0.960 . S
H1188 C1172 0.931 . S
H1189 C1177 0.929 . S
H1190 C1178 0.960 . S
H1191 C1178 0.962 . S
H1192 C1178 0.960 . S
H1193 C1179 0.961 . S
H1194 C1179 0.961 . S
H1195 C1179 0.961 . S
H1196 C1180 0.931 . S
H1197 C1185 0.930 . S
H1198 C1186 0.956 . S
H1199 C1186 0.961 . S
H1200 C1186 0.961 . S
H1201 C1187 0.958 . S
H1202 C1187 0.961 . S
H1203 C1187 0.960 . S
C1204 C1205 1.391 . S
C1204 C1206 1.394 1_455 S
C1204 H1220 0.931 . S
C1205 C1204 1.391 . S
C1205 C1209 1.376 . S
C1206 C1204 1.394 1_655 S
C1206 C1207 1.369 . S
C1206 C1210 1.531 . S
C1207 C1206 1.369 . S
C1207 C1208 1.410 1_655 S
C1207 C1215 1.503 . S
C1208 C1207 1.410 1_455 S
C1208 C1209 1.392 . S
C1208 C1211 1.511 . S
C1209 C1205 1.376 . S
C1209 C1208 1.392 . S
C1209 H1221 0.929 . S
C1210 C1206 1.531 . S
C1210 H1222 0.960 . S
C1210 H1223 0.962 . S
C1210 H1224 0.960 . S
C1211 C1208 1.511 . S
C1211 H1225 0.961 . S
C1211 H1226 0.961 . S
C1211 H1227 0.961 . S
C1212 C1213 1.370 . S
C1212 C1214 1.363 . S
C1212 H1228 0.931 . S
C1213 C1212 1.370 . S
C1213 C1217 1.408 . S
C1214 C1212 1.363 . S
C1214 C1215 1.370 . S
C1214 C1218 1.524 . S
C1215 C1207 1.503 . S
C1215 C1214 1.370 . S
C1215 C1216 1.403 . S
C1216 C1215 1.403 . S
C1216 C1217 1.404 . S
C1216 C1219 1.539 . S
C1217 C1213 1.408 . S
C1217 C1216 1.404 . S
C1217 H1229 0.930 . S
C1218 C1214 1.524 . S
C1218 H1230 0.956 . S
C1218 H1231 0.961 . S
C1218 H1232 0.961 . S
C1219 C1216 1.539 . S
C1219 H1233 0.958 . S
C1219 H1234 0.961 . S
C1219 H1235 0.960 . S
H1220 C1204 0.931 . S
H1221 C1209 0.929 . S
H1222 C1210 0.960 . S
H1223 C1210 0.962 . S
H1224 C1210 0.960 . S
H1225 C1211 0.961 . S
H1226 C1211 0.961 . S
H1227 C1211 0.961 . S
H1228 C1212 0.931 . S
H1229 C1217 0.930 . S
H1230 C1218 0.956 . S
H1231 C1218 0.961 . S
H1232 C1218 0.961 . S
H1233 C1219 0.958 . S
H1234 C1219 0.961 . S
H1235 C1219 0.960 . S
C1236 C1237 1.391 . S
C1236 C1238 1.394 . S
C1236 H1252 0.931 . S
C1237 C1236 1.391 . S
C1237 C1241 1.376 . S
C1238 C1236 1.394 . S
C1238 C1239 1.369 . S
C1238 C1242 1.531 . S
C1239 C1238 1.369 . S
C1239 C1240 1.410 . S
C1239 C1247 1.503 . S
C1240 C1239 1.410 . S
C1240 C1241 1.392 . S
C1240 C1243 1.511 . S
C1241 C1237 1.376 . S
C1241 C1240 1.392 . S
C1241 H1253 0.929 . S
C1242 C1238 1.531 . S
C1242 H1254 0.960 . S
C1242 H1255 0.962 . S
C1242 H1256 0.960 . S
C1243 C1240 1.511 . S
C1243 H1257 0.961 . S
C1243 H1258 0.961 . S
C1243 H1259 0.961 . S
C1244 C1245 1.370 . S
C1244 C1246 1.363 . S
C1244 H1260 0.931 . S
C1245 C1244 1.370 . S
C1245 C1249 1.408 . S
C1246 C1244 1.363 . S
C1246 C1247 1.370 . S
C1246 C1250 1.524 . S
C1247 C1239 1.503 . S
C1247 C1246 1.370 . S
C1247 C1248 1.403 . S
C1248 C1247 1.403 . S
C1248 C1249 1.404 . S
C1248 C1251 1.539 . S
C1249 C1245 1.408 . S
C1249 C1248 1.404 . S
C1249 H1261 0.930 . S
C1250 C1246 1.524 . S
C1250 H1262 0.956 . S
C1250 H1263 0.961 . S
C1250 H1264 0.961 . S
C1251 C1248 1.539 . S
C1251 H1265 0.958 . S
C1251 H1266 0.961 . S
C1251 H1267 0.960 . S
H1252 C1236 0.931 . S
H1253 C1241 0.929 . S
H1254 C1242 0.960 . S
H1255 C1242 0.962 . S
H1256 C1242 0.960 . S
H1257 C1243 0.961 . S
H1258 C1243 0.961 . S
H1259 C1243 0.961 . S
H1260 C1244 0.931 . S
H1261 C1249 0.930 . S
H1262 C1250 0.956 . S
H1263 C1250 0.961 . S
H1264 C1250 0.961 . S
H1265 C1251 0.958 . S
H1266 C1251 0.961 . S
H1267 C1251 0.960 . S
C1268 C1269 1.391 . S
C1268 C1270 1.394 . S
C1268 H1284 0.931 . S
C1269 C1268 1.391 . S
C1269 C1273 1.376 . S
C1270 C1268 1.394 . S
C1270 C1271 1.369 . S
C1270 C1274 1.531 . S
C1271 C1270 1.369 . S
C1271 C1272 1.410 . S
C1271 C1279 1.503 . S
C1272 C1271 1.410 . S
C1272 C1273 1.392 . S
C1272 C1275 1.511 . S
C1273 C1269 1.376 . S
C1273 C1272 1.392 . S
C1273 H1285 0.929 . S
C1274 C1270 1.531 . S
C1274 H1286 0.960 . S
C1274 H1287 0.962 . S
C1274 H1288 0.960 . S
C1275 C1272 1.511 . S
C1275 H1289 0.961 . S
C1275 H1290 0.961 . S
C1275 H1291 0.961 . S
C1276 C1277 1.370 . S
C1276 C1278 1.363 . S
C1276 H1292 0.931 . S
C1277 C1276 1.370 . S
C1277 C1281 1.408 . S
C1278 C1276 1.363 . S
C1278 C1279 1.370 . S
C1278 C1282 1.524 . S
C1279 C1271 1.503 . S
C1279 C1278 1.370 . S
C1279 C1280 1.403 . S
C1280 C1279 1.403 . S
C1280 C1281 1.404 . S
C1280 C1283 1.539 . S
C1281 C1277 1.408 . S
C1281 C1280 1.404 . S
C1281 H1293 0.930 . S
C1282 C1278 1.524 . S
C1282 H1294 0.956 . S
C1282 H1295 0.961 . S
C1282 H1296 0.961 . S
C1283 C1280 1.539 . S
C1283 H1297 0.958 . S
C1283 H1298 0.961 . S
C1283 H1299 0.960 . S
H1284 C1268 0.931 . S
H1285 C1273 0.929 . S
H1286 C1274 0.960 . S
H1287 C1274 0.962 . S
H1288 C1274 0.960 . S
H1289 C1275 0.961 . S
H1290 C1275 0.961 . S
H1291 C1275 0.961 . S
H1292 C1276 0.931 . S
H1293 C1281 0.930 . S
H1294 C1282 0.956 . S
H1295 C1282 0.961 . S
H1296 C1282 0.961 . S
H1297 C1283 0.958 . S
H1298 C1283 0.961 . S
H1299 C1283 0.960 . S
C1300 C1301 1.391 . S
C1300 C1302 1.394 . S
C1300 H1316 0.931 . S
C1301 C1300 1.391 . S
C1301 C1305 1.376 . S
C1302 C1300 1.394 . S
C1302 C1303 1.369 . S
C1302 C1306 1.531 . S
C1303 C1302 1.369 . S
C1303 C1304 1.410 . S
C1303 C1311 1.503 . S
C1304 C1303 1.410 . S
C1304 C1305 1.392 . S
C1304 C1307 1.511 . S
C1305 C1301 1.376 . S
C1305 C1304 1.392 . S
C1305 H1317 0.929 . S
C1306 C1302 1.531 . S
C1306 H1318 0.960 . S
C1306 H1319 0.962 . S
C1306 H1320 0.960 . S
C1307 C1304 1.511 . S
C1307 H1321 0.961 . S
C1307 H1322 0.961 . S
C1307 H1323 0.961 . S
C1308 C1309 1.370 . S
C1308 C1310 1.363 . S
C1308 H1324 0.931 . S
C1309 C1308 1.370 . S
C1309 C1313 1.408 . S
C1310 C1308 1.363 . S
C1310 C1311 1.370 . S
C1310 C1314 1.524 . S
C1311 C1303 1.503 . S
C1311 C1310 1.370 . S
C1311 C1312 1.403 . S
C1312 C1311 1.403 . S
C1312 C1313 1.404 . S
C1312 C1315 1.539 . S
C1313 C1309 1.408 . S
C1313 C1312 1.404 . S
C1313 H1325 0.930 . S
C1314 C1310 1.524 . S
C1314 H1326 0.956 . S
C1314 H1327 0.961 . S
C1314 H1328 0.961 . S
C1315 C1312 1.539 . S
C1315 H1329 0.958 . S
C1315 H1330 0.961 . S
C1315 H1331 0.960 . S
H1316 C1300 0.931 . S
H1317 C1305 0.929 . S
H1318 C1306 0.960 . S
H1319 C1306 0.962 . S
H1320 C1306 0.960 . S
H1321 C1307 0.961 . S
H1322 C1307 0.961 . S
H1323 C1307 0.961 . S
H1324 C1308 0.931 . S
H1325 C1313 0.930 . S
H1326 C1314 0.956 . S
H1327 C1314 0.961 . S
H1328 C1314 0.961 . S
H1329 C1315 0.958 . S
H1330 C1315 0.961 . S
H1331 C1315 0.960 . S
C1332 C1333 1.391 . S
C1332 C1334 1.394 . S
C1332 H1348 0.931 . S
C1333 C1332 1.391 . S
C1333 C1337 1.376 . S
C1334 C1332 1.394 . S
C1334 C1335 1.369 . S
C1334 C1338 1.531 . S
C1335 C1334 1.369 . S
C1335 C1336 1.410 . S
C1335 C1343 1.503 . S
C1336 C1335 1.410 . S
C1336 C1337 1.392 . S
C1336 C1339 1.511 . S
C1337 C1333 1.376 . S
C1337 C1336 1.392 . S
C1337 H1349 0.929 . S
C1338 C1334 1.531 . S
C1338 H1350 0.960 . S
C1338 H1351 0.962 . S
C1338 H1352 0.960 . S
C1339 C1336 1.511 . S
C1339 H1353 0.961 . S
C1339 H1354 0.961 . S
C1339 H1355 0.961 . S
C1340 C1341 1.370 . S
C1340 C1342 1.363 . S
C1340 H1356 0.931 . S
C1341 C1340 1.370 . S
C1341 C1345 1.408 . S
C1342 C1340 1.363 . S
C1342 C1343 1.370 . S
C1342 C1346 1.524 . S
C1343 C1335 1.503 . S
C1343 C1342 1.370 . S
C1343 C1344 1.403 . S
C1344 C1343 1.403 . S
C1344 C1345 1.404 . S
C1344 C1347 1.539 . S
C1345 C1341 1.408 . S
C1345 C1344 1.404 . S
C1345 H1357 0.930 . S
C1346 C1342 1.524 . S
C1346 H1358 0.956 . S
C1346 H1359 0.961 . S
C1346 H1360 0.961 . S
C1347 C1344 1.539 . S
C1347 H1361 0.958 . S
C1347 H1362 0.961 . S
C1347 H1363 0.960 . S
H1348 C1332 0.931 . S
H1349 C1337 0.929 . S
H1350 C1338 0.960 . S
H1351 C1338 0.962 . S
H1352 C1338 0.960 . S
H1353 C1339 0.961 . S
H1354 C1339 0.961 . S
H1355 C1339 0.961 . S
H1356 C1340 0.931 . S
H1357 C1345 0.930 . S
H1358 C1346 0.956 . S
H1359 C1346 0.961 . S
H1360 C1346 0.961 . S
H1361 C1347 0.958 . S
H1362 C1347 0.961 . S
H1363 C1347 0.960 . S
C1364 C1365 1.391 . S
C1364 C1366 1.394 . S
C1364 H1380 0.931 . S
C1365 C1364 1.391 . S
C1365 C1369 1.376 . S
C1366 C1364 1.394 . S
C1366 C1367 1.369 . S
C1366 C1370 1.531 . S
C1367 C1366 1.369 . S
C1367 C1368 1.410 . S
C1367 C1375 1.503 . S
C1368 C1367 1.410 . S
C1368 C1369 1.392 . S
C1368 C1371 1.511 . S
C1369 C1365 1.376 . S
C1369 C1368 1.392 . S
C1369 H1381 0.929 . S
C1370 C1366 1.531 . S
C1370 H1382 0.960 . S
C1370 H1383 0.962 . S
C1370 H1384 0.960 . S
C1371 C1368 1.511 . S
C1371 H1385 0.961 . S
C1371 H1386 0.961 . S
C1371 H1387 0.961 . S
C1372 C1373 1.370 . S
C1372 C1374 1.363 . S
C1372 H1388 0.931 . S
C1373 C1372 1.370 . S
C1373 C1377 1.408 . S
C1374 C1372 1.363 . S
C1374 C1375 1.370 . S
C1374 C1378 1.524 . S
C1375 C1367 1.503 . S
C1375 C1374 1.370 . S
C1375 C1376 1.403 . S
C1376 C1375 1.403 . S
C1376 C1377 1.404 . S
C1376 C1379 1.539 . S
C1377 C1373 1.408 . S
C1377 C1376 1.404 . S
C1377 H1389 0.930 . S
C1378 C1374 1.524 . S
C1378 H1390 0.956 . S
C1378 H1391 0.961 . S
C1378 H1392 0.961 . S
C1379 C1376 1.539 . S
C1379 H1393 0.958 . S
C1379 H1394 0.961 . S
C1379 H1395 0.960 . S
H1380 C1364 0.931 . S
H1381 C1369 0.929 . S
H1382 C1370 0.960 . S
H1383 C1370 0.962 . S
H1384 C1370 0.960 . S
H1385 C1371 0.961 . S
H1386 C1371 0.961 . S
H1387 C1371 0.961 . S
H1388 C1372 0.931 . S
H1389 C1377 0.930 . S
H1390 C1378 0.956 . S
H1391 C1378 0.961 . S
H1392 C1378 0.961 . S
H1393 C1379 0.958 . S
H1394 C1379 0.961 . S
H1395 C1379 0.960 . S
C1396 C1397 1.391 . S
C1396 C1398 1.394 . S
C1396 H1412 0.931 . S
C1397 C1396 1.391 . S
C1397 C1401 1.376 . S
C1398 C1396 1.394 . S
C1398 C1399 1.369 . S
C1398 C1402 1.531 . S
C1399 C1398 1.369 . S
C1399 C1400 1.410 . S
C1399 C1407 1.503 . S
C1400 C1399 1.410 . S
C1400 C1401 1.392 . S
C1400 C1403 1.511 . S
C1401 C1397 1.376 . S
C1401 C1400 1.392 . S
C1401 H1413 0.929 . S
C1402 C1398 1.531 . S
C1402 H1414 0.960 . S
C1402 H1415 0.962 . S
C1402 H1416 0.960 . S
C1403 C1400 1.511 . S
C1403 H1417 0.961 . S
C1403 H1418 0.961 . S
C1403 H1419 0.961 . S
C1404 C1405 1.370 . S
C1404 C1406 1.363 . S
C1404 H1420 0.931 . S
C1405 C1404 1.370 . S
C1405 C1409 1.408 . S
C1406 C1404 1.363 . S
C1406 C1407 1.370 . S
C1406 C1410 1.524 . S
C1407 C1399 1.503 . S
C1407 C1406 1.370 . S
C1407 C1408 1.403 . S
C1408 C1407 1.403 . S
C1408 C1409 1.404 . S
C1408 C1411 1.539 . S
C1409 C1405 1.408 . S
C1409 C1408 1.404 . S
C1409 H1421 0.930 . S
C1410 C1406 1.524 . S
C1410 H1422 0.956 . S
C1410 H1423 0.961 . S
C1410 H1424 0.961 . S
C1411 C1408 1.539 . S
C1411 H1425 0.958 . S
C1411 H1426 0.961 . S
C1411 H1427 0.960 . S
H1412 C1396 0.931 . S
H1413 C1401 0.929 . S
H1414 C1402 0.960 . S
H1415 C1402 0.962 . S
H1416 C1402 0.960 . S
H1417 C1403 0.961 . S
H1418 C1403 0.961 . S
H1419 C1403 0.961 . S
H1420 C1404 0.931 . S
H1421 C1409 0.930 . S
H1422 C1410 0.956 . S
H1423 C1410 0.961 . S
H1424 C1410 0.961 . S
H1425 C1411 0.958 . S
H1426 C1411 0.961 . S
H1427 C1411 0.960 . S
C1428 C1429 1.391 . S
C1428 C1430 1.394 . S
C1428 H1444 0.931 . S
C1429 C1428 1.391 . S
C1429 C1433 1.376 . S
C1430 C1428 1.394 . S
C1430 C1431 1.369 . S
C1430 C1434 1.531 . S
C1431 C1430 1.369 . S
C1431 C1432 1.410 . S
C1431 C1439 1.503 . S
C1432 C1431 1.410 . S
C1432 C1433 1.392 . S
C1432 C1435 1.511 . S
C1433 C1429 1.376 . S
C1433 C1432 1.392 . S
C1433 H1445 0.929 . S
C1434 C1430 1.531 . S
C1434 H1446 0.960 . S
C1434 H1447 0.962 . S
C1434 H1448 0.960 . S
C1435 C1432 1.511 . S
C1435 H1449 0.961 . S
C1435 H1450 0.961 . S
C1435 H1451 0.961 . S
C1436 C1437 1.370 . S
C1436 C1438 1.363 . S
C1436 H1452 0.931 . S
C1437 C1436 1.370 . S
C1437 C1441 1.408 . S
C1438 C1436 1.363 . S
C1438 C1439 1.370 . S
C1438 C1442 1.524 . S
C1439 C1431 1.503 . S
C1439 C1438 1.370 . S
C1439 C1440 1.403 . S
C1440 C1439 1.403 . S
C1440 C1441 1.404 . S
C1440 C1443 1.539 . S
C1441 C1437 1.408 . S
C1441 C1440 1.404 . S
C1441 H1453 0.930 . S
C1442 C1438 1.524 . S
C1442 H1454 0.956 . S
C1442 H1455 0.961 . S
C1442 H1456 0.961 . S
C1443 C1440 1.539 . S
C1443 H1457 0.958 . S
C1443 H1458 0.961 . S
C1443 H1459 0.960 . S
H1444 C1428 0.931 . S
H1445 C1433 0.929 . S
H1446 C1434 0.960 . S
H1447 C1434 0.962 . S
H1448 C1434 0.960 . S
H1449 C1435 0.961 . S
H1450 C1435 0.961 . S
H1451 C1435 0.961 . S
H1452 C1436 0.931 . S
H1453 C1441 0.930 . S
H1454 C1442 0.956 . S
H1455 C1442 0.961 . S
H1456 C1442 0.961 . S
H1457 C1443 0.958 . S
H1458 C1443 0.961 . S
H1459 C1443 0.960 . S
C1460 C1461 1.391 . S
C1460 C1462 1.394 . S
C1460 H1476 0.931 . S
C1461 C1460 1.391 . S
C1461 C1465 1.376 . S
C1462 C1460 1.394 . S
C1462 C1463 1.369 . S
C1462 C1466 1.531 . S
C1463 C1462 1.369 . S
C1463 C1464 1.410 . S
C1463 C1471 1.503 . S
C1464 C1463 1.410 . S
C1464 C1465 1.392 . S
C1464 C1467 1.511 . S
C1465 C1461 1.376 . S
C1465 C1464 1.392 . S
C1465 H1477 0.929 . S
C1466 C1462 1.531 . S
C1466 H1478 0.960 . S
C1466 H1479 0.962 . S
C1466 H1480 0.960 . S
C1467 C1464 1.511 . S
C1467 H1481 0.961 . S
C1467 H1482 0.961 . S
C1467 H1483 0.961 . S
C1468 C1469 1.370 . S
C1468 C1470 1.363 . S
C1468 H1484 0.931 . S
C1469 C1468 1.370 . S
C1469 C1473 1.408 . S
C1470 C1468 1.363 . S
C1470 C1471 1.370 . S
C1470 C1474 1.524 . S
C1471 C1463 1.503 . S
C1471 C1470 1.370 . S
C1471 C1472 1.403 . S
C1472 C1471 1.403 . S
C1472 C1473 1.404 . S
C1472 C1475 1.539 . S
C1473 C1469 1.408 . S
C1473 C1472 1.404 . S
C1473 H1485 0.930 . S
C1474 C1470 1.524 . S
C1474 H1486 0.956 . S
C1474 H1487 0.961 . S
C1474 H1488 0.961 . S
C1475 C1472 1.539 . S
C1475 H1489 0.958 . S
C1475 H1490 0.961 . S
C1475 H1491 0.960 . S
H1476 C1460 0.931 . S
H1477 C1465 0.929 . S
H1478 C1466 0.960 . S
H1479 C1466 0.962 . S
H1480 C1466 0.960 . S
H1481 C1467 0.961 . S
H1482 C1467 0.961 . S
H1483 C1467 0.961 . S
H1484 C1468 0.931 . S
H1485 C1473 0.930 . S
H1486 C1474 0.956 . S
H1487 C1474 0.961 . S
H1488 C1474 0.961 . S
H1489 C1475 0.958 . S
H1490 C1475 0.961 . S
H1491 C1475 0.960 . S
C1492 C1493 1.391 . S
C1492 C1494 1.394 . S
C1492 H1508 0.931 . S
C1493 C1492 1.391 . S
C1493 C1497 1.376 . S
C1494 C1492 1.394 . S
C1494 C1495 1.369 . S
C1494 C1498 1.531 . S
C1495 C1494 1.369 . S
C1495 C1496 1.410 . S
C1495 C1503 1.503 . S
C1496 C1495 1.410 . S
C1496 C1497 1.392 . S
C1496 C1499 1.511 . S
C1497 C1493 1.376 . S
C1497 C1496 1.392 . S
C1497 H1509 0.929 . S
C1498 C1494 1.531 . S
C1498 H1510 0.960 . S
C1498 H1511 0.962 . S
C1498 H1512 0.960 . S
C1499 C1496 1.511 . S
C1499 H1513 0.961 . S
C1499 H1514 0.961 . S
C1499 H1515 0.961 . S
C1500 C1501 1.370 . S
C1500 C1502 1.363 . S
C1500 H1516 0.931 . S
C1501 C1500 1.370 . S
C1501 C1505 1.408 . S
C1502 C1500 1.363 . S
C1502 C1503 1.370 . S
C1502 C1506 1.524 . S
C1503 C1495 1.503 . S
C1503 C1502 1.370 . S
C1503 C1504 1.403 . S
C1504 C1503 1.403 . S
C1504 C1505 1.404 . S
C1504 C1507 1.539 . S
C1505 C1501 1.408 . S
C1505 C1504 1.404 . S
C1505 H1517 0.930 . S
C1506 C1502 1.524 . S
C1506 H1518 0.956 . S
C1506 H1519 0.961 . S
C1506 H1520 0.961 . S
C1507 C1504 1.539 . S
C1507 H1521 0.958 . S
C1507 H1522 0.961 . S
C1507 H1523 0.960 . S
H1508 C1492 0.931 . S
H1509 C1497 0.929 . S
H1510 C1498 0.960 . S
H1511 C1498 0.962 . S
H1512 C1498 0.960 . S
H1513 C1499 0.961 . S
H1514 C1499 0.961 . S
H1515 C1499 0.961 . S
H1516 C1500 0.931 . S
H1517 C1505 0.930 . S
H1518 C1506 0.956 . S
H1519 C1506 0.961 . S
H1520 C1506 0.961 . S
H1521 C1507 0.958 . S
H1522 C1507 0.961 . S
H1523 C1507 0.960 . S
C1524 C1525 1.391 . S
C1524 C1526 1.394 . S
C1524 H1540 0.931 . S
C1525 C1524 1.391 . S
C1525 C1529 1.376 . S
C1526 C1524 1.394 . S
C1526 C1527 1.369 . S
C1526 C1530 1.531 . S
C1527 C1526 1.369 . S
C1527 C1528 1.410 . S
C1527 C1535 1.503 . S
C1528 C1527 1.410 . S
C1528 C1529 1.392 . S
C1528 C1531 1.511 . S
C1529 C1525 1.376 . S
C1529 C1528 1.392 . S
C1529 H1541 0.929 . S
C1530 C1526 1.531 . S
C1530 H1542 0.960 . S
C1530 H1543 0.962 . S
C1530 H1544 0.960 . S
C1531 C1528 1.511 . S
C1531 H1545 0.961 . S
C1531 H1546 0.961 . S
C1531 H1547 0.961 . S
C1532 C1533 1.370 . S
C1532 C1534 1.363 . S
C1532 H1548 0.931 . S
C1533 C1532 1.370 . S
C1533 C1537 1.408 . S
C1534 C1532 1.363 . S
C1534 C1535 1.370 . S
C1534 C1538 1.524 . S
C1535 C1527 1.503 . S
C1535 C1534 1.370 . S
C1535 C1536 1.403 . S
C1536 C1535 1.403 . S
C1536 C1537 1.404 . S
C1536 C1539 1.539 . S
C1537 C1533 1.408 . S
C1537 C1536 1.404 . S
C1537 H1549 0.930 . S
C1538 C1534 1.524 . S
C1538 H1550 0.956 . S
C1538 H1551 0.961 . S
C1538 H1552 0.961 . S
C1539 C1536 1.539 . S
C1539 H1553 0.958 . S
C1539 H1554 0.961 . S
C1539 H1555 0.960 . S
H1540 C1524 0.931 . S
H1541 C1529 0.929 . S
H1542 C1530 0.960 . S
H1543 C1530 0.962 . S
H1544 C1530 0.960 . S
H1545 C1531 0.961 . S
H1546 C1531 0.961 . S
H1547 C1531 0.961 . S
H1548 C1532 0.931 . S
H1549 C1537 0.930 . S
H1550 C1538 0.956 . S
H1551 C1538 0.961 . S
H1552 C1538 0.961 . S
H1553 C1539 0.958 . S
H1554 C1539 0.961 . S
H1555 C1539 0.960 . S
C1556 C1557 1.391 . S
C1556 C1558 1.394 . S
C1556 H1572 0.931 . S
C1557 C1556 1.391 . S
C1557 C1561 1.376 . S
C1558 C1556 1.394 . S
C1558 C1559 1.369 . S
C1558 C1562 1.531 . S
C1559 C1558 1.369 . S
C1559 C1560 1.410 . S
C1559 C1567 1.503 . S
C1560 C1559 1.410 . S
C1560 C1561 1.392 . S
C1560 C1563 1.511 . S
C1561 C1557 1.376 . S
C1561 C1560 1.392 . S
C1561 H1573 0.929 . S
C1562 C1558 1.531 . S
C1562 H1574 0.960 . S
C1562 H1575 0.962 . S
C1562 H1576 0.960 . S
C1563 C1560 1.511 . S
C1563 H1577 0.961 . S
C1563 H1578 0.961 . S
C1563 H1579 0.961 . S
C1564 C1565 1.370 . S
C1564 C1566 1.363 . S
C1564 H1580 0.931 . S
C1565 C1564 1.370 . S
C1565 C1569 1.408 . S
C1566 C1564 1.363 . S
C1566 C1567 1.370 . S
C1566 C1570 1.524 . S
C1567 C1559 1.503 . S
C1567 C1566 1.370 . S
C1567 C1568 1.403 . S
C1568 C1567 1.403 . S
C1568 C1569 1.404 . S
C1568 C1571 1.539 . S
C1569 C1565 1.408 . S
C1569 C1568 1.404 . S
C1569 H1581 0.930 . S
C1570 C1566 1.524 . S
C1570 H1582 0.956 . S
C1570 H1583 0.961 . S
C1570 H1584 0.961 . S
C1571 C1568 1.539 . S
C1571 H1585 0.958 . S
C1571 H1586 0.961 . S
C1571 H1587 0.960 . S
H1572 C1556 0.931 . S
H1573 C1561 0.929 . S
H1574 C1562 0.960 . S
H1575 C1562 0.962 . S
H1576 C1562 0.960 . S
H1577 C1563 0.961 . S
H1578 C1563 0.961 . S
H1579 C1563 0.961 . S
H1580 C1564 0.931 . S
H1581 C1569 0.930 . S
H1582 C1570 0.956 . S
H1583 C1570 0.961 . S
H1584 C1570 0.961 . S
H1585 C1571 0.958 . S
H1586 C1571 0.961 . S
H1587 C1571 0.960 . S
C1588 C1589 1.391 . S
C1588 C1590 1.394 . S
C1588 H1604 0.931 . S
C1589 C1588 1.391 . S
C1589 C1593 1.376 . S
C1590 C1588 1.394 . S
C1590 C1591 1.369 . S
C1590 C1594 1.531 . S
C1591 C1590 1.369 . S
C1591 C1592 1.410 . S
C1591 C1599 1.503 . S
C1592 C1591 1.410 . S
C1592 C1593 1.392 . S
C1592 C1595 1.511 . S
C1593 C1589 1.376 . S
C1593 C1592 1.392 . S
C1593 H1605 0.929 . S
C1594 C1590 1.531 . S
C1594 H1606 0.960 . S
C1594 H1607 0.962 . S
C1594 H1608 0.960 . S
C1595 C1592 1.511 . S
C1595 H1609 0.961 . S
C1595 H1610 0.961 . S
C1595 H1611 0.961 . S
C1596 C1597 1.370 . S
C1596 C1598 1.363 . S
C1596 H1612 0.931 . S
C1597 C1596 1.370 . S
C1597 C1601 1.408 . S
C1598 C1596 1.363 . S
C1598 C1599 1.370 . S
C1598 C1602 1.524 . S
C1599 C1591 1.503 . S
C1599 C1598 1.370 . S
C1599 C1600 1.403 . S
C1600 C1599 1.403 . S
C1600 C1601 1.404 . S
C1600 C1603 1.539 . S
C1601 C1597 1.408 . S
C1601 C1600 1.404 . S
C1601 H1613 0.930 . S
C1602 C1598 1.524 . S
C1602 H1614 0.956 . S
C1602 H1615 0.961 . S
C1602 H1616 0.961 . S
C1603 C1600 1.539 . S
C1603 H1617 0.958 . S
C1603 H1618 0.961 . S
C1603 H1619 0.960 . S
H1604 C1588 0.931 . S
H1605 C1593 0.929 . S
H1606 C1594 0.960 . S
H1607 C1594 0.962 . S
H1608 C1594 0.960 . S
H1609 C1595 0.961 . S
H1610 C1595 0.961 . S
H1611 C1595 0.961 . S
H1612 C1596 0.931 . S
H1613 C1601 0.930 . S
H1614 C1602 0.956 . S
H1615 C1602 0.961 . S
H1616 C1602 0.961 . S
H1617 C1603 0.958 . S
H1618 C1603 0.961 . S
H1619 C1603 0.960 . S
C1620 C1621 1.391 . S
C1620 C1622 1.394 . S
C1620 H1636 0.931 . S
C1621 C1620 1.391 . S
C1621 C1625 1.376 . S
C1622 C1620 1.394 . S
C1622 C1623 1.369 . S
C1622 C1626 1.531 . S
C1623 C1622 1.369 . S
C1623 C1624 1.410 . S
C1623 C1631 1.503 . S
C1624 C1623 1.410 . S
C1624 C1625 1.392 . S
C1624 C1627 1.511 . S
C1625 C1621 1.376 . S
C1625 C1624 1.392 . S
C1625 H1637 0.929 . S
C1626 C1622 1.531 . S
C1626 H1638 0.960 . S
C1626 H1639 0.962 . S
C1626 H1640 0.960 . S
C1627 C1624 1.511 . S
C1627 H1641 0.961 . S
C1627 H1642 0.961 . S
C1627 H1643 0.961 . S
C1628 C1629 1.370 . S
C1628 C1630 1.363 . S
C1628 H1644 0.931 . S
C1629 C1628 1.370 . S
C1629 C1633 1.408 . S
C1630 C1628 1.363 . S
C1630 C1631 1.370 . S
C1630 C1634 1.524 . S
C1631 C1623 1.503 . S
C1631 C1630 1.370 . S
C1631 C1632 1.403 . S
C1632 C1631 1.403 . S
C1632 C1633 1.404 . S
C1632 C1635 1.539 . S
C1633 C1629 1.408 . S
C1633 C1632 1.404 . S
C1633 H1645 0.930 . S
C1634 C1630 1.524 . S
C1634 H1646 0.956 . S
C1634 H1647 0.961 . S
C1634 H1648 0.961 . S
C1635 C1632 1.539 . S
C1635 H1649 0.958 . S
C1635 H1650 0.961 . S
C1635 H1651 0.960 . S
H1636 C1620 0.931 . S
H1637 C1625 0.929 . S
H1638 C1626 0.960 . S
H1639 C1626 0.962 . S
H1640 C1626 0.960 . S
H1641 C1627 0.961 . S
H1642 C1627 0.961 . S
H1643 C1627 0.961 . S
H1644 C1628 0.931 . S
H1645 C1633 0.930 . S
H1646 C1634 0.956 . S
H1647 C1634 0.961 . S
H1648 C1634 0.961 . S
H1649 C1635 0.958 . S
H1650 C1635 0.961 . S
H1651 C1635 0.960 . S
C1652 C1653 1.391 . S
C1652 C1654 1.394 . S
C1652 H1668 0.931 . S
C1653 C1652 1.391 . S
C1653 C1657 1.376 . S
C1654 C1652 1.394 . S
C1654 C1655 1.369 . S
C1654 C1658 1.531 . S
C1655 C1654 1.369 . S
C1655 C1656 1.410 . S
C1655 C1663 1.503 . S
C1656 C1655 1.410 . S
C1656 C1657 1.392 . S
C1656 C1659 1.511 . S
C1657 C1653 1.376 . S
C1657 C1656 1.392 . S
C1657 H1669 0.929 . S
C1658 C1654 1.531 . S
C1658 H1670 0.960 . S
C1658 H1671 0.962 . S
C1658 H1672 0.960 . S
C1659 C1656 1.511 . S
C1659 H1673 0.961 . S
C1659 H1674 0.961 . S
C1659 H1675 0.961 . S
C1660 C1661 1.370 . S
C1660 C1662 1.363 . S
C1660 H1676 0.931 . S
C1661 C1660 1.370 . S
C1661 C1665 1.408 . S
C1662 C1660 1.363 . S
C1662 C1663 1.370 . S
C1662 C1666 1.524 . S
C1663 C1655 1.503 . S
C1663 C1662 1.370 . S
C1663 C1664 1.403 . S
C1664 C1663 1.403 . S
C1664 C1665 1.404 . S
C1664 C1667 1.539 . S
C1665 C1661 1.408 . S
C1665 C1664 1.404 . S
C1665 H1677 0.930 . S
C1666 C1662 1.524 . S
C1666 H1678 0.956 . S
C1666 H1679 0.961 . S
C1666 H1680 0.961 . S
C1667 C1664 1.539 . S
C1667 H1681 0.958 . S
C1667 H1682 0.961 . S
C1667 H1683 0.960 . S
H1668 C1652 0.931 . S
H1669 C1657 0.929 . S
H1670 C1658 0.960 . S
H1671 C1658 0.962 . S
H1672 C1658 0.960 . S
H1673 C1659 0.961 . S
H1674 C1659 0.961 . S
H1675 C1659 0.961 . S
H1676 C1660 0.931 . S
H1677 C1665 0.930 . S
H1678 C1666 0.956 . S
H1679 C1666 0.961 . S
H1680 C1666 0.961 . S
H1681 C1667 0.958 . S
H1682 C1667 0.961 . S
H1683 C1667 0.960 . S
C1684 C1685 1.391 . S
C1684 C1686 1.394 . S
C1684 H1700 0.931 . S
C1685 C1684 1.391 . S
C1685 C1689 1.376 . S
C1686 C1684 1.394 . S
C1686 C1687 1.369 . S
C1686 C1690 1.531 . S
C1687 C1686 1.369 . S
C1687 C1688 1.410 . S
C1687 C1695 1.503 . S
C1688 C1687 1.410 . S
C1688 C1689 1.392 . S
C1688 C1691 1.511 . S
C1689 C1685 1.376 . S
C1689 C1688 1.392 . S
C1689 H1701 0.929 . S
C1690 C1686 1.531 . S
C1690 H1702 0.960 . S
C1690 H1703 0.962 . S
C1690 H1704 0.960 . S
C1691 C1688 1.511 . S
C1691 H1705 0.961 . S
C1691 H1706 0.961 . S
C1691 H1707 0.961 . S
C1692 C1693 1.370 . S
C1692 C1694 1.363 . S
C1692 H1708 0.931 . S
C1693 C1692 1.370 . S
C1693 C1697 1.408 . S
C1694 C1692 1.363 . S
C1694 C1695 1.370 . S
C1694 C1698 1.524 . S
C1695 C1687 1.503 . S
C1695 C1694 1.370 . S
C1695 C1696 1.403 . S
C1696 C1695 1.403 . S
C1696 C1697 1.404 . S
C1696 C1699 1.539 . S
C1697 C1693 1.408 . S
C1697 C1696 1.404 . S
C1697 H1709 0.930 . S
C1698 C1694 1.524 . S
C1698 H1710 0.956 . S
C1698 H1711 0.961 . S
C1698 H1712 0.961 . S
C1699 C1696 1.539 . S
C1699 H1713 0.958 . S
C1699 H1714 0.961 . S
C1699 H1715 0.960 . S
H1700 C1684 0.931 . S
H1701 C1689 0.929 . S
H1702 C1690 0.960 . S
H1703 C1690 0.962 . S
H1704 C1690 0.960 . S
H1705 C1691 0.961 . S
H1706 C1691 0.961 . S
H1707 C1691 0.961 . S
H1708 C1692 0.931 . S
H1709 C1697 0.930 . S
H1710 C1698 0.956 . S
H1711 C1698 0.961 . S
H1712 C1698 0.961 . S
H1713 C1699 0.958 . S
H1714 C1699 0.961 . S
H1715 C1699 0.960 . S
C1716 C1717 1.391 . S
C1716 C1718 1.394 . S
C1716 H1732 0.931 . S
C1717 C1716 1.391 . S
C1717 C1721 1.376 . S
C1718 C1716 1.394 . S
C1718 C1719 1.369 . S
C1718 C1722 1.531 . S
C1719 C1718 1.369 . S
C1719 C1720 1.410 . S
C1719 C1727 1.503 . S
C1720 C1719 1.410 . S
C1720 C1721 1.392 . S
C1720 C1723 1.511 . S
C1721 C1717 1.376 . S
C1721 C1720 1.392 . S
C1721 H1733 0.929 . S
C1722 C1718 1.531 . S
C1722 H1734 0.960 . S
C1722 H1735 0.962 . S
C1722 H1736 0.960 . S
C1723 C1720 1.511 . S
C1723 H1737 0.961 . S
C1723 H1738 0.961 . S
C1723 H1739 0.961 . S
C1724 C1725 1.370 . S
C1724 C1726 1.363 . S
C1724 H1740 0.931 . S
C1725 C1724 1.370 . S
C1725 C1729 1.408 . S
C1726 C1724 1.363 . S
C1726 C1727 1.370 . S
C1726 C1730 1.524 . S
C1727 C1719 1.503 . S
C1727 C1726 1.370 . S
C1727 C1728 1.403 . S
C1728 C1727 1.403 . S
C1728 C1729 1.404 . S
C1728 C1731 1.539 . S
C1729 C1725 1.408 . S
C1729 C1728 1.404 . S
C1729 H1741 0.930 . S
C1730 C1726 1.524 . S
C1730 H1742 0.956 . S
C1730 H1743 0.961 . S
C1730 H1744 0.961 . S
C1731 C1728 1.539 . S
C1731 H1745 0.958 . S
C1731 H1746 0.961 . S
C1731 H1747 0.960 . S
H1732 C1716 0.931 . S
H1733 C1721 0.929 . S
H1734 C1722 0.960 . S
H1735 C1722 0.962 . S
H1736 C1722 0.960 . S
H1737 C1723 0.961 . S
H1738 C1723 0.961 . S
H1739 C1723 0.961 . S
H1740 C1724 0.931 . S
H1741 C1729 0.930 . S
H1742 C1730 0.956 . S
H1743 C1730 0.961 . S
H1744 C1730 0.961 . S
H1745 C1731 0.958 . S
H1746 C1731 0.961 . S
H1747 C1731 0.960 . S
C1748 C1749 1.391 . S
C1748 C1750 1.394 . S
C1748 H1764 0.931 . S
C1749 C1748 1.391 . S
C1749 C1753 1.376 . S
C1750 C1748 1.394 . S
C1750 C1751 1.369 . S
C1750 C1754 1.531 . S
C1751 C1750 1.369 . S
C1751 C1752 1.410 . S
C1751 C1759 1.503 . S
C1752 C1751 1.410 . S
C1752 C1753 1.392 . S
C1752 C1755 1.511 . S
C1753 C1749 1.376 . S
C1753 C1752 1.392 . S
C1753 H1765 0.929 . S
C1754 C1750 1.531 . S
C1754 H1766 0.960 . S
C1754 H1767 0.962 . S
C1754 H1768 0.960 . S
C1755 C1752 1.511 . S
C1755 H1769 0.961 . S
C1755 H1770 0.961 . S
C1755 H1771 0.961 . S
C1756 C1757 1.370 . S
C1756 C1758 1.363 . S
C1756 H1772 0.931 . S
C1757 C1756 1.370 . S
C1757 C1761 1.408 . S
C1758 C1756 1.363 . S
C1758 C1759 1.370 . S
C1758 C1762 1.524 . S
C1759 C1751 1.503 . S
C1759 C1758 1.370 . S
C1759 C1760 1.403 . S
C1760 C1759 1.403 . S
C1760 C1761 1.404 . S
C1760 C1763 1.539 . S
C1761 C1757 1.408 . S
C1761 C1760 1.404 . S
C1761 H1773 0.930 . S
C1762 C1758 1.524 . S
C1762 H1774 0.956 . S
C1762 H1775 0.961 . S
C1762 H1776 0.961 . S
C1763 C1760 1.539 . S
C1763 H1777 0.958 . S
C1763 H1778 0.961 . S
C1763 H1779 0.960 . S
H1764 C1748 0.931 . S
H1765 C1753 0.929 . S
H1766 C1754 0.960 . S
H1767 C1754 0.962 . S
H1768 C1754 0.960 . S
H1769 C1755 0.961 . S
H1770 C1755 0.961 . S
H1771 C1755 0.961 . S
H1772 C1756 0.931 . S
H1773 C1761 0.930 . S
H1774 C1762 0.956 . S
H1775 C1762 0.961 . S
H1776 C1762 0.961 . S
H1777 C1763 0.958 . S
H1778 C1763 0.961 . S
H1779 C1763 0.960 . S
C1780 C1781 1.391 . S
C1780 C1782 1.394 . S
C1780 H1796 0.931 . S
C1781 C1780 1.391 . S
C1781 C1785 1.376 . S
C1782 C1780 1.394 . S
C1782 C1783 1.369 . S
C1782 C1786 1.531 . S
C1783 C1782 1.369 . S
C1783 C1784 1.410 . S
C1783 C1791 1.503 . S
C1784 C1783 1.410 . S
C1784 C1785 1.392 . S
C1784 C1787 1.511 . S
C1785 C1781 1.376 . S
C1785 C1784 1.392 . S
C1785 H1797 0.929 . S
C1786 C1782 1.531 . S
C1786 H1798 0.960 . S
C1786 H1799 0.962 . S
C1786 H1800 0.960 . S
C1787 C1784 1.511 . S
C1787 H1801 0.961 . S
C1787 H1802 0.961 . S
C1787 H1803 0.961 . S
C1788 C1789 1.370 . S
C1788 C1790 1.363 . S
C1788 H1804 0.931 . S
C1789 C1788 1.370 . S
C1789 C1793 1.408 . S
C1790 C1788 1.363 . S
C1790 C1791 1.370 . S
C1790 C1794 1.524 . S
C1791 C1783 1.503 . S
C1791 C1790 1.370 . S
C1791 C1792 1.403 . S
C1792 C1791 1.403 . S
C1792 C1793 1.404 . S
C1792 C1795 1.539 . S
C1793 C1789 1.408 . S
C1793 C1792 1.404 . S
C1793 H1805 0.930 . S
C1794 C1790 1.524 . S
C1794 H1806 0.956 . S
C1794 H1807 0.961 . S
C1794 H1808 0.961 . S
C1795 C1792 1.539 . S
C1795 H1809 0.958 . S
C1795 H1810 0.961 . S
C1795 H1811 0.960 . S
H1796 C1780 0.931 . S
H1797 C1785 0.929 . S
H1798 C1786 0.960 . S
H1799 C1786 0.962 . S
H1800 C1786 0.960 . S
H1801 C1787 0.961 . S
H1802 C1787 0.961 . S
H1803 C1787 0.961 . S
H1804 C1788 0.931 . S
H1805 C1793 0.930 . S
H1806 C1794 0.956 . S
H1807 C1794 0.961 . S
H1808 C1794 0.961 . S
H1809 C1795 0.958 . S
H1810 C1795 0.961 . S
H1811 C1795 0.960 . S
C1812 C1813 1.391 . S
C1812 C1814 1.394 . S
C1812 H1828 0.931 . S
C1813 C1812 1.391 . S
C1813 C1817 1.376 . S
C1814 C1812 1.394 . S
C1814 C1815 1.369 . S
C1814 C1818 1.531 . S
C1815 C1814 1.369 . S
C1815 C1816 1.410 . S
C1815 C1823 1.503 . S
C1816 C1815 1.410 . S
C1816 C1817 1.392 . S
C1816 C1819 1.511 . S
C1817 C1813 1.376 . S
C1817 C1816 1.392 . S
C1817 H1829 0.929 . S
C1818 C1814 1.531 . S
C1818 H1830 0.960 . S
C1818 H1831 0.962 . S
C1818 H1832 0.960 . S
C1819 C1816 1.511 . S
C1819 H1833 0.961 . S
C1819 H1834 0.961 . S
C1819 H1835 0.961 . S
C1820 C1821 1.370 . S
C1820 C1822 1.363 . S
C1820 H1836 0.931 . S
C1821 C1820 1.370 . S
C1821 C1825 1.408 . S
C1822 C1820 1.363 . S
C1822 C1823 1.370 . S
C1822 C1826 1.524 . S
C1823 C1815 1.503 . S
C1823 C1822 1.370 . S
C1823 C1824 1.403 . S
C1824 C1823 1.403 . S
C1824 C1825 1.404 . S
C1824 C1827 1.539 . S
C1825 C1821 1.408 . S
C1825 C1824 1.404 . S
C1825 H1837 0.930 . S
C1826 C1822 1.524 . S
C1826 H1838 0.956 . S
C1826 H1839 0.961 . S
C1826 H1840 0.961 . S
C1827 C1824 1.539 . S
C1827 H1841 0.958 . S
C1827 H1842 0.961 . S
C1827 H1843 0.960 . S
H1828 C1812 0.931 . S
H1829 C1817 0.929 . S
H1830 C1818 0.960 . S
H1831 C1818 0.962 . S
H1832 C1818 0.960 . S
H1833 C1819 0.961 . S
H1834 C1819 0.961 . S
H1835 C1819 0.961 . S
H1836 C1820 0.931 . S
H1837 C1825 0.930 . S
H1838 C1826 0.956 . S
H1839 C1826 0.961 . S
H1840 C1826 0.961 . S
H1841 C1827 0.958 . S
H1842 C1827 0.961 . S
H1843 C1827 0.960 . S
C1844 C1845 1.391 . S
C1844 C1846 1.394 . S
C1844 H1860 0.931 . S
C1845 C1844 1.391 . S
C1845 C1849 1.376 . S
C1846 C1844 1.394 . S
C1846 C1847 1.369 . S
C1846 C1850 1.531 . S
C1847 C1846 1.369 . S
C1847 C1848 1.410 . S
C1847 C1855 1.503 . S
C1848 C1847 1.410 . S
C1848 C1849 1.392 . S
C1848 C1851 1.511 . S
C1849 C1845 1.376 . S
C1849 C1848 1.392 . S
C1849 H1861 0.929 . S
C1850 C1846 1.531 . S
C1850 H1862 0.960 . S
C1850 H1863 0.962 . S
C1850 H1864 0.960 . S
C1851 C1848 1.511 . S
C1851 H1865 0.961 . S
C1851 H1866 0.961 . S
C1851 H1867 0.961 . S
C1852 C1853 1.370 . S
C1852 C1854 1.363 . S
C1852 H1868 0.931 . S
C1853 C1852 1.370 . S
C1853 C1857 1.408 . S
C1854 C1852 1.363 . S
C1854 C1855 1.370 . S
C1854 C1858 1.524 . S
C1855 C1847 1.503 . S
C1855 C1854 1.370 . S
C1855 C1856 1.403 . S
C1856 C1855 1.403 . S
C1856 C1857 1.404 . S
C1856 C1859 1.539 . S
C1857 C1853 1.408 . S
C1857 C1856 1.404 . S
C1857 H1869 0.930 . S
C1858 C1854 1.524 . S
C1858 H1870 0.956 . S
C1858 H1871 0.961 . S
C1858 H1872 0.961 . S
C1859 C1856 1.539 . S
C1859 H1873 0.958 . S
C1859 H1874 0.961 . S
C1859 H1875 0.960 . S
H1860 C1844 0.931 . S
H1861 C1849 0.929 . S
H1862 C1850 0.960 . S
H1863 C1850 0.962 . S
H1864 C1850 0.960 . S
H1865 C1851 0.961 . S
H1866 C1851 0.961 . S
H1867 C1851 0.961 . S
H1868 C1852 0.931 . S
H1869 C1857 0.930 . S
H1870 C1858 0.956 . S
H1871 C1858 0.961 . S
H1872 C1858 0.961 . S
H1873 C1859 0.958 . S
H1874 C1859 0.961 . S
H1875 C1859 0.960 . S
C1876 C1877 1.391 . S
C1876 C1878 1.394 . S
C1876 H1892 0.931 . S
C1877 C1876 1.391 . S
C1877 C1881 1.376 . S
C1878 C1876 1.394 . S
C1878 C1879 1.369 . S
C1878 C1882 1.531 . S
C1879 C1878 1.369 . S
C1879 C1880 1.410 . S
C1879 C1887 1.503 . S
C1880 C1879 1.410 . S
C1880 C1881 1.392 . S
C1880 C1883 1.511 . S
C1881 C1877 1.376 . S
C1881 C1880 1.392 . S
C1881 H1893 0.929 . S
C1882 C1878 1.531 . S
C1882 H1894 0.960 . S
C1882 H1895 0.962 . S
C1882 H1896 0.960 . S
C1883 C1880 1.511 . S
C1883 H1897 0.961 . S
C1883 H1898 0.961 . S
C1883 H1899 0.961 . S
C1884 C1885 1.370 . S
C1884 C1886 1.363 . S
C1884 H1900 0.931 . S
C1885 C1884 1.370 . S
C1885 C1889 1.408 . S
C1886 C1884 1.363 . S
C1886 C1887 1.370 . S
C1886 C1890 1.524 . S
C1887 C1879 1.503 . S
C1887 C1886 1.370 . S
C1887 C1888 1.403 . S
C1888 C1887 1.403 . S
C1888 C1889 1.404 . S
C1888 C1891 1.539 . S
C1889 C1885 1.408 . S
C1889 C1888 1.404 . S
C1889 H1901 0.930 . S
C1890 C1886 1.524 . S
C1890 H1902 0.956 . S
C1890 H1903 0.961 . S
C1890 H1904 0.961 . S
C1891 C1888 1.539 . S
C1891 H1905 0.958 . S
C1891 H1906 0.961 . S
C1891 H1907 0.960 . S
H1892 C1876 0.931 . S
H1893 C1881 0.929 . S
H1894 C1882 0.960 . S
H1895 C1882 0.962 . S
H1896 C1882 0.960 . S
H1897 C1883 0.961 . S
H1898 C1883 0.961 . S
H1899 C1883 0.961 . S
H1900 C1884 0.931 . S
H1901 C1889 0.930 . S
H1902 C1890 0.956 . S
H1903 C1890 0.961 . S
H1904 C1890 0.961 . S
H1905 C1891 0.958 . S
H1906 C1891 0.961 . S
H1907 C1891 0.960 . S
C1908 C1909 1.391 . S
C1908 C1910 1.394 . S
C1908 H1924 0.931 . S
C1909 C1908 1.391 . S
C1909 C1913 1.376 . S
C1910 C1908 1.394 . S
C1910 C1911 1.369 . S
C1910 C1914 1.531 . S
C1911 C1910 1.369 . S
C1911 C1912 1.410 . S
C1911 C1919 1.503 . S
C1912 C1911 1.410 . S
C1912 C1913 1.392 . S
C1912 C1915 1.511 . S
C1913 C1909 1.376 . S
C1913 C1912 1.392 . S
C1913 H1925 0.929 . S
C1914 C1910 1.531 . S
C1914 H1926 0.960 . S
C1914 H1927 0.962 . S
C1914 H1928 0.960 . S
C1915 C1912 1.511 . S
C1915 H1929 0.961 . S
C1915 H1930 0.961 . S
C1915 H1931 0.961 . S
C1916 C1917 1.370 . S
C1916 C1918 1.363 . S
C1916 H1932 0.931 . S
C1917 C1916 1.370 . S
C1917 C1921 1.408 . S
C1918 C1916 1.363 . S
C1918 C1919 1.370 . S
C1918 C1922 1.524 . S
C1919 C1911 1.503 . S
C1919 C1918 1.370 . S
C1919 C1920 1.403 . S
C1920 C1919 1.403 . S
C1920 C1921 1.404 . S
C1920 C1923 1.539 . S
C1921 C1917 1.408 . S
C1921 C1920 1.404 . S
C1921 H1933 0.930 . S
C1922 C1918 1.524 . S
C1922 H1934 0.956 . S
C1922 H1935 0.961 . S
C1922 H1936 0.961 . S
C1923 C1920 1.539 . S
C1923 H1937 0.958 . S
C1923 H1938 0.961 . S
C1923 H1939 0.960 . S
H1924 C1908 0.931 . S
H1925 C1913 0.929 . S
H1926 C1914 0.960 . S
H1927 C1914 0.962 . S
H1928 C1914 0.960 . S
H1929 C1915 0.961 . S
H1930 C1915 0.961 . S
H1931 C1915 0.961 . S
H1932 C1916 0.931 . S
H1933 C1921 0.930 . S
H1934 C1922 0.956 . S
H1935 C1922 0.961 . S
H1936 C1922 0.961 . S
H1937 C1923 0.958 . S
H1938 C1923 0.961 . S
H1939 C1923 0.960 . S
C1940 C1941 1.391 . S
C1940 C1942 1.394 . S
C1940 H1956 0.931 . S
C1941 C1940 1.391 . S
C1941 C1945 1.376 . S
C1942 C1940 1.394 . S
C1942 C1943 1.369 . S
C1942 C1946 1.531 . S
C1943 C1942 1.369 . S
C1943 C1944 1.410 . S
C1943 C1951 1.503 . S
C1944 C1943 1.410 . S
C1944 C1945 1.392 . S
C1944 C1947 1.511 . S
C1945 C1941 1.376 . S
C1945 C1944 1.392 . S
C1945 H1957 0.929 . S
C1946 C1942 1.531 . S
C1946 H1958 0.960 . S
C1946 H1959 0.962 . S
C1946 H1960 0.960 . S
C1947 C1944 1.511 . S
C1947 H1961 0.961 . S
C1947 H1962 0.961 . S
C1947 H1963 0.961 . S
C1948 C1949 1.370 . S
C1948 C1950 1.363 . S
C1948 H1964 0.931 . S
C1949 C1948 1.370 . S
C1949 C1953 1.408 . S
C1950 C1948 1.363 . S
C1950 C1951 1.370 . S
C1950 C1954 1.524 . S
C1951 C1943 1.503 . S
C1951 C1950 1.370 . S
C1951 C1952 1.403 . S
C1952 C1951 1.403 . S
C1952 C1953 1.404 . S
C1952 C1955 1.539 . S
C1953 C1949 1.408 . S
C1953 C1952 1.404 . S
C1953 H1965 0.930 . S
C1954 C1950 1.524 . S
C1954 H1966 0.956 . S
C1954 H1967 0.961 . S
C1954 H1968 0.961 . S
C1955 C1952 1.539 . S
C1955 H1969 0.958 . S
C1955 H1970 0.961 . S
C1955 H1971 0.960 . S
H1956 C1940 0.931 . S
H1957 C1945 0.929 . S
H1958 C1946 0.960 . S
H1959 C1946 0.962 . S
H1960 C1946 0.960 . S
H1961 C1947 0.961 . S
H1962 C1947 0.961 . S
H1963 C1947 0.961 . S
H1964 C1948 0.931 . S
H1965 C1953 0.930 . S
H1966 C1954 0.956 . S
H1967 C1954 0.961 . S
H1968 C1954 0.961 . S
H1969 C1955 0.958 . S
H1970 C1955 0.961 . S
H1971 C1955 0.960 . S
C1972 C1973 1.391 . S
C1972 C1974 1.394 . S
C1972 H1988 0.931 . S
C1973 C1972 1.391 . S
C1973 C1977 1.376 . S
C1974 C1972 1.394 . S
C1974 C1975 1.369 . S
C1974 C1978 1.531 . S
C1975 C1974 1.369 . S
C1975 C1976 1.410 . S
C1975 C1983 1.503 . S
C1976 C1975 1.410 . S
C1976 C1977 1.392 . S
C1976 C1979 1.511 . S
C1977 C1973 1.376 . S
C1977 C1976 1.392 . S
C1977 H1989 0.929 . S
C1978 C1974 1.531 . S
C1978 H1990 0.960 . S
C1978 H1991 0.962 . S
C1978 H1992 0.960 . S
C1979 C1976 1.511 . S
C1979 H1993 0.961 . S
C1979 H1994 0.961 . S
C1979 H1995 0.961 . S
C1980 C1981 1.370 . S
C1980 C1982 1.363 . S
C1980 H1996 0.931 . S
C1981 C1980 1.370 . S
C1981 C1985 1.408 . S
C1982 C1980 1.363 . S
C1982 C1983 1.370 . S
C1982 C1986 1.524 . S
C1983 C1975 1.503 . S
C1983 C1982 1.370 . S
C1983 C1984 1.403 . S
C1984 C1983 1.403 . S
C1984 C1985 1.404 . S
C1984 C1987 1.539 . S
C1985 C1981 1.408 . S
C1985 C1984 1.404 . S
C1985 H1997 0.930 . S
C1986 C1982 1.524 . S
C1986 H1998 0.956 . S
C1986 H1999 0.961 . S
C1986 H2000 0.961 . S
C1987 C1984 1.539 . S
C1987 H2001 0.958 . S
C1987 H2002 0.961 . S
C1987 H2003 0.960 . S
H1988 C1972 0.931 . S
H1989 C1977 0.929 . S
H1990 C1978 0.960 . S
H1991 C1978 0.962 . S
H1992 C1978 0.960 . S
H1993 C1979 0.961 . S
H1994 C1979 0.961 . S
H1995 C1979 0.961 . S
H1996 C1980 0.931 . S
H1997 C1985 0.930 . S
H1998 C1986 0.956 . S
H1999 C1986 0.961 . S
H2000 C1986 0.961 . S
H2001 C1987 0.958 . S
H2002 C1987 0.961 . S
H2003 C1987 0.960 . S
C2004 C2005 1.391 . S
C2004 C2006 1.394 . S
C2004 H2020 0.931 . S
C2005 C2004 1.391 . S
C2005 C2009 1.376 . S
C2006 C2004 1.394 . S
C2006 C2007 1.369 . S
C2006 C2010 1.531 . S
C2007 C2006 1.369 . S
C2007 C2008 1.410 . S
C2007 C2015 1.503 . S
C2008 C2007 1.410 . S
C2008 C2009 1.392 . S
C2008 C2011 1.511 . S
C2009 C2005 1.376 . S
C2009 C2008 1.392 . S
C2009 H2021 0.929 . S
C2010 C2006 1.531 . S
C2010 H2022 0.960 . S
C2010 H2023 0.962 . S
C2010 H2024 0.960 . S
C2011 C2008 1.511 . S
C2011 H2025 0.961 . S
C2011 H2026 0.961 . S
C2011 H2027 0.961 . S
C2012 C2013 1.370 . S
C2012 C2014 1.363 . S
C2012 H2028 0.931 . S
C2013 C2012 1.370 . S
C2013 C2017 1.408 . S
C2014 C2012 1.363 . S
C2014 C2015 1.370 . S
C2014 C2018 1.524 . S
C2015 C2007 1.503 . S
C2015 C2014 1.370 . S
C2015 C2016 1.403 . S
C2016 C2015 1.403 . S
C2016 C2017 1.404 . S
C2016 C2019 1.539 . S
C2017 C2013 1.408 . S
C2017 C2016 1.404 . S
C2017 H2029 0.930 . S
C2018 C2014 1.524 . S
C2018 H2030 0.956 . S
C2018 H2031 0.961 . S
C2018 H2032 0.961 . S
C2019 C2016 1.539 . S
C2019 H2033 0.958 . S
C2019 H2034 0.961 . S
C2019 H2035 0.960 . S
H2020 C2004 0.931 . S
H2021 C2009 0.929 . S
H2022 C2010 0.960 . S
H2023 C2010 0.962 . S
H2024 C2010 0.960 . S
H2025 C2011 0.961 . S
H2026 C2011 0.961 . S
H2027 C2011 0.961 . S
H2028 C2012 0.931 . S
H2029 C2017 0.930 . S
H2030 C2018 0.956 . S
H2031 C2018 0.961 . S
H2032 C2018 0.961 . S
H2033 C2019 0.958 . S
H2034 C2019 0.961 . S
H2035 C2019 0.960 . S
C2036 C2037 1.391 . S
C2036 C2038 1.394 . S
C2036 H2052 0.931 . S
C2037 C2036 1.391 . S
C2037 C2041 1.376 . S
C2038 C2036 1.394 . S
C2038 C2039 1.369 . S
C2038 C2042 1.531 . S
C2039 C2038 1.369 . S
C2039 C2040 1.410 . S
C2039 C2047 1.503 . S
C2040 C2039 1.410 . S
C2040 C2041 1.392 . S
C2040 C2043 1.511 . S
C2041 C2037 1.376 . S
C2041 C2040 1.392 . S
C2041 H2053 0.929 . S
C2042 C2038 1.531 . S
C2042 H2054 0.960 . S
C2042 H2055 0.962 . S
C2042 H2056 0.960 . S
C2043 C2040 1.511 . S
C2043 H2057 0.961 . S
C2043 H2058 0.961 . S
C2043 H2059 0.961 . S
C2044 C2045 1.370 . S
C2044 C2046 1.363 . S
C2044 H2060 0.931 . S
C2045 C2044 1.370 . S
C2045 C2049 1.408 . S
C2046 C2044 1.363 . S
C2046 C2047 1.370 . S
C2046 C2050 1.524 . S
C2047 C2039 1.503 . S
C2047 C2046 1.370 . S
C2047 C2048 1.403 . S
C2048 C2047 1.403 . S
C2048 C2049 1.404 . S
C2048 C2051 1.539 . S
C2049 C2045 1.408 . S
C2049 C2048 1.404 . S
C2049 H2061 0.930 . S
C2050 C2046 1.524 . S
C2050 H2062 0.956 . S
C2050 H2063 0.961 . S
C2050 H2064 0.961 . S
C2051 C2048 1.539 . S
C2051 H2065 0.958 . S
C2051 H2066 0.961 . S
C2051 H2067 0.960 . S
H2052 C2036 0.931 . S
H2053 C2041 0.929 . S
H2054 C2042 0.960 . S
H2055 C2042 0.962 . S
H2056 C2042 0.960 . S
H2057 C2043 0.961 . S
H2058 C2043 0.961 . S
H2059 C2043 0.961 . S
H2060 C2044 0.931 . S
H2061 C2049 0.930 . S
H2062 C2050 0.956 . S
H2063 C2050 0.961 . S
H2064 C2050 0.961 . S
H2065 C2051 0.958 . S
H2066 C2051 0.961 . S
H2067 C2051 0.960 . S
C2068 C2069 1.391 . S
C2068 C2070 1.394 . S
C2068 H2084 0.931 . S
C2069 C2068 1.391 . S
C2069 C2073 1.376 . S
C2070 C2068 1.394 . S
C2070 C2071 1.369 . S
C2070 C2074 1.531 . S
C2071 C2070 1.369 . S
C2071 C2072 1.410 . S
C2071 C2079 1.503 . S
C2072 C2071 1.410 . S
C2072 C2073 1.392 . S
C2072 C2075 1.511 . S
C2073 C2069 1.376 . S
C2073 C2072 1.392 . S
C2073 H2085 0.929 . S
C2074 C2070 1.531 . S
C2074 H2086 0.960 . S
C2074 H2087 0.962 . S
C2074 H2088 0.960 . S
C2075 C2072 1.511 . S
C2075 H2089 0.961 . S
C2075 H2090 0.961 . S
C2075 H2091 0.961 . S
C2076 C2077 1.370 . S
C2076 C2078 1.363 . S
C2076 H2092 0.931 . S
C2077 C2076 1.370 . S
C2077 C2081 1.408 . S
C2078 C2076 1.363 . S
C2078 C2079 1.370 . S
C2078 C2082 1.524 . S
C2079 C2071 1.503 . S
C2079 C2078 1.370 . S
C2079 C2080 1.403 . S
C2080 C2079 1.403 . S
C2080 C2081 1.404 . S
C2080 C2083 1.539 . S
C2081 C2077 1.408 . S
C2081 C2080 1.404 . S
C2081 H2093 0.930 . S
C2082 C2078 1.524 . S
C2082 H2094 0.956 . S
C2082 H2095 0.961 . S
C2082 H2096 0.961 . S
C2083 C2080 1.539 . S
C2083 H2097 0.958 . S
C2083 H2098 0.961 . S
C2083 H2099 0.960 . S
H2084 C2068 0.931 . S
H2085 C2073 0.929 . S
H2086 C2074 0.960 . S
H2087 C2074 0.962 . S
H2088 C2074 0.960 . S
H2089 C2075 0.961 . S
H2090 C2075 0.961 . S
H2091 C2075 0.961 . S
H2092 C2076 0.931 . S
H2093 C2081 0.930 . S
H2094 C2082 0.956 . S
H2095 C2082 0.961 . S
H2096 C2082 0.961 . S
H2097 C2083 0.958 . S
H2098 C2083 0.961 . S
H2099 C2083 0.960 . S
C2100 C2101 1.391 . S
C2100 C2102 1.394 . S
C2100 H2116 0.931 . S
C2101 C2100 1.391 . S
C2101 C2105 1.376 . S
C2102 C2100 1.394 . S
C2102 C2103 1.369 . S
C2102 C2106 1.531 . S
C2103 C2102 1.369 . S
C2103 C2104 1.410 . S
C2103 C2111 1.503 . S
C2104 C2103 1.410 . S
C2104 C2105 1.392 . S
C2104 C2107 1.511 . S
C2105 C2101 1.376 . S
C2105 C2104 1.392 . S
C2105 H2117 0.929 . S
C2106 C2102 1.531 . S
C2106 H2118 0.960 . S
C2106 H2119 0.962 . S
C2106 H2120 0.960 . S
C2107 C2104 1.511 . S
C2107 H2121 0.961 . S
C2107 H2122 0.961 . S
C2107 H2123 0.961 . S
C2108 C2109 1.370 . S
C2108 C2110 1.363 . S
C2108 H2124 0.931 . S
C2109 C2108 1.370 . S
C2109 C2113 1.408 . S
C2110 C2108 1.363 . S
C2110 C2111 1.370 . S
C2110 C2114 1.524 . S
C2111 C2103 1.503 . S
C2111 C2110 1.370 . S
C2111 C2112 1.403 . S
C2112 C2111 1.403 . S
C2112 C2113 1.404 . S
C2112 C2115 1.539 . S
C2113 C2109 1.408 . S
C2113 C2112 1.404 . S
C2113 H2125 0.930 . S
C2114 C2110 1.524 . S
C2114 H2126 0.956 . S
C2114 H2127 0.961 . S
C2114 H2128 0.961 . S
C2115 C2112 1.539 . S
C2115 H2129 0.958 . S
C2115 H2130 0.961 . S
C2115 H2131 0.960 . S
H2116 C2100 0.931 . S
H2117 C2105 0.929 . S
H2118 C2106 0.960 . S
H2119 C2106 0.962 . S
H2120 C2106 0.960 . S
H2121 C2107 0.961 . S
H2122 C2107 0.961 . S
H2123 C2107 0.961 . S
H2124 C2108 0.931 . S
H2125 C2113 0.930 . S
H2126 C2114 0.956 . S
H2127 C2114 0.961 . S
H2128 C2114 0.961 . S
H2129 C2115 0.958 . S
H2130 C2115 0.961 . S
H2131 C2115 0.960 . S
C605 C293 1.446 . S
C597 N2 1.462 . S
C637 C339 2.057 . S
C629 C7 2.023 1_655 S
C669 C382 1.459 . S
C661 N12 1.405 1_655 S
C693 C16 2.398 . S
C701 C419 2.478 . S
C733 C438 2.131 . S
C725 C30 2.093 . S
C765 C493 1.292 . S
C757 N35 1.289 . S
C789 C39 2.583 1_655 S
C797 C518 2.553 . S
C829 C582 1.268 . S
C821 N25 1.166 1_655 S
C861 C278 1.577 . S
C853 N58 1.573 . S
C885 N81 1.336 . S
C893 C342 1.380 . S
C925 C369 1.413 . S
C917 N104 1.394 . S
C949 N127 1.444 . S
C957 C422 1.423 . S
C989 C460 1.219 . S
C981 N48 1.217 . S
C1021 C478 1.738 . S
C1013 N71 1.708 . S
C1045 N94 1.293 . S
C1053 C540 1.306 . S
C1085 C569 1.596 . S
C1077 N117 1.559 . S
C1109 C85 1.930 . S
C1117 C300 1.952 . S
C1141 C122 1.570 . S
C1149 C453 1.588 . S
C1173 C53 2.008 . S
C1181 C500 2.039 . S
C1213 C533 1.657 . S
C1205 C76 1.684 . S
C1245 C579 2.250 . S
C1237 C99 2.266 . S
C1277 C379 2.103 . S
C1269 C131 2.092 . S
C1309 C409 1.793 . S
C1301 C62 1.772 . S
C1333 C108 1.663 . S
C1341 C329 1.658 . S
C1373 C573 1.555 . S
C1365 N140 1.518 . S
C1397 C145 2.012 . S
C1405 C459 2.045 . S
C1437 C502 1.364 . S
C1429 N150 1.233 . S
C1461 C154 2.433 . S
C1469 C539 2.471 . S
C1501 C318 2.109 . S
C1493 C168 2.117 . S
C1525 N173 1.184 . S
C1533 C373 1.208 . S
C1565 C398 2.542 . S
C1557 C177 2.583 . S
C1597 C302 1.340 . S
C1589 N163 1.219 . S
C1629 C558 2.047 . S
C1621 C200 2.013 . S
C1661 C462 1.636 . S
C1653 N219 1.636 . S
C1685 N242 1.633 . S
C1693 C489 1.678 . S
C1725 C542 1.735 . S
C1717 C269 1.751 . S
C1757 C340 1.530 . S
C1749 C191 1.533 . S
C1781 N209 1.985 . S
C1789 C358 2.012 . S
C1813 N232 1.547 . S
C1821 C420 1.622 . S
C1845 C260 2.030 . S
C1853 C289 2.050 . S
C1877 C223 1.586 . S
C1885 C580 1.635 . S
C1909 N255 1.222 . S
C1917 C333 1.293 . S
C1941 N186 1.598 . S
C1949 C380 1.613 . S
C1981 C413 1.375 . S
C1973 C214 1.412 . S
C2013 C299 1.978 . S
C2005 C237 1.996 . S
C2045 C499 1.624 . S
C2037 N265 1.621 . S
C2077 C529 1.454 . S
C2069 N196 1.361 . S
C2109 C449 1.339 . S
C2101 C246 1.325 . S
