# Generated by pormake.
# Topology gar, (4,6)-cn, num edge types: 1
# Building blocks:
#     Node 0, Type 0, BuildingBlock: CEKHIL_clean_sbu_0, # of connection points: 4
#     Node 1, Type 0, BuildingBlock: CEKHIL_clean_sbu_0, # of connection points: 4
#     Node 2, Type 0, BuildingBlock: CEKHIL_clean_sbu_0, # of connection points: 4
#     Node 3, Type 0, BuildingBlock: CEKHIL_clean_sbu_0, # of connection points: 4
#     Node 4, Type 0, BuildingBlock: CEKHIL_clean_sbu_0, # of connection points: 4
#     Node 5, Type 0, BuildingBlock: CEKHIL_clean_sbu_0, # of connection points: 4
#     Node 6, Type 0, BuildingBlock: CEKHIL_clean_sbu_0, # of connection points: 4
#     Node 7, Type 0, BuildingBlock: CEKHIL_clean_sbu_0, # of connection points: 4
#     Node 8, Type 0, BuildingBlock: CEKHIL_clean_sbu_0, # of connection points: 4
#     Node 9, Type 0, BuildingBlock: CEKHIL_clean_sbu_0, # of connection points: 4
#     Node 10, Type 0, BuildingBlock: CEKHIL_clean_sbu_0, # of connection points: 4
#     Node 11, Type 0, BuildingBlock: CEKHIL_clean_sbu_0, # of connection points: 4
#     Node 12, Type 0, BuildingBlock: CEKHIL_clean_sbu_0, # of connection points: 4
#     Node 13, Type 0, BuildingBlock: CEKHIL_clean_sbu_0, # of connection points: 4
#     Node 14, Type 0, BuildingBlock: CEKHIL_clean_sbu_0, # of connection points: 4
#     Node 15, Type 0, BuildingBlock: CEKHIL_clean_sbu_0, # of connection points: 4
#     Node 16, Type 0, BuildingBlock: CEKHIL_clean_sbu_0, # of connection points: 4
#     Node 17, Type 0, BuildingBlock: CEKHIL_clean_sbu_0, # of connection points: 4
#     Node 18, Type 0, BuildingBlock: CEKHIL_clean_sbu_0, # of connection points: 4
#     Node 19, Type 0, BuildingBlock: CEKHIL_clean_sbu_0, # of connection points: 4
#     Node 20, Type 0, BuildingBlock: CEKHIL_clean_sbu_0, # of connection points: 4
#     Node 21, Type 0, BuildingBlock: CEKHIL_clean_sbu_0, # of connection points: 4
#     Node 22, Type 0, BuildingBlock: CEKHIL_clean_sbu_0, # of connection points: 4
#     Node 23, Type 0, BuildingBlock: CEKHIL_clean_sbu_0, # of connection points: 4
#     Node 24, Type 1, BuildingBlock: PAMTUU_clean_sbu_0, # of connection points: 6
#     Node 25, Type 1, BuildingBlock: PAMTUU_clean_sbu_0, # of connection points: 6
#     Node 26, Type 1, BuildingBlock: PAMTUU_clean_sbu_0, # of connection points: 6
#     Node 27, Type 1, BuildingBlock: PAMTUU_clean_sbu_0, # of connection points: 6
#     Node 28, Type 1, BuildingBlock: PAMTUU_clean_sbu_0, # of connection points: 6
#     Node 29, Type 1, BuildingBlock: PAMTUU_clean_sbu_0, # of connection points: 6
#     Node 30, Type 1, BuildingBlock: PAMTUU_clean_sbu_0, # of connection points: 6
#     Node 31, Type 1, BuildingBlock: PAMTUU_clean_sbu_0, # of connection points: 6
#     Node 32, Type 1, BuildingBlock: PAMTUU_clean_sbu_0, # of connection points: 6
#     Node 33, Type 1, BuildingBlock: PAMTUU_clean_sbu_0, # of connection points: 6
#     Node 34, Type 1, BuildingBlock: PAMTUU_clean_sbu_0, # of connection points: 6
#     Node 35, Type 1, BuildingBlock: PAMTUU_clean_sbu_0, # of connection points: 6
#     Node 36, Type 1, BuildingBlock: PAMTUU_clean_sbu_0, # of connection points: 6
#     Node 37, Type 1, BuildingBlock: PAMTUU_clean_sbu_0, # of connection points: 6
#     Node 38, Type 1, BuildingBlock: PAMTUU_clean_sbu_0, # of connection points: 6
#     Node 39, Type 1, BuildingBlock: PAMTUU_clean_sbu_0, # of connection points: 6
#     Edge 40, Type (0, 1), BuildingBlock: ZUJKAS_clean_linker_0, # of connection points: 2
#     Edge 41, Type (0, 1), BuildingBlock: ZUJKAS_clean_linker_0, # of connection points: 2
#     Edge 42, Type (0, 1), BuildingBlock: ZUJKAS_clean_linker_0, # of connection points: 2
#     Edge 43, Type (0, 1), BuildingBlock: ZUJKAS_clean_linker_0, # of connection points: 2
#     Edge 44, Type (0, 1), BuildingBlock: ZUJKAS_clean_linker_0, # of connection points: 2
#     Edge 45, Type (0, 1), BuildingBlock: ZUJKAS_clean_linker_0, # of connection points: 2
#     Edge 46, Type (0, 1), BuildingBlock: ZUJKAS_clean_linker_0, # of connection points: 2
#     Edge 47, Type (0, 1), BuildingBlock: ZUJKAS_clean_linker_0, # of connection points: 2
#     Edge 48, Type (0, 1), BuildingBlock: ZUJKAS_clean_linker_0, # of connection points: 2
#     Edge 49, Type (0, 1), BuildingBlock: ZUJKAS_clean_linker_0, # of connection points: 2
#     Edge 50, Type (0, 1), BuildingBlock: ZUJKAS_clean_linker_0, # of connection points: 2
#     Edge 51, Type (0, 1), BuildingBlock: ZUJKAS_clean_linker_0, # of connection points: 2
#     Edge 52, Type (0, 1), BuildingBlock: ZUJKAS_clean_linker_0, # of connection points: 2
#     Edge 53, Type (0, 1), BuildingBlock: ZUJKAS_clean_linker_0, # of connection points: 2
#     Edge 54, Type (0, 1), BuildingBlock: ZUJKAS_clean_linker_0, # of connection points: 2
#     Edge 55, Type (0, 1), BuildingBlock: ZUJKAS_clean_linker_0, # of connection points: 2
#     Edge 56, Type (0, 1), BuildingBlock: ZUJKAS_clean_linker_0, # of connection points: 2
#     Edge 57, Type (0, 1), BuildingBlock: ZUJKAS_clean_linker_0, # of connection points: 2
#     Edge 58, Type (0, 1), BuildingBlock: ZUJKAS_clean_linker_0, # of connection points: 2
#     Edge 59, Type (0, 1), BuildingBlock: ZUJKAS_clean_linker_0, # of connection points: 2
#     Edge 60, Type (0, 1), BuildingBlock: ZUJKAS_clean_linker_0, # of connection points: 2
#     Edge 61, Type (0, 1), BuildingBlock: ZUJKAS_clean_linker_0, # of connection points: 2
#     Edge 62, Type (0, 1), BuildingBlock: ZUJKAS_clean_linker_0, # of connection points: 2
#     Edge 63, Type (0, 1), BuildingBlock: ZUJKAS_clean_linker_0, # of connection points: 2
#     Edge 64, Type (0, 1), BuildingBlock: ZUJKAS_clean_linker_0, # of connection points: 2
#     Edge 65, Type (0, 1), BuildingBlock: ZUJKAS_clean_linker_0, # of connection points: 2
#     Edge 66, Type (0, 1), BuildingBlock: ZUJKAS_clean_linker_0, # of connection points: 2
#     Edge 67, Type (0, 1), BuildingBlock: ZUJKAS_clean_linker_0, # of connection points: 2
#     Edge 68, Type (0, 1), BuildingBlock: ZUJKAS_clean_linker_0, # of connection points: 2
#     Edge 69, Type (0, 1), BuildingBlock: ZUJKAS_clean_linker_0, # of connection points: 2
#     Edge 70, Type (0, 1), BuildingBlock: ZUJKAS_clean_linker_0, # of connection points: 2
#     Edge 71, Type (0, 1), BuildingBlock: ZUJKAS_clean_linker_0, # of connection points: 2
#     Edge 72, Type (0, 1), BuildingBlock: ZUJKAS_clean_linker_0, # of connection points: 2
#     Edge 73, Type (0, 1), BuildingBlock: ZUJKAS_clean_linker_0, # of connection points: 2
#     Edge 74, Type (0, 1), BuildingBlock: ZUJKAS_clean_linker_0, # of connection points: 2
#     Edge 75, Type (0, 1), BuildingBlock: ZUJKAS_clean_linker_0, # of connection points: 2
#     Edge 76, Type (0, 1), BuildingBlock: ZUJKAS_clean_linker_0, # of connection points: 2
#     Edge 77, Type (0, 1), BuildingBlock: ZUJKAS_clean_linker_0, # of connection points: 2
#     Edge 78, Type (0, 1), BuildingBlock: ZUJKAS_clean_linker_0, # of connection points: 2
#     Edge 79, Type (0, 1), BuildingBlock: ZUJKAS_clean_linker_0, # of connection points: 2
#     Edge 80, Type (0, 1), BuildingBlock: ZUJKAS_clean_linker_0, # of connection points: 2
#     Edge 81, Type (0, 1), BuildingBlock: ZUJKAS_clean_linker_0, # of connection points: 2
#     Edge 82, Type (0, 1), BuildingBlock: ZUJKAS_clean_linker_0, # of connection points: 2
#     Edge 83, Type (0, 1), BuildingBlock: ZUJKAS_clean_linker_0, # of connection points: 2
#     Edge 84, Type (0, 1), BuildingBlock: ZUJKAS_clean_linker_0, # of connection points: 2
#     Edge 85, Type (0, 1), BuildingBlock: ZUJKAS_clean_linker_0, # of connection points: 2
#     Edge 86, Type (0, 1), BuildingBlock: ZUJKAS_clean_linker_0, # of connection points: 2
#     Edge 87, Type (0, 1), BuildingBlock: ZUJKAS_clean_linker_0, # of connection points: 2
#     Edge 88, Type (0, 1), BuildingBlock: ZUJKAS_clean_linker_0, # of connection points: 2
#     Edge 89, Type (0, 1), BuildingBlock: ZUJKAS_clean_linker_0, # of connection points: 2
#     Edge 90, Type (0, 1), BuildingBlock: ZUJKAS_clean_linker_0, # of connection points: 2
#     Edge 91, Type (0, 1), BuildingBlock: ZUJKAS_clean_linker_0, # of connection points: 2
#     Edge 92, Type (0, 1), BuildingBlock: ZUJKAS_clean_linker_0, # of connection points: 2
#     Edge 93, Type (0, 1), BuildingBlock: ZUJKAS_clean_linker_0, # of connection points: 2
#     Edge 94, Type (0, 1), BuildingBlock: ZUJKAS_clean_linker_0, # of connection points: 2
#     Edge 95, Type (0, 1), BuildingBlock: ZUJKAS_clean_linker_0, # of connection points: 2
#     Edge 96, Type (0, 1), BuildingBlock: ZUJKAS_clean_linker_0, # of connection points: 2
#     Edge 97, Type (0, 1), BuildingBlock: ZUJKAS_clean_linker_0, # of connection points: 2
#     Edge 98, Type (0, 1), BuildingBlock: ZUJKAS_clean_linker_0, # of connection points: 2
#     Edge 99, Type (0, 1), BuildingBlock: ZUJKAS_clean_linker_0, # of connection points: 2
#     Edge 100, Type (0, 1), BuildingBlock: ZUJKAS_clean_linker_0, # of connection points: 2
#     Edge 101, Type (0, 1), BuildingBlock: ZUJKAS_clean_linker_0, # of connection points: 2
#     Edge 102, Type (0, 1), BuildingBlock: ZUJKAS_clean_linker_0, # of connection points: 2
#     Edge 103, Type (0, 1), BuildingBlock: ZUJKAS_clean_linker_0, # of connection points: 2
#     Edge 104, Type (0, 1), BuildingBlock: ZUJKAS_clean_linker_0, # of connection points: 2
#     Edge 105, Type (0, 1), BuildingBlock: ZUJKAS_clean_linker_0, # of connection points: 2
#     Edge 106, Type (0, 1), BuildingBlock: ZUJKAS_clean_linker_0, # of connection points: 2
#     Edge 107, Type (0, 1), BuildingBlock: ZUJKAS_clean_linker_0, # of connection points: 2
#     Edge 108, Type (0, 1), BuildingBlock: ZUJKAS_clean_linker_0, # of connection points: 2
#     Edge 109, Type (0, 1), BuildingBlock: ZUJKAS_clean_linker_0, # of connection points: 2
#     Edge 110, Type (0, 1), BuildingBlock: ZUJKAS_clean_linker_0, # of connection points: 2
#     Edge 111, Type (0, 1), BuildingBlock: ZUJKAS_clean_linker_0, # of connection points: 2
#     Edge 112, Type (0, 1), BuildingBlock: ZUJKAS_clean_linker_0, # of connection points: 2
#     Edge 113, Type (0, 1), BuildingBlock: ZUJKAS_clean_linker_0, # of connection points: 2
#     Edge 114, Type (0, 1), BuildingBlock: ZUJKAS_clean_linker_0, # of connection points: 2
#     Edge 115, Type (0, 1), BuildingBlock: ZUJKAS_clean_linker_0, # of connection points: 2
#     Edge 116, Type (0, 1), BuildingBlock: ZUJKAS_clean_linker_0, # of connection points: 2
#     Edge 117, Type (0, 1), BuildingBlock: ZUJKAS_clean_linker_0, # of connection points: 2
#     Edge 118, Type (0, 1), BuildingBlock: ZUJKAS_clean_linker_0, # of connection points: 2
#     Edge 119, Type (0, 1), BuildingBlock: ZUJKAS_clean_linker_0, # of connection points: 2
#     Edge 120, Type (0, 1), BuildingBlock: ZUJKAS_clean_linker_0, # of connection points: 2
#     Edge 121, Type (0, 1), BuildingBlock: ZUJKAS_clean_linker_0, # of connection points: 2
#     Edge 122, Type (0, 1), BuildingBlock: ZUJKAS_clean_linker_0, # of connection points: 2
#     Edge 123, Type (0, 1), BuildingBlock: ZUJKAS_clean_linker_0, # of connection points: 2
#     Edge 124, Type (0, 1), BuildingBlock: ZUJKAS_clean_linker_0, # of connection points: 2
#     Edge 125, Type (0, 1), BuildingBlock: ZUJKAS_clean_linker_0, # of connection points: 2
#     Edge 126, Type (0, 1), BuildingBlock: ZUJKAS_clean_linker_0, # of connection points: 2
#     Edge 127, Type (0, 1), BuildingBlock: ZUJKAS_clean_linker_0, # of connection points: 2
#     Edge 128, Type (0, 1), BuildingBlock: ZUJKAS_clean_linker_0, # of connection points: 2
#     Edge 129, Type (0, 1), BuildingBlock: ZUJKAS_clean_linker_0, # of connection points: 2
#     Edge 130, Type (0, 1), BuildingBlock: ZUJKAS_clean_linker_0, # of connection points: 2
#     Edge 131, Type (0, 1), BuildingBlock: ZUJKAS_clean_linker_0, # of connection points: 2
#     Edge 132, Type (0, 1), BuildingBlock: ZUJKAS_clean_linker_0, # of connection points: 2
#     Edge 133, Type (0, 1), BuildingBlock: ZUJKAS_clean_linker_0, # of connection points: 2
#     Edge 134, Type (0, 1), BuildingBlock: ZUJKAS_clean_linker_0, # of connection points: 2
#     Edge 135, Type (0, 1), BuildingBlock: ZUJKAS_clean_linker_0, # of connection points: 2
# Relax obj value: 0.150
# Max RMSD: 0.307
# Mean RMSD: 0.153
data_MOF--net-gar--node1-CEKHIL_clean_sbu_0--node2-PAMTUU_clean_sbu_0--edge1-ZUJKAS_clean_linker_0
_symmetry_space_group_name_H-M    P1
_symmetry_Int_Tables_number       1
_symmetry_cell_setting            triclinic
loop_
_symmetry_equiv_pos_as_xyz
'x, y, z'
_cell_length_a     77.176038
_cell_length_b     71.996378
_cell_length_c     74.756111
_cell_angle_alpha  93.360469
_cell_angle_beta   93.363032
_cell_angle_gamma 105.68252
loop_
_atom_site_label
_atom_site_type_symbol
_atom_site_fract_x
_atom_site_fract_y
_atom_site_fract_z
_atom_type_partial_charge
Co0 Co 0.0503 0.27805 0.38651 0.0
O1 O 0.07767 0.28221 0.38966 0.0
O2 O 0.0627 0.27126 0.36457 0.0
C3 C 0.0497 0.30864 0.40124 0.0
O4 O 0.02241 0.27392 0.37504 0.0
Co5 Co 0.02407 0.276 0.41543 0.0
O6 O 1.00591 0.28015 0.39715 0.0
C7 C 0.03927 0.24231 0.41121 0.0
C8 C 0.07869 0.27651 0.37301 0.0
C9 C 1.0073 0.27715 0.3804 0.0
O10 O 0.04593 0.2495 0.39635 0.0
O11 O 0.03102 0.25177 0.42105 0.0
O12 O 0.05431 0.30697 0.38486 0.0
O13 O 0.04685 0.29233 0.40853 0.0
Co14 Co 0.03175 0.78792 0.66144 0.0
O15 O 1.00472 0.7857 0.65822 0.0
O16 O 0.01684 0.78089 0.68319 0.0
C17 C 0.03927 0.81873 0.64744 0.0
O18 O 0.05925 0.78955 0.67284 0.0
Co19 Co 0.05794 0.79129 0.63336 0.0
O20 O 0.07849 0.79306 0.65123 0.0
C21 C 0.03461 0.75166 0.63652 0.0
C22 C 1.00202 0.78225 0.67482 0.0
C23 C 0.07574 0.7911 0.6677 0.0
O24 O 0.02832 0.75849 0.65085 0.0
O25 O 0.04548 0.76313 0.62717 0.0
O26 O 0.03615 0.81723 0.66428 0.0
O27 O 0.03815 0.80192 0.63953 0.0
Co28 Co 0.55006 0.77901 0.88686 0.0
O29 O 0.57746 0.78383 0.89025 0.0
O30 O 0.56284 0.77265 0.86503 0.0
C31 C 0.54885 0.80934 0.90161 0.0
O32 O 0.5223 0.77439 0.87501 0.0
Co33 Co 0.52329 0.77603 0.91501 0.0
O34 O 0.50391 0.7771 0.89657 0.0
C35 C 0.5394 0.74306 0.9114 0.0
C36 C 0.57875 0.77827 0.87362 0.0
C37 C 0.5063 0.7754 0.87991 0.0
O38 O 0.54615 0.75044 0.89664 0.0
O39 O 0.5308 0.75225 0.92108 0.0
O40 O 0.55339 0.80778 0.88519 0.0
O41 O 0.54623 0.79305 0.90892 0.0
Co42 Co 0.53267 0.28862 0.16162 0.0
O43 O 0.50558 0.28613 0.15857 0.0
O44 O 0.51794 0.28131 0.18342 0.0
C45 C 0.53991 0.31955 0.14786 0.0
O46 O 0.5603 0.29044 0.17281 0.0
Co47 Co 0.55866 0.29247 0.1333 0.0
O48 O 0.57942 0.29499 0.15111 0.0
C49 C 0.53554 0.25269 0.13632 0.0
C50 C 0.50302 0.28252 0.17516 0.0
C51 C 0.57683 0.2926 0.16756 0.0
O52 O 0.52936 0.25933 0.1508 0.0
O53 O 0.54628 0.26431 0.12698 0.0
O54 O 0.5369 0.31789 0.1647 0.0
O55 O 0.53882 0.30283 0.13979 0.0
Co56 Co 0.07227 0.79942 0.13394 0.0
O57 O 0.04618 0.79366 0.12964 0.0
O58 O 0.06028 0.78786 0.15429 0.0
C59 C 0.07729 0.83006 0.12432 0.0
O60 O 0.09838 0.80378 0.14488 0.0
Co61 Co 0.09941 0.80907 0.10581 0.0
O62 O 0.11889 0.81528 0.1255 0.0
C63 C 0.07896 0.76806 0.10793 0.0
C64 C 0.04511 0.78773 0.14573 0.0
C65 C 0.11494 0.81025 0.14111 0.0
O66 O 0.07202 0.77296 0.12219 0.0
O67 O 0.08924 0.78057 0.09892 0.0
O68 O 0.07324 0.82644 0.14061 0.0
O69 O 0.078 0.81515 0.11411 0.0
Co70 Co 0.51308 0.76917 0.41899 0.0
O71 O 0.53915 0.77379 0.42106 0.0
O72 O 0.52144 0.76089 0.39672 0.0
C73 C 0.51282 0.79872 0.43157 0.0
O74 O 0.48612 0.76341 0.4105 0.0
Co75 Co 0.49028 0.76848 0.45131 0.0
O76 O 0.47043 0.76924 0.43349 0.0
C77 C 0.50597 0.73595 0.44386 0.0
C78 C 0.53771 0.76682 0.40443 0.0
C79 C 0.47146 0.7655 0.41678 0.0
O80 O 0.51022 0.74246 0.42848 0.0
O81 O 0.49908 0.74511 0.45542 0.0
O82 O 0.51587 0.7964 0.41479 0.0
O83 O 0.51137 0.78359 0.44052 0.0
Co84 Co 0.57412 0.29933 0.63132 0.0
O85 O 0.54806 0.29384 0.62762 0.0
O86 O 0.56265 0.28865 0.65226 0.0
C87 C 0.57898 0.32955 0.62082 0.0
O88 O 0.60035 0.30367 0.64166 0.0
Co89 Co 0.60036 0.30756 0.60246 0.0
O90 O 0.6204 0.31418 0.6216 0.0
C91 C 0.57988 0.26688 0.60608 0.0
C92 C 0.54736 0.28845 0.6439 0.0
C93 C 0.61679 0.30976 0.63744 0.0
O94 O 0.57329 0.27243 0.62029 0.0
O95 O 0.59001 0.2789 0.59654 0.0
O96 O 0.57562 0.32659 0.63739 0.0
O97 O 0.57926 0.31426 0.6109 0.0
Co98 Co 0.01095 0.26932 0.92267 0.0
O99 O 0.03692 0.27341 0.92522 0.0
O100 O 0.01945 0.26079 0.90063 0.0
C101 C 0.01107 0.29904 0.93512 0.0
O102 O 0.98422 0.26413 0.91365 0.0
Co103 Co 0.98759 0.26883 0.95437 0.0
O104 O 0.96828 0.27038 0.93623 0.0
C105 C 1.003 0.23604 0.94742 0.0
C106 C 0.03561 0.26638 0.90862 0.0
C107 C 0.96958 0.26667 0.91957 0.0
O108 O 1.00744 0.24253 0.93208 0.0
O109 O 0.99607 0.24529 0.95886 0.0
O110 O 0.01438 0.2966 0.91843 0.0
O111 O 0.00912 0.28387 0.94412 0.0
Co112 Co 0.4257 0.05713 0.31002 0.0
O113 O 0.4252 0.08343 0.30701 0.0
O114 O 0.40206 0.05726 0.30095 0.0
C115 C 0.44093 0.06269 0.33718 0.0
O116 O 0.42022 0.02817 0.31139 0.0
Co117 Co 0.46066 0.04386 0.31394 0.0
O118 O 0.44464 0.01757 0.31677 0.0
C119 C 0.4494 0.05779 0.28011 0.0
C120 C 0.40843 0.07589 0.30096 0.0
C121 C 0.4276 0.0145 0.31413 0.0
O122 O 0.43328 0.05502 0.28498 0.0
O123 O 0.46268 0.05645 0.29056 0.0
O124 O 0.42359 0.06063 0.33592 0.0
O125 O 0.44837 0.0626 0.32222 0.0
Co126 Co 0.2939 0.18573 0.51656 0.0
O127 O 0.32009 0.19035 0.51923 0.0
O128 O 0.30037 0.1634 0.52504 0.0
C129 C 0.29289 0.19705 0.48827 0.0
O130 O 0.26648 0.17374 0.51486 0.0
Co131 Co 0.27393 0.21647 0.51295 0.0
O132 O 0.25123 0.19524 0.50877 0.0
C133 C 0.28811 0.21099 0.54937 0.0
C134 C 0.31715 0.17275 0.52403 0.0
C135 C 0.25153 0.17805 0.51148 0.0
O136 O 0.29355 0.19678 0.54256 0.0
O137 O 0.28089 0.2213 0.53954 0.0
O138 O 0.29404 0.17969 0.49061 0.0
O139 O 0.29342 0.20764 0.50307 0.0
Co140 Co 0.16909 0.0276 0.82238 0.0
O141 O 0.1671 1.00085 0.81506 0.0
O142 O 0.19047 0.02581 0.81143 0.0
C143 C 0.15899 0.02248 0.84976 0.0
O144 O 0.17703 0.05662 0.82824 0.0
Co145 Co 0.13713 0.04372 0.83199 0.0
O146 O 0.1553 0.06907 0.83793 0.0
C147 C 0.14122 0.03196 0.79423 0.0
C148 C 0.18307 0.00728 0.80931 0.0
C149 C 0.17154 0.07096 0.83421 0.0
O150 O 0.15725 0.03071 0.79847 0.0
O151 O 0.13063 0.03513 0.80588 0.0
O152 O 0.17575 0.02349 0.84722 0.0
O153 O 0.14888 0.02344 0.83569 0.0
Co154 Co 0.27728 0.9141 0.99673 0.0
O155 O 0.2534 0.91402 0.00309 0.0
O156 O 0.27817 0.93824 0.00958 0.0
C157 C 0.26955 0.90192 0.96808 0.0
O158 O 0.30377 0.92033 0.9924 0.0
Co159 Co 0.28833 0.87713 0.98473 0.0
O160 O 0.31157 0.89522 0.97936 0.0
C161 C 0.28467 0.88638 0.02324 0.0
C162 C 0.26088 0.93139 0.01047 0.0
C163 C 0.31538 0.9129 0.98537 0.0
O164 O 0.28211 0.90278 0.01982 0.0
O165 O 0.28595 0.87369 0.01101 0.0
O166 O 0.27171 0.92024 0.97228 0.0
O167 O 0.27066 0.89153 0.98134 0.0
Co168 Co 0.28792 0.37536 0.02702 0.0
O169 O 0.26186 0.3715 0.02598 0.0
O170 O 0.28204 0.39855 0.03619 0.0
C171 C 0.28879 0.36271 0.99813 0.0
O172 O 0.31552 0.38642 0.02904 0.0
Co173 Co 0.30626 0.34295 0.02389 0.0
O174 O 0.32769 0.36358 0.01823 0.0
C175 C 0.29241 0.35077 0.05889 0.0
C176 C 0.26515 0.38945 0.03223 0.0
C177 C 0.329 0.38116 0.0232 0.0
O178 O 0.28802 0.36536 0.05242 0.0
O179 O 0.29903 0.33948 0.04922 0.0
O180 O 0.28789 0.38029 0.00148 0.0
O181 O 0.28768 0.35265 0.01208 0.0
Co182 Co 0.80002 0.14668 0.04255 0.0
O183 O 0.82497 0.14678 0.04251 0.0
O184 O 0.80306 0.12306 0.05137 0.0
C185 C 0.79698 0.15642 0.01485 0.0
O186 O 0.77286 0.14066 0.04344 0.0
Co187 Co 0.7879 0.18428 0.03962 0.0
O188 O 0.76336 0.16607 0.03531 0.0
C189 C 0.80543 0.1773 0.07373 0.0
C190 C 0.81997 0.12964 0.04837 0.0
C191 C 0.76025 0.14844 0.03893 0.0
O192 O 0.80438 0.15988 0.06767 0.0
O193 O 0.8011 0.18971 0.06408 0.0
O194 O 0.79612 0.13842 0.01699 0.0
O195 O 0.80166 0.16814 0.02914 0.0
Co196 Co 0.15886 0.5124 0.24631 0.0
O197 O 0.15709 0.48598 0.25081 0.0
O198 O 0.1799 0.50577 0.23873 0.0
C199 C 0.15055 0.52074 0.2731 0.0
O200 O 0.16631 0.54059 0.24075 0.0
Co201 Co 0.12601 0.52957 0.24624 0.0
O202 O 0.14465 0.55484 0.24716 0.0
C203 C 0.12844 0.50025 0.21803 0.0
C204 C 0.17298 0.489 0.24474 0.0
C205 C 0.1607 0.55574 0.24326 0.0
O206 O 0.14551 0.50376 0.22203 0.0
O207 O 0.11808 0.50746 0.2273 0.0
O208 O 0.16713 0.52035 0.27153 0.0
O209 O 0.13952 0.51475 0.25903 0.0
Co210 Co 0.78754 0.87141 0.52367 0.0
O211 O 0.76139 0.86676 0.52296 0.0
O212 O 0.78115 0.89416 0.53307 0.0
C213 C 0.78845 0.85877 0.49482 0.0
O214 O 0.81503 0.88334 0.52544 0.0
Co215 Co 0.80718 0.84002 0.52044 0.0
O216 O 0.82827 0.86122 0.51508 0.0
C217 C 0.79301 0.84717 0.55541 0.0
C218 C 0.76434 0.8846 0.52943 0.0
C219 C 0.82892 0.87866 0.51991 0.0
O220 O 0.78814 0.86148 0.54898 0.0
O221 O 0.80006 0.83626 0.54578 0.0
O222 O 0.78695 0.87615 0.49807 0.0
O223 O 0.78792 0.8489 0.50886 0.0
Co224 Co 0.91915 0.04016 0.23896 0.0
O225 O 0.92133 0.06744 0.24242 0.0
O226 O 0.89622 0.04475 0.23291 0.0
C227 C 0.93405 0.03785 0.26506 0.0
O228 O 0.91092 0.01083 0.23483 0.0
Co229 Co 0.95179 0.02293 0.23683 0.0
O230 O 0.93404 0.99856 0.24176 0.0
C231 C 0.93948 0.0406 0.20547 0.0
C232 C 0.90417 0.06287 0.23751 0.0
C233 C 0.91724 0.99654 0.23837 0.0
O234 O 0.92597 0.04322 0.2135 0.0
O235 O 0.95151 0.03354 0.21268 0.0
O236 O 0.91716 0.03773 0.26461 0.0
O237 O 0.94168 0.04088 0.25017 0.0
Co238 Co 0.30023 0.64571 0.54128 0.0
O239 O 0.32528 0.64649 0.54094 0.0
O240 O 0.30429 0.62294 0.55123 0.0
C241 C 0.2963 0.65359 0.513 0.0
O242 O 0.27302 0.63937 0.54273 0.0
Co243 Co 0.28757 0.68277 0.53652 0.0
O244 O 0.26341 0.6638 0.53226 0.0
C245 C 0.3055 0.67786 0.57115 0.0
C246 C 0.32102 0.62977 0.54765 0.0
C247 C 0.26032 0.64662 0.53717 0.0
O248 O 0.30486 0.66034 0.56579 0.0
O249 O 0.30073 0.68959 0.56095 0.0
O250 O 0.29587 0.6359 0.51607 0.0
O251 O 0.30113 0.66611 0.52671 0.0
Co252 Co 0.41707 0.53508 0.73821 0.0
O253 O 0.41961 0.56255 0.73947 0.0
O254 O 0.39401 0.53955 0.73272 0.0
C255 C 0.43354 0.53507 0.76398 0.0
O256 O 0.40835 0.50569 0.73668 0.0
Co257 Co 0.44896 0.5166 0.73623 0.0
O258 O 0.43138 0.49331 0.74365 0.0
C259 C 0.43534 0.53176 0.70386 0.0
C260 C 0.40224 0.55786 0.73562 0.0
C261 C 0.41455 0.49156 0.74103 0.0
O262 O 0.42228 0.5353 0.71211 0.0
O263 O 0.44763 0.52527 0.71136 0.0
O264 O 0.4168 0.53543 0.76429 0.0
O265 O 0.44008 0.53628 0.74845 0.0
Co266 Co 0.66572 0.01012 0.74684 0.0
O267 O 0.66305 0.98299 0.74849 0.0
O268 O 0.68752 1.00415 0.74058 0.0
C269 C 0.65459 0.01479 0.77321 0.0
O270 O 0.67413 0.03915 0.74495 0.0
Co271 Co 0.63296 0.02766 0.74627 0.0
O272 O 0.65156 0.05296 0.74878 0.0
C273 C 0.63849 1.00304 0.71546 0.0
C274 C 0.67974 0.98663 0.7445 0.0
C275 C 0.66811 0.05409 0.74694 0.0
O276 O 0.65502 1.0052 0.72119 0.0
O277 O 0.62716 0.00885 0.72455 0.0
O278 O 0.67132 0.0145 0.77281 0.0
O279 O 0.64501 0.01088 0.75806 0.0
Co280 Co 0.79475 0.68407 0.01393 0.0
O281 O 0.82096 0.68875 0.01599 0.0
O282 O 0.80152 0.66199 0.02266 0.0
C283 C 0.79293 0.69473 0.98543 0.0
O284 O 0.76742 0.67211 0.01298 0.0
Co285 Co 0.77468 0.71474 0.01035 0.0
O286 O 0.75201 0.69334 0.00643 0.0
C287 C 0.7902 0.71039 0.04651 0.0
C288 C 0.81822 0.67131 0.02117 0.0
C289 C 0.75242 0.67628 0.00956 0.0
O290 O 0.79491 0.69562 0.03983 0.0
O291 O 0.78311 0.72076 0.03662 0.0
O292 O 0.79422 0.67746 0.98798 0.0
O293 O 0.79386 0.70563 1.00012 0.0
Co294 Co 0.92686 0.55679 0.81095 0.0
O295 O 0.9267 0.58279 0.8065 0.0
O296 O 0.90561 0.55606 0.79611 0.0
C297 C 0.93478 0.56207 0.84038 0.0
O298 O 0.9216 0.52797 0.81291 0.0
Co299 Co 0.96114 0.54568 0.82472 0.0
O300 O 0.94486 0.51915 0.82578 0.0
C301 C 0.95727 0.55641 0.78758 0.0
C302 C 0.91156 0.57481 0.79699 0.0
C303 C 0.92859 0.51515 0.8191 0.0
O304 O 0.94054 0.5553 0.78917 0.0
O305 O 0.96814 0.55503 0.80073 0.0
O306 O 0.91796 0.55931 0.83464 0.0
O307 O 0.94616 0.56314 0.82828 0.0
Co308 Co 0.7781 0.41913 0.49465 0.0
O309 O 0.75478 0.42006 0.50195 0.0
O310 O 0.78001 0.44396 0.50683 0.0
C311 C 0.76886 0.40595 0.46647 0.0
O312 O 0.80427 0.4243 0.48906 0.0
Co313 Co 0.78732 0.38092 0.48321 0.0
O314 O 0.81085 0.39788 0.47725 0.0
C315 C 0.78592 0.3921 0.52178 0.0
C316 C 0.7628 0.43762 0.50855 0.0
C317 C 0.81532 0.41589 0.48219 0.0
O318 O 0.78366 0.40856 0.51802 0.0
O319 O 0.7862 0.37877 0.50976 0.0
O320 O 0.77171 0.42447 0.47013 0.0
O321 O 0.77023 0.39601 0.48001 0.0
Co322 Co 0.66714 0.52109 0.32327 0.0
O323 O 0.66643 0.49532 0.31389 0.0
O324 O 0.68898 0.52169 0.31207 0.0
C325 C 0.65697 0.51289 0.35008 0.0
O326 O 0.67377 0.54957 0.33154 0.0
Co327 Co 0.63364 0.53377 0.334 0.0
O328 O 0.65066 0.55955 0.34145 0.0
C329 C 0.63903 0.52634 0.29576 0.0
C330 C 0.68234 0.50316 0.30857 0.0
C331 C 0.66721 0.56274 0.33835 0.0
O332 O 0.65532 0.52589 0.29992 0.0
O333 O 0.62779 0.52731 0.30748 0.0
O334 O 0.67392 0.51518 0.34746 0.0
O335 O 0.64673 0.51437 0.33628 0.0
Tb336 Tb 0.06387 0.04618 0.03926 0.0
Tb337 Tb 0.02501 0.01926 0.02078 0.0
C338 C 0.02838 0.04422 0.05703 0.0
C339 C 0.11163 0.05846 0.05216 0.0
C340 C 0.14062 0.04167 0.05314 0.0
C341 C 0.13793 0.05298 0.06816 0.0
C342 C 0.12343 0.06124 0.0677 0.0
C343 C 0.11485 0.04785 0.03694 0.0
C344 C 0.12917 0.03957 0.03743 0.0
C345 C 0.09496 0.06468 0.05225 0.0
O346 O 0.0587 0.01833 0.05148 0.0
O347 O 0.03834 0.99814 0.03023 0.0
O348 O 0.04409 0.01971 0.00037 0.0
O349 O 0.07006 0.02676 0.01906 0.0
O350 O 1.00111 0.99729 0.02289 0.0
O351 O 1.00482 0.01353 0.99946 0.0
O352 O 0.02503 0.04938 0.01834 0.0
O353 O 0.05542 0.06267 0.01835 0.0
O354 O 0.04365 0.05593 0.05317 0.0
O355 O 0.0221 0.02698 0.04869 0.0
C356 C 0.05 1.00081 0.04437 0.0
O357 O 0.08812 0.06723 0.03652 0.0
O358 O 0.08259 0.0549 0.06188 0.0
C359 C 0.06125 0.02059 0.00339 0.0
C360 C 0.97718 0.00867 0.01218 0.0
C361 C 0.94752 0.02318 0.01854 0.0
C362 C 0.94523 0.00624 0.00719 0.0
C363 C 0.96005 0.99906 0.00395 0.0
C364 C 0.97932 0.02529 0.0238 0.0
C365 C 0.96467 0.03246 0.02695 0.0
C366 C 0.99319 1.00213 0.00873 0.0
C367 C 0.03879 0.06343 0.01448 0.0
H368 H 0.14659 0.05478 0.08045 0.0
H369 H 0.12109 0.06925 0.07962 0.0
H370 H 0.10601 0.04546 0.02474 0.0
H371 H 0.13112 0.03121 0.02555 0.0
H372 H 0.93212 0.99885 0.00054 0.0
H373 H 0.95818 0.98621 0.99496 0.0
H374 H 0.9924 0.03284 0.03038 0.0
H375 H 0.96679 0.04531 0.03602 0.0
Tb376 Tb 0.28014 0.78557 0.29699 0.0
Tb377 Tb 0.30327 0.78394 0.262 0.0
C378 C 0.26533 0.793 0.25899 0.0
C379 C 0.2572 0.76844 0.33603 0.0
C380 C 0.25176 0.73951 0.36036 0.0
C381 C 0.24592 0.75617 0.36386 0.0
C382 C 0.2487 0.77063 0.35175 0.0
C383 C 0.2623 0.75145 0.33217 0.0
C384 C 0.25961 0.73711 0.34423 0.0
C385 C 0.26185 0.78405 0.32398 0.0
O386 O 0.26932 0.75716 0.28304 0.0
O387 O 0.29369 0.75404 0.26828 0.0
O388 O 0.32157 0.78396 0.28535 0.0
O389 O 0.30108 0.772 0.30569 0.0
O390 O 0.30525 0.77277 0.23586 0.0
O391 O 0.32763 0.79423 0.25009 0.0
O392 O 0.30472 0.81417 0.26834 0.0
O393 O 0.30099 0.81281 0.29838 0.0
O394 O 0.26768 0.79898 0.27617 0.0
O395 O 0.27608 0.78376 0.25175 0.0
C396 C 0.278 0.74648 0.27451 0.0
O397 O 0.27901 0.79288 0.32443 0.0
O398 O 0.25475 0.77955 0.30753 0.0
C399 C 0.31767 0.77627 0.30063 0.0
C400 C 0.32235 0.79695 0.21951 0.0
C401 C 0.3247 0.82046 0.19058 0.0
C402 C 0.33571 0.80782 0.19213 0.0
C403 C 0.33454 0.79614 0.20655 0.0
C404 C 0.31152 0.80967 0.21816 0.0
C405 C 0.31266 0.82132 0.2038 0.0
C406 C 0.32104 0.78487 0.23468 0.0
C407 C 0.30725 0.82248 0.28472 0.0
H408 H 0.23996 0.7584 0.37629 0.0
H409 H 0.24472 0.7837 0.35489 0.0
H410 H 0.26886 0.74951 0.32005 0.0
H411 H 0.26408 0.72433 0.34115 0.0
H412 H 0.3452 0.80697 0.18221 0.0
H413 H 0.34308 0.78646 0.20755 0.0
H414 H 0.30207 0.81047 0.22815 0.0
H415 H 0.30378 0.83063 0.20283 0.0
Tb416 Tb 0.51846 0.02668 0.52787 0.0
Tb417 Tb 0.56248 0.03025 0.52522 0.0
C418 C 0.54184 0.01423 0.55733 0.0
C419 C 0.47447 0.0403 0.53147 0.0
C420 C 0.45101 0.06476 0.53312 0.0
C421 C 0.44669 0.04672 0.54064 0.0
C422 C 0.45823 0.03467 0.53977 0.0
C423 C 0.4792 0.05853 0.52442 0.0
C424 C 0.46761 0.07061 0.52522 0.0
C425 C 0.4855 0.02638 0.52925 0.0
O426 O 0.53224 0.05737 0.53148 0.0
O427 O 0.56088 0.05639 0.54121 0.0
O428 O 0.55486 0.04704 0.5045 0.0
O429 O 0.5255 0.02845 0.50028 0.0
O430 O 0.5879 0.03407 0.539 0.0
O431 O 0.58442 0.02899 0.51008 0.0
O432 O 0.54741 1.00339 0.50982 0.0
O433 O 0.51949 0.99685 0.52163 0.0
O434 O 0.53081 0.02494 0.55449 0.0
O435 O 0.55173 0.01034 0.54483 0.0
C436 C 0.54826 0.06565 0.5397 0.0
O437 O 0.4937 0.02655 0.51452 0.0
O438 O 0.49577 0.02443 0.54307 0.0
C439 C 0.53949 0.04088 0.49472 0.0
C440 C 0.60665 0.01675 0.52512 0.0
C441 C 0.62973 0.99188 0.52675 0.0
C442 C 0.63232 0.0066 0.51475 0.0
C443 C 0.62096 0.01885 0.51398 0.0
C444 C 0.60384 1.00197 0.53704 0.0
C445 C 0.61528 0.98973 0.53788 0.0
C446 C 0.59538 0.03058 0.52441 0.0
C447 C 0.5316 0.99137 0.51235 0.0
H448 H 0.43429 0.04179 0.54719 0.0
H449 H 0.45427 0.02071 0.54534 0.0
H450 H 0.49165 0.06328 0.51791 0.0
H451 H 0.47144 0.08426 0.51914 0.0
H452 H 0.64341 0.00897 0.50616 0.0
H453 H 0.62351 0.03018 0.50476 0.0
H454 H 0.59287 0.99993 0.54578 0.0
H455 H 0.6127 0.97846 0.54715 0.0
Tb456 Tb 0.31642 0.27928 0.77861 0.0
Tb457 Tb 0.26637 0.27437 0.77464 0.0
C458 C 0.29116 0.24511 0.78474 0.0
C459 C 0.36388 0.29121 0.76419 0.0
C460 C 0.39211 0.28653 0.74314 0.0
C461 C 0.38409 0.27232 0.75459 0.0
C462 C 0.37013 0.27461 0.76496 0.0
C463 C 0.37187 0.30538 0.75276 0.0
C464 C 0.38574 0.30305 0.74232 0.0
C465 C 0.34956 0.29443 0.77549 0.0
O466 O 0.30564 0.26605 0.75133 0.0
O467 O 0.27491 0.26681 0.74772 0.0
O468 O 0.27371 0.30529 0.77015 0.0
O469 O 0.29691 0.29485 0.77397 0.0
O470 O 0.24632 0.25292 0.78518 0.0
O471 O 0.23936 0.27131 0.76559 0.0
O472 O 0.27693 0.28617 0.80231 0.0
O473 O 0.30854 0.28906 0.80505 0.0
O474 O 0.30866 0.24922 0.78621 0.0
O475 O 0.28634 0.25946 0.7784 0.0
C476 C 0.28999 0.26367 0.74151 0.0
O477 O 0.3366 0.29998 0.76729 0.0
O478 O 0.34346 0.28177 0.78712 0.0
C479 C 0.29125 0.30989 0.77104 0.0
C480 C 0.21826 0.25983 0.7871 0.0
C481 C 0.18914 0.26254 0.80758 0.0
C482 C 0.20507 0.27794 0.80841 0.0
C483 C 0.2195 0.27658 0.79828 0.0
C484 C 0.20251 0.24445 0.78632 0.0
C485 C 0.18813 0.24576 0.79643 0.0
C486 C 0.23326 0.25781 0.77647 0.0
C487 C 0.29305 0.29049 0.81165 0.0
H488 H 0.38853 0.25934 0.75543 0.0
H489 H 0.3643 0.26339 0.77362 0.0
H490 H 0.36747 0.31841 0.752 0.0
H491 H 0.39174 0.31442 0.73388 0.0
H492 H 0.20631 0.29114 0.81671 0.0
H493 H 0.2316 0.28859 0.79916 0.0
H494 H 0.20137 0.23132 0.77793 0.0
H495 H 0.17629 0.23346 0.79568 0.0
Tb496 Tb 0.03892 0.03969 0.54167 0.0
Tb497 Tb 0.0453 0.01621 0.50595 0.0
C498 C 1.00543 0.01288 0.51704 0.0
C499 C 0.04684 0.05606 0.58866 0.0
C500 C 0.06427 0.0501 0.62101 0.0
C501 C 0.04843 0.05624 0.62114 0.0
C502 C 0.03974 0.05915 0.60502 0.0
C503 C 0.06283 0.05034 0.58854 0.0
C504 C 0.07151 0.04747 0.60456 0.0
C505 C 0.03684 0.05675 0.57157 0.0
O506 O 0.04562 0.01351 0.55215 0.0
O507 O 0.04349 0.9942 0.52621 0.0
O508 O 0.07196 0.02648 0.52006 0.0
O509 O 0.06693 0.05201 0.53621 0.0
O510 O 0.03923 0.99102 0.4885 0.0
O511 O 0.05986 0.01637 0.48305 0.0
O512 O 0.0451 0.04557 0.49703 0.0
O513 O 0.03319 0.05849 0.52057 0.0
O514 O 0.01165 0.02329 0.53219 0.0
O515 O 0.01603 0.01044 0.50451 0.0
C516 C 0.04471 0.99628 0.54403 0.0
O517 O 0.04655 0.065 0.55909 0.0
O518 O 0.0257 0.04035 0.5654 0.0
C519 C 0.07803 0.04351 0.52884 0.0
C520 C 0.041 0.99881 0.45874 0.0
C521 C 0.02351 0.99777 0.42453 0.0
C522 C 0.03742 0.9887 0.42692 0.0
C523 C 0.04609 0.98918 0.44399 0.0
C524 C 0.02724 0.00797 0.45637 0.0
C525 C 0.01856 0.00744 0.43943 0.0
C526 C 0.04981 0.99941 0.4767 0.0
C527 C 0.03892 0.05972 0.50413 0.0
H528 H 0.04247 0.05821 0.63362 0.0
H529 H 0.02726 0.0633 0.60529 0.0
H530 H 0.06841 0.04766 0.57598 0.0
H531 H 0.08383 0.04304 0.60404 0.0
H532 H 0.04146 0.98112 0.41566 0.0
H533 H 0.05671 0.98205 0.44566 0.0
H534 H 0.02325 0.01558 0.46766 0.0
H535 H 1.00816 0.01488 0.43794 0.0
Tb536 Tb 0.30032 0.8024 0.76447 0.0
Tb537 Tb 0.28209 0.76213 0.78118 0.0
C538 C 0.30069 0.76314 0.7445 0.0
C539 C 0.30177 0.84978 0.75077 0.0
C540 C 0.28282 0.87815 0.7502 0.0
C541 C 0.30059 0.88222 0.74486 0.0
C542 C 0.31001 0.86808 0.74514 0.0
C543 C 0.284 0.84564 0.75584 0.0
C544 C 0.27464 0.85964 0.75557 0.0
C545 C 0.31153 0.83499 0.75228 0.0
O546 O 0.27162 0.79403 0.7522 0.0
O547 O 0.25797 0.77167 0.77116 0.0
O548 O 0.28333 0.78357 0.80307 0.0
O549 O 0.28599 0.80983 0.78664 0.0
O550 O 0.26162 0.7359 0.77892 0.0
O551 O 0.28178 0.74265 0.80117 0.0
O552 O 0.31184 0.76585 0.78727 0.0
O553 O 0.32377 0.79746 0.78119 0.0
O554 O 0.30896 0.78155 0.74778 0.0
O555 O 0.28803 0.75406 0.75431 0.0
C556 C 0.25654 0.78317 0.75815 0.0
O557 O 0.31542 0.8315 0.76874 0.0
O558 O 0.30452 0.81903 0.74214 0.0
C559 C 0.28305 0.8015 0.80166 0.0
C560 C 0.27455 0.71112 0.78725 0.0
C561 C 0.29177 0.68258 0.77745 0.0
C562 C 0.29145 0.68852 0.79565 0.0
C563 C 0.28292 0.70271 0.8005 0.0
C564 C 0.27374 0.70408 0.76917 0.0
C565 C 0.28228 0.68999 0.76434 0.0
C566 C 0.26937 0.729 0.79191 0.0
C567 C 0.32597 0.78142 0.78792 0.0
H568 H 0.30722 0.89633 0.74058 0.0
H569 H 0.32374 0.8715 0.74122 0.0
H570 H 0.27746 0.83166 0.76041 0.0
H571 H 0.26116 0.85611 0.76017 0.0
H572 H 0.29869 0.68306 0.80604 0.0
H573 H 0.28376 0.70792 0.81451 0.0
H574 H 0.26733 0.71014 0.75859 0.0
H575 H 0.28204 0.6854 0.75023 0.0
Tb576 Tb 0.53895 0.01807 0.04068 0.0
Tb577 Tb 0.53702 0.03864 0.00412 0.0
C578 C 0.57385 0.03975 0.02331 0.0
C579 C 0.5291 0.00623 0.08561 0.0
C580 C 0.51233 0.01703 0.11517 0.0
C581 C 0.52588 0.00748 0.11762 0.0
C582 C 0.53432 1.00221 0.10287 0.0
C583 C 0.51513 0.01512 0.08311 0.0
C584 C 0.50684 0.02053 0.09778 0.0
C585 C 0.53921 1.00322 0.07033 0.0
O586 O 0.53119 0.04482 0.04943 0.0
O587 O 0.54019 0.06259 0.02556 0.0
O588 O 0.50983 0.0323 0.01231 0.0
O589 O 0.51104 0.00785 0.02998 0.0
O590 O 0.5474 0.06213 0.98893 0.0
O591 O 0.52408 0.03897 0.97871 0.0
O592 O 0.53511 0.00791 0.99481 0.0
O593 O 0.5457 0.99743 0.02056 0.0
O594 O 0.56583 0.03652 0.03818 0.0
O595 O 0.56454 0.03688 0.00777 0.0
C596 C 0.5352 0.06177 0.04225 0.0
O597 O 0.52943 0.99437 0.05599 0.0
O598 O 0.55131 0.01864 0.06657 0.0
C599 C 0.50185 0.01706 0.02038 0.0
C600 C 0.5454 0.05146 0.95869 0.0
C601 C 0.56223 0.045 0.92762 0.0
C602 C 0.5491 0.05529 0.92708 0.0
C603 C 0.54072 0.05851 0.94258 0.0
C604 C 0.55843 0.04119 0.95925 0.0
C605 C 0.56686 0.03809 0.94389 0.0
C606 C 0.53649 0.05417 0.97491 0.0
C607 C 0.54088 0.99455 0.00305 0.0
H608 H 0.53037 1.00476 0.13097 0.0
H609 H 0.54522 0.99555 0.10498 0.0
H610 H 0.51096 0.01836 0.06983 0.0
H611 H 0.4963 0.02767 0.09557 0.0
H612 H 0.54515 0.06061 0.91466 0.0
H613 H 0.53054 0.06633 0.94198 0.0
H614 H 0.5621 0.03554 0.9716 0.0
H615 H 0.57714 0.03043 0.94483 0.0
Tb616 Tb 0.28167 0.25629 0.26607 0.0
Tb617 Tb 0.29993 0.29852 0.28383 0.0
C618 C 0.2851 0.29232 0.24278 0.0
C619 C 0.27593 0.20901 0.24105 0.0
C620 C 0.29331 0.18129 0.22964 0.0
C621 C 0.27456 0.1759 0.23142 0.0
C622 C 0.26599 0.18966 0.23739 0.0
C623 C 0.29389 0.21488 0.23663 0.0
C624 C 0.30258 0.20114 0.23111 0.0
C625 C 0.26906 0.2218 0.25296 0.0
O626 O 0.31126 0.26073 0.26086 0.0
O627 O 0.32305 0.29297 0.26942 0.0
O628 O 0.30792 0.27905 0.30211 0.0
O629 O 0.28263 0.25465 0.29528 0.0
O630 O 0.31392 0.32772 0.28222 0.0
O631 O 0.30645 0.31679 0.30761 0.0
O632 O 0.27155 0.29188 0.29305 0.0
O633 O 0.25712 0.26467 0.275 0.0
O634 O 0.28437 0.27393 0.24312 0.0
O635 O 0.28758 0.30351 0.25784 0.0
C636 C 0.32508 0.27673 0.26152 0.0
O637 O 0.27849 0.22685 0.26838 0.0
O638 O 0.26504 0.23647 0.24607 0.0
C639 C 0.29616 0.26362 0.3068 0.0
C640 C 0.3034 0.34738 0.30228 0.0
C641 C 0.28578 0.37667 0.30539 0.0
C642 C 0.30449 0.38091 0.30982 0.0
C643 C 0.31326 0.36628 0.3083 0.0
C644 C 0.28472 0.34308 0.29831 0.0
C645 C 0.27598 0.35753 0.29991 0.0
C646 C 0.31241 0.33219 0.29906 0.0
C647 C 0.2563 0.2784 0.28744 0.0
H648 H 0.26681 0.16086 0.22972 0.0
H649 H 0.25202 0.18492 0.24055 0.0
H650 H 0.3017 0.22983 0.23916 0.0
H651 H 0.31697 0.20605 0.22987 0.0
H652 H 0.31234 0.39556 0.31406 0.0
H653 H 0.32772 0.3698 0.31137 0.0
H654 H 0.27694 0.32863 0.29338 0.0
H655 H 0.26165 0.35386 0.29596 0.0
Tb656 Tb 0.53981 0.54101 0.04317 0.0
Tb657 Tb 0.54563 0.51757 0.00722 0.0
C658 C 0.50604 0.51434 0.01886 0.0
C659 C 0.54817 0.55905 0.09014 0.0
C660 C 0.56644 0.55681 0.12324 0.0
C661 C 0.55132 0.56423 0.12261 0.0
C662 C 0.54223 0.56532 0.10614 0.0
C663 C 0.5634 0.55193 0.09068 0.0
C664 C 0.57248 0.55086 0.10708 0.0
C665 C 0.53798 0.55864 0.07292 0.0
O666 O 0.54649 0.5147 0.05342 0.0
O667 O 0.54348 0.49537 0.02731 0.0
O668 O 0.57227 0.52713 0.02144 0.0
O669 O 0.56784 0.55291 0.03765 0.0
O670 O 0.53845 0.49299 0.98892 0.0
O671 O 0.56098 0.51719 0.98499 0.0
O672 O 0.54582 0.54704 0.99842 0.0
O673 O 0.53382 0.5597 0.02201 0.0
O674 O 0.51252 0.52426 0.0342 0.0
O675 O 0.51641 0.51243 0.00596 0.0
C676 C 0.54512 0.4974 0.04514 0.0
O677 O 0.54746 0.5666 0.06019 0.0
O678 O 0.5272 0.54185 0.06726 0.0
C679 C 0.57868 0.5441 0.03024 0.0
C680 C 0.54242 0.50206 0.95966 0.0
C681 C 0.52832 0.50562 0.92494 0.0
C682 C 0.54144 0.49551 0.9274 0.0
C683 C 0.54848 0.49378 0.9447 0.0
C684 C 0.52923 0.51197 0.95727 0.0
C685 C 0.5222 0.51368 0.94008 0.0
C686 C 0.55007 0.50105 0.97781 0.0
C687 C 0.53958 0.5611 0.00558 0.0
H688 H 0.54647 0.56908 0.13485 0.0
H689 H 0.53043 0.57075 0.1059 0.0
H690 H 0.56805 0.54683 0.07842 0.0
H691 H 0.58389 0.5448 0.10713 0.0
H692 H 0.54649 0.48928 0.91596 0.0
H693 H 0.55874 0.48617 0.94639 0.0
H694 H 0.52443 0.51848 0.96874 0.0
H695 H 0.51187 0.52124 0.93865 0.0
Tb696 Tb 0.80182 0.30347 0.26413 0.0
Tb697 Tb 0.78295 0.26408 0.28162 0.0
C698 C 0.80076 0.26336 0.24512 0.0
C699 C 0.80995 0.35359 0.25349 0.0
C700 C 0.79314 0.38357 0.25752 0.0
C701 C 0.79663 0.37712 0.24035 0.0
C702 C 0.80494 0.36217 0.23835 0.0
C703 C 0.80753 0.36098 0.27069 0.0
C704 C 0.7992 0.37581 0.27269 0.0
C705 C 0.81508 0.33537 0.25121 0.0
O706 O 0.77214 0.30111 0.25942 0.0
O707 O 0.76019 0.26916 0.264 0.0
O708 O 0.77545 0.28589 0.29821 0.0
O709 O 0.79662 0.31282 0.29085 0.0
O710 O 0.76675 0.23543 0.27737 0.0
O711 O 0.77761 0.24776 0.30407 0.0
O712 O 0.81161 0.27176 0.29398 0.0
O713 O 0.82567 0.29391 0.27498 0.0
O714 O 0.79972 0.28092 0.24303 0.0
O715 O 0.79801 0.25568 0.26046 0.0
C716 C 0.75796 0.28554 0.25812 0.0
O717 O 0.82213 0.3298 0.2655 0.0
O718 O 0.80288 0.32108 0.24251 0.0
C719 C 0.78416 0.30425 0.3011 0.0
C720 C 0.77896 0.21612 0.29545 0.0
C721 C 0.79805 0.18843 0.28945 0.0
C722 C 0.77927 0.18352 0.2854 0.0
C723 C 0.76979 0.19732 0.28833 0.0
C724 C 0.79748 0.2205 0.30077 0.0
C725 C 0.80692 0.20678 0.29782 0.0
C726 C 0.77028 0.23186 0.29389 0.0
C727 C 0.82683 0.28251 0.28816 0.0
H728 H 0.79204 0.38286 0.22845 0.0
H729 H 0.80659 0.35662 0.22496 0.0
H730 H 0.81132 0.35474 0.28263 0.0
H731 H 0.79695 0.38076 0.28609 0.0
H732 H 0.77214 0.16947 0.27888 0.0
H733 H 0.75557 0.19372 0.28395 0.0
H734 H 0.80494 0.23489 0.30621 0.0
H735 H 0.82134 0.21082 0.30133 0.0
Tb736 Tb 0.0397 0.51658 0.54176 0.0
Tb737 Tb 0.03556 0.53674 0.50561 0.0
C738 C 0.07372 0.53898 0.52321 0.0
C739 C 0.03288 0.50297 0.5875 0.0
C740 C 0.01885 0.51077 0.61996 0.0
C741 C 0.03243 0.50109 0.61967 0.0
C742 C 0.03942 0.49724 0.6035 0.0
C743 C 0.01903 0.51217 0.58765 0.0
C744 C 0.01204 0.51602 0.60376 0.0
C745 C 0.0414 0.50088 0.57088 0.0
O746 O 0.03223 0.54339 0.55131 0.0
O747 O 0.03916 0.56091 0.52683 0.0
O748 O 0.00949 0.53105 0.51643 0.0
O749 O 0.01191 0.50492 0.53074 0.0
O750 O 0.04399 0.55981 0.48945 0.0
O751 O 0.02079 0.53579 0.48095 0.0
O752 O 0.03323 0.50573 0.49659 0.0
O753 O 0.04736 0.49711 0.52119 0.0
O754 O 0.06643 0.53469 0.53832 0.0
O755 O 0.06381 0.53712 0.50806 0.0
C756 C 0.03527 0.56022 0.54388 0.0
O757 O 0.03042 0.4928 0.55701 0.0
O758 O 0.05316 0.51647 0.56696 0.0
C759 C 1.00196 0.51473 0.52307 0.0
C760 C 0.04036 0.54832 0.45938 0.0
C761 C 0.05677 0.5433 0.42768 0.0
C762 C 0.04412 0.55418 0.42813 0.0
C763 C 0.03596 0.55669 0.44395 0.0
C764 C 0.05272 0.53723 0.45891 0.0
C765 C 0.06093 0.5348 0.44322 0.0
C766 C 0.03238 0.55113 0.47616 0.0
C767 C 0.04086 0.49333 0.50415 0.0
H768 H 0.03778 0.49674 0.63197 0.0
H769 H 0.05019 0.4902 0.60354 0.0
H770 H 0.01396 0.51685 0.57537 0.0
H771 H 1.00177 0.52374 0.60361 0.0
H772 H 0.04054 0.56071 0.41628 0.0
H773 H 0.02635 0.56521 0.44417 0.0
H774 H 0.05621 0.53064 0.47077 0.0
H775 H 0.07082 0.52662 0.4434 0.0
Tb776 Tb 0.81006 0.76983 0.2761 0.0
Tb777 Tb 0.76928 0.77721 0.27089 0.0
C778 C 0.77523 0.73942 0.28612 0.0
C779 C 0.85624 0.76592 0.26604 0.0
C780 C 0.88571 0.76814 0.24438 0.0
C781 C 0.88211 0.75491 0.25777 0.0
C782 C 0.8676 0.75386 0.26846 0.0
C783 C 0.8595 0.77891 0.2525 0.0
C784 C 0.87408 0.78003 0.24182 0.0
C785 C 0.84142 0.76494 0.27804 0.0
O786 O 0.79804 0.75606 0.24968 0.0
O787 O 0.77685 0.77248 0.24339 0.0
O788 O 0.7891 0.80498 0.26977 0.0
O789 O 0.8126 0.79435 0.26006 0.0
O790 O 0.74175 0.7673 0.26166 0.0
O791 O 0.75263 0.7955 0.27545 0.0
O792 O 0.77577 0.77908 0.29989 0.0
O793 O 0.80678 0.78608 0.30106 0.0
O794 O 0.79243 0.74779 0.2905 0.0
O795 O 0.76552 0.7469 0.27515 0.0
C796 C 0.78721 0.76159 0.2381 0.0
O797 O 0.83791 0.7812 0.28277 0.0
O798 O 0.82666 0.75096 0.27413 0.0
C799 C 0.80458 0.80807 0.26249 0.0
C800 C 0.72245 0.77926 0.28002 0.0
C801 C 0.69267 0.77471 0.30154 0.0
C802 C 0.69173 0.7807 0.28398 0.0
C803 C 0.70644 0.78295 0.27338 0.0
C804 C 0.7235 0.77312 0.29745 0.0
C805 C 0.70878 0.77089 0.30811 0.0
C806 C 0.73803 0.78257 0.26883 0.0
C807 C 0.79171 0.7857 0.30882 0.0
H808 H 0.89047 0.74523 0.25997 0.0
H809 H 0.86531 0.74364 0.27873 0.0
H810 H 0.8509 0.78836 0.25031 0.0
H811 H 0.87644 0.79052 0.2318 0.0
H812 H 0.67973 0.78408 0.27851 0.0
H813 H 0.70538 0.78782 0.26002 0.0
H814 H 0.73574 0.77017 0.30285 0.0
H815 H 0.70998 0.76605 0.32145 0.0
Tb816 Tb 0.78194 0.2881 0.79482 0.0
Tb817 Tb 0.80506 0.28584 0.75956 0.0
C818 C 0.76674 0.29384 0.75638 0.0
C819 C 0.76021 0.27309 0.8351 0.0
C820 C 0.75634 0.24642 0.86153 0.0
C821 C 0.74906 0.26229 0.86345 0.0
C822 C 0.75106 0.27563 0.8503 0.0
C823 C 0.76684 0.25687 0.83287 0.0
C824 C 0.76492 0.24364 0.84595 0.0
C825 C 0.76386 0.2876 0.82188 0.0
O826 O 0.77244 0.25865 0.78277 0.0
O827 O 0.79589 0.25603 0.76598 0.0
O828 O 0.82346 0.28566 0.78285 0.0
O829 O 0.80333 0.27556 0.80414 0.0
O830 O 0.80698 0.27472 0.73338 0.0
O831 O 0.82918 0.29661 0.74735 0.0
O832 O 0.80605 0.31596 0.76552 0.0
O833 O 0.80264 0.31536 0.79564 0.0
O834 O 0.76905 0.30033 0.77342 0.0
O835 O 0.77758 0.28455 0.74945 0.0
C836 C 0.78108 0.24831 0.77368 0.0
O837 O 0.78077 0.29724 0.8218 0.0
O838 O 0.75668 0.28147 0.80566 0.0
C839 C 0.81971 0.27902 0.79862 0.0
C840 C 0.82299 0.29951 0.71693 0.0
C841 C 0.82383 0.32347 0.68844 0.0
C842 C 0.83526 0.3112 0.68931 0.0
C843 C 0.83484 0.2993 0.7035 0.0
C844 C 0.81168 0.31181 0.7162 0.0
C845 C 0.81209 0.32367 0.70208 0.0
C846 C 0.82247 0.28728 0.73196 0.0
C847 C 0.80871 0.32463 0.78174 0.0
H848 H 0.74249 0.26479 0.87542 0.0
H849 H 0.74589 0.28813 0.85219 0.0
H850 H 0.77392 0.25469 0.82118 0.0
H851 H 0.77047 0.23142 0.84404 0.0
H852 H 0.84454 0.31085 0.67906 0.0
H853 H 0.84373 0.28996 0.70399 0.0
H854 H 0.80245 0.31213 0.72652 0.0
H855 H 0.8029 0.33269 0.70164 0.0
Tb856 Tb 0.78066 0.76 0.76469 0.0
Tb857 Tb 0.79968 0.80232 0.782 0.0
C858 C 0.78466 0.79478 0.74145 0.0
C859 C 0.77361 0.70928 0.74687 0.0
C860 C 0.79126 0.68003 0.74269 0.0
C861 C 0.78838 0.69049 0.72806 0.0
C862 C 0.77953 0.70492 0.73011 0.0
C863 C 0.77548 0.69796 0.76116 0.0
C864 C 0.78425 0.68351 0.75909 0.0
C865 C 0.76685 0.72644 0.74969 0.0
O866 O 0.80923 0.76527 0.75598 0.0
O867 O 0.82379 0.7936 0.77252 0.0
O868 O 0.79663 0.78486 0.80509 0.0
O869 O 0.79257 0.75488 0.79083 0.0
O870 O 0.80316 0.83173 0.7795 0.0
O871 O 0.81707 0.82212 0.80154 0.0
O872 O 0.7704 0.79843 0.78811 0.0
O873 O 0.75774 0.7665 0.77872 0.0
O874 O 0.77287 0.77951 0.74634 0.0
O875 O 0.79836 0.80369 0.75277 0.0
C876 C 0.82448 0.77916 0.76081 0.0
O877 O 0.76462 0.7316 0.7662 0.0
O878 O 0.77462 0.74133 0.74115 0.0
C879 C 0.79529 0.76635 0.80573 0.0
C880 C 0.80739 0.85045 0.80652 0.0
C881 C 0.7921 0.88017 0.81711 0.0
C882 C 0.81081 0.88421 0.81538 0.0
C883 C 0.81835 0.86944 0.80984 0.0
C884 C 0.78943 0.84593 0.811 0.0
C885 C 0.78178 0.86068 0.81615 0.0
C886 C 0.81322 0.83685 0.79456 0.0
C887 C 0.75622 0.78274 0.78706 0.0
H888 H 0.79348 0.68792 0.71522 0.0
H889 H 0.77799 0.71323 0.71879 0.0
H890 H 0.77091 0.70079 0.77421 0.0
H891 H 0.78643 0.67583 0.77068 0.0
H892 H 0.81931 0.89897 0.81667 0.0
H893 H 0.83232 0.87314 0.8066 0.0
H894 H 0.78082 0.83128 0.80865 0.0
H895 H 0.76737 0.85682 0.8174 0.0
Tb896 Tb 0.56296 0.54605 0.54139 0.0
Tb897 Tb 0.52536 0.51999 0.51924 0.0
C898 C 0.52526 0.54529 0.55442 0.0
C899 C 0.60948 0.55677 0.55787 0.0
C900 C 0.63996 0.54232 0.55842 0.0
C901 C 0.64042 0.55947 0.56877 0.0
C902 C 0.6252 0.56663 0.56854 0.0
C903 C 0.60917 0.53989 0.54739 0.0
C904 C 0.62421 0.53277 0.5476 0.0
C905 C 0.59302 0.56328 0.55772 0.0
O906 O 0.56301 0.51605 0.54362 0.0
O907 O 0.53269 0.50142 0.53899 0.0
O908 O 0.54594 0.51102 0.50535 0.0
O909 O 0.57 0.53721 0.51514 0.0
O910 O 0.50002 0.50065 0.52166 0.0
O911 O 0.50748 0.51131 0.49603 0.0
O912 O 0.53326 0.54729 0.50638 0.0
O913 O 0.55108 0.56725 0.52943 0.0
O914 O 0.54157 0.54441 0.55944 0.0
O915 O 0.5185 0.54049 0.53784 0.0
C916 C 0.54905 0.50112 0.5448 0.0
O917 O 0.58755 0.56775 0.54212 0.0
O918 O 0.57977 0.55206 0.56536 0.0
C919 C 0.56262 0.52154 0.50446 0.0
C920 C 0.47827 0.51026 0.50466 0.0
C921 C 0.44896 0.52557 0.51084 0.0
C922 C 0.44658 0.50544 0.50966 0.0
C923 C 0.46115 0.49785 0.50661 0.0
C924 C 0.48051 0.53031 0.5052 0.0
C925 C 0.466 0.53788 0.50819 0.0
C926 C 0.49424 0.50282 0.50541 0.0
C927 C 0.54129 0.56475 0.51397 0.0
H928 H 0.65238 0.56711 0.57726 0.0
H929 H 0.62564 0.57967 0.57676 0.0
H930 H 0.59718 0.53209 0.53905 0.0
H931 H 0.62352 0.5198 0.53916 0.0
H932 H 0.43357 0.49559 0.51151 0.0
H933 H 0.45922 0.48237 0.50655 0.0
H934 H 0.4937 0.54023 0.5042 0.0
H935 H 0.46836 0.55345 0.5093 0.0
Tb936 Tb 0.02054 0.52773 0.03439 0.0
Tb937 Tb 0.06337 0.53294 0.02351 0.0
C938 C 0.04823 0.5141 0.05864 0.0
C939 C 0.97684 0.54075 0.03968 0.0
C940 C 0.95288 0.56458 0.03681 0.0
C941 C 0.95054 0.55024 0.0492 0.0
C942 C 0.96234 0.5385 0.05058 0.0
C943 C 0.9795 0.55525 0.02749 0.0
C944 C 0.96767 0.56702 0.02608 0.0
C945 C 0.98849 0.52737 0.04077 0.0
O946 O 0.03792 0.55428 0.04838 0.0
O947 O 0.0606 0.56226 0.02925 0.0
O948 O 0.04664 0.53236 0.99891 0.0
O949 O 0.02629 0.54541 0.01208 0.0
O950 O 0.09128 0.5428 0.03118 0.0
O951 O 0.08166 0.528 0.00521 0.0
O952 O 0.05057 0.50197 0.02153 0.0
O953 O 0.02037 0.50111 0.01818 0.0
O954 O 0.03121 0.51058 0.05266 0.0
O955 O 0.06139 0.52621 0.05135 0.0
C956 C 0.05104 0.56725 0.04185 0.0
O957 O 0.99305 0.52096 0.02559 0.0
O958 O 1.00206 0.53192 0.05296 0.0
C959 C 0.03295 0.53982 0.99773 0.0
C960 C 0.10826 0.52272 0.01895 0.0
C961 C 0.13279 0.49964 0.02267 0.0
C962 C 0.13836 0.5184 0.0167 0.0
C963 C 0.12626 0.52975 0.01486 0.0
C964 C 0.10255 0.50405 0.02497 0.0
C965 C 0.11465 0.49263 0.02677 0.0
C966 C 0.09568 0.53494 0.0166 0.0
C967 C 0.0336 0.49279 0.01654 0.0
H968 H 0.93959 0.54808 0.05795 0.0
H969 H 0.96001 0.52747 0.06011 0.0
H970 H 0.99057 0.55729 0.01888 0.0
H971 H 0.9699 0.57773 0.01626 0.0
H972 H 0.15206 0.52426 0.01312 0.0
H973 H 0.13097 0.54406 0.01012 0.0
H974 H 0.08872 0.49831 0.02825 0.0
H975 H 0.10984 0.47839 0.0316 0.0
H976 H 0.99552 0.21833 0.97866 0.0
H977 H 1.00224 0.18905 0.98808 0.0
H978 H 0.02502 0.18172 0.93777 0.0
H979 H 0.01826 0.21124 0.92806 0.0
H980 H 1.00233 0.14667 0.94894 0.0
H981 H 0.05277 0.18485 0.00405 0.0
H982 H 0.03141 0.19019 0.00498 0.0
H983 H 0.04487 0.19736 0.98642 0.0
C984 C 1.00194 0.21058 0.96947 0.0
C985 C 1.0064 0.2174 0.95255 0.0
C986 C 1.00587 0.19379 0.97499 0.0
C987 C 0.01445 0.18326 0.96383 0.0
C988 C 0.01851 0.18963 0.94672 0.0
H989 H 0.06366 0.09534 0.00392 0.0
H990 H 0.05804 0.12367 0.99064 0.0
C991 C 0.01462 0.20655 0.94117 0.0
C992 C 0.01913 0.1657 0.9702 0.0
H993 H 0.04269 0.15054 0.00399 0.0
C994 C 0.01125 0.14754 0.96091 0.0
C995 C 0.03096 0.16674 0.9857 0.0
C996 C 0.04065 0.18584 0.99579 0.0
C997 C 0.01443 0.13044 0.96697 0.0
C998 C 0.02564 0.13138 0.98293 0.0
C999 C 0.03394 0.14964 0.99189 0.0
C1000 C 0.02895 0.1137 0.99061 0.0
C1001 C 1.00588 0.11154 0.95605 0.0
C1002 C 0.01455 0.09857 0.99528 0.0
C1003 C 0.01773 0.08228 0.00287 0.0
C1004 C 0.03544 0.08071 0.00616 0.0
C1005 C 0.04985 0.09594 0.00159 0.0
C1006 C 0.04665 0.11222 0.99397 0.0
H1007 H 1.00234 0.11386 0.94189 0.0
H1008 H 0.015 0.10197 0.95612 0.0
H1009 H 0.99324 0.10398 0.96192 0.0
H1010 H 1.0008 0.09946 0.99331 0.0
H1011 H 1.00627 0.07098 0.00631 0.0
H1012 H 0.11284 0.7954 0.17439 0.0
H1013 H 0.13777 0.79389 0.19567 0.0
H1014 H 0.17614 0.82366 0.16017 0.0
H1015 H 0.15143 0.82536 0.13893 0.0
H1016 H 0.16509 0.77598 0.19004 0.0
H1017 H 0.19489 0.85432 0.20843 0.0
H1018 H 0.17257 0.84469 0.19728 0.0
H1019 H 0.19214 0.84806 0.18462 0.0
C1020 C 0.12657 0.80187 0.17118 0.0
C1021 C 0.13 0.81058 0.15487 0.0
C1022 C 0.14085 0.80092 0.18337 0.0
C1023 C 0.15893 0.80886 0.17971 0.0
C1024 C 0.16238 0.81775 0.16356 0.0
H1025 H 0.25539 0.78112 0.22337 0.0
H1026 H 0.22959 0.78501 0.20489 0.0
C1027 C 0.14815 0.81862 0.15133 0.0
C1028 C 0.17417 0.80709 0.19231 0.0
H1029 H 0.21258 0.8334 0.21723 0.0
C1030 C 0.1754 0.78856 0.19605 0.0
C1031 C 0.18762 0.82345 0.20037 0.0
C1032 C 0.18671 0.84377 0.19764 0.0
C1033 C 0.18984 0.78594 0.20716 0.0
C1034 C 0.20365 0.80228 0.21469 0.0
C1035 C 0.20217 0.82083 0.21136 0.0
C1036 C 0.21972 0.80037 0.22596 0.0
C1037 C 0.1901 0.76564 0.21088 0.0
C1038 C 0.22321 0.80817 0.24393 0.0
C1039 C 0.23806 0.80599 0.25461 0.0
C1040 C 0.24991 0.79611 0.24753 0.0
C1041 C 0.24658 0.78872 0.2294 0.0
C1042 C 0.23171 0.79084 0.21878 0.0
H1043 H 0.17651 0.75523 0.20817 0.0
H1044 H 0.1994 0.76092 0.20202 0.0
H1045 H 0.19497 0.76502 0.22505 0.0
H1046 H 0.21427 0.81571 0.2498 0.0
H1047 H 0.24015 0.81193 0.26846 0.0
H1048 H 0.50686 0.8074 0.46651 0.0
H1049 H 0.50717 0.83899 0.48088 0.0
H1050 H 0.518 0.86472 0.43064 0.0
H1051 H 0.51743 0.83316 0.41614 0.0
H1052 H 0.53458 0.87193 0.48538 0.0
H1053 H 0.47731 0.88619 0.44578 0.0
H1054 H 0.48132 0.8626 0.44524 0.0
H1055 H 0.49385 0.8809 0.43192 0.0
C1056 C 0.50911 0.81974 0.45846 0.0
C1057 C 0.51207 0.81769 0.44013 0.0
C1058 C 0.50931 0.83783 0.46672 0.0
C1059 C 0.51235 0.8543 0.45684 0.0
C1060 C 0.5152 0.85224 0.43851 0.0
H1061 H 0.55462 0.97441 0.49548 0.0
H1062 H 0.54895 0.9411 0.48303 0.0
C1063 C 0.51498 0.83416 0.43024 0.0
C1064 C 0.51353 0.87377 0.46591 0.0
H1065 H 0.49698 0.91326 0.46358 0.0
C1066 C 0.52623 0.88086 0.48067 0.0
C1067 C 0.5025 0.88545 0.46003 0.0
C1068 C 0.48785 0.87834 0.44499 0.0
C1069 C 0.52864 0.89943 0.48925 0.0
C1070 C 0.51826 0.91149 0.48279 0.0
C1071 C 0.5051 0.90416 0.46845 0.0
C1072 C 0.52139 0.93194 0.49032 0.0
C1073 C 0.54228 0.90596 0.50524 0.0
C1074 C 0.50765 0.93819 0.49824 0.0
C1075 C 0.51084 0.95743 0.50543 0.0
C1076 C 0.5278 0.9709 0.50465 0.0
C1077 C 0.54139 0.96457 0.49643 0.0
C1078 C 0.53822 0.9454 0.48936 0.0
H1079 H 0.54519 0.89347 0.51163 0.0
H1080 H 0.55511 0.91497 0.50074 0.0
H1081 H 0.53748 0.91481 0.51549 0.0
H1082 H 0.4945 0.92813 0.49905 0.0
H1083 H 0.50002 0.96174 0.51158 0.0
H1084 H 0.51453 0.29238 0.63147 0.0
H1085 H 0.48773 0.28975 0.64818 0.0
H1086 H 0.51469 0.27264 0.69394 0.0
H1087 H 0.54169 0.2757 0.67746 0.0
H1088 H 0.46501 0.26053 0.6641 0.0
H1089 H 0.5008 0.31866 0.71596 0.0
H1090 H 0.5106 0.31387 0.69547 0.0
H1091 H 0.51091 0.29901 0.71396 0.0
C1092 C 0.51472 0.28788 0.64503 0.0
C1093 C 0.53034 0.28441 0.65317 0.0
C1094 C 0.49937 0.28641 0.6546 0.0
C1095 C 0.49929 0.28145 0.6725 0.0
C1096 C 0.51456 0.27702 0.68033 0.0
H1097 H 0.42111 0.27341 0.75366 0.0
H1098 H 0.44643 0.27093 0.73626 0.0
C1099 C 0.52995 0.27861 0.67082 0.0
C1100 C 0.48342 0.28135 0.68304 0.0
H1101 H 0.47085 0.30162 0.72098 0.0
C1102 C 0.46629 0.26954 0.67652 0.0
C1103 C 0.48502 0.29317 0.69924 0.0
C1104 C 0.50278 0.30704 0.70651 0.0
C1105 C 0.45085 0.26903 0.68584 0.0
C1106 C 0.45249 0.28079 0.70204 0.0
C1107 C 0.4696 0.29253 0.70861 0.0
C1108 C 0.43662 0.28146 0.71226 0.0
C1109 C 0.43292 0.25567 0.67842 0.0
C1110 C 0.42267 0.28829 0.70461 0.0
C1111 C 0.40817 0.28972 0.71453 0.0
C1112 C 0.40726 0.28438 0.73235 0.0
C1113 C 0.42121 0.27742 0.73991 0.0
C1114 C 0.43577 0.27609 0.73001 0.0
H1115 H 0.43461 0.24423 0.66858 0.0
H1116 H 0.42508 0.24866 0.68938 0.0
H1117 H 0.42494 0.26418 0.67143 0.0
H1118 H 0.42315 0.29282 0.69105 0.0
H1119 H 0.39763 0.29501 0.70821 0.0
H1120 H 0.03921 0.85652 0.6602 0.0
H1121 H 0.0403 0.88539 0.64365 0.0
H1122 H 0.044 0.85323 0.59438 0.0
H1123 H 0.04263 0.82443 0.61082 0.0
H1124 H 0.06234 0.91018 0.62491 0.0
H1125 H 1.00634 0.87526 0.57445 0.0
H1126 H 0.01145 0.86316 0.59368 0.0
H1127 H 0.02407 0.86354 0.57408 0.0
C1128 C 0.04023 0.85542 0.64582 0.0
C1129 C 0.04073 0.83744 0.63722 0.0
C1130 C 0.04087 0.87227 0.63615 0.0
C1131 C 0.04181 0.87226 0.61719 0.0
C1132 C 0.04266 0.85434 0.60869 0.0
H1133 H 0.04429 0.95817 0.5325 0.0
H1134 H 0.044 0.93013 0.54978 0.0
C1135 C 0.04208 0.83755 0.61834 0.0
C1136 C 0.04216 0.89067 0.60657 0.0
H1137 H 0.0238 0.90661 0.56881 0.0
C1138 C 0.05373 0.90917 0.61271 0.0
C1139 C 0.03121 0.89043 0.59034 0.0
C1140 C 0.01744 0.8721 0.58281 0.0
C1141 C 0.05502 0.92641 0.60332 0.0
C1142 C 0.04406 0.92617 0.58707 0.0
C1143 C 0.03244 0.90766 0.58099 0.0
C1144 C 0.04449 0.94445 0.57618 0.0
C1145 C 0.0689 0.94467 0.61081 0.0
C1146 C 0.04466 0.96289 0.58436 0.0
C1147 C 0.04499 0.97936 0.57426 0.0
C1148 C 0.04492 0.97853 0.55521 0.0
C1149 C 0.04448 0.96006 0.54699 0.0
C1150 C 0.04424 0.94364 0.5571 0.0
H1151 H 0.07999 0.94142 0.6191 0.0
H1152 H 0.07489 0.95359 0.59993 0.0
H1153 H 0.06239 0.95329 0.61962 0.0
H1154 H 0.04419 0.96467 0.59877 0.0
H1155 H 0.04506 0.99284 0.58154 0.0
H1156 H 0.47085 0.75442 0.88261 0.0
H1157 H 0.44272 0.75531 0.86643 0.0
H1158 H 0.47293 0.79703 0.83292 0.0
H1159 H 0.50126 0.79514 0.84859 0.0
H1160 H 0.42226 0.77478 0.86275 0.0
H1161 H 0.44025 0.77364 0.79257 0.0
H1162 H 0.45488 0.76924 0.8105 0.0
H1163 H 0.4552 0.79369 0.80589 0.0
C1164 C 0.47175 0.76341 0.87139 0.0
C1165 C 0.48913 0.77412 0.86693 0.0
C1166 C 0.4552 0.76415 0.86205 0.0
C1167 C 0.45452 0.776 0.84761 0.0
C1168 C 0.47198 0.78692 0.84317 0.0
H1169 H 0.36078 0.80762 0.78728 0.0
H1170 H 0.39032 0.80633 0.80081 0.0
C1171 C 0.48868 0.78588 0.85237 0.0
C1172 C 0.4358 0.77719 0.83823 0.0
H1173 H 0.41299 0.78157 0.79768 0.0
C1174 C 0.42055 0.77605 0.84843 0.0
C1175 C 0.43226 0.77897 0.81938 0.0
C1176 C 0.44642 0.77875 0.8064 0.0
C1177 C 0.40308 0.77681 0.84092 0.0
C1178 C 0.39966 0.77879 0.82219 0.0
C1179 C 0.41485 0.78013 0.81196 0.0
C1180 C 0.38074 0.7794 0.81321 0.0
C1181 C 0.38838 0.77595 0.85351 0.0
C1182 C 0.36442 0.76474 0.81481 0.0
C1183 C 0.34721 0.76533 0.8067 0.0
C1184 C 0.34494 0.78075 0.79653 0.0
C1185 C 0.36127 0.7954 0.79487 0.0
C1186 C 0.37855 0.79463 0.80274 0.0
H1187 H 0.39397 0.77991 0.86768 0.0
H1188 H 0.38009 0.78576 0.84979 0.0
H1189 H 0.37942 0.76096 0.85271 0.0
H1190 H 0.36491 0.75242 0.82225 0.0
H1191 H 0.33549 0.75353 0.80856 0.0
H1192 H 0.53043 0.21717 0.15375 0.0
H1193 H 0.52954 0.1847 0.13987 0.0
H1194 H 0.53097 0.2067 0.08759 0.0
H1195 H 0.53187 0.23853 0.10111 0.0
H1196 H 0.50778 0.156 0.11394 0.0
H1197 H 0.573 0.18417 0.08509 0.0
H1198 H 0.56483 0.19841 0.10152 0.0
H1199 H 0.55689 0.19669 0.07817 0.0
C1200 C 0.53015 0.21508 0.13926 0.0
C1201 C 0.53115 0.23115 0.12883 0.0
C1202 C 0.52982 0.19628 0.1312 0.0
C1203 C 0.53072 0.19265 0.11235 0.0
C1204 C 0.53086 0.20851 0.10205 0.0
H1205 H 0.54017 0.09937 0.03146 0.0
H1206 H 0.53865 0.12902 0.04842 0.0
C1207 C 0.53115 0.22703 0.10999 0.0
C1208 C 0.53175 0.17289 0.10324 0.0
H1209 H 0.55588 0.1526 0.07384 0.0
C1210 C 0.51846 0.15539 0.10533 0.0
C1211 C 0.54545 0.17123 0.09166 0.0
C1212 C 0.56095 0.18856 0.08908 0.0
C1213 C 0.51812 0.13717 0.09604 0.0
C1214 C 0.53178 0.13554 0.0843 0.0
C1215 C 0.54518 0.15306 0.08247 0.0
C1216 C 0.53239 0.11632 0.07363 0.0
C1217 C 0.50243 0.11998 0.09842 0.0
C1218 C 0.52966 0.0983 0.08145 0.0
C1219 C 0.53037 0.08094 0.07149 0.0
C1220 C 0.53414 0.08051 0.05314 0.0
C1221 C 0.53715 0.09854 0.0454 0.0
C1222 C 0.53632 0.11585 0.05531 0.0
H1223 H 0.49052 0.12453 0.10259 0.0
H1224 H 0.49836 0.1104 0.08582 0.0
H1225 H 0.50635 0.11154 0.10914 0.0
H1226 H 0.52725 0.09757 0.09553 0.0
H1227 H 0.52813 0.06776 0.07837 0.0
H1228 H 0.11545 0.29261 0.38597 0.0
H1229 H 0.14356 0.29314 0.3718 0.0
H1230 H 0.11243 0.25955 0.32552 0.0
H1231 H 0.08451 0.26001 0.33928 0.0
H1232 H 0.16448 0.2747 0.36226 0.0
H1233 H 0.14363 0.29038 0.29453 0.0
H1234 H 0.12981 0.29109 0.31296 0.0
H1235 H 0.12875 0.26838 0.30065 0.0
C1236 C 0.11439 0.28543 0.37266 0.0
C1237 C 0.09686 0.27643 0.36411 0.0
C1238 C 0.13091 0.28568 0.36432 0.0
C1239 C 0.13132 0.27692 0.34675 0.0
C1240 C 0.1137 0.26745 0.33848 0.0
H1241 H 0.22008 0.25597 0.27764 0.0
H1242 H 0.19173 0.25585 0.29129 0.0
C1243 C 0.09721 0.26744 0.34669 0.0
C1244 C 0.14972 0.27733 0.33764 0.0
H1245 H 0.17035 0.28017 0.29709 0.0
C1246 C 0.16545 0.27608 0.34798 0.0
C1247 C 0.1524 0.27919 0.31882 0.0
C1248 C 0.13784 0.28255 0.30612 0.0
C1249 C 0.18244 0.27615 0.34056 0.0
C1250 C 0.18494 0.27765 0.32175 0.0
C1251 C 0.16928 0.27887 0.31138 0.0
C1252 C 0.2033 0.27801 0.31279 0.0
C1253 C 0.19758 0.27399 0.35321 0.0
C1254 C 0.22044 0.29064 0.31933 0.0
C1255 C 0.23702 0.29091 0.31118 0.0
C1256 C 0.23789 0.27848 0.29588 0.0
C1257 C 0.22075 0.26592 0.28925 0.0
C1258 C 0.20412 0.26586 0.29726 0.0
H1259 H 0.19247 0.26726 0.36556 0.0
H1260 H 0.20545 0.26506 0.34664 0.0
H1261 H 0.20681 0.28852 0.35735 0.0
H1262 H 0.22113 0.30074 0.33081 0.0
H1263 H 0.24937 0.301 0.31711 0.0
H1264 H 0.93911 0.07514 0.19252 0.0
H1265 H 0.94924 0.08623 0.16331 0.0
H1266 H 0.95506 0.02962 0.14818 0.0
H1267 H 0.94568 0.0188 0.17736 0.0
H1268 H 0.98667 0.07954 0.15407 0.0
H1269 H 0.92965 0.0503 0.10251 0.0
H1270 H 0.92657 0.05717 0.12555 0.0
H1271 H 0.93127 0.0345 0.11995 0.0
C1272 C 0.94208 0.065 0.18268 0.0
C1273 C 0.94172 0.04618 0.18702 0.0
C1274 C 0.94784 0.07132 0.1661 0.0
C1275 C 0.95268 0.05864 0.15364 0.0
C1276 C 0.95111 0.03949 0.15758 0.0
H1277 H 1.00127 0.02131 0.07376 0.0
H1278 H 0.98254 0.03116 0.0954 0.0
C1279 C 0.94585 0.03335 0.17422 0.0
C1280 C 0.96219 0.06561 0.13779 0.0
H1281 H 0.95957 0.05392 0.09277 0.0
C1282 C 0.98075 0.07466 0.14051 0.0
C1283 C 0.95428 0.05919 0.12027 0.0
C1284 C 0.93429 0.04988 0.1168 0.0
C1285 C 0.99204 0.07524 0.1264 0.0
C1286 C 0.98433 0.067 0.10912 0.0
C1287 C 0.96546 0.06007 0.10607 0.0
C1288 C 0.9955 0.06185 0.09524 0.0
C1289 C 0.01221 0.08279 0.13054 0.0
C1290 C 0.00908 0.07585 0.08796 0.0
C1291 C 0.02015 0.07018 0.07578 0.0
C1292 C 0.01753 0.05047 0.07053 0.0
C1293 C 1.00369 0.0366 0.07759 0.0
C1294 C 0.99286 0.04223 0.08987 0.0
H1295 H 0.01599 0.08628 0.14517 0.0
H1296 H 0.01907 0.07199 0.12561 0.0
H1297 H 0.01735 0.09618 0.12363 0.0
H1298 H 0.01114 0.09109 0.09168 0.0
H1299 H 0.03052 0.0812 0.07028 0.0
H1300 H 0.30017 0.68936 0.5014 0.0
H1301 H 0.28588 0.69783 0.47427 0.0
H1302 H 0.25965 0.63741 0.45971 0.0
H1303 H 0.27454 0.62879 0.48662 0.0
H1304 H 0.27234 0.65449 0.43142 0.0
H1305 H 0.23496 0.69979 0.46507 0.0
H1306 H 0.25837 0.70844 0.47271 0.0
H1307 H 0.24566 0.68442 0.47724 0.0
C1308 C 0.29139 0.67788 0.49239 0.0
C1309 C 0.28844 0.65844 0.49608 0.0
C1310 C 0.28304 0.68274 0.47702 0.0
C1311 C 0.27124 0.6683 0.46525 0.0
C1312 C 0.26853 0.6488 0.46872 0.0
H1313 H 0.22352 0.72232 0.37986 0.0
H1314 H 0.22391 0.70031 0.40373 0.0
C1315 C 0.27711 0.6439 0.48403 0.0
C1316 C 0.26262 0.67372 0.44889 0.0
H1317 H 0.24244 0.70742 0.43453 0.0
C1318 C 0.26544 0.66577 0.43209 0.0
C1319 C 0.25298 0.68788 0.44968 0.0
C1320 C 0.24763 0.69541 0.46718 0.0
C1321 C 0.26038 0.67289 0.41612 0.0
C1322 C 0.25294 0.68883 0.41708 0.0
C1323 C 0.24856 0.69551 0.43377 0.0
C1324 C 0.25176 0.7003 0.40146 0.0
C1325 C 0.26351 0.66356 0.39845 0.0
C1326 C 0.26728 0.70769 0.39239 0.0
C1327 C 0.26702 0.72001 0.37878 0.0
C1328 C 0.25133 0.72553 0.37415 0.0
C1329 C 0.23577 0.71823 0.38321 0.0
C1330 C 0.23597 0.70564 0.39675 0.0
H1331 H 0.26178 0.64782 0.39935 0.0
H1332 H 0.25414 0.66553 0.38733 0.0
H1333 H 0.2776 0.67007 0.39517 0.0
H1334 H 0.27984 0.70448 0.39625 0.0
H1335 H 0.27932 0.72577 0.37228 0.0
H1336 H 0.6099 0.97272 0.70525 0.0
H1337 H 0.59231 0.96787 0.67627 0.0
H1338 H 0.63376 0.01292 0.65588 0.0
H1339 H 0.65164 0.01733 0.68476 0.0
H1340 H 0.58065 0.99872 0.66723 0.0
H1341 H 0.61632 0.97518 0.61163 0.0
H1342 H 0.62175 0.972 0.63489 0.0
H1343 H 0.63019 0.99515 0.62603 0.0
C1344 C 0.61565 0.9808 0.69423 0.0
C1345 C 0.63207 0.99529 0.69704 0.0
C1346 C 0.60557 0.97814 0.67776 0.0
C1347 C 0.61169 0.9901 0.664 0.0
C1348 C 0.62893 1.00332 0.66623 0.0
H1349 H 0.54924 0.03674 0.58872 0.0
H1350 H 0.56431 0.02947 0.61614 0.0
C1351 C 0.63917 1.0058 0.68269 0.0
C1352 C 0.59881 0.99127 0.64899 0.0
H1353 H 0.59258 0.98929 0.6034 0.0
C1354 C 0.5831 0.99636 0.65325 0.0
C1355 C 0.6021 0.98829 0.63084 0.0
C1356 C 0.61843 0.98218 0.62553 0.0
C1357 C 0.57067 0.99879 0.6398 0.0
C1358 C 0.57426 0.99643 0.62163 0.0
C1359 C 0.58984 0.99107 0.61737 0.0
C1360 C 0.56236 0.99986 0.60671 0.0
C1361 C 0.55385 1.00379 0.64522 0.0
C1362 C 0.55598 0.98556 0.5925 0.0
C1363 C 0.54773 0.98983 0.57682 0.0
C1364 C 0.54546 0.00836 0.57523 0.0
C1365 C 0.55051 0.02223 0.5899 0.0
C1366 C 0.55914 0.01808 0.60552 0.0
H1367 H 0.55037 0.99907 0.65876 0.0
H1368 H 0.55621 0.01973 0.64578 0.0
H1369 H 0.54213 0.99703 0.63543 0.0
H1370 H 0.55831 0.97142 0.59318 0.0
H1371 H 0.54404 0.97902 0.56552 0.0
H1372 H 0.29578 0.38274 0.96814 0.0
H1373 H 0.29759 0.37036 0.93737 0.0
H1374 H 0.28709 0.31245 0.9544 0.0
H1375 H 0.28587 0.32496 0.9855 0.0
H1376 H 0.31185 0.31742 0.93053 0.0
H1377 H 0.25631 0.34429 0.90214 0.0
H1378 H 0.27419 0.36354 0.91324 0.0
H1379 H 0.26146 0.34477 0.92602 0.0
C1380 C 0.29385 0.36734 0.9654 0.0
C1381 C 0.2905 0.35487 0.97941 0.0
C1382 C 0.29474 0.36022 0.94765 0.0
C1383 C 0.29198 0.3403 0.94318 0.0
C1384 C 0.28912 0.32785 0.95726 0.0
H1385 H 0.2645 0.28833 0.83256 0.0
H1386 H 0.26491 0.29959 0.86401 0.0
C1387 C 0.2884 0.33502 0.97512 0.0
C1388 C 0.29212 0.3326 0.92393 0.0
H1389 H 0.27395 0.33327 0.88105 0.0
C1390 C 0.30348 0.32085 0.91974 0.0
C1391 C 0.28104 0.33664 0.90965 0.0
C1392 C 0.26743 0.34782 0.91299 0.0
C1393 C 0.3043 0.31342 0.90193 0.0
C1394 C 0.29379 0.31818 0.88755 0.0
C1395 C 0.28225 0.32969 0.89181 0.0
C1396 C 0.29395 0.31088 0.86815 0.0
C1397 C 0.31607 0.30005 0.89885 0.0
C1398 C 0.31011 0.31341 0.8595 0.0
C1399 C 0.30994 0.3067 0.84134 0.0
C1400 C 0.29357 0.29757 0.83113 0.0
C1401 C 0.27743 0.29531 0.83977 0.0
C1402 C 0.27763 0.3018 0.85792 0.0
H1403 H 0.31863 0.29317 0.91129 0.0
H1404 H 0.30983 0.28847 0.8881 0.0
H1405 H 0.32931 0.30851 0.89476 0.0
H1406 H 0.32292 0.32084 0.8667 0.0
H1407 H 0.32265 0.30895 0.83524 0.0
H1408 H 0.92041 0.02731 0.29703 0.0
H1409 H 0.9363 0.01839 0.32312 0.0
H1410 H 0.98462 0.02748 0.29476 0.0
H1411 H 0.96896 0.03654 0.26875 0.0
H1412 H 0.95436 0.98789 0.3241 0.0
H1413 H 1.00064 0.06121 0.3429 0.0
H1414 H 0.98033 0.05727 0.32823 0.0
H1415 H 1.00011 0.05237 0.31983 0.0
C1416 C 0.93444 0.02749 0.2964 0.0
C1417 C 0.94349 0.03272 0.28092 0.0
C1418 C 0.94345 0.02234 0.31126 0.0
C1419 C 0.96163 0.02249 0.31085 0.0
C1420 C 0.97065 0.02756 0.29537 0.0
H1421 H 0.03901 1.00454 0.39275 0.0
H1422 H 0.02408 0.00801 0.36378 0.0
C1423 C 0.96167 0.03267 0.28053 0.0
C1424 C 0.9712 0.01727 0.3266 0.0
H1425 H 1.00549 0.03563 0.35906 0.0
C1426 C 0.96554 0.99829 0.33178 0.0
C1427 C 0.98582 0.0309 0.33644 0.0
C1428 C 0.99205 0.05163 0.33171 0.0
C1429 C 0.97421 0.99253 0.34661 0.0
C1430 C 0.98867 0.00624 0.3566 0.0
C1431 C 0.99446 0.02514 0.35127 0.0
C1432 C 0.99732 1.00172 0.37332 0.0
C1433 C 0.96793 0.97182 0.35136 0.0
C1434 C 0.98715 0.99683 0.38813 0.0
C1435 C 0.99559 0.99476 0.40459 0.0
C1436 C 0.01439 0.99772 0.40657 0.0
C1437 C 0.02448 1.00199 0.39155 0.0
C1438 C 0.016 1.00407 0.37506 0.0
H1439 H 0.96069 0.96205 0.33962 0.0
H1440 H 0.97946 0.9666 0.35641 0.0
H1441 H 0.95845 0.97084 0.36209 0.0
H1442 H 0.97276 0.99532 0.38714 0.0
H1443 H 0.98747 0.99129 0.41591 0.0
H1444 H 0.30648 0.65585 0.59977 0.0
H1445 H 0.31014 0.66701 0.63177 0.0
H1446 H 0.31929 0.72597 0.6179 0.0
H1447 H 0.31562 0.71508 0.58602 0.0
H1448 H 0.34309 0.71608 0.64982 0.0
H1449 H 0.26816 0.69123 0.65106 0.0
H1450 H 0.2798 0.67527 0.64082 0.0
H1451 H 0.27878 0.69678 0.6304 0.0
C1452 C 0.30965 0.67122 0.60352 0.0
C1453 C 0.31055 0.68456 0.59034 0.0
C1454 C 0.3117 0.67755 0.62179 0.0
C1455 C 0.31487 0.69727 0.62708 0.0
C1456 C 0.31686 0.71069 0.61401 0.0
H1457 H 0.31997 0.77783 0.71651 0.0
H1458 H 0.32522 0.76001 0.68951 0.0
C1459 C 0.31467 0.70441 0.59581 0.0
C1460 C 0.3143 0.70391 0.64604 0.0
H1461 H 0.28461 0.70888 0.67676 0.0
C1462 C 0.33037 0.71431 0.65587 0.0
C1463 C 0.29766 0.7015 0.6538 0.0
C1464 C 0.28004 0.69066 0.64356 0.0
C1465 C 0.33017 0.72274 0.67326 0.0
C1466 C 0.31343 0.72113 0.68071 0.0
C1467 C 0.29744 0.71012 0.67106 0.0
C1468 C 0.31191 0.73172 0.69791 0.0
C1469 C 0.34789 0.73332 0.68344 0.0
C1470 C 0.30244 0.7218 0.71152 0.0
C1471 C 0.29915 0.73199 0.72684 0.0
C1472 C 0.30525 0.75232 0.72885 0.0
C1473 C 0.31517 0.76218 0.71543 0.0
C1474 C 0.31832 0.75199 0.70004 0.0
H1475 H 0.35909 0.72771 0.67886 0.0
H1476 H 0.35113 0.74888 0.68094 0.0
H1477 H 0.34725 0.73203 0.69813 0.0
H1478 H 0.29729 0.70618 0.71013 0.0
H1479 H 0.2916 0.72394 0.73698 0.0
H1480 H 0.66857 0.01612 0.80786 0.0
H1481 H 0.65366 0.02076 0.83525 0.0
H1482 H 0.60835 0.02865 0.80298 0.0
H1483 H 0.62279 0.02352 0.77576 0.0
H1484 H 0.64145 0.05106 0.8486 0.0
H1485 H 0.58464 0.98501 0.83305 0.0
H1486 H 0.60485 0.98979 0.82111 0.0
H1487 H 0.58722 1.00087 0.81517 0.0
C1488 C 0.65547 0.01894 0.80668 0.0
C1489 C 0.64672 0.01926 0.78975 0.0
C1490 C 0.64699 0.02155 0.82227 0.0
C1491 C 0.62976 0.02456 0.82102 0.0
C1492 C 0.62143 0.02578 0.80415 0.0
H1493 H 0.57445 0.07025 0.90224 0.0
H1494 H 0.59101 0.06489 0.87641 0.0
C1495 C 0.62976 0.02298 0.78863 0.0
C1496 C 0.62028 0.02638 0.83727 0.0
H1497 H 0.58061 0.00783 0.8559 0.0
C1498 C 0.62823 0.04153 0.85033 0.0
C1499 C 0.60318 0.01366 0.83955 0.0
C1500 C 0.59456 0.9963 0.82656 0.0
C1501 C 0.6192 0.04472 0.86544 0.0
C1502 C 0.60164 0.03272 0.86714 0.0
C1503 C 0.59396 0.01719 0.85436 0.0
C1504 C 0.59105 0.03579 0.88224 0.0
C1505 C 0.62863 0.06077 0.87947 0.0
C1506 C 0.58488 0.02086 0.89346 0.0
C1507 C 0.57506 0.02369 0.9079 0.0
C1508 C 0.57134 0.04157 0.91142 0.0
C1509 C 0.57707 0.05631 0.89982 0.0
C1510 C 0.58676 0.05339 0.88525 0.0
H1511 H 0.64351 0.0647 0.87884 0.0
H1512 H 0.62408 0.07383 0.87706 0.0
H1513 H 0.6254 0.05659 0.8932 0.0
H1514 H 0.58786 0.00708 0.89117 0.0
H1515 H 0.57047 0.01192 0.91638 0.0
H1516 H 0.30251 0.32273 0.0769 0.0
H1517 H 0.30002 0.31576 0.10825 0.0
H1518 H 0.27552 0.36224 0.11744 0.0
H1519 H 0.27791 0.36938 0.0857 0.0
H1520 H 0.315 0.33839 0.13936 0.0
H1521 H 0.24023 0.31737 0.1391 0.0
H1522 H 0.2517 0.31945 0.11863 0.0
H1523 H 0.25031 0.3408 0.13148 0.0
C1524 C 0.29648 0.33155 0.08542 0.0
C1525 C 0.29035 0.34667 0.07842 0.0
C1526 C 0.29511 0.3275 0.10354 0.0
C1527 C 0.28742 0.33825 0.11545 0.0
C1528 C 0.28126 0.35341 0.10862 0.0
H1529 H 0.29571 0.33052 0.23418 0.0
H1530 H 0.29608 0.34292 0.20415 0.0
C1531 C 0.28271 0.35758 0.09039 0.0
C1532 C 0.28627 0.33354 0.13491 0.0
H1533 H 0.25659 0.31699 0.16673 0.0
C1534 C 0.3022 0.3339 0.14533 0.0
C1535 C 0.26962 0.32741 0.14292 0.0
C1536 C 0.25194 0.32604 0.13248 0.0
C1537 C 0.30195 0.32836 0.16321 0.0
C1538 C 0.28533 0.32218 0.17116 0.0
C1539 C 0.26938 0.32186 0.16082 0.0
C1540 C 0.28427 0.31496 0.18975 0.0
C1541 C 0.31948 0.32857 0.17337 0.0
C1542 C 0.27728 0.29513 0.19194 0.0
C1543 C 0.27721 0.28798 0.20909 0.0
C1544 C 0.28386 0.30046 0.22473 0.0
C1545 C 0.29036 0.32043 0.22258 0.0
C1546 C 0.29066 0.32755 0.20533 0.0
H1547 H 0.33097 0.33145 0.16469 0.0
H1548 H 0.32253 0.33999 0.18463 0.0
H1549 H 0.31829 0.31449 0.17922 0.0
H1550 H 0.27224 0.28504 0.18027 0.0
H1551 H 0.27208 0.27254 0.21005 0.0
H1552 H 0.2733 0.96772 0.02715 0.0
H1553 H 0.25553 0.9878 0.04014 0.0
H1554 H 0.20677 0.94186 0.02608 0.0
H1555 H 0.22445 0.92158 0.01326 0.0
H1556 H 0.22916 0.99974 0.02161 0.0
H1557 H 0.20083 0.95798 0.07808 0.0
H1558 H 0.21979 0.95398 0.06692 0.0
H1559 H 0.19712 0.94348 0.05713 0.0
C1560 C 0.25881 0.9618 0.02701 0.0
C1561 C 0.25025 0.94308 0.01917 0.0
C1562 C 0.2487 0.97329 0.03446 0.0
C1563 C 0.22989 0.96621 0.03431 0.0
C1564 C 0.22132 0.94743 0.02671 0.0
H1565 H 0.13667 1.004 0.04251 0.0
H1566 H 0.16022 0.98729 0.04071 0.0
C1567 C 0.23142 0.93591 0.01926 0.0
C1568 C 0.21903 0.97896 0.04072 0.0
H1569 H 0.18585 0.9813 0.06827 0.0
C1570 C 0.21993 0.99594 0.03206 0.0
C1571 C 0.20707 0.97395 0.05438 0.0
C1572 C 0.20625 0.95645 0.06479 0.0
C1573 C 0.20842 0.00747 0.03597 0.0
C1574 C 0.1959 1.00197 0.04906 0.0
C1575 C 0.19551 0.98545 0.05826 0.0
C1576 C 0.18177 0.01193 0.05187 0.0
C1577 C 0.20902 0.02483 0.02539 0.0
C1578 C 0.18609 0.0312 0.05913 0.0
C1579 C 0.17263 0.04084 0.06014 0.0
C1580 C 0.15474 0.0313 0.0538 0.0
C1581 C 0.15041 0.01178 0.04721 0.0
C1582 C 0.1638 1.00218 0.04629 0.0
H1583 H 0.21773 0.0255 0.014 0.0
H1584 H 0.19522 0.02457 0.02002 0.0
H1585 H 0.21442 0.03824 0.03438 0.0
H1586 H 0.1999 0.03887 0.06366 0.0
H1587 H 0.17628 0.05588 0.06528 0.0
H1588 H 0.74757 0.63878 0.0184 0.0
H1589 H 0.71914 0.61432 0.02147 0.0
H1590 H 0.68946 0.6545 0.00625 0.0
H1591 H 0.71778 0.67902 0.00299 0.0
H1592 H 0.69248 0.61611 0.04442 0.0
H1593 H 0.66435 0.60603 0.97346 0.0
H1594 H 0.68778 0.61807 0.98002 0.0
H1595 H 0.67087 0.6308 0.9825 0.0
C1596 C 0.73501 0.64241 0.0155 0.0
C1597 C 0.73507 0.66095 0.01036 0.0
C1598 C 0.71874 0.62837 0.01732 0.0
C1599 C 0.7021 0.63243 0.0139 0.0
C1600 C 0.70208 0.65085 0.00864 0.0
H1601 H 0.59702 0.57794 0.04944 0.0
H1602 H 0.62753 0.59788 0.046 0.0
C1603 C 0.71834 0.66492 0.00686 0.0
C1604 C 0.68482 0.61769 0.01651 0.0
H1605 H 0.64419 0.59228 0.99514 0.0
C1606 C 0.68198 0.61081 0.03361 0.0
C1607 C 0.67116 0.61053 0.00237 0.0
C1608 C 0.6737 0.61658 0.98351 0.0
C1609 C 0.66569 0.59746 0.03706 0.0
C1610 C 0.65174 0.59091 0.02311 0.0
C1611 C 0.6548 0.59736 0.00589 0.0
C1612 C 0.63368 0.57792 0.02621 0.0
C1613 C 0.66362 0.5904 0.05563 0.0
C1614 C 0.62683 0.55997 0.01623 0.0
C1615 C 0.60929 0.54845 0.01818 0.0
C1616 C 0.59812 0.55476 0.03 0.0
C1617 C 0.60521 0.57254 0.04027 0.0
C1618 C 0.62274 0.58397 0.03837 0.0
H1619 H 0.67693 0.59223 0.06309 0.0
H1620 H 0.65617 0.59893 0.06337 0.0
H1621 H 0.65588 0.5749 0.055 0.0
H1622 H 0.63496 0.55501 0.0067 0.0
H1623 H 0.60427 0.53495 0.00993 0.0
H1624 H 0.7131 0.5165 0.29171 0.0
H1625 H 0.73151 0.49756 0.27809 0.0
H1626 H 0.694 0.44494 0.29163 0.0
H1627 H 0.67524 0.46378 0.30483 0.0
H1628 H 0.74839 0.47518 0.29519 0.0
H1629 H 0.70154 0.43052 0.24038 0.0
H1630 H 0.69722 0.45136 0.25193 0.0
H1631 H 0.69193 0.4284 0.26168 0.0
C1632 C 0.70864 0.50087 0.29157 0.0
C1633 C 0.69274 0.49159 0.29934 0.0
C1634 C 0.71916 0.49008 0.28376 0.0
C1635 C 0.714 0.46984 0.28361 0.0
C1636 C 0.69799 0.46052 0.29116 0.0
H1637 H 0.76471 0.37979 0.27803 0.0
H1638 H 0.7461 0.40206 0.28222 0.0
C1639 C 0.68736 0.4713 0.29883 0.0
C1640 C 0.72614 0.45862 0.27699 0.0
H1641 H 0.72726 0.4194 0.24957 0.0
C1642 C 0.74387 0.46322 0.28497 0.0
C1643 C 0.72023 0.44306 0.26362 0.0
C1644 C 0.70174 0.43817 0.25378 0.0
C1645 C 0.75557 0.4521 0.28051 0.0
C1646 C 0.74936 0.43605 0.26779 0.0
C1647 C 0.73189 0.43178 0.25935 0.0
C1648 C 0.7603 0.42252 0.26441 0.0
C1649 C 0.77426 0.45701 0.28991 0.0
C1650 C 0.77433 0.42674 0.25291 0.0
C1651 C 0.78503 0.41404 0.25048 0.0
C1652 C 0.78188 0.39711 0.25969 0.0
C1653 C 0.76764 0.39291 0.27102 0.0
C1654 C 0.75692 0.40549 0.27332 0.0
H1655 H 0.77693 0.4698 0.29977 0.0
H1656 H 0.77602 0.44446 0.29704 0.0
H1657 H 0.78448 0.46002 0.27983 0.0
H1658 H 0.77707 0.4399 0.24597 0.0
H1659 H 0.79593 0.41758 0.24169 0.0
H1660 H 0.84461 0.40261 0.47525 0.0
H1661 H 0.87648 0.42063 0.48076 0.0
H1662 H 0.86125 0.47267 0.49478 0.0
H1663 H 0.82944 0.4549 0.48941 0.0
H1664 H 0.89847 0.45613 0.46738 0.0
H1665 H 0.88988 0.46241 0.54063 0.0
H1666 H 0.87358 0.44557 0.52496 0.0
H1667 H 0.87435 0.47077 0.5265 0.0
C1668 C 0.84802 0.41797 0.47917 0.0
C1669 C 0.83444 0.42723 0.48215 0.0
C1670 C 0.86623 0.42822 0.48234 0.0
C1671 C 0.87111 0.44784 0.48853 0.0
C1672 C 0.85768 0.45743 0.49033 0.0
H1673 H 0.97783 0.52884 0.50369 0.0
H1674 H 0.94593 0.51282 0.49551 0.0
C1675 C 0.83951 0.44723 0.48718 0.0
C1676 C 0.89014 0.458 0.49423 0.0
H1677 H 0.91828 0.47901 0.53117 0.0
C1678 C 0.90284 0.46116 0.4813 0.0
C1679 C 0.89575 0.46426 0.51247 0.0
C1680 C 0.88275 0.46048 0.52701 0.0
C1681 C 0.92106 0.47075 0.48611 0.0
C1682 C 0.92658 0.47744 0.50427 0.0
C1683 C 0.91392 0.47401 0.51724 0.0
C1684 C 0.94555 0.48769 0.51013 0.0
C1685 C 0.93434 0.4734 0.4718 0.0
C1686 C 0.95566 0.47915 0.52162 0.0
C1687 C 0.97388 0.48828 0.52639 0.0
C1688 C 0.98225 0.50617 0.51983 0.0
C1689 C 0.97183 0.51505 0.50893 0.0
C1690 C 0.95364 0.50587 0.50413 0.0
H1691 H 0.92873 0.46388 0.4594 0.0
H1692 H 0.93773 0.48864 0.46822 0.0
H1693 H 0.94703 0.47032 0.4768 0.0
H1694 H 0.94956 0.46518 0.5265 0.0
H1695 H 0.9815 0.4811 0.53486 0.0
H1696 H 0.37361 0.06318 0.287 0.0
H1697 H 0.35586 0.08167 0.2716 0.0
H1698 H 0.40026 0.13328 0.28125 0.0
H1699 H 0.41835 0.1148 0.29665 0.0
H1700 H 0.3614 0.13345 0.29061 0.0
H1701 H 0.36858 0.10667 0.22082 0.0
H1702 H 0.36472 0.08922 0.2375 0.0
H1703 H 0.38541 0.10824 0.23914 0.0
C1704 C 0.37963 0.07847 0.28593 0.0
C1705 C 0.39739 0.08756 0.293 0.0
C1706 C 0.3695 0.08895 0.27704 0.0
C1707 C 0.37692 0.10867 0.27511 0.0
C1708 C 0.39445 0.11798 0.28252 0.0
H1709 H 0.32517 0.18152 0.21433 0.0
H1710 H 0.34626 0.16338 0.22387 0.0
C1711 C 0.40469 0.10745 0.29136 0.0
C1712 C 0.36595 0.11952 0.26578 0.0
H1713 H 0.34651 0.12376 0.22458 0.0
C1714 C 0.35827 0.13154 0.27616 0.0
C1715 C 0.36211 0.11701 0.24695 0.0
C1716 C 0.37069 0.10469 0.23533 0.0
C1717 C 0.34623 0.14067 0.26822 0.0
C1718 C 0.3416 0.13737 0.24946 0.0
C1719 C 0.3499 0.12598 0.23897 0.0
C1720 C 0.32791 0.1455 0.24078 0.0
C1721 C 0.3385 0.15369 0.28004 0.0
C1722 C 0.31029 0.14051 0.2462 0.0
C1723 C 0.29837 0.15107 0.24115 0.0
C1724 C 0.30375 0.16667 0.2303 0.0
C1725 C 0.32073 0.17003 0.22314 0.0
C1726 C 0.33278 0.1596 0.22846 0.0
H1727 H 0.34701 0.15881 0.29282 0.0
H1728 H 0.33717 0.16647 0.27304 0.0
H1729 H 0.32489 0.14549 0.28346 0.0
H1730 H 0.30617 0.1293 0.25537 0.0
H1731 H 0.28554 0.14794 0.24708 0.0
H1732 H 0.35392 0.18854 0.52376 0.0
H1733 H 0.37766 0.17168 0.52614 0.0
H1734 H 0.3375 0.11832 0.5326 0.0
H1735 H 0.31381 0.13498 0.53039 0.0
H1736 H 0.38578 0.1469 0.55542 0.0
H1737 H 0.3657 0.1074 0.48804 0.0
H1738 H 0.35956 0.12924 0.49441 0.0
H1739 H 0.34778 0.10666 0.50255 0.0
C1740 C 0.35016 0.17326 0.52585 0.0
C1741 C 0.3319 0.16315 0.52684 0.0
C1742 C 0.36376 0.16363 0.52721 0.0
C1743 C 0.35937 0.14366 0.52935 0.0
C1744 C 0.34122 0.13367 0.53076 0.0
H1745 H 0.41387 0.05287 0.52882 0.0
H1746 H 0.39268 0.0726 0.52878 0.0
C1747 C 0.32768 0.14327 0.52956 0.0
C1748 C 0.37358 0.13307 0.52974 0.0
H1749 H 0.38763 0.0983 0.50624 0.0
C1750 C 0.3863 0.13637 0.54462 0.0
C1751 C 0.3742 0.11924 0.5157 0.0
C1752 C 0.3612 0.11544 0.49917 0.0
C1753 C 0.39927 0.12585 0.54607 0.0
C1754 C 0.39989 0.11194 0.53202 0.0
C1755 C 0.38726 0.10887 0.51705 0.0
C1756 C 0.41315 0.10006 0.53269 0.0
C1757 C 0.41173 0.12924 0.56298 0.0
C1758 C 0.43189 0.10876 0.53479 0.0
C1759 C 0.44414 0.09743 0.53506 0.0
C1760 C 0.43801 0.07705 0.53308 0.0
C1761 C 0.41922 0.06843 0.53079 0.0
C1762 C 0.40701 0.07976 0.53059 0.0
H1763 H 0.40624 0.13595 0.57431 0.0
H1764 H 0.41409 0.1155 0.56709 0.0
H1765 H 0.42492 0.13924 0.5605 0.0
H1766 H 0.4371 0.12437 0.53602 0.0
H1767 H 0.45844 0.10469 0.53695 0.0
H1768 H 0.70343 0.57375 0.34692 0.0
H1769 H 0.72419 0.60568 0.34461 0.0
H1770 H 0.67902 0.62816 0.33107 0.0
H1771 H 0.6582 0.59645 0.33417 0.0
H1772 H 0.72835 0.62172 0.31443 0.0
H1773 H 0.70963 0.67285 0.36252 0.0
H1774 H 0.7017 0.64697 0.36358 0.0
H1775 H 0.69033 0.65916 0.34836 0.0
C1776 C 0.69792 0.58568 0.34403 0.0
C1777 C 0.67922 0.58265 0.34072 0.0
C1778 C 0.7098 0.60391 0.34267 0.0
C1779 C 0.70322 0.61941 0.33776 0.0
C1780 C 0.68445 0.61663 0.33534 0.0
H1781 H 0.73919 0.72105 0.28333 0.0
H1782 H 0.72361 0.69238 0.29772 0.0
C1783 C 0.67253 0.59845 0.33704 0.0
C1784 C 0.71592 0.63751 0.33276 0.0
H1785 H 0.72573 0.68681 0.33749 0.0
C1786 C 0.72802 0.63594 0.31978 0.0
C1787 C 0.71551 0.6561 0.33969 0.0
C1788 C 0.70371 0.65886 0.35444 0.0
C1789 C 0.7391 0.65238 0.31297 0.0
C1790 C 0.73805 0.67086 0.3193 0.0
C1791 C 0.72642 0.67255 0.33266 0.0
C1792 C 0.74784 0.68848 0.3111 0.0
C1793 C 0.75127 0.64989 0.29846 0.0
C1794 C 0.76667 0.69575 0.31388 0.0
C1795 C 0.7757 0.71222 0.30564 0.0
C1796 C 0.76602 0.72158 0.29444 0.0
C1797 C 0.74713 0.71416 0.29174 0.0
C1798 C 0.73815 0.69783 0.30004 0.0
H1799 H 0.74903 0.63447 0.29363 0.0
H1800 H 0.74904 0.65815 0.28686 0.0
H1801 H 0.76557 0.65574 0.30378 0.0
H1802 H 0.77433 0.68871 0.32246 0.0
H1803 H 0.79023 0.71761 0.30808 0.0
H1804 H 0.9394 0.48179 0.81731 0.0
H1805 H 0.91999 0.44864 0.8105 0.0
H1806 H 0.87283 0.46991 0.81074 0.0
H1807 H 0.892 0.50288 0.81703 0.0
H1808 H 0.89281 0.42525 0.82726 0.0
H1809 H 0.86616 0.4415 0.76144 0.0
H1810 H 0.88531 0.45793 0.77424 0.0
H1811 H 0.86269 0.45737 0.77944 0.0
C1812 C 0.92488 0.47932 0.81608 0.0
C1813 C 0.91722 0.49493 0.81743 0.0
C1814 C 0.91383 0.46043 0.81213 0.0
C1815 C 0.89501 0.45693 0.80959 0.0
C1816 C 0.88734 0.47237 0.81204 0.0
H1817 H 0.81221 0.34946 0.81159 0.0
H1818 H 0.83361 0.38141 0.81775 0.0
C1819 C 0.89833 0.49119 0.81576 0.0
C1820 C 0.88324 0.43724 0.80419 0.0
H1821 H 0.84979 0.41207 0.77302 0.0
C1822 C 0.88351 0.4223 0.81533 0.0
C1823 C 0.87142 0.43331 0.78838 0.0
C1824 C 0.8715 0.44833 0.77509 0.0
C1825 C 0.87175 0.40369 0.81145 0.0
C1826 C 0.85905 0.40014 0.79631 0.0
C1827 C 0.85929 0.4149 0.7848 0.0
C1828 C 0.84538 0.38126 0.79217 0.0
C1829 C 0.87318 0.388 0.82352 0.0
C1830 C 0.84418 0.37106 0.77535 0.0
C1831 C 0.83167 0.35297 0.77163 0.0
C1832 C 0.82021 0.34475 0.78472 0.0
C1833 C 0.82098 0.35533 0.8013 0.0
C1834 C 0.83334 0.3735 0.80491 0.0
H1835 H 0.88682 0.39126 0.83068 0.0
H1836 H 0.86324 0.38697 0.83381 0.0
H1837 H 0.87033 0.37372 0.81577 0.0
H1838 H 0.85322 0.37688 0.76525 0.0
H1839 H 0.83144 0.34516 0.75874 0.0
H1840 H 0.08996 0.84408 0.09274 0.0
H1841 H 0.08751 0.87381 0.07965 0.0
H1842 H 0.05988 0.88726 0.1251 0.0
H1843 H 0.06328 0.85826 0.13861 0.0
H1844 H 0.06117 0.88501 0.06737 0.0
H1845 H 0.09305 0.93883 0.12344 0.0
H1846 H 0.09386 0.91406 0.12336 0.0
H1847 H 0.07447 0.9209 0.13084 0.0
C1848 C 0.08369 0.8536 0.1001 0.0
C1849 C 0.07705 0.84885 0.11687 0.0
C1850 C 0.08219 0.87061 0.09255 0.0
C1851 C 0.07379 0.88327 0.10143 0.0
C1852 C 0.06703 0.87837 0.11814 0.0
H1853 H 0.0276 0.96389 0.04349 0.0
H1854 H 0.03337 0.93588 0.05716 0.0
C1855 C 0.06887 0.86159 0.12585 0.0
C1856 C 0.07132 0.90095 0.09285 0.0
H1857 H 0.07477 0.94919 0.10122 0.0
C1858 C 0.06434 0.89907 0.0748 0.0
C1859 C 0.0757 0.91959 0.10219 0.0
C1860 C 0.08487 0.92351 0.12095 0.0
C1861 C 0.06133 0.91491 0.06605 0.0
C1862 C 0.06458 0.93325 0.07576 0.0
C1863 C 0.07191 0.93523 0.09369 0.0
C1864 C 0.06076 0.95058 0.0676 0.0
C1865 C 0.0552 0.9118 0.04629 0.0
C1866 C 0.07376 0.96874 0.06952 0.0
C1867 C 0.07021 0.98501 0.06219 0.0
C1868 C 0.05364 0.98358 0.05249 0.0
C1869 C 0.0406 0.96549 0.05063 0.0
C1870 C 0.044 0.94934 0.05833 0.0
H1871 H 0.05952 0.89973 0.03969 0.0
H1872 H 0.04024 0.90784 0.04468 0.0
H1873 H 0.06064 0.92501 0.03919 0.0
H1874 H 0.08679 0.97034 0.0766 0.0
H1875 H 0.0806 0.99867 0.06387 0.0
H1876 H 0.968 0.26565 0.88252 0.0
H1877 H 0.94244 0.26671 0.86186 0.0
H1878 H 0.9096 0.26635 0.9066 0.0
H1879 H 0.93506 0.26577 0.92729 0.0
H1880 H 0.90871 0.24286 0.85382 0.0
H1881 H 0.903 0.3131 0.88334 0.0
H1882 H 0.92202 0.30397 0.88907 0.0
H1883 H 0.90122 0.29545 0.89959 0.0
C1884 C 0.95533 0.26574 0.88798 0.0
C1885 C 0.95375 0.2658 0.90667 0.0
C1886 C 0.94069 0.26637 0.87612 0.0
C1887 C 0.92412 0.2671 0.88263 0.0
C1888 C 0.92233 0.26641 0.9012 0.0
H1889 H 0.81921 0.27079 0.83413 0.0
H1890 H 0.84422 0.26707 0.8541 0.0
C1891 C 0.93695 0.26593 0.91305 0.0
C1892 C 0.90872 0.26854 0.8701 0.0
H1893 H 0.87892 0.29542 0.86243 0.0
C1894 C 0.90229 0.25443 0.85567 0.0
C1895 C 0.90026 0.28365 0.87238 0.0
C1896 C 0.90708 0.30001 0.88681 0.0
C1897 C 0.88751 0.25479 0.84378 0.0
C1898 C 0.87894 0.26974 0.84624 0.0
C1899 C 0.88537 0.28387 0.86061 0.0
C1900 C 0.86352 0.27124 0.83385 0.0
C1901 C 0.88094 0.23895 0.82886 0.0
C1902 C 0.86599 0.27491 0.81579 0.0
C1903 C 0.85174 0.27717 0.80435 0.0
C1904 C 0.83461 0.27576 0.81066 0.0
C1905 C 0.83214 0.27189 0.82874 0.0
C1906 C 0.84646 0.26979 0.84021 0.0
H1907 H 0.88618 0.22628 0.83117 0.0
H1908 H 0.86596 0.23405 0.82743 0.0
H1909 H 0.88565 0.24461 0.81598 0.0
H1910 H 0.87907 0.27639 0.8106 0.0
H1911 H 0.85424 0.28018 0.79057 0.0
H1912 H 0.5573 0.23525 0.6203 0.0
H1913 H 0.55173 0.20086 0.61031 0.0
H1914 H 0.58886 0.21629 0.56925 0.0
H1915 H 0.59417 0.25035 0.57876 0.0
H1916 H 0.559 0.19019 0.55564 0.0
H1917 H 0.58306 0.16485 0.61862 0.0
H1918 H 0.56544 0.1765 0.62135 0.0
H1919 H 0.58706 0.19018 0.61504 0.0
C1920 C 0.56431 0.23132 0.60917 0.0
C1921 C 0.5762 0.24575 0.6004 0.0
C1922 C 0.56122 0.21158 0.60354 0.0
C1923 C 0.57007 0.20581 0.58914 0.0
C1924 C 0.58186 0.22022 0.58039 0.0
H1925 H 0.57985 0.08988 0.55667 0.0
H1926 H 0.5852 0.12361 0.56876 0.0
C1927 C 0.58488 0.23982 0.58591 0.0
C1928 C 0.5668 0.18494 0.5826 0.0
H1929 H 0.56932 0.14067 0.59521 0.0
C1930 C 0.56126 0.1794 0.56435 0.0
C1931 C 0.57 0.17078 0.59378 0.0
C1932 C 0.57689 0.17585 0.61324 0.0
C1933 C 0.55874 0.16028 0.55705 0.0
C1934 C 0.56141 0.14598 0.56833 0.0
C1935 C 0.56713 0.15152 0.58654 0.0
C1936 C 0.55813 0.12525 0.56143 0.0
C1937 C 0.55362 0.15572 0.53716 0.0
C1938 C 0.54109 0.11471 0.55353 0.0
C1939 C 0.53803 0.09552 0.54653 0.0
C1940 C 0.55188 0.08615 0.54737 0.0
C1941 C 0.56888 0.09657 0.55565 0.0
C1942 C 0.57194 0.11589 0.56264 0.0
H1943 H 0.5573 0.16894 0.52967 0.0
H1944 H 0.5603 0.14511 0.53144 0.0
H1945 H 0.53879 0.14942 0.53494 0.0
H1946 H 0.53005 0.12133 0.55278 0.0
H1947 H 0.52468 0.08803 0.54048 0.0
H1948 H 0.57343 0.77887 0.41697 0.0
H1949 H 0.5999 0.7797 0.40009 0.0
H1950 H 0.56501 0.75453 0.35269 0.0
H1951 H 0.53853 0.75386 0.36938 0.0
H1952 H 0.61072 0.75022 0.38171 0.0
H1953 H 0.5984 0.80288 0.3347 0.0
H1954 H 0.58688 0.79844 0.35501 0.0
H1955 H 0.57956 0.78192 0.33532 0.0
C1956 C 0.57138 0.77348 0.40296 0.0
C1957 C 0.55382 0.76641 0.39452 0.0
C1958 C 0.58655 0.77396 0.39332 0.0
C1959 C 0.58452 0.76751 0.375 0.0
C1960 C 0.56699 0.76 0.36668 0.0
H1961 H 0.65647 0.76044 0.29114 0.0
H1962 H 0.63086 0.75846 0.3094 0.0
C1963 C 0.55183 0.7595 0.3763 0.0
C1964 C 0.60068 0.76863 0.3646 0.0
H1965 H 0.62133 0.78786 0.32799 0.0
C1966 C 0.61309 0.75853 0.37002 0.0
C1967 C 0.60385 0.7795 0.34934 0.0
C1968 C 0.59158 0.79146 0.34331 0.0
C1969 C 0.62826 0.75859 0.36036 0.0
C1970 C 0.63133 0.76934 0.34501 0.0
C1971 C 0.61898 0.77955 0.33968 0.0
C1972 C 0.64714 0.77009 0.33414 0.0
C1973 C 0.64058 0.74671 0.36641 0.0
C1974 C 0.66493 0.7774 0.34187 0.0
C1975 C 0.67967 0.77863 0.33141 0.0
C1976 C 0.67699 0.77272 0.31291 0.0
C1977 C 0.65913 0.76537 0.30525 0.0
C1978 C 0.64442 0.76413 0.31572 0.0
H1979 H 0.63388 0.73544 0.37521 0.0
H1980 H 0.64512 0.73955 0.35472 0.0
H1981 H 0.65269 0.75634 0.37419 0.0
H1982 H 0.66744 0.78253 0.35594 0.0
H1983 H 0.69317 0.78468 0.33775 0.0
H1984 H 0.05399 0.21144 0.3976 0.0
H1985 H 0.05422 0.18085 0.41124 0.0
H1986 H 0.02789 0.19758 0.45607 0.0
H1987 H 0.02723 0.22713 0.44275 0.0
H1988 H 0.0681 0.16828 0.44126 0.0
H1989 H 0.99502 0.1453 0.44805 0.0
H1990 H 1.00508 0.16548 0.43541 0.0
H1991 H 1.00477 0.16869 0.4595 0.0
C1992 C 0.04808 0.20864 0.41028 0.0
C1993 C 0.04036 0.22253 0.41853 0.0
C1994 C 0.04824 0.19083 0.41829 0.0
C1995 C 0.04056 0.18575 0.43489 0.0
C1996 C 0.03335 0.19988 0.44313 0.0
H1997 H 0.0258 0.09194 0.51268 0.0
H1998 H 0.02658 0.12069 0.49615 0.0
C1999 C 0.03316 0.21739 0.43527 0.0
C2000 C 0.04011 0.16637 0.44391 0.0
H2001 H 0.01262 0.12941 0.4657 0.0
C2002 C 0.0558 0.15981 0.44635 0.0
C2003 C 0.02435 0.15448 0.45102 0.0
C2004 C 1.00632 0.15871 0.44821 0.0
C2005 C 0.05632 0.14298 0.45576 0.0
C2006 C 0.04062 0.13132 0.46314 0.0
C2007 C 0.02491 0.13779 0.46051 0.0
C2008 C 0.04013 0.11277 0.47356 0.0
C2009 C 0.07418 0.13837 0.45831 0.0
C2010 C 0.04706 0.09749 0.46696 0.0
C2011 C 0.04649 0.08064 0.47654 0.0
C2012 C 0.03893 0.07783 0.49341 0.0
C2013 C 0.03181 0.09298 0.49992 0.0
C2014 C 0.03226 0.10977 0.49027 0.0
H2015 H 0.08568 0.15133 0.45722 0.0
H2016 H 0.07583 0.13266 0.47159 0.0
H2017 H 0.07487 0.12725 0.44765 0.0
H2018 H 0.0528 0.09834 0.45408 0.0
H2019 H 0.05213 0.06971 0.47061 0.0
H2020 H 0.60878 0.28736 0.1563 0.0
H2021 H 0.63659 0.28618 0.17227 0.0
H2022 H 0.61456 0.29495 0.2226 0.0
H2023 H 0.58587 0.29542 0.20631 0.0
H2024 H 0.66332 0.30631 0.18934 0.0
H2025 H 0.63705 0.2576 0.24166 0.0
H2026 H 0.62246 0.26152 0.22341 0.0
H2027 H 0.62916 0.27885 0.24269 0.0
C2028 C 0.60942 0.28897 0.17083 0.0
C2029 C 0.59411 0.29147 0.17949 0.0
C2030 C 0.62592 0.28835 0.18021 0.0
C2031 C 0.62877 0.2902 0.19921 0.0
C2032 C 0.61351 0.2928 0.20811 0.0
H2033 H 0.74686 0.31688 0.24496 0.0
H2034 H 0.71736 0.31849 0.23216 0.0
C2035 C 0.5967 0.29326 0.1986 0.0
C2036 C 0.64761 0.28984 0.20884 0.0
H2037 H 0.66851 0.27249 0.24427 0.0
C2038 C 0.6641 0.29878 0.20136 0.0
C2039 C 0.64992 0.28002 0.22463 0.0
C2040 C 0.63374 0.26878 0.23351 0.0
C2041 C 0.68172 0.29832 0.20868 0.0
C2042 C 0.68408 0.28905 0.22477 0.0
C2043 C 0.66762 0.27994 0.23221 0.0
C2044 C 0.70307 0.28828 0.23362 0.0
C2045 C 0.69767 0.30728 0.19832 0.0
C2046 C 0.70615 0.27111 0.24005 0.0
C2047 C 0.72344 0.27022 0.24778 0.0
C2048 C 0.73897 0.2865 0.24982 0.0
C2049 C 0.73583 0.30375 0.24373 0.0
C2050 C 0.71855 0.30464 0.23603 0.0
H2051 H 0.69353 0.30774 0.1839 0.0
H2052 H 0.70389 0.3224 0.2039 0.0
H2053 H 0.70799 0.29915 0.19917 0.0
H2054 H 0.69511 0.258 0.23886 0.0
H2055 H 0.72461 0.25651 0.25215 0.0
H2056 H 0.55034 0.84569 0.88875 0.0
H2057 H 0.549 0.87594 0.90516 0.0
H2058 H 0.5437 0.84744 0.95432 0.0
H2059 H 0.54488 0.81725 0.93796 0.0
H2060 H 0.5236 0.88744 0.92511 0.0
H2061 H 0.5837 0.89533 0.97189 0.0
H2062 H 0.57853 0.87836 0.95229 0.0
H2063 H 0.56697 0.87256 0.97229 0.0
C2064 C 0.54891 0.84573 0.90307 0.0
C2065 C 0.54781 0.82847 0.91173 0.0
C2066 C 0.54811 0.8633 0.9126 0.0
C2067 C 0.54654 0.86481 0.93143 0.0
C2068 C 0.54532 0.84749 0.94004 0.0
H2069 H 0.54635 0.96028 0.01537 0.0
H2070 H 0.54719 0.9303 0.99844 0.0
C2071 C 0.54587 0.82988 0.93049 0.0
C2072 C 0.54594 0.88407 0.94187 0.0
H2073 H 0.56604 0.91689 0.97785 0.0
C2074 C 0.53303 0.89381 0.93658 0.0
C2075 C 0.5579 0.89301 0.95717 0.0
C2076 C 0.57268 0.88444 0.96371 0.0
C2077 C 0.53144 0.9112 0.94601 0.0
C2078 C 0.54359 0.92037 0.96121 0.0
C2079 C 0.55654 0.91058 0.96643 0.0
C2080 C 0.54301 0.93962 0.97188 0.0
C2081 C 0.51598 0.91895 0.93985 0.0
C2082 C 0.54069 0.95603 0.96337 0.0
C2083 C 0.53993 0.97341 0.97324 0.0
C2084 C 0.54188 0.97572 0.9923 0.0
C2085 C 0.54471 0.95957 0.00084 0.0
C2086 C 0.54523 0.9421 0.99096 0.0
H2087 H 0.50467 0.90733 0.93287 0.0
H2088 H 0.51071 0.92569 0.9513 0.0
H2089 H 0.52068 0.92996 0.93013 0.0
H2090 H 0.53969 0.95568 0.94886 0.0
H2091 H 0.53799 0.98523 0.96579 0.0
H2092 H 0.96995 0.78992 0.66089 0.0
H2093 H 0.94164 0.78921 0.67461 0.0
H2094 H 0.96247 0.77146 0.72333 0.0
H2095 H 0.99092 0.77223 0.70956 0.0
H2096 H 0.92702 0.75244 0.71979 0.0
H2097 H 0.92675 0.82688 0.70688 0.0
H2098 H 0.92727 0.81251 0.6866 0.0
H2099 H 0.9461 0.81803 0.7033 0.0
C2100 C 0.96876 0.78585 0.67457 0.0
C2101 C 0.98359 0.78118 0.6837 0.0
C2102 C 0.95218 0.78562 0.6827 0.0
C2103 C 0.94898 0.78063 0.70065 0.0
C2104 C 0.96369 0.77555 0.70966 0.0
H2105 H 0.85844 0.80752 0.76306 0.0
H2106 H 0.88668 0.80753 0.74935 0.0
C2107 C 0.98039 0.776 0.70159 0.0
C2108 C 0.93071 0.7805 0.70973 0.0
H2109 H 0.89992 0.80728 0.71733 0.0
C2110 C 0.92129 0.76458 0.71906 0.0
C2111 C 0.92232 0.79608 0.70968 0.0
C2112 C 0.93117 0.81443 0.70126 0.0
C2113 C 0.90459 0.76362 0.72743 0.0
C2114 C 0.89594 0.77898 0.72694 0.0
C2115 C 0.90559 0.79509 0.71799 0.0
C2116 C 0.87753 0.77881 0.73577 0.0
C2117 C 0.89663 0.74602 0.73729 0.0
C2118 C 0.86158 0.76295 0.73325 0.0
C2119 C 0.84495 0.76299 0.74119 0.0
C2120 C 0.84288 0.77885 0.75241 0.0
C2121 C 0.85877 0.79474 0.75487 0.0
C2122 C 0.87534 0.79478 0.74676 0.0
H2123 H 0.90698 0.73864 0.74138 0.0
H2124 H 0.8904 0.74988 0.74948 0.0
H2125 H 0.88604 0.73558 0.72828 0.0
H2126 H 0.86173 0.75035 0.72471 0.0
H2127 H 0.83352 0.75035 0.73838 0.0
H2128 H 0.1256 0.02398 0.85755 0.0
H2129 H 0.11205 0.01932 0.88604 0.0
H2130 H 0.16125 0.01127 0.91055 0.0
H2131 H 0.1752 0.01623 0.88178 0.0
H2132 H 0.10729 0.98587 0.90585 0.0
H2133 H 0.14926 0.05326 0.9444 0.0
H2134 H 0.14818 0.05027 0.92017 0.0
H2135 H 0.16075 0.03764 0.93342 0.0
C2136 C 0.13366 0.02134 0.86898 0.0
C2137 C 0.1515 0.0205 0.86745 0.0
C2138 C 0.12584 0.01861 0.88524 0.0
C2139 C 0.13565 0.01497 0.90035 0.0
C2140 C 0.15354 0.01424 0.89902 0.0
H2141 H 0.09394 0.0129 0.00655 0.0
H2142 H 0.11256 0.00798 0.98241 0.0
C2143 C 0.16146 0.01705 0.88264 0.0
C2144 C 0.12673 0.01193 0.91729 0.0
H2145 H 0.12467 0.03451 0.95815 0.0
C2146 C 0.11122 0.99632 0.91743 0.0
C2147 C 0.13198 0.02555 0.93233 0.0
C2148 C 0.14839 0.04272 0.93269 0.0
C2149 C 0.10036 0.99441 0.93196 0.0
C2150 C 0.10504 0.00866 0.94655 0.0
C2151 C 0.12109 0.02366 0.94686 0.0
C2152 C 0.09287 0.00919 0.96101 0.0
C2153 C 0.08384 0.97737 0.9314 0.0
C2154 C 0.07552 0.01126 0.95695 0.0
C2155 C 0.06481 0.01409 0.97072 0.0
C2156 C 0.07141 0.01516 0.98877 0.0
C2157 C 0.08855 0.0124 0.99277 0.0
C2158 C 0.0992 0.0095 0.97901 0.0
H2159 H 0.08532 0.96495 0.92266 0.0
H2160 H 0.08111 0.97258 0.94505 0.0
H2161 H 0.07197 0.98161 0.92575 0.0
H2162 H 0.07054 0.01148 0.94313 0.0
H2163 H 0.05172 0.01628 0.96723 0.0
H2164 H 0.78778 0.41651 0.55206 0.0
H2165 H 0.79687 0.41144 0.58303 0.0
H2166 H 0.80199 0.35525 0.56528 0.0
H2167 H 0.79294 0.35997 0.53458 0.0
H2168 H 0.78044 0.37809 0.60437 0.0
H2169 H 0.85206 0.38543 0.59218 0.0
H2170 H 0.83741 0.39507 0.5779 0.0
H2171 H 0.83623 0.36975 0.57552 0.0
C2172 C 0.79071 0.40302 0.55477 0.0
C2173 C 0.78973 0.38871 0.54077 0.0
C2174 C 0.79595 0.4002 0.57244 0.0
C2175 C 0.80043 0.38315 0.57626 0.0
C2176 C 0.79891 0.36866 0.56247 0.0
H2177 H 0.82463 0.31281 0.65294 0.0
H2178 H 0.82093 0.33123 0.62726 0.0
C2179 C 0.79361 0.37137 0.54493 0.0
C2180 C 0.80648 0.37999 0.59462 0.0
H2181 H 0.84114 0.36878 0.61793 0.0
C2182 C 0.79382 0.37649 0.60758 0.0
C2183 C 0.82398 0.378 0.59863 0.0
C2184 C 0.83828 0.38243 0.58539 0.0
C2185 C 0.79781 0.36961 0.62407 0.0
C2186 C 0.81498 0.36649 0.62764 0.0
C2187 C 0.82798 0.37113 0.61508 0.0
C2188 C 0.81896 0.35645 0.64337 0.0
C2189 C 0.78328 0.36454 0.63704 0.0
C2190 C 0.81959 0.3648 0.66089 0.0
C2191 C 0.82178 0.35432 0.67561 0.0
C2192 C 0.82343 0.33537 0.67299 0.0
C2193 C 0.82356 0.32742 0.6554 0.0
C2194 C 0.82137 0.33789 0.64073 0.0
H2195 H 0.76993 0.36509 0.63104 0.0
H2196 H 0.782 0.34982 0.64152 0.0
H2197 H 0.787 0.37495 0.6491 0.0
H2198 H 0.81807 0.37925 0.66317 0.0
H2199 H 0.82195 0.36095 0.68903 0.0
H2200 H 0.43022 0.06443 0.37155 0.0
H2201 H 0.44906 0.0663 0.39967 0.0
H2202 H 0.49452 0.06493 0.36916 0.0
H2203 H 0.4762 0.06365 0.34141 0.0
H2204 H 0.46557 0.04022 0.41066 0.0
H2205 H 0.51745 0.10922 0.40564 0.0
H2206 H 0.49653 0.10229 0.39161 0.0
H2207 H 0.51533 0.09345 0.3857 0.0
C2208 C 0.44428 0.06474 0.37093 0.0
C2209 C 0.45175 0.06395 0.35432 0.0
C2210 C 0.45502 0.06586 0.38694 0.0
C2211 C 0.47331 0.06626 0.38647 0.0
C2212 C 0.48064 0.06532 0.36987 0.0
H2213 H 0.53502 0.02129 0.46225 0.0
H2214 H 0.52077 0.02989 0.43499 0.0
C2215 C 0.47004 0.06434 0.35399 0.0
C2216 C 0.4845 0.06594 0.40311 0.0
H2217 H 0.52598 0.08675 0.42495 0.0
C2218 C 0.47865 0.05057 0.41395 0.0
C2219 C 0.50148 0.07959 0.40748 0.0
C2220 C 0.50796 0.09717 0.39708 0.0
C2221 C 0.48966 0.04796 0.42859 0.0
C2222 C 0.50719 0.06077 0.43213 0.0
C2223 C 0.51272 0.0767 0.42187 0.0
C2224 C 0.51972 0.05778 0.44665 0.0
C2225 C 0.48241 0.03145 0.44009 0.0
C2226 C 0.52523 0.07137 0.46154 0.0
C2227 C 0.53385 0.06668 0.4769 0.0
C2228 C 0.53694 0.0484 0.47739 0.0
C2229 C 0.5329 0.03555 0.46196 0.0
C2230 C 0.52458 0.04035 0.44654 0.0
H2231 H 0.46741 0.02661 0.43877 0.0
H2232 H 0.48739 0.01896 0.43571 0.0
H2233 H 0.48698 0.03563 0.45449 0.0
H2234 H 0.52167 0.08493 0.46179 0.0
H2235 H 0.53659 0.07657 0.48887 0.0
H2236 H 0.78894 0.74433 0.06437 0.0
H2237 H 0.78923 0.75208 0.09663 0.0
H2238 H 0.79519 0.69581 0.10688 0.0
H2239 H 0.795 0.68787 0.07435 0.0
H2240 H 0.76711 0.70739 0.12613 0.0
H2241 H 0.83265 0.76401 0.13514 0.0
H2242 H 0.81747 0.76693 0.11702 0.0
H2243 H 0.82663 0.74649 0.11592 0.0
C2244 C 0.79051 0.73357 0.0734 0.0
C2245 C 0.79203 0.71543 0.06653 0.0
C2246 C 0.79071 0.7381 0.09197 0.0
C2247 C 0.79235 0.72465 0.10439 0.0
C2248 C 0.79396 0.70653 0.09767 0.0
H2249 H 0.81169 0.74623 0.22163 0.0
H2250 H 0.81253 0.73708 0.18973 0.0
C2251 C 0.79396 0.70203 0.07901 0.0
C2252 C 0.79191 0.72949 0.12423 0.0
H2253 H 0.81412 0.76109 0.15965 0.0
C2254 C 0.77744 0.71908 0.13345 0.0
C2255 C 0.80536 0.74472 0.13397 0.0
C2256 C 0.82151 0.75612 0.12511 0.0
C2257 C 0.77591 0.72371 0.15186 0.0
C2258 C 0.78916 0.73921 0.16149 0.0
C2259 C 0.80382 0.74934 0.15236 0.0
C2260 C 0.78833 0.74478 0.18112 0.0
C2261 C 0.76018 0.71183 0.16097 0.0
C2262 C 0.77452 0.75242 0.18717 0.0
C2263 C 0.77408 0.75789 0.20555 0.0
C2264 C 0.78733 0.7557 0.21844 0.0
C2265 C 0.80111 0.74803 0.21227 0.0
C2266 C 0.80167 0.74281 0.19392 0.0
H2267 H 0.75311 0.69819 0.15283 0.0
H2268 H 0.76477 0.70822 0.17436 0.0
H2269 H 0.75036 0.72037 0.16304 0.0
H2270 H 0.76417 0.75438 0.17763 0.0
H2271 H 0.76329 0.76379 0.20966 0.0
H2272 H 0.15965 0.02773 0.76452 0.0
H2273 H 0.14879 0.02685 0.7329 0.0
H2274 H 0.09734 0.03159 0.7491 0.0
H2275 H 0.1078 0.0322 0.78046 0.0
H2276 H 0.09482 1.00399 0.72 0.0
H2277 H 0.14202 0.07575 0.71027 0.0
H2278 H 0.15188 0.05748 0.71816 0.0
H2279 H 0.13792 0.06723 0.73227 0.0
C2280 C 0.14599 0.02846 0.76133 0.0
C2281 C 0.13468 0.03026 0.77505 0.0
C2282 C 0.13985 0.02801 0.74329 0.0
C2283 C 0.12236 0.02939 0.73876 0.0
C2284 C 0.11089 0.03053 0.75236 0.0
H2285 H 0.07026 0.07127 0.65344 0.0
H2286 H 0.08513 0.06453 0.68117 0.0
C2287 C 0.11696 0.03097 0.77031 0.0
C2288 C 0.11596 0.03056 0.71999 0.0
H2289 H 0.12068 0.06118 0.68637 0.0
C2290 C 0.1006 0.01633 0.71248 0.0
C2291 C 0.12348 0.04682 0.71042 0.0
C2292 C 0.13966 0.0628 0.71815 0.0
C2293 C 0.09213 0.01825 0.69586 0.0
C2294 C 0.09945 0.03471 0.68647 0.0
C2295 C 0.11517 0.0486 0.69368 0.0
C2296 C 0.09036 0.03845 0.6697 0.0
C2297 C 0.07498 1.00317 0.6889 0.0
C2298 C 0.08843 0.026 0.65416 0.0
C2299 C 0.0798 0.0297 0.63838 0.0
C2300 C 0.0731 0.04602 0.63788 0.0
C2301 C 0.0751 0.05848 0.65349 0.0
C2302 C 0.0837 0.05474 0.66926 0.0
H2303 H 0.0692 0.99357 0.69942 0.0
H2304 H 0.06467 0.01012 0.68374 0.0
H2305 H 0.0779 0.99404 0.67762 0.0
H2306 H 0.09367 0.01348 0.6542 0.0
H2307 H 0.07827 0.01971 0.62661 0.0
H2308 H 0.75579 0.36789 0.45589 0.0
H2309 H 0.75617 0.352 0.42624 0.0
H2310 H 0.77888 0.40747 0.40577 0.0
H2311 H 0.77806 0.42361 0.4355 0.0
H2312 H 0.75302 0.38189 0.3815 0.0
H2313 H 0.80352 0.34666 0.40851 0.0
H2314 H 0.78342 0.34156 0.42036 0.0
H2315 H 0.79765 0.36598 0.42103 0.0
C2316 C 0.76067 0.37674 0.44503 0.0
C2317 C 0.76708 0.39696 0.448 0.0
C2318 C 0.76096 0.36763 0.42813 0.0
C2319 C 0.768 0.37853 0.41397 0.0
C2320 C 0.77354 0.39881 0.41661 0.0
H2321 H 0.79536 0.34349 0.30854 0.0
H2322 H 0.79027 0.36213 0.33511 0.0
C2323 C 0.77304 0.408 0.43354 0.0
C2324 C 0.77026 0.36854 0.39675 0.0
H2325 H 0.7899 0.33513 0.37911 0.0
C2326 C 0.76118 0.37178 0.38091 0.0
C2327 C 0.78106 0.35547 0.39605 0.0
C2328 C 0.79212 0.35234 0.41236 0.0
C2329 C 0.76216 0.36177 0.36446 0.0
C2330 C 0.7725 0.34831 0.36393 0.0
C2331 C 0.7818 0.34532 0.37968 0.0
C2332 C 0.77415 0.33728 0.34714 0.0
C2333 C 0.75189 0.36532 0.3478 0.0
C2334 C 0.76678 0.31714 0.34518 0.0
C2335 C 0.76963 0.30641 0.33 0.0
C2336 C 0.78014 0.31565 0.31665 0.0
C2337 C 0.78726 0.3359 0.31858 0.0
C2338 C 0.78428 0.34662 0.33369 0.0
H2339 H 0.74221 0.37377 0.35099 0.0
H2340 H 0.76157 0.37351 0.33875 0.0
H2341 H 0.74438 0.35137 0.3404 0.0
H2342 H 0.75903 0.30971 0.35555 0.0
H2343 H 0.76398 0.29085 0.32896 0.0
H2344 H 0.4283 0.03988 0.25031 0.0
H2345 H 0.43789 0.03931 0.21966 0.0
H2346 H 0.48736 0.08306 0.23706 0.0
H2347 H 0.47823 0.08291 0.26787 0.0
H2348 H 0.45061 0.06384 0.19294 0.0
H2349 H 0.50431 0.03548 0.22468 0.0
H2350 H 0.48584 0.03922 0.23672 0.0
H2351 H 0.50466 0.0594 0.23321 0.0
C2352 C 0.44099 0.04972 0.24744 0.0
C2353 C 0.45278 0.06109 0.26135 0.0
C2354 C 0.44642 0.04944 0.22997 0.0
C2355 C 0.46354 0.06075 0.22631 0.0
C2356 C 0.47431 0.07387 0.23979 0.0
H2357 H 0.50814 0.053 0.12202 0.0
H2358 H 0.49579 0.06502 0.14833 0.0
C2359 C 0.4691 0.07379 0.25731 0.0
C2360 C 0.4712 0.05649 0.20947 0.0
H2361 H 0.50404 0.03793 0.19358 0.0
C2362 C 0.46235 0.05829 0.193 0.0
C2363 C 0.48634 0.04892 0.20972 0.0
C2364 C 0.49576 0.04545 0.227 0.0
C2365 C 0.46816 0.05248 0.17668 0.0
C2366 C 0.48336 0.04506 0.17701 0.0
C2367 C 0.49239 0.04365 0.19346 0.0
C2368 C 0.4898 0.03772 0.16058 0.0
C2369 C 0.45762 0.05367 0.15934 0.0
C2370 C 0.49085 0.01853 0.15902 0.0
C2371 C 0.49814 0.01175 0.14421 0.0
C2372 C 0.50437 0.02403 0.13071 0.0
C2373 C 0.50316 0.04319 0.13219 0.0
C2374 C 0.49604 0.05004 0.14711 0.0
H2375 H 0.44396 0.05516 0.16168 0.0
H2376 H 0.46494 0.06653 0.15265 0.0
H2377 H 0.45617 0.04064 0.15004 0.0
H2378 H 0.48616 0.00886 0.16937 0.0
H2379 H 0.49886 0.9969 0.14327 0.0
H2380 H 0.79419 0.73157 0.9757 0.0
H2381 H 0.79439 0.74302 0.94534 0.0
H2382 H 0.79079 0.68556 0.92269 0.0
H2383 H 0.79046 0.67407 0.95287 0.0
H2384 H 0.81859 0.74335 0.91921 0.0
H2385 H 0.75098 0.69836 0.89215 0.0
H2386 H 0.75795 0.70137 0.91586 0.0
H2387 H 0.7652 0.68464 0.90126 0.0
C2388 C 0.79326 0.72131 0.96426 0.0
C2389 C 0.7922 0.70181 0.96689 0.0
C2390 C 0.79343 0.72791 0.94682 0.0
C2391 C 0.79234 0.71518 0.93145 0.0
C2392 C 0.79125 0.69571 0.9341 0.0
H2393 H 0.7921 0.72852 0.81426 0.0
H2394 H 0.79207 0.71614 0.84425 0.0
C2395 C 0.79116 0.68914 0.95149 0.0
C2396 C 0.79294 0.72234 0.91278 0.0
H2397 H 0.76992 0.71533 0.87109 0.0
C2398 C 0.80787 0.73726 0.90876 0.0
C2399 C 0.77911 0.71442 0.89886 0.0
C2400 C 0.76232 0.69894 0.90223 0.0
C2401 C 0.80949 0.74417 0.89141 0.0
C2402 C 0.79558 0.73638 0.87751 0.0
C2403 C 0.78067 0.72139 0.88152 0.0
C2404 C 0.79599 0.74395 0.85899 0.0
C2405 C 0.82645 0.75943 0.88807 0.0
C2406 C 0.79802 0.76371 0.85691 0.0
C2407 C 0.79816 0.77083 0.83978 0.0
C2408 C 0.79609 0.75845 0.82396 0.0
C2409 C 0.79391 0.73861 0.82599 0.0
C2410 C 0.79381 0.73147 0.84323 0.0
H2411 H 0.83791 0.75918 0.89768 0.0
H2412 H 0.83041 0.75747 0.87419 0.0
H2413 H 0.82408 0.77392 0.88995 0.0
H2414 H 0.79919 0.77371 0.8686 0.0
H2415 H 0.79965 0.78614 0.83897 0.0
H2416 H 0.81228 0.09161 0.05561 0.0
H2417 H 0.83247 0.07059 0.05411 0.0
H2418 H 0.87599 0.11904 0.04233 0.0
H2419 H 0.85602 0.14012 0.04389 0.0
H2420 H 0.84983 0.06405 0.02314 0.0
H2421 H 0.89948 0.0938 0.08129 0.0
H2422 H 0.87764 0.09851 0.0792 0.0
H2423 H 0.89589 0.11202 0.06724 0.0
C2424 C 0.82625 0.09786 0.05306 0.0
C2425 C 0.83258 0.11751 0.04986 0.0
C2426 C 0.83773 0.08582 0.05216 0.0
C2427 C 0.85574 0.09331 0.04829 0.0
C2428 C 0.86222 0.11305 0.04567 0.0
H2429 H 0.94769 0.06086 0.01741 0.0
H2430 H 0.92387 0.07566 0.02513 0.0
C2431 C 0.85076 0.12506 0.04649 0.0
C2432 C 0.86743 0.08034 0.04541 0.0
H2433 H 0.90855 0.07438 0.05844 0.0
C2434 C 0.86254 0.06603 0.03103 0.0
C2435 C 0.88395 0.083 0.05575 0.0
C2436 C 0.8895 0.09754 0.07185 0.0
C2437 C 0.87424 0.05504 0.02607 0.0
C2438 C 0.8911 0.05829 0.03596 0.0
C2439 C 0.89563 0.07201 0.05082 0.0
C2440 C 0.90487 0.04874 0.03039 0.0
C2441 C 0.86889 0.04076 0.00977 0.0
C2442 C 0.90196 0.02864 0.03056 0.0
C2443 C 0.91559 0.0201 0.02609 0.0
C2444 C 0.93234 0.03162 0.02159 0.0
C2445 C 0.93499 0.05167 0.02105 0.0
C2446 C 0.92141 0.06014 0.02544 0.0
H2447 H 0.85698 0.04258 0.00171 0.0
H2448 H 0.88026 0.04234 0.00102 0.0
H2449 H 0.86544 0.02583 0.01417 0.0
H2450 H 0.88936 0.01964 0.03458 0.0
H2451 H 0.91327 1.00465 0.02676 0.0
H2452 H 0.35772 0.37737 0.00493 0.0
H2453 H 0.38671 0.40114 0.00318 0.0
H2454 H 0.36993 0.44201 0.0378 0.0
H2455 H 0.34048 0.41841 0.0391 0.0
H2456 H 0.38728 0.4598 0.01107 0.0
H2457 H 0.42832 0.41518 0.04018 0.0
H2458 H 0.41454 0.40299 0.02058 0.0
H2459 H 0.40408 0.40864 0.04035 0.0
C2460 C 0.36017 0.39137 0.01229 0.0
C2461 C 0.34674 0.39583 0.02234 0.0
C2462 C 0.37687 0.40496 0.01135 0.0
C2463 C 0.38082 0.42329 0.02074 0.0
C2464 C 0.36734 0.42795 0.03054 0.0
H2465 H 0.4791 0.51874 0.03974 0.0
H2466 H 0.44825 0.49772 0.03917 0.0
C2467 C 0.35049 0.4144 0.03131 0.0
C2468 C 0.39889 0.43759 0.02007 0.0
H2469 H 0.44437 0.44304 0.02626 0.0
C2470 C 0.39974 0.45614 0.01453 0.0
C2471 C 0.41527 0.43298 0.02464 0.0
C2472 C 0.41554 0.41394 0.03195 0.0
C2473 C 0.4164 0.46993 0.01307 0.0
C2474 C 0.43268 0.46509 0.01722 0.0
C2475 C 0.43187 0.44665 0.02286 0.0
C2476 C 0.45074 0.47909 0.01628 0.0
C2477 C 0.41655 0.4895 0.00682 0.0
C2478 C 0.46238 0.47579 0.00346 0.0
C2479 C 0.48002 0.48792 0.00361 0.0
C2480 C 0.48652 0.50344 0.01682 0.0
C2481 C 0.4746 0.507 0.02934 0.0
C2482 C 0.45691 0.49499 0.02903 0.0
H2483 H 0.40299 0.48994 0.00131 0.0
H2484 H 0.42101 0.50057 0.01834 0.0
H2485 H 0.42626 0.49347 0.99637 0.0
H2486 H 0.45794 0.46355 0.99354 0.0
H2487 H 0.4888 0.4846 0.99386 0.0
H2488 H 0.36596 0.55159 0.72916 0.0
H2489 H 0.34842 0.57472 0.73404 0.0
H2490 H 0.3975 0.62013 0.74845 0.0
H2491 H 0.41521 0.5969 0.7439 0.0
H2492 H 0.37262 0.61802 0.77334 0.0
H2493 H 0.34035 0.61803 0.70523 0.0
H2494 H 0.33698 0.59409 0.71251 0.0
H2495 H 0.35943 0.60842 0.70921 0.0
C2496 C 0.37307 0.56656 0.73306 0.0
C2497 C 0.39197 0.57243 0.73617 0.0
C2498 C 0.36302 0.57979 0.73575 0.0
C2499 C 0.37167 0.59918 0.7414 0.0
C2500 C 0.39058 0.60523 0.744 0.0
H2501 H 0.31477 0.68782 0.75082 0.0
H2502 H 0.33469 0.66814 0.7423 0.0
C2503 C 0.40067 0.59197 0.74134 0.0
C2504 C 0.36084 0.61264 0.74604 0.0
H2505 H 0.32704 0.63066 0.72965 0.0
C2506 C 0.36278 0.62096 0.76375 0.0
C2507 C 0.34815 0.61658 0.73346 0.0
C2508 C 0.34621 0.60897 0.71399 0.0
C2509 C 0.352 0.63273 0.76936 0.0
C2510 C 0.33866 0.63586 0.75701 0.0
C2511 C 0.33709 0.62799 0.73917 0.0
C2512 C 0.3264 0.64755 0.76223 0.0
C2513 C 0.35514 0.64183 0.7884 0.0
C2514 C 0.31492 0.64233 0.7761 0.0
C2515 C 0.30354 0.6536 0.78104 0.0
C2516 C 0.30325 0.67007 0.77197 0.0
C2517 C 0.31452 0.67504 0.75788 0.0
C2518 C 0.32597 0.66387 0.75306 0.0
H2519 H 0.36886 0.64258 0.79435 0.0
H2520 H 0.35342 0.65668 0.78901 0.0
H2521 H 0.3452 0.63293 0.7968 0.0
H2522 H 0.31473 0.62951 0.78306 0.0
H2523 H 0.29487 0.64936 0.79183 0.0
H2524 H 0.22988 0.65672 0.52619 0.0
H2525 H 0.19875 0.63655 0.52367 0.0
H2526 H 0.21641 0.58887 0.5429 0.0
H2527 H 0.24775 0.60888 0.54537 0.0
H2528 H 0.19128 0.57916 0.5117 0.0
H2529 H 0.16798 0.61989 0.56636 0.0
H2530 H 0.17929 0.6346 0.54965 0.0
H2531 H 0.19157 0.6223 0.5637 0.0
C2532 C 0.22721 0.64199 0.53 0.0
C2533 C 0.24136 0.63449 0.53613 0.0
C2534 C 0.20938 0.63049 0.52857 0.0
C2535 C 0.2053 0.61132 0.5333 0.0
C2536 C 0.21932 0.60368 0.53925 0.0
H2537 H 0.09837 0.54217 0.55169 0.0
H2538 H 0.13067 0.55802 0.55343 0.0
C2539 C 0.2372 0.61518 0.54072 0.0
C2540 C 0.18635 0.59928 0.53192 0.0
H2541 H 0.14534 0.59655 0.54794 0.0
C2542 C 0.18122 0.58286 0.51967 0.0
C2543 C 0.17335 0.60409 0.54248 0.0
C2544 C 0.1783 0.62108 0.55641 0.0
C2545 C 0.16327 0.5713 0.51744 0.0
C2546 C 0.15017 0.57649 0.5276 0.0
C2547 C 0.1554 0.5927 0.54007 0.0
C2548 C 0.13093 0.56525 0.52575 0.0
C2549 C 0.1585 0.55355 0.50442 0.0
C2550 C 0.12039 0.56387 0.50952 0.0
C2551 C 0.10184 0.55475 0.50844 0.0
C2552 C 0.09355 0.54703 0.52365 0.0
C2553 C 0.10428 0.54803 0.53974 0.0
C2554 C 0.12277 0.55708 0.54077 0.0
H2555 H 0.17065 0.54896 0.50109 0.0
H2556 H 0.14879 0.54131 0.50997 0.0
H2557 H 0.15206 0.5568 0.49176 0.0
H2558 H 0.12639 0.57039 0.49785 0.0
H2559 H 0.09395 0.55429 0.49587 0.0
H2560 H 0.71508 0.99052 0.73859 0.0
H2561 H 0.73428 0.97189 0.75146 0.0
H2562 H 0.68791 0.93398 0.77249 0.0
H2563 H 0.6686 0.9521 0.75926 0.0
H2564 H 0.739 0.97008 0.78737 0.0
H2565 H 0.71363 0.89578 0.75447 0.0
H2566 H 0.70782 0.91622 0.74549 0.0
H2567 H 0.69611 0.90452 0.76367 0.0
C2568 C 0.70888 0.97781 0.74542 0.0
C2569 C 0.69036 0.97283 0.748 0.0
C2570 C 0.71988 0.96727 0.75286 0.0
C2571 C 0.71252 0.95158 0.76295 0.0
C2572 C 0.69384 0.94582 0.76452 0.0
H2573 H 0.76102 0.88313 0.83223 0.0
H2574 H 0.74144 0.90259 0.82175 0.0
C2575 C 0.68281 0.95624 0.75695 0.0
C2576 C 0.72456 0.94266 0.77346 0.0
H2577 H 0.7331 0.89964 0.78121 0.0
C2578 C 0.73777 0.95468 0.78594 0.0
C2579 C 0.7228 0.92256 0.77171 0.0
C2580 C 0.70944 0.90905 0.75799 0.0
C2581 C 0.74931 0.94713 0.7967 0.0
C2582 C 0.74751 0.92708 0.79494 0.0
C2583 C 0.73419 0.915 0.78266 0.0
C2584 C 0.76047 0.91851 0.80426 0.0
C2585 C 0.76337 0.96053 0.80986 0.0
C2586 C 0.77781 0.92164 0.79836 0.0
C2587 C 0.78887 0.91033 0.80397 0.0
C2588 C 0.78278 0.89569 0.81568 0.0
C2589 C 0.76601 0.89395 0.82292 0.0
C2590 C 0.75483 0.9051 0.81704 0.0
H2591 H 0.76071 0.97486 0.81218 0.0
H2592 H 0.7639 0.95404 0.82292 0.0
H2593 H 0.77683 0.96281 0.80448 0.0
H2594 H 0.78229 0.93181 0.78834 0.0
H2595 H 0.8015 0.91203 0.79782 0.0
H2596 H 0.72835 0.87026 0.518 0.0
H2597 H 0.70484 0.88738 0.51844 0.0
H2598 H 0.74313 0.93758 0.54561 0.0
H2599 H 0.76672 0.92076 0.54484 0.0
H2600 H 0.68949 0.90384 0.54481 0.0
H2601 H 0.72528 0.96081 0.50287 0.0
H2602 H 0.73226 0.93918 0.50599 0.0
H2603 H 0.73848 0.9591 0.52296 0.0
C2604 C 0.73175 0.88491 0.52417 0.0
C2605 C 0.74951 0.89415 0.53125 0.0
C2606 C 0.71827 0.89471 0.52441 0.0
C2607 C 0.72222 0.914 0.53169 0.0
C2608 C 0.73977 0.92293 0.53945 0.0
H2609 H 0.64359 0.97848 0.55671 0.0
H2610 H 0.66514 0.95902 0.55816 0.0
C2611 C 0.75325 0.9132 0.53912 0.0
C2612 C 0.70815 0.92487 0.53088 0.0
H2613 H 0.69953 0.96585 0.51608 0.0
C2614 C 0.69169 0.91738 0.53849 0.0
C2615 C 0.71077 0.94243 0.52239 0.0
C2616 C 0.72757 0.95078 0.51293 0.0
C2617 C 0.67801 0.92705 0.53811 0.0
C2618 C 0.68091 0.94495 0.53017 0.0
C2619 C 0.69727 0.95227 0.52234 0.0
C2620 C 0.66711 0.95617 0.52941 0.0
C2621 C 0.66042 0.91774 0.54587 0.0
C2622 C 0.66112 0.96146 0.51284 0.0
C2623 C 0.64885 0.9727 0.51198 0.0
C2624 C 0.64222 0.97909 0.52769 0.0
C2625 C 0.64811 0.97363 0.54428 0.0
C2626 C 0.66046 0.96242 0.54514 0.0
H2627 H 0.65836 0.90193 0.54664 0.0
H2628 H 0.66058 0.92428 0.55971 0.0
H2629 H 0.64879 0.92005 0.53772 0.0
H2630 H 0.66596 0.95689 0.50048 0.0
H2631 H 0.6445 0.97634 0.49892 0.0
H2632 H 0.42156 0.45983 0.7551 0.0
H2633 H 0.39979 0.42922 0.76007 0.0
H2634 H 0.35652 0.4499 0.73731 0.0
H2635 H 0.3781 0.48056 0.73226 0.0
H2636 H 0.36784 0.42584 0.78117 0.0
H2637 H 0.35113 0.39553 0.71008 0.0
H2638 H 0.37166 0.41416 0.71726 0.0
H2639 H 0.35059 0.42015 0.71483 0.0
C2640 C 0.40744 0.45783 0.75098 0.0
C2641 C 0.40159 0.47265 0.74323 0.0
C2642 C 0.39504 0.44036 0.75389 0.0
C2643 C 0.37664 0.43733 0.74892 0.0
C2644 C 0.37073 0.45194 0.74104 0.0
H2645 H 0.28288 0.33877 0.75358 0.0
H2646 H 0.30312 0.37065 0.74919 0.0
C2647 C 0.38309 0.46947 0.73822 0.0
C2648 C 0.36351 0.41909 0.75255 0.0
H2649 H 0.33439 0.37799 0.73204 0.0
C2650 C 0.36052 0.41533 0.77047 0.0
C2651 C 0.35394 0.40559 0.73851 0.0
C2652 C 0.357 0.40889 0.71906 0.0
C2653 C 0.34804 0.39837 0.77475 0.0
C2654 C 0.33867 0.38466 0.76071 0.0
C2655 C 0.34158 0.38854 0.74277 0.0
C2656 C 0.32616 0.36593 0.7643 0.0
C2657 C 0.34478 0.39548 0.79423 0.0
C2658 C 0.33239 0.35283 0.77433 0.0
C2659 C 0.32082 0.33478 0.77696 0.0
C2660 C 0.303 0.32939 0.76927 0.0
C2661 C 0.29663 0.34261 0.75955 0.0
C2662 C 0.30817 0.36073 0.75699 0.0
H2663 H 0.3486 0.40947 0.80257 0.0
H2664 H 0.3304 0.38807 0.79582 0.0
H2665 H 0.35317 0.3864 0.7995 0.0
H2666 H 0.34627 0.35642 0.7799 0.0
H2667 H 0.3258 0.32507 0.78506 0.0
H2668 H 0.19625 0.56362 0.23607 0.0
H2669 H 0.21872 0.5951 0.23887 0.0
H2670 H 0.17776 0.62283 0.25256 0.0
H2671 H 0.15508 0.59146 0.24969 0.0
H2672 H 0.20251 0.64216 0.22758 0.0
H2673 H 0.23701 0.62418 0.28906 0.0
H2674 H 0.23394 0.60736 0.26962 0.0
H2675 H 0.2146 0.61037 0.28042 0.0
C2676 C 0.19192 0.5764 0.23948 0.0
C2677 C 0.17384 0.57496 0.2428 0.0
C2678 C 0.20483 0.59437 0.24115 0.0
C2679 C 0.19992 0.61118 0.2462 0.0
C2680 C 0.18179 0.60995 0.24872 0.0
H2681 H 0.25036 0.72477 0.29169 0.0
H2682 H 0.23336 0.69109 0.28397 0.0
C2683 C 0.16886 0.592 0.24707 0.0
C2684 C 0.21373 0.63 0.24958 0.0
H2685 H 0.24905 0.65507 0.2789 0.0
C2686 C 0.21282 0.64495 0.23865 0.0
C2687 C 0.22704 0.63355 0.26416 0.0
C2688 C 0.22823 0.61811 0.27662 0.0
C2689 C 0.22479 0.6635 0.24209 0.0
C2690 C 0.23793 0.66708 0.25677 0.0
C2691 C 0.23904 0.6521 0.26753 0.0
C2692 C 0.2494 0.68681 0.26215 0.0
C2693 C 0.22295 0.6794 0.23047 0.0
C2694 C 0.26429 0.69529 0.25264 0.0
C2695 C 0.27416 0.71455 0.25709 0.0
C2696 C 0.2691 0.72557 0.27098 0.0
C2697 C 0.25451 0.71673 0.28082 0.0
C2698 C 0.2448 0.69749 0.27648 0.0
H2699 H 0.21141 0.67447 0.22011 0.0
H2700 H 0.22107 0.69179 0.23896 0.0
H2701 H 0.23553 0.68472 0.22361 0.0
H2702 H 0.268 0.68715 0.24157 0.0
H2703 H 0.2853 0.72099 0.24925 0.0
H2704 H 0.52256 0.71195 0.4251 0.0
H2705 H 0.52855 0.68196 0.43454 0.0
H2706 H 0.50355 0.68805 0.48378 0.0
H2707 H 0.49731 0.71753 0.47449 0.0
H2708 H 0.5487 0.67543 0.46427 0.0
H2709 H 0.47766 0.6327 0.46627 0.0
H2710 H 0.48387 0.65507 0.45547 0.0
H2711 H 0.48261 0.65539 0.47946 0.0
C2712 C 0.51817 0.70681 0.43786 0.0
C2713 C 0.5093 0.71725 0.4489 0.0
C2714 C 0.52166 0.68965 0.44328 0.0
C2715 C 0.51624 0.68244 0.45979 0.0
C2716 C 0.50751 0.69292 0.47082 0.0
H2717 H 0.55555 0.6034 0.52493 0.0
H2718 H 0.55003 0.63138 0.51094 0.0
C2719 C 0.50404 0.70997 0.46546 0.0
C2720 C 0.52004 0.66433 0.46588 0.0
H2721 H 0.4999 0.62053 0.48158 0.0
C2722 C 0.538 0.66336 0.4679 0.0
C2723 C 0.50614 0.64836 0.47045 0.0
C2724 C 0.48648 0.6478 0.46764 0.0
C2725 C 0.54244 0.64727 0.47486 0.0
C2726 C 0.5286 0.63175 0.48029 0.0
C2727 C 0.5106 0.63245 0.4777 0.0
C2728 C 0.53242 0.61466 0.48866 0.0
C2729 C 0.56195 0.64698 0.47615 0.0
C2730 C 0.52409 0.59574 0.48115 0.0
C2731 C 0.52714 0.57965 0.48921 0.0
C2732 C 0.53854 0.58199 0.50511 0.0
C2733 C 0.54682 0.60095 0.51265 0.0
C2734 C 0.54376 0.61705 0.50456 0.0
H2735 H 0.5699 0.65669 0.46675 0.0
H2736 H 0.56798 0.65212 0.49 0.0
H2737 H 0.56319 0.63213 0.47316 0.0
H2738 H 0.51519 0.59339 0.46899 0.0
H2739 H 0.5204 0.56534 0.48302 0.0
H2740 H 0.61504 0.29656 0.67135 0.0
H2741 H 0.64011 0.29536 0.69254 0.0
H2742 H 0.67815 0.32237 0.65551 0.0
H2743 H 0.65327 0.32374 0.6343 0.0
H2744 H 0.66672 0.27626 0.68709 0.0
H2745 H 0.69806 0.35485 0.70283 0.0
H2746 H 0.6755 0.34529 0.69222 0.0
H2747 H 0.69473 0.34754 0.67921 0.0
C2748 C 0.62873 0.30249 0.66776 0.0
C2749 C 0.63202 0.31032 0.65105 0.0
C2750 C 0.64308 0.30172 0.67991 0.0
C2751 C 0.6611 0.30896 0.67578 0.0
C2752 C 0.66443 0.317 0.65922 0.0
H2753 H 0.75685 0.28097 0.72096 0.0
H2754 H 0.73128 0.28473 0.70204 0.0
C2755 C 0.65011 0.31769 0.64703 0.0
C2756 C 0.67636 0.30733 0.68838 0.0
H2757 H 0.71511 0.33376 0.71265 0.0
C2758 C 0.67724 0.28886 0.69273 0.0
C2759 C 0.69007 0.32373 0.69594 0.0
C2760 C 0.68953 0.344 0.69248 0.0
C2761 C 0.69159 0.28632 0.70402 0.0
C2762 C 0.70561 0.30268 0.7111 0.0
C2763 C 0.7045 0.32118 0.70712 0.0
C2764 C 0.72151 0.30082 0.72262 0.0
C2765 C 0.69151 0.26612 0.70842 0.0
C2766 C 0.72494 0.30903 0.74045 0.0
C2767 C 0.73963 0.30691 0.75138 0.0
C2768 C 0.75138 0.29668 0.74469 0.0
C2769 C 0.7481 0.28885 0.72669 0.0
C2770 C 0.73338 0.29089 0.71582 0.0
H2771 H 0.67785 0.25583 0.70581 0.0
H2772 H 0.7008 0.26092 0.6999 0.0
H2773 H 0.69623 0.26591 0.72271 0.0
H2774 H 0.71607 0.31686 0.74601 0.0
H2775 H 0.74171 0.31322 0.76512 0.0
H2776 H 0.02053 0.33409 0.92063 0.0
H2777 H 0.02256 0.36603 0.93515 0.0
H2778 H 1.00316 0.33969 0.98313 0.0
H2779 H 1.00169 0.30773 0.96884 0.0
H2780 H 0.99887 0.38277 0.94833 0.0
H2781 H 0.04796 0.37902 0.00419 0.0
H2782 H 0.04208 0.36136 0.98514 0.0
H2783 H 0.02747 0.35979 0.00324 0.0
C2784 C 0.01668 0.33507 0.93428 0.0
C2785 C 0.01111 0.31832 0.94362 0.0
C2786 C 0.01783 0.3534 0.94258 0.0
C2787 C 0.01339 0.35548 0.96044 0.0
C2788 C 1.00719 0.33866 0.96956 0.0
H2789 H 1.00043 0.4663 0.00756 0.0
H2790 H 0.99447 0.43289 0.99454 0.0
C2791 C 1.00621 0.32033 0.96131 0.0
C2792 C 0.01537 0.37522 0.96938 0.0
H2793 H 0.03583 0.40591 0.00588 0.0
C2794 C 1.00695 0.3878 0.96093 0.0
C2795 C 0.02612 0.38204 0.98572 0.0
C2796 C 0.03658 0.36994 0.99503 0.0
C2797 C 0.00897 0.40685 0.96826 0.0
C2798 C 0.01934 0.41348 0.98483 0.0
C2799 C 0.02771 0.40087 0.9933 0.0
C2800 C 0.02263 0.43374 0.99312 0.0
C2801 C 1.00049 0.41987 0.95779 0.0
C2802 C 0.0404 0.44531 0.99728 0.0
C2803 C 0.04383 0.46427 0.00498 0.0
C2804 C 0.02958 0.47233 0.00875 0.0
C2805 C 0.01175 0.46069 0.00475 0.0
C2806 C 1.00832 0.44158 0.99715 0.0
H2807 H 0.99737 0.41452 0.9434 0.0
H2808 H 0.98763 0.42028 0.96348 0.0
H2809 H 0.00949 0.43486 0.95862 0.0
H2810 H 0.05171 0.43972 0.99439 0.0
H2811 H 0.05776 0.47268 0.0078 0.0
H2812 H 0.01172 0.78933 0.13218 0.0
H2813 H 0.98422 0.78523 0.14814 0.0
H2814 H 0.01178 0.77165 0.19533 0.0
H2815 H 0.03933 0.77593 0.17958 0.0
H2816 H 0.96295 0.75416 0.16509 0.0
H2817 H 0.99353 0.81666 0.2145 0.0
H2818 H 1.00395 0.81234 0.19426 0.0
H2819 H 1.00597 0.7989 0.21344 0.0
C2820 C 0.01189 0.78529 0.1459 0.0
C2821 C 0.02781 0.78307 0.15461 0.0
C2822 C 0.99614 0.78298 0.15503 0.0
C2823 C 0.99598 0.77853 0.17309 0.0
C2824 C 0.01164 0.77553 0.18156 0.0
H2825 H 0.91949 0.76529 0.25536 0.0
H2826 H 0.94532 0.76719 0.2375 0.0
C2827 C 0.02738 0.77784 0.17246 0.0
C2828 C 0.97958 0.77732 0.18316 0.0
H2829 H 0.96466 0.79693 0.22003 0.0
C2830 C 0.96329 0.76357 0.17705 0.0
C2831 C 0.97996 0.78963 0.19877 0.0
C2832 C 0.99673 0.80534 0.20557 0.0
C2833 C 0.94758 0.76143 0.18637 0.0
C2834 C 0.94801 0.77364 0.20208 0.0
C2835 C 0.96427 0.78751 0.20806 0.0
C2836 C 0.93191 0.77211 0.21272 0.0
C2837 C 0.93083 0.7457 0.17959 0.0
C2838 C 0.91568 0.77443 0.20488 0.0
C2839 C 0.90073 0.77314 0.21506 0.0
C2840 C 0.90165 0.76963 0.2334 0.0
C2841 C 0.91804 0.7676 0.24123 0.0
C2842 C 0.93294 0.76885 0.23104 0.0
H2843 H 0.93403 0.73442 0.17061 0.0
H2844 H 0.92365 0.73866 0.19091 0.0
H2845 H 0.92155 0.75213 0.17176 0.0
H2846 H 0.9146 0.7774 0.19089 0.0
H2847 H 0.88838 0.77469 0.20847 0.0
H2848 H 0.54192 0.32542 0.1111 0.0
H2849 H 0.54314 0.35456 0.09506 0.0
H2850 H 0.54169 0.38641 0.14519 0.0
H2851 H 0.54067 0.35732 0.16122 0.0
H2852 H 0.52253 0.37721 0.08787 0.0
H2853 H 0.58074 0.4271 0.12763 0.0
H2854 H 0.57443 0.40144 0.13014 0.0
H2855 H 0.56276 0.41682 0.14128 0.0
C2856 C 0.54204 0.33862 0.1189 0.0
C2857 C 0.54137 0.33839 0.13786 0.0
C2858 C 0.54268 0.35561 0.10952 0.0
C2859 C 0.54292 0.37369 0.11844 0.0
C2860 C 0.54213 0.37342 0.13742 0.0
H2861 H 0.54643 0.49356 0.0827 0.0
H2862 H 0.54564 0.46492 0.09946 0.0
C2863 C 0.54139 0.35638 0.14679 0.0
C2864 C 0.54349 0.39222 0.10794 0.0
H2865 H 0.56446 0.4414 0.10722 0.0
C2866 C 0.53187 0.39113 0.09223 0.0
C2867 C 0.55539 0.4111 0.11299 0.0
C2868 C 0.56916 0.41424 0.12881 0.0
C2869 C 0.53148 0.40753 0.08217 0.0
C2870 C 0.5435 0.42639 0.08711 0.0
C2871 C 0.55509 0.42749 0.10286 0.0
C2872 C 0.54422 0.4448 0.07635 0.0
C2873 C 0.5174 0.40435 0.06662 0.0
C2874 C 0.54413 0.44441 0.05729 0.0
C2875 C 0.5445 0.46107 0.04752 0.0
C2876 C 0.54527 0.47947 0.05607 0.0
C2877 C 0.5458 0.48006 0.07516 0.0
C2878 C 0.54536 0.46333 0.08495 0.0
H2879 H 0.50566 0.39183 0.0683 0.0
H2880 H 0.51243 0.41731 0.06511 0.0
H2881 H 0.52336 0.4011 0.05406 0.0
H2882 H 0.54399 0.43112 0.04969 0.0
H2883 H 0.54422 0.45943 0.03301 0.0
H2884 H 0.99284 0.26029 0.34436 0.0
H2885 H 0.96402 0.26073 0.32794 0.0
H2886 H 0.9528 0.29539 0.37219 0.0
H2887 H 0.98099 0.29513 0.38824 0.0
H2888 H 0.92698 0.24816 0.33252 0.0
H2889 H 0.94167 0.32741 0.33387 0.0
H2890 H 0.95887 0.31573 0.33994 0.0
H2891 H 0.94347 0.31958 0.35606 0.0
C2892 C 0.98447 0.26829 0.35059 0.0
C2893 C 0.99017 0.27782 0.36804 0.0
C2894 C 0.96757 0.26844 0.34109 0.0
C2895 C 0.95546 0.27842 0.34823 0.0
C2896 C 0.96132 0.28788 0.36555 0.0
H2897 H 0.83565 0.25868 0.31402 0.0
H2898 H 0.86504 0.25732 0.3274 0.0
C2899 C 0.97788 0.28756 0.375 0.0
C2900 C 0.93692 0.27895 0.33826 0.0
H2901 H 0.91091 0.30975 0.32666 0.0
C2902 C 0.9237 0.26177 0.3313 0.0
C2903 C 0.93169 0.29639 0.33594 0.0
C2904 C 0.9447 0.31584 0.34166 0.0
C2905 C 0.9062 0.2615 0.32299 0.0
C2906 C 0.90072 0.27892 0.32129 0.0
C2907 C 0.91416 0.29611 0.32779 0.0
C2908 C 0.88165 0.2797 0.31272 0.0
C2909 C 0.89386 0.24223 0.31564 0.0
C2910 C 0.87972 0.29305 0.29992 0.0
C2911 C 0.86246 0.29387 0.29208 0.0
C2912 C 0.84577 0.2816 0.29665 0.0
C2913 C 0.84766 0.26845 0.30965 0.0
C2914 C 0.86492 0.26753 0.31738 0.0
H2915 H 0.90155 0.23158 0.31257 0.0
H2916 H 0.88441 0.23635 0.32586 0.0
H2917 H 0.88585 0.24364 0.30322 0.0
H2918 H 0.89175 0.30293 0.29569 0.0
H2919 H 0.86226 0.30437 0.28234 0.0
H2920 H 0.02998 0.71639 0.65427 0.0
H2921 H 0.02928 0.68388 0.64066 0.0
H2922 H 0.02981 0.70521 0.58811 0.0
H2923 H 0.03054 0.7371 0.6014 0.0
H2924 H 1.00768 0.65463 0.61535 0.0
H2925 H 0.07205 0.68325 0.58514 0.0
H2926 H 0.06391 0.69758 0.60152 0.0
H2927 H 0.05556 0.69531 0.57825 0.0
C2928 C 0.02952 0.71414 0.63979 0.0
C2929 C 0.03021 0.73004 0.62921 0.0
C2930 C 0.02931 0.69531 0.63186 0.0
C2931 C 0.03003 0.69147 0.61302 0.0
C2932 C 0.02985 0.70716 0.60258 0.0
H2933 H 0.03908 0.59747 0.53268 0.0
H2934 H 0.03746 0.62717 0.54943 0.0
C2935 C 0.03003 0.72572 0.61038 0.0
C2936 C 0.0312 0.67168 0.60406 0.0
H2937 H 0.05515 0.65141 0.57441 0.0
C2938 C 0.01823 0.65407 0.60656 0.0
C2939 C 0.04475 0.67006 0.59224 0.0
C2940 C 0.05996 0.6875 0.58923 0.0
C2941 C 0.01803 0.63579 0.59746 0.0
C2942 C 0.03151 0.6342 0.58549 0.0
C2943 C 0.0446 0.65183 0.58324 0.0
C2944 C 0.03223 0.61491 0.57499 0.0
C2945 C 1.00267 0.61844 0.60031 0.0
C2946 C 0.03012 0.5971 0.58308 0.0
C2947 C 0.03095 0.57968 0.57325 0.0
C2948 C 0.03417 0.57899 0.55474 0.0
C2949 C 0.03652 0.59682 0.54674 0.0
C2950 C 0.03563 0.61418 0.55653 0.0
H2951 H 0.99074 0.6228 0.60471 0.0
H2952 H 0.99847 0.60867 0.58785 0.0
H2953 H 1.00703 0.61028 0.61103 0.0
H2954 H 0.02813 0.59658 0.59725 0.0
H2955 H 0.02921 0.56668 0.58032 0.0
H2956 H 0.58563 0.76092 0.84057 0.0
H2957 H 0.6142 0.76167 0.82728 0.0
H2958 H 0.64332 0.79919 0.87244 0.0
H2959 H 0.61493 0.79729 0.88613 0.0
H2960 H 0.63978 0.78002 0.81241 0.0
H2961 H 0.67961 0.77289 0.87371 0.0
H2962 H 0.65575 0.77006 0.87369 0.0
H2963 H 0.67158 0.79389 0.87648 0.0
C2964 C 0.59808 0.76917 0.84795 0.0
C2965 C 0.59715 0.77877 0.86496 0.0
C2966 C 0.6149 0.7697 0.84012 0.0
C2967 C 0.63222 0.78003 0.84854 0.0
C2968 C 0.63112 0.79009 0.86533 0.0
H2969 H 0.74824 0.8094 0.81296 0.0
H2970 H 0.71992 0.80871 0.82701 0.0
C2971 C 0.61435 0.78924 0.87331 0.0
C2972 C 0.65077 0.78059 0.83966 0.0
H2973 H 0.69628 0.78267 0.84862 0.0
C2974 C 0.6519 0.78041 0.82066 0.0
C2975 C 0.6676 0.78104 0.84941 0.0
C2976 C 0.66858 0.77927 0.8694 0.0
C2977 C 0.66825 0.78103 0.81177 0.0
C2978 C 0.68506 0.78194 0.82157 0.0
C2979 C 0.68404 0.78218 0.84051 0.0
C2980 C 0.70335 0.78238 0.81254 0.0
C2981 C 0.66739 0.78115 0.7916 0.0
C2982 C 0.70489 0.7679 0.79936 0.0
C2983 C 0.72152 0.76812 0.79138 0.0
C2984 C 0.73794 0.78302 0.79564 0.0
C2985 C 0.73641 0.79759 0.80876 0.0
C2986 C 0.71983 0.79715 0.81704 0.0
H2987 H 0.65548 0.78552 0.78623 0.0
H2988 H 0.67979 0.79112 0.78718 0.0
H2989 H 0.66633 0.76637 0.78563 0.0
H2990 H 0.69314 0.75593 0.79534 0.0
H2991 H 0.72143 0.75634 0.78164 0.0
H2992 H 0.4279 0.56181 0.68704 0.0
H2993 H 0.43603 0.57124 0.65683 0.0
H2994 H 0.45472 0.52034 0.64828 0.0
H2995 H 0.44694 0.51109 0.67821 0.0
H2996 H 0.47265 0.57811 0.64747 0.0
H2997 H 0.42637 0.52242 0.60021 0.0
H2998 H 0.4209 0.52798 0.62275 0.0
H2999 H 0.43466 0.51175 0.61882 0.0
C3000 C 0.43328 0.55242 0.67845 0.0
C3001 C 0.43689 0.53579 0.68488 0.0
C3002 C 0.43793 0.55783 0.66128 0.0
C3003 C 0.44575 0.54635 0.6503 0.0
C3004 C 0.44838 0.5292 0.65641 0.0
H3005 H 0.53132 0.55035 0.59104 0.0
H3006 H 0.51052 0.55644 0.61255 0.0
C3007 C 0.44406 0.524 0.67355 0.0
C3008 C 0.45364 0.55312 0.63355 0.0
H3009 H 0.45699 0.53518 0.59116 0.0
C3010 C 0.46892 0.56914 0.63492 0.0
C3011 C 0.44857 0.54166 0.61712 0.0
C3012 C 0.43159 0.52511 0.61457 0.0
C3013 C 0.4804 0.57267 0.62089 0.0
C3014 C 0.47656 0.55963 0.60535 0.0
C3015 C 0.46017 0.54497 0.60323 0.0
C3016 C 0.4902 0.55915 0.59235 0.0
C3017 C 0.49694 0.58975 0.62322 0.0
C3018 C 0.48567 0.55851 0.57385 0.0
C3019 C 0.49741 0.55469 0.56154 0.0
C3020 C 0.5139 0.55141 0.56751 0.0
C3021 C 0.51877 0.55289 0.58603 0.0
C3022 C 0.50695 0.55658 0.59834 0.0
H3023 H 0.4944 0.60186 0.6316 0.0
H3024 H 0.50814 0.58545 0.63027 0.0
H3025 H 0.50129 0.59498 0.61008 0.0
H3026 H 0.47277 0.56029 0.56894 0.0
H3027 H 0.49329 0.55378 0.54733 0.0
H3028 H 0.80175 0.19312 0.00524 0.0
H3029 H 0.78885 0.20351 0.97829 0.0
H3030 H 0.76244 0.14396 0.96025 0.0
H3031 H 0.77593 0.13343 0.98696 0.0
H3032 H 0.777 0.16257 0.93353 0.0
H3033 H 0.73864 0.20691 0.9672 0.0
H3034 H 0.76181 0.21484 0.97581 0.0
H3035 H 0.7485 0.19068 0.9791 0.0
C3036 C 0.79321 0.18224 0.99551 0.0
C3037 C 0.78983 0.16249 0.99815 0.0
C3038 C 0.78565 0.1882 0.98023 0.0
C3039 C 0.77423 0.17454 0.96751 0.0
C3040 C 0.77105 0.15475 0.97 0.0
H3041 H 0.72807 0.22885 0.88084 0.0
H3042 H 0.72877 0.20768 0.90537 0.0
C3043 C 0.77882 0.14876 0.98519 0.0
C3044 C 0.76659 0.18106 0.95116 0.0
H3045 H 0.74704 0.21544 0.93719 0.0
C3046 C 0.77011 0.17385 0.93432 0.0
C3047 C 0.75705 0.19531 0.95208 0.0
C3048 C 0.7511 0.20218 0.96954 0.0
C3049 C 0.7657 0.18166 0.91851 0.0
C3050 C 0.75814 0.1975 0.91967 0.0
C3051 C 0.75322 0.20359 0.93633 0.0
C3052 C 0.75711 0.20925 0.90424 0.0
C3053 C 0.76956 0.1731 0.90076 0.0
C3054 C 0.77283 0.21738 0.89576 0.0
C3055 C 0.77242 0.22926 0.88181 0.0
C3056 C 0.75634 0.23354 0.87623 0.0
C3057 C 0.74062 0.22572 0.8849 0.0
C3058 C 0.741 0.21361 0.89882 0.0
H3059 H 0.76835 0.15741 0.90127 0.0
H3060 H 0.76023 0.17502 0.88958 0.0
H3061 H 0.78362 0.18031 0.89785 0.0
H3062 H 0.78557 0.21487 0.90017 0.0
H3063 H 0.78482 0.23547 0.87563 0.0
H3064 H 0.14176 0.50222 0.18505 0.0
H3065 H 0.12374 0.49102 0.15642 0.0
H3066 H 0.07859 0.46131 0.18485 0.0
H3067 H 0.09631 0.47305 0.21347 0.0
H3068 H 0.09979 0.45608 0.13705 0.0
H3069 H 0.06437 0.50803 0.16513 0.0
H3070 H 0.08543 0.50604 0.17541 0.0
H3071 H 0.06478 0.48786 0.17802 0.0
C3072 C 0.12823 0.49269 0.18511 0.0
C3073 C 0.1202 0.4888 0.20131 0.0
C3074 C 0.11797 0.48627 0.16879 0.0
C3075 C 0.09975 0.47574 0.16865 0.0
C3076 C 0.09254 0.46969 0.18477 0.0
H3077 H 0.02589 0.49223 0.08141 0.0
H3078 H 0.03493 0.47622 0.10704 0.0
C3079 C 0.10265 0.47641 0.20105 0.0
C3080 C 0.08764 0.47476 0.15243 0.0
H3081 H 0.0571 0.49671 0.13515 0.0
C3082 C 0.09017 0.46462 0.13666 0.0
C3083 C 0.07507 0.48592 0.15204 0.0
C3084 C 0.07226 0.49771 0.16848 0.0
C3085 C 0.08106 0.46613 0.12024 0.0
C3086 C 0.06944 0.47832 0.1197 0.0
C3087 C 0.06596 0.48731 0.13568 0.0
C3088 C 0.06339 0.48487 0.1027 0.0
C3089 C 0.08445 0.45527 0.10354 0.0
C3090 C 0.07642 0.49507 0.09195 0.0
C3091 C 0.07137 0.50436 0.07756 0.0
C3092 C 0.05317 0.50374 0.07369 0.0
C3093 C 0.04002 0.49304 0.08415 0.0
C3094 C 0.04513 0.48378 0.09866 0.0
H3095 H 0.08764 0.44165 0.10683 0.0
H3096 H 0.07262 0.45174 0.09351 0.0
H3097 H 0.09626 0.46434 0.09738 0.0
H3098 H 0.09064 0.4966 0.09515 0.0
H3099 H 0.08185 0.51228 0.06966 0.0
H3100 H 0.79392 0.82357 0.48383 0.0
H3101 H 0.79624 0.81086 0.45308 0.0
H3102 H 0.78828 0.86295 0.43265 0.0
H3103 H 0.78647 0.87584 0.46323 0.0
H3104 H 0.77334 0.80163 0.4241 0.0
H3105 H 0.83137 0.85999 0.40697 0.0
H3106 H 0.82462 0.85778 0.42961 0.0
H3107 H 0.81328 0.86934 0.41377 0.0
C3108 C 0.79282 0.83239 0.4728 0.0
C3109 C 0.79013 0.85083 0.47615 0.0
C3110 C 0.79412 0.82508 0.45514 0.0
C3111 C 0.79282 0.83601 0.44031 0.0
C3112 C 0.78991 0.85433 0.44369 0.0
H3113 H 0.76371 0.78991 0.32832 0.0
H3114 H 0.76454 0.80147 0.35976 0.0
C3115 C 0.78872 0.86167 0.4613 0.0
C3116 C 0.79388 0.82807 0.42134 0.0
H3117 H 0.81437 0.83901 0.38228 0.0
C3118 C 0.78243 0.80981 0.41505 0.0
C3119 C 0.80592 0.83838 0.40935 0.0
C3120 C 0.81963 0.85735 0.41532 0.0
C3121 C 0.78228 0.80193 0.39723 0.0
C3122 C 0.7936 0.81273 0.38495 0.0
C3123 C 0.80545 0.83072 0.3914 0.0
C3124 C 0.79323 0.80572 0.36543 0.0
C3125 C 0.77016 0.78188 0.3919 0.0
C3126 C 0.80916 0.8048 0.35753 0.0
C3127 C 0.80878 0.79835 0.33928 0.0
C3128 C 0.79244 0.79269 0.32832 0.0
C3129 C 0.77657 0.79388 0.33622 0.0
C3130 C 0.77699 0.8004 0.35439 0.0
H3131 H 0.76718 0.7733 0.40377 0.0
H3132 H 0.75713 0.78302 0.38563 0.0
H3133 H 0.77633 0.7739 0.3821 0.0
H3134 H 0.82195 0.80891 0.36556 0.0
H3135 H 0.82131 0.79775 0.33378 0.0
H3136 H 0.46619 0.52745 0.76491 0.0
H3137 H 0.48312 0.51999 0.79078 0.0
H3138 H 0.44159 0.52683 0.82475 0.0
H3139 H 0.4242 0.53364 0.79869 0.0
H3140 H 0.49729 0.54198 0.82059 0.0
H3141 H 0.44785 0.47548 0.83823 0.0
H3142 H 0.44565 0.48617 0.81727 0.0
H3143 H 0.43844 0.49566 0.83748 0.0
C3144 C 0.46057 0.52723 0.77785 0.0
C3145 C 0.44381 0.53101 0.77978 0.0
C3146 C 0.47027 0.52297 0.79262 0.0
C3147 C 0.46346 0.52252 0.80961 0.0
C3148 C 0.44685 0.52658 0.81165 0.0
H3149 H 0.52165 0.53801 0.91245 0.0
H3150 H 0.50706 0.54115 0.88341 0.0
C3151 C 0.43701 0.53064 0.79681 0.0
C3152 C 0.47419 0.51865 0.82528 0.0
H3153 H 0.47216 0.49014 0.86038 0.0
C3154 C 0.49186 0.53052 0.8292 0.0
C3155 C 0.46721 0.50344 0.83626 0.0
C3156 C 0.44882 0.48933 0.832 0.0
C3157 C 0.50253 0.52804 0.84418 0.0
C3158 C 0.49513 0.51364 0.85579 0.0
C3159 C 0.47772 0.5013 0.85153 0.0
C3160 C 0.50482 0.51185 0.87295 0.0
C3161 C 0.52163 0.54085 0.8474 0.0
C3162 C 0.5081 0.4942 0.87681 0.0
C3163 C 0.51616 0.49225 0.89356 0.0
C3164 C 0.52094 0.5079 0.90673 0.0
C3165 C 0.51792 0.52563 0.90266 0.0
C3166 C 0.50981 0.52753 0.88598 0.0
H3167 H 0.52705 0.54628 0.83467 0.0
H3168 H 0.52178 0.55359 0.85657 0.0
H3169 H 0.53074 0.53306 0.85365 0.0
H3170 H 0.5042 0.48189 0.86694 0.0
H3171 H 0.51816 0.47836 0.89639 0.0
H3172 H 0.81657 0.21397 0.08968 0.0
H3173 H 0.82108 0.22382 0.12167 0.0
H3174 H 0.81054 0.16414 0.13377 0.0
H3175 H 0.80582 0.15401 0.10152 0.0
H3176 H 0.78924 0.1841 0.15102 0.0
H3177 H 0.86086 0.2263 0.16075 0.0
H3178 H 0.84944 0.23349 0.1419 0.0
H3179 H 0.85196 0.20932 0.14147 0.0
C3180 C 0.81551 0.2029 0.09908 0.0
C3181 C 0.81072 0.18318 0.09303 0.0
C3182 C 0.81827 0.20859 0.1174 0.0
C3183 C 0.81639 0.19474 0.13009 0.0
C3184 C 0.81223 0.17506 0.12415 0.0
H3185 H 0.80229 0.22564 0.24354 0.0
H3186 H 0.80789 0.20648 0.21742 0.0
C3187 C 0.80957 0.16932 0.10574 0.0
C3188 C 0.81669 0.20096 0.14937 0.0
H3189 H 0.84098 0.23467 0.18193 0.0
C3190 C 0.8007 0.19477 0.15802 0.0
C3191 C 0.83166 0.21486 0.15842 0.0
C3192 C 0.84951 0.22123 0.15021 0.0
C3193 C 0.79881 0.20324 0.17493 0.0
C3194 C 0.81341 0.21806 0.18344 0.0
C3195 C 0.82978 0.22337 0.1753 0.0
C3196 C 0.81127 0.2297 0.19971 0.0
C3197 C 0.78085 0.19721 0.18301 0.0
C3198 C 0.81176 0.24918 0.19847 0.0
C3199 C 0.80859 0.26016 0.21329 0.0
C3200 C 0.80495 0.25188 0.2297 0.0
C3201 C 0.80496 0.23245 0.23106 0.0
C3202 C 0.8081 0.22145 0.21616 0.0
H3203 H 0.77019 0.18747 0.17351 0.0
H3204 H 0.78228 0.18947 0.19517 0.0
H3205 H 0.77637 0.21013 0.18717 0.0
H3206 H 0.81419 0.25579 0.18586 0.0
H3207 H 0.80879 0.27509 0.21178 0.0
H3208 H 0.12187 0.53507 0.27629 0.0
H3209 H 0.10821 0.54117 0.30373 0.0
H3210 H 0.1504 0.52599 0.33512 0.0
H3211 H 0.16457 0.52041 0.30747 0.0
H3212 H 0.09531 0.51239 0.32543 0.0
H3213 H 0.14554 0.57433 0.36361 0.0
H3214 H 0.14653 0.56829 0.33997 0.0
H3215 H 0.15407 0.55444 0.35647 0.0
C3216 C 0.12847 0.53342 0.28904 0.0
C3217 C 0.1442 0.52718 0.28983 0.0
C3218 C 0.12065 0.53691 0.3047 0.0
C3219 C 0.1283 0.53402 0.3214 0.0
C3220 C 0.14447 0.52859 0.32234 0.0
H3221 H 0.06472 0.51096 0.41365 0.0
H3222 H 0.08254 0.50841 0.38817 0.0
C3223 C 0.15251 0.52536 0.3066 0.0
C3224 C 0.11821 0.53489 0.3374 0.0
H3225 H 0.1198 0.55882 0.37842 0.0
C3226 C 0.10064 0.52255 0.33703 0.0
C3227 C 0.12525 0.54822 0.35239 0.0
C3228 C 0.14382 0.5622 0.35316 0.0
C3229 C 0.08975 0.52336 0.35117 0.0
C3230 C 0.09684 0.53651 0.36628 0.0
C3231 C 0.11448 0.54873 0.36677 0.0
C3232 C 0.08606 0.53802 0.38162 0.0
C3233 C 0.0706 0.51051 0.34957 0.0
C3234 C 0.08243 0.55562 0.38648 0.0
C3235 C 0.07254 0.55724 0.40122 0.0
C3236 C 0.06615 0.54126 0.41131 0.0
C3237 C 0.06963 0.52358 0.40623 0.0
C3238 C 0.07964 0.52202 0.39159 0.0
H3239 H 0.06582 0.50532 0.33538 0.0
H3240 H 0.06997 0.49765 0.35724 0.0
H3241 H 0.06121 0.51823 0.35514 0.0
H3242 H 0.08736 0.56812 0.37892 0.0
H3243 H 0.07031 0.57112 0.40498 0.0
H3244 H 0.80799 0.82347 0.57483 0.0
H3245 H 0.80462 0.81572 0.60588 0.0
H3246 H 0.76951 0.85278 0.61174 0.0
H3247 H 0.77333 0.86119 0.58048 0.0
H3248 H 0.79113 0.85726 0.64141 0.0
H3249 H 0.76387 0.77856 0.62573 0.0
H3250 H 0.78544 0.78716 0.61692 0.0
H3251 H 0.76664 0.79537 0.60848 0.0
C3252 C 0.79944 0.82999 0.58258 0.0
C3253 C 0.79079 0.84288 0.57482 0.0
C3254 C 0.79739 0.82536 0.60047 0.0
C3255 C 0.78635 0.8331 0.6113 0.0
C3256 C 0.77797 0.84634 0.60378 0.0
H3257 H 0.75719 0.78185 0.71429 0.0
H3258 H 0.75635 0.79186 0.68348 0.0
C3259 C 0.78016 0.85117 0.58581 0.0
C3260 C 0.784 0.82763 0.63045 0.0
H3261 H 0.77499 0.7888 0.65635 0.0
C3262 C 0.78744 0.84226 0.6446 0.0
C3263 C 0.77879 0.80808 0.63495 0.0
C3264 C 0.77328 0.79141 0.6207 0.0
C3265 C 0.7865 0.83797 0.66283 0.0
C3266 C 0.78247 0.81842 0.66737 0.0
C3267 C 0.77838 0.8038 0.65319 0.0
C3268 C 0.78263 0.81281 0.6866 0.0
C3269 C 0.7895 0.85457 0.677 0.0
C3270 C 0.79767 0.82095 0.69894 0.0
C3271 C 0.79806 0.8154 0.71668 0.0
C3272 C 0.78356 0.80122 0.72268 0.0
C3273 C 0.76858 0.79288 0.71031 0.0
C3274 C 0.76812 0.79859 0.69257 0.0
H3275 H 0.78603 0.86719 0.67143 0.0
H3276 H 0.78134 0.85033 0.68859 0.0
H3277 H 0.80399 0.85929 0.6819 0.0
H3278 H 0.80938 0.8314 0.6948 0.0
H3279 H 0.80998 0.82202 0.7256 0.0
H3280 H 0.77504 0.47613 0.51923 0.0
H3281 H 0.75791 0.49692 0.53239 0.0
H3282 H 0.71092 0.44793 0.53071 0.0
H3283 H 0.72787 0.42705 0.51748 0.0
H3284 H 0.72444 0.50141 0.5151 0.0
H3285 H 0.71622 0.47446 0.58303 0.0
H3286 H 0.73379 0.47108 0.56927 0.0
H3287 H 0.71107 0.45599 0.56473 0.0
C3288 C 0.76111 0.46974 0.52182 0.0
C3289 C 0.75277 0.44997 0.5173 0.0
C3290 C 0.75137 0.48163 0.52934 0.0
C3291 C 0.73326 0.47388 0.5327 0.0
C3292 C 0.72499 0.45409 0.52847 0.0
H3293 H 0.6397 0.50453 0.55989 0.0
H3294 H 0.66461 0.49035 0.55555 0.0
C3295 C 0.73465 0.44223 0.52081 0.0
C3296 C 0.72254 0.48663 0.53939 0.0
H3297 H 0.69726 0.49389 0.57368 0.0
C3298 C 0.7187 0.50006 0.52803 0.0
C3299 C 0.71513 0.48471 0.55623 0.0
C3300 C 0.71935 0.4709 0.56913 0.0
C3301 C 0.70678 0.5109 0.53263 0.0
C3302 C 0.6989 0.50858 0.54929 0.0
C3303 C 0.70336 0.49569 0.56096 0.0
C3304 C 0.68455 0.51775 0.55391 0.0
C3305 C 0.70192 0.52385 0.51916 0.0
C3306 C 0.6876 0.53794 0.55505 0.0
C3307 C 0.67327 0.54612 0.5573 0.0
C3308 C 0.65571 0.53419 0.55854 0.0
C3309 C 0.65299 0.51407 0.55855 0.0
C3310 C 0.66725 0.50595 0.55622 0.0
H3311 H 0.70622 0.52087 0.50561 0.0
H3312 H 0.68713 0.52204 0.51798 0.0
H3313 H 0.70875 0.53918 0.5237 0.0
H3314 H 0.70095 0.54733 0.5537 0.0
H3315 H 0.67578 0.56166 0.55728 0.0
H3316 H 0.24601 0.13879 0.51311 0.0
H3317 H 0.2174 0.11412 0.51511 0.0
H3318 H 0.18897 0.15803 0.51358 0.0
H3319 H 0.21734 0.18264 0.51111 0.0
H3320 H 0.19364 0.11011 0.54065 0.0
H3321 H 0.15871 0.11855 0.47605 0.0
H3322 H 0.18259 0.12932 0.48127 0.0
H3323 H 0.16646 0.14085 0.48985 0.0
C3324 C 0.23365 0.1432 0.51299 0.0
C3325 C 0.23406 0.16277 0.5118 0.0
C3326 C 0.21727 0.12905 0.51418 0.0
C3327 C 0.20089 0.13407 0.5142 0.0
C3328 C 0.20128 0.1536 0.51309 0.0
H3329 H 0.09579 0.07769 0.54791 0.0
H3330 H 0.12624 0.0981 0.5446 0.0
C3331 C 0.21761 0.16773 0.51177 0.0
C3332 C 0.18351 0.11909 0.51609 0.0
H3333 H 0.1403 0.10036 0.49716 0.0
C3334 C 0.18206 0.1079 0.53104 0.0
C3335 C 0.16832 0.11598 0.50351 0.0
C3336 C 0.16912 0.12667 0.48668 0.0
C3337 C 0.16576 0.09425 0.534 0.0
C3338 C 0.1505 0.09168 0.52176 0.0
C3339 C 0.15202 0.10244 0.50659 0.0
C3340 C 0.13264 0.07837 0.5248 0.0
C3341 C 0.16484 0.08265 0.55023 0.0
C3342 C 0.1262 0.06033 0.51496 0.0
C3343 C 0.10879 0.04848 0.51693 0.0
C3344 C 0.09738 0.05457 0.52862 0.0
C3345 C 0.10414 0.07246 0.5388 0.0
C3346 C 0.12157 0.0842 0.53693 0.0
H3347 H 0.17829 0.0849 0.55752 0.0
H3348 H 0.15568 0.0869 0.55959 0.0
H3349 H 0.15913 0.067 0.5461 0.0
H3350 H 0.13453 0.05558 0.50551 0.0
H3351 H 0.10405 0.03488 0.50878 0.0
H3352 H 0.17116 0.9679 0.80238 0.0
H3353 H 0.18791 0.94653 0.78931 0.0
H3354 H 0.23319 0.99588 0.78432 0.0
H3355 H 0.21669 0.01731 0.79725 0.0
H3356 H 0.21108 0.95593 0.75186 0.0
H3357 H 0.24603 0.95025 0.81793 0.0
H3358 H 0.22347 0.95315 0.81632 0.0
H3359 H 0.24229 0.97305 0.81262 0.0
C3360 C 0.18464 0.97419 0.7984 0.0
C3361 C 0.19264 0.99426 0.8009 0.0
C3362 C 0.19413 0.962 0.79091 0.0
C3363 C 0.2117 0.96974 0.7859 0.0
C3364 C 0.2196 0.98974 0.78811 0.0
H3365 H 0.29637 0.9162 0.76254 0.0
H3366 H 0.27934 0.93967 0.76873 0.0
C3367 C 0.21015 1.00192 0.79553 0.0
C3368 C 0.22223 0.95694 0.77907 0.0
H3369 H 0.2539 0.93459 0.79249 0.0
C3370 C 0.22043 0.95117 0.76067 0.0
C3371 C 0.23449 0.95107 0.79066 0.0
C3372 C 0.23679 0.95709 0.81052 0.0
C3373 C 0.23076 0.93961 0.75349 0.0
C3374 C 0.24289 0.93346 0.76514 0.0
C3375 C 0.24467 0.93938 0.78356 0.0
C3376 C 0.25345 0.92032 0.75881 0.0
C3377 C 0.22881 0.9344 0.73349 0.0
C3378 C 0.2446 0.90183 0.75077 0.0
C3379 C 0.25432 0.88851 0.74697 0.0
C3380 C 0.27306 0.8933 0.75141 0.0
C3381 C 0.282 0.91211 0.75876 0.0
C3382 C 0.27227 0.92549 0.76245 0.0
H3383 H 0.22362 0.94494 0.72603 0.0
H3384 H 0.24189 0.93381 0.72838 0.0
H3385 H 0.21901 0.91995 0.73055 0.0
H3386 H 0.23006 0.89738 0.74815 0.0
H3387 H 0.24706 0.8742 0.74109 0.0
H3388 H 0.34314 0.90737 0.96611 0.0
H3389 H 0.37487 0.92644 0.96984 0.0
H3390 H 0.36201 0.96391 0.01115 0.0
H3391 H 0.33044 0.94569 0.00691 0.0
H3392 H 0.38471 0.98451 0.991 0.0
H3393 H 0.40968 0.92243 0.01004 0.0
H3394 H 0.39838 0.91879 0.98794 0.0
H3395 H 0.38597 0.92088 0.00727 0.0
C3396 C 0.3471 0.91979 0.97584 0.0
C3397 C 0.33429 0.92497 0.98624 0.0
C3398 C 0.36524 0.93057 0.97809 0.0
C3399 C 0.3709 0.94634 0.99109 0.0
C3400 C 0.358 0.9518 0.00106 0.0
H3401 H 0.4791 0.99323 0.04117 0.0
H3402 H 0.44695 0.97727 0.03413 0.0
C3403 C 0.33991 0.94133 0.9986 0.0
C3404 C 0.3902 0.95714 0.99473 0.0
H3405 H 0.43173 0.95198 0.00747 0.0
C3406 C 0.39499 0.97739 0.99461 0.0
C3407 C 0.40356 0.94788 0.99977 0.0
C3408 C 0.39915 0.92633 0.00146 0.0
C3409 C 0.41269 0.98866 0.99956 0.0
C3410 C 0.42615 0.97936 0.00402 0.0
C3411 C 0.42141 0.9591 0.00398 0.0
C3412 C 0.44524 0.99027 0.0089 0.0
C3413 C 0.41655 0.01042 0.00056 0.0
C3414 C 0.4549 1.00304 0.99719 0.0
C3415 C 0.47314 0.0125 0.00139 0.0
C3416 C 0.48216 0.00893 0.01715 0.0
C3417 C 0.47247 0.99625 0.02894 0.0
C3418 C 0.45414 0.98709 0.02489 0.0
H3419 H 0.40414 0.01506 0.00257 0.0
H3420 H 0.42685 0.0174 0.01167 0.0
H3421 H 0.42166 0.01576 0.98772 0.0
H3422 H 0.44851 1.0053 0.98453 0.0
H3423 H 0.48034 0.02195 0.9919 0.0
H3424 H 0.87956 0.56169 0.77686 0.0
H3425 H 0.862 0.5809 0.76236 0.0
H3426 H 0.90319 0.63324 0.78086 0.0
H3427 H 0.92081 0.61408 0.79571 0.0
H3428 H 0.86951 0.63388 0.7894 0.0
H3429 H 0.86779 0.61043 0.71731 0.0
H3430 H 0.86134 0.59037 0.73096 0.0
H3431 H 0.88392 0.60623 0.734 0.0
C3432 C 0.88499 0.57728 0.77769 0.0
C3433 C 0.9015 0.58642 0.78748 0.0
C3434 C 0.87503 0.58821 0.76922 0.0
C3435 C 0.88149 0.60843 0.77026 0.0
C3436 C 0.89812 0.61761 0.77977 0.0
H3437 H 0.82368 0.68707 0.72799 0.0
H3438 H 0.84634 0.66926 0.73207 0.0
C3439 C 0.9081 0.60667 0.78828 0.0
C3440 C 0.86986 0.61995 0.76317 0.0
H3441 H 0.84452 0.62517 0.72578 0.0
C3442 C 0.86428 0.63223 0.77543 0.0
C3443 C 0.86317 0.61782 0.74491 0.0
C3444 C 0.86951 0.60564 0.731 0.0
C3445 C 0.85149 0.64174 0.7701 0.0
C3446 C 0.84399 0.63865 0.75213 0.0
C3447 C 0.85016 0.62716 0.73962 0.0
C3448 C 0.82938 0.64703 0.74648 0.0
C3449 C 0.84577 0.65471 0.7838 0.0
C3450 C 0.8122 0.63981 0.7526 0.0
C3451 C 0.79922 0.64983 0.75022 0.0
C3452 C 0.8033 0.66722 0.74172 0.0
C3453 C 0.8201 0.6736 0.73443 0.0
C3454 C 0.83308 0.66354 0.73681 0.0
H3455 H 0.85526 0.65846 0.79606 0.0
H3456 H 0.84487 0.66829 0.77798 0.0
H3457 H 0.83219 0.64719 0.78783 0.0
H3458 H 0.80918 0.62698 0.76002 0.0
H3459 H 0.7863 0.64448 0.75575 0.0
H3460 H 0.85464 0.68637 0.01772 0.0
H3461 H 0.87839 0.66956 0.02015 0.0
H3462 H 0.83921 0.61804 0.03325 0.0
H3463 H 0.8155 0.63461 0.03077 0.0
H3464 H 0.89073 0.65098 0.04891 0.0
H3465 H 0.86206 0.5985 0.99039 0.0
H3466 H 0.85502 0.62018 0.99478 0.0
H3467 H 0.84631 0.59928 0.00697 0.0
C3468 C 0.8511 0.67149 0.02122 0.0
C3469 C 0.83309 0.66185 0.02396 0.0
C3470 C 0.86471 0.66188 0.02259 0.0
C3471 C 0.8606 0.64237 0.02655 0.0
C3472 C 0.84272 0.63294 0.02979 0.0
H3473 H 0.91602 0.55331 0.03868 0.0
H3474 H 0.89477 0.57292 0.03638 0.0
C3475 C 0.82916 0.64251 0.02849 0.0
C3476 C 0.87485 0.63178 0.02724 0.0
H3477 H 0.88568 0.59213 0.00873 0.0
C3478 C 0.88971 0.6382 0.04003 0.0
C3479 C 0.87359 0.61508 0.01566 0.0
C3480 C 0.85849 0.60792 0.00105 0.0
C3481 C 0.90293 0.62805 0.04196 0.0
C3482 C 0.90153 0.61118 0.03053 0.0
C3483 C 0.88681 0.60497 0.01756 0.0
C3484 C 0.91485 0.59943 0.03209 0.0
C3485 C 0.91794 0.63514 0.05667 0.0
C3486 C 0.93334 0.60759 0.03023 0.0
C3487 C 0.94565 0.59639 0.03171 0.0
C3488 C 0.93979 0.57665 0.03499 0.0
C3489 C 0.9212 0.56849 0.03653 0.0
C3490 C 0.90894 0.57969 0.03507 0.0
H3491 H 0.91449 0.64489 0.06711 0.0
H3492 H 0.92103 0.62284 0.06323 0.0
H3493 H 0.9303 0.6434 0.05078 0.0
H3494 H 0.93828 0.62264 0.02752 0.0
H3495 H 0.9598 0.60329 0.0305 0.0
H3496 H 0.16379 0.10606 0.83551 0.0
H3497 H 0.1843 0.13737 0.82997 0.0
H3498 H 0.2284 0.11136 0.82812 0.0
H3499 H 0.20814 0.08011 0.83351 0.0
H3500 H 0.21957 0.16112 0.84683 0.0
H3501 H 0.22198 0.13089 0.77719 0.0
H3502 H 0.20509 0.11955 0.79182 0.0
H3503 H 0.22751 0.11674 0.79455 0.0
C3504 C 0.17793 0.1071 0.83435 0.0
C3505 C 0.18427 0.09052 0.83467 0.0
C3506 C 0.18961 0.12498 0.83116 0.0
C3507 C 0.20773 0.1265 0.8283 0.0
C3508 C 0.21437 0.11035 0.83 0.0
H3509 H 0.29744 0.22582 0.81358 0.0
H3510 H 0.27663 0.19748 0.82481 0.0
C3511 C 0.20275 0.09252 0.83311 0.0
C3512 C 0.21937 0.14439 0.82196 0.0
H3513 H 0.24202 0.16172 0.78592 0.0
C3514 C 0.22447 0.16134 0.83351 0.0
C3515 C 0.22544 0.14461 0.80447 0.0
C3516 C 0.21963 0.12705 0.79119 0.0
C3517 C 0.23592 0.17847 0.82813 0.0
C3518 C 0.24253 0.17846 0.81087 0.0
C3519 C 0.23706 0.16161 0.79921 0.0
C3520 C 0.255 0.19581 0.80446 0.0
C3521 C 0.24066 0.19648 0.84083 0.0
C3522 C 0.24993 0.2038 0.78899 0.0
C3523 C 0.26183 0.21978 0.7825 0.0
C3524 C 0.27891 0.22805 0.79144 0.0
C3525 C 0.2842 0.21979 0.80664 0.0
C3526 C 0.27229 0.20377 0.81314 0.0
H3527 H 0.23107 0.19541 0.85149 0.0
H3528 H 0.25437 0.19857 0.84744 0.0
H3529 H 0.24072 0.20946 0.83347 0.0
H3530 H 0.23677 0.19765 0.78191 0.0
H3531 H 0.25778 0.22552 0.77036 0.0
H3532 H 0.43619 0.98089 0.32185 0.0
H3533 H 0.41613 0.94782 0.31803 0.0
H3534 H 0.37226 0.96979 0.29888 0.0
H3535 H 0.3918 1.00259 0.30315 0.0
H3536 H 0.36126 0.94344 0.32201 0.0
H3537 H 0.39934 0.91527 0.27117 0.0
H3538 H 0.41233 0.92473 0.29202 0.0
H3539 H 0.40423 0.94068 0.27817 0.0
C3540 C 0.42225 0.97865 0.31691 0.0
C3541 C 0.41565 0.99443 0.31281 0.0
C3542 C 0.41084 0.95973 0.31459 0.0
C3543 C 0.39277 0.9563 0.30786 0.0
C3544 C 0.38615 0.97206 0.30405 0.0
H3545 H 0.31975 0.84868 0.26006 0.0
H3546 H 0.34011 0.88135 0.26599 0.0
C3547 C 0.39741 0.99087 0.30653 0.0
C3548 C 0.38046 0.93642 0.30488 0.0
H3549 H 0.37416 0.8927 0.28136 0.0
C3550 C 0.3641 0.93234 0.31313 0.0
C3551 C 0.38402 0.92206 0.29305 0.0
C3552 C 0.40084 0.9259 0.28294 0.0
C3553 C 0.35119 0.91435 0.30985 0.0
C3554 C 0.35497 0.8998 0.29844 0.0
C3555 C 0.37133 0.90385 0.29019 0.0
C3556 C 0.34215 0.88027 0.2949 0.0
C3557 C 0.33341 0.91138 0.31824 0.0
C3558 C 0.33655 0.86882 0.30916 0.0
C3559 C 0.32473 0.85031 0.30584 0.0
C3560 C 0.31853 0.8427 0.28815 0.0
C3561 C 0.3242 0.85415 0.27385 0.0
C3562 C 0.33589 0.87279 0.27721 0.0
H3563 H 0.3305 0.92537 0.32181 0.0
H3564 H 0.32207 0.90229 0.30905 0.0
H3565 H 0.33399 0.904 0.33079 0.0
H3566 H 0.34156 0.87407 0.32288 0.0
H3567 H 0.32086 0.84179 0.31716 0.0
H3568 H 0.57732 0.33698 0.5852 0.0
H3569 H 0.57278 0.36593 0.57231 0.0
H3570 H 0.57435 0.39303 0.62559 0.0
H3571 H 0.57832 0.36383 0.63854 0.0
H3572 H 0.54726 0.39861 0.60569 0.0
H3573 H 0.60712 0.4171 0.56619 0.0
H3574 H 0.59316 0.39301 0.56014 0.0
H3575 H 0.60427 0.39916 0.58242 0.0
C3576 C 0.57698 0.3492 0.5942 0.0
C3577 C 0.57831 0.34802 0.61295 0.0
C3578 C 0.57445 0.36587 0.58678 0.0
C3579 C 0.57347 0.382 0.59788 0.0
C3580 C 0.57508 0.38092 0.61663 0.0
H3581 H 0.58039 0.49681 0.56112 0.0
H3582 H 0.58566 0.46826 0.57404 0.0
C3583 C 0.57745 0.36419 0.62405 0.0
C3584 C 0.57 0.39959 0.59006 0.0
H3585 H 0.58477 0.43362 0.5601 0.0
C3586 C 0.55554 0.40628 0.59577 0.0
C3587 C 0.58085 0.40994 0.57724 0.0
C3588 C 0.59733 0.40458 0.57127 0.0
C3589 C 0.55154 0.42268 0.58899 0.0
C3590 C 0.56197 0.43258 0.57567 0.0
C3591 C 0.57656 0.42603 0.57011 0.0
C3592 C 0.5584 0.45009 0.56776 0.0
C3593 C 0.53646 0.42952 0.59662 0.0
C3594 C 0.54132 0.44963 0.55966 0.0
C3595 C 0.53817 0.46612 0.55236 0.0
C3596 C 0.55211 0.48348 0.55272 0.0
C3597 C 0.56926 0.4838 0.56059 0.0
C3598 C 0.57234 0.46738 0.56798 0.0
H3599 H 0.53357 0.42424 0.6101 0.0
H3600 H 0.53975 0.44556 0.59779 0.0
H3601 H 0.52397 0.42376 0.58759 0.0
H3602 H 0.5304 0.43642 0.55878 0.0
H3603 H 0.52485 0.46519 0.54627 0.0
H3604 H 0.43671 0.76189 0.42537 0.0
H3605 H 0.41036 0.76138 0.40545 0.0
H3606 H 0.44276 0.76623 0.35999 0.0
H3607 H 0.46916 0.76617 0.37984 0.0
H3608 H 0.4041 0.78814 0.38554 0.0
H3609 H 0.40014 0.7234 0.34002 0.0
H3610 H 0.41457 0.72919 0.3606 0.0
H3611 H 0.42163 0.74108 0.34066 0.0
C3612 C 0.43826 0.76262 0.4111 0.0
C3613 C 0.45516 0.76398 0.40427 0.0
C3614 C 0.42311 0.76236 0.39969 0.0
C3615 C 0.42434 0.76349 0.38108 0.0
C3616 C 0.44119 0.7648 0.37418 0.0
H3617 H 0.35262 0.77975 0.29287 0.0
H3618 H 0.37764 0.77599 0.31257 0.0
C3619 C 0.45637 0.76487 0.3856 0.0
C3620 C 0.4082 0.76426 0.36921 0.0
H3621 H 0.38165 0.74346 0.33102 0.0
C3622 C 0.39914 0.77823 0.37371 0.0
C3623 C 0.40158 0.75138 0.3537 0.0
C3624 C 0.40986 0.7353 0.34854 0.0
C3625 C 0.38403 0.77992 0.36307 0.0
C3626 C 0.37757 0.76721 0.34748 0.0
C3627 C 0.38656 0.75322 0.34295 0.0
C3628 C 0.3619 0.76866 0.3354 0.0
C3629 C 0.37537 0.79567 0.36834 0.0
C3630 C 0.34449 0.76545 0.34149 0.0
C3631 C 0.33002 0.76751 0.33018 0.0
C3632 C 0.33263 0.77289 0.3125 0.0
C3633 C 0.35002 0.77569 0.30638 0.0
C3634 C 0.36441 0.77351 0.31764 0.0
H3635 H 0.38415 0.80674 0.37836 0.0
H3636 H 0.37219 0.80296 0.35638 0.0
H3637 H 0.36252 0.78918 0.37437 0.0
H3638 H 0.3421 0.7614 0.35504 0.0
H3639 H 0.31686 0.76518 0.33538 0.0
H3640 H 0.05551 0.73568 0.12016 0.0
H3641 H 0.05075 0.70158 0.10934 0.0
H3642 H 0.08982 0.71899 0.07039 0.0
H3643 H 0.09467 0.75275 0.08096 0.0
H3644 H 0.03979 0.68316 0.07318 0.0
H3645 H 0.10774 0.67811 0.09686 0.0
H3646 H 0.09854 0.6972 0.1052 0.0
H3647 H 0.10783 0.6982 0.08367 0.0
C3648 C 0.06312 0.73226 0.10932 0.0
C3649 C 0.07554 0.74714 0.10155 0.0
C3650 C 0.06036 0.71273 0.10312 0.0
C3651 C 0.07013 0.70762 0.0892 0.0
C3652 C 0.08235 0.72244 0.08134 0.0
H3653 H 0.07644 0.5996 0.03225 0.0
H3654 H 0.08081 0.63352 0.04326 0.0
C3655 C 0.08502 0.74185 0.0874 0.0
C3656 C 0.06749 0.68692 0.08258 0.0
H3657 H 0.08967 0.65188 0.07747 0.0
C3658 C 0.05066 0.67628 0.07425 0.0
C3659 C 0.0817 0.67793 0.08374 0.0
C3660 C 0.09994 0.68835 0.09298 0.0
C3661 C 0.04776 0.65711 0.06682 0.0
C3662 C 0.06194 0.64805 0.06809 0.0
C3663 C 0.07878 0.65872 0.07641 0.0
C3664 C 0.05942 0.62737 0.06135 0.0
C3665 C 0.02963 0.64694 0.0572 0.0
C3666 C 0.0462 0.61246 0.06801 0.0
C3667 C 0.0437 0.59311 0.06177 0.0
C3668 C 0.05443 0.58799 0.04873 0.0
C3669 C 0.0679 0.60291 0.04226 0.0
C3670 C 0.07041 0.62235 0.04855 0.0
H3671 H 0.02236 0.65741 0.05265 0.0
H3672 H 0.03107 0.63759 0.04535 0.0
H3673 H 0.02116 0.63768 0.06655 0.0
H3674 H 0.03783 0.61577 0.07819 0.0
H3675 H 0.03322 0.58215 0.06721 0.0
H3676 H 0.03653 0.25121 0.87437 0.0
H3677 H 0.06308 0.25075 0.85818 0.0
H3678 H 0.09777 0.27956 0.90463 0.0
H3679 H 0.07126 0.27975 0.92103 0.0
H3680 H 0.09017 0.28128 0.84941 0.0
H3681 H 0.11895 0.23508 0.8925 0.0
H3682 H 0.0963 0.2372 0.89406 0.0
H3683 H 0.11528 0.25585 0.90449 0.0
C3684 C 0.0498 0.25729 0.88122 0.0
C3685 C 0.05174 0.26543 0.89905 0.0
C3686 C 0.06499 0.25705 0.87191 0.0
C3687 C 0.08248 0.26488 0.88022 0.0
C3688 C 0.08446 0.27303 0.89803 0.0
H3689 H 0.19009 0.27858 0.84213 0.0
H3690 H 0.16454 0.28015 0.85956 0.0
C3691 C 0.06926 0.27322 0.90737 0.0
C3692 C 0.09857 0.26512 0.86998 0.0
H3693 H 0.13699 0.25006 0.86993 0.0
C3694 C 0.10037 0.27439 0.85388 0.0
C3695 C 0.11197 0.25623 0.87581 0.0
C3696 C 0.1105 0.24537 0.89257 0.0
C3697 C 0.11521 0.27516 0.84359 0.0
C3698 C 0.12852 0.26612 0.84934 0.0
C3699 C 0.12682 0.25701 0.86552 0.0
C3700 C 0.14407 0.26558 0.83856 0.0
C3701 C 0.11663 0.28596 0.8268 0.0
C3702 C 0.14114 0.25676 0.82098 0.0
C3703 C 0.15571 0.25598 0.81092 0.0
C3704 C 0.17363 0.26385 0.81825 0.0
C3705 C 0.17652 0.27262 0.83592 0.0
C3706 C 0.16191 0.2734 0.84597 0.0
H3707 H 0.10851 0.29656 0.82706 0.0
H3708 H 0.13087 0.29376 0.82503 0.0
H3709 H 0.11142 0.27548 0.81494 0.0
H3710 H 0.12753 0.25029 0.81505 0.0
H3711 H 0.15289 0.24928 0.79733 0.0
H3712 H 0.52635 0.72706 0.94232 0.0
H3713 H 0.52732 0.69757 0.95566 0.0
H3714 H 0.55569 0.68246 0.91169 0.0
H3715 H 0.55517 0.71291 0.89821 0.0
H3716 H 0.51393 0.66214 0.95086 0.0
H3717 H 0.58615 0.66626 0.94781 0.0
H3718 H 0.57734 0.68619 0.94238 0.0
H3719 H 0.57484 0.66598 0.9261 0.0
C3720 C 0.533 0.71778 0.93517 0.0
C3721 C 0.54072 0.72336 0.91875 0.0
C3722 C 0.53347 0.70035 0.94308 0.0
C3723 C 0.54179 0.68688 0.93537 0.0
C3724 C 0.5495 0.69218 0.91879 0.0
H3725 H 0.55182 0.57088 0.97159 0.0
H3726 H 0.55224 0.59963 0.95517 0.0
C3727 C 0.54905 0.70989 0.91076 0.0
C3728 C 0.54168 0.6677 0.94471 0.0
H3729 H 0.56773 0.63757 0.95801 0.0
C3730 C 0.5259 0.65708 0.95237 0.0
C3731 C 0.55689 0.65999 0.94714 0.0
C3732 C 0.57482 0.67024 0.9406 0.0
C3733 C 0.52483 0.6399 0.9617 0.0
C3734 C 0.54008 0.63233 0.96433 0.0
C3735 C 0.55581 0.64273 0.95647 0.0
C3736 C 0.5399 0.61398 0.97498 0.0
C3737 C 0.50685 0.62964 0.96817 0.0
C3738 C 0.53312 0.61138 0.99223 0.0
C3739 C 0.53287 0.59461 0.00184 0.0
C3740 C 0.53945 0.57922 0.99492 0.0
C3741 C 0.54642 0.58189 0.97775 0.0
C3742 C 0.54674 0.59871 0.96818 0.0
H3743 H 0.49552 0.63293 0.9603 0.0
H3744 H 0.50465 0.61372 0.96722 0.0
H3745 H 0.5064 0.63465 0.98241 0.0
H3746 H 0.52816 0.62259 0.99864 0.0
H3747 H 0.52754 0.59383 0.01493 0.0
H3748 H 0.08833 0.8022 0.7054 0.0
H3749 H 0.11737 0.80153 0.72115 0.0
H3750 H 0.13117 0.7746 0.67324 0.0
H3751 H 0.10316 0.77597 0.65762 0.0
H3752 H 0.13673 0.77967 0.73319 0.0
H3753 H 0.17787 0.81195 0.6797 0.0
H3754 H 0.15415 0.8102 0.67913 0.0
H3755 H 0.16184 0.78999 0.67074 0.0
C3756 C 0.09745 0.79607 0.69813 0.0
C3757 C 0.09265 0.78932 0.67973 0.0
C3758 C 0.11448 0.79574 0.70727 0.0
C3759 C 0.12781 0.78867 0.69866 0.0
C3760 C 0.12242 0.78115 0.68062 0.0
H3761 H 0.22157 0.75859 0.76137 0.0
H3762 H 0.19207 0.75952 0.74805 0.0
C3763 C 0.10576 0.7817 0.67154 0.0
C3764 C 0.14687 0.78879 0.70804 0.0
H3765 H 0.19233 0.79634 0.70079 0.0
C3766 C 0.14878 0.78344 0.72591 0.0
C3767 C 0.16357 0.79405 0.69952 0.0
C3768 C 0.16433 0.80208 0.68132 0.0
C3769 C 0.16575 0.78272 0.73482 0.0
C3770 C 0.18224 0.78684 0.72587 0.0
C3771 C 0.18037 0.79268 0.70818 0.0
C3772 C 0.20132 0.78582 0.73443 0.0
C3773 C 0.16569 0.77818 0.75424 0.0
C3774 C 0.21785 0.79947 0.73123 0.0
C3775 C 0.23524 0.79859 0.73867 0.0
C3776 C 0.23749 0.78404 0.74996 0.0
C3777 C 0.22106 0.77031 0.7531 0.0
C3778 C 0.2037 0.77103 0.74546 0.0
H3779 H 0.15449 0.7821 0.76082 0.0
H3780 H 0.16362 0.7624 0.75498 0.0
H3781 H 0.17858 0.78605 0.76193 0.0
H3782 H 0.21744 0.81121 0.72297 0.0
H3783 H 0.24706 0.80964 0.73559 0.0
H3784 H 0.03254 0.31442 0.43224 0.0
H3785 H 0.03066 0.34451 0.44817 0.0
H3786 H 0.06381 0.37734 0.41023 0.0
H3787 H 0.06452 0.34721 0.39365 0.0
H3788 H 0.04774 0.37251 0.46726 0.0
H3789 H 0.0328 0.41058 0.40918 0.0
H3790 H 0.03304 0.38566 0.4067 0.0
H3791 H 0.05379 0.40487 0.40715 0.0
C3792 C 0.03925 0.32801 0.42703 0.0
C3793 C 0.04849 0.32779 0.4112 0.0
C3794 C 0.03826 0.3456 0.43637 0.0
C3795 C 0.04663 0.36419 0.43066 0.0
C3796 C 0.0563 0.36388 0.41504 0.0
H3797 H 0.06208 0.46824 0.51159 0.0
H3798 H 0.06408 0.43889 0.49463 0.0
C3799 C 0.05694 0.34627 0.40546 0.0
C3800 C 0.04564 0.38339 0.44125 0.0
H3801 H 0.04203 0.42994 0.43671 0.0
C3802 C 0.04637 0.38489 0.46032 0.0
C3803 C 0.04345 0.40021 0.43303 0.0
C3804 C 0.04052 0.40021 0.41291 0.0
C3805 C 0.04525 0.40182 0.47089 0.0
C3806 C 0.04416 0.41904 0.4627 0.0
C3807 C 0.04318 0.41746 0.44363 0.0
C3808 C 0.04353 0.43832 0.47336 0.0
C3809 C 0.0444 0.40044 0.49088 0.0
C3810 C 0.03219 0.44969 0.4673 0.0
C3811 C 0.03149 0.46726 0.47692 0.0
C3812 C 0.04197 0.47456 0.49334 0.0
C3813 C 0.05347 0.46341 0.4993 0.0
C3814 C 0.05443 0.44607 0.4895 0.0
H3815 H 0.03882 0.38522 0.49416 0.0
H3816 H 0.05825 0.40568 0.49755 0.0
H3817 H 0.03588 0.40916 0.49657 0.0
H3818 H 0.02352 0.44488 0.45506 0.0
H3819 H 0.02242 0.47503 0.47151 0.0
H3820 H 0.49305 0.27419 0.2105 0.0
H3821 H 0.4648 0.27297 0.22458 0.0
H3822 H 0.44162 0.28658 0.17505 0.0
H3823 H 0.46999 0.28799 0.16104 0.0
H3824 H 0.42799 0.30429 0.19934 0.0
H3825 H 0.41893 0.23363 0.22739 0.0
H3826 H 0.43995 0.25037 0.23577 0.0
H3827 H 0.43608 0.2424 0.2122 0.0
C3828 C 0.482 0.27678 0.20235 0.0
C3829 C 0.48459 0.28102 0.18415 0.0
C3830 C 0.46532 0.27591 0.21058 0.0
C3831 C 0.44982 0.2792 0.20129 0.0
C3832 C 0.45257 0.28373 0.18315 0.0
H3833 H 0.33665 0.2464 0.2437 0.0
H3834 H 0.36506 0.24716 0.22989 0.0
C3835 C 0.4692 0.28448 0.1749 0.0
C3836 C 0.43134 0.2784 0.21024 0.0
H3837 H 0.39956 0.2521 0.23726 0.0
C3838 C 0.42201 0.29274 0.20762 0.0
C3839 C 0.42226 0.26345 0.22112 0.0
C3840 C 0.42967 0.24647 0.22418 0.0
C3841 C 0.4052 0.29283 0.21532 0.0
C3842 C 0.39646 0.27826 0.22673 0.0
C3843 C 0.40556 0.26368 0.22902 0.0
C3844 C 0.37814 0.27773 0.23592 0.0
C3845 C 0.39669 0.30856 0.21046 0.0
C3846 C 0.3747 0.2943 0.24485 0.0
C3847 C 0.35808 0.29385 0.25296 0.0
C3848 C 0.34348 0.27676 0.25298 0.0
C3849 C 0.34696 0.26008 0.24433 0.0
C3850 C 0.36366 0.26053 0.23624 0.0
H3851 H 0.40113 0.31438 0.19754 0.0
H3852 H 0.38173 0.30323 0.20928 0.0
H3853 H 0.4009 0.3207 0.22104 0.0
H3854 H 0.38508 0.30792 0.24587 0.0
H3855 H 0.35673 0.30723 0.25932 0.0
H3856 H 0.62177 0.50378 0.35703 0.0
H3857 H 0.60919 0.50085 0.38619 0.0
H3858 H 0.6627 0.51225 0.41241 0.0
H3859 H 0.67556 0.51525 0.38301 0.0
H3860 H 0.61395 0.47593 0.41554 0.0
H3861 H 0.63982 0.55547 0.43297 0.0
H3862 H 0.63805 0.54511 0.41013 0.0
H3863 H 0.65551 0.54253 0.4259 0.0
C3864 C 0.63091 0.50555 0.36896 0.0
C3865 C 0.64967 0.50993 0.36778 0.0
C3866 C 0.62367 0.50375 0.38559 0.0
C3867 C 0.63503 0.50642 0.40136 0.0
C3868 C 0.65376 0.51023 0.4003 0.0
H3869 H 0.59917 0.52957 0.50629 0.0
H3870 H 0.61794 0.52274 0.48306 0.0
C3871 C 0.66106 0.51193 0.38356 0.0
C3872 C 0.62707 0.50651 0.41881 0.0
H3873 H 0.62021 0.5374 0.45219 0.0
C3874 C 0.6155 0.48928 0.42378 0.0
C3875 C 0.62916 0.52397 0.42941 0.0
C3876 C 0.64122 0.5429 0.4244 0.0
C3877 C 0.60562 0.48913 0.43897 0.0
C3878 C 0.60701 0.50678 0.44908 0.0
C3879 C 0.61912 0.52387 0.44443 0.0
C3880 C 0.59548 0.50829 0.46396 0.0
C3881 C 0.59378 0.47008 0.44394 0.0
C3882 C 0.57655 0.50215 0.46109 0.0
C3883 C 0.56575 0.50573 0.47454 0.0
C3884 C 0.57372 0.51597 0.49085 0.0
C3885 C 0.59263 0.52175 0.49381 0.0
C3886 C 0.60339 0.51783 0.48055 0.0
H3887 H 0.59896 0.45783 0.4392 0.0
H3888 H 0.59282 0.4699 0.45869 0.0
H3889 H 0.58001 0.46768 0.43735 0.0
H3890 H 0.57012 0.49528 0.44823 0.0
H3891 H 0.55121 0.50126 0.47186 0.0
H3892 H 0.28861 0.85285 0.03594 0.0
H3893 H 0.29751 0.84757 0.06659 0.0
H3894 H 0.29729 0.90559 0.08423 0.0
H3895 H 0.28828 0.91115 0.05347 0.0
H3896 H 0.3306 0.87226 0.08669 0.0
H3897 H 0.2673 0.86915 0.12026 0.0
H3898 H 0.26721 0.86472 0.09621 0.0
H3899 H 0.27581 0.88886 0.10652 0.0
C3900 C 0.29022 0.86447 0.04631 0.0
C3901 C 0.28781 0.88247 0.04219 0.0
C3902 C 0.29535 0.86142 0.06381 0.0
C3903 C 0.29807 0.87621 0.07756 0.0
C3904 C 0.29512 0.89398 0.07375 0.0
H3905 H 0.32343 0.85806 0.18988 0.0
H3906 H 0.31989 0.87542 0.16329 0.0
C3907 C 0.28997 0.8971 0.05617 0.0
C3908 C 0.30476 0.87301 0.09566 0.0
H3909 H 0.29116 0.86257 0.13734 0.0
C3910 C 0.3221 0.87039 0.09787 0.0
C3911 C 0.29367 0.87085 0.11018 0.0
C3912 C 0.27491 0.87344 0.10831 0.0
C3913 C 0.32838 0.8648 0.11409 0.0
C3914 C 0.31686 0.86143 0.12825 0.0
C3915 C 0.29992 0.86513 0.12639 0.0
C3916 C 0.32123 0.85208 0.1443 0.0
C3917 C 0.34712 0.86215 0.11578 0.0
C3918 C 0.32328 0.83332 0.14236 0.0
C3919 C 0.32518 0.82334 0.15745 0.0
C3920 C 0.32492 0.83193 0.17476 0.0
C3921 C 0.32347 0.851 0.17669 0.0
C3922 C 0.32154 0.86096 0.16156 0.0
H3923 H 0.35606 0.87118 0.1066 0.0
H3924 H 0.35332 0.8659 0.12976 0.0
H3925 H 0.34636 0.84678 0.11204 0.0
H3926 H 0.32263 0.82605 0.12913 0.0
H3927 H 0.32597 0.80857 0.15551 0.0
H3928 H 0.91581 0.53928 0.86466 0.0
H3929 H 0.92878 0.53066 0.89285 0.0
H3930 H 0.97989 0.57115 0.88529 0.0
H3931 H 0.96718 0.57958 0.85729 0.0
H3932 H 0.97922 0.52994 0.88899 0.0
H3933 H 0.94757 0.56318 0.94295 0.0
H3934 H 0.93369 0.54954 0.92378 0.0
H3935 H 0.94937 0.57239 0.92097 0.0
C3936 C 0.92961 0.54674 0.86941 0.0
C3937 C 0.94056 0.56008 0.85897 0.0
C3938 C 0.93701 0.54173 0.88535 0.0
C3939 C 0.95527 0.55023 0.89093 0.0
C3940 C 0.9658 0.5644 0.88106 0.0
H3941 H 0.04331 0.5534 0.96547 0.0
H3942 H 0.02317 0.55215 0.93837 0.0
C3943 C 0.95851 0.56927 0.86518 0.0
C3944 C 0.96415 0.54365 0.90627 0.0
H3945 H 0.97112 0.55003 0.95181 0.0
C3946 C 0.97731 0.53403 0.90278 0.0
C3947 C 0.96139 0.54888 0.92411 0.0
C3948 C 0.94729 0.55911 0.92834 0.0
C3949 C 0.98844 0.53024 0.91676 0.0
C3950 C 0.98653 0.53667 0.93455 0.0
C3951 C 0.97266 0.54532 0.93809 0.0
C3952 C 0.99915 0.53542 0.94972 0.0
C3953 C 1.00222 0.51963 0.91233 0.0
C3954 C 0.99229 0.52648 0.96492 0.0
C3955 C 1.00361 0.52761 0.98032 0.0
C3956 C 0.02197 0.53756 0.98074 0.0
C3957 C 0.02914 0.54569 0.96531 0.0
C3958 C 0.0177 0.54482 0.94988 0.0
H3959 H 0.99811 0.51042 0.89951 0.0
H3960 H 0.0153 0.53032 0.91072 0.0
H3961 H 1.00428 0.51038 0.92318 0.0
H3962 H 0.97806 0.51911 0.96503 0.0
H3963 H 0.99793 0.52087 0.99199 0.0
H3964 H 0.30608 0.19689 0.57664 0.0
H3965 H 0.30692 0.20444 0.60935 0.0
H3966 H 0.27329 0.24247 0.60039 0.0
H3967 H 0.27254 0.23534 0.56804 0.0
H3968 H 0.31769 0.24598 0.62953 0.0
H3969 H 0.24762 0.2022 0.63724 0.0
H3970 H 0.26041 0.19712 0.61898 0.0
H3971 H 0.25094 0.21728 0.61867 0.0
C3972 C 0.2989 0.2069 0.5816 0.0
C3973 C 0.28927 0.21547 0.56946 0.0
C3974 C 0.29939 0.21122 0.60036 0.0
C3975 C 0.29003 0.22394 0.60746 0.0
C3976 C 0.28051 0.23251 0.59538 0.0
H3977 H 0.26528 0.2647 0.7134 0.0
H3978 H 0.2658 0.25515 0.68143 0.0
C3979 C 0.28018 0.22841 0.57675 0.0
C3980 C 0.29016 0.22854 0.62737 0.0
H3981 H 0.26294 0.22259 0.66243 0.0
C3982 C 0.30579 0.24071 0.63678 0.0
C3983 C 0.27455 0.22201 0.63686 0.0
C3984 C 0.2574 0.20883 0.62754 0.0
C3985 C 0.30613 0.24682 0.65518 0.0
C3986 C 0.29054 0.2401 0.66481 0.0
C3987 C 0.27494 0.22781 0.65532 0.0
C3988 C 0.29009 0.24571 0.68457 0.0
C3989 C 0.32303 0.26111 0.66383 0.0
C3990 C 0.30328 0.24331 0.69739 0.0
C3991 C 0.30312 0.249 0.71569 0.0
C3992 C 0.28954 0.25691 0.72196 0.0
C3993 C 0.27598 0.2587 0.70923 0.0
C3994 C 0.27627 0.25322 0.69084 0.0
H3995 H 0.33111 0.2695 0.65368 0.0
H3996 H 0.31982 0.27145 0.67385 0.0
H3997 H 0.33159 0.25315 0.67075 0.0
H3998 H 0.31375 0.23694 0.69328 0.0
H3999 H 0.3137 0.24706 0.72497 0.0
H4000 H 0.66006 0.53588 0.26752 0.0
H4001 H 0.64984 0.54096 0.23694 0.0
H4002 H 0.59453 0.52304 0.25046 0.0
H4003 H 0.60451 0.51821 0.28094 0.0
H4004 H 0.62486 0.5163 0.20956 0.0
H4005 H 0.60135 0.5785 0.23509 0.0
H4006 H 0.61616 0.56829 0.24851 0.0
H4007 H 0.59228 0.55674 0.24593 0.0
C4008 C 0.64572 0.5328 0.2639 0.0
C4009 C 0.6331 0.52698 0.27672 0.0
C4010 C 0.63993 0.53572 0.24646 0.0
C4011 C 0.62149 0.5328 0.24167 0.0
C4012 C 0.60885 0.52582 0.25409 0.0
H4013 H 0.55053 0.54332 0.15333 0.0
H4014 H 0.56534 0.53804 0.18164 0.0
C4015 C 0.61459 0.52304 0.27148 0.0
C4016 C 0.6153 0.53784 0.22402 0.0
H4017 H 0.59178 0.56635 0.20476 0.0
C4018 C 0.61781 0.52738 0.20842 0.0
C4019 C 0.60622 0.55239 0.22268 0.0
C4020 C 0.60398 0.56477 0.23892 0.0
C4021 C 0.61071 0.53053 0.1915 0.0
C4022 C 0.6011 0.54464 0.19029 0.0
C4023 C 0.59907 0.55546 0.20582 0.0
C4024 C 0.59241 0.54795 0.17312 0.0
C4025 C 0.61294 0.51832 0.17516 0.0
C4026 C 0.6028 0.55559 0.15915 0.0
C4027 C 0.59439 0.55877 0.14302 0.0
C4028 C 0.57546 0.55443 0.14066 0.0
C4029 C 0.56513 0.54705 0.15483 0.0
C4030 C 0.57355 0.54389 0.17094 0.0
H4031 H 0.61769 0.50568 0.17884 0.0
H4032 H 0.6 0.51301 0.16672 0.0
H4033 H 0.62303 0.52726 0.16692 0.0
H4034 H 0.61739 0.55918 0.16077 0.0
H4035 H 0.6027 0.56472 0.13242 0.0
H4036 H 0.27377 0.92103 0.93715 0.0
H4037 H 0.27507 0.90681 0.90669 0.0
H4038 H 0.26479 0.8502 0.92673 0.0
H4039 H 0.26352 0.86412 0.95694 0.0
H4040 H 0.29681 0.86276 0.90663 0.0
H4041 H 0.23358 0.86992 0.87123 0.0
H4042 H 0.24801 0.89072 0.88438 0.0
H4043 H 0.23634 0.87005 0.89541 0.0
C4044 C 0.27153 0.90553 0.93496 0.0
C4045 C 0.26863 0.89369 0.94941 0.0
C4046 C 0.27224 0.89745 0.9176 0.0
C4047 C 0.26996 0.87748 0.91454 0.0
C4048 C 0.26657 0.86564 0.92886 0.0
H4049 H 0.2767 0.78977 0.83541 0.0
H4050 H 0.27353 0.80952 0.86207 0.0
C4051 C 0.26587 0.87364 0.94611 0.0
C4052 C 0.27226 0.86877 0.89679 0.0
H4053 H 0.25142 0.85421 0.85482 0.0
C4054 C 0.28698 0.86102 0.89524 0.0
C4055 C 0.25946 0.86669 0.882 0.0
C4056 C 0.24337 0.87467 0.88321 0.0
C4057 C 0.28903 0.85078 0.87936 0.0
C4058 C 0.27579 0.84791 0.86481 0.0
C4059 C 0.26143 0.85631 0.8661 0.0
C4060 C 0.27644 0.83574 0.84839 0.0
C4061 C 0.30533 0.84309 0.87832 0.0
C4062 C 0.27843 0.8438 0.83177 0.0
C4063 C 0.28013 0.83253 0.81647 0.0
C4064 C 0.2798 0.81297 0.81754 0.0
C4065 C 0.27715 0.80479 0.83412 0.0
C4066 C 0.27543 0.81608 0.8494 0.0
H4067 H 0.31646 0.85098 0.88836 0.0
H4068 H 0.30152 0.82761 0.88116 0.0
H4069 H 0.31041 0.84419 0.86472 0.0
H4070 H 0.27912 0.85893 0.83073 0.0
H4071 H 0.28207 0.83928 0.80389 0.0
H4072 H 0.99233 0.56472 0.77921 0.0
H4073 H 1.00318 0.56133 0.74955 0.0
H4074 H 0.94854 0.54702 0.72555 0.0
H4075 H 0.93751 0.55064 0.75515 0.0
H4076 H 0.99171 0.52543 0.73022 0.0
H4077 H 0.97717 0.583 0.6904 0.0
H4078 H 0.97816 0.58441 0.71466 0.0
H4079 H 0.95847 0.56945 0.70171 0.0
C4080 C 0.98263 0.56125 0.7676 0.0
C4081 C 0.96403 0.55765 0.76954 0.0
C4082 C 0.98887 0.5594 0.75068 0.0
C4083 C 0.97665 0.55398 0.73544 0.0
C4084 C 0.95819 0.55152 0.73715 0.0
H4085 H 0.98412 0.50816 0.62757 0.0
H4086 H 0.97385 0.51903 0.65571 0.0
C4087 C 0.95192 0.55348 0.75409 0.0
C4088 C 0.98293 0.54822 0.71832 0.0
H4089 H 0.98546 0.55758 0.67423 0.0
C4090 C 0.9905 0.53256 0.71801 0.0
C4091 C 0.98107 0.55744 0.70245 0.0
C4092 C 0.97341 0.57462 0.70227 0.0
C4093 C 0.99616 0.52571 0.70213 0.0
C4094 C 0.9944 0.53497 0.68627 0.0
C4095 C 0.98676 0.55059 0.68651 0.0
C4096 C 1.00061 0.52868 0.66933 0.0
C4097 C 1.00365 0.50839 0.70235 0.0
C4098 C 0.01901 0.53064 0.66784 0.0
C4099 C 0.0249 0.52448 0.65187 0.0
C4100 C 0.01245 0.51636 0.63714 0.0
C4101 C 0.994 0.51447 0.6387 0.0
C4102 C 0.98812 0.52065 0.65469 0.0
H4103 H 1.00022 0.5003 0.71445 0.0
H4104 H 0.99846 0.49836 0.69018 0.0
H4105 H 0.01858 0.51336 0.70242 0.0
H4106 H 0.02882 0.53709 0.67899 0.0
H4107 H 0.03923 0.52646 0.65091 0.0
H4108 H 0.29496 0.17818 0.45583 0.0
H4109 H 0.29622 0.19047 0.42597 0.0
H4110 H 0.29226 0.24541 0.44872 0.0
H4111 H 0.29091 0.23309 0.47877 0.0
H4112 H 0.2703 0.23322 0.41691 0.0
H4113 H 0.33914 0.22769 0.4061 0.0
H4114 H 0.32407 0.20539 0.41159 0.0
H4115 H 0.33013 0.22593 0.42787 0.0
C4116 C 0.29434 0.19289 0.45456 0.0
C4117 C 0.29291 0.20461 0.46989 0.0
C4118 C 0.29521 0.19999 0.43738 0.0
C4119 C 0.2947 0.21908 0.43489 0.0
C4120 C 0.29283 0.23069 0.45012 0.0
H4121 H 0.32172 0.27866 0.3354 0.0
H4122 H 0.32162 0.26869 0.36632 0.0
C4123 C 0.29205 0.22361 0.46738 0.0
C4124 C 0.29588 0.2267 0.41644 0.0
H4125 H 0.32212 0.2337 0.38052 0.0
C4126 C 0.28169 0.23338 0.40903 0.0
C4127 C 0.3108 0.22728 0.40601 0.0
C4128 C 0.327 0.22138 0.41333 0.0
C4129 C 0.28176 0.23998 0.39155 0.0
C4130 C 0.29635 0.23983 0.38085 0.0
C4131 C 0.3108 0.2337 0.38846 0.0
C4132 C 0.29672 0.24572 0.36175 0.0
C4133 C 0.26623 0.24731 0.38476 0.0
C4134 C 0.28305 0.23598 0.34852 0.0
C4135 C 0.28314 0.24158 0.33079 0.0
C4136 C 0.29694 0.25712 0.32559 0.0
C4137 C 0.31085 0.26665 0.33876 0.0
C4138 C 0.31079 0.26095 0.35654 0.0
H4139 H 0.25897 0.25164 0.39599 0.0
H4140 H 0.27095 0.25989 0.37665 0.0
H4141 H 0.25646 0.23562 0.3761 0.0
H4142 H 0.27222 0.22393 0.35189 0.0
H4143 H 0.27219 0.23377 0.32116 0.0
H4144 H 0.35643 0.64078 0.54068 0.0
H4145 H 0.37694 0.62037 0.53842 0.0
H4146 H 0.33623 0.57242 0.55572 0.0
H4147 H 0.31541 0.59273 0.55775 0.0
H4148 H 0.39074 0.59839 0.56254 0.0
H4149 H 0.34666 0.55235 0.50596 0.0
H4150 H 0.34365 0.57525 0.5142 0.0
H4151 H 0.33621 0.55428 0.5266 0.0
C4152 C 0.35188 0.62597 0.54425 0.0
C4153 C 0.33421 0.61829 0.54918 0.0
C4154 C 0.36365 0.61433 0.54297 0.0
C4155 C 0.35798 0.59481 0.54657 0.0
C4156 C 0.34073 0.58738 0.55255 0.0
H4157 H 0.42563 0.51459 0.53694 0.0
H4158 H 0.40267 0.52996 0.54677 0.0
C4159 C 0.3289 0.59902 0.55382 0.0
C4160 C 0.36982 0.58214 0.54286 0.0
H4161 H 0.37394 0.5452 0.51402 0.0
C4162 C 0.38699 0.5866 0.55211 0.0
C4163 C 0.36493 0.56689 0.52908 0.0
C4164 C 0.34693 0.56192 0.51825 0.0
C4165 C 0.39949 0.57639 0.54772 0.0
C4166 C 0.39469 0.56144 0.53376 0.0
C4167 C 0.37744 0.55665 0.52479 0.0
C4168 C 0.40792 0.5516 0.52745 0.0
C4169 C 0.41799 0.58196 0.55757 0.0
C4170 C 0.41818 0.5586 0.5132 0.0
C4171 C 0.43121 0.54986 0.5075 0.0
C4172 C 0.43414 0.53389 0.51594 0.0
C4173 C 0.42352 0.52668 0.53 0.0
C4174 C 0.41051 0.5355 0.53573 0.0
H4175 H 0.41952 0.59365 0.56841 0.0
H4176 H 0.42062 0.56913 0.56356 0.0
H4177 H 0.42839 0.58691 0.54793 0.0
H4178 H 0.41626 0.57101 0.50665 0.0
H4179 H 0.43906 0.55564 0.49654 0.0
H4180 H 0.85925 0.87544 0.50408 0.0
H4181 H 0.88781 0.90026 0.50281 0.0
H4182 H 0.86702 0.94138 0.53274 0.0
H4183 H 0.83822 0.91663 0.53401 0.0
H4184 H 0.89301 0.93969 0.4887 0.0
H4185 H 0.91647 0.94099 0.56073 0.0
H4186 H 0.89958 0.92062 0.54935 0.0
H4187 H 0.8938 0.94247 0.55567 0.0
C4188 C 0.86068 0.88972 0.51046 0.0
C4189 C 0.84636 0.89392 0.51925 0.0
C4190 C 0.87705 0.90394 0.50965 0.0
C4191 C 0.87963 0.92265 0.51777 0.0
C4192 C 0.86539 0.92699 0.52649 0.0
H4193 H 0.97794 0.01866 0.5364 0.0
H4194 H 0.94685 0.99826 0.53535 0.0
C4195 C 0.84891 0.91281 0.52718 0.0
C4196 C 0.89725 0.93751 0.5171 0.0
H4197 H 0.93542 0.96231 0.54294 0.0
C4198 C 0.90229 0.94471 0.50055 0.0
C4199 C 0.90929 0.94414 0.53258 0.0
C4200 C 0.90468 0.93665 0.55062 0.0
C4201 C 0.91898 0.95842 0.49908 0.0
C4202 C 0.9313 0.96469 0.51449 0.0
C4203 C 0.9261 0.9576 0.53108 0.0
C4204 C 0.94978 0.97821 0.51377 0.0
C4205 C 0.92301 0.9663 0.48106 0.0
C4206 C 0.9619 0.97405 0.50182 0.0
C4207 C 0.97966 0.98593 0.50218 0.0
C4208 C 0.98589 1.00206 0.51477 0.0
C4209 C 0.97365 0.00641 0.52649 0.0
C4210 C 0.95584 0.99467 0.52596 0.0
H4211 H 0.91039 0.96538 0.47267 0.0
H4212 H 0.93128 0.98162 0.48257 0.0
H4213 H 0.93056 0.95756 0.47374 0.0
H4214 H 0.95787 0.96119 0.49262 0.0
H4215 H 0.98873 0.98192 0.49313 0.0
H4216 H 0.86831 0.05723 0.22825 0.0
H4217 H 0.85024 0.07961 0.23466 0.0
H4218 H 0.8982 0.12313 0.25646 0.0
H4219 H 0.91641 0.10081 0.25021 0.0
H4220 H 0.86966 0.11408 0.27977 0.0
H4221 H 0.846 0.12954 0.21201 0.0
H4222 H 0.84295 0.10436 0.21534 0.0
H4223 H 0.86536 0.12029 0.21578 0.0
C4224 C 0.87507 0.07169 0.23408 0.0
C4225 C 0.89376 0.07725 0.23881 0.0
C4226 C 0.86473 0.08447 0.23766 0.0
C4227 C 0.87293 0.10301 0.24593 0.0
C4228 C 0.89168 0.10887 0.25001 0.0
H4229 H 0.82842 0.19788 0.27154 0.0
H4230 H 0.84616 0.17657 0.26096 0.0
C4231 C 0.90204 0.09613 0.2464 0.0
C4232 C 0.86176 0.11556 0.25188 0.0
H4233 H 0.83229 0.14005 0.23689 0.0
C4234 C 0.86152 0.11982 0.27041 0.0
C4235 C 0.85121 0.12297 0.23959 0.0
C4236 C 0.85144 0.11923 0.21955 0.0
C4237 C 0.85085 0.13122 0.27701 0.0
C4238 C 0.8401 0.13837 0.26475 0.0
C4239 C 0.84045 0.1343 0.24621 0.0
C4240 C 0.82905 0.15091 0.27095 0.0
C4241 C 0.85131 0.13582 0.29702 0.0
C4242 C 0.81352 0.14339 0.27996 0.0
C4243 C 0.80335 0.15553 0.28605 0.0
C4244 C 0.8087 0.17535 0.28333 0.0
C4245 C 0.8242 0.18273 0.27415 0.0
C4246 C 0.83424 0.17059 0.26796 0.0
H4247 H 0.86236 0.1316 0.30449 0.0
H4248 H 0.85307 0.15153 0.30009 0.0
H4249 H 0.83828 0.12788 0.30196 0.0
H4250 H 0.80931 0.12816 0.28225 0.0
H4251 H 0.79144 0.14951 0.29304 0.0
H4252 H 0.72944 0.16015 0.04023 0.0
H4253 H 0.69827 0.13975 0.03715 0.0
H4254 H 0.71734 0.08893 0.02982 0.0
H4255 H 0.74849 0.10913 0.03363 0.0
H4256 H 0.67966 0.11646 0.0099 0.0
H4257 H 0.68352 0.07305 0.06808 0.0
H4258 H 0.7012 0.09433 0.06436 0.0
H4259 H 0.69977 0.07152 0.05227 0.0
C4260 C 0.72698 0.14461 0.03813 0.0
C4261 C 0.7414 0.13622 0.0374 0.0
C4262 C 0.70918 0.13297 0.03633 0.0
C4263 C 0.70547 0.11277 0.03358 0.0
C4264 C 0.71986 0.10441 0.03248 0.0
H4265 H 0.59638 0.04195 0.99605 0.0
H4266 H 0.62879 0.05812 0.99768 0.0
C4267 C 0.73766 0.116 0.03459 0.0
C4268 C 0.68653 0.10056 0.03148 0.0
H4269 H 0.65693 0.06262 0.04836 0.0
C4270 C 0.67466 0.10471 0.01833 0.0
C4271 C 0.68002 0.08534 0.0426 0.0
C4272 C 0.69174 0.0809 0.05773 0.0
C4273 C 0.6564 0.09422 0.01612 0.0
C4274 C 0.64999 0.07868 0.02694 0.0
C4275 C 0.66191 0.0744 0.03994 0.0
C4276 C 0.6307 0.06759 0.02594 0.0
C4277 C 0.64407 0.10039 0.00268 0.0
C4278 C 0.62122 0.06669 0.04146 0.0
C4279 C 0.60287 0.05708 0.04068 0.0
C4280 C 0.59358 0.04833 0.02429 0.0
C4281 C 0.60316 0.04875 0.00883 0.0
C4282 C 0.62163 0.05811 0.00971 0.0
H4283 H 0.64996 0.11547 0.99917 0.0
H4284 H 0.64196 0.09077 0.99014 0.0
H4285 H 0.63072 0.0994 0.00794 0.0
H4286 H 0.62793 0.07383 0.05416 0.0
H4287 H 0.59587 0.05706 0.05282 0.0
H4288 H 0.20772 0.49324 0.23658 0.0
H4289 H 0.22765 0.47427 0.24701 0.0
H4290 H 0.18305 0.43517 0.26953 0.0
H4291 H 0.16301 0.4542 0.25933 0.0
H4292 H 0.21307 0.45224 0.29418 0.0
H4293 H 0.23346 0.42068 0.23191 0.0
H4294 H 0.23578 0.44621 0.23232 0.0
H4295 H 0.21372 0.42958 0.2322 0.0
C4296 C 0.20203 0.48031 0.24332 0.0
C4297 C 0.18385 0.47527 0.24728 0.0
C4298 C 0.21343 0.46947 0.24923 0.0
C4299 C 0.20677 0.45336 0.25901 0.0
C4300 C 0.18839 0.4476 0.262 0.0
H4301 H 0.25267 0.37647 0.31653 0.0
H4302 H 0.23442 0.39763 0.3073 0.0
C4303 C 0.17697 0.45843 0.25611 0.0
C4304 C 0.21932 0.44382 0.26771 0.0
H4305 H 0.24995 0.41878 0.25919 0.0
C4306 C 0.2211 0.44483 0.28657 0.0
C4307 C 0.22985 0.43441 0.25769 0.0
C4308 C 0.22805 0.43247 0.23741 0.0
C4309 C 0.23332 0.43676 0.29573 0.0
C4310 C 0.24378 0.42722 0.2857 0.0
C4311 C 0.24204 0.42631 0.26683 0.0
C4312 C 0.25575 0.4169 0.2943 0.0
C4313 C 0.23507 0.43874 0.31601 0.0
C4314 C 0.27389 0.42097 0.29039 0.0
C4315 C 0.28427 0.40871 0.29541 0.0
C4316 C 0.27658 0.39216 0.30432 0.0
C4317 C 0.25886 0.38903 0.30949 0.0
C4318 C 0.24847 0.40121 0.30438 0.0
H4319 H 0.23075 0.45136 0.32136 0.0
H4320 H 0.22625 0.42557 0.32109 0.0
H4321 H 0.24918 0.44035 0.32135 0.0
H4322 H 0.27971 0.43301 0.28258 0.0
H4323 H 0.29783 0.4114 0.2911 0.0
H4324 H 0.2687 0.42735 0.04336 0.0
H4325 H 0.24547 0.44474 0.04262 0.0
H4326 H 0.20561 0.39233 0.02195 0.0
H4327 H 0.22876 0.37478 0.02284 0.0
H4328 H 0.22495 0.45039 0.01314 0.0
H4329 H 0.17986 0.41147 0.06207 0.0
H4330 H 0.20248 0.40935 0.06022 0.0
H4331 H 0.18442 0.39606 0.04425 0.0
C4332 C 0.25494 0.41942 0.0389 0.0
C4333 C 0.25064 0.39958 0.03327 0.0
C4334 C 0.24165 0.42943 0.03842 0.0
C4335 C 0.22365 0.41989 0.03242 0.0
C4336 C 0.21926 0.40001 0.02699 0.0
H4337 H 0.12663 0.4603 0.01478 0.0
H4338 H 0.1483 0.44099 0.01699 0.0
C4339 C 0.23257 0.38998 0.02745 0.0
C4340 C 0.20979 0.431 0.03104 0.0
H4341 H 0.16918 0.43381 0.04551 0.0
C4342 C 0.21281 0.44678 0.0203 0.0
C4343 C 0.19379 0.4263 0.04023 0.0
C4344 C 0.18995 0.40999 0.05247 0.0
C4345 C 0.20032 0.4578 0.01834 0.0
C4346 C 0.18444 0.45329 0.02772 0.0
C4347 C 0.18132 0.43738 0.03833 0.0
C4348 C 0.17107 0.46503 0.02682 0.0
C4349 C 0.20411 0.47393 0.00588 0.0
C4350 C 0.17642 0.48498 0.03196 0.0
C4351 C 0.16403 0.49608 0.03075 0.0
C4352 C 0.14585 0.48754 0.0245 0.0
C4353 C 0.14042 0.46744 0.01978 0.0
C4354 C 0.15286 0.45635 0.02096 0.0
H4355 H 0.21366 0.47188 0.99587 0.0
H4356 H 0.19149 0.47494 0.99857 0.0
H4357 H 0.21035 0.48787 0.01386 0.0
H4358 H 0.19022 0.49202 0.03702 0.0
H4359 H 0.16871 0.51138 0.03492 0.0
H4360 H 0.88093 0.98546 0.22859 0.0
H4361 H 0.85961 0.95386 0.23116 0.0
H4362 H 0.90308 0.93219 0.25184 0.0
H4363 H 0.92455 0.96367 0.24937 0.0
H4364 H 0.86074 0.91554 0.21564 0.0
H4365 H 0.86461 0.92281 0.29032 0.0
H4366 H 0.87172 0.94331 0.27703 0.0
H4367 H 0.88597 0.92763 0.28055 0.0
C4368 C 0.886 0.97397 0.23361 0.0
C4369 C 0.90446 0.97713 0.23884 0.0
C4370 C 0.87379 0.95594 0.23504 0.0
C4371 C 0.87979 0.94086 0.24188 0.0
C4372 C 0.89821 0.94379 0.24673 0.0
H4373 H 0.83441 0.81887 0.24351 0.0
H4374 H 0.85081 0.8516 0.23726 0.0
C4375 C 0.91045 0.96176 0.24522 0.0
C4376 C 0.8668 0.92208 0.24417 0.0
H4377 H 0.84922 0.89192 0.27606 0.0
C4378 C 0.85809 0.91039 0.22883 0.0
C4379 C 0.86325 0.91562 0.26142 0.0
C4380 C 0.87173 0.92802 0.27831 0.0
C4381 C 0.84635 0.89198 0.23029 0.0
C4382 C 0.84339 0.88519 0.24752 0.0
C4383 C 0.85161 0.89718 0.26287 0.0
C4384 C 0.83251 0.86534 0.24996 0.0
C4385 C 0.83724 0.87989 0.21344 0.0
C4386 C 0.81683 0.8623 0.25924 0.0
C4387 C 0.80739 0.8436 0.26285 0.0
C4388 C 0.81365 0.82768 0.25744 0.0
C4389 C 0.82922 0.8308 0.24788 0.0
C4390 C 0.83856 0.84948 0.24418 0.0
H4391 H 0.83731 0.88885 0.20183 0.0
H4392 H 0.84454 0.86898 0.21006 0.0
H4393 H 0.82306 0.87206 0.21546 0.0
H4394 H 0.81206 0.87444 0.2639 0.0
H4395 H 0.79548 0.8417 0.27029 0.0
H4396 H 0.70321 0.06384 0.7602 0.0
H4397 H 0.72409 0.09625 0.76496 0.0
H4398 H 0.68371 0.12008 0.74031 0.0
H4399 H 0.66241 0.08779 0.73653 0.0
H4400 H 0.7395 0.12253 0.74465 0.0
H4401 H 0.69516 0.15279 0.78616 0.0
H4402 H 0.69002 0.12735 0.77939 0.0
H4403 H 0.68432 0.14383 0.76431 0.0
C4404 C 0.69882 0.07601 0.75575 0.0
C4405 C 0.68116 0.07339 0.74816 0.0
C4406 C 0.71076 0.09452 0.75848 0.0
C4407 C 0.70533 0.11069 0.75342 0.0
C4408 C 0.68799 0.10793 0.74494 0.0
H4409 H 0.77819 0.22444 0.74343 0.0
H4410 H 0.76097 0.19036 0.73878 0.0
C4411 C 0.67588 0.08948 0.74263 0.0
C4412 C 0.71778 0.13041 0.75719 0.0
H4413 H 0.72038 0.17554 0.7758 0.0
C4414 C 0.73538 0.1341 0.75161 0.0
C4415 C 0.71258 0.1454 0.76665 0.0
C4416 C 0.69457 0.14209 0.77465 0.0
C4417 C 0.74781 0.15242 0.75495 0.0
C4418 C 0.74221 0.16771 0.76339 0.0
C4419 C 0.72468 0.16391 0.76918 0.0
C4420 C 0.7541 0.1878 0.76641 0.0
C4421 C 0.76687 0.15496 0.74977 0.0
C4422 C 0.75575 0.19789 0.78338 0.0
C4423 C 0.76499 0.2175 0.78584 0.0
C4424 C 0.77314 0.22726 0.7715 0.0
C4425 C 0.77222 0.21707 0.75474 0.0
C4426 C 0.7625 0.19756 0.75212 0.0
H4427 H 0.77056 0.14106 0.74966 0.0
H4428 H 0.76795 0.15989 0.736 0.0
H4429 H 0.77678 0.16579 0.75913 0.0
H4430 H 0.74944 0.19073 0.79463 0.0
H4431 H 0.76556 0.22509 0.7989 0.0
loop_
_geom_bond_atom_site_label_1
_geom_bond_atom_site_label_2
_geom_bond_distance
_geom_bond_site_symmetry_2
_ccdc_geom_bond_type
Co0 O1 2.216 . S
Co0 O2 2.091 . S
Co0 O4 2.004 . S
Co0 O10 2.021 . S
Co0 O12 2.137 . S
Co0 O13 2.244 . S
O1 Co0 2.216 . S
O1 C8 1.247 . S
O2 Co0 2.091 . S
O2 C8 1.261 . S
C3 O12 1.247 . S
C3 O13 1.272 . S
O4 Co0 2.004 . S
O4 C9 1.259 1_455 S
Co5 O6 2.061 1_455 S
Co5 O11 2.052 . S
Co5 O13 2.135 . S
O6 Co5 2.061 1_655 S
O6 C9 1.235 . S
C7 O10 1.238 . S
C7 O11 1.241 . S
C8 O1 1.247 . S
C8 O2 1.261 . S
C9 O4 1.259 1_655 S
C9 O6 1.235 . S
O10 Co0 2.021 . S
O10 C7 1.238 . S
O11 Co5 2.052 . S
O11 C7 1.241 . S
O12 Co0 2.137 . S
O12 C3 1.247 . S
O13 Co0 2.244 . S
O13 C3 1.272 . S
O13 Co5 2.135 . S
Co14 O15 2.216 . S
Co14 O16 2.091 . S
Co14 O18 2.004 . S
Co14 O24 2.021 . S
Co14 O26 2.137 . S
Co14 O27 2.244 . S
O15 Co14 2.216 . S
O15 C22 1.247 . S
O16 Co14 2.091 . S
O16 C22 1.261 . S
C17 O26 1.247 . S
C17 O27 1.272 . S
O18 Co14 2.004 . S
O18 C23 1.259 . S
Co19 O20 2.061 . S
Co19 O25 2.052 . S
Co19 O27 2.135 . S
O20 Co19 2.061 . S
O20 C23 1.235 . S
C21 O24 1.238 . S
C21 O25 1.241 . S
C22 O15 1.247 . S
C22 O16 1.261 . S
C23 O18 1.259 . S
C23 O20 1.235 . S
O24 Co14 2.021 . S
O24 C21 1.238 . S
O25 Co19 2.052 . S
O25 C21 1.241 . S
O26 Co14 2.137 . S
O26 C17 1.247 . S
O27 Co14 2.244 . S
O27 C17 1.272 . S
O27 Co19 2.135 . S
Co28 O29 2.216 . S
Co28 O30 2.091 . S
Co28 O32 2.004 . S
Co28 O38 2.021 . S
Co28 O40 2.137 . S
Co28 O41 2.244 . S
O29 Co28 2.216 . S
O29 C36 1.247 . S
O30 Co28 2.091 . S
O30 C36 1.261 . S
C31 O40 1.247 . S
C31 O41 1.272 . S
O32 Co28 2.004 . S
O32 C37 1.259 . S
Co33 O34 2.061 . S
Co33 O39 2.052 . S
Co33 O41 2.135 . S
O34 Co33 2.061 . S
O34 C37 1.235 . S
C35 O38 1.238 . S
C35 O39 1.241 . S
C36 O29 1.247 . S
C36 O30 1.261 . S
C37 O32 1.259 . S
C37 O34 1.235 . S
O38 Co28 2.021 . S
O38 C35 1.238 . S
O39 Co33 2.052 . S
O39 C35 1.241 . S
O40 Co28 2.137 . S
O40 C31 1.247 . S
O41 Co28 2.244 . S
O41 C31 1.272 . S
O41 Co33 2.135 . S
Co42 O43 2.216 . S
Co42 O44 2.091 . S
Co42 O46 2.004 . S
Co42 O52 2.021 . S
Co42 O54 2.137 . S
Co42 O55 2.244 . S
O43 Co42 2.216 . S
O43 C50 1.247 . S
O44 Co42 2.091 . S
O44 C50 1.261 . S
C45 O54 1.247 . S
C45 O55 1.272 . S
O46 Co42 2.004 . S
O46 C51 1.259 . S
Co47 O48 2.061 . S
Co47 O53 2.052 . S
Co47 O55 2.135 . S
O48 Co47 2.061 . S
O48 C51 1.235 . S
C49 O52 1.238 . S
C49 O53 1.241 . S
C50 O43 1.247 . S
C50 O44 1.261 . S
C51 O46 1.259 . S
C51 O48 1.235 . S
O52 Co42 2.021 . S
O52 C49 1.238 . S
O53 Co47 2.052 . S
O53 C49 1.241 . S
O54 Co42 2.137 . S
O54 C45 1.247 . S
O55 Co42 2.244 . S
O55 C45 1.272 . S
O55 Co47 2.135 . S
Co56 O57 2.216 . S
Co56 O58 2.091 . S
Co56 O60 2.004 . S
Co56 O66 2.021 . S
Co56 O68 2.137 . S
Co56 O69 2.244 . S
O57 Co56 2.216 . S
O57 C64 1.247 . S
O58 Co56 2.091 . S
O58 C64 1.261 . S
C59 O68 1.247 . S
C59 O69 1.272 . S
O60 Co56 2.004 . S
O60 C65 1.259 . S
Co61 O62 2.061 . S
Co61 O67 2.052 . S
Co61 O69 2.135 . S
O62 Co61 2.061 . S
O62 C65 1.235 . S
C63 O66 1.238 . S
C63 O67 1.241 . S
C64 O57 1.247 . S
C64 O58 1.261 . S
C65 O60 1.259 . S
C65 O62 1.235 . S
O66 Co56 2.021 . S
O66 C63 1.238 . S
O67 Co61 2.052 . S
O67 C63 1.241 . S
O68 Co56 2.137 . S
O68 C59 1.247 . S
O69 Co56 2.244 . S
O69 C59 1.272 . S
O69 Co61 2.135 . S
Co70 O71 2.216 . S
Co70 O72 2.091 . S
Co70 O74 2.004 . S
Co70 O80 2.021 . S
Co70 O82 2.137 . S
Co70 O83 2.244 . S
O71 Co70 2.216 . S
O71 C78 1.247 . S
O72 Co70 2.091 . S
O72 C78 1.261 . S
C73 O82 1.247 . S
C73 O83 1.272 . S
O74 Co70 2.004 . S
O74 C79 1.259 . S
Co75 O76 2.061 . S
Co75 O81 2.052 . S
Co75 O83 2.135 . S
O76 Co75 2.061 . S
O76 C79 1.235 . S
C77 O80 1.238 . S
C77 O81 1.241 . S
C78 O71 1.247 . S
C78 O72 1.261 . S
C79 O74 1.259 . S
C79 O76 1.235 . S
O80 Co70 2.021 . S
O80 C77 1.238 . S
O81 Co75 2.052 . S
O81 C77 1.241 . S
O82 Co70 2.137 . S
O82 C73 1.247 . S
O83 Co70 2.244 . S
O83 C73 1.272 . S
O83 Co75 2.135 . S
Co84 O85 2.216 . S
Co84 O86 2.091 . S
Co84 O88 2.004 . S
Co84 O94 2.021 . S
Co84 O96 2.137 . S
Co84 O97 2.244 . S
O85 Co84 2.216 . S
O85 C92 1.247 . S
O86 Co84 2.091 . S
O86 C92 1.261 . S
C87 O96 1.247 . S
C87 O97 1.272 . S
O88 Co84 2.004 . S
O88 C93 1.259 . S
Co89 O90 2.061 . S
Co89 O95 2.052 . S
Co89 O97 2.135 . S
O90 Co89 2.061 . S
O90 C93 1.235 . S
C91 O94 1.238 . S
C91 O95 1.241 . S
C92 O85 1.247 . S
C92 O86 1.261 . S
C93 O88 1.259 . S
C93 O90 1.235 . S
O94 Co84 2.021 . S
O94 C91 1.238 . S
O95 Co89 2.052 . S
O95 C91 1.241 . S
O96 Co84 2.137 . S
O96 C87 1.247 . S
O97 Co84 2.244 . S
O97 C87 1.272 . S
O97 Co89 2.135 . S
Co98 O99 2.216 . S
Co98 O100 2.091 . S
Co98 O102 2.004 1_455 S
Co98 O108 2.021 1_455 S
Co98 O110 2.137 . S
Co98 O111 2.244 1_455 S
O99 Co98 2.216 . S
O99 C106 1.247 . S
O100 Co98 2.091 . S
O100 C106 1.261 . S
C101 O110 1.247 . S
C101 O111 1.272 1_455 S
O102 Co98 2.004 1_655 S
O102 C107 1.259 . S
Co103 O104 2.061 . S
Co103 O109 2.052 . S
Co103 O111 2.135 . S
O104 Co103 2.061 . S
O104 C107 1.235 . S
C105 O108 1.238 . S
C105 O109 1.241 . S
C106 O99 1.247 . S
C106 O100 1.261 . S
C107 O102 1.259 . S
C107 O104 1.235 . S
O108 Co98 2.021 1_655 S
O108 C105 1.238 . S
O109 Co103 2.052 . S
O109 C105 1.241 . S
O110 Co98 2.137 . S
O110 C101 1.247 . S
O111 Co98 2.244 1_655 S
O111 C101 1.272 1_655 S
O111 Co103 2.135 . S
Co112 O113 2.216 . S
Co112 O114 2.091 . S
Co112 O116 2.054 . S
Co112 O122 2.021 . S
Co112 O124 2.137 . S
Co112 O125 2.244 . S
O113 Co112 2.216 . S
O113 C120 1.247 . S
O114 Co112 2.091 . S
O114 C120 1.261 . S
C115 O124 1.247 . S
C115 O125 1.272 . S
O116 Co112 2.054 . S
O116 C121 1.203 1_545 S
Co117 O118 2.061 1_545 S
Co117 O123 2.052 . S
Co117 O125 2.135 . S
O118 Co117 2.061 1_565 S
O118 C121 1.235 . S
C119 O122 1.238 . S
C119 O123 1.241 . S
C120 O113 1.247 . S
C120 O114 1.261 . S
C121 O116 1.203 1_565 S
C121 O118 1.235 . S
O122 Co112 2.021 . S
O122 C119 1.238 . S
O123 Co117 2.052 . S
O123 C119 1.241 . S
O124 Co112 2.137 . S
O124 C115 1.247 . S
O125 Co112 2.244 . S
O125 C115 1.272 . S
O125 Co117 2.135 . S
Co126 O127 2.216 . S
Co126 O128 2.091 . S
Co126 O130 2.004 . S
Co126 O136 2.021 . S
Co126 O138 2.137 . S
Co126 O139 2.244 . S
O127 Co126 2.216 . S
O127 C134 1.247 . S
O128 Co126 2.091 . S
O128 C134 1.261 . S
C129 O138 1.247 . S
C129 O139 1.272 . S
O130 Co126 2.004 . S
O130 C135 1.259 . S
Co131 O132 2.061 . S
Co131 O137 2.052 . S
Co131 O139 2.135 . S
O132 Co131 2.061 . S
O132 C135 1.235 . S
C133 O136 1.238 . S
C133 O137 1.241 . S
C134 O127 1.247 . S
C134 O128 1.261 . S
C135 O130 1.259 . S
C135 O132 1.235 . S
O136 Co126 2.021 . S
O136 C133 1.238 . S
O137 Co131 2.052 . S
O137 C133 1.241 . S
O138 Co126 2.137 . S
O138 C129 1.247 . S
O139 Co126 2.244 . S
O139 C129 1.272 . S
O139 Co131 2.135 . S
Co140 O141 2.216 . S
Co140 O142 2.091 . S
Co140 O144 2.004 . S
Co140 O150 2.021 . S
Co140 O152 2.137 . S
Co140 O153 2.244 . S
O141 Co140 2.216 . S
O141 C148 1.247 . S
O142 Co140 2.091 . S
O142 C148 1.261 . S
C143 O152 1.247 . S
C143 O153 1.272 . S
O144 Co140 2.004 . S
O144 C149 1.259 . S
Co145 O146 2.061 . S
Co145 O151 2.052 . S
Co145 O153 2.135 . S
O146 Co145 2.061 . S
O146 C149 1.235 . S
C147 O150 1.238 . S
C147 O151 1.241 . S
C148 O141 1.247 . S
C148 O142 1.261 . S
C149 O144 1.259 . S
C149 O146 1.235 . S
O150 Co140 2.021 . S
O150 C147 1.238 . S
O151 Co145 2.052 . S
O151 C147 1.241 . S
O152 Co140 2.137 . S
O152 C143 1.247 . S
O153 Co140 2.244 . S
O153 C143 1.272 . S
O153 Co145 2.135 . S
Co154 O155 2.216 . S
Co154 O156 2.091 1_556 S
Co154 O158 2.004 . S
Co154 O164 2.021 1_556 S
Co154 O166 2.137 . S
Co154 O167 2.244 . S
O155 Co154 2.216 . S
O155 C162 1.248 . S
O156 Co154 2.091 1_554 S
O156 C162 1.262 1_554 S
C157 O166 1.247 . S
C157 O167 1.272 . S
O158 Co154 2.004 . S
O158 C163 1.259 1_556 S
Co159 O160 2.061 1_556 S
Co159 O165 2.052 1_556 S
Co159 O167 2.135 . S
O160 Co159 2.061 1_554 S
O160 C163 1.235 . S
C161 O164 1.238 . S
C161 O165 1.241 . S
C162 O155 1.248 . S
C162 O156 1.262 1_556 S
C163 O158 1.259 1_554 S
C163 O160 1.235 . S
O164 Co154 2.021 1_554 S
O164 C161 1.238 . S
O165 Co159 2.052 1_554 S
O165 C161 1.241 . S
O166 Co154 2.137 . S
O166 C157 1.247 . S
O167 Co154 2.244 . S
O167 C157 1.272 . S
O167 Co159 2.135 . S
Co168 O169 2.216 . S
Co168 O170 2.091 . S
Co168 O172 2.004 . S
Co168 O178 2.021 . S
Co168 O180 2.137 1_554 S
Co168 O181 2.244 . S
O169 Co168 2.216 . S
O169 C176 1.247 . S
O170 Co168 2.091 . S
O170 C176 1.261 . S
C171 O180 1.247 . S
C171 O181 1.272 1_556 S
O172 Co168 2.004 . S
O172 C177 1.259 . S
Co173 O174 2.061 . S
Co173 O179 2.052 . S
Co173 O181 2.135 . S
O174 Co173 2.061 . S
O174 C177 1.235 . S
C175 O178 1.238 . S
C175 O179 1.241 . S
C176 O169 1.247 . S
C176 O170 1.261 . S
C177 O172 1.259 . S
C177 O174 1.235 . S
O178 Co168 2.021 . S
O178 C175 1.238 . S
O179 Co173 2.052 . S
O179 C175 1.241 . S
O180 Co168 2.137 1_556 S
O180 C171 1.247 . S
O181 Co168 2.244 . S
O181 C171 1.272 1_554 S
O181 Co173 2.135 . S
Co182 O183 2.216 . S
Co182 O184 2.091 . S
Co182 O186 2.004 . S
Co182 O192 2.021 . S
Co182 O194 2.137 . S
Co182 O195 2.244 . S
O183 Co182 2.216 . S
O183 C190 1.247 . S
O184 Co182 2.091 . S
O184 C190 1.261 . S
C185 O194 1.247 . S
C185 O195 1.272 . S
O186 Co182 2.004 . S
O186 C191 1.259 . S
Co187 O188 2.061 . S
Co187 O193 2.052 . S
Co187 O195 2.135 . S
O188 Co187 2.061 . S
O188 C191 1.235 . S
C189 O192 1.238 . S
C189 O193 1.241 . S
C190 O183 1.247 . S
C190 O184 1.261 . S
C191 O186 1.259 . S
C191 O188 1.235 . S
O192 Co182 2.021 . S
O192 C189 1.238 . S
O193 Co187 2.052 . S
O193 C189 1.241 . S
O194 Co182 2.137 . S
O194 C185 1.247 . S
O195 Co182 2.244 . S
O195 C185 1.272 . S
O195 Co187 2.135 . S
Co196 O197 2.216 . S
Co196 O198 2.091 . S
Co196 O200 2.004 . S
Co196 O206 2.021 . S
Co196 O208 2.137 . S
Co196 O209 2.244 . S
O197 Co196 2.216 . S
O197 C204 1.247 . S
O198 Co196 2.091 . S
O198 C204 1.261 . S
C199 O208 1.247 . S
C199 O209 1.272 . S
O200 Co196 2.004 . S
O200 C205 1.259 . S
Co201 O202 2.061 . S
Co201 O207 2.052 . S
Co201 O209 2.135 . S
O202 Co201 2.061 . S
O202 C205 1.235 . S
C203 O206 1.238 . S
C203 O207 1.241 . S
C204 O197 1.247 . S
C204 O198 1.261 . S
C205 O200 1.259 . S
C205 O202 1.235 . S
O206 Co196 2.021 . S
O206 C203 1.238 . S
O207 Co201 2.052 . S
O207 C203 1.241 . S
O208 Co196 2.137 . S
O208 C199 1.247 . S
O209 Co196 2.244 . S
O209 C199 1.272 . S
O209 Co201 2.135 . S
Co210 O211 2.216 . S
Co210 O212 2.091 . S
Co210 O214 2.004 . S
Co210 O220 2.021 . S
Co210 O222 2.137 . S
Co210 O223 2.244 . S
O211 Co210 2.216 . S
O211 C218 1.247 . S
O212 Co210 2.091 . S
O212 C218 1.261 . S
C213 O222 1.247 . S
C213 O223 1.272 . S
O214 Co210 2.004 . S
O214 C219 1.259 . S
Co215 O216 2.061 . S
Co215 O221 2.052 . S
Co215 O223 2.135 . S
O216 Co215 2.061 . S
O216 C219 1.235 . S
C217 O220 1.238 . S
C217 O221 1.241 . S
C218 O211 1.247 . S
C218 O212 1.261 . S
C219 O214 1.259 . S
C219 O216 1.235 . S
O220 Co210 2.021 . S
O220 C217 1.238 . S
O221 Co215 2.052 . S
O221 C217 1.241 . S
O222 Co210 2.137 . S
O222 C213 1.247 . S
O223 Co210 2.244 . S
O223 C213 1.272 . S
O223 Co215 2.135 . S
Co224 O225 2.216 . S
Co224 O226 2.091 . S
Co224 O228 2.004 1_545 S
Co224 O234 2.021 . S
Co224 O236 2.137 . S
Co224 O237 2.244 . S
O225 Co224 2.216 . S
O225 C232 1.247 . S
O226 Co224 2.091 . S
O226 C232 1.261 . S
C227 O236 1.247 . S
C227 O237 1.272 . S
O228 Co224 2.004 1_565 S
O228 C233 1.259 . S
Co229 O230 2.061 . S
Co229 O235 2.052 1_565 S
Co229 O237 2.135 1_565 S
O230 Co229 2.061 . S
O230 C233 1.235 . S
C231 O234 1.238 . S
C231 O235 1.241 . S
C232 O225 1.247 . S
C232 O226 1.261 . S
C233 O228 1.259 . S
C233 O230 1.235 . S
O234 Co224 2.021 . S
O234 C231 1.238 . S
O235 Co229 2.052 1_545 S
O235 C231 1.241 . S
O236 Co224 2.137 . S
O236 C227 1.247 . S
O237 Co224 2.244 . S
O237 C227 1.272 . S
O237 Co229 2.135 1_545 S
Co238 O239 2.216 . S
Co238 O240 2.091 . S
Co238 O242 2.004 . S
Co238 O248 2.021 . S
Co238 O250 2.137 . S
Co238 O251 2.244 . S
O239 Co238 2.216 . S
O239 C246 1.247 . S
O240 Co238 2.091 . S
O240 C246 1.261 . S
C241 O250 1.247 . S
C241 O251 1.272 . S
O242 Co238 2.004 . S
O242 C247 1.259 . S
Co243 O244 2.061 . S
Co243 O249 2.052 . S
Co243 O251 2.135 . S
O244 Co243 2.061 . S
O244 C247 1.235 . S
C245 O248 1.238 . S
C245 O249 1.241 . S
C246 O239 1.247 . S
C246 O240 1.261 . S
C247 O242 1.259 . S
C247 O244 1.235 . S
O248 Co238 2.021 . S
O248 C245 1.238 . S
O249 Co243 2.052 . S
O249 C245 1.241 . S
O250 Co238 2.137 . S
O250 C241 1.247 . S
O251 Co238 2.244 . S
O251 C241 1.272 . S
O251 Co243 2.135 . S
Co252 O253 2.216 . S
Co252 O254 2.091 . S
Co252 O256 2.004 . S
Co252 O262 2.021 . S
Co252 O264 2.137 . S
Co252 O265 2.244 . S
O253 Co252 2.216 . S
O253 C260 1.247 . S
O254 Co252 2.091 . S
O254 C260 1.261 . S
C255 O264 1.247 . S
C255 O265 1.272 . S
O256 Co252 2.004 . S
O256 C261 1.259 . S
Co257 O258 2.061 . S
Co257 O263 2.052 . S
Co257 O265 2.135 . S
O258 Co257 2.061 . S
O258 C261 1.235 . S
C259 O262 1.238 . S
C259 O263 1.241 . S
C260 O253 1.247 . S
C260 O254 1.261 . S
C261 O256 1.259 . S
C261 O258 1.235 . S
O262 Co252 2.021 . S
O262 C259 1.238 . S
O263 Co257 2.052 . S
O263 C259 1.241 . S
O264 Co252 2.137 . S
O264 C255 1.247 . S
O265 Co252 2.244 . S
O265 C255 1.272 . S
O265 Co257 2.135 . S
Co266 O267 2.216 1_545 S
Co266 O268 2.091 . S
Co266 O270 2.004 . S
Co266 O276 2.021 . S
Co266 O278 2.137 . S
Co266 O279 2.244 . S
O267 Co266 2.216 1_565 S
O267 C274 1.247 . S
O268 Co266 2.091 . S
O268 C274 1.261 1_545 S
C269 O278 1.247 . S
C269 O279 1.272 . S
O270 Co266 2.004 . S
O270 C275 1.259 . S
Co271 O272 2.061 . S
Co271 O277 2.052 . S
Co271 O279 2.135 . S
O272 Co271 2.061 . S
O272 C275 1.235 . S
C273 O276 1.238 . S
C273 O277 1.241 . S
C274 O267 1.247 . S
C274 O268 1.261 1_565 S
C275 O270 1.259 . S
C275 O272 1.235 . S
O276 Co266 2.021 . S
O276 C273 1.238 . S
O277 Co271 2.052 . S
O277 C273 1.241 . S
O278 Co266 2.137 . S
O278 C269 1.247 . S
O279 Co266 2.244 . S
O279 C269 1.272 . S
O279 Co271 2.135 . S
Co280 O281 2.216 . S
Co280 O282 2.091 . S
Co280 O284 2.004 . S
Co280 O290 2.021 . S
Co280 O292 2.137 1_554 S
Co280 O293 2.244 . S
O281 Co280 2.216 . S
O281 C288 1.247 . S
O282 Co280 2.091 . S
O282 C288 1.261 . S
C283 O292 1.247 . S
C283 O293 1.272 1_556 S
O284 Co280 2.004 . S
O284 C289 1.259 . S
Co285 O286 2.061 . S
Co285 O291 2.052 . S
Co285 O293 2.135 . S
O286 Co285 2.061 . S
O286 C289 1.235 . S
C287 O290 1.238 . S
C287 O291 1.241 . S
C288 O281 1.247 . S
C288 O282 1.261 . S
C289 O284 1.259 . S
C289 O286 1.235 . S
O290 Co280 2.021 . S
O290 C287 1.238 . S
O291 Co285 2.052 . S
O291 C287 1.241 . S
O292 Co280 2.137 1_556 S
O292 C283 1.247 . S
O293 Co280 2.244 . S
O293 C283 1.272 1_554 S
O293 Co285 2.135 . S
Co294 O295 2.216 . S
Co294 O296 2.091 . S
Co294 O298 2.004 . S
Co294 O304 2.021 . S
Co294 O306 2.137 . S
Co294 O307 2.244 . S
O295 Co294 2.216 . S
O295 C302 1.247 . S
O296 Co294 2.091 . S
O296 C302 1.261 . S
C297 O306 1.247 . S
C297 O307 1.272 . S
O298 Co294 2.004 . S
O298 C303 1.259 . S
Co299 O300 2.061 . S
Co299 O305 2.052 . S
Co299 O307 2.135 . S
O300 Co299 2.061 . S
O300 C303 1.235 . S
C301 O304 1.238 . S
C301 O305 1.241 . S
C302 O295 1.247 . S
C302 O296 1.261 . S
C303 O298 1.259 . S
C303 O300 1.235 . S
O304 Co294 2.021 . S
O304 C301 1.238 . S
O305 Co299 2.052 . S
O305 C301 1.241 . S
O306 Co294 2.137 . S
O306 C297 1.247 . S
O307 Co294 2.244 . S
O307 C297 1.272 . S
O307 Co299 2.135 . S
Co308 O309 2.216 . S
Co308 O310 2.091 . S
Co308 O312 2.004 . S
Co308 O318 2.021 . S
Co308 O320 2.137 . S
Co308 O321 2.244 . S
O309 Co308 2.216 . S
O309 C316 1.247 . S
O310 Co308 2.091 . S
O310 C316 1.261 . S
C311 O320 1.247 . S
C311 O321 1.272 . S
O312 Co308 2.004 . S
O312 C317 1.259 . S
Co313 O314 2.061 . S
Co313 O319 2.052 . S
Co313 O321 2.135 . S
O314 Co313 2.061 . S
O314 C317 1.235 . S
C315 O318 1.238 . S
C315 O319 1.241 . S
C316 O309 1.247 . S
C316 O310 1.261 . S
C317 O312 1.259 . S
C317 O314 1.235 . S
O318 Co308 2.021 . S
O318 C315 1.238 . S
O319 Co313 2.052 . S
O319 C315 1.241 . S
O320 Co308 2.137 . S
O320 C311 1.247 . S
O321 Co308 2.244 . S
O321 C311 1.272 . S
O321 Co313 2.135 . S
Co322 O323 2.216 . S
Co322 O324 2.091 . S
Co322 O326 2.004 . S
Co322 O332 2.021 . S
Co322 O334 2.137 . S
Co322 O335 2.244 . S
O323 Co322 2.216 . S
O323 C330 1.247 . S
O324 Co322 2.091 . S
O324 C330 1.261 . S
C325 O334 1.247 . S
C325 O335 1.272 . S
O326 Co322 2.004 . S
O326 C331 1.259 . S
Co327 O328 2.061 . S
Co327 O333 2.052 . S
Co327 O335 2.135 . S
O328 Co327 2.061 . S
O328 C331 1.235 . S
C329 O332 1.238 . S
C329 O333 1.241 . S
C330 O323 1.247 . S
C330 O324 1.261 . S
C331 O326 1.259 . S
C331 O328 1.235 . S
O332 Co322 2.021 . S
O332 C329 1.238 . S
O333 Co327 2.052 . S
O333 C329 1.241 . S
O334 Co322 2.137 . S
O334 C325 1.247 . S
O335 Co322 2.244 . S
O335 C325 1.272 . S
O335 Co327 2.135 . S
Tb336 C345 2.764 . S
Tb336 O346 2.325 . S
Tb336 O349 2.303 . S
Tb336 O353 2.322 . S
Tb336 O354 2.349 . S
Tb336 O357 2.415 . S
Tb336 O358 2.399 . S
Tb337 O347 2.322 1_545 S
Tb337 O348 2.349 1_554 S
Tb337 O350 2.415 1_455 S
Tb337 O351 2.399 1_454 S
Tb337 O352 2.325 . S
Tb337 O355 2.303 . S
Tb337 C366 2.764 1_455 S
C338 O354 1.261 . S
C338 O355 1.257 . S
C339 C342 1.358 . S
C339 C343 1.332 . S
C339 C345 1.504 . S
C340 C341 1.373 . S
C340 C344 1.308 . S
C341 C340 1.373 . S
C341 C342 1.429 . S
C341 H368 0.932 . S
C342 C339 1.358 . S
C342 C341 1.429 . S
C342 H369 0.930 . S
C343 C339 1.332 . S
C343 C344 1.394 . S
C343 H370 0.932 . S
C344 C340 1.308 . S
C344 C343 1.394 . S
C344 H371 0.929 1_545 S
C345 Tb336 2.764 . S
C345 C339 1.504 . S
C345 O357 1.239 . S
C345 O358 1.263 . S
O346 Tb336 2.325 . S
O346 C356 1.236 1_545 S
O347 Tb337 2.322 1_565 S
O347 C356 1.257 . S
O348 Tb337 2.349 1_556 S
O348 C359 1.261 . S
O349 Tb336 2.303 . S
O349 C359 1.257 1_554 S
O350 Tb337 2.415 1_655 S
O350 C366 1.239 . S
O351 Tb337 2.399 1_656 S
O351 C366 1.263 1_556 S
O352 Tb337 2.325 . S
O352 C367 1.236 . S
O353 Tb336 2.322 . S
O353 C367 1.257 . S
O354 Tb336 2.349 . S
O354 C338 1.261 . S
O355 Tb337 2.303 . S
O355 C338 1.257 . S
C356 O346 1.236 1_565 S
C356 O347 1.257 . S
O357 Tb336 2.415 . S
O357 C345 1.239 . S
O358 Tb336 2.399 . S
O358 C345 1.263 . S
C359 O348 1.261 . S
C359 O349 1.257 1_556 S
C360 C363 1.358 1_554 S
C360 C364 1.332 . S
C360 C366 1.504 . S
C361 C362 1.344 1_554 S
C361 C365 1.341 . S
C362 C361 1.344 1_556 S
C362 C363 1.429 . S
C362 H372 0.932 . S
C363 C360 1.358 1_556 S
C363 C362 1.429 . S
C363 H373 0.930 . S
C364 C360 1.332 . S
C364 C365 1.394 . S
C364 H374 0.932 . S
C365 C361 1.341 . S
C365 C364 1.394 . S
C365 H375 0.929 . S
C366 Tb337 2.764 1_655 S
C366 O350 1.239 . S
C366 O351 1.263 1_554 S
C366 C360 1.504 . S
C367 O352 1.236 . S
C367 O353 1.257 . S
H368 C341 0.932 . S
H369 C342 0.930 . S
H370 C343 0.932 . S
H371 C344 0.929 1_565 S
H372 C362 0.932 . S
H373 C363 0.930 . S
H374 C364 0.932 . S
H375 C365 0.929 . S
Tb376 C385 2.764 . S
Tb376 O386 2.325 . S
Tb376 O389 2.303 . S
Tb376 O393 2.322 . S
Tb376 O394 2.349 . S
Tb376 O397 2.415 . S
Tb376 O398 2.399 . S
Tb377 O387 2.322 . S
Tb377 O388 2.349 . S
Tb377 O390 2.415 . S
Tb377 O391 2.399 . S
Tb377 O392 2.325 . S
Tb377 O395 2.303 . S
Tb377 C406 2.764 . S
C378 O394 1.261 . S
C378 O395 1.257 . S
C379 C382 1.358 . S
C379 C383 1.332 . S
C379 C385 1.504 . S
C380 C381 1.373 . S
C380 C384 1.308 . S
C381 C380 1.373 . S
C381 C382 1.429 . S
C381 H408 0.932 . S
C382 C379 1.358 . S
C382 C381 1.429 . S
C382 H409 0.930 . S
C383 C379 1.332 . S
C383 C384 1.394 . S
C383 H410 0.932 . S
C384 C380 1.308 . S
C384 C383 1.394 . S
C384 H411 0.929 . S
C385 Tb376 2.764 . S
C385 C379 1.504 . S
C385 O397 1.239 . S
C385 O398 1.263 . S
O386 Tb376 2.325 . S
O386 C396 1.236 . S
O387 Tb377 2.322 . S
O387 C396 1.257 . S
O388 Tb377 2.349 . S
O388 C399 1.261 . S
O389 Tb376 2.303 . S
O389 C399 1.257 . S
O390 Tb377 2.415 . S
O390 C406 1.239 . S
O391 Tb377 2.399 . S
O391 C406 1.263 . S
O392 Tb377 2.325 . S
O392 C407 1.236 . S
O393 Tb376 2.322 . S
O393 C407 1.257 . S
O394 Tb376 2.349 . S
O394 C378 1.261 . S
O395 Tb377 2.303 . S
O395 C378 1.257 . S
C396 O386 1.236 . S
C396 O387 1.257 . S
O397 Tb376 2.415 . S
O397 C385 1.239 . S
O398 Tb376 2.399 . S
O398 C385 1.263 . S
C399 O388 1.261 . S
C399 O389 1.257 . S
C400 C403 1.358 . S
C400 C404 1.332 . S
C400 C406 1.504 . S
C401 C402 1.373 . S
C401 C405 1.308 . S
C402 C401 1.373 . S
C402 C403 1.429 . S
C402 H412 0.932 . S
C403 C400 1.358 . S
C403 C402 1.429 . S
C403 H413 0.930 . S
C404 C400 1.332 . S
C404 C405 1.394 . S
C404 H414 0.932 . S
C405 C401 1.308 . S
C405 C404 1.394 . S
C405 H415 0.929 . S
C406 Tb377 2.764 . S
C406 O390 1.239 . S
C406 O391 1.263 . S
C406 C400 1.504 . S
C407 O392 1.236 . S
C407 O393 1.257 . S
H408 C381 0.932 . S
H409 C382 0.930 . S
H410 C383 0.932 . S
H411 C384 0.929 . S
H412 C402 0.932 . S
H413 C403 0.930 . S
H414 C404 0.932 . S
H415 C405 0.929 . S
Tb416 C425 2.764 . S
Tb416 O426 2.325 . S
Tb416 O429 2.303 . S
Tb416 O433 2.322 1_545 S
Tb416 O434 2.349 . S
Tb416 O437 2.415 . S
Tb416 O438 2.399 . S
Tb417 O427 2.322 . S
Tb417 O428 2.349 . S
Tb417 O430 2.415 . S
Tb417 O431 2.399 . S
Tb417 O432 2.325 1_545 S
Tb417 O435 2.303 . S
Tb417 C446 2.764 . S
C418 O434 1.261 . S
C418 O435 1.257 . S
C419 C422 1.358 . S
C419 C423 1.332 . S
C419 C425 1.504 . S
C420 C421 1.373 . S
C420 C424 1.308 . S
C421 C420 1.373 . S
C421 C422 1.429 . S
C421 H448 0.932 . S
C422 C419 1.358 . S
C422 C421 1.429 . S
C422 H449 0.930 . S
C423 C419 1.332 . S
C423 C424 1.394 . S
C423 H450 0.932 . S
C424 C420 1.308 . S
C424 C423 1.394 . S
C424 H451 0.929 . S
C425 Tb416 2.764 . S
C425 C419 1.504 . S
C425 O437 1.239 . S
C425 O438 1.263 . S
O426 Tb416 2.325 . S
O426 C436 1.236 . S
O427 Tb417 2.322 . S
O427 C436 1.257 . S
O428 Tb417 2.349 . S
O428 C439 1.261 . S
O429 Tb416 2.303 . S
O429 C439 1.257 . S
O430 Tb417 2.415 . S
O430 C446 1.239 . S
O431 Tb417 2.399 . S
O431 C446 1.263 . S
O432 Tb417 2.325 1_565 S
O432 C447 1.236 . S
O433 Tb416 2.322 1_565 S
O433 C447 1.257 . S
O434 Tb416 2.349 . S
O434 C418 1.261 . S
O435 Tb417 2.303 . S
O435 C418 1.257 . S
C436 O426 1.236 . S
C436 O427 1.257 . S
O437 Tb416 2.415 . S
O437 C425 1.239 . S
O438 Tb416 2.399 . S
O438 C425 1.263 . S
C439 O428 1.261 . S
C439 O429 1.257 . S
C440 C443 1.358 . S
C440 C444 1.332 . S
C440 C446 1.504 1_565 S
C441 C442 1.373 . S
C441 C445 1.308 . S
C442 C441 1.373 . S
C442 C443 1.438 . S
C442 H452 0.932 . S
C443 C440 1.358 . S
C443 C442 1.438 . S
C443 H453 0.921 1_565 S
C444 C440 1.332 . S
C444 C445 1.394 . S
C444 H454 0.932 . S
C445 C441 1.308 . S
C445 C444 1.394 . S
C445 H455 0.929 . S
C446 Tb417 2.764 . S
C446 O430 1.239 . S
C446 O431 1.263 . S
C446 C440 1.504 1_545 S
C447 O432 1.236 . S
C447 O433 1.257 . S
H448 C421 0.932 . S
H449 C422 0.930 . S
H450 C423 0.932 . S
H451 C424 0.929 . S
H452 C442 0.932 . S
H453 C443 0.921 1_545 S
H454 C444 0.932 . S
H455 C445 0.929 . S
Tb456 C465 2.764 . S
Tb456 O466 2.325 . S
Tb456 O469 2.303 . S
Tb456 O473 2.322 . S
Tb456 O474 2.349 . S
Tb456 O477 2.415 . S
Tb456 O478 2.399 . S
Tb457 O467 2.322 . S
Tb457 O468 2.349 . S
Tb457 O470 2.415 . S
Tb457 O471 2.399 . S
Tb457 O472 2.325 . S
Tb457 O475 2.303 . S
Tb457 C486 2.764 . S
C458 O474 1.261 . S
C458 O475 1.257 . S
C459 C462 1.358 . S
C459 C463 1.332 . S
C459 C465 1.504 . S
C460 C461 1.373 . S
C460 C464 1.308 . S
C461 C460 1.373 . S
C461 C462 1.429 . S
C461 H488 0.932 . S
C462 C459 1.358 . S
C462 C461 1.429 . S
C462 H489 0.930 . S
C463 C459 1.332 . S
C463 C464 1.394 . S
C463 H490 0.932 . S
C464 C460 1.308 . S
C464 C463 1.394 . S
C464 H491 0.929 . S
C465 Tb456 2.764 . S
C465 C459 1.504 . S
C465 O477 1.239 . S
C465 O478 1.263 . S
O466 Tb456 2.325 . S
O466 C476 1.236 . S
O467 Tb457 2.322 . S
O467 C476 1.257 . S
O468 Tb457 2.349 . S
O468 C479 1.261 . S
O469 Tb456 2.303 . S
O469 C479 1.257 . S
O470 Tb457 2.415 . S
O470 C486 1.239 . S
O471 Tb457 2.399 . S
O471 C486 1.263 . S
O472 Tb457 2.325 . S
O472 C487 1.236 . S
O473 Tb456 2.322 . S
O473 C487 1.257 . S
O474 Tb456 2.349 . S
O474 C458 1.261 . S
O475 Tb457 2.303 . S
O475 C458 1.257 . S
C476 O466 1.236 . S
C476 O467 1.257 . S
O477 Tb456 2.415 . S
O477 C465 1.239 . S
O478 Tb456 2.399 . S
O478 C465 1.263 . S
C479 O468 1.261 . S
C479 O469 1.257 . S
C480 C483 1.358 . S
C480 C484 1.332 . S
C480 C486 1.504 . S
C481 C482 1.373 . S
C481 C485 1.308 . S
C482 C481 1.373 . S
C482 C483 1.429 . S
C482 H492 0.932 . S
C483 C480 1.358 . S
C483 C482 1.429 . S
C483 H493 0.930 . S
C484 C480 1.332 . S
C484 C485 1.394 . S
C484 H494 0.932 . S
C485 C481 1.308 . S
C485 C484 1.394 . S
C485 H495 0.929 . S
C486 Tb457 2.764 . S
C486 O470 1.239 . S
C486 O471 1.263 . S
C486 C480 1.504 . S
C487 O472 1.236 . S
C487 O473 1.257 . S
H488 C461 0.932 . S
H489 C462 0.930 . S
H490 C463 0.932 . S
H491 C464 0.929 . S
H492 C482 0.932 . S
H493 C483 0.930 . S
H494 C484 0.932 . S
H495 C485 0.929 . S
Tb496 C505 2.764 . S
Tb496 O506 2.325 . S
Tb496 O509 2.303 . S
Tb496 O513 2.322 . S
Tb496 O514 2.349 . S
Tb496 O517 2.415 . S
Tb496 O518 2.399 . S
Tb497 O507 2.322 1_545 S
Tb497 O508 2.349 . S
Tb497 O510 2.415 . S
Tb497 O511 2.399 . S
Tb497 O512 2.325 . S
Tb497 O515 2.303 . S
Tb497 C526 2.764 . S
C498 O514 1.261 . S
C498 O515 1.251 . S
C499 C502 1.358 . S
C499 C503 1.332 . S
C499 C505 1.504 . S
C500 C501 1.373 . S
C500 C504 1.308 . S
C501 C500 1.373 . S
C501 C502 1.429 . S
C501 H528 0.932 . S
C502 C499 1.358 . S
C502 C501 1.429 . S
C502 H529 0.930 . S
C503 C499 1.332 . S
C503 C504 1.394 . S
C503 H530 0.932 . S
C504 C500 1.308 . S
C504 C503 1.394 . S
C504 H531 0.929 . S
C505 Tb496 2.764 . S
C505 C499 1.504 . S
C505 O517 1.239 . S
C505 O518 1.263 . S
O506 Tb496 2.325 . S
O506 C516 1.236 1_545 S
O507 Tb497 2.322 1_565 S
O507 C516 1.257 . S
O508 Tb497 2.349 . S
O508 C519 1.261 . S
O509 Tb496 2.303 . S
O509 C519 1.257 . S
O510 Tb497 2.415 . S
O510 C526 1.239 . S
O511 Tb497 2.399 . S
O511 C526 1.263 . S
O512 Tb497 2.325 . S
O512 C527 1.236 . S
O513 Tb496 2.322 . S
O513 C527 1.257 . S
O514 Tb496 2.349 . S
O514 C498 1.261 . S
O515 Tb497 2.303 . S
O515 C498 1.251 . S
C516 O506 1.236 1_565 S
C516 O507 1.257 . S
O517 Tb496 2.415 . S
O517 C505 1.239 . S
O518 Tb496 2.399 . S
O518 C505 1.263 . S
C519 O508 1.261 . S
C519 O509 1.257 . S
C520 C523 1.358 . S
C520 C524 1.281 1_455 S
C520 C526 1.504 . S
C521 C522 1.373 . S
C521 C525 1.308 1_455 S
C522 C521 1.373 . S
C522 C523 1.429 . S
C522 H532 0.932 . S
C523 C520 1.358 . S
C523 C522 1.429 . S
C523 H533 0.930 . S
C524 C520 1.281 1_655 S
C524 C525 1.410 . S
C524 H534 0.970 . S
C525 C521 1.308 1_655 S
C525 C524 1.410 . S
C525 H535 0.929 . S
C526 Tb497 2.764 . S
C526 O510 1.239 . S
C526 O511 1.263 . S
C526 C520 1.504 . S
C527 O512 1.236 . S
C527 O513 1.257 . S
H528 C501 0.932 . S
H529 C502 0.930 . S
H530 C503 0.932 . S
H531 C504 0.929 . S
H532 C522 0.932 . S
H533 C523 0.930 . S
H534 C524 0.970 . S
H535 C525 0.929 . S
Tb536 C545 2.764 . S
Tb536 O546 2.325 . S
Tb536 O549 2.303 . S
Tb536 O553 2.322 . S
Tb536 O554 2.349 . S
Tb536 O557 2.415 . S
Tb536 O558 2.399 . S
Tb537 O547 2.322 . S
Tb537 O548 2.349 . S
Tb537 O550 2.415 . S
Tb537 O551 2.399 . S
Tb537 O552 2.325 . S
Tb537 O555 2.303 . S
Tb537 C566 2.764 . S
C538 O554 1.261 . S
C538 O555 1.257 . S
C539 C542 1.358 . S
C539 C543 1.332 . S
C539 C545 1.504 . S
C540 C541 1.373 . S
C540 C544 1.308 . S
C541 C540 1.373 . S
C541 C542 1.429 . S
C541 H568 0.932 . S
C542 C539 1.358 . S
C542 C541 1.429 . S
C542 H569 0.930 . S
C543 C539 1.332 . S
C543 C544 1.394 . S
C543 H570 0.932 . S
C544 C540 1.308 . S
C544 C543 1.394 . S
C544 H571 0.929 . S
C545 Tb536 2.764 . S
C545 C539 1.504 . S
C545 O557 1.239 . S
C545 O558 1.263 . S
O546 Tb536 2.325 . S
O546 C556 1.236 . S
O547 Tb537 2.322 . S
O547 C556 1.257 . S
O548 Tb537 2.349 . S
O548 C559 1.261 . S
O549 Tb536 2.303 . S
O549 C559 1.257 . S
O550 Tb537 2.415 . S
O550 C566 1.239 . S
O551 Tb537 2.399 . S
O551 C566 1.263 . S
O552 Tb537 2.325 . S
O552 C567 1.236 . S
O553 Tb536 2.322 . S
O553 C567 1.257 . S
O554 Tb536 2.349 . S
O554 C538 1.261 . S
O555 Tb537 2.303 . S
O555 C538 1.257 . S
C556 O546 1.236 . S
C556 O547 1.257 . S
O557 Tb536 2.415 . S
O557 C545 1.239 . S
O558 Tb536 2.399 . S
O558 C545 1.263 . S
C559 O548 1.261 . S
C559 O549 1.257 . S
C560 C563 1.358 . S
C560 C564 1.332 . S
C560 C566 1.504 . S
C561 C562 1.373 . S
C561 C565 1.308 . S
C562 C561 1.373 . S
C562 C563 1.429 . S
C562 H572 0.932 . S
C563 C560 1.358 . S
C563 C562 1.429 . S
C563 H573 0.930 . S
C564 C560 1.332 . S
C564 C565 1.394 . S
C564 H574 0.932 . S
C565 C561 1.308 . S
C565 C564 1.394 . S
C565 H575 0.929 . S
C566 Tb537 2.764 . S
C566 O550 1.239 . S
C566 O551 1.263 . S
C566 C560 1.504 . S
C567 O552 1.236 . S
C567 O553 1.257 . S
H568 C541 0.932 . S
H569 C542 0.930 . S
H570 C543 0.932 . S
H571 C544 0.929 . S
H572 C562 0.932 . S
H573 C563 0.930 . S
H574 C564 0.932 . S
H575 C565 0.929 . S
Tb576 C585 2.764 . S
Tb576 O586 2.325 . S
Tb576 O589 2.303 . S
Tb576 O593 2.322 1_545 S
Tb576 O594 2.349 . S
Tb576 O597 2.415 . S
Tb576 O598 2.399 . S
Tb577 O587 2.323 1_556 S
Tb577 O588 2.352 . S
Tb577 O590 2.415 . S
Tb577 O591 2.399 . S
Tb577 O592 2.325 . S
Tb577 O595 2.303 1_556 S
Tb577 C606 2.764 . S
C578 O594 1.261 . S
C578 O595 1.257 . S
C579 C582 1.358 . S
C579 C583 1.332 . S
C579 C585 1.504 . S
C580 C581 1.373 . S
C580 C584 1.308 . S
C581 C580 1.373 . S
C581 C582 1.429 . S
C581 H608 0.932 . S
C582 C579 1.358 . S
C582 C581 1.429 . S
C582 H609 0.930 . S
C583 C579 1.332 . S
C583 C584 1.394 . S
C583 H610 0.932 . S
C584 C580 1.308 . S
C584 C583 1.394 . S
C584 H611 0.929 . S
C585 Tb576 2.764 . S
C585 C579 1.504 . S
C585 O597 1.239 . S
C585 O598 1.263 . S
O586 Tb576 2.325 . S
O586 C596 1.236 . S
O587 Tb577 2.323 1_554 S
O587 C596 1.257 . S
O588 Tb577 2.352 . S
O588 C599 1.234 1_556 S
O589 Tb576 2.303 . S
O589 C599 1.257 . S
O590 Tb577 2.415 . S
O590 C606 1.239 . S
O591 Tb577 2.399 . S
O591 C606 1.263 . S
O592 Tb577 2.325 . S
O592 C607 1.236 1_546 S
O593 Tb576 2.322 1_565 S
O593 C607 1.257 . S
O594 Tb576 2.349 . S
O594 C578 1.261 . S
O595 Tb577 2.303 1_554 S
O595 C578 1.257 . S
C596 O586 1.236 . S
C596 O587 1.257 . S
O597 Tb576 2.415 . S
O597 C585 1.239 . S
O598 Tb576 2.399 . S
O598 C585 1.263 . S
C599 O588 1.234 1_554 S
C599 O589 1.257 . S
C600 C603 1.358 . S
C600 C604 1.332 . S
C600 C606 1.504 . S
C601 C602 1.373 . S
C601 C605 1.308 . S
C602 C601 1.373 . S
C602 C603 1.429 . S
C602 H612 0.932 . S
C603 C600 1.358 . S
C603 C602 1.429 . S
C603 H613 0.930 . S
C604 C600 1.332 . S
C604 C605 1.394 . S
C604 H614 0.932 . S
C605 C601 1.308 . S
C605 C604 1.394 . S
C605 H615 0.929 . S
C606 Tb577 2.764 . S
C606 O590 1.239 . S
C606 O591 1.263 . S
C606 C600 1.504 . S
C607 O592 1.236 1_564 S
C607 O593 1.257 . S
H608 C581 0.932 . S
H609 C582 0.930 . S
H610 C583 0.932 . S
H611 C584 0.929 . S
H612 C602 0.932 . S
H613 C603 0.930 . S
H614 C604 0.932 . S
H615 C605 0.929 . S
Tb616 C625 2.764 . S
Tb616 O626 2.325 . S
Tb616 O629 2.303 . S
Tb616 O633 2.322 . S
Tb616 O634 2.349 . S
Tb616 O637 2.415 . S
Tb616 O638 2.399 . S
Tb617 O627 2.322 . S
Tb617 O628 2.349 . S
Tb617 O630 2.415 . S
Tb617 O631 2.399 . S
Tb617 O632 2.325 . S
Tb617 O635 2.303 . S
Tb617 C646 2.764 . S
C618 O634 1.261 . S
C618 O635 1.257 . S
C619 C622 1.358 . S
C619 C623 1.332 . S
C619 C625 1.504 . S
C620 C621 1.373 . S
C620 C624 1.308 . S
C621 C620 1.373 . S
C621 C622 1.429 . S
C621 H648 0.932 . S
C622 C619 1.358 . S
C622 C621 1.429 . S
C622 H649 0.930 . S
C623 C619 1.332 . S
C623 C624 1.394 . S
C623 H650 0.932 . S
C624 C620 1.308 . S
C624 C623 1.394 . S
C624 H651 0.929 . S
C625 Tb616 2.764 . S
C625 C619 1.504 . S
C625 O637 1.239 . S
C625 O638 1.263 . S
O626 Tb616 2.325 . S
O626 C636 1.236 . S
O627 Tb617 2.322 . S
O627 C636 1.257 . S
O628 Tb617 2.349 . S
O628 C639 1.261 . S
O629 Tb616 2.303 . S
O629 C639 1.257 . S
O630 Tb617 2.415 . S
O630 C646 1.239 . S
O631 Tb617 2.399 . S
O631 C646 1.263 . S
O632 Tb617 2.325 . S
O632 C647 1.236 . S
O633 Tb616 2.322 . S
O633 C647 1.257 . S
O634 Tb616 2.349 . S
O634 C618 1.261 . S
O635 Tb617 2.303 . S
O635 C618 1.257 . S
C636 O626 1.236 . S
C636 O627 1.257 . S
O637 Tb616 2.415 . S
O637 C625 1.239 . S
O638 Tb616 2.399 . S
O638 C625 1.263 . S
C639 O628 1.261 . S
C639 O629 1.257 . S
C640 C643 1.358 . S
C640 C644 1.332 . S
C640 C646 1.504 . S
C641 C642 1.373 . S
C641 C645 1.308 . S
C642 C641 1.373 . S
C642 C643 1.429 . S
C642 H652 0.932 . S
C643 C640 1.358 . S
C643 C642 1.429 . S
C643 H653 0.930 . S
C644 C640 1.332 . S
C644 C645 1.394 . S
C644 H654 0.932 . S
C645 C641 1.308 . S
C645 C644 1.394 . S
C645 H655 0.929 . S
C646 Tb617 2.764 . S
C646 O630 1.239 . S
C646 O631 1.263 . S
C646 C640 1.504 . S
C647 O632 1.236 . S
C647 O633 1.257 . S
H648 C621 0.932 . S
H649 C622 0.930 . S
H650 C623 0.932 . S
H651 C624 0.929 . S
H652 C642 0.932 . S
H653 C643 0.930 . S
H654 C644 0.932 . S
H655 C645 0.929 . S
Tb656 C665 2.764 . S
Tb656 O666 2.325 . S
Tb656 O669 2.303 . S
Tb656 O673 2.322 . S
Tb656 O674 2.349 . S
Tb656 O677 2.415 . S
Tb656 O678 2.399 . S
Tb657 O667 2.322 1_556 S
Tb657 O668 2.349 1_556 S
Tb657 O670 2.415 . S
Tb657 O671 2.399 . S
Tb657 O672 2.325 . S
Tb657 O675 2.303 1_556 S
Tb657 C686 2.764 . S
C658 O674 1.261 . S
C658 O675 1.257 . S
C659 C662 1.358 . S
C659 C663 1.332 . S
C659 C665 1.504 . S
C660 C661 1.373 . S
C660 C664 1.308 . S
C661 C660 1.373 . S
C661 C662 1.429 . S
C661 H688 0.932 . S
C662 C659 1.358 . S
C662 C661 1.429 . S
C662 H689 0.930 . S
C663 C659 1.332 . S
C663 C664 1.394 . S
C663 H690 0.932 . S
C664 C660 1.308 . S
C664 C663 1.394 . S
C664 H691 0.929 . S
C665 Tb656 2.764 . S
C665 C659 1.504 . S
C665 O677 1.239 . S
C665 O678 1.263 . S
O666 Tb656 2.325 . S
O666 C676 1.236 . S
O667 Tb657 2.322 1_554 S
O667 C676 1.257 . S
O668 Tb657 2.349 1_554 S
O668 C679 1.261 . S
O669 Tb656 2.303 . S
O669 C679 1.257 . S
O670 Tb657 2.415 . S
O670 C686 1.239 . S
O671 Tb657 2.399 . S
O671 C686 1.263 . S
O672 Tb657 2.325 . S
O672 C687 1.236 1_556 S
O673 Tb656 2.322 . S
O673 C687 1.257 . S
O674 Tb656 2.349 . S
O674 C658 1.261 . S
O675 Tb657 2.303 1_554 S
O675 C658 1.257 . S
C676 O666 1.236 . S
C676 O667 1.257 . S
O677 Tb656 2.415 . S
O677 C665 1.239 . S
O678 Tb656 2.399 . S
O678 C665 1.263 . S
C679 O668 1.261 . S
C679 O669 1.257 . S
C680 C683 1.358 . S
C680 C684 1.332 . S
C680 C686 1.504 . S
C681 C682 1.373 . S
C681 C685 1.308 . S
C682 C681 1.373 . S
C682 C683 1.429 . S
C682 H692 0.932 . S
C683 C680 1.358 . S
C683 C682 1.429 . S
C683 H693 0.930 . S
C684 C680 1.332 . S
C684 C685 1.394 . S
C684 H694 0.932 . S
C685 C681 1.308 . S
C685 C684 1.394 . S
C685 H695 0.929 . S
C686 Tb657 2.764 . S
C686 O670 1.239 . S
C686 O671 1.263 . S
C686 C680 1.504 . S
C687 O672 1.236 1_554 S
C687 O673 1.257 . S
H688 C661 0.932 . S
H689 C662 0.930 . S
H690 C663 0.932 . S
H691 C664 0.929 . S
H692 C682 0.932 . S
H693 C683 0.930 . S
H694 C684 0.932 . S
H695 C685 0.929 . S
Tb696 C705 2.764 . S
Tb696 O706 2.325 . S
Tb696 O709 2.303 . S
Tb696 O713 2.322 . S
Tb696 O714 2.349 . S
Tb696 O717 2.415 . S
Tb696 O718 2.399 . S
Tb697 O707 2.322 . S
Tb697 O708 2.349 . S
Tb697 O710 2.415 . S
Tb697 O711 2.399 . S
Tb697 O712 2.325 . S
Tb697 O715 2.303 . S
Tb697 C726 2.764 . S
C698 O714 1.261 . S
C698 O715 1.257 . S
C699 C702 1.358 . S
C699 C703 1.332 . S
C699 C705 1.504 . S
C700 C701 1.373 . S
C700 C704 1.308 . S
C701 C700 1.373 . S
C701 C702 1.429 . S
C701 H728 0.932 . S
C702 C699 1.358 . S
C702 C701 1.429 . S
C702 H729 0.930 . S
C703 C699 1.332 . S
C703 C704 1.394 . S
C703 H730 0.932 . S
C704 C700 1.308 . S
C704 C703 1.394 . S
C704 H731 0.929 . S
C705 Tb696 2.764 . S
C705 C699 1.504 . S
C705 O717 1.239 . S
C705 O718 1.263 . S
O706 Tb696 2.325 . S
O706 C716 1.236 . S
O707 Tb697 2.322 . S
O707 C716 1.257 . S
O708 Tb697 2.349 . S
O708 C719 1.261 . S
O709 Tb696 2.303 . S
O709 C719 1.257 . S
O710 Tb697 2.415 . S
O710 C726 1.239 . S
O711 Tb697 2.399 . S
O711 C726 1.263 . S
O712 Tb697 2.325 . S
O712 C727 1.236 . S
O713 Tb696 2.322 . S
O713 C727 1.257 . S
O714 Tb696 2.349 . S
O714 C698 1.261 . S
O715 Tb697 2.303 . S
O715 C698 1.257 . S
C716 O706 1.236 . S
C716 O707 1.257 . S
O717 Tb696 2.415 . S
O717 C705 1.239 . S
O718 Tb696 2.399 . S
O718 C705 1.263 . S
C719 O708 1.261 . S
C719 O709 1.257 . S
C720 C723 1.358 . S
C720 C724 1.332 . S
C720 C726 1.504 . S
C721 C722 1.373 . S
C721 C725 1.308 . S
C722 C721 1.373 . S
C722 C723 1.429 . S
C722 H732 0.932 . S
C723 C720 1.358 . S
C723 C722 1.429 . S
C723 H733 0.930 . S
C724 C720 1.332 . S
C724 C725 1.394 . S
C724 H734 0.932 . S
C725 C721 1.308 . S
C725 C724 1.394 . S
C725 H735 0.929 . S
C726 Tb697 2.764 . S
C726 O710 1.239 . S
C726 O711 1.263 . S
C726 C720 1.504 . S
C727 O712 1.236 . S
C727 O713 1.257 . S
H728 C701 0.932 . S
H729 C702 0.930 . S
H730 C703 0.932 . S
H731 C704 0.929 . S
H732 C722 0.932 . S
H733 C723 0.930 . S
H734 C724 0.932 . S
H735 C725 0.929 . S
Tb736 C745 2.764 . S
Tb736 O746 2.325 . S
Tb736 O749 2.303 . S
Tb736 O753 2.322 . S
Tb736 O754 2.349 . S
Tb736 O757 2.415 . S
Tb736 O758 2.399 . S
Tb737 O747 2.322 . S
Tb737 O748 2.349 . S
Tb737 O750 2.415 . S
Tb737 O751 2.399 . S
Tb737 O752 2.325 . S
Tb737 O755 2.303 . S
Tb737 C766 2.764 . S
C738 O754 1.261 . S
C738 O755 1.257 . S
C739 C742 1.358 . S
C739 C743 1.314 1_455 S
C739 C745 1.504 . S
C740 C741 1.373 . S
C740 C744 1.308 1_455 S
C741 C740 1.373 . S
C741 C742 1.429 . S
C741 H768 0.932 . S
C742 C739 1.358 . S
C742 C741 1.429 . S
C742 H769 0.930 . S
C743 C739 1.314 1_655 S
C743 C744 1.401 . S
C743 H770 0.943 . S
C744 C740 1.308 1_655 S
C744 C743 1.401 . S
C744 H771 0.929 . S
C745 Tb736 2.764 . S
C745 C739 1.504 . S
C745 O757 1.239 . S
C745 O758 1.263 . S
O746 Tb736 2.325 . S
O746 C756 1.236 . S
O747 Tb737 2.322 . S
O747 C756 1.257 . S
O748 Tb737 2.349 . S
O748 C759 1.261 1_455 S
O749 Tb736 2.303 . S
O749 C759 1.257 1_455 S
O750 Tb737 2.415 . S
O750 C766 1.239 . S
O751 Tb737 2.399 . S
O751 C766 1.263 . S
O752 Tb737 2.325 . S
O752 C767 1.236 . S
O753 Tb736 2.322 . S
O753 C767 1.257 . S
O754 Tb736 2.349 . S
O754 C738 1.261 . S
O755 Tb737 2.303 . S
O755 C738 1.257 . S
C756 O746 1.236 . S
C756 O747 1.257 . S
O757 Tb736 2.415 . S
O757 C745 1.239 . S
O758 Tb736 2.399 . S
O758 C745 1.263 . S
C759 O748 1.261 1_655 S
C759 O749 1.257 1_655 S
C760 C763 1.358 . S
C760 C764 1.332 . S
C760 C766 1.504 . S
C761 C762 1.373 . S
C761 C765 1.308 . S
C762 C761 1.373 . S
C762 C763 1.429 . S
C762 H772 0.932 . S
C763 C760 1.358 . S
C763 C762 1.429 . S
C763 H773 0.930 . S
C764 C760 1.332 . S
C764 C765 1.394 . S
C764 H774 0.932 . S
C765 C761 1.308 . S
C765 C764 1.394 . S
C765 H775 0.929 . S
C766 Tb737 2.764 . S
C766 O750 1.239 . S
C766 O751 1.263 . S
C766 C760 1.504 . S
C767 O752 1.236 . S
C767 O753 1.257 . S
H768 C741 0.932 . S
H769 C742 0.930 . S
H770 C743 0.943 . S
H771 C744 0.929 . S
H772 C762 0.932 . S
H773 C763 0.930 . S
H774 C764 0.932 . S
H775 C765 0.929 . S
Tb776 C785 2.764 . S
Tb776 O786 2.325 . S
Tb776 O789 2.303 . S
Tb776 O793 2.322 . S
Tb776 O794 2.349 . S
Tb776 O797 2.415 . S
Tb776 O798 2.399 . S
Tb777 O787 2.322 . S
Tb777 O788 2.349 . S
Tb777 O790 2.415 . S
Tb777 O791 2.399 . S
Tb777 O792 2.325 . S
Tb777 O795 2.303 . S
Tb777 C806 2.764 . S
C778 O794 1.261 . S
C778 O795 1.257 . S
C779 C782 1.358 . S
C779 C783 1.332 . S
C779 C785 1.504 . S
C780 C781 1.373 . S
C780 C784 1.308 . S
C781 C780 1.373 . S
C781 C782 1.429 . S
C781 H808 0.932 . S
C782 C779 1.358 . S
C782 C781 1.429 . S
C782 H809 0.930 . S
C783 C779 1.332 . S
C783 C784 1.394 . S
C783 H810 0.932 . S
C784 C780 1.308 . S
C784 C783 1.394 . S
C784 H811 0.929 . S
C785 Tb776 2.764 . S
C785 C779 1.504 . S
C785 O797 1.239 . S
C785 O798 1.263 . S
O786 Tb776 2.325 . S
O786 C796 1.236 . S
O787 Tb777 2.322 . S
O787 C796 1.257 . S
O788 Tb777 2.349 . S
O788 C799 1.261 . S
O789 Tb776 2.303 . S
O789 C799 1.257 . S
O790 Tb777 2.415 . S
O790 C806 1.239 . S
O791 Tb777 2.399 . S
O791 C806 1.263 . S
O792 Tb777 2.325 . S
O792 C807 1.236 . S
O793 Tb776 2.322 . S
O793 C807 1.257 . S
O794 Tb776 2.349 . S
O794 C778 1.261 . S
O795 Tb777 2.303 . S
O795 C778 1.257 . S
C796 O786 1.236 . S
C796 O787 1.257 . S
O797 Tb776 2.415 . S
O797 C785 1.239 . S
O798 Tb776 2.399 . S
O798 C785 1.263 . S
C799 O788 1.261 . S
C799 O789 1.257 . S
C800 C803 1.358 . S
C800 C804 1.332 . S
C800 C806 1.504 . S
C801 C802 1.373 . S
C801 C805 1.308 . S
C802 C801 1.373 . S
C802 C803 1.429 . S
C802 H812 0.932 . S
C803 C800 1.358 . S
C803 C802 1.429 . S
C803 H813 0.930 . S
C804 C800 1.332 . S
C804 C805 1.394 . S
C804 H814 0.932 . S
C805 C801 1.308 . S
C805 C804 1.394 . S
C805 H815 0.929 . S
C806 Tb777 2.764 . S
C806 O790 1.239 . S
C806 O791 1.263 . S
C806 C800 1.504 . S
C807 O792 1.236 . S
C807 O793 1.257 . S
H808 C781 0.932 . S
H809 C782 0.930 . S
H810 C783 0.932 . S
H811 C784 0.929 . S
H812 C802 0.932 . S
H813 C803 0.930 . S
H814 C804 0.932 . S
H815 C805 0.929 . S
Tb816 C825 2.764 . S
Tb816 O826 2.325 . S
Tb816 O829 2.303 . S
Tb816 O833 2.322 . S
Tb816 O834 2.349 . S
Tb816 O837 2.415 . S
Tb816 O838 2.399 . S
Tb817 O827 2.322 . S
Tb817 O828 2.349 . S
Tb817 O830 2.415 . S
Tb817 O831 2.399 . S
Tb817 O832 2.325 . S
Tb817 O835 2.303 . S
Tb817 C846 2.764 . S
C818 O834 1.261 . S
C818 O835 1.257 . S
C819 C822 1.358 . S
C819 C823 1.332 . S
C819 C825 1.504 . S
C820 C821 1.373 . S
C820 C824 1.308 . S
C821 C820 1.373 . S
C821 C822 1.429 . S
C821 H848 0.932 . S
C822 C819 1.358 . S
C822 C821 1.429 . S
C822 H849 0.930 . S
C823 C819 1.332 . S
C823 C824 1.394 . S
C823 H850 0.932 . S
C824 C820 1.308 . S
C824 C823 1.394 . S
C824 H851 0.929 . S
C825 Tb816 2.764 . S
C825 C819 1.504 . S
C825 O837 1.239 . S
C825 O838 1.263 . S
O826 Tb816 2.325 . S
O826 C836 1.236 . S
O827 Tb817 2.322 . S
O827 C836 1.257 . S
O828 Tb817 2.349 . S
O828 C839 1.261 . S
O829 Tb816 2.303 . S
O829 C839 1.257 . S
O830 Tb817 2.415 . S
O830 C846 1.239 . S
O831 Tb817 2.399 . S
O831 C846 1.263 . S
O832 Tb817 2.325 . S
O832 C847 1.236 . S
O833 Tb816 2.322 . S
O833 C847 1.257 . S
O834 Tb816 2.349 . S
O834 C818 1.261 . S
O835 Tb817 2.303 . S
O835 C818 1.257 . S
C836 O826 1.236 . S
C836 O827 1.257 . S
O837 Tb816 2.415 . S
O837 C825 1.239 . S
O838 Tb816 2.399 . S
O838 C825 1.263 . S
C839 O828 1.261 . S
C839 O829 1.257 . S
C840 C843 1.358 . S
C840 C844 1.332 . S
C840 C846 1.504 . S
C841 C842 1.373 . S
C841 C845 1.308 . S
C842 C841 1.373 . S
C842 C843 1.429 . S
C842 H852 0.932 . S
C843 C840 1.358 . S
C843 C842 1.429 . S
C843 H853 0.930 . S
C844 C840 1.332 . S
C844 C845 1.394 . S
C844 H854 0.932 . S
C845 C841 1.308 . S
C845 C844 1.394 . S
C845 H855 0.929 . S
C846 Tb817 2.764 . S
C846 O830 1.239 . S
C846 O831 1.263 . S
C846 C840 1.504 . S
C847 O832 1.236 . S
C847 O833 1.257 . S
H848 C821 0.932 . S
H849 C822 0.930 . S
H850 C823 0.932 . S
H851 C824 0.929 . S
H852 C842 0.932 . S
H853 C843 0.930 . S
H854 C844 0.932 . S
H855 C845 0.929 . S
Tb856 C865 2.764 . S
Tb856 O866 2.325 . S
Tb856 O869 2.303 . S
Tb856 O873 2.322 . S
Tb856 O874 2.349 . S
Tb856 O877 2.415 . S
Tb856 O878 2.399 . S
Tb857 O867 2.322 . S
Tb857 O868 2.349 . S
Tb857 O870 2.415 . S
Tb857 O871 2.399 . S
Tb857 O872 2.325 . S
Tb857 O875 2.303 . S
Tb857 C886 2.764 . S
C858 O874 1.261 . S
C858 O875 1.257 . S
C859 C862 1.358 . S
C859 C863 1.332 . S
C859 C865 1.504 . S
C860 C861 1.373 . S
C860 C864 1.308 . S
C861 C860 1.373 . S
C861 C862 1.429 . S
C861 H888 0.932 . S
C862 C859 1.358 . S
C862 C861 1.429 . S
C862 H889 0.930 . S
C863 C859 1.332 . S
C863 C864 1.394 . S
C863 H890 0.932 . S
C864 C860 1.308 . S
C864 C863 1.394 . S
C864 H891 0.929 . S
C865 Tb856 2.764 . S
C865 C859 1.504 . S
C865 O877 1.239 . S
C865 O878 1.263 . S
O866 Tb856 2.325 . S
O866 C876 1.236 . S
O867 Tb857 2.322 . S
O867 C876 1.257 . S
O868 Tb857 2.349 . S
O868 C879 1.261 . S
O869 Tb856 2.303 . S
O869 C879 1.257 . S
O870 Tb857 2.415 . S
O870 C886 1.239 . S
O871 Tb857 2.399 . S
O871 C886 1.263 . S
O872 Tb857 2.325 . S
O872 C887 1.236 . S
O873 Tb856 2.322 . S
O873 C887 1.257 . S
O874 Tb856 2.349 . S
O874 C858 1.261 . S
O875 Tb857 2.303 . S
O875 C858 1.257 . S
C876 O866 1.236 . S
C876 O867 1.257 . S
O877 Tb856 2.415 . S
O877 C865 1.239 . S
O878 Tb856 2.399 . S
O878 C865 1.263 . S
C879 O868 1.261 . S
C879 O869 1.257 . S
C880 C883 1.358 . S
C880 C884 1.332 . S
C880 C886 1.504 . S
C881 C882 1.373 . S
C881 C885 1.308 . S
C882 C881 1.373 . S
C882 C883 1.429 . S
C882 H892 0.932 . S
C883 C880 1.358 . S
C883 C882 1.429 . S
C883 H893 0.930 . S
C884 C880 1.332 . S
C884 C885 1.394 . S
C884 H894 0.932 . S
C885 C881 1.308 . S
C885 C884 1.394 . S
C885 H895 0.929 . S
C886 Tb857 2.764 . S
C886 O870 1.239 . S
C886 O871 1.263 . S
C886 C880 1.504 . S
C887 O872 1.236 . S
C887 O873 1.257 . S
H888 C861 0.932 . S
H889 C862 0.930 . S
H890 C863 0.932 . S
H891 C864 0.929 . S
H892 C882 0.932 . S
H893 C883 0.930 . S
H894 C884 0.932 . S
H895 C885 0.929 . S
Tb896 C905 2.764 . S
Tb896 O906 2.325 . S
Tb896 O909 2.303 . S
Tb896 O913 2.322 . S
Tb896 O914 2.349 . S
Tb896 O917 2.415 . S
Tb896 O918 2.399 . S
Tb897 O907 2.322 . S
Tb897 O908 2.349 . S
Tb897 O910 2.415 . S
Tb897 O911 2.399 . S
Tb897 O912 2.325 . S
Tb897 O915 2.303 . S
Tb897 C926 2.764 . S
C898 O914 1.261 . S
C898 O915 1.257 . S
C899 C902 1.358 . S
C899 C903 1.332 . S
C899 C905 1.504 . S
C900 C901 1.373 . S
C900 C904 1.308 . S
C901 C900 1.373 . S
C901 C902 1.429 . S
C901 H928 0.932 . S
C902 C899 1.358 . S
C902 C901 1.429 . S
C902 H929 0.930 . S
C903 C899 1.332 . S
C903 C904 1.394 . S
C903 H930 0.932 . S
C904 C900 1.308 . S
C904 C903 1.394 . S
C904 H931 0.929 . S
C905 Tb896 2.764 . S
C905 C899 1.504 . S
C905 O917 1.239 . S
C905 O918 1.263 . S
O906 Tb896 2.325 . S
O906 C916 1.236 . S
O907 Tb897 2.322 . S
O907 C916 1.257 . S
O908 Tb897 2.349 . S
O908 C919 1.261 . S
O909 Tb896 2.303 . S
O909 C919 1.257 . S
O910 Tb897 2.415 . S
O910 C926 1.239 . S
O911 Tb897 2.399 . S
O911 C926 1.263 . S
O912 Tb897 2.325 . S
O912 C927 1.236 . S
O913 Tb896 2.322 . S
O913 C927 1.257 . S
O914 Tb896 2.349 . S
O914 C898 1.261 . S
O915 Tb897 2.303 . S
O915 C898 1.257 . S
C916 O906 1.236 . S
C916 O907 1.257 . S
O917 Tb896 2.415 . S
O917 C905 1.239 . S
O918 Tb896 2.399 . S
O918 C905 1.263 . S
C919 O908 1.261 . S
C919 O909 1.257 . S
C920 C923 1.358 . S
C920 C924 1.332 . S
C920 C926 1.504 . S
C921 C922 1.373 . S
C921 C925 1.308 . S
C922 C921 1.373 . S
C922 C923 1.429 . S
C922 H932 0.932 . S
C923 C920 1.358 . S
C923 C922 1.429 . S
C923 H933 0.930 . S
C924 C920 1.332 . S
C924 C925 1.394 . S
C924 H934 0.932 . S
C925 C921 1.308 . S
C925 C924 1.394 . S
C925 H935 0.929 . S
C926 Tb897 2.764 . S
C926 O910 1.239 . S
C926 O911 1.263 . S
C926 C920 1.504 . S
C927 O912 1.236 . S
C927 O913 1.257 . S
H928 C901 0.932 . S
H929 C902 0.930 . S
H930 C903 0.932 . S
H931 C904 0.929 . S
H932 C922 0.932 . S
H933 C923 0.930 . S
H934 C924 0.932 . S
H935 C925 0.929 . S
Tb936 C945 2.764 1_455 S
Tb936 O946 2.325 . S
Tb936 O949 2.303 . S
Tb936 O953 2.322 . S
Tb936 O954 2.349 . S
Tb936 O957 2.415 1_455 S
Tb936 O958 2.399 1_455 S
Tb937 O947 2.322 . S
Tb937 O948 2.349 1_554 S
Tb937 O950 2.415 . S
Tb937 O951 2.396 . S
Tb937 O952 2.325 . S
Tb937 O955 2.303 . S
Tb937 C966 2.764 . S
C938 O954 1.261 . S
C938 O955 1.257 . S
C939 C942 1.358 . S
C939 C943 1.332 . S
C939 C945 1.504 . S
C940 C941 1.373 . S
C940 C944 1.308 . S
C941 C940 1.373 . S
C941 C942 1.429 . S
C941 H968 0.932 . S
C942 C939 1.358 . S
C942 C941 1.429 . S
C942 H969 0.930 . S
C943 C939 1.332 . S
C943 C944 1.394 . S
C943 H970 0.932 . S
C944 C940 1.308 . S
C944 C943 1.394 . S
C944 H971 0.929 . S
C945 Tb936 2.764 1_655 S
C945 C939 1.504 . S
C945 O957 1.239 . S
C945 O958 1.263 . S
O946 Tb936 2.325 . S
O946 C956 1.236 . S
O947 Tb937 2.322 . S
O947 C956 1.257 . S
O948 Tb937 2.349 1_556 S
O948 C959 1.261 . S
O949 Tb936 2.303 . S
O949 C959 1.257 1_554 S
O950 Tb937 2.415 . S
O950 C966 1.239 . S
O951 Tb937 2.396 . S
O951 C966 1.259 . S
O952 Tb937 2.325 . S
O952 C967 1.236 . S
O953 Tb936 2.322 . S
O953 C967 1.257 . S
O954 Tb936 2.349 . S
O954 C938 1.261 . S
O955 Tb937 2.303 . S
O955 C938 1.257 . S
C956 O946 1.236 . S
C956 O947 1.257 . S
O957 Tb936 2.415 1_655 S
O957 C945 1.239 . S
O958 Tb936 2.399 1_655 S
O958 C945 1.263 . S
C959 O948 1.261 . S
C959 O949 1.257 1_556 S
C960 C963 1.358 1_554 S
C960 C964 1.332 . S
C960 C966 1.504 . S
C961 C962 1.373 1_554 S
C961 C965 1.308 . S
C962 C961 1.373 1_556 S
C962 C963 1.429 . S
C962 H972 0.932 . S
C963 C960 1.358 1_556 S
C963 C962 1.429 . S
C963 H973 0.930 . S
C964 C960 1.332 . S
C964 C965 1.394 . S
C964 H974 0.932 . S
C965 C961 1.308 . S
C965 C964 1.394 . S
C965 H975 0.929 . S
C966 Tb937 2.764 . S
C966 O950 1.239 . S
C966 O951 1.259 . S
C966 C960 1.504 . S
C967 O952 1.236 . S
C967 O953 1.257 . S
H968 C941 0.932 . S
H969 C942 0.930 . S
H970 C943 0.932 . S
H971 C944 0.929 . S
H972 C962 0.932 . S
H973 C963 0.930 . S
H974 C964 0.932 . S
H975 C965 0.929 . S
H976 C984 0.929 . S
H977 C986 0.930 . S
H978 C988 0.930 . S
H979 C991 0.929 . S
H980 C994 0.930 . S
H981 C996 0.960 . S
H982 C996 0.960 . S
H983 C996 0.960 . S
C984 H976 0.929 . S
C984 C985 1.377 . S
C984 C986 1.384 . S
C985 C984 1.377 . S
C985 C991 1.390 1_655 S
C986 H977 0.930 . S
C986 C984 1.384 . S
C986 C987 1.372 1_655 S
C987 C986 1.372 1_455 S
C987 C988 1.400 . S
C987 C992 1.490 . S
C988 H978 0.930 . S
C988 C987 1.400 . S
C988 C991 1.386 . S
H989 C1005 0.937 . S
H990 C1006 0.931 . S
C991 H979 0.929 . S
C991 C985 1.390 1_455 S
C991 C988 1.386 . S
C992 C987 1.490 . S
C992 C994 1.395 1_455 S
C992 C995 1.403 . S
H993 C999 0.930 . S
C994 H980 0.930 . S
C994 C992 1.395 1_655 S
C994 C997 1.403 . S
C995 C992 1.403 . S
C995 C996 1.524 . S
C995 C999 1.400 . S
C996 H981 0.960 . S
C996 H982 0.960 . S
C996 H983 0.960 . S
C996 C995 1.524 . S
C997 C994 1.403 . S
C997 C998 1.392 1_655 S
C997 C1001 1.495 . S
C998 C997 1.392 1_455 S
C998 C999 1.385 . S
C998 C1000 1.478 . S
C999 H993 0.930 . S
C999 C995 1.400 . S
C999 C998 1.385 . S
C1000 C998 1.478 . S
C1000 C1002 1.381 1_556 S
C1000 C1006 1.383 . S
C1001 C997 1.495 . S
C1001 H1007 0.959 . S
C1001 H1008 0.961 . S
C1001 H1009 0.960 . S
C1002 C1000 1.381 1_554 S
C1002 C1003 1.394 . S
C1002 H1010 0.936 1_455 S
C1003 C1002 1.394 . S
C1003 C1004 1.383 . S
C1003 H1011 0.929 . S
C1004 C1003 1.383 . S
C1004 C1005 1.359 1_554 S
C1005 H989 0.937 . S
C1005 C1004 1.359 1_556 S
C1005 C1006 1.390 . S
C1006 H990 0.931 . S
C1006 C1000 1.383 . S
C1006 C1005 1.390 . S
H1007 C1001 0.959 . S
H1008 C1001 0.961 . S
H1009 C1001 0.960 . S
H1010 C1002 0.936 1_655 S
H1011 C1003 0.929 . S
H1012 C1020 0.929 . S
H1013 C1022 0.930 . S
H1014 C1024 0.930 . S
H1015 C1027 0.929 . S
H1016 C1030 0.930 . S
H1017 C1032 0.960 . S
H1018 C1032 0.960 . S
H1019 C1032 0.960 . S
C1020 H1012 0.929 . S
C1020 C1021 1.377 . S
C1020 C1022 1.384 . S
C1021 C1020 1.377 . S
C1021 C1027 1.390 . S
C1022 H1013 0.930 . S
C1022 C1020 1.384 . S
C1022 C1023 1.372 . S
C1023 C1022 1.372 . S
C1023 C1024 1.400 . S
C1023 C1028 1.490 . S
C1024 H1014 0.930 . S
C1024 C1023 1.400 . S
C1024 C1027 1.386 . S
H1025 C1041 0.930 . S
H1026 C1042 0.931 . S
C1027 H1015 0.929 . S
C1027 C1021 1.390 . S
C1027 C1024 1.386 . S
C1028 C1023 1.490 . S
C1028 C1030 1.395 . S
C1028 C1031 1.403 . S
H1029 C1035 0.930 . S
C1030 H1016 0.930 . S
C1030 C1028 1.395 . S
C1030 C1033 1.403 . S
C1031 C1028 1.403 . S
C1031 C1032 1.524 . S
C1031 C1035 1.400 . S
C1032 H1017 0.960 . S
C1032 H1018 0.960 . S
C1032 H1019 0.960 . S
C1032 C1031 1.524 . S
C1033 C1030 1.403 . S
C1033 C1034 1.392 . S
C1033 C1037 1.495 . S
C1034 C1033 1.392 . S
C1034 C1035 1.385 . S
C1034 C1036 1.478 . S
C1035 H1029 0.930 . S
C1035 C1031 1.400 . S
C1035 C1034 1.385 . S
C1036 C1034 1.478 . S
C1036 C1038 1.381 . S
C1036 C1042 1.383 . S
C1037 C1033 1.495 . S
C1037 H1043 0.959 . S
C1037 H1044 0.961 . S
C1037 H1045 0.960 . S
C1038 C1036 1.381 . S
C1038 C1039 1.394 . S
C1038 H1046 0.930 . S
C1039 C1038 1.394 . S
C1039 C1040 1.383 . S
C1039 H1047 0.929 . S
C1040 C1039 1.383 . S
C1040 C1041 1.377 . S
C1041 H1025 0.930 . S
C1041 C1040 1.377 . S
C1041 C1042 1.379 . S
C1042 H1026 0.931 . S
C1042 C1036 1.383 . S
C1042 C1041 1.379 . S
H1043 C1037 0.959 . S
H1044 C1037 0.961 . S
H1045 C1037 0.960 . S
H1046 C1038 0.930 . S
H1047 C1039 0.929 . S
H1048 C1056 0.929 . S
H1049 C1058 0.930 . S
H1050 C1060 0.930 . S
H1051 C1063 0.929 . S
H1052 C1066 0.930 . S
H1053 C1068 0.960 . S
H1054 C1068 0.960 . S
H1055 C1068 0.960 . S
C1056 H1048 0.929 . S
C1056 C1057 1.377 . S
C1056 C1058 1.384 . S
C1057 C1056 1.377 . S
C1057 C1063 1.390 . S
C1058 H1049 0.930 . S
C1058 C1056 1.384 . S
C1058 C1059 1.372 . S
C1059 C1058 1.372 . S
C1059 C1060 1.400 . S
C1059 C1064 1.490 . S
C1060 H1050 0.930 . S
C1060 C1059 1.400 . S
C1060 C1063 1.386 . S
H1061 C1077 0.930 . S
H1062 C1078 0.931 . S
C1063 H1051 0.929 . S
C1063 C1057 1.390 . S
C1063 C1060 1.386 . S
C1064 C1059 1.490 . S
C1064 C1066 1.395 . S
C1064 C1067 1.403 . S
H1065 C1071 0.930 . S
C1066 H1052 0.930 . S
C1066 C1064 1.395 . S
C1066 C1069 1.403 . S
C1067 C1064 1.403 . S
C1067 C1068 1.524 . S
C1067 C1071 1.400 . S
C1068 H1053 0.960 . S
C1068 H1054 0.960 . S
C1068 H1055 0.960 . S
C1068 C1067 1.524 . S
C1069 C1066 1.403 . S
C1069 C1070 1.392 . S
C1069 C1073 1.495 . S
C1070 C1069 1.392 . S
C1070 C1071 1.385 . S
C1070 C1072 1.478 . S
C1071 H1065 0.930 . S
C1071 C1067 1.400 . S
C1071 C1070 1.385 . S
C1072 C1070 1.478 . S
C1072 C1074 1.381 . S
C1072 C1078 1.383 . S
C1073 C1069 1.495 . S
C1073 H1079 0.959 . S
C1073 H1080 0.961 . S
C1073 H1081 0.960 . S
C1074 C1072 1.381 . S
C1074 C1075 1.394 . S
C1074 H1082 0.930 . S
C1075 C1074 1.394 . S
C1075 C1076 1.383 . S
C1075 H1083 0.929 . S
C1076 C1075 1.383 . S
C1076 C1077 1.377 . S
C1077 H1061 0.930 . S
C1077 C1076 1.377 . S
C1077 C1078 1.379 . S
C1078 H1062 0.931 . S
C1078 C1072 1.383 . S
C1078 C1077 1.379 . S
H1079 C1073 0.959 . S
H1080 C1073 0.961 . S
H1081 C1073 0.960 . S
H1082 C1074 0.930 . S
H1083 C1075 0.929 . S
H1084 C1092 0.929 . S
H1085 C1094 0.930 . S
H1086 C1096 0.930 . S
H1087 C1099 0.929 . S
H1088 C1102 0.930 . S
H1089 C1104 0.960 . S
H1090 C1104 0.960 . S
H1091 C1104 0.960 . S
C1092 H1084 0.929 . S
C1092 C1093 1.377 . S
C1092 C1094 1.384 . S
C1093 C1092 1.377 . S
C1093 C1099 1.390 . S
C1094 H1085 0.930 . S
C1094 C1092 1.384 . S
C1094 C1095 1.372 . S
C1095 C1094 1.372 . S
C1095 C1096 1.400 . S
C1095 C1100 1.490 . S
C1096 H1086 0.930 . S
C1096 C1095 1.400 . S
C1096 C1099 1.386 . S
H1097 C1113 0.930 . S
H1098 C1114 0.931 . S
C1099 H1087 0.929 . S
C1099 C1093 1.390 . S
C1099 C1096 1.386 . S
C1100 C1095 1.490 . S
C1100 C1102 1.395 . S
C1100 C1103 1.403 . S
H1101 C1107 0.930 . S
C1102 H1088 0.930 . S
C1102 C1100 1.395 . S
C1102 C1105 1.403 . S
C1103 C1100 1.403 . S
C1103 C1104 1.524 . S
C1103 C1107 1.400 . S
C1104 H1089 0.960 . S
C1104 H1090 0.960 . S
C1104 H1091 0.960 . S
C1104 C1103 1.524 . S
C1105 C1102 1.403 . S
C1105 C1106 1.392 . S
C1105 C1109 1.495 . S
C1106 C1105 1.392 . S
C1106 C1107 1.385 . S
C1106 C1108 1.478 . S
C1107 H1101 0.930 . S
C1107 C1103 1.400 . S
C1107 C1106 1.385 . S
C1108 C1106 1.478 . S
C1108 C1110 1.381 . S
C1108 C1114 1.383 . S
C1109 C1105 1.495 . S
C1109 H1115 0.959 . S
C1109 H1116 0.961 . S
C1109 H1117 0.960 . S
C1110 C1108 1.381 . S
C1110 C1111 1.394 . S
C1110 H1118 0.930 . S
C1111 C1110 1.394 . S
C1111 C1112 1.383 . S
C1111 H1119 0.929 . S
C1112 C1111 1.383 . S
C1112 C1113 1.377 . S
C1113 H1097 0.930 . S
C1113 C1112 1.377 . S
C1113 C1114 1.379 . S
C1114 H1098 0.931 . S
C1114 C1108 1.383 . S
C1114 C1113 1.379 . S
H1115 C1109 0.959 . S
H1116 C1109 0.961 . S
H1117 C1109 0.960 . S
H1118 C1110 0.930 . S
H1119 C1111 0.929 . S
H1120 C1128 0.929 . S
H1121 C1130 0.930 . S
H1122 C1132 0.930 . S
H1123 C1135 0.929 . S
H1124 C1138 0.930 . S
H1125 C1140 0.960 . S
H1126 C1140 0.960 . S
H1127 C1140 0.960 . S
C1128 H1120 0.929 . S
C1128 C1129 1.377 . S
C1128 C1130 1.384 . S
C1129 C1128 1.377 . S
C1129 C1135 1.390 . S
C1130 H1121 0.930 . S
C1130 C1128 1.384 . S
C1130 C1131 1.372 . S
C1131 C1130 1.372 . S
C1131 C1132 1.400 . S
C1131 C1136 1.490 . S
C1132 H1122 0.930 . S
C1132 C1131 1.400 . S
C1132 C1135 1.386 . S
H1133 C1149 0.930 . S
H1134 C1150 0.931 . S
C1135 H1123 0.929 . S
C1135 C1129 1.390 . S
C1135 C1132 1.386 . S
C1136 C1131 1.490 . S
C1136 C1138 1.395 . S
C1136 C1139 1.403 . S
H1137 C1143 0.930 . S
C1138 H1124 0.930 . S
C1138 C1136 1.395 . S
C1138 C1141 1.403 . S
C1139 C1136 1.403 . S
C1139 C1140 1.524 . S
C1139 C1143 1.400 . S
C1140 H1125 0.960 . S
C1140 H1126 0.960 . S
C1140 H1127 0.960 . S
C1140 C1139 1.524 . S
C1141 C1138 1.403 . S
C1141 C1142 1.392 . S
C1141 C1145 1.495 . S
C1142 C1141 1.392 . S
C1142 C1143 1.385 . S
C1142 C1144 1.478 . S
C1143 H1137 0.930 . S
C1143 C1139 1.400 . S
C1143 C1142 1.385 . S
C1144 C1142 1.478 . S
C1144 C1146 1.381 . S
C1144 C1150 1.383 . S
C1145 C1141 1.495 . S
C1145 H1151 0.959 . S
C1145 H1152 0.961 . S
C1145 H1153 0.960 . S
C1146 C1144 1.381 . S
C1146 C1147 1.394 . S
C1146 H1154 0.930 . S
C1147 C1146 1.394 . S
C1147 C1148 1.383 . S
C1147 H1155 0.929 . S
C1148 C1147 1.383 . S
C1148 C1149 1.377 . S
C1149 H1133 0.930 . S
C1149 C1148 1.377 . S
C1149 C1150 1.379 . S
C1150 H1134 0.931 . S
C1150 C1144 1.383 . S
C1150 C1149 1.379 . S
H1151 C1145 0.959 . S
H1152 C1145 0.961 . S
H1153 C1145 0.960 . S
H1154 C1146 0.930 . S
H1155 C1147 0.929 . S
H1156 C1164 0.929 . S
H1157 C1166 0.930 . S
H1158 C1168 0.930 . S
H1159 C1171 0.929 . S
H1160 C1174 0.930 . S
H1161 C1176 0.960 . S
H1162 C1176 0.960 . S
H1163 C1176 0.960 . S
C1164 H1156 0.929 . S
C1164 C1165 1.377 . S
C1164 C1166 1.384 . S
C1165 C1164 1.377 . S
C1165 C1171 1.390 . S
C1166 H1157 0.930 . S
C1166 C1164 1.384 . S
C1166 C1167 1.372 . S
C1167 C1166 1.372 . S
C1167 C1168 1.400 . S
C1167 C1172 1.490 . S
C1168 H1158 0.930 . S
C1168 C1167 1.400 . S
C1168 C1171 1.386 . S
H1169 C1185 0.930 . S
H1170 C1186 0.931 . S
C1171 H1159 0.929 . S
C1171 C1165 1.390 . S
C1171 C1168 1.386 . S
C1172 C1167 1.490 . S
C1172 C1174 1.395 . S
C1172 C1175 1.403 . S
H1173 C1179 0.930 . S
C1174 H1160 0.930 . S
C1174 C1172 1.395 . S
C1174 C1177 1.403 . S
C1175 C1172 1.403 . S
C1175 C1176 1.524 . S
C1175 C1179 1.400 . S
C1176 H1161 0.960 . S
C1176 H1162 0.960 . S
C1176 H1163 0.960 . S
C1176 C1175 1.524 . S
C1177 C1174 1.403 . S
C1177 C1178 1.392 . S
C1177 C1181 1.495 . S
C1178 C1177 1.392 . S
C1178 C1179 1.385 . S
C1178 C1180 1.478 . S
C1179 H1173 0.930 . S
C1179 C1175 1.400 . S
C1179 C1178 1.385 . S
C1180 C1178 1.478 . S
C1180 C1182 1.381 . S
C1180 C1186 1.383 . S
C1181 C1177 1.495 . S
C1181 H1187 0.959 . S
C1181 H1188 0.961 . S
C1181 H1189 0.960 . S
C1182 C1180 1.381 . S
C1182 C1183 1.394 . S
C1182 H1190 0.930 . S
C1183 C1182 1.394 . S
C1183 C1184 1.383 . S
C1183 H1191 0.929 . S
C1184 C1183 1.383 . S
C1184 C1185 1.377 . S
C1185 H1169 0.930 . S
C1185 C1184 1.377 . S
C1185 C1186 1.379 . S
C1186 H1170 0.931 . S
C1186 C1180 1.383 . S
C1186 C1185 1.379 . S
H1187 C1181 0.959 . S
H1188 C1181 0.961 . S
H1189 C1181 0.960 . S
H1190 C1182 0.930 . S
H1191 C1183 0.929 . S
H1192 C1200 0.929 . S
H1193 C1202 0.930 . S
H1194 C1204 0.930 . S
H1195 C1207 0.929 . S
H1196 C1210 0.930 . S
H1197 C1212 0.960 . S
H1198 C1212 0.960 . S
H1199 C1212 0.960 . S
C1200 H1192 0.929 . S
C1200 C1201 1.377 . S
C1200 C1202 1.384 . S
C1201 C1200 1.377 . S
C1201 C1207 1.390 . S
C1202 H1193 0.930 . S
C1202 C1200 1.384 . S
C1202 C1203 1.372 . S
C1203 C1202 1.372 . S
C1203 C1204 1.400 . S
C1203 C1208 1.490 . S
C1204 H1194 0.930 . S
C1204 C1203 1.400 . S
C1204 C1207 1.386 . S
H1205 C1221 0.930 . S
H1206 C1222 0.931 . S
C1207 H1195 0.929 . S
C1207 C1201 1.390 . S
C1207 C1204 1.386 . S
C1208 C1203 1.490 . S
C1208 C1210 1.395 . S
C1208 C1211 1.403 . S
H1209 C1215 0.930 . S
C1210 H1196 0.930 . S
C1210 C1208 1.395 . S
C1210 C1213 1.403 . S
C1211 C1208 1.403 . S
C1211 C1212 1.524 . S
C1211 C1215 1.400 . S
C1212 H1197 0.960 . S
C1212 H1198 0.960 . S
C1212 H1199 0.960 . S
C1212 C1211 1.524 . S
C1213 C1210 1.403 . S
C1213 C1214 1.392 . S
C1213 C1217 1.495 . S
C1214 C1213 1.392 . S
C1214 C1215 1.385 . S
C1214 C1216 1.478 . S
C1215 H1209 0.930 . S
C1215 C1211 1.400 . S
C1215 C1214 1.385 . S
C1216 C1214 1.478 . S
C1216 C1218 1.381 . S
C1216 C1222 1.383 . S
C1217 C1213 1.495 . S
C1217 H1223 0.959 . S
C1217 H1224 0.961 . S
C1217 H1225 0.960 . S
C1218 C1216 1.381 . S
C1218 C1219 1.394 . S
C1218 H1226 0.930 . S
C1219 C1218 1.394 . S
C1219 C1220 1.383 . S
C1219 H1227 0.929 . S
C1220 C1219 1.383 . S
C1220 C1221 1.377 . S
C1221 H1205 0.930 . S
C1221 C1220 1.377 . S
C1221 C1222 1.379 . S
C1222 H1206 0.931 . S
C1222 C1216 1.383 . S
C1222 C1221 1.379 . S
H1223 C1217 0.959 . S
H1224 C1217 0.961 . S
H1225 C1217 0.960 . S
H1226 C1218 0.930 . S
H1227 C1219 0.929 . S
H1228 C1236 0.929 . S
H1229 C1238 0.930 . S
H1230 C1240 0.930 . S
H1231 C1243 0.929 . S
H1232 C1246 0.930 . S
H1233 C1248 0.960 . S
H1234 C1248 0.960 . S
H1235 C1248 0.960 . S
C1236 H1228 0.929 . S
C1236 C1237 1.377 . S
C1236 C1238 1.384 . S
C1237 C1236 1.377 . S
C1237 C1243 1.390 . S
C1238 H1229 0.930 . S
C1238 C1236 1.384 . S
C1238 C1239 1.372 . S
C1239 C1238 1.372 . S
C1239 C1240 1.400 . S
C1239 C1244 1.490 . S
C1240 H1230 0.930 . S
C1240 C1239 1.400 . S
C1240 C1243 1.386 . S
H1241 C1257 0.930 . S
H1242 C1258 0.931 . S
C1243 H1231 0.929 . S
C1243 C1237 1.390 . S
C1243 C1240 1.386 . S
C1244 C1239 1.490 . S
C1244 C1246 1.395 . S
C1244 C1247 1.403 . S
H1245 C1251 0.930 . S
C1246 H1232 0.930 . S
C1246 C1244 1.395 . S
C1246 C1249 1.403 . S
C1247 C1244 1.403 . S
C1247 C1248 1.524 . S
C1247 C1251 1.400 . S
C1248 H1233 0.960 . S
C1248 H1234 0.960 . S
C1248 H1235 0.960 . S
C1248 C1247 1.524 . S
C1249 C1246 1.403 . S
C1249 C1250 1.392 . S
C1249 C1253 1.495 . S
C1250 C1249 1.392 . S
C1250 C1251 1.385 . S
C1250 C1252 1.478 . S
C1251 H1245 0.930 . S
C1251 C1247 1.400 . S
C1251 C1250 1.385 . S
C1252 C1250 1.478 . S
C1252 C1254 1.381 . S
C1252 C1258 1.383 . S
C1253 C1249 1.495 . S
C1253 H1259 0.959 . S
C1253 H1260 0.961 . S
C1253 H1261 0.960 . S
C1254 C1252 1.381 . S
C1254 C1255 1.394 . S
C1254 H1262 0.930 . S
C1255 C1254 1.394 . S
C1255 C1256 1.383 . S
C1255 H1263 0.929 . S
C1256 C1255 1.383 . S
C1256 C1257 1.377 . S
C1257 H1241 0.930 . S
C1257 C1256 1.377 . S
C1257 C1258 1.379 . S
C1258 H1242 0.931 . S
C1258 C1252 1.383 . S
C1258 C1257 1.379 . S
H1259 C1253 0.959 . S
H1260 C1253 0.961 . S
H1261 C1253 0.960 . S
H1262 C1254 0.930 . S
H1263 C1255 0.929 . S
H1264 C1272 0.929 . S
H1265 C1274 0.930 . S
H1266 C1276 0.930 1_565 S
H1267 C1279 0.929 1_565 S
H1268 C1282 0.930 . S
H1269 C1284 0.960 . S
H1270 C1284 0.960 . S
H1271 C1284 0.960 . S
C1272 H1264 0.929 . S
C1272 C1273 1.377 . S
C1272 C1274 1.384 . S
C1273 C1272 1.377 . S
C1273 C1279 1.390 . S
C1274 H1265 0.930 . S
C1274 C1272 1.384 . S
C1274 C1275 1.372 . S
C1275 C1274 1.372 . S
C1275 C1276 1.400 . S
C1275 C1280 1.490 . S
C1276 H1266 0.930 1_545 S
C1276 C1275 1.400 . S
C1276 C1279 1.386 . S
H1277 C1293 0.930 . S
H1278 C1294 0.964 . S
C1279 H1267 0.929 1_545 S
C1279 C1273 1.390 . S
C1279 C1276 1.386 . S
C1280 C1275 1.490 . S
C1280 C1282 1.395 . S
C1280 C1283 1.403 . S
H1281 C1287 0.930 . S
C1282 H1268 0.930 . S
C1282 C1280 1.395 . S
C1282 C1285 1.403 . S
C1283 C1280 1.403 . S
C1283 C1284 1.524 . S
C1283 C1287 1.400 . S
C1284 H1269 0.960 . S
C1284 H1270 0.960 . S
C1284 H1271 0.960 . S
C1284 C1283 1.524 . S
C1285 C1282 1.403 . S
C1285 C1286 1.392 . S
C1285 C1289 1.495 1_655 S
C1286 C1285 1.392 . S
C1286 C1287 1.385 . S
C1286 C1288 1.478 1_655 S
C1287 H1281 0.930 . S
C1287 C1283 1.400 . S
C1287 C1286 1.385 . S
C1288 C1286 1.478 1_455 S
C1288 C1290 1.381 . S
C1288 C1294 1.387 1_455 S
C1289 C1285 1.495 1_455 S
C1289 H1295 0.959 . S
C1289 H1296 0.961 . S
C1289 H1297 0.960 . S
C1290 C1288 1.381 . S
C1290 C1291 1.394 . S
C1290 H1298 0.930 . S
C1291 C1290 1.394 . S
C1291 C1292 1.383 . S
C1291 H1299 0.929 . S
C1292 C1291 1.383 . S
C1292 C1293 1.377 . S
C1293 H1277 0.930 . S
C1293 C1292 1.377 . S
C1293 C1294 1.346 1_455 S
C1294 H1278 0.964 . S
C1294 C1288 1.387 1_655 S
C1294 C1293 1.346 1_655 S
H1295 C1289 0.959 . S
H1296 C1289 0.961 . S
H1297 C1289 0.960 . S
H1298 C1290 0.930 . S
H1299 C1291 0.929 . S
H1300 C1308 0.929 . S
H1301 C1310 0.930 . S
H1302 C1312 0.930 . S
H1303 C1315 0.929 . S
H1304 C1318 0.930 . S
H1305 C1320 0.960 . S
H1306 C1320 0.960 . S
H1307 C1320 0.960 . S
C1308 H1300 0.929 . S
C1308 C1309 1.377 . S
C1308 C1310 1.384 . S
C1309 C1308 1.377 . S
C1309 C1315 1.390 . S
C1310 H1301 0.930 . S
C1310 C1308 1.384 . S
C1310 C1311 1.372 . S
C1311 C1310 1.372 . S
C1311 C1312 1.400 . S
C1311 C1316 1.490 . S
C1312 H1302 0.930 . S
C1312 C1311 1.400 . S
C1312 C1315 1.386 . S
H1313 C1329 0.930 . S
H1314 C1330 0.931 . S
C1315 H1303 0.929 . S
C1315 C1309 1.390 . S
C1315 C1312 1.386 . S
C1316 C1311 1.490 . S
C1316 C1318 1.395 . S
C1316 C1319 1.403 . S
H1317 C1323 0.930 . S
C1318 H1304 0.930 . S
C1318 C1316 1.395 . S
C1318 C1321 1.403 . S
C1319 C1316 1.403 . S
C1319 C1320 1.524 . S
C1319 C1323 1.400 . S
C1320 H1305 0.960 . S
C1320 H1306 0.960 . S
C1320 H1307 0.960 . S
C1320 C1319 1.524 . S
C1321 C1318 1.403 . S
C1321 C1322 1.392 . S
C1321 C1325 1.495 . S
C1322 C1321 1.392 . S
C1322 C1323 1.385 . S
C1322 C1324 1.478 . S
C1323 H1317 0.930 . S
C1323 C1319 1.400 . S
C1323 C1322 1.385 . S
C1324 C1322 1.478 . S
C1324 C1326 1.381 . S
C1324 C1330 1.383 . S
C1325 C1321 1.495 . S
C1325 H1331 0.959 . S
C1325 H1332 0.961 . S
C1325 H1333 0.960 . S
C1326 C1324 1.381 . S
C1326 C1327 1.394 . S
C1326 H1334 0.930 . S
C1327 C1326 1.394 . S
C1327 C1328 1.383 . S
C1327 H1335 0.929 . S
C1328 C1327 1.383 . S
C1328 C1329 1.377 . S
C1329 H1313 0.930 . S
C1329 C1328 1.377 . S
C1329 C1330 1.379 . S
C1330 H1314 0.931 . S
C1330 C1324 1.383 . S
C1330 C1329 1.379 . S
H1331 C1325 0.959 . S
H1332 C1325 0.961 . S
H1333 C1325 0.960 . S
H1334 C1326 0.930 . S
H1335 C1327 0.929 . S
H1336 C1344 0.929 . S
H1337 C1346 0.930 . S
H1338 C1348 0.930 . S
H1339 C1351 0.929 . S
H1340 C1354 0.930 . S
H1341 C1356 0.960 . S
H1342 C1356 0.960 . S
H1343 C1356 0.960 . S
C1344 H1336 0.929 . S
C1344 C1345 1.377 . S
C1344 C1346 1.384 . S
C1345 C1344 1.377 . S
C1345 C1351 1.390 . S
C1346 H1337 0.930 . S
C1346 C1344 1.384 . S
C1346 C1347 1.372 . S
C1347 C1346 1.372 . S
C1347 C1348 1.400 . S
C1347 C1352 1.490 . S
C1348 H1338 0.930 . S
C1348 C1347 1.400 . S
C1348 C1351 1.386 . S
H1349 C1365 0.930 . S
H1350 C1366 0.931 . S
C1351 H1339 0.929 . S
C1351 C1345 1.390 . S
C1351 C1348 1.386 . S
C1352 C1347 1.490 . S
C1352 C1354 1.395 . S
C1352 C1355 1.403 . S
H1353 C1359 0.930 1_565 S
C1354 H1340 0.930 . S
C1354 C1352 1.395 . S
C1354 C1357 1.403 . S
C1355 C1352 1.403 . S
C1355 C1356 1.524 1_545 S
C1355 C1359 1.400 . S
C1356 H1341 0.960 . S
C1356 H1342 0.960 . S
C1356 H1343 0.960 . S
C1356 C1355 1.524 1_565 S
C1357 C1354 1.403 . S
C1357 C1358 1.392 . S
C1357 C1361 1.495 . S
C1358 C1357 1.392 . S
C1358 C1359 1.385 . S
C1358 C1360 1.478 . S
C1359 H1353 0.930 1_545 S
C1359 C1355 1.400 . S
C1359 C1358 1.385 . S
C1360 C1358 1.478 . S
C1360 C1362 1.381 . S
C1360 C1366 1.383 . S
C1361 C1357 1.495 . S
C1361 H1367 0.959 . S
C1361 H1368 0.961 . S
C1361 H1369 0.960 . S
C1362 C1360 1.381 . S
C1362 C1363 1.394 . S
C1362 H1370 0.930 . S
C1363 C1362 1.394 . S
C1363 C1364 1.383 . S
C1363 H1371 0.929 . S
C1364 C1363 1.383 . S
C1364 C1365 1.377 . S
C1365 H1349 0.930 . S
C1365 C1364 1.377 . S
C1365 C1366 1.379 . S
C1366 H1350 0.931 . S
C1366 C1360 1.383 . S
C1366 C1365 1.379 . S
H1367 C1361 0.959 . S
H1368 C1361 0.961 . S
H1369 C1361 0.960 . S
H1370 C1362 0.930 . S
H1371 C1363 0.929 . S
H1372 C1380 0.929 . S
H1373 C1382 0.930 . S
H1374 C1384 0.930 . S
H1375 C1387 0.929 . S
H1376 C1390 0.930 . S
H1377 C1392 0.960 . S
H1378 C1392 0.960 . S
H1379 C1392 0.960 . S
C1380 H1372 0.929 . S
C1380 C1381 1.377 . S
C1380 C1382 1.384 . S
C1381 C1380 1.377 . S
C1381 C1387 1.390 . S
C1382 H1373 0.930 . S
C1382 C1380 1.384 . S
C1382 C1383 1.372 . S
C1383 C1382 1.372 . S
C1383 C1384 1.400 . S
C1383 C1388 1.490 . S
C1384 H1374 0.930 . S
C1384 C1383 1.400 . S
C1384 C1387 1.386 . S
H1385 C1401 0.930 . S
H1386 C1402 0.931 . S
C1387 H1375 0.929 . S
C1387 C1381 1.390 . S
C1387 C1384 1.386 . S
C1388 C1383 1.490 . S
C1388 C1390 1.395 . S
C1388 C1391 1.403 . S
H1389 C1395 0.930 . S
C1390 H1376 0.930 . S
C1390 C1388 1.395 . S
C1390 C1393 1.403 . S
C1391 C1388 1.403 . S
C1391 C1392 1.524 . S
C1391 C1395 1.400 . S
C1392 H1377 0.960 . S
C1392 H1378 0.960 . S
C1392 H1379 0.960 . S
C1392 C1391 1.524 . S
C1393 C1390 1.403 . S
C1393 C1394 1.392 . S
C1393 C1397 1.495 . S
C1394 C1393 1.392 . S
C1394 C1395 1.385 . S
C1394 C1396 1.478 . S
C1395 H1389 0.930 . S
C1395 C1391 1.400 . S
C1395 C1394 1.385 . S
C1396 C1394 1.478 . S
C1396 C1398 1.381 . S
C1396 C1402 1.383 . S
C1397 C1393 1.495 . S
C1397 H1403 0.959 . S
C1397 H1404 0.961 . S
C1397 H1405 0.960 . S
C1398 C1396 1.381 . S
C1398 C1399 1.394 . S
C1398 H1406 0.930 . S
C1399 C1398 1.394 . S
C1399 C1400 1.383 . S
C1399 H1407 0.929 . S
C1400 C1399 1.383 . S
C1400 C1401 1.377 . S
C1401 H1385 0.930 . S
C1401 C1400 1.377 . S
C1401 C1402 1.379 . S
C1402 H1386 0.931 . S
C1402 C1396 1.383 . S
C1402 C1401 1.379 . S
H1403 C1397 0.959 . S
H1404 C1397 0.961 . S
H1405 C1397 0.960 . S
H1406 C1398 0.930 . S
H1407 C1399 0.929 . S
H1408 C1416 0.929 . S
H1409 C1418 0.930 . S
H1410 C1420 0.930 . S
H1411 C1423 0.929 . S
H1412 C1426 0.930 . S
H1413 C1428 0.960 . S
H1414 C1428 0.960 . S
H1415 C1428 0.960 . S
C1416 H1408 0.929 . S
C1416 C1417 1.377 . S
C1416 C1418 1.384 . S
C1417 C1416 1.377 . S
C1417 C1423 1.390 . S
C1418 H1409 0.930 . S
C1418 C1416 1.384 . S
C1418 C1419 1.372 . S
C1419 C1418 1.372 . S
C1419 C1420 1.400 . S
C1419 C1424 1.490 . S
C1420 H1410 0.930 . S
C1420 C1419 1.400 . S
C1420 C1423 1.386 . S
H1421 C1437 0.930 . S
H1422 C1438 0.931 . S
C1423 H1411 0.929 . S
C1423 C1417 1.390 . S
C1423 C1420 1.386 . S
C1424 C1419 1.490 . S
C1424 C1426 1.395 1_545 S
C1424 C1427 1.403 . S
H1425 C1431 0.930 . S
C1426 H1412 0.930 . S
C1426 C1424 1.395 1_565 S
C1426 C1429 1.403 . S
C1427 C1424 1.403 . S
C1427 C1428 1.524 . S
C1427 C1431 1.400 . S
C1428 H1413 0.960 . S
C1428 H1414 0.960 . S
C1428 H1415 0.960 . S
C1428 C1427 1.524 . S
C1429 C1426 1.403 . S
C1429 C1430 1.392 1_565 S
C1429 C1433 1.495 . S
C1430 C1429 1.392 1_545 S
C1430 C1431 1.385 . S
C1430 C1432 1.478 . S
C1431 H1425 0.930 . S
C1431 C1427 1.400 . S
C1431 C1430 1.385 . S
C1432 C1430 1.478 . S
C1432 C1434 1.381 . S
C1432 C1438 1.383 1_655 S
C1433 C1429 1.495 . S
C1433 H1439 0.959 . S
C1433 H1440 0.961 . S
C1433 H1441 0.960 . S
C1434 C1432 1.381 . S
C1434 C1435 1.394 . S
C1434 H1442 0.930 . S
C1435 C1434 1.394 . S
C1435 C1436 1.383 1_655 S
C1435 H1443 0.929 . S
C1436 C1435 1.383 1_455 S
C1436 C1437 1.377 . S
C1437 H1421 0.930 . S
C1437 C1436 1.377 . S
C1437 C1438 1.379 . S
C1438 H1422 0.931 . S
C1438 C1432 1.383 1_455 S
C1438 C1437 1.379 . S
H1439 C1433 0.959 . S
H1440 C1433 0.961 . S
H1441 C1433 0.960 . S
H1442 C1434 0.930 . S
H1443 C1435 0.929 . S
H1444 C1452 0.929 . S
H1445 C1454 0.930 . S
H1446 C1456 0.930 . S
H1447 C1459 0.929 . S
H1448 C1462 0.930 . S
H1449 C1464 0.960 . S
H1450 C1464 0.960 . S
H1451 C1464 0.960 . S
C1452 H1444 0.929 . S
C1452 C1453 1.377 . S
C1452 C1454 1.384 . S
C1453 C1452 1.377 . S
C1453 C1459 1.390 . S
C1454 H1445 0.930 . S
C1454 C1452 1.384 . S
C1454 C1455 1.372 . S
C1455 C1454 1.372 . S
C1455 C1456 1.400 . S
C1455 C1460 1.490 . S
C1456 H1446 0.930 . S
C1456 C1455 1.400 . S
C1456 C1459 1.386 . S
H1457 C1473 0.930 . S
H1458 C1474 0.931 . S
C1459 H1447 0.929 . S
C1459 C1453 1.390 . S
C1459 C1456 1.386 . S
C1460 C1455 1.490 . S
C1460 C1462 1.395 . S
C1460 C1463 1.403 . S
H1461 C1467 0.930 . S
C1462 H1448 0.930 . S
C1462 C1460 1.395 . S
C1462 C1465 1.403 . S
C1463 C1460 1.403 . S
C1463 C1464 1.524 . S
C1463 C1467 1.400 . S
C1464 H1449 0.960 . S
C1464 H1450 0.960 . S
C1464 H1451 0.960 . S
C1464 C1463 1.524 . S
C1465 C1462 1.403 . S
C1465 C1466 1.392 . S
C1465 C1469 1.495 . S
C1466 C1465 1.392 . S
C1466 C1467 1.385 . S
C1466 C1468 1.478 . S
C1467 H1461 0.930 . S
C1467 C1463 1.400 . S
C1467 C1466 1.385 . S
C1468 C1466 1.478 . S
C1468 C1470 1.381 . S
C1468 C1474 1.383 . S
C1469 C1465 1.495 . S
C1469 H1475 0.959 . S
C1469 H1476 0.961 . S
C1469 H1477 0.960 . S
C1470 C1468 1.381 . S
C1470 C1471 1.394 . S
C1470 H1478 0.930 . S
C1471 C1470 1.394 . S
C1471 C1472 1.383 . S
C1471 H1479 0.929 . S
C1472 C1471 1.383 . S
C1472 C1473 1.377 . S
C1473 H1457 0.930 . S
C1473 C1472 1.377 . S
C1473 C1474 1.379 . S
C1474 H1458 0.931 . S
C1474 C1468 1.383 . S
C1474 C1473 1.379 . S
H1475 C1469 0.959 . S
H1476 C1469 0.961 . S
H1477 C1469 0.960 . S
H1478 C1470 0.930 . S
H1479 C1471 0.929 . S
H1480 C1488 0.929 . S
H1481 C1490 0.930 . S
H1482 C1492 0.930 . S
H1483 C1495 0.929 . S
H1484 C1498 0.930 . S
H1485 C1500 0.960 1_565 S
H1486 C1500 0.960 1_565 S
H1487 C1500 0.960 . S
C1488 H1480 0.929 . S
C1488 C1489 1.377 . S
C1488 C1490 1.384 . S
C1489 C1488 1.377 . S
C1489 C1495 1.390 . S
C1490 H1481 0.930 . S
C1490 C1488 1.384 . S
C1490 C1491 1.372 . S
C1491 C1490 1.372 . S
C1491 C1492 1.400 . S
C1491 C1496 1.490 . S
C1492 H1482 0.930 . S
C1492 C1491 1.400 . S
C1492 C1495 1.386 . S
H1493 C1509 0.930 . S
H1494 C1510 0.931 . S
C1495 H1483 0.929 . S
C1495 C1489 1.390 . S
C1495 C1492 1.386 . S
C1496 C1491 1.490 . S
C1496 C1498 1.395 . S
C1496 C1499 1.403 . S
H1497 C1503 0.930 . S
C1498 H1484 0.930 . S
C1498 C1496 1.395 . S
C1498 C1501 1.403 . S
C1499 C1496 1.403 . S
C1499 C1500 1.524 . S
C1499 C1503 1.400 . S
C1500 H1485 0.960 1_545 S
C1500 H1486 0.960 1_545 S
C1500 H1487 0.960 . S
C1500 C1499 1.524 . S
C1501 C1498 1.403 . S
C1501 C1502 1.392 . S
C1501 C1505 1.495 . S
C1502 C1501 1.392 . S
C1502 C1503 1.385 . S
C1502 C1504 1.478 . S
C1503 H1497 0.930 . S
C1503 C1499 1.400 . S
C1503 C1502 1.385 . S
C1504 C1502 1.478 . S
C1504 C1506 1.381 . S
C1504 C1510 1.383 . S
C1505 C1501 1.495 . S
C1505 H1511 0.959 . S
C1505 H1512 0.961 . S
C1505 H1513 0.960 . S
C1506 C1504 1.381 . S
C1506 C1507 1.394 . S
C1506 H1514 0.930 . S
C1507 C1506 1.394 . S
C1507 C1508 1.383 . S
C1507 H1515 0.929 . S
C1508 C1507 1.383 . S
C1508 C1509 1.377 . S
C1509 H1493 0.930 . S
C1509 C1508 1.377 . S
C1509 C1510 1.379 . S
C1510 H1494 0.931 . S
C1510 C1504 1.383 . S
C1510 C1509 1.379 . S
H1511 C1505 0.959 . S
H1512 C1505 0.961 . S
H1513 C1505 0.960 . S
H1514 C1506 0.930 . S
H1515 C1507 0.929 . S
H1516 C1524 0.929 . S
H1517 C1526 0.930 . S
H1518 C1528 0.930 . S
H1519 C1531 0.929 . S
H1520 C1534 0.930 . S
H1521 C1536 0.960 . S
H1522 C1536 0.960 . S
H1523 C1536 0.960 . S
C1524 H1516 0.929 . S
C1524 C1525 1.377 . S
C1524 C1526 1.384 . S
C1525 C1524 1.377 . S
C1525 C1531 1.390 . S
C1526 H1517 0.930 . S
C1526 C1524 1.384 . S
C1526 C1527 1.372 . S
C1527 C1526 1.372 . S
C1527 C1528 1.400 . S
C1527 C1532 1.490 . S
C1528 H1518 0.930 . S
C1528 C1527 1.400 . S
C1528 C1531 1.386 . S
H1529 C1545 0.930 . S
H1530 C1546 0.931 . S
C1531 H1519 0.929 . S
C1531 C1525 1.390 . S
C1531 C1528 1.386 . S
C1532 C1527 1.490 . S
C1532 C1534 1.395 . S
C1532 C1535 1.403 . S
H1533 C1539 0.930 . S
C1534 H1520 0.930 . S
C1534 C1532 1.395 . S
C1534 C1537 1.403 . S
C1535 C1532 1.403 . S
C1535 C1536 1.524 . S
C1535 C1539 1.400 . S
C1536 H1521 0.960 . S
C1536 H1522 0.960 . S
C1536 H1523 0.960 . S
C1536 C1535 1.524 . S
C1537 C1534 1.403 . S
C1537 C1538 1.392 . S
C1537 C1541 1.495 . S
C1538 C1537 1.392 . S
C1538 C1539 1.385 . S
C1538 C1540 1.478 . S
C1539 H1533 0.930 . S
C1539 C1535 1.400 . S
C1539 C1538 1.385 . S
C1540 C1538 1.478 . S
C1540 C1542 1.381 . S
C1540 C1546 1.383 . S
C1541 C1537 1.495 . S
C1541 H1547 0.959 . S
C1541 H1548 0.961 . S
C1541 H1549 0.960 . S
C1542 C1540 1.381 . S
C1542 C1543 1.394 . S
C1542 H1550 0.930 . S
C1543 C1542 1.394 . S
C1543 C1544 1.383 . S
C1543 H1551 0.929 . S
C1544 C1543 1.383 . S
C1544 C1545 1.377 . S
C1545 H1529 0.930 . S
C1545 C1544 1.377 . S
C1545 C1546 1.379 . S
C1546 H1530 0.931 . S
C1546 C1540 1.383 . S
C1546 C1545 1.379 . S
H1547 C1541 0.959 . S
H1548 C1541 0.961 . S
H1549 C1541 0.960 . S
H1550 C1542 0.930 . S
H1551 C1543 0.929 . S
H1552 C1560 0.929 . S
H1553 C1562 0.930 . S
H1554 C1564 0.930 . S
H1555 C1567 0.929 1_556 S
H1556 C1570 0.930 . S
H1557 C1572 0.960 . S
H1558 C1572 0.960 . S
H1559 C1572 0.960 . S
C1560 H1552 0.929 . S
C1560 C1561 1.377 . S
C1560 C1562 1.384 . S
C1561 C1560 1.377 . S
C1561 C1567 1.390 . S
C1562 H1553 0.930 . S
C1562 C1560 1.384 . S
C1562 C1563 1.372 . S
C1563 C1562 1.372 . S
C1563 C1564 1.400 . S
C1563 C1568 1.490 . S
C1564 H1554 0.930 . S
C1564 C1563 1.400 . S
C1564 C1567 1.386 . S
H1565 C1581 0.930 . S
H1566 C1582 0.931 . S
C1567 H1555 0.929 1_554 S
C1567 C1561 1.390 . S
C1567 C1564 1.386 . S
C1568 C1563 1.490 . S
C1568 C1570 1.395 . S
C1568 C1571 1.403 . S
H1569 C1575 0.930 . S
C1570 H1556 0.930 . S
C1570 C1568 1.395 . S
C1570 C1573 1.403 . S
C1571 C1568 1.403 . S
C1571 C1572 1.524 . S
C1571 C1575 1.400 . S
C1572 H1557 0.960 . S
C1572 H1558 0.960 . S
C1572 H1559 0.960 . S
C1572 C1571 1.524 . S
C1573 C1570 1.403 . S
C1573 C1574 1.392 . S
C1573 C1577 1.495 1_565 S
C1574 C1573 1.392 . S
C1574 C1575 1.385 . S
C1574 C1576 1.478 . S
C1575 H1569 0.930 . S
C1575 C1571 1.400 . S
C1575 C1574 1.385 . S
C1576 C1574 1.478 . S
C1576 C1578 1.381 1_565 S
C1576 C1582 1.383 . S
C1577 C1573 1.495 1_545 S
C1577 H1583 0.959 . S
C1577 H1584 0.961 . S
C1577 H1585 0.960 . S
C1578 C1576 1.381 1_545 S
C1578 C1579 1.394 . S
C1578 H1586 0.930 . S
C1579 C1578 1.394 . S
C1579 C1580 1.383 . S
C1579 H1587 0.929 . S
C1580 C1579 1.383 . S
C1580 C1581 1.377 1_545 S
C1581 H1565 0.930 . S
C1581 C1580 1.377 1_565 S
C1581 C1582 1.379 . S
C1582 H1566 0.931 . S
C1582 C1576 1.383 . S
C1582 C1581 1.379 . S
H1583 C1577 0.959 . S
H1584 C1577 0.961 . S
H1585 C1577 0.960 . S
H1586 C1578 0.930 . S
H1587 C1579 0.929 . S
H1588 C1596 0.929 . S
H1589 C1598 0.930 . S
H1590 C1600 0.930 . S
H1591 C1603 0.929 . S
H1592 C1606 0.930 . S
H1593 C1608 0.960 . S
H1594 C1608 0.960 . S
H1595 C1608 0.960 . S
C1596 H1588 0.929 . S
C1596 C1597 1.377 . S
C1596 C1598 1.384 . S
C1597 C1596 1.377 . S
C1597 C1603 1.390 . S
C1598 H1589 0.930 . S
C1598 C1596 1.384 . S
C1598 C1599 1.372 . S
C1599 C1598 1.372 . S
C1599 C1600 1.400 . S
C1599 C1604 1.490 . S
C1600 H1590 0.930 . S
C1600 C1599 1.400 . S
C1600 C1603 1.386 . S
H1601 C1617 0.930 . S
H1602 C1618 0.931 . S
C1603 H1591 0.929 . S
C1603 C1597 1.390 . S
C1603 C1600 1.386 . S
C1604 C1599 1.490 . S
C1604 C1606 1.395 . S
C1604 C1607 1.403 . S
H1605 C1611 0.930 . S
C1606 H1592 0.930 . S
C1606 C1604 1.395 . S
C1606 C1609 1.403 . S
C1607 C1604 1.403 . S
C1607 C1608 1.524 1_554 S
C1607 C1611 1.400 . S
C1608 H1593 0.960 . S
C1608 H1594 0.960 . S
C1608 H1595 0.960 . S
C1608 C1607 1.524 1_556 S
C1609 C1606 1.403 . S
C1609 C1610 1.392 . S
C1609 C1613 1.495 . S
C1610 C1609 1.392 . S
C1610 C1611 1.385 . S
C1610 C1612 1.478 . S
C1611 H1605 0.930 . S
C1611 C1607 1.400 . S
C1611 C1610 1.385 . S
C1612 C1610 1.478 . S
C1612 C1614 1.381 . S
C1612 C1618 1.383 . S
C1613 C1609 1.495 . S
C1613 H1619 0.959 . S
C1613 H1620 0.961 . S
C1613 H1621 0.960 . S
C1614 C1612 1.381 . S
C1614 C1615 1.394 . S
C1614 H1622 0.930 . S
C1615 C1614 1.394 . S
C1615 C1616 1.383 . S
C1615 H1623 0.929 . S
C1616 C1615 1.383 . S
C1616 C1617 1.377 . S
C1617 H1601 0.930 . S
C1617 C1616 1.377 . S
C1617 C1618 1.379 . S
C1618 H1602 0.931 . S
C1618 C1612 1.383 . S
C1618 C1617 1.379 . S
H1619 C1613 0.959 . S
H1620 C1613 0.961 . S
H1621 C1613 0.960 . S
H1622 C1614 0.930 . S
H1623 C1615 0.929 . S
H1624 C1632 0.929 . S
H1625 C1634 0.930 . S
H1626 C1636 0.930 . S
H1627 C1639 0.929 . S
H1628 C1642 0.930 . S
H1629 C1644 0.960 . S
H1630 C1644 0.960 . S
H1631 C1644 0.960 . S
C1632 H1624 0.929 . S
C1632 C1633 1.377 . S
C1632 C1634 1.384 . S
C1633 C1632 1.377 . S
C1633 C1639 1.390 . S
C1634 H1625 0.930 . S
C1634 C1632 1.384 . S
C1634 C1635 1.372 . S
C1635 C1634 1.372 . S
C1635 C1636 1.400 . S
C1635 C1640 1.490 . S
C1636 H1626 0.930 . S
C1636 C1635 1.400 . S
C1636 C1639 1.386 . S
H1637 C1653 0.930 . S
H1638 C1654 0.931 . S
C1639 H1627 0.929 . S
C1639 C1633 1.390 . S
C1639 C1636 1.386 . S
C1640 C1635 1.490 . S
C1640 C1642 1.395 . S
C1640 C1643 1.403 . S
H1641 C1647 0.930 . S
C1642 H1628 0.930 . S
C1642 C1640 1.395 . S
C1642 C1645 1.403 . S
C1643 C1640 1.403 . S
C1643 C1644 1.524 . S
C1643 C1647 1.400 . S
C1644 H1629 0.960 . S
C1644 H1630 0.960 . S
C1644 H1631 0.960 . S
C1644 C1643 1.524 . S
C1645 C1642 1.403 . S
C1645 C1646 1.392 . S
C1645 C1649 1.495 . S
C1646 C1645 1.392 . S
C1646 C1647 1.385 . S
C1646 C1648 1.478 . S
C1647 H1641 0.930 . S
C1647 C1643 1.400 . S
C1647 C1646 1.385 . S
C1648 C1646 1.478 . S
C1648 C1650 1.381 . S
C1648 C1654 1.383 . S
C1649 C1645 1.495 . S
C1649 H1655 0.959 . S
C1649 H1656 0.961 . S
C1649 H1657 0.960 . S
C1650 C1648 1.381 . S
C1650 C1651 1.394 . S
C1650 H1658 0.930 . S
C1651 C1650 1.394 . S
C1651 C1652 1.383 . S
C1651 H1659 0.929 . S
C1652 C1651 1.383 . S
C1652 C1653 1.377 . S
C1653 H1637 0.930 . S
C1653 C1652 1.377 . S
C1653 C1654 1.379 . S
C1654 H1638 0.931 . S
C1654 C1648 1.383 . S
C1654 C1653 1.379 . S
H1655 C1649 0.959 . S
H1656 C1649 0.961 . S
H1657 C1649 0.960 . S
H1658 C1650 0.930 . S
H1659 C1651 0.929 . S
H1660 C1668 0.929 . S
H1661 C1670 0.930 . S
H1662 C1672 0.930 . S
H1663 C1675 0.929 . S
H1664 C1678 0.930 . S
H1665 C1680 0.960 . S
H1666 C1680 0.960 . S
H1667 C1680 0.960 . S
C1668 H1660 0.929 . S
C1668 C1669 1.377 . S
C1668 C1670 1.384 . S
C1669 C1668 1.377 . S
C1669 C1675 1.390 . S
C1670 H1661 0.930 . S
C1670 C1668 1.384 . S
C1670 C1671 1.372 . S
C1671 C1670 1.372 . S
C1671 C1672 1.400 . S
C1671 C1676 1.490 . S
C1672 H1662 0.930 . S
C1672 C1671 1.400 . S
C1672 C1675 1.386 . S
H1673 C1689 0.930 . S
H1674 C1690 0.931 . S
C1675 H1663 0.929 . S
C1675 C1669 1.390 . S
C1675 C1672 1.386 . S
C1676 C1671 1.490 . S
C1676 C1678 1.395 . S
C1676 C1679 1.403 . S
H1677 C1683 0.930 . S
C1678 H1664 0.930 . S
C1678 C1676 1.395 . S
C1678 C1681 1.403 . S
C1679 C1676 1.403 . S
C1679 C1680 1.524 . S
C1679 C1683 1.400 . S
C1680 H1665 0.960 . S
C1680 H1666 0.960 . S
C1680 H1667 0.960 . S
C1680 C1679 1.524 . S
C1681 C1678 1.403 . S
C1681 C1682 1.392 . S
C1681 C1685 1.495 . S
C1682 C1681 1.392 . S
C1682 C1683 1.385 . S
C1682 C1684 1.478 . S
C1683 H1677 0.930 . S
C1683 C1679 1.400 . S
C1683 C1682 1.385 . S
C1684 C1682 1.478 . S
C1684 C1686 1.381 . S
C1684 C1690 1.383 . S
C1685 C1681 1.495 . S
C1685 H1691 0.959 . S
C1685 H1692 0.961 . S
C1685 H1693 0.960 . S
C1686 C1684 1.381 . S
C1686 C1687 1.394 . S
C1686 H1694 0.930 . S
C1687 C1686 1.394 . S
C1687 C1688 1.383 . S
C1687 H1695 0.929 . S
C1688 C1687 1.383 . S
C1688 C1689 1.377 . S
C1689 H1673 0.930 . S
C1689 C1688 1.377 . S
C1689 C1690 1.379 . S
C1690 H1674 0.931 . S
C1690 C1684 1.383 . S
C1690 C1689 1.379 . S
H1691 C1685 0.959 . S
H1692 C1685 0.961 . S
H1693 C1685 0.960 . S
H1694 C1686 0.930 . S
H1695 C1687 0.929 . S
H1696 C1704 0.929 . S
H1697 C1706 0.930 . S
H1698 C1708 0.930 . S
H1699 C1711 0.929 . S
H1700 C1714 0.930 . S
H1701 C1716 0.960 . S
H1702 C1716 0.960 . S
H1703 C1716 0.960 . S
C1704 H1696 0.929 . S
C1704 C1705 1.377 . S
C1704 C1706 1.384 . S
C1705 C1704 1.377 . S
C1705 C1711 1.390 . S
C1706 H1697 0.930 . S
C1706 C1704 1.384 . S
C1706 C1707 1.372 . S
C1707 C1706 1.372 . S
C1707 C1708 1.400 . S
C1707 C1712 1.490 . S
C1708 H1698 0.930 . S
C1708 C1707 1.400 . S
C1708 C1711 1.386 . S
H1709 C1725 0.930 . S
H1710 C1726 0.931 . S
C1711 H1699 0.929 . S
C1711 C1705 1.390 . S
C1711 C1708 1.386 . S
C1712 C1707 1.490 . S
C1712 C1714 1.395 . S
C1712 C1715 1.403 . S
H1713 C1719 0.930 . S
C1714 H1700 0.930 . S
C1714 C1712 1.395 . S
C1714 C1717 1.403 . S
C1715 C1712 1.403 . S
C1715 C1716 1.524 . S
C1715 C1719 1.400 . S
C1716 H1701 0.960 . S
C1716 H1702 0.960 . S
C1716 H1703 0.960 . S
C1716 C1715 1.524 . S
C1717 C1714 1.403 . S
C1717 C1718 1.392 . S
C1717 C1721 1.495 . S
C1718 C1717 1.392 . S
C1718 C1719 1.385 . S
C1718 C1720 1.478 . S
C1719 H1713 0.930 . S
C1719 C1715 1.400 . S
C1719 C1718 1.385 . S
C1720 C1718 1.478 . S
C1720 C1722 1.381 . S
C1720 C1726 1.383 . S
C1721 C1717 1.495 . S
C1721 H1727 0.959 . S
C1721 H1728 0.961 . S
C1721 H1729 0.960 . S
C1722 C1720 1.381 . S
C1722 C1723 1.394 . S
C1722 H1730 0.930 . S
C1723 C1722 1.394 . S
C1723 C1724 1.383 . S
C1723 H1731 0.929 . S
C1724 C1723 1.383 . S
C1724 C1725 1.377 . S
C1725 H1709 0.930 . S
C1725 C1724 1.377 . S
C1725 C1726 1.379 . S
C1726 H1710 0.931 . S
C1726 C1720 1.383 . S
C1726 C1725 1.379 . S
H1727 C1721 0.959 . S
H1728 C1721 0.961 . S
H1729 C1721 0.960 . S
H1730 C1722 0.930 . S
H1731 C1723 0.929 . S
H1732 C1740 0.929 . S
H1733 C1742 0.930 . S
H1734 C1744 0.930 . S
H1735 C1747 0.929 . S
H1736 C1750 0.930 . S
H1737 C1752 0.960 . S
H1738 C1752 0.960 . S
H1739 C1752 0.960 . S
C1740 H1732 0.929 . S
C1740 C1741 1.377 . S
C1740 C1742 1.384 . S
C1741 C1740 1.377 . S
C1741 C1747 1.390 . S
C1742 H1733 0.930 . S
C1742 C1740 1.384 . S
C1742 C1743 1.372 . S
C1743 C1742 1.372 . S
C1743 C1744 1.400 . S
C1743 C1748 1.490 . S
C1744 H1734 0.930 . S
C1744 C1743 1.400 . S
C1744 C1747 1.386 . S
H1745 C1761 0.930 . S
H1746 C1762 0.931 . S
C1747 H1735 0.929 . S
C1747 C1741 1.390 . S
C1747 C1744 1.386 . S
C1748 C1743 1.490 . S
C1748 C1750 1.395 . S
C1748 C1751 1.403 . S
H1749 C1755 0.930 . S
C1750 H1736 0.930 . S
C1750 C1748 1.395 . S
C1750 C1753 1.403 . S
C1751 C1748 1.403 . S
C1751 C1752 1.524 . S
C1751 C1755 1.400 . S
C1752 H1737 0.960 . S
C1752 H1738 0.960 . S
C1752 H1739 0.960 . S
C1752 C1751 1.524 . S
C1753 C1750 1.403 . S
C1753 C1754 1.392 . S
C1753 C1757 1.495 . S
C1754 C1753 1.392 . S
C1754 C1755 1.385 . S
C1754 C1756 1.478 . S
C1755 H1749 0.930 . S
C1755 C1751 1.400 . S
C1755 C1754 1.385 . S
C1756 C1754 1.478 . S
C1756 C1758 1.381 . S
C1756 C1762 1.383 . S
C1757 C1753 1.495 . S
C1757 H1763 0.959 . S
C1757 H1764 0.961 . S
C1757 H1765 0.960 . S
C1758 C1756 1.381 . S
C1758 C1759 1.394 . S
C1758 H1766 0.930 . S
C1759 C1758 1.394 . S
C1759 C1760 1.383 . S
C1759 H1767 0.929 . S
C1760 C1759 1.383 . S
C1760 C1761 1.377 . S
C1761 H1745 0.930 . S
C1761 C1760 1.377 . S
C1761 C1762 1.379 . S
C1762 H1746 0.931 . S
C1762 C1756 1.383 . S
C1762 C1761 1.379 . S
H1763 C1757 0.959 . S
H1764 C1757 0.961 . S
H1765 C1757 0.960 . S
H1766 C1758 0.930 . S
H1767 C1759 0.929 . S
H1768 C1776 0.929 . S
H1769 C1778 0.930 . S
H1770 C1780 0.930 . S
H1771 C1783 0.929 . S
H1772 C1786 0.930 . S
H1773 C1788 0.960 . S
H1774 C1788 0.960 . S
H1775 C1788 0.960 . S
C1776 H1768 0.929 . S
C1776 C1777 1.377 . S
C1776 C1778 1.384 . S
C1777 C1776 1.377 . S
C1777 C1783 1.390 . S
C1778 H1769 0.930 . S
C1778 C1776 1.384 . S
C1778 C1779 1.372 . S
C1779 C1778 1.372 . S
C1779 C1780 1.400 . S
C1779 C1784 1.490 . S
C1780 H1770 0.930 . S
C1780 C1779 1.400 . S
C1780 C1783 1.386 . S
H1781 C1797 0.930 . S
H1782 C1798 0.931 . S
C1783 H1771 0.929 . S
C1783 C1777 1.390 . S
C1783 C1780 1.386 . S
C1784 C1779 1.490 . S
C1784 C1786 1.395 . S
C1784 C1787 1.403 . S
H1785 C1791 0.930 . S
C1786 H1772 0.930 . S
C1786 C1784 1.395 . S
C1786 C1789 1.403 . S
C1787 C1784 1.403 . S
C1787 C1788 1.524 . S
C1787 C1791 1.400 . S
C1788 H1773 0.960 . S
C1788 H1774 0.960 . S
C1788 H1775 0.960 . S
C1788 C1787 1.524 . S
C1789 C1786 1.403 . S
C1789 C1790 1.392 . S
C1789 C1793 1.495 . S
C1790 C1789 1.392 . S
C1790 C1791 1.385 . S
C1790 C1792 1.478 . S
C1791 H1785 0.930 . S
C1791 C1787 1.400 . S
C1791 C1790 1.385 . S
C1792 C1790 1.478 . S
C1792 C1794 1.381 . S
C1792 C1798 1.383 . S
C1793 C1789 1.495 . S
C1793 H1799 0.959 . S
C1793 H1800 0.961 . S
C1793 H1801 0.960 . S
C1794 C1792 1.381 . S
C1794 C1795 1.394 . S
C1794 H1802 0.930 . S
C1795 C1794 1.394 . S
C1795 C1796 1.383 . S
C1795 H1803 0.929 . S
C1796 C1795 1.383 . S
C1796 C1797 1.377 . S
C1797 H1781 0.930 . S
C1797 C1796 1.377 . S
C1797 C1798 1.379 . S
C1798 H1782 0.931 . S
C1798 C1792 1.383 . S
C1798 C1797 1.379 . S
H1799 C1793 0.959 . S
H1800 C1793 0.961 . S
H1801 C1793 0.960 . S
H1802 C1794 0.930 . S
H1803 C1795 0.929 . S
H1804 C1812 0.929 . S
H1805 C1814 0.930 . S
H1806 C1816 0.930 . S
H1807 C1819 0.929 . S
H1808 C1822 0.930 . S
H1809 C1824 0.960 . S
H1810 C1824 0.960 . S
H1811 C1824 0.960 . S
C1812 H1804 0.929 . S
C1812 C1813 1.377 . S
C1812 C1814 1.384 . S
C1813 C1812 1.377 . S
C1813 C1819 1.390 . S
C1814 H1805 0.930 . S
C1814 C1812 1.384 . S
C1814 C1815 1.372 . S
C1815 C1814 1.372 . S
C1815 C1816 1.400 . S
C1815 C1820 1.490 . S
C1816 H1806 0.930 . S
C1816 C1815 1.400 . S
C1816 C1819 1.386 . S
H1817 C1833 0.930 . S
H1818 C1834 0.931 . S
C1819 H1807 0.929 . S
C1819 C1813 1.390 . S
C1819 C1816 1.386 . S
C1820 C1815 1.490 . S
C1820 C1822 1.395 . S
C1820 C1823 1.403 . S
H1821 C1827 0.930 . S
C1822 H1808 0.930 . S
C1822 C1820 1.395 . S
C1822 C1825 1.403 . S
C1823 C1820 1.403 . S
C1823 C1824 1.524 . S
C1823 C1827 1.400 . S
C1824 H1809 0.960 . S
C1824 H1810 0.960 . S
C1824 H1811 0.960 . S
C1824 C1823 1.524 . S
C1825 C1822 1.403 . S
C1825 C1826 1.392 . S
C1825 C1829 1.495 . S
C1826 C1825 1.392 . S
C1826 C1827 1.385 . S
C1826 C1828 1.478 . S
C1827 H1821 0.930 . S
C1827 C1823 1.400 . S
C1827 C1826 1.385 . S
C1828 C1826 1.478 . S
C1828 C1830 1.381 . S
C1828 C1834 1.383 . S
C1829 C1825 1.495 . S
C1829 H1835 0.959 . S
C1829 H1836 0.961 . S
C1829 H1837 0.960 . S
C1830 C1828 1.381 . S
C1830 C1831 1.394 . S
C1830 H1838 0.930 . S
C1831 C1830 1.394 . S
C1831 C1832 1.383 . S
C1831 H1839 0.929 . S
C1832 C1831 1.383 . S
C1832 C1833 1.377 . S
C1833 H1817 0.930 . S
C1833 C1832 1.377 . S
C1833 C1834 1.379 . S
C1834 H1818 0.931 . S
C1834 C1828 1.383 . S
C1834 C1833 1.379 . S
H1835 C1829 0.959 . S
H1836 C1829 0.961 . S
H1837 C1829 0.960 . S
H1838 C1830 0.930 . S
H1839 C1831 0.929 . S
H1840 C1848 0.929 . S
H1841 C1850 0.930 . S
H1842 C1852 0.930 . S
H1843 C1855 0.929 . S
H1844 C1858 0.930 . S
H1845 C1860 0.960 . S
H1846 C1860 0.960 . S
H1847 C1860 0.960 . S
C1848 H1840 0.929 . S
C1848 C1849 1.377 . S
C1848 C1850 1.384 . S
C1849 C1848 1.377 . S
C1849 C1855 1.390 . S
C1850 H1841 0.930 . S
C1850 C1848 1.384 . S
C1850 C1851 1.372 . S
C1851 C1850 1.372 . S
C1851 C1852 1.400 . S
C1851 C1856 1.490 . S
C1852 H1842 0.930 . S
C1852 C1851 1.400 . S
C1852 C1855 1.386 . S
H1853 C1869 0.930 . S
H1854 C1870 0.931 . S
C1855 H1843 0.929 . S
C1855 C1849 1.390 . S
C1855 C1852 1.386 . S
C1856 C1851 1.490 . S
C1856 C1858 1.395 . S
C1856 C1859 1.403 . S
H1857 C1863 0.930 . S
C1858 H1844 0.930 . S
C1858 C1856 1.395 . S
C1858 C1861 1.403 . S
C1859 C1856 1.403 . S
C1859 C1860 1.524 . S
C1859 C1863 1.400 . S
C1860 H1845 0.960 . S
C1860 H1846 0.960 . S
C1860 H1847 0.960 . S
C1860 C1859 1.524 . S
C1861 C1858 1.403 . S
C1861 C1862 1.392 . S
C1861 C1865 1.495 . S
C1862 C1861 1.392 . S
C1862 C1863 1.385 . S
C1862 C1864 1.478 . S
C1863 H1857 0.930 . S
C1863 C1859 1.400 . S
C1863 C1862 1.385 . S
C1864 C1862 1.478 . S
C1864 C1866 1.381 . S
C1864 C1870 1.383 . S
C1865 C1861 1.495 . S
C1865 H1871 0.959 . S
C1865 H1872 0.961 . S
C1865 H1873 0.960 . S
C1866 C1864 1.381 . S
C1866 C1867 1.394 . S
C1866 H1874 0.930 . S
C1867 C1866 1.394 . S
C1867 C1868 1.383 . S
C1867 H1875 0.929 . S
C1868 C1867 1.383 . S
C1868 C1869 1.377 . S
C1869 H1853 0.930 . S
C1869 C1868 1.377 . S
C1869 C1870 1.379 . S
C1870 H1854 0.931 . S
C1870 C1864 1.383 . S
C1870 C1869 1.379 . S
H1871 C1865 0.959 . S
H1872 C1865 0.961 . S
H1873 C1865 0.960 . S
H1874 C1866 0.930 . S
H1875 C1867 0.929 . S
H1876 C1884 0.929 . S
H1877 C1886 0.930 . S
H1878 C1888 0.930 . S
H1879 C1891 0.929 . S
H1880 C1894 0.930 . S
H1881 C1896 0.960 . S
H1882 C1896 0.960 . S
H1883 C1896 0.960 . S
C1884 H1876 0.929 . S
C1884 C1885 1.377 . S
C1884 C1886 1.384 . S
C1885 C1884 1.377 . S
C1885 C1891 1.390 . S
C1886 H1877 0.930 . S
C1886 C1884 1.384 . S
C1886 C1887 1.372 . S
C1887 C1886 1.372 . S
C1887 C1888 1.400 . S
C1887 C1892 1.490 . S
C1888 H1878 0.930 . S
C1888 C1887 1.400 . S
C1888 C1891 1.386 . S
H1889 C1905 0.930 . S
H1890 C1906 0.931 . S
C1891 H1879 0.929 . S
C1891 C1885 1.390 . S
C1891 C1888 1.386 . S
C1892 C1887 1.490 . S
C1892 C1894 1.395 . S
C1892 C1895 1.403 . S
H1893 C1899 0.930 . S
C1894 H1880 0.930 . S
C1894 C1892 1.395 . S
C1894 C1897 1.403 . S
C1895 C1892 1.403 . S
C1895 C1896 1.524 . S
C1895 C1899 1.400 . S
C1896 H1881 0.960 . S
C1896 H1882 0.960 . S
C1896 H1883 0.960 . S
C1896 C1895 1.524 . S
C1897 C1894 1.403 . S
C1897 C1898 1.392 . S
C1897 C1901 1.495 . S
C1898 C1897 1.392 . S
C1898 C1899 1.385 . S
C1898 C1900 1.478 . S
C1899 H1893 0.930 . S
C1899 C1895 1.400 . S
C1899 C1898 1.385 . S
C1900 C1898 1.478 . S
C1900 C1902 1.381 . S
C1900 C1906 1.383 . S
C1901 C1897 1.495 . S
C1901 H1907 0.959 . S
C1901 H1908 0.961 . S
C1901 H1909 0.960 . S
C1902 C1900 1.381 . S
C1902 C1903 1.394 . S
C1902 H1910 0.930 . S
C1903 C1902 1.394 . S
C1903 C1904 1.383 . S
C1903 H1911 0.929 . S
C1904 C1903 1.383 . S
C1904 C1905 1.377 . S
C1905 H1889 0.930 . S
C1905 C1904 1.377 . S
C1905 C1906 1.379 . S
C1906 H1890 0.931 . S
C1906 C1900 1.383 . S
C1906 C1905 1.379 . S
H1907 C1901 0.959 . S
H1908 C1901 0.961 . S
H1909 C1901 0.960 . S
H1910 C1902 0.930 . S
H1911 C1903 0.929 . S
H1912 C1920 0.929 . S
H1913 C1922 0.930 . S
H1914 C1924 0.930 . S
H1915 C1927 0.929 . S
H1916 C1930 0.930 . S
H1917 C1932 0.960 . S
H1918 C1932 0.960 . S
H1919 C1932 0.960 . S
C1920 H1912 0.929 . S
C1920 C1921 1.377 . S
C1920 C1922 1.384 . S
C1921 C1920 1.377 . S
C1921 C1927 1.390 . S
C1922 H1913 0.930 . S
C1922 C1920 1.384 . S
C1922 C1923 1.372 . S
C1923 C1922 1.372 . S
C1923 C1924 1.400 . S
C1923 C1928 1.490 . S
C1924 H1914 0.930 . S
C1924 C1923 1.400 . S
C1924 C1927 1.386 . S
H1925 C1941 0.930 . S
H1926 C1942 0.931 . S
C1927 H1915 0.929 . S
C1927 C1921 1.390 . S
C1927 C1924 1.386 . S
C1928 C1923 1.490 . S
C1928 C1930 1.395 . S
C1928 C1931 1.403 . S
H1929 C1935 0.930 . S
C1930 H1916 0.930 . S
C1930 C1928 1.395 . S
C1930 C1933 1.403 . S
C1931 C1928 1.403 . S
C1931 C1932 1.524 . S
C1931 C1935 1.400 . S
C1932 H1917 0.960 . S
C1932 H1918 0.960 . S
C1932 H1919 0.960 . S
C1932 C1931 1.524 . S
C1933 C1930 1.403 . S
C1933 C1934 1.392 . S
C1933 C1937 1.495 . S
C1934 C1933 1.392 . S
C1934 C1935 1.385 . S
C1934 C1936 1.478 . S
C1935 H1929 0.930 . S
C1935 C1931 1.400 . S
C1935 C1934 1.385 . S
C1936 C1934 1.478 . S
C1936 C1938 1.381 . S
C1936 C1942 1.383 . S
C1937 C1933 1.495 . S
C1937 H1943 0.959 . S
C1937 H1944 0.961 . S
C1937 H1945 0.960 . S
C1938 C1936 1.381 . S
C1938 C1939 1.394 . S
C1938 H1946 0.930 . S
C1939 C1938 1.394 . S
C1939 C1940 1.383 . S
C1939 H1947 0.929 . S
C1940 C1939 1.383 . S
C1940 C1941 1.377 . S
C1941 H1925 0.930 . S
C1941 C1940 1.377 . S
C1941 C1942 1.379 . S
C1942 H1926 0.931 . S
C1942 C1936 1.383 . S
C1942 C1941 1.379 . S
H1943 C1937 0.959 . S
H1944 C1937 0.961 . S
H1945 C1937 0.960 . S
H1946 C1938 0.930 . S
H1947 C1939 0.929 . S
H1948 C1956 0.929 . S
H1949 C1958 0.930 . S
H1950 C1960 0.930 . S
H1951 C1963 0.929 . S
H1952 C1966 0.930 . S
H1953 C1968 0.960 . S
H1954 C1968 0.960 . S
H1955 C1968 0.960 . S
C1956 H1948 0.929 . S
C1956 C1957 1.377 . S
C1956 C1958 1.384 . S
C1957 C1956 1.377 . S
C1957 C1963 1.390 . S
C1958 H1949 0.930 . S
C1958 C1956 1.384 . S
C1958 C1959 1.372 . S
C1959 C1958 1.372 . S
C1959 C1960 1.400 . S
C1959 C1964 1.490 . S
C1960 H1950 0.930 . S
C1960 C1959 1.400 . S
C1960 C1963 1.386 . S
H1961 C1977 0.930 . S
H1962 C1978 0.931 . S
C1963 H1951 0.929 . S
C1963 C1957 1.390 . S
C1963 C1960 1.386 . S
C1964 C1959 1.490 . S
C1964 C1966 1.395 . S
C1964 C1967 1.403 . S
H1965 C1971 0.930 . S
C1966 H1952 0.930 . S
C1966 C1964 1.395 . S
C1966 C1969 1.403 . S
C1967 C1964 1.403 . S
C1967 C1968 1.524 . S
C1967 C1971 1.400 . S
C1968 H1953 0.960 . S
C1968 H1954 0.960 . S
C1968 H1955 0.960 . S
C1968 C1967 1.524 . S
C1969 C1966 1.403 . S
C1969 C1970 1.392 . S
C1969 C1973 1.495 . S
C1970 C1969 1.392 . S
C1970 C1971 1.385 . S
C1970 C1972 1.478 . S
C1971 H1965 0.930 . S
C1971 C1967 1.400 . S
C1971 C1970 1.385 . S
C1972 C1970 1.478 . S
C1972 C1974 1.381 . S
C1972 C1978 1.383 . S
C1973 C1969 1.495 . S
C1973 H1979 0.959 . S
C1973 H1980 0.961 . S
C1973 H1981 0.960 . S
C1974 C1972 1.381 . S
C1974 C1975 1.394 . S
C1974 H1982 0.930 . S
C1975 C1974 1.394 . S
C1975 C1976 1.383 . S
C1975 H1983 0.929 . S
C1976 C1975 1.383 . S
C1976 C1977 1.377 . S
C1977 H1961 0.930 . S
C1977 C1976 1.377 . S
C1977 C1978 1.379 . S
C1978 H1962 0.931 . S
C1978 C1972 1.383 . S
C1978 C1977 1.379 . S
H1979 C1973 0.959 . S
H1980 C1973 0.961 . S
H1981 C1973 0.960 . S
H1982 C1974 0.930 . S
H1983 C1975 0.929 . S
H1984 C1992 0.929 . S
H1985 C1994 0.930 . S
H1986 C1996 0.930 . S
H1987 C1999 0.929 . S
H1988 C2002 0.930 . S
H1989 C2004 0.960 . S
H1990 C2004 0.960 . S
H1991 C2004 0.960 . S
C1992 H1984 0.929 . S
C1992 C1993 1.377 . S
C1992 C1994 1.384 . S
C1993 C1992 1.377 . S
C1993 C1999 1.390 . S
C1994 H1985 0.930 . S
C1994 C1992 1.384 . S
C1994 C1995 1.372 . S
C1995 C1994 1.372 . S
C1995 C1996 1.400 . S
C1995 C2000 1.490 . S
C1996 H1986 0.930 . S
C1996 C1995 1.400 . S
C1996 C1999 1.386 . S
H1997 C2013 0.930 . S
H1998 C2014 0.931 . S
C1999 H1987 0.929 . S
C1999 C1993 1.390 . S
C1999 C1996 1.386 . S
C2000 C1995 1.490 . S
C2000 C2002 1.395 . S
C2000 C2003 1.403 . S
H2001 C2007 0.930 . S
C2002 H1988 0.930 . S
C2002 C2000 1.395 . S
C2002 C2005 1.403 . S
C2003 C2000 1.403 . S
C2003 C2004 1.524 1_455 S
C2003 C2007 1.400 . S
C2004 H1989 0.960 . S
C2004 H1990 0.960 . S
C2004 H1991 0.960 . S
C2004 C2003 1.524 1_655 S
C2005 C2002 1.403 . S
C2005 C2006 1.392 . S
C2005 C2009 1.495 . S
C2006 C2005 1.392 . S
C2006 C2007 1.385 . S
C2006 C2008 1.478 . S
C2007 H2001 0.930 . S
C2007 C2003 1.400 . S
C2007 C2006 1.385 . S
C2008 C2006 1.478 . S
C2008 C2010 1.381 . S
C2008 C2014 1.383 . S
C2009 C2005 1.495 . S
C2009 H2015 0.959 . S
C2009 H2016 0.961 . S
C2009 H2017 0.960 . S
C2010 C2008 1.381 . S
C2010 C2011 1.394 . S
C2010 H2018 0.930 . S
C2011 C2010 1.394 . S
C2011 C2012 1.383 . S
C2011 H2019 0.929 . S
C2012 C2011 1.383 . S
C2012 C2013 1.377 . S
C2013 H1997 0.930 . S
C2013 C2012 1.377 . S
C2013 C2014 1.379 . S
C2014 H1998 0.931 . S
C2014 C2008 1.383 . S
C2014 C2013 1.379 . S
H2015 C2009 0.959 . S
H2016 C2009 0.961 . S
H2017 C2009 0.960 . S
H2018 C2010 0.930 . S
H2019 C2011 0.929 . S
H2020 C2028 0.929 . S
H2021 C2030 0.930 . S
H2022 C2032 0.930 . S
H2023 C2035 0.929 . S
H2024 C2038 0.930 . S
H2025 C2040 0.960 . S
H2026 C2040 0.960 . S
H2027 C2040 0.960 . S
C2028 H2020 0.929 . S
C2028 C2029 1.377 . S
C2028 C2030 1.384 . S
C2029 C2028 1.377 . S
C2029 C2035 1.390 . S
C2030 H2021 0.930 . S
C2030 C2028 1.384 . S
C2030 C2031 1.372 . S
C2031 C2030 1.372 . S
C2031 C2032 1.400 . S
C2031 C2036 1.490 . S
C2032 H2022 0.930 . S
C2032 C2031 1.400 . S
C2032 C2035 1.386 . S
H2033 C2049 0.930 . S
H2034 C2050 0.931 . S
C2035 H2023 0.929 . S
C2035 C2029 1.390 . S
C2035 C2032 1.386 . S
C2036 C2031 1.490 . S
C2036 C2038 1.395 . S
C2036 C2039 1.403 . S
H2037 C2043 0.930 . S
C2038 H2024 0.930 . S
C2038 C2036 1.395 . S
C2038 C2041 1.403 . S
C2039 C2036 1.403 . S
C2039 C2040 1.524 . S
C2039 C2043 1.400 . S
C2040 H2025 0.960 . S
C2040 H2026 0.960 . S
C2040 H2027 0.960 . S
C2040 C2039 1.524 . S
C2041 C2038 1.403 . S
C2041 C2042 1.392 . S
C2041 C2045 1.495 . S
C2042 C2041 1.392 . S
C2042 C2043 1.385 . S
C2042 C2044 1.478 . S
C2043 H2037 0.930 . S
C2043 C2039 1.400 . S
C2043 C2042 1.385 . S
C2044 C2042 1.478 . S
C2044 C2046 1.381 . S
C2044 C2050 1.383 . S
C2045 C2041 1.495 . S
C2045 H2051 0.959 . S
C2045 H2052 0.961 . S
C2045 H2053 0.960 . S
C2046 C2044 1.381 . S
C2046 C2047 1.394 . S
C2046 H2054 0.930 . S
C2047 C2046 1.394 . S
C2047 C2048 1.383 . S
C2047 H2055 0.929 . S
C2048 C2047 1.383 . S
C2048 C2049 1.377 . S
C2049 H2033 0.930 . S
C2049 C2048 1.377 . S
C2049 C2050 1.379 . S
C2050 H2034 0.931 . S
C2050 C2044 1.383 . S
C2050 C2049 1.379 . S
H2051 C2045 0.959 . S
H2052 C2045 0.961 . S
H2053 C2045 0.960 . S
H2054 C2046 0.930 . S
H2055 C2047 0.929 . S
H2056 C2064 0.929 . S
H2057 C2066 0.930 . S
H2058 C2068 0.930 . S
H2059 C2071 0.929 . S
H2060 C2074 0.930 . S
H2061 C2076 0.960 . S
H2062 C2076 0.960 . S
H2063 C2076 0.960 . S
C2064 H2056 0.929 . S
C2064 C2065 1.377 . S
C2064 C2066 1.384 . S
C2065 C2064 1.377 . S
C2065 C2071 1.390 . S
C2066 H2057 0.930 . S
C2066 C2064 1.384 . S
C2066 C2067 1.372 . S
C2067 C2066 1.372 . S
C2067 C2068 1.400 . S
C2067 C2072 1.490 . S
C2068 H2058 0.930 . S
C2068 C2067 1.400 . S
C2068 C2071 1.386 . S
H2069 C2085 0.930 1_554 S
H2070 C2086 0.931 . S
C2071 H2059 0.929 . S
C2071 C2065 1.390 . S
C2071 C2068 1.386 . S
C2072 C2067 1.490 . S
C2072 C2074 1.395 . S
C2072 C2075 1.403 . S
H2073 C2079 0.930 . S
C2074 H2060 0.930 . S
C2074 C2072 1.395 . S
C2074 C2077 1.403 . S
C2075 C2072 1.403 . S
C2075 C2076 1.524 . S
C2075 C2079 1.400 . S
C2076 H2061 0.960 . S
C2076 H2062 0.960 . S
C2076 H2063 0.960 . S
C2076 C2075 1.524 . S
C2077 C2074 1.403 . S
C2077 C2078 1.392 . S
C2077 C2081 1.495 . S
C2078 C2077 1.392 . S
C2078 C2079 1.385 . S
C2078 C2080 1.478 . S
C2079 H2073 0.930 . S
C2079 C2075 1.400 . S
C2079 C2078 1.385 . S
C2080 C2078 1.478 . S
C2080 C2082 1.381 . S
C2080 C2086 1.383 . S
C2081 C2077 1.495 . S
C2081 H2087 0.959 . S
C2081 H2088 0.961 . S
C2081 H2089 0.960 . S
C2082 C2080 1.381 . S
C2082 C2083 1.394 . S
C2082 H2090 0.930 . S
C2083 C2082 1.394 . S
C2083 C2084 1.383 . S
C2083 H2091 0.929 . S
C2084 C2083 1.383 . S
C2084 C2085 1.377 . S
C2085 H2069 0.930 1_556 S
C2085 C2084 1.377 . S
C2085 C2086 1.379 . S
C2086 H2070 0.931 . S
C2086 C2080 1.383 . S
C2086 C2085 1.379 . S
H2087 C2081 0.959 . S
H2088 C2081 0.961 . S
H2089 C2081 0.960 . S
H2090 C2082 0.930 . S
H2091 C2083 0.929 . S
H2092 C2100 0.929 . S
H2093 C2102 0.930 . S
H2094 C2104 0.930 . S
H2095 C2107 0.929 . S
H2096 C2110 0.930 . S
H2097 C2112 0.960 . S
H2098 C2112 0.960 . S
H2099 C2112 0.960 . S
C2100 H2092 0.929 . S
C2100 C2101 1.377 . S
C2100 C2102 1.384 . S
C2101 C2100 1.377 . S
C2101 C2107 1.390 . S
C2102 H2093 0.930 . S
C2102 C2100 1.384 . S
C2102 C2103 1.372 . S
C2103 C2102 1.372 . S
C2103 C2104 1.400 . S
C2103 C2108 1.490 . S
C2104 H2094 0.930 . S
C2104 C2103 1.400 . S
C2104 C2107 1.386 . S
H2105 C2121 0.930 . S
H2106 C2122 0.931 . S
C2107 H2095 0.929 . S
C2107 C2101 1.390 . S
C2107 C2104 1.386 . S
C2108 C2103 1.490 . S
C2108 C2110 1.395 . S
C2108 C2111 1.403 . S
H2109 C2115 0.930 . S
C2110 H2096 0.930 . S
C2110 C2108 1.395 . S
C2110 C2113 1.403 . S
C2111 C2108 1.403 . S
C2111 C2112 1.524 . S
C2111 C2115 1.400 . S
C2112 H2097 0.960 . S
C2112 H2098 0.960 . S
C2112 H2099 0.960 . S
C2112 C2111 1.524 . S
C2113 C2110 1.403 . S
C2113 C2114 1.392 . S
C2113 C2117 1.495 . S
C2114 C2113 1.392 . S
C2114 C2115 1.385 . S
C2114 C2116 1.478 . S
C2115 H2109 0.930 . S
C2115 C2111 1.400 . S
C2115 C2114 1.385 . S
C2116 C2114 1.478 . S
C2116 C2118 1.381 . S
C2116 C2122 1.383 . S
C2117 C2113 1.495 . S
C2117 H2123 0.959 . S
C2117 H2124 0.961 . S
C2117 H2125 0.960 . S
C2118 C2116 1.381 . S
C2118 C2119 1.394 . S
C2118 H2126 0.930 . S
C2119 C2118 1.394 . S
C2119 C2120 1.383 . S
C2119 H2127 0.929 . S
C2120 C2119 1.383 . S
C2120 C2121 1.377 . S
C2121 H2105 0.930 . S
C2121 C2120 1.377 . S
C2121 C2122 1.379 . S
C2122 H2106 0.931 . S
C2122 C2116 1.383 . S
C2122 C2121 1.379 . S
H2123 C2117 0.959 . S
H2124 C2117 0.961 . S
H2125 C2117 0.960 . S
H2126 C2118 0.930 . S
H2127 C2119 0.929 . S
H2128 C2136 0.929 . S
H2129 C2138 0.930 . S
H2130 C2140 0.930 . S
H2131 C2143 0.929 . S
H2132 C2146 0.930 . S
H2133 C2148 0.960 . S
H2134 C2148 0.960 . S
H2135 C2148 0.960 . S
C2136 H2128 0.929 . S
C2136 C2137 1.377 . S
C2136 C2138 1.384 . S
C2137 C2136 1.377 . S
C2137 C2143 1.390 . S
C2138 H2129 0.930 . S
C2138 C2136 1.384 . S
C2138 C2139 1.372 . S
C2139 C2138 1.372 . S
C2139 C2140 1.400 . S
C2139 C2144 1.490 . S
C2140 H2130 0.930 . S
C2140 C2139 1.400 . S
C2140 C2143 1.386 . S
H2141 C2157 0.930 1_565 S
H2142 C2158 0.931 1_565 S
C2143 H2131 0.929 . S
C2143 C2137 1.390 . S
C2143 C2140 1.386 . S
C2144 C2139 1.490 . S
C2144 C2146 1.395 . S
C2144 C2147 1.403 . S
H2145 C2151 0.930 . S
C2146 H2132 0.930 . S
C2146 C2144 1.395 . S
C2146 C2149 1.403 . S
C2147 C2144 1.403 . S
C2147 C2148 1.524 . S
C2147 C2151 1.400 . S
C2148 H2133 0.960 . S
C2148 H2134 0.960 . S
C2148 H2135 0.960 . S
C2148 C2147 1.524 . S
C2149 C2146 1.403 . S
C2149 C2150 1.392 . S
C2149 C2153 1.495 . S
C2150 C2149 1.392 . S
C2150 C2151 1.385 . S
C2150 C2152 1.478 . S
C2151 H2145 0.930 . S
C2151 C2147 1.400 . S
C2151 C2150 1.385 . S
C2152 C2150 1.478 . S
C2152 C2154 1.381 . S
C2152 C2158 1.383 . S
C2153 C2149 1.495 . S
C2153 H2159 0.959 . S
C2153 H2160 0.961 . S
C2153 H2161 0.960 . S
C2154 C2152 1.381 . S
C2154 C2155 1.394 . S
C2154 H2162 0.930 . S
C2155 C2154 1.394 . S
C2155 C2156 1.383 . S
C2155 H2163 0.929 . S
C2156 C2155 1.383 . S
C2156 C2157 1.377 . S
C2157 H2141 0.930 1_545 S
C2157 C2156 1.377 . S
C2157 C2158 1.379 . S
C2158 H2142 0.931 1_545 S
C2158 C2152 1.383 . S
C2158 C2157 1.379 . S
H2159 C2153 0.959 . S
H2160 C2153 0.961 . S
H2161 C2153 0.960 . S
H2162 C2154 0.930 . S
H2163 C2155 0.929 . S
H2164 C2172 0.929 . S
H2165 C2174 0.930 . S
H2166 C2176 0.930 . S
H2167 C2179 0.929 . S
H2168 C2182 0.930 . S
H2169 C2184 0.960 . S
H2170 C2184 0.960 . S
H2171 C2184 0.960 . S
C2172 H2164 0.929 . S
C2172 C2173 1.377 . S
C2172 C2174 1.384 . S
C2173 C2172 1.377 . S
C2173 C2179 1.390 . S
C2174 H2165 0.930 . S
C2174 C2172 1.384 . S
C2174 C2175 1.372 . S
C2175 C2174 1.372 . S
C2175 C2176 1.400 . S
C2175 C2180 1.490 . S
C2176 H2166 0.930 . S
C2176 C2175 1.400 . S
C2176 C2179 1.386 . S
H2177 C2193 0.930 . S
H2178 C2194 0.931 . S
C2179 H2167 0.929 . S
C2179 C2173 1.390 . S
C2179 C2176 1.386 . S
C2180 C2175 1.490 . S
C2180 C2182 1.395 . S
C2180 C2183 1.403 . S
H2181 C2187 0.930 . S
C2182 H2168 0.930 . S
C2182 C2180 1.395 . S
C2182 C2185 1.403 . S
C2183 C2180 1.403 . S
C2183 C2184 1.524 . S
C2183 C2187 1.400 . S
C2184 H2169 0.960 . S
C2184 H2170 0.960 . S
C2184 H2171 0.960 . S
C2184 C2183 1.524 . S
C2185 C2182 1.403 . S
C2185 C2186 1.392 . S
C2185 C2189 1.495 . S
C2186 C2185 1.392 . S
C2186 C2187 1.385 . S
C2186 C2188 1.478 . S
C2187 H2181 0.930 . S
C2187 C2183 1.400 . S
C2187 C2186 1.385 . S
C2188 C2186 1.478 . S
C2188 C2190 1.381 . S
C2188 C2194 1.383 . S
C2189 C2185 1.495 . S
C2189 H2195 0.959 . S
C2189 H2196 0.961 . S
C2189 H2197 0.960 . S
C2190 C2188 1.381 . S
C2190 C2191 1.394 . S
C2190 H2198 0.930 . S
C2191 C2190 1.394 . S
C2191 C2192 1.383 . S
C2191 H2199 0.929 . S
C2192 C2191 1.383 . S
C2192 C2193 1.377 . S
C2193 H2177 0.930 . S
C2193 C2192 1.377 . S
C2193 C2194 1.379 . S
C2194 H2178 0.931 . S
C2194 C2188 1.383 . S
C2194 C2193 1.379 . S
H2195 C2189 0.959 . S
H2196 C2189 0.961 . S
H2197 C2189 0.960 . S
H2198 C2190 0.930 . S
H2199 C2191 0.929 . S
H2200 C2208 0.929 . S
H2201 C2210 0.930 . S
H2202 C2212 0.930 . S
H2203 C2215 0.929 . S
H2204 C2218 0.930 . S
H2205 C2220 0.960 . S
H2206 C2220 0.960 . S
H2207 C2220 0.960 . S
C2208 H2200 0.929 . S
C2208 C2209 1.377 . S
C2208 C2210 1.384 . S
C2209 C2208 1.377 . S
C2209 C2215 1.390 . S
C2210 H2201 0.930 . S
C2210 C2208 1.384 . S
C2210 C2211 1.372 . S
C2211 C2210 1.372 . S
C2211 C2212 1.400 . S
C2211 C2216 1.490 . S
C2212 H2202 0.930 . S
C2212 C2211 1.400 . S
C2212 C2215 1.386 . S
H2213 C2229 0.930 . S
H2214 C2230 0.931 . S
C2215 H2203 0.929 . S
C2215 C2209 1.390 . S
C2215 C2212 1.386 . S
C2216 C2211 1.490 . S
C2216 C2218 1.395 . S
C2216 C2219 1.403 . S
H2217 C2223 0.930 . S
C2218 H2204 0.930 . S
C2218 C2216 1.395 . S
C2218 C2221 1.403 . S
C2219 C2216 1.403 . S
C2219 C2220 1.524 . S
C2219 C2223 1.400 . S
C2220 H2205 0.960 . S
C2220 H2206 0.960 . S
C2220 H2207 0.960 . S
C2220 C2219 1.524 . S
C2221 C2218 1.403 . S
C2221 C2222 1.392 . S
C2221 C2225 1.495 1_545 S
C2222 C2221 1.392 . S
C2222 C2223 1.385 . S
C2222 C2224 1.478 . S
C2223 H2217 0.930 . S
C2223 C2219 1.400 . S
C2223 C2222 1.385 . S
C2224 C2222 1.478 . S
C2224 C2226 1.381 . S
C2224 C2230 1.383 . S
C2225 C2221 1.495 1_565 S
C2225 H2231 0.959 . S
C2225 H2232 0.961 . S
C2225 H2233 0.960 . S
C2226 C2224 1.381 . S
C2226 C2227 1.394 . S
C2226 H2234 0.930 . S
C2227 C2226 1.394 . S
C2227 C2228 1.383 . S
C2227 H2235 0.929 . S
C2228 C2227 1.383 . S
C2228 C2229 1.377 . S
C2229 H2213 0.930 . S
C2229 C2228 1.377 . S
C2229 C2230 1.379 . S
C2230 H2214 0.931 . S
C2230 C2224 1.383 . S
C2230 C2229 1.379 . S
H2231 C2225 0.959 . S
H2232 C2225 0.961 . S
H2233 C2225 0.960 . S
H2234 C2226 0.930 . S
H2235 C2227 0.929 . S
H2236 C2244 0.929 . S
H2237 C2246 0.930 . S
H2238 C2248 0.930 . S
H2239 C2251 0.929 . S
H2240 C2254 0.930 . S
H2241 C2256 0.960 . S
H2242 C2256 0.960 . S
H2243 C2256 0.960 . S
C2244 H2236 0.929 . S
C2244 C2245 1.377 . S
C2244 C2246 1.384 . S
C2245 C2244 1.377 . S
C2245 C2251 1.390 . S
C2246 H2237 0.930 . S
C2246 C2244 1.384 . S
C2246 C2247 1.372 . S
C2247 C2246 1.372 . S
C2247 C2248 1.400 . S
C2247 C2252 1.490 . S
C2248 H2238 0.930 . S
C2248 C2247 1.400 . S
C2248 C2251 1.386 . S
H2249 C2265 0.930 . S
H2250 C2266 0.931 . S
C2251 H2239 0.929 . S
C2251 C2245 1.390 . S
C2251 C2248 1.386 . S
C2252 C2247 1.490 . S
C2252 C2254 1.395 . S
C2252 C2255 1.403 . S
H2253 C2259 0.930 . S
C2254 H2240 0.930 . S
C2254 C2252 1.395 . S
C2254 C2257 1.403 . S
C2255 C2252 1.403 . S
C2255 C2256 1.524 . S
C2255 C2259 1.400 . S
C2256 H2241 0.960 . S
C2256 H2242 0.960 . S
C2256 H2243 0.960 . S
C2256 C2255 1.524 . S
C2257 C2254 1.403 . S
C2257 C2258 1.392 . S
C2257 C2261 1.495 . S
C2258 C2257 1.392 . S
C2258 C2259 1.385 . S
C2258 C2260 1.478 . S
C2259 H2253 0.930 . S
C2259 C2255 1.400 . S
C2259 C2258 1.385 . S
C2260 C2258 1.478 . S
C2260 C2262 1.381 . S
C2260 C2266 1.383 . S
C2261 C2257 1.495 . S
C2261 H2267 0.959 . S
C2261 H2268 0.961 . S
C2261 H2269 0.960 . S
C2262 C2260 1.381 . S
C2262 C2263 1.394 . S
C2262 H2270 0.930 . S
C2263 C2262 1.394 . S
C2263 C2264 1.383 . S
C2263 H2271 0.929 . S
C2264 C2263 1.383 . S
C2264 C2265 1.377 . S
C2265 H2249 0.930 . S
C2265 C2264 1.377 . S
C2265 C2266 1.379 . S
C2266 H2250 0.931 . S
C2266 C2260 1.383 . S
C2266 C2265 1.379 . S
H2267 C2261 0.959 . S
H2268 C2261 0.961 . S
H2269 C2261 0.960 . S
H2270 C2262 0.930 . S
H2271 C2263 0.929 . S
H2272 C2280 0.929 . S
H2273 C2282 0.930 . S
H2274 C2284 0.930 . S
H2275 C2287 0.929 . S
H2276 C2290 0.930 . S
H2277 C2292 0.960 . S
H2278 C2292 0.960 . S
H2279 C2292 0.960 . S
C2280 H2272 0.929 . S
C2280 C2281 1.377 . S
C2280 C2282 1.384 . S
C2281 C2280 1.377 . S
C2281 C2287 1.390 . S
C2282 H2273 0.930 . S
C2282 C2280 1.384 . S
C2282 C2283 1.372 . S
C2283 C2282 1.372 . S
C2283 C2284 1.400 . S
C2283 C2288 1.490 . S
C2284 H2274 0.930 . S
C2284 C2283 1.400 . S
C2284 C2287 1.386 . S
H2285 C2301 0.930 . S
H2286 C2302 0.931 . S
C2287 H2275 0.929 . S
C2287 C2281 1.390 . S
C2287 C2284 1.386 . S
C2288 C2283 1.490 . S
C2288 C2290 1.395 . S
C2288 C2291 1.403 . S
H2289 C2295 0.930 . S
C2290 H2276 0.930 . S
C2290 C2288 1.395 . S
C2290 C2293 1.403 . S
C2291 C2288 1.403 . S
C2291 C2292 1.524 . S
C2291 C2295 1.400 . S
C2292 H2277 0.960 . S
C2292 H2278 0.960 . S
C2292 H2279 0.960 . S
C2292 C2291 1.524 . S
C2293 C2290 1.403 . S
C2293 C2294 1.392 . S
C2293 C2297 1.495 . S
C2294 C2293 1.392 . S
C2294 C2295 1.385 . S
C2294 C2296 1.478 . S
C2295 H2289 0.930 . S
C2295 C2291 1.400 . S
C2295 C2294 1.385 . S
C2296 C2294 1.478 . S
C2296 C2298 1.381 . S
C2296 C2302 1.383 . S
C2297 C2293 1.495 . S
C2297 H2303 0.959 1_545 S
C2297 H2304 0.961 . S
C2297 H2305 0.960 1_545 S
C2298 C2296 1.381 . S
C2298 C2299 1.394 . S
C2298 H2306 0.930 . S
C2299 C2298 1.394 . S
C2299 C2300 1.383 . S
C2299 H2307 0.929 . S
C2300 C2299 1.383 . S
C2300 C2301 1.377 . S
C2301 H2285 0.930 . S
C2301 C2300 1.377 . S
C2301 C2302 1.379 . S
C2302 H2286 0.931 . S
C2302 C2296 1.383 . S
C2302 C2301 1.379 . S
H2303 C2297 0.959 1_565 S
H2304 C2297 0.961 . S
H2305 C2297 0.960 1_565 S
H2306 C2298 0.930 . S
H2307 C2299 0.929 . S
H2308 C2316 0.929 . S
H2309 C2318 0.930 . S
H2310 C2320 0.930 . S
H2311 C2323 0.929 . S
H2312 C2326 0.930 . S
H2313 C2328 0.960 . S
H2314 C2328 0.960 . S
H2315 C2328 0.960 . S
C2316 H2308 0.929 . S
C2316 C2317 1.377 . S
C2316 C2318 1.384 . S
C2317 C2316 1.377 . S
C2317 C2323 1.390 . S
C2318 H2309 0.930 . S
C2318 C2316 1.384 . S
C2318 C2319 1.372 . S
C2319 C2318 1.372 . S
C2319 C2320 1.400 . S
C2319 C2324 1.490 . S
C2320 H2310 0.930 . S
C2320 C2319 1.400 . S
C2320 C2323 1.386 . S
H2321 C2337 0.930 . S
H2322 C2338 0.931 . S
C2323 H2311 0.929 . S
C2323 C2317 1.390 . S
C2323 C2320 1.386 . S
C2324 C2319 1.490 . S
C2324 C2326 1.395 . S
C2324 C2327 1.403 . S
H2325 C2331 0.930 . S
C2326 H2312 0.930 . S
C2326 C2324 1.395 . S
C2326 C2329 1.403 . S
C2327 C2324 1.403 . S
C2327 C2328 1.524 . S
C2327 C2331 1.400 . S
C2328 H2313 0.960 . S
C2328 H2314 0.960 . S
C2328 H2315 0.960 . S
C2328 C2327 1.524 . S
C2329 C2326 1.403 . S
C2329 C2330 1.392 . S
C2329 C2333 1.495 . S
C2330 C2329 1.392 . S
C2330 C2331 1.385 . S
C2330 C2332 1.478 . S
C2331 H2325 0.930 . S
C2331 C2327 1.400 . S
C2331 C2330 1.385 . S
C2332 C2330 1.478 . S
C2332 C2334 1.381 . S
C2332 C2338 1.383 . S
C2333 C2329 1.495 . S
C2333 H2339 0.959 . S
C2333 H2340 0.961 . S
C2333 H2341 0.960 . S
C2334 C2332 1.381 . S
C2334 C2335 1.394 . S
C2334 H2342 0.930 . S
C2335 C2334 1.394 . S
C2335 C2336 1.383 . S
C2335 H2343 0.929 . S
C2336 C2335 1.383 . S
C2336 C2337 1.377 . S
C2337 H2321 0.930 . S
C2337 C2336 1.377 . S
C2337 C2338 1.379 . S
C2338 H2322 0.931 . S
C2338 C2332 1.383 . S
C2338 C2337 1.379 . S
H2339 C2333 0.959 . S
H2340 C2333 0.961 . S
H2341 C2333 0.960 . S
H2342 C2334 0.930 . S
H2343 C2335 0.929 . S
H2344 C2352 0.916 1_565 S
H2345 C2354 0.930 1_565 S
H2346 C2356 0.930 . S
H2347 C2359 0.929 . S
H2348 C2362 0.930 . S
H2349 C2364 0.960 . S
H2350 C2364 0.960 . S
H2351 C2364 0.960 . S
C2352 H2344 0.916 1_545 S
C2352 C2353 1.377 . S
C2352 C2354 1.384 . S
C2353 C2352 1.377 . S
C2353 C2359 1.390 . S
C2354 H2345 0.930 1_545 S
C2354 C2352 1.384 . S
C2354 C2355 1.372 . S
C2355 C2354 1.372 . S
C2355 C2356 1.400 . S
C2355 C2360 1.490 . S
C2356 H2346 0.930 . S
C2356 C2355 1.400 . S
C2356 C2359 1.386 . S
H2357 C2373 0.930 . S
H2358 C2374 0.931 . S
C2359 H2347 0.929 . S
C2359 C2353 1.390 . S
C2359 C2356 1.386 . S
C2360 C2355 1.490 . S
C2360 C2362 1.395 . S
C2360 C2363 1.403 . S
H2361 C2367 0.930 . S
C2362 H2348 0.930 . S
C2362 C2360 1.395 . S
C2362 C2365 1.403 . S
C2363 C2360 1.403 . S
C2363 C2364 1.524 . S
C2363 C2367 1.400 . S
C2364 H2349 0.960 . S
C2364 H2350 0.960 . S
C2364 H2351 0.960 . S
C2364 C2363 1.524 . S
C2365 C2362 1.403 . S
C2365 C2366 1.392 . S
C2365 C2369 1.495 . S
C2366 C2365 1.392 . S
C2366 C2367 1.385 . S
C2366 C2368 1.478 . S
C2367 H2361 0.930 . S
C2367 C2363 1.400 . S
C2367 C2366 1.385 . S
C2368 C2366 1.478 . S
C2368 C2370 1.381 . S
C2368 C2374 1.383 . S
C2369 C2365 1.495 . S
C2369 H2375 0.959 . S
C2369 H2376 0.961 . S
C2369 H2377 0.960 . S
C2370 C2368 1.381 . S
C2370 C2371 1.394 . S
C2370 H2378 0.930 1_545 S
C2371 C2370 1.394 . S
C2371 C2372 1.383 . S
C2371 H2379 0.929 1_545 S
C2372 C2371 1.383 . S
C2372 C2373 1.377 . S
C2373 H2357 0.930 . S
C2373 C2372 1.377 . S
C2373 C2374 1.379 . S
C2374 H2358 0.931 . S
C2374 C2368 1.383 . S
C2374 C2373 1.379 . S
H2375 C2369 0.959 . S
H2376 C2369 0.961 . S
H2377 C2369 0.960 . S
H2378 C2370 0.930 1_565 S
H2379 C2371 0.929 1_565 S
H2380 C2388 0.929 . S
H2381 C2390 0.930 . S
H2382 C2392 0.930 . S
H2383 C2395 0.929 . S
H2384 C2398 0.930 . S
H2385 C2400 0.960 . S
H2386 C2400 0.960 . S
H2387 C2400 0.960 . S
C2388 H2380 0.929 . S
C2388 C2389 1.377 . S
C2388 C2390 1.384 . S
C2389 C2388 1.377 . S
C2389 C2395 1.390 . S
C2390 H2381 0.930 . S
C2390 C2388 1.384 . S
C2390 C2391 1.372 . S
C2391 C2390 1.372 . S
C2391 C2392 1.400 . S
C2391 C2396 1.490 . S
C2392 H2382 0.930 . S
C2392 C2391 1.400 . S
C2392 C2395 1.386 . S
H2393 C2409 0.930 . S
H2394 C2410 0.931 . S
C2395 H2383 0.929 . S
C2395 C2389 1.390 . S
C2395 C2392 1.386 . S
C2396 C2391 1.490 . S
C2396 C2398 1.395 . S
C2396 C2399 1.403 . S
H2397 C2403 0.930 . S
C2398 H2384 0.930 . S
C2398 C2396 1.395 . S
C2398 C2401 1.403 . S
C2399 C2396 1.403 . S
C2399 C2400 1.524 . S
C2399 C2403 1.400 . S
C2400 H2385 0.960 . S
C2400 H2386 0.960 . S
C2400 H2387 0.960 . S
C2400 C2399 1.524 . S
C2401 C2398 1.403 . S
C2401 C2402 1.392 . S
C2401 C2405 1.495 . S
C2402 C2401 1.392 . S
C2402 C2403 1.385 . S
C2402 C2404 1.478 . S
C2403 H2397 0.930 . S
C2403 C2399 1.400 . S
C2403 C2402 1.385 . S
C2404 C2402 1.478 . S
C2404 C2406 1.381 . S
C2404 C2410 1.383 . S
C2405 C2401 1.495 . S
C2405 H2411 0.959 . S
C2405 H2412 0.961 . S
C2405 H2413 0.960 . S
C2406 C2404 1.381 . S
C2406 C2407 1.394 . S
C2406 H2414 0.930 . S
C2407 C2406 1.394 . S
C2407 C2408 1.383 . S
C2407 H2415 0.929 . S
C2408 C2407 1.383 . S
C2408 C2409 1.377 . S
C2409 H2393 0.930 . S
C2409 C2408 1.377 . S
C2409 C2410 1.379 . S
C2410 H2394 0.931 . S
C2410 C2404 1.383 . S
C2410 C2409 1.379 . S
H2411 C2405 0.959 . S
H2412 C2405 0.961 . S
H2413 C2405 0.960 . S
H2414 C2406 0.930 . S
H2415 C2407 0.929 . S
H2416 C2424 0.929 . S
H2417 C2426 0.930 . S
H2418 C2428 0.930 . S
H2419 C2431 0.929 . S
H2420 C2434 0.930 . S
H2421 C2436 0.960 . S
H2422 C2436 0.960 . S
H2423 C2436 0.960 . S
C2424 H2416 0.929 . S
C2424 C2425 1.377 . S
C2424 C2426 1.384 . S
C2425 C2424 1.377 . S
C2425 C2431 1.390 . S
C2426 H2417 0.930 . S
C2426 C2424 1.384 . S
C2426 C2427 1.372 . S
C2427 C2426 1.372 . S
C2427 C2428 1.400 . S
C2427 C2432 1.490 . S
C2428 H2418 0.930 . S
C2428 C2427 1.400 . S
C2428 C2431 1.386 . S
H2429 C2445 0.930 . S
H2430 C2446 0.932 1_556 S
C2431 H2419 0.929 . S
C2431 C2425 1.390 . S
C2431 C2428 1.386 . S
C2432 C2427 1.490 . S
C2432 C2434 1.395 . S
C2432 C2435 1.403 . S
H2433 C2439 0.930 . S
C2434 H2420 0.930 . S
C2434 C2432 1.395 . S
C2434 C2437 1.403 . S
C2435 C2432 1.403 . S
C2435 C2436 1.524 . S
C2435 C2439 1.400 . S
C2436 H2421 0.960 . S
C2436 H2422 0.960 . S
C2436 H2423 0.960 . S
C2436 C2435 1.524 . S
C2437 C2434 1.403 . S
C2437 C2438 1.392 . S
C2437 C2441 1.495 1_554 S
C2438 C2437 1.392 . S
C2438 C2439 1.385 . S
C2438 C2440 1.478 . S
C2439 H2433 0.930 . S
C2439 C2435 1.400 . S
C2439 C2438 1.385 . S
C2440 C2438 1.478 . S
C2440 C2442 1.381 . S
C2440 C2446 1.383 . S
C2441 C2437 1.495 1_556 S
C2441 H2447 0.959 . S
C2441 H2448 0.961 . S
C2441 H2449 0.960 . S
C2442 C2440 1.381 . S
C2442 C2443 1.394 . S
C2442 H2450 0.930 . S
C2443 C2442 1.394 . S
C2443 C2444 1.389 . S
C2443 H2451 0.929 . S
C2444 C2443 1.389 . S
C2444 C2445 1.374 1_554 S
C2445 H2429 0.930 . S
C2445 C2444 1.374 1_556 S
C2445 C2446 1.379 1_556 S
C2446 H2430 0.932 1_554 S
C2446 C2440 1.383 . S
C2446 C2445 1.379 1_554 S
H2447 C2441 0.959 . S
H2448 C2441 0.961 . S
H2449 C2441 0.960 . S
H2450 C2442 0.930 . S
H2451 C2443 0.929 . S
H2452 C2460 0.967 . S
H2453 C2462 0.927 1_556 S
H2454 C2464 0.930 . S
H2455 C2467 0.929 . S
H2456 C2470 0.930 . S
H2457 C2472 0.960 . S
H2458 C2472 0.960 . S
H2459 C2472 0.960 . S
C2460 H2452 0.967 . S
C2460 C2461 1.377 . S
C2460 C2462 1.384 . S
C2461 C2460 1.377 . S
C2461 C2467 1.390 . S
C2462 H2453 0.927 1_554 S
C2462 C2460 1.384 . S
C2462 C2463 1.372 . S
C2463 C2462 1.372 . S
C2463 C2464 1.400 . S
C2463 C2468 1.490 . S
C2464 H2454 0.930 . S
C2464 C2463 1.400 . S
C2464 C2467 1.386 . S
H2465 C2481 0.930 . S
H2466 C2482 0.931 . S
C2467 H2455 0.929 . S
C2467 C2461 1.390 . S
C2467 C2464 1.386 . S
C2468 C2463 1.490 . S
C2468 C2470 1.395 . S
C2468 C2471 1.403 . S
H2469 C2475 0.930 . S
C2470 H2456 0.930 . S
C2470 C2468 1.395 . S
C2470 C2473 1.403 . S
C2471 C2468 1.403 . S
C2471 C2472 1.524 . S
C2471 C2475 1.400 . S
C2472 H2457 0.960 . S
C2472 H2458 0.960 . S
C2472 H2459 0.960 . S
C2472 C2471 1.524 . S
C2473 C2470 1.403 . S
C2473 C2474 1.392 . S
C2473 C2477 1.495 . S
C2474 C2473 1.392 . S
C2474 C2475 1.385 . S
C2474 C2476 1.478 . S
C2475 H2469 0.930 . S
C2475 C2471 1.400 . S
C2475 C2474 1.385 . S
C2476 C2474 1.478 . S
C2476 C2478 1.381 . S
C2476 C2482 1.383 . S
C2477 C2473 1.495 . S
C2477 H2483 0.959 . S
C2477 H2484 0.961 . S
C2477 H2485 0.960 . S
C2478 C2476 1.381 . S
C2478 C2479 1.394 . S
C2478 H2486 0.930 1_554 S
C2479 C2478 1.394 . S
C2479 C2480 1.383 . S
C2479 H2487 0.929 1_554 S
C2480 C2479 1.383 . S
C2480 C2481 1.377 . S
C2481 H2465 0.930 . S
C2481 C2480 1.377 . S
C2481 C2482 1.379 . S
C2482 H2466 0.931 . S
C2482 C2476 1.383 . S
C2482 C2481 1.379 . S
H2483 C2477 0.959 . S
H2484 C2477 0.961 . S
H2485 C2477 0.960 . S
H2486 C2478 0.930 1_556 S
H2487 C2479 0.929 1_556 S
H2488 C2496 0.929 . S
H2489 C2498 0.930 . S
H2490 C2500 0.930 . S
H2491 C2503 0.929 . S
H2492 C2506 0.930 . S
H2493 C2508 0.960 . S
H2494 C2508 0.960 . S
H2495 C2508 0.960 . S
C2496 H2488 0.929 . S
C2496 C2497 1.377 . S
C2496 C2498 1.384 . S
C2497 C2496 1.377 . S
C2497 C2503 1.390 . S
C2498 H2489 0.930 . S
C2498 C2496 1.384 . S
C2498 C2499 1.372 . S
C2499 C2498 1.372 . S
C2499 C2500 1.400 . S
C2499 C2504 1.490 . S
C2500 H2490 0.930 . S
C2500 C2499 1.400 . S
C2500 C2503 1.386 . S
H2501 C2517 0.930 . S
H2502 C2518 0.931 . S
C2503 H2491 0.929 . S
C2503 C2497 1.390 . S
C2503 C2500 1.386 . S
C2504 C2499 1.490 . S
C2504 C2506 1.395 . S
C2504 C2507 1.403 . S
H2505 C2511 0.930 . S
C2506 H2492 0.930 . S
C2506 C2504 1.395 . S
C2506 C2509 1.403 . S
C2507 C2504 1.403 . S
C2507 C2508 1.524 . S
C2507 C2511 1.400 . S
C2508 H2493 0.960 . S
C2508 H2494 0.960 . S
C2508 H2495 0.960 . S
C2508 C2507 1.524 . S
C2509 C2506 1.403 . S
C2509 C2510 1.392 . S
C2509 C2513 1.495 . S
C2510 C2509 1.392 . S
C2510 C2511 1.385 . S
C2510 C2512 1.478 . S
C2511 H2505 0.930 . S
C2511 C2507 1.400 . S
C2511 C2510 1.385 . S
C2512 C2510 1.478 . S
C2512 C2514 1.381 . S
C2512 C2518 1.383 . S
C2513 C2509 1.495 . S
C2513 H2519 0.959 . S
C2513 H2520 0.961 . S
C2513 H2521 0.960 . S
C2514 C2512 1.381 . S
C2514 C2515 1.394 . S
C2514 H2522 0.930 . S
C2515 C2514 1.394 . S
C2515 C2516 1.383 . S
C2515 H2523 0.929 . S
C2516 C2515 1.383 . S
C2516 C2517 1.377 . S
C2517 H2501 0.930 . S
C2517 C2516 1.377 . S
C2517 C2518 1.379 . S
C2518 H2502 0.931 . S
C2518 C2512 1.383 . S
C2518 C2517 1.379 . S
H2519 C2513 0.959 . S
H2520 C2513 0.961 . S
H2521 C2513 0.960 . S
H2522 C2514 0.930 . S
H2523 C2515 0.929 . S
H2524 C2532 0.929 . S
H2525 C2534 0.930 . S
H2526 C2536 0.930 . S
H2527 C2539 0.929 . S
H2528 C2542 0.930 . S
H2529 C2544 0.960 . S
H2530 C2544 0.960 . S
H2531 C2544 0.960 . S
C2532 H2524 0.929 . S
C2532 C2533 1.377 . S
C2532 C2534 1.384 . S
C2533 C2532 1.377 . S
C2533 C2539 1.390 . S
C2534 H2525 0.930 . S
C2534 C2532 1.384 . S
C2534 C2535 1.372 . S
C2535 C2534 1.372 . S
C2535 C2536 1.400 . S
C2535 C2540 1.490 . S
C2536 H2526 0.930 . S
C2536 C2535 1.400 . S
C2536 C2539 1.386 . S
H2537 C2553 0.930 . S
H2538 C2554 0.931 . S
C2539 H2527 0.929 . S
C2539 C2533 1.390 . S
C2539 C2536 1.386 . S
C2540 C2535 1.490 . S
C2540 C2542 1.395 . S
C2540 C2543 1.403 . S
H2541 C2547 0.930 . S
C2542 H2528 0.930 . S
C2542 C2540 1.395 . S
C2542 C2545 1.403 . S
C2543 C2540 1.403 . S
C2543 C2544 1.524 . S
C2543 C2547 1.400 . S
C2544 H2529 0.960 . S
C2544 H2530 0.960 . S
C2544 H2531 0.960 . S
C2544 C2543 1.524 . S
C2545 C2542 1.403 . S
C2545 C2546 1.392 . S
C2545 C2549 1.495 . S
C2546 C2545 1.392 . S
C2546 C2547 1.385 . S
C2546 C2548 1.478 . S
C2547 H2541 0.930 . S
C2547 C2543 1.400 . S
C2547 C2546 1.385 . S
C2548 C2546 1.478 . S
C2548 C2550 1.381 . S
C2548 C2554 1.383 . S
C2549 C2545 1.495 . S
C2549 H2555 0.959 . S
C2549 H2556 0.961 . S
C2549 H2557 0.960 . S
C2550 C2548 1.381 . S
C2550 C2551 1.394 . S
C2550 H2558 0.930 . S
C2551 C2550 1.394 . S
C2551 C2552 1.383 . S
C2551 H2559 0.929 . S
C2552 C2551 1.383 . S
C2552 C2553 1.377 . S
C2553 H2537 0.930 . S
C2553 C2552 1.377 . S
C2553 C2554 1.379 . S
C2554 H2538 0.931 . S
C2554 C2548 1.383 . S
C2554 C2553 1.379 . S
H2555 C2549 0.959 . S
H2556 C2549 0.961 . S
H2557 C2549 0.960 . S
H2558 C2550 0.930 . S
H2559 C2551 0.929 . S
H2560 C2568 0.929 . S
H2561 C2570 0.930 . S
H2562 C2572 0.930 . S
H2563 C2575 0.929 . S
H2564 C2578 0.930 . S
H2565 C2580 0.960 . S
H2566 C2580 0.960 . S
H2567 C2580 0.960 . S
C2568 H2560 0.929 . S
C2568 C2569 1.377 . S
C2568 C2570 1.384 . S
C2569 C2568 1.377 . S
C2569 C2575 1.390 . S
C2570 H2561 0.930 . S
C2570 C2568 1.384 . S
C2570 C2571 1.372 . S
C2571 C2570 1.372 . S
C2571 C2572 1.400 . S
C2571 C2576 1.490 . S
C2572 H2562 0.930 . S
C2572 C2571 1.400 . S
C2572 C2575 1.386 . S
H2573 C2589 0.930 . S
H2574 C2590 0.931 . S
C2575 H2563 0.929 . S
C2575 C2569 1.390 . S
C2575 C2572 1.386 . S
C2576 C2571 1.490 . S
C2576 C2578 1.395 . S
C2576 C2579 1.403 . S
H2577 C2583 0.930 . S
C2578 H2564 0.930 . S
C2578 C2576 1.395 . S
C2578 C2581 1.403 . S
C2579 C2576 1.403 . S
C2579 C2580 1.524 . S
C2579 C2583 1.400 . S
C2580 H2565 0.960 . S
C2580 H2566 0.960 . S
C2580 H2567 0.960 . S
C2580 C2579 1.524 . S
C2581 C2578 1.403 . S
C2581 C2582 1.392 . S
C2581 C2585 1.495 . S
C2582 C2581 1.392 . S
C2582 C2583 1.385 . S
C2582 C2584 1.478 . S
C2583 H2577 0.930 . S
C2583 C2579 1.400 . S
C2583 C2582 1.385 . S
C2584 C2582 1.478 . S
C2584 C2586 1.381 . S
C2584 C2590 1.383 . S
C2585 C2581 1.495 . S
C2585 H2591 0.959 . S
C2585 H2592 0.961 . S
C2585 H2593 0.960 . S
C2586 C2584 1.381 . S
C2586 C2587 1.394 . S
C2586 H2594 0.930 . S
C2587 C2586 1.394 . S
C2587 C2588 1.383 . S
C2587 H2595 0.929 . S
C2588 C2587 1.383 . S
C2588 C2589 1.377 . S
C2589 H2573 0.930 . S
C2589 C2588 1.377 . S
C2589 C2590 1.379 . S
C2590 H2574 0.931 . S
C2590 C2584 1.383 . S
C2590 C2589 1.379 . S
H2591 C2585 0.959 . S
H2592 C2585 0.961 . S
H2593 C2585 0.960 . S
H2594 C2586 0.930 . S
H2595 C2587 0.929 . S
H2596 C2604 0.929 . S
H2597 C2606 0.930 . S
H2598 C2608 0.930 . S
H2599 C2611 0.929 . S
H2600 C2614 0.930 . S
H2601 C2616 0.960 . S
H2602 C2616 0.960 . S
H2603 C2616 0.960 . S
C2604 H2596 0.929 . S
C2604 C2605 1.377 . S
C2604 C2606 1.384 . S
C2605 C2604 1.377 . S
C2605 C2611 1.390 . S
C2606 H2597 0.930 . S
C2606 C2604 1.384 . S
C2606 C2607 1.372 . S
C2607 C2606 1.372 . S
C2607 C2608 1.400 . S
C2607 C2612 1.490 . S
C2608 H2598 0.930 . S
C2608 C2607 1.400 . S
C2608 C2611 1.386 . S
H2609 C2625 0.930 . S
H2610 C2626 0.931 . S
C2611 H2599 0.929 . S
C2611 C2605 1.390 . S
C2611 C2608 1.386 . S
C2612 C2607 1.490 . S
C2612 C2614 1.395 . S
C2612 C2615 1.403 . S
H2613 C2619 0.930 . S
C2614 H2600 0.930 . S
C2614 C2612 1.395 . S
C2614 C2617 1.403 . S
C2615 C2612 1.403 . S
C2615 C2616 1.524 . S
C2615 C2619 1.400 . S
C2616 H2601 0.960 . S
C2616 H2602 0.960 . S
C2616 H2603 0.960 . S
C2616 C2615 1.524 . S
C2617 C2614 1.403 . S
C2617 C2618 1.392 . S
C2617 C2621 1.495 . S
C2618 C2617 1.392 . S
C2618 C2619 1.385 . S
C2618 C2620 1.478 . S
C2619 H2613 0.930 . S
C2619 C2615 1.400 . S
C2619 C2618 1.385 . S
C2620 C2618 1.478 . S
C2620 C2622 1.381 . S
C2620 C2626 1.383 . S
C2621 C2617 1.495 . S
C2621 H2627 0.959 . S
C2621 H2628 0.961 . S
C2621 H2629 0.960 . S
C2622 C2620 1.381 . S
C2622 C2623 1.394 . S
C2622 H2630 0.930 . S
C2623 C2622 1.394 . S
C2623 C2624 1.383 . S
C2623 H2631 0.929 . S
C2624 C2623 1.383 . S
C2624 C2625 1.377 . S
C2625 H2609 0.930 . S
C2625 C2624 1.377 . S
C2625 C2626 1.379 . S
C2626 H2610 0.931 . S
C2626 C2620 1.383 . S
C2626 C2625 1.379 . S
H2627 C2621 0.959 . S
H2628 C2621 0.961 . S
H2629 C2621 0.960 . S
H2630 C2622 0.930 . S
H2631 C2623 0.929 . S
H2632 C2640 0.929 . S
H2633 C2642 0.930 . S
H2634 C2644 0.930 . S
H2635 C2647 0.929 . S
H2636 C2650 0.930 . S
H2637 C2652 0.960 . S
H2638 C2652 0.960 . S
H2639 C2652 0.960 . S
C2640 H2632 0.929 . S
C2640 C2641 1.377 . S
C2640 C2642 1.384 . S
C2641 C2640 1.377 . S
C2641 C2647 1.390 . S
C2642 H2633 0.930 . S
C2642 C2640 1.384 . S
C2642 C2643 1.372 . S
C2643 C2642 1.372 . S
C2643 C2644 1.400 . S
C2643 C2648 1.490 . S
C2644 H2634 0.930 . S
C2644 C2643 1.400 . S
C2644 C2647 1.386 . S
H2645 C2661 0.930 . S
H2646 C2662 0.931 . S
C2647 H2635 0.929 . S
C2647 C2641 1.390 . S
C2647 C2644 1.386 . S
C2648 C2643 1.490 . S
C2648 C2650 1.395 . S
C2648 C2651 1.403 . S
H2649 C2655 0.930 . S
C2650 H2636 0.930 . S
C2650 C2648 1.395 . S
C2650 C2653 1.403 . S
C2651 C2648 1.403 . S
C2651 C2652 1.524 . S
C2651 C2655 1.400 . S
C2652 H2637 0.960 . S
C2652 H2638 0.960 . S
C2652 H2639 0.960 . S
C2652 C2651 1.524 . S
C2653 C2650 1.403 . S
C2653 C2654 1.392 . S
C2653 C2657 1.495 . S
C2654 C2653 1.392 . S
C2654 C2655 1.385 . S
C2654 C2656 1.478 . S
C2655 H2649 0.930 . S
C2655 C2651 1.400 . S
C2655 C2654 1.385 . S
C2656 C2654 1.478 . S
C2656 C2658 1.381 . S
C2656 C2662 1.383 . S
C2657 C2653 1.495 . S
C2657 H2663 0.959 . S
C2657 H2664 0.961 . S
C2657 H2665 0.960 . S
C2658 C2656 1.381 . S
C2658 C2659 1.394 . S
C2658 H2666 0.930 . S
C2659 C2658 1.394 . S
C2659 C2660 1.383 . S
C2659 H2667 0.929 . S
C2660 C2659 1.383 . S
C2660 C2661 1.377 . S
C2661 H2645 0.930 . S
C2661 C2660 1.377 . S
C2661 C2662 1.379 . S
C2662 H2646 0.931 . S
C2662 C2656 1.383 . S
C2662 C2661 1.379 . S
H2663 C2657 0.959 . S
H2664 C2657 0.961 . S
H2665 C2657 0.960 . S
H2666 C2658 0.930 . S
H2667 C2659 0.929 . S
H2668 C2676 0.929 . S
H2669 C2678 0.930 . S
H2670 C2680 0.930 . S
H2671 C2683 0.929 . S
H2672 C2686 0.930 . S
H2673 C2688 0.960 . S
H2674 C2688 0.960 . S
H2675 C2688 0.960 . S
C2676 H2668 0.929 . S
C2676 C2677 1.377 . S
C2676 C2678 1.384 . S
C2677 C2676 1.377 . S
C2677 C2683 1.390 . S
C2678 H2669 0.930 . S
C2678 C2676 1.384 . S
C2678 C2679 1.372 . S
C2679 C2678 1.372 . S
C2679 C2680 1.400 . S
C2679 C2684 1.490 . S
C2680 H2670 0.930 . S
C2680 C2679 1.400 . S
C2680 C2683 1.386 . S
H2681 C2697 0.930 . S
H2682 C2698 0.931 . S
C2683 H2671 0.929 . S
C2683 C2677 1.390 . S
C2683 C2680 1.386 . S
C2684 C2679 1.490 . S
C2684 C2686 1.395 . S
C2684 C2687 1.403 . S
H2685 C2691 0.930 . S
C2686 H2672 0.930 . S
C2686 C2684 1.395 . S
C2686 C2689 1.403 . S
C2687 C2684 1.403 . S
C2687 C2688 1.524 . S
C2687 C2691 1.400 . S
C2688 H2673 0.960 . S
C2688 H2674 0.960 . S
C2688 H2675 0.960 . S
C2688 C2687 1.524 . S
C2689 C2686 1.403 . S
C2689 C2690 1.392 . S
C2689 C2693 1.495 . S
C2690 C2689 1.392 . S
C2690 C2691 1.385 . S
C2690 C2692 1.478 . S
C2691 H2685 0.930 . S
C2691 C2687 1.400 . S
C2691 C2690 1.385 . S
C2692 C2690 1.478 . S
C2692 C2694 1.381 . S
C2692 C2698 1.383 . S
C2693 C2689 1.495 . S
C2693 H2699 0.959 . S
C2693 H2700 0.961 . S
C2693 H2701 0.960 . S
C2694 C2692 1.381 . S
C2694 C2695 1.394 . S
C2694 H2702 0.930 . S
C2695 C2694 1.394 . S
C2695 C2696 1.383 . S
C2695 H2703 0.929 . S
C2696 C2695 1.383 . S
C2696 C2697 1.377 . S
C2697 H2681 0.930 . S
C2697 C2696 1.377 . S
C2697 C2698 1.379 . S
C2698 H2682 0.931 . S
C2698 C2692 1.383 . S
C2698 C2697 1.379 . S
H2699 C2693 0.959 . S
H2700 C2693 0.961 . S
H2701 C2693 0.960 . S
H2702 C2694 0.930 . S
H2703 C2695 0.929 . S
H2704 C2712 0.929 . S
H2705 C2714 0.930 . S
H2706 C2716 0.930 . S
H2707 C2719 0.929 . S
H2708 C2722 0.930 . S
H2709 C2724 0.960 . S
H2710 C2724 0.960 . S
H2711 C2724 0.960 . S
C2712 H2704 0.929 . S
C2712 C2713 1.377 . S
C2712 C2714 1.384 . S
C2713 C2712 1.377 . S
C2713 C2719 1.390 . S
C2714 H2705 0.930 . S
C2714 C2712 1.384 . S
C2714 C2715 1.372 . S
C2715 C2714 1.372 . S
C2715 C2716 1.400 . S
C2715 C2720 1.490 . S
C2716 H2706 0.930 . S
C2716 C2715 1.400 . S
C2716 C2719 1.386 . S
H2717 C2733 0.930 . S
H2718 C2734 0.931 . S
C2719 H2707 0.929 . S
C2719 C2713 1.390 . S
C2719 C2716 1.386 . S
C2720 C2715 1.490 . S
C2720 C2722 1.395 . S
C2720 C2723 1.403 . S
H2721 C2727 0.930 . S
C2722 H2708 0.930 . S
C2722 C2720 1.395 . S
C2722 C2725 1.403 . S
C2723 C2720 1.403 . S
C2723 C2724 1.524 . S
C2723 C2727 1.400 . S
C2724 H2709 0.960 . S
C2724 H2710 0.960 . S
C2724 H2711 0.960 . S
C2724 C2723 1.524 . S
C2725 C2722 1.403 . S
C2725 C2726 1.392 . S
C2725 C2729 1.495 . S
C2726 C2725 1.392 . S
C2726 C2727 1.385 . S
C2726 C2728 1.478 . S
C2727 H2721 0.930 . S
C2727 C2723 1.400 . S
C2727 C2726 1.385 . S
C2728 C2726 1.478 . S
C2728 C2730 1.381 . S
C2728 C2734 1.383 . S
C2729 C2725 1.495 . S
C2729 H2735 0.959 . S
C2729 H2736 0.961 . S
C2729 H2737 0.960 . S
C2730 C2728 1.381 . S
C2730 C2731 1.394 . S
C2730 H2738 0.930 . S
C2731 C2730 1.394 . S
C2731 C2732 1.383 . S
C2731 H2739 0.929 . S
C2732 C2731 1.383 . S
C2732 C2733 1.377 . S
C2733 H2717 0.930 . S
C2733 C2732 1.377 . S
C2733 C2734 1.379 . S
C2734 H2718 0.931 . S
C2734 C2728 1.383 . S
C2734 C2733 1.379 . S
H2735 C2729 0.959 . S
H2736 C2729 0.961 . S
H2737 C2729 0.960 . S
H2738 C2730 0.930 . S
H2739 C2731 0.929 . S
H2740 C2748 0.929 . S
H2741 C2750 0.930 . S
H2742 C2752 0.930 . S
H2743 C2755 0.929 . S
H2744 C2758 0.930 . S
H2745 C2760 0.960 . S
H2746 C2760 0.960 . S
H2747 C2760 0.960 . S
C2748 H2740 0.929 . S
C2748 C2749 1.377 . S
C2748 C2750 1.384 . S
C2749 C2748 1.377 . S
C2749 C2755 1.390 . S
C2750 H2741 0.930 . S
C2750 C2748 1.384 . S
C2750 C2751 1.372 . S
C2751 C2750 1.372 . S
C2751 C2752 1.400 . S
C2751 C2756 1.490 . S
C2752 H2742 0.930 . S
C2752 C2751 1.400 . S
C2752 C2755 1.386 . S
H2753 C2769 0.930 . S
H2754 C2770 0.931 . S
C2755 H2743 0.929 . S
C2755 C2749 1.390 . S
C2755 C2752 1.386 . S
C2756 C2751 1.490 . S
C2756 C2758 1.395 . S
C2756 C2759 1.403 . S
H2757 C2763 0.930 . S
C2758 H2744 0.930 . S
C2758 C2756 1.395 . S
C2758 C2761 1.403 . S
C2759 C2756 1.403 . S
C2759 C2760 1.524 . S
C2759 C2763 1.400 . S
C2760 H2745 0.960 . S
C2760 H2746 0.960 . S
C2760 H2747 0.960 . S
C2760 C2759 1.524 . S
C2761 C2758 1.403 . S
C2761 C2762 1.392 . S
C2761 C2765 1.495 . S
C2762 C2761 1.392 . S
C2762 C2763 1.385 . S
C2762 C2764 1.478 . S
C2763 H2757 0.930 . S
C2763 C2759 1.400 . S
C2763 C2762 1.385 . S
C2764 C2762 1.478 . S
C2764 C2766 1.381 . S
C2764 C2770 1.383 . S
C2765 C2761 1.495 . S
C2765 H2771 0.959 . S
C2765 H2772 0.961 . S
C2765 H2773 0.960 . S
C2766 C2764 1.381 . S
C2766 C2767 1.394 . S
C2766 H2774 0.930 . S
C2767 C2766 1.394 . S
C2767 C2768 1.383 . S
C2767 H2775 0.929 . S
C2768 C2767 1.383 . S
C2768 C2769 1.377 . S
C2769 H2753 0.930 . S
C2769 C2768 1.377 . S
C2769 C2770 1.379 . S
C2770 H2754 0.931 . S
C2770 C2764 1.383 . S
C2770 C2769 1.379 . S
H2771 C2765 0.959 . S
H2772 C2765 0.961 . S
H2773 C2765 0.960 . S
H2774 C2766 0.930 . S
H2775 C2767 0.929 . S
H2776 C2784 0.929 . S
H2777 C2786 0.930 . S
H2778 C2788 0.930 . S
H2779 C2791 0.929 . S
H2780 C2794 0.930 . S
H2781 C2796 0.960 . S
H2782 C2796 0.947 1_556 S
H2783 C2796 0.960 . S
C2784 H2776 0.929 . S
C2784 C2785 1.377 . S
C2784 C2786 1.384 . S
C2785 C2784 1.377 . S
C2785 C2791 1.390 1_455 S
C2786 H2777 0.930 . S
C2786 C2784 1.384 . S
C2786 C2787 1.372 . S
C2787 C2786 1.372 . S
C2787 C2788 1.400 1_455 S
C2787 C2792 1.490 . S
C2788 H2778 0.930 . S
C2788 C2787 1.400 1_655 S
C2788 C2791 1.386 . S
H2789 C2805 0.969 . S
H2790 C2806 0.931 1_655 S
C2791 H2779 0.929 . S
C2791 C2785 1.390 1_655 S
C2791 C2788 1.386 . S
C2792 C2787 1.490 . S
C2792 C2794 1.395 . S
C2792 C2795 1.403 . S
H2793 C2799 0.930 1_554 S
C2794 H2780 0.930 . S
C2794 C2792 1.395 . S
C2794 C2797 1.403 . S
C2795 C2792 1.403 . S
C2795 C2796 1.524 1_556 S
C2795 C2799 1.400 . S
C2796 H2781 0.960 . S
C2796 H2782 0.947 1_554 S
C2796 H2783 0.960 . S
C2796 C2795 1.524 1_554 S
C2797 C2794 1.403 . S
C2797 C2798 1.392 . S
C2797 C2801 1.495 . S
C2798 C2797 1.392 . S
C2798 C2799 1.385 . S
C2798 C2800 1.478 . S
C2799 H2793 0.930 1_556 S
C2799 C2795 1.400 . S
C2799 C2798 1.385 . S
C2800 C2798 1.478 . S
C2800 C2802 1.381 . S
C2800 C2806 1.383 1_556 S
C2801 C2797 1.495 . S
C2801 H2807 0.959 . S
C2801 H2808 0.961 . S
C2801 H2809 0.960 . S
C2802 C2800 1.381 . S
C2802 C2803 1.394 1_556 S
C2802 H2810 0.930 . S
C2803 C2802 1.394 1_554 S
C2803 C2804 1.383 . S
C2803 H2811 0.930 1_554 S
C2804 C2803 1.383 . S
C2804 C2805 1.377 . S
C2805 H2789 0.969 . S
C2805 C2804 1.377 . S
C2805 C2806 1.379 . S
C2806 H2790 0.931 1_455 S
C2806 C2800 1.383 1_554 S
C2806 C2805 1.379 . S
H2807 C2801 0.959 . S
H2808 C2801 0.961 . S
H2809 C2801 0.960 . S
H2810 C2802 0.930 . S
H2811 C2803 0.930 1_556 S
H2812 C2820 0.929 . S
H2813 C2822 0.930 . S
H2814 C2824 0.932 . S
H2815 C2827 0.929 . S
H2816 C2830 0.930 . S
H2817 C2832 0.960 . S
H2818 C2832 0.960 . S
H2819 C2832 0.960 . S
C2820 H2812 0.929 . S
C2820 C2821 1.377 . S
C2820 C2822 1.384 1_455 S
C2821 C2820 1.377 . S
C2821 C2827 1.390 . S
C2822 H2813 0.930 . S
C2822 C2820 1.384 1_655 S
C2822 C2823 1.372 . S
C2823 C2822 1.372 . S
C2823 C2824 1.425 . S
C2823 C2828 1.490 . S
C2824 H2814 0.932 . S
C2824 C2823 1.425 . S
C2824 C2827 1.359 1_655 S
H2825 C2841 0.930 . S
H2826 C2842 0.931 . S
C2827 H2815 0.929 . S
C2827 C2821 1.390 . S
C2827 C2824 1.359 1_455 S
C2828 C2823 1.490 . S
C2828 C2830 1.395 . S
C2828 C2831 1.403 . S
H2829 C2835 0.930 . S
C2830 H2816 0.930 . S
C2830 C2828 1.395 . S
C2830 C2833 1.403 . S
C2831 C2828 1.403 . S
C2831 C2832 1.524 . S
C2831 C2835 1.400 . S
C2832 H2817 0.960 . S
C2832 H2818 0.960 . S
C2832 H2819 0.960 . S
C2832 C2831 1.524 . S
C2833 C2830 1.403 . S
C2833 C2834 1.392 . S
C2833 C2837 1.495 . S
C2834 C2833 1.392 . S
C2834 C2835 1.385 . S
C2834 C2836 1.478 . S
C2835 H2829 0.930 . S
C2835 C2831 1.400 . S
C2835 C2834 1.385 . S
C2836 C2834 1.478 . S
C2836 C2838 1.381 . S
C2836 C2842 1.383 . S
C2837 C2833 1.495 . S
C2837 H2843 0.959 . S
C2837 H2844 0.961 . S
C2837 H2845 0.960 . S
C2838 C2836 1.381 . S
C2838 C2839 1.394 . S
C2838 H2846 0.930 . S
C2839 C2838 1.394 . S
C2839 C2840 1.383 . S
C2839 H2847 0.929 . S
C2840 C2839 1.383 . S
C2840 C2841 1.377 . S
C2841 H2825 0.930 . S
C2841 C2840 1.377 . S
C2841 C2842 1.379 . S
C2842 H2826 0.931 . S
C2842 C2836 1.383 . S
C2842 C2841 1.379 . S
H2843 C2837 0.959 . S
H2844 C2837 0.961 . S
H2845 C2837 0.960 . S
H2846 C2838 0.930 . S
H2847 C2839 0.929 . S
H2848 C2856 0.929 . S
H2849 C2858 0.930 . S
H2850 C2860 0.930 . S
H2851 C2863 0.929 . S
H2852 C2866 0.930 . S
H2853 C2868 0.960 . S
H2854 C2868 0.960 . S
H2855 C2868 0.960 . S
C2856 H2848 0.929 . S
C2856 C2857 1.377 . S
C2856 C2858 1.384 . S
C2857 C2856 1.377 . S
C2857 C2863 1.390 . S
C2858 H2849 0.930 . S
C2858 C2856 1.384 . S
C2858 C2859 1.372 . S
C2859 C2858 1.372 . S
C2859 C2860 1.400 . S
C2859 C2864 1.490 . S
C2860 H2850 0.930 . S
C2860 C2859 1.400 . S
C2860 C2863 1.386 . S
H2861 C2877 0.930 . S
H2862 C2878 0.931 . S
C2863 H2851 0.929 . S
C2863 C2857 1.390 . S
C2863 C2860 1.386 . S
C2864 C2859 1.490 . S
C2864 C2866 1.395 . S
C2864 C2867 1.403 . S
H2865 C2871 0.930 . S
C2866 H2852 0.930 . S
C2866 C2864 1.395 . S
C2866 C2869 1.403 . S
C2867 C2864 1.403 . S
C2867 C2868 1.524 . S
C2867 C2871 1.400 . S
C2868 H2853 0.960 . S
C2868 H2854 0.960 . S
C2868 H2855 0.960 . S
C2868 C2867 1.524 . S
C2869 C2866 1.403 . S
C2869 C2870 1.392 . S
C2869 C2873 1.495 . S
C2870 C2869 1.392 . S
C2870 C2871 1.385 . S
C2870 C2872 1.478 . S
C2871 H2865 0.930 . S
C2871 C2867 1.400 . S
C2871 C2870 1.385 . S
C2872 C2870 1.478 . S
C2872 C2874 1.381 . S
C2872 C2878 1.383 . S
C2873 C2869 1.495 . S
C2873 H2879 0.959 . S
C2873 H2880 0.961 . S
C2873 H2881 0.960 . S
C2874 C2872 1.381 . S
C2874 C2875 1.394 . S
C2874 H2882 0.930 . S
C2875 C2874 1.394 . S
C2875 C2876 1.383 . S
C2875 H2883 0.929 . S
C2876 C2875 1.383 . S
C2876 C2877 1.377 . S
C2877 H2861 0.930 . S
C2877 C2876 1.377 . S
C2877 C2878 1.379 . S
C2878 H2862 0.931 . S
C2878 C2872 1.383 . S
C2878 C2877 1.379 . S
H2879 C2873 0.959 . S
H2880 C2873 0.961 . S
H2881 C2873 0.960 . S
H2882 C2874 0.930 . S
H2883 C2875 0.929 . S
H2884 C2892 0.929 . S
H2885 C2894 0.930 . S
H2886 C2896 0.930 . S
H2887 C2899 0.929 . S
H2888 C2902 0.930 . S
H2889 C2904 0.960 . S
H2890 C2904 0.960 . S
H2891 C2904 0.960 . S
C2892 H2884 0.929 . S
C2892 C2893 1.377 . S
C2892 C2894 1.384 . S
C2893 C2892 1.377 . S
C2893 C2899 1.390 . S
C2894 H2885 0.930 . S
C2894 C2892 1.384 . S
C2894 C2895 1.372 . S
C2895 C2894 1.372 . S
C2895 C2896 1.400 . S
C2895 C2900 1.490 . S
C2896 H2886 0.930 . S
C2896 C2895 1.400 . S
C2896 C2899 1.386 . S
H2897 C2913 0.930 . S
H2898 C2914 0.931 . S
C2899 H2887 0.929 . S
C2899 C2893 1.390 . S
C2899 C2896 1.386 . S
C2900 C2895 1.490 . S
C2900 C2902 1.395 . S
C2900 C2903 1.403 . S
H2901 C2907 0.930 . S
C2902 H2888 0.930 . S
C2902 C2900 1.395 . S
C2902 C2905 1.403 . S
C2903 C2900 1.403 . S
C2903 C2904 1.524 . S
C2903 C2907 1.400 . S
C2904 H2889 0.960 . S
C2904 H2890 0.960 . S
C2904 H2891 0.960 . S
C2904 C2903 1.524 . S
C2905 C2902 1.403 . S
C2905 C2906 1.392 . S
C2905 C2909 1.495 . S
C2906 C2905 1.392 . S
C2906 C2907 1.385 . S
C2906 C2908 1.478 . S
C2907 H2901 0.930 . S
C2907 C2903 1.400 . S
C2907 C2906 1.385 . S
C2908 C2906 1.478 . S
C2908 C2910 1.381 . S
C2908 C2914 1.383 . S
C2909 C2905 1.495 . S
C2909 H2915 0.959 . S
C2909 H2916 0.961 . S
C2909 H2917 0.960 . S
C2910 C2908 1.381 . S
C2910 C2911 1.394 . S
C2910 H2918 0.930 . S
C2911 C2910 1.394 . S
C2911 C2912 1.383 . S
C2911 H2919 0.929 . S
C2912 C2911 1.383 . S
C2912 C2913 1.377 . S
C2913 H2897 0.930 . S
C2913 C2912 1.377 . S
C2913 C2914 1.379 . S
C2914 H2898 0.931 . S
C2914 C2908 1.383 . S
C2914 C2913 1.379 . S
H2915 C2909 0.959 . S
H2916 C2909 0.961 . S
H2917 C2909 0.960 . S
H2918 C2910 0.930 . S
H2919 C2911 0.929 . S
H2920 C2928 0.929 . S
H2921 C2930 0.930 . S
H2922 C2932 0.930 . S
H2923 C2935 0.929 . S
H2924 C2938 0.930 . S
H2925 C2940 0.960 . S
H2926 C2940 0.960 . S
H2927 C2940 0.960 . S
C2928 H2920 0.929 . S
C2928 C2929 1.377 . S
C2928 C2930 1.384 . S
C2929 C2928 1.377 . S
C2929 C2935 1.390 . S
C2930 H2921 0.930 . S
C2930 C2928 1.384 . S
C2930 C2931 1.372 . S
C2931 C2930 1.372 . S
C2931 C2932 1.400 . S
C2931 C2936 1.490 . S
C2932 H2922 0.930 . S
C2932 C2931 1.400 . S
C2932 C2935 1.386 . S
H2933 C2949 0.930 . S
H2934 C2950 0.931 . S
C2935 H2923 0.929 . S
C2935 C2929 1.390 . S
C2935 C2932 1.386 . S
C2936 C2931 1.490 . S
C2936 C2938 1.395 . S
C2936 C2939 1.403 . S
H2937 C2943 0.930 . S
C2938 H2924 0.930 . S
C2938 C2936 1.395 . S
C2938 C2941 1.403 . S
C2939 C2936 1.403 . S
C2939 C2940 1.524 . S
C2939 C2943 1.400 . S
C2940 H2925 0.960 . S
C2940 H2926 0.960 . S
C2940 H2927 0.960 . S
C2940 C2939 1.524 . S
C2941 C2938 1.403 . S
C2941 C2942 1.392 . S
C2941 C2945 1.495 . S
C2942 C2941 1.392 . S
C2942 C2943 1.385 . S
C2942 C2944 1.478 . S
C2943 H2937 0.930 . S
C2943 C2939 1.400 . S
C2943 C2942 1.385 . S
C2944 C2942 1.478 . S
C2944 C2946 1.381 . S
C2944 C2950 1.383 . S
C2945 C2941 1.495 . S
C2945 H2951 0.959 . S
C2945 H2952 0.961 1_455 S
C2945 H2953 0.960 . S
C2946 C2944 1.381 . S
C2946 C2947 1.394 . S
C2946 H2954 0.930 . S
C2947 C2946 1.394 . S
C2947 C2948 1.383 . S
C2947 H2955 0.929 . S
C2948 C2947 1.383 . S
C2948 C2949 1.377 . S
C2949 H2933 0.930 . S
C2949 C2948 1.377 . S
C2949 C2950 1.379 . S
C2950 H2934 0.931 . S
C2950 C2944 1.383 . S
C2950 C2949 1.379 . S
H2951 C2945 0.959 . S
H2952 C2945 0.961 1_655 S
H2953 C2945 0.960 . S
H2954 C2946 0.930 . S
H2955 C2947 0.929 . S
H2956 C2964 0.929 . S
H2957 C2966 0.930 . S
H2958 C2968 0.930 . S
H2959 C2971 0.929 . S
H2960 C2974 0.930 . S
H2961 C2976 0.960 . S
H2962 C2976 0.960 . S
H2963 C2976 0.960 . S
C2964 H2956 0.929 . S
C2964 C2965 1.377 . S
C2964 C2966 1.384 . S
C2965 C2964 1.377 . S
C2965 C2971 1.390 . S
C2966 H2957 0.930 . S
C2966 C2964 1.384 . S
C2966 C2967 1.372 . S
C2967 C2966 1.372 . S
C2967 C2968 1.400 . S
C2967 C2972 1.490 . S
C2968 H2958 0.930 . S
C2968 C2967 1.400 . S
C2968 C2971 1.386 . S
H2969 C2985 0.930 . S
H2970 C2986 0.931 . S
C2971 H2959 0.929 . S
C2971 C2965 1.390 . S
C2971 C2968 1.386 . S
C2972 C2967 1.490 . S
C2972 C2974 1.395 . S
C2972 C2975 1.403 . S
H2973 C2979 0.930 . S
C2974 H2960 0.930 . S
C2974 C2972 1.395 . S
C2974 C2977 1.403 . S
C2975 C2972 1.403 . S
C2975 C2976 1.524 . S
C2975 C2979 1.400 . S
C2976 H2961 0.960 . S
C2976 H2962 0.960 . S
C2976 H2963 0.960 . S
C2976 C2975 1.524 . S
C2977 C2974 1.403 . S
C2977 C2978 1.392 . S
C2977 C2981 1.495 . S
C2978 C2977 1.392 . S
C2978 C2979 1.385 . S
C2978 C2980 1.478 . S
C2979 H2973 0.930 . S
C2979 C2975 1.400 . S
C2979 C2978 1.385 . S
C2980 C2978 1.478 . S
C2980 C2982 1.381 . S
C2980 C2986 1.383 . S
C2981 C2977 1.495 . S
C2981 H2987 0.959 . S
C2981 H2988 0.961 . S
C2981 H2989 0.960 . S
C2982 C2980 1.381 . S
C2982 C2983 1.394 . S
C2982 H2990 0.930 . S
C2983 C2982 1.394 . S
C2983 C2984 1.383 . S
C2983 H2991 0.929 . S
C2984 C2983 1.383 . S
C2984 C2985 1.377 . S
C2985 H2969 0.930 . S
C2985 C2984 1.377 . S
C2985 C2986 1.379 . S
C2986 H2970 0.931 . S
C2986 C2980 1.383 . S
C2986 C2985 1.379 . S
H2987 C2981 0.959 . S
H2988 C2981 0.961 . S
H2989 C2981 0.960 . S
H2990 C2982 0.930 . S
H2991 C2983 0.929 . S
H2992 C3000 0.929 . S
H2993 C3002 0.930 . S
H2994 C3004 0.930 . S
H2995 C3007 0.929 . S
H2996 C3010 0.930 . S
H2997 C3012 0.960 . S
H2998 C3012 0.960 . S
H2999 C3012 0.960 . S
C3000 H2992 0.929 . S
C3000 C3001 1.377 . S
C3000 C3002 1.384 . S
C3001 C3000 1.377 . S
C3001 C3007 1.390 . S
C3002 H2993 0.930 . S
C3002 C3000 1.384 . S
C3002 C3003 1.372 . S
C3003 C3002 1.372 . S
C3003 C3004 1.400 . S
C3003 C3008 1.490 . S
C3004 H2994 0.930 . S
C3004 C3003 1.400 . S
C3004 C3007 1.386 . S
H3005 C3021 0.930 . S
H3006 C3022 0.931 . S
C3007 H2995 0.929 . S
C3007 C3001 1.390 . S
C3007 C3004 1.386 . S
C3008 C3003 1.490 . S
C3008 C3010 1.395 . S
C3008 C3011 1.403 . S
H3009 C3015 0.930 . S
C3010 H2996 0.930 . S
C3010 C3008 1.395 . S
C3010 C3013 1.403 . S
C3011 C3008 1.403 . S
C3011 C3012 1.524 . S
C3011 C3015 1.400 . S
C3012 H2997 0.960 . S
C3012 H2998 0.960 . S
C3012 H2999 0.960 . S
C3012 C3011 1.524 . S
C3013 C3010 1.403 . S
C3013 C3014 1.392 . S
C3013 C3017 1.495 . S
C3014 C3013 1.392 . S
C3014 C3015 1.385 . S
C3014 C3016 1.478 . S
C3015 H3009 0.930 . S
C3015 C3011 1.400 . S
C3015 C3014 1.385 . S
C3016 C3014 1.478 . S
C3016 C3018 1.381 . S
C3016 C3022 1.383 . S
C3017 C3013 1.495 . S
C3017 H3023 0.959 . S
C3017 H3024 0.961 . S
C3017 H3025 0.960 . S
C3018 C3016 1.381 . S
C3018 C3019 1.394 . S
C3018 H3026 0.930 . S
C3019 C3018 1.394 . S
C3019 C3020 1.383 . S
C3019 H3027 0.929 . S
C3020 C3019 1.383 . S
C3020 C3021 1.377 . S
C3021 H3005 0.930 . S
C3021 C3020 1.377 . S
C3021 C3022 1.379 . S
C3022 H3006 0.931 . S
C3022 C3016 1.383 . S
C3022 C3021 1.379 . S
H3023 C3017 0.959 . S
H3024 C3017 0.961 . S
H3025 C3017 0.960 . S
H3026 C3018 0.930 . S
H3027 C3019 0.929 . S
H3028 C3036 0.929 . S
H3029 C3038 0.930 . S
H3030 C3040 0.930 . S
H3031 C3043 0.929 . S
H3032 C3046 0.930 . S
H3033 C3048 0.960 . S
H3034 C3048 0.960 . S
H3035 C3048 0.960 . S
C3036 H3028 0.929 . S
C3036 C3037 1.377 . S
C3036 C3038 1.384 1_554 S
C3037 C3036 1.377 . S
C3037 C3043 1.390 . S
C3038 H3029 0.930 . S
C3038 C3036 1.384 1_556 S
C3038 C3039 1.372 . S
C3039 C3038 1.372 . S
C3039 C3040 1.400 . S
C3039 C3044 1.490 . S
C3040 H3030 0.930 . S
C3040 C3039 1.400 . S
C3040 C3043 1.386 1_556 S
H3041 C3057 0.930 . S
H3042 C3058 0.931 . S
C3043 H3031 0.929 . S
C3043 C3037 1.390 . S
C3043 C3040 1.386 1_554 S
C3044 C3039 1.490 . S
C3044 C3046 1.395 . S
C3044 C3047 1.403 . S
H3045 C3051 0.930 . S
C3046 H3032 0.930 . S
C3046 C3044 1.395 . S
C3046 C3049 1.403 . S
C3047 C3044 1.403 . S
C3047 C3048 1.524 . S
C3047 C3051 1.400 . S
C3048 H3033 0.960 . S
C3048 H3034 0.960 . S
C3048 H3035 0.960 . S
C3048 C3047 1.524 . S
C3049 C3046 1.403 . S
C3049 C3050 1.392 . S
C3049 C3053 1.495 . S
C3050 C3049 1.392 . S
C3050 C3051 1.385 . S
C3050 C3052 1.478 . S
C3051 H3045 0.930 . S
C3051 C3047 1.400 . S
C3051 C3050 1.385 . S
C3052 C3050 1.478 . S
C3052 C3054 1.381 . S
C3052 C3058 1.383 . S
C3053 C3049 1.495 . S
C3053 H3059 0.959 . S
C3053 H3060 0.961 . S
C3053 H3061 0.960 . S
C3054 C3052 1.381 . S
C3054 C3055 1.394 . S
C3054 H3062 0.930 . S
C3055 C3054 1.394 . S
C3055 C3056 1.383 . S
C3055 H3063 0.929 . S
C3056 C3055 1.383 . S
C3056 C3057 1.377 . S
C3057 H3041 0.930 . S
C3057 C3056 1.377 . S
C3057 C3058 1.379 . S
C3058 H3042 0.931 . S
C3058 C3052 1.383 . S
C3058 C3057 1.379 . S
H3059 C3053 0.959 . S
H3060 C3053 0.961 . S
H3061 C3053 0.960 . S
H3062 C3054 0.930 . S
H3063 C3055 0.929 . S
H3064 C3072 0.929 . S
H3065 C3074 0.930 . S
H3066 C3076 0.930 . S
H3067 C3079 0.929 . S
H3068 C3082 0.930 . S
H3069 C3084 0.960 . S
H3070 C3084 0.960 . S
H3071 C3084 0.960 . S
C3072 H3064 0.929 . S
C3072 C3073 1.377 . S
C3072 C3074 1.384 . S
C3073 C3072 1.377 . S
C3073 C3079 1.390 . S
C3074 H3065 0.930 . S
C3074 C3072 1.384 . S
C3074 C3075 1.372 . S
C3075 C3074 1.372 . S
C3075 C3076 1.400 . S
C3075 C3080 1.490 . S
C3076 H3066 0.930 . S
C3076 C3075 1.400 . S
C3076 C3079 1.386 . S
H3077 C3093 0.930 . S
H3078 C3094 0.931 . S
C3079 H3067 0.929 . S
C3079 C3073 1.390 . S
C3079 C3076 1.386 . S
C3080 C3075 1.490 . S
C3080 C3082 1.395 . S
C3080 C3083 1.403 . S
H3081 C3087 0.930 . S
C3082 H3068 0.930 . S
C3082 C3080 1.395 . S
C3082 C3085 1.403 . S
C3083 C3080 1.403 . S
C3083 C3084 1.524 . S
C3083 C3087 1.400 . S
C3084 H3069 0.960 . S
C3084 H3070 0.960 . S
C3084 H3071 0.960 . S
C3084 C3083 1.524 . S
C3085 C3082 1.403 . S
C3085 C3086 1.392 . S
C3085 C3089 1.495 . S
C3086 C3085 1.392 . S
C3086 C3087 1.385 . S
C3086 C3088 1.478 . S
C3087 H3081 0.930 . S
C3087 C3083 1.400 . S
C3087 C3086 1.385 . S
C3088 C3086 1.478 . S
C3088 C3090 1.381 . S
C3088 C3094 1.383 . S
C3089 C3085 1.495 . S
C3089 H3095 0.959 . S
C3089 H3096 0.961 . S
C3089 H3097 0.960 . S
C3090 C3088 1.381 . S
C3090 C3091 1.394 . S
C3090 H3098 0.930 . S
C3091 C3090 1.394 . S
C3091 C3092 1.383 . S
C3091 H3099 0.929 . S
C3092 C3091 1.383 . S
C3092 C3093 1.377 . S
C3093 H3077 0.930 . S
C3093 C3092 1.377 . S
C3093 C3094 1.379 . S
C3094 H3078 0.931 . S
C3094 C3088 1.383 . S
C3094 C3093 1.379 . S
H3095 C3089 0.959 . S
H3096 C3089 0.961 . S
H3097 C3089 0.960 . S
H3098 C3090 0.930 . S
H3099 C3091 0.929 . S
H3100 C3108 0.929 . S
H3101 C3110 0.930 . S
H3102 C3112 0.930 . S
H3103 C3115 0.929 . S
H3104 C3118 0.930 . S
H3105 C3120 0.960 . S
H3106 C3120 0.960 . S
H3107 C3120 0.960 . S
C3108 H3100 0.929 . S
C3108 C3109 1.377 . S
C3108 C3110 1.384 . S
C3109 C3108 1.377 . S
C3109 C3115 1.390 . S
C3110 H3101 0.930 . S
C3110 C3108 1.384 . S
C3110 C3111 1.372 . S
C3111 C3110 1.372 . S
C3111 C3112 1.400 . S
C3111 C3116 1.490 . S
C3112 H3102 0.930 . S
C3112 C3111 1.400 . S
C3112 C3115 1.386 . S
H3113 C3129 0.930 . S
H3114 C3130 0.931 . S
C3115 H3103 0.929 . S
C3115 C3109 1.390 . S
C3115 C3112 1.386 . S
C3116 C3111 1.490 . S
C3116 C3118 1.395 . S
C3116 C3119 1.403 . S
H3117 C3123 0.930 . S
C3118 H3104 0.930 . S
C3118 C3116 1.395 . S
C3118 C3121 1.403 . S
C3119 C3116 1.403 . S
C3119 C3120 1.524 . S
C3119 C3123 1.400 . S
C3120 H3105 0.960 . S
C3120 H3106 0.960 . S
C3120 H3107 0.960 . S
C3120 C3119 1.524 . S
C3121 C3118 1.403 . S
C3121 C3122 1.392 . S
C3121 C3125 1.495 . S
C3122 C3121 1.392 . S
C3122 C3123 1.385 . S
C3122 C3124 1.478 . S
C3123 H3117 0.930 . S
C3123 C3119 1.400 . S
C3123 C3122 1.385 . S
C3124 C3122 1.478 . S
C3124 C3126 1.381 . S
C3124 C3130 1.383 . S
C3125 C3121 1.495 . S
C3125 H3131 0.959 . S
C3125 H3132 0.961 . S
C3125 H3133 0.960 . S
C3126 C3124 1.381 . S
C3126 C3127 1.394 . S
C3126 H3134 0.930 . S
C3127 C3126 1.394 . S
C3127 C3128 1.383 . S
C3127 H3135 0.929 . S
C3128 C3127 1.383 . S
C3128 C3129 1.377 . S
C3129 H3113 0.930 . S
C3129 C3128 1.377 . S
C3129 C3130 1.379 . S
C3130 H3114 0.931 . S
C3130 C3124 1.383 . S
C3130 C3129 1.379 . S
H3131 C3125 0.959 . S
H3132 C3125 0.961 . S
H3133 C3125 0.960 . S
H3134 C3126 0.930 . S
H3135 C3127 0.929 . S
H3136 C3144 0.929 . S
H3137 C3146 0.930 . S
H3138 C3148 0.930 . S
H3139 C3151 0.929 . S
H3140 C3154 0.930 . S
H3141 C3156 0.960 . S
H3142 C3156 0.960 . S
H3143 C3156 0.960 . S
C3144 H3136 0.929 . S
C3144 C3145 1.377 . S
C3144 C3146 1.384 . S
C3145 C3144 1.377 . S
C3145 C3151 1.390 . S
C3146 H3137 0.930 . S
C3146 C3144 1.384 . S
C3146 C3147 1.372 . S
C3147 C3146 1.372 . S
C3147 C3148 1.400 . S
C3147 C3152 1.490 . S
C3148 H3138 0.930 . S
C3148 C3147 1.400 . S
C3148 C3151 1.386 . S
H3149 C3165 0.930 . S
H3150 C3166 0.931 . S
C3151 H3139 0.929 . S
C3151 C3145 1.390 . S
C3151 C3148 1.386 . S
C3152 C3147 1.490 . S
C3152 C3154 1.395 . S
C3152 C3155 1.403 . S
H3153 C3159 0.930 . S
C3154 H3140 0.930 . S
C3154 C3152 1.395 . S
C3154 C3157 1.403 . S
C3155 C3152 1.403 . S
C3155 C3156 1.524 . S
C3155 C3159 1.400 . S
C3156 H3141 0.960 . S
C3156 H3142 0.960 . S
C3156 H3143 0.960 . S
C3156 C3155 1.524 . S
C3157 C3154 1.403 . S
C3157 C3158 1.392 . S
C3157 C3161 1.495 . S
C3158 C3157 1.392 . S
C3158 C3159 1.385 . S
C3158 C3160 1.478 . S
C3159 H3153 0.930 . S
C3159 C3155 1.400 . S
C3159 C3158 1.385 . S
C3160 C3158 1.478 . S
C3160 C3162 1.381 . S
C3160 C3166 1.383 . S
C3161 C3157 1.495 . S
C3161 H3167 0.959 . S
C3161 H3168 0.961 . S
C3161 H3169 0.960 . S
C3162 C3160 1.381 . S
C3162 C3163 1.394 . S
C3162 H3170 0.930 . S
C3163 C3162 1.394 . S
C3163 C3164 1.383 . S
C3163 H3171 0.929 . S
C3164 C3163 1.383 . S
C3164 C3165 1.377 . S
C3165 H3149 0.930 . S
C3165 C3164 1.377 . S
C3165 C3166 1.379 . S
C3166 H3150 0.931 . S
C3166 C3160 1.383 . S
C3166 C3165 1.379 . S
H3167 C3161 0.959 . S
H3168 C3161 0.961 . S
H3169 C3161 0.960 . S
H3170 C3162 0.930 . S
H3171 C3163 0.929 . S
H3172 C3180 0.929 . S
H3173 C3182 0.930 . S
H3174 C3184 0.930 . S
H3175 C3187 0.929 . S
H3176 C3190 0.930 . S
H3177 C3192 0.960 . S
H3178 C3192 0.960 . S
H3179 C3192 0.960 . S
C3180 H3172 0.929 . S
C3180 C3181 1.377 . S
C3180 C3182 1.384 . S
C3181 C3180 1.377 . S
C3181 C3187 1.390 . S
C3182 H3173 0.930 . S
C3182 C3180 1.384 . S
C3182 C3183 1.372 . S
C3183 C3182 1.372 . S
C3183 C3184 1.400 . S
C3183 C3188 1.490 . S
C3184 H3174 0.930 . S
C3184 C3183 1.400 . S
C3184 C3187 1.386 . S
H3185 C3201 0.930 . S
H3186 C3202 0.931 . S
C3187 H3175 0.929 . S
C3187 C3181 1.390 . S
C3187 C3184 1.386 . S
C3188 C3183 1.490 . S
C3188 C3190 1.395 . S
C3188 C3191 1.403 . S
H3189 C3195 0.930 . S
C3190 H3176 0.930 . S
C3190 C3188 1.395 . S
C3190 C3193 1.403 . S
C3191 C3188 1.403 . S
C3191 C3192 1.524 . S
C3191 C3195 1.400 . S
C3192 H3177 0.960 . S
C3192 H3178 0.960 . S
C3192 H3179 0.960 . S
C3192 C3191 1.524 . S
C3193 C3190 1.403 . S
C3193 C3194 1.392 . S
C3193 C3197 1.495 . S
C3194 C3193 1.392 . S
C3194 C3195 1.385 . S
C3194 C3196 1.478 . S
C3195 H3189 0.930 . S
C3195 C3191 1.400 . S
C3195 C3194 1.385 . S
C3196 C3194 1.478 . S
C3196 C3198 1.381 . S
C3196 C3202 1.383 . S
C3197 C3193 1.495 . S
C3197 H3203 0.959 . S
C3197 H3204 0.961 . S
C3197 H3205 0.960 . S
C3198 C3196 1.381 . S
C3198 C3199 1.394 . S
C3198 H3206 0.930 . S
C3199 C3198 1.394 . S
C3199 C3200 1.383 . S
C3199 H3207 0.929 . S
C3200 C3199 1.383 . S
C3200 C3201 1.377 . S
C3201 H3185 0.930 . S
C3201 C3200 1.377 . S
C3201 C3202 1.379 . S
C3202 H3186 0.931 . S
C3202 C3196 1.383 . S
C3202 C3201 1.379 . S
H3203 C3197 0.959 . S
H3204 C3197 0.961 . S
H3205 C3197 0.960 . S
H3206 C3198 0.930 . S
H3207 C3199 0.929 . S
H3208 C3216 0.929 . S
H3209 C3218 0.930 . S
H3210 C3220 0.930 . S
H3211 C3223 0.929 . S
H3212 C3226 0.930 . S
H3213 C3228 0.960 . S
H3214 C3228 0.960 . S
H3215 C3228 0.960 . S
C3216 H3208 0.929 . S
C3216 C3217 1.377 . S
C3216 C3218 1.384 . S
C3217 C3216 1.377 . S
C3217 C3223 1.390 . S
C3218 H3209 0.930 . S
C3218 C3216 1.384 . S
C3218 C3219 1.372 . S
C3219 C3218 1.372 . S
C3219 C3220 1.400 . S
C3219 C3224 1.490 . S
C3220 H3210 0.930 . S
C3220 C3219 1.400 . S
C3220 C3223 1.386 . S
H3221 C3237 0.930 . S
H3222 C3238 0.931 . S
C3223 H3211 0.929 . S
C3223 C3217 1.390 . S
C3223 C3220 1.386 . S
C3224 C3219 1.490 . S
C3224 C3226 1.395 . S
C3224 C3227 1.403 . S
H3225 C3231 0.930 . S
C3226 H3212 0.930 . S
C3226 C3224 1.395 . S
C3226 C3229 1.403 . S
C3227 C3224 1.403 . S
C3227 C3228 1.524 . S
C3227 C3231 1.400 . S
C3228 H3213 0.960 . S
C3228 H3214 0.960 . S
C3228 H3215 0.960 . S
C3228 C3227 1.524 . S
C3229 C3226 1.403 . S
C3229 C3230 1.392 . S
C3229 C3233 1.495 . S
C3230 C3229 1.392 . S
C3230 C3231 1.385 . S
C3230 C3232 1.478 . S
C3231 H3225 0.930 . S
C3231 C3227 1.400 . S
C3231 C3230 1.385 . S
C3232 C3230 1.478 . S
C3232 C3234 1.381 . S
C3232 C3238 1.383 . S
C3233 C3229 1.495 . S
C3233 H3239 0.959 . S
C3233 H3240 0.961 . S
C3233 H3241 0.960 . S
C3234 C3232 1.381 . S
C3234 C3235 1.394 . S
C3234 H3242 0.930 . S
C3235 C3234 1.394 . S
C3235 C3236 1.383 . S
C3235 H3243 0.929 . S
C3236 C3235 1.383 . S
C3236 C3237 1.377 . S
C3237 H3221 0.930 . S
C3237 C3236 1.377 . S
C3237 C3238 1.379 . S
C3238 H3222 0.931 . S
C3238 C3232 1.383 . S
C3238 C3237 1.379 . S
H3239 C3233 0.959 . S
H3240 C3233 0.961 . S
H3241 C3233 0.960 . S
H3242 C3234 0.930 . S
H3243 C3235 0.929 . S
H3244 C3252 0.929 . S
H3245 C3254 0.930 . S
H3246 C3256 0.930 . S
H3247 C3259 0.929 . S
H3248 C3262 0.930 . S
H3249 C3264 0.960 . S
H3250 C3264 0.960 . S
H3251 C3264 0.960 . S
C3252 H3244 0.929 . S
C3252 C3253 1.377 . S
C3252 C3254 1.384 . S
C3253 C3252 1.377 . S
C3253 C3259 1.390 . S
C3254 H3245 0.930 . S
C3254 C3252 1.384 . S
C3254 C3255 1.372 . S
C3255 C3254 1.372 . S
C3255 C3256 1.400 . S
C3255 C3260 1.490 . S
C3256 H3246 0.930 . S
C3256 C3255 1.400 . S
C3256 C3259 1.386 . S
H3257 C3273 0.930 . S
H3258 C3274 0.931 . S
C3259 H3247 0.929 . S
C3259 C3253 1.390 . S
C3259 C3256 1.386 . S
C3260 C3255 1.490 . S
C3260 C3262 1.395 . S
C3260 C3263 1.403 . S
H3261 C3267 0.930 . S
C3262 H3248 0.930 . S
C3262 C3260 1.395 . S
C3262 C3265 1.403 . S
C3263 C3260 1.403 . S
C3263 C3264 1.524 . S
C3263 C3267 1.400 . S
C3264 H3249 0.960 . S
C3264 H3250 0.960 . S
C3264 H3251 0.960 . S
C3264 C3263 1.524 . S
C3265 C3262 1.403 . S
C3265 C3266 1.392 . S
C3265 C3269 1.495 . S
C3266 C3265 1.392 . S
C3266 C3267 1.385 . S
C3266 C3268 1.478 . S
C3267 H3261 0.930 . S
C3267 C3263 1.400 . S
C3267 C3266 1.385 . S
C3268 C3266 1.478 . S
C3268 C3270 1.381 . S
C3268 C3274 1.383 . S
C3269 C3265 1.495 . S
C3269 H3275 0.959 . S
C3269 H3276 0.961 . S
C3269 H3277 0.960 . S
C3270 C3268 1.381 . S
C3270 C3271 1.394 . S
C3270 H3278 0.930 . S
C3271 C3270 1.394 . S
C3271 C3272 1.383 . S
C3271 H3279 0.929 . S
C3272 C3271 1.383 . S
C3272 C3273 1.377 . S
C3273 H3257 0.930 . S
C3273 C3272 1.377 . S
C3273 C3274 1.379 . S
C3274 H3258 0.931 . S
C3274 C3268 1.383 . S
C3274 C3273 1.379 . S
H3275 C3269 0.959 . S
H3276 C3269 0.961 . S
H3277 C3269 0.960 . S
H3278 C3270 0.930 . S
H3279 C3271 0.929 . S
H3280 C3288 0.929 . S
H3281 C3290 0.930 . S
H3282 C3292 0.930 . S
H3283 C3295 0.929 . S
H3284 C3298 0.930 . S
H3285 C3300 0.960 . S
H3286 C3300 0.960 . S
H3287 C3300 0.960 . S
C3288 H3280 0.929 . S
C3288 C3289 1.377 . S
C3288 C3290 1.384 . S
C3289 C3288 1.377 . S
C3289 C3295 1.390 . S
C3290 H3281 0.930 . S
C3290 C3288 1.384 . S
C3290 C3291 1.372 . S
C3291 C3290 1.372 . S
C3291 C3292 1.400 . S
C3291 C3296 1.490 . S
C3292 H3282 0.930 . S
C3292 C3291 1.400 . S
C3292 C3295 1.386 . S
H3293 C3309 0.930 . S
H3294 C3310 0.931 . S
C3295 H3283 0.929 . S
C3295 C3289 1.390 . S
C3295 C3292 1.386 . S
C3296 C3291 1.490 . S
C3296 C3298 1.395 . S
C3296 C3299 1.403 . S
H3297 C3303 0.930 . S
C3298 H3284 0.930 . S
C3298 C3296 1.395 . S
C3298 C3301 1.403 . S
C3299 C3296 1.403 . S
C3299 C3300 1.524 . S
C3299 C3303 1.400 . S
C3300 H3285 0.960 . S
C3300 H3286 0.960 . S
C3300 H3287 0.960 . S
C3300 C3299 1.524 . S
C3301 C3298 1.403 . S
C3301 C3302 1.392 . S
C3301 C3305 1.495 . S
C3302 C3301 1.392 . S
C3302 C3303 1.385 . S
C3302 C3304 1.478 . S
C3303 H3297 0.930 . S
C3303 C3299 1.400 . S
C3303 C3302 1.385 . S
C3304 C3302 1.478 . S
C3304 C3306 1.381 . S
C3304 C3310 1.383 . S
C3305 C3301 1.495 . S
C3305 H3311 0.959 . S
C3305 H3312 0.961 . S
C3305 H3313 0.960 . S
C3306 C3304 1.381 . S
C3306 C3307 1.394 . S
C3306 H3314 0.930 . S
C3307 C3306 1.394 . S
C3307 C3308 1.383 . S
C3307 H3315 0.929 . S
C3308 C3307 1.383 . S
C3308 C3309 1.377 . S
C3309 H3293 0.930 . S
C3309 C3308 1.377 . S
C3309 C3310 1.379 . S
C3310 H3294 0.931 . S
C3310 C3304 1.383 . S
C3310 C3309 1.379 . S
H3311 C3305 0.959 . S
H3312 C3305 0.961 . S
H3313 C3305 0.960 . S
H3314 C3306 0.930 . S
H3315 C3307 0.929 . S
H3316 C3324 0.929 . S
H3317 C3326 0.930 . S
H3318 C3328 0.930 . S
H3319 C3331 0.929 . S
H3320 C3334 0.930 . S
H3321 C3336 0.960 . S
H3322 C3336 0.960 . S
H3323 C3336 0.960 . S
C3324 H3316 0.929 . S
C3324 C3325 1.377 . S
C3324 C3326 1.384 . S
C3325 C3324 1.377 . S
C3325 C3331 1.390 . S
C3326 H3317 0.930 . S
C3326 C3324 1.384 . S
C3326 C3327 1.372 . S
C3327 C3326 1.372 . S
C3327 C3328 1.400 . S
C3327 C3332 1.490 . S
C3328 H3318 0.930 . S
C3328 C3327 1.400 . S
C3328 C3331 1.386 . S
H3329 C3345 0.930 . S
H3330 C3346 0.931 . S
C3331 H3319 0.929 . S
C3331 C3325 1.390 . S
C3331 C3328 1.386 . S
C3332 C3327 1.490 . S
C3332 C3334 1.395 . S
C3332 C3335 1.403 . S
H3333 C3339 0.930 . S
C3334 H3320 0.930 . S
C3334 C3332 1.395 . S
C3334 C3337 1.403 . S
C3335 C3332 1.403 . S
C3335 C3336 1.524 . S
C3335 C3339 1.400 . S
C3336 H3321 0.960 . S
C3336 H3322 0.960 . S
C3336 H3323 0.960 . S
C3336 C3335 1.524 . S
C3337 C3334 1.403 . S
C3337 C3338 1.392 . S
C3337 C3341 1.495 . S
C3338 C3337 1.392 . S
C3338 C3339 1.385 . S
C3338 C3340 1.478 . S
C3339 H3333 0.930 . S
C3339 C3335 1.400 . S
C3339 C3338 1.385 . S
C3340 C3338 1.478 . S
C3340 C3342 1.381 . S
C3340 C3346 1.383 . S
C3341 C3337 1.495 . S
C3341 H3347 0.959 . S
C3341 H3348 0.961 . S
C3341 H3349 0.960 . S
C3342 C3340 1.381 . S
C3342 C3343 1.394 . S
C3342 H3350 0.930 . S
C3343 C3342 1.394 . S
C3343 C3344 1.383 . S
C3343 H3351 0.929 . S
C3344 C3343 1.383 . S
C3344 C3345 1.377 . S
C3345 H3329 0.930 . S
C3345 C3344 1.377 . S
C3345 C3346 1.379 . S
C3346 H3330 0.931 . S
C3346 C3340 1.383 . S
C3346 C3345 1.379 . S
H3347 C3341 0.959 . S
H3348 C3341 0.961 . S
H3349 C3341 0.960 . S
H3350 C3342 0.930 . S
H3351 C3343 0.929 . S
H3352 C3360 0.929 . S
H3353 C3362 0.930 . S
H3354 C3364 0.930 . S
H3355 C3367 0.929 1_545 S
H3356 C3370 0.930 . S
H3357 C3372 0.960 . S
H3358 C3372 0.960 . S
H3359 C3372 0.960 . S
C3360 H3352 0.929 . S
C3360 C3361 1.377 . S
C3360 C3362 1.384 . S
C3361 C3360 1.377 . S
C3361 C3367 1.390 . S
C3362 H3353 0.930 . S
C3362 C3360 1.384 . S
C3362 C3363 1.372 . S
C3363 C3362 1.372 . S
C3363 C3364 1.400 . S
C3363 C3368 1.490 . S
C3364 H3354 0.930 . S
C3364 C3363 1.400 . S
C3364 C3367 1.386 . S
H3365 C3381 0.930 . S
H3366 C3382 0.931 . S
C3367 H3355 0.929 1_565 S
C3367 C3361 1.390 . S
C3367 C3364 1.386 . S
C3368 C3363 1.490 . S
C3368 C3370 1.395 . S
C3368 C3371 1.403 . S
H3369 C3375 0.930 . S
C3370 H3356 0.930 . S
C3370 C3368 1.395 . S
C3370 C3373 1.403 . S
C3371 C3368 1.403 . S
C3371 C3372 1.524 . S
C3371 C3375 1.400 . S
C3372 H3357 0.960 . S
C3372 H3358 0.960 . S
C3372 H3359 0.960 . S
C3372 C3371 1.524 . S
C3373 C3370 1.403 . S
C3373 C3374 1.392 . S
C3373 C3377 1.495 . S
C3374 C3373 1.392 . S
C3374 C3375 1.385 . S
C3374 C3376 1.478 . S
C3375 H3369 0.930 . S
C3375 C3371 1.400 . S
C3375 C3374 1.385 . S
C3376 C3374 1.478 . S
C3376 C3378 1.381 . S
C3376 C3382 1.383 . S
C3377 C3373 1.495 . S
C3377 H3383 0.959 . S
C3377 H3384 0.961 . S
C3377 H3385 0.960 . S
C3378 C3376 1.381 . S
C3378 C3379 1.394 . S
C3378 H3386 0.930 . S
C3379 C3378 1.394 . S
C3379 C3380 1.383 . S
C3379 H3387 0.929 . S
C3380 C3379 1.383 . S
C3380 C3381 1.377 . S
C3381 H3365 0.930 . S
C3381 C3380 1.377 . S
C3381 C3382 1.379 . S
C3382 H3366 0.931 . S
C3382 C3376 1.383 . S
C3382 C3381 1.379 . S
H3383 C3377 0.959 . S
H3384 C3377 0.961 . S
H3385 C3377 0.960 . S
H3386 C3378 0.930 . S
H3387 C3379 0.929 . S
H3388 C3396 0.929 . S
H3389 C3398 0.930 . S
H3390 C3400 0.930 . S
H3391 C3403 0.929 . S
H3392 C3406 0.912 1_556 S
H3393 C3408 0.960 . S
H3394 C3408 0.960 . S
H3395 C3408 0.960 . S
C3396 H3388 0.929 . S
C3396 C3397 1.377 1_556 S
C3396 C3398 1.384 . S
C3397 C3396 1.377 1_554 S
C3397 C3403 1.390 . S
C3398 H3389 0.930 . S
C3398 C3396 1.384 . S
C3398 C3399 1.372 1_556 S
C3399 C3398 1.372 1_554 S
C3399 C3400 1.400 . S
C3399 C3404 1.490 . S
C3400 H3390 0.930 . S
C3400 C3399 1.400 . S
C3400 C3403 1.386 . S
H3401 C3417 0.930 . S
H3402 C3418 0.931 . S
C3403 H3391 0.929 . S
C3403 C3397 1.390 . S
C3403 C3400 1.386 . S
C3404 C3399 1.490 . S
C3404 C3406 1.414 . S
C3404 C3407 1.403 . S
H3405 C3411 0.930 . S
C3406 H3392 0.912 1_554 S
C3406 C3404 1.414 . S
C3406 C3409 1.404 . S
C3407 C3404 1.403 . S
C3407 C3408 1.524 . S
C3407 C3411 1.400 . S
C3408 H3393 0.960 . S
C3408 H3394 0.960 . S
C3408 H3395 0.960 . S
C3408 C3407 1.524 . S
C3409 C3406 1.404 . S
C3409 C3410 1.392 . S
C3409 C3413 1.495 1_564 S
C3410 C3409 1.392 . S
C3410 C3411 1.385 . S
C3410 C3412 1.470 1_565 S
C3411 H3405 0.930 . S
C3411 C3407 1.400 . S
C3411 C3410 1.385 . S
C3412 C3410 1.470 1_545 S
C3412 C3414 1.386 1_554 S
C3412 C3418 1.385 . S
C3413 C3409 1.495 1_546 S
C3413 H3419 0.959 . S
C3413 H3420 0.961 1_556 S
C3413 H3421 0.960 . S
C3414 C3412 1.386 1_556 S
C3414 C3415 1.394 1_556 S
C3414 H3422 0.930 . S
C3415 C3414 1.394 1_554 S
C3415 C3416 1.387 . S
C3415 H3423 0.925 1_554 S
C3416 C3415 1.387 . S
C3416 C3417 1.377 . S
C3417 H3401 0.930 . S
C3417 C3416 1.377 . S
C3417 C3418 1.379 . S
C3418 H3402 0.931 . S
C3418 C3412 1.385 . S
C3418 C3417 1.379 . S
H3419 C3413 0.959 . S
H3420 C3413 0.961 1_554 S
H3421 C3413 0.960 . S
H3422 C3414 0.930 . S
H3423 C3415 0.925 1_556 S
H3424 C3432 0.929 . S
H3425 C3434 0.930 . S
H3426 C3436 0.930 . S
H3427 C3439 0.929 . S
H3428 C3442 0.930 . S
H3429 C3444 0.960 . S
H3430 C3444 0.960 . S
H3431 C3444 0.960 . S
C3432 H3424 0.929 . S
C3432 C3433 1.377 . S
C3432 C3434 1.384 . S
C3433 C3432 1.377 . S
C3433 C3439 1.390 . S
C3434 H3425 0.930 . S
C3434 C3432 1.384 . S
C3434 C3435 1.372 . S
C3435 C3434 1.372 . S
C3435 C3436 1.400 . S
C3435 C3440 1.490 . S
C3436 H3426 0.930 . S
C3436 C3435 1.400 . S
C3436 C3439 1.386 . S
H3437 C3453 0.930 . S
H3438 C3454 0.931 . S
C3439 H3427 0.929 . S
C3439 C3433 1.390 . S
C3439 C3436 1.386 . S
C3440 C3435 1.490 . S
C3440 C3442 1.395 . S
C3440 C3443 1.403 . S
H3441 C3447 0.930 . S
C3442 H3428 0.930 . S
C3442 C3440 1.395 . S
C3442 C3445 1.403 . S
C3443 C3440 1.403 . S
C3443 C3444 1.524 . S
C3443 C3447 1.400 . S
C3444 H3429 0.960 . S
C3444 H3430 0.960 . S
C3444 H3431 0.960 . S
C3444 C3443 1.524 . S
C3445 C3442 1.403 . S
C3445 C3446 1.392 . S
C3445 C3449 1.495 . S
C3446 C3445 1.392 . S
C3446 C3447 1.385 . S
C3446 C3448 1.478 . S
C3447 H3441 0.930 . S
C3447 C3443 1.400 . S
C3447 C3446 1.385 . S
C3448 C3446 1.478 . S
C3448 C3450 1.381 . S
C3448 C3454 1.383 . S
C3449 C3445 1.495 . S
C3449 H3455 0.959 . S
C3449 H3456 0.961 . S
C3449 H3457 0.960 . S
C3450 C3448 1.381 . S
C3450 C3451 1.394 . S
C3450 H3458 0.930 . S
C3451 C3450 1.394 . S
C3451 C3452 1.383 . S
C3451 H3459 0.929 . S
C3452 C3451 1.383 . S
C3452 C3453 1.377 . S
C3453 H3437 0.930 . S
C3453 C3452 1.377 . S
C3453 C3454 1.379 . S
C3454 H3438 0.931 . S
C3454 C3448 1.383 . S
C3454 C3453 1.379 . S
H3455 C3449 0.959 . S
H3456 C3449 0.961 . S
H3457 C3449 0.960 . S
H3458 C3450 0.930 . S
H3459 C3451 0.929 . S
H3460 C3468 0.929 . S
H3461 C3470 0.930 . S
H3462 C3472 0.930 . S
H3463 C3475 0.929 . S
H3464 C3478 0.930 . S
H3465 C3480 0.959 . S
H3466 C3480 0.960 1_556 S
H3467 C3480 0.960 . S
C3468 H3460 0.929 . S
C3468 C3469 1.377 . S
C3468 C3470 1.384 . S
C3469 C3468 1.377 . S
C3469 C3475 1.390 . S
C3470 H3461 0.930 . S
C3470 C3468 1.384 . S
C3470 C3471 1.372 . S
C3471 C3470 1.372 . S
C3471 C3472 1.400 . S
C3471 C3476 1.490 . S
C3472 H3462 0.930 . S
C3472 C3471 1.400 . S
C3472 C3475 1.386 . S
H3473 C3489 0.930 . S
H3474 C3490 0.931 . S
C3475 H3463 0.929 . S
C3475 C3469 1.390 . S
C3475 C3472 1.386 . S
C3476 C3471 1.490 . S
C3476 C3478 1.395 . S
C3476 C3479 1.403 . S
H3477 C3483 0.930 . S
C3478 H3464 0.930 . S
C3478 C3476 1.395 . S
C3478 C3481 1.403 . S
C3479 C3476 1.403 . S
C3479 C3480 1.524 . S
C3479 C3483 1.400 . S
C3480 H3465 0.959 . S
C3480 H3466 0.960 1_554 S
C3480 H3467 0.960 . S
C3480 C3479 1.524 . S
C3481 C3478 1.403 . S
C3481 C3482 1.392 . S
C3481 C3485 1.495 . S
C3482 C3481 1.392 . S
C3482 C3483 1.385 . S
C3482 C3484 1.478 . S
C3483 H3477 0.930 . S
C3483 C3479 1.400 . S
C3483 C3482 1.385 . S
C3484 C3482 1.478 . S
C3484 C3486 1.381 . S
C3484 C3490 1.383 . S
C3485 C3481 1.495 . S
C3485 H3491 0.959 . S
C3485 H3492 0.961 . S
C3485 H3493 0.960 . S
C3486 C3484 1.381 . S
C3486 C3487 1.394 . S
C3486 H3494 0.930 . S
C3487 C3486 1.394 . S
C3487 C3488 1.383 . S
C3487 H3495 0.929 . S
C3488 C3487 1.383 . S
C3488 C3489 1.377 . S
C3489 H3473 0.930 . S
C3489 C3488 1.377 . S
C3489 C3490 1.379 . S
C3490 H3474 0.931 . S
C3490 C3484 1.383 . S
C3490 C3489 1.379 . S
H3491 C3485 0.959 . S
H3492 C3485 0.961 . S
H3493 C3485 0.960 . S
H3494 C3486 0.930 . S
H3495 C3487 0.929 . S
H3496 C3504 0.929 . S
H3497 C3506 0.930 . S
H3498 C3508 0.930 . S
H3499 C3511 0.929 . S
H3500 C3514 0.930 . S
H3501 C3516 0.960 . S
H3502 C3516 0.960 . S
H3503 C3516 0.960 . S
C3504 H3496 0.929 . S
C3504 C3505 1.377 . S
C3504 C3506 1.384 . S
C3505 C3504 1.377 . S
C3505 C3511 1.390 . S
C3506 H3497 0.930 . S
C3506 C3504 1.384 . S
C3506 C3507 1.372 . S
C3507 C3506 1.372 . S
C3507 C3508 1.400 . S
C3507 C3512 1.490 . S
C3508 H3498 0.930 . S
C3508 C3507 1.400 . S
C3508 C3511 1.386 . S
H3509 C3525 0.930 . S
H3510 C3526 0.931 . S
C3511 H3499 0.929 . S
C3511 C3505 1.390 . S
C3511 C3508 1.386 . S
C3512 C3507 1.490 . S
C3512 C3514 1.395 . S
C3512 C3515 1.403 . S
H3513 C3519 0.930 . S
C3514 H3500 0.930 . S
C3514 C3512 1.395 . S
C3514 C3517 1.403 . S
C3515 C3512 1.403 . S
C3515 C3516 1.524 . S
C3515 C3519 1.400 . S
C3516 H3501 0.960 . S
C3516 H3502 0.960 . S
C3516 H3503 0.960 . S
C3516 C3515 1.524 . S
C3517 C3514 1.403 . S
C3517 C3518 1.392 . S
C3517 C3521 1.495 . S
C3518 C3517 1.392 . S
C3518 C3519 1.385 . S
C3518 C3520 1.478 . S
C3519 H3513 0.930 . S
C3519 C3515 1.400 . S
C3519 C3518 1.385 . S
C3520 C3518 1.478 . S
C3520 C3522 1.381 . S
C3520 C3526 1.383 . S
C3521 C3517 1.495 . S
C3521 H3527 0.959 . S
C3521 H3528 0.961 . S
C3521 H3529 0.960 . S
C3522 C3520 1.381 . S
C3522 C3523 1.394 . S
C3522 H3530 0.930 . S
C3523 C3522 1.394 . S
C3523 C3524 1.383 . S
C3523 H3531 0.929 . S
C3524 C3523 1.383 . S
C3524 C3525 1.377 . S
C3525 H3509 0.930 . S
C3525 C3524 1.377 . S
C3525 C3526 1.379 . S
C3526 H3510 0.931 . S
C3526 C3520 1.383 . S
C3526 C3525 1.379 . S
H3527 C3521 0.959 . S
H3528 C3521 0.961 . S
H3529 C3521 0.960 . S
H3530 C3522 0.930 . S
H3531 C3523 0.929 . S
H3532 C3540 0.929 . S
H3533 C3542 0.930 . S
H3534 C3544 0.930 . S
H3535 C3547 0.929 . S
H3536 C3550 0.930 . S
H3537 C3552 0.960 . S
H3538 C3552 0.960 . S
H3539 C3552 0.960 . S
C3540 H3532 0.929 . S
C3540 C3541 1.377 . S
C3540 C3542 1.384 . S
C3541 C3540 1.377 . S
C3541 C3547 1.390 . S
C3542 H3533 0.930 . S
C3542 C3540 1.384 . S
C3542 C3543 1.372 . S
C3543 C3542 1.372 . S
C3543 C3544 1.400 . S
C3543 C3548 1.490 . S
C3544 H3534 0.930 . S
C3544 C3543 1.400 . S
C3544 C3547 1.386 . S
H3545 C3561 0.930 . S
H3546 C3562 0.931 . S
C3547 H3535 0.929 . S
C3547 C3541 1.390 . S
C3547 C3544 1.386 . S
C3548 C3543 1.490 . S
C3548 C3550 1.395 . S
C3548 C3551 1.403 . S
H3549 C3555 0.930 . S
C3550 H3536 0.930 . S
C3550 C3548 1.395 . S
C3550 C3553 1.403 . S
C3551 C3548 1.403 . S
C3551 C3552 1.524 . S
C3551 C3555 1.400 . S
C3552 H3537 0.960 . S
C3552 H3538 0.960 . S
C3552 H3539 0.960 . S
C3552 C3551 1.524 . S
C3553 C3550 1.403 . S
C3553 C3554 1.392 . S
C3553 C3557 1.495 . S
C3554 C3553 1.392 . S
C3554 C3555 1.385 . S
C3554 C3556 1.478 . S
C3555 H3549 0.930 . S
C3555 C3551 1.400 . S
C3555 C3554 1.385 . S
C3556 C3554 1.478 . S
C3556 C3558 1.381 . S
C3556 C3562 1.383 . S
C3557 C3553 1.495 . S
C3557 H3563 0.959 . S
C3557 H3564 0.961 . S
C3557 H3565 0.960 . S
C3558 C3556 1.381 . S
C3558 C3559 1.394 . S
C3558 H3566 0.930 . S
C3559 C3558 1.394 . S
C3559 C3560 1.383 . S
C3559 H3567 0.929 . S
C3560 C3559 1.383 . S
C3560 C3561 1.377 . S
C3561 H3545 0.930 . S
C3561 C3560 1.377 . S
C3561 C3562 1.379 . S
C3562 H3546 0.931 . S
C3562 C3556 1.383 . S
C3562 C3561 1.379 . S
H3563 C3557 0.959 . S
H3564 C3557 0.961 . S
H3565 C3557 0.960 . S
H3566 C3558 0.930 . S
H3567 C3559 0.929 . S
H3568 C3576 0.929 . S
H3569 C3578 0.930 . S
H3570 C3580 0.930 . S
H3571 C3583 0.929 . S
H3572 C3586 0.930 . S
H3573 C3588 0.960 . S
H3574 C3588 0.960 . S
H3575 C3588 0.960 . S
C3576 H3568 0.929 . S
C3576 C3577 1.377 . S
C3576 C3578 1.384 . S
C3577 C3576 1.377 . S
C3577 C3583 1.390 . S
C3578 H3569 0.930 . S
C3578 C3576 1.384 . S
C3578 C3579 1.372 . S
C3579 C3578 1.372 . S
C3579 C3580 1.400 . S
C3579 C3584 1.490 . S
C3580 H3570 0.930 . S
C3580 C3579 1.400 . S
C3580 C3583 1.386 . S
H3581 C3597 0.930 . S
H3582 C3598 0.931 . S
C3583 H3571 0.929 . S
C3583 C3577 1.390 . S
C3583 C3580 1.386 . S
C3584 C3579 1.490 . S
C3584 C3586 1.395 . S
C3584 C3587 1.403 . S
H3585 C3591 0.930 . S
C3586 H3572 0.930 . S
C3586 C3584 1.395 . S
C3586 C3589 1.403 . S
C3587 C3584 1.403 . S
C3587 C3588 1.524 . S
C3587 C3591 1.400 . S
C3588 H3573 0.960 . S
C3588 H3574 0.960 . S
C3588 H3575 0.960 . S
C3588 C3587 1.524 . S
C3589 C3586 1.403 . S
C3589 C3590 1.392 . S
C3589 C3593 1.495 . S
C3590 C3589 1.392 . S
C3590 C3591 1.385 . S
C3590 C3592 1.478 . S
C3591 H3585 0.930 . S
C3591 C3587 1.400 . S
C3591 C3590 1.385 . S
C3592 C3590 1.478 . S
C3592 C3594 1.381 . S
C3592 C3598 1.383 . S
C3593 C3589 1.495 . S
C3593 H3599 0.959 . S
C3593 H3600 0.961 . S
C3593 H3601 0.960 . S
C3594 C3592 1.381 . S
C3594 C3595 1.394 . S
C3594 H3602 0.930 . S
C3595 C3594 1.394 . S
C3595 C3596 1.383 . S
C3595 H3603 0.929 . S
C3596 C3595 1.383 . S
C3596 C3597 1.377 . S
C3597 H3581 0.930 . S
C3597 C3596 1.377 . S
C3597 C3598 1.379 . S
C3598 H3582 0.931 . S
C3598 C3592 1.383 . S
C3598 C3597 1.379 . S
H3599 C3593 0.959 . S
H3600 C3593 0.961 . S
H3601 C3593 0.960 . S
H3602 C3594 0.930 . S
H3603 C3595 0.929 . S
H3604 C3612 0.929 . S
H3605 C3614 0.930 . S
H3606 C3616 0.930 . S
H3607 C3619 0.929 . S
H3608 C3622 0.930 . S
H3609 C3624 0.960 . S
H3610 C3624 0.960 . S
H3611 C3624 0.960 . S
C3612 H3604 0.929 . S
C3612 C3613 1.377 . S
C3612 C3614 1.384 . S
C3613 C3612 1.377 . S
C3613 C3619 1.390 . S
C3614 H3605 0.930 . S
C3614 C3612 1.384 . S
C3614 C3615 1.372 . S
C3615 C3614 1.372 . S
C3615 C3616 1.400 . S
C3615 C3620 1.490 . S
C3616 H3606 0.930 . S
C3616 C3615 1.400 . S
C3616 C3619 1.386 . S
H3617 C3633 0.930 . S
H3618 C3634 0.931 . S
C3619 H3607 0.929 . S
C3619 C3613 1.390 . S
C3619 C3616 1.386 . S
C3620 C3615 1.490 . S
C3620 C3622 1.395 . S
C3620 C3623 1.403 . S
H3621 C3627 0.930 . S
C3622 H3608 0.930 . S
C3622 C3620 1.395 . S
C3622 C3625 1.403 . S
C3623 C3620 1.403 . S
C3623 C3624 1.524 . S
C3623 C3627 1.400 . S
C3624 H3609 0.960 . S
C3624 H3610 0.960 . S
C3624 H3611 0.960 . S
C3624 C3623 1.524 . S
C3625 C3622 1.403 . S
C3625 C3626 1.392 . S
C3625 C3629 1.495 . S
C3626 C3625 1.392 . S
C3626 C3627 1.385 . S
C3626 C3628 1.478 . S
C3627 H3621 0.930 . S
C3627 C3623 1.400 . S
C3627 C3626 1.385 . S
C3628 C3626 1.478 . S
C3628 C3630 1.381 . S
C3628 C3634 1.383 . S
C3629 C3625 1.495 . S
C3629 H3635 0.959 . S
C3629 H3636 0.961 . S
C3629 H3637 0.960 . S
C3630 C3628 1.381 . S
C3630 C3631 1.394 . S
C3630 H3638 0.930 . S
C3631 C3630 1.394 . S
C3631 C3632 1.383 . S
C3631 H3639 0.929 . S
C3632 C3631 1.383 . S
C3632 C3633 1.377 . S
C3633 H3617 0.930 . S
C3633 C3632 1.377 . S
C3633 C3634 1.379 . S
C3634 H3618 0.931 . S
C3634 C3628 1.383 . S
C3634 C3633 1.379 . S
H3635 C3629 0.959 . S
H3636 C3629 0.961 . S
H3637 C3629 0.960 . S
H3638 C3630 0.930 . S
H3639 C3631 0.929 . S
H3640 C3648 0.929 . S
H3641 C3650 0.930 . S
H3642 C3652 0.930 . S
H3643 C3655 0.929 . S
H3644 C3658 0.930 . S
H3645 C3660 0.960 . S
H3646 C3660 0.960 . S
H3647 C3660 0.960 . S
C3648 H3640 0.929 . S
C3648 C3649 1.377 . S
C3648 C3650 1.384 . S
C3649 C3648 1.377 . S
C3649 C3655 1.390 . S
C3650 H3641 0.930 . S
C3650 C3648 1.384 . S
C3650 C3651 1.372 . S
C3651 C3650 1.372 . S
C3651 C3652 1.400 . S
C3651 C3656 1.490 . S
C3652 H3642 0.930 . S
C3652 C3651 1.400 . S
C3652 C3655 1.386 . S
H3653 C3669 0.930 . S
H3654 C3670 0.931 . S
C3655 H3643 0.929 . S
C3655 C3649 1.390 . S
C3655 C3652 1.386 . S
C3656 C3651 1.490 . S
C3656 C3658 1.395 . S
C3656 C3659 1.403 . S
H3657 C3663 0.930 . S
C3658 H3644 0.930 . S
C3658 C3656 1.395 . S
C3658 C3661 1.403 . S
C3659 C3656 1.403 . S
C3659 C3660 1.524 . S
C3659 C3663 1.400 . S
C3660 H3645 0.960 . S
C3660 H3646 0.960 . S
C3660 H3647 0.960 . S
C3660 C3659 1.524 . S
C3661 C3658 1.403 . S
C3661 C3662 1.392 . S
C3661 C3665 1.495 . S
C3662 C3661 1.392 . S
C3662 C3663 1.385 . S
C3662 C3664 1.478 . S
C3663 H3657 0.930 . S
C3663 C3659 1.400 . S
C3663 C3662 1.385 . S
C3664 C3662 1.478 . S
C3664 C3666 1.381 . S
C3664 C3670 1.383 . S
C3665 C3661 1.495 . S
C3665 H3671 0.959 . S
C3665 H3672 0.961 . S
C3665 H3673 0.960 . S
C3666 C3664 1.381 . S
C3666 C3667 1.394 . S
C3666 H3674 0.930 . S
C3667 C3666 1.394 . S
C3667 C3668 1.383 . S
C3667 H3675 0.929 . S
C3668 C3667 1.383 . S
C3668 C3669 1.377 . S
C3669 H3653 0.930 . S
C3669 C3668 1.377 . S
C3669 C3670 1.379 . S
C3670 H3654 0.931 . S
C3670 C3664 1.383 . S
C3670 C3669 1.379 . S
H3671 C3665 0.959 . S
H3672 C3665 0.961 . S
H3673 C3665 0.960 . S
H3674 C3666 0.930 . S
H3675 C3667 0.929 . S
H3676 C3684 0.929 . S
H3677 C3686 0.930 . S
H3678 C3688 0.930 . S
H3679 C3691 0.929 . S
H3680 C3694 0.930 . S
H3681 C3696 0.960 . S
H3682 C3696 0.960 . S
H3683 C3696 0.960 . S
C3684 H3676 0.929 . S
C3684 C3685 1.377 . S
C3684 C3686 1.384 . S
C3685 C3684 1.377 . S
C3685 C3691 1.390 . S
C3686 H3677 0.930 . S
C3686 C3684 1.384 . S
C3686 C3687 1.372 . S
C3687 C3686 1.372 . S
C3687 C3688 1.400 . S
C3687 C3692 1.490 . S
C3688 H3678 0.930 . S
C3688 C3687 1.400 . S
C3688 C3691 1.386 . S
H3689 C3705 0.930 . S
H3690 C3706 0.931 . S
C3691 H3679 0.929 . S
C3691 C3685 1.390 . S
C3691 C3688 1.386 . S
C3692 C3687 1.490 . S
C3692 C3694 1.395 . S
C3692 C3695 1.403 . S
H3693 C3699 0.930 . S
C3694 H3680 0.930 . S
C3694 C3692 1.395 . S
C3694 C3697 1.403 . S
C3695 C3692 1.403 . S
C3695 C3696 1.524 . S
C3695 C3699 1.400 . S
C3696 H3681 0.960 . S
C3696 H3682 0.960 . S
C3696 H3683 0.960 . S
C3696 C3695 1.524 . S
C3697 C3694 1.403 . S
C3697 C3698 1.392 . S
C3697 C3701 1.495 . S
C3698 C3697 1.392 . S
C3698 C3699 1.385 . S
C3698 C3700 1.478 . S
C3699 H3693 0.930 . S
C3699 C3695 1.400 . S
C3699 C3698 1.385 . S
C3700 C3698 1.478 . S
C3700 C3702 1.381 . S
C3700 C3706 1.383 . S
C3701 C3697 1.495 . S
C3701 H3707 0.959 . S
C3701 H3708 0.961 . S
C3701 H3709 0.960 . S
C3702 C3700 1.381 . S
C3702 C3703 1.394 . S
C3702 H3710 0.930 . S
C3703 C3702 1.394 . S
C3703 C3704 1.383 . S
C3703 H3711 0.929 . S
C3704 C3703 1.383 . S
C3704 C3705 1.377 . S
C3705 H3689 0.930 . S
C3705 C3704 1.377 . S
C3705 C3706 1.379 . S
C3706 H3690 0.931 . S
C3706 C3700 1.383 . S
C3706 C3705 1.379 . S
H3707 C3701 0.959 . S
H3708 C3701 0.961 . S
H3709 C3701 0.960 . S
H3710 C3702 0.930 . S
H3711 C3703 0.929 . S
H3712 C3720 0.929 . S
H3713 C3722 0.930 . S
H3714 C3724 0.930 . S
H3715 C3727 0.929 . S
H3716 C3730 0.930 . S
H3717 C3732 0.960 . S
H3718 C3732 0.960 . S
H3719 C3732 0.960 . S
C3720 H3712 0.929 . S
C3720 C3721 1.377 . S
C3720 C3722 1.384 . S
C3721 C3720 1.377 . S
C3721 C3727 1.390 . S
C3722 H3713 0.930 . S
C3722 C3720 1.384 . S
C3722 C3723 1.372 . S
C3723 C3722 1.372 . S
C3723 C3724 1.400 . S
C3723 C3728 1.490 . S
C3724 H3714 0.930 . S
C3724 C3723 1.400 . S
C3724 C3727 1.386 . S
H3725 C3741 0.930 . S
H3726 C3742 0.931 . S
C3727 H3715 0.929 . S
C3727 C3721 1.390 . S
C3727 C3724 1.386 . S
C3728 C3723 1.490 . S
C3728 C3730 1.395 . S
C3728 C3731 1.403 . S
H3729 C3735 0.930 . S
C3730 H3716 0.930 . S
C3730 C3728 1.395 . S
C3730 C3733 1.403 . S
C3731 C3728 1.403 . S
C3731 C3732 1.524 . S
C3731 C3735 1.400 . S
C3732 H3717 0.960 . S
C3732 H3718 0.960 . S
C3732 H3719 0.960 . S
C3732 C3731 1.524 . S
C3733 C3730 1.403 . S
C3733 C3734 1.392 . S
C3733 C3737 1.495 . S
C3734 C3733 1.392 . S
C3734 C3735 1.385 . S
C3734 C3736 1.478 . S
C3735 H3729 0.930 . S
C3735 C3731 1.400 . S
C3735 C3734 1.385 . S
C3736 C3734 1.478 . S
C3736 C3738 1.381 . S
C3736 C3742 1.383 . S
C3737 C3733 1.495 . S
C3737 H3743 0.959 . S
C3737 H3744 0.961 . S
C3737 H3745 0.960 . S
C3738 C3736 1.381 . S
C3738 C3739 1.394 . S
C3738 H3746 0.930 . S
C3739 C3738 1.394 . S
C3739 C3740 1.383 . S
C3739 H3747 0.929 1_556 S
C3740 C3739 1.383 . S
C3740 C3741 1.377 . S
C3741 H3725 0.930 . S
C3741 C3740 1.377 . S
C3741 C3742 1.379 . S
C3742 H3726 0.931 . S
C3742 C3736 1.383 . S
C3742 C3741 1.379 . S
H3743 C3737 0.959 . S
H3744 C3737 0.961 . S
H3745 C3737 0.960 . S
H3746 C3738 0.930 . S
H3747 C3739 0.929 1_554 S
H3748 C3756 0.929 . S
H3749 C3758 0.930 . S
H3750 C3760 0.930 . S
H3751 C3763 0.929 . S
H3752 C3766 0.930 . S
H3753 C3768 0.960 . S
H3754 C3768 0.960 . S
H3755 C3768 0.960 . S
C3756 H3748 0.929 . S
C3756 C3757 1.377 . S
C3756 C3758 1.384 . S
C3757 C3756 1.377 . S
C3757 C3763 1.390 . S
C3758 H3749 0.930 . S
C3758 C3756 1.384 . S
C3758 C3759 1.372 . S
C3759 C3758 1.372 . S
C3759 C3760 1.400 . S
C3759 C3764 1.490 . S
C3760 H3750 0.930 . S
C3760 C3759 1.400 . S
C3760 C3763 1.386 . S
H3761 C3777 0.930 . S
H3762 C3778 0.931 . S
C3763 H3751 0.929 . S
C3763 C3757 1.390 . S
C3763 C3760 1.386 . S
C3764 C3759 1.490 . S
C3764 C3766 1.395 . S
C3764 C3767 1.403 . S
H3765 C3771 0.930 . S
C3766 H3752 0.930 . S
C3766 C3764 1.395 . S
C3766 C3769 1.403 . S
C3767 C3764 1.403 . S
C3767 C3768 1.524 . S
C3767 C3771 1.400 . S
C3768 H3753 0.960 . S
C3768 H3754 0.960 . S
C3768 H3755 0.960 . S
C3768 C3767 1.524 . S
C3769 C3766 1.403 . S
C3769 C3770 1.392 . S
C3769 C3773 1.495 . S
C3770 C3769 1.392 . S
C3770 C3771 1.385 . S
C3770 C3772 1.478 . S
C3771 H3765 0.930 . S
C3771 C3767 1.400 . S
C3771 C3770 1.385 . S
C3772 C3770 1.478 . S
C3772 C3774 1.381 . S
C3772 C3778 1.383 . S
C3773 C3769 1.495 . S
C3773 H3779 0.959 . S
C3773 H3780 0.961 . S
C3773 H3781 0.960 . S
C3774 C3772 1.381 . S
C3774 C3775 1.394 . S
C3774 H3782 0.930 . S
C3775 C3774 1.394 . S
C3775 C3776 1.383 . S
C3775 H3783 0.929 . S
C3776 C3775 1.383 . S
C3776 C3777 1.377 . S
C3777 H3761 0.930 . S
C3777 C3776 1.377 . S
C3777 C3778 1.379 . S
C3778 H3762 0.931 . S
C3778 C3772 1.383 . S
C3778 C3777 1.379 . S
H3779 C3773 0.959 . S
H3780 C3773 0.961 . S
H3781 C3773 0.960 . S
H3782 C3774 0.930 . S
H3783 C3775 0.929 . S
H3784 C3792 0.929 . S
H3785 C3794 0.930 . S
H3786 C3796 0.930 . S
H3787 C3799 0.929 . S
H3788 C3802 0.930 . S
H3789 C3804 0.960 . S
H3790 C3804 0.960 . S
H3791 C3804 0.960 . S
C3792 H3784 0.929 . S
C3792 C3793 1.377 . S
C3792 C3794 1.384 . S
C3793 C3792 1.377 . S
C3793 C3799 1.390 . S
C3794 H3785 0.930 . S
C3794 C3792 1.384 . S
C3794 C3795 1.372 . S
C3795 C3794 1.372 . S
C3795 C3796 1.400 . S
C3795 C3800 1.490 . S
C3796 H3786 0.930 . S
C3796 C3795 1.400 . S
C3796 C3799 1.386 . S
H3797 C3813 0.930 . S
H3798 C3814 0.931 . S
C3799 H3787 0.929 . S
C3799 C3793 1.390 . S
C3799 C3796 1.386 . S
C3800 C3795 1.490 . S
C3800 C3802 1.395 . S
C3800 C3803 1.403 . S
H3801 C3807 0.930 . S
C3802 H3788 0.930 . S
C3802 C3800 1.395 . S
C3802 C3805 1.403 . S
C3803 C3800 1.403 . S
C3803 C3804 1.524 . S
C3803 C3807 1.400 . S
C3804 H3789 0.960 . S
C3804 H3790 0.960 . S
C3804 H3791 0.960 . S
C3804 C3803 1.524 . S
C3805 C3802 1.403 . S
C3805 C3806 1.392 . S
C3805 C3809 1.495 . S
C3806 C3805 1.392 . S
C3806 C3807 1.385 . S
C3806 C3808 1.478 . S
C3807 H3801 0.930 . S
C3807 C3803 1.400 . S
C3807 C3806 1.385 . S
C3808 C3806 1.478 . S
C3808 C3810 1.381 . S
C3808 C3814 1.383 . S
C3809 C3805 1.495 . S
C3809 H3815 0.959 . S
C3809 H3816 0.961 . S
C3809 H3817 0.960 . S
C3810 C3808 1.381 . S
C3810 C3811 1.394 . S
C3810 H3818 0.930 . S
C3811 C3810 1.394 . S
C3811 C3812 1.383 . S
C3811 H3819 0.929 . S
C3812 C3811 1.383 . S
C3812 C3813 1.377 . S
C3813 H3797 0.930 . S
C3813 C3812 1.377 . S
C3813 C3814 1.379 . S
C3814 H3798 0.931 . S
C3814 C3808 1.383 . S
C3814 C3813 1.379 . S
H3815 C3809 0.959 . S
H3816 C3809 0.961 . S
H3817 C3809 0.960 . S
H3818 C3810 0.930 . S
H3819 C3811 0.929 . S
H3820 C3828 0.929 . S
H3821 C3830 0.930 . S
H3822 C3832 0.930 . S
H3823 C3835 0.929 . S
H3824 C3838 0.930 . S
H3825 C3840 0.960 . S
H3826 C3840 0.960 . S
H3827 C3840 0.960 . S
C3828 H3820 0.929 . S
C3828 C3829 1.377 . S
C3828 C3830 1.384 . S
C3829 C3828 1.377 . S
C3829 C3835 1.390 . S
C3830 H3821 0.930 . S
C3830 C3828 1.384 . S
C3830 C3831 1.372 . S
C3831 C3830 1.372 . S
C3831 C3832 1.400 . S
C3831 C3836 1.490 . S
C3832 H3822 0.930 . S
C3832 C3831 1.400 . S
C3832 C3835 1.386 . S
H3833 C3849 0.930 . S
H3834 C3850 0.931 . S
C3835 H3823 0.929 . S
C3835 C3829 1.390 . S
C3835 C3832 1.386 . S
C3836 C3831 1.490 . S
C3836 C3838 1.395 . S
C3836 C3839 1.403 . S
H3837 C3843 0.930 . S
C3838 H3824 0.930 . S
C3838 C3836 1.395 . S
C3838 C3841 1.403 . S
C3839 C3836 1.403 . S
C3839 C3840 1.524 . S
C3839 C3843 1.400 . S
C3840 H3825 0.960 . S
C3840 H3826 0.960 . S
C3840 H3827 0.960 . S
C3840 C3839 1.524 . S
C3841 C3838 1.403 . S
C3841 C3842 1.392 . S
C3841 C3845 1.495 . S
C3842 C3841 1.392 . S
C3842 C3843 1.385 . S
C3842 C3844 1.478 . S
C3843 H3837 0.930 . S
C3843 C3839 1.400 . S
C3843 C3842 1.385 . S
C3844 C3842 1.478 . S
C3844 C3846 1.381 . S
C3844 C3850 1.383 . S
C3845 C3841 1.495 . S
C3845 H3851 0.959 . S
C3845 H3852 0.961 . S
C3845 H3853 0.960 . S
C3846 C3844 1.381 . S
C3846 C3847 1.394 . S
C3846 H3854 0.930 . S
C3847 C3846 1.394 . S
C3847 C3848 1.383 . S
C3847 H3855 0.929 . S
C3848 C3847 1.383 . S
C3848 C3849 1.377 . S
C3849 H3833 0.930 . S
C3849 C3848 1.377 . S
C3849 C3850 1.379 . S
C3850 H3834 0.931 . S
C3850 C3844 1.383 . S
C3850 C3849 1.379 . S
H3851 C3845 0.959 . S
H3852 C3845 0.961 . S
H3853 C3845 0.960 . S
H3854 C3846 0.930 . S
H3855 C3847 0.929 . S
H3856 C3864 0.929 . S
H3857 C3866 0.930 . S
H3858 C3868 0.930 . S
H3859 C3871 0.929 . S
H3860 C3874 0.930 . S
H3861 C3876 0.960 . S
H3862 C3876 0.960 . S
H3863 C3876 0.960 . S
C3864 H3856 0.929 . S
C3864 C3865 1.377 . S
C3864 C3866 1.384 . S
C3865 C3864 1.377 . S
C3865 C3871 1.390 . S
C3866 H3857 0.930 . S
C3866 C3864 1.384 . S
C3866 C3867 1.372 . S
C3867 C3866 1.372 . S
C3867 C3868 1.400 . S
C3867 C3872 1.490 . S
C3868 H3858 0.930 . S
C3868 C3867 1.400 . S
C3868 C3871 1.386 . S
H3869 C3885 0.930 . S
H3870 C3886 0.931 . S
C3871 H3859 0.929 . S
C3871 C3865 1.390 . S
C3871 C3868 1.386 . S
C3872 C3867 1.490 . S
C3872 C3874 1.395 . S
C3872 C3875 1.403 . S
H3873 C3879 0.930 . S
C3874 H3860 0.930 . S
C3874 C3872 1.395 . S
C3874 C3877 1.403 . S
C3875 C3872 1.403 . S
C3875 C3876 1.524 . S
C3875 C3879 1.400 . S
C3876 H3861 0.960 . S
C3876 H3862 0.960 . S
C3876 H3863 0.960 . S
C3876 C3875 1.524 . S
C3877 C3874 1.403 . S
C3877 C3878 1.392 . S
C3877 C3881 1.495 . S
C3878 C3877 1.392 . S
C3878 C3879 1.385 . S
C3878 C3880 1.478 . S
C3879 H3873 0.930 . S
C3879 C3875 1.400 . S
C3879 C3878 1.385 . S
C3880 C3878 1.478 . S
C3880 C3882 1.381 . S
C3880 C3886 1.383 . S
C3881 C3877 1.495 . S
C3881 H3887 0.959 . S
C3881 H3888 0.961 . S
C3881 H3889 0.960 . S
C3882 C3880 1.381 . S
C3882 C3883 1.394 . S
C3882 H3890 0.930 . S
C3883 C3882 1.394 . S
C3883 C3884 1.383 . S
C3883 H3891 0.929 . S
C3884 C3883 1.383 . S
C3884 C3885 1.377 . S
C3885 H3869 0.930 . S
C3885 C3884 1.377 . S
C3885 C3886 1.379 . S
C3886 H3870 0.931 . S
C3886 C3880 1.383 . S
C3886 C3885 1.379 . S
H3887 C3881 0.959 . S
H3888 C3881 0.961 . S
H3889 C3881 0.960 . S
H3890 C3882 0.930 . S
H3891 C3883 0.929 . S
H3892 C3900 0.929 . S
H3893 C3902 0.930 . S
H3894 C3904 0.930 . S
H3895 C3907 0.929 . S
H3896 C3910 0.930 . S
H3897 C3912 0.960 . S
H3898 C3912 0.960 . S
H3899 C3912 0.960 . S
C3900 H3892 0.929 . S
C3900 C3901 1.377 . S
C3900 C3902 1.384 . S
C3901 C3900 1.377 . S
C3901 C3907 1.390 . S
C3902 H3893 0.930 . S
C3902 C3900 1.384 . S
C3902 C3903 1.372 . S
C3903 C3902 1.372 . S
C3903 C3904 1.400 . S
C3903 C3908 1.490 . S
C3904 H3894 0.930 . S
C3904 C3903 1.400 . S
C3904 C3907 1.386 . S
H3905 C3921 0.930 . S
H3906 C3922 0.931 . S
C3907 H3895 0.929 . S
C3907 C3901 1.390 . S
C3907 C3904 1.386 . S
C3908 C3903 1.490 . S
C3908 C3910 1.395 . S
C3908 C3911 1.403 . S
H3909 C3915 0.930 . S
C3910 H3896 0.930 . S
C3910 C3908 1.395 . S
C3910 C3913 1.403 . S
C3911 C3908 1.403 . S
C3911 C3912 1.524 . S
C3911 C3915 1.400 . S
C3912 H3897 0.960 . S
C3912 H3898 0.960 . S
C3912 H3899 0.960 . S
C3912 C3911 1.524 . S
C3913 C3910 1.403 . S
C3913 C3914 1.392 . S
C3913 C3917 1.495 . S
C3914 C3913 1.392 . S
C3914 C3915 1.385 . S
C3914 C3916 1.478 . S
C3915 H3909 0.930 . S
C3915 C3911 1.400 . S
C3915 C3914 1.385 . S
C3916 C3914 1.478 . S
C3916 C3918 1.381 . S
C3916 C3922 1.383 . S
C3917 C3913 1.495 . S
C3917 H3923 0.959 . S
C3917 H3924 0.961 . S
C3917 H3925 0.960 . S
C3918 C3916 1.381 . S
C3918 C3919 1.394 . S
C3918 H3926 0.930 . S
C3919 C3918 1.394 . S
C3919 C3920 1.383 . S
C3919 H3927 0.929 . S
C3920 C3919 1.383 . S
C3920 C3921 1.377 . S
C3921 H3905 0.930 . S
C3921 C3920 1.377 . S
C3921 C3922 1.379 . S
C3922 H3906 0.931 . S
C3922 C3916 1.383 . S
C3922 C3921 1.379 . S
H3923 C3917 0.959 . S
H3924 C3917 0.961 . S
H3925 C3917 0.960 . S
H3926 C3918 0.930 . S
H3927 C3919 0.929 . S
H3928 C3936 0.929 . S
H3929 C3938 0.930 . S
H3930 C3940 0.930 . S
H3931 C3943 0.929 . S
H3932 C3946 0.930 . S
H3933 C3948 0.960 . S
H3934 C3948 0.960 . S
H3935 C3948 0.960 . S
C3936 H3928 0.929 . S
C3936 C3937 1.377 . S
C3936 C3938 1.384 . S
C3937 C3936 1.377 . S
C3937 C3943 1.390 . S
C3938 H3929 0.930 . S
C3938 C3936 1.384 . S
C3938 C3939 1.372 . S
C3939 C3938 1.372 . S
C3939 C3940 1.400 . S
C3939 C3944 1.490 . S
C3940 H3930 0.930 . S
C3940 C3939 1.400 . S
C3940 C3943 1.386 . S
H3941 C3957 0.930 . S
H3942 C3958 0.931 . S
C3943 H3931 0.929 . S
C3943 C3937 1.390 . S
C3943 C3940 1.386 . S
C3944 C3939 1.490 . S
C3944 C3946 1.395 . S
C3944 C3947 1.403 . S
H3945 C3951 0.930 . S
C3946 H3932 0.930 . S
C3946 C3944 1.395 . S
C3946 C3949 1.403 . S
C3947 C3944 1.403 . S
C3947 C3948 1.524 . S
C3947 C3951 1.400 . S
C3948 H3933 0.960 . S
C3948 H3934 0.960 . S
C3948 H3935 0.960 . S
C3948 C3947 1.524 . S
C3949 C3946 1.403 . S
C3949 C3950 1.392 . S
C3949 C3953 1.495 1_655 S
C3950 C3949 1.392 . S
C3950 C3951 1.385 . S
C3950 C3952 1.478 1_655 S
C3951 H3945 0.930 . S
C3951 C3947 1.400 . S
C3951 C3950 1.385 . S
C3952 C3950 1.478 1_455 S
C3952 C3954 1.381 1_455 S
C3952 C3958 1.383 . S
C3953 C3949 1.495 1_455 S
C3953 H3959 0.959 . S
C3953 H3960 0.961 . S
C3953 H3961 0.960 . S
C3954 C3952 1.381 1_655 S
C3954 C3955 1.394 1_655 S
C3954 H3962 0.930 . S
C3955 C3954 1.394 1_455 S
C3955 C3956 1.383 . S
C3955 H3963 0.929 . S
C3956 C3955 1.383 . S
C3956 C3957 1.377 . S
C3957 H3941 0.930 . S
C3957 C3956 1.377 . S
C3957 C3958 1.379 . S
C3958 H3942 0.931 . S
C3958 C3952 1.383 . S
C3958 C3957 1.379 . S
H3959 C3953 0.959 . S
H3960 C3953 0.961 . S
H3961 C3953 0.960 . S
H3962 C3954 0.930 . S
H3963 C3955 0.929 . S
H3964 C3972 0.929 . S
H3965 C3974 0.930 . S
H3966 C3976 0.930 . S
H3967 C3979 0.929 . S
H3968 C3982 0.930 . S
H3969 C3984 0.960 . S
H3970 C3984 0.960 . S
H3971 C3984 0.960 . S
C3972 H3964 0.929 . S
C3972 C3973 1.377 . S
C3972 C3974 1.384 . S
C3973 C3972 1.377 . S
C3973 C3979 1.390 . S
C3974 H3965 0.930 . S
C3974 C3972 1.384 . S
C3974 C3975 1.372 . S
C3975 C3974 1.372 . S
C3975 C3976 1.400 . S
C3975 C3980 1.490 . S
C3976 H3966 0.930 . S
C3976 C3975 1.400 . S
C3976 C3979 1.386 . S
H3977 C3993 0.930 . S
H3978 C3994 0.931 . S
C3979 H3967 0.929 . S
C3979 C3973 1.390 . S
C3979 C3976 1.386 . S
C3980 C3975 1.490 . S
C3980 C3982 1.395 . S
C3980 C3983 1.403 . S
H3981 C3987 0.930 . S
C3982 H3968 0.930 . S
C3982 C3980 1.395 . S
C3982 C3985 1.403 . S
C3983 C3980 1.403 . S
C3983 C3984 1.524 . S
C3983 C3987 1.400 . S
C3984 H3969 0.960 . S
C3984 H3970 0.960 . S
C3984 H3971 0.960 . S
C3984 C3983 1.524 . S
C3985 C3982 1.403 . S
C3985 C3986 1.392 . S
C3985 C3989 1.495 . S
C3986 C3985 1.392 . S
C3986 C3987 1.385 . S
C3986 C3988 1.478 . S
C3987 H3981 0.930 . S
C3987 C3983 1.400 . S
C3987 C3986 1.385 . S
C3988 C3986 1.478 . S
C3988 C3990 1.381 . S
C3988 C3994 1.383 . S
C3989 C3985 1.495 . S
C3989 H3995 0.959 . S
C3989 H3996 0.961 . S
C3989 H3997 0.960 . S
C3990 C3988 1.381 . S
C3990 C3991 1.394 . S
C3990 H3998 0.930 . S
C3991 C3990 1.394 . S
C3991 C3992 1.383 . S
C3991 H3999 0.929 . S
C3992 C3991 1.383 . S
C3992 C3993 1.377 . S
C3993 H3977 0.930 . S
C3993 C3992 1.377 . S
C3993 C3994 1.379 . S
C3994 H3978 0.931 . S
C3994 C3988 1.383 . S
C3994 C3993 1.379 . S
H3995 C3989 0.959 . S
H3996 C3989 0.961 . S
H3997 C3989 0.960 . S
H3998 C3990 0.930 . S
H3999 C3991 0.929 . S
H4000 C4008 0.929 . S
H4001 C4010 0.930 . S
H4002 C4012 0.930 . S
H4003 C4015 0.929 . S
H4004 C4018 0.930 . S
H4005 C4020 0.960 . S
H4006 C4020 0.960 . S
H4007 C4020 0.960 . S
C4008 H4000 0.929 . S
C4008 C4009 1.377 . S
C4008 C4010 1.384 . S
C4009 C4008 1.377 . S
C4009 C4015 1.390 . S
C4010 H4001 0.930 . S
C4010 C4008 1.384 . S
C4010 C4011 1.372 . S
C4011 C4010 1.372 . S
C4011 C4012 1.400 . S
C4011 C4016 1.490 . S
C4012 H4002 0.930 . S
C4012 C4011 1.400 . S
C4012 C4015 1.386 . S
H4013 C4029 0.930 . S
H4014 C4030 0.931 . S
C4015 H4003 0.929 . S
C4015 C4009 1.390 . S
C4015 C4012 1.386 . S
C4016 C4011 1.490 . S
C4016 C4018 1.395 . S
C4016 C4019 1.403 . S
H4017 C4023 0.930 . S
C4018 H4004 0.930 . S
C4018 C4016 1.395 . S
C4018 C4021 1.403 . S
C4019 C4016 1.403 . S
C4019 C4020 1.524 . S
C4019 C4023 1.400 . S
C4020 H4005 0.960 . S
C4020 H4006 0.960 . S
C4020 H4007 0.960 . S
C4020 C4019 1.524 . S
C4021 C4018 1.403 . S
C4021 C4022 1.392 . S
C4021 C4025 1.495 . S
C4022 C4021 1.392 . S
C4022 C4023 1.385 . S
C4022 C4024 1.478 . S
C4023 H4017 0.930 . S
C4023 C4019 1.400 . S
C4023 C4022 1.385 . S
C4024 C4022 1.478 . S
C4024 C4026 1.381 . S
C4024 C4030 1.383 . S
C4025 C4021 1.495 . S
C4025 H4031 0.959 . S
C4025 H4032 0.961 . S
C4025 H4033 0.960 . S
C4026 C4024 1.381 . S
C4026 C4027 1.394 . S
C4026 H4034 0.930 . S
C4027 C4026 1.394 . S
C4027 C4028 1.383 . S
C4027 H4035 0.929 . S
C4028 C4027 1.383 . S
C4028 C4029 1.377 . S
C4029 H4013 0.930 . S
C4029 C4028 1.377 . S
C4029 C4030 1.379 . S
C4030 H4014 0.931 . S
C4030 C4024 1.383 . S
C4030 C4029 1.379 . S
H4031 C4025 0.959 . S
H4032 C4025 0.961 . S
H4033 C4025 0.960 . S
H4034 C4026 0.930 . S
H4035 C4027 0.929 . S
H4036 C4044 0.929 . S
H4037 C4046 0.930 . S
H4038 C4048 0.930 . S
H4039 C4051 0.929 . S
H4040 C4054 0.930 . S
H4041 C4056 0.960 . S
H4042 C4056 0.960 . S
H4043 C4056 0.960 . S
C4044 H4036 0.929 . S
C4044 C4045 1.377 . S
C4044 C4046 1.384 . S
C4045 C4044 1.377 . S
C4045 C4051 1.390 . S
C4046 H4037 0.930 . S
C4046 C4044 1.384 . S
C4046 C4047 1.372 . S
C4047 C4046 1.372 . S
C4047 C4048 1.400 . S
C4047 C4052 1.490 . S
C4048 H4038 0.930 . S
C4048 C4047 1.400 . S
C4048 C4051 1.386 . S
H4049 C4065 0.930 . S
H4050 C4066 0.931 . S
C4051 H4039 0.929 . S
C4051 C4045 1.390 . S
C4051 C4048 1.386 . S
C4052 C4047 1.490 . S
C4052 C4054 1.395 . S
C4052 C4055 1.403 . S
H4053 C4059 0.930 . S
C4054 H4040 0.930 . S
C4054 C4052 1.395 . S
C4054 C4057 1.403 . S
C4055 C4052 1.403 . S
C4055 C4056 1.524 . S
C4055 C4059 1.400 . S
C4056 H4041 0.960 . S
C4056 H4042 0.960 . S
C4056 H4043 0.960 . S
C4056 C4055 1.524 . S
C4057 C4054 1.403 . S
C4057 C4058 1.392 . S
C4057 C4061 1.495 . S
C4058 C4057 1.392 . S
C4058 C4059 1.385 . S
C4058 C4060 1.478 . S
C4059 H4053 0.930 . S
C4059 C4055 1.400 . S
C4059 C4058 1.385 . S
C4060 C4058 1.478 . S
C4060 C4062 1.381 . S
C4060 C4066 1.383 . S
C4061 C4057 1.495 . S
C4061 H4067 0.959 . S
C4061 H4068 0.961 . S
C4061 H4069 0.960 . S
C4062 C4060 1.381 . S
C4062 C4063 1.394 . S
C4062 H4070 0.930 . S
C4063 C4062 1.394 . S
C4063 C4064 1.383 . S
C4063 H4071 0.929 . S
C4064 C4063 1.383 . S
C4064 C4065 1.377 . S
C4065 H4049 0.930 . S
C4065 C4064 1.377 . S
C4065 C4066 1.379 . S
C4066 H4050 0.931 . S
C4066 C4060 1.383 . S
C4066 C4065 1.379 . S
H4067 C4061 0.959 . S
H4068 C4061 0.961 . S
H4069 C4061 0.960 . S
H4070 C4062 0.930 . S
H4071 C4063 0.929 . S
H4072 C4080 0.929 . S
H4073 C4082 0.930 . S
H4074 C4084 0.930 . S
H4075 C4087 0.929 . S
H4076 C4090 0.930 . S
H4077 C4092 0.960 . S
H4078 C4092 0.960 . S
H4079 C4092 0.960 . S
C4080 H4072 0.929 . S
C4080 C4081 1.377 . S
C4080 C4082 1.384 . S
C4081 C4080 1.377 . S
C4081 C4087 1.390 . S
C4082 H4073 0.930 . S
C4082 C4080 1.384 . S
C4082 C4083 1.372 . S
C4083 C4082 1.372 . S
C4083 C4084 1.400 . S
C4083 C4088 1.490 . S
C4084 H4074 0.930 . S
C4084 C4083 1.400 . S
C4084 C4087 1.386 . S
H4085 C4101 0.930 . S
H4086 C4102 0.931 . S
C4087 H4075 0.929 . S
C4087 C4081 1.390 . S
C4087 C4084 1.386 . S
C4088 C4083 1.490 . S
C4088 C4090 1.395 . S
C4088 C4091 1.403 . S
H4089 C4095 0.930 . S
C4090 H4076 0.930 . S
C4090 C4088 1.395 . S
C4090 C4093 1.403 . S
C4091 C4088 1.403 . S
C4091 C4092 1.524 . S
C4091 C4095 1.400 . S
C4092 H4077 0.960 . S
C4092 H4078 0.960 . S
C4092 H4079 0.960 . S
C4092 C4091 1.524 . S
C4093 C4090 1.403 . S
C4093 C4094 1.392 . S
C4093 C4097 1.495 . S
C4094 C4093 1.392 . S
C4094 C4095 1.385 . S
C4094 C4096 1.478 . S
C4095 H4089 0.930 . S
C4095 C4091 1.400 . S
C4095 C4094 1.385 . S
C4096 C4094 1.478 . S
C4096 C4098 1.381 1_655 S
C4096 C4102 1.383 . S
C4097 C4093 1.495 . S
C4097 H4103 0.959 . S
C4097 H4104 0.961 . S
C4097 H4105 0.960 1_655 S
C4098 C4096 1.381 1_455 S
C4098 C4099 1.394 . S
C4098 H4106 0.930 . S
C4099 C4098 1.394 . S
C4099 C4100 1.383 . S
C4099 H4107 0.929 . S
C4100 C4099 1.383 . S
C4100 C4101 1.377 1_455 S
C4101 H4085 0.930 . S
C4101 C4100 1.377 1_655 S
C4101 C4102 1.379 . S
C4102 H4086 0.931 . S
C4102 C4096 1.383 . S
C4102 C4101 1.379 . S
H4103 C4097 0.959 . S
H4104 C4097 0.961 . S
H4105 C4097 0.960 1_455 S
H4106 C4098 0.930 . S
H4107 C4099 0.929 . S
H4108 C4116 0.929 . S
H4109 C4118 0.930 . S
H4110 C4120 0.930 . S
H4111 C4123 0.929 . S
H4112 C4126 0.930 . S
H4113 C4128 0.960 . S
H4114 C4128 0.960 . S
H4115 C4128 0.960 . S
C4116 H4108 0.929 . S
C4116 C4117 1.377 . S
C4116 C4118 1.384 . S
C4117 C4116 1.377 . S
C4117 C4123 1.390 . S
C4118 H4109 0.930 . S
C4118 C4116 1.384 . S
C4118 C4119 1.372 . S
C4119 C4118 1.372 . S
C4119 C4120 1.400 . S
C4119 C4124 1.490 . S
C4120 H4110 0.930 . S
C4120 C4119 1.400 . S
C4120 C4123 1.386 . S
H4121 C4137 0.930 . S
H4122 C4138 0.931 . S
C4123 H4111 0.929 . S
C4123 C4117 1.390 . S
C4123 C4120 1.386 . S
C4124 C4119 1.490 . S
C4124 C4126 1.395 . S
C4124 C4127 1.403 . S
H4125 C4131 0.930 . S
C4126 H4112 0.930 . S
C4126 C4124 1.395 . S
C4126 C4129 1.403 . S
C4127 C4124 1.403 . S
C4127 C4128 1.524 . S
C4127 C4131 1.400 . S
C4128 H4113 0.960 . S
C4128 H4114 0.960 . S
C4128 H4115 0.960 . S
C4128 C4127 1.524 . S
C4129 C4126 1.403 . S
C4129 C4130 1.392 . S
C4129 C4133 1.495 . S
C4130 C4129 1.392 . S
C4130 C4131 1.385 . S
C4130 C4132 1.478 . S
C4131 H4125 0.930 . S
C4131 C4127 1.400 . S
C4131 C4130 1.385 . S
C4132 C4130 1.478 . S
C4132 C4134 1.381 . S
C4132 C4138 1.383 . S
C4133 C4129 1.495 . S
C4133 H4139 0.959 . S
C4133 H4140 0.961 . S
C4133 H4141 0.960 . S
C4134 C4132 1.381 . S
C4134 C4135 1.394 . S
C4134 H4142 0.930 . S
C4135 C4134 1.394 . S
C4135 C4136 1.383 . S
C4135 H4143 0.929 . S
C4136 C4135 1.383 . S
C4136 C4137 1.377 . S
C4137 H4121 0.930 . S
C4137 C4136 1.377 . S
C4137 C4138 1.379 . S
C4138 H4122 0.931 . S
C4138 C4132 1.383 . S
C4138 C4137 1.379 . S
H4139 C4133 0.959 . S
H4140 C4133 0.961 . S
H4141 C4133 0.960 . S
H4142 C4134 0.930 . S
H4143 C4135 0.929 . S
H4144 C4152 0.929 . S
H4145 C4154 0.930 . S
H4146 C4156 0.930 . S
H4147 C4159 0.929 . S
H4148 C4162 0.930 . S
H4149 C4164 0.960 . S
H4150 C4164 0.960 . S
H4151 C4164 0.960 . S
C4152 H4144 0.929 . S
C4152 C4153 1.377 . S
C4152 C4154 1.384 . S
C4153 C4152 1.377 . S
C4153 C4159 1.390 . S
C4154 H4145 0.930 . S
C4154 C4152 1.384 . S
C4154 C4155 1.372 . S
C4155 C4154 1.372 . S
C4155 C4156 1.400 . S
C4155 C4160 1.490 . S
C4156 H4146 0.930 . S
C4156 C4155 1.400 . S
C4156 C4159 1.386 . S
H4157 C4173 0.930 . S
H4158 C4174 0.931 . S
C4159 H4147 0.929 . S
C4159 C4153 1.390 . S
C4159 C4156 1.386 . S
C4160 C4155 1.490 . S
C4160 C4162 1.395 . S
C4160 C4163 1.403 . S
H4161 C4167 0.930 . S
C4162 H4148 0.930 . S
C4162 C4160 1.395 . S
C4162 C4165 1.403 . S
C4163 C4160 1.403 . S
C4163 C4164 1.524 . S
C4163 C4167 1.400 . S
C4164 H4149 0.960 . S
C4164 H4150 0.960 . S
C4164 H4151 0.960 . S
C4164 C4163 1.524 . S
C4165 C4162 1.403 . S
C4165 C4166 1.392 . S
C4165 C4169 1.495 . S
C4166 C4165 1.392 . S
C4166 C4167 1.385 . S
C4166 C4168 1.478 . S
C4167 H4161 0.930 . S
C4167 C4163 1.400 . S
C4167 C4166 1.385 . S
C4168 C4166 1.478 . S
C4168 C4170 1.381 . S
C4168 C4174 1.383 . S
C4169 C4165 1.495 . S
C4169 H4175 0.959 . S
C4169 H4176 0.961 . S
C4169 H4177 0.960 . S
C4170 C4168 1.381 . S
C4170 C4171 1.394 . S
C4170 H4178 0.930 . S
C4171 C4170 1.394 . S
C4171 C4172 1.383 . S
C4171 H4179 0.929 . S
C4172 C4171 1.383 . S
C4172 C4173 1.377 . S
C4173 H4157 0.930 . S
C4173 C4172 1.377 . S
C4173 C4174 1.379 . S
C4174 H4158 0.931 . S
C4174 C4168 1.383 . S
C4174 C4173 1.379 . S
H4175 C4169 0.959 . S
H4176 C4169 0.961 . S
H4177 C4169 0.960 . S
H4178 C4170 0.930 . S
H4179 C4171 0.929 . S
H4180 C4188 0.929 . S
H4181 C4190 0.930 . S
H4182 C4192 0.930 . S
H4183 C4195 0.929 . S
H4184 C4198 0.930 . S
H4185 C4200 0.960 . S
H4186 C4200 0.960 . S
H4187 C4200 0.960 . S
C4188 H4180 0.929 . S
C4188 C4189 1.377 . S
C4188 C4190 1.384 . S
C4189 C4188 1.377 . S
C4189 C4195 1.390 . S
C4190 H4181 0.930 . S
C4190 C4188 1.384 . S
C4190 C4191 1.372 . S
C4191 C4190 1.372 . S
C4191 C4192 1.400 . S
C4191 C4196 1.490 . S
C4192 H4182 0.930 . S
C4192 C4191 1.400 . S
C4192 C4195 1.386 . S
H4193 C4209 0.930 . S
H4194 C4210 0.931 . S
C4195 H4183 0.929 . S
C4195 C4189 1.390 . S
C4195 C4192 1.386 . S
C4196 C4191 1.490 . S
C4196 C4198 1.395 . S
C4196 C4199 1.403 . S
H4197 C4203 0.930 . S
C4198 H4184 0.930 . S
C4198 C4196 1.395 . S
C4198 C4201 1.403 . S
C4199 C4196 1.403 . S
C4199 C4200 1.524 . S
C4199 C4203 1.400 . S
C4200 H4185 0.960 . S
C4200 H4186 0.960 . S
C4200 H4187 0.960 . S
C4200 C4199 1.524 . S
C4201 C4198 1.403 . S
C4201 C4202 1.392 . S
C4201 C4205 1.495 . S
C4202 C4201 1.392 . S
C4202 C4203 1.385 . S
C4202 C4204 1.478 . S
C4203 H4197 0.930 . S
C4203 C4199 1.400 . S
C4203 C4202 1.385 . S
C4204 C4202 1.478 . S
C4204 C4206 1.381 . S
C4204 C4210 1.383 . S
C4205 C4201 1.495 . S
C4205 H4211 0.959 . S
C4205 H4212 0.961 . S
C4205 H4213 0.960 . S
C4206 C4204 1.381 . S
C4206 C4207 1.394 . S
C4206 H4214 0.930 . S
C4207 C4206 1.394 . S
C4207 C4208 1.383 . S
C4207 H4215 0.929 . S
C4208 C4207 1.383 . S
C4208 C4209 1.377 1_565 S
C4209 H4193 0.930 . S
C4209 C4208 1.377 1_545 S
C4209 C4210 1.379 1_545 S
C4210 H4194 0.931 . S
C4210 C4204 1.383 . S
C4210 C4209 1.379 1_565 S
H4211 C4205 0.959 . S
H4212 C4205 0.961 . S
H4213 C4205 0.960 . S
H4214 C4206 0.930 . S
H4215 C4207 0.929 . S
H4216 C4224 0.929 . S
H4217 C4226 0.930 . S
H4218 C4228 0.930 . S
H4219 C4231 0.929 . S
H4220 C4234 0.930 . S
H4221 C4236 0.960 . S
H4222 C4236 0.960 . S
H4223 C4236 0.960 . S
C4224 H4216 0.929 . S
C4224 C4225 1.377 . S
C4224 C4226 1.384 . S
C4225 C4224 1.377 . S
C4225 C4231 1.390 . S
C4226 H4217 0.930 . S
C4226 C4224 1.384 . S
C4226 C4227 1.372 . S
C4227 C4226 1.372 . S
C4227 C4228 1.400 . S
C4227 C4232 1.490 . S
C4228 H4218 0.930 . S
C4228 C4227 1.400 . S
C4228 C4231 1.386 . S
H4229 C4245 0.930 . S
H4230 C4246 0.931 . S
C4231 H4219 0.929 . S
C4231 C4225 1.390 . S
C4231 C4228 1.386 . S
C4232 C4227 1.490 . S
C4232 C4234 1.395 . S
C4232 C4235 1.403 . S
H4233 C4239 0.930 . S
C4234 H4220 0.930 . S
C4234 C4232 1.395 . S
C4234 C4237 1.403 . S
C4235 C4232 1.403 . S
C4235 C4236 1.524 . S
C4235 C4239 1.400 . S
C4236 H4221 0.960 . S
C4236 H4222 0.960 . S
C4236 H4223 0.960 . S
C4236 C4235 1.524 . S
C4237 C4234 1.403 . S
C4237 C4238 1.392 . S
C4237 C4241 1.495 . S
C4238 C4237 1.392 . S
C4238 C4239 1.385 . S
C4238 C4240 1.478 . S
C4239 H4233 0.930 . S
C4239 C4235 1.400 . S
C4239 C4238 1.385 . S
C4240 C4238 1.478 . S
C4240 C4242 1.381 . S
C4240 C4246 1.383 . S
C4241 C4237 1.495 . S
C4241 H4247 0.959 . S
C4241 H4248 0.961 . S
C4241 H4249 0.960 . S
C4242 C4240 1.381 . S
C4242 C4243 1.394 . S
C4242 H4250 0.930 . S
C4243 C4242 1.394 . S
C4243 C4244 1.383 . S
C4243 H4251 0.929 . S
C4244 C4243 1.383 . S
C4244 C4245 1.377 . S
C4245 H4229 0.930 . S
C4245 C4244 1.377 . S
C4245 C4246 1.379 . S
C4246 H4230 0.931 . S
C4246 C4240 1.383 . S
C4246 C4245 1.379 . S
H4247 C4241 0.959 . S
H4248 C4241 0.961 . S
H4249 C4241 0.960 . S
H4250 C4242 0.930 . S
H4251 C4243 0.929 . S
H4252 C4260 0.929 . S
H4253 C4262 0.930 . S
H4254 C4264 0.930 . S
H4255 C4267 0.929 . S
H4256 C4270 0.930 . S
H4257 C4272 0.960 . S
H4258 C4272 0.960 . S
H4259 C4272 0.960 . S
C4260 H4252 0.929 . S
C4260 C4261 1.377 . S
C4260 C4262 1.384 . S
C4261 C4260 1.377 . S
C4261 C4267 1.390 . S
C4262 H4253 0.930 . S
C4262 C4260 1.384 . S
C4262 C4263 1.372 . S
C4263 C4262 1.372 . S
C4263 C4264 1.400 . S
C4263 C4268 1.490 . S
C4264 H4254 0.930 . S
C4264 C4263 1.400 . S
C4264 C4267 1.386 . S
H4265 C4281 0.930 . S
H4266 C4282 0.931 . S
C4267 H4255 0.929 . S
C4267 C4261 1.390 . S
C4267 C4264 1.386 . S
C4268 C4263 1.490 . S
C4268 C4270 1.395 . S
C4268 C4271 1.403 . S
H4269 C4275 0.930 . S
C4270 H4256 0.930 . S
C4270 C4268 1.395 . S
C4270 C4273 1.403 . S
C4271 C4268 1.403 . S
C4271 C4272 1.524 . S
C4271 C4275 1.400 . S
C4272 H4257 0.960 . S
C4272 H4258 0.960 . S
C4272 H4259 0.960 . S
C4272 C4271 1.524 . S
C4273 C4270 1.403 . S
C4273 C4274 1.392 . S
C4273 C4277 1.495 . S
C4274 C4273 1.392 . S
C4274 C4275 1.385 . S
C4274 C4276 1.478 . S
C4275 H4269 0.930 . S
C4275 C4271 1.400 . S
C4275 C4274 1.385 . S
C4276 C4274 1.478 . S
C4276 C4278 1.381 . S
C4276 C4282 1.383 . S
C4277 C4273 1.495 . S
C4277 H4283 0.959 1_554 S
C4277 H4284 0.961 1_554 S
C4277 H4285 0.960 . S
C4278 C4276 1.381 . S
C4278 C4279 1.394 . S
C4278 H4286 0.930 . S
C4279 C4278 1.394 . S
C4279 C4280 1.383 . S
C4279 H4287 0.929 . S
C4280 C4279 1.383 . S
C4280 C4281 1.377 . S
C4281 H4265 0.930 . S
C4281 C4280 1.377 . S
C4281 C4282 1.379 . S
C4282 H4266 0.931 . S
C4282 C4276 1.383 . S
C4282 C4281 1.379 . S
H4283 C4277 0.959 1_556 S
H4284 C4277 0.961 1_556 S
H4285 C4277 0.960 . S
H4286 C4278 0.930 . S
H4287 C4279 0.929 . S
H4288 C4296 0.929 . S
H4289 C4298 0.930 . S
H4290 C4300 0.930 . S
H4291 C4303 0.929 . S
H4292 C4306 0.930 . S
H4293 C4308 0.960 . S
H4294 C4308 0.960 . S
H4295 C4308 0.960 . S
C4296 H4288 0.929 . S
C4296 C4297 1.377 . S
C4296 C4298 1.384 . S
C4297 C4296 1.377 . S
C4297 C4303 1.390 . S
C4298 H4289 0.930 . S
C4298 C4296 1.384 . S
C4298 C4299 1.372 . S
C4299 C4298 1.372 . S
C4299 C4300 1.400 . S
C4299 C4304 1.490 . S
C4300 H4290 0.930 . S
C4300 C4299 1.400 . S
C4300 C4303 1.386 . S
H4301 C4317 0.930 . S
H4302 C4318 0.931 . S
C4303 H4291 0.929 . S
C4303 C4297 1.390 . S
C4303 C4300 1.386 . S
C4304 C4299 1.490 . S
C4304 C4306 1.395 . S
C4304 C4307 1.403 . S
H4305 C4311 0.930 . S
C4306 H4292 0.930 . S
C4306 C4304 1.395 . S
C4306 C4309 1.403 . S
C4307 C4304 1.403 . S
C4307 C4308 1.524 . S
C4307 C4311 1.400 . S
C4308 H4293 0.960 . S
C4308 H4294 0.960 . S
C4308 H4295 0.960 . S
C4308 C4307 1.524 . S
C4309 C4306 1.403 . S
C4309 C4310 1.392 . S
C4309 C4313 1.495 . S
C4310 C4309 1.392 . S
C4310 C4311 1.385 . S
C4310 C4312 1.478 . S
C4311 H4305 0.930 . S
C4311 C4307 1.400 . S
C4311 C4310 1.385 . S
C4312 C4310 1.478 . S
C4312 C4314 1.381 . S
C4312 C4318 1.383 . S
C4313 C4309 1.495 . S
C4313 H4319 0.959 . S
C4313 H4320 0.961 . S
C4313 H4321 0.960 . S
C4314 C4312 1.381 . S
C4314 C4315 1.394 . S
C4314 H4322 0.930 . S
C4315 C4314 1.394 . S
C4315 C4316 1.383 . S
C4315 H4323 0.929 . S
C4316 C4315 1.383 . S
C4316 C4317 1.377 . S
C4317 H4301 0.930 . S
C4317 C4316 1.377 . S
C4317 C4318 1.379 . S
C4318 H4302 0.931 . S
C4318 C4312 1.383 . S
C4318 C4317 1.379 . S
H4319 C4313 0.959 . S
H4320 C4313 0.961 . S
H4321 C4313 0.960 . S
H4322 C4314 0.930 . S
H4323 C4315 0.929 . S
H4324 C4332 0.929 . S
H4325 C4334 0.930 . S
H4326 C4336 0.930 . S
H4327 C4339 0.929 . S
H4328 C4342 0.930 . S
H4329 C4344 0.960 . S
H4330 C4344 0.960 . S
H4331 C4344 0.960 . S
C4332 H4324 0.929 . S
C4332 C4333 1.377 . S
C4332 C4334 1.384 . S
C4333 C4332 1.377 . S
C4333 C4339 1.390 . S
C4334 H4325 0.930 . S
C4334 C4332 1.384 . S
C4334 C4335 1.372 . S
C4335 C4334 1.372 . S
C4335 C4336 1.400 . S
C4335 C4340 1.490 . S
C4336 H4326 0.930 . S
C4336 C4335 1.400 . S
C4336 C4339 1.386 . S
H4337 C4353 0.930 . S
H4338 C4354 0.931 . S
C4339 H4327 0.929 . S
C4339 C4333 1.390 . S
C4339 C4336 1.386 . S
C4340 C4335 1.490 . S
C4340 C4342 1.395 . S
C4340 C4343 1.403 . S
H4341 C4347 0.930 . S
C4342 H4328 0.930 . S
C4342 C4340 1.395 . S
C4342 C4345 1.403 . S
C4343 C4340 1.403 . S
C4343 C4344 1.524 . S
C4343 C4347 1.400 . S
C4344 H4329 0.960 . S
C4344 H4330 0.960 . S
C4344 H4331 0.960 . S
C4344 C4343 1.524 . S
C4345 C4342 1.403 . S
C4345 C4346 1.392 . S
C4345 C4349 1.495 1_554 S
C4346 C4345 1.392 . S
C4346 C4347 1.385 . S
C4346 C4348 1.478 . S
C4347 H4341 0.930 . S
C4347 C4343 1.400 . S
C4347 C4346 1.385 . S
C4348 C4346 1.478 . S
C4348 C4350 1.381 . S
C4348 C4354 1.383 1_554 S
C4349 C4345 1.495 1_556 S
C4349 H4355 0.959 . S
C4349 H4356 0.961 . S
C4349 H4357 0.960 . S
C4350 C4348 1.381 . S
C4350 C4351 1.394 . S
C4350 H4358 0.930 . S
C4351 C4350 1.394 . S
C4351 C4352 1.383 . S
C4351 H4359 0.929 . S
C4352 C4351 1.383 . S
C4352 C4353 1.377 1_554 S
C4353 H4337 0.930 . S
C4353 C4352 1.377 1_556 S
C4353 C4354 1.379 . S
C4354 H4338 0.931 . S
C4354 C4348 1.383 1_556 S
C4354 C4353 1.379 . S
H4355 C4349 0.959 . S
H4356 C4349 0.961 . S
H4357 C4349 0.960 . S
H4358 C4350 0.930 . S
H4359 C4351 0.929 . S
H4360 C4368 0.929 . S
H4361 C4370 0.930 . S
H4362 C4372 0.930 . S
H4363 C4375 0.929 . S
H4364 C4378 0.930 . S
H4365 C4380 0.960 . S
H4366 C4380 0.960 . S
H4367 C4380 0.960 . S
C4368 H4360 0.929 . S
C4368 C4369 1.377 . S
C4368 C4370 1.384 . S
C4369 C4368 1.377 . S
C4369 C4375 1.390 . S
C4370 H4361 0.930 . S
C4370 C4368 1.384 . S
C4370 C4371 1.372 . S
C4371 C4370 1.372 . S
C4371 C4372 1.400 . S
C4371 C4376 1.490 . S
C4372 H4362 0.930 . S
C4372 C4371 1.400 . S
C4372 C4375 1.386 . S
H4373 C4389 0.930 . S
H4374 C4390 0.931 . S
C4375 H4363 0.929 . S
C4375 C4369 1.390 . S
C4375 C4372 1.386 . S
C4376 C4371 1.490 . S
C4376 C4378 1.395 . S
C4376 C4379 1.403 . S
H4377 C4383 0.930 . S
C4378 H4364 0.930 . S
C4378 C4376 1.395 . S
C4378 C4381 1.403 . S
C4379 C4376 1.403 . S
C4379 C4380 1.524 . S
C4379 C4383 1.400 . S
C4380 H4365 0.960 . S
C4380 H4366 0.960 . S
C4380 H4367 0.960 . S
C4380 C4379 1.524 . S
C4381 C4378 1.403 . S
C4381 C4382 1.392 . S
C4381 C4385 1.495 . S
C4382 C4381 1.392 . S
C4382 C4383 1.385 . S
C4382 C4384 1.478 . S
C4383 H4377 0.930 . S
C4383 C4379 1.400 . S
C4383 C4382 1.385 . S
C4384 C4382 1.478 . S
C4384 C4386 1.381 . S
C4384 C4390 1.383 . S
C4385 C4381 1.495 . S
C4385 H4391 0.959 . S
C4385 H4392 0.961 . S
C4385 H4393 0.960 . S
C4386 C4384 1.381 . S
C4386 C4387 1.394 . S
C4386 H4394 0.930 . S
C4387 C4386 1.394 . S
C4387 C4388 1.383 . S
C4387 H4395 0.929 . S
C4388 C4387 1.383 . S
C4388 C4389 1.377 . S
C4389 H4373 0.930 . S
C4389 C4388 1.377 . S
C4389 C4390 1.379 . S
C4390 H4374 0.931 . S
C4390 C4384 1.383 . S
C4390 C4389 1.379 . S
H4391 C4385 0.959 . S
H4392 C4385 0.961 . S
H4393 C4385 0.960 . S
H4394 C4386 0.930 . S
H4395 C4387 0.929 . S
H4396 C4404 0.929 . S
H4397 C4406 0.930 . S
H4398 C4408 0.930 . S
H4399 C4411 0.929 . S
H4400 C4414 0.930 . S
H4401 C4416 0.960 . S
H4402 C4416 0.960 . S
H4403 C4416 0.960 . S
C4404 H4396 0.929 . S
C4404 C4405 1.377 . S
C4404 C4406 1.384 . S
C4405 C4404 1.377 . S
C4405 C4411 1.390 . S
C4406 H4397 0.930 . S
C4406 C4404 1.384 . S
C4406 C4407 1.372 . S
C4407 C4406 1.372 . S
C4407 C4408 1.400 . S
C4407 C4412 1.490 . S
C4408 H4398 0.930 . S
C4408 C4407 1.400 . S
C4408 C4411 1.386 . S
H4409 C4425 0.930 . S
H4410 C4426 0.931 . S
C4411 H4399 0.929 . S
C4411 C4405 1.390 . S
C4411 C4408 1.386 . S
C4412 C4407 1.490 . S
C4412 C4414 1.395 . S
C4412 C4415 1.403 . S
H4413 C4419 0.930 . S
C4414 H4400 0.930 . S
C4414 C4412 1.395 . S
C4414 C4417 1.403 . S
C4415 C4412 1.403 . S
C4415 C4416 1.524 . S
C4415 C4419 1.400 . S
C4416 H4401 0.960 . S
C4416 H4402 0.960 . S
C4416 H4403 0.960 . S
C4416 C4415 1.524 . S
C4417 C4414 1.403 . S
C4417 C4418 1.392 . S
C4417 C4421 1.495 . S
C4418 C4417 1.392 . S
C4418 C4419 1.385 . S
C4418 C4420 1.478 . S
C4419 H4413 0.930 . S
C4419 C4415 1.400 . S
C4419 C4418 1.385 . S
C4420 C4418 1.478 . S
C4420 C4422 1.381 . S
C4420 C4426 1.383 . S
C4421 C4417 1.495 . S
C4421 H4427 0.959 . S
C4421 H4428 0.961 . S
C4421 H4429 0.960 . S
C4422 C4420 1.381 . S
C4422 C4423 1.394 . S
C4422 H4430 0.930 . S
C4423 C4422 1.394 . S
C4423 C4424 1.383 . S
C4423 H4431 0.929 . S
C4424 C4423 1.383 . S
C4424 C4425 1.377 . S
C4425 H4409 0.930 . S
C4425 C4424 1.377 . S
C4425 C4426 1.379 . S
C4426 H4410 0.931 . S
C4426 C4420 1.383 . S
C4426 C4425 1.379 . S
H4427 C4421 0.959 . S
H4428 C4421 0.961 . S
H4429 C4421 0.960 . S
H4430 C4422 0.930 . S
H4431 C4423 0.929 . S
C985 C105 2.044 . S
C1004 C367 1.995 . S
C1021 C65 1.755 . S
C1040 C378 1.738 . S
C1057 C73 1.559 . S
C1076 C447 1.547 . S
C1112 C460 1.222 . S
C1093 C92 1.236 . S
C1129 C17 2.597 . S
C1148 C516 2.560 . S
C1184 C567 1.920 . S
C1165 C37 1.958 . S
C1220 C596 2.437 . S
C1201 C49 2.382 . S
C1237 C8 2.370 . S
C1256 C647 2.298 . S
C1292 C338 1.095 . S
C1273 C231 1.093 . S
C1309 C241 0.819 . S
C1328 C380 0.778 . S
C1364 C418 1.033 . S
C1345 C273 1.040 . S
C1400 C487 1.522 . S
C1381 C171 1.523 . S
C1417 C227 0.479 . S
C1436 C521 0.522 . S
C1472 C538 1.427 . S
C1453 C245 1.382 . S
C1508 C601 0.285 . S
C1489 C269 0.257 . S
C1544 C618 2.013 . S
C1525 C175 2.032 . S
C1580 C340 1.464 . S
C1561 C162 1.536 1_554 S
C1597 C289 1.620 . S
C1616 C679 1.597 . S
C1652 C700 1.285 . S
C1633 C330 1.319 . S
C1688 C759 0.230 . S
C1669 C317 0.259 . S
C1705 C120 0.854 . S
C1724 C620 0.822 . S
C1741 C134 1.364 . S
C1760 C420 1.357 . S
C1777 C331 0.827 . S
C1796 C778 0.805 . S
C1832 C847 0.850 . S
C1813 C303 0.889 . S
C1868 C356 2.056 . S
C1849 C59 2.062 . S
C1904 C839 1.805 . S
C1885 C107 1.805 . S
C1921 C91 1.596 . S
C1940 C436 1.608 . S
C1957 C78 1.264 . S
C1976 C801 1.231 . S
C2012 C527 2.614 . S
C1993 C7 2.614 . S
C2029 C51 1.996 . S
C2048 C716 1.961 . S
C2084 C607 2.486 1_556 S
C2065 C31 2.522 . S
C2120 C876 2.353 . S
C2101 C22 2.392 1_655 S
C2156 C359 1.127 . S
C2137 C143 1.150 . S
C2192 C841 0.812 . S
C2173 C315 0.850 . S
C2209 C115 1.113 . S
C2228 C439 1.093 . S
C2245 C287 1.562 . S
C2264 C796 1.583 . S
C2281 C147 0.572 . S
C2300 C500 0.555 . S
C2336 C719 1.466 . S
C2317 C311 1.471 . S
C2353 C119 0.392 . S
C2372 C580 0.294 . S
C2389 C283 2.103 . S
C2408 C879 2.072 . S
C2425 C190 1.517 . S
C2444 C361 1.498 . S
C2461 C177 1.649 . S
C2480 C658 1.620 . S
C2497 C260 1.286 . S
C2516 C561 1.290 . S
C2533 C247 0.310 . S
C2552 C738 0.390 . S
C2588 C881 0.885 . S
C2569 C274 0.856 . S
C2605 C218 1.360 . S
C2624 C441 1.346 . S
C2660 C479 0.883 . S
C2641 C261 0.881 . S
C2696 C396 0.878 . S
C2677 C205 0.929 . S
C2713 C77 2.047 . S
C2732 C927 2.002 . S
C2768 C818 1.739 . S
C2749 C93 1.755 . S
C2785 C101 1.560 . S
C2804 C967 1.510 . S
C2821 C64 1.235 . S
C2840 C780 1.214 . S
C2857 C45 2.598 . S
C2876 C676 2.545 . S
C2912 C727 1.937 . S
C2893 C9 1.955 . S
C2948 C756 2.441 . S
C2929 C21 2.382 . S
C2984 C887 2.325 . S
C2965 C36 2.369 . S
C3020 C898 1.108 . S
C3001 C259 1.095 . S
C3037 C185 0.819 . S
C3056 C820 0.779 . S
C3092 C938 1.075 . S
C3073 C203 1.032 . S
C3128 C807 1.531 . S
C3109 C213 1.524 . S
C3164 C681 0.553 . S
C3145 C255 0.474 . S
C3181 C189 1.375 . S
C3200 C698 1.405 . S
C3236 C761 0.385 . S
C3217 C199 0.252 . S
C3253 C217 2.029 . S
C3272 C858 2.032 . S
C3308 C900 1.450 . S
C3289 C316 1.542 . S
C3325 C135 1.619 . S
C3344 C519 1.583 . S
C3380 C540 1.286 . S
C3361 C148 1.326 1_565 S
C3416 C599 0.317 . S
C3397 C163 0.254 . S
C3452 C860 0.807 . S
C3433 C302 0.855 . S
C3469 C288 1.363 . S
C3488 C940 1.349 . S
C3524 C458 0.835 . S
C3505 C149 0.818 . S
C3560 C407 0.871 . S
C3541 C121 0.888 . S
C3577 C87 2.061 . S
C3596 C916 2.030 . S
C3632 C399 1.803 . S
C3613 C79 1.803 . S
C3649 C63 1.593 . S
C3668 C956 1.597 . S
C3685 C106 1.266 . S
C3704 C481 1.256 . S
C3721 C35 2.610 . S
C3740 C687 2.631 1_556 S
C3776 C556 1.992 . S
C3757 C23 1.998 . S
C3793 C3 2.521 . S
C3812 C767 2.490 . S
C3829 C50 2.391 . S
C3848 C636 2.345 . S
C3884 C919 1.136 . S
C3865 C325 1.150 . S
C3901 C161 0.853 . S
C3920 C401 0.883 . S
C3956 C959 1.078 . S
C3937 C297 1.111 . S
C3973 C133 1.567 . S
C3992 C476 1.597 . S
C4009 C329 0.549 . S
C4028 C660 0.493 . S
C4064 C559 1.445 . S
C4045 C157 1.479 . S
C4081 C301 0.416 . S
C4100 C740 0.404 . S
C4136 C639 2.060 . S
C4117 C129 2.102 . S
C4172 C921 1.440 . S
C4153 C246 1.510 . S
C4208 C498 1.635 1_665 S
C4189 C219 1.650 . S
C4225 C232 1.281 . S
C4244 C721 1.263 . S
C4280 C578 0.414 . S
C4261 C191 0.318 . S
C4297 C204 0.844 . S
C4316 C641 0.867 . S
C4333 C176 1.365 . S
C4352 C961 1.372 . S
C4388 C799 0.877 . S
C4369 C233 0.875 . S
C4424 C836 0.943 . S
C4405 C275 0.924 . S
