# Generated by pormake.
# Topology gar, (4,6)-cn, num edge types: 1
# Building blocks:
#     Node 0, Type 0, BuildingBlock: KUFVIS_clean_sbu_0, # of connection points: 4
#     Node 1, Type 0, BuildingBlock: KUFVIS_clean_sbu_0, # of connection points: 4
#     Node 2, Type 0, BuildingBlock: KUFVIS_clean_sbu_0, # of connection points: 4
#     Node 3, Type 0, BuildingBlock: KUFVIS_clean_sbu_0, # of connection points: 4
#     Node 4, Type 0, BuildingBlock: KUFVIS_clean_sbu_0, # of connection points: 4
#     Node 5, Type 0, BuildingBlock: KUFVIS_clean_sbu_0, # of connection points: 4
#     Node 6, Type 0, BuildingBlock: KUFVIS_clean_sbu_0, # of connection points: 4
#     Node 7, Type 0, BuildingBlock: KUFVIS_clean_sbu_0, # of connection points: 4
#     Node 8, Type 0, BuildingBlock: KUFVIS_clean_sbu_0, # of connection points: 4
#     Node 9, Type 0, BuildingBlock: KUFVIS_clean_sbu_0, # of connection points: 4
#     Node 10, Type 0, BuildingBlock: KUFVIS_clean_sbu_0, # of connection points: 4
#     Node 11, Type 0, BuildingBlock: KUFVIS_clean_sbu_0, # of connection points: 4
#     Node 12, Type 0, BuildingBlock: KUFVIS_clean_sbu_0, # of connection points: 4
#     Node 13, Type 0, BuildingBlock: KUFVIS_clean_sbu_0, # of connection points: 4
#     Node 14, Type 0, BuildingBlock: KUFVIS_clean_sbu_0, # of connection points: 4
#     Node 15, Type 0, BuildingBlock: KUFVIS_clean_sbu_0, # of connection points: 4
#     Node 16, Type 0, BuildingBlock: KUFVIS_clean_sbu_0, # of connection points: 4
#     Node 17, Type 0, BuildingBlock: KUFVIS_clean_sbu_0, # of connection points: 4
#     Node 18, Type 0, BuildingBlock: KUFVIS_clean_sbu_0, # of connection points: 4
#     Node 19, Type 0, BuildingBlock: KUFVIS_clean_sbu_0, # of connection points: 4
#     Node 20, Type 0, BuildingBlock: KUFVIS_clean_sbu_0, # of connection points: 4
#     Node 21, Type 0, BuildingBlock: KUFVIS_clean_sbu_0, # of connection points: 4
#     Node 22, Type 0, BuildingBlock: KUFVIS_clean_sbu_0, # of connection points: 4
#     Node 23, Type 0, BuildingBlock: KUFVIS_clean_sbu_0, # of connection points: 4
#     Node 24, Type 1, BuildingBlock: KUMBOL_clean_sbu_1, # of connection points: 6
#     Node 25, Type 1, BuildingBlock: KUMBOL_clean_sbu_1, # of connection points: 6
#     Node 26, Type 1, BuildingBlock: KUMBOL_clean_sbu_1, # of connection points: 6
#     Node 27, Type 1, BuildingBlock: KUMBOL_clean_sbu_1, # of connection points: 6
#     Node 28, Type 1, BuildingBlock: KUMBOL_clean_sbu_1, # of connection points: 6
#     Node 29, Type 1, BuildingBlock: KUMBOL_clean_sbu_1, # of connection points: 6
#     Node 30, Type 1, BuildingBlock: KUMBOL_clean_sbu_1, # of connection points: 6
#     Node 31, Type 1, BuildingBlock: KUMBOL_clean_sbu_1, # of connection points: 6
#     Node 32, Type 1, BuildingBlock: KUMBOL_clean_sbu_1, # of connection points: 6
#     Node 33, Type 1, BuildingBlock: KUMBOL_clean_sbu_1, # of connection points: 6
#     Node 34, Type 1, BuildingBlock: KUMBOL_clean_sbu_1, # of connection points: 6
#     Node 35, Type 1, BuildingBlock: KUMBOL_clean_sbu_1, # of connection points: 6
#     Node 36, Type 1, BuildingBlock: KUMBOL_clean_sbu_1, # of connection points: 6
#     Node 37, Type 1, BuildingBlock: KUMBOL_clean_sbu_1, # of connection points: 6
#     Node 38, Type 1, BuildingBlock: KUMBOL_clean_sbu_1, # of connection points: 6
#     Node 39, Type 1, BuildingBlock: KUMBOL_clean_sbu_1, # of connection points: 6
#     Edge 40, Type (0, 1), BuildingBlock: TEMPAE_clean_linker_10, # of connection points: 2
#     Edge 41, Type (0, 1), BuildingBlock: TEMPAE_clean_linker_10, # of connection points: 2
#     Edge 42, Type (0, 1), BuildingBlock: TEMPAE_clean_linker_10, # of connection points: 2
#     Edge 43, Type (0, 1), BuildingBlock: TEMPAE_clean_linker_10, # of connection points: 2
#     Edge 44, Type (0, 1), BuildingBlock: TEMPAE_clean_linker_10, # of connection points: 2
#     Edge 45, Type (0, 1), BuildingBlock: TEMPAE_clean_linker_10, # of connection points: 2
#     Edge 46, Type (0, 1), BuildingBlock: TEMPAE_clean_linker_10, # of connection points: 2
#     Edge 47, Type (0, 1), BuildingBlock: TEMPAE_clean_linker_10, # of connection points: 2
#     Edge 48, Type (0, 1), BuildingBlock: TEMPAE_clean_linker_10, # of connection points: 2
#     Edge 49, Type (0, 1), BuildingBlock: TEMPAE_clean_linker_10, # of connection points: 2
#     Edge 50, Type (0, 1), BuildingBlock: TEMPAE_clean_linker_10, # of connection points: 2
#     Edge 51, Type (0, 1), BuildingBlock: TEMPAE_clean_linker_10, # of connection points: 2
#     Edge 52, Type (0, 1), BuildingBlock: TEMPAE_clean_linker_10, # of connection points: 2
#     Edge 53, Type (0, 1), BuildingBlock: TEMPAE_clean_linker_10, # of connection points: 2
#     Edge 54, Type (0, 1), BuildingBlock: TEMPAE_clean_linker_10, # of connection points: 2
#     Edge 55, Type (0, 1), BuildingBlock: TEMPAE_clean_linker_10, # of connection points: 2
#     Edge 56, Type (0, 1), BuildingBlock: TEMPAE_clean_linker_10, # of connection points: 2
#     Edge 57, Type (0, 1), BuildingBlock: TEMPAE_clean_linker_10, # of connection points: 2
#     Edge 58, Type (0, 1), BuildingBlock: TEMPAE_clean_linker_10, # of connection points: 2
#     Edge 59, Type (0, 1), BuildingBlock: TEMPAE_clean_linker_10, # of connection points: 2
#     Edge 60, Type (0, 1), BuildingBlock: TEMPAE_clean_linker_10, # of connection points: 2
#     Edge 61, Type (0, 1), BuildingBlock: TEMPAE_clean_linker_10, # of connection points: 2
#     Edge 62, Type (0, 1), BuildingBlock: TEMPAE_clean_linker_10, # of connection points: 2
#     Edge 63, Type (0, 1), BuildingBlock: TEMPAE_clean_linker_10, # of connection points: 2
#     Edge 64, Type (0, 1), BuildingBlock: TEMPAE_clean_linker_10, # of connection points: 2
#     Edge 65, Type (0, 1), BuildingBlock: TEMPAE_clean_linker_10, # of connection points: 2
#     Edge 66, Type (0, 1), BuildingBlock: TEMPAE_clean_linker_10, # of connection points: 2
#     Edge 67, Type (0, 1), BuildingBlock: TEMPAE_clean_linker_10, # of connection points: 2
#     Edge 68, Type (0, 1), BuildingBlock: TEMPAE_clean_linker_10, # of connection points: 2
#     Edge 69, Type (0, 1), BuildingBlock: TEMPAE_clean_linker_10, # of connection points: 2
#     Edge 70, Type (0, 1), BuildingBlock: TEMPAE_clean_linker_10, # of connection points: 2
#     Edge 71, Type (0, 1), BuildingBlock: TEMPAE_clean_linker_10, # of connection points: 2
#     Edge 72, Type (0, 1), BuildingBlock: TEMPAE_clean_linker_10, # of connection points: 2
#     Edge 73, Type (0, 1), BuildingBlock: TEMPAE_clean_linker_10, # of connection points: 2
#     Edge 74, Type (0, 1), BuildingBlock: TEMPAE_clean_linker_10, # of connection points: 2
#     Edge 75, Type (0, 1), BuildingBlock: TEMPAE_clean_linker_10, # of connection points: 2
#     Edge 76, Type (0, 1), BuildingBlock: TEMPAE_clean_linker_10, # of connection points: 2
#     Edge 77, Type (0, 1), BuildingBlock: TEMPAE_clean_linker_10, # of connection points: 2
#     Edge 78, Type (0, 1), BuildingBlock: TEMPAE_clean_linker_10, # of connection points: 2
#     Edge 79, Type (0, 1), BuildingBlock: TEMPAE_clean_linker_10, # of connection points: 2
#     Edge 80, Type (0, 1), BuildingBlock: TEMPAE_clean_linker_10, # of connection points: 2
#     Edge 81, Type (0, 1), BuildingBlock: TEMPAE_clean_linker_10, # of connection points: 2
#     Edge 82, Type (0, 1), BuildingBlock: TEMPAE_clean_linker_10, # of connection points: 2
#     Edge 83, Type (0, 1), BuildingBlock: TEMPAE_clean_linker_10, # of connection points: 2
#     Edge 84, Type (0, 1), BuildingBlock: TEMPAE_clean_linker_10, # of connection points: 2
#     Edge 85, Type (0, 1), BuildingBlock: TEMPAE_clean_linker_10, # of connection points: 2
#     Edge 86, Type (0, 1), BuildingBlock: TEMPAE_clean_linker_10, # of connection points: 2
#     Edge 87, Type (0, 1), BuildingBlock: TEMPAE_clean_linker_10, # of connection points: 2
#     Edge 88, Type (0, 1), BuildingBlock: TEMPAE_clean_linker_10, # of connection points: 2
#     Edge 89, Type (0, 1), BuildingBlock: TEMPAE_clean_linker_10, # of connection points: 2
#     Edge 90, Type (0, 1), BuildingBlock: TEMPAE_clean_linker_10, # of connection points: 2
#     Edge 91, Type (0, 1), BuildingBlock: TEMPAE_clean_linker_10, # of connection points: 2
#     Edge 92, Type (0, 1), BuildingBlock: TEMPAE_clean_linker_10, # of connection points: 2
#     Edge 93, Type (0, 1), BuildingBlock: TEMPAE_clean_linker_10, # of connection points: 2
#     Edge 94, Type (0, 1), BuildingBlock: TEMPAE_clean_linker_10, # of connection points: 2
#     Edge 95, Type (0, 1), BuildingBlock: TEMPAE_clean_linker_10, # of connection points: 2
#     Edge 96, Type (0, 1), BuildingBlock: TEMPAE_clean_linker_10, # of connection points: 2
#     Edge 97, Type (0, 1), BuildingBlock: TEMPAE_clean_linker_10, # of connection points: 2
#     Edge 98, Type (0, 1), BuildingBlock: TEMPAE_clean_linker_10, # of connection points: 2
#     Edge 99, Type (0, 1), BuildingBlock: TEMPAE_clean_linker_10, # of connection points: 2
#     Edge 100, Type (0, 1), BuildingBlock: TEMPAE_clean_linker_10, # of connection points: 2
#     Edge 101, Type (0, 1), BuildingBlock: TEMPAE_clean_linker_10, # of connection points: 2
#     Edge 102, Type (0, 1), BuildingBlock: TEMPAE_clean_linker_10, # of connection points: 2
#     Edge 103, Type (0, 1), BuildingBlock: TEMPAE_clean_linker_10, # of connection points: 2
#     Edge 104, Type (0, 1), BuildingBlock: TEMPAE_clean_linker_10, # of connection points: 2
#     Edge 105, Type (0, 1), BuildingBlock: TEMPAE_clean_linker_10, # of connection points: 2
#     Edge 106, Type (0, 1), BuildingBlock: TEMPAE_clean_linker_10, # of connection points: 2
#     Edge 107, Type (0, 1), BuildingBlock: TEMPAE_clean_linker_10, # of connection points: 2
#     Edge 108, Type (0, 1), BuildingBlock: TEMPAE_clean_linker_10, # of connection points: 2
#     Edge 109, Type (0, 1), BuildingBlock: TEMPAE_clean_linker_10, # of connection points: 2
#     Edge 110, Type (0, 1), BuildingBlock: TEMPAE_clean_linker_10, # of connection points: 2
#     Edge 111, Type (0, 1), BuildingBlock: TEMPAE_clean_linker_10, # of connection points: 2
#     Edge 112, Type (0, 1), BuildingBlock: TEMPAE_clean_linker_10, # of connection points: 2
#     Edge 113, Type (0, 1), BuildingBlock: TEMPAE_clean_linker_10, # of connection points: 2
#     Edge 114, Type (0, 1), BuildingBlock: TEMPAE_clean_linker_10, # of connection points: 2
#     Edge 115, Type (0, 1), BuildingBlock: TEMPAE_clean_linker_10, # of connection points: 2
#     Edge 116, Type (0, 1), BuildingBlock: TEMPAE_clean_linker_10, # of connection points: 2
#     Edge 117, Type (0, 1), BuildingBlock: TEMPAE_clean_linker_10, # of connection points: 2
#     Edge 118, Type (0, 1), BuildingBlock: TEMPAE_clean_linker_10, # of connection points: 2
#     Edge 119, Type (0, 1), BuildingBlock: TEMPAE_clean_linker_10, # of connection points: 2
#     Edge 120, Type (0, 1), BuildingBlock: TEMPAE_clean_linker_10, # of connection points: 2
#     Edge 121, Type (0, 1), BuildingBlock: TEMPAE_clean_linker_10, # of connection points: 2
#     Edge 122, Type (0, 1), BuildingBlock: TEMPAE_clean_linker_10, # of connection points: 2
#     Edge 123, Type (0, 1), BuildingBlock: TEMPAE_clean_linker_10, # of connection points: 2
#     Edge 124, Type (0, 1), BuildingBlock: TEMPAE_clean_linker_10, # of connection points: 2
#     Edge 125, Type (0, 1), BuildingBlock: TEMPAE_clean_linker_10, # of connection points: 2
#     Edge 126, Type (0, 1), BuildingBlock: TEMPAE_clean_linker_10, # of connection points: 2
#     Edge 127, Type (0, 1), BuildingBlock: TEMPAE_clean_linker_10, # of connection points: 2
#     Edge 128, Type (0, 1), BuildingBlock: TEMPAE_clean_linker_10, # of connection points: 2
#     Edge 129, Type (0, 1), BuildingBlock: TEMPAE_clean_linker_10, # of connection points: 2
#     Edge 130, Type (0, 1), BuildingBlock: TEMPAE_clean_linker_10, # of connection points: 2
#     Edge 131, Type (0, 1), BuildingBlock: TEMPAE_clean_linker_10, # of connection points: 2
#     Edge 132, Type (0, 1), BuildingBlock: TEMPAE_clean_linker_10, # of connection points: 2
#     Edge 133, Type (0, 1), BuildingBlock: TEMPAE_clean_linker_10, # of connection points: 2
#     Edge 134, Type (0, 1), BuildingBlock: TEMPAE_clean_linker_10, # of connection points: 2
#     Edge 135, Type (0, 1), BuildingBlock: TEMPAE_clean_linker_10, # of connection points: 2
# Relax obj value: 0.066
# Max RMSD: 0.181
# Mean RMSD: 0.108
data_MOF--net-gar--node1-KUFVIS_clean_sbu_0--node2-KUMBOL_clean_sbu_1--edge1-TEMPAE_clean_linker_10
_symmetry_space_group_name_H-M    P1
_symmetry_Int_Tables_number       1
_symmetry_cell_setting            triclinic
loop_
_symmetry_equiv_pos_as_xyz
'x, y, z'
_cell_length_a     60.068421
_cell_length_b     60.339115
_cell_length_c     57.685754
_cell_angle_alpha  96.1738
_cell_angle_beta   96.245172
_cell_angle_gamma 101.45932
loop_
_atom_site_label
_atom_site_type_symbol
_atom_site_fract_x
_atom_site_fract_y
_atom_site_fract_z
_atom_type_partial_charge
Mn0 Mn 0.04829 0.31627 0.37768 0.0
Mn1 Mn 0.04815 0.34944 0.33461 0.0
C2 C 0.01225 0.32104 0.35885 0.0
C3 C 0.04834 0.28156 0.39338 0.0
C4 C 0.0568 0.36921 0.38679 0.0
O5 O 0.08136 0.31795 0.36777 0.0
O6 O 0.07934 0.34042 0.33948 0.0
C7 C 0.05163 0.31492 0.29524 0.0
N8 N 0.04044 0.33045 0.30488 0.0
C9 C 0.01174 0.32286 0.27084 0.0
C10 C 0.02306 0.30694 0.2605 0.0
C11 C 0.04306 0.30291 0.2728 0.0
C12 C 0.02108 0.33431 0.29326 0.0
H13 H 0.06695 0.31163 0.30459 0.0
C14 C 0.09036 0.32811 0.35142 0.0
O15 O 0.05613 0.30129 0.40582 0.0
O16 O 0.04133 0.2818 0.37128 0.0
N17 N 0.01999 0.35899 0.32683 0.0
C18 C 1.01029 0.37386 0.33975 0.0
C19 C 0.99011 0.37963 0.32999 0.0
C20 C 0.98012 0.3701 0.30705 0.0
C21 C 0.99015 0.35455 0.29422 0.0
C22 C 1.01041 0.34962 0.30477 0.0
H23 H 0.01773 0.38115 0.35744 0.0
O24 O 0.01465 0.31521 0.37981 0.0
O25 O 0.03133 0.32385 0.34918 0.0
O26 O 0.05594 0.34982 0.39406 0.0
O27 O 0.05509 0.37115 0.36478 0.0
C28 C 0.9807 0.34355 0.27148 0.0
C29 C 0.99142 0.32763 0.25985 0.0
H30 H 0.01649 0.29761 0.24321 0.0
H31 H 0.05184 0.29057 0.265 0.0
H32 H 0.98229 0.39143 0.34011 0.0
H33 H 0.96473 0.37484 0.29948 0.0
H34 H 0.96502 0.34699 0.2629 0.0
H35 H 0.98381 0.31905 0.2425 0.0
Mn36 Mn 0.02837 0.75009 0.69988 0.0
Mn37 Mn 0.0429 0.79138 0.74641 0.0
C38 C 0.06798 0.76213 0.71705 0.0
C39 C 0.0182 0.71182 0.67976 0.0
C40 C 0.03513 0.80198 0.69668 0.0
O41 O 0.99599 0.75098 0.71157 0.0
O42 O 1.0083 0.78035 0.74044 0.0
C43 C 0.02924 0.76142 0.7821 0.0
N44 N 0.04546 0.77674 0.77403 0.0
C45 C 0.07329 0.77611 0.80714 0.0
C46 C 0.05685 0.7604 0.81588 0.0
C47 C 0.03476 0.75297 0.80326 0.0
C48 C 0.06685 0.78376 0.78586 0.0
H49 H 0.01226 0.75568 0.77244 0.0
C50 C 0.99181 0.76564 0.72776 0.0
O51 O 0.01411 0.72919 0.67002 0.0
O52 O 0.02623 0.71625 0.70202 0.0
N53 N 0.07483 0.80443 0.75487 0.0
C54 C 0.08868 0.81957 0.74395 0.0
C55 C 0.11113 0.82925 0.75464 0.0
C56 C 0.11901 0.82345 0.77652 0.0
C57 C 0.10458 0.8076 0.78726 0.0
C58 C 0.08227 0.79875 0.77592 0.0
H59 H 0.08256 0.8244 0.72732 0.0
O60 O 0.06181 0.75252 0.69553 0.0
O61 O 0.05049 0.76445 0.72837 0.0
O62 O 0.02901 0.78109 0.68755 0.0
O63 O 0.04126 0.80801 0.71872 0.0
C64 C 0.11138 0.80035 0.80884 0.0
C65 C 0.0958 0.78447 0.81867 0.0
H66 H 0.06101 0.75391 0.83224 0.0
H67 H 0.022 0.7408 0.80986 0.0
H68 H 0.12223 0.8414 0.74621 0.0
H69 H 0.13608 0.8315 0.78504 0.0
H70 H 0.12859 0.80677 0.81794 0.0
H71 H 0.10128 0.77887 0.83517 0.0
Mn72 Mn 0.54722 0.81355 0.87341 0.0
Mn73 Mn 0.548 0.84805 0.83155 0.0
C74 C 0.51137 0.81877 0.85475 0.0
C75 C 0.54769 0.77858 0.88825 0.0
C76 C 0.55598 0.8664 0.88392 0.0
O77 O 0.58054 0.81577 0.86381 0.0
O78 O 0.57901 0.83854 0.83575 0.0
C79 C 0.55058 0.81419 0.79124 0.0
N80 N 0.53969 0.82965 0.80153 0.0
C81 C 0.50995 0.82216 0.76842 0.0
C82 C 0.52096 0.80632 0.75741 0.0
C83 C 0.54133 0.80229 0.7689 0.0
C84 C 0.51997 0.83352 0.79069 0.0
H85 H 0.56615 0.81087 0.80001 0.0
C86 C 0.58979 0.82602 0.84764 0.0
O87 O 0.55505 0.79813 0.90111 0.0
O88 O 0.54076 0.77914 0.86619 0.0
N89 N 0.52005 0.8582 0.82463 0.0
C90 C 0.51104 0.87339 0.83796 0.0
C91 C 0.49059 0.87918 0.82901 0.0
C92 C 0.47968 0.86945 0.80641 0.0
C93 C 0.4892 0.85382 0.79304 0.0
C94 C 0.50972 0.84881 0.80281 0.0
H95 H 0.5193 0.88101 0.85533 0.0
O96 O 0.5135 0.812 0.87529 0.0
O97 O 0.53064 0.82202 0.84532 0.0
O98 O 0.55391 0.84666 0.89055 0.0
O99 O 0.55571 0.86917 0.86218 0.0
C100 C 0.47903 0.84288 0.77048 0.0
C101 C 0.48933 0.82696 0.75824 0.0
H102 H 0.51386 0.79706 0.74021 0.0
H103 H 0.54986 0.79 0.76058 0.0
H104 H 0.48327 0.89117 0.83948 0.0
H105 H 0.46403 0.87414 0.79951 0.0
H106 H 0.46319 0.84642 0.76244 0.0
H107 H 0.4812 0.81845 0.74103 0.0
Mn108 Mn 0.5288 0.24886 0.1973 0.0
Mn109 Mn 0.48535 0.23999 0.15218 0.0
C110 C 0.51343 0.21122 0.1765 0.0
C111 C 0.57057 0.2561 0.21022 0.0
C112 C 0.47745 0.25265 0.20319 0.0
O113 O 0.53082 0.28086 0.1864 0.0
O114 O 0.50365 0.27157 0.15455 0.0
C115 C 0.5123 0.24268 0.11217 0.0
N116 N 0.49589 0.23084 0.12332 0.0
C117 C 0.48622 0.20009 0.09136 0.0
C118 C 0.50298 0.21196 0.07947 0.0
C119 C 0.51621 0.23327 0.09001 0.0
C120 C 0.48348 0.21008 0.1136 0.0
H121 H 0.52223 0.25923 0.12008 0.0
C122 C 0.51973 0.28593 0.16802 0.0
O123 O 0.55596 0.26052 0.22418 0.0
O124 O 0.5611 0.24811 0.18897 0.0
N125 N 0.46652 0.20995 0.14798 0.0
C126 C 0.45146 0.20047 0.16204 0.0
C127 C 0.43716 0.17896 0.15424 0.0
C128 C 0.43827 0.16758 0.13198 0.0
C129 C 0.45387 0.1777 0.11781 0.0
C130 C 0.46779 0.1991 0.12657 0.0
H131 H 0.45024 0.20931 0.17899 0.0
O132 O 0.5239 0.21432 0.19788 0.0
O133 O 0.51118 0.23019 0.16888 0.0
O134 O 0.49792 0.25187 0.21269 0.0
O135 O 0.47187 0.24916 0.18088 0.0
C136 C 0.45605 0.16748 0.09528 0.0
C137 C 0.47208 0.17875 0.08199 0.0
H138 H 0.50589 0.20485 0.06228 0.0
H139 H 0.52921 0.24252 0.08097 0.0
H140 H 0.42517 0.17126 0.16529 0.0
H141 H 0.42714 0.15104 0.12598 0.0
H142 H 0.44548 0.15097 0.08799 0.0
H143 H 0.4735 0.17078 0.06463 0.0
Mn144 Mn 0.08314 0.79974 0.11923 0.0
Mn145 Mn 0.04306 0.78606 0.07121 0.0
C146 C 0.07113 0.76052 0.10128 0.0
C147 C 0.12119 0.80894 0.14054 0.0
C148 C 0.03093 0.79359 0.12061 0.0
O149 O 0.08276 0.83233 0.10795 0.0
O150 O 0.05525 0.82015 0.07712 0.0
C151 C 0.07417 0.79876 0.03614 0.0
N152 N 0.0581 0.78304 0.0439 0.0
C153 C 0.05714 0.7557 0.01003 0.0
C154 C 0.07363 0.77162 1.00161 0.0
C155 C 0.08225 0.79321 0.01478 0.0
C156 C 0.04993 0.76213 0.03155 0.0
H157 H 0.08072 0.8154 0.04616 0.0
C158 C 0.06935 0.83654 0.09053 0.0
O159 O 0.10354 0.81321 0.14977 0.0
O160 O 0.11727 0.80154 0.11815 0.0
N161 N 0.0291 0.75449 0.06256 0.0
C162 C 0.01362 0.74097 0.07342 0.0
C163 C 1.00303 0.71896 0.06237 0.0
C164 C 1.00824 0.71121 0.04018 0.0
C165 C 0.02442 0.7253 0.02948 0.0
C166 C 0.03428 0.74714 0.04124 0.0
H167 H 1.00922 0.74702 0.09027 0.0
O168 O 0.08019 0.76629 0.12303 0.0
O169 O 0.06938 0.77813 0.09011 0.0
O170 O 0.05163 0.79906 0.13063 0.0
O171 O 0.02573 0.78819 0.09838 0.0
C172 C 0.03109 0.71859 0.00758 0.0
C173 C 0.04758 0.73371 0.99795 0.0
H174 H 0.07982 0.76744 0.98508 0.0
H175 H 0.095 0.80557 0.00841 0.0
H176 H 0.99062 0.70811 0.07077 0.0
H177 H 0.99952 0.69449 0.03142 0.0
H178 H 0.02382 0.70175 0.99813 0.0
H179 H 0.05277 0.72827 0.98124 0.0
Mn180 Mn 0.50621 0.77032 0.44969 0.0
Mn181 Mn 0.50634 0.80098 0.40312 0.0
C182 C 0.47046 0.77338 0.42733 0.0
C183 C 0.50979 0.73364 0.46457 0.0
C184 C 0.5157 0.82413 0.45423 0.0
O185 O 0.53986 0.77464 0.44177 0.0
O186 O 0.53455 0.7895 0.40807 0.0
C187 C 0.50443 0.76309 0.36523 0.0
N188 N 0.49689 0.78173 0.37387 0.0
C189 C 0.47567 0.78314 0.33649 0.0
C190 C 0.48349 0.76416 0.32696 0.0
C191 C 0.49762 0.75384 0.34151 0.0
C192 C 0.48224 0.7909 0.36045 0.0
H193 H 0.51554 0.75545 0.3764 0.0
C194 C 0.5467 0.78098 0.42271 0.0
O195 O 0.51479 0.75326 0.47778 0.0
O196 O 0.50219 0.73511 0.44298 0.0
N197 N 0.4806 0.81404 0.39495 0.0
C198 C 0.4744 0.83201 0.40707 0.0
C199 C 0.46167 0.84533 0.39496 0.0
C200 C 0.4556 0.84015 0.3705 0.0
C201 C 0.46109 0.82088 0.35854 0.0
C202 C 0.47412 0.8085 0.37149 0.0
H203 H 0.47997 0.83679 0.42567 0.0
O204 O 0.47118 0.76695 0.44817 0.0
O205 O 0.49031 0.77725 0.41998 0.0
O206 O 0.51174 0.80575 0.46428 0.0
O207 O 0.51598 0.82311 0.43204 0.0
C208 C 0.45491 0.81395 0.33415 0.0
C209 C 0.46181 0.79481 0.32322 0.0
H210 H 0.47867 0.75731 0.30855 0.0
H211 H 0.50356 0.73908 0.33435 0.0
H212 H 0.45712 0.85995 0.40435 0.0
H213 H 0.44635 0.85089 0.36114 0.0
H214 H 0.44478 0.82317 0.32365 0.0
H215 H 0.45661 0.7894 0.30456 0.0
Mn216 Mn 0.58091 0.29951 0.61925 0.0
Mn217 Mn 0.53977 0.28638 0.57227 0.0
C218 C 0.56802 0.26046 0.60152 0.0
C219 C 0.61929 0.30842 0.63956 0.0
C220 C 0.52881 0.29376 0.62196 0.0
O221 O 0.58095 0.33197 0.60787 0.0
O222 O 0.55153 0.32064 0.57869 0.0
C223 C 0.57048 0.29984 0.53707 0.0
N224 N 0.5547 0.28382 0.54482 0.0
C225 C 0.55519 0.25628 0.51156 0.0
C226 C 0.57138 0.27252 0.50315 0.0
C227 C 0.57911 0.29437 0.51601 0.0
C228 C 0.54739 0.26266 0.53276 0.0
H229 H 0.57645 0.31664 0.5469 0.0
C230 C 0.56659 0.33661 0.59161 0.0
O231 O 0.60201 0.31292 0.64932 0.0
O232 O 0.61478 0.30079 0.61723 0.0
N233 N 0.52605 0.25478 0.56334 0.0
C234 C 0.51028 0.24118 0.57382 0.0
C235 C 0.50016 0.21904 0.56278 0.0
C236 C 0.50617 0.21124 0.541 0.0
C237 C 0.52263 0.22541 0.53069 0.0
C238 C 0.5319 0.24742 0.54235 0.0
H239 H 0.50529 0.24725 0.59037 0.0
O240 O 0.57754 0.26605 0.62314 0.0
O241 O 0.56631 0.27815 0.59044 0.0
O242 O 0.54974 0.29946 0.63138 0.0
O243 O 0.52298 0.288 0.59983 0.0
C244 C 0.53006 0.21867 0.5092 0.0
C245 C 0.54648 0.23403 0.49975 0.0
H246 H 0.57801 0.26839 0.48687 0.0
H247 H 0.59164 0.30697 0.50966 0.0
H248 H 0.48752 0.20814 0.57087 0.0
H249 H 0.49777 0.19444 0.53219 0.0
H250 H 0.52333 0.20169 0.49986 0.0
H251 H 0.55219 0.2286 0.4833 0.0
Mn252 Mn 1.00636 0.2693 0.94713 0.0
Mn253 Mn 1.00852 0.30036 0.90074 0.0
C254 C 0.97146 0.2717 0.92257 0.0
C255 C 1.00989 0.23275 0.96252 0.0
C256 C 0.01365 0.32334 0.95158 0.0
O257 O 0.04066 0.27431 0.94177 0.0
O258 O 0.03767 0.2918 0.90956 0.0
C259 C 0.01393 0.26373 0.86465 0.0
N260 N 1.00324 0.28069 0.87166 0.0
C261 C 0.98492 0.28003 0.83238 0.0
C262 C 0.99549 0.26234 0.82466 0.0
C263 C 1.00987 0.25399 0.84093 0.0
C264 C 0.98871 0.2882 0.85639 0.0
H265 H 0.02568 0.25798 0.87701 0.0
C266 C 0.04921 0.2832 0.92464 0.0
O267 O 0.01318 0.25225 0.97579 0.0
O268 O 1.00376 0.23423 0.94056 0.0
N269 N 0.98226 0.31107 0.88907 0.0
C270 C 0.97385 0.32846 0.89943 0.0
C271 C 0.96205 0.34109 0.88535 0.0
C272 C 0.95876 0.33549 0.86079 0.0
C273 C 0.96597 0.3164 0.85061 0.0
C274 C 0.97834 0.305 0.86548 0.0
H275 H 0.977 0.33329 0.91823 0.0
O276 O 0.97118 0.26521 0.94334 0.0
O277 O 0.99186 0.2759 0.91637 0.0
O278 O 0.0108 0.30485 0.96163 0.0
O279 O 0.01392 0.32254 0.92943 0.0
C280 C 0.9623 0.30889 0.82622 0.0
C281 C 0.97132 0.29034 0.81717 0.0
H282 H 0.99292 0.25525 0.80626 0.0
H283 H 0.01826 0.24049 0.83508 0.0
H284 H 0.95594 0.3554 0.89336 0.0
H285 H 0.95019 0.34567 0.84994 0.0
H286 H 0.95259 0.31725 0.81428 0.0
H287 H 0.96822 0.28457 0.79844 0.0
Mn288 Mn 0.39551 0.02484 0.32176 0.0
Mn289 Mn 0.35487 0.02238 0.35797 0.0
C290 C 0.37657 0.99018 0.33039 0.0
C291 C 0.40752 0.02632 0.28499 0.0
C292 C 0.40567 0.03601 0.37511 0.0
O293 O 0.38793 0.05616 0.32243 0.0
O294 O 0.35926 0.05171 0.34481 0.0
C295 C 0.31546 0.0206 0.32164 0.0
N296 N 0.32533 0.01175 0.33988 0.0
C297 C 0.29176 0.98195 0.33813 0.0
C298 C 0.28103 0.99104 0.31967 0.0
C299 C 0.29303 0.01033 0.31124 0.0
C300 C 0.31422 0.99279 0.34762 0.0
H301 H 0.32471 0.03524 0.31494 0.0
C302 C 0.37204 0.06325 0.33202 0.0
O303 O 0.42154 0.03394 0.3042 0.0
O304 O 0.38621 0.01827 0.28709 0.0
N305 N 0.34846 0.99466 0.37162 0.0
C306 C 0.36204 0.98669 0.38782 0.0
C307 C 0.35301 0.96688 0.39732 0.0
C308 C 0.33004 0.95568 0.39033 0.0
C309 C 0.31642 0.96417 0.37357 0.0
C310 C 0.3264 0.98387 0.36461 0.0
H311 H 0.37965 0.99529 0.39334 0.0
O312 O 0.3964 0.99203 0.32292 0.0
O313 O 0.36838 0.0085 0.33229 0.0
O314 O 0.41211 0.03333 0.35493 0.0
O315 O 0.38466 0.03282 0.37841 0.0
C316 C 0.29337 0.95379 0.36531 0.0
C317 C 0.28116 0.96243 0.34731 0.0
H318 H 0.26372 0.98318 0.31164 0.0
H319 H 0.285 0.01725 0.29678 0.0
H320 H 0.36369 0.96033 0.41009 0.0
H321 H 0.32312 0.94046 0.39777 0.0
H322 H 0.28495 0.93895 0.37245 0.0
H323 H 0.26368 0.95386 0.3406 0.0
Mn324 Mn 0.26414 0.19126 0.52181 0.0
Mn325 Mn 0.25538 0.1467 0.47835 0.0
C326 C 0.2275 0.16832 0.5098 0.0
C327 C 0.27055 0.20648 0.56252 0.0
C328 C 0.26414 0.19589 0.46847 0.0
O329 O 0.29621 0.18432 0.52194 0.0
O330 O 0.28815 0.15517 0.49212 0.0
C331 C 0.26608 0.11048 0.5058 0.0
N332 N 0.25118 0.11832 0.49088 0.0
C333 C 0.22429 0.08223 0.48522 0.0
C334 C 0.23938 0.07374 0.50047 0.0
C335 C 0.26029 0.08797 0.51092 0.0
C336 C 0.23094 0.10482 0.48086 0.0
H337 H 0.28232 0.12124 0.51361 0.0
C338 C 0.30208 0.16882 0.50836 0.0
O339 O 0.27539 0.21927 0.54624 0.0
O340 O 0.26303 0.18495 0.55532 0.0
N341 N 0.22424 0.13662 0.46405 0.0
C342 C 0.21086 0.14807 0.45143 0.0
C343 C 0.18897 0.13659 0.44053 0.0
C344 C 0.18112 0.11346 0.44266 0.0
C345 C 0.195 0.10219 0.45623 0.0
C346 C 0.21664 0.11454 0.4667 0.0
H347 H 0.21684 0.16584 0.44981 0.0
O348 O 0.23003 0.18945 0.51896 0.0
O349 O 0.24636 0.1618 0.50656 0.0
O350 O 0.267 0.20517 0.49001 0.0
O351 O 0.25915 0.17435 0.46265 0.0
C352 C 0.18813 0.07927 0.45998 0.0
C353 C 0.20276 0.06931 0.47448 0.0
H354 H 0.23498 0.0564 0.50448 0.0
H355 H 0.272 0.08156 0.52277 0.0
H356 H 0.17821 0.1455 0.43041 0.0
H357 H 0.16425 0.10463 0.43412 0.0
H358 H 0.17154 0.06923 0.452 0.0
H359 H 0.19714 0.05178 0.4775 0.0
Mn360 Mn 0.13844 0.06361 0.79548 0.0
Mn361 Mn 0.18338 0.07224 0.83875 0.0
C362 C 0.16171 0.10018 0.80719 0.0
C363 C 0.12254 0.05689 0.7549 0.0
C364 C 0.13391 0.06317 0.8488 0.0
O365 O 0.1455 0.03165 0.79534 0.0
O366 O 0.17534 0.03969 0.8246 0.0
C367 C 0.22016 0.0624 0.81152 0.0
N368 N 0.21193 0.07701 0.82634 0.0
C369 C 0.24778 0.10439 0.83202 0.0
C370 C 0.25668 0.0896 0.81689 0.0
C371 C 0.24275 0.06858 0.80649 0.0
C372 C 0.22515 0.09733 0.83635 0.0
H373 H 0.20965 0.04608 0.80374 0.0
C374 C 0.1615 0.02586 0.80842 0.0
O375 O 0.11003 0.05239 0.77149 0.0
O376 O 0.14427 0.06437 0.76175 0.0
N377 N 0.19301 0.1032 0.85325 0.0
C378 C 0.18125 0.11614 0.86596 0.0
C379 C 0.19234 0.13815 0.87665 0.0
C380 C 0.21541 0.14654 0.87428 0.0
C381 C 0.22706 0.13301 0.86081 0.0
C382 C 0.21508 0.11127 0.85048 0.0
H383 H 0.16353 0.10973 0.86784 0.0
O384 O 0.14043 0.09764 0.79818 0.0
O385 O 0.16817 0.08135 0.81052 0.0
O386 O 0.12458 0.06088 0.82732 0.0
O387 O 0.15557 0.06782 0.8545 0.0
C388 C 0.25 0.14032 0.85703 0.0
C389 C 0.26036 0.12603 0.84266 0.0
H390 H 0.27408 0.09432 0.81294 0.0
H391 H 0.24947 0.05711 0.79473 0.0
H392 H 0.18316 0.14859 0.88679 0.0
H393 H 0.22393 0.16349 0.88263 0.0
H394 H 0.25977 0.157 0.86491 0.0
H395 H 0.27791 0.13197 0.83964 0.0
Mn396 Mn 0.29857 0.92686 0.00655 0.0
Mn397 Mn 0.29794 0.96616 0.96938 0.0
C398 C 0.33228 0.94628 0.99644 0.0
C399 C 0.29942 0.91648 0.04389 0.0
C400 C 0.28654 0.91528 0.95344 0.0
O401 O 0.26679 0.93306 0.00664 0.0
O402 O 0.26855 0.96053 0.98293 0.0
C403 C 0.29805 1.00539 0.00503 0.0
N404 N 0.30742 0.9959 0.98699 0.0
C405 C 0.33628 0.03016 0.98858 0.0
C406 C 0.32668 0.04045 0.00688 0.0
C407 C 0.30759 0.02794 0.01526 0.0
C408 C 0.32614 1.00758 0.97922 0.0
H409 H 0.28355 0.99577 0.01169 0.0
C410 C 0.25816 0.94771 0.99647 0.0
O411 O 0.29117 0.90159 0.02547 0.0
O412 O 0.30646 0.93755 0.04067 0.0
N413 N 0.32544 0.97374 0.95534 0.0
C414 C 0.33397 0.96066 0.93922 0.0
C415 C 0.35353 0.97036 0.92959 0.0
C416 C 0.36399 0.99345 0.93646 0.0
C417 C 0.35503 1.00652 0.95325 0.0
C418 C 0.33553 0.99592 0.96226 0.0
H419 H 0.32603 0.94293 0.93389 0.0
O420 O 0.33143 0.92683 1.00436 0.0
O421 O 0.31349 0.95385 0.99497 0.0
O422 O 0.28951 0.90939 0.97385 0.0
O423 O 0.28881 0.93604 0.94961 0.0
C424 C 0.36477 0.02962 0.9615 0.0
C425 C 0.35563 0.04133 0.97942 0.0
H426 H 0.33398 0.05785 0.01479 0.0
H427 H 0.30025 0.03566 0.02958 0.0
H428 H 0.36049 0.96009 0.91685 0.0
H429 H 0.37902 1.00089 0.92892 0.0
H430 H 0.37948 0.03846 0.95441 0.0
H431 H 0.36367 0.0589 0.98608 0.0
Mn432 Mn 0.31652 0.38485 0.04905 0.0
Mn433 Mn 0.31666 0.42514 0.01193 0.0
C434 C 0.35128 0.40871 0.0433 0.0
C435 C 0.31285 0.37212 0.08665 0.0
C436 C 0.31257 0.37508 0.99452 0.0
O437 O 0.28274 0.38791 0.04529 0.0
O438 O 0.28615 0.41455 0.02088 0.0
C439 C 0.30679 0.46087 0.04636 0.0
N440 N 0.31976 0.45427 0.03003 0.0
C441 C 0.34051 0.49282 0.03091 0.0
C442 C 0.32745 0.50008 0.04781 0.0
C443 C 0.31064 0.48399 0.05571 0.0
C444 C 0.33646 0.46946 0.02292 0.0
H445 H 0.29349 0.44863 0.05205 0.0
C446 C 0.27432 0.40138 0.03293 0.0
O447 O 0.30914 0.35815 0.06725 0.0
O448 O 0.31886 0.3936 0.08436 0.0
N449 N 0.34459 0.43805 1.00093 0.0
C450 C 0.35505 0.42834 0.98394 0.0
C451 C 0.37063 0.44223 0.9724 0.0
C452 C 0.37506 0.46601 0.97821 0.0
C453 C 0.36478 0.47565 0.99632 0.0
C454 C 0.3491 0.46096 0.00691 0.0
H455 H 0.3508 0.41022 0.97851 0.0
O456 O 0.35097 0.38935 0.05131 0.0
O457 O 0.3314 0.41398 0.0393 0.0
O458 O 0.3128 0.36804 0.01474 0.0
O459 O 0.31387 0.39594 0.99166 0.0
C460 C 0.36881 0.49932 1.00367 0.0
C461 C 0.35703 0.50786 0.02131 0.0
H462 H 0.33006 0.51796 0.05468 0.0
H463 H 0.3004 0.48945 0.06865 0.0
H464 H 0.3787 0.43467 0.95859 0.0
H465 H 0.38654 0.47671 0.96873 0.0
H466 H 0.38094 0.5111 0.99587 0.0
H467 H 0.36043 0.52606 0.02698 0.0
Mn468 Mn 0.76449 0.14892 0.05353 0.0
Mn469 Mn 0.752 0.0986 0.01764 0.0
C470 C 0.72731 0.12831 0.04512 0.0
C471 C 0.77583 0.1713 0.08985 0.0
C472 C 0.75861 0.14409 0.9997 0.0
O473 O 0.79602 0.1417 0.05234 0.0
O474 O 0.78497 0.10847 0.02835 0.0
C475 C 0.76414 0.07044 0.05409 0.0
N476 N 0.74891 0.07438 0.03656 0.0
C477 C 0.7229 0.03897 0.03844 0.0
C478 C 0.73828 0.03448 0.05654 0.0
C479 C 0.75891 0.05038 0.06453 0.0
C480 C 0.72874 0.05955 0.02925 0.0
H481 H 0.78017 0.08247 0.05994 0.0
C482 C 0.80032 0.12435 0.04054 0.0
O483 O 0.77833 0.17971 0.07031 0.0
O484 O 0.7674 0.14953 0.08837 0.0
N485 N 0.72076 0.08619 1.00498 0.0
C486 C 0.70806 0.09299 0.98709 0.0
C487 C 0.68778 0.07831 0.97582 0.0
C488 C 0.68101 0.05666 0.98275 0.0
C489 C 0.69393 0.05029 1.00167 0.0
C490 C 0.71414 0.0655 0.012 0.0
H491 H 0.71369 0.10923 0.981 0.0
O492 O 0.73157 0.14993 0.05279 0.0
O493 O 0.74485 0.11891 0.04348 0.0
O494 O 0.76334 0.15616 0.01981 0.0
O495 O 0.75426 0.12235 0.99675 0.0
C496 C 0.68791 0.02919 0.01024 0.0
C497 C 0.70217 0.02371 0.02891 0.0
H498 H 0.73447 0.01885 0.06436 0.0
H499 H 0.77088 0.04703 0.07847 0.0
H500 H 0.67767 0.08346 0.96148 0.0
H501 H 0.66577 0.04508 0.97345 0.0
H502 H 0.67231 0.01708 1.00265 0.0
H503 H 0.69725 1.00756 0.03552 0.0
Mn504 Mn 0.17829 0.56166 0.25681 0.0
Mn505 Mn 0.2292 0.57012 0.29111 0.0
C506 C 0.19947 0.59815 0.26824 0.0
C507 C 0.15596 0.55385 0.2206 0.0
C508 C 0.18346 0.5595 0.30948 0.0
O509 O 0.18534 0.53008 0.25405 0.0
O510 O 0.22064 0.5385 0.27481 0.0
C511 C 0.25883 0.56564 0.25381 0.0
N512 N 0.2539 0.57771 0.27321 0.0
C513 C 0.2888 0.60591 0.27554 0.0
C514 C 0.2944 0.5937 0.25569 0.0
C515 C 0.27924 0.57359 0.24466 0.0
C516 C 0.26805 0.59737 0.28359 0.0
H517 H 0.2473 0.55008 0.24546 0.0
C518 C 0.20392 0.52467 0.26182 0.0
O519 O 0.14735 0.54935 0.23966 0.0
O520 O 0.17782 0.56239 0.22249 0.0
N521 N 0.24006 0.60004 0.30801 0.0
C522 C 0.23133 0.61052 0.32597 0.0
C523 C 0.24415 0.63106 0.33867 0.0
C524 C 0.26597 0.64032 0.3331 0.0
C525 C 0.27444 0.62942 0.3143 0.0
C526 C 0.26083 0.60907 0.3022 0.0
H527 H 0.21485 0.60311 0.33075 0.0
O528 O 0.17762 0.5946 0.26132 0.0
O529 O 0.20853 0.58027 0.2677 0.0
O530 O 0.17116 0.55898 0.28999 0.0
O531 O 0.20528 0.56289 0.31174 0.0
C532 C 0.29589 0.63783 0.30716 0.0
C533 C 0.30294 0.62624 0.28761 0.0
H534 H 0.31021 0.59968 0.2487 0.0
H535 H 0.28337 0.56413 0.22926 0.0
H536 H 0.23738 0.63952 0.35296 0.0
H537 H 0.27601 0.65592 0.34325 0.0
H538 H 0.30702 0.65332 0.31641 0.0
H539 H 0.31923 0.63315 0.28198 0.0
Mn540 Mn 0.81525 0.88524 0.54721 0.0
Mn541 Mn 0.81559 0.92738 0.51234 0.0
C542 C 0.85032 0.90849 0.54112 0.0
C543 C 0.81166 0.87182 0.58466 0.0
C544 C 0.80823 0.87734 0.49242 0.0
O545 O 0.78185 0.88959 0.5448 0.0
O546 O 0.78575 0.91862 0.52323 0.0
C547 C 0.81032 0.96405 0.54845 0.0
N548 N 0.82164 0.9565 0.53103 0.0
C549 C 0.8436 0.99426 0.53031 0.0
C550 C 0.83231 1.00251 0.54836 0.0
C551 C 0.81574 0.98729 0.55762 0.0
C552 C 0.83809 0.97082 0.52254 0.0
H553 H 0.79709 0.95247 0.55506 0.0
C554 C 0.77389 0.90467 0.53452 0.0
O555 O 0.80682 0.8582 0.56497 0.0
O556 O 0.81896 0.89321 0.58275 0.0
N557 N 0.84306 0.93841 0.49963 0.0
C558 C 0.85215 0.92763 0.48217 0.0
C559 C 0.8678 0.94053 0.46986 0.0
C560 C 0.8736 0.96438 0.47536 0.0
C561 C 0.86463 0.97505 0.49392 0.0
C562 C 0.84902 0.96132 0.50545 0.0
H563 H 0.84686 0.90942 0.47707 0.0
O564 O 0.84964 0.88872 0.54835 0.0
O565 O 0.83068 0.9144 0.53812 0.0
O566 O 0.81021 0.86937 0.51217 0.0
O567 O 0.80944 0.89849 0.49114 0.0
C568 C 0.86997 0.99883 0.50093 0.0
C569 C 0.85979 0.00838 0.51941 0.0
H570 H 0.8361 0.0205 0.55512 0.0
H571 H 0.80685 0.99353 0.57145 0.0
H572 H 0.87487 0.9322 0.45571 0.0
H573 H 0.8851 0.97432 0.46528 0.0
H574 H 0.88192 0.00993 0.49227 0.0
H575 H 0.86424 0.02663 0.52483 0.0
Mn576 Mn 0.9462 0.01104 0.26995 0.0
Mn577 Mn 0.90254 0.00841 0.30336 0.0
C578 C 0.92402 0.97521 0.27571 0.0
C579 C 0.96067 0.01537 0.23291 0.0
C580 C 0.9527 0.0185 0.32472 0.0
O581 O 0.94005 0.0438 0.27193 0.0
O582 O 0.90972 0.03784 0.29166 0.0
C583 C 0.86538 0.0105 0.26599 0.0
N584 N 0.87352 1.00034 0.2841 0.0
C585 C 0.83634 0.97693 0.28494 0.0
C586 C 0.8275 0.98698 0.26616 0.0
C587 C 0.84216 1.00369 0.25648 0.0
C588 C 0.8598 0.98373 0.29297 0.0
H589 H 0.87649 0.02387 0.25908 0.0
C590 C 0.92358 0.05051 0.28097 0.0
O591 O 0.97373 0.02076 0.25299 0.0
O592 O 0.93922 1.00714 0.23419 0.0
N593 N 0.89285 0.98112 0.31674 0.0
C594 C 0.90411 0.97341 0.33497 0.0
C595 C 0.89171 0.95806 0.34792 0.0
C596 C 0.86783 0.95109 0.34222 0.0
C597 C 0.85669 0.95853 0.32282 0.0
C598 C 0.86992 0.97399 0.31073 0.0
H599 H 0.92229 0.97964 0.34023 0.0
O600 O 0.94421 0.97692 0.26904 0.0
O601 O 0.91709 0.99425 0.27834 0.0
O602 O 0.96134 0.01661 0.30534 0.0
O603 O 0.93125 0.01658 0.32523 0.0
C604 C 0.83287 0.95189 0.31553 0.0
C605 C 0.82277 0.96074 0.2963 0.0
H606 H 0.80949 0.98214 0.25915 0.0
H607 H 0.83545 0.01162 0.24208 0.0
H608 H 0.90042 0.95215 0.3627 0.0
H609 H 0.85824 0.93981 0.35275 0.0
H610 H 0.82215 0.93997 0.32456 0.0
H611 H 0.80451 0.95528 0.29068 0.0
Mn612 Mn 0.26441 0.6457 0.55607 0.0
Mn613 Mn 0.26038 0.59545 0.52211 0.0
C614 C 0.23063 0.61898 0.54923 0.0
C615 C 0.27265 0.66963 0.5915 0.0
C616 C 0.25633 0.6384 0.50195 0.0
O617 O 0.2978 0.6449 0.5553 0.0
O618 O 0.2924 0.61285 0.52967 0.0
C619 C 0.28393 0.57477 0.55929 0.0
N620 N 0.26544 0.57391 0.54305 0.0
C621 C 0.24688 0.53734 0.55217 0.0
C622 C 0.26574 0.53781 0.56897 0.0
C623 C 0.2843 0.55665 0.57261 0.0
C624 C 0.24731 0.55608 0.53975 0.0
H625 H 0.29829 0.58914 0.56207 0.0
C626 C 0.30519 0.63048 0.54217 0.0
O627 O 0.2729 0.67763 0.57152 0.0
O628 O 0.26814 0.6476 0.59095 0.0
N629 N 0.2307 0.57612 0.51284 0.0
C630 C 0.21434 0.57782 0.49518 0.0
C631 C 0.19535 0.55972 0.48817 0.0
C632 C 0.19356 0.53989 0.49911 0.0
C633 C 0.21044 0.53855 0.51737 0.0
C634 C 0.22918 0.55699 0.52332 0.0
H635 H 0.21582 0.59282 0.48644 0.0
O636 O 0.23069 0.6403 0.55545 0.0
O637 O 0.25035 0.61358 0.54772 0.0
O638 O 0.26127 0.6513 0.52162 0.0
O639 O 0.25433 0.61678 0.49983 0.0
C640 C 0.2097 0.51942 0.5295 0.0
C641 C 0.22778 0.51894 0.54712 0.0
H642 H 0.26619 0.52377 0.57912 0.0
H643 H 0.29893 0.55714 0.58554 0.0
H644 H 0.18231 0.56091 0.47412 0.0
H645 H 0.17933 0.52563 0.49308 0.0
H646 H 0.19533 0.50497 0.52541 0.0
H647 H 0.22698 0.50419 0.55641 0.0
Mn648 Mn 0.44387 0.5126 0.76841 0.0
Mn649 Mn 0.39988 0.51308 0.80078 0.0
C650 C 0.42019 0.47782 0.77424 0.0
C651 C 0.45865 0.51577 0.73151 0.0
C652 C 0.4498 0.52092 0.82303 0.0
O653 O 0.43957 0.5458 0.77012 0.0
O654 O 0.40802 0.54242 0.78836 0.0
C655 C 0.36367 0.51535 0.76245 0.0
N656 N 0.37108 0.50541 0.78107 0.0
C657 C 0.33357 0.48221 0.78079 0.0
C658 C 0.32545 0.49219 0.76161 0.0
C659 C 0.34064 0.50866 0.75223 0.0
C660 C 0.35685 0.48899 0.78966 0.0
H661 H 0.37522 0.52836 0.75559 0.0
C662 C 0.42319 0.55374 0.77788 0.0
O663 O 0.47176 0.52079 0.75159 0.0
O664 O 0.43702 0.5086 0.73275 0.0
N665 N 0.38916 0.48617 0.81445 0.0
C666 C 0.3999 0.47789 0.83261 0.0
C667 C 0.38702 0.46198 0.84465 0.0
C668 C 0.36321 0.45511 0.83821 0.0
C669 C 0.3526 0.46337 0.81905 0.0
C670 C 0.36632 0.47918 0.80773 0.0
H671 H 0.41802 0.4839 0.83834 0.0
O672 O 0.44035 0.47847 0.76778 0.0
O673 O 0.41413 0.49738 0.77649 0.0
O674 O 0.45851 0.51781 0.80385 0.0
O675 O 0.4285 0.52075 0.82314 0.0
C676 C 0.32889 0.45699 0.81111 0.0
C677 C 0.31946 0.46603 0.79168 0.0
H678 H 0.30761 0.48737 0.75398 0.0
H679 H 0.33453 0.51646 0.73744 0.0
H680 H 0.39532 0.45549 0.85927 0.0
H681 H 0.35325 0.44333 0.848 0.0
H682 H 0.31776 0.44497 0.81967 0.0
H683 H 0.3013 0.46065 0.78545 0.0
Mn684 Mn 0.67658 0.06522 0.76558 0.0
Mn685 Mn 0.72768 0.07543 0.79994 0.0
C686 C 0.69861 0.10176 0.77365 0.0
C687 C 0.65435 0.05546 0.72912 0.0
C688 C 0.6822 0.06834 0.81911 0.0
O689 O 0.68301 0.03349 0.76569 0.0
O690 O 0.718 0.04279 0.78708 0.0
C691 C 0.75638 0.06553 0.76313 0.0
N692 N 0.75219 0.07977 0.78133 0.0
C693 C 0.78806 0.10591 0.78133 0.0
C694 C 0.79289 0.09146 0.76268 0.0
C695 C 0.77687 0.07129 0.7534 0.0
C696 C 0.76716 0.09951 0.78994 0.0
H697 H 0.74421 0.0499 0.75618 0.0
C698 C 0.70124 0.02833 0.77486 0.0
O699 O 0.64546 0.05262 0.74841 0.0
O700 O 0.67632 0.06321 0.73101 0.0
N701 N 0.73969 0.10635 0.8137 0.0
C702 C 0.73165 0.11912 0.83052 0.0
C703 C 0.74553 0.13985 0.84169 0.0
C704 C 0.76761 0.14705 0.83566 0.0
C705 C 0.77529 0.13389 0.81787 0.0
C706 C 0.76067 0.11344 0.80735 0.0
H707 H 0.71492 0.11337 0.8356 0.0
O708 O 0.67672 0.0983 0.76707 0.0
O709 O 0.70717 0.08372 0.77507 0.0
O710 O 0.66953 0.06559 0.79939 0.0
O711 O 0.704 0.07177 0.82116 0.0
C712 C 0.79691 0.14018 0.81023 0.0
C713 C 0.80314 0.12639 0.79173 0.0
H714 H 0.80877 0.09574 0.75529 0.0
H715 H 0.78042 0.0601 0.73894 0.0
H716 H 0.73939 0.15007 0.85518 0.0
H717 H 0.77842 0.16284 0.84464 0.0
H718 H 0.80874 0.15578 0.81822 0.0
H719 H 0.81957 0.13168 0.78565 0.0
Mn720 Mn 0.7641 0.69359 0.02509 0.0
Mn721 Mn 0.75747 0.64941 0.98151 0.0
C722 C 0.72793 0.67011 0.01219 0.0
C723 C 0.77014 0.70843 0.0658 0.0
C724 C 0.76667 0.69894 0.97247 0.0
O725 O 0.79659 0.68742 0.02567 0.0
O726 O 0.78959 0.65703 0.99715 0.0
C727 C 0.76566 0.61178 0.00804 0.0
N728 N 0.75162 0.6206 0.9931 0.0
C729 C 0.72368 0.58518 0.98577 0.0
C730 C 0.73786 0.57569 1.00102 0.0
C731 C 0.75888 0.5891 0.0123 0.0
C732 C 0.73135 0.60786 0.98218 0.0
H733 H 0.78199 0.62191 0.01647 0.0
C734 C 0.80289 0.67147 0.01317 0.0
O735 O 0.7747 0.72146 0.04966 0.0
O736 O 0.76291 0.68688 0.05845 0.0
N737 N 0.72683 0.64042 0.96557 0.0
C738 C 0.71464 0.65261 0.95255 0.0
C739 C 0.69261 0.64211 0.94115 0.0
C740 C 0.6835 0.61916 0.94307 0.0
C741 C 0.69637 0.607 0.95665 0.0
C742 C 0.71811 0.61844 0.96779 0.0
H743 H 0.72167 0.6702 0.95091 0.0
O744 O 0.72992 0.69104 0.02178 0.0
O745 O 0.74713 0.66409 0.00927 0.0
O746 O 0.76671 0.70797 0.99366 0.0
O747 O 0.76343 0.67748 0.96663 0.0
C748 C 0.68842 0.58405 0.95975 0.0
C749 C 0.70208 0.57314 0.97426 0.0
H750 H 0.73267 0.55822 1.0044 0.0
H751 H 0.7699 0.58192 0.02414 0.0
H752 H 0.68273 0.65164 0.93081 0.0
H753 H 0.66654 0.6111 0.93418 0.0
H754 H 0.67177 0.57468 0.95119 0.0
H755 H 0.69566 0.55558 0.97671 0.0
Mn756 Mn 0.89824 0.52096 0.81379 0.0
Mn757 Mn 0.85927 0.52365 0.8514 0.0
C758 C 0.87878 0.48838 0.82589 0.0
C759 C 0.90801 0.51754 0.77588 0.0
C760 C 0.91041 0.53548 0.86681 0.0
O761 O 0.89182 0.55243 0.81186 0.0
O762 O 0.86511 0.55205 0.83653 0.0
C763 C 0.81953 0.52287 0.81586 0.0
N764 N 0.82927 0.51385 0.83405 0.0
C765 C 0.79521 0.4847 0.83262 0.0
C766 C 0.78471 0.49387 0.81408 0.0
C767 C 0.79697 0.51297 0.8056 0.0
C768 C 0.81775 0.49528 0.84212 0.0
H769 H 0.82894 0.53742 0.80913 0.0
C770 C 0.87747 0.56159 0.8221 0.0
O771 O 0.92326 0.52666 0.79386 0.0
O772 O 0.88698 0.51129 0.77986 0.0
N773 N 0.85166 0.49698 0.86662 0.0
C774 C 0.86481 0.48919 0.88337 0.0
C775 C 0.85534 0.4697 0.89315 0.0
C776 C 0.83242 0.45856 0.88578 0.0
C777 C 0.81919 0.46696 0.8686 0.0
C778 C 0.82954 0.48646 0.85951 0.0
H779 H 0.88245 0.49762 0.88904 0.0
O780 O 0.8982 0.48857 0.81792 0.0
O781 O 0.87135 0.50714 0.82638 0.0
O782 O 0.91616 0.5317 0.84637 0.0
O783 O 0.88962 0.53322 0.87079 0.0
C784 C 0.79622 0.45661 0.85997 0.0
C785 C 0.78431 0.46531 0.84182 0.0
H786 H 0.76733 0.48623 0.80607 0.0
H787 H 0.78906 0.52002 0.79115 0.0
H788 H 0.8657 0.46326 0.9063 0.0
H789 H 0.82521 0.44347 0.89329 0.0
H790 H 0.7876 0.4418 0.86703 0.0
H791 H 0.76682 0.45687 0.83496 0.0
Mn792 Mn 0.80759 0.43032 0.50227 0.0
Mn793 Mn 0.80966 0.46749 0.46245 0.0
C794 C 0.84244 0.44831 0.49338 0.0
C795 C 0.80637 0.42188 0.54035 0.0
C796 C 0.79788 0.4162 0.44927 0.0
O797 O 0.77604 0.43726 0.49994 0.0
O798 O 0.77958 0.46344 0.47478 0.0
C799 C 0.80861 0.50932 0.49396 0.0
N800 N 0.8187 0.49823 0.47761 0.0
C801 C 0.84658 0.53242 0.47569 0.0
C802 C 0.83626 0.5443 0.49223 0.0
C803 C 0.81731 0.53265 0.50155 0.0
C804 C 0.8372 0.50917 0.46887 0.0
H805 H 0.79408 0.50041 0.50118 0.0
C806 C 0.76827 0.45161 0.4885 0.0
O807 O 0.79861 0.40632 0.52237 0.0
O808 O 0.81404 0.44254 0.53619 0.0
N809 N 0.83784 0.47353 0.44939 0.0
C810 C 0.84735 0.459 0.43582 0.0
C811 C 0.8673 0.46761 0.42624 0.0
C812 C 0.87714 0.49105 0.43054 0.0
C813 C 0.86722 0.50563 0.44483 0.0
C814 C 0.84734 0.49607 0.45389 0.0
H815 H 0.83982 0.44099 0.43242 0.0
O816 O 0.84033 0.42927 0.50231 0.0
O817 O 0.82401 0.45649 0.49002 0.0
O818 O 0.79974 0.41116 0.47013 0.0
O819 O 0.80076 0.43665 0.44452 0.0
C820 C 0.87644 0.52919 0.45072 0.0
C821 C 0.86615 0.54257 0.46617 0.0
H822 H 0.84297 0.56228 0.49818 0.0
H823 H 0.80942 0.54165 0.51452 0.0
H824 H 0.87502 0.45622 0.41546 0.0
H825 H 0.89244 0.49763 0.42298 0.0
H826 H 0.8917 0.53712 0.44383 0.0
H827 H 0.87373 0.56055 0.47102 0.0
Mn828 Mn 0.64117 0.5612 0.29491 0.0
Mn829 Mn 0.68626 0.56875 0.3378 0.0
C830 C 0.66537 0.59738 0.30719 0.0
C831 C 0.62512 0.55489 0.25435 0.0
C832 C 0.63704 0.56103 0.34833 0.0
O833 O 0.64714 0.5287 0.29452 0.0
O834 O 0.67699 0.53648 0.32359 0.0
C835 C 0.72131 0.55791 0.30858 0.0
N836 N 0.71433 0.57251 0.32454 0.0
C837 C 0.75128 0.59808 0.33049 0.0
C838 C 0.75888 0.58334 0.31411 0.0
C839 C 0.74376 0.56325 0.30297 0.0
C840 C 0.72858 0.59209 0.33497 0.0
H841 H 0.70987 0.54225 0.3003 0.0
C842 C 0.66297 0.52267 0.30762 0.0
O843 O 0.61259 0.55078 0.27101 0.0
O844 O 0.64692 0.56184 0.26114 0.0
N845 N 0.69731 0.59945 0.3526 0.0
C846 C 0.68658 0.61288 0.36604 0.0
C847 C 0.69902 0.63407 0.37769 0.0
C848 C 0.72241 0.64101 0.37571 0.0
C849 C 0.73299 0.62695 0.36157 0.0
C850 C 0.71959 0.6063 0.34995 0.0
H851 H 0.66869 0.60745 0.36778 0.0
O852 O 0.64427 0.59557 0.29795 0.0
O853 O 0.67113 0.57822 0.31002 0.0
O854 O 0.62761 0.55874 0.32687 0.0
O855 O 0.65871 0.56536 0.35403 0.0
C856 C 0.75629 0.6326 0.3585 0.0
C857 C 0.76534 0.6184 0.34264 0.0
H858 H 0.77626 0.58729 0.30993 0.0
H859 H 0.74949 0.55179 0.2903 0.0
H860 H 0.69066 0.64492 0.38838 0.0
H861 H 0.73202 0.65726 0.38492 0.0
H862 H 0.7673 0.6481 0.3679 0.0
H863 H 0.7831 0.62331 0.33989 0.0
C864 C 1.00581 0.97091 0.99971 0.0
C865 C 0.9882 0.94709 0.02706 0.0
C866 C 0.99643 0.96879 0.02056 0.0
C867 C 0.99023 0.92749 0.01268 0.0
C868 C 1.00679 0.95115 0.98469 0.0
C869 C 0.9995 0.92951 0.99156 0.0
N870 N 0.01265 0.99213 0.99345 0.0
C871 C 0.01768 0.99436 0.97114 0.0
C872 C 0.01425 0.95365 0.96279 0.0
C873 C 0.01922 0.97531 0.9558 0.0
Gd874 Gd 0.07218 0.05039 0.05062 0.0
Gd875 Gd 1.01018 0.02276 0.02167 0.0
N876 N 0.99532 0.98805 0.03455 0.0
C877 C 0.97799 0.94577 0.04772 0.0
C878 C 0.98449 0.98693 0.05415 0.0
C879 C 0.97587 0.96577 0.06116 0.0
H880 H 0.98287 1.00241 0.0645 0.0
H881 H 0.96771 0.9649 0.07697 0.0
H882 H 0.10837 0.04879 0.00991 0.0
H883 H 0.0199 0.01062 0.96461 0.0
H884 H 0.135 0.07611 0.99166 0.0
H885 H 0.97146 0.92941 0.0533 0.0
H886 H 0.98428 0.91067 0.01752 0.0
H887 H 0.05238 0.08162 0.09219 0.0
H888 H 0.0152 0.9389 0.95074 0.0
H889 H 0.02377 0.97731 0.93838 0.0
H890 H 0.13418 0.14908 0.03344 0.0
H891 H 1.0004 0.91419 0.98035 0.0
H892 H 0.0854 0.15157 0.09372 0.0
H893 H 0.05824 0.12203 0.10907 0.0
N894 N 0.07554 0.08831 0.06719 0.0
C895 C 0.09141 0.10414 0.05926 0.0
C896 C 0.06413 0.09436 0.08526 0.0
C897 C 0.08296 0.13385 0.0863 0.0
C898 C 0.06752 0.11723 0.09493 0.0
C899 C 0.09515 0.12742 0.06826 0.0
H900 H 0.11373 0.16149 0.06549 0.0
N901 N 0.09891 0.07446 0.0327 0.0
C902 C 0.10301 0.09706 0.04115 0.0
C903 C 0.12991 0.10554 0.0134 0.0
C904 C 0.11858 0.11321 0.03164 0.0
C905 C 0.11055 0.06682 0.01551 0.0
C906 C 0.12597 0.08224 0.00541 0.0
O907 O 0.02944 1.00219 0.04606 0.0
O908 O 0.066 0.01185 0.03828 0.0
O909 O 0.10806 0.05037 0.06039 0.0
O910 O 0.08456 0.04623 0.08626 0.0
O911 O 0.01199 0.04206 0.05816 0.0
O912 O 0.04693 0.03895 0.0761 0.0
O913 O 0.05308 0.07737 0.03624 0.0
O914 O 0.01801 0.06019 0.01467 0.0
O915 O 0.97763 0.0303 0.02895 0.0
O916 O 0.9807 0.01395 0.9946 0.0
O917 O 0.0687 0.03118 0.01396 0.0
O918 O 0.03502 0.0383 0.99753 0.0
C919 C 0.04966 0.99683 0.04501 0.0
C920 C 0.02534 0.03993 0.07704 0.0
C921 C 0.11272 0.02395 0.08717 0.0
C922 C 0.13446 0.99462 0.07902 0.0
C923 C 0.1127 0.99382 0.11203 0.0
C924 C 0.10551 0.01351 0.10653 0.0
C925 C 0.1273 0.9845 0.09848 0.0
C926 C 0.12713 0.01425 0.0734 0.0
C927 C 0.10477 0.0445 0.08103 0.0
C928 C 0.12232 0.13643 0.04057 0.0
C929 C 0.11069 0.14351 0.05885 0.0
H930 H 0.14192 0.11743 0.00557 0.0
C931 C 0.03417 0.07866 0.02261 0.0
C932 C 0.05615 0.03603 0.99589 0.0
C933 C 0.95853 0.0423 0.99635 0.0
C934 C 0.93646 0.07213 0.99993 0.0
C935 C 0.95371 0.06475 0.96439 0.0
C936 C 0.96262 0.04751 0.97381 0.0
C937 C 0.94056 0.07688 0.97721 0.0
C938 C 0.94568 0.05484 0.00934 0.0
C939 C 0.96839 0.02468 0.00709 0.0
H940 H 0.10704 0.98585 0.12691 0.0
H941 H 0.09429 0.02051 0.11738 0.0
H942 H 0.13298 0.9694 0.10308 0.0
H943 H 0.13297 0.02207 0.05847 0.0
H944 H 0.95685 0.06863 0.94699 0.0
H945 H 0.97279 0.03839 0.96347 0.0
H946 H 0.93331 0.08968 0.96911 0.0
H947 H 0.94313 0.05122 0.02698 0.0
C948 C 0.34766 0.76614 0.23345 0.0
C949 C 0.32695 0.75216 0.19434 0.0
C950 C 0.32881 0.7649 0.21669 0.0
C951 C 0.34434 0.74074 0.189 0.0
C952 C 0.36524 0.75483 0.22803 0.0
C953 C 0.36343 0.74209 0.20578 0.0
N954 N 0.3489 0.77853 0.25489 0.0
C955 C 0.36786 0.78123 0.2712 0.0
C956 C 0.38425 0.75683 0.24504 0.0
C957 C 0.38563 0.77022 0.26665 0.0
Gd958 Gd 0.27045 0.7803 0.30927 0.0
Gd959 Gd 0.31864 0.79736 0.25984 0.0
N960 N 0.31195 0.7757 0.22253 0.0
C961 C 0.30763 0.75124 0.17803 0.0
C962 C 0.29341 0.77543 0.20648 0.0
C963 C 0.29085 0.76301 0.18411 0.0
H964 H 0.28057 0.78478 0.21082 0.0
H965 H 0.276 0.76263 0.17151 0.0
H966 H 0.30751 0.78038 0.35875 0.0
H967 H 0.36986 0.79241 0.28751 0.0
H968 H 0.31955 0.80298 0.39747 0.0
H969 H 0.30558 0.74162 0.16068 0.0
H970 H 0.34322 0.73085 0.17192 0.0
H971 H 0.22204 0.79403 0.28826 0.0
H972 H 0.39811 0.74843 0.24154 0.0
H973 H 0.40054 0.77235 0.27969 0.0
H974 H 0.26719 0.8533 0.40248 0.0
H975 H 0.37676 0.73327 0.20135 0.0
H976 H 0.20733 0.84536 0.33801 0.0
H977 H 0.19752 0.82065 0.29963 0.0
N978 N 0.24549 0.80376 0.31974 0.0
C979 C 0.25076 0.81657 0.34117 0.0
C980 C 0.22646 0.80475 0.30501 0.0
C981 C 0.2181 0.83365 0.33313 0.0
C982 C 0.21251 0.81976 0.31143 0.0
C983 C 0.23737 0.83211 0.34836 0.0
H984 H 0.23365 0.85769 0.37623 0.0
N985 N 0.28196 0.79872 0.3483 0.0
C986 C 0.26974 0.81417 0.3558 0.0
C987 C 0.29421 0.82345 0.39313 0.0
C988 C 0.27569 0.82714 0.37828 0.0
C989 C 0.29908 0.79404 0.3634 0.0
C990 C 0.30571 0.80656 0.38579 0.0
O991 O 0.30254 0.75975 0.25164 0.0
O992 O 0.29087 0.77371 0.28217 0.0
O993 O 0.26356 0.75094 0.32773 0.0
O994 O 0.23883 0.75477 0.29902 0.0
O995 O 0.28164 0.80312 0.2512 0.0
O996 O 0.25474 0.78108 0.27136 0.0
O997 O 0.27862 0.81745 0.30522 0.0
O998 O 0.31297 0.81439 0.2949 0.0
O999 O 0.31862 0.82545 0.23917 0.0
O1000 O 0.35016 0.82152 0.25862 0.0
O1001 O 0.30644 0.77255 0.31825 0.0
O1002 O 0.33331 0.79455 0.29817 0.0
C1003 C 0.29001 0.75559 0.2678 0.0
C1004 C 0.26023 0.79336 0.2541 0.0
C1005 C 0.22473 0.73498 0.32982 0.0
C1006 C 0.21258 0.71382 0.36163 0.0
C1007 C 0.18454 0.72615 0.33509 0.0
C1008 C 0.20188 0.736 0.32274 0.0
C1009 C 0.18977 0.71499 0.35435 0.0
C1010 C 0.22991 0.72413 0.34938 0.0
C1011 C 0.24321 0.74312 0.31604 0.0
C1012 C 0.26274 0.84305 0.38536 0.0
C1013 C 0.24362 0.84552 0.37044 0.0
H1014 H 0.29934 0.83305 0.41052 0.0
C1015 C 0.29784 0.8269 0.2982 0.0
C1016 C 0.32788 0.78181 0.31522 0.0
C1017 C 0.35271 0.83463 0.22168 0.0
C1018 C 0.3541 0.84811 0.18337 0.0
C1019 C 0.3855 0.83274 0.20094 0.0
C1020 C 0.37416 0.82887 0.22043 0.0
C1021 C 0.3757 0.84248 0.18261 0.0
C1022 C 0.34271 0.84394 0.203 0.0
C1023 C 0.34092 0.83168 0.24258 0.0
H1024 H 0.16692 0.72683 0.32949 0.0
H1025 H 0.19735 0.74404 0.30752 0.0
H1026 H 0.17595 0.70699 0.36323 0.0
H1027 H 0.24758 0.72349 0.35491 0.0
H1028 H 0.40208 0.82844 0.20016 0.0
H1029 H 0.3823 0.82155 0.23454 0.0
H1030 H 0.38524 0.8459 0.16805 0.0
H1031 H 0.32594 0.84784 0.2038 0.0
C1032 C 0.60742 0.08153 0.51151 0.0
C1033 C 0.62684 0.11063 0.54376 0.0
C1034 C 0.61136 0.08973 0.53546 0.0
C1035 C 0.63697 0.12394 0.52764 0.0
C1036 C 0.61887 0.09422 0.4955 0.0
C1037 C 0.63298 0.11577 0.50358 0.0
N1038 N 0.59421 0.06032 0.5042 0.0
C1039 C 0.59377 0.04994 0.48182 0.0
C1040 C 0.61673 0.08441 0.47203 0.0
C1041 C 0.60451 0.062 0.46528 0.0
Gd1042 Gd 0.504 0.03657 0.54668 0.0
Gd1043 Gd 0.57622 0.04257 0.5336 0.0
N1044 N 0.60161 0.07642 0.5508 0.0
C1045 C 0.63258 0.11701 0.56809 0.0
C1046 C 0.60832 0.0818 0.57448 0.0
C1047 C 0.62372 0.10225 0.58349 0.0
H1048 H 0.60162 0.07042 0.58638 0.0
H1049 H 0.62862 0.10668 0.6023 0.0
H1050 H 0.47336 0.01491 0.49487 0.0
H1051 H 0.58471 0.03242 0.47661 0.0
H1052 H 0.44534 0.97954 0.4773 0.0
H1053 H 0.64447 0.13288 0.57513 0.0
H1054 H 0.64865 0.14018 0.53369 0.0
H1055 H 0.50608 0.03695 0.60702 0.0
H1056 H 0.62526 0.09362 0.45923 0.0
H1057 H 0.60352 0.05395 0.4474 0.0
H1058 H 0.43582 0.9359 0.54159 0.0
H1059 H 0.64165 0.12585 0.49147 0.0
H1060 H 0.47161 0.97097 0.61829 0.0
H1061 H 0.49438 0.00945 0.63384 0.0
N1062 N 0.493 0.0134 0.5757 0.0
C1063 C 0.4789 0.99287 0.56681 0.0
C1064 C 0.49745 0.01984 0.59954 0.0
C1065 C 0.47739 0.98273 0.60617 0.0
C1066 C 0.49031 1.00441 0.61503 0.0
C1067 C 0.47091 0.97696 0.5819 0.0
H1068 H 0.44989 0.94374 0.58386 0.0
N1069 N 0.47817 1.00388 0.52834 0.0
C1070 C 0.47093 0.98822 0.54271 0.0
C1071 C 0.44584 0.96473 0.50965 0.0
C1072 C 0.45487 0.96792 0.53351 0.0
C1073 C 0.4686 1.00149 0.50543 0.0
C1074 C 0.45255 0.98171 0.49562 0.0
O1075 O 0.5659 0.07647 0.54837 0.0
O1076 O 0.52621 0.07325 0.55115 0.0
O1077 O 0.48251 0.05405 0.52532 0.0
O1078 O 0.47567 0.04815 0.56044 0.0
O1079 O 0.55234 0.02935 0.55881 0.0
O1080 O 0.52965 0.04661 0.57909 0.0
O1081 O 0.51305 1.00334 0.52801 0.0
O1082 O 0.55226 1.00716 0.52288 0.0
O1083 O 0.60089 0.03229 0.55854 0.0
O1084 O 0.59779 0.02017 0.52144 0.0
O1085 O 0.53161 0.04322 0.52533 0.0
O1086 O 0.55415 0.04264 0.49915 0.0
C1087 C 0.54763 0.08544 0.5522 0.0
C1088 C 0.54955 0.04123 0.57814 0.0
C1089 C 0.46877 0.08227 0.5484 0.0
C1090 C 0.44731 0.11256 0.54557 0.0
C1091 C 0.48278 0.11909 0.57239 0.0
C1092 C 0.48497 0.09685 0.56567 0.0
C1093 C 0.46418 0.12699 0.56235 0.0
C1094 C 0.4498 0.09013 0.53849 0.0
C1095 C 0.47077 0.0584 0.54238 0.0
C1096 C 0.4479 0.95172 0.54842 0.0
C1097 C 0.45595 0.95618 0.5725 0.0
H1098 H 0.4334 0.94941 0.502 0.0
C1099 C 0.53096 0.99484 0.52169 0.0
C1100 C 0.53371 0.04365 0.50335 0.0
C1101 C 0.63375 0.0236 0.5435 0.0
C1102 C 0.66785 1.007 0.54661 0.0
C1103 C 0.67033 0.04598 0.53757 0.0
C1104 C 0.64697 0.04397 0.5386 0.0
C1105 C 0.68065 0.02764 0.54123 0.0
C1106 C 0.64422 1.0053 0.54785 0.0
C1107 C 0.60877 0.02052 0.54226 0.0
H1108 H 0.49539 0.13016 0.58568 0.0
H1109 H 0.4992 0.09096 0.57429 0.0
H1110 H 0.46261 0.14419 0.56832 0.0
H1111 H 0.43689 0.07877 0.52564 0.0
H1112 H 0.68039 0.06166 0.53339 0.0
H1113 H 0.63919 0.05812 0.53504 0.0
H1114 H 0.69861 0.0296 0.53921 0.0
H1115 H 0.63381 0.98974 0.5519 0.0
C1116 C 0.24014 0.31525 0.73944 0.0
C1117 C 0.21644 0.28344 0.71266 0.0
C1118 C 0.23173 0.29197 0.73343 0.0
C1119 C 0.21025 0.29867 0.69762 0.0
C1120 C 0.23356 0.33065 0.7247 0.0
C1121 C 0.2188 0.32222 0.70362 0.0
N1122 N 0.25426 0.32285 0.76001 0.0
C1123 C 0.26184 0.34565 0.76729 0.0
C1124 C 0.24181 0.35406 0.73172 0.0
C1125 C 0.25588 0.36159 0.75319 0.0
Gd1126 Gd 0.32394 0.27378 0.78408 0.0
Gd1127 Gd 0.26411 0.29466 0.7816 0.0
N1128 N 0.23836 0.27764 0.74812 0.0
C1129 C 0.20764 0.25987 0.70782 0.0
C1130 C 0.22874 0.25493 0.74436 0.0
C1131 C 0.21357 0.24559 0.72393 0.0
H1132 H 0.23285 0.24415 0.75713 0.0
H1133 H 0.20635 0.22744 0.72071 0.0
H1134 H 0.35175 0.32658 0.80725 0.0
H1135 H 0.27236 0.35161 0.78408 0.0
H1136 H 0.37537 0.34596 0.84436 0.0
H1137 H 0.19587 0.25261 0.69201 0.0
H1138 H 0.19867 0.29245 0.68146 0.0
H1139 H 0.3147 0.21725 0.78773 0.0
H1140 H 0.23716 0.36646 0.72088 0.0
H1141 H 0.26205 0.37966 0.75894 0.0
H1142 H 0.38209 0.28496 0.88996 0.0
H1143 H 0.21366 0.33378 0.69199 0.0
H1144 H 0.34593 0.20869 0.85551 0.0
H1145 H 0.32307 0.19218 0.81706 0.0
N1146 N 0.33171 0.24786 0.80978 0.0
C1147 C 0.34494 0.25727 0.83055 0.0
C1148 C 0.32423 0.22477 0.80465 0.0
C1149 C 0.34215 0.21985 0.84279 0.0
C1150 C 0.32917 0.21046 0.82113 0.0
C1151 C 0.35035 0.24349 0.84769 0.0
H1152 H 0.36793 0.24335 0.88252 0.0
N1153 N 0.34695 0.2938 0.81825 0.0
C1154 C 0.35309 0.28082 0.83477 0.0
C1155 C 0.37442 0.31481 0.85973 0.0
C1156 C 0.36663 0.29107 0.85617 0.0
C1157 C 0.35546 0.31674 0.82107 0.0
C1158 C 0.36903 0.32766 0.84198 0.0
O1159 O 0.27382 0.28165 0.74574 0.0
O1160 O 0.29968 0.25796 0.75099 0.0
O1161 O 0.3527 0.28937 0.767 0.0
O1162 O 0.34919 0.25457 0.7741 0.0
O1163 O 0.27 0.26289 0.79686 0.0
O1164 O 0.29263 0.24464 0.77594 0.0
O1165 O 0.31059 0.2847 0.81885 0.0
O1166 O 0.29104 0.31268 0.8113 0.0
O1167 O 0.23997 0.27751 0.80296 0.0
O1168 O 0.24046 0.3125 0.79769 0.0
O1169 O 0.31993 0.30496 0.76632 0.0
O1170 O 0.29618 0.32273 0.78664 0.0
C1171 C 0.28506 0.26634 0.73748 0.0
C1172 C 0.27369 0.24425 0.78557 0.0
C1173 C 0.36596 0.26398 0.74023 0.0
C1174 C 0.39298 0.26416 0.71124 0.0
C1175 C 0.35405 0.24172 0.70166 0.0
C1176 C 0.3492 0.24896 0.72396 0.0
C1177 C 0.37576 0.24913 0.69537 0.0
C1178 C 0.38791 0.27186 0.73371 0.0
C1179 C 0.36055 0.27077 0.76406 0.0
C1180 C 0.37182 0.27738 0.87334 0.0
C1181 C 0.36372 0.25368 0.86911 0.0
H1182 H 0.38481 0.32334 0.87597 0.0
C1183 C 0.3017 0.30213 0.82623 0.0
C1184 C 0.31414 0.3236 0.77525 0.0
C1185 C 0.20512 0.29014 0.80421 0.0
C1186 C 0.16913 0.28223 0.82159 0.0
C1187 C 0.16884 0.28754 0.78013 0.0
C1188 C 0.1926 0.29081 0.78244 0.0
C1189 C 0.15723 0.28357 0.79945 0.0
C1190 C 0.19336 0.28563 0.82372 0.0
C1191 C 0.23043 0.29493 0.80681 0.0
H1192 H 0.34103 0.2301 0.68928 0.0
H1193 H 0.33247 0.24257 0.72873 0.0
H1194 H 0.37915 0.24311 0.67798 0.0
H1195 H 0.40106 0.28337 0.74617 0.0
H1196 H 0.15934 0.28845 0.76332 0.0
H1197 H 0.20123 0.29427 0.76731 0.0
H1198 H 0.13885 0.28204 0.79698 0.0
H1199 H 0.20312 0.28481 0.84041 0.0
C1200 C 0.02132 0.09297 0.58695 0.0
C1201 C 0.05586 0.12081 0.60401 0.0
C1202 C 0.04389 0.1038 0.58575 0.0
C1203 C 0.04499 0.12671 0.62342 0.0
C1204 C 1.01035 0.09899 0.60637 0.0
C1205 C 0.02231 0.11587 0.62457 0.0
N1206 N 1.01033 0.07617 0.56942 0.0
C1207 C 0.98796 0.06583 0.56946 0.0
C1208 C 0.98768 0.08783 0.60694 0.0
C1209 C 0.97639 0.07131 0.58832 0.0
Gd1210 Gd 0.05173 0.00881 0.53772 0.0
Gd1211 Gd 0.03118 0.06931 0.53839 0.0
N1212 N 0.0542 0.09745 0.56697 0.0
C1213 C 0.07842 0.13144 0.60218 0.0
C1214 C 0.07574 0.10854 0.56455 0.0
C1215 C 0.0883 0.12545 0.58224 0.0
H1216 H 0.08302 0.10495 0.54869 0.0
H1217 H 0.10544 0.13413 0.58031 0.0
H1218 H 1.0019 0.97187 0.52231 0.0
H1219 H 0.97873 0.05366 0.55483 0.0
H1220 H 0.98231 0.94324 0.48854 0.0
H1221 H 0.08819 0.14458 0.61584 0.0
H1222 H 0.05397 0.13968 0.63764 0.0
H1223 H 0.10811 0.01983 0.53091 0.0
H1224 H 0.97866 0.09201 0.62154 0.0
H1225 H 0.95871 0.06294 0.58838 0.0
H1226 H 0.03892 0.94338 0.43572 0.0
H1227 H 0.01418 0.12065 0.63967 0.0
H1228 H 0.11433 0.98823 0.46267 0.0
H1229 H 0.13188 0.01261 0.49997 0.0
N1230 N 0.07679 1.00164 0.5105 0.0
C1231 C 0.06704 0.9872 0.49064 0.0
C1232 C 0.09994 0.00999 0.51436 0.0
C1233 C 0.10364 0.9918 0.47597 0.0
C1234 C 0.11361 1.0056 0.49699 0.0
C1235 C 0.08019 0.98197 0.47279 0.0
H1236 H 0.07953 0.96251 0.43877 0.0
N1237 N 0.03205 0.98144 0.50653 0.0
C1238 C 0.0441 0.97649 0.48876 0.0
C1239 C 0.01114 0.94847 0.469 0.0
C1240 C 0.03381 0.96018 0.46925 0.0
C1241 C 1.01051 0.96907 0.50716 0.0
C1242 C 0.99957 0.95268 0.48823 0.0
O1243 O 0.04104 0.05667 0.57391 0.0
O1244 O 0.06918 0.03738 0.56612 0.0
O1245 O 0.04024 0.98737 0.56407 0.0
O1246 O 0.07103 0.98412 0.5494 0.0
O1247 O 0.06457 0.06845 0.52384 0.0
O1248 O 0.08027 0.04089 0.54121 0.0
O1249 O 0.02859 0.01438 0.50532 0.0
O1250 O 0.03996 0.05272 0.50439 0.0
O1251 O 0.03491 0.10312 0.527 0.0
O1252 O 1.00205 0.07972 0.52039 0.0
O1253 O 0.02039 0.01495 0.55358 0.0
O1254 O 1.00328 0.03701 0.5305 0.0
C1255 C 0.05845 0.04758 0.58126 0.0
C1256 C 0.08202 0.05926 0.53031 0.0
C1257 C 0.04938 0.9509 0.56138 0.0
C1258 C 0.04101 0.91606 0.58002 0.0
C1259 C 0.03516 0.91408 0.53744 0.0
C1260 C 0.04296 0.93764 0.53925 0.0
C1261 C 0.03405 0.90335 0.55766 0.0
C1262 C 0.04866 0.93996 0.58186 0.0
C1263 C 0.0565 0.97605 0.56316 0.0
C1264 C 0.0466 0.95567 0.451 0.0
C1265 C 0.06972 0.96658 0.45274 0.0
H1266 H 1.00265 0.93576 0.45436 0.0
C1267 C 0.03069 0.03214 0.49361 0.0
C1268 C 1.00208 0.01902 0.54179 0.0
C1269 C 1.01059 0.10549 0.49221 0.0
C1270 C 0.01431 0.13416 0.46476 0.0
C1271 C 0.99305 0.09544 0.4514 0.0
C1272 C 0.99774 0.08932 0.47376 0.0
C1273 C 1.00124 0.11761 0.4469 0.0
C1274 C 0.01906 0.12803 0.48751 0.0
C1275 C 0.01399 0.09919 0.51646 0.0
H1276 H 0.03008 0.90406 0.52027 0.0
H1277 H 0.04405 0.94543 0.52331 0.0
H1278 H 0.02812 0.885 0.55585 0.0
H1279 H 0.05387 0.94995 0.59906 0.0
H1280 H 0.98284 0.08299 0.43746 0.0
H1281 H 0.991 0.07194 0.47661 0.0
H1282 H 0.99727 0.12192 0.42939 0.0
H1283 H 0.0288 0.14081 0.50153 0.0
C1284 C 0.25072 0.72719 0.80997 0.0
C1285 C 0.22144 0.70487 0.77927 0.0
C1286 C 0.24239 0.72072 0.78625 0.0
C1287 C 0.20824 0.69676 0.79644 0.0
C1288 C 0.23802 0.7181 0.82724 0.0
C1289 C 0.21648 0.70341 0.82037 0.0
N1290 N 0.27189 0.74097 0.81609 0.0
C1291 C 0.28214 0.74456 0.83893 0.0
C1292 C 0.24774 0.72331 0.85087 0.0
C1293 C 0.27004 0.73626 0.85668 0.0
Gd1294 Gd 0.293 0.82355 0.77076 0.0
Gd1295 Gd 0.28961 0.75507 0.78466 0.0
N1296 N 0.25538 0.72898 0.76995 0.0
C1297 C 0.21484 0.69697 0.75528 0.0
C1298 C 0.24989 0.72016 0.74674 0.0
C1299 C 0.22941 0.70424 0.739 0.0
H1300 H 0.26122 0.72564 0.73424 0.0
H1301 H 0.22482 0.6977 0.72052 0.0
H1302 H 0.3108 0.84935 0.82563 0.0
H1303 H 0.2997 0.75382 0.84357 0.0
H1304 H 0.34472 0.87678 0.84737 0.0
H1305 H 0.19892 0.68472 0.74923 0.0
H1306 H 0.19196 0.6848 0.79142 0.0
H1307 H 0.30153 0.81882 0.71228 0.0
H1308 H 0.23852 0.71668 0.86464 0.0
H1309 H 0.27804 0.73962 0.8748 0.0
H1310 H 0.39229 0.8962 0.78793 0.0
H1311 H 0.2064 0.69647 0.83341 0.0
H1312 H 0.36673 0.86073 0.70887 0.0
H1313 H 0.33166 0.83365 0.68943 0.0
N1314 N 0.31995 0.83547 0.74551 0.0
C1315 C 0.33877 0.85124 0.75647 0.0
C1316 C 0.31703 0.82969 0.7216 0.0
C1317 C 0.35372 0.85386 0.71933 0.0
C1318 C 0.33399 0.83848 0.7083 0.0
C1319 C 0.35618 0.86068 0.74358 0.0
H1320 H 0.38891 0.88414 0.74545 0.0
N1321 N 0.32415 0.84871 0.79317 0.0
C1322 C 0.34071 0.85831 0.78071 0.0
C1323 C 0.36156 0.88096 0.81653 0.0
C1324 C 0.36003 0.87457 0.79224 0.0
C1325 C 0.32496 0.85568 0.81655 0.0
C1326 C 0.34388 0.87158 0.8287 0.0
O1327 O 0.25413 0.76302 0.77032 0.0
O1328 O 0.2564 0.80135 0.76425 0.0
O1329 O 0.27748 0.84931 0.78851 0.0
O1330 O 0.28245 0.84972 0.75198 0.0
O1331 O 0.30151 0.77753 0.75839 0.0
O1332 O 0.28234 0.79836 0.73822 0.0
O1333 O 0.32753 0.8136 0.78555 0.0
O1334 O 0.32424 0.77834 0.80037 0.0
O1335 O 0.30334 0.7341 0.75925 0.0
O1336 O 0.30611 0.728 0.79542 0.0
O1337 O 0.27779 0.80396 0.79797 0.0
O1338 O 0.29676 0.78141 0.81689 0.0
C1339 C 0.24447 0.78024 0.76447 0.0
C1340 C 0.28878 0.77916 0.7392 0.0
C1341 C 0.24922 0.86061 0.76311 0.0
C1342 C 0.21895 0.88224 0.76627 0.0
C1343 C 0.21137 0.84584 0.74106 0.0
C1344 C 0.23386 0.84372 0.7472 0.0
C1345 C 0.2039 0.86486 0.75057 0.0
C1346 C 0.24174 0.87999 0.77252 0.0
C1347 C 0.27308 0.85814 0.76929 0.0
C1348 C 0.3773 0.88377 0.77933 0.0
C1349 C 0.37541 0.87683 0.75513 0.0
H1350 H 0.3762 0.8933 0.82601 0.0
C1351 C 0.33666 0.7981 0.79625 0.0
C1352 C 0.28923 0.8003 0.81707 0.0
C1353 C 0.33636 0.72188 0.77422 0.0
C1354 C 0.36685 0.70014 0.77363 0.0
C1355 C 0.37579 0.74146 0.77439 0.0
C1356 C 0.35267 0.74196 0.77393 0.0
C1357 C 0.38288 0.72082 0.77443 0.0
C1358 C 0.34346 0.70092 0.77392 0.0
C1359 C 0.31203 0.72296 0.77477 0.0
H1360 H 0.1997 0.8327 0.7288 0.0
H1361 H 0.23924 0.82888 0.73935 0.0
H1362 H 0.18641 0.86619 0.74521 0.0
H1363 H 0.25356 0.89319 0.78464 0.0
H1364 H 0.38828 0.75715 0.77464 0.0
H1365 H 0.34754 0.75807 0.77328 0.0
H1366 H 0.40102 0.72112 0.77508 0.0
H1367 H 0.33075 0.68532 0.77345 0.0
C1368 C 0.56405 0.98166 0.08034 0.0
C1369 C 0.58659 1.00233 0.11646 0.0
C1370 C 0.56961 1.00079 0.09711 0.0
C1371 C 0.59855 0.98468 0.11818 0.0
C1372 C 0.57533 0.96344 0.08254 0.0
C1373 C 0.59294 0.96528 0.10124 0.0
N1374 N 0.54654 0.9802 0.06283 0.0
C1375 C 0.53841 0.96027 0.04799 0.0
C1376 C 0.56804 0.9436 0.06637 0.0
C1377 C 0.54928 0.9419 0.04923 0.0
Gd1378 Gd 0.53827 0.05848 0.00635 0.0
Gd1379 Gd 0.53033 0.01272 0.06141 0.0
N1380 N 0.55772 0.01755 0.09495 0.0
C1381 C 0.59064 0.02131 0.13379 0.0
C1382 C 0.5607 0.03547 0.11242 0.0
C1383 C 0.57742 0.03781 0.1319 0.0
H1384 H 0.55053 0.04817 0.11099 0.0
H1385 H 0.58008 0.05232 0.14544 0.0
H1386 H 0.56401 0.03545 0.96348 0.0
H1387 H 0.52347 0.95847 0.03509 0.0
H1388 H 0.55463 0.02016 0.9213 0.0
H1389 H 0.60353 0.02313 0.14894 0.0
H1390 H 0.6118 0.98563 0.13281 0.0
H1391 H 0.50385 0.09449 0.01627 0.0
H1392 H 0.57628 0.92925 0.06744 0.0
H1393 H 0.54305 0.92637 0.03708 0.0
H1394 H 0.48205 0.039 0.89837 0.0
H1395 H 0.60192 0.95154 0.1031 0.0
H1396 H 0.4545 0.08754 0.955 0.0
H1397 H 0.46965 0.10488 0.99598 0.0
N1398 N 0.50765 0.07143 0.98723 0.0
C1399 C 0.50022 0.06253 0.96451 0.0
C1400 C 0.49745 0.0871 0.99833 0.0
C1401 C 0.46949 0.083 0.96383 0.0
C1402 C 0.47804 0.09289 0.98693 0.0
C1403 C 0.48086 0.06793 0.95216 0.0
H1404 H 0.45896 0.06241 0.9187 0.0
N1405 N 0.53232 0.04586 0.96551 0.0
C1406 C 0.51301 0.04924 0.95323 0.0
C1407 C 0.52193 0.0299 0.91765 0.0
C1408 C 0.50708 0.04113 0.92905 0.0
C1409 C 0.54782 0.03669 0.95402 0.0
C1410 C 0.54264 0.02811 0.93011 0.0
O1411 O 0.56652 0.03236 0.06599 0.0
O1412 O 0.54934 0.04077 0.03464 0.0
O1413 O 0.57288 0.07039 0.99987 0.0
O1414 O 0.55395 0.09494 0.01228 0.0
O1415 O 0.5276 0.05053 0.07149 0.0
O1416 O 0.53239 0.07516 0.04209 0.0
O1417 O 0.50287 0.04769 0.01553 0.0
O1418 O 0.50907 0.01462 0.02721 0.0
O1419 O 0.5045 0.01771 0.08409 0.0
O1420 O 0.50632 0.98372 0.06967 0.0
O1421 O 0.54285 0.02178 0.99581 0.0
O1422 O 0.53511 0.99652 0.02416 0.0
C1423 C 0.56836 0.04389 0.0487 0.0
C1424 C 0.52872 0.07087 0.06375 0.0
C1425 C 0.5839 0.10758 0.98989 0.0
C1426 C 0.6065 0.11426 0.95758 0.0
C1427 C 0.60138 0.1462 0.98458 0.0
C1428 C 0.58824 0.13115 0.99705 0.0
C1429 C 0.61074 0.13787 0.96518 0.0
C1430 C 0.59251 0.0993 0.96975 0.0
C1431 C 0.573 0.09184 0.00517 0.0
C1432 C 0.48708 0.04535 0.91688 0.0
C1433 C 0.47396 0.05871 0.92844 0.0
H1434 H 0.518 0.02338 0.8991 0.0
C1435 C 0.4954 0.02879 0.02418 0.0
C1436 C 0.54066 1.00126 1.00308 0.0
C1437 C 0.49897 0.98909 0.10889 0.0
C1438 C 0.485 0.98935 0.14699 0.0
C1439 C 0.51729 0.972 0.1399 0.0
C1440 C 0.51566 0.97737 0.117 0.0
C1441 C 0.50216 0.97801 0.15488 0.0
C1442 C 0.48361 0.99499 0.12391 0.0
C1443 C 0.49812 0.99597 0.08517 0.0
H1444 H 0.60494 0.16436 0.9904 0.0
H1445 H 0.58201 0.13787 0.0127 0.0
H1446 H 0.62179 0.14992 0.95659 0.0
H1447 H 0.58883 0.08112 0.96395 0.0
H1448 H 0.5304 0.96323 0.1461 0.0
H1449 H 0.52753 0.97239 0.10574 0.0
H1450 H 0.50405 0.97397 0.17273 0.0
H1451 H 0.47059 1.00383 0.11758 0.0
C1452 C 0.34361 0.32539 0.34644 0.0
C1453 C 0.38064 0.33518 0.3328 0.0
C1454 C 0.3565 0.32989 0.3284 0.0
C1455 C 0.3916 0.33446 0.3554 0.0
C1456 C 0.35453 0.32591 0.36948 0.0
C1457 C 0.37856 0.32979 0.37372 0.0
N1458 N 0.32049 0.3224 0.34182 0.0
C1459 C 0.30751 0.32197 0.3599 0.0
C1460 C 0.34103 0.32349 0.38773 0.0
C1461 C 0.31744 0.32191 0.38296 0.0
Gd1462 Gd 0.27119 0.2634 0.26454 0.0
Gd1463 Gd 0.30522 0.31996 0.30182 0.0
N1464 N 0.34538 0.3307 0.30687 0.0
C1465 C 0.393 0.34183 0.31456 0.0
C1466 C 0.35726 0.33836 0.28938 0.0
C1467 C 0.38123 0.34377 0.29286 0.0
H1468 H 0.34826 0.3399 0.2726 0.0
H1469 H 0.3906 0.34933 0.27879 0.0
H1470 H 0.24832 0.24026 0.3092 0.0
H1471 H 0.28932 0.32136 0.35655 0.0
H1472 H 0.21022 0.22256 0.31844 0.0
H1473 H 0.41157 0.34605 0.31722 0.0
H1474 H 0.41014 0.33819 0.35908 0.0
H1475 H 0.26401 0.26924 0.20655 0.0
H1476 H 0.34873 0.32372 0.40565 0.0
H1477 H 0.30692 0.32085 0.39706 0.0
H1478 H 0.15972 0.22077 0.24755 0.0
H1479 H 0.38724 0.33002 0.39125 0.0
H1480 H 0.19245 0.24796 0.18121 0.0
H1481 H 0.23208 0.26368 0.17432 0.0
N1482 N 0.24248 0.25832 0.23199 0.0
C1483 C 0.22091 0.24891 0.23593 0.0
C1484 C 0.24667 0.26309 0.21 0.0
C1485 C 0.20634 0.25074 0.19556 0.0
C1486 C 0.22868 0.25966 0.1916 0.0
C1487 C 0.20225 0.24497 0.21781 0.0
H1488 H 0.16566 0.23204 0.2086 0.0
N1489 N 0.2358 0.24637 0.27515 0.0
C1490 C 0.21753 0.24245 0.25796 0.0
C1491 C 0.19283 0.22522 0.28449 0.0
C1492 C 0.19547 0.23201 0.26231 0.0
C1493 C 0.23355 0.23857 0.2963 0.0
C1494 C 0.212 0.22828 0.30146 0.0
O1495 O 0.3282 0.29534 0.28886 0.0
O1496 O 0.3079 0.27357 0.25503 0.0
O1497 O 0.27918 0.23127 0.27277 0.0
O1498 O 0.26887 0.23591 0.23612 0.0
O1499 O 0.30754 0.31908 0.26269 0.0
O1500 O 0.2747 0.29431 0.24458 0.0
O1501 O 0.24577 0.28204 0.28204 0.0
O1502 O 0.26651 0.31385 0.30704 0.0
O1503 O 0.29043 0.34597 0.28646 0.0
O1504 O 0.31556 0.35513 0.3179 0.0
O1505 O 0.28944 0.26184 0.30118 0.0
O1506 O 0.28471 0.29447 0.32107 0.0
C1507 C 0.32765 0.28196 0.26877 0.0
C1508 C 0.29189 0.31154 0.2443 0.0
C1509 C 0.27657 0.19912 0.24276 0.0
C1510 C 0.29437 0.16681 0.24852 0.0
C1511 C 0.26116 0.16275 0.21876 0.0
C1512 C 0.26055 0.1856 0.22474 0.0
C1513 C 0.27769 0.15328 0.23074 0.0
C1514 C 0.29369 0.18991 0.25417 0.0
C1515 C 0.27467 0.22242 0.25069 0.0
C1516 C 0.17681 0.2286 0.24446 0.0
C1517 C 0.18019 0.23506 0.22229 0.0
H1518 H 0.17615 0.21722 0.28853 0.0
C1519 C 0.24653 0.30025 0.29749 0.0
C1520 C 0.28651 0.27333 0.32083 0.0
C1521 C 0.2836 0.37237 0.31649 0.0
C1522 C 0.25333 0.39389 0.31494 0.0
C1523 C 0.26403 0.37835 0.35062 0.0
C1524 C 0.28067 0.36949 0.33992 0.0
C1525 C 0.25027 0.39032 0.33818 0.0
C1526 C 0.26995 0.38467 0.30413 0.0
C1527 C 0.29973 0.36141 0.30438 0.0
H1528 H 0.24847 0.15219 0.20517 0.0
H1529 H 0.2472 0.19253 0.21579 0.0
H1530 H 0.27695 0.13525 0.22632 0.0
H1531 H 0.30641 0.2009 0.26746 0.0
H1532 H 0.26176 0.37586 0.36859 0.0
H1533 H 0.29105 0.36025 0.34997 0.0
H1534 H 0.23739 0.39698 0.34682 0.0
H1535 H 0.27259 0.38736 0.28626 0.0
C1536 C 0.51295 0.58869 0.08146 0.0
C1537 C 0.54525 0.61423 0.10622 0.0
C1538 C 0.53633 0.59828 0.08604 0.0
C1539 C 0.53046 0.62008 0.12198 0.0
C1540 C 0.49805 0.59473 0.09715 0.0
C1541 C 0.50695 0.61032 0.11749 0.0
N1542 N 0.50475 0.5738 0.0615 0.0
C1543 C 0.48181 0.56492 0.0558 0.0
C1544 C 0.47458 0.58509 0.09179 0.0
C1545 C 0.46643 0.57023 0.07098 0.0
Gd1546 Gd 0.55453 0.50733 0.03427 0.0
Gd1547 Gd 0.53234 0.56662 0.03763 0.0
N1548 N 0.55042 0.59172 0.07093 0.0
C1549 C 0.56883 0.62368 0.11002 0.0
C1550 C 0.5731 0.60172 0.07381 0.0
C1551 C 0.58278 0.61754 0.09361 0.0
H1552 H 0.58351 0.59768 0.06063 0.0
H1553 H 0.60091 0.62518 0.09606 0.0
H1554 H 0.5035 0.47109 0.02842 0.0
H1555 H 0.47521 0.55409 0.03936 0.0
H1556 H 0.47842 0.44232 0.99813 0.0
H1557 H 0.57637 0.63593 0.12536 0.0
H1558 H 0.53703 0.63217 0.13769 0.0
H1559 H 0.60518 0.52155 0.01388 0.0
H1560 H 0.46259 0.58928 0.10342 0.0
H1561 H 0.44827 0.56305 0.06648 0.0
H1562 H 0.52391 0.43682 0.93514 0.0
H1563 H 0.49576 0.61509 0.12978 0.0
H1564 H 0.59984 0.4833 0.9459 0.0
H1565 H 0.62231 0.51199 0.97819 0.0
N1566 N 0.57296 0.4992 1.00156 0.0
C1567 C 0.56048 0.48293 0.98428 0.0
C1568 C 0.595 0.50936 0.99975 0.0
C1569 C 0.59214 0.48754 0.96146 0.0
C1570 C 0.60486 0.5038 0.97963 0.0
C1571 C 0.5697 0.4768 0.96367 0.0
H1572 H 0.56306 0.45537 0.92996 0.0
N1573 N 0.52956 0.47936 0.00691 0.0
C1574 C 0.53819 0.47271 0.98705 0.0
C1575 C 0.50288 0.44513 0.97334 0.0
C1576 C 0.52489 0.45569 0.96953 0.0
C1577 C 0.50891 0.46793 0.01146 0.0
C1578 C 0.495 0.45105 0.99457 0.0
O1579 O 0.54498 0.55571 0.07321 0.0
O1580 O 0.57074 0.53304 0.0657 0.0
O1581 O 0.54762 0.4792 0.05604 0.0
O1582 O 0.58039 0.48818 0.04254 0.0
O1583 O 0.56454 0.56364 0.02151 0.0
O1584 O 0.58284 0.53935 0.04064 0.0
O1585 O 0.54352 0.52012 0.99926 0.0
O1586 O 0.51602 0.54124 0.00572 0.0
O1587 O 0.5462 0.59283 0.0165 0.0
O1588 O 0.51294 0.59163 0.02775 0.0
O1589 O 0.52285 0.51048 0.05168 0.0
O1590 O 0.50527 0.53405 0.03068 0.0
C1591 C 0.56069 0.54446 0.08053 0.0
C1592 C 0.58325 0.55806 0.03069 0.0
C1593 C 0.57734 0.45728 0.06657 0.0
C1594 C 0.57381 0.42387 0.08807 0.0
C1595 C 0.61059 0.44121 0.07706 0.0
C1596 C 0.60078 0.45733 0.0666 0.0
C1597 C 0.59727 0.4246 0.0876 0.0
C1598 C 0.56381 0.44052 0.0777 0.0
C1599 C 0.56803 0.47511 0.05498 0.0
C1600 C 0.53397 0.4497 0.94889 0.0
C1601 C 0.55629 0.46024 0.94595 0.0
H1602 H 0.49211 0.43201 0.9603 0.0
C1603 C 0.52666 0.52973 0.99148 0.0
C1604 C 0.50428 0.51657 0.04263 0.0
C1605 C 0.51849 0.60604 0.99183 0.0
C1606 C 0.5159 0.63228 0.96236 0.0
C1607 C 0.48967 0.59525 0.95739 0.0
C1608 C 0.50008 0.59021 0.9784 0.0
C1609 C 0.49745 0.61605 0.94942 0.0
C1610 C 0.5266 0.62704 0.98358 0.0
C1611 C 0.52786 0.60138 0.01523 0.0
H1612 H 0.62866 0.44155 0.07693 0.0
H1613 H 0.61172 0.46996 0.05853 0.0
H1614 H 0.60537 0.41221 0.09553 0.0
H1615 H 0.54572 0.44014 0.07792 0.0
H1616 H 0.47531 0.58307 0.94734 0.0
H1617 H 0.49349 0.57405 0.98436 0.0
H1618 H 0.48896 0.61953 0.93307 0.0
H1619 H 0.54055 0.63954 0.99401 0.0
C1620 C 0.75274 0.22123 0.30345 0.0
C1621 C 0.72399 0.20145 0.27097 0.0
C1622 C 0.74477 0.21714 0.27948 0.0
C1623 C 0.71066 0.19103 0.28692 0.0
C1624 C 0.73986 0.20986 0.31937 0.0
C1625 C 0.71853 0.19528 0.31106 0.0
N1626 N 0.77374 0.23493 0.31098 0.0
C1627 C 0.7837 0.2361 0.3337 0.0
C1628 C 0.74919 0.21271 0.34308 0.0
C1629 C 0.77137 0.22555 0.35018 0.0
Gd1630 Gd 0.79441 0.32343 0.27194 0.0
Gd1631 Gd 0.79202 0.25257 0.28158 0.0
N1632 N 0.75788 0.22754 0.26433 0.0
C1633 C 0.71747 0.19634 0.2466 0.0
C1634 C 0.75243 0.22138 0.24058 0.0
C1635 C 0.73193 0.2061 0.23135 0.0
H1636 H 0.76385 0.22844 0.22886 0.0
H1637 H 0.72737 0.20173 0.21251 0.0
H1638 H 0.82276 0.34832 0.32421 0.0
H1639 H 0.80121 0.24519 0.33924 0.0
H1640 H 0.8592 0.37546 0.34003 0.0
H1641 H 0.70161 0.18443 0.23941 0.0
H1642 H 0.69449 0.1792 0.28072 0.0
H1643 H 0.7846 0.32976 0.21404 0.0
H1644 H 0.7398 0.2043 0.35584 0.0
H1645 H 0.77911 0.22707 0.36827 0.0
H1646 H 0.89146 0.39685 0.27107 0.0
H1647 H 0.70833 0.1866 0.32309 0.0
H1648 H 0.84562 0.37046 0.19638 0.0
H1649 H 0.80634 0.34741 0.1845 0.0
N1650 N 0.81223 0.34062 0.24207 0.0
C1651 C 0.83321 0.3545 0.24928 0.0
C1652 C 0.8021 0.33899 0.21936 0.0
C1653 C 0.83639 0.36228 0.20937 0.0
C1654 C 0.81422 0.34927 0.20259 0.0
C1655 C 0.8459 0.36558 0.23305 0.0
H1656 H 0.87731 0.38873 0.22876 0.0
N1657 N 0.82845 0.34885 0.28862 0.0
C1658 C 0.84134 0.35904 0.27321 0.0
C1659 C 0.86882 0.38034 0.3057 0.0
C1660 C 0.86212 0.37484 0.28138 0.0
C1661 C 0.83401 0.35538 0.3123 0.0
C1662 C 0.85451 0.37082 0.32123 0.0
O1663 O 0.75701 0.26224 0.26745 0.0
O1664 O 0.75969 0.29952 0.25686 0.0
O1665 O 0.78082 0.3427 0.29892 0.0
O1666 O 0.77675 0.3503 0.26328 0.0
O1667 O 0.80517 0.27785 0.25819 0.0
O1668 O 0.78808 0.30005 0.23774 0.0
O1669 O 0.82926 0.31415 0.28653 0.0
O1670 O 0.8269 0.27654 0.2959 0.0
O1671 O 0.80523 0.23184 0.25541 0.0
O1672 O 0.81147 0.22773 0.29204 0.0
O1673 O 0.78218 0.29709 0.29421 0.0
O1674 O 0.79764 0.27535 0.31614 0.0
C1675 C 0.74771 0.27867 0.25858 0.0
C1676 C 0.79453 0.28076 0.23825 0.0
C1677 C 0.74651 0.3534 0.28534 0.0
C1678 C 0.71437 0.37288 0.28529 0.0
C1679 C 0.70788 0.33171 0.28524 0.0
C1680 C 0.73128 0.33262 0.2858 0.0
C1681 C 0.69942 0.35157 0.28471 0.0
C1682 C 0.73806 0.37355 0.28533 0.0
C1683 C 0.77103 0.35391 0.28426 0.0
C1684 C 0.87529 0.38496 0.26513 0.0
C1685 C 0.86724 0.38029 0.24103 0.0
H1686 H 0.88469 0.39233 0.31265 0.0
C1687 C 0.83865 0.29767 0.29505 0.0
C1688 C 0.79177 0.29473 0.31478 0.0
C1689 C 0.81083 0.19585 0.26448 0.0
C1690 C 0.82729 0.16203 0.25778 0.0
C1691 C 0.78604 0.15826 0.25771 0.0
C1692 C 0.78892 0.18186 0.2622 0.0
C1693 C 0.805 0.14838 0.25574 0.0
C1694 C 0.82993 0.18596 0.26205 0.0
C1695 C 0.81426 0.22067 0.27066 0.0
H1696 H 0.69624 0.3155 0.28516 0.0
H1697 H 0.73743 0.31704 0.28648 0.0
H1698 H 0.68109 0.35017 0.28388 0.0
H1699 H 0.74999 0.38965 0.28573 0.0
H1700 H 0.76908 0.14752 0.25623 0.0
H1701 H 0.7741 0.18909 0.26429 0.0
H1702 H 0.80212 0.12995 0.25323 0.0
H1703 H 0.84679 0.19696 0.26368 0.0
C1704 C 0.05186 0.48056 0.58877 0.0
C1705 C 0.07031 0.50227 0.62615 0.0
C1706 C 0.05661 0.50069 0.60431 0.0
C1707 C 0.07859 0.48323 0.63236 0.0
C1708 C 0.06038 0.4615 0.59482 0.0
C1709 C 0.0736 0.46289 0.61676 0.0
N1710 N 0.03946 0.47984 0.56746 0.0
C1711 C 0.0345 0.46054 0.55156 0.0
C1712 C 0.05551 0.44165 0.57853 0.0
C1713 C 0.04251 0.44118 0.55681 0.0
Gd1714 Gd 0.0511 0.56169 0.51586 0.0
Gd1715 Gd 0.02512 0.51222 0.56106 0.0
N1716 N 0.04868 0.51898 0.59761 0.0
C1717 C 0.07557 0.52306 0.64096 0.0
C1718 C 0.0539 0.53933 0.61199 0.0
C1719 C 0.06741 0.54167 0.63379 0.0
H1720 H 0.04787 0.55394 0.60694 0.0
H1721 H 0.07151 0.55787 0.64508 0.0
H1722 H 0.04374 0.52395 0.46645 0.0
H1723 H 0.02399 0.45985 0.53498 0.0
H1724 H 0.02771 0.52059 0.42497 0.0
H1725 H 0.08608 0.52498 0.65785 0.0
H1726 H 0.08905 0.48412 0.6491 0.0
H1727 H 0.04673 0.61379 0.54015 0.0
H1728 H 0.06171 0.42663 0.58254 0.0
H1729 H 0.03853 0.42587 0.54417 0.0
H1730 H 1.00274 0.59061 0.4183 0.0
H1731 H 0.08026 0.4484 0.62174 0.0
H1732 H 0.01412 0.64541 0.48729 0.0
H1733 H 0.03147 0.64635 0.52836 0.0
N1734 N 0.03655 0.59357 0.5067 0.0
C1735 C 0.0278 0.59304 0.48383 0.0
C1736 C 0.03831 0.6126 0.52249 0.0
C1737 C 0.02039 0.6308 0.49251 0.0
C1738 C 0.03007 0.63135 0.51572 0.0
C1739 C 0.01932 0.6116 0.47618 0.0
H1740 H 1.00365 0.6246 0.44633 0.0
N1741 N 0.03567 0.55626 0.47586 0.0
C1742 C 0.02748 0.57394 0.46793 0.0
C1743 C 0.01831 0.55329 0.42862 0.0
C1744 C 0.01841 0.57282 0.44412 0.0
C1745 C 0.03626 0.53749 0.46063 0.0
C1746 C 0.02738 0.53562 0.4369 0.0
O1747 O 0.06343 0.51762 0.56156 0.0
O1748 O 0.05922 0.55065 0.55084 0.0
O1749 O 0.0825 0.56116 0.5005 0.0
O1750 O 0.0792 0.59124 0.52271 0.0
O1751 O 0.02077 0.54915 0.57264 0.0
O1752 O 0.04151 0.57622 0.55144 0.0
O1753 O 0.01328 0.54998 0.50329 0.0
O1754 O 0.01999 0.53361 0.53345 0.0
O1755 O 0.99838 0.51092 0.58338 0.0
O1756 O 0.99507 0.48434 0.55392 0.0
O1757 O 0.05446 0.52392 0.50755 0.0
O1758 O 0.02589 0.49845 0.5224 0.0
C1759 C 0.07269 0.53683 0.55491 0.0
C1760 C 0.02921 0.57061 0.56883 0.0
C1761 C 0.09596 0.59682 0.48803 0.0
C1762 C 0.11067 0.60025 0.45044 0.0
C1763 C 0.09212 0.62927 0.46755 0.0
C1764 C 0.08879 0.61754 0.48683 0.0
C1765 C 0.10278 0.62064 0.44936 0.0
C1766 C 0.10712 0.58848 0.46993 0.0
C1767 C 0.09037 0.58293 0.50701 0.0
C1768 C 1.00977 0.59118 0.43652 0.0
C1769 C 1.01026 0.61052 0.45249 0.0
H1770 H 0.01148 0.55179 0.41021 0.0
C1771 C 1.00452 0.53632 0.51711 0.0
C1772 C 0.04162 0.50309 0.50792 0.0
C1773 C 0.97915 0.47404 0.58849 0.0
C1774 C 0.96204 0.46565 0.62399 0.0
C1775 C 0.97135 0.43527 0.59793 0.0
C1776 C 0.97958 0.4509 0.58306 0.0
C1777 C 0.96257 0.44251 0.61822 0.0
C1778 C 0.97043 0.48124 0.60894 0.0
C1779 C 0.987 0.49103 0.57295 0.0
H1780 H 0.08615 0.64496 0.46654 0.0
H1781 H 0.08019 0.62452 0.50051 0.0
H1782 H 0.1045 0.62983 0.43431 0.0
H1783 H 0.11295 0.57272 0.47111 0.0
H1784 H 0.97164 0.41742 0.59364 0.0
H1785 H 0.98614 0.44485 0.56736 0.0
H1786 H 0.95595 0.42994 0.62919 0.0
H1787 H 0.97043 0.49917 0.61324 0.0
C1788 C 0.75061 0.82894 0.25201 0.0
C1789 C 0.72563 0.80597 0.21838 0.0
C1790 C 0.73944 0.80773 0.24016 0.0
C1791 C 0.72375 0.82583 0.20836 0.0
C1792 C 0.74783 0.84897 0.24253 0.0
C1793 C 0.73478 0.84728 0.22043 0.0
N1794 N 0.76299 0.83004 0.27343 0.0
C1795 C 0.77109 0.85058 0.28724 0.0
C1796 C 0.75764 0.87012 0.25589 0.0
C1797 C 0.76899 0.8709 0.2785 0.0
Gd1798 Gd 0.82862 0.77497 0.28533 0.0
Gd1799 Gd 0.76645 0.7947 0.28552 0.0
N1800 N 0.7414 0.78883 0.25035 0.0
C1801 C 0.7138 0.78432 0.20752 0.0
C1802 C 0.72912 0.76778 0.24042 0.0
C1803 C 0.71537 0.76517 0.21872 0.0
H1804 H 0.73037 0.75295 0.24899 0.0
H1805 H 0.70604 0.74841 0.21063 0.0
H1806 H 0.86445 0.82565 0.30058 0.0
H1807 H 0.77945 0.85135 0.30498 0.0
H1808 H 0.89208 0.84623 0.33479 0.0
H1809 H 0.70311 0.78226 0.19072 0.0
H1810 H 0.71339 0.82482 0.19153 0.0
H1811 H 0.82143 0.71864 0.29165 0.0
H1812 H 0.75589 0.88589 0.24923 0.0
H1813 H 0.77599 0.88714 0.28927 0.0
H1814 H 0.89351 0.79051 0.38818 0.0
H1815 H 0.73266 0.86248 0.21277 0.0
H1816 H 0.85275 0.714 0.36064 0.0
H1817 H 0.82991 0.69548 0.32279 0.0
N1818 N 0.83727 0.75038 0.31251 0.0
C1819 C 0.85121 0.76072 0.33256 0.0
C1820 C 0.83065 0.72711 0.30842 0.0
C1821 C 0.84865 0.72436 0.34723 0.0
C1822 C 0.83573 0.71384 0.3259 0.0
C1823 C 0.85708 0.74798 0.35055 0.0
H1824 H 0.87631 0.74957 0.38496 0.0
N1825 N 0.8556 0.79559 0.31654 0.0
C1826 C 0.86097 0.78386 0.33446 0.0
C1827 C 0.88757 0.81764 0.35455 0.0
C1828 C 0.87674 0.79476 0.35424 0.0
C1829 C 0.86746 0.81726 0.31584 0.0
C1830 C 0.88323 0.8288 0.33506 0.0
O1831 O 0.77669 0.78353 0.24935 0.0
O1832 O 0.80172 0.75871 0.25425 0.0
O1833 O 0.85341 0.7887 0.26271 0.0
O1834 O 0.85371 0.75604 0.27424 0.0
O1835 O 0.76216 0.75678 0.28298 0.0
O1836 O 0.79775 0.74586 0.28699 0.0
O1837 O 0.82294 0.798 0.31724 0.0
O1838 O 0.78563 0.7822 0.31555 0.0
O1839 O 0.73248 0.78183 0.29456 0.0
O1840 O 0.75425 0.81153 0.31554 0.0
O1841 O 0.82006 0.80426 0.26747 0.0
O1842 O 0.79969 0.82151 0.29215 0.0
C1843 C 0.78699 0.76733 0.24105 0.0
C1844 C 0.77498 0.74164 0.28542 0.0
C1845 C 0.86747 0.76214 0.23801 0.0
C1846 C 0.89365 0.76079 0.20828 0.0
C1847 C 0.8561 0.73521 0.20231 0.0
C1848 C 0.85137 0.74448 0.22395 0.0
C1849 C 0.87702 0.74322 0.19453 0.0
C1850 C 0.88861 0.77049 0.23 0.0
C1851 C 0.86277 0.77103 0.26147 0.0
C1852 C 0.88165 0.78237 0.37269 0.0
C1853 C 0.87183 0.75905 0.37087 0.0
H1854 H 0.8998 0.82661 0.36943 0.0
C1855 C 0.80443 0.79459 0.32761 0.0
C1856 C 0.81629 0.82275 0.27892 0.0
C1857 C 0.71406 0.80706 0.31564 0.0
C1858 C 0.68132 0.81029 0.33701 0.0
C1859 C 0.68737 0.82978 0.30248 0.0
C1860 C 0.70699 0.8212 0.29991 0.0
C1861 C 0.6746 0.82434 0.32072 0.0
C1862 C 0.70122 0.80159 0.33418 0.0
C1863 C 0.73441 0.7974 0.31252 0.0
H1864 H 0.8437 0.72145 0.19166 0.0
H1865 H 0.83533 0.73759 0.22999 0.0
H1866 H 0.88027 0.73559 0.17769 0.0
H1867 H 0.9013 0.78391 0.24093 0.0
H1868 H 0.68188 0.84054 0.29013 0.0
H1869 H 0.71652 0.82544 0.28553 0.0
H1870 H 0.65916 0.83089 0.32175 0.0
H1871 H 0.70681 0.79072 0.34639 0.0
C1872 C 0.84816 0.26906 0.72511 0.0
C1873 C 0.82646 0.25603 0.6863 0.0
C1874 C 0.82878 0.26799 0.70911 0.0
C1875 C 0.84395 0.24531 0.67971 0.0
C1876 C 0.86581 0.25841 0.71845 0.0
C1877 C 0.86357 0.24651 0.69572 0.0
N1878 N 0.84982 0.28059 0.74706 0.0
C1879 C 0.86918 0.283 0.76275 0.0
C1880 C 0.88531 0.26018 0.73477 0.0
C1881 C 0.88705 0.27265 0.75695 0.0
Gd1882 Gd 0.77163 0.27977 0.80331 0.0
Gd1883 Gd 0.81939 0.29852 0.75414 0.0
N1884 N 0.81188 0.27813 0.71614 0.0
C1885 C 0.8066 0.25519 0.67079 0.0
C1886 C 0.79278 0.27792 0.70088 0.0
C1887 C 0.78974 0.26626 0.67809 0.0
H1888 H 0.77986 0.28677 0.7061 0.0
H1889 H 0.77446 0.26593 0.66612 0.0
H1890 H 0.80761 0.27835 0.85312 0.0
H1891 H 0.87137 0.29347 0.77954 0.0
H1892 H 0.81845 0.2994 0.89268 0.0
H1893 H 0.80419 0.24617 0.65311 0.0
H1894 H 0.84248 0.23605 0.66225 0.0
H1895 H 0.72423 0.29499 0.78157 0.0
H1896 H 0.89925 0.25228 0.7303 0.0
H1897 H 0.9023 0.27457 0.76949 0.0
H1898 H 0.76588 0.34941 0.89835 0.0
H1899 H 0.87695 0.23821 0.69033 0.0
H1900 H 0.70808 0.34425 0.83259 0.0
H1901 H 0.69944 0.32119 0.79326 0.0
N1902 N 0.74678 0.30342 0.81373 0.0
C1903 C 0.75137 0.31528 0.83565 0.0
C1904 C 0.7282 0.30505 0.79869 0.0
C1905 C 0.71898 0.33275 0.82753 0.0
C1906 C 0.71407 0.3198 0.80531 0.0
C1907 C 0.73777 0.33053 0.84307 0.0
H1908 H 0.73316 0.35491 0.87165 0.0
N1909 N 0.78234 0.2971 0.84282 0.0
C1910 C 0.76989 0.31225 0.85055 0.0
C1911 C 0.79322 0.32 0.88855 0.0
C1912 C 0.77515 0.32429 0.8735 0.0
C1913 C 0.79902 0.29183 0.85804 0.0
C1914 C 0.80497 0.30345 0.88089 0.0
O1915 O 0.80422 0.2607 0.7453 0.0
O1916 O 0.7921 0.2738 0.77597 0.0
O1917 O 0.76476 0.24969 0.82068 0.0
O1918 O 0.73946 0.255 0.79333 0.0
O1919 O 0.78234 0.30455 0.74672 0.0
O1920 O 0.75621 0.28002 0.76528 0.0
O1921 O 0.7796 0.31711 0.80048 0.0
O1922 O 0.81387 0.31432 0.78985 0.0
O1923 O 0.81936 0.32718 0.73416 0.0
O1924 O 0.85061 0.32356 0.75441 0.0
O1925 O 0.80787 0.27276 0.81277 0.0
O1926 O 0.83474 0.29341 0.79153 0.0
C1927 C 0.79176 0.25593 0.76141 0.0
C1928 C 0.76115 0.29361 0.74898 0.0
C1929 C 0.72636 0.23805 0.82595 0.0
C1930 C 0.71633 0.22137 0.86097 0.0
C1931 C 0.69182 0.24353 0.84191 0.0
C1932 C 0.70673 0.24743 0.82508 0.0
C1933 C 0.69667 0.23076 0.85994 0.0
C1934 C 0.73058 0.22453 0.84342 0.0
C1935 C 0.74377 0.2432 0.81021 0.0
C1936 C 0.76197 0.33989 0.88085 0.0
C1937 C 0.74331 0.34299 0.86567 0.0
H1938 H 0.7978 0.32889 0.90631 0.0
C1939 C 0.79886 0.32683 0.79382 0.0
C1940 C 0.8293 0.2813 0.80908 0.0
C1941 C 0.85432 0.33858 0.71853 0.0
C1942 C 0.85745 0.35467 0.68166 0.0
C1943 C 0.88859 0.33919 0.69962 0.0
C1944 C 0.87618 0.33361 0.71798 0.0
C1945 C 0.87945 0.34983 0.68168 0.0
C1946 C 0.845 0.34889 0.70022 0.0
C1947 C 0.84157 0.33407 0.73856 0.0
H1948 H 0.67679 0.25091 0.84132 0.0
H1949 H 0.70308 0.25801 0.81173 0.0
H1950 H 0.68541 0.22881 0.87336 0.0
H1951 H 0.74545 0.21686 0.84356 0.0
H1952 H 0.90549 0.3355 0.69943 0.0
H1953 H 0.88385 0.32563 0.73183 0.0
H1954 H 0.88978 0.3545 0.668 0.0
H1955 H 0.82798 0.3523 0.70046 0.0
C1956 C 0.85241 0.83878 0.8307 0.0
C1957 C 0.88045 0.84815 0.80401 0.0
C1958 C 0.85753 0.84094 0.808 0.0
C1959 C 0.89813 0.85269 0.82301 0.0
C1960 C 0.87009 0.84408 0.84991 0.0
C1961 C 0.89296 0.85072 0.8459 0.0
N1962 N 0.83011 0.83234 0.8341 0.0
C1963 C 0.82427 0.83199 0.85634 0.0
C1964 C 0.86424 0.84294 0.87266 0.0
C1965 C 0.84121 0.8371 0.87589 0.0
Gd1966 Gd 0.77304 0.76455 0.76398 0.0
Gd1967 Gd 0.80327 0.82266 0.79983 0.0
N1968 N 0.84008 0.83615 0.78984 0.0
C1969 C 0.88491 0.85086 0.78105 0.0
C1970 C 0.84424 0.84017 0.76771 0.0
C1971 C 0.86669 0.84717 0.76289 0.0
H1972 H 0.83041 0.83786 0.75368 0.0
H1973 H 0.86991 0.84979 0.74519 0.0
H1974 H 0.73449 0.74683 0.79928 0.0
H1975 H 0.80649 0.82779 0.85903 0.0
H1976 H 0.69253 0.73447 0.79734 0.0
H1977 H 0.90229 0.85626 0.77725 0.0
H1978 H 0.91585 0.85808 0.82024 0.0
H1979 H 0.78343 0.76331 0.70734 0.0
H1980 H 0.87733 0.84692 0.88786 0.0
H1981 H 0.83649 0.83656 0.89343 0.0
H1982 H 0.66417 0.73634 0.71663 0.0
H1983 H 0.90677 0.85468 0.86043 0.0
H1984 H 0.71928 0.75203 0.66321 0.0
H1985 H 0.76165 0.75973 0.66805 0.0
N1986 N 0.75388 0.75937 0.72518 0.0
C1987 C 0.73061 0.7542 0.72275 0.0
C1988 C 0.76499 0.76056 0.70573 0.0
C1989 C 0.72879 0.75399 0.68065 0.0
C1990 C 0.75268 0.75831 0.6833 0.0
C1991 C 0.71743 0.75142 0.70043 0.0
H1992 H 0.68299 0.74347 0.68153 0.0
N1993 N 0.7333 0.75218 0.76346 0.0
C1994 C 0.72 0.75025 0.74247 0.0
C1995 C 0.68599 0.7379 0.76057 0.0
C1996 C 0.69594 0.74331 0.74048 0.0
C1997 C 0.72379 0.74583 0.78283 0.0
C1998 C 0.70002 0.73891 0.78178 0.0
O1999 O 0.82872 0.79978 0.78948 0.0
O2000 O 0.81048 0.77559 0.75643 0.0
O2001 O 0.78851 0.73902 0.77934 0.0
O2002 O 0.76663 0.73014 0.74568 0.0
O2003 O 0.78858 0.82345 0.76147 0.0
O2004 O 0.79234 0.78953 0.74304 0.0
O2005 O 0.74859 0.78806 0.7761 0.0
O2006 O 0.76741 0.8099 0.81034 0.0
O2007 O 0.78669 0.84906 0.78789 0.0
O2008 O 0.80957 0.85593 0.82072 0.0
O2009 O 0.77716 0.7622 0.80338 0.0
O2010 O 0.79351 0.79729 0.82524 0.0
C2011 C 0.82958 0.78539 0.77067 0.0
C2012 C 0.7904 0.81059 0.74219 0.0
C2013 C 0.79999 0.71515 0.75023 0.0
C2014 C 0.82815 0.69134 0.75229 0.0
C2015 C 0.82631 0.71499 0.72105 0.0
C2016 C 0.80833 0.72302 0.73008 0.0
C2017 C 0.83614 0.69908 0.73201 0.0
C2018 C 0.81015 0.69949 0.76143 0.0
C2019 C 0.7817 0.72417 0.76044 0.0
C2020 C 0.68268 0.74143 0.71848 0.0
C2021 C 0.6934 0.74551 0.69849 0.0
H2022 H 0.66758 0.73255 0.75978 0.0
C2023 C 0.74801 0.80048 0.79649 0.0
C2024 C 0.78511 0.77518 0.82364 0.0
C2025 C 0.77556 0.86984 0.81983 0.0
C2026 C 0.74384 0.88949 0.81983 0.0
C2027 C 0.75273 0.86862 0.85212 0.0
C2028 C 0.77074 0.86251 0.84142 0.0
C2029 C 0.73917 0.88184 0.84132 0.0
C2030 C 0.76209 0.88334 0.80916 0.0
C2031 C 0.7937 0.86251 0.80771 0.0
H2032 H 0.83263 0.72113 0.70554 0.0
H2033 H 0.80111 0.73547 0.72142 0.0
H2034 H 0.85003 0.6929 0.72479 0.0
H2035 H 0.80394 0.69348 0.77709 0.0
H2036 H 0.7492 0.86299 0.86878 0.0
H2037 H 0.78066 0.85183 0.84993 0.0
H2038 H 0.72514 0.88623 0.84986 0.0
H2039 H 0.76613 0.88935 0.79275 0.0
C2040 C 0.49662 0.47593 0.48443 0.0
C2041 C 0.48495 0.44675 0.50917 0.0
C2042 C 0.49294 0.46979 0.50644 0.0
C2043 C 0.48105 0.42992 0.48951 0.0
C2044 C 0.49221 0.45914 0.46455 0.0
C2045 C 0.48464 0.43611 0.46725 0.0
N2046 N 0.50389 0.49836 0.48235 0.0
C2047 C 0.50617 0.50526 0.46077 0.0
C2048 C 0.49526 0.46604 0.44249 0.0
C2049 C 0.50209 0.48922 0.44059 0.0
Gd2050 Gd 0.56901 0.55302 0.55208 0.0
Gd2051 Gd 0.51103 0.52374 0.51748 0.0
N2052 N 0.49727 0.48642 0.52523 0.0
C2053 C 0.48099 0.44134 0.53158 0.0
C2054 C 0.49229 0.48141 0.54685 0.0
C2055 C 0.48444 0.45878 0.55044 0.0
H2056 H 0.4946 0.49478 0.56138 0.0
H2057 H 0.481 0.45481 0.56773 0.0
H2058 H 0.58856 0.57667 0.5061 0.0
H2059 H 0.51073 0.52317 0.45898 0.0
H2060 H 0.60123 0.61507 0.49514 0.0
H2061 H 0.47494 0.42382 0.53443 0.0
H2062 H 0.47504 0.41211 0.49128 0.0
H2063 H 0.56205 0.56076 0.60977 0.0
H2064 H 0.49202 0.45367 0.42679 0.0
H2065 H 0.50404 0.49475 0.42355 0.0
H2066 H 0.59814 0.66551 0.5644 0.0
H2067 H 0.48128 0.42296 0.4522 0.0
H2068 H 0.57539 0.63245 0.63228 0.0
H2069 H 0.56393 0.59273 0.64059 0.0
N2070 N 0.57079 0.58197 0.58342 0.0
C2071 C 0.57795 0.60371 0.57873 0.0
C2072 C 0.56622 0.57792 0.60547 0.0
C2073 C 0.57423 0.61845 0.61846 0.0
C2074 C 0.56767 0.59605 0.6232 0.0
C2075 C 0.57965 0.62253 0.59609 0.0
H2076 H 0.58817 0.65942 0.6038 0.0
N2077 N 0.58171 0.58875 0.53995 0.0
C2078 C 0.58378 0.6072 0.55648 0.0
C2079 C 0.59716 0.6323 0.52862 0.0
C2080 C 0.5912 0.6295 0.55109 0.0
C2081 C 0.58862 0.59132 0.51849 0.0
C2082 C 0.59616 0.6131 0.51237 0.0
O2083 O 0.53353 0.49791 0.52772 0.0
O2084 O 0.55889 0.51601 0.56013 0.0
O2085 O 0.60171 0.54718 0.54306 0.0
O2086 O 0.59852 0.55941 0.57896 0.0
O2087 O 0.511 0.53774 0.55616 0.0
O2088 O 0.54541 0.53477 0.57518 0.0
O2089 O 0.54379 0.57676 0.54187 0.0
O2090 O 0.5242 0.55909 0.50663 0.0
O2091 O 0.48346 0.53709 0.5312 0.0
O2092 O 0.47837 0.51948 0.49557 0.0
O2093 O 0.57017 0.53612 0.51469 0.0
O2094 O 0.53643 0.53965 0.49478 0.0
C2095 C 0.54818 0.49701 0.54641 0.0
C2096 C 0.52369 0.53514 0.57536 0.0
C2097 C 0.62064 0.53151 0.57304 0.0
C2098 C 0.64458 0.50394 0.56653 0.0
C2099 C 0.62246 0.50274 0.59927 0.0
C2100 C 0.6138 0.52131 0.5927 0.0
C2101 C 0.6379 0.49411 0.58633 0.0
C2102 C 0.63596 0.52262 0.55998 0.0
C2103 C 0.61088 0.55037 0.56503 0.0
C2104 C 0.59255 0.64825 0.56825 0.0
C2105 C 0.58684 0.64477 0.59069 0.0
H2106 H 0.60289 0.64916 0.52378 0.0
C2107 C 0.53223 0.57803 0.52127 0.0
C2108 C 0.55772 0.53755 0.49489 0.0
C2109 C 0.46468 0.5533 0.50191 0.0
C2110 C 0.44527 0.5849 0.50705 0.0
C2111 C 0.46985 0.58294 0.47642 0.0
C2112 C 0.47457 0.56266 0.48316 0.0
C2113 C 0.45515 0.59393 0.48816 0.0
C2114 C 0.4503 0.56461 0.51392 0.0
C2115 C 0.47103 0.5331 0.51059 0.0
H2116 H 0.61708 0.49493 0.61435 0.0
H2117 H 0.6016 0.52748 0.60286 0.0
H2118 H 0.64442 0.47964 0.59156 0.0
H2119 H 0.64118 0.53023 0.54469 0.0
H2120 H 0.47749 0.59007 0.46198 0.0
H2121 H 0.48617 0.55451 0.4739 0.0
H2122 H 0.45104 0.60916 0.4821 0.0
H2123 H 0.44327 0.55769 0.52881 0.0
C2124 C 0.11133 0.58152 0.00843 0.0
C2125 C 0.13065 0.60956 0.04163 0.0
C2126 C 0.11469 0.58917 0.03251 0.0
C2127 C 0.14175 0.62306 0.0262 0.0
C2128 C 0.12373 0.59435 0.99314 0.0
C2129 C 0.13825 0.6155 1.00201 0.0
N2130 N 0.0978 0.56061 1.00035 0.0
C2131 C 0.098 0.55058 0.97796 0.0
C2132 C 0.12217 0.585 0.96958 0.0
C2133 C 0.10964 0.56284 0.9621 0.0
Gd2134 Gd 1.0049 0.53783 0.03813 0.0
Gd2135 Gd 0.07836 0.54249 0.02871 0.0
N2136 N 0.104 0.57569 0.04719 0.0
C2137 C 0.1359 0.61521 0.06607 0.0
C2138 C 0.11003 0.58043 0.07101 0.0
C2139 C 0.12591 0.60033 0.08081 0.0
H2140 H 0.1025 0.56894 0.08241 0.0
H2141 H 0.1303 0.6043 0.09969 0.0
H2142 H 0.97813 0.50503 0.98867 0.0
H2143 H 0.08876 0.53321 0.9722 0.0
H2144 H 0.94961 0.46879 0.97699 0.0
H2145 H 0.14817 0.63065 0.07373 0.0
H2146 H 0.15379 0.63894 0.03289 0.0
H2147 H 0.99967 0.55373 0.09518 0.0
H2148 H 0.13144 0.59434 0.95732 0.0
H2149 H 0.10914 0.55509 0.94418 0.0
H2150 H 0.93213 0.44376 0.05038 0.0
H2151 H 0.14766 0.62569 0.99045 0.0
H2152 H 0.96049 0.49619 0.12042 0.0
H2153 H 0.983 0.53587 0.12764 0.0
N2154 N 0.98883 0.52358 0.07037 0.0
C2155 C 0.97518 0.50232 0.0656 0.0
C2156 C 0.99061 0.53608 0.09199 0.0
C2157 C 0.96826 0.50373 0.10622 0.0
C2158 C 0.98095 0.52613 0.11037 0.0
C2159 C 0.96461 0.49178 0.08348 0.0
H2160 H 0.94179 0.4618 0.09149 0.0
N2161 N 0.97922 0.50298 0.02529 0.0
C2162 C 0.96999 0.49187 0.04239 0.0
C2163 C 0.9467 0.46253 0.01275 0.0
C2164 C 0.95377 0.47105 0.03655 0.0
C2165 C 0.97155 0.49537 1.00203 0.0
C2166 C 0.95536 0.47494 0.99542 0.0
O2167 O 0.06809 0.5765 0.04376 0.0
O2168 O 0.0283 0.57378 0.04575 0.0
O2169 O 0.98305 0.54692 0.00957 0.0
O2170 O 0.98244 0.56103 0.04539 0.0
O2171 O 0.05278 0.52899 0.05212 0.0
O2172 O 0.02896 0.54487 0.072 0.0
O2173 O 0.01506 0.5037 0.02357 0.0
O2174 O 0.05387 0.50736 0.01676 0.0
O2175 O 0.10217 0.53139 0.05397 0.0
O2176 O 0.09954 0.5195 0.01692 0.0
O2177 O 0.03409 0.544 0.01881 0.0
O2178 O 0.05778 0.54347 0.99372 0.0
C2179 C 0.04991 0.58568 0.04771 0.0
C2180 C 0.0491 0.53992 0.07154 0.0
C2181 C 0.94817 0.5555 0.01984 0.0
C2182 C 0.9133 0.5709 0.01668 0.0
C2183 C 0.911 0.5303 0.01811 0.0
C2184 C 0.93474 0.53368 0.01983 0.0
C2185 C 0.90034 0.5487 0.01674 0.0
C2186 C 0.9374 0.5741 0.01816 0.0
C2187 C 0.97338 0.55934 0.02358 0.0
C2188 C 0.94433 0.45994 0.0545 0.0
C2189 C 0.94984 0.47022 0.07793 0.0
H2190 H 0.93414 0.4467 0.00758 0.0
C2191 C 0.03266 0.49504 0.01659 0.0
C2192 C 0.03717 0.54462 0.99708 0.0
C2193 C 0.1351 0.52213 0.03949 0.0
C2194 C 0.16889 0.50497 0.04273 0.0
C2195 C 0.17208 0.54422 0.03429 0.0
C2196 C 0.14873 0.54249 0.03507 0.0
C2197 C 0.18204 0.52563 0.03775 0.0
C2198 C 0.14522 0.50352 0.04364 0.0
C2199 C 0.11009 0.51948 0.03785 0.0
H2200 H 0.90082 0.51338 0.01834 0.0
H2201 H 0.94252 0.51927 0.02168 0.0
H2202 H 0.88191 0.54553 0.01632 0.0
H2203 H 0.94781 0.59098 0.01822 0.0
H2204 H 0.18243 0.5599 0.03045 0.0
H2205 H 0.14126 0.55686 0.03167 0.0
H2206 H 0.20002 0.52742 0.03592 0.0
H2207 H 0.13451 0.48795 0.04731 0.0
C2208 C 0.01402 0.19051 0.95624 0.0
C2209 C 0.01368 0.2103 0.97169 0.0
C2210 C 0.01798 0.16977 0.96439 0.0
C2211 C 0.02158 0.16782 0.98891 0.0
C2212 C 0.02094 0.18764 1.00459 0.0
C2213 C 0.01734 0.20831 0.99597 0.0
C2214 C 0.0182 0.14969 0.94653 0.0
C2215 C 0.02344 0.18684 0.03074 0.0
C2216 C 1.00936 0.10608 0.00773 0.0
C2217 C 0.03125 0.10176 0.01455 0.0
C2218 C 1.00609 0.1272 1.00015 0.0
C2219 C 0.02504 0.14502 0.998 0.0
C2220 C 0.04726 0.1406 1.00446 0.0
C2221 C 0.05004 0.11957 0.01282 0.0
C2222 C 0.98188 0.13006 0.99455 0.0
C2223 C 0.06837 0.15803 1.00214 0.0
H2224 H 0.01133 0.19122 0.93748 0.0
H2225 H 0.01711 0.22299 0.00847 0.0
H2226 H 0.03422 0.14343 0.95031 0.0
H2227 H 1.00364 0.13552 0.94779 0.0
H2228 H 0.01683 0.15398 0.92825 0.0
H2229 H 0.0222 0.20319 0.04084 0.0
H2230 H 1.00989 0.17299 0.03487 0.0
H2231 H 0.0402 0.18284 0.03673 0.0
H2232 H 0.99443 0.09292 0.00869 0.0
H2233 H 0.06715 0.11687 0.01738 0.0
H2234 H 0.97513 0.12217 0.97621 0.0
H2235 H 0.98045 0.14818 0.9964 0.0
H2236 H 0.97107 0.12112 0.0065 0.0
H2237 H 0.06761 0.16231 0.98387 0.0
H2238 H 0.08439 0.15193 0.00656 0.0
H2239 H 0.06908 0.17399 0.01396 0.0
C2240 C 0.15925 0.79664 0.14796 0.0
C2241 C 0.14348 0.80925 0.15573 0.0
C2242 C 0.17862 0.79427 0.16319 0.0
C2243 C 0.18289 0.80506 0.18689 0.0
C2244 C 0.1674 0.81841 0.19457 0.0
C2245 C 0.14795 0.82012 0.17912 0.0
C2246 C 0.19414 0.77949 0.15411 0.0
C2247 C 0.17114 0.83059 0.21937 0.0
C2248 C 0.21884 0.78169 0.23447 0.0
C2249 C 0.24065 0.79621 0.23654 0.0
C2250 C 0.20022 0.78416 0.21832 0.0
C2251 C 0.20299 0.80185 0.2038 0.0
C2252 C 0.22496 0.81657 0.2058 0.0
C2253 C 0.24341 0.81349 0.22186 0.0
C2254 C 0.17747 0.76771 0.21682 0.0
C2255 C 0.22893 0.83589 0.19115 0.0
H2256 H 0.15597 0.78783 0.13015 0.0
H2257 H 0.13598 0.82981 0.18553 0.0
H2258 H 0.2121 0.78934 0.15654 0.0
H2259 H 0.19381 0.7649 0.16435 0.0
H2260 H 0.18902 0.77271 0.13519 0.0
H2261 H 0.15853 0.84147 0.22231 0.0
H2262 H 0.16972 0.81795 0.23203 0.0
H2263 H 0.18867 0.84145 0.22335 0.0
H2264 H 0.21627 0.76812 0.2454 0.0
H2265 H 0.25999 0.82495 0.22316 0.0
H2266 H 0.17187 0.75933 0.19845 0.0
H2267 H 0.16422 0.77709 0.22179 0.0
H2268 H 0.17821 0.75431 0.22849 0.0
H2269 H 0.22492 0.82912 0.17218 0.0
H2270 H 0.24687 0.84588 0.19461 0.0
H2271 H 0.21724 0.84755 0.19491 0.0
C2272 C 0.51622 0.85384 0.49106 0.0
C2273 C 0.51866 0.8485 0.46716 0.0
C2274 C 0.51763 0.87689 0.50149 0.0
C2275 C 0.52126 0.89546 0.48789 0.0
C2276 C 0.52369 0.89007 0.46389 0.0
C2277 C 0.52259 0.86723 0.45412 0.0
C2278 C 0.51512 0.88138 0.52716 0.0
C2279 C 0.52731 0.90859 0.44817 0.0
C2280 C 0.50627 0.95467 0.50551 0.0
C2281 C 0.52782 0.96915 0.51356 0.0
C2282 C 0.50375 0.93085 0.49788 0.0
C2283 C 0.5232 0.92054 0.49837 0.0
C2284 C 0.54493 0.93501 0.50692 0.0
C2285 C 0.54695 0.95873 0.51414 0.0
C2286 C 0.48016 0.91674 0.48875 0.0
C2287 C 0.56636 0.92547 0.50813 0.0
H2288 H 0.51301 0.84004 0.50163 0.0
H2289 H 0.52453 0.8641 0.43568 0.0
H2290 H 0.53041 0.89382 0.53658 0.0
H2291 H 0.50004 0.88913 0.52914 0.0
H2292 H 0.51299 0.86557 0.53568 0.0
H2293 H 0.52816 0.90177 0.4297 0.0
H2294 H 0.51314 0.91792 0.44829 0.0
H2295 H 0.54347 0.92115 0.45492 0.0
H2296 H 0.49131 0.96204 0.50463 0.0
H2297 H 0.56383 0.96918 0.52045 0.0
H2298 H 0.47622 0.90214 0.49886 0.0
H2299 H 0.47959 0.90958 0.4701 0.0
H2300 H 0.46665 0.92681 0.48992 0.0
H2301 H 0.5642 0.91044 0.51784 0.0
H2302 H 0.58174 0.93825 0.51687 0.0
H2303 H 0.56943 0.91958 0.4901 0.0
C2304 C 0.48712 0.2876 0.62752 0.0
C2305 C 0.51028 0.29264 0.63744 0.0
C2306 C 0.46935 0.28488 0.64165 0.0
C2307 C 0.47467 0.28713 0.66645 0.0
C2308 C 0.49796 0.29276 0.67667 0.0
C2309 C 0.51544 0.2955 0.66209 0.0
C2310 C 0.4448 0.27896 0.62993 0.0
C2311 C 0.50441 0.29518 0.70298 0.0
C2312 C 0.42513 0.29369 0.70128 0.0
C2313 C 0.41606 0.27096 0.70382 0.0
C2314 C 0.44482 0.29945 0.69002 0.0
C2315 C 0.45577 0.28206 0.68134 0.0
C2316 C 0.44736 0.25928 0.68518 0.0
C2317 C 0.42756 0.25401 0.69618 0.0
C2318 C 0.4531 0.32391 0.68623 0.0
C2319 C 0.45855 0.24021 0.67658 0.0
H2320 H 0.48278 0.2854 0.60856 0.0
H2321 H 0.53319 0.29934 0.67006 0.0
H2322 H 0.43644 0.26172 0.63334 0.0
H2323 H 0.43506 0.29118 0.63744 0.0
H2324 H 0.44347 0.27915 0.6106 0.0
H2325 H 0.52318 0.30104 0.70833 0.0
H2326 H 0.49557 0.30746 0.71191 0.0
H2327 H 0.49872 0.27851 0.70932 0.0
H2328 H 0.41613 0.30678 0.70694 0.0
H2329 H 0.42056 0.23641 0.69814 0.0
H2330 H 0.44987 0.32542 0.66721 0.0
H2331 H 0.47185 0.32941 0.69172 0.0
H2332 H 0.44432 0.3357 0.69607 0.0
H2333 H 0.45608 0.23749 0.65706 0.0
H2334 H 0.45133 0.22389 0.68294 0.0
H2335 H 0.47728 0.24478 0.68248 0.0
C2336 C 0.03831 0.84316 0.69023 0.0
C2337 C 0.03577 0.82015 0.68089 0.0
C2338 C 0.03933 0.86048 0.67556 0.0
C2339 C 0.0381 0.85483 0.65091 0.0
C2340 C 0.03568 0.83168 0.64138 0.0
C2341 C 0.03438 0.81467 0.6564 0.0
C2342 C 0.0416 0.88485 0.68646 0.0
C2343 C 0.03459 0.82486 0.61525 0.0
C2344 C 0.01954 0.89305 0.60723 0.0
C2345 C 0.04055 0.9037 0.60095 0.0
C2346 C 0.01857 0.87799 0.62429 0.0
C2347 C 0.03909 0.87297 0.63494 0.0
C2348 C 0.06042 0.88429 0.62914 0.0
C2349 C 0.06089 0.89962 0.61232 0.0
C2350 C 0.9955 0.86671 0.6302 0.0
C2351 C 0.08269 0.87929 0.63976 0.0
H2352 H 0.03938 0.84768 0.70907 0.0
H2353 H 0.0326 0.79705 0.64891 0.0
H2354 H 0.05745 0.89566 0.68222 0.0
H2355 H 0.02695 0.89169 0.67898 0.0
H2356 H 0.04215 0.88646 0.7059 0.0
H2357 H 0.03325 0.80625 0.61063 0.0
H2358 H 0.01958 0.82967 0.6057 0.0
H2359 H 0.05013 0.83415 0.60888 0.0
H2360 H 1.00381 0.89603 0.59824 0.0
H2361 H 0.07711 0.90756 0.60715 0.0
H2362 H 0.99553 0.86844 0.64955 0.0
H2363 H 0.99185 0.84821 0.62367 0.0
H2364 H 0.98142 0.87411 0.62224 0.0
H2365 H 0.08393 0.88128 0.65922 0.0
H2366 H 0.09785 0.89062 0.63473 0.0
H2367 H 0.08325 0.86132 0.63378 0.0
C2368 C 0.47737 0.80658 0.82116 0.0
C2369 C 0.48727 0.81929 0.84311 0.0
C2370 C 0.45356 0.80388 0.8125 0.0
C2371 C 0.43857 0.81387 0.82598 0.0
C2372 C 0.44871 0.82712 0.84789 0.0
C2373 C 0.47241 0.82932 0.85618 0.0
C2374 C 0.44426 0.78957 0.78913 0.0
C2375 C 0.43428 0.83864 0.86305 0.0
C2376 C 0.37843 0.82053 0.79697 0.0
C2377 C 0.36277 0.80273 0.80421 0.0
C2378 C 0.40266 0.82431 0.80373 0.0
C2379 C 0.41238 0.80976 0.81791 0.0
C2380 C 0.39671 0.79147 0.82488 0.0
C2381 C 0.37255 0.78834 0.81823 0.0
C2382 C 0.41791 0.84416 0.79568 0.0
C2383 C 0.4055 0.77487 0.83935 0.0
H2384 H 0.48808 0.79798 0.81103 0.0
H2385 H 0.47937 0.8388 0.87334 0.0
H2386 H 0.43237 0.7738 0.79194 0.0
H2387 H 0.43433 0.79894 0.77779 0.0
H2388 H 0.45809 0.78471 0.77967 0.0
H2389 H 0.44466 0.84946 0.87887 0.0
H2390 H 0.4252 0.84945 0.85273 0.0
H2391 H 0.42104 0.82558 0.86884 0.0
H2392 H 0.37185 0.83141 0.78553 0.0
H2393 H 0.36124 0.77424 0.82395 0.0
H2394 H 0.43234 0.83856 0.78805 0.0
H2395 H 0.42526 0.85725 0.81105 0.0
H2396 H 0.40853 0.85212 0.78235 0.0
H2397 H 0.41766 0.76683 0.82996 0.0
H2398 H 0.39148 0.7612 0.843 0.0
H2399 H 0.41504 0.78406 0.85634 0.0
C2400 C 0.53412 0.1907 0.1482 0.0
C2401 C 0.51476 0.19048 0.15991 0.0
C2402 C 0.53698 0.17128 0.13359 0.0
C2403 C 0.5194 0.15106 0.12911 0.0
C2404 C 0.49957 0.15095 0.14069 0.0
C2405 C 0.49794 0.17018 0.15653 0.0
C2406 C 0.55905 0.17272 0.12302 0.0
C2407 C 0.47979 0.13059 0.13618 0.0
C2408 C 0.52285 0.11151 0.07243 0.0
C2409 C 0.52593 0.09104 0.08069 0.0
C2410 C 0.52038 0.1307 0.08762 0.0
C2411 C 0.5217 0.13029 0.1124 0.0
C2412 C 0.52565 0.10987 0.12096 0.0
C2413 C 0.52696 0.09055 0.10512 0.0
C2414 C 0.51649 0.15122 0.07629 0.0
C2415 C 0.52937 0.10802 0.14692 0.0
H2416 H 0.54749 0.20608 0.15095 0.0
H2417 H 0.48321 0.16946 0.16591 0.0
H2418 H 0.56397 0.15592 0.12065 0.0
H2419 H 0.55689 0.17874 0.10558 0.0
H2420 H 0.57334 0.18516 0.13418 0.0
H2421 H 0.47549 0.1246 0.11703 0.0
H2422 H 0.48457 0.11642 0.14492 0.0
H2423 H 0.46427 0.13444 0.14315 0.0
H2424 H 0.52218 0.1127 0.05379 0.0
H2425 H 0.52933 0.07518 0.11218 0.0
H2426 H 0.5317 0.15797 0.0678 0.0
H2427 H 0.51332 0.16512 0.08874 0.0
H2428 H 0.50172 0.14599 0.06209 0.0
H2429 H 0.53152 0.12451 0.15831 0.0
H2430 H 0.54487 0.10097 0.15103 0.0
H2431 H 0.51467 0.09571 0.15148 0.0
C2432 C 0.12601 0.30933 0.35493 0.0
C2433 C 0.11403 0.32469 0.3448 0.0
C2434 C 0.14727 0.30529 0.3479 0.0
C2435 C 0.15769 0.31676 0.33011 0.0
C2436 C 0.14581 0.33243 0.32003 0.0
C2437 C 0.12454 0.33605 0.32725 0.0
C2438 C 0.15864 0.2885 0.35961 0.0
C2439 C 0.15563 0.34553 0.30133 0.0
C2440 C 0.22344 0.32136 0.32495 0.0
C2441 C 0.22384 0.30455 0.30597 0.0
C2442 C 0.20256 0.32533 0.33295 0.0
C2443 C 0.18066 0.31236 0.322 0.0
C2444 C 0.18098 0.29529 0.30292 0.0
C2445 C 0.2021 0.29178 0.29524 0.0
C2446 C 0.20409 0.34391 0.35308 0.0
C2447 C 0.15879 0.28056 0.29037 0.0
H2448 H 0.11862 0.30011 0.36833 0.0
H2449 H 0.11602 0.34791 0.31889 0.0
H2450 H 0.16042 0.27454 0.34621 0.0
H2451 H 0.17616 0.29709 0.36806 0.0
H2452 H 0.14885 0.28093 0.37314 0.0
H2453 H 0.14481 0.35722 0.29515 0.0
H2454 H 0.17304 0.35569 0.30829 0.0
H2455 H 0.15739 0.33348 0.28603 0.0
H2456 H 0.23963 0.33153 0.3338 0.0
H2457 H 0.20144 0.27895 0.28046 0.0
H2458 H 0.22154 0.34886 0.36316 0.0
H2459 H 0.19166 0.33854 0.36534 0.0
H2460 H 0.19984 0.35918 0.34601 0.0
H2461 H 0.14912 0.27152 0.30314 0.0
H2462 H 0.16155 0.26772 0.27628 0.0
H2463 H 0.14793 0.2914 0.28244 0.0
C2464 C 0.95867 1.006 0.18848 0.0
C2465 C 0.96978 0.01894 0.20984 0.0
C2466 C 0.96739 0.00901 0.16684 0.0
C2467 C 0.98737 0.02599 0.16606 0.0
C2468 C 0.99836 0.0394 0.18756 0.0
C2469 C 0.98973 0.03548 0.20904 0.0
C2470 C 0.95537 0.9937 0.14478 0.0
C2471 C 0.01922 0.05813 0.18788 0.0
C2472 C 0.02379 0.02252 0.11503 0.0
C2473 C 0.01557 0.03667 0.09978 0.0
C2474 C 0.01451 0.01854 0.13615 0.0
C2475 C 0.99694 0.02953 0.14298 0.0
C2476 C 0.98877 0.04407 0.12774 0.0
C2477 C 0.99781 0.04709 0.10626 0.0
C2478 C 0.02338 1.00225 0.15103 0.0
C2479 C 0.97064 0.05677 0.13428 0.0
H2480 H 0.94335 0.9931 0.18873 0.0
H2481 H 0.99844 0.04576 0.22527 0.0
H2482 H 0.94905 1.00403 0.13176 0.0
H2483 H 0.96762 0.98477 0.1366 0.0
H2484 H 0.94063 0.98074 0.14829 0.0
H2485 H 0.02507 0.06795 0.20565 0.0
H2486 H 0.03349 0.05075 0.18201 0.0
H2487 H 0.01541 0.07007 0.17539 0.0
H2488 H 0.03723 0.01404 0.11016 0.0
H2489 H 0.99127 0.05805 0.09474 0.0
H2490 H 1.00893 0.9887 0.15401 0.0
H2491 H 0.03153 0.01145 0.16852 0.0
H2492 H 0.03612 0.99408 0.14278 0.0
H2493 H 0.95462 0.04449 0.13572 0.0
H2494 H 0.96674 0.06816 0.1212 0.0
H2495 H 0.97636 0.06719 0.15176 0.0
C2496 C 0.26131 0.67192 0.47973 0.0
C2497 C 0.25135 0.64902 0.48069 0.0
C2498 C 0.2556 0.68255 0.46014 0.0
C2499 C 0.239 0.67015 0.44155 0.0
C2500 C 0.22891 0.64707 0.44249 0.0
C2501 C 0.23564 0.63663 0.46179 0.0
C2502 C 0.26727 0.70699 0.45931 0.0
C2503 C 0.21082 0.63335 0.42331 0.0
C2504 C 0.20779 0.70365 0.40207 0.0
C2505 C 0.21862 0.70185 0.38182 0.0
C2506 C 0.21417 0.69327 0.42162 0.0
C2507 C 0.23215 0.68129 0.42107 0.0
C2508 C 0.24312 0.67933 0.40072 0.0
C2509 C 0.23592 0.68925 0.38117 0.0
C2510 C 0.20154 0.6949 0.44278 0.0
C2511 C 0.2624 0.66672 0.39953 0.0
H2512 H 0.27367 0.68149 0.49424 0.0
H2513 H 0.22797 0.61893 0.46233 0.0
H2514 H 0.27566 0.70819 0.44313 0.0
H2515 H 0.25439 0.71785 0.45856 0.0
H2516 H 0.2804 0.71396 0.47484 0.0
H2517 H 0.2005 0.61834 0.4296 0.0
H2518 H 0.19903 0.6439 0.41662 0.0
H2519 H 0.21919 0.62719 0.4084 0.0
H2520 H 0.19456 0.71347 0.40281 0.0
H2521 H 0.24394 0.68715 0.36536 0.0
H2522 H 0.21369 0.70325 0.45861 0.0
H2523 H 0.19371 0.67751 0.44627 0.0
H2524 H 0.18781 0.70467 0.44033 0.0
H2525 H 0.27501 0.67178 0.41571 0.0
H2526 H 0.27153 0.66998 0.38411 0.0
H2527 H 0.25538 0.64812 0.39827 0.0
C2528 C 0.61683 0.04035 0.70396 0.0
C2529 C 0.63983 0.05174 0.70618 0.0
C2530 C 0.60233 0.03828 0.68276 0.0
C2531 C 0.61102 0.04812 0.66352 0.0
C2532 C 0.6343 0.05934 0.66552 0.0
C2533 C 0.64851 0.06088 0.68684 0.0
C2534 C 0.57763 0.02586 0.68106 0.0
C2535 C 0.64404 0.07017 0.64534 0.0
C2536 C 0.5784 0.02671 0.60283 0.0
C2537 C 0.56562 0.04343 0.59967 0.0
C2538 C 0.59348 0.02816 0.62346 0.0
C2539 C 0.59565 0.04675 0.64131 0.0
C2540 C 0.58276 0.06373 0.63816 0.0
C2541 C 0.56765 0.06173 0.61738 0.0
C2542 C 0.6068 0.00964 0.62629 0.0
C2543 C 0.5849 0.08394 0.65675 0.0
H2544 H 0.6101 0.0332 0.71887 0.0
H2545 H 0.66626 0.06984 0.68855 0.0
H2546 H 0.56612 0.03775 0.67758 0.0
H2547 H 0.57355 0.01189 0.6661 0.0
H2548 H 0.57379 0.0185 0.69738 0.0
H2549 H 0.66262 0.07792 0.64963 0.0
H2550 H 0.64145 0.05728 0.62952 0.0
H2551 H 0.63483 0.08364 0.64067 0.0
H2552 H 0.5763 0.01221 0.58934 0.0
H2553 H 0.55765 0.0746 0.61483 0.0
H2554 H 0.60212 1.00099 0.64164 0.0
H2555 H 0.62544 0.01717 0.62978 0.0
H2556 H 0.60351 0.99663 0.61045 0.0
H2557 H 0.57969 0.07799 0.67328 0.0
H2558 H 0.57417 0.09597 0.65124 0.0
H2559 H 0.60303 0.0933 0.66073 0.0
C2560 C 0.29155 0.34505 0.96146 0.0
C2561 C 0.31214 0.35902 0.97291 0.0
C2562 C 0.2902 0.3336 0.93845 0.0
C2563 C 0.30981 0.33646 0.92643 0.0
C2564 C 0.33086 0.34978 0.93845 0.0
C2565 C 0.33176 0.36073 0.96149 0.0
C2566 C 0.26747 0.31939 0.92655 0.0
C2567 C 0.35218 0.35363 0.92648 0.0
C2568 C 0.31074 0.29769 0.86922 0.0
C2569 C 0.30443 0.31083 0.85193 0.0
C2570 C 0.31249 0.30566 0.89346 0.0
C2571 C 0.30792 0.32737 0.90073 0.0
C2572 C 0.30187 0.34079 0.8833 0.0
C2573 C 0.30011 0.33236 0.85928 0.0
C2574 C 0.31898 0.29072 0.91129 0.0
C2575 C 0.29728 0.3642 0.89001 0.0
H2576 H 0.27626 0.34392 0.97005 0.0
H2577 H 0.34775 0.37138 0.97031 0.0
H2578 H 0.26073 0.32796 0.91207 0.0
H2579 H 0.26963 0.30249 0.91862 0.0
H2580 H 0.25455 0.31678 0.93895 0.0
H2581 H 0.36758 0.36282 0.93877 0.0
H2582 H 0.35542 0.33713 0.9187 0.0
H2583 H 0.34972 0.36381 0.91186 0.0
H2584 H 0.31396 0.28098 0.86385 0.0
H2585 H 0.29539 0.34281 0.84619 0.0
H2586 H 0.3049 0.28654 0.92208 0.0
H2587 H 0.33441 0.29996 0.92344 0.0
H2588 H 0.32255 0.27457 0.90288 0.0
H2589 H 0.28275 0.3629 0.90048 0.0
H2590 H 0.29315 0.37268 0.8744 0.0
H2591 H 0.31249 0.37521 0.9012 0.0
C2592 C 0.95783 0.02834 0.36875 0.0
C2593 C 0.96726 0.02192 0.34837 0.0
C2594 C 0.96946 0.02951 0.39153 0.0
C2595 C 0.9914 0.02408 0.39456 0.0
C2596 C 1.00126 0.01778 0.37415 0.0
C2597 C 0.98919 0.0169 0.35136 0.0
C2598 C 0.95735 0.03562 0.41218 0.0
C2599 C 0.02423 0.01114 0.37642 0.0
C2600 C 0.02748 0.04741 0.45448 0.0
C2601 C 0.02206 0.02927 0.46774 0.0
C2602 C 0.01844 0.04564 0.43053 0.0
C2603 C 1.00372 0.0251 0.41911 0.0
C2604 C 0.99876 1.00648 0.4322 0.0
C2605 C 1.0078 0.00884 0.45624 0.0
C2606 C 0.0242 0.06607 0.4176 0.0
C2607 C 0.98318 0.98425 0.42103 0.0
H2608 H 0.94089 0.03218 0.36703 0.0
H2609 H 0.99661 0.01157 0.33595 0.0
H2610 H 0.94582 0.01996 0.41583 0.0
H2611 H 0.96931 0.04286 0.42844 0.0
H2612 H 0.94655 0.04802 0.40807 0.0
H2613 H 0.02967 1.00665 0.35903 0.0
H2614 H 0.03749 0.02533 0.38656 0.0
H2615 H 0.02343 0.99629 0.38634 0.0
H2616 H 0.03853 0.0633 0.46295 0.0
H2617 H 1.00311 0.99483 0.46618 0.0
H2618 H 1.0083 0.07011 0.40904 0.0
H2619 H 0.0345 0.06212 0.40349 0.0
H2620 H 0.03407 0.08143 0.42943 0.0
H2621 H 0.96532 0.98668 0.4179 0.0
H2622 H 0.98353 0.97048 0.43231 0.0
H2623 H 0.98816 0.97868 0.40372 0.0
C2624 C 0.28509 0.70846 0.6142 0.0
C2625 C 0.2762 0.6851 0.61379 0.0
C2626 C 0.28734 0.72369 0.63485 0.0
C2627 C 0.28025 0.71535 0.65545 0.0
C2628 C 0.27144 0.69175 0.65523 0.0
C2629 C 0.26967 0.67684 0.63438 0.0
C2630 C 0.29713 0.74873 0.63456 0.0
C2631 C 0.26358 0.68235 0.6769 0.0
C2632 C 0.30434 0.75191 0.71364 0.0
C2633 C 0.28635 0.7627 0.71799 0.0
C2634 C 0.30245 0.73617 0.69349 0.0
C2635 C 0.28215 0.73139 0.67725 0.0
C2636 C 0.26398 0.74244 0.6815 0.0
C2637 C 0.26641 0.75821 0.7018 0.0
C2638 C 0.32227 0.7249 0.68946 0.0
C2639 C 0.24203 0.73761 0.66462 0.0
H2640 H 0.29024 0.7149 0.59833 0.0
H2641 H 0.26266 0.65879 0.63407 0.0
H2642 H 0.28425 0.75886 0.63885 0.0
H2643 H 0.31229 0.75468 0.6482 0.0
H2644 H 0.30233 0.75235 0.61722 0.0
H2645 H 0.25714 0.66356 0.6738 0.0
H2646 H 0.27791 0.6865 0.69157 0.0
H2647 H 0.24971 0.69046 0.68267 0.0
H2648 H 0.32007 0.75602 0.72587 0.0
H2649 H 0.2526 0.76675 0.70524 0.0
H2650 H 0.32897 0.72957 0.67307 0.0
H2651 H 0.31641 0.70607 0.68713 0.0
H2652 H 0.3365 0.72993 0.70427 0.0
H2653 H 0.24574 0.74228 0.64714 0.0
H2654 H 0.22933 0.74717 0.67087 0.0
H2655 H 0.23422 0.7191 0.66217 0.0
C2656 C 0.68448 0.08038 0.86221 0.0
C2657 C 0.67129 0.06989 0.84084 0.0
C2658 C 0.67407 0.08543 0.88212 0.0
C2659 C 0.64993 0.07944 0.88074 0.0
C2660 C 0.63666 0.06722 0.85981 0.0
C2661 C 0.64748 0.0628 0.83999 0.0
C2662 C 0.68885 0.09879 0.90396 0.0
C2663 C 0.61094 0.05976 0.85803 0.0
C2664 C 0.62473 0.0844 0.93808 0.0
C2665 C 0.61741 0.10512 0.93772 0.0
C2666 C 0.6348 0.07548 0.91939 0.0
C2667 C 0.63847 0.088 0.9003 0.0
C2668 C 0.63161 0.1091 0.89999 0.0
C2669 C 0.6208 0.11719 0.91848 0.0
C2670 C 0.64167 0.05278 0.92016 0.0
C2671 C 0.63581 0.12323 0.88019 0.0
H2672 H 0.7029 0.08581 0.86314 0.0
H2673 H 0.6372 0.05433 0.82365 0.0
H2674 H 0.68715 0.11681 0.90493 0.0
H2675 H 0.68328 0.0923 0.9201 0.0
H2676 H 0.70722 0.0983 0.90379 0.0
H2677 H 0.60353 0.04789 0.84171 0.0
H2678 H 0.60616 0.05125 0.87344 0.0
H2679 H 0.60308 0.07492 0.85808 0.0
H2680 H 0.62286 0.07518 0.95311 0.0
H2681 H 0.61494 0.13299 0.91777 0.0
H2682 H 0.66057 0.05518 0.92124 0.0
H2683 H 0.63412 0.04114 0.90375 0.0
H2684 H 0.6361 0.04443 0.93543 0.0
H2685 H 0.65429 0.12668 0.8781 0.0
H2686 H 0.63048 0.1398 0.88321 0.0
H2687 H 0.62623 0.11367 0.86338 0.0
C2688 C 0.30964 0.34082 0.1128 0.0
C2689 C 0.31011 0.3638 0.1101 0.0
C2690 C 0.30699 0.33257 0.13461 0.0
C2691 C 0.30414 0.34741 0.15439 0.0
C2692 C 0.30438 0.3706 0.15171 0.0
C2693 C 0.30761 0.37853 0.12981 0.0
C2694 C 0.30738 0.30789 0.1365 0.0
C2695 C 0.30096 0.38704 0.17197 0.0
C2696 C 0.27606 0.32005 0.20439 0.0
C2697 C 0.2949 0.32131 0.2216 0.0
C2698 C 0.27875 0.32865 0.18275 0.0
C2699 C 0.3009 0.33865 0.17777 0.0
C2700 C 0.32 0.33995 0.19509 0.0
C2701 C 0.31676 0.3315 0.21672 0.0
C2702 C 0.25777 0.32706 0.16518 0.0
C2703 C 0.344 0.34994 0.19063 0.0
H2704 H 0.31163 0.32924 0.09783 0.0
H2705 H 0.30778 0.39625 0.12801 0.0
H2706 H 0.32104 0.30679 0.15065 0.0
H2707 H 0.29085 0.29906 0.14135 0.0
H2708 H 0.31042 0.29867 0.1198 0.0
H2709 H 0.30103 0.40435 0.16704 0.0
H2710 H 0.2844 0.38054 0.17831 0.0
H2711 H 0.31469 0.38842 0.18688 0.0
H2712 H 0.25905 0.3125 0.20794 0.0
H2713 H 0.33153 0.33242 0.22965 0.0
H2714 H 0.2592 0.31673 0.14852 0.0
H2715 H 0.25653 0.34433 0.161 0.0
H2716 H 0.24172 0.31922 0.17176 0.0
H2717 H 0.34801 0.34034 0.17466 0.0
H2718 H 0.35709 0.34951 0.20565 0.0
H2719 H 0.34532 0.36789 0.18729 0.0
C2720 C 0.23146 0.97382 1.00261 0.0
C2721 C 0.23619 0.95201 1.00298 0.0
C2722 C 0.21317 0.97971 0.01315 0.0
C2723 C 0.19879 0.9631 0.02349 0.0
C2724 C 0.2023 0.94052 0.02212 0.0
C2725 C 0.22121 0.93531 0.01219 0.0
C2726 C 0.21035 1.00413 0.01479 0.0
C2727 C 0.18678 0.92219 0.03224 0.0
C2728 C 0.17193 0.984 0.07568 0.0
C2729 C 0.15031 0.98531 0.06495 0.0
C2730 C 0.18791 0.97683 0.06231 0.0
C2731 C 0.18168 0.96999 0.03779 0.0
C2732 C 0.15954 0.97061 0.027 0.0
C2733 C 0.14428 0.97885 0.04067 0.0
C2734 C 0.21166 0.9772 0.07429 0.0
C2735 C 0.15207 0.96273 1.00108 0.0
H2736 H 0.24292 0.98677 0.99543 0.0
H2737 H 0.22466 0.91834 0.01223 0.0
H2738 H 0.19249 1.00484 0.00823 0.0
H2739 H 0.21385 0.01196 0.03348 0.0
H2740 H 0.22213 0.01459 1.00464 0.0
H2741 H 0.18979 0.90493 0.02674 0.0
H2742 H 0.18982 0.92556 0.05173 0.0
H2743 H 0.16853 0.92231 0.02667 0.0
H2744 H 0.17659 0.9894 0.09443 0.0
H2745 H 0.12757 0.98016 0.03245 0.0
H2746 H 0.22465 0.98829 0.06593 0.0
H2747 H 0.21522 0.95981 0.07218 0.0
H2748 H 0.21389 0.98358 0.09337 0.0
H2749 H 0.16232 0.97424 0.99059 0.0
H2750 H 0.13363 0.9624 0.99591 0.0
H2751 H 0.15519 0.94538 0.99642 0.0
C2752 C 0.70797 0.63214 0.02104 0.0
C2753 C 0.70657 0.65296 0.01288 0.0
C2754 C 0.6882 0.616 0.02326 0.0
C2755 C 0.66634 0.6213 0.01865 0.0
C2756 C 0.66488 0.64286 0.01154 0.0
C2757 C 0.68498 0.65827 0.00841 0.0
C2758 C 0.69081 0.59335 0.0308 0.0
C2759 C 0.64217 0.64988 0.00754 0.0
C2760 C 0.61029 0.57639 0.00509 0.0
C2761 C 0.60546 0.57235 0.02761 0.0
C2762 C 0.63027 0.59172 1.00183 0.0
C2763 C 0.6452 0.60444 0.02172 0.0
C2764 C 0.63989 0.60067 0.04463 0.0
C2765 C 0.62071 0.58391 0.0472 0.0
C2766 C 0.63466 0.59406 0.97687 0.0
C2767 C 0.65353 0.61465 0.06679 0.0
H2768 H 0.72465 0.62857 0.02612 0.0
H2769 H 0.68383 0.67466 1.00288 0.0
H2770 H 0.6855 0.59197 0.04845 0.0
H2771 H 0.6796 0.57917 0.01838 0.0
H2772 H 0.70877 0.59115 0.0318 0.0
H2773 H 0.64439 0.66862 0.00768 0.0
H2774 H 0.63293 0.64148 0.99014 0.0
H2775 H 0.63128 0.64454 0.02117 0.0
H2776 H 0.59844 0.56741 0.98989 0.0
H2777 H 0.61686 0.58094 0.06469 0.0
H2778 H 0.63337 0.5769 0.96699 0.0
H2779 H 0.65157 0.60477 0.97557 0.0
H2780 H 0.62113 0.60155 0.96799 0.0
H2781 H 0.66215 0.60352 0.07713 0.0
H2782 H 0.64172 0.62123 0.07799 0.0
H2783 H 0.66655 0.62937 0.0635 0.0
C2784 C 0.65655 0.48358 0.28379 0.0
C2785 C 0.6674 0.4992 0.3035 0.0
C2786 C 0.66293 0.46242 0.27906 0.0
C2787 C 0.68067 0.45691 0.29425 0.0
C2788 C 0.69142 0.47248 0.31426 0.0
C2789 C 0.68454 0.49318 0.31872 0.0
C2790 C 0.65091 0.44606 0.2577 0.0
C2791 C 0.71053 0.46747 0.33086 0.0
C2792 C 0.68697 0.39624 0.2994 0.0
C2793 C 0.70515 0.3942 0.28646 0.0
C2794 C 0.67807 0.41607 0.30099 0.0
C2795 C 0.68788 0.43472 0.28985 0.0
C2796 C 0.70615 0.43286 0.27665 0.0
C2797 C 0.71444 0.41258 0.27495 0.0
C2798 C 0.65864 0.41734 0.3153 0.0
C2799 C 0.7174 0.45255 0.26492 0.0
H2800 H 0.64343 0.48803 0.27184 0.0
H2801 H 0.69312 0.50493 0.33409 0.0
H2802 H 0.66346 0.443 0.2456 0.0
H2803 H 0.64339 0.42936 0.26305 0.0
H2804 H 0.63708 0.45255 0.24797 0.0
H2805 H 0.71743 0.48162 0.3454 0.0
H2806 H 0.70427 0.45174 0.33865 0.0
H2807 H 0.72478 0.46441 0.32107 0.0
H2808 H 0.67994 0.38248 0.30886 0.0
H2809 H 0.72824 0.41118 0.26463 0.0
H2810 H 0.64473 0.42322 0.30502 0.0
H2811 H 0.66485 0.42996 0.33129 0.0
H2812 H 0.65139 0.40064 0.32085 0.0
H2813 H 0.70434 0.45834 0.25332 0.0
H2814 H 0.7306 0.44802 0.25431 0.0
H2815 H 0.72568 0.46719 0.27849 0.0
C2816 C 0.87045 0.48532 0.50145 0.0
C2817 C 0.86552 0.46197 0.4933 0.0
C2818 C 0.89285 0.49821 0.50375 0.0
C2819 C 0.91088 0.48704 0.49953 0.0
C2820 C 0.90612 0.46325 0.49219 0.0
C2821 C 0.88335 0.45104 0.48871 0.0
C2822 C 0.89733 0.5236 0.51147 0.0
C2823 C 0.92511 0.45056 0.48909 0.0
C2824 C 0.96909 0.5194 0.48978 0.0
C2825 C 0.98062 0.52398 0.51274 0.0
C2826 C 0.94615 0.5078 0.48526 0.0
C2827 C 0.93486 0.50004 0.5041 0.0
C2828 C 0.94644 0.50503 0.5274 0.0
C2829 C 0.96897 0.51779 0.53141 0.0
C2830 C 0.93383 0.50462 0.46053 0.0
C2831 C 0.93554 0.49634 0.54803 0.0
H2832 H 0.85689 0.49338 0.50669 0.0
H2833 H 0.87955 0.43278 0.48323 0.0
H2834 H 0.90867 0.52816 0.52852 0.0
H2835 H 0.90635 0.53286 0.49841 0.0
H2836 H 0.88132 0.5297 0.51357 0.0
H2837 H 0.9185 0.43191 0.48411 0.0
H2838 H 0.93513 0.45715 0.47531 0.0
H2839 H 0.93708 0.45341 0.50572 0.0
H2840 H 0.97799 0.52502 0.47537 0.0
H2841 H 0.9774 0.52337 0.54913 0.0
H2842 H 0.92454 0.4867 0.45509 0.0
H2843 H 0.94566 0.50954 0.44755 0.0
H2844 H 0.92095 0.51546 0.46005 0.0
H2845 H 0.94429 0.50625 0.56504 0.0
H2846 H 0.93685 0.47827 0.54831 0.0
H2847 H 0.91712 0.49678 0.54673 0.0
C2848 C 0.3807 0.10028 0.31542 0.0
C2849 C 0.36552 0.08416 0.32512 0.0
C2850 C 0.37303 0.11791 0.30507 0.0
C2851 C 0.34949 0.11856 0.30341 0.0
C2852 C 0.33441 0.103 0.31422 0.0
C2853 C 0.34279 0.08646 0.32555 0.0
C2854 C 0.38991 0.13503 0.29496 0.0
C2855 C 0.309 0.10259 0.31226 0.0
C2856 C 0.31978 0.16469 0.28567 0.0
C2857 C 0.3116 0.15659 0.26185 0.0
C2858 C 0.33434 0.15385 0.29887 0.0
C2859 C 0.33977 0.13367 0.28844 0.0
C2860 C 0.33257 0.12598 0.26423 0.0
C2861 C 0.31913 0.13792 0.2511 0.0
C2862 C 0.34283 0.16327 0.32432 0.0
C2863 C 0.33763 0.10422 0.25255 0.0
H2864 H 0.39839 0.0988 0.31538 0.0
H2865 H 0.33099 0.07427 0.33326 0.0
H2866 H 0.38954 0.12938 0.27596 0.0
H2867 H 0.38555 0.15212 0.2968 0.0
H2868 H 0.40767 0.13657 0.3037 0.0
H2869 H 0.29962 0.08906 0.32137 0.0
H2870 H 0.30606 0.11925 0.31989 0.0
H2871 H 0.3015 0.09961 0.29345 0.0
H2872 H 0.31414 0.17893 0.2945 0.0
H2873 H 0.31387 0.13203 0.23255 0.0
H2874 H 0.3609 0.16193 0.32894 0.0
H2875 H 0.33236 0.15328 0.33587 0.0
H2876 H 0.34162 0.18141 0.32816 0.0
H2877 H 0.35635 0.10512 0.2546 0.0
H2878 H 0.33099 0.10075 0.23348 0.0
H2879 H 0.3297 0.08958 0.26116 0.0
C2880 C 0.33413 0.15276 0.4942 0.0
C2881 C 0.32555 0.16443 0.51245 0.0
C2882 C 0.35449 0.14491 0.49831 0.0
C2883 C 0.36659 0.14866 0.52131 0.0
C2884 C 0.35851 0.16115 0.53968 0.0
C2885 C 0.33813 0.16902 0.53501 0.0
C2886 C 0.36259 0.13188 0.47818 0.0
C2887 C 0.37086 0.16535 0.56449 0.0
C2888 C 0.40465 0.10769 0.53766 0.0
C2889 C 0.42657 0.12078 0.53696 0.0
C2890 C 0.38496 0.1165 0.53249 0.0
C2891 C 0.38727 0.13886 0.52624 0.0
C2892 C 0.40933 0.15183 0.52471 0.0
C2893 C 0.4287 0.14267 0.53018 0.0
C2894 C 0.36175 0.10213 0.53435 0.0
C2895 C 0.4125 0.17554 0.51771 0.0
H2896 H 0.32456 0.14919 0.47668 0.0
H2897 H 0.33148 0.17777 0.54925 0.0
H2898 H 0.38073 0.13945 0.47682 0.0
H2899 H 0.36177 0.11398 0.4815 0.0
H2900 H 0.35208 0.13173 0.46106 0.0
H2901 H 0.36299 0.17622 0.57655 0.0
H2902 H 0.37056 0.14882 0.57135 0.0
H2903 H 0.3891 0.17369 0.56469 0.0
H2904 H 0.40294 0.09088 0.54318 0.0
H2905 H 0.44563 0.15277 0.52945 0.0
H2906 H 0.35035 0.10004 0.51744 0.0
H2907 H 0.35358 0.11083 0.54797 0.0
H2908 H 0.36284 0.08494 0.53899 0.0
H2909 H 0.40228 0.17514 0.5004 0.0
H2910 H 0.43074 0.18309 0.5166 0.0
H2911 H 0.40615 0.18686 0.53071 0.0
C2912 C 0.70277 0.61639 0.29608 0.0
C2913 C 0.68305 0.61831 0.30648 0.0
C2914 C 0.7193 0.63574 0.29358 0.0
C2915 C 0.71596 0.65777 0.3013 0.0
C2916 C 0.69626 0.65981 0.31225 0.0
C2917 C 0.67988 0.64007 0.31444 0.0
C2918 C 0.74012 0.63261 0.2822 0.0
C2919 C 0.69244 0.68291 0.32153 0.0
C2920 C 0.76708 0.70853 0.30779 0.0
C2921 C 0.7623 0.71847 0.28755 0.0
C2922 C 0.75212 0.68901 0.31269 0.0
C2923 C 0.73228 0.6786 0.29653 0.0
C2924 C 0.728 0.68817 0.27551 0.0
C2925 C 0.74284 0.70814 0.27147 0.0
C2926 C 0.75778 0.67986 0.3353 0.0
C2927 C 0.70743 0.67759 0.25749 0.0
H2928 H 0.70503 0.59963 0.28932 0.0
H2929 H 0.66463 0.64164 0.32239 0.0
H2930 H 0.74067 0.64124 0.26615 0.0
H2931 H 0.7559 0.64064 0.29444 0.0
H2932 H 0.74028 0.61433 0.27727 0.0
H2933 H 0.67704 0.68162 0.33079 0.0
H2934 H 0.70765 0.69239 0.33389 0.0
H2935 H 0.69035 0.69303 0.30679 0.0
H2936 H 0.78186 0.71676 0.32048 0.0
H2937 H 0.73905 0.71594 0.25585 0.0
H2938 H 0.76843 0.66714 0.33182 0.0
H2939 H 0.74213 0.67162 0.3422 0.0
H2940 H 0.76793 0.69353 0.34903 0.0
H2941 H 0.70758 0.65945 0.25185 0.0
H2942 H 0.70696 0.68662 0.24171 0.0
H2943 H 0.69146 0.67791 0.26542 0.0
C2944 C 0.8706 0.4505 0.8398 0.0
C2945 C 0.8634 0.46659 0.82678 0.0
C2946 C 0.85698 0.42853 0.83812 0.0
C2947 C 0.83644 0.42246 0.82215 0.0
C2948 C 0.82864 0.43909 0.80985 0.0
C2949 C 0.84233 0.46103 0.81228 0.0
C2950 C 0.86527 0.41141 0.85225 0.0
C2951 C 0.80688 0.43326 0.79265 0.0
C2952 C 0.82575 0.36271 0.7905 0.0
C2953 C 0.80705 0.35158 0.80019 0.0
C2954 C 0.83495 0.38591 0.79704 0.0
C2955 C 0.82587 0.3981 0.81474 0.0
C2956 C 0.80715 0.38691 0.82504 0.0
C2957 C 0.79755 0.36383 0.81718 0.0
C2958 C 0.85459 0.39724 0.78513 0.0
C2959 C 0.79729 0.39904 0.84436 0.0
H2960 H 0.887 0.455 0.85095 0.0
H2961 H 0.8371 0.47355 0.80192 0.0
H2962 H 0.85089 0.40142 0.85981 0.0
H2963 H 0.87208 0.39925 0.84058 0.0
H2964 H 0.87907 0.41978 0.86676 0.0
H2965 H 0.80205 0.44868 0.78645 0.0
H2966 H 0.80921 0.42175 0.77716 0.0
H2967 H 0.79252 0.42408 0.80084 0.0
H2968 H 0.83336 0.35322 0.77791 0.0
H2969 H 0.7832 0.35526 0.82501 0.0
H2970 H 0.87026 0.40307 0.79813 0.0
H2971 H 0.85051 0.41249 0.77788 0.0
H2972 H 0.85846 0.38559 0.77056 0.0
H2973 H 0.81094 0.41127 0.85648 0.0
H2974 H 0.78768 0.38685 0.85475 0.0
H2975 H 0.78519 0.40866 0.83639 0.0
C2976 C 0.05577 0.86425 0.06387 0.0
C2977 C 0.06878 0.86107 0.08484 0.0
C2978 C 0.05348 0.88618 0.058 0.0
C2979 C 0.06424 0.9065 0.07326 0.0
C2980 C 0.07761 0.9036 0.09439 0.0
C2981 C 0.07974 0.8813 0.09985 0.0
C2982 C 0.03943 0.88757 0.03507 0.0
C2983 C 0.08976 0.92424 0.11138 0.0
C2984 C 0.07301 0.9649 0.04709 0.0
C2985 C 0.05412 0.97414 0.05283 0.0
C2986 C 0.07658 0.94343 0.05361 0.0
C2987 C 0.06134 0.93039 0.06694 0.0
C2988 C 0.04256 0.93994 0.07319 0.0
C2989 C 0.03928 0.96126 0.06621 0.0
C2990 C 0.09691 0.93481 0.04607 0.0
C2991 C 0.02553 0.92745 0.0872 0.0
H2992 H 0.0471 0.84934 0.05169 0.0
H2993 H 0.08982 0.87977 0.11612 0.0
H2994 H 0.02501 0.89589 0.03853 0.0
H2995 H 0.05017 0.89827 0.02424 0.0
H2996 H 0.03234 0.87052 0.02474 0.0
H2997 H 0.09866 0.91962 0.12748 0.0
H2998 H 0.10256 0.93505 0.1026 0.0
H2999 H 0.07736 0.93465 0.11655 0.0
H3000 H 0.08496 0.97431 0.03704 0.0
H3001 H 0.02495 0.968 0.07152 0.0
H3002 H 0.09305 0.91596 0.04187 0.0
H3003 H 0.11132 0.93972 0.06066 0.0
H3004 H 0.1026 0.94225 0.03038 0.0
H3005 H 0.01613 0.91116 0.07664 0.0
H3006 H 0.01286 0.93758 0.09229 0.0
H3007 H 0.0346 0.92315 0.10336 0.0
C3008 C 0.94612 0.26346 0.88287 0.0
C3009 C 0.94971 0.27247 0.90683 0.0
C3010 C 0.92613 0.26449 0.86773 0.0
C3011 C 0.90842 0.27401 0.87665 0.0
C3012 C 0.91162 0.28242 0.90107 0.0
C3013 C 0.93199 0.2815 0.91574 0.0
C3014 C 0.92414 0.25569 0.84195 0.0
C3015 C 0.89367 0.29297 0.91165 0.0
C3016 C 0.8682 0.29686 0.83236 0.0
C3017 C 0.84879 0.2791 0.82695 0.0
C3018 C 0.88685 0.29581 0.84902 0.0
C3019 C 0.88721 0.27601 0.86027 0.0
C3020 C 0.86733 0.25802 0.85517 0.0
C3021 C 0.84836 0.25986 0.83888 0.0
C3022 C 0.90638 0.31604 0.85361 0.0
C3023 C 0.8661 0.23676 0.86692 0.0
H3024 H 0.95909 0.25556 0.87586 0.0
H3025 H 0.93423 0.28825 0.93422 0.0
H3026 H 0.90846 0.24207 0.83675 0.0
H3027 H 0.92245 0.26969 0.83132 0.0
H3028 H 0.9392 0.24878 0.83757 0.0
H3029 H 0.89779 0.29743 0.93104 0.0
H3030 H 0.89219 0.3087 0.90378 0.0
H3031 H 0.87669 0.28106 0.90751 0.0
H3032 H 0.86876 0.31203 0.82371 0.0
H3033 H 0.83339 0.246 0.83512 0.0
H3034 H 0.91716 0.31443 0.83938 0.0
H3035 H 0.91659 0.31712 0.871 0.0
H3036 H 0.90024 0.33217 0.85274 0.0
H3037 H 0.87977 0.22795 0.86195 0.0
H3038 H 0.84926 0.2247 0.86199 0.0
H3039 H 0.86915 0.24136 0.88632 0.0
C3040 C 0.5522 0.21847 0.60406 0.0
C3041 C 0.56248 0.23524 0.591 0.0
C3042 C 0.54953 0.19464 0.5968 0.0
C3043 C 0.55775 0.18656 0.57593 0.0
C3044 C 0.56806 0.20343 0.56252 0.0
C3045 C 0.57041 0.22726 0.57019 0.0
C3046 C 0.53803 0.17801 0.61177 0.0
C3047 C 0.57725 0.19635 0.54024 0.0
C3048 C 0.57051 0.12518 0.57169 0.0
C3049 C 0.55098 0.11144 0.55759 0.0
C3050 C 0.57317 0.14931 0.57725 0.0
C3051 C 0.55589 0.16069 0.56871 0.0
C3052 C 0.53634 0.14686 0.55406 0.0
C3053 C 0.53421 0.12284 0.54872 0.0
C3054 C 0.59453 0.16265 0.59267 0.0
C3055 C 0.5175 0.15746 0.54385 0.0
H3056 H 0.54633 0.22407 0.62037 0.0
H3057 H 0.57913 0.23971 0.5602 0.0
H3058 H 0.52268 0.16661 0.6012 0.0
H3059 H 0.54981 0.16709 0.61765 0.0
H3060 H 0.53263 0.1867 0.62752 0.0
H3061 H 0.58388 0.21115 0.53117 0.0
H3062 H 0.5913 0.18734 0.54439 0.0
H3063 H 0.56362 0.18424 0.52798 0.0
H3064 H 0.58353 0.11698 0.57903 0.0
H3065 H 0.51926 0.11287 0.53729 0.0
H3066 H 0.5899 0.17039 0.60931 0.0
H3067 H 0.60302 0.17681 0.58378 0.0
H3068 H 0.60696 0.15182 0.59698 0.0
H3069 H 0.51084 0.16693 0.55817 0.0
H3070 H 0.50305 0.14462 0.53343 0.0
H3071 H 0.52451 0.16979 0.53219 0.0
C3072 C 0.57043 0.77407 0.39122 0.0
C3073 C 0.56933 0.77852 0.41546 0.0
C3074 C 0.59127 0.77737 0.382 0.0
C3075 C 0.61207 0.7848 0.39737 0.0
C3076 C 0.61136 0.78734 0.42209 0.0
C3077 C 0.58994 0.78438 0.4309 0.0
C3078 C 0.59077 0.77468 0.35556 0.0
C3079 C 0.63312 0.79443 0.43918 0.0
C3080 C 0.66227 0.78238 0.3626 0.0
C3081 C 0.66695 0.80451 0.3562 0.0
C3082 C 0.646 0.77619 0.37799 0.0
C3083 C 0.63376 0.79234 0.38692 0.0
C3084 C 0.63967 0.81508 0.38189 0.0
C3085 C 0.65627 0.8209 0.3669 0.0
C3086 C 0.64084 0.75194 0.38343 0.0
C3087 C 0.62712 0.83296 0.39074 0.0
H3088 H 0.55472 0.76934 0.37906 0.0
H3089 H 0.58939 0.78795 0.44962 0.0
H3090 H 0.59749 0.79147 0.34994 0.0
H3091 H 0.60191 0.76303 0.35004 0.0
H3092 H 0.5732 0.76787 0.34608 0.0
H3093 H 0.63025 0.79016 0.45703 0.0
H3094 H 0.64672 0.7861 0.43307 0.0
H3095 H 0.63944 0.81315 0.44051 0.0
H3096 H 0.6704 0.76951 0.35466 0.0
H3097 H 0.66023 0.83825 0.36281 0.0
H3098 H 0.62474 0.74242 0.37253 0.0
H3099 H 0.63833 0.75151 0.40217 0.0
H3100 H 0.65477 0.74299 0.37963 0.0
H3101 H 0.60912 0.82859 0.382 0.0
H3102 H 0.63514 0.85028 0.38718 0.0
H3103 H 0.62666 0.83338 0.40994 0.0
C3104 C 0.0381 0.23857 0.39128 0.0
C3105 C 0.04606 0.26013 0.40461 0.0
C3106 C 0.03451 0.21851 0.40219 0.0
C3107 C 0.03872 0.21996 0.42707 0.0
C3108 C 0.04712 0.24166 0.44054 0.0
C3109 C 0.05078 0.26137 0.42919 0.0
C3110 C 0.02576 0.19576 0.38708 0.0
C3111 C 0.05162 0.24417 0.46706 0.0
C3112 C 1.00542 0.17094 0.45459 0.0
C3113 C 0.0218 0.15776 0.45902 0.0
C3114 C 0.0109 0.19148 0.44491 0.0
C3115 C 0.03326 0.19894 0.43904 0.0
C3116 C 0.05007 0.18597 0.44412 0.0
C3117 C 0.04414 0.16555 0.45407 0.0
C3118 C 0.99248 0.2048 0.44021 0.0
C3119 C 0.07406 0.19315 0.43812 0.0
H3120 H 0.03439 0.23736 0.37232 0.0
H3121 H 0.05686 0.27789 0.43974 0.0
H3122 H 0.03724 0.18396 0.39106 0.0
H3123 H 1.00853 0.1879 0.39111 0.0
H3124 H 0.02453 0.19731 0.36799 0.0
H3125 H 0.05892 0.26211 0.47497 0.0
H3126 H 0.03539 0.23815 0.47421 0.0
H3127 H 0.06364 0.23339 0.47267 0.0
H3128 H 0.98805 0.16475 0.45807 0.0
H3129 H 0.0567 0.15514 0.45701 0.0
H3130 H 0.9885 0.2049 0.42099 0.0
H3131 H 0.9986 0.22281 0.44838 0.0
H3132 H 0.97643 0.19752 0.44712 0.0
H3133 H 0.07351 0.19251 0.41877 0.0
H3134 H 0.08549 0.18203 0.44439 0.0
H3135 H 0.0816 0.21102 0.44599 0.0
C3136 C 0.61069 0.25096 0.20245 0.0
C3137 C 0.5965 0.25927 0.21777 0.0
C3138 C 0.63477 0.2534 0.20891 0.0
C3139 C 0.64581 0.26473 0.23138 0.0
C3140 C 0.6316 0.27322 0.24695 0.0
C3141 C 0.60745 0.27034 0.24011 0.0
C3142 C 0.64849 0.24373 0.19149 0.0
C3143 C 0.642 0.28581 0.27089 0.0
C3144 C 0.70613 0.25528 0.2562 0.0
C3145 C 0.72164 0.27424 0.25076 0.0
C3146 C 0.68187 0.25188 0.24995 0.0
C3147 C 0.67205 0.26803 0.23824 0.0
C3148 C 0.68759 0.28731 0.23291 0.0
C3149 C 0.71176 0.29002 0.23892 0.0
C3150 C 0.66665 0.23091 0.25613 0.0
C3151 C 0.67866 0.30549 0.22106 0.0
H3152 H 0.60289 0.24229 0.18519 0.0
H3153 H 0.59714 0.277 0.2523 0.0
H3154 H 0.66174 0.25763 0.18699 0.0
H3155 H 0.65756 0.23149 0.19945 0.0
H3156 H 0.63761 0.23486 0.17501 0.0
H3157 H 0.62876 0.28927 0.28199 0.0
H3158 H 0.65301 0.27594 0.28022 0.0
H3159 H 0.65307 0.30234 0.26881 0.0
H3160 H 0.71289 0.2432 0.26587 0.0
H3161 H 0.72297 0.30496 0.23458 0.0
H3162 H 0.65609 0.22095 0.23998 0.0
H3163 H 0.65469 0.23599 0.26804 0.0
H3164 H 0.67659 0.21972 0.26486 0.0
H3165 H 0.66826 0.29788 0.20394 0.0
H3166 H 0.69267 0.31946 0.21796 0.0
H3167 H 0.66728 0.31293 0.23212 0.0
C3168 C 0.5686 0.90851 0.90161 0.0
C3169 C 0.55557 0.88645 0.90202 0.0
C3170 C 0.56732 0.92727 0.91827 0.0
C3171 C 0.55178 0.92447 0.93525 0.0
C3172 C 0.53829 0.90229 0.93536 0.0
C3173 C 0.54068 0.88369 0.91925 0.0
C3174 C 0.58276 0.95016 0.91776 0.0
C3175 C 0.52073 0.89824 0.95214 0.0
C3176 C 0.55811 0.9671 0.99213 0.0
C3177 C 0.54368 0.98178 0.98576 0.0
C3178 C 0.56135 0.94895 0.97588 0.0
C3179 C 0.54933 0.9446 0.95262 0.0
C3180 C 0.53447 0.95928 0.94627 0.0
C3181 C 0.53216 0.97775 0.96265 0.0
C3182 C 0.57796 0.93458 0.98358 0.0
C3183 C 0.52051 0.95518 0.92225 0.0
H3184 H 0.58011 0.91104 0.88846 0.0
H3185 H 0.53013 0.86694 0.91958 0.0
H3186 H 0.57234 0.96255 0.91268 0.0
H3187 H 0.59218 0.95691 0.93556 0.0
H3188 H 0.59537 0.94923 0.90516 0.0
H3189 H 0.51095 0.88029 0.94954 0.0
H3190 H 0.52924 0.90246 0.97057 0.0
H3191 H 0.50848 0.90962 0.94971 0.0
H3192 H 0.56736 0.97015 0.00978 0.0
H3193 H 0.52079 0.98877 0.95752 0.0
H3194 H 0.59086 0.93448 0.9712 0.0
H3195 H 0.56873 0.91667 0.98319 0.0
H3196 H 0.58702 0.94087 1.00164 0.0
H3197 H 0.53201 0.95658 0.90846 0.0
H3198 H 0.50914 0.96749 0.92022 0.0
H3199 H 0.5098 0.93761 0.91913 0.0
C3200 C 0.96169 0.78873 0.73815 0.0
C3201 C 0.96709 0.76722 0.73219 0.0
C3202 C 0.93954 0.79143 0.74336 0.0
C3203 C 0.92158 0.77215 0.74415 0.0
C3204 C 0.92698 0.75024 0.73834 0.0
C3205 C 0.94908 0.74811 0.73201 0.0
C3206 C 0.93574 0.81539 0.74808 0.0
C3207 C 0.9097 0.72854 0.73904 0.0
C3208 C 0.87306 0.78663 0.78058 0.0
C3209 C 0.85305 0.78179 0.76399 0.0
C3210 C 0.8948 0.78307 0.77471 0.0
C3211 C 0.89771 0.77509 0.75113 0.0
C3212 C 0.87754 0.77069 0.7342 0.0
C3213 C 0.85586 0.77361 0.74082 0.0
C3214 C 0.91451 0.78803 0.79438 0.0
C3215 C 0.87856 0.76304 0.70866 0.0
H3216 H 0.97494 0.80389 0.73843 0.0
H3217 H 0.95246 0.73127 0.72775 0.0
H3218 H 0.91755 0.81627 0.74334 0.0
H3219 H 0.94088 0.82175 0.76705 0.0
H3220 H 0.9465 0.82711 0.73812 0.0
H3221 H 0.91831 0.71555 0.74617 0.0
H3222 H 0.896 0.73117 0.7498 0.0
H3223 H 0.9017 0.72139 0.72083 0.0
H3224 H 0.87175 0.79297 0.79859 0.0
H3225 H 0.84102 0.76989 0.72744 0.0
H3226 H 0.92098 0.80676 0.7983 0.0
H3227 H 0.92884 0.77989 0.79015 0.0
H3228 H 0.90858 0.7821 0.81068 0.0
H3229 H 0.89544 0.77018 0.70331 0.0
H3230 H 0.86496 0.7681 0.69703 0.0
H3231 H 0.87566 0.74416 0.70576 0.0
C3232 C 0.09859 0.04448 0.86623 0.0
C3233 C 0.11971 0.06015 0.86873 0.0
C3234 C 0.08701 0.03983 0.88597 0.0
C3235 C 0.09638 0.05145 0.90881 0.0
C3236 C 0.11724 0.06786 0.91117 0.0
C3237 C 0.12866 0.07173 0.89138 0.0
C3238 C 0.06512 0.02187 0.8825 0.0
C3239 C 0.12788 0.08111 0.93482 0.0
C3240 C 0.05875 0.05446 0.95864 0.0
C3241 C 0.06579 0.03915 0.97315 0.0
C3242 C 0.06824 0.05838 0.93765 0.0
C3243 C 0.08487 0.0463 0.93039 0.0
C3244 C 0.09153 0.03033 0.94469 0.0
C3245 C 0.08215 0.02715 0.96588 0.0
C3246 C 0.06096 0.07604 0.92361 0.0
C3247 C 0.10888 0.01675 0.93779 0.0
H3248 H 0.09158 0.03515 0.84902 0.0
H3249 H 0.14492 0.08385 0.89376 0.0
H3250 H 0.06751 1.00779 0.89277 0.0
H3251 H 0.05114 0.02917 0.88922 0.0
H3252 H 0.05968 0.01468 0.86372 0.0
H3253 H 0.14267 0.09501 0.93337 0.0
H3254 H 0.115 0.08868 0.94348 0.0
H3255 H 0.13394 0.06943 0.94643 0.0
H3256 H 0.04622 0.06394 0.96407 0.0
H3257 H 0.08757 0.01512 0.97677 0.0
H3258 H 0.05441 0.06834 0.90519 0.0
H3259 H 0.076 0.08995 0.92305 0.0
H3260 H 0.04747 0.08359 0.93116 0.0
H3261 H 0.10415 0.00864 0.91924 0.0
H3262 H 0.11038 1.00328 0.9492 0.0
H3263 H 0.12594 0.02831 0.93908 0.0
C3264 C 0.79542 0.39588 0.56979 0.0
C3265 C 0.80926 0.41562 0.56424 0.0
C3266 C 0.80071 0.38739 0.59092 0.0
C3267 C 0.82071 0.39855 0.60632 0.0
C3268 C 0.83395 0.41926 0.60143 0.0
C3269 C 0.82783 0.42774 0.58052 0.0
C3270 C 0.78574 0.3657 0.596 0.0
C3271 C 0.85567 0.4314 0.61717 0.0
C3272 C 0.83379 0.38158 0.66693 0.0
C3273 C 0.84757 0.36574 0.66237 0.0
C3274 C 0.82436 0.392 0.64878 0.0
C3275 C 0.82947 0.38703 0.62569 0.0
C3276 C 0.84343 0.37119 0.62096 0.0
C3277 C 0.85196 0.36047 0.63926 0.0
C3278 C 0.80906 0.40839 0.6543 0.0
C3279 C 0.84957 0.36572 0.59658 0.0
H3280 H 0.78093 0.38664 0.55725 0.0
H3281 H 0.83862 0.44296 0.57613 0.0
H3282 H 0.79463 0.35137 0.59321 0.0
H3283 H 0.78249 0.36732 0.61462 0.0
H3284 H 0.76903 0.36129 0.58442 0.0
H3285 H 0.86262 0.44847 0.61224 0.0
H3286 H 0.85264 0.4335 0.63582 0.0
H3287 H 0.86888 0.42097 0.6159 0.0
H3288 H 0.83055 0.38611 0.68475 0.0
H3289 H 0.86207 0.34786 0.63537 0.0
H3290 H 0.79266 0.40345 0.64226 0.0
H3291 H 0.81741 0.42582 0.65147 0.0
H3292 H 0.80523 0.40894 0.67274 0.0
H3293 H 0.83382 0.35812 0.58413 0.0
H3294 H 0.86131 0.35363 0.59607 0.0
H3295 H 0.85794 0.38161 0.5902 0.0
C3296 C 0.41879 0.03555 0.41767 0.0
C3297 C 0.42371 0.04135 0.39561 0.0
C3298 C 0.43649 0.03712 0.43615 0.0
C3299 C 0.45948 0.04502 0.43248 0.0
C3300 C 0.4644 0.05231 0.41076 0.0
C3301 C 0.44645 0.05025 0.39253 0.0
C3302 C 0.43063 0.029 0.45903 0.0
C3303 C 0.48869 0.06141 0.40645 0.0
C3304 C 0.50534 0.06309 0.48522 0.0
C3305 C 0.51506 0.04391 0.48513 0.0
C3306 C 0.48704 0.06367 0.46825 0.0
C3307 C 0.47856 0.04459 0.45083 0.0
C3308 C 0.48875 0.0253 0.45048 0.0
C3309 C 0.50727 0.02537 0.46752 0.0
C3310 C 0.47679 0.08461 0.46899 0.0
C3311 C 0.47982 1.00447 0.43244 0.0
H3312 H 0.40126 0.02874 0.4202 0.0
H3313 H 0.45033 0.0551 0.37562 0.0
H3314 H 0.43551 0.01234 0.46019 0.0
H3315 H 0.44036 0.04105 0.47433 0.0
H3316 H 0.41202 0.02676 0.46037 0.0
H3317 H 0.4894 0.06816 0.38931 0.0
H3318 H 0.49746 0.07521 0.4207 0.0
H3319 H 0.49844 0.04761 0.40661 0.0
H3320 H 0.51201 0.07759 0.4987 0.0
H3321 H 0.51516 0.01068 0.46759 0.0
H3322 H 0.45835 0.07993 0.47096 0.0
H3323 H 0.47799 0.09189 0.45219 0.0
H3324 H 0.48549 0.09798 0.48372 0.0
H3325 H 0.46141 0.99771 0.43343 0.0
H3326 H 0.48932 0.99071 0.43503 0.0
H3327 H 0.48116 0.00912 0.41448 0.0
C3328 C 0.75479 0.70864 0.10466 0.0
C3329 C 0.77172 0.71764 0.09121 0.0
C3330 C 0.75557 0.71721 0.12857 0.0
C3331 C 0.77433 0.73457 0.13986 0.0
C3332 C 0.79165 0.74351 0.12638 0.0
C3333 C 0.78986 0.73534 0.10216 0.0
C3334 C 0.73619 0.70773 0.14173 0.0
C3335 C 0.81242 0.76132 0.13771 0.0
C3336 C 0.77179 0.77003 0.19879 0.0
C3337 C 0.78224 0.75838 0.21523 0.0
C3338 C 0.76851 0.76221 0.17438 0.0
C3339 C 0.7764 0.74255 0.16591 0.0
C3340 C 0.78649 0.73048 0.18248 0.0
C3341 C 0.78891 0.73828 0.20675 0.0
C3342 C 0.75667 0.7751 0.15764 0.0
C3343 C 0.79509 0.70941 0.17455 0.0
H3344 H 0.74058 0.69514 0.09628 0.0
H3345 H 0.80306 0.74231 0.09195 0.0
H3346 H 0.74251 0.69839 0.15571 0.0
H3347 H 0.72947 0.72185 0.15048 0.0
H3348 H 0.72187 0.6959 0.12998 0.0
H3349 H 0.82449 0.76641 0.12499 0.0
H3350 H 0.80707 0.77672 0.14551 0.0
H3351 H 0.82163 0.75462 0.15224 0.0
H3352 H 0.76642 0.78549 0.20493 0.0
H3353 H 0.79618 0.72855 0.21915 0.0
H3354 H 0.7425 0.76319 0.1458 0.0
H3355 H 0.76896 0.78314 0.14641 0.0
H3356 H 0.74957 0.78863 0.16703 0.0
H3357 H 0.78083 0.69609 0.16463 0.0
H3358 H 0.80289 0.70215 0.18954 0.0
H3359 H 0.80801 0.71358 0.16243 0.0
C3360 C 0.09094 0.04104 0.72087 0.0
C3361 C 0.11254 0.05496 0.72955 0.0
C3362 C 0.08143 0.03942 0.69703 0.0
C3363 C 0.0934 0.05254 0.68144 0.0
C3364 C 0.11506 0.06688 0.69026 0.0
C3365 C 0.12444 0.06766 0.71397 0.0
C3366 C 0.05863 0.02344 0.68843 0.0
C3367 C 0.12831 0.08161 0.67467 0.0
C3368 C 0.08143 0.0347 0.61458 0.0
C3369 C 0.06659 0.04865 0.60707 0.0
C3370 C 0.08974 0.03542 0.63856 0.0
C3371 C 0.08364 0.05087 0.65583 0.0
C3372 C 0.06859 0.06495 0.64844 0.0
C3373 C 0.06001 0.0634 0.62433 0.0
C3374 C 0.10513 0.01956 0.64541 0.0
C3375 C 0.06194 0.08209 0.66594 0.0
H3376 H 0.08158 0.03112 0.73266 0.0
H3377 H 0.14102 0.07866 0.72045 0.0
H3378 H 0.04605 0.03312 0.68152 0.0
H3379 H 0.06051 0.01079 0.67371 0.0
H3380 H 0.05159 0.01413 0.70253 0.0
H3381 H 0.14435 0.09267 0.68438 0.0
H3382 H 0.1328 0.07071 0.65992 0.0
H3383 H 0.11754 0.09259 0.66686 0.0
H3384 H 0.0865 0.02294 0.60164 0.0
H3385 H 0.04841 0.07403 0.61905 0.0
H3386 H 0.09807 0.00949 0.65895 0.0
H3387 H 0.12232 0.02963 0.65326 0.0
H3388 H 0.10718 1.00758 0.63015 0.0
H3389 H 0.0548 0.07363 0.68047 0.0
H3390 H 0.04911 0.09084 0.65774 0.0
H3391 H 0.07741 0.09513 0.67386 0.0
C3392 C 0.80002 0.40217 0.40744 0.0
C3393 C 0.79424 0.3975 0.4296 0.0
C3394 C 0.79925 0.38447 0.38937 0.0
C3395 C 0.79198 0.3616 0.3934 0.0
C3396 C 0.78531 0.35675 0.41539 0.0
C3397 C 0.78671 0.37478 0.43333 0.0
C3398 C 0.80674 0.39022 0.36616 0.0
C3399 C 0.77699 0.33253 0.42005 0.0
C3400 C 0.77185 0.31913 0.3385 0.0
C3401 C 0.79147 0.31045 0.33582 0.0
C3402 C 0.77154 0.3354 0.35756 0.0
C3403 C 0.79129 0.34281 0.37443 0.0
C3404 C 0.81075 0.33309 0.37247 0.0
C3405 C 0.81046 0.31664 0.35324 0.0
C3406 C 0.75039 0.34517 0.35917 0.0
C3407 C 0.8322 0.34081 0.39003 0.0
H3408 H 0.80591 0.41965 0.4044 0.0
H3409 H 0.78208 0.37105 0.45036 0.0
H3410 H 0.82142 0.38234 0.36258 0.0
H3411 H 0.79264 0.38308 0.3516 0.0
H3412 H 0.81194 0.4089 0.36589 0.0
H3413 H 0.77169 0.33172 0.43785 0.0
H3414 H 0.76223 0.32383 0.40674 0.0
H3415 H 0.79076 0.32286 0.4184 0.0
H3416 H 0.75685 0.31346 0.32539 0.0
H3417 H 0.82543 0.30947 0.3512 0.0
H3418 H 0.75439 0.36352 0.35696 0.0
H3419 H 0.74478 0.34396 0.37678 0.0
H3420 H 0.73595 0.33633 0.34552 0.0
H3421 H 0.83975 0.35899 0.38911 0.0
H3422 H 0.84529 0.3306 0.38672 0.0
H3423 H 0.82803 0.33957 0.40817 0.0
C3424 C 0.40111 0.01656 0.24112 0.0
C3425 C 0.41609 0.02509 0.26196 0.0
C3426 C 0.40963 0.01256 0.21968 0.0
C3427 C 0.43361 0.01688 0.21928 0.0
C3428 C 0.44871 0.02664 0.24003 0.0
C3429 C 0.43974 0.03078 0.26107 0.0
C3430 C 0.39304 1.00264 0.19774 0.0
C3431 C 0.47442 0.0313 0.2404 0.0
C3432 C 0.46032 0.98011 0.1782 0.0
C3433 C 0.46899 0.9955 0.16318 0.0
C3434 C 0.44769 0.98652 0.1958 0.0
C3435 C 0.44324 0.00876 0.19815 0.0
C3436 C 0.45047 0.02385 0.18197 0.0
C3437 C 0.46346 0.0171 0.16473 0.0
C3438 C 0.44039 0.96993 0.21278 0.0
C3439 C 0.44561 0.04753 0.18366 0.0
H3440 H 0.38279 0.01233 0.24168 0.0
H3441 H 0.45142 0.03751 0.27708 0.0
H3442 H 0.39791 0.01169 0.18269 0.0
H3443 H 0.39362 0.98447 0.19305 0.0
H3444 H 0.37514 1.00362 0.20015 0.0
H3445 H 0.48371 0.04032 0.2576 0.0
H3446 H 0.47999 0.01494 0.23679 0.0
H3447 H 0.47957 0.04176 0.22643 0.0
H3448 H 0.46402 0.96318 0.17665 0.0
H3449 H 0.47012 0.0291 0.15318 0.0
H3450 H 0.42183 0.96801 0.21401 0.0
H3451 H 0.44976 0.97663 0.23061 0.0
H3452 H 0.44386 0.95281 0.20755 0.0
H3453 H 0.42754 0.04704 0.18647 0.0
H3454 H 0.44894 0.05563 0.16762 0.0
H3455 H 0.45669 0.05843 0.19899 0.0
C3456 C 0.78473 0.70669 0.93622 0.0
C3457 C 0.77121 0.71324 0.95307 0.0
C3458 C 0.78749 0.71771 0.91606 0.0
C3459 C 0.77599 0.73558 0.912 0.0
C3460 C 0.76259 0.74261 0.92917 0.0
C3461 C 0.76056 0.73156 0.94959 0.0
C3462 C 0.80244 0.70985 0.89883 0.0
C3463 C 0.74971 0.76128 0.92552 0.0
C3464 C 0.79734 0.77472 0.86702 0.0
C3465 C 0.78269 0.76491 0.84619 0.0
C3466 C 0.79515 0.7657 0.88849 0.0
C3467 C 0.77769 0.74632 0.88953 0.0
C3468 C 0.7628 0.73631 0.86859 0.0
C3469 C 0.76568 0.74546 0.84725 0.0
C3470 C 0.81194 0.77666 0.90998 0.0
C3471 C 0.74381 0.71578 0.86866 0.0
H3472 H 0.7931 0.6926 0.93873 0.0
H3473 H 0.74983 0.73657 0.96228 0.0
H3474 H 0.79182 0.70237 0.8818 0.0
H3475 H 0.8154 0.72457 0.89539 0.0
H3476 H 0.81147 0.69687 0.90529 0.0
H3477 H 0.74055 0.76527 0.94064 0.0
H3478 H 0.76168 0.77703 0.9228 0.0
H3479 H 0.73702 0.75603 0.9094 0.0
H3480 H 0.81104 0.78915 0.86646 0.0
H3481 H 0.75439 0.73739 0.83144 0.0
H3482 H 0.82201 0.76426 0.91586 0.0
H3483 H 0.80264 0.7815 0.92466 0.0
H3484 H 0.82401 0.79212 0.90659 0.0
H3485 H 0.75123 0.70095 0.87258 0.0
H3486 H 0.73252 0.71108 0.85152 0.0
H3487 H 0.73319 0.71917 0.88268 0.0
C3488 C 0.84157 0.12976 0.05781 0.0
C3489 C 0.82407 0.12246 0.03883 0.0
C3490 C 0.86343 0.12509 0.05621 0.0
C3491 C 0.86747 0.11297 0.03518 0.0
C3492 C 0.85006 0.10666 0.01567 0.0
C3493 C 0.82868 0.11159 0.01775 0.0
C3494 C 0.88176 0.13223 0.07719 0.0
C3495 C 0.85361 0.09383 0.9928 0.0
C3496 C 0.92164 0.10736 0.01135 0.0
C3497 C 0.92173 0.08438 0.01332 0.0
C3498 C 0.90582 0.11817 0.0215 0.0
C3499 C 0.88922 0.10548 0.03322 0.0
C3500 C 0.89039 0.08296 0.03707 0.0
C3501 C 0.90658 0.07265 0.027 0.0
C3502 C 0.9053 0.14235 0.01734 0.0
C3503 C 0.87284 0.0688 0.04938 0.0
H3504 H 0.83794 0.13824 0.07408 0.0
H3505 H 0.81527 0.10642 1.00285 0.0
H3506 H 0.88391 0.11703 0.08573 0.0
H3507 H 0.89849 0.13963 0.0717 0.0
H3508 H 0.87733 0.14487 0.09042 0.0
H3509 H 0.83833 0.09074 0.97922 0.0
H3510 H 0.86841 0.1035 0.98561 0.0
H3511 H 0.85745 0.07707 0.99594 0.0
H3512 H 0.9331 0.11672 1.0009 0.0
H3513 H 0.90614 0.05483 0.02848 0.0
H3514 H 0.90065 0.15205 0.03288 0.0
H3515 H 0.89214 0.14208 1.00217 0.0
H3516 H 0.92209 0.15149 0.01328 0.0
H3517 H 0.86902 0.07908 0.065 0.0
H3518 H 0.87866 0.05363 0.05505 0.0
H3519 H 0.85663 0.06278 0.03715 0.0
C3520 C 0.37679 0.44778 0.05141 0.0
C3521 C 0.37335 0.42472 0.0422 0.0
C3522 C 0.39785 0.46303 0.05133 0.0
C3523 C 0.4163 0.45494 0.04248 0.0
C3524 C 0.41296 0.43153 0.0334 0.0
C3525 C 0.3916 0.41671 0.03348 0.0
C3526 C 0.40039 0.48783 0.06081 0.0
C3527 C 0.43191 0.42219 0.02337 0.0
C3528 C 0.46448 0.49864 0.02437 0.0
C3529 C 0.48158 0.50183 0.0436 0.0
C3530 C 0.44365 0.48301 0.02349 0.0
C3531 C 0.43905 0.47093 0.04281 0.0
C3532 C 0.45626 0.47436 0.06253 0.0
C3533 C 0.47744 0.48953 0.06256 0.0
C3534 C 0.42659 0.47985 1.00182 0.0
C3535 C 0.45239 0.46182 0.08348 0.0
H3536 H 0.36301 0.45387 0.05895 0.0
H3537 H 0.38911 0.39883 0.02659 0.0
H3538 H 0.41437 0.49278 0.07583 0.0
H3539 H 0.40523 0.49866 0.04701 0.0
H3540 H 0.38437 0.49152 0.06675 0.0
H3541 H 0.42698 0.40347 0.01788 0.0
H3542 H 0.43643 0.43064 0.00785 0.0
H3543 H 0.44753 0.426 0.03653 0.0
H3544 H 0.46772 0.50779 0.00947 0.0
H3545 H 0.49075 0.4918 0.07742 0.0
H3546 H 0.4143 0.49084 0.00529 0.0
H3547 H 0.41728 0.46184 0.99747 0.0
H3548 H 0.43481 0.48507 0.98634 0.0
H3549 H 0.4372 0.46579 0.09106 0.0
H3550 H 0.46741 0.46636 0.09744 0.0
H3551 H 0.44874 0.44314 0.07786 0.0
C3552 C 0.40268 0.57792 0.75528 0.0
C3553 C 0.41965 0.57649 0.7734 0.0
C3554 C 0.39396 0.59782 0.75427 0.0
C3555 C 0.40256 0.61687 0.77177 0.0
C3556 C 0.42043 0.6158 0.78958 0.0
C3557 C 0.42859 0.59551 0.79033 0.0
C3558 C 0.37472 0.59801 0.73518 0.0
C3559 C 0.43026 0.63576 0.80843 0.0
C3560 C 0.39269 0.67509 0.75907 0.0
C3561 C 0.3749 0.67811 0.77227 0.0
C3562 C 0.40179 0.65535 0.75878 0.0
C3563 C 0.39266 0.63777 0.77162 0.0
C3564 C 0.37417 0.64026 0.78434 0.0
C3565 C 0.36561 0.66041 0.78463 0.0
C3566 C 0.42144 0.65346 0.74497 0.0
C3567 C 0.36363 0.62174 0.79792 0.0
H3568 H 0.39537 0.56301 0.74251 0.0
H3569 H 0.4412 0.59414 0.80476 0.0
H3570 H 0.35906 0.59973 0.74319 0.0
H3571 H 0.37924 0.61289 0.72557 0.0
H3572 H 0.37063 0.58221 0.72233 0.0
H3573 H 0.44508 0.6328 0.82007 0.0
H3574 H 0.43586 0.65144 0.8003 0.0
H3575 H 0.41686 0.63894 0.81939 0.0
H3576 H 0.39965 0.68829 0.7489 0.0
H3577 H 0.35198 0.66249 0.79499 0.0
H3578 H 0.41661 0.63809 0.73159 0.0
H3579 H 0.43647 0.65143 0.75692 0.0
H3580 H 0.42664 0.66865 0.73592 0.0
H3581 H 0.35797 0.6053 0.78615 0.0
H3582 H 0.3487 0.62577 0.806 0.0
H3583 H 0.37661 0.61928 0.81208 0.0
C3584 C 0.19027 0.6047 0.5322 0.0
C3585 C 0.20925 0.60203 0.54695 0.0
C3586 C 0.169 0.59001 0.53146 0.0
C3587 C 0.16648 0.57313 0.54681 0.0
C3588 C 0.1859 0.56997 0.56127 0.0
C3589 C 0.20719 0.58453 0.56113 0.0
C3590 C 0.149 0.59349 0.51523 0.0
C3591 C 0.18393 0.55246 0.57814 0.0
C3592 C 0.10847 0.56499 0.56765 0.0
C3593 C 0.09719 0.54416 0.55467 0.0
C3594 C 0.13149 0.57389 0.56621 0.0
C3595 C 0.14313 0.56198 0.55068 0.0
C3596 C 0.13172 0.54065 0.5378 0.0
C3597 C 0.10885 0.53173 0.5403 0.0
C3598 C 0.14304 0.59646 0.58064 0.0
C3599 C 0.14312 0.52792 0.52041 0.0
H3600 H 0.19207 0.61838 0.52132 0.0
H3601 H 0.22202 0.58287 0.57281 0.0
H3602 H 0.13796 0.57681 0.50744 0.0
H3603 H 0.13861 0.60324 0.5254 0.0
H3604 H 0.15464 0.60316 0.5008 0.0
H3605 H 0.20097 0.54961 0.58514 0.0
H3606 H 0.17555 0.55843 0.59315 0.0
H3607 H 0.17311 0.53594 0.56952 0.0
H3608 H 0.09914 0.57444 0.57877 0.0
H3609 H 0.09973 0.51571 0.53013 0.0
H3610 H 0.14638 0.60978 0.56886 0.0
H3611 H 0.15979 0.59526 0.59005 0.0
H3612 H 0.13238 0.60208 0.59376 0.0
H3613 H 0.14619 0.538 0.50564 0.0
H3614 H 0.13251 0.51082 0.51312 0.0
H3615 H 0.15987 0.52579 0.52888 0.0
C3616 C 0.68405 0.98683 0.77286 0.0
C3617 C 0.70321 1.00433 0.77272 0.0
C3618 C 0.68681 0.96482 0.77638 0.0
C3619 C 0.70919 0.9605 0.77967 0.0
C3620 C 0.7283 0.97759 0.77713 0.0
C3621 C 0.72505 0.99933 0.77374 0.0
C3622 C 0.66606 0.94687 0.77869 0.0
C3623 C 0.75246 0.97365 0.7803 0.0
C3624 C 0.72679 0.92381 0.82403 0.0
C3625 C 0.73103 0.90541 0.80949 0.0
C3626 C 0.71796 0.94108 0.81446 0.0
C3627 C 0.71334 0.93992 0.78971 0.0
C3628 C 0.71608 0.92064 0.77496 0.0
C3629 C 0.72493 0.90354 0.78506 0.0
C3630 C 0.71534 0.96145 0.83081 0.0
C3631 C 0.71115 0.9188 0.74853 0.0
H3632 H 0.66712 0.99069 0.77197 0.0
H3633 H 0.73985 0.0128 0.77321 0.0
H3634 H 0.66728 0.92993 0.76995 0.0
H3635 H 0.66513 0.94542 0.79759 0.0
H3636 H 0.64993 0.95122 0.77105 0.0
H3637 H 0.76497 0.9877 0.7749 0.0
H3638 H 0.75766 0.97241 0.79909 0.0
H3639 H 0.75343 0.95738 0.76993 0.0
H3640 H 0.73168 0.92548 0.84289 0.0
H3641 H 0.72782 0.88909 0.77379 0.0
H3642 H 0.69827 0.96547 0.8264 0.0
H3643 H 0.72847 0.9766 0.82869 0.0
H3644 H 0.71738 0.9586 0.84957 0.0
H3645 H 0.69479 0.92394 0.74323 0.0
H3646 H 0.71024 0.90122 0.73988 0.0
H3647 H 0.72495 0.93056 0.7419 0.0
C3648 C 0.74199 0.90936 0.55826 0.0
C3649 C 0.75059 0.90863 0.53663 0.0
C3650 C 0.72427 0.92104 0.56212 0.0
C3651 C 0.71568 0.93271 0.54419 0.0
C3652 C 0.72281 0.92997 0.52167 0.0
C3653 C 0.73974 0.91754 0.51807 0.0
C3654 C 0.71613 0.9224 0.58594 0.0
C3655 C 0.71459 0.94233 0.50205 0.0
C3656 C 0.66709 0.96456 0.54246 0.0
C3657 C 0.67908 0.98721 0.5497 0.0
C3658 C 0.67835 0.94621 0.54282 0.0
C3659 C 0.70235 0.95062 0.54954 0.0
C3660 C 0.71432 0.97323 0.55803 0.0
C3661 C 0.70245 0.99105 0.55858 0.0
C3662 C 0.66468 0.92228 0.53475 0.0
C3663 C 0.74001 0.97894 0.56495 0.0
H3664 H 0.75025 0.90251 0.57268 0.0
H3665 H 0.74615 0.91672 0.5012 0.0
H3666 H 0.72557 0.93843 0.59693 0.0
H3667 H 0.69757 0.92252 0.58436 0.0
H3668 H 0.71927 0.90788 0.59522 0.0
H3669 H 0.72104 0.93754 0.48529 0.0
H3670 H 0.69562 0.93864 0.49886 0.0
H3671 H 0.72055 0.96103 0.50718 0.0
H3672 H 0.64907 0.96106 0.53552 0.0
H3673 H 0.71181 0.00821 0.56524 0.0
H3674 H 0.67147 0.90978 0.54476 0.0
H3675 H 0.66581 0.91754 0.51587 0.0
H3676 H 0.64629 0.92089 0.53678 0.0
H3677 H 0.74494 0.96874 0.57876 0.0
H3678 H 0.74666 0.9973 0.57163 0.0
H3679 H 0.74859 0.97455 0.54951 0.0
C3680 C 0.38172 0.45079 0.76478 0.0
C3681 C 0.40452 0.45558 0.77562 0.0
C3682 C 0.36698 0.42946 0.76501 0.0
C3683 C 0.37536 0.41206 0.77564 0.0
C3684 C 0.39853 0.41675 0.78631 0.0
C3685 C 0.4128 0.43835 0.78608 0.0
C3686 C 0.34241 0.42552 0.75375 0.0
C3687 C 0.40825 0.3989 0.79801 0.0
C3688 C 0.3312 0.36374 0.79308 0.0
C3689 C 0.32941 0.34616 0.77462 0.0
C3690 C 0.34666 0.38471 0.79408 0.0
C3691 C 0.35991 0.38901 0.77551 0.0
C3692 C 0.35806 0.37127 0.75666 0.0
C3693 C 0.34313 0.34995 0.75663 0.0
C3694 C 0.34836 0.40223 0.81505 0.0
C3695 C 0.37192 0.37477 0.73656 0.0
H3696 H 0.37548 0.46366 0.75578 0.0
H3697 H 0.43051 0.44181 0.79415 0.0
H3698 H 0.33877 0.41096 0.73942 0.0
H3699 H 0.33074 0.42097 0.76695 0.0
H3700 H 0.33843 0.44076 0.74637 0.0
H3701 H 0.42657 0.4051 0.80545 0.0
H3702 H 0.39833 0.39371 0.8124 0.0
H3703 H 0.40666 0.38345 0.78513 0.0
H3704 H 0.32101 0.36085 0.80731 0.0
H3705 H 0.34198 0.33635 0.74237 0.0
H3706 H 0.33726 0.41403 0.81025 0.0
H3707 H 0.36621 0.41199 0.82022 0.0
H3708 H 0.34231 0.39444 0.83046 0.0
H3709 H 0.36761 0.38906 0.72762 0.0
H3710 H 0.3688 0.35927 0.72339 0.0
H3711 H 0.39046 0.37955 0.74337 0.0
C3712 C 0.20485 0.6393 0.28254 0.0
C3713 C 0.21316 0.62147 0.27139 0.0
C3714 C 0.21621 0.66203 0.28305 0.0
C3715 C 0.23657 0.6668 0.27254 0.0
C3716 C 0.24517 0.64872 0.26158 0.0
C3717 C 0.23297 0.62627 0.26059 0.0
C3718 C 0.2065 0.68071 0.29507 0.0
C3719 C 0.26707 0.65312 0.2506 0.0
C3720 C 0.2582 0.72317 0.25097 0.0
C3721 C 0.2757 0.73344 0.26913 0.0
C3722 C 0.24448 0.70179 0.25238 0.0
C3723 C 0.24874 0.69062 0.27229 0.0
C3724 C 0.26597 0.70153 0.29095 0.0
C3725 C 0.27966 0.72258 0.28882 0.0
C3726 C 0.22555 0.69111 0.23262 0.0
C3727 C 0.2707 0.69097 0.31292 0.0
H3728 H 0.18923 0.63547 0.29052 0.0
H3729 H 0.23865 0.61249 0.25092 0.0
H3730 H 0.21567 0.68574 0.31318 0.0
H3731 H 0.20877 0.69601 0.28577 0.0
H3732 H 0.18799 0.67491 0.29638 0.0
H3733 H 0.27175 0.63709 0.24342 0.0
H3734 H 0.26526 0.6636 0.23612 0.0
H3735 H 0.28135 0.66292 0.26392 0.0
H3736 H 0.25525 0.7319 0.2358 0.0
H3737 H 0.29357 0.73048 0.30261 0.0
H3738 H 0.20914 0.68602 0.23979 0.0
H3739 H 0.22945 0.67542 0.22359 0.0
H3740 H 0.22324 0.70286 0.21941 0.0
H3741 H 0.25497 0.68033 0.31754 0.0
H3742 H 0.27836 0.70417 0.32816 0.0
H3743 H 0.28322 0.68016 0.30986 0.0
C3744 C 0.52968 0.71014 0.49242 0.0
C3745 C 0.51306 0.71092 0.47333 0.0
C3746 C 0.53339 0.68911 0.50006 0.0
C3747 C 0.51965 0.66758 0.48928 0.0
C3748 C 0.50263 0.66836 0.4702 0.0
C3749 C 0.49986 0.68956 0.46237 0.0
C3750 C 0.5525 0.68999 0.51961 0.0
C3751 C 0.48644 0.64674 0.45847 0.0
C3752 C 0.53875 0.60919 0.49387 0.0
C3753 C 0.5294 0.60119 0.51361 0.0
C3754 C 0.53636 0.63061 0.48639 0.0
C3755 C 0.52306 0.64456 0.49781 0.0
C3756 C 0.513 0.63614 0.51738 0.0
C3757 C 0.51669 0.6152 0.52524 0.0
C3758 C 0.54849 0.63844 0.46623 0.0
C3759 C 0.49799 0.64917 0.53008 0.0
H3760 H 0.54033 0.72612 0.50118 0.0
H3761 H 0.48681 0.68939 0.44779 0.0
H3762 H 0.54521 0.68478 0.53552 0.0
H3763 H 0.56332 0.67784 0.51444 0.0
H3764 H 0.56355 0.70735 0.52426 0.0
H3765 H 0.4764 0.64932 0.44202 0.0
H3766 H 0.49577 0.63299 0.45437 0.0
H3767 H 0.47433 0.64085 0.47081 0.0
H3768 H 0.54851 0.59884 0.48443 0.0
H3769 H 0.50895 0.60944 0.54025 0.0
H3770 H 0.55909 0.65592 0.47151 0.0
H3771 H 0.53574 0.63919 0.45108 0.0
H3772 H 0.5597 0.62693 0.46039 0.0
H3773 H 0.5088 0.6645 0.54113 0.0
H3774 H 0.48798 0.63872 0.54167 0.0
H3775 H 0.48596 0.65504 0.51732 0.0
C3776 C 0.64659 0.31916 0.67774 0.0
C3777 C 0.64195 0.30894 0.65411 0.0
C3778 C 0.66648 0.3176 0.69258 0.0
C3779 C 0.68231 0.30518 0.68396 0.0
C3780 C 0.67792 0.29514 0.66001 0.0
C3781 C 0.65803 0.29725 0.64544 0.0
C3782 C 0.67029 0.32887 0.71775 0.0
C3783 C 0.69389 0.28143 0.64993 0.0
C3784 C 0.74326 0.31446 0.71808 0.0
C3785 C 0.74126 0.29645 0.73186 0.0
C3786 C 0.72443 0.31749 0.70252 0.0
C3787 C 0.70286 0.30201 0.7002 0.0
C3788 C 0.70087 0.28361 0.71381 0.0
C3789 C 0.71986 0.28115 0.7294 0.0
C3790 C 0.72754 0.33752 0.68877 0.0
C3791 C 0.67854 0.26642 0.71196 0.0
H3792 H 0.63439 0.32815 0.68484 0.0
H3793 H 0.65466 0.28899 0.62741 0.0
H3794 H 0.6696 0.31571 0.72984 0.0
H3795 H 0.68757 0.34023 0.72178 0.0
H3796 H 0.65728 0.33907 0.72148 0.0
H3797 H 0.6887 0.27536 0.63087 0.0
H3798 H 0.71163 0.29182 0.6525 0.0
H3799 H 0.69419 0.2664 0.65939 0.0
H3800 H 0.75953 0.3265 0.7197 0.0
H3801 H 0.71789 0.26702 0.73965 0.0
H3802 H 0.71553 0.34859 0.69337 0.0
H3803 H 0.72335 0.33145 0.66965 0.0
H3804 H 0.74531 0.34794 0.69225 0.0
H3805 H 0.66498 0.27506 0.71758 0.0
H3806 H 0.67989 0.2526 0.72295 0.0
H3807 H 0.67294 0.25865 0.69339 0.0
C3808 C 0.02015 0.35394 0.98902 0.0
C3809 C 0.01577 0.3476 0.96441 0.0
C3810 C 0.02275 0.37721 0.99944 0.0
C3811 C 0.02044 0.39488 0.98523 0.0
C3812 C 0.01549 0.38838 0.96059 0.0
C3813 C 0.01368 0.36546 0.95073 0.0
C3814 C 0.02838 0.38299 0.02576 0.0
C3815 C 0.01219 0.4058 0.94428 0.0
C3816 C 1.00822 0.45378 0.00903 0.0
C3817 C 0.02925 0.46919 0.00913 0.0
C3818 C 1.00521 0.42981 1.00204 0.0
C3819 C 0.02383 0.42022 0.99544 0.0
C3820 C 0.04532 0.43555 0.99637 0.0
C3821 C 0.04768 0.45945 1.00287 0.0
C3822 C 0.98173 0.41485 1.00099 0.0
C3823 C 0.06601 0.42673 0.99014 0.0
H3824 H 0.02201 0.34088 1.00014 0.0
H3825 H 1.01055 0.36168 0.93175 0.0
H3826 H 0.04495 0.39553 0.03019 0.0
H3827 H 0.0151 0.39113 0.0329 0.0
H3828 H 0.02956 0.36771 0.03458 0.0
H3829 H 1.00676 0.39794 0.92569 0.0
H3830 H 0.99906 0.41509 0.94985 0.0
H3831 H 0.02843 0.41857 0.94517 0.0
H3832 H 0.99395 0.46039 0.01443 0.0
H3833 H 0.06428 0.47055 1.00306 0.0
H3834 H 0.9828 0.39907 0.00889 0.0
H3835 H 0.97412 0.40964 0.98231 0.0
H3836 H 0.97005 0.42375 0.01019 0.0
H3837 H 0.06813 0.41224 0.99989 0.0
H3838 H 0.08203 0.44013 0.99417 0.0
H3839 H 0.06355 0.42027 0.97109 0.0
C3840 C 0.98892 0.78734 0.12495 0.0
C3841 C 0.01189 0.79224 0.13548 0.0
C3842 C 0.9707 0.78428 0.13852 0.0
C3843 C 0.97536 0.78601 0.16334 0.0
C3844 C 0.99846 0.79155 0.17418 0.0
C3845 C 0.01639 0.79465 0.16017 0.0
C3846 C 0.94639 0.77847 0.12616 0.0
C3847 C 1.00423 0.79344 0.20054 0.0
C3848 C 0.92503 0.79098 0.19762 0.0
C3849 C 0.91623 0.76806 0.19977 0.0
C3850 C 0.94474 0.79727 0.18651 0.0
C3851 C 0.95603 0.78027 0.17758 0.0
C3852 C 0.94783 0.75729 0.18087 0.0
C3853 C 0.92805 0.75149 0.19178 0.0
C3854 C 0.95284 0.82195 0.18337 0.0
C3855 C 0.9594 0.7386 0.17201 0.0
H3856 H 0.98508 0.78548 0.10596 0.0
H3857 H 0.03399 0.79839 0.16861 0.0
H3858 H 0.93798 0.76102 0.12892 0.0
H3859 H 0.93637 0.7904 0.1337 0.0
H3860 H 0.94557 0.77921 0.10694 0.0
H3861 H 0.02291 0.79943 0.20643 0.0
H3862 H 0.99501 0.80539 0.20942 0.0
H3863 H 0.99851 0.77655 0.20638 0.0
H3864 H 0.91591 0.80383 0.20366 0.0
H3865 H 0.92148 0.73378 0.19365 0.0
H3866 H 0.95016 0.82384 0.16441 0.0
H3867 H 0.97148 0.82765 0.18949 0.0
H3868 H 0.94357 0.83334 0.19309 0.0
H3869 H 0.95758 0.73661 0.15251 0.0
H3870 H 0.952 0.72193 0.17755 0.0
H3871 H 0.978 0.74316 0.17855 0.0
C3872 C 0.54802 0.32272 0.16573 0.0
C3873 C 0.52579 0.30913 0.16048 0.0
C3874 C 0.55433 0.34281 0.15525 0.0
C3875 C 0.53802 0.34963 0.13928 0.0
C3876 C 0.51527 0.33663 0.13502 0.0
C3877 C 0.5095 0.31666 0.14556 0.0
C3878 C 0.57877 0.35613 0.16034 0.0
C3879 C 0.49722 0.34314 0.11833 0.0
C3880 C 0.55191 0.40949 0.12035 0.0
C3881 C 0.56069 0.40505 0.09917 0.0
C3882 C 0.54414 0.39166 0.13349 0.0
C3883 C 0.54517 0.36888 0.12526 0.0
C3884 C 0.55311 0.36432 0.10335 0.0
C3885 C 0.56078 0.38238 0.09069 0.0
C3886 C 0.53566 0.39732 0.15661 0.0
C3887 C 0.55428 0.34039 0.09359 0.0
H3888 H 0.56078 0.31709 0.17709 0.0
H3889 H 0.49218 0.30651 0.1415 0.0
H3890 H 0.58719 0.35467 0.14421 0.0
H3891 H 0.57922 0.37449 0.16541 0.0
H3892 H 0.58886 0.34991 0.17462 0.0
H3893 H 0.47985 0.33264 0.11867 0.0
H3894 H 0.49677 0.36138 0.12276 0.0
H3895 H 0.50152 0.34086 0.10012 0.0
H3896 H 0.55219 0.42701 0.1272 0.0
H3897 H 0.56774 0.3789 0.07443 0.0
H3898 H 0.54755 0.39382 0.17121 0.0
H3899 H 0.51859 0.38634 0.1571 0.0
H3900 H 0.53435 0.41548 0.15979 0.0
H3901 H 0.56618 0.33376 0.10579 0.0
H3902 H 0.56023 0.33959 0.076 0.0
H3903 H 0.53717 0.32887 0.09208 0.0
C3904 C 0.97259 0.33 0.35993 0.0
C3905 C 0.98809 0.32091 0.34698 0.0
C3906 C 0.94901 0.32753 0.35104 0.0
C3907 C 0.93977 0.31515 0.32849 0.0
C3908 C 0.9554 0.30611 0.31515 0.0
C3909 C 0.97901 0.30889 0.32452 0.0
C3910 C 0.93375 0.3378 0.36622 0.0
C3911 C 0.94704 0.29289 0.29107 0.0
C3912 C 0.87423 0.28766 0.31713 0.0
C3913 C 0.86451 0.30267 0.30396 0.0
C3914 C 0.89824 0.29139 0.32487 0.0
C3915 C 0.91377 0.31074 0.31962 0.0
C3916 C 0.90407 0.32596 0.30634 0.0
C3917 C 0.87999 0.3217 0.29866 0.0
C3918 C 0.90703 0.27441 0.33881 0.0
C3919 C 0.91923 0.34682 0.29999 0.0
H3920 H 0.97894 0.33894 0.37745 0.0
H3921 H 0.99024 0.30096 0.31446 0.0
H3922 H 0.92472 0.34895 0.35636 0.0
H3923 H 0.92047 0.32403 0.3709 0.0
H3924 H 0.94349 0.34798 0.38271 0.0
H3925 H 0.96118 0.28775 0.28237 0.0
H3926 H 0.9341 0.27734 0.29247 0.0
H3927 H 0.93852 0.30333 0.27972 0.0
H3928 H 0.863 0.27274 0.3215 0.0
H3929 H 0.87336 0.33316 0.28798 0.0
H3930 H 0.91565 0.28305 0.35637 0.0
H3931 H 0.91999 0.26738 0.32974 0.0
H3932 H 0.89313 0.26004 0.34126 0.0
H3933 H 0.92927 0.35729 0.31614 0.0
H3934 H 0.90934 0.35756 0.29045 0.0
H3935 H 0.93156 0.34153 0.28869 0.0
C3936 C 0.02744 0.67234 0.67391 0.0
C3937 C 0.01676 0.68908 0.6652 0.0
C3938 C 0.02876 0.65228 0.65928 0.0
C3939 C 0.01898 0.64847 0.63523 0.0
C3940 C 1.00754 0.66498 0.62659 0.0
C3941 C 1.00669 0.68495 0.64151 0.0
C3942 C 0.0414 0.63552 0.6694 0.0
C3943 C 0.99672 0.66187 0.60127 0.0
C3944 C 0.04282 0.61087 0.58997 0.0
C3945 C 0.02655 0.5901 0.58636 0.0
C3946 C 0.04068 0.62967 0.60583 0.0
C3947 C 0.02177 0.62801 0.6188 0.0
C3948 C 1.00546 0.60694 0.61557 0.0
C3949 C 1.0081 0.58831 0.5996 0.0
C3950 C 0.05876 0.65143 0.60863 0.0
C3951 C 0.98496 0.60419 0.62876 0.0
H3952 H 0.03555 0.67528 0.69201 0.0
H3953 H 0.99846 0.69765 0.63438 0.0
H3954 H 0.03037 0.61812 0.66617 0.0
H3955 H 0.05677 0.63488 0.66049 0.0
H3956 H 0.04696 0.64014 0.68862 0.0
H3957 H 0.98716 0.67535 0.59754 0.0
H3958 H 1.01018 0.66224 0.5895 0.0
H3959 H 0.98478 0.64499 0.59682 0.0
H3960 H 0.05759 0.61243 0.58055 0.0
H3961 H 0.99544 0.57243 0.59718 0.0
H3962 H 0.06637 0.65616 0.62735 0.0
H3963 H 0.05085 0.66559 0.60345 0.0
H3964 H 0.07271 0.6499 0.5978 0.0
H3965 H 0.99066 0.60794 0.64798 0.0
H3966 H 0.97404 0.58672 0.62481 0.0
H3967 H 0.97441 0.61662 0.6241 0.0
C3968 C 0.62742 0.83803 0.82924 0.0
C3969 C 0.61354 0.8225 0.84127 0.0
C3970 C 0.64896 0.83466 0.82246 0.0
C3971 C 0.65739 0.81474 0.82676 0.0
C3972 C 0.64337 0.79888 0.8387 0.0
C3973 C 0.62222 0.80302 0.84595 0.0
C3974 C 0.66293 0.85274 0.8107 0.0
C3975 C 0.6506 0.77713 0.84362 0.0
C3976 C 0.70375 0.79719 0.78894 0.0
C3977 C 0.72471 0.80391 0.80421 0.0
C3978 C 0.68218 0.80012 0.796 0.0
C3979 C 0.68067 0.81067 0.81903 0.0
C3980 C 0.70177 0.81743 0.83455 0.0
C3981 C 0.72303 0.81393 0.82714 0.0
C3982 C 0.66076 0.79161 0.77862 0.0
C3983 C 0.70206 0.82887 0.85916 0.0
H3984 H 0.62151 0.85321 0.82525 0.0
H3985 H 0.6121 0.7905 0.85487 0.0
H3986 H 0.6803 0.85873 0.82083 0.0
H3987 H 0.66514 0.84545 0.79282 0.0
H3988 H 0.65484 0.86765 0.8092 0.0
H3989 H 0.63781 0.766 0.85218 0.0
H3990 H 0.65313 0.7675 0.82695 0.0
H3991 H 0.66726 0.78117 0.85522 0.0
H3992 H 0.70413 0.78952 0.77117 0.0
H3993 H 0.73853 0.81904 0.8396 0.0
H3994 H 0.65276 0.80609 0.77472 0.0
H3995 H 0.64811 0.77951 0.78635 0.0
H3996 H 0.66423 0.7829 0.76185 0.0
H3997 H 0.69974 0.84658 0.85835 0.0
H3998 H 0.71842 0.82949 0.87047 0.0
H3999 H 0.68776 0.81994 0.86759 0.0
C4000 C 0.45644 0.50538 0.68731 0.0
C4001 C 0.46786 0.51856 0.70842 0.0
C4002 C 0.46511 0.50765 0.66557 0.0
C4003 C 0.48535 0.52413 0.66443 0.0
C4004 C 0.49665 0.53782 0.68566 0.0
C4005 C 0.48806 0.53461 0.70728 0.0
C4006 C 0.45276 0.49206 0.64381 0.0
C4007 C 0.51778 0.55612 0.68552 0.0
C4008 C 0.52138 0.51829 0.61353 0.0
C4009 C 0.51344 0.53218 0.59783 0.0
C4010 C 0.51211 0.51514 0.63477 0.0
C4011 C 0.49488 0.52679 0.64125 0.0
C4012 C 0.487 0.54108 0.62555 0.0
C4013 C 0.49601 0.54325 0.60396 0.0
C4014 C 0.52066 0.49912 0.65022 0.0
C4015 C 0.4693 0.55448 0.63176 0.0
H4016 H 0.4409 0.49286 0.68786 0.0
H4017 H 0.49698 0.54508 0.72333 0.0
H4018 H 0.44673 0.50224 0.63048 0.0
H4019 H 0.46471 0.48256 0.63588 0.0
H4020 H 0.43777 0.47959 0.64761 0.0
H4021 H 0.5238 0.56631 0.70309 0.0
H4022 H 0.53184 0.54827 0.67987 0.0
H4023 H 0.5142 0.5678 0.67265 0.0
H4024 H 0.53468 0.50946 0.60896 0.0
H4025 H 0.48981 0.55414 0.59212 0.0
H4026 H 0.50602 0.48612 0.6538 0.0
H4027 H 0.52922 0.50871 0.66741 0.0
H4028 H 0.533 0.49023 0.6421 0.0
H4029 H 0.45314 0.54269 0.63376 0.0
H4030 H 0.46551 0.56547 0.61822 0.0
H4031 H 0.4754 0.56542 0.6489 0.0
C4032 C 0.75154 0.17801 0.98153 0.0
C4033 C 0.75547 0.15579 0.97883 0.0
C4034 C 0.74542 0.18835 0.96196 0.0
C4035 C 0.74359 0.17632 0.93919 0.0
C4036 C 0.74833 0.15423 0.93623 0.0
C4037 C 0.75411 0.14413 0.95616 0.0
C4038 C 0.74018 0.21186 0.96568 0.0
C4039 C 0.74686 0.14118 0.91206 0.0
C4040 C 0.70656 0.19475 0.89065 0.0
C4041 C 0.72305 0.20936 0.88083 0.0
C4042 C 0.71301 0.18355 0.90953 0.0
C4043 C 0.73651 0.18689 0.91848 0.0
C4044 C 0.75326 0.20125 0.90838 0.0
C4045 C 0.74629 0.21262 0.88997 0.0
C4046 C 0.69453 0.16892 0.92036 0.0
C4047 C 0.7785 0.20498 0.91733 0.0
H4048 H 0.75233 0.18704 0.99899 0.0
H4049 H 0.75719 0.12697 0.95398 0.0
H4050 H 0.75125 0.22372 0.95617 0.0
H4051 H 0.72213 0.2111 0.95836 0.0
H4052 H 0.74275 0.21903 0.98457 0.0
H4053 H 0.75007 0.12374 0.91281 0.0
H4054 H 0.72968 0.1398 0.90204 0.0
H4055 H 0.75962 0.15056 0.90209 0.0
H4056 H 0.68861 0.19203 0.88361 0.0
H4057 H 0.75915 0.22437 0.88296 0.0
H4058 H 0.69036 0.17925 0.93575 0.0
H4059 H 0.70022 0.15399 0.9267 0.0
H4060 H 0.67859 0.16278 0.90773 0.0
H4061 H 0.78193 0.21376 0.93566 0.0
H4062 H 0.78941 0.2154 0.90639 0.0
H4063 H 0.7837 0.18836 0.91759 0.0
C4064 C 0.1492 0.56036 0.17873 0.0
C4065 C 0.14109 0.55061 0.198 0.0
C4066 C 0.13455 0.55893 0.15776 0.0
C4067 C 0.11139 0.54739 0.15614 0.0
C4068 C 0.10327 0.53705 0.17534 0.0
C4069 C 0.11824 0.53886 0.19611 0.0
C4070 C 0.14365 0.57029 0.13761 0.0
C4071 C 0.07873 0.52429 0.17401 0.0
C4072 C 0.06677 0.56025 0.11095 0.0
C4073 C 0.06484 0.54202 0.0932 0.0
C4074 C 0.08224 0.56248 0.1315 0.0
C4075 C 0.09562 0.54584 0.13426 0.0
C4076 C 0.09342 0.52724 0.11645 0.0
C4077 C 0.07788 0.52548 0.09616 0.0
C4078 C 0.08432 0.58259 0.15018 0.0
C4079 C 0.10736 0.50915 0.11886 0.0
H4080 H 0.16683 0.56958 0.18023 0.0
H4081 H 0.11195 0.53122 0.21096 0.0
H4082 H 0.13948 0.5582 0.12107 0.0
H4083 H 0.13527 0.58476 0.13481 0.0
H4084 H 0.16249 0.57689 0.14097 0.0
H4085 H 0.07528 0.5169 0.19042 0.0
H4086 H 0.06692 0.53593 0.1707 0.0
H4087 H 0.07467 0.51027 0.15909 0.0
H4088 H 0.05651 0.57294 0.10854 0.0
H4089 H 0.07579 0.511 0.08264 0.0
H4090 H 0.10229 0.59244 0.15361 0.0
H4091 H 0.07989 0.57651 0.16692 0.0
H4092 H 0.07297 0.59422 0.14507 0.0
H4093 H 0.12592 0.51712 0.12176 0.0
H4094 H 0.10393 0.49609 0.10306 0.0
H4095 H 0.10346 0.5005 0.13442 0.0
C4096 C 0.81109 0.8407 0.46728 0.0
C4097 C 0.80546 0.86228 0.46925 0.0
C4098 C 0.81075 0.82811 0.44494 0.0
C4099 C 0.80456 0.8372 0.42399 0.0
C4100 C 0.79827 0.85865 0.42598 0.0
C4101 C 0.79876 0.87077 0.44834 0.0
C4102 C 0.81757 0.80532 0.44372 0.0
C4103 C 0.79148 0.86916 0.40438 0.0
C4104 C 0.82451 0.81944 0.36511 0.0
C4105 C 0.80473 0.80478 0.35259 0.0
C4106 C 0.82497 0.82934 0.38853 0.0
C4107 C 0.80506 0.82479 0.39992 0.0
C4108 C 0.78508 0.80984 0.38743 0.0
C4109 C 0.78519 0.8 0.36409 0.0
C4110 C 0.84667 0.84519 0.40088 0.0
C4111 C 0.76334 0.80463 0.39855 0.0
H4112 H 0.81643 0.83393 0.48313 0.0
H4113 H 0.79419 0.88731 0.44936 0.0
H4114 H 0.80383 0.792 0.43294 0.0
H4115 H 0.83321 0.80611 0.43496 0.0
H4116 H 0.821 0.80008 0.46142 0.0
H4117 H 0.78634 0.88564 0.40884 0.0
H4118 H 0.80603 0.87218 0.39398 0.0
H4119 H 0.777 0.85731 0.39293 0.0
H4120 H 0.83965 0.8235 0.35649 0.0
H4121 H 0.76979 0.78867 0.35476 0.0
H4122 H 0.85166 0.83986 0.41818 0.0
H4123 H 0.84369 0.86274 0.40428 0.0
H4124 H 0.86117 0.84561 0.39039 0.0
H4125 H 0.76682 0.79811 0.41554 0.0
H4126 H 0.74959 0.79186 0.38703 0.0
H4127 H 0.75696 0.8205 0.40239 0.0
C4128 C 0.48646 0.51952 0.84958 0.0
C4129 C 0.46405 0.52345 0.84682 0.0
C4130 C 0.49866 0.52004 0.87224 0.0
C4131 C 0.48837 0.52465 0.89282 0.0
C4132 C 0.46593 0.52889 0.89006 0.0
C4133 C 0.45421 0.52826 0.86738 0.0
C4134 C 0.5224 0.51515 0.87417 0.0
C4135 C 0.4539 0.5336 0.91115 0.0
C4136 C 0.50654 0.50699 0.95302 0.0
C4137 C 0.51909 0.52766 0.96563 0.0
C4138 C 0.49751 0.50544 0.92905 0.0
C4139 C 0.50074 0.52516 0.9173 0.0
C4140 C 0.51395 0.54597 0.92994 0.0
C4141 C 0.52292 0.54694 0.95383 0.0
C4142 C 0.48374 0.48282 0.91659 0.0
C4143 C 0.518 0.56746 0.91842 0.0
H4144 H 0.49432 0.51555 0.83405 0.0
H4145 H 0.43695 0.53127 0.86586 0.0
H4146 H 0.53477 0.52957 0.88511 0.0
H4147 H 0.52266 0.49979 0.8831 0.0
H4148 H 0.52828 0.51228 0.85671 0.0
H4149 H 0.43772 0.5393 0.90635 0.0
H4150 H 0.44979 0.51788 0.91958 0.0
H4151 H 0.46523 0.54685 0.92441 0.0
H4152 H 0.50298 0.49221 0.96215 0.0
H4153 H 0.53267 0.56296 0.96347 0.0
H4154 H 0.48929 0.479 0.89914 0.0
H4155 H 0.46538 0.48362 0.91352 0.0
H4156 H 0.48538 0.46859 0.92694 0.0
H4157 H 0.52646 0.5647 0.90252 0.0
H4158 H 0.52882 0.58221 0.93043 0.0
H4159 H 0.50134 0.57179 0.91258 0.0
C4160 C 0.77298 0.17858 0.13286 0.0
C4161 C 0.78076 0.18639 0.11253 0.0
C4162 C 0.77551 0.19357 0.15382 0.0
C4163 C 0.78618 0.2168 0.15439 0.0
C4164 C 0.7947 0.22458 0.13413 0.0
C4165 C 0.79183 0.20929 0.11343 0.0
C4166 C 0.7662 0.18473 0.17513 0.0
C4167 C 0.80642 0.24918 0.13416 0.0
C4168 C 0.77327 0.2614 0.19963 0.0
C4169 C 0.79241 0.26465 0.21674 0.0
C4170 C 0.77082 0.24555 0.17936 0.0
C4171 C 0.78818 0.23314 0.17605 0.0
C4172 C 0.80783 0.23688 0.19306 0.0
C4173 C 0.8098 0.25282 0.2131 0.0
C4174 C 0.74961 0.24198 0.16159 0.0
C4175 C 0.82677 0.22411 0.19007 0.0
H4176 H 0.76432 0.16091 0.13222 0.0
H4177 H 0.79796 0.21541 0.0978 0.0
H4178 H 0.77977 0.18884 0.19055 0.0
H4179 H 0.75222 0.19328 0.17969 0.0
H4180 H 0.75937 0.166 0.17217 0.0
H4181 H 0.81282 0.25228 0.11719 0.0
H4182 H 0.79428 0.26042 0.13763 0.0
H4183 H 0.82108 0.25423 0.14847 0.0
H4184 H 0.75996 0.27082 0.20241 0.0
H4185 H 0.82505 0.2561 0.22594 0.0
H4186 H 0.74049 0.22383 0.15924 0.0
H4187 H 0.75448 0.24594 0.14425 0.0
H4188 H 0.7376 0.2528 0.16696 0.0
H4189 H 0.81976 0.20546 0.18813 0.0
H4190 H 0.84069 0.2287 0.2052 0.0
H4191 H 0.83425 0.22782 0.17378 0.0
C4192 C 0.14862 0.55935 0.32938 0.0
C4193 C 0.17194 0.55862 0.33084 0.0
C4194 C 0.13834 0.56285 0.34969 0.0
C4195 C 0.15162 0.56535 0.37197 0.0
C4196 C 0.17456 0.56258 0.3736 0.0
C4197 C 0.18454 0.55943 0.35297 0.0
C4198 C 0.11378 0.56565 0.34723 0.0
C4199 C 0.18915 0.56466 0.39706 0.0
C4200 C 0.13603 0.60602 0.41889 0.0
C4201 C 0.12216 0.59108 0.4311 0.0
C4202 C 0.14576 0.59777 0.39967 0.0
C4203 C 0.14244 0.57396 0.39313 0.0
C4204 C 0.12936 0.55869 0.40592 0.0
C4205 C 0.11899 0.56742 0.42447 0.0
C4206 C 0.15879 0.61458 0.38572 0.0
C4207 C 0.12582 0.53317 0.3996 0.0
H4208 H 0.13862 0.55851 0.31237 0.0
H4209 H 0.20249 0.55861 0.35429 0.0
H4210 H 0.10384 0.55522 0.35883 0.0
H4211 H 0.11336 0.58375 0.35276 0.0
H4212 H 0.10512 0.56073 0.32885 0.0
H4213 H 0.20394 0.55631 0.39556 0.0
H4214 H 0.19599 0.58296 0.40358 0.0
H4215 H 0.17902 0.55707 0.41032 0.0
H4216 H 0.13912 0.62427 0.42414 0.0
H4217 H 0.10799 0.55563 0.43337 0.0
H4218 H 0.14951 0.61272 0.36767 0.0
H4219 H 0.17597 0.61097 0.38399 0.0
H4220 H 0.16082 0.63254 0.39382 0.0
H4221 H 0.11527 0.5278 0.38214 0.0
H4222 H 0.11711 0.52367 0.41271 0.0
H4223 H 0.14253 0.52826 0.39828 0.0
C4224 C 0.82134 0.87538 0.6291 0.0
C4225 C 0.80847 0.86341 0.60805 0.0
C4226 C 0.81873 0.86738 0.65109 0.0
C4227 C 0.80222 0.84728 0.6525 0.0
C4228 C 0.78882 0.83544 0.63133 0.0
C4229 C 0.79236 0.84338 0.60948 0.0
C4230 C 0.83402 0.88026 0.67283 0.0
C4231 C 0.77055 0.81438 0.63174 0.0
C4232 C 0.80795 0.8127 0.70444 0.0
C4233 C 0.79356 0.82058 0.71962 0.0
C4234 C 0.81127 0.82153 0.68304 0.0
C4235 C 0.79937 0.83831 0.6759 0.0
C4236 C 0.78465 0.84622 0.69112 0.0
C4237 C 0.78225 0.8376 0.71287 0.0
C4238 C 0.8277 0.81293 0.66811 0.0
C4239 C 0.77103 0.8635 0.68419 0.0
H4240 H 0.8339 0.8908 0.62831 0.0
H4241 H 0.78213 0.83405 0.59347 0.0
H4242 H 0.82351 0.8863 0.68583 0.0
H4243 H 0.84373 0.86873 0.68125 0.0
H4244 H 0.84641 0.8952 0.66886 0.0
H4245 H 0.7606 0.80788 0.61411 0.0
H4246 H 0.77849 0.80067 0.63808 0.0
H4247 H 0.75854 0.81817 0.6442 0.0
H4248 H 0.81704 0.79978 0.70952 0.0
H4249 H 0.77101 0.84376 0.72433 0.0
H4250 H 0.84064 0.8275 0.66432 0.0
H4251 H 0.81829 0.80395 0.651 0.0
H4252 H 0.83676 0.80102 0.67676 0.0
H4253 H 0.78278 0.87954 0.68187 0.0
H4254 H 0.75985 0.86748 0.69749 0.0
H4255 H 0.76018 0.85697 0.66705 0.0
C4256 C 0.74179 0.47849 0.49116 0.0
C4257 C 0.74626 0.45689 0.49379 0.0
C4258 C 0.72358 0.48564 0.50081 0.0
C4259 C 0.70917 0.47055 0.51272 0.0
C4260 C 0.7124 0.44805 0.51364 0.0
C4261 C 0.73109 0.44155 0.50436 0.0
C4262 C 0.72091 0.50991 0.49985 0.0
C4263 C 0.69698 0.43131 0.52569 0.0
C4264 C 0.68298 0.49552 0.56346 0.0
C4265 C 0.66082 0.49496 0.55279 0.0
C4266 C 0.69899 0.4879 0.55044 0.0
C4267 C 0.69236 0.47901 0.52638 0.0
C4268 C 0.66985 0.47817 0.5156 0.0
C4269 C 0.65435 0.48645 0.52893 0.0
C4270 C 0.72304 0.48956 0.56239 0.0
C4271 C 0.66213 0.46838 0.49013 0.0
H4272 H 0.7534 0.49041 0.48293 0.0
H4273 H 0.7343 0.42472 0.50617 0.0
H4274 H 0.70289 0.51033 0.49366 0.0
H4275 H 0.72533 0.51958 0.5178 0.0
H4276 H 0.73216 0.51877 0.48811 0.0
H4277 H 0.69989 0.41372 0.52214 0.0
H4278 H 0.70023 0.43665 0.54498 0.0
H4279 H 0.67871 0.4311 0.51985 0.0
H4280 H 0.68788 0.50237 0.58188 0.0
H4281 H 0.63709 0.48607 0.52084 0.0
H4282 H 0.73564 0.49954 0.5527 0.0
H4283 H 0.72681 0.47228 0.56218 0.0
H4284 H 0.72563 0.49779 0.58094 0.0
H4285 H 0.6732 0.47783 0.47867 0.0
H4286 H 0.64404 0.46907 0.4844 0.0
H4287 H 0.66388 0.45035 0.48738 0.0
C4288 C 0.18456 0.157 0.50725 0.0
C4289 C 0.20612 0.15152 0.51128 0.0
C4290 C 0.16452 0.1417 0.5107 0.0
C4291 C 0.16603 0.12016 0.51781 0.0
C4292 C 0.18784 0.1147 0.52203 0.0
C4293 C 0.20755 0.13069 0.5194 0.0
C4294 C 0.1418 0.14872 0.50698 0.0
C4295 C 0.19042 0.092 0.52945 0.0
C4296 C 0.11986 0.0841 0.54686 0.0
C4297 C 0.10485 0.07208 0.5273 0.0
C4298 C 0.13942 0.10031 0.54409 0.0
C4299 C 0.14493 0.1034 0.52111 0.0
C4300 C 0.13015 0.09027 0.50135 0.0
C4301 C 0.11007 0.07523 0.50472 0.0
C4302 C 0.15335 0.11442 0.56604 0.0
C4303 C 0.13471 0.09206 0.47636 0.0
H4304 H 0.1834 0.17338 0.5017 0.0
H4305 H 0.22424 0.12695 0.52406 0.0
H4306 H 0.13181 0.13932 0.4903 0.0
H4307 H 0.13165 0.14441 0.52148 0.0
H4308 H 0.14395 0.16729 0.50592 0.0
H4309 H 0.20835 0.08973 0.53031 0.0
H4310 H 0.18513 0.09057 0.54711 0.0
H4311 H 0.17913 0.07789 0.51701 0.0
H4312 H 0.11549 0.08199 0.56436 0.0
H4313 H 0.09825 0.06605 0.48959 0.0
H4314 H 0.16539 0.12974 0.56245 0.0
H4315 H 0.1632 0.10367 0.57555 0.0
H4316 H 0.1418 0.12005 0.57815 0.0
H4317 H 0.12123 0.09935 0.46711 0.0
H4318 H 0.13356 0.07476 0.46689 0.0
H4319 H 0.15162 0.10274 0.47512 0.0
C4320 C 0.16106 0.99036 0.78095 0.0
C4321 C 0.16635 1.00268 0.80361 0.0
C4322 C 0.16922 0.97034 0.77546 0.0
C4323 C 0.18273 0.96229 0.7931 0.0
C4324 C 0.18727 0.97413 0.81621 0.0
C4325 C 0.17911 0.99415 0.82114 0.0
C4326 C 0.16413 0.95828 0.75056 0.0
C4327 C 0.20137 0.96607 0.83562 0.0
C4328 C 0.18913 0.90057 0.78296 0.0
C4329 C 0.21071 0.90286 0.77516 0.0
C4330 C 0.17996 0.91974 0.78911 0.0
C4331 C 0.19258 0.9418 0.78731 0.0
C4332 C 0.21464 0.94428 0.77999 0.0
C4333 C 0.22348 0.92479 0.77412 0.0
C4334 C 0.1566 0.91633 0.79723 0.0
C4335 C 0.22867 0.96749 0.77782 0.0
H4336 H 0.15149 0.99694 0.76722 0.0
H4337 H 0.18326 1.00349 0.83873 0.0
H4338 H 0.18038 0.95876 0.74294 0.0
H4339 H 0.15596 0.94008 0.7504 0.0
H4340 H 0.15268 0.96616 0.73909 0.0
H4341 H 0.20223 0.97642 0.85295 0.0
H4342 H 0.19407 0.94796 0.8371 0.0
H4343 H 0.21908 0.96703 0.83137 0.0
H4344 H 0.17929 0.88367 0.78405 0.0
H4345 H 0.24005 0.92666 0.76788 0.0
H4346 H 0.14464 0.92276 0.7849 0.0
H4347 H 0.15767 0.9263 0.81479 0.0
H4348 H 0.14927 0.89812 0.79832 0.0
H4349 H 0.21925 0.97567 0.76473 0.0
H4350 H 0.24565 0.96657 0.7723 0.0
H4351 H 0.2314 0.97871 0.79487 0.0
C4352 C 0.37114 0.95323 0.98438 0.0
C4353 C 0.35457 0.9612 0.99614 0.0
C4354 C 0.39353 0.96625 0.98679 0.0
C4355 C 0.39949 0.98708 1.00214 0.0
C4356 C 0.3825 0.99552 0.01337 0.0
C4357 C 0.36016 0.98239 0.01023 0.0
C4358 C 0.41101 0.95735 0.97361 0.0
C4359 C 0.38819 0.01772 0.02971 0.0
C4360 C 0.46081 1.00169 0.03167 0.0
C4361 C 0.47057 0.01941 0.01981 0.0
C4362 C 0.43748 0.99156 0.02659 0.0
C4363 C 0.42386 0.99869 0.0084 0.0
C4364 C 0.43373 0.01644 0.99616 0.0
C4365 C 0.45683 0.02696 1.00242 0.0
C4366 C 0.4275 0.97304 0.0405 0.0
C4367 C 0.42017 0.02445 0.97642 0.0
H4368 H 0.36663 0.93673 0.97358 0.0
H4369 H 0.34728 0.9882 0.01967 0.0
H4370 H 0.42033 0.97095 0.96456 0.0
H4371 H 0.42383 0.95231 0.98618 0.0
H4372 H 0.40302 0.94234 0.96035 0.0
H4373 H 0.37275 0.02229 0.03627 0.0
H4374 H 0.40057 0.01646 0.04502 0.0
H4375 H 0.39646 0.03175 0.02054 0.0
H4376 H 0.47143 0.99565 0.04482 0.0
H4377 H 0.46427 0.04051 0.99293 0.0
H4378 H 0.42164 0.95662 0.02874 0.0
H4379 H 0.41233 0.97722 0.04795 0.0
H4380 H 0.44009 0.97068 0.05513 0.0
H4381 H 0.43143 0.03264 0.96429 0.0
H4382 H 0.41128 0.03736 0.98406 0.0
H4383 H 0.40722 0.01017 0.96609 0.0
C4384 C 0.85235 0.58962 0.81895 0.0
C4385 C 0.87314 0.5834 0.81534 0.0
C4386 C 0.84637 0.6085 0.80985 0.0
C4387 C 0.86181 0.62183 0.79738 0.0
C4388 C 0.88339 0.61649 0.79485 0.0
C4389 C 0.88872 0.59713 0.80366 0.0
C4390 C 0.82299 0.6134 0.81248 0.0
C4391 C 0.90046 0.63072 0.7821 0.0
C4392 C 0.83562 0.65237 0.75113 0.0
C4393 C 0.838 0.67411 0.76349 0.0
C4394 C 0.84353 0.63521 0.76194 0.0
C4395 C 0.85455 0.64024 0.78545 0.0
C4396 C 0.85756 0.66243 0.79779 0.0
C4397 C 0.84893 0.67911 0.7867 0.0
C4398 C 0.83948 0.61155 0.74847 0.0
C4399 C 0.86959 0.66841 0.82272 0.0
H4400 H 0.84019 0.5791 0.82795 0.0
H4401 H 0.9049 0.59253 0.80101 0.0
H4402 H 0.82461 0.63131 0.82042 0.0
H4403 H 0.81272 0.61124 0.79488 0.0
H4404 H 0.81341 0.60193 0.82355 0.0
H4405 H 0.91734 0.62574 0.78384 0.0
H4406 H 0.89375 0.62873 0.76314 0.0
H4407 H 0.90299 0.64906 0.789 0.0
H4408 H 0.82693 0.64865 0.73322 0.0
H4409 H 0.85071 0.69606 0.7961 0.0
H4410 H 0.82886 0.59914 0.75784 0.0
H4411 H 0.85601 0.60622 0.74744 0.0
H4412 H 0.83066 0.61055 0.73031 0.0
H4413 H 0.85965 0.65831 0.83458 0.0
H4414 H 0.8718 0.68682 0.82927 0.0
H4415 H 0.88671 0.66398 0.8238 0.0
C4416 C 0.84117 0.66867 1.00231 0.0
C4417 C 0.8258 0.66676 0.01895 0.0
C4418 C 0.85936 0.65714 1.00335 0.0
C4419 C 0.86155 0.64266 0.02086 0.0
C4420 C 0.84699 0.64203 0.03866 0.0
C4421 C 0.82942 0.65431 0.0376 0.0
C4422 C 0.87489 0.65887 0.98446 0.0
C4423 C 0.84829 0.62644 0.05732 0.0
C4424 C 0.87963 0.58719 1.00284 0.0
C4425 C 0.90142 0.59042 0.01592 0.0
C4426 C 0.86671 0.60414 1.00417 0.0
C4427 C 0.87606 0.62536 0.01825 0.0
C4428 C 0.89859 0.62936 0.03037 0.0
C4429 C 0.9109 0.61176 0.02931 0.0
C4430 C 0.84267 0.59895 0.99108 0.0
C4431 C 0.90942 0.65197 0.04501 0.0
H4432 H 0.83807 0.67796 0.98762 0.0
H4433 H 0.81711 0.65236 0.05007 0.0
H4434 H 0.89293 0.65998 0.99205 0.0
H4435 H 0.86972 0.64334 0.9713 0.0
H4436 H 0.874 0.67395 0.97519 0.0
H4437 H 0.8378 0.62999 0.07145 0.0
H4438 H 0.84191 0.60846 0.04912 0.0
H4439 H 0.86626 0.62813 0.06538 0.0
H4440 H 0.87237 0.57111 0.99183 0.0
H4441 H 0.92764 0.61452 0.03961 0.0
H4442 H 0.84106 0.61139 0.9785 0.0
H4443 H 0.83019 0.60061 1.00367 0.0
H4444 H 0.83785 0.58149 0.98116 0.0
H4445 H 0.90722 0.66624 0.03494 0.0
H4446 H 0.92799 0.65347 0.05069 0.0
H4447 H 0.90078 0.65394 0.06091 0.0
C4448 C 0.1731 0.14299 0.80922 0.0
C4449 C 0.17862 0.12149 0.80546 0.0
C4450 C 0.18839 0.16292 0.80548 0.0
C4451 C 0.21004 0.16147 0.79836 0.0
C4452 C 0.21551 0.13971 0.79435 0.0
C4453 C 0.19952 0.12008 0.79727 0.0
C4454 C 0.18118 0.18549 0.80895 0.0
C4455 C 0.23825 0.13707 0.78682 0.0
C4456 C 0.24747 0.20683 0.76925 0.0
C4457 C 0.25922 0.22212 0.78872 0.0
C4458 C 0.23071 0.18768 0.77202 0.0
C4459 C 0.22696 0.18253 0.795 0.0
C4460 C 0.23983 0.19755 0.81474 0.0
C4461 C 0.25524 0.21738 0.81131 0.0
C4462 C 0.21671 0.17384 0.74998 0.0
C4463 C 0.23755 0.1934 0.83977 0.0
H4464 H 0.15667 0.14418 0.81481 0.0
H4465 H 0.2033 0.10346 0.79276 0.0
H4466 H 0.18977 0.19511 0.82611 0.0
H4467 H 0.18629 0.19596 0.79494 0.0
H4468 H 0.16237 0.1832 0.80898 0.0
H4469 H 0.24062 0.11926 0.78628 0.0
H4470 H 0.23943 0.14197 0.76897 0.0
H4471 H 0.25251 0.14853 0.79897 0.0
H4472 H 0.25032 0.2106 0.75171 0.0
H4473 H 0.26433 0.22921 0.82645 0.0
H4474 H 0.20192 0.16098 0.75341 0.0
H4475 H 0.22793 0.16509 0.73988 0.0
H4476 H 0.21015 0.18542 0.7385 0.0
H4477 H 0.22971 0.20673 0.84841 0.0
H4478 H 0.2548 0.19505 0.84977 0.0
H4479 H 0.22705 0.17648 0.84118 0.0
C4480 C 0.34079 0.96183 0.31599 0.0
C4481 C 0.36204 0.9676 0.33018 0.0
C4482 C 0.32767 0.93955 0.31302 0.0
C4483 C 0.33618 0.92278 0.32449 0.0
C4484 C 0.35708 0.92892 0.33992 0.0
C4485 C 0.37008 0.95125 0.34218 0.0
C4486 C 0.30547 0.93368 0.29648 0.0
C4487 C 0.36616 0.91165 0.35321 0.0
C4488 C 0.29741 0.86421 0.32132 0.0
C4489 C 0.30604 0.85173 0.30382 0.0
C4490 C 0.30725 0.88731 0.32869 0.0
C4491 C 0.32531 0.89837 0.3174 0.0
C4492 C 0.33344 0.88595 0.29911 0.0
C4493 C 0.32403 0.8627 0.29302 0.0
C4494 C 0.29827 0.89956 0.34855 0.0
C4495 C 0.3523 0.89709 0.28613 0.0
H4496 H 0.33487 0.97454 0.30641 0.0
H4497 H 0.3866 0.9559 0.35311 0.0
H4498 H 0.30721 0.92189 0.28095 0.0
H4499 H 0.29145 0.92478 0.3053 0.0
H4500 H 0.3005 0.94904 0.29027 0.0
H4501 H 0.38073 0.91984 0.36699 0.0
H4502 H 0.35236 0.90176 0.36162 0.0
H4503 H 0.37207 0.89941 0.34079 0.0
H4504 H 0.28361 0.85578 0.32999 0.0
H4505 H 0.33092 0.85304 0.27991 0.0
H4506 H 0.28527 0.90843 0.34102 0.0
H4507 H 0.3122 0.91231 0.35972 0.0
H4508 H 0.28985 0.88751 0.35984 0.0
H4509 H 0.34782 0.91227 0.27907 0.0
H4510 H 0.35549 0.88529 0.2713 0.0
H4511 H 0.36846 0.90302 0.29842 0.0
C4512 C 0.5841 0.37657 0.58062 0.0
C4513 C 0.56569 0.36132 0.58749 0.0
C4514 C 0.58185 0.39836 0.57387 0.0
C4515 C 0.56084 0.40606 0.57443 0.0
C4516 C 0.54247 0.39093 0.58203 0.0
C4517 C 0.54494 0.36899 0.58785 0.0
C4518 C 0.60194 0.41296 0.56537 0.0
C4519 C 0.51993 0.39791 0.58409 0.0
C4520 C 0.56129 0.47153 0.57625 0.0
C4521 C 0.55158 0.4737 0.55335 0.0
C4522 C 0.5642 0.4501 0.58324 0.0
C4523 C 0.55792 0.42957 0.56702 0.0
C4524 C 0.54829 0.43171 0.54379 0.0
C4525 C 0.54508 0.45331 0.53743 0.0
C4526 C 0.57386 0.44948 0.60834 0.0
C4527 C 0.5414 0.41104 0.52536 0.0
H4528 H 0.60013 0.3711 0.57961 0.0
H4529 H 0.53037 0.35767 0.59283 0.0
H4530 H 0.59677 0.41678 0.54741 0.0
H4531 H 0.60742 0.4295 0.57697 0.0
H4532 H 0.6168 0.40459 0.56498 0.0
H4533 H 0.50798 0.38543 0.59218 0.0
H4534 H 0.52287 0.41487 0.59486 0.0
H4535 H 0.51157 0.3995 0.56642 0.0
H4536 H 0.56634 0.48671 0.58908 0.0
H4537 H 0.53767 0.45421 0.51967 0.0
H4538 H 0.5911 0.44542 0.60884 0.0
H4539 H 0.56282 0.43588 0.61597 0.0
H4540 H 0.57542 0.46602 0.61957 0.0
H4541 H 0.5559 0.40225 0.52421 0.0
H4542 H 0.53601 0.41549 0.50772 0.0
H4543 H 0.52697 0.39877 0.53038 0.0
C4544 C 0.43087 0.78302 0.42187 0.0
C4545 C 0.44823 0.77385 0.41241 0.0
C4546 C 0.41012 0.78369 0.40775 0.0
C4547 C 0.40636 0.77509 0.38336 0.0
C4548 C 0.42362 0.76524 0.37397 0.0
C4549 C 0.4439 0.76432 0.3886 0.0
C4550 C 0.39237 0.7941 0.41887 0.0
C4551 C 0.42089 0.75605 0.34821 0.0
C4552 C 0.34697 0.76039 0.3448 0.0
C4553 C 0.34714 0.77992 0.33344 0.0
C4554 C 0.36566 0.75879 0.36149 0.0
C4555 C 0.38506 0.77723 0.36737 0.0
C4556 C 0.3843 0.79743 0.35695 0.0
C4557 C 0.36588 0.79829 0.33992 0.0
C4558 C 0.36448 0.73743 0.37309 0.0
C4559 C 0.40266 0.81868 0.36332 0.0
H4560 H 0.43367 0.79004 0.4403 0.0
H4561 H 0.45651 0.75608 0.38131 0.0
H4562 H 0.39143 0.81042 0.412 0.0
H4563 H 0.37519 0.78263 0.41416 0.0
H4564 H 0.39639 0.79756 0.43834 0.0
H4565 H 0.43574 0.74898 0.34346 0.0
H4566 H 0.4052 0.74241 0.34352 0.0
H4567 H 0.41881 0.76986 0.33742 0.0
H4568 H 0.33238 0.74617 0.34033 0.0
H4569 H 0.36605 0.81379 0.33193 0.0
H4570 H 0.36787 0.74193 0.3925 0.0
H4571 H 0.3779 0.72845 0.36777 0.0
H4572 H 0.34753 0.72551 0.36838 0.0
H4573 H 0.39482 0.83359 0.36741 0.0
H4574 H 0.41155 0.82168 0.34774 0.0
H4575 H 0.41506 0.81783 0.37864 0.0
C4576 C 0.05778 0.71835 0.10489 0.0
C4577 C 0.06597 0.73523 0.0909 0.0
C4578 C 0.0553 0.69458 0.09749 0.0
C4579 C 0.06108 0.68662 0.07526 0.0
C4580 C 0.06926 0.70356 0.06093 0.0
C4581 C 0.07201 0.72736 0.06902 0.0
C4582 C 0.04669 0.67785 0.1138 0.0
C4583 C 0.07523 0.69651 0.03693 0.0
C4584 C 0.07442 0.6256 0.06515 0.0
C4585 C 0.05336 0.61164 0.05438 0.0
C4586 C 0.07719 0.64961 0.07185 0.0
C4587 C 0.05864 0.66078 0.06737 0.0
C4588 C 0.03743 0.64677 0.05616 0.0
C4589 C 0.03507 0.62281 0.05003 0.0
C4590 C 0.10008 0.66302 0.0842 0.0
C4591 C 0.01713 0.65708 0.04973 0.0
H4592 H 0.0535 0.72383 0.12206 0.0
H4593 H 0.07937 0.73985 0.05832 0.0
H4594 H 0.03057 0.66615 0.10517 0.0
H4595 H 0.05943 0.66723 0.11761 0.0
H4596 H 0.04339 0.68646 0.1307 0.0
H4597 H 0.08096 0.71139 0.02761 0.0
H4598 H 0.08903 0.68678 0.0385 0.0
H4599 H 0.06006 0.68505 0.02609 0.0
H4600 H 0.08871 0.61768 0.0689 0.0
H4601 H 0.01869 0.61278 0.0414 0.0
H4602 H 0.09787 0.67205 0.10133 0.0
H4603 H 0.10735 0.67618 0.07349 0.0
H4604 H 0.11257 0.65201 0.08741 0.0
H4605 H 0.01537 0.67029 0.06393 0.0
H4606 H 1.00086 0.64402 0.0459 0.0
H4607 H 0.01984 0.66529 0.03368 0.0
C4608 C 0.0835 0.26481 0.9216 0.0
C4609 C 0.07325 0.28366 0.92007 0.0
C4610 C 0.10292 0.26304 0.91018 0.0
C4611 C 0.11166 0.28008 0.89631 0.0
C4612 C 0.1024 0.29989 0.89642 0.0
C4613 C 0.08384 0.30163 0.90873 0.0
C4614 C 0.11303 0.24222 0.91176 0.0
C4615 C 0.11045 0.31832 0.88156 0.0
C4616 C 0.16509 0.28833 0.86523 0.0
C4617 C 0.15597 0.27821 0.84212 0.0
C4618 C 0.1515 0.28706 0.88376 0.0
C4619 C 0.12795 0.27625 0.87902 0.0
C4620 C 0.11908 0.2648 0.85614 0.0
C4621 C 0.13328 0.26541 0.8383 0.0
C4622 C 0.16212 0.29835 0.90814 0.0
C4623 C 0.09406 0.25328 0.84995 0.0
H4624 H 0.07552 0.25083 0.93028 0.0
H4625 H 0.07625 0.31645 0.90775 0.0
H4626 H 0.10451 0.22879 0.89708 0.0
H4627 H 0.13168 0.24613 0.91052 0.0
H4628 H 0.11024 0.23521 0.9285 0.0
H4629 H 0.10173 0.33285 0.88396 0.0
H4630 H 0.12917 0.32499 0.88595 0.0
H4631 H 0.10706 0.31106 0.86268 0.0
H4632 H 0.18255 0.29813 0.86879 0.0
H4633 H 0.12617 0.25647 0.82096 0.0
H4634 H 0.15492 0.28842 0.92173 0.0
H4635 H 0.15837 0.31562 0.91114 0.0
H4636 H 0.18103 0.30022 0.91047 0.0
H4637 H 0.08932 0.24028 0.86174 0.0
H4638 H 0.0899 0.24483 0.83146 0.0
H4639 H 0.08326 0.26606 0.8525 0.0
C4640 C 0.53881 0.7355 0.8854 0.0
C4641 C 0.54591 0.75697 0.89906 0.0
C4642 C 0.5357 0.71525 0.89599 0.0
C4643 C 0.53947 0.71643 0.92087 0.0
C4644 C 0.54705 0.73806 0.93467 0.0
C4645 C 0.5503 0.75794 0.92363 0.0
C4646 C 0.52786 0.69257 0.88056 0.0
C4647 C 0.55095 0.74029 0.9612 0.0
C4648 C 0.50615 0.66738 0.94811 0.0
C4649 C 0.52281 0.65479 0.95375 0.0
C4650 C 0.51145 0.68754 0.9378 0.0
C4651 C 0.53397 0.69528 0.93255 0.0
C4652 C 0.55103 0.68285 0.93859 0.0
C4653 C 0.54529 0.66286 0.9493 0.0
C4654 C 0.49281 0.70042 0.93227 0.0
C4655 C 0.57519 0.69036 0.93319 0.0
H4656 H 0.5354 0.73451 0.86643 0.0
H4657 H 0.55573 0.77439 0.93445 0.0
H4658 H 0.53947 0.681 0.88498 0.0
H4659 H 0.51047 0.68432 0.88383 0.0
H4660 H 0.52732 0.69435 0.86156 0.0
H4661 H 0.55781 0.75822 0.96939 0.0
H4662 H 0.53455 0.73387 0.96788 0.0
H4663 H 0.5631 0.72972 0.96704 0.0
H4664 H 0.48877 0.66129 0.95165 0.0
H4665 H 0.55818 0.65308 0.95342 0.0
H4666 H 0.48971 0.70084 0.91303 0.0
H4667 H 0.49826 0.71835 0.94084 0.0
H4668 H 0.47641 0.69262 0.93824 0.0
H4669 H 0.57505 0.69023 0.91392 0.0
H4670 H 0.58658 0.67917 0.93939 0.0
H4671 H 0.58252 0.70812 0.94155 0.0
C4672 C 0.11032 0.77593 0.71327 0.0
C4673 C 0.09353 0.76704 0.72712 0.0
C4674 C 0.13428 0.77793 0.72011 0.0
C4675 C 0.14255 0.77054 0.74142 0.0
C4676 C 0.12569 0.76163 0.75561 0.0
C4677 C 0.10171 0.75981 0.74829 0.0
C4678 C 0.15085 0.78783 0.70419 0.0
C4679 C 0.13293 0.75353 0.77849 0.0
C4680 C 0.204 0.75667 0.74668 0.0
C4681 C 0.21823 0.77672 0.75932 0.0
C4682 C 0.17971 0.75423 0.74121 0.0
C4683 C 0.16862 0.77219 0.7485 0.0
C4684 C 0.18296 0.79223 0.76173 0.0
C4685 C 0.2071 0.79421 0.76683 0.0
C4686 C 0.16589 0.73241 0.72717 0.0
C4687 C 0.17274 0.81171 0.77089 0.0
H4688 H 0.10462 0.7812 0.69666 0.0
H4689 H 0.08929 0.75208 0.75892 0.0
H4690 H 0.16297 0.80317 0.71386 0.0
H4691 H 0.16113 0.77528 0.69871 0.0
H4692 H 0.14204 0.79272 0.68818 0.0
H4693 H 0.11815 0.74758 0.78793 0.0
H4694 H 0.14189 0.73934 0.77511 0.0
H4695 H 0.14522 0.76752 0.79012 0.0
H4696 H 0.21193 0.74305 0.74036 0.0
H4697 H 0.21741 0.80967 0.77706 0.0
H4698 H 0.15813 0.73606 0.71003 0.0
H4699 H 0.15164 0.72499 0.7366 0.0
H4700 H 0.17647 0.71954 0.72382 0.0
H4701 H 0.16115 0.80585 0.78372 0.0
H4702 H 0.16244 0.81721 0.75628 0.0
H4703 H 0.18596 0.82663 0.77982 0.0
C4704 C 0.06192 0.38932 0.42905 0.0
C4705 C 0.05745 0.38998 0.40463 0.0
C4706 C 0.06038 0.40776 0.44594 0.0
C4707 C 0.05358 0.42749 0.43866 0.0
C4708 C 0.04925 0.42835 0.41407 0.0
C4709 C 0.05157 0.40997 0.39756 0.0
C4710 C 0.06586 0.40598 0.47174 0.0
C4711 C 0.04145 0.44852 0.40511 0.0
C4712 C 0.02697 0.46437 0.48272 0.0
C4713 C 0.04473 0.4837 0.49032 0.0
C4714 C 0.02952 0.4463 0.46595 0.0
C4715 C 0.05059 0.44692 0.45663 0.0
C4716 C 0.0687 0.46626 0.46452 0.0
C4717 C 0.06547 0.48436 0.48084 0.0
C4718 C 1.00941 0.42659 0.45795 0.0
C4719 C 0.09168 0.46779 0.45584 0.0
H4720 H 0.06649 0.37422 0.43507 0.0
H4721 H 0.04802 0.41104 0.37895 0.0
H4722 H 0.07883 0.42119 0.48041 0.0
H4723 H 0.05024 0.4056 0.48046 0.0
H4724 H 0.07246 0.39043 0.47468 0.0
H4725 H 0.03837 0.44662 0.38559 0.0
H4726 H 0.02537 0.45062 0.41206 0.0
H4727 H 0.05448 0.46438 0.41152 0.0
H4728 H 0.01077 0.46352 0.48958 0.0
H4729 H 0.07945 0.499 0.48648 0.0
H4730 H 0.01391 0.41051 0.46258 0.0
H4731 H 1.00519 0.42458 0.43852 0.0
H4732 H 0.99392 0.42892 0.46601 0.0
H4733 H 0.09842 0.45238 0.45901 0.0
H4734 H 0.10446 0.48314 0.46459 0.0
H4735 H 0.08979 0.46837 0.43659 0.0
C4736 C 0.44882 0.27743 0.21319 0.0
C4737 C 0.45852 0.25847 0.21741 0.0
C4738 C 0.42856 0.28147 0.2224 0.0
C4739 C 0.4164 0.26589 0.23592 0.0
C4740 C 0.42614 0.24668 0.24034 0.0
C4741 C 0.44677 0.24329 0.23126 0.0
C4742 C 0.41985 0.3024 0.21708 0.0
C4743 C 0.4142 0.22908 0.25406 0.0
C4744 C 0.3718 0.28507 0.27489 0.0
C4745 C 0.35034 0.27734 0.26063 0.0
C4746 C 0.39295 0.28157 0.26728 0.0
C4747 C 0.39347 0.26944 0.24473 0.0
C4748 C 0.3718 0.26117 0.23045 0.0
C4749 C 0.35094 0.26523 0.23836 0.0
C4750 C 0.41499 0.29131 0.28343 0.0
C4751 C 0.37058 0.24791 0.20649 0.0
H4752 H 0.45696 0.28912 0.20209 0.0
H4753 H 0.45314 0.2281 0.23417 0.0
H4754 H 0.40304 0.29724 0.20578 0.0
H4755 H 0.41715 0.31214 0.23361 0.0
H4756 H 0.43184 0.31383 0.20797 0.0
H4757 H 0.42393 0.21554 0.25687 0.0
H4758 H 0.41167 0.23735 0.27142 0.0
H4759 H 0.39695 0.22101 0.24449 0.0
H4760 H 0.37216 0.29401 0.29226 0.0
H4761 H 0.33492 0.25886 0.22684 0.0
H4762 H 0.42581 0.30462 0.27524 0.0
H4763 H 0.42479 0.27782 0.28608 0.0
H4764 H 0.41199 0.29904 0.30088 0.0
H4765 H 0.38021 0.25885 0.19505 0.0
H4766 H 0.35266 0.24162 0.19777 0.0
H4767 H 0.37877 0.2331 0.20804 0.0
C4768 C 0.63063 0.57191 0.39006 0.0
C4769 C 0.62285 0.5583 0.3682 0.0
C4770 C 0.61934 0.56842 0.40999 0.0
C4771 C 0.60005 0.55023 0.40862 0.0
C4772 C 0.59195 0.53642 0.38656 0.0
C4773 C 0.6032 0.54081 0.36659 0.0
C4774 C 0.62828 0.58418 0.43266 0.0
C4775 C 0.57184 0.51651 0.38424 0.0
C4776 C 0.58704 0.53021 0.46796 0.0
C4777 C 0.56838 0.53998 0.47263 0.0
C4778 C 0.5969 0.53264 0.44689 0.0
C4779 C 0.58852 0.54586 0.4303 0.0
C4780 C 0.56984 0.55597 0.43515 0.0
C4781 C 0.55983 0.55258 0.45589 0.0
C4782 C 0.61639 0.52107 0.44241 0.0
C4783 C 0.56076 0.57095 0.41874 0.0
H4784 H 0.6458 0.5854 0.39168 0.0
H4785 H 0.59723 0.52989 0.35 0.0
H4786 H 0.61424 0.59142 0.43935 0.0
H4787 H 0.6347 0.57449 0.44628 0.0
H4788 H 0.64241 0.59846 0.43049 0.0
H4789 H 0.56761 0.50731 0.36605 0.0
H4790 H 0.57571 0.50434 0.39645 0.0
H4791 H 0.55651 0.52247 0.38931 0.0
H4792 H 0.59376 0.52037 0.48065 0.0
H4793 H 0.54556 0.56042 0.4593 0.0
H4794 H 0.63225 0.53408 0.44231 0.0
H4795 H 0.6125 0.5106 0.42486 0.0
H4796 H 0.61975 0.50994 0.45595 0.0
H4797 H 0.57469 0.58547 0.41678 0.0
H4798 H 0.54638 0.57785 0.42513 0.0
H4799 H 0.55474 0.56117 0.40101 0.0
C4800 C 0.32286 0.92035 0.08268 0.0
C4801 C 0.30337 0.90917 0.06714 0.0
C4802 C 0.32952 0.91114 0.10292 0.0
C4803 C 0.31585 0.89072 0.10797 0.0
C4804 C 0.29515 0.8804 0.09327 0.0
C4805 C 0.28935 0.88954 0.07269 0.0
C4806 C 0.35202 0.9223 0.11786 0.0
C4807 C 0.27973 0.85912 0.09866 0.0
C4808 C 0.34668 0.85216 0.14061 0.0
C4809 C 0.34357 0.85854 0.16395 0.0
C4810 C 0.33766 0.86249 0.12223 0.0
C4811 C 0.32448 0.87901 0.12719 0.0
C4812 C 0.32048 0.88494 0.1505 0.0
C4813 C 0.33046 0.87498 0.16867 0.0
C4814 C 0.34264 0.85606 0.09757 0.0
C4815 C 0.30594 0.90201 0.15627 0.0
H4816 H 0.33378 0.93543 0.07821 0.0
H4817 H 0.27417 0.88105 0.06066 0.0
H4818 H 0.34961 0.92521 0.13664 0.0
H4819 H 0.36425 0.91079 0.11647 0.0
H4820 H 0.35983 0.93887 0.11238 0.0
H4821 H 0.26278 0.85527 0.08754 0.0
H4822 H 0.28795 0.84435 0.0955 0.0
H4823 H 0.27704 0.86092 0.11744 0.0
H4824 H 0.35624 0.8391 0.13664 0.0
H4825 H 0.32823 0.8804 0.18663 0.0
H4826 H 0.35142 0.87147 0.09066 0.0
H4827 H 0.32639 0.84899 0.0857 0.0
H4828 H 0.35359 0.84324 0.09681 0.0
H4829 H 0.31474 0.91921 0.1532 0.0
H4830 H 0.3025 0.90291 0.17485 0.0
H4831 H 0.28933 0.8975 0.14457 0.0
C4832 C 0.95178 0.54725 0.88319 0.0
C4833 C 0.92885 0.54084 0.887 0.0
C4834 C 0.9697 0.54947 0.9015 0.0
C4835 C 0.96455 0.54496 0.92409 0.0
C4836 C 0.94148 0.53942 0.92837 0.0
C4837 C 0.92385 0.53763 0.90977 0.0
C4838 C 0.99416 0.55581 0.89645 0.0
C4839 C 0.93545 0.53446 0.95232 0.0
C4840 C 1.00986 0.52503 0.96247 0.0
C4841 C 0.01918 0.54477 0.97814 0.0
C4842 C 0.9917 0.52475 0.94495 0.0
C4843 C 0.98337 0.54494 0.94287 0.0
C4844 C 0.99337 0.56515 0.95835 0.0
C4845 C 0.0113 0.56481 0.97589 0.0
C4846 C 0.98119 0.50281 0.92897 0.0
C4847 C 0.98504 0.58699 0.95652 0.0
H4848 H 0.95579 0.55003 0.86572 0.0
H4849 H 0.90619 0.53278 0.91291 0.0
H4850 H 1.00393 0.57044 0.9093 0.0
H4851 H 1.00266 0.54127 0.89843 0.0
H4852 H 0.99522 0.56041 0.8784 0.0
H4853 H 0.91667 0.53112 0.95295 0.0
H4854 H 0.94194 0.51935 0.95712 0.0
H4855 H 0.94384 0.54902 0.96589 0.0
H4856 H 0.0163 0.50966 0.96442 0.0
H4857 H 0.01892 0.58007 0.98811 0.0
H4858 H 0.98274 0.50529 0.91039 0.0
H4859 H 0.96264 0.49783 0.93043 0.0
H4860 H 0.98944 0.48856 0.93326 0.0
H4861 H 0.98595 0.5918 0.93856 0.0
H4862 H 0.99521 0.60136 0.96947 0.0
H4863 H 0.96683 0.58444 0.95952 0.0
C4864 C 0.28977 0.23379 0.59891 0.0
C4865 C 0.27184 0.21592 0.58787 0.0
C4866 C 0.29121 0.24212 0.62306 0.0
C4867 C 0.27375 0.23315 0.63638 0.0
C4868 C 0.2552 0.21564 0.62499 0.0
C4869 C 0.25476 0.20693 0.60117 0.0
C4870 C 0.31178 0.26011 0.63451 0.0
C4871 C 0.23566 0.20612 0.63793 0.0
C4872 C 0.28738 0.23713 0.70346 0.0
C4873 C 0.28059 0.25725 0.71168 0.0
C4874 C 0.2854 0.2293 0.67922 0.0
C4875 C 0.27548 0.24125 0.66241 0.0
C4876 C 0.26735 0.26085 0.67061 0.0
C4877 C 0.27031 0.26878 0.695 0.0
C4878 C 0.29425 0.20829 0.67161 0.0
C4879 C 0.25559 0.27357 0.65363 0.0
H4880 H 0.30309 0.24077 0.58883 0.0
H4881 H 0.24068 0.19331 0.59274 0.0
H4882 H 0.30621 0.27548 0.64204 0.0
H4883 H 0.32088 0.2536 0.64926 0.0
H4884 H 0.32402 0.26519 0.62194 0.0
H4885 H 0.22141 0.19433 0.62604 0.0
H4886 H 0.24183 0.1967 0.65192 0.0
H4887 H 0.22887 0.22021 0.64665 0.0
H4888 H 0.29441 0.22741 0.71603 0.0
H4889 H 0.26484 0.28424 0.70093 0.0
H4890 H 0.30653 0.21211 0.65879 0.0
H4891 H 0.27991 0.1945 0.66265 0.0
H4892 H 0.30291 0.20181 0.68668 0.0
H4893 H 0.26807 0.28186 0.64272 0.0
H4894 H 0.24807 0.28689 0.66281 0.0
H4895 H 0.24175 0.26152 0.64152 0.0
C4896 C 0.62777 0.56414 0.21293 0.0
C4897 C 0.61511 0.55293 0.22898 0.0
C4898 C 0.61848 0.56325 0.18917 0.0
C4899 C 0.59606 0.55034 0.18079 0.0
C4900 C 0.58328 0.53875 0.19686 0.0
C4901 C 0.5928 0.54041 0.22071 0.0
C4902 C 0.63267 0.57632 0.17302 0.0
C4903 C 0.55959 0.52432 0.18878 0.0
C4904 C 0.56393 0.56199 0.12333 0.0
C4905 C 0.56908 0.54594 0.10636 0.0
C4906 C 0.57272 0.56383 0.14741 0.0
C4907 C 0.5863 0.54858 0.15516 0.0
C4908 C 0.59084 0.53176 0.13823 0.0
C4909 C 0.58251 0.53087 0.11421 0.0
C4910 C 0.56776 0.5824 0.16451 0.0
C4911 C 0.60454 0.51461 0.14547 0.0
H4912 H 0.64493 0.57405 0.21905 0.0
H4913 H 0.58283 0.53163 0.23285 0.0
H4914 H 0.63606 0.56433 0.15852 0.0
H4915 H 0.62308 0.58809 0.1649 0.0
H4916 H 0.64935 0.58639 0.18238 0.0
H4917 H 0.55197 0.51604 0.20322 0.0
H4918 H 0.54809 0.53496 0.18166 0.0
H4919 H 0.56029 0.51086 0.17433 0.0
H4920 H 0.5532 0.57331 0.11784 0.0
H4921 H 0.58639 0.51803 0.10155 0.0
H4922 H 0.5841 0.59346 0.1735 0.0
H4923 H 0.55842 0.57479 0.17827 0.0
H4924 H 0.5574 0.59322 0.15572 0.0
H4925 H 0.62225 0.52351 0.15295 0.0
H4926 H 0.60542 0.50175 0.13048 0.0
H4927 H 0.59682 0.5056 0.1594 0.0
C4928 C 0.28851 0.90226 0.9113 0.0
C4929 C 0.28274 0.89709 0.93328 0.0
C4930 C 0.28886 0.88487 0.89329 0.0
C4931 C 0.28259 0.86181 0.89717 0.0
C4932 C 0.27547 0.85645 0.91882 0.0
C4933 C 0.27582 0.87418 0.93672 0.0
C4934 C 0.29673 0.89117 0.8704 0.0
C4935 C 0.26795 0.83203 0.92322 0.0
C4936 C 0.26614 0.82059 0.84123 0.0
C4937 C 0.28635 0.81265 0.83943 0.0
C4938 C 0.26423 0.83565 0.86069 0.0
C4939 C 0.28325 0.84336 0.87837 0.0
C4940 C 0.30335 0.83454 0.87718 0.0
C4941 C 0.30449 0.81882 0.8578 0.0
C4942 C 0.24229 0.84416 0.86169 0.0
C4943 C 0.32416 0.84286 0.89548 0.0
H4944 H 0.29373 0.91989 0.90845 0.0
H4945 H 0.27108 0.87005 0.9536 0.0
H4946 H 0.31192 0.88398 0.86727 0.0
H4947 H 0.2831 0.8837 0.85549 0.0
H4948 H 0.30131 0.90992 0.87032 0.0
H4949 H 0.26178 0.8308 0.9406 0.0
H4950 H 0.25402 0.82274 0.90928 0.0
H4951 H 0.28246 0.82322 0.92249 0.0
H4952 H 0.25197 0.8155 0.82707 0.0
H4953 H 0.32013 0.81272 0.85615 0.0
H4954 H 0.24533 0.86238 0.85899 0.0
H4955 H 0.23654 0.84297 0.87924 0.0
H4956 H 0.22828 0.83441 0.84803 0.0
H4957 H 0.33133 0.86113 0.89458 0.0
H4958 H 0.33776 0.83311 0.89289 0.0
H4959 H 0.31937 0.84157 0.91339 0.0
C4960 C 0.93623 0.52265 0.74708 0.0
C4961 C 0.9146 0.51245 0.75229 0.0
C4962 C 0.9435 0.51618 0.72553 0.0
C4963 C 0.92895 0.4988 0.70908 0.0
C4964 C 0.90687 0.48887 0.71401 0.0
C4965 C 0.89987 0.49599 0.73548 0.0
C4966 C 0.96697 0.52753 0.72063 0.0
C4967 C 0.891 0.47006 0.69704 0.0
C4968 C 0.94051 0.4911 0.64564 0.0
C4969 C 0.953 0.47372 0.64567 0.0
C4970 C 0.93284 0.49966 0.6662 0.0
C4971 C 0.93723 0.49022 0.68719 0.0
C4972 C 0.94941 0.4724 0.6873 0.0
C4973 C 0.95733 0.46452 0.66662 0.0
C4974 C 0.92015 0.51887 0.66549 0.0
C4975 C 0.95413 0.46169 0.70932 0.0
H4976 H 0.94761 0.53546 0.76 0.0
H4977 H 0.88318 0.48795 0.73949 0.0
H4978 H 0.97804 0.51486 0.71962 0.0
H4979 H 0.96568 0.53406 0.70338 0.0
H4980 H 0.97544 0.5419 0.73444 0.0
H4981 H 0.87402 0.46481 0.70307 0.0
H4982 H 0.88834 0.47562 0.67942 0.0
H4983 H 0.89888 0.45494 0.69494 0.0
H4984 H 0.93663 0.49805 0.62948 0.0
H4985 H 0.96725 0.45137 0.66698 0.0
H4986 H 0.929 0.5335 0.67882 0.0
H4987 H 0.90261 0.51323 0.66998 0.0
H4988 H 0.91883 0.52487 0.64794 0.0
H4989 H 0.96465 0.47476 0.72335 0.0
H4990 H 0.96329 0.44757 0.7063 0.0
H4991 H 0.93779 0.45491 0.71591 0.0
C4992 C 0.2841 0.22963 0.44988 0.0
C4993 C 0.26673 0.20994 0.44851 0.0
C4994 C 0.28832 0.24058 0.4297 0.0
C4995 C 0.27455 0.23204 0.40766 0.0
C4996 C 0.2565 0.21269 0.40652 0.0
C4997 C 0.25309 0.20181 0.42667 0.0
C4998 C 0.30799 0.26089 0.43178 0.0
C4999 C 0.24084 0.20321 0.38384 0.0
C5000 C 0.27047 0.27054 0.3592 0.0
C5001 C 0.28377 0.26248 0.34289 0.0
C5002 C 0.26768 0.26114 0.38033 0.0
C5003 C 0.27864 0.24322 0.38576 0.0
C5004 C 0.29224 0.23506 0.36941 0.0
C5005 C 0.29442 0.24457 0.34813 0.0
C5006 C 0.2525 0.27008 0.39662 0.0
C5007 C 0.30449 0.21621 0.3744 0.0
H5008 H 0.29503 0.23588 0.46645 0.0
H5009 H 0.2397 0.1866 0.42519 0.0
H5010 H 0.32054 0.25697 0.42003 0.0
H5011 H 0.30174 0.27576 0.42595 0.0
H5012 H 0.31693 0.26574 0.45006 0.0
H5013 H 0.22684 0.18884 0.3861 0.0
H5014 H 0.23308 0.21681 0.37691 0.0
H5015 H 0.25083 0.19708 0.37036 0.0
H5016 H 0.26179 0.28408 0.35522 0.0
H5017 H 0.30476 0.23823 0.33575 0.0
H5018 H 0.26222 0.27611 0.4144 0.0
H5019 H 0.23794 0.25615 0.3985 0.0
H5020 H 0.24554 0.28436 0.39016 0.0
H5021 H 0.31529 0.2208 0.39179 0.0
H5022 H 0.31551 0.2127 0.36077 0.0
H5023 H 0.29181 0.20031 0.37521 0.0
C5024 C 0.34521 0.6353 0.56138 0.0
C5025 C 0.32972 0.63347 0.54098 0.0
C5026 C 0.3674 0.63171 0.55978 0.0
C5027 C 0.37387 0.62638 0.53729 0.0
C5028 C 0.35892 0.62688 0.51672 0.0
C5029 C 0.33691 0.6303 0.51886 0.0
C5030 C 0.38299 0.63144 0.58203 0.0
C5031 C 0.3652 0.62144 0.4924 0.0
C5032 C 0.43207 0.61973 0.52282 0.0
C5033 C 0.42869 0.59589 0.51864 0.0
C5034 C 0.41503 0.63019 0.53096 0.0
C5035 C 0.39418 0.6164 0.53479 0.0
C5036 C 0.39133 0.59237 0.53222 0.0
C5037 C 0.4086 0.5824 0.52408 0.0
C5038 C 0.41871 0.65586 0.53378 0.0
C5039 C 0.36927 0.57703 0.53614 0.0
H5040 H 0.33941 0.63764 0.57846 0.0
H5041 H 0.32477 0.62906 0.50316 0.0
H5042 H 0.38235 0.61351 0.58516 0.0
H5043 H 0.40102 0.63926 0.58048 0.0
H5044 H 0.3777 0.64061 0.59756 0.0
H5045 H 0.35284 0.62537 0.47845 0.0
H5046 H 0.38259 0.63117 0.49094 0.0
H5047 H 0.36537 0.60301 0.48906 0.0
H5048 H 0.4477 0.63023 0.51898 0.0
H5049 H 0.40574 0.56397 0.52068 0.0
H5050 H 0.41212 0.66233 0.54984 0.0
H5051 H 0.40912 0.66109 0.51849 0.0
H5052 H 0.43712 0.6641 0.53474 0.0
H5053 H 0.36384 0.58302 0.55305 0.0
H5054 H 0.37092 0.55902 0.53624 0.0
H5055 H 0.35547 0.57755 0.52189 0.0
C5056 C 0.87637 0.94726 0.54951 0.0
C5057 C 0.87255 0.92426 0.5399 0.0
C5058 C 0.8973 0.96249 0.54882 0.0
C5059 C 0.91536 0.95442 0.53913 0.0
C5060 C 0.91179 0.93101 0.52993 0.0
C5061 C 0.89047 0.91623 0.53045 0.0
C5062 C 0.90011 0.98726 0.55854 0.0
C5063 C 0.93054 0.92159 0.51958 0.0
C5064 C 0.96324 0.99911 0.52163 0.0
C5065 C 0.97982 1.00297 0.5414 0.0
C5066 C 0.94281 0.98264 0.52016 0.0
C5067 C 0.93813 0.97039 0.53938 0.0
C5068 C 0.95504 0.97416 0.55938 0.0
C5069 C 0.97573 0.9902 0.56005 0.0
C5070 C 0.92631 0.97892 0.49797 0.0
C5071 C 0.95133 0.96118 0.58008 0.0
H5072 H 0.86296 0.95333 0.55777 0.0
H5073 H 0.88775 0.89838 0.52337 0.0
H5074 H 0.91428 0.99206 0.57337 0.0
H5075 H 0.90478 0.99816 0.54475 0.0
H5076 H 0.88427 0.99102 0.56488 0.0
H5077 H 0.92524 0.903 0.5134 0.0
H5078 H 0.93553 0.93057 0.50451 0.0
H5079 H 0.946 0.92466 0.53289 0.0
H5080 H 0.96653 0.00852 0.50692 0.0
H5081 H 0.98867 0.9929 0.57531 0.0
H5082 H 0.91478 0.99099 0.49998 0.0
H5083 H 0.91607 0.96122 0.49443 0.0
H5084 H 0.93532 0.98257 0.48253 0.0
H5085 H 0.93643 0.96527 0.58813 0.0
H5086 H 0.96655 0.96527 0.5938 0.0
H5087 H 0.94732 0.94255 0.57409 0.0
C5088 C 0.90295 0.08078 0.29278 0.0
C5089 C 0.91808 0.0732 0.2783 0.0
C5090 C 0.89201 0.09836 0.2876 0.0
C5091 C 0.89725 0.1099 0.26816 0.0
C5092 C 0.91444 0.10417 0.25497 0.0
C5093 C 0.9244 0.08554 0.25991 0.0
C5094 C 0.87342 0.10321 0.3019 0.0
C5095 C 0.92152 0.11682 0.23491 0.0
C5096 C 0.8453 0.13002 0.2426 0.0
C5097 C 0.84751 0.15102 0.25673 0.0
C5098 C 0.86231 0.11716 0.24472 0.0
C5099 C 0.88262 0.12587 0.26064 0.0
C5100 C 0.88619 0.14821 0.27284 0.0
C5101 C 0.86845 0.16034 0.27113 0.0
C5102 C 0.85756 0.09337 0.23146 0.0
C5103 C 0.90811 0.15867 0.28899 0.0
H5104 H 0.89834 0.07186 0.30748 0.0
H5105 H 0.93619 0.08004 0.24873 0.0
H5106 H 0.87743 0.12131 0.30993 0.0
H5107 H 0.85682 0.10018 0.29028 0.0
H5108 H 0.8712 0.09235 0.31621 0.0
H5109 H 0.93951 0.1164 0.23238 0.0
H5110 H 0.91041 0.10848 0.2184 0.0
H5111 H 0.91984 0.13487 0.23786 0.0
H5112 H 0.82971 0.12303 0.23059 0.0
H5113 H 0.87067 0.17656 0.28209 0.0
H5114 H 0.85596 0.08069 0.24411 0.0
H5115 H 0.87198 0.09106 0.22166 0.0
H5116 H 0.84154 0.0896 0.21881 0.0
H5117 H 0.90752 0.15193 0.3061 0.0
H5118 H 0.91066 0.17754 0.2924 0.0
H5119 H 0.92311 0.15424 0.28137 0.0
C5120 C 0.68631 0.12345 0.02979 0.0
C5121 C 0.70376 0.11517 0.04181 0.0
C5122 C 0.66338 0.11217 0.02845 0.0
C5123 C 0.658 0.09246 0.03971 0.0
C5124 C 0.67572 0.08381 0.05144 0.0
C5125 C 0.69845 0.09551 0.05262 0.0
C5126 C 0.64494 0.12139 0.0152 0.0
C5127 C 0.67064 0.06257 0.06328 0.0
C5128 C 0.60069 0.07664 0.06173 0.0
C5129 C 0.59001 0.0578 0.04532 0.0
C5130 C 0.6227 0.08866 0.05965 0.0
C5131 C 0.63383 0.08159 0.04061 0.0
C5132 C 0.6225 0.06291 0.02371 0.0
C5133 C 0.60115 0.05054 0.02694 0.0
C5134 C 0.6343 0.1084 0.07816 0.0
C5135 C 0.63297 0.05534 1.0026 0.0
H5136 H 0.69064 0.13881 0.02159 0.0
H5137 H 0.71207 0.08961 0.06245 0.0
H5138 H 0.6354 0.10817 1.00079 0.0
H5139 H 0.63249 0.12539 0.02703 0.0
H5140 H 0.65199 0.13698 0.0075 0.0
H5141 H 0.6865 0.05765 0.07082 0.0
H5142 H 0.66018 0.06537 0.07761 0.0
H5143 H 0.6605 0.04813 0.05045 0.0
H5144 H 0.59201 0.08161 0.07635 0.0
H5145 H 0.59285 0.03545 0.01473 0.0
H5146 H 0.64011 0.12386 0.06977 0.0
H5147 H 0.64973 0.1043 0.08769 0.0
H5148 H 0.62282 0.11238 0.09115 0.0
H5149 H 0.64295 0.07016 0.99579 0.0
H5150 H 0.61975 0.04557 0.98817 0.0
H5151 H 0.64445 0.04399 0.00791 0.0
C5152 C 0.18788 0.48339 0.26131 0.0
C5153 C 0.20596 0.5008 0.25793 0.0
C5154 C 0.19196 0.46198 0.2655 0.0
C5155 C 0.21453 0.45821 0.26607 0.0
C5156 C 0.23202 0.47479 0.25945 0.0
C5157 C 0.22752 0.49601 0.25559 0.0
C5158 C 0.17285 0.44456 0.27219 0.0
C5159 C 0.25625 0.47135 0.2595 0.0
C5160 C 0.23834 0.42939 0.31486 0.0
C5161 C 0.24058 0.40877 0.30268 0.0
C5162 C 0.22871 0.44506 0.30324 0.0
C5163 C 0.22121 0.44001 0.27875 0.0
C5164 C 0.22241 0.41879 0.26649 0.0
C5165 C 0.23215 0.40336 0.27864 0.0
C5166 C 0.22781 0.4676 0.31699 0.0
C5167 C 0.21447 0.41288 0.24041 0.0
H5168 H 0.17117 0.48714 0.26305 0.0
H5169 H 0.24139 0.50947 0.25261 0.0
H5170 H 0.17376 0.42702 0.26494 0.0
H5171 H 0.17456 0.44549 0.29164 0.0
H5172 H 0.15576 0.44772 0.2659 0.0
H5173 H 0.26657 0.48391 0.25002 0.0
H5174 H 0.26467 0.47343 0.27794 0.0
H5175 H 0.25638 0.4539 0.2513 0.0
H5176 H 0.24514 0.43381 0.33334 0.0
H5177 H 0.23361 0.38727 0.26923 0.0
H5178 H 0.21027 0.4709 0.3142 0.0
H5179 H 0.23953 0.48167 0.31072 0.0
H5180 H 0.23289 0.46813 0.33618 0.0
H5181 H 0.19772 0.4175 0.23577 0.0
H5182 H 0.21286 0.39444 0.2344 0.0
H5183 H 0.22701 0.42279 0.23062 0.0
C5184 C 0.24035 0.4141 0.01542 0.0
C5185 C 0.25086 0.40536 0.03433 0.0
C5186 C 0.2235 0.42679 0.01849 0.0
C5187 C 0.21603 0.42992 0.04082 0.0
C5188 C 0.22421 0.41838 0.05908 0.0
C5189 C 0.24187 0.40648 0.05577 0.0
C5190 C 0.21574 0.43899 0.99855 0.0
C5191 C 0.21568 0.42013 0.0827 0.0
C5192 C 0.20322 0.48858 0.0548 0.0
C5193 C 0.1799 0.48498 0.04576 0.0
C5194 C 0.21493 0.47063 0.05424 0.0
C5195 C 0.20284 0.44809 0.04567 0.0
C5196 C 0.17886 0.44391 0.03874 0.0
C5197 C 0.16778 0.4624 0.03835 0.0
C5198 C 0.2406 0.47613 0.06135 0.0
C5199 C 0.16503 0.42006 0.03058 0.0
H5200 H 0.24701 0.41301 0.99869 0.0
H5201 H 0.24982 0.39977 0.07048 0.0
H5202 H 0.19679 0.43551 0.99511 0.0
H5203 H 0.22189 0.4577 1.00348 0.0
H5204 H 0.22236 0.43388 0.98198 0.0
H5205 H 0.21869 0.40581 0.09237 0.0
H5206 H 0.22494 0.43631 0.09352 0.0
H5207 H 0.1971 0.42019 0.0807 0.0
H5208 H 0.21269 0.50567 0.06162 0.0
H5209 H 0.1498 0.45907 0.0313 0.0
H5210 H 0.24926 0.47141 0.04606 0.0
H5211 H 0.24529 0.46607 0.07538 0.0
H5212 H 0.24741 0.49452 0.06781 0.0
H5213 H 0.16609 0.41539 0.01167 0.0
H5214 H 0.14666 0.41882 0.03265 0.0
H5215 H 0.17168 0.40743 0.04049 0.0
C5216 C 0.91777 0.93536 0.2869 0.0
C5217 C 0.90899 0.95258 0.27693 0.0
C5218 C 0.90362 0.9138 0.28772 0.0
C5219 C 0.88006 0.90929 0.27838 0.0
C5220 C 0.87127 0.92659 0.26803 0.0
C5221 C 0.88591 0.94774 0.26699 0.0
C5222 C 0.91383 0.89585 0.29868 0.0
C5223 C 0.84629 0.9228 0.25814 0.0
C5224 C 0.84473 0.84853 0.25951 0.0
C5225 C 0.83236 0.84483 0.27855 0.0
C5226 C 0.86061 0.86916 0.25944 0.0
C5227 C 0.86457 0.88646 0.27904 0.0
C5228 C 0.85283 0.88211 0.29871 0.0
C5229 C 0.83651 0.86175 0.29796 0.0
C5230 C 0.87329 0.87237 0.23844 0.0
C5231 C 0.85697 0.89873 0.32076 0.0
H5232 H 0.9357 0.93882 0.29424 0.0
H5233 H 0.87927 0.96057 0.25828 0.0
H5234 H 0.90543 0.89149 0.31429 0.0
H5235 H 0.91063 0.88001 0.28601 0.0
H5236 H 0.93258 0.90158 0.30425 0.0
H5237 H 0.84194 0.9381 0.2512 0.0
H5238 H 0.84189 0.90833 0.2437 0.0
H5239 H 0.83545 0.91818 0.27202 0.0
H5240 H 0.84185 0.83533 0.24454 0.0
H5241 H 0.82748 0.85881 0.31301 0.0
H5242 H 0.89204 0.87698 0.24422 0.0
H5243 H 0.86861 0.88664 0.22974 0.0
H5244 H 0.8694 0.8568 0.22529 0.0
H5245 H 0.87382 0.91065 0.32275 0.0
H5246 H 0.85612 0.88966 0.33653 0.0
H5247 H 0.84305 0.90831 0.32019 0.0
C5248 C 0.73262 0.12698 0.76273 0.0
C5249 C 0.71284 0.12449 0.77375 0.0
C5250 C 0.74534 0.14865 0.76082 0.0
C5251 C 0.73733 0.16819 0.76907 0.0
C5252 C 0.71684 0.16567 0.77951 0.0
C5253 C 0.70498 0.14379 0.78196 0.0
C5254 C 0.7672 0.15062 0.74979 0.0
C5255 C 0.70732 0.18574 0.78862 0.0
C5256 C 0.78195 0.22313 0.78273 0.0
C5257 C 0.77806 0.23344 0.76266 0.0
C5258 C 0.76805 0.20243 0.78552 0.0
C5259 C 0.75076 0.19113 0.76709 0.0
C5260 C 0.747 0.2014 0.74644 0.0
C5261 C 0.76082 0.2226 0.74444 0.0
C5262 C 0.77226 0.19268 0.80809 0.0
C5263 C 0.7282 0.19014 0.72677 0.0
H5264 H 0.73789 0.11195 0.75515 0.0
H5265 H 0.68932 0.14176 0.79002 0.0
H5266 H 0.76606 0.15996 0.7343 0.0
H5267 H 0.78182 0.16058 0.7626 0.0
H5268 H 0.77091 0.1337 0.74409 0.0
H5269 H 0.68833 0.18178 0.78469 0.0
H5270 H 0.71163 0.18885 0.80802 0.0
H5271 H 0.7141 0.20154 0.78122 0.0
H5272 H 0.79578 0.23134 0.79646 0.0
H5273 H 0.75795 0.23087 0.72892 0.0
H5274 H 0.78237 0.17953 0.80485 0.0
H5275 H 0.75592 0.18468 0.81395 0.0
H5276 H 0.78217 0.20582 0.82248 0.0
H5277 H 0.73109 0.17325 0.71972 0.0
H5278 H 0.7272 0.20061 0.71213 0.0
H5279 H 0.71145 0.18718 0.73366 0.0
loop_
_geom_bond_atom_site_label_1
_geom_bond_atom_site_label_2
_geom_bond_distance
_geom_bond_site_symmetry_2
_ccdc_geom_bond_type
Mn0 O5 2.095 . S
Mn0 O15 2.162 . S
Mn0 O16 2.297 . S
Mn0 O24 2.364 1_455 S
Mn0 O25 2.209 . S
Mn0 O26 2.094 . S
Mn1 O6 2.121 . S
Mn1 N8 2.257 . S
Mn1 N17 2.282 . S
Mn1 O25 2.215 . S
Mn1 O27 2.117 . S
C2 O24 1.230 1_455 S
C2 O25 1.283 . S
C3 O15 1.281 . S
C3 O16 1.236 . S
C4 O26 1.240 . S
C4 O27 1.264 . S
O5 Mn0 2.095 . S
O5 C14 1.250 . S
O6 Mn1 2.121 . S
O6 C14 1.258 . S
C7 N8 1.326 . S
C7 C11 1.460 . S
C7 H13 0.929 . S
N8 Mn1 2.257 . S
N8 C7 1.326 . S
N8 C12 1.362 . S
C9 C10 1.258 1_655 S
C9 C12 1.431 1_655 S
C9 C29 1.449 . S
C10 C9 1.258 1_455 S
C10 C11 1.477 . S
C10 H30 0.929 1_455 S
C11 C7 1.460 . S
C11 C10 1.477 . S
C11 H31 0.930 . S
C12 N8 1.362 . S
C12 C9 1.431 1_455 S
C12 C22 1.476 1_455 S
H13 C7 0.929 . S
C14 O5 1.250 . S
C14 O6 1.258 . S
O15 Mn0 2.162 . S
O15 C3 1.281 . S
O16 Mn0 2.297 . S
O16 C3 1.236 . S
N17 Mn1 2.282 . S
N17 C18 1.328 1_455 S
N17 C22 1.318 1_455 S
C18 N17 1.328 1_655 S
C18 C19 1.457 . S
C18 H23 0.929 1_655 S
C19 C18 1.457 . S
C19 C20 1.291 . S
C19 H32 0.931 . S
C20 C19 1.291 . S
C20 C21 1.373 . S
C20 H33 0.929 . S
C21 C20 1.373 . S
C21 C22 1.396 . S
C21 C28 1.403 . S
C22 C12 1.476 1_655 S
C22 N17 1.318 1_655 S
C22 C21 1.396 . S
H23 C18 0.929 1_455 S
O24 Mn0 2.364 1_655 S
O24 C2 1.230 1_655 S
O25 Mn0 2.209 . S
O25 Mn1 2.215 . S
O25 C2 1.283 . S
O26 Mn0 2.094 . S
O26 C4 1.240 . S
O27 Mn1 2.117 . S
O27 C4 1.264 . S
C28 C21 1.403 . S
C28 C29 1.399 . S
C28 H34 0.929 . S
C29 C9 1.449 . S
C29 C28 1.399 . S
C29 H35 0.930 . S
H30 C10 0.929 1_655 S
H31 C11 0.930 . S
H32 C19 0.931 . S
H33 C20 0.929 . S
H34 C28 0.929 . S
H35 C29 0.930 . S
Mn36 O41 2.095 1_455 S
Mn36 O51 2.162 . S
Mn36 O52 2.297 . S
Mn36 O60 2.385 . S
Mn36 O61 2.209 . S
Mn36 O62 2.094 . S
Mn37 O42 2.121 1_455 S
Mn37 N44 2.257 . S
Mn37 N53 2.282 . S
Mn37 O61 2.215 . S
Mn37 O63 2.117 . S
C38 O60 1.234 . S
C38 O61 1.283 . S
C39 O51 1.281 . S
C39 O52 1.236 . S
C40 O62 1.240 . S
C40 O63 1.264 . S
O41 Mn36 2.095 1_655 S
O41 C50 1.250 . S
O42 Mn37 2.121 1_655 S
O42 C50 1.258 . S
C43 N44 1.326 . S
C43 C47 1.460 . S
C43 H49 0.929 . S
N44 Mn37 2.257 . S
N44 C43 1.326 . S
N44 C48 1.362 . S
C45 C46 1.258 . S
C45 C48 1.431 . S
C45 C65 1.449 . S
C46 C45 1.258 . S
C46 C47 1.477 . S
C46 H66 0.931 . S
C47 C43 1.460 . S
C47 C46 1.477 . S
C47 H67 0.930 . S
C48 N44 1.362 . S
C48 C45 1.431 . S
C48 C58 1.476 . S
H49 C43 0.929 . S
C50 O41 1.250 . S
C50 O42 1.258 . S
O51 Mn36 2.162 . S
O51 C39 1.281 . S
O52 Mn36 2.297 . S
O52 C39 1.236 . S
N53 Mn37 2.282 . S
N53 C54 1.328 . S
N53 C58 1.318 . S
C54 N53 1.328 . S
C54 C55 1.457 . S
C54 H59 0.929 . S
C55 C54 1.457 . S
C55 C56 1.291 . S
C55 H68 0.931 . S
C56 C55 1.291 . S
C56 C57 1.373 . S
C56 H69 0.929 . S
C57 C56 1.373 . S
C57 C58 1.396 . S
C57 C64 1.403 . S
C58 C48 1.476 . S
C58 N53 1.318 . S
C58 C57 1.396 . S
H59 C54 0.929 . S
O60 Mn36 2.385 . S
O60 C38 1.234 . S
O61 Mn36 2.209 . S
O61 Mn37 2.215 . S
O61 C38 1.283 . S
O62 Mn36 2.094 . S
O62 C40 1.240 . S
O63 Mn37 2.117 . S
O63 C40 1.264 . S
C64 C57 1.403 . S
C64 C65 1.399 . S
C64 H70 0.929 . S
C65 C45 1.449 . S
C65 C64 1.399 . S
C65 H71 0.930 . S
H66 C46 0.931 . S
H67 C47 0.930 . S
H68 C55 0.931 . S
H69 C56 0.929 . S
H70 C64 0.929 . S
H71 C65 0.930 . S
Mn72 O77 2.095 . S
Mn72 O87 2.162 . S
Mn72 O88 2.297 . S
Mn72 O96 2.385 . S
Mn72 O97 2.209 . S
Mn72 O98 2.094 . S
Mn73 O78 2.121 . S
Mn73 N80 2.257 . S
Mn73 N89 2.282 . S
Mn73 O97 2.215 . S
Mn73 O99 2.117 . S
C74 O96 1.234 . S
C74 O97 1.283 . S
C75 O87 1.281 . S
C75 O88 1.236 . S
C76 O98 1.240 . S
C76 O99 1.264 . S
O77 Mn72 2.095 . S
O77 C86 1.250 . S
O78 Mn73 2.121 . S
O78 C86 1.258 . S
C79 N80 1.326 . S
C79 C83 1.460 . S
C79 H85 0.929 . S
N80 Mn73 2.257 . S
N80 C79 1.326 . S
N80 C84 1.362 . S
C81 C82 1.258 . S
C81 C84 1.431 . S
C81 C101 1.449 . S
C82 C81 1.258 . S
C82 C83 1.477 . S
C82 H102 0.931 . S
C83 C79 1.460 . S
C83 C82 1.477 . S
C83 H103 0.930 . S
C84 N80 1.362 . S
C84 C81 1.431 . S
C84 C94 1.476 . S
H85 C79 0.929 . S
C86 O77 1.250 . S
C86 O78 1.258 . S
O87 Mn72 2.162 . S
O87 C75 1.281 . S
O88 Mn72 2.297 . S
O88 C75 1.236 . S
N89 Mn73 2.282 . S
N89 C90 1.328 . S
N89 C94 1.318 . S
C90 N89 1.328 . S
C90 C91 1.457 . S
C90 H95 0.929 . S
C91 C90 1.457 . S
C91 C92 1.291 . S
C91 H104 0.931 . S
C92 C91 1.291 . S
C92 C93 1.373 . S
C92 H105 0.929 . S
C93 C92 1.373 . S
C93 C94 1.396 . S
C93 C100 1.403 . S
C94 C84 1.476 . S
C94 N89 1.318 . S
C94 C93 1.396 . S
H95 C90 0.929 . S
O96 Mn72 2.385 . S
O96 C74 1.234 . S
O97 Mn72 2.209 . S
O97 Mn73 2.215 . S
O97 C74 1.283 . S
O98 Mn72 2.094 . S
O98 C76 1.240 . S
O99 Mn73 2.117 . S
O99 C76 1.264 . S
C100 C93 1.403 . S
C100 C101 1.399 . S
C100 H106 0.929 . S
C101 C81 1.449 . S
C101 C100 1.399 . S
C101 H107 0.930 . S
H102 C82 0.931 . S
H103 C83 0.930 . S
H104 C91 0.931 . S
H105 C92 0.929 . S
H106 C100 0.929 . S
H107 C101 0.930 . S
Mn108 O113 2.095 . S
Mn108 O123 2.162 . S
Mn108 O124 2.297 . S
Mn108 O132 2.385 . S
Mn108 O133 2.209 . S
Mn108 O134 2.094 . S
Mn109 O114 2.121 . S
Mn109 N116 2.257 . S
Mn109 N125 2.282 . S
Mn109 O133 2.215 . S
Mn109 O135 2.117 . S
C110 O132 1.234 . S
C110 O133 1.283 . S
C111 O123 1.281 . S
C111 O124 1.236 . S
C112 O134 1.240 . S
C112 O135 1.264 . S
O113 Mn108 2.095 . S
O113 C122 1.250 . S
O114 Mn109 2.121 . S
O114 C122 1.258 . S
C115 N116 1.326 . S
C115 C119 1.460 . S
C115 H121 0.929 . S
N116 Mn109 2.257 . S
N116 C115 1.326 . S
N116 C120 1.362 . S
C117 C118 1.258 . S
C117 C120 1.431 . S
C117 C137 1.449 . S
C118 C117 1.258 . S
C118 C119 1.477 . S
C118 H138 0.931 . S
C119 C115 1.460 . S
C119 C118 1.477 . S
C119 H139 0.930 . S
C120 N116 1.362 . S
C120 C117 1.431 . S
C120 C130 1.476 . S
H121 C115 0.929 . S
C122 O113 1.250 . S
C122 O114 1.258 . S
O123 Mn108 2.162 . S
O123 C111 1.281 . S
O124 Mn108 2.297 . S
O124 C111 1.236 . S
N125 Mn109 2.282 . S
N125 C126 1.328 . S
N125 C130 1.318 . S
C126 N125 1.328 . S
C126 C127 1.457 . S
C126 H131 0.929 . S
C127 C126 1.457 . S
C127 C128 1.291 . S
C127 H140 0.931 . S
C128 C127 1.291 . S
C128 C129 1.373 . S
C128 H141 0.929 . S
C129 C128 1.373 . S
C129 C130 1.396 . S
C129 C136 1.403 . S
C130 C120 1.476 . S
C130 N125 1.318 . S
C130 C129 1.396 . S
H131 C126 0.929 . S
O132 Mn108 2.385 . S
O132 C110 1.234 . S
O133 Mn108 2.209 . S
O133 Mn109 2.215 . S
O133 C110 1.283 . S
O134 Mn108 2.094 . S
O134 C112 1.240 . S
O135 Mn109 2.117 . S
O135 C112 1.264 . S
C136 C129 1.403 . S
C136 C137 1.399 . S
C136 H142 0.929 . S
C137 C117 1.449 . S
C137 C136 1.399 . S
C137 H143 0.930 . S
H138 C118 0.931 . S
H139 C119 0.930 . S
H140 C127 0.931 . S
H141 C128 0.929 . S
H142 C136 0.929 . S
H143 C137 0.930 . S
Mn144 O149 2.095 . S
Mn144 O159 2.162 . S
Mn144 O160 2.297 . S
Mn144 O168 2.385 . S
Mn144 O169 2.209 . S
Mn144 O170 2.094 . S
Mn145 O150 2.121 . S
Mn145 N152 2.257 . S
Mn145 N161 2.293 . S
Mn145 O169 2.215 . S
Mn145 O171 2.117 . S
C146 O168 1.234 . S
C146 O169 1.283 . S
C147 O159 1.281 . S
C147 O160 1.236 . S
C148 O170 1.240 . S
C148 O171 1.264 . S
O149 Mn144 2.095 . S
O149 C158 1.250 . S
O150 Mn145 2.121 . S
O150 C158 1.258 . S
C151 N152 1.326 . S
C151 C155 1.460 1_554 S
C151 H157 0.929 . S
N152 Mn145 2.257 . S
N152 C151 1.326 . S
N152 C156 1.362 . S
C153 C154 1.258 1_554 S
C153 C156 1.431 . S
C153 C173 1.449 1_454 S
C154 C153 1.258 1_556 S
C154 C155 1.477 . S
C154 H174 0.931 . S
C155 C151 1.460 1_556 S
C155 C154 1.477 . S
C155 H175 0.930 . S
C156 N152 1.362 . S
C156 C153 1.431 . S
C156 C166 1.476 1_455 S
H157 C151 0.929 . S
C158 O149 1.250 . S
C158 O150 1.258 . S
O159 Mn144 2.162 . S
O159 C147 1.281 . S
O160 Mn144 2.297 . S
O160 C147 1.236 . S
N161 Mn145 2.293 . S
N161 C162 1.316 1_455 S
N161 C166 1.322 1_455 S
C162 N161 1.316 1_655 S
C162 C163 1.457 . S
C162 H167 0.929 . S
C163 C162 1.457 . S
C163 C164 1.291 . S
C163 H176 0.931 . S
C164 C163 1.291 . S
C164 C165 1.373 . S
C164 H177 0.929 . S
C165 C164 1.373 . S
C165 C166 1.396 . S
C165 C172 1.403 . S
C166 C156 1.476 1_655 S
C166 N161 1.322 1_655 S
C166 C165 1.396 . S
H167 C162 0.929 . S
O168 Mn144 2.385 . S
O168 C146 1.234 . S
O169 Mn144 2.209 . S
O169 Mn145 2.215 . S
O169 C146 1.283 . S
O170 Mn144 2.094 . S
O170 C148 1.240 . S
O171 Mn145 2.117 . S
O171 C148 1.264 . S
C172 C165 1.403 . S
C172 C173 1.399 1_554 S
C172 H178 0.929 . S
C173 C153 1.449 1_656 S
C173 C172 1.399 1_556 S
C173 H179 0.930 . S
H174 C154 0.931 . S
H175 C155 0.930 . S
H176 C163 0.931 . S
H177 C164 0.929 . S
H178 C172 0.929 . S
H179 C173 0.930 . S
Mn180 O185 2.095 . S
Mn180 O195 2.162 . S
Mn180 O196 2.297 . S
Mn180 O204 2.385 . S
Mn180 O205 2.209 . S
Mn180 O206 2.094 . S
Mn181 O186 2.121 . S
Mn181 N188 2.257 . S
Mn181 N197 2.282 . S
Mn181 O205 2.215 . S
Mn181 O207 2.117 . S
C182 O204 1.234 . S
C182 O205 1.283 . S
C183 O195 1.281 . S
C183 O196 1.236 . S
C184 O206 1.240 . S
C184 O207 1.264 . S
O185 Mn180 2.095 . S
O185 C194 1.250 . S
O186 Mn181 2.121 . S
O186 C194 1.258 . S
C187 N188 1.326 . S
C187 C191 1.460 . S
C187 H193 0.929 . S
N188 Mn181 2.257 . S
N188 C187 1.326 . S
N188 C192 1.362 . S
C189 C190 1.258 . S
C189 C192 1.431 . S
C189 C209 1.449 . S
C190 C189 1.258 . S
C190 C191 1.477 . S
C190 H210 0.931 . S
C191 C187 1.460 . S
C191 C190 1.477 . S
C191 H211 0.930 . S
C192 N188 1.362 . S
C192 C189 1.431 . S
C192 C202 1.476 . S
H193 C187 0.929 . S
C194 O185 1.250 . S
C194 O186 1.258 . S
O195 Mn180 2.162 . S
O195 C183 1.281 . S
O196 Mn180 2.297 . S
O196 C183 1.236 . S
N197 Mn181 2.282 . S
N197 C198 1.328 . S
N197 C202 1.318 . S
C198 N197 1.328 . S
C198 C199 1.457 . S
C198 H203 0.929 . S
C199 C198 1.457 . S
C199 C200 1.291 . S
C199 H212 0.931 . S
C200 C199 1.291 . S
C200 C201 1.373 . S
C200 H213 0.929 . S
C201 C200 1.373 . S
C201 C202 1.396 . S
C201 C208 1.403 . S
C202 C192 1.476 . S
C202 N197 1.318 . S
C202 C201 1.396 . S
H203 C198 0.929 . S
O204 Mn180 2.385 . S
O204 C182 1.234 . S
O205 Mn180 2.209 . S
O205 Mn181 2.215 . S
O205 C182 1.283 . S
O206 Mn180 2.094 . S
O206 C184 1.240 . S
O207 Mn181 2.117 . S
O207 C184 1.264 . S
C208 C201 1.403 . S
C208 C209 1.399 . S
C208 H214 0.929 . S
C209 C189 1.449 . S
C209 C208 1.399 . S
C209 H215 0.930 . S
H210 C190 0.931 . S
H211 C191 0.930 . S
H212 C199 0.931 . S
H213 C200 0.929 . S
H214 C208 0.929 . S
H215 C209 0.930 . S
Mn216 O221 2.095 . S
Mn216 O231 2.162 . S
Mn216 O232 2.297 . S
Mn216 O240 2.385 . S
Mn216 O241 2.209 . S
Mn216 O242 2.094 . S
Mn217 O222 2.121 . S
Mn217 N224 2.257 . S
Mn217 N233 2.282 . S
Mn217 O241 2.215 . S
Mn217 O243 2.117 . S
C218 O240 1.234 . S
C218 O241 1.283 . S
C219 O231 1.281 . S
C219 O232 1.236 . S
C220 O242 1.240 . S
C220 O243 1.264 . S
O221 Mn216 2.095 . S
O221 C230 1.250 . S
O222 Mn217 2.121 . S
O222 C230 1.258 . S
C223 N224 1.326 . S
C223 C227 1.460 . S
C223 H229 0.929 . S
N224 Mn217 2.257 . S
N224 C223 1.326 . S
N224 C228 1.362 . S
C225 C226 1.258 . S
C225 C228 1.431 . S
C225 C245 1.449 . S
C226 C225 1.258 . S
C226 C227 1.477 . S
C226 H246 0.931 . S
C227 C223 1.460 . S
C227 C226 1.477 . S
C227 H247 0.930 . S
C228 N224 1.362 . S
C228 C225 1.431 . S
C228 C238 1.476 . S
H229 C223 0.929 . S
C230 O221 1.250 . S
C230 O222 1.258 . S
O231 Mn216 2.162 . S
O231 C219 1.281 . S
O232 Mn216 2.297 . S
O232 C219 1.236 . S
N233 Mn217 2.282 . S
N233 C234 1.328 . S
N233 C238 1.318 . S
C234 N233 1.328 . S
C234 C235 1.457 . S
C234 H239 0.929 . S
C235 C234 1.457 . S
C235 C236 1.291 . S
C235 H248 0.931 . S
C236 C235 1.291 . S
C236 C237 1.373 . S
C236 H249 0.929 . S
C237 C236 1.373 . S
C237 C238 1.396 . S
C237 C244 1.403 . S
C238 C228 1.476 . S
C238 N233 1.318 . S
C238 C237 1.396 . S
H239 C234 0.929 . S
O240 Mn216 2.385 . S
O240 C218 1.234 . S
O241 Mn216 2.209 . S
O241 Mn217 2.215 . S
O241 C218 1.283 . S
O242 Mn216 2.094 . S
O242 C220 1.240 . S
O243 Mn217 2.117 . S
O243 C220 1.264 . S
C244 C237 1.403 . S
C244 C245 1.399 . S
C244 H250 0.929 . S
C245 C225 1.449 . S
C245 C244 1.399 . S
C245 H251 0.930 . S
H246 C226 0.931 . S
H247 C227 0.930 . S
H248 C235 0.931 . S
H249 C236 0.929 . S
H250 C244 0.929 . S
H251 C245 0.930 . S
Mn252 O257 2.072 1_655 S
Mn252 O267 2.159 1_655 S
Mn252 O268 2.294 . S
Mn252 O276 2.410 . S
Mn252 O277 2.220 . S
Mn252 O278 2.097 1_655 S
Mn253 O258 2.121 1_655 S
Mn253 N260 2.257 . S
Mn253 N269 2.282 . S
Mn253 O277 2.215 . S
Mn253 O279 2.117 1_655 S
C254 O276 1.234 . S
C254 O277 1.283 . S
C255 O267 1.281 1_655 S
C255 O268 1.236 . S
C256 O278 1.240 . S
C256 O279 1.264 . S
O257 Mn252 2.072 1_455 S
O257 C266 1.250 . S
O258 Mn253 2.121 1_455 S
O258 C266 1.258 . S
C259 N260 1.326 . S
C259 C263 1.460 . S
C259 H265 0.929 1_655 S
N260 Mn253 2.257 . S
N260 C259 1.326 . S
N260 C264 1.362 . S
C261 C262 1.258 . S
C261 C264 1.431 . S
C261 C281 1.449 . S
C262 C261 1.258 . S
C262 C263 1.477 . S
C262 H282 0.931 . S
C263 C259 1.460 . S
C263 C262 1.477 . S
C263 H283 0.930 . S
C264 N260 1.362 . S
C264 C261 1.431 . S
C264 C274 1.476 . S
H265 C259 0.929 1_455 S
C266 O257 1.250 . S
C266 O258 1.258 . S
O267 Mn252 2.159 1_455 S
O267 C255 1.281 1_455 S
O268 Mn252 2.294 . S
O268 C255 1.236 . S
N269 Mn253 2.282 . S
N269 C270 1.328 . S
N269 C274 1.318 . S
C270 N269 1.328 . S
C270 C271 1.457 . S
C270 H275 0.929 . S
C271 C270 1.457 . S
C271 C272 1.291 . S
C271 H284 0.931 . S
C272 C271 1.291 . S
C272 C273 1.373 . S
C272 H285 0.929 . S
C273 C272 1.373 . S
C273 C274 1.396 . S
C273 C280 1.403 . S
C274 C264 1.476 . S
C274 N269 1.318 . S
C274 C273 1.396 . S
H275 C270 0.929 . S
O276 Mn252 2.410 . S
O276 C254 1.234 . S
O277 Mn252 2.220 . S
O277 Mn253 2.215 . S
O277 C254 1.283 . S
O278 Mn252 2.097 1_455 S
O278 C256 1.240 . S
O279 Mn253 2.117 1_455 S
O279 C256 1.264 . S
C280 C273 1.403 . S
C280 C281 1.399 . S
C280 H286 0.929 . S
C281 C261 1.449 . S
C281 C280 1.399 . S
C281 H287 0.930 . S
H282 C262 0.931 . S
H283 C263 0.930 . S
H284 C271 0.931 . S
H285 C272 0.929 . S
H286 C280 0.929 . S
H287 C281 0.930 . S
Mn288 O293 2.095 . S
Mn288 O303 2.162 . S
Mn288 O304 2.297 . S
Mn288 O312 2.385 1_545 S
Mn288 O313 2.209 1_545 S
Mn288 O314 2.094 . S
Mn289 O294 2.121 . S
Mn289 N296 2.257 1_545 S
Mn289 N305 2.282 1_545 S
Mn289 O313 2.215 1_545 S
Mn289 O315 2.117 . S
C290 O312 1.234 . S
C290 O313 1.283 . S
C291 O303 1.281 . S
C291 O304 1.236 . S
C292 O314 1.240 . S
C292 O315 1.264 . S
O293 Mn288 2.095 . S
O293 C302 1.250 . S
O294 Mn289 2.121 . S
O294 C302 1.258 . S
C295 N296 1.326 . S
C295 C299 1.460 . S
C295 H301 0.929 1_565 S
N296 Mn289 2.257 1_565 S
N296 C295 1.326 . S
N296 C300 1.362 . S
C297 C298 1.258 . S
C297 C300 1.431 . S
C297 C317 1.449 . S
C298 C297 1.258 . S
C298 C299 1.477 . S
C298 H318 0.931 . S
C299 C295 1.460 . S
C299 C298 1.477 . S
C299 H319 0.930 . S
C300 N296 1.362 . S
C300 C297 1.431 . S
C300 C310 1.476 . S
H301 C295 0.929 1_545 S
C302 O293 1.250 . S
C302 O294 1.258 . S
O303 Mn288 2.162 . S
O303 C291 1.281 . S
O304 Mn288 2.297 . S
O304 C291 1.236 . S
N305 Mn289 2.282 1_565 S
N305 C306 1.328 . S
N305 C310 1.318 . S
C306 N305 1.328 . S
C306 C307 1.457 . S
C306 H311 0.929 . S
C307 C306 1.457 . S
C307 C308 1.291 . S
C307 H320 0.931 . S
C308 C307 1.291 . S
C308 C309 1.373 . S
C308 H321 0.929 . S
C309 C308 1.373 . S
C309 C310 1.396 . S
C309 C316 1.403 . S
C310 C300 1.476 . S
C310 N305 1.318 . S
C310 C309 1.396 . S
H311 C306 0.929 . S
O312 Mn288 2.385 1_565 S
O312 C290 1.234 . S
O313 Mn288 2.209 1_565 S
O313 Mn289 2.215 1_565 S
O313 C290 1.283 . S
O314 Mn288 2.094 . S
O314 C292 1.240 . S
O315 Mn289 2.117 . S
O315 C292 1.264 . S
C316 C309 1.403 . S
C316 C317 1.399 . S
C316 H322 0.929 . S
C317 C297 1.449 . S
C317 C316 1.399 . S
C317 H323 0.930 . S
H318 C298 0.931 . S
H319 C299 0.930 . S
H320 C307 0.931 . S
H321 C308 0.929 . S
H322 C316 0.929 . S
H323 C317 0.930 . S
Mn324 O329 2.095 . S
Mn324 O339 2.162 . S
Mn324 O340 2.297 . S
Mn324 O348 2.385 . S
Mn324 O349 2.209 . S
Mn324 O350 2.094 . S
Mn325 O330 2.121 . S
Mn325 N332 2.257 . S
Mn325 N341 2.282 . S
Mn325 O349 2.215 . S
Mn325 O351 2.117 . S
C326 O348 1.234 . S
C326 O349 1.283 . S
C327 O339 1.281 . S
C327 O340 1.236 . S
C328 O350 1.240 . S
C328 O351 1.264 . S
O329 Mn324 2.095 . S
O329 C338 1.250 . S
O330 Mn325 2.121 . S
O330 C338 1.258 . S
C331 N332 1.326 . S
C331 C335 1.460 . S
C331 H337 0.929 . S
N332 Mn325 2.257 . S
N332 C331 1.326 . S
N332 C336 1.362 . S
C333 C334 1.258 . S
C333 C336 1.431 . S
C333 C353 1.449 . S
C334 C333 1.258 . S
C334 C335 1.477 . S
C334 H354 0.931 . S
C335 C331 1.460 . S
C335 C334 1.477 . S
C335 H355 0.930 . S
C336 N332 1.362 . S
C336 C333 1.431 . S
C336 C346 1.476 . S
H337 C331 0.929 . S
C338 O329 1.250 . S
C338 O330 1.258 . S
O339 Mn324 2.162 . S
O339 C327 1.281 . S
O340 Mn324 2.297 . S
O340 C327 1.236 . S
N341 Mn325 2.282 . S
N341 C342 1.328 . S
N341 C346 1.318 . S
C342 N341 1.328 . S
C342 C343 1.457 . S
C342 H347 0.929 . S
C343 C342 1.457 . S
C343 C344 1.291 . S
C343 H356 0.931 . S
C344 C343 1.291 . S
C344 C345 1.373 . S
C344 H357 0.929 . S
C345 C344 1.373 . S
C345 C346 1.396 . S
C345 C352 1.403 . S
C346 C336 1.476 . S
C346 N341 1.318 . S
C346 C345 1.396 . S
H347 C342 0.929 . S
O348 Mn324 2.385 . S
O348 C326 1.234 . S
O349 Mn324 2.209 . S
O349 Mn325 2.215 . S
O349 C326 1.283 . S
O350 Mn324 2.094 . S
O350 C328 1.240 . S
O351 Mn325 2.117 . S
O351 C328 1.264 . S
C352 C345 1.403 . S
C352 C353 1.399 . S
C352 H358 0.929 . S
C353 C333 1.449 . S
C353 C352 1.399 . S
C353 H359 0.930 . S
H354 C334 0.931 . S
H355 C335 0.930 . S
H356 C343 0.931 . S
H357 C344 0.929 . S
H358 C352 0.929 . S
H359 C353 0.930 . S
Mn360 O365 2.095 . S
Mn360 O375 2.162 . S
Mn360 O376 2.297 . S
Mn360 O384 2.385 . S
Mn360 O385 2.209 . S
Mn360 O386 2.094 . S
Mn361 O366 2.121 . S
Mn361 N368 2.257 . S
Mn361 N377 2.282 . S
Mn361 O385 2.215 . S
Mn361 O387 2.117 . S
C362 O384 1.234 . S
C362 O385 1.283 . S
C363 O375 1.281 . S
C363 O376 1.236 . S
C364 O386 1.240 . S
C364 O387 1.264 . S
O365 Mn360 2.095 . S
O365 C374 1.250 . S
O366 Mn361 2.121 . S
O366 C374 1.258 . S
C367 N368 1.326 . S
C367 C371 1.460 . S
C367 H373 0.929 . S
N368 Mn361 2.257 . S
N368 C367 1.326 . S
N368 C372 1.362 . S
C369 C370 1.258 . S
C369 C372 1.431 . S
C369 C389 1.449 . S
C370 C369 1.258 . S
C370 C371 1.477 . S
C370 H390 0.931 . S
C371 C367 1.460 . S
C371 C370 1.477 . S
C371 H391 0.930 . S
C372 N368 1.362 . S
C372 C369 1.431 . S
C372 C382 1.476 . S
H373 C367 0.929 . S
C374 O365 1.250 . S
C374 O366 1.258 . S
O375 Mn360 2.162 . S
O375 C363 1.281 . S
O376 Mn360 2.297 . S
O376 C363 1.236 . S
N377 Mn361 2.282 . S
N377 C378 1.328 . S
N377 C382 1.318 . S
C378 N377 1.328 . S
C378 C379 1.457 . S
C378 H383 0.929 . S
C379 C378 1.457 . S
C379 C380 1.291 . S
C379 H392 0.931 . S
C380 C379 1.291 . S
C380 C381 1.373 . S
C380 H393 0.929 . S
C381 C380 1.373 . S
C381 C382 1.396 . S
C381 C388 1.403 . S
C382 C372 1.476 . S
C382 N377 1.318 . S
C382 C381 1.396 . S
H383 C378 0.929 . S
O384 Mn360 2.385 . S
O384 C362 1.234 . S
O385 Mn360 2.209 . S
O385 Mn361 2.215 . S
O385 C362 1.283 . S
O386 Mn360 2.094 . S
O386 C364 1.240 . S
O387 Mn361 2.117 . S
O387 C364 1.264 . S
C388 C381 1.403 . S
C388 C389 1.399 . S
C388 H394 0.929 . S
C389 C369 1.449 . S
C389 C388 1.399 . S
C389 H395 0.930 . S
H390 C370 0.931 . S
H391 C371 0.930 . S
H392 C379 0.931 . S
H393 C380 0.929 . S
H394 C388 0.929 . S
H395 C389 0.930 . S
Mn396 O401 2.095 1_554 S
Mn396 O411 2.162 . S
Mn396 O412 2.297 . S
Mn396 O420 2.385 . S
Mn396 O421 2.207 1_554 S
Mn396 O422 2.094 1_554 S
Mn397 O402 2.121 . S
Mn397 N404 2.281 . S
Mn397 N413 2.282 . S
Mn397 O421 2.219 . S
Mn397 O423 2.117 . S
C398 O420 1.234 . S
C398 O421 1.283 1_554 S
C399 O411 1.281 . S
C399 O412 1.236 . S
C400 O422 1.240 . S
C400 O423 1.264 . S
O401 Mn396 2.095 1_556 S
O401 C410 1.250 . S
O402 Mn397 2.121 . S
O402 C410 1.258 . S
C403 N404 1.308 1_545 S
C403 C407 1.460 . S
C403 H409 0.929 . S
N404 Mn397 2.281 . S
N404 C403 1.308 1_565 S
N404 C408 1.358 1_565 S
C405 C406 1.258 . S
C405 C408 1.431 . S
C405 C425 1.449 . S
C406 C405 1.258 . S
C406 C407 1.477 . S
C406 H426 0.931 . S
C407 C403 1.460 . S
C407 C406 1.477 . S
C407 H427 0.930 . S
C408 N404 1.358 1_545 S
C408 C405 1.431 . S
C408 C418 1.476 1_545 S
H409 C403 0.929 . S
C410 O401 1.250 . S
C410 O402 1.258 . S
O411 Mn396 2.162 . S
O411 C399 1.281 . S
O412 Mn396 2.297 . S
O412 C399 1.236 . S
N413 Mn397 2.282 . S
N413 C414 1.328 . S
N413 C418 1.318 . S
C414 N413 1.328 . S
C414 C415 1.457 . S
C414 H419 0.929 . S
C415 C414 1.457 . S
C415 C416 1.291 . S
C415 H428 0.931 . S
C416 C415 1.291 . S
C416 C417 1.373 . S
C416 H429 0.929 . S
C417 C416 1.373 . S
C417 C418 1.396 . S
C417 C424 1.403 1_565 S
C418 C408 1.476 1_565 S
C418 N413 1.318 . S
C418 C417 1.396 . S
H419 C414 0.929 . S
O420 Mn396 2.385 . S
O420 C398 1.234 . S
O421 Mn396 2.207 1_556 S
O421 Mn397 2.219 . S
O421 C398 1.283 1_556 S
O422 Mn396 2.094 1_556 S
O422 C400 1.240 . S
O423 Mn397 2.117 . S
O423 C400 1.264 . S
C424 C417 1.403 1_545 S
C424 C425 1.399 . S
C424 H430 0.929 . S
C425 C405 1.449 . S
C425 C424 1.399 . S
C425 H431 0.930 . S
H426 C406 0.931 . S
H427 C407 0.930 . S
H428 C415 0.931 . S
H429 C416 0.929 . S
H430 C424 0.929 . S
H431 C425 0.930 . S
Mn432 O437 2.095 . S
Mn432 O447 2.162 . S
Mn432 O448 2.297 . S
Mn432 O456 2.385 . S
Mn432 O457 2.209 . S
Mn432 O458 2.094 . S
Mn433 O438 2.121 . S
Mn433 N440 2.257 . S
Mn433 N449 2.282 1_554 S
Mn433 O457 2.215 . S
Mn433 O459 2.117 1_554 S
C434 O456 1.234 . S
C434 O457 1.283 . S
C435 O447 1.281 . S
C435 O448 1.236 . S
C436 O458 1.240 1_556 S
C436 O459 1.264 . S
O437 Mn432 2.095 . S
O437 C446 1.250 . S
O438 Mn433 2.121 . S
O438 C446 1.258 . S
C439 N440 1.326 . S
C439 C443 1.460 . S
C439 H445 0.929 . S
N440 Mn433 2.257 . S
N440 C439 1.326 . S
N440 C444 1.362 . S
C441 C442 1.258 . S
C441 C444 1.431 . S
C441 C461 1.449 . S
C442 C441 1.258 . S
C442 C443 1.477 . S
C442 H462 0.931 . S
C443 C439 1.460 . S
C443 C442 1.477 . S
C443 H463 0.930 . S
C444 N440 1.362 . S
C444 C441 1.431 . S
C444 C454 1.476 1_554 S
H445 C439 0.929 . S
C446 O437 1.250 . S
C446 O438 1.258 . S
O447 Mn432 2.162 . S
O447 C435 1.281 . S
O448 Mn432 2.297 . S
O448 C435 1.236 . S
N449 Mn433 2.282 1_556 S
N449 C450 1.328 . S
N449 C454 1.318 . S
C450 N449 1.328 . S
C450 C451 1.457 . S
C450 H455 0.929 . S
C451 C450 1.457 . S
C451 C452 1.291 . S
C451 H464 0.931 . S
C452 C451 1.291 . S
C452 C453 1.373 . S
C452 H465 0.929 . S
C453 C452 1.373 . S
C453 C454 1.396 . S
C453 C460 1.403 . S
C454 C444 1.476 1_556 S
C454 N449 1.318 . S
C454 C453 1.396 . S
H455 C450 0.929 . S
O456 Mn432 2.385 . S
O456 C434 1.234 . S
O457 Mn432 2.209 . S
O457 Mn433 2.215 . S
O457 C434 1.283 . S
O458 Mn432 2.094 . S
O458 C436 1.240 1_554 S
O459 Mn433 2.117 1_556 S
O459 C436 1.264 . S
C460 C453 1.403 . S
C460 C461 1.399 1_556 S
C460 H466 0.929 . S
C461 C441 1.449 . S
C461 C460 1.399 1_554 S
C461 H467 0.930 . S
H462 C442 0.931 . S
H463 C443 0.930 . S
H464 C451 0.931 . S
H465 C452 0.929 . S
H466 C460 0.929 . S
H467 C461 0.930 . S
Mn468 O473 2.095 . S
Mn468 O483 2.162 . S
Mn468 O484 2.297 . S
Mn468 O492 2.385 . S
Mn468 O493 2.209 . S
Mn468 O494 2.094 . S
Mn469 O474 2.121 . S
Mn469 N476 2.257 . S
Mn469 N485 2.282 1_554 S
Mn469 O493 2.215 . S
Mn469 O495 2.117 . S
C470 O492 1.234 . S
C470 O493 1.283 . S
C471 O483 1.281 . S
C471 O484 1.236 . S
C472 O494 1.240 . S
C472 O495 1.264 . S
O473 Mn468 2.095 . S
O473 C482 1.250 . S
O474 Mn469 2.121 . S
O474 C482 1.258 . S
C475 N476 1.326 . S
C475 C479 1.460 . S
C475 H481 0.929 . S
N476 Mn469 2.257 . S
N476 C475 1.326 . S
N476 C480 1.362 . S
C477 C478 1.258 . S
C477 C480 1.431 . S
C477 C497 1.449 1_554 S
C478 C477 1.258 . S
C478 C479 1.477 . S
C478 H498 0.931 1_545 S
C479 C475 1.460 . S
C479 C478 1.477 . S
C479 H499 0.930 . S
C480 N476 1.362 . S
C480 C477 1.431 . S
C480 C490 1.476 1_554 S
H481 C475 0.929 . S
C482 O473 1.250 . S
C482 O474 1.258 . S
O483 Mn468 2.162 . S
O483 C471 1.281 . S
O484 Mn468 2.297 . S
O484 C471 1.236 . S
N485 Mn469 2.282 1_556 S
N485 C486 1.328 . S
N485 C490 1.318 . S
C486 N485 1.328 . S
C486 C487 1.457 . S
C486 H491 0.929 . S
C487 C486 1.457 . S
C487 C488 1.291 . S
C487 H500 0.931 . S
C488 C487 1.291 . S
C488 C489 1.373 . S
C488 H501 0.929 . S
C489 C488 1.373 . S
C489 C490 1.396 . S
C489 C496 1.403 . S
C490 C480 1.476 1_556 S
C490 N485 1.318 . S
C490 C489 1.396 . S
H491 C486 0.929 . S
O492 Mn468 2.385 . S
O492 C470 1.234 . S
O493 Mn468 2.209 . S
O493 Mn469 2.215 . S
O493 C470 1.283 . S
O494 Mn468 2.094 . S
O494 C472 1.240 . S
O495 Mn469 2.117 . S
O495 C472 1.264 . S
C496 C489 1.403 . S
C496 C497 1.399 . S
C496 H502 0.929 . S
C497 C477 1.449 1_556 S
C497 C496 1.399 . S
C497 H503 0.930 . S
H498 C478 0.931 1_565 S
H499 C479 0.930 . S
H500 C487 0.931 . S
H501 C488 0.929 . S
H502 C496 0.929 . S
H503 C497 0.930 . S
Mn504 O509 2.095 . S
Mn504 O519 2.162 . S
Mn504 O520 2.297 . S
Mn504 O528 2.385 . S
Mn504 O529 2.209 . S
Mn504 O530 2.094 . S
Mn505 O510 2.121 . S
Mn505 N512 2.257 . S
Mn505 N521 2.282 . S
Mn505 O529 2.215 . S
Mn505 O531 2.117 . S
C506 O528 1.234 . S
C506 O529 1.283 . S
C507 O519 1.281 . S
C507 O520 1.236 . S
C508 O530 1.240 . S
C508 O531 1.264 . S
O509 Mn504 2.095 . S
O509 C518 1.250 . S
O510 Mn505 2.121 . S
O510 C518 1.258 . S
C511 N512 1.326 . S
C511 C515 1.460 . S
C511 H517 0.929 . S
N512 Mn505 2.257 . S
N512 C511 1.326 . S
N512 C516 1.362 . S
C513 C514 1.258 . S
C513 C516 1.431 . S
C513 C533 1.449 . S
C514 C513 1.258 . S
C514 C515 1.477 . S
C514 H534 0.931 . S
C515 C511 1.460 . S
C515 C514 1.477 . S
C515 H535 0.930 . S
C516 N512 1.362 . S
C516 C513 1.431 . S
C516 C526 1.476 . S
H517 C511 0.929 . S
C518 O509 1.250 . S
C518 O510 1.258 . S
O519 Mn504 2.162 . S
O519 C507 1.281 . S
O520 Mn504 2.297 . S
O520 C507 1.236 . S
N521 Mn505 2.282 . S
N521 C522 1.328 . S
N521 C526 1.318 . S
C522 N521 1.328 . S
C522 C523 1.457 . S
C522 H527 0.929 . S
C523 C522 1.457 . S
C523 C524 1.291 . S
C523 H536 0.931 . S
C524 C523 1.291 . S
C524 C525 1.373 . S
C524 H537 0.929 . S
C525 C524 1.373 . S
C525 C526 1.396 . S
C525 C532 1.403 . S
C526 C516 1.476 . S
C526 N521 1.318 . S
C526 C525 1.396 . S
H527 C522 0.929 . S
O528 Mn504 2.385 . S
O528 C506 1.234 . S
O529 Mn504 2.209 . S
O529 Mn505 2.215 . S
O529 C506 1.283 . S
O530 Mn504 2.094 . S
O530 C508 1.240 . S
O531 Mn505 2.117 . S
O531 C508 1.264 . S
C532 C525 1.403 . S
C532 C533 1.399 . S
C532 H538 0.929 . S
C533 C513 1.449 . S
C533 C532 1.399 . S
C533 H539 0.930 . S
H534 C514 0.931 . S
H535 C515 0.930 . S
H536 C523 0.931 . S
H537 C524 0.929 . S
H538 C532 0.929 . S
H539 C533 0.930 . S
Mn540 O545 2.095 . S
Mn540 O555 2.162 . S
Mn540 O556 2.297 . S
Mn540 O564 2.385 . S
Mn540 O565 2.209 . S
Mn540 O566 2.094 . S
Mn541 O546 2.121 . S
Mn541 N548 2.257 . S
Mn541 N557 2.282 . S
Mn541 O565 2.215 . S
Mn541 O567 2.117 . S
C542 O564 1.234 . S
C542 O565 1.283 . S
C543 O555 1.281 . S
C543 O556 1.236 . S
C544 O566 1.240 . S
C544 O567 1.264 . S
O545 Mn540 2.095 . S
O545 C554 1.250 . S
O546 Mn541 2.121 . S
O546 C554 1.258 . S
C547 N548 1.326 . S
C547 C551 1.460 . S
C547 H553 0.929 . S
N548 Mn541 2.257 . S
N548 C547 1.326 . S
N548 C552 1.362 . S
C549 C550 1.232 1_565 S
C549 C552 1.431 . S
C549 C569 1.449 . S
C550 C549 1.232 1_545 S
C550 C551 1.473 1_545 S
C550 H570 0.961 . S
C551 C547 1.460 . S
C551 C550 1.473 1_565 S
C551 H571 0.930 1_565 S
C552 N548 1.362 . S
C552 C549 1.431 . S
C552 C562 1.476 . S
H553 C547 0.929 . S
C554 O545 1.250 . S
C554 O546 1.258 . S
O555 Mn540 2.162 . S
O555 C543 1.281 . S
O556 Mn540 2.297 . S
O556 C543 1.236 . S
N557 Mn541 2.282 . S
N557 C558 1.328 . S
N557 C562 1.318 . S
C558 N557 1.328 . S
C558 C559 1.457 . S
C558 H563 0.929 . S
C559 C558 1.457 . S
C559 C560 1.291 . S
C559 H572 0.931 . S
C560 C559 1.291 . S
C560 C561 1.373 . S
C560 H573 0.929 . S
C561 C560 1.373 . S
C561 C562 1.396 . S
C561 C568 1.403 . S
C562 C552 1.476 . S
C562 N557 1.318 . S
C562 C561 1.396 . S
H563 C558 0.929 . S
O564 Mn540 2.385 . S
O564 C542 1.234 . S
O565 Mn540 2.209 . S
O565 Mn541 2.215 . S
O565 C542 1.283 . S
O566 Mn540 2.094 . S
O566 C544 1.240 . S
O567 Mn541 2.117 . S
O567 C544 1.264 . S
C568 C561 1.403 . S
C568 C569 1.399 . S
C568 H574 0.929 . S
C569 C549 1.449 . S
C569 C568 1.399 . S
C569 H575 0.930 1_565 S
H570 C550 0.961 . S
H571 C551 0.930 1_545 S
H572 C559 0.931 . S
H573 C560 0.929 . S
H574 C568 0.929 . S
H575 C569 0.930 1_545 S
Mn576 O581 2.095 . S
Mn576 O591 2.162 . S
Mn576 O592 2.297 . S
Mn576 O600 2.385 1_545 S
Mn576 O601 2.209 1_545 S
Mn576 O602 2.094 . S
Mn577 O582 2.121 . S
Mn577 N584 2.257 1_545 S
Mn577 N593 2.282 1_545 S
Mn577 O601 2.215 1_545 S
Mn577 O603 2.117 . S
C578 O600 1.234 . S
C578 O601 1.283 . S
C579 O591 1.281 . S
C579 O592 1.236 . S
C580 O602 1.240 . S
C580 O603 1.264 . S
O581 Mn576 2.095 . S
O581 C590 1.250 . S
O582 Mn577 2.121 . S
O582 C590 1.258 . S
C583 N584 1.326 1_545 S
C583 C587 1.460 1_545 S
C583 H589 0.929 . S
N584 Mn577 2.257 1_565 S
N584 C583 1.326 1_565 S
N584 C588 1.362 . S
C585 C586 1.258 . S
C585 C588 1.431 . S
C585 C605 1.449 . S
C586 C585 1.258 . S
C586 C587 1.477 . S
C586 H606 0.931 . S
C587 C583 1.460 1_565 S
C587 C586 1.477 . S
C587 H607 0.911 1_565 S
C588 N584 1.362 . S
C588 C585 1.431 . S
C588 C598 1.476 . S
H589 C583 0.929 . S
C590 O581 1.250 . S
C590 O582 1.258 . S
O591 Mn576 2.162 . S
O591 C579 1.281 . S
O592 Mn576 2.297 . S
O592 C579 1.236 . S
N593 Mn577 2.282 1_565 S
N593 C594 1.328 . S
N593 C598 1.318 . S
C594 N593 1.328 . S
C594 C595 1.457 . S
C594 H599 0.929 . S
C595 C594 1.457 . S
C595 C596 1.291 . S
C595 H608 0.931 . S
C596 C595 1.291 . S
C596 C597 1.373 . S
C596 H609 0.929 . S
C597 C596 1.373 . S
C597 C598 1.396 . S
C597 C604 1.403 . S
C598 C588 1.476 . S
C598 N593 1.318 . S
C598 C597 1.396 . S
H599 C594 0.929 . S
O600 Mn576 2.385 1_565 S
O600 C578 1.234 . S
O601 Mn576 2.209 1_565 S
O601 Mn577 2.215 1_565 S
O601 C578 1.283 . S
O602 Mn576 2.094 . S
O602 C580 1.240 . S
O603 Mn577 2.117 . S
O603 C580 1.264 . S
C604 C597 1.403 . S
C604 C605 1.399 . S
C604 H610 0.929 . S
C605 C585 1.449 . S
C605 C604 1.399 . S
C605 H611 0.930 . S
H606 C586 0.931 . S
H607 C587 0.911 1_545 S
H608 C595 0.931 . S
H609 C596 0.929 . S
H610 C604 0.929 . S
H611 C605 0.930 . S
Mn612 O617 2.095 . S
Mn612 O627 2.162 . S
Mn612 O628 2.297 . S
Mn612 O636 2.385 . S
Mn612 O637 2.209 . S
Mn612 O638 2.094 . S
Mn613 O618 2.121 . S
Mn613 N620 2.257 . S
Mn613 N629 2.282 . S
Mn613 O637 2.215 . S
Mn613 O639 2.117 . S
C614 O636 1.234 . S
C614 O637 1.283 . S
C615 O627 1.281 . S
C615 O628 1.236 . S
C616 O638 1.240 . S
C616 O639 1.264 . S
O617 Mn612 2.095 . S
O617 C626 1.250 . S
O618 Mn613 2.121 . S
O618 C626 1.258 . S
C619 N620 1.326 . S
C619 C623 1.460 . S
C619 H625 0.929 . S
N620 Mn613 2.257 . S
N620 C619 1.326 . S
N620 C624 1.362 . S
C621 C622 1.258 . S
C621 C624 1.431 . S
C621 C641 1.449 . S
C622 C621 1.258 . S
C622 C623 1.477 . S
C622 H642 0.931 . S
C623 C619 1.460 . S
C623 C622 1.477 . S
C623 H643 0.930 . S
C624 N620 1.362 . S
C624 C621 1.431 . S
C624 C634 1.476 . S
H625 C619 0.929 . S
C626 O617 1.250 . S
C626 O618 1.258 . S
O627 Mn612 2.162 . S
O627 C615 1.281 . S
O628 Mn612 2.297 . S
O628 C615 1.236 . S
N629 Mn613 2.282 . S
N629 C630 1.328 . S
N629 C634 1.318 . S
C630 N629 1.328 . S
C630 C631 1.457 . S
C630 H635 0.929 . S
C631 C630 1.457 . S
C631 C632 1.291 . S
C631 H644 0.931 . S
C632 C631 1.291 . S
C632 C633 1.373 . S
C632 H645 0.929 . S
C633 C632 1.373 . S
C633 C634 1.396 . S
C633 C640 1.403 . S
C634 C624 1.476 . S
C634 N629 1.318 . S
C634 C633 1.396 . S
H635 C630 0.929 . S
O636 Mn612 2.385 . S
O636 C614 1.234 . S
O637 Mn612 2.209 . S
O637 Mn613 2.215 . S
O637 C614 1.283 . S
O638 Mn612 2.094 . S
O638 C616 1.240 . S
O639 Mn613 2.117 . S
O639 C616 1.264 . S
C640 C633 1.403 . S
C640 C641 1.399 . S
C640 H646 0.929 . S
C641 C621 1.449 . S
C641 C640 1.399 . S
C641 H647 0.930 . S
H642 C622 0.931 . S
H643 C623 0.930 . S
H644 C631 0.931 . S
H645 C632 0.929 . S
H646 C640 0.929 . S
H647 C641 0.930 . S
Mn648 O653 2.095 . S
Mn648 O663 2.162 . S
Mn648 O664 2.297 . S
Mn648 O672 2.385 . S
Mn648 O673 2.209 . S
Mn648 O674 2.094 . S
Mn649 O654 2.121 . S
Mn649 N656 2.257 . S
Mn649 N665 2.282 . S
Mn649 O673 2.215 . S
Mn649 O675 2.117 . S
C650 O672 1.234 . S
C650 O673 1.283 . S
C651 O663 1.281 . S
C651 O664 1.236 . S
C652 O674 1.240 . S
C652 O675 1.264 . S
O653 Mn648 2.095 . S
O653 C662 1.250 . S
O654 Mn649 2.121 . S
O654 C662 1.258 . S
C655 N656 1.326 . S
C655 C659 1.460 . S
C655 H661 0.929 . S
N656 Mn649 2.257 . S
N656 C655 1.326 . S
N656 C660 1.362 . S
C657 C658 1.258 . S
C657 C660 1.431 . S
C657 C677 1.449 . S
C658 C657 1.258 . S
C658 C659 1.477 . S
C658 H678 0.931 . S
C659 C655 1.460 . S
C659 C658 1.477 . S
C659 H679 0.930 . S
C660 N656 1.362 . S
C660 C657 1.431 . S
C660 C670 1.476 . S
H661 C655 0.929 . S
C662 O653 1.250 . S
C662 O654 1.258 . S
O663 Mn648 2.162 . S
O663 C651 1.281 . S
O664 Mn648 2.297 . S
O664 C651 1.236 . S
N665 Mn649 2.282 . S
N665 C666 1.328 . S
N665 C670 1.318 . S
C666 N665 1.328 . S
C666 C667 1.457 . S
C666 H671 0.929 . S
C667 C666 1.457 . S
C667 C668 1.291 . S
C667 H680 0.931 . S
C668 C667 1.291 . S
C668 C669 1.373 . S
C668 H681 0.929 . S
C669 C668 1.373 . S
C669 C670 1.396 . S
C669 C676 1.403 . S
C670 C660 1.476 . S
C670 N665 1.318 . S
C670 C669 1.396 . S
H671 C666 0.929 . S
O672 Mn648 2.385 . S
O672 C650 1.234 . S
O673 Mn648 2.209 . S
O673 Mn649 2.215 . S
O673 C650 1.283 . S
O674 Mn648 2.094 . S
O674 C652 1.240 . S
O675 Mn649 2.117 . S
O675 C652 1.264 . S
C676 C669 1.403 . S
C676 C677 1.399 . S
C676 H682 0.929 . S
C677 C657 1.449 . S
C677 C676 1.399 . S
C677 H683 0.930 . S
H678 C658 0.931 . S
H679 C659 0.930 . S
H680 C667 0.931 . S
H681 C668 0.929 . S
H682 C676 0.929 . S
H683 C677 0.930 . S
Mn684 O689 2.095 . S
Mn684 O699 2.162 . S
Mn684 O700 2.297 . S
Mn684 O708 2.385 . S
Mn684 O709 2.209 . S
Mn684 O710 2.094 . S
Mn685 O690 2.121 . S
Mn685 N692 2.257 . S
Mn685 N701 2.282 . S
Mn685 O709 2.215 . S
Mn685 O711 2.117 . S
C686 O708 1.234 . S
C686 O709 1.283 . S
C687 O699 1.281 . S
C687 O700 1.236 . S
C688 O710 1.240 . S
C688 O711 1.264 . S
O689 Mn684 2.095 . S
O689 C698 1.250 . S
O690 Mn685 2.121 . S
O690 C698 1.258 . S
C691 N692 1.326 . S
C691 C695 1.460 . S
C691 H697 0.929 . S
N692 Mn685 2.257 . S
N692 C691 1.326 . S
N692 C696 1.362 . S
C693 C694 1.258 . S
C693 C696 1.431 . S
C693 C713 1.449 . S
C694 C693 1.258 . S
C694 C695 1.477 . S
C694 H714 0.931 . S
C695 C691 1.460 . S
C695 C694 1.477 . S
C695 H715 0.930 . S
C696 N692 1.362 . S
C696 C693 1.431 . S
C696 C706 1.476 . S
H697 C691 0.929 . S
C698 O689 1.250 . S
C698 O690 1.258 . S
O699 Mn684 2.162 . S
O699 C687 1.281 . S
O700 Mn684 2.297 . S
O700 C687 1.236 . S
N701 Mn685 2.282 . S
N701 C702 1.328 . S
N701 C706 1.318 . S
C702 N701 1.328 . S
C702 C703 1.457 . S
C702 H707 0.929 . S
C703 C702 1.457 . S
C703 C704 1.291 . S
C703 H716 0.931 . S
C704 C703 1.291 . S
C704 C705 1.373 . S
C704 H717 0.929 . S
C705 C704 1.373 . S
C705 C706 1.396 . S
C705 C712 1.403 . S
C706 C696 1.476 . S
C706 N701 1.318 . S
C706 C705 1.396 . S
H707 C702 0.929 . S
O708 Mn684 2.385 . S
O708 C686 1.234 . S
O709 Mn684 2.209 . S
O709 Mn685 2.215 . S
O709 C686 1.283 . S
O710 Mn684 2.094 . S
O710 C688 1.240 . S
O711 Mn685 2.117 . S
O711 C688 1.264 . S
C712 C705 1.403 . S
C712 C713 1.399 . S
C712 H718 0.929 . S
C713 C693 1.449 . S
C713 C712 1.399 . S
C713 H719 0.930 . S
H714 C694 0.931 . S
H715 C695 0.930 . S
H716 C703 0.931 . S
H717 C704 0.929 . S
H718 C712 0.929 . S
H719 C713 0.930 . S
Mn720 O725 2.095 . S
Mn720 O735 2.162 . S
Mn720 O736 2.297 . S
Mn720 O744 2.385 . S
Mn720 O745 2.209 . S
Mn720 O746 2.094 1_554 S
Mn721 O726 2.121 . S
Mn721 N728 2.257 . S
Mn721 N737 2.282 . S
Mn721 O745 2.215 1_556 S
Mn721 O747 2.117 . S
C722 O744 1.234 . S
C722 O745 1.283 . S
C723 O735 1.281 . S
C723 O736 1.236 . S
C724 O746 1.240 . S
C724 O747 1.264 . S
O725 Mn720 2.095 . S
O725 C734 1.250 . S
O726 Mn721 2.121 . S
O726 C734 1.258 1_556 S
C727 N728 1.326 . S
C727 C731 1.460 . S
C727 H733 0.929 . S
N728 Mn721 2.257 . S
N728 C727 1.326 . S
N728 C732 1.362 . S
C729 C730 1.258 . S
C729 C732 1.431 . S
C729 C749 1.449 . S
C730 C729 1.258 . S
C730 C731 1.477 . S
C730 H750 0.931 . S
C731 C727 1.460 . S
C731 C730 1.477 . S
C731 H751 0.930 . S
C732 N728 1.362 . S
C732 C729 1.431 . S
C732 C742 1.476 . S
H733 C727 0.929 . S
C734 O725 1.250 . S
C734 O726 1.258 1_554 S
O735 Mn720 2.162 . S
O735 C723 1.281 . S
O736 Mn720 2.297 . S
O736 C723 1.236 . S
N737 Mn721 2.282 . S
N737 C738 1.328 . S
N737 C742 1.318 . S
C738 N737 1.328 . S
C738 C739 1.457 . S
C738 H743 0.929 . S
C739 C738 1.457 . S
C739 C740 1.291 . S
C739 H752 0.931 . S
C740 C739 1.291 . S
C740 C741 1.373 . S
C740 H753 0.929 . S
C741 C740 1.373 . S
C741 C742 1.396 . S
C741 C748 1.403 . S
C742 C732 1.476 . S
C742 N737 1.318 . S
C742 C741 1.396 . S
H743 C738 0.929 . S
O744 Mn720 2.385 . S
O744 C722 1.234 . S
O745 Mn720 2.209 . S
O745 Mn721 2.215 1_554 S
O745 C722 1.283 . S
O746 Mn720 2.094 1_556 S
O746 C724 1.240 . S
O747 Mn721 2.117 . S
O747 C724 1.264 . S
C748 C741 1.403 . S
C748 C749 1.399 . S
C748 H754 0.929 . S
C749 C729 1.449 . S
C749 C748 1.399 . S
C749 H755 0.930 . S
H750 C730 0.931 . S
H751 C731 0.930 . S
H752 C739 0.931 . S
H753 C740 0.929 . S
H754 C748 0.929 . S
H755 C749 0.930 . S
Mn756 O761 2.095 . S
Mn756 O771 2.162 . S
Mn756 O772 2.297 . S
Mn756 O780 2.385 . S
Mn756 O781 2.209 . S
Mn756 O782 2.094 . S
Mn757 O762 2.121 . S
Mn757 N764 2.257 . S
Mn757 N773 2.282 . S
Mn757 O781 2.215 . S
Mn757 O783 2.117 . S
C758 O780 1.234 . S
C758 O781 1.283 . S
C759 O771 1.281 . S
C759 O772 1.236 . S
C760 O782 1.240 . S
C760 O783 1.264 . S
O761 Mn756 2.095 . S
O761 C770 1.250 . S
O762 Mn757 2.121 . S
O762 C770 1.258 . S
C763 N764 1.326 . S
C763 C767 1.460 . S
C763 H769 0.929 . S
N764 Mn757 2.257 . S
N764 C763 1.326 . S
N764 C768 1.362 . S
C765 C766 1.258 . S
C765 C768 1.431 . S
C765 C785 1.449 . S
C766 C765 1.258 . S
C766 C767 1.477 . S
C766 H786 0.931 . S
C767 C763 1.460 . S
C767 C766 1.477 . S
C767 H787 0.930 . S
C768 N764 1.362 . S
C768 C765 1.431 . S
C768 C778 1.476 . S
H769 C763 0.929 . S
C770 O761 1.250 . S
C770 O762 1.258 . S
O771 Mn756 2.162 . S
O771 C759 1.281 . S
O772 Mn756 2.297 . S
O772 C759 1.236 . S
N773 Mn757 2.282 . S
N773 C774 1.328 . S
N773 C778 1.318 . S
C774 N773 1.328 . S
C774 C775 1.457 . S
C774 H779 0.929 . S
C775 C774 1.457 . S
C775 C776 1.291 . S
C775 H788 0.931 . S
C776 C775 1.291 . S
C776 C777 1.373 . S
C776 H789 0.929 . S
C777 C776 1.373 . S
C777 C778 1.396 . S
C777 C784 1.403 . S
C778 C768 1.476 . S
C778 N773 1.318 . S
C778 C777 1.396 . S
H779 C774 0.929 . S
O780 Mn756 2.385 . S
O780 C758 1.234 . S
O781 Mn756 2.209 . S
O781 Mn757 2.215 . S
O781 C758 1.283 . S
O782 Mn756 2.094 . S
O782 C760 1.240 . S
O783 Mn757 2.117 . S
O783 C760 1.264 . S
C784 C777 1.403 . S
C784 C785 1.399 . S
C784 H790 0.929 . S
C785 C765 1.449 . S
C785 C784 1.399 . S
C785 H791 0.930 . S
H786 C766 0.931 . S
H787 C767 0.930 . S
H788 C775 0.931 . S
H789 C776 0.929 . S
H790 C784 0.929 . S
H791 C785 0.930 . S
Mn792 O797 2.095 . S
Mn792 O807 2.162 . S
Mn792 O808 2.297 . S
Mn792 O816 2.385 . S
Mn792 O817 2.209 . S
Mn792 O818 2.094 . S
Mn793 O798 2.121 . S
Mn793 N800 2.257 . S
Mn793 N809 2.282 . S
Mn793 O817 2.215 . S
Mn793 O819 2.117 . S
C794 O816 1.234 . S
C794 O817 1.283 . S
C795 O807 1.281 . S
C795 O808 1.236 . S
C796 O818 1.240 . S
C796 O819 1.264 . S
O797 Mn792 2.095 . S
O797 C806 1.250 . S
O798 Mn793 2.121 . S
O798 C806 1.258 . S
C799 N800 1.326 . S
C799 C803 1.460 . S
C799 H805 0.929 . S
N800 Mn793 2.257 . S
N800 C799 1.326 . S
N800 C804 1.362 . S
C801 C802 1.258 . S
C801 C804 1.431 . S
C801 C821 1.449 . S
C802 C801 1.258 . S
C802 C803 1.477 . S
C802 H822 0.931 . S
C803 C799 1.460 . S
C803 C802 1.477 . S
C803 H823 0.930 . S
C804 N800 1.362 . S
C804 C801 1.431 . S
C804 C814 1.476 . S
H805 C799 0.929 . S
C806 O797 1.250 . S
C806 O798 1.258 . S
O807 Mn792 2.162 . S
O807 C795 1.281 . S
O808 Mn792 2.297 . S
O808 C795 1.236 . S
N809 Mn793 2.282 . S
N809 C810 1.328 . S
N809 C814 1.318 . S
C810 N809 1.328 . S
C810 C811 1.457 . S
C810 H815 0.929 . S
C811 C810 1.457 . S
C811 C812 1.291 . S
C811 H824 0.931 . S
C812 C811 1.291 . S
C812 C813 1.373 . S
C812 H825 0.929 . S
C813 C812 1.373 . S
C813 C814 1.396 . S
C813 C820 1.403 . S
C814 C804 1.476 . S
C814 N809 1.318 . S
C814 C813 1.396 . S
H815 C810 0.929 . S
O816 Mn792 2.385 . S
O816 C794 1.234 . S
O817 Mn792 2.209 . S
O817 Mn793 2.215 . S
O817 C794 1.283 . S
O818 Mn792 2.094 . S
O818 C796 1.240 . S
O819 Mn793 2.117 . S
O819 C796 1.264 . S
C820 C813 1.403 . S
C820 C821 1.399 . S
C820 H826 0.929 . S
C821 C801 1.449 . S
C821 C820 1.399 . S
C821 H827 0.930 . S
H822 C802 0.931 . S
H823 C803 0.930 . S
H824 C811 0.931 . S
H825 C812 0.929 . S
H826 C820 0.929 . S
H827 C821 0.930 . S
Mn828 O833 2.095 . S
Mn828 O843 2.162 . S
Mn828 O844 2.297 . S
Mn828 O852 2.385 . S
Mn828 O853 2.209 . S
Mn828 O854 2.094 . S
Mn829 O834 2.121 . S
Mn829 N836 2.257 . S
Mn829 N845 2.282 . S
Mn829 O853 2.215 . S
Mn829 O855 2.117 . S
C830 O852 1.234 . S
C830 O853 1.283 . S
C831 O843 1.281 . S
C831 O844 1.236 . S
C832 O854 1.240 . S
C832 O855 1.264 . S
O833 Mn828 2.095 . S
O833 C842 1.250 . S
O834 Mn829 2.121 . S
O834 C842 1.258 . S
C835 N836 1.326 . S
C835 C839 1.460 . S
C835 H841 0.929 . S
N836 Mn829 2.257 . S
N836 C835 1.326 . S
N836 C840 1.362 . S
C837 C838 1.258 . S
C837 C840 1.431 . S
C837 C857 1.449 . S
C838 C837 1.258 . S
C838 C839 1.477 . S
C838 H858 0.931 . S
C839 C835 1.460 . S
C839 C838 1.477 . S
C839 H859 0.930 . S
C840 N836 1.362 . S
C840 C837 1.431 . S
C840 C850 1.476 . S
H841 C835 0.929 . S
C842 O833 1.250 . S
C842 O834 1.258 . S
O843 Mn828 2.162 . S
O843 C831 1.281 . S
O844 Mn828 2.297 . S
O844 C831 1.236 . S
N845 Mn829 2.282 . S
N845 C846 1.328 . S
N845 C850 1.318 . S
C846 N845 1.328 . S
C846 C847 1.457 . S
C846 H851 0.929 . S
C847 C846 1.457 . S
C847 C848 1.291 . S
C847 H860 0.931 . S
C848 C847 1.291 . S
C848 C849 1.373 . S
C848 H861 0.929 . S
C849 C848 1.373 . S
C849 C850 1.396 . S
C849 C856 1.403 . S
C850 C840 1.476 . S
C850 N845 1.318 . S
C850 C849 1.396 . S
H851 C846 0.929 . S
O852 Mn828 2.385 . S
O852 C830 1.234 . S
O853 Mn828 2.209 . S
O853 Mn829 2.215 . S
O853 C830 1.283 . S
O854 Mn828 2.094 . S
O854 C832 1.240 . S
O855 Mn829 2.117 . S
O855 C832 1.264 . S
C856 C849 1.403 . S
C856 C857 1.399 . S
C856 H862 0.929 . S
C857 C837 1.449 . S
C857 C856 1.399 . S
C857 H863 0.930 . S
H858 C838 0.931 . S
H859 C839 0.930 . S
H860 C847 0.931 . S
H861 C848 0.929 . S
H862 C856 0.929 . S
H863 C857 0.930 . S
C864 C866 1.422 1_556 S
C864 C868 1.415 . S
C864 N870 1.369 . S
C865 C866 1.421 . S
C865 C867 1.417 1_554 S
C865 C877 1.422 . S
C866 C864 1.422 1_554 S
C866 C865 1.421 . S
C866 N876 1.359 . S
C867 C865 1.417 1_556 S
C867 C869 1.329 . S
C867 H886 0.930 . S
C868 C864 1.415 . S
C868 C869 1.437 . S
C868 C872 1.413 . S
C869 C867 1.329 . S
C869 C868 1.437 . S
C869 H891 0.929 . S
N870 C864 1.369 . S
N870 C871 1.338 . S
N870 Gd875 2.622 1_566 S
C871 N870 1.338 . S
C871 C873 1.378 . S
C871 H883 0.929 . S
C872 C868 1.413 . S
C872 C873 1.348 . S
C872 H888 0.931 . S
C873 C871 1.378 . S
C873 C872 1.348 . S
C873 H889 0.930 . S
Gd874 N894 2.622 . S
Gd874 N901 2.570 . S
Gd874 O908 2.353 1_545 S
Gd874 O909 2.468 . S
Gd874 O910 2.427 . S
Gd874 O912 2.388 . S
Gd874 O913 2.386 . S
Gd874 O917 2.307 . S
Gd874 C927 2.805 . S
Gd875 N870 2.622 1_544 S
Gd875 N876 2.570 1_545 S
Gd875 O907 2.386 1_645 S
Gd875 O911 2.307 1_655 S
Gd875 O914 2.353 1_655 S
Gd875 O915 2.468 . S
Gd875 O916 2.427 1_554 S
Gd875 O918 2.388 1_654 S
Gd875 C939 2.805 . S
N876 C866 1.359 . S
N876 Gd875 2.570 1_565 S
N876 C878 1.343 . S
C877 C865 1.422 . S
C877 C879 1.321 . S
C877 H885 0.931 . S
C878 N876 1.343 . S
C878 C879 1.390 . S
C878 H880 0.931 . S
C879 C877 1.321 . S
C879 C878 1.390 . S
C879 H881 0.930 . S
H880 C878 0.931 . S
H881 C879 0.930 . S
H882 C905 0.931 1_556 S
H883 C871 0.929 . S
H884 C906 0.930 1_556 S
H885 C877 0.931 . S
H886 C867 0.930 . S
H887 C896 0.929 . S
H888 C872 0.931 . S
H889 C873 0.930 . S
H890 C928 0.930 . S
H891 C869 0.929 . S
H892 C897 0.931 . S
H893 C898 0.930 . S
N894 Gd874 2.622 . S
N894 C895 1.369 . S
N894 C896 1.338 . S
C895 N894 1.369 . S
C895 C899 1.415 . S
C895 C902 1.422 . S
C896 H887 0.929 . S
C896 N894 1.338 . S
C896 C898 1.378 . S
C897 H892 0.931 . S
C897 C898 1.348 . S
C897 C899 1.413 . S
C898 H893 0.930 . S
C898 C896 1.378 . S
C898 C897 1.348 . S
C899 C895 1.415 . S
C899 C897 1.413 . S
C899 C929 1.437 . S
H900 C929 0.929 . S
N901 Gd874 2.570 . S
N901 C902 1.359 . S
N901 C905 1.343 . S
C902 C895 1.422 . S
C902 N901 1.359 . S
C902 C904 1.421 . S
C903 C904 1.422 . S
C903 C906 1.321 . S
C903 H930 0.931 . S
C904 C902 1.421 . S
C904 C903 1.422 . S
C904 C928 1.417 . S
C905 H882 0.931 1_554 S
C905 N901 1.343 . S
C905 C906 1.390 . S
C906 H884 0.930 1_554 S
C906 C903 1.321 . S
C906 C905 1.390 . S
O907 Gd875 2.386 1_465 S
O907 C919 1.265 . S
O908 Gd874 2.353 1_565 S
O908 C919 1.242 . S
O909 Gd874 2.468 . S
O909 C927 1.263 . S
O910 Gd874 2.427 . S
O910 C927 1.252 . S
O911 Gd875 2.307 1_455 S
O911 C920 1.261 . S
O912 Gd874 2.388 . S
O912 C920 1.252 . S
O913 Gd874 2.386 . S
O913 C931 1.265 . S
O914 Gd875 2.353 1_455 S
O914 C931 1.242 . S
O915 Gd875 2.468 . S
O915 C939 1.263 . S
O916 Gd875 2.427 1_556 S
O916 C939 1.252 1_556 S
O917 Gd874 2.307 . S
O917 C932 1.261 1_554 S
O918 Gd875 2.388 1_456 S
O918 C932 1.252 . S
C919 O907 1.265 . S
C919 O908 1.242 . S
C920 O911 1.261 . S
C920 O912 1.252 . S
C921 C924 1.394 . S
C921 C926 1.370 . S
C921 C927 1.500 . S
C922 C925 1.389 1_565 S
C922 C926 1.386 1_565 S
C923 C924 1.396 . S
C923 C925 1.369 . S
C923 H940 0.929 . S
C924 C921 1.394 . S
C924 C923 1.396 . S
C924 H941 0.930 . S
C925 C922 1.389 1_545 S
C925 C923 1.369 . S
C925 H942 0.925 1_545 S
C926 C921 1.370 . S
C926 C922 1.386 1_545 S
C926 H943 0.930 . S
C927 Gd874 2.805 . S
C927 O909 1.263 . S
C927 O910 1.252 . S
C927 C921 1.500 . S
C928 H890 0.930 . S
C928 C904 1.417 . S
C928 C929 1.329 . S
C929 C899 1.437 . S
C929 H900 0.929 . S
C929 C928 1.329 . S
H930 C903 0.931 . S
C931 O913 1.265 . S
C931 O914 1.242 . S
C932 O917 1.261 1_556 S
C932 O918 1.252 . S
C933 C936 1.394 . S
C933 C938 1.370 1_556 S
C933 C939 1.500 1_556 S
C934 C937 1.383 1_554 S
C934 C938 1.395 . S
C935 C936 1.396 . S
C935 C937 1.365 . S
C935 H944 0.929 . S
C936 C933 1.394 . S
C936 C935 1.396 . S
C936 H945 0.930 . S
C937 C934 1.383 1_556 S
C937 C935 1.365 . S
C937 H946 0.931 . S
C938 C933 1.370 1_554 S
C938 C934 1.395 . S
C938 H947 0.930 . S
C939 Gd875 2.805 . S
C939 O915 1.263 . S
C939 O916 1.252 1_554 S
C939 C933 1.500 1_554 S
H940 C923 0.929 . S
H941 C924 0.930 . S
H942 C925 0.925 1_565 S
H943 C926 0.930 . S
H944 C935 0.929 . S
H945 C936 0.930 . S
H946 C937 0.931 . S
H947 C938 0.930 . S
C948 C950 1.422 . S
C948 C952 1.415 . S
C948 N954 1.369 . S
C949 C950 1.421 . S
C949 C951 1.417 . S
C949 C961 1.422 . S
C950 C948 1.422 . S
C950 C949 1.421 . S
C950 N960 1.359 . S
C951 C949 1.417 . S
C951 C953 1.329 . S
C951 H970 0.930 . S
C952 C948 1.415 . S
C952 C953 1.437 . S
C952 C956 1.413 . S
C953 C951 1.329 . S
C953 C952 1.437 . S
C953 H975 0.929 . S
N954 C948 1.369 . S
N954 C955 1.338 . S
N954 Gd959 2.622 . S
C955 N954 1.338 . S
C955 C957 1.378 . S
C955 H967 0.929 . S
C956 C952 1.413 . S
C956 C957 1.348 . S
C956 H972 0.931 . S
C957 C955 1.378 . S
C957 C956 1.348 . S
C957 H973 0.930 . S
Gd958 N978 2.622 . S
Gd958 N985 2.570 . S
Gd958 O992 2.353 . S
Gd958 O993 2.468 . S
Gd958 O994 2.427 . S
Gd958 O996 2.388 . S
Gd958 O997 2.386 . S
Gd958 O1001 2.307 . S
Gd958 C1011 2.805 . S
Gd959 N954 2.622 . S
Gd959 N960 2.570 . S
Gd959 O991 2.386 . S
Gd959 O995 2.307 . S
Gd959 O998 2.353 . S
Gd959 O999 2.468 . S
Gd959 O1000 2.427 . S
Gd959 O1002 2.388 . S
Gd959 C1023 2.805 . S
N960 C950 1.359 . S
N960 Gd959 2.570 . S
N960 C962 1.343 . S
C961 C949 1.422 . S
C961 C963 1.321 . S
C961 H969 0.931 . S
C962 N960 1.343 . S
C962 C963 1.390 . S
C962 H964 0.931 . S
C963 C961 1.321 . S
C963 C962 1.390 . S
C963 H965 0.930 . S
H964 C962 0.931 . S
H965 C963 0.930 . S
H966 C989 0.931 . S
H967 C955 0.929 . S
H968 C990 0.930 . S
H969 C961 0.931 . S
H970 C951 0.930 . S
H971 C980 0.929 . S
H972 C956 0.931 . S
H973 C957 0.930 . S
H974 C1012 0.930 . S
H975 C953 0.929 . S
H976 C981 0.931 . S
H977 C982 0.930 . S
N978 Gd958 2.622 . S
N978 C979 1.369 . S
N978 C980 1.338 . S
C979 N978 1.369 . S
C979 C983 1.415 . S
C979 C986 1.422 . S
C980 H971 0.929 . S
C980 N978 1.338 . S
C980 C982 1.378 . S
C981 H976 0.931 . S
C981 C982 1.348 . S
C981 C983 1.413 . S
C982 H977 0.930 . S
C982 C980 1.378 . S
C982 C981 1.348 . S
C983 C979 1.415 . S
C983 C981 1.413 . S
C983 C1013 1.437 . S
H984 C1013 0.929 . S
N985 Gd958 2.570 . S
N985 C986 1.359 . S
N985 C989 1.343 . S
C986 C979 1.422 . S
C986 N985 1.359 . S
C986 C988 1.421 . S
C987 C988 1.422 . S
C987 C990 1.321 . S
C987 H1014 0.931 . S
C988 C986 1.421 . S
C988 C987 1.422 . S
C988 C1012 1.417 . S
C989 H966 0.931 . S
C989 N985 1.343 . S
C989 C990 1.390 . S
C990 H968 0.930 . S
C990 C987 1.321 . S
C990 C989 1.390 . S
O991 Gd959 2.386 . S
O991 C1003 1.265 . S
O992 Gd958 2.353 . S
O992 C1003 1.242 . S
O993 Gd958 2.468 . S
O993 C1011 1.263 . S
O994 Gd958 2.427 . S
O994 C1011 1.252 . S
O995 Gd959 2.307 . S
O995 C1004 1.261 . S
O996 Gd958 2.388 . S
O996 C1004 1.252 . S
O997 Gd958 2.386 . S
O997 C1015 1.265 . S
O998 Gd959 2.353 . S
O998 C1015 1.242 . S
O999 Gd959 2.468 . S
O999 C1023 1.263 . S
O1000 Gd959 2.427 . S
O1000 C1023 1.252 . S
O1001 Gd958 2.307 . S
O1001 C1016 1.261 . S
O1002 Gd959 2.388 . S
O1002 C1016 1.252 . S
C1003 O991 1.265 . S
C1003 O992 1.242 . S
C1004 O995 1.261 . S
C1004 O996 1.252 . S
C1005 C1008 1.394 . S
C1005 C1010 1.370 . S
C1005 C1011 1.500 . S
C1006 C1009 1.383 . S
C1006 C1010 1.395 . S
C1007 C1008 1.396 . S
C1007 C1009 1.365 . S
C1007 H1024 0.929 . S
C1008 C1005 1.394 . S
C1008 C1007 1.396 . S
C1008 H1025 0.930 . S
C1009 C1006 1.383 . S
C1009 C1007 1.365 . S
C1009 H1026 0.931 . S
C1010 C1005 1.370 . S
C1010 C1006 1.395 . S
C1010 H1027 0.930 . S
C1011 Gd958 2.805 . S
C1011 O993 1.263 . S
C1011 O994 1.252 . S
C1011 C1005 1.500 . S
C1012 H974 0.930 . S
C1012 C988 1.417 . S
C1012 C1013 1.329 . S
C1013 C983 1.437 . S
C1013 H984 0.929 . S
C1013 C1012 1.329 . S
H1014 C987 0.931 . S
C1015 O997 1.265 . S
C1015 O998 1.242 . S
C1016 O1001 1.261 . S
C1016 O1002 1.252 . S
C1017 C1020 1.394 . S
C1017 C1022 1.370 . S
C1017 C1023 1.500 . S
C1018 C1021 1.383 . S
C1018 C1022 1.395 . S
C1019 C1020 1.396 . S
C1019 C1021 1.365 . S
C1019 H1028 0.929 . S
C1020 C1017 1.394 . S
C1020 C1019 1.396 . S
C1020 H1029 0.930 . S
C1021 C1018 1.383 . S
C1021 C1019 1.365 . S
C1021 H1030 0.931 . S
C1022 C1017 1.370 . S
C1022 C1018 1.395 . S
C1022 H1031 0.930 . S
C1023 Gd959 2.805 . S
C1023 O999 1.263 . S
C1023 O1000 1.252 . S
C1023 C1017 1.500 . S
H1024 C1007 0.929 . S
H1025 C1008 0.930 . S
H1026 C1009 0.931 . S
H1027 C1010 0.930 . S
H1028 C1019 0.929 . S
H1029 C1020 0.930 . S
H1030 C1021 0.931 . S
H1031 C1022 0.930 . S
C1032 C1034 1.422 . S
C1032 C1036 1.415 . S
C1032 N1038 1.369 . S
C1033 C1034 1.421 . S
C1033 C1035 1.417 . S
C1033 C1045 1.422 . S
C1034 C1032 1.422 . S
C1034 C1033 1.421 . S
C1034 N1044 1.359 . S
C1035 C1033 1.417 . S
C1035 C1037 1.329 . S
C1035 H1054 0.930 . S
C1036 C1032 1.415 . S
C1036 C1037 1.437 . S
C1036 C1040 1.413 . S
C1037 C1035 1.329 . S
C1037 C1036 1.437 . S
C1037 H1059 0.929 . S
N1038 C1032 1.369 . S
N1038 C1039 1.338 . S
N1038 Gd1043 2.622 . S
C1039 N1038 1.338 . S
C1039 C1041 1.378 . S
C1039 H1051 0.929 . S
C1040 C1036 1.413 . S
C1040 C1041 1.348 . S
C1040 H1056 0.931 . S
C1041 C1039 1.378 . S
C1041 C1040 1.348 . S
C1041 H1057 0.930 . S
Gd1042 N1062 2.622 . S
Gd1042 N1069 2.570 1_545 S
Gd1042 O1076 2.353 . S
Gd1042 O1077 2.468 . S
Gd1042 O1078 2.427 . S
Gd1042 O1080 2.388 . S
Gd1042 O1081 2.386 1_545 S
Gd1042 O1085 2.307 . S
Gd1042 C1095 2.805 . S
Gd1043 N1038 2.622 . S
Gd1043 N1044 2.570 . S
Gd1043 O1075 2.386 . S
Gd1043 O1079 2.307 . S
Gd1043 O1082 2.353 . S
Gd1043 O1083 2.468 . S
Gd1043 O1084 2.427 . S
Gd1043 O1086 2.388 . S
Gd1043 C1107 2.805 . S
N1044 C1034 1.359 . S
N1044 Gd1043 2.570 . S
N1044 C1046 1.343 . S
C1045 C1033 1.422 . S
C1045 C1047 1.321 . S
C1045 H1053 0.931 . S
C1046 N1044 1.343 . S
C1046 C1047 1.390 . S
C1046 H1048 0.931 . S
C1047 C1045 1.321 . S
C1047 C1046 1.390 . S
C1047 H1049 0.930 . S
H1048 C1046 0.931 . S
H1049 C1047 0.930 . S
H1050 C1073 0.931 1_545 S
H1051 C1039 0.929 . S
H1052 C1074 0.930 . S
H1053 C1045 0.931 . S
H1054 C1035 0.930 . S
H1055 C1064 0.929 . S
H1056 C1040 0.931 . S
H1057 C1041 0.930 . S
H1058 C1096 0.930 . S
H1059 C1037 0.929 . S
H1060 C1065 0.931 . S
H1061 C1066 0.930 . S
N1062 Gd1042 2.622 . S
N1062 C1063 1.369 1_545 S
N1062 C1064 1.338 . S
C1063 N1062 1.369 1_565 S
C1063 C1067 1.415 . S
C1063 C1070 1.422 . S
C1064 H1055 0.929 . S
C1064 N1062 1.338 . S
C1064 C1066 1.378 1_545 S
C1065 H1060 0.931 . S
C1065 C1066 1.348 . S
C1065 C1067 1.413 . S
C1066 H1061 0.930 . S
C1066 C1064 1.378 1_565 S
C1066 C1065 1.348 . S
C1067 C1063 1.415 . S
C1067 C1065 1.413 . S
C1067 C1097 1.437 . S
H1068 C1097 0.929 . S
N1069 Gd1042 2.570 1_565 S
N1069 C1070 1.359 . S
N1069 C1073 1.343 . S
C1070 C1063 1.422 . S
C1070 N1069 1.359 . S
C1070 C1072 1.421 . S
C1071 C1072 1.422 . S
C1071 C1074 1.321 . S
C1071 H1098 0.931 . S
C1072 C1070 1.421 . S
C1072 C1071 1.422 . S
C1072 C1096 1.417 . S
C1073 H1050 0.931 1_565 S
C1073 N1069 1.343 . S
C1073 C1074 1.390 . S
C1074 H1052 0.930 . S
C1074 C1071 1.321 . S
C1074 C1073 1.390 . S
O1075 Gd1043 2.386 . S
O1075 C1087 1.265 . S
O1076 Gd1042 2.353 . S
O1076 C1087 1.242 . S
O1077 Gd1042 2.468 . S
O1077 C1095 1.263 . S
O1078 Gd1042 2.427 . S
O1078 C1095 1.252 . S
O1079 Gd1043 2.307 . S
O1079 C1088 1.261 . S
O1080 Gd1042 2.388 . S
O1080 C1088 1.252 . S
O1081 Gd1042 2.386 1_565 S
O1081 C1099 1.265 . S
O1082 Gd1043 2.353 . S
O1082 C1099 1.242 1_545 S
O1083 Gd1043 2.468 . S
O1083 C1107 1.263 . S
O1084 Gd1043 2.427 . S
O1084 C1107 1.252 . S
O1085 Gd1042 2.307 . S
O1085 C1100 1.261 . S
O1086 Gd1043 2.388 . S
O1086 C1100 1.252 . S
C1087 O1075 1.265 . S
C1087 O1076 1.242 . S
C1088 O1079 1.261 . S
C1088 O1080 1.252 . S
C1089 C1092 1.394 . S
C1089 C1094 1.370 . S
C1089 C1095 1.500 . S
C1090 C1093 1.383 . S
C1090 C1094 1.395 . S
C1091 C1092 1.396 . S
C1091 C1093 1.365 . S
C1091 H1108 0.929 . S
C1092 C1089 1.394 . S
C1092 C1091 1.396 . S
C1092 H1109 0.930 . S
C1093 C1090 1.383 . S
C1093 C1091 1.365 . S
C1093 H1110 0.931 . S
C1094 C1089 1.370 . S
C1094 C1090 1.395 . S
C1094 H1111 0.930 . S
C1095 Gd1042 2.805 . S
C1095 O1077 1.263 . S
C1095 O1078 1.252 . S
C1095 C1089 1.500 . S
C1096 H1058 0.930 . S
C1096 C1072 1.417 . S
C1096 C1097 1.329 . S
C1097 C1067 1.437 . S
C1097 H1068 0.929 . S
C1097 C1096 1.329 . S
H1098 C1071 0.931 . S
C1099 O1081 1.265 . S
C1099 O1082 1.242 1_565 S
C1100 O1085 1.261 . S
C1100 O1086 1.252 . S
C1101 C1104 1.394 1_545 S
C1101 C1106 1.370 1_545 S
C1101 C1107 1.500 . S
C1102 C1105 1.383 . S
C1102 C1106 1.395 . S
C1103 C1104 1.396 . S
C1103 C1105 1.365 . S
C1103 H1112 0.929 . S
C1104 C1101 1.394 1_565 S
C1104 C1103 1.396 . S
C1104 H1113 0.930 1_565 S
C1105 C1102 1.383 . S
C1105 C1103 1.365 . S
C1105 H1114 0.931 . S
C1106 C1101 1.370 1_565 S
C1106 C1102 1.395 . S
C1106 H1115 0.930 . S
C1107 Gd1043 2.805 . S
C1107 O1083 1.263 . S
C1107 O1084 1.252 . S
C1107 C1101 1.500 . S
H1108 C1091 0.929 . S
H1109 C1092 0.930 . S
H1110 C1093 0.931 . S
H1111 C1094 0.930 . S
H1112 C1103 0.929 . S
H1113 C1104 0.930 1_545 S
H1114 C1105 0.931 . S
H1115 C1106 0.930 . S
C1116 C1118 1.422 . S
C1116 C1120 1.415 . S
C1116 N1122 1.369 . S
C1117 C1118 1.421 . S
C1117 C1119 1.417 . S
C1117 C1129 1.422 . S
C1118 C1116 1.422 . S
C1118 C1117 1.421 . S
C1118 N1128 1.359 . S
C1119 C1117 1.417 . S
C1119 C1121 1.329 . S
C1119 H1138 0.930 . S
C1120 C1116 1.415 . S
C1120 C1121 1.437 . S
C1120 C1124 1.413 . S
C1121 C1119 1.329 . S
C1121 C1120 1.437 . S
C1121 H1143 0.929 . S
N1122 C1116 1.369 . S
N1122 C1123 1.338 . S
N1122 Gd1127 2.622 . S
C1123 N1122 1.338 . S
C1123 C1125 1.378 . S
C1123 H1135 0.929 . S
C1124 C1120 1.413 . S
C1124 C1125 1.348 . S
C1124 H1140 0.931 . S
C1125 C1123 1.378 . S
C1125 C1124 1.348 . S
C1125 H1141 0.930 . S
Gd1126 N1146 2.622 . S
Gd1126 N1153 2.570 . S
Gd1126 O1160 2.353 . S
Gd1126 O1161 2.468 . S
Gd1126 O1162 2.427 . S
Gd1126 O1164 2.388 . S
Gd1126 O1165 2.386 . S
Gd1126 O1169 2.307 . S
Gd1126 C1179 2.805 . S
Gd1127 N1122 2.622 . S
Gd1127 N1128 2.570 . S
Gd1127 O1159 2.386 . S
Gd1127 O1163 2.307 . S
Gd1127 O1166 2.353 . S
Gd1127 O1167 2.468 . S
Gd1127 O1168 2.427 . S
Gd1127 O1170 2.388 . S
Gd1127 C1191 2.805 . S
N1128 C1118 1.359 . S
N1128 Gd1127 2.570 . S
N1128 C1130 1.343 . S
C1129 C1117 1.422 . S
C1129 C1131 1.321 . S
C1129 H1137 0.931 . S
C1130 N1128 1.343 . S
C1130 C1131 1.390 . S
C1130 H1132 0.931 . S
C1131 C1129 1.321 . S
C1131 C1130 1.390 . S
C1131 H1133 0.930 . S
H1132 C1130 0.931 . S
H1133 C1131 0.930 . S
H1134 C1157 0.931 . S
H1135 C1123 0.929 . S
H1136 C1158 0.930 . S
H1137 C1129 0.931 . S
H1138 C1119 0.930 . S
H1139 C1148 0.929 . S
H1140 C1124 0.931 . S
H1141 C1125 0.930 . S
H1142 C1180 0.930 . S
H1143 C1121 0.929 . S
H1144 C1149 0.931 . S
H1145 C1150 0.930 . S
N1146 Gd1126 2.622 . S
N1146 C1147 1.369 . S
N1146 C1148 1.338 . S
C1147 N1146 1.369 . S
C1147 C1151 1.415 . S
C1147 C1154 1.422 . S
C1148 H1139 0.929 . S
C1148 N1146 1.338 . S
C1148 C1150 1.378 . S
C1149 H1144 0.931 . S
C1149 C1150 1.348 . S
C1149 C1151 1.413 . S
C1150 H1145 0.930 . S
C1150 C1148 1.378 . S
C1150 C1149 1.348 . S
C1151 C1147 1.415 . S
C1151 C1149 1.413 . S
C1151 C1181 1.437 . S
H1152 C1181 0.929 . S
N1153 Gd1126 2.570 . S
N1153 C1154 1.359 . S
N1153 C1157 1.343 . S
C1154 C1147 1.422 . S
C1154 N1153 1.359 . S
C1154 C1156 1.421 . S
C1155 C1156 1.422 . S
C1155 C1158 1.321 . S
C1155 H1182 0.931 . S
C1156 C1154 1.421 . S
C1156 C1155 1.422 . S
C1156 C1180 1.417 . S
C1157 H1134 0.931 . S
C1157 N1153 1.343 . S
C1157 C1158 1.390 . S
C1158 H1136 0.930 . S
C1158 C1155 1.321 . S
C1158 C1157 1.390 . S
O1159 Gd1127 2.386 . S
O1159 C1171 1.265 . S
O1160 Gd1126 2.353 . S
O1160 C1171 1.242 . S
O1161 Gd1126 2.468 . S
O1161 C1179 1.263 . S
O1162 Gd1126 2.427 . S
O1162 C1179 1.252 . S
O1163 Gd1127 2.307 . S
O1163 C1172 1.261 . S
O1164 Gd1126 2.388 . S
O1164 C1172 1.252 . S
O1165 Gd1126 2.386 . S
O1165 C1183 1.265 . S
O1166 Gd1127 2.353 . S
O1166 C1183 1.242 . S
O1167 Gd1127 2.468 . S
O1167 C1191 1.263 . S
O1168 Gd1127 2.427 . S
O1168 C1191 1.252 . S
O1169 Gd1126 2.307 . S
O1169 C1184 1.261 . S
O1170 Gd1127 2.388 . S
O1170 C1184 1.252 . S
C1171 O1159 1.265 . S
C1171 O1160 1.242 . S
C1172 O1163 1.261 . S
C1172 O1164 1.252 . S
C1173 C1176 1.394 . S
C1173 C1178 1.370 . S
C1173 C1179 1.500 . S
C1174 C1177 1.383 . S
C1174 C1178 1.395 . S
C1175 C1176 1.396 . S
C1175 C1177 1.365 . S
C1175 H1192 0.929 . S
C1176 C1173 1.394 . S
C1176 C1175 1.396 . S
C1176 H1193 0.930 . S
C1177 C1174 1.383 . S
C1177 C1175 1.365 . S
C1177 H1194 0.931 . S
C1178 C1173 1.370 . S
C1178 C1174 1.395 . S
C1178 H1195 0.930 . S
C1179 Gd1126 2.805 . S
C1179 O1161 1.263 . S
C1179 O1162 1.252 . S
C1179 C1173 1.500 . S
C1180 H1142 0.930 . S
C1180 C1156 1.417 . S
C1180 C1181 1.329 . S
C1181 C1151 1.437 . S
C1181 H1152 0.929 . S
C1181 C1180 1.329 . S
H1182 C1155 0.931 . S
C1183 O1165 1.265 . S
C1183 O1166 1.242 . S
C1184 O1169 1.261 . S
C1184 O1170 1.252 . S
C1185 C1188 1.394 . S
C1185 C1190 1.370 . S
C1185 C1191 1.500 . S
C1186 C1189 1.383 . S
C1186 C1190 1.395 . S
C1187 C1188 1.396 . S
C1187 C1189 1.365 . S
C1187 H1196 0.929 . S
C1188 C1185 1.394 . S
C1188 C1187 1.396 . S
C1188 H1197 0.930 . S
C1189 C1186 1.383 . S
C1189 C1187 1.365 . S
C1189 H1198 0.931 . S
C1190 C1185 1.370 . S
C1190 C1186 1.395 . S
C1190 H1199 0.930 . S
C1191 Gd1127 2.805 . S
C1191 O1167 1.263 . S
C1191 O1168 1.252 . S
C1191 C1185 1.500 . S
H1192 C1175 0.929 . S
H1193 C1176 0.930 . S
H1194 C1177 0.931 . S
H1195 C1178 0.930 . S
H1196 C1187 0.929 . S
H1197 C1188 0.930 . S
H1198 C1189 0.931 . S
H1199 C1190 0.930 . S
C1200 C1202 1.422 . S
C1200 C1204 1.415 1_455 S
C1200 N1206 1.369 1_455 S
C1201 C1202 1.421 . S
C1201 C1203 1.417 . S
C1201 C1213 1.422 . S
C1202 C1200 1.422 . S
C1202 C1201 1.421 . S
C1202 N1212 1.359 . S
C1203 C1201 1.417 . S
C1203 C1205 1.329 . S
C1203 H1222 0.930 . S
C1204 C1200 1.415 1_655 S
C1204 C1205 1.437 1_655 S
C1204 C1208 1.413 . S
C1205 C1203 1.329 . S
C1205 C1204 1.437 1_455 S
C1205 H1227 0.929 1_455 S
N1206 C1200 1.369 1_655 S
N1206 C1207 1.338 . S
N1206 Gd1211 2.622 1_655 S
C1207 N1206 1.338 . S
C1207 C1209 1.378 . S
C1207 H1219 0.929 . S
C1208 C1204 1.413 . S
C1208 C1209 1.348 . S
C1208 H1224 0.931 . S
C1209 C1207 1.378 . S
C1209 C1208 1.348 . S
C1209 H1225 0.930 . S
Gd1210 N1230 2.620 . S
Gd1210 N1237 2.567 . S
Gd1210 O1244 2.355 1_565 S
Gd1210 O1245 2.464 . S
Gd1210 O1246 2.423 . S
Gd1210 O1248 2.391 1_565 S
Gd1210 O1249 2.389 1_565 S
Gd1210 O1253 2.308 1_565 S
Gd1210 C1263 2.801 . S
Gd1211 N1206 2.622 1_455 S
Gd1211 N1212 2.570 . S
Gd1211 O1243 2.386 . S
Gd1211 O1247 2.307 . S
Gd1211 O1250 2.353 . S
Gd1211 O1251 2.468 . S
Gd1211 O1252 2.427 1_455 S
Gd1211 O1254 2.388 1_455 S
Gd1211 C1275 2.805 . S
N1212 C1202 1.359 . S
N1212 Gd1211 2.570 . S
N1212 C1214 1.343 . S
C1213 C1201 1.422 . S
C1213 C1215 1.321 . S
C1213 H1221 0.931 . S
C1214 N1212 1.343 . S
C1214 C1215 1.390 . S
C1214 H1216 0.931 . S
C1215 C1213 1.321 . S
C1215 C1214 1.390 . S
C1215 H1217 0.930 . S
H1216 C1214 0.931 . S
H1217 C1215 0.930 . S
H1218 C1241 0.931 . S
H1219 C1207 0.929 . S
H1220 C1242 0.930 . S
H1221 C1213 0.931 . S
H1222 C1203 0.930 . S
H1223 C1232 0.929 1_545 S
H1224 C1208 0.931 . S
H1225 C1209 0.930 . S
H1226 C1264 0.930 . S
H1227 C1205 0.929 1_655 S
H1228 C1233 0.931 . S
H1229 C1234 0.930 . S
N1230 Gd1210 2.620 . S
N1230 C1231 1.369 . S
N1230 C1232 1.338 . S
C1231 N1230 1.369 . S
C1231 C1235 1.415 . S
C1231 C1238 1.422 . S
C1232 H1223 0.929 1_565 S
C1232 N1230 1.338 . S
C1232 C1234 1.378 . S
C1233 H1228 0.931 . S
C1233 C1234 1.348 . S
C1233 C1235 1.413 . S
C1234 H1229 0.930 . S
C1234 C1232 1.378 . S
C1234 C1233 1.348 . S
C1235 C1231 1.415 . S
C1235 C1233 1.413 . S
C1235 C1265 1.437 . S
H1236 C1265 0.929 . S
N1237 Gd1210 2.567 . S
N1237 C1238 1.359 . S
N1237 C1241 1.343 1_455 S
C1238 C1231 1.422 . S
C1238 N1237 1.359 . S
C1238 C1240 1.421 . S
C1239 C1240 1.422 1_655 S
C1239 C1242 1.321 . S
C1239 H1266 0.931 . S
C1240 C1238 1.421 . S
C1240 C1239 1.422 1_455 S
C1240 C1264 1.417 . S
C1241 H1218 0.931 . S
C1241 N1237 1.343 1_655 S
C1241 C1242 1.390 . S
C1242 H1220 0.930 . S
C1242 C1239 1.321 . S
C1242 C1241 1.390 . S
O1243 Gd1211 2.386 . S
O1243 C1255 1.265 . S
O1244 Gd1210 2.355 1_545 S
O1244 C1255 1.242 . S
O1245 Gd1210 2.464 . S
O1245 C1263 1.263 . S
O1246 Gd1210 2.423 . S
O1246 C1263 1.252 . S
O1247 Gd1211 2.307 . S
O1247 C1256 1.261 . S
O1248 Gd1210 2.391 1_545 S
O1248 C1256 1.252 . S
O1249 Gd1210 2.389 1_545 S
O1249 C1267 1.265 . S
O1250 Gd1211 2.353 . S
O1250 C1267 1.242 . S
O1251 Gd1211 2.468 . S
O1251 C1275 1.263 . S
O1252 Gd1211 2.427 1_655 S
O1252 C1275 1.252 1_655 S
O1253 Gd1210 2.308 1_545 S
O1253 C1268 1.261 1_455 S
O1254 Gd1211 2.388 1_655 S
O1254 C1268 1.252 . S
C1255 O1243 1.265 . S
C1255 O1244 1.242 . S
C1256 O1247 1.261 . S
C1256 O1248 1.252 . S
C1257 C1260 1.394 . S
C1257 C1262 1.370 . S
C1257 C1263 1.500 . S
C1258 C1261 1.383 . S
C1258 C1262 1.395 . S
C1259 C1260 1.396 . S
C1259 C1261 1.365 . S
C1259 H1276 0.929 . S
C1260 C1257 1.394 . S
C1260 C1259 1.396 . S
C1260 H1277 0.930 . S
C1261 C1258 1.383 . S
C1261 C1259 1.365 . S
C1261 H1278 0.931 . S
C1262 C1257 1.370 . S
C1262 C1258 1.395 . S
C1262 H1279 0.930 . S
C1263 Gd1210 2.801 . S
C1263 O1245 1.263 . S
C1263 O1246 1.252 . S
C1263 C1257 1.500 . S
C1264 H1226 0.930 . S
C1264 C1240 1.417 . S
C1264 C1265 1.329 . S
C1265 C1235 1.437 . S
C1265 H1236 0.929 . S
C1265 C1264 1.329 . S
H1266 C1239 0.931 . S
C1267 O1249 1.265 . S
C1267 O1250 1.242 . S
C1268 O1253 1.261 1_655 S
C1268 O1254 1.252 . S
C1269 C1272 1.394 1_455 S
C1269 C1274 1.370 . S
C1269 C1275 1.500 . S
C1270 C1273 1.383 1_455 S
C1270 C1274 1.395 . S
C1271 C1272 1.396 . S
C1271 C1273 1.365 . S
C1271 H1280 0.929 . S
C1272 C1269 1.394 1_655 S
C1272 C1271 1.396 . S
C1272 H1281 0.930 . S
C1273 C1270 1.383 1_655 S
C1273 C1271 1.365 . S
C1273 H1282 0.931 . S
C1274 C1269 1.370 . S
C1274 C1270 1.395 . S
C1274 H1283 0.930 . S
C1275 Gd1211 2.805 . S
C1275 O1251 1.263 . S
C1275 O1252 1.252 1_455 S
C1275 C1269 1.500 . S
H1276 C1259 0.929 . S
H1277 C1260 0.930 . S
H1278 C1261 0.931 . S
H1279 C1262 0.930 . S
H1280 C1271 0.929 . S
H1281 C1272 0.930 . S
H1282 C1273 0.931 . S
H1283 C1274 0.930 . S
C1284 C1286 1.422 . S
C1284 C1288 1.415 . S
C1284 N1290 1.369 . S
C1285 C1286 1.421 . S
C1285 C1287 1.417 . S
C1285 C1297 1.422 . S
C1286 C1284 1.422 . S
C1286 C1285 1.421 . S
C1286 N1296 1.359 . S
C1287 C1285 1.417 . S
C1287 C1289 1.329 . S
C1287 H1306 0.930 . S
C1288 C1284 1.415 . S
C1288 C1289 1.437 . S
C1288 C1292 1.413 . S
C1289 C1287 1.329 . S
C1289 C1288 1.437 . S
C1289 H1311 0.929 . S
N1290 C1284 1.369 . S
N1290 C1291 1.338 . S
N1290 Gd1295 2.622 . S
C1291 N1290 1.338 . S
C1291 C1293 1.378 . S
C1291 H1303 0.929 . S
C1292 C1288 1.413 . S
C1292 C1293 1.348 . S
C1292 H1308 0.931 . S
C1293 C1291 1.378 . S
C1293 C1292 1.348 . S
C1293 H1309 0.930 . S
Gd1294 N1314 2.622 . S
Gd1294 N1321 2.570 . S
Gd1294 O1328 2.353 . S
Gd1294 O1329 2.468 . S
Gd1294 O1330 2.427 . S
Gd1294 O1332 2.388 . S
Gd1294 O1333 2.386 . S
Gd1294 O1337 2.307 . S
Gd1294 C1347 2.805 . S
Gd1295 N1290 2.622 . S
Gd1295 N1296 2.570 . S
Gd1295 O1327 2.386 . S
Gd1295 O1331 2.307 . S
Gd1295 O1334 2.353 . S
Gd1295 O1335 2.468 . S
Gd1295 O1336 2.427 . S
Gd1295 O1338 2.388 . S
Gd1295 C1359 2.805 . S
N1296 C1286 1.359 . S
N1296 Gd1295 2.570 . S
N1296 C1298 1.343 . S
C1297 C1285 1.422 . S
C1297 C1299 1.321 . S
C1297 H1305 0.931 . S
C1298 N1296 1.343 . S
C1298 C1299 1.390 . S
C1298 H1300 0.931 . S
C1299 C1297 1.321 . S
C1299 C1298 1.390 . S
C1299 H1301 0.930 . S
H1300 C1298 0.931 . S
H1301 C1299 0.930 . S
H1302 C1325 0.931 . S
H1303 C1291 0.929 . S
H1304 C1326 0.930 . S
H1305 C1297 0.931 . S
H1306 C1287 0.930 . S
H1307 C1316 0.929 . S
H1308 C1292 0.931 . S
H1309 C1293 0.930 . S
H1310 C1348 0.930 . S
H1311 C1289 0.929 . S
H1312 C1317 0.931 . S
H1313 C1318 0.930 . S
N1314 Gd1294 2.622 . S
N1314 C1315 1.369 . S
N1314 C1316 1.338 . S
C1315 N1314 1.369 . S
C1315 C1319 1.415 . S
C1315 C1322 1.422 . S
C1316 H1307 0.929 . S
C1316 N1314 1.338 . S
C1316 C1318 1.378 . S
C1317 H1312 0.931 . S
C1317 C1318 1.348 . S
C1317 C1319 1.413 . S
C1318 H1313 0.930 . S
C1318 C1316 1.378 . S
C1318 C1317 1.348 . S
C1319 C1315 1.415 . S
C1319 C1317 1.413 . S
C1319 C1349 1.437 . S
H1320 C1349 0.929 . S
N1321 Gd1294 2.570 . S
N1321 C1322 1.359 . S
N1321 C1325 1.343 . S
C1322 C1315 1.422 . S
C1322 N1321 1.359 . S
C1322 C1324 1.421 . S
C1323 C1324 1.422 . S
C1323 C1326 1.321 . S
C1323 H1350 0.931 . S
C1324 C1322 1.421 . S
C1324 C1323 1.422 . S
C1324 C1348 1.417 . S
C1325 H1302 0.931 . S
C1325 N1321 1.343 . S
C1325 C1326 1.390 . S
C1326 H1304 0.930 . S
C1326 C1323 1.321 . S
C1326 C1325 1.390 . S
O1327 Gd1295 2.386 . S
O1327 C1339 1.265 . S
O1328 Gd1294 2.353 . S
O1328 C1339 1.242 . S
O1329 Gd1294 2.468 . S
O1329 C1347 1.263 . S
O1330 Gd1294 2.427 . S
O1330 C1347 1.252 . S
O1331 Gd1295 2.307 . S
O1331 C1340 1.261 . S
O1332 Gd1294 2.388 . S
O1332 C1340 1.252 . S
O1333 Gd1294 2.386 . S
O1333 C1351 1.265 . S
O1334 Gd1295 2.353 . S
O1334 C1351 1.242 . S
O1335 Gd1295 2.468 . S
O1335 C1359 1.263 . S
O1336 Gd1295 2.427 . S
O1336 C1359 1.252 . S
O1337 Gd1294 2.307 . S
O1337 C1352 1.261 . S
O1338 Gd1295 2.388 . S
O1338 C1352 1.252 . S
C1339 O1327 1.265 . S
C1339 O1328 1.242 . S
C1340 O1331 1.261 . S
C1340 O1332 1.252 . S
C1341 C1344 1.394 . S
C1341 C1346 1.370 . S
C1341 C1347 1.500 . S
C1342 C1345 1.383 . S
C1342 C1346 1.395 . S
C1343 C1344 1.396 . S
C1343 C1345 1.365 . S
C1343 H1360 0.929 . S
C1344 C1341 1.394 . S
C1344 C1343 1.396 . S
C1344 H1361 0.930 . S
C1345 C1342 1.383 . S
C1345 C1343 1.365 . S
C1345 H1362 0.931 . S
C1346 C1341 1.370 . S
C1346 C1342 1.395 . S
C1346 H1363 0.930 . S
C1347 Gd1294 2.805 . S
C1347 O1329 1.263 . S
C1347 O1330 1.252 . S
C1347 C1341 1.500 . S
C1348 H1310 0.930 . S
C1348 C1324 1.417 . S
C1348 C1349 1.329 . S
C1349 C1319 1.437 . S
C1349 H1320 0.929 . S
C1349 C1348 1.329 . S
H1350 C1323 0.931 . S
C1351 O1333 1.265 . S
C1351 O1334 1.242 . S
C1352 O1337 1.261 . S
C1352 O1338 1.252 . S
C1353 C1356 1.394 . S
C1353 C1358 1.370 . S
C1353 C1359 1.500 . S
C1354 C1357 1.383 . S
C1354 C1358 1.395 . S
C1355 C1356 1.396 . S
C1355 C1357 1.365 . S
C1355 H1364 0.929 . S
C1356 C1353 1.394 . S
C1356 C1355 1.396 . S
C1356 H1365 0.930 . S
C1357 C1354 1.383 . S
C1357 C1355 1.365 . S
C1357 H1366 0.931 . S
C1358 C1353 1.370 . S
C1358 C1354 1.395 . S
C1358 H1367 0.930 . S
C1359 Gd1295 2.805 . S
C1359 O1335 1.263 . S
C1359 O1336 1.252 . S
C1359 C1353 1.500 . S
H1360 C1343 0.929 . S
H1361 C1344 0.930 . S
H1362 C1345 0.931 . S
H1363 C1346 0.930 . S
H1364 C1355 0.929 . S
H1365 C1356 0.930 . S
H1366 C1357 0.931 . S
H1367 C1358 0.930 . S
C1368 C1370 1.422 . S
C1368 C1372 1.415 1_545 S
C1368 N1374 1.369 1_545 S
C1369 C1370 1.421 . S
C1369 C1371 1.417 . S
C1369 C1381 1.422 . S
C1370 C1368 1.422 . S
C1370 C1369 1.421 . S
C1370 N1380 1.359 . S
C1371 C1369 1.417 . S
C1371 C1373 1.329 . S
C1371 H1390 0.930 . S
C1372 C1368 1.415 1_565 S
C1372 C1373 1.437 1_565 S
C1372 C1376 1.413 . S
C1373 C1371 1.329 . S
C1373 C1372 1.437 1_545 S
C1373 H1395 0.929 1_545 S
N1374 C1368 1.369 1_565 S
N1374 C1375 1.338 . S
N1374 Gd1379 2.622 1_565 S
C1375 N1374 1.338 . S
C1375 C1377 1.378 . S
C1375 H1387 0.929 . S
C1376 C1372 1.413 . S
C1376 C1377 1.348 . S
C1376 H1392 0.931 . S
C1377 C1375 1.378 . S
C1377 C1376 1.348 . S
C1377 H1393 0.930 . S
Gd1378 N1398 2.622 . S
Gd1378 N1405 2.570 . S
Gd1378 O1412 2.353 1_556 S
Gd1378 O1413 2.468 . S
Gd1378 O1414 2.427 . S
Gd1378 O1416 2.388 1_556 S
Gd1378 O1417 2.386 1_556 S
Gd1378 O1421 2.298 1_556 S
Gd1378 C1431 2.805 . S
Gd1379 N1374 2.622 1_545 S
Gd1379 N1380 2.570 . S
Gd1379 O1411 2.386 . S
Gd1379 O1415 2.307 . S
Gd1379 O1418 2.353 . S
Gd1379 O1419 2.468 . S
Gd1379 O1420 2.427 1_545 S
Gd1379 O1422 2.388 1_545 S
Gd1379 C1443 2.805 . S
N1380 C1370 1.359 . S
N1380 Gd1379 2.570 . S
N1380 C1382 1.343 . S
C1381 C1369 1.422 . S
C1381 C1383 1.321 . S
C1381 H1389 0.931 . S
C1382 N1380 1.343 . S
C1382 C1383 1.390 . S
C1382 H1384 0.931 . S
C1383 C1381 1.321 . S
C1383 C1382 1.390 . S
C1383 H1385 0.930 . S
H1384 C1382 0.931 . S
H1385 C1383 0.930 . S
H1386 C1409 0.931 . S
H1387 C1375 0.929 . S
H1388 C1410 0.904 1_565 S
H1389 C1381 0.931 . S
H1390 C1371 0.930 . S
H1391 C1400 0.929 1_554 S
H1392 C1376 0.931 . S
H1393 C1377 0.930 . S
H1394 C1432 0.930 . S
H1395 C1373 0.929 1_565 S
H1396 C1401 0.931 . S
H1397 C1402 0.930 . S
N1398 Gd1378 2.622 . S
N1398 C1399 1.369 . S
N1398 C1400 1.338 . S
C1399 N1398 1.369 . S
C1399 C1403 1.415 . S
C1399 C1406 1.422 . S
C1400 H1391 0.929 1_556 S
C1400 N1398 1.338 . S
C1400 C1402 1.378 . S
C1401 H1396 0.931 . S
C1401 C1402 1.348 . S
C1401 C1403 1.413 . S
C1402 H1397 0.930 . S
C1402 C1400 1.378 . S
C1402 C1401 1.348 . S
C1403 C1399 1.415 . S
C1403 C1401 1.413 . S
C1403 C1433 1.437 . S
H1404 C1433 0.929 . S
N1405 Gd1378 2.570 . S
N1405 C1406 1.359 . S
N1405 C1409 1.343 . S
C1406 C1399 1.422 . S
C1406 N1405 1.359 . S
C1406 C1408 1.421 . S
C1407 C1408 1.422 . S
C1407 C1410 1.340 . S
C1407 H1434 0.931 . S
C1408 C1406 1.421 . S
C1408 C1407 1.422 . S
C1408 C1432 1.417 . S
C1409 H1386 0.931 . S
C1409 N1405 1.343 . S
C1409 C1410 1.397 . S
C1410 H1388 0.904 1_545 S
C1410 C1407 1.340 . S
C1410 C1409 1.397 . S
O1411 Gd1379 2.386 . S
O1411 C1423 1.265 . S
O1412 Gd1378 2.353 1_554 S
O1412 C1423 1.242 . S
O1413 Gd1378 2.468 . S
O1413 C1431 1.263 . S
O1414 Gd1378 2.427 . S
O1414 C1431 1.252 . S
O1415 Gd1379 2.307 . S
O1415 C1424 1.261 . S
O1416 Gd1378 2.388 1_554 S
O1416 C1424 1.252 . S
O1417 Gd1378 2.386 1_554 S
O1417 C1435 1.265 . S
O1418 Gd1379 2.353 . S
O1418 C1435 1.242 . S
O1419 Gd1379 2.468 . S
O1419 C1443 1.263 . S
O1420 Gd1379 2.427 1_565 S
O1420 C1443 1.252 1_565 S
O1421 Gd1378 2.298 1_554 S
O1421 C1436 1.280 1_545 S
O1422 Gd1379 2.388 1_565 S
O1422 C1436 1.252 . S
C1423 O1411 1.265 . S
C1423 O1412 1.242 . S
C1424 O1415 1.261 . S
C1424 O1416 1.252 . S
C1425 C1428 1.394 . S
C1425 C1430 1.370 . S
C1425 C1431 1.500 . S
C1426 C1429 1.383 . S
C1426 C1430 1.395 . S
C1427 C1428 1.396 . S
C1427 C1429 1.365 . S
C1427 H1444 0.929 . S
C1428 C1425 1.394 . S
C1428 C1427 1.396 . S
C1428 H1445 0.930 . S
C1429 C1426 1.383 . S
C1429 C1427 1.365 . S
C1429 H1446 0.931 . S
C1430 C1425 1.370 . S
C1430 C1426 1.395 . S
C1430 H1447 0.930 . S
C1431 Gd1378 2.805 . S
C1431 O1413 1.263 . S
C1431 O1414 1.252 . S
C1431 C1425 1.500 . S
C1432 H1394 0.930 . S
C1432 C1408 1.417 . S
C1432 C1433 1.329 . S
C1433 C1403 1.437 . S
C1433 H1404 0.929 . S
C1433 C1432 1.329 . S
H1434 C1407 0.931 . S
C1435 O1417 1.265 . S
C1435 O1418 1.242 . S
C1436 O1421 1.280 1_565 S
C1436 O1422 1.252 . S
C1437 C1440 1.394 . S
C1437 C1442 1.370 1_565 S
C1437 C1443 1.500 1_565 S
C1438 C1441 1.383 1_545 S
C1438 C1442 1.395 . S
C1439 C1440 1.396 . S
C1439 C1441 1.365 . S
C1439 H1448 0.929 . S
C1440 C1437 1.394 . S
C1440 C1439 1.396 . S
C1440 H1449 0.930 . S
C1441 C1438 1.383 1_565 S
C1441 C1439 1.365 . S
C1441 H1450 0.931 . S
C1442 C1437 1.370 1_545 S
C1442 C1438 1.395 . S
C1442 H1451 0.930 . S
C1443 Gd1379 2.805 . S
C1443 O1419 1.263 . S
C1443 O1420 1.252 1_545 S
C1443 C1437 1.500 1_545 S
H1444 C1427 0.929 . S
H1445 C1428 0.930 . S
H1446 C1429 0.931 . S
H1447 C1430 0.930 . S
H1448 C1439 0.929 . S
H1449 C1440 0.930 . S
H1450 C1441 0.931 . S
H1451 C1442 0.930 . S
C1452 C1454 1.422 . S
C1452 C1456 1.415 . S
C1452 N1458 1.369 . S
C1453 C1454 1.421 . S
C1453 C1455 1.417 . S
C1453 C1465 1.422 . S
C1454 C1452 1.422 . S
C1454 C1453 1.421 . S
C1454 N1464 1.359 . S
C1455 C1453 1.417 . S
C1455 C1457 1.329 . S
C1455 H1474 0.930 . S
C1456 C1452 1.415 . S
C1456 C1457 1.437 . S
C1456 C1460 1.413 . S
C1457 C1455 1.329 . S
C1457 C1456 1.437 . S
C1457 H1479 0.929 . S
N1458 C1452 1.369 . S
N1458 C1459 1.338 . S
N1458 Gd1463 2.622 . S
C1459 N1458 1.338 . S
C1459 C1461 1.378 . S
C1459 H1471 0.929 . S
C1460 C1456 1.413 . S
C1460 C1461 1.348 . S
C1460 H1476 0.931 . S
C1461 C1459 1.378 . S
C1461 C1460 1.348 . S
C1461 H1477 0.930 . S
Gd1462 N1482 2.622 . S
Gd1462 N1489 2.570 . S
Gd1462 O1496 2.353 . S
Gd1462 O1497 2.468 . S
Gd1462 O1498 2.427 . S
Gd1462 O1500 2.388 . S
Gd1462 O1501 2.386 . S
Gd1462 O1505 2.307 . S
Gd1462 C1515 2.805 . S
Gd1463 N1458 2.622 . S
Gd1463 N1464 2.570 . S
Gd1463 O1495 2.386 . S
Gd1463 O1499 2.307 . S
Gd1463 O1502 2.353 . S
Gd1463 O1503 2.468 . S
Gd1463 O1504 2.427 . S
Gd1463 O1506 2.388 . S
Gd1463 C1527 2.805 . S
N1464 C1454 1.359 . S
N1464 Gd1463 2.570 . S
N1464 C1466 1.343 . S
C1465 C1453 1.422 . S
C1465 C1467 1.321 . S
C1465 H1473 0.931 . S
C1466 N1464 1.343 . S
C1466 C1467 1.390 . S
C1466 H1468 0.931 . S
C1467 C1465 1.321 . S
C1467 C1466 1.390 . S
C1467 H1469 0.930 . S
H1468 C1466 0.931 . S
H1469 C1467 0.930 . S
H1470 C1493 0.931 . S
H1471 C1459 0.929 . S
H1472 C1494 0.930 . S
H1473 C1465 0.931 . S
H1474 C1455 0.930 . S
H1475 C1484 0.929 . S
H1476 C1460 0.931 . S
H1477 C1461 0.930 . S
H1478 C1516 0.930 . S
H1479 C1457 0.929 . S
H1480 C1485 0.931 . S
H1481 C1486 0.930 . S
N1482 Gd1462 2.622 . S
N1482 C1483 1.369 . S
N1482 C1484 1.338 . S
C1483 N1482 1.369 . S
C1483 C1487 1.415 . S
C1483 C1490 1.422 . S
C1484 H1475 0.929 . S
C1484 N1482 1.338 . S
C1484 C1486 1.378 . S
C1485 H1480 0.931 . S
C1485 C1486 1.348 . S
C1485 C1487 1.413 . S
C1486 H1481 0.930 . S
C1486 C1484 1.378 . S
C1486 C1485 1.348 . S
C1487 C1483 1.415 . S
C1487 C1485 1.413 . S
C1487 C1517 1.437 . S
H1488 C1517 0.929 . S
N1489 Gd1462 2.570 . S
N1489 C1490 1.359 . S
N1489 C1493 1.343 . S
C1490 C1483 1.422 . S
C1490 N1489 1.359 . S
C1490 C1492 1.421 . S
C1491 C1492 1.422 . S
C1491 C1494 1.321 . S
C1491 H1518 0.931 . S
C1492 C1490 1.421 . S
C1492 C1491 1.422 . S
C1492 C1516 1.417 . S
C1493 H1470 0.931 . S
C1493 N1489 1.343 . S
C1493 C1494 1.390 . S
C1494 H1472 0.930 . S
C1494 C1491 1.321 . S
C1494 C1493 1.390 . S
O1495 Gd1463 2.386 . S
O1495 C1507 1.265 . S
O1496 Gd1462 2.353 . S
O1496 C1507 1.242 . S
O1497 Gd1462 2.468 . S
O1497 C1515 1.263 . S
O1498 Gd1462 2.427 . S
O1498 C1515 1.252 . S
O1499 Gd1463 2.307 . S
O1499 C1508 1.261 . S
O1500 Gd1462 2.388 . S
O1500 C1508 1.252 . S
O1501 Gd1462 2.386 . S
O1501 C1519 1.265 . S
O1502 Gd1463 2.353 . S
O1502 C1519 1.242 . S
O1503 Gd1463 2.468 . S
O1503 C1527 1.263 . S
O1504 Gd1463 2.427 . S
O1504 C1527 1.252 . S
O1505 Gd1462 2.307 . S
O1505 C1520 1.261 . S
O1506 Gd1463 2.388 . S
O1506 C1520 1.252 . S
C1507 O1495 1.265 . S
C1507 O1496 1.242 . S
C1508 O1499 1.261 . S
C1508 O1500 1.252 . S
C1509 C1512 1.394 . S
C1509 C1514 1.370 . S
C1509 C1515 1.500 . S
C1510 C1513 1.383 . S
C1510 C1514 1.395 . S
C1511 C1512 1.396 . S
C1511 C1513 1.365 . S
C1511 H1528 0.929 . S
C1512 C1509 1.394 . S
C1512 C1511 1.396 . S
C1512 H1529 0.930 . S
C1513 C1510 1.383 . S
C1513 C1511 1.365 . S
C1513 H1530 0.931 . S
C1514 C1509 1.370 . S
C1514 C1510 1.395 . S
C1514 H1531 0.930 . S
C1515 Gd1462 2.805 . S
C1515 O1497 1.263 . S
C1515 O1498 1.252 . S
C1515 C1509 1.500 . S
C1516 H1478 0.930 . S
C1516 C1492 1.417 . S
C1516 C1517 1.329 . S
C1517 C1487 1.437 . S
C1517 H1488 0.929 . S
C1517 C1516 1.329 . S
H1518 C1491 0.931 . S
C1519 O1501 1.265 . S
C1519 O1502 1.242 . S
C1520 O1505 1.261 . S
C1520 O1506 1.252 . S
C1521 C1524 1.394 . S
C1521 C1526 1.370 . S
C1521 C1527 1.500 . S
C1522 C1525 1.383 . S
C1522 C1526 1.395 . S
C1523 C1524 1.396 . S
C1523 C1525 1.365 . S
C1523 H1532 0.929 . S
C1524 C1521 1.394 . S
C1524 C1523 1.396 . S
C1524 H1533 0.930 . S
C1525 C1522 1.383 . S
C1525 C1523 1.365 . S
C1525 H1534 0.931 . S
C1526 C1521 1.370 . S
C1526 C1522 1.395 . S
C1526 H1535 0.930 . S
C1527 Gd1463 2.805 . S
C1527 O1503 1.263 . S
C1527 O1504 1.252 . S
C1527 C1521 1.500 . S
H1528 C1511 0.929 . S
H1529 C1512 0.930 . S
H1530 C1513 0.931 . S
H1531 C1514 0.930 . S
H1532 C1523 0.929 . S
H1533 C1524 0.930 . S
H1534 C1525 0.931 . S
H1535 C1526 0.930 . S
C1536 C1538 1.422 . S
C1536 C1540 1.415 . S
C1536 N1542 1.369 . S
C1537 C1538 1.421 . S
C1537 C1539 1.417 . S
C1537 C1549 1.422 . S
C1538 C1536 1.422 . S
C1538 C1537 1.421 . S
C1538 N1548 1.359 . S
C1539 C1537 1.417 . S
C1539 C1541 1.329 . S
C1539 H1558 0.930 . S
C1540 C1536 1.415 . S
C1540 C1541 1.437 . S
C1540 C1544 1.413 . S
C1541 C1539 1.329 . S
C1541 C1540 1.437 . S
C1541 H1563 0.929 . S
N1542 C1536 1.369 . S
N1542 C1543 1.338 . S
N1542 Gd1547 2.622 . S
C1543 N1542 1.338 . S
C1543 C1545 1.378 . S
C1543 H1555 0.929 . S
C1544 C1540 1.413 . S
C1544 C1545 1.348 . S
C1544 H1560 0.931 . S
C1545 C1543 1.378 . S
C1545 C1544 1.348 . S
C1545 H1561 0.930 . S
Gd1546 N1566 2.622 1_554 S
Gd1546 N1573 2.570 1_554 S
Gd1546 O1580 2.353 . S
Gd1546 O1581 2.468 . S
Gd1546 O1582 2.427 . S
Gd1546 O1584 2.388 . S
Gd1546 O1585 2.386 1_554 S
Gd1546 O1589 2.307 . S
Gd1546 C1599 2.805 . S
Gd1547 N1542 2.622 . S
Gd1547 N1548 2.570 . S
Gd1547 O1579 2.386 . S
Gd1547 O1583 2.307 . S
Gd1547 O1586 2.353 1_554 S
Gd1547 O1587 2.468 . S
Gd1547 O1588 2.427 . S
Gd1547 O1590 2.388 . S
Gd1547 C1611 2.805 . S
N1548 C1538 1.359 . S
N1548 Gd1547 2.570 . S
N1548 C1550 1.343 . S
C1549 C1537 1.422 . S
C1549 C1551 1.321 . S
C1549 H1557 0.931 . S
C1550 N1548 1.343 . S
C1550 C1551 1.390 . S
C1550 H1552 0.931 . S
C1551 C1549 1.321 . S
C1551 C1550 1.390 . S
C1551 H1553 0.930 . S
H1552 C1550 0.931 . S
H1553 C1551 0.930 . S
H1554 C1577 0.931 1_554 S
H1555 C1543 0.929 . S
H1556 C1578 0.930 . S
H1557 C1549 0.931 . S
H1558 C1539 0.930 . S
H1559 C1568 0.929 1_554 S
H1560 C1544 0.931 . S
H1561 C1545 0.930 . S
H1562 C1600 0.930 . S
H1563 C1541 0.929 . S
H1564 C1569 0.931 . S
H1565 C1570 0.930 . S
N1566 Gd1546 2.622 1_556 S
N1566 C1567 1.369 . S
N1566 C1568 1.338 . S
C1567 N1566 1.369 . S
C1567 C1571 1.415 . S
C1567 C1574 1.422 . S
C1568 H1559 0.929 1_556 S
C1568 N1566 1.338 . S
C1568 C1570 1.378 . S
C1569 H1564 0.931 . S
C1569 C1570 1.348 . S
C1569 C1571 1.413 . S
C1570 H1565 0.930 . S
C1570 C1568 1.378 . S
C1570 C1569 1.348 . S
C1571 C1567 1.415 . S
C1571 C1569 1.413 . S
C1571 C1601 1.437 . S
H1572 C1601 0.929 . S
N1573 Gd1546 2.570 1_556 S
N1573 C1574 1.359 . S
N1573 C1577 1.343 . S
C1574 C1567 1.422 . S
C1574 N1573 1.359 . S
C1574 C1576 1.421 . S
C1575 C1576 1.422 . S
C1575 C1578 1.321 . S
C1575 H1602 0.931 . S
C1576 C1574 1.421 . S
C1576 C1575 1.422 . S
C1576 C1600 1.417 . S
C1577 H1554 0.931 1_556 S
C1577 N1573 1.343 . S
C1577 C1578 1.390 . S
C1578 H1556 0.930 . S
C1578 C1575 1.321 . S
C1578 C1577 1.390 . S
O1579 Gd1547 2.386 . S
O1579 C1591 1.265 . S
O1580 Gd1546 2.353 . S
O1580 C1591 1.242 . S
O1581 Gd1546 2.468 . S
O1581 C1599 1.263 . S
O1582 Gd1546 2.427 . S
O1582 C1599 1.252 . S
O1583 Gd1547 2.307 . S
O1583 C1592 1.261 . S
O1584 Gd1546 2.388 . S
O1584 C1592 1.252 . S
O1585 Gd1546 2.386 1_556 S
O1585 C1603 1.265 . S
O1586 Gd1547 2.353 1_556 S
O1586 C1603 1.242 . S
O1587 Gd1547 2.468 . S
O1587 C1611 1.263 . S
O1588 Gd1547 2.427 . S
O1588 C1611 1.252 . S
O1589 Gd1546 2.307 . S
O1589 C1604 1.261 . S
O1590 Gd1547 2.388 . S
O1590 C1604 1.252 . S
C1591 O1579 1.265 . S
C1591 O1580 1.242 . S
C1592 O1583 1.261 . S
C1592 O1584 1.252 . S
C1593 C1596 1.394 . S
C1593 C1598 1.370 . S
C1593 C1599 1.500 . S
C1594 C1597 1.383 . S
C1594 C1598 1.395 . S
C1595 C1596 1.396 . S
C1595 C1597 1.365 . S
C1595 H1612 0.929 . S
C1596 C1593 1.394 . S
C1596 C1595 1.396 . S
C1596 H1613 0.930 . S
C1597 C1594 1.383 . S
C1597 C1595 1.365 . S
C1597 H1614 0.931 . S
C1598 C1593 1.370 . S
C1598 C1594 1.395 . S
C1598 H1615 0.930 . S
C1599 Gd1546 2.805 . S
C1599 O1581 1.263 . S
C1599 O1582 1.252 . S
C1599 C1593 1.500 . S
C1600 H1562 0.930 . S
C1600 C1576 1.417 . S
C1600 C1601 1.329 . S
C1601 C1571 1.437 . S
C1601 H1572 0.929 . S
C1601 C1600 1.329 . S
H1602 C1575 0.931 . S
C1603 O1585 1.265 . S
C1603 O1586 1.242 . S
C1604 O1589 1.261 . S
C1604 O1590 1.252 . S
C1605 C1608 1.394 . S
C1605 C1610 1.370 . S
C1605 C1611 1.500 1_556 S
C1606 C1609 1.383 . S
C1606 C1610 1.395 . S
C1607 C1608 1.396 . S
C1607 C1609 1.365 . S
C1607 H1616 0.929 . S
C1608 C1605 1.394 . S
C1608 C1607 1.396 . S
C1608 H1617 0.930 . S
C1609 C1606 1.383 . S
C1609 C1607 1.365 . S
C1609 H1618 0.931 . S
C1610 C1605 1.370 . S
C1610 C1606 1.395 . S
C1610 H1619 0.930 . S
C1611 Gd1547 2.805 . S
C1611 O1587 1.263 . S
C1611 O1588 1.252 . S
C1611 C1605 1.500 1_554 S
H1612 C1595 0.929 . S
H1613 C1596 0.930 . S
H1614 C1597 0.931 . S
H1615 C1598 0.930 . S
H1616 C1607 0.929 . S
H1617 C1608 0.930 . S
H1618 C1609 0.931 . S
H1619 C1610 0.930 . S
C1620 C1622 1.422 . S
C1620 C1624 1.415 . S
C1620 N1626 1.369 . S
C1621 C1622 1.421 . S
C1621 C1623 1.417 . S
C1621 C1633 1.422 . S
C1622 C1620 1.422 . S
C1622 C1621 1.421 . S
C1622 N1632 1.359 . S
C1623 C1621 1.417 . S
C1623 C1625 1.329 . S
C1623 H1642 0.930 . S
C1624 C1620 1.415 . S
C1624 C1625 1.437 . S
C1624 C1628 1.413 . S
C1625 C1623 1.329 . S
C1625 C1624 1.437 . S
C1625 H1647 0.929 . S
N1626 C1620 1.369 . S
N1626 C1627 1.338 . S
N1626 Gd1631 2.622 . S
C1627 N1626 1.338 . S
C1627 C1629 1.378 . S
C1627 H1639 0.929 . S
C1628 C1624 1.413 . S
C1628 C1629 1.348 . S
C1628 H1644 0.931 . S
C1629 C1627 1.378 . S
C1629 C1628 1.348 . S
C1629 H1645 0.930 . S
Gd1630 N1650 2.622 . S
Gd1630 N1657 2.570 . S
Gd1630 O1664 2.353 . S
Gd1630 O1665 2.468 . S
Gd1630 O1666 2.427 . S
Gd1630 O1668 2.388 . S
Gd1630 O1669 2.386 . S
Gd1630 O1673 2.307 . S
Gd1630 C1683 2.805 . S
Gd1631 N1626 2.622 . S
Gd1631 N1632 2.570 . S
Gd1631 O1663 2.386 . S
Gd1631 O1667 2.307 . S
Gd1631 O1670 2.353 . S
Gd1631 O1671 2.468 . S
Gd1631 O1672 2.427 . S
Gd1631 O1674 2.388 . S
Gd1631 C1695 2.805 . S
N1632 C1622 1.359 . S
N1632 Gd1631 2.570 . S
N1632 C1634 1.343 . S
C1633 C1621 1.422 . S
C1633 C1635 1.321 . S
C1633 H1641 0.931 . S
C1634 N1632 1.343 . S
C1634 C1635 1.390 . S
C1634 H1636 0.931 . S
C1635 C1633 1.321 . S
C1635 C1634 1.390 . S
C1635 H1637 0.930 . S
H1636 C1634 0.931 . S
H1637 C1635 0.930 . S
H1638 C1661 0.931 . S
H1639 C1627 0.929 . S
H1640 C1662 0.930 . S
H1641 C1633 0.931 . S
H1642 C1623 0.930 . S
H1643 C1652 0.929 . S
H1644 C1628 0.931 . S
H1645 C1629 0.930 . S
H1646 C1684 0.930 . S
H1647 C1625 0.929 . S
H1648 C1653 0.931 . S
H1649 C1654 0.930 . S
N1650 Gd1630 2.622 . S
N1650 C1651 1.369 . S
N1650 C1652 1.338 . S
C1651 N1650 1.369 . S
C1651 C1655 1.415 . S
C1651 C1658 1.422 . S
C1652 H1643 0.929 . S
C1652 N1650 1.338 . S
C1652 C1654 1.378 . S
C1653 H1648 0.931 . S
C1653 C1654 1.348 . S
C1653 C1655 1.413 . S
C1654 H1649 0.930 . S
C1654 C1652 1.378 . S
C1654 C1653 1.348 . S
C1655 C1651 1.415 . S
C1655 C1653 1.413 . S
C1655 C1685 1.437 . S
H1656 C1685 0.929 . S
N1657 Gd1630 2.570 . S
N1657 C1658 1.359 . S
N1657 C1661 1.343 . S
C1658 C1651 1.422 . S
C1658 N1657 1.359 . S
C1658 C1660 1.421 . S
C1659 C1660 1.422 . S
C1659 C1662 1.321 . S
C1659 H1686 0.931 . S
C1660 C1658 1.421 . S
C1660 C1659 1.422 . S
C1660 C1684 1.417 . S
C1661 H1638 0.931 . S
C1661 N1657 1.343 . S
C1661 C1662 1.390 . S
C1662 H1640 0.930 . S
C1662 C1659 1.321 . S
C1662 C1661 1.390 . S
O1663 Gd1631 2.386 . S
O1663 C1675 1.265 . S
O1664 Gd1630 2.353 . S
O1664 C1675 1.242 . S
O1665 Gd1630 2.468 . S
O1665 C1683 1.263 . S
O1666 Gd1630 2.427 . S
O1666 C1683 1.252 . S
O1667 Gd1631 2.307 . S
O1667 C1676 1.261 . S
O1668 Gd1630 2.388 . S
O1668 C1676 1.252 . S
O1669 Gd1630 2.386 . S
O1669 C1687 1.265 . S
O1670 Gd1631 2.353 . S
O1670 C1687 1.242 . S
O1671 Gd1631 2.468 . S
O1671 C1695 1.263 . S
O1672 Gd1631 2.427 . S
O1672 C1695 1.252 . S
O1673 Gd1630 2.307 . S
O1673 C1688 1.261 . S
O1674 Gd1631 2.388 . S
O1674 C1688 1.252 . S
C1675 O1663 1.265 . S
C1675 O1664 1.242 . S
C1676 O1667 1.261 . S
C1676 O1668 1.252 . S
C1677 C1680 1.394 . S
C1677 C1682 1.370 . S
C1677 C1683 1.500 . S
C1678 C1681 1.383 . S
C1678 C1682 1.395 . S
C1679 C1680 1.396 . S
C1679 C1681 1.365 . S
C1679 H1696 0.929 . S
C1680 C1677 1.394 . S
C1680 C1679 1.396 . S
C1680 H1697 0.930 . S
C1681 C1678 1.383 . S
C1681 C1679 1.365 . S
C1681 H1698 0.931 . S
C1682 C1677 1.370 . S
C1682 C1678 1.395 . S
C1682 H1699 0.930 . S
C1683 Gd1630 2.805 . S
C1683 O1665 1.263 . S
C1683 O1666 1.252 . S
C1683 C1677 1.500 . S
C1684 H1646 0.930 . S
C1684 C1660 1.417 . S
C1684 C1685 1.329 . S
C1685 C1655 1.437 . S
C1685 H1656 0.929 . S
C1685 C1684 1.329 . S
H1686 C1659 0.931 . S
C1687 O1669 1.265 . S
C1687 O1670 1.242 . S
C1688 O1673 1.261 . S
C1688 O1674 1.252 . S
C1689 C1692 1.394 . S
C1689 C1694 1.370 . S
C1689 C1695 1.500 . S
C1690 C1693 1.383 . S
C1690 C1694 1.395 . S
C1691 C1692 1.396 . S
C1691 C1693 1.365 . S
C1691 H1700 0.929 . S
C1692 C1689 1.394 . S
C1692 C1691 1.396 . S
C1692 H1701 0.930 . S
C1693 C1690 1.383 . S
C1693 C1691 1.365 . S
C1693 H1702 0.931 . S
C1694 C1689 1.370 . S
C1694 C1690 1.395 . S
C1694 H1703 0.930 . S
C1695 Gd1631 2.805 . S
C1695 O1671 1.263 . S
C1695 O1672 1.252 . S
C1695 C1689 1.500 . S
H1696 C1679 0.929 . S
H1697 C1680 0.930 . S
H1698 C1681 0.931 . S
H1699 C1682 0.930 . S
H1700 C1691 0.929 . S
H1701 C1692 0.930 . S
H1702 C1693 0.931 . S
H1703 C1694 0.930 . S
C1704 C1706 1.422 . S
C1704 C1708 1.415 . S
C1704 N1710 1.369 . S
C1705 C1706 1.421 . S
C1705 C1707 1.417 . S
C1705 C1717 1.422 . S
C1706 C1704 1.422 . S
C1706 C1705 1.421 . S
C1706 N1716 1.359 . S
C1707 C1705 1.417 . S
C1707 C1709 1.329 . S
C1707 H1726 0.930 . S
C1708 C1704 1.415 . S
C1708 C1709 1.437 . S
C1708 C1712 1.413 . S
C1709 C1707 1.329 . S
C1709 C1708 1.437 . S
C1709 H1731 0.929 . S
N1710 C1704 1.369 . S
N1710 C1711 1.338 . S
N1710 Gd1715 2.622 . S
C1711 N1710 1.338 . S
C1711 C1713 1.378 . S
C1711 H1723 0.929 . S
C1712 C1708 1.413 . S
C1712 C1713 1.348 . S
C1712 H1728 0.931 . S
C1713 C1711 1.378 . S
C1713 C1712 1.348 . S
C1713 H1729 0.930 . S
Gd1714 N1734 2.620 1_455 S
Gd1714 N1741 2.570 1_455 S
Gd1714 O1748 2.353 . S
Gd1714 O1749 2.468 . S
Gd1714 O1750 2.427 . S
Gd1714 O1752 2.388 . S
Gd1714 O1753 2.386 1_455 S
Gd1714 O1757 2.307 . S
Gd1714 C1767 2.805 . S
Gd1715 N1710 2.622 . S
Gd1715 N1716 2.570 . S
Gd1715 O1747 2.386 . S
Gd1715 O1751 2.307 . S
Gd1715 O1754 2.353 1_455 S
Gd1715 O1755 2.468 . S
Gd1715 O1756 2.427 . S
Gd1715 O1758 2.388 . S
Gd1715 C1779 2.805 . S
N1716 C1706 1.359 . S
N1716 Gd1715 2.570 . S
N1716 C1718 1.343 . S
C1717 C1705 1.422 . S
C1717 C1719 1.321 . S
C1717 H1725 0.931 . S
C1718 N1716 1.343 . S
C1718 C1719 1.390 . S
C1718 H1720 0.931 . S
C1719 C1717 1.321 . S
C1719 C1718 1.390 . S
C1719 H1721 0.930 . S
H1720 C1718 0.931 . S
H1721 C1719 0.930 . S
H1722 C1745 0.931 1_455 S
H1723 C1711 0.929 . S
H1724 C1746 0.930 . S
H1725 C1717 0.931 . S
H1726 C1707 0.930 . S
H1727 C1736 0.929 . S
H1728 C1712 0.931 . S
H1729 C1713 0.930 . S
H1730 C1768 0.930 . S
H1731 C1709 0.929 . S
H1732 C1737 0.931 . S
H1733 C1738 0.930 . S
N1734 Gd1714 2.620 1_655 S
N1734 C1735 1.371 . S
N1734 C1736 1.338 1_655 S
C1735 N1734 1.371 . S
C1735 C1739 1.415 . S
C1735 C1742 1.422 . S
C1736 H1727 0.929 . S
C1736 N1734 1.338 1_455 S
C1736 C1738 1.378 1_455 S
C1737 H1732 0.931 . S
C1737 C1738 1.348 . S
C1737 C1739 1.413 . S
C1738 H1733 0.930 . S
C1738 C1736 1.378 1_655 S
C1738 C1737 1.348 . S
C1739 C1735 1.415 . S
C1739 C1737 1.413 . S
C1739 C1769 1.437 . S
H1740 C1769 0.929 . S
N1741 Gd1714 2.570 1_655 S
N1741 C1742 1.359 . S
N1741 C1745 1.343 . S
C1742 C1735 1.422 . S
C1742 N1741 1.359 . S
C1742 C1744 1.421 . S
C1743 C1744 1.422 . S
C1743 C1746 1.321 . S
C1743 H1770 0.931 . S
C1744 C1742 1.421 . S
C1744 C1743 1.422 . S
C1744 C1768 1.417 . S
C1745 H1722 0.931 1_655 S
C1745 N1741 1.343 . S
C1745 C1746 1.390 . S
C1746 H1724 0.930 . S
C1746 C1743 1.321 . S
C1746 C1745 1.390 . S
O1747 Gd1715 2.386 . S
O1747 C1759 1.265 . S
O1748 Gd1714 2.353 . S
O1748 C1759 1.242 . S
O1749 Gd1714 2.468 . S
O1749 C1767 1.263 . S
O1750 Gd1714 2.427 . S
O1750 C1767 1.252 . S
O1751 Gd1715 2.307 . S
O1751 C1760 1.261 . S
O1752 Gd1714 2.388 . S
O1752 C1760 1.252 . S
O1753 Gd1714 2.386 1_655 S
O1753 C1771 1.265 . S
O1754 Gd1715 2.353 1_655 S
O1754 C1771 1.242 . S
O1755 Gd1715 2.468 . S
O1755 C1779 1.263 . S
O1756 Gd1715 2.427 . S
O1756 C1779 1.252 . S
O1757 Gd1714 2.307 . S
O1757 C1772 1.261 . S
O1758 Gd1715 2.388 . S
O1758 C1772 1.252 . S
C1759 O1747 1.265 . S
C1759 O1748 1.242 . S
C1760 O1751 1.261 . S
C1760 O1752 1.252 . S
C1761 C1764 1.394 . S
C1761 C1766 1.370 . S
C1761 C1767 1.500 . S
C1762 C1765 1.383 . S
C1762 C1766 1.395 . S
C1763 C1764 1.396 . S
C1763 C1765 1.365 . S
C1763 H1780 0.929 . S
C1764 C1761 1.394 . S
C1764 C1763 1.396 . S
C1764 H1781 0.930 . S
C1765 C1762 1.383 . S
C1765 C1763 1.365 . S
C1765 H1782 0.931 . S
C1766 C1761 1.370 . S
C1766 C1762 1.395 . S
C1766 H1783 0.930 . S
C1767 Gd1714 2.805 . S
C1767 O1749 1.263 . S
C1767 O1750 1.252 . S
C1767 C1761 1.500 . S
C1768 H1730 0.930 . S
C1768 C1744 1.417 . S
C1768 C1769 1.329 . S
C1769 C1739 1.437 . S
C1769 H1740 0.929 . S
C1769 C1768 1.329 . S
H1770 C1743 0.931 . S
C1771 O1753 1.265 . S
C1771 O1754 1.242 . S
C1772 O1757 1.261 . S
C1772 O1758 1.252 . S
C1773 C1776 1.394 . S
C1773 C1778 1.370 . S
C1773 C1779 1.500 1_655 S
C1774 C1777 1.383 . S
C1774 C1778 1.395 . S
C1775 C1776 1.396 . S
C1775 C1777 1.365 . S
C1775 H1784 0.929 . S
C1776 C1773 1.394 . S
C1776 C1775 1.396 . S
C1776 H1785 0.930 . S
C1777 C1774 1.383 . S
C1777 C1775 1.365 . S
C1777 H1786 0.931 . S
C1778 C1773 1.370 . S
C1778 C1774 1.395 . S
C1778 H1787 0.930 . S
C1779 Gd1715 2.805 . S
C1779 O1755 1.263 . S
C1779 O1756 1.252 . S
C1779 C1773 1.500 1_455 S
H1780 C1763 0.929 . S
H1781 C1764 0.930 . S
H1782 C1765 0.931 . S
H1783 C1766 0.930 . S
H1784 C1775 0.929 . S
H1785 C1776 0.930 . S
H1786 C1777 0.931 . S
H1787 C1778 0.930 . S
C1788 C1790 1.422 . S
C1788 C1792 1.415 . S
C1788 N1794 1.369 . S
C1789 C1790 1.421 . S
C1789 C1791 1.417 . S
C1789 C1801 1.422 . S
C1790 C1788 1.422 . S
C1790 C1789 1.421 . S
C1790 N1800 1.359 . S
C1791 C1789 1.417 . S
C1791 C1793 1.329 . S
C1791 H1810 0.930 . S
C1792 C1788 1.415 . S
C1792 C1793 1.437 . S
C1792 C1796 1.413 . S
C1793 C1791 1.329 . S
C1793 C1792 1.437 . S
C1793 H1815 0.929 . S
N1794 C1788 1.369 . S
N1794 C1795 1.338 . S
N1794 Gd1799 2.622 . S
C1795 N1794 1.338 . S
C1795 C1797 1.378 . S
C1795 H1807 0.929 . S
C1796 C1792 1.413 . S
C1796 C1797 1.348 . S
C1796 H1812 0.931 . S
C1797 C1795 1.378 . S
C1797 C1796 1.348 . S
C1797 H1813 0.930 . S
Gd1798 N1818 2.622 . S
Gd1798 N1825 2.570 . S
Gd1798 O1832 2.353 . S
Gd1798 O1833 2.468 . S
Gd1798 O1834 2.427 . S
Gd1798 O1836 2.388 . S
Gd1798 O1837 2.386 . S
Gd1798 O1841 2.307 . S
Gd1798 C1851 2.805 . S
Gd1799 N1794 2.622 . S
Gd1799 N1800 2.570 . S
Gd1799 O1831 2.386 . S
Gd1799 O1835 2.307 . S
Gd1799 O1838 2.353 . S
Gd1799 O1839 2.468 . S
Gd1799 O1840 2.427 . S
Gd1799 O1842 2.388 . S
Gd1799 C1863 2.805 . S
N1800 C1790 1.359 . S
N1800 Gd1799 2.570 . S
N1800 C1802 1.343 . S
C1801 C1789 1.422 . S
C1801 C1803 1.321 . S
C1801 H1809 0.931 . S
C1802 N1800 1.343 . S
C1802 C1803 1.390 . S
C1802 H1804 0.931 . S
C1803 C1801 1.321 . S
C1803 C1802 1.390 . S
C1803 H1805 0.930 . S
H1804 C1802 0.931 . S
H1805 C1803 0.930 . S
H1806 C1829 0.931 . S
H1807 C1795 0.929 . S
H1808 C1830 0.930 . S
H1809 C1801 0.931 . S
H1810 C1791 0.930 . S
H1811 C1820 0.929 . S
H1812 C1796 0.931 . S
H1813 C1797 0.930 . S
H1814 C1852 0.930 . S
H1815 C1793 0.929 . S
H1816 C1821 0.931 . S
H1817 C1822 0.930 . S
N1818 Gd1798 2.622 . S
N1818 C1819 1.369 . S
N1818 C1820 1.338 . S
C1819 N1818 1.369 . S
C1819 C1823 1.415 . S
C1819 C1826 1.422 . S
C1820 H1811 0.929 . S
C1820 N1818 1.338 . S
C1820 C1822 1.378 . S
C1821 H1816 0.931 . S
C1821 C1822 1.348 . S
C1821 C1823 1.413 . S
C1822 H1817 0.930 . S
C1822 C1820 1.378 . S
C1822 C1821 1.348 . S
C1823 C1819 1.415 . S
C1823 C1821 1.413 . S
C1823 C1853 1.437 . S
H1824 C1853 0.929 . S
N1825 Gd1798 2.570 . S
N1825 C1826 1.359 . S
N1825 C1829 1.343 . S
C1826 C1819 1.422 . S
C1826 N1825 1.359 . S
C1826 C1828 1.421 . S
C1827 C1828 1.422 . S
C1827 C1830 1.321 . S
C1827 H1854 0.931 . S
C1828 C1826 1.421 . S
C1828 C1827 1.422 . S
C1828 C1852 1.417 . S
C1829 H1806 0.931 . S
C1829 N1825 1.343 . S
C1829 C1830 1.390 . S
C1830 H1808 0.930 . S
C1830 C1827 1.321 . S
C1830 C1829 1.390 . S
O1831 Gd1799 2.386 . S
O1831 C1843 1.265 . S
O1832 Gd1798 2.353 . S
O1832 C1843 1.242 . S
O1833 Gd1798 2.468 . S
O1833 C1851 1.263 . S
O1834 Gd1798 2.427 . S
O1834 C1851 1.252 . S
O1835 Gd1799 2.307 . S
O1835 C1844 1.261 . S
O1836 Gd1798 2.388 . S
O1836 C1844 1.252 . S
O1837 Gd1798 2.386 . S
O1837 C1855 1.265 . S
O1838 Gd1799 2.353 . S
O1838 C1855 1.242 . S
O1839 Gd1799 2.468 . S
O1839 C1863 1.263 . S
O1840 Gd1799 2.427 . S
O1840 C1863 1.252 . S
O1841 Gd1798 2.307 . S
O1841 C1856 1.261 . S
O1842 Gd1799 2.388 . S
O1842 C1856 1.252 . S
C1843 O1831 1.265 . S
C1843 O1832 1.242 . S
C1844 O1835 1.261 . S
C1844 O1836 1.252 . S
C1845 C1848 1.394 . S
C1845 C1850 1.370 . S
C1845 C1851 1.500 . S
C1846 C1849 1.383 . S
C1846 C1850 1.395 . S
C1847 C1848 1.396 . S
C1847 C1849 1.365 . S
C1847 H1864 0.929 . S
C1848 C1845 1.394 . S
C1848 C1847 1.396 . S
C1848 H1865 0.930 . S
C1849 C1846 1.383 . S
C1849 C1847 1.365 . S
C1849 H1866 0.931 . S
C1850 C1845 1.370 . S
C1850 C1846 1.395 . S
C1850 H1867 0.930 . S
C1851 Gd1798 2.805 . S
C1851 O1833 1.263 . S
C1851 O1834 1.252 . S
C1851 C1845 1.500 . S
C1852 H1814 0.930 . S
C1852 C1828 1.417 . S
C1852 C1853 1.329 . S
C1853 C1823 1.437 . S
C1853 H1824 0.929 . S
C1853 C1852 1.329 . S
H1854 C1827 0.931 . S
C1855 O1837 1.265 . S
C1855 O1838 1.242 . S
C1856 O1841 1.261 . S
C1856 O1842 1.252 . S
C1857 C1860 1.394 . S
C1857 C1862 1.370 . S
C1857 C1863 1.500 . S
C1858 C1861 1.383 . S
C1858 C1862 1.395 . S
C1859 C1860 1.396 . S
C1859 C1861 1.365 . S
C1859 H1868 0.929 . S
C1860 C1857 1.394 . S
C1860 C1859 1.396 . S
C1860 H1869 0.930 . S
C1861 C1858 1.383 . S
C1861 C1859 1.365 . S
C1861 H1870 0.931 . S
C1862 C1857 1.370 . S
C1862 C1858 1.395 . S
C1862 H1871 0.930 . S
C1863 Gd1799 2.805 . S
C1863 O1839 1.263 . S
C1863 O1840 1.252 . S
C1863 C1857 1.500 . S
H1864 C1847 0.929 . S
H1865 C1848 0.930 . S
H1866 C1849 0.931 . S
H1867 C1850 0.930 . S
H1868 C1859 0.929 . S
H1869 C1860 0.930 . S
H1870 C1861 0.931 . S
H1871 C1862 0.930 . S
C1872 C1874 1.422 . S
C1872 C1876 1.415 . S
C1872 N1878 1.369 . S
C1873 C1874 1.421 . S
C1873 C1875 1.417 . S
C1873 C1885 1.422 . S
C1874 C1872 1.422 . S
C1874 C1873 1.421 . S
C1874 N1884 1.359 . S
C1875 C1873 1.417 . S
C1875 C1877 1.329 . S
C1875 H1894 0.930 . S
C1876 C1872 1.415 . S
C1876 C1877 1.437 . S
C1876 C1880 1.413 . S
C1877 C1875 1.329 . S
C1877 C1876 1.437 . S
C1877 H1899 0.929 . S
N1878 C1872 1.369 . S
N1878 C1879 1.338 . S
N1878 Gd1883 2.622 . S
C1879 N1878 1.338 . S
C1879 C1881 1.378 . S
C1879 H1891 0.929 . S
C1880 C1876 1.413 . S
C1880 C1881 1.348 . S
C1880 H1896 0.931 . S
C1881 C1879 1.378 . S
C1881 C1880 1.348 . S
C1881 H1897 0.930 . S
Gd1882 N1902 2.622 . S
Gd1882 N1909 2.570 . S
Gd1882 O1916 2.353 . S
Gd1882 O1917 2.468 . S
Gd1882 O1918 2.427 . S
Gd1882 O1920 2.388 . S
Gd1882 O1921 2.386 . S
Gd1882 O1925 2.307 . S
Gd1882 C1935 2.805 . S
Gd1883 N1878 2.622 . S
Gd1883 N1884 2.570 . S
Gd1883 O1915 2.386 . S
Gd1883 O1919 2.307 . S
Gd1883 O1922 2.353 . S
Gd1883 O1923 2.468 . S
Gd1883 O1924 2.427 . S
Gd1883 O1926 2.388 . S
Gd1883 C1947 2.805 . S
N1884 C1874 1.359 . S
N1884 Gd1883 2.570 . S
N1884 C1886 1.343 . S
C1885 C1873 1.422 . S
C1885 C1887 1.321 . S
C1885 H1893 0.931 . S
C1886 N1884 1.343 . S
C1886 C1887 1.390 . S
C1886 H1888 0.931 . S
C1887 C1885 1.321 . S
C1887 C1886 1.390 . S
C1887 H1889 0.930 . S
H1888 C1886 0.931 . S
H1889 C1887 0.930 . S
H1890 C1913 0.931 . S
H1891 C1879 0.929 . S
H1892 C1914 0.930 . S
H1893 C1885 0.931 . S
H1894 C1875 0.930 . S
H1895 C1904 0.929 . S
H1896 C1880 0.931 . S
H1897 C1881 0.930 . S
H1898 C1936 0.930 . S
H1899 C1877 0.929 . S
H1900 C1905 0.931 . S
H1901 C1906 0.930 . S
N1902 Gd1882 2.622 . S
N1902 C1903 1.369 . S
N1902 C1904 1.338 . S
C1903 N1902 1.369 . S
C1903 C1907 1.415 . S
C1903 C1910 1.422 . S
C1904 H1895 0.929 . S
C1904 N1902 1.338 . S
C1904 C1906 1.378 . S
C1905 H1900 0.931 . S
C1905 C1906 1.348 . S
C1905 C1907 1.413 . S
C1906 H1901 0.930 . S
C1906 C1904 1.378 . S
C1906 C1905 1.348 . S
C1907 C1903 1.415 . S
C1907 C1905 1.413 . S
C1907 C1937 1.437 . S
H1908 C1937 0.929 . S
N1909 Gd1882 2.570 . S
N1909 C1910 1.359 . S
N1909 C1913 1.343 . S
C1910 C1903 1.422 . S
C1910 N1909 1.359 . S
C1910 C1912 1.421 . S
C1911 C1912 1.422 . S
C1911 C1914 1.321 . S
C1911 H1938 0.931 . S
C1912 C1910 1.421 . S
C1912 C1911 1.422 . S
C1912 C1936 1.417 . S
C1913 H1890 0.931 . S
C1913 N1909 1.343 . S
C1913 C1914 1.390 . S
C1914 H1892 0.930 . S
C1914 C1911 1.321 . S
C1914 C1913 1.390 . S
O1915 Gd1883 2.386 . S
O1915 C1927 1.265 . S
O1916 Gd1882 2.353 . S
O1916 C1927 1.242 . S
O1917 Gd1882 2.468 . S
O1917 C1935 1.263 . S
O1918 Gd1882 2.427 . S
O1918 C1935 1.252 . S
O1919 Gd1883 2.307 . S
O1919 C1928 1.261 . S
O1920 Gd1882 2.388 . S
O1920 C1928 1.252 . S
O1921 Gd1882 2.386 . S
O1921 C1939 1.265 . S
O1922 Gd1883 2.353 . S
O1922 C1939 1.242 . S
O1923 Gd1883 2.468 . S
O1923 C1947 1.263 . S
O1924 Gd1883 2.427 . S
O1924 C1947 1.252 . S
O1925 Gd1882 2.307 . S
O1925 C1940 1.261 . S
O1926 Gd1883 2.388 . S
O1926 C1940 1.252 . S
C1927 O1915 1.265 . S
C1927 O1916 1.242 . S
C1928 O1919 1.261 . S
C1928 O1920 1.252 . S
C1929 C1932 1.394 . S
C1929 C1934 1.370 . S
C1929 C1935 1.500 . S
C1930 C1933 1.383 . S
C1930 C1934 1.395 . S
C1931 C1932 1.396 . S
C1931 C1933 1.365 . S
C1931 H1948 0.929 . S
C1932 C1929 1.394 . S
C1932 C1931 1.396 . S
C1932 H1949 0.930 . S
C1933 C1930 1.383 . S
C1933 C1931 1.365 . S
C1933 H1950 0.931 . S
C1934 C1929 1.370 . S
C1934 C1930 1.395 . S
C1934 H1951 0.930 . S
C1935 Gd1882 2.805 . S
C1935 O1917 1.263 . S
C1935 O1918 1.252 . S
C1935 C1929 1.500 . S
C1936 H1898 0.930 . S
C1936 C1912 1.417 . S
C1936 C1937 1.329 . S
C1937 C1907 1.437 . S
C1937 H1908 0.929 . S
C1937 C1936 1.329 . S
H1938 C1911 0.931 . S
C1939 O1921 1.265 . S
C1939 O1922 1.242 . S
C1940 O1925 1.261 . S
C1940 O1926 1.252 . S
C1941 C1944 1.394 . S
C1941 C1946 1.370 . S
C1941 C1947 1.500 . S
C1942 C1945 1.383 . S
C1942 C1946 1.395 . S
C1943 C1944 1.396 . S
C1943 C1945 1.365 . S
C1943 H1952 0.929 . S
C1944 C1941 1.394 . S
C1944 C1943 1.396 . S
C1944 H1953 0.930 . S
C1945 C1942 1.383 . S
C1945 C1943 1.365 . S
C1945 H1954 0.931 . S
C1946 C1941 1.370 . S
C1946 C1942 1.395 . S
C1946 H1955 0.930 . S
C1947 Gd1883 2.805 . S
C1947 O1923 1.263 . S
C1947 O1924 1.252 . S
C1947 C1941 1.500 . S
H1948 C1931 0.929 . S
H1949 C1932 0.930 . S
H1950 C1933 0.931 . S
H1951 C1934 0.930 . S
H1952 C1943 0.929 . S
H1953 C1944 0.930 . S
H1954 C1945 0.931 . S
H1955 C1946 0.930 . S
C1956 C1958 1.422 . S
C1956 C1960 1.415 . S
C1956 N1962 1.369 . S
C1957 C1958 1.421 . S
C1957 C1959 1.417 . S
C1957 C1969 1.422 . S
C1958 C1956 1.422 . S
C1958 C1957 1.421 . S
C1958 N1968 1.359 . S
C1959 C1957 1.417 . S
C1959 C1961 1.329 . S
C1959 H1978 0.930 . S
C1960 C1956 1.415 . S
C1960 C1961 1.437 . S
C1960 C1964 1.413 . S
C1961 C1959 1.329 . S
C1961 C1960 1.437 . S
C1961 H1983 0.929 . S
N1962 C1956 1.369 . S
N1962 C1963 1.338 . S
N1962 Gd1967 2.622 . S
C1963 N1962 1.338 . S
C1963 C1965 1.378 . S
C1963 H1975 0.929 . S
C1964 C1960 1.413 . S
C1964 C1965 1.348 . S
C1964 H1980 0.931 . S
C1965 C1963 1.378 . S
C1965 C1964 1.348 . S
C1965 H1981 0.930 . S
Gd1966 N1986 2.622 . S
Gd1966 N1993 2.570 . S
Gd1966 O2000 2.353 . S
Gd1966 O2001 2.468 . S
Gd1966 O2002 2.427 . S
Gd1966 O2004 2.388 . S
Gd1966 O2005 2.386 . S
Gd1966 O2009 2.307 . S
Gd1966 C2019 2.805 . S
Gd1967 N1962 2.622 . S
Gd1967 N1968 2.570 . S
Gd1967 O1999 2.386 . S
Gd1967 O2003 2.307 . S
Gd1967 O2006 2.353 . S
Gd1967 O2007 2.468 . S
Gd1967 O2008 2.427 . S
Gd1967 O2010 2.388 . S
Gd1967 C2031 2.805 . S
N1968 C1958 1.359 . S
N1968 Gd1967 2.570 . S
N1968 C1970 1.343 . S
C1969 C1957 1.422 . S
C1969 C1971 1.321 . S
C1969 H1977 0.931 . S
C1970 N1968 1.343 . S
C1970 C1971 1.390 . S
C1970 H1972 0.931 . S
C1971 C1969 1.321 . S
C1971 C1970 1.390 . S
C1971 H1973 0.930 . S
H1972 C1970 0.931 . S
H1973 C1971 0.930 . S
H1974 C1997 0.931 . S
H1975 C1963 0.929 . S
H1976 C1998 0.930 . S
H1977 C1969 0.931 . S
H1978 C1959 0.930 . S
H1979 C1988 0.929 . S
H1980 C1964 0.931 . S
H1981 C1965 0.930 . S
H1982 C2020 0.930 . S
H1983 C1961 0.929 . S
H1984 C1989 0.931 . S
H1985 C1990 0.930 . S
N1986 Gd1966 2.622 . S
N1986 C1987 1.369 . S
N1986 C1988 1.338 . S
C1987 N1986 1.369 . S
C1987 C1991 1.415 . S
C1987 C1994 1.422 . S
C1988 H1979 0.929 . S
C1988 N1986 1.338 . S
C1988 C1990 1.378 . S
C1989 H1984 0.931 . S
C1989 C1990 1.348 . S
C1989 C1991 1.413 . S
C1990 H1985 0.930 . S
C1990 C1988 1.378 . S
C1990 C1989 1.348 . S
C1991 C1987 1.415 . S
C1991 C1989 1.413 . S
C1991 C2021 1.437 . S
H1992 C2021 0.929 . S
N1993 Gd1966 2.570 . S
N1993 C1994 1.359 . S
N1993 C1997 1.343 . S
C1994 C1987 1.422 . S
C1994 N1993 1.359 . S
C1994 C1996 1.421 . S
C1995 C1996 1.422 . S
C1995 C1998 1.321 . S
C1995 H2022 0.931 . S
C1996 C1994 1.421 . S
C1996 C1995 1.422 . S
C1996 C2020 1.417 . S
C1997 H1974 0.931 . S
C1997 N1993 1.343 . S
C1997 C1998 1.390 . S
C1998 H1976 0.930 . S
C1998 C1995 1.321 . S
C1998 C1997 1.390 . S
O1999 Gd1967 2.386 . S
O1999 C2011 1.265 . S
O2000 Gd1966 2.353 . S
O2000 C2011 1.242 . S
O2001 Gd1966 2.468 . S
O2001 C2019 1.263 . S
O2002 Gd1966 2.427 . S
O2002 C2019 1.252 . S
O2003 Gd1967 2.307 . S
O2003 C2012 1.261 . S
O2004 Gd1966 2.388 . S
O2004 C2012 1.252 . S
O2005 Gd1966 2.386 . S
O2005 C2023 1.265 . S
O2006 Gd1967 2.353 . S
O2006 C2023 1.242 . S
O2007 Gd1967 2.468 . S
O2007 C2031 1.263 . S
O2008 Gd1967 2.427 . S
O2008 C2031 1.252 . S
O2009 Gd1966 2.307 . S
O2009 C2024 1.261 . S
O2010 Gd1967 2.388 . S
O2010 C2024 1.252 . S
C2011 O1999 1.265 . S
C2011 O2000 1.242 . S
C2012 O2003 1.261 . S
C2012 O2004 1.252 . S
C2013 C2016 1.394 . S
C2013 C2018 1.370 . S
C2013 C2019 1.500 . S
C2014 C2017 1.383 . S
C2014 C2018 1.395 . S
C2015 C2016 1.396 . S
C2015 C2017 1.365 . S
C2015 H2032 0.929 . S
C2016 C2013 1.394 . S
C2016 C2015 1.396 . S
C2016 H2033 0.930 . S
C2017 C2014 1.383 . S
C2017 C2015 1.365 . S
C2017 H2034 0.931 . S
C2018 C2013 1.370 . S
C2018 C2014 1.395 . S
C2018 H2035 0.930 . S
C2019 Gd1966 2.805 . S
C2019 O2001 1.263 . S
C2019 O2002 1.252 . S
C2019 C2013 1.500 . S
C2020 H1982 0.930 . S
C2020 C1996 1.417 . S
C2020 C2021 1.329 . S
C2021 C1991 1.437 . S
C2021 H1992 0.929 . S
C2021 C2020 1.329 . S
H2022 C1995 0.931 . S
C2023 O2005 1.265 . S
C2023 O2006 1.242 . S
C2024 O2009 1.261 . S
C2024 O2010 1.252 . S
C2025 C2028 1.394 . S
C2025 C2030 1.370 . S
C2025 C2031 1.500 . S
C2026 C2029 1.383 . S
C2026 C2030 1.395 . S
C2027 C2028 1.396 . S
C2027 C2029 1.365 . S
C2027 H2036 0.929 . S
C2028 C2025 1.394 . S
C2028 C2027 1.396 . S
C2028 H2037 0.930 . S
C2029 C2026 1.383 . S
C2029 C2027 1.365 . S
C2029 H2038 0.931 . S
C2030 C2025 1.370 . S
C2030 C2026 1.395 . S
C2030 H2039 0.930 . S
C2031 Gd1967 2.805 . S
C2031 O2007 1.263 . S
C2031 O2008 1.252 . S
C2031 C2025 1.500 . S
H2032 C2015 0.929 . S
H2033 C2016 0.930 . S
H2034 C2017 0.931 . S
H2035 C2018 0.930 . S
H2036 C2027 0.929 . S
H2037 C2028 0.930 . S
H2038 C2029 0.931 . S
H2039 C2030 0.930 . S
C2040 C2042 1.422 . S
C2040 C2044 1.415 . S
C2040 N2046 1.369 . S
C2041 C2042 1.421 . S
C2041 C2043 1.417 . S
C2041 C2053 1.422 . S
C2042 C2040 1.422 . S
C2042 C2041 1.421 . S
C2042 N2052 1.359 . S
C2043 C2041 1.417 . S
C2043 C2045 1.329 . S
C2043 H2062 0.930 . S
C2044 C2040 1.415 . S
C2044 C2045 1.437 . S
C2044 C2048 1.413 . S
C2045 C2043 1.329 . S
C2045 C2044 1.437 . S
C2045 H2067 0.929 . S
N2046 C2040 1.369 . S
N2046 C2047 1.338 . S
N2046 Gd2051 2.622 . S
C2047 N2046 1.338 . S
C2047 C2049 1.378 . S
C2047 H2059 0.929 . S
C2048 C2044 1.413 . S
C2048 C2049 1.348 . S
C2048 H2064 0.931 . S
C2049 C2047 1.378 . S
C2049 C2048 1.348 . S
C2049 H2065 0.930 . S
Gd2050 N2070 2.622 . S
Gd2050 N2077 2.570 . S
Gd2050 O2084 2.353 . S
Gd2050 O2085 2.468 . S
Gd2050 O2086 2.427 . S
Gd2050 O2088 2.388 . S
Gd2050 O2089 2.386 . S
Gd2050 O2093 2.307 . S
Gd2050 C2103 2.805 . S
Gd2051 N2046 2.622 . S
Gd2051 N2052 2.570 . S
Gd2051 O2083 2.386 . S
Gd2051 O2087 2.307 . S
Gd2051 O2090 2.353 . S
Gd2051 O2091 2.468 . S
Gd2051 O2092 2.427 . S
Gd2051 O2094 2.388 . S
Gd2051 C2115 2.805 . S
N2052 C2042 1.359 . S
N2052 Gd2051 2.570 . S
N2052 C2054 1.343 . S
C2053 C2041 1.422 . S
C2053 C2055 1.321 . S
C2053 H2061 0.931 . S
C2054 N2052 1.343 . S
C2054 C2055 1.390 . S
C2054 H2056 0.931 . S
C2055 C2053 1.321 . S
C2055 C2054 1.390 . S
C2055 H2057 0.930 . S
H2056 C2054 0.931 . S
H2057 C2055 0.930 . S
H2058 C2081 0.931 . S
H2059 C2047 0.929 . S
H2060 C2082 0.930 . S
H2061 C2053 0.931 . S
H2062 C2043 0.930 . S
H2063 C2072 0.929 . S
H2064 C2048 0.931 . S
H2065 C2049 0.930 . S
H2066 C2104 0.930 . S
H2067 C2045 0.929 . S
H2068 C2073 0.931 . S
H2069 C2074 0.930 . S
N2070 Gd2050 2.622 . S
N2070 C2071 1.369 . S
N2070 C2072 1.338 . S
C2071 N2070 1.369 . S
C2071 C2075 1.415 . S
C2071 C2078 1.422 . S
C2072 H2063 0.929 . S
C2072 N2070 1.338 . S
C2072 C2074 1.378 . S
C2073 H2068 0.931 . S
C2073 C2074 1.348 . S
C2073 C2075 1.413 . S
C2074 H2069 0.930 . S
C2074 C2072 1.378 . S
C2074 C2073 1.348 . S
C2075 C2071 1.415 . S
C2075 C2073 1.413 . S
C2075 C2105 1.437 . S
H2076 C2105 0.929 . S
N2077 Gd2050 2.570 . S
N2077 C2078 1.359 . S
N2077 C2081 1.343 . S
C2078 C2071 1.422 . S
C2078 N2077 1.359 . S
C2078 C2080 1.421 . S
C2079 C2080 1.422 . S
C2079 C2082 1.321 . S
C2079 H2106 0.931 . S
C2080 C2078 1.421 . S
C2080 C2079 1.422 . S
C2080 C2104 1.417 . S
C2081 H2058 0.931 . S
C2081 N2077 1.343 . S
C2081 C2082 1.390 . S
C2082 H2060 0.930 . S
C2082 C2079 1.321 . S
C2082 C2081 1.390 . S
O2083 Gd2051 2.386 . S
O2083 C2095 1.265 . S
O2084 Gd2050 2.353 . S
O2084 C2095 1.242 . S
O2085 Gd2050 2.468 . S
O2085 C2103 1.263 . S
O2086 Gd2050 2.427 . S
O2086 C2103 1.252 . S
O2087 Gd2051 2.307 . S
O2087 C2096 1.261 . S
O2088 Gd2050 2.388 . S
O2088 C2096 1.252 . S
O2089 Gd2050 2.386 . S
O2089 C2107 1.265 . S
O2090 Gd2051 2.353 . S
O2090 C2107 1.242 . S
O2091 Gd2051 2.468 . S
O2091 C2115 1.263 . S
O2092 Gd2051 2.427 . S
O2092 C2115 1.252 . S
O2093 Gd2050 2.307 . S
O2093 C2108 1.261 . S
O2094 Gd2051 2.388 . S
O2094 C2108 1.252 . S
C2095 O2083 1.265 . S
C2095 O2084 1.242 . S
C2096 O2087 1.261 . S
C2096 O2088 1.252 . S
C2097 C2100 1.394 . S
C2097 C2102 1.370 . S
C2097 C2103 1.500 . S
C2098 C2101 1.383 . S
C2098 C2102 1.395 . S
C2099 C2100 1.396 . S
C2099 C2101 1.365 . S
C2099 H2116 0.929 . S
C2100 C2097 1.394 . S
C2100 C2099 1.396 . S
C2100 H2117 0.930 . S
C2101 C2098 1.383 . S
C2101 C2099 1.365 . S
C2101 H2118 0.931 . S
C2102 C2097 1.370 . S
C2102 C2098 1.395 . S
C2102 H2119 0.930 . S
C2103 Gd2050 2.805 . S
C2103 O2085 1.263 . S
C2103 O2086 1.252 . S
C2103 C2097 1.500 . S
C2104 H2066 0.930 . S
C2104 C2080 1.417 . S
C2104 C2105 1.329 . S
C2105 C2075 1.437 . S
C2105 H2076 0.929 . S
C2105 C2104 1.329 . S
H2106 C2079 0.931 . S
C2107 O2089 1.265 . S
C2107 O2090 1.242 . S
C2108 O2093 1.261 . S
C2108 O2094 1.252 . S
C2109 C2112 1.394 . S
C2109 C2114 1.370 . S
C2109 C2115 1.500 . S
C2110 C2113 1.383 . S
C2110 C2114 1.395 . S
C2111 C2112 1.396 . S
C2111 C2113 1.365 . S
C2111 H2120 0.929 . S
C2112 C2109 1.394 . S
C2112 C2111 1.396 . S
C2112 H2121 0.930 . S
C2113 C2110 1.383 . S
C2113 C2111 1.365 . S
C2113 H2122 0.931 . S
C2114 C2109 1.370 . S
C2114 C2110 1.395 . S
C2114 H2123 0.930 . S
C2115 Gd2051 2.805 . S
C2115 O2091 1.263 . S
C2115 O2092 1.252 . S
C2115 C2109 1.500 . S
H2116 C2099 0.929 . S
H2117 C2100 0.930 . S
H2118 C2101 0.931 . S
H2119 C2102 0.930 . S
H2120 C2111 0.929 . S
H2121 C2112 0.930 . S
H2122 C2113 0.931 . S
H2123 C2114 0.930 . S
C2124 C2126 1.422 1_556 S
C2124 C2128 1.415 . S
C2124 N2130 1.369 . S
C2125 C2126 1.421 . S
C2125 C2127 1.417 . S
C2125 C2137 1.422 . S
C2126 C2124 1.422 1_554 S
C2126 C2125 1.421 . S
C2126 N2136 1.359 . S
C2127 C2125 1.417 . S
C2127 C2129 1.329 1_554 S
C2127 H2146 0.930 . S
C2128 C2124 1.415 . S
C2128 C2129 1.437 . S
C2128 C2132 1.413 . S
C2129 C2127 1.329 1_556 S
C2129 C2128 1.437 . S
C2129 H2151 0.929 . S
N2130 C2124 1.369 . S
N2130 C2131 1.338 . S
N2130 Gd2135 2.622 1_556 S
C2131 N2130 1.338 . S
C2131 C2133 1.378 . S
C2131 H2143 0.929 . S
C2132 C2128 1.413 . S
C2132 C2133 1.348 . S
C2132 H2148 0.931 . S
C2133 C2131 1.378 . S
C2133 C2132 1.348 . S
C2133 H2149 0.930 . S
Gd2134 N2154 2.613 1_455 S
Gd2134 N2161 2.549 1_455 S
Gd2134 O2168 2.363 . S
Gd2134 O2169 2.440 1_455 S
Gd2134 O2170 2.404 1_455 S
Gd2134 O2172 2.411 . S
Gd2134 O2173 2.404 . S
Gd2134 O2177 2.313 . S
Gd2134 C2187 2.777 1_455 S
Gd2135 N2130 2.622 1_554 S
Gd2135 N2136 2.570 . S
Gd2135 O2167 2.386 . S
Gd2135 O2171 2.307 . S
Gd2135 O2174 2.353 . S
Gd2135 O2175 2.468 . S
Gd2135 O2176 2.427 1_554 S
Gd2135 O2178 2.388 1_554 S
Gd2135 C2199 2.805 . S
N2136 C2126 1.359 . S
N2136 Gd2135 2.570 . S
N2136 C2138 1.343 . S
C2137 C2125 1.422 . S
C2137 C2139 1.321 . S
C2137 H2145 0.931 . S
C2138 N2136 1.343 . S
C2138 C2139 1.390 . S
C2138 H2140 0.931 . S
C2139 C2137 1.321 . S
C2139 C2138 1.390 . S
C2139 H2141 0.930 . S
H2140 C2138 0.931 . S
H2141 C2139 0.930 . S
H2142 C2165 0.931 1_556 S
H2143 C2131 0.929 . S
H2144 C2166 0.956 . S
H2145 C2137 0.931 . S
H2146 C2127 0.930 . S
H2147 C2156 0.929 1_455 S
H2148 C2132 0.931 . S
H2149 C2133 0.930 . S
H2150 C2188 0.930 . S
H2151 C2129 0.929 . S
H2152 C2157 0.931 . S
H2153 C2158 0.938 . S
N2154 Gd2134 2.613 1_655 S
N2154 C2155 1.369 . S
N2154 C2156 1.338 . S
C2155 N2154 1.369 . S
C2155 C2159 1.415 . S
C2155 C2162 1.422 . S
C2156 H2147 0.929 1_655 S
C2156 N2154 1.338 . S
C2156 C2158 1.378 . S
C2157 H2152 0.931 . S
C2157 C2158 1.348 . S
C2157 C2159 1.413 . S
C2158 H2153 0.938 . S
C2158 C2156 1.378 . S
C2158 C2157 1.348 . S
C2159 C2155 1.415 . S
C2159 C2157 1.413 . S
C2159 C2189 1.437 . S
H2160 C2189 0.929 . S
N2161 Gd2134 2.549 1_655 S
N2161 C2162 1.359 . S
N2161 C2165 1.343 . S
C2162 C2155 1.422 . S
C2162 N2161 1.359 . S
C2162 C2164 1.421 . S
C2163 C2164 1.422 . S
C2163 C2166 1.301 1_554 S
C2163 H2190 0.931 . S
C2164 C2162 1.421 . S
C2164 C2163 1.422 . S
C2164 C2188 1.417 . S
C2165 H2142 0.931 1_554 S
C2165 N2161 1.343 . S
C2165 C2166 1.385 1_554 S
C2166 H2144 0.956 . S
C2166 C2163 1.301 1_556 S
C2166 C2165 1.385 1_556 S
O2167 Gd2135 2.386 . S
O2167 C2179 1.265 . S
O2168 Gd2134 2.363 . S
O2168 C2179 1.242 . S
O2169 Gd2134 2.440 1_655 S
O2169 C2187 1.263 . S
O2170 Gd2134 2.404 1_655 S
O2170 C2187 1.252 . S
O2171 Gd2135 2.307 . S
O2171 C2180 1.261 . S
O2172 Gd2134 2.411 . S
O2172 C2180 1.252 . S
O2173 Gd2134 2.404 . S
O2173 C2191 1.265 . S
O2174 Gd2135 2.353 . S
O2174 C2191 1.242 . S
O2175 Gd2135 2.468 . S
O2175 C2199 1.263 . S
O2176 Gd2135 2.427 1_556 S
O2176 C2199 1.252 1_556 S
O2177 Gd2134 2.313 . S
O2177 C2192 1.261 1_554 S
O2178 Gd2135 2.388 1_556 S
O2178 C2192 1.252 . S
C2179 O2167 1.265 . S
C2179 O2168 1.242 . S
C2180 O2171 1.261 . S
C2180 O2172 1.252 . S
C2181 C2184 1.394 . S
C2181 C2186 1.370 . S
C2181 C2187 1.500 . S
C2182 C2185 1.383 . S
C2182 C2186 1.395 . S
C2183 C2184 1.396 . S
C2183 C2185 1.365 . S
C2183 H2200 0.929 . S
C2184 C2181 1.394 . S
C2184 C2183 1.396 . S
C2184 H2201 0.930 . S
C2185 C2182 1.383 . S
C2185 C2183 1.365 . S
C2185 H2202 0.931 . S
C2186 C2181 1.370 . S
C2186 C2182 1.395 . S
C2186 H2203 0.930 . S
C2187 Gd2134 2.777 1_655 S
C2187 O2169 1.263 . S
C2187 O2170 1.252 . S
C2187 C2181 1.500 . S
C2188 H2150 0.930 . S
C2188 C2164 1.417 . S
C2188 C2189 1.329 . S
C2189 C2159 1.437 . S
C2189 H2160 0.929 . S
C2189 C2188 1.329 . S
H2190 C2163 0.931 . S
C2191 O2173 1.265 . S
C2191 O2174 1.242 . S
C2192 O2177 1.261 1_556 S
C2192 O2178 1.252 . S
C2193 C2196 1.394 . S
C2193 C2198 1.370 1_556 S
C2193 C2199 1.500 1_556 S
C2194 C2197 1.383 1_554 S
C2194 C2198 1.395 . S
C2195 C2196 1.396 . S
C2195 C2197 1.365 . S
C2195 H2204 0.929 . S
C2196 C2193 1.394 . S
C2196 C2195 1.396 . S
C2196 H2205 0.930 . S
C2197 C2194 1.383 1_556 S
C2197 C2195 1.365 . S
C2197 H2206 0.931 . S
C2198 C2193 1.370 1_554 S
C2198 C2194 1.395 . S
C2198 H2207 0.930 . S
C2199 Gd2135 2.805 . S
C2199 O2175 1.263 . S
C2199 O2176 1.252 1_554 S
C2199 C2193 1.500 1_554 S
H2200 C2183 0.929 . S
H2201 C2184 0.930 . S
H2202 C2185 0.931 . S
H2203 C2186 0.930 . S
H2204 C2195 0.929 . S
H2205 C2196 0.930 . S
H2206 C2197 0.931 . S
H2207 C2198 0.930 . S
C2208 C2209 1.391 1_655 S
C2208 C2210 1.394 . S
C2208 H2224 0.931 . S
C2209 C2208 1.391 1_455 S
C2209 C2213 1.376 . S
C2210 C2208 1.394 . S
C2210 C2211 1.369 1_655 S
C2210 C2214 1.531 . S
C2211 C2210 1.369 1_455 S
C2211 C2212 1.410 . S
C2211 C2219 1.503 . S
C2212 C2211 1.410 . S
C2212 C2213 1.392 . S
C2212 C2215 1.511 1_556 S
C2213 C2209 1.376 . S
C2213 C2212 1.392 . S
C2213 H2225 0.923 1_556 S
C2214 C2210 1.531 . S
C2214 H2226 0.960 . S
C2214 H2227 0.962 . S
C2214 H2228 0.960 . S
C2215 C2212 1.511 1_554 S
C2215 H2229 0.961 . S
C2215 H2230 0.961 . S
C2215 H2231 0.961 . S
C2216 C2217 1.370 . S
C2216 C2218 1.378 . S
C2216 H2232 0.931 1_455 S
C2217 C2216 1.370 . S
C2217 C2221 1.408 1_554 S
C2218 C2216 1.378 . S
C2218 C2219 1.400 1_554 S
C2218 C2222 1.482 1_455 S
C2219 C2211 1.503 . S
C2219 C2218 1.400 1_556 S
C2219 C2220 1.403 . S
C2220 C2219 1.403 . S
C2220 C2221 1.404 . S
C2220 C2223 1.539 . S
C2221 C2217 1.408 1_556 S
C2221 C2220 1.404 . S
C2221 H2233 0.930 . S
C2222 C2218 1.482 1_655 S
C2222 H2234 0.956 . S
C2222 H2235 0.961 . S
C2222 H2236 0.961 . S
C2223 C2220 1.539 . S
C2223 H2237 0.958 . S
C2223 H2238 0.961 . S
C2223 H2239 0.960 . S
H2224 C2208 0.931 . S
H2225 C2213 0.923 1_554 S
H2226 C2214 0.960 . S
H2227 C2214 0.962 . S
H2228 C2214 0.960 . S
H2229 C2215 0.961 . S
H2230 C2215 0.961 . S
H2231 C2215 0.961 . S
H2232 C2216 0.931 1_655 S
H2233 C2221 0.930 . S
H2234 C2222 0.956 . S
H2235 C2222 0.961 . S
H2236 C2222 0.961 . S
H2237 C2223 0.958 . S
H2238 C2223 0.961 . S
H2239 C2223 0.960 . S
C2240 C2241 1.391 . S
C2240 C2242 1.394 . S
C2240 H2256 0.931 . S
C2241 C2240 1.391 . S
C2241 C2245 1.376 . S
C2242 C2240 1.394 . S
C2242 C2243 1.369 . S
C2242 C2246 1.531 . S
C2243 C2242 1.369 . S
C2243 C2244 1.410 . S
C2243 C2251 1.503 . S
C2244 C2243 1.410 . S
C2244 C2245 1.392 . S
C2244 C2247 1.511 . S
C2245 C2241 1.376 . S
C2245 C2244 1.392 . S
C2245 H2257 0.929 . S
C2246 C2242 1.531 . S
C2246 H2258 0.960 . S
C2246 H2259 0.962 . S
C2246 H2260 0.960 . S
C2247 C2244 1.511 . S
C2247 H2261 0.961 . S
C2247 H2262 0.961 . S
C2247 H2263 0.961 . S
C2248 C2249 1.370 . S
C2248 C2250 1.363 . S
C2248 H2264 0.931 . S
C2249 C2248 1.370 . S
C2249 C2253 1.408 . S
C2250 C2248 1.363 . S
C2250 C2251 1.370 . S
C2250 C2254 1.524 . S
C2251 C2243 1.503 . S
C2251 C2250 1.370 . S
C2251 C2252 1.403 . S
C2252 C2251 1.403 . S
C2252 C2253 1.404 . S
C2252 C2255 1.539 . S
C2253 C2249 1.408 . S
C2253 C2252 1.404 . S
C2253 H2265 0.930 . S
C2254 C2250 1.524 . S
C2254 H2266 0.956 . S
C2254 H2267 0.961 . S
C2254 H2268 0.961 . S
C2255 C2252 1.539 . S
C2255 H2269 0.958 . S
C2255 H2270 0.961 . S
C2255 H2271 0.960 . S
H2256 C2240 0.931 . S
H2257 C2245 0.929 . S
H2258 C2246 0.960 . S
H2259 C2246 0.962 . S
H2260 C2246 0.960 . S
H2261 C2247 0.961 . S
H2262 C2247 0.961 . S
H2263 C2247 0.961 . S
H2264 C2248 0.931 . S
H2265 C2253 0.930 . S
H2266 C2254 0.956 . S
H2267 C2254 0.961 . S
H2268 C2254 0.961 . S
H2269 C2255 0.958 . S
H2270 C2255 0.961 . S
H2271 C2255 0.960 . S
C2272 C2273 1.391 . S
C2272 C2274 1.394 . S
C2272 H2288 0.931 . S
C2273 C2272 1.391 . S
C2273 C2277 1.376 . S
C2274 C2272 1.394 . S
C2274 C2275 1.369 . S
C2274 C2278 1.531 . S
C2275 C2274 1.369 . S
C2275 C2276 1.410 . S
C2275 C2283 1.503 . S
C2276 C2275 1.410 . S
C2276 C2277 1.392 . S
C2276 C2279 1.511 . S
C2277 C2273 1.376 . S
C2277 C2276 1.392 . S
C2277 H2289 0.929 . S
C2278 C2274 1.531 . S
C2278 H2290 0.960 . S
C2278 H2291 0.962 . S
C2278 H2292 0.960 . S
C2279 C2276 1.511 . S
C2279 H2293 0.961 . S
C2279 H2294 0.961 . S
C2279 H2295 0.961 . S
C2280 C2281 1.370 . S
C2280 C2282 1.363 . S
C2280 H2296 0.931 . S
C2281 C2280 1.370 . S
C2281 C2285 1.408 . S
C2282 C2280 1.363 . S
C2282 C2283 1.370 . S
C2282 C2286 1.524 . S
C2283 C2275 1.503 . S
C2283 C2282 1.370 . S
C2283 C2284 1.403 . S
C2284 C2283 1.403 . S
C2284 C2285 1.404 . S
C2284 C2287 1.539 . S
C2285 C2281 1.408 . S
C2285 C2284 1.404 . S
C2285 H2297 0.930 . S
C2286 C2282 1.524 . S
C2286 H2298 0.956 . S
C2286 H2299 0.961 . S
C2286 H2300 0.961 . S
C2287 C2284 1.539 . S
C2287 H2301 0.958 . S
C2287 H2302 0.961 . S
C2287 H2303 0.960 . S
H2288 C2272 0.931 . S
H2289 C2277 0.929 . S
H2290 C2278 0.960 . S
H2291 C2278 0.962 . S
H2292 C2278 0.960 . S
H2293 C2279 0.961 . S
H2294 C2279 0.961 . S
H2295 C2279 0.961 . S
H2296 C2280 0.931 . S
H2297 C2285 0.930 . S
H2298 C2286 0.956 . S
H2299 C2286 0.961 . S
H2300 C2286 0.961 . S
H2301 C2287 0.958 . S
H2302 C2287 0.961 . S
H2303 C2287 0.960 . S
C2304 C2305 1.391 . S
C2304 C2306 1.394 . S
C2304 H2320 0.931 . S
C2305 C2304 1.391 . S
C2305 C2309 1.376 . S
C2306 C2304 1.394 . S
C2306 C2307 1.369 . S
C2306 C2310 1.531 . S
C2307 C2306 1.369 . S
C2307 C2308 1.410 . S
C2307 C2315 1.503 . S
C2308 C2307 1.410 . S
C2308 C2309 1.392 . S
C2308 C2311 1.511 . S
C2309 C2305 1.376 . S
C2309 C2308 1.392 . S
C2309 H2321 0.929 . S
C2310 C2306 1.531 . S
C2310 H2322 0.960 . S
C2310 H2323 0.962 . S
C2310 H2324 0.960 . S
C2311 C2308 1.511 . S
C2311 H2325 0.961 . S
C2311 H2326 0.961 . S
C2311 H2327 0.961 . S
C2312 C2313 1.370 . S
C2312 C2314 1.363 . S
C2312 H2328 0.931 . S
C2313 C2312 1.370 . S
C2313 C2317 1.408 . S
C2314 C2312 1.363 . S
C2314 C2315 1.370 . S
C2314 C2318 1.524 . S
C2315 C2307 1.503 . S
C2315 C2314 1.370 . S
C2315 C2316 1.403 . S
C2316 C2315 1.403 . S
C2316 C2317 1.404 . S
C2316 C2319 1.539 . S
C2317 C2313 1.408 . S
C2317 C2316 1.404 . S
C2317 H2329 0.930 . S
C2318 C2314 1.524 . S
C2318 H2330 0.956 . S
C2318 H2331 0.961 . S
C2318 H2332 0.961 . S
C2319 C2316 1.539 . S
C2319 H2333 0.958 . S
C2319 H2334 0.961 . S
C2319 H2335 0.960 . S
H2320 C2304 0.931 . S
H2321 C2309 0.929 . S
H2322 C2310 0.960 . S
H2323 C2310 0.962 . S
H2324 C2310 0.960 . S
H2325 C2311 0.961 . S
H2326 C2311 0.961 . S
H2327 C2311 0.961 . S
H2328 C2312 0.931 . S
H2329 C2317 0.930 . S
H2330 C2318 0.956 . S
H2331 C2318 0.961 . S
H2332 C2318 0.961 . S
H2333 C2319 0.958 . S
H2334 C2319 0.961 . S
H2335 C2319 0.960 . S
C2336 C2337 1.391 . S
C2336 C2338 1.394 . S
C2336 H2352 0.931 1_455 S
C2337 C2336 1.391 . S
C2337 C2341 1.376 . S
C2338 C2336 1.394 . S
C2338 C2339 1.369 . S
C2338 C2342 1.531 1_455 S
C2339 C2338 1.369 . S
C2339 C2340 1.410 . S
C2339 C2347 1.503 . S
C2340 C2339 1.410 . S
C2340 C2341 1.392 . S
C2340 C2343 1.511 . S
C2341 C2337 1.376 . S
C2341 C2340 1.392 . S
C2341 H2353 0.929 . S
C2342 C2338 1.531 1_655 S
C2342 H2354 0.960 1_655 S
C2342 H2355 0.962 . S
C2342 H2356 0.960 . S
C2343 C2340 1.511 . S
C2343 H2357 0.961 . S
C2343 H2358 0.961 . S
C2343 H2359 0.961 . S
C2344 C2345 1.370 . S
C2344 C2346 1.363 . S
C2344 H2360 0.931 . S
C2345 C2344 1.370 . S
C2345 C2349 1.408 . S
C2346 C2344 1.363 . S
C2346 C2347 1.370 . S
C2346 C2350 1.524 . S
C2347 C2339 1.503 . S
C2347 C2346 1.370 . S
C2347 C2348 1.403 . S
C2348 C2347 1.403 . S
C2348 C2349 1.404 . S
C2348 C2351 1.539 . S
C2349 C2345 1.408 . S
C2349 C2348 1.404 . S
C2349 H2361 0.930 . S
C2350 C2346 1.524 . S
C2350 H2362 0.956 1_455 S
C2350 H2363 0.961 . S
C2350 H2364 0.961 1_455 S
C2351 C2348 1.539 . S
C2351 H2365 0.958 . S
C2351 H2366 0.961 . S
C2351 H2367 0.960 . S
H2352 C2336 0.931 1_655 S
H2353 C2341 0.929 . S
H2354 C2342 0.960 1_455 S
H2355 C2342 0.962 . S
H2356 C2342 0.960 . S
H2357 C2343 0.961 . S
H2358 C2343 0.961 . S
H2359 C2343 0.961 . S
H2360 C2344 0.931 . S
H2361 C2349 0.930 . S
H2362 C2350 0.956 1_655 S
H2363 C2350 0.961 . S
H2364 C2350 0.961 1_655 S
H2365 C2351 0.958 . S
H2366 C2351 0.961 . S
H2367 C2351 0.960 . S
C2368 C2369 1.391 . S
C2368 C2370 1.394 . S
C2368 H2384 0.931 . S
C2369 C2368 1.391 . S
C2369 C2373 1.376 . S
C2370 C2368 1.394 . S
C2370 C2371 1.369 . S
C2370 C2374 1.531 . S
C2371 C2370 1.369 . S
C2371 C2372 1.410 . S
C2371 C2379 1.503 . S
C2372 C2371 1.410 . S
C2372 C2373 1.392 . S
C2372 C2375 1.511 . S
C2373 C2369 1.376 . S
C2373 C2372 1.392 . S
C2373 H2385 0.929 . S
C2374 C2370 1.531 . S
C2374 H2386 0.960 . S
C2374 H2387 0.962 . S
C2374 H2388 0.960 . S
C2375 C2372 1.511 . S
C2375 H2389 0.961 . S
C2375 H2390 0.961 . S
C2375 H2391 0.961 . S
C2376 C2377 1.370 . S
C2376 C2378 1.363 . S
C2376 H2392 0.931 . S
C2377 C2376 1.370 . S
C2377 C2381 1.408 . S
C2378 C2376 1.363 . S
C2378 C2379 1.370 . S
C2378 C2382 1.524 . S
C2379 C2371 1.503 . S
C2379 C2378 1.370 . S
C2379 C2380 1.403 . S
C2380 C2379 1.403 . S
C2380 C2381 1.404 . S
C2380 C2383 1.539 . S
C2381 C2377 1.408 . S
C2381 C2380 1.404 . S
C2381 H2393 0.930 . S
C2382 C2378 1.524 . S
C2382 H2394 0.956 . S
C2382 H2395 0.961 . S
C2382 H2396 0.961 . S
C2383 C2380 1.539 . S
C2383 H2397 0.958 . S
C2383 H2398 0.961 . S
C2383 H2399 0.960 . S
H2384 C2368 0.931 . S
H2385 C2373 0.929 . S
H2386 C2374 0.960 . S
H2387 C2374 0.962 . S
H2388 C2374 0.960 . S
H2389 C2375 0.961 . S
H2390 C2375 0.961 . S
H2391 C2375 0.961 . S
H2392 C2376 0.931 . S
H2393 C2381 0.930 . S
H2394 C2382 0.956 . S
H2395 C2382 0.961 . S
H2396 C2382 0.961 . S
H2397 C2383 0.958 . S
H2398 C2383 0.961 . S
H2399 C2383 0.960 . S
C2400 C2401 1.391 . S
C2400 C2402 1.394 . S
C2400 H2416 0.931 . S
C2401 C2400 1.391 . S
C2401 C2405 1.376 . S
C2402 C2400 1.394 . S
C2402 C2403 1.369 . S
C2402 C2406 1.531 . S
C2403 C2402 1.369 . S
C2403 C2404 1.410 . S
C2403 C2411 1.503 . S
C2404 C2403 1.410 . S
C2404 C2405 1.392 . S
C2404 C2407 1.511 . S
C2405 C2401 1.376 . S
C2405 C2404 1.392 . S
C2405 H2417 0.929 . S
C2406 C2402 1.531 . S
C2406 H2418 0.960 . S
C2406 H2419 0.962 . S
C2406 H2420 0.960 . S
C2407 C2404 1.511 . S
C2407 H2421 0.961 . S
C2407 H2422 0.961 . S
C2407 H2423 0.961 . S
C2408 C2409 1.370 . S
C2408 C2410 1.363 . S
C2408 H2424 0.931 . S
C2409 C2408 1.370 . S
C2409 C2413 1.408 . S
C2410 C2408 1.363 . S
C2410 C2411 1.370 . S
C2410 C2414 1.524 . S
C2411 C2403 1.503 . S
C2411 C2410 1.370 . S
C2411 C2412 1.403 . S
C2412 C2411 1.403 . S
C2412 C2413 1.404 . S
C2412 C2415 1.539 . S
C2413 C2409 1.408 . S
C2413 C2412 1.404 . S
C2413 H2425 0.930 . S
C2414 C2410 1.524 . S
C2414 H2426 0.956 . S
C2414 H2427 0.961 . S
C2414 H2428 0.961 . S
C2415 C2412 1.539 . S
C2415 H2429 0.958 . S
C2415 H2430 0.961 . S
C2415 H2431 0.960 . S
H2416 C2400 0.931 . S
H2417 C2405 0.929 . S
H2418 C2406 0.960 . S
H2419 C2406 0.962 . S
H2420 C2406 0.960 . S
H2421 C2407 0.961 . S
H2422 C2407 0.961 . S
H2423 C2407 0.961 . S
H2424 C2408 0.931 . S
H2425 C2413 0.930 . S
H2426 C2414 0.956 . S
H2427 C2414 0.961 . S
H2428 C2414 0.961 . S
H2429 C2415 0.958 . S
H2430 C2415 0.961 . S
H2431 C2415 0.960 . S
C2432 C2433 1.391 . S
C2432 C2434 1.394 . S
C2432 H2448 0.931 . S
C2433 C2432 1.391 . S
C2433 C2437 1.376 . S
C2434 C2432 1.394 . S
C2434 C2435 1.369 . S
C2434 C2438 1.531 . S
C2435 C2434 1.369 . S
C2435 C2436 1.410 . S
C2435 C2443 1.503 . S
C2436 C2435 1.410 . S
C2436 C2437 1.392 . S
C2436 C2439 1.511 . S
C2437 C2433 1.376 . S
C2437 C2436 1.392 . S
C2437 H2449 0.929 . S
C2438 C2434 1.531 . S
C2438 H2450 0.960 . S
C2438 H2451 0.962 . S
C2438 H2452 0.960 . S
C2439 C2436 1.511 . S
C2439 H2453 0.961 . S
C2439 H2454 0.961 . S
C2439 H2455 0.961 . S
C2440 C2441 1.370 . S
C2440 C2442 1.363 . S
C2440 H2456 0.931 . S
C2441 C2440 1.370 . S
C2441 C2445 1.408 . S
C2442 C2440 1.363 . S
C2442 C2443 1.370 . S
C2442 C2446 1.524 . S
C2443 C2435 1.503 . S
C2443 C2442 1.370 . S
C2443 C2444 1.403 . S
C2444 C2443 1.403 . S
C2444 C2445 1.404 . S
C2444 C2447 1.539 . S
C2445 C2441 1.408 . S
C2445 C2444 1.404 . S
C2445 H2457 0.930 . S
C2446 C2442 1.524 . S
C2446 H2458 0.956 . S
C2446 H2459 0.961 . S
C2446 H2460 0.961 . S
C2447 C2444 1.539 . S
C2447 H2461 0.958 . S
C2447 H2462 0.961 . S
C2447 H2463 0.960 . S
H2448 C2432 0.931 . S
H2449 C2437 0.929 . S
H2450 C2438 0.960 . S
H2451 C2438 0.962 . S
H2452 C2438 0.960 . S
H2453 C2439 0.961 . S
H2454 C2439 0.961 . S
H2455 C2439 0.961 . S
H2456 C2440 0.931 . S
H2457 C2445 0.930 . S
H2458 C2446 0.956 . S
H2459 C2446 0.961 . S
H2460 C2446 0.961 . S
H2461 C2447 0.958 . S
H2462 C2447 0.961 . S
H2463 C2447 0.960 . S
C2464 C2465 1.391 . S
C2464 C2466 1.394 . S
C2464 H2480 0.931 . S
C2465 C2464 1.391 . S
C2465 C2469 1.376 . S
C2466 C2464 1.394 . S
C2466 C2467 1.369 . S
C2466 C2470 1.531 . S
C2467 C2466 1.369 . S
C2467 C2468 1.410 . S
C2467 C2475 1.503 . S
C2468 C2467 1.410 . S
C2468 C2469 1.392 . S
C2468 C2471 1.505 1_645 S
C2469 C2465 1.376 . S
C2469 C2468 1.392 . S
C2469 H2481 0.929 1_545 S
C2470 C2466 1.531 . S
C2470 H2482 0.960 . S
C2470 H2483 0.962 . S
C2470 H2484 0.960 . S
C2471 C2468 1.505 1_465 S
C2471 H2485 0.970 . S
C2471 H2486 0.962 . S
C2471 H2487 0.956 1_565 S
C2472 C2473 1.370 1_655 S
C2472 C2474 1.363 . S
C2472 H2488 0.931 . S
C2473 C2472 1.370 1_455 S
C2473 C2477 1.408 . S
C2474 C2472 1.363 . S
C2474 C2475 1.370 . S
C2474 C2478 1.524 1_545 S
C2475 C2467 1.503 . S
C2475 C2474 1.370 . S
C2475 C2476 1.403 1_655 S
C2476 C2475 1.403 1_455 S
C2476 C2477 1.404 . S
C2476 C2479 1.539 . S
C2477 C2473 1.408 . S
C2477 C2476 1.404 . S
C2477 H2489 0.930 . S
C2478 C2474 1.524 1_565 S
C2478 H2490 0.987 . S
C2478 H2491 0.961 . S
C2478 H2492 0.961 . S
C2479 C2476 1.539 . S
C2479 H2493 0.958 . S
C2479 H2494 0.961 . S
C2479 H2495 0.960 . S
H2480 C2464 0.931 . S
H2481 C2469 0.929 1_565 S
H2482 C2470 0.960 . S
H2483 C2470 0.962 . S
H2484 C2470 0.960 . S
H2485 C2471 0.970 . S
H2486 C2471 0.962 . S
H2487 C2471 0.956 1_545 S
H2488 C2472 0.931 . S
H2489 C2477 0.930 . S
H2490 C2478 0.987 . S
H2491 C2478 0.961 . S
H2492 C2478 0.961 . S
H2493 C2479 0.958 . S
H2494 C2479 0.961 . S
H2495 C2479 0.960 . S
C2496 C2497 1.391 . S
C2496 C2498 1.394 . S
C2496 H2512 0.931 . S
C2497 C2496 1.391 . S
C2497 C2501 1.376 . S
C2498 C2496 1.394 . S
C2498 C2499 1.369 . S
C2498 C2502 1.531 . S
C2499 C2498 1.369 . S
C2499 C2500 1.410 . S
C2499 C2507 1.503 . S
C2500 C2499 1.410 . S
C2500 C2501 1.392 . S
C2500 C2503 1.511 . S
C2501 C2497 1.376 . S
C2501 C2500 1.392 . S
C2501 H2513 0.929 . S
C2502 C2498 1.531 . S
C2502 H2514 0.960 . S
C2502 H2515 0.962 . S
C2502 H2516 0.960 . S
C2503 C2500 1.511 . S
C2503 H2517 0.961 . S
C2503 H2518 0.961 . S
C2503 H2519 0.961 . S
C2504 C2505 1.370 . S
C2504 C2506 1.363 . S
C2504 H2520 0.931 . S
C2505 C2504 1.370 . S
C2505 C2509 1.408 . S
C2506 C2504 1.363 . S
C2506 C2507 1.370 . S
C2506 C2510 1.524 . S
C2507 C2499 1.503 . S
C2507 C2506 1.370 . S
C2507 C2508 1.403 . S
C2508 C2507 1.403 . S
C2508 C2509 1.404 . S
C2508 C2511 1.539 . S
C2509 C2505 1.408 . S
C2509 C2508 1.404 . S
C2509 H2521 0.930 . S
C2510 C2506 1.524 . S
C2510 H2522 0.956 . S
C2510 H2523 0.961 . S
C2510 H2524 0.961 . S
C2511 C2508 1.539 . S
C2511 H2525 0.958 . S
C2511 H2526 0.961 . S
C2511 H2527 0.960 . S
H2512 C2496 0.931 . S
H2513 C2501 0.929 . S
H2514 C2502 0.960 . S
H2515 C2502 0.962 . S
H2516 C2502 0.960 . S
H2517 C2503 0.961 . S
H2518 C2503 0.961 . S
H2519 C2503 0.961 . S
H2520 C2504 0.931 . S
H2521 C2509 0.930 . S
H2522 C2510 0.956 . S
H2523 C2510 0.961 . S
H2524 C2510 0.961 . S
H2525 C2511 0.958 . S
H2526 C2511 0.961 . S
H2527 C2511 0.960 . S
C2528 C2529 1.391 . S
C2528 C2530 1.394 . S
C2528 H2544 0.931 . S
C2529 C2528 1.391 . S
C2529 C2533 1.376 . S
C2530 C2528 1.394 . S
C2530 C2531 1.369 . S
C2530 C2534 1.531 . S
C2531 C2530 1.369 . S
C2531 C2532 1.410 . S
C2531 C2539 1.503 . S
C2532 C2531 1.410 . S
C2532 C2533 1.392 . S
C2532 C2535 1.511 . S
C2533 C2529 1.376 . S
C2533 C2532 1.392 . S
C2533 H2545 0.929 . S
C2534 C2530 1.531 . S
C2534 H2546 0.960 . S
C2534 H2547 0.962 . S
C2534 H2548 0.960 . S
C2535 C2532 1.511 . S
C2535 H2549 0.961 . S
C2535 H2550 0.961 . S
C2535 H2551 0.961 . S
C2536 C2537 1.370 . S
C2536 C2538 1.363 . S
C2536 H2552 0.931 . S
C2537 C2536 1.370 . S
C2537 C2541 1.408 . S
C2538 C2536 1.363 . S
C2538 C2539 1.370 . S
C2538 C2542 1.524 . S
C2539 C2531 1.503 . S
C2539 C2538 1.370 . S
C2539 C2540 1.403 . S
C2540 C2539 1.403 . S
C2540 C2541 1.404 . S
C2540 C2543 1.539 . S
C2541 C2537 1.408 . S
C2541 C2540 1.404 . S
C2541 H2553 0.930 . S
C2542 C2538 1.524 . S
C2542 H2554 0.956 . S
C2542 H2555 0.961 . S
C2542 H2556 0.961 1_545 S
C2543 C2540 1.539 . S
C2543 H2557 0.958 . S
C2543 H2558 0.961 . S
C2543 H2559 0.960 . S
H2544 C2528 0.931 . S
H2545 C2533 0.929 . S
H2546 C2534 0.960 . S
H2547 C2534 0.962 . S
H2548 C2534 0.960 . S
H2549 C2535 0.961 . S
H2550 C2535 0.961 . S
H2551 C2535 0.961 . S
H2552 C2536 0.931 . S
H2553 C2541 0.930 . S
H2554 C2542 0.956 . S
H2555 C2542 0.961 . S
H2556 C2542 0.961 1_565 S
H2557 C2543 0.958 . S
H2558 C2543 0.961 . S
H2559 C2543 0.960 . S
C2560 C2561 1.391 . S
C2560 C2562 1.394 . S
C2560 H2576 0.931 . S
C2561 C2560 1.391 . S
C2561 C2565 1.376 . S
C2562 C2560 1.394 . S
C2562 C2563 1.369 . S
C2562 C2566 1.531 . S
C2563 C2562 1.369 . S
C2563 C2564 1.410 . S
C2563 C2571 1.503 . S
C2564 C2563 1.410 . S
C2564 C2565 1.392 . S
C2564 C2567 1.511 . S
C2565 C2561 1.376 . S
C2565 C2564 1.392 . S
C2565 H2577 0.929 . S
C2566 C2562 1.531 . S
C2566 H2578 0.960 . S
C2566 H2579 0.962 . S
C2566 H2580 0.960 . S
C2567 C2564 1.511 . S
C2567 H2581 0.961 . S
C2567 H2582 0.961 . S
C2567 H2583 0.961 . S
C2568 C2569 1.370 . S
C2568 C2570 1.363 . S
C2568 H2584 0.931 . S
C2569 C2568 1.370 . S
C2569 C2573 1.408 . S
C2570 C2568 1.363 . S
C2570 C2571 1.370 . S
C2570 C2574 1.524 . S
C2571 C2563 1.503 . S
C2571 C2570 1.370 . S
C2571 C2572 1.403 . S
C2572 C2571 1.403 . S
C2572 C2573 1.404 . S
C2572 C2575 1.539 . S
C2573 C2569 1.408 . S
C2573 C2572 1.404 . S
C2573 H2585 0.930 . S
C2574 C2570 1.524 . S
C2574 H2586 0.956 . S
C2574 H2587 0.961 . S
C2574 H2588 0.961 . S
C2575 C2572 1.539 . S
C2575 H2589 0.958 . S
C2575 H2590 0.961 . S
C2575 H2591 0.960 . S
H2576 C2560 0.931 . S
H2577 C2565 0.929 . S
H2578 C2566 0.960 . S
H2579 C2566 0.962 . S
H2580 C2566 0.960 . S
H2581 C2567 0.961 . S
H2582 C2567 0.961 . S
H2583 C2567 0.961 . S
H2584 C2568 0.931 . S
H2585 C2573 0.930 . S
H2586 C2574 0.956 . S
H2587 C2574 0.961 . S
H2588 C2574 0.961 . S
H2589 C2575 0.958 . S
H2590 C2575 0.961 . S
H2591 C2575 0.960 . S
C2592 C2593 1.391 . S
C2592 C2594 1.394 . S
C2592 H2608 0.931 . S
C2593 C2592 1.391 . S
C2593 C2597 1.376 . S
C2594 C2592 1.394 . S
C2594 C2595 1.369 . S
C2594 C2598 1.531 . S
C2595 C2594 1.369 . S
C2595 C2596 1.410 . S
C2595 C2603 1.503 . S
C2596 C2595 1.410 . S
C2596 C2597 1.392 . S
C2596 C2599 1.511 1_655 S
C2597 C2593 1.376 . S
C2597 C2596 1.392 . S
C2597 H2609 0.929 . S
C2598 C2594 1.531 . S
C2598 H2610 0.960 . S
C2598 H2611 0.962 . S
C2598 H2612 0.960 . S
C2599 C2596 1.511 1_455 S
C2599 H2613 0.961 . S
C2599 H2614 0.961 . S
C2599 H2615 0.961 1_545 S
C2600 C2601 1.370 . S
C2600 C2602 1.363 1_455 S
C2600 H2616 0.931 . S
C2601 C2600 1.370 . S
C2601 C2605 1.408 1_455 S
C2602 C2600 1.363 1_655 S
C2602 C2603 1.370 . S
C2602 C2606 1.524 1_655 S
C2603 C2595 1.503 . S
C2603 C2602 1.370 . S
C2603 C2604 1.443 . S
C2604 C2603 1.443 . S
C2604 C2605 1.399 . S
C2604 C2607 1.503 1_545 S
C2605 C2601 1.408 1_655 S
C2605 C2604 1.399 . S
C2605 H2617 0.930 1_545 S
C2606 C2602 1.524 1_455 S
C2606 H2618 0.956 1_455 S
C2606 H2619 0.961 . S
C2606 H2620 0.961 . S
C2607 C2604 1.503 1_565 S
C2607 H2621 0.958 . S
C2607 H2622 0.961 . S
C2607 H2623 0.960 . S
H2608 C2592 0.931 . S
H2609 C2597 0.929 . S
H2610 C2598 0.960 . S
H2611 C2598 0.962 . S
H2612 C2598 0.960 . S
H2613 C2599 0.961 . S
H2614 C2599 0.961 . S
H2615 C2599 0.961 1_565 S
H2616 C2600 0.931 . S
H2617 C2605 0.930 1_565 S
H2618 C2606 0.956 1_655 S
H2619 C2606 0.961 . S
H2620 C2606 0.961 . S
H2621 C2607 0.958 . S
H2622 C2607 0.961 . S
H2623 C2607 0.960 . S
C2624 C2625 1.391 . S
C2624 C2626 1.394 . S
C2624 H2640 0.931 . S
C2625 C2624 1.391 . S
C2625 C2629 1.376 . S
C2626 C2624 1.394 . S
C2626 C2627 1.369 . S
C2626 C2630 1.531 . S
C2627 C2626 1.369 . S
C2627 C2628 1.410 . S
C2627 C2635 1.503 . S
C2628 C2627 1.410 . S
C2628 C2629 1.392 . S
C2628 C2631 1.511 . S
C2629 C2625 1.376 . S
C2629 C2628 1.392 . S
C2629 H2641 0.929 . S
C2630 C2626 1.531 . S
C2630 H2642 0.960 . S
C2630 H2643 0.962 . S
C2630 H2644 0.960 . S
C2631 C2628 1.511 . S
C2631 H2645 0.961 . S
C2631 H2646 0.961 . S
C2631 H2647 0.961 . S
C2632 C2633 1.370 . S
C2632 C2634 1.363 . S
C2632 H2648 0.931 . S
C2633 C2632 1.370 . S
C2633 C2637 1.408 . S
C2634 C2632 1.363 . S
C2634 C2635 1.370 . S
C2634 C2638 1.524 . S
C2635 C2627 1.503 . S
C2635 C2634 1.370 . S
C2635 C2636 1.403 . S
C2636 C2635 1.403 . S
C2636 C2637 1.404 . S
C2636 C2639 1.539 . S
C2637 C2633 1.408 . S
C2637 C2636 1.404 . S
C2637 H2649 0.930 . S
C2638 C2634 1.524 . S
C2638 H2650 0.956 . S
C2638 H2651 0.961 . S
C2638 H2652 0.961 . S
C2639 C2636 1.539 . S
C2639 H2653 0.958 . S
C2639 H2654 0.961 . S
C2639 H2655 0.960 . S
H2640 C2624 0.931 . S
H2641 C2629 0.929 . S
H2642 C2630 0.960 . S
H2643 C2630 0.962 . S
H2644 C2630 0.960 . S
H2645 C2631 0.961 . S
H2646 C2631 0.961 . S
H2647 C2631 0.961 . S
H2648 C2632 0.931 . S
H2649 C2637 0.930 . S
H2650 C2638 0.956 . S
H2651 C2638 0.961 . S
H2652 C2638 0.961 . S
H2653 C2639 0.958 . S
H2654 C2639 0.961 . S
H2655 C2639 0.960 . S
C2656 C2657 1.391 . S
C2656 C2658 1.394 . S
C2656 H2672 0.931 . S
C2657 C2656 1.391 . S
C2657 C2661 1.376 . S
C2658 C2656 1.394 . S
C2658 C2659 1.369 . S
C2658 C2662 1.531 . S
C2659 C2658 1.369 . S
C2659 C2660 1.410 . S
C2659 C2667 1.503 . S
C2660 C2659 1.410 . S
C2660 C2661 1.392 . S
C2660 C2663 1.511 . S
C2661 C2657 1.376 . S
C2661 C2660 1.392 . S
C2661 H2673 0.929 . S
C2662 C2658 1.531 . S
C2662 H2674 0.960 . S
C2662 H2675 0.962 . S
C2662 H2676 0.960 . S
C2663 C2660 1.511 . S
C2663 H2677 0.961 . S
C2663 H2678 0.961 . S
C2663 H2679 0.961 . S
C2664 C2665 1.370 . S
C2664 C2666 1.363 . S
C2664 H2680 0.931 . S
C2665 C2664 1.370 . S
C2665 C2669 1.408 . S
C2666 C2664 1.363 . S
C2666 C2667 1.370 . S
C2666 C2670 1.524 . S
C2667 C2659 1.503 . S
C2667 C2666 1.370 . S
C2667 C2668 1.403 . S
C2668 C2667 1.403 . S
C2668 C2669 1.404 . S
C2668 C2671 1.539 . S
C2669 C2665 1.408 . S
C2669 C2668 1.404 . S
C2669 H2681 0.930 . S
C2670 C2666 1.524 . S
C2670 H2682 0.956 . S
C2670 H2683 0.961 . S
C2670 H2684 0.961 . S
C2671 C2668 1.539 . S
C2671 H2685 0.958 . S
C2671 H2686 0.961 . S
C2671 H2687 0.960 . S
H2672 C2656 0.931 . S
H2673 C2661 0.929 . S
H2674 C2662 0.960 . S
H2675 C2662 0.962 . S
H2676 C2662 0.960 . S
H2677 C2663 0.961 . S
H2678 C2663 0.961 . S
H2679 C2663 0.961 . S
H2680 C2664 0.931 . S
H2681 C2669 0.930 . S
H2682 C2670 0.956 . S
H2683 C2670 0.961 . S
H2684 C2670 0.961 . S
H2685 C2671 0.958 . S
H2686 C2671 0.961 . S
H2687 C2671 0.960 . S
C2688 C2689 1.391 . S
C2688 C2690 1.394 . S
C2688 H2704 0.931 . S
C2689 C2688 1.391 . S
C2689 C2693 1.376 . S
C2690 C2688 1.394 . S
C2690 C2691 1.369 . S
C2690 C2694 1.531 . S
C2691 C2690 1.369 . S
C2691 C2692 1.410 . S
C2691 C2699 1.503 . S
C2692 C2691 1.410 . S
C2692 C2693 1.392 . S
C2692 C2695 1.511 . S
C2693 C2689 1.376 . S
C2693 C2692 1.392 . S
C2693 H2705 0.929 . S
C2694 C2690 1.531 . S
C2694 H2706 0.960 . S
C2694 H2707 0.962 . S
C2694 H2708 0.960 . S
C2695 C2692 1.511 . S
C2695 H2709 0.961 . S
C2695 H2710 0.961 . S
C2695 H2711 0.961 . S
C2696 C2697 1.370 . S
C2696 C2698 1.363 . S
C2696 H2712 0.931 . S
C2697 C2696 1.370 . S
C2697 C2701 1.408 . S
C2698 C2696 1.363 . S
C2698 C2699 1.370 . S
C2698 C2702 1.524 . S
C2699 C2691 1.503 . S
C2699 C2698 1.370 . S
C2699 C2700 1.403 . S
C2700 C2699 1.403 . S
C2700 C2701 1.404 . S
C2700 C2703 1.539 . S
C2701 C2697 1.408 . S
C2701 C2700 1.404 . S
C2701 H2713 0.930 . S
C2702 C2698 1.524 . S
C2702 H2714 0.956 . S
C2702 H2715 0.961 . S
C2702 H2716 0.961 . S
C2703 C2700 1.539 . S
C2703 H2717 0.958 . S
C2703 H2718 0.961 . S
C2703 H2719 0.960 . S
H2704 C2688 0.931 . S
H2705 C2693 0.929 . S
H2706 C2694 0.960 . S
H2707 C2694 0.962 . S
H2708 C2694 0.960 . S
H2709 C2695 0.961 . S
H2710 C2695 0.961 . S
H2711 C2695 0.961 . S
H2712 C2696 0.931 . S
H2713 C2701 0.930 . S
H2714 C2702 0.956 . S
H2715 C2702 0.961 . S
H2716 C2702 0.961 . S
H2717 C2703 0.958 . S
H2718 C2703 0.961 . S
H2719 C2703 0.960 . S
C2720 C2721 1.391 . S
C2720 C2722 1.394 . S
C2720 H2736 0.931 . S
C2721 C2720 1.391 . S
C2721 C2725 1.376 1_556 S
C2722 C2720 1.394 . S
C2722 C2723 1.369 1_556 S
C2722 C2726 1.531 1_565 S
C2723 C2722 1.369 1_554 S
C2723 C2724 1.410 . S
C2723 C2731 1.503 . S
C2724 C2723 1.410 . S
C2724 C2725 1.392 . S
C2724 C2727 1.511 . S
C2725 C2721 1.376 1_554 S
C2725 C2724 1.392 . S
C2725 H2737 0.929 . S
C2726 C2722 1.531 1_545 S
C2726 H2738 0.953 . S
C2726 H2739 0.980 . S
C2726 H2740 0.960 . S
C2727 C2724 1.511 . S
C2727 H2741 0.961 . S
C2727 H2742 0.961 . S
C2727 H2743 0.961 . S
C2728 C2729 1.370 . S
C2728 C2730 1.363 . S
C2728 H2744 0.931 1_565 S
C2729 C2728 1.370 . S
C2729 C2733 1.408 . S
C2730 C2728 1.363 . S
C2730 C2731 1.370 . S
C2730 C2734 1.524 . S
C2731 C2723 1.503 . S
C2731 C2730 1.370 . S
C2731 C2732 1.403 1_554 S
C2732 C2731 1.403 1_556 S
C2732 C2733 1.404 1_556 S
C2732 C2735 1.539 . S
C2733 C2729 1.408 . S
C2733 C2732 1.404 1_554 S
C2733 H2745 0.930 1_554 S
C2734 C2730 1.524 . S
C2734 H2746 0.956 1_565 S
C2734 H2747 0.961 . S
C2734 H2748 0.961 1_565 S
C2735 C2732 1.539 . S
C2735 H2749 0.958 . S
C2735 H2750 0.961 . S
C2735 H2751 0.960 . S
H2736 C2720 0.931 . S
H2737 C2725 0.929 . S
H2738 C2726 0.953 . S
H2739 C2726 0.980 . S
H2740 C2726 0.960 . S
H2741 C2727 0.961 . S
H2742 C2727 0.961 . S
H2743 C2727 0.961 . S
H2744 C2728 0.931 1_545 S
H2745 C2733 0.930 1_556 S
H2746 C2734 0.956 1_545 S
H2747 C2734 0.961 . S
H2748 C2734 0.961 1_545 S
H2749 C2735 0.958 . S
H2750 C2735 0.961 . S
H2751 C2735 0.960 . S
C2752 C2753 1.391 . S
C2752 C2754 1.394 . S
C2752 H2768 0.931 . S
C2753 C2752 1.391 . S
C2753 C2757 1.376 . S
C2754 C2752 1.394 . S
C2754 C2755 1.369 . S
C2754 C2758 1.531 . S
C2755 C2754 1.369 . S
C2755 C2756 1.410 . S
C2755 C2763 1.503 . S
C2756 C2755 1.410 . S
C2756 C2757 1.392 . S
C2756 C2759 1.511 . S
C2757 C2753 1.376 . S
C2757 C2756 1.392 . S
C2757 H2769 0.929 . S
C2758 C2754 1.531 . S
C2758 H2770 0.960 . S
C2758 H2771 0.962 . S
C2758 H2772 0.960 . S
C2759 C2756 1.511 . S
C2759 H2773 0.961 1_554 S
C2759 H2774 0.965 . S
C2759 H2775 0.961 . S
C2760 C2761 1.360 1_556 S
C2760 C2762 1.361 . S
C2760 H2776 0.939 . S
C2761 C2760 1.360 1_554 S
C2761 C2765 1.408 . S
C2762 C2760 1.361 . S
C2762 C2763 1.352 1_556 S
C2762 C2766 1.547 . S
C2763 C2755 1.503 . S
C2763 C2762 1.352 1_554 S
C2763 C2764 1.403 . S
C2764 C2763 1.403 . S
C2764 C2765 1.404 . S
C2764 C2767 1.539 . S
C2765 C2761 1.408 . S
C2765 C2764 1.404 . S
C2765 H2777 0.930 . S
C2766 C2762 1.547 . S
C2766 H2778 0.956 . S
C2766 H2779 0.961 . S
C2766 H2780 0.961 . S
C2767 C2764 1.539 . S
C2767 H2781 0.958 . S
C2767 H2782 0.961 . S
C2767 H2783 0.960 . S
H2768 C2752 0.931 . S
H2769 C2757 0.929 . S
H2770 C2758 0.960 . S
H2771 C2758 0.962 . S
H2772 C2758 0.960 . S
H2773 C2759 0.961 1_556 S
H2774 C2759 0.965 . S
H2775 C2759 0.961 . S
H2776 C2760 0.939 . S
H2777 C2765 0.930 . S
H2778 C2766 0.956 . S
H2779 C2766 0.961 . S
H2780 C2766 0.961 . S
H2781 C2767 0.958 . S
H2782 C2767 0.961 . S
H2783 C2767 0.960 . S
C2784 C2785 1.391 . S
C2784 C2786 1.394 . S
C2784 H2800 0.931 . S
C2785 C2784 1.391 . S
C2785 C2789 1.376 . S
C2786 C2784 1.394 . S
C2786 C2787 1.369 . S
C2786 C2790 1.531 . S
C2787 C2786 1.369 . S
C2787 C2788 1.410 . S
C2787 C2795 1.503 . S
C2788 C2787 1.410 . S
C2788 C2789 1.392 . S
C2788 C2791 1.511 . S
C2789 C2785 1.376 . S
C2789 C2788 1.392 . S
C2789 H2801 0.929 . S
C2790 C2786 1.531 . S
C2790 H2802 0.960 . S
C2790 H2803 0.962 . S
C2790 H2804 0.960 . S
C2791 C2788 1.511 . S
C2791 H2805 0.961 . S
C2791 H2806 0.961 . S
C2791 H2807 0.961 . S
C2792 C2793 1.370 . S
C2792 C2794 1.363 . S
C2792 H2808 0.931 . S
C2793 C2792 1.370 . S
C2793 C2797 1.408 . S
C2794 C2792 1.363 . S
C2794 C2795 1.370 . S
C2794 C2798 1.524 . S
C2795 C2787 1.503 . S
C2795 C2794 1.370 . S
C2795 C2796 1.403 . S
C2796 C2795 1.403 . S
C2796 C2797 1.404 . S
C2796 C2799 1.539 . S
C2797 C2793 1.408 . S
C2797 C2796 1.404 . S
C2797 H2809 0.930 . S
C2798 C2794 1.524 . S
C2798 H2810 0.956 . S
C2798 H2811 0.961 . S
C2798 H2812 0.961 . S
C2799 C2796 1.539 . S
C2799 H2813 0.958 . S
C2799 H2814 0.961 . S
C2799 H2815 0.960 . S
H2800 C2784 0.931 . S
H2801 C2789 0.929 . S
H2802 C2790 0.960 . S
H2803 C2790 0.962 . S
H2804 C2790 0.960 . S
H2805 C2791 0.961 . S
H2806 C2791 0.961 . S
H2807 C2791 0.961 . S
H2808 C2792 0.931 . S
H2809 C2797 0.930 . S
H2810 C2798 0.956 . S
H2811 C2798 0.961 . S
H2812 C2798 0.961 . S
H2813 C2799 0.958 . S
H2814 C2799 0.961 . S
H2815 C2799 0.960 . S
C2816 C2817 1.391 . S
C2816 C2818 1.394 . S
C2816 H2832 0.931 . S
C2817 C2816 1.391 . S
C2817 C2821 1.376 . S
C2818 C2816 1.394 . S
C2818 C2819 1.369 . S
C2818 C2822 1.531 . S
C2819 C2818 1.369 . S
C2819 C2820 1.410 . S
C2819 C2827 1.503 . S
C2820 C2819 1.410 . S
C2820 C2821 1.392 . S
C2820 C2823 1.511 . S
C2821 C2817 1.376 . S
C2821 C2820 1.392 . S
C2821 H2833 0.929 . S
C2822 C2818 1.531 . S
C2822 H2834 0.960 . S
C2822 H2835 0.962 . S
C2822 H2836 0.960 . S
C2823 C2820 1.511 . S
C2823 H2837 0.961 . S
C2823 H2838 0.961 . S
C2823 H2839 0.961 . S
C2824 C2825 1.370 . S
C2824 C2826 1.363 . S
C2824 H2840 0.931 . S
C2825 C2824 1.370 . S
C2825 C2829 1.408 . S
C2826 C2824 1.363 . S
C2826 C2827 1.370 . S
C2826 C2830 1.524 . S
C2827 C2819 1.503 . S
C2827 C2826 1.370 . S
C2827 C2828 1.403 . S
C2828 C2827 1.403 . S
C2828 C2829 1.404 . S
C2828 C2831 1.539 . S
C2829 C2825 1.408 . S
C2829 C2828 1.404 . S
C2829 H2841 0.930 . S
C2830 C2826 1.524 . S
C2830 H2842 0.956 . S
C2830 H2843 0.961 . S
C2830 H2844 0.961 . S
C2831 C2828 1.539 . S
C2831 H2845 0.958 . S
C2831 H2846 0.961 . S
C2831 H2847 0.960 . S
H2832 C2816 0.931 . S
H2833 C2821 0.929 . S
H2834 C2822 0.960 . S
H2835 C2822 0.962 . S
H2836 C2822 0.960 . S
H2837 C2823 0.961 . S
H2838 C2823 0.961 . S
H2839 C2823 0.961 . S
H2840 C2824 0.931 . S
H2841 C2829 0.930 . S
H2842 C2830 0.956 . S
H2843 C2830 0.961 . S
H2844 C2830 0.961 . S
H2845 C2831 0.958 . S
H2846 C2831 0.961 . S
H2847 C2831 0.960 . S
C2848 C2849 1.391 . S
C2848 C2850 1.394 . S
C2848 H2864 0.931 . S
C2849 C2848 1.391 . S
C2849 C2853 1.376 . S
C2850 C2848 1.394 . S
C2850 C2851 1.369 . S
C2850 C2854 1.531 . S
C2851 C2850 1.369 . S
C2851 C2852 1.410 . S
C2851 C2859 1.503 . S
C2852 C2851 1.410 . S
C2852 C2853 1.392 . S
C2852 C2855 1.511 . S
C2853 C2849 1.376 . S
C2853 C2852 1.392 . S
C2853 H2865 0.929 . S
C2854 C2850 1.531 . S
C2854 H2866 0.960 . S
C2854 H2867 0.962 . S
C2854 H2868 0.960 . S
C2855 C2852 1.511 . S
C2855 H2869 0.961 . S
C2855 H2870 0.961 . S
C2855 H2871 0.961 . S
C2856 C2857 1.370 . S
C2856 C2858 1.363 . S
C2856 H2872 0.931 . S
C2857 C2856 1.370 . S
C2857 C2861 1.408 . S
C2858 C2856 1.363 . S
C2858 C2859 1.370 . S
C2858 C2862 1.524 . S
C2859 C2851 1.503 . S
C2859 C2858 1.370 . S
C2859 C2860 1.403 . S
C2860 C2859 1.403 . S
C2860 C2861 1.404 . S
C2860 C2863 1.539 . S
C2861 C2857 1.408 . S
C2861 C2860 1.404 . S
C2861 H2873 0.930 . S
C2862 C2858 1.524 . S
C2862 H2874 0.956 . S
C2862 H2875 0.961 . S
C2862 H2876 0.961 . S
C2863 C2860 1.539 . S
C2863 H2877 0.958 . S
C2863 H2878 0.961 . S
C2863 H2879 0.960 . S
H2864 C2848 0.931 . S
H2865 C2853 0.929 . S
H2866 C2854 0.960 . S
H2867 C2854 0.962 . S
H2868 C2854 0.960 . S
H2869 C2855 0.961 . S
H2870 C2855 0.961 . S
H2871 C2855 0.961 . S
H2872 C2856 0.931 . S
H2873 C2861 0.930 . S
H2874 C2862 0.956 . S
H2875 C2862 0.961 . S
H2876 C2862 0.961 . S
H2877 C2863 0.958 . S
H2878 C2863 0.961 . S
H2879 C2863 0.960 . S
C2880 C2881 1.391 . S
C2880 C2882 1.394 . S
C2880 H2896 0.931 . S
C2881 C2880 1.391 . S
C2881 C2885 1.376 . S
C2882 C2880 1.394 . S
C2882 C2883 1.369 . S
C2882 C2886 1.531 . S
C2883 C2882 1.369 . S
C2883 C2884 1.410 . S
C2883 C2891 1.503 . S
C2884 C2883 1.410 . S
C2884 C2885 1.392 . S
C2884 C2887 1.511 . S
C2885 C2881 1.376 . S
C2885 C2884 1.392 . S
C2885 H2897 0.929 . S
C2886 C2882 1.531 . S
C2886 H2898 0.960 . S
C2886 H2899 0.962 . S
C2886 H2900 0.960 . S
C2887 C2884 1.511 . S
C2887 H2901 0.961 . S
C2887 H2902 0.961 . S
C2887 H2903 0.961 . S
C2888 C2889 1.370 . S
C2888 C2890 1.363 . S
C2888 H2904 0.931 . S
C2889 C2888 1.370 . S
C2889 C2893 1.408 . S
C2890 C2888 1.363 . S
C2890 C2891 1.370 . S
C2890 C2894 1.524 . S
C2891 C2883 1.503 . S
C2891 C2890 1.370 . S
C2891 C2892 1.403 . S
C2892 C2891 1.403 . S
C2892 C2893 1.404 . S
C2892 C2895 1.539 . S
C2893 C2889 1.408 . S
C2893 C2892 1.404 . S
C2893 H2905 0.930 . S
C2894 C2890 1.524 . S
C2894 H2906 0.956 . S
C2894 H2907 0.961 . S
C2894 H2908 0.961 . S
C2895 C2892 1.539 . S
C2895 H2909 0.958 . S
C2895 H2910 0.961 . S
C2895 H2911 0.960 . S
H2896 C2880 0.931 . S
H2897 C2885 0.929 . S
H2898 C2886 0.960 . S
H2899 C2886 0.962 . S
H2900 C2886 0.960 . S
H2901 C2887 0.961 . S
H2902 C2887 0.961 . S
H2903 C2887 0.961 . S
H2904 C2888 0.931 . S
H2905 C2893 0.930 . S
H2906 C2894 0.956 . S
H2907 C2894 0.961 . S
H2908 C2894 0.961 . S
H2909 C2895 0.958 . S
H2910 C2895 0.961 . S
H2911 C2895 0.960 . S
C2912 C2913 1.391 . S
C2912 C2914 1.394 . S
C2912 H2928 0.931 . S
C2913 C2912 1.391 . S
C2913 C2917 1.376 . S
C2914 C2912 1.394 . S
C2914 C2915 1.369 . S
C2914 C2918 1.531 . S
C2915 C2914 1.369 . S
C2915 C2916 1.410 . S
C2915 C2923 1.503 . S
C2916 C2915 1.410 . S
C2916 C2917 1.392 . S
C2916 C2919 1.511 . S
C2917 C2913 1.376 . S
C2917 C2916 1.392 . S
C2917 H2929 0.929 . S
C2918 C2914 1.531 . S
C2918 H2930 0.960 . S
C2918 H2931 0.962 . S
C2918 H2932 0.960 . S
C2919 C2916 1.511 . S
C2919 H2933 0.961 . S
C2919 H2934 0.961 . S
C2919 H2935 0.961 . S
C2920 C2921 1.370 . S
C2920 C2922 1.363 . S
C2920 H2936 0.931 . S
C2921 C2920 1.370 . S
C2921 C2925 1.408 . S
C2922 C2920 1.363 . S
C2922 C2923 1.370 . S
C2922 C2926 1.524 . S
C2923 C2915 1.503 . S
C2923 C2922 1.370 . S
C2923 C2924 1.403 . S
C2924 C2923 1.403 . S
C2924 C2925 1.404 . S
C2924 C2927 1.539 . S
C2925 C2921 1.408 . S
C2925 C2924 1.404 . S
C2925 H2937 0.930 . S
C2926 C2922 1.524 . S
C2926 H2938 0.956 . S
C2926 H2939 0.961 . S
C2926 H2940 0.961 . S
C2927 C2924 1.539 . S
C2927 H2941 0.958 . S
C2927 H2942 0.961 . S
C2927 H2943 0.960 . S
H2928 C2912 0.931 . S
H2929 C2917 0.929 . S
H2930 C2918 0.960 . S
H2931 C2918 0.962 . S
H2932 C2918 0.960 . S
H2933 C2919 0.961 . S
H2934 C2919 0.961 . S
H2935 C2919 0.961 . S
H2936 C2920 0.931 . S
H2937 C2925 0.930 . S
H2938 C2926 0.956 . S
H2939 C2926 0.961 . S
H2940 C2926 0.961 . S
H2941 C2927 0.958 . S
H2942 C2927 0.961 . S
H2943 C2927 0.960 . S
C2944 C2945 1.391 . S
C2944 C2946 1.394 . S
C2944 H2960 0.931 . S
C2945 C2944 1.391 . S
C2945 C2949 1.376 . S
C2946 C2944 1.394 . S
C2946 C2947 1.369 . S
C2946 C2950 1.531 . S
C2947 C2946 1.369 . S
C2947 C2948 1.410 . S
C2947 C2955 1.503 . S
C2948 C2947 1.410 . S
C2948 C2949 1.392 . S
C2948 C2951 1.511 . S
C2949 C2945 1.376 . S
C2949 C2948 1.392 . S
C2949 H2961 0.929 . S
C2950 C2946 1.531 . S
C2950 H2962 0.960 . S
C2950 H2963 0.962 . S
C2950 H2964 0.960 . S
C2951 C2948 1.511 . S
C2951 H2965 0.961 . S
C2951 H2966 0.961 . S
C2951 H2967 0.961 . S
C2952 C2953 1.370 . S
C2952 C2954 1.363 . S
C2952 H2968 0.931 . S
C2953 C2952 1.370 . S
C2953 C2957 1.408 . S
C2954 C2952 1.363 . S
C2954 C2955 1.370 . S
C2954 C2958 1.524 . S
C2955 C2947 1.503 . S
C2955 C2954 1.370 . S
C2955 C2956 1.403 . S
C2956 C2955 1.403 . S
C2956 C2957 1.404 . S
C2956 C2959 1.539 . S
C2957 C2953 1.408 . S
C2957 C2956 1.404 . S
C2957 H2969 0.930 . S
C2958 C2954 1.524 . S
C2958 H2970 0.956 . S
C2958 H2971 0.961 . S
C2958 H2972 0.961 . S
C2959 C2956 1.539 . S
C2959 H2973 0.958 . S
C2959 H2974 0.961 . S
C2959 H2975 0.960 . S
H2960 C2944 0.931 . S
H2961 C2949 0.929 . S
H2962 C2950 0.960 . S
H2963 C2950 0.962 . S
H2964 C2950 0.960 . S
H2965 C2951 0.961 . S
H2966 C2951 0.961 . S
H2967 C2951 0.961 . S
H2968 C2952 0.931 . S
H2969 C2957 0.930 . S
H2970 C2958 0.956 . S
H2971 C2958 0.961 . S
H2972 C2958 0.961 . S
H2973 C2959 0.958 . S
H2974 C2959 0.961 . S
H2975 C2959 0.960 . S
C2976 C2977 1.391 . S
C2976 C2978 1.394 . S
C2976 H2992 0.931 . S
C2977 C2976 1.391 . S
C2977 C2981 1.376 . S
C2978 C2976 1.394 . S
C2978 C2979 1.369 . S
C2978 C2982 1.531 . S
C2979 C2978 1.369 . S
C2979 C2980 1.410 . S
C2979 C2987 1.503 . S
C2980 C2979 1.410 . S
C2980 C2981 1.392 . S
C2980 C2983 1.511 . S
C2981 C2977 1.376 . S
C2981 C2980 1.392 . S
C2981 H2993 0.929 . S
C2982 C2978 1.531 . S
C2982 H2994 0.960 . S
C2982 H2995 0.962 . S
C2982 H2996 0.960 . S
C2983 C2980 1.511 . S
C2983 H2997 0.961 . S
C2983 H2998 0.961 . S
C2983 H2999 0.961 . S
C2984 C2985 1.370 . S
C2984 C2986 1.363 . S
C2984 H3000 0.931 . S
C2985 C2984 1.370 . S
C2985 C2989 1.408 . S
C2986 C2984 1.363 . S
C2986 C2987 1.370 . S
C2986 C2990 1.524 . S
C2987 C2979 1.503 . S
C2987 C2986 1.370 . S
C2987 C2988 1.403 . S
C2988 C2987 1.403 . S
C2988 C2989 1.404 . S
C2988 C2991 1.539 1_455 S
C2989 C2985 1.408 . S
C2989 C2988 1.404 . S
C2989 H3001 0.930 . S
C2990 C2986 1.524 . S
C2990 H3002 0.956 . S
C2990 H3003 0.961 . S
C2990 H3004 0.961 . S
C2991 C2988 1.539 1_655 S
C2991 H3005 0.958 . S
C2991 H3006 0.961 . S
C2991 H3007 0.958 1_655 S
H2992 C2976 0.931 . S
H2993 C2981 0.929 . S
H2994 C2982 0.960 . S
H2995 C2982 0.962 . S
H2996 C2982 0.960 . S
H2997 C2983 0.961 . S
H2998 C2983 0.961 . S
H2999 C2983 0.961 . S
H3000 C2984 0.931 . S
H3001 C2989 0.930 . S
H3002 C2990 0.956 . S
H3003 C2990 0.961 . S
H3004 C2990 0.961 . S
H3005 C2991 0.958 . S
H3006 C2991 0.961 . S
H3007 C2991 0.958 1_455 S
C3008 C3009 1.391 . S
C3008 C3010 1.394 . S
C3008 H3024 0.931 . S
C3009 C3008 1.391 . S
C3009 C3013 1.376 . S
C3010 C3008 1.394 . S
C3010 C3011 1.369 . S
C3010 C3014 1.531 . S
C3011 C3010 1.369 . S
C3011 C3012 1.410 . S
C3011 C3019 1.503 . S
C3012 C3011 1.410 . S
C3012 C3013 1.392 . S
C3012 C3015 1.511 . S
C3013 C3009 1.376 . S
C3013 C3012 1.392 . S
C3013 H3025 0.929 . S
C3014 C3010 1.531 . S
C3014 H3026 0.960 . S
C3014 H3027 0.962 . S
C3014 H3028 0.960 . S
C3015 C3012 1.511 . S
C3015 H3029 0.961 . S
C3015 H3030 0.961 . S
C3015 H3031 0.961 . S
C3016 C3017 1.370 . S
C3016 C3018 1.363 . S
C3016 H3032 0.931 . S
C3017 C3016 1.370 . S
C3017 C3021 1.408 . S
C3018 C3016 1.363 . S
C3018 C3019 1.370 . S
C3018 C3022 1.524 . S
C3019 C3011 1.503 . S
C3019 C3018 1.370 . S
C3019 C3020 1.403 . S
C3020 C3019 1.403 . S
C3020 C3021 1.404 . S
C3020 C3023 1.539 . S
C3021 C3017 1.408 . S
C3021 C3020 1.404 . S
C3021 H3033 0.930 . S
C3022 C3018 1.524 . S
C3022 H3034 0.956 . S
C3022 H3035 0.961 . S
C3022 H3036 0.961 . S
C3023 C3020 1.539 . S
C3023 H3037 0.958 . S
C3023 H3038 0.961 . S
C3023 H3039 0.960 . S
H3024 C3008 0.931 . S
H3025 C3013 0.929 . S
H3026 C3014 0.960 . S
H3027 C3014 0.962 . S
H3028 C3014 0.960 . S
H3029 C3015 0.961 . S
H3030 C3015 0.961 . S
H3031 C3015 0.961 . S
H3032 C3016 0.931 . S
H3033 C3021 0.930 . S
H3034 C3022 0.956 . S
H3035 C3022 0.961 . S
H3036 C3022 0.961 . S
H3037 C3023 0.958 . S
H3038 C3023 0.961 . S
H3039 C3023 0.960 . S
C3040 C3041 1.391 . S
C3040 C3042 1.394 . S
C3040 H3056 0.931 . S
C3041 C3040 1.391 . S
C3041 C3045 1.376 . S
C3042 C3040 1.394 . S
C3042 C3043 1.369 . S
C3042 C3046 1.531 . S
C3043 C3042 1.369 . S
C3043 C3044 1.410 . S
C3043 C3051 1.503 . S
C3044 C3043 1.410 . S
C3044 C3045 1.392 . S
C3044 C3047 1.511 . S
C3045 C3041 1.376 . S
C3045 C3044 1.392 . S
C3045 H3057 0.929 . S
C3046 C3042 1.531 . S
C3046 H3058 0.960 . S
C3046 H3059 0.962 . S
C3046 H3060 0.960 . S
C3047 C3044 1.511 . S
C3047 H3061 0.961 . S
C3047 H3062 0.961 . S
C3047 H3063 0.961 . S
C3048 C3049 1.370 . S
C3048 C3050 1.363 . S
C3048 H3064 0.931 . S
C3049 C3048 1.370 . S
C3049 C3053 1.408 . S
C3050 C3048 1.363 . S
C3050 C3051 1.370 . S
C3050 C3054 1.524 . S
C3051 C3043 1.503 . S
C3051 C3050 1.370 . S
C3051 C3052 1.403 . S
C3052 C3051 1.403 . S
C3052 C3053 1.404 . S
C3052 C3055 1.539 . S
C3053 C3049 1.408 . S
C3053 C3052 1.404 . S
C3053 H3065 0.930 . S
C3054 C3050 1.524 . S
C3054 H3066 0.956 . S
C3054 H3067 0.961 . S
C3054 H3068 0.961 . S
C3055 C3052 1.539 . S
C3055 H3069 0.958 . S
C3055 H3070 0.961 . S
C3055 H3071 0.960 . S
H3056 C3040 0.931 . S
H3057 C3045 0.929 . S
H3058 C3046 0.960 . S
H3059 C3046 0.962 . S
H3060 C3046 0.960 . S
H3061 C3047 0.961 . S
H3062 C3047 0.961 . S
H3063 C3047 0.961 . S
H3064 C3048 0.931 . S
H3065 C3053 0.930 . S
H3066 C3054 0.956 . S
H3067 C3054 0.961 . S
H3068 C3054 0.961 . S
H3069 C3055 0.958 . S
H3070 C3055 0.961 . S
H3071 C3055 0.960 . S
C3072 C3073 1.391 . S
C3072 C3074 1.394 . S
C3072 H3088 0.931 . S
C3073 C3072 1.391 . S
C3073 C3077 1.376 . S
C3074 C3072 1.394 . S
C3074 C3075 1.369 . S
C3074 C3078 1.531 . S
C3075 C3074 1.369 . S
C3075 C3076 1.410 . S
C3075 C3083 1.503 . S
C3076 C3075 1.410 . S
C3076 C3077 1.392 . S
C3076 C3079 1.511 . S
C3077 C3073 1.376 . S
C3077 C3076 1.392 . S
C3077 H3089 0.929 . S
C3078 C3074 1.531 . S
C3078 H3090 0.960 . S
C3078 H3091 0.962 . S
C3078 H3092 0.960 . S
C3079 C3076 1.511 . S
C3079 H3093 0.961 . S
C3079 H3094 0.961 . S
C3079 H3095 0.961 . S
C3080 C3081 1.370 . S
C3080 C3082 1.363 . S
C3080 H3096 0.931 . S
C3081 C3080 1.370 . S
C3081 C3085 1.408 . S
C3082 C3080 1.363 . S
C3082 C3083 1.370 . S
C3082 C3086 1.524 . S
C3083 C3075 1.503 . S
C3083 C3082 1.370 . S
C3083 C3084 1.403 . S
C3084 C3083 1.403 . S
C3084 C3085 1.404 . S
C3084 C3087 1.539 . S
C3085 C3081 1.408 . S
C3085 C3084 1.404 . S
C3085 H3097 0.930 . S
C3086 C3082 1.524 . S
C3086 H3098 0.956 . S
C3086 H3099 0.961 . S
C3086 H3100 0.961 . S
C3087 C3084 1.539 . S
C3087 H3101 0.958 . S
C3087 H3102 0.961 . S
C3087 H3103 0.960 . S
H3088 C3072 0.931 . S
H3089 C3077 0.929 . S
H3090 C3078 0.960 . S
H3091 C3078 0.962 . S
H3092 C3078 0.960 . S
H3093 C3079 0.961 . S
H3094 C3079 0.961 . S
H3095 C3079 0.961 . S
H3096 C3080 0.931 . S
H3097 C3085 0.930 . S
H3098 C3086 0.956 . S
H3099 C3086 0.961 . S
H3100 C3086 0.961 . S
H3101 C3087 0.958 . S
H3102 C3087 0.961 . S
H3103 C3087 0.960 . S
C3104 C3105 1.391 . S
C3104 C3106 1.394 . S
C3104 H3120 0.931 . S
C3105 C3104 1.391 . S
C3105 C3109 1.376 . S
C3106 C3104 1.394 . S
C3106 C3107 1.369 . S
C3106 C3110 1.531 . S
C3107 C3106 1.369 . S
C3107 C3108 1.410 . S
C3107 C3115 1.503 . S
C3108 C3107 1.410 . S
C3108 C3109 1.392 . S
C3108 C3111 1.511 . S
C3109 C3105 1.376 . S
C3109 C3108 1.392 . S
C3109 H3121 0.929 . S
C3110 C3106 1.531 . S
C3110 H3122 0.960 . S
C3110 H3123 0.962 1_455 S
C3110 H3124 0.960 . S
C3111 C3108 1.511 . S
C3111 H3125 0.961 . S
C3111 H3126 0.961 . S
C3111 H3127 0.961 . S
C3112 C3113 1.370 . S
C3112 C3114 1.363 . S
C3112 H3128 0.931 . S
C3113 C3112 1.370 . S
C3113 C3117 1.408 . S
C3114 C3112 1.363 . S
C3114 C3115 1.370 . S
C3114 C3118 1.524 . S
C3115 C3107 1.503 . S
C3115 C3114 1.370 . S
C3115 C3116 1.403 . S
C3116 C3115 1.403 . S
C3116 C3117 1.404 . S
C3116 C3119 1.539 . S
C3117 C3113 1.408 . S
C3117 C3116 1.404 . S
C3117 H3129 0.930 . S
C3118 C3114 1.524 . S
C3118 H3130 0.956 1_455 S
C3118 H3131 0.961 . S
C3118 H3132 0.961 1_455 S
C3119 C3116 1.539 . S
C3119 H3133 0.958 . S
C3119 H3134 0.961 . S
C3119 H3135 0.960 . S
H3120 C3104 0.931 . S
H3121 C3109 0.929 . S
H3122 C3110 0.960 . S
H3123 C3110 0.962 1_655 S
H3124 C3110 0.960 . S
H3125 C3111 0.961 . S
H3126 C3111 0.961 . S
H3127 C3111 0.961 . S
H3128 C3112 0.931 . S
H3129 C3117 0.930 . S
H3130 C3118 0.956 1_655 S
H3131 C3118 0.961 . S
H3132 C3118 0.961 1_655 S
H3133 C3119 0.958 . S
H3134 C3119 0.961 . S
H3135 C3119 0.960 . S
C3136 C3137 1.391 . S
C3136 C3138 1.394 . S
C3136 H3152 0.931 . S
C3137 C3136 1.391 . S
C3137 C3141 1.376 . S
C3138 C3136 1.394 . S
C3138 C3139 1.369 . S
C3138 C3142 1.531 . S
C3139 C3138 1.369 . S
C3139 C3140 1.410 . S
C3139 C3147 1.503 . S
C3140 C3139 1.410 . S
C3140 C3141 1.392 . S
C3140 C3143 1.511 . S
C3141 C3137 1.376 . S
C3141 C3140 1.392 . S
C3141 H3153 0.929 . S
C3142 C3138 1.531 . S
C3142 H3154 0.960 . S
C3142 H3155 0.962 . S
C3142 H3156 0.960 . S
C3143 C3140 1.511 . S
C3143 H3157 0.961 . S
C3143 H3158 0.961 . S
C3143 H3159 0.961 . S
C3144 C3145 1.370 . S
C3144 C3146 1.363 . S
C3144 H3160 0.931 . S
C3145 C3144 1.370 . S
C3145 C3149 1.408 . S
C3146 C3144 1.363 . S
C3146 C3147 1.370 . S
C3146 C3150 1.524 . S
C3147 C3139 1.503 . S
C3147 C3146 1.370 . S
C3147 C3148 1.403 . S
C3148 C3147 1.403 . S
C3148 C3149 1.404 . S
C3148 C3151 1.539 . S
C3149 C3145 1.408 . S
C3149 C3148 1.404 . S
C3149 H3161 0.930 . S
C3150 C3146 1.524 . S
C3150 H3162 0.956 . S
C3150 H3163 0.961 . S
C3150 H3164 0.961 . S
C3151 C3148 1.539 . S
C3151 H3165 0.958 . S
C3151 H3166 0.961 . S
C3151 H3167 0.960 . S
H3152 C3136 0.931 . S
H3153 C3141 0.929 . S
H3154 C3142 0.960 . S
H3155 C3142 0.962 . S
H3156 C3142 0.960 . S
H3157 C3143 0.961 . S
H3158 C3143 0.961 . S
H3159 C3143 0.961 . S
H3160 C3144 0.931 . S
H3161 C3149 0.930 . S
H3162 C3150 0.956 . S
H3163 C3150 0.961 . S
H3164 C3150 0.961 . S
H3165 C3151 0.958 . S
H3166 C3151 0.961 . S
H3167 C3151 0.960 . S
C3168 C3169 1.391 . S
C3168 C3170 1.394 . S
C3168 H3184 0.931 . S
C3169 C3168 1.391 . S
C3169 C3173 1.376 . S
C3170 C3168 1.394 . S
C3170 C3171 1.369 . S
C3170 C3174 1.531 . S
C3171 C3170 1.369 . S
C3171 C3172 1.410 . S
C3171 C3179 1.503 . S
C3172 C3171 1.410 . S
C3172 C3173 1.392 . S
C3172 C3175 1.511 . S
C3173 C3169 1.376 . S
C3173 C3172 1.392 . S
C3173 H3185 0.929 . S
C3174 C3170 1.531 . S
C3174 H3186 0.960 . S
C3174 H3187 0.962 . S
C3174 H3188 0.960 . S
C3175 C3172 1.511 . S
C3175 H3189 0.961 . S
C3175 H3190 0.961 . S
C3175 H3191 0.961 . S
C3176 C3177 1.370 . S
C3176 C3178 1.363 . S
C3176 H3192 0.931 1_556 S
C3177 C3176 1.370 . S
C3177 C3181 1.408 . S
C3178 C3176 1.363 . S
C3178 C3179 1.370 . S
C3178 C3182 1.524 . S
C3179 C3171 1.503 . S
C3179 C3178 1.370 . S
C3179 C3180 1.403 . S
C3180 C3179 1.403 . S
C3180 C3181 1.404 . S
C3180 C3183 1.539 . S
C3181 C3177 1.408 . S
C3181 C3180 1.404 . S
C3181 H3193 0.930 . S
C3182 C3178 1.524 . S
C3182 H3194 0.956 . S
C3182 H3195 0.961 . S
C3182 H3196 0.961 . S
C3183 C3180 1.539 . S
C3183 H3197 0.958 . S
C3183 H3198 0.961 . S
C3183 H3199 0.960 . S
H3184 C3168 0.931 . S
H3185 C3173 0.929 . S
H3186 C3174 0.960 . S
H3187 C3174 0.962 . S
H3188 C3174 0.960 . S
H3189 C3175 0.961 . S
H3190 C3175 0.961 . S
H3191 C3175 0.961 . S
H3192 C3176 0.931 1_554 S
H3193 C3181 0.930 . S
H3194 C3182 0.956 . S
H3195 C3182 0.961 . S
H3196 C3182 0.961 . S
H3197 C3183 0.958 . S
H3198 C3183 0.961 . S
H3199 C3183 0.960 . S
C3200 C3201 1.391 . S
C3200 C3202 1.394 . S
C3200 H3216 0.931 . S
C3201 C3200 1.391 . S
C3201 C3205 1.376 . S
C3202 C3200 1.394 . S
C3202 C3203 1.369 . S
C3202 C3206 1.531 . S
C3203 C3202 1.369 . S
C3203 C3204 1.410 . S
C3203 C3211 1.503 . S
C3204 C3203 1.410 . S
C3204 C3205 1.392 . S
C3204 C3207 1.511 . S
C3205 C3201 1.376 . S
C3205 C3204 1.392 . S
C3205 H3217 0.929 . S
C3206 C3202 1.531 . S
C3206 H3218 0.960 . S
C3206 H3219 0.962 . S
C3206 H3220 0.960 . S
C3207 C3204 1.511 . S
C3207 H3221 0.961 . S
C3207 H3222 0.961 . S
C3207 H3223 0.961 . S
C3208 C3209 1.370 . S
C3208 C3210 1.363 . S
C3208 H3224 0.931 . S
C3209 C3208 1.370 . S
C3209 C3213 1.408 . S
C3210 C3208 1.363 . S
C3210 C3211 1.370 . S
C3210 C3214 1.524 . S
C3211 C3203 1.503 . S
C3211 C3210 1.370 . S
C3211 C3212 1.403 . S
C3212 C3211 1.403 . S
C3212 C3213 1.404 . S
C3212 C3215 1.539 . S
C3213 C3209 1.408 . S
C3213 C3212 1.404 . S
C3213 H3225 0.930 . S
C3214 C3210 1.524 . S
C3214 H3226 0.956 . S
C3214 H3227 0.961 . S
C3214 H3228 0.961 . S
C3215 C3212 1.539 . S
C3215 H3229 0.958 . S
C3215 H3230 0.961 . S
C3215 H3231 0.960 . S
H3216 C3200 0.931 . S
H3217 C3205 0.929 . S
H3218 C3206 0.960 . S
H3219 C3206 0.962 . S
H3220 C3206 0.960 . S
H3221 C3207 0.961 . S
H3222 C3207 0.961 . S
H3223 C3207 0.961 . S
H3224 C3208 0.931 . S
H3225 C3213 0.930 . S
H3226 C3214 0.956 . S
H3227 C3214 0.961 . S
H3228 C3214 0.961 . S
H3229 C3215 0.958 . S
H3230 C3215 0.961 . S
H3231 C3215 0.960 . S
C3232 C3233 1.391 . S
C3232 C3234 1.394 . S
C3232 H3248 0.931 . S
C3233 C3232 1.391 . S
C3233 C3237 1.376 . S
C3234 C3232 1.394 . S
C3234 C3235 1.369 . S
C3234 C3238 1.531 . S
C3235 C3234 1.369 . S
C3235 C3236 1.410 . S
C3235 C3243 1.503 . S
C3236 C3235 1.410 . S
C3236 C3237 1.392 . S
C3236 C3239 1.511 . S
C3237 C3233 1.376 . S
C3237 C3236 1.392 . S
C3237 H3249 0.929 . S
C3238 C3234 1.531 . S
C3238 H3250 0.960 . S
C3238 H3251 0.962 . S
C3238 H3252 0.960 . S
C3239 C3236 1.511 . S
C3239 H3253 0.961 . S
C3239 H3254 0.961 . S
C3239 H3255 0.961 . S
C3240 C3241 1.370 . S
C3240 C3242 1.363 . S
C3240 H3256 0.931 . S
C3241 C3240 1.370 . S
C3241 C3245 1.421 . S
C3242 C3240 1.363 . S
C3242 C3243 1.370 . S
C3242 C3246 1.524 . S
C3243 C3235 1.503 . S
C3243 C3242 1.370 . S
C3243 C3244 1.403 . S
C3244 C3243 1.403 . S
C3244 C3245 1.406 . S
C3244 C3247 1.539 1_545 S
C3245 C3241 1.421 . S
C3245 C3244 1.406 . S
C3245 H3257 0.916 1_545 S
C3246 C3242 1.524 . S
C3246 H3258 0.956 . S
C3246 H3259 0.961 . S
C3246 H3260 0.961 . S
C3247 C3244 1.539 1_565 S
C3247 H3261 0.958 . S
C3247 H3262 0.961 . S
C3247 H3263 0.960 . S
H3248 C3232 0.931 . S
H3249 C3237 0.929 . S
H3250 C3238 0.960 . S
H3251 C3238 0.962 . S
H3252 C3238 0.960 . S
H3253 C3239 0.961 . S
H3254 C3239 0.961 . S
H3255 C3239 0.961 . S
H3256 C3240 0.931 . S
H3257 C3245 0.916 1_565 S
H3258 C3246 0.956 . S
H3259 C3246 0.961 . S
H3260 C3246 0.961 . S
H3261 C3247 0.958 . S
H3262 C3247 0.961 . S
H3263 C3247 0.960 . S
C3264 C3265 1.391 . S
C3264 C3266 1.394 . S
C3264 H3280 0.931 . S
C3265 C3264 1.391 . S
C3265 C3269 1.376 . S
C3266 C3264 1.394 . S
C3266 C3267 1.369 . S
C3266 C3270 1.531 . S
C3267 C3266 1.369 . S
C3267 C3268 1.410 . S
C3267 C3275 1.503 . S
C3268 C3267 1.410 . S
C3268 C3269 1.392 . S
C3268 C3271 1.511 . S
C3269 C3265 1.376 . S
C3269 C3268 1.392 . S
C3269 H3281 0.929 . S
C3270 C3266 1.531 . S
C3270 H3282 0.960 . S
C3270 H3283 0.962 . S
C3270 H3284 0.960 . S
C3271 C3268 1.511 . S
C3271 H3285 0.961 . S
C3271 H3286 0.961 . S
C3271 H3287 0.961 . S
C3272 C3273 1.370 . S
C3272 C3274 1.363 . S
C3272 H3288 0.931 . S
C3273 C3272 1.370 . S
C3273 C3277 1.408 . S
C3274 C3272 1.363 . S
C3274 C3275 1.370 . S
C3274 C3278 1.524 . S
C3275 C3267 1.503 . S
C3275 C3274 1.370 . S
C3275 C3276 1.403 . S
C3276 C3275 1.403 . S
C3276 C3277 1.404 . S
C3276 C3279 1.539 . S
C3277 C3273 1.408 . S
C3277 C3276 1.404 . S
C3277 H3289 0.930 . S
C3278 C3274 1.524 . S
C3278 H3290 0.956 . S
C3278 H3291 0.961 . S
C3278 H3292 0.961 . S
C3279 C3276 1.539 . S
C3279 H3293 0.958 . S
C3279 H3294 0.961 . S
C3279 H3295 0.960 . S
H3280 C3264 0.931 . S
H3281 C3269 0.929 . S
H3282 C3270 0.960 . S
H3283 C3270 0.962 . S
H3284 C3270 0.960 . S
H3285 C3271 0.961 . S
H3286 C3271 0.961 . S
H3287 C3271 0.961 . S
H3288 C3272 0.931 . S
H3289 C3277 0.930 . S
H3290 C3278 0.956 . S
H3291 C3278 0.961 . S
H3292 C3278 0.961 . S
H3293 C3279 0.958 . S
H3294 C3279 0.961 . S
H3295 C3279 0.960 . S
C3296 C3297 1.391 . S
C3296 C3298 1.394 . S
C3296 H3312 0.931 . S
C3297 C3296 1.391 . S
C3297 C3301 1.376 . S
C3298 C3296 1.394 . S
C3298 C3299 1.369 . S
C3298 C3302 1.531 . S
C3299 C3298 1.369 . S
C3299 C3300 1.410 . S
C3299 C3307 1.503 . S
C3300 C3299 1.410 . S
C3300 C3301 1.392 . S
C3300 C3303 1.511 . S
C3301 C3297 1.376 . S
C3301 C3300 1.392 . S
C3301 H3313 0.929 . S
C3302 C3298 1.531 . S
C3302 H3314 0.960 . S
C3302 H3315 0.962 . S
C3302 H3316 0.960 1_545 S
C3303 C3300 1.511 . S
C3303 H3317 0.961 . S
C3303 H3318 0.961 . S
C3303 H3319 0.961 . S
C3304 C3305 1.370 . S
C3304 C3306 1.363 . S
C3304 H3320 0.931 . S
C3305 C3304 1.370 . S
C3305 C3309 1.408 . S
C3306 C3304 1.363 . S
C3306 C3307 1.370 . S
C3306 C3310 1.524 . S
C3307 C3299 1.503 . S
C3307 C3306 1.370 . S
C3307 C3308 1.403 . S
C3308 C3307 1.403 . S
C3308 C3309 1.404 . S
C3308 C3311 1.539 1_545 S
C3309 C3305 1.408 . S
C3309 C3308 1.404 . S
C3309 H3321 0.953 . S
C3310 C3306 1.524 . S
C3310 H3322 0.956 . S
C3310 H3323 0.961 . S
C3310 H3324 0.961 . S
C3311 C3308 1.539 1_565 S
C3311 H3325 0.958 . S
C3311 H3326 0.961 . S
C3311 H3327 0.960 . S
H3312 C3296 0.931 . S
H3313 C3301 0.929 . S
H3314 C3302 0.960 . S
H3315 C3302 0.962 . S
H3316 C3302 0.960 1_565 S
H3317 C3303 0.961 . S
H3318 C3303 0.961 . S
H3319 C3303 0.961 . S
H3320 C3304 0.931 . S
H3321 C3309 0.953 . S
H3322 C3310 0.956 . S
H3323 C3310 0.961 . S
H3324 C3310 0.961 . S
H3325 C3311 0.958 . S
H3326 C3311 0.961 . S
H3327 C3311 0.960 . S
C3328 C3329 1.391 . S
C3328 C3330 1.394 . S
C3328 H3344 0.931 . S
C3329 C3328 1.391 . S
C3329 C3333 1.376 . S
C3330 C3328 1.394 . S
C3330 C3331 1.369 . S
C3330 C3334 1.531 . S
C3331 C3330 1.369 . S
C3331 C3332 1.410 . S
C3331 C3339 1.503 . S
C3332 C3331 1.410 . S
C3332 C3333 1.392 . S
C3332 C3335 1.511 . S
C3333 C3329 1.376 . S
C3333 C3332 1.392 . S
C3333 H3345 0.929 . S
C3334 C3330 1.531 . S
C3334 H3346 0.960 . S
C3334 H3347 0.962 . S
C3334 H3348 0.960 . S
C3335 C3332 1.511 . S
C3335 H3349 0.961 . S
C3335 H3350 0.961 . S
C3335 H3351 0.961 . S
C3336 C3337 1.370 . S
C3336 C3338 1.363 . S
C3336 H3352 0.931 . S
C3337 C3336 1.370 . S
C3337 C3341 1.408 . S
C3338 C3336 1.363 . S
C3338 C3339 1.370 . S
C3338 C3342 1.524 . S
C3339 C3331 1.503 . S
C3339 C3338 1.370 . S
C3339 C3340 1.403 . S
C3340 C3339 1.403 . S
C3340 C3341 1.404 . S
C3340 C3343 1.539 . S
C3341 C3337 1.408 . S
C3341 C3340 1.404 . S
C3341 H3353 0.930 . S
C3342 C3338 1.524 . S
C3342 H3354 0.956 . S
C3342 H3355 0.961 . S
C3342 H3356 0.961 . S
C3343 C3340 1.539 . S
C3343 H3357 0.958 . S
C3343 H3358 0.961 . S
C3343 H3359 0.960 . S
H3344 C3328 0.931 . S
H3345 C3333 0.929 . S
H3346 C3334 0.960 . S
H3347 C3334 0.962 . S
H3348 C3334 0.960 . S
H3349 C3335 0.961 . S
H3350 C3335 0.961 . S
H3351 C3335 0.961 . S
H3352 C3336 0.931 . S
H3353 C3341 0.930 . S
H3354 C3342 0.956 . S
H3355 C3342 0.961 . S
H3356 C3342 0.961 . S
H3357 C3343 0.958 . S
H3358 C3343 0.961 . S
H3359 C3343 0.960 . S
C3360 C3361 1.391 . S
C3360 C3362 1.394 . S
C3360 H3376 0.931 . S
C3361 C3360 1.391 . S
C3361 C3365 1.376 . S
C3362 C3360 1.394 . S
C3362 C3363 1.369 . S
C3362 C3366 1.531 . S
C3363 C3362 1.369 . S
C3363 C3364 1.410 . S
C3363 C3371 1.503 . S
C3364 C3363 1.410 . S
C3364 C3365 1.392 . S
C3364 C3367 1.511 . S
C3365 C3361 1.376 . S
C3365 C3364 1.392 . S
C3365 H3377 0.929 . S
C3366 C3362 1.531 . S
C3366 H3378 0.960 . S
C3366 H3379 0.962 . S
C3366 H3380 0.960 . S
C3367 C3364 1.511 . S
C3367 H3381 0.961 . S
C3367 H3382 0.961 . S
C3367 H3383 0.961 . S
C3368 C3369 1.370 . S
C3368 C3370 1.363 . S
C3368 H3384 0.931 . S
C3369 C3368 1.370 . S
C3369 C3373 1.408 . S
C3370 C3368 1.363 . S
C3370 C3371 1.370 . S
C3370 C3374 1.524 1_545 S
C3371 C3363 1.503 . S
C3371 C3370 1.370 . S
C3371 C3372 1.403 . S
C3372 C3371 1.403 . S
C3372 C3373 1.404 . S
C3372 C3375 1.539 . S
C3373 C3369 1.408 . S
C3373 C3372 1.404 . S
C3373 H3385 0.930 . S
C3374 C3370 1.524 1_565 S
C3374 H3386 0.955 1_565 S
C3374 H3387 0.961 . S
C3374 H3388 0.961 . S
C3375 C3372 1.539 . S
C3375 H3389 0.958 . S
C3375 H3390 0.961 . S
C3375 H3391 0.960 . S
H3376 C3360 0.931 . S
H3377 C3365 0.929 . S
H3378 C3366 0.960 . S
H3379 C3366 0.962 . S
H3380 C3366 0.960 . S
H3381 C3367 0.961 . S
H3382 C3367 0.961 . S
H3383 C3367 0.961 . S
H3384 C3368 0.931 . S
H3385 C3373 0.930 . S
H3386 C3374 0.955 1_545 S
H3387 C3374 0.961 . S
H3388 C3374 0.961 . S
H3389 C3375 0.958 . S
H3390 C3375 0.961 . S
H3391 C3375 0.960 . S
C3392 C3393 1.391 . S
C3392 C3394 1.394 . S
C3392 H3408 0.931 . S
C3393 C3392 1.391 . S
C3393 C3397 1.376 . S
C3394 C3392 1.394 . S
C3394 C3395 1.369 . S
C3394 C3398 1.531 . S
C3395 C3394 1.369 . S
C3395 C3396 1.410 . S
C3395 C3403 1.503 . S
C3396 C3395 1.410 . S
C3396 C3397 1.392 . S
C3396 C3399 1.511 . S
C3397 C3393 1.376 . S
C3397 C3396 1.392 . S
C3397 H3409 0.929 . S
C3398 C3394 1.531 . S
C3398 H3410 0.960 . S
C3398 H3411 0.962 . S
C3398 H3412 0.960 . S
C3399 C3396 1.511 . S
C3399 H3413 0.961 . S
C3399 H3414 0.961 . S
C3399 H3415 0.961 . S
C3400 C3401 1.370 . S
C3400 C3402 1.363 . S
C3400 H3416 0.931 . S
C3401 C3400 1.370 . S
C3401 C3405 1.408 . S
C3402 C3400 1.363 . S
C3402 C3403 1.370 . S
C3402 C3406 1.524 . S
C3403 C3395 1.503 . S
C3403 C3402 1.370 . S
C3403 C3404 1.403 . S
C3404 C3403 1.403 . S
C3404 C3405 1.404 . S
C3404 C3407 1.539 . S
C3405 C3401 1.408 . S
C3405 C3404 1.404 . S
C3405 H3417 0.930 . S
C3406 C3402 1.524 . S
C3406 H3418 0.956 . S
C3406 H3419 0.961 . S
C3406 H3420 0.961 . S
C3407 C3404 1.539 . S
C3407 H3421 0.958 . S
C3407 H3422 0.961 . S
C3407 H3423 0.960 . S
H3408 C3392 0.931 . S
H3409 C3397 0.929 . S
H3410 C3398 0.960 . S
H3411 C3398 0.962 . S
H3412 C3398 0.960 . S
H3413 C3399 0.961 . S
H3414 C3399 0.961 . S
H3415 C3399 0.961 . S
H3416 C3400 0.931 . S
H3417 C3405 0.930 . S
H3418 C3406 0.956 . S
H3419 C3406 0.961 . S
H3420 C3406 0.961 . S
H3421 C3407 0.958 . S
H3422 C3407 0.961 . S
H3423 C3407 0.960 . S
C3424 C3425 1.391 . S
C3424 C3426 1.394 . S
C3424 H3440 0.931 . S
C3425 C3424 1.391 . S
C3425 C3429 1.376 . S
C3426 C3424 1.394 . S
C3426 C3427 1.369 . S
C3426 C3430 1.531 . S
C3427 C3426 1.369 . S
C3427 C3428 1.410 . S
C3427 C3435 1.503 . S
C3428 C3427 1.410 . S
C3428 C3429 1.392 . S
C3428 C3431 1.511 1_545 S
C3429 C3425 1.376 . S
C3429 C3428 1.392 . S
C3429 H3441 0.929 1_545 S
C3430 C3426 1.531 . S
C3430 H3442 0.960 . S
C3430 H3443 0.962 . S
C3430 H3444 0.960 . S
C3431 C3428 1.511 1_565 S
C3431 H3445 0.961 . S
C3431 H3446 0.961 . S
C3431 H3447 0.961 1_565 S
C3432 C3433 1.370 1_565 S
C3432 C3434 1.363 . S
C3432 H3448 0.931 . S
C3433 C3432 1.370 1_545 S
C3433 C3437 1.408 . S
C3434 C3432 1.363 . S
C3434 C3435 1.370 1_565 S
C3434 C3438 1.524 . S
C3435 C3427 1.503 . S
C3435 C3434 1.370 1_545 S
C3435 C3436 1.403 . S
C3436 C3435 1.403 . S
C3436 C3437 1.404 . S
C3436 C3439 1.539 . S
C3437 C3433 1.408 . S
C3437 C3436 1.404 . S
C3437 H3449 0.930 . S
C3438 C3434 1.524 . S
C3438 H3450 0.956 . S
C3438 H3451 0.961 . S
C3438 H3452 0.961 . S
C3439 C3436 1.539 . S
C3439 H3453 0.958 . S
C3439 H3454 0.961 . S
C3439 H3455 0.960 . S
H3440 C3424 0.931 . S
H3441 C3429 0.929 1_565 S
H3442 C3430 0.960 . S
H3443 C3430 0.962 . S
H3444 C3430 0.960 . S
H3445 C3431 0.961 . S
H3446 C3431 0.961 . S
H3447 C3431 0.961 1_545 S
H3448 C3432 0.931 . S
H3449 C3437 0.930 . S
H3450 C3438 0.956 . S
H3451 C3438 0.961 . S
H3452 C3438 0.961 . S
H3453 C3439 0.958 . S
H3454 C3439 0.961 . S
H3455 C3439 0.960 . S
C3456 C3457 1.391 . S
C3456 C3458 1.394 . S
C3456 H3472 0.931 . S
C3457 C3456 1.391 . S
C3457 C3461 1.376 . S
C3458 C3456 1.394 . S
C3458 C3459 1.369 . S
C3458 C3462 1.531 . S
C3459 C3458 1.369 . S
C3459 C3460 1.410 . S
C3459 C3467 1.503 . S
C3460 C3459 1.410 . S
C3460 C3461 1.392 . S
C3460 C3463 1.511 . S
C3461 C3457 1.376 . S
C3461 C3460 1.392 . S
C3461 H3473 0.929 . S
C3462 C3458 1.531 . S
C3462 H3474 0.960 . S
C3462 H3475 0.962 . S
C3462 H3476 0.960 . S
C3463 C3460 1.511 . S
C3463 H3477 0.961 . S
C3463 H3478 0.961 . S
C3463 H3479 0.961 . S
C3464 C3465 1.370 . S
C3464 C3466 1.363 . S
C3464 H3480 0.931 . S
C3465 C3464 1.370 . S
C3465 C3469 1.408 . S
C3466 C3464 1.363 . S
C3466 C3467 1.370 . S
C3466 C3470 1.524 . S
C3467 C3459 1.503 . S
C3467 C3466 1.370 . S
C3467 C3468 1.403 . S
C3468 C3467 1.403 . S
C3468 C3469 1.404 . S
C3468 C3471 1.539 . S
C3469 C3465 1.408 . S
C3469 C3468 1.404 . S
C3469 H3481 0.930 . S
C3470 C3466 1.524 . S
C3470 H3482 0.956 . S
C3470 H3483 0.961 . S
C3470 H3484 0.961 . S
C3471 C3468 1.539 . S
C3471 H3485 0.958 . S
C3471 H3486 0.961 . S
C3471 H3487 0.960 . S
H3472 C3456 0.931 . S
H3473 C3461 0.929 . S
H3474 C3462 0.960 . S
H3475 C3462 0.962 . S
H3476 C3462 0.960 . S
H3477 C3463 0.961 . S
H3478 C3463 0.961 . S
H3479 C3463 0.961 . S
H3480 C3464 0.931 . S
H3481 C3469 0.930 . S
H3482 C3470 0.956 . S
H3483 C3470 0.961 . S
H3484 C3470 0.961 . S
H3485 C3471 0.958 . S
H3486 C3471 0.961 . S
H3487 C3471 0.960 . S
C3488 C3489 1.391 . S
C3488 C3490 1.394 . S
C3488 H3504 0.931 . S
C3489 C3488 1.391 . S
C3489 C3493 1.376 . S
C3490 C3488 1.394 . S
C3490 C3491 1.369 . S
C3490 C3494 1.531 . S
C3491 C3490 1.369 . S
C3491 C3492 1.410 . S
C3491 C3499 1.503 . S
C3492 C3491 1.410 . S
C3492 C3493 1.392 . S
C3492 C3495 1.511 . S
C3493 C3489 1.376 . S
C3493 C3492 1.392 . S
C3493 H3505 0.929 . S
C3494 C3490 1.531 . S
C3494 H3506 0.960 . S
C3494 H3507 0.962 . S
C3494 H3508 0.960 . S
C3495 C3492 1.511 . S
C3495 H3509 0.961 . S
C3495 H3510 0.961 . S
C3495 H3511 0.961 . S
C3496 C3497 1.370 . S
C3496 C3498 1.363 . S
C3496 H3512 0.931 . S
C3497 C3496 1.370 . S
C3497 C3501 1.408 . S
C3498 C3496 1.363 . S
C3498 C3499 1.370 . S
C3498 C3502 1.524 . S
C3499 C3491 1.503 . S
C3499 C3498 1.370 . S
C3499 C3500 1.403 . S
C3500 C3499 1.403 . S
C3500 C3501 1.404 . S
C3500 C3503 1.539 . S
C3501 C3497 1.408 . S
C3501 C3500 1.404 . S
C3501 H3513 0.930 . S
C3502 C3498 1.524 . S
C3502 H3514 0.956 . S
C3502 H3515 0.961 . S
C3502 H3516 0.961 1_554 S
C3503 C3500 1.539 . S
C3503 H3517 0.958 . S
C3503 H3518 0.961 . S
C3503 H3519 0.960 . S
H3504 C3488 0.931 . S
H3505 C3493 0.929 . S
H3506 C3494 0.960 . S
H3507 C3494 0.962 . S
H3508 C3494 0.960 . S
H3509 C3495 0.961 . S
H3510 C3495 0.961 . S
H3511 C3495 0.961 . S
H3512 C3496 0.931 . S
H3513 C3501 0.930 . S
H3514 C3502 0.956 . S
H3515 C3502 0.961 . S
H3516 C3502 0.961 1_556 S
H3517 C3503 0.958 . S
H3518 C3503 0.961 . S
H3519 C3503 0.960 . S
C3520 C3521 1.391 . S
C3520 C3522 1.394 . S
C3520 H3536 0.931 . S
C3521 C3520 1.391 . S
C3521 C3525 1.376 . S
C3522 C3520 1.394 . S
C3522 C3523 1.369 . S
C3522 C3526 1.531 . S
C3523 C3522 1.369 . S
C3523 C3524 1.410 . S
C3523 C3531 1.503 . S
C3524 C3523 1.410 . S
C3524 C3525 1.392 . S
C3524 C3527 1.511 . S
C3525 C3521 1.376 . S
C3525 C3524 1.392 . S
C3525 H3537 0.929 . S
C3526 C3522 1.531 . S
C3526 H3538 0.960 . S
C3526 H3539 0.962 . S
C3526 H3540 0.960 . S
C3527 C3524 1.511 . S
C3527 H3541 0.992 . S
C3527 H3542 0.961 . S
C3527 H3543 0.961 . S
C3528 C3529 1.370 . S
C3528 C3530 1.363 . S
C3528 H3544 0.931 . S
C3529 C3528 1.370 . S
C3529 C3533 1.408 . S
C3530 C3528 1.363 . S
C3530 C3531 1.370 . S
C3530 C3534 1.524 . S
C3531 C3523 1.503 . S
C3531 C3530 1.370 . S
C3531 C3532 1.403 . S
C3532 C3531 1.403 . S
C3532 C3533 1.404 . S
C3532 C3535 1.539 . S
C3533 C3529 1.408 . S
C3533 C3532 1.404 . S
C3533 H3545 0.930 . S
C3534 C3530 1.524 . S
C3534 H3546 0.956 . S
C3534 H3547 0.961 . S
C3534 H3548 0.961 . S
C3535 C3532 1.539 . S
C3535 H3549 0.958 . S
C3535 H3550 0.961 . S
C3535 H3551 0.960 . S
H3536 C3520 0.931 . S
H3537 C3525 0.929 . S
H3538 C3526 0.960 . S
H3539 C3526 0.962 . S
H3540 C3526 0.960 . S
H3541 C3527 0.992 . S
H3542 C3527 0.961 . S
H3543 C3527 0.961 . S
H3544 C3528 0.931 . S
H3545 C3533 0.930 . S
H3546 C3534 0.956 . S
H3547 C3534 0.961 . S
H3548 C3534 0.961 . S
H3549 C3535 0.958 . S
H3550 C3535 0.961 . S
H3551 C3535 0.960 . S
C3552 C3553 1.391 . S
C3552 C3554 1.394 . S
C3552 H3568 0.931 . S
C3553 C3552 1.391 . S
C3553 C3557 1.376 . S
C3554 C3552 1.394 . S
C3554 C3555 1.369 . S
C3554 C3558 1.531 . S
C3555 C3554 1.369 . S
C3555 C3556 1.410 . S
C3555 C3563 1.503 . S
C3556 C3555 1.410 . S
C3556 C3557 1.392 . S
C3556 C3559 1.511 . S
C3557 C3553 1.376 . S
C3557 C3556 1.392 . S
C3557 H3569 0.929 . S
C3558 C3554 1.531 . S
C3558 H3570 0.960 . S
C3558 H3571 0.962 . S
C3558 H3572 0.960 . S
C3559 C3556 1.511 . S
C3559 H3573 0.961 . S
C3559 H3574 0.961 . S
C3559 H3575 0.961 . S
C3560 C3561 1.370 . S
C3560 C3562 1.363 . S
C3560 H3576 0.931 . S
C3561 C3560 1.370 . S
C3561 C3565 1.408 . S
C3562 C3560 1.363 . S
C3562 C3563 1.370 . S
C3562 C3566 1.524 . S
C3563 C3555 1.503 . S
C3563 C3562 1.370 . S
C3563 C3564 1.403 . S
C3564 C3563 1.403 . S
C3564 C3565 1.404 . S
C3564 C3567 1.539 . S
C3565 C3561 1.408 . S
C3565 C3564 1.404 . S
C3565 H3577 0.930 . S
C3566 C3562 1.524 . S
C3566 H3578 0.956 . S
C3566 H3579 0.961 . S
C3566 H3580 0.961 . S
C3567 C3564 1.539 . S
C3567 H3581 0.958 . S
C3567 H3582 0.961 . S
C3567 H3583 0.960 . S
H3568 C3552 0.931 . S
H3569 C3557 0.929 . S
H3570 C3558 0.960 . S
H3571 C3558 0.962 . S
H3572 C3558 0.960 . S
H3573 C3559 0.961 . S
H3574 C3559 0.961 . S
H3575 C3559 0.961 . S
H3576 C3560 0.931 . S
H3577 C3565 0.930 . S
H3578 C3566 0.956 . S
H3579 C3566 0.961 . S
H3580 C3566 0.961 . S
H3581 C3567 0.958 . S
H3582 C3567 0.961 . S
H3583 C3567 0.960 . S
C3584 C3585 1.391 . S
C3584 C3586 1.394 . S
C3584 H3600 0.931 . S
C3585 C3584 1.391 . S
C3585 C3589 1.376 . S
C3586 C3584 1.394 . S
C3586 C3587 1.369 . S
C3586 C3590 1.531 . S
C3587 C3586 1.369 . S
C3587 C3588 1.410 . S
C3587 C3595 1.503 . S
C3588 C3587 1.410 . S
C3588 C3589 1.392 . S
C3588 C3591 1.511 . S
C3589 C3585 1.376 . S
C3589 C3588 1.392 . S
C3589 H3601 0.929 . S
C3590 C3586 1.531 . S
C3590 H3602 0.960 . S
C3590 H3603 0.962 . S
C3590 H3604 0.960 . S
C3591 C3588 1.511 . S
C3591 H3605 0.961 . S
C3591 H3606 0.961 . S
C3591 H3607 0.961 . S
C3592 C3593 1.370 . S
C3592 C3594 1.363 . S
C3592 H3608 0.931 . S
C3593 C3592 1.370 . S
C3593 C3597 1.408 . S
C3594 C3592 1.363 . S
C3594 C3595 1.370 . S
C3594 C3598 1.524 . S
C3595 C3587 1.503 . S
C3595 C3594 1.370 . S
C3595 C3596 1.403 . S
C3596 C3595 1.403 . S
C3596 C3597 1.404 . S
C3596 C3599 1.539 . S
C3597 C3593 1.408 . S
C3597 C3596 1.404 . S
C3597 H3609 0.930 . S
C3598 C3594 1.524 . S
C3598 H3610 0.956 . S
C3598 H3611 0.961 . S
C3598 H3612 0.961 . S
C3599 C3596 1.539 . S
C3599 H3613 0.958 . S
C3599 H3614 0.961 . S
C3599 H3615 0.960 . S
H3600 C3584 0.931 . S
H3601 C3589 0.929 . S
H3602 C3590 0.960 . S
H3603 C3590 0.962 . S
H3604 C3590 0.960 . S
H3605 C3591 0.961 . S
H3606 C3591 0.961 . S
H3607 C3591 0.961 . S
H3608 C3592 0.931 . S
H3609 C3597 0.930 . S
H3610 C3598 0.956 . S
H3611 C3598 0.961 . S
H3612 C3598 0.961 . S
H3613 C3599 0.958 . S
H3614 C3599 0.961 . S
H3615 C3599 0.960 . S
C3616 C3617 1.391 1_565 S
C3616 C3618 1.394 . S
C3616 H3632 0.931 . S
C3617 C3616 1.391 1_545 S
C3617 C3621 1.376 1_545 S
C3618 C3616 1.394 . S
C3618 C3619 1.369 . S
C3618 C3622 1.531 . S
C3619 C3618 1.369 . S
C3619 C3620 1.410 . S
C3619 C3627 1.503 . S
C3620 C3619 1.410 . S
C3620 C3621 1.392 . S
C3620 C3623 1.511 . S
C3621 C3617 1.376 1_565 S
C3621 C3620 1.392 . S
C3621 H3633 0.929 1_565 S
C3622 C3618 1.531 . S
C3622 H3634 0.960 . S
C3622 H3635 0.962 . S
C3622 H3636 0.960 . S
C3623 C3620 1.511 . S
C3623 H3637 0.961 . S
C3623 H3638 0.961 . S
C3623 H3639 0.961 . S
C3624 C3625 1.370 . S
C3624 C3626 1.363 . S
C3624 H3640 0.931 . S
C3625 C3624 1.370 . S
C3625 C3629 1.408 . S
C3626 C3624 1.363 . S
C3626 C3627 1.370 . S
C3626 C3630 1.524 . S
C3627 C3619 1.503 . S
C3627 C3626 1.370 . S
C3627 C3628 1.403 . S
C3628 C3627 1.403 . S
C3628 C3629 1.404 . S
C3628 C3631 1.539 . S
C3629 C3625 1.408 . S
C3629 C3628 1.404 . S
C3629 H3641 0.930 . S
C3630 C3626 1.524 . S
C3630 H3642 0.956 . S
C3630 H3643 0.961 . S
C3630 H3644 0.961 . S
C3631 C3628 1.539 . S
C3631 H3645 0.958 . S
C3631 H3646 0.961 . S
C3631 H3647 0.960 . S
H3632 C3616 0.931 . S
H3633 C3621 0.929 1_545 S
H3634 C3622 0.960 . S
H3635 C3622 0.962 . S
H3636 C3622 0.960 . S
H3637 C3623 0.961 . S
H3638 C3623 0.961 . S
H3639 C3623 0.961 . S
H3640 C3624 0.931 . S
H3641 C3629 0.930 . S
H3642 C3630 0.956 . S
H3643 C3630 0.961 . S
H3644 C3630 0.961 . S
H3645 C3631 0.958 . S
H3646 C3631 0.961 . S
H3647 C3631 0.960 . S
C3648 C3649 1.391 . S
C3648 C3650 1.394 . S
C3648 H3664 0.931 . S
C3649 C3648 1.391 . S
C3649 C3653 1.376 . S
C3650 C3648 1.394 . S
C3650 C3651 1.369 . S
C3650 C3654 1.531 . S
C3651 C3650 1.369 . S
C3651 C3652 1.410 . S
C3651 C3659 1.503 . S
C3652 C3651 1.410 . S
C3652 C3653 1.392 . S
C3652 C3655 1.511 . S
C3653 C3649 1.376 . S
C3653 C3652 1.392 . S
C3653 H3665 0.929 . S
C3654 C3650 1.531 . S
C3654 H3666 0.960 . S
C3654 H3667 0.962 . S
C3654 H3668 0.960 . S
C3655 C3652 1.511 . S
C3655 H3669 0.961 . S
C3655 H3670 0.961 . S
C3655 H3671 0.961 . S
C3656 C3657 1.370 . S
C3656 C3658 1.363 . S
C3656 H3672 0.931 . S
C3657 C3656 1.370 . S
C3657 C3661 1.408 . S
C3658 C3656 1.363 . S
C3658 C3659 1.370 . S
C3658 C3662 1.524 . S
C3659 C3651 1.503 . S
C3659 C3658 1.370 . S
C3659 C3660 1.403 . S
C3660 C3659 1.403 . S
C3660 C3661 1.404 . S
C3660 C3663 1.539 . S
C3661 C3657 1.408 . S
C3661 C3660 1.404 . S
C3661 H3673 0.930 1_565 S
C3662 C3658 1.524 . S
C3662 H3674 0.956 . S
C3662 H3675 0.961 . S
C3662 H3676 0.961 . S
C3663 C3660 1.539 . S
C3663 H3677 0.958 . S
C3663 H3678 0.961 1_565 S
C3663 H3679 0.960 . S
H3664 C3648 0.931 . S
H3665 C3653 0.929 . S
H3666 C3654 0.960 . S
H3667 C3654 0.962 . S
H3668 C3654 0.960 . S
H3669 C3655 0.961 . S
H3670 C3655 0.961 . S
H3671 C3655 0.961 . S
H3672 C3656 0.931 . S
H3673 C3661 0.930 1_545 S
H3674 C3662 0.956 . S
H3675 C3662 0.961 . S
H3676 C3662 0.961 . S
H3677 C3663 0.958 . S
H3678 C3663 0.961 1_545 S
H3679 C3663 0.960 . S
C3680 C3681 1.391 . S
C3680 C3682 1.394 . S
C3680 H3696 0.931 . S
C3681 C3680 1.391 . S
C3681 C3685 1.376 . S
C3682 C3680 1.394 . S
C3682 C3683 1.369 . S
C3682 C3686 1.531 . S
C3683 C3682 1.369 . S
C3683 C3684 1.410 . S
C3683 C3691 1.503 . S
C3684 C3683 1.410 . S
C3684 C3685 1.392 . S
C3684 C3687 1.511 . S
C3685 C3681 1.376 . S
C3685 C3684 1.392 . S
C3685 H3697 0.929 . S
C3686 C3682 1.531 . S
C3686 H3698 0.960 . S
C3686 H3699 0.962 . S
C3686 H3700 0.960 . S
C3687 C3684 1.511 . S
C3687 H3701 0.961 . S
C3687 H3702 0.961 . S
C3687 H3703 0.961 . S
C3688 C3689 1.370 . S
C3688 C3690 1.363 . S
C3688 H3704 0.931 . S
C3689 C3688 1.370 . S
C3689 C3693 1.408 . S
C3690 C3688 1.363 . S
C3690 C3691 1.370 . S
C3690 C3694 1.524 . S
C3691 C3683 1.503 . S
C3691 C3690 1.370 . S
C3691 C3692 1.403 . S
C3692 C3691 1.403 . S
C3692 C3693 1.404 . S
C3692 C3695 1.539 . S
C3693 C3689 1.408 . S
C3693 C3692 1.404 . S
C3693 H3705 0.930 . S
C3694 C3690 1.524 . S
C3694 H3706 0.956 . S
C3694 H3707 0.961 . S
C3694 H3708 0.961 . S
C3695 C3692 1.539 . S
C3695 H3709 0.958 . S
C3695 H3710 0.961 . S
C3695 H3711 0.960 . S
H3696 C3680 0.931 . S
H3697 C3685 0.929 . S
H3698 C3686 0.960 . S
H3699 C3686 0.962 . S
H3700 C3686 0.960 . S
H3701 C3687 0.961 . S
H3702 C3687 0.961 . S
H3703 C3687 0.961 . S
H3704 C3688 0.931 . S
H3705 C3693 0.930 . S
H3706 C3694 0.956 . S
H3707 C3694 0.961 . S
H3708 C3694 0.961 . S
H3709 C3695 0.958 . S
H3710 C3695 0.961 . S
H3711 C3695 0.960 . S
C3712 C3713 1.391 . S
C3712 C3714 1.394 . S
C3712 H3728 0.931 . S
C3713 C3712 1.391 . S
C3713 C3717 1.376 . S
C3714 C3712 1.394 . S
C3714 C3715 1.369 . S
C3714 C3718 1.531 . S
C3715 C3714 1.369 . S
C3715 C3716 1.410 . S
C3715 C3723 1.503 . S
C3716 C3715 1.410 . S
C3716 C3717 1.392 . S
C3716 C3719 1.511 . S
C3717 C3713 1.376 . S
C3717 C3716 1.392 . S
C3717 H3729 0.929 . S
C3718 C3714 1.531 . S
C3718 H3730 0.960 . S
C3718 H3731 0.962 . S
C3718 H3732 0.960 . S
C3719 C3716 1.511 . S
C3719 H3733 0.961 . S
C3719 H3734 0.961 . S
C3719 H3735 0.961 . S
C3720 C3721 1.370 . S
C3720 C3722 1.363 . S
C3720 H3736 0.931 . S
C3721 C3720 1.370 . S
C3721 C3725 1.408 . S
C3722 C3720 1.363 . S
C3722 C3723 1.370 . S
C3722 C3726 1.524 . S
C3723 C3715 1.503 . S
C3723 C3722 1.370 . S
C3723 C3724 1.403 . S
C3724 C3723 1.403 . S
C3724 C3725 1.404 . S
C3724 C3727 1.539 . S
C3725 C3721 1.408 . S
C3725 C3724 1.404 . S
C3725 H3737 0.930 . S
C3726 C3722 1.524 . S
C3726 H3738 0.956 . S
C3726 H3739 0.961 . S
C3726 H3740 0.961 . S
C3727 C3724 1.539 . S
C3727 H3741 0.958 . S
C3727 H3742 0.961 . S
C3727 H3743 0.960 . S
H3728 C3712 0.931 . S
H3729 C3717 0.929 . S
H3730 C3718 0.960 . S
H3731 C3718 0.962 . S
H3732 C3718 0.960 . S
H3733 C3719 0.961 . S
H3734 C3719 0.961 . S
H3735 C3719 0.961 . S
H3736 C3720 0.931 . S
H3737 C3725 0.930 . S
H3738 C3726 0.956 . S
H3739 C3726 0.961 . S
H3740 C3726 0.961 . S
H3741 C3727 0.958 . S
H3742 C3727 0.961 . S
H3743 C3727 0.960 . S
C3744 C3745 1.391 . S
C3744 C3746 1.394 . S
C3744 H3760 0.931 . S
C3745 C3744 1.391 . S
C3745 C3749 1.376 . S
C3746 C3744 1.394 . S
C3746 C3747 1.369 . S
C3746 C3750 1.531 . S
C3747 C3746 1.369 . S
C3747 C3748 1.410 . S
C3747 C3755 1.503 . S
C3748 C3747 1.410 . S
C3748 C3749 1.392 . S
C3748 C3751 1.511 . S
C3749 C3745 1.376 . S
C3749 C3748 1.392 . S
C3749 H3761 0.929 . S
C3750 C3746 1.531 . S
C3750 H3762 0.960 . S
C3750 H3763 0.962 . S
C3750 H3764 0.960 . S
C3751 C3748 1.511 . S
C3751 H3765 0.961 . S
C3751 H3766 0.961 . S
C3751 H3767 0.961 . S
C3752 C3753 1.370 . S
C3752 C3754 1.363 . S
C3752 H3768 0.931 . S
C3753 C3752 1.370 . S
C3753 C3757 1.408 . S
C3754 C3752 1.363 . S
C3754 C3755 1.370 . S
C3754 C3758 1.524 . S
C3755 C3747 1.503 . S
C3755 C3754 1.370 . S
C3755 C3756 1.403 . S
C3756 C3755 1.403 . S
C3756 C3757 1.404 . S
C3756 C3759 1.539 . S
C3757 C3753 1.408 . S
C3757 C3756 1.404 . S
C3757 H3769 0.930 . S
C3758 C3754 1.524 . S
C3758 H3770 0.956 . S
C3758 H3771 0.961 . S
C3758 H3772 0.961 . S
C3759 C3756 1.539 . S
C3759 H3773 0.958 . S
C3759 H3774 0.961 . S
C3759 H3775 0.960 . S
H3760 C3744 0.931 . S
H3761 C3749 0.929 . S
H3762 C3750 0.960 . S
H3763 C3750 0.962 . S
H3764 C3750 0.960 . S
H3765 C3751 0.961 . S
H3766 C3751 0.961 . S
H3767 C3751 0.961 . S
H3768 C3752 0.931 . S
H3769 C3757 0.930 . S
H3770 C3758 0.956 . S
H3771 C3758 0.961 . S
H3772 C3758 0.961 . S
H3773 C3759 0.958 . S
H3774 C3759 0.961 . S
H3775 C3759 0.960 . S
C3776 C3777 1.391 . S
C3776 C3778 1.394 . S
C3776 H3792 0.931 . S
C3777 C3776 1.391 . S
C3777 C3781 1.376 . S
C3778 C3776 1.394 . S
C3778 C3779 1.369 . S
C3778 C3782 1.531 . S
C3779 C3778 1.369 . S
C3779 C3780 1.410 . S
C3779 C3787 1.503 . S
C3780 C3779 1.410 . S
C3780 C3781 1.392 . S
C3780 C3783 1.511 . S
C3781 C3777 1.376 . S
C3781 C3780 1.392 . S
C3781 H3793 0.929 . S
C3782 C3778 1.531 . S
C3782 H3794 0.960 . S
C3782 H3795 0.962 . S
C3782 H3796 0.960 . S
C3783 C3780 1.511 . S
C3783 H3797 0.961 . S
C3783 H3798 0.961 . S
C3783 H3799 0.961 . S
C3784 C3785 1.370 . S
C3784 C3786 1.363 . S
C3784 H3800 0.931 . S
C3785 C3784 1.370 . S
C3785 C3789 1.408 . S
C3786 C3784 1.363 . S
C3786 C3787 1.370 . S
C3786 C3790 1.524 . S
C3787 C3779 1.503 . S
C3787 C3786 1.370 . S
C3787 C3788 1.403 . S
C3788 C3787 1.403 . S
C3788 C3789 1.404 . S
C3788 C3791 1.539 . S
C3789 C3785 1.408 . S
C3789 C3788 1.404 . S
C3789 H3801 0.930 . S
C3790 C3786 1.524 . S
C3790 H3802 0.956 . S
C3790 H3803 0.961 . S
C3790 H3804 0.961 . S
C3791 C3788 1.539 . S
C3791 H3805 0.958 . S
C3791 H3806 0.961 . S
C3791 H3807 0.960 . S
H3792 C3776 0.931 . S
H3793 C3781 0.929 . S
H3794 C3782 0.960 . S
H3795 C3782 0.962 . S
H3796 C3782 0.960 . S
H3797 C3783 0.961 . S
H3798 C3783 0.961 . S
H3799 C3783 0.961 . S
H3800 C3784 0.931 . S
H3801 C3789 0.930 . S
H3802 C3790 0.956 . S
H3803 C3790 0.961 . S
H3804 C3790 0.961 . S
H3805 C3791 0.958 . S
H3806 C3791 0.961 . S
H3807 C3791 0.960 . S
C3808 C3809 1.391 1_554 S
C3808 C3810 1.394 . S
C3808 H3824 0.931 . S
C3809 C3808 1.391 1_556 S
C3809 C3813 1.376 . S
C3810 C3808 1.394 . S
C3810 C3811 1.369 1_554 S
C3810 C3814 1.531 . S
C3811 C3810 1.369 1_556 S
C3811 C3812 1.410 . S
C3811 C3819 1.509 . S
C3812 C3811 1.410 . S
C3812 C3813 1.392 . S
C3812 C3815 1.511 . S
C3813 C3809 1.376 . S
C3813 C3812 1.392 . S
C3813 H3825 0.929 . S
C3814 C3810 1.531 . S
C3814 H3826 0.960 . S
C3814 H3827 0.962 . S
C3814 H3828 0.960 . S
C3815 C3812 1.511 . S
C3815 H3829 0.961 . S
C3815 H3830 0.961 . S
C3815 H3831 0.961 . S
C3816 C3817 1.370 . S
C3816 C3818 1.363 1_554 S
C3816 H3832 0.931 1_455 S
C3817 C3816 1.370 . S
C3817 C3821 1.408 . S
C3818 C3816 1.363 1_556 S
C3818 C3819 1.368 . S
C3818 C3822 1.524 1_455 S
C3819 C3811 1.509 . S
C3819 C3818 1.368 . S
C3819 C3820 1.400 1_556 S
C3820 C3819 1.400 1_554 S
C3820 C3821 1.404 . S
C3820 C3823 1.539 . S
C3821 C3817 1.408 . S
C3821 C3820 1.404 . S
C3821 H3833 0.930 . S
C3822 C3818 1.524 1_655 S
C3822 H3834 0.956 1_556 S
C3822 H3835 0.961 . S
C3822 H3836 0.961 . S
C3823 C3820 1.539 . S
C3823 H3837 0.958 . S
C3823 H3838 0.961 1_554 S
C3823 H3839 0.960 1_554 S
H3824 C3808 0.931 . S
H3825 C3813 0.929 . S
H3826 C3814 0.960 . S
H3827 C3814 0.962 . S
H3828 C3814 0.960 . S
H3829 C3815 0.961 . S
H3830 C3815 0.961 . S
H3831 C3815 0.961 . S
H3832 C3816 0.931 1_655 S
H3833 C3821 0.930 . S
H3834 C3822 0.956 1_554 S
H3835 C3822 0.961 . S
H3836 C3822 0.961 . S
H3837 C3823 0.958 . S
H3838 C3823 0.961 1_556 S
H3839 C3823 0.960 1_556 S
C3840 C3841 1.391 . S
C3840 C3842 1.394 . S
C3840 H3856 0.931 . S
C3841 C3840 1.391 . S
C3841 C3845 1.372 . S
C3842 C3840 1.394 . S
C3842 C3843 1.369 . S
C3842 C3846 1.531 . S
C3843 C3842 1.369 . S
C3843 C3844 1.410 . S
C3843 C3851 1.503 . S
C3844 C3843 1.410 . S
C3844 C3845 1.411 . S
C3844 C3847 1.511 . S
C3845 C3841 1.372 . S
C3845 C3844 1.411 . S
C3845 H3857 0.915 1_655 S
C3846 C3842 1.531 . S
C3846 H3858 0.960 . S
C3846 H3859 0.962 . S
C3846 H3860 0.960 . S
C3847 C3844 1.511 . S
C3847 H3861 0.961 . S
C3847 H3862 0.961 . S
C3847 H3863 0.961 . S
C3848 C3849 1.370 . S
C3848 C3850 1.363 . S
C3848 H3864 0.931 . S
C3849 C3848 1.370 . S
C3849 C3853 1.408 . S
C3850 C3848 1.363 . S
C3850 C3851 1.370 . S
C3850 C3854 1.524 . S
C3851 C3843 1.503 . S
C3851 C3850 1.370 . S
C3851 C3852 1.403 . S
C3852 C3851 1.403 . S
C3852 C3853 1.404 . S
C3852 C3855 1.539 . S
C3853 C3849 1.408 . S
C3853 C3852 1.404 . S
C3853 H3865 0.930 . S
C3854 C3850 1.524 . S
C3854 H3866 0.956 . S
C3854 H3867 0.961 . S
C3854 H3868 0.961 . S
C3855 C3852 1.539 . S
C3855 H3869 0.958 . S
C3855 H3870 0.961 . S
C3855 H3871 0.960 . S
H3856 C3840 0.931 . S
H3857 C3845 0.915 1_455 S
H3858 C3846 0.960 . S
H3859 C3846 0.962 . S
H3860 C3846 0.960 . S
H3861 C3847 0.961 . S
H3862 C3847 0.961 . S
H3863 C3847 0.961 . S
H3864 C3848 0.931 . S
H3865 C3853 0.930 . S
H3866 C3854 0.956 . S
H3867 C3854 0.961 . S
H3868 C3854 0.961 . S
H3869 C3855 0.958 . S
H3870 C3855 0.961 . S
H3871 C3855 0.960 . S
C3872 C3873 1.391 . S
C3872 C3874 1.394 . S
C3872 H3888 0.931 . S
C3873 C3872 1.391 . S
C3873 C3877 1.376 . S
C3874 C3872 1.394 . S
C3874 C3875 1.369 . S
C3874 C3878 1.531 . S
C3875 C3874 1.369 . S
C3875 C3876 1.410 . S
C3875 C3883 1.503 . S
C3876 C3875 1.410 . S
C3876 C3877 1.392 . S
C3876 C3879 1.511 . S
C3877 C3873 1.376 . S
C3877 C3876 1.392 . S
C3877 H3889 0.929 . S
C3878 C3874 1.531 . S
C3878 H3890 0.960 . S
C3878 H3891 0.962 . S
C3878 H3892 0.960 . S
C3879 C3876 1.511 . S
C3879 H3893 0.961 . S
C3879 H3894 0.961 . S
C3879 H3895 0.961 . S
C3880 C3881 1.370 . S
C3880 C3882 1.363 . S
C3880 H3896 0.931 . S
C3881 C3880 1.370 . S
C3881 C3885 1.408 . S
C3882 C3880 1.363 . S
C3882 C3883 1.370 . S
C3882 C3886 1.524 . S
C3883 C3875 1.503 . S
C3883 C3882 1.370 . S
C3883 C3884 1.403 . S
C3884 C3883 1.403 . S
C3884 C3885 1.404 . S
C3884 C3887 1.539 . S
C3885 C3881 1.408 . S
C3885 C3884 1.404 . S
C3885 H3897 0.930 . S
C3886 C3882 1.524 . S
C3886 H3898 0.956 . S
C3886 H3899 0.961 . S
C3886 H3900 0.961 . S
C3887 C3884 1.539 . S
C3887 H3901 0.958 . S
C3887 H3902 0.961 . S
C3887 H3903 0.960 . S
H3888 C3872 0.931 . S
H3889 C3877 0.929 . S
H3890 C3878 0.960 . S
H3891 C3878 0.962 . S
H3892 C3878 0.960 . S
H3893 C3879 0.961 . S
H3894 C3879 0.961 . S
H3895 C3879 0.961 . S
H3896 C3880 0.931 . S
H3897 C3885 0.930 . S
H3898 C3886 0.956 . S
H3899 C3886 0.961 . S
H3900 C3886 0.961 . S
H3901 C3887 0.958 . S
H3902 C3887 0.961 . S
H3903 C3887 0.960 . S
C3904 C3905 1.391 . S
C3904 C3906 1.394 . S
C3904 H3920 0.931 . S
C3905 C3904 1.391 . S
C3905 C3909 1.376 . S
C3906 C3904 1.394 . S
C3906 C3907 1.369 . S
C3906 C3910 1.531 . S
C3907 C3906 1.369 . S
C3907 C3908 1.410 . S
C3907 C3915 1.503 . S
C3908 C3907 1.410 . S
C3908 C3909 1.392 . S
C3908 C3911 1.511 . S
C3909 C3905 1.376 . S
C3909 C3908 1.392 . S
C3909 H3921 0.929 . S
C3910 C3906 1.531 . S
C3910 H3922 0.960 . S
C3910 H3923 0.962 . S
C3910 H3924 0.960 . S
C3911 C3908 1.511 . S
C3911 H3925 0.961 . S
C3911 H3926 0.961 . S
C3911 H3927 0.961 . S
C3912 C3913 1.370 . S
C3912 C3914 1.363 . S
C3912 H3928 0.931 . S
C3913 C3912 1.370 . S
C3913 C3917 1.408 . S
C3914 C3912 1.363 . S
C3914 C3915 1.370 . S
C3914 C3918 1.524 . S
C3915 C3907 1.503 . S
C3915 C3914 1.370 . S
C3915 C3916 1.403 . S
C3916 C3915 1.403 . S
C3916 C3917 1.404 . S
C3916 C3919 1.539 . S
C3917 C3913 1.408 . S
C3917 C3916 1.404 . S
C3917 H3929 0.930 . S
C3918 C3914 1.524 . S
C3918 H3930 0.956 . S
C3918 H3931 0.961 . S
C3918 H3932 0.961 . S
C3919 C3916 1.539 . S
C3919 H3933 0.958 . S
C3919 H3934 0.961 . S
C3919 H3935 0.960 . S
H3920 C3904 0.931 . S
H3921 C3909 0.929 . S
H3922 C3910 0.960 . S
H3923 C3910 0.962 . S
H3924 C3910 0.960 . S
H3925 C3911 0.961 . S
H3926 C3911 0.961 . S
H3927 C3911 0.961 . S
H3928 C3912 0.931 . S
H3929 C3917 0.930 . S
H3930 C3918 0.956 . S
H3931 C3918 0.961 . S
H3932 C3918 0.961 . S
H3933 C3919 0.958 . S
H3934 C3919 0.961 . S
H3935 C3919 0.960 . S
C3936 C3937 1.391 . S
C3936 C3938 1.394 . S
C3936 H3952 0.931 . S
C3937 C3936 1.391 . S
C3937 C3941 1.366 1_455 S
C3938 C3936 1.394 . S
C3938 C3939 1.369 . S
C3938 C3942 1.531 . S
C3939 C3938 1.369 . S
C3939 C3940 1.404 1_455 S
C3939 C3947 1.503 . S
C3940 C3939 1.404 1_655 S
C3940 C3941 1.388 . S
C3940 C3943 1.515 . S
C3941 C3937 1.366 1_655 S
C3941 C3940 1.388 . S
C3941 H3953 0.946 . S
C3942 C3938 1.531 . S
C3942 H3954 0.960 . S
C3942 H3955 0.962 . S
C3942 H3956 0.960 . S
C3943 C3940 1.515 . S
C3943 H3957 0.961 . S
C3943 H3958 0.961 . S
C3943 H3959 0.961 . S
C3944 C3945 1.370 . S
C3944 C3946 1.363 . S
C3944 H3960 0.931 . S
C3945 C3944 1.370 . S
C3945 C3949 1.408 . S
C3946 C3944 1.363 . S
C3946 C3947 1.370 . S
C3946 C3950 1.524 . S
C3947 C3939 1.503 . S
C3947 C3946 1.370 . S
C3947 C3948 1.403 . S
C3948 C3947 1.403 . S
C3948 C3949 1.404 . S
C3948 C3951 1.539 1_455 S
C3949 C3945 1.408 . S
C3949 C3948 1.404 . S
C3949 H3961 0.930 1_455 S
C3950 C3946 1.524 . S
C3950 H3962 0.956 . S
C3950 H3963 0.961 . S
C3950 H3964 0.961 . S
C3951 C3948 1.539 1_655 S
C3951 H3965 0.958 . S
C3951 H3966 0.961 . S
C3951 H3967 0.960 . S
H3952 C3936 0.931 . S
H3953 C3941 0.946 . S
H3954 C3942 0.960 . S
H3955 C3942 0.962 . S
H3956 C3942 0.960 . S
H3957 C3943 0.961 . S
H3958 C3943 0.961 . S
H3959 C3943 0.961 . S
H3960 C3944 0.931 . S
H3961 C3949 0.930 1_655 S
H3962 C3950 0.956 . S
H3963 C3950 0.961 . S
H3964 C3950 0.961 . S
H3965 C3951 0.958 . S
H3966 C3951 0.961 . S
H3967 C3951 0.960 . S
C3968 C3969 1.391 . S
C3968 C3970 1.394 . S
C3968 H3984 0.931 . S
C3969 C3968 1.391 . S
C3969 C3973 1.376 . S
C3970 C3968 1.394 . S
C3970 C3971 1.369 . S
C3970 C3974 1.531 . S
C3971 C3970 1.369 . S
C3971 C3972 1.410 . S
C3971 C3979 1.503 . S
C3972 C3971 1.410 . S
C3972 C3973 1.392 . S
C3972 C3975 1.511 . S
C3973 C3969 1.376 . S
C3973 C3972 1.392 . S
C3973 H3985 0.929 . S
C3974 C3970 1.531 . S
C3974 H3986 0.960 . S
C3974 H3987 0.962 . S
C3974 H3988 0.960 . S
C3975 C3972 1.511 . S
C3975 H3989 0.961 . S
C3975 H3990 0.961 . S
C3975 H3991 0.961 . S
C3976 C3977 1.370 . S
C3976 C3978 1.363 . S
C3976 H3992 0.931 . S
C3977 C3976 1.370 . S
C3977 C3981 1.408 . S
C3978 C3976 1.363 . S
C3978 C3979 1.370 . S
C3978 C3982 1.524 . S
C3979 C3971 1.503 . S
C3979 C3978 1.370 . S
C3979 C3980 1.403 . S
C3980 C3979 1.403 . S
C3980 C3981 1.404 . S
C3980 C3983 1.539 . S
C3981 C3977 1.408 . S
C3981 C3980 1.404 . S
C3981 H3993 0.930 . S
C3982 C3978 1.524 . S
C3982 H3994 0.956 . S
C3982 H3995 0.961 . S
C3982 H3996 0.961 . S
C3983 C3980 1.539 . S
C3983 H3997 0.958 . S
C3983 H3998 0.961 . S
C3983 H3999 0.960 . S
H3984 C3968 0.931 . S
H3985 C3973 0.929 . S
H3986 C3974 0.960 . S
H3987 C3974 0.962 . S
H3988 C3974 0.960 . S
H3989 C3975 0.961 . S
H3990 C3975 0.961 . S
H3991 C3975 0.961 . S
H3992 C3976 0.931 . S
H3993 C3981 0.930 . S
H3994 C3982 0.956 . S
H3995 C3982 0.961 . S
H3996 C3982 0.961 . S
H3997 C3983 0.958 . S
H3998 C3983 0.961 . S
H3999 C3983 0.960 . S
C4000 C4001 1.391 . S
C4000 C4002 1.394 . S
C4000 H4016 0.931 . S
C4001 C4000 1.391 . S
C4001 C4005 1.376 . S
C4002 C4000 1.394 . S
C4002 C4003 1.369 . S
C4002 C4006 1.531 . S
C4003 C4002 1.369 . S
C4003 C4004 1.410 . S
C4003 C4011 1.503 . S
C4004 C4003 1.410 . S
C4004 C4005 1.392 . S
C4004 C4007 1.511 . S
C4005 C4001 1.376 . S
C4005 C4004 1.392 . S
C4005 H4017 0.929 . S
C4006 C4002 1.531 . S
C4006 H4018 0.960 . S
C4006 H4019 0.962 . S
C4006 H4020 0.960 . S
C4007 C4004 1.511 . S
C4007 H4021 0.961 . S
C4007 H4022 0.961 . S
C4007 H4023 0.961 . S
C4008 C4009 1.370 . S
C4008 C4010 1.363 . S
C4008 H4024 0.931 . S
C4009 C4008 1.370 . S
C4009 C4013 1.408 . S
C4010 C4008 1.363 . S
C4010 C4011 1.370 . S
C4010 C4014 1.524 . S
C4011 C4003 1.503 . S
C4011 C4010 1.370 . S
C4011 C4012 1.403 . S
C4012 C4011 1.403 . S
C4012 C4013 1.404 . S
C4012 C4015 1.539 . S
C4013 C4009 1.408 . S
C4013 C4012 1.404 . S
C4013 H4025 0.930 . S
C4014 C4010 1.524 . S
C4014 H4026 0.956 . S
C4014 H4027 0.961 . S
C4014 H4028 0.961 . S
C4015 C4012 1.539 . S
C4015 H4029 0.958 . S
C4015 H4030 0.961 . S
C4015 H4031 0.960 . S
H4016 C4000 0.931 . S
H4017 C4005 0.929 . S
H4018 C4006 0.960 . S
H4019 C4006 0.962 . S
H4020 C4006 0.960 . S
H4021 C4007 0.961 . S
H4022 C4007 0.961 . S
H4023 C4007 0.961 . S
H4024 C4008 0.931 . S
H4025 C4013 0.930 . S
H4026 C4014 0.956 . S
H4027 C4014 0.961 . S
H4028 C4014 0.961 . S
H4029 C4015 0.958 . S
H4030 C4015 0.961 . S
H4031 C4015 0.960 . S
C4032 C4033 1.391 . S
C4032 C4034 1.394 1_554 S
C4032 H4048 0.931 . S
C4033 C4032 1.391 . S
C4033 C4037 1.339 1_554 S
C4034 C4032 1.394 1_556 S
C4034 C4035 1.369 . S
C4034 C4038 1.531 . S
C4035 C4034 1.369 . S
C4035 C4036 1.410 . S
C4035 C4043 1.503 . S
C4036 C4035 1.410 . S
C4036 C4037 1.392 . S
C4036 C4039 1.511 . S
C4037 C4033 1.339 1_556 S
C4037 C4036 1.392 . S
C4037 H4049 0.929 . S
C4038 C4034 1.531 . S
C4038 H4050 0.960 . S
C4038 H4051 0.962 . S
C4038 H4052 0.964 . S
C4039 C4036 1.511 . S
C4039 H4053 0.961 . S
C4039 H4054 0.961 . S
C4039 H4055 0.961 . S
C4040 C4041 1.370 . S
C4040 C4042 1.363 . S
C4040 H4056 0.931 . S
C4041 C4040 1.370 . S
C4041 C4045 1.408 . S
C4042 C4040 1.363 . S
C4042 C4043 1.370 . S
C4042 C4046 1.524 . S
C4043 C4035 1.503 . S
C4043 C4042 1.370 . S
C4043 C4044 1.403 . S
C4044 C4043 1.403 . S
C4044 C4045 1.404 . S
C4044 C4047 1.539 . S
C4045 C4041 1.408 . S
C4045 C4044 1.404 . S
C4045 H4057 0.930 . S
C4046 C4042 1.524 . S
C4046 H4058 0.956 . S
C4046 H4059 0.961 . S
C4046 H4060 0.961 . S
C4047 C4044 1.539 . S
C4047 H4061 0.958 . S
C4047 H4062 0.961 . S
C4047 H4063 0.960 . S
H4048 C4032 0.931 . S
H4049 C4037 0.929 . S
H4050 C4038 0.960 . S
H4051 C4038 0.962 . S
H4052 C4038 0.964 . S
H4053 C4039 0.961 . S
H4054 C4039 0.961 . S
H4055 C4039 0.961 . S
H4056 C4040 0.931 . S
H4057 C4045 0.930 . S
H4058 C4046 0.956 . S
H4059 C4046 0.961 . S
H4060 C4046 0.961 . S
H4061 C4047 0.958 . S
H4062 C4047 0.961 . S
H4063 C4047 0.960 . S
C4064 C4065 1.391 . S
C4064 C4066 1.394 . S
C4064 H4080 0.931 . S
C4065 C4064 1.391 . S
C4065 C4069 1.376 . S
C4066 C4064 1.394 . S
C4066 C4067 1.369 . S
C4066 C4070 1.531 . S
C4067 C4066 1.369 . S
C4067 C4068 1.410 . S
C4067 C4075 1.503 . S
C4068 C4067 1.410 . S
C4068 C4069 1.392 . S
C4068 C4071 1.511 . S
C4069 C4065 1.376 . S
C4069 C4068 1.392 . S
C4069 H4081 0.929 . S
C4070 C4066 1.531 . S
C4070 H4082 0.960 . S
C4070 H4083 0.962 . S
C4070 H4084 0.960 . S
C4071 C4068 1.511 . S
C4071 H4085 0.961 . S
C4071 H4086 0.961 . S
C4071 H4087 0.961 . S
C4072 C4073 1.370 . S
C4072 C4074 1.363 . S
C4072 H4088 0.931 . S
C4073 C4072 1.370 . S
C4073 C4077 1.408 . S
C4074 C4072 1.363 . S
C4074 C4075 1.370 . S
C4074 C4078 1.524 . S
C4075 C4067 1.503 . S
C4075 C4074 1.370 . S
C4075 C4076 1.403 . S
C4076 C4075 1.403 . S
C4076 C4077 1.404 . S
C4076 C4079 1.539 . S
C4077 C4073 1.408 . S
C4077 C4076 1.404 . S
C4077 H4089 0.930 . S
C4078 C4074 1.524 . S
C4078 H4090 0.956 . S
C4078 H4091 0.961 . S
C4078 H4092 0.961 . S
C4079 C4076 1.539 . S
C4079 H4093 0.958 . S
C4079 H4094 0.961 . S
C4079 H4095 0.960 . S
H4080 C4064 0.931 . S
H4081 C4069 0.929 . S
H4082 C4070 0.960 . S
H4083 C4070 0.962 . S
H4084 C4070 0.960 . S
H4085 C4071 0.961 . S
H4086 C4071 0.961 . S
H4087 C4071 0.961 . S
H4088 C4072 0.931 . S
H4089 C4077 0.930 . S
H4090 C4078 0.956 . S
H4091 C4078 0.961 . S
H4092 C4078 0.961 . S
H4093 C4079 0.958 . S
H4094 C4079 0.961 . S
H4095 C4079 0.960 . S
C4096 C4097 1.391 . S
C4096 C4098 1.394 . S
C4096 H4112 0.931 . S
C4097 C4096 1.391 . S
C4097 C4101 1.376 . S
C4098 C4096 1.394 . S
C4098 C4099 1.369 . S
C4098 C4102 1.531 . S
C4099 C4098 1.369 . S
C4099 C4100 1.410 . S
C4099 C4107 1.503 . S
C4100 C4099 1.410 . S
C4100 C4101 1.392 . S
C4100 C4103 1.511 . S
C4101 C4097 1.376 . S
C4101 C4100 1.392 . S
C4101 H4113 0.929 . S
C4102 C4098 1.531 . S
C4102 H4114 0.960 . S
C4102 H4115 0.962 . S
C4102 H4116 0.960 . S
C4103 C4100 1.511 . S
C4103 H4117 0.961 . S
C4103 H4118 0.961 . S
C4103 H4119 0.961 . S
C4104 C4105 1.370 . S
C4104 C4106 1.363 . S
C4104 H4120 0.931 . S
C4105 C4104 1.370 . S
C4105 C4109 1.408 . S
C4106 C4104 1.363 . S
C4106 C4107 1.370 . S
C4106 C4110 1.524 . S
C4107 C4099 1.503 . S
C4107 C4106 1.370 . S
C4107 C4108 1.403 . S
C4108 C4107 1.403 . S
C4108 C4109 1.404 . S
C4108 C4111 1.539 . S
C4109 C4105 1.408 . S
C4109 C4108 1.404 . S
C4109 H4121 0.930 . S
C4110 C4106 1.524 . S
C4110 H4122 0.956 . S
C4110 H4123 0.961 . S
C4110 H4124 0.961 . S
C4111 C4108 1.539 . S
C4111 H4125 0.958 . S
C4111 H4126 0.961 . S
C4111 H4127 0.960 . S
H4112 C4096 0.931 . S
H4113 C4101 0.929 . S
H4114 C4102 0.960 . S
H4115 C4102 0.962 . S
H4116 C4102 0.960 . S
H4117 C4103 0.961 . S
H4118 C4103 0.961 . S
H4119 C4103 0.961 . S
H4120 C4104 0.931 . S
H4121 C4109 0.930 . S
H4122 C4110 0.956 . S
H4123 C4110 0.961 . S
H4124 C4110 0.961 . S
H4125 C4111 0.958 . S
H4126 C4111 0.961 . S
H4127 C4111 0.960 . S
C4128 C4129 1.391 . S
C4128 C4130 1.394 . S
C4128 H4144 0.931 . S
C4129 C4128 1.391 . S
C4129 C4133 1.376 . S
C4130 C4128 1.394 . S
C4130 C4131 1.369 . S
C4130 C4134 1.531 . S
C4131 C4130 1.369 . S
C4131 C4132 1.410 . S
C4131 C4139 1.503 . S
C4132 C4131 1.410 . S
C4132 C4133 1.392 . S
C4132 C4135 1.511 . S
C4133 C4129 1.376 . S
C4133 C4132 1.392 . S
C4133 H4145 0.929 . S
C4134 C4130 1.531 . S
C4134 H4146 0.960 . S
C4134 H4147 0.962 . S
C4134 H4148 0.960 . S
C4135 C4132 1.511 . S
C4135 H4149 0.961 . S
C4135 H4150 0.961 . S
C4135 H4151 0.961 . S
C4136 C4137 1.370 . S
C4136 C4138 1.363 . S
C4136 H4152 0.931 . S
C4137 C4136 1.370 . S
C4137 C4141 1.408 . S
C4138 C4136 1.363 . S
C4138 C4139 1.370 . S
C4138 C4142 1.524 . S
C4139 C4131 1.503 . S
C4139 C4138 1.370 . S
C4139 C4140 1.403 . S
C4140 C4139 1.403 . S
C4140 C4141 1.404 . S
C4140 C4143 1.539 . S
C4141 C4137 1.408 . S
C4141 C4140 1.404 . S
C4141 H4153 0.930 . S
C4142 C4138 1.524 . S
C4142 H4154 0.956 . S
C4142 H4155 0.961 . S
C4142 H4156 0.961 . S
C4143 C4140 1.539 . S
C4143 H4157 0.958 . S
C4143 H4158 0.961 . S
C4143 H4159 0.960 . S
H4144 C4128 0.931 . S
H4145 C4133 0.929 . S
H4146 C4134 0.960 . S
H4147 C4134 0.962 . S
H4148 C4134 0.960 . S
H4149 C4135 0.961 . S
H4150 C4135 0.961 . S
H4151 C4135 0.961 . S
H4152 C4136 0.931 . S
H4153 C4141 0.930 . S
H4154 C4142 0.956 . S
H4155 C4142 0.961 . S
H4156 C4142 0.961 . S
H4157 C4143 0.958 . S
H4158 C4143 0.961 . S
H4159 C4143 0.960 . S
C4160 C4161 1.391 . S
C4160 C4162 1.394 . S
C4160 H4176 0.931 . S
C4161 C4160 1.391 . S
C4161 C4165 1.376 . S
C4162 C4160 1.394 . S
C4162 C4163 1.369 . S
C4162 C4166 1.531 . S
C4163 C4162 1.369 . S
C4163 C4164 1.410 . S
C4163 C4171 1.503 . S
C4164 C4163 1.410 . S
C4164 C4165 1.392 . S
C4164 C4167 1.511 . S
C4165 C4161 1.376 . S
C4165 C4164 1.392 . S
C4165 H4177 0.929 . S
C4166 C4162 1.531 . S
C4166 H4178 0.960 . S
C4166 H4179 0.962 . S
C4166 H4180 0.960 . S
C4167 C4164 1.511 . S
C4167 H4181 0.961 . S
C4167 H4182 0.961 . S
C4167 H4183 0.961 . S
C4168 C4169 1.370 . S
C4168 C4170 1.363 . S
C4168 H4184 0.931 . S
C4169 C4168 1.370 . S
C4169 C4173 1.408 . S
C4170 C4168 1.363 . S
C4170 C4171 1.370 . S
C4170 C4174 1.524 . S
C4171 C4163 1.503 . S
C4171 C4170 1.370 . S
C4171 C4172 1.403 . S
C4172 C4171 1.403 . S
C4172 C4173 1.404 . S
C4172 C4175 1.539 . S
C4173 C4169 1.408 . S
C4173 C4172 1.404 . S
C4173 H4185 0.930 . S
C4174 C4170 1.524 . S
C4174 H4186 0.956 . S
C4174 H4187 0.961 . S
C4174 H4188 0.961 . S
C4175 C4172 1.539 . S
C4175 H4189 0.958 . S
C4175 H4190 0.961 . S
C4175 H4191 0.960 . S
H4176 C4160 0.931 . S
H4177 C4165 0.929 . S
H4178 C4166 0.960 . S
H4179 C4166 0.962 . S
H4180 C4166 0.960 . S
H4181 C4167 0.961 . S
H4182 C4167 0.961 . S
H4183 C4167 0.961 . S
H4184 C4168 0.931 . S
H4185 C4173 0.930 . S
H4186 C4174 0.956 . S
H4187 C4174 0.961 . S
H4188 C4174 0.961 . S
H4189 C4175 0.958 . S
H4190 C4175 0.961 . S
H4191 C4175 0.960 . S
C4192 C4193 1.391 . S
C4192 C4194 1.394 . S
C4192 H4208 0.931 . S
C4193 C4192 1.391 . S
C4193 C4197 1.376 . S
C4194 C4192 1.394 . S
C4194 C4195 1.369 . S
C4194 C4198 1.531 . S
C4195 C4194 1.369 . S
C4195 C4196 1.410 . S
C4195 C4203 1.503 . S
C4196 C4195 1.410 . S
C4196 C4197 1.392 . S
C4196 C4199 1.511 . S
C4197 C4193 1.376 . S
C4197 C4196 1.392 . S
C4197 H4209 0.929 . S
C4198 C4194 1.531 . S
C4198 H4210 0.960 . S
C4198 H4211 0.962 . S
C4198 H4212 0.960 . S
C4199 C4196 1.511 . S
C4199 H4213 0.961 . S
C4199 H4214 0.961 . S
C4199 H4215 0.961 . S
C4200 C4201 1.370 . S
C4200 C4202 1.363 . S
C4200 H4216 0.931 . S
C4201 C4200 1.370 . S
C4201 C4205 1.408 . S
C4202 C4200 1.363 . S
C4202 C4203 1.370 . S
C4202 C4206 1.524 . S
C4203 C4195 1.503 . S
C4203 C4202 1.370 . S
C4203 C4204 1.403 . S
C4204 C4203 1.403 . S
C4204 C4205 1.404 . S
C4204 C4207 1.539 . S
C4205 C4201 1.408 . S
C4205 C4204 1.404 . S
C4205 H4217 0.930 . S
C4206 C4202 1.524 . S
C4206 H4218 0.956 . S
C4206 H4219 0.961 . S
C4206 H4220 0.961 . S
C4207 C4204 1.539 . S
C4207 H4221 0.958 . S
C4207 H4222 0.961 . S
C4207 H4223 0.960 . S
H4208 C4192 0.931 . S
H4209 C4197 0.929 . S
H4210 C4198 0.960 . S
H4211 C4198 0.962 . S
H4212 C4198 0.960 . S
H4213 C4199 0.961 . S
H4214 C4199 0.961 . S
H4215 C4199 0.961 . S
H4216 C4200 0.931 . S
H4217 C4205 0.930 . S
H4218 C4206 0.956 . S
H4219 C4206 0.961 . S
H4220 C4206 0.961 . S
H4221 C4207 0.958 . S
H4222 C4207 0.961 . S
H4223 C4207 0.960 . S
C4224 C4225 1.391 . S
C4224 C4226 1.394 . S
C4224 H4240 0.931 . S
C4225 C4224 1.391 . S
C4225 C4229 1.376 . S
C4226 C4224 1.394 . S
C4226 C4227 1.369 . S
C4226 C4230 1.531 . S
C4227 C4226 1.369 . S
C4227 C4228 1.410 . S
C4227 C4235 1.503 . S
C4228 C4227 1.410 . S
C4228 C4229 1.392 . S
C4228 C4231 1.511 . S
C4229 C4225 1.376 . S
C4229 C4228 1.392 . S
C4229 H4241 0.929 . S
C4230 C4226 1.531 . S
C4230 H4242 0.960 . S
C4230 H4243 0.962 . S
C4230 H4244 0.960 . S
C4231 C4228 1.511 . S
C4231 H4245 0.961 . S
C4231 H4246 0.961 . S
C4231 H4247 0.961 . S
C4232 C4233 1.370 . S
C4232 C4234 1.363 . S
C4232 H4248 0.931 . S
C4233 C4232 1.370 . S
C4233 C4237 1.408 . S
C4234 C4232 1.363 . S
C4234 C4235 1.370 . S
C4234 C4238 1.524 . S
C4235 C4227 1.503 . S
C4235 C4234 1.370 . S
C4235 C4236 1.403 . S
C4236 C4235 1.403 . S
C4236 C4237 1.404 . S
C4236 C4239 1.539 . S
C4237 C4233 1.408 . S
C4237 C4236 1.404 . S
C4237 H4249 0.930 . S
C4238 C4234 1.524 . S
C4238 H4250 0.956 . S
C4238 H4251 0.961 . S
C4238 H4252 0.961 . S
C4239 C4236 1.539 . S
C4239 H4253 0.958 . S
C4239 H4254 0.961 . S
C4239 H4255 0.960 . S
H4240 C4224 0.931 . S
H4241 C4229 0.929 . S
H4242 C4230 0.960 . S
H4243 C4230 0.962 . S
H4244 C4230 0.960 . S
H4245 C4231 0.961 . S
H4246 C4231 0.961 . S
H4247 C4231 0.961 . S
H4248 C4232 0.931 . S
H4249 C4237 0.930 . S
H4250 C4238 0.956 . S
H4251 C4238 0.961 . S
H4252 C4238 0.961 . S
H4253 C4239 0.958 . S
H4254 C4239 0.961 . S
H4255 C4239 0.960 . S
C4256 C4257 1.391 . S
C4256 C4258 1.394 . S
C4256 H4272 0.931 . S
C4257 C4256 1.391 . S
C4257 C4261 1.376 . S
C4258 C4256 1.394 . S
C4258 C4259 1.369 . S
C4258 C4262 1.531 . S
C4259 C4258 1.369 . S
C4259 C4260 1.410 . S
C4259 C4267 1.503 . S
C4260 C4259 1.410 . S
C4260 C4261 1.392 . S
C4260 C4263 1.511 . S
C4261 C4257 1.376 . S
C4261 C4260 1.392 . S
C4261 H4273 0.929 . S
C4262 C4258 1.531 . S
C4262 H4274 0.960 . S
C4262 H4275 0.962 . S
C4262 H4276 0.960 . S
C4263 C4260 1.511 . S
C4263 H4277 0.961 . S
C4263 H4278 0.961 . S
C4263 H4279 0.961 . S
C4264 C4265 1.370 . S
C4264 C4266 1.363 . S
C4264 H4280 0.931 . S
C4265 C4264 1.370 . S
C4265 C4269 1.408 . S
C4266 C4264 1.363 . S
C4266 C4267 1.370 . S
C4266 C4270 1.524 . S
C4267 C4259 1.503 . S
C4267 C4266 1.370 . S
C4267 C4268 1.403 . S
C4268 C4267 1.403 . S
C4268 C4269 1.404 . S
C4268 C4271 1.539 . S
C4269 C4265 1.408 . S
C4269 C4268 1.404 . S
C4269 H4281 0.930 . S
C4270 C4266 1.524 . S
C4270 H4282 0.956 . S
C4270 H4283 0.961 . S
C4270 H4284 0.961 . S
C4271 C4268 1.539 . S
C4271 H4285 0.958 . S
C4271 H4286 0.961 . S
C4271 H4287 0.960 . S
H4272 C4256 0.931 . S
H4273 C4261 0.929 . S
H4274 C4262 0.960 . S
H4275 C4262 0.962 . S
H4276 C4262 0.960 . S
H4277 C4263 0.961 . S
H4278 C4263 0.961 . S
H4279 C4263 0.961 . S
H4280 C4264 0.931 . S
H4281 C4269 0.930 . S
H4282 C4270 0.956 . S
H4283 C4270 0.961 . S
H4284 C4270 0.961 . S
H4285 C4271 0.958 . S
H4286 C4271 0.961 . S
H4287 C4271 0.960 . S
C4288 C4289 1.391 . S
C4288 C4290 1.394 . S
C4288 H4304 0.931 . S
C4289 C4288 1.391 . S
C4289 C4293 1.376 . S
C4290 C4288 1.394 . S
C4290 C4291 1.369 . S
C4290 C4294 1.531 . S
C4291 C4290 1.369 . S
C4291 C4292 1.410 . S
C4291 C4299 1.503 . S
C4292 C4291 1.410 . S
C4292 C4293 1.392 . S
C4292 C4295 1.511 . S
C4293 C4289 1.376 . S
C4293 C4292 1.392 . S
C4293 H4305 0.929 . S
C4294 C4290 1.531 . S
C4294 H4306 0.960 . S
C4294 H4307 0.962 . S
C4294 H4308 0.960 . S
C4295 C4292 1.511 . S
C4295 H4309 0.961 . S
C4295 H4310 0.961 . S
C4295 H4311 0.961 . S
C4296 C4297 1.370 . S
C4296 C4298 1.363 . S
C4296 H4312 0.931 . S
C4297 C4296 1.370 . S
C4297 C4301 1.408 . S
C4298 C4296 1.363 . S
C4298 C4299 1.370 . S
C4298 C4302 1.524 . S
C4299 C4291 1.503 . S
C4299 C4298 1.370 . S
C4299 C4300 1.403 . S
C4300 C4299 1.403 . S
C4300 C4301 1.404 . S
C4300 C4303 1.539 . S
C4301 C4297 1.408 . S
C4301 C4300 1.404 . S
C4301 H4313 0.930 . S
C4302 C4298 1.524 . S
C4302 H4314 0.956 . S
C4302 H4315 0.961 . S
C4302 H4316 0.961 . S
C4303 C4300 1.539 . S
C4303 H4317 0.958 . S
C4303 H4318 0.961 . S
C4303 H4319 0.960 . S
H4304 C4288 0.931 . S
H4305 C4293 0.929 . S
H4306 C4294 0.960 . S
H4307 C4294 0.962 . S
H4308 C4294 0.960 . S
H4309 C4295 0.961 . S
H4310 C4295 0.961 . S
H4311 C4295 0.961 . S
H4312 C4296 0.931 . S
H4313 C4301 0.930 . S
H4314 C4302 0.956 . S
H4315 C4302 0.961 . S
H4316 C4302 0.961 . S
H4317 C4303 0.958 . S
H4318 C4303 0.961 . S
H4319 C4303 0.960 . S
C4320 C4321 1.391 . S
C4320 C4322 1.394 . S
C4320 H4336 0.931 . S
C4321 C4320 1.391 . S
C4321 C4325 1.376 . S
C4322 C4320 1.394 . S
C4322 C4323 1.369 . S
C4322 C4326 1.531 . S
C4323 C4322 1.369 . S
C4323 C4324 1.410 . S
C4323 C4331 1.503 . S
C4324 C4323 1.410 . S
C4324 C4325 1.392 . S
C4324 C4327 1.511 . S
C4325 C4321 1.376 . S
C4325 C4324 1.392 . S
C4325 H4337 0.929 1_565 S
C4326 C4322 1.531 . S
C4326 H4338 0.960 . S
C4326 H4339 0.962 . S
C4326 H4340 0.960 . S
C4327 C4324 1.511 . S
C4327 H4341 0.961 . S
C4327 H4342 0.961 . S
C4327 H4343 0.961 . S
C4328 C4329 1.370 . S
C4328 C4330 1.363 . S
C4328 H4344 0.931 . S
C4329 C4328 1.370 . S
C4329 C4333 1.408 . S
C4330 C4328 1.363 . S
C4330 C4331 1.370 . S
C4330 C4334 1.524 . S
C4331 C4323 1.503 . S
C4331 C4330 1.370 . S
C4331 C4332 1.403 . S
C4332 C4331 1.403 . S
C4332 C4333 1.404 . S
C4332 C4335 1.539 . S
C4333 C4329 1.408 . S
C4333 C4332 1.404 . S
C4333 H4345 0.930 . S
C4334 C4330 1.524 . S
C4334 H4346 0.956 . S
C4334 H4347 0.961 . S
C4334 H4348 0.961 . S
C4335 C4332 1.539 . S
C4335 H4349 0.958 . S
C4335 H4350 0.961 . S
C4335 H4351 0.960 . S
H4336 C4320 0.931 . S
H4337 C4325 0.929 1_545 S
H4338 C4326 0.960 . S
H4339 C4326 0.962 . S
H4340 C4326 0.960 . S
H4341 C4327 0.961 . S
H4342 C4327 0.961 . S
H4343 C4327 0.961 . S
H4344 C4328 0.931 . S
H4345 C4333 0.930 . S
H4346 C4334 0.956 . S
H4347 C4334 0.961 . S
H4348 C4334 0.961 . S
H4349 C4335 0.958 . S
H4350 C4335 0.961 . S
H4351 C4335 0.960 . S
C4352 C4353 1.391 1_556 S
C4352 C4354 1.396 1_556 S
C4352 H4368 0.931 . S
C4353 C4352 1.391 1_554 S
C4353 C4357 1.376 . S
C4354 C4352 1.396 1_554 S
C4354 C4355 1.372 . S
C4354 C4358 1.525 1_554 S
C4355 C4354 1.372 . S
C4355 C4356 1.410 . S
C4355 C4363 1.503 . S
C4356 C4355 1.410 . S
C4356 C4357 1.392 . S
C4356 C4359 1.511 1_565 S
C4357 C4353 1.376 . S
C4357 C4356 1.392 . S
C4357 H4369 0.929 . S
C4358 C4354 1.525 1_556 S
C4358 H4370 0.960 . S
C4358 H4371 0.962 1_556 S
C4358 H4372 0.960 . S
C4359 C4356 1.511 1_545 S
C4359 H4373 0.961 . S
C4359 H4374 0.961 . S
C4359 H4375 0.961 . S
C4360 C4361 1.370 . S
C4360 C4362 1.363 1_545 S
C4360 H4376 0.931 . S
C4361 C4360 1.370 . S
C4361 C4365 1.408 1_554 S
C4362 C4360 1.363 1_565 S
C4362 C4363 1.370 . S
C4362 C4366 1.524 . S
C4363 C4355 1.503 . S
C4363 C4362 1.370 . S
C4363 C4364 1.403 1_564 S
C4364 C4363 1.403 1_546 S
C4364 C4365 1.404 . S
C4364 C4367 1.539 . S
C4365 C4361 1.408 1_556 S
C4365 C4364 1.404 . S
C4365 H4377 0.930 . S
C4366 C4362 1.524 . S
C4366 H4378 0.956 . S
C4366 H4379 0.961 . S
C4366 H4380 0.961 . S
C4367 C4364 1.539 . S
C4367 H4381 0.958 1_545 S
C4367 H4382 0.961 . S
C4367 H4383 0.954 . S
H4368 C4352 0.931 . S
H4369 C4357 0.929 . S
H4370 C4358 0.960 . S
H4371 C4358 0.962 1_554 S
H4372 C4358 0.960 . S
H4373 C4359 0.961 . S
H4374 C4359 0.961 . S
H4375 C4359 0.961 . S
H4376 C4360 0.931 . S
H4377 C4365 0.930 . S
H4378 C4366 0.956 . S
H4379 C4366 0.961 . S
H4380 C4366 0.961 . S
H4381 C4367 0.958 1_565 S
H4382 C4367 0.961 . S
H4383 C4367 0.954 . S
C4384 C4385 1.391 . S
C4384 C4386 1.394 . S
C4384 H4400 0.931 . S
C4385 C4384 1.391 . S
C4385 C4389 1.376 . S
C4386 C4384 1.394 . S
C4386 C4387 1.369 . S
C4386 C4390 1.531 . S
C4387 C4386 1.369 . S
C4387 C4388 1.410 . S
C4387 C4395 1.503 . S
C4388 C4387 1.410 . S
C4388 C4389 1.392 . S
C4388 C4391 1.511 . S
C4389 C4385 1.376 . S
C4389 C4388 1.392 . S
C4389 H4401 0.929 . S
C4390 C4386 1.531 . S
C4390 H4402 0.960 . S
C4390 H4403 0.962 . S
C4390 H4404 0.960 . S
C4391 C4388 1.511 . S
C4391 H4405 0.961 . S
C4391 H4406 0.961 . S
C4391 H4407 0.961 . S
C4392 C4393 1.370 . S
C4392 C4394 1.363 . S
C4392 H4408 0.931 . S
C4393 C4392 1.370 . S
C4393 C4397 1.408 . S
C4394 C4392 1.363 . S
C4394 C4395 1.370 . S
C4394 C4398 1.524 . S
C4395 C4387 1.503 . S
C4395 C4394 1.370 . S
C4395 C4396 1.403 . S
C4396 C4395 1.403 . S
C4396 C4397 1.404 . S
C4396 C4399 1.539 . S
C4397 C4393 1.408 . S
C4397 C4396 1.404 . S
C4397 H4409 0.930 . S
C4398 C4394 1.524 . S
C4398 H4410 0.956 . S
C4398 H4411 0.961 . S
C4398 H4412 0.961 . S
C4399 C4396 1.539 . S
C4399 H4413 0.958 . S
C4399 H4414 0.961 . S
C4399 H4415 0.960 . S
H4400 C4384 0.931 . S
H4401 C4389 0.929 . S
H4402 C4390 0.960 . S
H4403 C4390 0.962 . S
H4404 C4390 0.960 . S
H4405 C4391 0.961 . S
H4406 C4391 0.961 . S
H4407 C4391 0.961 . S
H4408 C4392 0.931 . S
H4409 C4397 0.930 . S
H4410 C4398 0.956 . S
H4411 C4398 0.961 . S
H4412 C4398 0.961 . S
H4413 C4399 0.958 . S
H4414 C4399 0.961 . S
H4415 C4399 0.960 . S
C4416 C4417 1.391 . S
C4416 C4418 1.394 . S
C4416 H4432 0.931 . S
C4417 C4416 1.391 . S
C4417 C4421 1.376 . S
C4418 C4416 1.394 . S
C4418 C4419 1.369 . S
C4418 C4422 1.531 . S
C4419 C4418 1.369 . S
C4419 C4420 1.410 . S
C4419 C4427 1.503 . S
C4420 C4419 1.410 . S
C4420 C4421 1.392 . S
C4420 C4423 1.511 . S
C4421 C4417 1.376 . S
C4421 C4420 1.392 . S
C4421 H4433 0.929 . S
C4422 C4418 1.531 . S
C4422 H4434 0.960 . S
C4422 H4435 0.962 . S
C4422 H4436 0.960 . S
C4423 C4420 1.511 . S
C4423 H4437 0.961 . S
C4423 H4438 0.961 . S
C4423 H4439 0.961 . S
C4424 C4425 1.370 . S
C4424 C4426 1.363 . S
C4424 H4440 0.931 1_554 S
C4425 C4424 1.370 . S
C4425 C4429 1.408 . S
C4426 C4424 1.363 . S
C4426 C4427 1.370 . S
C4426 C4430 1.524 1_554 S
C4427 C4419 1.503 . S
C4427 C4426 1.370 . S
C4427 C4428 1.403 . S
C4428 C4427 1.403 . S
C4428 C4429 1.404 . S
C4428 C4431 1.539 . S
C4429 C4425 1.408 . S
C4429 C4428 1.404 . S
C4429 H4441 0.930 . S
C4430 C4426 1.524 1_556 S
C4430 H4442 0.956 . S
C4430 H4443 0.961 . S
C4430 H4444 0.961 . S
C4431 C4428 1.539 . S
C4431 H4445 0.958 . S
C4431 H4446 0.961 . S
C4431 H4447 0.960 . S
H4432 C4416 0.931 . S
H4433 C4421 0.929 . S
H4434 C4422 0.960 . S
H4435 C4422 0.962 . S
H4436 C4422 0.960 . S
H4437 C4423 0.961 . S
H4438 C4423 0.961 . S
H4439 C4423 0.961 . S
H4440 C4424 0.931 1_556 S
H4441 C4429 0.930 . S
H4442 C4430 0.956 . S
H4443 C4430 0.961 . S
H4444 C4430 0.961 . S
H4445 C4431 0.958 . S
H4446 C4431 0.961 . S
H4447 C4431 0.960 . S
C4448 C4449 1.391 . S
C4448 C4450 1.394 . S
C4448 H4464 0.931 . S
C4449 C4448 1.391 . S
C4449 C4453 1.376 . S
C4450 C4448 1.394 . S
C4450 C4451 1.369 . S
C4450 C4454 1.531 . S
C4451 C4450 1.369 . S
C4451 C4452 1.410 . S
C4451 C4459 1.503 . S
C4452 C4451 1.410 . S
C4452 C4453 1.392 . S
C4452 C4455 1.511 . S
C4453 C4449 1.376 . S
C4453 C4452 1.392 . S
C4453 H4465 0.929 . S
C4454 C4450 1.531 . S
C4454 H4466 0.960 . S
C4454 H4467 0.962 . S
C4454 H4468 0.960 . S
C4455 C4452 1.511 . S
C4455 H4469 0.961 . S
C4455 H4470 0.961 . S
C4455 H4471 0.961 . S
C4456 C4457 1.370 . S
C4456 C4458 1.363 . S
C4456 H4472 0.931 . S
C4457 C4456 1.370 . S
C4457 C4461 1.408 . S
C4458 C4456 1.363 . S
C4458 C4459 1.370 . S
C4458 C4462 1.524 . S
C4459 C4451 1.503 . S
C4459 C4458 1.370 . S
C4459 C4460 1.403 . S
C4460 C4459 1.403 . S
C4460 C4461 1.404 . S
C4460 C4463 1.539 . S
C4461 C4457 1.408 . S
C4461 C4460 1.404 . S
C4461 H4473 0.930 . S
C4462 C4458 1.524 . S
C4462 H4474 0.956 . S
C4462 H4475 0.961 . S
C4462 H4476 0.961 . S
C4463 C4460 1.539 . S
C4463 H4477 0.958 . S
C4463 H4478 0.961 . S
C4463 H4479 0.960 . S
H4464 C4448 0.931 . S
H4465 C4453 0.929 . S
H4466 C4454 0.960 . S
H4467 C4454 0.962 . S
H4468 C4454 0.960 . S
H4469 C4455 0.961 . S
H4470 C4455 0.961 . S
H4471 C4455 0.961 . S
H4472 C4456 0.931 . S
H4473 C4461 0.930 . S
H4474 C4462 0.956 . S
H4475 C4462 0.961 . S
H4476 C4462 0.961 . S
H4477 C4463 0.958 . S
H4478 C4463 0.961 . S
H4479 C4463 0.960 . S
C4480 C4481 1.391 . S
C4480 C4482 1.394 . S
C4480 H4496 0.931 . S
C4481 C4480 1.391 . S
C4481 C4485 1.376 . S
C4482 C4480 1.394 . S
C4482 C4483 1.369 . S
C4482 C4486 1.531 . S
C4483 C4482 1.369 . S
C4483 C4484 1.410 . S
C4483 C4491 1.503 . S
C4484 C4483 1.410 . S
C4484 C4485 1.392 . S
C4484 C4487 1.511 . S
C4485 C4481 1.376 . S
C4485 C4484 1.392 . S
C4485 H4497 0.929 . S
C4486 C4482 1.531 . S
C4486 H4498 0.960 . S
C4486 H4499 0.962 . S
C4486 H4500 0.960 . S
C4487 C4484 1.511 . S
C4487 H4501 0.961 . S
C4487 H4502 0.961 . S
C4487 H4503 0.961 . S
C4488 C4489 1.370 . S
C4488 C4490 1.363 . S
C4488 H4504 0.931 . S
C4489 C4488 1.370 . S
C4489 C4493 1.408 . S
C4490 C4488 1.363 . S
C4490 C4491 1.370 . S
C4490 C4494 1.524 . S
C4491 C4483 1.503 . S
C4491 C4490 1.370 . S
C4491 C4492 1.403 . S
C4492 C4491 1.403 . S
C4492 C4493 1.404 . S
C4492 C4495 1.539 . S
C4493 C4489 1.408 . S
C4493 C4492 1.404 . S
C4493 H4505 0.930 . S
C4494 C4490 1.524 . S
C4494 H4506 0.956 . S
C4494 H4507 0.961 . S
C4494 H4508 0.961 . S
C4495 C4492 1.539 . S
C4495 H4509 0.958 . S
C4495 H4510 0.961 . S
C4495 H4511 0.960 . S
H4496 C4480 0.931 . S
H4497 C4485 0.929 . S
H4498 C4486 0.960 . S
H4499 C4486 0.962 . S
H4500 C4486 0.960 . S
H4501 C4487 0.961 . S
H4502 C4487 0.961 . S
H4503 C4487 0.961 . S
H4504 C4488 0.931 . S
H4505 C4493 0.930 . S
H4506 C4494 0.956 . S
H4507 C4494 0.961 . S
H4508 C4494 0.961 . S
H4509 C4495 0.958 . S
H4510 C4495 0.961 . S
H4511 C4495 0.960 . S
C4512 C4513 1.391 . S
C4512 C4514 1.394 . S
C4512 H4528 0.931 . S
C4513 C4512 1.391 . S
C4513 C4517 1.376 . S
C4514 C4512 1.394 . S
C4514 C4515 1.369 . S
C4514 C4518 1.531 . S
C4515 C4514 1.369 . S
C4515 C4516 1.410 . S
C4515 C4523 1.503 . S
C4516 C4515 1.410 . S
C4516 C4517 1.392 . S
C4516 C4519 1.511 . S
C4517 C4513 1.376 . S
C4517 C4516 1.392 . S
C4517 H4529 0.929 . S
C4518 C4514 1.531 . S
C4518 H4530 0.960 . S
C4518 H4531 0.962 . S
C4518 H4532 0.960 . S
C4519 C4516 1.511 . S
C4519 H4533 0.961 . S
C4519 H4534 0.961 . S
C4519 H4535 0.961 . S
C4520 C4521 1.370 . S
C4520 C4522 1.363 . S
C4520 H4536 0.931 . S
C4521 C4520 1.370 . S
C4521 C4525 1.408 . S
C4522 C4520 1.363 . S
C4522 C4523 1.370 . S
C4522 C4526 1.524 . S
C4523 C4515 1.503 . S
C4523 C4522 1.370 . S
C4523 C4524 1.403 . S
C4524 C4523 1.403 . S
C4524 C4525 1.404 . S
C4524 C4527 1.539 . S
C4525 C4521 1.408 . S
C4525 C4524 1.404 . S
C4525 H4537 0.930 . S
C4526 C4522 1.524 . S
C4526 H4538 0.956 . S
C4526 H4539 0.961 . S
C4526 H4540 0.961 . S
C4527 C4524 1.539 . S
C4527 H4541 0.958 . S
C4527 H4542 0.961 . S
C4527 H4543 0.960 . S
H4528 C4512 0.931 . S
H4529 C4517 0.929 . S
H4530 C4518 0.960 . S
H4531 C4518 0.962 . S
H4532 C4518 0.960 . S
H4533 C4519 0.961 . S
H4534 C4519 0.961 . S
H4535 C4519 0.961 . S
H4536 C4520 0.931 . S
H4537 C4525 0.930 . S
H4538 C4526 0.956 . S
H4539 C4526 0.961 . S
H4540 C4526 0.961 . S
H4541 C4527 0.958 . S
H4542 C4527 0.961 . S
H4543 C4527 0.960 . S
C4544 C4545 1.391 . S
C4544 C4546 1.394 . S
C4544 H4560 0.931 . S
C4545 C4544 1.391 . S
C4545 C4549 1.376 . S
C4546 C4544 1.394 . S
C4546 C4547 1.369 . S
C4546 C4550 1.531 . S
C4547 C4546 1.369 . S
C4547 C4548 1.410 . S
C4547 C4555 1.503 . S
C4548 C4547 1.410 . S
C4548 C4549 1.392 . S
C4548 C4551 1.511 . S
C4549 C4545 1.376 . S
C4549 C4548 1.392 . S
C4549 H4561 0.929 . S
C4550 C4546 1.531 . S
C4550 H4562 0.960 . S
C4550 H4563 0.962 . S
C4550 H4564 0.960 . S
C4551 C4548 1.511 . S
C4551 H4565 0.961 . S
C4551 H4566 0.961 . S
C4551 H4567 0.961 . S
C4552 C4553 1.370 . S
C4552 C4554 1.363 . S
C4552 H4568 0.931 . S
C4553 C4552 1.370 . S
C4553 C4557 1.408 . S
C4554 C4552 1.363 . S
C4554 C4555 1.370 . S
C4554 C4558 1.524 . S
C4555 C4547 1.503 . S
C4555 C4554 1.370 . S
C4555 C4556 1.403 . S
C4556 C4555 1.403 . S
C4556 C4557 1.404 . S
C4556 C4559 1.539 . S
C4557 C4553 1.408 . S
C4557 C4556 1.404 . S
C4557 H4569 0.930 . S
C4558 C4554 1.524 . S
C4558 H4570 0.956 . S
C4558 H4571 0.961 . S
C4558 H4572 0.961 . S
C4559 C4556 1.539 . S
C4559 H4573 0.958 . S
C4559 H4574 0.961 . S
C4559 H4575 0.960 . S
H4560 C4544 0.931 . S
H4561 C4549 0.929 . S
H4562 C4550 0.960 . S
H4563 C4550 0.962 . S
H4564 C4550 0.960 . S
H4565 C4551 0.961 . S
H4566 C4551 0.961 . S
H4567 C4551 0.961 . S
H4568 C4552 0.931 . S
H4569 C4557 0.930 . S
H4570 C4558 0.956 . S
H4571 C4558 0.961 . S
H4572 C4558 0.961 . S
H4573 C4559 0.958 . S
H4574 C4559 0.961 . S
H4575 C4559 0.960 . S
C4576 C4577 1.391 . S
C4576 C4578 1.394 . S
C4576 H4592 0.931 . S
C4577 C4576 1.391 . S
C4577 C4581 1.376 . S
C4578 C4576 1.394 . S
C4578 C4579 1.369 . S
C4578 C4582 1.531 . S
C4579 C4578 1.369 . S
C4579 C4580 1.410 . S
C4579 C4587 1.503 . S
C4580 C4579 1.410 . S
C4580 C4581 1.392 . S
C4580 C4583 1.511 . S
C4581 C4577 1.376 . S
C4581 C4580 1.392 . S
C4581 H4593 0.929 . S
C4582 C4578 1.531 . S
C4582 H4594 0.960 . S
C4582 H4595 0.962 . S
C4582 H4596 0.960 . S
C4583 C4580 1.511 . S
C4583 H4597 0.961 . S
C4583 H4598 0.961 . S
C4583 H4599 0.961 1_455 S
C4584 C4585 1.370 . S
C4584 C4586 1.363 . S
C4584 H4600 0.931 . S
C4585 C4584 1.370 . S
C4585 C4589 1.408 . S
C4586 C4584 1.363 . S
C4586 C4587 1.370 . S
C4586 C4590 1.524 . S
C4587 C4579 1.503 . S
C4587 C4586 1.370 . S
C4587 C4588 1.403 . S
C4588 C4587 1.403 . S
C4588 C4589 1.404 . S
C4588 C4591 1.539 . S
C4589 C4585 1.408 . S
C4589 C4588 1.404 . S
C4589 H4601 0.930 . S
C4590 C4586 1.524 . S
C4590 H4602 0.956 . S
C4590 H4603 0.961 . S
C4590 H4604 0.961 . S
C4591 C4588 1.539 . S
C4591 H4605 0.958 . S
C4591 H4606 0.948 1_455 S
C4591 H4607 0.960 . S
H4592 C4576 0.931 . S
H4593 C4581 0.929 . S
H4594 C4582 0.960 . S
H4595 C4582 0.962 . S
H4596 C4582 0.960 . S
H4597 C4583 0.961 . S
H4598 C4583 0.961 . S
H4599 C4583 0.961 1_655 S
H4600 C4584 0.931 . S
H4601 C4589 0.930 . S
H4602 C4590 0.956 . S
H4603 C4590 0.961 . S
H4604 C4590 0.961 . S
H4605 C4591 0.958 . S
H4606 C4591 0.948 1_655 S
H4607 C4591 0.960 . S
C4608 C4609 1.391 . S
C4608 C4610 1.394 . S
C4608 H4624 0.931 . S
C4609 C4608 1.391 . S
C4609 C4613 1.376 . S
C4610 C4608 1.394 . S
C4610 C4611 1.369 . S
C4610 C4614 1.531 . S
C4611 C4610 1.369 . S
C4611 C4612 1.410 . S
C4611 C4619 1.503 . S
C4612 C4611 1.410 . S
C4612 C4613 1.392 . S
C4612 C4615 1.511 . S
C4613 C4609 1.376 . S
C4613 C4612 1.392 . S
C4613 H4625 0.929 . S
C4614 C4610 1.531 . S
C4614 H4626 0.960 . S
C4614 H4627 0.962 . S
C4614 H4628 0.960 . S
C4615 C4612 1.511 . S
C4615 H4629 0.961 . S
C4615 H4630 0.961 . S
C4615 H4631 0.961 . S
C4616 C4617 1.370 . S
C4616 C4618 1.363 . S
C4616 H4632 0.931 . S
C4617 C4616 1.370 . S
C4617 C4621 1.408 . S
C4618 C4616 1.363 . S
C4618 C4619 1.370 . S
C4618 C4622 1.524 . S
C4619 C4611 1.503 . S
C4619 C4618 1.370 . S
C4619 C4620 1.403 . S
C4620 C4619 1.403 . S
C4620 C4621 1.404 . S
C4620 C4623 1.539 . S
C4621 C4617 1.408 . S
C4621 C4620 1.404 . S
C4621 H4633 0.930 . S
C4622 C4618 1.524 . S
C4622 H4634 0.956 . S
C4622 H4635 0.961 . S
C4622 H4636 0.961 . S
C4623 C4620 1.539 . S
C4623 H4637 0.958 . S
C4623 H4638 0.961 . S
C4623 H4639 0.960 . S
H4624 C4608 0.931 . S
H4625 C4613 0.929 . S
H4626 C4614 0.960 . S
H4627 C4614 0.962 . S
H4628 C4614 0.960 . S
H4629 C4615 0.961 . S
H4630 C4615 0.961 . S
H4631 C4615 0.961 . S
H4632 C4616 0.931 . S
H4633 C4621 0.930 . S
H4634 C4622 0.956 . S
H4635 C4622 0.961 . S
H4636 C4622 0.961 . S
H4637 C4623 0.958 . S
H4638 C4623 0.961 . S
H4639 C4623 0.960 . S
C4640 C4641 1.391 . S
C4640 C4642 1.394 . S
C4640 H4656 0.931 . S
C4641 C4640 1.391 . S
C4641 C4645 1.376 . S
C4642 C4640 1.394 . S
C4642 C4643 1.369 . S
C4642 C4646 1.531 . S
C4643 C4642 1.369 . S
C4643 C4644 1.410 . S
C4643 C4651 1.503 . S
C4644 C4643 1.410 . S
C4644 C4645 1.392 . S
C4644 C4647 1.511 . S
C4645 C4641 1.376 . S
C4645 C4644 1.392 . S
C4645 H4657 0.929 . S
C4646 C4642 1.531 . S
C4646 H4658 0.960 . S
C4646 H4659 0.962 . S
C4646 H4660 0.960 . S
C4647 C4644 1.511 . S
C4647 H4661 0.961 . S
C4647 H4662 0.961 . S
C4647 H4663 0.961 . S
C4648 C4649 1.370 . S
C4648 C4650 1.363 . S
C4648 H4664 0.931 . S
C4649 C4648 1.370 . S
C4649 C4653 1.408 . S
C4650 C4648 1.363 . S
C4650 C4651 1.370 . S
C4650 C4654 1.524 . S
C4651 C4643 1.503 . S
C4651 C4650 1.370 . S
C4651 C4652 1.403 . S
C4652 C4651 1.403 . S
C4652 C4653 1.404 . S
C4652 C4655 1.539 . S
C4653 C4649 1.408 . S
C4653 C4652 1.404 . S
C4653 H4665 0.930 . S
C4654 C4650 1.524 . S
C4654 H4666 0.956 . S
C4654 H4667 0.961 . S
C4654 H4668 0.961 . S
C4655 C4652 1.539 . S
C4655 H4669 0.958 . S
C4655 H4670 0.961 . S
C4655 H4671 0.960 . S
H4656 C4640 0.931 . S
H4657 C4645 0.929 . S
H4658 C4646 0.960 . S
H4659 C4646 0.962 . S
H4660 C4646 0.960 . S
H4661 C4647 0.961 . S
H4662 C4647 0.961 . S
H4663 C4647 0.961 . S
H4664 C4648 0.931 . S
H4665 C4653 0.930 . S
H4666 C4654 0.956 . S
H4667 C4654 0.961 . S
H4668 C4654 0.961 . S
H4669 C4655 0.958 . S
H4670 C4655 0.961 . S
H4671 C4655 0.960 . S
C4672 C4673 1.391 . S
C4672 C4674 1.394 . S
C4672 H4688 0.931 . S
C4673 C4672 1.391 . S
C4673 C4677 1.376 . S
C4674 C4672 1.394 . S
C4674 C4675 1.369 . S
C4674 C4678 1.531 . S
C4675 C4674 1.369 . S
C4675 C4676 1.410 . S
C4675 C4683 1.503 . S
C4676 C4675 1.410 . S
C4676 C4677 1.392 . S
C4676 C4679 1.511 . S
C4677 C4673 1.376 . S
C4677 C4676 1.392 . S
C4677 H4689 0.929 . S
C4678 C4674 1.531 . S
C4678 H4690 0.960 . S
C4678 H4691 0.962 . S
C4678 H4692 0.960 . S
C4679 C4676 1.511 . S
C4679 H4693 0.961 . S
C4679 H4694 0.961 . S
C4679 H4695 0.961 . S
C4680 C4681 1.370 . S
C4680 C4682 1.363 . S
C4680 H4696 0.931 . S
C4681 C4680 1.370 . S
C4681 C4685 1.408 . S
C4682 C4680 1.363 . S
C4682 C4683 1.370 . S
C4682 C4686 1.524 . S
C4683 C4675 1.503 . S
C4683 C4682 1.370 . S
C4683 C4684 1.403 . S
C4684 C4683 1.403 . S
C4684 C4685 1.404 . S
C4684 C4687 1.539 . S
C4685 C4681 1.408 . S
C4685 C4684 1.404 . S
C4685 H4697 0.930 . S
C4686 C4682 1.524 . S
C4686 H4698 0.956 . S
C4686 H4699 0.961 . S
C4686 H4700 0.961 . S
C4687 C4684 1.539 . S
C4687 H4701 0.958 . S
C4687 H4702 0.961 . S
C4687 H4703 0.960 . S
H4688 C4672 0.931 . S
H4689 C4677 0.929 . S
H4690 C4678 0.960 . S
H4691 C4678 0.962 . S
H4692 C4678 0.960 . S
H4693 C4679 0.961 . S
H4694 C4679 0.961 . S
H4695 C4679 0.961 . S
H4696 C4680 0.931 . S
H4697 C4685 0.930 . S
H4698 C4686 0.956 . S
H4699 C4686 0.961 . S
H4700 C4686 0.961 . S
H4701 C4687 0.958 . S
H4702 C4687 0.961 . S
H4703 C4687 0.960 . S
C4704 C4705 1.391 . S
C4704 C4706 1.394 . S
C4704 H4720 0.931 . S
C4705 C4704 1.391 . S
C4705 C4709 1.376 . S
C4706 C4704 1.394 . S
C4706 C4707 1.369 . S
C4706 C4710 1.531 . S
C4707 C4706 1.369 . S
C4707 C4708 1.410 . S
C4707 C4715 1.503 . S
C4708 C4707 1.410 . S
C4708 C4709 1.392 . S
C4708 C4711 1.511 . S
C4709 C4705 1.376 . S
C4709 C4708 1.392 . S
C4709 H4721 0.929 . S
C4710 C4706 1.531 . S
C4710 H4722 0.960 . S
C4710 H4723 0.962 . S
C4710 H4724 0.960 . S
C4711 C4708 1.511 . S
C4711 H4725 0.961 . S
C4711 H4726 0.961 . S
C4711 H4727 0.961 . S
C4712 C4713 1.370 . S
C4712 C4714 1.363 . S
C4712 H4728 0.931 . S
C4713 C4712 1.370 . S
C4713 C4717 1.408 . S
C4714 C4712 1.363 . S
C4714 C4715 1.370 . S
C4714 C4718 1.524 . S
C4715 C4707 1.503 . S
C4715 C4714 1.370 . S
C4715 C4716 1.403 . S
C4716 C4715 1.403 . S
C4716 C4717 1.404 . S
C4716 C4719 1.539 . S
C4717 C4713 1.408 . S
C4717 C4716 1.404 . S
C4717 H4729 0.930 . S
C4718 C4714 1.524 . S
C4718 H4730 0.956 . S
C4718 H4731 0.961 . S
C4718 H4732 0.961 1_455 S
C4719 C4716 1.539 . S
C4719 H4733 0.958 . S
C4719 H4734 0.961 . S
C4719 H4735 0.960 . S
H4720 C4704 0.931 . S
H4721 C4709 0.929 . S
H4722 C4710 0.960 . S
H4723 C4710 0.962 . S
H4724 C4710 0.960 . S
H4725 C4711 0.961 . S
H4726 C4711 0.961 . S
H4727 C4711 0.961 . S
H4728 C4712 0.931 . S
H4729 C4717 0.930 . S
H4730 C4718 0.956 . S
H4731 C4718 0.961 . S
H4732 C4718 0.961 1_655 S
H4733 C4719 0.958 . S
H4734 C4719 0.961 . S
H4735 C4719 0.960 . S
C4736 C4737 1.391 . S
C4736 C4738 1.394 . S
C4736 H4752 0.931 . S
C4737 C4736 1.391 . S
C4737 C4741 1.376 . S
C4738 C4736 1.394 . S
C4738 C4739 1.369 . S
C4738 C4742 1.531 . S
C4739 C4738 1.369 . S
C4739 C4740 1.410 . S
C4739 C4747 1.503 . S
C4740 C4739 1.410 . S
C4740 C4741 1.392 . S
C4740 C4743 1.511 . S
C4741 C4737 1.376 . S
C4741 C4740 1.392 . S
C4741 H4753 0.929 . S
C4742 C4738 1.531 . S
C4742 H4754 0.960 . S
C4742 H4755 0.962 . S
C4742 H4756 0.960 . S
C4743 C4740 1.511 . S
C4743 H4757 0.961 . S
C4743 H4758 0.961 . S
C4743 H4759 0.961 . S
C4744 C4745 1.370 . S
C4744 C4746 1.363 . S
C4744 H4760 0.931 . S
C4745 C4744 1.370 . S
C4745 C4749 1.408 . S
C4746 C4744 1.363 . S
C4746 C4747 1.370 . S
C4746 C4750 1.524 . S
C4747 C4739 1.503 . S
C4747 C4746 1.370 . S
C4747 C4748 1.403 . S
C4748 C4747 1.403 . S
C4748 C4749 1.404 . S
C4748 C4751 1.539 . S
C4749 C4745 1.408 . S
C4749 C4748 1.404 . S
C4749 H4761 0.930 . S
C4750 C4746 1.524 . S
C4750 H4762 0.956 . S
C4750 H4763 0.961 . S
C4750 H4764 0.961 . S
C4751 C4748 1.539 . S
C4751 H4765 0.958 . S
C4751 H4766 0.961 . S
C4751 H4767 0.960 . S
H4752 C4736 0.931 . S
H4753 C4741 0.929 . S
H4754 C4742 0.960 . S
H4755 C4742 0.962 . S
H4756 C4742 0.960 . S
H4757 C4743 0.961 . S
H4758 C4743 0.961 . S
H4759 C4743 0.961 . S
H4760 C4744 0.931 . S
H4761 C4749 0.930 . S
H4762 C4750 0.956 . S
H4763 C4750 0.961 . S
H4764 C4750 0.961 . S
H4765 C4751 0.958 . S
H4766 C4751 0.961 . S
H4767 C4751 0.960 . S
C4768 C4769 1.391 . S
C4768 C4770 1.394 . S
C4768 H4784 0.931 . S
C4769 C4768 1.391 . S
C4769 C4773 1.376 . S
C4770 C4768 1.394 . S
C4770 C4771 1.369 . S
C4770 C4774 1.531 . S
C4771 C4770 1.369 . S
C4771 C4772 1.410 . S
C4771 C4779 1.503 . S
C4772 C4771 1.410 . S
C4772 C4773 1.392 . S
C4772 C4775 1.511 . S
C4773 C4769 1.376 . S
C4773 C4772 1.392 . S
C4773 H4785 0.929 . S
C4774 C4770 1.531 . S
C4774 H4786 0.960 . S
C4774 H4787 0.962 . S
C4774 H4788 0.960 . S
C4775 C4772 1.511 . S
C4775 H4789 0.961 . S
C4775 H4790 0.961 . S
C4775 H4791 0.961 . S
C4776 C4777 1.370 . S
C4776 C4778 1.363 . S
C4776 H4792 0.931 . S
C4777 C4776 1.370 . S
C4777 C4781 1.408 . S
C4778 C4776 1.363 . S
C4778 C4779 1.370 . S
C4778 C4782 1.524 . S
C4779 C4771 1.503 . S
C4779 C4778 1.370 . S
C4779 C4780 1.403 . S
C4780 C4779 1.403 . S
C4780 C4781 1.404 . S
C4780 C4783 1.539 . S
C4781 C4777 1.408 . S
C4781 C4780 1.404 . S
C4781 H4793 0.930 . S
C4782 C4778 1.524 . S
C4782 H4794 0.956 . S
C4782 H4795 0.961 . S
C4782 H4796 0.961 . S
C4783 C4780 1.539 . S
C4783 H4797 0.958 . S
C4783 H4798 0.961 . S
C4783 H4799 0.960 . S
H4784 C4768 0.931 . S
H4785 C4773 0.929 . S
H4786 C4774 0.960 . S
H4787 C4774 0.962 . S
H4788 C4774 0.960 . S
H4789 C4775 0.961 . S
H4790 C4775 0.961 . S
H4791 C4775 0.961 . S
H4792 C4776 0.931 . S
H4793 C4781 0.930 . S
H4794 C4782 0.956 . S
H4795 C4782 0.961 . S
H4796 C4782 0.961 . S
H4797 C4783 0.958 . S
H4798 C4783 0.961 . S
H4799 C4783 0.960 . S
C4800 C4801 1.391 . S
C4800 C4802 1.394 . S
C4800 H4816 0.931 . S
C4801 C4800 1.391 . S
C4801 C4805 1.376 . S
C4802 C4800 1.394 . S
C4802 C4803 1.369 . S
C4802 C4806 1.531 . S
C4803 C4802 1.369 . S
C4803 C4804 1.410 . S
C4803 C4811 1.503 . S
C4804 C4803 1.410 . S
C4804 C4805 1.392 . S
C4804 C4807 1.511 . S
C4805 C4801 1.376 . S
C4805 C4804 1.392 . S
C4805 H4817 0.929 . S
C4806 C4802 1.531 . S
C4806 H4818 0.960 . S
C4806 H4819 0.962 . S
C4806 H4820 0.960 . S
C4807 C4804 1.511 . S
C4807 H4821 0.961 . S
C4807 H4822 0.961 . S
C4807 H4823 0.961 . S
C4808 C4809 1.370 . S
C4808 C4810 1.363 . S
C4808 H4824 0.931 . S
C4809 C4808 1.370 . S
C4809 C4813 1.408 . S
C4810 C4808 1.363 . S
C4810 C4811 1.370 . S
C4810 C4814 1.524 . S
C4811 C4803 1.503 . S
C4811 C4810 1.370 . S
C4811 C4812 1.403 . S
C4812 C4811 1.403 . S
C4812 C4813 1.404 . S
C4812 C4815 1.539 . S
C4813 C4809 1.408 . S
C4813 C4812 1.404 . S
C4813 H4825 0.930 . S
C4814 C4810 1.524 . S
C4814 H4826 0.956 . S
C4814 H4827 0.961 . S
C4814 H4828 0.961 . S
C4815 C4812 1.539 . S
C4815 H4829 0.958 . S
C4815 H4830 0.961 . S
C4815 H4831 0.960 . S
H4816 C4800 0.931 . S
H4817 C4805 0.929 . S
H4818 C4806 0.960 . S
H4819 C4806 0.962 . S
H4820 C4806 0.960 . S
H4821 C4807 0.961 . S
H4822 C4807 0.961 . S
H4823 C4807 0.961 . S
H4824 C4808 0.931 . S
H4825 C4813 0.930 . S
H4826 C4814 0.956 . S
H4827 C4814 0.961 . S
H4828 C4814 0.961 . S
H4829 C4815 0.958 . S
H4830 C4815 0.961 . S
H4831 C4815 0.960 . S
C4832 C4833 1.391 . S
C4832 C4834 1.394 . S
C4832 H4848 0.931 . S
C4833 C4832 1.391 . S
C4833 C4837 1.376 . S
C4834 C4832 1.394 . S
C4834 C4835 1.369 . S
C4834 C4838 1.531 . S
C4835 C4834 1.369 . S
C4835 C4836 1.410 . S
C4835 C4843 1.503 . S
C4836 C4835 1.410 . S
C4836 C4837 1.392 . S
C4836 C4839 1.511 . S
C4837 C4833 1.376 . S
C4837 C4836 1.392 . S
C4837 H4849 0.929 . S
C4838 C4834 1.531 . S
C4838 H4850 0.960 . S
C4838 H4851 0.962 . S
C4838 H4852 0.960 . S
C4839 C4836 1.511 . S
C4839 H4853 0.961 . S
C4839 H4854 0.961 . S
C4839 H4855 0.961 . S
C4840 C4841 1.370 . S
C4840 C4842 1.363 . S
C4840 H4856 0.931 . S
C4841 C4840 1.370 . S
C4841 C4845 1.408 . S
C4842 C4840 1.363 . S
C4842 C4843 1.370 . S
C4842 C4846 1.524 . S
C4843 C4835 1.503 . S
C4843 C4842 1.370 . S
C4843 C4844 1.403 . S
C4844 C4843 1.403 . S
C4844 C4845 1.404 . S
C4844 C4847 1.539 . S
C4845 C4841 1.408 . S
C4845 C4844 1.404 . S
C4845 H4857 0.930 . S
C4846 C4842 1.524 . S
C4846 H4858 0.956 . S
C4846 H4859 0.961 . S
C4846 H4860 0.961 . S
C4847 C4844 1.539 . S
C4847 H4861 0.958 . S
C4847 H4862 0.961 . S
C4847 H4863 0.960 . S
H4848 C4832 0.931 . S
H4849 C4837 0.929 . S
H4850 C4838 0.960 . S
H4851 C4838 0.962 . S
H4852 C4838 0.960 . S
H4853 C4839 0.961 . S
H4854 C4839 0.961 . S
H4855 C4839 0.961 . S
H4856 C4840 0.931 . S
H4857 C4845 0.930 . S
H4858 C4846 0.956 . S
H4859 C4846 0.961 . S
H4860 C4846 0.961 . S
H4861 C4847 0.958 . S
H4862 C4847 0.961 . S
H4863 C4847 0.960 . S
C4864 C4865 1.391 . S
C4864 C4866 1.394 . S
C4864 H4880 0.931 . S
C4865 C4864 1.391 . S
C4865 C4869 1.376 . S
C4866 C4864 1.394 . S
C4866 C4867 1.369 . S
C4866 C4870 1.531 . S
C4867 C4866 1.369 . S
C4867 C4868 1.410 . S
C4867 C4875 1.503 . S
C4868 C4867 1.410 . S
C4868 C4869 1.392 . S
C4868 C4871 1.511 . S
C4869 C4865 1.376 . S
C4869 C4868 1.392 . S
C4869 H4881 0.929 . S
C4870 C4866 1.531 . S
C4870 H4882 0.960 . S
C4870 H4883 0.962 . S
C4870 H4884 0.960 . S
C4871 C4868 1.511 . S
C4871 H4885 0.961 . S
C4871 H4886 0.961 . S
C4871 H4887 0.961 . S
C4872 C4873 1.370 . S
C4872 C4874 1.363 . S
C4872 H4888 0.931 . S
C4873 C4872 1.370 . S
C4873 C4877 1.408 . S
C4874 C4872 1.363 . S
C4874 C4875 1.370 . S
C4874 C4878 1.524 . S
C4875 C4867 1.503 . S
C4875 C4874 1.370 . S
C4875 C4876 1.403 . S
C4876 C4875 1.403 . S
C4876 C4877 1.404 . S
C4876 C4879 1.539 . S
C4877 C4873 1.408 . S
C4877 C4876 1.404 . S
C4877 H4889 0.930 . S
C4878 C4874 1.524 . S
C4878 H4890 0.956 . S
C4878 H4891 0.961 . S
C4878 H4892 0.961 . S
C4879 C4876 1.539 . S
C4879 H4893 0.958 . S
C4879 H4894 0.961 . S
C4879 H4895 0.960 . S
H4880 C4864 0.931 . S
H4881 C4869 0.929 . S
H4882 C4870 0.960 . S
H4883 C4870 0.962 . S
H4884 C4870 0.960 . S
H4885 C4871 0.961 . S
H4886 C4871 0.961 . S
H4887 C4871 0.961 . S
H4888 C4872 0.931 . S
H4889 C4877 0.930 . S
H4890 C4878 0.956 . S
H4891 C4878 0.961 . S
H4892 C4878 0.961 . S
H4893 C4879 0.958 . S
H4894 C4879 0.961 . S
H4895 C4879 0.960 . S
C4896 C4897 1.391 . S
C4896 C4898 1.394 . S
C4896 H4912 0.931 . S
C4897 C4896 1.391 . S
C4897 C4901 1.376 . S
C4898 C4896 1.394 . S
C4898 C4899 1.369 . S
C4898 C4902 1.531 . S
C4899 C4898 1.369 . S
C4899 C4900 1.410 . S
C4899 C4907 1.503 . S
C4900 C4899 1.410 . S
C4900 C4901 1.392 . S
C4900 C4903 1.511 . S
C4901 C4897 1.376 . S
C4901 C4900 1.392 . S
C4901 H4913 0.929 . S
C4902 C4898 1.531 . S
C4902 H4914 0.960 . S
C4902 H4915 0.962 . S
C4902 H4916 0.960 . S
C4903 C4900 1.511 . S
C4903 H4917 0.961 . S
C4903 H4918 0.961 . S
C4903 H4919 0.961 . S
C4904 C4905 1.370 . S
C4904 C4906 1.363 . S
C4904 H4920 0.931 . S
C4905 C4904 1.370 . S
C4905 C4909 1.408 . S
C4906 C4904 1.363 . S
C4906 C4907 1.370 . S
C4906 C4910 1.524 . S
C4907 C4899 1.503 . S
C4907 C4906 1.370 . S
C4907 C4908 1.403 . S
C4908 C4907 1.403 . S
C4908 C4909 1.404 . S
C4908 C4911 1.539 . S
C4909 C4905 1.408 . S
C4909 C4908 1.404 . S
C4909 H4921 0.930 . S
C4910 C4906 1.524 . S
C4910 H4922 0.956 . S
C4910 H4923 0.961 . S
C4910 H4924 0.961 . S
C4911 C4908 1.539 . S
C4911 H4925 0.958 . S
C4911 H4926 0.961 . S
C4911 H4927 0.960 . S
H4912 C4896 0.931 . S
H4913 C4901 0.929 . S
H4914 C4902 0.960 . S
H4915 C4902 0.962 . S
H4916 C4902 0.960 . S
H4917 C4903 0.961 . S
H4918 C4903 0.961 . S
H4919 C4903 0.961 . S
H4920 C4904 0.931 . S
H4921 C4909 0.930 . S
H4922 C4910 0.956 . S
H4923 C4910 0.961 . S
H4924 C4910 0.961 . S
H4925 C4911 0.958 . S
H4926 C4911 0.961 . S
H4927 C4911 0.960 . S
C4928 C4929 1.391 . S
C4928 C4930 1.394 . S
C4928 H4944 0.931 . S
C4929 C4928 1.391 . S
C4929 C4933 1.376 . S
C4930 C4928 1.394 . S
C4930 C4931 1.369 . S
C4930 C4934 1.531 . S
C4931 C4930 1.369 . S
C4931 C4932 1.410 . S
C4931 C4939 1.503 . S
C4932 C4931 1.410 . S
C4932 C4933 1.392 . S
C4932 C4935 1.511 . S
C4933 C4929 1.376 . S
C4933 C4932 1.392 . S
C4933 H4945 0.929 . S
C4934 C4930 1.531 . S
C4934 H4946 0.960 . S
C4934 H4947 0.962 . S
C4934 H4948 0.960 . S
C4935 C4932 1.511 . S
C4935 H4949 0.961 . S
C4935 H4950 0.961 . S
C4935 H4951 0.961 . S
C4936 C4937 1.370 . S
C4936 C4938 1.363 . S
C4936 H4952 0.931 . S
C4937 C4936 1.370 . S
C4937 C4941 1.408 . S
C4938 C4936 1.363 . S
C4938 C4939 1.370 . S
C4938 C4942 1.524 . S
C4939 C4931 1.503 . S
C4939 C4938 1.370 . S
C4939 C4940 1.403 . S
C4940 C4939 1.403 . S
C4940 C4941 1.404 . S
C4940 C4943 1.539 . S
C4941 C4937 1.408 . S
C4941 C4940 1.404 . S
C4941 H4953 0.930 . S
C4942 C4938 1.524 . S
C4942 H4954 0.956 . S
C4942 H4955 0.961 . S
C4942 H4956 0.961 . S
C4943 C4940 1.539 . S
C4943 H4957 0.958 . S
C4943 H4958 0.961 . S
C4943 H4959 0.960 . S
H4944 C4928 0.931 . S
H4945 C4933 0.929 . S
H4946 C4934 0.960 . S
H4947 C4934 0.962 . S
H4948 C4934 0.960 . S
H4949 C4935 0.961 . S
H4950 C4935 0.961 . S
H4951 C4935 0.961 . S
H4952 C4936 0.931 . S
H4953 C4941 0.930 . S
H4954 C4942 0.956 . S
H4955 C4942 0.961 . S
H4956 C4942 0.961 . S
H4957 C4943 0.958 . S
H4958 C4943 0.961 . S
H4959 C4943 0.960 . S
C4960 C4961 1.391 . S
C4960 C4962 1.394 . S
C4960 H4976 0.931 . S
C4961 C4960 1.391 . S
C4961 C4965 1.376 . S
C4962 C4960 1.394 . S
C4962 C4963 1.369 . S
C4962 C4966 1.531 . S
C4963 C4962 1.369 . S
C4963 C4964 1.410 . S
C4963 C4971 1.503 . S
C4964 C4963 1.410 . S
C4964 C4965 1.392 . S
C4964 C4967 1.511 . S
C4965 C4961 1.376 . S
C4965 C4964 1.392 . S
C4965 H4977 0.929 . S
C4966 C4962 1.531 . S
C4966 H4978 0.960 . S
C4966 H4979 0.962 . S
C4966 H4980 0.960 . S
C4967 C4964 1.511 . S
C4967 H4981 0.961 . S
C4967 H4982 0.961 . S
C4967 H4983 0.961 . S
C4968 C4969 1.370 . S
C4968 C4970 1.363 . S
C4968 H4984 0.931 . S
C4969 C4968 1.370 . S
C4969 C4973 1.408 . S
C4970 C4968 1.363 . S
C4970 C4971 1.370 . S
C4970 C4974 1.524 . S
C4971 C4963 1.503 . S
C4971 C4970 1.370 . S
C4971 C4972 1.403 . S
C4972 C4971 1.403 . S
C4972 C4973 1.404 . S
C4972 C4975 1.539 . S
C4973 C4969 1.408 . S
C4973 C4972 1.404 . S
C4973 H4985 0.930 . S
C4974 C4970 1.524 . S
C4974 H4986 0.956 . S
C4974 H4987 0.961 . S
C4974 H4988 0.961 . S
C4975 C4972 1.539 . S
C4975 H4989 0.958 . S
C4975 H4990 0.974 . S
C4975 H4991 0.960 . S
H4976 C4960 0.931 . S
H4977 C4965 0.929 . S
H4978 C4966 0.960 . S
H4979 C4966 0.962 . S
H4980 C4966 0.960 . S
H4981 C4967 0.961 . S
H4982 C4967 0.961 . S
H4983 C4967 0.961 . S
H4984 C4968 0.931 . S
H4985 C4973 0.930 . S
H4986 C4974 0.956 . S
H4987 C4974 0.961 . S
H4988 C4974 0.961 . S
H4989 C4975 0.958 . S
H4990 C4975 0.974 . S
H4991 C4975 0.960 . S
C4992 C4993 1.391 . S
C4992 C4994 1.394 . S
C4992 H5008 0.931 . S
C4993 C4992 1.391 . S
C4993 C4997 1.376 . S
C4994 C4992 1.394 . S
C4994 C4995 1.369 . S
C4994 C4998 1.531 . S
C4995 C4994 1.369 . S
C4995 C4996 1.410 . S
C4995 C5003 1.503 . S
C4996 C4995 1.410 . S
C4996 C4997 1.392 . S
C4996 C4999 1.511 . S
C4997 C4993 1.376 . S
C4997 C4996 1.392 . S
C4997 H5009 0.929 . S
C4998 C4994 1.531 . S
C4998 H5010 0.960 . S
C4998 H5011 0.962 . S
C4998 H5012 0.960 . S
C4999 C4996 1.511 . S
C4999 H5013 0.961 . S
C4999 H5014 0.961 . S
C4999 H5015 0.961 . S
C5000 C5001 1.370 . S
C5000 C5002 1.363 . S
C5000 H5016 0.931 . S
C5001 C5000 1.370 . S
C5001 C5005 1.408 . S
C5002 C5000 1.363 . S
C5002 C5003 1.370 . S
C5002 C5006 1.524 . S
C5003 C4995 1.503 . S
C5003 C5002 1.370 . S
C5003 C5004 1.403 . S
C5004 C5003 1.403 . S
C5004 C5005 1.404 . S
C5004 C5007 1.539 . S
C5005 C5001 1.408 . S
C5005 C5004 1.404 . S
C5005 H5017 0.930 . S
C5006 C5002 1.524 . S
C5006 H5018 0.956 . S
C5006 H5019 0.961 . S
C5006 H5020 0.961 . S
C5007 C5004 1.539 . S
C5007 H5021 0.958 . S
C5007 H5022 0.961 . S
C5007 H5023 0.960 . S
H5008 C4992 0.931 . S
H5009 C4997 0.929 . S
H5010 C4998 0.960 . S
H5011 C4998 0.962 . S
H5012 C4998 0.960 . S
H5013 C4999 0.961 . S
H5014 C4999 0.961 . S
H5015 C4999 0.961 . S
H5016 C5000 0.931 . S
H5017 C5005 0.930 . S
H5018 C5006 0.956 . S
H5019 C5006 0.961 . S
H5020 C5006 0.961 . S
H5021 C5007 0.958 . S
H5022 C5007 0.961 . S
H5023 C5007 0.960 . S
C5024 C5025 1.391 . S
C5024 C5026 1.394 . S
C5024 H5040 0.931 . S
C5025 C5024 1.391 . S
C5025 C5029 1.376 . S
C5026 C5024 1.394 . S
C5026 C5027 1.369 . S
C5026 C5030 1.531 . S
C5027 C5026 1.369 . S
C5027 C5028 1.410 . S
C5027 C5035 1.503 . S
C5028 C5027 1.410 . S
C5028 C5029 1.392 . S
C5028 C5031 1.511 . S
C5029 C5025 1.376 . S
C5029 C5028 1.392 . S
C5029 H5041 0.929 . S
C5030 C5026 1.531 . S
C5030 H5042 0.960 . S
C5030 H5043 0.962 . S
C5030 H5044 0.960 . S
C5031 C5028 1.511 . S
C5031 H5045 0.961 . S
C5031 H5046 0.961 . S
C5031 H5047 0.961 . S
C5032 C5033 1.370 . S
C5032 C5034 1.363 . S
C5032 H5048 0.931 . S
C5033 C5032 1.370 . S
C5033 C5037 1.408 . S
C5034 C5032 1.363 . S
C5034 C5035 1.370 . S
C5034 C5038 1.524 . S
C5035 C5027 1.503 . S
C5035 C5034 1.370 . S
C5035 C5036 1.403 . S
C5036 C5035 1.403 . S
C5036 C5037 1.404 . S
C5036 C5039 1.539 . S
C5037 C5033 1.408 . S
C5037 C5036 1.404 . S
C5037 H5049 0.930 . S
C5038 C5034 1.524 . S
C5038 H5050 0.956 . S
C5038 H5051 0.961 . S
C5038 H5052 0.961 . S
C5039 C5036 1.539 . S
C5039 H5053 0.958 . S
C5039 H5054 0.961 . S
C5039 H5055 0.960 . S
H5040 C5024 0.931 . S
H5041 C5029 0.929 . S
H5042 C5030 0.960 . S
H5043 C5030 0.962 . S
H5044 C5030 0.960 . S
H5045 C5031 0.961 . S
H5046 C5031 0.961 . S
H5047 C5031 0.961 . S
H5048 C5032 0.931 . S
H5049 C5037 0.930 . S
H5050 C5038 0.956 . S
H5051 C5038 0.961 . S
H5052 C5038 0.961 . S
H5053 C5039 0.958 . S
H5054 C5039 0.961 . S
H5055 C5039 0.960 . S
C5056 C5057 1.391 . S
C5056 C5058 1.394 . S
C5056 H5072 0.931 . S
C5057 C5056 1.391 . S
C5057 C5061 1.376 . S
C5058 C5056 1.394 . S
C5058 C5059 1.369 . S
C5058 C5062 1.531 . S
C5059 C5058 1.369 . S
C5059 C5060 1.410 . S
C5059 C5067 1.503 . S
C5060 C5059 1.410 . S
C5060 C5061 1.392 . S
C5060 C5063 1.511 . S
C5061 C5057 1.376 . S
C5061 C5060 1.392 . S
C5061 H5073 0.929 . S
C5062 C5058 1.531 . S
C5062 H5074 0.960 . S
C5062 H5075 0.962 . S
C5062 H5076 0.960 . S
C5063 C5060 1.511 . S
C5063 H5077 0.961 . S
C5063 H5078 0.961 . S
C5063 H5079 0.961 . S
C5064 C5065 1.370 . S
C5064 C5066 1.363 . S
C5064 H5080 0.899 1_565 S
C5065 C5064 1.370 . S
C5065 C5069 1.408 . S
C5066 C5064 1.363 . S
C5066 C5067 1.370 . S
C5066 C5070 1.524 . S
C5067 C5059 1.503 . S
C5067 C5066 1.370 . S
C5067 C5068 1.403 . S
C5068 C5067 1.403 . S
C5068 C5069 1.404 . S
C5068 C5071 1.539 . S
C5069 C5065 1.408 . S
C5069 C5068 1.404 . S
C5069 H5081 0.930 . S
C5070 C5066 1.524 . S
C5070 H5082 0.956 . S
C5070 H5083 0.961 . S
C5070 H5084 0.961 . S
C5071 C5068 1.539 . S
C5071 H5085 0.958 . S
C5071 H5086 0.961 . S
C5071 H5087 0.960 . S
H5072 C5056 0.931 . S
H5073 C5061 0.929 . S
H5074 C5062 0.960 . S
H5075 C5062 0.962 . S
H5076 C5062 0.960 . S
H5077 C5063 0.961 . S
H5078 C5063 0.961 . S
H5079 C5063 0.961 . S
H5080 C5064 0.899 1_545 S
H5081 C5069 0.930 . S
H5082 C5070 0.956 . S
H5083 C5070 0.961 . S
H5084 C5070 0.961 . S
H5085 C5071 0.958 . S
H5086 C5071 0.961 . S
H5087 C5071 0.960 . S
C5088 C5089 1.391 . S
C5088 C5090 1.394 . S
C5088 H5104 0.931 . S
C5089 C5088 1.391 . S
C5089 C5093 1.376 . S
C5090 C5088 1.394 . S
C5090 C5091 1.369 . S
C5090 C5094 1.531 . S
C5091 C5090 1.369 . S
C5091 C5092 1.410 . S
C5091 C5099 1.503 . S
C5092 C5091 1.410 . S
C5092 C5093 1.392 . S
C5092 C5095 1.511 . S
C5093 C5089 1.376 . S
C5093 C5092 1.392 . S
C5093 H5105 0.929 . S
C5094 C5090 1.531 . S
C5094 H5106 0.960 . S
C5094 H5107 0.962 . S
C5094 H5108 0.960 . S
C5095 C5092 1.511 . S
C5095 H5109 0.961 . S
C5095 H5110 0.961 . S
C5095 H5111 0.961 . S
C5096 C5097 1.370 . S
C5096 C5098 1.363 . S
C5096 H5112 0.931 . S
C5097 C5096 1.370 . S
C5097 C5101 1.408 . S
C5098 C5096 1.363 . S
C5098 C5099 1.370 . S
C5098 C5102 1.524 . S
C5099 C5091 1.503 . S
C5099 C5098 1.370 . S
C5099 C5100 1.403 . S
C5100 C5099 1.403 . S
C5100 C5101 1.404 . S
C5100 C5103 1.539 . S
C5101 C5097 1.408 . S
C5101 C5100 1.404 . S
C5101 H5113 0.930 . S
C5102 C5098 1.524 . S
C5102 H5114 0.956 . S
C5102 H5115 0.961 . S
C5102 H5116 0.961 . S
C5103 C5100 1.539 . S
C5103 H5117 0.958 . S
C5103 H5118 0.961 . S
C5103 H5119 0.960 . S
H5104 C5088 0.931 . S
H5105 C5093 0.929 . S
H5106 C5094 0.960 . S
H5107 C5094 0.962 . S
H5108 C5094 0.960 . S
H5109 C5095 0.961 . S
H5110 C5095 0.961 . S
H5111 C5095 0.961 . S
H5112 C5096 0.931 . S
H5113 C5101 0.930 . S
H5114 C5102 0.956 . S
H5115 C5102 0.961 . S
H5116 C5102 0.961 . S
H5117 C5103 0.958 . S
H5118 C5103 0.961 . S
H5119 C5103 0.960 . S
C5120 C5121 1.391 . S
C5120 C5122 1.394 . S
C5120 H5136 0.931 . S
C5121 C5120 1.391 . S
C5121 C5125 1.376 . S
C5122 C5120 1.394 . S
C5122 C5123 1.369 . S
C5122 C5126 1.531 . S
C5123 C5122 1.369 . S
C5123 C5124 1.410 . S
C5123 C5131 1.503 . S
C5124 C5123 1.410 . S
C5124 C5125 1.392 . S
C5124 C5127 1.511 . S
C5125 C5121 1.376 . S
C5125 C5124 1.392 . S
C5125 H5137 0.929 . S
C5126 C5122 1.531 . S
C5126 H5138 0.960 . S
C5126 H5139 0.962 . S
C5126 H5140 0.960 . S
C5127 C5124 1.511 . S
C5127 H5141 0.961 . S
C5127 H5142 0.961 . S
C5127 H5143 0.961 . S
C5128 C5129 1.370 . S
C5128 C5130 1.363 . S
C5128 H5144 0.931 . S
C5129 C5128 1.370 . S
C5129 C5133 1.408 . S
C5130 C5128 1.363 . S
C5130 C5131 1.370 . S
C5130 C5134 1.524 . S
C5131 C5123 1.503 . S
C5131 C5130 1.370 . S
C5131 C5132 1.403 . S
C5132 C5131 1.403 . S
C5132 C5133 1.404 . S
C5132 C5135 1.539 1_554 S
C5133 C5129 1.408 . S
C5133 C5132 1.404 . S
C5133 H5145 0.931 . S
C5134 C5130 1.524 . S
C5134 H5146 0.956 . S
C5134 H5147 0.961 . S
C5134 H5148 0.961 . S
C5135 C5132 1.539 1_556 S
C5135 H5149 0.958 . S
C5135 H5150 0.961 . S
C5135 H5151 0.960 . S
H5136 C5120 0.931 . S
H5137 C5125 0.929 . S
H5138 C5126 0.960 . S
H5139 C5126 0.962 . S
H5140 C5126 0.960 . S
H5141 C5127 0.961 . S
H5142 C5127 0.961 . S
H5143 C5127 0.961 . S
H5144 C5128 0.931 . S
H5145 C5133 0.931 . S
H5146 C5134 0.956 . S
H5147 C5134 0.961 . S
H5148 C5134 0.961 . S
H5149 C5135 0.958 . S
H5150 C5135 0.961 . S
H5151 C5135 0.960 . S
C5152 C5153 1.391 . S
C5152 C5154 1.394 . S
C5152 H5168 0.931 . S
C5153 C5152 1.391 . S
C5153 C5157 1.376 . S
C5154 C5152 1.394 . S
C5154 C5155 1.369 . S
C5154 C5158 1.531 . S
C5155 C5154 1.369 . S
C5155 C5156 1.410 . S
C5155 C5163 1.503 . S
C5156 C5155 1.410 . S
C5156 C5157 1.392 . S
C5156 C5159 1.511 . S
C5157 C5153 1.376 . S
C5157 C5156 1.392 . S
C5157 H5169 0.929 . S
C5158 C5154 1.531 . S
C5158 H5170 0.960 . S
C5158 H5171 0.962 . S
C5158 H5172 0.960 . S
C5159 C5156 1.511 . S
C5159 H5173 0.961 . S
C5159 H5174 0.961 . S
C5159 H5175 0.961 . S
C5160 C5161 1.370 . S
C5160 C5162 1.363 . S
C5160 H5176 0.931 . S
C5161 C5160 1.370 . S
C5161 C5165 1.408 . S
C5162 C5160 1.363 . S
C5162 C5163 1.370 . S
C5162 C5166 1.524 . S
C5163 C5155 1.503 . S
C5163 C5162 1.370 . S
C5163 C5164 1.403 . S
C5164 C5163 1.403 . S
C5164 C5165 1.404 . S
C5164 C5167 1.539 . S
C5165 C5161 1.408 . S
C5165 C5164 1.404 . S
C5165 H5177 0.930 . S
C5166 C5162 1.524 . S
C5166 H5178 0.956 . S
C5166 H5179 0.961 . S
C5166 H5180 0.961 . S
C5167 C5164 1.539 . S
C5167 H5181 0.958 . S
C5167 H5182 0.961 . S
C5167 H5183 0.960 . S
H5168 C5152 0.931 . S
H5169 C5157 0.929 . S
H5170 C5158 0.960 . S
H5171 C5158 0.962 . S
H5172 C5158 0.960 . S
H5173 C5159 0.961 . S
H5174 C5159 0.961 . S
H5175 C5159 0.961 . S
H5176 C5160 0.931 . S
H5177 C5165 0.930 . S
H5178 C5166 0.956 . S
H5179 C5166 0.961 . S
H5180 C5166 0.961 . S
H5181 C5167 0.958 . S
H5182 C5167 0.961 . S
H5183 C5167 0.960 . S
C5184 C5185 1.391 . S
C5184 C5186 1.394 . S
C5184 H5200 0.931 . S
C5185 C5184 1.391 . S
C5185 C5189 1.376 . S
C5186 C5184 1.394 . S
C5186 C5187 1.369 . S
C5186 C5190 1.531 1_554 S
C5187 C5186 1.369 . S
C5187 C5188 1.410 . S
C5187 C5195 1.503 . S
C5188 C5187 1.410 . S
C5188 C5189 1.392 . S
C5188 C5191 1.511 . S
C5189 C5185 1.376 . S
C5189 C5188 1.392 . S
C5189 H5201 0.929 . S
C5190 C5186 1.531 1_556 S
C5190 H5202 0.960 . S
C5190 H5203 0.962 . S
C5190 H5204 0.960 . S
C5191 C5188 1.511 . S
C5191 H5205 0.961 . S
C5191 H5206 0.961 . S
C5191 H5207 0.961 . S
C5192 C5193 1.370 . S
C5192 C5194 1.363 . S
C5192 H5208 0.931 . S
C5193 C5192 1.370 . S
C5193 C5197 1.408 . S
C5194 C5192 1.363 . S
C5194 C5195 1.370 . S
C5194 C5198 1.524 . S
C5195 C5187 1.503 . S
C5195 C5194 1.370 . S
C5195 C5196 1.403 . S
C5196 C5195 1.403 . S
C5196 C5197 1.404 . S
C5196 C5199 1.539 . S
C5197 C5193 1.408 . S
C5197 C5196 1.404 . S
C5197 H5209 0.930 . S
C5198 C5194 1.524 . S
C5198 H5210 0.956 . S
C5198 H5211 0.961 . S
C5198 H5212 0.961 . S
C5199 C5196 1.539 . S
C5199 H5213 0.958 1_554 S
C5199 H5214 0.961 . S
C5199 H5215 0.960 . S
H5200 C5184 0.931 . S
H5201 C5189 0.929 . S
H5202 C5190 0.960 . S
H5203 C5190 0.962 . S
H5204 C5190 0.960 . S
H5205 C5191 0.961 . S
H5206 C5191 0.961 . S
H5207 C5191 0.961 . S
H5208 C5192 0.931 . S
H5209 C5197 0.930 . S
H5210 C5198 0.956 . S
H5211 C5198 0.961 . S
H5212 C5198 0.961 . S
H5213 C5199 0.958 1_556 S
H5214 C5199 0.961 . S
H5215 C5199 0.960 . S
C5216 C5217 1.391 . S
C5216 C5218 1.394 . S
C5216 H5232 0.931 . S
C5217 C5216 1.391 . S
C5217 C5221 1.376 . S
C5218 C5216 1.394 . S
C5218 C5219 1.369 . S
C5218 C5222 1.531 . S
C5219 C5218 1.369 . S
C5219 C5220 1.410 . S
C5219 C5227 1.503 . S
C5220 C5219 1.410 . S
C5220 C5221 1.392 . S
C5220 C5223 1.511 . S
C5221 C5217 1.376 . S
C5221 C5220 1.392 . S
C5221 H5233 0.929 . S
C5222 C5218 1.531 . S
C5222 H5234 0.960 . S
C5222 H5235 0.962 . S
C5222 H5236 0.960 . S
C5223 C5220 1.511 . S
C5223 H5237 0.961 . S
C5223 H5238 0.961 . S
C5223 H5239 0.961 . S
C5224 C5225 1.370 . S
C5224 C5226 1.363 . S
C5224 H5240 0.931 . S
C5225 C5224 1.370 . S
C5225 C5229 1.408 . S
C5226 C5224 1.363 . S
C5226 C5227 1.370 . S
C5226 C5230 1.524 . S
C5227 C5219 1.503 . S
C5227 C5226 1.370 . S
C5227 C5228 1.403 . S
C5228 C5227 1.403 . S
C5228 C5229 1.404 . S
C5228 C5231 1.539 . S
C5229 C5225 1.408 . S
C5229 C5228 1.404 . S
C5229 H5241 0.930 . S
C5230 C5226 1.524 . S
C5230 H5242 0.956 . S
C5230 H5243 0.961 . S
C5230 H5244 0.961 . S
C5231 C5228 1.539 . S
C5231 H5245 0.958 . S
C5231 H5246 0.961 . S
C5231 H5247 0.960 . S
H5232 C5216 0.931 . S
H5233 C5221 0.929 . S
H5234 C5222 0.960 . S
H5235 C5222 0.962 . S
H5236 C5222 0.960 . S
H5237 C5223 0.961 . S
H5238 C5223 0.961 . S
H5239 C5223 0.961 . S
H5240 C5224 0.931 . S
H5241 C5229 0.930 . S
H5242 C5230 0.956 . S
H5243 C5230 0.961 . S
H5244 C5230 0.961 . S
H5245 C5231 0.958 . S
H5246 C5231 0.961 . S
H5247 C5231 0.960 . S
C5248 C5249 1.391 . S
C5248 C5250 1.394 . S
C5248 H5264 0.931 . S
C5249 C5248 1.391 . S
C5249 C5253 1.376 . S
C5250 C5248 1.394 . S
C5250 C5251 1.369 . S
C5250 C5254 1.531 . S
C5251 C5250 1.369 . S
C5251 C5252 1.410 . S
C5251 C5259 1.503 . S
C5252 C5251 1.410 . S
C5252 C5253 1.392 . S
C5252 C5255 1.511 . S
C5253 C5249 1.376 . S
C5253 C5252 1.392 . S
C5253 H5265 0.929 . S
C5254 C5250 1.531 . S
C5254 H5266 0.960 . S
C5254 H5267 0.962 . S
C5254 H5268 0.960 . S
C5255 C5252 1.511 . S
C5255 H5269 0.961 . S
C5255 H5270 0.961 . S
C5255 H5271 0.961 . S
C5256 C5257 1.370 . S
C5256 C5258 1.363 . S
C5256 H5272 0.931 . S
C5257 C5256 1.370 . S
C5257 C5261 1.408 . S
C5258 C5256 1.363 . S
C5258 C5259 1.370 . S
C5258 C5262 1.524 . S
C5259 C5251 1.503 . S
C5259 C5258 1.370 . S
C5259 C5260 1.403 . S
C5260 C5259 1.403 . S
C5260 C5261 1.404 . S
C5260 C5263 1.539 . S
C5261 C5257 1.408 . S
C5261 C5260 1.404 . S
C5261 H5273 0.930 . S
C5262 C5258 1.524 . S
C5262 H5274 0.956 . S
C5262 H5275 0.961 . S
C5262 H5276 0.961 . S
C5263 C5260 1.539 . S
C5263 H5277 0.958 . S
C5263 H5278 0.961 . S
C5263 H5279 0.960 . S
H5264 C5248 0.931 . S
H5265 C5253 0.929 . S
H5266 C5254 0.960 . S
H5267 C5254 0.962 . S
H5268 C5254 0.960 . S
H5269 C5255 0.961 . S
H5270 C5255 0.961 . S
H5271 C5255 0.961 . S
H5272 C5256 0.931 . S
H5273 C5261 0.930 . S
H5274 C5262 0.956 . S
H5275 C5262 0.961 . S
H5276 C5262 0.961 . S
H5277 C5263 0.958 . S
H5278 C5263 0.961 . S
H5279 C5263 0.960 . S
C2209 C255 2.048 1_455 S
C2217 C931 2.086 . S
C2241 C147 1.849 . S
C2249 C1004 1.868 . S
C2273 C184 1.776 . S
C2281 C1099 1.799 . S
C2313 C1174 1.377 . S
C2305 C220 1.496 . S
C2337 C40 1.469 . S
C2345 C1258 1.349 . S
C2377 C1351 1.903 . S
C2369 C74 1.827 . S
C2409 C1424 1.900 . S
C2401 C110 1.902 . S
C2433 C14 2.054 . S
C2441 C1519 2.055 . S
C2473 C920 1.722 . S
C2465 C579 1.744 . S
C2497 C616 0.936 . S
C2505 C1006 0.893 . S
C2537 C1088 1.181 . S
C2529 C687 1.205 . S
C2569 C1183 1.673 . S
C2561 C436 1.636 . S
C2593 C580 1.614 . S
C2601 C1267 1.648 . S
C2633 C1340 1.153 . S
C2625 C615 1.152 . S
C2665 C1426 0.910 . S
C2657 C688 0.942 . S
C2697 C1508 1.701 . S
C2689 C435 1.744 . S
C2729 C922 0.999 . S
C2721 C410 0.995 . S
C2753 C722 1.715 . S
C2761 C1592 1.710 . S
C2793 C1678 1.337 . S
C2785 C842 1.411 . S
C2825 C1771 0.851 . S
C2817 C794 0.875 . S
C2849 C302 1.049 . S
C2857 C1510 0.979 . S
C2881 C338 1.364 . S
C2889 C1090 1.335 . S
C2913 C830 1.740 . S
C2921 C1844 1.741 . S
C2953 C1939 0.918 . S
C2945 C758 0.886 . S
C2985 C919 2.064 . S
C2977 C158 1.915 . S
C3017 C1940 1.847 . S
C3009 C254 1.851 . S
C3041 C218 1.769 . S
C3049 C1087 1.820 . S
C3073 C194 1.403 . S
C3081 C1858 1.359 . S
C3113 C1270 1.373 . S
C3105 C3 1.453 . S
C3137 C111 1.716 . S
C3145 C1675 1.728 . S
C3177 C1436 1.849 1_556 S
C3169 C76 1.840 . S
C3209 C2011 2.120 . S
C3201 C50 1.986 . S
C3241 C932 1.679 . S
C3233 C364 1.706 . S
C3273 C1942 0.855 . S
C3265 C795 0.888 . S
C3297 C292 1.140 . S
C3305 C1100 1.121 . S
C3329 C723 1.601 . S
C3337 C1843 1.600 . S
C3361 C363 1.613 . S
C3369 C1255 1.617 . S
C3401 C1688 1.153 . S
C3393 C796 1.156 . S
C3425 C291 0.895 . S
C3433 C1438 0.901 . S
C3457 C724 1.725 . S
C3465 C2024 1.683 . S
C3489 C482 0.993 . S
C3497 C934 0.993 . S
C3521 C434 1.689 . S
C3529 C1604 1.687 . S
C3553 C662 1.292 . S
C3561 C1354 1.321 . S
C3585 C614 0.869 . S
C3593 C1759 0.842 . S
C3625 C2026 1.008 . S
C3617 C698 1.023 . S
C3649 C554 1.313 . S
C3657 C1102 1.336 . S
C3689 C1184 1.692 . S
C3681 C650 1.695 . S
C3721 C1003 0.845 . S
C3713 C506 0.854 . S
C3745 C183 2.070 . S
C3753 C2107 2.084 . S
C3785 C1928 1.863 . S
C3777 C219 1.850 . S
C3809 C256 1.766 . S
C3817 C2191 1.795 . S
C3841 C148 1.495 1_655 S
C3849 C1846 1.379 . S
C3873 C122 1.445 . S
C3881 C1594 1.406 . S
C3913 C1687 1.837 . S
C3905 C2 1.786 1_655 S
C3945 C1760 1.812 . S
C3937 C39 1.806 . S
C3977 C2023 2.122 . S
C3969 C86 2.118 . S
C4009 C2096 1.738 . S
C4001 C651 1.752 . S
C4033 C472 0.983 . S
C4041 C1930 0.923 . S
C4073 C2180 1.183 . S
C4065 C507 1.168 . S
C4105 C1855 1.675 . S
C4097 C544 1.674 . S
C4137 C1603 1.638 . S
C4129 C652 1.626 . S
C4161 C471 1.176 . S
C4169 C1676 1.154 . S
C4201 C1762 0.920 . S
C4193 C508 0.940 . S
C4225 C543 1.750 . S
C4233 C2012 1.726 . S
C4265 C2098 1.001 . S
C4257 C806 1.022 . S
C4289 C326 1.709 . S
C4297 C1256 1.698 . S
C4329 C1342 1.327 . S
C4321 C374 1.373 1_565 S
C4361 C1435 0.869 . S
C4353 C398 0.871 . S
C4393 C2014 1.006 . S
C4385 C770 1.019 . S
C4417 C734 1.383 . S
C4425 C2182 1.296 . S
C4457 C1172 1.731 . S
C4449 C362 1.738 . S
C4489 C1015 0.932 . S
C4481 C290 0.910 . S
C4513 C230 1.919 . S
C4521 C2095 2.063 . S
C4553 C1016 1.843 . S
C4545 C182 1.837 . S
C4577 C146 1.760 . S
C4585 C2179 1.821 . S
C4609 C266 1.432 . S
C4617 C1186 1.392 . S
C4641 C75 1.484 . S
C4649 C1606 1.405 . S
C4681 C1339 1.882 . S
C4673 C38 1.813 . S
C4705 C4 1.793 . S
C4713 C1772 1.793 . S
C4737 C112 1.993 . S
C4745 C1507 2.027 . S
C4777 C2108 1.661 . S
C4769 C832 1.720 . S
C4801 C399 0.936 . S
C4809 C1018 0.875 . S
C4841 C2192 1.140 1_655 S
C4833 C760 1.148 . S
C4865 C327 1.598 . S
C4873 C1171 1.599 . S
C4897 C831 1.641 . S
C4905 C1591 1.639 . S
C4937 C1352 1.146 . S
C4929 C400 1.176 . S
C4961 C759 0.900 . S
C4969 C1774 0.899 . S
C5001 C1520 1.687 . S
C4993 C328 1.723 . S
C5033 C2110 1.001 . S
C5025 C626 0.995 . S
C5065 C1268 1.695 1_565 S
C5057 C542 1.700 . S
C5089 C590 1.288 . S
C5097 C1690 1.295 . S
C5129 C1423 0.849 . S
C5121 C470 0.847 . S
C5153 C518 1.016 . S
C5161 C1522 0.992 . S
C5185 C446 1.332 . S
C5193 C2194 1.317 . S
C5225 C1856 1.694 . S
C5217 C578 1.705 . S
C5257 C1927 0.827 . S
C5249 C686 0.807 . S
