# Generated by pormake.
# Topology ocu, (6,8)-cn, num edge types: 1
# Building blocks:
#     Node 0, Type 0, BuildingBlock: HISSIN_clean_sbu_0, # of connection points: 6
#     Node 1, Type 0, BuildingBlock: HISSIN_clean_sbu_0, # of connection points: 6
#     Node 2, Type 0, BuildingBlock: HISSIN_clean_sbu_0, # of connection points: 6
#     Node 3, Type 0, BuildingBlock: HISSIN_clean_sbu_0, # of connection points: 6
#     Node 4, Type 0, BuildingBlock: HISSIN_clean_sbu_0, # of connection points: 6
#     Node 5, Type 0, BuildingBlock: HISSIN_clean_sbu_0, # of connection points: 6
#     Node 6, Type 0, BuildingBlock: HISSIN_clean_sbu_0, # of connection points: 6
#     Node 7, Type 0, BuildingBlock: HISSIN_clean_sbu_0, # of connection points: 6
#     Node 8, Type 1, BuildingBlock: GIZVER_clean_sbu_0, # of connection points: 8
#     Node 9, Type 1, BuildingBlock: GIZVER_clean_sbu_0, # of connection points: 8
#     Node 10, Type 1, BuildingBlock: GIZVER_clean_sbu_0, # of connection points: 8
#     Node 11, Type 1, BuildingBlock: GIZVER_clean_sbu_0, # of connection points: 8
#     Node 12, Type 1, BuildingBlock: GIZVER_clean_sbu_0, # of connection points: 8
#     Node 13, Type 1, BuildingBlock: GIZVER_clean_sbu_0, # of connection points: 8
#     Edge 14, Type (0, 1), BuildingBlock: ZUJKAS_clean_linker_0, # of connection points: 2
#     Edge 15, Type (0, 1), BuildingBlock: ZUJKAS_clean_linker_0, # of connection points: 2
#     Edge 16, Type (0, 1), BuildingBlock: ZUJKAS_clean_linker_0, # of connection points: 2
#     Edge 17, Type (0, 1), BuildingBlock: ZUJKAS_clean_linker_0, # of connection points: 2
#     Edge 18, Type (0, 1), BuildingBlock: ZUJKAS_clean_linker_0, # of connection points: 2
#     Edge 19, Type (0, 1), BuildingBlock: ZUJKAS_clean_linker_0, # of connection points: 2
#     Edge 20, Type (0, 1), BuildingBlock: ZUJKAS_clean_linker_0, # of connection points: 2
#     Edge 21, Type (0, 1), BuildingBlock: ZUJKAS_clean_linker_0, # of connection points: 2
#     Edge 22, Type (0, 1), BuildingBlock: ZUJKAS_clean_linker_0, # of connection points: 2
#     Edge 23, Type (0, 1), BuildingBlock: ZUJKAS_clean_linker_0, # of connection points: 2
#     Edge 24, Type (0, 1), BuildingBlock: ZUJKAS_clean_linker_0, # of connection points: 2
#     Edge 25, Type (0, 1), BuildingBlock: ZUJKAS_clean_linker_0, # of connection points: 2
#     Edge 26, Type (0, 1), BuildingBlock: ZUJKAS_clean_linker_0, # of connection points: 2
#     Edge 27, Type (0, 1), BuildingBlock: ZUJKAS_clean_linker_0, # of connection points: 2
#     Edge 28, Type (0, 1), BuildingBlock: ZUJKAS_clean_linker_0, # of connection points: 2
#     Edge 29, Type (0, 1), BuildingBlock: ZUJKAS_clean_linker_0, # of connection points: 2
#     Edge 30, Type (0, 1), BuildingBlock: ZUJKAS_clean_linker_0, # of connection points: 2
#     Edge 31, Type (0, 1), BuildingBlock: ZUJKAS_clean_linker_0, # of connection points: 2
#     Edge 32, Type (0, 1), BuildingBlock: ZUJKAS_clean_linker_0, # of connection points: 2
#     Edge 33, Type (0, 1), BuildingBlock: ZUJKAS_clean_linker_0, # of connection points: 2
#     Edge 34, Type (0, 1), BuildingBlock: ZUJKAS_clean_linker_0, # of connection points: 2
#     Edge 35, Type (0, 1), BuildingBlock: ZUJKAS_clean_linker_0, # of connection points: 2
#     Edge 36, Type (0, 1), BuildingBlock: ZUJKAS_clean_linker_0, # of connection points: 2
#     Edge 37, Type (0, 1), BuildingBlock: ZUJKAS_clean_linker_0, # of connection points: 2
#     Edge 38, Type (0, 1), BuildingBlock: ZUJKAS_clean_linker_0, # of connection points: 2
#     Edge 39, Type (0, 1), BuildingBlock: ZUJKAS_clean_linker_0, # of connection points: 2
#     Edge 40, Type (0, 1), BuildingBlock: ZUJKAS_clean_linker_0, # of connection points: 2
#     Edge 41, Type (0, 1), BuildingBlock: ZUJKAS_clean_linker_0, # of connection points: 2
#     Edge 42, Type (0, 1), BuildingBlock: ZUJKAS_clean_linker_0, # of connection points: 2
#     Edge 43, Type (0, 1), BuildingBlock: ZUJKAS_clean_linker_0, # of connection points: 2
#     Edge 44, Type (0, 1), BuildingBlock: ZUJKAS_clean_linker_0, # of connection points: 2
#     Edge 45, Type (0, 1), BuildingBlock: ZUJKAS_clean_linker_0, # of connection points: 2
#     Edge 46, Type (0, 1), BuildingBlock: ZUJKAS_clean_linker_0, # of connection points: 2
#     Edge 47, Type (0, 1), BuildingBlock: ZUJKAS_clean_linker_0, # of connection points: 2
#     Edge 48, Type (0, 1), BuildingBlock: ZUJKAS_clean_linker_0, # of connection points: 2
#     Edge 49, Type (0, 1), BuildingBlock: ZUJKAS_clean_linker_0, # of connection points: 2
#     Edge 50, Type (0, 1), BuildingBlock: ZUJKAS_clean_linker_0, # of connection points: 2
#     Edge 51, Type (0, 1), BuildingBlock: ZUJKAS_clean_linker_0, # of connection points: 2
#     Edge 52, Type (0, 1), BuildingBlock: ZUJKAS_clean_linker_0, # of connection points: 2
#     Edge 53, Type (0, 1), BuildingBlock: ZUJKAS_clean_linker_0, # of connection points: 2
#     Edge 54, Type (0, 1), BuildingBlock: ZUJKAS_clean_linker_0, # of connection points: 2
#     Edge 55, Type (0, 1), BuildingBlock: ZUJKAS_clean_linker_0, # of connection points: 2
#     Edge 56, Type (0, 1), BuildingBlock: ZUJKAS_clean_linker_0, # of connection points: 2
#     Edge 57, Type (0, 1), BuildingBlock: ZUJKAS_clean_linker_0, # of connection points: 2
#     Edge 58, Type (0, 1), BuildingBlock: ZUJKAS_clean_linker_0, # of connection points: 2
#     Edge 59, Type (0, 1), BuildingBlock: ZUJKAS_clean_linker_0, # of connection points: 2
#     Edge 60, Type (0, 1), BuildingBlock: ZUJKAS_clean_linker_0, # of connection points: 2
#     Edge 61, Type (0, 1), BuildingBlock: ZUJKAS_clean_linker_0, # of connection points: 2
# Relax obj value: 0.147
# Max RMSD: 0.252
# Mean RMSD: 0.166
data_MOF--net-ocu--node1-HISSIN_clean_sbu_0--node2-GIZVER_clean_sbu_0--edge1-ZUJKAS_clean_linker_0
_symmetry_space_group_name_H-M    P1
_symmetry_Int_Tables_number       1
_symmetry_cell_setting            triclinic
loop_
_symmetry_equiv_pos_as_xyz
'x, y, z'
_cell_length_a     55.381421
_cell_length_b     57.891979
_cell_length_c     41.075553
_cell_angle_alpha  100.9294
_cell_angle_beta   81.206833
_cell_angle_gamma 108.31358
loop_
_atom_site_label
_atom_site_type_symbol
_atom_site_fract_x
_atom_site_fract_y
_atom_site_fract_z
_atom_type_partial_charge
Eu0 Eu 0.2919 0.26847 0.28913 0.0
Eu1 Eu 0.25696 0.25621 0.22485 0.0
C2 C 0.24093 0.22187 0.28152 0.0
C3 C 0.33185 0.25558 0.34751 0.0
C4 C 0.32307 0.2299 0.33848 0.0
C5 C 0.36595 0.25064 0.37404 0.0
C6 C 0.33559 0.21471 0.34731 0.0
C7 C 0.35336 0.26578 0.36534 0.0
C8 C 0.35729 0.22488 0.36511 0.0
C9 C 0.31938 0.27193 0.33751 0.0
O10 O 0.2404 0.28178 0.26528 0.0
O11 O 0.26888 0.296 0.30523 0.0
C12 C 0.24834 0.2964 0.29287 0.0
O13 O 0.31193 0.30001 0.26057 0.0
O14 O 0.21863 0.24508 0.20859 0.0
O15 O 0.2518 0.2553 0.17294 0.0
O16 O 0.28916 0.28985 0.21469 0.0
C17 C 0.30805 0.3041 0.23166 0.0
O18 O 0.30675 0.24046 0.25112 0.0
O19 O 0.28364 0.23231 0.20584 0.0
O20 O 0.24282 0.22227 0.24946 0.0
O21 O 0.32888 0.2802 0.3095 0.0
O22 O 0.29447 0.26507 0.34052 0.0
O23 O 0.25464 0.24006 0.3015 0.0
C24 C 0.21493 0.26636 0.1666 0.0
C25 C 0.22952 0.28877 0.15588 0.0
C26 C 0.17641 0.27397 0.15525 0.0
C27 C 0.21767 0.3035 0.1447 0.0
C28 C 0.18828 0.25918 0.16624 0.0
C29 C 0.19094 0.29628 0.14414 0.0
C30 C 0.22699 0.25048 0.17868 0.0
C31 C 0.30165 0.22916 0.22077 0.0
H32 H 0.30665 0.22161 0.32438 0.0
H33 H 0.38236 0.25912 0.3881 0.0
H34 H 0.32855 0.19501 0.33966 0.0
H35 H 0.3605 0.28554 0.37244 0.0
H36 H 0.25011 0.29493 0.15602 0.0
H37 H 0.15578 0.26798 0.15576 0.0
H38 H 0.22956 0.32037 0.13598 0.0
H39 H 0.17658 0.2421 0.17462 0.0
Eu40 Eu 0.79607 0.24969 0.26589 0.0
Eu41 Eu 0.75322 0.27934 0.26492 0.0
C42 C 0.7911 0.29384 0.32203 0.0
C43 C 0.83691 0.21465 0.2909 0.0
C44 C 0.84331 0.22485 0.32353 0.0
C45 C 0.84451 0.1769 0.2979 0.0
C46 C 0.85083 0.21133 0.34284 0.0
C47 C 0.8371 0.1904 0.2786 0.0
C48 C 0.85214 0.18744 0.32983 0.0
C49 C 0.83136 0.22925 0.2687 0.0
O50 O 0.78487 0.29765 0.22888 0.0
O51 O 0.81606 0.28085 0.23602 0.0
C52 C 0.80846 0.29649 0.22361 0.0
O53 O 0.76825 0.22548 0.23021 0.0
O54 O 0.73938 0.31166 0.27505 0.0
O55 O 0.71449 0.27599 0.25581 0.0
O56 O 0.75472 0.25519 0.21565 0.0
C57 C 0.75547 0.23247 0.21157 0.0
O58 O 0.76365 0.22992 0.29946 0.0
O59 O 0.73387 0.24998 0.2978 0.0
O60 O 0.7798 0.30219 0.30305 0.0
O61 O 0.81185 0.2186 0.25138 0.0
O62 O 0.83314 0.25225 0.28029 0.0
O63 O 0.79179 0.27109 0.31642 0.0
C64 C 0.71058 0.31103 0.23793 0.0
C65 C 0.71063 0.30078 0.204 0.0
C66 C 0.69694 0.34412 0.2259 0.0
C67 C 0.70362 0.31208 0.18122 0.0
C68 C 0.70376 0.33276 0.24861 0.0
C69 C 0.69676 0.33392 0.19199 0.0
C70 C 0.71781 0.29967 0.26258 0.0
C71 C 0.74083 0.23284 0.30765 0.0
H72 H 0.84323 0.2435 0.33384 0.0
H73 H 0.84491 0.15836 0.28746 0.0
H74 H 0.85672 0.21997 0.3673 0.0
H75 H 0.83213 0.18208 0.25365 0.0
H76 H 0.71605 0.28407 0.19512 0.0
H77 H 0.69129 0.36067 0.23507 0.0
H78 H 0.70373 0.30389 0.15522 0.0
H79 H 0.7036 0.34091 0.27464 0.0
Eu80 Eu 0.77786 0.77566 0.22401 0.0
Eu81 Eu 0.77316 0.74815 0.28959 0.0
C82 C 0.73105 0.72818 0.23667 0.0
C83 C 0.76144 0.8071 0.16084 0.0
C84 C 0.73716 0.79248 0.15171 0.0
C85 C 0.752 0.84308 0.14983 0.0
C86 C 0.72057 0.80307 0.1416 0.0
C87 C 0.76866 0.83248 0.15968 0.0
C88 C 0.72777 0.82851 0.1406 0.0
C89 C 0.77916 0.79639 0.17228 0.0
O90 O 0.80103 0.73201 0.25356 0.0
O91 O 0.80012 0.7471 0.20582 0.0
C92 C 0.80759 0.73291 0.22153 0.0
O93 O 0.80712 0.80157 0.25713 0.0
O94 O 0.76076 0.71547 0.31431 0.0
O95 O 0.77927 0.75097 0.34162 0.0
O96 O 0.81295 0.77376 0.28574 0.0
C97 C 0.81997 0.79564 0.27689 0.0
O98 O 0.75022 0.79196 0.26016 0.0
O99 O 0.75075 0.77656 0.30778 0.0
O100 O 0.74391 0.7223 0.25646 0.0
O101 O 0.78994 0.80826 0.19914 0.0
O102 O 0.77194 0.7726 0.17184 0.0
O103 O 0.73806 0.75006 0.22785 0.0
C104 C 0.78948 0.71625 0.35164 0.0
C105 C 0.81608 0.7271 0.34735 0.0
C106 C 0.79652 0.68262 0.37271 0.0
C107 C 0.83274 0.71587 0.35588 0.0
C108 C 0.77988 0.69397 0.36442 0.0
C109 C 0.8232 0.69339 0.36856 0.0
C110 C 0.77168 0.72717 0.34111 0.0
C111 C 0.74347 0.79091 0.29213 0.0
H112 H 0.73087 0.77288 0.15251 0.0
H113 H 0.75827 0.86268 0.14893 0.0
H114 H 0.70195 0.79139 0.13495 0.0
H115 H 0.78724 0.84417 0.16652 0.0
H116 H 0.82404 0.74419 0.33717 0.0
H117 H 0.78841 0.66513 0.38178 0.0
H118 H 0.8531 0.72491 0.35271 0.0
H119 H 0.75945 0.68513 0.36752 0.0
Eu120 Eu 0.29105 0.75032 0.25421 0.0
Eu121 Eu 0.24894 0.77842 0.25862 0.0
C122 C 0.24736 0.73091 0.20679 0.0
C123 C 0.34716 0.73002 0.21934 0.0
C124 C 0.34009 0.71335 0.19045 0.0
C125 C 0.38725 0.75001 0.18881 0.0
C126 C 0.356 0.71537 0.16101 0.0
C127 C 0.37111 0.74811 0.21849 0.0
C128 C 0.37951 0.73398 0.15966 0.0
C129 C 0.32805 0.73102 0.2482 0.0
O130 O 0.23427 0.7544 0.29942 0.0
O131 O 0.2565 0.72629 0.2801 0.0
C132 C 0.23768 0.73283 0.29894 0.0
O133 O 0.28935 0.77273 0.30489 0.0
O134 O 0.22085 0.78463 0.2322 0.0
O135 O 0.22624 0.80252 0.2832 0.0
O136 O 0.28079 0.80409 0.28784 0.0
C137 C 0.29153 0.7962 0.3081 0.0
O138 O 0.31125 0.78465 0.23164 0.0
O139 O 0.27671 0.79089 0.21475 0.0
O140 O 0.23443 0.74016 0.23234 0.0
O141 O 0.3294 0.75303 0.26421 0.0
O142 O 0.30454 0.71796 0.24344 0.0
O143 O 0.27236 0.737 0.20576 0.0
C144 C 0.18457 0.78486 0.26925 0.0
C145 C 0.17743 0.76279 0.28265 0.0
C146 C 0.14334 0.79034 0.28955 0.0
C147 C 0.15424 0.75585 0.30226 0.0
C148 C 0.16681 0.79762 0.27068 0.0
C149 C 0.1381 0.77096 0.30839 0.0
C150 C 0.21146 0.7962 0.25904 0.0
C151 C 0.30143 0.795 0.21349 0.0
H152 H 0.32193 0.69905 0.1902 0.0
H153 H 0.40568 0.76391 0.1886 0.0
H154 H 0.35005 0.70185 0.13937 0.0
H155 H 0.37704 0.76117 0.24052 0.0
H156 H 0.19081 0.75232 0.2808 0.0
H157 H 0.13124 0.80231 0.2933 0.0
H158 H 0.15059 0.7407 0.31607 0.0
H159 H 0.17193 0.81444 0.25993 0.0
Eu160 Eu 0.30623 0.7356 0.73406 0.0
Eu161 Eu 0.261 0.76975 0.74904 0.0
C162 C 0.30711 0.78467 0.7945 0.0
C163 C 0.34844 0.70328 0.75862 0.0
C164 C 0.3413 0.70973 0.79259 0.0
C165 C 0.36673 0.67388 0.77207 0.0
C166 C 0.34696 0.69834 0.81628 0.0
C167 C 0.36121 0.68538 0.74847 0.0
C168 C 0.35953 0.68017 0.80614 0.0
C169 C 0.34083 0.71364 0.73351 0.0
O170 O 0.29411 0.79113 0.71725 0.0
O171 O 0.32059 0.76556 0.70145 0.0
C172 C 0.31447 0.78572 0.70051 0.0
O173 O 0.28839 0.71645 0.68669 0.0
O174 O 0.2394 0.79648 0.76159 0.0
O175 O 0.22591 0.76327 0.72635 0.0
O176 O 0.26599 0.74102 0.70948 0.0
C177 C 0.26893 0.72389 0.6859 0.0
O178 O 0.27143 0.71588 0.76651 0.0
O179 O 0.24583 0.742 0.7842 0.0
O180 O 0.28742 0.79027 0.78736 0.0
O181 O 0.31794 0.7022 0.7248 0.0
O182 O 0.34561 0.7375 0.73823 0.0
O183 O 0.31437 0.76522 0.77941 0.0
C184 C 0.21833 0.79935 0.71645 0.0
C185 C 0.20511 0.78748 0.68832 0.0
C186 C 0.21941 0.83879 0.70295 0.0
C187 C 0.19882 0.80115 0.66799 0.0
C188 C 0.22572 0.82517 0.7232 0.0
C189 C 0.20542 0.82694 0.67558 0.0
C190 C 0.22331 0.78484 0.73942 0.0
C191 C 0.2515 0.72154 0.78445 0.0
H192 H 0.33104 0.72331 0.80069 0.0
H193 H 0.37681 0.66019 0.7637 0.0
H194 H 0.34114 0.70339 0.84238 0.0
H195 H 0.36661 0.68009 0.72228 0.0
H196 H 0.19908 0.76758 0.68245 0.0
H197 H 0.2251 0.85866 0.70911 0.0
H198 H 0.18788 0.7915 0.64719 0.0
H199 H 0.23597 0.83492 0.74454 0.0
Eu200 Eu 0.28188 0.27228 0.72082 0.0
Eu201 Eu 0.27708 0.2459 0.78681 0.0
C202 C 0.23933 0.22126 0.73183 0.0
C203 C 0.2627 0.30306 0.65857 0.0
C204 C 0.23625 0.29098 0.66054 0.0
C205 C 0.25502 0.33617 0.63696 0.0
C206 C 0.21935 0.30147 0.65084 0.0
C207 C 0.27189 0.32562 0.64645 0.0
C208 C 0.22851 0.32436 0.6393 0.0
C209 C 0.28088 0.29261 0.66934 0.0
O210 O 0.29555 0.22328 0.74466 0.0
O211 O 0.31157 0.25072 0.7071 0.0
C212 C 0.31033 0.22995 0.71752 0.0
O213 O 0.30847 0.29894 0.75633 0.0
O214 O 0.26704 0.21461 0.81407 0.0
O215 O 0.28676 0.25109 0.83776 0.0
O216 O 0.31733 0.26907 0.77652 0.0
C217 C 0.32282 0.29209 0.77277 0.0
O218 O 0.24842 0.28137 0.75501 0.0
O219 O 0.25962 0.27779 0.80481 0.0
O220 O 0.23986 0.22664 0.76427 0.0
O221 O 0.29253 0.30472 0.69543 0.0
O222 O 0.27349 0.26898 0.66968 0.0
O223 O 0.25697 0.23373 0.71157 0.0
C224 C 0.29711 0.21736 0.85097 0.0
C225 C 0.32367 0.226 0.84254 0.0
C226 C 0.30402 0.188 0.88102 0.0
C227 C 0.34028 0.21573 0.85343 0.0
C228 C 0.28751 0.19829 0.87023 0.0
C229 C 0.33064 0.1966 0.8729 0.0
C230 C 0.27908 0.22757 0.83954 0.0
C231 C 0.24686 0.2865 0.78784 0.0
H232 H 0.22856 0.27355 0.66988 0.0
H233 H 0.26279 0.35359 0.62764 0.0
H234 H 0.19907 0.29194 0.65314 0.0
H235 H 0.29218 0.3352 0.64451 0.0
H236 H 0.33156 0.24066 0.82754 0.0
H237 H 0.29584 0.173 0.89537 0.0
H238 H 0.36065 0.22296 0.84693 0.0
H239 H 0.26712 0.19123 0.8768 0.0
Eu240 Eu 0.80835 0.24298 0.75283 0.0
Eu241 Eu 0.76382 0.26858 0.75429 0.0
C242 C 0.76635 0.22289 0.70182 0.0
C243 C 0.87415 0.23995 0.74707 0.0
C244 C 0.881 0.26156 0.73266 0.0
C245 C 0.91508 0.2341 0.72583 0.0
C246 C 0.90338 0.26733 0.71112 0.0
C247 C 0.89225 0.22765 0.74632 0.0
C248 C 0.91829 0.25103 0.70374 0.0
C249 C 0.84714 0.22775 0.75562 0.0
O250 O 0.74496 0.23369 0.77692 0.0
O251 O 0.77955 0.22766 0.79408 0.0
C252 C 0.7548 0.22331 0.79511 0.0
O253 O 0.81989 0.28099 0.78103 0.0
O254 O 0.72579 0.26422 0.74115 0.0
O255 O 0.74739 0.29921 0.76668 0.0
O256 O 0.78052 0.28278 0.8039 0.0
C257 C 0.80525 0.28909 0.80551 0.0
O258 O 0.82296 0.26739 0.71258 0.0
O259 O 0.79777 0.29341 0.72802 0.0
O260 O 0.76775 0.2461 0.70411 0.0
O261 O 0.8363 0.23885 0.78157 0.0
O262 O 0.8334 0.22071 0.73028 0.0
O263 O 0.77756 0.21601 0.72268 0.0
C264 C 0.70583 0.28193 0.78834 0.0
C265 C 0.7099 0.26994 0.81266 0.0
C266 C 0.67048 0.29149 0.82433 0.0
C267 C 0.69449 0.2685 0.84241 0.0
C268 C 0.68543 0.29194 0.79358 0.0
C269 C 0.67583 0.28074 0.84951 0.0
C270 C 0.72477 0.28496 0.75951 0.0
C271 C 0.81777 0.28783 0.71089 0.0
H272 H 0.86751 0.27191 0.73444 0.0
H273 H 0.92718 0.22214 0.72223 0.0
H274 H 0.9061 0.28123 0.69549 0.0
H275 H 0.8876 0.21143 0.75829 0.0
H276 H 0.72627 0.26326 0.80976 0.0
H277 H 0.65643 0.30151 0.82937 0.0
H278 H 0.6991 0.26026 0.86133 0.0
H279 H 0.68216 0.30139 0.77505 0.0
Eu280 Eu 0.79651 0.76459 0.78748 0.0
Eu281 Eu 0.76246 0.75266 0.72258 0.0
C282 C 0.74474 0.71937 0.78064 0.0
C283 C 0.83623 0.75245 0.84738 0.0
C284 C 0.82403 0.72724 0.84795 0.0
C285 C 0.87329 0.74817 0.86798 0.0
C286 C 0.83626 0.71269 0.85888 0.0
C287 C 0.86099 0.7627 0.85728 0.0
C288 C 0.86103 0.72299 0.86925 0.0
C289 C 0.8238 0.76829 0.83606 0.0
O290 O 0.74636 0.77907 0.7622 0.0
O291 O 0.77407 0.79246 0.80306 0.0
C292 C 0.75399 0.79332 0.79015 0.0
O293 O 0.81682 0.79629 0.75949 0.0
O294 O 0.72454 0.741 0.70495 0.0
O295 O 0.75803 0.75337 0.67084 0.0
O296 O 0.79631 0.78484 0.71157 0.0
C297 C 0.81445 0.7995 0.72947 0.0
O298 O 0.80979 0.73498 0.75078 0.0
O299 O 0.7893 0.72901 0.70367 0.0
O300 O 0.74739 0.71897 0.74827 0.0
O301 O 0.83349 0.77599 0.80773 0.0
O302 O 0.79888 0.76174 0.83911 0.0
O303 O 0.75831 0.73785 0.80032 0.0
C304 C 0.72104 0.76369 0.6648 0.0
C305 C 0.72785 0.78902 0.67687 0.0
C306 C 0.6898 0.76892 0.63332 0.0
C307 C 0.7157 0.8042 0.66724 0.0
C308 C 0.70199 0.75378 0.64294 0.0
C309 C 0.69639 0.79434 0.64544 0.0
C310 C 0.73315 0.74741 0.67562 0.0
C311 C 0.80594 0.72461 0.71972 0.0
H312 H 0.805 0.71878 0.84012 0.0
H313 H 0.89253 0.75668 0.87502 0.0
H314 H 0.82609 0.69346 0.85975 0.0
H315 H 0.87088 0.78203 0.85666 0.0
H316 H 0.74242 0.79702 0.69398 0.0
H317 H 0.67535 0.76069 0.61613 0.0
H318 H 0.72111 0.82359 0.6774 0.0
H319 H 0.69645 0.73428 0.63337 0.0
Co320 Co 0.06416 0.97139 0.48382 0.0
Co321 Co 0.05955 0.988 0.54523 0.0
Co322 Co 0.03033 0.00995 0.50369 0.0
O323 O 0.06027 1.00066 0.50835 0.0
H324 H 0.07562 0.01433 0.50667 0.0
O325 O 1.00077 0.01979 0.49906 0.0
Co326 Co 1.00162 0.05235 0.51595 0.0
Co327 Co 1.00159 0.02632 0.45683 0.0
H328 H 0.9848 1.00783 0.50493 0.0
O329 O 0.08868 0.99159 0.56265 0.0
O330 O 0.06783 0.95971 0.52548 0.0
O331 O 0.02826 0.98168 0.57308 0.0
O332 O 1.00616 0.98858 0.53666 0.0
O333 O 0.04091 0.03718 0.54049 0.0
O334 O 0.99897 0.08127 0.5331 0.0
O335 O 0.96793 0.04508 0.52449 0.0
O336 O 0.03787 0.06427 0.51168 0.0
O337 O 0.05406 0.03104 0.4704 0.0
O338 O 0.03218 0.02643 0.42726 0.0
O339 O 1.00034 0.05848 0.47015 0.0
O340 O 0.97267 0.02687 0.44057 0.0
C341 C 0.09388 0.96212 0.45751 0.0
C342 C 1.01398 0.96097 0.47125 0.0
C343 C 1.00729 0.98077 0.56346 0.0
C344 C 0.08531 0.96941 0.54637 0.0
C345 C 0.97517 0.06828 0.53711 0.0
C346 C 0.04784 0.05898 0.53405 0.0
C347 C 0.05315 0.03308 0.4401 0.0
C348 C 0.98054 0.04996 0.45314 0.0
O349 O 0.07127 0.9462 0.45886 0.0
O350 O 0.0982 0.98363 0.47589 0.0
O351 O 1.01968 0.98312 0.46677 0.0
O352 O 0.02798 0.95463 0.48758 0.0
Co353 Co 0.56354 0.96656 0.97156 0.0
Co354 Co 0.54674 0.96985 0.02935 0.0
Co355 Co 0.52764 0.01065 0.0084 0.0
O356 O 0.55687 0.99489 1.00464 0.0
H357 H 0.5725 1.00683 0.0116 0.0
O358 O 0.49822 0.02577 0.01233 0.0
Co359 Co 0.49477 0.05663 0.04012 0.0
Co360 Co 0.50184 0.04343 0.9788 0.0
H361 H 0.4819 0.0132 0.01204 0.0
O362 O 0.56818 0.97067 0.05812 0.0
O363 O 0.56132 0.94676 0.00759 0.0
O364 O 0.51157 0.95515 0.03789 0.0
O365 O 0.50315 0.99073 0.04242 0.0
O366 O 0.54366 0.03655 0.04488 0.0
O367 O 0.48952 0.08389 0.06608 0.0
O368 O 0.45909 0.04992 0.04811 0.0
O369 O 0.53129 0.06846 0.03724 0.0
O370 O 0.55268 0.03144 0.97558 0.0
O371 O 0.53445 0.05484 0.95675 0.0
O372 O 0.49323 0.07085 0.9998 0.0
O373 O 0.47428 0.04077 0.95927 0.0
C374 C 0.59462 0.95294 0.94817 0.0
C375 C 0.50981 0.96245 0.96397 0.0
C376 C 0.49626 0.9679 0.04531 0.0
C377 C 0.5727 0.95324 0.03516 0.0
C378 C 0.46532 0.0724 0.06471 0.0
C379 C 0.5469 0.05973 0.0474 0.0
C380 C 0.55377 0.04832 0.95881 0.0
C381 C 0.47683 0.06233 0.97725 0.0
O382 O 0.57116 0.94223 0.94169 0.0
O383 O 0.59932 0.97367 0.96927 0.0
O384 O 0.51087 0.9852 0.97181 0.0
O385 O 0.52779 0.95405 0.9677 0.0
Co386 Co 0.05908 0.46313 0.97324 0.0
Co387 Co 0.05885 0.48261 0.03549 0.0
Co388 Co 0.02809 0.5102 1.00464 0.0
O389 O 0.0581 0.49574 0.99814 0.0
H390 H 0.07421 0.5081 0.9941 0.0
O391 O 0.99773 0.52446 0.01123 0.0
Co392 Co 0.99485 0.55598 0.03836 0.0
Co393 Co 0.99789 0.5398 0.97572 0.0
H394 H 0.98171 0.51165 0.01354 0.0
O395 O 0.0886 0.48036 0.04665 0.0
O396 O 0.05976 0.45123 0.01575 0.0
O397 O 0.03 0.47899 0.0684 0.0
O398 O 1.00561 0.48728 0.03669 0.0
O399 O 0.04443 0.53551 0.04132 0.0
O400 O 0.98985 0.58363 0.06384 0.0
O401 O 0.9593 0.54976 0.04559 0.0
O402 O 0.03127 0.56753 0.03614 0.0
O403 O 0.05102 0.53306 0.97267 0.0
O404 O 0.02815 0.54778 0.9464 0.0
O405 O 0.99421 0.56966 0.9973 0.0
O406 O 0.96832 0.54036 0.9626 0.0
C407 C 0.08718 0.44547 0.9496 0.0
C408 C 1.00689 0.46183 0.96745 0.0
C409 C 1.00818 0.47803 0.06146 0.0
C410 C 0.0797 0.45769 0.03265 0.0
C411 C 0.96567 0.57222 0.06217 0.0
C412 C 0.04803 0.55865 0.04289 0.0
C413 C 0.04934 0.54583 0.95133 0.0
C414 C 0.97537 0.56275 0.97835 0.0
O415 O 0.06278 0.43442 0.94952 0.0
O416 O 0.09441 0.46827 0.96486 0.0
O417 O 1.01184 0.48502 0.96781 0.0
O418 O 1.02243 0.45259 0.9767 0.0
Co419 Co 0.55656 0.46756 0.996 0.0
Co420 Co 0.55317 0.4948 0.05374 0.0
Co421 Co 0.527 0.50969 1.00427 0.0
O422 O 0.55616 0.50006 0.01049 0.0
H423 H 0.57224 0.51218 1.00543 0.0
O424 O 0.4976 0.51892 0.99812 0.0
Co425 Co 0.49394 0.54917 0.01929 0.0
Co426 Co 0.49941 0.52871 0.95844 0.0
H427 H 0.48205 0.50555 1.00051 0.0
O428 O 0.58087 0.49524 0.07279 0.0
O429 O 0.55418 0.46262 0.04347 0.0
O430 O 0.52209 0.49527 0.08139 0.0
O431 O 0.50206 0.48806 0.03621 0.0
O432 O 0.53631 0.53637 0.04182 0.0
O433 O 0.48655 0.57559 0.04043 0.0
O434 O 0.45999 0.5379 0.02362 0.0
O435 O 0.53024 0.56501 0.01878 0.0
O436 O 0.55198 0.53154 0.97244 0.0
O437 O 0.53092 0.53249 0.93087 0.0
O438 O 0.49371 0.55871 0.97504 0.0
O439 O 0.47045 0.52652 0.94101 0.0
C440 C 0.58437 0.4519 0.98249 0.0
C441 C 0.51004 0.4609 0.97325 0.0
C442 C 0.50172 0.48699 0.06713 0.0
C443 C 0.57307 0.47175 0.06219 0.0
C444 C 0.46368 0.56018 0.03947 0.0
C445 C 0.54273 0.55854 0.03716 0.0
C446 C 0.55166 0.53645 0.94335 0.0
C447 C 0.47514 0.54919 0.95588 0.0
O448 O 0.56062 0.43864 0.98175 0.0
O449 O 0.59034 0.4754 0.99328 0.0
O450 O 0.51785 0.48277 0.96695 0.0
O451 O 0.52023 0.45492 0.9949 0.0
Co452 Co 0.07292 0.4836 0.51224 0.0
Co453 Co 0.06291 0.48003 0.45419 0.0
Co454 Co 0.02763 0.51161 0.50625 0.0
O455 O 0.04223 0.48238 0.49401 0.0
H456 H 0.02902 0.46698 0.49577 0.0
O457 O 1.01328 0.54109 0.51784 0.0
Co458 Co 0.98242 0.53959 0.49963 0.0
Co459 Co 0.9928 0.54381 0.55756 0.0
H460 H 1.02652 0.55644 0.51577 0.0
O461 O 0.06448 0.44986 0.42983 0.0
O462 O 0.09126 0.47401 0.46708 0.0
O463 O 0.07306 0.50931 0.43393 0.0
O464 O 0.04985 0.53027 0.46991 0.0
O465 O 1.00073 0.49366 0.47594 0.0
O466 O 0.95576 0.53992 0.48135 0.0
O467 O 0.99165 0.57111 0.49067 0.0
O468 O 0.96896 0.50637 0.5052 0.0
O469 O 1.00528 0.49281 0.54272 0.0
O470 O 0.98126 0.51419 0.5765 0.0
O471 O 0.96464 0.54992 0.54461 0.0
O472 O 0.99134 0.57404 0.58194 0.0
C473 C 0.08545 0.46 0.53207 0.0
C474 C 0.07804 0.53364 0.52748 0.0
C475 C 0.06618 0.52863 0.44445 0.0
C476 C 0.08526 0.45455 0.44408 0.0
C477 C 0.96908 0.5626 0.47959 0.0
C478 C 0.97709 0.48975 0.48622 0.0
C479 C 0.98805 0.49476 0.56697 0.0
C480 C 0.9706 0.56933 0.5676 0.0
O481 O 0.0991 0.48273 0.53122 0.0
O482 O 0.06347 0.45182 0.51948 0.0
O483 O 0.05428 0.52946 0.53694 0.0
O484 O 0.08663 0.51743 0.50816 0.0
Co485 Co 0.56974 0.97884 0.51533 0.0
Co486 Co 0.56309 0.97759 0.4568 0.0
Co487 Co 0.52717 0.01016 0.5056 0.0
O488 O 0.54072 0.98003 0.49493 0.0
H489 H 0.52688 0.96491 0.49536 0.0
O490 O 0.51368 0.0403 0.51599 0.0
Co491 Co 0.48408 0.0412 0.49658 0.0
Co492 Co 0.49277 0.04396 0.55522 0.0
H493 H 0.52754 0.05531 0.51452 0.0
O494 O 0.56373 0.94762 0.43116 0.0
O495 O 0.58927 0.96915 0.4712 0.0
O496 O 0.57614 1.00746 0.4382 0.0
O497 O 0.54988 0.0278 0.46867 0.0
O498 O 0.50006 0.99195 0.47534 0.0
O499 O 0.45889 0.04408 0.47732 0.0
O500 O 0.49534 0.07337 0.49014 0.0
O501 O 0.46859 1.00754 0.49966 0.0
O502 O 0.50436 0.99261 0.5426 0.0
O503 O 0.48041 0.01469 0.57501 0.0
O504 O 0.46536 0.05077 0.54123 0.0
O505 O 0.49176 0.07468 0.57887 0.0
C506 C 0.57978 0.95324 0.53501 0.0
C507 C 0.57797 0.03028 0.529 0.0
C508 C 0.56826 0.02636 0.44598 0.0
C509 C 0.58349 0.95068 0.44678 0.0
C510 C 0.47331 0.06667 0.47776 0.0
C511 C 0.47631 0.9899 0.4828 0.0
C512 C 0.48701 0.99509 0.56643 0.0
C513 C 0.47131 0.07031 0.56404 0.0
O514 O 0.59426 0.97583 0.53572 0.0
O515 O 0.55816 0.94658 0.52163 0.0
O516 O 0.55421 0.02838 0.53596 0.0
O517 O 0.58565 0.01252 0.51246 0.0
H518 H 0.21245 0.17849 0.24823 0.0
H519 H 0.18105 0.14416 0.27243 0.0
H520 H 0.19541 0.18324 0.37114 0.0
H521 H 0.22691 0.21755 0.34741 0.0
H522 H 0.19112 0.11728 0.3256 0.0
H523 H 0.11462 0.16342 0.36238 0.0
H524 H 0.13958 0.17172 0.32908 0.0
H525 H 0.14649 0.18135 0.37166 0.0
C526 C 0.20899 0.17979 0.27509 0.0
C527 C 0.22222 0.20081 0.29587 0.0
C528 C 0.19107 0.16014 0.28883 0.0
C529 C 0.1859 0.1613 0.32349 0.0
C530 C 0.1991 0.18212 0.34429 0.0
H531 H 0.08422 0.07675 0.46542 0.0
H532 H 0.11796 0.10603 0.43561 0.0
C533 C 0.21714 0.20167 0.33064 0.0
C534 C 0.16668 0.14079 0.33817 0.0
H535 H 0.1077 0.12569 0.38168 0.0
C536 C 0.17276 0.11894 0.3376 0.0
C537 C 0.14285 0.14317 0.35382 0.0
C538 C 0.13526 0.16608 0.35423 0.0
C539 C 0.15581 0.09958 0.35325 0.0
C540 C 0.13214 0.10212 0.36934 0.0
C541 C 0.12591 0.12383 0.36933 0.0
C542 C 0.11385 0.08295 0.38756 0.0
C543 C 0.16365 0.07693 0.35356 0.0
C544 C 0.10057 0.06012 0.37051 0.0
C545 C 0.08144 0.04321 0.38777 0.0
C546 C 0.07562 0.04882 0.42232 0.0
C547 C 0.08931 0.07145 0.43926 0.0
C548 C 0.10823 0.08837 0.42209 0.0
H549 H 0.18419 0.07951 0.34477 0.0
H550 H 0.15995 0.072 0.37908 0.0
H551 H 0.15211 0.06123 0.337 0.0
H552 H 0.10433 0.05579 0.34375 0.0
H553 H 0.07078 0.02605 0.37406 0.0
H554 H 0.88686 0.16289 0.30414 0.0
H555 H 0.90727 0.14232 0.33335 0.0
H556 H 0.86505 0.16255 0.42586 0.0
H557 H 0.84399 0.183 0.3965 0.0
H558 H 0.93697 0.16635 0.39021 0.0
H559 H 0.85337 0.08598 0.4165 0.0
H560 H 0.85402 0.10427 0.38514 0.0
H561 H 0.84957 0.11631 0.42845 0.0
C562 C 0.88154 0.16264 0.3306 0.0
C563 C 0.86363 0.17435 0.34797 0.0
C564 C 0.89339 0.15107 0.34727 0.0
C565 C 0.88753 0.15088 0.38161 0.0
C566 C 0.86961 0.16241 0.39923 0.0
H567 H 0.94212 0.06502 0.4908 0.0
H568 H 0.92143 0.09356 0.47862 0.0
C569 C 0.85775 0.17415 0.38251 0.0
C570 C 0.90088 0.13892 0.39857 0.0
H571 H 0.89302 0.08662 0.43062 0.0
C572 C 0.92738 0.14906 0.39948 0.0
C573 C 0.88818 0.11653 0.41077 0.0
C574 C 0.85973 0.10494 0.41014 0.0
C575 C 0.94174 0.13698 0.41145 0.0
C576 C 0.92925 0.11387 0.42194 0.0
C577 C 0.90256 0.10428 0.42238 0.0
C578 C 0.94352 0.09862 0.43083 0.0
C579 C 0.9701 0.1491 0.41255 0.0
C580 C 0.96276 0.09195 0.40805 0.0
C581 C 0.97519 0.07638 0.41566 0.0
C582 C 0.96814 0.06693 0.44579 0.0
C583 C 0.94857 0.07304 0.46818 0.0
C584 C 0.93653 0.08903 0.46097 0.0
H585 H 0.97484 0.16945 0.41511 0.0
H586 H 0.97726 0.14441 0.43351 0.0
H587 H 0.98037 0.14276 0.38886 0.0
H588 H 0.96779 0.09834 0.38409 0.0
H589 H 0.98996 0.07138 0.39784 0.0
H590 H 0.85963 0.788 0.30046 0.0
H591 H 0.8917 0.81808 0.33401 0.0
H592 H 0.86066 0.87561 0.32373 0.0
H593 H 0.82853 0.84558 0.2896 0.0
H594 H 0.92723 0.87241 0.31565 0.0
H595 H 0.85861 0.86537 0.43048 0.0
H596 H 0.8555 0.84004 0.39652 0.0
H597 H 0.8484 0.86723 0.39162 0.0
C598 C 0.85987 0.80712 0.30485 0.0
C599 C 0.84158 0.81446 0.29246 0.0
C600 C 0.87816 0.82424 0.32402 0.0
C601 C 0.87828 0.84889 0.33147 0.0
C602 C 0.86073 0.85657 0.31817 0.0
H603 H 0.97475 0.97176 0.45151 0.0
H604 H 0.94008 0.94396 0.42037 0.0
C605 C 0.84255 0.83947 0.29856 0.0
C606 C 0.89615 0.86613 0.35447 0.0
H607 H 0.90119 0.88967 0.43681 0.0
C608 C 0.92158 0.87629 0.3421 0.0
C609 C 0.88854 0.87106 0.38888 0.0
C610 C 0.8613 0.86041 0.40297 0.0
C611 C 0.93977 0.89119 0.36348 0.0
C612 C 0.93234 0.8956 0.39801 0.0
C613 C 0.90679 0.88584 0.41034 0.0
C614 C 0.95092 0.91136 0.42116 0.0
C615 C 0.96685 0.90233 0.34921 0.0
C616 C 0.96797 0.90196 0.43276 0.0
C617 C 0.98791 0.91783 0.45077 0.0
C618 C 0.99111 0.94327 0.45692 0.0
C619 C 0.97304 0.95228 0.44677 0.0
C620 C 0.95312 0.93645 0.42911 0.0
H621 H 0.96931 0.89798 0.3216 0.0
H622 H 0.97244 0.92265 0.35643 0.0
H623 H 0.98006 0.89536 0.35972 0.0
H624 H 0.96641 0.88253 0.42679 0.0
H625 H 1.00146 0.91039 0.45841 0.0
H626 H 0.09031 0.77754 0.32341 0.0
H627 H 0.08691 0.81192 0.36637 0.0
H628 H 0.14942 0.80575 0.41163 0.0
H629 H 0.15305 0.77163 0.36878 0.0
H630 H 0.09161 0.83592 0.43492 0.0
H631 H 0.18075 0.86015 0.34833 0.0
H632 H 0.1563 0.83118 0.3416 0.0
H633 H 0.17742 0.83663 0.37312 0.0
C634 C 0.10201 0.78223 0.34392 0.0
C635 C 0.12323 0.77341 0.34131 0.0
C636 C 0.10024 0.8021 0.36836 0.0
C637 C 0.11902 0.81209 0.39067 0.0
C638 C 0.13536 0.79865 0.39374 0.0
H639 H 0.13876 0.96343 0.47748 0.0
H640 H 0.15634 0.92881 0.45803 0.0
C641 C 0.13716 0.77886 0.36922 0.0
C642 C 0.12618 0.83875 0.40207 0.0
H643 H 0.16762 0.89262 0.38042 0.0
C644 C 0.10863 0.84837 0.42395 0.0
C645 C 0.14807 0.85481 0.38651 0.0
C646 C 0.16671 0.84531 0.36091 0.0
C647 C 0.1118 0.87364 0.42981 0.0
C648 C 0.13337 0.88959 0.41378 0.0
C649 C 0.15153 0.88019 0.39304 0.0
C650 C 0.13487 0.91541 0.41503 0.0
C651 C 0.09083 0.88275 0.4507 0.0
C652 C 0.11957 0.92059 0.3949 0.0
C653 C 0.10929 0.93999 0.40623 0.0
C654 C 0.11455 0.95409 0.43744 0.0
C655 C 0.13432 0.95236 0.45354 0.0
C656 C 0.14433 0.93261 0.4425 0.0
H657 H 0.07914 0.86963 0.46766 0.0
H658 H 0.09882 0.90074 0.46575 0.0
H659 H 0.07806 0.88512 0.43403 0.0
H660 H 0.11239 0.90751 0.37342 0.0
H661 H 0.09428 0.94146 0.39332 0.0
H662 H 0.20472 0.82216 0.60775 0.0
H663 H 0.18776 0.84568 0.57774 0.0
H664 H 0.16786 0.88727 0.67109 0.0
H665 H 0.18439 0.86392 0.7011 0.0
H666 H 0.13568 0.85036 0.58903 0.0
H667 H 0.2103 0.94006 0.61214 0.0
H668 H 0.21523 0.91118 0.61534 0.0
H669 H 0.19728 0.92565 0.64861 0.0
C670 C 0.19675 0.83635 0.62179 0.0
C671 C 0.19613 0.84139 0.65676 0.0
C672 C 0.18717 0.84976 0.60465 0.0
C673 C 0.17699 0.86841 0.62225 0.0
C674 C 0.1762 0.87331 0.65706 0.0
H675 H 0.10383 0.97282 0.60523 0.0
H676 H 0.12657 0.94672 0.61934 0.0
C677 C 0.18572 0.85999 0.67414 0.0
C678 C 0.16623 0.88238 0.6048 0.0
H679 H 0.17148 0.94092 0.59486 0.0
C680 C 0.14363 0.87011 0.58971 0.0
C681 C 0.17674 0.90809 0.60594 0.0
C682 C 0.20136 0.92204 0.62112 0.0
C683 C 0.13033 0.88316 0.57749 0.0
C684 C 0.14041 0.90906 0.57971 0.0
C685 C 0.1637 0.92109 0.59334 0.0
C686 C 0.12631 0.92441 0.57058 0.0
C687 C 0.10496 0.86924 0.56414 0.0
C688 C 0.11857 0.92055 0.53849 0.0
C689 C 0.10488 0.93504 0.53081 0.0
C690 C 0.09968 0.95415 0.55447 0.0
C691 C 0.1079 0.95835 0.58631 0.0
C692 C 0.12087 0.94346 0.59438 0.0
H693 H 0.09712 0.85067 0.57175 0.0
H694 H 0.09069 0.87949 0.57292 0.0
H695 H 0.10754 0.86679 0.53651 0.0
H696 H 0.12315 0.90645 0.51941 0.0
H697 H 0.09862 0.93172 0.50631 0.0
H698 H 0.24359 0.1974 0.66933 0.0
H699 H 0.20987 0.1688 0.63822 0.0
H700 H 0.15633 0.16871 0.72633 0.0
H701 H 0.19043 0.19842 0.75817 0.0
H702 H 0.17655 0.12176 0.64838 0.0
H703 H 0.12711 0.19299 0.65446 0.0
H704 H 0.16025 0.20072 0.66174 0.0
H705 H 0.13554 0.1886 0.69301 0.0
C706 C 0.22472 0.19126 0.6824 0.0
C707 C 0.21945 0.20057 0.71607 0.0
C708 C 0.20552 0.17479 0.66451 0.0
C709 C 0.18067 0.1671 0.67987 0.0
C710 C 0.17547 0.17493 0.71406 0.0
H711 H 0.04128 0.08143 0.59676 0.0
H712 H 0.07463 0.10894 0.6309 0.0
C713 C 0.19489 0.19165 0.73222 0.0
C714 C 0.16035 0.15197 0.65897 0.0
H715 H 0.10977 0.15437 0.62312 0.0
C716 C 0.16171 0.12868 0.6431 0.0
C717 C 0.14177 0.16162 0.65136 0.0
C718 C 0.14102 0.18741 0.66575 0.0
C719 C 0.14444 0.11438 0.6203 0.0
C720 C 0.12542 0.12378 0.6133 0.0
C721 C 0.12428 0.14722 0.62888 0.0
C722 C 0.10548 0.10894 0.59155 0.0
C723 C 0.14662 0.08931 0.60421 0.0
C724 C 0.11185 0.10037 0.55802 0.0
C725 C 0.09288 0.08448 0.53876 0.0
C726 C 0.06736 0.07767 0.55258 0.0
C727 C 0.0609 0.08687 0.58568 0.0
C728 C 0.07985 0.1025 0.60505 0.0
H729 H 0.15852 0.08276 0.61773 0.0
H730 H 0.12748 0.07551 0.60312 0.0
H731 H 0.15581 0.09035 0.57834 0.0
H732 H 0.13151 0.10541 0.54708 0.0
H733 H 0.09834 0.07677 0.51368 0.0
H734 H 0.88748 0.23978 0.65398 0.0
H735 H 0.88048 0.19893 0.62234 0.0
H736 H 0.95555 0.19914 0.63892 0.0
H737 H 0.96191 0.23956 0.67317 0.0
H738 H 0.89597 0.16643 0.57657 0.0
H739 H 0.91026 0.1521 0.70065 0.0
H740 H 0.90761 0.18081 0.69283 0.0
H741 H 0.9378 0.17402 0.68384 0.0
C742 C 0.90325 0.2319 0.64944 0.0
C743 C 0.92445 0.24186 0.66831 0.0
C744 C 0.89893 0.20823 0.63161 0.0
C745 C 0.91669 0.19548 0.63077 0.0
C746 C 0.94097 0.20836 0.64128 0.0
H747 H 0.98296 0.11705 0.55393 0.0
H748 H 0.95287 0.13796 0.58379 0.0
C749 C 0.94495 0.23178 0.66003 0.0
C750 C 0.90855 0.16838 0.62449 0.0
H751 H 0.91423 0.11978 0.65471 0.0
C752 C 0.89918 0.15611 0.59409 0.0
C753 C 0.91073 0.15453 0.64834 0.0
C754 C 0.91681 0.16601 0.68343 0.0
C755 C 0.89654 0.13098 0.58473 0.0
C756 C 0.90478 0.11879 0.60551 0.0
C757 C 0.90875 0.12961 0.63843 0.0
C758 C 0.922 0.10452 0.58958 0.0
C759 C 0.8898 0.11875 0.5502 0.0
C760 C 0.91439 0.07881 0.58353 0.0
C761 C 0.93176 0.06665 0.56624 0.0
C762 C 0.95658 0.08032 0.55524 0.0
C763 C 0.96399 0.10604 0.56207 0.0
C764 C 0.94686 0.118 0.57913 0.0
H765 H 0.87592 0.12622 0.54201 0.0
H766 H 0.90737 0.12244 0.53249 0.0
H767 H 0.88163 0.0985 0.54919 0.0
H768 H 0.89521 0.06834 0.59172 0.0
H769 H 0.92585 0.04672 0.56148 0.0
H770 H 0.82442 0.80496 0.66377 0.0
H771 H 0.85608 0.83835 0.63861 0.0
H772 H 0.8787 0.87455 0.73579 0.0
H773 H 0.8475 0.84073 0.76117 0.0
H774 H 0.85988 0.88691 0.64769 0.0
H775 H 0.94702 0.87485 0.68468 0.0
H776 H 0.91617 0.85216 0.68853 0.0
H777 H 0.92381 0.87955 0.71884 0.0
C778 C 0.83611 0.82 0.67987 0.0
C779 C 0.83341 0.82015 0.71452 0.0
C780 C 0.85425 0.83909 0.66541 0.0
C781 C 0.87003 0.85883 0.6852 0.0
C782 C 0.86718 0.85924 0.71988 0.0
H783 H 0.99702 0.98319 0.63059 0.0
H784 H 0.96152 0.95595 0.66126 0.0
C785 C 0.84921 0.83996 0.73439 0.0
C786 C 0.88898 0.87913 0.66933 0.0
H787 H 0.95277 0.90887 0.65748 0.0
C788 C 0.88021 0.89175 0.64985 0.0
C789 C 0.91548 0.88552 0.67228 0.0
C790 C 0.92627 0.8722 0.69196 0.0
C791 C 0.89714 0.91063 0.63334 0.0
C792 C 0.92371 0.91674 0.63576 0.0
C793 C 0.93242 0.9043 0.65562 0.0
C794 C 0.94302 0.93548 0.61741 0.0
C795 C 0.88621 0.92402 0.61397 0.0
C796 C 0.94416 0.93362 0.58257 0.0
C797 C 0.96409 0.9497 0.5651 0.0
C798 C 0.98363 0.96742 0.58209 0.0
C799 C 0.98212 0.96973 0.61695 0.0
C800 C 0.96192 0.95407 0.63445 0.0
H801 H 0.86614 0.92317 0.62368 0.0
H802 H 0.89767 0.94364 0.61485 0.0
H803 H 0.88615 0.91508 0.58756 0.0
H804 H 0.93034 0.91903 0.56863 0.0
H805 H 0.96512 0.9472 0.53816 0.0
H806 H 0.28696 0.1857 0.17659 0.0
H807 H 0.31232 0.15767 0.15082 0.0
H808 H 0.37806 0.20786 0.19645 0.0
H809 H 0.35229 0.23465 0.2241 0.0
H810 H 0.34998 0.1564 0.10825 0.0
H811 H 0.38517 0.15037 0.22399 0.0
H812 H 0.3614 0.16572 0.22467 0.0
H813 H 0.39498 0.18158 0.21655 0.0
C814 C 0.30679 0.19065 0.18135 0.0
C815 C 0.31731 0.2124 0.20301 0.0
C816 C 0.32144 0.17453 0.16648 0.0
C817 C 0.3473 0.17976 0.17223 0.0
C818 C 0.35804 0.20223 0.19256 0.0
H819 H 0.4746 0.11816 0.10226 0.0
H820 H 0.44523 0.14195 0.12635 0.0
C821 C 0.34323 0.2179 0.2082 0.0
C822 C 0.363 0.16214 0.15677 0.0
H823 H 0.40649 0.13557 0.1733 0.0
C824 C 0.36208 0.15174 0.12277 0.0
C825 C 0.37902 0.15545 0.17509 0.0
C826 C 0.37999 0.16366 0.21213 0.0
C827 C 0.377 0.136 0.10672 0.0
C828 C 0.39352 0.12997 0.12489 0.0
C829 C 0.39415 0.14005 0.15891 0.0
C830 C 0.41125 0.11445 0.10916 0.0
C831 C 0.37548 0.12662 0.07001 0.0
C832 C 0.40247 0.09042 0.09133 0.0
C833 C 0.41956 0.07646 0.07722 0.0
C834 C 0.44601 0.086 0.08062 0.0
C835 C 0.45453 0.10987 0.09884 0.0
C836 C 0.43758 0.1237 0.11283 0.0
H837 H 0.36748 0.1378 0.05787 0.0
H838 H 0.3946 0.12667 0.057 0.0
H839 H 0.36272 0.10742 0.06677 0.0
H840 H 0.38231 0.08226 0.08853 0.0
H841 H 0.41206 0.05825 0.0635 0.0
H842 H 0.86008 0.31326 0.22704 0.0
H843 H 0.89155 0.34474 0.19803 0.0
H844 H 0.83227 0.3512 0.14641 0.0
H845 H 0.80049 0.32054 0.17664 0.0
H846 H 0.90801 0.3468 0.13525 0.0
H847 H 0.86321 0.42187 0.17967 0.0
H848 H 0.85243 0.39338 0.19659 0.0
H849 H 0.84255 0.39507 0.15753 0.0
C850 C 0.85373 0.32136 0.20947 0.0
C851 C 0.82773 0.31444 0.20425 0.0
C852 C 0.87176 0.33943 0.19291 0.0
C853 C 0.86433 0.35087 0.17045 0.0
C854 C 0.83847 0.34337 0.16439 0.0
H855 H 0.95847 0.46106 0.04524 0.0
H856 H 0.9227 0.43023 0.0704 0.0
C857 C 0.82032 0.32562 0.18146 0.0
C858 C 0.88383 0.37025 0.15317 0.0
H859 H 0.89894 0.42986 0.13909 0.0
C860 C 0.90596 0.36495 0.13621 0.0
C861 C 0.88127 0.39403 0.15415 0.0
C862 C 0.85871 0.40155 0.17322 0.0
C863 C 0.92552 0.38262 0.1205 0.0
C864 C 0.92307 0.4064 0.12185 0.0
C865 C 0.90075 0.41161 0.13805 0.0
C866 C 0.94406 0.42636 0.10792 0.0
C867 C 0.94868 0.37566 0.10247 0.0
C868 C 0.96765 0.43504 0.12136 0.0
C869 C 0.98802 0.45273 0.10727 0.0
C870 C 0.98531 0.46227 0.07938 0.0
C871 C 0.96126 0.45431 0.06682 0.0
C872 C 0.94081 0.43656 0.08104 0.0
H873 H 0.94481 0.35537 0.09633 0.0
H874 H 0.95515 0.38379 0.07908 0.0
H875 H 0.96454 0.38284 0.11868 0.0
H876 H 0.97046 0.4278 0.14249 0.0
H877 H 1.00616 0.45842 0.11775 0.0
H878 H 0.71724 0.87168 0.16813 0.0
H879 H 0.69028 0.89124 0.14797 0.0
H880 H 0.67228 0.83078 0.06751 0.0
H881 H 0.69907 0.81106 0.08761 0.0
H882 H 0.69639 0.90679 0.08757 0.0
H883 H 0.60194 0.8372 0.10412 0.0
H884 H 0.62934 0.83735 0.12304 0.0
H885 H 0.62603 0.82469 0.07989 0.0
C886 C 0.70749 0.86252 0.14618 0.0
C887 C 0.71034 0.83982 0.12944 0.0
C888 C 0.69202 0.87368 0.13476 0.0
C889 C 0.67902 0.86236 0.10644 0.0
C890 C 0.68164 0.8396 0.08984 0.0
H891 H 0.58384 0.91208 0.99814 0.0
H892 H 0.61107 0.8898 0.01234 0.0
C893 C 0.69701 0.82837 0.10134 0.0
C894 C 0.66384 0.875 0.0933 0.0
H895 H 0.60412 0.86894 0.0737 0.0
C896 C 0.67621 0.8985 0.08456 0.0
C897 C 0.63751 0.86418 0.08932 0.0
C898 C 0.62283 0.83957 0.09987 0.0
C899 C 0.66303 0.9114 0.07184 0.0
C900 C 0.63672 0.9006 0.06796 0.0
C901 C 0.62438 0.87702 0.0763 0.0
C902 C 0.62122 0.91439 0.05812 0.0
C903 C 0.67738 0.93651 0.06265 0.0
C904 C 0.61793 0.93546 0.07915 0.0
C905 C 0.60249 0.94808 0.07122 0.0
C906 C 0.58976 0.93986 0.04212 0.0
C907 C 0.59328 0.91885 0.02077 0.0
C908 C 0.6088 0.90611 0.02884 0.0
H909 H 0.69831 0.93918 0.0582 0.0
H910 H 0.67068 0.93939 0.04 0.0
H911 H 0.67398 0.95081 0.08346 0.0
H912 H 0.627 0.94194 0.1021 0.0
H913 H 0.60036 0.96422 0.08827 0.0
H914 H 0.19602 0.71154 0.20939 0.0
H915 H 0.17059 0.68386 0.16706 0.0
H916 H 0.23894 0.68265 0.10137 0.0
H917 H 0.2652 0.71098 0.14435 0.0
H918 H 0.17219 0.69143 0.09523 0.0
H919 H 0.19575 0.6081 0.11311 0.0
H920 H 0.1996 0.63434 0.14575 0.0
H921 H 0.22061 0.63644 0.10794 0.0
C922 C 0.20591 0.70558 0.18601 0.0
C923 C 0.23277 0.71346 0.18034 0.0
C924 C 0.19121 0.68977 0.16174 0.0
C925 C 0.20286 0.6813 0.13115 0.0
C926 C 0.22966 0.68903 0.12499 0.0
H927 H 0.09599 0.55541 0.02057 0.0
H928 H 0.13676 0.58614 0.03374 0.0
C929 C 0.24459 0.70507 0.14952 0.0
C930 C 0.18619 0.66357 0.10703 0.0
H931 H 0.15832 0.6018 0.08819 0.0
C932 C 0.16955 0.67182 0.09277 0.0
C933 C 0.18294 0.63809 0.10372 0.0
C934 C 0.2006 0.6285 0.11834 0.0
C935 C 0.14868 0.65514 0.07717 0.0
C936 C 0.14385 0.62957 0.07691 0.0
C937 C 0.16175 0.62137 0.08875 0.0
C938 C 0.11931 0.6113 0.0676 0.0
C939 C 0.13171 0.66525 0.06197 0.0
C940 C 0.09596 0.61492 0.08269 0.0
C941 C 0.07281 0.5977 0.07468 0.0
C942 C 0.07255 0.57605 0.05242 0.0
C943 C 0.0958 0.5719 0.0381 0.0
C944 C 0.11903 0.58949 0.04546 0.0
H945 H 0.14287 0.68262 0.05236 0.0
H946 H 0.12216 0.6519 0.04125 0.0
H947 H 0.11687 0.66963 0.08142 0.0
H948 H 0.09557 0.63099 0.10096 0.0
H949 H 0.05508 0.60115 0.08622 0.0
H950 H 0.30412 0.83028 0.82533 0.0
H951 H 0.33581 0.86173 0.85817 0.0
H952 H 0.38005 0.81123 0.85039 0.0
H953 H 0.3487 0.77966 0.81764 0.0
H954 H 0.36866 0.8453 0.92041 0.0
H955 H 0.41409 0.88981 0.8081 0.0
H956 H 0.37972 0.87881 0.8154 0.0
H957 H 0.39781 0.8572 0.80453 0.0
C958 C 0.32031 0.82564 0.83111 0.0
C959 C 0.32384 0.80239 0.81871 0.0
C960 C 0.33842 0.84369 0.84978 0.0
C961 C 0.36023 0.83874 0.85646 0.0
C962 C 0.36328 0.81531 0.84546 0.0
H963 H 0.50752 0.91997 0.92072 0.0
H964 H 0.46999 0.89084 0.8959 0.0
C965 C 0.34528 0.79729 0.82674 0.0
C966 C 0.38074 0.85837 0.87317 0.0
H967 H 0.43369 0.90621 0.85778 0.0
C968 C 0.38275 0.85882 0.90692 0.0
C969 C 0.39912 0.87572 0.85524 0.0
C970 C 0.39783 0.87554 0.81877 0.0
C971 C 0.40292 0.8762 0.92322 0.0
C972 C 0.42143 0.89342 0.9052 0.0
C973 C 0.41931 0.89305 0.8715 0.0
C974 C 0.44388 0.91119 0.92051 0.0
C975 C 0.40483 0.87576 0.95931 0.0
C976 C 0.44156 0.93235 0.94235 0.0
C977 C 0.46305 0.94925 0.95621 0.0
C978 C 0.4871 0.94502 0.94877 0.0
C979 C 0.48924 0.92368 0.92704 0.0
C980 C 0.46786 0.90705 0.91281 0.0
H981 H 0.39021 0.85982 0.96895 0.0
H982 H 0.42411 0.875 0.96249 0.0
H983 H 0.40224 0.89297 0.9746 0.0
H984 H 0.42316 0.93582 0.94853 0.0
H985 H 0.46079 0.96539 0.97316 0.0
H986 H 0.21238 0.30275 0.76294 0.0
H987 H 0.18713 0.33002 0.79188 0.0
H988 H 0.21983 0.33588 0.88273 0.0
H989 H 0.24488 0.30826 0.85411 0.0
H990 H 0.15063 0.32273 0.85722 0.0
H991 H 0.23027 0.41001 0.86611 0.0
H992 H 0.23188 0.38386 0.83477 0.0
H993 H 0.23502 0.38325 0.87735 0.0
C994 C 0.21425 0.30971 0.78911 0.0
C995 C 0.23085 0.30297 0.80595 0.0
C996 C 0.1997 0.32544 0.80573 0.0
C997 C 0.20151 0.33541 0.83965 0.0
C998 C 0.21806 0.32877 0.85657 0.0
H999 H 0.1346 0.44782 0.96745 0.0
H1000 H 0.16185 0.42123 0.94274 0.0
C1001 C 0.23237 0.31276 0.84008 0.0
C1002 C 0.18573 0.35222 0.85727 0.0
H1003 H 0.18939 0.41247 0.88907 0.0
C1004 C 0.15915 0.34236 0.86412 0.0
C1005 C 0.1966 0.37785 0.86716 0.0
C1006 C 0.22499 0.3896 0.86097 0.0
C1007 C 0.14337 0.35712 0.88041 0.0
C1008 C 0.15398 0.38309 0.88894 0.0
C1009 C 0.18075 0.39284 0.88253 0.0
C1010 C 0.1377 0.40026 0.90392 0.0
C1011 C 0.11552 0.34424 0.88936 0.0
C1012 C 0.11512 0.39841 0.89036 0.0
C1013 C 0.09927 0.41326 0.90498 0.0
C1014 C 0.10576 0.43138 0.93303 0.0
C1015 C 0.12896 0.43426 0.94577 0.0
C1016 C 0.14459 0.41888 0.93156 0.0
H1017 H 0.1127 0.32501 0.89309 0.0
H1018 H 0.10763 0.35394 0.91245 0.0
H1019 H 0.10444 0.34332 0.86857 0.0
H1020 H 0.10953 0.38532 0.86828 0.0
H1021 H 0.08178 0.41055 0.89411 0.0
H1022 H 0.70694 0.22237 0.82416 0.0
H1023 H 0.67744 0.1921 0.85648 0.0
H1024 H 0.73248 0.15134 0.84174 0.0
H1025 H 0.76294 0.183 0.8118 0.0
H1026 H 0.65502 0.1475 0.83643 0.0
H1027 H 0.71109 0.14678 0.9368 0.0
H1028 H 0.72152 0.1702 0.91011 0.0
H1029 H 0.72694 0.14063 0.89613 0.0
C1030 C 0.71304 0.20736 0.82856 0.0
C1031 C 0.7374 0.2053 0.81582 0.0
C1032 C 0.69606 0.18988 0.8469 0.0
C1033 C 0.7027 0.16943 0.8521 0.0
C1034 C 0.72707 0.16728 0.83922 0.0
H1035 H 0.59424 0.03475 0.92057 0.0
H1036 H 0.63302 0.06272 0.89478 0.0
C1037 C 0.74443 0.18528 0.82179 0.0
C1038 C 0.68326 0.14961 0.86856 0.0
H1039 H 0.67199 0.11455 0.93086 0.0
C1040 C 0.65888 0.14038 0.85707 0.0
C1041 C 0.68809 0.14014 0.89557 0.0
C1042 C 0.71324 0.15012 0.9106 0.0
C1043 C 0.63928 0.12236 0.87189 0.0
C1044 C 0.64415 0.11288 0.89865 0.0
C1045 C 0.66853 0.1216 0.90991 0.0
C1046 C 0.6231 0.09594 0.91719 0.0
C1047 C 0.61318 0.11395 0.85942 0.0
C1048 C 0.60525 0.10548 0.93877 0.0
C1049 C 0.58325 0.08972 0.95289 0.0
C1050 C 0.5787 0.06406 0.94601 0.0
C1051 C 0.59731 0.05445 0.92605 0.0
C1052 C 0.61938 0.07037 0.91145 0.0
H1053 H 0.61359 0.11989 0.83511 0.0
H1054 H 0.60536 0.0936 0.85675 0.0
H1055 H 0.59994 0.12191 0.87784 0.0
H1056 H 0.60789 0.12514 0.94369 0.0
H1057 H 0.56944 0.09764 0.96878 0.0
H1058 H 0.85974 0.67471 0.84663 0.0
H1059 H 0.88019 0.64976 0.86827 0.0
H1060 H 0.91321 0.71198 0.94051 0.0
H1061 H 0.89182 0.73666 0.92029 0.0
H1062 H 0.93057 0.65572 0.87139 0.0
H1063 H 0.88088 0.65982 0.99948 0.0
H1064 H 0.87058 0.66954 0.9661 0.0
H1065 H 0.89735 0.68945 0.98747 0.0
C1066 C 0.87099 0.68302 0.86749 0.0
C1067 C 0.87392 0.70774 0.8818 0.0
C1068 C 0.88286 0.66876 0.87966 0.0
C1069 C 0.89788 0.67884 0.90645 0.0
C1070 C 0.90124 0.70359 0.92036 0.0
H1071 H 0.98449 0.61191 1.00477 0.0
H1072 H 0.96713 0.6418 0.9884 0.0
C1073 C 0.88927 0.71781 0.90838 0.0
C1074 C 0.9104 0.66356 0.91933 0.0
H1075 H 0.91423 0.6411 0.98906 0.0
C1076 C 0.92696 0.65254 0.89712 0.0
C1077 C 0.90587 0.65953 0.953 0.0
C1078 C 0.88753 0.67001 0.97785 0.0
C1079 C 0.93898 0.63754 0.90756 0.0
C1080 C 0.93407 0.63316 0.94103 0.0
C1081 C 0.91801 0.64459 0.96347 0.0
C1082 C 0.94388 0.61525 0.9524 0.0
C1083 C 0.95686 0.62648 0.88264 0.0
C1084 C 0.93589 0.59039 0.93844 0.0
C1085 C 0.94555 0.57337 0.94782 0.0
C1086 C 0.96352 0.5808 0.97142 0.0
C1087 C 0.97085 0.60562 0.98636 0.0
C1088 C 0.96098 0.6227 0.97702 0.0
H1089 H 0.9642 0.63695 0.86134 0.0
H1090 H 0.97336 0.62594 0.8945 0.0
H1091 H 0.9464 0.60733 0.87259 0.0
H1092 H 0.92229 0.58414 0.91996 0.0
H1093 H 0.93927 0.55442 0.9359 0.0
H1094 H 0.15024 0.28097 0.10644 0.0
H1095 H 0.13037 0.30638 0.08476 0.0
H1096 H 0.1832 0.37196 0.13106 0.0
H1097 H 0.2029 0.34677 0.15345 0.0
H1098 H 0.1074 0.34316 0.11888 0.0
H1099 H 0.19184 0.38131 0.03231 0.0
H1100 H 0.18853 0.3548 0.05164 0.0
H1101 H 0.19846 0.38526 0.07482 0.0
C1102 C 0.1575 0.3008 0.11239 0.0
C1103 C 0.17836 0.31176 0.13157 0.0
C1104 C 0.14617 0.31529 0.09979 0.0
C1105 C 0.15557 0.34105 0.1058 0.0
C1106 C 0.17599 0.3521 0.12549 0.0
H1107 H 0.12244 0.46615 0.06361 0.0
H1108 H 0.1395 0.43611 0.07868 0.0
C1109 C 0.18728 0.33764 0.13821 0.0
C1110 C 0.14407 0.35638 0.09145 0.0
H1111 H 0.1581 0.39956 0.03965 0.0
C1112 C 0.11837 0.35534 0.10132 0.0
C1113 C 0.15842 0.37219 0.06845 0.0
C1114 C 0.18578 0.37337 0.05589 0.0
C1115 C 0.10693 0.37039 0.08978 0.0
C1116 C 0.12145 0.38652 0.06723 0.0
C1117 C 0.14697 0.38714 0.05684 0.0
C1118 C 0.11124 0.40434 0.05618 0.0
C1119 C 0.07974 0.36964 0.10285 0.0
C1120 C 0.08999 0.3965 0.03766 0.0
C1121 C 0.08007 0.41375 0.02889 0.0
C1122 C 0.09129 0.43912 0.03854 0.0
C1123 C 0.11314 0.44679 0.05596 0.0
C1124 C 0.12299 0.42962 0.06462 0.0
H1125 H 0.07302 0.35999 0.12498 0.0
H1126 H 0.07789 0.38855 0.10973 0.0
H1127 H 0.06698 0.3597 0.0831 0.0
H1128 H 0.08094 0.37706 0.03025 0.0
H1129 H 0.06334 0.40723 0.01527 0.0
H1130 H 0.20627 0.72397 0.8209 0.0
H1131 H 0.17556 0.69278 0.85097 0.0
H1132 H 0.22477 0.64598 0.824 0.0
H1133 H 0.25587 0.67721 0.79399 0.0
H1134 H 0.15088 0.64512 0.82242 0.0
H1135 H 0.20547 0.64334 0.92428 0.0
H1136 H 0.21491 0.66823 0.89994 0.0
H1137 H 0.22123 0.63953 0.88284 0.0
C1138 C 0.21085 0.70723 0.82164 0.0
C1139 C 0.23369 0.70324 0.80491 0.0
C1140 C 0.19318 0.68936 0.83888 0.0
C1141 C 0.19792 0.66711 0.8401 0.0
C1142 C 0.22087 0.66317 0.82397 0.0
H1143 H 0.0961 0.53762 0.92823 0.0
H1144 H 0.13362 0.56586 0.90081 0.0
C1145 C 0.23858 0.68104 0.80661 0.0
C1146 C 0.17794 0.64752 0.85626 0.0
H1147 H 0.1647 0.61389 0.92039 0.0
C1148 C 0.15396 0.63829 0.84381 0.0
C1149 C 0.182 0.63836 0.88394 0.0
C1150 C 0.20721 0.64795 0.8988 0.0
C1151 C 0.1339 0.6204 0.85833 0.0
C1152 C 0.13762 0.61177 0.88671 0.0
C1153 C 0.16182 0.62048 0.89871 0.0
C1154 C 0.11599 0.59498 0.90521 0.0
C1155 C 0.10888 0.61085 0.84293 0.0
C1156 C 0.09402 0.6022 0.9177 0.0
C1157 C 0.07261 0.58602 0.93237 0.0
C1158 C 0.07277 0.56236 0.93585 0.0
C1159 C 0.0953 0.55557 0.92532 0.0
C1160 C 0.11673 0.57172 0.90984 0.0
H1161 H 0.1116 0.61311 0.81622 0.0
H1162 H 0.09957 0.59109 0.84493 0.0
H1163 H 0.09578 0.62147 0.85609 0.0
H1164 H 0.09326 0.62033 0.91565 0.0
H1165 H 0.05587 0.59217 0.9413 0.0
H1166 H 0.37348 0.18543 0.83895 0.0
H1167 H 0.40007 0.16468 0.8578 0.0
H1168 H 0.35365 0.16161 0.9521 0.0
H1169 H 0.32729 0.18255 0.93382 0.0
H1170 H 0.42851 0.17688 0.91478 0.0
H1171 H 0.35039 0.08912 0.91619 0.0
H1172 H 0.34919 0.11352 0.89546 0.0
H1173 H 0.34167 0.11526 0.93986 0.0
C1174 C 0.36912 0.18063 0.86387 0.0
C1175 C 0.34799 0.18541 0.88471 0.0
C1176 C 0.38429 0.1687 0.87453 0.0
C1177 C 0.37856 0.16126 0.90614 0.0
C1178 C 0.35809 0.16675 0.92736 0.0
H1179 H 0.47106 0.10644 0.01183 0.0
H1180 H 0.44778 0.13179 0.99589 0.0
C1181 C 0.34298 0.17866 0.91679 0.0
C1182 C 0.39345 0.14722 0.91689 0.0
H1183 H 0.38727 0.09235 0.94146 0.0
C1184 C 0.41956 0.15839 0.92059 0.0
C1185 C 0.3818 0.12295 0.92395 0.0
C1186 C 0.35429 0.10937 0.91837 0.0
C1187 C 0.4342 0.14604 0.93175 0.0
C1188 C 0.42225 0.12212 0.93994 0.0
C1189 C 0.39626 0.11088 0.93579 0.0
C1190 C 0.43668 0.10746 0.95018 0.0
C1191 C 0.46241 0.15836 0.93388 0.0
C1192 C 0.43761 0.08521 0.93027 0.0
C1193 C 0.45042 0.07067 0.93948 0.0
C1194 C 0.46278 0.07802 0.96886 0.0
C1195 C 0.46184 0.10033 0.989 0.0
C1196 C 0.44872 0.11489 0.9798 0.0
H1197 H 0.46962 0.1745 0.92037 0.0
H1198 H 0.46597 0.16483 0.96041 0.0
H1199 H 0.4735 0.14518 0.92344 0.0
H1200 H 0.42845 0.07911 0.90736 0.0
H1201 H 0.45082 0.0537 0.92319 0.0
H1202 H 0.84589 0.28588 0.83076 0.0
H1203 H 0.87224 0.31617 0.87056 0.0
H1204 H 0.82018 0.35996 0.88448 0.0
H1205 H 0.79329 0.32918 0.84428 0.0
H1206 H 0.87179 0.38413 0.86287 0.0
H1207 H 0.86808 0.33883 0.97144 0.0
H1208 H 0.87236 0.31989 0.93231 0.0
H1209 H 0.84326 0.32841 0.94348 0.0
C1210 C 0.83965 0.30165 0.84291 0.0
C1211 C 0.81768 0.30533 0.8343 0.0
C1212 C 0.85464 0.31885 0.86592 0.0
C1213 C 0.84809 0.34022 0.88076 0.0
C1214 C 0.82542 0.34344 0.87351 0.0
H1215 H 0.96258 0.47324 0.96673 0.0
H1216 H 0.92161 0.44525 0.94983 0.0
C1217 C 0.81008 0.32589 0.85066 0.0
C1218 C 0.86714 0.36047 0.89935 0.0
H1219 H 0.90587 0.37246 0.96148 0.0
C1220 C 0.87885 0.38193 0.88497 0.0
C1221 C 0.87655 0.35731 0.92782 0.0
C1222 C 0.86425 0.33494 0.94486 0.0
C1223 C 0.9007 0.39965 0.89702 0.0
C1224 C 0.91068 0.3961 0.92482 0.0
C1225 C 0.89824 0.37515 0.94015 0.0
C1226 C 0.93498 0.41302 0.93683 0.0
C1227 C 0.91388 0.42115 0.87851 0.0
C1228 C 0.95588 0.40408 0.93611 0.0
C1229 C 0.97919 0.41993 0.94616 0.0
C1230 C 0.98211 0.44512 0.95692 0.0
C1231 C 0.96106 0.45401 0.95803 0.0
C1232 C 0.93764 0.43805 0.94835 0.0
H1233 H 0.9069 0.41838 0.85368 0.0
H1234 H 0.91012 0.43805 0.89321 0.0
H1235 H 0.93488 0.42423 0.87499 0.0
H1236 H 0.95428 0.38484 0.92728 0.0
H1237 H 0.99503 0.41251 0.945 0.0
H1238 H 0.76185 0.82597 0.8493 0.0
H1239 H 0.73649 0.85328 0.87787 0.0
H1240 H 0.68638 0.8278 0.79969 0.0
H1241 H 0.71135 0.80039 0.77127 0.0
H1242 H 0.72547 0.89195 0.86007 0.0
H1243 H 0.63443 0.8191 0.88004 0.0
H1244 H 0.66437 0.81228 0.86679 0.0
H1245 H 0.64703 0.81804 0.83706 0.0
C1246 C 0.74541 0.82607 0.83812 0.0
C1247 C 0.73881 0.81062 0.80781 0.0
C1248 C 0.73082 0.84182 0.85459 0.0
C1249 C 0.70898 0.84257 0.84157 0.0
C1250 C 0.7026 0.8274 0.81107 0.0
H1251 H 0.59204 0.91886 0.89205 0.0
H1252 H 0.62033 0.89382 0.86864 0.0
C1253 C 0.71716 0.81171 0.79457 0.0
C1254 C 0.69321 0.85941 0.85933 0.0
H1255 H 0.63214 0.86023 0.89003 0.0
C1256 C 0.70508 0.88493 0.86682 0.0
C1257 C 0.66649 0.85062 0.86844 0.0
C1258 C 0.65234 0.8235 0.863 0.0
C1259 C 0.6911 0.90172 0.88167 0.0
C1260 C 0.66428 0.89299 0.89041 0.0
C1261 C 0.65255 0.86736 0.88348 0.0
C1262 C 0.64771 0.90987 0.90502 0.0
C1263 C 0.70523 0.92883 0.88651 0.0
C1264 C 0.65317 0.9279 0.93366 0.0
C1265 C 0.6369 0.94282 0.94708 0.0
C1266 C 0.61442 0.93995 0.93258 0.0
C1267 C 0.60914 0.92196 0.90402 0.0
C1268 C 0.62539 0.90734 0.89055 0.0
H1269 H 0.72349 0.93298 0.87012 0.0
H1270 H 0.69344 0.93983 0.88132 0.0
H1271 H 0.70987 0.93478 0.91271 0.0
H1272 H 0.66968 0.93006 0.9463 0.0
H1273 H 0.64141 0.95593 0.9695 0.0
H1274 H 0.83934 0.71379 0.24656 0.0
H1275 H 0.86458 0.68688 0.21745 0.0
H1276 H 0.83635 0.68641 0.12506 0.0
H1277 H 0.81235 0.71471 0.15395 0.0
H1278 H 0.85569 0.6438 0.1896 0.0
H1279 H 0.90659 0.69563 0.0871 0.0
H1280 H 0.88766 0.70835 0.12112 0.0
H1281 H 0.87269 0.68744 0.08643 0.0
C1282 C 0.83873 0.7083 0.21991 0.0
C1283 C 0.82382 0.71689 0.20278 0.0
C1284 C 0.85324 0.69264 0.2031 0.0
C1285 C 0.85323 0.68451 0.16843 0.0
C1286 C 0.83793 0.6928 0.15136 0.0
H1287 H 0.92069 0.57211 0.03957 0.0
H1288 H 0.89269 0.59823 0.06379 0.0
C1289 C 0.82385 0.70898 0.1681 0.0
C1290 C 0.86837 0.66678 0.15102 0.0
H1291 H 0.90967 0.65505 0.08249 0.0
C1292 C 0.86753 0.64657 0.16627 0.0
C1293 C 0.88414 0.66973 0.12028 0.0
C1294 C 0.88806 0.69159 0.10297 0.0
C1295 C 0.8816 0.62976 0.15216 0.0
C1296 C 0.89706 0.63263 0.12146 0.0
C1297 C 0.8977 0.65248 0.1058 0.0
C1298 C 0.91376 0.61609 0.10648 0.0
C1299 C 0.87982 0.60889 0.17035 0.0
C1300 C 0.93515 0.61716 0.12197 0.0
C1301 C 0.95131 0.6025 0.10791 0.0
C1302 C 0.94647 0.58574 0.07817 0.0
C1303 C 0.9248 0.5843 0.06283 0.0
C1304 C 0.90887 0.59947 0.07658 0.0
H1305 H 0.86317 0.60587 0.1896 0.0
H1306 H 0.87831 0.59154 0.15264 0.0
H1307 H 0.89745 0.61326 0.18289 0.0
H1308 H 0.93968 0.62979 0.14479 0.0
H1309 H 0.96787 0.6044 0.12037 0.0
H1310 H 0.33896 0.83402 0.23755 0.0
H1311 H 0.36765 0.86666 0.20796 0.0
H1312 H 0.33297 0.83027 0.11729 0.0
H1313 H 0.30281 0.7986 0.14785 0.0
H1314 H 0.4028 0.86576 0.16139 0.0
H1315 H 0.33258 0.89723 0.11241 0.0
H1316 H 0.32298 0.87588 0.14203 0.0
H1317 H 0.32928 0.86526 0.09829 0.0
C1318 C 0.33736 0.83322 0.21136 0.0
C1319 C 0.31871 0.81408 0.19488 0.0
C1320 C 0.35373 0.85183 0.19444 0.0
C1321 C 0.35222 0.85132 0.16045 0.0
C1322 C 0.33393 0.8317 0.14374 0.0
H1323 H 0.46479 0.92525 0.0186 0.0
H1324 H 0.42672 0.89919 0.04679 0.0
C1325 C 0.31691 0.81346 0.16104 0.0
C1326 C 0.37075 0.87076 0.1426 0.0
H1327 H 0.37629 0.91245 0.09087 0.0
C1328 C 0.39685 0.87615 0.1464 0.0
C1329 C 0.36314 0.88435 0.12281 0.0
C1330 C 0.33544 0.88055 0.1189 0.0
C1331 C 0.41542 0.8945 0.13091 0.0
C1332 C 0.4078 0.90765 0.11076 0.0
C1333 C 0.38189 0.90237 0.10667 0.0
C1334 C 0.42703 0.92555 0.09183 0.0
C1335 C 0.44321 0.89948 0.13558 0.0
C1336 C 0.43902 0.94938 0.10746 0.0
C1337 C 0.46061 0.96449 0.09116 0.0
C1338 C 0.47045 0.95562 0.05941 0.0
C1339 C 0.4574 0.93241 0.04311 0.0
C1340 C 0.43572 0.91755 0.05912 0.0
H1341 H 0.44606 0.887 0.15117 0.0
H1342 H 0.45444 0.89729 0.11098 0.0
H1343 H 0.45097 0.91878 0.14768 0.0
H1344 H 0.43253 0.95569 0.13285 0.0
H1345 H 0.47062 0.98222 0.10424 0.0
H1346 H 0.72988 0.24028 0.16499 0.0
H1347 H 0.69485 0.21022 0.13639 0.0
H1348 H 0.70531 0.15264 0.18061 0.0
H1349 H 0.7404 0.18253 0.2095 0.0
H1350 H 0.69881 0.14471 0.10469 0.0
H1351 H 0.62398 0.17594 0.19236 0.0
H1352 H 0.65185 0.19896 0.17771 0.0
H1353 H 0.65504 0.17929 0.20461 0.0
C1354 C 0.72506 0.22116 0.16821 0.0
C1355 C 0.73794 0.21378 0.18948 0.0
C1356 C 0.70495 0.20409 0.15204 0.0
C1357 C 0.69742 0.17943 0.15689 0.0
C1358 C 0.71092 0.1717 0.17678 0.0
H1359 H 0.58038 0.04938 0.08104 0.0
H1360 H 0.61683 0.07853 0.10797 0.0
C1361 C 0.73107 0.18876 0.193 0.0
C1362 C 0.67515 0.1618 0.14148 0.0
H1363 H 0.61003 0.14534 0.14673 0.0
C1364 C 0.67938 0.1447 0.11387 0.0
C1365 C 0.64996 0.16213 0.15364 0.0
C1366 C 0.6447 0.17994 0.18381 0.0
C1367 C 0.6589 0.12798 0.09763 0.0
C1368 C 0.63367 0.12816 0.10985 0.0
C1369 C 0.62945 0.1453 0.13753 0.0
C1370 C 0.61141 0.11064 0.09405 0.0
C1371 C 0.66439 0.11064 0.06704 0.0
C1372 C 0.59614 0.11919 0.07785 0.0
C1373 C 0.57528 0.10263 0.06249 0.0
C1374 C 0.56927 0.07721 0.06323 0.0
C1375 C 0.58458 0.06878 0.07973 0.0
C1376 C 0.60542 0.08538 0.09512 0.0
H1377 H 0.68487 0.11613 0.0571 0.0
H1378 H 0.65947 0.09182 0.07346 0.0
H1379 H 0.65255 0.10993 0.04715 0.0
H1380 H 0.60053 0.13866 0.07683 0.0
H1381 H 0.56395 0.10977 0.04995 0.0
H1382 H 0.72579 0.71956 0.84594 0.0
H1383 H 0.69475 0.68607 0.8718 0.0
H1384 H 0.68928 0.63938 0.77648 0.0
H1385 H 0.72034 0.67299 0.75006 0.0
H1386 H 0.63965 0.6532 0.83785 0.0
H1387 H 0.70971 0.60865 0.86173 0.0
H1388 H 0.71843 0.64147 0.86179 0.0
H1389 H 0.71344 0.62089 0.82332 0.0
C1390 C 0.71809 0.70218 0.83037 0.0
C1391 C 0.72564 0.69893 0.79589 0.0
C1392 C 0.70032 0.68309 0.84524 0.0
C1393 C 0.68992 0.6603 0.82606 0.0
C1394 C 0.69723 0.65689 0.79165 0.0
H1395 H 0.56205 0.53667 0.87647 0.0
H1396 H 0.59721 0.56547 0.84764 0.0
C1397 C 0.7149 0.67611 0.77662 0.0
C1398 C 0.67121 0.64025 0.84225 0.0
H1399 H 0.66635 0.59103 0.88014 0.0
C1400 C 0.64539 0.63948 0.8469 0.0
C1401 C 0.67895 0.62273 0.85445 0.0
C1402 C 0.70664 0.62328 0.85027 0.0
C1403 C 0.627 0.62149 0.86342 0.0
C1404 C 0.63464 0.60368 0.87526 0.0
C1405 C 0.66055 0.60462 0.87088 0.0
C1406 C 0.61573 0.58399 0.89208 0.0
C1407 C 0.59956 0.62192 0.86872 0.0
C1408 C 0.61526 0.58402 0.92639 0.0
C1409 C 0.59527 0.56735 0.94296 0.0
C1410 C 0.57542 0.55052 0.92542 0.0
C1411 C 0.57691 0.54958 0.89072 0.0
C1412 C 0.59693 0.56607 0.87421 0.0
H1413 H 0.59767 0.63949 0.86389 0.0
H1414 H 0.58811 0.60667 0.85148 0.0
H1415 H 0.59131 0.61919 0.8946 0.0
H1416 H 0.62967 0.59769 0.94059 0.0
H1417 H 0.59456 0.56863 0.96974 0.0
H1418 H 0.38113 0.70188 0.86397 0.0
H1419 H 0.39768 0.68226 0.89998 0.0
H1420 H 0.36899 0.61186 0.83959 0.0
H1421 H 0.35223 0.63121 0.8037 0.0
H1422 H 0.37038 0.63103 0.93179 0.0
H1423 H 0.4532 0.63659 0.83442 0.0
H1424 H 0.43349 0.65694 0.83962 0.0
H1425 H 0.42167 0.62551 0.82064 0.0
C1426 C 0.37778 0.68213 0.85896 0.0
C1427 C 0.36582 0.66805 0.83083 0.0
C1428 C 0.38721 0.67101 0.87948 0.0
C1429 C 0.38461 0.64578 0.87207 0.0
C1430 C 0.37115 0.63142 0.84542 0.0
H1431 H 0.43558 0.53495 0.91745 0.0
H1432 H 0.41304 0.56087 0.9026 0.0
C1433 C 0.3618 0.64249 0.8249 0.0
C1434 C 0.3986 0.63484 0.88928 0.0
H1435 H 0.45048 0.61345 0.87726 0.0
C1436 C 0.38813 0.62754 0.92029 0.0
C1437 C 0.42158 0.63027 0.87381 0.0
C1438 C 0.43334 0.63782 0.84035 0.0
C1439 C 0.39977 0.61481 0.93577 0.0
C1440 C 0.42236 0.6097 0.91985 0.0
C1441 C 0.43323 0.61772 0.88939 0.0
C1442 C 0.43382 0.594 0.93257 0.0
C1443 C 0.38716 0.60562 0.96791 0.0
C1444 C 0.45271 0.60426 0.95458 0.0
C1445 C 0.46573 0.58953 0.96316 0.0
C1446 C 0.46008 0.56446 0.94948 0.0
C1447 C 0.44049 0.5542 0.92828 0.0
C1448 C 0.4275 0.56891 0.91986 0.0
H1449 H 0.37306 0.61528 0.98059 0.0
H1450 H 0.37716 0.58563 0.96256 0.0
H1451 H 0.40168 0.60797 0.98495 0.0
H1452 H 0.45784 0.62373 0.96431 0.0
H1453 H 0.48063 0.5979 0.9797 0.0
H1454 H 0.33534 0.34238 0.77975 0.0
H1455 H 0.36624 0.37227 0.81549 0.0
H1456 H 0.38609 0.31294 0.84359 0.0
H1457 H 0.35589 0.28315 0.80779 0.0
H1458 H 0.36616 0.37406 0.88596 0.0
H1459 H 0.45532 0.36012 0.81453 0.0
H1460 H 0.42528 0.35066 0.79659 0.0
H1461 H 0.43145 0.33211 0.82299 0.0
C1462 C 0.34664 0.33577 0.79309 0.0
C1463 C 0.34329 0.31044 0.79086 0.0
C1464 C 0.3641 0.35282 0.81362 0.0
C1465 C 0.37848 0.34472 0.83186 0.0
C1466 C 0.37542 0.31952 0.82926 0.0
H1467 H 0.49106 0.4111 0.9731 0.0
H1468 H 0.45602 0.38247 0.94249 0.0
C1469 C 0.3581 0.30253 0.80881 0.0
C1470 C 0.39633 0.36237 0.85445 0.0
H1471 H 0.45894 0.3821 0.86952 0.0
C1472 C 0.38648 0.37603 0.88232 0.0
C1473 C 0.42274 0.3647 0.84952 0.0
C1474 C 0.43442 0.35131 0.81913 0.0
C1475 C 0.40247 0.3917 0.90588 0.0
C1476 C 0.42879 0.39367 0.90115 0.0
C1477 C 0.43861 0.38016 0.87319 0.0
C1478 C 0.44701 0.4109 0.92359 0.0
C1479 C 0.39117 0.40577 0.93585 0.0
C1480 C 0.45315 0.43621 0.9232 0.0
C1481 C 0.4732 0.45247 0.94021 0.0
C1482 C 0.48746 0.44367 0.95791 0.0
C1483 C 0.4805 0.41836 0.95953 0.0
C1484 C 0.4605 0.40204 0.9422 0.0
H1485 H 0.36998 0.39858 0.93924 0.0
H1486 H 0.39896 0.4049 0.95881 0.0
H1487 H 0.39644 0.4254 0.93263 0.0
H1488 H 0.44313 0.44328 0.90858 0.0
H1489 H 0.47791 0.47191 0.93874 0.0
H1490 H 0.62854 0.28328 0.87815 0.0
H1491 H 0.62301 0.31472 0.92501 0.0
H1492 H 0.70062 0.32858 0.946 0.0
H1493 H 0.70643 0.29753 0.89979 0.0
H1494 H 0.6422 0.34173 0.99698 0.0
H1495 H 0.6921 0.37716 0.87937 0.0
H1496 H 0.67316 0.34556 0.87893 0.0
H1497 H 0.70339 0.35622 0.89595 0.0
C1498 C 0.64385 0.29195 0.89403 0.0
C1499 C 0.6681 0.2887 0.88463 0.0
C1500 C 0.64064 0.30971 0.92094 0.0
C1501 C 0.66177 0.32418 0.9379 0.0
C1502 C 0.68427 0.31748 0.9329 0.0
H1503 H 0.63157 0.46679 1.00448 0.0
H1504 H 0.66117 0.4418 0.99707 0.0
C1505 C 0.68747 0.29967 0.90622 0.0
C1506 C 0.66316 0.34984 0.94996 0.0
H1507 H 0.67302 0.40267 0.91819 0.0
C1508 C 0.64994 0.35555 0.98059 0.0
C1509 C 0.67294 0.36741 0.92778 0.0
C1510 C 0.68617 0.36143 0.89361 0.0
C1511 C 0.64392 0.37772 0.98827 0.0
C1512 C 0.65197 0.39445 0.96506 0.0
C1513 C 0.66758 0.38988 0.93609 0.0
C1514 C 0.63773 0.41169 0.96515 0.0
C1515 C 0.62582 0.38145 0.0186 0.0
C1516 C 0.61557 0.40297 0.94862 0.0
C1517 C 0.59879 0.41687 0.95292 0.0
C1518 C 0.60415 0.43966 0.97362 0.0
C1519 C 0.62727 0.44922 0.98828 0.0
C1520 C 0.64407 0.43511 0.98416 0.0
H1521 H 0.62712 0.37123 0.03828 0.0
H1522 H 0.62981 0.40126 0.02858 0.0
H1523 H 0.60595 0.37458 0.0115 0.0
H1524 H 0.61061 0.3848 0.93389 0.0
H1525 H 0.58114 0.40932 0.94117 0.0
H1526 H 0.66404 0.31187 0.14392 0.0
H1527 H 0.64526 0.33232 0.11181 0.0
H1528 H 0.69094 0.40306 0.15661 0.0
H1529 H 0.71033 0.38282 0.18774 0.0
H1530 H 0.61667 0.3622 0.1422 0.0
H1531 H 0.69652 0.41353 0.06108 0.0
H1532 H 0.69891 0.38896 0.08054 0.0
H1533 H 0.70408 0.41965 0.10338 0.0
C1534 C 0.67064 0.33175 0.14608 0.0
C1535 C 0.68844 0.34579 0.16859 0.0
C1536 C 0.65982 0.34339 0.12787 0.0
C1537 C 0.66683 0.36918 0.13168 0.0
C1538 C 0.68559 0.38314 0.15279 0.0
H1539 H 0.61451 0.48546 0.09722 0.0
H1540 H 0.63573 0.45899 0.11329 0.0
C1541 C 0.69641 0.37156 0.17091 0.0
C1542 C 0.65236 0.38168 0.11733 0.0
H1543 H 0.65988 0.42885 0.0745 0.0
C1544 C 0.62598 0.37645 0.12681 0.0
C1545 C 0.66462 0.40036 0.09752 0.0
C1546 C 0.69255 0.40577 0.08476 0.0
C1547 C 0.6117 0.39019 0.11833 0.0
C1548 C 0.62416 0.40943 0.09948 0.0
C1549 C 0.65044 0.41428 0.08935 0.0
C1550 C 0.61049 0.42507 0.09022 0.0
C1551 C 0.58372 0.38468 0.13099 0.0
C1552 C 0.58937 0.41477 0.07158 0.0
C1553 C 0.57714 0.42989 0.06227 0.0
C1554 C 0.5859 0.45553 0.07147 0.0
C1555 C 0.60718 0.46575 0.08988 0.0
C1556 C 0.61937 0.45066 0.09908 0.0
H1557 H 0.57903 0.37456 0.15266 0.0
H1558 H 0.57801 0.40184 0.13847 0.0
H1559 H 0.57211 0.37295 0.11089 0.0
H1560 H 0.58254 0.39509 0.06382 0.0
H1561 H 0.56091 0.42149 0.04787 0.0
H1562 H 0.69467 0.73555 0.20553 0.0
H1563 H 0.66284 0.70459 0.17278 0.0
H1564 H 0.68716 0.64705 0.19826 0.0
H1565 H 0.71916 0.678 0.23149 0.0
H1566 H 0.6857 0.64876 0.12504 0.0
H1567 H 0.59579 0.65092 0.20535 0.0
H1568 H 0.61878 0.68039 0.20114 0.0
H1569 H 0.62637 0.65921 0.22172 0.0
C1570 C 0.69302 0.7163 0.20469 0.0
C1571 C 0.70946 0.70923 0.22108 0.0
C1572 C 0.6748 0.69866 0.18599 0.0
C1573 C 0.67271 0.67363 0.1832 0.0
C1574 C 0.68853 0.66634 0.20024 0.0
H1575 H 0.57862 0.54744 0.06445 0.0
H1576 H 0.61232 0.57554 0.09683 0.0
C1577 C 0.70666 0.68402 0.21933 0.0
C1578 C 0.65497 0.65547 0.16076 0.0
H1579 H 0.59168 0.6313 0.14945 0.0
C1580 C 0.66513 0.64469 0.13042 0.0
C1581 C 0.62823 0.65034 0.16798 0.0
C1582 C 0.6165 0.66062 0.20091 0.0
C1583 C 0.6491 0.62941 0.10658 0.0
C1584 C 0.62237 0.62488 0.11346 0.0
C1585 C 0.61224 0.63525 0.14408 0.0
C1586 C 0.60432 0.60843 0.09001 0.0
C1587 C 0.66078 0.61868 0.07391 0.0
C1588 C 0.58885 0.61771 0.07507 0.0
C1589 C 0.56943 0.60165 0.0564 0.0
C1590 C 0.56501 0.5761 0.05301 0.0
C1591 C 0.58131 0.56704 0.0669 0.0
C1592 C 0.60075 0.58305 0.08523 0.0
H1593 H 0.68177 0.62732 0.07014 0.0
H1594 H 0.65713 0.59865 0.07346 0.0
H1595 H 0.65185 0.62103 0.05279 0.0
H1596 H 0.59138 0.63733 0.07863 0.0
H1597 H 0.55727 0.60915 0.04587 0.0
H1598 H 0.42853 0.73295 0.15476 0.0
H1599 H 0.44158 0.7026 0.11262 0.0
H1600 H 0.38209 0.69968 0.05419 0.0
H1601 H 0.36982 0.73117 0.09554 0.0
H1602 H 0.3802 0.66507 0.11574 0.0
H1603 H 0.44681 0.66566 0.99929 0.0
H1604 H 0.45542 0.69027 0.03364 0.0
H1605 H 0.4289 0.68776 0.01168 0.0
C1606 C 0.41972 0.7276 0.1316 0.0
C1607 C 0.39714 0.73297 0.12912 0.0
C1608 C 0.42717 0.7101 0.10745 0.0
C1609 C 0.41196 0.69831 0.08129 0.0
C1610 C 0.39376 0.70844 0.07458 0.0
H1611 H 0.41987 0.55153 0.01162 0.0
H1612 H 0.39269 0.57889 0.02434 0.0
C1613 C 0.38678 0.72646 0.0983 0.0
C1614 C 0.40745 0.67172 0.07239 0.0
H1615 H 0.43265 0.62914 0.02377 0.0
C1616 C 0.39089 0.65686 0.09488 0.0
C1617 C 0.4215 0.66147 0.04539 0.0
C1618 C 0.43916 0.67698 0.02089 0.0
C1619 C 0.38965 0.63213 0.09241 0.0
C1620 C 0.40503 0.62227 0.06663 0.0
C1621 C 0.4202 0.63672 0.04285 0.0
C1622 C 0.41091 0.59966 0.06817 0.0
C1623 C 0.37372 0.61727 0.11878 0.0
C1624 C 0.42848 0.60129 0.09031 0.0
C1625 C 0.44426 0.58618 0.08273 0.0
C1626 C 0.44205 0.56911 0.05345 0.0
C1627 C 0.42176 0.56477 0.03429 0.0
C1628 C 0.40626 0.58028 0.04152 0.0
H1629 H 0.35849 0.62529 0.13209 0.0
H1630 H 0.36485 0.59793 0.10764 0.0
H1631 H 0.38623 0.61705 0.13735 0.0
H1632 H 0.43238 0.61633 0.11084 0.0
H1633 H 0.45975 0.58946 0.09788 0.0
H1634 H 0.30502 0.31991 0.17407 0.0
H1635 H 0.33637 0.35242 0.14694 0.0
H1636 H 0.38348 0.36902 0.22767 0.0
H1637 H 0.35242 0.33614 0.25485 0.0
H1638 H 0.35548 0.40213 0.16671 0.0
H1639 H 0.43295 0.35766 0.14657 0.0
H1640 H 0.40022 0.34172 0.15936 0.0
H1641 H 0.42039 0.36255 0.18941 0.0
C1642 C 0.32202 0.33043 0.18619 0.0
C1643 C 0.32626 0.32516 0.21657 0.0
C1644 C 0.33992 0.34909 0.1706 0.0
C1645 C 0.36251 0.36285 0.18491 0.0
C1646 C 0.36645 0.35825 0.21577 0.0
H1647 H 0.49516 0.48014 0.13226 0.0
H1648 H 0.46003 0.45086 0.15999 0.0
C1649 C 0.34855 0.33955 0.23142 0.0
C1650 C 0.38198 0.38184 0.1673 0.0
H1651 H 0.44439 0.39847 0.13439 0.0
C1652 C 0.37489 0.40128 0.15951 0.0
C1653 C 0.40724 0.38058 0.15759 0.0
C1654 C 0.41565 0.35939 0.16333 0.0
C1655 C 0.39258 0.41984 0.1431 0.0
C1656 C 0.41792 0.41881 0.13408 0.0
C1657 C 0.42494 0.39926 0.14152 0.0
C1658 C 0.4378 0.43817 0.11773 0.0
C1659 C 0.38425 0.4407 0.13616 0.0
C1660 C 0.43674 0.44107 0.08483 0.0
C1661 C 0.45694 0.45785 0.0687 0.0
C1662 C 0.47854 0.47196 0.08524 0.0
C1663 C 0.47892 0.46961 0.11865 0.0
C1664 C 0.45886 0.45281 0.1346 0.0
H1665 H 0.36545 0.44116 0.14987 0.0
H1666 H 0.39867 0.45863 0.14313 0.0
H1667 H 0.38261 0.43848 0.10908 0.0
H1668 H 0.42075 0.42974 0.07125 0.0
H1669 H 0.45605 0.45906 0.04294 0.0
H1670 H 0.80233 0.69554 0.65729 0.0
H1671 H 0.82788 0.66803 0.63019 0.0
H1672 H 0.87132 0.68819 0.71506 0.0
H1673 H 0.8455 0.71489 0.74254 0.0
H1674 H 0.87635 0.67377 0.60831 0.0
H1675 H 0.85555 0.61606 0.70756 0.0
H1676 H 0.83865 0.63809 0.70768 0.0
H1677 H 0.86946 0.64778 0.72361 0.0
C1678 C 0.81716 0.69399 0.67039 0.0
C1679 C 0.82141 0.70748 0.70251 0.0
C1680 C 0.83192 0.67819 0.65472 0.0
C1681 C 0.85143 0.67525 0.67059 0.0
C1682 C 0.856 0.68915 0.70235 0.0
H1683 H 0.97267 0.60413 0.62371 0.0
H1684 H 0.94333 0.62846 0.64624 0.0
C1685 C 0.84118 0.70473 0.71809 0.0
C1686 C 0.86734 0.65826 0.65393 0.0
H1687 H 0.891 0.61298 0.6674 0.0
C1688 C 0.87925 0.66033 0.62123 0.0
C1689 C 0.87134 0.64033 0.6702 0.0
C1690 C 0.85785 0.63523 0.70403 0.0
C1691 C 0.89548 0.64593 0.60522 0.0
C1692 C 0.90008 0.62865 0.62199 0.0
C1693 C 0.88785 0.62626 0.65437 0.0
C1694 C 0.91815 0.61354 0.60713 0.0
C1695 C 0.90826 0.64993 0.57075 0.0
C1696 C 0.91402 0.5965 0.57751 0.0
C1697 C 0.9308 0.58213 0.56463 0.0
C1698 C 0.95244 0.58457 0.58068 0.0
C1699 C 0.95648 0.60169 0.61025 0.0
C1700 C 0.93956 0.61571 0.62334 0.0
H1701 H 0.90767 0.66754 0.56434 0.0
H1702 H 0.92851 0.64995 0.56845 0.0
H1703 H 0.89821 0.6347 0.55225 0.0
H1704 H 0.89753 0.59395 0.56457 0.0
H1705 H 0.92676 0.56902 0.54217 0.0
H1706 H 0.30514 0.82368 0.67881 0.0
H1707 H 0.3362 0.85691 0.65241 0.0
H1708 H 0.39557 0.82342 0.65264 0.0
H1709 H 0.36462 0.7899 0.67851 0.0
H1710 H 0.37892 0.888 0.68322 0.0
H1711 H 0.40847 0.84212 0.5587 0.0
H1712 H 0.3794 0.82828 0.58345 0.0
H1713 H 0.40973 0.82802 0.59355 0.0
C1714 C 0.32471 0.82316 0.67278 0.0
C1715 C 0.33241 0.80417 0.68089 0.0
C1716 C 0.34242 0.84213 0.65763 0.0
C1717 C 0.36813 0.84252 0.65033 0.0
C1718 C 0.37573 0.82321 0.6574 0.0
H1719 H 0.50112 0.95503 0.57382 0.0
H1720 H 0.4736 0.91776 0.59585 0.0
C1721 C 0.35799 0.80411 0.67233 0.0
C1722 C 0.38732 0.86439 0.6386 0.0
H1723 H 0.43138 0.88391 0.57419 0.0
C1724 C 0.39036 0.88712 0.65934 0.0
C1725 C 0.40253 0.86308 0.60774 0.0
C1726 C 0.39983 0.83912 0.58438 0.0
C1727 C 0.4081 0.90867 0.65007 0.0
C1728 C 0.42275 0.9076 0.61869 0.0
C1729 C 0.42012 0.88474 0.5982 0.0
C1730 C 0.43979 0.93019 0.60606 0.0
C1731 C 0.4111 0.93229 0.67432 0.0
C1732 C 0.4299 0.94938 0.6042 0.0
C1733 C 0.44564 0.97078 0.59261 0.0
C1734 C 0.47151 0.97322 0.5816 0.0
C1735 C 0.48135 0.95377 0.5826 0.0
C1736 C 0.46563 0.93246 0.59497 0.0
H1737 H 0.40564 0.9286 0.70043 0.0
H1738 H 0.43106 0.94455 0.67238 0.0
H1739 H 0.39826 0.94213 0.6689 0.0
H1740 H 0.40984 0.9477 0.61132 0.0
H1741 H 0.43727 0.9851 0.59117 0.0
H1742 H 0.23002 0.3728 0.65431 0.0
H1743 H 0.20218 0.39296 0.63766 0.0
H1744 H 0.15847 0.3233 0.58765 0.0
H1745 H 0.18642 0.30291 0.60414 0.0
H1746 H 0.19539 0.3944 0.57263 0.0
H1747 H 0.10283 0.35171 0.64248 0.0
H1748 H 0.13296 0.35002 0.65196 0.0
H1749 H 0.11789 0.33029 0.61683 0.0
C1750 C 0.21452 0.36172 0.63971 0.0
C1751 C 0.21061 0.33625 0.63035 0.0
C1752 C 0.19851 0.37327 0.63039 0.0
C1753 C 0.17809 0.35965 0.61165 0.0
C1754 C 0.17381 0.33413 0.60265 0.0
H1755 H 0.07307 0.40939 0.52069 0.0
H1756 H 0.0945 0.3838 0.53992 0.0
C1757 C 0.18984 0.32251 0.61204 0.0
C1758 C 0.16249 0.37258 0.59986 0.0
H1759 H 0.1021 0.37766 0.60459 0.0
C1760 C 0.17499 0.39071 0.57963 0.0
C1761 C 0.13584 0.3677 0.60888 0.0
C1762 C 0.12154 0.34903 0.63146 0.0
C1763 C 0.16167 0.40408 0.56814 0.0
C1764 C 0.1351 0.39951 0.57756 0.0
C1765 C 0.12245 0.38111 0.59736 0.0
C1766 C 0.12055 0.41443 0.56805 0.0
C1767 C 0.1762 0.42287 0.54574 0.0
C1768 C 0.12751 0.43995 0.57835 0.0
C1769 C 0.11552 0.45449 0.56728 0.0
C1770 C 0.09596 0.44382 0.54606 0.0
C1771 C 0.08804 0.4181 0.53707 0.0
C1772 C 0.10029 0.4035 0.54798 0.0
H1773 H 0.1942 0.41921 0.53332 0.0
H1774 H 0.16443 0.42313 0.52629 0.0
H1775 H 0.18137 0.44142 0.56093 0.0
H1776 H 0.14262 0.44872 0.59451 0.0
H1777 H 0.12185 0.47422 0.57506 0.0
H1778 H 0.74468 0.23092 0.65128 0.0
H1779 H 0.71112 0.20147 0.61934 0.0
H1780 H 0.71261 0.1442 0.67183 0.0
H1781 H 0.74626 0.17349 0.70391 0.0
H1782 H 0.71292 0.15495 0.57824 0.0
H1783 H 0.63584 0.1446 0.68303 0.0
H1784 H 0.66455 0.17042 0.68382 0.0
H1785 H 0.66529 0.14121 0.69178 0.0
C1786 C 0.73808 0.21199 0.6558 0.0
C1787 C 0.74827 0.20448 0.67996 0.0
C1788 C 0.71884 0.19526 0.63763 0.0
C1789 C 0.70923 0.17082 0.64358 0.0
C1790 C 0.71962 0.16311 0.66721 0.0
H1791 H 0.62745 0.03572 0.53705 0.0
H1792 H 0.65864 0.07241 0.56185 0.0
C1793 C 0.73904 0.17979 0.68522 0.0
C1794 C 0.6887 0.15319 0.62456 0.0
H1795 H 0.62752 0.11559 0.63358 0.0
C1796 C 0.69416 0.14649 0.59022 0.0
C1797 C 0.66413 0.14261 0.64021 0.0
C1798 C 0.65691 0.15018 0.67669 0.0
C1799 C 0.67602 0.12849 0.57137 0.0
C1800 C 0.65198 0.11685 0.58743 0.0
C1801 C 0.64607 0.12445 0.62143 0.0
C1802 C 0.63349 0.09542 0.57011 0.0
C1803 C 0.68277 0.12184 0.53451 0.0
C1804 C 0.60888 0.09616 0.56693 0.0
C1805 C 0.59084 0.07509 0.55303 0.0
C1806 C 0.59718 0.05298 0.5422 0.0
C1807 C 0.62202 0.05251 0.54489 0.0
C1808 C 0.63993 0.07349 0.55891 0.0
H1809 H 0.69882 0.13662 0.52451 0.0
H1810 H 0.68874 0.10482 0.53008 0.0
H1811 H 0.66603 0.11829 0.52047 0.0
H1812 H 0.60358 0.11295 0.57555 0.0
H1813 H 0.57192 0.07604 0.55097 0.0
H1814 H 0.8384 0.29352 0.32836 0.0
H1815 H 0.86999 0.32403 0.36169 0.0
H1816 H 0.81537 0.36415 0.40018 0.0
H1817 H 0.78347 0.33367 0.36574 0.0
H1818 H 0.88341 0.37847 0.3555 0.0
H1819 H 0.85072 0.35215 0.48205 0.0
H1820 H 0.84256 0.3308 0.44436 0.0
H1821 H 0.82698 0.3543 0.45813 0.0
C1822 C 0.8329 0.30855 0.34444 0.0
C1823 C 0.80849 0.3112 0.34499 0.0
C1824 C 0.85098 0.32595 0.36328 0.0
C1825 C 0.84476 0.34598 0.38347 0.0
C1826 C 0.82022 0.34852 0.3848 0.0
H1827 H 0.92526 0.4775 0.49775 0.0
H1828 H 0.89442 0.4398 0.475 0.0
C1829 C 0.80216 0.33128 0.36525 0.0
C1830 C 0.86478 0.36506 0.40109 0.0
H1831 H 0.88564 0.38821 0.4778 0.0
C1832 C 0.88404 0.38063 0.38221 0.0
C1833 C 0.86544 0.36734 0.43573 0.0
C1834 C 0.84545 0.35021 0.45642 0.0
C1835 C 0.90377 0.39917 0.39741 0.0
C1836 C 0.90424 0.4018 0.43224 0.0
C1837 C 0.88517 0.38591 0.45105 0.0
C1838 C 0.92299 0.42255 0.44975 0.0
C1839 C 0.92343 0.41633 0.3763 0.0
C1840 C 0.94918 0.42481 0.44378 0.0
C1841 C 0.96695 0.44648 0.45644 0.0
C1842 C 0.95863 0.46598 0.47536 0.0
C1843 C 0.93229 0.46292 0.48295 0.0
C1844 C 0.91462 0.44136 0.47017 0.0
H1845 H 0.91784 0.41426 0.35082 0.0
H1846 H 0.92636 0.43578 0.38817 0.0
H1847 H 0.94197 0.41228 0.37399 0.0
H1848 H 0.95585 0.4102 0.42839 0.0
H1849 H 0.98713 0.44817 0.45071 0.0
H1850 H 0.71593 0.81415 0.26631 0.0
H1851 H 0.69022 0.84068 0.29558 0.0
H1852 H 0.708 0.83126 0.38977 0.0
H1853 H 0.73375 0.80438 0.36052 0.0
H1854 H 0.64678 0.83 0.34271 0.0
H1855 H 0.72452 0.9069 0.39891 0.0
H1856 H 0.73084 0.88353 0.36574 0.0
H1857 H 0.72195 0.87689 0.40764 0.0
C1858 C 0.7145 0.81764 0.29329 0.0
C1859 C 0.72714 0.80685 0.31081 0.0
C1860 C 0.69966 0.83294 0.3101 0.0
C1861 C 0.69718 0.8385 0.34512 0.0
C1862 C 0.70974 0.82777 0.3628 0.0
H1863 H 0.61794 0.93895 0.47915 0.0
H1864 H 0.6444 0.91129 0.45662 0.0
C1865 C 0.72437 0.81213 0.34596 0.0
C1866 C 0.68082 0.85479 0.36267 0.0
H1867 H 0.68257 0.91005 0.4126 0.0
C1868 C 0.65469 0.84749 0.35798 0.0
C1869 C 0.69072 0.87762 0.38315 0.0
C1870 C 0.71857 0.88691 0.38909 0.0
C1871 C 0.63838 0.86197 0.37302 0.0
C1872 C 0.6484 0.88534 0.39251 0.0
C1873 C 0.67452 0.89244 0.39768 0.0
C1874 C 0.63232 0.90271 0.40683 0.0
C1875 C 0.61028 0.85143 0.36848 0.0
C1876 C 0.61682 0.90803 0.38678 0.0
C1877 C 0.60115 0.92328 0.39994 0.0
C1878 C 0.60094 0.93472 0.43348 0.0
C1879 C 0.61729 0.93043 0.45334 0.0
C1880 C 0.63259 0.91456 0.4403 0.0
H1881 H 0.60439 0.83098 0.36451 0.0
H1882 H 0.59824 0.85774 0.39037 0.0
H1883 H 0.60645 0.85719 0.34599 0.0
H1884 H 0.61682 0.90043 0.3606 0.0
H1885 H 0.58935 0.92641 0.38346 0.0
H1886 H 0.20072 0.73961 0.34999 0.0
H1887 H 0.16994 0.70777 0.37993 0.0
H1888 H 0.20066 0.65248 0.31813 0.0
H1889 H 0.23164 0.6838 0.28929 0.0
H1890 H 0.13249 0.66675 0.3573 0.0
H1891 H 0.20311 0.63793 0.40888 0.0
H1892 H 0.21171 0.66593 0.39094 0.0
H1893 H 0.20962 0.6368 0.36463 0.0
C1894 C 0.20106 0.72069 0.34317 0.0
C1895 C 0.21899 0.71433 0.31777 0.0
C1896 C 0.18346 0.70254 0.3602 0.0
C1897 C 0.1835 0.67784 0.3519 0.0
C1898 C 0.20088 0.6715 0.32587 0.0
H1899 H 0.09958 0.53243 0.38783 0.0
H1900 H 0.12628 0.57005 0.36694 0.0
C1901 C 0.21856 0.68951 0.30927 0.0
C1902 C 0.16496 0.65823 0.36924 0.0
H1903 H 0.16115 0.60886 0.40603 0.0
C1904 C 0.1387 0.65432 0.36849 0.0
C1905 C 0.17311 0.64205 0.38392 0.0
C1906 C 0.20093 0.64605 0.38746 0.0
C1907 C 0.12043 0.63391 0.38042 0.0
C1908 C 0.12872 0.61716 0.3936 0.0
C1909 C 0.15489 0.62158 0.3955 0.0
C1910 C 0.11072 0.59448 0.40477 0.0
C1911 C 0.09251 0.62982 0.3776 0.0
C1912 C 0.09288 0.59575 0.43272 0.0
C1913 C 0.07748 0.57424 0.4447 0.0
C1914 C 0.07979 0.55106 0.42907 0.0
C1915 C 0.09723 0.5499 0.40049 0.0
C1916 C 0.11257 0.5714 0.38854 0.0
H1917 H 0.08968 0.64174 0.36115 0.0
H1918 H 0.08316 0.61029 0.36776 0.0
H1919 H 0.08281 0.6341 0.40271 0.0
H1920 H 0.09147 0.61341 0.44593 0.0
H1921 H 0.06448 0.57589 0.46698 0.0
H1922 H 0.33638 0.18033 0.38775 0.0
H1923 H 0.35873 0.15472 0.40443 0.0
H1924 H 0.43116 0.20718 0.38015 0.0
H1925 H 0.40901 0.23283 0.36327 0.0
H1926 H 0.39553 0.13302 0.36785 0.0
H1927 H 0.43572 0.2001 0.47618 0.0
H1928 H 0.41046 0.20302 0.45568 0.0
H1929 H 0.44295 0.21169 0.43714 0.0
C1930 C 0.35707 0.18637 0.38571 0.0
C1931 C 0.37085 0.20882 0.37443 0.0
C1932 C 0.36983 0.17173 0.3954 0.0
C1933 C 0.39662 0.17923 0.39416 0.0
C1934 C 0.41046 0.2013 0.38216 0.0
H1935 H 0.50014 0.11222 0.45983 0.0
H1936 H 0.4831 0.13988 0.43754 0.0
C1937 C 0.39774 0.21596 0.37251 0.0
C1938 C 0.41001 0.16385 0.40528 0.0
H1939 H 0.44798 0.16361 0.46348 0.0
C1940 C 0.40702 0.13972 0.38875 0.0
C1941 C 0.42523 0.17265 0.43233 0.0
C1942 C 0.42869 0.19821 0.4516 0.0
C1943 C 0.41875 0.12415 0.3985 0.0
C1944 C 0.43337 0.13269 0.42621 0.0
C1945 C 0.4368 0.15701 0.4423 0.0
C1946 C 0.44401 0.11624 0.43993 0.0
C1947 C 0.41558 0.0988 0.37862 0.0
C1948 C 0.42772 0.09412 0.44955 0.0
C1949 C 0.43742 0.0783 0.46184 0.0
C1950 C 0.46364 0.08435 0.46552 0.0
C1951 C 0.4799 0.10695 0.45712 0.0
C1952 C 0.47016 0.12274 0.44436 0.0
H1953 H 0.41188 0.09826 0.35261 0.0
H1954 H 0.43278 0.09269 0.37791 0.0
H1955 H 0.3989 0.0855 0.39023 0.0
H1956 H 0.40738 0.08904 0.44764 0.0
H1957 H 0.4242 0.06129 0.46869 0.0
H1958 H 0.71692 0.84156 0.63089 0.0
H1959 H 0.69495 0.86743 0.61412 0.0
H1960 H 0.62396 0.80906 0.61912 0.0
H1961 H 0.64549 0.7835 0.63721 0.0
H1962 H 0.67035 0.86004 0.55936 0.0
H1963 H 0.60191 0.8665 0.67175 0.0
H1964 H 0.62873 0.85493 0.67086 0.0
H1965 H 0.59998 0.83534 0.65347 0.0
C1966 C 0.69654 0.83434 0.62899 0.0
C1967 C 0.68303 0.81037 0.63551 0.0
C1968 C 0.68402 0.84912 0.61915 0.0
C1969 C 0.65767 0.84039 0.61576 0.0
C1970 C 0.64416 0.81648 0.62218 0.0
H1971 H 0.55614 0.90377 0.53851 0.0
H1972 H 0.57376 0.87509 0.55766 0.0
C1973 C 0.65663 0.80171 0.63208 0.0
C1974 C 0.64459 0.8559 0.60422 0.0
H1975 H 0.59512 0.88129 0.62466 0.0
C1976 C 0.65393 0.86469 0.57371 0.0
C1977 C 0.62311 0.86204 0.62289 0.0
C1978 C 0.61297 0.85443 0.65671 0.0
C1979 C 0.64237 0.87922 0.56131 0.0
C1980 C 0.6209 0.88527 0.57991 0.0
C1981 C 0.61137 0.87637 0.61025 0.0
C1982 C 0.60949 0.9024 0.56934 0.0
C1983 C 0.65318 0.88806 0.52833 0.0
C1984 C 0.6235 0.92724 0.57013 0.0
C1985 C 0.6135 0.94356 0.55952 0.0
C1986 C 0.58917 0.9355 0.54773 0.0
C1987 C 0.5749 0.91061 0.54742 0.0
C1988 C 0.58494 0.89421 0.55833 0.0
H1989 H 0.66587 0.87747 0.51367 0.0
H1990 H 0.6376 0.88662 0.51325 0.0
H1991 H 0.66456 0.90771 0.5329 0.0
H1992 H 0.64233 0.93402 0.57885 0.0
H1993 H 0.62513 0.96255 0.56023 0.0
H1994 H 0.74734 0.19442 0.33166 0.0
H1995 H 0.7148 0.16278 0.35892 0.0
H1996 H 0.65841 0.19938 0.35641 0.0
H1997 H 0.69077 0.231 0.32846 0.0
H1998 H 0.68284 0.16428 0.41776 0.0
H1999 H 0.62707 0.13036 0.30761 0.0
H2000 H 0.65891 0.15151 0.30569 0.0
H2001 H 0.63212 0.16237 0.32403 0.0
C2002 C 0.72808 0.19593 0.33704 0.0
C2003 C 0.72167 0.21518 0.32747 0.0
C2004 C 0.70949 0.1778 0.35272 0.0
C2005 C 0.68409 0.17847 0.35913 0.0
C2006 C 0.6778 0.19823 0.35103 0.0
H2007 H 0.55358 0.06732 0.44493 0.0
H2008 H 0.5801 0.10583 0.42537 0.0
C2009 C 0.69639 0.21638 0.33524 0.0
C2010 C 0.66422 0.15793 0.37314 0.0
H2011 H 0.61107 0.11007 0.35446 0.0
C2012 C 0.66703 0.15256 0.40405 0.0
C2013 C 0.64364 0.14259 0.35513 0.0
C2014 C 0.64026 0.14678 0.32115 0.0
C2015 C 0.65006 0.13203 0.41714 0.0
C2016 C 0.62989 0.11649 0.39878 0.0
C2017 C 0.62655 0.1222 0.36844 0.0
C2018 C 0.61341 0.09312 0.40942 0.0
C2019 C 0.65401 0.12675 0.45022 0.0
C2020 C 0.62326 0.07318 0.40601 0.0
C2021 C 0.60814 0.05112 0.41656 0.0
C2022 C 0.5829 0.04867 0.43104 0.0
C2023 C 0.57291 0.0686 0.43382 0.0
C2024 C 0.58802 0.09061 0.4228 0.0
H2025 H 0.6672 0.14289 0.46426 0.0
H2026 H 0.63548 0.12131 0.46578 0.0
H2027 H 0.66232 0.11117 0.44588 0.0
H2028 H 0.6428 0.0748 0.39551 0.0
H2029 H 0.61657 0.03629 0.41437 0.0
H2030 H 0.81676 0.66791 0.4208 0.0
H2031 H 0.84525 0.64705 0.43425 0.0
H2032 H 0.89868 0.6707 0.35064 0.0
H2033 H 0.86991 0.69096 0.33608 0.0
H2034 H 0.86777 0.60922 0.38087 0.0
H2035 H 0.93747 0.69224 0.44219 0.0
H2036 H 0.90475 0.69145 0.44075 0.0
H2037 H 0.92636 0.69307 0.40349 0.0
C2038 C 0.83441 0.66852 0.40496 0.0
C2039 C 0.84092 0.68116 0.37726 0.0
C2040 C 0.85075 0.65671 0.41287 0.0
C2041 C 0.87408 0.6575 0.39356 0.0
C2042 C 0.88082 0.67011 0.36602 0.0
H2043 H 0.99258 0.60223 0.446 0.0
H2044 H 0.97131 0.62514 0.42096 0.0
C2045 C 0.86439 0.6818 0.35789 0.0
C2046 C 0.891 0.64461 0.40207 0.0
H2047 H 0.94285 0.65378 0.4437 0.0
C2048 C 0.88433 0.61892 0.39437 0.0
C2049 C 0.91283 0.65739 0.41901 0.0
C2050 C 0.92095 0.68508 0.42703 0.0
C2051 C 0.89859 0.60553 0.40389 0.0
C2052 C 0.91951 0.61815 0.42298 0.0
C2053 C 0.92675 0.64401 0.42944 0.0
C2054 C 0.93288 0.60477 0.43823 0.0
C2055 C 0.89108 0.57802 0.39303 0.0
C2056 C 0.91857 0.58628 0.45708 0.0
C2057 C 0.93057 0.57287 0.4704 0.0
C2058 C 0.95734 0.5783 0.46662 0.0
C2059 C 0.97193 0.59769 0.44934 0.0
C2060 C 0.95976 0.61072 0.43501 0.0
H2061 H 0.88239 0.57294 0.36904 0.0
H2062 H 0.90772 0.57073 0.39001 0.0
H2063 H 0.87647 0.5689 0.41193 0.0
H2064 H 0.89797 0.58202 0.46139 0.0
H2065 H 0.91876 0.55818 0.48383 0.0
H2066 H 0.30102 0.84622 0.32211 0.0
H2067 H 0.3328 0.87538 0.35719 0.0
H2068 H 0.35377 0.81531 0.38098 0.0
H2069 H 0.32202 0.78597 0.3463 0.0
H2070 H 0.3381 0.86998 0.4332 0.0
H2071 H 0.42062 0.86906 0.33672 0.0
H2072 H 0.38874 0.86277 0.32511 0.0
H2073 H 0.39643 0.84067 0.34363 0.0
C2074 C 0.31215 0.83918 0.33512 0.0
C2075 C 0.3089 0.81378 0.33153 0.0
C2076 C 0.3303 0.85584 0.35504 0.0
C2077 C 0.34556 0.84736 0.3714 0.0
C2078 C 0.34212 0.82208 0.36841 0.0
H2079 H 0.48133 0.94346 0.46565 0.0
H2080 H 0.44923 0.90604 0.4432 0.0
C2081 C 0.3239 0.80539 0.34869 0.0
C2082 C 0.36539 0.86511 0.3912 0.0
H2083 H 0.42877 0.89689 0.38619 0.0
C2084 C 0.35799 0.87578 0.42315 0.0
C2085 C 0.39128 0.87212 0.3781 0.0
C2086 C 0.39997 0.86068 0.34399 0.0
C2087 C 0.37583 0.89401 0.44214 0.0
C2088 C 0.40152 0.90223 0.42821 0.0
C2089 C 0.40907 0.89068 0.39677 0.0
C2090 C 0.42027 0.92417 0.44436 0.0
C2091 C 0.36692 0.90425 0.47685 0.0
C2092 C 0.41469 0.94672 0.4523 0.0
C2093 C 0.43276 0.96791 0.46545 0.0
C2094 C 0.45707 0.96711 0.47012 0.0
C2095 C 0.46277 0.94458 0.46209 0.0
C2096 C 0.44446 0.92323 0.44939 0.0
H2097 H 0.35045 0.8904 0.48798 0.0
H2098 H 0.38246 0.91025 0.49353 0.0
H2099 H 0.36041 0.92032 0.47567 0.0
H2100 H 0.39653 0.94812 0.44755 0.0
H2101 H 0.42793 0.98507 0.47102 0.0
H2102 H 0.2078 0.30557 0.27153 0.0
H2103 H 0.18249 0.33275 0.29938 0.0
H2104 H 0.22748 0.35336 0.38278 0.0
H2105 H 0.25342 0.32655 0.35451 0.0
H2106 H 0.15149 0.33266 0.35435 0.0
H2107 H 0.22899 0.42052 0.37152 0.0
H2108 H 0.23426 0.3932 0.34603 0.0
H2109 H 0.23343 0.39698 0.39069 0.0
C2110 C 0.21258 0.31595 0.29572 0.0
C2111 C 0.23303 0.31367 0.31042 0.0
C2112 C 0.1979 0.33163 0.3118 0.0
C2113 C 0.20298 0.3458 0.34329 0.0
C2114 C 0.22328 0.34342 0.35821 0.0
H2115 H 0.12633 0.45066 0.47245 0.0
H2116 H 0.15421 0.42426 0.4502 0.0
C2117 C 0.23812 0.32779 0.34201 0.0
C2118 C 0.18641 0.36213 0.3605 0.0
H2119 H 0.18783 0.42112 0.39723 0.0
C2120 C 0.1596 0.35202 0.36357 0.0
C2121 C 0.19649 0.38753 0.37317 0.0
C2122 C 0.22484 0.4003 0.36997 0.0
C2123 C 0.14293 0.36613 0.37869 0.0
C2124 C 0.15294 0.39166 0.39071 0.0
C2125 C 0.17978 0.40172 0.3882 0.0
C2126 C 0.13595 0.4082 0.40478 0.0
C2127 C 0.11461 0.35313 0.38226 0.0
C2128 C 0.1164 0.40877 0.38693 0.0
C2129 C 0.10021 0.42356 0.39989 0.0
C2130 C 0.10319 0.43899 0.43096 0.0
C2131 C 0.12323 0.43909 0.44855 0.0
C2132 C 0.1393 0.42391 0.4357 0.0
H2133 H 0.1108 0.33323 0.3832 0.0
H2134 H 0.10486 0.36129 0.4051 0.0
H2135 H 0.10607 0.35458 0.36026 0.0
H2136 H 0.11366 0.39782 0.36257 0.0
H2137 H 0.0854 0.42307 0.38511 0.0
H2138 H 0.31142 0.1856 0.7317 0.0
H2139 H 0.33684 0.15874 0.7029 0.0
H2140 H 0.36947 0.20829 0.63093 0.0
H2141 H 0.34439 0.23562 0.66018 0.0
H2142 H 0.34035 0.1321 0.64351 0.0
H2143 H 0.43377 0.20268 0.65676 0.0
H2144 H 0.4044 0.20753 0.67795 0.0
H2145 H 0.41343 0.21188 0.635 0.0
C2146 C 0.32408 0.19101 0.70983 0.0
C2147 C 0.32588 0.21326 0.6988 0.0
C2148 C 0.33866 0.1754 0.69315 0.0
C2149 C 0.35579 0.18138 0.6648 0.0
C2150 C 0.35712 0.20327 0.65316 0.0
H2151 H 0.47605 0.10835 0.61624 0.0
H2152 H 0.44745 0.13321 0.63854 0.0
C2153 C 0.34254 0.21896 0.66991 0.0
C2154 C 0.37229 0.16493 0.64794 0.0
H2155 H 0.4343 0.16539 0.62155 0.0
C2156 C 0.36092 0.13945 0.63879 0.0
C2157 C 0.39932 0.17396 0.6421 0.0
C2158 C 0.41352 0.20043 0.65377 0.0
C2159 C 0.3755 0.12311 0.62415 0.0
C2160 C 0.40252 0.13233 0.61715 0.0
C2161 C 0.41376 0.15786 0.6263 0.0
C2162 C 0.41983 0.11608 0.60254 0.0
C2163 C 0.36163 0.09596 0.61769 0.0
C2164 C 0.41469 0.09777 0.57417 0.0
C2165 C 0.43112 0.08292 0.56151 0.0
C2166 C 0.45359 0.0862 0.57631 0.0
C2167 C 0.45901 0.10494 0.604 0.0
C2168 C 0.4425 0.11942 0.61686 0.0
H2169 H 0.34321 0.09124 0.63369 0.0
H2170 H 0.35721 0.09082 0.59136 0.0
H2171 H 0.37337 0.08472 0.62227 0.0
H2172 H 0.39807 0.09499 0.56142 0.0
H2173 H 0.42623 0.06894 0.54001 0.0
H2174 H 0.80869 0.32597 0.68963 0.0
H2175 H 0.83944 0.3587 0.66218 0.0
H2176 H 0.89867 0.32477 0.66139 0.0
H2177 H 0.86762 0.29128 0.68728 0.0
H2178 H 0.88067 0.39104 0.68758 0.0
H2179 H 0.91192 0.34036 0.56814 0.0
H2180 H 0.88407 0.32651 0.59478 0.0
H2181 H 0.91553 0.32915 0.6044 0.0
C2182 C 0.82816 0.32522 0.68311 0.0
C2183 C 0.83576 0.30606 0.69089 0.0
C2184 C 0.84575 0.34399 0.66745 0.0
C2185 C 0.87138 0.34418 0.65945 0.0
C2186 C 0.87892 0.3248 0.66655 0.0
H2187 H 1.00338 0.45649 0.57888 0.0
H2188 H 0.97624 0.41956 0.60232 0.0
C2189 C 0.86118 0.30574 0.68168 0.0
C2190 C 0.89036 0.3656 0.64597 0.0
H2191 H 0.93478 0.38262 0.58061 0.0
C2192 C 0.89245 0.38916 0.66414 0.0
C2193 C 0.90599 0.36317 0.61559 0.0
C2194 C 0.90417 0.33847 0.59442 0.0
C2195 C 0.90953 0.41032 0.65279 0.0
C2196 C 0.92474 0.40798 0.62203 0.0
C2197 C 0.92313 0.3844 0.60417 0.0
C2198 C 0.94136 0.4299 0.60733 0.0
C2199 C 0.9112 0.43497 0.67414 0.0
C2200 C 0.9307 0.44763 0.6017 0.0
C2201 C 0.94616 0.46882 0.58931 0.0
C2202 C 0.97256 0.4725 0.58132 0.0
C2203 C 0.98315 0.45426 0.58541 0.0
C2204 C 0.96767 0.43317 0.5986 0.0
H2205 H 0.90505 0.433 0.70077 0.0
H2206 H 0.93094 0.44767 0.67218 0.0
H2207 H 0.89827 0.44345 0.66579 0.0
H2208 H 0.91034 0.44507 0.6069 0.0
H2209 H 0.93728 0.48214 0.58528 0.0
H2210 H 0.21865 0.71405 0.70481 0.0
H2211 H 0.18393 0.68758 0.67252 0.0
H2212 H 0.23849 0.6806 0.5869 0.0
H2213 H 0.27355 0.70638 0.6198 0.0
H2214 H 0.16541 0.68427 0.60949 0.0
H2215 H 0.20999 0.6114 0.6142 0.0
H2216 H 0.21888 0.6413 0.63941 0.0
H2217 H 0.23093 0.63739 0.59616 0.0
C2218 C 0.22312 0.70727 0.67883 0.0
C2219 C 0.24858 0.71144 0.66463 0.0
C2220 C 0.2033 0.69231 0.66047 0.0
C2221 C 0.20886 0.68186 0.62765 0.0
C2222 C 0.23408 0.68821 0.61249 0.0
H2223 H 0.12626 0.55464 0.50037 0.0
H2224 H 0.15692 0.59286 0.52285 0.0
C2225 C 0.254 0.70268 0.63114 0.0
C2226 C 0.18916 0.66145 0.61122 0.0
H2227 H 0.17433 0.59986 0.58362 0.0
C2228 C 0.1673 0.6658 0.6036 0.0
C2229 C 0.19163 0.6374 0.60441 0.0
C2230 C 0.21397 0.63145 0.61423 0.0
C2231 C 0.14803 0.64662 0.58819 0.0
C2232 C 0.15077 0.62264 0.58083 0.0
C2233 C 0.17252 0.61836 0.5889 0.0
C2234 C 0.13117 0.60134 0.56544 0.0
C2235 C 0.12517 0.65221 0.57949 0.0
C2236 C 0.10657 0.59362 0.58193 0.0
C2237 C 0.08898 0.57191 0.56903 0.0
C2238 C 0.09596 0.55738 0.53983 0.0
C2239 C 0.12047 0.56537 0.52309 0.0
C2240 C 0.13793 0.58722 0.53578 0.0
H2241 H 0.12919 0.67213 0.57848 0.0
H2242 H 0.11914 0.64155 0.55511 0.0
H2243 H 0.10899 0.64699 0.59886 0.0
H2244 H 0.10125 0.60392 0.60534 0.0
H2245 H 0.07025 0.56609 0.58255 0.0
loop_
_geom_bond_atom_site_label_1
_geom_bond_atom_site_label_2
_geom_bond_distance
_geom_bond_site_symmetry_2
_ccdc_geom_bond_type
Eu0 C9 2.828 . S
Eu0 O11 2.392 . S
Eu0 O13 2.418 . S
Eu0 O18 2.373 . S
Eu0 O21 2.488 . S
Eu0 O22 2.471 . S
Eu0 O23 2.349 . S
Eu1 O10 2.373 . S
Eu1 O14 2.488 . S
Eu1 O15 2.471 . S
Eu1 O16 2.349 . S
Eu1 O19 2.392 . S
Eu1 O20 2.418 . S
Eu1 C30 2.828 . S
C2 O20 1.244 . S
C2 O23 1.265 . S
C3 C4 1.379 . S
C3 C7 1.373 . S
C3 C9 1.505 . S
C4 C3 1.379 . S
C4 C6 1.369 . S
C4 H32 0.930 . S
C5 C7 1.383 . S
C5 C8 1.382 . S
C5 H33 0.930 . S
C6 C4 1.369 . S
C6 C8 1.392 . S
C6 H34 0.930 . S
C7 C3 1.373 . S
C7 C5 1.383 . S
C7 H35 0.931 . S
C8 C5 1.382 . S
C8 C6 1.392 . S
C9 Eu0 2.828 . S
C9 C3 1.505 . S
C9 O21 1.249 . S
C9 O22 1.244 . S
O10 Eu1 2.373 . S
O10 C12 1.258 . S
O11 Eu0 2.392 . S
O11 C12 1.242 . S
C12 O10 1.258 . S
C12 O11 1.242 . S
O13 Eu0 2.418 . S
O13 C17 1.244 . S
O14 Eu1 2.488 . S
O14 C30 1.249 . S
O15 Eu1 2.471 . S
O15 C30 1.244 . S
O16 Eu1 2.349 . S
O16 C17 1.265 . S
C17 O13 1.244 . S
C17 O16 1.265 . S
O18 Eu0 2.373 . S
O18 C31 1.258 . S
O19 Eu1 2.392 . S
O19 C31 1.242 . S
O20 Eu1 2.418 . S
O20 C2 1.244 . S
O21 Eu0 2.488 . S
O21 C9 1.249 . S
O22 Eu0 2.471 . S
O22 C9 1.244 . S
O23 Eu0 2.349 . S
O23 C2 1.265 . S
C24 C25 1.379 . S
C24 C28 1.373 . S
C24 C30 1.505 . S
C25 C24 1.379 . S
C25 C27 1.369 . S
C25 H36 0.930 . S
C26 C28 1.383 . S
C26 C29 1.382 . S
C26 H37 0.930 . S
C27 C25 1.369 . S
C27 C29 1.392 . S
C27 H38 0.930 . S
C28 C24 1.373 . S
C28 C26 1.383 . S
C28 H39 0.931 . S
C29 C26 1.382 . S
C29 C27 1.392 . S
C30 Eu1 2.828 . S
C30 O14 1.249 . S
C30 O15 1.244 . S
C30 C24 1.505 . S
C31 O18 1.258 . S
C31 O19 1.242 . S
H32 C4 0.930 . S
H33 C5 0.930 . S
H34 C6 0.930 . S
H35 C7 0.931 . S
H36 C25 0.930 . S
H37 C26 0.930 . S
H38 C27 0.930 . S
H39 C28 0.931 . S
Eu40 C49 2.828 . S
Eu40 O51 2.392 . S
Eu40 O53 2.418 . S
Eu40 O58 2.373 . S
Eu40 O61 2.488 . S
Eu40 O62 2.471 . S
Eu40 O63 2.349 . S
Eu41 O50 2.373 . S
Eu41 O54 2.488 . S
Eu41 O55 2.471 . S
Eu41 O56 2.349 . S
Eu41 O59 2.392 . S
Eu41 O60 2.418 . S
Eu41 C70 2.828 . S
C42 O60 1.244 . S
C42 O63 1.265 . S
C43 C44 1.379 . S
C43 C47 1.373 . S
C43 C49 1.505 . S
C44 C43 1.379 . S
C44 C46 1.369 . S
C44 H72 0.930 . S
C45 C47 1.383 . S
C45 C48 1.382 . S
C45 H73 0.930 . S
C46 C44 1.369 . S
C46 C48 1.392 . S
C46 H74 0.930 . S
C47 C43 1.373 . S
C47 C45 1.383 . S
C47 H75 0.931 . S
C48 C45 1.382 . S
C48 C46 1.392 . S
C49 Eu40 2.828 . S
C49 C43 1.505 . S
C49 O61 1.249 . S
C49 O62 1.244 . S
O50 Eu41 2.373 . S
O50 C52 1.258 . S
O51 Eu40 2.392 . S
O51 C52 1.242 . S
C52 O50 1.258 . S
C52 O51 1.242 . S
O53 Eu40 2.418 . S
O53 C57 1.244 . S
O54 Eu41 2.488 . S
O54 C70 1.249 . S
O55 Eu41 2.471 . S
O55 C70 1.244 . S
O56 Eu41 2.349 . S
O56 C57 1.265 . S
C57 O53 1.244 . S
C57 O56 1.265 . S
O58 Eu40 2.373 . S
O58 C71 1.258 . S
O59 Eu41 2.392 . S
O59 C71 1.242 . S
O60 Eu41 2.418 . S
O60 C42 1.244 . S
O61 Eu40 2.488 . S
O61 C49 1.249 . S
O62 Eu40 2.471 . S
O62 C49 1.244 . S
O63 Eu40 2.349 . S
O63 C42 1.265 . S
C64 C65 1.379 . S
C64 C68 1.373 . S
C64 C70 1.505 . S
C65 C64 1.379 . S
C65 C67 1.369 . S
C65 H76 0.930 . S
C66 C68 1.383 . S
C66 C69 1.382 . S
C66 H77 0.930 . S
C67 C65 1.369 . S
C67 C69 1.392 . S
C67 H78 0.930 . S
C68 C64 1.373 . S
C68 C66 1.383 . S
C68 H79 0.931 . S
C69 C66 1.382 . S
C69 C67 1.392 . S
C70 Eu41 2.828 . S
C70 O54 1.249 . S
C70 O55 1.244 . S
C70 C64 1.505 . S
C71 O58 1.258 . S
C71 O59 1.242 . S
H72 C44 0.930 . S
H73 C45 0.930 . S
H74 C46 0.930 . S
H75 C47 0.931 . S
H76 C65 0.930 . S
H77 C66 0.930 . S
H78 C67 0.930 . S
H79 C68 0.931 . S
Eu80 C89 2.828 . S
Eu80 O91 2.392 . S
Eu80 O93 2.418 . S
Eu80 O98 2.373 . S
Eu80 O101 2.488 . S
Eu80 O102 2.471 . S
Eu80 O103 2.349 . S
Eu81 O90 2.373 . S
Eu81 O94 2.488 . S
Eu81 O95 2.471 . S
Eu81 O96 2.349 . S
Eu81 O99 2.392 . S
Eu81 O100 2.418 . S
Eu81 C110 2.828 . S
C82 O100 1.244 . S
C82 O103 1.265 . S
C83 C84 1.379 . S
C83 C87 1.373 . S
C83 C89 1.505 . S
C84 C83 1.379 . S
C84 C86 1.369 . S
C84 H112 0.930 . S
C85 C87 1.383 . S
C85 C88 1.382 . S
C85 H113 0.930 . S
C86 C84 1.369 . S
C86 C88 1.392 . S
C86 H114 0.930 . S
C87 C83 1.373 . S
C87 C85 1.383 . S
C87 H115 0.931 . S
C88 C85 1.382 . S
C88 C86 1.392 . S
C89 Eu80 2.828 . S
C89 C83 1.505 . S
C89 O101 1.249 . S
C89 O102 1.244 . S
O90 Eu81 2.373 . S
O90 C92 1.258 . S
O91 Eu80 2.392 . S
O91 C92 1.242 . S
C92 O90 1.258 . S
C92 O91 1.242 . S
O93 Eu80 2.418 . S
O93 C97 1.244 . S
O94 Eu81 2.488 . S
O94 C110 1.249 . S
O95 Eu81 2.471 . S
O95 C110 1.244 . S
O96 Eu81 2.349 . S
O96 C97 1.265 . S
C97 O93 1.244 . S
C97 O96 1.265 . S
O98 Eu80 2.373 . S
O98 C111 1.258 . S
O99 Eu81 2.392 . S
O99 C111 1.242 . S
O100 Eu81 2.418 . S
O100 C82 1.244 . S
O101 Eu80 2.488 . S
O101 C89 1.249 . S
O102 Eu80 2.471 . S
O102 C89 1.244 . S
O103 Eu80 2.349 . S
O103 C82 1.265 . S
C104 C105 1.379 . S
C104 C108 1.373 . S
C104 C110 1.505 . S
C105 C104 1.379 . S
C105 C107 1.369 . S
C105 H116 0.930 . S
C106 C108 1.383 . S
C106 C109 1.382 . S
C106 H117 0.930 . S
C107 C105 1.369 . S
C107 C109 1.392 . S
C107 H118 0.930 . S
C108 C104 1.373 . S
C108 C106 1.383 . S
C108 H119 0.931 . S
C109 C106 1.382 . S
C109 C107 1.392 . S
C110 Eu81 2.828 . S
C110 O94 1.249 . S
C110 O95 1.244 . S
C110 C104 1.505 . S
C111 O98 1.258 . S
C111 O99 1.242 . S
H112 C84 0.930 . S
H113 C85 0.930 . S
H114 C86 0.930 . S
H115 C87 0.931 . S
H116 C105 0.930 . S
H117 C106 0.930 . S
H118 C107 0.930 . S
H119 C108 0.931 . S
Eu120 C129 2.828 . S
Eu120 O131 2.392 . S
Eu120 O133 2.418 . S
Eu120 O138 2.373 . S
Eu120 O141 2.488 . S
Eu120 O142 2.471 . S
Eu120 O143 2.349 . S
Eu121 O130 2.373 . S
Eu121 O134 2.488 . S
Eu121 O135 2.471 . S
Eu121 O136 2.349 . S
Eu121 O139 2.392 . S
Eu121 O140 2.418 . S
Eu121 C150 2.828 . S
C122 O140 1.244 . S
C122 O143 1.265 . S
C123 C124 1.379 . S
C123 C127 1.373 . S
C123 C129 1.505 . S
C124 C123 1.379 . S
C124 C126 1.369 . S
C124 H152 0.930 . S
C125 C127 1.383 . S
C125 C128 1.382 . S
C125 H153 0.930 . S
C126 C124 1.369 . S
C126 C128 1.392 . S
C126 H154 0.930 . S
C127 C123 1.373 . S
C127 C125 1.383 . S
C127 H155 0.931 . S
C128 C125 1.382 . S
C128 C126 1.392 . S
C129 Eu120 2.828 . S
C129 C123 1.505 . S
C129 O141 1.249 . S
C129 O142 1.244 . S
O130 Eu121 2.373 . S
O130 C132 1.258 . S
O131 Eu120 2.392 . S
O131 C132 1.242 . S
C132 O130 1.258 . S
C132 O131 1.242 . S
O133 Eu120 2.418 . S
O133 C137 1.244 . S
O134 Eu121 2.488 . S
O134 C150 1.249 . S
O135 Eu121 2.471 . S
O135 C150 1.244 . S
O136 Eu121 2.349 . S
O136 C137 1.265 . S
C137 O133 1.244 . S
C137 O136 1.265 . S
O138 Eu120 2.373 . S
O138 C151 1.258 . S
O139 Eu121 2.392 . S
O139 C151 1.242 . S
O140 Eu121 2.418 . S
O140 C122 1.244 . S
O141 Eu120 2.488 . S
O141 C129 1.249 . S
O142 Eu120 2.471 . S
O142 C129 1.244 . S
O143 Eu120 2.349 . S
O143 C122 1.265 . S
C144 C145 1.379 . S
C144 C148 1.373 . S
C144 C150 1.505 . S
C145 C144 1.379 . S
C145 C147 1.369 . S
C145 H156 0.930 . S
C146 C148 1.383 . S
C146 C149 1.382 . S
C146 H157 0.930 . S
C147 C145 1.369 . S
C147 C149 1.392 . S
C147 H158 0.930 . S
C148 C144 1.373 . S
C148 C146 1.383 . S
C148 H159 0.931 . S
C149 C146 1.382 . S
C149 C147 1.392 . S
C150 Eu121 2.828 . S
C150 O134 1.249 . S
C150 O135 1.244 . S
C150 C144 1.505 . S
C151 O138 1.258 . S
C151 O139 1.242 . S
H152 C124 0.930 . S
H153 C125 0.930 . S
H154 C126 0.930 . S
H155 C127 0.931 . S
H156 C145 0.930 . S
H157 C146 0.930 . S
H158 C147 0.930 . S
H159 C148 0.931 . S
Eu160 C169 2.828 . S
Eu160 O171 2.392 . S
Eu160 O173 2.418 . S
Eu160 O178 2.373 . S
Eu160 O181 2.488 . S
Eu160 O182 2.471 . S
Eu160 O183 2.349 . S
Eu161 O170 2.373 . S
Eu161 O174 2.488 . S
Eu161 O175 2.471 . S
Eu161 O176 2.349 . S
Eu161 O179 2.392 . S
Eu161 O180 2.418 . S
Eu161 C190 2.828 . S
C162 O180 1.244 . S
C162 O183 1.265 . S
C163 C164 1.379 . S
C163 C167 1.373 . S
C163 C169 1.505 . S
C164 C163 1.379 . S
C164 C166 1.369 . S
C164 H192 0.930 . S
C165 C167 1.383 . S
C165 C168 1.382 . S
C165 H193 0.930 . S
C166 C164 1.369 . S
C166 C168 1.392 . S
C166 H194 0.930 . S
C167 C163 1.373 . S
C167 C165 1.383 . S
C167 H195 0.931 . S
C168 C165 1.382 . S
C168 C166 1.392 . S
C169 Eu160 2.828 . S
C169 C163 1.505 . S
C169 O181 1.249 . S
C169 O182 1.244 . S
O170 Eu161 2.373 . S
O170 C172 1.258 . S
O171 Eu160 2.392 . S
O171 C172 1.242 . S
C172 O170 1.258 . S
C172 O171 1.242 . S
O173 Eu160 2.418 . S
O173 C177 1.244 . S
O174 Eu161 2.488 . S
O174 C190 1.249 . S
O175 Eu161 2.471 . S
O175 C190 1.244 . S
O176 Eu161 2.349 . S
O176 C177 1.265 . S
C177 O173 1.244 . S
C177 O176 1.265 . S
O178 Eu160 2.373 . S
O178 C191 1.258 . S
O179 Eu161 2.392 . S
O179 C191 1.242 . S
O180 Eu161 2.418 . S
O180 C162 1.244 . S
O181 Eu160 2.488 . S
O181 C169 1.249 . S
O182 Eu160 2.471 . S
O182 C169 1.244 . S
O183 Eu160 2.349 . S
O183 C162 1.265 . S
C184 C185 1.379 . S
C184 C188 1.373 . S
C184 C190 1.505 . S
C185 C184 1.379 . S
C185 C187 1.369 . S
C185 H196 0.930 . S
C186 C188 1.383 . S
C186 C189 1.382 . S
C186 H197 0.930 . S
C187 C185 1.369 . S
C187 C189 1.392 . S
C187 H198 0.930 . S
C188 C184 1.373 . S
C188 C186 1.383 . S
C188 H199 0.931 . S
C189 C186 1.382 . S
C189 C187 1.392 . S
C190 Eu161 2.828 . S
C190 O174 1.249 . S
C190 O175 1.244 . S
C190 C184 1.505 . S
C191 O178 1.258 . S
C191 O179 1.242 . S
H192 C164 0.930 . S
H193 C165 0.930 . S
H194 C166 0.930 . S
H195 C167 0.931 . S
H196 C185 0.930 . S
H197 C186 0.930 . S
H198 C187 0.930 . S
H199 C188 0.931 . S
Eu200 C209 2.828 . S
Eu200 O211 2.392 . S
Eu200 O213 2.418 . S
Eu200 O218 2.373 . S
Eu200 O221 2.488 . S
Eu200 O222 2.471 . S
Eu200 O223 2.349 . S
Eu201 O210 2.373 . S
Eu201 O214 2.488 . S
Eu201 O215 2.471 . S
Eu201 O216 2.349 . S
Eu201 O219 2.392 . S
Eu201 O220 2.418 . S
Eu201 C230 2.828 . S
C202 O220 1.244 . S
C202 O223 1.265 . S
C203 C204 1.379 . S
C203 C207 1.373 . S
C203 C209 1.505 . S
C204 C203 1.379 . S
C204 C206 1.369 . S
C204 H232 0.930 . S
C205 C207 1.383 . S
C205 C208 1.382 . S
C205 H233 0.930 . S
C206 C204 1.369 . S
C206 C208 1.392 . S
C206 H234 0.930 . S
C207 C203 1.373 . S
C207 C205 1.383 . S
C207 H235 0.931 . S
C208 C205 1.382 . S
C208 C206 1.392 . S
C209 Eu200 2.828 . S
C209 C203 1.505 . S
C209 O221 1.249 . S
C209 O222 1.244 . S
O210 Eu201 2.373 . S
O210 C212 1.258 . S
O211 Eu200 2.392 . S
O211 C212 1.242 . S
C212 O210 1.258 . S
C212 O211 1.242 . S
O213 Eu200 2.418 . S
O213 C217 1.244 . S
O214 Eu201 2.488 . S
O214 C230 1.249 . S
O215 Eu201 2.471 . S
O215 C230 1.244 . S
O216 Eu201 2.349 . S
O216 C217 1.265 . S
C217 O213 1.244 . S
C217 O216 1.265 . S
O218 Eu200 2.373 . S
O218 C231 1.258 . S
O219 Eu201 2.392 . S
O219 C231 1.242 . S
O220 Eu201 2.418 . S
O220 C202 1.244 . S
O221 Eu200 2.488 . S
O221 C209 1.249 . S
O222 Eu200 2.471 . S
O222 C209 1.244 . S
O223 Eu200 2.349 . S
O223 C202 1.265 . S
C224 C225 1.379 . S
C224 C228 1.373 . S
C224 C230 1.505 . S
C225 C224 1.379 . S
C225 C227 1.369 . S
C225 H236 0.930 . S
C226 C228 1.383 . S
C226 C229 1.382 . S
C226 H237 0.930 . S
C227 C225 1.369 . S
C227 C229 1.392 . S
C227 H238 0.930 . S
C228 C224 1.373 . S
C228 C226 1.383 . S
C228 H239 0.931 . S
C229 C226 1.382 . S
C229 C227 1.392 . S
C230 Eu201 2.828 . S
C230 O214 1.249 . S
C230 O215 1.244 . S
C230 C224 1.505 . S
C231 O218 1.258 . S
C231 O219 1.242 . S
H232 C204 0.930 . S
H233 C205 0.930 . S
H234 C206 0.930 . S
H235 C207 0.931 . S
H236 C225 0.930 . S
H237 C226 0.930 . S
H238 C227 0.930 . S
H239 C228 0.931 . S
Eu240 C249 2.828 . S
Eu240 O251 2.392 . S
Eu240 O253 2.418 . S
Eu240 O258 2.373 . S
Eu240 O261 2.488 . S
Eu240 O262 2.471 . S
Eu240 O263 2.349 . S
Eu241 O250 2.373 . S
Eu241 O254 2.488 . S
Eu241 O255 2.471 . S
Eu241 O256 2.349 . S
Eu241 O259 2.392 . S
Eu241 O260 2.418 . S
Eu241 C270 2.828 . S
C242 O260 1.244 . S
C242 O263 1.265 . S
C243 C244 1.379 . S
C243 C247 1.373 . S
C243 C249 1.505 . S
C244 C243 1.379 . S
C244 C246 1.369 . S
C244 H272 0.930 . S
C245 C247 1.383 . S
C245 C248 1.382 . S
C245 H273 0.930 . S
C246 C244 1.369 . S
C246 C248 1.392 . S
C246 H274 0.930 . S
C247 C243 1.373 . S
C247 C245 1.383 . S
C247 H275 0.931 . S
C248 C245 1.382 . S
C248 C246 1.392 . S
C249 Eu240 2.828 . S
C249 C243 1.505 . S
C249 O261 1.249 . S
C249 O262 1.244 . S
O250 Eu241 2.373 . S
O250 C252 1.258 . S
O251 Eu240 2.392 . S
O251 C252 1.242 . S
C252 O250 1.258 . S
C252 O251 1.242 . S
O253 Eu240 2.418 . S
O253 C257 1.244 . S
O254 Eu241 2.488 . S
O254 C270 1.249 . S
O255 Eu241 2.471 . S
O255 C270 1.244 . S
O256 Eu241 2.349 . S
O256 C257 1.265 . S
C257 O253 1.244 . S
C257 O256 1.265 . S
O258 Eu240 2.373 . S
O258 C271 1.258 . S
O259 Eu241 2.392 . S
O259 C271 1.242 . S
O260 Eu241 2.418 . S
O260 C242 1.244 . S
O261 Eu240 2.488 . S
O261 C249 1.249 . S
O262 Eu240 2.471 . S
O262 C249 1.244 . S
O263 Eu240 2.349 . S
O263 C242 1.265 . S
C264 C265 1.379 . S
C264 C268 1.373 . S
C264 C270 1.505 . S
C265 C264 1.379 . S
C265 C267 1.369 . S
C265 H276 0.930 . S
C266 C268 1.383 . S
C266 C269 1.382 . S
C266 H277 0.930 . S
C267 C265 1.369 . S
C267 C269 1.392 . S
C267 H278 0.930 . S
C268 C264 1.373 . S
C268 C266 1.383 . S
C268 H279 0.931 . S
C269 C266 1.382 . S
C269 C267 1.392 . S
C270 Eu241 2.828 . S
C270 O254 1.249 . S
C270 O255 1.244 . S
C270 C264 1.505 . S
C271 O258 1.258 . S
C271 O259 1.242 . S
H272 C244 0.930 . S
H273 C245 0.930 . S
H274 C246 0.930 . S
H275 C247 0.931 . S
H276 C265 0.930 . S
H277 C266 0.930 . S
H278 C267 0.930 . S
H279 C268 0.931 . S
Eu280 C289 2.828 . S
Eu280 O291 2.392 . S
Eu280 O293 2.418 . S
Eu280 O298 2.373 . S
Eu280 O301 2.488 . S
Eu280 O302 2.471 . S
Eu280 O303 2.349 . S
Eu281 O290 2.373 . S
Eu281 O294 2.488 . S
Eu281 O295 2.471 . S
Eu281 O296 2.349 . S
Eu281 O299 2.392 . S
Eu281 O300 2.418 . S
Eu281 C310 2.828 . S
C282 O300 1.244 . S
C282 O303 1.265 . S
C283 C284 1.379 . S
C283 C287 1.373 . S
C283 C289 1.505 . S
C284 C283 1.379 . S
C284 C286 1.369 . S
C284 H312 0.930 . S
C285 C287 1.383 . S
C285 C288 1.382 . S
C285 H313 0.930 . S
C286 C284 1.369 . S
C286 C288 1.392 . S
C286 H314 0.930 . S
C287 C283 1.373 . S
C287 C285 1.383 . S
C287 H315 0.931 . S
C288 C285 1.382 . S
C288 C286 1.392 . S
C289 Eu280 2.828 . S
C289 C283 1.505 . S
C289 O301 1.249 . S
C289 O302 1.244 . S
O290 Eu281 2.373 . S
O290 C292 1.258 . S
O291 Eu280 2.392 . S
O291 C292 1.242 . S
C292 O290 1.258 . S
C292 O291 1.242 . S
O293 Eu280 2.418 . S
O293 C297 1.244 . S
O294 Eu281 2.488 . S
O294 C310 1.249 . S
O295 Eu281 2.471 . S
O295 C310 1.244 . S
O296 Eu281 2.349 . S
O296 C297 1.265 . S
C297 O293 1.244 . S
C297 O296 1.265 . S
O298 Eu280 2.373 . S
O298 C311 1.258 . S
O299 Eu281 2.392 . S
O299 C311 1.242 . S
O300 Eu281 2.418 . S
O300 C282 1.244 . S
O301 Eu280 2.488 . S
O301 C289 1.249 . S
O302 Eu280 2.471 . S
O302 C289 1.244 . S
O303 Eu280 2.349 . S
O303 C282 1.265 . S
C304 C305 1.379 . S
C304 C308 1.373 . S
C304 C310 1.505 . S
C305 C304 1.379 . S
C305 C307 1.369 . S
C305 H316 0.930 . S
C306 C308 1.383 . S
C306 C309 1.382 . S
C306 H317 0.930 . S
C307 C305 1.369 . S
C307 C309 1.392 . S
C307 H318 0.930 . S
C308 C304 1.373 . S
C308 C306 1.383 . S
C308 H319 0.931 . S
C309 C306 1.382 . S
C309 C307 1.392 . S
C310 Eu281 2.828 . S
C310 O294 1.249 . S
C310 O295 1.244 . S
C310 C304 1.505 . S
C311 O298 1.258 . S
C311 O299 1.242 . S
H312 C284 0.930 . S
H313 C285 0.930 . S
H314 C286 0.930 . S
H315 C287 0.931 . S
H316 C305 0.930 . S
H317 C306 0.930 . S
H318 C307 0.930 . S
H319 C308 0.931 . S
Co320 O323 2.042 . S
Co320 O330 2.264 . S
Co320 O349 2.286 . S
Co320 O350 2.069 . S
Co320 O352 2.015 1_455 S
Co321 O323 2.122 . S
Co321 O329 2.073 . S
Co321 O330 2.327 . S
Co321 O331 1.976 1_455 S
Co322 O323 2.088 1_545 S
Co322 O325 2.086 1_455 S
Co322 O332 2.100 1_445 S
Co322 O333 2.156 . S
Co322 O337 2.123 . S
Co322 O351 2.131 1_445 S
O323 Co320 2.042 . S
O323 Co321 2.122 . S
O323 Co322 2.088 1_565 S
O323 H324 0.980 . S
H324 O323 0.980 . S
O325 Co322 2.086 1_655 S
O325 Co326 2.042 . S
O325 Co327 2.122 . S
O325 H328 0.980 . S
Co326 O325 2.042 . S
Co326 O334 2.286 . S
Co326 O335 2.069 . S
Co326 O336 2.015 1_655 S
Co326 O339 2.264 . S
Co327 O325 2.122 . S
Co327 O338 1.976 1_655 S
Co327 O339 2.327 . S
Co327 O340 2.073 . S
H328 O325 0.980 . S
O329 Co321 2.073 . S
O329 C344 1.245 . S
O330 Co320 2.264 . S
O330 Co321 2.327 . S
O330 C344 1.257 . S
O331 Co321 1.976 1_655 S
O331 C343 1.251 . S
O332 Co322 2.100 1_665 S
O332 C343 1.274 . S
O333 Co322 2.156 . S
O333 C346 1.246 . S
O334 Co326 2.286 . S
O334 C345 1.259 . S
O335 Co326 2.069 . S
O335 C345 1.289 . S
O336 Co326 2.015 1_455 S
O336 C346 1.257 . S
O337 Co322 2.123 . S
O337 C347 1.274 . S
O338 Co327 1.976 1_455 S
O338 C347 1.251 . S
O339 Co326 2.264 . S
O339 Co327 2.327 . S
O339 C348 1.257 . S
O340 Co327 2.073 . S
O340 C348 1.245 . S
C341 O349 1.259 . S
C341 O350 1.289 . S
C342 O351 1.246 . S
C342 O352 1.257 . S
C343 O331 1.251 . S
C343 O332 1.274 . S
C344 O329 1.245 . S
C344 O330 1.257 . S
C345 O334 1.259 . S
C345 O335 1.289 . S
C346 O333 1.246 . S
C346 O336 1.257 . S
C347 O337 1.274 . S
C347 O338 1.251 . S
C348 O339 1.257 . S
C348 O340 1.245 . S
O349 Co320 2.286 . S
O349 C341 1.259 . S
O350 Co320 2.069 . S
O350 C341 1.289 . S
O351 Co322 2.131 1_665 S
O351 C342 1.246 . S
O352 Co320 2.015 1_655 S
O352 C342 1.257 . S
Co353 O356 2.042 1_556 S
Co353 O363 2.264 1_556 S
Co353 O382 2.286 . S
Co353 O383 2.069 . S
Co353 O385 2.015 . S
Co354 O356 2.122 . S
Co354 O362 2.073 . S
Co354 O363 2.327 . S
Co354 O364 1.976 . S
Co355 O356 2.075 1_545 S
Co355 O358 2.098 1_554 S
Co355 O365 2.107 1_545 S
Co355 O366 2.150 . S
Co355 O370 2.115 1_554 S
Co355 O384 2.137 1_544 S
O356 Co353 2.042 1_554 S
O356 Co354 2.122 . S
O356 Co355 2.075 1_565 S
O356 H357 0.980 . S
H357 O356 0.980 . S
O358 Co355 2.098 1_556 S
O358 Co359 2.042 1_556 S
O358 Co360 2.122 . S
O358 H361 0.980 . S
Co359 O358 2.042 1_554 S
Co359 O367 2.286 . S
Co359 O368 2.069 . S
Co359 O369 2.015 . S
Co359 O372 2.264 1_554 S
Co360 O358 2.122 . S
Co360 O371 1.976 . S
Co360 O372 2.327 . S
Co360 O373 2.073 . S
H361 O358 0.980 . S
O362 Co354 2.073 . S
O362 C377 1.245 . S
O363 Co353 2.264 1_554 S
O363 Co354 2.327 . S
O363 C377 1.257 . S
O364 Co354 1.976 . S
O364 C376 1.251 . S
O365 Co355 2.107 1_565 S
O365 C376 1.274 . S
O366 Co355 2.150 . S
O366 C379 1.246 . S
O367 Co359 2.286 . S
O367 C378 1.259 . S
O368 Co359 2.069 . S
O368 C378 1.289 . S
O369 Co359 2.015 . S
O369 C379 1.257 . S
O370 Co355 2.115 1_556 S
O370 C380 1.274 . S
O371 Co360 1.976 . S
O371 C380 1.251 . S
O372 Co359 2.264 1_556 S
O372 Co360 2.327 . S
O372 C381 1.257 . S
O373 Co360 2.073 . S
O373 C381 1.245 . S
C374 O382 1.259 . S
C374 O383 1.289 . S
C375 O384 1.246 . S
C375 O385 1.257 . S
C376 O364 1.251 . S
C376 O365 1.274 . S
C377 O362 1.245 . S
C377 O363 1.257 . S
C378 O367 1.259 . S
C378 O368 1.289 . S
C379 O366 1.246 . S
C379 O369 1.257 . S
C380 O370 1.274 . S
C380 O371 1.251 . S
C381 O372 1.257 . S
C381 O373 1.245 . S
O382 Co353 2.286 . S
O382 C374 1.259 . S
O383 Co353 2.069 . S
O383 C374 1.289 . S
O384 Co355 2.137 1_566 S
O384 C375 1.246 . S
O385 Co353 2.015 . S
O385 C375 1.257 . S
Co386 O389 2.042 1_556 S
Co386 O396 2.264 1_556 S
Co386 O415 2.286 . S
Co386 O416 2.069 . S
Co386 O418 2.015 1_455 S
Co387 O389 2.122 . S
Co387 O395 2.073 . S
Co387 O396 2.327 . S
Co387 O397 1.976 1_455 S
Co388 O389 2.100 . S
Co388 O391 2.074 1_454 S
Co388 O398 2.104 1_455 S
Co388 O399 2.149 . S
Co388 O403 2.119 1_554 S
Co388 O417 2.138 1_454 S
O389 Co386 2.042 1_554 S
O389 Co387 2.122 . S
O389 Co388 2.100 . S
O389 H390 0.980 . S
H390 O389 0.980 . S
O391 Co388 2.074 1_656 S
O391 Co392 2.042 1_556 S
O391 Co393 2.122 . S
O391 H394 0.980 . S
Co392 O391 2.042 1_554 S
Co392 O400 2.286 . S
Co392 O401 2.069 . S
Co392 O402 2.015 1_655 S
Co392 O405 2.264 1_554 S
Co393 O391 2.122 . S
Co393 O404 1.976 1_655 S
Co393 O405 2.327 . S
Co393 O406 2.073 . S
H394 O391 0.980 . S
O395 Co387 2.073 . S
O395 C410 1.245 . S
O396 Co386 2.264 1_554 S
O396 Co387 2.327 . S
O396 C410 1.257 . S
O397 Co387 1.976 1_655 S
O397 C409 1.251 . S
O398 Co388 2.104 1_655 S
O398 C409 1.274 . S
O399 Co388 2.149 . S
O399 C412 1.246 . S
O400 Co392 2.286 . S
O400 C411 1.259 . S
O401 Co392 2.069 . S
O401 C411 1.289 . S
O402 Co392 2.015 1_455 S
O402 C412 1.257 . S
O403 Co388 2.119 1_556 S
O403 C413 1.274 . S
O404 Co393 1.976 1_455 S
O404 C413 1.251 . S
O405 Co392 2.264 1_556 S
O405 Co393 2.327 . S
O405 C414 1.257 . S
O406 Co393 2.073 . S
O406 C414 1.245 . S
C407 O415 1.259 . S
C407 O416 1.289 . S
C408 O417 1.246 . S
C408 O418 1.257 . S
C409 O397 1.251 . S
C409 O398 1.274 . S
C410 O395 1.245 . S
C410 O396 1.257 . S
C411 O400 1.259 . S
C411 O401 1.289 . S
C412 O399 1.246 . S
C412 O402 1.257 . S
C413 O403 1.274 . S
C413 O404 1.251 . S
C414 O405 1.257 . S
C414 O406 1.245 . S
O415 Co386 2.286 . S
O415 C407 1.259 . S
O416 Co386 2.069 . S
O416 C407 1.289 . S
O417 Co388 2.138 1_656 S
O417 C408 1.246 . S
O418 Co386 2.015 1_655 S
O418 C408 1.257 . S
Co419 O422 2.042 1_556 S
Co419 O429 2.264 1_556 S
Co419 O448 2.286 . S
Co419 O449 2.069 . S
Co419 O451 2.015 . S
Co420 O422 2.122 . S
Co420 O428 2.073 . S
Co420 O429 2.327 . S
Co420 O430 1.976 . S
Co421 O422 2.087 . S
Co421 O424 2.087 1_554 S
Co421 O431 2.111 . S
Co421 O432 2.143 . S
Co421 O436 2.111 1_554 S
Co421 O450 2.143 1_554 S
O422 Co419 2.042 1_554 S
O422 Co420 2.122 . S
O422 Co421 2.087 . S
O422 H423 0.980 . S
H423 O422 0.980 . S
O424 Co421 2.087 1_556 S
O424 Co425 2.042 1_556 S
O424 Co426 2.122 . S
O424 H427 0.980 . S
Co425 O424 2.042 1_554 S
Co425 O433 2.286 . S
Co425 O434 2.069 . S
Co425 O435 2.015 . S
Co425 O438 2.264 1_554 S
Co426 O424 2.122 . S
Co426 O437 1.976 . S
Co426 O438 2.327 . S
Co426 O439 2.073 . S
H427 O424 0.980 . S
O428 Co420 2.073 . S
O428 C443 1.245 . S
O429 Co419 2.264 1_554 S
O429 Co420 2.327 . S
O429 C443 1.257 . S
O430 Co420 1.976 . S
O430 C442 1.251 . S
O431 Co421 2.111 . S
O431 C442 1.274 . S
O432 Co421 2.143 . S
O432 C445 1.246 . S
O433 Co425 2.286 . S
O433 C444 1.259 . S
O434 Co425 2.069 . S
O434 C444 1.289 . S
O435 Co425 2.015 . S
O435 C445 1.257 . S
O436 Co421 2.111 1_556 S
O436 C446 1.274 . S
O437 Co426 1.976 . S
O437 C446 1.251 . S
O438 Co425 2.264 1_556 S
O438 Co426 2.327 . S
O438 C447 1.257 . S
O439 Co426 2.073 . S
O439 C447 1.245 . S
C440 O448 1.259 . S
C440 O449 1.289 . S
C441 O450 1.246 . S
C441 O451 1.257 . S
C442 O430 1.251 . S
C442 O431 1.274 . S
C443 O428 1.245 . S
C443 O429 1.257 . S
C444 O433 1.259 . S
C444 O434 1.289 . S
C445 O432 1.246 . S
C445 O435 1.257 . S
C446 O436 1.274 . S
C446 O437 1.251 . S
C447 O438 1.257 . S
C447 O439 1.245 . S
O448 Co419 2.286 . S
O448 C440 1.259 . S
O449 Co419 2.069 . S
O449 C440 1.289 . S
O450 Co421 2.143 1_556 S
O450 C441 1.246 . S
O451 Co419 2.015 . S
O451 C441 1.257 . S
Co452 O455 2.042 . S
Co452 O462 2.264 . S
Co452 O481 2.286 . S
Co452 O482 2.069 . S
Co452 O484 2.015 . S
Co453 O455 2.122 . S
Co453 O461 2.073 . S
Co453 O462 2.327 . S
Co453 O463 1.976 . S
Co454 O455 2.099 . S
Co454 O457 2.075 1_455 S
Co454 O464 2.114 . S
Co454 O465 2.135 1_455 S
Co454 O469 2.108 1_455 S
Co454 O483 2.152 . S
O455 Co452 2.042 . S
O455 Co453 2.122 . S
O455 Co454 2.099 . S
O455 H456 0.980 . S
H456 O455 0.980 . S
O457 Co454 2.075 1_655 S
O457 Co458 2.042 . S
O457 Co459 2.122 . S
O457 H460 0.980 . S
Co458 O457 2.042 . S
Co458 O466 2.286 . S
Co458 O467 2.069 . S
Co458 O468 2.015 . S
Co458 O471 2.264 . S
Co459 O457 2.122 . S
Co459 O470 1.976 . S
Co459 O471 2.327 . S
Co459 O472 2.073 . S
H460 O457 0.980 . S
O461 Co453 2.073 . S
O461 C476 1.245 . S
O462 Co452 2.264 . S
O462 Co453 2.327 . S
O462 C476 1.257 . S
O463 Co453 1.976 . S
O463 C475 1.251 . S
O464 Co454 2.114 . S
O464 C475 1.274 . S
O465 Co454 2.135 1_655 S
O465 C478 1.246 . S
O466 Co458 2.286 . S
O466 C477 1.259 . S
O467 Co458 2.069 . S
O467 C477 1.289 . S
O468 Co458 2.015 . S
O468 C478 1.257 . S
O469 Co454 2.108 1_655 S
O469 C479 1.274 . S
O470 Co459 1.976 . S
O470 C479 1.251 . S
O471 Co458 2.264 . S
O471 Co459 2.327 . S
O471 C480 1.257 . S
O472 Co459 2.073 . S
O472 C480 1.245 . S
C473 O481 1.259 . S
C473 O482 1.289 . S
C474 O483 1.246 . S
C474 O484 1.257 . S
C475 O463 1.251 . S
C475 O464 1.274 . S
C476 O461 1.245 . S
C476 O462 1.257 . S
C477 O466 1.259 . S
C477 O467 1.289 . S
C478 O465 1.246 . S
C478 O468 1.257 . S
C479 O469 1.274 . S
C479 O470 1.251 . S
C480 O471 1.257 . S
C480 O472 1.245 . S
O481 Co452 2.286 . S
O481 C473 1.259 . S
O482 Co452 2.069 . S
O482 C473 1.289 . S
O483 Co454 2.152 . S
O483 C474 1.246 . S
O484 Co452 2.015 . S
O484 C474 1.257 . S
Co485 O488 2.042 . S
Co485 O495 2.264 . S
Co485 O514 2.286 . S
Co485 O515 2.069 . S
Co485 O517 2.015 1_565 S
Co486 O488 2.122 . S
Co486 O494 2.073 . S
Co486 O495 2.327 . S
Co486 O496 1.976 1_565 S
Co487 O488 2.076 1_545 S
Co487 O490 2.098 . S
Co487 O497 2.119 . S
Co487 O498 2.139 1_545 S
Co487 O502 2.103 1_545 S
Co487 O516 2.148 . S
O488 Co485 2.042 . S
O488 Co486 2.122 . S
O488 Co487 2.076 1_565 S
O488 H489 0.980 . S
H489 O488 0.980 . S
O490 Co487 2.098 . S
O490 Co491 2.042 . S
O490 Co492 2.122 . S
O490 H493 0.980 . S
Co491 O490 2.042 . S
Co491 O499 2.286 . S
Co491 O500 2.069 . S
Co491 O501 2.015 1_545 S
Co491 O504 2.264 . S
Co492 O490 2.122 . S
Co492 O503 1.976 1_545 S
Co492 O504 2.327 . S
Co492 O505 2.073 . S
H493 O490 0.980 . S
O494 Co486 2.073 . S
O494 C509 1.245 . S
O495 Co485 2.264 . S
O495 Co486 2.327 . S
O495 C509 1.257 . S
O496 Co486 1.976 1_545 S
O496 C508 1.251 . S
O497 Co487 2.119 . S
O497 C508 1.274 . S
O498 Co487 2.139 1_565 S
O498 C511 1.246 . S
O499 Co491 2.286 . S
O499 C510 1.259 . S
O500 Co491 2.069 . S
O500 C510 1.289 . S
O501 Co491 2.015 1_565 S
O501 C511 1.257 . S
O502 Co487 2.103 1_565 S
O502 C512 1.274 . S
O503 Co492 1.976 1_565 S
O503 C512 1.251 . S
O504 Co491 2.264 . S
O504 Co492 2.327 . S
O504 C513 1.257 . S
O505 Co492 2.073 . S
O505 C513 1.245 . S
C506 O514 1.259 . S
C506 O515 1.289 . S
C507 O516 1.246 . S
C507 O517 1.257 . S
C508 O496 1.251 . S
C508 O497 1.274 . S
C509 O494 1.245 . S
C509 O495 1.257 . S
C510 O499 1.259 . S
C510 O500 1.289 . S
C511 O498 1.246 . S
C511 O501 1.257 . S
C512 O502 1.274 . S
C512 O503 1.251 . S
C513 O504 1.257 . S
C513 O505 1.245 . S
O514 Co485 2.286 . S
O514 C506 1.259 . S
O515 Co485 2.069 . S
O515 C506 1.289 . S
O516 Co487 2.148 . S
O516 C507 1.246 . S
O517 Co485 2.015 1_545 S
O517 C507 1.257 . S
H518 C526 0.929 . S
H519 C528 0.930 . S
H520 C530 0.930 . S
H521 C533 0.929 . S
H522 C536 0.930 . S
H523 C538 0.960 . S
H524 C538 0.960 . S
H525 C538 0.960 . S
C526 H518 0.929 . S
C526 C527 1.377 . S
C526 C528 1.384 . S
C527 C526 1.377 . S
C527 C533 1.390 . S
C528 H519 0.930 . S
C528 C526 1.384 . S
C528 C529 1.372 . S
C529 C528 1.372 . S
C529 C530 1.400 . S
C529 C534 1.490 . S
C530 H520 0.930 . S
C530 C529 1.400 . S
C530 C533 1.386 . S
H531 C547 0.930 . S
H532 C548 0.931 . S
C533 H521 0.929 . S
C533 C527 1.390 . S
C533 C530 1.386 . S
C534 C529 1.490 . S
C534 C536 1.395 . S
C534 C537 1.403 . S
H535 C541 0.930 . S
C536 H522 0.930 . S
C536 C534 1.395 . S
C536 C539 1.403 . S
C537 C534 1.403 . S
C537 C538 1.524 . S
C537 C541 1.400 . S
C538 H523 0.960 . S
C538 H524 0.960 . S
C538 H525 0.960 . S
C538 C537 1.524 . S
C539 C536 1.403 . S
C539 C540 1.392 . S
C539 C543 1.495 . S
C540 C539 1.392 . S
C540 C541 1.385 . S
C540 C542 1.478 . S
C541 H535 0.930 . S
C541 C537 1.400 . S
C541 C540 1.385 . S
C542 C540 1.478 . S
C542 C544 1.381 . S
C542 C548 1.383 . S
C543 C539 1.495 . S
C543 H549 0.959 . S
C543 H550 0.961 . S
C543 H551 0.960 . S
C544 C542 1.381 . S
C544 C545 1.394 . S
C544 H552 0.930 . S
C545 C544 1.394 . S
C545 C546 1.383 . S
C545 H553 0.929 . S
C546 C545 1.383 . S
C546 C547 1.377 . S
C547 H531 0.930 . S
C547 C546 1.377 . S
C547 C548 1.379 . S
C548 H532 0.931 . S
C548 C542 1.383 . S
C548 C547 1.379 . S
H549 C543 0.959 . S
H550 C543 0.961 . S
H551 C543 0.960 . S
H552 C544 0.930 . S
H553 C545 0.929 . S
H554 C562 0.929 . S
H555 C564 0.930 . S
H556 C566 0.930 . S
H557 C569 0.929 . S
H558 C572 0.930 . S
H559 C574 0.960 . S
H560 C574 0.960 . S
H561 C574 0.960 . S
C562 H554 0.929 . S
C562 C563 1.377 . S
C562 C564 1.384 . S
C563 C562 1.377 . S
C563 C569 1.390 . S
C564 H555 0.930 . S
C564 C562 1.384 . S
C564 C565 1.372 . S
C565 C564 1.372 . S
C565 C566 1.400 . S
C565 C570 1.490 . S
C566 H556 0.930 . S
C566 C565 1.400 . S
C566 C569 1.386 . S
H567 C583 0.930 . S
H568 C584 0.931 . S
C569 H557 0.929 . S
C569 C563 1.390 . S
C569 C566 1.386 . S
C570 C565 1.490 . S
C570 C572 1.395 . S
C570 C573 1.403 . S
H571 C577 0.930 . S
C572 H558 0.930 . S
C572 C570 1.395 . S
C572 C575 1.403 . S
C573 C570 1.403 . S
C573 C574 1.524 . S
C573 C577 1.400 . S
C574 H559 0.960 . S
C574 H560 0.960 . S
C574 H561 0.960 . S
C574 C573 1.524 . S
C575 C572 1.403 . S
C575 C576 1.392 . S
C575 C579 1.495 . S
C576 C575 1.392 . S
C576 C577 1.385 . S
C576 C578 1.478 . S
C577 H571 0.930 . S
C577 C573 1.400 . S
C577 C576 1.385 . S
C578 C576 1.478 . S
C578 C580 1.381 . S
C578 C584 1.383 . S
C579 C575 1.495 . S
C579 H585 0.959 . S
C579 H586 0.961 . S
C579 H587 0.960 . S
C580 C578 1.381 . S
C580 C581 1.394 . S
C580 H588 0.930 . S
C581 C580 1.394 . S
C581 C582 1.383 . S
C581 H589 0.929 . S
C582 C581 1.383 . S
C582 C583 1.377 . S
C583 H567 0.930 . S
C583 C582 1.377 . S
C583 C584 1.379 . S
C584 H568 0.931 . S
C584 C578 1.383 . S
C584 C583 1.379 . S
H585 C579 0.959 . S
H586 C579 0.961 . S
H587 C579 0.960 . S
H588 C580 0.930 . S
H589 C581 0.929 . S
H590 C598 0.929 . S
H591 C600 0.930 . S
H592 C602 0.930 . S
H593 C605 0.929 . S
H594 C608 0.930 . S
H595 C610 0.960 . S
H596 C610 0.960 . S
H597 C610 0.960 . S
C598 H590 0.929 . S
C598 C599 1.377 . S
C598 C600 1.384 . S
C599 C598 1.377 . S
C599 C605 1.390 . S
C600 H591 0.930 . S
C600 C598 1.384 . S
C600 C601 1.372 . S
C601 C600 1.372 . S
C601 C602 1.400 . S
C601 C606 1.490 . S
C602 H592 0.930 . S
C602 C601 1.400 . S
C602 C605 1.386 . S
H603 C619 0.930 . S
H604 C620 0.931 . S
C605 H593 0.929 . S
C605 C599 1.390 . S
C605 C602 1.386 . S
C606 C601 1.490 . S
C606 C608 1.395 . S
C606 C609 1.403 . S
H607 C613 0.930 . S
C608 H594 0.930 . S
C608 C606 1.395 . S
C608 C611 1.403 . S
C609 C606 1.403 . S
C609 C610 1.524 . S
C609 C613 1.400 . S
C610 H595 0.960 . S
C610 H596 0.960 . S
C610 H597 0.960 . S
C610 C609 1.524 . S
C611 C608 1.403 . S
C611 C612 1.392 . S
C611 C615 1.495 . S
C612 C611 1.392 . S
C612 C613 1.385 . S
C612 C614 1.478 . S
C613 H607 0.930 . S
C613 C609 1.400 . S
C613 C612 1.385 . S
C614 C612 1.478 . S
C614 C616 1.381 . S
C614 C620 1.383 . S
C615 C611 1.495 . S
C615 H621 0.959 . S
C615 H622 0.961 . S
C615 H623 0.960 . S
C616 C614 1.381 . S
C616 C617 1.394 . S
C616 H624 0.930 . S
C617 C616 1.394 . S
C617 C618 1.383 . S
C617 H625 0.929 . S
C618 C617 1.383 . S
C618 C619 1.377 . S
C619 H603 0.930 . S
C619 C618 1.377 . S
C619 C620 1.379 . S
C620 H604 0.931 . S
C620 C614 1.383 . S
C620 C619 1.379 . S
H621 C615 0.959 . S
H622 C615 0.961 . S
H623 C615 0.960 . S
H624 C616 0.930 . S
H625 C617 0.929 . S
H626 C634 0.929 . S
H627 C636 0.930 . S
H628 C638 0.930 . S
H629 C641 0.929 . S
H630 C644 0.930 . S
H631 C646 0.960 . S
H632 C646 0.960 . S
H633 C646 0.960 . S
C634 H626 0.929 . S
C634 C635 1.377 . S
C634 C636 1.384 . S
C635 C634 1.377 . S
C635 C641 1.390 . S
C636 H627 0.930 . S
C636 C634 1.384 . S
C636 C637 1.372 . S
C637 C636 1.372 . S
C637 C638 1.400 . S
C637 C642 1.490 . S
C638 H628 0.930 . S
C638 C637 1.400 . S
C638 C641 1.386 . S
H639 C655 0.930 . S
H640 C656 0.931 . S
C641 H629 0.929 . S
C641 C635 1.390 . S
C641 C638 1.386 . S
C642 C637 1.490 . S
C642 C644 1.395 . S
C642 C645 1.403 . S
H643 C649 0.930 . S
C644 H630 0.930 . S
C644 C642 1.395 . S
C644 C647 1.403 . S
C645 C642 1.403 . S
C645 C646 1.524 . S
C645 C649 1.400 . S
C646 H631 0.960 . S
C646 H632 0.960 . S
C646 H633 0.960 . S
C646 C645 1.524 . S
C647 C644 1.403 . S
C647 C648 1.392 . S
C647 C651 1.495 . S
C648 C647 1.392 . S
C648 C649 1.385 . S
C648 C650 1.478 . S
C649 H643 0.930 . S
C649 C645 1.400 . S
C649 C648 1.385 . S
C650 C648 1.478 . S
C650 C652 1.381 . S
C650 C656 1.383 . S
C651 C647 1.495 . S
C651 H657 0.959 . S
C651 H658 0.961 . S
C651 H659 0.960 . S
C652 C650 1.381 . S
C652 C653 1.394 . S
C652 H660 0.930 . S
C653 C652 1.394 . S
C653 C654 1.383 . S
C653 H661 0.929 . S
C654 C653 1.383 . S
C654 C655 1.377 . S
C655 H639 0.930 . S
C655 C654 1.377 . S
C655 C656 1.379 . S
C656 H640 0.931 . S
C656 C650 1.383 . S
C656 C655 1.379 . S
H657 C651 0.959 . S
H658 C651 0.961 . S
H659 C651 0.960 . S
H660 C652 0.930 . S
H661 C653 0.929 . S
H662 C670 0.929 . S
H663 C672 0.930 . S
H664 C674 0.930 . S
H665 C677 0.929 . S
H666 C680 0.930 . S
H667 C682 0.960 . S
H668 C682 0.960 . S
H669 C682 0.960 . S
C670 H662 0.929 . S
C670 C671 1.377 . S
C670 C672 1.384 . S
C671 C670 1.377 . S
C671 C677 1.390 . S
C672 H663 0.930 . S
C672 C670 1.384 . S
C672 C673 1.372 . S
C673 C672 1.372 . S
C673 C674 1.400 . S
C673 C678 1.490 . S
C674 H664 0.930 . S
C674 C673 1.400 . S
C674 C677 1.386 . S
H675 C691 0.930 . S
H676 C692 0.931 . S
C677 H665 0.929 . S
C677 C671 1.390 . S
C677 C674 1.386 . S
C678 C673 1.490 . S
C678 C680 1.395 . S
C678 C681 1.403 . S
H679 C685 0.930 . S
C680 H666 0.930 . S
C680 C678 1.395 . S
C680 C683 1.403 . S
C681 C678 1.403 . S
C681 C682 1.524 . S
C681 C685 1.400 . S
C682 H667 0.960 . S
C682 H668 0.960 . S
C682 H669 0.960 . S
C682 C681 1.524 . S
C683 C680 1.403 . S
C683 C684 1.392 . S
C683 C687 1.495 . S
C684 C683 1.392 . S
C684 C685 1.385 . S
C684 C686 1.478 . S
C685 H679 0.930 . S
C685 C681 1.400 . S
C685 C684 1.385 . S
C686 C684 1.478 . S
C686 C688 1.381 . S
C686 C692 1.383 . S
C687 C683 1.495 . S
C687 H693 0.959 . S
C687 H694 0.961 . S
C687 H695 0.960 . S
C688 C686 1.381 . S
C688 C689 1.394 . S
C688 H696 0.930 . S
C689 C688 1.394 . S
C689 C690 1.383 . S
C689 H697 0.929 . S
C690 C689 1.383 . S
C690 C691 1.377 . S
C691 H675 0.930 . S
C691 C690 1.377 . S
C691 C692 1.379 . S
C692 H676 0.931 . S
C692 C686 1.383 . S
C692 C691 1.379 . S
H693 C687 0.959 . S
H694 C687 0.961 . S
H695 C687 0.960 . S
H696 C688 0.930 . S
H697 C689 0.929 . S
H698 C706 0.929 . S
H699 C708 0.930 . S
H700 C710 0.930 . S
H701 C713 0.929 . S
H702 C716 0.930 . S
H703 C718 0.960 . S
H704 C718 0.960 . S
H705 C718 0.960 . S
C706 H698 0.929 . S
C706 C707 1.377 . S
C706 C708 1.384 . S
C707 C706 1.377 . S
C707 C713 1.390 . S
C708 H699 0.930 . S
C708 C706 1.384 . S
C708 C709 1.372 . S
C709 C708 1.372 . S
C709 C710 1.400 . S
C709 C714 1.490 . S
C710 H700 0.930 . S
C710 C709 1.400 . S
C710 C713 1.386 . S
H711 C727 0.930 . S
H712 C728 0.931 . S
C713 H701 0.929 . S
C713 C707 1.390 . S
C713 C710 1.386 . S
C714 C709 1.490 . S
C714 C716 1.395 . S
C714 C717 1.403 . S
H715 C721 0.930 . S
C716 H702 0.930 . S
C716 C714 1.395 . S
C716 C719 1.403 . S
C717 C714 1.403 . S
C717 C718 1.524 . S
C717 C721 1.400 . S
C718 H703 0.960 . S
C718 H704 0.960 . S
C718 H705 0.960 . S
C718 C717 1.524 . S
C719 C716 1.403 . S
C719 C720 1.392 . S
C719 C723 1.495 . S
C720 C719 1.392 . S
C720 C721 1.385 . S
C720 C722 1.478 . S
C721 H715 0.930 . S
C721 C717 1.400 . S
C721 C720 1.385 . S
C722 C720 1.478 . S
C722 C724 1.381 . S
C722 C728 1.383 . S
C723 C719 1.495 . S
C723 H729 0.959 . S
C723 H730 0.961 . S
C723 H731 0.960 . S
C724 C722 1.381 . S
C724 C725 1.394 . S
C724 H732 0.930 . S
C725 C724 1.394 . S
C725 C726 1.383 . S
C725 H733 0.929 . S
C726 C725 1.383 . S
C726 C727 1.377 . S
C727 H711 0.930 . S
C727 C726 1.377 . S
C727 C728 1.379 . S
C728 H712 0.931 . S
C728 C722 1.383 . S
C728 C727 1.379 . S
H729 C723 0.959 . S
H730 C723 0.961 . S
H731 C723 0.960 . S
H732 C724 0.930 . S
H733 C725 0.929 . S
H734 C742 0.929 . S
H735 C744 0.930 . S
H736 C746 0.930 . S
H737 C749 0.929 . S
H738 C752 0.930 . S
H739 C754 0.960 . S
H740 C754 0.960 . S
H741 C754 0.960 . S
C742 H734 0.929 . S
C742 C743 1.377 . S
C742 C744 1.384 . S
C743 C742 1.377 . S
C743 C749 1.390 . S
C744 H735 0.930 . S
C744 C742 1.384 . S
C744 C745 1.372 . S
C745 C744 1.372 . S
C745 C746 1.400 . S
C745 C750 1.490 . S
C746 H736 0.930 . S
C746 C745 1.400 . S
C746 C749 1.386 . S
H747 C763 0.930 . S
H748 C764 0.931 . S
C749 H737 0.929 . S
C749 C743 1.390 . S
C749 C746 1.386 . S
C750 C745 1.490 . S
C750 C752 1.395 . S
C750 C753 1.403 . S
H751 C757 0.930 . S
C752 H738 0.930 . S
C752 C750 1.395 . S
C752 C755 1.403 . S
C753 C750 1.403 . S
C753 C754 1.524 . S
C753 C757 1.400 . S
C754 H739 0.960 . S
C754 H740 0.960 . S
C754 H741 0.960 . S
C754 C753 1.524 . S
C755 C752 1.403 . S
C755 C756 1.392 . S
C755 C759 1.495 . S
C756 C755 1.392 . S
C756 C757 1.385 . S
C756 C758 1.478 . S
C757 H751 0.930 . S
C757 C753 1.400 . S
C757 C756 1.385 . S
C758 C756 1.478 . S
C758 C760 1.381 . S
C758 C764 1.383 . S
C759 C755 1.495 . S
C759 H765 0.959 . S
C759 H766 0.961 . S
C759 H767 0.960 . S
C760 C758 1.381 . S
C760 C761 1.394 . S
C760 H768 0.930 . S
C761 C760 1.394 . S
C761 C762 1.383 . S
C761 H769 0.929 . S
C762 C761 1.383 . S
C762 C763 1.377 . S
C763 H747 0.930 . S
C763 C762 1.377 . S
C763 C764 1.379 . S
C764 H748 0.931 . S
C764 C758 1.383 . S
C764 C763 1.379 . S
H765 C759 0.959 . S
H766 C759 0.961 . S
H767 C759 0.960 . S
H768 C760 0.930 . S
H769 C761 0.929 . S
H770 C778 0.929 . S
H771 C780 0.930 . S
H772 C782 0.930 . S
H773 C785 0.929 . S
H774 C788 0.930 . S
H775 C790 0.960 . S
H776 C790 0.960 . S
H777 C790 0.960 . S
C778 H770 0.929 . S
C778 C779 1.377 . S
C778 C780 1.384 . S
C779 C778 1.377 . S
C779 C785 1.390 . S
C780 H771 0.930 . S
C780 C778 1.384 . S
C780 C781 1.372 . S
C781 C780 1.372 . S
C781 C782 1.400 . S
C781 C786 1.490 . S
C782 H772 0.930 . S
C782 C781 1.400 . S
C782 C785 1.386 . S
H783 C799 0.930 . S
H784 C800 0.931 . S
C785 H773 0.929 . S
C785 C779 1.390 . S
C785 C782 1.386 . S
C786 C781 1.490 . S
C786 C788 1.395 . S
C786 C789 1.403 . S
H787 C793 0.930 . S
C788 H774 0.930 . S
C788 C786 1.395 . S
C788 C791 1.403 . S
C789 C786 1.403 . S
C789 C790 1.524 . S
C789 C793 1.400 . S
C790 H775 0.960 . S
C790 H776 0.960 . S
C790 H777 0.960 . S
C790 C789 1.524 . S
C791 C788 1.403 . S
C791 C792 1.392 . S
C791 C795 1.495 . S
C792 C791 1.392 . S
C792 C793 1.385 . S
C792 C794 1.478 . S
C793 H787 0.930 . S
C793 C789 1.400 . S
C793 C792 1.385 . S
C794 C792 1.478 . S
C794 C796 1.381 . S
C794 C800 1.383 . S
C795 C791 1.495 . S
C795 H801 0.959 . S
C795 H802 0.961 . S
C795 H803 0.960 . S
C796 C794 1.381 . S
C796 C797 1.394 . S
C796 H804 0.930 . S
C797 C796 1.394 . S
C797 C798 1.383 . S
C797 H805 0.929 . S
C798 C797 1.383 . S
C798 C799 1.377 . S
C799 H783 0.930 . S
C799 C798 1.377 . S
C799 C800 1.379 . S
C800 H784 0.931 . S
C800 C794 1.383 . S
C800 C799 1.379 . S
H801 C795 0.959 . S
H802 C795 0.961 . S
H803 C795 0.960 . S
H804 C796 0.930 . S
H805 C797 0.929 . S
H806 C814 0.929 . S
H807 C816 0.930 . S
H808 C818 0.930 . S
H809 C821 0.929 . S
H810 C824 0.930 . S
H811 C826 0.960 . S
H812 C826 0.960 . S
H813 C826 0.960 . S
C814 H806 0.929 . S
C814 C815 1.377 . S
C814 C816 1.384 . S
C815 C814 1.377 . S
C815 C821 1.390 . S
C816 H807 0.930 . S
C816 C814 1.384 . S
C816 C817 1.372 . S
C817 C816 1.372 . S
C817 C818 1.400 . S
C817 C822 1.490 . S
C818 H808 0.930 . S
C818 C817 1.400 . S
C818 C821 1.386 . S
H819 C835 0.930 . S
H820 C836 0.931 . S
C821 H809 0.929 . S
C821 C815 1.390 . S
C821 C818 1.386 . S
C822 C817 1.490 . S
C822 C824 1.395 . S
C822 C825 1.403 . S
H823 C829 0.930 . S
C824 H810 0.930 . S
C824 C822 1.395 . S
C824 C827 1.403 . S
C825 C822 1.403 . S
C825 C826 1.524 . S
C825 C829 1.400 . S
C826 H811 0.960 . S
C826 H812 0.960 . S
C826 H813 0.960 . S
C826 C825 1.524 . S
C827 C824 1.403 . S
C827 C828 1.392 . S
C827 C831 1.495 . S
C828 C827 1.392 . S
C828 C829 1.385 . S
C828 C830 1.478 . S
C829 H823 0.930 . S
C829 C825 1.400 . S
C829 C828 1.385 . S
C830 C828 1.478 . S
C830 C832 1.381 . S
C830 C836 1.383 . S
C831 C827 1.495 . S
C831 H837 0.959 . S
C831 H838 0.961 . S
C831 H839 0.960 . S
C832 C830 1.381 . S
C832 C833 1.394 . S
C832 H840 0.930 . S
C833 C832 1.394 . S
C833 C834 1.383 . S
C833 H841 0.929 . S
C834 C833 1.383 . S
C834 C835 1.377 . S
C835 H819 0.930 . S
C835 C834 1.377 . S
C835 C836 1.379 . S
C836 H820 0.931 . S
C836 C830 1.383 . S
C836 C835 1.379 . S
H837 C831 0.959 . S
H838 C831 0.961 . S
H839 C831 0.960 . S
H840 C832 0.930 . S
H841 C833 0.929 . S
H842 C850 0.929 . S
H843 C852 0.930 . S
H844 C854 0.930 . S
H845 C857 0.929 . S
H846 C860 0.930 . S
H847 C862 0.960 . S
H848 C862 0.960 . S
H849 C862 0.960 . S
C850 H842 0.929 . S
C850 C851 1.377 . S
C850 C852 1.384 . S
C851 C850 1.377 . S
C851 C857 1.390 . S
C852 H843 0.930 . S
C852 C850 1.384 . S
C852 C853 1.372 . S
C853 C852 1.372 . S
C853 C854 1.400 . S
C853 C858 1.490 . S
C854 H844 0.930 . S
C854 C853 1.400 . S
C854 C857 1.386 . S
H855 C871 0.930 . S
H856 C872 0.931 . S
C857 H845 0.929 . S
C857 C851 1.390 . S
C857 C854 1.386 . S
C858 C853 1.490 . S
C858 C860 1.395 . S
C858 C861 1.403 . S
H859 C865 0.930 . S
C860 H846 0.930 . S
C860 C858 1.395 . S
C860 C863 1.403 . S
C861 C858 1.403 . S
C861 C862 1.524 . S
C861 C865 1.400 . S
C862 H847 0.960 . S
C862 H848 0.960 . S
C862 H849 0.960 . S
C862 C861 1.524 . S
C863 C860 1.403 . S
C863 C864 1.392 . S
C863 C867 1.495 . S
C864 C863 1.392 . S
C864 C865 1.385 . S
C864 C866 1.478 . S
C865 H859 0.930 . S
C865 C861 1.400 . S
C865 C864 1.385 . S
C866 C864 1.478 . S
C866 C868 1.381 . S
C866 C872 1.383 . S
C867 C863 1.495 . S
C867 H873 0.959 . S
C867 H874 0.961 . S
C867 H875 0.960 . S
C868 C866 1.381 . S
C868 C869 1.394 . S
C868 H876 0.930 . S
C869 C868 1.394 . S
C869 C870 1.383 . S
C869 H877 0.929 . S
C870 C869 1.383 . S
C870 C871 1.377 . S
C871 H855 0.930 . S
C871 C870 1.377 . S
C871 C872 1.379 . S
C872 H856 0.931 . S
C872 C866 1.383 . S
C872 C871 1.379 . S
H873 C867 0.959 . S
H874 C867 0.961 . S
H875 C867 0.960 . S
H876 C868 0.930 . S
H877 C869 0.929 . S
H878 C886 0.929 . S
H879 C888 0.930 . S
H880 C890 0.930 . S
H881 C893 0.929 . S
H882 C896 0.930 . S
H883 C898 0.960 . S
H884 C898 0.960 . S
H885 C898 0.960 . S
C886 H878 0.929 . S
C886 C887 1.377 . S
C886 C888 1.384 . S
C887 C886 1.377 . S
C887 C893 1.390 . S
C888 H879 0.930 . S
C888 C886 1.384 . S
C888 C889 1.372 . S
C889 C888 1.372 . S
C889 C890 1.400 . S
C889 C894 1.490 . S
C890 H880 0.930 . S
C890 C889 1.400 . S
C890 C893 1.386 . S
H891 C907 0.930 1_556 S
H892 C908 0.931 . S
C893 H881 0.929 . S
C893 C887 1.390 . S
C893 C890 1.386 . S
C894 C889 1.490 . S
C894 C896 1.395 . S
C894 C897 1.403 . S
H895 C901 0.930 . S
C896 H882 0.930 . S
C896 C894 1.395 . S
C896 C899 1.403 . S
C897 C894 1.403 . S
C897 C898 1.524 . S
C897 C901 1.400 . S
C898 H883 0.960 . S
C898 H884 0.960 . S
C898 H885 0.960 . S
C898 C897 1.524 . S
C899 C896 1.403 . S
C899 C900 1.392 . S
C899 C903 1.495 . S
C900 C899 1.392 . S
C900 C901 1.385 . S
C900 C902 1.478 . S
C901 H895 0.930 . S
C901 C897 1.400 . S
C901 C900 1.385 . S
C902 C900 1.478 . S
C902 C904 1.381 . S
C902 C908 1.383 . S
C903 C899 1.495 . S
C903 H909 0.959 . S
C903 H910 0.961 . S
C903 H911 0.960 . S
C904 C902 1.381 . S
C904 C905 1.394 . S
C904 H912 0.930 . S
C905 C904 1.394 . S
C905 C906 1.383 . S
C905 H913 0.929 . S
C906 C905 1.383 . S
C906 C907 1.377 . S
C907 H891 0.930 1_554 S
C907 C906 1.377 . S
C907 C908 1.379 . S
C908 H892 0.931 . S
C908 C902 1.383 . S
C908 C907 1.379 . S
H909 C903 0.959 . S
H910 C903 0.961 . S
H911 C903 0.960 . S
H912 C904 0.930 . S
H913 C905 0.929 . S
H914 C922 0.929 . S
H915 C924 0.930 . S
H916 C926 0.930 . S
H917 C929 0.929 . S
H918 C932 0.930 . S
H919 C934 0.960 . S
H920 C934 0.960 . S
H921 C934 0.960 . S
C922 H914 0.929 . S
C922 C923 1.377 . S
C922 C924 1.384 . S
C923 C922 1.377 . S
C923 C929 1.390 . S
C924 H915 0.930 . S
C924 C922 1.384 . S
C924 C925 1.372 . S
C925 C924 1.372 . S
C925 C926 1.400 . S
C925 C930 1.490 . S
C926 H916 0.930 . S
C926 C925 1.400 . S
C926 C929 1.386 . S
H927 C943 0.930 . S
H928 C944 0.931 . S
C929 H917 0.929 . S
C929 C923 1.390 . S
C929 C926 1.386 . S
C930 C925 1.490 . S
C930 C932 1.395 . S
C930 C933 1.403 . S
H931 C937 0.930 . S
C932 H918 0.930 . S
C932 C930 1.395 . S
C932 C935 1.403 . S
C933 C930 1.403 . S
C933 C934 1.524 . S
C933 C937 1.400 . S
C934 H919 0.960 . S
C934 H920 0.960 . S
C934 H921 0.960 . S
C934 C933 1.524 . S
C935 C932 1.403 . S
C935 C936 1.392 . S
C935 C939 1.495 . S
C936 C935 1.392 . S
C936 C937 1.385 . S
C936 C938 1.478 . S
C937 H931 0.930 . S
C937 C933 1.400 . S
C937 C936 1.385 . S
C938 C936 1.478 . S
C938 C940 1.381 . S
C938 C944 1.383 . S
C939 C935 1.495 . S
C939 H945 0.959 . S
C939 H946 0.961 . S
C939 H947 0.960 . S
C940 C938 1.381 . S
C940 C941 1.394 . S
C940 H948 0.930 . S
C941 C940 1.394 . S
C941 C942 1.383 . S
C941 H949 0.929 . S
C942 C941 1.383 . S
C942 C943 1.377 . S
C943 H927 0.930 . S
C943 C942 1.377 . S
C943 C944 1.379 . S
C944 H928 0.931 . S
C944 C938 1.383 . S
C944 C943 1.379 . S
H945 C939 0.959 . S
H946 C939 0.961 . S
H947 C939 0.960 . S
H948 C940 0.930 . S
H949 C941 0.929 . S
H950 C958 0.929 . S
H951 C960 0.930 . S
H952 C962 0.930 . S
H953 C965 0.929 . S
H954 C968 0.930 . S
H955 C970 0.960 . S
H956 C970 0.960 . S
H957 C970 0.960 . S
C958 H950 0.929 . S
C958 C959 1.377 . S
C958 C960 1.384 . S
C959 C958 1.377 . S
C959 C965 1.390 . S
C960 H951 0.930 . S
C960 C958 1.384 . S
C960 C961 1.372 . S
C961 C960 1.372 . S
C961 C962 1.400 . S
C961 C966 1.490 . S
C962 H952 0.930 . S
C962 C961 1.400 . S
C962 C965 1.386 . S
H963 C979 0.930 . S
H964 C980 0.931 . S
C965 H953 0.929 . S
C965 C959 1.390 . S
C965 C962 1.386 . S
C966 C961 1.490 . S
C966 C968 1.395 . S
C966 C969 1.403 . S
H967 C973 0.930 . S
C968 H954 0.930 . S
C968 C966 1.395 . S
C968 C971 1.403 . S
C969 C966 1.403 . S
C969 C970 1.524 . S
C969 C973 1.400 . S
C970 H955 0.960 . S
C970 H956 0.960 . S
C970 H957 0.960 . S
C970 C969 1.524 . S
C971 C968 1.403 . S
C971 C972 1.392 . S
C971 C975 1.495 . S
C972 C971 1.392 . S
C972 C973 1.385 . S
C972 C974 1.478 . S
C973 H967 0.930 . S
C973 C969 1.400 . S
C973 C972 1.385 . S
C974 C972 1.478 . S
C974 C976 1.381 . S
C974 C980 1.383 . S
C975 C971 1.495 . S
C975 H981 0.959 . S
C975 H982 0.961 . S
C975 H983 0.960 . S
C976 C974 1.381 . S
C976 C977 1.394 . S
C976 H984 0.930 . S
C977 C976 1.394 . S
C977 C978 1.383 . S
C977 H985 0.929 . S
C978 C977 1.383 . S
C978 C979 1.377 . S
C979 H963 0.930 . S
C979 C978 1.377 . S
C979 C980 1.379 . S
C980 H964 0.931 . S
C980 C974 1.383 . S
C980 C979 1.379 . S
H981 C975 0.959 . S
H982 C975 0.961 . S
H983 C975 0.960 . S
H984 C976 0.930 . S
H985 C977 0.929 . S
H986 C994 0.929 . S
H987 C996 0.930 . S
H988 C998 0.930 . S
H989 C1001 0.929 . S
H990 C1004 0.930 . S
H991 C1006 0.960 . S
H992 C1006 0.960 . S
H993 C1006 0.960 . S
C994 H986 0.929 . S
C994 C995 1.377 . S
C994 C996 1.384 . S
C995 C994 1.377 . S
C995 C1001 1.390 . S
C996 H987 0.930 . S
C996 C994 1.384 . S
C996 C997 1.372 . S
C997 C996 1.372 . S
C997 C998 1.400 . S
C997 C1002 1.490 . S
C998 H988 0.930 . S
C998 C997 1.400 . S
C998 C1001 1.386 . S
H999 C1015 0.930 . S
H1000 C1016 0.931 . S
C1001 H989 0.929 . S
C1001 C995 1.390 . S
C1001 C998 1.386 . S
C1002 C997 1.490 . S
C1002 C1004 1.395 . S
C1002 C1005 1.403 . S
H1003 C1009 0.930 . S
C1004 H990 0.930 . S
C1004 C1002 1.395 . S
C1004 C1007 1.403 . S
C1005 C1002 1.403 . S
C1005 C1006 1.524 . S
C1005 C1009 1.400 . S
C1006 H991 0.960 . S
C1006 H992 0.960 . S
C1006 H993 0.960 . S
C1006 C1005 1.524 . S
C1007 C1004 1.403 . S
C1007 C1008 1.392 . S
C1007 C1011 1.495 . S
C1008 C1007 1.392 . S
C1008 C1009 1.385 . S
C1008 C1010 1.478 . S
C1009 H1003 0.930 . S
C1009 C1005 1.400 . S
C1009 C1008 1.385 . S
C1010 C1008 1.478 . S
C1010 C1012 1.381 . S
C1010 C1016 1.383 . S
C1011 C1007 1.495 . S
C1011 H1017 0.959 . S
C1011 H1018 0.961 . S
C1011 H1019 0.960 . S
C1012 C1010 1.381 . S
C1012 C1013 1.394 . S
C1012 H1020 0.930 . S
C1013 C1012 1.394 . S
C1013 C1014 1.383 . S
C1013 H1021 0.929 . S
C1014 C1013 1.383 . S
C1014 C1015 1.377 . S
C1015 H999 0.930 . S
C1015 C1014 1.377 . S
C1015 C1016 1.379 . S
C1016 H1000 0.931 . S
C1016 C1010 1.383 . S
C1016 C1015 1.379 . S
H1017 C1011 0.959 . S
H1018 C1011 0.961 . S
H1019 C1011 0.960 . S
H1020 C1012 0.930 . S
H1021 C1013 0.929 . S
H1022 C1030 0.929 . S
H1023 C1032 0.930 . S
H1024 C1034 0.930 . S
H1025 C1037 0.929 . S
H1026 C1040 0.930 . S
H1027 C1042 0.960 . S
H1028 C1042 0.960 . S
H1029 C1042 0.960 . S
C1030 H1022 0.929 . S
C1030 C1031 1.377 . S
C1030 C1032 1.384 . S
C1031 C1030 1.377 . S
C1031 C1037 1.390 . S
C1032 H1023 0.930 . S
C1032 C1030 1.384 . S
C1032 C1033 1.372 . S
C1033 C1032 1.372 . S
C1033 C1034 1.400 . S
C1033 C1038 1.490 . S
C1034 H1024 0.930 . S
C1034 C1033 1.400 . S
C1034 C1037 1.386 . S
H1035 C1051 0.930 . S
H1036 C1052 0.931 . S
C1037 H1025 0.929 . S
C1037 C1031 1.390 . S
C1037 C1034 1.386 . S
C1038 C1033 1.490 . S
C1038 C1040 1.395 . S
C1038 C1041 1.403 . S
H1039 C1045 0.930 . S
C1040 H1026 0.930 . S
C1040 C1038 1.395 . S
C1040 C1043 1.403 . S
C1041 C1038 1.403 . S
C1041 C1042 1.524 . S
C1041 C1045 1.400 . S
C1042 H1027 0.960 . S
C1042 H1028 0.960 . S
C1042 H1029 0.960 . S
C1042 C1041 1.524 . S
C1043 C1040 1.403 . S
C1043 C1044 1.392 . S
C1043 C1047 1.495 . S
C1044 C1043 1.392 . S
C1044 C1045 1.385 . S
C1044 C1046 1.478 . S
C1045 H1039 0.930 . S
C1045 C1041 1.400 . S
C1045 C1044 1.385 . S
C1046 C1044 1.478 . S
C1046 C1048 1.381 . S
C1046 C1052 1.383 . S
C1047 C1043 1.495 . S
C1047 H1053 0.959 . S
C1047 H1054 0.961 . S
C1047 H1055 0.960 . S
C1048 C1046 1.381 . S
C1048 C1049 1.394 . S
C1048 H1056 0.930 . S
C1049 C1048 1.394 . S
C1049 C1050 1.383 . S
C1049 H1057 0.929 . S
C1050 C1049 1.383 . S
C1050 C1051 1.377 . S
C1051 H1035 0.930 . S
C1051 C1050 1.377 . S
C1051 C1052 1.379 . S
C1052 H1036 0.931 . S
C1052 C1046 1.383 . S
C1052 C1051 1.379 . S
H1053 C1047 0.959 . S
H1054 C1047 0.961 . S
H1055 C1047 0.960 . S
H1056 C1048 0.930 . S
H1057 C1049 0.929 . S
H1058 C1066 0.929 . S
H1059 C1068 0.930 . S
H1060 C1070 0.930 . S
H1061 C1073 0.929 . S
H1062 C1076 0.930 . S
H1063 C1078 0.960 . S
H1064 C1078 0.960 . S
H1065 C1078 0.960 . S
C1066 H1058 0.929 . S
C1066 C1067 1.377 . S
C1066 C1068 1.384 . S
C1067 C1066 1.377 . S
C1067 C1073 1.390 . S
C1068 H1059 0.930 . S
C1068 C1066 1.384 . S
C1068 C1069 1.372 . S
C1069 C1068 1.372 . S
C1069 C1070 1.400 . S
C1069 C1074 1.490 . S
C1070 H1060 0.930 . S
C1070 C1069 1.400 . S
C1070 C1073 1.386 . S
H1071 C1087 0.930 . S
H1072 C1088 0.931 . S
C1073 H1061 0.929 . S
C1073 C1067 1.390 . S
C1073 C1070 1.386 . S
C1074 C1069 1.490 . S
C1074 C1076 1.395 . S
C1074 C1077 1.403 . S
H1075 C1081 0.930 . S
C1076 H1062 0.930 . S
C1076 C1074 1.395 . S
C1076 C1079 1.403 . S
C1077 C1074 1.403 . S
C1077 C1078 1.524 . S
C1077 C1081 1.400 . S
C1078 H1063 0.960 . S
C1078 H1064 0.960 . S
C1078 H1065 0.960 . S
C1078 C1077 1.524 . S
C1079 C1076 1.403 . S
C1079 C1080 1.392 . S
C1079 C1083 1.495 . S
C1080 C1079 1.392 . S
C1080 C1081 1.385 . S
C1080 C1082 1.478 . S
C1081 H1075 0.930 . S
C1081 C1077 1.400 . S
C1081 C1080 1.385 . S
C1082 C1080 1.478 . S
C1082 C1084 1.381 . S
C1082 C1088 1.383 . S
C1083 C1079 1.495 . S
C1083 H1089 0.959 . S
C1083 H1090 0.961 . S
C1083 H1091 0.960 . S
C1084 C1082 1.381 . S
C1084 C1085 1.394 . S
C1084 H1092 0.930 . S
C1085 C1084 1.394 . S
C1085 C1086 1.383 . S
C1085 H1093 0.929 . S
C1086 C1085 1.383 . S
C1086 C1087 1.377 . S
C1087 H1071 0.930 . S
C1087 C1086 1.377 . S
C1087 C1088 1.379 . S
C1088 H1072 0.931 . S
C1088 C1082 1.383 . S
C1088 C1087 1.379 . S
H1089 C1083 0.959 . S
H1090 C1083 0.961 . S
H1091 C1083 0.960 . S
H1092 C1084 0.930 . S
H1093 C1085 0.929 . S
H1094 C1102 0.929 . S
H1095 C1104 0.930 . S
H1096 C1106 0.930 . S
H1097 C1109 0.929 . S
H1098 C1112 0.930 . S
H1099 C1114 0.960 . S
H1100 C1114 0.960 . S
H1101 C1114 0.960 . S
C1102 H1094 0.929 . S
C1102 C1103 1.377 . S
C1102 C1104 1.384 . S
C1103 C1102 1.377 . S
C1103 C1109 1.390 . S
C1104 H1095 0.930 . S
C1104 C1102 1.384 . S
C1104 C1105 1.372 . S
C1105 C1104 1.372 . S
C1105 C1106 1.400 . S
C1105 C1110 1.490 . S
C1106 H1096 0.930 . S
C1106 C1105 1.400 . S
C1106 C1109 1.386 . S
H1107 C1123 0.930 . S
H1108 C1124 0.931 . S
C1109 H1097 0.929 . S
C1109 C1103 1.390 . S
C1109 C1106 1.386 . S
C1110 C1105 1.490 . S
C1110 C1112 1.395 . S
C1110 C1113 1.403 . S
H1111 C1117 0.930 . S
C1112 H1098 0.930 . S
C1112 C1110 1.395 . S
C1112 C1115 1.403 . S
C1113 C1110 1.403 . S
C1113 C1114 1.524 . S
C1113 C1117 1.400 . S
C1114 H1099 0.960 . S
C1114 H1100 0.960 . S
C1114 H1101 0.960 . S
C1114 C1113 1.524 . S
C1115 C1112 1.403 . S
C1115 C1116 1.392 . S
C1115 C1119 1.495 . S
C1116 C1115 1.392 . S
C1116 C1117 1.385 . S
C1116 C1118 1.478 . S
C1117 H1111 0.930 . S
C1117 C1113 1.400 . S
C1117 C1116 1.385 . S
C1118 C1116 1.478 . S
C1118 C1120 1.381 . S
C1118 C1124 1.383 . S
C1119 C1115 1.495 . S
C1119 H1125 0.959 . S
C1119 H1126 0.961 . S
C1119 H1127 0.960 . S
C1120 C1118 1.381 . S
C1120 C1121 1.394 . S
C1120 H1128 0.930 . S
C1121 C1120 1.394 . S
C1121 C1122 1.383 . S
C1121 H1129 0.929 . S
C1122 C1121 1.383 . S
C1122 C1123 1.377 . S
C1123 H1107 0.930 . S
C1123 C1122 1.377 . S
C1123 C1124 1.379 . S
C1124 H1108 0.931 . S
C1124 C1118 1.383 . S
C1124 C1123 1.379 . S
H1125 C1119 0.959 . S
H1126 C1119 0.961 . S
H1127 C1119 0.960 . S
H1128 C1120 0.930 . S
H1129 C1121 0.929 . S
H1130 C1138 0.929 . S
H1131 C1140 0.930 . S
H1132 C1142 0.930 . S
H1133 C1145 0.929 . S
H1134 C1148 0.930 . S
H1135 C1150 0.960 . S
H1136 C1150 0.960 . S
H1137 C1150 0.960 . S
C1138 H1130 0.929 . S
C1138 C1139 1.377 . S
C1138 C1140 1.384 . S
C1139 C1138 1.377 . S
C1139 C1145 1.390 . S
C1140 H1131 0.930 . S
C1140 C1138 1.384 . S
C1140 C1141 1.372 . S
C1141 C1140 1.372 . S
C1141 C1142 1.400 . S
C1141 C1146 1.490 . S
C1142 H1132 0.930 . S
C1142 C1141 1.400 . S
C1142 C1145 1.386 . S
H1143 C1159 0.930 . S
H1144 C1160 0.931 . S
C1145 H1133 0.929 . S
C1145 C1139 1.390 . S
C1145 C1142 1.386 . S
C1146 C1141 1.490 . S
C1146 C1148 1.395 . S
C1146 C1149 1.403 . S
H1147 C1153 0.930 . S
C1148 H1134 0.930 . S
C1148 C1146 1.395 . S
C1148 C1151 1.403 . S
C1149 C1146 1.403 . S
C1149 C1150 1.524 . S
C1149 C1153 1.400 . S
C1150 H1135 0.960 . S
C1150 H1136 0.960 . S
C1150 H1137 0.960 . S
C1150 C1149 1.524 . S
C1151 C1148 1.403 . S
C1151 C1152 1.392 . S
C1151 C1155 1.495 . S
C1152 C1151 1.392 . S
C1152 C1153 1.385 . S
C1152 C1154 1.478 . S
C1153 H1147 0.930 . S
C1153 C1149 1.400 . S
C1153 C1152 1.385 . S
C1154 C1152 1.478 . S
C1154 C1156 1.381 . S
C1154 C1160 1.383 . S
C1155 C1151 1.495 . S
C1155 H1161 0.959 . S
C1155 H1162 0.961 . S
C1155 H1163 0.960 . S
C1156 C1154 1.381 . S
C1156 C1157 1.394 . S
C1156 H1164 0.930 . S
C1157 C1156 1.394 . S
C1157 C1158 1.383 . S
C1157 H1165 0.929 . S
C1158 C1157 1.383 . S
C1158 C1159 1.377 . S
C1159 H1143 0.930 . S
C1159 C1158 1.377 . S
C1159 C1160 1.379 . S
C1160 H1144 0.931 . S
C1160 C1154 1.383 . S
C1160 C1159 1.379 . S
H1161 C1155 0.959 . S
H1162 C1155 0.961 . S
H1163 C1155 0.960 . S
H1164 C1156 0.930 . S
H1165 C1157 0.929 . S
H1166 C1174 0.929 . S
H1167 C1176 0.930 . S
H1168 C1178 0.930 . S
H1169 C1181 0.929 . S
H1170 C1184 0.930 . S
H1171 C1186 0.960 . S
H1172 C1186 0.960 . S
H1173 C1186 0.960 . S
C1174 H1166 0.929 . S
C1174 C1175 1.377 . S
C1174 C1176 1.384 . S
C1175 C1174 1.377 . S
C1175 C1181 1.390 . S
C1176 H1167 0.930 . S
C1176 C1174 1.384 . S
C1176 C1177 1.372 . S
C1177 C1176 1.372 . S
C1177 C1178 1.400 . S
C1177 C1182 1.490 . S
C1178 H1168 0.930 . S
C1178 C1177 1.400 . S
C1178 C1181 1.386 . S
H1179 C1195 0.930 1_554 S
H1180 C1196 0.931 . S
C1181 H1169 0.929 . S
C1181 C1175 1.390 . S
C1181 C1178 1.386 . S
C1182 C1177 1.490 . S
C1182 C1184 1.395 . S
C1182 C1185 1.403 . S
H1183 C1189 0.930 . S
C1184 H1170 0.930 . S
C1184 C1182 1.395 . S
C1184 C1187 1.403 . S
C1185 C1182 1.403 . S
C1185 C1186 1.524 . S
C1185 C1189 1.400 . S
C1186 H1171 0.960 . S
C1186 H1172 0.960 . S
C1186 H1173 0.960 . S
C1186 C1185 1.524 . S
C1187 C1184 1.403 . S
C1187 C1188 1.392 . S
C1187 C1191 1.495 . S
C1188 C1187 1.392 . S
C1188 C1189 1.385 . S
C1188 C1190 1.478 . S
C1189 H1183 0.930 . S
C1189 C1185 1.400 . S
C1189 C1188 1.385 . S
C1190 C1188 1.478 . S
C1190 C1192 1.381 . S
C1190 C1196 1.383 . S
C1191 C1187 1.495 . S
C1191 H1197 0.959 . S
C1191 H1198 0.961 . S
C1191 H1199 0.960 . S
C1192 C1190 1.381 . S
C1192 C1193 1.394 . S
C1192 H1200 0.930 . S
C1193 C1192 1.394 . S
C1193 C1194 1.383 . S
C1193 H1201 0.929 . S
C1194 C1193 1.383 . S
C1194 C1195 1.377 . S
C1195 H1179 0.930 1_556 S
C1195 C1194 1.377 . S
C1195 C1196 1.379 . S
C1196 H1180 0.931 . S
C1196 C1190 1.383 . S
C1196 C1195 1.379 . S
H1197 C1191 0.959 . S
H1198 C1191 0.961 . S
H1199 C1191 0.960 . S
H1200 C1192 0.930 . S
H1201 C1193 0.929 . S
H1202 C1210 0.929 . S
H1203 C1212 0.930 . S
H1204 C1214 0.930 . S
H1205 C1217 0.929 . S
H1206 C1220 0.930 . S
H1207 C1222 0.960 . S
H1208 C1222 0.960 . S
H1209 C1222 0.960 . S
C1210 H1202 0.929 . S
C1210 C1211 1.377 . S
C1210 C1212 1.384 . S
C1211 C1210 1.377 . S
C1211 C1217 1.390 . S
C1212 H1203 0.930 . S
C1212 C1210 1.384 . S
C1212 C1213 1.372 . S
C1213 C1212 1.372 . S
C1213 C1214 1.400 . S
C1213 C1218 1.490 . S
C1214 H1204 0.930 . S
C1214 C1213 1.400 . S
C1214 C1217 1.386 . S
H1215 C1231 0.930 . S
H1216 C1232 0.931 . S
C1217 H1205 0.929 . S
C1217 C1211 1.390 . S
C1217 C1214 1.386 . S
C1218 C1213 1.490 . S
C1218 C1220 1.395 . S
C1218 C1221 1.403 . S
H1219 C1225 0.930 . S
C1220 H1206 0.930 . S
C1220 C1218 1.395 . S
C1220 C1223 1.403 . S
C1221 C1218 1.403 . S
C1221 C1222 1.524 . S
C1221 C1225 1.400 . S
C1222 H1207 0.960 . S
C1222 H1208 0.960 . S
C1222 H1209 0.960 . S
C1222 C1221 1.524 . S
C1223 C1220 1.403 . S
C1223 C1224 1.392 . S
C1223 C1227 1.495 . S
C1224 C1223 1.392 . S
C1224 C1225 1.385 . S
C1224 C1226 1.478 . S
C1225 H1219 0.930 . S
C1225 C1221 1.400 . S
C1225 C1224 1.385 . S
C1226 C1224 1.478 . S
C1226 C1228 1.381 . S
C1226 C1232 1.383 . S
C1227 C1223 1.495 . S
C1227 H1233 0.959 . S
C1227 H1234 0.961 . S
C1227 H1235 0.960 . S
C1228 C1226 1.381 . S
C1228 C1229 1.394 . S
C1228 H1236 0.930 . S
C1229 C1228 1.394 . S
C1229 C1230 1.383 . S
C1229 H1237 0.929 . S
C1230 C1229 1.383 . S
C1230 C1231 1.377 . S
C1231 H1215 0.930 . S
C1231 C1230 1.377 . S
C1231 C1232 1.379 . S
C1232 H1216 0.931 . S
C1232 C1226 1.383 . S
C1232 C1231 1.379 . S
H1233 C1227 0.959 . S
H1234 C1227 0.961 . S
H1235 C1227 0.960 . S
H1236 C1228 0.930 . S
H1237 C1229 0.929 . S
H1238 C1246 0.929 . S
H1239 C1248 0.930 . S
H1240 C1250 0.930 . S
H1241 C1253 0.929 . S
H1242 C1256 0.930 . S
H1243 C1258 0.960 . S
H1244 C1258 0.960 . S
H1245 C1258 0.960 . S
C1246 H1238 0.929 . S
C1246 C1247 1.377 . S
C1246 C1248 1.384 . S
C1247 C1246 1.377 . S
C1247 C1253 1.390 . S
C1248 H1239 0.930 . S
C1248 C1246 1.384 . S
C1248 C1249 1.372 . S
C1249 C1248 1.372 . S
C1249 C1250 1.400 . S
C1249 C1254 1.490 . S
C1250 H1240 0.930 . S
C1250 C1249 1.400 . S
C1250 C1253 1.386 . S
H1251 C1267 0.930 . S
H1252 C1268 0.931 . S
C1253 H1241 0.929 . S
C1253 C1247 1.390 . S
C1253 C1250 1.386 . S
C1254 C1249 1.490 . S
C1254 C1256 1.395 . S
C1254 C1257 1.403 . S
H1255 C1261 0.930 . S
C1256 H1242 0.930 . S
C1256 C1254 1.395 . S
C1256 C1259 1.403 . S
C1257 C1254 1.403 . S
C1257 C1258 1.524 . S
C1257 C1261 1.400 . S
C1258 H1243 0.960 . S
C1258 H1244 0.960 . S
C1258 H1245 0.960 . S
C1258 C1257 1.524 . S
C1259 C1256 1.403 . S
C1259 C1260 1.392 . S
C1259 C1263 1.495 . S
C1260 C1259 1.392 . S
C1260 C1261 1.385 . S
C1260 C1262 1.478 . S
C1261 H1255 0.930 . S
C1261 C1257 1.400 . S
C1261 C1260 1.385 . S
C1262 C1260 1.478 . S
C1262 C1264 1.381 . S
C1262 C1268 1.383 . S
C1263 C1259 1.495 . S
C1263 H1269 0.959 . S
C1263 H1270 0.961 . S
C1263 H1271 0.960 . S
C1264 C1262 1.381 . S
C1264 C1265 1.394 . S
C1264 H1272 0.930 . S
C1265 C1264 1.394 . S
C1265 C1266 1.383 . S
C1265 H1273 0.929 . S
C1266 C1265 1.383 . S
C1266 C1267 1.377 . S
C1267 H1251 0.930 . S
C1267 C1266 1.377 . S
C1267 C1268 1.379 . S
C1268 H1252 0.931 . S
C1268 C1262 1.383 . S
C1268 C1267 1.379 . S
H1269 C1263 0.959 . S
H1270 C1263 0.961 . S
H1271 C1263 0.960 . S
H1272 C1264 0.930 . S
H1273 C1265 0.929 . S
H1274 C1282 0.929 . S
H1275 C1284 0.930 . S
H1276 C1286 0.930 . S
H1277 C1289 0.929 . S
H1278 C1292 0.930 . S
H1279 C1294 0.960 . S
H1280 C1294 0.960 . S
H1281 C1294 0.960 . S
C1282 H1274 0.929 . S
C1282 C1283 1.377 . S
C1282 C1284 1.384 . S
C1283 C1282 1.377 . S
C1283 C1289 1.390 . S
C1284 H1275 0.930 . S
C1284 C1282 1.384 . S
C1284 C1285 1.372 . S
C1285 C1284 1.372 . S
C1285 C1286 1.400 . S
C1285 C1290 1.490 . S
C1286 H1276 0.930 . S
C1286 C1285 1.400 . S
C1286 C1289 1.386 . S
H1287 C1303 0.930 . S
H1288 C1304 0.931 . S
C1289 H1277 0.929 . S
C1289 C1283 1.390 . S
C1289 C1286 1.386 . S
C1290 C1285 1.490 . S
C1290 C1292 1.395 . S
C1290 C1293 1.403 . S
H1291 C1297 0.930 . S
C1292 H1278 0.930 . S
C1292 C1290 1.395 . S
C1292 C1295 1.403 . S
C1293 C1290 1.403 . S
C1293 C1294 1.524 . S
C1293 C1297 1.400 . S
C1294 H1279 0.960 . S
C1294 H1280 0.960 . S
C1294 H1281 0.960 . S
C1294 C1293 1.524 . S
C1295 C1292 1.403 . S
C1295 C1296 1.392 . S
C1295 C1299 1.495 . S
C1296 C1295 1.392 . S
C1296 C1297 1.385 . S
C1296 C1298 1.478 . S
C1297 H1291 0.930 . S
C1297 C1293 1.400 . S
C1297 C1296 1.385 . S
C1298 C1296 1.478 . S
C1298 C1300 1.381 . S
C1298 C1304 1.383 . S
C1299 C1295 1.495 . S
C1299 H1305 0.959 . S
C1299 H1306 0.961 . S
C1299 H1307 0.960 . S
C1300 C1298 1.381 . S
C1300 C1301 1.394 . S
C1300 H1308 0.930 . S
C1301 C1300 1.394 . S
C1301 C1302 1.383 . S
C1301 H1309 0.929 . S
C1302 C1301 1.383 . S
C1302 C1303 1.377 . S
C1303 H1287 0.930 . S
C1303 C1302 1.377 . S
C1303 C1304 1.379 . S
C1304 H1288 0.931 . S
C1304 C1298 1.383 . S
C1304 C1303 1.379 . S
H1305 C1299 0.959 . S
H1306 C1299 0.961 . S
H1307 C1299 0.960 . S
H1308 C1300 0.930 . S
H1309 C1301 0.929 . S
H1310 C1318 0.929 . S
H1311 C1320 0.930 . S
H1312 C1322 0.930 . S
H1313 C1325 0.929 . S
H1314 C1328 0.930 . S
H1315 C1330 0.960 . S
H1316 C1330 0.960 . S
H1317 C1330 0.960 . S
C1318 H1310 0.929 . S
C1318 C1319 1.377 . S
C1318 C1320 1.384 . S
C1319 C1318 1.377 . S
C1319 C1325 1.390 . S
C1320 H1311 0.930 . S
C1320 C1318 1.384 . S
C1320 C1321 1.372 . S
C1321 C1320 1.372 . S
C1321 C1322 1.400 . S
C1321 C1326 1.490 . S
C1322 H1312 0.930 . S
C1322 C1321 1.400 . S
C1322 C1325 1.386 . S
H1323 C1339 0.930 . S
H1324 C1340 0.931 . S
C1325 H1313 0.929 . S
C1325 C1319 1.390 . S
C1325 C1322 1.386 . S
C1326 C1321 1.490 . S
C1326 C1328 1.395 . S
C1326 C1329 1.403 . S
H1327 C1333 0.930 . S
C1328 H1314 0.930 . S
C1328 C1326 1.395 . S
C1328 C1331 1.403 . S
C1329 C1326 1.403 . S
C1329 C1330 1.524 . S
C1329 C1333 1.400 . S
C1330 H1315 0.960 . S
C1330 H1316 0.960 . S
C1330 H1317 0.960 . S
C1330 C1329 1.524 . S
C1331 C1328 1.403 . S
C1331 C1332 1.392 . S
C1331 C1335 1.495 . S
C1332 C1331 1.392 . S
C1332 C1333 1.385 . S
C1332 C1334 1.478 . S
C1333 H1327 0.930 . S
C1333 C1329 1.400 . S
C1333 C1332 1.385 . S
C1334 C1332 1.478 . S
C1334 C1336 1.381 . S
C1334 C1340 1.383 . S
C1335 C1331 1.495 . S
C1335 H1341 0.959 . S
C1335 H1342 0.961 . S
C1335 H1343 0.960 . S
C1336 C1334 1.381 . S
C1336 C1337 1.394 . S
C1336 H1344 0.930 . S
C1337 C1336 1.394 . S
C1337 C1338 1.383 . S
C1337 H1345 0.929 . S
C1338 C1337 1.383 . S
C1338 C1339 1.377 . S
C1339 H1323 0.930 . S
C1339 C1338 1.377 . S
C1339 C1340 1.379 . S
C1340 H1324 0.931 . S
C1340 C1334 1.383 . S
C1340 C1339 1.379 . S
H1341 C1335 0.959 . S
H1342 C1335 0.961 . S
H1343 C1335 0.960 . S
H1344 C1336 0.930 . S
H1345 C1337 0.929 . S
H1346 C1354 0.929 . S
H1347 C1356 0.930 . S
H1348 C1358 0.930 . S
H1349 C1361 0.929 . S
H1350 C1364 0.930 . S
H1351 C1366 0.960 . S
H1352 C1366 0.960 . S
H1353 C1366 0.960 . S
C1354 H1346 0.929 . S
C1354 C1355 1.377 . S
C1354 C1356 1.384 . S
C1355 C1354 1.377 . S
C1355 C1361 1.390 . S
C1356 H1347 0.930 . S
C1356 C1354 1.384 . S
C1356 C1357 1.372 . S
C1357 C1356 1.372 . S
C1357 C1358 1.400 . S
C1357 C1362 1.490 . S
C1358 H1348 0.930 . S
C1358 C1357 1.400 . S
C1358 C1361 1.386 . S
H1359 C1375 0.930 . S
H1360 C1376 0.931 . S
C1361 H1349 0.929 . S
C1361 C1355 1.390 . S
C1361 C1358 1.386 . S
C1362 C1357 1.490 . S
C1362 C1364 1.395 . S
C1362 C1365 1.403 . S
H1363 C1369 0.930 . S
C1364 H1350 0.930 . S
C1364 C1362 1.395 . S
C1364 C1367 1.403 . S
C1365 C1362 1.403 . S
C1365 C1366 1.524 . S
C1365 C1369 1.400 . S
C1366 H1351 0.960 . S
C1366 H1352 0.960 . S
C1366 H1353 0.960 . S
C1366 C1365 1.524 . S
C1367 C1364 1.403 . S
C1367 C1368 1.392 . S
C1367 C1371 1.495 . S
C1368 C1367 1.392 . S
C1368 C1369 1.385 . S
C1368 C1370 1.478 . S
C1369 H1363 0.930 . S
C1369 C1365 1.400 . S
C1369 C1368 1.385 . S
C1370 C1368 1.478 . S
C1370 C1372 1.381 . S
C1370 C1376 1.383 . S
C1371 C1367 1.495 . S
C1371 H1377 0.959 . S
C1371 H1378 0.961 . S
C1371 H1379 0.960 . S
C1372 C1370 1.381 . S
C1372 C1373 1.394 . S
C1372 H1380 0.930 . S
C1373 C1372 1.394 . S
C1373 C1374 1.383 . S
C1373 H1381 0.929 . S
C1374 C1373 1.383 . S
C1374 C1375 1.377 . S
C1375 H1359 0.930 . S
C1375 C1374 1.377 . S
C1375 C1376 1.379 . S
C1376 H1360 0.931 . S
C1376 C1370 1.383 . S
C1376 C1375 1.379 . S
H1377 C1371 0.959 . S
H1378 C1371 0.961 . S
H1379 C1371 0.960 . S
H1380 C1372 0.930 . S
H1381 C1373 0.929 . S
H1382 C1390 0.929 . S
H1383 C1392 0.930 . S
H1384 C1394 0.930 . S
H1385 C1397 0.929 . S
H1386 C1400 0.930 . S
H1387 C1402 0.960 . S
H1388 C1402 0.960 . S
H1389 C1402 0.960 . S
C1390 H1382 0.929 . S
C1390 C1391 1.377 . S
C1390 C1392 1.384 . S
C1391 C1390 1.377 . S
C1391 C1397 1.390 . S
C1392 H1383 0.930 . S
C1392 C1390 1.384 . S
C1392 C1393 1.372 . S
C1393 C1392 1.372 . S
C1393 C1394 1.400 . S
C1393 C1398 1.490 . S
C1394 H1384 0.930 . S
C1394 C1393 1.400 . S
C1394 C1397 1.386 . S
H1395 C1411 0.930 . S
H1396 C1412 0.931 . S
C1397 H1385 0.929 . S
C1397 C1391 1.390 . S
C1397 C1394 1.386 . S
C1398 C1393 1.490 . S
C1398 C1400 1.395 . S
C1398 C1401 1.403 . S
H1399 C1405 0.930 . S
C1400 H1386 0.930 . S
C1400 C1398 1.395 . S
C1400 C1403 1.403 . S
C1401 C1398 1.403 . S
C1401 C1402 1.524 . S
C1401 C1405 1.400 . S
C1402 H1387 0.960 . S
C1402 H1388 0.960 . S
C1402 H1389 0.960 . S
C1402 C1401 1.524 . S
C1403 C1400 1.403 . S
C1403 C1404 1.392 . S
C1403 C1407 1.495 . S
C1404 C1403 1.392 . S
C1404 C1405 1.385 . S
C1404 C1406 1.478 . S
C1405 H1399 0.930 . S
C1405 C1401 1.400 . S
C1405 C1404 1.385 . S
C1406 C1404 1.478 . S
C1406 C1408 1.381 . S
C1406 C1412 1.383 . S
C1407 C1403 1.495 . S
C1407 H1413 0.959 . S
C1407 H1414 0.961 . S
C1407 H1415 0.960 . S
C1408 C1406 1.381 . S
C1408 C1409 1.394 . S
C1408 H1416 0.930 . S
C1409 C1408 1.394 . S
C1409 C1410 1.383 . S
C1409 H1417 0.929 . S
C1410 C1409 1.383 . S
C1410 C1411 1.377 . S
C1411 H1395 0.930 . S
C1411 C1410 1.377 . S
C1411 C1412 1.379 . S
C1412 H1396 0.931 . S
C1412 C1406 1.383 . S
C1412 C1411 1.379 . S
H1413 C1407 0.959 . S
H1414 C1407 0.961 . S
H1415 C1407 0.960 . S
H1416 C1408 0.930 . S
H1417 C1409 0.929 . S
H1418 C1426 0.929 . S
H1419 C1428 0.930 . S
H1420 C1430 0.930 . S
H1421 C1433 0.929 . S
H1422 C1436 0.930 . S
H1423 C1438 0.960 . S
H1424 C1438 0.960 . S
H1425 C1438 0.960 . S
C1426 H1418 0.929 . S
C1426 C1427 1.377 . S
C1426 C1428 1.384 . S
C1427 C1426 1.377 . S
C1427 C1433 1.390 . S
C1428 H1419 0.930 . S
C1428 C1426 1.384 . S
C1428 C1429 1.372 . S
C1429 C1428 1.372 . S
C1429 C1430 1.400 . S
C1429 C1434 1.490 . S
C1430 H1420 0.930 . S
C1430 C1429 1.400 . S
C1430 C1433 1.386 . S
H1431 C1447 0.930 . S
H1432 C1448 0.931 . S
C1433 H1421 0.929 . S
C1433 C1427 1.390 . S
C1433 C1430 1.386 . S
C1434 C1429 1.490 . S
C1434 C1436 1.395 . S
C1434 C1437 1.403 . S
H1435 C1441 0.930 . S
C1436 H1422 0.930 . S
C1436 C1434 1.395 . S
C1436 C1439 1.403 . S
C1437 C1434 1.403 . S
C1437 C1438 1.524 . S
C1437 C1441 1.400 . S
C1438 H1423 0.960 . S
C1438 H1424 0.960 . S
C1438 H1425 0.960 . S
C1438 C1437 1.524 . S
C1439 C1436 1.403 . S
C1439 C1440 1.392 . S
C1439 C1443 1.495 . S
C1440 C1439 1.392 . S
C1440 C1441 1.385 . S
C1440 C1442 1.478 . S
C1441 H1435 0.930 . S
C1441 C1437 1.400 . S
C1441 C1440 1.385 . S
C1442 C1440 1.478 . S
C1442 C1444 1.381 . S
C1442 C1448 1.383 . S
C1443 C1439 1.495 . S
C1443 H1449 0.959 . S
C1443 H1450 0.961 . S
C1443 H1451 0.960 . S
C1444 C1442 1.381 . S
C1444 C1445 1.394 . S
C1444 H1452 0.930 . S
C1445 C1444 1.394 . S
C1445 C1446 1.383 . S
C1445 H1453 0.929 . S
C1446 C1445 1.383 . S
C1446 C1447 1.377 . S
C1447 H1431 0.930 . S
C1447 C1446 1.377 . S
C1447 C1448 1.379 . S
C1448 H1432 0.931 . S
C1448 C1442 1.383 . S
C1448 C1447 1.379 . S
H1449 C1443 0.959 . S
H1450 C1443 0.961 . S
H1451 C1443 0.960 . S
H1452 C1444 0.930 . S
H1453 C1445 0.929 . S
H1454 C1462 0.929 . S
H1455 C1464 0.930 . S
H1456 C1466 0.930 . S
H1457 C1469 0.929 . S
H1458 C1472 0.930 . S
H1459 C1474 0.960 . S
H1460 C1474 0.960 . S
H1461 C1474 0.960 . S
C1462 H1454 0.929 . S
C1462 C1463 1.377 . S
C1462 C1464 1.384 . S
C1463 C1462 1.377 . S
C1463 C1469 1.390 . S
C1464 H1455 0.930 . S
C1464 C1462 1.384 . S
C1464 C1465 1.372 . S
C1465 C1464 1.372 . S
C1465 C1466 1.400 . S
C1465 C1470 1.490 . S
C1466 H1456 0.930 . S
C1466 C1465 1.400 . S
C1466 C1469 1.386 . S
H1467 C1483 0.930 . S
H1468 C1484 0.931 . S
C1469 H1457 0.929 . S
C1469 C1463 1.390 . S
C1469 C1466 1.386 . S
C1470 C1465 1.490 . S
C1470 C1472 1.395 . S
C1470 C1473 1.403 . S
H1471 C1477 0.930 . S
C1472 H1458 0.930 . S
C1472 C1470 1.395 . S
C1472 C1475 1.403 . S
C1473 C1470 1.403 . S
C1473 C1474 1.524 . S
C1473 C1477 1.400 . S
C1474 H1459 0.960 . S
C1474 H1460 0.960 . S
C1474 H1461 0.960 . S
C1474 C1473 1.524 . S
C1475 C1472 1.403 . S
C1475 C1476 1.392 . S
C1475 C1479 1.495 . S
C1476 C1475 1.392 . S
C1476 C1477 1.385 . S
C1476 C1478 1.478 . S
C1477 H1471 0.930 . S
C1477 C1473 1.400 . S
C1477 C1476 1.385 . S
C1478 C1476 1.478 . S
C1478 C1480 1.381 . S
C1478 C1484 1.383 . S
C1479 C1475 1.495 . S
C1479 H1485 0.959 . S
C1479 H1486 0.961 . S
C1479 H1487 0.960 . S
C1480 C1478 1.381 . S
C1480 C1481 1.394 . S
C1480 H1488 0.930 . S
C1481 C1480 1.394 . S
C1481 C1482 1.383 . S
C1481 H1489 0.929 . S
C1482 C1481 1.383 . S
C1482 C1483 1.377 . S
C1483 H1467 0.930 . S
C1483 C1482 1.377 . S
C1483 C1484 1.379 . S
C1484 H1468 0.931 . S
C1484 C1478 1.383 . S
C1484 C1483 1.379 . S
H1485 C1479 0.959 . S
H1486 C1479 0.961 . S
H1487 C1479 0.960 . S
H1488 C1480 0.930 . S
H1489 C1481 0.929 . S
H1490 C1498 0.929 . S
H1491 C1500 0.930 . S
H1492 C1502 0.930 . S
H1493 C1505 0.929 . S
H1494 C1508 0.930 . S
H1495 C1510 0.960 . S
H1496 C1510 0.960 . S
H1497 C1510 0.960 . S
C1498 H1490 0.929 . S
C1498 C1499 1.377 . S
C1498 C1500 1.384 . S
C1499 C1498 1.377 . S
C1499 C1505 1.390 . S
C1500 H1491 0.930 . S
C1500 C1498 1.384 . S
C1500 C1501 1.372 . S
C1501 C1500 1.372 . S
C1501 C1502 1.400 . S
C1501 C1506 1.490 . S
C1502 H1492 0.930 . S
C1502 C1501 1.400 . S
C1502 C1505 1.386 . S
H1503 C1519 0.930 . S
H1504 C1520 0.931 . S
C1505 H1493 0.929 . S
C1505 C1499 1.390 . S
C1505 C1502 1.386 . S
C1506 C1501 1.490 . S
C1506 C1508 1.395 . S
C1506 C1509 1.403 . S
H1507 C1513 0.930 . S
C1508 H1494 0.930 . S
C1508 C1506 1.395 . S
C1508 C1511 1.403 . S
C1509 C1506 1.403 . S
C1509 C1510 1.524 . S
C1509 C1513 1.400 . S
C1510 H1495 0.960 . S
C1510 H1496 0.960 . S
C1510 H1497 0.960 . S
C1510 C1509 1.524 . S
C1511 C1508 1.403 . S
C1511 C1512 1.392 . S
C1511 C1515 1.495 . S
C1512 C1511 1.392 . S
C1512 C1513 1.385 . S
C1512 C1514 1.478 . S
C1513 H1507 0.930 . S
C1513 C1509 1.400 . S
C1513 C1512 1.385 . S
C1514 C1512 1.478 . S
C1514 C1516 1.381 . S
C1514 C1520 1.383 . S
C1515 C1511 1.495 . S
C1515 H1521 0.959 . S
C1515 H1522 0.961 . S
C1515 H1523 0.960 . S
C1516 C1514 1.381 . S
C1516 C1517 1.394 . S
C1516 H1524 0.930 . S
C1517 C1516 1.394 . S
C1517 C1518 1.383 . S
C1517 H1525 0.929 . S
C1518 C1517 1.383 . S
C1518 C1519 1.377 . S
C1519 H1503 0.930 . S
C1519 C1518 1.377 . S
C1519 C1520 1.379 . S
C1520 H1504 0.931 . S
C1520 C1514 1.383 . S
C1520 C1519 1.379 . S
H1521 C1515 0.959 . S
H1522 C1515 0.961 . S
H1523 C1515 0.960 . S
H1524 C1516 0.930 . S
H1525 C1517 0.929 . S
H1526 C1534 0.929 . S
H1527 C1536 0.930 . S
H1528 C1538 0.930 . S
H1529 C1541 0.929 . S
H1530 C1544 0.930 . S
H1531 C1546 0.960 . S
H1532 C1546 0.960 . S
H1533 C1546 0.960 . S
C1534 H1526 0.929 . S
C1534 C1535 1.377 . S
C1534 C1536 1.384 . S
C1535 C1534 1.377 . S
C1535 C1541 1.390 . S
C1536 H1527 0.930 . S
C1536 C1534 1.384 . S
C1536 C1537 1.372 . S
C1537 C1536 1.372 . S
C1537 C1538 1.400 . S
C1537 C1542 1.490 . S
C1538 H1528 0.930 . S
C1538 C1537 1.400 . S
C1538 C1541 1.386 . S
H1539 C1555 0.930 . S
H1540 C1556 0.931 . S
C1541 H1529 0.929 . S
C1541 C1535 1.390 . S
C1541 C1538 1.386 . S
C1542 C1537 1.490 . S
C1542 C1544 1.395 . S
C1542 C1545 1.403 . S
H1543 C1549 0.930 . S
C1544 H1530 0.930 . S
C1544 C1542 1.395 . S
C1544 C1547 1.403 . S
C1545 C1542 1.403 . S
C1545 C1546 1.524 . S
C1545 C1549 1.400 . S
C1546 H1531 0.960 . S
C1546 H1532 0.960 . S
C1546 H1533 0.960 . S
C1546 C1545 1.524 . S
C1547 C1544 1.403 . S
C1547 C1548 1.392 . S
C1547 C1551 1.495 . S
C1548 C1547 1.392 . S
C1548 C1549 1.385 . S
C1548 C1550 1.478 . S
C1549 H1543 0.930 . S
C1549 C1545 1.400 . S
C1549 C1548 1.385 . S
C1550 C1548 1.478 . S
C1550 C1552 1.381 . S
C1550 C1556 1.383 . S
C1551 C1547 1.495 . S
C1551 H1557 0.959 . S
C1551 H1558 0.961 . S
C1551 H1559 0.960 . S
C1552 C1550 1.381 . S
C1552 C1553 1.394 . S
C1552 H1560 0.930 . S
C1553 C1552 1.394 . S
C1553 C1554 1.383 . S
C1553 H1561 0.929 . S
C1554 C1553 1.383 . S
C1554 C1555 1.377 . S
C1555 H1539 0.930 . S
C1555 C1554 1.377 . S
C1555 C1556 1.379 . S
C1556 H1540 0.931 . S
C1556 C1550 1.383 . S
C1556 C1555 1.379 . S
H1557 C1551 0.959 . S
H1558 C1551 0.961 . S
H1559 C1551 0.960 . S
H1560 C1552 0.930 . S
H1561 C1553 0.929 . S
H1562 C1570 0.929 . S
H1563 C1572 0.930 . S
H1564 C1574 0.930 . S
H1565 C1577 0.929 . S
H1566 C1580 0.930 . S
H1567 C1582 0.960 . S
H1568 C1582 0.960 . S
H1569 C1582 0.960 . S
C1570 H1562 0.929 . S
C1570 C1571 1.377 . S
C1570 C1572 1.384 . S
C1571 C1570 1.377 . S
C1571 C1577 1.390 . S
C1572 H1563 0.930 . S
C1572 C1570 1.384 . S
C1572 C1573 1.372 . S
C1573 C1572 1.372 . S
C1573 C1574 1.400 . S
C1573 C1578 1.490 . S
C1574 H1564 0.930 . S
C1574 C1573 1.400 . S
C1574 C1577 1.386 . S
H1575 C1591 0.930 . S
H1576 C1592 0.931 . S
C1577 H1565 0.929 . S
C1577 C1571 1.390 . S
C1577 C1574 1.386 . S
C1578 C1573 1.490 . S
C1578 C1580 1.395 . S
C1578 C1581 1.403 . S
H1579 C1585 0.930 . S
C1580 H1566 0.930 . S
C1580 C1578 1.395 . S
C1580 C1583 1.403 . S
C1581 C1578 1.403 . S
C1581 C1582 1.524 . S
C1581 C1585 1.400 . S
C1582 H1567 0.960 . S
C1582 H1568 0.960 . S
C1582 H1569 0.960 . S
C1582 C1581 1.524 . S
C1583 C1580 1.403 . S
C1583 C1584 1.392 . S
C1583 C1587 1.495 . S
C1584 C1583 1.392 . S
C1584 C1585 1.385 . S
C1584 C1586 1.478 . S
C1585 H1579 0.930 . S
C1585 C1581 1.400 . S
C1585 C1584 1.385 . S
C1586 C1584 1.478 . S
C1586 C1588 1.381 . S
C1586 C1592 1.383 . S
C1587 C1583 1.495 . S
C1587 H1593 0.959 . S
C1587 H1594 0.961 . S
C1587 H1595 0.960 . S
C1588 C1586 1.381 . S
C1588 C1589 1.394 . S
C1588 H1596 0.930 . S
C1589 C1588 1.394 . S
C1589 C1590 1.383 . S
C1589 H1597 0.929 . S
C1590 C1589 1.383 . S
C1590 C1591 1.377 . S
C1591 H1575 0.930 . S
C1591 C1590 1.377 . S
C1591 C1592 1.379 . S
C1592 H1576 0.931 . S
C1592 C1586 1.383 . S
C1592 C1591 1.379 . S
H1593 C1587 0.959 . S
H1594 C1587 0.961 . S
H1595 C1587 0.960 . S
H1596 C1588 0.930 . S
H1597 C1589 0.929 . S
H1598 C1606 0.929 . S
H1599 C1608 0.930 . S
H1600 C1610 0.930 . S
H1601 C1613 0.929 . S
H1602 C1616 0.930 . S
H1603 C1618 0.960 . S
H1604 C1618 0.960 . S
H1605 C1618 0.960 . S
C1606 H1598 0.929 . S
C1606 C1607 1.377 . S
C1606 C1608 1.384 . S
C1607 C1606 1.377 . S
C1607 C1613 1.390 . S
C1608 H1599 0.930 . S
C1608 C1606 1.384 . S
C1608 C1609 1.372 . S
C1609 C1608 1.372 . S
C1609 C1610 1.400 . S
C1609 C1614 1.490 . S
C1610 H1600 0.930 . S
C1610 C1609 1.400 . S
C1610 C1613 1.386 . S
H1611 C1627 0.930 . S
H1612 C1628 0.931 . S
C1613 H1601 0.929 . S
C1613 C1607 1.390 . S
C1613 C1610 1.386 . S
C1614 C1609 1.490 . S
C1614 C1616 1.395 . S
C1614 C1617 1.403 . S
H1615 C1621 0.930 . S
C1616 H1602 0.930 . S
C1616 C1614 1.395 . S
C1616 C1619 1.403 . S
C1617 C1614 1.403 . S
C1617 C1618 1.524 . S
C1617 C1621 1.400 . S
C1618 H1603 0.960 . S
C1618 H1604 0.960 . S
C1618 H1605 0.960 . S
C1618 C1617 1.524 . S
C1619 C1616 1.403 . S
C1619 C1620 1.392 . S
C1619 C1623 1.495 . S
C1620 C1619 1.392 . S
C1620 C1621 1.385 . S
C1620 C1622 1.478 . S
C1621 H1615 0.930 . S
C1621 C1617 1.400 . S
C1621 C1620 1.385 . S
C1622 C1620 1.478 . S
C1622 C1624 1.381 . S
C1622 C1628 1.383 . S
C1623 C1619 1.495 . S
C1623 H1629 0.959 . S
C1623 H1630 0.961 . S
C1623 H1631 0.960 . S
C1624 C1622 1.381 . S
C1624 C1625 1.394 . S
C1624 H1632 0.930 . S
C1625 C1624 1.394 . S
C1625 C1626 1.383 . S
C1625 H1633 0.929 . S
C1626 C1625 1.383 . S
C1626 C1627 1.377 . S
C1627 H1611 0.930 . S
C1627 C1626 1.377 . S
C1627 C1628 1.379 . S
C1628 H1612 0.931 . S
C1628 C1622 1.383 . S
C1628 C1627 1.379 . S
H1629 C1623 0.959 . S
H1630 C1623 0.961 . S
H1631 C1623 0.960 . S
H1632 C1624 0.930 . S
H1633 C1625 0.929 . S
H1634 C1642 0.929 . S
H1635 C1644 0.930 . S
H1636 C1646 0.930 . S
H1637 C1649 0.929 . S
H1638 C1652 0.930 . S
H1639 C1654 0.960 . S
H1640 C1654 0.960 . S
H1641 C1654 0.960 . S
C1642 H1634 0.929 . S
C1642 C1643 1.377 . S
C1642 C1644 1.384 . S
C1643 C1642 1.377 . S
C1643 C1649 1.390 . S
C1644 H1635 0.930 . S
C1644 C1642 1.384 . S
C1644 C1645 1.372 . S
C1645 C1644 1.372 . S
C1645 C1646 1.400 . S
C1645 C1650 1.490 . S
C1646 H1636 0.930 . S
C1646 C1645 1.400 . S
C1646 C1649 1.386 . S
H1647 C1663 0.930 . S
H1648 C1664 0.931 . S
C1649 H1637 0.929 . S
C1649 C1643 1.390 . S
C1649 C1646 1.386 . S
C1650 C1645 1.490 . S
C1650 C1652 1.395 . S
C1650 C1653 1.403 . S
H1651 C1657 0.930 . S
C1652 H1638 0.930 . S
C1652 C1650 1.395 . S
C1652 C1655 1.403 . S
C1653 C1650 1.403 . S
C1653 C1654 1.524 . S
C1653 C1657 1.400 . S
C1654 H1639 0.960 . S
C1654 H1640 0.960 . S
C1654 H1641 0.960 . S
C1654 C1653 1.524 . S
C1655 C1652 1.403 . S
C1655 C1656 1.392 . S
C1655 C1659 1.495 . S
C1656 C1655 1.392 . S
C1656 C1657 1.385 . S
C1656 C1658 1.478 . S
C1657 H1651 0.930 . S
C1657 C1653 1.400 . S
C1657 C1656 1.385 . S
C1658 C1656 1.478 . S
C1658 C1660 1.381 . S
C1658 C1664 1.383 . S
C1659 C1655 1.495 . S
C1659 H1665 0.959 . S
C1659 H1666 0.961 . S
C1659 H1667 0.960 . S
C1660 C1658 1.381 . S
C1660 C1661 1.394 . S
C1660 H1668 0.930 . S
C1661 C1660 1.394 . S
C1661 C1662 1.383 . S
C1661 H1669 0.929 . S
C1662 C1661 1.383 . S
C1662 C1663 1.377 . S
C1663 H1647 0.930 . S
C1663 C1662 1.377 . S
C1663 C1664 1.379 . S
C1664 H1648 0.931 . S
C1664 C1658 1.383 . S
C1664 C1663 1.379 . S
H1665 C1659 0.959 . S
H1666 C1659 0.961 . S
H1667 C1659 0.960 . S
H1668 C1660 0.930 . S
H1669 C1661 0.929 . S
H1670 C1678 0.929 . S
H1671 C1680 0.930 . S
H1672 C1682 0.930 . S
H1673 C1685 0.929 . S
H1674 C1688 0.930 . S
H1675 C1690 0.960 . S
H1676 C1690 0.960 . S
H1677 C1690 0.960 . S
C1678 H1670 0.929 . S
C1678 C1679 1.377 . S
C1678 C1680 1.384 . S
C1679 C1678 1.377 . S
C1679 C1685 1.390 . S
C1680 H1671 0.930 . S
C1680 C1678 1.384 . S
C1680 C1681 1.372 . S
C1681 C1680 1.372 . S
C1681 C1682 1.400 . S
C1681 C1686 1.490 . S
C1682 H1672 0.930 . S
C1682 C1681 1.400 . S
C1682 C1685 1.386 . S
H1683 C1699 0.930 . S
H1684 C1700 0.931 . S
C1685 H1673 0.929 . S
C1685 C1679 1.390 . S
C1685 C1682 1.386 . S
C1686 C1681 1.490 . S
C1686 C1688 1.395 . S
C1686 C1689 1.403 . S
H1687 C1693 0.930 . S
C1688 H1674 0.930 . S
C1688 C1686 1.395 . S
C1688 C1691 1.403 . S
C1689 C1686 1.403 . S
C1689 C1690 1.524 . S
C1689 C1693 1.400 . S
C1690 H1675 0.960 . S
C1690 H1676 0.960 . S
C1690 H1677 0.960 . S
C1690 C1689 1.524 . S
C1691 C1688 1.403 . S
C1691 C1692 1.392 . S
C1691 C1695 1.495 . S
C1692 C1691 1.392 . S
C1692 C1693 1.385 . S
C1692 C1694 1.478 . S
C1693 H1687 0.930 . S
C1693 C1689 1.400 . S
C1693 C1692 1.385 . S
C1694 C1692 1.478 . S
C1694 C1696 1.381 . S
C1694 C1700 1.383 . S
C1695 C1691 1.495 . S
C1695 H1701 0.959 . S
C1695 H1702 0.961 . S
C1695 H1703 0.960 . S
C1696 C1694 1.381 . S
C1696 C1697 1.394 . S
C1696 H1704 0.930 . S
C1697 C1696 1.394 . S
C1697 C1698 1.383 . S
C1697 H1705 0.929 . S
C1698 C1697 1.383 . S
C1698 C1699 1.377 . S
C1699 H1683 0.930 . S
C1699 C1698 1.377 . S
C1699 C1700 1.379 . S
C1700 H1684 0.931 . S
C1700 C1694 1.383 . S
C1700 C1699 1.379 . S
H1701 C1695 0.959 . S
H1702 C1695 0.961 . S
H1703 C1695 0.960 . S
H1704 C1696 0.930 . S
H1705 C1697 0.929 . S
H1706 C1714 0.929 . S
H1707 C1716 0.930 . S
H1708 C1718 0.930 . S
H1709 C1721 0.929 . S
H1710 C1724 0.930 . S
H1711 C1726 0.960 . S
H1712 C1726 0.960 . S
H1713 C1726 0.960 . S
C1714 H1706 0.929 . S
C1714 C1715 1.377 . S
C1714 C1716 1.384 . S
C1715 C1714 1.377 . S
C1715 C1721 1.390 . S
C1716 H1707 0.930 . S
C1716 C1714 1.384 . S
C1716 C1717 1.372 . S
C1717 C1716 1.372 . S
C1717 C1718 1.400 . S
C1717 C1722 1.490 . S
C1718 H1708 0.930 . S
C1718 C1717 1.400 . S
C1718 C1721 1.386 . S
H1719 C1735 0.930 . S
H1720 C1736 0.931 . S
C1721 H1709 0.929 . S
C1721 C1715 1.390 . S
C1721 C1718 1.386 . S
C1722 C1717 1.490 . S
C1722 C1724 1.395 . S
C1722 C1725 1.403 . S
H1723 C1729 0.930 . S
C1724 H1710 0.930 . S
C1724 C1722 1.395 . S
C1724 C1727 1.403 . S
C1725 C1722 1.403 . S
C1725 C1726 1.524 . S
C1725 C1729 1.400 . S
C1726 H1711 0.960 . S
C1726 H1712 0.960 . S
C1726 H1713 0.960 . S
C1726 C1725 1.524 . S
C1727 C1724 1.403 . S
C1727 C1728 1.392 . S
C1727 C1731 1.495 . S
C1728 C1727 1.392 . S
C1728 C1729 1.385 . S
C1728 C1730 1.478 . S
C1729 H1723 0.930 . S
C1729 C1725 1.400 . S
C1729 C1728 1.385 . S
C1730 C1728 1.478 . S
C1730 C1732 1.381 . S
C1730 C1736 1.383 . S
C1731 C1727 1.495 . S
C1731 H1737 0.959 . S
C1731 H1738 0.961 . S
C1731 H1739 0.960 . S
C1732 C1730 1.381 . S
C1732 C1733 1.394 . S
C1732 H1740 0.930 . S
C1733 C1732 1.394 . S
C1733 C1734 1.383 . S
C1733 H1741 0.929 . S
C1734 C1733 1.383 . S
C1734 C1735 1.377 . S
C1735 H1719 0.930 . S
C1735 C1734 1.377 . S
C1735 C1736 1.379 . S
C1736 H1720 0.931 . S
C1736 C1730 1.383 . S
C1736 C1735 1.379 . S
H1737 C1731 0.959 . S
H1738 C1731 0.961 . S
H1739 C1731 0.960 . S
H1740 C1732 0.930 . S
H1741 C1733 0.929 . S
H1742 C1750 0.929 . S
H1743 C1752 0.930 . S
H1744 C1754 0.930 . S
H1745 C1757 0.929 . S
H1746 C1760 0.930 . S
H1747 C1762 0.960 . S
H1748 C1762 0.960 . S
H1749 C1762 0.960 . S
C1750 H1742 0.929 . S
C1750 C1751 1.377 . S
C1750 C1752 1.384 . S
C1751 C1750 1.377 . S
C1751 C1757 1.390 . S
C1752 H1743 0.930 . S
C1752 C1750 1.384 . S
C1752 C1753 1.372 . S
C1753 C1752 1.372 . S
C1753 C1754 1.400 . S
C1753 C1758 1.490 . S
C1754 H1744 0.930 . S
C1754 C1753 1.400 . S
C1754 C1757 1.386 . S
H1755 C1771 0.930 . S
H1756 C1772 0.931 . S
C1757 H1745 0.929 . S
C1757 C1751 1.390 . S
C1757 C1754 1.386 . S
C1758 C1753 1.490 . S
C1758 C1760 1.395 . S
C1758 C1761 1.403 . S
H1759 C1765 0.930 . S
C1760 H1746 0.930 . S
C1760 C1758 1.395 . S
C1760 C1763 1.403 . S
C1761 C1758 1.403 . S
C1761 C1762 1.524 . S
C1761 C1765 1.400 . S
C1762 H1747 0.960 . S
C1762 H1748 0.960 . S
C1762 H1749 0.960 . S
C1762 C1761 1.524 . S
C1763 C1760 1.403 . S
C1763 C1764 1.392 . S
C1763 C1767 1.495 . S
C1764 C1763 1.392 . S
C1764 C1765 1.385 . S
C1764 C1766 1.478 . S
C1765 H1759 0.930 . S
C1765 C1761 1.400 . S
C1765 C1764 1.385 . S
C1766 C1764 1.478 . S
C1766 C1768 1.381 . S
C1766 C1772 1.383 . S
C1767 C1763 1.495 . S
C1767 H1773 0.959 . S
C1767 H1774 0.961 . S
C1767 H1775 0.960 . S
C1768 C1766 1.381 . S
C1768 C1769 1.394 . S
C1768 H1776 0.930 . S
C1769 C1768 1.394 . S
C1769 C1770 1.383 . S
C1769 H1777 0.929 . S
C1770 C1769 1.383 . S
C1770 C1771 1.377 . S
C1771 H1755 0.930 . S
C1771 C1770 1.377 . S
C1771 C1772 1.379 . S
C1772 H1756 0.931 . S
C1772 C1766 1.383 . S
C1772 C1771 1.379 . S
H1773 C1767 0.959 . S
H1774 C1767 0.961 . S
H1775 C1767 0.960 . S
H1776 C1768 0.930 . S
H1777 C1769 0.929 . S
H1778 C1786 0.929 . S
H1779 C1788 0.930 . S
H1780 C1790 0.930 . S
H1781 C1793 0.929 . S
H1782 C1796 0.930 . S
H1783 C1798 0.960 . S
H1784 C1798 0.960 . S
H1785 C1798 0.960 . S
C1786 H1778 0.929 . S
C1786 C1787 1.377 . S
C1786 C1788 1.384 . S
C1787 C1786 1.377 . S
C1787 C1793 1.390 . S
C1788 H1779 0.930 . S
C1788 C1786 1.384 . S
C1788 C1789 1.372 . S
C1789 C1788 1.372 . S
C1789 C1790 1.400 . S
C1789 C1794 1.490 . S
C1790 H1780 0.930 . S
C1790 C1789 1.400 . S
C1790 C1793 1.386 . S
H1791 C1807 0.930 . S
H1792 C1808 0.931 . S
C1793 H1781 0.929 . S
C1793 C1787 1.390 . S
C1793 C1790 1.386 . S
C1794 C1789 1.490 . S
C1794 C1796 1.395 . S
C1794 C1797 1.403 . S
H1795 C1801 0.930 . S
C1796 H1782 0.930 . S
C1796 C1794 1.395 . S
C1796 C1799 1.403 . S
C1797 C1794 1.403 . S
C1797 C1798 1.524 . S
C1797 C1801 1.400 . S
C1798 H1783 0.960 . S
C1798 H1784 0.960 . S
C1798 H1785 0.960 . S
C1798 C1797 1.524 . S
C1799 C1796 1.403 . S
C1799 C1800 1.392 . S
C1799 C1803 1.495 . S
C1800 C1799 1.392 . S
C1800 C1801 1.385 . S
C1800 C1802 1.478 . S
C1801 H1795 0.930 . S
C1801 C1797 1.400 . S
C1801 C1800 1.385 . S
C1802 C1800 1.478 . S
C1802 C1804 1.381 . S
C1802 C1808 1.383 . S
C1803 C1799 1.495 . S
C1803 H1809 0.959 . S
C1803 H1810 0.961 . S
C1803 H1811 0.960 . S
C1804 C1802 1.381 . S
C1804 C1805 1.394 . S
C1804 H1812 0.930 . S
C1805 C1804 1.394 . S
C1805 C1806 1.383 . S
C1805 H1813 0.929 . S
C1806 C1805 1.383 . S
C1806 C1807 1.377 . S
C1807 H1791 0.930 . S
C1807 C1806 1.377 . S
C1807 C1808 1.379 . S
C1808 H1792 0.931 . S
C1808 C1802 1.383 . S
C1808 C1807 1.379 . S
H1809 C1803 0.959 . S
H1810 C1803 0.961 . S
H1811 C1803 0.960 . S
H1812 C1804 0.930 . S
H1813 C1805 0.929 . S
H1814 C1822 0.929 . S
H1815 C1824 0.930 . S
H1816 C1826 0.930 . S
H1817 C1829 0.929 . S
H1818 C1832 0.930 . S
H1819 C1834 0.960 . S
H1820 C1834 0.960 . S
H1821 C1834 0.960 . S
C1822 H1814 0.929 . S
C1822 C1823 1.377 . S
C1822 C1824 1.384 . S
C1823 C1822 1.377 . S
C1823 C1829 1.390 . S
C1824 H1815 0.930 . S
C1824 C1822 1.384 . S
C1824 C1825 1.372 . S
C1825 C1824 1.372 . S
C1825 C1826 1.400 . S
C1825 C1830 1.490 . S
C1826 H1816 0.930 . S
C1826 C1825 1.400 . S
C1826 C1829 1.386 . S
H1827 C1843 0.930 . S
H1828 C1844 0.931 . S
C1829 H1817 0.929 . S
C1829 C1823 1.390 . S
C1829 C1826 1.386 . S
C1830 C1825 1.490 . S
C1830 C1832 1.395 . S
C1830 C1833 1.403 . S
H1831 C1837 0.930 . S
C1832 H1818 0.930 . S
C1832 C1830 1.395 . S
C1832 C1835 1.403 . S
C1833 C1830 1.403 . S
C1833 C1834 1.524 . S
C1833 C1837 1.400 . S
C1834 H1819 0.960 . S
C1834 H1820 0.960 . S
C1834 H1821 0.960 . S
C1834 C1833 1.524 . S
C1835 C1832 1.403 . S
C1835 C1836 1.392 . S
C1835 C1839 1.495 . S
C1836 C1835 1.392 . S
C1836 C1837 1.385 . S
C1836 C1838 1.478 . S
C1837 H1831 0.930 . S
C1837 C1833 1.400 . S
C1837 C1836 1.385 . S
C1838 C1836 1.478 . S
C1838 C1840 1.381 . S
C1838 C1844 1.383 . S
C1839 C1835 1.495 . S
C1839 H1845 0.959 . S
C1839 H1846 0.961 . S
C1839 H1847 0.960 . S
C1840 C1838 1.381 . S
C1840 C1841 1.394 . S
C1840 H1848 0.930 . S
C1841 C1840 1.394 . S
C1841 C1842 1.383 . S
C1841 H1849 0.929 . S
C1842 C1841 1.383 . S
C1842 C1843 1.377 . S
C1843 H1827 0.930 . S
C1843 C1842 1.377 . S
C1843 C1844 1.379 . S
C1844 H1828 0.931 . S
C1844 C1838 1.383 . S
C1844 C1843 1.379 . S
H1845 C1839 0.959 . S
H1846 C1839 0.961 . S
H1847 C1839 0.960 . S
H1848 C1840 0.930 . S
H1849 C1841 0.929 . S
H1850 C1858 0.929 . S
H1851 C1860 0.930 . S
H1852 C1862 0.930 . S
H1853 C1865 0.929 . S
H1854 C1868 0.930 . S
H1855 C1870 0.960 . S
H1856 C1870 0.960 . S
H1857 C1870 0.960 . S
C1858 H1850 0.929 . S
C1858 C1859 1.377 . S
C1858 C1860 1.384 . S
C1859 C1858 1.377 . S
C1859 C1865 1.390 . S
C1860 H1851 0.930 . S
C1860 C1858 1.384 . S
C1860 C1861 1.372 . S
C1861 C1860 1.372 . S
C1861 C1862 1.400 . S
C1861 C1866 1.490 . S
C1862 H1852 0.930 . S
C1862 C1861 1.400 . S
C1862 C1865 1.386 . S
H1863 C1879 0.930 . S
H1864 C1880 0.931 . S
C1865 H1853 0.929 . S
C1865 C1859 1.390 . S
C1865 C1862 1.386 . S
C1866 C1861 1.490 . S
C1866 C1868 1.395 . S
C1866 C1869 1.403 . S
H1867 C1873 0.930 . S
C1868 H1854 0.930 . S
C1868 C1866 1.395 . S
C1868 C1871 1.403 . S
C1869 C1866 1.403 . S
C1869 C1870 1.524 . S
C1869 C1873 1.400 . S
C1870 H1855 0.960 . S
C1870 H1856 0.960 . S
C1870 H1857 0.960 . S
C1870 C1869 1.524 . S
C1871 C1868 1.403 . S
C1871 C1872 1.392 . S
C1871 C1875 1.495 . S
C1872 C1871 1.392 . S
C1872 C1873 1.385 . S
C1872 C1874 1.478 . S
C1873 H1867 0.930 . S
C1873 C1869 1.400 . S
C1873 C1872 1.385 . S
C1874 C1872 1.478 . S
C1874 C1876 1.381 . S
C1874 C1880 1.383 . S
C1875 C1871 1.495 . S
C1875 H1881 0.959 . S
C1875 H1882 0.961 . S
C1875 H1883 0.960 . S
C1876 C1874 1.381 . S
C1876 C1877 1.394 . S
C1876 H1884 0.930 . S
C1877 C1876 1.394 . S
C1877 C1878 1.383 . S
C1877 H1885 0.929 . S
C1878 C1877 1.383 . S
C1878 C1879 1.377 . S
C1879 H1863 0.930 . S
C1879 C1878 1.377 . S
C1879 C1880 1.379 . S
C1880 H1864 0.931 . S
C1880 C1874 1.383 . S
C1880 C1879 1.379 . S
H1881 C1875 0.959 . S
H1882 C1875 0.961 . S
H1883 C1875 0.960 . S
H1884 C1876 0.930 . S
H1885 C1877 0.929 . S
H1886 C1894 0.929 . S
H1887 C1896 0.930 . S
H1888 C1898 0.930 . S
H1889 C1901 0.929 . S
H1890 C1904 0.930 . S
H1891 C1906 0.960 . S
H1892 C1906 0.960 . S
H1893 C1906 0.960 . S
C1894 H1886 0.929 . S
C1894 C1895 1.377 . S
C1894 C1896 1.384 . S
C1895 C1894 1.377 . S
C1895 C1901 1.390 . S
C1896 H1887 0.930 . S
C1896 C1894 1.384 . S
C1896 C1897 1.372 . S
C1897 C1896 1.372 . S
C1897 C1898 1.400 . S
C1897 C1902 1.490 . S
C1898 H1888 0.930 . S
C1898 C1897 1.400 . S
C1898 C1901 1.386 . S
H1899 C1915 0.930 . S
H1900 C1916 0.931 . S
C1901 H1889 0.929 . S
C1901 C1895 1.390 . S
C1901 C1898 1.386 . S
C1902 C1897 1.490 . S
C1902 C1904 1.395 . S
C1902 C1905 1.403 . S
H1903 C1909 0.930 . S
C1904 H1890 0.930 . S
C1904 C1902 1.395 . S
C1904 C1907 1.403 . S
C1905 C1902 1.403 . S
C1905 C1906 1.524 . S
C1905 C1909 1.400 . S
C1906 H1891 0.960 . S
C1906 H1892 0.960 . S
C1906 H1893 0.960 . S
C1906 C1905 1.524 . S
C1907 C1904 1.403 . S
C1907 C1908 1.392 . S
C1907 C1911 1.495 . S
C1908 C1907 1.392 . S
C1908 C1909 1.385 . S
C1908 C1910 1.478 . S
C1909 H1903 0.930 . S
C1909 C1905 1.400 . S
C1909 C1908 1.385 . S
C1910 C1908 1.478 . S
C1910 C1912 1.381 . S
C1910 C1916 1.383 . S
C1911 C1907 1.495 . S
C1911 H1917 0.959 . S
C1911 H1918 0.961 . S
C1911 H1919 0.960 . S
C1912 C1910 1.381 . S
C1912 C1913 1.394 . S
C1912 H1920 0.930 . S
C1913 C1912 1.394 . S
C1913 C1914 1.383 . S
C1913 H1921 0.929 . S
C1914 C1913 1.383 . S
C1914 C1915 1.377 . S
C1915 H1899 0.930 . S
C1915 C1914 1.377 . S
C1915 C1916 1.379 . S
C1916 H1900 0.931 . S
C1916 C1910 1.383 . S
C1916 C1915 1.379 . S
H1917 C1911 0.959 . S
H1918 C1911 0.961 . S
H1919 C1911 0.960 . S
H1920 C1912 0.930 . S
H1921 C1913 0.929 . S
H1922 C1930 0.929 . S
H1923 C1932 0.930 . S
H1924 C1934 0.930 . S
H1925 C1937 0.929 . S
H1926 C1940 0.930 . S
H1927 C1942 0.960 . S
H1928 C1942 0.960 . S
H1929 C1942 0.960 . S
C1930 H1922 0.929 . S
C1930 C1931 1.377 . S
C1930 C1932 1.384 . S
C1931 C1930 1.377 . S
C1931 C1937 1.390 . S
C1932 H1923 0.930 . S
C1932 C1930 1.384 . S
C1932 C1933 1.372 . S
C1933 C1932 1.372 . S
C1933 C1934 1.400 . S
C1933 C1938 1.490 . S
C1934 H1924 0.930 . S
C1934 C1933 1.400 . S
C1934 C1937 1.386 . S
H1935 C1951 0.930 . S
H1936 C1952 0.931 . S
C1937 H1925 0.929 . S
C1937 C1931 1.390 . S
C1937 C1934 1.386 . S
C1938 C1933 1.490 . S
C1938 C1940 1.395 . S
C1938 C1941 1.403 . S
H1939 C1945 0.930 . S
C1940 H1926 0.930 . S
C1940 C1938 1.395 . S
C1940 C1943 1.403 . S
C1941 C1938 1.403 . S
C1941 C1942 1.524 . S
C1941 C1945 1.400 . S
C1942 H1927 0.960 . S
C1942 H1928 0.960 . S
C1942 H1929 0.960 . S
C1942 C1941 1.524 . S
C1943 C1940 1.403 . S
C1943 C1944 1.392 . S
C1943 C1947 1.495 . S
C1944 C1943 1.392 . S
C1944 C1945 1.385 . S
C1944 C1946 1.478 . S
C1945 H1939 0.930 . S
C1945 C1941 1.400 . S
C1945 C1944 1.385 . S
C1946 C1944 1.478 . S
C1946 C1948 1.381 . S
C1946 C1952 1.383 . S
C1947 C1943 1.495 . S
C1947 H1953 0.959 . S
C1947 H1954 0.961 . S
C1947 H1955 0.960 . S
C1948 C1946 1.381 . S
C1948 C1949 1.394 . S
C1948 H1956 0.930 . S
C1949 C1948 1.394 . S
C1949 C1950 1.383 . S
C1949 H1957 0.929 . S
C1950 C1949 1.383 . S
C1950 C1951 1.377 . S
C1951 H1935 0.930 . S
C1951 C1950 1.377 . S
C1951 C1952 1.379 . S
C1952 H1936 0.931 . S
C1952 C1946 1.383 . S
C1952 C1951 1.379 . S
H1953 C1947 0.959 . S
H1954 C1947 0.961 . S
H1955 C1947 0.960 . S
H1956 C1948 0.930 . S
H1957 C1949 0.929 . S
H1958 C1966 0.929 . S
H1959 C1968 0.930 . S
H1960 C1970 0.930 . S
H1961 C1973 0.929 . S
H1962 C1976 0.930 . S
H1963 C1978 0.960 . S
H1964 C1978 0.960 . S
H1965 C1978 0.960 . S
C1966 H1958 0.929 . S
C1966 C1967 1.377 . S
C1966 C1968 1.384 . S
C1967 C1966 1.377 . S
C1967 C1973 1.390 . S
C1968 H1959 0.930 . S
C1968 C1966 1.384 . S
C1968 C1969 1.372 . S
C1969 C1968 1.372 . S
C1969 C1970 1.400 . S
C1969 C1974 1.490 . S
C1970 H1960 0.930 . S
C1970 C1969 1.400 . S
C1970 C1973 1.386 . S
H1971 C1987 0.930 . S
H1972 C1988 0.931 . S
C1973 H1961 0.929 . S
C1973 C1967 1.390 . S
C1973 C1970 1.386 . S
C1974 C1969 1.490 . S
C1974 C1976 1.395 . S
C1974 C1977 1.403 . S
H1975 C1981 0.930 . S
C1976 H1962 0.930 . S
C1976 C1974 1.395 . S
C1976 C1979 1.403 . S
C1977 C1974 1.403 . S
C1977 C1978 1.524 . S
C1977 C1981 1.400 . S
C1978 H1963 0.960 . S
C1978 H1964 0.960 . S
C1978 H1965 0.960 . S
C1978 C1977 1.524 . S
C1979 C1976 1.403 . S
C1979 C1980 1.392 . S
C1979 C1983 1.495 . S
C1980 C1979 1.392 . S
C1980 C1981 1.385 . S
C1980 C1982 1.478 . S
C1981 H1975 0.930 . S
C1981 C1977 1.400 . S
C1981 C1980 1.385 . S
C1982 C1980 1.478 . S
C1982 C1984 1.381 . S
C1982 C1988 1.383 . S
C1983 C1979 1.495 . S
C1983 H1989 0.959 . S
C1983 H1990 0.961 . S
C1983 H1991 0.960 . S
C1984 C1982 1.381 . S
C1984 C1985 1.394 . S
C1984 H1992 0.930 . S
C1985 C1984 1.394 . S
C1985 C1986 1.383 . S
C1985 H1993 0.929 . S
C1986 C1985 1.383 . S
C1986 C1987 1.377 . S
C1987 H1971 0.930 . S
C1987 C1986 1.377 . S
C1987 C1988 1.379 . S
C1988 H1972 0.931 . S
C1988 C1982 1.383 . S
C1988 C1987 1.379 . S
H1989 C1983 0.959 . S
H1990 C1983 0.961 . S
H1991 C1983 0.960 . S
H1992 C1984 0.930 . S
H1993 C1985 0.929 . S
H1994 C2002 0.929 . S
H1995 C2004 0.930 . S
H1996 C2006 0.930 . S
H1997 C2009 0.929 . S
H1998 C2012 0.930 . S
H1999 C2014 0.960 . S
H2000 C2014 0.960 . S
H2001 C2014 0.960 . S
C2002 H1994 0.929 . S
C2002 C2003 1.377 . S
C2002 C2004 1.384 . S
C2003 C2002 1.377 . S
C2003 C2009 1.390 . S
C2004 H1995 0.930 . S
C2004 C2002 1.384 . S
C2004 C2005 1.372 . S
C2005 C2004 1.372 . S
C2005 C2006 1.400 . S
C2005 C2010 1.490 . S
C2006 H1996 0.930 . S
C2006 C2005 1.400 . S
C2006 C2009 1.386 . S
H2007 C2023 0.930 . S
H2008 C2024 0.931 . S
C2009 H1997 0.929 . S
C2009 C2003 1.390 . S
C2009 C2006 1.386 . S
C2010 C2005 1.490 . S
C2010 C2012 1.395 . S
C2010 C2013 1.403 . S
H2011 C2017 0.930 . S
C2012 H1998 0.930 . S
C2012 C2010 1.395 . S
C2012 C2015 1.403 . S
C2013 C2010 1.403 . S
C2013 C2014 1.524 . S
C2013 C2017 1.400 . S
C2014 H1999 0.960 . S
C2014 H2000 0.960 . S
C2014 H2001 0.960 . S
C2014 C2013 1.524 . S
C2015 C2012 1.403 . S
C2015 C2016 1.392 . S
C2015 C2019 1.495 . S
C2016 C2015 1.392 . S
C2016 C2017 1.385 . S
C2016 C2018 1.478 . S
C2017 H2011 0.930 . S
C2017 C2013 1.400 . S
C2017 C2016 1.385 . S
C2018 C2016 1.478 . S
C2018 C2020 1.381 . S
C2018 C2024 1.383 . S
C2019 C2015 1.495 . S
C2019 H2025 0.959 . S
C2019 H2026 0.961 . S
C2019 H2027 0.960 . S
C2020 C2018 1.381 . S
C2020 C2021 1.394 . S
C2020 H2028 0.930 . S
C2021 C2020 1.394 . S
C2021 C2022 1.383 . S
C2021 H2029 0.929 . S
C2022 C2021 1.383 . S
C2022 C2023 1.377 . S
C2023 H2007 0.930 . S
C2023 C2022 1.377 . S
C2023 C2024 1.379 . S
C2024 H2008 0.931 . S
C2024 C2018 1.383 . S
C2024 C2023 1.379 . S
H2025 C2019 0.959 . S
H2026 C2019 0.961 . S
H2027 C2019 0.960 . S
H2028 C2020 0.930 . S
H2029 C2021 0.929 . S
H2030 C2038 0.929 . S
H2031 C2040 0.930 . S
H2032 C2042 0.930 . S
H2033 C2045 0.929 . S
H2034 C2048 0.930 . S
H2035 C2050 0.960 . S
H2036 C2050 0.960 . S
H2037 C2050 0.960 . S
C2038 H2030 0.929 . S
C2038 C2039 1.377 . S
C2038 C2040 1.384 . S
C2039 C2038 1.377 . S
C2039 C2045 1.390 . S
C2040 H2031 0.930 . S
C2040 C2038 1.384 . S
C2040 C2041 1.372 . S
C2041 C2040 1.372 . S
C2041 C2042 1.400 . S
C2041 C2046 1.490 . S
C2042 H2032 0.930 . S
C2042 C2041 1.400 . S
C2042 C2045 1.386 . S
H2043 C2059 0.930 . S
H2044 C2060 0.931 . S
C2045 H2033 0.929 . S
C2045 C2039 1.390 . S
C2045 C2042 1.386 . S
C2046 C2041 1.490 . S
C2046 C2048 1.395 . S
C2046 C2049 1.403 . S
H2047 C2053 0.930 . S
C2048 H2034 0.930 . S
C2048 C2046 1.395 . S
C2048 C2051 1.403 . S
C2049 C2046 1.403 . S
C2049 C2050 1.524 . S
C2049 C2053 1.400 . S
C2050 H2035 0.960 . S
C2050 H2036 0.960 . S
C2050 H2037 0.960 . S
C2050 C2049 1.524 . S
C2051 C2048 1.403 . S
C2051 C2052 1.392 . S
C2051 C2055 1.495 . S
C2052 C2051 1.392 . S
C2052 C2053 1.385 . S
C2052 C2054 1.478 . S
C2053 H2047 0.930 . S
C2053 C2049 1.400 . S
C2053 C2052 1.385 . S
C2054 C2052 1.478 . S
C2054 C2056 1.381 . S
C2054 C2060 1.383 . S
C2055 C2051 1.495 . S
C2055 H2061 0.959 . S
C2055 H2062 0.961 . S
C2055 H2063 0.960 . S
C2056 C2054 1.381 . S
C2056 C2057 1.394 . S
C2056 H2064 0.930 . S
C2057 C2056 1.394 . S
C2057 C2058 1.383 . S
C2057 H2065 0.929 . S
C2058 C2057 1.383 . S
C2058 C2059 1.377 . S
C2059 H2043 0.930 . S
C2059 C2058 1.377 . S
C2059 C2060 1.379 . S
C2060 H2044 0.931 . S
C2060 C2054 1.383 . S
C2060 C2059 1.379 . S
H2061 C2055 0.959 . S
H2062 C2055 0.961 . S
H2063 C2055 0.960 . S
H2064 C2056 0.930 . S
H2065 C2057 0.929 . S
H2066 C2074 0.929 . S
H2067 C2076 0.930 . S
H2068 C2078 0.930 . S
H2069 C2081 0.929 . S
H2070 C2084 0.930 . S
H2071 C2086 0.960 . S
H2072 C2086 0.960 . S
H2073 C2086 0.960 . S
C2074 H2066 0.929 . S
C2074 C2075 1.377 . S
C2074 C2076 1.384 . S
C2075 C2074 1.377 . S
C2075 C2081 1.390 . S
C2076 H2067 0.930 . S
C2076 C2074 1.384 . S
C2076 C2077 1.372 . S
C2077 C2076 1.372 . S
C2077 C2078 1.400 . S
C2077 C2082 1.490 . S
C2078 H2068 0.930 . S
C2078 C2077 1.400 . S
C2078 C2081 1.386 . S
H2079 C2095 0.930 . S
H2080 C2096 0.931 . S
C2081 H2069 0.929 . S
C2081 C2075 1.390 . S
C2081 C2078 1.386 . S
C2082 C2077 1.490 . S
C2082 C2084 1.395 . S
C2082 C2085 1.403 . S
H2083 C2089 0.930 . S
C2084 H2070 0.930 . S
C2084 C2082 1.395 . S
C2084 C2087 1.403 . S
C2085 C2082 1.403 . S
C2085 C2086 1.524 . S
C2085 C2089 1.400 . S
C2086 H2071 0.960 . S
C2086 H2072 0.960 . S
C2086 H2073 0.960 . S
C2086 C2085 1.524 . S
C2087 C2084 1.403 . S
C2087 C2088 1.392 . S
C2087 C2091 1.495 . S
C2088 C2087 1.392 . S
C2088 C2089 1.385 . S
C2088 C2090 1.478 . S
C2089 H2083 0.930 . S
C2089 C2085 1.400 . S
C2089 C2088 1.385 . S
C2090 C2088 1.478 . S
C2090 C2092 1.381 . S
C2090 C2096 1.383 . S
C2091 C2087 1.495 . S
C2091 H2097 0.959 . S
C2091 H2098 0.961 . S
C2091 H2099 0.960 . S
C2092 C2090 1.381 . S
C2092 C2093 1.394 . S
C2092 H2100 0.930 . S
C2093 C2092 1.394 . S
C2093 C2094 1.383 . S
C2093 H2101 0.929 . S
C2094 C2093 1.383 . S
C2094 C2095 1.377 . S
C2095 H2079 0.930 . S
C2095 C2094 1.377 . S
C2095 C2096 1.379 . S
C2096 H2080 0.931 . S
C2096 C2090 1.383 . S
C2096 C2095 1.379 . S
H2097 C2091 0.959 . S
H2098 C2091 0.961 . S
H2099 C2091 0.960 . S
H2100 C2092 0.930 . S
H2101 C2093 0.929 . S
H2102 C2110 0.929 . S
H2103 C2112 0.930 . S
H2104 C2114 0.930 . S
H2105 C2117 0.929 . S
H2106 C2120 0.930 . S
H2107 C2122 0.960 . S
H2108 C2122 0.960 . S
H2109 C2122 0.960 . S
C2110 H2102 0.929 . S
C2110 C2111 1.377 . S
C2110 C2112 1.384 . S
C2111 C2110 1.377 . S
C2111 C2117 1.390 . S
C2112 H2103 0.930 . S
C2112 C2110 1.384 . S
C2112 C2113 1.372 . S
C2113 C2112 1.372 . S
C2113 C2114 1.400 . S
C2113 C2118 1.490 . S
C2114 H2104 0.930 . S
C2114 C2113 1.400 . S
C2114 C2117 1.386 . S
H2115 C2131 0.930 . S
H2116 C2132 0.931 . S
C2117 H2105 0.929 . S
C2117 C2111 1.390 . S
C2117 C2114 1.386 . S
C2118 C2113 1.490 . S
C2118 C2120 1.395 . S
C2118 C2121 1.403 . S
H2119 C2125 0.930 . S
C2120 H2106 0.930 . S
C2120 C2118 1.395 . S
C2120 C2123 1.403 . S
C2121 C2118 1.403 . S
C2121 C2122 1.524 . S
C2121 C2125 1.400 . S
C2122 H2107 0.960 . S
C2122 H2108 0.960 . S
C2122 H2109 0.960 . S
C2122 C2121 1.524 . S
C2123 C2120 1.403 . S
C2123 C2124 1.392 . S
C2123 C2127 1.495 . S
C2124 C2123 1.392 . S
C2124 C2125 1.385 . S
C2124 C2126 1.478 . S
C2125 H2119 0.930 . S
C2125 C2121 1.400 . S
C2125 C2124 1.385 . S
C2126 C2124 1.478 . S
C2126 C2128 1.381 . S
C2126 C2132 1.383 . S
C2127 C2123 1.495 . S
C2127 H2133 0.959 . S
C2127 H2134 0.961 . S
C2127 H2135 0.960 . S
C2128 C2126 1.381 . S
C2128 C2129 1.394 . S
C2128 H2136 0.930 . S
C2129 C2128 1.394 . S
C2129 C2130 1.383 . S
C2129 H2137 0.929 . S
C2130 C2129 1.383 . S
C2130 C2131 1.377 . S
C2131 H2115 0.930 . S
C2131 C2130 1.377 . S
C2131 C2132 1.379 . S
C2132 H2116 0.931 . S
C2132 C2126 1.383 . S
C2132 C2131 1.379 . S
H2133 C2127 0.959 . S
H2134 C2127 0.961 . S
H2135 C2127 0.960 . S
H2136 C2128 0.930 . S
H2137 C2129 0.929 . S
H2138 C2146 0.929 . S
H2139 C2148 0.930 . S
H2140 C2150 0.930 . S
H2141 C2153 0.929 . S
H2142 C2156 0.930 . S
H2143 C2158 0.960 . S
H2144 C2158 0.960 . S
H2145 C2158 0.960 . S
C2146 H2138 0.929 . S
C2146 C2147 1.377 . S
C2146 C2148 1.384 . S
C2147 C2146 1.377 . S
C2147 C2153 1.390 . S
C2148 H2139 0.930 . S
C2148 C2146 1.384 . S
C2148 C2149 1.372 . S
C2149 C2148 1.372 . S
C2149 C2150 1.400 . S
C2149 C2154 1.490 . S
C2150 H2140 0.930 . S
C2150 C2149 1.400 . S
C2150 C2153 1.386 . S
H2151 C2167 0.930 . S
H2152 C2168 0.931 . S
C2153 H2141 0.929 . S
C2153 C2147 1.390 . S
C2153 C2150 1.386 . S
C2154 C2149 1.490 . S
C2154 C2156 1.395 . S
C2154 C2157 1.403 . S
H2155 C2161 0.930 . S
C2156 H2142 0.930 . S
C2156 C2154 1.395 . S
C2156 C2159 1.403 . S
C2157 C2154 1.403 . S
C2157 C2158 1.524 . S
C2157 C2161 1.400 . S
C2158 H2143 0.960 . S
C2158 H2144 0.960 . S
C2158 H2145 0.960 . S
C2158 C2157 1.524 . S
C2159 C2156 1.403 . S
C2159 C2160 1.392 . S
C2159 C2163 1.495 . S
C2160 C2159 1.392 . S
C2160 C2161 1.385 . S
C2160 C2162 1.478 . S
C2161 H2155 0.930 . S
C2161 C2157 1.400 . S
C2161 C2160 1.385 . S
C2162 C2160 1.478 . S
C2162 C2164 1.381 . S
C2162 C2168 1.383 . S
C2163 C2159 1.495 . S
C2163 H2169 0.959 . S
C2163 H2170 0.961 . S
C2163 H2171 0.960 . S
C2164 C2162 1.381 . S
C2164 C2165 1.394 . S
C2164 H2172 0.930 . S
C2165 C2164 1.394 . S
C2165 C2166 1.383 . S
C2165 H2173 0.929 . S
C2166 C2165 1.383 . S
C2166 C2167 1.377 . S
C2167 H2151 0.930 . S
C2167 C2166 1.377 . S
C2167 C2168 1.379 . S
C2168 H2152 0.931 . S
C2168 C2162 1.383 . S
C2168 C2167 1.379 . S
H2169 C2163 0.959 . S
H2170 C2163 0.961 . S
H2171 C2163 0.960 . S
H2172 C2164 0.930 . S
H2173 C2165 0.929 . S
H2174 C2182 0.929 . S
H2175 C2184 0.930 . S
H2176 C2186 0.930 . S
H2177 C2189 0.929 . S
H2178 C2192 0.930 . S
H2179 C2194 0.960 . S
H2180 C2194 0.960 . S
H2181 C2194 0.960 . S
C2182 H2174 0.929 . S
C2182 C2183 1.377 . S
C2182 C2184 1.384 . S
C2183 C2182 1.377 . S
C2183 C2189 1.390 . S
C2184 H2175 0.930 . S
C2184 C2182 1.384 . S
C2184 C2185 1.372 . S
C2185 C2184 1.372 . S
C2185 C2186 1.400 . S
C2185 C2190 1.490 . S
C2186 H2176 0.930 . S
C2186 C2185 1.400 . S
C2186 C2189 1.386 . S
H2187 C2203 0.930 . S
H2188 C2204 0.931 . S
C2189 H2177 0.929 . S
C2189 C2183 1.390 . S
C2189 C2186 1.386 . S
C2190 C2185 1.490 . S
C2190 C2192 1.395 . S
C2190 C2193 1.403 . S
H2191 C2197 0.930 . S
C2192 H2178 0.930 . S
C2192 C2190 1.395 . S
C2192 C2195 1.403 . S
C2193 C2190 1.403 . S
C2193 C2194 1.524 . S
C2193 C2197 1.400 . S
C2194 H2179 0.960 . S
C2194 H2180 0.960 . S
C2194 H2181 0.960 . S
C2194 C2193 1.524 . S
C2195 C2192 1.403 . S
C2195 C2196 1.392 . S
C2195 C2199 1.495 . S
C2196 C2195 1.392 . S
C2196 C2197 1.385 . S
C2196 C2198 1.478 . S
C2197 H2191 0.930 . S
C2197 C2193 1.400 . S
C2197 C2196 1.385 . S
C2198 C2196 1.478 . S
C2198 C2200 1.381 . S
C2198 C2204 1.383 . S
C2199 C2195 1.495 . S
C2199 H2205 0.959 . S
C2199 H2206 0.961 . S
C2199 H2207 0.960 . S
C2200 C2198 1.381 . S
C2200 C2201 1.394 . S
C2200 H2208 0.930 . S
C2201 C2200 1.394 . S
C2201 C2202 1.383 . S
C2201 H2209 0.929 . S
C2202 C2201 1.383 . S
C2202 C2203 1.377 . S
C2203 H2187 0.930 . S
C2203 C2202 1.377 . S
C2203 C2204 1.379 . S
C2204 H2188 0.931 . S
C2204 C2198 1.383 . S
C2204 C2203 1.379 . S
H2205 C2199 0.959 . S
H2206 C2199 0.961 . S
H2207 C2199 0.960 . S
H2208 C2200 0.930 . S
H2209 C2201 0.929 . S
H2210 C2218 0.929 . S
H2211 C2220 0.930 . S
H2212 C2222 0.930 . S
H2213 C2225 0.929 . S
H2214 C2228 0.930 . S
H2215 C2230 0.960 . S
H2216 C2230 0.960 . S
H2217 C2230 0.960 . S
C2218 H2210 0.929 . S
C2218 C2219 1.377 . S
C2218 C2220 1.384 . S
C2219 C2218 1.377 . S
C2219 C2225 1.390 . S
C2220 H2211 0.930 . S
C2220 C2218 1.384 . S
C2220 C2221 1.372 . S
C2221 C2220 1.372 . S
C2221 C2222 1.400 . S
C2221 C2226 1.490 . S
C2222 H2212 0.930 . S
C2222 C2221 1.400 . S
C2222 C2225 1.386 . S
H2223 C2239 0.930 . S
H2224 C2240 0.931 . S
C2225 H2213 0.929 . S
C2225 C2219 1.390 . S
C2225 C2222 1.386 . S
C2226 C2221 1.490 . S
C2226 C2228 1.395 . S
C2226 C2229 1.403 . S
H2227 C2233 0.930 . S
C2228 H2214 0.930 . S
C2228 C2226 1.395 . S
C2228 C2231 1.403 . S
C2229 C2226 1.403 . S
C2229 C2230 1.524 . S
C2229 C2233 1.400 . S
C2230 H2215 0.960 . S
C2230 H2216 0.960 . S
C2230 H2217 0.960 . S
C2230 C2229 1.524 . S
C2231 C2228 1.403 . S
C2231 C2232 1.392 . S
C2231 C2235 1.495 . S
C2232 C2231 1.392 . S
C2232 C2233 1.385 . S
C2232 C2234 1.478 . S
C2233 H2227 0.930 . S
C2233 C2229 1.400 . S
C2233 C2232 1.385 . S
C2234 C2232 1.478 . S
C2234 C2236 1.381 . S
C2234 C2240 1.383 . S
C2235 C2231 1.495 . S
C2235 H2241 0.959 . S
C2235 H2242 0.961 . S
C2235 H2243 0.960 . S
C2236 C2234 1.381 . S
C2236 C2237 1.394 . S
C2236 H2244 0.930 . S
C2237 C2236 1.394 . S
C2237 C2238 1.383 . S
C2237 H2245 0.929 . S
C2238 C2237 1.383 . S
C2238 C2239 1.377 . S
C2239 H2223 0.930 . S
C2239 C2238 1.377 . S
C2239 C2240 1.379 . S
C2240 H2224 0.931 . S
C2240 C2234 1.383 . S
C2240 C2239 1.379 . S
H2241 C2235 0.959 . S
H2242 C2235 0.961 . S
H2243 C2235 0.960 . S
H2244 C2236 0.930 . S
H2245 C2237 0.929 . S
C546 C347 1.435 . S
C527 C2 1.533 . S
C582 C348 1.653 . S
C563 C48 1.704 . S
C618 C342 1.174 . S
C599 C97 1.218 . S
C635 C149 0.484 . S
C654 C341 0.363 . S
C671 C189 1.707 . S
C690 C344 1.667 . S
C726 C346 1.220 . S
C707 C202 1.218 . S
C743 C248 0.478 . S
C762 C345 0.449 . S
C779 C297 1.535 . S
C798 C343 1.451 . S
C834 C378 2.915 . S
C815 C31 2.913 . S
C851 C52 1.677 . S
C870 C409 1.574 . S
C906 C377 1.247 . S
C887 C88 1.288 . S
C942 C412 0.886 . S
C923 C122 0.917 . S
C959 C162 1.287 . S
C978 C375 1.288 . S
C1014 C407 2.920 . S
C995 C231 2.937 . S
C1031 C252 1.348 . S
C1050 C380 1.240 . S
C1067 C288 1.292 . S
C1086 C414 1.201 . S
C1103 C29 1.294 . S
C1122 C410 1.200 . S
C1139 C191 1.679 . S
C1158 C413 1.564 . S
C1194 C381 1.232 . S
C1175 C229 1.291 . S
C1230 C408 0.919 . S
C1211 C257 0.914 . S
C1247 C292 2.913 . S
C1266 C374 2.914 . S
C1283 C92 2.937 . S
C1302 C411 2.925 . S
C1338 C376 1.239 . S
C1319 C151 1.338 . S
C1355 C57 1.297 . S
C1374 C379 1.309 . S
C1391 C282 1.608 . S
C1410 C446 1.454 . S
C1427 C168 1.243 . S
C1446 C447 1.233 . S
C1482 C441 1.032 . S
C1463 C217 1.008 . S
C1518 C440 0.348 . S
C1499 C269 0.452 . S
C1535 C69 1.247 . S
C1554 C443 1.173 . S
C1590 C445 1.031 . S
C1571 C82 1.014 . S
C1607 C128 0.460 . S
C1626 C444 0.427 . S
C1643 C17 1.607 . S
C1662 C442 1.508 . S
C1679 C311 3.101 . S
C1698 C480 3.021 . S
C1734 C512 1.297 . S
C1715 C172 1.384 . S
C1751 C208 1.175 . S
C1770 C473 1.160 . S
C1787 C242 1.301 . S
C1806 C507 1.288 . S
C1842 C478 0.928 . S
C1823 C42 0.954 . S
C1859 C111 3.092 . S
C1878 C509 3.018 . S
C1914 C475 1.729 . S
C1895 C132 1.768 . S
C1950 C510 1.264 . S
C1931 C8 1.270 . S
C1986 C506 1.279 . S
C1967 C309 1.271 . S
C2003 C71 1.379 . S
C2022 C508 1.354 . S
C2039 C109 1.174 . S
C2058 C477 1.153 . S
C2094 C511 1.284 . S
C2075 C137 1.306 . S
C2111 C12 3.100 . S
C2130 C476 3.016 . S
C2147 C212 3.093 . S
C2166 C513 3.023 . S
C2202 C479 1.703 . S
C2183 C271 1.768 . S
C2238 C474 0.975 . S
C2219 C177 0.942 . S
