# Generated by pormake.
# Topology zzz, (3,6)-cn, num edge types: 1
# Building blocks:
#     Node 0, Type 0, BuildingBlock: WUSLED_clean_sbu_0, # of connection points: 3
#     Node 1, Type 0, BuildingBlock: WUSLED_clean_sbu_0, # of connection points: 3
#     Node 2, Type 0, BuildingBlock: WUSLED_clean_sbu_0, # of connection points: 3
#     Node 3, Type 0, BuildingBlock: WUSLED_clean_sbu_0, # of connection points: 3
#     Node 4, Type 0, BuildingBlock: WUSLED_clean_sbu_0, # of connection points: 3
#     Node 5, Type 0, BuildingBlock: WUSLED_clean_sbu_0, # of connection points: 3
#     Node 6, Type 0, BuildingBlock: WUSLED_clean_sbu_0, # of connection points: 3
#     Node 7, Type 0, BuildingBlock: WUSLED_clean_sbu_0, # of connection points: 3
#     Node 8, Type 1, BuildingBlock: PAMTOO_clean_sbu_0, # of connection points: 6
#     Node 9, Type 1, BuildingBlock: PAMTOO_clean_sbu_0, # of connection points: 6
#     Node 10, Type 1, BuildingBlock: PAMTOO_clean_sbu_0, # of connection points: 6
#     Node 11, Type 1, BuildingBlock: PAMTOO_clean_sbu_0, # of connection points: 6
#     Edge 12, Type (0, 1), BuildingBlock: OJICUG_clean_linker_0, # of connection points: 2
#     Edge 13, Type (0, 1), BuildingBlock: OJICUG_clean_linker_0, # of connection points: 2
#     Edge 14, Type (0, 1), BuildingBlock: OJICUG_clean_linker_0, # of connection points: 2
#     Edge 15, Type (0, 1), BuildingBlock: OJICUG_clean_linker_0, # of connection points: 2
#     Edge 16, Type (0, 1), BuildingBlock: OJICUG_clean_linker_0, # of connection points: 2
#     Edge 17, Type (0, 1), BuildingBlock: OJICUG_clean_linker_0, # of connection points: 2
#     Edge 18, Type (0, 1), BuildingBlock: OJICUG_clean_linker_0, # of connection points: 2
#     Edge 19, Type (0, 1), BuildingBlock: OJICUG_clean_linker_0, # of connection points: 2
#     Edge 20, Type (0, 1), BuildingBlock: OJICUG_clean_linker_0, # of connection points: 2
#     Edge 21, Type (0, 1), BuildingBlock: OJICUG_clean_linker_0, # of connection points: 2
#     Edge 22, Type (0, 1), BuildingBlock: OJICUG_clean_linker_0, # of connection points: 2
#     Edge 23, Type (0, 1), BuildingBlock: OJICUG_clean_linker_0, # of connection points: 2
#     Edge 24, Type (0, 1), BuildingBlock: OJICUG_clean_linker_0, # of connection points: 2
#     Edge 25, Type (0, 1), BuildingBlock: OJICUG_clean_linker_0, # of connection points: 2
#     Edge 26, Type (0, 1), BuildingBlock: OJICUG_clean_linker_0, # of connection points: 2
#     Edge 27, Type (0, 1), BuildingBlock: OJICUG_clean_linker_0, # of connection points: 2
#     Edge 28, Type (0, 1), BuildingBlock: OJICUG_clean_linker_0, # of connection points: 2
#     Edge 29, Type (0, 1), BuildingBlock: OJICUG_clean_linker_0, # of connection points: 2
#     Edge 30, Type (0, 1), BuildingBlock: OJICUG_clean_linker_0, # of connection points: 2
#     Edge 31, Type (0, 1), BuildingBlock: OJICUG_clean_linker_0, # of connection points: 2
#     Edge 32, Type (0, 1), BuildingBlock: OJICUG_clean_linker_0, # of connection points: 2
#     Edge 33, Type (0, 1), BuildingBlock: OJICUG_clean_linker_0, # of connection points: 2
#     Edge 34, Type (0, 1), BuildingBlock: OJICUG_clean_linker_0, # of connection points: 2
#     Edge 35, Type (0, 1), BuildingBlock: OJICUG_clean_linker_0, # of connection points: 2
# Relax obj value: 0.354
# Max RMSD: 0.276
# Mean RMSD: 0.215
data_MOF--net-zzz--node1-WUSLED_clean_sbu_0--node2-PAMTOO_clean_sbu_0--edge1-OJICUG_clean_linker_0
_symmetry_space_group_name_H-M    P1
_symmetry_Int_Tables_number       1
_symmetry_cell_setting            triclinic
loop_
_symmetry_equiv_pos_as_xyz
'x, y, z'
_cell_length_a     55.013973
_cell_length_b     47.281066
_cell_length_c     17.592716
_cell_angle_alpha  92.546377
_cell_angle_beta   80.665354
_cell_angle_gamma 84.55572
loop_
_atom_site_label
_atom_site_type_symbol
_atom_site_fract_x
_atom_site_fract_y
_atom_site_fract_z
_atom_type_partial_charge
C0 C 0.82782 0.50752 0.62756 0.0
C1 C 0.84907 0.49348 0.58047 0.0
C2 C 0.87533 0.50713 0.67301 0.0
C3 C 0.8725 0.49355 0.6025 0.0
C4 C 0.85399 0.5207 0.72073 0.0
C5 C 0.8306 0.52099 0.6981 0.0
U6 U 0.78133 0.52055 0.48584 0.0
O7 O 0.74209 0.53848 0.50249 0.0
O8 O 0.75242 0.49382 0.46231 0.0
C9 C 0.73473 0.515 0.47493 0.0
C10 C 0.80265 0.50762 0.60567 0.0
C11 C 0.71917 0.51796 0.41363 0.0
C12 C 0.68107 0.50934 0.36605 0.0
C13 C 0.6954 0.50877 0.42528 0.0
C14 C 0.71393 0.52879 0.28252 0.0
C15 C 0.69019 0.51907 0.29332 0.0
C16 C 0.72826 0.52817 0.34186 0.0
C17 C 0.83755 0.53853 0.35336 0.0
C18 C 0.87543 0.53351 0.26021 0.0
C19 C 0.87689 0.52551 0.3947 0.0
C20 C 0.85132 0.53274 0.41239 0.0
C21 C 0.88896 0.52479 0.31793 0.0
C22 C 0.84979 0.54007 0.27777 0.0
C23 C 0.81077 0.53713 0.36766 0.0
O24 O 0.79069 0.53267 0.59979 0.0
O25 O 0.80004 0.48886 0.55087 0.0
O26 O 0.80467 0.51101 0.37269 0.0
O27 O 0.7979 0.55503 0.42208 0.0
H28 H 0.84769 0.48258 0.52612 0.0
H29 H 0.88841 0.48262 0.56456 0.0
H30 H 0.85542 0.53153 0.77512 0.0
H31 H 0.81459 0.53175 0.73601 0.0
H32 H 0.66311 0.50132 0.37672 0.0
H33 H 0.68806 0.50057 0.47991 0.0
H34 H 0.72153 0.53686 0.22805 0.0
H35 H 0.74658 0.5353 0.33135 0.0
H36 H 0.88433 0.53284 0.20042 0.0
H37 H 0.88699 0.51894 0.44001 0.0
H38 H 0.84198 0.53186 0.47111 0.0
H39 H 0.83939 0.54434 0.23152 0.0
C40 C 1.00789 0.77772 0.58712 0.0
C41 C 0.02943 0.79105 0.56284 0.0
C42 C 1.01149 0.83489 0.63901 0.0
C43 C 0.0312 0.81926 0.58857 0.0
C44 C 0.99003 0.82142 0.66316 0.0
C45 C 0.98831 0.79326 0.63776 0.0
U46 U 1.00706 0.71747 0.43184 0.0
O47 O 0.98151 0.68442 0.43054 0.0
O48 O 0.02123 0.67193 0.42395 0.0
C49 C 0.99964 0.6637 0.41503 0.0
C50 C 1.00544 0.74766 0.56241 0.0
C51 C 0.9997 0.64489 0.34488 0.0
C52 C 1.0142 0.60044 0.26807 0.0
C53 C 1.01306 0.6178 0.33572 0.0
C54 C 0.98823 0.63677 0.21793 0.0
C55 C 1.00185 0.60971 0.20786 0.0
C56 C 0.9873 0.65416 0.28514 0.0
C57 C 0.02319 0.77256 0.28668 0.0
C58 C 0.03868 0.8044 0.19103 0.0
C59 C 0.03011 0.82049 0.32657 0.0
C60 C 0.02254 0.7939 0.34521 0.0
C61 C 0.03853 0.8258 0.24929 0.0
C62 C 0.0311 0.77796 0.20969 0.0
C63 C 1.01704 0.74407 0.30509 0.0
O64 O 0.98566 0.7435 0.53199 0.0
O65 O 0.0255 0.73212 0.52664 0.0
O66 O 0.99433 0.7424 0.34063 0.0
O67 O 0.03396 0.72886 0.3349 0.0
H68 H 0.04489 0.77977 0.52373 0.0
H69 H 0.0479 0.82897 0.568 0.0
H70 H 0.9746 0.83253 0.70275 0.0
H71 H 0.97159 0.78353 0.65809 0.0
H72 H 0.02522 0.58 0.26251 0.0
H73 H 0.02291 0.61023 0.38058 0.0
H74 H 0.9781 0.6446 0.17397 0.0
H75 H 0.97694 0.675 0.28996 0.0
H76 H 0.04454 0.80816 0.13084 0.0
H77 H 0.02978 0.83666 0.37243 0.0
H78 H 1.01649 0.78984 0.40507 0.0
H79 H 0.03164 0.76162 0.16406 0.0
C80 C 0.72751 0.99847 0.51492 0.0
C81 C 0.7095 0.01619 0.4863 0.0
C82 C 0.67656 1.00201 0.58456 0.0
C83 C 0.68433 0.01772 0.52018 0.0
C84 C 0.69476 0.98453 0.61329 0.0
C85 C 0.71979 0.9827 0.57872 0.0
U86 U 0.78401 1.00163 0.34953 0.0
O87 O 0.81898 0.97335 0.32384 0.0
O88 O 0.81982 0.0185 0.35521 0.0
C89 C 0.83288 0.99422 0.32973 0.0
C90 C 0.75442 0.99648 0.48156 0.0
C91 C 0.85379 0.99564 0.26509 0.0
C92 C 0.89822 0.99576 0.22038 0.0
C93 C 0.87812 0.99465 0.28031 0.0
C94 C 0.87004 0.99896 0.12831 0.0
C95 C 0.89458 0.9979 0.14321 0.0
C96 C 0.84992 0.99786 0.18846 0.0
C97 C 0.73735 0.02142 0.21853 0.0
C98 C 0.70844 0.04394 0.1441 0.0
C99 C 0.69322 0.0193 0.25742 0.0
C100 C 0.71755 0.01238 0.26901 0.0
C101 C 0.6884 0.03516 0.19473 0.0
C102 C 0.73269 0.03721 0.15616 0.0
C103 C 0.7629 0.01523 0.23122 0.0
O104 O 0.76311 0.97496 0.43158 0.0
O105 O 0.76368 0.02026 0.46188 0.0
O106 O 0.76936 0.98879 0.24575 0.0
O107 O 0.77045 0.03413 0.27669 0.0
H108 H 0.71488 0.02902 0.43815 0.0
H109 H 0.67098 0.03165 0.49676 0.0
H110 H 0.6896 0.97188 0.66203 0.0
H111 H 0.73325 0.96896 0.60229 0.0
H112 H 0.91663 0.99536 0.23492 0.0
H113 H 0.88162 0.99305 0.33891 0.0
H114 H 0.86634 1.00025 0.06991 0.0
H115 H 0.83134 0.99862 0.17507 0.0
H116 H 0.70543 0.05563 0.0943 0.0
H117 H 0.67823 0.01237 0.29772 0.0
H118 H 0.72093 1.0 0.31725 0.0
H119 H 0.74783 0.04426 0.11661 0.0
C120 C 0.54863 0.69529 0.40275 0.0
C121 C 0.52645 0.68238 0.41355 0.0
C122 C 0.54424 0.64626 0.49054 0.0
C123 C 0.52431 0.65812 0.45663 0.0
C124 C 0.56664 0.65881 0.47726 0.0
C125 C 0.56877 0.68296 0.43403 0.0
U126 U 0.53715 0.75292 0.25415 0.0
O127 O 0.53009 0.7995 0.2775 0.0
O128 O 0.56413 0.78115 0.20244 0.0
C129 C 0.55023 0.80454 0.23098 0.0
C130 C 0.55076 0.7229 0.36604 0.0
C131 C 0.54744 0.82726 0.17661 0.0
C132 C 0.55515 0.87499 0.13867 0.0
C133 C 0.55722 0.85307 0.18904 0.0
C134 C 0.53353 0.84561 0.06162 0.0
C135 C 0.54318 0.87171 0.07428 0.0
C136 C 0.53561 0.82362 0.11232 0.0
C137 C 0.50087 0.70312 0.14678 0.0
C138 C 0.4847 0.67197 0.05825 0.0
C139 C 0.49864 0.65327 0.17163 0.0
C140 C 0.50439 0.68034 0.19354 0.0
C141 C 0.4896 0.64854 0.10208 0.0
C142 C 0.49029 0.69898 0.0805 0.0
C143 C 0.51059 0.73037 0.16069 0.0
O144 O 0.56414 0.72242 0.29682 0.0
O145 O 0.53069 0.741 0.37477 0.0
O146 O 0.53483 0.72956 0.14549 0.0
O147 O 0.50073 0.74529 0.22498 0.0
H148 H 0.51057 0.69139 0.39029 0.0
H149 H 0.50689 0.64886 0.46407 0.0
H150 H 0.58233 0.65068 0.50278 0.0
H151 H 0.58602 0.69262 0.42716 0.0
H152 H 0.56321 0.89445 0.14989 0.0
H153 H 0.56658 0.85629 0.23788 0.0
H154 H 0.52398 0.84231 1.01327 0.0
H155 H 0.52795 0.80384 0.10148 0.0
H156 H 0.47816 0.66919 1.00385 0.0
H157 H 0.50234 0.6358 0.20729 0.0
H158 H 0.51262 0.68322 0.24489 0.0
H159 H 0.48758 0.71636 0.04358 0.0
C160 C 0.2161 0.4819 0.93809 0.0
C161 C 0.19643 0.46901 0.97948 0.0
C162 C 0.1682 0.48763 0.89498 0.0
C163 C 0.17283 0.47178 0.95807 0.0
C164 C 0.1879 0.50074 0.85428 0.0
C165 C 0.21151 0.49784 0.87548 0.0
U166 U 0.25925 0.48023 0.08903 0.0
O167 O 0.29469 0.4984 0.08952 0.0
O168 O 0.29311 0.45255 0.0987 0.0
C169 C 0.30653 0.47403 0.10212 0.0
C170 C 0.2414 0.47892 0.95891 0.0
C171 C 0.32111 0.47484 0.16609 0.0
C172 C 0.36112 0.47582 0.2087 0.0
C173 C 0.34698 0.47421 0.14925 0.0
C174 C 0.32369 0.4785 0.30333 0.0
C175 C 0.34971 0.47814 0.28682 0.0
C176 C 0.30957 0.4769 0.24371 0.0
C177 C 0.19818 0.4952 0.22118 0.0
C178 C 0.15799 0.49505 0.30072 0.0
C179 C 0.16118 0.51513 0.17545 0.0
C180 C 0.18682 0.50805 0.16353 0.0
C181 C 0.14657 0.50915 0.24483 0.0
C182 C 0.18359 0.48818 0.28896 0.0
C183 C 0.22522 0.48966 0.21182 0.0
O184 O 0.24865 0.50201 0.98886 0.0
O185 O 0.24752 0.45594 0.99392 0.0
O186 O 0.23442 0.46388 0.18437 0.0
O187 O 0.2375 0.50981 0.17986 0.0
H188 H 0.19924 0.45682 0.02859 0.0
H189 H 0.1581 0.46175 0.99163 0.0
H190 H 0.18519 0.51289 0.80503 0.0
H191 H 0.2263 0.50799 0.84253 0.0
H192 H 0.38098 0.47588 0.1932 0.0
H193 H 0.35631 0.47277 0.08981 0.0
H194 H 0.31417 0.47985 0.36248 0.0
H195 H 0.28962 0.47741 0.25821 0.0
H196 H 0.14729 0.49059 0.35538 0.0
H197 H 0.15287 0.52586 0.13138 0.0
H198 H 0.19784 0.51332 0.11022 0.0
H199 H 0.19206 0.47812 0.33375 0.0
C200 C 0.02968 0.24251 0.9665 0.0
C201 C 0.04071 0.21976 1.0021 0.0
C202 C 0.02581 0.18511 0.91748 0.0
C203 C 0.03887 0.19148 0.97779 0.0
C204 C 1.01466 0.20804 0.88243 0.0
C205 C 1.01662 0.23632 0.90659 0.0
U206 U 0.0301 0.30143 0.12317 0.0
O207 O 1.01397 0.34616 0.1349 0.0
O208 O 0.054 0.33619 0.12837 0.0
C209 C 0.03498 0.35576 0.14496 0.0
C210 C 0.03169 0.27264 0.99061 0.0
C211 C 0.03418 0.37375 0.21688 0.0
C212 C 0.05074 0.4107 0.28869 0.0
C213 C 0.05038 0.39488 0.21942 0.0
C214 C 1.01833 0.38489 0.35363 0.0
C215 C 0.03485 0.40577 0.35714 0.0
C216 C 1.01813 0.36899 0.28472 0.0
C217 C 0.01967 0.24243 0.26058 0.0
C218 C 0.02253 0.2035 0.34422 0.0
C219 C 1.00701 0.19666 0.22394 0.0
C220 C 1.01046 0.22482 0.2079 0.0
C221 C 1.01297 0.1858 0.29243 0.0
C222 C 0.02584 0.23159 0.32835 0.0
C223 C 0.02311 0.27209 0.24596 0.0
O224 O 1.01136 0.28693 0.02872 0.0
O225 O 0.05158 0.27766 0.01958 0.0
O226 O 0.04521 0.27635 0.21019 0.0
O227 O 1.00496 0.28652 0.21953 0.0
H228 H 0.05085 0.2238 0.04867 0.0
H229 H 0.04805 0.17463 1.00578 0.0
H230 H 1.00409 0.20422 0.83686 0.0
H231 H 1.00784 0.25345 0.87839 0.0
H232 H 0.06391 0.42631 0.28885 0.0
H233 H 0.06307 0.39882 0.16805 0.0
H234 H 1.0054 0.38079 0.40422 0.0
H235 H 1.00552 0.35273 0.2848 0.0
H236 H 0.02687 0.19583 0.39808 0.0
H237 H 0.99971 0.1834 0.18304 0.0
H238 H 1.00576 0.23292 0.15491 0.0
H239 H 0.03299 0.24495 0.36941 0.0
C240 C 0.31684 0.02286 0.06967 0.0
C241 C 0.33466 0.03225 0.11139 0.0
C242 C 0.36779 0.02044 0.9995 0.0
C243 C 0.35977 0.03107 0.07677 0.0
C244 C 0.34984 0.01077 0.95861 0.0
C245 C 0.32484 0.012 0.99311 0.0
U246 U 0.25875 0.0176 0.2286 0.0
O247 O 0.22455 0.04703 0.25687 0.0
O248 O 0.22244 1.00301 0.21641 0.0
C249 C 0.21003 0.02707 0.24714 0.0
C250 C 0.28973 0.02571 0.10176 0.0
C251 C 0.18866 0.02481 0.31042 0.0
C252 C 0.14835 0.00777 0.35383 0.0
C253 C 0.16905 0.00941 0.29626 0.0
C254 C 0.16629 0.03698 0.44161 0.0
C255 C 0.14651 0.02164 0.42755 0.0
C256 C 0.18704 0.0385 0.38408 0.0
C257 C 0.30326 0.99178 0.36127 0.0
C258 C 0.33064 0.98485 0.45486 0.0
C259 C 0.34763 0.98283 0.3183 0.0
C260 C 0.32371 0.98806 0.30133 0.0
C261 C 0.35128 0.98158 0.39536 0.0
C262 C 0.30681 0.9899 0.43786 0.0
C263 C 0.27821 0.99892 0.3455 0.0
O264 O 0.27929 1.00203 0.11327 0.0
O265 O 0.28136 0.04573 0.15661 0.0
O266 O 0.27236 0.02605 0.33715 0.0
O267 O 0.27115 0.98199 0.29381 0.0
H268 H 0.32919 0.04073 0.17054 0.0
H269 H 0.37292 0.03837 0.11085 0.0
H270 H 0.35495 1.00284 0.89891 0.0
H271 H 0.31157 1.00486 0.95915 0.0
H272 H 0.13388 0.99533 0.34051 0.0
H273 H 0.16968 0.99864 0.2402 0.0
H274 H 0.16563 0.04834 0.49681 0.0
H275 H 0.20172 0.05065 0.39729 0.0
H276 H 0.33297 0.98366 0.51466 0.0
H277 H 0.36327 0.98059 0.27153 0.0
H278 H 0.32119 0.98965 0.2418 0.0
H279 H 0.29116 0.99276 0.48462 0.0
C280 C 0.50065 0.30425 0.09302 0.0
C281 C 0.50344 0.32874 0.1377 0.0
C282 C 0.50254 0.35785 0.02616 0.0
C283 C 0.50437 0.35523 0.10468 0.0
C284 C 0.49977 0.33311 0.98189 0.0
C285 C 0.49883 0.30669 1.01496 0.0
U286 U 0.50597 0.25623 0.26059 0.0
O287 O 0.48282 0.22304 0.30495 0.0
O288 O 0.52234 0.21174 0.26105 0.0
C289 C 0.50144 0.20289 0.29396 0.0
C290 C 0.49963 0.2761 0.12675 0.0
C291 C 0.50286 0.18294 0.35625 0.0
C292 C 0.50497 0.1339 0.39419 0.0
C293 C 0.5045 0.15362 0.33721 0.0
C294 C 0.50244 0.17247 0.4911 0.0
C295 C 0.50382 0.14294 0.47218 0.0
C296 C 0.50191 0.19227 0.43374 0.0
C297 C 0.52169 0.3146 0.41838 0.0
C298 C 0.55103 0.34374 0.46507 0.0
C299 C 0.50692 0.35723 0.50111 0.0
C300 C 0.50212 0.3331 0.45999 0.0
C301 C 0.53138 0.36329 0.50182 0.0
C302 C 0.54621 0.31959 0.42322 0.0
C303 C 0.51645 0.29331 0.36103 0.0
O304 O 0.52082 0.2636 0.13968 0.0
O305 O 0.48135 0.2743 0.18393 0.0
O306 O 0.49361 0.28819 0.35667 0.0
O307 O 0.53391 0.27741 0.31356 0.0
H308 H 0.50484 0.32739 0.19819 0.0
H309 H 0.50624 0.37372 0.14102 0.0
H310 H 0.49872 0.33402 0.92111 0.0
H311 H 0.49677 0.28808 0.97929 0.0
H312 H 0.50654 0.11146 0.37676 0.0
H313 H 0.5053 0.14589 0.27783 0.0
H314 H 0.50135 0.18032 0.55043 0.0
H315 H 0.50056 0.21481 0.44994 0.0
H316 H 0.57004 0.34792 0.46514 0.0
H317 H 0.49145 0.37173 0.53032 0.0
H318 H 0.48303 0.32985 0.45743 0.0
H319 H 0.56166 0.3057 0.39147 0.0
Dy320 Dy 1.00054 0.01815 0.72125 0.0
Dy321 Dy 0.03784 1.00132 0.8404 0.0
C322 C 0.0598 0.01506 0.66747 0.0
O323 O 0.99795 0.97188 0.73852 0.0
O324 O 0.03623 0.96085 0.76957 0.0
O325 O 0.98554 1.00658 0.61976 0.0
O326 O 0.97184 0.04638 0.6853 0.0
O327 O 1.00078 0.99044 0.8997 0.0
O328 O 0.97633 0.02046 0.83802 0.0
O329 O 0.02331 0.04704 0.86876 0.0
O330 O 1.01606 0.0589 0.74994 0.0
O331 O 0.05068 0.01158 0.94671 0.0
O332 O 0.06857 0.97532 0.87289 0.0
C333 C 1.01661 0.95303 0.74371 0.0
O334 O 0.03837 0.01044 0.64764 0.0
O335 O 0.06223 0.01766 0.74052 0.0
C336 C 0.97629 0.04663 0.55044 0.0
C337 C 0.98731 0.08331 0.43093 0.0
C338 C 1.00386 0.05941 0.43791 0.0
C339 C 0.9985 0.04134 0.49748 0.0
C340 C 0.9589 0.06911 0.54 0.0
C341 C 0.96436 0.08736 0.48078 0.0
C342 C 0.97243 0.03113 0.62123 0.0
C343 C 0.97916 1.00443 0.89597 0.0
C344 C 0.02006 0.06639 0.81928 0.0
C345 C 0.06402 0.97105 1.0062 0.0
C346 C 0.05966 0.93086 0.11901 0.0
C347 C 0.03839 0.94457 0.09644 0.0
C348 C 0.04058 0.96444 0.04036 0.0
C349 C 0.08522 0.95874 0.03147 0.0
C350 C 0.08306 0.93877 0.08775 0.0
C351 C 0.06638 0.98888 0.94012 0.0
H352 H 0.02153 0.05549 0.3997 0.0
H353 H 1.01227 0.02409 0.50415 0.0
H354 H 0.9417 0.07354 0.58036 0.0
H355 H 0.9513 0.10574 0.47758 0.0
H356 H 0.02013 0.93864 0.11833 0.0
H357 H 0.02401 0.97372 0.02129 0.0
H358 H 0.10344 0.96372 1.00561 0.0
H359 H 0.09974 0.92869 0.10453 0.0
Dy360 Dy 0.51727 0.98891 0.71757 0.0
Dy361 Dy 0.52642 0.03357 0.85304 0.0
C362 C 0.51112 0.05574 0.69533 0.0
O363 O 0.55561 1.0015 0.68127 0.0
O364 O 0.56453 0.0132 0.80009 0.0
O365 O 0.52506 0.97382 0.5977 0.0
O366 O 0.50037 0.95254 0.67915 0.0
O367 O 0.52502 0.9914 0.9061 0.0
O368 O 0.53514 0.96124 0.79782 0.0
O369 O 0.48498 0.03769 0.86112 0.0
O370 O 0.48165 0.99428 0.80305 0.0
O371 O 0.51834 0.04995 0.97196 0.0
O372 O 0.54497 0.06865 0.89024 0.0
C373 C 0.57183 1.00663 0.72589 0.0
O374 O 0.50176 0.03153 0.68521 0.0
O375 O 0.52448 0.05937 0.74979 0.0
C376 C 0.48953 0.95858 0.55724 0.0
C377 C 0.44781 0.96577 0.484 0.0
C378 C 0.46039 0.98921 0.50031 0.0
C379 C 0.481 0.98567 0.53683 0.0
C380 C 0.47787 0.93488 0.53733 0.0
C381 C 0.45714 0.93843 0.50065 0.0
C382 C 0.5086 0.95565 0.60662 0.0
C383 C 0.53205 0.96579 0.87322 0.0
C384 C 0.47167 0.01686 0.84778 0.0
C385 C 0.55436 0.06254 1.0133 0.0
C386 C 0.5935 0.05491 0.0976 0.0
C387 C 0.58755 0.03213 0.05234 0.0
C388 C 0.56816 0.03592 1.01061 0.0
C389 C 0.55958 0.08514 0.06011 0.0
C390 C 0.57903 0.08135 0.1022 0.0
C391 C 0.53585 0.06681 0.96277 0.0
H392 H 0.45376 0.01046 0.4872 0.0
H393 H 0.48967 1.00429 0.55176 0.0
H394 H 0.48412 0.91387 0.55314 0.0
H395 H 0.44766 0.92004 0.48919 0.0
H396 H 0.59855 0.01167 0.04626 0.0
H397 H 0.56444 0.01829 0.97417 0.0
H398 H 0.54906 0.10582 0.06259 0.0
H399 H 0.58304 0.09922 0.13711 0.0
Dy400 Dy 0.55028 0.50686 0.80705 0.0
Dy401 Dy 0.4927 0.51128 0.76079 0.0
C402 C 0.51116 0.46477 0.87393 0.0
O403 O 0.54975 0.4699 0.724 0.0
O404 O 0.5191 0.48913 0.66197 0.0
O405 O 0.5823 0.48322 0.83962 0.0
O406 O 0.58243 0.52828 0.82356 0.0
O407 O 0.50938 0.55186 0.73703 0.0
O408 O 0.54961 0.53325 0.70295 0.0
O409 O 0.48672 0.53506 0.87637 0.0
O410 O 0.52747 0.53969 0.88963 0.0
O411 O 0.45532 0.49865 0.76539 0.0
O412 O 0.46856 0.53015 0.68776 0.0
C413 C 0.5369 0.46915 0.66734 0.0
O414 O 0.52757 0.48152 0.89113 0.0
O415 O 0.49876 0.46989 0.81692 0.0
C416 C 0.60656 0.50917 0.91401 0.0
C417 C 0.6328 0.51396 0.04021 0.0
C418 C 0.60967 0.50277 0.04935 0.0
C419 C 0.59671 0.50037 0.98698 0.0
C420 C 0.62929 0.52085 0.90519 0.0
C421 C 0.64222 0.52324 0.96725 0.0
C422 C 0.59416 0.50562 0.84553 0.0
C423 C 0.53154 0.55307 0.69735 0.0
C424 C 0.50346 0.54572 0.91192 0.0
C425 C 0.43734 0.50366 0.64979 0.0
C426 C 0.40918 0.49112 0.53229 0.0
C427 C 0.43498 0.4925 0.51425 0.0
C428 C 0.44887 0.49873 0.57222 0.0
C429 C 0.41188 0.50111 0.6683 0.0
C430 C 0.398 0.49488 0.61053 0.0
C431 C 0.45054 0.51488 0.71036 0.0
H432 H 0.60182 0.49518 0.10424 0.0
H433 H 0.57918 0.49131 0.99555 0.0
H434 H 0.63725 0.52791 0.8497 0.0
H435 H 0.65966 0.53248 0.95791 0.0
H436 H 0.44433 0.48994 0.45491 0.0
H437 H 0.46847 0.50065 0.55595 0.0
H438 H 0.40248 0.50488 0.72747 0.0
H439 H 0.37836 0.49341 0.62727 0.0
Dy440 Dy 0.0261 0.53242 0.7383 0.0
Dy441 Dy 1.0167 0.47607 0.83562 0.0
C442 C 0.0316 0.46984 0.65051 0.0
O443 O 0.99132 0.51695 0.7094 0.0
O444 O 0.97901 0.49672 0.82241 0.0
O445 O 1.01159 0.57014 0.68824 0.0
O446 O 0.0512 0.55921 0.67731 0.0
O447 O 1.01696 0.51139 0.92448 0.0
O448 O 1.00853 0.55043 0.85664 0.0
O449 O 0.0578 0.47598 0.80203 0.0
O450 O 0.05866 0.52395 0.79951 0.0
O451 O 0.03106 0.44349 0.90376 0.0
O452 O 0.99322 0.445 0.88479 0.0
C453 C 0.97388 0.50726 0.75817 0.0
O454 O 0.03911 0.4955 0.65169 0.0
O455 O 0.02033 0.45923 0.71306 0.0
C456 C 0.03688 0.57587 0.56882 0.0
C457 C 0.05783 0.56207 0.41366 0.0
C458 C 0.0369 0.54939 0.44738 0.0
C459 C 0.02668 0.55598 0.52484 0.0
C460 C 0.05517 0.59161 0.53219 0.0
C461 C 0.0656 0.5848 0.45508 0.0
C462 C 0.0335 0.57482 0.6531 0.0
C463 C 1.01063 0.53879 0.92211 0.0
C464 C 0.06962 0.49862 0.80787 0.0
C465 C 1.00029 0.43797 1.01081 0.0
C466 C 0.97384 0.45876 0.15575 0.0
C467 C 0.99763 0.46661 0.13069 0.0
C468 C 1.01077 0.45635 0.05865 0.0
C469 C 0.97801 0.42722 0.04037 0.0
C470 C 0.96486 0.43754 0.11251 0.0
C471 C 1.00926 0.43534 0.92684 0.0
H472 H 0.0301 0.53229 0.41646 0.0
H473 H 1.01251 0.54353 0.55203 0.0
H474 H 0.06329 0.60698 0.56527 0.0
H475 H 0.08164 0.59513 0.43136 0.0
H476 H 1.00506 0.48265 0.16364 0.0
H477 H 0.02803 0.46492 0.03785 0.0
H478 H 0.96962 0.41302 1.00468 0.0
H479 H 0.9465 0.43114 0.13044 0.0
C480 C 0.12643 0.01959 0.56782 0.0
C481 C 0.12415 0.02015 0.48917 0.0
H482 H 0.10835 0.01762 0.68478 0.0
C483 C 0.10026 0.01924 0.4702 0.0
H484 H 0.14439 0.01977 0.58534 0.0
C485 C 0.07949 0.01766 0.52762 0.0
C486 C 0.08185 0.0171 0.60609 0.0
H487 H 0.09744 0.02012 0.41083 0.0
H488 H 0.06152 0.01704 0.51034 0.0
C489 C 0.10565 0.01818 0.62522 0.0
C490 C 0.49204 0.09676 0.5286 0.0
C491 C 0.50435 0.12149 0.53261 0.0
H492 H 0.48416 0.05706 0.57646 0.0
C493 C 0.5178 0.12496 0.5934 0.0
H494 H 0.48109 0.09347 0.48369 0.0
C495 C 0.51948 0.10402 0.64704 0.0
C496 C 0.50771 0.07896 0.6417 0.0
H497 H 0.52771 0.1435 0.5983 0.0
H498 H 0.53049 0.10726 0.69183 0.0
C499 C 0.49369 0.07584 0.58227 0.0
C500 C 0.38857 0.46591 0.34472 0.0
C501 C 0.36481 0.48079 0.35043 0.0
H502 H 0.42088 0.45698 0.39702 0.0
C503 C 0.35579 0.49873 0.41708 0.0
H504 H 0.39611 0.45155 0.29507 0.0
C505 C 0.37003 0.50181 0.47572 0.0
C506 C 0.39382 0.48707 0.46994 0.0
H507 H 0.33787 0.51101 0.42336 0.0
H508 H 0.36253 0.51638 0.52496 0.0
C509 C 0.40284 0.46901 0.40346 0.0
C510 C 0.03122 0.40875 0.50256 0.0
C511 C 0.0355 0.42198 0.43205 0.0
H512 H 0.02675 0.41319 0.62588 0.0
C513 C 0.03993 0.45085 0.43431 0.0
H514 H 0.02834 0.38642 0.50361 0.0
C515 C 0.03952 0.46611 0.5049 0.0
C516 C 0.03445 0.45303 0.57527 0.0
H517 H 0.04302 0.46197 0.38168 0.0
H518 H 0.04243 0.48843 0.50438 0.0
C519 C 0.03054 0.42407 0.57301 0.0
C520 C 0.93928 0.98348 0.08005 0.0
C521 C 0.91621 0.99918 0.07907 0.0
H522 H 0.97689 0.97259 0.02405 0.0
C523 C 0.91414 0.01635 0.01646 0.0
H524 H 0.94168 0.96965 0.12627 0.0
C525 C 0.93441 0.0179 0.95732 0.0
C526 C 0.95748 1.00234 0.95862 0.0
H527 H 0.89693 0.0291 1.01367 0.0
H528 H 0.93198 0.03154 0.91072 0.0
C529 C 0.95956 0.98503 0.02087 0.0
C530 C 0.54291 0.89055 0.94124 0.0
C531 C 0.54056 0.89566 0.0218 0.0
H532 H 0.54239 0.90838 0.83119 0.0
C533 C 0.53577 0.92407 0.0522 0.0
H534 H 0.54687 0.86904 0.91541 0.0
C535 C 0.53337 0.9466 1.00393 0.0
C536 C 0.53565 0.94155 0.92349 0.0
H537 H 0.53345 0.92898 0.11382 0.0
H538 H 0.52952 0.96807 0.03011 0.0
C539 C 0.54055 0.91318 0.89274 0.0
C540 C 0.6871 0.51117 0.15194 0.0
C541 C 0.67536 0.51826 0.22858 0.0
H542 H 0.68318 0.50374 0.03381 0.0
C543 C 0.64933 0.52396 0.24264 0.0
H544 H 0.70698 0.50604 0.13853 0.0
C545 C 0.63555 0.52256 0.1821 0.0
C546 C 0.64735 0.51548 0.10547 0.0
H547 H 0.63953 0.52988 0.30048 0.0
H548 H 0.61564 0.52746 0.19532 0.0
C549 C 0.67335 0.50981 0.09153 0.0
C550 C 1.00453 0.56167 0.13542 0.0
C551 C 1.00339 0.59153 0.13462 0.0
H552 H 1.00762 0.52188 0.06984 0.0
C553 C 1.00391 0.60387 0.06287 0.0
H554 H 1.00373 0.55124 0.1892 0.0
C555 C 1.00564 0.58691 0.9943 0.0
C556 C 1.00716 0.55708 0.99522 0.0
H557 H 1.00353 0.62669 0.05917 0.0
H558 H 1.00633 0.59722 0.94033 0.0
C559 C 1.00652 0.54474 0.06677 0.0
C560 C 0.9849 0.1471 0.30901 0.0
C561 C 1.00807 0.15671 0.3131 0.0
H562 H 0.96019 0.11573 0.34212 0.0
C563 C 0.02551 0.13971 0.34564 0.0
H564 H 0.97112 0.15985 0.28419 0.0
C565 C 0.01924 0.11472 0.37922 0.0
C566 C 0.99539 0.10617 0.38074 0.0
H567 H 0.04363 0.14648 0.34853 0.0
H568 H 0.03258 0.10322 0.40854 0.0
C569 C 0.97859 0.12201 0.3427 0.0
C570 C 0.39433 0.9566 0.37663 0.0
C571 C 0.37649 0.97801 0.41462 0.0
H572 H 0.43115 0.9358 0.36905 0.0
C573 C 0.3826 0.99588 0.47294 0.0
H574 H 0.38998 0.94251 0.33159 0.0
C575 C 0.40594 0.99213 0.49402 0.0
C576 C 0.42368 0.97038 0.45737 0.0
H577 H 0.36925 0.01274 0.50254 0.0
H578 H 0.40989 1.00586 0.54047 0.0
C579 C 0.41774 0.95266 0.39828 0.0
C580 C 0.55207 0.39235 0.59073 0.0
C581 C 0.53597 0.39089 0.53675 0.0
H582 H 0.56525 0.41857 0.67452 0.0
C583 C 0.52305 0.41605 0.5185 0.0
H584 H 0.56233 0.37322 0.60536 0.0
C585 C 0.52487 0.44192 0.5571 0.0
C586 C 0.53953 0.4432 0.61531 0.0
H587 H 0.51094 0.41556 0.47574 0.0
H588 H 0.5138 0.46066 0.54371 0.0
C589 C 0.55379 0.41832 0.62998 0.0
C590 C 0.10298 0.50435 0.3052 0.0
C591 C 0.12018 0.5206 0.26444 0.0
H592 H 0.06929 0.50482 0.38397 0.0
C593 C 0.11313 0.5495 0.25591 0.0
H594 H 0.10773 0.48188 0.31117 0.0
C595 C 0.09072 0.56274 0.29678 0.0
C596 C 0.07523 0.54729 0.3472 0.0
H597 H 0.12594 0.56253 0.22414 0.0
H598 H 0.08672 0.58554 0.29474 0.0
C599 C 0.0807 0.51756 0.34624 0.0
C600 C 0.03207 0.879 0.25703 0.0
C601 C 0.04665 0.85367 0.22794 0.0
H602 H 0.02516 0.92387 0.24629 0.0
C603 C 0.06782 0.85486 0.17214 0.0
H604 H 1.01568 0.87864 0.30027 0.0
C605 C 0.07314 0.88056 0.141 0.0
C606 C 0.0574 0.90558 0.16525 0.0
H607 H 0.07961 0.83565 0.14982 0.0
H608 H 0.08857 0.88035 0.09408 0.0
C609 C 0.03741 0.9048 0.22584 0.0
C610 C 0.64597 0.02093 0.18857 0.0
C611 C 0.66275 0.04165 0.17986 0.0
H612 H 0.61057 0.00917 0.17137 0.0
C613 C 0.65536 0.06797 0.15205 0.0
H614 H 0.65109 1.00039 0.20958 0.0
C615 C 0.63231 0.07282 0.12899 0.0
C616 C 0.61608 0.05151 0.13367 0.0
H617 H 0.66768 0.08459 0.14612 0.0
H618 H 0.62776 0.09276 0.10396 0.0
C619 C 0.62284 0.02585 0.16592 0.0
C620 C 0.4714 0.61281 0.02244 0.0
C621 C 0.48908 0.61914 0.0687 0.0
H622 H 0.46184 0.58408 0.93666 0.0
C623 C 0.50872 0.59831 0.07309 0.0
H624 H 0.45579 0.62817 0.01883 0.0
C625 C 0.51201 0.57312 0.02676 0.0
C626 C 0.49577 0.56809 0.97488 0.0
H627 H 0.52281 0.60234 0.10748 0.0
H628 H 0.52828 0.5584 0.02787 0.0
C629 C 0.4747 0.58744 0.97593 0.0
C630 C 0.93189 0.52289 0.24461 0.0
C631 C 0.91418 0.51027 0.29482 0.0
H632 H 0.96523 0.51622 0.16226 0.0
C633 C 0.91888 0.48155 0.31048 0.0
H634 H 0.92857 0.54497 0.23161 0.0
C635 C 0.93972 0.46493 0.27011 0.0
C636 C 0.95632 0.47698 0.21469 0.0
H637 H 0.90533 0.47133 0.34861 0.0
H638 H 0.94196 0.4423 0.27822 0.0
C639 C 0.95292 0.50642 0.20533 0.0
C640 C 0.02218 0.13346 0.94526 0.0
C641 C 0.02379 0.15476 0.89173 0.0
H642 H 0.01974 0.0894 0.96478 0.0
C643 C 0.02361 0.14666 0.81363 0.0
H644 H 0.02168 0.1387 1.00606 0.0
C645 C 0.02206 0.11817 0.78993 0.0
C646 C 0.02086 0.09693 0.84353 0.0
H647 H 0.02513 0.16221 0.77024 0.0
H648 H 0.02221 0.11273 0.72938 0.0
C649 C 0.02086 0.10504 0.92151 0.0
C650 C 0.40565 0.99702 0.90803 0.0
C651 C 0.39455 0.0196 0.96117 0.0
H652 H 0.43809 0.97843 0.83118 0.0
C653 C 0.40919 0.04149 0.97603 0.0
H654 H 0.39532 0.97949 0.89548 0.0
C655 C 0.43397 0.04085 0.93889 0.0
C656 C 0.445 0.01823 0.88581 0.0
H657 H 0.40141 0.05946 0.01563 0.0
H658 H 0.44451 0.05811 0.95211 0.0
C659 C 0.43039 0.99633 0.87113 0.0
C660 C 0.51998 0.4054 1.01032 0.0
C661 C 0.50381 0.38602 0.99012 0.0
H662 H 0.53496 0.44517 0.99028 0.0
C663 C 0.48928 0.39355 0.9337 0.0
H664 H 0.5317 0.40036 0.05275 0.0
C665 C 0.49124 0.41929 0.89748 0.0
C666 C 0.50777 0.43836 0.91654 0.0
H667 H 0.47628 0.37953 0.91737 0.0
H668 H 0.47995 0.42402 0.85369 0.0
C669 C 0.52194 0.43116 0.97408 0.0
C670 C 0.13277 0.51647 0.84875 0.0
C671 C 0.14304 0.49039 0.87153 0.0
H672 H 0.10181 0.5396 0.81126 0.0
C673 C 0.12905 0.46694 0.87156 0.0
H674 H 0.14282 0.53509 0.84864 0.0
C675 C 0.10552 0.46949 0.84969 0.0
C676 C 0.09515 0.49564 0.82771 0.0
H677 H 0.13639 0.44643 0.8878 0.0
H678 H 0.09535 0.45095 0.85087 0.0
C679 C 0.10914 0.51909 0.82752 0.0
C680 C 0.99239 0.8856 0.67161 0.0
C681 C 1.01304 0.86514 0.66605 0.0
H682 H 0.97729 0.92889 0.7 0.0
C683 C 0.03495 0.87388 0.68714 0.0
H684 H 0.9753 0.87987 0.65503 0.0
C685 C 0.03609 0.9022 0.71334 0.0
C686 C 1.01542 0.92262 0.71853 0.0
H687 H 0.05115 0.85872 0.68439 0.0
H688 H 0.05325 0.9081 0.729 0.0
C689 C 0.99358 0.91386 0.6972 0.0
C690 C 0.63091 1.00342 0.57568 0.0
C691 C 0.6497 1.00358 0.62129 0.0
H692 H 0.5921 1.00389 0.5722 0.0
C693 C 0.64254 1.00485 0.70224 0.0
H694 H 0.63559 1.00219 0.51332 0.0
C695 C 0.61742 1.00601 0.73636 0.0
C696 C 0.59869 1.00553 0.69057 0.0
H697 H 0.65638 1.00527 0.73947 0.0
H698 H 0.61272 0.00711 0.79871 0.0
C699 C 0.60588 1.0042 0.60968 0.0
C700 C 0.51879 0.62035 0.59257 0.0
C701 C 0.54127 0.62195 0.54257 0.0
H702 H 0.49823 0.59798 0.67988 0.0
C703 C 0.5609 0.60061 0.54478 0.0
H704 H 0.50338 0.63654 0.59423 0.0
C705 C 0.55802 0.57838 0.59517 0.0
C706 C 0.53544 0.57686 0.64476 0.0
H707 H 0.57846 0.60086 0.50687 0.0
H708 H 0.57343 0.56229 0.59478 0.0
C709 C 0.51592 0.59822 0.64259 0.0
C710 C 0.90419 0.50236 0.77183 0.0
C711 C 0.90046 0.50737 0.69593 0.0
H712 H 0.93012 0.498 0.85104 0.0
C713 C 0.92104 0.51255 0.64158 0.0
H714 H 0.88883 0.49809 0.81514 0.0
C715 C 0.9446 0.51276 0.6623 0.0
C716 C 0.94846 0.50745 0.73787 0.0
H717 H 0.9189 0.5168 0.5829 0.0
H718 H 0.95989 0.51687 0.61849 0.0
C719 C 0.92791 0.50217 0.79238 0.0
loop_
_geom_bond_atom_site_label_1
_geom_bond_atom_site_label_2
_geom_bond_distance
_geom_bond_site_symmetry_2
_ccdc_geom_bond_type
C0 C1 1.264 . S
C0 C5 1.479 . S
C0 C10 1.465 . S
C1 C0 1.264 . S
C1 C3 1.339 . S
C1 H28 0.931 . S
C2 C3 1.395 . S
C2 C4 1.320 . S
C3 C1 1.339 . S
C3 C2 1.395 . S
C3 H29 0.929 . S
C4 C2 1.320 . S
C4 C5 1.405 . S
C4 H30 0.930 . S
C5 C0 1.479 . S
C5 C4 1.405 . S
C5 H31 0.931 . S
U6 O7 2.454 . S
U6 O8 2.458 . S
U6 C9 2.984 . S
U6 C10 2.847 . S
U6 C23 2.882 . S
U6 O24 2.441 . S
U6 O25 2.420 . S
U6 O26 2.455 . S
U6 O27 2.449 . S
O7 U6 2.454 . S
O7 C9 1.353 . S
O8 U6 2.458 . S
O8 C9 1.286 . S
C9 U6 2.984 . S
C9 O7 1.353 . S
C9 O8 1.286 . S
C9 C11 1.363 . S
C10 C0 1.465 . S
C10 U6 2.847 . S
C10 O24 1.249 . S
C10 O25 1.202 . S
C11 C9 1.363 . S
C11 C13 1.408 . S
C11 C16 1.342 . S
C12 C13 1.310 . S
C12 C15 1.461 . S
C12 H32 0.932 . S
C13 C11 1.408 . S
C13 C12 1.310 . S
C13 H33 0.930 . S
C14 C15 1.474 . S
C14 C16 1.285 . S
C14 H34 0.929 . S
C15 C12 1.461 . S
C15 C14 1.474 . S
C16 C11 1.342 . S
C16 C14 1.285 . S
C16 H35 0.930 . S
C17 C20 1.424 . S
C17 C22 1.245 . S
C17 C23 1.428 . S
C18 C21 1.260 . S
C18 C22 1.477 . S
C18 H36 0.932 . S
C19 C20 1.384 . S
C19 C21 1.479 . S
C19 H37 0.929 . S
C20 C17 1.424 . S
C20 C19 1.384 . S
C20 H38 0.928 . S
C21 C18 1.260 . S
C21 C19 1.479 . S
C22 C17 1.245 . S
C22 C18 1.477 . S
C22 H39 0.932 . S
C23 U6 2.882 . S
C23 C17 1.428 . S
C23 O26 1.301 . S
C23 O27 1.282 . S
O24 U6 2.441 . S
O24 C10 1.249 . S
O25 U6 2.420 . S
O25 C10 1.202 . S
O26 U6 2.455 . S
O26 C23 1.301 . S
O27 U6 2.449 . S
O27 C23 1.282 . S
H28 C1 0.931 . S
H29 C3 0.929 . S
H30 C4 0.930 . S
H31 C5 0.931 . S
H32 C12 0.932 . S
H33 C13 0.930 . S
H34 C14 0.929 . S
H35 C16 0.930 . S
H36 C18 0.932 . S
H37 C19 0.929 . S
H38 C20 0.928 . S
H39 C22 0.932 . S
C40 C41 1.264 . S
C40 C45 1.479 . S
C40 C50 1.465 . S
C41 C40 1.264 . S
C41 C43 1.339 . S
C41 H68 0.931 . S
C42 C43 1.395 . S
C42 C44 1.320 . S
C43 C41 1.339 . S
C43 C42 1.395 . S
C43 H69 0.929 . S
C44 C42 1.320 . S
C44 C45 1.405 . S
C44 H70 0.930 1_455 S
C45 C40 1.479 . S
C45 C44 1.405 . S
C45 H71 0.931 . S
U46 O47 2.454 . S
U46 O48 2.458 . S
U46 C49 2.984 . S
U46 C50 2.847 . S
U46 C63 2.882 . S
U46 O64 2.441 . S
U46 O65 2.420 . S
U46 O66 2.455 . S
U46 O67 2.449 . S
O47 U46 2.454 . S
O47 C49 1.353 . S
O48 U46 2.458 . S
O48 C49 1.286 . S
C49 U46 2.984 . S
C49 O47 1.353 . S
C49 O48 1.286 . S
C49 C51 1.363 . S
C50 C40 1.465 . S
C50 U46 2.847 . S
C50 O64 1.249 . S
C50 O65 1.202 . S
C51 C49 1.363 . S
C51 C53 1.408 . S
C51 C56 1.342 . S
C52 C53 1.310 . S
C52 C55 1.460 . S
C52 H72 0.932 . S
C53 C51 1.408 . S
C53 C52 1.310 . S
C53 H73 0.930 . S
C54 C55 1.474 1_655 S
C54 C56 1.282 1_655 S
C54 H74 0.934 . S
C55 C52 1.460 . S
C55 C54 1.474 1_455 S
C56 C51 1.342 . S
C56 C54 1.282 1_455 S
C56 H75 0.933 . S
C57 C60 1.424 . S
C57 C62 1.245 . S
C57 C63 1.428 . S
C58 C61 1.260 . S
C58 C62 1.477 . S
C58 H76 0.932 . S
C59 C60 1.384 . S
C59 C61 1.479 . S
C59 H77 0.929 . S
C60 C57 1.424 . S
C60 C59 1.384 . S
C60 H78 0.928 . S
C61 C58 1.260 . S
C61 C59 1.479 . S
C62 C57 1.245 . S
C62 C58 1.477 . S
C62 H79 0.932 . S
C63 U46 2.882 . S
C63 C57 1.428 . S
C63 O66 1.301 . S
C63 O67 1.282 . S
O64 U46 2.441 . S
O64 C50 1.249 . S
O65 U46 2.420 . S
O65 C50 1.202 . S
O66 U46 2.455 . S
O66 C63 1.301 . S
O67 U46 2.449 . S
O67 C63 1.282 . S
H68 C41 0.931 . S
H69 C43 0.929 . S
H70 C44 0.930 1_655 S
H71 C45 0.931 . S
H72 C52 0.932 . S
H73 C53 0.930 . S
H74 C54 0.934 . S
H75 C56 0.933 . S
H76 C58 0.932 . S
H77 C59 0.929 . S
H78 C60 0.928 . S
H79 C62 0.932 . S
C80 C81 1.264 . S
C80 C85 1.479 . S
C80 C90 1.465 . S
C81 C80 1.264 . S
C81 C83 1.339 . S
C81 H108 0.931 . S
C82 C83 1.395 . S
C82 C84 1.320 . S
C83 C81 1.339 . S
C83 C82 1.395 . S
C83 H109 0.929 . S
C84 C82 1.320 . S
C84 C85 1.405 . S
C84 H110 0.930 1_545 S
C85 C80 1.479 . S
C85 C84 1.405 . S
C85 H111 0.931 . S
U86 O87 2.454 . S
U86 O88 2.458 . S
U86 C89 2.984 . S
U86 C90 2.847 . S
U86 C103 2.882 . S
U86 O104 2.441 . S
U86 O105 2.420 . S
U86 O106 2.455 . S
U86 O107 2.449 . S
O87 U86 2.454 . S
O87 C89 1.353 . S
O88 U86 2.458 . S
O88 C89 1.286 . S
C89 U86 2.984 . S
C89 O87 1.353 . S
C89 O88 1.286 . S
C89 C91 1.363 . S
C90 C80 1.465 . S
C90 U86 2.847 . S
C90 O104 1.249 . S
C90 O105 1.202 . S
C91 C89 1.363 . S
C91 C93 1.408 . S
C91 C96 1.342 . S
C92 C93 1.310 . S
C92 C95 1.461 . S
C92 H112 0.932 . S
C93 C91 1.408 . S
C93 C92 1.310 . S
C93 H113 0.930 . S
C94 C95 1.473 1_565 S
C94 C96 1.286 1_565 S
C94 H114 0.930 . S
C95 C92 1.461 . S
C95 C94 1.473 1_545 S
C96 C91 1.342 . S
C96 C94 1.286 1_545 S
C96 H115 0.935 . S
C97 C100 1.424 . S
C97 C102 1.245 . S
C97 C103 1.428 . S
C98 C101 1.260 . S
C98 C102 1.477 . S
C98 H116 0.932 1_554 S
C99 C100 1.384 . S
C99 C101 1.479 . S
C99 H117 0.929 . S
C100 C97 1.424 . S
C100 C99 1.384 . S
C100 H118 0.928 . S
C101 C98 1.260 . S
C101 C99 1.479 . S
C102 C97 1.245 . S
C102 C98 1.477 . S
C102 H119 0.932 . S
C103 U86 2.882 . S
C103 C97 1.428 . S
C103 O106 1.301 . S
C103 O107 1.282 . S
O104 U86 2.441 . S
O104 C90 1.249 . S
O105 U86 2.420 . S
O105 C90 1.202 . S
O106 U86 2.455 . S
O106 C103 1.301 . S
O107 U86 2.449 . S
O107 C103 1.282 . S
H108 C81 0.931 . S
H109 C83 0.929 . S
H110 C84 0.930 1_565 S
H111 C85 0.931 . S
H112 C92 0.932 . S
H113 C93 0.930 . S
H114 C94 0.930 . S
H115 C96 0.935 . S
H116 C98 0.932 1_556 S
H117 C99 0.929 . S
H118 C100 0.928 . S
H119 C102 0.932 . S
C120 C121 1.264 . S
C120 C125 1.479 . S
C120 C130 1.465 . S
C121 C120 1.264 . S
C121 C123 1.339 . S
C121 H148 0.931 . S
C122 C123 1.395 . S
C122 C124 1.320 . S
C123 C121 1.339 . S
C123 C122 1.395 . S
C123 H149 0.929 . S
C124 C122 1.320 . S
C124 C125 1.405 . S
C124 H150 0.930 . S
C125 C120 1.479 . S
C125 C124 1.405 . S
C125 H151 0.931 . S
U126 O127 2.454 . S
U126 O128 2.458 . S
U126 C129 2.984 . S
U126 C130 2.847 . S
U126 C143 2.882 . S
U126 O144 2.441 . S
U126 O145 2.420 . S
U126 O146 2.455 . S
U126 O147 2.449 . S
O127 U126 2.454 . S
O127 C129 1.353 . S
O128 U126 2.458 . S
O128 C129 1.286 . S
C129 U126 2.984 . S
C129 O127 1.353 . S
C129 O128 1.286 . S
C129 C131 1.363 . S
C130 C120 1.465 . S
C130 U126 2.847 . S
C130 O144 1.249 . S
C130 O145 1.202 . S
C131 C129 1.363 . S
C131 C133 1.408 . S
C131 C136 1.342 . S
C132 C133 1.310 . S
C132 C135 1.461 . S
C132 H152 0.932 . S
C133 C131 1.408 . S
C133 C132 1.310 . S
C133 H153 0.930 . S
C134 C135 1.474 . S
C134 C136 1.285 . S
C134 H154 0.929 1_554 S
C135 C132 1.461 . S
C135 C134 1.474 . S
C136 C131 1.342 . S
C136 C134 1.285 . S
C136 H155 0.930 1_554 S
C137 C140 1.424 1_556 S
C137 C142 1.245 . S
C137 C143 1.428 1_556 S
C138 C141 1.260 . S
C138 C142 1.477 . S
C138 H156 0.932 . S
C139 C140 1.384 1_556 S
C139 C141 1.479 . S
C139 H157 0.929 . S
C140 C137 1.424 1_554 S
C140 C139 1.384 1_554 S
C140 H158 0.928 . S
C141 C138 1.260 . S
C141 C139 1.479 . S
C142 C137 1.245 . S
C142 C138 1.477 . S
C142 H159 0.932 . S
C143 U126 2.882 . S
C143 C137 1.428 1_554 S
C143 O146 1.301 . S
C143 O147 1.282 . S
O144 U126 2.441 . S
O144 C130 1.249 . S
O145 U126 2.420 . S
O145 C130 1.202 . S
O146 U126 2.455 . S
O146 C143 1.301 . S
O147 U126 2.449 . S
O147 C143 1.282 . S
H148 C121 0.931 . S
H149 C123 0.929 . S
H150 C124 0.930 . S
H151 C125 0.931 . S
H152 C132 0.932 . S
H153 C133 0.930 . S
H154 C134 0.929 1_556 S
H155 C136 0.930 1_556 S
H156 C138 0.932 . S
H157 C139 0.929 . S
H158 C140 0.928 . S
H159 C142 0.932 . S
C160 C161 1.264 . S
C160 C165 1.479 . S
C160 C170 1.465 . S
C161 C160 1.264 . S
C161 C163 1.339 . S
C161 H188 0.931 . S
C162 C163 1.395 . S
C162 C164 1.320 . S
C163 C161 1.339 . S
C163 C162 1.395 . S
C163 H189 0.929 . S
C164 C162 1.320 . S
C164 C165 1.405 . S
C164 H190 0.930 . S
C165 C160 1.479 . S
C165 C164 1.405 . S
C165 H191 0.931 . S
U166 O167 2.454 . S
U166 O168 2.458 1_556 S
U166 C169 2.984 1_556 S
U166 C170 2.847 . S
U166 C183 2.882 1_556 S
U166 O184 2.441 . S
U166 O185 2.420 . S
U166 O186 2.455 1_556 S
U166 O187 2.449 1_556 S
O167 U166 2.454 . S
O167 C169 1.353 1_556 S
O168 U166 2.458 1_554 S
O168 C169 1.286 . S
C169 U166 2.984 1_554 S
C169 O167 1.353 1_554 S
C169 O168 1.286 . S
C169 C171 1.363 . S
C170 C160 1.465 . S
C170 U166 2.847 . S
C170 O184 1.249 . S
C170 O185 1.202 . S
C171 C169 1.363 . S
C171 C173 1.408 1_554 S
C171 C176 1.342 . S
C172 C173 1.310 . S
C172 C175 1.461 1_556 S
C172 H192 0.932 . S
C173 C171 1.408 1_556 S
C173 C172 1.310 . S
C173 H193 0.930 . S
C174 C175 1.474 . S
C174 C176 1.285 . S
C174 H194 0.929 . S
C175 C172 1.461 1_554 S
C175 C174 1.474 . S
C176 C171 1.342 . S
C176 C174 1.285 . S
C176 H195 0.930 . S
C177 C180 1.424 . S
C177 C182 1.245 . S
C177 C183 1.428 . S
C178 C181 1.260 . S
C178 C182 1.477 . S
C178 H196 0.932 . S
C179 C180 1.384 . S
C179 C181 1.479 . S
C179 H197 0.929 . S
C180 C177 1.424 . S
C180 C179 1.384 . S
C180 H198 0.928 . S
C181 C178 1.260 . S
C181 C179 1.479 . S
C182 C177 1.245 . S
C182 C178 1.477 . S
C182 H199 0.932 . S
C183 U166 2.882 1_554 S
C183 C177 1.428 . S
C183 O186 1.301 . S
C183 O187 1.282 . S
O184 U166 2.441 . S
O184 C170 1.249 . S
O185 U166 2.420 . S
O185 C170 1.202 . S
O186 U166 2.455 1_554 S
O186 C183 1.301 . S
O187 U166 2.449 1_554 S
O187 C183 1.282 . S
H188 C161 0.931 . S
H189 C163 0.929 . S
H190 C164 0.930 . S
H191 C165 0.931 . S
H192 C172 0.932 . S
H193 C173 0.930 . S
H194 C174 0.929 . S
H195 C176 0.930 . S
H196 C178 0.932 . S
H197 C179 0.929 . S
H198 C180 0.928 . S
H199 C182 0.932 . S
C200 C201 1.264 . S
C200 C205 1.479 . S
C200 C210 1.465 . S
C201 C200 1.264 . S
C201 C203 1.339 . S
C201 H228 0.931 . S
C202 C203 1.395 . S
C202 C204 1.320 . S
C203 C201 1.339 . S
C203 C202 1.395 . S
C203 H229 0.929 . S
C204 C202 1.320 . S
C204 C205 1.405 . S
C204 H230 0.930 . S
C205 C200 1.479 . S
C205 C204 1.405 . S
C205 H231 0.931 . S
U206 O207 2.454 . S
U206 O208 2.458 . S
U206 C209 2.984 . S
U206 C210 2.847 1_554 S
U206 C223 2.882 . S
U206 O224 2.441 1_554 S
U206 O225 2.420 . S
U206 O226 2.455 . S
U206 O227 2.449 . S
O207 U206 2.454 . S
O207 C209 1.353 . S
O208 U206 2.458 . S
O208 C209 1.286 . S
C209 U206 2.984 . S
C209 O207 1.353 . S
C209 O208 1.286 . S
C209 C211 1.363 . S
C210 C200 1.465 . S
C210 U206 2.847 1_556 S
C210 O224 1.249 . S
C210 O225 1.202 1_556 S
C211 C209 1.363 . S
C211 C213 1.408 . S
C211 C216 1.342 . S
C212 C213 1.310 . S
C212 C215 1.461 . S
C212 H232 0.932 . S
C213 C211 1.408 . S
C213 C212 1.310 . S
C213 H233 0.930 . S
C214 C215 1.474 . S
C214 C216 1.285 . S
C214 H234 0.927 . S
C215 C212 1.461 . S
C215 C214 1.474 . S
C216 C211 1.342 . S
C216 C214 1.285 . S
C216 H235 0.930 . S
C217 C220 1.424 . S
C217 C222 1.245 . S
C217 C223 1.428 . S
C218 C221 1.260 . S
C218 C222 1.477 . S
C218 H236 0.932 . S
C219 C220 1.384 . S
C219 C221 1.479 . S
C219 H237 0.929 . S
C220 C217 1.424 . S
C220 C219 1.384 . S
C220 H238 0.928 . S
C221 C218 1.260 . S
C221 C219 1.479 . S
C222 C217 1.245 . S
C222 C218 1.477 . S
C222 H239 0.932 . S
C223 U206 2.882 . S
C223 C217 1.428 . S
C223 O226 1.301 . S
C223 O227 1.282 . S
O224 U206 2.441 1_556 S
O224 C210 1.249 . S
O225 U206 2.420 . S
O225 C210 1.202 1_554 S
O226 U206 2.455 . S
O226 C223 1.301 . S
O227 U206 2.449 . S
O227 C223 1.282 . S
H228 C201 0.931 . S
H229 C203 0.929 . S
H230 C204 0.930 . S
H231 C205 0.931 . S
H232 C212 0.932 . S
H233 C213 0.930 . S
H234 C214 0.927 . S
H235 C216 0.930 . S
H236 C218 0.932 . S
H237 C219 0.929 . S
H238 C220 0.928 . S
H239 C222 0.932 . S
C240 C241 1.264 . S
C240 C245 1.479 . S
C240 C250 1.465 1_556 S
C241 C240 1.264 . S
C241 C243 1.339 . S
C241 H268 0.931 . S
C242 C243 1.395 . S
C242 C244 1.320 . S
C243 C241 1.339 . S
C243 C242 1.395 . S
C243 H269 0.929 . S
C244 C242 1.320 . S
C244 C245 1.405 . S
C244 H270 0.921 1_545 S
C245 C240 1.479 . S
C245 C244 1.405 . S
C245 H271 0.931 . S
U246 O247 2.454 . S
U246 O248 2.458 . S
U246 C249 2.984 . S
U246 C250 2.847 . S
U246 C263 2.882 . S
U246 O264 2.441 . S
U246 O265 2.420 . S
U246 O266 2.455 . S
U246 O267 2.449 . S
O247 U246 2.454 . S
O247 C249 1.353 . S
O248 U246 2.458 . S
O248 C249 1.286 . S
C249 U246 2.984 . S
C249 O247 1.353 . S
C249 O248 1.286 . S
C249 C251 1.363 . S
C250 C240 1.465 1_554 S
C250 U246 2.847 . S
C250 O264 1.249 . S
C250 O265 1.202 . S
C251 C249 1.363 . S
C251 C253 1.408 . S
C251 C256 1.342 . S
C252 C253 1.310 . S
C252 C255 1.463 . S
C252 H272 0.932 . S
C253 C251 1.408 . S
C253 C252 1.310 . S
C253 H273 0.930 . S
C254 C255 1.475 1_565 S
C254 C256 1.285 1_565 S
C254 H274 0.929 . S
C255 C252 1.463 . S
C255 C254 1.475 1_545 S
C256 C251 1.342 . S
C256 C254 1.285 1_545 S
C256 H275 0.930 . S
C257 C260 1.424 . S
C257 C262 1.245 . S
C257 C263 1.428 . S
C258 C261 1.260 . S
C258 C262 1.477 . S
C258 H276 0.932 . S
C259 C260 1.384 . S
C259 C261 1.479 . S
C259 H277 0.929 . S
C260 C257 1.424 . S
C260 C259 1.384 . S
C260 H278 0.928 . S
C261 C258 1.260 . S
C261 C259 1.479 . S
C262 C257 1.245 . S
C262 C258 1.477 . S
C262 H279 0.932 . S
C263 U246 2.882 . S
C263 C257 1.428 . S
C263 O266 1.301 . S
C263 O267 1.282 . S
O264 U246 2.441 . S
O264 C250 1.249 . S
O265 U246 2.420 . S
O265 C250 1.202 . S
O266 U246 2.455 . S
O266 C263 1.301 . S
O267 U246 2.449 . S
O267 C263 1.282 . S
H268 C241 0.931 . S
H269 C243 0.929 . S
H270 C244 0.921 1_565 S
H271 C245 0.931 . S
H272 C252 0.932 . S
H273 C253 0.930 . S
H274 C254 0.929 . S
H275 C256 0.930 . S
H276 C258 0.932 . S
H277 C259 0.929 . S
H278 C260 0.928 . S
H279 C262 0.932 . S
C280 C281 1.264 . S
C280 C285 1.479 . S
C280 C290 1.465 . S
C281 C280 1.264 . S
C281 C283 1.339 . S
C281 H308 0.931 . S
C282 C283 1.395 . S
C282 C284 1.320 . S
C283 C281 1.339 . S
C283 C282 1.395 . S
C283 H309 0.929 . S
C284 C282 1.320 . S
C284 C285 1.405 . S
C284 H310 0.930 1_554 S
C285 C280 1.479 . S
C285 C284 1.405 . S
C285 H311 0.931 . S
U286 O287 2.454 . S
U286 O288 2.458 . S
U286 C289 2.984 . S
U286 C290 2.847 . S
U286 C303 2.882 . S
U286 O304 2.441 . S
U286 O305 2.420 . S
U286 O306 2.455 . S
U286 O307 2.449 . S
O287 U286 2.454 . S
O287 C289 1.353 . S
O288 U286 2.458 . S
O288 C289 1.286 . S
C289 U286 2.984 . S
C289 O287 1.353 . S
C289 O288 1.286 . S
C289 C291 1.363 . S
C290 C280 1.465 . S
C290 U286 2.847 . S
C290 O304 1.249 . S
C290 O305 1.202 . S
C291 C289 1.363 . S
C291 C293 1.408 . S
C291 C296 1.342 . S
C292 C293 1.310 . S
C292 C295 1.461 . S
C292 H312 0.932 . S
C293 C291 1.408 . S
C293 C292 1.310 . S
C293 H313 0.930 . S
C294 C295 1.474 . S
C294 C296 1.285 . S
C294 H314 0.929 . S
C295 C292 1.461 . S
C295 C294 1.474 . S
C296 C291 1.342 . S
C296 C294 1.285 . S
C296 H315 0.930 . S
C297 C300 1.424 . S
C297 C302 1.245 . S
C297 C303 1.428 . S
C298 C301 1.260 . S
C298 C302 1.477 . S
C298 H316 0.932 . S
C299 C300 1.384 . S
C299 C301 1.479 . S
C299 H317 0.929 . S
C300 C297 1.424 . S
C300 C299 1.384 . S
C300 H318 0.928 . S
C301 C298 1.260 . S
C301 C299 1.479 . S
C302 C297 1.245 . S
C302 C298 1.477 . S
C302 H319 0.932 . S
C303 U286 2.882 . S
C303 C297 1.428 . S
C303 O306 1.301 . S
C303 O307 1.282 . S
O304 U286 2.441 . S
O304 C290 1.249 . S
O305 U286 2.420 . S
O305 C290 1.202 . S
O306 U286 2.455 . S
O306 C303 1.301 . S
O307 U286 2.449 . S
O307 C303 1.282 . S
H308 C281 0.931 . S
H309 C283 0.929 . S
H310 C284 0.930 1_556 S
H311 C285 0.931 . S
H312 C292 0.932 . S
H313 C293 0.930 . S
H314 C294 0.929 . S
H315 C296 0.930 . S
H316 C298 0.932 . S
H317 C299 0.929 . S
H318 C300 0.928 . S
H319 C302 0.932 . S
Dy320 O323 2.307 1_545 S
Dy320 O325 2.395 1_655 S
Dy320 O326 2.379 . S
Dy320 O328 2.339 . S
Dy320 O330 2.298 . S
Dy320 O334 2.275 1_655 S
Dy320 C342 2.738 . S
Dy321 O324 2.298 . S
Dy321 O327 2.275 1_455 S
Dy321 O329 2.307 1_565 S
Dy321 O331 2.390 1_455 S
Dy321 O332 2.379 . S
Dy321 O335 2.339 . S
Dy321 C351 2.738 . S
C322 O334 1.254 1_565 S
C322 O335 1.257 . S
O323 Dy320 2.307 1_565 S
O323 C333 1.266 . S
O324 Dy321 2.298 . S
O324 C333 1.236 1_455 S
O325 Dy320 2.395 1_455 S
O325 C342 1.255 1_455 S
O326 Dy320 2.379 . S
O326 C342 1.249 . S
O327 Dy321 2.275 1_655 S
O327 C343 1.254 1_565 S
O328 Dy320 2.339 . S
O328 C343 1.257 . S
O329 Dy321 2.307 1_545 S
O329 C344 1.266 . S
O330 Dy320 2.298 . S
O330 C344 1.236 1_655 S
O331 Dy321 2.390 1_655 S
O331 C351 1.245 1_655 S
O332 Dy321 2.379 . S
O332 C351 1.249 . S
C333 O323 1.266 . S
C333 O324 1.236 1_655 S
O334 Dy320 2.275 1_455 S
O334 C322 1.254 1_545 S
O335 Dy321 2.339 . S
O335 C322 1.257 . S
C336 C339 1.331 1_655 S
C336 C340 1.328 . S
C336 C342 1.516 . S
C337 C338 1.304 . S
C337 C341 1.323 . S
C338 C337 1.304 . S
C338 C339 1.370 1_655 S
C338 H352 0.930 1_655 S
C339 C336 1.331 1_455 S
C339 C338 1.370 1_455 S
C339 H353 0.946 . S
C340 C336 1.328 . S
C340 C341 1.433 . S
C340 H354 0.931 . S
C341 C337 1.323 . S
C341 C340 1.433 . S
C341 H355 0.933 . S
C342 Dy320 2.738 . S
C342 O325 1.255 1_655 S
C342 O326 1.249 . S
C342 C336 1.516 . S
C343 O327 1.254 1_545 S
C343 O328 1.257 . S
C344 O329 1.266 . S
C344 O330 1.236 1_455 S
C345 C348 1.344 . S
C345 C349 1.328 . S
C345 C351 1.516 . S
C346 C347 1.304 . S
C346 C350 1.323 . S
C347 C346 1.304 . S
C347 C348 1.371 1_554 S
C347 H356 0.930 1_455 S
C348 C345 1.344 . S
C348 C347 1.371 1_556 S
C348 H357 0.931 1_455 S
C349 C345 1.328 . S
C349 C350 1.433 1_556 S
C349 H358 0.931 . S
C350 C346 1.323 . S
C350 C349 1.433 1_554 S
C350 H359 0.933 . S
C351 Dy321 2.738 . S
C351 O331 1.245 1_455 S
C351 O332 1.249 . S
C351 C345 1.516 . S
H352 C338 0.930 1_455 S
H353 C339 0.946 . S
H354 C340 0.931 . S
H355 C341 0.933 . S
H356 C347 0.930 1_655 S
H357 C348 0.931 1_655 S
H358 C349 0.931 . S
H359 C350 0.933 . S
Dy360 O363 2.307 . S
Dy360 O365 2.395 1_565 S
Dy360 O366 2.379 . S
Dy360 O368 2.339 . S
Dy360 O370 2.298 . S
Dy360 O374 2.275 1_565 S
Dy360 C382 2.738 . S
Dy361 O364 2.298 . S
Dy361 O367 2.275 1_545 S
Dy361 O369 2.307 . S
Dy361 O371 2.395 1_545 S
Dy361 O372 2.379 . S
Dy361 O375 2.339 . S
Dy361 C391 2.738 . S
C362 O374 1.254 . S
C362 O375 1.257 . S
O363 Dy360 2.307 . S
O363 C373 1.266 . S
O364 Dy361 2.298 . S
O364 C373 1.236 1_545 S
O365 Dy360 2.395 1_545 S
O365 C382 1.255 1_545 S
O366 Dy360 2.379 . S
O366 C382 1.249 . S
O367 Dy361 2.275 1_565 S
O367 C383 1.254 . S
O368 Dy360 2.339 . S
O368 C383 1.257 . S
O369 Dy361 2.307 . S
O369 C384 1.266 . S
O370 Dy360 2.298 . S
O370 C384 1.236 1_565 S
O371 Dy361 2.395 1_565 S
O371 C391 1.255 1_565 S
O372 Dy361 2.379 . S
O372 C391 1.249 . S
C373 O363 1.266 . S
C373 O364 1.236 1_565 S
O374 Dy360 2.275 1_545 S
O374 C362 1.254 . S
O375 Dy361 2.339 . S
O375 C362 1.257 . S
C376 C379 1.344 . S
C376 C380 1.328 . S
C376 C382 1.516 . S
C377 C378 1.304 . S
C377 C381 1.323 . S
C378 C377 1.304 . S
C378 C379 1.371 . S
C378 H392 0.930 1_565 S
C379 C376 1.344 . S
C379 C378 1.371 . S
C379 H393 0.932 1_565 S
C380 C376 1.328 . S
C380 C381 1.433 . S
C380 H394 0.931 . S
C381 C377 1.323 . S
C381 C380 1.433 . S
C381 H395 0.933 . S
C382 Dy360 2.738 . S
C382 O365 1.255 1_565 S
C382 O366 1.249 . S
C382 C376 1.516 . S
C383 O367 1.254 . S
C383 O368 1.257 . S
C384 O369 1.266 . S
C384 O370 1.236 1_545 S
C385 C388 1.351 . S
C385 C389 1.328 . S
C385 C391 1.516 . S
C386 C387 1.304 1_554 S
C386 C390 1.323 . S
C387 C386 1.304 1_556 S
C387 C388 1.372 . S
C387 H396 0.930 1_545 S
C388 C385 1.351 . S
C388 C387 1.372 . S
C388 H397 0.923 1_545 S
C389 C385 1.328 . S
C389 C390 1.433 1_556 S
C389 H398 0.931 . S
C390 C386 1.323 . S
C390 C389 1.433 1_554 S
C390 H399 0.933 . S
C391 Dy361 2.738 . S
C391 O371 1.255 1_545 S
C391 O372 1.249 . S
C391 C385 1.516 . S
H392 C378 0.930 1_545 S
H393 C379 0.932 1_545 S
H394 C380 0.931 . S
H395 C381 0.933 . S
H396 C387 0.930 1_565 S
H397 C388 0.923 1_565 S
H398 C389 0.931 . S
H399 C390 0.933 . S
Dy400 O403 2.307 . S
Dy400 O405 2.395 . S
Dy400 O406 2.379 . S
Dy400 O408 2.339 . S
Dy400 O410 2.298 . S
Dy400 O414 2.275 . S
Dy400 C422 2.738 . S
Dy401 O404 2.298 . S
Dy401 O407 2.275 . S
Dy401 O409 2.307 . S
Dy401 O411 2.395 . S
Dy401 O412 2.379 . S
Dy401 O415 2.339 . S
Dy401 C431 2.738 . S
C402 O414 1.254 . S
C402 O415 1.257 . S
O403 Dy400 2.307 . S
O403 C413 1.266 . S
O404 Dy401 2.298 . S
O404 C413 1.236 . S
O405 Dy400 2.395 . S
O405 C422 1.255 . S
O406 Dy400 2.379 . S
O406 C422 1.249 . S
O407 Dy401 2.275 . S
O407 C423 1.254 . S
O408 Dy400 2.339 . S
O408 C423 1.257 . S
O409 Dy401 2.307 . S
O409 C424 1.266 . S
O410 Dy400 2.298 . S
O410 C424 1.236 . S
O411 Dy401 2.395 . S
O411 C431 1.255 . S
O412 Dy401 2.379 . S
O412 C431 1.249 . S
C413 O403 1.266 . S
C413 O404 1.236 . S
O414 Dy400 2.275 . S
O414 C402 1.254 . S
O415 Dy401 2.339 . S
O415 C402 1.257 . S
C416 C419 1.344 . S
C416 C420 1.328 . S
C416 C422 1.516 . S
C417 C418 1.304 1_556 S
C417 C421 1.323 . S
C418 C417 1.304 1_554 S
C418 C419 1.371 1_554 S
C418 H432 0.930 . S
C419 C416 1.344 . S
C419 C418 1.371 1_556 S
C419 H433 0.931 1_556 S
C420 C416 1.328 . S
C420 C421 1.433 . S
C420 H434 0.931 . S
C421 C417 1.323 . S
C421 C420 1.433 . S
C421 H435 0.933 . S
C422 Dy400 2.738 . S
C422 O405 1.255 . S
C422 O406 1.249 . S
C422 C416 1.516 . S
C423 O407 1.254 . S
C423 O408 1.257 . S
C424 O409 1.266 . S
C424 O410 1.236 . S
C425 C428 1.344 . S
C425 C429 1.328 . S
C425 C431 1.516 . S
C426 C427 1.304 . S
C426 C430 1.323 . S
C427 C426 1.304 . S
C427 C428 1.371 . S
C427 H436 0.930 . S
C428 C425 1.344 . S
C428 C427 1.371 . S
C428 H437 0.931 . S
C429 C425 1.328 . S
C429 C430 1.433 . S
C429 H438 0.931 . S
C430 C426 1.323 . S
C430 C429 1.433 . S
C430 H439 0.933 . S
C431 Dy401 2.738 . S
C431 O411 1.255 . S
C431 O412 1.249 . S
C431 C425 1.516 . S
H432 C418 0.930 . S
H433 C419 0.931 1_554 S
H434 C420 0.931 . S
H435 C421 0.933 . S
H436 C427 0.930 . S
H437 C428 0.931 . S
H438 C429 0.931 . S
H439 C430 0.933 . S
Dy440 O443 2.307 1_455 S
Dy440 O445 2.395 . S
Dy440 O446 2.379 . S
Dy440 O448 2.339 . S
Dy440 O450 2.298 . S
Dy440 O454 2.275 . S
Dy440 C462 2.738 . S
Dy441 O444 2.298 . S
Dy441 O447 2.275 . S
Dy441 O449 2.307 1_655 S
Dy441 O451 2.395 . S
Dy441 O452 2.379 . S
Dy441 O455 2.339 . S
Dy441 C471 2.738 . S
C442 O454 1.241 1_655 S
C442 O455 1.274 . S
O443 Dy440 2.307 1_655 S
O443 C453 1.266 . S
O444 Dy441 2.298 . S
O444 C453 1.236 . S
O445 Dy440 2.395 . S
O445 C462 1.255 . S
O446 Dy440 2.379 . S
O446 C462 1.249 . S
O447 Dy441 2.275 . S
O447 C463 1.254 1_655 S
O448 Dy440 2.339 . S
O448 C463 1.257 . S
O449 Dy441 2.307 1_455 S
O449 C464 1.266 . S
O450 Dy440 2.298 . S
O450 C464 1.236 . S
O451 Dy441 2.395 . S
O451 C471 1.255 . S
O452 Dy441 2.379 . S
O452 C471 1.249 . S
C453 O443 1.266 . S
C453 O444 1.236 . S
O454 Dy440 2.275 . S
O454 C442 1.241 1_455 S
O455 Dy441 2.339 . S
O455 C442 1.274 . S
C456 C459 1.344 . S
C456 C460 1.328 . S
C456 C462 1.516 . S
C457 C458 1.304 . S
C457 C461 1.323 . S
C458 C457 1.304 . S
C458 C459 1.371 . S
C458 H472 0.930 . S
C459 C456 1.344 . S
C459 C458 1.371 . S
C459 H473 0.931 . S
C460 C456 1.328 . S
C460 C461 1.433 . S
C460 H474 0.931 . S
C461 C457 1.323 . S
C461 C460 1.433 . S
C461 H475 0.933 . S
C462 Dy440 2.738 . S
C462 O445 1.255 . S
C462 O446 1.249 . S
C462 C456 1.516 . S
C463 O447 1.254 1_455 S
C463 O448 1.257 . S
C464 O449 1.266 . S
C464 O450 1.236 . S
C465 C468 1.344 1_556 S
C465 C469 1.328 1_556 S
C465 C471 1.516 . S
C466 C467 1.304 . S
C466 C470 1.323 . S
C467 C466 1.304 . S
C467 C468 1.371 . S
C467 H476 0.930 . S
C468 C465 1.344 1_554 S
C468 C467 1.371 . S
C468 H477 0.931 . S
C469 C465 1.328 1_554 S
C469 C470 1.433 . S
C469 H478 0.931 1_554 S
C470 C466 1.323 . S
C470 C469 1.433 . S
C470 H479 0.933 . S
C471 Dy441 2.738 . S
C471 O451 1.255 . S
C471 O452 1.249 . S
C471 C465 1.516 . S
H472 C458 0.930 . S
H473 C459 0.931 . S
H474 C460 0.931 . S
H475 C461 0.933 . S
H476 C467 0.930 . S
H477 C468 0.931 . S
H478 C469 0.931 1_556 S
H479 C470 0.933 . S
C480 C481 1.374 1_565 S
C480 H484 0.950 . S
C480 C489 1.390 . S
C481 C480 1.374 1_545 S
C481 C483 1.400 . S
H482 C489 0.950 . S
C483 C481 1.400 . S
C483 C485 1.390 . S
C483 H487 0.950 . S
H484 C480 0.950 . S
C485 C483 1.390 . S
C485 C486 1.421 . S
C485 H488 0.950 . S
C486 C485 1.421 . S
C486 C489 1.357 1_545 S
H487 C483 0.950 . S
H488 C485 0.950 . S
C489 C480 1.390 . S
C489 H482 0.950 . S
C489 C486 1.357 1_565 S
C490 C491 1.387 . S
C490 H494 0.950 . S
C490 C499 1.390 . S
C491 C490 1.387 . S
C491 C493 1.387 . S
H492 C499 0.950 . S
C493 C491 1.387 . S
C493 C495 1.390 . S
C493 H497 0.950 . S
H494 C490 0.950 . S
C495 C493 1.390 . S
C495 C496 1.387 . S
C495 H498 0.950 . S
C496 C495 1.387 . S
C496 C499 1.387 . S
H497 C493 0.950 . S
H498 C495 0.950 . S
C499 C490 1.390 . S
C499 H492 0.950 . S
C499 C496 1.387 . S
C500 C501 1.387 . S
C500 H504 0.950 . S
C500 C509 1.390 . S
C501 C500 1.387 . S
C501 C503 1.387 . S
H502 C509 0.950 . S
C503 C501 1.387 . S
C503 C505 1.390 . S
C503 H507 0.950 . S
H504 C500 0.950 . S
C505 C503 1.390 . S
C505 C506 1.387 . S
C505 H508 0.950 . S
C506 C505 1.387 . S
C506 C509 1.387 . S
H507 C503 0.950 . S
H508 C505 0.950 . S
C509 C500 1.390 . S
C509 H502 0.950 . S
C509 C506 1.387 . S
C510 C511 1.386 1_655 S
C510 H514 0.953 . S
C510 C519 1.388 . S
C511 C510 1.386 1_455 S
C511 C513 1.387 . S
H512 C519 0.949 . S
C513 C511 1.387 . S
C513 C515 1.390 . S
C513 H517 0.950 . S
H514 C510 0.953 . S
C515 C513 1.390 . S
C515 C516 1.387 . S
C515 H518 0.950 . S
C516 C515 1.387 . S
C516 C519 1.389 1_455 S
H517 C513 0.950 . S
H518 C515 0.950 . S
C519 C510 1.388 . S
C519 H512 0.949 . S
C519 C516 1.389 1_655 S
C520 C521 1.392 . S
C520 H524 0.950 . S
C520 C529 1.390 1_554 S
C521 C520 1.392 . S
C521 C523 1.382 1_565 S
H522 C529 0.950 . S
C523 C521 1.382 1_545 S
C523 C525 1.390 1_554 S
C523 H527 0.950 . S
H524 C520 0.950 . S
C525 C523 1.390 1_556 S
C525 C526 1.365 1_545 S
C525 H528 0.950 . S
C526 C525 1.365 1_565 S
C526 C529 1.412 . S
H527 C523 0.950 . S
H528 C525 0.950 . S
C529 C520 1.390 1_556 S
C529 H522 0.950 . S
C529 C526 1.412 . S
C530 C531 1.387 . S
C530 H534 0.950 . S
C530 C539 1.390 . S
C531 C530 1.387 . S
C531 C533 1.387 1_556 S
H532 C539 0.950 . S
C533 C531 1.387 1_554 S
C533 C535 1.390 1_554 S
C533 H537 0.950 . S
H534 C530 0.950 . S
C535 C533 1.390 1_556 S
C535 C536 1.387 . S
C535 H538 0.950 . S
C536 C535 1.387 . S
C536 C539 1.387 . S
H537 C533 0.950 . S
H538 C535 0.950 . S
C539 C530 1.390 . S
C539 H532 0.950 . S
C539 C536 1.387 . S
C540 C541 1.387 . S
C540 H544 0.950 . S
C540 C549 1.390 . S
C541 C540 1.387 . S
C541 C543 1.387 . S
H542 C549 0.950 . S
C543 C541 1.387 . S
C543 C545 1.390 . S
C543 H547 0.950 . S
H544 C540 0.950 . S
C545 C543 1.390 . S
C545 C546 1.387 . S
C545 H548 0.950 . S
C546 C545 1.387 . S
C546 C549 1.387 . S
H547 C543 0.950 . S
H548 C545 0.950 . S
C549 C540 1.390 . S
C549 H542 0.950 . S
C549 C546 1.387 . S
C550 C551 1.391 . S
C550 H554 0.950 . S
C550 C559 1.390 . S
C551 C550 1.391 . S
C551 C553 1.386 1_655 S
H552 C559 0.950 . S
C553 C551 1.386 1_455 S
C553 C555 1.390 . S
C553 H557 0.950 . S
H554 C550 0.950 . S
C555 C553 1.390 . S
C555 C556 1.377 1_455 S
C555 H558 0.950 . S
C556 C555 1.377 1_655 S
C556 C559 1.394 . S
H557 C553 0.950 . S
H558 C555 0.950 . S
C559 C550 1.390 . S
C559 H552 0.950 . S
C559 C556 1.394 . S
C560 C561 1.387 1_655 S
C560 H564 0.950 1_655 S
C560 C569 1.390 . S
C561 C560 1.387 1_455 S
C561 C563 1.387 1_455 S
H562 C569 0.950 . S
C563 C561 1.387 1_655 S
C563 C565 1.390 . S
C563 H567 0.950 1_655 S
H564 C560 0.950 1_455 S
C565 C563 1.390 . S
C565 C566 1.387 . S
C565 H568 0.950 . S
C566 C565 1.387 . S
C566 C569 1.387 . S
H567 C563 0.950 1_455 S
H568 C565 0.950 . S
C569 C560 1.390 . S
C569 H562 0.950 . S
C569 C566 1.387 . S
C570 C571 1.387 . S
C570 H574 0.950 . S
C570 C579 1.390 . S
C571 C570 1.387 . S
C571 C573 1.387 . S
H572 C579 0.950 . S
C573 C571 1.387 . S
C573 C575 1.390 . S
C573 H577 0.950 . S
H574 C570 0.950 . S
C575 C573 1.390 . S
C575 C576 1.387 . S
C575 H578 0.950 . S
C576 C575 1.387 . S
C576 C579 1.387 . S
H577 C573 0.950 . S
H578 C575 0.950 . S
C579 C570 1.390 . S
C579 H572 0.950 . S
C579 C576 1.387 . S
C580 C581 1.387 . S
C580 H584 0.950 . S
C580 C589 1.390 . S
C581 C580 1.387 . S
C581 C583 1.387 . S
H582 C589 0.950 . S
C583 C581 1.387 . S
C583 C585 1.390 . S
C583 H587 0.950 . S
H584 C580 0.950 . S
C585 C583 1.390 . S
C585 C586 1.387 . S
C585 H588 0.950 . S
C586 C585 1.387 . S
C586 C589 1.387 . S
H587 C583 0.950 . S
H588 C585 0.950 . S
C589 C580 1.390 . S
C589 H582 0.950 . S
C589 C586 1.387 . S
C590 C591 1.387 . S
C590 H594 0.950 . S
C590 C599 1.390 . S
C591 C590 1.387 . S
C591 C593 1.387 . S
H592 C599 0.950 . S
C593 C591 1.387 . S
C593 C595 1.390 . S
C593 H597 0.950 . S
H594 C590 0.950 . S
C595 C593 1.390 . S
C595 C596 1.387 . S
C595 H598 0.950 . S
C596 C595 1.387 . S
C596 C599 1.387 . S
H597 C593 0.950 . S
H598 C595 0.950 . S
C599 C590 1.390 . S
C599 H592 0.950 . S
C599 C596 1.387 . S
C600 C601 1.387 1_455 S
C600 H604 0.950 1_455 S
C600 C609 1.390 . S
C601 C600 1.387 1_655 S
C601 C603 1.387 1_655 S
H602 C609 0.950 . S
C603 C601 1.387 1_455 S
C603 C605 1.390 . S
C603 H607 0.950 1_554 S
H604 C600 0.950 1_655 S
C605 C603 1.390 . S
C605 C606 1.387 . S
C605 H608 0.950 1_554 S
C606 C605 1.387 . S
C606 C609 1.387 . S
H607 C603 0.950 1_556 S
H608 C605 0.950 1_556 S
C609 C600 1.390 . S
C609 H602 0.950 . S
C609 C606 1.387 . S
C610 C611 1.387 . S
C610 H614 0.950 . S
C610 C619 1.390 . S
C611 C610 1.387 . S
C611 C613 1.387 1_554 S
H612 C619 0.950 . S
C613 C611 1.387 1_556 S
C613 C615 1.390 . S
C613 H617 0.950 . S
H614 C610 0.950 . S
C615 C613 1.390 . S
C615 C616 1.387 1_556 S
C615 H618 0.950 . S
C616 C615 1.387 1_554 S
C616 C619 1.387 . S
H617 C613 0.950 . S
H618 C615 0.950 . S
C619 C610 1.390 . S
C619 H612 0.950 . S
C619 C616 1.387 . S
C620 C621 1.387 . S
C620 H624 0.950 . S
C620 C629 1.390 . S
C621 C620 1.387 . S
C621 C623 1.387 . S
H622 C629 0.950 . S
C623 C621 1.387 . S
C623 C625 1.390 . S
C623 H627 0.950 . S
H624 C620 0.950 . S
C625 C623 1.390 . S
C625 C626 1.387 . S
C625 H628 0.950 . S
C626 C625 1.387 . S
C626 C629 1.387 . S
H627 C623 0.950 . S
H628 C625 0.950 . S
C629 C620 1.390 . S
C629 H622 0.950 . S
C629 C626 1.387 . S
C630 C631 1.387 . S
C630 H634 0.950 . S
C630 C639 1.390 . S
C631 C630 1.387 . S
C631 C633 1.387 . S
H632 C639 0.950 . S
C633 C631 1.387 . S
C633 C635 1.390 . S
C633 H637 0.950 . S
H634 C630 0.950 . S
C635 C633 1.390 . S
C635 C636 1.387 . S
C635 H638 0.950 . S
C636 C635 1.387 . S
C636 C639 1.387 . S
H637 C633 0.950 . S
H638 C635 0.950 . S
C639 C630 1.390 . S
C639 H632 0.950 . S
C639 C636 1.387 . S
C640 C641 1.387 . S
C640 H644 0.950 . S
C640 C649 1.390 . S
C641 C640 1.387 . S
C641 C643 1.387 1_455 S
H642 C649 0.950 . S
C643 C641 1.387 1_655 S
C643 C645 1.390 . S
C643 H647 0.950 . S
H644 C640 0.950 . S
C645 C643 1.390 . S
C645 C646 1.387 1_655 S
C645 H648 0.950 . S
C646 C645 1.387 1_455 S
C646 C649 1.387 . S
H647 C643 0.950 . S
H648 C645 0.950 . S
C649 C640 1.390 . S
C649 H642 0.950 . S
C649 C646 1.387 . S
C650 C651 1.387 1_565 S
C650 H654 0.950 . S
C650 C659 1.390 . S
C651 C650 1.387 1_545 S
C651 C653 1.387 . S
H652 C659 0.950 . S
C653 C651 1.387 . S
C653 C655 1.390 . S
C653 H657 0.950 . S
H654 C650 0.950 . S
C655 C653 1.390 . S
C655 C656 1.387 . S
C655 H658 0.950 . S
C656 C655 1.387 . S
C656 C659 1.387 1_545 S
H657 C653 0.950 . S
H658 C655 0.950 . S
C659 C650 1.390 . S
C659 H652 0.950 . S
C659 C656 1.387 1_565 S
C660 C661 1.387 1_554 S
C660 H664 0.950 . S
C660 C669 1.390 . S
C661 C660 1.387 1_556 S
C661 C663 1.387 . S
H662 C669 0.950 . S
C663 C661 1.387 . S
C663 C665 1.390 . S
C663 H667 0.950 . S
H664 C660 0.950 . S
C665 C663 1.390 . S
C665 C666 1.387 . S
C665 H668 0.950 . S
C666 C665 1.387 . S
C666 C669 1.387 1_556 S
H667 C663 0.950 . S
H668 C665 0.950 . S
C669 C660 1.390 . S
C669 H662 0.950 . S
C669 C666 1.387 1_554 S
C670 C671 1.387 . S
C670 H674 0.950 . S
C670 C679 1.390 . S
C671 C670 1.387 . S
C671 C673 1.387 . S
H672 C679 0.950 . S
C673 C671 1.387 . S
C673 C675 1.390 . S
C673 H677 0.950 . S
H674 C670 0.950 . S
C675 C673 1.390 . S
C675 C676 1.387 . S
C675 H678 0.950 . S
C676 C675 1.387 . S
C676 C679 1.387 . S
H677 C673 0.950 . S
H678 C675 0.950 . S
C679 C670 1.390 . S
C679 H672 0.950 . S
C679 C676 1.387 . S
C680 C681 1.387 . S
C680 H684 0.950 . S
C680 C689 1.390 . S
C681 C680 1.387 . S
C681 C683 1.387 1_655 S
H682 C689 0.950 . S
C683 C681 1.387 1_455 S
C683 C685 1.390 . S
C683 H687 0.950 . S
H684 C680 0.950 . S
C685 C683 1.390 . S
C685 C686 1.387 1_455 S
C685 H688 0.950 . S
C686 C685 1.387 1_655 S
C686 C689 1.387 . S
H687 C683 0.950 . S
H688 C685 0.950 . S
C689 C680 1.390 . S
C689 H682 0.950 . S
C689 C686 1.387 . S
C690 C691 1.387 1_545 S
C690 H694 0.950 . S
C690 C699 1.390 . S
C691 C690 1.387 1_565 S
C691 C693 1.387 . S
H692 C699 0.950 . S
C693 C691 1.387 . S
C693 C695 1.390 . S
C693 H697 0.950 . S
H694 C690 0.950 . S
C695 C693 1.390 . S
C695 C696 1.387 . S
C695 H698 0.950 . S
C696 C695 1.387 . S
C696 C699 1.387 1_565 S
H697 C693 0.950 . S
H698 C695 0.950 . S
C699 C690 1.390 . S
C699 H692 0.950 . S
C699 C696 1.387 1_545 S
C700 C701 1.387 . S
C700 H704 0.950 . S
C700 C709 1.390 . S
C701 C700 1.387 . S
C701 C703 1.387 . S
H702 C709 0.950 . S
C703 C701 1.387 . S
C703 C705 1.390 . S
C703 H707 0.950 . S
H704 C700 0.950 . S
C705 C703 1.390 . S
C705 C706 1.387 . S
C705 H708 0.950 . S
C706 C705 1.387 . S
C706 C709 1.387 . S
H707 C703 0.950 . S
H708 C705 0.950 . S
C709 C700 1.390 . S
C709 H702 0.950 . S
C709 C706 1.387 . S
C710 C711 1.387 . S
C710 H714 0.950 . S
C710 C719 1.390 . S
C711 C710 1.387 . S
C711 C713 1.387 . S
H712 C719 0.950 . S
C713 C711 1.387 . S
C713 C715 1.390 . S
C713 H717 0.950 . S
H714 C710 0.950 . S
C715 C713 1.390 . S
C715 C716 1.387 . S
C715 H718 0.950 . S
C716 C715 1.387 . S
C716 C719 1.387 . S
H717 C713 0.950 . S
H718 C715 0.950 . S
C719 C710 1.390 . S
C719 H712 0.950 . S
C719 C716 1.387 . S
C481 C255 2.382 . S
C486 C322 2.559 1_545 S
C496 C362 2.351 . S
C491 C295 2.221 . S
C506 C426 3.095 . S
C501 C175 2.968 . S
C516 C442 2.966 1_455 S
C511 C215 2.606 . S
C526 C343 2.560 1_565 S
C521 C95 2.384 1_565 S
C531 C135 2.219 1_556 S
C536 C383 2.354 . S
C541 C15 2.962 . S
C546 C417 3.095 1_554 S
C551 C55 2.605 1_655 S
C556 C463 2.965 1_654 S
C566 C337 0.664 . S
C561 C221 0.606 . S
C576 C377 0.868 . S
C571 C261 0.884 1_565 S
C586 C413 0.912 . S
C581 C301 0.974 . S
C591 C181 1.224 . S
C596 C457 1.037 . S
C601 C61 0.685 1_655 S
C606 C346 0.678 . S
C616 C386 0.874 . S
C611 C101 0.851 . S
C626 C424 0.907 . S
C621 C141 0.862 . S
C631 C21 1.029 . S
C636 C466 1.034 . S
C641 C202 3.263 . S
C646 C344 3.665 . S
C651 C242 3.089 . S
C656 C384 3.445 . S
C666 C402 2.341 . S
C661 C282 2.352 1_556 S
C676 C464 4.177 . S
C671 C162 3.738 . S
C681 C42 3.278 1_655 S
C686 C333 3.673 . S
C696 C373 3.446 . S
C691 C82 3.108 1_565 S
C706 C423 2.341 . S
C701 C122 2.284 . S
C711 C2 3.697 . S
C716 C453 4.178 . S
