# Generated by pormake.
# Topology ocu, (6,8)-cn, num edge types: 1
# Building blocks:
#     Node 0, Type 0, BuildingBlock: JUFBIX_clean_sbu_0, # of connection points: 6
#     Node 1, Type 0, BuildingBlock: JUFBIX_clean_sbu_0, # of connection points: 6
#     Node 2, Type 0, BuildingBlock: JUFBIX_clean_sbu_0, # of connection points: 6
#     Node 3, Type 0, BuildingBlock: JUFBIX_clean_sbu_0, # of connection points: 6
#     Node 4, Type 0, BuildingBlock: JUFBIX_clean_sbu_0, # of connection points: 6
#     Node 5, Type 0, BuildingBlock: JUFBIX_clean_sbu_0, # of connection points: 6
#     Node 6, Type 0, BuildingBlock: JUFBIX_clean_sbu_0, # of connection points: 6
#     Node 7, Type 0, BuildingBlock: JUFBIX_clean_sbu_0, # of connection points: 6
#     Node 8, Type 1, BuildingBlock: VETTIZ_charged_sbu_0, # of connection points: 8
#     Node 9, Type 1, BuildingBlock: VETTIZ_charged_sbu_0, # of connection points: 8
#     Node 10, Type 1, BuildingBlock: VETTIZ_charged_sbu_0, # of connection points: 8
#     Node 11, Type 1, BuildingBlock: VETTIZ_charged_sbu_0, # of connection points: 8
#     Node 12, Type 1, BuildingBlock: VETTIZ_charged_sbu_0, # of connection points: 8
#     Node 13, Type 1, BuildingBlock: VETTIZ_charged_sbu_0, # of connection points: 8
#     Edge 14, Type (0, 1), BuildingBlock: CIFDUS_clean_linker_0, # of connection points: 2
#     Edge 15, Type (0, 1), BuildingBlock: CIFDUS_clean_linker_0, # of connection points: 2
#     Edge 16, Type (0, 1), BuildingBlock: CIFDUS_clean_linker_0, # of connection points: 2
#     Edge 17, Type (0, 1), BuildingBlock: CIFDUS_clean_linker_0, # of connection points: 2
#     Edge 18, Type (0, 1), BuildingBlock: CIFDUS_clean_linker_0, # of connection points: 2
#     Edge 19, Type (0, 1), BuildingBlock: CIFDUS_clean_linker_0, # of connection points: 2
#     Edge 20, Type (0, 1), BuildingBlock: CIFDUS_clean_linker_0, # of connection points: 2
#     Edge 21, Type (0, 1), BuildingBlock: CIFDUS_clean_linker_0, # of connection points: 2
#     Edge 22, Type (0, 1), BuildingBlock: CIFDUS_clean_linker_0, # of connection points: 2
#     Edge 23, Type (0, 1), BuildingBlock: CIFDUS_clean_linker_0, # of connection points: 2
#     Edge 24, Type (0, 1), BuildingBlock: CIFDUS_clean_linker_0, # of connection points: 2
#     Edge 25, Type (0, 1), BuildingBlock: CIFDUS_clean_linker_0, # of connection points: 2
#     Edge 26, Type (0, 1), BuildingBlock: CIFDUS_clean_linker_0, # of connection points: 2
#     Edge 27, Type (0, 1), BuildingBlock: CIFDUS_clean_linker_0, # of connection points: 2
#     Edge 28, Type (0, 1), BuildingBlock: CIFDUS_clean_linker_0, # of connection points: 2
#     Edge 29, Type (0, 1), BuildingBlock: CIFDUS_clean_linker_0, # of connection points: 2
#     Edge 30, Type (0, 1), BuildingBlock: CIFDUS_clean_linker_0, # of connection points: 2
#     Edge 31, Type (0, 1), BuildingBlock: CIFDUS_clean_linker_0, # of connection points: 2
#     Edge 32, Type (0, 1), BuildingBlock: CIFDUS_clean_linker_0, # of connection points: 2
#     Edge 33, Type (0, 1), BuildingBlock: CIFDUS_clean_linker_0, # of connection points: 2
#     Edge 34, Type (0, 1), BuildingBlock: CIFDUS_clean_linker_0, # of connection points: 2
#     Edge 35, Type (0, 1), BuildingBlock: CIFDUS_clean_linker_0, # of connection points: 2
#     Edge 36, Type (0, 1), BuildingBlock: CIFDUS_clean_linker_0, # of connection points: 2
#     Edge 37, Type (0, 1), BuildingBlock: CIFDUS_clean_linker_0, # of connection points: 2
#     Edge 38, Type (0, 1), BuildingBlock: CIFDUS_clean_linker_0, # of connection points: 2
#     Edge 39, Type (0, 1), BuildingBlock: CIFDUS_clean_linker_0, # of connection points: 2
#     Edge 40, Type (0, 1), BuildingBlock: CIFDUS_clean_linker_0, # of connection points: 2
#     Edge 41, Type (0, 1), BuildingBlock: CIFDUS_clean_linker_0, # of connection points: 2
#     Edge 42, Type (0, 1), BuildingBlock: CIFDUS_clean_linker_0, # of connection points: 2
#     Edge 43, Type (0, 1), BuildingBlock: CIFDUS_clean_linker_0, # of connection points: 2
#     Edge 44, Type (0, 1), BuildingBlock: CIFDUS_clean_linker_0, # of connection points: 2
#     Edge 45, Type (0, 1), BuildingBlock: CIFDUS_clean_linker_0, # of connection points: 2
#     Edge 46, Type (0, 1), BuildingBlock: CIFDUS_clean_linker_0, # of connection points: 2
#     Edge 47, Type (0, 1), BuildingBlock: CIFDUS_clean_linker_0, # of connection points: 2
#     Edge 48, Type (0, 1), BuildingBlock: CIFDUS_clean_linker_0, # of connection points: 2
#     Edge 49, Type (0, 1), BuildingBlock: CIFDUS_clean_linker_0, # of connection points: 2
#     Edge 50, Type (0, 1), BuildingBlock: CIFDUS_clean_linker_0, # of connection points: 2
#     Edge 51, Type (0, 1), BuildingBlock: CIFDUS_clean_linker_0, # of connection points: 2
#     Edge 52, Type (0, 1), BuildingBlock: CIFDUS_clean_linker_0, # of connection points: 2
#     Edge 53, Type (0, 1), BuildingBlock: CIFDUS_clean_linker_0, # of connection points: 2
#     Edge 54, Type (0, 1), BuildingBlock: CIFDUS_clean_linker_0, # of connection points: 2
#     Edge 55, Type (0, 1), BuildingBlock: CIFDUS_clean_linker_0, # of connection points: 2
#     Edge 56, Type (0, 1), BuildingBlock: CIFDUS_clean_linker_0, # of connection points: 2
#     Edge 57, Type (0, 1), BuildingBlock: CIFDUS_clean_linker_0, # of connection points: 2
#     Edge 58, Type (0, 1), BuildingBlock: CIFDUS_clean_linker_0, # of connection points: 2
#     Edge 59, Type (0, 1), BuildingBlock: CIFDUS_clean_linker_0, # of connection points: 2
#     Edge 60, Type (0, 1), BuildingBlock: CIFDUS_clean_linker_0, # of connection points: 2
#     Edge 61, Type (0, 1), BuildingBlock: CIFDUS_clean_linker_0, # of connection points: 2
# Relax obj value: 0.170
# Max RMSD: 0.271
# Mean RMSD: 0.152
data_MOF--net-ocu--node1-JUFBIX_clean_sbu_0--node2-VETTIZ_charged_sbu_0--edge1-CIFDUS_clean_linker_0
_symmetry_space_group_name_H-M    P1
_symmetry_Int_Tables_number       1
_symmetry_cell_setting            triclinic
loop_
_symmetry_equiv_pos_as_xyz
'x, y, z'
_cell_length_a     32.670089
_cell_length_b     33.840984
_cell_length_c     33.243758
_cell_angle_alpha  93.343653
_cell_angle_beta   92.351013
_cell_angle_gamma 89.077336
loop_
_atom_site_label
_atom_site_type_symbol
_atom_site_fract_x
_atom_site_fract_y
_atom_site_fract_z
_atom_type_partial_charge
Co0 Co 0.25987 0.25511 0.27347 0.0
C1 C 0.24473 0.31303 0.33452 0.0
Co2 Co 0.30892 0.29855 0.28503 0.0
C3 C 0.22307 0.17955 0.27959 0.0
C4 C 0.17945 0.22296 0.2604 0.0
N5 N 0.2198 0.21689 0.26758 0.0
N6 N 0.18623 0.16269 0.28302 0.0
C7 C 0.15882 0.18989 0.26976 0.0
H8 H 0.2519 0.1665 0.28916 0.0
H9 H 0.16556 0.25099 0.25302 0.0
C10 C 0.32644 0.24085 0.22559 0.0
N11 N 0.34861 0.33699 0.29147 0.0
C12 C 0.35799 0.36152 0.26294 0.0
C13 C 0.37417 0.34713 0.32331 0.0
N14 N 0.38775 0.38668 0.27557 0.0
C15 C 0.39885 0.37764 0.31332 0.0
C16 C 0.32097 0.2356 0.33205 0.0
O17 O 0.2921 0.22658 0.23382 0.0
O18 O 0.33815 0.27304 0.24357 0.0
O19 O 0.33814 0.26719 0.32325 0.0
O20 O 0.28693 0.22653 0.31452 0.0
O21 O 0.28029 0.32382 0.32648 0.0
H22 H 0.37505 0.33315 0.35177 0.0
H23 H 0.34406 0.36046 0.2328 0.0
O24 O 0.22859 0.28389 0.31401 0.0
O25 O 0.23273 0.28424 0.2323 0.0
O26 O 0.27868 0.32966 0.24638 0.0
C27 C 0.24667 0.31806 0.22621 0.0
H28 H 0.12588 0.18837 0.27103 0.0
H29 H 0.4228 0.39195 0.33205 0.0
Co30 Co 0.79932 0.2633 0.2566 0.0
C31 C 0.81747 0.31848 0.32245 0.0
Co32 Co 0.75304 0.26957 0.30176 0.0
C33 C 0.85798 0.29343 0.20768 0.0
C34 C 0.86223 0.23026 0.20553 0.0
N35 N 0.83988 0.2613 0.22016 0.0
N36 N 0.89152 0.28417 0.18669 0.0
C37 C 0.89411 0.2443 0.1847 0.0
H38 H 0.84701 0.32323 0.21485 0.0
H39 H 0.85682 0.19967 0.21121 0.0
C40 C 0.73345 0.21524 0.23544 0.0
N41 N 0.7136 0.27219 0.33884 0.0
C42 C 0.69581 0.23978 0.35045 0.0
C43 C 0.69805 0.30243 0.36206 0.0
N44 N 0.66963 0.24795 0.37988 0.0
C45 C 0.67088 0.28738 0.38786 0.0
C46 C 0.73719 0.3199 0.24074 0.0
O47 O 0.76945 0.2225 0.22481 0.0
O48 O 0.72104 0.23242 0.26789 0.0
O49 O 0.72628 0.31099 0.2752 0.0
O50 O 0.76905 0.30296 0.22641 0.0
O51 O 0.78403 0.30649 0.33496 0.0
H52 H 0.70667 0.33307 0.36098 0.0
H53 H 0.70344 0.21023 0.33858 0.0
O54 O 0.8292 0.30447 0.2884 0.0
O55 O 0.8289 0.22389 0.28665 0.0
O56 O 0.7796 0.22713 0.32913 0.0
C57 C 0.81344 0.21202 0.31817 0.0
H58 H 0.91803 0.22663 0.17057 0.0
H59 H 0.65383 0.30383 0.41069 0.0
Co60 Co 0.76812 0.74936 0.28883 0.0
C61 C 0.83541 0.79534 0.30823 0.0
Co62 Co 0.77894 0.79176 0.24346 0.0
C63 C 0.78817 0.68351 0.3331 0.0
C64 C 0.72578 0.70019 0.34223 0.0
N65 N 0.75959 0.71049 0.32345 0.0
N66 N 0.77385 0.65628 0.35649 0.0
C67 C 0.73474 0.66684 0.36325 0.0
H68 H 0.81949 0.68426 0.32374 0.0
H69 H 0.69662 0.71572 0.34054 0.0
C70 C 0.71346 0.74385 0.22254 0.0
N71 N 0.7875 0.83093 0.20876 0.0
C72 C 0.75937 0.8575 0.19651 0.0
C73 C 0.82306 0.8425 0.19415 0.0
N74 N 0.77582 0.88568 0.17541 0.0
C75 C 0.81589 0.87614 0.17331 0.0
C76 C 0.82159 0.72174 0.22602 0.0
O77 O 0.72194 0.73162 0.25731 0.0
O78 O 0.73476 0.7713 0.20978 0.0
O79 O 0.81676 0.75663 0.2141 0.0
O80 O 0.80246 0.71277 0.25679 0.0
O81 O 0.82303 0.81117 0.27624 0.0
H82 H 0.85245 0.82811 0.19936 0.0
H83 H 0.72728 0.85618 0.20317 0.0
O84 O 0.81538 0.76687 0.32061 0.0
O85 O 0.73395 0.78547 0.32034 0.0
O86 O 0.7407 0.82713 0.27341 0.0
C87 C 0.7251 0.81893 0.3065 0.0
H88 H 0.71435 0.65159 0.38179 0.0
H89 H 0.83846 0.89274 0.15866 0.0
Co90 Co 0.23408 0.81743 0.25897 0.0
C91 C 0.29204 0.82666 0.32226 0.0
Co92 Co 0.2766 0.76738 0.2637 0.0
C93 C 0.19313 0.89101 0.2785 0.0
C94 C 0.18038 0.8712 0.21732 0.0
N95 N 0.19926 0.86028 0.25211 0.0
N96 N 0.17174 0.92066 0.26172 0.0
C97 C 0.16263 0.90811 0.22345 0.0
H98 H 0.20373 0.89162 0.30981 0.0
H99 H 0.18033 0.85406 0.18883 0.0
C100 C 0.21731 0.75727 0.20181 0.0
N101 N 0.31256 0.7259 0.26703 0.0
C102 C 0.33162 0.70979 0.23507 0.0
C103 C 0.32767 0.7064 0.29878 0.0
N104 N 0.358 0.68083 0.24506 0.0
C105 C 0.35597 0.67846 0.28524 0.0
C106 C 0.20631 0.75818 0.31016 0.0
O107 O 0.20625 0.79115 0.21534 0.0
O108 O 0.24881 0.74097 0.2177 0.0
O109 O 0.24007 0.74216 0.29936 0.0
O110 O 0.19668 0.79198 0.29625 0.0
O111 O 0.30368 0.79268 0.30895 0.0
H112 H 0.31899 0.71238 0.32962 0.0
H113 H 0.32677 0.7199 0.20494 0.0
O114 O 0.26214 0.84367 0.30429 0.0
O115 O 0.27128 0.84241 0.22242 0.0
O116 O 0.31399 0.7931 0.22823 0.0
C117 C 0.30561 0.82644 0.21363 0.0
H118 H 0.14462 0.92441 0.20175 0.0
H119 H 0.37326 0.6579 0.30329 0.0
Co120 Co 0.31485 0.74616 0.74379 0.0
C121 C 0.3301 0.8033 0.8081 0.0
Co122 Co 0.26442 0.75623 0.78474 0.0
C123 C 0.37212 0.77239 0.69128 0.0
C124 C 0.38286 0.71094 0.69967 0.0
N125 N 0.35788 0.74178 0.71006 0.0
N126 N 0.40454 0.76224 0.66935 0.0
C127 C 0.41225 0.72374 0.67481 0.0
H128 H 0.36014 0.80234 0.695 0.0
H129 H 0.38045 0.68144 0.71015 0.0
C130 C 0.25008 0.69947 0.71982 0.0
N131 N 0.22065 0.75982 0.81778 0.0
C132 C 0.2018 0.72792 0.83 0.0
C133 C 0.19655 0.79087 0.8291 0.0
N134 N 0.16631 0.73724 0.8477 0.0
C135 C 0.16304 0.77704 0.84773 0.0
C136 C 0.25581 0.80404 0.72045 0.0
O137 O 0.28597 0.70782 0.71026 0.0
O138 O 0.23593 0.7162 0.75166 0.0
O139 O 0.23892 0.79518 0.75231 0.0
O140 O 0.28978 0.78734 0.71188 0.0
O141 O 0.29345 0.79673 0.8174 0.0
H142 H 0.20198 0.82125 0.82258 0.0
H143 H 0.21377 0.69817 0.82494 0.0
O144 O 0.34444 0.78465 0.77734 0.0
O145 O 0.33897 0.70549 0.77553 0.0
O146 O 0.28973 0.71635 0.81751 0.0
C147 C 0.32238 0.69764 0.80801 0.0
H148 H 0.43733 0.70651 0.6622 0.0
H149 H 0.13769 0.79479 0.85903 0.0
Co150 Co 0.25977 0.23818 0.77503 0.0
C151 C 0.32565 0.28166 0.80525 0.0
Co152 Co 0.27028 0.28998 0.74037 0.0
C153 C 0.2753 0.16629 0.81427 0.0
C154 C 0.21237 0.18411 0.81701 0.0
N155 N 0.24844 0.19411 0.80227 0.0
N156 N 0.25774 0.13957 0.8363 0.0
C157 C 0.21825 0.15093 0.83876 0.0
H158 H 0.30793 0.16751 0.80992 0.0
H159 H 0.18421 0.20115 0.81409 0.0
C160 C 0.20469 0.24697 0.70973 0.0
N161 N 0.28034 0.33393 0.71266 0.0
C162 C 0.25182 0.3614 0.70389 0.0
C163 C 0.31448 0.3453 0.69519 0.0
N164 N 0.26635 0.38951 0.68158 0.0
C165 C 0.30575 0.37946 0.67549 0.0
C166 C 0.31298 0.22165 0.71104 0.0
O167 O 0.21459 0.22602 0.73915 0.0
O168 O 0.22531 0.27747 0.70428 0.0
O169 O 0.30596 0.25815 0.7054 0.0
O170 O 0.29568 0.20654 0.74008 0.0
O171 O 0.31532 0.30236 0.77577 0.0
H172 H 0.34336 0.3292 0.69572 0.0
H173 H 0.22012 0.35956 0.71183 0.0
O174 O 0.30522 0.251 0.8113 0.0
O175 O 0.22486 0.26958 0.81011 0.0
O176 O 0.23403 0.32185 0.77625 0.0
C177 C 0.21769 0.30612 0.8055 0.0
H178 H 0.1962 0.13794 0.85734 0.0
H179 H 0.32627 0.39503 0.65736 0.0
Co180 Co 0.75954 0.28759 0.75753 0.0
C181 C 0.81501 0.30843 0.81984 0.0
Co182 Co 0.81235 0.24734 0.76141 0.0
C183 C 0.67735 0.31755 0.76214 0.0
C184 C 0.71765 0.36112 0.74306 0.0
N185 N 0.71616 0.32278 0.75166 0.0
N186 N 0.6556 0.35174 0.76431 0.0
C187 C 0.68048 0.37885 0.7505 0.0
H188 H 0.66671 0.29054 0.77379 0.0
H189 H 0.74507 0.37648 0.73646 0.0
C190 C 0.75594 0.22604 0.69961 0.0
N191 N 0.85503 0.21215 0.76846 0.0
C192 C 0.86789 0.18475 0.74098 0.0
C193 C 0.87458 0.20289 0.80346 0.0
N194 N 0.8936 0.15824 0.75743 0.0
C195 C 0.89882 0.16969 0.79659 0.0
C196 C 0.74461 0.2252 0.80797 0.0
O197 O 0.7383 0.25767 0.71231 0.0
O198 O 0.78939 0.21548 0.71695 0.0
O199 O 0.78133 0.21674 0.79859 0.0
O200 O 0.72813 0.25573 0.79304 0.0
O201 O 0.83415 0.27869 0.80495 0.0
H202 H 0.8697 0.21778 0.83258 0.0
H203 H 0.85738 0.18313 0.70963 0.0
O204 O 0.78059 0.31823 0.80379 0.0
O205 O 0.79143 0.31847 0.72276 0.0
O206 O 0.84413 0.27811 0.72391 0.0
C207 C 0.82752 0.30994 0.71149 0.0
H208 H 0.67479 0.41051 0.75233 0.0
H209 H 0.91691 0.15402 0.81873 0.0
Co210 Co 0.76097 0.75327 0.7736 0.0
C211 C 0.7427 0.81048 0.83315 0.0
Co212 Co 0.80721 0.79967 0.78017 0.0
C213 C 0.70181 0.69777 0.79525 0.0
C214 C 0.70763 0.69681 0.73137 0.0
N215 N 0.72256 0.71406 0.76648 0.0
N216 N 0.67442 0.67114 0.77961 0.0
C217 C 0.67817 0.67004 0.73941 0.0
H218 H 0.70708 0.70497 0.82719 0.0
H219 H 0.71726 0.70354 0.70182 0.0
C220 C 0.82311 0.74258 0.7189 0.0
N221 N 0.84517 0.83915 0.78685 0.0
C222 C 0.85749 0.86078 0.75722 0.0
C223 C 0.86764 0.85199 0.81996 0.0
N224 N 0.8866 0.88668 0.77015 0.0
C225 C 0.89375 0.8811 0.80955 0.0
C226 C 0.82648 0.73676 0.82736 0.0
O227 O 0.79066 0.72868 0.7318 0.0
O228 O 0.83758 0.77425 0.7362 0.0
O229 O 0.83817 0.77012 0.81719 0.0
O230 O 0.79246 0.72325 0.81258 0.0
O231 O 0.77631 0.82504 0.82321 0.0
H232 H 0.86582 0.84035 0.84945 0.0
H233 H 0.84651 0.85644 0.72612 0.0
O234 O 0.73069 0.77829 0.81538 0.0
O235 O 0.7303 0.78304 0.73498 0.0
O236 O 0.77639 0.82922 0.74257 0.0
C237 C 0.74339 0.81627 0.7256 0.0
H238 H 0.66065 0.65156 0.71754 0.0
H239 H 0.91639 0.89649 0.82903 0.0
Fe240 Fe 1.02395 0.04748 0.51425 0.0
O241 O 0.99888 0.99781 0.49046 0.0
Fe242 Fe 0.12416 1.01764 0.53974 0.0
Fe243 Fe 0.9399 0.98783 0.4911 0.0
O244 O 0.0645 1.01147 0.54106 0.0
O245 O 0.06497 1.00783 0.54187 0.0
O246 O 0.99946 0.99411 0.4911 0.0
Fe247 Fe 0.03916 0.95784 0.51889 0.0
C248 C 0.95128 0.0425 0.56528 0.0
O249 O 0.97834 0.07961 0.48217 0.0
O250 O 0.93651 0.03211 0.45036 0.0
O251 O 0.07384 0.9589 0.46943 0.0
O252 O 0.13407 0.97068 0.49989 0.0
O253 O 0.12115 0.05479 0.49153 0.0
O254 O 0.05768 0.04897 0.46502 0.0
O255 O 0.95433 0.94038 0.45292 0.0
O256 O 1.00662 0.90991 0.48966 0.0
C257 C 0.09488 0.0576 0.46223 0.0
O258 O 0.08498 0.92668 0.55249 0.0
O259 O 0.12721 0.97531 0.58249 0.0
O260 O 0.98968 0.04586 0.56336 0.0
O261 O 0.92849 0.0319 0.53474 0.0
C262 C 0.95007 0.06807 0.45529 0.0
C263 C 0.97791 0.9103 0.46107 0.0
C264 C 0.96567 0.95064 0.56799 0.0
O265 O 0.94359 0.94807 0.53557 0.0
O266 O 1.00368 0.95784 0.56808 0.0
C267 C 0.11208 0.96399 0.4681 0.0
O268 O 0.11106 0.06686 0.57654 0.0
O269 O 0.05526 0.09551 0.54356 0.0
C270 C 0.11372 0.93919 0.57869 0.0
C271 C 0.08508 0.09563 0.5708 0.0
Fe272 Fe 0.52804 0.94464 0.02556 0.0
O273 O 0.52344 1.00136 0.01915 0.0
Fe274 Fe 0.46026 0.02955 1.01773 0.0
Fe275 Fe 0.56526 0.03692 0.9943 0.0
O276 O 0.51748 1.00327 0.02246 0.0
O277 O 0.50724 0.06857 0.9988 0.0
O278 O 0.5225 0.07377 1.01329 0.0
Fe279 Fe 0.52 0.12988 1.01178 0.0
C280 C 0.59785 0.99175 0.07135 0.0
O281 O 0.57092 0.93892 0.98027 0.0
O282 O 0.60621 0.99463 0.97481 0.0
O283 O 0.46594 0.13622 0.97802 0.0
O284 O 0.46512 0.07212 0.9741 0.0
O285 O 0.45232 0.99116 0.96668 0.0
O286 O 0.48109 0.93242 0.98267 0.0
O287 O 0.60157 0.07941 0.9664 0.0
O288 O 0.55607 0.12994 0.96173 0.0
C289 C 0.45666 0.9534 0.96103 0.0
O290 O 0.48438 0.13001 0.06078 0.0
O291 O 0.46185 0.06793 0.06989 0.0
O292 O 0.57515 0.96072 0.06595 0.0
O293 O 0.59661 0.02283 0.04938 0.0
C294 C 0.60125 0.9576 0.96756 0.0
C295 C 0.58982 0.1127 0.95175 0.0
C296 C 0.59812 0.09852 0.06065 0.0
O297 O 0.598 0.0619 0.04595 0.0
O298 O 0.57251 0.12508 0.04891 0.0
C299 C 0.44545 0.10482 0.9714 0.0
O300 O 0.43407 0.98678 0.05241 0.0
O301 O 0.48438 0.94432 0.07094 0.0
C302 C 0.46526 0.10505 0.08034 0.0
C303 C 0.44731 0.9578 0.07317 0.0
Fe304 Fe 1.02446 0.56233 0.0188 0.0
O305 O 0.98869 0.51565 1.00613 0.0
Fe306 Fe 0.12221 0.51525 0.02312 0.0
Fe307 Fe 0.93169 0.51323 0.02029 0.0
O308 O 0.06392 0.5205 0.03915 0.0
O309 O 0.06498 0.51536 0.03685 0.0
O310 O 0.98967 0.5109 1.00381 0.0
Fe311 Fe 0.02974 0.46898 0.02186 0.0
C312 C 0.96218 0.57914 0.0835 0.0
O313 O 0.97719 0.5986 0.99284 0.0
O314 O 0.92441 0.5547 0.97809 0.0
O315 O 0.05377 0.46011 0.96413 0.0
O316 O 0.11907 0.46548 0.98401 0.0
O317 O 0.11399 0.55094 0.9754 0.0
O318 O 0.04656 0.55382 0.96217 0.0
O319 O 0.92971 0.46403 0.98207 0.0
O320 O 0.98542 0.42606 1.00248 0.0
C321 C 0.08317 0.55878 0.95246 0.0
O322 O 0.07641 0.43191 0.04725 0.0
O323 O 0.12771 0.47554 0.06765 0.0
O324 O 1.00025 0.57577 0.07566 0.0
O325 O 0.9348 0.56038 0.06229 0.0
C326 C 0.94152 0.58877 0.97587 0.0
C327 C 0.94995 0.43086 0.98348 0.0
C328 C 0.9718 0.46742 0.08811 0.0
O329 O 0.94084 0.4747 0.06528 0.0
O330 O 1.00797 0.47438 0.07871 0.0
C331 C 0.09169 0.45245 0.9587 0.0
O332 O 0.12501 0.56687 0.05819 0.0
O333 O 0.07016 0.60491 0.03514 0.0
C334 C 0.10976 0.44163 0.06864 0.0
C335 C 0.10616 0.60039 0.05327 0.0
Fe336 Fe 0.53163 0.49326 0.95892 0.0
O337 O 0.56239 0.52311 1.01022 0.0
Fe338 Fe 0.43637 0.4843 1.00671 0.0
Fe339 Fe 0.62654 0.51951 0.02346 0.0
O340 O 0.49602 0.4947 1.00602 0.0
O341 O 0.50061 0.4815 0.02199 0.0
O342 O 0.56549 0.51443 0.02631 0.0
Fe343 Fe 0.53429 0.50478 0.07597 0.0
C344 C 0.60574 0.44694 0.97124 0.0
O345 O 0.56307 0.54732 0.96927 0.0
O346 O 0.6275 0.55807 0.97847 0.0
O347 O 0.49388 0.55173 0.06792 0.0
O348 O 0.43025 0.53036 0.04839 0.0
O349 O 0.43245 0.52443 0.96093 0.0
O350 O 0.49323 0.53509 0.93486 0.0
O351 O 0.62112 0.56436 0.06723 0.0
O352 O 0.57251 0.54487 0.10882 0.0
C353 C 0.45493 0.54218 0.93717 0.0
O354 O 0.49677 0.45738 0.05845 0.0
O355 O 0.43305 0.44656 0.05366 0.0
O356 O 0.56953 0.45098 0.98258 0.0
O357 O 0.63195 0.4738 0.97999 0.0
C358 C 0.59629 0.5581 0.95479 0.0
C359 C 0.601 0.56827 0.09964 0.0
C360 C 0.61225 0.45539 0.0863 0.0
O361 O 0.63266 0.47857 0.06646 0.0
O362 O 0.5735 0.45807 0.08841 0.0
C363 C 0.45476 0.55467 0.06726 0.0
O364 O 0.44252 0.43754 0.96522 0.0
O365 O 0.49787 0.44837 0.92879 0.0
C366 C 0.46565 0.44512 0.07513 0.0
C367 C 0.466 0.42873 0.93606 0.0
Fe368 Fe 1.02364 0.48315 0.51424 0.0
O369 O 0.99488 0.53007 0.53998 0.0
Fe370 Fe 0.05737 0.52104 0.42597 0.0
Fe371 Fe 0.99044 0.53753 0.59902 0.0
O372 O 0.05111 0.52471 0.48419 0.0
O373 O 0.05355 0.52933 0.48509 0.0
O374 O 0.99731 0.53489 0.54083 0.0
Fe375 Fe 1.02629 0.57664 0.51208 0.0
C376 C 0.96154 0.4532 0.57745 0.0
O377 O 0.07062 0.48894 0.55649 0.0
O378 O 0.03589 0.49694 0.61255 0.0
O379 O 0.06089 0.61445 0.47466 0.0
O380 O 0.09619 0.56942 0.43389 0.0
O381 O 0.09799 0.47657 0.44108 0.0
O382 O 0.05969 0.44025 0.48282 0.0
O383 O 0.03301 0.58151 0.60915 0.0
O384 O 0.07308 0.58133 0.55642 0.0
C385 C 0.09007 0.44455 0.45912 0.0
O386 O 0.97946 0.57288 0.4702 0.0
O387 O 1.01106 0.56083 0.41256 0.0
O388 O 0.99076 0.44535 0.55193 0.0
O389 O 0.95162 0.48906 0.59016 0.0
C390 C 0.06906 0.48971 0.59458 0.0
C391 C 0.06722 0.58823 0.594 0.0
C392 C 0.96039 0.6157 0.56898 0.0
O393 O 0.95067 0.58273 0.58433 0.0
O394 O 0.99112 0.61992 0.54543 0.0
C395 C 0.08883 0.60543 0.44787 0.0
O396 O 1.01523 0.47637 0.41642 0.0
O397 O 0.97689 0.47506 0.47025 0.0
C398 C 0.97898 0.56906 0.43206 0.0
C399 C 0.98263 0.46662 0.4329 0.0
Fe400 Fe 0.52404 0.96647 0.52415 0.0
O401 O 0.55184 1.01212 0.5545 0.0
Fe402 Fe 0.49403 1.00607 0.43346 0.0
Fe403 Fe 0.55287 1.01816 0.61443 0.0
O404 O 0.49751 1.00859 0.49217 0.0
O405 O 0.49556 1.01294 0.49322 0.0
O406 O 0.54936 1.01645 0.55587 0.0
Fe407 Fe 0.52335 0.05865 0.52363 0.0
C408 C 0.48125 0.96241 0.59811 0.0
O409 O 0.5574 0.9286 0.56304 0.0
O410 O 0.59417 0.97228 0.60628 0.0
O411 O 0.57157 0.05253 0.48646 0.0
O412 O 0.53829 0.04647 0.42676 0.0
O413 O 0.53805 0.96079 0.42604 0.0
O414 O 0.57201 0.95756 0.48517 0.0
O415 O 0.59178 0.06406 0.6066 0.0
O416 O 0.55818 0.10072 0.55861 0.0
C417 C 0.56921 0.94959 0.44712 0.0
O418 O 0.49266 0.09677 0.48436 0.0
O419 O 0.45503 0.05484 0.44024 0.0
O420 O 0.47675 0.97314 0.56243 0.0
O421 O 0.51162 0.97388 0.62064 0.0
C422 C 0.58742 0.93726 0.58928 0.0
C423 C 0.58718 0.09527 0.5859 0.0
C424 C 0.47622 0.07331 0.60041 0.0
O425 O 0.50635 0.06034 0.62174 0.0
O426 O 0.47458 0.06831 0.56194 0.0
C427 C 0.56911 0.0573 0.44892 0.0
O428 O 0.45332 0.96271 0.44266 0.0
O429 O 0.48795 0.92461 0.48908 0.0
C430 C 0.46364 0.08966 0.45691 0.0
C431 C 0.45812 0.93107 0.46269 0.0
H432 H 0.1124 0.13073 0.29506 0.0
H433 H 0.24083 0.12015 0.32968 0.0
H434 H 0.22394 0.08497 0.38792 0.0
H435 H 0.17215 0.06687 0.43543 0.0
H436 H 0.0439 0.07811 0.40002 0.0
H437 H 0.06155 0.10412 0.33675 0.0
C438 C 0.13691 0.12098 0.31518 0.0
C439 C 0.17765 0.13126 0.30916 0.0
C440 C 0.12702 0.10146 0.3494 0.0
C441 C 0.20889 0.11524 0.33426 0.0
C442 C 0.19931 0.09489 0.36792 0.0
C443 C 0.14814 0.07499 0.41385 0.0
C444 C 0.10685 0.07157 0.42314 0.0
C445 C 0.15837 0.08987 0.37703 0.0
C446 C 0.07605 0.08109 0.39421 0.0
C447 C 0.08603 0.09581 0.35775 0.0
H448 H 0.89492 0.20471 0.33999 0.0
H449 H 0.77764 0.15091 0.35163 0.0
H450 H 0.80956 0.10097 0.39356 0.0
H451 H 0.87056 0.0731 0.42818 0.0
H452 H 0.98684 0.13057 0.42302 0.0
H453 H 0.95588 0.17846 0.37778 0.0
C454 C 0.87655 0.18179 0.35148 0.0
C455 C 0.83402 0.18115 0.34223 0.0
C456 C 0.89496 0.15397 0.37704 0.0
C457 C 0.8104 0.15188 0.3581 0.0
C458 C 0.82866 0.12335 0.38215 0.0
C459 C 0.88916 0.09606 0.41707 0.0
C460 C 0.93109 0.09801 0.42878 0.0
C461 C 0.87085 0.12418 0.39202 0.0
C462 C 0.95454 0.12839 0.4146 0.0
C463 C 0.93683 0.15573 0.38859 0.0
H464 H 0.86321 0.78209 0.38538 0.0
H465 H 0.89187 0.84277 0.27946 0.0
H466 H 0.94773 0.8767 0.31655 0.0
H467 H 0.9794 0.89855 0.38139 0.0
H468 H 0.94895 0.84255 0.48891 0.0
H469 H 0.9042 0.79631 0.44894 0.0
C470 C 0.88219 0.8022 0.37035 0.0
C471 C 0.87262 0.81075 0.33009 0.0
C472 C 0.91414 0.82235 0.39215 0.0
C473 C 0.89783 0.83644 0.31075 0.0
C474 C 0.93001 0.85576 0.33184 0.0
C475 C 0.96434 0.87498 0.39567 0.0
C476 C 0.96726 0.87364 0.43769 0.0
C477 C 0.93725 0.85023 0.37288 0.0
C478 C 0.94745 0.84355 0.45637 0.0
C479 C 0.92128 0.81769 0.4336 0.0
H480 H 0.21347 0.9674 0.31471 0.0
H481 H 0.09363 0.94821 0.25986 0.0
H482 H 0.06222 0.96925 0.32312 0.0
H483 H 0.07089 0.96895 0.39644 0.0
H484 H 0.19249 0.97428 0.45273 0.0
H485 H 0.2217 0.98067 0.38719 0.0
C486 C 0.18042 0.96988 0.31647 0.0
C487 C 0.15576 0.95416 0.2842 0.0
C488 C 0.16331 0.97649 0.35395 0.0
C489 C 0.11311 0.95901 0.28513 0.0
C490 C 0.09528 0.96988 0.32159 0.0
C491 C 0.10379 0.97156 0.39444 0.0
C492 C 0.12974 0.96919 0.42898 0.0
C493 C 0.12036 0.97433 0.35678 0.0
C494 C 0.17208 0.97443 0.42622 0.0
C495 C 0.18873 0.97869 0.38892 0.0
H496 H 0.17392 0.81257 0.70291 0.0
H497 H 0.29156 0.85731 0.67479 0.0
H498 H 0.25803 0.90338 0.62925 0.0
H499 H 0.19507 0.93135 0.59755 0.0
H500 H 0.07793 0.88208 0.62003 0.0
H501 H 0.1112 0.8373 0.66728 0.0
C502 C 0.19215 0.83257 0.68692 0.0
C503 C 0.23522 0.83195 0.69277 0.0
C504 C 0.17267 0.85803 0.65959 0.0
C505 C 0.25845 0.85737 0.67108 0.0
C506 C 0.23924 0.88371 0.64501 0.0
C507 C 0.17685 0.91072 0.61277 0.0
C508 C 0.13399 0.91026 0.60549 0.0
C509 C 0.19638 0.88436 0.63904 0.0
C510 C 0.1109 0.88296 0.62497 0.0
C511 C 0.12994 0.85748 0.65213 0.0
H512 H 0.14255 0.19776 0.72116 0.0
H513 H 0.19716 0.26349 0.63035 0.0
H514 H 0.15706 0.22648 0.57751 0.0
H515 H 0.11734 0.16643 0.55711 0.0
H516 H 0.06544 0.09961 0.64841 0.0
H517 H 0.09268 0.14643 0.70116 0.0
C518 C 0.14487 0.20462 0.68986 0.0
C519 C 0.17332 0.23257 0.6795 0.0
C520 C 0.12234 0.1828 0.65973 0.0
C521 C 0.17562 0.24181 0.63899 0.0
C522 C 0.15291 0.22048 0.60874 0.0
C523 C 0.11074 0.16327 0.58848 0.0
C524 C 0.08961 0.13 0.59926 0.0
C525 C 0.12769 0.18961 0.61867 0.0
C526 C 0.08158 0.12536 0.6398 0.0
C527 C 0.09744 0.15185 0.66989 0.0
H528 H 0.85015 0.10899 0.70871 0.0
H529 H 0.97162 0.13133 0.75885 0.0
H530 H 1.00082 0.08842 0.70499 0.0
H531 H 0.99175 0.05919 0.6365 0.0
H532 H 0.86998 0.04544 0.58199 0.0
H533 H 0.84043 0.07037 0.64489 0.0
C534 C 0.88292 0.10333 0.70823 0.0
C535 C 0.90909 0.12372 0.73638 0.0
C536 C 0.89917 0.08127 0.67594 0.0
C537 C 0.95129 0.11591 0.7369 0.0
C538 C 0.96782 0.09196 0.70591 0.0
C539 C 0.9587 0.06136 0.63837 0.0
C540 C 0.93302 0.05221 0.60423 0.0
C541 C 0.94212 0.07692 0.67392 0.0
C542 C 0.89033 0.05361 0.60755 0.0
C543 C 0.87345 0.0676 0.6435 0.0
H544 H 0.85291 0.92745 0.71171 0.0
H545 H 0.96843 0.89792 0.77001 0.0
H546 H 1.00491 0.92034 0.71255 0.0
H547 H 1.00222 0.9366 0.641 0.0
H548 H 0.88467 0.95831 0.58131 0.0
H549 H 0.85046 0.95013 0.64373 0.0
C550 C 0.88615 0.9269 0.71204 0.0
C551 C 0.90812 0.91057 0.74422 0.0
C552 C 0.90629 0.93723 0.67818 0.0
C553 C 0.95109 0.91045 0.74526 0.0
C554 C 0.97177 0.92263 0.71222 0.0
C555 C 0.96916 0.93971 0.64181 0.0
C556 C 0.94588 0.94688 0.60642 0.0
C557 C 0.94948 0.93403 0.67765 0.0
C558 C 0.90315 0.95152 0.6079 0.0
C559 C 0.88356 0.9473 0.64364 0.0
H560 H 0.32929 0.16172 0.20198 0.0
H561 H 0.38764 0.27328 0.18708 0.0
H562 H 0.43854 0.24009 0.14537 0.0
H563 H 0.46588 0.18059 0.11213 0.0
H564 H 0.40782 0.06823 0.12348 0.0
H565 H 0.3585 0.10036 0.16877 0.0
C566 C 0.35291 0.17869 0.18918 0.0
C567 C 0.35444 0.21997 0.1974 0.0
C568 C 0.38267 0.15926 0.1653 0.0
C569 C 0.38564 0.24151 0.18119 0.0
C570 C 0.41496 0.22256 0.15747 0.0
C571 C 0.44279 0.16277 0.12469 0.0
C572 C 0.44065 0.12197 0.11404 0.0
C573 C 0.41382 0.18153 0.14941 0.0
C574 C 0.4105 0.09965 0.13115 0.0
C575 C 0.38191 0.11811 0.15672 0.0
H576 H 0.90276 0.36012 0.21313 0.0
H577 H 0.94193 0.27073 0.12431 0.0
H578 H 0.97891 0.32062 0.09063 0.0
H579 H 0.98961 0.39077 0.07995 0.0
H580 H 0.93987 0.48065 0.1619 0.0
H581 H 0.91702 0.42952 0.20504 0.0
C582 C 0.91905 0.35142 0.18624 0.0
C583 C 0.9184 0.31191 0.17048 0.0
C584 C 0.93815 0.38049 0.16588 0.0
C585 C 0.94159 0.30095 0.13686 0.0
C586 C 0.96251 0.3295 0.11745 0.0
C587 C 0.97471 0.39892 0.1079 0.0
C588 C 0.96649 0.43888 0.11841 0.0
C589 C 0.95954 0.3695 0.13078 0.0
C590 C 0.94662 0.4498 0.15391 0.0
C591 C 0.93339 0.42066 0.17819 0.0
H592 H 0.70899 0.92279 0.20381 0.0
H593 H 0.79364 0.92157 0.10759 0.0
H594 H 0.74809 0.96589 0.07051 0.0
H595 H 0.67805 0.99187 0.05924 0.0
H596 H 0.58997 0.98336 0.15112 0.0
H597 H 0.64285 0.95658 0.19663 0.0
C598 C 0.71759 0.93248 0.17485 0.0
C599 C 0.75387 0.91793 0.15778 0.0
C600 C 0.69041 0.95618 0.153 0.0
C601 C 0.7656 0.93202 0.12111 0.0
C602 C 0.73944 0.95715 0.09981 0.0
C603 C 0.67111 0.98558 0.08986 0.0
C604 C 0.63067 0.98938 0.10224 0.0
C605 C 0.70088 0.96765 0.11454 0.0
C606 C 0.62122 0.98065 0.14144 0.0
C607 C 0.65127 0.96502 0.16715 0.0
H608 H 0.24051 0.7052 0.14161 0.0
H609 H 0.13464 0.76228 0.19365 0.0
H610 H 0.08922 0.72256 0.14781 0.0
H611 H 0.07979 0.66574 0.098 0.0
H612 H 0.18633 0.61136 0.04441 0.0
H613 H 0.23102 0.65645 0.0846 0.0
C614 C 0.20751 0.70913 0.14249 0.0
C615 C 0.19087 0.73597 0.17118 0.0
C616 C 0.18159 0.68679 0.11557 0.0
C617 C 0.1481 0.7415 0.17176 0.0
C618 C 0.12208 0.71881 0.14561 0.0
C619 C 0.11264 0.66477 0.09429 0.0
C620 C 0.12985 0.63501 0.06891 0.0
C621 C 0.13844 0.69065 0.11794 0.0
C622 C 0.17251 0.63384 0.06432 0.0
C623 C 0.19815 0.6594 0.08743 0.0
H624 H 0.31498 0.87623 0.84663 0.0
H625 H 0.40863 0.78637 0.82919 0.0
H626 H 0.45626 0.82465 0.87385 0.0
H627 H 0.47124 0.88288 0.91946 0.0
H628 H 0.38036 0.97603 0.9329 0.0
H629 H 0.33237 0.93794 0.88808 0.0
C630 C 0.34582 0.86518 0.85268 0.0
C631 C 0.3581 0.8283 0.83487 0.0
C632 C 0.37378 0.88812 0.87758 0.0
C633 C 0.3984 0.81464 0.84248 0.0
C634 C 0.42571 0.83652 0.86808 0.0
C635 C 0.44106 0.89502 0.91235 0.0
C636 C 0.42951 0.93224 0.92985 0.0
C637 C 0.41376 0.87322 0.88596 0.0
C638 C 0.3903 0.94758 0.91983 0.0
C639 C 0.36264 0.92564 0.89434 0.0
H640 H 0.15801 0.36577 0.79721 0.0
H641 H 0.2262 0.30036 0.88583 0.0
H642 H 0.19254 0.33819 0.94001 0.0
H643 H 0.14537 0.39111 0.96324 0.0
H644 H 0.07206 0.45413 0.87685 0.0
H645 H 0.10506 0.41599 0.8213 0.0
C646 C 0.16538 0.35985 0.82839 0.0
C647 C 0.1951 0.33021 0.83723 0.0
C648 C 0.1446 0.38117 0.85998 0.0
C649 C 0.20365 0.32274 0.87792 0.0
C650 C 0.18435 0.34445 0.90908 0.0
C651 C 0.1361 0.39615 0.93222 0.0
C652 C 0.10602 0.42546 0.92441 0.0
C653 C 0.1549 0.37378 0.90059 0.0
C654 C 0.09458 0.43148 0.88393 0.0
C655 C 0.11385 0.40985 0.85211 0.0
H656 H 0.66329 0.23024 0.82899 0.0
H657 H 0.77342 0.16148 0.84986 0.0
H658 H 0.73705 0.12001 0.89437 0.0
H659 H 0.67291 0.10304 0.9293 0.0
H660 H 0.56348 0.17268 0.90562 0.0
H661 H 0.60011 0.21256 0.8614 0.0
C662 C 0.67955 0.20621 0.84317 0.0
C663 C 0.72155 0.19961 0.83561 0.0
C664 C 0.6582 0.18195 0.86883 0.0
C665 C 0.74134 0.16784 0.85466 0.0
C666 C 0.72037 0.14385 0.88035 0.0
C667 C 0.6569 0.12666 0.91427 0.0
C668 C 0.61481 0.13419 0.92185 0.0
C669 C 0.67858 0.15047 0.88792 0.0
C670 C 0.59552 0.16554 0.9015 0.0
C671 C 0.6166 0.1888 0.87577 0.0
H672 H 0.80482 0.67949 0.87641 0.0
H673 H 0.90908 0.74345 0.84063 0.0
H674 H 0.9545 0.70559 0.8848 0.0
H675 H 0.96516 0.65168 0.93228 0.0
H676 H 0.85896 0.59103 0.96952 0.0
H677 H 0.81448 0.63022 0.92704 0.0
C678 C 0.83747 0.68512 0.8783 0.0
C679 C 0.85345 0.71396 0.85497 0.0
C680 C 0.86341 0.66377 0.90435 0.0
C681 C 0.89586 0.72131 0.85825 0.0
C682 C 0.92196 0.69966 0.88355 0.0
C683 C 0.93229 0.64752 0.93148 0.0
C684 C 0.91581 0.61779 0.95364 0.0
C685 C 0.90619 0.67053 0.9067 0.0
C686 C 0.87291 0.61301 0.95222 0.0
C687 C 0.84716 0.63549 0.92788 0.0
H688 H 0.17401 0.30606 0.18211 0.0
H689 H 0.27248 0.3893 0.20376 0.0
H690 H 0.23924 0.43351 0.15701 0.0
H691 H 0.1826 0.44947 0.11088 0.0
H692 H 0.08263 0.36819 0.08827 0.0
H693 H 0.1162 0.32243 0.1343 0.0
C694 C 0.18825 0.33382 0.17649 0.0
C695 C 0.2259 0.34414 0.19666 0.0
C696 C 0.16871 0.35957 0.14938 0.0
C697 C 0.24368 0.38037 0.18893 0.0
C698 C 0.22464 0.4058 0.1621 0.0
C699 C 0.16783 0.42179 0.11577 0.0
C700 C 0.12986 0.41257 0.09582 0.0
C701 C 0.18715 0.39582 0.14231 0.0
C702 C 0.11179 0.37626 0.10289 0.0
C703 C 0.131 0.35006 0.12935 0.0
H704 H 0.16062 0.65922 0.82642 0.0
H705 H 0.10829 0.75268 0.90307 0.0
H706 H 0.06951 0.70392 0.93646 0.0
H707 H 0.06051 0.63454 0.95182 0.0
H708 H 0.12327 0.54179 0.88351 0.0
H709 H 0.14855 0.59038 0.83885 0.0
C710 C 0.14115 0.66916 0.85067 0.0
C711 C 0.13863 0.70961 0.86313 0.0
C712 C 0.121 0.6409 0.87125 0.0
C713 C 0.11127 0.72181 0.8931 0.0
C714 C 0.08927 0.69389 0.9124 0.0
C715 C 0.07873 0.62507 0.92633 0.0
C716 C 0.08989 0.58504 0.92024 0.0
C717 C 0.09527 0.65334 0.90282 0.0
C718 C 0.1142 0.57262 0.88807 0.0
C719 C 0.1288 0.60037 0.86293 0.0
H720 H 0.27276 0.15992 0.91292 0.0
H721 H 0.29624 0.07024 0.81966 0.0
H722 H 0.35403 0.04424 0.86021 0.0
H723 H 0.40626 0.05775 0.91459 0.0
H724 H 0.38852 0.15604 1.00082 0.0
H725 H 0.31993 0.16809 0.97158 0.0
C726 C 0.28958 0.13358 0.90265 0.0
C727 C 0.28059 0.11649 0.86405 0.0
C728 C 0.3244 0.12129 0.92454 0.0
C729 C 0.30279 0.08319 0.84974 0.0
C730 C 0.336 0.06885 0.87264 0.0
C731 C 0.38675 0.08105 0.92746 0.0
C732 C 0.40206 0.10644 0.95917 0.0
C733 C 0.3485 0.08922 0.90895 0.0
C734 C 0.37712 0.13669 0.97587 0.0
C735 C 0.33806 0.14351 0.95923 0.0
H736 H 0.89272 0.30188 0.85116 0.0
H737 H 0.77808 0.36486 0.86844 0.0
H738 H 0.80911 0.40334 0.92588 0.0
H739 H 0.86941 0.42258 0.96691 0.0
H740 H 0.98611 0.36486 0.94643 0.0
H741 H 0.95305 0.31921 0.89532 0.0
C742 C 0.87442 0.32388 0.86763 0.0
C743 C 0.83322 0.33089 0.85531 0.0
C744 C 0.89269 0.34635 0.90012 0.0
C745 C 0.80992 0.35932 0.87701 0.0
C746 C 0.82759 0.38113 0.90993 0.0
C747 C 0.88774 0.3998 0.95154 0.0
C748 C 0.93032 0.39748 0.9599 0.0
C749 C 0.86905 0.37537 0.92113 0.0
C750 C 0.95333 0.36722 0.94052 0.0
C751 C 0.9345 0.34152 0.911 0.0
H752 H 0.74585 0.88811 0.86138 0.0
H753 H 0.67795 0.7808 0.87012 0.0
H754 H 0.62885 0.81634 0.91264 0.0
H755 H 0.6032 0.87836 0.94515 0.0
H756 H 0.67015 0.9862 0.93548 0.0
H757 H 0.7211 0.95007 0.8957 0.0
C758 C 0.72062 0.8724 0.87303 0.0
C759 C 0.71576 0.83178 0.8625 0.0
C760 C 0.69187 0.89323 0.89706 0.0
C761 C 0.68255 0.81205 0.87761 0.0
C762 C 0.65429 0.83239 0.9019 0.0
C763 C 0.6289 0.89407 0.93443 0.0
C764 C 0.63239 0.93515 0.94333 0.0
C765 C 0.65827 0.8731 0.91138 0.0
C766 C 0.66625 0.9547 0.92912 0.0
C767 C 0.69561 0.93401 0.90634 0.0
H768 H 0.89261 0.73011 0.18383 0.0
H769 H 0.8077 0.64286 0.21788 0.0
H770 H 0.84512 0.59109 0.17995 0.0
H771 H 0.89961 0.57047 0.13377 0.0
H772 H 0.98829 0.65528 0.10285 0.0
H773 H 0.95274 0.70741 0.14321 0.0
C774 C 0.8824 0.69974 0.183 0.0
C775 C 0.84675 0.69074 0.20345 0.0
C776 C 0.90509 0.6694 0.16184 0.0
C777 C 0.83467 0.65095 0.20249 0.0
C778 C 0.85616 0.62116 0.18072 0.0
C779 C 0.91176 0.60019 0.13653 0.0
C780 C 0.94689 0.60866 0.11524 0.0
C781 C 0.89117 0.62999 0.15996 0.0
C782 C 0.96187 0.64752 0.11924 0.0
C783 C 0.94111 0.67754 0.14199 0.0
H784 H 0.29955 0.89912 0.17723 0.0
H785 H 0.38174 0.79948 0.19135 0.0
H786 H 0.43223 0.8305 0.15154 0.0
H787 H 0.4542 0.88613 0.11153 0.0
H788 H 0.37151 0.98531 0.09651 0.0
H789 H 0.3215 0.95474 0.13713 0.0
C790 C 0.32843 0.88401 0.17163 0.0
C791 C 0.3361 0.84646 0.18783 0.0
C792 C 0.35796 0.90225 0.14821 0.0
C793 C 0.37423 0.82806 0.17972 0.0
C794 C 0.40347 0.84597 0.15677 0.0
C795 C 0.4254 0.90135 0.11724 0.0
C796 C 0.41747 0.93859 0.1004 0.0
C797 C 0.39591 0.88315 0.14074 0.0
C798 C 0.37927 0.95694 0.10848 0.0
C799 C 0.35028 0.9393 0.13194 0.0
H800 H 0.74899 0.15749 0.17472 0.0
H801 H 0.65068 0.22048 0.23468 0.0
H802 H 0.60073 0.18902 0.18749 0.0
H803 H 0.58443 0.14702 0.12654 0.0
H804 H 0.68017 0.07911 0.06845 0.0
H805 H 0.73118 0.1083 0.11751 0.0
C806 C 0.71661 0.16397 0.17766 0.0
C807 C 0.7039 0.19176 0.20829 0.0
C808 C 0.6874 0.14487 0.15059 0.0
C809 C 0.66164 0.19935 0.2117 0.0
C810 C 0.63286 0.18142 0.18452 0.0
C811 C 0.61644 0.13825 0.12485 0.0
C812 C 0.62849 0.11124 0.09353 0.0
C813 C 0.64535 0.15465 0.1535 0.0
C814 C 0.67001 0.0998 0.09221 0.0
C815 C 0.69923 0.11673 0.12016 0.0
H816 H 0.6378 0.69394 0.8476 0.0
H817 H 0.65383 0.59494 0.76194 0.0
H818 H 0.62203 0.55108 0.80726 0.0
H819 H 0.6017 0.53939 0.87611 0.0
H820 H 0.59087 0.63785 0.96326 0.0
H821 H 0.60806 0.68389 0.91253 0.0
C822 C 0.63377 0.66284 0.83877 0.0
C823 C 0.64886 0.64732 0.80216 0.0
C824 C 0.6166 0.63788 0.86534 0.0
C825 C 0.64256 0.60734 0.79021 0.0
C826 C 0.62467 0.58229 0.81618 0.0
C827 C 0.60188 0.57109 0.88332 0.0
C828 C 0.59526 0.58568 0.9228 0.0
C829 C 0.61326 0.59696 0.8545 0.0
C830 C 0.59581 0.62648 0.93267 0.0
C831 C 0.60591 0.6526 0.90386 0.0
H832 H 0.39997 0.66558 0.80732 0.0
H833 H 0.28715 0.66277 0.87004 0.0
H834 H 0.31756 0.61481 0.91512 0.0
H835 H 0.37644 0.57346 0.93723 0.0
H836 H 0.49001 0.57838 0.87575 0.0
H837 H 0.45921 0.62544 0.83032 0.0
C838 C 0.38194 0.65437 0.83074 0.0
C839 C 0.34114 0.66781 0.83498 0.0
C840 C 0.39987 0.62708 0.8571 0.0
C841 C 0.31855 0.65312 0.8659 0.0
C842 C 0.33596 0.6256 0.89179 0.0
C843 C 0.39453 0.58476 0.91392 0.0
C844 C 0.43564 0.57191 0.91016 0.0
C845 C 0.37665 0.61235 0.88778 0.0
C846 C 0.4584 0.5874 0.8797 0.0
C847 C 0.44074 0.61442 0.85348 0.0
H848 H 0.39035 0.32642 0.78981 0.0
H849 H 0.33258 0.27094 0.88593 0.0
H850 H 0.3758 0.30859 0.93582 0.0
H851 H 0.42187 0.36461 0.95176 0.0
H852 H 0.48011 0.4197 0.85559 0.0
H853 H 0.44539 0.37428 0.80595 0.0
C854 C 0.38791 0.32196 0.82168 0.0
C855 C 0.35794 0.29651 0.83432 0.0
C856 C 0.41258 0.34391 0.85009 0.0
C857 C 0.3554 0.29044 0.87554 0.0
C858 C 0.37986 0.3122 0.90405 0.0
C859 C 0.42752 0.3662 0.91996 0.0
C860 C 0.45272 0.39605 0.90725 0.0
C861 C 0.40731 0.34017 0.89165 0.0
C862 C 0.46057 0.39721 0.8661 0.0
C863 C 0.44053 0.3714 0.8377 0.0
H864 H 0.66118 0.3245 0.83808 0.0
H865 H 0.59216 0.40384 0.76333 0.0
H866 H 0.56534 0.43858 0.82379 0.0
H867 H 0.57384 0.45401 0.89694 0.0
H868 H 0.65131 0.37976 0.96968 0.0
H869 H 0.66391 0.3353 0.91043 0.0
C870 C 0.63896 0.34834 0.83475 0.0
C871 C 0.62869 0.36188 0.79637 0.0
C872 C 0.62681 0.36982 0.86925 0.0
C873 C 0.60028 0.3931 0.7927 0.0
C874 C 0.58563 0.41323 0.82716 0.0
C875 C 0.59294 0.42768 0.89958 0.0
C876 C 0.61219 0.41981 0.93675 0.0
C877 C 0.60073 0.40322 0.86543 0.0
C878 C 0.63697 0.38614 0.94075 0.0
C879 C 0.64379 0.36079 0.90715 0.0
H880 H 0.74468 0.34023 0.16252 0.0
H881 H 0.66811 0.35935 0.26482 0.0
H882 H 0.62062 0.39937 0.2254 0.0
H883 H 0.60084 0.43057 0.16193 0.0
H884 H 0.67872 0.41375 0.06061 0.0
H885 H 0.72476 0.37106 0.09902 0.0
C886 C 0.71778 0.35338 0.17629 0.0
C887 C 0.71037 0.34678 0.21678 0.0
C888 C 0.69027 0.37656 0.15334 0.0
C889 C 0.67499 0.36394 0.23385 0.0
C890 C 0.64752 0.38678 0.21123 0.0
C891 C 0.6275 0.41696 0.14813 0.0
C892 C 0.63613 0.42512 0.10836 0.0
C893 C 0.65471 0.39329 0.17089 0.0
C894 C 0.67131 0.40787 0.09115 0.0
C895 C 0.69782 0.38359 0.11318 0.0
H896 H 0.66219 0.68602 0.24181 0.0
H897 H 0.70017 0.75018 0.14146 0.0
H898 H 0.66529 0.7026 0.09443 0.0
H899 H 0.63217 0.63835 0.08172 0.0
H900 H 0.59457 0.57361 0.18166 0.0
H901 H 0.6211 0.62605 0.22906 0.0
C902 C 0.66216 0.69009 0.20968 0.0
C903 C 0.68434 0.72129 0.19515 0.0
C904 C 0.64274 0.66217 0.18276 0.0
C905 C 0.68354 0.72637 0.15348 0.0
C906 C 0.66388 0.69897 0.12652 0.0
C907 C 0.62954 0.63583 0.11389 0.0
C908 C 0.61232 0.60176 0.12826 0.0
C909 C 0.64481 0.66598 0.14082 0.0
C910 C 0.60807 0.59937 0.16991 0.0
C911 C 0.62329 0.6293 0.19699 0.0
H912 H 0.33728 0.66221 0.16807 0.0
H913 H 0.43286 0.64753 0.25957 0.0
H914 H 0.47469 0.61069 0.21002 0.0
H915 H 0.48208 0.58094 0.14122 0.0
H916 H 0.38497 0.59589 0.05114 0.0
H917 H 0.34618 0.6368 0.09948 0.0
C918 C 0.36759 0.65167 0.1771 0.0
C919 C 0.38222 0.65777 0.2172 0.0
C920 C 0.39126 0.63141 0.14863 0.0
C921 C 0.42093 0.64276 0.22884 0.0
C922 C 0.4449 0.62218 0.2005 0.0
C923 C 0.45294 0.59414 0.13202 0.0
C924 C 0.43624 0.58587 0.09291 0.0
C925 C 0.43025 0.61631 0.16032 0.0
C926 C 0.39819 0.60219 0.08122 0.0
C927 C 0.37596 0.62517 0.10884 0.0
H928 H 0.46329 0.38437 0.24797 0.0
H929 H 0.34871 0.44857 0.24537 0.0
H930 H 0.36668 0.47914 0.18374 0.0
H931 H 0.40775 0.4752 0.12378 0.0
H932 H 0.52108 0.40832 0.12375 0.0
H933 H 0.51164 0.39142 0.19343 0.0
C934 C 0.44344 0.40655 0.23477 0.0
C935 C 0.4049 0.41452 0.25066 0.0
C936 C 0.4533 0.42242 0.19837 0.0
C937 C 0.37865 0.44257 0.23336 0.0
C938 C 0.38868 0.45949 0.19796 0.0
C939 C 0.43069 0.45756 0.13943 0.0
C940 C 0.46444 0.44207 0.11883 0.0
C941 C 0.42472 0.44767 0.17899 0.0
C942 C 0.49466 0.42016 0.13928 0.0
C943 C 0.48916 0.41038 0.17895 0.0
H944 H 0.89934 0.75314 0.68732 0.0
H945 H 0.78916 0.68407 0.6705 0.0
H946 H 0.81968 0.64359 0.61705 0.0
H947 H 0.8798 0.62188 0.58076 0.0
H948 H 0.99174 0.68728 0.5971 0.0
H949 H 0.95828 0.73554 0.64361 0.0
C950 C 0.88196 0.72952 0.67162 0.0
C951 C 0.84223 0.72132 0.68378 0.0
C952 C 0.89995 0.70564 0.64049 0.0
C953 C 0.82003 0.69078 0.66265 0.0
C954 C 0.83737 0.66755 0.63175 0.0
C955 C 0.89652 0.64739 0.59359 0.0
C956 C 0.93807 0.65103 0.58554 0.0
C957 C 0.87759 0.67394 0.62121 0.0
C958 C 0.95948 0.68413 0.60239 0.0
C959 C 0.94051 0.71135 0.62953 0.0
H960 H 0.37389 0.81382 0.61913 0.0
H961 H 0.48583 0.77385 0.67727 0.0
H962 H 0.52013 0.83446 0.6606 0.0
H963 H 0.51493 0.90163 0.63681 0.0
H964 H 0.40294 0.94131 0.5776 0.0
H965 H 0.37083 0.87812 0.58869 0.0
C966 C 0.40613 0.81814 0.627 0.0
C967 C 0.42757 0.79004 0.64933 0.0
C968 C 0.42475 0.85335 0.61863 0.0
C969 C 0.46921 0.79521 0.65963 0.0
C970 C 0.4884 0.83005 0.6508 0.0
C971 C 0.48338 0.89653 0.62665 0.0
C972 C 0.46071 0.92621 0.60753 0.0
C973 C 0.46587 0.85991 0.63182 0.0
C974 C 0.4204 0.91899 0.59325 0.0
C975 C 0.40233 0.88287 0.59915 0.0
H976 H 0.20572 0.431 0.71546 0.0
H977 H 0.27027 0.41282 0.60541 0.0
H978 H 0.21549 0.44764 0.56873 0.0
H979 H 0.14459 0.47253 0.56642 0.0
H980 H 0.07815 0.48595 0.67632 0.0
H981 H 0.13828 0.4633 0.71473 0.0
C982 C 0.20802 0.43547 0.68359 0.0
C983 C 0.24131 0.41891 0.66287 0.0
C984 C 0.1757 0.45368 0.66264 0.0
C985 C 0.2448 0.4254 0.62186 0.0
C986 C 0.21325 0.44478 0.60087 0.0
C987 C 0.14329 0.47082 0.59883 0.0
C988 C 0.10655 0.47983 0.61832 0.0
C989 C 0.17773 0.45725 0.62065 0.0
C990 C 0.10574 0.47835 0.66044 0.0
C991 C 0.14014 0.46557 0.68247 0.0
H992 H 0.68661 0.24215 0.65515 0.0
H993 H 0.77704 0.15015 0.67557 0.0
H994 H 0.73406 0.10226 0.63666 0.0
H995 H 0.66689 0.08479 0.60617 0.0
H996 H 0.57543 0.17574 0.58675 0.0
H997 H 0.62312 0.22614 0.61546 0.0
C998 C 0.69728 0.21178 0.65047 0.0
C999 C 0.73459 0.19953 0.66897 0.0
C1000 C 0.67207 0.18424 0.62868 0.0
C1001 C 0.7483 0.16027 0.66204 0.0
C1002 C 0.72364 0.13281 0.63997 0.0
C1003 C 0.65759 0.11575 0.60776 0.0
C1004 C 0.61749 0.1266 0.59538 0.0
C1005 C 0.68483 0.14418 0.62467 0.0
C1006 C 0.60607 0.16677 0.59647 0.0
C1007 C 0.63323 0.19547 0.61307 0.0
H1008 H 0.88378 0.35945 0.30096 0.0
H1009 H 0.80812 0.34241 0.40167 0.0
H1010 H 0.85102 0.38736 0.4447 0.0
H1011 H 0.91199 0.43025 0.45461 0.0
H1012 H 0.98579 0.44779 0.35234 0.0
H1013 H 0.9418 0.40458 0.30973 0.0
C1014 C 0.87657 0.36562 0.33229 0.0
C1015 C 0.84283 0.34727 0.34794 0.0
C1016 C 0.90122 0.3918 0.35693 0.0
C1017 C 0.83388 0.35601 0.38864 0.0
C1018 C 0.85849 0.38175 0.4134 0.0
C1019 C 0.91828 0.42486 0.42297 0.0
C1020 C 0.95268 0.44226 0.40721 0.0
C1021 C 0.89251 0.39968 0.39802 0.0
C1022 C 0.95996 0.43481 0.36586 0.0
C1023 C 0.93473 0.40994 0.34118 0.0
H1024 H 0.70516 0.82397 0.3867 0.0
H1025 H 0.67887 0.87847 0.27431 0.0
H1026 H 0.62894 0.923 0.307 0.0
H1027 H 0.59098 0.94605 0.36751 0.0
H1028 H 0.62111 0.89511 0.48107 0.0
H1029 H 0.67083 0.85037 0.44831 0.0
C1030 C 0.6886 0.84564 0.36933 0.0
C1031 C 0.69588 0.84734 0.32773 0.0
C1032 C 0.66032 0.87208 0.38871 0.0
C1033 C 0.67422 0.87618 0.30616 0.0
C1034 C 0.64543 0.90173 0.32492 0.0
C1035 C 0.60851 0.92528 0.38519 0.0
C1036 C 0.60175 0.92412 0.42695 0.0
C1037 C 0.63796 0.89991 0.36617 0.0
C1038 C 0.62539 0.89707 0.44911 0.0
C1039 C 0.65387 0.87122 0.43025 0.0
H1040 H 0.22545 0.69445 0.3564 0.0
H1041 H 0.12463 0.77289 0.32789 0.0
H1042 H 0.08017 0.73619 0.37006 0.0
H1043 H 0.06825 0.67817 0.41298 0.0
H1044 H 0.17095 0.60158 0.44095 0.0
H1045 H 0.2153 0.64091 0.40233 0.0
C1046 C 0.1938 0.70388 0.3594 0.0
C1047 C 0.17893 0.73682 0.33815 0.0
C1048 C 0.16822 0.68266 0.38429 0.0
C1049 C 0.13756 0.74801 0.34336 0.0
C1050 C 0.11188 0.72679 0.36769 0.0
C1051 C 0.10056 0.67071 0.41164 0.0
C1052 C 0.11584 0.6366 0.43101 0.0
C1053 C 0.1266 0.69367 0.38827 0.0
C1054 C 0.15788 0.62745 0.42726 0.0
C1055 C 0.18348 0.64994 0.40469 0.0
H1056 H 0.39611 0.24132 0.37244 0.0
H1057 H 0.28976 0.16724 0.35539 0.0
H1058 H 0.32356 0.1166 0.39402 0.0
H1059 H 0.38498 0.09087 0.42848 0.0
H1060 H 0.49094 0.16473 0.449 0.0
H1061 H 0.45556 0.21802 0.41402 0.0
C1062 C 0.38023 0.21429 0.37757 0.0
C1063 C 0.34072 0.20779 0.36009 0.0
C1064 C 0.39982 0.18514 0.40049 0.0
C1065 C 0.32044 0.17276 0.36759 0.0
C1066 C 0.33971 0.14372 0.38988 0.0
C1067 C 0.40018 0.11879 0.42564 0.0
C1068 C 0.44058 0.12373 0.44092 0.0
C1069 C 0.37968 0.1492 0.4057 0.0
C1070 C 0.45973 0.16025 0.43756 0.0
C1071 C 0.43961 0.19063 0.41733 0.0
H1072 H 0.6706 0.79946 0.68409 0.0
H1073 H 0.76583 0.88691 0.69941 0.0
H1074 H 0.72813 0.92915 0.65389 0.0
H1075 H 0.66611 0.94424 0.61469 0.0
H1076 H 0.56905 0.85924 0.5992 0.0
H1077 H 0.60988 0.81264 0.63887 0.0
C1078 C 0.68316 0.82764 0.67723 0.0
C1079 C 0.72077 0.84018 0.69575 0.0
C1080 C 0.6611 0.85218 0.65088 0.0
C1081 C 0.7368 0.87662 0.68613 0.0
C1082 C 0.71531 0.90084 0.65994 0.0
C1083 C 0.65404 0.91527 0.61948 0.0
C1084 C 0.61439 0.90542 0.60458 0.0
C1085 C 0.67717 0.8893 0.64287 0.0
C1086 C 0.59948 0.86755 0.61041 0.0
C1087 C 0.62269 0.84109 0.63342 0.0
H1088 H 0.64065 0.18171 0.34428 0.0
H1089 H 0.65146 0.24789 0.45886 0.0
H1090 H 0.62535 0.19114 0.49252 0.0
H1091 H 0.60048 0.12259 0.48815 0.0
H1092 H 0.59439 0.0567 0.37284 0.0
H1093 H 0.62133 0.1131 0.34051 0.0
C1094 C 0.63772 0.18359 0.37672 0.0
C1095 C 0.64828 0.21842 0.39928 0.0
C1096 C 0.62521 0.15067 0.39559 0.0
C1097 C 0.64306 0.22126 0.44102 0.0
C1098 C 0.62893 0.18873 0.46019 0.0
C1099 C 0.60632 0.12026 0.45619 0.0
C1100 C 0.5958 0.08582 0.43266 0.0
C1101 C 0.62056 0.1531 0.43772 0.0
C1102 C 0.60262 0.08309 0.39126 0.0
C1103 C 0.61736 0.11536 0.37278 0.0
H1104 H 0.82976 0.61215 0.31852 0.0
H1105 H 0.77454 0.63404 0.43321 0.0
H1106 H 0.83326 0.60222 0.46703 0.0
H1107 H 0.9052 0.58208 0.46479 0.0
H1108 H 0.96364 0.5679 0.35036 0.0
H1109 H 0.89881 0.58364 0.3153 0.0
C1110 C 0.83032 0.60889 0.35082 0.0
C1111 C 0.79882 0.62609 0.3737 0.0
C1112 C 0.86522 0.59339 0.36999 0.0
C1113 C 0.79875 0.62107 0.41523 0.0
C1114 C 0.83257 0.60357 0.43451 0.0
C1115 C 0.90387 0.58221 0.43214 0.0
C1116 C 0.93952 0.57521 0.41023 0.0
C1117 C 0.86693 0.59203 0.41238 0.0
C1118 C 0.93688 0.57425 0.36794 0.0
C1119 C 0.89982 0.58297 0.34789 0.0
H1120 H 0.36194 0.8016 0.36104 0.0
H1121 H 0.27172 0.89643 0.36225 0.0
H1122 H 0.3123 0.93316 0.4146 0.0
H1123 H 0.37764 0.94276 0.45166 0.0
H1124 H 0.4711 0.85154 0.44632 0.0
H1125 H 0.42431 0.80802 0.40528 0.0
C1126 C 0.35088 0.83008 0.37314 0.0
C1127 C 0.31424 0.84664 0.35716 0.0
C1128 C 0.37485 0.85146 0.40266 0.0
C1129 C 0.30011 0.88332 0.37349 0.0
C1130 C 0.32323 0.90429 0.40353 0.0
C1131 C 0.3873 0.91285 0.44244 0.0
C1132 C 0.42772 0.90034 0.45145 0.0
C1133 C 0.36123 0.88925 0.41719 0.0
C1134 C 0.44001 0.86161 0.43985 0.0
C1135 C 0.41348 0.83708 0.41585 0.0
H1136 H 0.16693 0.30203 0.36 0.0
H1137 H 0.27357 0.37549 0.38133 0.0
H1138 H 0.23649 0.41911 0.42783 0.0
H1139 H 0.17165 0.44182 0.4551 0.0
H1140 H 0.064 0.37054 0.43457 0.0
H1141 H 0.10371 0.32017 0.3962 0.0
C1142 C 0.18212 0.32728 0.37525 0.0
C1143 C 0.22266 0.3359 0.36636 0.0
C1144 C 0.16048 0.35267 0.40222 0.0
C1145 C 0.24216 0.36842 0.3869 0.0
C1146 C 0.22104 0.39347 0.41369 0.0
C1147 C 0.15726 0.41467 0.44315 0.0
C1148 C 0.1152 0.40977 0.44727 0.0
C1149 C 0.17991 0.38661 0.42052 0.0
C1150 C 0.0966 0.37461 0.43194 0.0
C1151 C 0.11915 0.34614 0.40956 0.0
H1152 H 0.34869 0.14889 0.72386 0.0
H1153 H 0.34145 0.23935 0.63765 0.0
H1154 H 0.38796 0.20071 0.59427 0.0
H1155 H 0.43339 0.14165 0.5814 0.0
H1156 H 0.4438 0.05399 0.67039 0.0
H1157 H 0.39371 0.09046 0.71125 0.0
C1158 C 0.35706 0.16015 0.69549 0.0
C1159 C 0.34117 0.19724 0.6843 0.0
C1160 C 0.38467 0.13798 0.67082 0.0
C1161 C 0.35299 0.21114 0.64739 0.0
C1162 C 0.37969 0.18891 0.62239 0.0
C1163 C 0.42423 0.13028 0.60944 0.0
C1164 C 0.44232 0.09469 0.62243 0.0
C1165 C 0.39602 0.1523 0.63378 0.0
C1166 C 0.4305 0.08107 0.65942 0.0
C1167 C 0.40181 0.10204 0.68297 0.0
H1168 H 0.89776 0.30034 0.66374 0.0
H1169 H 0.80664 0.3868 0.70208 0.0
H1170 H 0.83785 0.4363 0.664 0.0
H1171 H 0.89133 0.45729 0.62071 0.0
H1172 H 0.9828 0.37306 0.57918 0.0
H1173 H 0.95129 0.32157 0.61648 0.0
C1174 C 0.88469 0.32997 0.66378 0.0
C1175 C 0.84927 0.33906 0.68644 0.0
C1176 C 0.90292 0.35926 0.64076 0.0
C1177 C 0.83329 0.37801 0.68531 0.0
C1178 C 0.85133 0.40681 0.66334 0.0
C1179 C 0.9045 0.42765 0.61933 0.0
C1180 C 0.93984 0.41975 0.59659 0.0
C1181 C 0.88614 0.39801 0.64099 0.0
C1182 C 0.95567 0.38063 0.59578 0.0
C1183 C 0.93765 0.35099 0.61753 0.0
H1184 H 0.17514 0.67211 0.73477 0.0
H1185 H 0.26457 0.67004 0.64277 0.0
H1186 H 0.21667 0.63472 0.59532 0.0
H1187 H 0.14722 0.60736 0.57891 0.0
H1188 H 0.05941 0.61086 0.67301 0.0
H1189 H 0.10865 0.64246 0.72 0.0
C1190 C 0.18441 0.66367 0.70445 0.0
C1191 C 0.22335 0.67392 0.69241 0.0
C1192 C 0.1567 0.64379 0.67729 0.0
C1193 C 0.23478 0.66247 0.65298 0.0
C1194 C 0.20729 0.64245 0.62569 0.0
C1195 C 0.13893 0.61502 0.60967 0.0
C1196 C 0.09923 0.60691 0.62185 0.0
C1197 C 0.16778 0.63347 0.63728 0.0
C1198 C 0.0894 0.61678 0.66218 0.0
C1199 C 0.11764 0.63494 0.68943 0.0
loop_
_geom_bond_atom_site_label_1
_geom_bond_atom_site_label_2
_geom_bond_distance
_geom_bond_site_symmetry_2
_ccdc_geom_bond_type
Co0 N5 2.057 . S
Co0 O17 2.021 . S
Co0 O20 2.062 . S
Co0 O24 2.117 . S
Co0 O25 2.020 . S
C1 O21 1.259 . S
C1 O24 1.258 . S
Co2 N11 2.057 . S
Co2 O18 2.117 . S
Co2 O19 2.020 . S
Co2 O21 2.021 . S
Co2 O26 2.062 . S
C3 N5 1.316 . S
C3 N6 1.347 . S
C3 H8 0.931 . S
C4 N5 1.375 . S
C4 C7 1.350 . S
C4 H9 0.930 . S
N5 Co0 2.057 . S
N5 C3 1.316 . S
N5 C4 1.375 . S
N6 C3 1.347 . S
N6 C7 1.373 . S
C7 C4 1.350 . S
C7 N6 1.373 . S
C7 H28 0.931 . S
H8 C3 0.931 . S
H9 C4 0.930 . S
C10 O17 1.259 . S
C10 O18 1.258 . S
N11 Co2 2.057 . S
N11 C12 1.316 . S
N11 C13 1.375 . S
C12 N11 1.316 . S
C12 N14 1.347 . S
C12 H23 0.931 . S
C13 N11 1.375 . S
C13 C15 1.350 . S
C13 H22 0.930 . S
N14 C12 1.347 . S
N14 C15 1.373 . S
C15 C13 1.350 . S
C15 N14 1.373 . S
C15 H29 0.931 . S
C16 O19 1.256 . S
C16 O20 1.255 . S
O17 Co0 2.021 . S
O17 C10 1.259 . S
O18 Co2 2.117 . S
O18 C10 1.258 . S
O19 Co2 2.020 . S
O19 C16 1.256 . S
O20 Co0 2.062 . S
O20 C16 1.255 . S
O21 C1 1.259 . S
O21 Co2 2.021 . S
H22 C13 0.930 . S
H23 C12 0.931 . S
O24 Co0 2.117 . S
O24 C1 1.258 . S
O25 Co0 2.020 . S
O25 C27 1.256 . S
O26 Co2 2.062 . S
O26 C27 1.255 . S
C27 O25 1.256 . S
C27 O26 1.255 . S
H28 C7 0.931 . S
H29 C15 0.931 . S
Co30 N35 2.057 . S
Co30 O47 2.021 . S
Co30 O50 2.062 . S
Co30 O54 2.117 . S
Co30 O55 2.020 . S
C31 O51 1.259 . S
C31 O54 1.258 . S
Co32 N41 2.057 . S
Co32 O48 2.117 . S
Co32 O49 2.020 . S
Co32 O51 2.021 . S
Co32 O56 2.062 . S
C33 N35 1.316 . S
C33 N36 1.347 . S
C33 H38 0.931 . S
C34 N35 1.375 . S
C34 C37 1.350 . S
C34 H39 0.930 . S
N35 Co30 2.057 . S
N35 C33 1.316 . S
N35 C34 1.375 . S
N36 C33 1.347 . S
N36 C37 1.373 . S
C37 C34 1.350 . S
C37 N36 1.373 . S
C37 H58 0.931 . S
H38 C33 0.931 . S
H39 C34 0.930 . S
C40 O47 1.259 . S
C40 O48 1.258 . S
N41 Co32 2.057 . S
N41 C42 1.316 . S
N41 C43 1.375 . S
C42 N41 1.316 . S
C42 N44 1.347 . S
C42 H53 0.931 . S
C43 N41 1.375 . S
C43 C45 1.350 . S
C43 H52 0.930 . S
N44 C42 1.347 . S
N44 C45 1.373 . S
C45 C43 1.350 . S
C45 N44 1.373 . S
C45 H59 0.931 . S
C46 O49 1.256 . S
C46 O50 1.255 . S
O47 Co30 2.021 . S
O47 C40 1.259 . S
O48 Co32 2.117 . S
O48 C40 1.258 . S
O49 Co32 2.020 . S
O49 C46 1.256 . S
O50 Co30 2.062 . S
O50 C46 1.255 . S
O51 C31 1.259 . S
O51 Co32 2.021 . S
H52 C43 0.930 . S
H53 C42 0.931 . S
O54 Co30 2.117 . S
O54 C31 1.258 . S
O55 Co30 2.020 . S
O55 C57 1.256 . S
O56 Co32 2.062 . S
O56 C57 1.255 . S
C57 O55 1.256 . S
C57 O56 1.255 . S
H58 C37 0.931 . S
H59 C45 0.931 . S
Co60 N65 2.057 . S
Co60 O77 2.021 . S
Co60 O80 2.062 . S
Co60 O84 2.117 . S
Co60 O85 2.020 . S
C61 O81 1.259 . S
C61 O84 1.258 . S
Co62 N71 2.057 . S
Co62 O78 2.117 . S
Co62 O79 2.020 . S
Co62 O81 2.021 . S
Co62 O86 2.062 . S
C63 N65 1.316 . S
C63 N66 1.347 . S
C63 H68 0.931 . S
C64 N65 1.375 . S
C64 C67 1.350 . S
C64 H69 0.930 . S
N65 Co60 2.057 . S
N65 C63 1.316 . S
N65 C64 1.375 . S
N66 C63 1.347 . S
N66 C67 1.373 . S
C67 C64 1.350 . S
C67 N66 1.373 . S
C67 H88 0.931 . S
H68 C63 0.931 . S
H69 C64 0.930 . S
C70 O77 1.259 . S
C70 O78 1.258 . S
N71 Co62 2.057 . S
N71 C72 1.316 . S
N71 C73 1.375 . S
C72 N71 1.316 . S
C72 N74 1.347 . S
C72 H83 0.931 . S
C73 N71 1.375 . S
C73 C75 1.350 . S
C73 H82 0.930 . S
N74 C72 1.347 . S
N74 C75 1.373 . S
C75 C73 1.350 . S
C75 N74 1.373 . S
C75 H89 0.931 . S
C76 O79 1.256 . S
C76 O80 1.255 . S
O77 Co60 2.021 . S
O77 C70 1.259 . S
O78 Co62 2.117 . S
O78 C70 1.258 . S
O79 Co62 2.020 . S
O79 C76 1.256 . S
O80 Co60 2.062 . S
O80 C76 1.255 . S
O81 C61 1.259 . S
O81 Co62 2.021 . S
H82 C73 0.930 . S
H83 C72 0.931 . S
O84 Co60 2.117 . S
O84 C61 1.258 . S
O85 Co60 2.020 . S
O85 C87 1.256 . S
O86 Co62 2.062 . S
O86 C87 1.255 . S
C87 O85 1.256 . S
C87 O86 1.255 . S
H88 C67 0.931 . S
H89 C75 0.931 . S
Co90 N95 2.057 . S
Co90 O107 2.021 . S
Co90 O110 2.062 . S
Co90 O114 2.117 . S
Co90 O115 2.020 . S
C91 O111 1.259 . S
C91 O114 1.258 . S
Co92 N101 2.057 . S
Co92 O108 2.117 . S
Co92 O109 2.020 . S
Co92 O111 2.021 . S
Co92 O116 2.062 . S
C93 N95 1.316 . S
C93 N96 1.347 . S
C93 H98 0.931 . S
C94 N95 1.375 . S
C94 C97 1.350 . S
C94 H99 0.930 . S
N95 Co90 2.057 . S
N95 C93 1.316 . S
N95 C94 1.375 . S
N96 C93 1.347 . S
N96 C97 1.373 . S
C97 C94 1.350 . S
C97 N96 1.373 . S
C97 H118 0.931 . S
H98 C93 0.931 . S
H99 C94 0.930 . S
C100 O107 1.259 . S
C100 O108 1.258 . S
N101 Co92 2.057 . S
N101 C102 1.316 . S
N101 C103 1.375 . S
C102 N101 1.316 . S
C102 N104 1.347 . S
C102 H113 0.931 . S
C103 N101 1.375 . S
C103 C105 1.350 . S
C103 H112 0.930 . S
N104 C102 1.347 . S
N104 C105 1.373 . S
C105 C103 1.350 . S
C105 N104 1.373 . S
C105 H119 0.931 . S
C106 O109 1.256 . S
C106 O110 1.255 . S
O107 Co90 2.021 . S
O107 C100 1.259 . S
O108 Co92 2.117 . S
O108 C100 1.258 . S
O109 Co92 2.020 . S
O109 C106 1.256 . S
O110 Co90 2.062 . S
O110 C106 1.255 . S
O111 C91 1.259 . S
O111 Co92 2.021 . S
H112 C103 0.930 . S
H113 C102 0.931 . S
O114 Co90 2.117 . S
O114 C91 1.258 . S
O115 Co90 2.020 . S
O115 C117 1.256 . S
O116 Co92 2.062 . S
O116 C117 1.255 . S
C117 O115 1.256 . S
C117 O116 1.255 . S
H118 C97 0.931 . S
H119 C105 0.931 . S
Co120 N125 2.057 . S
Co120 O137 2.021 . S
Co120 O140 2.062 . S
Co120 O144 2.117 . S
Co120 O145 2.020 . S
C121 O141 1.259 . S
C121 O144 1.258 . S
Co122 N131 2.057 . S
Co122 O138 2.117 . S
Co122 O139 2.020 . S
Co122 O141 2.021 . S
Co122 O146 2.062 . S
C123 N125 1.316 . S
C123 N126 1.347 . S
C123 H128 0.931 . S
C124 N125 1.375 . S
C124 C127 1.350 . S
C124 H129 0.930 . S
N125 Co120 2.057 . S
N125 C123 1.316 . S
N125 C124 1.375 . S
N126 C123 1.347 . S
N126 C127 1.373 . S
C127 C124 1.350 . S
C127 N126 1.373 . S
C127 H148 0.931 . S
H128 C123 0.931 . S
H129 C124 0.930 . S
C130 O137 1.259 . S
C130 O138 1.258 . S
N131 Co122 2.057 . S
N131 C132 1.316 . S
N131 C133 1.375 . S
C132 N131 1.316 . S
C132 N134 1.347 . S
C132 H143 0.931 . S
C133 N131 1.375 . S
C133 C135 1.350 . S
C133 H142 0.930 . S
N134 C132 1.347 . S
N134 C135 1.373 . S
C135 C133 1.350 . S
C135 N134 1.373 . S
C135 H149 0.931 . S
C136 O139 1.256 . S
C136 O140 1.255 . S
O137 Co120 2.021 . S
O137 C130 1.259 . S
O138 Co122 2.117 . S
O138 C130 1.258 . S
O139 Co122 2.020 . S
O139 C136 1.256 . S
O140 Co120 2.062 . S
O140 C136 1.255 . S
O141 C121 1.259 . S
O141 Co122 2.021 . S
H142 C133 0.930 . S
H143 C132 0.931 . S
O144 Co120 2.117 . S
O144 C121 1.258 . S
O145 Co120 2.020 . S
O145 C147 1.256 . S
O146 Co122 2.062 . S
O146 C147 1.255 . S
C147 O145 1.256 . S
C147 O146 1.255 . S
H148 C127 0.931 . S
H149 C135 0.931 . S
Co150 N155 2.057 . S
Co150 O167 2.021 . S
Co150 O170 2.062 . S
Co150 O174 2.117 . S
Co150 O175 2.020 . S
C151 O171 1.259 . S
C151 O174 1.258 . S
Co152 N161 2.057 . S
Co152 O168 2.117 . S
Co152 O169 2.020 . S
Co152 O171 2.021 . S
Co152 O176 2.062 . S
C153 N155 1.316 . S
C153 N156 1.347 . S
C153 H158 0.931 . S
C154 N155 1.375 . S
C154 C157 1.350 . S
C154 H159 0.930 . S
N155 Co150 2.057 . S
N155 C153 1.316 . S
N155 C154 1.375 . S
N156 C153 1.347 . S
N156 C157 1.373 . S
C157 C154 1.350 . S
C157 N156 1.373 . S
C157 H178 0.931 . S
H158 C153 0.931 . S
H159 C154 0.930 . S
C160 O167 1.259 . S
C160 O168 1.258 . S
N161 Co152 2.057 . S
N161 C162 1.316 . S
N161 C163 1.375 . S
C162 N161 1.316 . S
C162 N164 1.347 . S
C162 H173 0.931 . S
C163 N161 1.375 . S
C163 C165 1.350 . S
C163 H172 0.930 . S
N164 C162 1.347 . S
N164 C165 1.373 . S
C165 C163 1.350 . S
C165 N164 1.373 . S
C165 H179 0.931 . S
C166 O169 1.256 . S
C166 O170 1.255 . S
O167 Co150 2.021 . S
O167 C160 1.259 . S
O168 Co152 2.117 . S
O168 C160 1.258 . S
O169 Co152 2.020 . S
O169 C166 1.256 . S
O170 Co150 2.062 . S
O170 C166 1.255 . S
O171 C151 1.259 . S
O171 Co152 2.021 . S
H172 C163 0.930 . S
H173 C162 0.931 . S
O174 Co150 2.117 . S
O174 C151 1.258 . S
O175 Co150 2.020 . S
O175 C177 1.256 . S
O176 Co152 2.062 . S
O176 C177 1.255 . S
C177 O175 1.256 . S
C177 O176 1.255 . S
H178 C157 0.931 . S
H179 C165 0.931 . S
Co180 N185 2.057 . S
Co180 O197 2.021 . S
Co180 O200 2.062 . S
Co180 O204 2.117 . S
Co180 O205 2.020 . S
C181 O201 1.259 . S
C181 O204 1.258 . S
Co182 N191 2.057 . S
Co182 O198 2.117 . S
Co182 O199 2.020 . S
Co182 O201 2.021 . S
Co182 O206 2.062 . S
C183 N185 1.316 . S
C183 N186 1.347 . S
C183 H188 0.931 . S
C184 N185 1.375 . S
C184 C187 1.350 . S
C184 H189 0.930 . S
N185 Co180 2.057 . S
N185 C183 1.316 . S
N185 C184 1.375 . S
N186 C183 1.347 . S
N186 C187 1.373 . S
C187 C184 1.350 . S
C187 N186 1.373 . S
C187 H208 0.931 . S
H188 C183 0.931 . S
H189 C184 0.930 . S
C190 O197 1.259 . S
C190 O198 1.258 . S
N191 Co182 2.057 . S
N191 C192 1.316 . S
N191 C193 1.375 . S
C192 N191 1.316 . S
C192 N194 1.347 . S
C192 H203 0.931 . S
C193 N191 1.375 . S
C193 C195 1.350 . S
C193 H202 0.930 . S
N194 C192 1.347 . S
N194 C195 1.373 . S
C195 C193 1.350 . S
C195 N194 1.373 . S
C195 H209 0.931 . S
C196 O199 1.256 . S
C196 O200 1.255 . S
O197 Co180 2.021 . S
O197 C190 1.259 . S
O198 Co182 2.117 . S
O198 C190 1.258 . S
O199 Co182 2.020 . S
O199 C196 1.256 . S
O200 Co180 2.062 . S
O200 C196 1.255 . S
O201 C181 1.259 . S
O201 Co182 2.021 . S
H202 C193 0.930 . S
H203 C192 0.931 . S
O204 Co180 2.117 . S
O204 C181 1.258 . S
O205 Co180 2.020 . S
O205 C207 1.256 . S
O206 Co182 2.062 . S
O206 C207 1.255 . S
C207 O205 1.256 . S
C207 O206 1.255 . S
H208 C187 0.931 . S
H209 C195 0.931 . S
Co210 N215 2.057 . S
Co210 O227 2.021 . S
Co210 O230 2.062 . S
Co210 O234 2.117 . S
Co210 O235 2.020 . S
C211 O231 1.259 . S
C211 O234 1.258 . S
Co212 N221 2.057 . S
Co212 O228 2.117 . S
Co212 O229 2.020 . S
Co212 O231 2.021 . S
Co212 O236 2.062 . S
C213 N215 1.316 . S
C213 N216 1.347 . S
C213 H218 0.931 . S
C214 N215 1.375 . S
C214 C217 1.350 . S
C214 H219 0.930 . S
N215 Co210 2.057 . S
N215 C213 1.316 . S
N215 C214 1.375 . S
N216 C213 1.347 . S
N216 C217 1.373 . S
C217 C214 1.350 . S
C217 N216 1.373 . S
C217 H238 0.931 . S
H218 C213 0.931 . S
H219 C214 0.930 . S
C220 O227 1.259 . S
C220 O228 1.258 . S
N221 Co212 2.057 . S
N221 C222 1.316 . S
N221 C223 1.375 . S
C222 N221 1.316 . S
C222 N224 1.347 . S
C222 H233 0.931 . S
C223 N221 1.375 . S
C223 C225 1.350 . S
C223 H232 0.930 . S
N224 C222 1.347 . S
N224 C225 1.373 . S
C225 C223 1.350 . S
C225 N224 1.373 . S
C225 H239 0.931 . S
C226 O229 1.256 . S
C226 O230 1.255 . S
O227 Co210 2.021 . S
O227 C220 1.259 . S
O228 Co212 2.117 . S
O228 C220 1.258 . S
O229 Co212 2.020 . S
O229 C226 1.256 . S
O230 Co210 2.062 . S
O230 C226 1.255 . S
O231 C211 1.259 . S
O231 Co212 2.021 . S
H232 C223 0.930 . S
H233 C222 0.931 . S
O234 Co210 2.117 . S
O234 C211 1.258 . S
O235 Co210 2.020 . S
O235 C237 1.256 . S
O236 Co212 2.062 . S
O236 C237 1.255 . S
C237 O235 1.256 . S
C237 O236 1.255 . S
H238 C217 0.931 . S
H239 C225 0.931 . S
Fe240 O241 1.889 . S
Fe240 O244 1.712 1_655 S
Fe240 O249 2.080 . S
Fe240 O254 1.933 1_655 S
Fe240 O260 2.080 . S
Fe240 O269 1.933 1_655 S
O241 Fe240 1.889 . S
O241 Fe243 1.715 1_545 S
Fe242 O244 1.886 . S
Fe242 O245 1.715 1_545 S
Fe242 O252 1.935 1_545 S
Fe242 O253 2.077 . S
Fe242 O259 1.935 1_545 S
Fe242 O268 2.077 . S
Fe243 O241 1.715 1_565 S
Fe243 O246 1.886 . S
Fe243 O250 1.935 1_565 S
Fe243 O255 2.077 . S
Fe243 O261 1.935 1_565 S
Fe243 O265 2.077 . S
O244 Fe240 1.712 1_455 S
O244 Fe242 1.886 . S
O245 Fe242 1.715 1_565 S
O245 Fe247 1.894 . S
O246 Fe243 1.886 . S
O246 Fe247 1.707 1_655 S
Fe247 O245 1.894 . S
Fe247 O246 1.707 1_455 S
Fe247 O251 2.085 . S
Fe247 O256 1.929 1_455 S
Fe247 O258 2.084 . S
Fe247 O266 1.929 1_455 S
C248 O260 1.381 . S
C248 O261 1.421 . S
O249 Fe240 2.080 . S
O249 C262 1.381 . S
O250 Fe243 1.935 1_545 S
O250 C262 1.421 . S
O251 Fe247 2.085 . S
O251 C267 1.381 . S
O252 Fe242 1.935 1_565 S
O252 C267 1.421 . S
O253 Fe242 2.077 . S
O253 C257 1.381 . S
O254 Fe240 1.933 1_455 S
O254 C257 1.421 . S
O255 Fe243 2.077 . S
O255 C263 1.381 . S
O256 Fe247 1.929 1_655 S
O256 C263 1.421 . S
C257 O253 1.381 . S
C257 O254 1.421 . S
O258 Fe247 2.084 . S
O258 C270 1.381 . S
O259 Fe242 1.935 1_565 S
O259 C270 1.421 . S
O260 Fe240 2.080 . S
O260 C248 1.381 . S
O261 Fe243 1.935 1_545 S
O261 C248 1.421 . S
C262 O249 1.381 . S
C262 O250 1.421 . S
C263 O255 1.381 . S
C263 O256 1.421 . S
C264 O265 1.381 . S
C264 O266 1.421 . S
O265 Fe243 2.077 . S
O265 C264 1.381 . S
O266 Fe247 1.929 1_655 S
O266 C264 1.421 . S
C267 O251 1.381 . S
C267 O252 1.421 . S
O268 Fe242 2.077 . S
O268 C271 1.381 . S
O269 Fe240 1.933 1_455 S
O269 C271 1.421 . S
C270 O258 1.381 . S
C270 O259 1.421 . S
C271 O268 1.381 . S
C271 O269 1.421 . S
Fe272 O273 1.886 1_556 S
Fe272 O276 1.715 . S
Fe272 O281 2.077 . S
Fe272 O286 1.935 . S
Fe272 O292 2.077 1_556 S
Fe272 O301 1.935 1_556 S
O273 Fe272 1.886 1_554 S
O273 Fe275 1.715 1_565 S
Fe274 O276 1.886 . S
Fe274 O277 1.715 1_566 S
Fe274 O284 1.935 1_565 S
Fe274 O285 2.077 . S
Fe274 O291 1.935 1_566 S
Fe274 O300 2.077 1_556 S
Fe275 O273 1.715 1_545 S
Fe275 O278 1.886 . S
Fe275 O282 1.935 1_544 S
Fe275 O287 2.077 1_554 S
Fe275 O293 1.935 1_545 S
Fe275 O297 2.077 . S
O276 Fe272 1.715 . S
O276 Fe274 1.886 . S
O277 Fe274 1.715 1_544 S
O277 Fe279 1.886 . S
O278 Fe275 1.886 . S
O278 Fe279 1.715 . S
Fe279 O277 1.886 . S
Fe279 O278 1.715 . S
Fe279 O283 2.077 1_554 S
Fe279 O288 1.935 1_554 S
Fe279 O290 2.077 . S
Fe279 O298 1.935 . S
C280 O292 1.381 . S
C280 O293 1.421 . S
O281 Fe272 2.077 . S
O281 C294 1.381 . S
O282 Fe275 1.935 1_566 S
O282 C294 1.421 . S
O283 Fe279 2.077 1_556 S
O283 C299 1.381 . S
O284 Fe274 1.935 1_545 S
O284 C299 1.421 . S
O285 Fe274 2.077 . S
O285 C289 1.381 . S
O286 Fe272 1.935 . S
O286 C289 1.421 . S
O287 Fe275 2.077 1_556 S
O287 C295 1.381 . S
O288 Fe279 1.935 1_556 S
O288 C295 1.421 . S
C289 O285 1.381 . S
C289 O286 1.421 . S
O290 Fe279 2.077 . S
O290 C302 1.381 . S
O291 Fe274 1.935 1_544 S
O291 C302 1.421 . S
O292 Fe272 2.077 1_554 S
O292 C280 1.381 . S
O293 Fe275 1.935 1_565 S
O293 C280 1.421 . S
C294 O281 1.381 . S
C294 O282 1.421 . S
C295 O287 1.381 . S
C295 O288 1.421 . S
C296 O297 1.381 . S
C296 O298 1.421 . S
O297 Fe275 2.077 . S
O297 C296 1.381 . S
O298 Fe279 1.935 . S
O298 C296 1.421 . S
C299 O283 1.381 . S
C299 O284 1.421 . S
O300 Fe274 2.077 1_554 S
O300 C303 1.381 . S
O301 Fe272 1.935 1_554 S
O301 C303 1.421 . S
C302 O290 1.381 . S
C302 O291 1.421 . S
C303 O300 1.381 . S
C303 O301 1.421 . S
Fe304 O305 1.889 . S
Fe304 O308 1.712 1_655 S
Fe304 O313 2.080 1_554 S
Fe304 O318 1.933 1_654 S
Fe304 O324 2.080 . S
Fe304 O333 1.933 1_655 S
O305 Fe304 1.889 . S
O305 Fe307 1.715 1_554 S
Fe306 O308 1.886 . S
Fe306 O309 1.715 . S
Fe306 O316 1.935 1_554 S
Fe306 O317 2.077 1_554 S
Fe306 O323 1.935 . S
Fe306 O332 2.077 . S
Fe307 O305 1.715 1_556 S
Fe307 O310 1.886 . S
Fe307 O314 1.935 . S
Fe307 O319 2.077 . S
Fe307 O325 1.935 1_556 S
Fe307 O329 2.077 1_556 S
O308 Fe304 1.712 1_455 S
O308 Fe306 1.886 . S
O309 Fe306 1.715 . S
O309 Fe311 1.894 1_554 S
O310 Fe307 1.886 . S
O310 Fe311 1.707 1_655 S
Fe311 O309 1.894 1_556 S
Fe311 O310 1.707 1_455 S
Fe311 O315 2.085 . S
Fe311 O320 1.930 1_455 S
Fe311 O322 2.084 1_556 S
Fe311 O330 1.929 1_456 S
C312 O324 1.381 . S
C312 O325 1.421 . S
O313 Fe304 2.080 1_556 S
O313 C326 1.381 . S
O314 Fe307 1.935 . S
O314 C326 1.421 . S
O315 Fe311 2.085 . S
O315 C331 1.381 . S
O316 Fe306 1.935 1_556 S
O316 C331 1.421 . S
O317 Fe306 2.077 1_556 S
O317 C321 1.381 . S
O318 Fe304 1.933 1_456 S
O318 C321 1.421 . S
O319 Fe307 2.077 . S
O319 C327 1.381 . S
O320 Fe311 1.930 1_655 S
O320 C327 1.421 . S
C321 O317 1.381 . S
C321 O318 1.421 . S
O322 Fe311 2.084 1_554 S
O322 C334 1.381 . S
O323 Fe306 1.935 . S
O323 C334 1.421 . S
O324 Fe304 2.080 . S
O324 C312 1.381 . S
O325 Fe307 1.935 1_554 S
O325 C312 1.421 . S
C326 O313 1.381 . S
C326 O314 1.421 . S
C327 O319 1.381 . S
C327 O320 1.421 . S
C328 O329 1.381 . S
C328 O330 1.421 . S
O329 Fe307 2.077 1_554 S
O329 C328 1.381 . S
O330 Fe311 1.929 1_654 S
O330 C328 1.421 . S
C331 O315 1.381 . S
C331 O316 1.421 . S
O332 Fe306 2.077 . S
O332 C335 1.381 . S
O333 Fe304 1.933 1_455 S
O333 C335 1.421 . S
C334 O322 1.381 . S
C334 O323 1.421 . S
C335 O332 1.381 . S
C335 O333 1.421 . S
Fe336 O337 1.886 . S
Fe336 O340 1.715 . S
Fe336 O345 2.077 . S
Fe336 O350 1.935 . S
Fe336 O356 2.077 . S
Fe336 O365 1.935 . S
O337 Fe336 1.886 . S
O337 Fe339 1.715 1_556 S
Fe338 O340 1.886 . S
Fe338 O341 1.715 1_556 S
Fe338 O348 1.935 1_556 S
Fe338 O349 2.077 . S
Fe338 O355 1.935 1_556 S
Fe338 O364 2.077 . S
Fe339 O337 1.715 1_554 S
Fe339 O342 1.886 . S
Fe339 O346 1.935 1_554 S
Fe339 O351 2.077 . S
Fe339 O357 1.935 1_554 S
Fe339 O361 2.077 . S
O340 Fe336 1.715 . S
O340 Fe338 1.886 . S
O341 Fe338 1.715 1_554 S
O341 Fe343 1.886 . S
O342 Fe339 1.886 . S
O342 Fe343 1.715 . S
Fe343 O341 1.886 . S
Fe343 O342 1.715 . S
Fe343 O347 2.077 . S
Fe343 O352 1.935 . S
Fe343 O354 2.077 . S
Fe343 O362 1.935 . S
C344 O356 1.381 . S
C344 O357 1.421 . S
O345 Fe336 2.077 . S
O345 C358 1.381 . S
O346 Fe339 1.935 1_556 S
O346 C358 1.421 . S
O347 Fe343 2.077 . S
O347 C363 1.381 . S
O348 Fe338 1.935 1_554 S
O348 C363 1.421 . S
O349 Fe338 2.077 . S
O349 C353 1.381 . S
O350 Fe336 1.935 . S
O350 C353 1.421 . S
O351 Fe339 2.077 . S
O351 C359 1.381 . S
O352 Fe343 1.935 . S
O352 C359 1.421 . S
C353 O349 1.381 . S
C353 O350 1.421 . S
O354 Fe343 2.077 . S
O354 C366 1.381 . S
O355 Fe338 1.935 1_554 S
O355 C366 1.421 . S
O356 Fe336 2.077 . S
O356 C344 1.381 . S
O357 Fe339 1.935 1_556 S
O357 C344 1.421 . S
C358 O345 1.381 . S
C358 O346 1.421 . S
C359 O351 1.381 . S
C359 O352 1.421 . S
C360 O361 1.381 . S
C360 O362 1.421 . S
O361 Fe339 2.077 . S
O361 C360 1.381 . S
O362 Fe343 1.935 . S
O362 C360 1.421 . S
C363 O347 1.381 . S
C363 O348 1.421 . S
O364 Fe338 2.077 . S
O364 C367 1.381 . S
O365 Fe336 1.935 . S
O365 C367 1.421 . S
C366 O354 1.381 . S
C366 O355 1.421 . S
C367 O364 1.381 . S
C367 O365 1.421 . S
Fe368 O369 1.886 1_655 S
Fe368 O372 1.715 . S
Fe368 O377 2.068 1_655 S
Fe368 O382 1.924 1_655 S
Fe368 O388 2.087 . S
Fe368 O397 1.946 . S
O369 Fe368 1.886 1_455 S
O369 Fe371 1.715 . S
Fe370 O372 1.886 . S
Fe370 O373 1.715 . S
Fe370 O380 1.935 1_655 S
Fe370 O381 2.077 1_655 S
Fe370 O387 1.935 . S
Fe370 O396 2.077 . S
Fe371 O369 1.715 . S
Fe371 O374 1.886 . S
Fe371 O378 1.935 . S
Fe371 O383 2.077 . S
Fe371 O389 1.935 1_455 S
Fe371 O393 2.077 1_455 S
O372 Fe368 1.715 . S
O372 Fe370 1.886 . S
O373 Fe370 1.715 . S
O373 Fe375 1.886 1_655 S
O374 Fe371 1.886 . S
O374 Fe375 1.715 . S
Fe375 O373 1.886 1_455 S
Fe375 O374 1.715 . S
Fe375 O379 2.092 . S
Fe375 O384 1.951 . S
Fe375 O386 2.064 1_455 S
Fe375 O394 1.918 1_455 S
C376 O388 1.381 . S
C376 O389 1.421 . S
O377 Fe368 2.068 1_455 S
O377 C390 1.381 . S
O378 Fe371 1.935 . S
O378 C390 1.421 . S
O379 Fe375 2.092 . S
O379 C395 1.381 . S
O380 Fe370 1.935 1_455 S
O380 C395 1.421 . S
O381 Fe370 2.077 1_455 S
O381 C385 1.381 . S
O382 Fe368 1.924 1_455 S
O382 C385 1.421 . S
O383 Fe371 2.077 . S
O383 C391 1.381 . S
O384 Fe375 1.951 . S
O384 C391 1.421 . S
C385 O381 1.381 . S
C385 O382 1.421 . S
O386 Fe375 2.064 1_655 S
O386 C398 1.381 . S
O387 Fe370 1.935 . S
O387 C398 1.421 . S
O388 Fe368 2.087 . S
O388 C376 1.381 . S
O389 Fe371 1.935 1_655 S
O389 C376 1.421 . S
C390 O377 1.381 . S
C390 O378 1.421 . S
C391 O383 1.381 . S
C391 O384 1.421 . S
C392 O393 1.381 . S
C392 O394 1.421 . S
O393 Fe371 2.077 1_655 S
O393 C392 1.381 . S
O394 Fe375 1.918 1_655 S
O394 C392 1.421 . S
C395 O379 1.381 . S
C395 O380 1.421 . S
O396 Fe370 2.077 . S
O396 C399 1.381 . S
O397 Fe368 1.946 . S
O397 C399 1.421 . S
C398 O386 1.381 . S
C398 O387 1.421 . S
C399 O396 1.381 . S
C399 O397 1.421 . S
Fe400 O401 1.886 . S
Fe400 O404 1.715 . S
Fe400 O409 2.077 . S
Fe400 O414 1.935 . S
Fe400 O420 2.077 . S
Fe400 O429 1.935 . S
O401 Fe400 1.886 . S
O401 Fe403 1.715 1_565 S
Fe402 O404 1.886 . S
Fe402 O405 1.715 1_565 S
Fe402 O412 1.935 1_565 S
Fe402 O413 2.077 . S
Fe402 O419 1.935 1_565 S
Fe402 O428 2.077 . S
Fe403 O401 1.715 1_545 S
Fe403 O406 1.886 . S
Fe403 O410 1.935 1_545 S
Fe403 O415 2.077 . S
Fe403 O421 1.935 1_545 S
Fe403 O425 2.077 . S
O404 Fe400 1.715 . S
O404 Fe402 1.886 . S
O405 Fe402 1.715 1_545 S
O405 Fe407 1.886 . S
O406 Fe403 1.886 . S
O406 Fe407 1.715 . S
Fe407 O405 1.886 . S
Fe407 O406 1.715 . S
Fe407 O411 2.077 . S
Fe407 O416 1.935 . S
Fe407 O418 2.077 . S
Fe407 O426 1.935 . S
C408 O420 1.381 . S
C408 O421 1.421 . S
O409 Fe400 2.077 . S
O409 C422 1.381 . S
O410 Fe403 1.935 1_565 S
O410 C422 1.421 . S
O411 Fe407 2.077 . S
O411 C427 1.381 . S
O412 Fe402 1.935 1_545 S
O412 C427 1.421 . S
O413 Fe402 2.077 . S
O413 C417 1.381 . S
O414 Fe400 1.935 . S
O414 C417 1.421 . S
O415 Fe403 2.077 . S
O415 C423 1.381 . S
O416 Fe407 1.935 . S
O416 C423 1.421 . S
C417 O413 1.381 . S
C417 O414 1.421 . S
O418 Fe407 2.077 . S
O418 C430 1.381 . S
O419 Fe402 1.935 1_545 S
O419 C430 1.421 . S
O420 Fe400 2.077 . S
O420 C408 1.381 . S
O421 Fe403 1.935 1_565 S
O421 C408 1.421 . S
C422 O409 1.381 . S
C422 O410 1.421 . S
C423 O415 1.381 . S
C423 O416 1.421 . S
C424 O425 1.381 . S
C424 O426 1.421 . S
O425 Fe403 2.077 . S
O425 C424 1.381 . S
O426 Fe407 1.935 . S
O426 C424 1.421 . S
C427 O411 1.381 . S
C427 O412 1.421 . S
O428 Fe402 2.077 . S
O428 C431 1.381 . S
O429 Fe400 1.935 . S
O429 C431 1.421 . S
C430 O418 1.381 . S
C430 O419 1.421 . S
C431 O428 1.381 . S
C431 O429 1.421 . S
H432 C438 0.930 . S
H433 C441 0.930 . S
H434 C442 0.930 . S
H435 C443 0.930 . S
H436 C446 0.930 . S
H437 C447 0.930 . S
C438 H432 0.930 . S
C438 C439 1.355 . S
C438 C440 1.415 . S
C439 C438 1.355 . S
C439 C441 1.419 . S
C440 C438 1.415 . S
C440 C445 1.425 . S
C440 C447 1.409 . S
C441 H433 0.930 . S
C441 C439 1.419 . S
C441 C442 1.362 . S
C442 H434 0.930 . S
C442 C441 1.362 . S
C442 C445 1.409 . S
C443 H435 0.930 . S
C443 C444 1.355 . S
C443 C445 1.415 . S
C444 C443 1.355 . S
C444 C446 1.419 . S
C445 C440 1.425 . S
C445 C442 1.409 . S
C445 C443 1.415 . S
C446 H436 0.930 . S
C446 C444 1.419 . S
C446 C447 1.362 . S
C447 H437 0.930 . S
C447 C440 1.409 . S
C447 C446 1.362 . S
H448 C454 0.930 . S
H449 C457 0.930 . S
H450 C458 0.930 . S
H451 C459 0.930 . S
H452 C462 0.930 . S
H453 C463 0.930 . S
C454 H448 0.930 . S
C454 C455 1.355 . S
C454 C456 1.415 . S
C455 C454 1.355 . S
C455 C457 1.419 . S
C456 C454 1.415 . S
C456 C461 1.425 . S
C456 C463 1.409 . S
C457 H449 0.930 . S
C457 C455 1.419 . S
C457 C458 1.362 . S
C458 H450 0.930 . S
C458 C457 1.362 . S
C458 C461 1.409 . S
C459 H451 0.930 . S
C459 C460 1.355 . S
C459 C461 1.415 . S
C460 C459 1.355 . S
C460 C462 1.419 . S
C461 C456 1.425 . S
C461 C458 1.409 . S
C461 C459 1.415 . S
C462 H452 0.930 . S
C462 C460 1.419 . S
C462 C463 1.362 . S
C463 H453 0.930 . S
C463 C456 1.409 . S
C463 C462 1.362 . S
H464 C470 0.930 . S
H465 C473 0.930 . S
H466 C474 0.930 . S
H467 C475 0.930 . S
H468 C478 0.930 . S
H469 C479 0.930 . S
C470 H464 0.930 . S
C470 C471 1.355 . S
C470 C472 1.415 . S
C471 C470 1.355 . S
C471 C473 1.419 . S
C472 C470 1.415 . S
C472 C477 1.425 . S
C472 C479 1.409 . S
C473 H465 0.930 . S
C473 C471 1.419 . S
C473 C474 1.362 . S
C474 H466 0.930 . S
C474 C473 1.362 . S
C474 C477 1.409 . S
C475 H467 0.930 . S
C475 C476 1.355 . S
C475 C477 1.415 . S
C476 C475 1.355 . S
C476 C478 1.419 . S
C477 C472 1.425 . S
C477 C474 1.409 . S
C477 C475 1.415 . S
C478 H468 0.930 . S
C478 C476 1.419 . S
C478 C479 1.362 . S
C479 H469 0.930 . S
C479 C472 1.409 . S
C479 C478 1.362 . S
H480 C486 0.930 . S
H481 C489 0.930 . S
H482 C490 0.930 . S
H483 C491 0.930 . S
H484 C494 0.930 . S
H485 C495 0.930 . S
C486 H480 0.930 . S
C486 C487 1.355 . S
C486 C488 1.415 . S
C487 C486 1.355 . S
C487 C489 1.419 . S
C488 C486 1.415 . S
C488 C493 1.425 . S
C488 C495 1.409 . S
C489 H481 0.930 . S
C489 C487 1.419 . S
C489 C490 1.362 . S
C490 H482 0.930 . S
C490 C489 1.362 . S
C490 C493 1.409 . S
C491 H483 0.930 . S
C491 C492 1.355 . S
C491 C493 1.415 . S
C492 C491 1.355 . S
C492 C494 1.419 . S
C493 C488 1.425 . S
C493 C490 1.409 . S
C493 C491 1.415 . S
C494 H484 0.930 . S
C494 C492 1.419 . S
C494 C495 1.362 . S
C495 H485 0.930 . S
C495 C488 1.409 . S
C495 C494 1.362 . S
H496 C502 0.930 . S
H497 C505 0.930 . S
H498 C506 0.930 . S
H499 C507 0.930 . S
H500 C510 0.930 . S
H501 C511 0.930 . S
C502 H496 0.930 . S
C502 C503 1.355 . S
C502 C504 1.415 . S
C503 C502 1.355 . S
C503 C505 1.419 . S
C504 C502 1.415 . S
C504 C509 1.425 . S
C504 C511 1.409 . S
C505 H497 0.930 . S
C505 C503 1.419 . S
C505 C506 1.362 . S
C506 H498 0.930 . S
C506 C505 1.362 . S
C506 C509 1.409 . S
C507 H499 0.930 . S
C507 C508 1.355 . S
C507 C509 1.415 . S
C508 C507 1.355 . S
C508 C510 1.419 . S
C509 C504 1.425 . S
C509 C506 1.409 . S
C509 C507 1.415 . S
C510 H500 0.930 . S
C510 C508 1.419 . S
C510 C511 1.362 . S
C511 H501 0.930 . S
C511 C504 1.409 . S
C511 C510 1.362 . S
H512 C518 0.930 . S
H513 C521 0.930 . S
H514 C522 0.930 . S
H515 C523 0.930 . S
H516 C526 0.930 . S
H517 C527 0.930 . S
C518 H512 0.930 . S
C518 C519 1.355 . S
C518 C520 1.415 . S
C519 C518 1.355 . S
C519 C521 1.419 . S
C520 C518 1.415 . S
C520 C525 1.425 . S
C520 C527 1.409 . S
C521 H513 0.930 . S
C521 C519 1.419 . S
C521 C522 1.362 . S
C522 H514 0.930 . S
C522 C521 1.362 . S
C522 C525 1.409 . S
C523 H515 0.930 . S
C523 C524 1.355 . S
C523 C525 1.415 . S
C524 C523 1.355 . S
C524 C526 1.419 . S
C525 C520 1.425 . S
C525 C522 1.409 . S
C525 C523 1.415 . S
C526 H516 0.930 . S
C526 C524 1.419 . S
C526 C527 1.362 . S
C527 H517 0.930 . S
C527 C520 1.409 . S
C527 C526 1.362 . S
H528 C534 0.930 . S
H529 C537 0.930 . S
H530 C538 0.930 . S
H531 C539 0.930 . S
H532 C542 0.930 . S
H533 C543 0.930 . S
C534 H528 0.930 . S
C534 C535 1.355 . S
C534 C536 1.415 . S
C535 C534 1.355 . S
C535 C537 1.419 . S
C536 C534 1.415 . S
C536 C541 1.425 . S
C536 C543 1.409 . S
C537 H529 0.930 . S
C537 C535 1.419 . S
C537 C538 1.362 . S
C538 H530 0.930 . S
C538 C537 1.362 . S
C538 C541 1.409 . S
C539 H531 0.930 . S
C539 C540 1.355 . S
C539 C541 1.415 . S
C540 C539 1.355 . S
C540 C542 1.419 . S
C541 C536 1.425 . S
C541 C538 1.409 . S
C541 C539 1.415 . S
C542 H532 0.930 . S
C542 C540 1.419 . S
C542 C543 1.362 . S
C543 H533 0.930 . S
C543 C536 1.409 . S
C543 C542 1.362 . S
H544 C550 0.930 . S
H545 C553 0.930 . S
H546 C554 0.930 . S
H547 C555 0.930 . S
H548 C558 0.930 . S
H549 C559 0.930 . S
C550 H544 0.930 . S
C550 C551 1.355 . S
C550 C552 1.415 . S
C551 C550 1.355 . S
C551 C553 1.419 . S
C552 C550 1.415 . S
C552 C557 1.425 . S
C552 C559 1.409 . S
C553 H545 0.930 . S
C553 C551 1.419 . S
C553 C554 1.362 . S
C554 H546 0.930 . S
C554 C553 1.362 . S
C554 C557 1.409 . S
C555 H547 0.930 . S
C555 C556 1.355 . S
C555 C557 1.415 . S
C556 C555 1.355 . S
C556 C558 1.419 . S
C557 C552 1.425 . S
C557 C554 1.409 . S
C557 C555 1.415 . S
C558 H548 0.930 . S
C558 C556 1.419 . S
C558 C559 1.362 . S
C559 H549 0.930 . S
C559 C552 1.409 . S
C559 C558 1.362 . S
H560 C566 0.930 . S
H561 C569 0.930 . S
H562 C570 0.930 . S
H563 C571 0.930 . S
H564 C574 0.930 . S
H565 C575 0.930 . S
C566 H560 0.930 . S
C566 C567 1.355 . S
C566 C568 1.415 . S
C567 C566 1.355 . S
C567 C569 1.419 . S
C568 C566 1.415 . S
C568 C573 1.425 . S
C568 C575 1.409 . S
C569 H561 0.930 . S
C569 C567 1.419 . S
C569 C570 1.362 . S
C570 H562 0.930 . S
C570 C569 1.362 . S
C570 C573 1.409 . S
C571 H563 0.930 . S
C571 C572 1.355 . S
C571 C573 1.415 . S
C572 C571 1.355 . S
C572 C574 1.419 . S
C573 C568 1.425 . S
C573 C570 1.409 . S
C573 C571 1.415 . S
C574 H564 0.930 . S
C574 C572 1.419 . S
C574 C575 1.362 . S
C575 H565 0.930 . S
C575 C568 1.409 . S
C575 C574 1.362 . S
H576 C582 0.930 . S
H577 C585 0.930 . S
H578 C586 0.930 . S
H579 C587 0.930 . S
H580 C590 0.930 . S
H581 C591 0.930 . S
C582 H576 0.930 . S
C582 C583 1.355 . S
C582 C584 1.415 . S
C583 C582 1.355 . S
C583 C585 1.419 . S
C584 C582 1.415 . S
C584 C589 1.425 . S
C584 C591 1.409 . S
C585 H577 0.930 . S
C585 C583 1.419 . S
C585 C586 1.362 . S
C586 H578 0.930 . S
C586 C585 1.362 . S
C586 C589 1.409 . S
C587 H579 0.930 . S
C587 C588 1.355 . S
C587 C589 1.415 . S
C588 C587 1.355 . S
C588 C590 1.419 . S
C589 C584 1.425 . S
C589 C586 1.409 . S
C589 C587 1.415 . S
C590 H580 0.930 . S
C590 C588 1.419 . S
C590 C591 1.362 . S
C591 H581 0.930 . S
C591 C584 1.409 . S
C591 C590 1.362 . S
H592 C598 0.930 . S
H593 C601 0.930 . S
H594 C602 0.930 . S
H595 C603 0.930 . S
H596 C606 0.930 . S
H597 C607 0.930 . S
C598 H592 0.930 . S
C598 C599 1.355 . S
C598 C600 1.415 . S
C599 C598 1.355 . S
C599 C601 1.419 . S
C600 C598 1.415 . S
C600 C605 1.425 . S
C600 C607 1.409 . S
C601 H593 0.930 . S
C601 C599 1.419 . S
C601 C602 1.362 . S
C602 H594 0.930 . S
C602 C601 1.362 . S
C602 C605 1.409 . S
C603 H595 0.930 . S
C603 C604 1.355 . S
C603 C605 1.415 . S
C604 C603 1.355 . S
C604 C606 1.419 . S
C605 C600 1.425 . S
C605 C602 1.409 . S
C605 C603 1.415 . S
C606 H596 0.930 . S
C606 C604 1.419 . S
C606 C607 1.362 . S
C607 H597 0.930 . S
C607 C600 1.409 . S
C607 C606 1.362 . S
H608 C614 0.930 . S
H609 C617 0.930 . S
H610 C618 0.930 . S
H611 C619 0.930 . S
H612 C622 0.930 . S
H613 C623 0.930 . S
C614 H608 0.930 . S
C614 C615 1.355 . S
C614 C616 1.415 . S
C615 C614 1.355 . S
C615 C617 1.419 . S
C616 C614 1.415 . S
C616 C621 1.425 . S
C616 C623 1.409 . S
C617 H609 0.930 . S
C617 C615 1.419 . S
C617 C618 1.362 . S
C618 H610 0.930 . S
C618 C617 1.362 . S
C618 C621 1.409 . S
C619 H611 0.930 . S
C619 C620 1.355 . S
C619 C621 1.415 . S
C620 C619 1.355 . S
C620 C622 1.419 . S
C621 C616 1.425 . S
C621 C618 1.409 . S
C621 C619 1.415 . S
C622 H612 0.930 . S
C622 C620 1.419 . S
C622 C623 1.362 . S
C623 H613 0.930 . S
C623 C616 1.409 . S
C623 C622 1.362 . S
H624 C630 0.930 . S
H625 C633 0.930 . S
H626 C634 0.930 . S
H627 C635 0.930 . S
H628 C638 0.930 . S
H629 C639 0.930 . S
C630 H624 0.930 . S
C630 C631 1.355 . S
C630 C632 1.415 . S
C631 C630 1.355 . S
C631 C633 1.419 . S
C632 C630 1.415 . S
C632 C637 1.425 . S
C632 C639 1.409 . S
C633 H625 0.930 . S
C633 C631 1.419 . S
C633 C634 1.362 . S
C634 H626 0.930 . S
C634 C633 1.362 . S
C634 C637 1.409 . S
C635 H627 0.930 . S
C635 C636 1.355 . S
C635 C637 1.415 . S
C636 C635 1.355 . S
C636 C638 1.419 . S
C637 C632 1.425 . S
C637 C634 1.409 . S
C637 C635 1.415 . S
C638 H628 0.930 . S
C638 C636 1.419 . S
C638 C639 1.362 . S
C639 H629 0.930 . S
C639 C632 1.409 . S
C639 C638 1.362 . S
H640 C646 0.930 . S
H641 C649 0.930 . S
H642 C650 0.930 . S
H643 C651 0.930 . S
H644 C654 0.930 . S
H645 C655 0.930 . S
C646 H640 0.930 . S
C646 C647 1.355 . S
C646 C648 1.415 . S
C647 C646 1.355 . S
C647 C649 1.419 . S
C648 C646 1.415 . S
C648 C653 1.425 . S
C648 C655 1.409 . S
C649 H641 0.930 . S
C649 C647 1.419 . S
C649 C650 1.362 . S
C650 H642 0.930 . S
C650 C649 1.362 . S
C650 C653 1.409 . S
C651 H643 0.930 . S
C651 C652 1.355 . S
C651 C653 1.415 . S
C652 C651 1.355 . S
C652 C654 1.419 . S
C653 C648 1.425 . S
C653 C650 1.409 . S
C653 C651 1.415 . S
C654 H644 0.930 . S
C654 C652 1.419 . S
C654 C655 1.362 . S
C655 H645 0.930 . S
C655 C648 1.409 . S
C655 C654 1.362 . S
H656 C662 0.930 . S
H657 C665 0.930 . S
H658 C666 0.930 . S
H659 C667 0.930 . S
H660 C670 0.930 . S
H661 C671 0.930 . S
C662 H656 0.930 . S
C662 C663 1.355 . S
C662 C664 1.415 . S
C663 C662 1.355 . S
C663 C665 1.419 . S
C664 C662 1.415 . S
C664 C669 1.425 . S
C664 C671 1.409 . S
C665 H657 0.930 . S
C665 C663 1.419 . S
C665 C666 1.362 . S
C666 H658 0.930 . S
C666 C665 1.362 . S
C666 C669 1.409 . S
C667 H659 0.930 . S
C667 C668 1.355 . S
C667 C669 1.415 . S
C668 C667 1.355 . S
C668 C670 1.419 . S
C669 C664 1.425 . S
C669 C666 1.409 . S
C669 C667 1.415 . S
C670 H660 0.930 . S
C670 C668 1.419 . S
C670 C671 1.362 . S
C671 H661 0.930 . S
C671 C664 1.409 . S
C671 C670 1.362 . S
H672 C678 0.930 . S
H673 C681 0.930 . S
H674 C682 0.930 . S
H675 C683 0.930 . S
H676 C686 0.930 . S
H677 C687 0.930 . S
C678 H672 0.930 . S
C678 C679 1.355 . S
C678 C680 1.415 . S
C679 C678 1.355 . S
C679 C681 1.419 . S
C680 C678 1.415 . S
C680 C685 1.425 . S
C680 C687 1.409 . S
C681 H673 0.930 . S
C681 C679 1.419 . S
C681 C682 1.362 . S
C682 H674 0.930 . S
C682 C681 1.362 . S
C682 C685 1.409 . S
C683 H675 0.930 . S
C683 C684 1.355 . S
C683 C685 1.415 . S
C684 C683 1.355 . S
C684 C686 1.419 . S
C685 C680 1.425 . S
C685 C682 1.409 . S
C685 C683 1.415 . S
C686 H676 0.930 . S
C686 C684 1.419 . S
C686 C687 1.362 . S
C687 H677 0.930 . S
C687 C680 1.409 . S
C687 C686 1.362 . S
H688 C694 0.930 . S
H689 C697 0.930 . S
H690 C698 0.930 . S
H691 C699 0.930 . S
H692 C702 0.930 . S
H693 C703 0.930 . S
C694 H688 0.930 . S
C694 C695 1.355 . S
C694 C696 1.415 . S
C695 C694 1.355 . S
C695 C697 1.419 . S
C696 C694 1.415 . S
C696 C701 1.425 . S
C696 C703 1.409 . S
C697 H689 0.930 . S
C697 C695 1.419 . S
C697 C698 1.362 . S
C698 H690 0.930 . S
C698 C697 1.362 . S
C698 C701 1.409 . S
C699 H691 0.930 . S
C699 C700 1.355 . S
C699 C701 1.415 . S
C700 C699 1.355 . S
C700 C702 1.419 . S
C701 C696 1.425 . S
C701 C698 1.409 . S
C701 C699 1.415 . S
C702 H692 0.930 . S
C702 C700 1.419 . S
C702 C703 1.362 . S
C703 H693 0.930 . S
C703 C696 1.409 . S
C703 C702 1.362 . S
H704 C710 0.930 . S
H705 C713 0.930 . S
H706 C714 0.930 . S
H707 C715 0.930 . S
H708 C718 0.930 . S
H709 C719 0.930 . S
C710 H704 0.930 . S
C710 C711 1.355 . S
C710 C712 1.415 . S
C711 C710 1.355 . S
C711 C713 1.419 . S
C712 C710 1.415 . S
C712 C717 1.425 . S
C712 C719 1.409 . S
C713 H705 0.930 . S
C713 C711 1.419 . S
C713 C714 1.362 . S
C714 H706 0.930 . S
C714 C713 1.362 . S
C714 C717 1.409 . S
C715 H707 0.930 . S
C715 C716 1.355 . S
C715 C717 1.415 . S
C716 C715 1.355 . S
C716 C718 1.419 . S
C717 C712 1.425 . S
C717 C714 1.409 . S
C717 C715 1.415 . S
C718 H708 0.930 . S
C718 C716 1.419 . S
C718 C719 1.362 . S
C719 H709 0.930 . S
C719 C712 1.409 . S
C719 C718 1.362 . S
H720 C726 0.930 . S
H721 C729 0.930 . S
H722 C730 0.930 . S
H723 C731 0.930 . S
H724 C734 0.930 . S
H725 C735 0.930 . S
C726 H720 0.930 . S
C726 C727 1.355 . S
C726 C728 1.415 . S
C727 C726 1.355 . S
C727 C729 1.419 . S
C728 C726 1.415 . S
C728 C733 1.425 . S
C728 C735 1.409 . S
C729 H721 0.930 . S
C729 C727 1.419 . S
C729 C730 1.362 . S
C730 H722 0.930 . S
C730 C729 1.362 . S
C730 C733 1.409 . S
C731 H723 0.930 . S
C731 C732 1.355 . S
C731 C733 1.415 . S
C732 C731 1.355 . S
C732 C734 1.419 . S
C733 C728 1.425 . S
C733 C730 1.409 . S
C733 C731 1.415 . S
C734 H724 0.930 . S
C734 C732 1.419 . S
C734 C735 1.362 . S
C735 H725 0.930 . S
C735 C728 1.409 . S
C735 C734 1.362 . S
H736 C742 0.930 . S
H737 C745 0.930 . S
H738 C746 0.930 . S
H739 C747 0.930 . S
H740 C750 0.930 . S
H741 C751 0.930 . S
C742 H736 0.930 . S
C742 C743 1.355 . S
C742 C744 1.415 . S
C743 C742 1.355 . S
C743 C745 1.419 . S
C744 C742 1.415 . S
C744 C749 1.425 . S
C744 C751 1.409 . S
C745 H737 0.930 . S
C745 C743 1.419 . S
C745 C746 1.362 . S
C746 H738 0.930 . S
C746 C745 1.362 . S
C746 C749 1.409 . S
C747 H739 0.930 . S
C747 C748 1.355 . S
C747 C749 1.415 . S
C748 C747 1.355 . S
C748 C750 1.419 . S
C749 C744 1.425 . S
C749 C746 1.409 . S
C749 C747 1.415 . S
C750 H740 0.930 . S
C750 C748 1.419 . S
C750 C751 1.362 . S
C751 H741 0.930 . S
C751 C744 1.409 . S
C751 C750 1.362 . S
H752 C758 0.930 . S
H753 C761 0.930 . S
H754 C762 0.930 . S
H755 C763 0.930 . S
H756 C766 0.930 . S
H757 C767 0.930 . S
C758 H752 0.930 . S
C758 C759 1.355 . S
C758 C760 1.415 . S
C759 C758 1.355 . S
C759 C761 1.419 . S
C760 C758 1.415 . S
C760 C765 1.425 . S
C760 C767 1.409 . S
C761 H753 0.930 . S
C761 C759 1.419 . S
C761 C762 1.362 . S
C762 H754 0.930 . S
C762 C761 1.362 . S
C762 C765 1.409 . S
C763 H755 0.930 . S
C763 C764 1.355 . S
C763 C765 1.415 . S
C764 C763 1.355 . S
C764 C766 1.419 . S
C765 C760 1.425 . S
C765 C762 1.409 . S
C765 C763 1.415 . S
C766 H756 0.930 . S
C766 C764 1.419 . S
C766 C767 1.362 . S
C767 H757 0.930 . S
C767 C760 1.409 . S
C767 C766 1.362 . S
H768 C774 0.930 . S
H769 C777 0.930 . S
H770 C778 0.930 . S
H771 C779 0.930 . S
H772 C782 0.930 . S
H773 C783 0.930 . S
C774 H768 0.930 . S
C774 C775 1.355 . S
C774 C776 1.415 . S
C775 C774 1.355 . S
C775 C777 1.419 . S
C776 C774 1.415 . S
C776 C781 1.425 . S
C776 C783 1.409 . S
C777 H769 0.930 . S
C777 C775 1.419 . S
C777 C778 1.362 . S
C778 H770 0.930 . S
C778 C777 1.362 . S
C778 C781 1.409 . S
C779 H771 0.930 . S
C779 C780 1.355 . S
C779 C781 1.415 . S
C780 C779 1.355 . S
C780 C782 1.419 . S
C781 C776 1.425 . S
C781 C778 1.409 . S
C781 C779 1.415 . S
C782 H772 0.930 . S
C782 C780 1.419 . S
C782 C783 1.362 . S
C783 H773 0.930 . S
C783 C776 1.409 . S
C783 C782 1.362 . S
H784 C790 0.930 . S
H785 C793 0.930 . S
H786 C794 0.930 . S
H787 C795 0.930 . S
H788 C798 0.930 . S
H789 C799 0.930 . S
C790 H784 0.930 . S
C790 C791 1.355 . S
C790 C792 1.415 . S
C791 C790 1.355 . S
C791 C793 1.419 . S
C792 C790 1.415 . S
C792 C797 1.425 . S
C792 C799 1.409 . S
C793 H785 0.930 . S
C793 C791 1.419 . S
C793 C794 1.362 . S
C794 H786 0.930 . S
C794 C793 1.362 . S
C794 C797 1.409 . S
C795 H787 0.930 . S
C795 C796 1.355 . S
C795 C797 1.415 . S
C796 C795 1.355 . S
C796 C798 1.419 . S
C797 C792 1.425 . S
C797 C794 1.409 . S
C797 C795 1.415 . S
C798 H788 0.930 . S
C798 C796 1.419 . S
C798 C799 1.362 . S
C799 H789 0.930 . S
C799 C792 1.409 . S
C799 C798 1.362 . S
H800 C806 0.930 . S
H801 C809 0.930 . S
H802 C810 0.930 . S
H803 C811 0.930 . S
H804 C814 0.930 . S
H805 C815 0.930 . S
C806 H800 0.930 . S
C806 C807 1.355 . S
C806 C808 1.415 . S
C807 C806 1.355 . S
C807 C809 1.419 . S
C808 C806 1.415 . S
C808 C813 1.425 . S
C808 C815 1.409 . S
C809 H801 0.930 . S
C809 C807 1.419 . S
C809 C810 1.362 . S
C810 H802 0.930 . S
C810 C809 1.362 . S
C810 C813 1.409 . S
C811 H803 0.930 . S
C811 C812 1.355 . S
C811 C813 1.415 . S
C812 C811 1.355 . S
C812 C814 1.419 . S
C813 C808 1.425 . S
C813 C810 1.409 . S
C813 C811 1.415 . S
C814 H804 0.930 . S
C814 C812 1.419 . S
C814 C815 1.362 . S
C815 H805 0.930 . S
C815 C808 1.409 . S
C815 C814 1.362 . S
H816 C822 0.930 . S
H817 C825 0.930 . S
H818 C826 0.930 . S
H819 C827 0.930 . S
H820 C830 0.930 . S
H821 C831 0.930 . S
C822 H816 0.930 . S
C822 C823 1.355 . S
C822 C824 1.415 . S
C823 C822 1.355 . S
C823 C825 1.419 . S
C824 C822 1.415 . S
C824 C829 1.425 . S
C824 C831 1.409 . S
C825 H817 0.930 . S
C825 C823 1.419 . S
C825 C826 1.362 . S
C826 H818 0.930 . S
C826 C825 1.362 . S
C826 C829 1.409 . S
C827 H819 0.930 . S
C827 C828 1.355 . S
C827 C829 1.415 . S
C828 C827 1.355 . S
C828 C830 1.419 . S
C829 C824 1.425 . S
C829 C826 1.409 . S
C829 C827 1.415 . S
C830 H820 0.930 . S
C830 C828 1.419 . S
C830 C831 1.362 . S
C831 H821 0.930 . S
C831 C824 1.409 . S
C831 C830 1.362 . S
H832 C838 0.930 . S
H833 C841 0.930 . S
H834 C842 0.930 . S
H835 C843 0.930 . S
H836 C846 0.930 . S
H837 C847 0.930 . S
C838 H832 0.930 . S
C838 C839 1.355 . S
C838 C840 1.415 . S
C839 C838 1.355 . S
C839 C841 1.419 . S
C840 C838 1.415 . S
C840 C845 1.425 . S
C840 C847 1.409 . S
C841 H833 0.930 . S
C841 C839 1.419 . S
C841 C842 1.362 . S
C842 H834 0.930 . S
C842 C841 1.362 . S
C842 C845 1.409 . S
C843 H835 0.930 . S
C843 C844 1.355 . S
C843 C845 1.415 . S
C844 C843 1.355 . S
C844 C846 1.419 . S
C845 C840 1.425 . S
C845 C842 1.409 . S
C845 C843 1.415 . S
C846 H836 0.930 . S
C846 C844 1.419 . S
C846 C847 1.362 . S
C847 H837 0.930 . S
C847 C840 1.409 . S
C847 C846 1.362 . S
H848 C854 0.930 . S
H849 C857 0.930 . S
H850 C858 0.930 . S
H851 C859 0.930 . S
H852 C862 0.930 . S
H853 C863 0.930 . S
C854 H848 0.930 . S
C854 C855 1.355 . S
C854 C856 1.415 . S
C855 C854 1.355 . S
C855 C857 1.419 . S
C856 C854 1.415 . S
C856 C861 1.425 . S
C856 C863 1.409 . S
C857 H849 0.930 . S
C857 C855 1.419 . S
C857 C858 1.362 . S
C858 H850 0.930 . S
C858 C857 1.362 . S
C858 C861 1.409 . S
C859 H851 0.930 . S
C859 C860 1.355 . S
C859 C861 1.415 . S
C860 C859 1.355 . S
C860 C862 1.419 . S
C861 C856 1.425 . S
C861 C858 1.409 . S
C861 C859 1.415 . S
C862 H852 0.930 . S
C862 C860 1.419 . S
C862 C863 1.362 . S
C863 H853 0.930 . S
C863 C856 1.409 . S
C863 C862 1.362 . S
H864 C870 0.930 . S
H865 C873 0.930 . S
H866 C874 0.930 . S
H867 C875 0.930 . S
H868 C878 0.930 . S
H869 C879 0.930 . S
C870 H864 0.930 . S
C870 C871 1.355 . S
C870 C872 1.415 . S
C871 C870 1.355 . S
C871 C873 1.419 . S
C872 C870 1.415 . S
C872 C877 1.425 . S
C872 C879 1.409 . S
C873 H865 0.930 . S
C873 C871 1.419 . S
C873 C874 1.362 . S
C874 H866 0.930 . S
C874 C873 1.362 . S
C874 C877 1.409 . S
C875 H867 0.930 . S
C875 C876 1.355 . S
C875 C877 1.415 . S
C876 C875 1.355 . S
C876 C878 1.419 . S
C877 C872 1.425 . S
C877 C874 1.409 . S
C877 C875 1.415 . S
C878 H868 0.930 . S
C878 C876 1.419 . S
C878 C879 1.362 . S
C879 H869 0.930 . S
C879 C872 1.409 . S
C879 C878 1.362 . S
H880 C886 0.930 . S
H881 C889 0.930 . S
H882 C890 0.930 . S
H883 C891 0.930 . S
H884 C894 0.930 . S
H885 C895 0.930 . S
C886 H880 0.930 . S
C886 C887 1.355 . S
C886 C888 1.415 . S
C887 C886 1.355 . S
C887 C889 1.419 . S
C888 C886 1.415 . S
C888 C893 1.425 . S
C888 C895 1.409 . S
C889 H881 0.930 . S
C889 C887 1.419 . S
C889 C890 1.362 . S
C890 H882 0.930 . S
C890 C889 1.362 . S
C890 C893 1.409 . S
C891 H883 0.930 . S
C891 C892 1.355 . S
C891 C893 1.415 . S
C892 C891 1.355 . S
C892 C894 1.419 . S
C893 C888 1.425 . S
C893 C890 1.409 . S
C893 C891 1.415 . S
C894 H884 0.930 . S
C894 C892 1.419 . S
C894 C895 1.362 . S
C895 H885 0.930 . S
C895 C888 1.409 . S
C895 C894 1.362 . S
H896 C902 0.930 . S
H897 C905 0.930 . S
H898 C906 0.930 . S
H899 C907 0.930 . S
H900 C910 0.930 . S
H901 C911 0.930 . S
C902 H896 0.930 . S
C902 C903 1.355 . S
C902 C904 1.415 . S
C903 C902 1.355 . S
C903 C905 1.419 . S
C904 C902 1.415 . S
C904 C909 1.425 . S
C904 C911 1.409 . S
C905 H897 0.930 . S
C905 C903 1.419 . S
C905 C906 1.362 . S
C906 H898 0.930 . S
C906 C905 1.362 . S
C906 C909 1.409 . S
C907 H899 0.930 . S
C907 C908 1.355 . S
C907 C909 1.415 . S
C908 C907 1.355 . S
C908 C910 1.419 . S
C909 C904 1.425 . S
C909 C906 1.409 . S
C909 C907 1.415 . S
C910 H900 0.930 . S
C910 C908 1.419 . S
C910 C911 1.362 . S
C911 H901 0.930 . S
C911 C904 1.409 . S
C911 C910 1.362 . S
H912 C918 0.930 . S
H913 C921 0.930 . S
H914 C922 0.930 . S
H915 C923 0.930 . S
H916 C926 0.930 . S
H917 C927 0.930 . S
C918 H912 0.930 . S
C918 C919 1.355 . S
C918 C920 1.415 . S
C919 C918 1.355 . S
C919 C921 1.419 . S
C920 C918 1.415 . S
C920 C925 1.425 . S
C920 C927 1.409 . S
C921 H913 0.930 . S
C921 C919 1.419 . S
C921 C922 1.362 . S
C922 H914 0.930 . S
C922 C921 1.362 . S
C922 C925 1.409 . S
C923 H915 0.930 . S
C923 C924 1.355 . S
C923 C925 1.415 . S
C924 C923 1.355 . S
C924 C926 1.419 . S
C925 C920 1.425 . S
C925 C922 1.409 . S
C925 C923 1.415 . S
C926 H916 0.930 . S
C926 C924 1.419 . S
C926 C927 1.362 . S
C927 H917 0.930 . S
C927 C920 1.409 . S
C927 C926 1.362 . S
H928 C934 0.930 . S
H929 C937 0.930 . S
H930 C938 0.930 . S
H931 C939 0.930 . S
H932 C942 0.930 . S
H933 C943 0.930 . S
C934 H928 0.930 . S
C934 C935 1.355 . S
C934 C936 1.415 . S
C935 C934 1.355 . S
C935 C937 1.419 . S
C936 C934 1.415 . S
C936 C941 1.425 . S
C936 C943 1.409 . S
C937 H929 0.930 . S
C937 C935 1.419 . S
C937 C938 1.362 . S
C938 H930 0.930 . S
C938 C937 1.362 . S
C938 C941 1.409 . S
C939 H931 0.930 . S
C939 C940 1.355 . S
C939 C941 1.415 . S
C940 C939 1.355 . S
C940 C942 1.419 . S
C941 C936 1.425 . S
C941 C938 1.409 . S
C941 C939 1.415 . S
C942 H932 0.930 . S
C942 C940 1.419 . S
C942 C943 1.362 . S
C943 H933 0.930 . S
C943 C936 1.409 . S
C943 C942 1.362 . S
H944 C950 0.930 . S
H945 C953 0.930 . S
H946 C954 0.930 . S
H947 C955 0.930 . S
H948 C958 0.930 . S
H949 C959 0.930 . S
C950 H944 0.930 . S
C950 C951 1.355 . S
C950 C952 1.415 . S
C951 C950 1.355 . S
C951 C953 1.419 . S
C952 C950 1.415 . S
C952 C957 1.425 . S
C952 C959 1.409 . S
C953 H945 0.930 . S
C953 C951 1.419 . S
C953 C954 1.362 . S
C954 H946 0.930 . S
C954 C953 1.362 . S
C954 C957 1.409 . S
C955 H947 0.930 . S
C955 C956 1.355 . S
C955 C957 1.415 . S
C956 C955 1.355 . S
C956 C958 1.419 . S
C957 C952 1.425 . S
C957 C954 1.409 . S
C957 C955 1.415 . S
C958 H948 0.930 . S
C958 C956 1.419 . S
C958 C959 1.362 . S
C959 H949 0.930 . S
C959 C952 1.409 . S
C959 C958 1.362 . S
H960 C966 0.930 . S
H961 C969 0.930 . S
H962 C970 0.930 . S
H963 C971 0.930 . S
H964 C974 0.930 . S
H965 C975 0.930 . S
C966 H960 0.930 . S
C966 C967 1.355 . S
C966 C968 1.415 . S
C967 C966 1.355 . S
C967 C969 1.419 . S
C968 C966 1.415 . S
C968 C973 1.425 . S
C968 C975 1.409 . S
C969 H961 0.930 . S
C969 C967 1.419 . S
C969 C970 1.362 . S
C970 H962 0.930 . S
C970 C969 1.362 . S
C970 C973 1.409 . S
C971 H963 0.930 . S
C971 C972 1.355 . S
C971 C973 1.415 . S
C972 C971 1.355 . S
C972 C974 1.419 . S
C973 C968 1.425 . S
C973 C970 1.409 . S
C973 C971 1.415 . S
C974 H964 0.930 . S
C974 C972 1.419 . S
C974 C975 1.362 . S
C975 H965 0.930 . S
C975 C968 1.409 . S
C975 C974 1.362 . S
H976 C982 0.930 . S
H977 C985 0.930 . S
H978 C986 0.930 . S
H979 C987 0.930 . S
H980 C990 0.930 . S
H981 C991 0.930 . S
C982 H976 0.930 . S
C982 C983 1.355 . S
C982 C984 1.415 . S
C983 C982 1.355 . S
C983 C985 1.419 . S
C984 C982 1.415 . S
C984 C989 1.425 . S
C984 C991 1.409 . S
C985 H977 0.930 . S
C985 C983 1.419 . S
C985 C986 1.362 . S
C986 H978 0.930 . S
C986 C985 1.362 . S
C986 C989 1.409 . S
C987 H979 0.930 . S
C987 C988 1.355 . S
C987 C989 1.415 . S
C988 C987 1.355 . S
C988 C990 1.419 . S
C989 C984 1.425 . S
C989 C986 1.409 . S
C989 C987 1.415 . S
C990 H980 0.930 . S
C990 C988 1.419 . S
C990 C991 1.362 . S
C991 H981 0.930 . S
C991 C984 1.409 . S
C991 C990 1.362 . S
H992 C998 0.930 . S
H993 C1001 0.930 . S
H994 C1002 0.930 . S
H995 C1003 0.930 . S
H996 C1006 0.930 . S
H997 C1007 0.930 . S
C998 H992 0.930 . S
C998 C999 1.355 . S
C998 C1000 1.415 . S
C999 C998 1.355 . S
C999 C1001 1.419 . S
C1000 C998 1.415 . S
C1000 C1005 1.425 . S
C1000 C1007 1.409 . S
C1001 H993 0.930 . S
C1001 C999 1.419 . S
C1001 C1002 1.362 . S
C1002 H994 0.930 . S
C1002 C1001 1.362 . S
C1002 C1005 1.409 . S
C1003 H995 0.930 . S
C1003 C1004 1.355 . S
C1003 C1005 1.415 . S
C1004 C1003 1.355 . S
C1004 C1006 1.419 . S
C1005 C1000 1.425 . S
C1005 C1002 1.409 . S
C1005 C1003 1.415 . S
C1006 H996 0.930 . S
C1006 C1004 1.419 . S
C1006 C1007 1.362 . S
C1007 H997 0.930 . S
C1007 C1000 1.409 . S
C1007 C1006 1.362 . S
H1008 C1014 0.930 . S
H1009 C1017 0.930 . S
H1010 C1018 0.930 . S
H1011 C1019 0.930 . S
H1012 C1022 0.930 . S
H1013 C1023 0.930 . S
C1014 H1008 0.930 . S
C1014 C1015 1.355 . S
C1014 C1016 1.415 . S
C1015 C1014 1.355 . S
C1015 C1017 1.419 . S
C1016 C1014 1.415 . S
C1016 C1021 1.425 . S
C1016 C1023 1.409 . S
C1017 H1009 0.930 . S
C1017 C1015 1.419 . S
C1017 C1018 1.362 . S
C1018 H1010 0.930 . S
C1018 C1017 1.362 . S
C1018 C1021 1.409 . S
C1019 H1011 0.930 . S
C1019 C1020 1.355 . S
C1019 C1021 1.415 . S
C1020 C1019 1.355 . S
C1020 C1022 1.419 . S
C1021 C1016 1.425 . S
C1021 C1018 1.409 . S
C1021 C1019 1.415 . S
C1022 H1012 0.930 . S
C1022 C1020 1.419 . S
C1022 C1023 1.362 . S
C1023 H1013 0.930 . S
C1023 C1016 1.409 . S
C1023 C1022 1.362 . S
H1024 C1030 0.930 . S
H1025 C1033 0.930 . S
H1026 C1034 0.930 . S
H1027 C1035 0.930 . S
H1028 C1038 0.930 . S
H1029 C1039 0.930 . S
C1030 H1024 0.930 . S
C1030 C1031 1.355 . S
C1030 C1032 1.415 . S
C1031 C1030 1.355 . S
C1031 C1033 1.419 . S
C1032 C1030 1.415 . S
C1032 C1037 1.425 . S
C1032 C1039 1.409 . S
C1033 H1025 0.930 . S
C1033 C1031 1.419 . S
C1033 C1034 1.362 . S
C1034 H1026 0.930 . S
C1034 C1033 1.362 . S
C1034 C1037 1.409 . S
C1035 H1027 0.930 . S
C1035 C1036 1.355 . S
C1035 C1037 1.415 . S
C1036 C1035 1.355 . S
C1036 C1038 1.419 . S
C1037 C1032 1.425 . S
C1037 C1034 1.409 . S
C1037 C1035 1.415 . S
C1038 H1028 0.930 . S
C1038 C1036 1.419 . S
C1038 C1039 1.362 . S
C1039 H1029 0.930 . S
C1039 C1032 1.409 . S
C1039 C1038 1.362 . S
H1040 C1046 0.930 . S
H1041 C1049 0.930 . S
H1042 C1050 0.930 . S
H1043 C1051 0.930 . S
H1044 C1054 0.930 . S
H1045 C1055 0.930 . S
C1046 H1040 0.930 . S
C1046 C1047 1.355 . S
C1046 C1048 1.415 . S
C1047 C1046 1.355 . S
C1047 C1049 1.419 . S
C1048 C1046 1.415 . S
C1048 C1053 1.425 . S
C1048 C1055 1.409 . S
C1049 H1041 0.930 . S
C1049 C1047 1.419 . S
C1049 C1050 1.362 . S
C1050 H1042 0.930 . S
C1050 C1049 1.362 . S
C1050 C1053 1.409 . S
C1051 H1043 0.930 . S
C1051 C1052 1.355 . S
C1051 C1053 1.415 . S
C1052 C1051 1.355 . S
C1052 C1054 1.419 . S
C1053 C1048 1.425 . S
C1053 C1050 1.409 . S
C1053 C1051 1.415 . S
C1054 H1044 0.930 . S
C1054 C1052 1.419 . S
C1054 C1055 1.362 . S
C1055 H1045 0.930 . S
C1055 C1048 1.409 . S
C1055 C1054 1.362 . S
H1056 C1062 0.930 . S
H1057 C1065 0.930 . S
H1058 C1066 0.930 . S
H1059 C1067 0.930 . S
H1060 C1070 0.930 . S
H1061 C1071 0.930 . S
C1062 H1056 0.930 . S
C1062 C1063 1.355 . S
C1062 C1064 1.415 . S
C1063 C1062 1.355 . S
C1063 C1065 1.419 . S
C1064 C1062 1.415 . S
C1064 C1069 1.425 . S
C1064 C1071 1.409 . S
C1065 H1057 0.930 . S
C1065 C1063 1.419 . S
C1065 C1066 1.362 . S
C1066 H1058 0.930 . S
C1066 C1065 1.362 . S
C1066 C1069 1.409 . S
C1067 H1059 0.930 . S
C1067 C1068 1.355 . S
C1067 C1069 1.415 . S
C1068 C1067 1.355 . S
C1068 C1070 1.419 . S
C1069 C1064 1.425 . S
C1069 C1066 1.409 . S
C1069 C1067 1.415 . S
C1070 H1060 0.930 . S
C1070 C1068 1.419 . S
C1070 C1071 1.362 . S
C1071 H1061 0.930 . S
C1071 C1064 1.409 . S
C1071 C1070 1.362 . S
H1072 C1078 0.930 . S
H1073 C1081 0.930 . S
H1074 C1082 0.930 . S
H1075 C1083 0.930 . S
H1076 C1086 0.930 . S
H1077 C1087 0.930 . S
C1078 H1072 0.930 . S
C1078 C1079 1.355 . S
C1078 C1080 1.415 . S
C1079 C1078 1.355 . S
C1079 C1081 1.419 . S
C1080 C1078 1.415 . S
C1080 C1085 1.425 . S
C1080 C1087 1.409 . S
C1081 H1073 0.930 . S
C1081 C1079 1.419 . S
C1081 C1082 1.362 . S
C1082 H1074 0.930 . S
C1082 C1081 1.362 . S
C1082 C1085 1.409 . S
C1083 H1075 0.930 . S
C1083 C1084 1.355 . S
C1083 C1085 1.415 . S
C1084 C1083 1.355 . S
C1084 C1086 1.419 . S
C1085 C1080 1.425 . S
C1085 C1082 1.409 . S
C1085 C1083 1.415 . S
C1086 H1076 0.930 . S
C1086 C1084 1.419 . S
C1086 C1087 1.362 . S
C1087 H1077 0.930 . S
C1087 C1080 1.409 . S
C1087 C1086 1.362 . S
H1088 C1094 0.930 . S
H1089 C1097 0.930 . S
H1090 C1098 0.930 . S
H1091 C1099 0.930 . S
H1092 C1102 0.930 . S
H1093 C1103 0.930 . S
C1094 H1088 0.930 . S
C1094 C1095 1.355 . S
C1094 C1096 1.415 . S
C1095 C1094 1.355 . S
C1095 C1097 1.419 . S
C1096 C1094 1.415 . S
C1096 C1101 1.425 . S
C1096 C1103 1.409 . S
C1097 H1089 0.930 . S
C1097 C1095 1.419 . S
C1097 C1098 1.362 . S
C1098 H1090 0.930 . S
C1098 C1097 1.362 . S
C1098 C1101 1.409 . S
C1099 H1091 0.930 . S
C1099 C1100 1.355 . S
C1099 C1101 1.415 . S
C1100 C1099 1.355 . S
C1100 C1102 1.419 . S
C1101 C1096 1.425 . S
C1101 C1098 1.409 . S
C1101 C1099 1.415 . S
C1102 H1092 0.930 . S
C1102 C1100 1.419 . S
C1102 C1103 1.362 . S
C1103 H1093 0.930 . S
C1103 C1096 1.409 . S
C1103 C1102 1.362 . S
H1104 C1110 0.930 . S
H1105 C1113 0.930 . S
H1106 C1114 0.930 . S
H1107 C1115 0.930 . S
H1108 C1118 0.930 . S
H1109 C1119 0.930 . S
C1110 H1104 0.930 . S
C1110 C1111 1.355 . S
C1110 C1112 1.415 . S
C1111 C1110 1.355 . S
C1111 C1113 1.419 . S
C1112 C1110 1.415 . S
C1112 C1117 1.425 . S
C1112 C1119 1.409 . S
C1113 H1105 0.930 . S
C1113 C1111 1.419 . S
C1113 C1114 1.362 . S
C1114 H1106 0.930 . S
C1114 C1113 1.362 . S
C1114 C1117 1.409 . S
C1115 H1107 0.930 . S
C1115 C1116 1.355 . S
C1115 C1117 1.415 . S
C1116 C1115 1.355 . S
C1116 C1118 1.419 . S
C1117 C1112 1.425 . S
C1117 C1114 1.409 . S
C1117 C1115 1.415 . S
C1118 H1108 0.930 . S
C1118 C1116 1.419 . S
C1118 C1119 1.362 . S
C1119 H1109 0.930 . S
C1119 C1112 1.409 . S
C1119 C1118 1.362 . S
H1120 C1126 0.930 . S
H1121 C1129 0.930 . S
H1122 C1130 0.930 . S
H1123 C1131 0.930 . S
H1124 C1134 0.930 . S
H1125 C1135 0.930 . S
C1126 H1120 0.930 . S
C1126 C1127 1.355 . S
C1126 C1128 1.415 . S
C1127 C1126 1.355 . S
C1127 C1129 1.419 . S
C1128 C1126 1.415 . S
C1128 C1133 1.425 . S
C1128 C1135 1.409 . S
C1129 H1121 0.930 . S
C1129 C1127 1.419 . S
C1129 C1130 1.362 . S
C1130 H1122 0.930 . S
C1130 C1129 1.362 . S
C1130 C1133 1.409 . S
C1131 H1123 0.930 . S
C1131 C1132 1.355 . S
C1131 C1133 1.415 . S
C1132 C1131 1.355 . S
C1132 C1134 1.419 . S
C1133 C1128 1.425 . S
C1133 C1130 1.409 . S
C1133 C1131 1.415 . S
C1134 H1124 0.930 . S
C1134 C1132 1.419 . S
C1134 C1135 1.362 . S
C1135 H1125 0.930 . S
C1135 C1128 1.409 . S
C1135 C1134 1.362 . S
H1136 C1142 0.930 . S
H1137 C1145 0.930 . S
H1138 C1146 0.930 . S
H1139 C1147 0.930 . S
H1140 C1150 0.930 . S
H1141 C1151 0.930 . S
C1142 H1136 0.930 . S
C1142 C1143 1.355 . S
C1142 C1144 1.415 . S
C1143 C1142 1.355 . S
C1143 C1145 1.419 . S
C1144 C1142 1.415 . S
C1144 C1149 1.425 . S
C1144 C1151 1.409 . S
C1145 H1137 0.930 . S
C1145 C1143 1.419 . S
C1145 C1146 1.362 . S
C1146 H1138 0.930 . S
C1146 C1145 1.362 . S
C1146 C1149 1.409 . S
C1147 H1139 0.930 . S
C1147 C1148 1.355 . S
C1147 C1149 1.415 . S
C1148 C1147 1.355 . S
C1148 C1150 1.419 . S
C1149 C1144 1.425 . S
C1149 C1146 1.409 . S
C1149 C1147 1.415 . S
C1150 H1140 0.930 . S
C1150 C1148 1.419 . S
C1150 C1151 1.362 . S
C1151 H1141 0.930 . S
C1151 C1144 1.409 . S
C1151 C1150 1.362 . S
H1152 C1158 0.930 . S
H1153 C1161 0.930 . S
H1154 C1162 0.930 . S
H1155 C1163 0.930 . S
H1156 C1166 0.930 . S
H1157 C1167 0.930 . S
C1158 H1152 0.930 . S
C1158 C1159 1.355 . S
C1158 C1160 1.415 . S
C1159 C1158 1.355 . S
C1159 C1161 1.419 . S
C1160 C1158 1.415 . S
C1160 C1165 1.425 . S
C1160 C1167 1.409 . S
C1161 H1153 0.930 . S
C1161 C1159 1.419 . S
C1161 C1162 1.362 . S
C1162 H1154 0.930 . S
C1162 C1161 1.362 . S
C1162 C1165 1.409 . S
C1163 H1155 0.930 . S
C1163 C1164 1.355 . S
C1163 C1165 1.415 . S
C1164 C1163 1.355 . S
C1164 C1166 1.419 . S
C1165 C1160 1.425 . S
C1165 C1162 1.409 . S
C1165 C1163 1.415 . S
C1166 H1156 0.930 . S
C1166 C1164 1.419 . S
C1166 C1167 1.362 . S
C1167 H1157 0.930 . S
C1167 C1160 1.409 . S
C1167 C1166 1.362 . S
H1168 C1174 0.930 . S
H1169 C1177 0.930 . S
H1170 C1178 0.930 . S
H1171 C1179 0.930 . S
H1172 C1182 0.930 . S
H1173 C1183 0.930 . S
C1174 H1168 0.930 . S
C1174 C1175 1.355 . S
C1174 C1176 1.415 . S
C1175 C1174 1.355 . S
C1175 C1177 1.419 . S
C1176 C1174 1.415 . S
C1176 C1181 1.425 . S
C1176 C1183 1.409 . S
C1177 H1169 0.930 . S
C1177 C1175 1.419 . S
C1177 C1178 1.362 . S
C1178 H1170 0.930 . S
C1178 C1177 1.362 . S
C1178 C1181 1.409 . S
C1179 H1171 0.930 . S
C1179 C1180 1.355 . S
C1179 C1181 1.415 . S
C1180 C1179 1.355 . S
C1180 C1182 1.419 . S
C1181 C1176 1.425 . S
C1181 C1178 1.409 . S
C1181 C1179 1.415 . S
C1182 H1172 0.930 . S
C1182 C1180 1.419 . S
C1182 C1183 1.362 . S
C1183 H1173 0.930 . S
C1183 C1176 1.409 . S
C1183 C1182 1.362 . S
H1184 C1190 0.930 . S
H1185 C1193 0.930 . S
H1186 C1194 0.930 . S
H1187 C1195 0.930 . S
H1188 C1198 0.930 . S
H1189 C1199 0.930 . S
C1190 H1184 0.930 . S
C1190 C1191 1.355 . S
C1190 C1192 1.415 . S
C1191 C1190 1.355 . S
C1191 C1193 1.419 . S
C1192 C1190 1.415 . S
C1192 C1197 1.425 . S
C1192 C1199 1.409 . S
C1193 H1185 0.930 . S
C1193 C1191 1.419 . S
C1193 C1194 1.362 . S
C1194 H1186 0.930 . S
C1194 C1193 1.362 . S
C1194 C1197 1.409 . S
C1195 H1187 0.930 . S
C1195 C1196 1.355 . S
C1195 C1197 1.415 . S
C1196 C1195 1.355 . S
C1196 C1198 1.419 . S
C1197 C1192 1.425 . S
C1197 C1194 1.409 . S
C1197 C1195 1.415 . S
C1198 H1188 0.930 . S
C1198 C1196 1.419 . S
C1198 C1199 1.362 . S
C1199 H1189 0.930 . S
C1199 C1192 1.409 . S
C1199 C1198 1.362 . S
C444 C257 1.035 . S
C439 N6 0.903 . S
C460 C262 1.885 . S
C455 C57 1.921 . S
C476 C263 1.344 . S
C471 C61 1.412 . S
C487 N96 0.734 . S
C492 C267 0.543 . S
C503 C136 1.896 . S
C508 C270 1.912 . S
C524 C271 1.399 . S
C519 C160 1.382 . S
C535 N194 0.686 . S
C540 C248 0.582 . S
C551 N224 0.954 . S
C556 C264 1.018 . S
C572 C302 1.798 . S
C567 C10 1.878 . S
C583 N36 0.810 . S
C588 C328 0.824 . S
C604 C280 0.701 . S
C599 N74 0.617 . S
C620 C335 1.327 . S
C615 C100 1.394 . S
C631 C121 1.380 . S
C636 C289 1.321 . S
C652 C331 1.790 . S
C647 C177 1.835 . S
C663 C196 2.241 . S
C668 C295 2.192 . S
C679 C226 1.920 . S
C684 C326 1.878 . S
C695 C27 1.882 . S
C700 C334 1.852 . S
C711 N134 0.864 . S
C716 C321 0.886 . S
C732 C299 0.555 . S
C727 N156 0.517 . S
C748 C327 1.293 . S
C743 C181 1.383 . S
C759 C211 1.891 . S
C764 C294 1.846 . S
C775 C76 1.821 . S
C780 C312 1.805 . S
C796 C303 2.203 . S
C791 C117 2.228 . S
C807 C40 1.381 . S
C812 C296 1.302 . S
C823 N216 1.007 . S
C828 C358 1.018 . S
C839 C147 1.876 . S
C844 C353 1.847 . S
C860 C367 1.332 . S
C855 C151 1.365 . S
C876 C344 0.655 . S
C871 N186 0.725 . S
C887 C46 1.902 . S
C892 C360 1.866 . S
C908 C359 1.350 . S
C903 C70 1.369 . S
C919 N104 0.543 . S
C924 C363 0.667 . S
C935 N14 0.890 . S
C940 C366 0.922 . S
C951 C220 1.880 . S
C956 C392 1.896 . S
C972 C408 0.981 . S
C967 N126 0.861 . S
C983 N164 0.736 . S
C988 C390 0.542 . S
C999 C190 1.405 . S
C1004 C423 1.372 . S
C1020 C399 1.396 . S
C1015 C31 1.414 . S
C1031 C87 1.842 . S
C1036 C417 1.813 . S
C1052 C395 2.198 . S
C1047 C106 2.225 . S
C1068 C430 1.865 . S
C1063 C16 1.899 . S
C1084 C422 1.863 . S
C1079 C237 1.904 . S
C1095 N44 0.910 . S
C1100 C427 0.990 . S
C1111 N66 0.742 . S
C1116 C398 0.571 . S
C1132 C431 1.343 . S
C1127 C91 1.397 . S
C1143 C1 1.905 . S
C1148 C385 1.866 . S
C1159 C166 1.844 . S
C1164 C424 1.783 . S
C1180 C376 2.184 . S
C1175 C207 2.240 . S
C1196 C391 1.370 . S
C1191 C130 1.421 . S
