# Generated by pormake.
# Topology nia, (6,6)-cn, num edge types: 1
# Building blocks:
#     Node 0, Type 0, BuildingBlock: KUMBUR_clean_sbu_0, # of connection points: 6
#     Node 1, Type 0, BuildingBlock: KUMBUR_clean_sbu_0, # of connection points: 6
#     Node 2, Type 1, BuildingBlock: MIDCAF_clean_sbu_0, # of connection points: 6
#     Node 3, Type 1, BuildingBlock: MIDCAF_clean_sbu_0, # of connection points: 6
#     Edge 4, Type (0, 1), BuildingBlock: OJICUG_clean_linker_0, # of connection points: 2
#     Edge 5, Type (0, 1), BuildingBlock: OJICUG_clean_linker_0, # of connection points: 2
#     Edge 6, Type (0, 1), BuildingBlock: OJICUG_clean_linker_0, # of connection points: 2
#     Edge 7, Type (0, 1), BuildingBlock: OJICUG_clean_linker_0, # of connection points: 2
#     Edge 8, Type (0, 1), BuildingBlock: OJICUG_clean_linker_0, # of connection points: 2
#     Edge 9, Type (0, 1), BuildingBlock: OJICUG_clean_linker_0, # of connection points: 2
#     Edge 10, Type (0, 1), BuildingBlock: OJICUG_clean_linker_0, # of connection points: 2
#     Edge 11, Type (0, 1), BuildingBlock: OJICUG_clean_linker_0, # of connection points: 2
#     Edge 12, Type (0, 1), BuildingBlock: OJICUG_clean_linker_0, # of connection points: 2
#     Edge 13, Type (0, 1), BuildingBlock: OJICUG_clean_linker_0, # of connection points: 2
#     Edge 14, Type (0, 1), BuildingBlock: OJICUG_clean_linker_0, # of connection points: 2
#     Edge 15, Type (0, 1), BuildingBlock: OJICUG_clean_linker_0, # of connection points: 2
# Relax obj value: 0.176
# Max RMSD: 0.299
# Mean RMSD: 0.210
data_MOF--net-nia--node1-KUMBUR_clean_sbu_0--node2-MIDCAF_clean_sbu_0--edge1-OJICUG_clean_linker_0
_symmetry_space_group_name_H-M    P1
_symmetry_Int_Tables_number       1
_symmetry_cell_setting            triclinic
loop_
_symmetry_equiv_pos_as_xyz
'x, y, z'
_cell_length_a     21.549539
_cell_length_b     21.936003
_cell_length_c     24.514862
_cell_angle_alpha  90.270865
_cell_angle_beta   89.805552
_cell_angle_gamma 140.37018
loop_
_atom_site_label
_atom_site_type_symbol
_atom_site_fract_x
_atom_site_fract_y
_atom_site_fract_z
_atom_type_partial_charge
Tb0 Tb 0.03138 0.95806 0.06926 0.0
C1 C 0.03677 0.10855 0.8557 0.0
C2 C 0.18804 0.2789 0.86574 0.0
C3 C 0.10569 0.21494 0.77838 0.0
C4 C 0.11193 0.18628 0.88843 0.0
C5 C 0.03223 0.12261 0.80046 0.0
C6 C 0.18493 0.29249 0.81047 0.0
C7 C 0.87783 0.95434 0.79337 0.0
N8 N 0.96361 0.0208 0.87902 0.0
C9 C 0.88389 0.94446 0.84862 0.0
C10 C 0.95163 0.04423 0.76952 0.0
Tb11 Tb 0.96281 0.02104 0.97253 0.0
N12 N 0.10703 0.17214 0.94296 0.0
C13 C 0.17874 0.24851 0.97647 0.0
C14 C 0.26233 0.3561 0.89982 0.0
C15 C 0.25766 0.34072 0.95543 0.0
H16 H 0.82297 0.87623 0.86775 0.0
H17 H 0.31461 0.40002 0.98234 0.0
H18 H 0.24165 0.36323 0.79262 0.0
H19 H 0.81435 0.89342 0.76986 0.0
H20 H 0.17924 0.24011 0.01923 0.0
H21 H 0.83237 0.59365 0.04422 0.0
H22 H 0.32242 0.42798 0.88381 0.0
H23 H 0.03518 0.04474 0.18625 0.0
H24 H 0.97343 0.76854 0.03518 0.0
H25 H 0.92128 -0.01307 0.25807 0.0
H26 H 0.10174 0.22718 0.73648 0.0
H27 H 0.69303 0.51846 0.10218 0.0
H28 H 0.6243 0.53955 0.17139 0.0
H29 H 0.94545 0.05297 0.72741 0.0
H30 H 0.6493 0.64809 0.23057 0.0
N31 N 0.91105 0.79353 0.08244 0.0
C32 C 0.91207 0.73704 0.05932 0.0
C33 C 0.75419 0.59543 0.09748 0.0
C34 C 0.75911 0.65382 0.12679 0.0
C35 C 0.83259 0.63757 0.06481 0.0
C36 C 0.84045 0.7537 0.11902 0.0
H37 H 0.76131 0.81453 0.2642 0.0
N38 N 0.93791 0.90944 0.14575 0.0
C39 C 0.90032 0.93758 0.2277 0.0
C40 C 0.85505 0.81408 0.15246 0.0
C41 C 0.96416 0.97056 0.18533 0.0
C42 C 0.81054 0.8405 0.23134 0.0
C43 C 0.78782 0.77698 0.19431 0.0
O44 O 0.15276 0.05497 0.12205 0.0
O45 O 0.08024 0.05437 1.00372 0.0
O46 O 0.94763 0.92381 0.92732 0.0
O47 O 0.9683 0.86637 0.99594 0.0
O48 O 0.1304 0.00357 1.0045 0.0
O49 O 0.09362 0.92269 0.09737 0.0
O50 O 0.82699 0.96147 0.9804 0.0
O51 O 0.92751 0.94826 0.04791 0.0
O52 O 0.09175 0.09116 0.09766 0.0
O53 O 0.00721 0.1004 0.04781 0.0
O54 O 0.82419 0.87034 0.98792 0.0
O55 O 0.94852 0.10466 0.95385 0.0
C56 C 0.13442 0.05749 0.97873 0.0
C57 C 0.23361 0.02588 0.15891 0.0
C58 C 0.302 -0.01622 0.19824 0.0
C59 C 0.23748 0.96457 0.16179 0.0
C60 C 0.36186 0.06578 0.23162 0.0
C61 C 0.29723 0.10867 0.19121 0.0
C62 C 0.36008 0.12779 0.22765 0.0
C63 C 0.94534 0.86536 0.94542 0.0
C64 C 0.1588 0.00062 0.12574 0.0
C65 C 0.70243 0.67772 0.19927 0.0
C66 C 0.68816 0.61604 0.16555 0.0
C67 C 0.83922 0.86934 0.03885 0.0
C68 C 0.79418 0.00984 0.91391 0.0
C69 C 0.79482 0.07216 0.89958 0.0
C70 C 0.73646 0.04917 0.85605 0.0
C71 C 0.68454 0.96713 0.82442 0.0
C72 C 0.73077 0.92209 0.88607 0.0
C73 C 0.68022 0.90315 0.84013 0.0
C74 C 0.06036 0.1239 0.09022 0.0
C75 C 0.85472 0.03327 0.95966 0.0
H76 H 0.19033 0.90248 0.13542 0.0
H77 H 0.41024 0.08257 0.26131 0.0
H78 H 0.29621 0.15724 0.18966 0.0
H79 H 0.40687 0.1905 0.25357 0.0
H80 H 0.8368 0.13546 0.92423 0.0
H81 H 0.6436 0.94995 0.78882 0.0
H82 H 0.72029 0.86781 0.89949 0.0
H83 H 0.63561 0.83749 0.81742 0.0
Tb84 Tb 0.98051 0.04085 0.56968 0.0
C85 C 0.98705 0.90264 0.35415 0.0
C86 C 0.83037 0.73279 0.35426 0.0
C87 C 0.92743 0.8081 0.27172 0.0
C88 C 0.90411 0.82115 0.38202 0.0
C89 C -0.00071 0.8964 0.29874 0.0
C90 C 0.84232 0.727 0.29901 0.0
C91 C 0.16136 0.06109 0.30284 0.0
N92 N 0.06097 -0.01539 0.3829 0.0
C93 C 0.14894 0.06183 0.3585 0.0
C94 C 0.08634 0.97769 0.27291 0.0
Tb95 Tb 0.04223 0.96909 0.47514 0.0
N96 N 0.90118 0.82613 0.43721 0.0
C97 C 0.82584 0.74485 0.46646 0.0
C98 C 0.75052 0.651 0.38377 0.0
C99 C 0.74851 0.65705 0.44015 0.0
H100 H 0.20936 0.12469 0.38216 0.0
H101 H 0.68807 0.59374 0.4636 0.0
H102 H 0.78804 0.65913 0.27764 0.0
H103 H 0.22992 0.12392 0.2837 0.0
H104 H 0.82207 0.74627 0.50994 0.0
H105 H 0.20219 0.41317 0.5418 0.0
H106 H 0.69201 0.58222 0.36373 0.0
H107 H 0.97312 0.94711 0.68299 0.0
H108 H 0.05627 0.23962 0.5315 0.0
H109 H 0.08111 -9e-05 0.75669 0.0
H110 H 0.93798 0.80138 0.22992 0.0
H111 H 0.33315 0.48099 0.60482 0.0
H112 H 0.38929 0.45271 0.67821 0.0
H113 H 0.09691 0.97559 0.23025 0.0
H114 H 0.35493 0.33952 0.73782 0.0
N115 N 0.10849 0.20657 0.58187 0.0
C116 C 0.11455 0.26722 0.55707 0.0
C117 C 0.27011 0.40425 0.59924 0.0
C118 C 0.25803 0.34231 0.63005 0.0
C119 C 0.1966 0.36629 0.5636 0.0
C120 C 0.1747 0.24276 0.62091 0.0
H121 H 0.23948 0.17177 0.76794 0.0
N122 N 0.07274 0.0846 0.64539 0.0
C123 C 0.10441 0.05119 0.7273 0.0
C124 C 0.15525 0.17957 0.65446 0.0
C125 C 0.04412 0.021 0.68353 0.0
C126 C 0.19312 0.14792 0.7339 0.0
C127 C 0.21897 0.2137 0.69789 0.0
O128 O 0.86877 0.95882 0.62826 0.0
O129 O 0.92622 0.93947 0.50526 0.0
O130 O 0.0663 0.07171 0.42922 0.0
O131 O 0.0392 0.12726 0.495 0.0
O132 O 0.87995 -0.00585 0.50568 0.0
O133 O 0.93008 0.08811 0.59766 0.0
O134 O 0.15398 -0.00359 0.50432 0.0
O135 O 0.08234 0.04768 0.54875 0.0
O136 O 0.9056 0.90107 0.59691 0.0
O137 O 0.98214 0.88151 0.54755 0.0
O138 O 0.18383 0.11929 0.48768 0.0
O139 O 0.05625 0.88892 0.44505 0.0
C140 C 0.87379 0.93828 0.47999 0.0
C141 C 0.77131 0.975 0.63528 0.0
C142 C 0.67974 -0.00216 0.65972 0.0
C143 C 0.76877 0.03548 0.64919 0.0
C144 C 0.59328 0.89809 0.65685 0.0
C145 C 0.68389 0.87603 0.63186 0.0
C146 C 0.59553 0.83806 0.64272 0.0
C147 C 0.06536 0.12863 0.44548 0.0
C148 C 0.86634 0.01617 0.63013 0.0
C149 C 0.30479 0.31234 0.70512 0.0
C150 C 0.32438 0.37666 0.67115 0.0
C151 C 0.1707 0.12491 0.53817 0.0
C152 C 0.22072 -0.01657 0.43673 0.0
C153 C 0.22574 0.9269 0.41732 0.0
C154 C 0.30863 0.96934 0.38873 0.0
C155 C 0.38443 0.06785 0.37802 0.0
C156 C 0.29818 0.08215 0.42594 0.0
C157 C 0.37852 0.12354 0.39596 0.0
C158 C 0.92991 0.8616 0.5892 0.0
C159 C 0.13717 0.9404 0.4701 0.0
H160 H 0.83638 0.11196 0.6515 0.0
H161 H 0.52359 0.86607 0.66585 0.0
H162 H 0.6838 0.82784 0.62176 0.0
H163 H 0.52842 0.76156 0.64061 0.0
H164 H 0.1676 0.85122 0.42663 0.0
H165 H 0.44922 0.1021 0.35658 0.0
H166 H 0.29773 0.12804 0.4413 0.0
H167 H 0.4376 0.19953 0.38784 0.0
Zn168 Zn 0.33728 0.63339 0.16807 0.0
Zn169 Zn 0.3689 0.64286 0.36511 0.0
Zn170 Zn 0.38933 0.65397 0.26619 0.0
C171 C 0.55465 0.73044 0.34029 0.0
C172 C 0.23469 0.45974 0.34052 0.0
O173 O 0.35633 0.72808 0.24306 0.0
O174 O 0.31686 0.70523 0.15575 0.0
C175 C 0.53198 0.72716 0.17595 0.0
O176 O 0.53828 0.73605 0.2911 0.0
O177 O 0.48955 0.68768 0.37617 0.0
O178 O 0.24779 0.50676 0.37918 0.0
O179 O 0.28387 0.5029 0.29602 0.0
O180 O 0.4625 0.68995 0.14511 0.0
O181 O 0.52565 0.72934 0.22799 0.0
O182 O 0.28131 0.50252 0.23679 0.0
O183 O 0.2237 0.49503 0.15926 0.0
C184 C 0.22397 0.45444 0.19524 0.0
O185 O 0.35882 0.72512 0.29942 0.0
O186 O 0.37273 0.73065 0.38914 0.0
C187 C 0.33203 0.74213 0.20107 0.0
C188 C 0.35904 0.75135 0.34685 0.0
Zn189 Zn 0.63879 0.34574 0.86741 0.0
Zn190 Zn 0.67164 0.36759 0.66882 0.0
Zn191 Zn 0.61791 0.3398 0.76525 0.0
C192 C 0.78047 0.54226 0.69719 0.0
C193 C 0.47775 0.27325 0.6769 0.0
O194 O 0.65142 0.27083 0.79389 0.0
O195 O 0.65465 0.27163 0.88432 0.0
C196 C 0.77089 0.53062 0.84236 0.0
O197 O 0.72215 0.49127 0.73796 0.0
O198 O 0.78633 0.50592 0.66098 0.0
O199 O 0.54957 0.31587 0.64653 0.0
O200 O 0.4812 0.26465 0.72832 0.0
O201 O 0.75395 0.48253 0.88156 0.0
O202 O 0.72388 0.48879 0.79717 0.0
O203 O 0.47011 0.25746 0.79075 0.0
O204 O 0.51055 0.28827 0.87811 0.0
C205 C 0.44946 0.25355 0.84098 0.0
O206 O 0.64989 0.266 0.73721 0.0
O207 O 0.68309 0.29037 0.64894 0.0
C208 C 0.66206 0.24991 0.83931 0.0
C209 C 0.67029 0.25204 0.69265 0.0
C210 C 0.22786 0.82212 0.18735 0.0
C211 C 0.30782 0.91975 0.20163 0.0
H212 H 0.17366 0.69018 0.17542 0.0
C213 C 0.39432 0.95594 0.2187 0.0
H214 H 0.15892 0.78963 0.17553 0.0
C215 C 0.4006 0.89706 0.22109 0.0
C216 C 0.32182 0.80123 0.20496 0.0
H217 H 0.45889 0.03057 0.22888 0.0
H218 H 0.46836 0.92738 0.23361 0.0
C219 C 0.23551 0.76424 0.18802 0.0
C220 C 0.3378 0.2614 0.57667 0.0
C221 C 0.24689 0.16419 0.57725 0.0
H222 H 0.48098 0.37273 0.61076 0.0
C223 C 0.2301 0.10327 0.61404 0.0
H224 H 0.35272 0.30919 0.54826 0.0
C225 C 0.30273 0.13954 0.65033 0.0
C226 C 0.39344 0.237 0.64981 0.0
H227 H 0.16107 0.02726 0.61434 0.0
H228 H 0.28945 0.09106 0.67691 0.0
C229 C 0.41025 0.29752 0.61282 0.0
C230 C 0.04332 0.21639 0.12688 0.0
C231 C 0.09221 0.19714 0.12774 0.0
H232 H 0.04581 0.31237 0.14962 0.0
C233 C 0.17443 0.25286 0.16142 0.0
H234 H 0.97832 0.1734 0.10251 0.0
C235 C 0.21233 0.33223 0.18935 0.0
C236 C 0.16832 0.35641 0.18379 0.0
H237 H 0.21303 0.23907 0.16334 0.0
H238 H 0.28054 0.37919 0.21109 0.0
C239 C 0.08113 0.29527 0.15446 0.0
C240 C 0.60017 0.04012 0.65024 0.0
C241 C 0.67601 0.06185 0.67178 0.0
H242 H 0.53912 0.08311 0.64096 0.0
C243 C 0.74851 0.14592 0.7032 0.0
H244 H 0.54436 0.97763 0.6248 0.0
C245 C 0.74557 0.207 0.71198 0.0
C246 C 0.66954 0.18437 0.69013 0.0
H247 H 0.80756 0.16468 0.7209 0.0
H248 H 0.80352 0.27265 0.73478 0.0
C249 C 0.59717 0.10066 0.65926 0.0
C250 C 0.78049 0.89361 0.11424 0.0
C251 C 0.76322 0.83162 0.07787 0.0
H252 H 0.72157 0.90815 0.17626 0.0
C253 C 0.67127 0.73477 0.07698 0.0
H254 H 0.84994 0.96932 0.1147 0.0
C255 C 0.59836 0.70021 0.11226 0.0
C256 C 0.61585 0.76181 0.14898 0.0
H257 H 0.65574 0.68608 0.04881 0.0
H258 H 0.52692 0.62542 0.10982 0.0
C259 C 0.70759 0.8588 0.14987 0.0
C260 C 0.8101 0.728 0.65687 0.0
C261 C 0.89816 0.79047 0.62806 0.0
H262 H 0.70357 0.59865 0.70377 0.0
C263 C 0.95586 0.78166 0.63377 0.0
H264 H 0.76499 0.73419 0.65365 0.0
C265 C 0.92177 0.70587 0.66261 0.0
C266 C 0.82956 0.63759 0.68666 0.0
H267 H 0.02563 0.83072 0.61344 0.0
H268 H 0.96435 0.6965 0.66252 0.0
C269 C 0.77576 0.65151 0.6861 0.0
C270 C 0.24981 0.82684 0.34624 0.0
C271 C 0.32152 0.91394 0.37482 0.0
H272 H 0.20671 0.707 0.31372 0.0
C273 C 0.4066 0.94831 0.39156 0.0
H274 H 0.18381 0.79923 0.33277 0.0
C275 C 0.41919 0.89594 0.38101 0.0
C276 C 0.34783 0.80907 0.35267 0.0
H277 H 0.46242 0.0147 0.41418 0.0
H278 H 0.48442 0.92284 0.39553 0.0
C279 C 0.2632 0.77482 0.33496 0.0
C280 C 0.28597 0.21091 0.93742 0.0
C281 C 0.19772 0.11329 0.93048 0.0
H282 H 0.43206 0.33376 0.9105 0.0
C283 C 0.18791 0.066 0.88548 0.0
H284 H 0.29993 0.24737 0.97423 0.0
C285 C 0.26717 0.11421 0.85058 0.0
C286 C 0.35683 0.21096 0.85973 0.0
H287 H 0.12227 -0.01033 0.88043 0.0
H288 H 0.26088 0.074 0.81988 0.0
C289 C 0.36304 0.25982 0.90139 0.0
C290 C 0.16962 0.24746 0.36893 0.0
C291 C 0.09354 0.19831 0.40659 0.0
H292 H 0.27379 0.3699 0.31665 0.0
C293 C 0.05127 0.22435 0.41166 0.0
H294 H 0.20373 0.22918 0.36412 0.0
C295 C 0.09124 0.30449 0.38473 0.0
C296 C 0.17354 0.35963 0.35148 0.0
H297 H 0.99061 0.18601 0.43906 0.0
H298 H 0.06214 0.32747 0.39309 0.0
C299 C 0.20935 0.32772 0.34141 0.0
C300 C 0.79453 0.20218 0.85933 0.0
C301 C 0.72126 0.10402 0.847 0.0
H302 H 0.83187 0.32508 0.86717 0.0
C303 C 0.62969 0.05625 0.82944 0.0
H304 H 0.86629 0.24196 0.87199 0.0
C305 C 0.61164 0.10484 0.825 0.0
C306 C 0.68384 0.20137 0.83917 0.0
H307 H 0.5703 0.98037 0.82079 0.0
H308 H 0.54038 0.06637 0.81213 0.0
C309 C 0.77536 0.25007 0.85621 0.0
C310 C 0.71981 0.78292 0.44093 0.0
C311 C 0.8077 0.88004 0.43276 0.0
H312 H 0.57509 0.65703 0.41367 0.0
C313 C 0.81688 0.92443 0.38637 0.0
H314 H 0.70664 0.74866 0.47854 0.0
C315 C 0.73757 0.87332 0.35072 0.0
C316 C 0.64848 0.77654 0.36056 0.0
H317 H 0.88236 0.00051 0.38032 0.0
H318 H 0.74336 0.91131 0.31864 0.0
C319 C 0.64324 0.73097 0.40406 0.0
C320 C 0.95644 0.76597 0.91402 0.0
C321 C 0.91662 0.79425 0.90748 0.0
H322 H 0.94171 0.65956 0.89701 0.0
C323 C 0.84218 0.74631 0.86887 0.0
H324 H 0.0162 0.80364 0.94196 0.0
C325 C 0.80172 0.66559 0.8415 0.0
C326 C 0.83439 0.63124 0.85316 0.0
H327 H 0.80925 0.76547 0.86316 0.0
H328 H 0.73863 0.62476 0.81574 0.0
C329 C 0.91507 0.68463 0.88755 0.0
loop_
_geom_bond_atom_site_label_1
_geom_bond_atom_site_label_2
_geom_bond_distance
_geom_bond_site_symmetry_2
_ccdc_geom_bond_type
Tb0 N31 2.660 1_455 S
Tb0 N38 2.600 . S
Tb0 O44 2.546 1_565 S
Tb0 O45 2.610 1_564 S
Tb0 O47 2.320 1_454 S
Tb0 O48 2.552 1_565 S
Tb0 O49 2.413 . S
Tb0 O51 2.362 1_455 S
Tb0 O52 2.421 1_565 S
Tb0 C64 2.833 . S
C1 C4 1.432 . S
C1 C5 1.414 . S
C1 N8 1.359 1_455 S
C2 C4 1.417 . S
C2 C6 1.432 . S
C2 C14 1.410 . S
C3 C5 1.444 . S
C3 C6 1.317 . S
C3 H26 0.929 . S
C4 C1 1.432 . S
C4 C2 1.417 . S
C4 N12 1.360 . S
C5 C1 1.414 . S
C5 C3 1.444 . S
C5 C10 1.385 1_455 S
C6 C2 1.432 . S
C6 C3 1.317 . S
C6 H18 0.930 . S
C7 C9 1.392 . S
C7 C10 1.370 1_565 S
C7 H19 0.931 . S
N8 C1 1.359 1_655 S
N8 C9 1.327 1_545 S
N8 Tb11 2.600 . S
C9 C7 1.392 . S
C9 N8 1.327 1_565 S
C9 H16 0.930 . S
C10 C5 1.385 1_655 S
C10 C7 1.370 1_545 S
C10 H29 0.930 . S
Tb11 N8 2.600 . S
Tb11 N12 2.660 1_655 S
Tb11 O45 2.362 1_655 S
Tb11 O46 2.421 1_545 S
Tb11 O50 2.546 1_545 S
Tb11 O51 2.610 1_546 S
Tb11 O53 2.320 1_656 S
Tb11 O54 2.552 1_546 S
Tb11 O55 2.413 . S
Tb11 C75 2.833 . S
N12 C4 1.360 . S
N12 Tb11 2.660 1_455 S
N12 C13 1.305 . S
C13 N12 1.305 . S
C13 C15 1.407 . S
C13 H20 0.930 . S
C14 C2 1.410 . S
C14 C15 1.345 . S
C14 H22 0.930 . S
C15 C13 1.407 . S
C15 C14 1.345 . S
C15 H17 0.930 . S
H16 C9 0.930 . S
H17 C15 0.930 . S
H18 C6 0.930 . S
H19 C7 0.931 . S
H20 C13 0.930 . S
H21 C35 0.930 . S
H22 C14 0.930 . S
H23 C41 0.930 . S
H24 C32 0.930 . S
H25 C39 0.931 . S
H26 C3 0.929 . S
H27 C33 0.930 . S
H28 C66 0.930 . S
H29 C10 0.930 . S
H30 C65 0.929 . S
N31 Tb0 2.660 1_655 S
N31 C32 1.305 . S
N31 C36 1.360 . S
C32 H24 0.930 . S
C32 N31 1.305 . S
C32 C35 1.407 . S
C33 H27 0.930 . S
C33 C34 1.410 . S
C33 C35 1.345 . S
C34 C33 1.410 . S
C34 C36 1.417 . S
C34 C66 1.432 . S
C35 H21 0.930 . S
C35 C32 1.407 . S
C35 C33 1.345 . S
C36 N31 1.360 . S
C36 C34 1.417 . S
C36 C40 1.432 . S
H37 C42 0.929 1_545 S
N38 Tb0 2.600 . S
N38 C40 1.359 1_455 S
N38 C41 1.327 1_565 S
C39 H25 0.931 . S
C39 C41 1.392 . S
C39 C42 1.370 1_545 S
C40 C36 1.432 . S
C40 N38 1.359 1_655 S
C40 C43 1.414 . S
C41 H23 0.930 . S
C41 N38 1.327 1_545 S
C41 C39 1.392 . S
C42 H37 0.929 1_565 S
C42 C39 1.370 1_565 S
C42 C43 1.385 1_455 S
C43 C40 1.414 . S
C43 C42 1.385 1_655 S
C43 C65 1.444 . S
O44 Tb0 2.546 1_545 S
O44 C64 1.251 1_545 S
O45 Tb0 2.610 1_546 S
O45 Tb11 2.362 1_455 S
O45 C56 1.283 . S
O46 Tb11 2.421 1_565 S
O46 C63 1.262 . S
O47 Tb0 2.320 1_656 S
O47 C63 1.260 . S
O48 Tb0 2.552 1_545 S
O48 C56 1.243 1_554 S
O49 Tb0 2.413 . S
O49 C64 1.256 . S
O50 Tb11 2.546 1_565 S
O50 C75 1.251 1_565 S
O51 Tb0 2.362 1_655 S
O51 Tb11 2.610 1_564 S
O51 C67 1.283 . S
O52 Tb0 2.421 1_545 S
O52 C74 1.262 . S
O53 Tb11 2.320 1_454 S
O53 C74 1.260 . S
O54 Tb11 2.552 1_564 S
O54 C67 1.243 . S
O55 Tb11 2.413 . S
O55 C75 1.256 . S
C56 O45 1.283 . S
C56 O48 1.243 1_556 S
C57 C59 1.382 . S
C57 C61 1.393 . S
C57 C64 1.500 . S
C58 C59 1.400 . S
C58 C60 1.384 . S
C59 C57 1.382 . S
C59 C58 1.400 . S
C59 H76 0.930 . S
C60 C58 1.384 . S
C60 C62 1.392 . S
C60 H77 0.931 . S
C61 C57 1.393 . S
C61 C62 1.401 . S
C61 H78 0.930 1_565 S
C62 C60 1.392 . S
C62 C61 1.401 . S
C62 H79 0.930 . S
C63 O46 1.262 . S
C63 O47 1.260 . S
C64 Tb0 2.833 . S
C64 O44 1.251 1_565 S
C64 O49 1.256 . S
C64 C57 1.500 . S
C65 H30 0.929 . S
C65 C43 1.444 . S
C65 C66 1.317 . S
C66 H28 0.930 . S
C66 C34 1.432 . S
C66 C65 1.317 . S
C67 O51 1.283 . S
C67 O54 1.243 . S
C68 C69 1.382 . S
C68 C72 1.393 . S
C68 C75 1.500 . S
C69 C68 1.382 . S
C69 C70 1.400 . S
C69 H80 0.930 . S
C70 C69 1.400 . S
C70 C71 1.384 . S
C71 C70 1.384 . S
C71 C73 1.392 . S
C71 H81 0.931 . S
C72 C68 1.393 . S
C72 C73 1.401 . S
C72 H82 0.930 . S
C73 C71 1.392 . S
C73 C72 1.401 . S
C73 H83 0.930 . S
C74 O52 1.262 . S
C74 O53 1.260 . S
C75 Tb11 2.833 . S
C75 O50 1.251 1_545 S
C75 O55 1.256 . S
C75 C68 1.500 . S
H76 C59 0.930 . S
H77 C60 0.931 . S
H78 C61 0.930 1_545 S
H79 C62 0.930 . S
H80 C69 0.930 . S
H81 C71 0.931 . S
H82 C72 0.930 . S
H83 C73 0.930 . S
Tb84 N115 2.660 1_655 S
Tb84 N122 2.600 1_655 S
Tb84 O128 2.546 . S
Tb84 O129 2.610 1_545 S
Tb84 O131 2.320 1_655 S
Tb84 O132 2.552 1_545 S
Tb84 O133 2.413 . S
Tb84 O135 2.362 1_655 S
Tb84 O136 2.421 1_545 S
Tb84 C148 2.833 . S
C85 C88 1.432 . S
C85 C89 1.414 . S
C85 N92 1.359 1_665 S
C86 C88 1.417 . S
C86 C90 1.432 . S
C86 C98 1.410 . S
C87 C89 1.444 . S
C87 C90 1.317 . S
C87 H110 0.929 . S
C88 C85 1.432 . S
C88 C86 1.417 . S
C88 N96 1.360 . S
C89 C85 1.414 . S
C89 C87 1.444 . S
C89 C94 1.385 1_665 S
C90 C86 1.432 . S
C90 C87 1.317 . S
C90 H102 0.930 . S
C91 C93 1.392 . S
C91 C94 1.370 . S
C91 H103 0.931 . S
N92 C85 1.359 1_445 S
N92 C93 1.327 . S
N92 Tb95 2.600 1_545 S
C93 C91 1.392 . S
C93 N92 1.327 . S
C93 H100 0.930 . S
C94 C89 1.385 1_445 S
C94 C91 1.370 . S
C94 H113 0.930 . S
Tb95 N92 2.600 1_565 S
Tb95 N96 2.660 1_455 S
Tb95 O129 2.362 1_455 S
Tb95 O130 2.421 1_565 S
Tb95 O134 2.546 1_565 S
Tb95 O135 2.610 1_565 S
Tb95 O137 2.320 1_455 S
Tb95 O138 2.552 1_565 S
Tb95 O139 2.413 . S
Tb95 C159 2.833 . S
N96 C88 1.360 . S
N96 Tb95 2.660 1_655 S
N96 C97 1.305 . S
C97 N96 1.305 . S
C97 C99 1.407 . S
C97 H104 0.930 . S
C98 C86 1.410 . S
C98 C99 1.345 . S
C98 H106 0.930 . S
C99 C97 1.407 . S
C99 C98 1.345 . S
C99 H101 0.930 . S
H100 C93 0.930 . S
H101 C99 0.930 . S
H102 C90 0.930 . S
H103 C91 0.931 . S
H104 C97 0.930 . S
H105 C119 0.930 . S
H106 C98 0.930 . S
H107 C125 0.930 . S
H108 C116 0.930 . S
H109 C123 0.931 . S
H110 C87 0.929 . S
H111 C117 0.930 . S
H112 C150 0.930 . S
H113 C94 0.930 . S
H114 C149 0.929 . S
N115 Tb84 2.660 1_455 S
N115 C116 1.305 . S
N115 C120 1.360 . S
C116 H108 0.930 . S
C116 N115 1.305 . S
C116 C119 1.407 . S
C117 H111 0.930 . S
C117 C118 1.410 . S
C117 C119 1.345 . S
C118 C117 1.410 . S
C118 C120 1.417 . S
C118 C150 1.432 . S
C119 H105 0.930 . S
C119 C116 1.407 . S
C119 C117 1.345 . S
C120 N115 1.360 . S
C120 C118 1.417 . S
C120 C124 1.432 . S
H121 C126 0.930 . S
N122 Tb84 2.600 1_455 S
N122 C124 1.359 . S
N122 C125 1.327 1_445 S
C123 H109 0.931 . S
C123 C125 1.392 . S
C123 C126 1.370 1_665 S
C124 C120 1.432 . S
C124 N122 1.359 . S
C124 C127 1.414 . S
C125 H107 0.930 . S
C125 N122 1.327 1_665 S
C125 C123 1.392 . S
C126 H121 0.930 . S
C126 C123 1.370 1_445 S
C126 C127 1.385 . S
C127 C124 1.414 . S
C127 C126 1.385 . S
C127 C149 1.444 . S
O128 Tb84 2.546 . S
O128 C148 1.251 . S
O129 Tb84 2.610 1_565 S
O129 Tb95 2.362 1_655 S
O129 C140 1.283 . S
O130 Tb95 2.421 1_545 S
O130 C147 1.262 . S
O131 Tb84 2.320 1_455 S
O131 C147 1.260 . S
O132 Tb84 2.552 1_565 S
O132 C140 1.243 . S
O133 Tb84 2.413 . S
O133 C148 1.256 . S
O134 Tb95 2.546 1_545 S
O134 C159 1.251 1_545 S
O135 Tb84 2.362 1_455 S
O135 Tb95 2.610 1_545 S
O135 C151 1.283 . S
O136 Tb84 2.421 1_565 S
O136 C158 1.262 . S
O137 Tb95 2.320 1_655 S
O137 C158 1.260 . S
O138 Tb95 2.552 1_545 S
O138 C151 1.243 . S
O139 Tb95 2.413 . S
O139 C159 1.256 . S
C140 O129 1.283 . S
C140 O132 1.243 . S
C141 C143 1.382 . S
C141 C145 1.393 . S
C141 C148 1.500 . S
C142 C143 1.400 . S
C142 C144 1.384 . S
C143 C141 1.382 . S
C143 C142 1.400 . S
C143 H160 0.930 . S
C144 C142 1.384 . S
C144 C146 1.392 . S
C144 H161 0.931 . S
C145 C141 1.393 . S
C145 C146 1.401 . S
C145 H162 0.930 . S
C146 C144 1.392 . S
C146 C145 1.401 . S
C146 H163 0.930 . S
C147 O130 1.262 . S
C147 O131 1.260 . S
C148 Tb84 2.833 . S
C148 O128 1.251 . S
C148 O133 1.256 . S
C148 C141 1.500 . S
C149 H114 0.929 . S
C149 C127 1.444 . S
C149 C150 1.317 . S
C150 H112 0.930 . S
C150 C118 1.432 . S
C150 C149 1.317 . S
C151 O135 1.283 . S
C151 O138 1.243 . S
C152 C153 1.382 . S
C152 C156 1.393 . S
C152 C159 1.500 . S
C153 C152 1.382 . S
C153 C154 1.400 . S
C153 H164 0.930 . S
C154 C153 1.400 . S
C154 C155 1.384 . S
C155 C154 1.384 . S
C155 C157 1.392 . S
C155 H165 0.931 . S
C156 C152 1.393 . S
C156 C157 1.401 . S
C156 H166 0.930 1_565 S
C157 C155 1.392 . S
C157 C156 1.401 . S
C157 H167 0.930 . S
C158 O136 1.262 . S
C158 O137 1.260 . S
C159 Tb95 2.833 . S
C159 O134 1.251 1_565 S
C159 O139 1.256 . S
C159 C152 1.500 . S
H160 C143 0.930 . S
H161 C144 0.931 . S
H162 C145 0.930 . S
H163 C146 0.930 . S
H164 C153 0.930 . S
H165 C155 0.931 . S
H166 C156 0.930 1_545 S
H167 C157 0.930 . S
Zn168 O174 1.920 . S
Zn168 O180 1.898 . S
Zn168 O183 1.905 . S
Zn169 O177 1.905 . S
Zn169 O178 1.898 . S
Zn169 O186 1.920 . S
Zn170 O173 2.080 . S
Zn170 O176 2.114 . S
Zn170 O179 2.120 . S
Zn170 O181 2.120 . S
Zn170 O182 2.114 . S
Zn170 O185 2.080 . S
C171 O176 1.166 . S
C171 O177 1.182 . S
C172 O178 1.167 . S
C172 O179 1.299 . S
O173 Zn170 2.080 . S
O173 C187 1.305 . S
O174 Zn168 1.920 . S
O174 C187 1.234 . S
C175 O180 1.167 . S
C175 O181 1.299 . S
O176 Zn170 2.114 . S
O176 C171 1.166 . S
O177 Zn169 1.905 . S
O177 C171 1.182 . S
O178 Zn169 1.898 . S
O178 C172 1.167 . S
O179 Zn170 2.120 . S
O179 C172 1.299 . S
O180 Zn168 1.898 . S
O180 C175 1.167 . S
O181 Zn170 2.120 . S
O181 C175 1.299 . S
O182 Zn170 2.114 . S
O182 C184 1.166 . S
O183 Zn168 1.905 . S
O183 C184 1.182 . S
C184 O182 1.166 . S
C184 O183 1.182 . S
O185 Zn170 2.080 . S
O185 C188 1.305 . S
O186 Zn169 1.920 . S
O186 C188 1.234 . S
C187 O173 1.305 . S
C187 O174 1.234 . S
C188 O185 1.305 . S
C188 O186 1.234 . S
Zn189 O195 1.920 . S
Zn189 O201 1.898 . S
Zn189 O204 1.905 . S
Zn190 O198 1.905 . S
Zn190 O199 1.898 . S
Zn190 O207 1.920 . S
Zn191 O194 2.080 . S
Zn191 O197 2.114 . S
Zn191 O200 2.120 . S
Zn191 O202 2.120 . S
Zn191 O203 2.114 . S
Zn191 O206 2.080 . S
C192 O197 1.166 . S
C192 O198 1.182 . S
C193 O199 1.167 . S
C193 O200 1.299 . S
O194 Zn191 2.080 . S
O194 C208 1.305 . S
O195 Zn189 1.920 . S
O195 C208 1.234 . S
C196 O201 1.167 . S
C196 O202 1.299 . S
O197 Zn191 2.114 . S
O197 C192 1.166 . S
O198 Zn190 1.905 . S
O198 C192 1.182 . S
O199 Zn190 1.898 . S
O199 C193 1.167 . S
O200 Zn191 2.120 . S
O200 C193 1.299 . S
O201 Zn189 1.898 . S
O201 C196 1.167 . S
O202 Zn191 2.120 . S
O202 C196 1.299 . S
O203 Zn191 2.114 . S
O203 C205 1.166 . S
O204 Zn189 1.905 . S
O204 C205 1.182 . S
C205 O203 1.166 . S
C205 O204 1.182 . S
O206 Zn191 2.080 . S
O206 C209 1.305 . S
O207 Zn190 1.920 . S
O207 C209 1.234 . S
C208 O194 1.305 . S
C208 O195 1.234 . S
C209 O206 1.305 . S
C209 O207 1.234 . S
C210 C211 1.387 . S
C210 H214 0.950 . S
C210 C219 1.390 . S
C211 C210 1.387 . S
C211 C213 1.387 . S
H212 C219 0.950 . S
C213 C211 1.387 . S
C213 C215 1.390 . S
C213 H217 0.950 . S
H214 C210 0.950 . S
C215 C213 1.390 . S
C215 C216 1.387 . S
C215 H218 0.950 . S
C216 C215 1.387 . S
C216 C219 1.387 . S
H217 C213 0.950 . S
H218 C215 0.950 . S
C219 C210 1.390 . S
C219 H212 0.950 . S
C219 C216 1.387 . S
C220 C221 1.387 . S
C220 H224 0.950 . S
C220 C229 1.390 . S
C221 C220 1.387 . S
C221 C223 1.387 . S
H222 C229 0.950 . S
C223 C221 1.387 . S
C223 C225 1.390 . S
C223 H227 0.950 1_545 S
H224 C220 0.950 . S
C225 C223 1.390 . S
C225 C226 1.387 . S
C225 H228 0.950 . S
C226 C225 1.387 . S
C226 C229 1.387 . S
H227 C223 0.950 1_565 S
H228 C225 0.950 . S
C229 C220 1.390 . S
C229 H222 0.950 . S
C229 C226 1.387 . S
C230 C231 1.387 . S
C230 H234 0.950 . S
C230 C239 1.390 . S
C231 C230 1.387 . S
C231 C233 1.387 . S
H232 C239 0.950 . S
C233 C231 1.387 . S
C233 C235 1.390 . S
C233 H237 0.950 . S
H234 C230 0.950 . S
C235 C233 1.390 . S
C235 C236 1.387 . S
C235 H238 0.950 . S
C236 C235 1.387 . S
C236 C239 1.387 . S
H237 C233 0.950 . S
H238 C235 0.950 . S
C239 C230 1.390 . S
C239 H232 0.950 . S
C239 C236 1.387 . S
C240 C241 1.387 . S
C240 H244 0.950 . S
C240 C249 1.390 . S
C241 C240 1.387 . S
C241 C243 1.387 . S
H242 C249 0.950 . S
C243 C241 1.387 . S
C243 C245 1.390 . S
C243 H247 0.950 . S
H244 C240 0.950 . S
C245 C243 1.390 . S
C245 C246 1.387 . S
C245 H248 0.950 . S
C246 C245 1.387 . S
C246 C249 1.387 . S
H247 C243 0.950 . S
H248 C245 0.950 . S
C249 C240 1.390 . S
C249 H242 0.950 . S
C249 C246 1.387 . S
C250 C251 1.387 . S
C250 H254 0.950 1_565 S
C250 C259 1.390 . S
C251 C250 1.387 . S
C251 C253 1.387 . S
H252 C259 0.950 1_545 S
C253 C251 1.387 . S
C253 C255 1.390 . S
C253 H257 0.950 . S
H254 C250 0.950 1_545 S
C255 C253 1.390 . S
C255 C256 1.387 . S
C255 H258 0.950 . S
C256 C255 1.387 . S
C256 C259 1.387 . S
H257 C253 0.950 . S
H258 C255 0.950 . S
C259 C250 1.390 . S
C259 H252 0.950 1_565 S
C259 C256 1.387 . S
C260 C261 1.387 . S
C260 H264 0.950 . S
C260 C269 1.390 . S
C261 C260 1.387 . S
C261 C263 1.387 . S
H262 C269 0.950 . S
C263 C261 1.387 . S
C263 C265 1.390 . S
C263 H267 0.950 . S
H264 C260 0.950 . S
C265 C263 1.390 . S
C265 C266 1.387 . S
C265 H268 0.950 . S
C266 C265 1.387 . S
C266 C269 1.387 . S
H267 C263 0.950 . S
H268 C265 0.950 . S
C269 C260 1.390 . S
C269 H262 0.950 . S
C269 C266 1.387 . S
C270 C271 1.387 . S
C270 H274 0.950 . S
C270 C279 1.390 . S
C271 C270 1.387 . S
C271 C273 1.387 . S
H272 C279 0.950 . S
C273 C271 1.387 . S
C273 C275 1.390 . S
C273 H277 0.950 . S
H274 C270 0.950 . S
C275 C273 1.390 . S
C275 C276 1.387 . S
C275 H278 0.950 . S
C276 C275 1.387 . S
C276 C279 1.387 . S
H277 C273 0.950 . S
H278 C275 0.950 . S
C279 C270 1.390 . S
C279 H272 0.950 . S
C279 C276 1.387 . S
C280 C281 1.387 . S
C280 H284 0.950 . S
C280 C289 1.390 . S
C281 C280 1.387 . S
C281 C283 1.387 . S
H282 C289 0.950 . S
C283 C281 1.387 . S
C283 C285 1.390 . S
C283 H287 0.950 . S
H284 C280 0.950 . S
C285 C283 1.390 . S
C285 C286 1.387 . S
C285 H288 0.950 . S
C286 C285 1.387 . S
C286 C289 1.387 . S
H287 C283 0.950 . S
H288 C285 0.950 . S
C289 C280 1.390 . S
C289 H282 0.950 . S
C289 C286 1.387 . S
C290 C291 1.387 . S
C290 H294 0.950 . S
C290 C299 1.390 . S
C291 C290 1.387 . S
C291 C293 1.387 . S
H292 C299 0.950 . S
C293 C291 1.387 . S
C293 C295 1.390 . S
C293 H297 0.950 . S
H294 C290 0.950 . S
C295 C293 1.390 . S
C295 C296 1.387 . S
C295 H298 0.950 . S
C296 C295 1.387 . S
C296 C299 1.387 . S
H297 C293 0.950 . S
H298 C295 0.950 . S
C299 C290 1.390 . S
C299 H292 0.950 . S
C299 C296 1.387 . S
C300 C301 1.387 . S
C300 H304 0.950 . S
C300 C309 1.390 . S
C301 C300 1.387 . S
C301 C303 1.387 . S
H302 C309 0.950 . S
C303 C301 1.387 . S
C303 C305 1.390 . S
C303 H307 0.950 . S
H304 C300 0.950 . S
C305 C303 1.390 . S
C305 C306 1.387 . S
C305 H308 0.950 . S
C306 C305 1.387 . S
C306 C309 1.387 . S
H307 C303 0.950 . S
H308 C305 0.950 . S
C309 C300 1.390 . S
C309 H302 0.950 . S
C309 C306 1.387 . S
C310 C311 1.387 . S
C310 H314 0.950 . S
C310 C319 1.390 . S
C311 C310 1.387 . S
C311 C313 1.387 . S
H312 C319 0.950 . S
C313 C311 1.387 . S
C313 C315 1.390 . S
C313 H317 0.950 1_565 S
H314 C310 0.950 . S
C315 C313 1.390 . S
C315 C316 1.387 . S
C315 H318 0.950 . S
C316 C315 1.387 . S
C316 C319 1.387 . S
H317 C313 0.950 1_545 S
H318 C315 0.950 . S
C319 C310 1.390 . S
C319 H312 0.950 . S
C319 C316 1.387 . S
C320 C321 1.387 . S
C320 H324 0.950 . S
C320 C329 1.390 . S
C321 C320 1.387 . S
C321 C323 1.387 . S
H322 C329 0.950 . S
C323 C321 1.387 . S
C323 C325 1.390 . S
C323 H327 0.950 . S
H324 C320 0.950 . S
C325 C323 1.390 . S
C325 C326 1.387 . S
C325 H328 0.950 . S
C326 C325 1.387 . S
C326 C329 1.387 . S
H327 C323 0.950 . S
H328 C325 0.950 . S
C329 C320 1.390 . S
C329 H322 0.950 . S
C329 C326 1.387 . S
C211 C58 1.181 . S
C216 C187 1.290 . S
C221 C151 1.614 . S
C226 C193 1.463 . S
C231 C74 1.578 . S
C236 C184 1.491 . S
C241 C142 1.183 . S
C246 C209 1.290 . S
C251 C67 1.617 . S
C256 C175 1.459 . S
C266 C192 1.487 . S
C261 C158 1.578 . S
C271 C154 1.147 . S
C276 C188 1.299 . S
C286 C205 1.498 . S
C281 C56 1.635 . S
C296 C172 1.434 . S
C291 C147 1.627 . S
C306 C208 1.300 . S
C301 C70 1.148 . S
C316 C171 1.498 . S
C311 C140 1.635 . S
C326 C196 1.431 . S
C321 C63 1.628 . S
