# Generated by pormake.
# Topology gar, (4,6)-cn, num edge types: 1
# Building blocks:
#     Node 0, Type 0, BuildingBlock: TATPOV_clean_sbu_0, # of connection points: 4
#     Node 1, Type 0, BuildingBlock: TATPOV_clean_sbu_0, # of connection points: 4
#     Node 2, Type 0, BuildingBlock: TATPOV_clean_sbu_0, # of connection points: 4
#     Node 3, Type 0, BuildingBlock: TATPOV_clean_sbu_0, # of connection points: 4
#     Node 4, Type 0, BuildingBlock: TATPOV_clean_sbu_0, # of connection points: 4
#     Node 5, Type 0, BuildingBlock: TATPOV_clean_sbu_0, # of connection points: 4
#     Node 6, Type 0, BuildingBlock: TATPOV_clean_sbu_0, # of connection points: 4
#     Node 7, Type 0, BuildingBlock: TATPOV_clean_sbu_0, # of connection points: 4
#     Node 8, Type 0, BuildingBlock: TATPOV_clean_sbu_0, # of connection points: 4
#     Node 9, Type 0, BuildingBlock: TATPOV_clean_sbu_0, # of connection points: 4
#     Node 10, Type 0, BuildingBlock: TATPOV_clean_sbu_0, # of connection points: 4
#     Node 11, Type 0, BuildingBlock: TATPOV_clean_sbu_0, # of connection points: 4
#     Node 12, Type 0, BuildingBlock: TATPOV_clean_sbu_0, # of connection points: 4
#     Node 13, Type 0, BuildingBlock: TATPOV_clean_sbu_0, # of connection points: 4
#     Node 14, Type 0, BuildingBlock: TATPOV_clean_sbu_0, # of connection points: 4
#     Node 15, Type 0, BuildingBlock: TATPOV_clean_sbu_0, # of connection points: 4
#     Node 16, Type 0, BuildingBlock: TATPOV_clean_sbu_0, # of connection points: 4
#     Node 17, Type 0, BuildingBlock: TATPOV_clean_sbu_0, # of connection points: 4
#     Node 18, Type 0, BuildingBlock: TATPOV_clean_sbu_0, # of connection points: 4
#     Node 19, Type 0, BuildingBlock: TATPOV_clean_sbu_0, # of connection points: 4
#     Node 20, Type 0, BuildingBlock: TATPOV_clean_sbu_0, # of connection points: 4
#     Node 21, Type 0, BuildingBlock: TATPOV_clean_sbu_0, # of connection points: 4
#     Node 22, Type 0, BuildingBlock: TATPOV_clean_sbu_0, # of connection points: 4
#     Node 23, Type 0, BuildingBlock: TATPOV_clean_sbu_0, # of connection points: 4
#     Node 24, Type 1, BuildingBlock: BETFEN_clean_sbu_0, # of connection points: 6
#     Node 25, Type 1, BuildingBlock: BETFEN_clean_sbu_0, # of connection points: 6
#     Node 26, Type 1, BuildingBlock: BETFEN_clean_sbu_0, # of connection points: 6
#     Node 27, Type 1, BuildingBlock: BETFEN_clean_sbu_0, # of connection points: 6
#     Node 28, Type 1, BuildingBlock: BETFEN_clean_sbu_0, # of connection points: 6
#     Node 29, Type 1, BuildingBlock: BETFEN_clean_sbu_0, # of connection points: 6
#     Node 30, Type 1, BuildingBlock: BETFEN_clean_sbu_0, # of connection points: 6
#     Node 31, Type 1, BuildingBlock: BETFEN_clean_sbu_0, # of connection points: 6
#     Node 32, Type 1, BuildingBlock: BETFEN_clean_sbu_0, # of connection points: 6
#     Node 33, Type 1, BuildingBlock: BETFEN_clean_sbu_0, # of connection points: 6
#     Node 34, Type 1, BuildingBlock: BETFEN_clean_sbu_0, # of connection points: 6
#     Node 35, Type 1, BuildingBlock: BETFEN_clean_sbu_0, # of connection points: 6
#     Node 36, Type 1, BuildingBlock: BETFEN_clean_sbu_0, # of connection points: 6
#     Node 37, Type 1, BuildingBlock: BETFEN_clean_sbu_0, # of connection points: 6
#     Node 38, Type 1, BuildingBlock: BETFEN_clean_sbu_0, # of connection points: 6
#     Node 39, Type 1, BuildingBlock: BETFEN_clean_sbu_0, # of connection points: 6
#     Edge 40, Type (0, 1), BuildingBlock: OJICUG_clean_linker_0, # of connection points: 2
#     Edge 41, Type (0, 1), BuildingBlock: OJICUG_clean_linker_0, # of connection points: 2
#     Edge 42, Type (0, 1), BuildingBlock: OJICUG_clean_linker_0, # of connection points: 2
#     Edge 43, Type (0, 1), BuildingBlock: OJICUG_clean_linker_0, # of connection points: 2
#     Edge 44, Type (0, 1), BuildingBlock: OJICUG_clean_linker_0, # of connection points: 2
#     Edge 45, Type (0, 1), BuildingBlock: OJICUG_clean_linker_0, # of connection points: 2
#     Edge 46, Type (0, 1), BuildingBlock: OJICUG_clean_linker_0, # of connection points: 2
#     Edge 47, Type (0, 1), BuildingBlock: OJICUG_clean_linker_0, # of connection points: 2
#     Edge 48, Type (0, 1), BuildingBlock: OJICUG_clean_linker_0, # of connection points: 2
#     Edge 49, Type (0, 1), BuildingBlock: OJICUG_clean_linker_0, # of connection points: 2
#     Edge 50, Type (0, 1), BuildingBlock: OJICUG_clean_linker_0, # of connection points: 2
#     Edge 51, Type (0, 1), BuildingBlock: OJICUG_clean_linker_0, # of connection points: 2
#     Edge 52, Type (0, 1), BuildingBlock: OJICUG_clean_linker_0, # of connection points: 2
#     Edge 53, Type (0, 1), BuildingBlock: OJICUG_clean_linker_0, # of connection points: 2
#     Edge 54, Type (0, 1), BuildingBlock: OJICUG_clean_linker_0, # of connection points: 2
#     Edge 55, Type (0, 1), BuildingBlock: OJICUG_clean_linker_0, # of connection points: 2
#     Edge 56, Type (0, 1), BuildingBlock: OJICUG_clean_linker_0, # of connection points: 2
#     Edge 57, Type (0, 1), BuildingBlock: OJICUG_clean_linker_0, # of connection points: 2
#     Edge 58, Type (0, 1), BuildingBlock: OJICUG_clean_linker_0, # of connection points: 2
#     Edge 59, Type (0, 1), BuildingBlock: OJICUG_clean_linker_0, # of connection points: 2
#     Edge 60, Type (0, 1), BuildingBlock: OJICUG_clean_linker_0, # of connection points: 2
#     Edge 61, Type (0, 1), BuildingBlock: OJICUG_clean_linker_0, # of connection points: 2
#     Edge 62, Type (0, 1), BuildingBlock: OJICUG_clean_linker_0, # of connection points: 2
#     Edge 63, Type (0, 1), BuildingBlock: OJICUG_clean_linker_0, # of connection points: 2
#     Edge 64, Type (0, 1), BuildingBlock: OJICUG_clean_linker_0, # of connection points: 2
#     Edge 65, Type (0, 1), BuildingBlock: OJICUG_clean_linker_0, # of connection points: 2
#     Edge 66, Type (0, 1), BuildingBlock: OJICUG_clean_linker_0, # of connection points: 2
#     Edge 67, Type (0, 1), BuildingBlock: OJICUG_clean_linker_0, # of connection points: 2
#     Edge 68, Type (0, 1), BuildingBlock: OJICUG_clean_linker_0, # of connection points: 2
#     Edge 69, Type (0, 1), BuildingBlock: OJICUG_clean_linker_0, # of connection points: 2
#     Edge 70, Type (0, 1), BuildingBlock: OJICUG_clean_linker_0, # of connection points: 2
#     Edge 71, Type (0, 1), BuildingBlock: OJICUG_clean_linker_0, # of connection points: 2
#     Edge 72, Type (0, 1), BuildingBlock: OJICUG_clean_linker_0, # of connection points: 2
#     Edge 73, Type (0, 1), BuildingBlock: OJICUG_clean_linker_0, # of connection points: 2
#     Edge 74, Type (0, 1), BuildingBlock: OJICUG_clean_linker_0, # of connection points: 2
#     Edge 75, Type (0, 1), BuildingBlock: OJICUG_clean_linker_0, # of connection points: 2
#     Edge 76, Type (0, 1), BuildingBlock: OJICUG_clean_linker_0, # of connection points: 2
#     Edge 77, Type (0, 1), BuildingBlock: OJICUG_clean_linker_0, # of connection points: 2
#     Edge 78, Type (0, 1), BuildingBlock: OJICUG_clean_linker_0, # of connection points: 2
#     Edge 79, Type (0, 1), BuildingBlock: OJICUG_clean_linker_0, # of connection points: 2
#     Edge 80, Type (0, 1), BuildingBlock: OJICUG_clean_linker_0, # of connection points: 2
#     Edge 81, Type (0, 1), BuildingBlock: OJICUG_clean_linker_0, # of connection points: 2
#     Edge 82, Type (0, 1), BuildingBlock: OJICUG_clean_linker_0, # of connection points: 2
#     Edge 83, Type (0, 1), BuildingBlock: OJICUG_clean_linker_0, # of connection points: 2
#     Edge 84, Type (0, 1), BuildingBlock: OJICUG_clean_linker_0, # of connection points: 2
#     Edge 85, Type (0, 1), BuildingBlock: OJICUG_clean_linker_0, # of connection points: 2
#     Edge 86, Type (0, 1), BuildingBlock: OJICUG_clean_linker_0, # of connection points: 2
#     Edge 87, Type (0, 1), BuildingBlock: OJICUG_clean_linker_0, # of connection points: 2
#     Edge 88, Type (0, 1), BuildingBlock: OJICUG_clean_linker_0, # of connection points: 2
#     Edge 89, Type (0, 1), BuildingBlock: OJICUG_clean_linker_0, # of connection points: 2
#     Edge 90, Type (0, 1), BuildingBlock: OJICUG_clean_linker_0, # of connection points: 2
#     Edge 91, Type (0, 1), BuildingBlock: OJICUG_clean_linker_0, # of connection points: 2
#     Edge 92, Type (0, 1), BuildingBlock: OJICUG_clean_linker_0, # of connection points: 2
#     Edge 93, Type (0, 1), BuildingBlock: OJICUG_clean_linker_0, # of connection points: 2
#     Edge 94, Type (0, 1), BuildingBlock: OJICUG_clean_linker_0, # of connection points: 2
#     Edge 95, Type (0, 1), BuildingBlock: OJICUG_clean_linker_0, # of connection points: 2
#     Edge 96, Type (0, 1), BuildingBlock: OJICUG_clean_linker_0, # of connection points: 2
#     Edge 97, Type (0, 1), BuildingBlock: OJICUG_clean_linker_0, # of connection points: 2
#     Edge 98, Type (0, 1), BuildingBlock: OJICUG_clean_linker_0, # of connection points: 2
#     Edge 99, Type (0, 1), BuildingBlock: OJICUG_clean_linker_0, # of connection points: 2
#     Edge 100, Type (0, 1), BuildingBlock: OJICUG_clean_linker_0, # of connection points: 2
#     Edge 101, Type (0, 1), BuildingBlock: OJICUG_clean_linker_0, # of connection points: 2
#     Edge 102, Type (0, 1), BuildingBlock: OJICUG_clean_linker_0, # of connection points: 2
#     Edge 103, Type (0, 1), BuildingBlock: OJICUG_clean_linker_0, # of connection points: 2
#     Edge 104, Type (0, 1), BuildingBlock: OJICUG_clean_linker_0, # of connection points: 2
#     Edge 105, Type (0, 1), BuildingBlock: OJICUG_clean_linker_0, # of connection points: 2
#     Edge 106, Type (0, 1), BuildingBlock: OJICUG_clean_linker_0, # of connection points: 2
#     Edge 107, Type (0, 1), BuildingBlock: OJICUG_clean_linker_0, # of connection points: 2
#     Edge 108, Type (0, 1), BuildingBlock: OJICUG_clean_linker_0, # of connection points: 2
#     Edge 109, Type (0, 1), BuildingBlock: OJICUG_clean_linker_0, # of connection points: 2
#     Edge 110, Type (0, 1), BuildingBlock: OJICUG_clean_linker_0, # of connection points: 2
#     Edge 111, Type (0, 1), BuildingBlock: OJICUG_clean_linker_0, # of connection points: 2
#     Edge 112, Type (0, 1), BuildingBlock: OJICUG_clean_linker_0, # of connection points: 2
#     Edge 113, Type (0, 1), BuildingBlock: OJICUG_clean_linker_0, # of connection points: 2
#     Edge 114, Type (0, 1), BuildingBlock: OJICUG_clean_linker_0, # of connection points: 2
#     Edge 115, Type (0, 1), BuildingBlock: OJICUG_clean_linker_0, # of connection points: 2
#     Edge 116, Type (0, 1), BuildingBlock: OJICUG_clean_linker_0, # of connection points: 2
#     Edge 117, Type (0, 1), BuildingBlock: OJICUG_clean_linker_0, # of connection points: 2
#     Edge 118, Type (0, 1), BuildingBlock: OJICUG_clean_linker_0, # of connection points: 2
#     Edge 119, Type (0, 1), BuildingBlock: OJICUG_clean_linker_0, # of connection points: 2
#     Edge 120, Type (0, 1), BuildingBlock: OJICUG_clean_linker_0, # of connection points: 2
#     Edge 121, Type (0, 1), BuildingBlock: OJICUG_clean_linker_0, # of connection points: 2
#     Edge 122, Type (0, 1), BuildingBlock: OJICUG_clean_linker_0, # of connection points: 2
#     Edge 123, Type (0, 1), BuildingBlock: OJICUG_clean_linker_0, # of connection points: 2
#     Edge 124, Type (0, 1), BuildingBlock: OJICUG_clean_linker_0, # of connection points: 2
#     Edge 125, Type (0, 1), BuildingBlock: OJICUG_clean_linker_0, # of connection points: 2
#     Edge 126, Type (0, 1), BuildingBlock: OJICUG_clean_linker_0, # of connection points: 2
#     Edge 127, Type (0, 1), BuildingBlock: OJICUG_clean_linker_0, # of connection points: 2
#     Edge 128, Type (0, 1), BuildingBlock: OJICUG_clean_linker_0, # of connection points: 2
#     Edge 129, Type (0, 1), BuildingBlock: OJICUG_clean_linker_0, # of connection points: 2
#     Edge 130, Type (0, 1), BuildingBlock: OJICUG_clean_linker_0, # of connection points: 2
#     Edge 131, Type (0, 1), BuildingBlock: OJICUG_clean_linker_0, # of connection points: 2
#     Edge 132, Type (0, 1), BuildingBlock: OJICUG_clean_linker_0, # of connection points: 2
#     Edge 133, Type (0, 1), BuildingBlock: OJICUG_clean_linker_0, # of connection points: 2
#     Edge 134, Type (0, 1), BuildingBlock: OJICUG_clean_linker_0, # of connection points: 2
#     Edge 135, Type (0, 1), BuildingBlock: OJICUG_clean_linker_0, # of connection points: 2
# Relax obj value: 0.269
# Max RMSD: 0.357
# Mean RMSD: 0.194
data_MOF--net-gar--node1-TATPOV_clean_sbu_0--node2-BETFEN_clean_sbu_0--edge1-OJICUG_clean_linker_0
_symmetry_space_group_name_H-M    P1
_symmetry_Int_Tables_number       1
_symmetry_cell_setting            triclinic
loop_
_symmetry_equiv_pos_as_xyz
'x, y, z'
_cell_length_a     49.153671
_cell_length_b     42.208768
_cell_length_c     42.565927
_cell_angle_alpha  94.534137
_cell_angle_beta   101.214
_cell_angle_gamma 105.20418
loop_
_atom_site_label
_atom_site_type_symbol
_atom_site_fract_x
_atom_site_fract_y
_atom_site_fract_z
_atom_type_partial_charge
Zn0 Zn 1.01253 0.34414 0.45651 0.0
Zn1 Zn 0.04963 0.3512 0.41974 0.0
O2 O 0.06294 0.40023 0.44693 0.0
O3 O 0.031 0.39202 0.47739 0.0
O4 O 0.07806 0.34634 0.39108 0.0
O5 O 0.02078 0.30418 0.47643 0.0
O6 O 0.04981 0.30781 0.44285 0.0
C7 C 0.05133 0.41173 0.4682 0.0
C8 C 0.9858 0.34306 0.3899 0.0
O9 O 1.01178 0.34838 0.38656 0.0
O10 O 0.97992 0.33846 0.41716 0.0
C11 C 0.0895 0.36453 0.37191 0.0
O12 O 0.08446 0.39335 0.36908 0.0
C13 C 0.03807 0.29261 0.46387 0.0
Zn14 Zn 0.0925 0.83107 0.68501 0.0
Zn15 Zn 0.09883 0.87448 0.64832 0.0
O16 O 0.06744 0.87982 0.67533 0.0
O17 O 0.06312 0.84056 0.70646 0.0
O18 O 0.1022 0.9181 0.62582 0.0
O19 O 0.13285 0.84356 0.709 0.0
O20 O 0.14158 0.88044 0.67574 0.0
C21 C 0.0559 0.86531 0.69686 0.0
C22 C 0.08208 0.79878 0.62144 0.0
O23 O 0.08674 0.82876 0.61466 0.0
O24 O 0.08235 0.79355 0.65027 0.0
C25 C 0.09386 0.92186 0.5963 0.0
O26 O 0.08268 0.89527 0.57466 0.0
C27 C 0.15067 0.86537 0.6988 0.0
Zn28 Zn 0.51773 0.84797 0.95849 0.0
Zn29 Zn 0.54909 0.8475 0.91604 0.0
O30 O 0.56417 0.89784 0.94087 0.0
O31 O 0.54118 0.89388 0.9806 0.0
O32 O 0.57672 0.84116 0.88676 0.0
O33 O 0.5227 0.80612 0.97662 0.0
O34 O 0.54893 0.80496 0.9406 0.0
C35 C 0.55854 0.91141 0.96606 0.0
C36 C 0.48645 0.84492 0.89179 0.0
O37 O 0.51006 0.84331 0.88446 0.0
O38 O 0.48444 0.84688 0.92108 0.0
C39 C 0.58989 0.86037 0.86943 0.0
O40 O 0.58668 0.89026 0.86875 0.0
C41 C 0.53786 0.79182 0.96304 0.0
Zn42 Zn 0.5906 0.32542 0.17899 0.0
Zn43 Zn 0.60083 0.37261 0.14491 0.0
O44 O 0.56866 0.37896 0.17031 0.0
O45 O 0.56202 0.33852 0.19996 0.0
O46 O 0.606 0.41528 0.12107 0.0
O47 O 0.63155 0.33726 0.20306 0.0
O48 O 0.6423 0.37857 0.17503 0.0
C49 C 0.55603 0.36416 0.19099 0.0
C50 C 0.58006 0.29677 0.11432 0.0
O51 O 0.58919 0.32751 0.11055 0.0
O52 O 0.57722 0.28929 0.14188 0.0
C53 C 0.58412 0.42316 0.10579 0.0
O54 O 0.55831 0.40249 0.10276 0.0
C55 C 0.65017 0.36145 0.19681 0.0
Zn56 Zn 0.14945 0.88571 0.09775 0.0
Zn57 Zn 0.11222 0.8776 0.1351 0.0
O58 O 0.10366 0.91595 0.10884 0.0
O59 O 0.13575 0.92343 0.0787 0.0
O60 O 0.08045 0.86778 0.15958 0.0
O61 O 0.13449 0.83728 0.07742 0.0
O62 O 0.10466 0.83123 0.11027 0.0
C63 C 0.115 0.93133 0.08771 0.0
C64 C 0.17634 0.89129 0.16618 0.0
O65 O 0.15063 0.88721 0.17024 0.0
O66 O 0.18122 0.89322 0.13812 0.0
C67 C 0.07366 0.89064 0.17465 0.0
O68 O 0.08862 0.92159 0.17552 0.0
C69 C 0.11538 0.81868 0.08917 0.0
Zn70 Zn 0.49536 0.83063 0.46757 0.0
Zn71 Zn 0.52982 0.83754 0.42634 0.0
O72 O 0.53863 0.88476 0.45087 0.0
O73 O 0.50988 0.87957 0.48495 0.0
O74 O 0.55976 0.84218 0.3989 0.0
O75 O 0.51259 0.79614 0.48925 0.0
O76 O 0.53827 0.79929 0.45219 0.0
C77 C 0.52838 0.89778 0.4722 0.0
C78 C 0.46502 0.8235 0.39948 0.0
O79 O 0.49029 0.82854 0.39388 0.0
O80 O 0.46155 0.82067 0.42805 0.0
C81 C 0.58091 0.86801 0.40156 0.0
O82 O 0.58304 0.89425 0.42163 0.0
C83 C 0.53085 0.78652 0.47658 0.0
Zn84 Zn 0.64938 0.38616 0.59867 0.0
Zn85 Zn 0.61232 0.37865 0.63588 0.0
O86 O 0.6053 0.41751 0.60965 0.0
O87 O 0.63637 0.42372 0.57838 0.0
O88 O 0.57872 0.37085 0.65805 0.0
O89 O 0.63402 0.33778 0.57843 0.0
O90 O 0.60375 0.33188 0.61079 0.0
C91 C 0.61615 0.4323 0.58792 0.0
C92 C 0.67655 0.39093 0.66716 0.0
O93 O 0.65083 0.38678 0.67142 0.0
O94 O 0.68126 0.39355 0.63908 0.0
C95 C 0.57965 0.37364 0.68818 0.0
O96 O 0.60487 0.3831 0.70875 0.0
C97 C 0.61452 0.31927 0.58972 0.0
Zn98 Zn 0.99382 0.33036 0.96672 0.0
Zn99 Zn 0.03118 0.33717 0.93024 0.0
O100 O 0.04018 0.38461 0.95377 0.0
O101 O 1.00918 0.37929 0.9853 0.0
O102 O 0.06406 0.34188 0.90735 0.0
O103 O 1.00633 0.29324 0.98847 0.0
O104 O 0.03817 0.29952 0.95816 0.0
C105 C 0.02881 0.39757 0.97398 0.0
C106 C 0.96703 0.32504 0.89848 0.0
O107 O 0.99285 0.32913 0.8946 0.0
O108 O 0.96194 0.32222 0.92637 0.0
C109 C 0.06951 0.36129 0.8866 0.0
O110 O 0.05181 0.37892 0.87702 0.0
C111 C 0.02705 0.28499 0.97983 0.0
Zn112 Zn 0.53318 0.22386 0.35427 0.0
Zn113 Zn 0.49202 0.2384 0.34107 0.0
O114 O 0.50214 0.22765 0.38969 0.0
O115 O 0.54909 0.24533 0.39991 0.0
O116 O 0.46657 0.26858 0.33438 0.0
O117 O 0.55662 0.23619 0.32246 0.0
O118 O 0.51184 0.23424 0.30153 0.0
C119 C 0.52644 0.23338 0.4097 0.0
C120 C 0.47435 0.17274 0.32892 0.0
O121 O 0.46412 0.19695 0.32497 0.0
O122 O 0.50097 0.17722 0.34203 0.0
C123 C 0.44216 0.25943 0.34198 0.0
O124 O 0.43733 0.23512 0.35949 0.0
C125 C 0.53683 0.23349 0.29776 0.0
Zn126 Zn 0.25881 0.29876 0.50798 0.0
Zn127 Zn 0.29221 0.25974 0.51395 0.0
O128 O 0.30246 0.28528 0.47429 0.0
O129 O 0.27229 0.31574 0.46759 0.0
O130 O 0.32291 0.23553 0.52292 0.0
O131 O 0.27438 0.32114 0.55527 0.0
O132 O 0.29942 0.28508 0.56028 0.0
C133 C 0.29204 0.30568 0.45849 0.0
C134 C 0.22712 0.22853 0.50349 0.0
O135 O 0.25192 0.22354 0.50526 0.0
O136 O 0.22482 0.25776 0.50349 0.0
C137 C 0.32834 0.21639 0.50196 0.0
O138 O 0.31252 0.21032 0.47231 0.0
C139 C 0.29069 0.30777 0.57319 0.0
Zn140 Zn 0.19605 0.20728 0.89906 0.0
Zn141 Zn 0.22425 0.16209 0.89251 0.0
O142 O 0.20568 0.14922 0.92972 0.0
O143 O 0.19209 0.19347 0.94176 0.0
O144 O 0.24521 0.12889 0.88408 0.0
O145 O 0.16579 0.18255 0.85943 0.0
O146 O 0.19279 0.14945 0.85304 0.0
C147 C 0.1937 0.16481 0.9469 0.0
C148 C 0.25083 0.23655 0.8895 0.0
O149 O 0.25258 0.20723 0.89173 0.0
O150 O 0.22821 0.244 0.8929 0.0
C151 C 0.26228 0.13529 0.86506 0.0
O152 O 0.26748 0.16412 0.85438 0.0
C153 C 0.1703 0.15852 0.84354 0.0
Zn154 Zn 0.3757 0.93374 0.04369 0.0
Zn155 Zn 0.3395 0.96932 0.04076 0.0
O156 O 0.32828 0.94123 0.99335 0.0
O157 O 0.35769 0.9097 0.99838 0.0
O158 O 0.30738 0.99277 0.04214 0.0
O159 O 0.36773 0.91356 0.08365 0.0
O160 O 0.34008 0.94676 0.08452 0.0
C161 C 0.33823 0.9192 0.98082 0.0
C162 C 0.40319 1.00397 0.04559 0.0
O163 O 0.37749 1.00648 0.04251 0.0
O164 O 0.40809 0.97615 0.0479 0.0
C165 C 0.31211 0.01909 0.06182 0.0
O166 O 0.33819 0.03194 0.08017 0.0
C167 C 0.35164 0.92572 0.0978 0.0
Zn168 Zn 0.38628 0.41727 0.05593 0.0
Zn169 Zn 0.35303 0.45662 0.0533 0.0
O170 O 0.34335 0.43104 1.00594 0.0
O171 O 0.37221 0.39895 0.00804 0.0
O172 O 0.32252 0.48205 0.05085 0.0
O173 O 0.37079 0.39425 0.09259 0.0
O174 O 0.34604 0.43052 0.09361 0.0
C175 C 0.35353 0.41048 0.9917 0.0
C176 C 0.41825 0.48772 0.06242 0.0
O177 O 0.39326 0.49245 0.05955 0.0
O178 O 0.42075 0.45865 0.0638 0.0
C179 C 0.3074 0.48619 0.02437 0.0
O180 O 0.31255 0.47558 0.99689 0.0
C181 C 0.35391 0.40647 0.10544 0.0
Zn182 Zn 0.77652 0.29609 0.02381 0.0
Zn183 Zn 0.80672 0.2549 0.02737 0.0
O184 O 0.80895 0.27762 0.98408 0.0
O185 O 0.78398 0.31399 0.98311 0.0
O186 O 0.83682 0.22813 0.02698 0.0
O187 O 0.7954 0.32068 0.06829 0.0
O188 O 0.81894 0.28318 0.07485 0.0
C189 C 0.79907 0.29935 0.96994 0.0
C190 C 0.7419 0.22803 0.02105 0.0
O191 O 0.76597 0.221 0.02354 0.0
O192 O 0.74137 0.2578 0.02021 0.0
C193 C 0.8373 0.21104 1.00102 0.0
O194 O 0.8174 0.20932 0.97488 0.0
C195 C 0.81206 0.30817 0.08665 0.0
Zn196 Zn 0.12306 0.52928 0.19897 0.0
Zn197 Zn 0.15274 0.48828 0.21777 0.0
O198 O 0.12411 0.48427 0.24803 0.0
O199 O 0.11405 0.53181 0.24144 0.0
O200 O 0.17911 0.45962 0.22956 0.0
O201 O 0.09926 0.48609 0.17022 0.0
O202 O 0.14286 0.48894 0.16767 0.0
C203 C 0.11395 0.50755 0.25701 0.0
C204 C 0.1833 0.55668 0.22147 0.0
O205 O 0.17998 0.53105 0.23513 0.0
O206 O 0.16372 0.55926 0.19834 0.0
C207 C 0.19773 0.4685 0.25644 0.0
O208 O 0.19643 0.49269 0.27696 0.0
C209 C 0.11708 0.48576 0.15284 0.0
Zn210 Zn 0.88358 0.91797 0.55485 0.0
Zn211 Zn 0.85327 0.96067 0.55387 0.0
O212 O 0.84589 0.93688 0.50614 0.0
O213 O 0.86563 0.8958 0.50851 0.0
O214 O 0.82232 0.98587 0.55067 0.0
O215 O 0.87016 0.89726 0.59317 0.0
O216 O 0.84533 0.93352 0.59352 0.0
C217 C 0.85151 0.91228 0.49196 0.0
C218 C 0.91769 0.98934 0.56174 0.0
O219 O 0.89373 0.99581 0.56208 0.0
O220 O 0.91843 0.95936 0.55977 0.0
C221 C 0.80819 0.99106 0.52403 0.0
O222 O 0.81474 0.9819 0.49691 0.0
C223 C 0.85319 0.90958 0.60568 0.0
Zn224 Zn 0.94574 0.0148 0.16483 0.0
Zn225 Zn 0.9174 0.05945 0.16969 0.0
O226 O 0.94969 0.07439 0.20825 0.0
O227 O 0.97625 0.04041 0.20412 0.0
O228 O 0.89574 0.09189 0.17691 0.0
O229 O 0.94957 0.0269 0.12164 0.0
O230 O 0.93536 0.07106 0.13188 0.0
C231 C 0.97201 0.06542 0.21868 0.0
C232 C 0.89188 0.98571 0.17615 0.0
O233 O 0.89009 0.01505 0.174 0.0
O234 O 0.91403 0.97798 0.17146 0.0
C235 C 0.89095 0.09369 0.20518 0.0
O236 O 0.89789 0.07281 0.22442 0.0
C237 C 0.94791 0.05532 0.11566 0.0
Zn238 Zn 0.27314 0.79317 0.52821 0.0
Zn239 Zn 0.30677 0.75348 0.52656 0.0
O240 O 0.30645 0.77719 0.48403 0.0
O241 O 0.28129 0.81278 0.48797 0.0
O242 O 0.33759 0.72828 0.52423 0.0
O243 O 0.29389 0.81576 0.57352 0.0
O244 O 0.32022 0.78072 0.57418 0.0
C245 C 0.29583 0.79956 0.47231 0.0
C246 C 0.24262 0.72276 0.52292 0.0
O247 O 0.26742 0.71815 0.52372 0.0
O248 O 0.23965 0.75173 0.52394 0.0
C249 C 0.33668 0.70937 0.49885 0.0
O250 O 0.3149 0.70486 0.47393 0.0
C251 C 0.31286 0.80388 0.58872 0.0
Zn252 Zn 0.4401 0.50876 0.66417 0.0
Zn253 Zn 0.42171 0.56211 0.66979 0.0
O254 O 0.45806 0.57764 0.70303 0.0
O255 O 0.46176 0.52776 0.71033 0.0
O256 O 0.40207 0.59583 0.67924 0.0
O257 O 0.45526 0.52967 0.62868 0.0
O258 O 0.43297 0.56868 0.62758 0.0
C259 C 0.46897 0.55868 0.71959 0.0
C260 C 0.38837 0.48898 0.67486 0.0
O261 O 0.39531 0.5204 0.68082 0.0
O262 O 0.40191 0.47517 0.65838 0.0
C263 C 0.40026 0.59995 0.70858 0.0
O264 O 0.41058 0.58188 0.72895 0.0
C265 C 0.44995 0.55468 0.6171 0.0
Zn266 Zn 0.61799 0.06856 0.71109 0.0
Zn267 Zn 0.6534 0.98044 0.71883 0.0
O268 O 0.62861 0.98203 0.75335 0.0
O269 O 0.62232 0.02314 0.72825 0.0
O270 O 0.67569 0.94774 0.72748 0.0
O271 O 0.62524 0.02222 0.69521 0.0
O272 O 0.63226 0.97917 0.67022 0.0
C273 C 0.61962 0.00762 0.75264 0.0
C274 C 0.67793 0.04916 0.73115 0.0
O275 O 0.68664 0.02357 0.73145 0.0
O276 O 0.65109 0.04477 0.71955 0.0
C277 C 0.69344 0.95704 0.75485 0.0
O278 O 0.69135 0.98158 0.77436 0.0
C279 C 0.62287 1.0045 0.66845 0.0
Zn280 Zn 0.76036 0.80078 0.01035 0.0
Zn281 Zn 0.79297 0.76138 0.01468 0.0
O282 O 0.80008 0.7856 0.97338 0.0
O283 O 0.77578 0.82244 0.97346 0.0
O284 O 0.82514 0.73864 0.02195 0.0
O285 O 0.77373 0.82099 0.05754 0.0
O286 O 0.80136 0.78753 0.06134 0.0
C287 C 0.7923 0.80939 0.96087 0.0
C288 C 0.72806 0.73035 1.00434 0.0
O289 O 0.75295 0.72519 0.00796 0.0
O290 O 0.72598 0.75954 1.00259 0.0
C291 C 0.82562 0.71191 1.00636 0.0
O292 O 0.80325 0.69587 0.98313 0.0
C293 C 0.79149 0.80891 0.07477 0.0
Zn294 Zn 0.02945 0.70768 0.82388 0.0
Zn295 Zn 0.99525 0.73633 0.83899 0.0
O296 O 1.01178 0.73117 0.88575 0.0
O297 O 0.04241 0.70579 0.87157 0.0
O298 O 0.96642 0.76297 0.83455 0.0
O299 O 0.02514 0.75433 0.80863 0.0
O300 O 0.02564 0.75544 0.80923 0.0
C301 C 0.03121 0.71641 0.89311 0.0
C302 C 0.97321 0.66683 0.80429 0.0
O303 O 0.97024 0.69215 0.81946 0.0
O304 O 0.99781 0.66595 0.8001 0.0
C305 C 0.93981 0.74845 0.83278 0.0
O306 O 0.93239 0.71821 0.84016 0.0
C307 C 0.0175 0.75039 0.77827 0.0
Zn308 Zn 0.87636 0.43448 0.54214 0.0
Zn309 Zn 0.8391 0.46885 0.54067 0.0
O310 O 0.82652 0.44071 0.49361 0.0
O311 O 0.86108 0.41626 0.49436 0.0
O312 O 0.80726 0.49227 0.54301 0.0
O313 O 0.86549 0.41038 0.57959 0.0
O314 O 0.84071 0.44628 0.58391 0.0
C315 C 0.83905 0.42303 0.47887 0.0
C316 C 0.90294 0.50477 0.54745 0.0
O317 O 0.87681 0.50615 0.54177 0.0
O318 O 0.90852 0.47754 0.55146 0.0
C319 C 0.81118 0.51616 0.5653 0.0
O320 O 0.83628 0.52639 0.58608 0.0
C321 C 0.85098 0.42357 0.59536 0.0
Zn322 Zn 0.69133 0.71233 0.39778 0.0
Zn323 Zn 0.71817 0.66295 0.3852 0.0
O324 O 0.70472 0.64684 0.42402 0.0
O325 O 0.68613 0.68753 0.43537 0.0
O326 O 0.73596 0.63082 0.367 0.0
O327 O 0.66193 0.69447 0.35581 0.0
O328 O 0.68394 0.65579 0.35008 0.0
C329 C 0.69117 0.66029 0.44097 0.0
C330 C 0.74859 0.73712 0.38921 0.0
O331 O 0.74794 0.70673 0.38678 0.0
O332 O 0.72741 0.74622 0.39534 0.0
C333 C 0.75311 0.61745 0.38336 0.0
O334 O 0.75974 0.6241 0.41505 0.0
C335 C 0.6636 0.66832 0.34059 0.0
Pr336 Pr 0.04129 0.09118 0.00992 0.0
Pr337 Pr 0.10406 0.12871 0.06022 0.0
C338 C 0.98481 0.08251 0.98374 0.0
C339 C 0.96475 0.1033 0.9868 0.0
C340 C 0.94863 0.11125 0.95908 0.0
C341 C 0.92943 0.13037 0.96159 0.0
C342 C 0.92545 0.14192 0.99198 0.0
C343 C 0.94224 0.13455 0.01978 0.0
C344 C 0.96164 0.1157 0.01723 0.0
C345 C 0.09005 0.10853 0.98501 0.0
C346 C 0.06442 0.17534 0.03141 0.0
C347 C 0.16104 0.13958 0.08574 0.0
C348 C 0.1816 0.11958 0.08314 0.0
C349 C 0.20618 0.12391 0.10797 0.0
C350 C 0.22629 0.10614 0.10508 0.0
C351 C 0.22243 0.08353 0.07718 0.0
C352 C 0.19727 0.07862 0.0527 0.0
C353 C 0.17719 0.09644 0.05561 0.0
C354 C 0.05521 0.11101 0.08499 0.0
C355 C 0.08018 0.04392 0.03935 0.0
O356 O 0.99378 0.06938 0.0092 0.0
O357 O 1.00518 0.09328 0.96812 0.0
O358 O 0.0838 0.12451 0.00711 0.0
O359 O 0.06896 0.08193 0.97169 0.0
O360 O 0.09171 0.1758 0.04284 0.0
O361 O 0.04295 0.14735 0.02517 0.0
O362 O 0.15111 0.15074 0.05939 0.0
O363 O 0.14111 0.12888 0.10195 0.0
O364 O 0.06176 0.09533 0.06295 0.0
O365 O 0.07607 0.13787 0.09829 0.0
O366 O 0.05309 0.04365 0.0269 0.0
O367 O 0.10179 0.07189 0.04678 0.0
H368 H 0.95082 0.10257 0.93531 0.0
H369 H 0.91772 0.13609 0.93951 0.0
H370 H 0.93995 0.14257 0.04367 0.0
H371 H 0.97403 0.11061 0.03919 0.0
H372 H 0.21004 0.14137 0.12953 0.0
H373 H 0.24495 0.11023 0.12483 0.0
H374 H 0.19343 0.06173 0.03075 0.0
H375 H 0.15839 0.09249 0.03604 0.0
Pr376 Pr 0.32824 0.89391 0.29972 0.0
Pr377 Pr 0.31465 0.83105 0.2694 0.0
C378 C 0.35454 0.95656 0.3251 0.0
C379 C 0.36291 0.98738 0.31176 0.0
C380 C 0.35354 0.01412 0.32221 0.0
C381 C 0.36596 0.04545 0.31511 0.0
C382 C 0.38789 0.04992 0.29786 0.0
C383 C 0.39436 0.02261 0.28366 0.0
C384 C 0.38185 0.99124 0.29058 0.0
C385 C 0.27133 0.87657 0.26339 0.0
C386 C 0.33765 0.88501 0.22354 0.0
C387 C 0.28614 0.76857 0.24658 0.0
C388 C 0.28155 0.73868 0.26225 0.0
C389 C 0.30154 0.72005 0.26436 0.0
C390 C 0.29424 0.68845 0.2731 0.0
C391 C 0.26681 0.6754 0.27914 0.0
C392 C 0.24926 0.69614 0.28291 0.0
C393 C 0.25635 0.72757 0.27385 0.0
C394 C 0.37133 0.84666 0.30572 0.0
C395 C 0.30615 0.83999 0.34592 0.0
O396 O 0.36874 0.93504 0.3202 0.0
O397 O 0.32679 0.9435 0.32195 0.0
O398 O 0.29267 0.87089 0.25412 0.0
O399 O 0.27874 0.89043 0.2933 0.0
O400 O 0.32505 0.85348 0.22335 0.0
O401 O 0.34329 0.90579 0.2505 0.0
O402 O 0.2731 0.79013 0.25509 0.0
O403 O 0.31248 0.78184 0.24325 0.0
O404 O 0.35044 0.85372 0.31506 0.0
O405 O 0.36354 0.83271 0.27582 0.0
O406 O 0.3176 0.87167 0.34568 0.0
O407 O 0.30132 0.81906 0.31932 0.0
H408 H 0.33839 0.01126 0.3379 0.0
H409 H 0.36095 0.0666 0.3262 0.0
H410 H 0.41148 0.02597 0.2705 0.0
H411 H 0.38875 0.97064 0.28147 0.0
H412 H 0.32164 0.72858 0.25663 0.0
H413 H 0.30802 0.67262 0.27041 0.0
H414 H 0.22799 0.68634 0.28772 0.0
H415 H 0.24095 0.74188 0.27338 0.0
Pr416 Pr 0.60123 0.11349 0.5251 0.0
Pr417 Pr 0.53894 0.10295 0.5341 0.0
C418 C 0.6549 0.11122 0.52142 0.0
C419 C 0.67421 0.08979 0.52 0.0
C420 C 0.6948 0.09718 0.50103 0.0
C421 C 0.71492 0.07915 0.50081 0.0
C422 C 0.71499 0.0532 0.51964 0.0
C423 C 0.69383 0.04528 0.53811 0.0
C424 C 0.67358 0.06337 0.53824 0.0
C425 C 0.56968 0.14781 0.48629 0.0
C426 C 0.55205 0.04035 0.49642 0.0
C427 C 0.48601 0.10528 0.54025 0.0
C428 C 0.46748 0.12763 0.5397 0.0
C429 C 0.4478 0.12418 0.55996 0.0
C430 C 0.42735 0.14204 0.55686 0.0
C431 C 0.42613 0.16327 0.53317 0.0
C432 C 0.44691 0.16812 0.5142 0.0
C433 C 0.46759 0.15061 0.51759 0.0
C434 C 0.57091 0.06976 0.57334 0.0
C435 C 0.58819 0.17638 0.56221 0.0
O436 O 0.64739 0.1167 0.54882 0.0
O437 O 0.6343 0.10865 0.49588 0.0
O438 O 0.55927 0.11844 0.49162 0.0
O439 O 0.59735 0.15829 0.498 0.0
O440 O 0.53127 0.05412 0.49943 0.0
O441 O 0.57961 0.05699 0.50632 0.0
O442 O 0.49178 0.09615 0.5127 0.0
O443 O 0.50791 0.11079 0.56503 0.0
O444 O 0.58071 0.09914 0.56786 0.0
O445 O 0.54348 0.05803 0.56098 0.0
O446 O 0.60891 0.16237 0.55965 0.0
O447 O 0.56059 0.15983 0.55199 0.0
H448 H 0.69575 0.11752 0.48686 0.0
H449 H 0.73103 0.08628 0.48662 0.0
H450 H 0.69297 0.02517 0.55252 0.0
H451 H 0.65775 0.05704 0.55293 0.0
H452 H 0.44751 0.10668 0.57728 0.0
H453 H 0.4115 0.13787 0.5717 0.0
H454 H 0.44654 0.18468 0.49603 0.0
H455 H 0.48288 0.15404 0.50205 0.0
Pr456 Pr 0.28876 0.35985 0.77779 0.0
Pr457 Pr 0.35311 0.36049 0.78623 0.0
C458 C 0.23463 0.36125 0.7796 0.0
C459 C 0.21432 0.36382 0.80039 0.0
C460 C 0.20301 0.3911 0.79985 0.0
C461 C 0.18171 0.39311 0.81667 0.0
C462 C 0.17093 0.36765 0.83422 0.0
C463 C 0.18321 0.34099 0.83592 0.0
C464 C 0.2047 0.33906 0.81912 0.0
C465 C 0.32208 0.40971 0.7516 0.0
C466 C 0.3335 0.38589 0.85102 0.0
C467 C 0.40873 0.36705 0.78411 0.0
C468 C 0.42888 0.36038 0.76462 0.0
C469 C 0.44784 0.34231 0.77688 0.0
C470 C 0.47006 0.33944 0.76184 0.0
C471 C 0.47386 0.35471 0.73424 0.0
C472 C 0.4536 0.37081 0.7206 0.0
C473 C 0.43131 0.37374 0.73575 0.0
C474 C 0.3206 0.30916 0.81167 0.0
C475 C 0.30711 0.33009 0.71367 0.0
O476 O 0.24145 0.33343 0.77507 0.0
O477 O 0.25604 0.38777 0.78115 0.0
O478 O 0.33055 0.40131 0.7789 0.0
O479 O 0.29591 0.39286 0.73772 0.0
O480 O 0.35572 0.38963 0.8369 0.0
O481 O 0.30668 0.3727 0.83421 0.0
O482 O 0.39602 0.39019 0.77749 0.0
O483 O 0.39243 0.34153 0.79355 0.0
O484 O 0.3114 0.31917 0.78543 0.0
O485 O 0.34778 0.3236 0.82367 0.0
O486 O 0.28498 0.33071 0.72699 0.0
O487 O 0.3342 0.34066 0.7306 0.0
H488 H 0.21018 0.4106 0.78567 0.0
H489 H 0.1733 0.41438 0.81541 0.0
H490 H 0.17539 0.32085 0.84909 0.0
H491 H 0.21311 0.3178 0.82006 0.0
H492 H 0.44623 0.33152 0.79896 0.0
H493 H 0.48496 0.32631 0.77253 0.0
H494 H 0.45596 0.38278 0.6993 0.0
H495 H 0.41677 0.38752 0.72559 0.0
Pr496 Pr 0.063 0.09254 0.49993 0.0
Pr497 Pr 0.08076 0.12697 0.56171 0.0
C498 C 0.03261 0.0642 0.44119 0.0
C499 C 0.02886 0.07699 0.41041 0.0
C500 C 0.05292 0.09328 0.39871 0.0
C501 C 0.04888 0.10391 0.36853 0.0
C502 C 0.02082 0.09886 0.35022 0.0
C503 C 0.99685 0.08505 0.36313 0.0
C504 C 1.00088 0.07397 0.39305 0.0
C505 C 0.12115 0.13026 0.5104 0.0
C506 C 0.05806 0.17065 0.50808 0.0
C507 C 0.11077 0.15549 0.62047 0.0
C508 C 0.11386 0.14299 0.6514 0.0
C509 C 0.0894 0.12808 0.66313 0.0
C510 C 0.09285 0.11819 0.69364 0.0
C511 C 0.12068 0.12253 0.71219 0.0
C512 C 0.14496 0.13459 0.69924 0.0
C513 C 0.14155 0.14505 0.66901 0.0
C514 C 0.02279 0.08829 0.55138 0.0
C515 C 0.0864 0.04909 0.55352 0.0
O516 O 0.02105 0.07659 0.46261 0.0
O517 O 0.0583 0.06112 0.45302 0.0
O518 O 0.10094 0.13988 0.51844 0.0
O519 O 0.11158 0.1 0.4958 0.0
O520 O 0.07414 0.1729 0.53712 0.0
O521 O 0.04824 0.14144 0.48971 0.0
O522 O 0.12239 0.14245 0.5995 0.0
O523 O 0.08538 0.15909 0.60814 0.0
O524 O 0.04327 0.07918 0.54346 0.0
O525 O 0.03187 0.11888 0.56519 0.0
O526 O 0.07086 0.04696 0.52418 0.0
O527 O 0.09529 0.07799 0.57241 0.0
H528 H 0.0748 0.09682 0.41229 0.0
H529 H 0.06752 0.11443 0.35876 0.0
H530 H 0.97497 0.08054 0.34908 0.0
H531 H 0.98217 0.06214 0.40218 0.0
H532 H 0.06771 0.12525 0.64937 0.0
H533 H 0.07402 0.10909 0.70355 0.0
H534 H 0.16666 0.1385 0.71356 0.0
H535 H 0.16054 0.1558 0.65986 0.0
Pr536 Pr 0.31365 0.82666 0.78638 0.0
Pr537 Pr 0.33926 0.90164 0.77964 0.0
C538 C 0.29923 0.76038 0.77902 0.0
C539 C 0.31352 0.73681 0.76799 0.0
C540 C 0.31049 0.70672 0.78052 0.0
C541 C 0.32616 0.6854 0.77225 0.0
C542 C 0.34485 0.69402 0.75124 0.0
C543 C 0.34819 0.72447 0.73919 0.0
C544 C 0.33279 0.74587 0.74774 0.0
C545 C 0.31312 0.86375 0.84438 0.0
C546 C 0.38476 0.86087 0.8089 0.0
C547 C 0.35323 0.9679 0.78672 0.0
C548 C 0.33812 0.99137 0.79604 0.0
C549 C 0.34104 0.02082 0.78242 0.0
C550 C 0.32597 0.04288 0.79048 0.0
C551 C 0.30806 0.03592 0.81264 0.0
C552 C 0.30415 1.00551 0.82497 0.0
C553 C 0.31889 0.9833 0.81649 0.0
C554 C 0.34085 0.86374 0.7226 0.0
C555 C 0.26814 0.86692 0.75516 0.0
O556 O 0.28861 0.77685 0.75722 0.0
O557 O 0.31341 0.77885 0.80636 0.0
O558 O 0.32194 0.876 0.82058 0.0
O559 O 0.30261 0.832 0.83714 0.0
O560 O 0.3805 0.89044 0.80813 0.0
O561 O 0.36373 0.83335 0.79723 0.0
O562 O 0.36282 0.95158 0.80932 0.0
O563 O 0.34064 0.94938 0.759 0.0
O564 O 0.3317 0.85238 0.74646 0.0
O565 O 0.35171 0.89553 0.72934 0.0
O566 O 0.27249 0.83765 0.75812 0.0
O567 O 0.2891 0.89478 0.76546 0.0
H568 H 0.29627 0.69991 0.79691 0.0
H569 H 0.32331 0.66199 0.78179 0.0
H570 H 0.36288 0.73178 0.72339 0.0
H571 H 0.3362 0.76965 0.73889 0.0
H572 H 0.35499 0.02675 0.76561 0.0
H573 H 0.32868 0.06558 0.77971 0.0
H574 H 0.29052 0.99928 0.84203 0.0
H575 H 0.31553 0.95996 0.82615 0.0
Pr576 Pr 0.57963 0.1046 0.06153 0.0
Pr577 Pr 0.5616 0.11545 0.99345 0.0
C578 C 0.59171 0.10801 0.12609 0.0
C579 C 0.57704 0.12136 0.1487 0.0
C580 C 0.58153 0.11546 0.18091 0.0
C581 C 0.56979 0.13111 0.20286 0.0
C582 C 0.55335 0.15271 0.19276 0.0
C583 C 0.54676 0.15624 0.15993 0.0
C584 C 0.55864 0.14075 0.13804 0.0
C585 C 0.57055 0.04641 0.01837 0.0
C586 C 0.51082 0.08832 0.03156 0.0
C587 C 0.54883 0.10902 0.92872 0.0
C588 C 0.56146 0.09553 0.90441 0.0
C589 C 0.55473 0.10168 0.87246 0.0
C590 C 0.56687 0.08869 0.84931 0.0
C591 C 0.58574 0.06928 0.85793 0.0
C592 C 0.59304 0.06398 0.89023 0.0
C593 C 0.58116 0.07734 0.91341 0.0
C594 C 0.56148 0.17367 0.0313 0.0
C595 C 0.63189 0.13756 0.02527 0.0
O596 O 0.60647 0.12977 0.11092 0.0
O597 O 0.57598 0.08102 0.10707 0.0
O598 O 0.58314 0.07552 0.01356 0.0
O599 O 0.56281 0.04756 0.04569 0.0
O600 O 0.51753 0.08505 1.00328 0.0
O601 O 0.53116 0.10293 0.05729 0.0
O602 O 0.53521 0.08747 0.94501 0.0
O603 O 0.56579 0.13607 0.94683 0.0
O604 O 0.56795 0.14897 0.04204 0.0
O605 O 0.55395 0.16847 1.00013 0.0
O606 O 0.62602 0.12972 0.05314 0.0
O607 O 0.61147 0.13237 0.99882 0.0
H608 H 0.59505 0.09992 0.18935 0.0
H609 H 0.57482 0.1278 0.22811 0.0
H610 H 0.5342 0.17279 0.15165 0.0
H611 H 0.55456 0.14516 0.11306 0.0
H612 H 0.53998 0.11628 0.86541 0.0
H613 H 0.56094 0.09312 0.82452 0.0
H614 H 0.60795 0.04964 0.89751 0.0
H615 H 0.58725 0.07342 0.93834 0.0
Pr616 Pr 0.28888 0.32637 0.26724 0.0
Pr617 Pr 0.3482 0.38572 0.2911 0.0
C618 C 0.23309 0.29216 0.26215 0.0
C619 C 0.21065 0.30101 0.27704 0.0
C620 C 0.18108 0.28472 0.26521 0.0
C621 C 0.16013 0.29436 0.27896 0.0
C622 C 0.1684 0.32083 0.30444 0.0
C623 C 0.19801 0.33702 0.31605 0.0
C624 C 0.21879 0.32716 0.30262 0.0
C625 C 0.31592 0.35114 0.21773 0.0
C626 C 0.28842 0.40559 0.28439 0.0
C627 C 0.40131 0.4234 0.28899 0.0
C628 C 0.4247 0.41868 0.27324 0.0
C629 C 0.45292 0.42493 0.292 0.0
C630 C 0.47491 0.41835 0.27827 0.0
C631 C 0.46925 0.40587 0.24536 0.0
C632 C 0.4412 0.4001 0.22637 0.0
C633 C 0.41904 0.4062 0.24021 0.0
C634 C 0.32955 0.35932 0.34564 0.0
C635 C 0.34878 0.30845 0.28191 0.0
O636 O 0.25467 0.28639 0.28199 0.0
O637 O 0.24168 0.31047 0.24059 0.0
O638 O 0.314 0.36802 0.24275 0.0
O639 O 0.30279 0.31978 0.21723 0.0
O640 O 0.31647 0.41855 0.28692 0.0
O641 O 0.27618 0.37359 0.28269 0.0
O642 O 0.3775 0.42581 0.27047 0.0
O643 O 0.39644 0.40562 0.31216 0.0
O644 O 0.31767 0.35074 0.31601 0.0
O645 O 0.35231 0.38433 0.34809 0.0
O646 O 0.32196 0.29751 0.28542 0.0
O647 O 0.35789 0.33733 0.27198 0.0
H648 H 0.17419 0.26471 0.24527 0.0
H649 H 0.13747 0.28151 0.26935 0.0
H650 H 0.20517 0.35717 0.33587 0.0
H651 H 0.24131 0.34022 0.31222 0.0
H652 H 0.45782 0.43428 0.31751 0.0
H653 H 0.49632 0.42268 0.29344 0.0
H654 H 0.43622 0.38989 0.20108 0.0
H655 H 0.39742 0.40057 0.2252 0.0
Pr656 Pr 0.56497 0.59252 0.99995 0.0
Pr657 Pr 0.57909 0.62615 0.06018 0.0
C658 C 0.53972 0.56558 0.93952 0.0
C659 C 0.53473 0.58112 0.91034 0.0
C660 C 0.55215 0.58044 0.88801 0.0
C661 C 0.54552 0.59191 0.85863 0.0
C662 C 0.52102 0.60327 0.85118 0.0
C663 C 0.50583 0.60789 0.87495 0.0
C664 C 0.51258 0.59673 0.90446 0.0
C665 C 0.62263 0.63184 0.01335 0.0
C666 C 0.55549 0.66881 1.00681 0.0
C667 C 0.60974 0.65357 0.11867 0.0
C668 C 0.61621 0.63869 0.14777 0.0
C669 C 0.59392 0.6213 0.16146 0.0
C670 C 0.60069 0.61222 0.19197 0.0
C671 C 0.6296 0.62089 0.20865 0.0
C672 C 0.65181 0.63252 0.19256 0.0
C673 C 0.6451 0.64197 0.16221 0.0
C674 C 0.52133 0.5873 0.04853 0.0
C675 C 0.58446 0.54817 0.05415 0.0
O676 O 0.52494 0.57067 0.96093 0.0
O677 O 0.56667 0.56738 0.95204 0.0
O678 O 0.60129 0.64092 0.01875 0.0
O679 O 0.61485 0.60055 1.00199 0.0
O680 O 0.56869 0.67116 0.03716 0.0
O681 O 0.54955 0.64047 0.98765 0.0
O682 O 0.6218 0.64555 0.09564 0.0
O683 O 0.58289 0.65399 0.10875 0.0
O684 O 0.54206 0.57811 0.04124 0.0
O685 O 0.53009 0.61792 0.06232 0.0
O686 O 0.57013 0.54619 0.02432 0.0
O687 O 0.59333 0.57727 0.07263 0.0
H688 H 0.56977 0.56924 0.89239 0.0
H689 H 0.55728 0.58793 0.84031 0.0
H690 H 0.48671 0.61646 0.86932 0.0
H691 H 0.49928 0.59848 0.92167 0.0
H692 H 0.57136 0.61703 0.1499 0.0
H693 H 0.5834 0.60296 0.20419 0.0
H694 H 0.67429 0.63894 0.20529 0.0
H695 H 0.66247 0.65408 0.15118 0.0
Pr696 Pr 0.81336 0.3281 0.28696 0.0
Pr697 Pr 0.84066 0.40418 0.27972 0.0
C698 C 0.79902 0.26188 0.27987 0.0
C699 C 0.81355 0.23832 0.26934 0.0
C700 C 0.80842 0.20714 0.27977 0.0
C701 C 0.82337 0.18521 0.27104 0.0
C702 C 0.84358 0.19428 0.25173 0.0
C703 C 0.84921 0.22597 0.24207 0.0
C704 C 0.83441 0.24793 0.25102 0.0
C705 C 0.81365 0.36773 0.3438 0.0
C706 C 0.88523 0.36183 0.30838 0.0
C707 C 0.85369 0.47042 0.28837 0.0
C708 C 0.83675 0.49149 0.29835 0.0
C709 C 0.84331 0.52497 0.294 0.0
C710 C 0.82694 0.54471 0.3041 0.0
C711 C 0.80407 0.53101 0.31874 0.0
C712 C 0.79669 0.49709 0.32146 0.0
C713 C 0.81287 0.47744 0.31123 0.0
C714 C 0.84036 0.36533 0.22267 0.0
C715 C 0.76849 0.3693 0.25667 0.0
O716 O 0.78878 0.27827 0.2577 0.0
O717 O 0.81268 0.2804 0.30738 0.0
O718 O 0.82242 0.37781 0.31928 0.0
O719 O 0.80236 0.33592 0.33814 0.0
O720 O 0.88205 0.39184 0.30664 0.0
O721 O 0.86338 0.33467 0.29837 0.0
O722 O 0.86355 0.45374 0.31045 0.0
O723 O 0.84212 0.45254 0.26012 0.0
O724 O 0.83161 0.35431 0.24696 0.0
O725 O 0.85164 0.39716 0.22902 0.0
O726 O 0.77181 0.33982 0.26102 0.0
O727 O 0.79025 0.39683 0.26422 0.0
H728 H 0.79289 0.19979 0.29463 0.0
H729 H 0.81862 0.16088 0.27873 0.0
H730 H 0.86508 0.23375 0.22769 0.0
H731 H 0.83929 0.27246 0.24379 0.0
H732 H 0.86131 0.5359 0.28339 0.0
H733 H 0.8329 0.57087 0.30179 0.0
H734 H 0.77887 0.48602 0.33228 0.0
H735 H 0.8071 0.45136 0.31397 0.0
Pr736 Pr 0.08157 0.60727 0.56802 0.0
Pr737 Pr 0.06047 0.61926 0.49468 0.0
C738 C 0.0894 0.61202 0.6325 0.0
C739 C 0.07485 0.62649 0.65435 0.0
C740 C 0.07742 0.61978 0.6863 0.0
C741 C 0.06389 0.63439 0.70704 0.0
C742 C 0.04769 0.65599 0.69606 0.0
C743 C 0.04404 0.66115 0.66345 0.0
C744 C 0.05741 0.64644 0.64279 0.0
C745 C 0.07895 0.55016 0.52611 0.0
C746 C 1.01073 0.58932 0.53454 0.0
C747 C 0.05062 0.61476 0.43032 0.0
C748 C 0.06324 0.59932 0.40732 0.0
C749 C 0.05777 0.60446 0.37497 0.0
C750 C 0.06823 0.58766 0.3527 0.0
C751 C 0.08418 0.56556 0.36268 0.0
C752 C 0.09135 0.56235 0.39555 0.0
C753 C 0.08086 0.57914 0.4178 0.0
C754 C 0.06328 0.67605 0.53625 0.0
C755 C 0.13164 0.6391 0.52934 0.0
O756 O 0.10591 0.63304 0.61809 0.0
O757 O 0.07284 0.58558 0.61305 0.0
O758 O 0.07333 0.57637 0.51781 0.0
O759 O 0.08722 0.55381 0.55732 0.0
O760 O 0.01607 0.59129 0.50539 0.0
O761 O 0.03157 0.59877 0.56101 0.0
O762 O 0.03428 0.59422 0.44525 0.0
O763 O 0.06864 0.6406 0.44943 0.0
O764 O 0.06897 0.64983 0.54429 0.0
O765 O 0.05388 0.67236 0.5052 0.0
O766 O 0.12588 0.63572 0.55816 0.0
O767 O 0.11114 0.63027 0.50238 0.0
H768 H 0.0902 0.6037 0.69531 0.0
H769 H 0.06666 0.6294 0.73186 0.0
H770 H 0.03197 0.6778 0.65418 0.0
H771 H 0.05464 0.65121 0.61789 0.0
H772 H 0.04484 0.62071 0.36685 0.0
H773 H 0.06319 0.59119 0.32752 0.0
H774 H 0.10385 0.54572 0.40376 0.0
H775 H 0.08573 0.57562 0.44301 0.0
Pr776 Pr 0.79066 0.86029 0.27944 0.0
Pr777 Pr 0.85515 0.8587 0.28839 0.0
C778 C 0.73673 0.86265 0.28059 0.0
C779 C 0.71581 0.8635 0.30088 0.0
C780 C 0.70465 0.89085 0.30189 0.0
C781 C 0.68379 0.89212 0.31956 0.0
C782 C 0.67353 0.86593 0.3365 0.0
C783 C 0.68514 0.83878 0.336 0.0
C784 C 0.7061 0.83754 0.31827 0.0
C785 C 0.82467 0.9102 0.25411 0.0
C786 C 0.83506 0.88493 0.35257 0.0
C787 C 0.90997 0.85984 0.28709 0.0
C788 C 0.93009 0.85887 0.26581 0.0
C789 C 0.95043 0.8411 0.27322 0.0
C790 C 0.97162 0.8423 0.25532 0.0
C791 C 0.97284 0.86155 0.22993 0.0
C792 C 0.95135 0.87763 0.2213 0.0
C793 C 0.9301 0.87622 0.23906 0.0
C794 C 0.8212 0.80899 0.31419 0.0
C795 C 0.80973 0.83264 0.21514 0.0
O796 O 0.74272 0.83476 0.27349 0.0
O797 O 0.75899 0.88892 0.28536 0.0
O798 O 0.83341 0.90013 0.28042 0.0
O799 O 0.79766 0.89606 0.24152 0.0
O800 O 0.85753 0.88829 0.33889 0.0
O801 O 0.80824 0.8715 0.33588 0.0
O802 O 0.90181 0.88683 0.29108 0.0
O803 O 0.88939 0.83254 0.28556 0.0
O804 O 0.81259 0.81899 0.28775 0.0
O805 O 0.84843 0.82273 0.32639 0.0
O806 O 0.78743 0.83164 0.22864 0.0
O807 O 0.83671 0.84353 0.23216 0.0
H808 H 0.71174 0.91109 0.28849 0.0
H809 H 0.67507 0.91318 0.31915 0.0
H810 H 0.67791 0.81842 0.34918 0.0
H811 H 0.71437 0.8162 0.31784 0.0
H812 H 0.95054 0.82723 0.29358 0.0
H813 H 0.98795 0.8297 0.26245 0.0
H814 H 0.95161 0.89222 0.20147 0.0
H815 H 0.91437 0.88955 0.23251 0.0
Pr816 Pr 0.83068 0.39363 0.79746 0.0
Pr817 Pr 0.8162 0.32936 0.76813 0.0
C818 C 0.85452 0.45725 0.82121 0.0
C819 C 0.86033 0.48739 0.80611 0.0
C820 C 0.85037 0.51374 0.81623 0.0
C821 C 0.85988 0.54435 0.8059 0.0
C822 C 0.88035 0.549 0.78645 0.0
C823 C 0.88697 0.52136 0.77285 0.0
C824 C 0.8769 0.49066 0.78254 0.0
C825 C 0.77303 0.37503 0.76238 0.0
C826 C 0.83909 0.3825 0.72137 0.0
C827 C 0.78953 0.26598 0.74568 0.0
C828 C 0.7799 0.23693 0.76143 0.0
C829 C 0.79096 0.21 0.75685 0.0
C830 C 0.77822 0.18002 0.76645 0.0
C831 C 0.75398 0.17676 0.78005 0.0
C832 C 0.7457 0.20492 0.78889 0.0
C833 C 0.75859 0.23499 0.77953 0.0
C834 C 0.8738 0.34706 0.80302 0.0
C835 C 0.81029 0.34011 0.84459 0.0
O836 O 0.86983 0.43702 0.81608 0.0
O837 O 0.82732 0.44242 0.81975 0.0
O838 O 0.79418 0.36927 0.75266 0.0
O839 O 0.78097 0.3889 0.7923 0.0
O840 O 0.82496 0.35145 0.72137 0.0
O841 O 0.84664 0.40344 0.7485 0.0
O842 O 0.77562 0.28836 0.7472 0.0
O843 O 0.81748 0.27828 0.74976 0.0
O844 O 0.85293 0.35371 0.81269 0.0
O845 O 0.86549 0.33244 0.77336 0.0
O846 O 0.82682 0.37007 0.8447 0.0
O847 O 0.79921 0.32049 0.81673 0.0
H848 H 0.83671 0.51122 0.83358 0.0
H849 H 0.85364 0.56512 0.81582 0.0
H850 H 0.90243 0.52392 0.75758 0.0
H851 H 0.88392 0.4702 0.77334 0.0
H852 H 0.80796 0.21142 0.74372 0.0
H853 H 0.785 0.15855 0.7595 0.0
H854 H 0.72716 0.2028 0.79967 0.0
H855 H 0.75036 0.25587 0.7844 0.0
Pr856 Pr 0.79353 0.82836 0.77017 0.0
Pr857 Pr 0.8473 0.88411 0.79231 0.0
C858 C 0.73792 0.79265 0.76411 0.0
C859 C 0.71497 0.80029 0.77894 0.0
C860 C 0.68557 0.7871 0.76368 0.0
C861 C 0.66411 0.79602 0.77697 0.0
C862 C 0.67175 0.81889 0.80536 0.0
C863 C 0.70115 0.83206 0.82051 0.0
C864 C 0.72247 0.82262 0.80766 0.0
C865 C 0.81661 0.85412 0.71837 0.0
C866 C 0.789 0.90309 0.78743 0.0
C867 C 0.90174 0.9225 0.79764 0.0
C868 C 0.92554 0.9184 0.78238 0.0
C869 C 0.95225 0.91893 0.80187 0.0
C870 C 0.97417 0.91247 0.78797 0.0
C871 C 0.96995 0.90551 0.75419 0.0
C872 C 0.9434 0.90561 0.73463 0.0
C873 C 0.92137 0.91176 0.74855 0.0
C874 C 0.82463 0.85945 0.84447 0.0
C875 C 0.85198 0.80846 0.77789 0.0
O876 O 0.75962 0.787 0.78372 0.0
O877 O 0.74638 0.81165 0.74305 0.0
O878 O 0.81453 0.87097 0.74327 0.0
O879 O 0.80622 0.82253 0.71941 0.0
O880 O 0.81503 0.91567 0.78263 0.0
O881 O 0.78086 0.87251 0.79342 0.0
O882 O 0.8792 0.92748 0.77895 0.0
O883 O 0.89469 0.90213 0.81819 0.0
O884 O 0.82622 0.84193 0.81966 0.0
O885 O 0.83542 0.89086 0.84309 0.0
O886 O 0.82527 0.79643 0.78112 0.0
O887 O 0.86082 0.83898 0.77144 0.0
H888 H 0.67923 0.7701 0.74137 0.0
H889 H 0.6416 0.78558 0.76476 0.0
H890 H 0.70763 0.84947 0.84256 0.0
H891 H 0.74489 0.83302 0.82014 0.0
H892 H 0.95599 0.92375 0.82796 0.0
H893 H 0.99442 0.91274 0.80371 0.0
H894 H 0.9393 0.89983 0.70859 0.0
H895 H 0.90088 0.91062 0.7328 0.0
Pr896 Pr 0.54191 0.59073 0.50732 0.0
Pr897 Pr 0.60449 0.62836 0.55918 0.0
C898 C 0.48494 0.58176 0.4836 0.0
C899 C 0.46521 0.60316 0.48566 0.0
C900 C 0.44699 0.60766 0.45762 0.0
C901 C 0.42761 0.6267 0.45948 0.0
C902 C 0.42559 0.64162 0.48954 0.0
C903 C 0.44448 0.63771 0.51754 0.0
C904 C 0.46401 0.61893 0.51561 0.0
C905 C 0.59139 0.60491 0.48386 0.0
C906 C 0.56768 0.67617 0.52565 0.0
C907 C 0.66069 0.63796 0.58744 0.0
C908 C 0.68129 0.61807 0.5847 0.0
C909 C 0.70412 0.61975 0.61089 0.0
C910 C 0.72406 0.6017 0.60826 0.0
C911 C 0.72185 0.58156 0.57922 0.0
C912 C 0.69839 0.57933 0.55325 0.0
C913 C 0.67838 0.59727 0.55598 0.0
C914 C 0.55464 0.61211 0.58219 0.0
C915 C 0.58041 0.54375 0.53849 0.0
O916 O 0.49516 0.5715 0.5104 0.0
O917 O 0.50417 0.58982 0.46593 0.0
O918 O 0.58541 0.6221 0.50542 0.0
O919 O 0.56942 0.57924 0.46993 0.0
O920 O 0.59361 0.67629 0.54223 0.0
O921 O 0.54625 0.64851 0.51476 0.0
O922 O 0.65221 0.65121 0.56189 0.0
O923 O 0.63966 0.62577 0.60171 0.0
O924 O 0.56146 0.59612 0.56064 0.0
O925 O 0.57577 0.63842 0.59616 0.0
O926 O 0.55344 0.54359 0.52561 0.0
O927 O 0.6022 0.57152 0.54597 0.0
H928 H 0.44756 0.59619 0.43417 0.0
H929 H 0.41417 0.62962 0.43717 0.0
H930 H 0.44372 0.64835 0.54122 0.0
H931 H 0.47791 0.6164 0.53775 0.0
H932 H 0.70667 0.63524 0.63341 0.0
H933 H 0.74123 0.60359 0.62915 0.0
H934 H 0.69583 0.56442 0.5304 0.0
H935 H 0.66081 0.59519 0.53543 0.0
Pr936 Pr 0.10392 0.61266 0.02932 0.0
Pr937 Pr 0.04106 0.60344 0.03623 0.0
C938 C 0.1573 0.60931 0.02617 0.0
C939 C 0.17579 0.58708 0.02429 0.0
C940 C 0.19357 0.59127 1.00198 0.0
C941 C 0.21313 0.57262 1.00113 0.0
C942 C 0.21542 0.54935 0.02268 0.0
C943 C 0.19693 0.54448 0.04444 0.0
C944 C 0.17723 0.56313 0.0452 0.0
C945 C 0.07461 0.64835 0.99009 0.0
C946 C 0.05386 0.54043 0.99863 0.0
C947 C 0.98765 0.60641 0.04005 0.0
C948 C 0.96808 0.62758 0.0403 0.0
C949 C 0.94559 0.61888 0.05665 0.0
C950 C 0.92429 0.63553 0.05391 0.0
C951 C 0.92531 0.6614 0.03502 0.0
C952 C 0.94866 0.67137 0.02003 0.0
C953 C 0.96994 0.65451 0.0226 0.0
C954 C 0.07074 0.56733 0.07476 0.0
C955 C 0.09085 0.67596 0.06585 0.0
O956 O 0.14965 0.61464 0.05353 0.0
O957 O 0.1371 0.60772 1.00051 0.0
O958 O 0.06317 0.61895 0.99472 0.0
O959 O 0.10204 0.65822 1.00301 0.0
O960 O 0.03327 0.55467 1.00127 0.0
O961 O 0.0815 0.55659 0.00911 0.0
O962 O 0.99477 0.59954 0.0127 0.0
O963 O 1.00862 0.61042 0.06557 0.0
O964 O 0.08179 0.59686 0.07036 0.0
O965 O 0.04318 0.55767 0.0625 0.0
O966 O 0.1115 0.66167 0.0638 0.0
O967 O 0.06325 0.65975 0.05521 0.0
H968 H 0.19285 0.60964 0.98567 0.0
H969 H 0.22718 0.57731 0.98429 0.0
H970 H 0.19781 0.52639 0.06101 0.0
H971 H 0.16354 0.55922 0.06246 0.0
H972 H 0.94383 0.59826 0.07051 0.0
H973 H 0.90643 0.62746 0.0656 0.0
H974 H 0.94972 0.69118 1.0052 0.0
H975 H 0.98719 0.66171 0.00988 0.0
C976 C 0.06546 0.25483 0.9938 0.0
C977 C 0.03782 0.25824 0.99475 0.0
H978 H 0.09602 0.22676 1.00565 0.0
C979 C 0.02022 0.23553 0.01017 0.0
H980 H 0.07967 0.27186 0.98224 0.0
C981 C 0.02943 0.20957 0.02318 0.0
C982 C 0.05689 0.20593 0.02202 0.0
H983 H 0.99882 0.23719 0.01139 0.0
H984 H 0.01476 0.1919 0.03372 0.0
C985 C 0.075 0.22922 0.00759 0.0
C986 C 0.20199 0.89734 0.22535 0.0
C987 C 0.1999 0.88779 0.19232 0.0
H988 H 0.22658 0.90168 0.27413 0.0
C989 C 0.22031 0.8729 0.18362 0.0
H990 H 0.18641 0.90856 0.23283 0.0
C991 C 0.24254 0.86823 0.20695 0.0
C992 C 0.24547 0.87878 0.23984 0.0
H993 H 0.21898 0.86439 0.15852 0.0
H994 H 0.25784 0.85682 0.19903 0.0
C995 C 0.22483 0.8932 0.24894 0.0
C996 C 0.51482 0.94861 0.48926 0.0
C997 C 0.53493 0.93436 0.47874 0.0
H998 H 0.50393 0.99312 0.50193 0.0
C999 C 0.55993 0.95533 0.47215 0.0
H1000 H 0.4951 0.93313 0.49404 0.0
C1001 C 0.56503 0.98981 0.4768 0.0
C1002 C 0.54489 1.00401 0.48734 0.0
H1003 H 0.57571 0.94513 0.46378 0.0
H1004 H 0.58489 1.00538 0.47242 0.0
C1005 C 0.51961 0.98299 0.49322 0.0
C1006 C 0.55316 0.37076 0.73305 0.0
C1007 C 0.55238 0.36693 0.6998 0.0
H1008 H 0.52902 0.36996 0.76983 0.0
C1009 C 0.52531 0.35722 0.67777 0.0
H1010 H 0.57357 0.37816 0.75068 0.0
C1011 C 0.49966 0.35243 0.6888 0.0
C1012 C 0.50056 0.35699 0.72207 0.0
H1013 H 0.5239 0.35376 0.65196 0.0
H1014 H 0.47916 0.34536 0.67133 0.0
C1015 C 0.52757 0.36581 0.74404 0.0
C1016 C 0.10146 0.9845 0.60875 0.0
C1017 C 0.09474 0.95559 0.5862 0.0
H1018 H 0.10433 0.03661 0.6165 0.0
C1019 C 0.08727 0.95875 0.55317 0.0
H1020 H 0.10727 0.98324 0.6344 0.0
C1021 C 0.08559 0.98917 0.54299 0.0
C1022 C 0.09137 0.01787 0.56535 0.0
H1023 H 0.08215 0.93743 0.53491 0.0
H1024 H 0.07922 0.98999 0.51731 0.0
C1025 C 0.09983 0.01522 0.59846 0.0
C1026 C 0.44728 0.82604 0.84071 0.0
C1027 C 0.46267 0.84997 0.86745 0.0
H1028 H 0.40999 0.81052 0.80104 0.0
C1029 C 0.45384 0.87859 0.87275 0.0
H1030 H 0.45372 0.80375 0.83623 0.0
C1031 C 0.42956 0.88293 0.85239 0.0
C1032 C 0.413 0.85825 0.82671 0.0
H1033 H 0.46545 0.89741 0.89322 0.0
H1034 H 0.4229 0.90487 0.85785 0.0
C1035 C 0.42233 0.82994 0.82071 0.0
C1036 C 0.54784 0.2427 0.08362 0.0
C1037 C 0.57377 0.26845 0.08811 0.0
H1038 H 0.52366 0.1928 0.0623 0.0
C1039 C 0.59555 0.26281 0.07318 0.0
H1040 H 0.53092 0.24594 0.09542 0.0
C1041 C 0.59157 0.23198 0.05473 0.0
C1042 C 0.56579 0.20616 0.05091 0.0
H1043 H 0.61618 0.28154 0.07716 0.0
H1044 H 0.60889 0.22803 0.04403 0.0
C1045 C 0.54381 0.21209 0.06508 0.0
C1046 C 0.12945 0.37608 0.34155 0.0
C1047 C 0.10859 0.35313 0.35302 0.0
H1048 H 0.16468 0.38391 0.31742 0.0
C1049 C 0.10642 0.31918 0.34663 0.0
H1050 H 0.13165 0.40236 0.3459 0.0
C1051 C 0.12501 0.30854 0.32973 0.0
C1052 C 0.14663 0.33164 0.31943 0.0
H1053 H 0.09037 0.30079 0.35478 0.0
H1054 H 0.1231 0.28231 0.32567 0.0
C1055 C 0.14842 0.36551 0.32528 0.0
C1056 C 0.98573 0.10681 0.11268 0.0
C1057 C 0.96996 0.07368 0.09998 0.0
H1058 H 0.026 0.14509 0.1185 0.0
C1059 C 0.98162 0.05499 0.08065 0.0
H1060 H 0.97742 0.12161 0.12832 0.0
C1061 C 1.00963 0.06742 0.0773 0.0
C1062 C 0.02609 0.0998 0.09098 0.0
H1063 H 0.97018 0.02939 0.07087 0.0
H1064 H 0.01855 0.05102 0.06429 0.0
C1065 C 0.01378 0.11993 0.10803 0.0
C1066 C 0.30423 0.78826 0.41588 0.0
C1067 C 0.29903 0.80948 0.43987 0.0
H1068 H 0.30965 0.78065 0.36704 0.0
C1069 C 0.29513 0.84002 0.43198 0.0
H1070 H 0.30705 0.76443 0.42093 0.0
C1071 C 0.2969 0.84938 0.40139 0.0
C1072 C 0.3019 0.82821 0.37732 0.0
H1073 H 0.29096 0.857 0.44965 0.0
H1074 H 0.29431 0.87337 0.39656 0.0
C1075 C 0.30534 0.79737 0.38485 0.0
C1076 C 0.58868 1.00015 0.61582 0.0
C1077 C 0.61401 0.01742 0.6384 0.0
H1078 H 0.55496 1.00372 0.57712 0.0
C1079 C 0.62722 0.05088 0.63653 0.0
H1080 H 0.57797 0.97454 0.61723 0.0
C1081 C 0.61418 0.06762 0.61389 0.0
C1082 C 0.58746 0.05121 0.59321 0.0
H1083 H 0.64671 0.0647 0.65408 0.0
H1084 H 0.62401 0.09382 0.61405 0.0
C1085 C 0.5754 0.01703 0.59333 0.0
C1086 C 0.37099 0.41305 0.94024 0.0
C1087 C 0.34776 0.40465 0.95574 0.0
H1088 H 0.38486 0.41471 0.89542 0.0
C1089 C 0.3197 0.39127 0.93658 0.0
H1090 H 0.39285 0.4239 0.95443 0.0
C1091 C 0.3151 0.3856 0.90267 0.0
C1092 C 0.33841 0.39384 0.88702 0.0
H1093 H 0.30141 0.3845 0.94784 0.0
H1094 H 0.29323 0.37431 0.88875 0.0
C1095 C 0.3664 0.40794 0.90638 0.0
C1096 C 0.01388 0.07032 0.26395 0.0
C1097 C 0.99065 0.08177 0.24998 0.0
H1098 H 0.04252 0.068 0.30773 0.0
C1099 C 0.98267 0.10581 0.26811 0.0
H1100 H 0.02063 0.05207 0.25041 0.0
C1101 C 0.99519 0.11489 0.30086 0.0
C1102 C 0.016 0.10034 0.31554 0.0
H1103 H 0.96505 0.11547 0.2578 0.0
H1104 H 0.98681 0.13083 0.31523 0.0
C1105 C 0.02661 0.07972 0.29663 0.0
C1106 C 0.31482 0.79765 0.64759 0.0
C1107 C 0.3247 0.81623 0.62382 0.0
H1108 H 0.31179 0.79788 0.69755 0.0
C1109 C 0.34165 0.84915 0.63353 0.0
H1110 H 0.30101 0.77245 0.64064 0.0
C1111 C 0.34808 0.86348 0.66594 0.0
C1112 C 0.3372 0.84561 0.68963 0.0
H1113 H 0.34905 0.86428 0.61576 0.0
H1114 H 0.36062 0.88926 0.67214 0.0
C1115 C 0.3209 0.81223 0.68017 0.0
C1116 C 0.60312 1.00462 0.80474 0.0
C1117 C 0.61219 0.02302 0.78075 0.0
H1118 H 0.5874 1.00509 0.84832 0.0
C1119 C 0.61508 0.05722 0.78407 0.0
H1120 H 0.6013 0.97838 0.80304 0.0
C1121 C 0.60746 0.07244 0.80981 0.0
C1122 C 0.59689 0.0538 0.83288 0.0
H1123 H 0.62335 0.07246 0.76686 0.0
H1124 H 0.60955 0.09876 0.81151 0.0
C1125 C 0.59544 0.01994 0.83067 0.0
C1126 C 0.33599 0.412 0.15754 0.0
C1127 C 0.34373 0.39258 0.13415 0.0
H1128 H 0.32208 0.41471 0.20247 0.0
C1129 C 0.34245 0.35955 0.13892 0.0
H1130 H 0.33684 0.43754 0.15497 0.0
C1131 C 0.33338 0.34625 0.16578 0.0
C1132 C 0.32604 0.36572 0.18938 0.0
H1133 H 0.34817 0.34371 0.12157 0.0
H1134 H 0.33236 0.32064 0.16823 0.0
C1135 C 0.32768 0.39892 0.18496 0.0
C1136 C 0.2961 0.06764 0.08107 0.0
C1137 C 0.28879 0.03514 0.06492 0.0
H1138 H 0.28151 0.10835 0.09688 0.0
C1139 C 0.25929 0.01835 0.05289 0.0
H1140 H 0.31855 0.08149 0.09056 0.0
C1141 C 0.23774 0.03371 0.05705 0.0
C1142 C 0.24512 0.06638 0.07316 0.0
H1143 H 0.2528 0.99315 0.04067 0.0
H1144 H 0.21528 0.01976 0.04796 0.0
C1145 C 0.2747 0.08303 0.08497 0.0
C1146 C 0.67895 0.7135 0.01642 0.0
C1147 C 0.7016 0.70394 1.00628 0.0
H1148 H 0.63716 0.69863 0.02722 0.0
C1149 C 0.6986 0.66983 0.99954 0.0
H1150 H 0.68058 0.73944 0.02253 0.0
C1151 C 0.67312 0.64604 1.00202 0.0
C1152 C 0.65046 0.65597 0.01186 0.0
H1153 H 0.71569 0.66157 0.99195 0.0
H1154 H 0.67108 0.61998 0.99607 0.0
C1155 C 0.65397 0.68999 0.01936 0.0
C1156 C 0.77807 0.57319 0.38333 0.0
C1157 C 0.7656 0.59495 0.36648 0.0
H1158 H 0.79969 0.53552 0.38096 0.0
C1159 C 0.76517 0.59508 0.33329 0.0
H1160 H 0.77856 0.57246 0.40881 0.0
C1161 C 0.77756 0.57419 0.31746 0.0
C1162 C 0.79001 0.5525 0.33447 0.0
H1163 H 0.75566 0.61166 0.31969 0.0
H1164 H 0.77736 0.57487 0.29201 0.0
C1165 C 0.78996 0.55195 0.36738 0.0
C1166 C 0.93095 0.54127 0.51472 0.0
C1167 C 0.92703 0.53323 0.54525 0.0
H1168 H 0.96058 0.56532 0.48716 0.0
C1169 C 0.94951 0.54705 0.57246 0.0
H1170 H 0.91406 0.5302 0.49329 0.0
C1171 C 0.97601 0.56732 0.5691 0.0
C1172 C 0.98088 0.57343 0.53828 0.0
H1173 H 0.9471 0.54072 0.59615 0.0
H1174 H 0.99321 0.5765 0.59059 0.0
C1175 C 0.95768 0.56112 0.51122 0.0
C1176 C 0.42071 0.29025 0.30079 0.0
C1177 C 0.41789 0.27149 0.32639 0.0
H1178 H 0.40058 0.31545 0.26576 0.0
C1179 C 0.39104 0.26232 0.33522 0.0
H1180 H 0.44089 0.29721 0.29294 0.0
C1181 C 0.36771 0.27245 0.31929 0.0
C1182 C 0.37086 0.29194 0.29427 0.0
H1183 H 0.38813 0.24765 0.35472 0.0
H1184 H 0.34767 0.26625 0.32749 0.0
C1185 C 0.39746 0.30031 0.2849 0.0
C1186 C 0.37068 0.20936 0.54209 0.0
C1187 C 0.35318 0.20246 0.51051 0.0
H1188 H 0.40763 0.20229 0.57411 0.0
C1189 C 0.36005 0.1827 0.48682 0.0
H1190 H 0.36605 0.22458 0.56092 0.0
C1191 C 0.38398 0.17047 0.49432 0.0
C1192 C 0.40142 0.17739 0.52573 0.0
H1193 H 0.34704 0.17674 0.46235 0.0
H1194 H 0.38866 0.15514 0.4756 0.0
C1195 C 0.39448 0.19671 0.54968 0.0
C1196 C 0.75904 0.78002 0.3538 0.0
C1197 C 0.76925 0.75935 0.37458 0.0
H1198 H 0.76713 0.8106 0.31716 0.0
C1199 C 0.79669 0.75512 0.3753 0.0
H1200 H 0.73765 0.78309 0.35227 0.0
C1201 C 0.81354 0.77116 0.35524 0.0
C1202 C 0.80264 0.79053 0.33344 0.0
H1203 H 0.80474 0.73882 0.39073 0.0
H1204 H 0.83483 0.76792 0.35628 0.0
C1205 C 0.77545 0.79503 0.33304 0.0
C1206 C 0.93469 0.62949 0.82293 0.0
C1207 C 0.94876 0.63734 0.79778 0.0
H1208 H 0.90201 0.59563 0.83898 0.0
C1209 C 0.93815 0.61835 0.76727 0.0
H1210 H 0.94268 0.64406 0.84671 0.0
C1211 C 0.91383 0.5909 0.76231 0.0
C1212 C 0.90051 0.58206 0.78808 0.0
H1213 H 0.94855 0.62477 0.74749 0.0
H1214 H 0.90611 0.57593 0.73878 0.0
C1215 C 0.91094 0.6021 0.81823 0.0
C1216 C 0.12366 0.9831 0.06103 0.0
C1217 C 0.10489 0.95903 0.074 0.0
H1218 H 0.1306 0.02823 0.04 0.0
C1219 C 0.07687 0.96198 0.07345 0.0
H1220 H 0.1454 0.98187 0.06107 0.0
C1221 C 0.06806 0.98841 0.06042 0.0
C1222 C 0.08727 0.01293 0.04833 0.0
H1223 H 0.06178 0.9439 0.08311 0.0
H1224 H 0.04663 0.99037 0.06103 0.0
C1225 C 0.11513 0.00975 0.04879 0.0
C1226 C 0.92318 0.34422 0.88229 0.0
C1227 C 0.94371 0.33 0.87274 0.0
H1228 H 0.88623 0.3617 0.86818 0.0
C1229 C 0.94209 0.32288 0.83943 0.0
H1230 H 0.92404 0.35085 0.90765 0.0
C1231 C 0.91974 0.32885 0.81638 0.0
C1232 C 0.89913 0.34285 0.82629 0.0
H1233 H 0.95771 0.31224 0.83125 0.0
H1234 H 0.91842 0.32225 0.79091 0.0
C1235 C 0.90152 0.35081 0.85954 0.0
C1236 C 0.62701 0.26805 0.57126 0.0
C1237 C 0.60714 0.28268 0.5818 0.0
H1238 H 0.63711 0.22316 0.55795 0.0
C1239 C 0.5815 0.26193 0.58728 0.0
H1240 H 0.64717 0.28329 0.56725 0.0
C1241 C 0.57566 0.22736 0.58173 0.0
C1242 C 0.59567 0.21278 0.57144 0.0
H1243 H 0.56587 0.2724 0.59566 0.0
H1244 H 0.5554 0.21203 0.58542 0.0
C1245 C 0.62149 0.23355 0.56648 0.0
C1246 C 0.60409 0.83851 0.36582 0.0
C1247 C 0.60417 0.86772 0.38418 0.0
H1248 H 0.62593 0.81508 0.33643 0.0
C1249 C 0.62735 0.89637 0.38687 0.0
H1250 H 0.58658 0.816 0.36329 0.0
C1251 C 0.64999 0.89575 0.37165 0.0
C1252 C 0.64998 0.86645 0.35348 0.0
H1253 H 0.62814 0.91928 0.40091 0.0
H1254 H 0.66766 0.91814 0.37439 0.0
C1255 C 0.62678 0.83787 0.35071 0.0
C1256 C 0.03288 0.23102 0.45359 0.0
C1257 C 0.04442 0.26161 0.47395 0.0
H1258 H 0.02757 0.17834 0.44821 0.0
C1259 C 0.06024 0.26188 0.50526 0.0
H1260 H 0.02015 0.22989 0.42948 0.0
C1261 C 0.06462 0.23253 0.51596 0.0
C1262 C 0.05289 0.20168 0.49591 0.0
H1263 H 0.06923 0.28493 0.5216 0.0
H1264 H 0.07717 0.23409 0.54024 0.0
C1265 C 0.03697 0.20142 0.46444 0.0
C1266 C 0.68719 0.3481 0.23857 0.0
C1267 C 0.68091 0.36744 0.21411 0.0
H1268 H 0.71945 0.33363 0.2708 0.0
C1269 C 0.70416 0.38988 0.20555 0.0
H1270 H 0.67005 0.3308 0.24627 0.0
C1271 C 0.73294 0.39183 0.22036 0.0
C1272 C 0.73879 0.37101 0.2435 0.0
H1273 H 0.70016 0.4051 0.18683 0.0
H1274 H 0.75052 0.40848 0.21272 0.0
C1275 C 0.71561 0.34964 0.25276 0.0
C1276 C 0.57769 0.95876 0.01107 0.0
C1277 C 0.56924 0.948 0.97763 0.0
H1278 H 0.58541 0.99795 0.04969 0.0
C1279 C 0.56494 0.97168 0.95692 0.0
H1280 H 0.58093 0.9413 0.02778 0.0
C1281 C 0.56721 1.00461 0.96966 0.0
C1282 C 0.57385 0.01453 1.00335 0.0
H1283 H 0.55765 0.96412 0.93106 0.0
H1284 H 0.56173 0.02146 0.95328 0.0
C1285 C 0.58004 0.99134 0.02366 0.0
C1286 C 0.02693 0.8642 0.73917 0.0
C1287 C 0.03446 0.87692 0.71143 0.0
H1288 H 1.0009 0.86311 0.77411 0.0
C1289 C 0.02097 0.89986 0.69809 0.0
H1290 H 0.03686 0.84653 0.75024 0.0
C1291 C 1.00005 0.90931 0.71191 0.0
C1292 C 0.99256 0.8964 0.7396 0.0
H1293 H 0.02627 0.91012 0.67679 0.0
H1294 H 0.98985 0.92687 0.70107 0.0
C1295 C 1.0064 0.87388 0.75309 0.0
C1296 C 0.15723 0.11319 0.95242 0.0
C1297 C 0.17299 0.1465 0.9642 0.0
H1298 H 0.11767 0.07462 0.94926 0.0
C1299 C 0.1625 0.1651 0.98501 0.0
H1300 H 0.16466 0.09844 0.93578 0.0
C1301 C 0.13534 0.15232 0.9908 0.0
C1302 C 0.11867 0.11985 0.97773 0.0
H1303 H 0.174 0.19082 0.9942 0.0
H1304 H 0.12709 0.16859 1.00487 0.0
C1305 C 0.13007 0.09984 0.95926 0.0
C1306 C 0.84552 0.38061 0.63334 0.0
C1307 C 0.8474 0.41341 0.62762 0.0
H1308 H 0.84121 0.34525 0.66689 0.0
C1309 C 0.84767 0.43651 0.65357 0.0
H1310 H 0.84542 0.36219 0.61405 0.0
C1311 C 0.84621 0.42699 0.68441 0.0
C1312 C 0.8437 0.39394 0.68984 0.0
H1313 H 0.84955 0.46209 0.65019 0.0
H1314 H 0.84637 0.44535 0.70377 0.0
C1315 C 0.84326 0.37093 0.66377 0.0
C1316 C 0.55478 0.22641 0.46202 0.0
C1317 C 0.52978 0.21436 0.43724 0.0
H1318 H 0.58695 0.21454 0.49659 0.0
C1319 C 0.51446 0.18044 0.4333 0.0
H1320 H 0.56704 0.25232 0.46561 0.0
C1321 C 0.52613 0.15842 0.45095 0.0
C1322 C 0.5532 0.1702 0.47261 0.0
H1323 H 0.49524 0.17035 0.41415 0.0
H1324 H 0.51526 0.13209 0.44571 0.0
C1325 C 0.56642 0.20458 0.47937 0.0
C1326 C 0.77508 0.8216 0.12535 0.0
C1327 C 0.79699 0.81576 0.11073 0.0
H1328 H 0.76144 0.83031 0.16931 0.0
C1329 C 0.82283 0.81423 0.13081 0.0
H1330 H 0.75469 0.82234 0.11063 0.0
C1331 C 0.82686 0.81926 0.16467 0.0
C1332 C 0.80479 0.82486 0.17926 0.0
H1333 H 0.84003 0.80953 0.12034 0.0
H1334 H 0.84729 0.81871 0.17944 0.0
C1335 C 0.77879 0.82572 0.15907 0.0
C1336 C 0.15617 0.11568 0.79544 0.0
C1337 C 0.15125 0.14296 0.81225 0.0
H1338 H 0.14944 0.08705 0.74935 0.0
C1339 C 0.13071 0.15773 0.79714 0.0
H1340 H 0.1716 0.10348 0.80677 0.0
C1341 C 0.11767 0.14774 0.76461 0.0
C1342 C 0.12523 0.12312 0.74704 0.0
H1343 H 0.12648 0.17872 0.80957 0.0
H1344 H 0.10406 0.16162 0.7525 0.0
C1345 C 0.14335 0.10596 0.76281 0.0
C1346 C 0.80343 0.39044 0.42826 0.0
C1347 C 0.8303 0.41295 0.44307 0.0
H1348 H 0.77726 0.35847 0.38515 0.0
C1349 C 0.85041 0.42343 0.42376 0.0
H1350 H 0.78765 0.38163 0.44248 0.0
C1351 C 0.84413 0.41105 0.39063 0.0
C1352 C 0.81791 0.38704 0.37625 0.0
H1353 H 0.87142 0.44062 0.43458 0.0
H1354 H 0.86053 0.41861 0.37686 0.0
C1355 C 0.79752 0.37727 0.39539 0.0
C1356 C 0.56836 0.21834 0.26384 0.0
C1357 C 0.54053 0.21916 0.26656 0.0
H1358 H 0.59379 0.19598 0.23889 0.0
C1359 C 0.51648 0.19963 0.2428 0.0
H1360 H 0.58732 0.23289 0.28169 0.0
C1361 C 0.52031 0.17831 0.21803 0.0
C1362 C 0.54816 0.176 0.21711 0.0
H1363 H 0.49469 0.19923 0.2445 0.0
H1364 H 0.50157 0.16265 0.20058 0.0
C1365 C 0.57208 0.19683 0.23963 0.0
C1366 C 0.80748 0.80109 0.90747 0.0
C1367 C 0.80186 0.82192 0.93148 0.0
H1368 H 0.81826 0.79612 0.86089 0.0
C1369 C 0.80397 0.855 0.92641 0.0
H1370 H 0.80582 0.77542 0.91031 0.0
C1371 C 0.81157 0.86697 0.89847 0.0
C1372 C 0.81666 0.84612 0.87418 0.0
H1373 H 0.79986 0.87184 0.94426 0.0
H1374 H 0.81311 0.89263 0.8957 0.0
C1375 C 0.81443 0.81292 0.87901 0.0
C1376 C 0.85644 0.16976 0.97277 0.0
C1377 C 0.86003 0.19359 0.99945 0.0
H1378 H 0.87317 0.13452 0.94987 0.0
C1379 C 0.88563 0.20082 0.02363 0.0
H1380 H 0.83705 0.16339 0.95363 0.0
C1381 C 0.90698 0.18461 0.02112 0.0
C1382 C 0.90324 0.16038 0.99451 0.0
H1383 H 0.88937 0.21933 0.04432 0.0
H1384 H 0.92657 0.19143 0.03996 0.0
C1385 C 0.8775 0.15332 0.97044 0.0
C1386 C 0.46514 0.50536 0.04531 0.0
C1387 C 0.44407 0.51442 0.05926 0.0
H1388 H 0.50505 0.5209 0.0303 0.0
C1389 C 0.4479 0.54838 0.06854 0.0
H1390 H 0.4627 0.4796 0.03712 0.0
C1391 C 0.47278 0.57243 0.06486 0.0
C1392 C 0.49393 0.56299 0.05121 0.0
H1393 H 0.43201 0.55625 0.07911 0.0
H1394 H 0.47557 0.5983 0.07291 0.0
C1395 C 0.48946 0.52918 0.04114 0.0
C1396 C 0.38859 0.63266 0.75288 0.0
C1397 C 0.38672 0.62456 0.71971 0.0
H1398 H 0.3769 0.66157 0.78897 0.0
C1399 C 0.37162 0.64 0.69721 0.0
H1400 H 0.40035 0.62134 0.77077 0.0
C1401 C 0.35834 0.6629 0.70765 0.0
C1402 C 0.35989 0.67069 0.74071 0.0
H1403 H 0.36973 0.63409 0.67151 0.0
H1404 H 0.34633 0.67404 0.68981 0.0
C1405 C 0.37521 0.65557 0.76331 0.0
C1406 C 0.21099 0.68837 0.55374 0.0
C1407 C 0.21717 0.69531 0.52379 0.0
H1408 H 0.1793 0.66498 0.57909 0.0
C1409 C 0.19606 0.68105 0.49543 0.0
H1410 H 0.22675 0.6998 0.57597 0.0
C1411 C 0.16874 0.66115 0.49708 0.0
C1412 C 0.16189 0.65556 0.52721 0.0
H1413 H 0.20019 0.68666 0.4721 0.0
H1414 H 0.15259 0.65148 0.47478 0.0
C1415 C 0.18369 0.66862 0.55547 0.0
C1416 C 0.71739 0.9128 0.74775 0.0
C1417 C 0.71825 0.94368 0.76314 0.0
H1418 H 0.73963 0.87604 0.7438 0.0
C1419 C 0.74348 0.96235 0.78579 0.0
H1420 H 0.69836 0.89808 0.73009 0.0
C1421 C 0.76742 0.95005 0.79312 0.0
C1422 C 0.766 0.91874 0.77833 0.0
H1423 H 0.74479 0.98654 0.79766 0.0
H1424 H 0.78654 0.96442 0.81085 0.0
C1425 C 0.74098 0.90031 0.75554 0.0
C1426 C 0.76971 0.0134 0.49367 0.0
C1427 C 0.78394 1.00627 0.52312 0.0
H1428 H 0.73666 0.03301 0.46933 0.0
C1429 C 0.77438 0.01331 0.55126 0.0
H1430 H 0.77622 0.00805 0.47141 0.0
C1431 C 0.75153 0.02767 0.55003 0.0
C1432 C 0.73777 0.03552 0.52067 0.0
H1433 H 0.78464 0.0079 0.57431 0.0
H1434 H 0.74517 0.03345 0.57228 0.0
C1435 C 0.747 0.02784 0.49247 0.0
C1436 C 0.36965 0.48273 0.72493 0.0
C1437 C 0.37006 0.46918 0.69373 0.0
H1438 H 0.35492 0.47371 0.76863 0.0
C1439 C 0.35583 0.4357 0.68268 0.0
H1440 H 0.38102 0.50842 0.73428 0.0
C1441 C 0.34081 0.41629 0.70215 0.0
C1442 C 0.34071 0.42964 0.73338 0.0
H1443 H 0.35621 0.42461 0.65898 0.0
H1444 H 0.32917 0.39083 0.69267 0.0
C1445 C 0.35532 0.4629 0.74483 0.0
C1446 C 0.21454 0.59236 0.27045 0.0
C1447 C 0.20766 0.58477 0.23656 0.0
H1448 H 0.2397 0.62805 0.31126 0.0
C1449 C 0.22388 0.60411 0.21791 0.0
H1450 H 0.20201 0.57737 0.28509 0.0
C1451 C 0.24615 0.6319 0.23302 0.0
C1452 C 0.25165 0.64096 0.26668 0.0
H1453 H 0.21888 0.5982 0.19182 0.0
H1454 H 0.25741 0.64791 0.21809 0.0
C1455 C 0.23622 0.62076 0.28548 0.0
C1456 C 0.54973 0.73686 0.4694 0.0
C1457 C 0.54307 0.76012 0.48991 0.0
H1458 H 0.56242 0.69198 0.46483 0.0
C1459 C 0.54715 0.75708 0.52317 0.0
H1460 H 0.54672 0.73828 0.44371 0.0
C1461 C 0.55699 0.73102 0.53543 0.0
C1462 C 0.56244 0.70709 0.51461 0.0
H1463 H 0.54243 0.7747 0.53969 0.0
H1464 H 0.55918 0.72883 0.56092 0.0
C1465 C 0.55884 0.71041 0.48153 0.0
C1466 C 0.70271 0.39537 0.72619 0.0
C1467 C 0.70044 0.38704 0.69288 0.0
H1468 H 0.72773 0.39856 0.77461 0.0
C1469 C 0.72121 0.37321 0.68338 0.0
H1470 H 0.68697 0.4058 0.73435 0.0
C1471 C 0.74381 0.36833 0.70612 0.0
C1472 C 0.74686 0.37758 0.73929 0.0
H1473 H 0.71988 0.36571 0.65806 0.0
H1474 H 0.75931 0.35777 0.69751 0.0
C1475 C 0.72595 0.39103 0.7492 0.0
C1476 C 0.06133 0.45492 0.97551 0.0
C1477 C 0.03561 0.43419 0.98076 0.0
H1478 H 0.08719 0.50476 0.97684 0.0
C1479 C 0.01515 0.44878 0.98991 0.0
H1480 H 0.07739 0.44447 0.96813 0.0
C1481 C 0.02033 0.48326 0.99389 0.0
C1482 C 0.04633 0.50403 0.98937 0.0
H1483 H 0.99487 0.43351 0.99359 0.0
H1484 H 1.00435 0.49364 1.00156 0.0
C1485 C 0.06678 0.48945 0.98016 0.0
C1486 C 0.03808 0.9083 0.20137 0.0
C1487 C 0.04806 0.88267 0.18917 0.0
H1488 H 1.00636 0.92148 0.22347 0.0
C1489 C 0.03288 0.84957 0.19021 0.0
H1490 H 0.04923 0.93401 0.20098 0.0
C1491 C 1.00827 0.84241 0.20331 0.0
C1492 C 0.99823 0.86821 0.21508 0.0
H1493 H 0.04001 0.82923 0.18096 0.0
H1494 H 0.99695 0.8168 0.20398 0.0
C1495 C 0.01338 0.90114 0.214 0.0
C1496 C 0.56514 0.45685 0.06542 0.0
C1497 C 0.58662 0.45527 0.09193 0.0
H1498 H 0.54797 0.48653 0.0329 0.0
C1499 C 0.60836 0.48493 0.10593 0.0
H1500 H 0.54794 0.43478 0.05406 0.0
C1501 C 0.60799 0.51535 0.0941 0.0
C1502 C 0.58635 0.51661 0.06742 0.0
H1503 H 0.62508 0.48483 0.12663 0.0
H1504 H 0.6246 0.5378 0.10577 0.0
C1505 C 0.5652 0.48675 0.0532 0.0
C1506 C 0.95892 0.38014 0.3649 0.0
C1507 C 0.9633 0.34857 0.36435 0.0
H1508 H 0.93101 0.40928 0.34738 0.0
C1509 C 0.94351 0.32206 0.34274 0.0
H1510 H 0.97378 0.40082 0.38181 0.0
C1511 C 0.91889 0.3268 0.32301 0.0
C1512 C 0.91361 0.35809 0.32476 0.0
H1513 H 0.94641 0.29747 0.34216 0.0
H1514 H 0.90342 0.30562 0.30736 0.0
C1515 C 0.93441 0.38494 0.3452 0.0
C1516 C 0.09018 0.74356 0.60891 0.0
C1517 C 0.07875 0.76912 0.59774 0.0
H1518 H 0.09435 0.6946 0.59875 0.0
C1519 C 0.06245 0.76386 0.56586 0.0
H1520 H 0.10313 0.7468 0.63328 0.0
C1521 C 0.05719 0.73344 0.54609 0.0
C1522 C 0.06816 0.70771 0.55773 0.0
H1523 H 0.05304 0.78269 0.55659 0.0
H1524 H 0.04424 0.72992 0.52172 0.0
C1525 C 0.085 0.7134 0.58926 0.0
C1526 C 0.63029 0.87267 0.83964 0.0
C1527 C 0.60966 0.84942 0.8512 0.0
H1528 H 0.66621 0.88123 0.81642 0.0
C1529 C 0.60867 0.8157 0.84588 0.0
H1530 H 0.63166 0.89878 0.84316 0.0
C1531 C 0.62811 0.80563 0.82993 0.0
C1532 C 0.64937 0.82907 0.81953 0.0
H1533 H 0.59297 0.79707 0.85423 0.0
H1534 H 0.62712 0.7796 0.82663 0.0
C1535 C 0.65012 0.86266 0.82435 0.0
C1536 C 0.48533 0.60637 0.61058 0.0
C1537 C 0.47088 0.5725 0.60002 0.0
H1538 H 0.52424 0.64602 0.61387 0.0
C1539 C 0.48331 0.55341 0.58217 0.0
H1540 H 0.47641 0.62134 0.6253 0.0
C1541 C 0.51086 0.56671 0.57775 0.0
C1542 C 0.52603 0.60005 0.5892 0.0
H1543 H 0.47291 0.52718 0.57441 0.0
H1544 H 0.52046 0.55034 0.56573 0.0
C1545 C 0.51296 0.6202 0.60509 0.0
C1546 C 0.7822 0.29122 0.90943 0.0
C1547 C 0.80359 0.30674 0.93746 0.0
H1548 H 0.76751 0.28915 0.85795 0.0
C1549 C 0.82719 0.33255 0.93454 0.0
H1550 H 0.76341 0.27172 0.91117 0.0
C1551 C 0.82919 0.34303 0.90437 0.0
C1552 C 0.80771 0.32786 0.87622 0.0
H1553 H 0.84372 0.34528 0.95577 0.0
H1554 H 0.84765 0.36325 0.90316 0.0
C1555 C 0.78441 0.30137 0.87903 0.0
C1556 C 0.12817 0.53304 0.12146 0.0
C1557 C 0.11129 0.50078 0.12302 0.0
H1558 H 0.1283 0.58029 0.10563 0.0
C1559 C 0.08335 0.48918 0.10334 0.0
H1560 H 0.14989 0.54262 0.1362 0.0
C1561 C 0.07106 0.51065 0.08616 0.0
C1562 C 0.08645 0.54422 0.08826 0.0
H1563 H 0.06984 0.46457 0.10416 0.0
H1564 H 0.04871 0.50139 0.07301 0.0
C1565 C 0.11571 0.55479 0.10438 0.0
C1566 C 0.83403 0.87306 0.43987 0.0
C1567 C 0.84532 0.90564 0.45603 0.0
H1568 H 0.82141 0.84132 0.39438 0.0
C1569 C 0.85355 0.93157 0.43783 0.0
H1570 H 0.82777 0.85257 0.45325 0.0
C1571 C 0.8511 0.92496 0.4043 0.0
C1572 C 0.83956 0.8924 0.3882 0.0
H1573 H 0.8628 0.95687 0.44973 0.0
H1574 H 0.85787 0.94529 0.39091 0.0
C1575 C 0.83063 0.86662 0.40625 0.0
C1576 C 0.50664 0.59967 0.7613 0.0
C1577 C 0.48285 0.5713 0.75292 0.0
H1578 H 0.53806 0.63274 0.8005 0.0
C1579 C 0.46968 0.55688 0.77659 0.0
H1580 H 0.51636 0.61142 0.74285 0.0
C1581 C 0.48083 0.56994 0.80871 0.0
C1582 C 0.5057 0.59707 0.81752 0.0
H1583 H 0.45064 0.53563 0.77019 0.0
H1584 H 0.47105 0.55754 0.82682 0.0
C1585 C 0.51853 0.61217 0.7938 0.0
C1586 C 0.83102 0.30425 0.14648 0.0
C1587 C 0.82112 0.32195 0.12196 0.0
H1588 H 0.84445 0.30343 0.19794 0.0
C1589 C 0.81714 0.35279 0.13156 0.0
H1590 H 0.83404 0.28026 0.14011 0.0
C1591 C 0.82292 0.36569 0.16415 0.0
C1592 C 0.83257 0.34825 0.1887 0.0
H1593 H 0.80937 0.36722 0.11376 0.0
H1594 H 0.81964 0.38965 0.17018 0.0
C1595 C 0.83653 0.31722 0.17962 0.0
C1596 C 0.07633 0.51036 0.28591 0.0
C1597 C 0.10489 0.50987 0.28741 0.0
H1598 H 0.0475 0.52867 0.3089 0.0
C1599 C 0.12622 0.52432 0.31561 0.0
H1600 H 0.05986 0.50031 0.26391 0.0
C1601 C 0.11937 0.54135 0.34111 0.0
C1602 C 0.09118 0.54413 0.33834 0.0
H1603 H 0.14864 0.52535 0.31657 0.0
H1604 H 0.13643 0.55424 0.36183 0.0
C1605 C 0.0695 0.5273 0.31123 0.0
C1606 C 0.84111 0.86242 0.63852 0.0
C1607 C 0.84277 0.89562 0.63418 0.0
H1608 H 0.8312 0.82335 0.66764 0.0
C1609 C 0.83544 0.91507 0.65789 0.0
H1610 H 0.84647 0.84654 0.62086 0.0
C1611 C 0.82732 0.90186 0.68533 0.0
C1612 C 0.82554 0.86856 0.68945 0.0
H1613 H 0.8366 0.94074 0.65562 0.0
H1614 H 0.82223 0.9177 0.70325 0.0
C1615 C 0.83231 0.84902 0.66543 0.0
C1616 C 0.75894 0.51763 0.55248 0.0
C1617 C 0.78803 0.53242 0.56839 0.0
H1618 H 0.71524 0.52063 0.54406 0.0
C1619 C 0.79497 0.56307 0.5881 0.0
H1620 H 0.7527 0.49384 0.53742 0.0
C1621 C 0.77364 0.57871 0.59155 0.0
C1622 C 0.74445 0.56409 0.57575 0.0
H1623 H 0.81711 0.57534 0.60067 0.0
H1624 H 0.7803 0.60272 0.60624 0.0
C1625 C 0.73743 0.53314 0.55624 0.0
C1626 C 0.18198 0.20991 0.52353 0.0
C1627 C 0.2012 0.20176 0.5059 0.0
H1628 H 0.14247 0.19385 0.53927 0.0
C1629 C 0.19481 0.16886 0.49105 0.0
H1630 H 0.1865 0.2348 0.53589 0.0
C1631 C 0.16905 0.14511 0.4928 0.0
C1632 C 0.14954 0.1538 0.50982 0.0
H1633 H 0.20922 0.16179 0.47738 0.0
H1634 H 0.16414 0.12021 0.48035 0.0
C1635 C 0.1567 0.18634 0.5256 0.0
C1636 C 0.30089 0.11884 0.84417 0.0
C1637 C 0.27393 0.1097 0.85235 0.0
H1638 H 0.33311 0.10261 0.82603 0.0
C1639 C 0.25753 0.07631 0.84642 0.0
H1640 H 0.31384 0.14451 0.84854 0.0
C1641 C 0.26807 0.05232 0.83244 0.0
C1642 C 0.29545 0.06133 0.82485 0.0
H1643 H 0.23633 0.06889 0.85191 0.0
H1644 H 0.25478 0.0268 0.82756 0.0
C1645 C 0.3117 0.09486 0.83088 0.0
C1646 C 0.44943 0.0474 0.06993 0.0
C1647 C 0.42736 0.03204 0.0427 0.0
H1648 H 0.49292 0.07802 0.08783 0.0
C1649 C 0.43171 0.03829 0.01187 0.0
H1650 H 0.44674 0.04233 0.09387 0.0
C1651 C 0.45837 0.05809 0.0082 0.0
C1652 C 0.4811 0.07218 0.03537 0.0
H1653 H 0.41517 0.02605 0.99048 0.0
H1654 H 0.46158 0.06107 0.98402 0.0
C1655 C 0.47592 0.06763 0.06635 0.0
C1656 C 0.88774 0.7452 0.81115 0.0
C1657 C 0.91717 0.7634 0.81811 0.0
H1658 H 0.84389 0.74483 0.79218 0.0
C1659 C 0.92484 0.79526 0.80915 0.0
H1660 H 0.88113 0.7203 0.81721 0.0
C1661 C 0.9036 0.80895 0.79427 0.0
C1662 C 0.8741 0.79122 0.78819 0.0
H1663 H 0.94729 0.80982 0.81386 0.0
H1664 H 0.9104 0.83401 0.78862 0.0
C1665 C 0.86639 0.75903 0.79642 0.0
C1666 C 0.85094 0.66831 0.99869 0.0
C1667 C 0.85138 0.69924 0.01404 0.0
H1668 H 0.8741 0.63229 0.99361 0.0
C1669 C 0.87671 0.71791 0.03654 0.0
H1670 H 0.83189 0.65325 0.98129 0.0
C1671 C 0.90101 0.70593 0.04329 0.0
C1672 C 0.90027 0.67498 0.0279 0.0
H1673 H 0.87782 0.74183 0.04885 0.0
H1674 H 0.92024 0.72065 0.06066 0.0
C1675 C 0.87506 0.65627 1.00568 0.0
C1676 C 0.26159 0.28184 0.85616 0.0
C1677 C 0.27104 0.25842 0.87378 0.0
H1678 H 0.26917 0.31478 0.82131 0.0
C1679 C 0.29706 0.2519 0.8707 0.0
H1680 H 0.24151 0.28727 0.85774 0.0
C1681 C 0.31296 0.2681 0.84987 0.0
C1682 C 0.30259 0.29015 0.83116 0.0
H1683 H 0.3047 0.23372 0.88369 0.0
H1684 H 0.33311 0.26301 0.84797 0.0
C1685 C 0.27698 0.29707 0.83463 0.0
C1686 C 0.45078 0.11887 0.34301 0.0
C1687 C 0.45462 0.1399 0.31959 0.0
H1688 H 0.42524 0.07367 0.35405 0.0
C1689 C 0.43653 0.13145 0.28847 0.0
H1690 H 0.46423 0.1256 0.36727 0.0
C1691 C 0.41447 0.1018 0.2808 0.0
C1692 C 0.41009 0.08137 0.30466 0.0
H1693 H 0.4393 0.148 0.27039 0.0
H1694 H 0.40065 0.09511 0.25673 0.0
C1695 C 0.42838 0.08974 0.33562 0.0
C1696 C 0.62119 0.47947 0.55444 0.0
C1697 C 0.60557 0.45958 0.57378 0.0
H1698 H 0.62551 0.52135 0.52826 0.0
C1699 C 0.58014 0.46635 0.57933 0.0
H1700 H 0.64083 0.47518 0.5495 0.0
C1701 C 0.57087 0.49241 0.56617 0.0
C1702 C 0.58709 0.51275 0.54767 0.0
H1703 H 0.56753 0.45172 0.59409 0.0
H1704 H 0.55173 0.49759 0.57168 0.0
C1705 C 0.61232 0.50589 0.54201 0.0
C1706 C 0.41846 0.83805 0.38461 0.0
C1707 C 0.44052 0.82717 0.37453 0.0
H1708 H 0.3803 0.85366 0.37125 0.0
C1709 C 0.44004 0.82336 0.34123 0.0
H1710 H 0.41834 0.84197 0.41004 0.0
C1711 C 0.41776 0.82988 0.31867 0.0
C1712 C 0.39596 0.84115 0.32905 0.0
H1713 H 0.45683 0.81535 0.33265 0.0
H1714 H 0.41764 0.82621 0.29317 0.0
C1715 C 0.39673 0.84521 0.36231 0.0
C1716 C 0.08337 0.76141 0.08856 0.0
C1717 C 0.10856 0.78211 0.0821 0.0
H1718 H 0.05816 0.71162 0.08877 0.0
C1719 C 0.12862 0.76755 0.0719 0.0
H1720 H 0.06762 0.77185 0.09672 0.0
C1721 C 0.12365 0.73309 0.06836 0.0
C1722 C 0.09826 0.71239 0.07439 0.0
H1723 H 0.14846 0.78282 0.0672 0.0
H1724 H 0.13928 0.72264 0.05994 0.0
C1725 C 0.07812 0.72694 0.08437 0.0
C1726 C 0.11901 0.35398 0.89073 0.0
C1727 C 0.09594 0.36427 0.87392 0.0
H1728 H 0.16113 0.34798 0.89206 0.0
C1729 C 0.09832 0.37719 0.84488 0.0
H1730 H 0.11802 0.34444 0.9135 0.0
C1731 C 0.12283 0.37876 0.83235 0.0
C1732 C 0.14575 0.36787 0.84879 0.0
H1733 H 0.08091 0.3853 0.83137 0.0
H1734 H 0.12339 0.38764 0.80924 0.0
C1735 C 0.14369 0.35593 0.87841 0.0
C1736 C 0.54859 0.73635 0.95282 0.0
C1737 C 0.54226 0.75992 0.97349 0.0
H1738 H 0.55675 0.68868 0.94654 0.0
C1739 C 0.53921 0.75231 1.0045 0.0
H1740 H 0.55087 0.74112 0.9287 0.0
C1741 C 0.5431 0.72268 0.01486 0.0
C1742 C 0.5493 0.69905 0.99429 0.0
H1743 H 0.53426 0.76963 0.02113 0.0
H1744 H 0.54118 0.71822 0.03916 0.0
C1745 C 0.55167 0.70611 0.96293 0.0
C1746 C 0.2034 0.8979 0.72046 0.0
C1747 C 0.18161 0.86772 0.71044 0.0
H1748 H 0.24814 0.92156 0.74323 0.0
C1749 C 0.18885 0.83795 0.71402 0.0
H1750 H 0.19831 0.92118 0.7181 0.0
C1751 C 0.21684 0.83803 0.72814 0.0
C1752 C 0.23865 0.86796 0.73941 0.0
H1753 H 0.17256 0.81426 0.70617 0.0
H1754 H 0.22118 0.81436 0.73054 0.0
C1755 C 0.23177 0.89802 0.73504 0.0
C1756 C 0.04158 0.45883 0.50009 0.0
C1757 C 0.05881 0.44823 0.48087 0.0
H1758 H 0.03401 0.49882 0.52814 0.0
C1759 C 0.08152 0.47292 0.47367 0.0
H1760 H 0.0236 0.44115 0.50603 0.0
C1761 C 0.08729 0.50676 0.48644 0.0
C1762 C 0.07022 0.5167 0.50626 0.0
H1763 H 0.09514 0.46605 0.45878 0.0
H1764 H 0.10566 0.52491 0.48177 0.0
C1765 C 0.04724 0.49222 0.51255 0.0
C1766 C 0.52492 0.40316 0.19478 0.0
C1767 C 0.53431 0.3761 0.20493 0.0
H1768 H 0.49664 0.43375 0.19955 0.0
C1769 C 0.5224 0.35965 0.22884 0.0
H1770 H 0.5337 0.41649 0.1766 0.0
C1771 C 0.50167 0.36975 0.24208 0.0
C1772 C 0.49196 0.39632 0.23159 0.0
H1773 H 0.529 0.33873 0.23739 0.0
H1774 H 0.49282 0.3564 0.26023 0.0
C1775 C 0.50374 0.41302 0.20785 0.0
C1776 C 0.66517 0.65828 0.48412 0.0
C1777 C 0.67319 0.64066 0.46009 0.0
H1778 H 0.63163 0.66226 0.50705 0.0
C1779 C 0.65601 0.60823 0.44688 0.0
H1780 H 0.67777 0.68345 0.49422 0.0
C1781 C 0.62946 0.59522 0.45525 0.0
C1782 C 0.62012 0.6148 0.47659 0.0
H1783 H 0.66155 0.59442 0.42771 0.0
H1784 H 0.61566 0.571 0.44374 0.0
C1785 C 0.63852 0.64603 0.49132 0.0
C1786 C 0.34176 0.93701 0.15366 0.0
C1787 C 0.34743 0.91578 0.13005 0.0
H1788 H 0.33523 0.94461 0.20208 0.0
C1789 C 0.35088 0.88513 0.1382 0.0
H1790 H 0.33929 0.96093 0.14845 0.0
C1791 C 0.34817 0.87565 0.16859 0.0
C1792 C 0.34276 0.89686 0.19232 0.0
H1793 H 0.35539 0.86813 0.12084 0.0
H1794 H 0.3504 0.85157 0.17355 0.0
C1795 C 0.33981 0.92784 0.18457 0.0
C1796 C 0.02021 0.67534 0.93031 0.0
C1797 C 0.03772 0.70569 0.9249 0.0
H1798 H 0.01825 0.63273 0.95529 0.0
C1799 C 0.06546 0.71903 0.9445 0.0
H1800 H 0.99889 0.66433 0.91487 0.0
C1801 C 0.07649 0.70105 0.96736 0.0
C1802 C 0.06019 0.66906 0.97041 0.0
H1803 H 0.07946 0.74206 0.94031 0.0
H1804 H 0.09857 0.71135 0.98108 0.0
C1805 C 0.0314 0.65704 0.95298 0.0
C1806 C 0.27699 0.3277 0.62374 0.0
C1807 C 0.29597 0.31477 0.60927 0.0
H1808 H 0.26495 0.34143 0.66759 0.0
C1809 C 0.31811 0.30568 0.62962 0.0
H1810 H 0.25948 0.33464 0.60896 0.0
C1811 C 0.32142 0.30994 0.66343 0.0
C1812 C 0.30208 0.32231 0.67776 0.0
H1813 H 0.33298 0.29537 0.61941 0.0
H1814 H 0.33909 0.30342 0.67839 0.0
C1815 C 0.27979 0.33104 0.65741 0.0
C1816 C 0.64948 0.67843 0.28537 0.0
C1817 C 0.64697 0.65628 0.30802 0.0
H1818 H 0.647 0.68372 0.23567 0.0
C1819 C 0.63681 0.62192 0.29793 0.0
H1820 H 0.65815 0.70493 0.29288 0.0
C1821 C 0.63063 0.60971 0.26522 0.0
C1822 C 0.63545 0.63198 0.24298 0.0
H1823 H 0.63541 0.60466 0.3155 0.0
H1824 H 0.62331 0.58321 0.25746 0.0
C1825 C 0.64397 0.66629 0.25297 0.0
C1826 C 0.32208 0.92451 0.92095 0.0
C1827 C 0.32913 0.90546 0.94553 0.0
H1828 H 0.31217 0.92704 0.8695 0.0
C1829 C 0.33103 0.8736 0.93605 0.0
H1830 H 0.32093 0.9494 0.92732 0.0
C1831 C 0.32595 0.86099 0.90339 0.0
C1832 C 0.3194 0.8799 0.8787 0.0
H1833 H 0.33669 0.85826 0.95405 0.0
H1834 H 0.32761 0.83622 0.89746 0.0
C1835 C 0.31754 0.91197 0.88782 0.0
C1836 C 0.04922 0.71442 0.76874 0.0
C1837 C 0.02368 0.72358 0.7589 0.0
H1838 H 0.07653 0.68569 0.75686 0.0
C1839 C 1.00468 0.70807 0.72947 0.0
H1840 H 0.06455 0.72639 0.79108 0.0
C1841 C 1.01145 0.68438 0.7098 0.0
C1842 C 0.03762 0.67622 0.71905 0.0
H1843 H 0.98478 0.71458 0.72151 0.0
H1844 H 0.9966 0.67314 0.68695 0.0
C1845 C 0.05601 0.6909 0.74916 0.0
C1846 C 0.33151 0.33166 0.42975 0.0
C1847 C 0.30207 0.3172 0.42897 0.0
H1848 H 0.36303 0.35697 0.40461 0.0
C1849 C 0.28186 0.31538 0.39989 0.0
H1850 H 0.34768 0.33357 0.45164 0.0
C1851 C 0.29077 0.32767 0.3725 0.0
C1852 C 0.32001 0.34356 0.37374 0.0
H1853 H 0.25902 0.3043 0.3983 0.0
H1854 H 0.27463 0.32558 0.35063 0.0
C1855 C 0.34027 0.34519 0.40276 0.0
C1856 C 0.35493 0.66628 0.47205 0.0
C1857 C 0.35973 0.69257 0.49683 0.0
H1858 H 0.37094 0.62936 0.4508 0.0
C1859 C 0.38672 0.70263 0.51892 0.0
H1860 H 0.33444 0.65772 0.45458 0.0
C1861 C 0.40821 0.68671 0.51631 0.0
C1862 C 0.40324 0.65993 0.49175 0.0
H1863 H 0.39138 0.72307 0.53806 0.0
H1864 H 0.42882 0.69567 0.53349 0.0
C1865 C 0.37617 0.65012 0.46969 0.0
C1866 C 0.96592 1.00647 0.54709 0.0
C1867 C 0.94434 0.0157 0.55993 0.0
H1868 H 1.00665 0.02176 0.53375 0.0
C1869 C 0.94838 0.04972 0.56928 0.0
H1870 H 0.96351 0.9807 0.539 0.0
C1871 C 0.9737 0.07363 0.56647 0.0
C1872 C 0.99521 0.06404 0.55372 0.0
H1873 H 0.93217 0.05781 0.57903 0.0
H1874 H 0.97645 0.09953 0.57434 0.0
C1875 C 0.99074 0.03017 0.54384 0.0
C1876 C 0.86965 0.14063 0.19614 0.0
C1877 C 0.87961 0.12008 0.21717 0.0
H1878 H 0.85031 0.1803 0.19074 0.0
C1879 C 0.87922 0.12534 0.25007 0.0
H1880 H 0.8699 0.13727 0.17071 0.0
C1881 C 0.86829 0.15015 0.26156 0.0
C1882 C 0.85754 0.17005 0.24034 0.0
H1883 H 0.88728 0.11027 0.26698 0.0
H1884 H 0.86808 0.15364 0.287 0.0
C1885 C 0.85869 0.16542 0.20764 0.0
C1886 C 0.68828 0.21187 0.013 0.0
C1887 C 0.71414 0.20278 0.02049 0.0
H1888 H 0.64259 0.19834 0.00897 0.0
C1889 C 0.71279 0.17099 0.02931 0.0
H1890 H 0.68824 0.23601 1.00607 0.0
C1891 C 0.68614 0.14931 0.03144 0.0
C1892 C 0.66062 0.15904 0.02424 0.0
H1893 H 0.73228 0.16322 0.03519 0.0
H1894 H 0.68544 0.12503 0.03841 0.0
C1895 C 0.66199 0.19029 0.01469 0.0
C1896 C 0.22193 0.4259 0.24328 0.0
C1897 C 0.22197 0.4537 0.26352 0.0
H1898 H 0.24351 0.38964 0.23412 0.0
C1899 C 0.24572 0.46766 0.28991 0.0
H1900 H 0.20421 0.41473 0.22265 0.0
C1901 C 0.26866 0.45342 0.29631 0.0
C1902 C 0.26784 0.42495 0.27651 0.0
H1903 H 0.24648 0.48942 0.30574 0.0
H1904 H 0.2863 0.46378 0.3172 0.0
C1905 C 0.24453 0.41167 0.24978 0.0
C1906 C 0.26658 0.50533 0.9947 0.0
C1907 C 0.2835 0.50172 0.02418 0.0
H1908 H 0.23156 0.52237 0.97106 0.0
C1909 C 0.27699 0.51262 0.05317 0.0
H1910 H 0.27072 0.49692 0.97185 0.0
C1911 C 0.25446 0.5273 0.05268 0.0
C1912 C 0.23793 0.53149 0.02319 0.0
H1913 H 0.28946 0.51009 0.0763 0.0
H1914 H 0.2505 0.53618 0.07546 0.0
C1915 C 0.24411 0.52 0.99421 0.0
C1916 C 0.88023 0.93722 0.20565 0.0
C1917 C 0.87225 0.96389 0.19251 0.0
H1918 H 0.87223 0.90071 0.23741 0.0
C1919 C 0.84868 0.97301 0.20052 0.0
H1920 H 0.89834 0.92962 0.20003 0.0
C1921 C 0.83378 0.9561 0.2217 0.0
C1922 C 0.84277 0.9306 0.23582 0.0
H1923 H 0.84218 0.99365 0.19108 0.0
H1924 H 0.81536 0.96307 0.22726 0.0
C1925 C 0.86585 0.9211 0.22756 0.0
C1926 C 0.68767 0.10976 0.74039 0.0
C1927 C 0.69669 0.08161 0.74641 0.0
H1928 H 0.69889 0.16235 0.74738 0.0
C1929 C 0.72318 0.0847 0.76778 0.0
H1930 H 0.66733 0.10792 0.72396 0.0
C1931 C 0.74118 0.11599 0.78169 0.0
C1932 C 0.73271 0.14424 0.77429 0.0
H1933 H 0.7302 0.06307 0.77322 0.0
H1934 H 0.76224 0.11828 0.79682 0.0
C1935 C 0.70552 0.14086 0.75427 0.0
loop_
_geom_bond_atom_site_label_1
_geom_bond_atom_site_label_2
_geom_bond_distance
_geom_bond_site_symmetry_2
_ccdc_geom_bond_type
Zn0 O3 2.031 . S
Zn0 O5 2.049 . S
Zn0 O10 2.067 . S
Zn1 O2 1.962 . S
Zn1 O4 1.986 . S
Zn1 O6 1.996 . S
Zn1 O9 1.943 1_455 S
O2 Zn1 1.962 . S
O2 C7 1.254 . S
O3 Zn0 2.031 . S
O3 C7 1.269 1_655 S
O4 Zn1 1.986 . S
O4 C11 1.262 . S
O5 Zn0 2.049 . S
O5 C13 1.260 1_655 S
O6 Zn1 1.996 . S
O6 C13 1.257 . S
C7 O2 1.254 . S
C7 O3 1.269 1_455 S
C8 O9 1.249 . S
C8 O10 1.270 . S
O9 Zn1 1.943 1_655 S
O9 C8 1.249 . S
O10 Zn0 2.067 . S
O10 C8 1.270 . S
C11 O4 1.262 . S
C11 O12 1.232 . S
O12 C11 1.232 . S
C13 O5 1.260 1_455 S
C13 O6 1.257 . S
Zn14 O17 2.031 . S
Zn14 O19 2.049 . S
Zn14 O24 2.067 . S
Zn15 O16 1.962 . S
Zn15 O18 1.986 . S
Zn15 O20 1.996 . S
Zn15 O23 1.943 . S
O16 Zn15 1.962 . S
O16 C21 1.254 . S
O17 Zn14 2.031 . S
O17 C21 1.269 . S
O18 Zn15 1.986 . S
O18 C25 1.262 . S
O19 Zn14 2.049 . S
O19 C27 1.260 . S
O20 Zn15 1.996 . S
O20 C27 1.257 . S
C21 O16 1.254 . S
C21 O17 1.269 . S
C22 O23 1.249 . S
C22 O24 1.270 . S
O23 Zn15 1.943 . S
O23 C22 1.249 . S
O24 Zn14 2.067 . S
O24 C22 1.270 . S
C25 O18 1.262 . S
C25 O26 1.232 . S
O26 C25 1.232 . S
C27 O19 1.260 . S
C27 O20 1.257 . S
Zn28 O31 2.031 . S
Zn28 O33 2.049 . S
Zn28 O38 2.067 . S
Zn29 O30 1.962 . S
Zn29 O32 1.986 . S
Zn29 O34 1.996 . S
Zn29 O37 1.943 . S
O30 Zn29 1.962 . S
O30 C35 1.254 . S
O31 Zn28 2.031 . S
O31 C35 1.269 . S
O32 Zn29 1.986 . S
O32 C39 1.262 . S
O33 Zn28 2.049 . S
O33 C41 1.260 . S
O34 Zn29 1.996 . S
O34 C41 1.257 . S
C35 O30 1.254 . S
C35 O31 1.269 . S
C36 O37 1.249 . S
C36 O38 1.270 . S
O37 Zn29 1.943 . S
O37 C36 1.249 . S
O38 Zn28 2.067 . S
O38 C36 1.270 . S
C39 O32 1.262 . S
C39 O40 1.232 . S
O40 C39 1.232 . S
C41 O33 1.260 . S
C41 O34 1.257 . S
Zn42 O45 2.031 . S
Zn42 O47 2.049 . S
Zn42 O52 2.067 . S
Zn43 O44 1.962 . S
Zn43 O46 1.986 . S
Zn43 O48 1.996 . S
Zn43 O51 1.943 . S
O44 Zn43 1.962 . S
O44 C49 1.254 . S
O45 Zn42 2.031 . S
O45 C49 1.269 . S
O46 Zn43 1.986 . S
O46 C53 1.262 . S
O47 Zn42 2.049 . S
O47 C55 1.260 . S
O48 Zn43 1.996 . S
O48 C55 1.257 . S
C49 O44 1.254 . S
C49 O45 1.269 . S
C50 O51 1.249 . S
C50 O52 1.270 . S
O51 Zn43 1.943 . S
O51 C50 1.249 . S
O52 Zn42 2.067 . S
O52 C50 1.270 . S
C53 O46 1.262 . S
C53 O54 1.232 . S
O54 C53 1.232 . S
C55 O47 1.260 . S
C55 O48 1.257 . S
Zn56 O59 2.031 . S
Zn56 O61 2.049 . S
Zn56 O66 2.067 . S
Zn57 O58 1.962 . S
Zn57 O60 1.986 . S
Zn57 O62 1.996 . S
Zn57 O65 1.943 . S
O58 Zn57 1.962 . S
O58 C63 1.254 . S
O59 Zn56 2.031 . S
O59 C63 1.269 . S
O60 Zn57 1.986 . S
O60 C67 1.262 . S
O61 Zn56 2.049 . S
O61 C69 1.260 . S
O62 Zn57 1.996 . S
O62 C69 1.257 . S
C63 O58 1.254 . S
C63 O59 1.269 . S
C64 O65 1.249 . S
C64 O66 1.270 . S
O65 Zn57 1.943 . S
O65 C64 1.249 . S
O66 Zn56 2.067 . S
O66 C64 1.270 . S
C67 O60 1.262 . S
C67 O68 1.232 . S
O68 C67 1.232 . S
C69 O61 1.260 . S
C69 O62 1.257 . S
Zn70 O73 2.031 . S
Zn70 O75 2.049 . S
Zn70 O80 2.067 . S
Zn71 O72 1.962 . S
Zn71 O74 1.986 . S
Zn71 O76 1.996 . S
Zn71 O79 1.943 . S
O72 Zn71 1.962 . S
O72 C77 1.254 . S
O73 Zn70 2.031 . S
O73 C77 1.269 . S
O74 Zn71 1.986 . S
O74 C81 1.262 . S
O75 Zn70 2.049 . S
O75 C83 1.260 . S
O76 Zn71 1.996 . S
O76 C83 1.257 . S
C77 O72 1.254 . S
C77 O73 1.269 . S
C78 O79 1.249 . S
C78 O80 1.270 . S
O79 Zn71 1.943 . S
O79 C78 1.249 . S
O80 Zn70 2.067 . S
O80 C78 1.270 . S
C81 O74 1.262 . S
C81 O82 1.232 . S
O82 C81 1.232 . S
C83 O75 1.260 . S
C83 O76 1.257 . S
Zn84 O87 2.031 . S
Zn84 O89 2.049 . S
Zn84 O94 2.067 . S
Zn85 O86 1.962 . S
Zn85 O88 1.986 . S
Zn85 O90 1.996 . S
Zn85 O93 1.943 . S
O86 Zn85 1.962 . S
O86 C91 1.254 . S
O87 Zn84 2.031 . S
O87 C91 1.269 . S
O88 Zn85 1.986 . S
O88 C95 1.262 . S
O89 Zn84 2.049 . S
O89 C97 1.260 . S
O90 Zn85 1.996 . S
O90 C97 1.257 . S
C91 O86 1.254 . S
C91 O87 1.269 . S
C92 O93 1.249 . S
C92 O94 1.270 . S
O93 Zn85 1.943 . S
O93 C92 1.249 . S
O94 Zn84 2.067 . S
O94 C92 1.270 . S
C95 O88 1.262 . S
C95 O96 1.232 . S
O96 C95 1.232 . S
C97 O89 1.260 . S
C97 O90 1.257 . S
Zn98 O101 2.036 . S
Zn98 O103 2.049 . S
Zn98 O108 2.067 . S
Zn99 O100 1.962 . S
Zn99 O102 1.986 . S
Zn99 O104 1.996 . S
Zn99 O107 1.943 1_455 S
O100 Zn99 1.962 . S
O100 C105 1.254 . S
O101 Zn98 2.036 . S
O101 C105 1.243 1_655 S
O102 Zn99 1.986 . S
O102 C109 1.262 . S
O103 Zn98 2.049 . S
O103 C111 1.260 1_655 S
O104 Zn99 1.996 . S
O104 C111 1.257 . S
C105 O100 1.254 . S
C105 O101 1.243 1_455 S
C106 O107 1.249 . S
C106 O108 1.270 . S
O107 Zn99 1.943 1_655 S
O107 C106 1.249 . S
O108 Zn98 2.067 . S
O108 C106 1.270 . S
C109 O102 1.262 . S
C109 O110 1.232 . S
O110 C109 1.232 . S
C111 O103 1.260 1_455 S
C111 O104 1.257 . S
Zn112 O115 2.031 . S
Zn112 O117 2.049 . S
Zn112 O122 2.067 . S
Zn113 O114 1.962 . S
Zn113 O116 1.986 . S
Zn113 O118 1.996 . S
Zn113 O121 1.943 . S
O114 Zn113 1.962 . S
O114 C119 1.254 . S
O115 Zn112 2.031 . S
O115 C119 1.269 . S
O116 Zn113 1.986 . S
O116 C123 1.262 . S
O117 Zn112 2.049 . S
O117 C125 1.260 . S
O118 Zn113 1.996 . S
O118 C125 1.257 . S
C119 O114 1.254 . S
C119 O115 1.269 . S
C120 O121 1.249 . S
C120 O122 1.270 . S
O121 Zn113 1.943 . S
O121 C120 1.249 . S
O122 Zn112 2.067 . S
O122 C120 1.270 . S
C123 O116 1.262 . S
C123 O124 1.232 . S
O124 C123 1.232 . S
C125 O117 1.260 . S
C125 O118 1.257 . S
Zn126 O129 2.031 . S
Zn126 O131 2.049 . S
Zn126 O136 2.067 . S
Zn127 O128 1.962 . S
Zn127 O130 1.986 . S
Zn127 O132 1.996 . S
Zn127 O135 1.943 . S
O128 Zn127 1.962 . S
O128 C133 1.254 . S
O129 Zn126 2.031 . S
O129 C133 1.269 . S
O130 Zn127 1.986 . S
O130 C137 1.262 . S
O131 Zn126 2.049 . S
O131 C139 1.260 . S
O132 Zn127 1.996 . S
O132 C139 1.257 . S
C133 O128 1.254 . S
C133 O129 1.269 . S
C134 O135 1.249 . S
C134 O136 1.270 . S
O135 Zn127 1.943 . S
O135 C134 1.249 . S
O136 Zn126 2.067 . S
O136 C134 1.270 . S
C137 O130 1.262 . S
C137 O138 1.232 . S
O138 C137 1.232 . S
C139 O131 1.260 . S
C139 O132 1.257 . S
Zn140 O143 2.031 . S
Zn140 O145 2.049 . S
Zn140 O150 2.067 . S
Zn141 O142 1.962 . S
Zn141 O144 1.986 . S
Zn141 O146 1.996 . S
Zn141 O149 1.943 . S
O142 Zn141 1.962 . S
O142 C147 1.254 . S
O143 Zn140 2.031 . S
O143 C147 1.269 . S
O144 Zn141 1.986 . S
O144 C151 1.262 . S
O145 Zn140 2.049 . S
O145 C153 1.260 . S
O146 Zn141 1.996 . S
O146 C153 1.257 . S
C147 O142 1.254 . S
C147 O143 1.269 . S
C148 O149 1.249 . S
C148 O150 1.270 . S
O149 Zn141 1.943 . S
O149 C148 1.249 . S
O150 Zn140 2.067 . S
O150 C148 1.270 . S
C151 O144 1.262 . S
C151 O152 1.232 . S
O152 C151 1.232 . S
C153 O145 1.260 . S
C153 O146 1.257 . S
Zn154 O157 2.031 . S
Zn154 O159 2.049 . S
Zn154 O164 2.067 . S
Zn155 O156 1.962 . S
Zn155 O158 1.986 . S
Zn155 O160 1.996 . S
Zn155 O163 1.943 . S
O156 Zn155 1.962 . S
O156 C161 1.255 1_554 S
O157 Zn154 2.031 . S
O157 C161 1.270 1_554 S
O158 Zn155 1.986 . S
O158 C165 1.262 . S
O159 Zn154 2.049 . S
O159 C167 1.260 . S
O160 Zn155 1.996 . S
O160 C167 1.257 . S
C161 O156 1.255 1_556 S
C161 O157 1.270 1_556 S
C162 O163 1.249 . S
C162 O164 1.270 . S
O163 Zn155 1.943 . S
O163 C162 1.249 . S
O164 Zn154 2.067 . S
O164 C162 1.270 . S
C165 O158 1.262 . S
C165 O166 1.232 . S
O166 C165 1.232 . S
C167 O159 1.260 . S
C167 O160 1.257 . S
Zn168 O171 2.031 1_554 S
Zn168 O173 2.049 . S
Zn168 O178 2.067 . S
Zn169 O170 1.962 1_554 S
Zn169 O172 1.986 . S
Zn169 O174 1.996 . S
Zn169 O177 1.943 . S
O170 Zn169 1.962 1_556 S
O170 C175 1.254 . S
O171 Zn168 2.031 1_556 S
O171 C175 1.269 . S
O172 Zn169 1.986 . S
O172 C179 1.262 . S
O173 Zn168 2.049 . S
O173 C181 1.260 . S
O174 Zn169 1.996 . S
O174 C181 1.257 . S
C175 O170 1.254 . S
C175 O171 1.269 . S
C176 O177 1.249 . S
C176 O178 1.270 . S
O177 Zn169 1.943 . S
O177 C176 1.249 . S
O178 Zn168 2.067 . S
O178 C176 1.270 . S
C179 O172 1.262 . S
C179 O180 1.232 . S
O180 C179 1.232 . S
C181 O173 1.260 . S
C181 O174 1.257 . S
Zn182 O185 2.031 1_554 S
Zn182 O187 2.049 . S
Zn182 O192 2.067 . S
Zn183 O184 1.959 . S
Zn183 O186 1.987 1_556 S
Zn183 O188 1.998 1_556 S
Zn183 O191 1.944 . S
O184 Zn183 1.959 . S
O184 C189 1.254 . S
O185 Zn182 2.031 1_556 S
O185 C189 1.269 . S
O186 Zn183 1.987 1_554 S
O186 C193 1.271 . S
O187 Zn182 2.049 . S
O187 C195 1.260 . S
O188 Zn183 1.998 1_554 S
O188 C195 1.257 . S
C189 O184 1.254 . S
C189 O185 1.269 . S
C190 O191 1.249 . S
C190 O192 1.270 1_556 S
O191 Zn183 1.944 . S
O191 C190 1.249 . S
O192 Zn182 2.067 . S
O192 C190 1.270 1_554 S
C193 O186 1.271 . S
C193 O194 1.222 1_554 S
O194 C193 1.222 1_556 S
C195 O187 1.260 . S
C195 O188 1.257 . S
Zn196 O199 2.031 . S
Zn196 O201 2.049 . S
Zn196 O206 2.067 . S
Zn197 O198 1.962 . S
Zn197 O200 1.986 . S
Zn197 O202 1.996 . S
Zn197 O205 1.943 . S
O198 Zn197 1.962 . S
O198 C203 1.254 . S
O199 Zn196 2.031 . S
O199 C203 1.269 . S
O200 Zn197 1.986 . S
O200 C207 1.262 . S
O201 Zn196 2.049 . S
O201 C209 1.260 . S
O202 Zn197 1.996 . S
O202 C209 1.257 . S
C203 O198 1.254 . S
C203 O199 1.269 . S
C204 O205 1.249 . S
C204 O206 1.270 . S
O205 Zn197 1.943 . S
O205 C204 1.249 . S
O206 Zn196 2.067 . S
O206 C204 1.270 . S
C207 O200 1.262 . S
C207 O208 1.232 . S
O208 C207 1.232 . S
C209 O201 1.260 . S
C209 O202 1.257 . S
Zn210 O213 2.031 . S
Zn210 O215 2.049 . S
Zn210 O220 2.067 . S
Zn211 O212 1.962 . S
Zn211 O214 1.986 . S
Zn211 O216 1.996 . S
Zn211 O219 1.943 . S
O212 Zn211 1.962 . S
O212 C217 1.254 . S
O213 Zn210 2.031 . S
O213 C217 1.269 . S
O214 Zn211 1.986 . S
O214 C221 1.262 . S
O215 Zn210 2.049 . S
O215 C223 1.260 . S
O216 Zn211 1.996 . S
O216 C223 1.257 . S
C217 O212 1.254 . S
C217 O213 1.269 . S
C218 O219 1.249 . S
C218 O220 1.270 . S
O219 Zn211 1.943 . S
O219 C218 1.249 . S
O220 Zn210 2.067 . S
O220 C218 1.270 . S
C221 O214 1.262 . S
C221 O222 1.232 . S
O222 C221 1.232 . S
C223 O215 1.260 . S
C223 O216 1.257 . S
Zn224 O227 2.031 . S
Zn224 O229 2.049 . S
Zn224 O234 2.067 1_545 S
Zn225 O226 1.962 . S
Zn225 O228 1.986 . S
Zn225 O230 1.996 . S
Zn225 O233 1.943 . S
O226 Zn225 1.962 . S
O226 C231 1.254 . S
O227 Zn224 2.031 . S
O227 C231 1.269 . S
O228 Zn225 1.986 . S
O228 C235 1.262 . S
O229 Zn224 2.049 . S
O229 C237 1.260 . S
O230 Zn225 1.996 . S
O230 C237 1.257 . S
C231 O226 1.254 . S
C231 O227 1.269 . S
C232 O233 1.249 1_565 S
C232 O234 1.270 . S
O233 Zn225 1.943 . S
O233 C232 1.249 1_545 S
O234 Zn224 2.067 1_565 S
O234 C232 1.270 . S
C235 O228 1.262 . S
C235 O236 1.232 . S
O236 C235 1.232 . S
C237 O229 1.260 . S
C237 O230 1.257 . S
Zn238 O241 2.031 . S
Zn238 O243 2.049 . S
Zn238 O248 2.067 . S
Zn239 O240 1.962 . S
Zn239 O242 1.986 . S
Zn239 O244 1.996 . S
Zn239 O247 1.943 . S
O240 Zn239 1.962 . S
O240 C245 1.254 . S
O241 Zn238 2.031 . S
O241 C245 1.269 . S
O242 Zn239 1.986 . S
O242 C249 1.262 . S
O243 Zn238 2.049 . S
O243 C251 1.260 . S
O244 Zn239 1.996 . S
O244 C251 1.257 . S
C245 O240 1.254 . S
C245 O241 1.269 . S
C246 O247 1.249 . S
C246 O248 1.270 . S
O247 Zn239 1.943 . S
O247 C246 1.249 . S
O248 Zn238 2.067 . S
O248 C246 1.270 . S
C249 O242 1.262 . S
C249 O250 1.232 . S
O250 C249 1.232 . S
C251 O243 1.260 . S
C251 O244 1.257 . S
Zn252 O255 2.031 . S
Zn252 O257 2.049 . S
Zn252 O262 2.067 . S
Zn253 O254 1.962 . S
Zn253 O256 1.986 . S
Zn253 O258 1.996 . S
Zn253 O261 1.943 . S
O254 Zn253 1.962 . S
O254 C259 1.254 . S
O255 Zn252 2.031 . S
O255 C259 1.269 . S
O256 Zn253 1.986 . S
O256 C263 1.262 . S
O257 Zn252 2.049 . S
O257 C265 1.260 . S
O258 Zn253 1.996 . S
O258 C265 1.257 . S
C259 O254 1.254 . S
C259 O255 1.269 . S
C260 O261 1.249 . S
C260 O262 1.270 . S
O261 Zn253 1.943 . S
O261 C260 1.249 . S
O262 Zn252 2.067 . S
O262 C260 1.270 . S
C263 O256 1.262 . S
C263 O264 1.232 . S
O264 C263 1.232 . S
C265 O257 1.260 . S
C265 O258 1.257 . S
Zn266 O269 2.031 . S
Zn266 O271 2.049 . S
Zn266 O276 2.067 . S
Zn267 O268 1.962 . S
Zn267 O270 1.986 . S
Zn267 O272 1.996 . S
Zn267 O275 1.943 1_565 S
O268 Zn267 1.962 . S
O268 C273 1.254 1_565 S
O269 Zn266 2.031 . S
O269 C273 1.269 . S
O270 Zn267 1.986 . S
O270 C277 1.262 . S
O271 Zn266 2.049 . S
O271 C279 1.243 1_545 S
O272 Zn267 1.996 . S
O272 C279 1.267 . S
C273 O268 1.254 1_545 S
C273 O269 1.269 . S
C274 O275 1.249 . S
C274 O276 1.270 . S
O275 Zn267 1.943 1_545 S
O275 C274 1.249 . S
O276 Zn266 2.067 . S
O276 C274 1.270 . S
C277 O270 1.262 . S
C277 O278 1.232 . S
O278 C277 1.232 . S
C279 O271 1.243 1_565 S
C279 O272 1.267 . S
Zn280 O283 2.031 1_554 S
Zn280 O285 2.049 . S
Zn280 O290 2.067 . S
Zn281 O282 1.962 1_554 S
Zn281 O284 1.986 . S
Zn281 O286 1.996 . S
Zn281 O289 1.943 . S
O282 Zn281 1.962 1_556 S
O282 C287 1.254 . S
O283 Zn280 2.031 1_556 S
O283 C287 1.269 . S
O284 Zn281 1.986 . S
O284 C291 1.262 . S
O285 Zn280 2.049 . S
O285 C293 1.260 . S
O286 Zn281 1.996 . S
O286 C293 1.257 . S
C287 O282 1.254 . S
C287 O283 1.269 . S
C288 O289 1.249 . S
C288 O290 1.270 . S
O289 Zn281 1.943 . S
O289 C288 1.249 . S
O290 Zn280 2.067 . S
O290 C288 1.270 . S
C291 O284 1.262 . S
C291 O292 1.232 1_554 S
O292 C291 1.232 1_556 S
C293 O285 1.260 . S
C293 O286 1.257 . S
Zn294 O297 2.031 . S
Zn294 O299 2.049 . S
Zn294 O304 2.067 1_455 S
Zn295 O296 1.962 1_655 S
Zn295 O298 1.986 . S
Zn295 O300 1.996 1_655 S
Zn295 O303 1.943 . S
O296 Zn295 1.962 1_455 S
O296 C301 1.254 . S
O297 Zn294 2.031 . S
O297 C301 1.269 . S
O298 Zn295 1.986 . S
O298 C305 1.262 . S
O299 Zn294 2.049 . S
O299 C307 1.260 . S
O300 Zn295 1.996 1_455 S
O300 C307 1.257 . S
C301 O296 1.254 . S
C301 O297 1.269 . S
C302 O303 1.249 . S
C302 O304 1.270 . S
O303 Zn295 1.943 . S
O303 C302 1.249 . S
O304 Zn294 2.067 1_655 S
O304 C302 1.270 . S
C305 O298 1.262 . S
C305 O306 1.232 . S
O306 C305 1.232 . S
C307 O299 1.260 . S
C307 O300 1.257 . S
Zn308 O311 2.031 . S
Zn308 O313 2.049 . S
Zn308 O318 2.067 . S
Zn309 O310 1.962 . S
Zn309 O312 1.986 . S
Zn309 O314 1.996 . S
Zn309 O317 1.943 . S
O310 Zn309 1.962 . S
O310 C315 1.254 . S
O311 Zn308 2.031 . S
O311 C315 1.269 . S
O312 Zn309 1.986 . S
O312 C319 1.262 . S
O313 Zn308 2.049 . S
O313 C321 1.260 . S
O314 Zn309 1.996 . S
O314 C321 1.257 . S
C315 O310 1.254 . S
C315 O311 1.269 . S
C316 O317 1.249 . S
C316 O318 1.270 . S
O317 Zn309 1.943 . S
O317 C316 1.249 . S
O318 Zn308 2.067 . S
O318 C316 1.270 . S
C319 O312 1.262 . S
C319 O320 1.232 . S
O320 C319 1.232 . S
C321 O313 1.260 . S
C321 O314 1.257 . S
Zn322 O325 2.031 . S
Zn322 O327 2.049 . S
Zn322 O332 2.067 . S
Zn323 O324 1.962 . S
Zn323 O326 1.986 . S
Zn323 O328 1.996 . S
Zn323 O331 1.943 . S
O324 Zn323 1.962 . S
O324 C329 1.254 . S
O325 Zn322 2.031 . S
O325 C329 1.269 . S
O326 Zn323 1.986 . S
O326 C333 1.262 . S
O327 Zn322 2.049 . S
O327 C335 1.260 . S
O328 Zn323 1.996 . S
O328 C335 1.257 . S
C329 O324 1.254 . S
C329 O325 1.269 . S
C330 O331 1.249 . S
C330 O332 1.270 . S
O331 Zn323 1.943 . S
O331 C330 1.249 . S
O332 Zn322 2.067 . S
O332 C330 1.270 . S
C333 O326 1.262 . S
C333 O334 1.232 . S
O334 C333 1.232 . S
C335 O327 1.260 . S
C335 O328 1.257 . S
Pr336 C338 2.880 1_455 S
Pr336 O356 2.562 1_456 S
Pr336 O357 2.490 1_455 S
Pr336 O358 2.695 1_556 S
Pr336 O359 2.512 . S
Pr336 O361 2.437 1_556 S
Pr336 O364 2.436 1_556 S
Pr336 O366 2.438 1_556 S
Pr337 C347 2.880 . S
Pr337 O358 2.436 . S
Pr337 O360 2.438 . S
Pr337 O362 2.562 . S
Pr337 O363 2.490 . S
Pr337 O364 2.695 . S
Pr337 O365 2.512 . S
Pr337 O367 2.437 . S
C338 Pr336 2.880 1_655 S
C338 C339 1.491 . S
C338 O356 1.254 1_556 S
C338 O357 1.225 . S
C339 C338 1.491 . S
C339 C340 1.392 . S
C339 C344 1.356 . S
C340 C339 1.392 . S
C340 C341 1.368 . S
C340 H368 0.929 . S
C341 C340 1.368 . S
C341 C342 1.386 . S
C341 H369 0.929 . S
C342 C341 1.386 . S
C342 C343 1.373 . S
C343 C342 1.373 . S
C343 C344 1.409 . S
C343 H370 0.931 . S
C344 C339 1.356 . S
C344 C343 1.409 . S
C344 H371 0.930 1_556 S
C345 O358 1.270 1_556 S
C345 O359 1.248 . S
C346 O360 1.267 . S
C346 O361 1.278 . S
C347 Pr337 2.880 . S
C347 C348 1.491 . S
C347 O362 1.254 . S
C347 O363 1.225 . S
C348 C347 1.491 . S
C348 C349 1.392 . S
C348 C353 1.356 . S
C349 C348 1.392 . S
C349 C350 1.368 . S
C349 H372 0.929 . S
C350 C349 1.368 . S
C350 C351 1.386 . S
C350 H373 0.929 . S
C351 C350 1.386 . S
C351 C352 1.373 . S
C352 C351 1.373 . S
C352 C353 1.409 . S
C352 H374 0.931 . S
C353 C348 1.356 . S
C353 C352 1.409 . S
C353 H375 0.930 . S
C354 O364 1.270 . S
C354 O365 1.248 . S
C355 O366 1.267 . S
C355 O367 1.278 . S
O356 Pr336 2.562 1_654 S
O356 C338 1.254 1_554 S
O357 Pr336 2.490 1_655 S
O357 C338 1.225 . S
O358 Pr336 2.695 1_554 S
O358 Pr337 2.436 . S
O358 C345 1.270 1_554 S
O359 Pr336 2.512 . S
O359 C345 1.248 . S
O360 Pr337 2.438 . S
O360 C346 1.267 . S
O361 Pr336 2.437 1_554 S
O361 C346 1.278 . S
O362 Pr337 2.562 . S
O362 C347 1.254 . S
O363 Pr337 2.490 . S
O363 C347 1.225 . S
O364 Pr336 2.436 1_554 S
O364 Pr337 2.695 . S
O364 C354 1.270 . S
O365 Pr337 2.512 . S
O365 C354 1.248 . S
O366 Pr336 2.438 1_554 S
O366 C355 1.267 . S
O367 Pr337 2.437 . S
O367 C355 1.278 . S
H368 C340 0.929 . S
H369 C341 0.929 . S
H370 C343 0.931 . S
H371 C344 0.930 1_554 S
H372 C349 0.929 . S
H373 C350 0.929 . S
H374 C352 0.931 . S
H375 C353 0.930 . S
Pr376 C378 2.880 . S
Pr376 O396 2.562 . S
Pr376 O397 2.490 . S
Pr376 O398 2.695 . S
Pr376 O399 2.512 . S
Pr376 O401 2.437 . S
Pr376 O404 2.436 . S
Pr376 O406 2.438 . S
Pr377 C387 2.880 . S
Pr377 O398 2.436 . S
Pr377 O400 2.438 . S
Pr377 O402 2.562 . S
Pr377 O403 2.490 . S
Pr377 O404 2.695 . S
Pr377 O405 2.512 . S
Pr377 O407 2.437 . S
C378 Pr376 2.880 . S
C378 C379 1.491 1_565 S
C378 O396 1.254 . S
C378 O397 1.225 . S
C379 C378 1.491 1_545 S
C379 C380 1.392 . S
C379 C384 1.356 . S
C380 C379 1.392 . S
C380 C381 1.368 . S
C380 H408 0.929 . S
C381 C380 1.368 . S
C381 C382 1.386 . S
C381 H409 0.929 . S
C382 C381 1.386 . S
C382 C383 1.373 . S
C383 C382 1.373 . S
C383 C384 1.409 . S
C383 H410 0.931 . S
C384 C379 1.356 . S
C384 C383 1.409 . S
C384 H411 0.930 1_545 S
C385 O398 1.270 . S
C385 O399 1.248 . S
C386 O400 1.267 . S
C386 O401 1.278 . S
C387 Pr377 2.880 . S
C387 C388 1.491 . S
C387 O402 1.254 . S
C387 O403 1.225 . S
C388 C387 1.491 . S
C388 C389 1.392 . S
C388 C393 1.356 . S
C389 C388 1.392 . S
C389 C390 1.368 . S
C389 H412 0.929 . S
C390 C389 1.368 . S
C390 C391 1.386 . S
C390 H413 0.929 . S
C391 C390 1.386 . S
C391 C392 1.373 . S
C392 C391 1.373 . S
C392 C393 1.409 . S
C392 H414 0.931 . S
C393 C388 1.356 . S
C393 C392 1.409 . S
C393 H415 0.930 . S
C394 O404 1.270 . S
C394 O405 1.248 . S
C395 O406 1.267 . S
C395 O407 1.278 . S
O396 Pr376 2.562 . S
O396 C378 1.254 . S
O397 Pr376 2.490 . S
O397 C378 1.225 . S
O398 Pr376 2.695 . S
O398 Pr377 2.436 . S
O398 C385 1.270 . S
O399 Pr376 2.512 . S
O399 C385 1.248 . S
O400 Pr377 2.438 . S
O400 C386 1.267 . S
O401 Pr376 2.437 . S
O401 C386 1.278 . S
O402 Pr377 2.562 . S
O402 C387 1.254 . S
O403 Pr377 2.490 . S
O403 C387 1.225 . S
O404 Pr376 2.436 . S
O404 Pr377 2.695 . S
O404 C394 1.270 . S
O405 Pr377 2.512 . S
O405 C394 1.248 . S
O406 Pr376 2.438 . S
O406 C395 1.267 . S
O407 Pr377 2.437 . S
O407 C395 1.278 . S
H408 C380 0.929 . S
H409 C381 0.929 . S
H410 C383 0.931 . S
H411 C384 0.930 1_565 S
H412 C389 0.929 . S
H413 C390 0.929 . S
H414 C392 0.931 . S
H415 C393 0.930 . S
Pr416 C418 2.880 . S
Pr416 O436 2.562 . S
Pr416 O437 2.490 . S
Pr416 O438 2.695 . S
Pr416 O439 2.512 . S
Pr416 O441 2.437 . S
Pr416 O444 2.436 . S
Pr416 O446 2.438 . S
Pr417 C427 2.880 . S
Pr417 O438 2.436 . S
Pr417 O440 2.438 . S
Pr417 O442 2.562 . S
Pr417 O443 2.490 . S
Pr417 O444 2.695 . S
Pr417 O445 2.512 . S
Pr417 O447 2.437 . S
C418 Pr416 2.880 . S
C418 C419 1.491 . S
C418 O436 1.254 . S
C418 O437 1.225 . S
C419 C418 1.491 . S
C419 C420 1.392 . S
C419 C424 1.356 . S
C420 C419 1.392 . S
C420 C421 1.368 . S
C420 H448 0.929 . S
C421 C420 1.368 . S
C421 C422 1.386 . S
C421 H449 0.929 . S
C422 C421 1.386 . S
C422 C423 1.373 . S
C423 C422 1.373 . S
C423 C424 1.409 . S
C423 H450 0.930 . S
C424 C419 1.356 . S
C424 C423 1.409 . S
C424 H451 0.930 . S
C425 O438 1.270 . S
C425 O439 1.248 . S
C426 O440 1.267 . S
C426 O441 1.278 . S
C427 Pr417 2.880 . S
C427 C428 1.491 . S
C427 O442 1.254 . S
C427 O443 1.225 . S
C428 C427 1.491 . S
C428 C429 1.392 . S
C428 C433 1.356 . S
C429 C428 1.392 . S
C429 C430 1.368 . S
C429 H452 0.929 . S
C430 C429 1.368 . S
C430 C431 1.386 . S
C430 H453 0.929 . S
C431 C430 1.386 . S
C431 C432 1.373 . S
C432 C431 1.373 . S
C432 C433 1.409 . S
C432 H454 0.931 . S
C433 C428 1.356 . S
C433 C432 1.409 . S
C433 H455 0.930 . S
C434 O444 1.270 . S
C434 O445 1.248 . S
C435 O446 1.267 . S
C435 O447 1.278 . S
O436 Pr416 2.562 . S
O436 C418 1.254 . S
O437 Pr416 2.490 . S
O437 C418 1.225 . S
O438 Pr416 2.695 . S
O438 Pr417 2.436 . S
O438 C425 1.270 . S
O439 Pr416 2.512 . S
O439 C425 1.248 . S
O440 Pr417 2.438 . S
O440 C426 1.267 . S
O441 Pr416 2.437 . S
O441 C426 1.278 . S
O442 Pr417 2.562 . S
O442 C427 1.254 . S
O443 Pr417 2.490 . S
O443 C427 1.225 . S
O444 Pr416 2.436 . S
O444 Pr417 2.695 . S
O444 C434 1.270 . S
O445 Pr417 2.512 . S
O445 C434 1.248 . S
O446 Pr416 2.438 . S
O446 C435 1.267 . S
O447 Pr417 2.437 . S
O447 C435 1.278 . S
H448 C420 0.929 . S
H449 C421 0.929 . S
H450 C423 0.930 . S
H451 C424 0.930 . S
H452 C429 0.929 . S
H453 C430 0.929 . S
H454 C432 0.931 . S
H455 C433 0.930 . S
Pr456 C458 2.880 . S
Pr456 O476 2.562 . S
Pr456 O477 2.490 . S
Pr456 O478 2.695 . S
Pr456 O479 2.512 . S
Pr456 O481 2.437 . S
Pr456 O484 2.436 . S
Pr456 O486 2.438 . S
Pr457 C467 2.880 . S
Pr457 O478 2.436 . S
Pr457 O480 2.438 . S
Pr457 O482 2.562 . S
Pr457 O483 2.490 . S
Pr457 O484 2.695 . S
Pr457 O485 2.512 . S
Pr457 O487 2.437 . S
C458 Pr456 2.880 . S
C458 C459 1.491 . S
C458 O476 1.254 . S
C458 O477 1.225 . S
C459 C458 1.491 . S
C459 C460 1.392 . S
C459 C464 1.356 . S
C460 C459 1.392 . S
C460 C461 1.368 . S
C460 H488 0.929 . S
C461 C460 1.368 . S
C461 C462 1.386 . S
C461 H489 0.929 . S
C462 C461 1.386 . S
C462 C463 1.373 . S
C463 C462 1.373 . S
C463 C464 1.409 . S
C463 H490 0.931 . S
C464 C459 1.356 . S
C464 C463 1.409 . S
C464 H491 0.930 . S
C465 O478 1.270 . S
C465 O479 1.248 . S
C466 O480 1.267 . S
C466 O481 1.278 . S
C467 Pr457 2.880 . S
C467 C468 1.491 . S
C467 O482 1.254 . S
C467 O483 1.225 . S
C468 C467 1.491 . S
C468 C469 1.392 . S
C468 C473 1.356 . S
C469 C468 1.392 . S
C469 C470 1.368 . S
C469 H492 0.929 . S
C470 C469 1.368 . S
C470 C471 1.386 . S
C470 H493 0.929 . S
C471 C470 1.386 . S
C471 C472 1.373 . S
C472 C471 1.373 . S
C472 C473 1.409 . S
C472 H494 0.931 . S
C473 C468 1.356 . S
C473 C472 1.409 . S
C473 H495 0.930 . S
C474 O484 1.270 . S
C474 O485 1.248 . S
C475 O486 1.267 . S
C475 O487 1.278 . S
O476 Pr456 2.562 . S
O476 C458 1.254 . S
O477 Pr456 2.490 . S
O477 C458 1.225 . S
O478 Pr456 2.695 . S
O478 Pr457 2.436 . S
O478 C465 1.270 . S
O479 Pr456 2.512 . S
O479 C465 1.248 . S
O480 Pr457 2.438 . S
O480 C466 1.267 . S
O481 Pr456 2.437 . S
O481 C466 1.278 . S
O482 Pr457 2.562 . S
O482 C467 1.254 . S
O483 Pr457 2.490 . S
O483 C467 1.225 . S
O484 Pr456 2.436 . S
O484 Pr457 2.695 . S
O484 C474 1.270 . S
O485 Pr457 2.512 . S
O485 C474 1.248 . S
O486 Pr456 2.438 . S
O486 C475 1.267 . S
O487 Pr457 2.437 . S
O487 C475 1.278 . S
H488 C460 0.929 . S
H489 C461 0.929 . S
H490 C463 0.931 . S
H491 C464 0.930 . S
H492 C469 0.929 . S
H493 C470 0.929 . S
H494 C472 0.931 . S
H495 C473 0.930 . S
Pr496 C498 2.880 . S
Pr496 O516 2.562 . S
Pr496 O517 2.490 . S
Pr496 O518 2.695 . S
Pr496 O519 2.512 . S
Pr496 O521 2.437 . S
Pr496 O524 2.436 . S
Pr496 O526 2.438 . S
Pr497 C507 2.880 . S
Pr497 O518 2.436 . S
Pr497 O520 2.438 . S
Pr497 O522 2.562 . S
Pr497 O523 2.490 . S
Pr497 O524 2.695 . S
Pr497 O525 2.512 . S
Pr497 O527 2.437 . S
C498 Pr496 2.880 . S
C498 C499 1.491 . S
C498 O516 1.254 . S
C498 O517 1.225 . S
C499 C498 1.491 . S
C499 C500 1.392 . S
C499 C504 1.356 1_455 S
C500 C499 1.392 . S
C500 C501 1.368 . S
C500 H528 0.929 . S
C501 C500 1.368 . S
C501 C502 1.386 1_455 S
C501 H529 0.929 . S
C502 C501 1.386 1_655 S
C502 C503 1.373 . S
C503 C502 1.373 . S
C503 C504 1.409 . S
C503 H530 0.931 . S
C504 C499 1.356 1_655 S
C504 C503 1.409 . S
C504 H531 0.930 . S
C505 O518 1.270 . S
C505 O519 1.248 . S
C506 O520 1.267 . S
C506 O521 1.278 . S
C507 Pr497 2.880 . S
C507 C508 1.491 . S
C507 O522 1.254 . S
C507 O523 1.225 . S
C508 C507 1.491 . S
C508 C509 1.392 . S
C508 C513 1.356 . S
C509 C508 1.392 . S
C509 C510 1.368 . S
C509 H532 0.929 . S
C510 C509 1.368 . S
C510 C511 1.386 . S
C510 H533 0.929 . S
C511 C510 1.386 . S
C511 C512 1.373 . S
C512 C511 1.373 . S
C512 C513 1.409 . S
C512 H534 0.931 . S
C513 C508 1.356 . S
C513 C512 1.409 . S
C513 H535 0.930 . S
C514 O524 1.270 . S
C514 O525 1.248 . S
C515 O526 1.267 . S
C515 O527 1.278 . S
O516 Pr496 2.562 . S
O516 C498 1.254 . S
O517 Pr496 2.490 . S
O517 C498 1.225 . S
O518 Pr496 2.695 . S
O518 Pr497 2.436 . S
O518 C505 1.270 . S
O519 Pr496 2.512 . S
O519 C505 1.248 . S
O520 Pr497 2.438 . S
O520 C506 1.267 . S
O521 Pr496 2.437 . S
O521 C506 1.278 . S
O522 Pr497 2.562 . S
O522 C507 1.254 . S
O523 Pr497 2.490 . S
O523 C507 1.225 . S
O524 Pr496 2.436 . S
O524 Pr497 2.695 . S
O524 C514 1.270 . S
O525 Pr497 2.512 . S
O525 C514 1.248 . S
O526 Pr496 2.438 . S
O526 C515 1.267 . S
O527 Pr497 2.437 . S
O527 C515 1.278 . S
H528 C500 0.929 . S
H529 C501 0.929 . S
H530 C503 0.931 . S
H531 C504 0.930 . S
H532 C509 0.929 . S
H533 C510 0.929 . S
H534 C512 0.931 . S
H535 C513 0.930 . S
Pr536 C538 2.880 . S
Pr536 O556 2.562 . S
Pr536 O557 2.490 . S
Pr536 O558 2.695 . S
Pr536 O559 2.512 . S
Pr536 O561 2.437 . S
Pr536 O564 2.436 . S
Pr536 O566 2.438 . S
Pr537 C547 2.880 . S
Pr537 O558 2.436 . S
Pr537 O560 2.438 . S
Pr537 O562 2.562 . S
Pr537 O563 2.490 . S
Pr537 O564 2.695 . S
Pr537 O565 2.512 . S
Pr537 O567 2.437 . S
C538 Pr536 2.880 . S
C538 C539 1.491 . S
C538 O556 1.254 . S
C538 O557 1.225 . S
C539 C538 1.491 . S
C539 C540 1.392 . S
C539 C544 1.356 . S
C540 C539 1.392 . S
C540 C541 1.368 . S
C540 H568 0.929 . S
C541 C540 1.368 . S
C541 C542 1.386 . S
C541 H569 0.929 . S
C542 C541 1.386 . S
C542 C543 1.373 . S
C543 C542 1.373 . S
C543 C544 1.409 . S
C543 H570 0.931 . S
C544 C539 1.356 . S
C544 C543 1.409 . S
C544 H571 0.930 . S
C545 O558 1.270 . S
C545 O559 1.248 . S
C546 O560 1.267 . S
C546 O561 1.278 . S
C547 Pr537 2.880 . S
C547 C548 1.491 . S
C547 O562 1.254 . S
C547 O563 1.225 . S
C548 C547 1.491 . S
C548 C549 1.392 1_565 S
C548 C553 1.356 . S
C549 C548 1.392 1_545 S
C549 C550 1.368 . S
C549 H572 0.922 1_545 S
C550 C549 1.368 . S
C550 C551 1.386 . S
C550 H573 0.929 . S
C551 C550 1.386 . S
C551 C552 1.373 . S
C552 C551 1.373 . S
C552 C553 1.409 1_545 S
C552 H574 0.931 . S
C553 C548 1.356 . S
C553 C552 1.409 1_565 S
C553 H575 0.930 . S
C554 O564 1.270 . S
C554 O565 1.248 . S
C555 O566 1.267 . S
C555 O567 1.278 . S
O556 Pr536 2.562 . S
O556 C538 1.254 . S
O557 Pr536 2.490 . S
O557 C538 1.225 . S
O558 Pr536 2.695 . S
O558 Pr537 2.436 . S
O558 C545 1.270 . S
O559 Pr536 2.512 . S
O559 C545 1.248 . S
O560 Pr537 2.438 . S
O560 C546 1.267 . S
O561 Pr536 2.437 . S
O561 C546 1.278 . S
O562 Pr537 2.562 . S
O562 C547 1.254 . S
O563 Pr537 2.490 . S
O563 C547 1.225 . S
O564 Pr536 2.436 . S
O564 Pr537 2.695 . S
O564 C554 1.270 . S
O565 Pr537 2.512 . S
O565 C554 1.248 . S
O566 Pr536 2.438 . S
O566 C555 1.267 . S
O567 Pr537 2.437 . S
O567 C555 1.278 . S
H568 C540 0.929 . S
H569 C541 0.929 . S
H570 C543 0.931 . S
H571 C544 0.930 . S
H572 C549 0.922 1_565 S
H573 C550 0.929 . S
H574 C552 0.931 . S
H575 C553 0.930 . S
Pr576 C578 2.880 . S
Pr576 O596 2.562 . S
Pr576 O597 2.490 . S
Pr576 O598 2.695 . S
Pr576 O599 2.512 . S
Pr576 O601 2.437 . S
Pr576 O604 2.436 . S
Pr576 O606 2.438 . S
Pr577 C587 2.880 . S
Pr577 O598 2.436 1_556 S
Pr577 O600 2.438 . S
Pr577 O602 2.562 . S
Pr577 O603 2.490 . S
Pr577 O604 2.695 1_556 S
Pr577 O605 2.512 . S
Pr577 O607 2.437 . S
C578 Pr576 2.880 . S
C578 C579 1.491 . S
C578 O596 1.254 . S
C578 O597 1.225 . S
C579 C578 1.491 . S
C579 C580 1.392 . S
C579 C584 1.356 . S
C580 C579 1.392 . S
C580 C581 1.368 . S
C580 H608 0.929 . S
C581 C580 1.368 . S
C581 C582 1.386 . S
C581 H609 0.929 . S
C582 C581 1.386 . S
C582 C583 1.373 . S
C583 C582 1.373 . S
C583 C584 1.409 . S
C583 H610 0.931 . S
C584 C579 1.356 . S
C584 C583 1.409 . S
C584 H611 0.930 . S
C585 O598 1.270 . S
C585 O599 1.248 . S
C586 O600 1.267 1_554 S
C586 O601 1.278 . S
C587 Pr577 2.880 . S
C587 C588 1.491 . S
C587 O602 1.254 . S
C587 O603 1.225 . S
C588 C587 1.491 . S
C588 C589 1.392 . S
C588 C593 1.356 . S
C589 C588 1.392 . S
C589 C590 1.368 . S
C589 H612 0.929 . S
C590 C589 1.368 . S
C590 C591 1.386 . S
C590 H613 0.929 . S
C591 C590 1.386 . S
C591 C592 1.373 . S
C592 C591 1.373 . S
C592 C593 1.409 . S
C592 H614 0.931 . S
C593 C588 1.356 . S
C593 C592 1.409 . S
C593 H615 0.930 . S
C594 O604 1.270 . S
C594 O605 1.248 1_554 S
C595 O606 1.267 . S
C595 O607 1.278 1_554 S
O596 Pr576 2.562 . S
O596 C578 1.254 . S
O597 Pr576 2.490 . S
O597 C578 1.225 . S
O598 Pr576 2.695 . S
O598 Pr577 2.436 1_554 S
O598 C585 1.270 . S
O599 Pr576 2.512 . S
O599 C585 1.248 . S
O600 Pr577 2.438 . S
O600 C586 1.267 1_556 S
O601 Pr576 2.437 . S
O601 C586 1.278 . S
O602 Pr577 2.562 . S
O602 C587 1.254 . S
O603 Pr577 2.490 . S
O603 C587 1.225 . S
O604 Pr576 2.436 . S
O604 Pr577 2.695 1_554 S
O604 C594 1.270 . S
O605 Pr577 2.512 . S
O605 C594 1.248 1_556 S
O606 Pr576 2.438 . S
O606 C595 1.267 . S
O607 Pr577 2.437 . S
O607 C595 1.278 1_556 S
H608 C580 0.929 . S
H609 C581 0.929 . S
H610 C583 0.931 . S
H611 C584 0.930 . S
H612 C589 0.929 . S
H613 C590 0.929 . S
H614 C592 0.931 . S
H615 C593 0.930 . S
Pr616 C618 2.880 . S
Pr616 O636 2.562 . S
Pr616 O637 2.490 . S
Pr616 O638 2.695 . S
Pr616 O639 2.512 . S
Pr616 O641 2.437 . S
Pr616 O644 2.436 . S
Pr616 O646 2.438 . S
Pr617 C627 2.880 . S
Pr617 O638 2.436 . S
Pr617 O640 2.438 . S
Pr617 O642 2.562 . S
Pr617 O643 2.490 . S
Pr617 O644 2.695 . S
Pr617 O645 2.512 . S
Pr617 O647 2.437 . S
C618 Pr616 2.880 . S
C618 C619 1.491 . S
C618 O636 1.254 . S
C618 O637 1.225 . S
C619 C618 1.491 . S
C619 C620 1.392 . S
C619 C624 1.356 . S
C620 C619 1.392 . S
C620 C621 1.368 . S
C620 H648 0.929 . S
C621 C620 1.368 . S
C621 C622 1.386 . S
C621 H649 0.929 . S
C622 C621 1.386 . S
C622 C623 1.373 . S
C623 C622 1.373 . S
C623 C624 1.409 . S
C623 H650 0.931 . S
C624 C619 1.356 . S
C624 C623 1.409 . S
C624 H651 0.930 . S
C625 O638 1.270 . S
C625 O639 1.248 . S
C626 O640 1.267 . S
C626 O641 1.278 . S
C627 Pr617 2.880 . S
C627 C628 1.491 . S
C627 O642 1.254 . S
C627 O643 1.225 . S
C628 C627 1.491 . S
C628 C629 1.392 . S
C628 C633 1.356 . S
C629 C628 1.392 . S
C629 C630 1.368 . S
C629 H652 0.929 . S
C630 C629 1.368 . S
C630 C631 1.386 . S
C630 H653 0.929 . S
C631 C630 1.386 . S
C631 C632 1.373 . S
C632 C631 1.373 . S
C632 C633 1.409 . S
C632 H654 0.931 . S
C633 C628 1.356 . S
C633 C632 1.409 . S
C633 H655 0.930 . S
C634 O644 1.270 . S
C634 O645 1.248 . S
C635 O646 1.267 . S
C635 O647 1.278 . S
O636 Pr616 2.562 . S
O636 C618 1.254 . S
O637 Pr616 2.490 . S
O637 C618 1.225 . S
O638 Pr616 2.695 . S
O638 Pr617 2.436 . S
O638 C625 1.270 . S
O639 Pr616 2.512 . S
O639 C625 1.248 . S
O640 Pr617 2.438 . S
O640 C626 1.267 . S
O641 Pr616 2.437 . S
O641 C626 1.278 . S
O642 Pr617 2.562 . S
O642 C627 1.254 . S
O643 Pr617 2.490 . S
O643 C627 1.225 . S
O644 Pr616 2.436 . S
O644 Pr617 2.695 . S
O644 C634 1.270 . S
O645 Pr617 2.512 . S
O645 C634 1.248 . S
O646 Pr616 2.438 . S
O646 C635 1.267 . S
O647 Pr617 2.437 . S
O647 C635 1.278 . S
H648 C620 0.929 . S
H649 C621 0.929 . S
H650 C623 0.931 . S
H651 C624 0.930 . S
H652 C629 0.929 . S
H653 C630 0.929 . S
H654 C632 0.931 . S
H655 C633 0.930 . S
Pr656 C658 2.880 . S
Pr656 O676 2.562 . S
Pr656 O677 2.490 . S
Pr656 O678 2.695 1_556 S
Pr656 O679 2.512 . S
Pr656 O681 2.437 . S
Pr656 O684 2.436 1_556 S
Pr656 O686 2.438 1_556 S
Pr657 C667 2.880 . S
Pr657 O678 2.436 . S
Pr657 O680 2.438 . S
Pr657 O682 2.562 . S
Pr657 O683 2.490 . S
Pr657 O684 2.695 . S
Pr657 O685 2.512 . S
Pr657 O687 2.437 . S
C658 Pr656 2.880 . S
C658 C659 1.491 . S
C658 O676 1.254 . S
C658 O677 1.225 . S
C659 C658 1.491 . S
C659 C660 1.392 . S
C659 C664 1.356 . S
C660 C659 1.392 . S
C660 C661 1.368 . S
C660 H688 0.929 . S
C661 C660 1.368 . S
C661 C662 1.386 . S
C661 H689 0.929 . S
C662 C661 1.386 . S
C662 C663 1.373 . S
C663 C662 1.373 . S
C663 C664 1.409 . S
C663 H690 0.931 . S
C664 C659 1.356 . S
C664 C663 1.409 . S
C664 H691 0.930 . S
C665 O678 1.270 . S
C665 O679 1.248 1_554 S
C666 O680 1.267 1_556 S
C666 O681 1.278 . S
C667 Pr657 2.880 . S
C667 C668 1.491 . S
C667 O682 1.254 . S
C667 O683 1.225 . S
C668 C667 1.491 . S
C668 C669 1.392 . S
C668 C673 1.356 . S
C669 C668 1.392 . S
C669 C670 1.368 . S
C669 H692 0.929 . S
C670 C669 1.368 . S
C670 C671 1.386 . S
C670 H693 0.929 . S
C671 C670 1.386 . S
C671 C672 1.373 . S
C672 C671 1.373 . S
C672 C673 1.409 . S
C672 H694 0.931 . S
C673 C668 1.356 . S
C673 C672 1.409 . S
C673 H695 0.930 . S
C674 O684 1.270 . S
C674 O685 1.248 . S
C675 O686 1.267 . S
C675 O687 1.278 . S
O676 Pr656 2.562 . S
O676 C658 1.254 . S
O677 Pr656 2.490 . S
O677 C658 1.225 . S
O678 Pr656 2.695 1_554 S
O678 Pr657 2.436 . S
O678 C665 1.270 . S
O679 Pr656 2.512 . S
O679 C665 1.248 1_556 S
O680 Pr657 2.438 . S
O680 C666 1.267 1_554 S
O681 Pr656 2.437 . S
O681 C666 1.278 . S
O682 Pr657 2.562 . S
O682 C667 1.254 . S
O683 Pr657 2.490 . S
O683 C667 1.225 . S
O684 Pr656 2.436 1_554 S
O684 Pr657 2.695 . S
O684 C674 1.270 . S
O685 Pr657 2.512 . S
O685 C674 1.248 . S
O686 Pr656 2.438 1_554 S
O686 C675 1.267 . S
O687 Pr657 2.437 . S
O687 C675 1.278 . S
H688 C660 0.929 . S
H689 C661 0.929 . S
H690 C663 0.931 . S
H691 C664 0.930 . S
H692 C669 0.929 . S
H693 C670 0.929 . S
H694 C672 0.931 . S
H695 C673 0.930 . S
Pr696 C698 2.880 . S
Pr696 O716 2.562 . S
Pr696 O717 2.490 . S
Pr696 O718 2.695 . S
Pr696 O719 2.512 . S
Pr696 O721 2.437 . S
Pr696 O724 2.436 . S
Pr696 O726 2.438 . S
Pr697 C707 2.880 . S
Pr697 O718 2.436 . S
Pr697 O720 2.438 . S
Pr697 O722 2.562 . S
Pr697 O723 2.490 . S
Pr697 O724 2.695 . S
Pr697 O725 2.512 . S
Pr697 O727 2.437 . S
C698 Pr696 2.880 . S
C698 C699 1.491 . S
C698 O716 1.254 . S
C698 O717 1.225 . S
C699 C698 1.491 . S
C699 C700 1.392 . S
C699 C704 1.356 . S
C700 C699 1.392 . S
C700 C701 1.368 . S
C700 H728 0.929 . S
C701 C700 1.368 . S
C701 C702 1.386 . S
C701 H729 0.929 . S
C702 C701 1.386 . S
C702 C703 1.373 . S
C703 C702 1.373 . S
C703 C704 1.409 . S
C703 H730 0.931 . S
C704 C699 1.356 . S
C704 C703 1.409 . S
C704 H731 0.930 . S
C705 O718 1.270 . S
C705 O719 1.248 . S
C706 O720 1.267 . S
C706 O721 1.278 . S
C707 Pr697 2.880 . S
C707 C708 1.491 . S
C707 O722 1.254 . S
C707 O723 1.225 . S
C708 C707 1.491 . S
C708 C709 1.392 . S
C708 C713 1.356 . S
C709 C708 1.392 . S
C709 C710 1.368 . S
C709 H732 0.929 . S
C710 C709 1.368 . S
C710 C711 1.386 . S
C710 H733 0.929 . S
C711 C710 1.386 . S
C711 C712 1.373 . S
C712 C711 1.373 . S
C712 C713 1.409 . S
C712 H734 0.931 . S
C713 C708 1.356 . S
C713 C712 1.409 . S
C713 H735 0.930 . S
C714 O724 1.270 . S
C714 O725 1.248 . S
C715 O726 1.267 . S
C715 O727 1.278 . S
O716 Pr696 2.562 . S
O716 C698 1.254 . S
O717 Pr696 2.490 . S
O717 C698 1.225 . S
O718 Pr696 2.695 . S
O718 Pr697 2.436 . S
O718 C705 1.270 . S
O719 Pr696 2.512 . S
O719 C705 1.248 . S
O720 Pr697 2.438 . S
O720 C706 1.267 . S
O721 Pr696 2.437 . S
O721 C706 1.278 . S
O722 Pr697 2.562 . S
O722 C707 1.254 . S
O723 Pr697 2.490 . S
O723 C707 1.225 . S
O724 Pr696 2.436 . S
O724 Pr697 2.695 . S
O724 C714 1.270 . S
O725 Pr697 2.512 . S
O725 C714 1.248 . S
O726 Pr696 2.438 . S
O726 C715 1.267 . S
O727 Pr697 2.437 . S
O727 C715 1.278 . S
H728 C700 0.929 . S
H729 C701 0.929 . S
H730 C703 0.931 . S
H731 C704 0.930 . S
H732 C709 0.929 . S
H733 C710 0.929 . S
H734 C712 0.931 . S
H735 C713 0.930 . S
Pr736 C738 2.880 . S
Pr736 O756 2.562 . S
Pr736 O757 2.490 . S
Pr736 O758 2.695 . S
Pr736 O759 2.512 . S
Pr736 O761 2.437 . S
Pr736 O764 2.436 . S
Pr736 O766 2.438 . S
Pr737 C747 2.880 . S
Pr737 O758 2.436 . S
Pr737 O760 2.440 1_455 S
Pr737 O762 2.562 . S
Pr737 O763 2.490 . S
Pr737 O764 2.695 . S
Pr737 O765 2.512 . S
Pr737 O767 2.437 . S
C738 Pr736 2.880 . S
C738 C739 1.491 . S
C738 O756 1.254 . S
C738 O757 1.225 . S
C739 C738 1.491 . S
C739 C740 1.392 . S
C739 C744 1.356 . S
C740 C739 1.392 . S
C740 C741 1.368 . S
C740 H768 0.929 . S
C741 C740 1.368 . S
C741 C742 1.386 . S
C741 H769 0.929 . S
C742 C741 1.386 . S
C742 C743 1.373 . S
C743 C742 1.373 . S
C743 C744 1.409 . S
C743 H770 0.931 1_455 S
C744 C739 1.356 . S
C744 C743 1.409 . S
C744 H771 0.930 . S
C745 O758 1.270 . S
C745 O759 1.248 . S
C746 O760 1.266 . S
C746 O761 1.278 1_655 S
C747 Pr737 2.880 . S
C747 C748 1.491 . S
C747 O762 1.254 . S
C747 O763 1.225 . S
C748 C747 1.491 . S
C748 C749 1.392 . S
C748 C753 1.356 . S
C749 C748 1.392 . S
C749 C750 1.368 . S
C749 H772 0.929 . S
C750 C749 1.368 . S
C750 C751 1.386 . S
C750 H773 0.929 . S
C751 C750 1.386 . S
C751 C752 1.373 . S
C752 C751 1.373 . S
C752 C753 1.409 . S
C752 H774 0.931 . S
C753 C748 1.356 . S
C753 C752 1.409 . S
C753 H775 0.930 . S
C754 O764 1.270 . S
C754 O765 1.248 . S
C755 O766 1.267 . S
C755 O767 1.278 . S
O756 Pr736 2.562 . S
O756 C738 1.254 . S
O757 Pr736 2.490 . S
O757 C738 1.225 . S
O758 Pr736 2.695 . S
O758 Pr737 2.436 . S
O758 C745 1.270 . S
O759 Pr736 2.512 . S
O759 C745 1.248 . S
O760 Pr737 2.440 1_655 S
O760 C746 1.266 . S
O761 Pr736 2.437 . S
O761 C746 1.278 1_455 S
O762 Pr737 2.562 . S
O762 C747 1.254 . S
O763 Pr737 2.490 . S
O763 C747 1.225 . S
O764 Pr736 2.436 . S
O764 Pr737 2.695 . S
O764 C754 1.270 . S
O765 Pr737 2.512 . S
O765 C754 1.248 . S
O766 Pr736 2.438 . S
O766 C755 1.267 . S
O767 Pr737 2.437 . S
O767 C755 1.278 . S
H768 C740 0.929 . S
H769 C741 0.929 . S
H770 C743 0.931 1_655 S
H771 C744 0.930 . S
H772 C749 0.929 . S
H773 C750 0.929 . S
H774 C752 0.931 . S
H775 C753 0.930 . S
Pr776 C778 2.880 . S
Pr776 O796 2.562 . S
Pr776 O797 2.490 . S
Pr776 O798 2.695 . S
Pr776 O799 2.512 . S
Pr776 O801 2.437 . S
Pr776 O804 2.436 . S
Pr776 O806 2.438 . S
Pr777 C787 2.880 . S
Pr777 O798 2.436 . S
Pr777 O800 2.438 . S
Pr777 O802 2.562 . S
Pr777 O803 2.490 . S
Pr777 O804 2.695 . S
Pr777 O805 2.512 . S
Pr777 O807 2.437 . S
C778 Pr776 2.880 . S
C778 C779 1.491 . S
C778 O796 1.254 . S
C778 O797 1.225 . S
C779 C778 1.491 . S
C779 C780 1.392 . S
C779 C784 1.356 . S
C780 C779 1.392 . S
C780 C781 1.368 . S
C780 H808 0.929 . S
C781 C780 1.368 . S
C781 C782 1.386 . S
C781 H809 0.929 . S
C782 C781 1.386 . S
C782 C783 1.373 . S
C783 C782 1.373 . S
C783 C784 1.409 . S
C783 H810 0.931 . S
C784 C779 1.356 . S
C784 C783 1.409 . S
C784 H811 0.930 . S
C785 O798 1.270 . S
C785 O799 1.248 . S
C786 O800 1.267 . S
C786 O801 1.278 . S
C787 Pr777 2.880 . S
C787 C788 1.491 . S
C787 O802 1.254 . S
C787 O803 1.225 . S
C788 C787 1.491 . S
C788 C789 1.392 . S
C788 C793 1.356 . S
C789 C788 1.392 . S
C789 C790 1.368 . S
C789 H812 0.929 . S
C790 C789 1.368 . S
C790 C791 1.386 . S
C790 H813 0.929 . S
C791 C790 1.386 . S
C791 C792 1.373 . S
C792 C791 1.373 . S
C792 C793 1.409 . S
C792 H814 0.931 . S
C793 C788 1.356 . S
C793 C792 1.409 . S
C793 H815 0.930 . S
C794 O804 1.270 . S
C794 O805 1.248 . S
C795 O806 1.267 . S
C795 O807 1.278 . S
O796 Pr776 2.562 . S
O796 C778 1.254 . S
O797 Pr776 2.490 . S
O797 C778 1.225 . S
O798 Pr776 2.695 . S
O798 Pr777 2.436 . S
O798 C785 1.270 . S
O799 Pr776 2.512 . S
O799 C785 1.248 . S
O800 Pr777 2.438 . S
O800 C786 1.267 . S
O801 Pr776 2.437 . S
O801 C786 1.278 . S
O802 Pr777 2.562 . S
O802 C787 1.254 . S
O803 Pr777 2.490 . S
O803 C787 1.225 . S
O804 Pr776 2.436 . S
O804 Pr777 2.695 . S
O804 C794 1.270 . S
O805 Pr777 2.512 . S
O805 C794 1.248 . S
O806 Pr776 2.438 . S
O806 C795 1.267 . S
O807 Pr777 2.437 . S
O807 C795 1.278 . S
H808 C780 0.929 . S
H809 C781 0.929 . S
H810 C783 0.931 . S
H811 C784 0.930 . S
H812 C789 0.929 . S
H813 C790 0.929 . S
H814 C792 0.931 . S
H815 C793 0.930 . S
Pr816 C818 2.880 . S
Pr816 O836 2.562 . S
Pr816 O837 2.490 . S
Pr816 O838 2.695 . S
Pr816 O839 2.512 . S
Pr816 O841 2.437 . S
Pr816 O844 2.436 . S
Pr816 O846 2.438 . S
Pr817 C827 2.880 . S
Pr817 O838 2.436 . S
Pr817 O840 2.438 . S
Pr817 O842 2.562 . S
Pr817 O843 2.490 . S
Pr817 O844 2.695 . S
Pr817 O845 2.512 . S
Pr817 O847 2.437 . S
C818 Pr816 2.880 . S
C818 C819 1.491 . S
C818 O836 1.254 . S
C818 O837 1.225 . S
C819 C818 1.491 . S
C819 C820 1.392 . S
C819 C824 1.356 . S
C820 C819 1.392 . S
C820 C821 1.368 . S
C820 H848 0.929 . S
C821 C820 1.368 . S
C821 C822 1.386 . S
C821 H849 0.929 . S
C822 C821 1.386 . S
C822 C823 1.373 . S
C823 C822 1.373 . S
C823 C824 1.409 . S
C823 H850 0.931 . S
C824 C819 1.356 . S
C824 C823 1.409 . S
C824 H851 0.930 . S
C825 O838 1.270 . S
C825 O839 1.248 . S
C826 O840 1.267 . S
C826 O841 1.278 . S
C827 Pr817 2.880 . S
C827 C828 1.491 . S
C827 O842 1.254 . S
C827 O843 1.225 . S
C828 C827 1.491 . S
C828 C829 1.392 . S
C828 C833 1.356 . S
C829 C828 1.392 . S
C829 C830 1.368 . S
C829 H852 0.929 . S
C830 C829 1.368 . S
C830 C831 1.386 . S
C830 H853 0.929 . S
C831 C830 1.386 . S
C831 C832 1.373 . S
C832 C831 1.373 . S
C832 C833 1.409 . S
C832 H854 0.931 . S
C833 C828 1.356 . S
C833 C832 1.409 . S
C833 H855 0.930 . S
C834 O844 1.270 . S
C834 O845 1.248 . S
C835 O846 1.267 . S
C835 O847 1.278 . S
O836 Pr816 2.562 . S
O836 C818 1.254 . S
O837 Pr816 2.490 . S
O837 C818 1.225 . S
O838 Pr816 2.695 . S
O838 Pr817 2.436 . S
O838 C825 1.270 . S
O839 Pr816 2.512 . S
O839 C825 1.248 . S
O840 Pr817 2.438 . S
O840 C826 1.267 . S
O841 Pr816 2.437 . S
O841 C826 1.278 . S
O842 Pr817 2.562 . S
O842 C827 1.254 . S
O843 Pr817 2.490 . S
O843 C827 1.225 . S
O844 Pr816 2.436 . S
O844 Pr817 2.695 . S
O844 C834 1.270 . S
O845 Pr817 2.512 . S
O845 C834 1.248 . S
O846 Pr816 2.438 . S
O846 C835 1.267 . S
O847 Pr817 2.437 . S
O847 C835 1.278 . S
H848 C820 0.929 . S
H849 C821 0.929 . S
H850 C823 0.931 . S
H851 C824 0.930 . S
H852 C829 0.929 . S
H853 C830 0.929 . S
H854 C832 0.931 . S
H855 C833 0.930 . S
Pr856 C858 2.880 . S
Pr856 O876 2.562 . S
Pr856 O877 2.490 . S
Pr856 O878 2.695 . S
Pr856 O879 2.512 . S
Pr856 O881 2.437 . S
Pr856 O884 2.436 . S
Pr856 O886 2.438 . S
Pr857 C867 2.880 . S
Pr857 O878 2.436 . S
Pr857 O880 2.438 . S
Pr857 O882 2.562 . S
Pr857 O883 2.490 . S
Pr857 O884 2.695 . S
Pr857 O885 2.512 . S
Pr857 O887 2.437 . S
C858 Pr856 2.880 . S
C858 C859 1.491 . S
C858 O876 1.254 . S
C858 O877 1.225 . S
C859 C858 1.491 . S
C859 C860 1.392 . S
C859 C864 1.356 . S
C860 C859 1.392 . S
C860 C861 1.368 . S
C860 H888 0.929 . S
C861 C860 1.368 . S
C861 C862 1.386 . S
C861 H889 0.929 . S
C862 C861 1.386 . S
C862 C863 1.373 . S
C863 C862 1.373 . S
C863 C864 1.409 . S
C863 H890 0.931 . S
C864 C859 1.356 . S
C864 C863 1.409 . S
C864 H891 0.930 . S
C865 O878 1.270 . S
C865 O879 1.248 . S
C866 O880 1.267 . S
C866 O881 1.278 . S
C867 Pr857 2.880 . S
C867 C868 1.491 . S
C867 O882 1.254 . S
C867 O883 1.225 . S
C868 C867 1.491 . S
C868 C869 1.392 . S
C868 C873 1.356 . S
C869 C868 1.392 . S
C869 C870 1.368 . S
C869 H892 0.929 . S
C870 C869 1.368 . S
C870 C871 1.386 . S
C870 H893 0.929 . S
C871 C870 1.386 . S
C871 C872 1.373 . S
C872 C871 1.373 . S
C872 C873 1.409 . S
C872 H894 0.931 . S
C873 C868 1.356 . S
C873 C872 1.409 . S
C873 H895 0.930 . S
C874 O884 1.270 . S
C874 O885 1.248 . S
C875 O886 1.267 . S
C875 O887 1.278 . S
O876 Pr856 2.562 . S
O876 C858 1.254 . S
O877 Pr856 2.490 . S
O877 C858 1.225 . S
O878 Pr856 2.695 . S
O878 Pr857 2.436 . S
O878 C865 1.270 . S
O879 Pr856 2.512 . S
O879 C865 1.248 . S
O880 Pr857 2.438 . S
O880 C866 1.267 . S
O881 Pr856 2.437 . S
O881 C866 1.278 . S
O882 Pr857 2.562 . S
O882 C867 1.254 . S
O883 Pr857 2.490 . S
O883 C867 1.225 . S
O884 Pr856 2.436 . S
O884 Pr857 2.695 . S
O884 C874 1.270 . S
O885 Pr857 2.512 . S
O885 C874 1.248 . S
O886 Pr856 2.438 . S
O886 C875 1.267 . S
O887 Pr857 2.437 . S
O887 C875 1.278 . S
H888 C860 0.929 . S
H889 C861 0.929 . S
H890 C863 0.931 . S
H891 C864 0.930 . S
H892 C869 0.929 . S
H893 C870 0.929 . S
H894 C872 0.931 . S
H895 C873 0.930 . S
Pr896 C898 2.880 . S
Pr896 O916 2.562 . S
Pr896 O917 2.490 . S
Pr896 O918 2.695 . S
Pr896 O919 2.512 . S
Pr896 O921 2.437 . S
Pr896 O924 2.436 . S
Pr896 O926 2.438 . S
Pr897 C907 2.880 . S
Pr897 O918 2.436 . S
Pr897 O920 2.438 . S
Pr897 O922 2.562 . S
Pr897 O923 2.490 . S
Pr897 O924 2.695 . S
Pr897 O925 2.512 . S
Pr897 O927 2.437 . S
C898 Pr896 2.880 . S
C898 C899 1.491 . S
C898 O916 1.254 . S
C898 O917 1.225 . S
C899 C898 1.491 . S
C899 C900 1.392 . S
C899 C904 1.356 . S
C900 C899 1.392 . S
C900 C901 1.368 . S
C900 H928 0.929 . S
C901 C900 1.368 . S
C901 C902 1.386 . S
C901 H929 0.929 . S
C902 C901 1.386 . S
C902 C903 1.373 . S
C903 C902 1.373 . S
C903 C904 1.409 . S
C903 H930 0.931 . S
C904 C899 1.356 . S
C904 C903 1.409 . S
C904 H931 0.930 . S
C905 O918 1.270 . S
C905 O919 1.248 . S
C906 O920 1.267 . S
C906 O921 1.278 . S
C907 Pr897 2.880 . S
C907 C908 1.491 . S
C907 O922 1.254 . S
C907 O923 1.225 . S
C908 C907 1.491 . S
C908 C909 1.392 . S
C908 C913 1.356 . S
C909 C908 1.392 . S
C909 C910 1.368 . S
C909 H932 0.929 . S
C910 C909 1.368 . S
C910 C911 1.386 . S
C910 H933 0.929 . S
C911 C910 1.386 . S
C911 C912 1.373 . S
C912 C911 1.373 . S
C912 C913 1.409 . S
C912 H934 0.931 . S
C913 C908 1.356 . S
C913 C912 1.409 . S
C913 H935 0.930 . S
C914 O924 1.270 . S
C914 O925 1.248 . S
C915 O926 1.267 . S
C915 O927 1.278 . S
O916 Pr896 2.562 . S
O916 C898 1.254 . S
O917 Pr896 2.490 . S
O917 C898 1.225 . S
O918 Pr896 2.695 . S
O918 Pr897 2.436 . S
O918 C905 1.270 . S
O919 Pr896 2.512 . S
O919 C905 1.248 . S
O920 Pr897 2.438 . S
O920 C906 1.267 . S
O921 Pr896 2.437 . S
O921 C906 1.278 . S
O922 Pr897 2.562 . S
O922 C907 1.254 . S
O923 Pr897 2.490 . S
O923 C907 1.225 . S
O924 Pr896 2.436 . S
O924 Pr897 2.695 . S
O924 C914 1.270 . S
O925 Pr897 2.512 . S
O925 C914 1.248 . S
O926 Pr896 2.438 . S
O926 C915 1.267 . S
O927 Pr897 2.437 . S
O927 C915 1.278 . S
H928 C900 0.929 . S
H929 C901 0.929 . S
H930 C903 0.931 . S
H931 C904 0.930 . S
H932 C909 0.929 . S
H933 C910 0.929 . S
H934 C912 0.931 . S
H935 C913 0.930 . S
Pr936 C938 2.880 . S
Pr936 O956 2.562 . S
Pr936 O957 2.490 1_554 S
Pr936 O958 2.695 1_554 S
Pr936 O959 2.512 1_554 S
Pr936 O961 2.437 1_554 S
Pr936 O964 2.436 . S
Pr936 O966 2.438 . S
Pr937 C947 2.880 1_455 S
Pr937 O958 2.436 1_554 S
Pr937 O960 2.449 . S
Pr937 O962 2.562 1_455 S
Pr937 O963 2.490 1_455 S
Pr937 O964 2.695 . S
Pr937 O965 2.512 . S
Pr937 O967 2.437 . S
C938 Pr936 2.880 . S
C938 C939 1.491 1_554 S
C938 O956 1.254 . S
C938 O957 1.225 1_554 S
C939 C938 1.491 1_556 S
C939 C940 1.392 . S
C939 C944 1.356 1_556 S
C940 C939 1.392 . S
C940 C941 1.368 . S
C940 H968 0.929 . S
C941 C940 1.368 . S
C941 C942 1.386 . S
C941 H969 0.929 . S
C942 C941 1.386 . S
C942 C943 1.373 1_556 S
C943 C942 1.373 1_554 S
C943 C944 1.409 . S
C943 H970 0.931 . S
C944 C939 1.356 1_554 S
C944 C943 1.409 . S
C944 H971 0.930 . S
C945 O958 1.270 . S
C945 O959 1.248 . S
C946 O960 1.255 1_556 S
C946 O961 1.278 . S
C947 Pr937 2.880 1_655 S
C947 C948 1.491 . S
C947 O962 1.254 . S
C947 O963 1.225 . S
C948 C947 1.491 . S
C948 C949 1.392 . S
C948 C953 1.356 . S
C949 C948 1.392 . S
C949 C950 1.368 . S
C949 H972 0.929 . S
C950 C949 1.368 . S
C950 C951 1.386 . S
C950 H973 0.929 . S
C951 C950 1.386 . S
C951 C952 1.373 . S
C952 C951 1.373 . S
C952 C953 1.409 . S
C952 H974 0.931 . S
C953 C948 1.356 . S
C953 C952 1.409 . S
C953 H975 0.930 . S
C954 O964 1.270 . S
C954 O965 1.248 . S
C955 O966 1.267 . S
C955 O967 1.278 . S
O956 Pr936 2.562 . S
O956 C938 1.254 . S
O957 Pr936 2.490 1_556 S
O957 C938 1.225 1_556 S
O958 Pr936 2.695 1_556 S
O958 Pr937 2.436 1_556 S
O958 C945 1.270 . S
O959 Pr936 2.512 1_556 S
O959 C945 1.248 . S
O960 Pr937 2.449 . S
O960 C946 1.255 1_554 S
O961 Pr936 2.437 1_556 S
O961 C946 1.278 . S
O962 Pr937 2.562 1_655 S
O962 C947 1.254 . S
O963 Pr937 2.490 1_655 S
O963 C947 1.225 . S
O964 Pr936 2.436 . S
O964 Pr937 2.695 . S
O964 C954 1.270 . S
O965 Pr937 2.512 . S
O965 C954 1.248 . S
O966 Pr936 2.438 . S
O966 C955 1.267 . S
O967 Pr937 2.437 . S
O967 C955 1.278 . S
H968 C940 0.929 . S
H969 C941 0.929 . S
H970 C943 0.931 . S
H971 C944 0.930 . S
H972 C949 0.929 . S
H973 C950 0.929 . S
H974 C952 0.931 . S
H975 C953 0.930 . S
C976 C977 1.387 . S
C976 H980 0.950 . S
C976 C985 1.390 . S
C977 C976 1.387 . S
C977 C979 1.387 . S
H978 C985 0.950 . S
C979 C977 1.387 . S
C979 C981 1.390 1_556 S
C979 H983 0.950 1_455 S
H980 C976 0.950 . S
C981 C979 1.390 1_554 S
C981 C982 1.387 . S
C981 H984 0.950 . S
C982 C981 1.387 . S
C982 C985 1.387 1_554 S
H983 C979 0.950 1_655 S
H984 C981 0.950 . S
C985 C976 1.390 . S
C985 H978 0.950 . S
C985 C982 1.387 1_556 S
C986 C987 1.387 . S
C986 H990 0.950 . S
C986 C995 1.390 . S
C987 C986 1.387 . S
C987 C989 1.387 . S
H988 C995 0.950 . S
C989 C987 1.387 . S
C989 C991 1.390 . S
C989 H993 0.950 . S
H990 C986 0.950 . S
C991 C989 1.390 . S
C991 C992 1.387 . S
C991 H994 0.950 . S
C992 C991 1.387 . S
C992 C995 1.387 . S
H993 C989 0.950 . S
H994 C991 0.950 . S
C995 C986 1.390 . S
C995 H988 0.950 . S
C995 C992 1.387 . S
C996 C997 1.387 . S
C996 H1000 0.950 . S
C996 C1005 1.390 . S
C997 C996 1.387 . S
C997 C999 1.387 . S
H998 C1005 0.950 . S
C999 C997 1.387 . S
C999 C1001 1.390 . S
C999 H1003 0.950 . S
H1000 C996 0.950 . S
C1001 C999 1.390 . S
C1001 C1002 1.387 . S
C1001 H1004 0.950 1_565 S
C1002 C1001 1.387 . S
C1002 C1005 1.387 . S
H1003 C999 0.950 . S
H1004 C1001 0.950 1_545 S
C1005 C996 1.390 . S
C1005 H998 0.950 . S
C1005 C1002 1.387 . S
C1006 C1007 1.387 . S
C1006 H1010 0.950 . S
C1006 C1015 1.390 . S
C1007 C1006 1.387 . S
C1007 C1009 1.387 . S
H1008 C1015 0.950 . S
C1009 C1007 1.387 . S
C1009 C1011 1.390 . S
C1009 H1013 0.950 . S
H1010 C1006 0.950 . S
C1011 C1009 1.390 . S
C1011 C1012 1.387 . S
C1011 H1014 0.950 . S
C1012 C1011 1.387 . S
C1012 C1015 1.387 . S
H1013 C1009 0.950 . S
H1014 C1011 0.950 . S
C1015 C1006 1.390 . S
C1015 H1008 0.950 . S
C1015 C1012 1.387 . S
C1016 C1017 1.387 . S
C1016 H1020 0.950 . S
C1016 C1025 1.390 1_565 S
C1017 C1016 1.387 . S
C1017 C1019 1.387 . S
H1018 C1025 0.950 . S
C1019 C1017 1.387 . S
C1019 C1021 1.369 1_565 S
C1019 H1023 0.950 . S
H1020 C1016 0.950 . S
C1021 C1019 1.369 1_545 S
C1021 C1022 1.403 . S
C1021 H1024 0.956 . S
C1022 C1021 1.403 . S
C1022 C1025 1.387 . S
H1023 C1019 0.950 . S
H1024 C1021 0.956 . S
C1025 C1016 1.390 1_545 S
C1025 H1018 0.950 . S
C1025 C1022 1.387 . S
C1026 C1027 1.387 . S
C1026 H1030 0.950 . S
C1026 C1035 1.390 . S
C1027 C1026 1.387 . S
C1027 C1029 1.387 . S
H1028 C1035 0.950 . S
C1029 C1027 1.387 . S
C1029 C1031 1.390 . S
C1029 H1033 0.950 . S
H1030 C1026 0.950 . S
C1031 C1029 1.390 . S
C1031 C1032 1.387 . S
C1031 H1034 0.950 . S
C1032 C1031 1.387 . S
C1032 C1035 1.387 . S
H1033 C1029 0.950 . S
H1034 C1031 0.950 . S
C1035 C1026 1.390 . S
C1035 H1028 0.950 . S
C1035 C1032 1.387 . S
C1036 C1037 1.387 . S
C1036 H1040 0.950 . S
C1036 C1045 1.390 . S
C1037 C1036 1.387 . S
C1037 C1039 1.387 . S
H1038 C1045 0.950 . S
C1039 C1037 1.387 . S
C1039 C1041 1.390 . S
C1039 H1043 0.950 . S
H1040 C1036 0.950 . S
C1041 C1039 1.390 . S
C1041 C1042 1.387 . S
C1041 H1044 0.950 . S
C1042 C1041 1.387 . S
C1042 C1045 1.387 . S
H1043 C1039 0.950 . S
H1044 C1041 0.950 . S
C1045 C1036 1.390 . S
C1045 H1038 0.950 . S
C1045 C1042 1.387 . S
C1046 C1047 1.387 . S
C1046 H1050 0.950 . S
C1046 C1055 1.390 . S
C1047 C1046 1.387 . S
C1047 C1049 1.387 . S
H1048 C1055 0.950 . S
C1049 C1047 1.387 . S
C1049 C1051 1.390 . S
C1049 H1053 0.950 . S
H1050 C1046 0.950 . S
C1051 C1049 1.390 . S
C1051 C1052 1.387 . S
C1051 H1054 0.950 . S
C1052 C1051 1.387 . S
C1052 C1055 1.387 . S
H1053 C1049 0.950 . S
H1054 C1051 0.950 . S
C1055 C1046 1.390 . S
C1055 H1048 0.950 . S
C1055 C1052 1.387 . S
C1056 C1057 1.387 . S
C1056 H1060 0.950 . S
C1056 C1065 1.390 1_655 S
C1057 C1056 1.387 . S
C1057 C1059 1.387 . S
H1058 C1065 0.950 . S
C1059 C1057 1.387 . S
C1059 C1061 1.390 . S
C1059 H1063 0.950 . S
H1060 C1056 0.950 . S
C1061 C1059 1.390 . S
C1061 C1062 1.387 1_655 S
C1061 H1064 0.950 . S
C1062 C1061 1.387 1_455 S
C1062 C1065 1.387 . S
H1063 C1059 0.950 . S
H1064 C1061 0.950 . S
C1065 C1056 1.390 1_455 S
C1065 H1058 0.950 . S
C1065 C1062 1.387 . S
C1066 C1067 1.387 . S
C1066 H1070 0.950 . S
C1066 C1075 1.390 . S
C1067 C1066 1.387 . S
C1067 C1069 1.387 . S
H1068 C1075 0.950 . S
C1069 C1067 1.387 . S
C1069 C1071 1.390 . S
C1069 H1073 0.950 . S
H1070 C1066 0.950 . S
C1071 C1069 1.390 . S
C1071 C1072 1.387 . S
C1071 H1074 0.950 . S
C1072 C1071 1.387 . S
C1072 C1075 1.387 . S
H1073 C1069 0.950 . S
H1074 C1071 0.950 . S
C1075 C1066 1.390 . S
C1075 H1068 0.950 . S
C1075 C1072 1.387 . S
C1076 C1077 1.387 . S
C1076 H1080 0.950 1_545 S
C1076 C1085 1.390 . S
C1077 C1076 1.387 . S
C1077 C1079 1.387 . S
H1078 C1085 0.950 . S
C1079 C1077 1.387 . S
C1079 C1081 1.390 . S
C1079 H1083 0.950 . S
H1080 C1076 0.950 1_565 S
C1081 C1079 1.390 . S
C1081 C1082 1.387 . S
C1081 H1084 0.950 . S
C1082 C1081 1.387 . S
C1082 C1085 1.387 . S
H1083 C1079 0.950 . S
H1084 C1081 0.950 . S
C1085 C1076 1.390 . S
C1085 H1078 0.950 . S
C1085 C1082 1.387 . S
C1086 C1087 1.387 . S
C1086 H1090 0.950 . S
C1086 C1095 1.390 . S
C1087 C1086 1.387 . S
C1087 C1089 1.387 . S
H1088 C1095 0.950 . S
C1089 C1087 1.387 . S
C1089 C1091 1.390 . S
C1089 H1093 0.950 . S
H1090 C1086 0.950 . S
C1091 C1089 1.390 . S
C1091 C1092 1.387 . S
C1091 H1094 0.950 . S
C1092 C1091 1.387 . S
C1092 C1095 1.387 . S
H1093 C1089 0.950 . S
H1094 C1091 0.950 . S
C1095 C1086 1.390 . S
C1095 H1088 0.950 . S
C1095 C1092 1.387 . S
C1096 C1097 1.387 . S
C1096 H1100 0.950 . S
C1096 C1105 1.390 . S
C1097 C1096 1.387 . S
C1097 C1099 1.387 . S
H1098 C1105 0.950 1_455 S
C1099 C1097 1.387 . S
C1099 C1101 1.390 . S
C1099 H1103 0.950 . S
H1100 C1096 0.950 . S
C1101 C1099 1.390 . S
C1101 C1102 1.387 . S
C1101 H1104 0.950 . S
C1102 C1101 1.387 . S
C1102 C1105 1.387 . S
H1103 C1099 0.950 . S
H1104 C1101 0.950 . S
C1105 C1096 1.390 . S
C1105 H1098 0.950 1_655 S
C1105 C1102 1.387 . S
C1106 C1107 1.387 . S
C1106 H1110 0.950 . S
C1106 C1115 1.390 . S
C1107 C1106 1.387 . S
C1107 C1109 1.387 . S
H1108 C1115 0.950 . S
C1109 C1107 1.387 . S
C1109 C1111 1.390 . S
C1109 H1113 0.950 . S
H1110 C1106 0.950 . S
C1111 C1109 1.390 . S
C1111 C1112 1.387 . S
C1111 H1114 0.950 . S
C1112 C1111 1.387 . S
C1112 C1115 1.387 . S
H1113 C1109 0.950 . S
H1114 C1111 0.950 . S
C1115 C1106 1.390 . S
C1115 H1108 0.950 . S
C1115 C1112 1.387 . S
C1116 C1117 1.387 . S
C1116 H1120 0.950 . S
C1116 C1125 1.390 . S
C1117 C1116 1.387 . S
C1117 C1119 1.387 . S
H1118 C1125 0.950 . S
C1119 C1117 1.387 . S
C1119 C1121 1.390 . S
C1119 H1123 0.950 . S
H1120 C1116 0.950 . S
C1121 C1119 1.390 . S
C1121 C1122 1.387 . S
C1121 H1124 0.950 . S
C1122 C1121 1.387 . S
C1122 C1125 1.387 . S
H1123 C1119 0.950 . S
H1124 C1121 0.950 . S
C1125 C1116 1.390 . S
C1125 H1118 0.950 . S
C1125 C1122 1.387 . S
C1126 C1127 1.387 . S
C1126 H1130 0.950 . S
C1126 C1135 1.390 . S
C1127 C1126 1.387 . S
C1127 C1129 1.387 . S
H1128 C1135 0.950 . S
C1129 C1127 1.387 . S
C1129 C1131 1.390 . S
C1129 H1133 0.950 . S
H1130 C1126 0.950 . S
C1131 C1129 1.390 . S
C1131 C1132 1.387 . S
C1131 H1134 0.950 . S
C1132 C1131 1.387 . S
C1132 C1135 1.387 . S
H1133 C1129 0.950 . S
H1134 C1131 0.950 . S
C1135 C1126 1.390 . S
C1135 H1128 0.950 . S
C1135 C1132 1.387 . S
C1136 C1137 1.387 . S
C1136 H1140 0.950 . S
C1136 C1145 1.390 . S
C1137 C1136 1.387 . S
C1137 C1139 1.387 1_545 S
H1138 C1145 0.950 . S
C1139 C1137 1.387 1_565 S
C1139 C1141 1.390 1_565 S
C1139 H1143 0.950 . S
H1140 C1136 0.950 . S
C1141 C1139 1.390 1_545 S
C1141 C1142 1.387 . S
C1141 H1144 0.942 1_545 S
C1142 C1141 1.387 . S
C1142 C1145 1.387 . S
H1143 C1139 0.950 . S
H1144 C1141 0.942 1_565 S
C1145 C1136 1.390 . S
C1145 H1138 0.950 . S
C1145 C1142 1.387 . S
C1146 C1147 1.387 . S
C1146 H1150 0.950 . S
C1146 C1155 1.390 . S
C1147 C1146 1.387 . S
C1147 C1149 1.387 1_554 S
H1148 C1155 0.950 . S
C1149 C1147 1.387 1_556 S
C1149 C1151 1.390 . S
C1149 H1153 0.950 . S
H1150 C1146 0.950 . S
C1151 C1149 1.390 . S
C1151 C1152 1.387 1_556 S
C1151 H1154 0.950 . S
C1152 C1151 1.387 1_554 S
C1152 C1155 1.387 . S
H1153 C1149 0.950 . S
H1154 C1151 0.950 . S
C1155 C1146 1.390 . S
C1155 H1148 0.950 . S
C1155 C1152 1.387 . S
C1156 C1157 1.387 . S
C1156 H1160 0.950 . S
C1156 C1165 1.390 . S
C1157 C1156 1.387 . S
C1157 C1159 1.387 . S
H1158 C1165 0.950 . S
C1159 C1157 1.387 . S
C1159 C1161 1.390 . S
C1159 H1163 0.950 . S
H1160 C1156 0.950 . S
C1161 C1159 1.390 . S
C1161 C1162 1.387 . S
C1161 H1164 0.950 . S
C1162 C1161 1.387 . S
C1162 C1165 1.387 . S
H1163 C1159 0.950 . S
H1164 C1161 0.950 . S
C1165 C1156 1.390 . S
C1165 H1158 0.950 . S
C1165 C1162 1.387 . S
C1166 C1167 1.387 . S
C1166 H1170 0.950 . S
C1166 C1175 1.390 . S
C1167 C1166 1.387 . S
C1167 C1169 1.387 . S
H1168 C1175 0.950 . S
C1169 C1167 1.387 . S
C1169 C1171 1.390 . S
C1169 H1173 0.950 . S
H1170 C1166 0.950 . S
C1171 C1169 1.390 . S
C1171 C1172 1.387 . S
C1171 H1174 0.950 . S
C1172 C1171 1.387 . S
C1172 C1175 1.387 . S
H1173 C1169 0.950 . S
H1174 C1171 0.950 . S
C1175 C1166 1.390 . S
C1175 H1168 0.950 . S
C1175 C1172 1.387 . S
C1176 C1177 1.387 . S
C1176 H1180 0.950 . S
C1176 C1185 1.390 . S
C1177 C1176 1.387 . S
C1177 C1179 1.387 . S
H1178 C1185 0.950 . S
C1179 C1177 1.387 . S
C1179 C1181 1.390 . S
C1179 H1183 0.950 . S
H1180 C1176 0.950 . S
C1181 C1179 1.390 . S
C1181 C1182 1.387 . S
C1181 H1184 0.950 . S
C1182 C1181 1.387 . S
C1182 C1185 1.387 . S
H1183 C1179 0.950 . S
H1184 C1181 0.950 . S
C1185 C1176 1.390 . S
C1185 H1178 0.950 . S
C1185 C1182 1.387 . S
C1186 C1187 1.387 . S
C1186 H1190 0.950 . S
C1186 C1195 1.390 . S
C1187 C1186 1.387 . S
C1187 C1189 1.387 . S
H1188 C1195 0.950 . S
C1189 C1187 1.387 . S
C1189 C1191 1.390 . S
C1189 H1193 0.950 . S
H1190 C1186 0.950 . S
C1191 C1189 1.390 . S
C1191 C1192 1.387 . S
C1191 H1194 0.950 . S
C1192 C1191 1.387 . S
C1192 C1195 1.387 . S
H1193 C1189 0.950 . S
H1194 C1191 0.950 . S
C1195 C1186 1.390 . S
C1195 H1188 0.950 . S
C1195 C1192 1.387 . S
C1196 C1197 1.387 . S
C1196 H1200 0.950 . S
C1196 C1205 1.390 . S
C1197 C1196 1.387 . S
C1197 C1199 1.387 . S
H1198 C1205 0.950 . S
C1199 C1197 1.387 . S
C1199 C1201 1.390 . S
C1199 H1203 0.950 . S
H1200 C1196 0.950 . S
C1201 C1199 1.390 . S
C1201 C1202 1.387 . S
C1201 H1204 0.950 . S
C1202 C1201 1.387 . S
C1202 C1205 1.387 . S
H1203 C1199 0.950 . S
H1204 C1201 0.950 . S
C1205 C1196 1.390 . S
C1205 H1198 0.950 . S
C1205 C1202 1.387 . S
C1206 C1207 1.387 . S
C1206 H1210 0.950 . S
C1206 C1215 1.390 . S
C1207 C1206 1.387 . S
C1207 C1209 1.387 . S
H1208 C1215 0.950 . S
C1209 C1207 1.387 . S
C1209 C1211 1.390 . S
C1209 H1213 0.950 . S
H1210 C1206 0.950 . S
C1211 C1209 1.390 . S
C1211 C1212 1.387 . S
C1211 H1214 0.950 . S
C1212 C1211 1.387 . S
C1212 C1215 1.387 . S
H1213 C1209 0.950 . S
H1214 C1211 0.950 . S
C1215 C1206 1.390 . S
C1215 H1208 0.950 . S
C1215 C1212 1.387 . S
C1216 C1217 1.387 . S
C1216 H1220 0.950 . S
C1216 C1225 1.390 1_565 S
C1217 C1216 1.387 . S
C1217 C1219 1.387 . S
H1218 C1225 0.950 . S
C1219 C1217 1.387 . S
C1219 C1221 1.390 . S
C1219 H1223 0.950 . S
H1220 C1216 0.950 . S
C1221 C1219 1.390 . S
C1221 C1222 1.387 1_565 S
C1221 H1224 0.950 . S
C1222 C1221 1.387 1_545 S
C1222 C1225 1.387 . S
H1223 C1219 0.950 . S
H1224 C1221 0.950 . S
C1225 C1216 1.390 1_545 S
C1225 H1218 0.950 . S
C1225 C1222 1.387 . S
C1226 C1227 1.387 . S
C1226 H1230 0.950 . S
C1226 C1235 1.390 . S
C1227 C1226 1.387 . S
C1227 C1229 1.387 . S
H1228 C1235 0.950 . S
C1229 C1227 1.387 . S
C1229 C1231 1.390 . S
C1229 H1233 0.950 . S
H1230 C1226 0.950 . S
C1231 C1229 1.390 . S
C1231 C1232 1.387 . S
C1231 H1234 0.950 . S
C1232 C1231 1.387 . S
C1232 C1235 1.387 . S
H1233 C1229 0.950 . S
H1234 C1231 0.950 . S
C1235 C1226 1.390 . S
C1235 H1228 0.950 . S
C1235 C1232 1.387 . S
C1236 C1237 1.387 . S
C1236 H1240 0.950 . S
C1236 C1245 1.390 . S
C1237 C1236 1.387 . S
C1237 C1239 1.387 . S
H1238 C1245 0.950 . S
C1239 C1237 1.387 . S
C1239 C1241 1.390 . S
C1239 H1243 0.950 . S
H1240 C1236 0.950 . S
C1241 C1239 1.390 . S
C1241 C1242 1.387 . S
C1241 H1244 0.950 . S
C1242 C1241 1.387 . S
C1242 C1245 1.387 . S
H1243 C1239 0.950 . S
H1244 C1241 0.950 . S
C1245 C1236 1.390 . S
C1245 H1238 0.950 . S
C1245 C1242 1.387 . S
C1246 C1247 1.387 . S
C1246 H1250 0.950 . S
C1246 C1255 1.390 . S
C1247 C1246 1.387 . S
C1247 C1249 1.387 . S
H1248 C1255 0.950 . S
C1249 C1247 1.387 . S
C1249 C1251 1.390 . S
C1249 H1253 0.950 . S
H1250 C1246 0.950 . S
C1251 C1249 1.390 . S
C1251 C1252 1.387 . S
C1251 H1254 0.950 . S
C1252 C1251 1.387 . S
C1252 C1255 1.387 . S
H1253 C1249 0.950 . S
H1254 C1251 0.950 . S
C1255 C1246 1.390 . S
C1255 H1248 0.950 . S
C1255 C1252 1.387 . S
C1256 C1257 1.387 1_655 S
C1256 H1260 0.950 . S
C1256 C1265 1.390 1_655 S
C1257 C1256 1.387 1_455 S
C1257 C1259 1.387 . S
H1258 C1265 0.950 1_655 S
C1259 C1257 1.387 . S
C1259 C1261 1.390 . S
C1259 H1263 0.950 . S
H1260 C1256 0.950 . S
C1261 C1259 1.390 . S
C1261 C1262 1.387 . S
C1261 H1264 0.950 . S
C1262 C1261 1.387 . S
C1262 C1265 1.387 . S
H1263 C1259 0.950 . S
H1264 C1261 0.950 . S
C1265 C1256 1.390 1_455 S
C1265 H1258 0.950 1_455 S
C1265 C1262 1.387 . S
C1266 C1267 1.387 . S
C1266 H1270 0.950 . S
C1266 C1275 1.390 . S
C1267 C1266 1.387 . S
C1267 C1269 1.387 . S
H1268 C1275 0.950 . S
C1269 C1267 1.387 . S
C1269 C1271 1.390 . S
C1269 H1273 0.950 . S
H1270 C1266 0.950 . S
C1271 C1269 1.390 . S
C1271 C1272 1.387 . S
C1271 H1274 0.950 . S
C1272 C1271 1.387 . S
C1272 C1275 1.387 . S
H1273 C1269 0.950 . S
H1274 C1271 0.950 . S
C1275 C1266 1.390 . S
C1275 H1268 0.950 . S
C1275 C1272 1.387 . S
C1276 C1277 1.387 . S
C1276 H1280 0.950 1_556 S
C1276 C1285 1.390 1_556 S
C1277 C1276 1.387 . S
C1277 C1279 1.387 . S
H1278 C1285 0.950 . S
C1279 C1277 1.387 . S
C1279 C1281 1.390 . S
C1279 H1283 0.950 . S
H1280 C1276 0.950 1_554 S
C1281 C1279 1.390 . S
C1281 C1282 1.387 1_565 S
C1281 H1284 0.950 1_565 S
C1282 C1281 1.387 1_545 S
C1282 C1285 1.387 1_546 S
H1283 C1279 0.950 . S
H1284 C1281 0.950 1_545 S
C1285 C1276 1.390 1_554 S
C1285 H1278 0.950 . S
C1285 C1282 1.387 1_564 S
C1286 C1287 1.387 . S
C1286 H1290 0.950 . S
C1286 C1295 1.390 . S
C1287 C1286 1.387 . S
C1287 C1289 1.387 . S
H1288 C1295 0.950 . S
C1289 C1287 1.387 . S
C1289 C1291 1.390 . S
C1289 H1293 0.950 . S
H1290 C1286 0.950 . S
C1291 C1289 1.390 . S
C1291 C1292 1.387 . S
C1291 H1294 0.950 . S
C1292 C1291 1.387 . S
C1292 C1295 1.387 . S
H1293 C1289 0.950 . S
H1294 C1291 0.950 . S
C1295 C1286 1.390 . S
C1295 H1288 0.950 . S
C1295 C1292 1.387 . S
C1296 C1297 1.387 . S
C1296 H1300 0.950 . S
C1296 C1305 1.390 . S
C1297 C1296 1.387 . S
C1297 C1299 1.387 . S
H1298 C1305 0.950 . S
C1299 C1297 1.387 . S
C1299 C1301 1.390 . S
C1299 H1303 0.950 . S
H1300 C1296 0.950 . S
C1301 C1299 1.390 . S
C1301 C1302 1.387 . S
C1301 H1304 0.950 . S
C1302 C1301 1.387 . S
C1302 C1305 1.387 . S
H1303 C1299 0.950 . S
H1304 C1301 0.950 . S
C1305 C1296 1.390 . S
C1305 H1298 0.950 . S
C1305 C1302 1.387 . S
C1306 C1307 1.387 . S
C1306 H1310 0.950 . S
C1306 C1315 1.390 . S
C1307 C1306 1.387 . S
C1307 C1309 1.387 . S
H1308 C1315 0.950 . S
C1309 C1307 1.387 . S
C1309 C1311 1.390 . S
C1309 H1313 0.950 . S
H1310 C1306 0.950 . S
C1311 C1309 1.390 . S
C1311 C1312 1.387 . S
C1311 H1314 0.950 . S
C1312 C1311 1.387 . S
C1312 C1315 1.387 . S
H1313 C1309 0.950 . S
H1314 C1311 0.950 . S
C1315 C1306 1.390 . S
C1315 H1308 0.950 . S
C1315 C1312 1.387 . S
C1316 C1317 1.387 . S
C1316 H1320 0.950 . S
C1316 C1325 1.390 . S
C1317 C1316 1.387 . S
C1317 C1319 1.387 . S
H1318 C1325 0.950 . S
C1319 C1317 1.387 . S
C1319 C1321 1.390 . S
C1319 H1323 0.950 . S
H1320 C1316 0.950 . S
C1321 C1319 1.390 . S
C1321 C1322 1.387 . S
C1321 H1324 0.950 . S
C1322 C1321 1.387 . S
C1322 C1325 1.387 . S
H1323 C1319 0.950 . S
H1324 C1321 0.950 . S
C1325 C1316 1.390 . S
C1325 H1318 0.950 . S
C1325 C1322 1.387 . S
C1326 C1327 1.387 . S
C1326 H1330 0.950 . S
C1326 C1335 1.390 . S
C1327 C1326 1.387 . S
C1327 C1329 1.387 . S
H1328 C1335 0.950 . S
C1329 C1327 1.387 . S
C1329 C1331 1.390 . S
C1329 H1333 0.950 . S
H1330 C1326 0.950 . S
C1331 C1329 1.390 . S
C1331 C1332 1.387 . S
C1331 H1334 0.950 . S
C1332 C1331 1.387 . S
C1332 C1335 1.387 . S
H1333 C1329 0.950 . S
H1334 C1331 0.950 . S
C1335 C1326 1.390 . S
C1335 H1328 0.950 . S
C1335 C1332 1.387 . S
C1336 C1337 1.387 . S
C1336 H1340 0.950 . S
C1336 C1345 1.390 . S
C1337 C1336 1.387 . S
C1337 C1339 1.387 . S
H1338 C1345 0.950 . S
C1339 C1337 1.387 . S
C1339 C1341 1.390 . S
C1339 H1343 0.950 . S
H1340 C1336 0.950 . S
C1341 C1339 1.390 . S
C1341 C1342 1.387 . S
C1341 H1344 0.950 . S
C1342 C1341 1.387 . S
C1342 C1345 1.387 . S
H1343 C1339 0.950 . S
H1344 C1341 0.950 . S
C1345 C1336 1.390 . S
C1345 H1338 0.950 . S
C1345 C1342 1.387 . S
C1346 C1347 1.387 . S
C1346 H1350 0.950 . S
C1346 C1355 1.390 . S
C1347 C1346 1.387 . S
C1347 C1349 1.387 . S
H1348 C1355 0.950 . S
C1349 C1347 1.387 . S
C1349 C1351 1.390 . S
C1349 H1353 0.950 . S
H1350 C1346 0.950 . S
C1351 C1349 1.390 . S
C1351 C1352 1.387 . S
C1351 H1354 0.950 . S
C1352 C1351 1.387 . S
C1352 C1355 1.387 . S
H1353 C1349 0.950 . S
H1354 C1351 0.950 . S
C1355 C1346 1.390 . S
C1355 H1348 0.950 . S
C1355 C1352 1.387 . S
C1356 C1357 1.387 . S
C1356 H1360 0.950 . S
C1356 C1365 1.390 . S
C1357 C1356 1.387 . S
C1357 C1359 1.387 . S
H1358 C1365 0.950 . S
C1359 C1357 1.387 . S
C1359 C1361 1.390 . S
C1359 H1363 0.950 . S
H1360 C1356 0.950 . S
C1361 C1359 1.390 . S
C1361 C1362 1.387 . S
C1361 H1364 0.950 . S
C1362 C1361 1.387 . S
C1362 C1365 1.387 . S
H1363 C1359 0.950 . S
H1364 C1361 0.950 . S
C1365 C1356 1.390 . S
C1365 H1358 0.950 . S
C1365 C1362 1.387 . S
C1366 C1367 1.387 . S
C1366 H1370 0.950 . S
C1366 C1375 1.390 . S
C1367 C1366 1.387 . S
C1367 C1369 1.387 . S
H1368 C1375 0.950 . S
C1369 C1367 1.387 . S
C1369 C1371 1.390 . S
C1369 H1373 0.950 . S
H1370 C1366 0.950 . S
C1371 C1369 1.390 . S
C1371 C1372 1.387 . S
C1371 H1374 0.950 . S
C1372 C1371 1.387 . S
C1372 C1375 1.387 . S
H1373 C1369 0.950 . S
H1374 C1371 0.950 . S
C1375 C1366 1.390 . S
C1375 H1368 0.950 . S
C1375 C1372 1.387 . S
C1376 C1377 1.387 . S
C1376 H1380 0.950 . S
C1376 C1385 1.390 . S
C1377 C1376 1.387 . S
C1377 C1379 1.387 . S
H1378 C1385 0.950 . S
C1379 C1377 1.387 . S
C1379 C1381 1.390 . S
C1379 H1383 0.950 1_556 S
H1380 C1376 0.950 . S
C1381 C1379 1.390 . S
C1381 C1382 1.387 . S
C1381 H1384 0.950 . S
C1382 C1381 1.387 . S
C1382 C1385 1.387 . S
H1383 C1379 0.950 1_554 S
H1384 C1381 0.950 . S
C1385 C1376 1.390 . S
C1385 H1378 0.950 . S
C1385 C1382 1.387 . S
C1386 C1387 1.387 . S
C1386 H1390 0.950 1_554 S
C1386 C1395 1.390 . S
C1387 C1386 1.387 . S
C1387 C1389 1.387 . S
H1388 C1395 0.950 1_556 S
C1389 C1387 1.387 . S
C1389 C1391 1.390 . S
C1389 H1393 0.950 . S
H1390 C1386 0.950 1_556 S
C1391 C1389 1.390 . S
C1391 C1392 1.387 . S
C1391 H1394 0.950 . S
C1392 C1391 1.387 . S
C1392 C1395 1.387 . S
H1393 C1389 0.950 . S
H1394 C1391 0.950 . S
C1395 C1386 1.390 . S
C1395 H1388 0.950 1_554 S
C1395 C1392 1.387 . S
C1396 C1397 1.387 . S
C1396 H1400 0.950 . S
C1396 C1405 1.390 . S
C1397 C1396 1.387 . S
C1397 C1399 1.387 . S
H1398 C1405 0.950 . S
C1399 C1397 1.387 . S
C1399 C1401 1.390 . S
C1399 H1403 0.950 . S
H1400 C1396 0.950 . S
C1401 C1399 1.390 . S
C1401 C1402 1.387 . S
C1401 H1404 0.950 . S
C1402 C1401 1.387 . S
C1402 C1405 1.387 . S
H1403 C1399 0.950 . S
H1404 C1401 0.950 . S
C1405 C1396 1.390 . S
C1405 H1398 0.950 . S
C1405 C1402 1.387 . S
C1406 C1407 1.387 . S
C1406 H1410 0.950 . S
C1406 C1415 1.390 . S
C1407 C1406 1.387 . S
C1407 C1409 1.387 . S
H1408 C1415 0.950 . S
C1409 C1407 1.387 . S
C1409 C1411 1.390 . S
C1409 H1413 0.950 . S
H1410 C1406 0.950 . S
C1411 C1409 1.390 . S
C1411 C1412 1.387 . S
C1411 H1414 0.950 . S
C1412 C1411 1.387 . S
C1412 C1415 1.387 . S
H1413 C1409 0.950 . S
H1414 C1411 0.950 . S
C1415 C1406 1.390 . S
C1415 H1408 0.950 . S
C1415 C1412 1.387 . S
C1416 C1417 1.387 . S
C1416 H1420 0.950 . S
C1416 C1425 1.390 . S
C1417 C1416 1.387 . S
C1417 C1419 1.387 . S
H1418 C1425 0.950 . S
C1419 C1417 1.387 . S
C1419 C1421 1.390 . S
C1419 H1423 0.950 . S
H1420 C1416 0.950 . S
C1421 C1419 1.390 . S
C1421 C1422 1.387 . S
C1421 H1424 0.950 . S
C1422 C1421 1.387 . S
C1422 C1425 1.387 . S
H1423 C1419 0.950 . S
H1424 C1421 0.950 . S
C1425 C1416 1.390 . S
C1425 H1418 0.950 . S
C1425 C1422 1.387 . S
C1426 C1427 1.380 1_545 S
C1426 H1430 0.958 . S
C1426 C1435 1.390 . S
C1427 C1426 1.380 1_565 S
C1427 C1429 1.378 1_565 S
H1428 C1435 0.950 . S
C1429 C1427 1.378 1_545 S
C1429 C1431 1.390 . S
C1429 H1433 0.951 1_545 S
H1430 C1426 0.958 . S
C1431 C1429 1.390 . S
C1431 C1432 1.387 . S
C1431 H1434 0.950 . S
C1432 C1431 1.387 . S
C1432 C1435 1.387 . S
H1433 C1429 0.951 1_565 S
H1434 C1431 0.950 . S
C1435 C1426 1.390 . S
C1435 H1428 0.950 . S
C1435 C1432 1.387 . S
C1436 C1437 1.387 . S
C1436 H1440 0.950 . S
C1436 C1445 1.390 . S
C1437 C1436 1.387 . S
C1437 C1439 1.387 . S
H1438 C1445 0.950 . S
C1439 C1437 1.387 . S
C1439 C1441 1.390 . S
C1439 H1443 0.950 . S
H1440 C1436 0.950 . S
C1441 C1439 1.390 . S
C1441 C1442 1.387 . S
C1441 H1444 0.950 . S
C1442 C1441 1.387 . S
C1442 C1445 1.387 . S
H1443 C1439 0.950 . S
H1444 C1441 0.950 . S
C1445 C1436 1.390 . S
C1445 H1438 0.950 . S
C1445 C1442 1.387 . S
C1446 C1447 1.387 . S
C1446 H1450 0.950 . S
C1446 C1455 1.390 . S
C1447 C1446 1.387 . S
C1447 C1449 1.387 . S
H1448 C1455 0.950 . S
C1449 C1447 1.387 . S
C1449 C1451 1.390 . S
C1449 H1453 0.950 . S
H1450 C1446 0.950 . S
C1451 C1449 1.390 . S
C1451 C1452 1.387 . S
C1451 H1454 0.950 . S
C1452 C1451 1.387 . S
C1452 C1455 1.387 . S
H1453 C1449 0.950 . S
H1454 C1451 0.950 . S
C1455 C1446 1.390 . S
C1455 H1448 0.950 . S
C1455 C1452 1.387 . S
C1456 C1457 1.387 . S
C1456 H1460 0.950 . S
C1456 C1465 1.390 . S
C1457 C1456 1.387 . S
C1457 C1459 1.387 . S
H1458 C1465 0.950 . S
C1459 C1457 1.387 . S
C1459 C1461 1.390 . S
C1459 H1463 0.950 . S
H1460 C1456 0.950 . S
C1461 C1459 1.390 . S
C1461 C1462 1.387 . S
C1461 H1464 0.950 . S
C1462 C1461 1.387 . S
C1462 C1465 1.387 . S
H1463 C1459 0.950 . S
H1464 C1461 0.950 . S
C1465 C1456 1.390 . S
C1465 H1458 0.950 . S
C1465 C1462 1.387 . S
C1466 C1467 1.387 . S
C1466 H1470 0.950 . S
C1466 C1475 1.390 . S
C1467 C1466 1.387 . S
C1467 C1469 1.387 . S
H1468 C1475 0.950 . S
C1469 C1467 1.387 . S
C1469 C1471 1.390 . S
C1469 H1473 0.950 . S
H1470 C1466 0.950 . S
C1471 C1469 1.390 . S
C1471 C1472 1.387 . S
C1471 H1474 0.950 . S
C1472 C1471 1.387 . S
C1472 C1475 1.387 . S
H1473 C1469 0.950 . S
H1474 C1471 0.950 . S
C1475 C1466 1.390 . S
C1475 H1468 0.950 . S
C1475 C1472 1.387 . S
C1476 C1477 1.387 . S
C1476 H1480 0.950 . S
C1476 C1485 1.390 . S
C1477 C1476 1.387 . S
C1477 C1479 1.387 . S
H1478 C1485 0.950 . S
C1479 C1477 1.387 . S
C1479 C1481 1.390 . S
C1479 H1483 0.950 1_455 S
H1480 C1476 0.950 . S
C1481 C1479 1.390 . S
C1481 C1482 1.387 . S
C1481 H1484 0.916 1_455 S
C1482 C1481 1.387 . S
C1482 C1485 1.387 . S
H1483 C1479 0.950 1_655 S
H1484 C1481 0.916 1_655 S
C1485 C1476 1.390 . S
C1485 H1478 0.950 . S
C1485 C1482 1.387 . S
C1486 C1487 1.387 . S
C1486 H1490 0.950 . S
C1486 C1495 1.390 1_455 S
C1487 C1486 1.387 . S
C1487 C1489 1.387 . S
H1488 C1495 0.950 . S
C1489 C1487 1.387 . S
C1489 C1491 1.390 1_455 S
C1489 H1493 0.950 . S
H1490 C1486 0.950 . S
C1491 C1489 1.390 1_655 S
C1491 C1492 1.387 . S
C1491 H1494 0.950 . S
C1492 C1491 1.387 . S
C1492 C1495 1.387 . S
H1493 C1489 0.950 . S
H1494 C1491 0.950 . S
C1495 C1486 1.390 1_655 S
C1495 H1488 0.950 . S
C1495 C1492 1.387 . S
C1496 C1497 1.387 . S
C1496 H1500 0.950 . S
C1496 C1505 1.390 . S
C1497 C1496 1.387 . S
C1497 C1499 1.387 . S
H1498 C1505 0.950 . S
C1499 C1497 1.387 . S
C1499 C1501 1.390 . S
C1499 H1503 0.950 . S
H1500 C1496 0.950 . S
C1501 C1499 1.390 . S
C1501 C1502 1.387 . S
C1501 H1504 0.950 . S
C1502 C1501 1.387 . S
C1502 C1505 1.387 . S
H1503 C1499 0.950 . S
H1504 C1501 0.950 . S
C1505 C1496 1.390 . S
C1505 H1498 0.950 . S
C1505 C1502 1.387 . S
C1506 C1507 1.387 . S
C1506 H1510 0.950 . S
C1506 C1515 1.390 . S
C1507 C1506 1.387 . S
C1507 C1509 1.387 . S
H1508 C1515 0.950 . S
C1509 C1507 1.387 . S
C1509 C1511 1.390 . S
C1509 H1513 0.950 . S
H1510 C1506 0.950 . S
C1511 C1509 1.390 . S
C1511 C1512 1.387 . S
C1511 H1514 0.950 . S
C1512 C1511 1.387 . S
C1512 C1515 1.387 . S
H1513 C1509 0.950 . S
H1514 C1511 0.950 . S
C1515 C1506 1.390 . S
C1515 H1508 0.950 . S
C1515 C1512 1.387 . S
C1516 C1517 1.387 . S
C1516 H1520 0.950 . S
C1516 C1525 1.390 . S
C1517 C1516 1.387 . S
C1517 C1519 1.387 . S
H1518 C1525 0.950 . S
C1519 C1517 1.387 . S
C1519 C1521 1.390 . S
C1519 H1523 0.950 . S
H1520 C1516 0.950 . S
C1521 C1519 1.390 . S
C1521 C1522 1.387 . S
C1521 H1524 0.950 . S
C1522 C1521 1.387 . S
C1522 C1525 1.387 . S
H1523 C1519 0.950 . S
H1524 C1521 0.950 . S
C1525 C1516 1.390 . S
C1525 H1518 0.950 . S
C1525 C1522 1.387 . S
C1526 C1527 1.387 . S
C1526 H1530 0.950 . S
C1526 C1535 1.390 . S
C1527 C1526 1.387 . S
C1527 C1529 1.387 . S
H1528 C1535 0.950 . S
C1529 C1527 1.387 . S
C1529 C1531 1.390 . S
C1529 H1533 0.950 . S
H1530 C1526 0.950 . S
C1531 C1529 1.390 . S
C1531 C1532 1.387 . S
C1531 H1534 0.950 . S
C1532 C1531 1.387 . S
C1532 C1535 1.387 . S
H1533 C1529 0.950 . S
H1534 C1531 0.950 . S
C1535 C1526 1.390 . S
C1535 H1528 0.950 . S
C1535 C1532 1.387 . S
C1536 C1537 1.387 . S
C1536 H1540 0.950 . S
C1536 C1545 1.390 . S
C1537 C1536 1.387 . S
C1537 C1539 1.387 . S
H1538 C1545 0.950 . S
C1539 C1537 1.387 . S
C1539 C1541 1.390 . S
C1539 H1543 0.950 . S
H1540 C1536 0.950 . S
C1541 C1539 1.390 . S
C1541 C1542 1.387 . S
C1541 H1544 0.950 . S
C1542 C1541 1.387 . S
C1542 C1545 1.387 . S
H1543 C1539 0.950 . S
H1544 C1541 0.950 . S
C1545 C1536 1.390 . S
C1545 H1538 0.950 . S
C1545 C1542 1.387 . S
C1546 C1547 1.387 . S
C1546 H1550 0.950 . S
C1546 C1555 1.390 . S
C1547 C1546 1.387 . S
C1547 C1549 1.387 . S
H1548 C1555 0.950 . S
C1549 C1547 1.387 . S
C1549 C1551 1.390 . S
C1549 H1553 0.950 . S
H1550 C1546 0.950 . S
C1551 C1549 1.390 . S
C1551 C1552 1.387 . S
C1551 H1554 0.950 . S
C1552 C1551 1.387 . S
C1552 C1555 1.387 . S
H1553 C1549 0.950 . S
H1554 C1551 0.950 . S
C1555 C1546 1.390 . S
C1555 H1548 0.950 . S
C1555 C1552 1.387 . S
C1556 C1557 1.387 . S
C1556 H1560 0.950 . S
C1556 C1565 1.390 . S
C1557 C1556 1.387 . S
C1557 C1559 1.387 . S
H1558 C1565 0.950 . S
C1559 C1557 1.387 . S
C1559 C1561 1.390 . S
C1559 H1563 0.950 . S
H1560 C1556 0.950 . S
C1561 C1559 1.390 . S
C1561 C1562 1.387 . S
C1561 H1564 0.950 . S
C1562 C1561 1.387 . S
C1562 C1565 1.387 . S
H1563 C1559 0.950 . S
H1564 C1561 0.950 . S
C1565 C1556 1.390 . S
C1565 H1558 0.950 . S
C1565 C1562 1.387 . S
C1566 C1567 1.387 . S
C1566 H1570 0.950 . S
C1566 C1575 1.390 . S
C1567 C1566 1.387 . S
C1567 C1569 1.387 . S
H1568 C1575 0.950 . S
C1569 C1567 1.387 . S
C1569 C1571 1.390 . S
C1569 H1573 0.950 . S
H1570 C1566 0.950 . S
C1571 C1569 1.390 . S
C1571 C1572 1.387 . S
C1571 H1574 0.950 . S
C1572 C1571 1.387 . S
C1572 C1575 1.387 . S
H1573 C1569 0.950 . S
H1574 C1571 0.950 . S
C1575 C1566 1.390 . S
C1575 H1568 0.950 . S
C1575 C1572 1.387 . S
C1576 C1577 1.387 . S
C1576 H1580 0.950 . S
C1576 C1585 1.390 . S
C1577 C1576 1.387 . S
C1577 C1579 1.387 . S
H1578 C1585 0.950 . S
C1579 C1577 1.387 . S
C1579 C1581 1.390 . S
C1579 H1583 0.950 . S
H1580 C1576 0.950 . S
C1581 C1579 1.390 . S
C1581 C1582 1.387 . S
C1581 H1584 0.950 . S
C1582 C1581 1.387 . S
C1582 C1585 1.387 . S
H1583 C1579 0.950 . S
H1584 C1581 0.950 . S
C1585 C1576 1.390 . S
C1585 H1578 0.950 . S
C1585 C1582 1.387 . S
C1586 C1587 1.387 . S
C1586 H1590 0.950 . S
C1586 C1595 1.390 . S
C1587 C1586 1.387 . S
C1587 C1589 1.387 . S
H1588 C1595 0.950 . S
C1589 C1587 1.387 . S
C1589 C1591 1.390 . S
C1589 H1593 0.950 . S
H1590 C1586 0.950 . S
C1591 C1589 1.390 . S
C1591 C1592 1.387 . S
C1591 H1594 0.950 . S
C1592 C1591 1.387 . S
C1592 C1595 1.387 . S
H1593 C1589 0.950 . S
H1594 C1591 0.950 . S
C1595 C1586 1.390 . S
C1595 H1588 0.950 . S
C1595 C1592 1.387 . S
C1596 C1597 1.387 . S
C1596 H1600 0.950 . S
C1596 C1605 1.390 . S
C1597 C1596 1.387 . S
C1597 C1599 1.387 . S
H1598 C1605 0.950 . S
C1599 C1597 1.387 . S
C1599 C1601 1.390 . S
C1599 H1603 0.950 . S
H1600 C1596 0.950 . S
C1601 C1599 1.390 . S
C1601 C1602 1.387 . S
C1601 H1604 0.950 . S
C1602 C1601 1.387 . S
C1602 C1605 1.387 . S
H1603 C1599 0.950 . S
H1604 C1601 0.950 . S
C1605 C1596 1.390 . S
C1605 H1598 0.950 . S
C1605 C1602 1.387 . S
C1606 C1607 1.387 . S
C1606 H1610 0.950 . S
C1606 C1615 1.390 . S
C1607 C1606 1.387 . S
C1607 C1609 1.387 . S
H1608 C1615 0.950 . S
C1609 C1607 1.387 . S
C1609 C1611 1.390 . S
C1609 H1613 0.950 . S
H1610 C1606 0.950 . S
C1611 C1609 1.390 . S
C1611 C1612 1.387 . S
C1611 H1614 0.950 . S
C1612 C1611 1.387 . S
C1612 C1615 1.387 . S
H1613 C1609 0.950 . S
H1614 C1611 0.950 . S
C1615 C1606 1.390 . S
C1615 H1608 0.950 . S
C1615 C1612 1.387 . S
C1616 C1617 1.387 . S
C1616 H1620 0.950 . S
C1616 C1625 1.390 . S
C1617 C1616 1.387 . S
C1617 C1619 1.387 . S
H1618 C1625 0.950 . S
C1619 C1617 1.387 . S
C1619 C1621 1.390 . S
C1619 H1623 0.950 . S
H1620 C1616 0.950 . S
C1621 C1619 1.390 . S
C1621 C1622 1.387 . S
C1621 H1624 0.950 . S
C1622 C1621 1.387 . S
C1622 C1625 1.387 . S
H1623 C1619 0.950 . S
H1624 C1621 0.950 . S
C1625 C1616 1.390 . S
C1625 H1618 0.950 . S
C1625 C1622 1.387 . S
C1626 C1627 1.387 . S
C1626 H1630 0.950 . S
C1626 C1635 1.390 . S
C1627 C1626 1.387 . S
C1627 C1629 1.387 . S
H1628 C1635 0.950 . S
C1629 C1627 1.387 . S
C1629 C1631 1.390 . S
C1629 H1633 0.950 . S
H1630 C1626 0.950 . S
C1631 C1629 1.390 . S
C1631 C1632 1.387 . S
C1631 H1634 0.950 . S
C1632 C1631 1.387 . S
C1632 C1635 1.387 . S
H1633 C1629 0.950 . S
H1634 C1631 0.950 . S
C1635 C1626 1.390 . S
C1635 H1628 0.950 . S
C1635 C1632 1.387 . S
C1636 C1637 1.387 . S
C1636 H1640 0.950 . S
C1636 C1645 1.390 . S
C1637 C1636 1.387 . S
C1637 C1639 1.387 . S
H1638 C1645 0.950 . S
C1639 C1637 1.387 . S
C1639 C1641 1.390 . S
C1639 H1643 0.950 . S
H1640 C1636 0.950 . S
C1641 C1639 1.390 . S
C1641 C1642 1.387 . S
C1641 H1644 0.950 . S
C1642 C1641 1.387 . S
C1642 C1645 1.387 . S
H1643 C1639 0.950 . S
H1644 C1641 0.950 . S
C1645 C1636 1.390 . S
C1645 H1638 0.950 . S
C1645 C1642 1.387 . S
C1646 C1647 1.387 . S
C1646 H1650 0.950 . S
C1646 C1655 1.390 . S
C1647 C1646 1.387 . S
C1647 C1649 1.387 . S
H1648 C1655 0.950 . S
C1649 C1647 1.387 . S
C1649 C1651 1.390 . S
C1649 H1653 0.950 . S
H1650 C1646 0.950 . S
C1651 C1649 1.390 . S
C1651 C1652 1.387 . S
C1651 H1654 0.950 1_554 S
C1652 C1651 1.387 . S
C1652 C1655 1.387 . S
H1653 C1649 0.950 . S
H1654 C1651 0.950 1_556 S
C1655 C1646 1.390 . S
C1655 H1648 0.950 . S
C1655 C1652 1.387 . S
C1656 C1657 1.387 . S
C1656 H1660 0.950 . S
C1656 C1665 1.390 . S
C1657 C1656 1.387 . S
C1657 C1659 1.387 . S
H1658 C1665 0.950 . S
C1659 C1657 1.387 . S
C1659 C1661 1.390 . S
C1659 H1663 0.950 . S
H1660 C1656 0.950 . S
C1661 C1659 1.390 . S
C1661 C1662 1.387 . S
C1661 H1664 0.950 . S
C1662 C1661 1.387 . S
C1662 C1665 1.387 . S
H1663 C1659 0.950 . S
H1664 C1661 0.950 . S
C1665 C1656 1.390 . S
C1665 H1658 0.950 . S
C1665 C1662 1.387 . S
C1666 C1667 1.387 . S
C1666 H1670 0.950 1_554 S
C1666 C1675 1.390 . S
C1667 C1666 1.387 . S
C1667 C1669 1.387 . S
H1668 C1675 0.950 . S
C1669 C1667 1.387 . S
C1669 C1671 1.390 . S
C1669 H1673 0.950 . S
H1670 C1666 0.950 1_556 S
C1671 C1669 1.390 . S
C1671 C1672 1.387 . S
C1671 H1674 0.950 . S
C1672 C1671 1.387 . S
C1672 C1675 1.387 . S
H1673 C1669 0.950 . S
H1674 C1671 0.950 . S
C1675 C1666 1.390 . S
C1675 H1668 0.950 . S
C1675 C1672 1.387 . S
C1676 C1677 1.387 . S
C1676 H1680 0.950 . S
C1676 C1685 1.390 . S
C1677 C1676 1.387 . S
C1677 C1679 1.387 . S
H1678 C1685 0.950 . S
C1679 C1677 1.387 . S
C1679 C1681 1.390 . S
C1679 H1683 0.950 . S
H1680 C1676 0.950 . S
C1681 C1679 1.390 . S
C1681 C1682 1.387 . S
C1681 H1684 0.950 . S
C1682 C1681 1.387 . S
C1682 C1685 1.387 . S
H1683 C1679 0.950 . S
H1684 C1681 0.950 . S
C1685 C1676 1.390 . S
C1685 H1678 0.950 . S
C1685 C1682 1.387 . S
C1686 C1687 1.387 . S
C1686 H1690 0.950 . S
C1686 C1695 1.390 . S
C1687 C1686 1.387 . S
C1687 C1689 1.387 . S
H1688 C1695 0.950 . S
C1689 C1687 1.387 . S
C1689 C1691 1.390 . S
C1689 H1693 0.950 . S
H1690 C1686 0.950 . S
C1691 C1689 1.390 . S
C1691 C1692 1.387 . S
C1691 H1694 0.950 . S
C1692 C1691 1.387 . S
C1692 C1695 1.387 . S
H1693 C1689 0.950 . S
H1694 C1691 0.950 . S
C1695 C1686 1.390 . S
C1695 H1688 0.950 . S
C1695 C1692 1.387 . S
C1696 C1697 1.387 . S
C1696 H1700 0.950 . S
C1696 C1705 1.390 . S
C1697 C1696 1.387 . S
C1697 C1699 1.387 . S
H1698 C1705 0.950 . S
C1699 C1697 1.387 . S
C1699 C1701 1.390 . S
C1699 H1703 0.950 . S
H1700 C1696 0.950 . S
C1701 C1699 1.390 . S
C1701 C1702 1.387 . S
C1701 H1704 0.950 . S
C1702 C1701 1.387 . S
C1702 C1705 1.387 . S
H1703 C1699 0.950 . S
H1704 C1701 0.950 . S
C1705 C1696 1.390 . S
C1705 H1698 0.950 . S
C1705 C1702 1.387 . S
C1706 C1707 1.387 . S
C1706 H1710 0.950 . S
C1706 C1715 1.390 . S
C1707 C1706 1.387 . S
C1707 C1709 1.387 . S
H1708 C1715 0.950 . S
C1709 C1707 1.387 . S
C1709 C1711 1.390 . S
C1709 H1713 0.950 . S
H1710 C1706 0.950 . S
C1711 C1709 1.390 . S
C1711 C1712 1.387 . S
C1711 H1714 0.950 . S
C1712 C1711 1.387 . S
C1712 C1715 1.387 . S
H1713 C1709 0.950 . S
H1714 C1711 0.950 . S
C1715 C1706 1.390 . S
C1715 H1708 0.950 . S
C1715 C1712 1.387 . S
C1716 C1717 1.387 . S
C1716 H1720 0.950 . S
C1716 C1725 1.390 . S
C1717 C1716 1.387 . S
C1717 C1719 1.387 . S
H1718 C1725 0.950 . S
C1719 C1717 1.387 . S
C1719 C1721 1.390 . S
C1719 H1723 0.950 . S
H1720 C1716 0.950 . S
C1721 C1719 1.390 . S
C1721 C1722 1.387 . S
C1721 H1724 0.950 . S
C1722 C1721 1.387 . S
C1722 C1725 1.387 . S
H1723 C1719 0.950 . S
H1724 C1721 0.950 . S
C1725 C1716 1.390 . S
C1725 H1718 0.950 . S
C1725 C1722 1.387 . S
C1726 C1727 1.387 . S
C1726 H1730 0.950 . S
C1726 C1735 1.390 . S
C1727 C1726 1.387 . S
C1727 C1729 1.387 . S
H1728 C1735 0.950 . S
C1729 C1727 1.387 . S
C1729 C1731 1.390 . S
C1729 H1733 0.950 . S
H1730 C1726 0.950 . S
C1731 C1729 1.390 . S
C1731 C1732 1.387 . S
C1731 H1734 0.950 . S
C1732 C1731 1.387 . S
C1732 C1735 1.387 . S
H1733 C1729 0.950 . S
H1734 C1731 0.950 . S
C1735 C1726 1.390 . S
C1735 H1728 0.950 . S
C1735 C1732 1.387 . S
C1736 C1737 1.387 . S
C1736 H1740 0.950 . S
C1736 C1745 1.390 . S
C1737 C1736 1.387 . S
C1737 C1739 1.387 . S
H1738 C1745 0.950 . S
C1739 C1737 1.387 . S
C1739 C1741 1.390 . S
C1739 H1743 0.950 . S
H1740 C1736 0.950 . S
C1741 C1739 1.390 . S
C1741 C1742 1.387 . S
C1741 H1744 0.950 1_556 S
C1742 C1741 1.387 . S
C1742 C1745 1.387 . S
H1743 C1739 0.950 . S
H1744 C1741 0.950 1_554 S
C1745 C1736 1.390 . S
C1745 H1738 0.950 . S
C1745 C1742 1.387 . S
C1746 C1747 1.387 . S
C1746 H1750 0.950 . S
C1746 C1755 1.390 . S
C1747 C1746 1.387 . S
C1747 C1749 1.387 . S
H1748 C1755 0.950 . S
C1749 C1747 1.387 . S
C1749 C1751 1.390 . S
C1749 H1753 0.950 . S
H1750 C1746 0.950 . S
C1751 C1749 1.390 . S
C1751 C1752 1.387 . S
C1751 H1754 0.950 . S
C1752 C1751 1.387 . S
C1752 C1755 1.387 . S
H1753 C1749 0.950 . S
H1754 C1751 0.950 . S
C1755 C1746 1.390 . S
C1755 H1748 0.950 . S
C1755 C1752 1.387 . S
C1756 C1757 1.387 . S
C1756 H1760 0.950 1_455 S
C1756 C1765 1.390 . S
C1757 C1756 1.387 . S
C1757 C1759 1.387 . S
H1758 C1765 0.950 . S
C1759 C1757 1.387 . S
C1759 C1761 1.390 . S
C1759 H1763 0.950 . S
H1760 C1756 0.950 1_655 S
C1761 C1759 1.390 . S
C1761 C1762 1.387 . S
C1761 H1764 0.950 . S
C1762 C1761 1.387 . S
C1762 C1765 1.387 . S
H1763 C1759 0.950 . S
H1764 C1761 0.950 . S
C1765 C1756 1.390 . S
C1765 H1758 0.950 . S
C1765 C1762 1.387 . S
C1766 C1767 1.387 . S
C1766 H1770 0.950 . S
C1766 C1775 1.390 . S
C1767 C1766 1.387 . S
C1767 C1769 1.387 . S
H1768 C1775 0.950 . S
C1769 C1767 1.387 . S
C1769 C1771 1.390 . S
C1769 H1773 0.950 . S
H1770 C1766 0.950 . S
C1771 C1769 1.390 . S
C1771 C1772 1.387 . S
C1771 H1774 0.950 . S
C1772 C1771 1.387 . S
C1772 C1775 1.387 . S
H1773 C1769 0.950 . S
H1774 C1771 0.950 . S
C1775 C1766 1.390 . S
C1775 H1768 0.950 . S
C1775 C1772 1.387 . S
C1776 C1777 1.387 . S
C1776 H1780 0.950 . S
C1776 C1785 1.390 . S
C1777 C1776 1.387 . S
C1777 C1779 1.387 . S
H1778 C1785 0.950 . S
C1779 C1777 1.387 . S
C1779 C1781 1.390 . S
C1779 H1783 0.950 . S
H1780 C1776 0.950 . S
C1781 C1779 1.390 . S
C1781 C1782 1.387 . S
C1781 H1784 0.950 . S
C1782 C1781 1.387 . S
C1782 C1785 1.387 . S
H1783 C1779 0.950 . S
H1784 C1781 0.950 . S
C1785 C1776 1.390 . S
C1785 H1778 0.950 . S
C1785 C1782 1.387 . S
C1786 C1787 1.387 . S
C1786 H1790 0.950 . S
C1786 C1795 1.390 . S
C1787 C1786 1.387 . S
C1787 C1789 1.387 . S
H1788 C1795 0.950 . S
C1789 C1787 1.387 . S
C1789 C1791 1.390 . S
C1789 H1793 0.950 . S
H1790 C1786 0.950 . S
C1791 C1789 1.390 . S
C1791 C1792 1.387 . S
C1791 H1794 0.950 . S
C1792 C1791 1.387 . S
C1792 C1795 1.387 . S
H1793 C1789 0.950 . S
H1794 C1791 0.950 . S
C1795 C1786 1.390 . S
C1795 H1788 0.950 . S
C1795 C1792 1.387 . S
C1796 C1797 1.387 . S
C1796 H1800 0.950 1_455 S
C1796 C1805 1.390 . S
C1797 C1796 1.387 . S
C1797 C1799 1.387 . S
H1798 C1805 0.950 1_655 S
C1799 C1797 1.387 . S
C1799 C1801 1.390 . S
C1799 H1803 0.950 . S
H1800 C1796 0.950 1_655 S
C1801 C1799 1.390 . S
C1801 C1802 1.387 . S
C1801 H1804 0.950 . S
C1802 C1801 1.387 . S
C1802 C1805 1.387 . S
H1803 C1799 0.950 . S
H1804 C1801 0.950 . S
C1805 C1796 1.390 . S
C1805 H1798 0.950 1_455 S
C1805 C1802 1.387 . S
C1806 C1807 1.387 . S
C1806 H1810 0.950 . S
C1806 C1815 1.390 . S
C1807 C1806 1.387 . S
C1807 C1809 1.387 . S
H1808 C1815 0.950 . S
C1809 C1807 1.387 . S
C1809 C1811 1.390 . S
C1809 H1813 0.950 . S
H1810 C1806 0.950 . S
C1811 C1809 1.390 . S
C1811 C1812 1.387 . S
C1811 H1814 0.950 . S
C1812 C1811 1.387 . S
C1812 C1815 1.387 . S
H1813 C1809 0.950 . S
H1814 C1811 0.950 . S
C1815 C1806 1.390 . S
C1815 H1808 0.950 . S
C1815 C1812 1.387 . S
C1816 C1817 1.387 . S
C1816 H1820 0.950 . S
C1816 C1825 1.390 . S
C1817 C1816 1.387 . S
C1817 C1819 1.387 . S
H1818 C1825 0.950 . S
C1819 C1817 1.387 . S
C1819 C1821 1.390 . S
C1819 H1823 0.950 . S
H1820 C1816 0.950 . S
C1821 C1819 1.390 . S
C1821 C1822 1.387 . S
C1821 H1824 0.950 . S
C1822 C1821 1.387 . S
C1822 C1825 1.387 . S
H1823 C1819 0.950 . S
H1824 C1821 0.950 . S
C1825 C1816 1.390 . S
C1825 H1818 0.950 . S
C1825 C1822 1.387 . S
C1826 C1827 1.387 . S
C1826 H1830 0.950 . S
C1826 C1835 1.390 . S
C1827 C1826 1.387 . S
C1827 C1829 1.387 . S
H1828 C1835 0.950 . S
C1829 C1827 1.387 . S
C1829 C1831 1.390 . S
C1829 H1833 0.950 . S
H1830 C1826 0.950 . S
C1831 C1829 1.390 . S
C1831 C1832 1.387 . S
C1831 H1834 0.950 . S
C1832 C1831 1.387 . S
C1832 C1835 1.387 . S
H1833 C1829 0.950 . S
H1834 C1831 0.950 . S
C1835 C1826 1.390 . S
C1835 H1828 0.950 . S
C1835 C1832 1.387 . S
C1836 C1837 1.387 . S
C1836 H1840 0.950 . S
C1836 C1845 1.390 . S
C1837 C1836 1.387 . S
C1837 C1839 1.387 1_455 S
H1838 C1845 0.950 . S
C1839 C1837 1.387 1_655 S
C1839 C1841 1.390 . S
C1839 H1843 0.950 . S
H1840 C1836 0.950 . S
C1841 C1839 1.390 . S
C1841 C1842 1.387 1_655 S
C1841 H1844 0.950 . S
C1842 C1841 1.387 1_455 S
C1842 C1845 1.387 . S
H1843 C1839 0.950 . S
H1844 C1841 0.950 . S
C1845 C1836 1.390 . S
C1845 H1838 0.950 . S
C1845 C1842 1.387 . S
C1846 C1847 1.387 . S
C1846 H1850 0.950 . S
C1846 C1855 1.390 . S
C1847 C1846 1.387 . S
C1847 C1849 1.387 . S
H1848 C1855 0.950 . S
C1849 C1847 1.387 . S
C1849 C1851 1.390 . S
C1849 H1853 0.950 . S
H1850 C1846 0.950 . S
C1851 C1849 1.390 . S
C1851 C1852 1.387 . S
C1851 H1854 0.950 . S
C1852 C1851 1.387 . S
C1852 C1855 1.387 . S
H1853 C1849 0.950 . S
H1854 C1851 0.950 . S
C1855 C1846 1.390 . S
C1855 H1848 0.950 . S
C1855 C1852 1.387 . S
C1856 C1857 1.387 . S
C1856 H1860 0.950 . S
C1856 C1865 1.390 . S
C1857 C1856 1.387 . S
C1857 C1859 1.387 . S
H1858 C1865 0.950 . S
C1859 C1857 1.387 . S
C1859 C1861 1.390 . S
C1859 H1863 0.950 . S
H1860 C1856 0.950 . S
C1861 C1859 1.390 . S
C1861 C1862 1.387 . S
C1861 H1864 0.950 . S
C1862 C1861 1.387 . S
C1862 C1865 1.387 . S
H1863 C1859 0.950 . S
H1864 C1861 0.950 . S
C1865 C1856 1.390 . S
C1865 H1858 0.950 . S
C1865 C1862 1.387 . S
C1866 C1867 1.387 . S
C1866 H1870 0.950 1_545 S
C1866 C1875 1.390 . S
C1867 C1866 1.387 . S
C1867 C1869 1.387 . S
H1868 C1875 0.950 . S
C1869 C1867 1.387 . S
C1869 C1871 1.390 . S
C1869 H1873 0.950 . S
H1870 C1866 0.950 1_565 S
C1871 C1869 1.390 . S
C1871 C1872 1.387 . S
C1871 H1874 0.950 . S
C1872 C1871 1.387 . S
C1872 C1875 1.387 . S
H1873 C1869 0.950 . S
H1874 C1871 0.950 . S
C1875 C1866 1.390 . S
C1875 H1868 0.950 . S
C1875 C1872 1.387 . S
C1876 C1877 1.387 . S
C1876 H1880 0.950 . S
C1876 C1885 1.390 . S
C1877 C1876 1.387 . S
C1877 C1879 1.387 . S
H1878 C1885 0.950 . S
C1879 C1877 1.387 . S
C1879 C1881 1.390 . S
C1879 H1883 0.950 . S
H1880 C1876 0.950 . S
C1881 C1879 1.390 . S
C1881 C1882 1.387 . S
C1881 H1884 0.950 . S
C1882 C1881 1.387 . S
C1882 C1885 1.387 . S
H1883 C1879 0.950 . S
H1884 C1881 0.950 . S
C1885 C1876 1.390 . S
C1885 H1878 0.950 . S
C1885 C1882 1.387 . S
C1886 C1887 1.375 1_554 S
C1886 H1890 0.950 . S
C1886 C1895 1.403 . S
C1887 C1886 1.375 1_556 S
C1887 C1889 1.387 . S
H1888 C1895 0.950 . S
C1889 C1887 1.387 . S
C1889 C1891 1.390 . S
C1889 H1893 0.950 . S
H1890 C1886 0.950 . S
C1891 C1889 1.390 . S
C1891 C1892 1.387 1_556 S
C1891 H1894 0.950 . S
C1892 C1891 1.387 1_554 S
C1892 C1895 1.387 . S
H1893 C1889 0.950 . S
H1894 C1891 0.950 . S
C1895 C1886 1.403 . S
C1895 H1888 0.950 . S
C1895 C1892 1.387 . S
C1896 C1897 1.387 . S
C1896 H1900 0.950 . S
C1896 C1905 1.390 . S
C1897 C1896 1.387 . S
C1897 C1899 1.387 . S
H1898 C1905 0.950 . S
C1899 C1897 1.387 . S
C1899 C1901 1.390 . S
C1899 H1903 0.950 . S
H1900 C1896 0.950 . S
C1901 C1899 1.390 . S
C1901 C1902 1.387 . S
C1901 H1904 0.950 . S
C1902 C1901 1.387 . S
C1902 C1905 1.387 . S
H1903 C1899 0.950 . S
H1904 C1901 0.950 . S
C1905 C1896 1.390 . S
C1905 H1898 0.950 . S
C1905 C1902 1.387 . S
C1906 C1907 1.387 1_556 S
C1906 H1910 0.950 . S
C1906 C1915 1.390 . S
C1907 C1906 1.387 1_554 S
C1907 C1909 1.387 . S
H1908 C1915 0.950 . S
C1909 C1907 1.387 . S
C1909 C1911 1.390 . S
C1909 H1913 0.950 . S
H1910 C1906 0.950 . S
C1911 C1909 1.390 . S
C1911 C1912 1.387 1_554 S
C1911 H1914 0.950 . S
C1912 C1911 1.387 1_556 S
C1912 C1915 1.387 . S
H1913 C1909 0.950 . S
H1914 C1911 0.950 . S
C1915 C1906 1.390 . S
C1915 H1908 0.950 . S
C1915 C1912 1.387 . S
C1916 C1917 1.387 . S
C1916 H1920 0.950 . S
C1916 C1925 1.390 . S
C1917 C1916 1.387 . S
C1917 C1919 1.387 . S
H1918 C1925 0.950 . S
C1919 C1917 1.387 . S
C1919 C1921 1.390 . S
C1919 H1923 0.950 1_565 S
H1920 C1916 0.950 . S
C1921 C1919 1.390 . S
C1921 C1922 1.387 . S
C1921 H1924 0.950 . S
C1922 C1921 1.387 . S
C1922 C1925 1.387 . S
H1923 C1919 0.950 1_545 S
H1924 C1921 0.950 . S
C1925 C1916 1.390 . S
C1925 H1918 0.950 . S
C1925 C1922 1.387 . S
C1926 C1927 1.387 . S
C1926 H1930 0.950 . S
C1926 C1935 1.390 . S
C1927 C1926 1.387 . S
C1927 C1929 1.387 . S
H1928 C1935 0.950 . S
C1929 C1927 1.387 . S
C1929 C1931 1.390 . S
C1929 H1933 0.950 . S
H1930 C1926 0.950 . S
C1931 C1929 1.390 . S
C1931 C1932 1.387 . S
C1931 H1934 0.950 . S
C1932 C1931 1.387 . S
C1932 C1935 1.387 . S
H1933 C1929 0.950 . S
H1934 C1931 0.950 . S
C1935 C1926 1.390 . S
C1935 H1928 0.950 . S
C1935 C1932 1.387 . S
C977 C111 2.144 . S
C982 C346 2.121 . S
C987 C64 1.878 . S
C992 C385 1.913 . S
C997 C77 1.512 . S
C1002 C426 1.511 1_565 S
C1012 C471 1.364 . S
C1007 C95 1.431 . S
C1017 C25 1.914 . S
C1022 C515 1.960 . S
C1032 C546 1.576 . S
C1027 C36 1.666 . S
C1042 C594 2.013 . S
C1037 C50 1.973 . S
C1047 C11 2.116 . S
C1052 C622 1.913 . S
C1062 C354 1.846 . S
C1057 C237 1.661 . S
C1067 C245 1.611 . S
C1072 C395 1.559 . S
C1082 C434 1.623 . S
C1077 C279 1.230 1_545 S
C1092 C466 1.608 . S
C1087 C175 1.601 . S
C1097 C231 0.489 . S
C1102 C502 0.525 . S
C1112 C554 2.065 . S
C1107 C251 2.034 . S
C1122 C591 1.628 . S
C1117 C273 1.634 . S
C1132 C625 2.031 . S
C1127 C181 1.973 . S
C1142 C351 2.044 . S
C1137 C165 2.247 1_545 S
C1147 C288 1.916 . S
C1152 C665 1.959 . S
C1162 C711 1.574 . S
C1157 C333 1.672 . S
C1172 C746 1.707 . S
C1167 C316 1.812 . S
C1177 C123 2.183 . S
C1182 C635 2.056 . S
C1187 C137 1.457 . S
C1192 C431 1.379 . S
C1197 C330 1.342 . S
C1202 C794 1.560 . S
C1212 C822 0.627 . S
C1207 C302 0.642 . S
C1222 C355 2.234 . S
C1217 C63 2.278 . S
C1232 C834 1.883 . S
C1227 C106 1.940 . S
C1237 C97 1.597 . S
C1242 C435 1.639 . S
C1247 C81 1.430 . S
C1252 C782 1.422 . S
C1262 C506 2.124 . S
C1257 C13 2.136 . S
C1267 C55 1.417 . S
C1272 C715 1.564 . S
C1282 C585 1.961 1_556 S
C1277 C35 1.977 . S
C1292 C871 1.934 1_455 S
C1287 C21 2.040 . S
C1302 C345 1.903 . S
C1297 C147 1.799 . S
C1312 C826 1.684 . S
C1307 C321 1.711 . S
C1317 C119 1.545 . S
C1322 C425 1.674 . S
C1327 C293 1.705 . S
C1332 C795 1.768 . S
C1337 C153 0.482 . S
C1342 C511 0.516 . S
C1352 C705 2.157 . S
C1347 C315 2.186 . S
C1357 C125 1.225 . S
C1362 C582 1.469 . S
C1367 C287 2.091 . S
C1372 C874 2.103 . S
C1377 C193 2.144 1_556 S
C1382 C342 2.063 . S
C1387 C176 1.996 . S
C1392 C674 1.962 . S
C1397 C263 1.539 . S
C1402 C542 1.606 . S
C1407 C246 1.718 . S
C1412 C755 1.755 . S
C1422 C866 2.070 . S
C1417 C277 2.114 . S
C1427 C221 1.456 . S
C1432 C422 1.422 . S
C1442 C465 1.573 . S
C1437 C260 1.585 . S
C1452 C391 0.711 . S
C1447 C204 0.702 . S
C1457 C83 2.143 . S
C1462 C906 2.119 . S
C1472 C825 1.913 . S
C1467 C92 1.878 . S
C1477 C105 1.513 . S
C1482 C946 1.511 . S
C1487 C67 1.433 . S
C1492 C791 1.366 . S
C1497 C53 1.916 . S
C1502 C675 1.960 . S
C1512 C706 1.578 . S
C1507 C8 1.665 . S
C1522 C754 2.014 . S
C1517 C22 1.975 . S
C1532 C862 1.912 . S
C1527 C39 2.116 . S
C1542 C914 1.846 . S
C1537 C265 1.662 . S
C1547 C189 1.611 . S
C1552 C835 1.562 . S
C1562 C954 1.625 . S
C1557 C209 1.238 . S
C1572 C786 1.608 . S
C1567 C217 1.601 . S
C1582 C662 0.525 . S
C1577 C259 0.489 . S
C1587 C195 2.035 . S
C1592 C714 2.060 . S
C1602 C751 1.625 . S
C1597 C203 1.632 . S
C1607 C223 1.974 . S
C1612 C865 2.031 . S
C1622 C911 2.047 . S
C1617 C319 2.248 . S
C1627 C134 1.917 . S
C1632 C505 1.959 . S
C1642 C551 1.572 . S
C1637 C151 1.669 . S
C1652 C586 1.703 . S
C1647 C162 1.813 1_545 S
C1662 C875 2.055 . S
C1657 C305 2.182 . S
C1667 C291 1.457 . S
C1672 C951 1.377 . S
C1682 C474 1.560 . S
C1677 C148 1.342 . S
C1692 C382 0.627 . S
C1687 C120 0.642 . S
C1697 C91 2.278 . S
C1702 C915 2.233 . S
C1712 C394 1.883 . S
C1707 C78 1.940 . S
C1717 C69 1.598 . S
C1722 C955 1.639 . S
C1727 C109 1.428 . S
C1732 C462 1.419 . S
C1737 C41 2.137 . S
C1742 C666 2.123 . S
C1752 C555 1.566 . S
C1747 C27 1.417 . S
C1757 C7 1.977 . S
C1762 C745 1.961 . S
C1767 C49 2.038 . S
C1772 C631 1.931 . S
C1782 C905 1.902 . S
C1777 C329 1.800 . S
C1787 C167 1.709 . S
C1792 C386 1.682 . S
C1802 C945 1.674 . S
C1797 C301 1.547 . S
C1807 C139 1.707 . S
C1812 C475 1.767 . S
C1817 C335 0.476 . S
C1822 C671 0.514 . S
C1832 C545 2.157 . S
C1827 C161 2.183 . S
C1837 C307 1.223 . S
C1842 C742 1.468 . S
C1852 C634 2.103 . S
C1847 C133 2.092 . S
C1862 C902 2.062 . S
C1857 C249 2.149 . S
C1872 C514 1.962 1_655 S
C1867 C218 1.996 1_545 S
C1877 C235 1.540 . S
C1882 C702 1.608 . S
C1892 C595 1.756 . S
C1887 C190 1.716 . S
C1897 C207 2.114 . S
C1902 C626 2.070 . S
C1907 C179 1.432 . S
C1912 C942 1.421 . S
C1922 C785 1.575 . S
C1917 C232 1.587 . S
C1932 C831 0.710 . S
C1927 C274 0.706 . S
