# Generated by pormake.
# Topology gar, (4,6)-cn, num edge types: 1
# Building blocks:
#     Node 0, Type 0, BuildingBlock: QUQFOY_clean_sbu_1, # of connection points: 4
#     Node 1, Type 0, BuildingBlock: QUQFOY_clean_sbu_1, # of connection points: 4
#     Node 2, Type 0, BuildingBlock: QUQFOY_clean_sbu_1, # of connection points: 4
#     Node 3, Type 0, BuildingBlock: QUQFOY_clean_sbu_1, # of connection points: 4
#     Node 4, Type 0, BuildingBlock: QUQFOY_clean_sbu_1, # of connection points: 4
#     Node 5, Type 0, BuildingBlock: QUQFOY_clean_sbu_1, # of connection points: 4
#     Node 6, Type 0, BuildingBlock: QUQFOY_clean_sbu_1, # of connection points: 4
#     Node 7, Type 0, BuildingBlock: QUQFOY_clean_sbu_1, # of connection points: 4
#     Node 8, Type 0, BuildingBlock: QUQFOY_clean_sbu_1, # of connection points: 4
#     Node 9, Type 0, BuildingBlock: QUQFOY_clean_sbu_1, # of connection points: 4
#     Node 10, Type 0, BuildingBlock: QUQFOY_clean_sbu_1, # of connection points: 4
#     Node 11, Type 0, BuildingBlock: QUQFOY_clean_sbu_1, # of connection points: 4
#     Node 12, Type 0, BuildingBlock: QUQFOY_clean_sbu_1, # of connection points: 4
#     Node 13, Type 0, BuildingBlock: QUQFOY_clean_sbu_1, # of connection points: 4
#     Node 14, Type 0, BuildingBlock: QUQFOY_clean_sbu_1, # of connection points: 4
#     Node 15, Type 0, BuildingBlock: QUQFOY_clean_sbu_1, # of connection points: 4
#     Node 16, Type 0, BuildingBlock: QUQFOY_clean_sbu_1, # of connection points: 4
#     Node 17, Type 0, BuildingBlock: QUQFOY_clean_sbu_1, # of connection points: 4
#     Node 18, Type 0, BuildingBlock: QUQFOY_clean_sbu_1, # of connection points: 4
#     Node 19, Type 0, BuildingBlock: QUQFOY_clean_sbu_1, # of connection points: 4
#     Node 20, Type 0, BuildingBlock: QUQFOY_clean_sbu_1, # of connection points: 4
#     Node 21, Type 0, BuildingBlock: QUQFOY_clean_sbu_1, # of connection points: 4
#     Node 22, Type 0, BuildingBlock: QUQFOY_clean_sbu_1, # of connection points: 4
#     Node 23, Type 0, BuildingBlock: QUQFOY_clean_sbu_1, # of connection points: 4
#     Node 24, Type 1, BuildingBlock: PAMTUU_clean_sbu_0, # of connection points: 6
#     Node 25, Type 1, BuildingBlock: PAMTUU_clean_sbu_0, # of connection points: 6
#     Node 26, Type 1, BuildingBlock: PAMTUU_clean_sbu_0, # of connection points: 6
#     Node 27, Type 1, BuildingBlock: PAMTUU_clean_sbu_0, # of connection points: 6
#     Node 28, Type 1, BuildingBlock: PAMTUU_clean_sbu_0, # of connection points: 6
#     Node 29, Type 1, BuildingBlock: PAMTUU_clean_sbu_0, # of connection points: 6
#     Node 30, Type 1, BuildingBlock: PAMTUU_clean_sbu_0, # of connection points: 6
#     Node 31, Type 1, BuildingBlock: PAMTUU_clean_sbu_0, # of connection points: 6
#     Node 32, Type 1, BuildingBlock: PAMTUU_clean_sbu_0, # of connection points: 6
#     Node 33, Type 1, BuildingBlock: PAMTUU_clean_sbu_0, # of connection points: 6
#     Node 34, Type 1, BuildingBlock: PAMTUU_clean_sbu_0, # of connection points: 6
#     Node 35, Type 1, BuildingBlock: PAMTUU_clean_sbu_0, # of connection points: 6
#     Node 36, Type 1, BuildingBlock: PAMTUU_clean_sbu_0, # of connection points: 6
#     Node 37, Type 1, BuildingBlock: PAMTUU_clean_sbu_0, # of connection points: 6
#     Node 38, Type 1, BuildingBlock: PAMTUU_clean_sbu_0, # of connection points: 6
#     Node 39, Type 1, BuildingBlock: PAMTUU_clean_sbu_0, # of connection points: 6
#     Edge 40, Type (0, 1), BuildingBlock: XUDNAN_clean_linker_2, # of connection points: 2
#     Edge 41, Type (0, 1), BuildingBlock: XUDNAN_clean_linker_2, # of connection points: 2
#     Edge 42, Type (0, 1), BuildingBlock: XUDNAN_clean_linker_2, # of connection points: 2
#     Edge 43, Type (0, 1), BuildingBlock: XUDNAN_clean_linker_2, # of connection points: 2
#     Edge 44, Type (0, 1), BuildingBlock: XUDNAN_clean_linker_2, # of connection points: 2
#     Edge 45, Type (0, 1), BuildingBlock: XUDNAN_clean_linker_2, # of connection points: 2
#     Edge 46, Type (0, 1), BuildingBlock: XUDNAN_clean_linker_2, # of connection points: 2
#     Edge 47, Type (0, 1), BuildingBlock: XUDNAN_clean_linker_2, # of connection points: 2
#     Edge 48, Type (0, 1), BuildingBlock: XUDNAN_clean_linker_2, # of connection points: 2
#     Edge 49, Type (0, 1), BuildingBlock: XUDNAN_clean_linker_2, # of connection points: 2
#     Edge 50, Type (0, 1), BuildingBlock: XUDNAN_clean_linker_2, # of connection points: 2
#     Edge 51, Type (0, 1), BuildingBlock: XUDNAN_clean_linker_2, # of connection points: 2
#     Edge 52, Type (0, 1), BuildingBlock: XUDNAN_clean_linker_2, # of connection points: 2
#     Edge 53, Type (0, 1), BuildingBlock: XUDNAN_clean_linker_2, # of connection points: 2
#     Edge 54, Type (0, 1), BuildingBlock: XUDNAN_clean_linker_2, # of connection points: 2
#     Edge 55, Type (0, 1), BuildingBlock: XUDNAN_clean_linker_2, # of connection points: 2
#     Edge 56, Type (0, 1), BuildingBlock: XUDNAN_clean_linker_2, # of connection points: 2
#     Edge 57, Type (0, 1), BuildingBlock: XUDNAN_clean_linker_2, # of connection points: 2
#     Edge 58, Type (0, 1), BuildingBlock: XUDNAN_clean_linker_2, # of connection points: 2
#     Edge 59, Type (0, 1), BuildingBlock: XUDNAN_clean_linker_2, # of connection points: 2
#     Edge 60, Type (0, 1), BuildingBlock: XUDNAN_clean_linker_2, # of connection points: 2
#     Edge 61, Type (0, 1), BuildingBlock: XUDNAN_clean_linker_2, # of connection points: 2
#     Edge 62, Type (0, 1), BuildingBlock: XUDNAN_clean_linker_2, # of connection points: 2
#     Edge 63, Type (0, 1), BuildingBlock: XUDNAN_clean_linker_2, # of connection points: 2
#     Edge 64, Type (0, 1), BuildingBlock: XUDNAN_clean_linker_2, # of connection points: 2
#     Edge 65, Type (0, 1), BuildingBlock: XUDNAN_clean_linker_2, # of connection points: 2
#     Edge 66, Type (0, 1), BuildingBlock: XUDNAN_clean_linker_2, # of connection points: 2
#     Edge 67, Type (0, 1), BuildingBlock: XUDNAN_clean_linker_2, # of connection points: 2
#     Edge 68, Type (0, 1), BuildingBlock: XUDNAN_clean_linker_2, # of connection points: 2
#     Edge 69, Type (0, 1), BuildingBlock: XUDNAN_clean_linker_2, # of connection points: 2
#     Edge 70, Type (0, 1), BuildingBlock: XUDNAN_clean_linker_2, # of connection points: 2
#     Edge 71, Type (0, 1), BuildingBlock: XUDNAN_clean_linker_2, # of connection points: 2
#     Edge 72, Type (0, 1), BuildingBlock: XUDNAN_clean_linker_2, # of connection points: 2
#     Edge 73, Type (0, 1), BuildingBlock: XUDNAN_clean_linker_2, # of connection points: 2
#     Edge 74, Type (0, 1), BuildingBlock: XUDNAN_clean_linker_2, # of connection points: 2
#     Edge 75, Type (0, 1), BuildingBlock: XUDNAN_clean_linker_2, # of connection points: 2
#     Edge 76, Type (0, 1), BuildingBlock: XUDNAN_clean_linker_2, # of connection points: 2
#     Edge 77, Type (0, 1), BuildingBlock: XUDNAN_clean_linker_2, # of connection points: 2
#     Edge 78, Type (0, 1), BuildingBlock: XUDNAN_clean_linker_2, # of connection points: 2
#     Edge 79, Type (0, 1), BuildingBlock: XUDNAN_clean_linker_2, # of connection points: 2
#     Edge 80, Type (0, 1), BuildingBlock: XUDNAN_clean_linker_2, # of connection points: 2
#     Edge 81, Type (0, 1), BuildingBlock: XUDNAN_clean_linker_2, # of connection points: 2
#     Edge 82, Type (0, 1), BuildingBlock: XUDNAN_clean_linker_2, # of connection points: 2
#     Edge 83, Type (0, 1), BuildingBlock: XUDNAN_clean_linker_2, # of connection points: 2
#     Edge 84, Type (0, 1), BuildingBlock: XUDNAN_clean_linker_2, # of connection points: 2
#     Edge 85, Type (0, 1), BuildingBlock: XUDNAN_clean_linker_2, # of connection points: 2
#     Edge 86, Type (0, 1), BuildingBlock: XUDNAN_clean_linker_2, # of connection points: 2
#     Edge 87, Type (0, 1), BuildingBlock: XUDNAN_clean_linker_2, # of connection points: 2
#     Edge 88, Type (0, 1), BuildingBlock: XUDNAN_clean_linker_2, # of connection points: 2
#     Edge 89, Type (0, 1), BuildingBlock: XUDNAN_clean_linker_2, # of connection points: 2
#     Edge 90, Type (0, 1), BuildingBlock: XUDNAN_clean_linker_2, # of connection points: 2
#     Edge 91, Type (0, 1), BuildingBlock: XUDNAN_clean_linker_2, # of connection points: 2
#     Edge 92, Type (0, 1), BuildingBlock: XUDNAN_clean_linker_2, # of connection points: 2
#     Edge 93, Type (0, 1), BuildingBlock: XUDNAN_clean_linker_2, # of connection points: 2
#     Edge 94, Type (0, 1), BuildingBlock: XUDNAN_clean_linker_2, # of connection points: 2
#     Edge 95, Type (0, 1), BuildingBlock: XUDNAN_clean_linker_2, # of connection points: 2
#     Edge 96, Type (0, 1), BuildingBlock: XUDNAN_clean_linker_2, # of connection points: 2
#     Edge 97, Type (0, 1), BuildingBlock: XUDNAN_clean_linker_2, # of connection points: 2
#     Edge 98, Type (0, 1), BuildingBlock: XUDNAN_clean_linker_2, # of connection points: 2
#     Edge 99, Type (0, 1), BuildingBlock: XUDNAN_clean_linker_2, # of connection points: 2
#     Edge 100, Type (0, 1), BuildingBlock: XUDNAN_clean_linker_2, # of connection points: 2
#     Edge 101, Type (0, 1), BuildingBlock: XUDNAN_clean_linker_2, # of connection points: 2
#     Edge 102, Type (0, 1), BuildingBlock: XUDNAN_clean_linker_2, # of connection points: 2
#     Edge 103, Type (0, 1), BuildingBlock: XUDNAN_clean_linker_2, # of connection points: 2
#     Edge 104, Type (0, 1), BuildingBlock: XUDNAN_clean_linker_2, # of connection points: 2
#     Edge 105, Type (0, 1), BuildingBlock: XUDNAN_clean_linker_2, # of connection points: 2
#     Edge 106, Type (0, 1), BuildingBlock: XUDNAN_clean_linker_2, # of connection points: 2
#     Edge 107, Type (0, 1), BuildingBlock: XUDNAN_clean_linker_2, # of connection points: 2
#     Edge 108, Type (0, 1), BuildingBlock: XUDNAN_clean_linker_2, # of connection points: 2
#     Edge 109, Type (0, 1), BuildingBlock: XUDNAN_clean_linker_2, # of connection points: 2
#     Edge 110, Type (0, 1), BuildingBlock: XUDNAN_clean_linker_2, # of connection points: 2
#     Edge 111, Type (0, 1), BuildingBlock: XUDNAN_clean_linker_2, # of connection points: 2
#     Edge 112, Type (0, 1), BuildingBlock: XUDNAN_clean_linker_2, # of connection points: 2
#     Edge 113, Type (0, 1), BuildingBlock: XUDNAN_clean_linker_2, # of connection points: 2
#     Edge 114, Type (0, 1), BuildingBlock: XUDNAN_clean_linker_2, # of connection points: 2
#     Edge 115, Type (0, 1), BuildingBlock: XUDNAN_clean_linker_2, # of connection points: 2
#     Edge 116, Type (0, 1), BuildingBlock: XUDNAN_clean_linker_2, # of connection points: 2
#     Edge 117, Type (0, 1), BuildingBlock: XUDNAN_clean_linker_2, # of connection points: 2
#     Edge 118, Type (0, 1), BuildingBlock: XUDNAN_clean_linker_2, # of connection points: 2
#     Edge 119, Type (0, 1), BuildingBlock: XUDNAN_clean_linker_2, # of connection points: 2
#     Edge 120, Type (0, 1), BuildingBlock: XUDNAN_clean_linker_2, # of connection points: 2
#     Edge 121, Type (0, 1), BuildingBlock: XUDNAN_clean_linker_2, # of connection points: 2
#     Edge 122, Type (0, 1), BuildingBlock: XUDNAN_clean_linker_2, # of connection points: 2
#     Edge 123, Type (0, 1), BuildingBlock: XUDNAN_clean_linker_2, # of connection points: 2
#     Edge 124, Type (0, 1), BuildingBlock: XUDNAN_clean_linker_2, # of connection points: 2
#     Edge 125, Type (0, 1), BuildingBlock: XUDNAN_clean_linker_2, # of connection points: 2
#     Edge 126, Type (0, 1), BuildingBlock: XUDNAN_clean_linker_2, # of connection points: 2
#     Edge 127, Type (0, 1), BuildingBlock: XUDNAN_clean_linker_2, # of connection points: 2
#     Edge 128, Type (0, 1), BuildingBlock: XUDNAN_clean_linker_2, # of connection points: 2
#     Edge 129, Type (0, 1), BuildingBlock: XUDNAN_clean_linker_2, # of connection points: 2
#     Edge 130, Type (0, 1), BuildingBlock: XUDNAN_clean_linker_2, # of connection points: 2
#     Edge 131, Type (0, 1), BuildingBlock: XUDNAN_clean_linker_2, # of connection points: 2
#     Edge 132, Type (0, 1), BuildingBlock: XUDNAN_clean_linker_2, # of connection points: 2
#     Edge 133, Type (0, 1), BuildingBlock: XUDNAN_clean_linker_2, # of connection points: 2
#     Edge 134, Type (0, 1), BuildingBlock: XUDNAN_clean_linker_2, # of connection points: 2
#     Edge 135, Type (0, 1), BuildingBlock: XUDNAN_clean_linker_2, # of connection points: 2
# Relax obj value: 0.192
# Max RMSD: 0.342
# Mean RMSD: 0.184
data_MOF--net-gar--node1-QUQFOY_clean_sbu_1--node2-PAMTUU_clean_sbu_0--edge1-XUDNAN_clean_linker_2
_symmetry_space_group_name_H-M    P1
_symmetry_Int_Tables_number       1
_symmetry_cell_setting            triclinic
loop_
_symmetry_equiv_pos_as_xyz
'x, y, z'
_cell_length_a     60.54899
_cell_length_b     57.101836
_cell_length_c     60.343838
_cell_angle_alpha  94.20565
_cell_angle_beta   94.255755
_cell_angle_gamma 109.53838
loop_
_atom_site_label
_atom_site_type_symbol
_atom_site_fract_x
_atom_site_fract_y
_atom_site_fract_z
_atom_type_partial_charge
O0 O 0.06634 0.24848 0.41633 0.0
Cd1 Cd 0.07115 0.27035 0.38717 0.0
Cd2 Cd 0.04604 0.30152 0.43195 0.0
O3 O 0.05406 0.26855 0.44385 0.0
O4 O 0.08814 0.25391 0.36315 0.0
O5 O 0.10813 0.28945 0.38112 0.0
C6 C 0.10851 0.27153 0.36688 0.0
C7 C 0.04717 0.34082 0.45584 0.0
C8 C 0.06026 0.24983 0.43642 0.0
C9 C 1.01959 0.28348 0.38148 0.0
O10 O 1.02155 0.29218 0.40213 0.0
O11 O 0.03651 0.27647 0.37376 0.0
O12 O 0.03187 0.31889 0.45675 0.0
O13 O 0.06277 0.34094 0.4423 0.0
O14 O 0.03653 0.76391 0.67632 0.0
Cd15 Cd 0.04007 0.79192 0.70446 0.0
Cd16 Cd 0.06934 0.82193 0.66116 0.0
O17 O 0.05504 0.78201 0.64779 0.0
O18 O 1.01472 0.77554 0.72763 0.0
O19 O 1.01201 0.80715 0.712 0.0
C20 C 1.00288 0.79056 0.72534 0.0
C21 C 0.06602 0.85971 0.64201 0.0
C22 C 0.04378 0.76202 0.65677 0.0
C23 C 0.09839 0.81643 0.70754 0.0
O24 O 0.09651 0.82478 0.68829 0.0
O25 O 0.0793 0.80503 0.71681 0.0
O26 O 0.08073 0.84866 0.63685 0.0
O27 O 0.05322 0.84959 0.65739 0.0
O28 O 0.60389 0.78362 0.90534 0.0
Cd29 Cd 0.58187 0.7773 0.93386 0.0
Cd30 Cd 0.55215 0.80244 0.88702 0.0
O31 O 0.58679 0.79773 0.87704 0.0
O32 O 0.59651 0.76076 0.9591 0.0
O33 O 0.56389 0.73862 0.93962 0.0
C34 C 0.57999 0.73917 0.95518 0.0
C35 C 0.51417 0.80375 0.86485 0.0
C36 C 0.60433 0.79117 0.8855 0.0
C37 C 0.56453 0.82667 0.94 0.0
O38 O 0.55724 0.82333 0.91903 0.0
O39 O 0.57363 0.81116 0.94856 0.0
O40 O 0.53473 0.82093 0.86581 0.0
O41 O 0.51486 0.78453 0.87463 0.0
O42 O 0.54583 0.2374 0.17482 0.0
Cd43 Cd 0.54835 0.26492 0.20349 0.0
Cd44 Cd 0.57814 0.30022 0.16499 0.0
O45 O 0.56422 0.26132 0.14921 0.0
O46 O 0.52145 0.24968 0.22557 0.0
O47 O 0.5208 0.28153 0.20909 0.0
C48 C 0.51049 0.26537 0.22235 0.0
C49 C 0.57941 0.33844 0.14401 0.0
C50 C 0.55382 0.23934 0.15544 0.0
C51 C 0.60663 0.29096 0.20981 0.0
O52 O 0.60543 0.30144 0.19159 0.0
O53 O 0.5871 0.27795 0.21756 0.0
O54 O 0.59245 0.32489 0.14063 0.0
O55 O 0.56538 0.33088 0.15917 0.0
O56 O 0.09035 0.77321 0.139 0.0
Cd57 Cd 0.09753 0.8039 0.16256 0.0
Cd58 Cd 0.11943 0.82947 0.12817 0.0
O59 O 0.107 0.79319 0.11115 0.0
O60 O 0.07522 0.79433 0.18619 0.0
O61 O 0.07639 0.82444 0.16488 0.0
C62 C 0.06735 0.81176 0.18082 0.0
C63 C 0.10793 0.86363 0.11792 0.0
C64 C 0.09631 0.77276 0.11919 0.0
C65 C 0.15022 0.82885 0.17026 0.0
O66 O 0.14917 0.83587 0.15072 0.0
O67 O 0.13147 0.81683 0.17851 0.0
O68 O 0.12409 0.858 0.10821 0.0
O69 O 0.09816 0.84962 0.13283 0.0
O70 O 0.56793 0.78242 0.44728 0.0
Cd71 Cd 0.54829 0.77963 0.47452 0.0
Cd72 Cd 0.51751 0.7931 0.43871 0.0
O73 O 0.54179 0.78477 0.42068 0.0
O74 O 0.56657 0.76809 0.4979 0.0
O75 O 0.53155 0.744 0.48217 0.0
C76 C 0.5499 0.74672 0.49582 0.0
C77 C 0.48053 0.78589 0.41869 0.0
C78 C 0.56155 0.78274 0.42675 0.0
C79 C 0.53831 0.82885 0.48109 0.0
O80 O 0.52882 0.82476 0.46105 0.0
O81 O 0.54503 0.81248 0.49011 0.0
O82 O 0.49912 0.80356 0.41485 0.0
O83 O 0.48281 0.7719 0.43394 0.0
O84 O 0.60773 0.27385 0.63778 0.0
Cd85 Cd 0.61354 0.30209 0.66331 0.0
Cd86 Cd 0.63518 0.33114 0.62999 0.0
O87 O 0.62499 0.29601 0.6114 0.0
O88 O 0.59491 0.28336 0.68631 0.0
O89 O 0.58699 0.31428 0.67174 0.0
C90 C 0.58181 0.297 0.68507 0.0
C91 C 0.62869 0.36594 0.61459 0.0
C92 C 0.61417 0.27495 0.6182 0.0
C93 C 0.66615 0.33019 0.67186 0.0
O94 O 0.66484 0.33835 0.65288 0.0
O95 O 0.64762 0.31635 0.67934 0.0
O96 O 0.64468 0.35728 0.6085 0.0
O97 O 0.61575 0.35455 0.62928 0.0
O98 O 1.0201 0.23445 0.95801 0.0
Cd99 Cd 1.02472 0.26433 0.93935 0.0
Cd100 Cd 1.00967 0.28037 0.98121 0.0
O101 O 1.01763 0.2493 0.99224 0.0
O102 O 0.03405 0.25023 0.91192 0.0
O103 O 0.058 0.28361 0.93285 0.0
C104 C 0.0545 0.26726 0.91583 0.0
C105 C 1.01874 0.3194 1.00278 0.0
C106 C 1.01943 0.23189 0.97873 0.0
C107 C 0.97923 0.27479 0.93689 0.0
O108 O 0.98039 0.27488 0.95807 0.0
O109 O 0.99617 0.27301 0.92648 0.0
O110 O 1.00239 0.29962 1.00723 0.0
O111 O 0.03156 0.31666 0.98726 0.0
O112 O 0.50153 0.07693 0.2825 0.0
Cd113 Cd 0.46998 0.06191 0.29572 0.0
Cd114 Cd 0.49669 0.05807 0.32995 0.0
O115 O 0.52085 0.06226 0.30706 0.0
O116 O 0.44638 0.07486 0.28188 0.0
O117 O 0.45939 0.08219 0.31799 0.0
C118 C 0.44534 0.08436 0.30171 0.0
C119 C 0.51049 0.08123 0.3641 0.0
C120 C 0.52008 0.07286 0.28943 0.0
C121 C 0.45434 1.01352 0.31372 0.0
O122 O 0.46943 0.025 0.33006 0.0
O123 O 0.45356 0.02386 0.29588 0.0
O124 O 0.51568 0.06162 0.3587 0.0
O125 O 0.4973 0.08803 0.35005 0.0
O126 O 0.32929 0.23945 0.59133 0.0
Cd127 Cd 0.32604 0.21044 0.56738 0.0
Cd128 Cd 0.30339 0.23937 0.5404 0.0
O129 O 0.31129 0.26135 0.5729 0.0
O130 O 0.33998 0.19053 0.5863 0.0
O131 O 0.35383 0.20278 0.55492 0.0
C132 C 0.35492 0.19103 0.57218 0.0
C133 C 0.30757 0.2519 0.50261 0.0
C134 C 0.32119 0.25732 0.59123 0.0
C135 C 0.27372 0.18729 0.55054 0.0
O136 O 0.2747 0.20666 0.54089 0.0
O137 O 0.29207 0.18553 0.56089 0.0
O138 O 0.29242 0.2561 0.5149 0.0
O139 O 0.32201 0.24254 0.51224 0.0
O140 O 0.12559 0.0338 0.79104 0.0
Cd141 Cd 0.16073 0.04179 0.80182 0.0
Cd142 Cd 0.15096 0.0688 0.83354 0.0
O143 O 0.1217 0.06514 0.81206 0.0
O144 O 0.17122 0.01681 0.78527 0.0
O145 O 0.1721 0.02113 0.82213 0.0
C146 C 0.17696 1.01058 0.8044 0.0
C147 C 0.14484 0.05348 0.86783 0.0
C148 C 0.1136 0.04742 0.79644 0.0
C149 C 0.19279 0.09463 0.81102 0.0
O150 O 0.18246 0.09512 0.82852 0.0
O151 O 0.18536 0.07557 0.79669 0.0
O152 O 0.14465 0.07554 0.86471 0.0
O153 O 0.14886 0.04014 0.85145 0.0
O154 O 0.2723 0.90889 0.0583 0.0
Cd155 Cd 0.29243 0.93718 0.04197 0.0
Cd156 Cd 0.29668 0.90198 0.01436 0.0
O157 O 0.27844 0.8793 0.03682 0.0
O158 O 0.28602 0.96741 0.05305 0.0
O159 O 0.27887 0.95189 0.01747 0.0
C160 C 0.27868 0.96886 0.03277 0.0
C161 C 0.28574 0.8905 0.97634 0.0
C162 C 0.27014 0.88611 0.0539 0.0
C163 C 0.341 0.93701 0.03946 0.0
O164 O 0.33225 0.91987 0.02345 0.0
O165 O 0.32796 0.94634 0.04982 0.0
O166 O 0.29561 0.87829 0.98836 0.0
O167 O 0.28146 0.90919 0.98609 0.0
O168 O 0.30513 0.36532 0.0958 0.0
Cd169 Cd 0.30925 0.39021 0.07172 0.0
Cd170 Cd 0.32862 0.35107 0.05248 0.0
O171 O 0.3166 0.33439 0.08298 0.0
O172 O 0.29984 0.41657 0.08826 0.0
O173 O 0.28108 0.39712 0.05604 0.0
C174 C 0.2833 0.41365 0.07259 0.0
C175 C 0.32348 0.33389 0.01355 0.0
C176 C 0.30849 0.3448 0.09858 0.0
C177 C 0.36101 0.40542 0.06216 0.0
O178 O 0.35907 0.38261 0.05773 0.0
O179 O 0.34323 0.41135 0.06657 0.0
O180 O 0.33637 0.32821 0.02885 0.0
O181 O 0.31136 0.34728 0.02052 0.0
O182 O 0.82537 0.14982 0.1092 0.0
Cd183 Cd 0.81764 0.13313 0.07666 0.0
Cd184 Cd 0.81052 0.17521 0.06851 0.0
O185 O 0.82388 0.18633 0.1012 0.0
O186 O 0.83231 0.10698 0.07462 0.0
O187 O 0.84178 0.13962 0.05492 0.0
C188 C 0.84443 0.11898 0.05975 0.0
C189 C 0.82337 0.2016 0.04107 0.0
C190 C 0.82763 0.17234 0.11536 0.0
C191 C 0.76896 0.12796 0.05987 0.0
O192 O 0.77615 0.15165 0.06212 0.0
O193 O 0.78304 0.11626 0.06389 0.0
O194 O 0.80996 0.20583 0.05532 0.0
O195 O 0.8304 0.18278 0.04302 0.0
O196 O 0.17171 0.49957 0.22907 0.0
Cd197 Cd 0.19766 0.51795 0.25432 0.0
Cd198 Cd 0.1655 0.53673 0.27085 0.0
O199 O 0.14633 0.51541 0.2425 0.0
O200 O 0.22033 0.50015 0.25652 0.0
O201 O 0.19895 0.50448 0.28389 0.0
C202 C 0.21504 0.49659 0.27662 0.0
C203 C 0.14226 0.54224 0.29852 0.0
C204 C 0.1515 0.50177 0.22766 0.0
C205 C 0.2122 0.5727 0.25972 0.0
O206 O 0.19294 0.56906 0.26823 0.0
O207 O 0.21759 0.55436 0.25191 0.0
O208 O 0.14233 0.55206 0.28006 0.0
O209 O 0.15535 0.5287 0.30139 0.0
O210 O 0.81072 0.87257 0.60539 0.0
Cd211 Cd 0.81672 0.89494 0.57926 0.0
Cd212 Cd 0.8254 0.85068 0.5607 0.0
O213 O 0.81261 0.83635 0.5918 0.0
O214 O 0.80851 0.92393 0.59196 0.0
O215 O 0.78912 0.90027 0.56143 0.0
C216 C 0.79168 0.91886 0.5761 0.0
C217 C 0.81301 0.83871 0.52128 0.0
C218 C 0.80906 0.85013 0.60807 0.0
C219 C 0.86537 0.90065 0.5661 0.0
O220 O 0.85904 0.87691 0.56366 0.0
O221 O 0.85083 0.91141 0.5711 0.0
O222 O 0.82473 0.82747 0.53255 0.0
O223 O 0.8059 0.85439 0.53279 0.0
O224 O 0.94172 0.07452 0.20248 0.0
Cd225 Cd 0.91949 0.05873 0.22519 0.0
Cd226 Cd 0.95936 0.05782 0.25117 0.0
O227 O 0.97293 0.07283 0.22284 0.0
O228 O 0.89003 0.06614 0.22027 0.0
O229 O 0.91412 0.07833 0.25174 0.0
C230 C 0.89448 0.07666 0.24055 0.0
C231 C 0.98523 0.07169 0.28392 0.0
C232 C 0.96364 0.07837 0.20529 0.0
C233 C 0.91789 1.00952 0.23817 0.0
O234 O 0.93712 0.02106 0.25029 0.0
O235 O 0.90871 0.02104 0.22529 0.0
O236 O 0.98805 0.05648 0.2685 0.0
O237 O 0.96767 0.07952 0.28068 0.0
O238 O 0.32963 0.6679 0.62312 0.0
Cd239 Cd 0.31867 0.63716 0.59988 0.0
Cd240 Cd 0.31048 0.66986 0.57174 0.0
O241 O 0.32734 0.6948 0.59937 0.0
O242 O 0.33187 0.61239 0.61126 0.0
O243 O 0.34093 0.62957 0.57988 0.0
C244 C 0.3433 0.61427 0.59389 0.0
C245 C 0.31595 0.6835 0.53638 0.0
C246 C 0.33245 0.69015 0.619 0.0
C247 C 0.26887 0.62652 0.58225 0.0
O248 O 0.27632 0.64651 0.57292 0.0
O249 O 0.28311 0.61891 0.59362 0.0
O250 O 0.3054 0.69287 0.55039 0.0
O251 O 0.32453 0.66692 0.54274 0.0
O252 O 0.46117 0.58376 0.71777 0.0
Cd253 Cd 0.43712 0.57434 0.74059 0.0
Cd254 Cd 0.47138 0.56864 0.76919 0.0
O255 O 0.48864 0.57986 0.74174 0.0
O256 O 0.41316 0.59041 0.73589 0.0
O257 O 0.43845 0.59868 0.76647 0.0
C258 C 0.42076 0.60216 0.75559 0.0
C259 C 0.49693 0.58347 0.80171 0.0
C260 C 0.48227 0.58505 0.72278 0.0
C261 C 0.42666 0.52423 0.75678 0.0
O262 O 0.44645 0.53325 0.76861 0.0
O263 O 0.41991 0.53745 0.74366 0.0
O264 O 0.49863 0.56621 0.78776 0.0
O265 O 0.47997 0.59202 0.7978 0.0
O266 O 0.6743 0.02244 0.72731 0.0
Cd267 Cd 0.70246 0.04363 0.74917 0.0
Cd268 Cd 0.67031 0.06062 0.76951 0.0
O269 O 0.65215 0.04341 0.73927 0.0
O270 O 0.72864 0.03154 0.74359 0.0
O271 O 0.71337 0.03028 0.776 0.0
C272 C 0.72912 0.02676 0.76412 0.0
C273 C 0.64468 0.05985 0.79644 0.0
C274 C 0.65537 0.02735 0.72541 0.0
C275 C 0.71526 0.09804 0.75929 0.0
O276 O 0.69884 0.09304 0.77192 0.0
O277 O 0.71763 0.08092 0.74613 0.0
O278 O 0.64677 0.07422 0.78073 0.0
O279 O 0.65769 0.04598 0.79725 0.0
O280 O 0.82072 0.73191 0.10072 0.0
Cd281 Cd 0.81951 0.70832 0.07291 0.0
Cd282 Cd 0.80659 0.74498 0.05027 0.0
O283 O 0.81718 0.7641 0.08418 0.0
O284 O 0.83512 0.68461 0.08338 0.0
O285 O 0.84863 0.70995 0.05778 0.0
C286 C 0.85071 0.69281 0.06978 0.0
C287 C 0.81818 0.7563 0.01367 0.0
C288 C 0.81994 0.75393 0.10212 0.0
C289 C 0.77003 0.69294 0.05161 0.0
O290 O 0.77447 0.71543 0.04711 0.0
O291 O 0.78608 0.68589 0.06055 0.0
O292 O 0.80471 0.7659 0.02391 0.0
O293 O 0.82687 0.74239 0.02497 0.0
O294 O 1.01398 0.60941 0.78711 0.0
Cd295 Cd 0.97917 0.5948 0.79355 0.0
Cd296 Cd 1.00095 0.57881 0.82986 0.0
O297 O 0.02942 0.59182 0.81246 0.0
O298 O 0.96224 0.60775 0.77089 0.0
O299 O 0.96253 0.61622 0.80736 0.0
C300 C 0.9549 0.61796 0.78718 0.0
C301 C 1.00993 0.58554 0.86827 0.0
C302 C 0.03158 0.60509 0.79631 0.0
C303 C 0.96002 0.54045 0.80196 0.0
O304 O 0.97494 0.54563 0.81904 0.0
O305 O 0.9597 0.55701 0.78914 0.0
O306 O 1.01596 0.56962 0.85622 0.0
O307 O 0.99854 0.59802 0.85841 0.0
O308 O 0.77871 0.37641 0.55773 0.0
Cd309 Cd 0.78735 0.40799 0.54088 0.0
Cd310 Cd 0.8064 0.38179 0.51552 0.0
O311 O 0.79543 0.3551 0.53694 0.0
O312 O 0.77189 0.42913 0.55587 0.0
O313 O 0.76463 0.41664 0.51964 0.0
C314 C 0.76183 0.43016 0.53659 0.0
C315 C 0.79829 0.37315 0.47732 0.0
C316 C 0.78438 0.35712 0.55364 0.0
C317 C 0.83935 0.42965 0.53796 0.0
O318 O 0.83733 0.41 0.52562 0.0
O319 O 0.82148 0.43262 0.54568 0.0
O320 O 0.81374 0.36615 0.48819 0.0
O321 O 0.7863 0.38402 0.48838 0.0
O322 O 0.68085 0.51978 0.30291 0.0
Cd323 Cd 0.71476 0.53721 0.31747 0.0
Cd324 Cd 0.68934 0.5453 0.35349 0.0
O325 O 0.66328 0.53642 0.32711 0.0
O326 O 0.73364 0.53178 0.2935 0.0
O327 O 0.73551 0.51784 0.3266 0.0
C328 C 0.74297 0.52056 0.30712 0.0
C329 C 0.67586 0.53534 0.3878 0.0
C330 C 0.66267 0.5239 0.30868 0.0
C331 C 0.72931 0.5883 0.34153 0.0
O332 O 0.71651 0.57868 0.35643 0.0
O333 O 0.72887 0.57542 0.3234 0.0
O334 O 0.67278 0.55351 0.37818 0.0
O335 O 0.68627 0.52197 0.37769 0.0
Tb336 Tb 0.09366 0.06899 0.05711 0.0
Tb337 Tb 0.04259 0.02971 0.03609 0.0
C338 C 0.04871 0.06434 0.08072 0.0
C339 C 0.15776 0.09634 0.06386 0.0
C340 C 0.19551 0.08395 0.04802 0.0
C341 C 0.18404 0.09683 0.03514 0.0
C342 C 0.16535 0.10297 0.04297 0.0
C343 C 0.17055 0.08545 0.07751 0.0
C344 C 0.18912 0.07917 0.06963 0.0
C345 C 0.13502 0.09761 0.07014 0.0
O346 O 0.09467 0.03118 0.06152 0.0
O347 O 0.05503 1.0113 0.06193 0.0
O348 O 0.06873 0.01956 0.01848 0.0
O349 O 0.09584 0.0588 0.02247 0.0
O350 O 1.00855 1.00568 0.04008 0.0
O351 O 1.02059 1.0101 1.00738 0.0
O352 O 0.04823 0.06388 0.01988 0.0
O353 O 0.07322 0.09257 0.04696 0.0
O354 O 0.07107 0.06678 0.08339 0.0
O355 O 0.03537 0.05413 0.06194 0.0
C356 C 0.07685 1.01228 0.06664 0.0
O357 O 0.12152 0.10206 0.05437 0.0
O358 O 0.12299 0.07975 0.08133 0.0
C359 C 0.08722 0.03626 0.01206 0.0
C360 C 0.98199 1.00916 0.01148 0.0
C361 C 0.94519 0.02873 1.00682 0.0
C362 C 0.94124 1.00518 0.01466 0.0
C363 C 0.95956 0.99551 0.01705 0.0
C364 C 0.98546 0.03178 1.00217 0.0
C365 C 0.96727 0.04148 0.99985 0.0
C366 C 1.0024 1.00206 0.0186 0.0
C367 C 0.05771 0.08706 0.02919 0.0
H368 H 0.18888 0.10123 0.01862 0.0
H369 H 0.15611 0.11174 0.03212 0.0
H370 H 0.16527 0.08034 0.09375 0.0
H371 H 0.19739 0.06907 0.07997 0.0
H372 H 0.92429 0.99479 0.0199 0.0
H373 H 0.95657 0.97807 0.02435 0.0
H374 H 1.00264 0.04272 0.99788 0.0
H375 H 0.97108 0.05979 0.99405 0.0
Tb376 Tb 0.29549 0.79812 0.31293 0.0
Tb377 Tb 0.33138 0.80468 0.27399 0.0
C378 C 0.2807 0.80931 0.26546 0.0
C379 C 0.27062 0.77197 0.36155 0.0
C380 C 0.27849 0.74347 0.39562 0.0
C381 C 0.26611 0.76019 0.39921 0.0
C382 C 0.26244 0.77452 0.38237 0.0
C383 C 0.28174 0.75435 0.35749 0.0
C384 C 0.28583 0.74043 0.37435 0.0
C385 C 0.2705 0.78953 0.34497 0.0
O386 O 0.28475 0.76328 0.29123 0.0
O387 O 0.32022 0.76559 0.27915 0.0
O388 O 0.35283 0.80632 0.30514 0.0
O389 O 0.32281 0.78353 0.32413 0.0
O390 O 0.33966 0.79 0.24415 0.0
O391 O 0.36129 0.8265 0.25989 0.0
O392 O 0.32852 0.84072 0.28317 0.0
O393 O 0.32212 0.83521 0.31935 0.0
O394 O 0.27975 0.81401 0.28699 0.0
O395 O 0.29653 0.80042 0.25798 0.0
C396 C 0.29869 0.75258 0.28259 0.0
O397 O 0.29014 0.80825 0.34575 0.0
O398 O 0.26288 0.77951 0.32453 0.0
C399 C 0.34536 0.79309 0.32176 0.0
C400 C 0.35043 0.82163 0.22104 0.0
C401 C 0.32691 0.82992 0.18195 0.0
C402 C 0.34116 0.81484 0.18079 0.0
C403 C 0.35267 0.81057 0.20023 0.0
C404 C 0.338 0.83841 0.22203 0.0
C405 C 0.32637 0.84251 0.20272 0.0
C406 C 0.35559 0.81126 0.24152 0.0
C407 C 0.33052 0.84987 0.30398 0.0
H408 H 0.25966 0.76264 0.41517 0.0
H409 H 0.25385 0.78808 0.38581 0.0
H410 H 0.28816 0.75205 0.34149 0.0
H411 H 0.2957 0.72814 0.37089 0.0
H412 H 0.34271 0.80552 0.165 0.0
H413 H 0.36202 0.7974 0.19917 0.0
H414 H 0.33562 0.84685 0.23794 0.0
H415 H 0.31553 0.85409 0.20452 0.0
Tb416 Tb 0.54307 0.04803 0.55548 0.0
Tb417 Tb 0.59637 0.05244 0.54059 0.0
C418 C 0.57906 0.03266 0.58545 0.0
C419 C 0.48695 0.0597 0.56543 0.0
C420 C 0.45864 0.08999 0.56944 0.0
C421 C 0.45165 0.06608 0.57692 0.0
C422 C 0.46566 0.05111 0.57492 0.0
C423 C 0.49371 0.08318 0.55716 0.0
C424 C 0.47956 0.09819 0.55904 0.0
C425 C 0.50253 0.04467 0.56603 0.0
O426 O 0.56223 0.08786 0.55912 0.0
O427 O 0.60062 0.08832 0.55948 0.0
O428 O 0.58378 0.07355 0.51774 0.0
O429 O 0.54396 0.05616 0.52079 0.0
O430 O 0.63272 0.06431 0.54987 0.0
O431 O 0.61793 0.04363 0.51774 0.0
O432 O 0.5708 0.01769 0.52372 0.0
O433 O 0.54326 1.01003 0.54882 0.0
O434 O 0.56408 0.04478 0.58515 0.0
O435 O 0.5901 0.02997 0.56817 0.0
C436 C 0.58509 0.09962 0.5625 0.0
O437 O 0.50632 0.03525 0.54693 0.0
O438 O 0.52182 0.05404 0.57959 0.0
C439 C 0.56172 0.07008 0.51095 0.0
C440 C 0.65007 0.03553 0.53659 0.0
C441 C 0.67921 1.00762 0.54811 0.0
C442 C 0.6825 0.02084 0.52915 0.0
C443 C 0.66811 0.03481 0.52351 0.0
C444 C 0.646 0.02126 0.55483 0.0
C445 C 0.66048 1.00757 0.56059 0.0
C446 C 0.63665 0.05239 0.53217 0.0
C447 C 0.55396 1.00202 0.53333 0.0
H448 H 0.43549 0.05912 0.58474 0.0
H449 H 0.46017 0.03307 0.5814 0.0
H450 H 0.5102 0.09016 0.54987 0.0
H451 H 0.48544 0.11657 0.55324 0.0
H452 H 0.69685 0.02131 0.51929 0.0
H453 H 0.67153 0.04565 0.50936 0.0
H454 H 0.63209 0.02133 0.5651 0.0
H455 H 0.65735 0.99734 0.57514 0.0
Tb456 Tb 0.35107 0.30757 0.80147 0.0
Tb457 Tb 0.29726 0.30909 0.80032 0.0
C458 C 0.30767 0.25998 0.80257 0.0
C459 C 0.40945 0.30075 0.7895 0.0
C460 C 0.44447 0.29098 0.76569 0.0
C461 C 0.44362 0.28758 0.78852 0.0
C462 C 0.42633 0.29244 0.80026 0.0
C463 C 0.40983 0.30367 0.76657 0.0
C464 C 0.42725 0.2989 0.75479 0.0
C465 C 0.39318 0.30827 0.80307 0.0
O466 O 0.34075 0.30452 0.76541 0.0
O467 O 0.30096 0.29842 0.76511 0.0
O468 O 0.31812 0.3419 0.78649 0.0
O469 O 0.35289 0.34646 0.80645 0.0
O470 O 0.26124 0.291 0.79064 0.0
O471 O 0.27427 0.32848 0.80787 0.0
O472 O 0.31185 0.32123 0.83561 0.0
O473 O 0.34265 0.30616 0.83639 0.0
O474 O 0.32677 0.26942 0.79261 0.0
O475 O 0.29756 0.27445 0.81208 0.0
C476 C 0.3197 0.2996 0.75453 0.0
O477 O 0.38623 0.32611 0.79644 0.0
O478 O 0.37614 0.29064 0.81025 0.0
C479 C 0.33957 0.35568 0.79426 0.0
C480 C 0.23622 0.30246 0.81445 0.0
C481 C 0.19617 0.28888 0.83817 0.0
C482 C 0.20484 0.31284 0.831 0.0
C483 C 0.22462 0.3195 0.81917 0.0
C484 C 0.22819 0.27885 0.8224 0.0
C485 C 0.20827 0.2721 0.83408 0.0
C486 C 0.2557 0.30926 0.8002 0.0
C487 C 0.32805 0.31473 0.84691 0.0
H488 H 0.45677 0.28185 0.79753 0.0
H489 H 0.42651 0.29031 0.81796 0.0
H490 H 0.39697 0.31008 0.75787 0.0
H491 H 0.42727 0.30144 0.73717 0.0
H492 H 0.19576 0.32607 0.83374 0.0
H493 H 0.23052 0.33779 0.81317 0.0
H494 H 0.23693 0.26539 0.81918 0.0
H495 H 0.20213 0.2536 0.83964 0.0
Tb496 Tb 0.05763 0.06857 0.56441 0.0
Tb497 Tb 0.06615 0.04333 0.51806 0.0
C498 C 1.01655 0.02386 0.5372 0.0
C499 C 0.04286 0.07864 0.62179 0.0
C500 C 0.03234 0.06195 0.66379 0.0
C501 C 0.03112 0.08518 0.65865 0.0
C502 C 0.03646 0.0935 0.63781 0.0
C503 C 0.0425 0.05479 0.62625 0.0
C504 C 0.03739 0.04654 0.64706 0.0
C505 C 0.05144 0.08859 0.60113 0.0
O506 O 0.05559 0.03077 0.57283 0.0
O507 O 0.07224 0.01776 0.54344 0.0
O508 O 0.09774 0.07516 0.52842 0.0
O509 O 0.0952 0.07421 0.56562 0.0
O510 O 0.05216 0.02437 0.4865 0.0
O511 O 0.08924 0.03413 0.49737 0.0
O512 O 0.05636 0.07612 0.50743 0.0
O513 O 0.06215 0.09847 0.54165 0.0
O514 O 1.02221 0.04422 0.55109 0.0
O515 O 0.03168 0.0195 0.52457 0.0
C516 C 0.06404 0.01424 0.56343 0.0
O517 O 0.07133 0.08632 0.59655 0.0
O518 O 0.03608 0.08236 0.58357 0.0
C519 C 0.10768 0.08093 0.5489 0.0
C520 C 0.07769 0.03801 0.45979 0.0
C521 C 0.07317 0.0608 0.4207 0.0
C522 C 0.08361 0.07547 0.44098 0.0
C523 C 0.08572 0.06416 0.46041 0.0
C524 C 0.06928 0.02338 0.43928 0.0
C525 C 0.06705 0.03466 0.41986 0.0
C526 C 0.07285 0.02617 0.4805 0.0
C527 C 0.05894 0.09748 0.51958 0.0
H528 H 0.02697 0.09736 0.67103 0.0
H529 H 0.03644 0.11189 0.63451 0.0
H530 H 0.04732 0.04302 0.61404 0.0
H531 H 0.03891 0.02874 0.6504 0.0
H532 H 0.08883 0.09564 0.44212 0.0
H533 H 0.09203 0.07579 0.47616 0.0
H534 H 0.06266 1.00318 0.43856 0.0
H535 H 0.05871 0.02273 0.40464 0.0
Tb536 Tb 0.31994 0.84121 0.77913 0.0
Tb537 Tb 0.29536 0.78616 0.7932 0.0
C538 C 0.32097 0.79454 0.74874 0.0
C539 C 0.3246 0.90461 0.77255 0.0
C540 C 0.29507 0.9318 0.78336 0.0
C541 C 0.31757 0.93797 0.79502 0.0
C542 C 0.33224 0.9245 0.78962 0.0
C543 C 0.30293 0.89988 0.7597 0.0
C544 C 0.2883 0.91329 0.76509 0.0
C545 C 0.33655 0.88597 0.77147 0.0
O546 O 0.28304 0.83057 0.76285 0.0
O547 O 0.26401 0.79731 0.78148 0.0
O548 O 0.29932 0.8115 0.82286 0.0
O549 O 0.29857 0.84508 0.8054 0.0
O550 O 0.2705 0.75002 0.78558 0.0
O551 O 0.29094 0.76118 0.81774 0.0
O552 O 0.33403 0.79126 0.8003 0.0
O553 O 0.34936 0.83352 0.79858 0.0
O554 O 0.32961 0.81874 0.75398 0.0
O555 O 0.30604 0.77947 0.76045 0.0
C556 C 0.26293 0.81449 0.76798 0.0
O557 O 0.34055 0.87821 0.79068 0.0
O558 O 0.32805 0.86744 0.75568 0.0
C559 C 0.29613 0.83302 0.82307 0.0
C560 C 0.28674 0.72167 0.80076 0.0
C561 C 0.31431 0.6907 0.79765 0.0
C562 C 0.30535 0.69483 0.81785 0.0
C563 C 0.29166 0.71022 0.81938 0.0
C564 C 0.29442 0.71623 0.78022 0.0
C565 C 0.30805 0.70092 0.77869 0.0
C566 C 0.27765 0.74246 0.80375 0.0
C567 C 0.35252 0.81239 0.80336 0.0
H568 H 0.32342 0.9525 0.8089 0.0
H569 H 0.34887 0.9285 0.79976 0.0
H570 H 0.29648 0.88469 0.74642 0.0
H571 H 0.27103 0.90799 0.75583 0.0
H572 H 0.30958 0.68688 0.83265 0.0
H573 H 0.28603 0.71429 0.8354 0.0
H574 H 0.29107 0.72492 0.76558 0.0
H575 H 0.31482 0.69834 0.76292 0.0
Tb576 Tb 0.56561 0.02438 0.07135 0.0
Tb577 Tb 0.54592 0.03815 0.02531 0.0
C578 C 0.59825 0.05342 0.03917 0.0
C579 C 0.59564 0.03359 0.12788 0.0
C580 C 0.60811 0.06166 0.17003 0.0
C581 C 0.61325 0.03945 0.16617 0.0
C582 C 0.60672 0.02533 0.14529 0.0
C583 C 0.59308 0.05706 0.13086 0.0
C584 C 0.59903 0.07087 0.15174 0.0
C585 C 0.58439 0.01687 0.10758 0.0
O586 O 0.55616 0.05816 0.08262 0.0
O587 O 0.55345 0.07271 0.04851 0.0
O588 O 0.51653 0.02681 0.04484 0.0
O589 O 0.52881 1.00093 0.06583 0.0
O590 O 0.54893 0.06455 1.00244 0.0
O591 O 0.52065 0.02883 0.99732 0.0
O592 O 0.54453 0.99916 0.01669 0.0
O593 O 0.56778 0.99384 0.04632 0.0
O594 O 0.59227 0.05517 0.05935 0.0
O595 O 0.58226 0.0413 0.02287 0.0
C596 C 0.5545 0.07628 0.07061 0.0
O597 O 0.5619 1.01288 0.10341 0.0
O598 O 0.59535 0.02153 0.08975 0.0
C599 C 0.51206 1.00807 0.05696 0.0
C600 C 0.53725 0.04597 0.9658 0.0
C601 C 0.55032 0.04412 0.92222 0.0
C602 C 0.52873 0.0471 0.92615 0.0
C603 C 0.52231 0.04813 0.94785 0.0
C604 C 0.55819 0.04173 0.96188 0.0
C605 C 0.56476 0.04099 0.9403 0.0
C606 C 0.53162 0.04928 0.98867 0.0
C607 C 0.55617 0.98579 0.02603 0.0
H608 H 0.62093 0.03213 0.17961 0.0
H609 H 0.6092 1.0074 0.14311 0.0
H610 H 0.58493 0.06395 0.11747 0.0
H611 H 0.59455 0.08767 0.15375 0.0
H612 H 0.51704 0.04913 0.91253 0.0
H613 H 0.50597 0.05118 0.95068 0.0
H614 H 0.56986 0.03986 0.97562 0.0
H615 H 0.58166 0.03906 0.938 0.0
Tb616 Tb 0.29904 0.24676 0.28563 0.0
Tb617 Tb 0.32347 0.30249 0.30396 0.0
C618 C 0.30302 0.28872 0.25295 0.0
C619 C 0.2908 0.18112 0.28245 0.0
C620 C 0.31532 0.14962 0.29562 0.0
C621 C 0.30082 0.1438 0.27519 0.0
C622 C 0.28868 0.15954 0.26862 0.0
C623 C 0.30415 0.18615 0.30337 0.0
C624 C 0.31622 0.17052 0.30993 0.0
C625 C 0.28227 0.20032 0.27409 0.0
O626 O 0.33768 0.25175 0.28854 0.0
O627 O 0.35234 0.29358 0.28673 0.0
O628 O 0.33169 0.28232 0.33129 0.0
O629 O 0.29929 0.24825 0.32228 0.0
O630 O 0.33889 0.34036 0.29885 0.0
O631 O 0.33728 0.32889 0.33195 0.0
O632 O 0.28611 0.29335 0.31413 0.0
O633 O 0.26803 0.2593 0.28894 0.0
O634 O 0.30206 0.26562 0.2548 0.0
O635 O 0.30591 0.30423 0.27109 0.0
C636 C 0.35534 0.27152 0.28402 0.0
O637 O 0.27367 0.21181 0.28864 0.0
O638 O 0.29695 0.21606 0.26301 0.0
C639 C 0.3156 0.26289 0.33753 0.0
C640 C 0.33145 0.36668 0.3267 0.0
C641 C 0.30969 0.40257 0.33389 0.0
C642 C 0.33337 0.40985 0.32934 0.0
C643 C 0.34416 0.39198 0.32574 0.0
C644 C 0.30824 0.35951 0.33244 0.0
C645 C 0.29746 0.37732 0.33607 0.0
C646 C 0.34175 0.34771 0.3201 0.0
C647 C 0.26615 0.27597 0.30465 0.0
H648 H 0.29966 0.12768 0.26391 0.0
H649 H 0.2786 0.15552 0.25235 0.0
H650 H 0.30634 0.20295 0.31417 0.0
H651 H 0.32753 0.17581 0.32556 0.0
H652 H 0.34322 0.42923 0.3277 0.0
H653 H 0.36211 0.39779 0.32139 0.0
H654 H 0.29812 0.34004 0.33327 0.0
H655 H 0.27911 0.37109 0.33922 0.0
Tb656 Tb 0.57162 0.54857 0.07378 0.0
Tb657 Tb 0.56684 0.52163 0.0249 0.0
C658 C 0.52361 0.51573 0.05016 0.0
C659 C 0.57453 0.55585 0.13481 0.0
C660 C 0.57686 0.53421 0.17495 0.0
C661 C 0.56574 0.55215 0.17323 0.0
C662 C 0.56458 0.56289 0.15327 0.0
C663 C 0.5853 0.53769 0.13632 0.0
C664 C 0.58656 0.52706 0.15621 0.0
C665 C 0.57227 0.56613 0.11356 0.0
O666 O 0.56944 0.50956 0.08012 0.0
O667 O 0.57889 0.4969 0.04638 0.0
O668 O 0.6003 0.55149 0.02808 0.0
O669 O 0.60802 0.55683 0.06604 0.0
O670 O 0.54434 0.50535 0.99574 0.0
O671 O 0.58041 0.5058 0.99899 0.0
O672 O 0.56184 0.55822 0.01828 0.0
O673 O 0.57453 0.58004 0.05302 0.0
O674 O 0.53532 0.53849 0.05903 0.0
O675 O 0.53485 0.50317 0.03976 0.0
C676 C 0.57522 0.49293 0.06748 0.0
O677 O 0.59068 0.57163 0.10248 0.0
O678 O 0.55309 0.55388 0.10066 0.0
C679 C 0.61473 0.56134 0.04612 0.0
C680 C 0.56522 0.51566 0.96509 0.0
C681 C 0.56477 0.54654 0.93115 0.0
C682 C 0.5831 0.55426 0.94855 0.0
C683 C 0.58322 0.539 0.96557 0.0
C684 C 0.54779 0.50734 0.94692 0.0
C685 C 0.54751 0.52273 0.93008 0.0
C686 C 0.56162 0.50267 0.98531 0.0
C687 C 0.56861 0.57984 0.0313 0.0
H688 H 0.55793 0.55789 0.18728 0.0
H689 H 0.55584 0.57657 0.15222 0.0
H690 H 0.59284 0.5318 0.12213 0.0
H691 H 0.59566 0.51369 0.15702 0.0
H692 H 0.59653 0.5726 0.94961 0.0
H693 H 0.59661 0.54606 0.97968 0.0
H694 H 0.53359 0.48961 0.94645 0.0
H695 H 0.53334 0.51639 0.9166 0.0
Tb696 Tb 0.8276 0.30942 0.28183 0.0
Tb697 Tb 0.80027 0.26187 0.30554 0.0
C698 C 0.81918 0.25579 0.25914 0.0
C699 C 0.84525 0.37353 0.26928 0.0
C700 C 0.83766 0.41915 0.27688 0.0
C701 C 0.85625 0.41767 0.26483 0.0
C702 C 0.86007 0.39491 0.26109 0.0
C703 C 0.8268 0.375 0.28134 0.0
C704 C 0.82297 0.39754 0.28502 0.0
C705 C 0.84888 0.34956 0.266 0.0
O706 O 0.78982 0.30713 0.27552 0.0
O707 O 0.77031 0.26753 0.2841 0.0
O708 O 0.79116 0.29193 0.32134 0.0
O709 O 0.82499 0.32255 0.316 0.0
O710 O 0.77594 0.22558 0.30417 0.0
O711 O 0.79506 0.2452 0.33554 0.0
O712 O 0.83874 0.2735 0.32034 0.0
O713 O 0.85587 0.29417 0.29183 0.0
O714 O 0.82106 0.27881 0.25615 0.0
O715 O 0.81453 0.24682 0.27826 0.0
C716 C 0.76963 0.28815 0.27539 0.0
O717 O 0.85676 0.34251 0.28406 0.0
O718 O 0.83117 0.33156 0.25512 0.0
C719 C 0.80594 0.31458 0.32614 0.0
C720 C 0.7901 0.20258 0.32801 0.0
C721 C 0.80474 0.16116 0.32038 0.0
C722 C 0.78103 0.15771 0.32327 0.0
C723 C 0.77374 0.17834 0.32695 0.0
C724 C 0.81406 0.20602 0.32726 0.0
C725 C 0.82133 0.18551 0.32353 0.0
C726 C 0.78189 0.22366 0.325 0.0
C727 C 0.85812 0.28337 0.31015 0.0
H728 H 0.8678 0.43406 0.25836 0.0
H729 H 0.87448 0.39398 0.25186 0.0
H730 H 0.81522 0.35862 0.2878 0.0
H731 H 0.80811 0.39785 0.29384 0.0
H732 H 0.7679 0.13916 0.32123 0.0
H733 H 0.75515 0.17537 0.32734 0.0
H734 H 0.82697 0.22457 0.32775 0.0
H735 H 0.83966 0.18898 0.32112 0.0
Tb736 Tb 0.05226 0.5419 0.58179 0.0
Tb737 Tb 0.05068 0.56451 0.53499 0.0
C738 C 0.09715 0.57003 0.56193 0.0
C739 C 0.0715 0.54523 0.64015 0.0
C740 C 0.09666 0.57771 0.67796 0.0
C741 C 0.10045 0.55502 0.67263 0.0
C742 C 0.08792 0.53889 0.65385 0.0
C743 C 0.06843 0.56828 0.64493 0.0
C744 C 0.08071 0.58422 0.66365 0.0
C745 C 0.05921 0.5291 0.61976 0.0
O746 O 0.04271 0.5757 0.59015 0.0
O747 O 0.05496 0.59725 0.5602 0.0
O748 O 1.01582 0.55452 0.54646 0.0
O749 O 1.01754 0.52203 0.56534 0.0
O750 O 0.06499 0.59281 0.51462 0.0
O751 O 0.03215 0.56265 0.50377 0.0
O752 O 0.04782 0.52482 0.52404 0.0
O753 O 0.05473 0.51149 0.55812 0.0
O754 O 0.0853 0.57071 0.57893 0.0
O755 O 0.08611 0.56366 0.54184 0.0
C756 C 0.04798 0.59685 0.5806 0.0
O757 O 0.0393 0.5314 0.61218 0.0
O758 O 0.07266 0.52874 0.60393 0.0
C759 C 1.00538 0.53349 0.55464 0.0
C760 C 0.05662 0.57864 0.47613 0.0
C761 C 0.07078 0.57195 0.43348 0.0
C762 C 0.0482 0.57306 0.43584 0.0
C763 C 0.04125 0.57649 0.45698 0.0
C764 C 0.07904 0.57713 0.47394 0.0
C765 C 0.08611 0.57395 0.45277 0.0
C766 C 0.04866 0.58197 0.49812 0.0
C767 C 0.05108 0.50731 0.53602 0.0
H768 H 0.11268 0.54949 0.68323 0.0
H769 H 0.09099 0.52146 0.65005 0.0
H770 H 0.05629 0.57395 0.63435 0.0
H771 H 0.07676 0.60114 0.66736 0.0
H772 H 0.03581 0.5711 0.42134 0.0
H773 H 1.0238 0.57736 0.4584 0.0
H774 H 0.09113 0.57853 0.48855 0.0
H775 H 0.1037 0.57345 0.45153 0.0
Tb776 Tb 0.849 0.80901 0.31596 0.0
Tb777 Tb 0.79377 0.80473 0.30547 0.0
C778 C 0.80754 0.76215 0.32384 0.0
C779 C 0.91071 0.81694 0.3065 0.0
C780 C 0.94606 0.82415 0.27703 0.0
C781 C 0.94923 0.81636 0.29829 0.0
C782 C 0.93169 0.81274 0.31284 0.0
C783 C 0.90764 0.82527 0.28557 0.0
C784 C 0.92512 0.82883 0.27097 0.0
C785 C 0.89141 0.81063 0.32093 0.0
O786 O 0.84299 0.80805 0.27947 0.0
O787 O 0.80293 0.78813 0.27463 0.0
O788 O 0.81388 0.83688 0.29007 0.0
O789 O 0.84947 0.84657 0.3111 0.0
O790 O 0.75883 0.78198 0.29463 0.0
O791 O 0.76799 0.82169 0.30415 0.0
O792 O 0.80515 0.82357 0.33969 0.0
O793 O 0.83686 0.81143 0.34956 0.0
O794 O 0.82684 0.7699 0.31401 0.0
O795 O 0.79425 0.77581 0.32624 0.0
C796 C 0.82345 0.796 0.26633 0.0
O797 O 0.88443 0.82878 0.3282 0.0
O798 O 0.87361 0.79064 0.31362 0.0
C799 C 0.83519 0.85229 0.29673 0.0
C800 C 0.73023 0.79521 0.31124 0.0
C801 C 0.6891 0.78724 0.33313 0.0
C802 C 0.68826 0.77423 0.31218 0.0
C803 C 0.70859 0.77828 0.30133 0.0
C804 C 0.73142 0.8075 0.33258 0.0
C805 C 0.71102 0.8036 0.3434 0.0
C806 C 0.75095 0.80039 0.29858 0.0
C807 C 0.82009 0.82009 0.35521 0.0
H808 H 0.96525 0.81297 0.30368 0.0
H809 H 0.93433 0.8062 0.32891 0.0
H810 H 0.89147 0.82845 0.2803 0.0
H811 H 0.92187 0.83453 0.25468 0.0
H812 H 0.6718 0.76109 0.30399 0.0
H813 H 0.70732 0.76846 0.28496 0.0
H814 H 0.74798 0.82054 0.34069 0.0
H815 H 0.71231 0.81405 0.35945 0.0
Tb816 Tb 0.8164 0.32205 0.82075 0.0
Tb817 Tb 0.85296 0.32181 0.78352 0.0
C818 C 0.80296 0.32832 0.77075 0.0
C819 C 0.79341 0.30711 0.87252 0.0
C820 C 0.80656 0.28541 0.90949 0.0
C821 C 0.80171 0.27246 0.88801 0.0
C822 C 0.79529 0.2832 0.86973 0.0
C823 C 0.79709 0.31959 0.8941 0.0
C824 C 0.80356 0.3088 0.91248 0.0
C825 C 0.79223 0.32064 0.85285 0.0
O826 O 0.81384 0.28345 0.81221 0.0
O827 O 0.82294 0.28814 0.7765 0.0
O828 O 0.86677 0.30733 0.81198 0.0
O829 O 0.84858 0.32198 0.83912 0.0
O830 O 0.87166 0.30348 0.76515 0.0
O831 O 0.87384 0.3412 0.7599 0.0
O832 O 0.86738 0.35584 0.80582 0.0
O833 O 0.83201 0.35977 0.81134 0.0
O834 O 0.79533 0.32082 0.78973 0.0
O835 O 0.82516 0.33312 0.76688 0.0
C836 C 0.81371 0.27393 0.79175 0.0
O837 O 0.81147 0.33922 0.85108 0.0
O838 O 0.784 0.30685 0.83381 0.0
C839 C 0.86399 0.31179 0.83312 0.0
C840 C 0.86674 0.31281 0.72813 0.0
C841 C 0.84026 0.30568 0.68634 0.0
C842 C 0.86296 0.3238 0.69027 0.0
C843 C 0.87608 0.32744 0.71113 0.0
C844 C 0.84484 0.29344 0.72347 0.0
C845 C 0.83172 0.28994 0.70281 0.0
C846 C 0.8768 0.32085 0.75153 0.0
C847 C 0.85467 0.36991 0.80986 0.0
H848 H 0.80338 0.2542 0.88523 0.0
H849 H 0.79288 0.27319 0.85328 0.0
H850 H 0.79616 0.33821 0.89658 0.0
H851 H 0.80725 0.31925 0.92884 0.0
H852 H 0.86983 0.33631 0.67783 0.0
H853 H 0.89273 0.34272 0.71445 0.0
H854 H 0.83702 0.28203 0.73627 0.0
H855 H 0.81435 0.27575 0.7001 0.0
Tb856 Tb 0.79333 0.764 0.80104 0.0
Tb857 Tb 0.81725 0.82133 0.81513 0.0
C858 C 0.79604 0.8038 0.76531 0.0
C859 C 0.7873 0.6995 0.78944 0.0
C860 C 0.81805 0.67253 0.78333 0.0
C861 C 0.79814 0.66818 0.7679 0.0
C862 C 0.78287 0.68164 0.77093 0.0
C863 C 0.80644 0.70281 0.80545 0.0
C864 C 0.82162 0.68947 0.80244 0.0
C865 C 0.77493 0.71765 0.79017 0.0
O866 O 0.83041 0.76809 0.79484 0.0
O867 O 0.84694 0.81057 0.80106 0.0
O868 O 0.81549 0.80441 0.84694 0.0
O869 O 0.81272 0.76524 0.83365 0.0
O870 O 0.83802 0.85671 0.80747 0.0
O871 O 0.8293 0.85082 0.84092 0.0
O872 O 0.77951 0.81717 0.81972 0.0
O873 O 0.76342 0.7745 0.8146 0.0
O874 O 0.79526 0.78112 0.76905 0.0
O875 O 0.79917 0.82086 0.78222 0.0
C876 C 0.84879 0.78867 0.79395 0.0
O877 O 0.77465 0.72835 0.80988 0.0
O878 O 0.78063 0.73392 0.77573 0.0
C879 C 0.81584 0.78219 0.85064 0.0
C880 C 0.83241 0.88963 0.82861 0.0
C881 C 0.82049 0.9327 0.82505 0.0
C882 C 0.84414 0.93466 0.82991 0.0
C883 C 0.85006 0.9132 0.83167 0.0
C884 C 0.80872 0.88763 0.82478 0.0
C885 C 0.80279 0.90903 0.82306 0.0
C886 C 0.83892 0.86721 0.82751 0.0
C887 C 0.76118 0.79644 0.82082 0.0
H888 H 0.79486 0.65506 0.75311 0.0
H889 H 0.76836 0.67905 0.75828 0.0
H890 H 0.81057 0.71679 0.81969 0.0
H891 H 0.83699 0.69368 0.81443 0.0
H892 H 0.85808 0.95269 0.83162 0.0
H893 H 0.86844 0.91493 0.83462 0.0
H894 H 0.79492 0.86949 0.82222 0.0
H895 H 0.78445 0.90688 0.81892 0.0
Tb896 Tb 0.61213 0.57498 0.56981 0.0
Tb897 Tb 0.55871 0.53913 0.55073 0.0
C898 C 0.57034 0.56698 0.59901 0.0
C899 C 0.6751 0.59481 0.57291 0.0
C900 C 0.70254 0.56836 0.55499 0.0
C901 C 0.69243 0.58172 0.5413 0.0
C902 C 0.67872 0.59475 0.55013 0.0
C903 C 0.68761 0.58412 0.58705 0.0
C904 C 0.701 0.57079 0.57817 0.0
C905 C 0.65468 0.6003 0.5808 0.0
O906 O 0.61306 0.53721 0.56729 0.0
O907 O 0.57401 0.5153 0.56934 0.0
O908 O 0.58118 0.52957 0.52817 0.0
O909 O 0.61045 0.56764 0.53375 0.0
O910 O 0.52689 0.51218 0.55648 0.0
O911 O 0.53132 0.52703 0.52452 0.0
O912 O 0.56388 0.57652 0.53949 0.0
O913 O 0.59238 0.60002 0.56702 0.0
O914 O 0.59258 0.56906 0.59883 0.0
O915 O 0.55555 0.56001 0.58086 0.0
C916 C 0.59627 0.51667 0.5708 0.0
O917 O 0.64141 0.60636 0.56584 0.0
O918 O 0.64206 0.58389 0.59296 0.0
C919 C 0.60027 0.54572 0.52228 0.0
C920 C 0.4952 0.52097 0.53949 0.0
C921 C 0.4565 0.53445 0.55078 0.0
C922 C 0.45448 0.50914 0.54751 0.0
C923 C 0.47372 0.50246 0.54189 0.0
C924 C 0.49705 0.54622 0.54207 0.0
C925 C 0.47783 0.5529 0.54755 0.0
C926 C 0.51638 0.51426 0.53746 0.0
C927 C 0.57583 0.59824 0.55105 0.0
H928 H 0.69391 0.58088 0.52353 0.0
H929 H 0.66957 0.60308 0.53874 0.0
H930 H 0.68522 0.58399 0.60467 0.0
H931 H 0.70842 0.56071 0.58933 0.0
H932 H 0.43817 0.49455 0.54975 0.0
H933 H 0.47209 0.48291 0.54024 0.0
H934 H 0.51365 0.56085 0.54074 0.0
H935 H 0.48002 0.57254 0.55028 0.0
Tb936 Tb 0.03758 0.54628 0.06998 0.0
Tb937 Tb 0.08926 0.54979 0.05129 0.0
C938 C 0.07468 0.52981 0.0972 0.0
C939 C 0.98669 0.56611 0.08008 0.0
C940 C 0.96252 0.60064 0.07596 0.0
C941 C 0.9624 0.58842 0.09545 0.0
C942 C 0.97433 0.57131 0.09744 0.0
C943 C 0.98714 0.5785 0.06075 0.0
C944 C 0.97512 0.59543 0.05867 0.0
C945 C 0.99906 0.54786 0.08219 0.0
O946 O 0.06361 0.58245 0.08317 0.0
O947 O 0.08887 0.58804 0.05602 0.0
O948 O 0.06611 0.55064 0.02241 0.0
O949 O 0.04012 0.56518 0.04001 0.0
O950 O 0.12617 0.566 0.05583 0.0
O951 O 0.10888 0.5381 0.0282 0.0
O952 O 0.07009 0.51001 0.05019 0.0
O953 O 0.03191 0.5094 0.05222 0.0
O954 O 0.05222 0.52611 0.09241 0.0
O955 O 0.09121 0.54412 0.08639 0.0
C956 C 0.07926 0.59726 0.0718 0.0
O957 O 1.00089 0.53584 0.06356 0.0
O958 O 1.01875 0.55534 0.09535 0.0
C959 C 0.0498 0.5611 0.0221 0.0
C960 C 0.14475 0.53689 0.04545 0.0
C961 C 0.1752 0.50999 0.05624 0.0
C962 C 0.17365 0.51808 0.03487 0.0
C963 C 0.15858 0.53139 0.02955 0.0
C964 C 0.14594 0.52848 0.06664 0.0
C965 C 0.16091 0.51515 0.07195 0.0
C966 C 0.12891 0.55098 0.03973 0.0
C967 C 0.04724 0.49804 0.04834 0.0
H968 H 0.95325 0.59221 0.10928 0.0
H969 H 0.97389 0.56213 0.11258 0.0
H970 H 0.99661 0.57492 0.04711 0.0
H971 H 0.97538 0.60408 0.04327 0.0
H972 H 0.1845 0.51465 0.02241 0.0
H973 H 0.15786 0.53759 0.01305 0.0
H974 H 0.1354 0.53237 0.07918 0.0
H975 H 0.16126 0.50887 0.08844 0.0
H976 H 0.04311 0.22227 0.017 0.0
H977 H 0.99791 0.18655 0.95609 0.0
H978 H 1.00234 0.14649 0.96325 0.0
H979 H 0.08348 0.18965 0.01151 0.0
H980 H 0.088 0.18589 0.04071 0.0
H981 H 0.07987 0.21185 0.03249 0.0
H982 H 0.04379 0.19862 0.05511 0.0
H983 H 0.05197 0.17276 0.0636 0.0
H984 H 1.02294 0.16723 0.0499 0.0
H985 H 1.01383 0.11137 0.97434 0.0
H986 H 0.0297 0.08144 0.99037 0.0
H987 H 0.06756 0.13735 0.04536 0.0
C988 C 0.03369 0.20583 1.00556 0.0
C989 C 1.01996 0.20761 0.986 0.0
C990 C 1.00844 0.18575 0.97115 0.0
C991 C 1.01086 0.16283 0.97506 0.0
C992 C 1.02497 0.16177 0.99397 0.0
C993 C 0.03606 0.18249 0.00918 0.0
C994 C 0.05096 0.17587 0.02763 0.0
C995 C 0.07713 0.19177 0.02811 0.0
C996 C 0.04187 0.1788 0.05042 0.0
C997 C 0.0467 0.14843 0.02011 0.0
C998 C 0.03158 0.14091 1.00063 0.0
C999 C 1.02539 0.11691 0.98978 0.0
C1000 C 0.03454 0.09993 0.99915 0.0
C1001 C 0.04968 0.10664 0.01941 0.0
C1002 C 0.05596 0.13145 0.02994 0.0
H1003 H 0.16078 0.82551 0.21499 0.0
H1004 H 0.19203 0.83725 0.15245 0.0
H1005 H 0.22896 0.83486 0.17058 0.0
H1006 H 0.21561 0.86244 0.25156 0.0
H1007 H 0.2089 0.8415 0.273 0.0
H1008 H 0.18536 0.84583 0.25558 0.0
H1009 H 0.16776 0.79807 0.24445 0.0
H1010 H 0.19136 0.79361 0.26159 0.0
H1011 H 0.18583 0.78208 0.23237 0.0
H1012 H 0.26051 0.8261 0.19374 0.0
H1013 H 0.28652 0.81607 0.22192 0.0
H1014 H 0.23716 0.8139 0.2709 0.0
C1015 C 0.17559 0.82821 0.20525 0.0
C1016 C 0.17346 0.83166 0.18226 0.0
C1017 C 0.19323 0.83489 0.17009 0.0
C1018 C 0.21431 0.83351 0.18023 0.0
C1019 C 0.21563 0.82953 0.20271 0.0
C1020 C 0.19702 0.82745 0.21525 0.0
C1021 C 0.20303 0.8227 0.23904 0.0
C1022 C 0.20324 0.84442 0.25578 0.0
C1023 C 0.18598 0.79762 0.24468 0.0
C1024 C 0.22768 0.82179 0.2377 0.0
C1025 C 0.23447 0.82561 0.2165 0.0
C1026 C 0.25562 0.82371 0.21054 0.0
C1027 C 0.27034 0.81801 0.2267 0.0
C1028 C 0.26426 0.81482 0.24879 0.0
C1029 C 0.24258 0.81679 0.25432 0.0
H1030 H 0.54808 0.87411 0.46462 0.0
H1031 H 0.53525 0.83876 0.52584 0.0
H1032 H 0.53698 0.87908 0.54569 0.0
H1033 H 0.59029 0.93317 0.49133 0.0
H1034 H 0.58068 0.95152 0.47224 0.0
H1035 H 0.57832 0.91994 0.46315 0.0
H1036 H 0.53371 0.90914 0.45147 0.0
H1037 H 0.53588 0.94061 0.46074 0.0
H1038 H 0.5151 0.91461 0.47177 0.0
H1039 H 0.53722 0.92283 0.55793 0.0
H1040 H 0.54136 0.96748 0.56313 0.0
H1041 H 0.5574 0.97513 0.49461 0.0
C1042 C 0.54574 0.87489 0.48225 0.0
C1043 C 0.54134 0.85326 0.4937 0.0
C1044 C 0.53869 0.8551 0.51679 0.0
C1045 C 0.53952 0.87788 0.52814 0.0
C1046 C 0.54352 0.89877 0.51624 0.0
C1047 C 0.5471 0.89757 0.49391 0.0
C1048 C 0.55191 0.92285 0.48511 0.0
C1049 C 0.57678 0.93243 0.47751 0.0
C1050 C 0.53302 0.92172 0.46615 0.0
C1051 C 0.55006 0.93846 0.50586 0.0
C1052 C 0.54492 0.92414 0.52357 0.0
C1053 C 0.54146 0.93421 0.54423 0.0
C1054 C 0.54366 0.95957 0.54696 0.0
C1055 C 0.54964 0.97479 0.52926 0.0
C1056 C 0.55288 0.96399 0.50845 0.0
H1057 H 0.55152 0.32393 0.68901 0.0
H1058 H 0.56541 0.2589 0.71081 0.0
H1059 H 0.53102 0.24958 0.73222 0.0
H1060 H 0.5335 0.34228 0.74116 0.0
H1061 H 0.51081 0.3523 0.72831 0.0
H1062 H 0.53624 0.35368 0.71405 0.0
H1063 H 0.50897 0.3267 0.67974 0.0
H1064 H 0.48344 0.32512 0.69396 0.0
H1065 H 0.4877 0.29677 0.68334 0.0
H1066 H 0.49551 0.24706 0.75144 0.0
H1067 H 0.46178 0.25268 0.76877 0.0
H1068 H 0.47072 0.31973 0.73561 0.0
C1069 C 0.54728 0.30773 0.69827 0.0
C1070 C 0.56121 0.29214 0.69817 0.0
C1071 C 0.5551 0.27117 0.7106 0.0
C1072 C 0.53552 0.26563 0.72279 0.0
C1073 C 0.52214 0.28125 0.72249 0.0
C1074 C 0.52776 0.30194 0.71069 0.0
C1075 C 0.51065 0.31595 0.71377 0.0
C1076 C 0.52357 0.34263 0.72499 0.0
C1077 C 0.49687 0.31614 0.69137 0.0
C1078 C 0.49469 0.29992 0.72921 0.0
C1079 C 0.50162 0.27994 0.73389 0.0
C1080 C 0.48993 0.26267 0.74795 0.0
C1081 C 0.47085 0.26608 0.75781 0.0
C1082 C 0.46362 0.28669 0.75367 0.0
C1083 C 0.47561 0.30363 0.73892 0.0
H1084 H 0.08814 0.88685 0.60574 0.0
H1085 H 0.03845 0.88726 0.65386 0.0
H1086 H 0.03334 0.92443 0.63922 0.0
H1087 H 0.11516 0.95539 0.60715 0.0
H1088 H 0.11802 0.95554 0.57764 0.0
H1089 H 0.11834 0.92875 0.59156 0.0
H1090 H 0.08396 0.9003 0.5635 0.0
H1091 H 0.08354 0.92701 0.5495 0.0
H1092 H 0.05714 0.90738 0.55979 0.0
H1093 H 0.03329 0.96288 0.61987 0.0
H1094 H 0.03749 0.99791 0.59756 0.0
H1095 H 0.08665 0.97589 0.55936 0.0
C1096 C 0.07614 0.89469 0.61326 0.0
C1097 C 0.06373 0.8832 0.63146 0.0
C1098 C 0.0483 0.89482 0.64022 0.0
C1099 C 0.04524 0.91631 0.63189 0.0
C1100 C 0.05753 0.92698 0.61425 0.0
C1101 C 0.07267 0.91654 0.60487 0.0
C1102 C 0.08344 0.9321 0.58579 0.0
C1103 C 0.11035 0.94362 0.59083 0.0
C1104 C 0.07662 0.91572 0.5633 0.0
C1105 C 0.07211 0.9528 0.586 0.0
C1106 C 0.05728 0.94923 0.60276 0.0
C1107 C 0.04491 0.96562 0.60677 0.0
C1108 C 0.04757 0.98592 0.59377 0.0
C1109 C 0.06251 0.99081 0.57619 0.0
C1110 C 0.07492 0.9734 0.57235 0.0
H1111 H 0.46461 0.77109 0.85824 0.0
H1112 H 0.50997 0.84498 0.84659 0.0
H1113 H 0.47537 0.85393 0.83073 0.0
H1114 H 0.42329 0.7608 0.80652 0.0
H1115 H 0.39718 0.74478 0.81931 0.0
H1116 H 0.42531 0.74341 0.82988 0.0
H1117 H 0.41983 0.76022 0.86918 0.0
H1118 H 0.39171 0.76168 0.85864 0.0
H1119 H 0.41411 0.78921 0.87285 0.0
H1120 H 0.43499 0.85644 0.81645 0.0
H1121 H 0.39404 0.8517 0.80407 0.0
H1122 H 0.37107 0.77581 0.82236 0.0
C1123 C 0.46741 0.78916 0.85225 0.0
C1124 C 0.49112 0.80725 0.85403 0.0
C1125 C 0.49287 0.83049 0.84576 0.0
C1126 C 0.47295 0.83587 0.83659 0.0
C1127 C 0.45025 0.81798 0.83519 0.0
C1128 C 0.44727 0.7949 0.84265 0.0
C1129 C 0.42053 0.77915 0.83883 0.0
C1130 C 0.41633 0.75563 0.82268 0.0
C1131 C 0.41098 0.77214 0.86121 0.0
C1132 C 0.40909 0.79693 0.82826 0.0
C1133 C 0.42684 0.81927 0.82651 0.0
C1134 C 0.42118 0.83888 0.81777 0.0
C1135 C 0.39737 0.83594 0.81068 0.0
C1136 C 0.37816 0.81341 0.8118 0.0
C1137 C 0.38464 0.79348 0.82088 0.0
H1138 H 0.54931 0.18906 0.16485 0.0
H1139 H 0.55619 0.23513 0.10998 0.0
H1140 H 0.55675 0.19981 0.08425 0.0
H1141 H 0.5886 0.15634 0.14589 0.0
H1142 H 0.5718 0.12643 0.15427 0.0
H1143 H 0.5709 0.15477 0.16885 0.0
H1144 H 0.52558 0.13881 0.16095 0.0
H1145 H 0.52636 0.1104 0.14641 0.0
H1146 H 0.51213 0.12928 0.13258 0.0
H1147 H 0.55679 0.15907 0.06332 0.0
H1148 H 0.55704 0.11776 0.04936 0.0
H1149 H 0.55165 0.09493 0.11638 0.0
C1150 C 0.55063 0.19171 0.14736 0.0
C1151 C 0.55238 0.21569 0.13984 0.0
C1152 C 0.55462 0.21763 0.11668 0.0
C1153 C 0.555 0.19737 0.10173 0.0
C1154 C 0.55343 0.17442 0.10961 0.0
C1155 C 0.55138 0.17139 0.13196 0.0
C1156 C 0.55068 0.1446 0.13583 0.0
C1157 C 0.57174 0.1456 0.15219 0.0
C1158 C 0.5273 0.1299 0.14446 0.0
C1159 C 0.55251 0.13312 0.11227 0.0
C1160 C 0.554 0.15089 0.09752 0.0
C1161 C 0.55565 0.1452 0.07489 0.0
C1162 C 0.55576 0.12122 0.06701 0.0
C1163 C 0.55437 0.10204 0.08127 0.0
C1164 C 0.55278 0.10856 0.10456 0.0
H1165 H 0.15891 0.3022 0.37417 0.0
H1166 H 0.11038 0.23783 0.33251 0.0
H1167 H 0.14343 0.2332 0.3133 0.0
H1168 H 0.19866 0.32677 0.3308 0.0
H1169 H 0.22555 0.33621 0.34936 0.0
H1170 H 0.1983 0.33537 0.36008 0.0
H1171 H 0.2039 0.30609 0.38888 0.0
H1172 H 0.23117 0.30689 0.37824 0.0
H1173 H 0.20816 0.27737 0.3794 0.0
H1174 H 0.18283 0.23479 0.29735 0.0
H1175 H 0.22302 0.24167 0.28747 0.0
H1176 H 0.24991 0.30464 0.3386 0.0
C1177 C 0.15506 0.28714 0.36092 0.0
C1178 C 0.13086 0.27044 0.35522 0.0
C1179 C 0.12785 0.25111 0.3377 0.0
C1180 C 0.14691 0.24827 0.32648 0.0
C1181 C 0.1701 0.26473 0.33243 0.0
C1182 C 0.17437 0.28385 0.34937 0.0
C1183 C 0.2014 0.29857 0.3525 0.0
C1184 C 0.20627 0.32586 0.34792 0.0
C1185 C 0.21177 0.29716 0.37617 0.0
C1186 C 0.21154 0.28491 0.33477 0.0
C1187 C 0.19289 0.26545 0.32342 0.0
C1188 C 0.19731 0.25005 0.30633 0.0
C1189 C 0.22072 0.25424 0.3007 0.0
C1190 C 0.24086 0.27382 0.31174 0.0
C1191 C 0.23564 0.28943 0.32929 0.0
H1192 H 0.95142 0.06564 0.16061 0.0
H1193 H 1.00936 0.10877 0.20979 0.0
H1194 H 0.03639 0.11623 0.18042 0.0
H1195 H 0.98068 0.03311 0.13522 0.0
H1196 H 0.96814 0.0316 0.10688 0.0
H1197 H 0.95184 0.03544 0.12972 0.0
H1198 H 0.9481 0.07573 0.11537 0.0
H1199 H 0.96409 0.07176 0.09216 0.0
H1200 H 0.97422 0.10062 0.11029 0.0
H1201 H 0.05804 0.11203 0.14877 0.0
H1202 H 0.0735 0.09694 0.11631 0.0
H1203 H 1.00211 0.055 0.08701 0.0
C1204 C 0.96958 0.07765 0.16488 0.0
C1205 C 0.97838 0.08702 0.18726 0.0
C1206 C 1.00238 0.10171 0.19262 0.0
C1207 C 1.01778 0.10613 0.17605 0.0
C1208 C 1.00887 0.09563 0.15427 0.0
C1209 C 0.98529 0.08183 0.14853 0.0
C1210 C 0.98104 0.06926 0.1248 0.0
C1211 C 0.96978 0.04067 0.12415 0.0
C1212 C 0.96598 0.08 0.10977 0.0
C1213 C 1.0061 0.07685 0.1187 0.0
C1214 C 1.02173 0.09259 0.13574 0.0
C1215 C 0.04599 0.10018 0.13508 0.0
C1216 C 0.05459 0.09126 0.11665 0.0
C1217 C 0.03898 0.07472 0.09917 0.0
C1218 C 1.01441 0.06787 0.10001 0.0
H1219 H 0.31274 0.72639 0.52201 0.0
H1220 H 0.31781 0.65492 0.49857 0.0
H1221 H 0.3099 0.6629 0.45948 0.0
H1222 H 0.26609 0.7246 0.48472 0.0
H1223 H 0.27679 0.75724 0.48042 0.0
H1224 H 0.28538 0.74729 0.50628 0.0
H1225 H 0.3295 0.76803 0.50081 0.0
H1226 H 0.32106 0.77857 0.47515 0.0
H1227 H 0.34019 0.76022 0.47518 0.0
H1228 H 0.29578 0.67631 0.4236 0.0
H1229 H 0.28221 0.69644 0.39325 0.0
H1230 H 0.28958 0.76063 0.44033 0.0
C1231 C 0.31276 0.71269 0.50862 0.0
C1232 C 0.31589 0.69006 0.51321 0.0
C1233 C 0.3157 0.6725 0.49532 0.0
C1234 C 0.31106 0.67681 0.47312 0.0
C1235 C 0.30715 0.69895 0.4692 0.0
C1236 C 0.30855 0.71687 0.48645 0.0
C1237 C 0.3031 0.73881 0.47792 0.0
C1238 C 0.28156 0.74216 0.48793 0.0
C1239 C 0.32476 0.76282 0.48253 0.0
C1240 C 0.29765 0.7301 0.45323 0.0
C1241 C 0.29999 0.70706 0.44851 0.0
C1242 C 0.29447 0.69464 0.42703 0.0
C1243 C 0.28683 0.70632 0.40986 0.0
C1244 C 0.28501 0.73036 0.41418 0.0
C1245 C 0.29048 0.74221 0.43629 0.0
H1246 H 0.6182 0.04139 0.71215 0.0
H1247 H 0.65417 0.98978 0.69381 0.0
H1248 H 0.62993 0.97799 0.65742 0.0
H1249 H 0.55869 1.00537 0.67751 0.0
H1250 H 0.5558 0.03444 0.67052 0.0
H1251 H 0.57011 0.03282 0.69738 0.0
H1252 H 0.60694 0.0694 0.68989 0.0
H1253 H 0.593 0.07094 0.66305 0.0
H1254 H 0.62121 0.0666 0.66513 0.0
H1255 H 0.61003 0.97958 0.62107 0.0
H1256 H 0.596 0.9943 0.58735 0.0
H1257 H 0.57333 0.04574 0.62854 0.0
C1258 C 0.62028 0.02682 0.70087 0.0
C1259 C 0.63802 0.01648 0.70575 0.0
C1260 C 0.64063 0.9979 0.69038 0.0
C1261 C 0.6268 0.99095 0.66975 0.0
C1262 C 0.61038 1.0026 0.66491 0.0
C1263 C 0.60684 0.01996 0.68015 0.0
C1264 C 0.59141 0.03309 0.66959 0.0
C1265 C 0.56758 0.02599 0.67933 0.0
C1266 C 0.60391 0.06167 0.67206 0.0
C1267 C 0.58853 0.02199 0.6456 0.0
C1268 C 0.5989 1.00381 0.64342 0.0
C1269 C 0.60128 0.99324 0.62261 0.0
C1270 C 0.5935 1.00195 0.60356 0.0
C1271 C 0.5837 0.02123 0.60549 0.0
C1272 C 0.58039 0.03068 0.6267 0.0
H1273 H 0.30183 0.34627 0.97505 0.0
H1274 H 0.34828 0.30634 0.99567 0.0
H1275 H 0.35396 0.29762 0.95637 0.0
H1276 H 0.27436 0.30443 0.92326 0.0
H1277 H 0.27268 0.32936 0.9073 0.0
H1278 H 0.27145 0.33216 0.9371 0.0
H1279 H 0.30662 0.37371 0.94108 0.0
H1280 H 0.30804 0.37097 0.91132 0.0
H1281 H 0.33373 0.37442 0.93015 0.0
H1282 H 0.35666 0.29467 0.91489 0.0
H1283 H 0.35419 0.29531 0.87413 0.0
H1284 H 0.30505 0.33576 0.87789 0.0
C1285 C 0.31295 0.33539 0.97129 0.0
C1286 C 0.32451 0.32695 0.98893 0.0
C1287 C 0.33907 0.31302 0.98289 0.0
C1288 C 0.3425 0.30798 0.96043 0.0
C1289 C 0.33122 0.31678 0.94363 0.0
C1290 C 0.31651 0.32998 0.94866 0.0
C1291 C 0.30664 0.33722 0.92706 0.0
C1292 C 0.27968 0.32507 0.92347 0.0
C1293 C 0.31421 0.36578 0.92743 0.0
C1294 C 0.31829 0.32626 0.90926 0.0
C1295 C 0.33245 0.31465 0.91938 0.0
C1296 C 0.34549 0.30359 0.90684 0.0
C1297 C 0.344 0.30415 0.88348 0.0
C1298 C 0.32944 0.31555 0.87227 0.0
C1299 C 0.31636 0.32678 0.88562 0.0
H1300 H 1.02041 0.05392 0.29604 0.0
H1301 H 0.98533 0.10449 0.3197 0.0
H1302 H 1.00951 0.11256 0.35618 0.0
H1303 H 1.02007 0.02533 0.34392 0.0
H1304 H 0.04834 0.02155 0.34257 0.0
H1305 H 0.03148 0.02328 0.31735 0.0
H1306 H 0.06667 0.06037 0.30761 0.0
H1307 H 0.08371 0.05874 0.33289 0.0
H1308 H 0.07944 0.08765 0.32752 0.0
H1309 H 0.03347 0.1106 0.3913 0.0
H1310 H 0.05351 0.09732 0.42245 0.0
H1311 H 0.07339 0.04845 0.37572 0.0
C1312 C 1.01819 0.0672 0.30867 0.0
C1313 C 1.00109 0.07871 0.305 0.0
C1314 C 0.99843 0.09558 0.32212 0.0
C1315 C 1.01216 0.10036 0.34284 0.0
C1316 C 0.02854 0.08824 0.34606 0.0
C1317 C 0.03163 0.07206 0.32939 0.0
C1318 C 0.04842 0.05929 0.33772 0.0
C1319 C 0.03635 0.03068 0.33525 0.0
C1320 C 0.0709 0.06698 0.32572 0.0
C1321 C 0.05353 0.06996 0.36198 0.0
C1322 C 0.0423 0.08703 0.36636 0.0
C1323 C 0.04278 0.09773 0.38796 0.0
C1324 C 0.05439 0.09022 0.40556 0.0
C1325 C 0.06529 0.07209 0.40156 0.0
C1326 C 0.06537 0.06245 0.37934 0.0
H1327 H 0.32762 0.68525 0.66323 0.0
H1328 H 0.35021 0.74052 0.61636 0.0
H1329 H 0.35422 0.77404 0.64625 0.0
H1330 H 0.29128 0.71088 0.68824 0.0
H1331 H 0.29753 0.7041 0.71626 0.0
H1332 H 0.30101 0.68485 0.69278 0.0
H1333 H 0.3444 0.69329 0.70799 0.0
H1334 H 0.34096 0.71232 0.73175 0.0
H1335 H 0.36422 0.72502 0.71445 0.0
H1336 H 0.35093 0.80079 0.67952 0.0
H1337 H 0.34033 0.81895 0.71377 0.0
H1338 H 0.31825 0.74601 0.73851 0.0
C1339 C 0.33424 0.70447 0.65946 0.0
C1340 C 0.33886 0.71034 0.63755 0.0
C1341 C 0.34674 0.73565 0.63308 0.0
C1342 C 0.34913 0.7548 0.64996 0.0
C1343 C 0.34355 0.74831 0.67119 0.0
C1344 C 0.33641 0.72376 0.67605 0.0
C1345 C 0.32896 0.72152 0.69946 0.0
C1346 C 0.30316 0.70433 0.69914 0.0
C1347 C 0.34563 0.71251 0.71429 0.0
C1348 C 0.33194 0.74847 0.70655 0.0
C1349 C 0.34091 0.76369 0.69023 0.0
C1350 C 0.3442 0.78912 0.69256 0.0
C1351 C 0.33806 0.79924 0.71204 0.0
C1352 C 0.32833 0.78386 0.72874 0.0
C1353 C 0.3255 0.75821 0.72599 0.0
H1354 H 0.63321 0.02939 0.83008 0.0
H1355 H 0.6174 0.08915 0.79923 0.0
H1356 H 0.58856 0.08864 0.826 0.0
H1357 H 0.57301 0.99591 0.84244 0.0
H1358 H 0.58267 0.98772 0.86882 0.0
H1359 H 0.60114 0.99154 0.84631 0.0
H1360 H 0.63544 0.02437 0.872 0.0
H1361 H 0.61714 0.02056 0.89458 0.0
H1362 H 0.6307 0.05114 0.88576 0.0
H1363 H 0.56382 0.08401 0.85734 0.0
H1364 H 0.54538 0.07627 0.8923 0.0
H1365 H 0.57546 0.01804 0.90192 0.0
C1366 C 0.62357 0.04224 0.82888 0.0
C1367 C 0.62752 0.05928 0.8126 0.0
C1368 C 0.61463 0.07588 0.81158 0.0
C1369 C 0.59813 0.07569 0.82663 0.0
C1370 C 0.59461 0.05866 0.84246 0.0
C1371 C 0.60691 0.04222 0.84373 0.0
C1372 C 0.6005 0.02663 0.86303 0.0
C1373 C 0.58862 0.9988 0.85464 0.0
C1374 C 0.62224 0.03095 0.87983 0.0
C1375 C 0.58317 0.03739 0.87272 0.0
C1376 C 0.57988 0.05567 0.86046 0.0
C1377 C 0.56588 0.06942 0.8669 0.0
C1378 C 0.55532 0.06474 0.88671 0.0
C1379 C 0.55882 0.04642 0.89982 0.0
C1380 C 0.5725 0.03222 0.89234 0.0
H1381 H 0.32376 0.3098 0.12197 0.0
H1382 H 0.28093 0.35731 0.1273 0.0
H1383 H 0.27489 0.34761 0.16561 0.0
H1384 H 0.28767 0.26181 0.15612 0.0
H1385 H 0.31275 0.2562 0.16959 0.0
H1386 H 0.3136 0.26589 0.1418 0.0
H1387 H 0.35162 0.30321 0.15514 0.0
H1388 H 0.3508 0.29371 0.18299 0.0
H1389 H 0.35169 0.32485 0.17848 0.0
H1390 H 0.27596 0.33669 0.2049 0.0
H1391 H 0.28057 0.32096 0.24137 0.0
H1392 H 0.31962 0.27708 0.21263 0.0
C1393 C 0.31275 0.31777 0.13103 0.0
C1394 C 0.30301 0.33462 0.12103 0.0
C1395 C 0.28892 0.34461 0.13404 0.0
C1396 C 0.28529 0.3392 0.1561 0.0
C1397 C 0.29551 0.3233 0.16558 0.0
C1398 C 0.30863 0.31228 0.15347 0.0
C1399 C 0.31742 0.29575 0.16827 0.0
C1400 C 0.30726 0.26828 0.15835 0.0
C1401 C 0.34449 0.30493 0.1714 0.0
C1402 C 0.30743 0.2996 0.1904 0.0
C1403 C 0.29505 0.31583 0.18835 0.0
C1404 C 0.28529 0.32362 0.20657 0.0
C1405 C 0.28805 0.3146 0.22736 0.0
C1406 C 0.30009 0.29741 0.23011 0.0
C1407 C 0.30984 0.28977 0.21114 0.0
H1408 H 0.28278 1.01022 0.06031 0.0
H1409 H 0.25382 0.97281 0.99407 0.0
H1410 H 0.23483 1.00435 0.98794 0.0
H1411 H 0.23401 0.02106 0.07463 0.0
H1412 H 0.24883 0.05122 0.0901 0.0
H1413 H 0.26381 0.029 0.08741 0.0
H1414 H 0.29779 0.06136 0.07055 0.0
H1415 H 0.28286 0.0838 0.07322 0.0
H1416 H 0.29125 0.07573 0.04645 0.0
H1417 H 0.21343 0.03489 0.99191 0.0
H1418 H 0.19126 0.06114 1.0056 0.0
H1419 H 0.23579 0.08 0.06863 0.0
C1420 C 0.27294 1.009 0.04428 0.0
C1421 C 0.26972 0.98911 0.02766 0.0
C1422 C 0.25659 0.98801 1.00698 0.0
C1423 C 0.24584 1.0059 1.00332 0.0
C1424 C 0.24881 0.02491 0.02037 0.0
C1425 C 0.26229 0.02671 0.04036 0.0
C1426 C 0.26067 0.04705 0.05698 0.0
C1427 C 0.25126 0.03643 0.07852 0.0
C1428 C 0.28457 0.06824 0.06209 0.0
C1429 C 0.24305 0.05547 0.04374 0.0
C1430 C 0.23676 0.04287 0.0225 0.0
C1431 C 0.21871 0.0454 1.00823 0.0
C1432 C 0.20628 0.0605 0.01614 0.0
C1433 C 0.21189 0.07278 0.03817 0.0
C1434 C 0.23113 0.07093 0.05171 0.0
H1435 H 0.74858 0.65377 0.07516 0.0
H1436 H 0.7367 0.69156 0.01802 0.0
H1437 H 0.69618 0.66111 0.01019 0.0
H1438 H 0.71474 0.5907 0.05222 0.0
H1439 H 0.70279 0.58141 0.07796 0.0
H1440 H 0.73118 0.60547 0.07864 0.0
H1441 H 0.71683 0.6358 0.10284 0.0
H1442 H 0.68841 0.61182 0.10228 0.0
H1443 H 0.69053 0.64172 0.09299 0.0
H1444 H 0.65792 0.62624 1.00785 0.0
H1445 H 0.62234 0.59128 0.01278 0.0
H1446 H 0.65724 0.57736 0.07338 0.0
C1447 C 0.73747 0.65549 0.06091 0.0
C1448 C 0.74579 0.67482 0.04699 0.0
C1449 C 0.73064 0.67685 0.0288 0.0
C1450 C 0.70767 0.65961 0.02421 0.0
C1451 C 0.70002 0.64077 0.03823 0.0
C1452 C 0.71429 0.63878 0.0564 0.0
C1453 C 0.70125 0.61748 0.06941 0.0
C1454 C 0.7132 0.59759 0.06956 0.0
C1455 C 0.69913 0.6273 0.09329 0.0
C1456 C 0.67745 0.60764 0.05557 0.0
C1457 C 0.67734 0.62124 0.03753 0.0
C1458 C 0.65776 0.61552 0.02194 0.0
C1459 C 0.63766 0.59547 0.02486 0.0
C1460 C 0.63704 0.58146 0.04343 0.0
C1461 C 0.65721 0.58774 0.05907 0.0
H1462 H 0.76558 0.49487 0.3312 0.0
H1463 H 0.76287 0.52581 0.26786 0.0
H1464 H 0.79332 0.50936 0.25585 0.0
H1465 H 0.8301 0.50413 0.33606 0.0
H1466 H 0.82537 0.47494 0.34781 0.0
H1467 H 0.8062 0.49259 0.35297 0.0
H1468 H 0.76986 0.454 0.33737 0.0
H1469 H 0.78887 0.43628 0.33237 0.0
H1470 H 0.76903 0.43912 0.30976 0.0
H1471 H 0.81929 0.48468 0.24853 0.0
H1472 H 0.8371 0.45165 0.24586 0.0
H1473 H 0.82466 0.43833 0.31446 0.0
C1474 C 0.77174 0.4986 0.31499 0.0
C1475 C 0.76189 0.51159 0.30048 0.0
C1476 C 0.77018 0.51586 0.27927 0.0
C1477 C 0.78762 0.5068 0.27236 0.0
C1478 C 0.79678 0.49377 0.28695 0.0
C1479 C 0.78918 0.48973 0.30786 0.0
C1480 C 0.79998 0.47289 0.31935 0.0
C1481 C 0.81639 0.48699 0.34029 0.0
C1482 C 0.78079 0.44918 0.32502 0.0
C1483 C 0.8138 0.46704 0.30115 0.0
C1484 C 0.81216 0.47968 0.28278 0.0
C1485 C 0.82124 0.47512 0.26299 0.0
C1486 C 0.83142 0.45641 0.26165 0.0
C1487 C 0.83222 0.44248 0.27995 0.0
C1488 C 0.82426 0.44873 0.30021 0.0
H1489 H 0.8821 0.42382 0.53922 0.0
H1490 H 0.84861 0.47984 0.547 0.0
H1491 H 0.88782 0.51315 0.55194 0.0
H1492 H 0.93152 0.45466 0.581 0.0
H1493 H 0.95189 0.44498 0.56552 0.0
H1494 H 0.92119 0.42589 0.56273 0.0
H1495 H 0.91937 0.4275 0.5198 0.0
H1496 H 0.95 0.44677 0.52249 0.0
H1497 H 0.92817 0.45738 0.50876 0.0
H1498 H 0.93066 0.5402 0.55307 0.0
H1499 H 0.9742 0.55872 0.55508 0.0
H1500 H 0.9789 0.48443 0.54929 0.0
C1501 C 0.88304 0.4431 0.54206 0.0
C1502 C 0.86249 0.4494 0.54261 0.0
C1503 C 0.86429 0.47474 0.54661 0.0
C1504 C 0.88641 0.49373 0.54931 0.0
C1505 C 0.90637 0.48688 0.54834 0.0
C1506 C 0.90488 0.46215 0.5452 0.0
C1507 C 0.92891 0.45962 0.54529 0.0
C1508 C 0.93365 0.44546 0.5648 0.0
C1509 C 0.93177 0.44708 0.52274 0.0
C1510 C 0.9442 0.48682 0.54875 0.0
C1511 C 0.93093 0.50231 0.55017 0.0
C1512 C 0.94126 0.52826 0.55229 0.0
C1513 C 0.96588 0.53859 0.55328 0.0
C1514 C 0.97964 0.52289 0.55255 0.0
C1515 C 0.96867 0.49676 0.55022 0.0
H1516 H 0.4193 0.09947 0.27075 0.0
H1517 H 0.42991 0.09366 0.34179 0.0
H1518 H 0.39604 0.1075 0.34784 0.0
H1519 H 0.40321 0.15522 0.27666 0.0
H1520 H 0.38207 0.1452 0.25222 0.0
H1521 H 0.40735 0.13527 0.25396 0.0
H1522 H 0.37953 0.08908 0.24673 0.0
H1523 H 0.35415 0.09888 0.24548 0.0
H1524 H 0.35693 0.07729 0.26495 0.0
H1525 H 0.35992 0.12018 0.34569 0.0
H1526 H 0.32728 0.1358 0.33625 0.0
H1527 H 0.34166 0.13436 0.26683 0.0
C1528 C 0.41464 0.10132 0.28761 0.0
C1529 C 0.42712 0.09546 0.3058 0.0
C1530 C 0.4206 0.09821 0.32764 0.0
C1531 C 0.40131 0.10586 0.33121 0.0
C1532 C 0.38898 0.11086 0.31279 0.0
C1533 C 0.39565 0.10912 0.29149 0.0
C1534 C 0.37987 0.11612 0.27459 0.0
C1535 C 0.39396 0.13933 0.26373 0.0
C1536 C 0.36685 0.09402 0.2569 0.0
C1537 C 0.36311 0.12185 0.28968 0.0
C1538 C 0.36852 0.11854 0.31162 0.0
C1539 C 0.35559 0.12297 0.32859 0.0
C1540 C 0.33711 0.13181 0.32307 0.0
C1541 C 0.3319 0.13625 0.3008 0.0
C1542 C 0.34484 0.13069 0.28391 0.0
H1543 H 0.38259 0.17804 0.54216 0.0
H1544 H 0.36608 0.17434 0.61092 0.0
H1545 H 0.39248 0.15043 0.61778 0.0
H1546 H 0.38362 0.11625 0.53348 0.0
H1547 H 0.40789 0.12373 0.51659 0.0
H1548 H 0.38914 0.14243 0.51714 0.0
H1549 H 0.42552 0.18219 0.52912 0.0
H1550 H 0.44441 0.16359 0.52854 0.0
H1551 H 0.44496 0.18316 0.55356 0.0
H1552 H 0.41828 0.125 0.61711 0.0
H1553 H 0.44275 0.09924 0.60889 0.0
H1554 H 0.44338 0.11839 0.5406 0.0
C1555 C 0.38486 0.17251 0.55872 0.0
C1556 C 0.37227 0.17815 0.57602 0.0
C1557 C 0.37545 0.17026 0.59738 0.0
C1558 C 0.39048 0.1567 0.60149 0.0
C1559 C 0.40232 0.15109 0.5841 0.0
C1560 C 0.39983 0.15874 0.56314 0.0
C1561 C 0.41391 0.14906 0.54723 0.0
C1562 C 0.39767 0.13184 0.52744 0.0
C1563 C 0.43336 0.1708 0.53914 0.0
C1564 C 0.42431 0.13449 0.56248 0.0
C1565 C 0.41742 0.13612 0.58369 0.0
C1566 C 0.42391 0.12366 0.60061 0.0
C1567 C 0.43769 0.10895 0.59574 0.0
C1568 C 0.44487 0.1067 0.5741 0.0
C1569 C 0.43831 0.11994 0.55733 0.0
H1570 H 0.75981 0.61512 0.31374 0.0
H1571 H 0.73216 0.62165 0.37744 0.0
H1572 H 0.75443 0.6668 0.3821 0.0
H1573 H 0.81909 0.66427 0.32985 0.0
H1574 H 0.81995 0.67508 0.3025 0.0
H1575 H 0.80473 0.64263 0.30561 0.0
H1576 H 0.76669 0.64529 0.28493 0.0
H1577 H 0.78173 0.67765 0.2818 0.0
H1578 H 0.75493 0.66866 0.2952 0.0
H1579 H 0.77387 0.71118 0.37728 0.0
H1580 H 0.7907 0.75251 0.36358 0.0
H1581 H 0.80756 0.71772 0.30395 0.0
C1582 C 0.75884 0.62593 0.32887 0.0
C1583 C 0.74424 0.61488 0.34518 0.0
C1584 C 0.74326 0.62972 0.36469 0.0
C1585 C 0.75593 0.65536 0.36759 0.0
C1586 C 0.76974 0.66577 0.35098 0.0
C1587 C 0.77149 0.65154 0.3321 0.0
C1588 C 0.78595 0.66771 0.3159 0.0
C1589 C 0.80879 0.66209 0.31332 0.0
C1590 C 0.77145 0.66464 0.29313 0.0
C1591 C 0.79103 0.69333 0.32815 0.0
C1592 C 0.78173 0.69172 0.34848 0.0
C1593 C 0.78178 0.71276 0.3617 0.0
C1594 C 0.79121 0.73605 0.35376 0.0
C1595 C 0.80058 0.73802 0.33293 0.0
C1596 C 0.80105 0.71656 0.32022 0.0
H1597 H 0.9624 0.49694 0.8159 0.0
H1598 H 0.91529 0.52847 0.78136 0.0
H1599 H 0.88234 0.48855 0.78113 0.0
H1600 H 0.93684 0.43456 0.786 0.0
H1601 H 0.94145 0.41951 0.81029 0.0
H1602 H 0.96106 0.45039 0.80705 0.0
H1603 H 0.95251 0.46626 0.84576 0.0
H1604 H 0.93249 0.43554 0.84889 0.0
H1605 H 0.92252 0.46196 0.8509 0.0
H1606 H 0.85395 0.44606 0.78749 0.0
H1607 H 0.83382 0.40204 0.79425 0.0
H1608 H 0.90029 0.39831 0.82277 0.0
C1609 C 0.94522 0.49533 0.80801 0.0
C1610 C 0.94133 0.51572 0.79866 0.0
C1611 C 0.91865 0.51294 0.78844 0.0
C1612 C 0.8998 0.49045 0.78842 0.0
C1613 C 0.9041 0.47092 0.79839 0.0
C1614 C 0.92638 0.47298 0.80753 0.0
C1615 C 0.92654 0.44912 0.81675 0.0
C1616 C 0.9424 0.43772 0.80427 0.0
C1617 C 0.93395 0.4535 0.84207 0.0
C1618 C 0.90082 0.43336 0.81155 0.0
C1619 C 0.88805 0.44632 0.80127 0.0
C1620 C 0.86381 0.43565 0.79537 0.0
C1621 C 0.85249 0.41079 0.79946 0.0
C1622 C 0.86558 0.39695 0.80901 0.0
C1623 C 0.88993 0.40853 0.8154 0.0
H1624 H 0.12811 0.90134 0.0909 0.0
H1625 H 0.07149 0.87578 0.1331 0.0
H1626 H 0.05918 0.91159 0.12563 0.0
H1627 H 0.14224 0.968 0.10736 0.0
H1628 H 0.14814 0.97718 0.07985 0.0
H1629 H 0.15301 0.94953 0.08833 0.0
H1630 H 0.12549 0.92316 0.05397 0.0
H1631 H 0.12064 0.95075 0.04533 0.0
H1632 H 0.09591 0.92371 0.04938 0.0
H1633 H 0.05184 0.949 0.11316 0.0
H1634 H 0.04973 0.98618 0.09624 0.0
H1635 H 0.11151 0.99011 0.06246 0.0
C1636 C 0.11311 0.90328 0.09853 0.0
C1637 C 0.10077 0.88549 0.11261 0.0
C1638 C 0.0813 0.88894 0.12229 0.0
C1639 C 0.07414 0.90932 0.11816 0.0
C1640 C 0.08664 0.92648 0.10437 0.0
C1641 C 0.10574 0.92381 0.09467 0.0
C1642 C 0.11587 0.94517 0.08042 0.0
C1643 C 0.14133 0.9609 0.08954 0.0
C1644 C 0.11438 0.93509 0.05581 0.0
C1645 C 0.09931 0.96001 0.08349 0.0
C1646 C 0.08263 0.94872 0.09742 0.0
C1647 C 0.06489 0.95808 0.10235 0.0
C1648 C 0.06384 0.97928 0.0926 0.0
C1649 C 0.08051 0.9913 0.07811 0.0
C1650 C 0.09874 0.98166 0.07375 0.0
H1651 H 0.97173 0.27814 0.89166 0.0
H1652 H 0.93981 0.27938 0.95368 0.0
H1653 H 0.90662 0.28755 0.93351 0.0
H1654 H 0.95675 0.32761 0.86985 0.0
H1655 H 0.95064 0.31371 0.84127 0.0
H1656 H 0.97137 0.30658 0.8602 0.0
H1657 H 0.94755 0.25933 0.8517 0.0
H1658 H 0.92679 0.26631 0.83266 0.0
H1659 H 0.9166 0.24805 0.85536 0.0
H1660 H 0.87823 0.29812 0.90735 0.0
H1661 H 0.85521 0.30836 0.87665 0.0
H1662 H 0.90485 0.29999 0.83089 0.0
C1663 C 0.95765 0.27986 0.901 0.0
C1664 C 0.95847 0.27807 0.92435 0.0
C1665 C 0.93968 0.28062 0.93585 0.0
C1666 C 0.92072 0.28529 0.92452 0.0
C1667 C 0.92068 0.28731 0.90163 0.0
C1668 C 0.93854 0.28452 0.88993 0.0
C1669 C 0.93437 0.2881 0.86543 0.0
C1670 C 0.95448 0.31032 0.85881 0.0
C1671 C 0.93113 0.26401 0.8504 0.0
C1672 C 0.91153 0.29367 0.86527 0.0
C1673 C 0.904 0.2931 0.88637 0.0
C1674 C 0.88383 0.29838 0.89072 0.0
C1675 C 0.87094 0.30435 0.8731 0.0
C1676 C 0.87818 0.30509 0.85123 0.0
C1677 C 0.89874 0.29948 0.84732 0.0
H1678 H 0.58034 0.2289 0.61915 0.0
H1679 H 0.64248 0.26697 0.58725 0.0
H1680 H 0.64197 0.22628 0.5695 0.0
H1681 H 0.59463 0.17634 0.63125 0.0
H1682 H 0.5652 0.1541 0.62489 0.0
H1683 H 0.56953 0.18619 0.63406 0.0
H1684 H 0.54434 0.18928 0.59851 0.0
H1685 H 0.53961 0.15706 0.58938 0.0
H1686 H 0.55184 0.18096 0.5714 0.0
H1687 H 0.6372 0.1807 0.55881 0.0
H1688 H 0.62487 0.13468 0.5511 0.0
H1689 H 0.5641 0.12665 0.58753 0.0
C1690 C 0.59357 0.22872 0.60807 0.0
C1691 C 0.61145 0.25117 0.60456 0.0
C1692 C 0.62847 0.25009 0.59 0.0
C1693 C 0.62842 0.22702 0.57999 0.0
C1694 C 0.61095 0.20519 0.58432 0.0
C1695 C 0.59346 0.20591 0.59755 0.0
C1696 C 0.57656 0.1798 0.59943 0.0
C1697 C 0.57649 0.17377 0.62386 0.0
C1698 C 0.55161 0.17659 0.58906 0.0
C1699 C 0.58757 0.16421 0.58563 0.0
C1700 C 0.60755 0.17916 0.57725 0.0
C1701 C 0.62138 0.16887 0.56501 0.0
C1702 C 0.61437 0.1427 0.56087 0.0
C1703 C 0.59351 0.12708 0.56864 0.0
C1704 C 0.58003 0.1381 0.58121 0.0
H1705 H 0.60744 0.78315 0.43259 0.0
H1706 H 0.55145 0.7794 0.38155 0.0
H1707 H 0.57762 0.77882 0.35244 0.0
H1708 H 0.6544 0.82394 0.40676 0.0
H1709 H 0.67537 0.80903 0.41452 0.0
H1710 H 0.652 0.80798 0.43164 0.0
H1711 H 0.63848 0.75963 0.42793 0.0
H1712 H 0.66188 0.76054 0.41085 0.0
H1713 H 0.63179 0.74254 0.40052 0.0
H1714 H 0.60982 0.78049 0.32889 0.0
H1715 H 0.6464 0.78387 0.31209 0.0
H1716 H 0.68183 0.78561 0.37782 0.0
C1717 C 0.60062 0.78199 0.41529 0.0
C1718 C 0.57733 0.78132 0.40943 0.0
C1719 C 0.56918 0.77996 0.38656 0.0
C1720 C 0.58391 0.77959 0.36983 0.0
C1721 C 0.60677 0.78052 0.37617 0.0
C1722 C 0.61513 0.78161 0.39829 0.0
C1723 C 0.6407 0.78305 0.40043 0.0
C1724 C 0.65655 0.80745 0.41415 0.0
C1725 C 0.64336 0.76007 0.41053 0.0
C1726 C 0.64537 0.78287 0.37608 0.0
C1727 C 0.62548 0.78131 0.36242 0.0
C1728 C 0.62545 0.78142 0.33937 0.0
C1729 C 0.64632 0.78317 0.32996 0.0
C1730 C 0.667 0.78472 0.34355 0.0
C1731 C 0.66639 0.78454 0.36695 0.0
H1732 H 0.06061 0.19967 0.42621 0.0
H1733 H 0.05927 0.251 0.4823 0.0
H1734 H 0.05882 0.21895 0.50774 0.0
H1735 H 1.02055 0.14465 0.44745 0.0
H1736 H 0.03432 0.12275 0.4384 0.0
H1737 H 0.0363 0.14918 0.42302 0.0
H1738 H 0.08124 0.16442 0.42726 0.0
H1739 H 0.08081 0.13785 0.44184 0.0
H1740 H 0.09717 0.16898 0.45459 0.0
H1741 H 0.05904 0.1808 0.52834 0.0
H1742 H 0.05868 0.14113 0.54169 0.0
H1743 H 0.05845 0.11079 0.47355 0.0
C1744 C 0.06038 0.20436 0.44387 0.0
C1745 C 0.06019 0.22884 0.45178 0.0
C1746 C 0.05949 0.23311 0.47523 0.0
C1747 C 0.05926 0.21473 0.49003 0.0
C1748 C 0.05943 0.19115 0.48176 0.0
C1749 C 0.0598 0.18578 0.45913 0.0
C1750 C 0.05895 0.15837 0.45475 0.0
C1751 C 0.03622 0.14282 0.43999 0.0
C1752 C 0.08084 0.15734 0.44395 0.0
C1753 C 0.05876 0.14943 0.47839 0.0
C1754 C 0.05894 0.16886 0.4936 0.0
C1755 C 0.05886 0.16564 0.51637 0.0
C1756 C 0.05866 0.14257 0.5239 0.0
C1757 C 0.05847 0.12176 0.50918 0.0
C1758 C 0.05846 0.12567 0.48575 0.0
H1759 H 0.62516 0.25884 0.23614 0.0
H1760 H 0.64782 0.33009 0.20859 0.0
H1761 H 0.68895 0.33627 0.222 0.0
H1762 H 0.67002 0.27763 0.28622 0.0
H1763 H 0.67518 0.24828 0.28524 0.0
H1764 H 0.64692 0.24925 0.27451 0.0
H1765 H 0.65053 0.22771 0.23657 0.0
H1766 H 0.67882 0.22674 0.24717 0.0
H1767 H 0.67605 0.24133 0.22211 0.0
H1768 H 0.72958 0.33545 0.23814 0.0
H1769 H 0.76447 0.32765 0.2546 0.0
H1770 H 0.71958 0.25625 0.27239 0.0
C1771 C 0.63865 0.27601 0.23322 0.0
C1772 C 0.63203 0.29418 0.22115 0.0
C1773 C 0.65126 0.31578 0.21763 0.0
C1774 C 0.67515 0.3195 0.22529 0.0
C1775 C 0.68097 0.30146 0.23672 0.0
C1776 C 0.66324 0.28001 0.24071 0.0
C1777 C 0.67498 0.26341 0.25297 0.0
C1778 C 0.66625 0.25939 0.27611 0.0
C1779 C 0.66977 0.23829 0.23887 0.0
C1780 C 0.70181 0.2788 0.25522 0.0
C1781 C 0.70458 0.30076 0.24568 0.0
C1782 C 0.72729 0.31821 0.24556 0.0
C1783 C 0.74742 0.31349 0.25516 0.0
C1784 C 0.746 0.29123 0.26522 0.0
C1785 C 0.72223 0.27358 0.26504 0.0
H1786 H 0.58886 0.85951 0.98103 0.0
H1787 H 0.53043 0.84628 0.92986 0.0
H1788 H 0.52298 0.883 0.94617 0.0
H1789 H 0.56063 0.88314 0.02691 0.0
H1790 H 0.58741 0.90711 0.03934 0.0
H1791 H 0.58866 0.87906 0.0245 0.0
H1792 H 0.61732 0.9057 0.99907 0.0
H1793 H 0.6161 0.93381 0.0138 0.0
H1794 H 0.60896 0.92801 0.98391 0.0
H1795 H 0.52156 0.92251 0.96634 0.0
H1796 H 0.52547 0.96084 0.98973 0.0
H1797 H 0.58401 0.95275 0.03074 0.0
C1798 C 0.57426 0.86405 0.97341 0.0
C1799 C 0.5603 0.84894 0.95361 0.0
C1800 C 0.54172 0.8567 0.94461 0.0
C1801 C 0.5372 0.8779 0.95389 0.0
C1802 C 0.55122 0.89236 0.97277 0.0
C1803 C 0.56935 0.88582 0.98268 0.0
C1804 C 0.58159 0.9055 1.00295 0.0
C1805 C 0.57946 0.89295 0.02472 0.0
C1806 C 0.60754 0.91906 0.99975 0.0
C1807 C 0.56758 0.92386 1.00264 0.0
C1808 C 0.55019 0.91557 0.98487 0.0
C1809 C 0.5351 0.92897 0.98034 0.0
C1810 C 0.53756 0.95115 0.99397 0.0
C1811 C 0.55498 0.9608 0.01265 0.0
C1812 C 0.57025 0.94643 0.01693 0.0
H1813 H 0.97507 0.82364 0.73216 0.0
H1814 H 0.97573 0.75032 0.74547 0.0
H1815 H 0.93884 0.74263 0.76313 0.0
H1816 H 0.95191 0.83663 0.78531 0.0
H1817 H 0.93371 0.85279 0.77332 0.0
H1818 H 0.95997 0.85285 0.76101 0.0
H1819 H 0.93536 0.83502 0.72302 0.0
H1820 H 0.90904 0.8349 0.73524 0.0
H1821 H 0.91038 0.80652 0.72119 0.0
H1822 H 0.899 0.74144 0.77902 0.0
H1823 H 0.86407 0.74808 0.79302 0.0
H1824 H 0.88756 0.82326 0.77332 0.0
C1825 C 0.96758 0.80589 0.73876 0.0
C1826 C 0.97942 0.78758 0.73682 0.0
C1827 C 0.96806 0.76494 0.74623 0.0
C1828 C 0.94663 0.7603 0.75646 0.0
C1829 C 0.93564 0.77843 0.75805 0.0
C1830 C 0.94592 0.80101 0.74962 0.0
C1831 C 0.93046 0.81748 0.75423 0.0
C1832 C 0.94487 0.84137 0.76936 0.0
C1833 C 0.92074 0.82388 0.7321 0.0
C1834 C 0.91002 0.80079 0.76638 0.0
C1835 C 0.91341 0.77817 0.7681 0.0
C1836 C 0.89668 0.7593 0.77781 0.0
C1837 C 0.87647 0.76332 0.78589 0.0
C1838 C 0.87211 0.78634 0.78508 0.0
C1839 C 0.88974 0.8054 0.77495 0.0
H1840 H 0.15574 0.07966 0.90877 0.0
H1841 H 0.12106 1.00521 0.87498 0.0
H1842 H 0.10629 0.99032 0.91044 0.0
H1843 H 0.17143 0.05857 0.964 0.0
H1844 H 0.16664 0.08449 0.97926 0.0
H1845 H 0.17749 0.08792 0.95223 0.0
H1846 H 0.14282 0.10207 0.93842 0.0
H1847 H 0.13187 0.09859 0.96526 0.0
H1848 H 0.11299 0.08213 0.94047 0.0
H1849 H 0.08929 0.98611 0.94778 0.0
H1850 H 0.07441 0.99224 0.98415 0.0
H1851 H 0.12297 0.06874 0.9935 0.0
C1852 C 0.14559 0.06007 0.90903 0.0
C1853 C 0.13943 0.04354 0.88932 0.0
C1854 C 0.12607 0.01806 0.89008 0.0
C1855 C 0.11763 1.00948 0.91011 0.0
C1856 C 0.12337 0.02651 0.92922 0.0
C1857 C 0.13757 0.05115 0.92892 0.0
C1858 C 0.13992 0.0662 0.95114 0.0
C1859 C 0.16539 0.07479 0.96232 0.0
C1860 C 0.13138 0.08854 0.94866 0.0
C1861 C 0.12359 0.04666 0.96355 0.0
C1862 C 0.11437 0.02377 0.95085 0.0
C1863 C 0.09689 1.00376 0.95811 0.0
C1864 C 0.08847 1.00742 0.97872 0.0
C1865 C 0.09754 0.03093 0.99169 0.0
C1866 C 0.11576 0.05044 0.98415 0.0
H1867 H 0.81397 0.33184 0.56288 0.0
H1868 H 0.75229 0.34559 0.58439 0.0
H1869 H 0.7561 0.32551 0.61871 0.0
H1870 H 0.80769 0.27264 0.59115 0.0
H1871 H 0.8391 0.28299 0.59857 0.0
H1872 H 0.8274 0.29109 0.57303 0.0
H1873 H 0.85062 0.33785 0.58549 0.0
H1874 H 0.86201 0.33006 0.61115 0.0
H1875 H 0.84609 0.35168 0.61183 0.0
H1876 H 0.77086 0.31192 0.65325 0.0
H1877 H 0.79571 0.30688 0.68556 0.0
H1878 H 0.84955 0.30503 0.64263 0.0
C1879 C 0.80053 0.32941 0.57424 0.0
C1880 C 0.78255 0.33974 0.57084 0.0
C1881 C 0.76595 0.33737 0.58658 0.0
C1882 C 0.76798 0.32597 0.60607 0.0
C1883 C 0.78677 0.31724 0.60956 0.0
C1884 C 0.80272 0.31873 0.59399 0.0
C1885 C 0.82371 0.31241 0.60332 0.0
C1886 C 0.82451 0.28834 0.59077 0.0
C1887 C 0.84695 0.33431 0.60293 0.0
C1888 C 0.81771 0.30838 0.62693 0.0
C1889 C 0.796 0.31049 0.63 0.0
C1890 C 0.78757 0.30958 0.65089 0.0
C1891 C 0.80181 0.30673 0.66913 0.0
C1892 C 0.82438 0.30531 0.66642 0.0
C1893 C 0.83224 0.30579 0.64501 0.0
H1894 H 0.48731 0.07184 0.4003 0.0
H1895 H 0.55281 0.1166 0.37766 0.0
H1896 H 0.57137 0.12673 0.41662 0.0
H1897 H 0.4963 0.10867 0.45973 0.0
H1898 H 0.48317 0.07959 0.47131 0.0
H1899 H 0.47281 0.08364 0.44354 0.0
H1900 H 0.48037 0.04372 0.42835 0.0
H1901 H 0.4913 0.03984 0.45574 0.0
H1902 H 0.50951 0.04195 0.43314 0.0
H1903 H 0.58537 0.12188 0.45462 0.0
H1904 H 0.59335 0.10478 0.4894 0.0
H1905 H 0.51885 0.06209 0.4878 0.0
C1906 C 0.50506 0.08514 0.40392 0.0
C1907 C 0.51857 0.0942 0.38644 0.0
C1908 C 0.54214 0.11029 0.39114 0.0
C1909 C 0.55277 0.11605 0.41319 0.0
C1910 C 0.53946 0.1055 0.43014 0.0
C1911 C 0.51589 0.09075 0.42583 0.0
C1912 C 0.50678 0.07778 0.446 0.0
C1913 C 0.4887 0.08805 0.45573 0.0
C1914 C 0.49641 0.04915 0.44046 0.0
C1915 C 0.52935 0.0856 0.4615 0.0
C1916 C 0.54781 0.1022 0.45236 0.0
C1917 C 0.57093 0.10951 0.46228 0.0
C1918 C 0.57533 0.09944 0.4819 0.0
C1919 C 0.55671 0.08201 0.49125 0.0
C1920 C 0.5334 0.07557 0.48118 0.0
H1921 H 0.80122 0.73197 0.13863 0.0
H1922 H 0.84183 0.80394 0.11878 0.0
H1923 H 0.84692 0.82242 0.15828 0.0
H1924 H 0.77053 0.75644 0.17976 0.0
H1925 H 0.77045 0.73315 0.1984 0.0
H1926 H 0.77005 0.72604 0.16875 0.0
H1927 H 0.80729 0.71387 0.17571 0.0
H1928 H 0.80792 0.72111 0.20536 0.0
H1929 H 0.83339 0.73605 0.19128 0.0
H1930 H 0.85054 0.83185 0.20151 0.0
H1931 H 0.8481 0.83284 0.24231 0.0
H1932 H 0.80168 0.75563 0.23364 0.0
C1933 C 0.81104 0.75172 0.1425 0.0
C1934 C 0.82123 0.76645 0.12537 0.0
C1935 C 0.83375 0.79223 0.13135 0.0
C1936 C 0.83682 0.80283 0.15386 0.0
C1937 C 0.82685 0.78762 0.17033 0.0
C1938 C 0.81375 0.76268 0.16475 0.0
C1939 C 0.80431 0.75038 0.18536 0.0
C1940 C 0.77723 0.74094 0.18291 0.0
C1941 C 0.8138 0.72909 0.18967 0.0
C1942 C 0.81441 0.7721 0.20364 0.0
C1943 C 0.82764 0.79336 0.19466 0.0
C1944 C 0.83989 0.81536 0.20847 0.0
C1945 C 0.83848 0.81571 0.23175 0.0
C1946 C 0.82452 0.79444 0.24137 0.0
C1947 C 0.81221 0.77237 0.22691 0.0
H1948 H 0.09946 0.08434 0.78204 0.0
H1949 H 0.07989 1.00389 0.77818 0.0
H1950 H 0.04769 0.99939 0.74876 0.0
H1951 H 0.03826 0.08768 0.76357 0.0
H1952 H 0.05157 0.11287 0.74718 0.0
H1953 H 0.06717 0.10985 0.77286 0.0
H1954 H 0.10269 0.10949 0.75152 0.0
H1955 H 0.0873 0.11253 0.72599 0.0
H1956 H 0.09804 0.08676 0.7277 0.0
H1957 H 1.02382 1.0035 0.71523 0.0
H1958 H 1.01374 0.01542 0.67843 0.0
H1959 H 0.05164 0.09332 0.70188 0.0
C1960 C 0.08754 0.06582 0.77576 0.0
C1961 C 0.09165 0.04445 0.78258 0.0
C1962 C 0.07665 0.02044 0.77331 0.0
C1963 C 0.05825 0.01774 0.75673 0.0
C1964 C 0.05529 0.03926 0.74948 0.0
C1965 C 0.0696 0.0629 0.75871 0.0
C1966 C 0.06645 0.08286 0.7449 0.0
C1967 C 0.05518 0.09928 0.75791 0.0
C1968 C 0.09 0.0988 0.73706 0.0
C1969 C 0.0495 0.06669 0.72562 0.0
C1970 C 0.04244 0.04169 0.72907 0.0
C1971 C 0.0289 0.02304 0.71251 0.0
C1972 C 1.02343 0.02998 0.69157 0.0
C1973 C 0.03205 0.05532 0.68716 0.0
C1974 C 0.04427 0.07388 0.7048 0.0
H1975 H 0.83202 0.3728 0.45054 0.0
H1976 H 0.75833 0.36553 0.44908 0.0
H1977 H 0.75358 0.35593 0.40788 0.0
H1978 H 0.84178 0.4008 0.39617 0.0
H1979 H 0.86168 0.38447 0.38955 0.0
H1980 H 0.85978 0.3941 0.41827 0.0
H1981 H 0.85057 0.34845 0.42772 0.0
H1982 H 0.85248 0.33874 0.39916 0.0
H1983 H 0.82613 0.32393 0.4121 0.0
H1984 H 0.75553 0.33961 0.36865 0.0
H1985 H 0.76441 0.32015 0.334 0.0
H1986 H 0.83765 0.34178 0.36054 0.0
C1987 C 0.81498 0.36959 0.44147 0.0
C1988 C 0.79545 0.36962 0.4528 0.0
C1989 C 0.77345 0.36556 0.44055 0.0
C1990 C 0.77066 0.36022 0.41721 0.0
C1991 C 0.79024 0.3598 0.40655 0.0
C1992 C 0.81208 0.36484 0.41828 0.0
C1993 C 0.82997 0.36161 0.40323 0.0
C1994 C 0.84945 0.38675 0.40171 0.0
C1995 C 0.84037 0.34201 0.41102 0.0
C1996 C 0.81446 0.35243 0.38138 0.0
C1997 C 0.79164 0.35176 0.38357 0.0
C1998 C 0.77345 0.3408 0.36651 0.0
C1999 C 0.77861 0.32975 0.34698 0.0
C2000 C 0.80177 0.33006 0.34467 0.0
C2001 C 0.82002 0.34218 0.36174 0.0
H2002 H 0.54494 0.04335 0.27773 0.0
H2003 H 0.5397 0.1163 0.27101 0.0
H2004 H 0.57181 0.12549 0.24633 0.0
H2005 H 0.61001 0.05901 0.27044 0.0
H2006 H 0.60405 0.02976 0.25357 0.0
H2007 H 0.58615 0.03174 0.27574 0.0
H2008 H 0.54843 0.01466 0.24761 0.0
H2009 H 0.56617 1.01225 0.22567 0.0
H2010 H 0.54679 0.03016 0.22287 0.0
H2011 H 0.60023 0.12451 0.2188 0.0
H2012 H 0.61561 0.11091 0.18547 0.0
H2013 H 0.59799 0.03649 0.207 0.0
C2014 C 0.55127 0.06159 0.27168 0.0
C2015 C 0.54041 0.07936 0.27645 0.0
C2016 C 0.54816 0.10262 0.26759 0.0
C2017 C 0.56653 0.10807 0.25383 0.0
C2018 C 0.57664 0.08988 0.24894 0.0
C2019 C 0.569 0.06693 0.25736 0.0
C2020 C 0.57882 0.04868 0.24594 0.0
C2021 C 0.59577 0.04191 0.26241 0.0
C2022 C 0.55888 0.02509 0.23485 0.0
C2023 C 0.592 0.06442 0.22884 0.0
C2024 C 0.59154 0.08849 0.23157 0.0
C2025 C 0.60079 0.10575 0.21658 0.0
C2026 C 0.6093 0.09774 0.19754 0.0
C2027 C 0.60753 0.07238 0.19317 0.0
C2028 C 0.60006 0.05606 0.20978 0.0
H2029 H 0.80558 0.78745 0.98475 0.0
H2030 H 0.83846 0.73068 0.98631 0.0
H2031 H 0.84166 0.73137 0.94582 0.0
H2032 H 0.77205 0.76577 0.93094 0.0
H2033 H 0.77656 0.79645 0.92232 0.0
H2034 H 0.77701 0.79197 0.95158 0.0
H2035 H 0.81849 0.82569 0.95922 0.0
H2036 H 0.8181 0.83034 0.92999 0.0
H2037 H 0.8419 0.82269 0.94371 0.0
H2038 H 0.83879 0.73591 0.90383 0.0
H2039 H 0.83354 0.74683 0.86532 0.0
H2040 H 0.80525 0.80293 0.89019 0.0
C2041 C 0.8137 0.77535 0.97665 0.0
C2042 C 0.82182 0.75899 0.98918 0.0
C2043 C 0.8322 0.7435 0.97753 0.0
C2044 C 0.83402 0.74367 0.95433 0.0
C2045 C 0.82567 0.7597 0.94252 0.0
C2046 C 0.81601 0.77556 0.95334 0.0
C2047 C 0.80869 0.7912 0.93661 0.0
C2048 C 0.78199 0.78604 0.93529 0.0
C2049 C 0.82263 0.81914 0.94276 0.0
C2050 C 0.81551 0.78152 0.91475 0.0
C2051 C 0.82505 0.76314 0.91854 0.0
C2052 C 0.83163 0.75054 0.90084 0.0
C2053 C 0.82854 0.75686 0.87887 0.0
C2054 C 0.8193 0.77603 0.87441 0.0
C2055 C 0.81279 0.78851 0.89285 0.0
H2056 H 0.86189 0.0835 0.07305 0.0
H2057 H 0.86207 0.13085 0.01995 0.0
H2058 H 0.88591 0.11085 0.99912 0.0
H2059 H 0.92184 0.08542 0.07098 0.0
H2060 H 0.91519 0.05357 0.07728 0.0
H2061 H 0.89809 0.07168 0.0875 0.0
H2062 H 0.85998 0.03728 0.0685 0.0
H2063 H 0.87711 0.01939 0.05786 0.0
H2064 H 0.85747 0.02813 0.03892 0.0
H2065 H 0.90905 0.08486 0.98392 0.0
H2066 H 0.93322 0.05816 0.97732 0.0
H2067 H 0.91864 0.02939 0.0413 0.0
C2068 C 0.86697 0.0897 0.05705 0.0
C2069 C 0.86008 0.10859 0.048 0.0
C2070 C 0.86726 0.11642 0.02716 0.0
C2071 C 0.88064 0.10507 0.01517 0.0
C2072 C 0.8868 0.08616 0.02442 0.0
C2073 C 0.88049 0.07883 0.04505 0.0
C2074 C 0.89003 0.05877 0.05172 0.0
C2075 C 0.90731 0.06792 0.07313 0.0
C2076 C 0.86994 0.03445 0.0544 0.0
C2077 C 0.9026 0.05583 0.03157 0.0
C2078 C 0.90041 0.07162 0.01591 0.0
C2079 C 0.91094 0.07247 0.99609 0.0
C2080 C 0.92462 0.05726 0.9925 0.0
C2081 C 0.92775 0.04161 1.00875 0.0
C2082 C 0.91619 0.04067 0.02831 0.0
H2083 H 0.4022 0.40169 0.04789 0.0
H2084 H 0.37236 0.45508 0.07625 0.0
H2085 H 0.41034 0.48896 0.07592 0.0
H2086 H 0.46014 0.42935 0.07799 0.0
H2087 H 0.47525 0.42325 0.0548 0.0
H2088 H 0.44571 0.40302 0.05743 0.0
H2089 H 0.43222 0.41068 0.01768 0.0
H2090 H 0.4617 0.43099 0.01496 0.0
H2091 H 0.43733 0.44224 0.01109 0.0
H2092 H 0.45183 0.51724 0.07299 0.0
H2093 H 0.49365 0.53769 0.06717 0.0
H2094 H 0.49634 0.46631 0.03991 0.0
C2095 C 0.40366 0.42048 0.05411 0.0
C2096 C 0.38419 0.42561 0.06213 0.0
C2097 C 0.38691 0.45056 0.06998 0.0
C2098 C 0.40846 0.47 0.06988 0.0
C2099 C 0.42722 0.46433 0.0618 0.0
C2100 C 0.42505 0.4402 0.05401 0.0
C2101 C 0.44794 0.43923 0.04603 0.0
C2102 C 0.45784 0.42274 0.05989 0.0
C2103 C 0.44459 0.43026 0.02095 0.0
C2104 C 0.46327 0.46655 0.05059 0.0
C2105 C 0.45101 0.48071 0.05975 0.0
C2106 C 0.46159 0.50635 0.06575 0.0
C2107 C 0.48536 0.51782 0.06237 0.0
C2108 C 0.49828 0.50369 0.05297 0.0
C2109 C 0.48694 0.47772 0.04695 0.0
H2110 H 0.38097 0.60929 0.73799 0.0
H2111 H 0.4327 0.63041 0.79629 0.0
H2112 H 0.41049 0.65468 0.81404 0.0
H2113 H 0.37021 0.66788 0.73799 0.0
H2114 H 0.33921 0.65288 0.72922 0.0
H2115 H 0.35985 0.63818 0.72108 0.0
H2116 H 0.33602 0.59833 0.7385 0.0
H2117 H 0.31559 0.61318 0.74696 0.0
H2118 H 0.33065 0.60079 0.76742 0.0
H2119 H 0.38237 0.67649 0.8253 0.0
H2120 H 0.3512 0.69507 0.82879 0.0
H2121 H 0.31727 0.65763 0.76369 0.0
C2122 C 0.3878 0.61919 0.75441 0.0
C2123 C 0.4086 0.61805 0.76575 0.0
C2124 C 0.41682 0.63111 0.78729 0.0
C2125 C 0.40431 0.64488 0.79751 0.0
C2126 C 0.38365 0.64527 0.78597 0.0
C2127 C 0.37552 0.63284 0.76486 0.0
C2128 C 0.3527 0.63589 0.75609 0.0
C2129 C 0.35569 0.64952 0.73484 0.0
C2130 C 0.33256 0.61054 0.75201 0.0
C2131 C 0.34923 0.652 0.77558 0.0
C2132 C 0.36725 0.65726 0.79264 0.0
C2133 C 0.36806 0.67232 0.81213 0.0
C2134 C 0.35015 0.68258 0.81404 0.0
C2135 C 0.33168 0.67763 0.79658 0.0
C2136 C 0.33117 0.66185 0.77728 0.0
H2137 H 0.23457 0.62891 0.55109 0.0
H2138 H 0.24563 0.59311 0.60993 0.0
H2139 H 0.20268 0.5725 0.60924 0.0
H2140 H 0.18462 0.64167 0.56529 0.0
H2141 H 0.16944 0.63481 0.53747 0.0
H2142 H 0.20113 0.64527 0.54133 0.0
H2143 H 0.20069 0.60587 0.51684 0.0
H2144 H 0.16895 0.59533 0.51278 0.0
H2145 H 0.18369 0.57535 0.52387 0.0
H2146 H 0.15936 0.56041 0.60527 0.0
H2147 H 0.11731 0.55387 0.59612 0.0
H2148 H 0.13343 0.59455 0.53804 0.0
C2149 C 0.22794 0.61648 0.56365 0.0
C2150 C 0.24337 0.61264 0.58063 0.0
C2151 C 0.2341 0.59621 0.59674 0.0
C2152 C 0.20976 0.58445 0.59649 0.0
C2153 C 0.19503 0.58896 0.57977 0.0
C2154 C 0.20369 0.60422 0.56341 0.0
C2155 C 0.18387 0.60635 0.54769 0.0
C2156 C 0.18483 0.63365 0.54798 0.0
C2157 C 0.18433 0.59505 0.52388 0.0
C2158 C 0.16272 0.59061 0.55828 0.0
C2159 C 0.16967 0.58082 0.57679 0.0
C2160 C 0.15364 0.56746 0.59055 0.0
C2161 C 0.12983 0.56398 0.58529 0.0
C2162 C 0.12226 0.5735 0.56627 0.0
C2163 C 0.13884 0.5867 0.55241 0.0
H2164 H 0.72838 1.00008 0.80013 0.0
H2165 H 0.77209 0.03477 0.74954 0.0
H2166 H 0.8036 0.02028 0.76469 0.0
H2167 H 0.77699 1.00985 0.8456 0.0
H2168 H 0.76291 0.9796 0.85485 0.0
H2169 H 0.74529 0.99628 0.84267 0.0
H2170 H 0.72438 0.95828 0.81324 0.0
H2171 H 0.74177 0.9415 0.82543 0.0
H2172 H 0.74189 0.94583 0.79614 0.0
H2173 H 0.82833 0.9987 0.7822 0.0
H2174 H 0.84299 0.96766 0.79834 0.0
H2175 H 0.78334 0.94605 0.83742 0.0
C2176 C 0.7448 1.00503 0.79261 0.0
C2177 C 0.74794 0.0186 0.77381 0.0
C2178 C 0.76938 0.02431 0.76397 0.0
C2179 C 0.78747 0.01641 0.77259 0.0
C2180 C 0.78378 1.00281 0.791 0.0
C2181 C 0.76293 0.99697 0.80082 0.0
C2182 C 0.76233 0.97941 0.81855 0.0
C2183 C 0.76186 0.99205 0.8418 0.0
C2184 C 0.74136 0.95481 0.81299 0.0
C2185 C 0.78562 0.97548 0.81644 0.0
C2186 C 0.798 0.98971 0.8009 0.0
C2187 C 0.81908 0.9878 0.79472 0.0
C2188 C 0.82733 0.97021 0.80408 0.0
C2189 C 0.81435 0.9546 0.81922 0.0
C2190 C 0.79366 0.95788 0.82598 0.0
H2191 H 0.76157 0.92256 0.5406 0.0
H2192 H 0.78551 0.94864 0.61053 0.0
H2193 H 0.75904 0.97327 0.61079 0.0
H2194 H 0.75792 0.98136 0.52515 0.0
H2195 H 0.73195 0.96718 0.50563 0.0
H2196 H 0.75225 0.95076 0.51085 0.0
H2197 H 0.71825 0.91309 0.52143 0.0
H2198 H 0.69785 0.92941 0.51626 0.0
H2199 H 0.70067 0.91792 0.54298 0.0
H2200 H 0.72974 0.99438 0.60416 0.0
H2201 H 0.70077 1.01304 0.59022 0.0
H2202 H 0.69647 0.97554 0.52402 0.0
C2203 C 0.76114 0.9334 0.55595 0.0
C2204 C 0.77559 0.93359 0.57558 0.0
C2205 C 0.7747 0.94822 0.59527 0.0
C2206 C 0.75965 0.96224 0.59563 0.0
C2207 C 0.74569 0.96173 0.57608 0.0
C2208 C 0.74639 0.94791 0.55652 0.0
C2209 C 0.72998 0.95141 0.53773 0.0
C2210 C 0.74386 0.96339 0.51872 0.0
C2211 C 0.71053 0.92647 0.5291 0.0
C2212 C 0.71996 0.96923 0.54986 0.0
C2213 C 0.72917 0.9747 0.57202 0.0
C2214 C 0.72242 0.9903 0.58682 0.0
C2215 C 0.70587 1.00071 0.57878 0.0
C2216 C 0.69632 0.9957 0.55608 0.0
C2217 C 0.70358 0.9798 0.54143 0.0
H2218 H 0.4356 0.4889 0.78136 0.0
H2219 H 0.38132 0.50201 0.73789 0.0
H2220 H 0.35348 0.46086 0.74365 0.0
H2221 H 0.41897 0.4226 0.76288 0.0
H2222 H 0.42531 0.41433 0.79029 0.0
H2223 H 0.44133 0.44483 0.7826 0.0
H2224 H 0.42896 0.46525 0.8171 0.0
H2225 H 0.41272 0.43482 0.82479 0.0
H2226 H 0.39812 0.45724 0.8208 0.0
H2227 H 0.33112 0.41971 0.75489 0.0
H2228 H 0.31579 0.37862 0.76871 0.0
H2229 H 0.38437 0.39067 0.80445 0.0
C2230 C 0.41791 0.48304 0.77295 0.0
C2231 C 0.41066 0.49875 0.7592 0.0
C2232 C 0.38735 0.49036 0.74846 0.0
C2233 C 0.37134 0.46703 0.75168 0.0
C2234 C 0.37893 0.45221 0.76555 0.0
C2235 C 0.40168 0.45966 0.77584 0.0
C2236 C 0.40518 0.43983 0.78975 0.0
C2237 C 0.4238 0.4298 0.78084 0.0
C2238 C 0.41162 0.44989 0.81458 0.0
C2239 C 0.38075 0.42022 0.78575 0.0
C2240 C 0.36596 0.42792 0.77182 0.0
C2241 C 0.34253 0.41335 0.76571 0.0
C2242 C 0.334 0.39002 0.77375 0.0
C2243 C 0.34888 0.38132 0.78768 0.0
C2244 C 0.37255 0.39678 0.79389 0.0
H2245 H 0.20584 0.6155 0.27606 0.0
H2246 H 0.2556 0.5883 0.24367 0.0
H2247 H 0.28327 0.63172 0.24539 0.0
H2248 H 0.21701 0.67191 0.24906 0.0
H2249 H 0.21391 0.68988 0.27372 0.0
H2250 H 0.19796 0.65678 0.26921 0.0
H2251 H 0.21633 0.65118 0.30782 0.0
H2252 H 0.23241 0.68423 0.31241 0.0
H2253 H 0.24794 0.66233 0.31397 0.0
H2254 H 0.30585 0.67823 0.2518 0.0
H2255 H 0.32117 0.72397 0.26177 0.0
H2256 H 0.2561 0.71955 0.28994 0.0
C2257 C 0.22247 0.61857 0.26916 0.0
C2258 C 0.22855 0.59851 0.2597 0.0
C2259 C 0.25056 0.60342 0.25097 0.0
C2260 C 0.26638 0.62798 0.25188 0.0
C2261 C 0.25985 0.64729 0.26154 0.0
C2262 C 0.23838 0.64281 0.26996 0.0
C2263 C 0.23563 0.66662 0.27987 0.0
C2264 C 0.2149 0.67158 0.2672 0.0
C2265 C 0.23293 0.66604 0.305 0.0
C2266 C 0.25897 0.68527 0.27578 0.0
C2267 C 0.27273 0.67384 0.2652 0.0
C2268 C 0.29519 0.68739 0.26002 0.0
C2269 C 0.30374 0.71333 0.26578 0.0
C2270 C 0.2898 0.72532 0.27658 0.0
C2271 C 0.26716 0.711 0.2816 0.0
H2272 H 0.53243 0.69536 0.48361 0.0
H2273 H 0.57414 0.75196 0.53645 0.0
H2274 H 0.58227 0.71948 0.55691 0.0
H2275 H 0.50831 0.64455 0.51981 0.0
H2276 H 0.51071 0.62053 0.50001 0.0
H2277 H 0.50569 0.64763 0.4903 0.0
H2278 H 0.54265 0.65664 0.46889 0.0
H2279 H 0.54783 0.62965 0.47858 0.0
H2280 H 0.57063 0.6599 0.4838 0.0
H2281 H 0.58803 0.68237 0.57079 0.0
H2282 H 0.59254 0.6424 0.57732 0.0
H2283 H 0.54856 0.6078 0.51533 0.0
C2284 C 0.5428 0.70074 0.49973 0.0
C2285 C 0.55243 0.72625 0.50859 0.0
C2286 C 0.56649 0.73263 0.52941 0.0
C2287 C 0.57117 0.71427 0.54119 0.0
C2288 C 0.56186 0.68946 0.53191 0.0
C2289 C 0.548 0.68252 0.51167 0.0
C2290 C 0.54178 0.65458 0.50495 0.0
C2291 C 0.51503 0.64102 0.5037 0.0
C2292 C 0.55129 0.64993 0.48274 0.0
C2293 C 0.55467 0.64713 0.5244 0.0
C2294 C 0.56582 0.66766 0.53979 0.0
C2295 C 0.57932 0.66613 0.5589 0.0
C2296 C 0.58183 0.64318 0.56239 0.0
C2297 C 0.57105 0.6217 0.54682 0.0
C2298 C 0.55698 0.62372 0.52762 0.0
H2299 H 0.67578 0.31845 0.71421 0.0
H2300 H 0.70988 0.35155 0.65769 0.0
H2301 H 0.74857 0.35509 0.67677 0.0
H2302 H 0.72179 0.35656 0.75738 0.0
H2303 H 0.71838 0.33121 0.77445 0.0
H2304 H 0.69355 0.33217 0.7566 0.0
H2305 H 0.68774 0.28792 0.73787 0.0
H2306 H 0.71264 0.2869 0.75553 0.0
H2307 H 0.71192 0.28213 0.72559 0.0
H2308 H 0.78361 0.35258 0.70132 0.0
H2309 H 0.81202 0.34705 0.73029 0.0
H2310 H 0.75503 0.31665 0.77108 0.0
C2311 C 0.69138 0.32677 0.70592 0.0
C2312 C 0.68966 0.33479 0.6844 0.0
C2313 C 0.71063 0.34542 0.6742 0.0
C2314 C 0.73273 0.34742 0.68489 0.0
C2315 C 0.73372 0.33894 0.70591 0.0
C2316 C 0.71361 0.32908 0.71642 0.0
C2317 C 0.71941 0.32111 0.73892 0.0
C2318 C 0.7129 0.33617 0.75796 0.0
C2319 C 0.7072 0.29284 0.7395 0.0
C2320 C 0.7459 0.32786 0.73939 0.0
C2321 C 0.75384 0.33801 0.72017 0.0
C2322 C 0.77758 0.34495 0.71657 0.0
C2323 C 0.79361 0.34169 0.73314 0.0
C2324 C 0.78592 0.33165 0.75317 0.0
C2325 C 0.76165 0.32463 0.75614 0.0
H2326 H 0.05371 0.3653 1.00079 0.0
H2327 H 0.98773 0.3307 0.02845 0.0
H2328 H 0.98769 0.37224 0.04265 0.0
H2329 H 0.07886 0.41522 0.04726 0.0
H2330 H 0.09328 0.43817 0.02923 0.0
H2331 H 0.08852 0.4056 0.02168 0.0
H2332 H 0.06661 0.40767 0.98375 0.0
H2333 H 0.07109 0.44016 0.99128 0.0
H2334 H 0.04172 0.41832 0.98339 0.0
H2335 H 0.99299 0.4178 0.05138 0.0
H2336 H 1.00588 0.46387 0.05796 0.0
H2337 H 0.06959 0.4694 0.02691 0.0
C2338 C 0.03943 0.36645 0.0101 0.0
C2339 C 1.02071 0.34456 0.01346 0.0
C2340 C 1.00235 0.34703 0.02571 0.0
C2341 C 1.00209 0.37062 0.03378 0.0
C2342 C 1.02049 0.39179 0.02982 0.0
C2343 C 0.03908 0.38996 0.01865 0.0
C2344 C 0.05678 0.41576 0.01694 0.0
C2345 C 0.08078 0.41887 0.02953 0.0
C2346 C 0.05918 0.42076 0.99238 0.0
C2347 C 0.04503 0.43229 0.02854 0.0
C2348 C 1.02401 0.41807 0.03567 0.0
C2349 C 1.00956 0.42911 0.04608 0.0
C2350 C 1.01696 0.45534 0.04963 0.0
C2351 C 0.03877 0.47035 0.04305 0.0
C2352 C 0.05289 0.45851 0.03231 0.0
H2353 H 0.04314 0.78682 0.21374 0.0
H2354 H 0.04984 0.84959 0.17508 0.0
H2355 H 1.01987 0.8598 0.19558 0.0
H2356 H 0.98019 0.76849 0.21576 0.0
H2357 H 0.98136 0.75993 0.24387 0.0
H2358 H 1.00332 0.75759 0.22611 0.0
H2359 H 0.03625 0.78593 0.25594 0.0
H2360 H 1.01438 0.78846 0.27374 0.0
H2361 H 0.03572 0.81628 0.26586 0.0
H2362 H 0.98958 0.86363 0.22082 0.0
H2363 H 0.96052 0.8601 0.24812 0.0
H2364 H 0.97274 0.7941 0.26955 0.0
C2365 C 0.03829 0.80269 0.20954 0.0
C2366 C 0.04889 0.81742 0.19279 0.0
C2367 C 0.04198 0.838 0.18781 0.0
C2368 C 1.02498 0.84398 0.19939 0.0
C2369 C 1.01497 0.82916 0.21587 0.0
C2370 C 1.02128 0.80887 0.22088 0.0
C2371 C 1.00773 0.79588 0.23923 0.0
C2372 C 0.99223 0.76888 0.23073 0.0
C2373 C 1.02453 0.7967 0.25992 0.0
C2374 C 0.9929 0.81209 0.24384 0.0
C2375 C 0.99736 0.83121 0.23022 0.0
C2376 C 0.98585 0.84864 0.23148 0.0
C2377 C 0.96925 0.84639 0.24699 0.0
C2378 C 0.9642 0.82679 0.26103 0.0
C2379 C 0.97634 0.80951 0.25934 0.0
H2380 H 0.56126 0.37928 0.15093 0.0
H2381 H 0.60026 0.35014 0.10544 0.0
H2382 H 0.60299 0.38466 0.08234 0.0
H2383 H 0.52855 0.40198 0.10869 0.0
H2384 H 0.53063 0.4302 0.12551 0.0
H2385 H 0.53108 0.40303 0.13874 0.0
H2386 H 0.57047 0.42921 0.16158 0.0
H2387 H 0.57028 0.45641 0.14824 0.0
H2388 H 0.59516 0.4459 0.14725 0.0
H2389 H 0.60092 0.42278 0.06241 0.0
H2390 H 0.59609 0.46084 0.0493 0.0
H2391 H 0.5603 0.46944 0.10738 0.0
C2392 C 0.57037 0.38005 0.13609 0.0
C2393 C 0.58045 0.36102 0.13039 0.0
C2394 C 0.59228 0.36373 0.11069 0.0
C2395 C 0.59393 0.38357 0.09723 0.0
C2396 C 0.58395 0.40174 0.10323 0.0
C2397 C 0.57254 0.40036 0.12237 0.0
C2398 C 0.56391 0.42298 0.12506 0.0
C2399 C 0.53694 0.41401 0.12448 0.0
C2400 C 0.57565 0.4396 0.14684 0.0
C2401 C 0.57204 0.43706 0.10451 0.0
C2402 C 0.58345 0.42419 0.09213 0.0
C2403 C 0.59211 0.43288 0.07223 0.0
C2404 C 0.58922 0.45487 0.06478 0.0
C2405 C 0.5779 0.46912 0.07693 0.0
C2406 C 0.56926 0.45967 0.09737 0.0
H2407 H 0.97543 0.28512 0.3941 0.0
H2408 H 1.0095 0.27808 0.33457 0.0
H2409 H 0.97354 0.27714 0.31134 0.0
H2410 H 0.91602 0.24285 0.37089 0.0
H2411 H 0.90072 0.26061 0.38518 0.0
H2412 H 0.92908 0.26114 0.39718 0.0
H2413 H 0.9449 0.30924 0.39896 0.0
H2414 H 0.9166 0.30885 0.38695 0.0
H2415 H 0.94276 0.32402 0.37388 0.0
H2416 H 0.93253 0.27911 0.29366 0.0
H2417 H 0.89269 0.28049 0.28408 0.0
H2418 H 0.88188 0.28308 0.35426 0.0
C2419 C 0.97552 0.28332 0.37614 0.0
C2420 C 0.99639 0.28181 0.36665 0.0
C2421 C 0.9946 0.27929 0.34286 0.0
C2422 C 0.97389 0.2788 0.32935 0.0
C2423 C 0.95398 0.28044 0.33926 0.0
C2424 C 0.95458 0.28234 0.36226 0.0
C2425 C 0.9305 0.28316 0.36875 0.0
C2426 C 0.91836 0.2606 0.38125 0.0
C2427 C 0.93389 0.30778 0.38299 0.0
C2428 C 0.91622 0.2817 0.34598 0.0
C2429 C 0.93035 0.28038 0.32922 0.0
C2430 C 0.9216 0.27988 0.3069 0.0
C2431 C 0.89851 0.28071 0.30153 0.0
C2432 C 0.88294 0.28163 0.31796 0.0
C2433 C 0.89243 0.28198 0.34078 0.0
H2434 H 0.06187 0.74526 0.61769 0.0
H2435 H 1.01919 0.71679 0.67096 0.0
H2436 H 1.01612 0.67408 0.65747 0.0
H2437 H 0.02971 0.69175 0.57494 0.0
H2438 H 0.05575 0.69125 0.56253 0.0
H2439 H 0.05466 0.72014 0.57578 0.0
H2440 H 0.0926 0.72564 0.60125 0.0
H2441 H 0.09375 0.69672 0.58813 0.0
H2442 H 0.09367 0.7011 0.61801 0.0
H2443 H 1.01878 0.6332 0.63961 0.0
H2444 H 1.02477 0.59818 0.61776 0.0
H2445 H 0.06444 0.6494 0.57356 0.0
C2446 C 0.05157 0.73007 0.6264 0.0
C2447 C 0.04067 0.73538 0.64574 0.0
C2448 C 0.02775 0.71423 0.6563 0.0
C2449 C 1.02591 0.68948 0.6487 0.0
C2450 C 0.03694 0.68502 0.63005 0.0
C2451 C 0.04937 0.70469 0.61881 0.0
C2452 C 0.05942 0.69415 0.59908 0.0
C2453 C 0.04929 0.69966 0.57675 0.0
C2454 C 0.08647 0.70506 0.60178 0.0
C2455 C 0.05081 0.66572 0.60111 0.0
C2456 C 0.03798 0.66114 0.61931 0.0
C2457 C 0.02866 0.63677 0.62526 0.0
C2458 C 0.03227 0.6167 0.61255 0.0
C2459 C 0.04502 0.62011 0.59343 0.0
C2460 C 0.05439 0.64545 0.58777 0.0
H2461 H 0.63901 0.76602 0.88791 0.0
H2462 H 0.62297 0.8232 0.85342 0.0
H2463 H 0.65941 0.83071 0.83473 0.0
H2464 H 0.70334 0.795 0.89522 0.0
H2465 H 0.70929 0.76639 0.88949 0.0
H2466 H 0.68235 0.76569 0.90078 0.0
H2467 H 0.65816 0.73396 0.86783 0.0
H2468 H 0.68504 0.73449 0.85649 0.0
H2469 H 0.66259 0.74136 0.8396 0.0
H2470 H 0.70156 0.83448 0.82077 0.0
H2471 H 0.73891 0.83021 0.81034 0.0
H2472 H 0.72756 0.7673 0.84933 0.0
C2473 C 0.64294 0.78011 0.87634 0.0
C2474 C 0.62698 0.79399 0.87268 0.0
C2475 C 0.63384 0.81198 0.85701 0.0
C2476 C 0.655 0.81653 0.84619 0.0
C2477 C 0.67011 0.80276 0.85024 0.0
C2478 C 0.66401 0.78445 0.8647 0.0
C2479 C 0.68291 0.77149 0.86531 0.0
C2480 C 0.69519 0.77483 0.88912 0.0
C2481 C 0.67149 0.74366 0.85681 0.0
C2482 C 0.70065 0.78534 0.84925 0.0
C2483 C 0.69304 0.80367 0.84106 0.0
C2484 C 0.70707 0.81979 0.827 0.0
C2485 C 0.72871 0.81722 0.82105 0.0
C2486 C 0.73709 0.79816 0.82824 0.0
C2487 C 0.72223 0.78194 0.84276 0.0
H2488 H 0.47352 0.57695 0.67722 0.0
H2489 H 0.52987 0.60468 0.73145 0.0
H2490 H 0.55917 0.60704 0.7047 0.0
H2491 H 0.49598 0.53699 0.65007 0.0
H2492 H 0.48737 0.54168 0.62195 0.0
H2493 H 0.47091 0.54674 0.64429 0.0
H2494 H 0.47761 0.59188 0.63457 0.0
H2495 H 0.49378 0.58675 0.6119 0.0
H2496 H 0.50717 0.61278 0.63299 0.0
H2497 H 0.58166 0.60041 0.67363 0.0
H2498 H 0.59624 0.5875 0.6393 0.0
H2499 H 0.52524 0.56353 0.60539 0.0
C2500 C 0.49207 0.5844 0.68328 0.0
C2501 C 0.49951 0.59076 0.70629 0.0
C2502 C 0.52387 0.59975 0.71381 0.0
C2503 C 0.54064 0.60123 0.69877 0.0
C2504 C 0.53272 0.59374 0.6763 0.0
C2505 C 0.50905 0.58579 0.66847 0.0
C2506 C 0.5051 0.57636 0.6439 0.0
C2507 C 0.48889 0.54881 0.63984 0.0
C2508 C 0.49535 0.59294 0.63002 0.0
C2509 C 0.5301 0.57931 0.63948 0.0
C2510 C 0.5458 0.58967 0.65827 0.0
C2511 C 0.56965 0.59271 0.65864 0.0
C2512 C 0.57772 0.58514 0.63914 0.0
C2513 C 0.56191 0.57455 0.61969 0.0
C2514 C 0.53783 0.57173 0.61994 0.0
H2515 H 0.80472 0.23678 0.02936 0.0
H2516 H 0.85285 0.19942 0.00913 0.0
H2517 H 0.85703 0.22059 0.97457 0.0
H2518 H 0.77396 0.22921 0.97759 0.0
H2519 H 0.76937 0.25885 0.98009 0.0
H2520 H 0.77317 0.24417 1.00475 0.0
H2521 H 0.80805 0.28381 0.02105 0.0
H2522 H 0.80424 0.29876 0.99648 0.0
H2523 H 0.83247 0.29622 1.00491 0.0
H2524 H 0.85237 0.24202 0.94052 0.0
H2525 H 0.8394 0.26208 0.90968 0.0
H2526 H 0.79341 0.2843 0.95201 0.0
C2527 C 0.81667 0.23356 0.01799 0.0
C2528 C 0.82861 0.21661 0.02199 0.0
C2529 C 0.84366 0.21248 1.00645 0.0
C2530 C 0.84617 0.22444 0.98681 0.0
C2531 C 0.83355 0.24047 0.98307 0.0
C2532 C 0.8192 0.24515 0.99831 0.0
C2533 C 0.80581 0.26122 0.98948 0.0
C2534 C 0.779 0.24753 0.98788 0.0
C2535 C 0.81309 0.28651 1.00384 0.0
C2536 C 0.81432 0.2643 0.9666 0.0
C2537 C 0.83054 0.25247 0.96332 0.0
C2538 C 0.83987 0.25155 0.943 0.0
C2539 C 0.83225 0.26283 0.92554 0.0
C2540 C 0.81538 0.27474 0.92847 0.0
C2541 C 0.8066 0.27571 0.94939 0.0
H2542 H 0.10878 0.5069 0.21841 0.0
H2543 H 0.1582 0.47611 0.18996 0.0
H2544 H 0.13661 0.47115 0.15274 0.0
H2545 H 0.0548 0.47112 0.17551 0.0
H2546 H 0.04616 0.49844 0.17609 0.0
H2547 H 0.06009 0.49155 0.20104 0.0
H2548 H 0.09172 0.53568 0.20431 0.0
H2549 H 0.07839 0.54255 0.17925 0.0
H2550 H 0.10898 0.54507 0.18132 0.0
H2551 H 0.11794 0.48067 0.11879 0.0
H2552 H 0.10141 0.50113 0.09059 0.0
H2553 H 0.06413 0.52642 0.14032 0.0
C2554 C 0.11442 0.498 0.20452 0.0
C2555 C 0.13522 0.492 0.20705 0.0
C2556 C 0.14227 0.48078 0.18844 0.0
C2557 C 0.13004 0.47782 0.16722 0.0
C2558 C 0.11067 0.48581 0.16501 0.0
C2559 C 0.10254 0.49519 0.18325 0.0
C2560 C 0.08412 0.5065 0.17613 0.0
C2561 C 0.05985 0.49097 0.18257 0.0
C2562 C 0.09126 0.53407 0.18582 0.0
C2563 C 0.08471 0.50406 0.1511 0.0
C2564 C 0.09965 0.49142 0.145 0.0
C2565 C 0.10568 0.48989 0.12326 0.0
C2566 C 0.09656 0.50188 0.10747 0.0
C2567 C 0.08177 0.51535 0.11357 0.0
C2568 C 0.07512 0.51579 0.13537 0.0
H2569 H 0.83536 0.81718 0.49067 0.0
H2570 H 0.78366 0.85435 0.49391 0.0
H2571 H 0.78015 0.85344 0.45282 0.0
H2572 H 0.8646 0.84964 0.44634 0.0
H2573 H 0.86984 0.8231 0.43272 0.0
H2574 H 0.86761 0.82524 0.46236 0.0
H2575 H 0.83436 0.78215 0.45765 0.0
H2576 H 0.8366 0.7798 0.428 0.0
H2577 H 0.80868 0.77693 0.43821 0.0
H2578 H 0.78267 0.84956 0.41099 0.0
H2579 H 0.79051 0.84262 0.37207 0.0
H2580 H 0.84135 0.8085 0.39425 0.0
C2581 C 0.823 0.82477 0.48273 0.0
C2582 C 0.80956 0.83563 0.49592 0.0
C2583 C 0.79404 0.84576 0.48455 0.0
C2584 C 0.79195 0.84537 0.46106 0.0
C2585 C 0.8056 0.83492 0.44867 0.0
C2586 C 0.8208 0.8247 0.45907 0.0
C2587 C 0.83385 0.81521 0.44165 0.0
C2588 C 0.86056 0.82913 0.44604 0.0
C2589 C 0.82802 0.78683 0.44137 0.0
C2590 C 0.82369 0.82175 0.41992 0.0
C2591 C 0.80735 0.83304 0.42447 0.0
C2592 C 0.79545 0.84072 0.40733 0.0
C2593 C 0.80011 0.8367 0.38509 0.0
C2594 C 0.81672 0.8251 0.37961 0.0
C2595 C 0.8287 0.81762 0.39756 0.0
H2596 H 0.48696 0.58654 0.84466 0.0
H2597 H 0.54421 0.5971 0.80336 0.0
H2598 H 0.57164 0.60024 0.83661 0.0
H2599 H 0.52558 0.62313 0.89999 0.0
H2600 H 0.5075 0.60011 0.91602 0.0
H2601 H 0.49449 0.60861 0.89137 0.0
H2602 H 0.47787 0.56205 0.87524 0.0
H2603 H 0.49085 0.55343 0.89955 0.0
H2604 H 0.4978 0.54484 0.87226 0.0
H2605 H 0.5899 0.59103 0.8709 0.0
H2606 H 0.59686 0.56886 0.90298 0.0
H2607 H 0.52754 0.56159 0.92203 0.0
C2608 C 0.50558 0.59105 0.84302 0.0
C2609 C 0.51376 0.59215 0.82179 0.0
C2610 C 0.53788 0.59667 0.81971 0.0
C2611 C 0.55357 0.59861 0.83852 0.0
C2612 C 0.54479 0.59582 0.85923 0.0
C2613 C 0.52134 0.5924 0.86168 0.0
C2614 C 0.5152 0.5845 0.88451 0.0
C2615 C 0.51041 0.60533 0.89881 0.0
C2616 C 0.49422 0.55974 0.88275 0.0
C2617 C 0.53798 0.58143 0.89341 0.0
C2618 C 0.55521 0.58925 0.87912 0.0
C2619 C 0.57681 0.58552 0.88256 0.0
C2620 C 0.58061 0.57284 0.90069 0.0
C2621 C 0.56265 0.56361 0.91467 0.0
C2622 C 0.54148 0.56869 0.91146 0.0
H2623 H 0.83477 0.21976 0.13356 0.0
H2624 H 0.82948 0.14589 0.15131 0.0
H2625 H 0.83015 0.16029 0.19107 0.0
H2626 H 0.87258 0.25576 0.18469 0.0
H2627 H 0.85744 0.2781 0.18537 0.0
H2628 H 0.86027 0.26292 0.15901 0.0
H2629 H 0.8149 0.24778 0.14961 0.0
H2630 H 0.81188 0.26253 0.17601 0.0
H2631 H 0.79621 0.22964 0.16861 0.0
H2632 H 0.82603 0.18132 0.2281 0.0
H2633 H 0.8198 0.20789 0.25952 0.0
H2634 H 0.82759 0.26755 0.21679 0.0
C2635 C 0.83437 0.20673 0.14582 0.0
C2636 C 0.83208 0.1817 0.13933 0.0
C2637 C 0.83138 0.16521 0.15591 0.0
C2638 C 0.83172 0.1732 0.17853 0.0
C2639 C 0.83302 0.19777 0.18423 0.0
C2640 C 0.83468 0.21437 0.16835 0.0
C2641 C 0.83408 0.23915 0.1784 0.0
C2642 C 0.85749 0.26022 0.17677 0.0
C2643 C 0.81301 0.2451 0.16751 0.0
C2644 C 0.83098 0.23365 0.20229 0.0
C2645 C 0.83064 0.20981 0.20544 0.0
C2646 C 0.82664 0.20015 0.22591 0.0
C2647 C 0.82297 0.21534 0.2436 0.0
C2648 C 0.82322 0.23982 0.24062 0.0
C2649 C 0.82743 0.249 0.21969 0.0
H2650 H 0.13935 0.52657 0.34065 0.0
H2651 H 0.11341 0.56979 0.29562 0.0
H2652 H 0.09144 0.58085 0.32491 0.0
H2653 H 0.08532 0.50289 0.36798 0.0
H2654 H 0.10101 0.50512 0.39507 0.0
H2655 H 0.11392 0.49945 0.37017 0.0
H2656 H 0.15106 0.53817 0.38316 0.0
H2657 H 0.13821 0.54405 0.40801 0.0
H2658 H 0.14787 0.56813 0.38961 0.0
H2659 H 0.07438 0.5895 0.35923 0.0
H2660 H 0.06182 0.59397 0.3967 0.0
H2661 H 0.0973 0.54396 0.41939 0.0
C2662 C 0.12884 0.53812 0.3369 0.0
C2663 C 0.1281 0.54731 0.31587 0.0
C2664 C 0.11425 0.56251 0.31162 0.0
C2665 C 0.10168 0.56891 0.32813 0.0
C2666 C 0.10302 0.55986 0.34875 0.0
C2667 C 0.11607 0.54466 0.35321 0.0
C2668 C 0.11486 0.538 0.37703 0.0
C2669 C 0.10307 0.50968 0.37759 0.0
C2670 C 0.13946 0.54767 0.39023 0.0
C2671 C 0.09939 0.55215 0.38526 0.0
C2672 C 0.09276 0.56458 0.36864 0.0
C2673 C 0.07914 0.57958 0.37234 0.0
C2674 C 0.07199 0.58188 0.39365 0.0
C2675 C 0.07837 0.56914 0.41096 0.0
C2676 C 0.09224 0.55406 0.40659 0.0
H2677 H 0.82029 0.81436 0.63379 0.0
H2678 H 0.78238 0.86687 0.63463 0.0
H2679 H 0.77431 0.85957 0.67316 0.0
H2680 H 0.78091 0.77049 0.66912 0.0
H2681 H 0.80467 0.76383 0.68404 0.0
H2682 H 0.80687 0.77179 0.65572 0.0
H2683 H 0.8461 0.80769 0.66854 0.0
H2684 H 0.84394 0.79991 0.69689 0.0
H2685 H 0.84698 0.83114 0.69061 0.0
H2686 H 0.77297 0.85034 0.71295 0.0
H2687 H 0.77567 0.8366 0.75057 0.0
H2688 H 0.812 0.78761 0.72625 0.0
C2689 C 0.80984 0.82387 0.6419 0.0
C2690 C 0.80203 0.84134 0.63062 0.0
C2691 C 0.78878 0.85355 0.64244 0.0
C2692 C 0.78403 0.84953 0.66456 0.0
C2693 C 0.79239 0.83295 0.67533 0.0
C2694 C 0.80475 0.81996 0.66443 0.0
C2695 C 0.81186 0.80351 0.68059 0.0
C2696 C 0.80039 0.77575 0.67184 0.0
C2697 C 0.83882 0.81101 0.68438 0.0
C2698 C 0.80178 0.80958 0.70206 0.0
C2699 C 0.79078 0.82679 0.69849 0.0
C2700 C 0.78123 0.83654 0.71581 0.0
C2701 C 0.78287 0.82862 0.73727 0.0
C2702 C 0.79363 0.81065 0.74164 0.0
C2703 C 0.80312 0.80092 0.72354 0.0
H2704 H 0.76935 0.47195 0.56427 0.0
H2705 H 0.7289 0.43091 0.50272 0.0
H2706 H 0.71137 0.46418 0.49856 0.0
H2707 H 0.72648 0.49437 0.58498 0.0
H2708 H 0.74751 0.52429 0.59626 0.0
H2709 H 0.75648 0.49729 0.59378 0.0
H2710 H 0.7898 0.5206 0.57037 0.0
H2711 H 0.7807 0.54759 0.57256 0.0
H2712 H 0.7825 0.53323 0.54545 0.0
H2713 H 0.69652 0.50098 0.5032 0.0
H2714 H 0.68558 0.53723 0.51594 0.0
H2715 H 0.73963 0.55558 0.57221 0.0
C2716 C 0.75666 0.46978 0.54996 0.0
C2717 C 0.75013 0.44874 0.53398 0.0
C2718 C 0.73391 0.44686 0.51524 0.0
C2719 C 0.72401 0.46569 0.51271 0.0
C2720 C 0.73104 0.48635 0.52881 0.0
C2721 C 0.74714 0.48849 0.54696 0.0
C2722 C 0.75194 0.51234 0.56199 0.0
C2723 C 0.74519 0.50672 0.58564 0.0
C2724 C 0.77777 0.52944 0.56261 0.0
C2725 C 0.73549 0.5231 0.54987 0.0
C2726 C 0.72358 0.50795 0.53075 0.0
C2727 C 0.70609 0.51321 0.51789 0.0
C2728 C 0.70017 0.53405 0.52518 0.0
C2729 C 0.71184 0.54943 0.54509 0.0
C2730 C 0.73027 0.54421 0.55703 0.0
H2731 H 0.23164 0.17718 0.52401 0.0
H2732 H 0.2633 0.15353 0.58123 0.0
H2733 H 0.22443 0.12403 0.58709 0.0
H2734 H 0.17804 0.17438 0.54568 0.0
H2735 H 0.15965 0.16187 0.51972 0.0
H2736 H 0.19008 0.18088 0.51946 0.0
H2737 H 0.19715 0.14549 0.4948 0.0
H2738 H 0.16667 0.12646 0.49481 0.0
H2739 H 0.1896 0.1147 0.50399 0.0
H2740 H 0.18162 0.09979 0.58895 0.0
H2741 H 0.1384 0.07822 0.58338 0.0
H2742 H 0.13473 0.1148 0.52339 0.0
C2743 C 0.23042 0.16559 0.5376 0.0
C2744 C 0.25059 0.16775 0.55216 0.0
C2745 C 0.2482 0.15216 0.56974 0.0
C2746 C 0.22614 0.13541 0.57331 0.0
C2747 C 0.20658 0.13405 0.55895 0.0
C2748 C 0.20853 0.14832 0.54116 0.0
C2749 C 0.1847 0.14284 0.528 0.0
C2750 C 0.17772 0.1664 0.52824 0.0
C2751 C 0.18453 0.13171 0.50398 0.0
C2752 C 0.16909 0.12361 0.5414 0.0
C2753 C 0.18203 0.11904 0.55934 0.0
C2754 C 0.17134 0.10294 0.57477 0.0
C2755 C 0.14679 0.09089 0.57157 0.0
C2756 C 0.13332 0.09469 0.55289 0.0
C2757 C 0.14468 0.1113 0.53767 0.0
H2758 H 0.19256 0.98899 0.76999 0.0
H2759 H 0.19444 0.99619 0.84229 0.0
H2760 H 0.22395 0.97502 0.8448 0.0
H2761 H 0.20168 0.92785 0.76389 0.0
H2762 H 0.21981 0.93688 0.74145 0.0
H2763 H 0.19653 0.94935 0.74543 0.0
H2764 H 0.2268 0.99426 0.74754 0.0
H2765 H 0.25023 0.98199 0.74402 0.0
H2766 H 0.25226 1.0037 0.76797 0.0
H2767 H 0.25615 0.95704 0.83946 0.0
H2768 H 0.28659 0.94087 0.82655 0.0
H2769 H 0.26432 0.94734 0.75789 0.0
C2770 C 0.19867 0.98553 0.78634 0.0
C2771 C 0.19117 0.99414 0.80594 0.0
C2772 C 0.19985 0.98958 0.82704 0.0
C2773 C 0.21665 0.97765 0.82864 0.0
C2774 C 0.22439 0.97032 0.80898 0.0
C2775 C 0.21544 0.9738 0.78822 0.0
C2776 C 0.22772 0.96575 0.76973 0.0
C2777 C 0.2104 0.94364 0.75421 0.0
C2778 C 0.23998 0.98774 0.75655 0.0
C2779 C 0.24542 0.95783 0.78336 0.0
C2780 C 0.24313 0.96039 0.80594 0.0
C2781 C 0.25801 0.9548 0.82181 0.0
C2782 C 0.27543 0.94596 0.81433 0.0
C2783 C 0.27788 0.94299 0.79121 0.0
C2784 C 0.26273 0.94919 0.77564 0.0
H2785 H 0.37671 0.94773 0.01292 0.0
H2786 H 0.36196 0.94598 0.08208 0.0
H2787 H 0.40476 0.96043 0.09433 0.0
H2788 H 0.42895 0.92959 0.01786 0.0
H2789 H 0.44405 0.9513 0.99914 0.0
H2790 H 0.41234 0.9382 0.99582 0.0
H2791 H 0.40986 0.98278 0.99858 0.0
H2792 H 0.44152 0.99598 1.00179 0.0
H2793 H 0.4249 1.00466 0.02249 0.0
H2794 H 0.44929 0.97511 0.09881 0.0
H2795 H 0.49207 0.99466 0.09534 0.0
H2796 H 0.47689 0.99062 0.02358 0.0
C2797 C 0.38258 0.9501 0.0306 0.0
C2798 C 0.36632 0.94555 0.04662 0.0
C2799 C 0.37438 0.9494 0.06965 0.0
C2800 C 0.39856 0.95739 0.07672 0.0
C2801 C 0.41427 0.96184 0.0605 0.0
C2802 C 0.4066 0.95874 0.03794 0.0
C2803 C 0.42701 0.96717 0.02401 0.0
C2804 C 0.42815 0.94525 1.00828 0.0
C2805 C 0.42574 0.98894 0.01096 0.0
C2806 C 0.44732 0.97563 0.04225 0.0
C2807 C 0.43972 0.97188 0.06315 0.0
C2808 C 0.45547 0.9782 0.08254 0.0
C2809 C 0.47961 0.98916 0.08045 0.0
C2810 C 0.4874 0.99412 0.05925 0.0
C2811 C 0.47114 0.98705 0.03997 0.0
H2812 H 0.92628 0.6283 0.81653 0.0
H2813 H 0.94117 0.63121 0.74731 0.0
H2814 H 0.90667 0.64396 0.73838 0.0
H2815 H 0.86427 0.60205 0.80523 0.0
H2816 H 0.85813 0.61961 0.82858 0.0
H2817 H 0.8849 0.61233 0.83004 0.0
H2818 H 0.90972 0.65937 0.83883 0.0
H2819 H 0.883 0.66673 0.83782 0.0
H2820 H 0.90553 0.68131 0.82035 0.0
H2821 H 0.87 0.65517 0.73679 0.0
H2822 H 0.83528 0.66717 0.7433 0.0
H2823 H 0.84327 0.65459 0.81308 0.0
C2824 C 0.92256 0.63211 0.7996 0.0
C2825 C 0.93643 0.62893 0.78263 0.0
C2826 C 0.93078 0.63364 0.76057 0.0
C2827 C 0.91119 0.64078 0.75532 0.0
C2828 C 0.89743 0.64298 0.77229 0.0
C2829 C 0.90296 0.639 0.79401 0.0
C2830 C 0.88499 0.64208 0.80902 0.0
C2831 C 0.87233 0.61755 0.81878 0.0
C2832 C 0.8965 0.66366 0.8276 0.0
C2833 C 0.86855 0.64846 0.79234 0.0
C2834 C 0.87599 0.64885 0.77125 0.0
C2835 C 0.86391 0.65483 0.75322 0.0
C2836 C 0.84405 0.66133 0.75702 0.0
C2837 C 0.83651 0.66172 0.77868 0.0
C2838 C 0.84867 0.6546 0.79637 0.0
H2839 H 0.85508 0.65144 0.08733 0.0
H2840 H 0.89064 0.71151 0.04865 0.0
H2841 H 0.92356 0.69514 0.04675 0.0
H2842 H 0.90662 0.64912 0.11941 0.0
H2843 H 0.8959 0.61555 0.11869 0.0
H2844 H 0.87538 0.63223 0.1173 0.0
H2845 H 0.8543 0.60544 0.08033 0.0
H2846 H 0.87467 0.5886 0.08168 0.0
H2847 H 0.87117 0.60387 0.05722 0.0
H2848 H 0.953 0.67245 0.04979 0.0
H2849 H 0.97556 0.64418 0.05561 0.0
H2850 H 0.91961 0.5977 0.09067 0.0
C2851 C 0.86981 0.66122 0.07849 0.0
C2852 C 0.87033 0.68286 0.06821 0.0
C2853 C 0.88984 0.69492 0.05664 0.0
C2854 C 0.90865 0.68579 0.05553 0.0
C2855 C 0.90761 0.66446 0.06593 0.0
C2856 C 0.88859 0.65223 0.07704 0.0
C2857 C 0.89145 0.62932 0.08632 0.0
C2858 C 0.8924 0.63171 0.11195 0.0
C2859 C 0.87173 0.60539 0.07575 0.0
C2860 C 0.91509 0.63058 0.07876 0.0
C2861 C 0.9242 0.65107 0.06715 0.0
C2862 C 0.94593 0.65624 0.05869 0.0
C2863 C 0.95855 0.63992 0.06197 0.0
C2864 C 0.94938 0.61846 0.07345 0.0
C2865 C 0.92736 0.61399 0.08203 0.0
H2866 H 0.20842 0.14088 0.83448 0.0
H2867 H 0.22349 0.09763 0.77913 0.0
H2868 H 0.25739 0.13446 0.77286 0.0
H2869 H 0.2201 0.19658 0.80899 0.0
H2870 H 0.2328 0.21672 0.83445 0.0
H2871 H 0.21116 0.18637 0.83552 0.0
H2872 H 0.24038 0.17527 0.86293 0.0
H2873 H 0.26217 0.2056 0.86181 0.0
H2874 H 0.26917 0.17778 0.85507 0.0
H2875 H 0.28875 0.17718 0.77172 0.0
H2876 H 0.31271 0.22225 0.77442 0.0
H2877 H 0.27604 0.23637 0.83022 0.0
C2878 C 0.21898 0.139 0.82119 0.0
C2879 C 0.21337 0.11635 0.80736 0.0
C2880 C 0.22747 0.11482 0.78995 0.0
C2881 C 0.24682 0.13559 0.78633 0.0
C2882 C 0.25179 0.1577 0.80025 0.0
C2883 C 0.23816 0.1595 0.81727 0.0
C2884 C 0.24613 0.18566 0.82904 0.0
C2885 C 0.22638 0.19699 0.82686 0.0
C2886 C 0.25499 0.18609 0.85367 0.0
C2887 C 0.26613 0.19845 0.81577 0.0
C2888 C 0.26942 0.18208 0.7994 0.0
C2889 C 0.28643 0.19012 0.78459 0.0
C2890 C 0.30001 0.21568 0.78628 0.0
C2891 C 0.2962 0.23275 0.80249 0.0
C2892 C 0.27938 0.22379 0.81763 0.0
H2893 H 0.42252 0.98022 0.28137 0.0
H2894 H 0.44519 0.99223 0.35256 0.0
H2895 H 0.41345 0.95352 0.35816 0.0
H2896 H 0.35989 0.95401 0.28549 0.0
H2897 H 0.35446 0.93118 0.26163 0.0
H2898 H 0.37844 0.96046 0.26307 0.0
H2899 H 0.40785 0.93679 0.25782 0.0
H2900 H 0.3839 0.90751 0.25605 0.0
H2901 H 0.40904 0.91384 0.27643 0.0
H2902 H 0.37941 0.91364 0.35625 0.0
H2903 H 0.3483 0.87254 0.34618 0.0
H2904 H 0.34831 0.8859 0.27623 0.0
C2905 C 0.42082 0.97469 0.29812 0.0
C2906 C 0.43632 0.9893 0.31651 0.0
C2907 C 0.4336 0.98132 0.33817 0.0
C2908 C 0.4155 0.95945 0.34158 0.0
C2909 C 0.40033 0.94568 0.32317 0.0
C2910 C 0.40296 0.95275 0.30182 0.0
C2911 C 0.385 0.93385 0.28478 0.0
C2912 C 0.36847 0.94559 0.27306 0.0
C2913 C 0.39717 0.92231 0.26778 0.0
C2914 C 0.37207 0.91497 0.29989 0.0
C2915 C 0.38094 0.92233 0.322 0.0
C2916 C 0.37224 0.90766 0.33899 0.0
C2917 C 0.35448 0.8844 0.33312 0.0
C2918 C 0.34588 0.87601 0.31044 0.0
C2919 C 0.35445 0.89182 0.29374 0.0
H2920 H 0.5943 0.38794 0.62048 0.0
H2921 H 0.6575 0.39572 0.58769 0.0
H2922 H 0.65511 0.43382 0.5728 0.0
H2923 H 0.56417 0.40964 0.57574 0.0
H2924 H 0.55131 0.42621 0.5945 0.0
H2925 H 0.55752 0.39915 0.60273 0.0
H2926 H 0.58273 0.4253 0.63835 0.0
H2927 H 0.5766 0.45242 0.63023 0.0
H2928 H 0.60666 0.45368 0.63575 0.0
H2929 H 0.64745 0.47187 0.56258 0.0
H2930 H 0.63399 0.50715 0.55625 0.0
H2931 H 0.57444 0.47559 0.59383 0.0
C2932 C 0.60756 0.39762 0.61009 0.0
C2933 C 0.62614 0.38864 0.60532 0.0
C2934 C 0.64308 0.40198 0.59162 0.0
C2935 C 0.6419 0.42375 0.58305 0.0
C2936 C 0.62354 0.43212 0.58807 0.0
C2937 C 0.60653 0.41947 0.60112 0.0
C2938 C 0.5887 0.43281 0.6038 0.0
C2939 C 0.56395 0.41594 0.59358 0.0
C2940 C 0.58868 0.44157 0.6285 0.0
C2941 C 0.59851 0.45496 0.59038 0.0
C2942 C 0.6187 0.45408 0.58159 0.0
C2943 C 0.63158 0.47266 0.56925 0.0
C2944 C 0.62378 0.49274 0.56581 0.0
C2945 C 0.60309 0.49427 0.57446 0.0
C2946 C 0.59016 0.47488 0.58678 0.0
H2947 H 0.47199 0.81052 0.38361 0.0
H2948 H 0.43695 0.75336 0.42528 0.0
H2949 H 0.39851 0.74864 0.40473 0.0
H2950 H 0.42802 0.83937 0.38003 0.0
H2951 H 0.43127 0.84551 0.35136 0.0
H2952 H 0.45592 0.84404 0.36911 0.0
H2953 H 0.46024 0.80988 0.34076 0.0
H2954 H 0.43562 0.81128 0.32289 0.0
H2955 H 0.43528 0.7819 0.33225 0.0
H2956 H 0.36382 0.75123 0.38026 0.0
H2957 H 0.33569 0.75976 0.35314 0.0
H2958 H 0.39371 0.81476 0.32701 0.0
C2959 C 0.45627 0.79693 0.38841 0.0
C2960 C 0.45747 0.7823 0.40609 0.0
C2961 C 0.43646 0.76473 0.41178 0.0
C2962 C 0.41456 0.76195 0.40022 0.0
C2963 C 0.41402 0.77679 0.38296 0.0
C2964 C 0.43435 0.79385 0.37701 0.0
C2965 C 0.42903 0.80758 0.35789 0.0
C2966 C 0.4365 0.83579 0.36503 0.0
C2967 C 0.44074 0.80234 0.33722 0.0
C2968 C 0.40248 0.79567 0.35401 0.0
C2969 C 0.39415 0.77801 0.36869 0.0
C2970 C 0.37018 0.76492 0.36862 0.0
C2971 C 0.35432 0.76996 0.35315 0.0
C2972 C 0.36246 0.78789 0.33783 0.0
C2973 C 0.38691 0.80082 0.33833 0.0
H2974 H 0.07217 0.72541 0.13017 0.0
H2975 H 0.11466 0.76395 0.08033 0.0
H2976 H 0.11473 0.72351 0.06277 0.0
H2977 H 0.09985 0.68093 0.13739 0.0
H2978 H 0.07333 0.65537 0.14025 0.0
H2979 H 0.07505 0.68702 0.14805 0.0
H2980 H 0.03763 0.68056 0.12115 0.0
H2981 H 0.03561 0.64875 0.11348 0.0
H2982 H 0.03664 0.66953 0.0922 0.0
H2983 H 0.11279 0.67884 0.05232 0.0
H2984 H 0.10605 0.63356 0.04785 0.0
H2985 H 0.0641 0.6238 0.10399 0.0
C2986 C 0.08115 0.72538 0.11532 0.0
C2987 C 0.09338 0.74809 0.10666 0.0
C2988 C 0.10501 0.74698 0.08726 0.0
C2989 C 0.10525 0.72403 0.0772 0.0
C2990 C 0.09358 0.70215 0.08654 0.0
C2991 C 0.08141 0.70259 0.10495 0.0
C2992 C 0.07056 0.67644 0.1119 0.0
C2993 C 0.08029 0.67486 0.13582 0.0
C2994 C 0.04351 0.66835 0.10954 0.0
C2995 C 0.07895 0.66129 0.09484 0.0
C2996 C 0.09221 0.67647 0.08035 0.0
C2997 C 0.10228 0.6668 0.06349 0.0
C2998 C 0.09844 0.64099 0.06116 0.0
C2999 C 0.08458 0.6249 0.07556 0.0
C3000 C 0.07482 0.63542 0.09268 0.0
H3001 H 0.09883 0.30268 0.91629 0.0
H3002 H 0.05292 0.23066 0.88364 0.0
H3003 H 0.08448 0.22811 0.8612 0.0
H3004 H 0.12643 0.32491 0.86694 0.0
H3005 H 0.15508 0.34083 0.88198 0.0
H3006 H 0.12891 0.33707 0.89579 0.0
H3007 H 0.14454 0.31561 0.92666 0.0
H3008 H 0.17069 0.31917 0.91287 0.0
H3009 H 0.15255 0.28865 0.91892 0.0
H3010 H 0.12089 0.23245 0.84298 0.0
H3011 H 0.15943 0.24514 0.82785 0.0
H3012 H 0.1819 0.31478 0.87124 0.0
C3013 C 0.09542 0.28644 0.90436 0.0
C3014 C 0.07339 0.26686 0.90176 0.0
C3015 C 0.0696 0.24594 0.88592 0.0
C3016 C 0.08745 0.24424 0.87312 0.0
C3017 C 0.10899 0.26369 0.8762 0.0
C3018 C 0.11304 0.28452 0.89123 0.0
C3019 C 0.13773 0.30296 0.89085 0.0
C3020 C 0.13698 0.32792 0.88344 0.0
C3021 C 0.15223 0.30682 0.91368 0.0
C3022 C 0.14685 0.28916 0.87331 0.0
C3023 C 0.13 0.26646 0.86525 0.0
C3024 C 0.13425 0.25021 0.84912 0.0
C3025 C 0.15624 0.25749 0.84075 0.0
C3026 C 0.17366 0.28088 0.84842 0.0
C3027 C 0.16886 0.29684 0.86499 0.0
H3028 H 0.55666 0.68529 0.94547 0.0
H3029 H 0.60314 0.74109 0.99642 0.0
H3030 H 0.60444 0.7078 0.01968 0.0
H3031 H 0.52391 0.64141 0.98316 0.0
H3032 H 0.52261 0.61341 0.9664 0.0
H3033 H 0.52445 0.64129 0.95331 0.0
H3034 H 0.56127 0.63941 0.93559 0.0
H3035 H 0.5597 0.61166 0.94878 0.0
H3036 H 0.58631 0.63854 0.95322 0.0
H3037 H 0.60037 0.6683 0.03906 0.0
H3038 H 0.5934 0.62678 0.05167 0.0
H3039 H 0.55132 0.59261 0.98883 0.0
C3040 C 0.56707 0.6906 0.96156 0.0
C3041 C 0.5797 0.71677 0.96879 0.0
C3042 C 0.5932 0.72192 0.99002 0.0
C3043 C 0.59404 0.70283 1.00357 0.0
C3044 C 0.58161 0.67766 0.9961 0.0
C3045 C 0.56853 0.67132 0.97541 0.0
C3046 C 0.55753 0.64238 0.97144 0.0
C3047 C 0.53051 0.63414 0.9684 0.0
C3048 C 0.56675 0.63241 0.95103 0.0
C3049 C 0.56616 0.63362 0.99316 0.0
C3050 C 0.57993 0.65458 1.00706 0.0
C3051 C 0.58965 0.65193 0.02813 0.0
C3052 C 0.58543 0.62781 0.03528 0.0
C3053 C 0.57162 0.60541 0.02176 0.0
C3054 C 0.56197 0.60878 1.00003 0.0
H3055 H 0.11759 0.78729 0.7369 0.0
H3056 H 0.13951 0.85328 0.70141 0.0
H3057 H 0.18097 0.8591 0.71283 0.0
H3058 H 0.16613 0.8111 0.78402 0.0
H3059 H 0.17033 0.78149 0.78596 0.0
H3060 H 0.14181 0.7824 0.77605 0.0
H3061 H 0.14163 0.75514 0.73998 0.0
H3062 H 0.17018 0.75424 0.74976 0.0
H3063 H 0.16575 0.76517 0.72308 0.0
H3064 H 0.2218 0.85801 0.72701 0.0
H3065 H 0.25709 0.85063 0.74281 0.0
H3066 H 0.21295 0.78521 0.77064 0.0
C3067 C 0.13102 0.80329 0.73183 0.0
C3068 C 0.12411 0.82002 0.71808 0.0
C3069 C 0.14321 0.84009 0.7118 0.0
C3070 C 0.16728 0.8436 0.71828 0.0
C3071 C 0.17336 0.82689 0.73133 0.0
C3072 C 0.15579 0.80708 0.73818 0.0
C3073 C 0.16785 0.79176 0.75186 0.0
C3074 C 0.16112 0.79167 0.7759 0.0
C3075 C 0.16093 0.76497 0.7405 0.0
C3076 C 0.19467 0.80595 0.75155 0.0
C3077 C 0.19714 0.82619 0.73949 0.0
C3078 C 0.21976 0.84216 0.73646 0.0
C3079 C 0.24012 0.83768 0.74569 0.0
C3080 C 0.23902 0.81725 0.75838 0.0
C3081 C 0.21534 0.80113 0.76122 0.0
H3082 H 0.06564 0.39338 0.44992 0.0
H3083 H 0.02667 0.34252 0.49464 0.0
H3084 H 1.02391 0.37822 0.51842 0.0
H3085 H 0.09809 0.44551 0.49267 0.0
H3086 H 0.09566 0.46976 0.47615 0.0
H3087 H 0.09559 0.44052 0.4626 0.0
H3088 H 0.05598 0.43476 0.43987 0.0
H3089 H 0.05594 0.46398 0.45338 0.0
H3090 H 0.03125 0.43576 0.45432 0.0
H3091 H 1.02615 0.42002 0.539 0.0
H3092 H 0.03078 0.46316 0.55297 0.0
H3093 H 0.06562 0.48996 0.49488 0.0
C3094 C 0.05664 0.3897 0.4648 0.0
C3095 C 0.04657 0.36433 0.47016 0.0
C3096 C 0.03468 0.36113 0.48978 0.0
C3097 C 0.03302 0.38157 0.50358 0.0
C3098 C 0.04294 0.40599 0.49787 0.0
C3099 C 0.05434 0.41024 0.47878 0.0
C3100 C 0.06264 0.4386 0.47636 0.0
C3101 C 0.0896 0.44923 0.47697 0.0
C3102 C 0.05075 0.44357 0.45468 0.0
C3103 C 0.05431 0.44954 0.49705 0.0
C3104 C 0.0432 0.43016 0.50924 0.0
C3105 C 0.03468 0.43513 0.52935 0.0
C3106 C 0.03747 0.46006 0.53727 0.0
C3107 C 0.0484 0.48077 0.52534 0.0
C3108 C 0.05683 0.47503 0.5046 0.0
H3109 H 0.48279 0.29909 0.22487 0.0
H3110 H 0.48269 0.22767 0.24479 0.0
H3111 H 0.44556 0.22219 0.26149 0.0
H3112 H 0.45867 0.31737 0.27562 0.0
H3113 H 0.44073 0.33226 0.26118 0.0
H3114 H 0.46723 0.33093 0.25018 0.0
H3115 H 0.44325 0.30967 0.21263 0.0
H3116 H 0.41669 0.31094 0.22354 0.0
H3117 H 0.4182 0.28147 0.21224 0.0
H3118 H 0.40582 0.22316 0.27608 0.0
H3119 H 0.37076 0.23139 0.2879 0.0
H3120 H 0.39439 0.30329 0.2616 0.0
C3121 C 0.47509 0.28222 0.23273 0.0
C3122 C 0.48682 0.26375 0.23298 0.0
C3123 C 0.47514 0.24232 0.24388 0.0
C3124 C 0.45357 0.23897 0.25359 0.0
C3125 C 0.4427 0.25721 0.25304 0.0
C3126 C 0.45321 0.27863 0.24299 0.0
C3127 C 0.43771 0.29547 0.24526 0.0
C3128 C 0.45194 0.32051 0.25886 0.0
C3129 C 0.42842 0.29965 0.22203 0.0
C3130 C 0.41699 0.28031 0.25797 0.0
C3131 C 0.42032 0.25814 0.26207 0.0
C3132 C 0.40349 0.24066 0.27295 0.0
C3133 C 0.38321 0.2456 0.27975 0.0
C3134 C 0.37878 0.26819 0.27637 0.0
C3135 C 0.39654 0.28583 0.26511 0.0
H3136 H 0.6772 0.57033 0.42068 0.0
H3137 H 0.65553 0.49022 0.40402 0.0
H3138 H 0.63587 0.48367 0.43889 0.0
H3139 H 0.68731 0.56933 0.4822 0.0
H3140 H 0.67671 0.59493 0.48794 0.0
H3141 H 0.69138 0.59308 0.46329 0.0
H3142 H 0.65549 0.59515 0.43852 0.0
H3143 H 0.64052 0.59699 0.46286 0.0
H3144 H 0.6267 0.57268 0.44036 0.0
H3145 H 0.61339 0.48666 0.47217 0.0
H3146 H 0.59377 0.4985 0.50346 0.0
H3147 H 0.63236 0.57679 0.49871 0.0
C3148 C 0.66878 0.5514 0.42467 0.0
C3149 C 0.66769 0.53074 0.40985 0.0
C3150 C 0.65661 0.50622 0.41541 0.0
C3151 C 0.6454 0.50239 0.43508 0.0
C3152 C 0.64607 0.52331 0.44902 0.0
C3153 C 0.65798 0.54733 0.44427 0.0
C3154 C 0.65526 0.56673 0.46121 0.0
C3155 C 0.67908 0.58191 0.47446 0.0
C3156 C 0.6438 0.58387 0.45006 0.0
C3157 C 0.63893 0.54996 0.47567 0.0
C3158 C 0.63387 0.52498 0.4685 0.0
C3159 C 0.6176 0.50613 0.4782 0.0
C3160 C 0.60637 0.51305 0.49577 0.0
C3161 C 0.61155 0.53856 0.5034 0.0
C3162 C 0.6282 0.55714 0.49332 0.0
H3163 H 0.27258 0.90003 0.09802 0.0
H3164 H 0.25765 0.83499 0.05003 0.0
H3165 H 0.26356 0.81049 0.08054 0.0
H3166 H 0.32008 0.89474 0.1222 0.0
H3167 H 0.31779 0.90557 0.15047 0.0
H3168 H 0.30371 0.9154 0.12758 0.0
H3169 H 0.26374 0.89862 0.14352 0.0
H3170 H 0.27718 0.88834 0.16682 0.0
H3171 H 0.25235 0.86653 0.14927 0.0
H3172 H 0.28034 0.79638 0.11395 0.0
H3173 H 0.30476 0.79324 0.1473 0.0
H3174 H 0.31387 0.86984 0.17136 0.0
C3175 C 0.26913 0.88024 0.09406 0.0
C3176 C 0.26445 0.86934 0.07171 0.0
C3177 C 0.26095 0.84361 0.06711 0.0
C3178 C 0.26434 0.82958 0.08436 0.0
C3179 C 0.27125 0.84161 0.10599 0.0
C3180 C 0.27332 0.86636 0.11092 0.0
C3181 C 0.28563 0.87657 0.13412 0.0
C3182 C 0.30812 0.89938 0.13352 0.0
C3183 C 0.26872 0.88288 0.14935 0.0
C3184 C 0.29148 0.85424 0.14094 0.0
C3185 C 0.28241 0.83401 0.12488 0.0
C3186 C 0.28719 0.81198 0.12679 0.0
C3187 C 0.30153 0.81059 0.14564 0.0
C3188 C 0.31153 0.83138 0.16205 0.0
C3189 C 0.30618 0.85336 0.15954 0.0
H3190 H 0.03916 0.56686 0.89137 0.0
H3191 H 0.9931 0.61025 0.90011 0.0
H3192 H 1.00021 0.61103 0.9412 0.0
H3193 H 1.02027 0.52831 0.933 0.0
H3194 H 0.04889 0.52703 0.94187 0.0
H3195 H 0.04211 0.53223 0.91353 0.0
H3196 H 0.07836 0.57307 0.91775 0.0
H3197 H 0.08541 0.56788 0.9461 0.0
H3198 H 0.0815 0.59685 0.94029 0.0
H3199 H 1.0098 0.60358 0.98102 0.0
H3200 H 1.02208 0.59004 0.01635 0.0
H3201 H 0.06165 0.5515 0.98046 0.0
C3202 C 0.03079 0.57686 0.90188 0.0
C3203 C 1.01555 0.58847 0.89265 0.0
C3204 C 1.00493 0.60133 0.90694 0.0
C3205 C 1.00885 0.60184 0.93023 0.0
C3206 C 1.02359 0.58963 0.93874 0.0
C3207 C 0.03455 0.5776 0.92495 0.0
C3208 C 0.04862 0.56481 0.93798 0.0
C3209 C 0.03941 0.53642 0.93119 0.0
C3210 C 0.07504 0.57635 0.93538 0.0
C3211 C 0.04344 0.57097 0.96131 0.0
C3212 C 0.02911 0.58542 0.96149 0.0
C3213 C 1.02121 0.59248 0.9811 0.0
C3214 C 0.02816 0.58455 1.00105 0.0
C3215 C 0.04279 0.56965 1.00113 0.0
C3216 C 0.05059 0.56298 0.98099 0.0
H3217 H 0.34871 0.26082 0.63099 0.0
H3218 H 0.29079 0.28195 0.60336 0.0
H3219 H 0.28448 0.29554 0.64164 0.0
H3220 H 0.32363 0.23631 0.67866 0.0
H3221 H 0.35053 0.24803 0.69726 0.0
H3222 H 0.35166 0.24172 0.66777 0.0
H3223 H 0.37949 0.28709 0.66637 0.0
H3224 H 0.3787 0.29345 0.69594 0.0
H3225 H 0.37078 0.31277 0.67673 0.0
H3226 H 0.28175 0.30244 0.68416 0.0
H3227 H 0.28598 0.30702 0.7255 0.0
H3228 H 0.34727 0.28387 0.72574 0.0
C3229 C 0.33503 0.26888 0.63285 0.0
C3230 C 0.32038 0.27043 0.61376 0.0
C3231 C 0.30255 0.28085 0.61735 0.0
C3232 C 0.29869 0.28843 0.63919 0.0
C3233 C 0.313 0.28591 0.65758 0.0
C3234 C 0.33118 0.27688 0.65454 0.0
C3235 C 0.34396 0.27582 0.67704 0.0
C3236 C 0.34234 0.24887 0.68037 0.0
C3237 C 0.36977 0.29333 0.67914 0.0
C3238 C 0.32995 0.28524 0.69332 0.0
C3239 C 0.31201 0.29076 0.68176 0.0
C3240 C 0.29598 0.29849 0.69322 0.0
C3241 C 0.29846 0.30092 0.71685 0.0
C3242 C 0.31704 0.29601 0.72922 0.0
C3243 C 0.333 0.2881 0.71703 0.0
H3244 H 0.63709 0.55268 0.29716 0.0
H3245 H 0.64276 0.47968 0.28263 0.0
H3246 H 0.61249 0.4707 0.25036 0.0
H3247 H 0.57248 0.5368 0.27373 0.0
H3248 H 0.57957 0.5663 0.26209 0.0
H3249 H 0.59547 0.56393 0.28783 0.0
H3250 H 0.63488 0.58175 0.27055 0.0
H3251 H 0.61919 0.58406 0.24489 0.0
H3252 H 0.63897 0.56646 0.24473 0.0
H3253 H 0.58799 0.47262 0.21642 0.0
H3254 H 0.57421 0.48639 0.18193 0.0
H3255 H 0.58769 0.55986 0.21664 0.0
C3256 C 0.63099 0.53437 0.28778 0.0
C3257 C 0.64164 0.51658 0.2925 0.0
C3258 C 0.63436 0.49329 0.27935 0.0
C3259 C 0.61711 0.48802 0.26112 0.0
C3260 C 0.6076 0.50639 0.25621 0.0
C3261 C 0.61433 0.52918 0.26915 0.0
C3262 C 0.60538 0.54757 0.25787 0.0
C3263 C 0.58713 0.55402 0.27118 0.0
C3264 C 0.62582 0.57133 0.25429 0.0
C3265 C 0.59389 0.53214 0.23598 0.0
C3266 C 0.59454 0.50815 0.23571 0.0
C3267 C 0.58705 0.49123 0.21656 0.0
C3268 C 0.5795 0.49931 0.19697 0.0
C3269 C 0.58006 0.52427 0.19653 0.0
C3270 C 0.58655 0.54053 0.21653 0.0
H3271 H 0.28721 0.84858 0.95307 0.0
H3272 H 0.27449 0.91795 0.94456 0.0
H3273 H 0.27224 0.90903 0.9035 0.0
H3274 H 0.32496 0.85289 0.91254 0.0
H3275 H 0.31464 0.82001 0.90302 0.0
H3276 H 0.31196 0.83014 0.93129 0.0
H3277 H 0.26696 0.80596 0.92557 0.0
H3278 H 0.26952 0.79551 0.89727 0.0
H3279 H 0.24928 0.81179 0.90267 0.0
H3280 H 0.27647 0.89482 0.86375 0.0
H3281 H 0.28474 0.87562 0.82871 0.0
H3282 H 0.29419 0.81551 0.86404 0.0
C3283 C 0.28344 0.86167 0.94259 0.0
C3284 C 0.28101 0.88394 0.95194 0.0
C3285 C 0.27625 0.90067 0.93769 0.0
C3286 C 0.27497 0.89577 0.91438 0.0
C3287 C 0.2782 0.87394 0.90574 0.0
C3288 C 0.28202 0.85702 0.91945 0.0
C3289 C 0.28647 0.83578 0.90629 0.0
C3290 C 0.31096 0.83467 0.91373 0.0
C3291 C 0.26689 0.81078 0.90805 0.0
C3292 C 0.28535 0.84376 0.88307 0.0
C3293 C 0.28038 0.8657 0.88298 0.0
C3294 C 0.27997 0.87742 0.86357 0.0
C3295 C 0.28479 0.86643 0.84378 0.0
C3296 C 0.29001 0.84399 0.84363 0.0
C3297 C 0.29002 0.8325 0.86353 0.0
H3298 H 0.06037 0.57843 0.7922 0.0
H3299 H 0.05169 0.64771 0.77656 0.0
H3300 H 0.08423 0.65519 0.75273 0.0
H3301 H 0.12738 0.59552 0.78022 0.0
H3302 H 0.1205 0.56405 0.7674 0.0
H3303 H 0.10622 0.56991 0.79134 0.0
H3304 H 0.06542 0.54691 0.76909 0.0
H3305 H 0.07953 0.54088 0.74554 0.0
H3306 H 0.05858 0.55698 0.74257 0.0
H3307 H 0.10782 0.64971 0.72337 0.0
H3308 H 0.11161 0.62883 0.68757 0.0
H3309 H 0.10113 0.56019 0.71814 0.0
C3310 C 0.06633 0.5958 0.78466 0.0
C3311 C 0.05396 0.61267 0.78631 0.0
C3312 C 0.06125 0.63472 0.77558 0.0
C3313 C 0.07992 0.63921 0.76226 0.0
C3314 C 0.09081 0.62127 0.75954 0.0
C3315 C 0.08417 0.59984 0.77049 0.0
C3316 C 0.09303 0.58017 0.7601 0.0
C3317 C 0.11298 0.57726 0.77569 0.0
C3318 C 0.07294 0.55481 0.75393 0.0
C3319 C 0.10253 0.59235 0.73971 0.0
C3320 C 0.10301 0.61685 0.74076 0.0
C3321 C 0.10782 0.63071 0.72252 0.0
C3322 C 0.10975 0.6186 0.70214 0.0
C3323 C 0.1058 0.59263 0.69998 0.0
C3324 C 0.10435 0.58006 0.71937 0.0
H3325 H 0.34164 0.25589 0.47182 0.0
H3326 H 0.27021 0.25504 0.47659 0.0
H3327 H 0.26514 0.25724 0.43606 0.0
H3328 H 0.35435 0.30092 0.42935 0.0
H3329 H 0.37203 0.28639 0.41464 0.0
H3330 H 0.37042 0.28437 0.44419 0.0
H3331 H 0.35673 0.23619 0.43731 0.0
H3332 H 0.35818 0.23807 0.40774 0.0
H3333 H 0.33116 0.2197 0.4179 0.0
H3334 H 0.26615 0.25641 0.39444 0.0
H3335 H 0.27484 0.25801 0.35521 0.0
H3336 H 0.34692 0.26396 0.37541 0.0
C3337 C 0.32499 0.25635 0.46436 0.0
C3338 C 0.30628 0.25523 0.47784 0.0
C3339 C 0.2849 0.25598 0.46707 0.0
C3340 C 0.28177 0.25711 0.44385 0.0
C3341 C 0.3003 0.25799 0.43111 0.0
C3342 C 0.3217 0.25814 0.44095 0.0
C3343 C 0.33886 0.26014 0.42311 0.0
C3344 C 0.36019 0.2844 0.42813 0.0
C3345 C 0.3467 0.23716 0.42142 0.0
C3346 C 0.32365 0.26074 0.4018 0.0
C3347 C 0.30134 0.25909 0.40697 0.0
C3348 C 0.28365 0.25801 0.39031 0.0
C3349 C 0.28875 0.25881 0.36793 0.0
C3350 C 0.31155 0.26122 0.36192 0.0
C3351 C 0.32934 0.26234 0.3793 0.0
H3352 H 0.3739 0.61739 0.56185 0.0
H3353 H 0.34686 0.57663 0.61768 0.0
H3354 H 0.37177 0.5508 0.61173 0.0
H3355 H 0.37778 0.56496 0.52695 0.0
H3356 H 0.40488 0.58291 0.51665 0.0
H3357 H 0.38445 0.5979 0.52485 0.0
H3358 H 0.41745 0.63001 0.55236 0.0
H3359 H 0.43798 0.61515 0.5442 0.0
H3360 H 0.43338 0.61899 0.57321 0.0
H3361 H 0.3997 0.52964 0.60011 0.0
H3362 H 0.43029 0.51569 0.58444 0.0
H3363 H 0.43946 0.57023 0.53634 0.0
C3364 C 0.37316 0.60297 0.57276 0.0
C3365 C 0.35839 0.59898 0.59019 0.0
C3366 C 0.35805 0.58005 0.60422 0.0
C3367 C 0.37208 0.56521 0.60095 0.0
C3368 C 0.38641 0.5696 0.58363 0.0
C3369 C 0.38717 0.58807 0.56982 0.0
C3370 C 0.40463 0.58933 0.55284 0.0
C3371 C 0.39218 0.58342 0.52891 0.0
C3372 C 0.42454 0.61489 0.55585 0.0
C3373 C 0.41359 0.56875 0.55933 0.0
C3374 C 0.40273 0.5575 0.57704 0.0
C3375 C 0.40825 0.53819 0.58616 0.0
C3376 C 0.42551 0.53028 0.57705 0.0
C3377 C 0.43709 0.54176 0.55909 0.0
C3378 C 0.43091 0.56116 0.5501 0.0
H3379 H 0.89042 0.95089 0.57837 0.0
H3380 H 0.89401 0.8845 0.54101 0.0
H3381 H 0.93181 0.90944 0.52865 0.0
H3382 H 0.91572 0.99462 0.53978 0.0
H3383 H 0.93278 0.01943 0.56082 0.0
H3384 H 0.90579 0.99665 0.56707 0.0
H3385 H 0.92812 0.986 0.60099 0.0
H3386 H 0.95512 1.00897 0.595 0.0
H3387 H 0.95358 0.97712 0.59697 0.0
H3388 H 0.96764 0.94122 0.51852 0.0
H3389 H 1.00282 0.97717 0.51502 0.0
H3390 H 0.97854 0.0236 0.56064 0.0
C3391 C 0.89927 0.94161 0.56772 0.0
C3392 C 0.88917 0.91568 0.56064 0.0
C3393 C 0.90138 0.90423 0.54679 0.0
C3394 C 0.92282 0.91828 0.53954 0.0
C3395 C 0.9321 0.94376 0.5465 0.0
C3396 C 0.92104 0.95532 0.56061 0.0
C3397 C 0.93548 0.98291 0.5661 0.0
C3398 C 0.92161 0.99937 0.55795 0.0
C3399 C 0.94355 0.98911 0.59126 0.0
C3400 C 0.95618 0.985 0.55264 0.0
C3401 C 0.95359 0.96217 0.5413 0.0
C3402 C 0.97 0.95917 0.52745 0.0
C3403 C 0.98994 0.97987 0.52551 0.0
C3404 C 0.99364 1.00339 0.53756 0.0
C3405 C 0.97629 1.00597 0.55115 0.0
H3406 H 0.90002 0.10523 0.2806 0.0
H3407 H 0.84884 0.06678 0.22401 0.0
H3408 H 0.81851 0.07917 0.24169 0.0
H3409 H 0.85917 0.09163 0.32396 0.0
H3410 H 0.87282 0.12211 0.33922 0.0
H3411 H 0.89017 0.10822 0.3233 0.0
H3412 H 0.90346 0.14712 0.30136 0.0
H3413 H 0.88644 0.1612 0.31741 0.0
H3414 H 0.88146 0.15731 0.28734 0.0
H3415 H 0.79456 0.0977 0.26382 0.0
H3416 H 0.77973 0.12531 0.28683 0.0
H3417 H 0.84589 0.15152 0.3297 0.0
C3418 C 0.88237 0.09925 0.27204 0.0
C3419 C 0.87676 0.08499 0.25098 0.0
C3420 C 0.85356 0.07777 0.24014 0.0
C3421 C 0.83613 0.08449 0.25014 0.0
C3422 C 0.84217 0.09841 0.27097 0.0
C3423 C 0.86476 0.10595 0.28172 0.0
C3424 C 0.86706 0.12266 0.30306 0.0
C3425 C 0.87263 0.11041 0.3236 0.0
C3426 C 0.8857 0.14861 0.30223 0.0
C3427 C 0.84243 0.12391 0.30222 0.0
C3428 C 0.82825 0.10936 0.28381 0.0
C3429 C 0.80532 0.10886 0.27852 0.0
C3430 C 0.79696 0.12447 0.29187 0.0
C3431 C 0.81157 0.14049 0.31021 0.0
C3432 C 0.83428 0.13943 0.31586 0.0
H3433 H 0.73122 0.13886 0.07266 0.0
H3434 H 0.75097 0.08578 0.03066 0.0
H3435 H 0.70887 0.06311 0.01746 0.0
H3436 H 0.6818 0.09334 0.0906 0.0
H3437 H 0.66439 0.11347 0.09189 0.0
H3438 H 0.69602 0.12673 0.09598 0.0
H3439 H 0.69534 0.15455 0.064 0.0
H3440 H 0.66367 0.14116 0.05967 0.0
H3441 H 0.68091 0.14016 0.03675 0.0
H3442 H 0.66455 0.04651 1.00898 0.0
H3443 H 0.62133 0.03325 0.01039 0.0
H3444 H 0.63123 0.09519 0.06062 0.0
C3445 C 0.72662 0.12261 0.06049 0.0
C3446 C 0.74409 0.11411 0.05238 0.0
C3447 C 0.73763 0.09248 0.03695 0.0
C3448 C 0.71387 0.07967 0.02926 0.0
C3449 C 0.69697 0.08859 0.03754 0.0
C3450 C 0.70305 0.10929 0.05314 0.0
C3451 C 0.68154 0.11363 0.06112 0.0
C3452 C 0.6809 0.11166 0.08639 0.0
C3453 C 0.6803 0.13887 0.05501 0.0
C3454 C 0.66238 0.09207 0.04766 0.0
C3455 C 0.67156 0.07817 0.03375 0.0
C3456 C 0.65715 0.05723 0.01981 0.0
C3457 C 0.6327 0.04993 0.02061 0.0
C3458 C 0.62321 0.06326 0.03563 0.0
C3459 C 0.63818 0.08475 0.04901 0.0
H3460 H 0.25496 0.48744 0.26843 0.0
H3461 H 0.20413 0.47856 0.317 0.0
H3462 H 0.22576 0.45728 0.33993 0.0
H3463 H 0.26116 0.42924 0.26993 0.0
H3464 H 0.29222 0.44031 0.26678 0.0
H3465 H 0.27377 0.45655 0.25568 0.0
H3466 H 0.30099 0.49766 0.27859 0.0
H3467 H 0.31943 0.48142 0.28993 0.0
H3468 H 0.30679 0.4985 0.30843 0.0
H3469 H 0.25108 0.4333 0.35533 0.0
H3470 H 0.27743 0.40874 0.36159 0.0
H3471 H 0.31151 0.43506 0.30299 0.0
C3472 C 0.24841 0.48121 0.28398 0.0
C3473 C 0.22783 0.48449 0.29092 0.0
C3474 C 0.2199 0.47619 0.31141 0.0
C3475 C 0.23211 0.4642 0.32455 0.0
C3476 C 0.25233 0.46112 0.31706 0.0
C3477 C 0.26043 0.46955 0.29729 0.0
C3478 C 0.28176 0.46292 0.29216 0.0
C3479 C 0.27692 0.44626 0.26983 0.0
C3480 C 0.30353 0.48654 0.2923 0.0
C3481 C 0.28403 0.44869 0.31179 0.0
C3482 C 0.26709 0.44798 0.32613 0.0
C3483 C 0.26467 0.43411 0.34444 0.0
C3484 C 0.27964 0.4202 0.34783 0.0
C3485 C 0.29671 0.42033 0.33295 0.0
C3486 C 0.29917 0.43523 0.31506 0.0
H3487 H 0.24964 0.41731 0.04032 0.0
H3488 H 0.28203 0.44524 0.10807 0.0
H3489 H 0.25774 0.47204 0.11108 0.0
H3490 H 0.24641 0.47586 0.02472 0.0
H3491 H 0.21824 0.46222 1.00827 0.0
H3492 H 0.23763 0.44439 0.01132 0.0
H3493 H 0.20462 0.40923 0.02639 0.0
H3494 H 0.18511 0.42693 0.02333 0.0
H3495 H 0.19074 0.41667 0.05004 0.0
H3496 H 0.23084 0.49644 0.107 0.0
H3497 H 0.20268 0.51718 0.09594 0.0
H3498 H 0.1868 0.47403 0.03083 0.0
C3499 C 0.2515 0.42896 0.05581 0.0
C3500 C 0.2678 0.42908 0.07397 0.0
C3501 C 0.26976 0.44475 0.0939 0.0
C3502 C 0.256 0.46008 0.09581 0.0
C3503 C 0.24027 0.45969 0.07765 0.0
C3504 C 0.23787 0.44458 0.05801 0.0
C3505 C 0.2198 0.44822 0.04096 0.0
C3506 C 0.23121 0.45827 0.02008 0.0
C3507 C 0.19883 0.42381 0.03482 0.0
C3508 C 0.21257 0.46775 0.05412 0.0
C3509 C 0.2246 0.47397 0.07526 0.0
C3510 C 0.22118 0.4916 0.09054 0.0
C3511 C 0.20498 0.50319 0.08412 0.0
C3512 C 0.19227 0.49718 0.06257 0.0
C3513 C 0.19628 0.4792 0.04738 0.0
H3514 H 0.92787 0.98075 0.26934 0.0
H3515 H 0.87721 0.97926 0.21385 0.0
H3516 H 0.85132 0.93824 0.22238 0.0
H3517 H 0.91747 0.91227 0.26321 0.0
H3518 H 0.92093 0.91131 0.29302 0.0
H3519 H 0.93685 0.93921 0.28091 0.0
H3520 H 0.91911 0.96481 0.30691 0.0
H3521 H 0.90278 0.93697 0.31877 0.0
H3522 H 0.88754 0.95585 0.30643 0.0
H3523 H 0.82899 0.90046 0.23923 0.0
H3524 H 0.81297 0.8651 0.26109 0.0
H3525 H 0.87812 0.89024 0.30557 0.0
C3526 C 0.91163 0.9715 0.25861 0.0
C3527 C 0.90455 0.98324 0.24095 0.0
C3528 C 0.88301 0.97066 0.22748 0.0
C3529 C 0.86816 0.94735 0.23219 0.0
C3530 C 0.8752 0.9368 0.25027 0.0
C3531 C 0.89658 0.94816 0.26305 0.0
C3532 C 0.89932 0.93323 0.28217 0.0
C3533 C 0.91986 0.92342 0.27967 0.0
C3534 C 0.90236 0.94864 0.30491 0.0
C3535 C 0.87582 0.91216 0.2785 0.0
C3536 C 0.86226 0.91461 0.25996 0.0
C3537 C 0.83953 0.8981 0.25362 0.0
C3538 C 0.83053 0.87819 0.26631 0.0
C3539 C 0.84428 0.87489 0.28511 0.0
C3540 C 0.86719 0.89224 0.29131 0.0
H3541 H 0.71956 0.13744 0.79005 0.0
H3542 H 0.74976 0.11632 0.73198 0.0
H3543 H 0.7793 0.15872 0.73526 0.0
H3544 H 0.7266 0.19975 0.77791 0.0
H3545 H 0.73403 0.21288 0.8067 0.0
H3546 H 0.71536 0.18077 0.7999 0.0
H3547 H 0.74392 0.16684 0.82555 0.0
H3548 H 0.76278 0.19891 0.83229 0.0
H3549 H 0.7746 0.17607 0.82095 0.0
H3550 H 0.80483 0.20296 0.74425 0.0
H3551 H 0.82469 0.2473 0.75792 0.0
H3552 H 0.77846 0.23984 0.81062 0.0
C3553 C 0.73232 0.14173 0.77796 0.0
C3554 C 0.73235 0.12361 0.76072 0.0
C3555 C 0.74942 0.12992 0.74532 0.0
C3556 C 0.76629 0.1539 0.74707 0.0
C3557 C 0.76588 0.17122 0.76438 0.0
C3558 C 0.74937 0.1655 0.77955 0.0
C3559 C 0.75274 0.18767 0.79647 0.0
C3560 C 0.73088 0.19574 0.79515 0.0
C3561 C 0.75888 0.18203 0.82022 0.0
C3562 C 0.77357 0.20685 0.78823 0.0
C3563 C 0.78087 0.19687 0.76975 0.0
C3564 C 0.79932 0.21101 0.75871 0.0
C3565 C 0.81039 0.23619 0.76655 0.0
C3566 C 0.80296 0.24694 0.78521 0.0
C3567 C 0.78458 0.23199 0.79643 0.0
loop_
_geom_bond_atom_site_label_1
_geom_bond_atom_site_label_2
_geom_bond_distance
_geom_bond_site_symmetry_2
_ccdc_geom_bond_type
O0 Cd1 2.223 . S
O0 C8 1.315 . S
Cd1 O0 2.223 . S
Cd1 O4 2.297 . S
Cd1 O5 2.439 . S
Cd1 O11 2.240 . S
Cd2 O3 2.240 . S
Cd2 O10 2.223 1_455 S
Cd2 O12 2.297 . S
Cd2 O13 2.439 . S
O3 Cd2 2.240 . S
O3 C8 1.279 . S
O4 Cd1 2.297 . S
O4 C6 1.247 . S
O5 Cd1 2.439 . S
O5 C6 1.208 . S
C6 O4 1.247 . S
C6 O5 1.208 . S
C7 O12 1.247 . S
C7 O13 1.208 . S
C8 O0 1.315 . S
C8 O3 1.279 . S
C9 O10 1.315 . S
C9 O11 1.279 1_655 S
O10 Cd2 2.223 1_655 S
O10 C9 1.315 . S
O11 Cd1 2.240 . S
O11 C9 1.279 1_455 S
O12 Cd2 2.297 . S
O12 C7 1.247 . S
O13 Cd2 2.439 . S
O13 C7 1.208 . S
O14 Cd15 2.223 . S
O14 C22 1.315 . S
Cd15 O14 2.223 . S
Cd15 O18 2.297 1_455 S
Cd15 O19 2.439 . S
Cd15 O25 2.240 . S
Cd16 O17 2.240 . S
Cd16 O24 2.223 . S
Cd16 O26 2.297 . S
Cd16 O27 2.439 . S
O17 Cd16 2.240 . S
O17 C22 1.279 . S
O18 Cd15 2.297 1_655 S
O18 C20 1.247 . S
O19 Cd15 2.439 . S
O19 C20 1.208 1_455 S
C20 O18 1.247 . S
C20 O19 1.208 1_655 S
C21 O26 1.247 . S
C21 O27 1.208 . S
C22 O14 1.315 . S
C22 O17 1.279 . S
C23 O24 1.315 . S
C23 O25 1.279 . S
O24 Cd16 2.223 . S
O24 C23 1.315 . S
O25 Cd15 2.240 . S
O25 C23 1.279 . S
O26 Cd16 2.297 . S
O26 C21 1.247 . S
O27 Cd16 2.439 . S
O27 C21 1.208 . S
O28 Cd29 2.223 . S
O28 C36 1.315 . S
Cd29 O28 2.223 . S
Cd29 O32 2.297 . S
Cd29 O33 2.439 . S
Cd29 O39 2.240 . S
Cd30 O31 2.240 . S
Cd30 O38 2.223 . S
Cd30 O40 2.297 . S
Cd30 O41 2.439 . S
O31 Cd30 2.240 . S
O31 C36 1.279 . S
O32 Cd29 2.297 . S
O32 C34 1.247 . S
O33 Cd29 2.439 . S
O33 C34 1.208 . S
C34 O32 1.247 . S
C34 O33 1.208 . S
C35 O40 1.247 . S
C35 O41 1.208 . S
C36 O28 1.315 . S
C36 O31 1.279 . S
C37 O38 1.315 . S
C37 O39 1.279 . S
O38 Cd30 2.223 . S
O38 C37 1.315 . S
O39 Cd29 2.240 . S
O39 C37 1.279 . S
O40 Cd30 2.297 . S
O40 C35 1.247 . S
O41 Cd30 2.439 . S
O41 C35 1.208 . S
O42 Cd43 2.223 . S
O42 C50 1.315 . S
Cd43 O42 2.223 . S
Cd43 O46 2.297 . S
Cd43 O47 2.439 . S
Cd43 O53 2.240 . S
Cd44 O45 2.240 . S
Cd44 O52 2.223 . S
Cd44 O54 2.297 . S
Cd44 O55 2.439 . S
O45 Cd44 2.240 . S
O45 C50 1.279 . S
O46 Cd43 2.297 . S
O46 C48 1.247 . S
O47 Cd43 2.439 . S
O47 C48 1.208 . S
C48 O46 1.247 . S
C48 O47 1.208 . S
C49 O54 1.247 . S
C49 O55 1.208 . S
C50 O42 1.315 . S
C50 O45 1.279 . S
C51 O52 1.315 . S
C51 O53 1.279 . S
O52 Cd44 2.223 . S
O52 C51 1.315 . S
O53 Cd43 2.240 . S
O53 C51 1.279 . S
O54 Cd44 2.297 . S
O54 C49 1.247 . S
O55 Cd44 2.439 . S
O55 C49 1.208 . S
O56 Cd57 2.223 . S
O56 C64 1.315 . S
Cd57 O56 2.223 . S
Cd57 O60 2.297 . S
Cd57 O61 2.439 . S
Cd57 O67 2.240 . S
Cd58 O59 2.240 . S
Cd58 O66 2.223 . S
Cd58 O68 2.297 . S
Cd58 O69 2.439 . S
O59 Cd58 2.240 . S
O59 C64 1.279 . S
O60 Cd57 2.297 . S
O60 C62 1.247 . S
O61 Cd57 2.439 . S
O61 C62 1.208 . S
C62 O60 1.247 . S
C62 O61 1.208 . S
C63 O68 1.247 . S
C63 O69 1.208 . S
C64 O56 1.315 . S
C64 O59 1.279 . S
C65 O66 1.315 . S
C65 O67 1.279 . S
O66 Cd58 2.223 . S
O66 C65 1.315 . S
O67 Cd57 2.240 . S
O67 C65 1.279 . S
O68 Cd58 2.297 . S
O68 C63 1.247 . S
O69 Cd58 2.439 . S
O69 C63 1.208 . S
O70 Cd71 2.223 . S
O70 C78 1.315 . S
Cd71 O70 2.223 . S
Cd71 O74 2.297 . S
Cd71 O75 2.439 . S
Cd71 O81 2.240 . S
Cd72 O73 2.240 . S
Cd72 O80 2.223 . S
Cd72 O82 2.297 . S
Cd72 O83 2.439 . S
O73 Cd72 2.240 . S
O73 C78 1.279 . S
O74 Cd71 2.297 . S
O74 C76 1.247 . S
O75 Cd71 2.439 . S
O75 C76 1.208 . S
C76 O74 1.247 . S
C76 O75 1.208 . S
C77 O82 1.247 . S
C77 O83 1.208 . S
C78 O70 1.315 . S
C78 O73 1.279 . S
C79 O80 1.315 . S
C79 O81 1.279 . S
O80 Cd72 2.223 . S
O80 C79 1.315 . S
O81 Cd71 2.240 . S
O81 C79 1.279 . S
O82 Cd72 2.297 . S
O82 C77 1.247 . S
O83 Cd72 2.439 . S
O83 C77 1.208 . S
O84 Cd85 2.223 . S
O84 C92 1.315 . S
Cd85 O84 2.223 . S
Cd85 O88 2.297 . S
Cd85 O89 2.439 . S
Cd85 O95 2.240 . S
Cd86 O87 2.240 . S
Cd86 O94 2.223 . S
Cd86 O96 2.297 . S
Cd86 O97 2.439 . S
O87 Cd86 2.240 . S
O87 C92 1.279 . S
O88 Cd85 2.297 . S
O88 C90 1.247 . S
O89 Cd85 2.439 . S
O89 C90 1.208 . S
C90 O88 1.247 . S
C90 O89 1.208 . S
C91 O96 1.247 . S
C91 O97 1.208 . S
C92 O84 1.315 . S
C92 O87 1.279 . S
C93 O94 1.315 . S
C93 O95 1.279 . S
O94 Cd86 2.223 . S
O94 C93 1.315 . S
O95 Cd85 2.240 . S
O95 C93 1.279 . S
O96 Cd86 2.297 . S
O96 C91 1.247 . S
O97 Cd86 2.439 . S
O97 C91 1.208 . S
O98 Cd99 2.223 1_655 S
O98 C106 1.315 . S
Cd99 O98 2.223 1_455 S
Cd99 O102 2.297 . S
Cd99 O103 2.439 . S
Cd99 O109 2.240 1_455 S
Cd100 O101 2.240 1_655 S
Cd100 O108 2.223 . S
Cd100 O110 2.297 . S
Cd100 O111 2.439 1_655 S
O101 Cd100 2.240 1_455 S
O101 C106 1.279 1_455 S
O102 Cd99 2.297 . S
O102 C104 1.247 . S
O103 Cd99 2.439 . S
O103 C104 1.208 . S
C104 O102 1.247 . S
C104 O103 1.208 . S
C105 O110 1.247 1_455 S
C105 O111 1.208 . S
C106 O98 1.315 . S
C106 O101 1.279 1_655 S
C107 O108 1.315 . S
C107 O109 1.279 . S
O108 Cd100 2.223 . S
O108 C107 1.315 . S
O109 Cd99 2.240 1_655 S
O109 C107 1.279 . S
O110 Cd100 2.297 . S
O110 C105 1.247 1_655 S
O111 Cd100 2.439 1_455 S
O111 C105 1.208 . S
O112 Cd113 2.223 . S
O112 C120 1.315 . S
Cd113 O112 2.223 . S
Cd113 O116 2.297 . S
Cd113 O117 2.439 . S
Cd113 O123 2.240 . S
Cd114 O115 2.240 . S
Cd114 O122 2.223 1_545 S
Cd114 O124 2.297 . S
Cd114 O125 2.439 . S
O115 Cd114 2.240 . S
O115 C120 1.279 . S
O116 Cd113 2.297 . S
O116 C118 1.247 . S
O117 Cd113 2.439 . S
O117 C118 1.208 . S
C118 O116 1.247 . S
C118 O117 1.208 . S
C119 O124 1.247 . S
C119 O125 1.208 . S
C120 O112 1.315 . S
C120 O115 1.279 . S
C121 O122 1.315 . S
C121 O123 1.279 1_565 S
O122 Cd114 2.223 1_565 S
O122 C121 1.315 . S
O123 Cd113 2.240 . S
O123 C121 1.279 1_545 S
O124 Cd114 2.297 . S
O124 C119 1.247 . S
O125 Cd114 2.439 . S
O125 C119 1.208 . S
O126 Cd127 2.223 . S
O126 C134 1.315 . S
Cd127 O126 2.223 . S
Cd127 O130 2.297 . S
Cd127 O131 2.439 . S
Cd127 O137 2.240 . S
Cd128 O129 2.240 . S
Cd128 O136 2.223 . S
Cd128 O138 2.297 . S
Cd128 O139 2.439 . S
O129 Cd128 2.240 . S
O129 C134 1.279 . S
O130 Cd127 2.297 . S
O130 C132 1.247 . S
O131 Cd127 2.439 . S
O131 C132 1.208 . S
C132 O130 1.247 . S
C132 O131 1.208 . S
C133 O138 1.247 . S
C133 O139 1.208 . S
C134 O126 1.315 . S
C134 O129 1.279 . S
C135 O136 1.315 . S
C135 O137 1.279 . S
O136 Cd128 2.223 . S
O136 C135 1.315 . S
O137 Cd127 2.240 . S
O137 C135 1.279 . S
O138 Cd128 2.297 . S
O138 C133 1.247 . S
O139 Cd128 2.439 . S
O139 C133 1.208 . S
O140 Cd141 2.223 . S
O140 C148 1.315 . S
Cd141 O140 2.223 . S
Cd141 O144 2.297 . S
Cd141 O145 2.439 . S
Cd141 O151 2.240 . S
Cd142 O143 2.240 . S
Cd142 O150 2.223 . S
Cd142 O152 2.297 . S
Cd142 O153 2.439 . S
O143 Cd142 2.240 . S
O143 C148 1.279 . S
O144 Cd141 2.297 . S
O144 C146 1.247 . S
O145 Cd141 2.439 . S
O145 C146 1.208 . S
C146 O144 1.247 . S
C146 O145 1.208 . S
C147 O152 1.247 . S
C147 O153 1.208 . S
C148 O140 1.315 . S
C148 O143 1.279 . S
C149 O150 1.315 . S
C149 O151 1.279 . S
O150 Cd142 2.223 . S
O150 C149 1.315 . S
O151 Cd141 2.240 . S
O151 C149 1.279 . S
O152 Cd142 2.297 . S
O152 C147 1.247 . S
O153 Cd142 2.439 . S
O153 C147 1.208 . S
O154 Cd155 2.223 . S
O154 C162 1.315 . S
Cd155 O154 2.223 . S
Cd155 O158 2.297 . S
Cd155 O159 2.439 1_554 S
Cd155 O165 2.240 1_554 S
Cd156 O157 2.240 1_556 S
Cd156 O164 2.223 1_556 S
Cd156 O166 2.297 . S
Cd156 O167 2.439 . S
O157 Cd156 2.240 1_554 S
O157 C162 1.279 . S
O158 Cd155 2.297 . S
O158 C160 1.247 . S
O159 Cd155 2.439 1_556 S
O159 C160 1.208 1_556 S
C160 O158 1.247 . S
C160 O159 1.208 1_554 S
C161 O166 1.247 . S
C161 O167 1.208 . S
C162 O154 1.315 . S
C162 O157 1.279 . S
C163 O164 1.315 . S
C163 O165 1.279 1_554 S
O164 Cd156 2.223 1_554 S
O164 C163 1.315 . S
O165 Cd155 2.240 1_556 S
O165 C163 1.279 1_556 S
O166 Cd156 2.297 . S
O166 C161 1.247 . S
O167 Cd156 2.439 . S
O167 C161 1.208 . S
O168 Cd169 2.223 . S
O168 C176 1.315 . S
Cd169 O168 2.223 . S
Cd169 O172 2.297 . S
Cd169 O173 2.439 . S
Cd169 O179 2.240 . S
Cd170 O171 2.240 . S
Cd170 O178 2.223 . S
Cd170 O180 2.297 1_554 S
Cd170 O181 2.439 1_554 S
O171 Cd170 2.240 . S
O171 C176 1.279 . S
O172 Cd169 2.297 . S
O172 C174 1.247 . S
O173 Cd169 2.439 . S
O173 C174 1.208 . S
C174 O172 1.247 . S
C174 O173 1.208 . S
C175 O180 1.247 . S
C175 O181 1.208 . S
C176 O168 1.315 . S
C176 O171 1.279 . S
C177 O178 1.315 . S
C177 O179 1.279 . S
O178 Cd170 2.223 . S
O178 C177 1.315 . S
O179 Cd169 2.240 . S
O179 C177 1.279 . S
O180 Cd170 2.297 1_556 S
O180 C175 1.247 . S
O181 Cd170 2.439 1_556 S
O181 C175 1.208 . S
O182 Cd183 2.223 . S
O182 C190 1.315 . S
Cd183 O182 2.223 . S
Cd183 O186 2.297 . S
Cd183 O187 2.439 . S
Cd183 O193 2.240 . S
Cd184 O185 2.240 . S
Cd184 O192 2.223 . S
Cd184 O194 2.297 . S
Cd184 O195 2.439 . S
O185 Cd184 2.240 . S
O185 C190 1.279 . S
O186 Cd183 2.297 . S
O186 C188 1.247 . S
O187 Cd183 2.439 . S
O187 C188 1.208 . S
C188 O186 1.247 . S
C188 O187 1.208 . S
C189 O194 1.247 . S
C189 O195 1.208 . S
C190 O182 1.315 . S
C190 O185 1.279 . S
C191 O192 1.315 . S
C191 O193 1.279 . S
O192 Cd184 2.223 . S
O192 C191 1.315 . S
O193 Cd183 2.240 . S
O193 C191 1.279 . S
O194 Cd184 2.297 . S
O194 C189 1.247 . S
O195 Cd184 2.439 . S
O195 C189 1.208 . S
O196 Cd197 2.223 . S
O196 C204 1.315 . S
Cd197 O196 2.223 . S
Cd197 O200 2.297 . S
Cd197 O201 2.439 . S
Cd197 O207 2.240 . S
Cd198 O199 2.240 . S
Cd198 O206 2.223 . S
Cd198 O208 2.297 . S
Cd198 O209 2.439 . S
O199 Cd198 2.240 . S
O199 C204 1.279 . S
O200 Cd197 2.297 . S
O200 C202 1.247 . S
O201 Cd197 2.439 . S
O201 C202 1.208 . S
C202 O200 1.247 . S
C202 O201 1.208 . S
C203 O208 1.247 . S
C203 O209 1.208 . S
C204 O196 1.315 . S
C204 O199 1.279 . S
C205 O206 1.315 . S
C205 O207 1.279 . S
O206 Cd198 2.223 . S
O206 C205 1.315 . S
O207 Cd197 2.240 . S
O207 C205 1.279 . S
O208 Cd198 2.297 . S
O208 C203 1.247 . S
O209 Cd198 2.439 . S
O209 C203 1.208 . S
O210 Cd211 2.223 . S
O210 C218 1.315 . S
Cd211 O210 2.223 . S
Cd211 O214 2.297 . S
Cd211 O215 2.439 . S
Cd211 O221 2.240 . S
Cd212 O213 2.240 . S
Cd212 O220 2.223 . S
Cd212 O222 2.297 . S
Cd212 O223 2.439 . S
O213 Cd212 2.240 . S
O213 C218 1.279 . S
O214 Cd211 2.297 . S
O214 C216 1.247 . S
O215 Cd211 2.439 . S
O215 C216 1.208 . S
C216 O214 1.247 . S
C216 O215 1.208 . S
C217 O222 1.247 . S
C217 O223 1.208 . S
C218 O210 1.315 . S
C218 O213 1.279 . S
C219 O220 1.315 . S
C219 O221 1.279 . S
O220 Cd212 2.223 . S
O220 C219 1.315 . S
O221 Cd211 2.240 . S
O221 C219 1.279 . S
O222 Cd212 2.297 . S
O222 C217 1.247 . S
O223 Cd212 2.439 . S
O223 C217 1.208 . S
O224 Cd225 2.223 1_565 S
O224 C232 1.315 1_565 S
Cd225 O224 2.223 1_545 S
Cd225 O228 2.297 . S
Cd225 O229 2.439 . S
Cd225 O235 2.240 1_545 S
Cd226 O227 2.217 1_565 S
Cd226 O234 2.254 . S
Cd226 O236 2.313 . S
Cd226 O237 2.421 1_565 S
O227 Cd226 2.217 1_545 S
O227 C232 1.279 . S
O228 Cd225 2.297 . S
O228 C230 1.247 . S
O229 Cd225 2.439 . S
O229 C230 1.208 . S
C230 O228 1.247 . S
C230 O229 1.208 . S
C231 O236 1.247 1_545 S
C231 O237 1.208 . S
C232 O224 1.315 1_545 S
C232 O227 1.279 . S
C233 O234 1.315 . S
C233 O235 1.279 . S
O234 Cd226 2.254 . S
O234 C233 1.315 . S
O235 Cd225 2.240 1_565 S
O235 C233 1.279 . S
O236 Cd226 2.313 . S
O236 C231 1.247 1_565 S
O237 Cd226 2.421 1_545 S
O237 C231 1.208 . S
O238 Cd239 2.223 . S
O238 C246 1.315 . S
Cd239 O238 2.223 . S
Cd239 O242 2.297 . S
Cd239 O243 2.439 . S
Cd239 O249 2.240 . S
Cd240 O241 2.240 . S
Cd240 O248 2.223 . S
Cd240 O250 2.297 . S
Cd240 O251 2.439 . S
O241 Cd240 2.240 . S
O241 C246 1.279 . S
O242 Cd239 2.297 . S
O242 C244 1.247 . S
O243 Cd239 2.439 . S
O243 C244 1.208 . S
C244 O242 1.247 . S
C244 O243 1.208 . S
C245 O250 1.247 . S
C245 O251 1.208 . S
C246 O238 1.315 . S
C246 O241 1.279 . S
C247 O248 1.315 . S
C247 O249 1.279 . S
O248 Cd240 2.223 . S
O248 C247 1.315 . S
O249 Cd239 2.240 . S
O249 C247 1.279 . S
O250 Cd240 2.297 . S
O250 C245 1.247 . S
O251 Cd240 2.439 . S
O251 C245 1.208 . S
O252 Cd253 2.223 . S
O252 C260 1.315 . S
Cd253 O252 2.223 . S
Cd253 O256 2.297 . S
Cd253 O257 2.439 . S
Cd253 O263 2.240 . S
Cd254 O255 2.240 . S
Cd254 O262 2.223 . S
Cd254 O264 2.297 . S
Cd254 O265 2.439 . S
O255 Cd254 2.240 . S
O255 C260 1.279 . S
O256 Cd253 2.297 . S
O256 C258 1.247 . S
O257 Cd253 2.439 . S
O257 C258 1.208 . S
C258 O256 1.247 . S
C258 O257 1.208 . S
C259 O264 1.247 . S
C259 O265 1.208 . S
C260 O252 1.315 . S
C260 O255 1.279 . S
C261 O262 1.315 . S
C261 O263 1.279 . S
O262 Cd254 2.223 . S
O262 C261 1.315 . S
O263 Cd253 2.240 . S
O263 C261 1.279 . S
O264 Cd254 2.297 . S
O264 C259 1.247 . S
O265 Cd254 2.439 . S
O265 C259 1.208 . S
O266 Cd267 2.223 . S
O266 C274 1.315 . S
Cd267 O266 2.223 . S
Cd267 O270 2.297 . S
Cd267 O271 2.439 . S
Cd267 O277 2.240 . S
Cd268 O269 2.240 . S
Cd268 O276 2.223 . S
Cd268 O278 2.297 . S
Cd268 O279 2.439 . S
O269 Cd268 2.240 . S
O269 C274 1.279 . S
O270 Cd267 2.297 . S
O270 C272 1.247 1_545 S
O271 Cd267 2.439 . S
O271 C272 1.208 1_545 S
C272 O270 1.247 1_565 S
C272 O271 1.208 1_565 S
C273 O278 1.247 . S
C273 O279 1.208 . S
C274 O266 1.315 . S
C274 O269 1.279 . S
C275 O276 1.315 . S
C275 O277 1.279 . S
O276 Cd268 2.223 . S
O276 C275 1.315 . S
O277 Cd267 2.240 . S
O277 C275 1.279 . S
O278 Cd268 2.297 . S
O278 C273 1.247 . S
O279 Cd268 2.439 . S
O279 C273 1.208 . S
O280 Cd281 2.223 . S
O280 C288 1.315 . S
Cd281 O280 2.223 . S
Cd281 O284 2.297 . S
Cd281 O285 2.439 . S
Cd281 O291 2.240 . S
Cd282 O283 2.240 . S
Cd282 O290 2.223 . S
Cd282 O292 2.290 1_554 S
Cd282 O293 2.439 . S
O283 Cd282 2.240 . S
O283 C288 1.279 . S
O284 Cd281 2.297 . S
O284 C286 1.247 . S
O285 Cd281 2.439 . S
O285 C286 1.208 . S
C286 O284 1.247 . S
C286 O285 1.208 . S
C287 O292 1.251 . S
C287 O293 1.208 1_556 S
C288 O280 1.315 . S
C288 O283 1.279 . S
C289 O290 1.315 . S
C289 O291 1.279 . S
O290 Cd282 2.223 . S
O290 C289 1.315 . S
O291 Cd281 2.240 . S
O291 C289 1.279 . S
O292 Cd282 2.290 1_556 S
O292 C287 1.251 . S
O293 Cd282 2.439 . S
O293 C287 1.208 1_554 S
O294 Cd295 2.223 . S
O294 C302 1.315 . S
Cd295 O294 2.223 . S
Cd295 O298 2.297 . S
Cd295 O299 2.439 . S
Cd295 O305 2.240 . S
Cd296 O297 2.240 . S
Cd296 O304 2.223 . S
Cd296 O306 2.297 . S
Cd296 O307 2.439 . S
O297 Cd296 2.240 . S
O297 C302 1.279 . S
O298 Cd295 2.297 . S
O298 C300 1.247 . S
O299 Cd295 2.439 . S
O299 C300 1.208 . S
C300 O298 1.247 . S
C300 O299 1.208 . S
C301 O306 1.247 . S
C301 O307 1.208 . S
C302 O294 1.315 . S
C302 O297 1.279 . S
C303 O304 1.315 . S
C303 O305 1.279 . S
O304 Cd296 2.223 . S
O304 C303 1.315 . S
O305 Cd295 2.240 . S
O305 C303 1.279 . S
O306 Cd296 2.297 . S
O306 C301 1.247 . S
O307 Cd296 2.439 . S
O307 C301 1.208 . S
O308 Cd309 2.223 . S
O308 C316 1.315 . S
Cd309 O308 2.223 . S
Cd309 O312 2.297 . S
Cd309 O313 2.439 . S
Cd309 O319 2.240 . S
Cd310 O311 2.240 . S
Cd310 O318 2.223 . S
Cd310 O320 2.297 . S
Cd310 O321 2.439 . S
O311 Cd310 2.240 . S
O311 C316 1.279 . S
O312 Cd309 2.297 . S
O312 C314 1.247 . S
O313 Cd309 2.439 . S
O313 C314 1.208 . S
C314 O312 1.247 . S
C314 O313 1.208 . S
C315 O320 1.247 . S
C315 O321 1.208 . S
C316 O308 1.315 . S
C316 O311 1.279 . S
C317 O318 1.315 . S
C317 O319 1.279 . S
O318 Cd310 2.223 . S
O318 C317 1.315 . S
O319 Cd309 2.240 . S
O319 C317 1.279 . S
O320 Cd310 2.297 . S
O320 C315 1.247 . S
O321 Cd310 2.439 . S
O321 C315 1.208 . S
O322 Cd323 2.223 . S
O322 C330 1.315 . S
Cd323 O322 2.223 . S
Cd323 O326 2.297 . S
Cd323 O327 2.439 . S
Cd323 O333 2.240 . S
Cd324 O325 2.240 . S
Cd324 O332 2.223 . S
Cd324 O334 2.297 . S
Cd324 O335 2.439 . S
O325 Cd324 2.240 . S
O325 C330 1.279 . S
O326 Cd323 2.297 . S
O326 C328 1.247 . S
O327 Cd323 2.439 . S
O327 C328 1.208 . S
C328 O326 1.247 . S
C328 O327 1.208 . S
C329 O334 1.247 . S
C329 O335 1.208 . S
C330 O322 1.315 . S
C330 O325 1.279 . S
C331 O332 1.315 . S
C331 O333 1.279 . S
O332 Cd324 2.223 . S
O332 C331 1.315 . S
O333 Cd323 2.240 . S
O333 C331 1.279 . S
O334 Cd324 2.297 . S
O334 C329 1.247 . S
O335 Cd324 2.439 . S
O335 C329 1.208 . S
Tb336 C345 2.764 . S
Tb336 O346 2.325 . S
Tb336 O349 2.303 . S
Tb336 O353 2.322 . S
Tb336 O354 2.349 . S
Tb336 O357 2.415 . S
Tb336 O358 2.399 . S
Tb337 O347 2.322 . S
Tb337 O348 2.349 . S
Tb337 O350 2.415 1_455 S
Tb337 O351 2.399 1_455 S
Tb337 O352 2.325 . S
Tb337 O355 2.303 . S
Tb337 C366 2.764 1_455 S
C338 O354 1.261 . S
C338 O355 1.257 . S
C339 C342 1.358 . S
C339 C343 1.332 . S
C339 C345 1.504 . S
C340 C341 1.373 . S
C340 C344 1.308 . S
C341 C340 1.373 . S
C341 C342 1.429 . S
C341 H368 0.932 . S
C342 C339 1.358 . S
C342 C341 1.429 . S
C342 H369 0.930 . S
C343 C339 1.332 . S
C343 C344 1.394 . S
C343 H370 0.932 . S
C344 C340 1.308 . S
C344 C343 1.394 . S
C344 H371 0.929 . S
C345 Tb336 2.764 . S
C345 C339 1.504 . S
C345 O357 1.239 . S
C345 O358 1.263 . S
O346 Tb336 2.325 . S
O346 C356 1.236 . S
O347 Tb337 2.322 . S
O347 C356 1.257 . S
O348 Tb337 2.349 . S
O348 C359 1.261 . S
O349 Tb336 2.303 . S
O349 C359 1.257 . S
O350 Tb337 2.415 1_655 S
O350 C366 1.239 . S
O351 Tb337 2.399 1_655 S
O351 C366 1.263 . S
O352 Tb337 2.325 . S
O352 C367 1.236 . S
O353 Tb336 2.322 . S
O353 C367 1.257 . S
O354 Tb336 2.349 . S
O354 C338 1.261 . S
O355 Tb337 2.303 . S
O355 C338 1.257 . S
C356 O346 1.236 . S
C356 O347 1.257 . S
O357 Tb336 2.415 . S
O357 C345 1.239 . S
O358 Tb336 2.399 . S
O358 C345 1.263 . S
C359 O348 1.261 . S
C359 O349 1.257 . S
C360 C363 1.358 . S
C360 C364 1.332 . S
C360 C366 1.504 . S
C361 C362 1.373 . S
C361 C365 1.308 . S
C362 C361 1.373 . S
C362 C363 1.429 . S
C362 H372 0.932 1_554 S
C363 C360 1.358 . S
C363 C362 1.429 . S
C363 H373 0.930 1_554 S
C364 C360 1.332 . S
C364 C365 1.394 . S
C364 H374 0.932 . S
C365 C361 1.308 . S
C365 C364 1.394 . S
C365 H375 0.929 . S
C366 Tb337 2.764 1_655 S
C366 O350 1.239 . S
C366 O351 1.263 . S
C366 C360 1.504 . S
C367 O352 1.236 . S
C367 O353 1.257 . S
H368 C341 0.932 . S
H369 C342 0.930 . S
H370 C343 0.932 . S
H371 C344 0.929 . S
H372 C362 0.932 1_556 S
H373 C363 0.930 1_556 S
H374 C364 0.932 . S
H375 C365 0.929 . S
Tb376 C385 2.764 . S
Tb376 O386 2.325 . S
Tb376 O389 2.303 . S
Tb376 O393 2.322 . S
Tb376 O394 2.349 . S
Tb376 O397 2.415 . S
Tb376 O398 2.399 . S
Tb377 O387 2.322 . S
Tb377 O388 2.349 . S
Tb377 O390 2.415 . S
Tb377 O391 2.399 . S
Tb377 O392 2.325 . S
Tb377 O395 2.303 . S
Tb377 C406 2.764 . S
C378 O394 1.261 . S
C378 O395 1.257 . S
C379 C382 1.358 . S
C379 C383 1.332 . S
C379 C385 1.504 . S
C380 C381 1.373 . S
C380 C384 1.308 . S
C381 C380 1.373 . S
C381 C382 1.429 . S
C381 H408 0.932 . S
C382 C379 1.358 . S
C382 C381 1.429 . S
C382 H409 0.930 . S
C383 C379 1.332 . S
C383 C384 1.394 . S
C383 H410 0.932 . S
C384 C380 1.308 . S
C384 C383 1.394 . S
C384 H411 0.929 . S
C385 Tb376 2.764 . S
C385 C379 1.504 . S
C385 O397 1.239 . S
C385 O398 1.263 . S
O386 Tb376 2.325 . S
O386 C396 1.236 . S
O387 Tb377 2.322 . S
O387 C396 1.257 . S
O388 Tb377 2.349 . S
O388 C399 1.261 . S
O389 Tb376 2.303 . S
O389 C399 1.257 . S
O390 Tb377 2.415 . S
O390 C406 1.239 . S
O391 Tb377 2.399 . S
O391 C406 1.263 . S
O392 Tb377 2.325 . S
O392 C407 1.236 . S
O393 Tb376 2.322 . S
O393 C407 1.257 . S
O394 Tb376 2.349 . S
O394 C378 1.261 . S
O395 Tb377 2.303 . S
O395 C378 1.257 . S
C396 O386 1.236 . S
C396 O387 1.257 . S
O397 Tb376 2.415 . S
O397 C385 1.239 . S
O398 Tb376 2.399 . S
O398 C385 1.263 . S
C399 O388 1.261 . S
C399 O389 1.257 . S
C400 C403 1.358 . S
C400 C404 1.332 . S
C400 C406 1.504 . S
C401 C402 1.373 . S
C401 C405 1.308 . S
C402 C401 1.373 . S
C402 C403 1.429 . S
C402 H412 0.932 . S
C403 C400 1.358 . S
C403 C402 1.429 . S
C403 H413 0.930 . S
C404 C400 1.332 . S
C404 C405 1.394 . S
C404 H414 0.932 . S
C405 C401 1.308 . S
C405 C404 1.394 . S
C405 H415 0.929 . S
C406 Tb377 2.764 . S
C406 O390 1.239 . S
C406 O391 1.263 . S
C406 C400 1.504 . S
C407 O392 1.236 . S
C407 O393 1.257 . S
H408 C381 0.932 . S
H409 C382 0.930 . S
H410 C383 0.932 . S
H411 C384 0.929 . S
H412 C402 0.932 . S
H413 C403 0.930 . S
H414 C404 0.932 . S
H415 C405 0.929 . S
Tb416 C425 2.764 . S
Tb416 O426 2.325 . S
Tb416 O429 2.303 . S
Tb416 O433 2.322 1_545 S
Tb416 O434 2.349 . S
Tb416 O437 2.415 . S
Tb416 O438 2.399 . S
Tb417 O427 2.322 . S
Tb417 O428 2.349 . S
Tb417 O430 2.415 . S
Tb417 O431 2.399 . S
Tb417 O432 2.325 . S
Tb417 O435 2.303 . S
Tb417 C446 2.764 . S
C418 O434 1.261 . S
C418 O435 1.257 . S
C419 C422 1.358 . S
C419 C423 1.332 . S
C419 C425 1.504 . S
C420 C421 1.373 . S
C420 C424 1.308 . S
C421 C420 1.373 . S
C421 C422 1.429 . S
C421 H448 0.932 . S
C422 C419 1.358 . S
C422 C421 1.429 . S
C422 H449 0.930 . S
C423 C419 1.332 . S
C423 C424 1.394 . S
C423 H450 0.932 . S
C424 C420 1.308 . S
C424 C423 1.394 . S
C424 H451 0.929 . S
C425 Tb416 2.764 . S
C425 C419 1.504 . S
C425 O437 1.239 . S
C425 O438 1.263 . S
O426 Tb416 2.325 . S
O426 C436 1.236 . S
O427 Tb417 2.322 . S
O427 C436 1.257 . S
O428 Tb417 2.349 . S
O428 C439 1.261 . S
O429 Tb416 2.303 . S
O429 C439 1.257 . S
O430 Tb417 2.415 . S
O430 C446 1.239 . S
O431 Tb417 2.399 . S
O431 C446 1.263 . S
O432 Tb417 2.325 . S
O432 C447 1.236 1_545 S
O433 Tb416 2.322 1_565 S
O433 C447 1.257 . S
O434 Tb416 2.349 . S
O434 C418 1.261 . S
O435 Tb417 2.303 . S
O435 C418 1.257 . S
C436 O426 1.236 . S
C436 O427 1.257 . S
O437 Tb416 2.415 . S
O437 C425 1.239 . S
O438 Tb416 2.399 . S
O438 C425 1.263 . S
C439 O428 1.261 . S
C439 O429 1.257 . S
C440 C443 1.358 . S
C440 C444 1.332 1_545 S
C440 C446 1.504 . S
C441 C442 1.373 . S
C441 C445 1.308 . S
C442 C441 1.373 . S
C442 C443 1.429 1_565 S
C442 H452 0.931 1_565 S
C443 C440 1.358 . S
C443 C442 1.429 1_545 S
C443 H453 0.930 . S
C444 C440 1.332 1_565 S
C444 C445 1.394 . S
C444 H454 0.932 . S
C445 C441 1.308 . S
C445 C444 1.394 . S
C445 H455 0.929 . S
C446 Tb417 2.764 . S
C446 O430 1.239 . S
C446 O431 1.263 . S
C446 C440 1.504 . S
C447 O432 1.236 1_565 S
C447 O433 1.257 . S
H448 C421 0.932 . S
H449 C422 0.930 . S
H450 C423 0.932 . S
H451 C424 0.929 . S
H452 C442 0.931 1_545 S
H453 C443 0.930 . S
H454 C444 0.932 . S
H455 C445 0.929 . S
Tb456 C465 2.764 . S
Tb456 O466 2.325 . S
Tb456 O469 2.303 . S
Tb456 O473 2.322 . S
Tb456 O474 2.349 . S
Tb456 O477 2.415 . S
Tb456 O478 2.399 . S
Tb457 O467 2.322 . S
Tb457 O468 2.349 . S
Tb457 O470 2.415 . S
Tb457 O471 2.399 . S
Tb457 O472 2.325 . S
Tb457 O475 2.303 . S
Tb457 C486 2.764 . S
C458 O474 1.261 . S
C458 O475 1.257 . S
C459 C462 1.358 . S
C459 C463 1.332 . S
C459 C465 1.504 . S
C460 C461 1.373 . S
C460 C464 1.308 . S
C461 C460 1.373 . S
C461 C462 1.429 . S
C461 H488 0.932 . S
C462 C459 1.358 . S
C462 C461 1.429 . S
C462 H489 0.930 . S
C463 C459 1.332 . S
C463 C464 1.394 . S
C463 H490 0.932 . S
C464 C460 1.308 . S
C464 C463 1.394 . S
C464 H491 0.929 . S
C465 Tb456 2.764 . S
C465 C459 1.504 . S
C465 O477 1.239 . S
C465 O478 1.263 . S
O466 Tb456 2.325 . S
O466 C476 1.236 . S
O467 Tb457 2.322 . S
O467 C476 1.257 . S
O468 Tb457 2.349 . S
O468 C479 1.261 . S
O469 Tb456 2.303 . S
O469 C479 1.257 . S
O470 Tb457 2.415 . S
O470 C486 1.239 . S
O471 Tb457 2.399 . S
O471 C486 1.263 . S
O472 Tb457 2.325 . S
O472 C487 1.236 . S
O473 Tb456 2.322 . S
O473 C487 1.257 . S
O474 Tb456 2.349 . S
O474 C458 1.261 . S
O475 Tb457 2.303 . S
O475 C458 1.257 . S
C476 O466 1.236 . S
C476 O467 1.257 . S
O477 Tb456 2.415 . S
O477 C465 1.239 . S
O478 Tb456 2.399 . S
O478 C465 1.263 . S
C479 O468 1.261 . S
C479 O469 1.257 . S
C480 C483 1.358 . S
C480 C484 1.332 . S
C480 C486 1.504 . S
C481 C482 1.373 . S
C481 C485 1.308 . S
C482 C481 1.373 . S
C482 C483 1.429 . S
C482 H492 0.932 . S
C483 C480 1.358 . S
C483 C482 1.429 . S
C483 H493 0.930 . S
C484 C480 1.332 . S
C484 C485 1.394 . S
C484 H494 0.932 . S
C485 C481 1.308 . S
C485 C484 1.394 . S
C485 H495 0.929 . S
C486 Tb457 2.764 . S
C486 O470 1.239 . S
C486 O471 1.263 . S
C486 C480 1.504 . S
C487 O472 1.236 . S
C487 O473 1.257 . S
H488 C461 0.932 . S
H489 C462 0.930 . S
H490 C463 0.932 . S
H491 C464 0.929 . S
H492 C482 0.932 . S
H493 C483 0.930 . S
H494 C484 0.932 . S
H495 C485 0.929 . S
Tb496 C505 2.764 . S
Tb496 O506 2.325 . S
Tb496 O509 2.303 . S
Tb496 O513 2.322 . S
Tb496 O514 2.349 . S
Tb496 O517 2.415 . S
Tb496 O518 2.399 . S
Tb497 O507 2.322 1_545 S
Tb497 O508 2.349 . S
Tb497 O510 2.415 . S
Tb497 O511 2.399 . S
Tb497 O512 2.325 . S
Tb497 O515 2.303 . S
Tb497 C526 2.764 . S
C498 O514 1.261 . S
C498 O515 1.257 . S
C499 C502 1.358 . S
C499 C503 1.332 . S
C499 C505 1.504 . S
C500 C501 1.373 . S
C500 C504 1.308 . S
C501 C500 1.373 . S
C501 C502 1.429 . S
C501 H528 0.932 . S
C502 C499 1.358 . S
C502 C501 1.429 . S
C502 H529 0.930 . S
C503 C499 1.332 . S
C503 C504 1.394 . S
C503 H530 0.932 . S
C504 C500 1.308 . S
C504 C503 1.394 . S
C504 H531 0.929 . S
C505 Tb496 2.764 . S
C505 C499 1.504 . S
C505 O517 1.239 . S
C505 O518 1.263 . S
O506 Tb496 2.325 . S
O506 C516 1.236 1_545 S
O507 Tb497 2.322 1_565 S
O507 C516 1.257 . S
O508 Tb497 2.349 . S
O508 C519 1.261 . S
O509 Tb496 2.303 . S
O509 C519 1.257 . S
O510 Tb497 2.415 . S
O510 C526 1.239 . S
O511 Tb497 2.399 . S
O511 C526 1.263 . S
O512 Tb497 2.325 . S
O512 C527 1.236 . S
O513 Tb496 2.322 . S
O513 C527 1.257 . S
O514 Tb496 2.349 . S
O514 C498 1.261 . S
O515 Tb497 2.303 . S
O515 C498 1.257 . S
C516 O506 1.236 1_565 S
C516 O507 1.257 . S
O517 Tb496 2.415 . S
O517 C505 1.239 . S
O518 Tb496 2.399 . S
O518 C505 1.263 . S
C519 O508 1.261 . S
C519 O509 1.257 . S
C520 C523 1.358 . S
C520 C524 1.332 . S
C520 C526 1.504 . S
C521 C522 1.373 . S
C521 C525 1.308 1_455 S
C522 C521 1.373 . S
C522 C523 1.429 . S
C522 H532 0.932 . S
C523 C520 1.358 . S
C523 C522 1.429 . S
C523 H533 0.930 . S
C524 C520 1.332 . S
C524 C525 1.394 1_455 S
C524 H534 0.932 1_455 S
C525 C521 1.308 1_655 S
C525 C524 1.394 1_655 S
C525 H535 0.929 . S
C526 Tb497 2.764 . S
C526 O510 1.239 . S
C526 O511 1.263 . S
C526 C520 1.504 . S
C527 O512 1.236 . S
C527 O513 1.257 . S
H528 C501 0.932 . S
H529 C502 0.930 . S
H530 C503 0.932 . S
H531 C504 0.929 . S
H532 C522 0.932 . S
H533 C523 0.930 . S
H534 C524 0.932 1_655 S
H535 C525 0.929 . S
Tb536 C545 2.764 . S
Tb536 O546 2.325 . S
Tb536 O549 2.303 . S
Tb536 O553 2.322 . S
Tb536 O554 2.349 . S
Tb536 O557 2.415 . S
Tb536 O558 2.399 . S
Tb537 O547 2.322 . S
Tb537 O548 2.349 . S
Tb537 O550 2.415 . S
Tb537 O551 2.399 . S
Tb537 O552 2.325 . S
Tb537 O555 2.303 . S
Tb537 C566 2.764 . S
C538 O554 1.261 . S
C538 O555 1.257 . S
C539 C542 1.358 . S
C539 C543 1.332 . S
C539 C545 1.504 . S
C540 C541 1.373 . S
C540 C544 1.308 . S
C541 C540 1.373 . S
C541 C542 1.429 . S
C541 H568 0.932 . S
C542 C539 1.358 . S
C542 C541 1.429 . S
C542 H569 0.930 . S
C543 C539 1.332 . S
C543 C544 1.394 . S
C543 H570 0.932 . S
C544 C540 1.308 . S
C544 C543 1.394 . S
C544 H571 0.929 . S
C545 Tb536 2.764 . S
C545 C539 1.504 . S
C545 O557 1.239 . S
C545 O558 1.263 . S
O546 Tb536 2.325 . S
O546 C556 1.236 . S
O547 Tb537 2.322 . S
O547 C556 1.257 . S
O548 Tb537 2.349 . S
O548 C559 1.261 . S
O549 Tb536 2.303 . S
O549 C559 1.257 . S
O550 Tb537 2.415 . S
O550 C566 1.239 . S
O551 Tb537 2.399 . S
O551 C566 1.263 . S
O552 Tb537 2.325 . S
O552 C567 1.236 . S
O553 Tb536 2.322 . S
O553 C567 1.257 . S
O554 Tb536 2.349 . S
O554 C538 1.261 . S
O555 Tb537 2.303 . S
O555 C538 1.257 . S
C556 O546 1.236 . S
C556 O547 1.257 . S
O557 Tb536 2.415 . S
O557 C545 1.239 . S
O558 Tb536 2.399 . S
O558 C545 1.263 . S
C559 O548 1.261 . S
C559 O549 1.257 . S
C560 C563 1.358 . S
C560 C564 1.332 . S
C560 C566 1.504 . S
C561 C562 1.373 . S
C561 C565 1.308 . S
C562 C561 1.373 . S
C562 C563 1.429 . S
C562 H572 0.932 . S
C563 C560 1.358 . S
C563 C562 1.429 . S
C563 H573 0.930 . S
C564 C560 1.332 . S
C564 C565 1.394 . S
C564 H574 0.932 . S
C565 C561 1.308 . S
C565 C564 1.394 . S
C565 H575 0.929 . S
C566 Tb537 2.764 . S
C566 O550 1.239 . S
C566 O551 1.263 . S
C566 C560 1.504 . S
C567 O552 1.236 . S
C567 O553 1.257 . S
H568 C541 0.932 . S
H569 C542 0.930 . S
H570 C543 0.932 . S
H571 C544 0.929 . S
H572 C562 0.932 . S
H573 C563 0.930 . S
H574 C564 0.932 . S
H575 C565 0.929 . S
Tb576 C585 2.764 . S
Tb576 O586 2.325 . S
Tb576 O589 2.303 . S
Tb576 O593 2.322 1_545 S
Tb576 O594 2.349 . S
Tb576 O597 2.415 . S
Tb576 O598 2.399 . S
Tb577 O587 2.322 . S
Tb577 O588 2.349 . S
Tb577 O590 2.415 1_554 S
Tb577 O591 2.399 1_554 S
Tb577 O592 2.325 . S
Tb577 O595 2.303 . S
Tb577 C606 2.764 1_554 S
C578 O594 1.261 . S
C578 O595 1.257 . S
C579 C582 1.358 . S
C579 C583 1.332 . S
C579 C585 1.504 . S
C580 C581 1.373 . S
C580 C584 1.308 . S
C581 C580 1.373 . S
C581 C582 1.429 . S
C581 H608 0.932 . S
C582 C579 1.358 . S
C582 C581 1.429 . S
C582 H609 0.930 . S
C583 C579 1.332 . S
C583 C584 1.394 . S
C583 H610 0.932 . S
C584 C580 1.308 . S
C584 C583 1.394 . S
C584 H611 0.929 . S
C585 Tb576 2.764 . S
C585 C579 1.504 . S
C585 O597 1.239 . S
C585 O598 1.263 . S
O586 Tb576 2.325 . S
O586 C596 1.236 . S
O587 Tb577 2.322 . S
O587 C596 1.257 . S
O588 Tb577 2.349 . S
O588 C599 1.261 . S
O589 Tb576 2.303 . S
O589 C599 1.257 . S
O590 Tb577 2.415 1_556 S
O590 C606 1.239 . S
O591 Tb577 2.399 1_556 S
O591 C606 1.263 . S
O592 Tb577 2.325 . S
O592 C607 1.236 1_545 S
O593 Tb576 2.322 1_565 S
O593 C607 1.257 . S
O594 Tb576 2.349 . S
O594 C578 1.261 . S
O595 Tb577 2.303 . S
O595 C578 1.257 . S
C596 O586 1.236 . S
C596 O587 1.257 . S
O597 Tb576 2.415 . S
O597 C585 1.239 . S
O598 Tb576 2.399 . S
O598 C585 1.263 . S
C599 O588 1.261 . S
C599 O589 1.257 . S
C600 C603 1.358 . S
C600 C604 1.332 . S
C600 C606 1.504 . S
C601 C602 1.373 . S
C601 C605 1.308 . S
C602 C601 1.373 . S
C602 C603 1.429 . S
C602 H612 0.932 . S
C603 C600 1.358 . S
C603 C602 1.429 . S
C603 H613 0.930 . S
C604 C600 1.332 . S
C604 C605 1.394 . S
C604 H614 0.932 . S
C605 C601 1.308 . S
C605 C604 1.394 . S
C605 H615 0.929 . S
C606 Tb577 2.764 1_556 S
C606 O590 1.239 . S
C606 O591 1.263 . S
C606 C600 1.504 . S
C607 O592 1.236 1_565 S
C607 O593 1.257 . S
H608 C581 0.932 . S
H609 C582 0.930 . S
H610 C583 0.932 . S
H611 C584 0.929 . S
H612 C602 0.932 . S
H613 C603 0.930 . S
H614 C604 0.932 . S
H615 C605 0.929 . S
Tb616 C625 2.764 . S
Tb616 O626 2.325 . S
Tb616 O629 2.303 . S
Tb616 O633 2.322 . S
Tb616 O634 2.349 . S
Tb616 O637 2.415 . S
Tb616 O638 2.399 . S
Tb617 O627 2.322 . S
Tb617 O628 2.349 . S
Tb617 O630 2.415 . S
Tb617 O631 2.399 . S
Tb617 O632 2.325 . S
Tb617 O635 2.303 . S
Tb617 C646 2.764 . S
C618 O634 1.261 . S
C618 O635 1.257 . S
C619 C622 1.358 . S
C619 C623 1.332 . S
C619 C625 1.504 . S
C620 C621 1.373 . S
C620 C624 1.308 . S
C621 C620 1.373 . S
C621 C622 1.429 . S
C621 H648 0.932 . S
C622 C619 1.358 . S
C622 C621 1.429 . S
C622 H649 0.930 . S
C623 C619 1.332 . S
C623 C624 1.394 . S
C623 H650 0.932 . S
C624 C620 1.308 . S
C624 C623 1.394 . S
C624 H651 0.929 . S
C625 Tb616 2.764 . S
C625 C619 1.504 . S
C625 O637 1.239 . S
C625 O638 1.263 . S
O626 Tb616 2.325 . S
O626 C636 1.236 . S
O627 Tb617 2.322 . S
O627 C636 1.257 . S
O628 Tb617 2.349 . S
O628 C639 1.261 . S
O629 Tb616 2.303 . S
O629 C639 1.257 . S
O630 Tb617 2.415 . S
O630 C646 1.239 . S
O631 Tb617 2.399 . S
O631 C646 1.263 . S
O632 Tb617 2.325 . S
O632 C647 1.236 . S
O633 Tb616 2.322 . S
O633 C647 1.257 . S
O634 Tb616 2.349 . S
O634 C618 1.261 . S
O635 Tb617 2.303 . S
O635 C618 1.257 . S
C636 O626 1.236 . S
C636 O627 1.257 . S
O637 Tb616 2.415 . S
O637 C625 1.239 . S
O638 Tb616 2.399 . S
O638 C625 1.263 . S
C639 O628 1.261 . S
C639 O629 1.257 . S
C640 C643 1.358 . S
C640 C644 1.332 . S
C640 C646 1.504 . S
C641 C642 1.373 . S
C641 C645 1.308 . S
C642 C641 1.373 . S
C642 C643 1.429 . S
C642 H652 0.932 . S
C643 C640 1.358 . S
C643 C642 1.429 . S
C643 H653 0.930 . S
C644 C640 1.332 . S
C644 C645 1.394 . S
C644 H654 0.932 . S
C645 C641 1.308 . S
C645 C644 1.394 . S
C645 H655 0.929 . S
C646 Tb617 2.764 . S
C646 O630 1.239 . S
C646 O631 1.263 . S
C646 C640 1.504 . S
C647 O632 1.236 . S
C647 O633 1.257 . S
H648 C621 0.932 . S
H649 C622 0.930 . S
H650 C623 0.932 . S
H651 C624 0.929 . S
H652 C642 0.932 . S
H653 C643 0.930 . S
H654 C644 0.932 . S
H655 C645 0.929 . S
Tb656 C665 2.764 . S
Tb656 O666 2.325 . S
Tb656 O669 2.303 . S
Tb656 O673 2.322 . S
Tb656 O674 2.349 . S
Tb656 O677 2.415 . S
Tb656 O678 2.399 . S
Tb657 O667 2.322 . S
Tb657 O668 2.349 . S
Tb657 O670 2.415 1_554 S
Tb657 O671 2.399 1_554 S
Tb657 O672 2.325 . S
Tb657 O675 2.303 . S
Tb657 C686 2.764 1_554 S
C658 O674 1.261 . S
C658 O675 1.257 . S
C659 C662 1.358 . S
C659 C663 1.332 . S
C659 C665 1.504 . S
C660 C661 1.373 . S
C660 C664 1.308 . S
C661 C660 1.373 . S
C661 C662 1.429 . S
C661 H688 0.932 . S
C662 C659 1.358 . S
C662 C661 1.429 . S
C662 H689 0.930 . S
C663 C659 1.332 . S
C663 C664 1.394 . S
C663 H690 0.932 . S
C664 C660 1.308 . S
C664 C663 1.394 . S
C664 H691 0.929 . S
C665 Tb656 2.764 . S
C665 C659 1.504 . S
C665 O677 1.239 . S
C665 O678 1.263 . S
O666 Tb656 2.325 . S
O666 C676 1.236 . S
O667 Tb657 2.322 . S
O667 C676 1.257 . S
O668 Tb657 2.349 . S
O668 C679 1.261 . S
O669 Tb656 2.303 . S
O669 C679 1.257 . S
O670 Tb657 2.415 1_556 S
O670 C686 1.239 . S
O671 Tb657 2.399 1_556 S
O671 C686 1.263 . S
O672 Tb657 2.325 . S
O672 C687 1.236 . S
O673 Tb656 2.322 . S
O673 C687 1.257 . S
O674 Tb656 2.349 . S
O674 C658 1.261 . S
O675 Tb657 2.303 . S
O675 C658 1.257 . S
C676 O666 1.236 . S
C676 O667 1.257 . S
O677 Tb656 2.415 . S
O677 C665 1.239 . S
O678 Tb656 2.399 . S
O678 C665 1.263 . S
C679 O668 1.261 . S
C679 O669 1.257 . S
C680 C683 1.358 . S
C680 C684 1.332 . S
C680 C686 1.504 . S
C681 C682 1.373 . S
C681 C685 1.308 . S
C682 C681 1.373 . S
C682 C683 1.429 . S
C682 H692 0.932 . S
C683 C680 1.358 . S
C683 C682 1.429 . S
C683 H693 0.930 . S
C684 C680 1.332 . S
C684 C685 1.394 . S
C684 H694 0.932 . S
C685 C681 1.308 . S
C685 C684 1.394 . S
C685 H695 0.929 . S
C686 Tb657 2.764 1_556 S
C686 O670 1.239 . S
C686 O671 1.263 . S
C686 C680 1.504 . S
C687 O672 1.236 . S
C687 O673 1.257 . S
H688 C661 0.932 . S
H689 C662 0.930 . S
H690 C663 0.932 . S
H691 C664 0.929 . S
H692 C682 0.932 . S
H693 C683 0.930 . S
H694 C684 0.932 . S
H695 C685 0.929 . S
Tb696 C705 2.764 . S
Tb696 O706 2.325 . S
Tb696 O709 2.303 . S
Tb696 O713 2.322 . S
Tb696 O714 2.349 . S
Tb696 O717 2.415 . S
Tb696 O718 2.399 . S
Tb697 O707 2.322 . S
Tb697 O708 2.349 . S
Tb697 O710 2.415 . S
Tb697 O711 2.399 . S
Tb697 O712 2.325 . S
Tb697 O715 2.303 . S
Tb697 C726 2.764 . S
C698 O714 1.261 . S
C698 O715 1.257 . S
C699 C702 1.358 . S
C699 C703 1.332 . S
C699 C705 1.504 . S
C700 C701 1.373 . S
C700 C704 1.308 . S
C701 C700 1.373 . S
C701 C702 1.429 . S
C701 H728 0.932 . S
C702 C699 1.358 . S
C702 C701 1.429 . S
C702 H729 0.930 . S
C703 C699 1.332 . S
C703 C704 1.394 . S
C703 H730 0.932 . S
C704 C700 1.308 . S
C704 C703 1.394 . S
C704 H731 0.929 . S
C705 Tb696 2.764 . S
C705 C699 1.504 . S
C705 O717 1.239 . S
C705 O718 1.263 . S
O706 Tb696 2.325 . S
O706 C716 1.236 . S
O707 Tb697 2.322 . S
O707 C716 1.257 . S
O708 Tb697 2.349 . S
O708 C719 1.261 . S
O709 Tb696 2.303 . S
O709 C719 1.257 . S
O710 Tb697 2.415 . S
O710 C726 1.239 . S
O711 Tb697 2.399 . S
O711 C726 1.263 . S
O712 Tb697 2.325 . S
O712 C727 1.236 . S
O713 Tb696 2.322 . S
O713 C727 1.257 . S
O714 Tb696 2.349 . S
O714 C698 1.261 . S
O715 Tb697 2.303 . S
O715 C698 1.257 . S
C716 O706 1.236 . S
C716 O707 1.257 . S
O717 Tb696 2.415 . S
O717 C705 1.239 . S
O718 Tb696 2.399 . S
O718 C705 1.263 . S
C719 O708 1.261 . S
C719 O709 1.257 . S
C720 C723 1.358 . S
C720 C724 1.332 . S
C720 C726 1.504 . S
C721 C722 1.373 . S
C721 C725 1.308 . S
C722 C721 1.373 . S
C722 C723 1.429 . S
C722 H732 0.932 . S
C723 C720 1.358 . S
C723 C722 1.429 . S
C723 H733 0.930 . S
C724 C720 1.332 . S
C724 C725 1.394 . S
C724 H734 0.932 . S
C725 C721 1.308 . S
C725 C724 1.394 . S
C725 H735 0.929 . S
C726 Tb697 2.764 . S
C726 O710 1.239 . S
C726 O711 1.263 . S
C726 C720 1.504 . S
C727 O712 1.236 . S
C727 O713 1.257 . S
H728 C701 0.932 . S
H729 C702 0.930 . S
H730 C703 0.932 . S
H731 C704 0.929 . S
H732 C722 0.932 . S
H733 C723 0.930 . S
H734 C724 0.932 . S
H735 C725 0.929 . S
Tb736 C745 2.764 . S
Tb736 O746 2.325 . S
Tb736 O749 2.303 . S
Tb736 O753 2.322 . S
Tb736 O754 2.349 . S
Tb736 O757 2.415 . S
Tb736 O758 2.399 . S
Tb737 O747 2.322 . S
Tb737 O748 2.349 1_455 S
Tb737 O750 2.415 . S
Tb737 O751 2.399 . S
Tb737 O752 2.325 . S
Tb737 O755 2.303 . S
Tb737 C766 2.764 . S
C738 O754 1.261 . S
C738 O755 1.257 . S
C739 C742 1.358 . S
C739 C743 1.332 1_455 S
C739 C745 1.504 . S
C740 C741 1.373 . S
C740 C744 1.308 1_455 S
C741 C740 1.373 . S
C741 C742 1.429 . S
C741 H768 0.932 . S
C742 C739 1.358 . S
C742 C741 1.429 . S
C742 H769 0.930 . S
C743 C739 1.332 1_655 S
C743 C744 1.394 . S
C743 H770 0.932 . S
C744 C740 1.308 1_655 S
C744 C743 1.394 . S
C744 H771 0.929 . S
C745 Tb736 2.764 . S
C745 C739 1.504 . S
C745 O757 1.239 . S
C745 O758 1.263 . S
O746 Tb736 2.325 . S
O746 C756 1.236 . S
O747 Tb737 2.322 . S
O747 C756 1.257 . S
O748 Tb737 2.349 1_655 S
O748 C759 1.261 . S
O749 Tb736 2.303 . S
O749 C759 1.257 1_455 S
O750 Tb737 2.415 . S
O750 C766 1.239 . S
O751 Tb737 2.399 . S
O751 C766 1.263 . S
O752 Tb737 2.325 . S
O752 C767 1.236 . S
O753 Tb736 2.322 . S
O753 C767 1.257 . S
O754 Tb736 2.349 . S
O754 C738 1.261 . S
O755 Tb737 2.303 . S
O755 C738 1.257 . S
C756 O746 1.236 . S
C756 O747 1.257 . S
O757 Tb736 2.415 . S
O757 C745 1.239 . S
O758 Tb736 2.399 . S
O758 C745 1.263 . S
C759 O748 1.261 . S
C759 O749 1.257 1_655 S
C760 C763 1.358 . S
C760 C764 1.332 . S
C760 C766 1.504 . S
C761 C762 1.373 . S
C761 C765 1.308 . S
C762 C761 1.373 . S
C762 C763 1.429 . S
C762 H772 0.932 . S
C763 C760 1.358 . S
C763 C762 1.429 . S
C763 H773 0.930 . S
C764 C760 1.332 . S
C764 C765 1.394 . S
C764 H774 0.932 . S
C765 C761 1.308 . S
C765 C764 1.394 . S
C765 H775 0.929 . S
C766 Tb737 2.764 . S
C766 O750 1.239 . S
C766 O751 1.263 . S
C766 C760 1.504 . S
C767 O752 1.236 . S
C767 O753 1.257 . S
H768 C741 0.932 . S
H769 C742 0.930 . S
H770 C743 0.932 . S
H771 C744 0.929 . S
H772 C762 0.932 . S
H773 C763 0.930 . S
H774 C764 0.932 . S
H775 C765 0.929 . S
Tb776 C785 2.764 . S
Tb776 O786 2.325 . S
Tb776 O789 2.303 . S
Tb776 O793 2.322 . S
Tb776 O794 2.349 . S
Tb776 O797 2.415 . S
Tb776 O798 2.399 . S
Tb777 O787 2.322 . S
Tb777 O788 2.349 . S
Tb777 O790 2.415 . S
Tb777 O791 2.399 . S
Tb777 O792 2.325 . S
Tb777 O795 2.303 . S
Tb777 C806 2.764 . S
C778 O794 1.261 . S
C778 O795 1.257 . S
C779 C782 1.358 . S
C779 C783 1.332 . S
C779 C785 1.504 . S
C780 C781 1.373 . S
C780 C784 1.308 . S
C781 C780 1.373 . S
C781 C782 1.429 . S
C781 H808 0.932 . S
C782 C779 1.358 . S
C782 C781 1.429 . S
C782 H809 0.930 . S
C783 C779 1.332 . S
C783 C784 1.394 . S
C783 H810 0.932 . S
C784 C780 1.308 . S
C784 C783 1.394 . S
C784 H811 0.929 . S
C785 Tb776 2.764 . S
C785 C779 1.504 . S
C785 O797 1.239 . S
C785 O798 1.263 . S
O786 Tb776 2.325 . S
O786 C796 1.236 . S
O787 Tb777 2.322 . S
O787 C796 1.257 . S
O788 Tb777 2.349 . S
O788 C799 1.261 . S
O789 Tb776 2.303 . S
O789 C799 1.257 . S
O790 Tb777 2.415 . S
O790 C806 1.239 . S
O791 Tb777 2.399 . S
O791 C806 1.263 . S
O792 Tb777 2.325 . S
O792 C807 1.236 . S
O793 Tb776 2.322 . S
O793 C807 1.257 . S
O794 Tb776 2.349 . S
O794 C778 1.261 . S
O795 Tb777 2.303 . S
O795 C778 1.257 . S
C796 O786 1.236 . S
C796 O787 1.257 . S
O797 Tb776 2.415 . S
O797 C785 1.239 . S
O798 Tb776 2.399 . S
O798 C785 1.263 . S
C799 O788 1.261 . S
C799 O789 1.257 . S
C800 C803 1.358 . S
C800 C804 1.332 . S
C800 C806 1.504 . S
C801 C802 1.373 . S
C801 C805 1.308 . S
C802 C801 1.373 . S
C802 C803 1.429 . S
C802 H812 0.932 . S
C803 C800 1.358 . S
C803 C802 1.429 . S
C803 H813 0.930 . S
C804 C800 1.332 . S
C804 C805 1.394 . S
C804 H814 0.932 . S
C805 C801 1.308 . S
C805 C804 1.394 . S
C805 H815 0.929 . S
C806 Tb777 2.764 . S
C806 O790 1.239 . S
C806 O791 1.263 . S
C806 C800 1.504 . S
C807 O792 1.236 . S
C807 O793 1.257 . S
H808 C781 0.932 . S
H809 C782 0.930 . S
H810 C783 0.932 . S
H811 C784 0.929 . S
H812 C802 0.932 . S
H813 C803 0.930 . S
H814 C804 0.932 . S
H815 C805 0.929 . S
Tb816 C825 2.764 . S
Tb816 O826 2.325 . S
Tb816 O829 2.303 . S
Tb816 O833 2.322 . S
Tb816 O834 2.349 . S
Tb816 O837 2.415 . S
Tb816 O838 2.399 . S
Tb817 O827 2.322 . S
Tb817 O828 2.349 . S
Tb817 O830 2.415 . S
Tb817 O831 2.399 . S
Tb817 O832 2.325 . S
Tb817 O835 2.303 . S
Tb817 C846 2.764 . S
C818 O834 1.261 . S
C818 O835 1.257 . S
C819 C822 1.358 . S
C819 C823 1.332 . S
C819 C825 1.504 . S
C820 C821 1.373 . S
C820 C824 1.308 . S
C821 C820 1.373 . S
C821 C822 1.429 . S
C821 H848 0.932 . S
C822 C819 1.358 . S
C822 C821 1.429 . S
C822 H849 0.930 . S
C823 C819 1.332 . S
C823 C824 1.394 . S
C823 H850 0.932 . S
C824 C820 1.308 . S
C824 C823 1.394 . S
C824 H851 0.929 . S
C825 Tb816 2.764 . S
C825 C819 1.504 . S
C825 O837 1.239 . S
C825 O838 1.263 . S
O826 Tb816 2.325 . S
O826 C836 1.236 . S
O827 Tb817 2.322 . S
O827 C836 1.257 . S
O828 Tb817 2.349 . S
O828 C839 1.261 . S
O829 Tb816 2.303 . S
O829 C839 1.257 . S
O830 Tb817 2.415 . S
O830 C846 1.239 . S
O831 Tb817 2.399 . S
O831 C846 1.263 . S
O832 Tb817 2.325 . S
O832 C847 1.236 . S
O833 Tb816 2.322 . S
O833 C847 1.257 . S
O834 Tb816 2.349 . S
O834 C818 1.261 . S
O835 Tb817 2.303 . S
O835 C818 1.257 . S
C836 O826 1.236 . S
C836 O827 1.257 . S
O837 Tb816 2.415 . S
O837 C825 1.239 . S
O838 Tb816 2.399 . S
O838 C825 1.263 . S
C839 O828 1.261 . S
C839 O829 1.257 . S
C840 C843 1.358 . S
C840 C844 1.332 . S
C840 C846 1.504 . S
C841 C842 1.373 . S
C841 C845 1.308 . S
C842 C841 1.373 . S
C842 C843 1.429 . S
C842 H852 0.932 . S
C843 C840 1.358 . S
C843 C842 1.429 . S
C843 H853 0.930 . S
C844 C840 1.332 . S
C844 C845 1.394 . S
C844 H854 0.932 . S
C845 C841 1.308 . S
C845 C844 1.394 . S
C845 H855 0.929 . S
C846 Tb817 2.764 . S
C846 O830 1.239 . S
C846 O831 1.263 . S
C846 C840 1.504 . S
C847 O832 1.236 . S
C847 O833 1.257 . S
H848 C821 0.932 . S
H849 C822 0.930 . S
H850 C823 0.932 . S
H851 C824 0.929 . S
H852 C842 0.932 . S
H853 C843 0.930 . S
H854 C844 0.932 . S
H855 C845 0.929 . S
Tb856 C865 2.764 . S
Tb856 O866 2.325 . S
Tb856 O869 2.303 . S
Tb856 O873 2.322 . S
Tb856 O874 2.349 . S
Tb856 O877 2.415 . S
Tb856 O878 2.399 . S
Tb857 O867 2.322 . S
Tb857 O868 2.349 . S
Tb857 O870 2.415 . S
Tb857 O871 2.399 . S
Tb857 O872 2.325 . S
Tb857 O875 2.303 . S
Tb857 C886 2.764 . S
C858 O874 1.261 . S
C858 O875 1.257 . S
C859 C862 1.358 . S
C859 C863 1.332 . S
C859 C865 1.504 . S
C860 C861 1.373 . S
C860 C864 1.308 . S
C861 C860 1.373 . S
C861 C862 1.429 . S
C861 H888 0.932 . S
C862 C859 1.358 . S
C862 C861 1.429 . S
C862 H889 0.930 . S
C863 C859 1.332 . S
C863 C864 1.394 . S
C863 H890 0.932 . S
C864 C860 1.308 . S
C864 C863 1.394 . S
C864 H891 0.929 . S
C865 Tb856 2.764 . S
C865 C859 1.504 . S
C865 O877 1.239 . S
C865 O878 1.263 . S
O866 Tb856 2.325 . S
O866 C876 1.236 . S
O867 Tb857 2.322 . S
O867 C876 1.257 . S
O868 Tb857 2.349 . S
O868 C879 1.261 . S
O869 Tb856 2.303 . S
O869 C879 1.257 . S
O870 Tb857 2.415 . S
O870 C886 1.239 . S
O871 Tb857 2.399 . S
O871 C886 1.263 . S
O872 Tb857 2.325 . S
O872 C887 1.236 . S
O873 Tb856 2.322 . S
O873 C887 1.257 . S
O874 Tb856 2.349 . S
O874 C858 1.261 . S
O875 Tb857 2.303 . S
O875 C858 1.257 . S
C876 O866 1.236 . S
C876 O867 1.257 . S
O877 Tb856 2.415 . S
O877 C865 1.239 . S
O878 Tb856 2.399 . S
O878 C865 1.263 . S
C879 O868 1.261 . S
C879 O869 1.257 . S
C880 C883 1.358 . S
C880 C884 1.332 . S
C880 C886 1.504 . S
C881 C882 1.373 . S
C881 C885 1.308 . S
C882 C881 1.373 . S
C882 C883 1.429 . S
C882 H892 0.932 . S
C883 C880 1.358 . S
C883 C882 1.429 . S
C883 H893 0.930 . S
C884 C880 1.332 . S
C884 C885 1.394 . S
C884 H894 0.932 . S
C885 C881 1.308 . S
C885 C884 1.394 . S
C885 H895 0.929 . S
C886 Tb857 2.764 . S
C886 O870 1.239 . S
C886 O871 1.263 . S
C886 C880 1.504 . S
C887 O872 1.236 . S
C887 O873 1.257 . S
H888 C861 0.932 . S
H889 C862 0.930 . S
H890 C863 0.932 . S
H891 C864 0.929 . S
H892 C882 0.932 . S
H893 C883 0.930 . S
H894 C884 0.932 . S
H895 C885 0.929 . S
Tb896 C905 2.764 . S
Tb896 O906 2.325 . S
Tb896 O909 2.303 . S
Tb896 O913 2.322 . S
Tb896 O914 2.349 . S
Tb896 O917 2.415 . S
Tb896 O918 2.399 . S
Tb897 O907 2.322 . S
Tb897 O908 2.349 . S
Tb897 O910 2.415 . S
Tb897 O911 2.399 . S
Tb897 O912 2.325 . S
Tb897 O915 2.303 . S
Tb897 C926 2.764 . S
C898 O914 1.261 . S
C898 O915 1.257 . S
C899 C902 1.358 . S
C899 C903 1.332 . S
C899 C905 1.504 . S
C900 C901 1.373 . S
C900 C904 1.308 . S
C901 C900 1.373 . S
C901 C902 1.429 . S
C901 H928 0.932 . S
C902 C899 1.358 . S
C902 C901 1.429 . S
C902 H929 0.930 . S
C903 C899 1.332 . S
C903 C904 1.394 . S
C903 H930 0.932 . S
C904 C900 1.308 . S
C904 C903 1.394 . S
C904 H931 0.929 . S
C905 Tb896 2.764 . S
C905 C899 1.504 . S
C905 O917 1.239 . S
C905 O918 1.263 . S
O906 Tb896 2.325 . S
O906 C916 1.236 . S
O907 Tb897 2.322 . S
O907 C916 1.257 . S
O908 Tb897 2.349 . S
O908 C919 1.261 . S
O909 Tb896 2.303 . S
O909 C919 1.257 . S
O910 Tb897 2.415 . S
O910 C926 1.239 . S
O911 Tb897 2.399 . S
O911 C926 1.263 . S
O912 Tb897 2.325 . S
O912 C927 1.236 . S
O913 Tb896 2.322 . S
O913 C927 1.257 . S
O914 Tb896 2.349 . S
O914 C898 1.261 . S
O915 Tb897 2.303 . S
O915 C898 1.257 . S
C916 O906 1.236 . S
C916 O907 1.257 . S
O917 Tb896 2.415 . S
O917 C905 1.239 . S
O918 Tb896 2.399 . S
O918 C905 1.263 . S
C919 O908 1.261 . S
C919 O909 1.257 . S
C920 C923 1.358 . S
C920 C924 1.332 . S
C920 C926 1.504 . S
C921 C922 1.373 . S
C921 C925 1.308 . S
C922 C921 1.373 . S
C922 C923 1.429 . S
C922 H932 0.932 . S
C923 C920 1.358 . S
C923 C922 1.429 . S
C923 H933 0.930 . S
C924 C920 1.332 . S
C924 C925 1.394 . S
C924 H934 0.932 . S
C925 C921 1.308 . S
C925 C924 1.394 . S
C925 H935 0.929 . S
C926 Tb897 2.764 . S
C926 O910 1.239 . S
C926 O911 1.263 . S
C926 C920 1.504 . S
C927 O912 1.236 . S
C927 O913 1.257 . S
H928 C901 0.932 . S
H929 C902 0.930 . S
H930 C903 0.932 . S
H931 C904 0.929 . S
H932 C922 0.932 . S
H933 C923 0.930 . S
H934 C924 0.932 . S
H935 C925 0.929 . S
Tb936 C945 2.764 1_455 S
Tb936 O946 2.325 . S
Tb936 O949 2.303 . S
Tb936 O953 2.322 . S
Tb936 O954 2.349 . S
Tb936 O957 2.415 1_455 S
Tb936 O958 2.399 1_455 S
Tb937 O947 2.322 . S
Tb937 O948 2.349 . S
Tb937 O950 2.415 . S
Tb937 O951 2.399 . S
Tb937 O952 2.325 . S
Tb937 O955 2.303 . S
Tb937 C966 2.764 . S
C938 O954 1.261 . S
C938 O955 1.257 . S
C939 C942 1.358 . S
C939 C943 1.332 . S
C939 C945 1.504 . S
C940 C941 1.373 . S
C940 C944 1.308 . S
C941 C940 1.373 . S
C941 C942 1.429 . S
C941 H968 0.932 . S
C942 C939 1.358 . S
C942 C941 1.429 . S
C942 H969 0.930 . S
C943 C939 1.332 . S
C943 C944 1.394 . S
C943 H970 0.932 . S
C944 C940 1.308 . S
C944 C943 1.394 . S
C944 H971 0.929 . S
C945 Tb936 2.764 1_655 S
C945 C939 1.504 . S
C945 O957 1.239 . S
C945 O958 1.263 . S
O946 Tb936 2.325 . S
O946 C956 1.236 . S
O947 Tb937 2.322 . S
O947 C956 1.257 . S
O948 Tb937 2.349 . S
O948 C959 1.261 . S
O949 Tb936 2.303 . S
O949 C959 1.257 . S
O950 Tb937 2.415 . S
O950 C966 1.239 . S
O951 Tb937 2.399 . S
O951 C966 1.263 . S
O952 Tb937 2.325 . S
O952 C967 1.236 . S
O953 Tb936 2.322 . S
O953 C967 1.257 . S
O954 Tb936 2.349 . S
O954 C938 1.261 . S
O955 Tb937 2.303 . S
O955 C938 1.257 . S
C956 O946 1.236 . S
C956 O947 1.257 . S
O957 Tb936 2.415 1_655 S
O957 C945 1.239 . S
O958 Tb936 2.399 1_655 S
O958 C945 1.263 . S
C959 O948 1.261 . S
C959 O949 1.257 . S
C960 C963 1.358 . S
C960 C964 1.332 . S
C960 C966 1.504 . S
C961 C962 1.373 . S
C961 C965 1.308 . S
C962 C961 1.373 . S
C962 C963 1.429 . S
C962 H972 0.932 . S
C963 C960 1.358 . S
C963 C962 1.429 . S
C963 H973 0.930 . S
C964 C960 1.332 . S
C964 C965 1.394 . S
C964 H974 0.932 . S
C965 C961 1.308 . S
C965 C964 1.394 . S
C965 H975 0.929 . S
C966 Tb937 2.764 . S
C966 O950 1.239 . S
C966 O951 1.263 . S
C966 C960 1.504 . S
C967 O952 1.236 . S
C967 O953 1.257 . S
H968 C941 0.932 . S
H969 C942 0.930 . S
H970 C943 0.932 . S
H971 C944 0.929 . S
H972 C962 0.932 . S
H973 C963 0.930 . S
H974 C964 0.932 . S
H975 C965 0.929 . S
H976 C988 0.930 . S
H977 C990 0.930 . S
H978 C991 0.930 . S
H979 C995 0.959 . S
H980 C995 0.959 . S
H981 C995 0.961 . S
H982 C996 0.960 . S
H983 C996 0.961 . S
H984 C996 0.959 1_655 S
H985 C999 0.929 1_655 S
H986 C1000 0.931 . S
H987 C1002 0.930 . S
C988 H976 0.930 . S
C988 C989 1.399 1_455 S
C988 C993 1.399 . S
C989 C988 1.399 1_655 S
C989 C990 1.376 . S
C990 H977 0.930 . S
C990 C989 1.376 . S
C990 C991 1.388 . S
C991 H978 0.930 . S
C991 C990 1.388 . S
C991 C992 1.390 1_655 S
C992 C991 1.390 1_455 S
C992 C993 1.394 . S
C992 C998 1.465 . S
C993 C988 1.399 . S
C993 C992 1.394 . S
C993 C994 1.516 1_556 S
C994 C993 1.516 1_554 S
C994 C995 1.502 . S
C994 C996 1.561 . S
C994 C997 1.526 . S
C995 H979 0.959 . S
C995 H980 0.959 . S
C995 H981 0.961 . S
C995 C994 1.502 . S
C996 H982 0.960 . S
C996 H983 0.961 . S
C996 H984 0.959 1_455 S
C996 C994 1.561 . S
C997 C994 1.526 . S
C997 C998 1.396 1_554 S
C997 C1002 1.390 . S
C998 C992 1.465 . S
C998 C997 1.396 1_556 S
C998 C999 1.399 . S
C999 H985 0.929 1_455 S
C999 C998 1.399 . S
C999 C1000 1.385 1_556 S
C1000 H986 0.931 . S
C1000 C999 1.385 1_554 S
C1000 C1001 1.389 . S
C1001 C1000 1.389 . S
C1001 C1002 1.387 . S
C1002 H987 0.930 . S
C1002 C997 1.390 . S
C1002 C1001 1.387 . S
H1003 C1015 0.930 . S
H1004 C1017 0.930 . S
H1005 C1018 0.930 . S
H1006 C1022 0.959 . S
H1007 C1022 0.959 . S
H1008 C1022 0.961 . S
H1009 C1023 0.960 . S
H1010 C1023 0.961 . S
H1011 C1023 0.959 . S
H1012 C1026 0.929 . S
H1013 C1027 0.931 . S
H1014 C1029 0.930 . S
C1015 H1003 0.930 . S
C1015 C1016 1.399 . S
C1015 C1020 1.399 . S
C1016 C1015 1.399 . S
C1016 C1017 1.376 . S
C1017 H1004 0.930 . S
C1017 C1016 1.376 . S
C1017 C1018 1.388 . S
C1018 H1005 0.930 . S
C1018 C1017 1.388 . S
C1018 C1019 1.390 . S
C1019 C1018 1.390 . S
C1019 C1020 1.394 . S
C1019 C1025 1.465 . S
C1020 C1015 1.399 . S
C1020 C1019 1.394 . S
C1020 C1021 1.516 . S
C1021 C1020 1.516 . S
C1021 C1022 1.502 . S
C1021 C1023 1.561 . S
C1021 C1024 1.526 . S
C1022 H1006 0.959 . S
C1022 H1007 0.959 . S
C1022 H1008 0.961 . S
C1022 C1021 1.502 . S
C1023 H1009 0.960 . S
C1023 H1010 0.961 . S
C1023 H1011 0.959 . S
C1023 C1021 1.561 . S
C1024 C1021 1.526 . S
C1024 C1025 1.396 . S
C1024 C1029 1.390 . S
C1025 C1019 1.465 . S
C1025 C1024 1.396 . S
C1025 C1026 1.399 . S
C1026 H1012 0.929 . S
C1026 C1025 1.399 . S
C1026 C1027 1.385 . S
C1027 H1013 0.931 . S
C1027 C1026 1.385 . S
C1027 C1028 1.389 . S
C1028 C1027 1.389 . S
C1028 C1029 1.387 . S
C1029 H1014 0.930 . S
C1029 C1024 1.390 . S
C1029 C1028 1.387 . S
H1030 C1042 0.930 . S
H1031 C1044 0.930 . S
H1032 C1045 0.930 . S
H1033 C1049 0.959 . S
H1034 C1049 0.959 . S
H1035 C1049 0.961 . S
H1036 C1050 0.960 . S
H1037 C1050 0.961 . S
H1038 C1050 0.959 . S
H1039 C1053 0.929 . S
H1040 C1054 0.931 . S
H1041 C1056 0.930 . S
C1042 H1030 0.930 . S
C1042 C1043 1.399 . S
C1042 C1047 1.399 . S
C1043 C1042 1.399 . S
C1043 C1044 1.376 . S
C1044 H1031 0.930 . S
C1044 C1043 1.376 . S
C1044 C1045 1.388 . S
C1045 H1032 0.930 . S
C1045 C1044 1.388 . S
C1045 C1046 1.390 . S
C1046 C1045 1.390 . S
C1046 C1047 1.394 . S
C1046 C1052 1.465 . S
C1047 C1042 1.399 . S
C1047 C1046 1.394 . S
C1047 C1048 1.516 . S
C1048 C1047 1.516 . S
C1048 C1049 1.502 . S
C1048 C1050 1.561 . S
C1048 C1051 1.526 . S
C1049 H1033 0.959 . S
C1049 H1034 0.959 . S
C1049 H1035 0.961 . S
C1049 C1048 1.502 . S
C1050 H1036 0.960 . S
C1050 H1037 0.961 . S
C1050 H1038 0.959 . S
C1050 C1048 1.561 . S
C1051 C1048 1.526 . S
C1051 C1052 1.396 . S
C1051 C1056 1.390 . S
C1052 C1046 1.465 . S
C1052 C1051 1.396 . S
C1052 C1053 1.399 . S
C1053 H1039 0.929 . S
C1053 C1052 1.399 . S
C1053 C1054 1.385 . S
C1054 H1040 0.931 . S
C1054 C1053 1.385 . S
C1054 C1055 1.389 . S
C1055 C1054 1.389 . S
C1055 C1056 1.387 . S
C1056 H1041 0.930 . S
C1056 C1051 1.390 . S
C1056 C1055 1.387 . S
H1057 C1069 0.930 . S
H1058 C1071 0.930 . S
H1059 C1072 0.930 . S
H1060 C1076 0.959 . S
H1061 C1076 0.959 . S
H1062 C1076 0.961 . S
H1063 C1077 0.960 . S
H1064 C1077 0.961 . S
H1065 C1077 0.959 . S
H1066 C1080 0.929 . S
H1067 C1081 0.931 . S
H1068 C1083 0.930 . S
C1069 H1057 0.930 . S
C1069 C1070 1.399 . S
C1069 C1074 1.399 . S
C1070 C1069 1.399 . S
C1070 C1071 1.376 . S
C1071 H1058 0.930 . S
C1071 C1070 1.376 . S
C1071 C1072 1.388 . S
C1072 H1059 0.930 . S
C1072 C1071 1.388 . S
C1072 C1073 1.390 . S
C1073 C1072 1.390 . S
C1073 C1074 1.394 . S
C1073 C1079 1.465 . S
C1074 C1069 1.399 . S
C1074 C1073 1.394 . S
C1074 C1075 1.516 . S
C1075 C1074 1.516 . S
C1075 C1076 1.502 . S
C1075 C1077 1.561 . S
C1075 C1078 1.526 . S
C1076 H1060 0.959 . S
C1076 H1061 0.959 . S
C1076 H1062 0.961 . S
C1076 C1075 1.502 . S
C1077 H1063 0.960 . S
C1077 H1064 0.961 . S
C1077 H1065 0.959 . S
C1077 C1075 1.561 . S
C1078 C1075 1.526 . S
C1078 C1079 1.396 . S
C1078 C1083 1.390 . S
C1079 C1073 1.465 . S
C1079 C1078 1.396 . S
C1079 C1080 1.399 . S
C1080 H1066 0.929 . S
C1080 C1079 1.399 . S
C1080 C1081 1.385 . S
C1081 H1067 0.931 . S
C1081 C1080 1.385 . S
C1081 C1082 1.389 . S
C1082 C1081 1.389 . S
C1082 C1083 1.387 . S
C1083 H1068 0.930 . S
C1083 C1078 1.390 . S
C1083 C1082 1.387 . S
H1084 C1096 0.930 . S
H1085 C1098 0.930 . S
H1086 C1099 0.930 . S
H1087 C1103 0.959 . S
H1088 C1103 0.959 . S
H1089 C1103 0.961 . S
H1090 C1104 0.960 . S
H1091 C1104 0.961 . S
H1092 C1104 0.959 . S
H1093 C1107 0.929 . S
H1094 C1108 0.931 . S
H1095 C1110 0.930 . S
C1096 H1084 0.930 . S
C1096 C1097 1.399 . S
C1096 C1101 1.399 . S
C1097 C1096 1.399 . S
C1097 C1098 1.376 . S
C1098 H1085 0.930 . S
C1098 C1097 1.376 . S
C1098 C1099 1.388 . S
C1099 H1086 0.930 . S
C1099 C1098 1.388 . S
C1099 C1100 1.390 . S
C1100 C1099 1.390 . S
C1100 C1101 1.394 . S
C1100 C1106 1.465 . S
C1101 C1096 1.399 . S
C1101 C1100 1.394 . S
C1101 C1102 1.516 . S
C1102 C1101 1.516 . S
C1102 C1103 1.502 . S
C1102 C1104 1.561 . S
C1102 C1105 1.526 . S
C1103 H1087 0.959 . S
C1103 H1088 0.959 . S
C1103 H1089 0.961 . S
C1103 C1102 1.502 . S
C1104 H1090 0.960 . S
C1104 H1091 0.961 . S
C1104 H1092 0.959 . S
C1104 C1102 1.561 . S
C1105 C1102 1.526 . S
C1105 C1106 1.396 . S
C1105 C1110 1.390 . S
C1106 C1100 1.465 . S
C1106 C1105 1.396 . S
C1106 C1107 1.399 . S
C1107 H1093 0.929 . S
C1107 C1106 1.399 . S
C1107 C1108 1.385 . S
C1108 H1094 0.931 . S
C1108 C1107 1.385 . S
C1108 C1109 1.389 . S
C1109 C1108 1.389 . S
C1109 C1110 1.387 . S
C1110 H1095 0.930 . S
C1110 C1105 1.390 . S
C1110 C1109 1.387 . S
H1111 C1123 0.930 . S
H1112 C1125 0.930 . S
H1113 C1126 0.930 . S
H1114 C1130 0.959 . S
H1115 C1130 0.959 . S
H1116 C1130 0.961 . S
H1117 C1131 0.960 . S
H1118 C1131 0.961 . S
H1119 C1131 0.959 . S
H1120 C1134 0.929 . S
H1121 C1135 0.931 . S
H1122 C1137 0.930 . S
C1123 H1111 0.930 . S
C1123 C1124 1.399 . S
C1123 C1128 1.399 . S
C1124 C1123 1.399 . S
C1124 C1125 1.376 . S
C1125 H1112 0.930 . S
C1125 C1124 1.376 . S
C1125 C1126 1.388 . S
C1126 H1113 0.930 . S
C1126 C1125 1.388 . S
C1126 C1127 1.390 . S
C1127 C1126 1.390 . S
C1127 C1128 1.394 . S
C1127 C1133 1.465 . S
C1128 C1123 1.399 . S
C1128 C1127 1.394 . S
C1128 C1129 1.516 . S
C1129 C1128 1.516 . S
C1129 C1130 1.502 . S
C1129 C1131 1.561 . S
C1129 C1132 1.526 . S
C1130 H1114 0.959 . S
C1130 H1115 0.959 . S
C1130 H1116 0.961 . S
C1130 C1129 1.502 . S
C1131 H1117 0.960 . S
C1131 H1118 0.961 . S
C1131 H1119 0.959 . S
C1131 C1129 1.561 . S
C1132 C1129 1.526 . S
C1132 C1133 1.396 . S
C1132 C1137 1.390 . S
C1133 C1127 1.465 . S
C1133 C1132 1.396 . S
C1133 C1134 1.399 . S
C1134 H1120 0.929 . S
C1134 C1133 1.399 . S
C1134 C1135 1.385 . S
C1135 H1121 0.931 . S
C1135 C1134 1.385 . S
C1135 C1136 1.389 . S
C1136 C1135 1.389 . S
C1136 C1137 1.387 . S
C1137 H1122 0.930 . S
C1137 C1132 1.390 . S
C1137 C1136 1.387 . S
H1138 C1150 0.930 . S
H1139 C1152 0.930 . S
H1140 C1153 0.930 . S
H1141 C1157 0.959 . S
H1142 C1157 0.959 . S
H1143 C1157 0.961 . S
H1144 C1158 0.960 . S
H1145 C1158 0.961 . S
H1146 C1158 0.959 . S
H1147 C1161 0.929 . S
H1148 C1162 0.931 . S
H1149 C1164 0.930 . S
C1150 H1138 0.930 . S
C1150 C1151 1.399 . S
C1150 C1155 1.399 . S
C1151 C1150 1.399 . S
C1151 C1152 1.376 . S
C1152 H1139 0.930 . S
C1152 C1151 1.376 . S
C1152 C1153 1.388 . S
C1153 H1140 0.930 . S
C1153 C1152 1.388 . S
C1153 C1154 1.390 . S
C1154 C1153 1.390 . S
C1154 C1155 1.394 . S
C1154 C1160 1.465 . S
C1155 C1150 1.399 . S
C1155 C1154 1.394 . S
C1155 C1156 1.516 . S
C1156 C1155 1.516 . S
C1156 C1157 1.502 . S
C1156 C1158 1.561 . S
C1156 C1159 1.526 . S
C1157 H1141 0.959 . S
C1157 H1142 0.959 . S
C1157 H1143 0.961 . S
C1157 C1156 1.502 . S
C1158 H1144 0.960 . S
C1158 H1145 0.961 . S
C1158 H1146 0.959 . S
C1158 C1156 1.561 . S
C1159 C1156 1.526 . S
C1159 C1160 1.396 . S
C1159 C1164 1.390 . S
C1160 C1154 1.465 . S
C1160 C1159 1.396 . S
C1160 C1161 1.399 . S
C1161 H1147 0.929 . S
C1161 C1160 1.399 . S
C1161 C1162 1.385 . S
C1162 H1148 0.931 . S
C1162 C1161 1.385 . S
C1162 C1163 1.389 . S
C1163 C1162 1.389 . S
C1163 C1164 1.387 . S
C1164 H1149 0.930 . S
C1164 C1159 1.390 . S
C1164 C1163 1.387 . S
H1165 C1177 0.930 . S
H1166 C1179 0.930 . S
H1167 C1180 0.930 . S
H1168 C1184 0.959 . S
H1169 C1184 0.959 . S
H1170 C1184 0.961 . S
H1171 C1185 0.960 . S
H1172 C1185 0.961 . S
H1173 C1185 0.959 . S
H1174 C1188 0.929 . S
H1175 C1189 0.931 . S
H1176 C1191 0.930 . S
C1177 H1165 0.930 . S
C1177 C1178 1.399 . S
C1177 C1182 1.399 . S
C1178 C1177 1.399 . S
C1178 C1179 1.376 . S
C1179 H1166 0.930 . S
C1179 C1178 1.376 . S
C1179 C1180 1.388 . S
C1180 H1167 0.930 . S
C1180 C1179 1.388 . S
C1180 C1181 1.390 . S
C1181 C1180 1.390 . S
C1181 C1182 1.394 . S
C1181 C1187 1.465 . S
C1182 C1177 1.399 . S
C1182 C1181 1.394 . S
C1182 C1183 1.516 . S
C1183 C1182 1.516 . S
C1183 C1184 1.502 . S
C1183 C1185 1.561 . S
C1183 C1186 1.526 . S
C1184 H1168 0.959 . S
C1184 H1169 0.959 . S
C1184 H1170 0.961 . S
C1184 C1183 1.502 . S
C1185 H1171 0.960 . S
C1185 H1172 0.961 . S
C1185 H1173 0.959 . S
C1185 C1183 1.561 . S
C1186 C1183 1.526 . S
C1186 C1187 1.396 . S
C1186 C1191 1.390 . S
C1187 C1181 1.465 . S
C1187 C1186 1.396 . S
C1187 C1188 1.399 . S
C1188 H1174 0.929 . S
C1188 C1187 1.399 . S
C1188 C1189 1.385 . S
C1189 H1175 0.931 . S
C1189 C1188 1.385 . S
C1189 C1190 1.389 . S
C1190 C1189 1.389 . S
C1190 C1191 1.387 . S
C1191 H1176 0.930 . S
C1191 C1186 1.390 . S
C1191 C1190 1.387 . S
H1192 C1204 0.930 . S
H1193 C1206 0.930 . S
H1194 C1207 0.930 . S
H1195 C1211 0.959 . S
H1196 C1211 0.959 1_455 S
H1197 C1211 0.961 . S
H1198 C1212 0.960 . S
H1199 C1212 0.961 . S
H1200 C1212 0.959 . S
H1201 C1215 0.929 1_565 S
H1202 C1216 0.931 . S
H1203 C1218 0.930 . S
C1204 H1192 0.930 . S
C1204 C1205 1.399 . S
C1204 C1209 1.399 . S
C1205 C1204 1.399 . S
C1205 C1206 1.376 1_545 S
C1206 H1193 0.930 . S
C1206 C1205 1.376 1_565 S
C1206 C1207 1.388 . S
C1207 H1194 0.930 . S
C1207 C1206 1.388 . S
C1207 C1208 1.390 1_565 S
C1208 C1207 1.390 1_545 S
C1208 C1209 1.394 . S
C1208 C1214 1.465 . S
C1209 C1204 1.399 . S
C1209 C1208 1.394 . S
C1209 C1210 1.516 . S
C1210 C1209 1.516 . S
C1210 C1211 1.502 . S
C1210 C1212 1.561 1_655 S
C1210 C1213 1.535 . S
C1211 H1195 0.959 . S
C1211 H1196 0.959 1_655 S
C1211 H1197 0.961 . S
C1211 C1210 1.502 . S
C1212 H1198 0.960 . S
C1212 H1199 0.961 . S
C1212 H1200 0.959 . S
C1212 C1210 1.561 1_455 S
C1213 C1210 1.535 . S
C1213 C1214 1.401 . S
C1213 C1218 1.377 1_655 S
C1214 C1208 1.465 . S
C1214 C1213 1.401 . S
C1214 C1215 1.399 . S
C1215 H1201 0.929 1_545 S
C1215 C1214 1.399 . S
C1215 C1216 1.385 1_655 S
C1216 H1202 0.931 . S
C1216 C1215 1.385 1_455 S
C1216 C1217 1.389 . S
C1217 C1216 1.389 . S
C1217 C1218 1.387 . S
C1218 H1203 0.930 . S
C1218 C1213 1.377 1_455 S
C1218 C1217 1.387 . S
H1219 C1231 0.930 . S
H1220 C1233 0.930 . S
H1221 C1234 0.930 . S
H1222 C1238 0.959 . S
H1223 C1238 0.959 . S
H1224 C1238 0.961 . S
H1225 C1239 0.960 . S
H1226 C1239 0.961 . S
H1227 C1239 0.959 . S
H1228 C1242 0.929 . S
H1229 C1243 0.931 . S
H1230 C1245 0.930 . S
C1231 H1219 0.930 . S
C1231 C1232 1.399 . S
C1231 C1236 1.399 . S
C1232 C1231 1.399 . S
C1232 C1233 1.376 . S
C1233 H1220 0.930 . S
C1233 C1232 1.376 . S
C1233 C1234 1.388 . S
C1234 H1221 0.930 . S
C1234 C1233 1.388 . S
C1234 C1235 1.390 . S
C1235 C1234 1.390 . S
C1235 C1236 1.394 . S
C1235 C1241 1.465 . S
C1236 C1231 1.399 . S
C1236 C1235 1.394 . S
C1236 C1237 1.516 . S
C1237 C1236 1.516 . S
C1237 C1238 1.502 . S
C1237 C1239 1.561 . S
C1237 C1240 1.526 . S
C1238 H1222 0.959 . S
C1238 H1223 0.959 . S
C1238 H1224 0.961 . S
C1238 C1237 1.502 . S
C1239 H1225 0.960 . S
C1239 H1226 0.961 . S
C1239 H1227 0.959 . S
C1239 C1237 1.561 . S
C1240 C1237 1.526 . S
C1240 C1241 1.396 . S
C1240 C1245 1.390 . S
C1241 C1235 1.465 . S
C1241 C1240 1.396 . S
C1241 C1242 1.399 . S
C1242 H1228 0.929 . S
C1242 C1241 1.399 . S
C1242 C1243 1.385 . S
C1243 H1229 0.931 . S
C1243 C1242 1.385 . S
C1243 C1244 1.389 . S
C1244 C1243 1.389 . S
C1244 C1245 1.387 . S
C1245 H1230 0.930 . S
C1245 C1240 1.390 . S
C1245 C1244 1.387 . S
H1246 C1258 0.930 . S
H1247 C1260 0.930 . S
H1248 C1261 0.930 1_565 S
H1249 C1265 0.959 . S
H1250 C1265 0.959 . S
H1251 C1265 0.961 . S
H1252 C1266 0.960 . S
H1253 C1266 0.961 . S
H1254 C1266 0.959 . S
H1255 C1269 0.933 1_565 S
H1256 C1270 0.931 1_565 S
H1257 C1272 0.930 . S
C1258 H1246 0.930 . S
C1258 C1259 1.399 . S
C1258 C1263 1.399 . S
C1259 C1258 1.399 . S
C1259 C1260 1.376 . S
C1260 H1247 0.930 . S
C1260 C1259 1.376 . S
C1260 C1261 1.388 . S
C1261 H1248 0.930 1_545 S
C1261 C1260 1.388 . S
C1261 C1262 1.390 . S
C1262 C1261 1.390 . S
C1262 C1263 1.394 . S
C1262 C1268 1.465 . S
C1263 C1258 1.399 . S
C1263 C1262 1.394 . S
C1263 C1264 1.516 . S
C1264 C1263 1.516 . S
C1264 C1265 1.502 . S
C1264 C1266 1.561 . S
C1264 C1267 1.526 . S
C1265 H1249 0.959 . S
C1265 H1250 0.959 . S
C1265 H1251 0.961 . S
C1265 C1264 1.502 . S
C1266 H1252 0.960 . S
C1266 H1253 0.961 . S
C1266 H1254 0.959 . S
C1266 C1264 1.561 . S
C1267 C1264 1.526 . S
C1267 C1268 1.396 . S
C1267 C1272 1.390 . S
C1268 C1262 1.465 . S
C1268 C1267 1.396 . S
C1268 C1269 1.397 . S
C1269 H1255 0.933 1_545 S
C1269 C1268 1.397 . S
C1269 C1270 1.384 . S
C1270 H1256 0.931 1_545 S
C1270 C1269 1.384 . S
C1270 C1271 1.389 . S
C1271 C1270 1.389 . S
C1271 C1272 1.387 . S
C1272 H1257 0.930 . S
C1272 C1267 1.390 . S
C1272 C1271 1.387 . S
H1273 C1285 0.930 . S
H1274 C1287 0.930 . S
H1275 C1288 0.930 . S
H1276 C1292 0.959 . S
H1277 C1292 0.959 . S
H1278 C1292 0.961 . S
H1279 C1293 0.960 . S
H1280 C1293 0.961 . S
H1281 C1293 0.959 . S
H1282 C1296 0.929 . S
H1283 C1297 0.931 . S
H1284 C1299 0.930 . S
C1285 H1273 0.930 . S
C1285 C1286 1.399 . S
C1285 C1290 1.399 . S
C1286 C1285 1.399 . S
C1286 C1287 1.376 . S
C1287 H1274 0.930 . S
C1287 C1286 1.376 . S
C1287 C1288 1.388 . S
C1288 H1275 0.930 . S
C1288 C1287 1.388 . S
C1288 C1289 1.390 . S
C1289 C1288 1.390 . S
C1289 C1290 1.394 . S
C1289 C1295 1.465 . S
C1290 C1285 1.399 . S
C1290 C1289 1.394 . S
C1290 C1291 1.516 . S
C1291 C1290 1.516 . S
C1291 C1292 1.502 . S
C1291 C1293 1.561 . S
C1291 C1294 1.526 . S
C1292 H1276 0.959 . S
C1292 H1277 0.959 . S
C1292 H1278 0.961 . S
C1292 C1291 1.502 . S
C1293 H1279 0.960 . S
C1293 H1280 0.961 . S
C1293 H1281 0.959 . S
C1293 C1291 1.561 . S
C1294 C1291 1.526 . S
C1294 C1295 1.396 . S
C1294 C1299 1.390 . S
C1295 C1289 1.465 . S
C1295 C1294 1.396 . S
C1295 C1296 1.399 . S
C1296 H1282 0.929 . S
C1296 C1295 1.399 . S
C1296 C1297 1.385 . S
C1297 H1283 0.931 . S
C1297 C1296 1.385 . S
C1297 C1298 1.389 . S
C1298 C1297 1.389 . S
C1298 C1299 1.387 . S
C1299 H1284 0.930 . S
C1299 C1294 1.390 . S
C1299 C1298 1.387 . S
H1300 C1312 0.930 . S
H1301 C1314 0.930 . S
H1302 C1315 0.930 . S
H1303 C1319 0.959 . S
H1304 C1319 0.959 . S
H1305 C1319 0.961 . S
H1306 C1320 0.960 . S
H1307 C1320 0.961 . S
H1308 C1320 0.959 . S
H1309 C1323 0.929 . S
H1310 C1324 0.931 . S
H1311 C1326 0.930 . S
C1312 H1300 0.930 . S
C1312 C1313 1.399 1_565 S
C1312 C1317 1.399 . S
C1313 C1312 1.399 1_545 S
C1313 C1314 1.376 . S
C1314 H1301 0.930 . S
C1314 C1313 1.376 . S
C1314 C1315 1.388 . S
C1315 H1302 0.930 . S
C1315 C1314 1.388 . S
C1315 C1316 1.390 . S
C1316 C1315 1.390 . S
C1316 C1317 1.394 1_545 S
C1316 C1322 1.465 . S
C1317 C1312 1.399 . S
C1317 C1316 1.394 1_565 S
C1317 C1318 1.516 . S
C1318 C1317 1.516 . S
C1318 C1319 1.502 . S
C1318 C1320 1.561 . S
C1318 C1321 1.536 . S
C1319 H1303 0.959 . S
C1319 H1304 0.959 . S
C1319 H1305 0.961 . S
C1319 C1318 1.502 . S
C1320 H1306 0.960 . S
C1320 H1307 0.961 . S
C1320 H1308 0.959 . S
C1320 C1318 1.561 . S
C1321 C1318 1.536 . S
C1321 C1322 1.373 1_565 S
C1321 C1326 1.401 . S
C1322 C1316 1.465 . S
C1322 C1321 1.373 1_545 S
C1322 C1323 1.399 1_655 S
C1323 H1309 0.929 . S
C1323 C1322 1.399 1_455 S
C1323 C1324 1.385 . S
C1324 H1310 0.931 . S
C1324 C1323 1.385 . S
C1324 C1325 1.389 . S
C1325 C1324 1.389 . S
C1325 C1326 1.387 1_445 S
C1326 H1311 0.930 . S
C1326 C1321 1.401 . S
C1326 C1325 1.387 1_665 S
H1327 C1339 0.930 . S
H1328 C1341 0.930 . S
H1329 C1342 0.930 . S
H1330 C1346 0.959 . S
H1331 C1346 0.959 . S
H1332 C1346 0.961 . S
H1333 C1347 0.960 . S
H1334 C1347 0.961 . S
H1335 C1347 0.959 . S
H1336 C1350 0.929 . S
H1337 C1351 0.931 . S
H1338 C1353 0.930 . S
C1339 H1327 0.930 . S
C1339 C1340 1.399 . S
C1339 C1344 1.399 . S
C1340 C1339 1.399 . S
C1340 C1341 1.376 . S
C1341 H1328 0.930 . S
C1341 C1340 1.376 . S
C1341 C1342 1.388 . S
C1342 H1329 0.930 . S
C1342 C1341 1.388 . S
C1342 C1343 1.390 . S
C1343 C1342 1.390 . S
C1343 C1344 1.394 . S
C1343 C1349 1.465 . S
C1344 C1339 1.399 . S
C1344 C1343 1.394 . S
C1344 C1345 1.516 . S
C1345 C1344 1.516 . S
C1345 C1346 1.502 . S
C1345 C1347 1.561 . S
C1345 C1348 1.526 . S
C1346 H1330 0.959 . S
C1346 H1331 0.959 . S
C1346 H1332 0.961 . S
C1346 C1345 1.502 . S
C1347 H1333 0.960 . S
C1347 H1334 0.961 . S
C1347 H1335 0.959 . S
C1347 C1345 1.561 . S
C1348 C1345 1.526 . S
C1348 C1349 1.396 . S
C1348 C1353 1.390 . S
C1349 C1343 1.465 . S
C1349 C1348 1.396 . S
C1349 C1350 1.399 . S
C1350 H1336 0.929 . S
C1350 C1349 1.399 . S
C1350 C1351 1.385 . S
C1351 H1337 0.931 . S
C1351 C1350 1.385 . S
C1351 C1352 1.389 . S
C1352 C1351 1.389 . S
C1352 C1353 1.387 . S
C1353 H1338 0.930 . S
C1353 C1348 1.390 . S
C1353 C1352 1.387 . S
H1354 C1366 0.930 . S
H1355 C1368 0.930 . S
H1356 C1369 0.930 . S
H1357 C1373 0.959 . S
H1358 C1373 0.959 . S
H1359 C1373 0.961 . S
H1360 C1374 0.960 1_565 S
H1361 C1374 0.961 1_565 S
H1362 C1374 0.959 . S
H1363 C1377 0.929 . S
H1364 C1378 0.931 . S
H1365 C1380 0.930 . S
C1366 H1354 0.930 . S
C1366 C1367 1.399 . S
C1366 C1371 1.399 . S
C1367 C1366 1.399 . S
C1367 C1368 1.376 . S
C1368 H1355 0.930 . S
C1368 C1367 1.376 . S
C1368 C1369 1.388 . S
C1369 H1356 0.930 . S
C1369 C1368 1.388 . S
C1369 C1370 1.390 . S
C1370 C1369 1.390 . S
C1370 C1371 1.394 . S
C1370 C1376 1.465 . S
C1371 C1366 1.399 . S
C1371 C1370 1.394 . S
C1371 C1372 1.516 . S
C1372 C1371 1.516 . S
C1372 C1373 1.502 1_545 S
C1372 C1374 1.561 . S
C1372 C1375 1.526 . S
C1373 H1357 0.959 . S
C1373 H1358 0.959 . S
C1373 H1359 0.961 . S
C1373 C1372 1.502 1_565 S
C1374 H1360 0.960 1_545 S
C1374 H1361 0.961 1_545 S
C1374 H1362 0.959 . S
C1374 C1372 1.561 . S
C1375 C1372 1.526 . S
C1375 C1376 1.396 . S
C1375 C1380 1.390 . S
C1376 C1370 1.465 . S
C1376 C1375 1.396 . S
C1376 C1377 1.399 . S
C1377 H1363 0.929 . S
C1377 C1376 1.399 . S
C1377 C1378 1.385 . S
C1378 H1364 0.931 . S
C1378 C1377 1.385 . S
C1378 C1379 1.389 . S
C1379 C1378 1.389 . S
C1379 C1380 1.387 . S
C1380 H1365 0.930 . S
C1380 C1375 1.390 . S
C1380 C1379 1.387 . S
H1381 C1393 0.930 . S
H1382 C1395 0.930 . S
H1383 C1396 0.930 . S
H1384 C1400 0.959 . S
H1385 C1400 0.959 . S
H1386 C1400 0.961 . S
H1387 C1401 0.960 . S
H1388 C1401 0.961 . S
H1389 C1401 0.959 . S
H1390 C1404 0.929 . S
H1391 C1405 0.931 . S
H1392 C1407 0.930 . S
C1393 H1381 0.930 . S
C1393 C1394 1.399 . S
C1393 C1398 1.399 . S
C1394 C1393 1.399 . S
C1394 C1395 1.376 . S
C1395 H1382 0.930 . S
C1395 C1394 1.376 . S
C1395 C1396 1.388 . S
C1396 H1383 0.930 . S
C1396 C1395 1.388 . S
C1396 C1397 1.390 . S
C1397 C1396 1.390 . S
C1397 C1398 1.394 . S
C1397 C1403 1.465 . S
C1398 C1393 1.399 . S
C1398 C1397 1.394 . S
C1398 C1399 1.516 . S
C1399 C1398 1.516 . S
C1399 C1400 1.502 . S
C1399 C1401 1.561 . S
C1399 C1402 1.526 . S
C1400 H1384 0.959 . S
C1400 H1385 0.959 . S
C1400 H1386 0.961 . S
C1400 C1399 1.502 . S
C1401 H1387 0.960 . S
C1401 H1388 0.961 . S
C1401 H1389 0.959 . S
C1401 C1399 1.561 . S
C1402 C1399 1.526 . S
C1402 C1403 1.396 . S
C1402 C1407 1.390 . S
C1403 C1397 1.465 . S
C1403 C1402 1.396 . S
C1403 C1404 1.399 . S
C1404 H1390 0.929 . S
C1404 C1403 1.399 . S
C1404 C1405 1.385 . S
C1405 H1391 0.931 . S
C1405 C1404 1.385 . S
C1405 C1406 1.389 . S
C1406 C1405 1.389 . S
C1406 C1407 1.387 . S
C1407 H1392 0.930 . S
C1407 C1402 1.390 . S
C1407 C1406 1.387 . S
H1408 C1420 0.930 . S
H1409 C1422 0.899 1_556 S
H1410 C1423 0.930 . S
H1411 C1427 0.959 . S
H1412 C1427 0.959 . S
H1413 C1427 0.961 . S
H1414 C1428 0.960 . S
H1415 C1428 0.961 . S
H1416 C1428 0.959 . S
H1417 C1431 0.929 . S
H1418 C1432 0.931 . S
H1419 C1434 0.930 1_565 S
C1420 H1408 0.930 . S
C1420 C1421 1.399 . S
C1420 C1425 1.399 . S
C1421 C1420 1.399 . S
C1421 C1422 1.376 . S
C1422 H1409 0.899 1_554 S
C1422 C1421 1.376 . S
C1422 C1423 1.388 1_565 S
C1423 H1410 0.930 . S
C1423 C1422 1.388 1_545 S
C1423 C1424 1.387 1_545 S
C1424 C1423 1.387 1_565 S
C1424 C1425 1.421 . S
C1424 C1430 1.445 1_565 S
C1425 C1420 1.399 . S
C1425 C1424 1.421 . S
C1425 C1426 1.516 . S
C1426 C1425 1.516 . S
C1426 C1427 1.502 . S
C1426 C1428 1.561 . S
C1426 C1429 1.526 . S
C1427 H1411 0.959 . S
C1427 H1412 0.959 . S
C1427 H1413 0.961 . S
C1427 C1426 1.502 . S
C1428 H1414 0.960 . S
C1428 H1415 0.961 . S
C1428 H1416 0.959 . S
C1428 C1426 1.561 . S
C1429 C1426 1.526 . S
C1429 C1430 1.396 1_565 S
C1429 C1434 1.390 1_565 S
C1430 C1424 1.445 1_545 S
C1430 C1429 1.396 1_545 S
C1430 C1431 1.399 . S
C1431 H1417 0.929 . S
C1431 C1430 1.399 . S
C1431 C1432 1.385 . S
C1432 H1418 0.931 . S
C1432 C1431 1.385 . S
C1432 C1433 1.389 . S
C1433 C1432 1.389 . S
C1433 C1434 1.387 . S
C1434 H1419 0.930 1_545 S
C1434 C1429 1.390 1_545 S
C1434 C1433 1.387 . S
H1435 C1447 0.930 . S
H1436 C1449 0.930 . S
H1437 C1450 0.930 1_556 S
H1438 C1454 0.959 . S
H1439 C1454 0.959 . S
H1440 C1454 0.961 . S
H1441 C1455 0.960 . S
H1442 C1455 0.961 . S
H1443 C1455 0.959 . S
H1444 C1458 0.882 1_556 S
H1445 C1459 0.931 . S
H1446 C1461 0.930 . S
C1447 H1435 0.930 . S
C1447 C1448 1.399 . S
C1447 C1452 1.399 . S
C1448 C1447 1.399 . S
C1448 C1449 1.376 . S
C1449 H1436 0.930 . S
C1449 C1448 1.376 . S
C1449 C1450 1.388 . S
C1450 H1437 0.930 1_554 S
C1450 C1449 1.388 . S
C1450 C1451 1.390 . S
C1451 C1450 1.390 . S
C1451 C1452 1.394 . S
C1451 C1457 1.465 . S
C1452 C1447 1.399 . S
C1452 C1451 1.394 . S
C1452 C1453 1.516 . S
C1453 C1452 1.516 . S
C1453 C1454 1.502 . S
C1453 C1455 1.561 . S
C1453 C1456 1.526 . S
C1454 H1438 0.959 . S
C1454 H1439 0.959 . S
C1454 H1440 0.961 . S
C1454 C1453 1.502 . S
C1455 H1441 0.960 . S
C1455 H1442 0.961 . S
C1455 H1443 0.959 . S
C1455 C1453 1.561 . S
C1456 C1453 1.526 . S
C1456 C1457 1.396 . S
C1456 C1461 1.390 . S
C1457 C1451 1.465 . S
C1457 C1456 1.396 . S
C1457 C1458 1.399 . S
C1458 H1444 0.882 1_554 S
C1458 C1457 1.399 . S
C1458 C1459 1.385 . S
C1459 H1445 0.931 . S
C1459 C1458 1.385 . S
C1459 C1460 1.389 . S
C1460 C1459 1.389 . S
C1460 C1461 1.387 . S
C1461 H1446 0.930 . S
C1461 C1456 1.390 . S
C1461 C1460 1.387 . S
H1462 C1474 0.930 . S
H1463 C1476 0.930 . S
H1464 C1477 0.930 . S
H1465 C1481 0.959 . S
H1466 C1481 0.959 . S
H1467 C1481 0.961 . S
H1468 C1482 0.960 . S
H1469 C1482 0.961 . S
H1470 C1482 0.959 . S
H1471 C1485 0.929 . S
H1472 C1486 0.931 . S
H1473 C1488 0.930 . S
C1474 H1462 0.930 . S
C1474 C1475 1.399 . S
C1474 C1479 1.399 . S
C1475 C1474 1.399 . S
C1475 C1476 1.376 . S
C1476 H1463 0.930 . S
C1476 C1475 1.376 . S
C1476 C1477 1.388 . S
C1477 H1464 0.930 . S
C1477 C1476 1.388 . S
C1477 C1478 1.390 . S
C1478 C1477 1.390 . S
C1478 C1479 1.394 . S
C1478 C1484 1.465 . S
C1479 C1474 1.399 . S
C1479 C1478 1.394 . S
C1479 C1480 1.516 . S
C1480 C1479 1.516 . S
C1480 C1481 1.502 . S
C1480 C1482 1.561 . S
C1480 C1483 1.526 . S
C1481 H1465 0.959 . S
C1481 H1466 0.959 . S
C1481 H1467 0.961 . S
C1481 C1480 1.502 . S
C1482 H1468 0.960 . S
C1482 H1469 0.961 . S
C1482 H1470 0.959 . S
C1482 C1480 1.561 . S
C1483 C1480 1.526 . S
C1483 C1484 1.396 . S
C1483 C1488 1.390 . S
C1484 C1478 1.465 . S
C1484 C1483 1.396 . S
C1484 C1485 1.399 . S
C1485 H1471 0.929 . S
C1485 C1484 1.399 . S
C1485 C1486 1.385 . S
C1486 H1472 0.931 . S
C1486 C1485 1.385 . S
C1486 C1487 1.389 . S
C1487 C1486 1.389 . S
C1487 C1488 1.387 . S
C1488 H1473 0.930 . S
C1488 C1483 1.390 . S
C1488 C1487 1.387 . S
H1489 C1501 0.930 . S
H1490 C1503 0.930 . S
H1491 C1504 0.930 . S
H1492 C1508 0.959 . S
H1493 C1508 0.959 . S
H1494 C1508 0.961 . S
H1495 C1509 0.960 . S
H1496 C1509 0.961 . S
H1497 C1509 0.959 . S
H1498 C1512 0.929 . S
H1499 C1513 0.931 . S
H1500 C1515 0.930 . S
C1501 H1489 0.930 . S
C1501 C1502 1.399 . S
C1501 C1506 1.399 . S
C1502 C1501 1.399 . S
C1502 C1503 1.376 . S
C1503 H1490 0.930 . S
C1503 C1502 1.376 . S
C1503 C1504 1.388 . S
C1504 H1491 0.930 . S
C1504 C1503 1.388 . S
C1504 C1505 1.390 . S
C1505 C1504 1.390 . S
C1505 C1506 1.394 . S
C1505 C1511 1.465 . S
C1506 C1501 1.399 . S
C1506 C1505 1.394 . S
C1506 C1507 1.516 . S
C1507 C1506 1.516 . S
C1507 C1508 1.502 . S
C1507 C1509 1.561 . S
C1507 C1510 1.526 . S
C1508 H1492 0.959 . S
C1508 H1493 0.959 . S
C1508 H1494 0.961 . S
C1508 C1507 1.502 . S
C1509 H1495 0.960 . S
C1509 H1496 0.961 . S
C1509 H1497 0.959 . S
C1509 C1507 1.561 . S
C1510 C1507 1.526 . S
C1510 C1511 1.396 . S
C1510 C1515 1.390 . S
C1511 C1505 1.465 . S
C1511 C1510 1.396 . S
C1511 C1512 1.399 . S
C1512 H1498 0.929 . S
C1512 C1511 1.399 . S
C1512 C1513 1.385 . S
C1513 H1499 0.931 . S
C1513 C1512 1.385 . S
C1513 C1514 1.389 . S
C1514 C1513 1.389 . S
C1514 C1515 1.387 . S
C1515 H1500 0.930 . S
C1515 C1510 1.390 . S
C1515 C1514 1.387 . S
H1516 C1528 0.930 . S
H1517 C1530 0.930 . S
H1518 C1531 0.930 . S
H1519 C1535 0.959 . S
H1520 C1535 0.959 . S
H1521 C1535 0.961 . S
H1522 C1536 0.960 . S
H1523 C1536 0.961 . S
H1524 C1536 0.959 . S
H1525 C1539 0.929 . S
H1526 C1540 0.931 . S
H1527 C1542 0.930 . S
C1528 H1516 0.930 . S
C1528 C1529 1.399 . S
C1528 C1533 1.399 . S
C1529 C1528 1.399 . S
C1529 C1530 1.376 . S
C1530 H1517 0.930 . S
C1530 C1529 1.376 . S
C1530 C1531 1.388 . S
C1531 H1518 0.930 . S
C1531 C1530 1.388 . S
C1531 C1532 1.390 . S
C1532 C1531 1.390 . S
C1532 C1533 1.394 . S
C1532 C1538 1.465 . S
C1533 C1528 1.399 . S
C1533 C1532 1.394 . S
C1533 C1534 1.516 . S
C1534 C1533 1.516 . S
C1534 C1535 1.502 . S
C1534 C1536 1.561 . S
C1534 C1537 1.526 . S
C1535 H1519 0.959 . S
C1535 H1520 0.959 . S
C1535 H1521 0.961 . S
C1535 C1534 1.502 . S
C1536 H1522 0.960 . S
C1536 H1523 0.961 . S
C1536 H1524 0.959 . S
C1536 C1534 1.561 . S
C1537 C1534 1.526 . S
C1537 C1538 1.396 . S
C1537 C1542 1.390 . S
C1538 C1532 1.465 . S
C1538 C1537 1.396 . S
C1538 C1539 1.399 . S
C1539 H1525 0.929 . S
C1539 C1538 1.399 . S
C1539 C1540 1.385 . S
C1540 H1526 0.931 . S
C1540 C1539 1.385 . S
C1540 C1541 1.389 . S
C1541 C1540 1.389 . S
C1541 C1542 1.387 . S
C1542 H1527 0.930 . S
C1542 C1537 1.390 . S
C1542 C1541 1.387 . S
H1543 C1555 0.930 . S
H1544 C1557 0.930 . S
H1545 C1558 0.930 . S
H1546 C1562 0.959 . S
H1547 C1562 0.959 . S
H1548 C1562 0.961 . S
H1549 C1563 0.960 . S
H1550 C1563 0.961 . S
H1551 C1563 0.959 . S
H1552 C1566 0.929 . S
H1553 C1567 0.931 . S
H1554 C1569 0.930 . S
C1555 H1543 0.930 . S
C1555 C1556 1.399 . S
C1555 C1560 1.399 . S
C1556 C1555 1.399 . S
C1556 C1557 1.376 . S
C1557 H1544 0.930 . S
C1557 C1556 1.376 . S
C1557 C1558 1.388 . S
C1558 H1545 0.930 . S
C1558 C1557 1.388 . S
C1558 C1559 1.390 . S
C1559 C1558 1.390 . S
C1559 C1560 1.394 . S
C1559 C1565 1.465 . S
C1560 C1555 1.399 . S
C1560 C1559 1.394 . S
C1560 C1561 1.516 . S
C1561 C1560 1.516 . S
C1561 C1562 1.502 . S
C1561 C1563 1.561 . S
C1561 C1564 1.526 . S
C1562 H1546 0.959 . S
C1562 H1547 0.959 . S
C1562 H1548 0.961 . S
C1562 C1561 1.502 . S
C1563 H1549 0.960 . S
C1563 H1550 0.961 . S
C1563 H1551 0.959 . S
C1563 C1561 1.561 . S
C1564 C1561 1.526 . S
C1564 C1565 1.396 . S
C1564 C1569 1.390 . S
C1565 C1559 1.465 . S
C1565 C1564 1.396 . S
C1565 C1566 1.399 . S
C1566 H1552 0.929 . S
C1566 C1565 1.399 . S
C1566 C1567 1.385 . S
C1567 H1553 0.931 . S
C1567 C1566 1.385 . S
C1567 C1568 1.389 . S
C1568 C1567 1.389 . S
C1568 C1569 1.387 . S
C1569 H1554 0.930 . S
C1569 C1564 1.390 . S
C1569 C1568 1.387 . S
H1570 C1582 0.930 . S
H1571 C1584 0.930 . S
H1572 C1585 0.930 . S
H1573 C1589 0.959 . S
H1574 C1589 0.959 . S
H1575 C1589 0.961 . S
H1576 C1590 0.960 . S
H1577 C1590 0.961 . S
H1578 C1590 0.959 . S
H1579 C1593 0.929 . S
H1580 C1594 0.931 . S
H1581 C1596 0.930 . S
C1582 H1570 0.930 . S
C1582 C1583 1.399 . S
C1582 C1587 1.399 . S
C1583 C1582 1.399 . S
C1583 C1584 1.376 . S
C1584 H1571 0.930 . S
C1584 C1583 1.376 . S
C1584 C1585 1.388 . S
C1585 H1572 0.930 . S
C1585 C1584 1.388 . S
C1585 C1586 1.390 . S
C1586 C1585 1.390 . S
C1586 C1587 1.394 . S
C1586 C1592 1.465 . S
C1587 C1582 1.399 . S
C1587 C1586 1.394 . S
C1587 C1588 1.516 . S
C1588 C1587 1.516 . S
C1588 C1589 1.502 . S
C1588 C1590 1.561 . S
C1588 C1591 1.526 . S
C1589 H1573 0.959 . S
C1589 H1574 0.959 . S
C1589 H1575 0.961 . S
C1589 C1588 1.502 . S
C1590 H1576 0.960 . S
C1590 H1577 0.961 . S
C1590 H1578 0.959 . S
C1590 C1588 1.561 . S
C1591 C1588 1.526 . S
C1591 C1592 1.396 . S
C1591 C1596 1.390 . S
C1592 C1586 1.465 . S
C1592 C1591 1.396 . S
C1592 C1593 1.399 . S
C1593 H1579 0.929 . S
C1593 C1592 1.399 . S
C1593 C1594 1.385 . S
C1594 H1580 0.931 . S
C1594 C1593 1.385 . S
C1594 C1595 1.389 . S
C1595 C1594 1.389 . S
C1595 C1596 1.387 . S
C1596 H1581 0.930 . S
C1596 C1591 1.390 . S
C1596 C1595 1.387 . S
H1597 C1609 0.930 . S
H1598 C1611 0.930 . S
H1599 C1612 0.930 . S
H1600 C1616 0.959 . S
H1601 C1616 0.959 . S
H1602 C1616 0.961 . S
H1603 C1617 0.960 . S
H1604 C1617 0.961 . S
H1605 C1617 0.959 . S
H1606 C1620 0.929 . S
H1607 C1621 0.931 . S
H1608 C1623 0.930 . S
C1609 H1597 0.930 . S
C1609 C1610 1.399 . S
C1609 C1614 1.399 . S
C1610 C1609 1.399 . S
C1610 C1611 1.376 . S
C1611 H1598 0.930 . S
C1611 C1610 1.376 . S
C1611 C1612 1.388 . S
C1612 H1599 0.930 . S
C1612 C1611 1.388 . S
C1612 C1613 1.390 . S
C1613 C1612 1.390 . S
C1613 C1614 1.394 . S
C1613 C1619 1.465 . S
C1614 C1609 1.399 . S
C1614 C1613 1.394 . S
C1614 C1615 1.516 . S
C1615 C1614 1.516 . S
C1615 C1616 1.502 . S
C1615 C1617 1.561 . S
C1615 C1618 1.526 . S
C1616 H1600 0.959 . S
C1616 H1601 0.959 . S
C1616 H1602 0.961 . S
C1616 C1615 1.502 . S
C1617 H1603 0.960 . S
C1617 H1604 0.961 . S
C1617 H1605 0.959 . S
C1617 C1615 1.561 . S
C1618 C1615 1.526 . S
C1618 C1619 1.396 . S
C1618 C1623 1.390 . S
C1619 C1613 1.465 . S
C1619 C1618 1.396 . S
C1619 C1620 1.399 . S
C1620 H1606 0.929 . S
C1620 C1619 1.399 . S
C1620 C1621 1.385 . S
C1621 H1607 0.931 . S
C1621 C1620 1.385 . S
C1621 C1622 1.389 . S
C1622 C1621 1.389 . S
C1622 C1623 1.387 . S
C1623 H1608 0.930 . S
C1623 C1618 1.390 . S
C1623 C1622 1.387 . S
H1624 C1636 0.930 . S
H1625 C1638 0.930 . S
H1626 C1639 0.930 . S
H1627 C1643 0.959 . S
H1628 C1643 0.959 . S
H1629 C1643 0.961 . S
H1630 C1644 0.960 . S
H1631 C1644 0.961 . S
H1632 C1644 0.959 . S
H1633 C1647 0.929 . S
H1634 C1648 0.931 . S
H1635 C1650 0.930 . S
C1636 H1624 0.930 . S
C1636 C1637 1.399 . S
C1636 C1641 1.399 . S
C1637 C1636 1.399 . S
C1637 C1638 1.376 . S
C1638 H1625 0.930 . S
C1638 C1637 1.376 . S
C1638 C1639 1.388 . S
C1639 H1626 0.930 . S
C1639 C1638 1.388 . S
C1639 C1640 1.390 . S
C1640 C1639 1.390 . S
C1640 C1641 1.394 . S
C1640 C1646 1.465 . S
C1641 C1636 1.399 . S
C1641 C1640 1.394 . S
C1641 C1642 1.516 . S
C1642 C1641 1.516 . S
C1642 C1643 1.502 . S
C1642 C1644 1.561 . S
C1642 C1645 1.526 . S
C1643 H1627 0.959 . S
C1643 H1628 0.959 . S
C1643 H1629 0.961 . S
C1643 C1642 1.502 . S
C1644 H1630 0.960 . S
C1644 H1631 0.961 . S
C1644 H1632 0.959 . S
C1644 C1642 1.561 . S
C1645 C1642 1.526 . S
C1645 C1646 1.396 . S
C1645 C1650 1.390 . S
C1646 C1640 1.465 . S
C1646 C1645 1.396 . S
C1646 C1647 1.399 . S
C1647 H1633 0.929 . S
C1647 C1646 1.399 . S
C1647 C1648 1.385 . S
C1648 H1634 0.931 . S
C1648 C1647 1.385 . S
C1648 C1649 1.389 . S
C1649 C1648 1.389 . S
C1649 C1650 1.387 . S
C1650 H1635 0.930 . S
C1650 C1645 1.390 . S
C1650 C1649 1.387 . S
H1651 C1663 0.930 . S
H1652 C1665 0.930 . S
H1653 C1666 0.930 . S
H1654 C1670 0.959 . S
H1655 C1670 0.959 . S
H1656 C1670 0.961 . S
H1657 C1671 0.960 . S
H1658 C1671 0.961 . S
H1659 C1671 0.959 . S
H1660 C1674 0.929 . S
H1661 C1675 0.931 . S
H1662 C1677 0.930 . S
C1663 H1651 0.930 . S
C1663 C1664 1.399 . S
C1663 C1668 1.399 . S
C1664 C1663 1.399 . S
C1664 C1665 1.376 . S
C1665 H1652 0.930 . S
C1665 C1664 1.376 . S
C1665 C1666 1.388 . S
C1666 H1653 0.930 . S
C1666 C1665 1.388 . S
C1666 C1667 1.390 . S
C1667 C1666 1.390 . S
C1667 C1668 1.394 . S
C1667 C1673 1.465 . S
C1668 C1663 1.399 . S
C1668 C1667 1.394 . S
C1668 C1669 1.516 . S
C1669 C1668 1.516 . S
C1669 C1670 1.502 . S
C1669 C1671 1.561 . S
C1669 C1672 1.526 . S
C1670 H1654 0.959 . S
C1670 H1655 0.959 . S
C1670 H1656 0.961 . S
C1670 C1669 1.502 . S
C1671 H1657 0.960 . S
C1671 H1658 0.961 . S
C1671 H1659 0.959 . S
C1671 C1669 1.561 . S
C1672 C1669 1.526 . S
C1672 C1673 1.396 . S
C1672 C1677 1.390 . S
C1673 C1667 1.465 . S
C1673 C1672 1.396 . S
C1673 C1674 1.399 . S
C1674 H1660 0.929 . S
C1674 C1673 1.399 . S
C1674 C1675 1.385 . S
C1675 H1661 0.931 . S
C1675 C1674 1.385 . S
C1675 C1676 1.389 . S
C1676 C1675 1.389 . S
C1676 C1677 1.387 . S
C1677 H1662 0.930 . S
C1677 C1672 1.390 . S
C1677 C1676 1.387 . S
H1678 C1690 0.930 . S
H1679 C1692 0.930 . S
H1680 C1693 0.930 . S
H1681 C1697 0.959 . S
H1682 C1697 0.959 . S
H1683 C1697 0.961 . S
H1684 C1698 0.960 . S
H1685 C1698 0.961 . S
H1686 C1698 0.959 . S
H1687 C1701 0.929 . S
H1688 C1702 0.931 . S
H1689 C1704 0.930 . S
C1690 H1678 0.930 . S
C1690 C1691 1.399 . S
C1690 C1695 1.399 . S
C1691 C1690 1.399 . S
C1691 C1692 1.376 . S
C1692 H1679 0.930 . S
C1692 C1691 1.376 . S
C1692 C1693 1.388 . S
C1693 H1680 0.930 . S
C1693 C1692 1.388 . S
C1693 C1694 1.390 . S
C1694 C1693 1.390 . S
C1694 C1695 1.394 . S
C1694 C1700 1.465 . S
C1695 C1690 1.399 . S
C1695 C1694 1.394 . S
C1695 C1696 1.516 . S
C1696 C1695 1.516 . S
C1696 C1697 1.502 . S
C1696 C1698 1.561 . S
C1696 C1699 1.526 . S
C1697 H1681 0.959 . S
C1697 H1682 0.959 . S
C1697 H1683 0.961 . S
C1697 C1696 1.502 . S
C1698 H1684 0.960 . S
C1698 H1685 0.961 . S
C1698 H1686 0.959 . S
C1698 C1696 1.561 . S
C1699 C1696 1.526 . S
C1699 C1700 1.396 . S
C1699 C1704 1.390 . S
C1700 C1694 1.465 . S
C1700 C1699 1.396 . S
C1700 C1701 1.399 . S
C1701 H1687 0.929 . S
C1701 C1700 1.399 . S
C1701 C1702 1.385 . S
C1702 H1688 0.931 . S
C1702 C1701 1.385 . S
C1702 C1703 1.389 . S
C1703 C1702 1.389 . S
C1703 C1704 1.387 . S
C1704 H1689 0.930 . S
C1704 C1699 1.390 . S
C1704 C1703 1.387 . S
H1705 C1717 0.930 . S
H1706 C1719 0.930 . S
H1707 C1720 0.930 . S
H1708 C1724 0.959 . S
H1709 C1724 0.959 . S
H1710 C1724 0.961 . S
H1711 C1725 0.960 . S
H1712 C1725 0.961 . S
H1713 C1725 0.959 . S
H1714 C1728 0.929 . S
H1715 C1729 0.931 . S
H1716 C1731 0.930 . S
C1717 H1705 0.930 . S
C1717 C1718 1.399 . S
C1717 C1722 1.399 . S
C1718 C1717 1.399 . S
C1718 C1719 1.376 . S
C1719 H1706 0.930 . S
C1719 C1718 1.376 . S
C1719 C1720 1.388 . S
C1720 H1707 0.930 . S
C1720 C1719 1.388 . S
C1720 C1721 1.390 . S
C1721 C1720 1.390 . S
C1721 C1722 1.394 . S
C1721 C1727 1.465 . S
C1722 C1717 1.399 . S
C1722 C1721 1.394 . S
C1722 C1723 1.516 . S
C1723 C1722 1.516 . S
C1723 C1724 1.502 . S
C1723 C1725 1.561 . S
C1723 C1726 1.526 . S
C1724 H1708 0.959 . S
C1724 H1709 0.959 . S
C1724 H1710 0.961 . S
C1724 C1723 1.502 . S
C1725 H1711 0.960 . S
C1725 H1712 0.961 . S
C1725 H1713 0.959 . S
C1725 C1723 1.561 . S
C1726 C1723 1.526 . S
C1726 C1727 1.396 . S
C1726 C1731 1.390 . S
C1727 C1721 1.465 . S
C1727 C1726 1.396 . S
C1727 C1728 1.399 . S
C1728 H1714 0.929 . S
C1728 C1727 1.399 . S
C1728 C1729 1.385 . S
C1729 H1715 0.931 . S
C1729 C1728 1.385 . S
C1729 C1730 1.389 . S
C1730 C1729 1.389 . S
C1730 C1731 1.387 . S
C1731 H1716 0.930 . S
C1731 C1726 1.390 . S
C1731 C1730 1.387 . S
H1732 C1744 0.930 1_655 S
H1733 C1746 0.930 . S
H1734 C1747 0.930 . S
H1735 C1751 0.959 . S
H1736 C1751 0.959 . S
H1737 C1751 0.961 . S
H1738 C1752 0.960 1_655 S
H1739 C1752 0.961 1_655 S
H1740 C1752 0.959 . S
H1741 C1755 0.929 . S
H1742 C1756 0.931 . S
H1743 C1758 0.930 . S
C1744 H1732 0.930 1_455 S
C1744 C1745 1.399 . S
C1744 C1749 1.399 . S
C1745 C1744 1.399 . S
C1745 C1746 1.376 . S
C1746 H1733 0.930 . S
C1746 C1745 1.376 . S
C1746 C1747 1.388 . S
C1747 H1734 0.930 . S
C1747 C1746 1.388 . S
C1747 C1748 1.390 . S
C1748 C1747 1.390 . S
C1748 C1749 1.394 . S
C1748 C1754 1.465 . S
C1749 C1744 1.399 . S
C1749 C1748 1.394 . S
C1749 C1750 1.516 . S
C1750 C1749 1.516 . S
C1750 C1751 1.502 1_455 S
C1750 C1752 1.561 . S
C1750 C1753 1.526 . S
C1751 H1735 0.959 . S
C1751 H1736 0.959 . S
C1751 H1737 0.961 . S
C1751 C1750 1.502 1_655 S
C1752 H1738 0.960 1_455 S
C1752 H1739 0.961 1_455 S
C1752 H1740 0.959 . S
C1752 C1750 1.561 . S
C1753 C1750 1.526 . S
C1753 C1754 1.396 . S
C1753 C1758 1.390 . S
C1754 C1748 1.465 . S
C1754 C1753 1.396 . S
C1754 C1755 1.399 . S
C1755 H1741 0.929 . S
C1755 C1754 1.399 . S
C1755 C1756 1.385 . S
C1756 H1742 0.931 . S
C1756 C1755 1.385 . S
C1756 C1757 1.389 . S
C1757 C1756 1.389 . S
C1757 C1758 1.387 . S
C1758 H1743 0.930 . S
C1758 C1753 1.390 . S
C1758 C1757 1.387 . S
H1759 C1771 0.930 . S
H1760 C1773 0.930 . S
H1761 C1774 0.930 . S
H1762 C1778 0.959 . S
H1763 C1778 0.959 . S
H1764 C1778 0.961 . S
H1765 C1779 0.960 . S
H1766 C1779 0.961 . S
H1767 C1779 0.959 . S
H1768 C1782 0.929 . S
H1769 C1783 0.931 . S
H1770 C1785 0.930 . S
C1771 H1759 0.930 . S
C1771 C1772 1.399 . S
C1771 C1776 1.399 . S
C1772 C1771 1.399 . S
C1772 C1773 1.376 . S
C1773 H1760 0.930 . S
C1773 C1772 1.376 . S
C1773 C1774 1.388 . S
C1774 H1761 0.930 . S
C1774 C1773 1.388 . S
C1774 C1775 1.390 . S
C1775 C1774 1.390 . S
C1775 C1776 1.394 . S
C1775 C1781 1.465 . S
C1776 C1771 1.399 . S
C1776 C1775 1.394 . S
C1776 C1777 1.516 . S
C1777 C1776 1.516 . S
C1777 C1778 1.502 . S
C1777 C1779 1.561 . S
C1777 C1780 1.526 . S
C1778 H1762 0.959 . S
C1778 H1763 0.959 . S
C1778 H1764 0.961 . S
C1778 C1777 1.502 . S
C1779 H1765 0.960 . S
C1779 H1766 0.961 . S
C1779 H1767 0.959 . S
C1779 C1777 1.561 . S
C1780 C1777 1.526 . S
C1780 C1781 1.396 . S
C1780 C1785 1.390 . S
C1781 C1775 1.465 . S
C1781 C1780 1.396 . S
C1781 C1782 1.399 . S
C1782 H1768 0.929 . S
C1782 C1781 1.399 . S
C1782 C1783 1.385 . S
C1783 H1769 0.931 . S
C1783 C1782 1.385 . S
C1783 C1784 1.389 . S
C1784 C1783 1.389 . S
C1784 C1785 1.387 . S
C1785 H1770 0.930 . S
C1785 C1780 1.390 . S
C1785 C1784 1.387 . S
H1786 C1798 0.930 . S
H1787 C1800 0.930 . S
H1788 C1801 0.930 . S
H1789 C1805 0.959 . S
H1790 C1805 0.967 . S
H1791 C1805 0.961 . S
H1792 C1806 0.962 . S
H1793 C1806 0.961 . S
H1794 C1806 0.959 . S
H1795 C1809 0.929 . S
H1796 C1810 0.931 . S
H1797 C1812 0.944 . S
C1798 H1786 0.930 . S
C1798 C1799 1.399 . S
C1798 C1803 1.399 . S
C1799 C1798 1.399 . S
C1799 C1800 1.376 . S
C1800 H1787 0.930 . S
C1800 C1799 1.376 . S
C1800 C1801 1.388 . S
C1801 H1788 0.930 . S
C1801 C1800 1.388 . S
C1801 C1802 1.390 . S
C1802 C1801 1.390 . S
C1802 C1803 1.394 . S
C1802 C1808 1.465 . S
C1803 C1798 1.399 . S
C1803 C1802 1.394 . S
C1803 C1804 1.516 . S
C1804 C1803 1.516 . S
C1804 C1805 1.502 . S
C1804 C1806 1.561 1_556 S
C1804 C1807 1.526 . S
C1805 H1789 0.959 . S
C1805 H1790 0.967 . S
C1805 H1791 0.961 . S
C1805 C1804 1.502 . S
C1806 H1792 0.962 . S
C1806 H1793 0.961 . S
C1806 H1794 0.959 . S
C1806 C1804 1.561 1_554 S
C1807 C1804 1.526 . S
C1807 C1808 1.396 . S
C1807 C1812 1.378 1_556 S
C1808 C1802 1.465 . S
C1808 C1807 1.396 . S
C1808 C1809 1.399 . S
C1809 H1795 0.929 . S
C1809 C1808 1.399 . S
C1809 C1810 1.385 . S
C1810 H1796 0.931 . S
C1810 C1809 1.385 . S
C1810 C1811 1.389 . S
C1811 C1810 1.389 . S
C1811 C1812 1.383 1_556 S
C1812 H1797 0.944 . S
C1812 C1807 1.378 1_554 S
C1812 C1811 1.383 1_554 S
H1813 C1825 0.930 . S
H1814 C1827 0.930 . S
H1815 C1828 0.930 . S
H1816 C1832 0.959 . S
H1817 C1832 0.959 . S
H1818 C1832 0.961 . S
H1819 C1833 0.960 . S
H1820 C1833 0.961 . S
H1821 C1833 0.959 . S
H1822 C1836 0.929 . S
H1823 C1837 0.931 . S
H1824 C1839 0.930 . S
C1825 H1813 0.930 . S
C1825 C1826 1.399 . S
C1825 C1830 1.399 . S
C1826 C1825 1.399 . S
C1826 C1827 1.376 . S
C1827 H1814 0.930 . S
C1827 C1826 1.376 . S
C1827 C1828 1.388 . S
C1828 H1815 0.930 . S
C1828 C1827 1.388 . S
C1828 C1829 1.390 . S
C1829 C1828 1.390 . S
C1829 C1830 1.394 . S
C1829 C1835 1.465 . S
C1830 C1825 1.399 . S
C1830 C1829 1.394 . S
C1830 C1831 1.516 . S
C1831 C1830 1.516 . S
C1831 C1832 1.502 . S
C1831 C1833 1.561 . S
C1831 C1834 1.526 . S
C1832 H1816 0.959 . S
C1832 H1817 0.959 . S
C1832 H1818 0.961 . S
C1832 C1831 1.502 . S
C1833 H1819 0.960 . S
C1833 H1820 0.961 . S
C1833 H1821 0.959 . S
C1833 C1831 1.561 . S
C1834 C1831 1.526 . S
C1834 C1835 1.396 . S
C1834 C1839 1.390 . S
C1835 C1829 1.465 . S
C1835 C1834 1.396 . S
C1835 C1836 1.399 . S
C1836 H1822 0.929 . S
C1836 C1835 1.399 . S
C1836 C1837 1.385 . S
C1837 H1823 0.931 . S
C1837 C1836 1.385 . S
C1837 C1838 1.389 . S
C1838 C1837 1.389 . S
C1838 C1839 1.387 . S
C1839 H1824 0.930 . S
C1839 C1834 1.390 . S
C1839 C1838 1.387 . S
H1840 C1852 0.930 . S
H1841 C1854 0.930 . S
H1842 C1855 0.930 . S
H1843 C1859 0.993 . S
H1844 C1859 0.928 1_565 S
H1845 C1859 0.935 1_565 S
H1846 C1860 0.960 . S
H1847 C1860 0.961 . S
H1848 C1860 0.959 . S
H1849 C1863 0.929 . S
H1850 C1864 0.931 1_554 S
H1851 C1866 0.930 . S
C1852 H1840 0.930 . S
C1852 C1853 1.399 . S
C1852 C1857 1.399 . S
C1853 C1852 1.399 . S
C1853 C1854 1.376 . S
C1854 H1841 0.930 . S
C1854 C1853 1.376 . S
C1854 C1855 1.388 . S
C1855 H1842 0.930 . S
C1855 C1854 1.388 . S
C1855 C1856 1.390 . S
C1856 C1855 1.390 . S
C1856 C1857 1.394 . S
C1856 C1862 1.465 . S
C1857 C1852 1.399 . S
C1857 C1856 1.394 . S
C1857 C1858 1.516 . S
C1858 C1857 1.516 . S
C1858 C1859 1.531 . S
C1858 C1860 1.561 . S
C1858 C1861 1.526 . S
C1859 H1843 0.993 . S
C1859 H1844 0.928 1_545 S
C1859 H1845 0.935 1_545 S
C1859 C1858 1.531 . S
C1860 H1846 0.960 . S
C1860 H1847 0.961 . S
C1860 H1848 0.959 . S
C1860 C1858 1.561 . S
C1861 C1858 1.526 . S
C1861 C1862 1.396 . S
C1861 C1866 1.390 . S
C1862 C1856 1.465 . S
C1862 C1861 1.396 . S
C1862 C1863 1.399 . S
C1863 H1849 0.929 . S
C1863 C1862 1.399 . S
C1863 C1864 1.385 . S
C1864 H1850 0.931 1_556 S
C1864 C1863 1.385 . S
C1864 C1865 1.389 . S
C1865 C1864 1.389 . S
C1865 C1866 1.387 . S
C1866 H1851 0.930 . S
C1866 C1861 1.390 . S
C1866 C1865 1.387 . S
H1867 C1879 0.930 . S
H1868 C1881 0.930 . S
H1869 C1882 0.930 . S
H1870 C1886 0.959 . S
H1871 C1886 0.959 . S
H1872 C1886 0.961 . S
H1873 C1887 0.960 . S
H1874 C1887 0.961 . S
H1875 C1887 0.959 . S
H1876 C1890 0.929 . S
H1877 C1891 0.931 . S
H1878 C1893 0.930 . S
C1879 H1867 0.930 . S
C1879 C1880 1.399 . S
C1879 C1884 1.399 . S
C1880 C1879 1.399 . S
C1880 C1881 1.376 . S
C1881 H1868 0.930 . S
C1881 C1880 1.376 . S
C1881 C1882 1.388 . S
C1882 H1869 0.930 . S
C1882 C1881 1.388 . S
C1882 C1883 1.390 . S
C1883 C1882 1.390 . S
C1883 C1884 1.394 . S
C1883 C1889 1.465 . S
C1884 C1879 1.399 . S
C1884 C1883 1.394 . S
C1884 C1885 1.516 . S
C1885 C1884 1.516 . S
C1885 C1886 1.502 . S
C1885 C1887 1.561 . S
C1885 C1888 1.526 . S
C1886 H1870 0.959 . S
C1886 H1871 0.959 . S
C1886 H1872 0.961 . S
C1886 C1885 1.502 . S
C1887 H1873 0.960 . S
C1887 H1874 0.961 . S
C1887 H1875 0.959 . S
C1887 C1885 1.561 . S
C1888 C1885 1.526 . S
C1888 C1889 1.396 . S
C1888 C1893 1.390 . S
C1889 C1883 1.465 . S
C1889 C1888 1.396 . S
C1889 C1890 1.399 . S
C1890 H1876 0.929 . S
C1890 C1889 1.399 . S
C1890 C1891 1.385 . S
C1891 H1877 0.931 . S
C1891 C1890 1.385 . S
C1891 C1892 1.389 . S
C1892 C1891 1.389 . S
C1892 C1893 1.387 . S
C1893 H1878 0.930 . S
C1893 C1888 1.390 . S
C1893 C1892 1.387 . S
H1894 C1906 0.930 . S
H1895 C1908 0.930 . S
H1896 C1909 0.930 . S
H1897 C1913 0.959 . S
H1898 C1913 0.959 1_565 S
H1899 C1913 0.961 1_565 S
H1900 C1914 0.960 . S
H1901 C1914 0.961 . S
H1902 C1914 0.959 . S
H1903 C1917 0.929 . S
H1904 C1918 0.931 . S
H1905 C1920 0.930 . S
C1906 H1894 0.930 . S
C1906 C1907 1.399 . S
C1906 C1911 1.399 . S
C1907 C1906 1.399 . S
C1907 C1908 1.376 . S
C1908 H1895 0.930 . S
C1908 C1907 1.376 . S
C1908 C1909 1.388 . S
C1909 H1896 0.930 . S
C1909 C1908 1.388 . S
C1909 C1910 1.390 . S
C1910 C1909 1.390 . S
C1910 C1911 1.394 . S
C1910 C1916 1.465 . S
C1911 C1906 1.399 . S
C1911 C1910 1.394 . S
C1911 C1912 1.516 . S
C1912 C1911 1.516 . S
C1912 C1913 1.502 . S
C1912 C1914 1.561 1_545 S
C1912 C1915 1.526 . S
C1913 H1897 0.959 . S
C1913 H1898 0.959 1_545 S
C1913 H1899 0.961 1_545 S
C1913 C1912 1.502 . S
C1914 H1900 0.960 . S
C1914 H1901 0.961 . S
C1914 H1902 0.959 . S
C1914 C1912 1.561 1_565 S
C1915 C1912 1.526 . S
C1915 C1916 1.396 . S
C1915 C1920 1.390 . S
C1916 C1910 1.465 . S
C1916 C1915 1.396 . S
C1916 C1917 1.399 . S
C1917 H1903 0.929 . S
C1917 C1916 1.399 . S
C1917 C1918 1.385 . S
C1918 H1904 0.931 . S
C1918 C1917 1.385 . S
C1918 C1919 1.389 . S
C1919 C1918 1.389 . S
C1919 C1920 1.387 . S
C1920 H1905 0.930 . S
C1920 C1915 1.390 . S
C1920 C1919 1.387 . S
H1921 C1933 0.930 . S
H1922 C1935 0.930 . S
H1923 C1936 0.930 . S
H1924 C1940 0.959 . S
H1925 C1940 0.959 . S
H1926 C1940 0.961 . S
H1927 C1941 0.960 . S
H1928 C1941 0.961 . S
H1929 C1941 0.959 . S
H1930 C1944 0.929 . S
H1931 C1945 0.931 . S
H1932 C1947 0.930 . S
C1933 H1921 0.930 . S
C1933 C1934 1.399 . S
C1933 C1938 1.399 . S
C1934 C1933 1.399 . S
C1934 C1935 1.376 . S
C1935 H1922 0.930 . S
C1935 C1934 1.376 . S
C1935 C1936 1.388 . S
C1936 H1923 0.930 . S
C1936 C1935 1.388 . S
C1936 C1937 1.390 . S
C1937 C1936 1.390 . S
C1937 C1938 1.394 . S
C1937 C1943 1.465 . S
C1938 C1933 1.399 . S
C1938 C1937 1.394 . S
C1938 C1939 1.516 . S
C1939 C1938 1.516 . S
C1939 C1940 1.502 . S
C1939 C1941 1.561 . S
C1939 C1942 1.526 . S
C1940 H1924 0.959 . S
C1940 H1925 0.959 . S
C1940 H1926 0.961 . S
C1940 C1939 1.502 . S
C1941 H1927 0.960 . S
C1941 H1928 0.961 . S
C1941 H1929 0.959 . S
C1941 C1939 1.561 . S
C1942 C1939 1.526 . S
C1942 C1943 1.396 . S
C1942 C1947 1.390 . S
C1943 C1937 1.465 . S
C1943 C1942 1.396 . S
C1943 C1944 1.399 . S
C1944 H1930 0.929 . S
C1944 C1943 1.399 . S
C1944 C1945 1.385 . S
C1945 H1931 0.931 . S
C1945 C1944 1.385 . S
C1945 C1946 1.389 . S
C1946 C1945 1.389 . S
C1946 C1947 1.387 . S
C1947 H1932 0.930 . S
C1947 C1942 1.390 . S
C1947 C1946 1.387 . S
H1948 C1960 0.930 . S
H1949 C1962 0.930 . S
H1950 C1963 0.930 . S
H1951 C1967 0.959 . S
H1952 C1967 0.959 . S
H1953 C1967 0.961 . S
H1954 C1968 0.960 . S
H1955 C1968 0.961 . S
H1956 C1968 0.959 . S
H1957 C1971 0.929 . S
H1958 C1972 0.931 . S
H1959 C1974 0.930 . S
C1960 H1948 0.930 . S
C1960 C1961 1.399 . S
C1960 C1965 1.399 . S
C1961 C1960 1.399 . S
C1961 C1962 1.376 . S
C1962 H1949 0.930 . S
C1962 C1961 1.376 . S
C1962 C1963 1.388 . S
C1963 H1950 0.930 . S
C1963 C1962 1.388 . S
C1963 C1964 1.390 . S
C1964 C1963 1.390 . S
C1964 C1965 1.394 . S
C1964 C1970 1.465 . S
C1965 C1960 1.399 . S
C1965 C1964 1.394 . S
C1965 C1966 1.516 . S
C1966 C1965 1.516 . S
C1966 C1967 1.502 . S
C1966 C1968 1.561 . S
C1966 C1969 1.526 . S
C1967 H1951 0.959 . S
C1967 H1952 0.959 . S
C1967 H1953 0.961 . S
C1967 C1966 1.502 . S
C1968 H1954 0.960 . S
C1968 H1955 0.961 . S
C1968 H1956 0.959 . S
C1968 C1966 1.561 . S
C1969 C1966 1.526 . S
C1969 C1970 1.396 . S
C1969 C1974 1.390 . S
C1970 C1964 1.465 . S
C1970 C1969 1.396 . S
C1970 C1971 1.399 . S
C1971 H1957 0.929 . S
C1971 C1970 1.399 . S
C1971 C1972 1.385 . S
C1972 H1958 0.931 . S
C1972 C1971 1.385 . S
C1972 C1973 1.389 . S
C1973 C1972 1.389 . S
C1973 C1974 1.387 . S
C1974 H1959 0.930 . S
C1974 C1969 1.390 . S
C1974 C1973 1.387 . S
H1975 C1987 0.930 . S
H1976 C1989 0.930 . S
H1977 C1990 0.930 . S
H1978 C1994 0.959 . S
H1979 C1994 0.959 . S
H1980 C1994 0.961 . S
H1981 C1995 0.960 . S
H1982 C1995 0.961 . S
H1983 C1995 0.959 . S
H1984 C1998 0.929 . S
H1985 C1999 0.931 . S
H1986 C2001 0.930 . S
C1987 H1975 0.930 . S
C1987 C1988 1.399 . S
C1987 C1992 1.399 . S
C1988 C1987 1.399 . S
C1988 C1989 1.376 . S
C1989 H1976 0.930 . S
C1989 C1988 1.376 . S
C1989 C1990 1.388 . S
C1990 H1977 0.930 . S
C1990 C1989 1.388 . S
C1990 C1991 1.390 . S
C1991 C1990 1.390 . S
C1991 C1992 1.394 . S
C1991 C1997 1.465 . S
C1992 C1987 1.399 . S
C1992 C1991 1.394 . S
C1992 C1993 1.516 . S
C1993 C1992 1.516 . S
C1993 C1994 1.502 . S
C1993 C1995 1.561 . S
C1993 C1996 1.526 . S
C1994 H1978 0.959 . S
C1994 H1979 0.959 . S
C1994 H1980 0.961 . S
C1994 C1993 1.502 . S
C1995 H1981 0.960 . S
C1995 H1982 0.961 . S
C1995 H1983 0.959 . S
C1995 C1993 1.561 . S
C1996 C1993 1.526 . S
C1996 C1997 1.396 . S
C1996 C2001 1.390 . S
C1997 C1991 1.465 . S
C1997 C1996 1.396 . S
C1997 C1998 1.399 . S
C1998 H1984 0.929 . S
C1998 C1997 1.399 . S
C1998 C1999 1.385 . S
C1999 H1985 0.931 . S
C1999 C1998 1.385 . S
C1999 C2000 1.389 . S
C2000 C1999 1.389 . S
C2000 C2001 1.387 . S
C2001 H1986 0.930 . S
C2001 C1996 1.390 . S
C2001 C2000 1.387 . S
H2002 C2014 0.930 . S
H2003 C2016 0.930 . S
H2004 C2017 0.930 . S
H2005 C2021 0.959 . S
H2006 C2021 0.959 . S
H2007 C2021 0.961 . S
H2008 C2022 0.960 . S
H2009 C2022 0.961 . S
H2010 C2022 0.959 . S
H2011 C2025 0.929 . S
H2012 C2026 0.931 . S
H2013 C2028 0.930 . S
C2014 H2002 0.930 . S
C2014 C2015 1.399 . S
C2014 C2019 1.399 . S
C2015 C2014 1.399 . S
C2015 C2016 1.376 . S
C2016 H2003 0.930 . S
C2016 C2015 1.376 . S
C2016 C2017 1.388 . S
C2017 H2004 0.930 . S
C2017 C2016 1.388 . S
C2017 C2018 1.390 . S
C2018 C2017 1.390 . S
C2018 C2019 1.394 . S
C2018 C2024 1.465 . S
C2019 C2014 1.399 . S
C2019 C2018 1.394 . S
C2019 C2020 1.516 . S
C2020 C2019 1.516 . S
C2020 C2021 1.502 . S
C2020 C2022 1.561 1_545 S
C2020 C2023 1.526 . S
C2021 H2005 0.959 . S
C2021 H2006 0.959 . S
C2021 H2007 0.961 . S
C2021 C2020 1.502 . S
C2022 H2008 0.960 . S
C2022 H2009 0.961 . S
C2022 H2010 0.959 . S
C2022 C2020 1.561 1_565 S
C2023 C2020 1.526 . S
C2023 C2024 1.396 . S
C2023 C2028 1.390 . S
C2024 C2018 1.465 . S
C2024 C2023 1.396 . S
C2024 C2025 1.399 . S
C2025 H2011 0.929 . S
C2025 C2024 1.399 . S
C2025 C2026 1.385 . S
C2026 H2012 0.931 . S
C2026 C2025 1.385 . S
C2026 C2027 1.389 . S
C2027 C2026 1.389 . S
C2027 C2028 1.387 . S
C2028 H2013 0.930 . S
C2028 C2023 1.390 . S
C2028 C2027 1.387 . S
H2029 C2041 0.930 . S
H2030 C2043 0.930 . S
H2031 C2044 0.930 . S
H2032 C2048 0.959 . S
H2033 C2048 0.959 . S
H2034 C2048 0.961 . S
H2035 C2049 0.960 . S
H2036 C2049 0.961 . S
H2037 C2049 0.959 . S
H2038 C2052 0.929 . S
H2039 C2053 0.931 . S
H2040 C2055 0.930 . S
C2041 H2029 0.930 . S
C2041 C2042 1.399 . S
C2041 C2046 1.399 . S
C2042 C2041 1.399 . S
C2042 C2043 1.376 . S
C2043 H2030 0.930 . S
C2043 C2042 1.376 . S
C2043 C2044 1.388 . S
C2044 H2031 0.930 . S
C2044 C2043 1.388 . S
C2044 C2045 1.390 . S
C2045 C2044 1.390 . S
C2045 C2046 1.394 . S
C2045 C2051 1.465 . S
C2046 C2041 1.399 . S
C2046 C2045 1.394 . S
C2046 C2047 1.516 . S
C2047 C2046 1.516 . S
C2047 C2048 1.502 . S
C2047 C2049 1.561 . S
C2047 C2050 1.526 . S
C2048 H2032 0.959 . S
C2048 H2033 0.959 . S
C2048 H2034 0.961 . S
C2048 C2047 1.502 . S
C2049 H2035 0.960 . S
C2049 H2036 0.961 . S
C2049 H2037 0.959 . S
C2049 C2047 1.561 . S
C2050 C2047 1.526 . S
C2050 C2051 1.396 . S
C2050 C2055 1.390 . S
C2051 C2045 1.465 . S
C2051 C2050 1.396 . S
C2051 C2052 1.399 . S
C2052 H2038 0.929 . S
C2052 C2051 1.399 . S
C2052 C2053 1.385 . S
C2053 H2039 0.931 . S
C2053 C2052 1.385 . S
C2053 C2054 1.389 . S
C2054 C2053 1.389 . S
C2054 C2055 1.387 . S
C2055 H2040 0.930 . S
C2055 C2050 1.390 . S
C2055 C2054 1.387 . S
H2056 C2068 0.930 . S
H2057 C2070 0.930 . S
H2058 C2071 0.930 . S
H2059 C2075 0.959 . S
H2060 C2075 0.959 . S
H2061 C2075 0.961 . S
H2062 C2076 0.960 . S
H2063 C2076 0.961 . S
H2064 C2076 0.959 . S
H2065 C2079 0.929 . S
H2066 C2080 0.931 . S
H2067 C2082 0.930 . S
C2068 H2056 0.930 . S
C2068 C2069 1.399 . S
C2068 C2073 1.399 . S
C2069 C2068 1.399 . S
C2069 C2070 1.376 . S
C2070 H2057 0.930 . S
C2070 C2069 1.376 . S
C2070 C2071 1.388 . S
C2071 H2058 0.930 . S
C2071 C2070 1.388 . S
C2071 C2072 1.390 . S
C2072 C2071 1.390 . S
C2072 C2073 1.394 . S
C2072 C2078 1.465 . S
C2073 C2068 1.399 . S
C2073 C2072 1.394 . S
C2073 C2074 1.516 . S
C2074 C2073 1.516 . S
C2074 C2075 1.502 . S
C2074 C2076 1.561 . S
C2074 C2077 1.526 . S
C2075 H2059 0.959 . S
C2075 H2060 0.959 . S
C2075 H2061 0.961 . S
C2075 C2074 1.502 . S
C2076 H2062 0.960 . S
C2076 H2063 0.961 . S
C2076 H2064 0.959 . S
C2076 C2074 1.561 . S
C2077 C2074 1.526 . S
C2077 C2078 1.396 . S
C2077 C2082 1.390 . S
C2078 C2072 1.465 . S
C2078 C2077 1.396 . S
C2078 C2079 1.399 . S
C2079 H2065 0.929 . S
C2079 C2078 1.399 . S
C2079 C2080 1.385 . S
C2080 H2066 0.931 . S
C2080 C2079 1.385 . S
C2080 C2081 1.389 . S
C2081 C2080 1.389 . S
C2081 C2082 1.387 . S
C2082 H2067 0.930 . S
C2082 C2077 1.390 . S
C2082 C2081 1.387 . S
H2083 C2095 0.930 . S
H2084 C2097 0.930 . S
H2085 C2098 0.930 . S
H2086 C2102 0.959 . S
H2087 C2102 0.959 . S
H2088 C2102 0.961 . S
H2089 C2103 0.955 1_556 S
H2090 C2103 0.961 1_556 S
H2091 C2103 0.946 1_556 S
H2092 C2106 0.929 . S
H2093 C2107 0.931 . S
H2094 C2109 0.930 . S
C2095 H2083 0.930 . S
C2095 C2096 1.399 . S
C2095 C2100 1.399 . S
C2096 C2095 1.399 . S
C2096 C2097 1.376 . S
C2097 H2084 0.930 . S
C2097 C2096 1.376 . S
C2097 C2098 1.388 . S
C2098 H2085 0.930 . S
C2098 C2097 1.388 . S
C2098 C2099 1.390 . S
C2099 C2098 1.390 . S
C2099 C2100 1.394 . S
C2099 C2105 1.465 . S
C2100 C2095 1.399 . S
C2100 C2099 1.394 . S
C2100 C2101 1.516 . S
C2101 C2100 1.516 . S
C2101 C2102 1.502 . S
C2101 C2103 1.561 . S
C2101 C2104 1.526 . S
C2102 H2086 0.959 . S
C2102 H2087 0.959 . S
C2102 H2088 0.961 . S
C2102 C2101 1.502 . S
C2103 H2089 0.955 1_554 S
C2103 H2090 0.961 1_554 S
C2103 H2091 0.946 1_554 S
C2103 C2101 1.561 . S
C2104 C2101 1.526 . S
C2104 C2105 1.396 . S
C2104 C2109 1.390 . S
C2105 C2099 1.465 . S
C2105 C2104 1.396 . S
C2105 C2106 1.399 . S
C2106 H2092 0.929 . S
C2106 C2105 1.399 . S
C2106 C2107 1.385 . S
C2107 H2093 0.931 . S
C2107 C2106 1.385 . S
C2107 C2108 1.389 . S
C2108 C2107 1.389 . S
C2108 C2109 1.387 . S
C2109 H2094 0.930 . S
C2109 C2104 1.390 . S
C2109 C2108 1.387 . S
H2110 C2122 0.930 . S
H2111 C2124 0.930 . S
H2112 C2125 0.930 . S
H2113 C2129 0.959 . S
H2114 C2129 0.959 . S
H2115 C2129 0.961 . S
H2116 C2130 0.960 . S
H2117 C2130 0.961 . S
H2118 C2130 0.959 . S
H2119 C2133 0.929 . S
H2120 C2134 0.931 . S
H2121 C2136 0.930 . S
C2122 H2110 0.930 . S
C2122 C2123 1.399 . S
C2122 C2127 1.399 . S
C2123 C2122 1.399 . S
C2123 C2124 1.376 . S
C2124 H2111 0.930 . S
C2124 C2123 1.376 . S
C2124 C2125 1.388 . S
C2125 H2112 0.930 . S
C2125 C2124 1.388 . S
C2125 C2126 1.390 . S
C2126 C2125 1.390 . S
C2126 C2127 1.394 . S
C2126 C2132 1.465 . S
C2127 C2122 1.399 . S
C2127 C2126 1.394 . S
C2127 C2128 1.516 . S
C2128 C2127 1.516 . S
C2128 C2129 1.502 . S
C2128 C2130 1.561 . S
C2128 C2131 1.526 . S
C2129 H2113 0.959 . S
C2129 H2114 0.959 . S
C2129 H2115 0.961 . S
C2129 C2128 1.502 . S
C2130 H2116 0.960 . S
C2130 H2117 0.961 . S
C2130 H2118 0.959 . S
C2130 C2128 1.561 . S
C2131 C2128 1.526 . S
C2131 C2132 1.396 . S
C2131 C2136 1.390 . S
C2132 C2126 1.465 . S
C2132 C2131 1.396 . S
C2132 C2133 1.399 . S
C2133 H2119 0.929 . S
C2133 C2132 1.399 . S
C2133 C2134 1.385 . S
C2134 H2120 0.931 . S
C2134 C2133 1.385 . S
C2134 C2135 1.389 . S
C2135 C2134 1.389 . S
C2135 C2136 1.387 . S
C2136 H2121 0.930 . S
C2136 C2131 1.390 . S
C2136 C2135 1.387 . S
H2137 C2149 0.930 . S
H2138 C2151 0.930 . S
H2139 C2152 0.930 . S
H2140 C2156 0.959 . S
H2141 C2156 0.959 . S
H2142 C2156 0.961 . S
H2143 C2157 0.960 . S
H2144 C2157 0.961 . S
H2145 C2157 0.959 . S
H2146 C2160 0.929 . S
H2147 C2161 0.931 . S
H2148 C2163 0.930 . S
C2149 H2137 0.930 . S
C2149 C2150 1.399 . S
C2149 C2154 1.399 . S
C2150 C2149 1.399 . S
C2150 C2151 1.376 . S
C2151 H2138 0.930 . S
C2151 C2150 1.376 . S
C2151 C2152 1.388 . S
C2152 H2139 0.930 . S
C2152 C2151 1.388 . S
C2152 C2153 1.390 . S
C2153 C2152 1.390 . S
C2153 C2154 1.394 . S
C2153 C2159 1.465 . S
C2154 C2149 1.399 . S
C2154 C2153 1.394 . S
C2154 C2155 1.516 . S
C2155 C2154 1.516 . S
C2155 C2156 1.502 . S
C2155 C2157 1.561 . S
C2155 C2158 1.526 . S
C2156 H2140 0.959 . S
C2156 H2141 0.959 . S
C2156 H2142 0.961 . S
C2156 C2155 1.502 . S
C2157 H2143 0.960 . S
C2157 H2144 0.961 . S
C2157 H2145 0.959 . S
C2157 C2155 1.561 . S
C2158 C2155 1.526 . S
C2158 C2159 1.396 . S
C2158 C2163 1.390 . S
C2159 C2153 1.465 . S
C2159 C2158 1.396 . S
C2159 C2160 1.399 . S
C2160 H2146 0.929 . S
C2160 C2159 1.399 . S
C2160 C2161 1.385 . S
C2161 H2147 0.931 . S
C2161 C2160 1.385 . S
C2161 C2162 1.389 . S
C2162 C2161 1.389 . S
C2162 C2163 1.387 . S
C2163 H2148 0.930 . S
C2163 C2158 1.390 . S
C2163 C2162 1.387 . S
H2164 C2176 0.930 . S
H2165 C2178 0.930 . S
H2166 C2179 0.930 . S
H2167 C2183 0.959 . S
H2168 C2183 0.959 . S
H2169 C2183 0.961 1_545 S
H2170 C2184 0.960 . S
H2171 C2184 0.961 . S
H2172 C2184 0.959 . S
H2173 C2187 0.929 . S
H2174 C2188 0.931 . S
H2175 C2190 0.930 . S
C2176 H2164 0.930 . S
C2176 C2177 1.399 . S
C2176 C2181 1.399 . S
C2177 C2176 1.399 . S
C2177 C2178 1.376 . S
C2178 H2165 0.930 . S
C2178 C2177 1.376 . S
C2178 C2179 1.388 . S
C2179 H2166 0.930 . S
C2179 C2178 1.388 . S
C2179 C2180 1.390 . S
C2180 C2179 1.390 . S
C2180 C2181 1.394 . S
C2180 C2186 1.465 . S
C2181 C2176 1.399 . S
C2181 C2180 1.394 . S
C2181 C2182 1.516 . S
C2182 C2181 1.516 . S
C2182 C2183 1.502 . S
C2182 C2184 1.561 . S
C2182 C2185 1.526 . S
C2183 H2167 0.959 . S
C2183 H2168 0.959 . S
C2183 H2169 0.961 1_565 S
C2183 C2182 1.502 . S
C2184 H2170 0.960 . S
C2184 H2171 0.961 . S
C2184 H2172 0.959 . S
C2184 C2182 1.561 . S
C2185 C2182 1.526 . S
C2185 C2186 1.396 . S
C2185 C2190 1.390 . S
C2186 C2180 1.465 . S
C2186 C2185 1.396 . S
C2186 C2187 1.399 . S
C2187 H2173 0.929 . S
C2187 C2186 1.399 . S
C2187 C2188 1.385 . S
C2188 H2174 0.931 . S
C2188 C2187 1.385 . S
C2188 C2189 1.389 . S
C2189 C2188 1.389 . S
C2189 C2190 1.387 . S
C2190 H2175 0.930 . S
C2190 C2185 1.390 . S
C2190 C2189 1.387 . S
H2191 C2203 0.930 . S
H2192 C2205 0.930 . S
H2193 C2206 0.930 . S
H2194 C2210 0.959 . S
H2195 C2210 0.959 . S
H2196 C2210 0.961 . S
H2197 C2211 0.960 . S
H2198 C2211 0.961 . S
H2199 C2211 0.959 . S
H2200 C2214 0.929 . S
H2201 C2215 0.931 . S
H2202 C2217 0.930 . S
C2203 H2191 0.930 . S
C2203 C2204 1.399 . S
C2203 C2208 1.399 . S
C2204 C2203 1.399 . S
C2204 C2205 1.376 . S
C2205 H2192 0.930 . S
C2205 C2204 1.376 . S
C2205 C2206 1.388 . S
C2206 H2193 0.930 . S
C2206 C2205 1.388 . S
C2206 C2207 1.390 . S
C2207 C2206 1.390 . S
C2207 C2208 1.394 . S
C2207 C2213 1.465 . S
C2208 C2203 1.399 . S
C2208 C2207 1.394 . S
C2208 C2209 1.516 . S
C2209 C2208 1.516 . S
C2209 C2210 1.502 . S
C2209 C2211 1.561 . S
C2209 C2212 1.526 . S
C2210 H2194 0.959 . S
C2210 H2195 0.959 . S
C2210 H2196 0.961 . S
C2210 C2209 1.502 . S
C2211 H2197 0.960 . S
C2211 H2198 0.961 . S
C2211 H2199 0.959 . S
C2211 C2209 1.561 . S
C2212 C2209 1.526 . S
C2212 C2213 1.396 . S
C2212 C2217 1.390 . S
C2213 C2207 1.465 . S
C2213 C2212 1.396 . S
C2213 C2214 1.399 . S
C2214 H2200 0.929 . S
C2214 C2213 1.399 . S
C2214 C2215 1.385 . S
C2215 H2201 0.931 . S
C2215 C2214 1.385 . S
C2215 C2216 1.389 . S
C2216 C2215 1.389 . S
C2216 C2217 1.387 . S
C2217 H2202 0.930 . S
C2217 C2212 1.390 . S
C2217 C2216 1.387 . S
H2218 C2230 0.930 . S
H2219 C2232 0.930 . S
H2220 C2233 0.930 . S
H2221 C2237 0.959 . S
H2222 C2237 0.959 . S
H2223 C2237 0.961 . S
H2224 C2238 0.960 . S
H2225 C2238 0.961 . S
H2226 C2238 0.959 . S
H2227 C2241 0.929 . S
H2228 C2242 0.931 . S
H2229 C2244 0.930 . S
C2230 H2218 0.930 . S
C2230 C2231 1.399 . S
C2230 C2235 1.399 . S
C2231 C2230 1.399 . S
C2231 C2232 1.376 . S
C2232 H2219 0.930 . S
C2232 C2231 1.376 . S
C2232 C2233 1.388 . S
C2233 H2220 0.930 . S
C2233 C2232 1.388 . S
C2233 C2234 1.390 . S
C2234 C2233 1.390 . S
C2234 C2235 1.394 . S
C2234 C2240 1.465 . S
C2235 C2230 1.399 . S
C2235 C2234 1.394 . S
C2235 C2236 1.516 . S
C2236 C2235 1.516 . S
C2236 C2237 1.502 . S
C2236 C2238 1.561 . S
C2236 C2239 1.526 . S
C2237 H2221 0.959 . S
C2237 H2222 0.959 . S
C2237 H2223 0.961 . S
C2237 C2236 1.502 . S
C2238 H2224 0.960 . S
C2238 H2225 0.961 . S
C2238 H2226 0.959 . S
C2238 C2236 1.561 . S
C2239 C2236 1.526 . S
C2239 C2240 1.396 . S
C2239 C2244 1.390 . S
C2240 C2234 1.465 . S
C2240 C2239 1.396 . S
C2240 C2241 1.399 . S
C2241 H2227 0.929 . S
C2241 C2240 1.399 . S
C2241 C2242 1.385 . S
C2242 H2228 0.931 . S
C2242 C2241 1.385 . S
C2242 C2243 1.389 . S
C2243 C2242 1.389 . S
C2243 C2244 1.387 . S
C2244 H2229 0.930 . S
C2244 C2239 1.390 . S
C2244 C2243 1.387 . S
H2245 C2257 0.930 . S
H2246 C2259 0.930 . S
H2247 C2260 0.930 . S
H2248 C2264 0.959 . S
H2249 C2264 0.959 . S
H2250 C2264 0.961 . S
H2251 C2265 0.960 . S
H2252 C2265 0.961 . S
H2253 C2265 0.959 . S
H2254 C2268 0.929 . S
H2255 C2269 0.931 . S
H2256 C2271 0.930 . S
C2257 H2245 0.930 . S
C2257 C2258 1.399 . S
C2257 C2262 1.399 . S
C2258 C2257 1.399 . S
C2258 C2259 1.376 . S
C2259 H2246 0.930 . S
C2259 C2258 1.376 . S
C2259 C2260 1.388 . S
C2260 H2247 0.930 . S
C2260 C2259 1.388 . S
C2260 C2261 1.390 . S
C2261 C2260 1.390 . S
C2261 C2262 1.394 . S
C2261 C2267 1.465 . S
C2262 C2257 1.399 . S
C2262 C2261 1.394 . S
C2262 C2263 1.516 . S
C2263 C2262 1.516 . S
C2263 C2264 1.502 . S
C2263 C2265 1.561 . S
C2263 C2266 1.526 . S
C2264 H2248 0.959 . S
C2264 H2249 0.959 . S
C2264 H2250 0.961 . S
C2264 C2263 1.502 . S
C2265 H2251 0.960 . S
C2265 H2252 0.961 . S
C2265 H2253 0.959 . S
C2265 C2263 1.561 . S
C2266 C2263 1.526 . S
C2266 C2267 1.396 . S
C2266 C2271 1.390 . S
C2267 C2261 1.465 . S
C2267 C2266 1.396 . S
C2267 C2268 1.399 . S
C2268 H2254 0.929 . S
C2268 C2267 1.399 . S
C2268 C2269 1.385 . S
C2269 H2255 0.931 . S
C2269 C2268 1.385 . S
C2269 C2270 1.389 . S
C2270 C2269 1.389 . S
C2270 C2271 1.387 . S
C2271 H2256 0.930 . S
C2271 C2266 1.390 . S
C2271 C2270 1.387 . S
H2272 C2284 0.930 . S
H2273 C2286 0.930 . S
H2274 C2287 0.930 . S
H2275 C2291 0.959 . S
H2276 C2291 0.959 . S
H2277 C2291 0.961 . S
H2278 C2292 0.960 . S
H2279 C2292 0.961 . S
H2280 C2292 0.959 . S
H2281 C2295 0.929 . S
H2282 C2296 0.931 . S
H2283 C2298 0.930 . S
C2284 H2272 0.930 . S
C2284 C2285 1.399 . S
C2284 C2289 1.399 . S
C2285 C2284 1.399 . S
C2285 C2286 1.376 . S
C2286 H2273 0.930 . S
C2286 C2285 1.376 . S
C2286 C2287 1.388 . S
C2287 H2274 0.930 . S
C2287 C2286 1.388 . S
C2287 C2288 1.390 . S
C2288 C2287 1.390 . S
C2288 C2289 1.394 . S
C2288 C2294 1.465 . S
C2289 C2284 1.399 . S
C2289 C2288 1.394 . S
C2289 C2290 1.516 . S
C2290 C2289 1.516 . S
C2290 C2291 1.502 . S
C2290 C2292 1.561 . S
C2290 C2293 1.526 . S
C2291 H2275 0.959 . S
C2291 H2276 0.959 . S
C2291 H2277 0.961 . S
C2291 C2290 1.502 . S
C2292 H2278 0.960 . S
C2292 H2279 0.961 . S
C2292 H2280 0.959 . S
C2292 C2290 1.561 . S
C2293 C2290 1.526 . S
C2293 C2294 1.396 . S
C2293 C2298 1.390 . S
C2294 C2288 1.465 . S
C2294 C2293 1.396 . S
C2294 C2295 1.399 . S
C2295 H2281 0.929 . S
C2295 C2294 1.399 . S
C2295 C2296 1.385 . S
C2296 H2282 0.931 . S
C2296 C2295 1.385 . S
C2296 C2297 1.389 . S
C2297 C2296 1.389 . S
C2297 C2298 1.387 . S
C2298 H2283 0.930 . S
C2298 C2293 1.390 . S
C2298 C2297 1.387 . S
H2299 C2311 0.930 . S
H2300 C2313 0.930 . S
H2301 C2314 0.930 . S
H2302 C2318 0.959 . S
H2303 C2318 0.959 . S
H2304 C2318 0.961 . S
H2305 C2319 0.960 . S
H2306 C2319 0.961 . S
H2307 C2319 0.959 . S
H2308 C2322 0.929 . S
H2309 C2323 0.931 . S
H2310 C2325 0.930 . S
C2311 H2299 0.930 . S
C2311 C2312 1.399 . S
C2311 C2316 1.399 . S
C2312 C2311 1.399 . S
C2312 C2313 1.376 . S
C2313 H2300 0.930 . S
C2313 C2312 1.376 . S
C2313 C2314 1.388 . S
C2314 H2301 0.930 . S
C2314 C2313 1.388 . S
C2314 C2315 1.390 . S
C2315 C2314 1.390 . S
C2315 C2316 1.394 . S
C2315 C2321 1.465 . S
C2316 C2311 1.399 . S
C2316 C2315 1.394 . S
C2316 C2317 1.516 . S
C2317 C2316 1.516 . S
C2317 C2318 1.502 . S
C2317 C2319 1.561 . S
C2317 C2320 1.526 . S
C2318 H2302 0.959 . S
C2318 H2303 0.959 . S
C2318 H2304 0.961 . S
C2318 C2317 1.502 . S
C2319 H2305 0.960 . S
C2319 H2306 0.961 . S
C2319 H2307 0.959 . S
C2319 C2317 1.561 . S
C2320 C2317 1.526 . S
C2320 C2321 1.396 . S
C2320 C2325 1.390 . S
C2321 C2315 1.465 . S
C2321 C2320 1.396 . S
C2321 C2322 1.399 . S
C2322 H2308 0.929 . S
C2322 C2321 1.399 . S
C2322 C2323 1.385 . S
C2323 H2309 0.931 . S
C2323 C2322 1.385 . S
C2323 C2324 1.389 . S
C2324 C2323 1.389 . S
C2324 C2325 1.387 . S
C2325 H2310 0.930 . S
C2325 C2320 1.390 . S
C2325 C2324 1.387 . S
H2326 C2338 0.930 . S
H2327 C2340 0.930 . S
H2328 C2341 0.930 . S
H2329 C2345 0.959 . S
H2330 C2345 0.959 . S
H2331 C2345 0.961 . S
H2332 C2346 0.960 . S
H2333 C2346 0.961 . S
H2334 C2346 0.959 . S
H2335 C2349 0.929 1_655 S
H2336 C2350 0.931 . S
H2337 C2352 0.930 . S
C2338 H2326 0.930 . S
C2338 C2339 1.399 . S
C2338 C2343 1.399 . S
C2339 C2338 1.399 . S
C2339 C2340 1.376 1_455 S
C2340 H2327 0.930 . S
C2340 C2339 1.376 1_655 S
C2340 C2341 1.388 1_556 S
C2341 H2328 0.930 . S
C2341 C2340 1.388 1_554 S
C2341 C2342 1.390 1_655 S
C2342 C2341 1.390 1_455 S
C2342 C2343 1.394 1_554 S
C2342 C2348 1.465 . S
C2343 C2338 1.399 . S
C2343 C2342 1.394 1_556 S
C2343 C2344 1.516 . S
C2344 C2343 1.516 . S
C2344 C2345 1.502 . S
C2344 C2346 1.561 . S
C2344 C2347 1.526 1_556 S
C2345 H2329 0.959 . S
C2345 H2330 0.959 . S
C2345 H2331 0.961 . S
C2345 C2344 1.502 . S
C2346 H2332 0.960 . S
C2346 H2333 0.961 . S
C2346 H2334 0.959 . S
C2346 C2344 1.561 . S
C2347 C2344 1.526 1_554 S
C2347 C2348 1.396 . S
C2347 C2352 1.390 . S
C2348 C2342 1.465 . S
C2348 C2347 1.396 . S
C2348 C2349 1.399 . S
C2349 H2335 0.929 1_455 S
C2349 C2348 1.399 . S
C2349 C2350 1.385 . S
C2350 H2336 0.931 . S
C2350 C2349 1.385 . S
C2350 C2351 1.389 . S
C2351 C2350 1.389 . S
C2351 C2352 1.387 . S
C2352 H2337 0.930 . S
C2352 C2347 1.390 . S
C2352 C2351 1.387 . S
H2353 C2365 0.908 1_455 S
H2354 C2367 0.930 . S
H2355 C2368 0.930 . S
H2356 C2372 0.959 . S
H2357 C2372 0.959 . S
H2358 C2372 0.961 . S
H2359 C2373 0.960 . S
H2360 C2373 0.961 . S
H2361 C2373 0.959 . S
H2362 C2376 0.929 . S
H2363 C2377 0.931 . S
H2364 C2379 0.930 . S
C2365 H2353 0.908 1_655 S
C2365 C2366 1.393 1_655 S
C2365 C2370 1.413 . S
C2366 C2365 1.393 1_455 S
C2366 C2367 1.376 . S
C2367 H2354 0.930 . S
C2367 C2366 1.376 . S
C2367 C2368 1.388 1_455 S
C2368 H2355 0.930 . S
C2368 C2367 1.388 1_655 S
C2368 C2369 1.390 . S
C2369 C2368 1.390 . S
C2369 C2370 1.394 . S
C2369 C2375 1.465 . S
C2370 C2365 1.413 . S
C2370 C2369 1.394 . S
C2370 C2371 1.516 . S
C2371 C2370 1.516 . S
C2371 C2372 1.502 . S
C2371 C2373 1.561 . S
C2371 C2374 1.526 . S
C2372 H2356 0.959 . S
C2372 H2357 0.959 . S
C2372 H2358 0.961 . S
C2372 C2371 1.502 . S
C2373 H2359 0.960 . S
C2373 H2360 0.961 . S
C2373 H2361 0.959 . S
C2373 C2371 1.561 . S
C2374 C2371 1.526 . S
C2374 C2375 1.396 . S
C2374 C2379 1.390 . S
C2375 C2369 1.465 . S
C2375 C2374 1.396 . S
C2375 C2376 1.399 . S
C2376 H2362 0.929 . S
C2376 C2375 1.399 . S
C2376 C2377 1.385 . S
C2377 H2363 0.931 . S
C2377 C2376 1.385 . S
C2377 C2378 1.389 . S
C2378 C2377 1.389 . S
C2378 C2379 1.387 . S
C2379 H2364 0.930 . S
C2379 C2374 1.390 . S
C2379 C2378 1.387 . S
H2380 C2392 0.930 . S
H2381 C2394 0.930 . S
H2382 C2395 0.930 . S
H2383 C2399 0.959 . S
H2384 C2399 0.959 . S
H2385 C2399 0.961 . S
H2386 C2400 0.960 . S
H2387 C2400 0.961 . S
H2388 C2400 0.959 . S
H2389 C2403 0.929 . S
H2390 C2404 0.931 . S
H2391 C2406 0.930 . S
C2392 H2380 0.930 . S
C2392 C2393 1.399 . S
C2392 C2397 1.399 . S
C2393 C2392 1.399 . S
C2393 C2394 1.376 . S
C2394 H2381 0.930 . S
C2394 C2393 1.376 . S
C2394 C2395 1.388 . S
C2395 H2382 0.930 . S
C2395 C2394 1.388 . S
C2395 C2396 1.390 . S
C2396 C2395 1.390 . S
C2396 C2397 1.394 . S
C2396 C2402 1.465 . S
C2397 C2392 1.399 . S
C2397 C2396 1.394 . S
C2397 C2398 1.516 . S
C2398 C2397 1.516 . S
C2398 C2399 1.502 . S
C2398 C2400 1.561 . S
C2398 C2401 1.526 . S
C2399 H2383 0.959 . S
C2399 H2384 0.959 . S
C2399 H2385 0.961 . S
C2399 C2398 1.502 . S
C2400 H2386 0.960 . S
C2400 H2387 0.961 . S
C2400 H2388 0.959 . S
C2400 C2398 1.561 . S
C2401 C2398 1.526 . S
C2401 C2402 1.396 . S
C2401 C2406 1.390 . S
C2402 C2396 1.465 . S
C2402 C2401 1.396 . S
C2402 C2403 1.399 . S
C2403 H2389 0.929 . S
C2403 C2402 1.399 . S
C2403 C2404 1.385 . S
C2404 H2390 0.931 . S
C2404 C2403 1.385 . S
C2404 C2405 1.389 . S
C2405 C2404 1.389 . S
C2405 C2406 1.387 . S
C2406 H2391 0.930 . S
C2406 C2401 1.390 . S
C2406 C2405 1.387 . S
H2407 C2419 0.930 . S
H2408 C2421 0.930 . S
H2409 C2422 0.930 . S
H2410 C2426 0.959 . S
H2411 C2426 0.959 . S
H2412 C2426 0.961 . S
H2413 C2427 0.960 . S
H2414 C2427 0.961 . S
H2415 C2427 0.959 . S
H2416 C2430 0.929 . S
H2417 C2431 0.931 . S
H2418 C2433 0.930 . S
C2419 H2407 0.930 . S
C2419 C2420 1.399 . S
C2419 C2424 1.399 . S
C2420 C2419 1.399 . S
C2420 C2421 1.376 . S
C2421 H2408 0.930 . S
C2421 C2420 1.376 . S
C2421 C2422 1.388 . S
C2422 H2409 0.930 . S
C2422 C2421 1.388 . S
C2422 C2423 1.390 . S
C2423 C2422 1.390 . S
C2423 C2424 1.394 . S
C2423 C2429 1.465 . S
C2424 C2419 1.399 . S
C2424 C2423 1.394 . S
C2424 C2425 1.516 . S
C2425 C2424 1.516 . S
C2425 C2426 1.502 . S
C2425 C2427 1.561 . S
C2425 C2428 1.526 . S
C2426 H2410 0.959 . S
C2426 H2411 0.959 . S
C2426 H2412 0.961 . S
C2426 C2425 1.502 . S
C2427 H2413 0.960 . S
C2427 H2414 0.961 . S
C2427 H2415 0.959 . S
C2427 C2425 1.561 . S
C2428 C2425 1.526 . S
C2428 C2429 1.396 . S
C2428 C2433 1.390 . S
C2429 C2423 1.465 . S
C2429 C2428 1.396 . S
C2429 C2430 1.399 . S
C2430 H2416 0.929 . S
C2430 C2429 1.399 . S
C2430 C2431 1.385 . S
C2431 H2417 0.931 . S
C2431 C2430 1.385 . S
C2431 C2432 1.389 . S
C2432 C2431 1.389 . S
C2432 C2433 1.387 . S
C2433 H2418 0.930 . S
C2433 C2428 1.390 . S
C2433 C2432 1.387 . S
H2434 C2446 0.930 . S
H2435 C2448 0.930 . S
H2436 C2449 0.930 . S
H2437 C2453 0.959 . S
H2438 C2453 0.959 . S
H2439 C2453 0.961 . S
H2440 C2454 0.960 . S
H2441 C2454 0.961 . S
H2442 C2454 0.959 . S
H2443 C2457 0.929 . S
H2444 C2458 0.931 . S
H2445 C2460 0.930 . S
C2446 H2434 0.930 . S
C2446 C2447 1.399 . S
C2446 C2451 1.399 . S
C2447 C2446 1.399 . S
C2447 C2448 1.376 . S
C2448 H2435 0.930 . S
C2448 C2447 1.376 . S
C2448 C2449 1.388 . S
C2449 H2436 0.930 . S
C2449 C2448 1.388 . S
C2449 C2450 1.390 . S
C2450 C2449 1.390 . S
C2450 C2451 1.394 . S
C2450 C2456 1.465 . S
C2451 C2446 1.399 . S
C2451 C2450 1.394 . S
C2451 C2452 1.516 . S
C2452 C2451 1.516 . S
C2452 C2453 1.502 1_455 S
C2452 C2454 1.561 . S
C2452 C2455 1.526 . S
C2453 H2437 0.959 . S
C2453 H2438 0.959 . S
C2453 H2439 0.961 . S
C2453 C2452 1.502 1_655 S
C2454 H2440 0.960 . S
C2454 H2441 0.961 . S
C2454 H2442 0.959 . S
C2454 C2452 1.561 . S
C2455 C2452 1.526 . S
C2455 C2456 1.396 . S
C2455 C2460 1.390 . S
C2456 C2450 1.465 . S
C2456 C2455 1.396 . S
C2456 C2457 1.399 . S
C2457 H2443 0.929 . S
C2457 C2456 1.399 . S
C2457 C2458 1.385 . S
C2458 H2444 0.931 . S
C2458 C2457 1.385 . S
C2458 C2459 1.389 . S
C2459 C2458 1.389 . S
C2459 C2460 1.387 . S
C2460 H2445 0.930 . S
C2460 C2455 1.390 . S
C2460 C2459 1.387 . S
H2461 C2473 0.930 . S
H2462 C2475 0.930 . S
H2463 C2476 0.930 . S
H2464 C2480 0.959 . S
H2465 C2480 0.959 . S
H2466 C2480 0.961 . S
H2467 C2481 0.960 . S
H2468 C2481 0.961 . S
H2469 C2481 0.959 . S
H2470 C2484 0.929 . S
H2471 C2485 0.931 . S
H2472 C2487 0.930 . S
C2473 H2461 0.930 . S
C2473 C2474 1.399 . S
C2473 C2478 1.399 . S
C2474 C2473 1.399 . S
C2474 C2475 1.376 . S
C2475 H2462 0.930 . S
C2475 C2474 1.376 . S
C2475 C2476 1.388 . S
C2476 H2463 0.930 . S
C2476 C2475 1.388 . S
C2476 C2477 1.390 . S
C2477 C2476 1.390 . S
C2477 C2478 1.394 . S
C2477 C2483 1.465 . S
C2478 C2473 1.399 . S
C2478 C2477 1.394 . S
C2478 C2479 1.516 . S
C2479 C2478 1.516 . S
C2479 C2480 1.502 . S
C2479 C2481 1.561 . S
C2479 C2482 1.526 . S
C2480 H2464 0.959 . S
C2480 H2465 0.959 . S
C2480 H2466 0.961 . S
C2480 C2479 1.502 . S
C2481 H2467 0.960 . S
C2481 H2468 0.961 . S
C2481 H2469 0.959 . S
C2481 C2479 1.561 . S
C2482 C2479 1.526 . S
C2482 C2483 1.396 . S
C2482 C2487 1.390 . S
C2483 C2477 1.465 . S
C2483 C2482 1.396 . S
C2483 C2484 1.399 . S
C2484 H2470 0.929 . S
C2484 C2483 1.399 . S
C2484 C2485 1.385 . S
C2485 H2471 0.931 . S
C2485 C2484 1.385 . S
C2485 C2486 1.389 . S
C2486 C2485 1.389 . S
C2486 C2487 1.387 . S
C2487 H2472 0.930 . S
C2487 C2482 1.390 . S
C2487 C2486 1.387 . S
H2488 C2500 0.930 . S
H2489 C2502 0.930 . S
H2490 C2503 0.930 . S
H2491 C2507 0.959 . S
H2492 C2507 0.959 . S
H2493 C2507 0.961 . S
H2494 C2508 0.960 . S
H2495 C2508 0.961 . S
H2496 C2508 0.959 . S
H2497 C2511 0.929 . S
H2498 C2512 0.931 . S
H2499 C2514 0.930 . S
C2500 H2488 0.930 . S
C2500 C2501 1.399 . S
C2500 C2505 1.399 . S
C2501 C2500 1.399 . S
C2501 C2502 1.376 . S
C2502 H2489 0.930 . S
C2502 C2501 1.376 . S
C2502 C2503 1.388 . S
C2503 H2490 0.930 . S
C2503 C2502 1.388 . S
C2503 C2504 1.390 . S
C2504 C2503 1.390 . S
C2504 C2505 1.394 . S
C2504 C2510 1.465 . S
C2505 C2500 1.399 . S
C2505 C2504 1.394 . S
C2505 C2506 1.516 . S
C2506 C2505 1.516 . S
C2506 C2507 1.502 . S
C2506 C2508 1.561 . S
C2506 C2509 1.526 . S
C2507 H2491 0.959 . S
C2507 H2492 0.959 . S
C2507 H2493 0.961 . S
C2507 C2506 1.502 . S
C2508 H2494 0.960 . S
C2508 H2495 0.961 . S
C2508 H2496 0.959 . S
C2508 C2506 1.561 . S
C2509 C2506 1.526 . S
C2509 C2510 1.396 . S
C2509 C2514 1.390 . S
C2510 C2504 1.465 . S
C2510 C2509 1.396 . S
C2510 C2511 1.399 . S
C2511 H2497 0.929 . S
C2511 C2510 1.399 . S
C2511 C2512 1.385 . S
C2512 H2498 0.931 . S
C2512 C2511 1.385 . S
C2512 C2513 1.389 . S
C2513 C2512 1.389 . S
C2513 C2514 1.387 . S
C2514 H2499 0.930 . S
C2514 C2509 1.390 . S
C2514 C2513 1.387 . S
H2515 C2527 0.923 1_554 S
H2516 C2529 0.930 . S
H2517 C2530 0.930 . S
H2518 C2534 0.959 . S
H2519 C2534 0.959 . S
H2520 C2534 0.961 . S
H2521 C2535 0.960 . S
H2522 C2535 0.961 . S
H2523 C2535 0.959 . S
H2524 C2538 0.929 . S
H2525 C2539 0.931 . S
H2526 C2541 0.930 . S
C2527 H2515 0.923 1_556 S
C2527 C2528 1.394 1_556 S
C2527 C2532 1.412 . S
C2528 C2527 1.394 1_554 S
C2528 C2529 1.376 1_554 S
C2529 H2516 0.930 . S
C2529 C2528 1.376 1_556 S
C2529 C2530 1.388 . S
C2530 H2517 0.930 . S
C2530 C2529 1.388 . S
C2530 C2531 1.390 . S
C2531 C2530 1.390 . S
C2531 C2532 1.394 . S
C2531 C2537 1.465 . S
C2532 C2527 1.412 . S
C2532 C2531 1.394 . S
C2532 C2533 1.516 . S
C2533 C2532 1.516 . S
C2533 C2534 1.502 . S
C2533 C2535 1.561 . S
C2533 C2536 1.526 . S
C2534 H2518 0.959 . S
C2534 H2519 0.959 . S
C2534 H2520 0.961 . S
C2534 C2533 1.502 . S
C2535 H2521 0.960 . S
C2535 H2522 0.961 . S
C2535 H2523 0.959 . S
C2535 C2533 1.561 . S
C2536 C2533 1.526 . S
C2536 C2537 1.396 . S
C2536 C2541 1.390 . S
C2537 C2531 1.465 . S
C2537 C2536 1.396 . S
C2537 C2538 1.399 . S
C2538 H2524 0.929 . S
C2538 C2537 1.399 . S
C2538 C2539 1.385 . S
C2539 H2525 0.931 . S
C2539 C2538 1.385 . S
C2539 C2540 1.389 . S
C2540 C2539 1.389 . S
C2540 C2541 1.387 . S
C2541 H2526 0.930 . S
C2541 C2536 1.390 . S
C2541 C2540 1.387 . S
H2542 C2554 0.930 . S
H2543 C2556 0.930 . S
H2544 C2557 0.930 . S
H2545 C2561 0.959 . S
H2546 C2561 0.959 . S
H2547 C2561 0.961 . S
H2548 C2562 0.960 . S
H2549 C2562 0.961 . S
H2550 C2562 0.959 . S
H2551 C2565 0.929 . S
H2552 C2566 0.931 . S
H2553 C2568 0.930 . S
C2554 H2542 0.930 . S
C2554 C2555 1.399 . S
C2554 C2559 1.399 . S
C2555 C2554 1.399 . S
C2555 C2556 1.376 . S
C2556 H2543 0.930 . S
C2556 C2555 1.376 . S
C2556 C2557 1.388 . S
C2557 H2544 0.930 . S
C2557 C2556 1.388 . S
C2557 C2558 1.390 . S
C2558 C2557 1.390 . S
C2558 C2559 1.394 . S
C2558 C2564 1.465 . S
C2559 C2554 1.399 . S
C2559 C2558 1.394 . S
C2559 C2560 1.516 . S
C2560 C2559 1.516 . S
C2560 C2561 1.502 . S
C2560 C2562 1.561 . S
C2560 C2563 1.526 . S
C2561 H2545 0.959 . S
C2561 H2546 0.959 . S
C2561 H2547 0.961 . S
C2561 C2560 1.502 . S
C2562 H2548 0.960 . S
C2562 H2549 0.961 . S
C2562 H2550 0.959 . S
C2562 C2560 1.561 . S
C2563 C2560 1.526 . S
C2563 C2564 1.396 . S
C2563 C2568 1.390 . S
C2564 C2558 1.465 . S
C2564 C2563 1.396 . S
C2564 C2565 1.399 . S
C2565 H2551 0.929 . S
C2565 C2564 1.399 . S
C2565 C2566 1.385 . S
C2566 H2552 0.931 . S
C2566 C2565 1.385 . S
C2566 C2567 1.389 . S
C2567 C2566 1.389 . S
C2567 C2568 1.387 . S
C2568 H2553 0.930 . S
C2568 C2563 1.390 . S
C2568 C2567 1.387 . S
H2569 C2581 0.930 . S
H2570 C2583 0.930 . S
H2571 C2584 0.930 . S
H2572 C2588 0.959 . S
H2573 C2588 0.959 . S
H2574 C2588 0.961 . S
H2575 C2589 0.960 . S
H2576 C2589 0.961 . S
H2577 C2589 0.959 . S
H2578 C2592 0.929 . S
H2579 C2593 0.931 . S
H2580 C2595 0.930 . S
C2581 H2569 0.930 . S
C2581 C2582 1.399 . S
C2581 C2586 1.399 . S
C2582 C2581 1.399 . S
C2582 C2583 1.376 . S
C2583 H2570 0.930 . S
C2583 C2582 1.376 . S
C2583 C2584 1.388 . S
C2584 H2571 0.930 . S
C2584 C2583 1.388 . S
C2584 C2585 1.390 . S
C2585 C2584 1.390 . S
C2585 C2586 1.394 . S
C2585 C2591 1.465 . S
C2586 C2581 1.399 . S
C2586 C2585 1.394 . S
C2586 C2587 1.516 . S
C2587 C2586 1.516 . S
C2587 C2588 1.502 . S
C2587 C2589 1.561 . S
C2587 C2590 1.526 . S
C2588 H2572 0.959 . S
C2588 H2573 0.959 . S
C2588 H2574 0.961 . S
C2588 C2587 1.502 . S
C2589 H2575 0.960 . S
C2589 H2576 0.961 . S
C2589 H2577 0.959 . S
C2589 C2587 1.561 . S
C2590 C2587 1.526 . S
C2590 C2591 1.396 . S
C2590 C2595 1.390 . S
C2591 C2585 1.465 . S
C2591 C2590 1.396 . S
C2591 C2592 1.399 . S
C2592 H2578 0.929 . S
C2592 C2591 1.399 . S
C2592 C2593 1.385 . S
C2593 H2579 0.931 . S
C2593 C2592 1.385 . S
C2593 C2594 1.389 . S
C2594 C2593 1.389 . S
C2594 C2595 1.387 . S
C2595 H2580 0.930 . S
C2595 C2590 1.390 . S
C2595 C2594 1.387 . S
H2596 C2608 0.930 . S
H2597 C2610 0.930 . S
H2598 C2611 0.930 . S
H2599 C2615 0.959 . S
H2600 C2615 0.959 . S
H2601 C2615 0.961 . S
H2602 C2616 0.960 . S
H2603 C2616 0.961 . S
H2604 C2616 0.959 . S
H2605 C2619 0.929 . S
H2606 C2620 0.931 . S
H2607 C2622 0.930 . S
C2608 H2596 0.930 . S
C2608 C2609 1.399 . S
C2608 C2613 1.399 . S
C2609 C2608 1.399 . S
C2609 C2610 1.376 . S
C2610 H2597 0.930 . S
C2610 C2609 1.376 . S
C2610 C2611 1.388 . S
C2611 H2598 0.930 . S
C2611 C2610 1.388 . S
C2611 C2612 1.390 . S
C2612 C2611 1.390 . S
C2612 C2613 1.394 . S
C2612 C2618 1.465 . S
C2613 C2608 1.399 . S
C2613 C2612 1.394 . S
C2613 C2614 1.516 . S
C2614 C2613 1.516 . S
C2614 C2615 1.502 . S
C2614 C2616 1.561 . S
C2614 C2617 1.526 . S
C2615 H2599 0.959 . S
C2615 H2600 0.959 . S
C2615 H2601 0.961 . S
C2615 C2614 1.502 . S
C2616 H2602 0.960 . S
C2616 H2603 0.961 . S
C2616 H2604 0.959 . S
C2616 C2614 1.561 . S
C2617 C2614 1.526 . S
C2617 C2618 1.396 . S
C2617 C2622 1.390 . S
C2618 C2612 1.465 . S
C2618 C2617 1.396 . S
C2618 C2619 1.399 . S
C2619 H2605 0.929 . S
C2619 C2618 1.399 . S
C2619 C2620 1.385 . S
C2620 H2606 0.931 . S
C2620 C2619 1.385 . S
C2620 C2621 1.389 . S
C2621 C2620 1.389 . S
C2621 C2622 1.387 . S
C2622 H2607 0.930 . S
C2622 C2617 1.390 . S
C2622 C2621 1.387 . S
H2623 C2635 0.930 . S
H2624 C2637 0.930 . S
H2625 C2638 0.930 . S
H2626 C2642 0.959 . S
H2627 C2642 0.959 . S
H2628 C2642 0.961 . S
H2629 C2643 0.960 . S
H2630 C2643 0.961 . S
H2631 C2643 0.959 . S
H2632 C2646 0.929 . S
H2633 C2647 0.931 . S
H2634 C2649 0.930 . S
C2635 H2623 0.930 . S
C2635 C2636 1.399 . S
C2635 C2640 1.399 . S
C2636 C2635 1.399 . S
C2636 C2637 1.376 . S
C2637 H2624 0.930 . S
C2637 C2636 1.376 . S
C2637 C2638 1.388 . S
C2638 H2625 0.930 . S
C2638 C2637 1.388 . S
C2638 C2639 1.390 . S
C2639 C2638 1.390 . S
C2639 C2640 1.394 . S
C2639 C2645 1.465 . S
C2640 C2635 1.399 . S
C2640 C2639 1.394 . S
C2640 C2641 1.516 . S
C2641 C2640 1.516 . S
C2641 C2642 1.502 . S
C2641 C2643 1.561 . S
C2641 C2644 1.526 . S
C2642 H2626 0.959 . S
C2642 H2627 0.959 . S
C2642 H2628 0.961 . S
C2642 C2641 1.502 . S
C2643 H2629 0.960 . S
C2643 H2630 0.961 . S
C2643 H2631 0.959 . S
C2643 C2641 1.561 . S
C2644 C2641 1.526 . S
C2644 C2645 1.396 . S
C2644 C2649 1.390 . S
C2645 C2639 1.465 . S
C2645 C2644 1.396 . S
C2645 C2646 1.399 . S
C2646 H2632 0.929 . S
C2646 C2645 1.399 . S
C2646 C2647 1.385 . S
C2647 H2633 0.931 . S
C2647 C2646 1.385 . S
C2647 C2648 1.389 . S
C2648 C2647 1.389 . S
C2648 C2649 1.387 . S
C2649 H2634 0.930 . S
C2649 C2644 1.390 . S
C2649 C2648 1.387 . S
H2650 C2662 0.930 . S
H2651 C2664 0.930 . S
H2652 C2665 0.930 . S
H2653 C2669 0.959 . S
H2654 C2669 0.959 . S
H2655 C2669 0.961 . S
H2656 C2670 0.960 . S
H2657 C2670 0.961 . S
H2658 C2670 0.959 . S
H2659 C2673 0.929 . S
H2660 C2674 0.931 . S
H2661 C2676 0.930 . S
C2662 H2650 0.930 . S
C2662 C2663 1.399 . S
C2662 C2667 1.399 . S
C2663 C2662 1.399 . S
C2663 C2664 1.376 . S
C2664 H2651 0.930 . S
C2664 C2663 1.376 . S
C2664 C2665 1.388 . S
C2665 H2652 0.930 . S
C2665 C2664 1.388 . S
C2665 C2666 1.390 . S
C2666 C2665 1.390 . S
C2666 C2667 1.394 . S
C2666 C2672 1.465 . S
C2667 C2662 1.399 . S
C2667 C2666 1.394 . S
C2667 C2668 1.516 . S
C2668 C2667 1.516 . S
C2668 C2669 1.502 . S
C2668 C2670 1.561 . S
C2668 C2671 1.526 . S
C2669 H2653 0.959 . S
C2669 H2654 0.959 . S
C2669 H2655 0.961 . S
C2669 C2668 1.502 . S
C2670 H2656 0.960 . S
C2670 H2657 0.961 . S
C2670 H2658 0.959 . S
C2670 C2668 1.561 . S
C2671 C2668 1.526 . S
C2671 C2672 1.396 . S
C2671 C2676 1.390 . S
C2672 C2666 1.465 . S
C2672 C2671 1.396 . S
C2672 C2673 1.399 . S
C2673 H2659 0.929 . S
C2673 C2672 1.399 . S
C2673 C2674 1.385 . S
C2674 H2660 0.931 . S
C2674 C2673 1.385 . S
C2674 C2675 1.389 . S
C2675 C2674 1.389 . S
C2675 C2676 1.387 . S
C2676 H2661 0.930 . S
C2676 C2671 1.390 . S
C2676 C2675 1.387 . S
H2677 C2689 0.930 . S
H2678 C2691 0.930 . S
H2679 C2692 0.930 . S
H2680 C2696 0.959 . S
H2681 C2696 0.959 . S
H2682 C2696 0.961 . S
H2683 C2697 0.960 . S
H2684 C2697 0.961 . S
H2685 C2697 0.959 . S
H2686 C2700 0.929 . S
H2687 C2701 0.931 . S
H2688 C2703 0.930 . S
C2689 H2677 0.930 . S
C2689 C2690 1.399 . S
C2689 C2694 1.399 . S
C2690 C2689 1.399 . S
C2690 C2691 1.376 . S
C2691 H2678 0.930 . S
C2691 C2690 1.376 . S
C2691 C2692 1.388 . S
C2692 H2679 0.930 . S
C2692 C2691 1.388 . S
C2692 C2693 1.390 . S
C2693 C2692 1.390 . S
C2693 C2694 1.394 . S
C2693 C2699 1.465 . S
C2694 C2689 1.399 . S
C2694 C2693 1.394 . S
C2694 C2695 1.516 . S
C2695 C2694 1.516 . S
C2695 C2696 1.502 . S
C2695 C2697 1.561 . S
C2695 C2698 1.526 . S
C2696 H2680 0.959 . S
C2696 H2681 0.959 . S
C2696 H2682 0.961 . S
C2696 C2695 1.502 . S
C2697 H2683 0.960 . S
C2697 H2684 0.961 . S
C2697 H2685 0.959 . S
C2697 C2695 1.561 . S
C2698 C2695 1.526 . S
C2698 C2699 1.396 . S
C2698 C2703 1.390 . S
C2699 C2693 1.465 . S
C2699 C2698 1.396 . S
C2699 C2700 1.399 . S
C2700 H2686 0.929 . S
C2700 C2699 1.399 . S
C2700 C2701 1.385 . S
C2701 H2687 0.931 . S
C2701 C2700 1.385 . S
C2701 C2702 1.389 . S
C2702 C2701 1.389 . S
C2702 C2703 1.387 . S
C2703 H2688 0.930 . S
C2703 C2698 1.390 . S
C2703 C2702 1.387 . S
H2704 C2716 0.930 . S
H2705 C2718 0.930 . S
H2706 C2719 0.930 . S
H2707 C2723 0.959 . S
H2708 C2723 0.959 . S
H2709 C2723 0.961 . S
H2710 C2724 0.960 . S
H2711 C2724 0.961 . S
H2712 C2724 0.959 . S
H2713 C2727 0.929 . S
H2714 C2728 0.931 . S
H2715 C2730 0.930 . S
C2716 H2704 0.930 . S
C2716 C2717 1.399 . S
C2716 C2721 1.399 . S
C2717 C2716 1.399 . S
C2717 C2718 1.376 . S
C2718 H2705 0.930 . S
C2718 C2717 1.376 . S
C2718 C2719 1.388 . S
C2719 H2706 0.930 . S
C2719 C2718 1.388 . S
C2719 C2720 1.390 . S
C2720 C2719 1.390 . S
C2720 C2721 1.394 . S
C2720 C2726 1.465 . S
C2721 C2716 1.399 . S
C2721 C2720 1.394 . S
C2721 C2722 1.516 . S
C2722 C2721 1.516 . S
C2722 C2723 1.502 . S
C2722 C2724 1.561 . S
C2722 C2725 1.526 . S
C2723 H2707 0.959 . S
C2723 H2708 0.959 . S
C2723 H2709 0.961 . S
C2723 C2722 1.502 . S
C2724 H2710 0.960 . S
C2724 H2711 0.961 . S
C2724 H2712 0.959 . S
C2724 C2722 1.561 . S
C2725 C2722 1.526 . S
C2725 C2726 1.396 . S
C2725 C2730 1.390 . S
C2726 C2720 1.465 . S
C2726 C2725 1.396 . S
C2726 C2727 1.399 . S
C2727 H2713 0.929 . S
C2727 C2726 1.399 . S
C2727 C2728 1.385 . S
C2728 H2714 0.931 . S
C2728 C2727 1.385 . S
C2728 C2729 1.389 . S
C2729 C2728 1.389 . S
C2729 C2730 1.387 . S
C2730 H2715 0.930 . S
C2730 C2725 1.390 . S
C2730 C2729 1.387 . S
H2731 C2743 0.930 . S
H2732 C2745 0.930 . S
H2733 C2746 0.930 . S
H2734 C2750 0.959 . S
H2735 C2750 0.959 . S
H2736 C2750 0.961 . S
H2737 C2751 0.960 . S
H2738 C2751 0.961 . S
H2739 C2751 0.959 . S
H2740 C2754 0.929 . S
H2741 C2755 0.931 . S
H2742 C2757 0.930 . S
C2743 H2731 0.930 . S
C2743 C2744 1.399 . S
C2743 C2748 1.399 . S
C2744 C2743 1.399 . S
C2744 C2745 1.376 . S
C2745 H2732 0.930 . S
C2745 C2744 1.376 . S
C2745 C2746 1.388 . S
C2746 H2733 0.930 . S
C2746 C2745 1.388 . S
C2746 C2747 1.390 . S
C2747 C2746 1.390 . S
C2747 C2748 1.394 . S
C2747 C2753 1.465 . S
C2748 C2743 1.399 . S
C2748 C2747 1.394 . S
C2748 C2749 1.516 . S
C2749 C2748 1.516 . S
C2749 C2750 1.502 . S
C2749 C2751 1.561 . S
C2749 C2752 1.526 . S
C2750 H2734 0.959 . S
C2750 H2735 0.959 . S
C2750 H2736 0.961 . S
C2750 C2749 1.502 . S
C2751 H2737 0.960 . S
C2751 H2738 0.961 . S
C2751 H2739 0.959 . S
C2751 C2749 1.561 . S
C2752 C2749 1.526 . S
C2752 C2753 1.396 . S
C2752 C2757 1.390 . S
C2753 C2747 1.465 . S
C2753 C2752 1.396 . S
C2753 C2754 1.399 . S
C2754 H2740 0.929 . S
C2754 C2753 1.399 . S
C2754 C2755 1.385 . S
C2755 H2741 0.931 . S
C2755 C2754 1.385 . S
C2755 C2756 1.389 . S
C2756 C2755 1.389 . S
C2756 C2757 1.387 . S
C2757 H2742 0.930 . S
C2757 C2752 1.390 . S
C2757 C2756 1.387 . S
H2758 C2770 0.930 . S
H2759 C2772 0.930 . S
H2760 C2773 0.930 . S
H2761 C2777 0.959 . S
H2762 C2777 0.959 . S
H2763 C2777 0.961 . S
H2764 C2778 0.965 . S
H2765 C2778 0.960 1_565 S
H2766 C2778 0.959 . S
H2767 C2781 0.929 . S
H2768 C2782 0.931 . S
H2769 C2784 0.930 . S
C2770 H2758 0.930 . S
C2770 C2771 1.399 . S
C2770 C2775 1.399 . S
C2771 C2770 1.399 . S
C2771 C2772 1.376 . S
C2772 H2759 0.930 . S
C2772 C2771 1.376 . S
C2772 C2773 1.388 . S
C2773 H2760 0.930 . S
C2773 C2772 1.388 . S
C2773 C2774 1.390 . S
C2774 C2773 1.390 . S
C2774 C2775 1.394 . S
C2774 C2780 1.465 . S
C2775 C2770 1.399 . S
C2775 C2774 1.394 . S
C2775 C2776 1.516 . S
C2776 C2775 1.516 . S
C2776 C2777 1.502 . S
C2776 C2778 1.557 1_565 S
C2776 C2779 1.526 . S
C2777 H2761 0.959 . S
C2777 H2762 0.959 . S
C2777 H2763 0.961 . S
C2777 C2776 1.502 . S
C2778 H2764 0.965 . S
C2778 H2765 0.960 1_545 S
C2778 H2766 0.959 . S
C2778 C2776 1.557 1_545 S
C2779 C2776 1.526 . S
C2779 C2780 1.396 . S
C2779 C2784 1.390 . S
C2780 C2774 1.465 . S
C2780 C2779 1.396 . S
C2780 C2781 1.399 . S
C2781 H2767 0.929 . S
C2781 C2780 1.399 . S
C2781 C2782 1.385 . S
C2782 H2768 0.931 . S
C2782 C2781 1.385 . S
C2782 C2783 1.389 . S
C2783 C2782 1.389 . S
C2783 C2784 1.387 . S
C2784 H2769 0.930 . S
C2784 C2779 1.390 . S
C2784 C2783 1.387 . S
H2785 C2797 0.930 . S
H2786 C2799 0.930 . S
H2787 C2800 0.930 . S
H2788 C2804 0.959 . S
H2789 C2804 0.959 . S
H2790 C2804 0.961 . S
H2791 C2805 0.960 . S
H2792 C2805 0.961 1_545 S
H2793 C2805 0.959 1_545 S
H2794 C2808 0.929 . S
H2795 C2809 0.931 . S
H2796 C2811 0.930 . S
C2797 H2785 0.930 . S
C2797 C2798 1.399 1_556 S
C2797 C2802 1.399 1_556 S
C2798 C2797 1.399 1_554 S
C2798 C2799 1.376 . S
C2799 H2786 0.930 . S
C2799 C2798 1.376 . S
C2799 C2800 1.388 . S
C2800 H2787 0.930 . S
C2800 C2799 1.388 . S
C2800 C2801 1.390 . S
C2801 C2800 1.390 . S
C2801 C2802 1.394 . S
C2801 C2807 1.465 . S
C2802 C2797 1.399 1_554 S
C2802 C2801 1.394 . S
C2802 C2803 1.516 1_554 S
C2803 C2802 1.516 1_556 S
C2803 C2804 1.502 . S
C2803 C2805 1.561 . S
C2803 C2806 1.526 1_556 S
C2804 H2788 0.959 . S
C2804 H2789 0.959 . S
C2804 H2790 0.961 . S
C2804 C2803 1.502 . S
C2805 H2791 0.960 . S
C2805 H2792 0.961 1_565 S
C2805 H2793 0.959 1_565 S
C2805 C2803 1.561 . S
C2806 C2803 1.526 1_554 S
C2806 C2807 1.396 . S
C2806 C2811 1.390 1_565 S
C2807 C2801 1.465 . S
C2807 C2806 1.396 . S
C2807 C2808 1.399 1_565 S
C2808 H2794 0.929 . S
C2808 C2807 1.399 1_545 S
C2808 C2809 1.385 . S
C2809 H2795 0.931 . S
C2809 C2808 1.385 . S
C2809 C2810 1.389 . S
C2810 C2809 1.389 . S
C2810 C2811 1.387 . S
C2811 H2796 0.930 . S
C2811 C2806 1.390 1_545 S
C2811 C2810 1.387 . S
H2812 C2824 0.930 . S
H2813 C2826 0.930 . S
H2814 C2827 0.930 . S
H2815 C2831 0.959 . S
H2816 C2831 0.959 . S
H2817 C2831 0.961 . S
H2818 C2832 0.960 . S
H2819 C2832 0.961 . S
H2820 C2832 0.959 . S
H2821 C2835 0.929 . S
H2822 C2836 0.931 . S
H2823 C2838 0.930 . S
C2824 H2812 0.930 . S
C2824 C2825 1.399 . S
C2824 C2829 1.399 . S
C2825 C2824 1.399 . S
C2825 C2826 1.376 . S
C2826 H2813 0.930 . S
C2826 C2825 1.376 . S
C2826 C2827 1.388 . S
C2827 H2814 0.930 . S
C2827 C2826 1.388 . S
C2827 C2828 1.390 . S
C2828 C2827 1.390 . S
C2828 C2829 1.394 . S
C2828 C2834 1.465 . S
C2829 C2824 1.399 . S
C2829 C2828 1.394 . S
C2829 C2830 1.516 . S
C2830 C2829 1.516 . S
C2830 C2831 1.502 . S
C2830 C2832 1.561 . S
C2830 C2833 1.526 . S
C2831 H2815 0.959 . S
C2831 H2816 0.959 . S
C2831 H2817 0.961 . S
C2831 C2830 1.502 . S
C2832 H2818 0.960 . S
C2832 H2819 0.961 . S
C2832 H2820 0.959 . S
C2832 C2830 1.561 . S
C2833 C2830 1.526 . S
C2833 C2834 1.396 . S
C2833 C2838 1.390 . S
C2834 C2828 1.465 . S
C2834 C2833 1.396 . S
C2834 C2835 1.399 . S
C2835 H2821 0.929 . S
C2835 C2834 1.399 . S
C2835 C2836 1.385 . S
C2836 H2822 0.931 . S
C2836 C2835 1.385 . S
C2836 C2837 1.389 . S
C2837 C2836 1.389 . S
C2837 C2838 1.387 . S
C2838 H2823 0.930 . S
C2838 C2833 1.390 . S
C2838 C2837 1.387 . S
H2839 C2851 0.930 . S
H2840 C2853 0.930 . S
H2841 C2854 0.930 . S
H2842 C2858 0.959 . S
H2843 C2858 0.959 . S
H2844 C2858 0.961 . S
H2845 C2859 0.960 . S
H2846 C2859 0.961 . S
H2847 C2859 0.959 . S
H2848 C2862 0.929 . S
H2849 C2863 0.931 . S
H2850 C2865 0.930 . S
C2851 H2839 0.930 . S
C2851 C2852 1.399 . S
C2851 C2856 1.399 . S
C2852 C2851 1.399 . S
C2852 C2853 1.376 . S
C2853 H2840 0.930 . S
C2853 C2852 1.376 . S
C2853 C2854 1.388 . S
C2854 H2841 0.930 . S
C2854 C2853 1.388 . S
C2854 C2855 1.390 . S
C2855 C2854 1.390 . S
C2855 C2856 1.394 . S
C2855 C2861 1.465 . S
C2856 C2851 1.399 . S
C2856 C2855 1.394 . S
C2856 C2857 1.516 . S
C2857 C2856 1.516 . S
C2857 C2858 1.502 . S
C2857 C2859 1.561 . S
C2857 C2860 1.526 . S
C2858 H2842 0.959 . S
C2858 H2843 0.959 . S
C2858 H2844 0.961 . S
C2858 C2857 1.502 . S
C2859 H2845 0.960 . S
C2859 H2846 0.961 . S
C2859 H2847 0.959 . S
C2859 C2857 1.561 . S
C2860 C2857 1.526 . S
C2860 C2861 1.396 . S
C2860 C2865 1.390 . S
C2861 C2855 1.465 . S
C2861 C2860 1.396 . S
C2861 C2862 1.399 . S
C2862 H2848 0.929 . S
C2862 C2861 1.399 . S
C2862 C2863 1.385 . S
C2863 H2849 0.931 . S
C2863 C2862 1.385 . S
C2863 C2864 1.389 . S
C2864 C2863 1.389 . S
C2864 C2865 1.387 . S
C2865 H2850 0.930 . S
C2865 C2860 1.390 . S
C2865 C2864 1.387 . S
H2866 C2878 0.930 . S
H2867 C2880 0.930 . S
H2868 C2881 0.930 . S
H2869 C2885 0.959 . S
H2870 C2885 0.959 . S
H2871 C2885 0.961 . S
H2872 C2886 0.960 . S
H2873 C2886 0.961 . S
H2874 C2886 0.959 . S
H2875 C2889 0.929 . S
H2876 C2890 0.931 . S
H2877 C2892 0.930 . S
C2878 H2866 0.930 . S
C2878 C2879 1.399 . S
C2878 C2883 1.399 . S
C2879 C2878 1.399 . S
C2879 C2880 1.376 . S
C2880 H2867 0.930 . S
C2880 C2879 1.376 . S
C2880 C2881 1.388 . S
C2881 H2868 0.930 . S
C2881 C2880 1.388 . S
C2881 C2882 1.390 . S
C2882 C2881 1.390 . S
C2882 C2883 1.394 . S
C2882 C2888 1.465 . S
C2883 C2878 1.399 . S
C2883 C2882 1.394 . S
C2883 C2884 1.516 . S
C2884 C2883 1.516 . S
C2884 C2885 1.502 . S
C2884 C2886 1.561 . S
C2884 C2887 1.526 . S
C2885 H2869 0.959 . S
C2885 H2870 0.959 . S
C2885 H2871 0.961 . S
C2885 C2884 1.502 . S
C2886 H2872 0.960 . S
C2886 H2873 0.961 . S
C2886 H2874 0.959 . S
C2886 C2884 1.561 . S
C2887 C2884 1.526 . S
C2887 C2888 1.396 . S
C2887 C2892 1.390 . S
C2888 C2882 1.465 . S
C2888 C2887 1.396 . S
C2888 C2889 1.399 . S
C2889 H2875 0.929 . S
C2889 C2888 1.399 . S
C2889 C2890 1.385 . S
C2890 H2876 0.931 . S
C2890 C2889 1.385 . S
C2890 C2891 1.389 . S
C2891 C2890 1.389 . S
C2891 C2892 1.387 . S
C2892 H2877 0.930 . S
C2892 C2887 1.390 . S
C2892 C2891 1.387 . S
H2893 C2905 0.930 . S
H2894 C2907 0.930 . S
H2895 C2908 0.930 . S
H2896 C2912 0.959 . S
H2897 C2912 0.959 . S
H2898 C2912 0.961 . S
H2899 C2913 0.960 . S
H2900 C2913 0.961 . S
H2901 C2913 0.959 . S
H2902 C2916 0.929 . S
H2903 C2917 0.931 . S
H2904 C2919 0.930 . S
C2905 H2893 0.930 . S
C2905 C2906 1.399 . S
C2905 C2910 1.399 . S
C2906 C2905 1.399 . S
C2906 C2907 1.376 . S
C2907 H2894 0.930 . S
C2907 C2906 1.376 . S
C2907 C2908 1.388 . S
C2908 H2895 0.930 . S
C2908 C2907 1.388 . S
C2908 C2909 1.390 . S
C2909 C2908 1.390 . S
C2909 C2910 1.394 . S
C2909 C2915 1.465 . S
C2910 C2905 1.399 . S
C2910 C2909 1.394 . S
C2910 C2911 1.516 . S
C2911 C2910 1.516 . S
C2911 C2912 1.502 . S
C2911 C2913 1.561 . S
C2911 C2914 1.526 . S
C2912 H2896 0.959 . S
C2912 H2897 0.959 . S
C2912 H2898 0.961 . S
C2912 C2911 1.502 . S
C2913 H2899 0.960 . S
C2913 H2900 0.961 . S
C2913 H2901 0.959 . S
C2913 C2911 1.561 . S
C2914 C2911 1.526 . S
C2914 C2915 1.396 . S
C2914 C2919 1.390 . S
C2915 C2909 1.465 . S
C2915 C2914 1.396 . S
C2915 C2916 1.399 . S
C2916 H2902 0.929 . S
C2916 C2915 1.399 . S
C2916 C2917 1.385 . S
C2917 H2903 0.931 . S
C2917 C2916 1.385 . S
C2917 C2918 1.389 . S
C2918 C2917 1.389 . S
C2918 C2919 1.387 . S
C2919 H2904 0.930 . S
C2919 C2914 1.390 . S
C2919 C2918 1.387 . S
H2920 C2932 0.930 . S
H2921 C2934 0.930 . S
H2922 C2935 0.930 . S
H2923 C2939 0.959 . S
H2924 C2939 0.959 . S
H2925 C2939 0.961 . S
H2926 C2940 0.960 . S
H2927 C2940 0.961 . S
H2928 C2940 0.959 . S
H2929 C2943 0.929 . S
H2930 C2944 0.931 . S
H2931 C2946 0.930 . S
C2932 H2920 0.930 . S
C2932 C2933 1.399 . S
C2932 C2937 1.399 . S
C2933 C2932 1.399 . S
C2933 C2934 1.376 . S
C2934 H2921 0.930 . S
C2934 C2933 1.376 . S
C2934 C2935 1.388 . S
C2935 H2922 0.930 . S
C2935 C2934 1.388 . S
C2935 C2936 1.390 . S
C2936 C2935 1.390 . S
C2936 C2937 1.394 . S
C2936 C2942 1.465 . S
C2937 C2932 1.399 . S
C2937 C2936 1.394 . S
C2937 C2938 1.516 . S
C2938 C2937 1.516 . S
C2938 C2939 1.502 . S
C2938 C2940 1.561 . S
C2938 C2941 1.526 . S
C2939 H2923 0.959 . S
C2939 H2924 0.959 . S
C2939 H2925 0.961 . S
C2939 C2938 1.502 . S
C2940 H2926 0.960 . S
C2940 H2927 0.961 . S
C2940 H2928 0.959 . S
C2940 C2938 1.561 . S
C2941 C2938 1.526 . S
C2941 C2942 1.396 . S
C2941 C2946 1.390 . S
C2942 C2936 1.465 . S
C2942 C2941 1.396 . S
C2942 C2943 1.399 . S
C2943 H2929 0.929 . S
C2943 C2942 1.399 . S
C2943 C2944 1.385 . S
C2944 H2930 0.931 . S
C2944 C2943 1.385 . S
C2944 C2945 1.389 . S
C2945 C2944 1.389 . S
C2945 C2946 1.387 . S
C2946 H2931 0.930 . S
C2946 C2941 1.390 . S
C2946 C2945 1.387 . S
H2947 C2959 0.930 . S
H2948 C2961 0.930 . S
H2949 C2962 0.930 . S
H2950 C2966 0.959 . S
H2951 C2966 0.959 . S
H2952 C2966 0.961 . S
H2953 C2967 0.960 . S
H2954 C2967 0.961 . S
H2955 C2967 0.959 . S
H2956 C2970 0.929 . S
H2957 C2971 0.931 . S
H2958 C2973 0.930 . S
C2959 H2947 0.930 . S
C2959 C2960 1.399 . S
C2959 C2964 1.399 . S
C2960 C2959 1.399 . S
C2960 C2961 1.376 . S
C2961 H2948 0.930 . S
C2961 C2960 1.376 . S
C2961 C2962 1.388 . S
C2962 H2949 0.930 . S
C2962 C2961 1.388 . S
C2962 C2963 1.390 . S
C2963 C2962 1.390 . S
C2963 C2964 1.394 . S
C2963 C2969 1.465 . S
C2964 C2959 1.399 . S
C2964 C2963 1.394 . S
C2964 C2965 1.516 . S
C2965 C2964 1.516 . S
C2965 C2966 1.502 . S
C2965 C2967 1.561 . S
C2965 C2968 1.526 . S
C2966 H2950 0.959 . S
C2966 H2951 0.959 . S
C2966 H2952 0.961 . S
C2966 C2965 1.502 . S
C2967 H2953 0.960 . S
C2967 H2954 0.961 . S
C2967 H2955 0.959 . S
C2967 C2965 1.561 . S
C2968 C2965 1.526 . S
C2968 C2969 1.396 . S
C2968 C2973 1.390 . S
C2969 C2963 1.465 . S
C2969 C2968 1.396 . S
C2969 C2970 1.399 . S
C2970 H2956 0.929 . S
C2970 C2969 1.399 . S
C2970 C2971 1.385 . S
C2971 H2957 0.931 . S
C2971 C2970 1.385 . S
C2971 C2972 1.389 . S
C2972 C2971 1.389 . S
C2972 C2973 1.387 . S
C2973 H2958 0.930 . S
C2973 C2968 1.390 . S
C2973 C2972 1.387 . S
H2974 C2986 0.930 . S
H2975 C2988 0.930 . S
H2976 C2989 0.930 . S
H2977 C2993 0.959 . S
H2978 C2993 0.959 . S
H2979 C2993 0.961 . S
H2980 C2994 0.960 . S
H2981 C2994 0.961 . S
H2982 C2994 0.959 . S
H2983 C2997 0.929 . S
H2984 C2998 0.931 . S
H2985 C3000 0.930 . S
C2986 H2974 0.930 . S
C2986 C2987 1.399 . S
C2986 C2991 1.399 . S
C2987 C2986 1.399 . S
C2987 C2988 1.376 . S
C2988 H2975 0.930 . S
C2988 C2987 1.376 . S
C2988 C2989 1.388 . S
C2989 H2976 0.930 . S
C2989 C2988 1.388 . S
C2989 C2990 1.390 . S
C2990 C2989 1.390 . S
C2990 C2991 1.394 . S
C2990 C2996 1.465 . S
C2991 C2986 1.399 . S
C2991 C2990 1.394 . S
C2991 C2992 1.516 . S
C2992 C2991 1.516 . S
C2992 C2993 1.502 . S
C2992 C2994 1.561 . S
C2992 C2995 1.526 . S
C2993 H2977 0.959 . S
C2993 H2978 0.959 . S
C2993 H2979 0.961 . S
C2993 C2992 1.502 . S
C2994 H2980 0.960 . S
C2994 H2981 0.961 . S
C2994 H2982 0.959 . S
C2994 C2992 1.561 . S
C2995 C2992 1.526 . S
C2995 C2996 1.396 . S
C2995 C3000 1.390 . S
C2996 C2990 1.465 . S
C2996 C2995 1.396 . S
C2996 C2997 1.399 . S
C2997 H2983 0.929 . S
C2997 C2996 1.399 . S
C2997 C2998 1.385 . S
C2998 H2984 0.931 . S
C2998 C2997 1.385 . S
C2998 C2999 1.389 . S
C2999 C2998 1.389 . S
C2999 C3000 1.387 . S
C3000 H2985 0.930 . S
C3000 C2995 1.390 . S
C3000 C2999 1.387 . S
H3001 C3013 0.930 . S
H3002 C3015 0.930 . S
H3003 C3016 0.930 . S
H3004 C3020 0.959 . S
H3005 C3020 0.959 . S
H3006 C3020 0.961 . S
H3007 C3021 0.960 . S
H3008 C3021 0.961 . S
H3009 C3021 0.959 . S
H3010 C3024 0.929 . S
H3011 C3025 0.931 . S
H3012 C3027 0.930 . S
C3013 H3001 0.930 . S
C3013 C3014 1.399 . S
C3013 C3018 1.399 . S
C3014 C3013 1.399 . S
C3014 C3015 1.376 . S
C3015 H3002 0.930 . S
C3015 C3014 1.376 . S
C3015 C3016 1.388 . S
C3016 H3003 0.930 . S
C3016 C3015 1.388 . S
C3016 C3017 1.390 . S
C3017 C3016 1.390 . S
C3017 C3018 1.394 . S
C3017 C3023 1.465 . S
C3018 C3013 1.399 . S
C3018 C3017 1.394 . S
C3018 C3019 1.516 . S
C3019 C3018 1.516 . S
C3019 C3020 1.502 . S
C3019 C3021 1.561 . S
C3019 C3022 1.526 . S
C3020 H3004 0.959 . S
C3020 H3005 0.959 . S
C3020 H3006 0.961 . S
C3020 C3019 1.502 . S
C3021 H3007 0.960 . S
C3021 H3008 0.961 . S
C3021 H3009 0.959 . S
C3021 C3019 1.561 . S
C3022 C3019 1.526 . S
C3022 C3023 1.396 . S
C3022 C3027 1.390 . S
C3023 C3017 1.465 . S
C3023 C3022 1.396 . S
C3023 C3024 1.399 . S
C3024 H3010 0.929 . S
C3024 C3023 1.399 . S
C3024 C3025 1.385 . S
C3025 H3011 0.931 . S
C3025 C3024 1.385 . S
C3025 C3026 1.389 . S
C3026 C3025 1.389 . S
C3026 C3027 1.387 . S
C3027 H3012 0.930 . S
C3027 C3022 1.390 . S
C3027 C3026 1.387 . S
H3028 C3040 0.930 . S
H3029 C3042 0.930 . S
H3030 C3043 0.930 . S
H3031 C3047 0.959 . S
H3032 C3047 0.959 . S
H3033 C3047 0.961 . S
H3034 C3048 0.960 . S
H3035 C3048 0.961 . S
H3036 C3048 0.959 . S
H3037 C3051 0.929 . S
H3038 C3052 0.931 . S
H3039 C3054 0.930 . S
C3040 H3028 0.930 . S
C3040 C3041 1.399 . S
C3040 C3045 1.399 . S
C3041 C3040 1.399 . S
C3041 C3042 1.376 . S
C3042 H3029 0.930 . S
C3042 C3041 1.376 . S
C3042 C3043 1.388 . S
C3043 H3030 0.930 . S
C3043 C3042 1.388 . S
C3043 C3044 1.390 . S
C3044 C3043 1.390 . S
C3044 C3045 1.394 . S
C3044 C3050 1.465 . S
C3045 C3040 1.399 . S
C3045 C3044 1.394 . S
C3045 C3046 1.516 . S
C3046 C3045 1.516 . S
C3046 C3047 1.502 . S
C3046 C3048 1.561 . S
C3046 C3049 1.526 . S
C3047 H3031 0.959 . S
C3047 H3032 0.959 . S
C3047 H3033 0.961 . S
C3047 C3046 1.502 . S
C3048 H3034 0.960 . S
C3048 H3035 0.961 . S
C3048 H3036 0.959 . S
C3048 C3046 1.561 . S
C3049 C3046 1.526 . S
C3049 C3050 1.396 . S
C3049 C3054 1.390 . S
C3050 C3044 1.465 . S
C3050 C3049 1.396 . S
C3050 C3051 1.399 . S
C3051 H3037 0.929 . S
C3051 C3050 1.399 . S
C3051 C3052 1.385 1_556 S
C3052 H3038 0.931 . S
C3052 C3051 1.385 1_554 S
C3052 C3053 1.389 . S
C3053 C3052 1.389 . S
C3053 C3054 1.387 1_554 S
C3054 H3039 0.930 . S
C3054 C3049 1.390 . S
C3054 C3053 1.387 1_556 S
H3055 C3067 0.930 . S
H3056 C3069 0.930 . S
H3057 C3070 0.930 . S
H3058 C3074 0.959 . S
H3059 C3074 0.959 . S
H3060 C3074 0.961 . S
H3061 C3075 0.960 . S
H3062 C3075 0.961 . S
H3063 C3075 0.959 . S
H3064 C3078 0.929 . S
H3065 C3079 0.931 . S
H3066 C3081 0.930 . S
C3067 H3055 0.930 . S
C3067 C3068 1.399 . S
C3067 C3072 1.399 . S
C3068 C3067 1.399 . S
C3068 C3069 1.376 . S
C3069 H3056 0.930 . S
C3069 C3068 1.376 . S
C3069 C3070 1.388 . S
C3070 H3057 0.930 . S
C3070 C3069 1.388 . S
C3070 C3071 1.390 . S
C3071 C3070 1.390 . S
C3071 C3072 1.394 . S
C3071 C3077 1.465 . S
C3072 C3067 1.399 . S
C3072 C3071 1.394 . S
C3072 C3073 1.516 . S
C3073 C3072 1.516 . S
C3073 C3074 1.502 . S
C3073 C3075 1.561 . S
C3073 C3076 1.526 . S
C3074 H3058 0.959 . S
C3074 H3059 0.959 . S
C3074 H3060 0.961 . S
C3074 C3073 1.502 . S
C3075 H3061 0.960 . S
C3075 H3062 0.961 . S
C3075 H3063 0.959 . S
C3075 C3073 1.561 . S
C3076 C3073 1.526 . S
C3076 C3077 1.396 . S
C3076 C3081 1.390 . S
C3077 C3071 1.465 . S
C3077 C3076 1.396 . S
C3077 C3078 1.399 . S
C3078 H3064 0.929 . S
C3078 C3077 1.399 . S
C3078 C3079 1.385 . S
C3079 H3065 0.931 . S
C3079 C3078 1.385 . S
C3079 C3080 1.389 . S
C3080 C3079 1.389 . S
C3080 C3081 1.387 . S
C3081 H3066 0.930 . S
C3081 C3076 1.390 . S
C3081 C3080 1.387 . S
H3082 C3094 0.930 . S
H3083 C3096 0.930 . S
H3084 C3097 0.930 . S
H3085 C3101 0.959 . S
H3086 C3101 0.959 . S
H3087 C3101 0.961 . S
H3088 C3102 0.960 . S
H3089 C3102 0.961 . S
H3090 C3102 0.959 . S
H3091 C3105 0.929 . S
H3092 C3106 0.931 . S
H3093 C3108 0.930 . S
C3094 H3082 0.930 . S
C3094 C3095 1.399 . S
C3094 C3099 1.399 . S
C3095 C3094 1.399 . S
C3095 C3096 1.376 . S
C3096 H3083 0.930 . S
C3096 C3095 1.376 . S
C3096 C3097 1.388 . S
C3097 H3084 0.930 . S
C3097 C3096 1.388 . S
C3097 C3098 1.390 . S
C3098 C3097 1.390 . S
C3098 C3099 1.394 . S
C3098 C3104 1.465 . S
C3099 C3094 1.399 . S
C3099 C3098 1.394 . S
C3099 C3100 1.516 . S
C3100 C3099 1.516 . S
C3100 C3101 1.502 . S
C3100 C3102 1.561 . S
C3100 C3103 1.526 . S
C3101 H3085 0.959 . S
C3101 H3086 0.959 . S
C3101 H3087 0.961 . S
C3101 C3100 1.502 . S
C3102 H3088 0.960 . S
C3102 H3089 0.961 . S
C3102 H3090 0.959 . S
C3102 C3100 1.561 . S
C3103 C3100 1.526 . S
C3103 C3104 1.396 . S
C3103 C3108 1.390 . S
C3104 C3098 1.465 . S
C3104 C3103 1.396 . S
C3104 C3105 1.399 . S
C3105 H3091 0.929 . S
C3105 C3104 1.399 . S
C3105 C3106 1.385 . S
C3106 H3092 0.931 . S
C3106 C3105 1.385 . S
C3106 C3107 1.389 . S
C3107 C3106 1.389 . S
C3107 C3108 1.387 . S
C3108 H3093 0.930 . S
C3108 C3103 1.390 . S
C3108 C3107 1.387 . S
H3109 C3121 0.930 . S
H3110 C3123 0.930 . S
H3111 C3124 0.930 . S
H3112 C3128 0.959 . S
H3113 C3128 0.959 . S
H3114 C3128 0.961 . S
H3115 C3129 0.960 . S
H3116 C3129 0.961 . S
H3117 C3129 0.959 . S
H3118 C3132 0.929 . S
H3119 C3133 0.931 . S
H3120 C3135 0.930 . S
C3121 H3109 0.930 . S
C3121 C3122 1.399 . S
C3121 C3126 1.399 . S
C3122 C3121 1.399 . S
C3122 C3123 1.376 . S
C3123 H3110 0.930 . S
C3123 C3122 1.376 . S
C3123 C3124 1.388 . S
C3124 H3111 0.930 . S
C3124 C3123 1.388 . S
C3124 C3125 1.390 . S
C3125 C3124 1.390 . S
C3125 C3126 1.394 . S
C3125 C3131 1.465 . S
C3126 C3121 1.399 . S
C3126 C3125 1.394 . S
C3126 C3127 1.516 . S
C3127 C3126 1.516 . S
C3127 C3128 1.502 . S
C3127 C3129 1.561 . S
C3127 C3130 1.526 . S
C3128 H3112 0.959 . S
C3128 H3113 0.959 . S
C3128 H3114 0.961 . S
C3128 C3127 1.502 . S
C3129 H3115 0.960 . S
C3129 H3116 0.961 . S
C3129 H3117 0.959 . S
C3129 C3127 1.561 . S
C3130 C3127 1.526 . S
C3130 C3131 1.396 . S
C3130 C3135 1.390 . S
C3131 C3125 1.465 . S
C3131 C3130 1.396 . S
C3131 C3132 1.399 . S
C3132 H3118 0.929 . S
C3132 C3131 1.399 . S
C3132 C3133 1.385 . S
C3133 H3119 0.931 . S
C3133 C3132 1.385 . S
C3133 C3134 1.389 . S
C3134 C3133 1.389 . S
C3134 C3135 1.387 . S
C3135 H3120 0.930 . S
C3135 C3130 1.390 . S
C3135 C3134 1.387 . S
H3136 C3148 0.930 . S
H3137 C3150 0.930 . S
H3138 C3151 0.930 . S
H3139 C3155 0.959 . S
H3140 C3155 0.959 . S
H3141 C3155 0.961 . S
H3142 C3156 0.960 . S
H3143 C3156 0.961 . S
H3144 C3156 0.959 . S
H3145 C3159 0.929 . S
H3146 C3160 0.931 . S
H3147 C3162 0.930 . S
C3148 H3136 0.930 . S
C3148 C3149 1.399 . S
C3148 C3153 1.399 . S
C3149 C3148 1.399 . S
C3149 C3150 1.376 . S
C3150 H3137 0.930 . S
C3150 C3149 1.376 . S
C3150 C3151 1.388 . S
C3151 H3138 0.930 . S
C3151 C3150 1.388 . S
C3151 C3152 1.390 . S
C3152 C3151 1.390 . S
C3152 C3153 1.394 . S
C3152 C3158 1.465 . S
C3153 C3148 1.399 . S
C3153 C3152 1.394 . S
C3153 C3154 1.516 . S
C3154 C3153 1.516 . S
C3154 C3155 1.502 . S
C3154 C3156 1.561 . S
C3154 C3157 1.526 . S
C3155 H3139 0.959 . S
C3155 H3140 0.959 . S
C3155 H3141 0.961 . S
C3155 C3154 1.502 . S
C3156 H3142 0.960 . S
C3156 H3143 0.961 . S
C3156 H3144 0.959 . S
C3156 C3154 1.561 . S
C3157 C3154 1.526 . S
C3157 C3158 1.396 . S
C3157 C3162 1.390 . S
C3158 C3152 1.465 . S
C3158 C3157 1.396 . S
C3158 C3159 1.399 . S
C3159 H3145 0.929 . S
C3159 C3158 1.399 . S
C3159 C3160 1.385 . S
C3160 H3146 0.931 . S
C3160 C3159 1.385 . S
C3160 C3161 1.389 . S
C3161 C3160 1.389 . S
C3161 C3162 1.387 . S
C3162 H3147 0.930 . S
C3162 C3157 1.390 . S
C3162 C3161 1.387 . S
H3163 C3175 0.930 . S
H3164 C3177 0.930 . S
H3165 C3178 0.930 . S
H3166 C3182 0.959 . S
H3167 C3182 0.959 . S
H3168 C3182 0.961 . S
H3169 C3183 0.960 . S
H3170 C3183 0.961 . S
H3171 C3183 0.959 . S
H3172 C3186 0.929 . S
H3173 C3187 0.931 . S
H3174 C3189 0.930 . S
C3175 H3163 0.930 . S
C3175 C3176 1.399 . S
C3175 C3180 1.399 . S
C3176 C3175 1.399 . S
C3176 C3177 1.376 . S
C3177 H3164 0.930 . S
C3177 C3176 1.376 . S
C3177 C3178 1.388 . S
C3178 H3165 0.930 . S
C3178 C3177 1.388 . S
C3178 C3179 1.390 . S
C3179 C3178 1.390 . S
C3179 C3180 1.394 . S
C3179 C3185 1.465 . S
C3180 C3175 1.399 . S
C3180 C3179 1.394 . S
C3180 C3181 1.516 . S
C3181 C3180 1.516 . S
C3181 C3182 1.502 . S
C3181 C3183 1.561 . S
C3181 C3184 1.526 . S
C3182 H3166 0.959 . S
C3182 H3167 0.959 . S
C3182 H3168 0.961 . S
C3182 C3181 1.502 . S
C3183 H3169 0.960 . S
C3183 H3170 0.961 . S
C3183 H3171 0.959 . S
C3183 C3181 1.561 . S
C3184 C3181 1.526 . S
C3184 C3185 1.396 . S
C3184 C3189 1.390 . S
C3185 C3179 1.465 . S
C3185 C3184 1.396 . S
C3185 C3186 1.399 . S
C3186 H3172 0.929 . S
C3186 C3185 1.399 . S
C3186 C3187 1.385 . S
C3187 H3173 0.931 . S
C3187 C3186 1.385 . S
C3187 C3188 1.389 . S
C3188 C3187 1.389 . S
C3188 C3189 1.387 . S
C3189 H3174 0.930 . S
C3189 C3184 1.390 . S
C3189 C3188 1.387 . S
H3190 C3202 0.930 . S
H3191 C3204 0.930 . S
H3192 C3205 0.930 . S
H3193 C3209 0.959 . S
H3194 C3209 0.959 . S
H3195 C3209 0.961 . S
H3196 C3210 0.960 . S
H3197 C3210 0.961 1_455 S
H3198 C3210 0.959 . S
H3199 C3213 0.929 . S
H3200 C3214 0.938 . S
H3201 C3216 0.930 . S
C3202 H3190 0.930 . S
C3202 C3203 1.399 . S
C3202 C3207 1.399 . S
C3203 C3202 1.399 . S
C3203 C3204 1.376 . S
C3204 H3191 0.930 . S
C3204 C3203 1.376 . S
C3204 C3205 1.388 . S
C3205 H3192 0.930 . S
C3205 C3204 1.388 . S
C3205 C3206 1.390 . S
C3206 C3205 1.390 . S
C3206 C3207 1.394 . S
C3206 C3212 1.465 . S
C3207 C3202 1.399 . S
C3207 C3206 1.394 . S
C3207 C3208 1.516 1_655 S
C3208 C3207 1.516 1_455 S
C3208 C3209 1.502 . S
C3208 C3210 1.561 1_455 S
C3208 C3211 1.526 . S
C3209 H3193 0.959 . S
C3209 H3194 0.959 . S
C3209 H3195 0.961 . S
C3209 C3208 1.502 . S
C3210 H3196 0.960 . S
C3210 H3197 0.961 1_655 S
C3210 H3198 0.959 . S
C3210 C3208 1.561 1_655 S
C3211 C3208 1.526 . S
C3211 C3212 1.396 1_455 S
C3211 C3216 1.390 . S
C3212 C3206 1.465 . S
C3212 C3211 1.396 1_655 S
C3212 C3213 1.399 . S
C3213 H3199 0.929 . S
C3213 C3212 1.399 . S
C3213 C3214 1.377 1_656 S
C3214 H3200 0.938 . S
C3214 C3213 1.377 1_454 S
C3214 C3215 1.391 . S
C3215 C3214 1.391 . S
C3215 C3216 1.387 1_554 S
C3216 H3201 0.930 . S
C3216 C3211 1.390 . S
C3216 C3215 1.387 1_556 S
H3217 C3229 0.930 . S
H3218 C3231 0.930 . S
H3219 C3232 0.930 . S
H3220 C3236 0.959 . S
H3221 C3236 0.959 . S
H3222 C3236 0.961 . S
H3223 C3237 0.960 . S
H3224 C3237 0.961 . S
H3225 C3237 0.959 . S
H3226 C3240 0.929 . S
H3227 C3241 0.931 . S
H3228 C3243 0.930 . S
C3229 H3217 0.930 . S
C3229 C3230 1.399 . S
C3229 C3234 1.399 . S
C3230 C3229 1.399 . S
C3230 C3231 1.376 . S
C3231 H3218 0.930 . S
C3231 C3230 1.376 . S
C3231 C3232 1.388 . S
C3232 H3219 0.930 . S
C3232 C3231 1.388 . S
C3232 C3233 1.390 . S
C3233 C3232 1.390 . S
C3233 C3234 1.394 . S
C3233 C3239 1.465 . S
C3234 C3229 1.399 . S
C3234 C3233 1.394 . S
C3234 C3235 1.516 . S
C3235 C3234 1.516 . S
C3235 C3236 1.502 . S
C3235 C3237 1.561 . S
C3235 C3238 1.526 . S
C3236 H3220 0.959 . S
C3236 H3221 0.959 . S
C3236 H3222 0.961 . S
C3236 C3235 1.502 . S
C3237 H3223 0.960 . S
C3237 H3224 0.961 . S
C3237 H3225 0.959 . S
C3237 C3235 1.561 . S
C3238 C3235 1.526 . S
C3238 C3239 1.396 . S
C3238 C3243 1.390 . S
C3239 C3233 1.465 . S
C3239 C3238 1.396 . S
C3239 C3240 1.399 . S
C3240 H3226 0.929 . S
C3240 C3239 1.399 . S
C3240 C3241 1.385 . S
C3241 H3227 0.931 . S
C3241 C3240 1.385 . S
C3241 C3242 1.389 . S
C3242 C3241 1.389 . S
C3242 C3243 1.387 . S
C3243 H3228 0.930 . S
C3243 C3238 1.390 . S
C3243 C3242 1.387 . S
H3244 C3256 0.930 . S
H3245 C3258 0.930 . S
H3246 C3259 0.930 . S
H3247 C3263 0.959 . S
H3248 C3263 0.959 . S
H3249 C3263 0.961 . S
H3250 C3264 0.960 . S
H3251 C3264 0.961 . S
H3252 C3264 0.959 . S
H3253 C3267 0.929 . S
H3254 C3268 0.931 . S
H3255 C3270 0.930 . S
C3256 H3244 0.930 . S
C3256 C3257 1.399 . S
C3256 C3261 1.399 . S
C3257 C3256 1.399 . S
C3257 C3258 1.376 . S
C3258 H3245 0.930 . S
C3258 C3257 1.376 . S
C3258 C3259 1.388 . S
C3259 H3246 0.930 . S
C3259 C3258 1.388 . S
C3259 C3260 1.390 . S
C3260 C3259 1.390 . S
C3260 C3261 1.394 . S
C3260 C3266 1.465 . S
C3261 C3256 1.399 . S
C3261 C3260 1.394 . S
C3261 C3262 1.516 . S
C3262 C3261 1.516 . S
C3262 C3263 1.502 . S
C3262 C3264 1.561 . S
C3262 C3265 1.526 . S
C3263 H3247 0.959 . S
C3263 H3248 0.959 . S
C3263 H3249 0.961 . S
C3263 C3262 1.502 . S
C3264 H3250 0.960 . S
C3264 H3251 0.961 . S
C3264 H3252 0.959 . S
C3264 C3262 1.561 . S
C3265 C3262 1.526 . S
C3265 C3266 1.396 . S
C3265 C3270 1.390 . S
C3266 C3260 1.465 . S
C3266 C3265 1.396 . S
C3266 C3267 1.399 . S
C3267 H3253 0.929 . S
C3267 C3266 1.399 . S
C3267 C3268 1.385 . S
C3268 H3254 0.931 . S
C3268 C3267 1.385 . S
C3268 C3269 1.389 . S
C3269 C3268 1.389 . S
C3269 C3270 1.387 . S
C3270 H3255 0.930 . S
C3270 C3265 1.390 . S
C3270 C3269 1.387 . S
H3271 C3283 0.930 . S
H3272 C3285 0.930 . S
H3273 C3286 0.930 . S
H3274 C3290 0.959 . S
H3275 C3290 0.959 . S
H3276 C3290 0.961 . S
H3277 C3291 0.960 . S
H3278 C3291 0.961 . S
H3279 C3291 0.959 . S
H3280 C3294 0.929 . S
H3281 C3295 0.931 . S
H3282 C3297 0.930 . S
C3283 H3271 0.930 . S
C3283 C3284 1.399 . S
C3283 C3288 1.399 . S
C3284 C3283 1.399 . S
C3284 C3285 1.376 . S
C3285 H3272 0.930 . S
C3285 C3284 1.376 . S
C3285 C3286 1.388 . S
C3286 H3273 0.930 . S
C3286 C3285 1.388 . S
C3286 C3287 1.390 . S
C3287 C3286 1.390 . S
C3287 C3288 1.394 . S
C3287 C3293 1.465 . S
C3288 C3283 1.399 . S
C3288 C3287 1.394 . S
C3288 C3289 1.516 . S
C3289 C3288 1.516 . S
C3289 C3290 1.502 . S
C3289 C3291 1.561 . S
C3289 C3292 1.526 . S
C3290 H3274 0.959 . S
C3290 H3275 0.959 . S
C3290 H3276 0.961 . S
C3290 C3289 1.502 . S
C3291 H3277 0.960 . S
C3291 H3278 0.961 . S
C3291 H3279 0.959 . S
C3291 C3289 1.561 . S
C3292 C3289 1.526 . S
C3292 C3293 1.396 . S
C3292 C3297 1.390 . S
C3293 C3287 1.465 . S
C3293 C3292 1.396 . S
C3293 C3294 1.399 . S
C3294 H3280 0.929 . S
C3294 C3293 1.399 . S
C3294 C3295 1.385 . S
C3295 H3281 0.931 . S
C3295 C3294 1.385 . S
C3295 C3296 1.389 . S
C3296 C3295 1.389 . S
C3296 C3297 1.387 . S
C3297 H3282 0.930 . S
C3297 C3292 1.390 . S
C3297 C3296 1.387 . S
H3298 C3310 0.930 . S
H3299 C3312 0.930 . S
H3300 C3313 0.930 . S
H3301 C3317 0.959 1_455 S
H3302 C3317 0.959 1_455 S
H3303 C3317 0.961 . S
H3304 C3318 0.960 . S
H3305 C3318 0.961 . S
H3306 C3318 0.959 . S
H3307 C3321 0.929 . S
H3308 C3322 0.931 . S
H3309 C3324 0.930 1_455 S
C3310 H3298 0.930 . S
C3310 C3311 1.399 . S
C3310 C3315 1.399 . S
C3311 C3310 1.399 . S
C3311 C3312 1.376 . S
C3312 H3299 0.930 . S
C3312 C3311 1.376 . S
C3312 C3313 1.388 . S
C3313 H3300 0.930 . S
C3313 C3312 1.388 . S
C3313 C3314 1.390 . S
C3314 C3313 1.390 . S
C3314 C3315 1.394 . S
C3314 C3320 1.465 . S
C3315 C3310 1.399 . S
C3315 C3314 1.394 . S
C3315 C3316 1.516 . S
C3316 C3315 1.516 . S
C3316 C3317 1.502 . S
C3316 C3318 1.561 . S
C3316 C3319 1.526 . S
C3317 H3301 0.959 1_655 S
C3317 H3302 0.959 1_655 S
C3317 H3303 0.961 . S
C3317 C3316 1.502 . S
C3318 H3304 0.960 . S
C3318 H3305 0.961 . S
C3318 H3306 0.959 . S
C3318 C3316 1.561 . S
C3319 C3316 1.526 . S
C3319 C3320 1.396 . S
C3319 C3324 1.390 . S
C3320 C3314 1.465 . S
C3320 C3319 1.396 . S
C3320 C3321 1.399 . S
C3321 H3307 0.929 . S
C3321 C3320 1.399 . S
C3321 C3322 1.385 . S
C3322 H3308 0.931 . S
C3322 C3321 1.385 . S
C3322 C3323 1.417 . S
C3323 C3322 1.417 . S
C3323 C3324 1.385 . S
C3324 H3309 0.930 1_655 S
C3324 C3319 1.390 . S
C3324 C3323 1.385 . S
H3325 C3337 0.930 . S
H3326 C3339 0.930 . S
H3327 C3340 0.930 . S
H3328 C3344 0.959 . S
H3329 C3344 0.959 . S
H3330 C3344 0.961 . S
H3331 C3345 0.960 . S
H3332 C3345 0.961 . S
H3333 C3345 0.959 . S
H3334 C3348 0.929 . S
H3335 C3349 0.931 . S
H3336 C3351 0.930 . S
C3337 H3325 0.930 . S
C3337 C3338 1.399 . S
C3337 C3342 1.399 . S
C3338 C3337 1.399 . S
C3338 C3339 1.376 . S
C3339 H3326 0.930 . S
C3339 C3338 1.376 . S
C3339 C3340 1.388 . S
C3340 H3327 0.930 . S
C3340 C3339 1.388 . S
C3340 C3341 1.390 . S
C3341 C3340 1.390 . S
C3341 C3342 1.394 . S
C3341 C3347 1.465 . S
C3342 C3337 1.399 . S
C3342 C3341 1.394 . S
C3342 C3343 1.516 . S
C3343 C3342 1.516 . S
C3343 C3344 1.502 . S
C3343 C3345 1.561 . S
C3343 C3346 1.526 . S
C3344 H3328 0.959 . S
C3344 H3329 0.959 . S
C3344 H3330 0.961 . S
C3344 C3343 1.502 . S
C3345 H3331 0.960 . S
C3345 H3332 0.961 . S
C3345 H3333 0.959 . S
C3345 C3343 1.561 . S
C3346 C3343 1.526 . S
C3346 C3347 1.396 . S
C3346 C3351 1.390 . S
C3347 C3341 1.465 . S
C3347 C3346 1.396 . S
C3347 C3348 1.399 . S
C3348 H3334 0.929 . S
C3348 C3347 1.399 . S
C3348 C3349 1.385 . S
C3349 H3335 0.931 . S
C3349 C3348 1.385 . S
C3349 C3350 1.389 . S
C3350 C3349 1.389 . S
C3350 C3351 1.387 . S
C3351 H3336 0.930 . S
C3351 C3346 1.390 . S
C3351 C3350 1.387 . S
H3352 C3364 0.930 . S
H3353 C3366 0.930 . S
H3354 C3367 0.930 . S
H3355 C3371 0.959 . S
H3356 C3371 0.959 . S
H3357 C3371 0.961 . S
H3358 C3372 0.960 . S
H3359 C3372 0.961 . S
H3360 C3372 0.959 . S
H3361 C3375 0.929 . S
H3362 C3376 0.931 . S
H3363 C3378 0.930 . S
C3364 H3352 0.930 . S
C3364 C3365 1.399 . S
C3364 C3369 1.399 . S
C3365 C3364 1.399 . S
C3365 C3366 1.376 . S
C3366 H3353 0.930 . S
C3366 C3365 1.376 . S
C3366 C3367 1.388 . S
C3367 H3354 0.930 . S
C3367 C3366 1.388 . S
C3367 C3368 1.390 . S
C3368 C3367 1.390 . S
C3368 C3369 1.394 . S
C3368 C3374 1.465 . S
C3369 C3364 1.399 . S
C3369 C3368 1.394 . S
C3369 C3370 1.516 . S
C3370 C3369 1.516 . S
C3370 C3371 1.502 . S
C3370 C3372 1.561 . S
C3370 C3373 1.526 . S
C3371 H3355 0.959 . S
C3371 H3356 0.959 . S
C3371 H3357 0.961 . S
C3371 C3370 1.502 . S
C3372 H3358 0.960 . S
C3372 H3359 0.961 . S
C3372 H3360 0.959 . S
C3372 C3370 1.561 . S
C3373 C3370 1.526 . S
C3373 C3374 1.396 . S
C3373 C3378 1.390 . S
C3374 C3368 1.465 . S
C3374 C3373 1.396 . S
C3374 C3375 1.399 . S
C3375 H3361 0.929 . S
C3375 C3374 1.399 . S
C3375 C3376 1.385 . S
C3376 H3362 0.931 . S
C3376 C3375 1.385 . S
C3376 C3377 1.389 . S
C3377 C3376 1.389 . S
C3377 C3378 1.387 . S
C3378 H3363 0.930 . S
C3378 C3373 1.390 . S
C3378 C3377 1.387 . S
H3379 C3391 0.930 . S
H3380 C3393 0.930 . S
H3381 C3394 0.930 . S
H3382 C3398 0.959 . S
H3383 C3398 0.959 1_545 S
H3384 C3398 0.961 . S
H3385 C3399 0.960 . S
H3386 C3399 0.961 1_545 S
H3387 C3399 0.959 . S
H3388 C3402 0.929 . S
H3389 C3403 0.931 . S
H3390 C3405 0.930 1_545 S
C3391 H3379 0.930 . S
C3391 C3392 1.399 . S
C3391 C3396 1.399 . S
C3392 C3391 1.399 . S
C3392 C3393 1.376 . S
C3393 H3380 0.930 . S
C3393 C3392 1.376 . S
C3393 C3394 1.388 . S
C3394 H3381 0.930 . S
C3394 C3393 1.388 . S
C3394 C3395 1.390 . S
C3395 C3394 1.390 . S
C3395 C3396 1.394 . S
C3395 C3401 1.465 . S
C3396 C3391 1.399 . S
C3396 C3395 1.394 . S
C3396 C3397 1.516 . S
C3397 C3396 1.516 . S
C3397 C3398 1.502 . S
C3397 C3399 1.561 . S
C3397 C3400 1.526 . S
C3398 H3382 0.959 . S
C3398 H3383 0.959 1_565 S
C3398 H3384 0.961 . S
C3398 C3397 1.502 . S
C3399 H3385 0.960 . S
C3399 H3386 0.961 1_565 S
C3399 H3387 0.959 . S
C3399 C3397 1.561 . S
C3400 C3397 1.526 . S
C3400 C3401 1.396 . S
C3400 C3405 1.390 . S
C3401 C3395 1.465 . S
C3401 C3400 1.396 . S
C3401 C3402 1.399 . S
C3402 H3388 0.929 . S
C3402 C3401 1.399 . S
C3402 C3403 1.385 . S
C3403 H3389 0.931 . S
C3403 C3402 1.385 . S
C3403 C3404 1.389 . S
C3404 C3403 1.389 . S
C3404 C3405 1.387 . S
C3405 H3390 0.930 1_565 S
C3405 C3400 1.390 . S
C3405 C3404 1.387 . S
H3406 C3418 0.930 . S
H3407 C3420 0.930 . S
H3408 C3421 0.930 . S
H3409 C3425 0.959 . S
H3410 C3425 0.959 . S
H3411 C3425 0.961 . S
H3412 C3426 0.960 . S
H3413 C3426 0.961 . S
H3414 C3426 0.959 . S
H3415 C3429 0.929 . S
H3416 C3430 0.931 . S
H3417 C3432 0.930 . S
C3418 H3406 0.930 . S
C3418 C3419 1.399 . S
C3418 C3423 1.399 . S
C3419 C3418 1.399 . S
C3419 C3420 1.376 . S
C3420 H3407 0.930 . S
C3420 C3419 1.376 . S
C3420 C3421 1.388 . S
C3421 H3408 0.930 . S
C3421 C3420 1.388 . S
C3421 C3422 1.390 . S
C3422 C3421 1.390 . S
C3422 C3423 1.394 . S
C3422 C3428 1.465 . S
C3423 C3418 1.399 . S
C3423 C3422 1.394 . S
C3423 C3424 1.516 . S
C3424 C3423 1.516 . S
C3424 C3425 1.502 . S
C3424 C3426 1.561 . S
C3424 C3427 1.526 . S
C3425 H3409 0.959 . S
C3425 H3410 0.959 . S
C3425 H3411 0.961 . S
C3425 C3424 1.502 . S
C3426 H3412 0.960 . S
C3426 H3413 0.961 . S
C3426 H3414 0.959 . S
C3426 C3424 1.561 . S
C3427 C3424 1.526 . S
C3427 C3428 1.396 . S
C3427 C3432 1.390 . S
C3428 C3422 1.465 . S
C3428 C3427 1.396 . S
C3428 C3429 1.399 . S
C3429 H3415 0.929 . S
C3429 C3428 1.399 . S
C3429 C3430 1.385 . S
C3430 H3416 0.931 . S
C3430 C3429 1.385 . S
C3430 C3431 1.389 . S
C3431 C3430 1.389 . S
C3431 C3432 1.387 . S
C3432 H3417 0.930 . S
C3432 C3427 1.390 . S
C3432 C3431 1.387 . S
H3433 C3445 0.930 . S
H3434 C3447 0.930 . S
H3435 C3448 0.930 . S
H3436 C3452 0.959 . S
H3437 C3452 0.959 . S
H3438 C3452 0.961 . S
H3439 C3453 0.960 . S
H3440 C3453 0.961 . S
H3441 C3453 0.959 . S
H3442 C3456 0.929 . S
H3443 C3457 0.931 . S
H3444 C3459 0.930 . S
C3445 H3433 0.930 . S
C3445 C3446 1.399 . S
C3445 C3450 1.399 . S
C3446 C3445 1.399 . S
C3446 C3447 1.376 . S
C3447 H3434 0.930 . S
C3447 C3446 1.376 . S
C3447 C3448 1.388 . S
C3448 H3435 0.930 . S
C3448 C3447 1.388 . S
C3448 C3449 1.390 . S
C3449 C3448 1.390 . S
C3449 C3450 1.394 . S
C3449 C3455 1.465 . S
C3450 C3445 1.399 . S
C3450 C3449 1.394 . S
C3450 C3451 1.516 . S
C3451 C3450 1.516 . S
C3451 C3452 1.502 . S
C3451 C3453 1.561 . S
C3451 C3454 1.526 . S
C3452 H3436 0.959 . S
C3452 H3437 0.959 . S
C3452 H3438 0.961 . S
C3452 C3451 1.502 . S
C3453 H3439 0.960 . S
C3453 H3440 0.961 . S
C3453 H3441 0.959 . S
C3453 C3451 1.561 . S
C3454 C3451 1.526 . S
C3454 C3455 1.396 . S
C3454 C3459 1.390 . S
C3455 C3449 1.465 . S
C3455 C3454 1.396 . S
C3455 C3456 1.399 . S
C3456 H3442 0.929 . S
C3456 C3455 1.399 . S
C3456 C3457 1.385 . S
C3457 H3443 0.931 . S
C3457 C3456 1.385 . S
C3457 C3458 1.389 . S
C3458 C3457 1.389 . S
C3458 C3459 1.387 . S
C3459 H3444 0.930 . S
C3459 C3454 1.390 . S
C3459 C3458 1.387 . S
H3460 C3472 0.930 . S
H3461 C3474 0.930 . S
H3462 C3475 0.930 . S
H3463 C3479 0.959 . S
H3464 C3479 0.959 . S
H3465 C3479 0.961 . S
H3466 C3480 0.960 . S
H3467 C3480 0.961 . S
H3468 C3480 0.959 . S
H3469 C3483 0.929 . S
H3470 C3484 0.931 . S
H3471 C3486 0.930 . S
C3472 H3460 0.930 . S
C3472 C3473 1.399 . S
C3472 C3477 1.399 . S
C3473 C3472 1.399 . S
C3473 C3474 1.376 . S
C3474 H3461 0.930 . S
C3474 C3473 1.376 . S
C3474 C3475 1.388 . S
C3475 H3462 0.930 . S
C3475 C3474 1.388 . S
C3475 C3476 1.390 . S
C3476 C3475 1.390 . S
C3476 C3477 1.394 . S
C3476 C3482 1.465 . S
C3477 C3472 1.399 . S
C3477 C3476 1.394 . S
C3477 C3478 1.516 . S
C3478 C3477 1.516 . S
C3478 C3479 1.502 . S
C3478 C3480 1.561 . S
C3478 C3481 1.526 . S
C3479 H3463 0.959 . S
C3479 H3464 0.959 . S
C3479 H3465 0.961 . S
C3479 C3478 1.502 . S
C3480 H3466 0.960 . S
C3480 H3467 0.961 . S
C3480 H3468 0.959 . S
C3480 C3478 1.561 . S
C3481 C3478 1.526 . S
C3481 C3482 1.396 . S
C3481 C3486 1.390 . S
C3482 C3476 1.465 . S
C3482 C3481 1.396 . S
C3482 C3483 1.399 . S
C3483 H3469 0.929 . S
C3483 C3482 1.399 . S
C3483 C3484 1.385 . S
C3484 H3470 0.931 . S
C3484 C3483 1.385 . S
C3484 C3485 1.389 . S
C3485 C3484 1.389 . S
C3485 C3486 1.387 . S
C3486 H3471 0.930 . S
C3486 C3481 1.390 . S
C3486 C3485 1.387 . S
H3487 C3499 0.930 . S
H3488 C3501 0.930 . S
H3489 C3502 0.930 . S
H3490 C3506 0.959 . S
H3491 C3506 0.959 1_556 S
H3492 C3506 0.961 1_556 S
H3493 C3507 0.960 . S
H3494 C3507 0.961 . S
H3495 C3507 0.959 1_554 S
H3496 C3510 0.929 . S
H3497 C3511 0.931 . S
H3498 C3513 0.930 . S
C3499 H3487 0.930 . S
C3499 C3500 1.399 . S
C3499 C3504 1.399 . S
C3500 C3499 1.399 . S
C3500 C3501 1.376 . S
C3501 H3488 0.930 . S
C3501 C3500 1.376 . S
C3501 C3502 1.388 . S
C3502 H3489 0.930 . S
C3502 C3501 1.388 . S
C3502 C3503 1.390 . S
C3503 C3502 1.390 . S
C3503 C3504 1.394 . S
C3503 C3509 1.465 . S
C3504 C3499 1.399 . S
C3504 C3503 1.394 . S
C3504 C3505 1.516 . S
C3505 C3504 1.516 . S
C3505 C3506 1.502 . S
C3505 C3507 1.561 1_554 S
C3505 C3508 1.526 . S
C3506 H3490 0.959 . S
C3506 H3491 0.959 1_554 S
C3506 H3492 0.961 1_554 S
C3506 C3505 1.502 . S
C3507 H3493 0.960 . S
C3507 H3494 0.961 . S
C3507 H3495 0.959 1_556 S
C3507 C3505 1.561 1_556 S
C3508 C3505 1.526 . S
C3508 C3509 1.396 . S
C3508 C3513 1.390 . S
C3509 C3503 1.465 . S
C3509 C3508 1.396 . S
C3509 C3510 1.399 . S
C3510 H3496 0.929 . S
C3510 C3509 1.399 . S
C3510 C3511 1.385 . S
C3511 H3497 0.931 . S
C3511 C3510 1.385 . S
C3511 C3512 1.389 . S
C3512 C3511 1.389 . S
C3512 C3513 1.387 . S
C3513 H3498 0.930 . S
C3513 C3508 1.390 . S
C3513 C3512 1.387 . S
H3514 C3526 0.930 . S
H3515 C3528 0.930 . S
H3516 C3529 0.930 . S
H3517 C3533 0.959 . S
H3518 C3533 0.959 . S
H3519 C3533 0.961 . S
H3520 C3534 0.960 . S
H3521 C3534 0.961 . S
H3522 C3534 0.959 . S
H3523 C3537 0.929 . S
H3524 C3538 0.931 . S
H3525 C3540 0.930 . S
C3526 H3514 0.930 . S
C3526 C3527 1.399 . S
C3526 C3531 1.399 . S
C3527 C3526 1.399 . S
C3527 C3528 1.376 . S
C3528 H3515 0.930 . S
C3528 C3527 1.376 . S
C3528 C3529 1.388 . S
C3529 H3516 0.930 . S
C3529 C3528 1.388 . S
C3529 C3530 1.390 . S
C3530 C3529 1.390 . S
C3530 C3531 1.394 . S
C3530 C3536 1.465 . S
C3531 C3526 1.399 . S
C3531 C3530 1.394 . S
C3531 C3532 1.516 . S
C3532 C3531 1.516 . S
C3532 C3533 1.502 . S
C3532 C3534 1.561 . S
C3532 C3535 1.526 . S
C3533 H3517 0.959 . S
C3533 H3518 0.959 . S
C3533 H3519 0.961 . S
C3533 C3532 1.502 . S
C3534 H3520 0.960 . S
C3534 H3521 0.961 . S
C3534 H3522 0.959 . S
C3534 C3532 1.561 . S
C3535 C3532 1.526 . S
C3535 C3536 1.396 . S
C3535 C3540 1.390 . S
C3536 C3530 1.465 . S
C3536 C3535 1.396 . S
C3536 C3537 1.399 . S
C3537 H3523 0.929 . S
C3537 C3536 1.399 . S
C3537 C3538 1.385 . S
C3538 H3524 0.931 . S
C3538 C3537 1.385 . S
C3538 C3539 1.389 . S
C3539 C3538 1.389 . S
C3539 C3540 1.387 . S
C3540 H3525 0.930 . S
C3540 C3535 1.390 . S
C3540 C3539 1.387 . S
H3541 C3553 0.930 . S
H3542 C3555 0.930 . S
H3543 C3556 0.930 . S
H3544 C3560 0.959 . S
H3545 C3560 0.959 . S
H3546 C3560 0.961 . S
H3547 C3561 0.960 . S
H3548 C3561 0.961 . S
H3549 C3561 0.959 . S
H3550 C3564 0.929 . S
H3551 C3565 0.931 . S
H3552 C3567 0.930 . S
C3553 H3541 0.930 . S
C3553 C3554 1.399 . S
C3553 C3558 1.399 . S
C3554 C3553 1.399 . S
C3554 C3555 1.376 . S
C3555 H3542 0.930 . S
C3555 C3554 1.376 . S
C3555 C3556 1.388 . S
C3556 H3543 0.930 . S
C3556 C3555 1.388 . S
C3556 C3557 1.390 . S
C3557 C3556 1.390 . S
C3557 C3558 1.394 . S
C3557 C3563 1.465 . S
C3558 C3553 1.399 . S
C3558 C3557 1.394 . S
C3558 C3559 1.516 . S
C3559 C3558 1.516 . S
C3559 C3560 1.502 . S
C3559 C3561 1.561 . S
C3559 C3562 1.526 . S
C3560 H3544 0.959 . S
C3560 H3545 0.959 . S
C3560 H3546 0.961 . S
C3560 C3559 1.502 . S
C3561 H3547 0.960 . S
C3561 H3548 0.961 . S
C3561 H3549 0.959 . S
C3561 C3559 1.561 . S
C3562 C3559 1.526 . S
C3562 C3563 1.396 . S
C3562 C3567 1.390 . S
C3563 C3557 1.465 . S
C3563 C3562 1.396 . S
C3563 C3564 1.399 . S
C3564 H3550 0.929 . S
C3564 C3563 1.399 . S
C3564 C3565 1.385 . S
C3565 H3551 0.931 . S
C3565 C3564 1.385 . S
C3565 C3566 1.389 . S
C3566 C3565 1.389 . S
C3566 C3567 1.387 . S
C3567 H3552 0.930 . S
C3567 C3562 1.390 . S
C3567 C3566 1.387 . S
C989 C106 2.569 . S
C1001 C367 2.522 . S
C1016 C65 1.790 . S
C1028 C378 1.783 . S
C1043 C79 2.036 . S
C1055 C447 2.020 . S
C1082 C460 1.035 . S
C1070 C90 1.034 . S
C1097 C21 2.276 . S
C1109 C516 2.288 . S
C1136 C567 2.100 . S
C1124 C35 2.111 . S
C1163 C596 2.434 . S
C1151 C50 2.443 . S
C1178 C6 2.432 . S
C1190 C647 2.391 . S
C1217 C338 1.585 . S
C1205 C232 1.636 . S
C1232 C245 0.958 . S
C1244 C380 0.839 . S
C1271 C418 1.092 . S
C1259 C274 1.052 . S
C1298 C487 1.708 . S
C1286 C175 1.654 . S
C1313 C231 0.488 . S
C1325 C521 0.562 . S
C1352 C538 1.402 . S
C1340 C246 1.370 . S
C1379 C601 0.351 . S
C1367 C273 0.453 . S
C1406 C618 2.212 . S
C1394 C176 2.221 . S
C1433 C340 1.776 . S
C1421 C160 1.801 . S
C1448 C289 1.624 . S
C1460 C679 1.541 . S
C1487 C700 1.598 . S
C1475 C328 1.533 . S
C1514 C759 0.614 . S
C1502 C317 0.536 . S
C1529 C118 1.111 . S
C1541 C620 1.190 . S
C1556 C132 1.412 . S
C1568 C420 1.444 . S
C1583 C331 0.999 . S
C1595 C778 1.028 . S
C1622 C847 1.205 . S
C1610 C303 1.242 . S
C1649 C356 2.115 1_565 S
C1637 C63 2.115 . S
C1676 C839 2.283 . S
C1664 C107 2.221 . S
C1691 C92 1.845 . S
C1703 C436 1.851 . S
C1718 C78 1.471 . S
C1730 C801 1.470 . S
C1757 C527 2.927 . S
C1745 C8 2.920 . S
C1772 C51 2.264 . S
C1784 C716 2.229 . S
C1811 C607 2.769 1_556 S
C1799 C37 2.748 . S
C1838 C876 2.359 . S
C1826 C20 2.403 . S
C1865 C359 1.265 1_556 S
C1853 C147 1.258 . S
C1892 C841 1.142 . S
C1880 C316 1.125 . S
C1907 C119 1.040 . S
C1919 C439 1.096 . S
C1934 C288 1.789 . S
C1946 C796 1.837 . S
C1961 C148 0.746 . S
C1973 C500 0.725 . S
C2000 C719 1.457 . S
C1988 C315 1.350 . S
C2015 C120 0.514 . S
C2027 C580 0.501 . S
C2042 C287 2.158 . S
C2054 C879 2.152 . S
C2069 C188 1.577 . S
C2081 C361 1.484 . S
C2096 C177 1.867 . S
C2108 C658 1.836 . S
C2123 C258 1.436 . S
C2135 C561 1.512 . S
C2150 C247 0.622 . S
C2162 C738 0.602 . S
C2189 C881 0.910 . S
C2177 C272 1.047 . S
C2204 C216 1.297 . S
C2216 C441 1.240 . S
C2243 C479 1.295 . S
C2231 C261 1.281 . S
C2270 C396 1.149 . S
C2258 C205 1.134 . S
C2285 C76 2.137 . S
C2297 C927 2.131 . S
C2324 C818 1.874 . S
C2312 C93 1.873 . S
C2339 C105 1.594 . S
C2351 C967 1.644 . S
C2366 C62 1.019 . S
C2378 C780 1.011 . S
C2393 C49 2.193 . S
C2405 C676 2.268 . S
C2432 C727 2.496 . S
C2420 C9 2.517 . S
C2459 C756 2.342 . S
C2447 C22 2.379 . S
C2486 C887 2.754 . S
C2474 C36 2.825 . S
C2513 C898 1.504 . S
C2501 C260 1.537 . S
C2528 C189 0.832 . S
C2540 C820 0.812 . S
C2567 C938 1.026 . S
C2555 C204 0.991 . S
C2594 C807 1.508 . S
C2582 C217 1.525 . S
C2621 C681 0.624 . S
C2609 C259 0.692 . S
C2636 C190 1.460 . S
C2648 C698 1.482 . S
C2675 C761 0.442 . S
C2663 C203 0.539 . S
C2690 C218 2.272 . S
C2702 C858 2.249 . S
C2729 C900 1.729 . S
C2717 C314 1.842 . S
C2744 C135 1.676 . S
C2756 C519 1.652 . S
C2783 C540 1.516 . S
C2771 C146 1.562 1_565 S
C2810 C599 0.702 . S
C2798 C163 0.637 . S
C2837 C860 1.230 . S
C2825 C300 1.098 . S
C2852 C286 1.438 . S
C2864 C940 1.382 . S
C2891 C458 0.899 . S
C2879 C149 0.932 . S
C2918 C407 1.132 . S
C2906 C121 1.221 . S
C2933 C91 2.112 . S
C2945 C916 2.138 . S
C2972 C399 1.877 . S
C2960 C77 1.784 . S
C2987 C64 1.825 . S
C2999 C956 1.834 . S
C3014 C104 1.171 . S
C3026 C481 1.119 . S
C3041 C34 2.464 . S
C3053 C687 2.529 . S
C3080 C556 2.203 . S
C3068 C23 2.219 . S
C3095 C7 2.282 . S
C3107 C767 2.379 . S
C3122 C48 2.375 . S
C3134 C636 2.336 . S
C3161 C919 1.259 . S
C3149 C329 1.178 . S
C3176 C162 1.141 . S
C3188 C401 1.076 . S
C3215 C959 1.079 . S
C3203 C301 1.092 . S
C3230 C134 1.816 . S
C3242 C476 1.846 . S
C3257 C330 0.760 . S
C3269 C660 0.745 . S
C3296 C559 1.429 . S
C3284 C161 1.394 . S
C3311 C302 0.538 . S
C3323 C740 0.531 1_655 S
C3350 C639 2.088 . S
C3338 C133 2.129 . S
C3377 C921 1.579 . S
C3365 C244 1.686 . S
C3404 C498 1.807 1_665 S
C3392 C219 1.863 . S
C3419 C230 1.414 . S
C3431 C721 1.313 . S
C3458 C578 0.653 . S
C3446 C191 0.542 . S
C3473 C202 1.140 . S
C3485 C641 1.026 . S
C3500 C174 1.449 . S
C3512 C961 1.414 . S
C3539 C799 1.254 . S
C3527 C233 1.252 . S
C3566 C836 1.170 . S
C3554 C275 1.196 . S
