# Generated by pormake.
# Topology rtl, (3,6)-cn, num edge types: 1
# Building blocks:
#     Node 0, Type 0, BuildingBlock: OLANEW_clean_sbu_2, # of connection points: 3
#     Node 1, Type 0, BuildingBlock: OLANEW_clean_sbu_2, # of connection points: 3
#     Node 2, Type 0, BuildingBlock: OLANEW_clean_sbu_2, # of connection points: 3
#     Node 3, Type 0, BuildingBlock: OLANEW_clean_sbu_2, # of connection points: 3
#     Node 4, Type 1, BuildingBlock: KUMBUR_clean_sbu_1, # of connection points: 6
#     Node 5, Type 1, BuildingBlock: KUMBUR_clean_sbu_1, # of connection points: 6
#     Edge 6, Type (0, 1), BuildingBlock: FUNLAD_clean_linker_0, # of connection points: 2
#     Edge 7, Type (0, 1), BuildingBlock: FUNLAD_clean_linker_0, # of connection points: 2
#     Edge 8, Type (0, 1), BuildingBlock: FUNLAD_clean_linker_0, # of connection points: 2
#     Edge 9, Type (0, 1), BuildingBlock: FUNLAD_clean_linker_0, # of connection points: 2
#     Edge 10, Type (0, 1), BuildingBlock: FUNLAD_clean_linker_0, # of connection points: 2
#     Edge 11, Type (0, 1), BuildingBlock: FUNLAD_clean_linker_0, # of connection points: 2
#     Edge 12, Type (0, 1), BuildingBlock: FUNLAD_clean_linker_0, # of connection points: 2
#     Edge 13, Type (0, 1), BuildingBlock: FUNLAD_clean_linker_0, # of connection points: 2
#     Edge 14, Type (0, 1), BuildingBlock: FUNLAD_clean_linker_0, # of connection points: 2
#     Edge 15, Type (0, 1), BuildingBlock: FUNLAD_clean_linker_0, # of connection points: 2
#     Edge 16, Type (0, 1), BuildingBlock: FUNLAD_clean_linker_0, # of connection points: 2
#     Edge 17, Type (0, 1), BuildingBlock: FUNLAD_clean_linker_0, # of connection points: 2
# Relax obj value: 0.041
# Max RMSD: 0.161
# Mean RMSD: 0.128
data_MOF--net-rtl--node1-OLANEW_clean_sbu_2--node2-KUMBUR_clean_sbu_1--edge1-FUNLAD_clean_linker_0
_symmetry_space_group_name_H-M    P1
_symmetry_Int_Tables_number       1
_symmetry_cell_setting            triclinic
loop_
_symmetry_equiv_pos_as_xyz
'x, y, z'
_cell_length_a     43.059251
_cell_length_b     42.872333
_cell_length_c     33.144016
_cell_angle_alpha  77.383726
_cell_angle_beta   102.22343
_cell_angle_gamma 90.976589
loop_
_atom_site_label
_atom_site_type_symbol
_atom_site_fract_x
_atom_site_fract_y
_atom_site_fract_z
_atom_type_partial_charge
O0 O 0.22676 0.85683 0.9821 0.0
Cd1 Cd 0.26093 0.82963 0.04937 0.0
O2 O 0.22763 0.90342 0.9998 0.0
Cd3 Cd 0.2522 0.88472 0.0647 0.0
O4 O 0.23525 0.88467 0.12188 0.0
C5 C 0.21082 0.90287 0.11507 0.0
O6 O 0.19947 0.91912 0.07634 0.0
C7 C 0.21841 0.8863 0.97298 0.0
C8 C 0.30397 0.78458 0.04098 0.0
O9 O 0.27471 0.77816 0.0402 0.0
O10 O 0.31306 0.81249 0.04539 0.0
O11 O 0.65587 0.72941 0.68725 0.0
Cd12 Cd 0.67744 0.76156 0.62797 0.0
O13 O 0.65317 0.68926 0.6553 0.0
Cd14 Cd 0.67113 0.71185 0.59967 0.0
O15 O 0.65335 0.70194 0.53737 0.0
C16 C 0.63259 0.68052 0.53903 0.0
O17 O 0.62536 0.66828 0.57572 0.0
C18 C 0.64813 0.70079 0.68561 0.0
C19 C 0.73493 0.794 0.63817 0.0
O20 O 0.70844 0.80802 0.63639 0.0
O21 O 0.73455 0.76417 0.63762 0.0
O22 O 0.76969 0.14259 0.1259 0.0
Cd23 Cd 0.73526 0.16506 0.05646 0.0
O24 O 0.81431 0.14763 0.1029 0.0
Cd25 Cd 0.79036 0.16068 0.03652 0.0
O26 O 0.79372 0.14101 0.98225 0.0
C27 C 0.81846 0.12312 0.99015 0.0
O28 O 0.83761 0.11929 0.02758 0.0
C29 C 0.7998 0.13979 0.133 0.0
C30 C 0.70404 0.2236 0.04839 0.0
O31 O 0.69524 0.19751 0.0695 0.0
O32 O 0.72811 0.22244 0.03163 0.0
O33 O 0.35753 0.27215 0.53297 0.0
Cd34 Cd 0.33035 0.24975 0.47264 0.0
O35 O 0.34093 0.3213 0.5004 0.0
Cd36 Cd 0.33006 0.30955 0.43826 0.0
O37 O 0.35103 0.31898 0.38243 0.0
C38 C 0.37566 0.33576 0.38677 0.0
O39 O 0.38536 0.34472 0.42275 0.0
C40 C 0.35502 0.30159 0.53348 0.0
C41 C 0.28013 0.20907 0.48796 0.0
O42 O 0.30901 0.1985 0.49699 0.0
O43 O 0.27485 0.23906 0.47224 0.0
Tb44 Tb 0.02009 0.96955 0.53013 0.0
C45 C 0.96361 0.10405 0.52489 0.0
N46 N 0.99181 0.08973 0.54733 0.0
C47 C 0.01847 0.13877 0.52918 0.0
C48 C 0.96187 0.13628 0.5029 0.0
C49 C 0.01901 0.10674 0.55048 0.0
C50 C 0.98981 0.15358 0.50511 0.0
C51 C 0.9069 0.09973 0.49966 0.0
C52 C 0.93653 0.0859 0.52299 0.0
C53 C 0.90501 0.13185 0.47765 0.0
C54 C 0.93243 0.15005 0.4792 0.0
Tb55 Tb 0.98938 0.03745 0.58068 0.0
N56 N 0.93946 0.05453 0.54342 0.0
C57 C 0.88004 0.08089 0.49937 0.0
C58 C 0.91305 0.03678 0.5455 0.0
C59 C 0.88308 0.04941 0.52291 0.0
H60 H 0.04104 0.09596 0.57034 0.0
H61 H 0.86227 0.03502 0.52426 0.0
H62 H 0.97186 0.90877 0.54502 0.0
H63 H 0.14721 0.97926 0.58301 0.0
H64 H 0.91463 0.01333 0.56563 0.0
H65 H 0.85679 0.09062 0.48195 0.0
H66 H 0.09398 0.99799 0.54259 0.0
H67 H 0.04012 0.15209 0.53164 0.0
H68 H 0.88246 0.14284 0.45938 0.0
H69 H 0.93061 0.17476 0.46199 0.0
H70 H 0.97654 0.85209 0.58248 0.0
H71 H 0.98949 0.17839 0.48863 0.0
H72 H 0.15603 0.92374 0.62512 0.0
N73 N 0.02112 0.91712 0.56405 0.0
C74 C 0.05023 0.90427 0.58508 0.0
C75 C 0.99743 0.86655 0.58365 0.0
C76 C 0.05402 0.87194 0.60675 0.0
C77 C 0.99481 0.8988 0.56286 0.0
C78 C 0.02715 0.85305 0.60571 0.0
N79 N 0.07127 0.9554 0.56583 0.0
C80 C 0.09666 0.97464 0.56299 0.0
C81 C 0.10657 0.91181 0.60865 0.0
C82 C 0.0761 0.92409 0.58628 0.0
C83 C 0.13223 0.93223 0.60837 0.0
C84 C 0.1273 0.96366 0.58494 0.0
H85 H 0.02907 0.82808 0.6219 0.0
H86 H 0.0877 0.83491 0.64609 0.0
H87 H 0.13374 0.86976 0.64759 0.0
O88 O 0.0432 0.97521 0.47801 0.0
O89 O 0.02655 0.95949 0.59974 0.0
O90 O 0.0322 0.00926 0.61492 0.0
O91 O 0.00898 0.93808 0.48953 0.0
O92 O 0.03876 0.01818 0.51624 0.0
O93 O 0.0394 0.03703 0.57654 0.0
O94 O 0.96556 0.03171 0.63216 0.0
O95 O 0.98171 0.0459 0.51121 0.0
O96 O 0.97628 0.99622 0.49505 0.0
O97 O 0.99931 0.06934 0.62076 0.0
O98 O 0.96859 0.98969 0.59356 0.0
O99 O 0.97026 0.96816 0.53556 0.0
C100 C 0.03466 0.97803 0.62687 0.0
C101 C 0.03104 0.93936 0.42807 0.0
C102 C 0.05772 0.93666 0.37092 0.0
C103 C 0.03465 0.91585 0.3565 0.0
C104 C 0.00824 0.91838 0.41304 0.0
C105 C 0.01007 0.90679 0.37748 0.0
C106 C 0.05596 0.94856 0.40677 0.0
C107 C 0.04914 0.03787 0.5413 0.0
C108 C 0.02809 0.95118 0.46577 0.0
C109 C 0.08431 0.85969 0.62921 0.0
C110 C 0.11051 0.87957 0.63018 0.0
C111 C 0.9711 0.02732 0.48486 0.0
C112 C 0.97425 0.06997 0.67912 0.0
C113 C 0.95072 0.06847 0.74025 0.0
C114 C 0.96403 0.09802 0.74433 0.0
C115 C 0.98722 0.09965 0.68383 0.0
C116 C 0.95562 0.05445 0.70736 0.0
C117 C 0.98206 0.11353 0.71618 0.0
C118 C 0.95927 0.96903 0.56949 0.0
C119 C 0.97922 0.05678 0.64331 0.0
H120 H 0.03583 0.90645 0.32902 0.0
H121 H 0.9888 0.91096 0.42868 0.0
H122 H 0.9924 0.89066 0.3662 0.0
H123 H 0.07385 0.96455 0.41801 0.0
H124 H 0.96014 0.10927 0.76921 0.0
H125 H 1.00113 0.11243 0.66216 0.0
H126 H 0.9451 0.03177 0.70392 0.0
H127 H 0.99196 0.13647 0.71933 0.0
Tb128 Tb 0.46887 0.4895 0.98367 0.0
C129 C 0.59945 0.55144 0.04152 0.0
N130 N 0.58679 0.52295 0.05575 0.0
C131 C 0.63676 0.496 0.06305 0.0
C132 C 0.63098 0.55308 0.03565 0.0
C133 C 0.6055 0.49567 0.06872 0.0
C134 C 0.64943 0.52476 0.0458 0.0
C135 C 0.59387 0.60929 0.02138 0.0
C136 C 0.58109 0.57921 0.0345 0.0
C137 C 0.6249 0.61096 0.01409 0.0
C138 C 0.6434 0.58292 0.02118 0.0
Tb139 Tb 0.53619 0.52594 0.06564 0.0
N140 N 0.55107 0.57674 0.04171 0.0
C141 C 0.57531 0.63683 0.01683 0.0
C142 C 0.53327 0.60355 0.0387 0.0
C143 C 0.54504 0.63394 0.026 0.0
H144 H 0.59705 0.47375 0.08494 0.0
H145 H 0.53079 0.65512 0.02341 0.0
H146 H 0.40628 0.54166 0.95564 0.0
H147 H 0.47378 0.3618 0.03918 0.0
H148 H 0.51035 0.60175 0.04693 0.0
H149 H 0.58432 0.66039 0.00695 0.0
H150 H 0.49371 0.41445 0.0092 0.0
H151 H 0.65127 0.47418 0.07289 0.0
H152 H 0.63504 0.63385 0.00372 0.0
H153 H 0.66752 0.58464 0.01629 0.0
H154 H 0.35278 0.54332 0.96967 0.0
H155 H 0.6738 0.52501 0.04193 0.0
H156 H 0.42139 0.35861 0.05918 0.0
N157 N 0.41815 0.49467 0.99355 0.0
C158 C 0.40612 0.46728 0.01307 0.0
C159 C 0.36777 0.52197 0.98291 0.0
C160 C 0.37476 0.46656 0.01961 0.0
C161 C 0.3987 0.52126 0.97618 0.0
C162 C 0.35591 0.49466 0.00535 0.0
N163 N 0.45402 0.44058 0.01509 0.0
C164 C 0.47121 0.41319 0.01885 0.0
C165 C 0.41185 0.40976 0.03998 0.0
C166 C 0.42434 0.43918 0.02324 0.0
C167 C 0.43021 0.38172 0.04657 0.0
C168 C 0.45984 0.38341 0.0354 0.0
H169 H 0.33168 0.49509 0.00967 0.0
H170 H 0.33871 0.4366 0.04362 0.0
H171 H 0.37119 0.38686 0.06139 0.0
O172 O 0.48089 0.46735 0.93775 0.0
O173 O 0.47956 0.46663 0.05148 0.0
O174 O 0.49083 0.50984 0.08048 0.0
O175 O 0.43342 0.48527 0.931 0.0
O176 O 0.51915 0.47501 0.99458 0.0
O177 O 0.54037 0.47537 0.06445 0.0
O178 O 0.54738 0.55245 0.11333 0.0
O179 O 0.53997 0.5345 0.99849 0.0
O180 O 0.48935 0.53391 0.95568 0.0
O181 O 0.55945 0.50141 0.12673 0.0
O182 O 0.48856 0.54812 0.05063 0.0
O183 O 0.46104 0.54043 0.98481 0.0
C184 C 0.48199 0.48032 0.08363 0.0
C185 C 0.44752 0.47684 0.86902 0.0
C186 C 0.43674 0.45616 0.80467 0.0
C187 C 0.43341 0.48763 0.78048 0.0
C188 C 0.44407 0.50819 0.84455 0.0
C189 C 0.43703 0.51349 0.80038 0.0
C190 C 0.4438 0.4509 0.84897 0.0
C191 C 0.53813 0.46275 0.03115 0.0
C192 C 0.45205 0.47014 0.91524 0.0
C193 C 0.3627 0.43755 0.03822 0.0
C194 C 0.38117 0.4092 0.04826 0.0
C195 C 0.51896 0.54337 0.96235 0.0
C196 C 0.57475 0.52833 0.18538 0.0
C197 C 0.57999 0.55283 0.24628 0.0
C198 C 0.6026 0.52889 0.26972 0.0
C199 C 0.59743 0.50464 0.20942 0.0
C200 C 0.56632 0.55279 0.20382 0.0
C201 C 0.61138 0.50509 0.25127 0.0
C202 C 0.46653 0.55651 0.01551 0.0
C203 C 0.56049 0.52746 0.14113 0.0
H204 H 0.42725 0.49215 0.74624 0.0
H205 H 0.44625 0.52842 0.85956 0.0
H206 H 0.43388 0.53768 0.78149 0.0
H207 H 0.44569 0.42661 0.86779 0.0
H208 H 0.61363 0.52877 0.30234 0.0
H209 H 0.6046 0.48591 0.19573 0.0
H210 H 0.54885 0.57125 0.18565 0.0
H211 H 0.62902 0.48689 0.26951 0.0
C212 C 0.22181 0.19781 0.48083 0.0
C213 C 0.25378 0.18715 0.49533 0.0
C214 C 0.1971 0.17698 0.48802 0.0
C215 C 0.20383 0.14492 0.50992 0.0
C216 C 0.23581 0.13444 0.52434 0.0
C217 C 0.26043 0.15517 0.517 0.0
C218 C 0.17862 0.12198 0.52019 0.0
C219 C 0.1476 0.12578 0.50061 0.0
C220 C 0.12289 0.10254 0.51183 0.0
C221 C 0.09499 0.10115 0.48131 0.0
C222 C 0.07123 0.07974 0.49066 0.0
C223 C 0.07447 0.05997 0.53113 0.0
H224 H 0.1466 0.08348 0.57733 0.0
C225 C 0.10187 0.06178 0.56208 0.0
C226 C 0.12598 0.08263 0.5525 0.0
H227 H 0.10479 0.04675 0.59358 0.0
H228 H 0.21584 0.22231 0.464 0.0
H229 H 0.17293 0.18641 0.4771 0.0
H230 H 0.24185 0.11001 0.54151 0.0
H231 H 0.28475 0.14613 0.52868 0.0
H232 H 0.18641 0.10036 0.54415 0.0
H233 H 0.13998 0.14585 0.47412 0.0
H234 H 0.09165 0.11652 0.45 0.0
H235 H 0.05001 0.07911 0.46654 0.0
C236 C 0.31544 0.73544 0.01708 0.0
C237 C 0.32653 0.76018 0.0375 0.0
C238 C 0.33639 0.7116 0.01493 0.0
C239 C 0.36895 0.71183 0.03354 0.0
C240 C 0.37996 0.73653 0.05419 0.0
C241 C 0.35905 0.76069 0.05572 0.0
C242 C 0.3915 0.68561 0.03442 0.0
C243 C 0.38697 0.66709 0.00566 0.0
C244 C 0.40816 0.63923 0.00849 0.0
C245 C 0.40901 0.62828 0.9717 0.0
C246 C 0.4279 0.60146 0.97358 0.0
C247 C 0.44588 0.58468 0.0125 0.0
H248 H 0.42539 0.62922 0.07674 0.0
C249 C 0.44466 0.59548 0.04935 0.0
C250 C 0.42611 0.62234 0.04742 0.0
H251 H 0.45797 0.58303 0.08004 0.0
H252 H 0.29047 0.73444 0.00282 0.0
H253 H 0.32672 0.69256 0.9998 0.0
H254 H 0.40481 0.73706 0.06936 0.0
H255 H 0.36819 0.77928 0.07214 0.0
H256 H 0.41284 0.68196 0.05936 0.0
H257 H 0.36733 0.67275 0.9784 0.0
H258 H 0.39519 0.64066 0.94131 0.0
H259 H 0.42862 0.59411 0.94454 0.0
C260 C 0.76365 0.8458 0.63017 0.0
C261 C 0.76464 0.8122 0.63785 0.0
C262 C 0.7911 0.86319 0.62615 0.0
C263 C 0.8203 0.84736 0.62979 0.0
C264 C 0.82149 0.81376 0.63898 0.0
C265 C 0.79397 0.79638 0.64262 0.0
C266 C 0.84989 0.86507 0.62461 0.0
C267 C 0.84964 0.89463 0.59984 0.0
C268 C 0.87884 0.91229 0.59255 0.0
C269 C 0.87686 0.93579 0.5551 0.0
C270 C 0.90332 0.95353 0.54718 0.0
C271 C 0.93201 0.94909 0.57736 0.0
H272 H 0.91041 0.88974 0.65188 0.0
C273 C 0.93425 0.92579 0.61496 0.0
C274 C 0.90799 0.90727 0.62238 0.0
H275 H 0.95635 0.92182 0.63844 0.0
H276 H 0.7415 0.8588 0.62642 0.0
H277 H 0.78933 0.88899 0.6204 0.0
H278 H 0.84366 0.80088 0.64239 0.0
H279 H 0.79564 0.77053 0.64864 0.0
H280 H 0.87247 0.85244 0.63941 0.0
H281 H 0.82704 0.90591 0.58193 0.0
H282 H 0.85473 0.94041 0.53172 0.0
H283 H 0.90111 0.97142 0.51795 0.0
C284 C 0.67416 0.26084 0.07572 0.0
C285 C 0.686 0.25382 0.04232 0.0
C286 C 0.65516 0.28834 0.06942 0.0
C287 C 0.64726 0.30924 0.02927 0.0
C288 C 0.65912 0.30202 0.99587 0.0
C289 C 0.67867 0.27482 0.00245 0.0
C290 C 0.62547 0.33772 0.02058 0.0
C291 C 0.62131 0.35289 0.05078 0.0
C292 C 0.59888 0.38065 0.04381 0.0
C293 C 0.59219 0.38944 0.07956 0.0
C294 C 0.572 0.41562 0.07533 0.0
C295 C 0.55823 0.43405 0.03514 0.0
H296 H 0.5893 0.39338 0.97487 0.0
C297 C 0.5644 0.42512 0.99918 0.0
C298 C 0.5846 0.39879 0.00339 0.0
H299 H 0.55414 0.43887 0.96775 0.0
H300 H 0.67944 0.24489 0.10672 0.0
H301 H 0.64592 0.29238 0.09581 0.0
H302 H 0.65309 0.31739 0.96451 0.0
H303 H 0.68711 0.2696 0.976 0.0
H304 H 0.61273 0.34618 0.98815 0.0
H305 H 0.6349 0.3445 0.08284 0.0
H306 H 0.60267 0.37599 0.11109 0.0
H307 H 0.56742 0.42157 0.10371 0.0
C308 C 0.17224 0.93048 0.14327 0.0
C309 C 0.19551 0.90624 0.14983 0.0
C310 C 0.15811 0.93427 0.1762 0.0
C311 C 0.16695 0.91379 0.21643 0.0
C312 C 0.18945 0.88895 0.22255 0.0
C313 C 0.20382 0.88535 0.18972 0.0
C314 C 0.15225 0.91672 0.25214 0.0
C315 C 0.14035 0.94449 0.25625 0.0
C316 C 0.12329 0.94628 0.29025 0.0
C317 C 0.09831 0.96899 0.28175 0.0
C318 C 0.0784 0.96792 0.31029 0.0
C319 C 0.08363 0.94452 0.34809 0.0
H320 H 0.14992 0.90763 0.33822 0.0
C321 C 0.11026 0.9237 0.35843 0.0
C322 C 0.13008 0.92464 0.32985 0.0
H323 H 0.11449 0.90532 0.38735 0.0
H324 H 0.16501 0.94671 0.11269 0.0
H325 H 0.13995 0.95289 0.16972 0.0
H326 H 0.1962 0.87247 0.25301 0.0
H327 H 0.22132 0.86615 0.19556 0.0
H328 H 0.1512 0.89495 0.27572 0.0
H329 H 0.14116 0.96624 0.23253 0.0
H330 H 0.09286 0.9862 0.25175 0.0
H331 H 0.0577 0.98392 0.30159 0.0
C332 C 0.62385 0.69227 0.75026 0.0
C333 C 0.63109 0.68105 0.71642 0.0
C334 C 0.60664 0.67349 0.77779 0.0
C335 C 0.59609 0.64311 0.77181 0.0
C336 C 0.6033 0.63214 0.73789 0.0
C337 C 0.62045 0.65076 0.71061 0.0
C338 C 0.57929 0.62115 0.80121 0.0
C339 C 0.5648 0.6304 0.82914 0.0
C340 C 0.55115 0.60765 0.86136 0.0
C341 C 0.54844 0.61737 0.89825 0.0
C342 C 0.53745 0.59653 0.93047 0.0
C343 C 0.52911 0.56543 0.92698 0.0
H344 H 0.54137 0.56885 0.82802 0.0
C345 C 0.53 0.55599 0.88926 0.0
C346 C 0.54101 0.57688 0.85667 0.0
H347 H 0.52265 0.53235 0.88529 0.0
H348 H 0.63154 0.7155 0.75557 0.0
H349 H 0.60235 0.68272 0.80403 0.0
H350 H 0.59565 0.60893 0.73239 0.0
H351 H 0.6252 0.64131 0.68469 0.0
H352 H 0.57966 0.59604 0.80014 0.0
H353 H 0.56436 0.65545 0.8304 0.0
H354 H 0.55527 0.64108 0.9025 0.0
H355 H 0.53496 0.60499 0.95783 0.0
C356 C 0.83518 0.1412 0.20253 0.0
C357 C 0.81774 0.12364 0.17496 0.0
C358 C 0.85388 0.12543 0.2413 0.0
C359 C 0.8555 0.09169 0.25308 0.0
C360 C 0.83818 0.07431 0.22489 0.0
C361 C 0.81934 0.09014 0.18629 0.0
C362 C 0.87606 0.07386 0.29331 0.0
C363 C 0.88611 0.08672 0.32729 0.0
C364 C 0.90841 0.07024 0.36661 0.0
C365 C 0.92708 0.08917 0.39134 0.0
C366 C 0.94813 0.07515 0.42885 0.0
C367 C 0.95028 0.0418 0.44347 0.0
H368 H 0.89667 0.0213 0.3627 0.0
C369 C 0.93179 0.02267 0.4186 0.0
C370 C 0.91107 0.03672 0.38047 0.0
H371 H 0.93289 0.99685 0.4289 0.0
H372 H 0.83467 0.16709 0.19384 0.0
H373 H 0.86767 0.13988 0.26113 0.0
H374 H 0.83931 0.0484 0.23267 0.0
H375 H 0.80647 0.07621 0.16487 0.0
H376 H 0.88326 0.04946 0.29455 0.0
H377 H 0.87868 0.11099 0.32619 0.0
H378 H 0.92563 0.11501 0.38141 0.0
H379 H 0.96271 0.09059 0.44634 0.0
C380 C 0.35544 0.33904 0.58153 0.0
C381 C 0.36989 0.31354 0.5714 0.0
C382 C 0.37013 0.35166 0.616 0.0
C383 C 0.3999 0.3394 0.64073 0.0
C384 C 0.41476 0.31441 0.62994 0.0
C385 C 0.39965 0.30122 0.59597 0.0
C386 C 0.41621 0.35368 0.67636 0.0
C387 C 0.39974 0.3643 0.70132 0.0
C388 C 0.4127 0.38385 0.73283 0.0
C389 C 0.39247 0.39147 0.75772 0.0
C390 C 0.40109 0.4138 0.78282 0.0
C391 C 0.43011 0.42913 0.7834 0.0
H392 H 0.45916 0.39285 0.71707 0.0
C393 C 0.45122 0.4205 0.76047 0.0
C394 C 0.44273 0.3979 0.73552 0.0
H395 H 0.47384 0.43202 0.7608 0.0
H396 H 0.33274 0.34928 0.56272 0.0
H397 H 0.35848 0.37162 0.62256 0.0
H398 H 0.43798 0.305 0.64792 0.0
H399 H 0.41164 0.28206 0.58812 0.0
H400 H 0.44184 0.35545 0.68155 0.0
H401 H 0.3745 0.35954 0.69712 0.0
H402 H 0.36923 0.38112 0.7564 0.0
H403 H 0.38443 0.42022 0.80021 0.0
C404 C 0.62232 0.68286 0.46084 0.0
C405 C 0.61751 0.6684 0.5013 0.0
C406 C 0.60897 0.67007 0.42582 0.0
C407 C 0.59064 0.6425 0.43079 0.0
C408 C 0.58546 0.62856 0.47114 0.0
C409 C 0.59854 0.64142 0.5059 0.0
C410 C 0.57939 0.62539 0.39623 0.0
C411 C 0.57525 0.63867 0.35455 0.0
C412 C 0.56945 0.61897 0.32194 0.0
C413 C 0.58051 0.6295 0.28439 0.0
C414 C 0.58144 0.60879 0.25725 0.0
C415 C 0.57122 0.57735 0.26734 0.0
H416 H 0.54548 0.58019 0.35642 0.0
C417 C 0.55723 0.5679 0.30247 0.0
C418 C 0.55591 0.58864 0.3292 0.0
H419 H 0.5488 0.54385 0.31042 0.0
H420 H 0.63683 0.70371 0.45635 0.0
H421 H 0.61417 0.6811 0.39548 0.0
H422 H 0.5717 0.60718 0.476 0.0
H423 H 0.59437 0.62964 0.53662 0.0
H424 H 0.57591 0.6 0.40639 0.0
H425 H 0.57912 0.66398 0.34424 0.0
H426 H 0.59046 0.65296 0.27752 0.0
H427 H 0.59222 0.61656 0.23015 0.0
C428 C 0.85824 0.09775 0.96187 0.0
C429 C 0.82666 0.10774 0.95788 0.0
C430 C 0.86676 0.08387 0.93132 0.0
C431 C 0.84377 0.07919 0.89625 0.0
C432 C 0.8121 0.08902 0.89233 0.0
C433 C 0.80357 0.10313 0.92294 0.0
C434 C 0.85314 0.06768 0.86126 0.0
C435 C 0.87869 0.04804 0.86762 0.0
C436 C 0.89522 0.04509 0.83348 0.0
C437 C 0.92823 0.03903 0.8446 0.0
C438 C 0.94621 0.04354 0.81349 0.0
C439 C 0.93142 0.05355 0.77068 0.0
H440 H 0.85456 0.05565 0.78049 0.0
C441 C 0.89814 0.0562 0.7591 0.0
C442 C 0.88007 0.05194 0.79032 0.0
H443 H 0.88633 0.06401 0.72617 0.0
H444 H 0.87667 0.10148 0.98807 0.0
H445 H 0.89165 0.07802 0.93455 0.0
H446 H 0.79402 0.08608 0.86533 0.0
H447 H 0.77899 0.11047 0.91924 0.0
H448 H 0.84026 0.07814 0.8294 0.0
H449 H 0.89077 0.03743 0.89989 0.0
H450 H 0.94051 0.03341 0.87754 0.0
H451 H 0.97191 0.04158 0.82302 0.0
C452 C 0.41599 0.36944 0.35504 0.0
C453 C 0.39227 0.3467 0.35163 0.0
C454 C 0.43065 0.38147 0.32134 0.0
C455 C 0.42183 0.37112 0.28305 0.0
C456 C 0.39896 0.3474 0.28037 0.0
C457 C 0.38426 0.33536 0.31419 0.0
C458 C 0.43462 0.38515 0.24468 0.0
C459 C 0.45359 0.41061 0.24146 0.0
C460 C 0.46245 0.42713 0.2013 0.0
C461 C 0.47075 0.45936 0.19662 0.0
C462 C 0.47741 0.47654 0.15862 0.0
C463 C 0.47625 0.46175 0.12449 0.0
H464 H 0.45767 0.38682 0.17059 0.0
C465 C 0.46956 0.42907 0.12991 0.0
C466 C 0.4626 0.41193 0.16777 0.0
H467 H 0.46977 0.4166 0.10501 0.0
H468 H 0.42292 0.37853 0.38358 0.0
H469 H 0.4485 0.39907 0.32587 0.0
H470 H 0.39188 0.33858 0.25162 0.0
H471 H 0.36636 0.31752 0.31078 0.0
H472 H 0.42604 0.37532 0.21697 0.0
H473 H 0.46113 0.42179 0.26805 0.0
H474 H 0.47137 0.47157 0.22215 0.0
H475 H 0.48308 0.50152 0.15591 0.0
C476 C 0.18609 0.88218 0.90195 0.0
C477 C 0.19585 0.90018 0.93287 0.0
C478 C 0.16338 0.89475 0.86523 0.0
C479 C 0.14976 0.92555 0.85881 0.0
C480 C 0.15978 0.94361 0.88951 0.0
C481 C 0.18247 0.93108 0.92617 0.0
C482 C 0.12665 0.94038 0.81943 0.0
C483 C 0.10742 0.92336 0.79515 0.0
C484 C 0.08662 0.93781 0.75343 0.0
C485 C 0.07561 0.91798 0.72514 0.0
C486 C 0.05789 0.93076 0.68451 0.0
C487 C 0.05114 0.96378 0.67096 0.0
H488 H 0.08461 0.98666 0.76199 0.0
C489 C 0.06073 0.98342 0.69998 0.0
C490 C 0.07805 0.97061 0.7408 0.0
H491 H 0.0551 0.00887 0.69113 0.0
H492 H 0.19599 0.85836 0.90608 0.0
H493 H 0.15713 0.88047 0.84169 0.0
H494 H 0.14987 0.96747 0.88524 0.0
H495 H 0.18922 0.94553 0.94949 0.0
H496 H 0.12613 0.96626 0.81029 0.0
H497 H 0.1079 0.89748 0.80513 0.0
H498 H 0.08128 0.89254 0.73416 0.0
H499 H 0.04988 0.91473 0.66373 0.0
loop_
_geom_bond_atom_site_label_1
_geom_bond_atom_site_label_2
_geom_bond_distance
_geom_bond_site_symmetry_2
_ccdc_geom_bond_type
O0 Cd1 2.300 1_556 S
O0 C7 1.275 . S
Cd1 O0 2.300 1_554 S
Cd1 O9 2.381 . S
Cd1 O10 2.378 . S
O2 Cd3 2.385 . S
O2 C7 1.255 1_554 S
Cd3 O2 2.385 . S
Cd3 O4 2.317 . S
O4 Cd3 2.317 . S
O4 C5 1.232 . S
C5 O4 1.232 . S
C5 O6 1.218 . S
O6 C5 1.218 . S
C7 O0 1.275 . S
C7 O2 1.255 1_556 S
C8 O9 1.258 . S
C8 O10 1.256 . S
O9 Cd1 2.381 . S
O9 C8 1.258 . S
O10 Cd1 2.378 . S
O10 C8 1.256 . S
O11 Cd12 2.300 . S
O11 C18 1.275 . S
Cd12 O11 2.300 . S
Cd12 O20 2.381 . S
Cd12 O21 2.378 . S
O13 Cd14 2.385 . S
O13 C18 1.255 . S
Cd14 O13 2.385 . S
Cd14 O15 2.317 . S
O15 Cd14 2.317 . S
O15 C16 1.232 . S
C16 O15 1.232 . S
C16 O17 1.218 . S
O17 C16 1.218 . S
C18 O11 1.275 . S
C18 O13 1.255 . S
C19 O20 1.258 . S
C19 O21 1.256 . S
O20 Cd12 2.381 . S
O20 C19 1.258 . S
O21 Cd12 2.378 . S
O21 C19 1.256 . S
O22 Cd23 2.300 . S
O22 C29 1.275 . S
Cd23 O22 2.300 . S
Cd23 O31 2.381 . S
Cd23 O32 2.378 . S
O24 Cd25 2.385 . S
O24 C29 1.255 . S
Cd25 O24 2.385 . S
Cd25 O26 2.317 1_554 S
O26 Cd25 2.317 1_556 S
O26 C27 1.232 . S
C27 O26 1.232 . S
C27 O28 1.218 1_556 S
O28 C27 1.218 1_554 S
C29 O22 1.275 . S
C29 O24 1.255 . S
C30 O31 1.258 . S
C30 O32 1.256 . S
O31 Cd23 2.381 . S
O31 C30 1.258 . S
O32 Cd23 2.378 . S
O32 C30 1.256 . S
O33 Cd34 2.300 . S
O33 C40 1.275 . S
Cd34 O33 2.300 . S
Cd34 O42 2.381 . S
Cd34 O43 2.378 . S
O35 Cd36 2.385 . S
O35 C40 1.255 . S
Cd36 O35 2.385 . S
Cd36 O37 2.317 . S
O37 Cd36 2.317 . S
O37 C38 1.232 . S
C38 O37 1.232 . S
C38 O39 1.218 . S
O39 C38 1.218 . S
C40 O33 1.275 . S
C40 O35 1.255 . S
C41 O42 1.258 . S
C41 O43 1.256 . S
O42 Cd34 2.381 . S
O42 C41 1.258 . S
O43 Cd34 2.378 . S
O43 C41 1.256 . S
Tb44 N73 2.617 . S
Tb44 N79 2.572 . S
Tb44 O88 2.465 . S
Tb44 O89 2.387 . S
Tb44 O91 2.428 . S
Tb44 O92 2.308 1_565 S
Tb44 O96 2.349 1_465 S
Tb44 O99 2.393 1_455 S
Tb44 C108 2.802 . S
C45 N46 1.379 . S
C45 C48 1.416 . S
C45 C52 1.424 . S
N46 C45 1.379 . S
N46 C49 1.334 1_655 S
N46 Tb55 2.617 . S
C47 C49 1.390 . S
C47 C50 1.339 1_455 S
C47 H67 0.930 . S
C48 C45 1.416 . S
C48 C50 1.416 . S
C48 C54 1.448 . S
C49 N46 1.334 1_455 S
C49 C47 1.390 . S
C49 H60 0.930 . S
C50 C47 1.339 1_655 S
C50 C48 1.416 . S
C50 H71 0.930 . S
C51 C52 1.413 . S
C51 C53 1.427 . S
C51 C57 1.416 . S
C52 C45 1.424 . S
C52 C51 1.413 . S
C52 N56 1.361 . S
C53 C51 1.427 . S
C53 C54 1.328 . S
C53 H68 0.929 . S
C54 C48 1.448 . S
C54 C53 1.328 . S
C54 H69 0.930 . S
Tb55 N46 2.617 . S
Tb55 N56 2.572 . S
Tb55 O90 2.349 1_655 S
Tb55 O93 2.393 1_655 S
Tb55 O94 2.465 . S
Tb55 O95 2.387 . S
Tb55 O97 2.428 . S
Tb55 O98 2.308 1_545 S
Tb55 C119 2.802 . S
N56 C52 1.361 . S
N56 Tb55 2.572 . S
N56 C58 1.340 . S
C57 C51 1.416 . S
C57 C59 1.332 . S
C57 H65 0.931 . S
C58 N56 1.340 . S
C58 C59 1.407 . S
C58 H64 0.930 . S
C59 C57 1.332 . S
C59 C58 1.407 . S
C59 H61 0.929 . S
H60 C49 0.930 . S
H61 C59 0.929 . S
H62 C77 0.930 1_655 S
H63 C84 0.929 . S
H64 C58 0.930 . S
H65 C57 0.931 . S
H66 C80 0.930 . S
H67 C47 0.930 . S
H68 C53 0.929 . S
H69 C54 0.930 . S
H70 C75 0.930 1_655 S
H71 C50 0.930 . S
H72 C83 0.931 . S
N73 Tb44 2.617 . S
N73 C74 1.379 . S
N73 C77 1.334 . S
C74 N73 1.379 . S
C74 C76 1.416 . S
C74 C82 1.424 . S
C75 H70 0.930 1_455 S
C75 C77 1.390 . S
C75 C78 1.339 . S
C76 C74 1.416 . S
C76 C78 1.416 . S
C76 C109 1.448 . S
C77 H62 0.930 1_455 S
C77 N73 1.334 . S
C77 C75 1.390 . S
C78 C75 1.339 . S
C78 C76 1.416 . S
C78 H85 0.930 . S
N79 Tb44 2.572 . S
N79 C80 1.340 . S
N79 C82 1.361 . S
C80 H66 0.930 . S
C80 N79 1.340 . S
C80 C84 1.407 . S
C81 C82 1.413 . S
C81 C83 1.416 . S
C81 C110 1.427 . S
C82 C74 1.424 . S
C82 N79 1.361 . S
C82 C81 1.413 . S
C83 H72 0.931 . S
C83 C81 1.416 . S
C83 C84 1.332 . S
C84 H63 0.929 . S
C84 C80 1.407 . S
C84 C83 1.332 . S
H85 C78 0.930 . S
H86 C109 0.930 . S
H87 C110 0.929 . S
O88 Tb44 2.465 . S
O88 C108 1.264 . S
O89 Tb44 2.387 . S
O89 C100 1.264 . S
O90 Tb55 2.349 1_455 S
O90 C100 1.243 1_545 S
O91 Tb44 2.428 . S
O91 C108 1.256 . S
O92 Tb44 2.308 1_545 S
O92 C107 1.266 . S
O93 Tb55 2.393 1_455 S
O93 C107 1.248 . S
O94 Tb55 2.465 . S
O94 C119 1.264 . S
O95 Tb55 2.387 . S
O95 C111 1.264 . S
O96 Tb44 2.349 1_645 S
O96 C111 1.243 . S
O97 Tb55 2.428 . S
O97 C119 1.256 . S
O98 Tb55 2.308 1_565 S
O98 C118 1.266 . S
O99 Tb44 2.393 1_655 S
O99 C118 1.248 . S
C100 O89 1.264 . S
C100 O90 1.243 1_565 S
C101 C104 1.399 . S
C101 C106 1.383 . S
C101 C108 1.496 . S
C102 C103 1.399 . S
C102 C106 1.389 . S
C103 C102 1.399 . S
C103 C105 1.380 . S
C103 H120 0.929 . S
C104 C101 1.399 . S
C104 C105 1.392 . S
C104 H121 0.929 . S
C105 C103 1.380 . S
C105 C104 1.392 . S
C105 H122 0.929 . S
C106 C101 1.383 . S
C106 C102 1.389 . S
C106 H123 0.931 . S
C107 O92 1.266 . S
C107 O93 1.248 . S
C108 Tb44 2.802 . S
C108 O88 1.264 . S
C108 O91 1.256 . S
C108 C101 1.496 . S
C109 C76 1.448 . S
C109 H86 0.930 . S
C109 C110 1.328 . S
C110 C81 1.427 . S
C110 H87 0.929 . S
C110 C109 1.328 . S
C111 O95 1.264 . S
C111 O96 1.243 . S
C112 C115 1.399 . S
C112 C116 1.383 . S
C112 C119 1.496 . S
C113 C114 1.399 . S
C113 C116 1.389 . S
C114 C113 1.399 . S
C114 C117 1.380 . S
C114 H124 0.929 . S
C115 C112 1.399 . S
C115 C117 1.392 . S
C115 H125 0.929 . S
C116 C112 1.383 . S
C116 C113 1.389 . S
C116 H126 0.931 . S
C117 C114 1.380 . S
C117 C115 1.392 . S
C117 H127 0.929 . S
C118 O98 1.266 . S
C118 O99 1.248 . S
C119 Tb55 2.802 . S
C119 O94 1.264 . S
C119 O97 1.256 . S
C119 C112 1.496 . S
H120 C103 0.929 . S
H121 C104 0.929 . S
H122 C105 0.929 . S
H123 C106 0.931 . S
H124 C114 0.929 . S
H125 C115 0.929 . S
H126 C116 0.931 . S
H127 C117 0.929 . S
Tb128 N157 2.617 . S
Tb128 N163 2.572 1_556 S
Tb128 O172 2.465 . S
Tb128 O173 2.387 1_556 S
Tb128 O175 2.428 . S
Tb128 O176 2.308 1_556 S
Tb128 O180 2.349 . S
Tb128 O183 2.393 . S
Tb128 C192 2.802 . S
C129 N130 1.379 . S
C129 C132 1.416 . S
C129 C136 1.424 . S
N130 C129 1.379 . S
N130 C133 1.334 . S
N130 Tb139 2.617 . S
C131 C133 1.390 . S
C131 C134 1.339 . S
C131 H151 0.930 . S
C132 C129 1.416 . S
C132 C134 1.416 . S
C132 C138 1.448 . S
C133 N130 1.334 . S
C133 C131 1.390 . S
C133 H144 0.930 . S
C134 C131 1.339 . S
C134 C132 1.416 . S
C134 H155 0.930 . S
C135 C136 1.413 . S
C135 C137 1.427 . S
C135 C141 1.416 . S
C136 C129 1.424 . S
C136 C135 1.413 . S
C136 N140 1.361 . S
C137 C135 1.427 . S
C137 C138 1.328 . S
C137 H152 0.929 . S
C138 C132 1.448 . S
C138 C137 1.328 . S
C138 H153 0.930 . S
Tb139 N130 2.617 . S
Tb139 N140 2.572 . S
Tb139 O174 2.349 . S
Tb139 O177 2.393 . S
Tb139 O178 2.465 . S
Tb139 O179 2.387 1_554 S
Tb139 O181 2.428 . S
Tb139 O182 2.308 . S
Tb139 C203 2.802 . S
N140 C136 1.361 . S
N140 Tb139 2.572 . S
N140 C142 1.340 . S
C141 C135 1.416 . S
C141 C143 1.332 . S
C141 H149 0.931 . S
C142 N140 1.340 . S
C142 C143 1.407 . S
C142 H148 0.930 . S
C143 C141 1.332 . S
C143 C142 1.407 . S
C143 H145 0.929 . S
H144 C133 0.930 . S
H145 C143 0.929 . S
H146 C161 0.930 . S
H147 C168 0.929 . S
H148 C142 0.930 . S
H149 C141 0.931 . S
H150 C164 0.930 . S
H151 C131 0.930 . S
H152 C137 0.929 . S
H153 C138 0.930 . S
H154 C159 0.930 . S
H155 C134 0.930 . S
H156 C167 0.931 . S
N157 Tb128 2.617 . S
N157 C158 1.379 1_556 S
N157 C161 1.334 . S
C158 N157 1.379 1_554 S
C158 C160 1.416 . S
C158 C166 1.424 . S
C159 H154 0.930 . S
C159 C161 1.390 . S
C159 C162 1.339 1_556 S
C160 C158 1.416 . S
C160 C162 1.416 . S
C160 C193 1.448 . S
C161 H146 0.930 . S
C161 N157 1.334 . S
C161 C159 1.390 . S
C162 C159 1.339 1_554 S
C162 C160 1.416 . S
C162 H169 0.930 . S
N163 Tb128 2.572 1_554 S
N163 C164 1.340 . S
N163 C166 1.361 . S
C164 H150 0.930 . S
C164 N163 1.340 . S
C164 C168 1.407 . S
C165 C166 1.413 . S
C165 C167 1.416 . S
C165 C194 1.427 . S
C166 C158 1.424 . S
C166 N163 1.361 . S
C166 C165 1.413 . S
C167 H156 0.931 . S
C167 C165 1.416 . S
C167 C168 1.332 . S
C168 H147 0.929 . S
C168 C164 1.407 . S
C168 C167 1.332 . S
H169 C162 0.930 . S
H170 C193 0.930 . S
H171 C194 0.929 . S
O172 Tb128 2.465 . S
O172 C192 1.264 . S
O173 Tb128 2.387 1_554 S
O173 C184 1.264 . S
O174 Tb139 2.349 . S
O174 C184 1.243 . S
O175 Tb128 2.428 . S
O175 C192 1.256 . S
O176 Tb128 2.308 1_554 S
O176 C191 1.266 . S
O177 Tb139 2.393 . S
O177 C191 1.248 . S
O178 Tb139 2.465 . S
O178 C203 1.264 . S
O179 Tb139 2.387 1_556 S
O179 C195 1.264 . S
O180 Tb128 2.349 . S
O180 C195 1.243 . S
O181 Tb139 2.428 . S
O181 C203 1.256 . S
O182 Tb139 2.308 . S
O182 C202 1.266 . S
O183 Tb128 2.393 . S
O183 C202 1.248 1_556 S
C184 O173 1.264 . S
C184 O174 1.243 . S
C185 C188 1.399 . S
C185 C190 1.383 . S
C185 C192 1.496 . S
C186 C187 1.399 . S
C186 C190 1.389 . S
C187 C186 1.399 . S
C187 C189 1.380 . S
C187 H204 0.929 . S
C188 C185 1.399 . S
C188 C189 1.392 . S
C188 H205 0.929 . S
C189 C187 1.380 . S
C189 C188 1.392 . S
C189 H206 0.929 . S
C190 C185 1.383 . S
C190 C186 1.389 . S
C190 H207 0.931 . S
C191 O176 1.266 . S
C191 O177 1.248 . S
C192 Tb128 2.802 . S
C192 O172 1.264 . S
C192 O175 1.256 . S
C192 C185 1.496 . S
C193 C160 1.448 . S
C193 H170 0.930 . S
C193 C194 1.328 . S
C194 C165 1.427 . S
C194 H171 0.929 . S
C194 C193 1.328 . S
C195 O179 1.264 . S
C195 O180 1.243 . S
C196 C199 1.399 . S
C196 C200 1.383 . S
C196 C203 1.496 . S
C197 C198 1.399 . S
C197 C200 1.389 . S
C198 C197 1.399 . S
C198 C201 1.380 . S
C198 H208 0.929 . S
C199 C196 1.399 . S
C199 C201 1.392 . S
C199 H209 0.929 . S
C200 C196 1.383 . S
C200 C197 1.389 . S
C200 H210 0.931 . S
C201 C198 1.380 . S
C201 C199 1.392 . S
C201 H211 0.929 . S
C202 O182 1.266 . S
C202 O183 1.248 1_554 S
C203 Tb139 2.802 . S
C203 O178 1.264 . S
C203 O181 1.256 . S
C203 C196 1.496 . S
H204 C187 0.929 . S
H205 C188 0.929 . S
H206 C189 0.929 . S
H207 C190 0.931 . S
H208 C198 0.929 . S
H209 C199 0.929 . S
H210 C200 0.931 . S
H211 C201 0.929 . S
C212 C213 1.386 . S
C212 C214 1.383 . S
C212 H228 0.951 . S
C213 C212 1.386 . S
C213 C217 1.383 . S
C214 C212 1.383 . S
C214 C215 1.402 . S
C214 H229 0.951 . S
C215 C214 1.402 . S
C215 C216 1.375 . S
C215 C218 1.481 . S
C216 C215 1.375 . S
C216 C217 1.367 . S
C216 H230 0.951 . S
C217 C213 1.383 . S
C217 C216 1.367 . S
C217 H231 0.950 . S
C218 C215 1.481 . S
C218 C219 1.297 . S
C218 H232 0.950 . S
C219 C218 1.297 . S
C219 C220 1.479 . S
C219 H233 0.950 . S
C220 C219 1.479 . S
C220 C221 1.375 . S
C220 C226 1.404 . S
C221 C220 1.375 . S
C221 C222 1.369 . S
C221 H234 0.950 . S
C222 C221 1.369 . S
C222 C223 1.392 . S
C222 H235 0.951 . S
C223 C222 1.392 . S
C223 C225 1.384 . S
H224 C226 0.949 . S
C225 C223 1.384 . S
C225 C226 1.385 . S
C225 H227 0.950 . S
C226 C220 1.404 . S
C226 H224 0.949 . S
C226 C225 1.385 . S
H227 C225 0.950 . S
H228 C212 0.951 . S
H229 C214 0.951 . S
H230 C216 0.951 . S
H231 C217 0.950 . S
H232 C218 0.950 . S
H233 C219 0.950 . S
H234 C221 0.950 . S
H235 C222 0.951 . S
C236 C237 1.386 . S
C236 C238 1.383 . S
C236 H252 0.951 1_554 S
C237 C236 1.386 . S
C237 C241 1.383 . S
C238 C236 1.383 . S
C238 C239 1.402 . S
C238 H253 0.951 1_554 S
C239 C238 1.402 . S
C239 C240 1.375 . S
C239 C242 1.481 . S
C240 C239 1.375 . S
C240 C241 1.367 . S
C240 H254 0.951 . S
C241 C237 1.383 . S
C241 C240 1.367 . S
C241 H255 0.950 . S
C242 C239 1.481 . S
C242 C243 1.297 . S
C242 H256 0.950 . S
C243 C242 1.297 . S
C243 C244 1.479 . S
C243 H257 0.950 1_554 S
C244 C243 1.479 . S
C244 C245 1.375 1_554 S
C244 C250 1.404 . S
C245 C244 1.375 1_556 S
C245 C246 1.369 . S
C245 H258 0.950 . S
C246 C245 1.369 . S
C246 C247 1.392 1_556 S
C246 H259 0.951 . S
C247 C246 1.392 1_554 S
C247 C249 1.384 . S
H248 C250 0.949 . S
C249 C247 1.384 . S
C249 C250 1.385 . S
C249 H251 0.950 . S
C250 C244 1.404 . S
C250 H248 0.949 . S
C250 C249 1.385 . S
H251 C249 0.950 . S
H252 C236 0.951 1_556 S
H253 C238 0.951 1_556 S
H254 C240 0.951 . S
H255 C241 0.950 . S
H256 C242 0.950 . S
H257 C243 0.950 1_556 S
H258 C245 0.950 . S
H259 C246 0.951 . S
C260 C261 1.386 . S
C260 C262 1.383 . S
C260 H276 0.951 . S
C261 C260 1.386 . S
C261 C265 1.383 . S
C262 C260 1.383 . S
C262 C263 1.402 . S
C262 H277 0.951 . S
C263 C262 1.402 . S
C263 C264 1.375 . S
C263 C266 1.481 . S
C264 C263 1.375 . S
C264 C265 1.367 . S
C264 H278 0.951 . S
C265 C261 1.383 . S
C265 C264 1.367 . S
C265 H279 0.950 . S
C266 C263 1.481 . S
C266 C267 1.297 . S
C266 H280 0.950 . S
C267 C266 1.297 . S
C267 C268 1.479 . S
C267 H281 0.950 . S
C268 C267 1.479 . S
C268 C269 1.375 . S
C268 C274 1.404 . S
C269 C268 1.375 . S
C269 C270 1.369 . S
C269 H282 0.950 . S
C270 C269 1.369 . S
C270 C271 1.392 . S
C270 H283 0.951 . S
C271 C270 1.392 . S
C271 C273 1.384 . S
H272 C274 0.949 . S
C273 C271 1.384 . S
C273 C274 1.385 . S
C273 H275 0.950 . S
C274 C268 1.404 . S
C274 H272 0.949 . S
C274 C273 1.385 . S
H275 C273 0.950 . S
H276 C260 0.951 . S
H277 C262 0.951 . S
H278 C264 0.951 . S
H279 C265 0.950 . S
H280 C266 0.950 . S
H281 C267 0.950 . S
H282 C269 0.950 . S
H283 C270 0.951 . S
C284 C285 1.386 . S
C284 C286 1.383 . S
C284 H300 0.951 . S
C285 C284 1.386 . S
C285 C289 1.383 . S
C286 C284 1.383 . S
C286 C287 1.402 . S
C286 H301 0.951 . S
C287 C286 1.402 . S
C287 C288 1.375 1_554 S
C287 C290 1.481 . S
C288 C287 1.375 1_556 S
C288 C289 1.367 1_556 S
C288 H302 0.951 . S
C289 C285 1.383 . S
C289 C288 1.367 1_554 S
C289 H303 0.950 1_554 S
C290 C287 1.481 . S
C290 C291 1.297 . S
C290 H304 0.950 1_554 S
C291 C290 1.297 . S
C291 C292 1.479 . S
C291 H305 0.950 . S
C292 C291 1.479 . S
C292 C293 1.375 . S
C292 C298 1.404 1_554 S
C293 C292 1.375 . S
C293 C294 1.369 . S
C293 H306 0.950 . S
C294 C293 1.369 . S
C294 C295 1.392 . S
C294 H307 0.951 . S
C295 C294 1.392 . S
C295 C297 1.384 1_554 S
H296 C298 0.949 . S
C297 C295 1.384 1_556 S
C297 C298 1.385 . S
C297 H299 0.950 . S
C298 C292 1.404 1_556 S
C298 H296 0.949 . S
C298 C297 1.385 . S
H299 C297 0.950 . S
H300 C284 0.951 . S
H301 C286 0.951 . S
H302 C288 0.951 . S
H303 C289 0.950 1_556 S
H304 C290 0.950 1_556 S
H305 C291 0.950 . S
H306 C293 0.950 . S
H307 C294 0.951 . S
C308 C309 1.386 . S
C308 C310 1.383 . S
C308 H324 0.951 . S
C309 C308 1.386 . S
C309 C313 1.383 . S
C310 C308 1.383 . S
C310 C311 1.402 . S
C310 H325 0.951 . S
C311 C310 1.402 . S
C311 C312 1.375 . S
C311 C314 1.481 . S
C312 C311 1.375 . S
C312 C313 1.367 . S
C312 H326 0.951 . S
C313 C309 1.383 . S
C313 C312 1.367 . S
C313 H327 0.950 . S
C314 C311 1.481 . S
C314 C315 1.297 . S
C314 H328 0.950 . S
C315 C314 1.297 . S
C315 C316 1.479 . S
C315 H329 0.950 . S
C316 C315 1.479 . S
C316 C317 1.375 . S
C316 C322 1.404 . S
C317 C316 1.375 . S
C317 C318 1.369 . S
C317 H330 0.950 . S
C318 C317 1.369 . S
C318 C319 1.392 . S
C318 H331 0.951 . S
C319 C318 1.392 . S
C319 C321 1.384 . S
H320 C322 0.949 . S
C321 C319 1.384 . S
C321 C322 1.385 . S
C321 H323 0.950 . S
C322 C316 1.404 . S
C322 H320 0.949 . S
C322 C321 1.385 . S
H323 C321 0.950 . S
H324 C308 0.951 . S
H325 C310 0.951 . S
H326 C312 0.951 . S
H327 C313 0.950 . S
H328 C314 0.950 . S
H329 C315 0.950 . S
H330 C317 0.950 . S
H331 C318 0.951 . S
C332 C333 1.386 . S
C332 C334 1.383 . S
C332 H348 0.951 . S
C333 C332 1.386 . S
C333 C337 1.383 . S
C334 C332 1.383 . S
C334 C335 1.402 . S
C334 H349 0.951 . S
C335 C334 1.402 . S
C335 C336 1.375 . S
C335 C338 1.481 . S
C336 C335 1.375 . S
C336 C337 1.367 . S
C336 H350 0.951 . S
C337 C333 1.383 . S
C337 C336 1.367 . S
C337 H351 0.950 . S
C338 C335 1.481 . S
C338 C339 1.297 . S
C338 H352 0.950 . S
C339 C338 1.297 . S
C339 C340 1.479 . S
C339 H353 0.950 . S
C340 C339 1.479 . S
C340 C341 1.375 . S
C340 C346 1.404 . S
C341 C340 1.375 . S
C341 C342 1.369 . S
C341 H354 0.950 . S
C342 C341 1.369 . S
C342 C343 1.392 . S
C342 H355 0.951 . S
C343 C342 1.392 . S
C343 C345 1.384 . S
H344 C346 0.949 . S
C345 C343 1.384 . S
C345 C346 1.385 . S
C345 H347 0.950 . S
C346 C340 1.404 . S
C346 H344 0.949 . S
C346 C345 1.385 . S
H347 C345 0.950 . S
H348 C332 0.951 . S
H349 C334 0.951 . S
H350 C336 0.951 . S
H351 C337 0.950 . S
H352 C338 0.950 . S
H353 C339 0.950 . S
H354 C341 0.950 . S
H355 C342 0.951 . S
C356 C357 1.386 . S
C356 C358 1.383 . S
C356 H372 0.951 . S
C357 C356 1.386 . S
C357 C361 1.383 . S
C358 C356 1.383 . S
C358 C359 1.402 . S
C358 H373 0.951 . S
C359 C358 1.402 . S
C359 C360 1.375 . S
C359 C362 1.481 . S
C360 C359 1.375 . S
C360 C361 1.367 . S
C360 H374 0.951 . S
C361 C357 1.383 . S
C361 C360 1.367 . S
C361 H375 0.950 . S
C362 C359 1.481 . S
C362 C363 1.297 . S
C362 H376 0.950 . S
C363 C362 1.297 . S
C363 C364 1.479 . S
C363 H377 0.950 . S
C364 C363 1.479 . S
C364 C365 1.375 . S
C364 C370 1.404 . S
C365 C364 1.375 . S
C365 C366 1.369 . S
C365 H378 0.950 . S
C366 C365 1.369 . S
C366 C367 1.392 . S
C366 H379 0.951 . S
C367 C366 1.392 . S
C367 C369 1.384 . S
H368 C370 0.949 . S
C369 C367 1.384 . S
C369 C370 1.385 . S
C369 H371 0.950 1_545 S
C370 C364 1.404 . S
C370 H368 0.949 . S
C370 C369 1.385 . S
H371 C369 0.950 1_565 S
H372 C356 0.951 . S
H373 C358 0.951 . S
H374 C360 0.951 . S
H375 C361 0.950 . S
H376 C362 0.950 . S
H377 C363 0.950 . S
H378 C365 0.950 . S
H379 C366 0.951 . S
C380 C381 1.386 . S
C380 C382 1.383 . S
C380 H396 0.951 . S
C381 C380 1.386 . S
C381 C385 1.383 . S
C382 C380 1.383 . S
C382 C383 1.402 . S
C382 H397 0.951 . S
C383 C382 1.402 . S
C383 C384 1.375 . S
C383 C386 1.481 . S
C384 C383 1.375 . S
C384 C385 1.367 . S
C384 H398 0.951 . S
C385 C381 1.383 . S
C385 C384 1.367 . S
C385 H399 0.950 . S
C386 C383 1.481 . S
C386 C387 1.297 . S
C386 H400 0.950 . S
C387 C386 1.297 . S
C387 C388 1.479 . S
C387 H401 0.950 . S
C388 C387 1.479 . S
C388 C389 1.375 . S
C388 C394 1.404 . S
C389 C388 1.375 . S
C389 C390 1.369 . S
C389 H402 0.950 . S
C390 C389 1.369 . S
C390 C391 1.392 . S
C390 H403 0.951 . S
C391 C390 1.392 . S
C391 C393 1.384 . S
H392 C394 0.949 . S
C393 C391 1.384 . S
C393 C394 1.385 . S
C393 H395 0.950 . S
C394 C388 1.404 . S
C394 H392 0.949 . S
C394 C393 1.385 . S
H395 C393 0.950 . S
H396 C380 0.951 . S
H397 C382 0.951 . S
H398 C384 0.951 . S
H399 C385 0.950 . S
H400 C386 0.950 . S
H401 C387 0.950 . S
H402 C389 0.950 . S
H403 C390 0.951 . S
C404 C405 1.386 . S
C404 C406 1.383 . S
C404 H420 0.951 . S
C405 C404 1.386 . S
C405 C409 1.383 . S
C406 C404 1.383 . S
C406 C407 1.402 . S
C406 H421 0.951 . S
C407 C406 1.402 . S
C407 C408 1.375 . S
C407 C410 1.481 . S
C408 C407 1.375 . S
C408 C409 1.367 . S
C408 H422 0.951 . S
C409 C405 1.383 . S
C409 C408 1.367 . S
C409 H423 0.950 . S
C410 C407 1.481 . S
C410 C411 1.297 . S
C410 H424 0.950 . S
C411 C410 1.297 . S
C411 C412 1.479 . S
C411 H425 0.950 . S
C412 C411 1.479 . S
C412 C413 1.375 . S
C412 C418 1.404 . S
C413 C412 1.375 . S
C413 C414 1.369 . S
C413 H426 0.950 . S
C414 C413 1.369 . S
C414 C415 1.392 . S
C414 H427 0.951 . S
C415 C414 1.392 . S
C415 C417 1.384 . S
H416 C418 0.949 . S
C417 C415 1.384 . S
C417 C418 1.385 . S
C417 H419 0.950 . S
C418 C412 1.404 . S
C418 H416 0.949 . S
C418 C417 1.385 . S
H419 C417 0.950 . S
H420 C404 0.951 . S
H421 C406 0.951 . S
H422 C408 0.951 . S
H423 C409 0.950 . S
H424 C410 0.950 . S
H425 C411 0.950 . S
H426 C413 0.950 . S
H427 C414 0.951 . S
C428 C429 1.386 . S
C428 C430 1.383 . S
C428 H444 0.951 . S
C429 C428 1.386 . S
C429 C433 1.383 . S
C430 C428 1.383 . S
C430 C431 1.402 . S
C430 H445 0.951 . S
C431 C430 1.402 . S
C431 C432 1.375 . S
C431 C434 1.481 . S
C432 C431 1.375 . S
C432 C433 1.367 . S
C432 H446 0.951 . S
C433 C429 1.383 . S
C433 C432 1.367 . S
C433 H447 0.950 . S
C434 C431 1.481 . S
C434 C435 1.297 . S
C434 H448 0.950 . S
C435 C434 1.297 . S
C435 C436 1.479 . S
C435 H449 0.950 . S
C436 C435 1.479 . S
C436 C437 1.375 . S
C436 C442 1.404 . S
C437 C436 1.375 . S
C437 C438 1.369 . S
C437 H450 0.950 . S
C438 C437 1.369 . S
C438 C439 1.392 . S
C438 H451 0.951 . S
C439 C438 1.392 . S
C439 C441 1.384 . S
H440 C442 0.949 . S
C441 C439 1.384 . S
C441 C442 1.385 . S
C441 H443 0.950 . S
C442 C436 1.404 . S
C442 H440 0.949 . S
C442 C441 1.385 . S
H443 C441 0.950 . S
H444 C428 0.951 . S
H445 C430 0.951 . S
H446 C432 0.951 . S
H447 C433 0.950 . S
H448 C434 0.950 . S
H449 C435 0.950 . S
H450 C437 0.950 . S
H451 C438 0.951 . S
C452 C453 1.386 . S
C452 C454 1.383 . S
C452 H468 0.951 . S
C453 C452 1.386 . S
C453 C457 1.383 . S
C454 C452 1.383 . S
C454 C455 1.402 . S
C454 H469 0.951 . S
C455 C454 1.402 . S
C455 C456 1.375 . S
C455 C458 1.481 . S
C456 C455 1.375 . S
C456 C457 1.367 . S
C456 H470 0.951 . S
C457 C453 1.383 . S
C457 C456 1.367 . S
C457 H471 0.950 . S
C458 C455 1.481 . S
C458 C459 1.297 . S
C458 H472 0.950 . S
C459 C458 1.297 . S
C459 C460 1.479 . S
C459 H473 0.950 . S
C460 C459 1.479 . S
C460 C461 1.375 . S
C460 C466 1.404 . S
C461 C460 1.375 . S
C461 C462 1.369 . S
C461 H474 0.950 . S
C462 C461 1.369 . S
C462 C463 1.392 . S
C462 H475 0.951 . S
C463 C462 1.392 . S
C463 C465 1.384 . S
H464 C466 0.949 . S
C465 C463 1.384 . S
C465 C466 1.385 . S
C465 H467 0.950 . S
C466 C460 1.404 . S
C466 H464 0.949 . S
C466 C465 1.385 . S
H467 C465 0.950 . S
H468 C452 0.951 . S
H469 C454 0.951 . S
H470 C456 0.951 . S
H471 C457 0.950 . S
H472 C458 0.950 . S
H473 C459 0.950 . S
H474 C461 0.950 . S
H475 C462 0.951 . S
C476 C477 1.386 . S
C476 C478 1.383 . S
C476 H492 0.951 . S
C477 C476 1.386 . S
C477 C481 1.383 . S
C478 C476 1.383 . S
C478 C479 1.402 . S
C478 H493 0.951 . S
C479 C478 1.402 . S
C479 C480 1.375 . S
C479 C482 1.481 . S
C480 C479 1.375 . S
C480 C481 1.367 . S
C480 H494 0.951 . S
C481 C477 1.383 . S
C481 C480 1.367 . S
C481 H495 0.950 . S
C482 C479 1.481 . S
C482 C483 1.297 . S
C482 H496 0.950 . S
C483 C482 1.297 . S
C483 C484 1.479 . S
C483 H497 0.950 . S
C484 C483 1.479 . S
C484 C485 1.375 . S
C484 C490 1.404 . S
C485 C484 1.375 . S
C485 C486 1.369 . S
C485 H498 0.950 . S
C486 C485 1.369 . S
C486 C487 1.392 . S
C486 H499 0.951 . S
C487 C486 1.392 . S
C487 C489 1.384 . S
H488 C490 0.949 . S
C489 C487 1.384 . S
C489 C490 1.385 . S
C489 H491 0.945 1_565 S
C490 C484 1.404 . S
C490 H488 0.949 . S
C490 C489 1.385 . S
H491 C489 0.945 1_545 S
H492 C476 0.951 . S
H493 C478 0.951 . S
H494 C480 0.951 . S
H495 C481 0.950 . S
H496 C482 0.950 . S
H497 C483 0.950 . S
H498 C485 0.950 . S
H499 C486 0.951 . S
C223 C107 1.658 . S
C213 C41 1.654 . S
C237 C8 1.650 . S
C247 C202 1.620 . S
C261 C19 1.727 . S
C271 C118 1.766 . S
C285 C30 1.611 . S
C295 C191 1.613 . S
C319 C102 1.417 . S
C309 C5 1.538 . S
C343 C195 1.806 . S
C333 C18 1.764 . S
C357 C29 1.643 . S
C367 C111 1.703 . S
C381 C40 1.619 . S
C391 C186 1.519 . S
C415 C197 1.303 . S
C405 C16 1.258 . S
C439 C113 1.403 . S
C429 C27 1.344 . S
C463 C184 1.546 . S
C453 C38 1.351 . S
C477 C7 1.493 . S
C487 C100 1.494 . S
