# Generated by pormake.
# Topology ocu, (6,8)-cn, num edge types: 1
# Building blocks:
#     Node 0, Type 0, BuildingBlock: UKALOJ_clean_sbu_0, # of connection points: 6
#     Node 1, Type 0, BuildingBlock: UKALOJ_clean_sbu_0, # of connection points: 6
#     Node 2, Type 0, BuildingBlock: UKALOJ_clean_sbu_0, # of connection points: 6
#     Node 3, Type 0, BuildingBlock: UKALOJ_clean_sbu_0, # of connection points: 6
#     Node 4, Type 0, BuildingBlock: UKALOJ_clean_sbu_0, # of connection points: 6
#     Node 5, Type 0, BuildingBlock: UKALOJ_clean_sbu_0, # of connection points: 6
#     Node 6, Type 0, BuildingBlock: UKALOJ_clean_sbu_0, # of connection points: 6
#     Node 7, Type 0, BuildingBlock: UKALOJ_clean_sbu_0, # of connection points: 6
#     Node 8, Type 1, BuildingBlock: LIZSOE_clean_sbu_0, # of connection points: 8
#     Node 9, Type 1, BuildingBlock: LIZSOE_clean_sbu_0, # of connection points: 8
#     Node 10, Type 1, BuildingBlock: LIZSOE_clean_sbu_0, # of connection points: 8
#     Node 11, Type 1, BuildingBlock: LIZSOE_clean_sbu_0, # of connection points: 8
#     Node 12, Type 1, BuildingBlock: LIZSOE_clean_sbu_0, # of connection points: 8
#     Node 13, Type 1, BuildingBlock: LIZSOE_clean_sbu_0, # of connection points: 8
#     Edge 14, Type (0, 1), None
#     Edge 15, Type (0, 1), None
#     Edge 16, Type (0, 1), None
#     Edge 17, Type (0, 1), None
#     Edge 18, Type (0, 1), None
#     Edge 19, Type (0, 1), None
#     Edge 20, Type (0, 1), None
#     Edge 21, Type (0, 1), None
#     Edge 22, Type (0, 1), None
#     Edge 23, Type (0, 1), None
#     Edge 24, Type (0, 1), None
#     Edge 25, Type (0, 1), None
#     Edge 26, Type (0, 1), None
#     Edge 27, Type (0, 1), None
#     Edge 28, Type (0, 1), None
#     Edge 29, Type (0, 1), None
#     Edge 30, Type (0, 1), None
#     Edge 31, Type (0, 1), None
#     Edge 32, Type (0, 1), None
#     Edge 33, Type (0, 1), None
#     Edge 34, Type (0, 1), None
#     Edge 35, Type (0, 1), None
#     Edge 36, Type (0, 1), None
#     Edge 37, Type (0, 1), None
#     Edge 38, Type (0, 1), None
#     Edge 39, Type (0, 1), None
#     Edge 40, Type (0, 1), None
#     Edge 41, Type (0, 1), None
#     Edge 42, Type (0, 1), None
#     Edge 43, Type (0, 1), None
#     Edge 44, Type (0, 1), None
#     Edge 45, Type (0, 1), None
#     Edge 46, Type (0, 1), None
#     Edge 47, Type (0, 1), None
#     Edge 48, Type (0, 1), None
#     Edge 49, Type (0, 1), None
#     Edge 50, Type (0, 1), None
#     Edge 51, Type (0, 1), None
#     Edge 52, Type (0, 1), None
#     Edge 53, Type (0, 1), None
#     Edge 54, Type (0, 1), None
#     Edge 55, Type (0, 1), None
#     Edge 56, Type (0, 1), None
#     Edge 57, Type (0, 1), None
#     Edge 58, Type (0, 1), None
#     Edge 59, Type (0, 1), None
#     Edge 60, Type (0, 1), None
#     Edge 61, Type (0, 1), None
# Relax obj value: 0.303
# Max RMSD: 0.322
# Mean RMSD: 0.199
data_MOF--net-ocu--node1-UKALOJ_clean_sbu_0--node2-LIZSOE_clean_sbu_0--edge1-none
_symmetry_space_group_name_H-M    P1
_symmetry_Int_Tables_number       1
_symmetry_cell_setting            triclinic
loop_
_symmetry_equiv_pos_as_xyz
'x, y, z'
_cell_length_a     19.267062
_cell_length_b     19.14035
_cell_length_c     20.904691
_cell_angle_alpha  110.20196
_cell_angle_beta   68.658964
_cell_angle_gamma 103.36577
loop_
_atom_site_label
_atom_site_type_symbol
_atom_site_fract_x
_atom_site_fract_y
_atom_site_fract_z
_atom_type_partial_charge
Zn0 Zn 0.26002 0.27582 0.25106 0.0
O1 O 0.1939 0.36521 0.3483 0.0
C2 C 0.26825 0.3818 0.1908 0.0
Zn3 Zn 0.35603 0.34934 0.27513 0.0
C4 C 0.22953 0.41804 0.38568 0.0
O5 O 0.29862 0.41544 0.36991 0.0
C6 C 0.39421 0.21536 0.13759 0.0
O7 O 0.3924 0.29587 0.32716 0.0
O8 O 0.28629 0.22885 0.318 0.0
N9 N 0.43812 0.43573 0.28296 0.0
C10 C 0.48505 0.42332 0.21676 0.0
C11 C 0.4356 0.52102 0.2389 0.0
N12 N 0.41176 0.49988 0.2991 0.0
N13 N 0.47881 0.47126 0.18501 0.0
C14 C 0.1228 0.21585 0.31604 0.0
C15 C 0.16423 0.11644 0.30245 0.0
N16 N 0.17137 0.1977 0.25023 0.0
N17 N 0.19321 0.13288 0.23976 0.0
N18 N 0.12302 0.1702 0.35251 0.0
H19 H 0.05532 0.30171 0.3933 0.0
H20 H 1.01422 0.23256 0.3278 0.0
H21 H 0.08436 0.30426 0.30087 0.0
C22 C 0.06606 0.26742 0.33651 0.0
C23 C 0.54171 0.37009 0.19087 0.0
H24 H 0.52165 0.32661 0.21965 0.0
H25 H 0.59016 0.40101 0.20844 0.0
H26 H 0.55591 0.34278 0.13246 0.0
O27 O 0.41948 0.2788 0.17151 0.0
O28 O 0.32406 0.19655 0.15891 0.0
C29 C 0.3434 0.24083 0.33863 0.0
O30 O 0.23474 0.31607 0.18439 0.0
O31 O 0.31599 0.4043 0.22446 0.0
Zn32 Zn 0.85474 0.29248 0.2241 0.0
O33 O 0.78328 0.19882 0.1488 0.0
C34 C 0.7698 0.41483 0.2192 0.0
Zn35 Zn 0.75527 0.33719 0.30457 0.0
C36 C 0.71202 0.19983 0.16215 0.0
O37 O 0.68518 0.25098 0.22065 0.0
C38 C 0.88931 0.42695 0.36922 0.0
O39 O 0.79254 0.26224 0.33642 0.0
O40 O 0.88522 0.20935 0.2483 0.0
N41 N 0.66573 0.31899 0.38602 0.0
C42 C 0.63615 0.24732 0.38525 0.0
C43 C 0.632 0.30814 0.49319 0.0
N44 N 0.66339 0.35649 0.45322 0.0
N45 N 0.61707 0.23947 0.45056 0.0
C46 C 0.95494 0.29943 0.07842 0.0
C47 C 0.97966 0.31652 0.11217 0.0
N48 N 0.95322 0.29901 0.14156 0.0
N49 N 1.00942 0.33912 0.16689 0.0
N50 N 1.00941 0.34843 0.05387 0.0
H51 H 0.89461 0.18548 0.03845 0.0
H52 H 0.94175 0.23408 0.97064 0.0
H53 H 0.85635 0.26232 0.03674 0.0
C54 C 0.90822 0.24078 0.02783 0.0
C55 C 0.64436 0.17914 0.32018 0.0
H56 H 0.70197 0.17992 0.283 0.0
H57 H 0.60197 0.17488 0.29421 0.0
H58 H 0.63523 0.12579 0.33343 0.0
O59 O 0.8181 0.42519 0.38258 0.0
O60 O 0.92107 0.383 0.30699 0.0
C61 C 0.84331 0.22041 0.31283 0.0
O62 O 0.82361 0.37578 0.19744 0.0
O63 O 0.72258 0.41938 0.28143 0.0
Zn64 Zn 0.87701 0.85878 0.25233 0.0
O65 O 0.85635 0.9202 0.18949 0.0
C66 C 0.74207 0.9209 0.39241 0.0
Zn67 Zn 0.77967 0.7837 0.28794 0.0
C68 C 0.78717 0.89639 0.20403 0.0
O69 O 0.76298 0.8491 0.23835 0.0
C70 C 0.85894 0.7406 0.33795 0.0
O71 O 0.84798 0.7039 0.19498 0.0
O72 O 0.93813 0.78652 0.1618 0.0
N73 N 0.69247 0.72488 0.26253 0.0
C74 C 0.6864 0.71046 0.197 0.0
C75 C 0.58015 0.67861 0.26445 0.0
N76 N 0.62577 0.70724 0.30563 0.0
N77 N 0.61627 0.6839 0.19712 0.0
C78 C 0.97148 0.98006 0.29756 0.0
C79 C 1.02839 0.90732 0.31374 0.0
N80 N 0.97677 0.91801 0.2436 0.0
N81 N 1.01886 0.87636 0.24921 0.0
N82 N 0.99507 0.96935 0.34625 0.0
H83 H 1.04733 1.05312 0.23842 0.0
H84 H 0.99181 0.10219 0.32487 0.0
H85 H 0.95155 1.05553 0.25215 0.0
C86 C 0.99074 1.05252 0.27869 0.0
C87 C 0.74925 0.71474 0.12785 0.0
H88 H 0.79884 0.7543 0.13419 0.0
H89 H 0.72801 0.73076 0.09274 0.0
H90 H 0.76773 0.65846 0.09772 0.0
O91 O 0.79122 0.71957 0.33853 0.0
O92 O 0.89648 0.7962 0.31465 0.0
C93 C 0.91299 0.71831 0.15415 0.0
O94 O 0.80951 0.93442 0.35261 0.0
O95 O 0.71088 0.85375 0.38052 0.0
Zn96 Zn 0.34046 0.79873 0.27978 0.0
O97 O 0.27635 0.8929 0.36351 0.0
C98 C 0.19682 0.71558 0.36012 0.0
Zn99 Zn 0.26121 0.82591 0.24524 0.0
C100 C 0.2243 0.93007 0.37113 0.0
O101 O 0.20582 0.92049 0.31688 0.0
C102 C 0.36471 0.68794 0.15816 0.0
O103 O 0.34096 0.90161 0.17003 0.0
O104 O 0.42121 0.88303 0.21116 0.0
N105 N 0.17925 0.80199 0.20529 0.0
C106 C 0.17936 0.74565 0.14647 0.0
C107 C 0.074 0.73062 0.22528 0.0
N108 N 0.11393 0.79276 0.25409 0.0
N109 N 0.11522 0.69916 0.1584 0.0
C110 C 0.41119 0.86674 0.38387 0.0
C111 C 0.52511 0.87237 0.31849 0.0
N112 N 0.41621 0.81082 0.32461 0.0
N113 N 0.48734 0.81216 0.28391 0.0
N114 N 0.47726 0.90818 0.37962 0.0
H115 H 0.32089 0.92185 0.46944 0.0
H116 H 0.3705 0.87384 0.49498 0.0
H117 H 0.3062 0.82011 0.44558 0.0
C118 C 0.34792 0.8704 0.45204 0.0
C119 C 0.23925 0.7409 0.07577 0.0
H120 H 0.28611 0.78622 0.08142 0.0
H121 H 0.21534 0.74612 0.03714 0.0
H122 H 0.26043 0.68599 0.05317 0.0
O123 O 0.31252 0.72363 0.16542 0.0
O124 O 0.3975 0.71081 0.20472 0.0
C125 C 0.40898 0.91611 0.1721 0.0
O126 O 0.26697 0.71733 0.34755 0.0
O127 O 0.18118 0.75361 0.32752 0.0
Zn128 Zn 0.35474 0.79248 0.7241 0.0
O129 O 0.28328 0.69882 0.6488 0.0
C130 C 0.2698 0.91483 0.7192 0.0
Zn131 Zn 0.25527 0.83719 0.80457 0.0
C132 C 0.21202 0.69983 0.66215 0.0
O133 O 0.18518 0.75098 0.72065 0.0
C134 C 0.38931 0.92695 0.86922 0.0
O135 O 0.29254 0.76224 0.83642 0.0
O136 O 0.38522 0.70935 0.7483 0.0
N137 N 0.16573 0.81899 0.88602 0.0
C138 C 0.13615 0.74732 0.88525 0.0
C139 C 0.132 0.80814 0.99319 0.0
N140 N 0.16339 0.85649 0.95322 0.0
N141 N 0.11707 0.73947 0.95056 0.0
C142 C 0.45494 0.79943 0.57842 0.0
C143 C 0.47966 0.81652 0.61217 0.0
N144 N 0.45322 0.79901 0.64156 0.0
N145 N 0.50942 0.83912 0.66689 0.0
N146 N 0.50941 0.84843 0.55387 0.0
H147 H 0.39461 0.68548 0.53845 0.0
H148 H 0.44175 0.73408 0.47064 0.0
H149 H 0.35635 0.76232 0.53674 0.0
C150 C 0.40822 0.74078 0.52783 0.0
C151 C 0.14436 0.67914 0.82018 0.0
H152 H 0.20197 0.67992 0.783 0.0
H153 H 0.10197 0.67488 0.79421 0.0
H154 H 0.13523 0.62579 0.83343 0.0
O155 O 0.3181 0.92519 0.88258 0.0
O156 O 0.42107 0.883 0.80699 0.0
C157 C 0.34331 0.72041 0.81283 0.0
O158 O 0.32361 0.87578 0.69744 0.0
O159 O 0.22258 0.91938 0.78143 0.0
Zn160 Zn 0.37701 0.35878 0.75233 0.0
O161 O 0.35635 0.4202 0.68949 0.0
C162 C 0.24207 0.4209 0.89241 0.0
Zn163 Zn 0.27967 0.2837 0.78794 0.0
C164 C 0.28717 0.39639 0.70403 0.0
O165 O 0.26298 0.3491 0.73835 0.0
C166 C 0.35894 0.2406 0.83795 0.0
O167 O 0.34798 0.2039 0.69498 0.0
O168 O 0.43813 0.28652 0.6618 0.0
N169 N 0.19247 0.22488 0.76253 0.0
C170 C 0.1864 0.21046 0.697 0.0
C171 C 0.08015 0.17861 0.76445 0.0
N172 N 0.12577 0.20724 0.80563 0.0
N173 N 0.11627 0.1839 0.69712 0.0
C174 C 0.47148 0.48006 0.79756 0.0
C175 C 0.52839 0.40732 0.81374 0.0
N176 N 0.47677 0.41801 0.7436 0.0
N177 N 0.51886 0.37636 0.74921 0.0
N178 N 0.49507 0.46935 0.84625 0.0
H179 H 0.54733 0.55312 0.73842 0.0
H180 H 0.49181 0.60219 0.82487 0.0
H181 H 0.45155 0.55553 0.75215 0.0
C182 C 0.49074 0.55252 0.77869 0.0
C183 C 0.24925 0.21474 0.62785 0.0
H184 H 0.29884 0.2543 0.63419 0.0
H185 H 0.22801 0.23076 0.59274 0.0
H186 H 0.26773 0.15846 0.59772 0.0
O187 O 0.29122 0.21957 0.83853 0.0
O188 O 0.39648 0.2962 0.81465 0.0
C189 C 0.41299 0.21831 0.65415 0.0
O190 O 0.30951 0.43442 0.85261 0.0
O191 O 0.21088 0.35375 0.88052 0.0
Zn192 Zn 0.84046 0.29873 0.77978 0.0
O193 O 0.77635 0.3929 0.86351 0.0
C194 C 0.69682 0.21558 0.86012 0.0
Zn195 Zn 0.76121 0.32591 0.74524 0.0
C196 C 0.7243 0.43007 0.87113 0.0
O197 O 0.70582 0.42049 0.81688 0.0
C198 C 0.86471 0.18794 0.65816 0.0
O199 O 0.84096 0.40161 0.67003 0.0
O200 O 0.92121 0.38303 0.71116 0.0
N201 N 0.67925 0.30199 0.70529 0.0
C202 C 0.67936 0.24565 0.64647 0.0
C203 C 0.574 0.23062 0.72528 0.0
N204 N 0.61393 0.29276 0.75409 0.0
N205 N 0.61522 0.19916 0.6584 0.0
C206 C 0.91119 0.36674 0.88387 0.0
C207 C 1.02511 0.37237 0.81849 0.0
N208 N 0.91621 0.31082 0.82461 0.0
N209 N 0.98734 0.31216 0.78391 0.0
N210 N 0.97726 0.40818 0.87962 0.0
H211 H 0.82089 0.42185 0.96944 0.0
H212 H 0.8705 0.37384 0.99498 0.0
H213 H 0.8062 0.32011 0.94558 0.0
C214 C 0.84792 0.3704 0.95204 0.0
C215 C 0.73925 0.2409 0.57577 0.0
H216 H 0.78611 0.28622 0.58142 0.0
H217 H 0.71534 0.24612 0.53714 0.0
H218 H 0.76043 0.18599 0.55317 0.0
O219 O 0.81252 0.22363 0.66542 0.0
O220 O 0.8975 0.21081 0.70472 0.0
C221 C 0.90898 0.41611 0.6721 0.0
O222 O 0.76697 0.21733 0.84755 0.0
O223 O 0.68118 0.25361 0.82752 0.0
Zn224 Zn 0.85603 0.84934 0.77513 0.0
O225 O 0.8924 0.79587 0.82716 0.0
C226 C 0.89421 0.71536 0.63759 0.0
Zn227 Zn 0.76002 0.77582 0.75106 0.0
C228 C 0.8434 0.74083 0.83863 0.0
O229 O 0.78629 0.72885 0.818 0.0
C230 C 0.76825 0.8818 0.6908 0.0
O231 O 0.6939 0.86521 0.8483 0.0
O232 O 0.79862 0.91545 0.86991 0.0
N233 N 0.67137 0.6977 0.75023 0.0
C234 C 0.6228 0.71585 0.81604 0.0
C235 C 0.66423 0.61644 0.80245 0.0
N236 N 0.69321 0.63288 0.73976 0.0
N237 N 0.62302 0.6702 0.85251 0.0
C238 C 0.98505 0.92332 0.71676 0.0
C239 C 0.9356 1.02102 0.7389 0.0
N240 N 0.93812 0.93573 0.78296 0.0
N241 N 0.91176 0.99988 0.7991 0.0
N242 N 0.97881 0.97126 0.68501 0.0
H243 H 1.02165 0.82661 0.71965 0.0
H244 H 0.09016 0.90101 0.70844 0.0
H245 H 0.05591 0.84278 0.63246 0.0
C246 C 1.04171 0.87009 0.69087 0.0
C247 C 0.56606 0.76742 0.83651 0.0
H248 H 0.55532 0.80171 0.8933 0.0
H249 H 0.51422 0.73256 0.8278 0.0
H250 H 0.58436 0.80426 0.80087 0.0
O251 O 0.73474 0.81607 0.68439 0.0
O252 O 0.81599 0.9043 0.72446 0.0
C253 C 0.72953 0.91804 0.88568 0.0
O254 O 0.91948 0.7788 0.67151 0.0
O255 O 0.82406 0.69655 0.65891 0.0
Co256 Co 0.16036 0.98505 0.54798 0.0
N257 N 0.18818 0.94495 0.60395 0.0
C258 C 0.20009 0.87212 0.57771 0.0
N259 N 0.24644 0.91846 0.66698 0.0
C260 C 0.21577 0.97152 0.66076 0.0
C261 C 0.23717 0.85715 0.61391 0.0
Co262 Co 0.93066 0.15573 0.50124 0.0
N263 N 0.88169 0.16559 0.44141 0.0
N264 N 0.85078 0.18732 0.35682 0.0
C265 C 0.83015 0.11501 0.35261 0.0
C266 C 0.8476 0.10314 0.40526 0.0
C267 C 0.87694 0.21837 0.41424 0.0
Co268 Co 0.05178 0.0738 0.52162 0.0
C269 C 0.89461 0.13068 0.59038 0.0
H270 H 0.84419 1.05059 0.4122 0.0
O271 O 0.14539 1.01711 0.48286 0.0
O272 O 0.10282 0.12426 0.44411 0.0
O273 O 0.09469 0.15016 0.59156 0.0
O274 O 0.99527 1.02617 0.60018 0.0
O275 O 0.06323 0.93749 0.57604 0.0
O276 O 1.02283 0.19863 0.45082 0.0
O277 O 0.96752 0.14041 0.55967 0.0
O278 O 0.95629 0.06885 0.43546 0.0
O279 O 0.13433 0.07071 0.62366 0.0
O280 O 0.17541 0.90821 0.47717 0.0
O281 O 1.01054 0.99307 0.45363 0.0
O282 O 0.85037 0.11007 0.55127 0.0
C283 C 0.1072 0.13128 0.6388 0.0
C284 C 0.89615 0.30052 0.44572 0.0
H285 H 0.92235 0.31086 0.488 0.0
H286 H 0.93403 0.32575 0.40324 0.0
H287 H 0.84412 0.32807 0.46931 0.0
C288 C 0.08418 0.16873 0.42036 0.0
C289 C 1.0093 0.97405 0.61654 0.0
H290 H 0.18234 0.83013 0.53483 0.0
H291 H 0.24137 0.05812 0.75058 0.0
H292 H 0.15622 0.0615 0.73526 0.0
H293 H 0.24676 0.08761 0.67583 0.0
C294 C 0.21512 1.04955 0.70883 0.0
C295 C 0.16848 0.9501 0.44427 0.0
C296 C 0.9844 1.00957 0.41453 0.0
H297 H 0.25177 0.80315 0.60426 0.0
H298 H 0.80633 0.07365 0.31313 0.0
Co299 Co 0.64627 0.96472 0.05793 0.0
N300 N 0.6791 0.94005 0.11822 0.0
C301 C 0.63409 0.88901 0.15035 0.0
N302 N 0.7379 0.91124 0.17894 0.0
C303 C 0.74353 0.9526 0.13589 0.0
C304 C 0.66822 0.87403 0.18884 0.0
Co305 Co 0.48564 0.13362 0.95139 0.0
N306 N 0.47451 0.14835 0.87303 0.0
N307 N 0.39648 0.19401 0.84505 0.0
C308 C 0.3945 0.12008 0.81139 0.0
C309 C 0.44514 0.09296 0.82597 0.0
C310 C 0.44898 0.21114 0.87816 0.0
Co311 Co 0.55528 0.05987 0.01105 0.0
C312 C 0.43667 0.18186 0.06213 0.0
H313 H 0.45529 1.03525 0.80762 0.0
O314 O 0.62324 0.97903 0.98532 0.0
O315 O 0.63465 0.11587 0.9311 0.0
O316 O 0.61408 0.14004 0.08744 0.0
O317 O 0.47282 1.00436 0.08854 0.0
O318 O 0.54246 0.95268 0.11995 0.0
O319 O 0.57109 0.20622 0.94418 0.0
O320 O 0.48445 0.1331 0.03892 0.0
O321 O 0.40689 1.05188 0.95016 0.0
O322 O 0.67107 0.06779 0.10906 0.0
O323 O 0.73321 0.97477 0.99899 0.0
O324 O 0.49566 0.98466 0.93283 0.0
O325 O 0.42031 0.19829 0.01536 0.0
C326 C 0.66128 0.13386 0.11785 0.0
C327 C 0.47307 0.29021 0.91853 0.0
H328 H 0.48629 0.29472 0.96689 0.0
H329 H 0.52594 0.31182 0.88356 0.0
H330 H 0.43032 0.32812 0.93392 0.0
C331 C 0.6327 0.17744 0.9159 0.0
C332 C 0.47724 0.96226 0.12509 0.0
H333 H 0.58097 0.8602 0.14333 0.0
H334 H 0.85311 0.96547 0.06178 0.0
H335 H 0.84091 1.03041 0.14979 0.0
H336 H 0.80141 1.04377 0.08945 0.0
C337 C 0.81336 1.00133 0.10768 0.0
C338 C 0.69541 0.96999 0.95723 0.0
C339 C 0.43284 0.98884 0.92134 0.0
H340 H 0.64452 0.83411 0.21879 0.0
H341 H 0.36075 0.08848 0.77672 0.0
Co342 Co 0.16301 0.48855 0.05158 0.0
N343 N 0.19296 0.48107 0.12174 0.0
C344 C 0.22089 0.53657 0.16991 0.0
N345 N 0.24686 0.43107 0.17062 0.0
C346 C 0.2085 0.41723 0.124 0.0
C347 C 0.25515 0.50603 0.19916 0.0
Co348 Co 0.92327 0.61418 0.98872 0.0
N349 N 0.8942 0.63607 0.92389 0.0
N350 N 0.85266 0.69197 0.86851 0.0
C351 C 0.80886 0.62672 0.87294 0.0
C352 C 0.83413 0.5935 0.90713 0.0
C353 C 0.90439 0.69689 0.90025 0.0
Co354 Co 1.04428 0.55185 0.02203 0.0
C355 C 0.93345 0.67114 0.08123 0.0
H356 H 0.80736 0.54459 0.92464 0.0
O357 O 0.14201 0.49898 0.97862 0.0
O358 O 0.0967 0.64958 1.0056 0.0
O359 O 1.0439 0.59343 0.12176 0.0
O360 O 0.99232 0.45339 0.03761 0.0
O361 O 0.06127 0.46355 0.10384 0.0
O362 O 1.02538 0.6441 0.94094 0.0
O363 O 0.94589 0.59985 0.05912 0.0
O364 O 0.92861 0.5166 0.93599 0.0
O365 O 0.16342 0.59134 0.0932 0.0
O366 O 0.25204 0.50509 1.0016 0.0
O367 O 1.04574 0.51245 0.92229 0.0
O368 O 0.91858 0.70035 0.04136 0.0
C369 C 0.1067 0.62567 0.12681 0.0
C370 C 0.95766 0.76653 0.91698 0.0
H371 H 0.98548 0.76609 0.95424 0.0
H372 H 1.00094 0.773 0.86636 0.0
H373 H 0.9268 0.81645 0.94146 0.0
C374 C 0.07716 0.67809 0.96907 0.0
C375 C 1.01325 0.42437 0.07293 0.0
H376 H 0.21968 0.59578 0.1812 0.0
H377 H 0.17207 0.34823 0.03297 0.0
H378 H 0.15582 0.30363 0.10141 0.0
H379 H 0.24925 0.31793 0.04281 0.0
C380 C 0.19552 0.34254 0.07195 0.0
C381 C 0.209 0.47694 0.96143 0.0
C382 C 0.98519 0.48153 0.91068 0.0
H383 H 0.2825 0.5365 0.23958 0.0
H384 H 0.76055 0.60494 0.85471 0.0
Co385 Co 0.66036 0.48505 0.04798 0.0
N386 N 0.68818 0.44495 0.10395 0.0
C387 C 0.70009 0.37212 0.07771 0.0
N388 N 0.74644 0.41846 0.16698 0.0
C389 C 0.71577 0.47152 0.16076 0.0
C390 C 0.73717 0.35715 0.11391 0.0
Co391 Co 0.43066 0.65573 1.00124 0.0
N392 N 0.38169 0.66559 0.94141 0.0
N393 N 0.35078 0.68732 0.85682 0.0
C394 C 0.33015 0.61501 0.85261 0.0
C395 C 0.3476 0.60314 0.90526 0.0
C396 C 0.37694 0.71837 0.91424 0.0
Co397 Co 0.55178 0.5738 0.02162 0.0
C398 C 0.39461 0.63068 0.09038 0.0
H399 H 0.34419 0.55059 0.9122 0.0
O400 O 0.64539 0.51711 0.98286 0.0
O401 O 0.60282 0.62426 0.94411 0.0
O402 O 0.59469 0.65016 0.09156 0.0
O403 O 0.49527 0.52617 0.10018 0.0
O404 O 0.56323 0.43749 0.07604 0.0
O405 O 0.52283 0.69863 0.95082 0.0
O406 O 0.46752 0.64041 0.05967 0.0
O407 O 0.45629 0.56885 0.93546 0.0
O408 O 0.63433 0.57071 0.12366 0.0
O409 O 0.67541 0.40821 0.97717 0.0
O410 O 0.51054 0.49307 0.95363 0.0
O411 O 0.35037 0.61007 0.05127 0.0
C412 C 0.6072 0.63128 0.1388 0.0
C413 C 0.39615 0.80052 0.94572 0.0
H414 H 0.42235 0.81086 0.988 0.0
H415 H 0.43403 0.82575 0.90324 0.0
H416 H 0.34412 0.82807 0.96931 0.0
C417 C 0.58418 0.66873 0.92036 0.0
C418 C 0.5093 0.47405 0.11654 0.0
H419 H 0.68234 0.33013 0.03483 0.0
H420 H 0.74137 0.55812 0.25058 0.0
H421 H 0.65622 0.5615 0.23526 0.0
H422 H 0.74676 0.58761 0.17583 0.0
C423 C 0.71512 0.54955 0.20883 0.0
C424 C 0.66848 0.4501 0.94427 0.0
C425 C 0.4844 0.50957 0.91453 0.0
H426 H 0.75177 0.30315 0.10426 0.0
H427 H 0.30633 0.57365 0.81313 0.0
Co428 Co 0.14627 0.46472 0.55793 0.0
N429 N 0.1791 0.44005 0.61822 0.0
C430 C 0.13409 0.38901 0.65035 0.0
N431 N 0.2379 0.41124 0.67894 0.0
C432 C 0.24353 0.4526 0.63589 0.0
C433 C 0.16822 0.37403 0.68884 0.0
Co434 Co 0.98564 0.63362 0.45139 0.0
N435 N 0.97451 0.64835 0.37303 0.0
N436 N 0.89648 0.69401 0.34505 0.0
C437 C 0.8945 0.62008 0.31139 0.0
C438 C 0.94514 0.59296 0.32597 0.0
C439 C 0.94898 0.71114 0.37816 0.0
Co440 Co 0.05528 0.55987 0.51105 0.0
C441 C 0.93667 0.68186 0.56213 0.0
H442 H 0.95529 0.53525 0.30762 0.0
O443 O 0.12324 0.47903 0.48532 0.0
O444 O 0.13465 0.61587 0.4311 0.0
O445 O 0.11408 0.64004 0.58744 0.0
O446 O 0.97282 0.50436 0.58854 0.0
O447 O 1.04246 0.45268 0.61995 0.0
O448 O 0.07109 0.70622 0.44418 0.0
O449 O 0.98445 0.6331 0.53892 0.0
O450 O 0.90689 0.55188 0.45016 0.0
O451 O 0.17107 0.56779 0.60906 0.0
O452 O 0.23321 0.47477 0.49899 0.0
O453 O 0.99566 0.48466 0.43283 0.0
O454 O 0.92031 0.69829 0.51536 0.0
C455 C 0.16128 0.63386 0.61785 0.0
C456 C 0.97307 0.79021 0.41853 0.0
H457 H 0.98629 0.79472 0.46689 0.0
H458 H 1.02594 0.81182 0.38356 0.0
H459 H 0.93032 0.82812 0.43392 0.0
C460 C 0.1327 0.67744 0.4159 0.0
C461 C 0.97724 0.46226 0.62509 0.0
H462 H 0.08097 0.3602 0.64333 0.0
H463 H 0.35311 0.46547 0.56178 0.0
H464 H 0.34091 0.53041 0.64979 0.0
H465 H 0.30141 0.54377 0.58945 0.0
C466 C 0.31336 0.50133 0.60768 0.0
C467 C 0.19541 0.46999 0.45723 0.0
C468 C 0.93284 0.48884 0.42134 0.0
H469 H 0.14452 0.33411 0.71879 0.0
H470 H 0.86075 0.58848 0.27672 0.0
Co471 Co 0.663 0.98855 0.55158 0.0
N472 N 0.69296 0.98107 0.62174 0.0
C473 C 0.72089 1.03657 0.66991 0.0
N474 N 0.74686 0.93107 0.67062 0.0
C475 C 0.7085 0.91723 0.624 0.0
C476 C 0.75515 1.00603 0.69916 0.0
Co477 Co 0.42327 0.11418 0.48872 0.0
N478 N 0.3942 0.13607 0.42389 0.0
N479 N 0.35266 0.19197 0.36851 0.0
C480 C 0.30886 0.12672 0.37294 0.0
C481 C 0.33413 0.0935 0.40713 0.0
C482 C 0.40439 0.19689 0.40025 0.0
Co483 Co 0.54428 1.05185 0.52203 0.0
C484 C 0.43345 0.17114 0.58123 0.0
H485 H 0.30736 1.04459 0.42464 0.0
O486 O 0.64201 0.99898 0.47862 0.0
O487 O 0.5967 0.14958 0.5056 0.0
O488 O 0.5439 0.09343 0.62176 0.0
O489 O 0.49232 0.95339 0.53761 0.0
O490 O 0.56127 0.96355 0.60384 0.0
O491 O 0.52538 0.1441 0.44094 0.0
O492 O 0.44589 0.09985 0.55912 0.0
O493 O 0.42861 1.0166 0.43599 0.0
O494 O 0.66342 0.09134 0.5932 0.0
O495 O 0.75204 1.00509 0.5016 0.0
O496 O 0.54574 1.01245 0.42229 0.0
O497 O 0.41858 0.20035 0.54136 0.0
C498 C 0.6067 0.12567 0.62681 0.0
C499 C 0.45766 0.26653 0.41698 0.0
H500 H 0.48548 0.26609 0.45424 0.0
H501 H 0.50094 0.273 0.36636 0.0
H502 H 0.4268 0.31645 0.44146 0.0
C503 C 0.57716 0.17809 0.46907 0.0
C504 C 0.51325 0.92437 0.57293 0.0
H505 H 0.71968 0.09578 0.6812 0.0
H506 H 0.67207 0.84823 0.53297 0.0
H507 H 0.65582 0.80363 0.60141 0.0
H508 H 0.74925 0.81793 0.54281 0.0
C509 C 0.69552 0.84254 0.57195 0.0
C510 C 0.709 0.97694 0.46143 0.0
C511 C 0.48519 0.98153 0.41068 0.0
H512 H 0.7825 1.0365 0.73958 0.0
H513 H 0.26055 0.10494 0.35471 0.0
loop_
_geom_bond_atom_site_label_1
_geom_bond_atom_site_label_2
_geom_bond_distance
_geom_bond_site_symmetry_2
_ccdc_geom_bond_type
Zn0 O1 2.055 . S
Zn0 O8 2.046 . S
Zn0 N16 2.036 . S
Zn0 O28 2.053 . S
Zn0 O30 2.066 . S
O1 Zn0 2.055 . S
O1 C4 1.259 . S
C2 O30 1.256 . S
C2 O31 1.244 . S
Zn3 O5 2.046 . S
Zn3 O7 2.055 . S
Zn3 N9 2.036 . S
Zn3 O27 2.066 . S
Zn3 O31 2.053 . S
C4 O1 1.259 . S
C4 O5 1.254 . S
O5 Zn3 2.046 . S
O5 C4 1.254 . S
C6 O27 1.256 . S
C6 O28 1.244 . S
O7 Zn3 2.055 . S
O7 C29 1.259 . S
O8 Zn0 2.046 . S
O8 C29 1.254 . S
N9 Zn3 2.036 . S
N9 C10 1.298 . S
N9 N12 1.398 . S
C10 N9 1.298 . S
C10 N13 1.367 . S
C10 C23 1.481 . S
C11 N12 1.299 . S
C11 N13 1.379 . S
N12 N9 1.398 . S
N12 C11 1.299 . S
N13 C10 1.367 . S
N13 C11 1.379 . S
C14 N16 1.298 . S
C14 N18 1.367 . S
C14 C22 1.481 . S
C15 N17 1.299 . S
C15 N18 1.379 . S
N16 Zn0 2.036 . S
N16 C14 1.298 . S
N16 N17 1.398 . S
N17 C15 1.299 . S
N17 N16 1.398 . S
N18 C14 1.367 . S
N18 C15 1.379 . S
H19 C22 0.980 . S
H20 C22 0.981 1_655 S
H21 C22 0.981 . S
C22 C14 1.481 . S
C22 H19 0.980 . S
C22 H20 0.981 1_455 S
C22 H21 0.981 . S
C23 C10 1.481 . S
C23 H24 0.980 . S
C23 H25 0.981 . S
C23 H26 0.981 . S
H24 C23 0.980 . S
H25 C23 0.981 . S
H26 C23 0.981 . S
O27 Zn3 2.066 . S
O27 C6 1.256 . S
O28 Zn0 2.053 . S
O28 C6 1.244 . S
C29 O7 1.259 . S
C29 O8 1.254 . S
O30 Zn0 2.066 . S
O30 C2 1.256 . S
O31 C2 1.244 . S
O31 Zn3 2.053 . S
Zn32 O33 2.055 . S
Zn32 O40 2.046 . S
Zn32 N48 2.036 . S
Zn32 O60 2.053 . S
Zn32 O62 2.066 . S
O33 Zn32 2.055 . S
O33 C36 1.259 . S
C34 O62 1.256 . S
C34 O63 1.244 . S
Zn35 O37 2.046 . S
Zn35 O39 2.055 . S
Zn35 N41 2.036 . S
Zn35 O59 2.066 . S
Zn35 O63 2.053 . S
C36 O33 1.259 . S
C36 O37 1.254 . S
O37 Zn35 2.046 . S
O37 C36 1.254 . S
C38 O59 1.256 . S
C38 O60 1.244 . S
O39 Zn35 2.055 . S
O39 C61 1.259 . S
O40 Zn32 2.046 . S
O40 C61 1.254 . S
N41 Zn35 2.036 . S
N41 C42 1.298 . S
N41 N44 1.398 . S
C42 N41 1.298 . S
C42 N45 1.367 . S
C42 C55 1.481 . S
C43 N44 1.299 . S
C43 N45 1.379 . S
N44 N41 1.398 . S
N44 C43 1.299 . S
N45 C42 1.367 . S
N45 C43 1.379 . S
C46 N48 1.298 . S
C46 N50 1.367 . S
C46 C54 1.481 . S
C47 N49 1.299 . S
C47 N50 1.379 . S
N48 Zn32 2.036 . S
N48 C46 1.298 . S
N48 N49 1.398 . S
N49 C47 1.299 . S
N49 N48 1.398 . S
N50 C46 1.367 . S
N50 C47 1.379 . S
H51 C54 0.980 . S
H52 C54 0.981 1_556 S
H53 C54 0.981 . S
C54 C46 1.481 . S
C54 H51 0.980 . S
C54 H52 0.981 1_554 S
C54 H53 0.981 . S
C55 C42 1.481 . S
C55 H56 0.980 . S
C55 H57 0.981 . S
C55 H58 0.981 . S
H56 C55 0.980 . S
H57 C55 0.981 . S
H58 C55 0.981 . S
O59 Zn35 2.066 . S
O59 C38 1.256 . S
O60 Zn32 2.053 . S
O60 C38 1.244 . S
C61 O39 1.259 . S
C61 O40 1.254 . S
O62 Zn32 2.066 . S
O62 C34 1.256 . S
O63 C34 1.244 . S
O63 Zn35 2.053 . S
Zn64 O65 2.055 . S
Zn64 O72 2.046 . S
Zn64 N80 2.036 . S
Zn64 O92 2.053 . S
Zn64 O94 2.066 . S
O65 Zn64 2.055 . S
O65 C68 1.259 . S
C66 O94 1.256 . S
C66 O95 1.244 . S
Zn67 O69 2.046 . S
Zn67 O71 2.055 . S
Zn67 N73 2.036 . S
Zn67 O91 2.066 . S
Zn67 O95 2.053 . S
C68 O65 1.259 . S
C68 O69 1.254 . S
O69 Zn67 2.046 . S
O69 C68 1.254 . S
C70 O91 1.256 . S
C70 O92 1.244 . S
O71 Zn67 2.055 . S
O71 C93 1.259 . S
O72 Zn64 2.046 . S
O72 C93 1.254 . S
N73 Zn67 2.036 . S
N73 C74 1.298 . S
N73 N76 1.398 . S
C74 N73 1.298 . S
C74 N77 1.367 . S
C74 C87 1.481 . S
C75 N76 1.299 . S
C75 N77 1.379 . S
N76 N73 1.398 . S
N76 C75 1.299 . S
N77 C74 1.367 . S
N77 C75 1.379 . S
C78 N80 1.298 . S
C78 N82 1.367 . S
C78 C86 1.481 . S
C79 N81 1.299 . S
C79 N82 1.379 . S
N80 Zn64 2.036 . S
N80 C78 1.298 . S
N80 N81 1.398 . S
N81 C79 1.299 . S
N81 N80 1.398 . S
N82 C78 1.367 . S
N82 C79 1.379 . S
H83 C86 0.980 . S
H84 C86 0.981 1_545 S
H85 C86 0.981 1_545 S
C86 C78 1.481 . S
C86 H83 0.980 . S
C86 H84 0.981 1_565 S
C86 H85 0.981 1_565 S
C87 C74 1.481 . S
C87 H88 0.980 . S
C87 H89 0.981 . S
C87 H90 0.981 . S
H88 C87 0.980 . S
H89 C87 0.981 . S
H90 C87 0.981 . S
O91 Zn67 2.066 . S
O91 C70 1.256 . S
O92 Zn64 2.053 . S
O92 C70 1.244 . S
C93 O71 1.259 . S
C93 O72 1.254 . S
O94 Zn64 2.066 . S
O94 C66 1.256 . S
O95 C66 1.244 . S
O95 Zn67 2.053 . S
Zn96 O97 2.055 . S
Zn96 O104 2.046 . S
Zn96 N112 2.036 . S
Zn96 O124 2.053 . S
Zn96 O126 2.066 . S
O97 Zn96 2.055 . S
O97 C100 1.259 . S
C98 O126 1.256 . S
C98 O127 1.244 . S
Zn99 O101 2.046 . S
Zn99 O103 2.055 . S
Zn99 N105 2.036 . S
Zn99 O123 2.066 . S
Zn99 O127 2.053 . S
C100 O97 1.259 . S
C100 O101 1.254 . S
O101 Zn99 2.046 . S
O101 C100 1.254 . S
C102 O123 1.256 . S
C102 O124 1.244 . S
O103 Zn99 2.055 . S
O103 C125 1.259 . S
O104 Zn96 2.046 . S
O104 C125 1.254 . S
N105 Zn99 2.036 . S
N105 C106 1.298 . S
N105 N108 1.398 . S
C106 N105 1.298 . S
C106 N109 1.367 . S
C106 C119 1.481 . S
C107 N108 1.299 . S
C107 N109 1.379 . S
N108 N105 1.398 . S
N108 C107 1.299 . S
N109 C106 1.367 . S
N109 C107 1.379 . S
C110 N112 1.298 . S
C110 N114 1.367 . S
C110 C118 1.481 . S
C111 N113 1.299 . S
C111 N114 1.379 . S
N112 Zn96 2.036 . S
N112 C110 1.298 . S
N112 N113 1.398 . S
N113 C111 1.299 . S
N113 N112 1.398 . S
N114 C110 1.367 . S
N114 C111 1.379 . S
H115 C118 0.980 . S
H116 C118 0.981 . S
H117 C118 0.981 . S
C118 C110 1.481 . S
C118 H115 0.980 . S
C118 H116 0.981 . S
C118 H117 0.981 . S
C119 C106 1.481 . S
C119 H120 0.980 . S
C119 H121 0.996 . S
C119 H122 0.981 . S
H120 C119 0.980 . S
H121 C119 0.996 . S
H122 C119 0.981 . S
O123 Zn99 2.066 . S
O123 C102 1.256 . S
O124 Zn96 2.053 . S
O124 C102 1.244 . S
C125 O103 1.259 . S
C125 O104 1.254 . S
O126 Zn96 2.066 . S
O126 C98 1.256 . S
O127 C98 1.244 . S
O127 Zn99 2.053 . S
Zn128 O129 2.055 . S
Zn128 O136 2.046 . S
Zn128 N144 2.036 . S
Zn128 O156 2.053 . S
Zn128 O158 2.066 . S
O129 Zn128 2.055 . S
O129 C132 1.259 . S
C130 O158 1.256 . S
C130 O159 1.244 . S
Zn131 O133 2.046 . S
Zn131 O135 2.055 . S
Zn131 N137 2.036 . S
Zn131 O155 2.066 . S
Zn131 O159 2.053 . S
C132 O129 1.259 . S
C132 O133 1.254 . S
O133 Zn131 2.046 . S
O133 C132 1.254 . S
C134 O155 1.256 . S
C134 O156 1.244 . S
O135 Zn131 2.055 . S
O135 C157 1.259 . S
O136 Zn128 2.046 . S
O136 C157 1.254 . S
N137 Zn131 2.036 . S
N137 C138 1.298 . S
N137 N140 1.398 . S
C138 N137 1.298 . S
C138 N141 1.367 . S
C138 C151 1.481 . S
C139 N140 1.299 . S
C139 N141 1.379 . S
N140 N137 1.398 . S
N140 C139 1.299 . S
N141 C138 1.367 . S
N141 C139 1.379 . S
C142 N144 1.298 . S
C142 N146 1.367 . S
C142 C150 1.481 . S
C143 N145 1.299 . S
C143 N146 1.379 . S
N144 Zn128 2.036 . S
N144 C142 1.298 . S
N144 N145 1.398 . S
N145 C143 1.299 . S
N145 N144 1.398 . S
N146 C142 1.367 . S
N146 C143 1.379 . S
H147 C150 0.980 . S
H148 C150 0.981 . S
H149 C150 0.981 . S
C150 C142 1.481 . S
C150 H147 0.980 . S
C150 H148 0.981 . S
C150 H149 0.981 . S
C151 C138 1.481 . S
C151 H152 0.980 . S
C151 H153 0.981 . S
C151 H154 0.981 . S
H152 C151 0.980 . S
H153 C151 0.981 . S
H154 C151 0.981 . S
O155 Zn131 2.066 . S
O155 C134 1.256 . S
O156 Zn128 2.053 . S
O156 C134 1.244 . S
C157 O135 1.259 . S
C157 O136 1.254 . S
O158 Zn128 2.066 . S
O158 C130 1.256 . S
O159 C130 1.244 . S
O159 Zn131 2.053 . S
Zn160 O161 2.055 . S
Zn160 O168 2.046 . S
Zn160 N176 2.036 . S
Zn160 O188 2.053 . S
Zn160 O190 2.066 . S
O161 Zn160 2.055 . S
O161 C164 1.259 . S
C162 O190 1.256 . S
C162 O191 1.244 . S
Zn163 O165 2.046 . S
Zn163 O167 2.055 . S
Zn163 N169 2.036 . S
Zn163 O187 2.066 . S
Zn163 O191 2.053 . S
C164 O161 1.259 . S
C164 O165 1.254 . S
O165 Zn163 2.046 . S
O165 C164 1.254 . S
C166 O187 1.256 . S
C166 O188 1.244 . S
O167 Zn163 2.055 . S
O167 C189 1.259 . S
O168 Zn160 2.046 . S
O168 C189 1.254 . S
N169 Zn163 2.036 . S
N169 C170 1.298 . S
N169 N172 1.398 . S
C170 N169 1.298 . S
C170 N173 1.367 . S
C170 C183 1.481 . S
C171 N172 1.299 . S
C171 N173 1.379 . S
N172 N169 1.398 . S
N172 C171 1.299 . S
N173 C170 1.367 . S
N173 C171 1.379 . S
C174 N176 1.298 . S
C174 N178 1.367 . S
C174 C182 1.481 . S
C175 N177 1.299 . S
C175 N178 1.379 . S
N176 Zn160 2.036 . S
N176 C174 1.298 . S
N176 N177 1.398 . S
N177 C175 1.299 . S
N177 N176 1.398 . S
N178 C174 1.367 . S
N178 C175 1.379 . S
H179 C182 0.980 . S
H180 C182 0.981 . S
H181 C182 0.981 . S
C182 C174 1.481 . S
C182 H179 0.980 . S
C182 H180 0.981 . S
C182 H181 0.981 . S
C183 C170 1.481 . S
C183 H184 0.980 . S
C183 H185 0.981 1_545 S
C183 H186 0.981 . S
H184 C183 0.980 . S
H185 C183 0.981 1_565 S
H186 C183 0.981 . S
O187 Zn163 2.066 . S
O187 C166 1.256 . S
O188 Zn160 2.053 . S
O188 C166 1.244 . S
C189 O167 1.259 . S
C189 O168 1.254 . S
O190 Zn160 2.066 . S
O190 C162 1.256 . S
O191 C162 1.244 . S
O191 Zn163 2.053 . S
Zn192 O193 2.055 . S
Zn192 O200 2.046 . S
Zn192 N208 2.036 . S
Zn192 O220 2.053 . S
Zn192 O222 2.066 . S
O193 Zn192 2.055 . S
O193 C196 1.259 . S
C194 O222 1.256 . S
C194 O223 1.244 . S
Zn195 O197 2.046 . S
Zn195 O199 2.055 . S
Zn195 N201 2.036 . S
Zn195 O219 2.066 . S
Zn195 O223 2.053 . S
C196 O193 1.259 . S
C196 O197 1.254 . S
O197 Zn195 2.046 . S
O197 C196 1.254 . S
C198 O219 1.256 . S
C198 O220 1.244 . S
O199 Zn195 2.055 . S
O199 C221 1.259 . S
O200 Zn192 2.046 . S
O200 C221 1.254 . S
N201 Zn195 2.036 . S
N201 C202 1.298 . S
N201 N204 1.398 . S
C202 N201 1.298 . S
C202 N205 1.367 . S
C202 C215 1.481 . S
C203 N204 1.299 . S
C203 N205 1.379 . S
N204 N201 1.398 . S
N204 C203 1.299 . S
N205 C202 1.367 . S
N205 C203 1.379 . S
C206 N208 1.298 . S
C206 N210 1.367 . S
C206 C214 1.481 . S
C207 N209 1.299 . S
C207 N210 1.379 . S
N208 Zn192 2.036 . S
N208 C206 1.298 . S
N208 N209 1.398 . S
N209 C207 1.299 . S
N209 N208 1.398 . S
N210 C206 1.367 . S
N210 C207 1.379 . S
H211 C214 0.980 . S
H212 C214 0.981 1_554 S
H213 C214 0.981 . S
C214 C206 1.481 . S
C214 H211 0.980 . S
C214 H212 0.981 1_556 S
C214 H213 0.981 . S
C215 C202 1.481 . S
C215 H216 0.980 . S
C215 H217 0.981 . S
C215 H218 0.981 . S
H216 C215 0.980 . S
H217 C215 0.981 . S
H218 C215 0.981 . S
O219 Zn195 2.066 . S
O219 C198 1.256 . S
O220 Zn192 2.053 . S
O220 C198 1.244 . S
C221 O199 1.259 . S
C221 O200 1.254 . S
O222 Zn192 2.066 . S
O222 C194 1.256 . S
O223 C194 1.244 . S
O223 Zn195 2.053 . S
Zn224 O225 2.055 . S
Zn224 O232 2.046 . S
Zn224 N240 2.036 . S
Zn224 O252 2.053 . S
Zn224 O254 2.066 . S
O225 Zn224 2.055 . S
O225 C228 1.259 . S
C226 O254 1.256 . S
C226 O255 1.244 . S
Zn227 O229 2.046 . S
Zn227 O231 2.055 . S
Zn227 N233 2.036 . S
Zn227 O251 2.066 . S
Zn227 O255 2.053 . S
C228 O225 1.259 . S
C228 O229 1.254 . S
O229 Zn227 2.046 . S
O229 C228 1.254 . S
C230 O251 1.256 . S
C230 O252 1.244 . S
O231 Zn227 2.055 . S
O231 C253 1.259 . S
O232 Zn224 2.046 . S
O232 C253 1.254 . S
N233 Zn227 2.036 . S
N233 C234 1.298 . S
N233 N236 1.398 . S
C234 N233 1.298 . S
C234 N237 1.367 . S
C234 C247 1.481 . S
C235 N236 1.299 . S
C235 N237 1.379 . S
N236 N233 1.398 . S
N236 C235 1.299 . S
N237 C234 1.367 . S
N237 C235 1.379 . S
C238 N240 1.298 . S
C238 N242 1.367 . S
C238 C246 1.481 . S
C239 N241 1.299 . S
C239 N242 1.379 . S
N240 Zn224 2.036 . S
N240 C238 1.298 . S
N240 N241 1.398 . S
N241 C239 1.299 . S
N241 N240 1.398 . S
N242 C238 1.367 . S
N242 C239 1.379 . S
H243 C246 0.980 . S
H244 C246 0.981 1_455 S
H245 C246 0.981 1_455 S
C246 C238 1.481 . S
C246 H243 0.980 . S
C246 H244 0.981 1_655 S
C246 H245 0.981 1_655 S
C247 C234 1.481 . S
C247 H248 0.980 . S
C247 H249 0.981 . S
C247 H250 0.981 . S
H248 C247 0.980 . S
H249 C247 0.981 . S
H250 C247 0.981 . S
O251 Zn227 2.066 . S
O251 C230 1.256 . S
O252 Zn224 2.053 . S
O252 C230 1.244 . S
C253 O231 1.259 . S
C253 O232 1.254 . S
O254 Zn224 2.066 . S
O254 C226 1.256 . S
O255 C226 1.244 . S
O255 Zn227 2.053 . S
Co256 N257 2.034 . S
Co256 O271 2.262 . S
Co256 O275 1.958 1_455 S
Co256 O279 1.950 1_565 S
Co256 O280 2.057 . S
N257 Co256 2.034 . S
N257 C258 1.366 . S
N257 C260 1.332 . S
C258 N257 1.366 . S
C258 C261 1.377 . S
C258 H290 0.931 . S
N259 C260 1.346 . S
N259 C261 1.337 . S
C260 N257 1.332 . S
C260 N259 1.346 . S
C260 C294 1.361 . S
C261 C258 1.377 . S
C261 N259 1.337 . S
C261 H297 0.930 . S
Co262 N263 2.034 . S
Co262 O276 1.950 1_655 S
Co262 O277 2.262 . S
Co262 O278 1.958 1_545 S
Co262 O282 2.057 . S
N263 Co262 2.034 . S
N263 C266 1.366 . S
N263 C267 1.332 . S
N264 C265 1.337 . S
N264 C267 1.346 . S
C265 N264 1.337 . S
C265 C266 1.377 . S
C265 H298 0.930 . S
C266 N263 1.366 . S
C266 C265 1.377 . S
C266 H270 0.931 . S
C267 N263 1.332 . S
C267 N264 1.346 . S
C267 C284 1.361 . S
Co268 O271 2.097 . S
Co268 O272 2.066 1_565 S
Co268 O273 2.066 1_565 S
Co268 O274 2.041 1_455 S
Co268 O277 2.097 1_465 S
Co268 O281 2.042 1_455 S
C269 O277 1.253 . S
C269 O282 1.263 . S
H270 C266 0.931 . S
O271 Co256 2.262 . S
O271 Co268 2.097 . S
O271 C295 1.253 . S
O272 Co268 2.066 1_545 S
O272 C288 1.221 . S
O273 Co268 2.066 1_545 S
O273 C283 1.221 . S
O274 Co268 2.041 1_655 S
O274 C289 1.237 . S
O275 Co256 1.958 1_655 S
O275 C289 1.278 . S
O276 Co262 1.950 1_455 S
O276 C288 1.277 . S
O277 Co262 2.262 . S
O277 Co268 2.097 1_645 S
O277 C269 1.253 . S
O278 Co262 1.958 1_565 S
O278 C296 1.278 . S
O279 Co256 1.950 1_545 S
O279 C283 1.277 . S
O280 Co256 2.057 . S
O280 C295 1.263 . S
O281 Co268 2.042 1_655 S
O281 C296 1.237 . S
O282 Co262 2.057 . S
O282 C269 1.263 . S
C283 O273 1.221 . S
C283 O279 1.277 . S
C284 C267 1.361 . S
C284 H285 0.960 . S
C284 H286 0.961 . S
C284 H287 0.961 . S
H285 C284 0.960 . S
H286 C284 0.961 . S
H287 C284 0.961 . S
C288 O272 1.221 . S
C288 O276 1.277 . S
C289 O274 1.237 . S
C289 O275 1.278 . S
H290 C258 0.931 . S
H291 C294 0.961 . S
H292 C294 0.961 . S
H293 C294 0.960 . S
C294 C260 1.361 . S
C294 H291 0.961 . S
C294 H292 0.961 . S
C294 H293 0.960 . S
C295 O271 1.253 . S
C295 O280 1.263 . S
C296 O278 1.278 . S
C296 O281 1.237 . S
H297 C261 0.930 . S
H298 C265 0.930 . S
Co299 N300 2.034 . S
Co299 O314 2.262 1_554 S
Co299 O318 1.958 . S
Co299 O322 1.950 1_565 S
Co299 O323 2.057 1_554 S
N300 Co299 2.034 . S
N300 C301 1.366 . S
N300 C303 1.332 . S
C301 N300 1.366 . S
C301 C304 1.377 . S
C301 H333 0.931 . S
N302 C303 1.346 . S
N302 C304 1.337 . S
C303 N300 1.332 . S
C303 N302 1.346 . S
C303 C337 1.361 . S
C304 C301 1.377 . S
C304 N302 1.337 . S
C304 H340 0.930 . S
Co305 N306 2.034 . S
Co305 O319 1.950 . S
Co305 O320 2.262 1_556 S
Co305 O321 1.958 1_545 S
Co305 O325 2.057 1_556 S
N306 Co305 2.034 . S
N306 C309 1.366 . S
N306 C310 1.332 . S
N307 C308 1.337 . S
N307 C310 1.346 . S
C308 N307 1.337 . S
C308 C309 1.377 . S
C308 H341 0.930 . S
C309 N306 1.366 . S
C309 C308 1.377 . S
C309 H313 0.931 . S
C310 N306 1.332 . S
C310 N307 1.346 . S
C310 C327 1.361 . S
Co311 O314 2.110 1_554 S
Co311 O315 2.055 1_564 S
Co311 O316 2.060 1_565 S
Co311 O317 2.052 . S
Co311 O320 2.084 1_565 S
Co311 O324 2.047 1_554 S
C312 O320 1.253 . S
C312 O325 1.263 . S
H313 C309 0.931 . S
O314 Co299 2.262 1_556 S
O314 Co311 2.110 1_556 S
O314 C338 1.253 . S
O315 Co311 2.055 1_546 S
O315 C331 1.221 . S
O316 Co311 2.060 1_545 S
O316 C326 1.221 . S
O317 Co311 2.052 . S
O317 C332 1.237 . S
O318 Co299 1.958 . S
O318 C332 1.278 . S
O319 Co305 1.950 . S
O319 C331 1.277 . S
O320 Co305 2.262 1_554 S
O320 Co311 2.084 1_545 S
O320 C312 1.253 . S
O321 Co305 1.958 1_565 S
O321 C339 1.278 . S
O322 Co299 1.950 1_545 S
O322 C326 1.277 . S
O323 Co299 2.057 1_556 S
O323 C338 1.263 . S
O324 Co311 2.047 1_556 S
O324 C339 1.237 . S
O325 Co305 2.057 1_554 S
O325 C312 1.263 . S
C326 O316 1.221 . S
C326 O322 1.277 . S
C327 C310 1.361 . S
C327 H328 0.960 . S
C327 H329 0.961 . S
C327 H330 0.961 . S
H328 C327 0.960 . S
H329 C327 0.961 . S
H330 C327 0.961 . S
C331 O315 1.221 . S
C331 O319 1.277 . S
C332 O317 1.237 . S
C332 O318 1.278 . S
H333 C301 0.931 . S
H334 C337 0.961 . S
H335 C337 0.961 . S
H336 C337 0.960 . S
C337 C303 1.361 . S
C337 H334 0.961 . S
C337 H335 0.961 . S
C337 H336 0.960 . S
C338 O314 1.253 . S
C338 O323 1.263 . S
C339 O321 1.278 . S
C339 O324 1.237 . S
H340 C304 0.930 . S
H341 C308 0.930 . S
Co342 N343 2.034 . S
Co342 O357 2.262 1_554 S
Co342 O361 1.958 1_455 S
Co342 O365 1.950 . S
Co342 O366 2.057 1_554 S
N343 Co342 2.034 . S
N343 C344 1.366 . S
N343 C346 1.332 . S
C344 N343 1.366 . S
C344 C347 1.377 . S
C344 H376 0.931 . S
N345 C346 1.346 . S
N345 C347 1.337 . S
C346 N343 1.332 . S
C346 N345 1.346 . S
C346 C380 1.361 . S
C347 C344 1.377 . S
C347 N345 1.337 . S
C347 H383 0.930 . S
Co348 N349 2.034 . S
Co348 O362 1.950 1_655 S
Co348 O363 2.262 1_556 S
Co348 O364 1.958 . S
Co348 O368 2.057 1_556 S
N349 Co348 2.034 . S
N349 C352 1.366 . S
N349 C353 1.332 . S
N350 C351 1.337 . S
N350 C353 1.346 . S
C351 N350 1.337 . S
C351 C352 1.377 . S
C351 H384 0.930 . S
C352 N349 1.366 . S
C352 C351 1.377 . S
C352 H356 0.931 . S
C353 N349 1.332 . S
C353 N350 1.346 . S
C353 C370 1.361 . S
Co354 O357 2.103 1_554 S
Co354 O358 2.068 1_554 S
Co354 O359 2.071 . S
Co354 O360 2.039 1_455 S
Co354 O363 2.091 1_455 S
Co354 O367 2.036 1_454 S
C355 O363 1.253 . S
C355 O368 1.263 . S
H356 C352 0.931 . S
O357 Co342 2.262 1_556 S
O357 Co354 2.103 1_556 S
O357 C381 1.253 . S
O358 Co354 2.068 1_556 S
O358 C374 1.221 . S
O359 Co354 2.071 . S
O359 C369 1.221 . S
O360 Co354 2.039 1_655 S
O360 C375 1.237 . S
O361 Co342 1.958 1_655 S
O361 C375 1.278 . S
O362 Co348 1.950 1_455 S
O362 C374 1.277 . S
O363 Co348 2.262 1_554 S
O363 Co354 2.091 1_655 S
O363 C355 1.253 . S
O364 Co348 1.958 . S
O364 C382 1.278 . S
O365 Co342 1.950 . S
O365 C369 1.277 . S
O366 Co342 2.057 1_556 S
O366 C381 1.263 . S
O367 Co354 2.036 1_656 S
O367 C382 1.237 . S
O368 Co348 2.057 1_554 S
O368 C355 1.263 . S
C369 O359 1.221 . S
C369 O365 1.277 . S
C370 C353 1.361 . S
C370 H371 0.960 . S
C370 H372 0.961 . S
C370 H373 0.961 . S
H371 C370 0.960 . S
H372 C370 0.961 . S
H373 C370 0.961 . S
C374 O358 1.221 . S
C374 O362 1.277 . S
C375 O360 1.237 . S
C375 O361 1.278 . S
H376 C344 0.931 . S
H377 C380 0.961 . S
H378 C380 0.961 . S
H379 C380 0.960 . S
C380 C346 1.361 . S
C380 H377 0.961 . S
C380 H378 0.961 . S
C380 H379 0.960 . S
C381 O357 1.253 . S
C381 O366 1.263 . S
C382 O364 1.278 . S
C382 O367 1.237 . S
H383 C347 0.930 . S
H384 C351 0.930 . S
Co385 N386 2.034 . S
Co385 O400 2.262 1_554 S
Co385 O404 1.958 . S
Co385 O408 1.950 . S
Co385 O409 2.057 1_554 S
N386 Co385 2.034 . S
N386 C387 1.366 . S
N386 C389 1.332 . S
C387 N386 1.366 . S
C387 C390 1.377 . S
C387 H419 0.931 . S
N388 C389 1.346 . S
N388 C390 1.337 . S
C389 N386 1.332 . S
C389 N388 1.346 . S
C389 C423 1.361 . S
C390 C387 1.377 . S
C390 N388 1.337 . S
C390 H426 0.930 . S
Co391 N392 2.034 . S
Co391 O405 1.950 . S
Co391 O406 2.262 1_556 S
Co391 O407 1.958 . S
Co391 O411 2.057 1_556 S
N392 Co391 2.034 . S
N392 C395 1.366 . S
N392 C396 1.332 . S
N393 C394 1.337 . S
N393 C396 1.346 . S
C394 N393 1.337 . S
C394 C395 1.377 . S
C394 H427 0.930 . S
C395 N392 1.366 . S
C395 C394 1.377 . S
C395 H399 0.931 . S
C396 N392 1.332 . S
C396 N393 1.346 . S
C396 C413 1.361 . S
Co397 O400 2.097 1_554 S
Co397 O401 2.065 1_554 S
Co397 O402 2.065 . S
Co397 O403 2.042 . S
Co397 O406 2.097 . S
Co397 O410 2.042 1_554 S
C398 O406 1.253 . S
C398 O411 1.263 . S
H399 C395 0.931 . S
O400 Co385 2.262 1_556 S
O400 Co397 2.097 1_556 S
O400 C424 1.253 . S
O401 Co397 2.065 1_556 S
O401 C417 1.221 . S
O402 Co397 2.065 . S
O402 C412 1.221 . S
O403 Co397 2.042 . S
O403 C418 1.237 . S
O404 Co385 1.958 . S
O404 C418 1.278 . S
O405 Co391 1.950 . S
O405 C417 1.277 . S
O406 Co391 2.262 1_554 S
O406 Co397 2.097 . S
O406 C398 1.253 . S
O407 Co391 1.958 . S
O407 C425 1.278 . S
O408 Co385 1.950 . S
O408 C412 1.277 . S
O409 Co385 2.057 1_556 S
O409 C424 1.263 . S
O410 Co397 2.042 1_556 S
O410 C425 1.237 . S
O411 Co391 2.057 1_554 S
O411 C398 1.263 . S
C412 O402 1.221 . S
C412 O408 1.277 . S
C413 C396 1.361 . S
C413 H414 0.960 . S
C413 H415 0.961 . S
C413 H416 0.961 . S
H414 C413 0.960 . S
H415 C413 0.961 . S
H416 C413 0.961 . S
C417 O401 1.221 . S
C417 O405 1.277 . S
C418 O403 1.237 . S
C418 O404 1.278 . S
H419 C387 0.931 . S
H420 C423 0.961 . S
H421 C423 0.961 . S
H422 C423 0.960 . S
C423 C389 1.361 . S
C423 H420 0.961 . S
C423 H421 0.961 . S
C423 H422 0.960 . S
C424 O400 1.253 . S
C424 O409 1.263 . S
C425 O407 1.278 . S
C425 O410 1.237 . S
H426 C390 0.930 . S
H427 C394 0.930 . S
Co428 N429 2.034 . S
Co428 O443 2.262 . S
Co428 O447 1.958 1_455 S
Co428 O451 1.950 . S
Co428 O452 2.057 . S
N429 Co428 2.034 . S
N429 C430 1.366 . S
N429 C432 1.332 . S
C430 N429 1.366 . S
C430 C433 1.377 . S
C430 H462 0.931 . S
N431 C432 1.346 . S
N431 C433 1.337 . S
C432 N429 1.332 . S
C432 N431 1.346 . S
C432 C466 1.361 . S
C433 C430 1.377 . S
C433 N431 1.337 . S
C433 H469 0.930 . S
Co434 N435 2.034 . S
Co434 O448 1.950 1_655 S
Co434 O449 2.262 . S
Co434 O450 1.958 . S
Co434 O454 2.057 . S
N435 Co434 2.034 . S
N435 C438 1.366 . S
N435 C439 1.332 . S
N436 C437 1.337 . S
N436 C439 1.346 . S
C437 N436 1.337 . S
C437 C438 1.377 . S
C437 H470 0.930 . S
C438 N435 1.366 . S
C438 C437 1.377 . S
C438 H442 0.931 . S
C439 N435 1.332 . S
C439 N436 1.346 . S
C439 C456 1.361 . S
Co440 O443 2.097 1_655 S
Co440 O444 2.065 1_655 S
Co440 O445 2.065 1_655 S
Co440 O446 2.042 . S
Co440 O449 2.097 . S
Co440 O453 2.042 . S
C441 O449 1.253 . S
C441 O454 1.263 . S
H442 C438 0.931 . S
O443 Co428 2.262 . S
O443 Co440 2.097 1_455 S
O443 C467 1.253 . S
O444 Co440 2.065 1_455 S
O444 C460 1.221 . S
O445 Co440 2.065 1_455 S
O445 C455 1.221 . S
O446 Co440 2.042 . S
O446 C461 1.237 . S
O447 Co428 1.958 1_655 S
O447 C461 1.278 . S
O448 Co434 1.950 1_455 S
O448 C460 1.277 . S
O449 Co434 2.262 . S
O449 Co440 2.097 . S
O449 C441 1.253 . S
O450 Co434 1.958 . S
O450 C468 1.278 . S
O451 Co428 1.950 . S
O451 C455 1.277 . S
O452 Co428 2.057 . S
O452 C467 1.263 . S
O453 Co440 2.042 . S
O453 C468 1.237 . S
O454 Co434 2.057 . S
O454 C441 1.263 . S
C455 O445 1.221 . S
C455 O451 1.277 . S
C456 C439 1.361 . S
C456 H457 0.960 . S
C456 H458 0.961 . S
C456 H459 0.961 . S
H457 C456 0.960 . S
H458 C456 0.961 . S
H459 C456 0.961 . S
C460 O444 1.221 . S
C460 O448 1.277 . S
C461 O446 1.237 . S
C461 O447 1.278 . S
H462 C430 0.931 . S
H463 C466 0.961 . S
H464 C466 0.961 . S
H465 C466 0.960 . S
C466 C432 1.361 . S
C466 H463 0.961 . S
C466 H464 0.961 . S
C466 H465 0.960 . S
C467 O443 1.253 . S
C467 O452 1.263 . S
C468 O450 1.278 . S
C468 O453 1.237 . S
H469 C433 0.930 . S
H470 C437 0.930 . S
Co471 N472 2.034 . S
Co471 O486 2.262 . S
Co471 O490 1.958 . S
Co471 O494 1.950 1_565 S
Co471 O495 2.057 . S
N472 Co471 2.034 . S
N472 C473 1.366 . S
N472 C475 1.332 . S
C473 N472 1.366 . S
C473 C476 1.377 . S
C473 H505 0.931 . S
N474 C475 1.346 . S
N474 C476 1.337 . S
C475 N472 1.332 . S
C475 N474 1.346 . S
C475 C509 1.361 . S
C476 C473 1.377 . S
C476 N474 1.337 . S
C476 H512 0.930 . S
Co477 N478 2.034 . S
Co477 O491 1.950 . S
Co477 O492 2.262 . S
Co477 O493 1.958 1_545 S
Co477 O497 2.057 . S
N478 Co477 2.034 . S
N478 C481 1.366 . S
N478 C482 1.332 . S
N479 C480 1.337 . S
N479 C482 1.346 . S
C480 N479 1.337 . S
C480 C481 1.377 . S
C480 H513 0.930 . S
C481 N478 1.366 . S
C481 C480 1.377 . S
C481 H485 0.931 . S
C482 N478 1.332 . S
C482 N479 1.346 . S
C482 C499 1.361 . S
Co483 O486 2.097 . S
Co483 O487 2.065 1_565 S
Co483 O488 2.065 1_565 S
Co483 O489 2.042 . S
Co483 O492 2.097 1_565 S
Co483 O496 2.042 . S
C484 O492 1.253 . S
C484 O497 1.263 . S
H485 C481 0.931 . S
O486 Co471 2.262 . S
O486 Co483 2.097 . S
O486 C510 1.253 . S
O487 Co483 2.065 1_545 S
O487 C503 1.221 . S
O488 Co483 2.065 1_545 S
O488 C498 1.221 . S
O489 Co483 2.042 . S
O489 C504 1.237 . S
O490 Co471 1.958 . S
O490 C504 1.278 . S
O491 Co477 1.950 . S
O491 C503 1.277 . S
O492 Co477 2.262 . S
O492 Co483 2.097 1_545 S
O492 C484 1.253 . S
O493 Co477 1.958 1_565 S
O493 C511 1.278 . S
O494 Co471 1.950 1_545 S
O494 C498 1.277 . S
O495 Co471 2.057 . S
O495 C510 1.263 . S
O496 Co483 2.042 . S
O496 C511 1.237 . S
O497 Co477 2.057 . S
O497 C484 1.263 . S
C498 O488 1.221 . S
C498 O494 1.277 . S
C499 C482 1.361 . S
C499 H500 0.960 . S
C499 H501 0.961 . S
C499 H502 0.961 . S
H500 C499 0.960 . S
H501 C499 0.961 . S
H502 C499 0.961 . S
C503 O487 1.221 . S
C503 O491 1.277 . S
C504 O489 1.237 . S
C504 O490 1.278 . S
H505 C473 0.931 . S
H506 C509 0.961 . S
H507 C509 0.961 . S
H508 C509 0.960 . S
C509 C475 1.361 . S
C509 H506 0.961 . S
C509 H507 0.961 . S
C509 H508 0.960 . S
C510 O486 1.253 . S
C510 O495 1.263 . S
C511 O493 1.278 . S
C511 O496 1.237 . S
H512 C476 0.930 . S
H513 C480 0.930 . S
C288 N18 1.468 . S
N264 C61 1.833 . S
C296 N82 0.795 . S
C100 C295 1.957 . S
C130 N259 1.718 . S
C283 N173 1.486 . S
C198 C269 1.981 . S
N242 C289 0.818 . S
C312 C6 1.894 . S
N50 C375 1.232 . S
N302 C68 1.423 . S
C369 N109 1.173 . S
C134 C339 3.252 . S
C381 C162 1.901 . S
C194 C331 3.490 . S
C228 N350 1.416 . S
C2 N345 1.807 . S
N141 C374 2.096 . S
N307 C166 1.785 . S
C382 N210 1.819 . S
C253 C338 1.750 . S
C93 C355 1.721 . S
C332 C125 2.979 . S
C36 C326 3.294 . S
N237 C417 1.468 . S
C157 N393 1.834 . S
C425 N178 0.795 . S
C424 C196 1.957 . S
C34 N388 1.718 . S
C412 N77 1.486 . S
C102 C398 1.981 . S
N13 C418 0.818 . S
C226 C441 1.894 . S
C504 N146 1.233 . S
C164 N431 1.424 . S
N205 C498 1.173 . S
C468 C38 3.252 . S
C66 C510 1.901 . S
C460 C98 3.490 . S
N479 C29 1.416 . S
N474 C230 1.807 . S
N45 C503 2.096 . S
C70 N436 1.785 . S
C511 N114 1.819 . S
C4 C467 1.750 . S
C189 C484 1.722 . S
C461 C221 2.979 . S
C455 C132 3.294 . S
