# Generated by pormake.
# Topology pth, (4,4)-cn, num edge types: 1
# Building blocks:
#     Node 0, Type 0, BuildingBlock: GALJAG_clean_sbu_0, # of connection points: 4
#     Node 1, Type 0, BuildingBlock: GALJAG_clean_sbu_0, # of connection points: 4
#     Node 2, Type 0, BuildingBlock: GALJAG_clean_sbu_0, # of connection points: 4
#     Node 3, Type 1, BuildingBlock: NAWXER_clean_sbu_0, # of connection points: 4
#     Node 4, Type 1, BuildingBlock: NAWXER_clean_sbu_0, # of connection points: 4
#     Node 5, Type 1, BuildingBlock: NAWXER_clean_sbu_0, # of connection points: 4
#     Edge 6, Type (0, 1), BuildingBlock: EZIPEK_clean_linker_0, # of connection points: 2
#     Edge 7, Type (0, 1), BuildingBlock: EZIPEK_clean_linker_0, # of connection points: 2
#     Edge 8, Type (0, 1), BuildingBlock: EZIPEK_clean_linker_0, # of connection points: 2
#     Edge 9, Type (0, 1), BuildingBlock: EZIPEK_clean_linker_0, # of connection points: 2
#     Edge 10, Type (0, 1), BuildingBlock: EZIPEK_clean_linker_0, # of connection points: 2
#     Edge 11, Type (0, 1), BuildingBlock: EZIPEK_clean_linker_0, # of connection points: 2
#     Edge 12, Type (0, 1), BuildingBlock: EZIPEK_clean_linker_0, # of connection points: 2
#     Edge 13, Type (0, 1), BuildingBlock: EZIPEK_clean_linker_0, # of connection points: 2
#     Edge 14, Type (0, 1), BuildingBlock: EZIPEK_clean_linker_0, # of connection points: 2
#     Edge 15, Type (0, 1), BuildingBlock: EZIPEK_clean_linker_0, # of connection points: 2
#     Edge 16, Type (0, 1), BuildingBlock: EZIPEK_clean_linker_0, # of connection points: 2
#     Edge 17, Type (0, 1), BuildingBlock: EZIPEK_clean_linker_0, # of connection points: 2
# Relax obj value: 0.017
# Max RMSD: 0.060
# Mean RMSD: 0.053
data_MOF--net-pth--node1-GALJAG_clean_sbu_0--node2-NAWXER_clean_sbu_0--edge1-EZIPEK_clean_linker_0
_symmetry_space_group_name_H-M    P1
_symmetry_Int_Tables_number       1
_symmetry_cell_setting            triclinic
loop_
_symmetry_equiv_pos_as_xyz
'x, y, z'
_cell_length_a     16.927585
_cell_length_b     16.909226
_cell_length_c     40.699826
_cell_angle_alpha  90.056551
_cell_angle_beta   90.190272
_cell_angle_gamma 120.16153
loop_
_atom_site_label
_atom_site_type_symbol
_atom_site_fract_x
_atom_site_fract_y
_atom_site_fract_z
_atom_type_partial_charge
In0 In 0.02175 0.0172 0.07533 0.0
O1 O 0.95158 0.10036 0.08567 0.0
O2 O 0.03895 0.09714 0.12257 0.0
C3 C 0.88047 0.90661 0.03587 0.0
C4 C 0.16337 0.12089 0.03554 0.0
C5 C 0.05954 0.91208 0.11467 0.0
O6 O 0.87201 0.90997 0.06653 0.0
O7 O 0.9597 0.95858 0.02504 0.0
O8 O 0.11969 0.99194 0.10663 0.0
O9 O 0.98133 0.88517 0.10266 0.0
C10 C 0.98666 0.12602 0.11378 0.0
O11 O 0.14199 0.04022 0.04312 0.0
O12 O 0.11405 0.14916 0.04816 0.0
In13 In 0.01929 0.01734 0.40661 0.0
O14 O 0.12332 0.15599 0.38451 0.0
O15 O 0.98543 0.09321 0.36786 0.0
C16 C 0.12485 0.98519 0.44797 0.0
C17 C 0.91426 0.0463 0.44906 0.0
C18 C 0.97202 0.87631 0.36478 0.0
O19 O 0.15553 0.05728 0.43106 0.0
O20 O 0.04064 0.92977 0.44435 0.0
O21 O 0.91389 0.88254 0.38229 0.0
O22 O 0.05265 0.94276 0.36723 0.0
C23 C 0.06523 0.16132 0.36653 0.0
O24 O 0.88335 0.97545 0.43132 0.0
O25 O 0.99852 0.10158 0.44593 0.0
In26 In 0.01843 1.00823 0.74297 0.0
O27 O 0.98055 0.86599 0.76213 0.0
O28 O 0.91969 0.93537 0.78516 0.0
C29 C 0.15575 0.0421 0.70135 0.0
C30 C 0.88107 0.97948 0.70169 0.0
C31 C 0.11428 0.14987 0.78442 0.0
O32 O 0.11663 0.97098 0.71883 0.0
O33 O 0.12473 0.09556 0.70446 0.0
O34 O 0.04795 0.14237 0.76761 0.0
O35 O 0.12955 0.08442 0.78148 0.0
C36 C 0.92529 0.86385 0.78336 0.0
O37 O 0.92395 0.05112 0.71887 0.0
O38 O 0.90804 0.92283 0.70504 0.0
C39 C 0.94555 0.58561 0.28382 0.0
C40 C 0.96521 0.38352 0.2015 0.0
O41 O 0.0274 0.6083 0.27587 0.0
Zn42 Zn 0.09608 0.55998 0.24479 0.0
O43 O 0.87827 0.5134 0.27189 0.0
Zn44 Zn 0.94921 0.47957 0.24354 0.0
O45 O 1.01393 0.43269 0.27719 0.0
O46 O 0.16345 0.52671 0.27526 0.0
O47 O 0.8921 0.37815 0.21229 0.0
O48 O 0.04254 0.44619 0.21237 0.0
O49 O 0.15706 0.66165 0.21403 0.0
O50 O 1.00671 0.59337 0.21127 0.0
C51 C 0.09481 0.45511 0.28663 0.0
C52 C 0.08522 0.65669 0.20189 0.0
C53 C 0.59285 0.95107 0.61685 0.0
C54 C 0.38194 0.95191 0.5325 0.0
O55 O 0.52307 0.87941 0.60562 0.0
Zn56 Zn 0.48198 0.94055 0.57463 0.0
O57 O 0.61029 0.02982 0.60693 0.0
Zn58 Zn 0.55699 0.08976 0.57492 0.0
O59 O 0.51573 0.15052 0.60597 0.0
O60 O 0.42882 1.00002 0.60679 0.0
O61 O 0.44373 0.03049 0.54266 0.0
O62 O 0.37951 0.88001 0.54345 0.0
O63 O 0.59532 1.00026 0.54277 0.0
O64 O 0.65962 0.15076 0.54418 0.0
C65 C 0.44612 0.07865 0.61691 0.0
C66 C 0.6572 0.07901 0.53301 0.0
C67 C 0.44594 0.37282 0.94793 0.0
C68 C 0.66286 0.57278 0.86419 0.0
O69 O 0.43224 0.43656 0.93792 0.0
Zn70 Zn 0.4908 0.54958 0.90523 0.0
O71 O 0.51245 0.36646 0.93641 0.0
Zn72 Zn 0.55547 0.46762 0.90533 0.0
O73 O 0.61489 0.5814 0.93776 0.0
O74 O 0.53515 0.65188 0.93614 0.0
O75 O 0.65798 0.5006 0.87582 0.0
O76 O 0.60492 0.59623 0.87297 0.0
O77 O 0.38724 0.51564 0.87584 0.0
O78 O 0.43962 0.41937 0.87348 0.0
C79 C 0.60186 0.64564 0.94771 0.0
C80 C 0.38143 0.44256 0.86464 0.0
C81 C 0.91921 0.1577 0.16317 0.0
C82 C 0.97262 0.18992 0.13432 0.0
C83 C 0.0156 0.34764 0.14799 0.0
C84 C 0.96319 0.31613 0.17744 0.0
N85 N 0.87958 0.19365 0.2161 0.0
N86 N 0.0579 0.31086 0.09566 0.0
C87 C 0.91759 0.22152 0.18564 0.0
C88 C 0.01641 0.28345 0.12563 0.0
N89 N 0.86771 0.06552 0.16847 0.0
N90 N 0.06926 0.43933 0.14218 0.0
H91 H 0.06463 0.26716 0.07932 0.0
H92 H 0.07987 0.37521 0.08568 0.0
H93 H 0.07119 0.48976 0.15724 0.0
H94 H 0.1182 0.46682 0.12376 0.0
H95 H 0.81903 0.03624 0.18691 0.0
H96 H 0.86799 0.01718 0.15258 0.0
H97 H 0.85501 0.12788 0.22513 0.0
H98 H 0.87939 0.23796 0.23386 0.0
C99 C 0.8776 0.09535 0.50306 0.0
C100 C 0.85426 0.06585 0.46991 0.0
C101 C 0.70225 0.04445 0.47832 0.0
C102 C 0.72777 0.08313 0.51031 0.0
N103 N 0.84523 0.15682 0.55179 0.0
N104 N 0.75539 0.0428 0.42357 0.0
C105 C 0.81778 0.1136 0.52206 0.0
C106 C 0.77015 0.0502 0.45675 0.0
N107 N 0.95305 0.09967 0.5172 0.0
N108 N 0.61276 0.99747 0.46883 0.0
H109 H 0.8054 0.05159 0.40668 0.0
H110 H 0.69763 0.03912 0.41282 0.0
H111 H 0.55956 0.98395 0.48466 0.0
H112 H 0.59106 0.96176 0.44666 0.0
H113 H 0.96777 0.11094 0.54221 0.0
H114 H 0.99654 0.08321 0.50473 0.0
H115 H 0.91278 0.18891 0.55993 0.0
H116 H 0.80208 0.16658 0.56735 0.0
C117 C 0.79395 0.70267 0.78876 0.0
C118 C 0.86721 0.78198 0.8036 0.0
C119 C 0.81425 0.71609 0.85829 0.0
C120 C 0.74067 0.63712 0.84348 0.0
N121 N 0.66949 0.54601 0.79537 0.0
N122 N 0.95918 0.85693 0.85128 0.0
C123 C 0.73388 0.62732 0.80887 0.0
C124 C 0.88102 0.78638 0.83806 0.0
N125 N 0.77865 0.70159 0.7557 0.0
N126 N 0.81849 0.72501 0.89174 0.0
H127 H 1.00959 0.90892 0.83701 0.0
H128 H 0.97802 0.86026 0.87583 0.0
H129 H 0.77486 0.67228 0.90736 0.0
H130 H 0.86241 0.78555 0.90405 0.0
H131 H 0.72061 0.65079 0.74387 0.0
H132 H 0.82134 0.75486 0.7401 0.0
H133 H 0.6658 0.53075 0.77044 0.0
H134 H 0.62395 0.49048 0.80963 0.0
C135 C 0.1138 0.87974 0.1681 0.0
C136 C 0.07867 0.85234 0.13576 0.0
C137 C 0.0473 0.6973 0.14681 0.0
C138 C 0.08944 0.72572 0.17828 0.0
N139 N 0.17152 0.84734 0.21781 0.0
N140 N 0.03592 0.74328 0.09157 0.0
C141 C 0.12673 0.81841 0.18837 0.0
C142 C 0.05305 0.7637 0.12427 0.0
N143 N 0.12855 0.96147 0.18031 0.0
N144 N 0.998 0.60667 0.13867 0.0
H145 H 0.04172 0.79105 0.0741 0.0
H146 H 0.02594 0.68241 0.08132 0.0
H147 H 0.98852 0.55448 0.15445 0.0
H148 H 0.95807 0.58264 0.11747 0.0
H149 H 0.14321 0.98039 0.20491 0.0
H150 H 0.11861 1.00774 0.16657 0.0
H151 H 0.20955 0.91599 0.22455 0.0
H152 H 0.17548 0.80363 0.23489 0.0
C153 C 0.16093 0.93391 0.50167 0.0
C154 C 0.18492 0.96529 0.46882 0.0
C155 C 0.33765 0.98869 0.47793 0.0
C156 C 0.31157 0.9481 0.50954 0.0
N157 N 0.19302 0.87087 0.55004 0.0
N158 N 0.28589 0.99301 0.42304 0.0
C159 C 0.22094 0.91575 0.52074 0.0
C160 C 0.26997 0.98316 0.4561 0.0
N161 N 0.08466 0.92787 0.51557 0.0
N162 N 0.42737 0.03716 0.46908 0.0
H163 H 0.23627 0.98476 0.40592 0.0
H164 H 0.3444 0.99826 0.41249 0.0
H165 H 0.48037 0.05028 0.48511 0.0
H166 H 0.44936 0.07432 0.4473 0.0
H167 H 0.0694 0.91524 0.54045 0.0
H168 H 0.04099 0.94433 0.50313 0.0
H169 H 0.12516 0.83736 0.55765 0.0
H170 H 0.2362 0.86127 0.56576 0.0
C171 C 0.17184 0.22042 0.83993 0.0
C172 C 0.17263 0.23074 0.80532 0.0
C173 C 0.30285 0.3877 0.80998 0.0
C174 C 0.30221 0.3769 0.8445 0.0
N175 N 0.22602 0.29293 0.89323 0.0
N176 N 0.22748 0.32763 0.75747 0.0
C177 C 0.2333 0.29616 0.85973 0.0
C178 C 0.23407 0.31591 0.7904 0.0
N179 N 0.11336 0.13755 0.85376 0.0
N180 N 0.37208 0.46465 0.79586 0.0
H181 H 0.18144 0.2755 0.742 0.0
H182 H 0.26344 0.39045 0.74567 0.0
H183 H 0.42144 0.51945 0.80963 0.0
H184 H 0.38374 0.47275 0.77068 0.0
H185 H 0.11695 0.12149 0.87819 0.0
H186 H 0.06311 0.08258 0.84032 0.0
H187 H 0.17324 0.23939 0.90608 0.0
H188 H 0.26885 0.34812 0.90827 0.0
C189 C 0.79412 0.93022 0.64775 0.0
C190 C 0.80185 0.96159 0.68069 0.0
C191 C 0.67441 0.98773 0.67145 0.0
C192 C 0.65915 0.94676 0.63979 0.0
N193 N 0.69884 0.86825 0.59918 0.0
N194 N 0.72977 0.99121 0.72641 0.0
C195 C 0.71635 0.91318 0.62859 0.0
C196 C 0.73573 0.98104 0.69335 0.0
N197 N 0.86378 0.92314 0.63388 0.0
N198 N 0.63473 0.03758 0.68031 0.0
H199 H 0.77045 0.98215 0.74357 0.0
H200 H 0.67711 0.99759 0.7369 0.0
H201 H 0.59564 0.05164 0.66428 0.0
H202 H 0.6506 0.07493 0.70214 0.0
H203 H 0.86628 0.91043 0.60898 0.0
H204 H 0.9238 0.93899 0.64638 0.0
H205 H 0.73221 0.83381 0.59158 0.0
H206 H 0.64661 0.85965 0.58334 0.0
C207 C 0.76991 0.74581 0.01926 0.0
C208 C 0.80534 0.84061 0.01454 0.0
C209 C 0.71118 0.8088 0.965 0.0
C210 C 0.66823 0.71344 0.97162 0.0
N211 N 0.64911 0.59194 0.00824 0.0
N212 N 0.79964 0.96311 0.98655 0.0
C213 C 0.69526 0.68225 0.99972 0.0
C214 C 0.77279 0.87234 0.98852 0.0
N215 N 0.81096 0.71611 0.04112 0.0
N216 N 0.69871 0.8389 0.93533 0.0
H217 H 0.84494 0.01161 1.0033 0.0
H218 H 0.77067 0.98878 0.97017 0.0
H219 H 0.65843 0.79517 0.91654 0.0
H220 H 0.73611 0.90696 0.92796 0.0
H221 H 0.79551 0.64833 0.04263 0.0
H222 H 0.86671 0.76011 0.05571 0.0
H223 H 0.65747 0.56798 0.03081 0.0
H224 H 0.59767 0.5412 0.994 0.0
C225 C 0.95982 0.80756 0.30904 0.0
C226 C 0.94899 0.79593 0.34358 0.0
C227 C 0.91969 0.63837 0.33835 0.0
C228 C 0.93176 0.65074 0.30395 0.0
N229 N 0.94326 0.73718 0.25546 0.0
N230 N 0.90454 0.69713 0.391 0.0
C231 C 0.9455 0.73245 0.28898 0.0
C232 C 0.92351 0.7099 0.35816 0.0
N233 N 0.98546 0.89108 0.29552 0.0
N234 N 0.90935 0.56003 0.35217 0.0
H235 H 0.91184 0.74903 0.40675 0.0
H236 H 0.87628 0.6338 0.40251 0.0
H237 H 0.90264 0.50523 0.33816 0.0
H238 H 0.91163 0.55045 0.37732 0.0
H239 H 1.00609 0.90801 0.27124 0.0
H240 H 0.99014 0.9457 0.30907 0.0
H241 H 0.94545 0.79152 0.24269 0.0
H242 H 0.93105 0.68251 0.24022 0.0
C243 C 0.30468 0.04796 0.6934 0.0
C244 C 0.23585 0.06332 0.6805 0.0
C245 C 0.32021 0.11276 0.62847 0.0
C246 C 0.37999 0.08243 0.63987 0.0
N247 N 0.40978 0.99634 0.68074 0.0
N248 N 0.17031 0.09709 0.63345 0.0
C249 C 0.367 0.04312 0.67165 0.0
C250 C 0.24187 0.09342 0.6475 0.0
N251 N 0.31213 0.03982 0.72651 0.0
N252 N 0.33596 0.15679 0.59901 0.0
H253 H 0.10997 0.07951 0.64584 0.0
H254 H 0.1669 0.10879 0.6085 0.0
H255 H 0.38918 0.16749 0.58344 0.0
H256 H 0.30025 0.18871 0.59118 0.0
H257 H 0.36645 0.03628 0.73711 0.0
H258 H 0.27079 0.04788 0.74355 0.0
H259 H 0.39581 0.96011 0.70271 0.0
H260 H 0.44968 0.98355 0.66476 0.0
C261 C 0.24869 0.15173 0.98197 0.0
C262 C 0.24196 0.17994 0.01422 0.0
C263 C 0.36665 0.33433 1.00275 0.0
C264 C 0.37989 0.30486 0.97151 0.0
N265 N 0.33849 0.18208 0.93244 0.0
N266 N 0.31077 0.28989 0.05811 0.0
C267 C 0.32334 0.21206 0.96167 0.0
C268 C 0.30612 0.26867 0.02547 0.0
N269 N 0.18052 0.07029 0.96982 0.0
N270 N 0.40824 0.42519 0.01048 0.0
H271 H 0.26922 0.24263 0.07576 0.0
H272 H 0.36252 0.35091 0.06812 0.0
H273 H 0.45018 0.47691 0.99442 0.0
H274 H 0.39288 0.44975 0.03157 0.0
H275 H 0.17582 0.05099 0.94526 0.0
H276 H 0.12378 0.0249 0.9835 0.0
H277 H 0.30692 0.11323 0.92593 0.0
H278 H 0.38645 0.22512 0.91533 0.0
C279 C 0.13602 0.26674 0.31843 0.0
C280 C 0.08589 0.24522 0.34813 0.0
C281 C 0.06686 0.37905 0.34123 0.0
C282 C 0.10563 0.39287 0.30948 0.0
N283 N 0.17104 0.34645 0.26624 0.0
N284 N 1.00092 0.27814 0.38797 0.0
C285 C 0.14005 0.33678 0.2978 0.0
C286 C 0.05096 0.30097 0.35967 0.0
N287 N 0.17882 0.21952 0.30978 0.0
N288 N 0.04689 0.44194 0.35386 0.0
H289 H 0.99236 0.22496 0.40324 0.0
H290 H 0.96379 0.30865 0.39556 0.0
H291 H 0.05916 0.50038 0.34099 0.0
H292 H 0.0261 0.44105 0.37796 0.0
H293 H 0.22436 0.23803 0.29029 0.0
H294 H 0.17416 0.16547 0.32364 0.0
H295 H 0.18618 0.30055 0.25484 0.0
H296 H 0.17617 0.3974 0.25049 0.0
loop_
_geom_bond_atom_site_label_1
_geom_bond_atom_site_label_2
_geom_bond_distance
_geom_bond_site_symmetry_2
_ccdc_geom_bond_type
In0 O1 2.294 1_455 S
In0 O2 2.326 . S
In0 O6 2.266 1_445 S
In0 O7 2.326 1_445 S
In0 O8 2.266 1_545 S
In0 O9 2.326 1_445 S
In0 O11 2.294 . S
In0 O12 2.326 . S
O1 In0 2.294 1_655 S
O1 C10 1.240 1_655 S
O2 In0 2.326 . S
O2 C10 1.252 . S
C3 O6 1.252 . S
C3 O7 1.260 . S
C4 O11 1.240 . S
C4 O12 1.252 . S
C5 O8 1.251 1_655 S
C5 O9 1.262 . S
O6 In0 2.266 1_665 S
O6 C3 1.252 . S
O7 In0 2.326 1_665 S
O7 C3 1.260 . S
O8 In0 2.266 1_565 S
O8 C5 1.251 1_455 S
O9 In0 2.326 1_665 S
O9 C5 1.262 . S
C10 O1 1.240 1_455 S
C10 O2 1.252 . S
O11 In0 2.294 . S
O11 C4 1.240 . S
O12 In0 2.326 . S
O12 C4 1.252 . S
In13 O14 2.294 . S
In13 O15 2.326 1_455 S
In13 O19 2.266 . S
In13 O20 2.326 1_545 S
In13 O21 2.266 1_445 S
In13 O22 2.326 1_545 S
In13 O24 2.294 1_445 S
In13 O25 2.326 1_455 S
O14 In13 2.294 . S
O14 C23 1.240 1_455 S
O15 In13 2.326 1_655 S
O15 C23 1.252 . S
C16 O19 1.252 1_565 S
C16 O20 1.260 . S
C17 O24 1.240 1_545 S
C17 O25 1.252 . S
C18 O21 1.252 1_455 S
C18 O22 1.260 . S
O19 In13 2.266 . S
O19 C16 1.252 1_545 S
O20 In13 2.326 1_565 S
O20 C16 1.260 . S
O21 In13 2.266 1_665 S
O21 C18 1.252 1_655 S
O22 In13 2.326 1_565 S
O22 C18 1.260 . S
C23 O14 1.240 1_655 S
C23 O15 1.252 . S
O24 In13 2.294 1_665 S
O24 C17 1.240 1_565 S
O25 In13 2.326 1_655 S
O25 C17 1.252 . S
In26 O27 2.294 1_445 S
In26 O28 2.326 1_445 S
In26 O32 2.266 1_545 S
In26 O33 2.326 . S
In26 O34 2.266 . S
In26 O35 2.326 . S
In26 O37 2.294 1_455 S
In26 O38 2.326 1_445 S
O27 In26 2.294 1_665 S
O27 C36 1.240 . S
O28 In26 2.326 1_665 S
O28 C36 1.252 . S
C29 O32 1.252 1_545 S
C29 O33 1.260 . S
C30 O37 1.240 1_565 S
C30 O38 1.252 . S
C31 O34 1.252 . S
C31 O35 1.260 . S
O32 In26 2.266 1_565 S
O32 C29 1.252 1_565 S
O33 In26 2.326 . S
O33 C29 1.260 . S
O34 In26 2.266 . S
O34 C31 1.252 . S
O35 In26 2.326 . S
O35 C31 1.260 . S
C36 O27 1.240 . S
C36 O28 1.252 . S
O37 In26 2.294 1_655 S
O37 C30 1.240 1_545 S
O38 In26 2.326 1_665 S
O38 C30 1.252 . S
C39 O41 1.247 . S
C39 O43 1.258 1_455 S
C40 O47 1.247 1_455 S
C40 O48 1.258 . S
O41 C39 1.247 . S
O41 Zn42 2.028 . S
Zn42 O41 2.028 . S
Zn42 O46 2.035 . S
Zn42 O48 2.035 . S
Zn42 O49 2.028 . S
O43 C39 1.258 1_655 S
O43 Zn44 2.035 . S
Zn44 O43 2.035 . S
Zn44 O45 2.028 . S
Zn44 O47 2.028 . S
Zn44 O50 2.035 . S
O45 Zn44 2.028 . S
O45 C51 1.247 1_655 S
O46 Zn42 2.035 . S
O46 C51 1.258 . S
O47 C40 1.247 1_655 S
O47 Zn44 2.028 . S
O48 C40 1.258 . S
O48 Zn42 2.035 . S
O49 Zn42 2.028 . S
O49 C52 1.247 . S
O50 Zn44 2.035 . S
O50 C52 1.258 1_655 S
C51 O45 1.247 1_455 S
C51 O46 1.258 . S
C52 O49 1.247 . S
C52 O50 1.258 1_455 S
C53 O55 1.247 1_545 S
C53 O57 1.258 . S
C54 O61 1.247 . S
C54 O62 1.258 1_545 S
O55 C53 1.247 1_565 S
O55 Zn56 2.028 . S
Zn56 O55 2.028 . S
Zn56 O60 2.035 . S
Zn56 O62 2.035 . S
Zn56 O63 2.028 . S
O57 C53 1.258 . S
O57 Zn58 2.035 . S
Zn58 O57 2.035 . S
Zn58 O59 2.028 . S
Zn58 O61 2.028 . S
Zn58 O64 2.035 . S
O59 Zn58 2.028 . S
O59 C65 1.247 . S
O60 Zn56 2.035 . S
O60 C65 1.258 1_565 S
O61 C54 1.247 . S
O61 Zn58 2.028 . S
O62 C54 1.258 1_565 S
O62 Zn56 2.035 . S
O63 Zn56 2.028 . S
O63 C66 1.247 1_565 S
O64 Zn58 2.035 . S
O64 C66 1.258 . S
C65 O59 1.247 . S
C65 O60 1.258 1_545 S
C66 O63 1.247 1_545 S
C66 O64 1.258 . S
C67 O69 1.247 . S
C67 O71 1.258 . S
C68 O75 1.247 . S
C68 O76 1.258 . S
O69 C67 1.247 . S
O69 Zn70 2.028 . S
Zn70 O69 2.028 . S
Zn70 O74 2.035 . S
Zn70 O76 2.035 . S
Zn70 O77 2.028 . S
O71 C67 1.258 . S
O71 Zn72 2.035 . S
Zn72 O71 2.035 . S
Zn72 O73 2.028 . S
Zn72 O75 2.028 . S
Zn72 O78 2.035 . S
O73 Zn72 2.028 . S
O73 C79 1.247 . S
O74 Zn70 2.035 . S
O74 C79 1.258 . S
O75 C68 1.247 . S
O75 Zn72 2.028 . S
O76 C68 1.258 . S
O76 Zn70 2.035 . S
O77 Zn70 2.028 . S
O77 C80 1.247 . S
O78 Zn72 2.035 . S
O78 C80 1.258 . S
C79 O73 1.247 . S
C79 O74 1.258 . S
C80 O77 1.247 . S
C80 O78 1.258 . S
C81 C82 1.363 1_655 S
C81 C87 1.379 . S
C81 N89 1.356 . S
C82 C81 1.363 1_455 S
C82 C88 1.363 . S
C83 C84 1.363 . S
C83 C88 1.379 . S
C83 N90 1.356 . S
C84 C83 1.363 . S
C84 C87 1.363 1_455 S
N85 C87 1.356 . S
N85 H97 0.984 . S
N85 H98 0.985 . S
N86 C88 1.356 . S
N86 H91 0.984 . S
N86 H92 0.985 . S
C87 C81 1.379 . S
C87 C84 1.363 1_655 S
C87 N85 1.356 . S
C88 C82 1.363 . S
C88 C83 1.379 . S
C88 N86 1.356 . S
N89 C81 1.356 . S
N89 H95 0.984 . S
N89 H96 0.984 . S
N90 C83 1.356 . S
N90 H93 0.984 . S
N90 H94 0.985 . S
H91 N86 0.984 . S
H92 N86 0.985 . S
H93 N90 0.984 . S
H94 N90 0.985 . S
H95 N89 0.984 . S
H96 N89 0.984 . S
H97 N85 0.984 . S
H98 N85 0.985 . S
C99 C100 1.363 . S
C99 C105 1.379 . S
C99 N107 1.356 . S
C100 C99 1.363 . S
C100 C106 1.363 1_545 S
C101 C102 1.363 1_565 S
C101 C106 1.379 . S
C101 N108 1.356 . S
C102 C101 1.363 1_545 S
C102 C105 1.363 . S
N103 C105 1.356 . S
N103 H115 0.984 . S
N103 H116 0.985 . S
N104 C106 1.356 . S
N104 H109 0.984 . S
N104 H110 0.985 . S
C105 C99 1.379 . S
C105 C102 1.363 . S
C105 N103 1.356 . S
C106 C100 1.363 1_565 S
C106 C101 1.379 . S
C106 N104 1.356 . S
N107 C99 1.356 . S
N107 H113 0.984 . S
N107 H114 0.984 . S
N108 C101 1.356 . S
N108 H111 0.984 . S
N108 H112 0.985 . S
H109 N104 0.984 . S
H110 N104 0.985 . S
H111 N108 0.984 . S
H112 N108 0.985 . S
H113 N107 0.984 . S
H114 N107 0.984 . S
H115 N103 0.984 . S
H116 N103 0.985 . S
C117 C118 1.363 . S
C117 C123 1.379 . S
C117 N125 1.356 . S
C118 C117 1.363 . S
C118 C124 1.363 . S
C119 C120 1.363 . S
C119 C124 1.379 . S
C119 N126 1.356 . S
C120 C119 1.363 . S
C120 C123 1.363 . S
N121 C123 1.356 . S
N121 H133 0.984 . S
N121 H134 0.985 . S
N122 C124 1.356 . S
N122 H127 0.984 . S
N122 H128 0.985 . S
C123 C117 1.379 . S
C123 C120 1.363 . S
C123 N121 1.356 . S
C124 C118 1.363 . S
C124 C119 1.379 . S
C124 N122 1.356 . S
N125 C117 1.356 . S
N125 H131 0.984 . S
N125 H132 0.984 . S
N126 C119 1.356 . S
N126 H129 0.984 . S
N126 H130 0.985 . S
H127 N122 0.984 . S
H128 N122 0.985 . S
H129 N126 0.984 . S
H130 N126 0.985 . S
H131 N125 0.984 . S
H132 N125 0.984 . S
H133 N121 0.984 . S
H134 N121 0.985 . S
C135 C136 1.363 . S
C135 C141 1.379 . S
C135 N143 1.356 . S
C136 C135 1.363 . S
C136 C142 1.363 1_455 S
C137 C138 1.363 1_655 S
C137 C142 1.379 . S
C137 N144 1.356 . S
C138 C137 1.363 1_455 S
C138 C141 1.363 . S
N139 C141 1.356 . S
N139 H151 0.984 . S
N139 H152 0.985 . S
N140 C142 1.356 . S
N140 H145 0.984 . S
N140 H146 0.985 . S
C141 C135 1.379 . S
C141 C138 1.363 . S
C141 N139 1.356 . S
C142 C136 1.363 1_655 S
C142 C137 1.379 . S
C142 N140 1.356 . S
N143 C135 1.356 . S
N143 H149 0.984 . S
N143 H150 0.984 . S
N144 C137 1.356 . S
N144 H147 0.984 . S
N144 H148 0.985 . S
H145 N140 0.984 . S
H146 N140 0.985 . S
H147 N144 0.984 . S
H148 N144 0.985 . S
H149 N143 0.984 . S
H150 N143 0.984 . S
H151 N139 0.984 . S
H152 N139 0.985 . S
C153 C154 1.363 . S
C153 C159 1.379 . S
C153 N161 1.356 . S
C154 C153 1.363 . S
C154 C160 1.363 1_565 S
C155 C156 1.363 . S
C155 C160 1.379 . S
C155 N162 1.356 . S
C156 C155 1.363 . S
C156 C159 1.363 1_545 S
N157 C159 1.356 . S
N157 H169 0.984 . S
N157 H170 0.985 . S
N158 C160 1.356 . S
N158 H163 0.984 . S
N158 H164 0.985 . S
C159 C153 1.379 . S
C159 C156 1.363 1_565 S
C159 N157 1.356 . S
C160 C154 1.363 1_545 S
C160 C155 1.379 . S
C160 N158 1.356 . S
N161 C153 1.356 . S
N161 H167 0.984 . S
N161 H168 0.984 . S
N162 C155 1.356 . S
N162 H165 0.984 . S
N162 H166 0.985 . S
H163 N158 0.984 . S
H164 N158 0.985 . S
H165 N162 0.984 . S
H166 N162 0.985 . S
H167 N161 0.984 . S
H168 N161 0.984 . S
H169 N157 0.984 . S
H170 N157 0.985 . S
C171 C172 1.363 . S
C171 C177 1.379 . S
C171 N179 1.356 . S
C172 C171 1.363 . S
C172 C178 1.363 . S
C173 C174 1.363 . S
C173 C178 1.379 . S
C173 N180 1.356 . S
C174 C173 1.363 . S
C174 C177 1.363 . S
N175 C177 1.356 . S
N175 H187 0.984 . S
N175 H188 0.985 . S
N176 C178 1.356 . S
N176 H181 0.984 . S
N176 H182 0.985 . S
C177 C171 1.379 . S
C177 C174 1.363 . S
C177 N175 1.356 . S
C178 C172 1.363 . S
C178 C173 1.379 . S
C178 N176 1.356 . S
N179 C171 1.356 . S
N179 H185 0.984 . S
N179 H186 0.984 . S
N180 C173 1.356 . S
N180 H183 0.984 . S
N180 H184 0.985 . S
H181 N176 0.984 . S
H182 N176 0.985 . S
H183 N180 0.984 . S
H184 N180 0.985 . S
H185 N179 0.984 . S
H186 N179 0.984 . S
H187 N175 0.984 . S
H188 N175 0.985 . S
C189 C190 1.363 . S
C189 C195 1.379 . S
C189 N197 1.356 . S
C190 C189 1.363 . S
C190 C196 1.363 1_565 S
C191 C192 1.363 . S
C191 C196 1.379 . S
C191 N198 1.356 . S
C192 C191 1.363 . S
C192 C195 1.363 1_545 S
N193 C195 1.356 . S
N193 H205 0.984 . S
N193 H206 0.985 . S
N194 C196 1.356 . S
N194 H199 0.984 . S
N194 H200 0.985 . S
C195 C189 1.379 . S
C195 C192 1.363 1_565 S
C195 N193 1.356 . S
C196 C190 1.363 1_545 S
C196 C191 1.379 . S
C196 N194 1.356 . S
N197 C189 1.356 . S
N197 H203 0.984 . S
N197 H204 0.984 . S
N198 C191 1.356 . S
N198 H201 0.984 . S
N198 H202 0.985 . S
H199 N194 0.984 . S
H200 N194 0.985 . S
H201 N198 0.984 . S
H202 N198 0.985 . S
H203 N197 0.984 . S
H204 N197 0.984 . S
H205 N193 0.984 . S
H206 N193 0.985 . S
C207 C208 1.363 . S
C207 C213 1.379 1_554 S
C207 N215 1.356 . S
C208 C207 1.363 . S
C208 C214 1.363 1_554 S
C209 C210 1.363 . S
C209 C214 1.379 . S
C209 N216 1.356 . S
C210 C209 1.363 . S
C210 C213 1.363 . S
N211 C213 1.356 . S
N211 H223 0.984 . S
N211 H224 0.985 . S
N212 C214 1.356 . S
N212 H217 0.984 1_556 S
N212 H218 0.985 . S
C213 C207 1.379 1_556 S
C213 C210 1.363 . S
C213 N211 1.356 . S
C214 C208 1.363 1_556 S
C214 C209 1.379 . S
C214 N212 1.356 . S
N215 C207 1.356 . S
N215 H221 0.984 . S
N215 H222 0.984 . S
N216 C209 1.356 . S
N216 H219 0.984 . S
N216 H220 0.985 . S
H217 N212 0.984 1_554 S
H218 N212 0.985 . S
H219 N216 0.984 . S
H220 N216 0.985 . S
H221 N215 0.984 . S
H222 N215 0.984 . S
H223 N211 0.984 . S
H224 N211 0.985 . S
C225 C226 1.363 . S
C225 C231 1.379 . S
C225 N233 1.356 . S
C226 C225 1.363 . S
C226 C232 1.363 . S
C227 C228 1.363 . S
C227 C232 1.379 . S
C227 N234 1.352 . S
C228 C227 1.363 . S
C228 C231 1.363 . S
N229 C231 1.356 . S
N229 H241 0.984 . S
N229 H242 0.985 . S
N230 C232 1.356 . S
N230 H235 0.984 . S
N230 H236 0.985 . S
C231 C225 1.379 . S
C231 C228 1.363 . S
C231 N229 1.356 . S
C232 C226 1.363 . S
C232 C227 1.379 . S
C232 N230 1.356 . S
N233 C225 1.356 . S
N233 H239 0.984 . S
N233 H240 0.984 . S
N234 C227 1.352 . S
N234 H237 0.987 1_455 S
N234 H238 0.986 1_455 S
H235 N230 0.984 . S
H236 N230 0.985 . S
H237 N234 0.987 1_655 S
H238 N234 0.986 1_655 S
H239 N233 0.984 . S
H240 N233 0.984 . S
H241 N229 0.984 . S
H242 N229 0.985 . S
C243 C244 1.363 1_565 S
C243 C249 1.379 . S
C243 N251 1.356 . S
C244 C243 1.363 1_545 S
C244 C250 1.363 . S
C245 C246 1.363 . S
C245 C250 1.379 . S
C245 N252 1.356 . S
C246 C245 1.363 . S
C246 C249 1.363 1_545 S
N247 C249 1.356 . S
N247 H259 0.984 . S
N247 H260 0.985 . S
N248 C250 1.356 . S
N248 H253 0.984 . S
N248 H254 0.985 . S
C249 C243 1.379 . S
C249 C246 1.363 1_565 S
C249 N247 1.356 . S
C250 C244 1.363 . S
C250 C245 1.379 . S
C250 N248 1.356 . S
N251 C243 1.356 . S
N251 H257 0.984 . S
N251 H258 0.984 . S
N252 C245 1.356 . S
N252 H255 0.984 . S
N252 H256 0.985 . S
H253 N248 0.984 . S
H254 N248 0.985 . S
H255 N252 0.984 . S
H256 N252 0.985 . S
H257 N251 0.984 . S
H258 N251 0.984 . S
H259 N247 0.984 . S
H260 N247 0.985 . S
C261 C262 1.363 1_556 S
C261 C267 1.379 . S
C261 N269 1.356 . S
C262 C261 1.363 1_554 S
C262 C268 1.363 . S
C263 C264 1.363 . S
C263 C268 1.379 1_556 S
C263 N270 1.356 . S
C264 C263 1.363 . S
C264 C267 1.363 . S
N265 C267 1.356 . S
N265 H277 0.984 . S
N265 H278 0.985 . S
N266 C268 1.356 . S
N266 H271 0.984 . S
N266 H272 0.985 . S
C267 C261 1.379 . S
C267 C264 1.363 . S
C267 N265 1.356 . S
C268 C262 1.363 . S
C268 C263 1.379 1_554 S
C268 N266 1.356 . S
N269 C261 1.356 . S
N269 H275 0.984 . S
N269 H276 0.984 1_556 S
N270 C263 1.356 . S
N270 H273 0.984 . S
N270 H274 0.985 . S
H271 N266 0.984 . S
H272 N266 0.985 . S
H273 N270 0.984 . S
H274 N270 0.985 . S
H275 N269 0.984 . S
H276 N269 0.984 1_554 S
H277 N265 0.984 . S
H278 N265 0.985 . S
C279 C280 1.357 1_455 S
C279 C285 1.379 . S
C279 N287 1.356 . S
C280 C279 1.357 1_655 S
C280 C286 1.374 . S
C281 C282 1.363 1_655 S
C281 C286 1.379 . S
C281 N288 1.356 . S
C282 C281 1.363 1_455 S
C282 C285 1.363 . S
N283 C285 1.356 . S
N283 H295 0.984 . S
N283 H296 0.985 . S
N284 C286 1.356 . S
N284 H289 0.984 . S
N284 H290 0.985 . S
C285 C279 1.379 . S
C285 C282 1.363 . S
C285 N283 1.356 . S
C286 C280 1.374 . S
C286 C281 1.379 . S
C286 N284 1.356 . S
N287 C279 1.356 . S
N287 H293 0.984 . S
N287 H294 0.984 . S
N288 C281 1.356 . S
N288 H291 0.984 . S
N288 H292 0.985 . S
H289 N284 0.984 . S
H290 N284 0.985 . S
H291 N288 0.984 . S
H292 N288 0.985 . S
H293 N287 0.984 . S
H294 N287 0.984 . S
H295 N283 0.984 . S
H296 N283 0.985 . S
C84 C40 1.499 . S
C82 C10 1.499 . S
C100 C17 1.499 . S
C102 C66 1.499 . S
C118 C36 1.500 . S
C120 C68 1.500 . S
C136 C5 1.501 1_455 S
C138 C52 1.501 . S
C156 C54 1.501 . S
C154 C16 1.501 . S
C172 C31 1.500 . S
C174 C80 1.500 . S
C192 C53 1.499 . S
C190 C30 1.499 . S
C208 C3 1.500 . S
C210 C79 1.500 . S
C228 C39 1.501 . S
C226 C18 1.501 . S
C246 C65 1.501 . S
C244 C29 1.501 . S
C264 C67 1.499 . S
C262 C4 1.500 . S
C280 C23 1.495 . S
C282 C51 1.499 . S
