# Generated by pormake.
# Topology soc, (4,6)-cn, num edge types: 1
# Building blocks:
#     Node 0, Type 0, BuildingBlock: ESEHIV_clean_sbu_0, # of connection points: 4
#     Node 1, Type 0, BuildingBlock: ESEHIV_clean_sbu_0, # of connection points: 4
#     Node 2, Type 0, BuildingBlock: ESEHIV_clean_sbu_0, # of connection points: 4
#     Node 3, Type 0, BuildingBlock: ESEHIV_clean_sbu_0, # of connection points: 4
#     Node 4, Type 0, BuildingBlock: ESEHIV_clean_sbu_0, # of connection points: 4
#     Node 5, Type 0, BuildingBlock: ESEHIV_clean_sbu_0, # of connection points: 4
#     Node 6, Type 0, BuildingBlock: ESEHIV_clean_sbu_0, # of connection points: 4
#     Node 7, Type 0, BuildingBlock: ESEHIV_clean_sbu_0, # of connection points: 4
#     Node 8, Type 0, BuildingBlock: ESEHIV_clean_sbu_0, # of connection points: 4
#     Node 9, Type 0, BuildingBlock: ESEHIV_clean_sbu_0, # of connection points: 4
#     Node 10, Type 0, BuildingBlock: ESEHIV_clean_sbu_0, # of connection points: 4
#     Node 11, Type 0, BuildingBlock: ESEHIV_clean_sbu_0, # of connection points: 4
#     Node 12, Type 1, BuildingBlock: PAMTOO_clean_sbu_0, # of connection points: 6
#     Node 13, Type 1, BuildingBlock: PAMTOO_clean_sbu_0, # of connection points: 6
#     Node 14, Type 1, BuildingBlock: PAMTOO_clean_sbu_0, # of connection points: 6
#     Node 15, Type 1, BuildingBlock: PAMTOO_clean_sbu_0, # of connection points: 6
#     Node 16, Type 1, BuildingBlock: PAMTOO_clean_sbu_0, # of connection points: 6
#     Node 17, Type 1, BuildingBlock: PAMTOO_clean_sbu_0, # of connection points: 6
#     Node 18, Type 1, BuildingBlock: PAMTOO_clean_sbu_0, # of connection points: 6
#     Node 19, Type 1, BuildingBlock: PAMTOO_clean_sbu_0, # of connection points: 6
#     Edge 20, Type (0, 1), BuildingBlock: KIFKEQ_clean_linker_1, # of connection points: 2
#     Edge 21, Type (0, 1), BuildingBlock: KIFKEQ_clean_linker_1, # of connection points: 2
#     Edge 22, Type (0, 1), BuildingBlock: KIFKEQ_clean_linker_1, # of connection points: 2
#     Edge 23, Type (0, 1), BuildingBlock: KIFKEQ_clean_linker_1, # of connection points: 2
#     Edge 24, Type (0, 1), BuildingBlock: KIFKEQ_clean_linker_1, # of connection points: 2
#     Edge 25, Type (0, 1), BuildingBlock: KIFKEQ_clean_linker_1, # of connection points: 2
#     Edge 26, Type (0, 1), BuildingBlock: KIFKEQ_clean_linker_1, # of connection points: 2
#     Edge 27, Type (0, 1), BuildingBlock: KIFKEQ_clean_linker_1, # of connection points: 2
#     Edge 28, Type (0, 1), BuildingBlock: KIFKEQ_clean_linker_1, # of connection points: 2
#     Edge 29, Type (0, 1), BuildingBlock: KIFKEQ_clean_linker_1, # of connection points: 2
#     Edge 30, Type (0, 1), BuildingBlock: KIFKEQ_clean_linker_1, # of connection points: 2
#     Edge 31, Type (0, 1), BuildingBlock: KIFKEQ_clean_linker_1, # of connection points: 2
#     Edge 32, Type (0, 1), BuildingBlock: KIFKEQ_clean_linker_1, # of connection points: 2
#     Edge 33, Type (0, 1), BuildingBlock: KIFKEQ_clean_linker_1, # of connection points: 2
#     Edge 34, Type (0, 1), BuildingBlock: KIFKEQ_clean_linker_1, # of connection points: 2
#     Edge 35, Type (0, 1), BuildingBlock: KIFKEQ_clean_linker_1, # of connection points: 2
#     Edge 36, Type (0, 1), BuildingBlock: KIFKEQ_clean_linker_1, # of connection points: 2
#     Edge 37, Type (0, 1), BuildingBlock: KIFKEQ_clean_linker_1, # of connection points: 2
#     Edge 38, Type (0, 1), BuildingBlock: KIFKEQ_clean_linker_1, # of connection points: 2
#     Edge 39, Type (0, 1), BuildingBlock: KIFKEQ_clean_linker_1, # of connection points: 2
#     Edge 40, Type (0, 1), BuildingBlock: KIFKEQ_clean_linker_1, # of connection points: 2
#     Edge 41, Type (0, 1), BuildingBlock: KIFKEQ_clean_linker_1, # of connection points: 2
#     Edge 42, Type (0, 1), BuildingBlock: KIFKEQ_clean_linker_1, # of connection points: 2
#     Edge 43, Type (0, 1), BuildingBlock: KIFKEQ_clean_linker_1, # of connection points: 2
#     Edge 44, Type (0, 1), BuildingBlock: KIFKEQ_clean_linker_1, # of connection points: 2
#     Edge 45, Type (0, 1), BuildingBlock: KIFKEQ_clean_linker_1, # of connection points: 2
#     Edge 46, Type (0, 1), BuildingBlock: KIFKEQ_clean_linker_1, # of connection points: 2
#     Edge 47, Type (0, 1), BuildingBlock: KIFKEQ_clean_linker_1, # of connection points: 2
#     Edge 48, Type (0, 1), BuildingBlock: KIFKEQ_clean_linker_1, # of connection points: 2
#     Edge 49, Type (0, 1), BuildingBlock: KIFKEQ_clean_linker_1, # of connection points: 2
#     Edge 50, Type (0, 1), BuildingBlock: KIFKEQ_clean_linker_1, # of connection points: 2
#     Edge 51, Type (0, 1), BuildingBlock: KIFKEQ_clean_linker_1, # of connection points: 2
#     Edge 52, Type (0, 1), BuildingBlock: KIFKEQ_clean_linker_1, # of connection points: 2
#     Edge 53, Type (0, 1), BuildingBlock: KIFKEQ_clean_linker_1, # of connection points: 2
#     Edge 54, Type (0, 1), BuildingBlock: KIFKEQ_clean_linker_1, # of connection points: 2
#     Edge 55, Type (0, 1), BuildingBlock: KIFKEQ_clean_linker_1, # of connection points: 2
#     Edge 56, Type (0, 1), BuildingBlock: KIFKEQ_clean_linker_1, # of connection points: 2
#     Edge 57, Type (0, 1), BuildingBlock: KIFKEQ_clean_linker_1, # of connection points: 2
#     Edge 58, Type (0, 1), BuildingBlock: KIFKEQ_clean_linker_1, # of connection points: 2
#     Edge 59, Type (0, 1), BuildingBlock: KIFKEQ_clean_linker_1, # of connection points: 2
#     Edge 60, Type (0, 1), BuildingBlock: KIFKEQ_clean_linker_1, # of connection points: 2
#     Edge 61, Type (0, 1), BuildingBlock: KIFKEQ_clean_linker_1, # of connection points: 2
#     Edge 62, Type (0, 1), BuildingBlock: KIFKEQ_clean_linker_1, # of connection points: 2
#     Edge 63, Type (0, 1), BuildingBlock: KIFKEQ_clean_linker_1, # of connection points: 2
#     Edge 64, Type (0, 1), BuildingBlock: KIFKEQ_clean_linker_1, # of connection points: 2
#     Edge 65, Type (0, 1), BuildingBlock: KIFKEQ_clean_linker_1, # of connection points: 2
#     Edge 66, Type (0, 1), BuildingBlock: KIFKEQ_clean_linker_1, # of connection points: 2
#     Edge 67, Type (0, 1), BuildingBlock: KIFKEQ_clean_linker_1, # of connection points: 2
# Relax obj value: 0.105
# Max RMSD: 0.215
# Mean RMSD: 0.144
data_MOF--net-soc--node1-ESEHIV_clean_sbu_0--node2-PAMTOO_clean_sbu_0--edge1-KIFKEQ_clean_linker_1
_symmetry_space_group_name_H-M    P1
_symmetry_Int_Tables_number       1
_symmetry_cell_setting            triclinic
loop_
_symmetry_equiv_pos_as_xyz
'x, y, z'
_cell_length_a     57.89062
_cell_length_b     45.627406
_cell_length_c     43.651747
_cell_angle_alpha  91.953742
_cell_angle_beta   92.125166
_cell_angle_gamma 70.687165
loop_
_atom_site_label
_atom_site_type_symbol
_atom_site_fract_x
_atom_site_fract_y
_atom_site_fract_z
_atom_type_partial_charge
Cu0 Cu 0.0602 0.03425 0.33138 0.0
N1 N 0.07729 0.05441 0.35665 0.0
N2 N 0.10093 0.08315 0.37001 0.0
C3 C 0.08911 0.07311 0.34686 0.0
C4 C 0.09597 0.07062 0.39551 0.0
C5 C 0.08136 0.05297 0.3872 0.0
O6 O 0.08483 1.00129 0.30881 0.0
C7 C 0.01884 0.06447 0.29003 0.0
O8 O 0.02025 0.0367 0.27927 0.0
H9 H 0.08887 0.07938 0.32317 0.0
H10 H 0.07445 0.03983 0.40242 0.0
N11 N 0.0448 1.01312 0.35514 0.0
N12 N 0.01991 0.98686 0.36693 0.0
C13 C 0.02302 1.00899 0.34931 0.0
C14 C 0.05573 0.99304 0.37733 0.0
C15 C 0.04042 0.977 0.38479 0.0
C16 C 0.10248 1.00376 0.29366 0.0
O17 O 0.1026 0.03143 0.28654 0.0
H18 H 0.01051 0.0202 0.33099 0.0
H19 H 0.07428 0.98877 0.38597 0.0
O20 O 0.03508 0.06724 0.30933 0.0
H21 H 0.10287 0.07332 0.41844 0.0
H22 H 0.04461 0.95846 0.40106 0.0
Cu23 Cu 0.04956 0.04046 0.713 0.0
N24 N 0.03694 0.01516 0.6878 0.0
N25 N 0.01461 0.9845 0.67586 0.0
C26 C 0.02244 1.00024 0.69832 0.0
C27 C 0.02469 0.98971 0.65003 0.0
C28 C 0.03858 1.00859 0.65751 0.0
O29 O 0.02208 0.06789 0.73587 0.0
C30 C 0.09486 0.99805 0.72025 0.0
O31 O 0.09357 1.00362 0.69079 0.0
H32 H 0.01711 1.00187 0.72199 0.0
H33 H 0.04885 0.01716 0.64197 0.0
N34 N 0.06284 0.06585 0.69188 0.0
N35 N 0.0875 0.09354 0.68415 0.0
C36 C 0.08106 0.07537 0.70355 0.0
C37 C 0.05725 0.07866 0.6641 0.0
C38 C 0.07246 0.09582 0.65927 0.0
C39 C 1.00324 0.08095 0.719 0.0
O40 O 1.00436 0.07539 0.68927 0.0
H41 H 0.08927 0.06918 0.72612 0.0
H42 H 0.04318 0.07573 0.6485 0.0
O43 O 0.07649 1.01215 0.73661 0.0
H44 H 0.02222 0.98058 0.62739 0.0
H45 H 0.07267 0.10853 0.63885 0.0
Cu46 Cu 0.29845 0.0379 0.03664 0.0
N47 N 0.27717 0.0265 1.00965 0.0
N48 N 0.26463 0.99663 0.97611 0.0
C49 C 0.28161 0.99776 0.99765 0.0
C50 C 0.24893 0.026 0.97434 0.0
C51 C 0.2568 0.04444 0.99504 0.0
O52 O 0.31637 1.00074 0.06044 0.0
C53 C 0.30878 0.08568 1.00543 0.0
O54 O 0.29015 0.10331 0.02111 0.0
H55 H 0.29785 0.97847 1.00339 0.0
H56 H 0.24888 0.06934 0.9982 0.0
N57 N 0.28093 0.067 0.06549 0.0
N58 N 0.27366 0.09969 0.10584 0.0
C59 C 0.29091 0.07936 0.08865 0.0
C60 C 0.25653 0.07956 0.06838 0.0
C61 C 0.25198 0.10002 0.09314 0.0
C62 C 0.30251 0.98792 0.07279 0.0
O63 O 0.27871 1.00007 0.06834 0.0
H64 H 0.31044 0.07415 0.09228 0.0
H65 H 0.24298 0.07424 0.05362 0.0
O66 O 0.31684 0.05642 1.01017 0.0
H67 H 0.23335 0.03381 0.95859 0.0
H68 H 0.23416 0.11402 0.10121 0.0
Cu69 Cu 0.09776 0.33896 0.0244 0.0
N70 N 0.11037 0.359 0.9961 0.0
N71 N 0.13593 0.36412 0.96114 0.0
C72 C 0.13139 0.34524 0.98149 0.0
C73 C 0.11695 0.39097 0.9631 0.0
C74 C 0.10122 0.38779 0.98487 0.0
O75 O 0.12504 0.32034 0.05304 0.0
C76 C 0.07408 0.31661 0.97561 0.0
O77 O 0.08019 0.33689 0.96001 0.0
H78 H 0.14275 0.3214 0.98514 0.0
H79 H 0.08418 0.40498 0.99165 0.0
N80 N 0.07258 0.36646 0.04673 0.0
N81 N 0.0386 0.37853 0.07402 0.0
C82 C 0.0513 0.36142 0.05056 0.0
C83 C 0.07337 0.38806 0.06811 0.0
C84 C 0.0523 0.39572 0.0849 0.0
C85 C 0.12299 0.31398 0.08079 0.0
O86 O 0.10154 0.31478 0.09038 0.0
H87 H 0.04615 0.34383 0.03762 0.0
H88 H 0.08901 0.39563 0.07288 0.0
O89 O 0.08237 0.31112 1.00312 0.0
H90 H 0.11464 0.41143 0.94986 0.0
H91 H 0.04844 0.4108 0.10508 0.0
Cu92 Cu 0.81529 0.0295 0.02327 0.0
N93 N 0.83504 0.0426 0.99813 0.0
N94 N 0.84282 0.07463 0.9656 0.0
C95 C 0.82751 0.0712 0.98661 0.0
C96 C 0.86085 0.04686 0.96381 0.0
C97 C 0.85597 0.02705 0.98396 0.0
O98 O 0.79942 0.06607 0.05025 0.0
C99 C 0.80877 0.9844 0.98295 0.0
O100 O 0.8317 0.97186 0.99207 0.0
H101 H 0.81015 0.08849 0.99215 0.0
H102 H 0.86625 1.00273 0.9868 0.0
N103 N 0.83305 0.99857 0.05004 0.0
N104 N 0.83915 0.96403 0.08697 0.0
C105 C 0.82251 0.9863 0.07074 0.0
C106 C 0.85731 0.98379 0.05339 0.0
C107 C 0.86112 0.96219 0.07609 0.0
C108 C 0.81542 0.07489 0.06551 0.0
O109 O 0.83862 0.05893 0.06148 0.0
H110 H 0.80289 0.99311 0.07327 0.0
H111 H 0.8712 0.98824 0.04026 0.0
O112 O 0.7963 1.01093 0.99447 0.0
H113 H 0.876 0.04093 0.94837 0.0
H114 H 0.87863 0.94649 0.08403 0.0
Cu115 Cu 0.01819 0.72765 0.03045 0.0
N116 N 1.00486 0.70876 0.999 0.0
N117 N 0.97944 0.70392 0.96075 0.0
C118 C 0.9833 0.72209 0.98413 0.0
C119 C 0.99927 0.67792 0.96131 0.0
C120 C 0.01494 0.68101 0.98487 0.0
O121 O 0.99358 0.74336 0.06205 0.0
C122 C 0.03436 0.7596 0.98482 0.0
O123 O 0.02276 0.74661 0.96522 0.0
H124 H 0.97104 0.74506 0.98998 0.0
H125 H 0.03277 0.66466 0.9906 0.0
N126 N 0.04577 0.69955 0.04912 0.0
N127 N 0.0823 0.68442 0.07339 0.0
C128 C 0.06475 0.70799 0.05986 0.0
C129 C 0.05143 0.6694 0.05608 0.0
C130 C 0.07401 0.66002 0.07126 0.0
C131 C 0.98594 0.72276 0.07302 0.0
O132 O 0.99446 0.69428 0.06173 0.0
H133 H 0.06534 0.73135 0.05846 0.0
H134 H 0.03997 0.65531 0.05072 0.0
O135 O 0.03162 0.75779 0.01351 0.0
H136 H 1.00275 0.6586 0.94505 0.0
H137 H 0.08362 0.63707 0.07983 0.0
Cu138 Cu 0.54831 0.54442 0.84465 0.0
N139 N 0.55978 0.5733 0.86573 0.0
N140 N 0.58132 0.60561 0.87353 0.0
C141 C 0.57963 0.58025 0.85807 0.0
C142 C 0.56168 0.61499 0.89167 0.0
C143 C 0.54835 0.59511 0.88665 0.0
O144 O 0.57663 0.51471 0.82486 0.0
C145 C 0.50285 0.56232 0.80905 0.0
O146 O 0.50326 0.53354 0.81115 0.0
H147 H 0.59165 0.56815 0.83995 0.0
H148 H 0.53084 0.59752 0.89623 0.0
N149 N 0.53589 0.52236 0.87119 0.0
N150 N 0.5184 0.48814 0.88521 0.0
C151 C 0.53001 0.497 0.8629 0.0
C152 C 0.52843 0.52931 0.90018 0.0
C153 C 0.51762 0.5082 0.90891 0.0
C154 C 0.59369 0.50087 0.84395 0.0
O155 O 0.58999 0.5072 0.87333 0.0
H156 H 0.5334 0.48599 0.8404 0.0
H157 H 0.52978 0.54901 0.91363 0.0
O158 O 0.52138 0.56959 0.81853 0.0
H159 H 0.55683 0.63532 0.90671 0.0
H160 H 0.50862 0.50873 0.93032 0.0
Cu161 Cu 0.55592 0.53754 0.22766 0.0
N162 N 0.53663 0.51871 0.20457 0.0
N163 N 0.50921 0.49459 0.19406 0.0
C164 C 0.5205 0.5068 0.21617 0.0
C165 C 0.5187 0.49906 0.16749 0.0
C166 C 0.53556 0.51397 0.17405 0.0
O167 O 0.53324 0.56665 0.25568 0.0
C168 C 0.59617 0.48502 0.22656 0.0
O169 O 0.58971 0.48892 0.19741 0.0
H170 H 0.51743 0.50677 0.24047 0.0
H171 H 0.54635 0.52074 0.15771 0.0
N172 N 0.56942 0.5597 0.2026 0.0
N173 N 0.59474 0.58414 0.18793 0.0
C174 C 0.59095 0.56448 0.20808 0.0
C175 C 0.55922 0.57671 0.17803 0.0
C176 C 0.57482 0.59179 0.16888 0.0
C177 C 0.53174 0.59509 0.25937 0.0
O178 O 0.54912 0.60433 0.24899 0.0
H179 H 0.6029 0.55502 0.22754 0.0
H180 H 0.54133 0.57887 0.16816 0.0
O181 O 0.5833 0.5045 0.2461 0.0
H182 H 0.51365 0.4924 0.14486 0.0
H183 H 0.57147 0.6076 0.15004 0.0
Cu184 Cu 0.84041 0.51675 0.52698 0.0
N185 N 0.86028 0.52794 0.50027 0.0
N186 N 0.8696 0.55306 0.46214 0.0
C187 C 0.85167 0.55017 0.47942 0.0
C188 C 0.89041 0.53175 0.4727 0.0
C189 C 0.88457 0.51614 0.4962 0.0
O190 O 0.82161 0.55457 0.55065 0.0
C191 C 0.83797 0.46751 0.49009 0.0
O192 O 0.86138 0.4599 0.49757 0.0
H193 H 0.83253 0.56408 0.47726 0.0
H194 H 0.89706 0.49729 0.50906 0.0
N195 N 0.85872 0.48954 0.55645 0.0
N196 N 0.86582 0.45475 0.59331 0.0
C197 C 0.85094 0.46853 0.56976 0.0
C198 C 0.87929 0.48919 0.57207 0.0
C199 C 0.88372 0.46767 0.59495 0.0
C200 C 0.83377 0.57219 0.56022 0.0
O201 O 0.85668 0.56496 0.55232 0.0
H202 H 0.83384 0.46484 0.5634 0.0
H203 H 0.88966 0.50445 0.56803 0.0
O204 O 0.82345 0.4932 0.50096 0.0
H205 H 0.90845 0.52726 0.46369 0.0
H206 H 0.89852 0.46259 0.61195 0.0
Cu207 Cu 0.60056 0.80195 0.52273 0.0
N208 N 0.62017 0.78245 0.48957 0.0
N209 N 0.64636 0.77428 0.45114 0.0
C210 C 0.63875 0.78988 0.4778 0.0
C211 C 0.63216 0.75627 0.44608 0.0
C212 C 0.61612 0.76127 0.46982 0.0
O213 O 0.61978 0.81567 0.55408 0.0
C214 C 0.56769 0.84249 0.47989 0.0
O215 O 0.58561 0.83321 0.46048 0.0
H216 H 0.64562 0.80757 0.48769 0.0
H217 H 0.60177 0.75121 0.47189 0.0
N218 N 0.58669 0.77548 0.54115 0.0
N219 N 0.55823 0.76192 0.56501 0.0
C220 C 0.5635 0.78471 0.55086 0.0
C221 C 0.59661 0.74568 0.54941 0.0
C222 C 0.57909 0.73725 0.56422 0.0
C223 C 0.6407 0.79674 0.56168 0.0
O224 O 0.64855 0.76951 0.54754 0.0
H225 H 0.55097 0.80816 0.5485 0.0
H226 H 0.61532 0.7313 0.54541 0.0
O227 O 0.57196 0.83515 0.50791 0.0
H228 H 0.633 0.74103 0.42628 0.0
H229 H 0.58156 0.71477 0.57369 0.0
Cu230 Cu 0.31022 0.53052 0.53219 0.0
N231 N 0.32841 0.54641 0.50602 0.0
N232 N 0.33531 0.57833 0.47188 0.0
C233 C 0.31862 0.5723 0.48936 0.0
C234 C 0.35649 0.5551 0.47789 0.0
C235 C 0.35218 0.5355 0.49879 0.0
O236 O 0.29298 0.56534 0.55851 0.0
C237 C 0.30337 0.4928 0.48763 0.0
O238 O 0.32715 0.48292 0.49305 0.0
H239 H 0.29954 0.58651 0.49031 0.0
H240 H 0.36539 0.51456 0.5077 0.0
N241 N 0.32846 0.49817 0.5584 0.0
N242 N 0.3356 0.46227 0.59481 0.0
C243 C 0.31928 0.47947 0.57393 0.0
C244 C 0.35148 0.49224 0.56972 0.0
C245 C 0.35585 0.47031 0.5922 0.0
C246 C 0.30804 0.57652 0.57239 0.0
O247 O 0.33153 0.56309 0.56779 0.0
H248 H 0.30053 0.4798 0.57123 0.0
H249 H 0.36384 0.50411 0.56323 0.0
O250 O 0.29005 0.5146 0.50461 0.0
H251 H 0.37384 0.552 0.4675 0.0
H252 H 0.37246 0.4615 0.60612 0.0
Cu253 Cu 0.51101 0.2402 0.51888 0.0
N254 N 0.53337 0.21542 0.49101 0.0
N255 N 0.56606 0.20116 0.46132 0.0
C256 C 0.5523 0.22289 0.48087 0.0
C257 C 0.55509 0.17925 0.4586 0.0
C258 C 0.53487 0.18813 0.47702 0.0
O259 O 0.52897 0.2644 0.54133 0.0
C260 C 0.46845 0.2469 0.48481 0.0
O261 O 0.47492 0.21766 0.49258 0.0
H262 H 0.55582 0.24408 0.48769 0.0
H263 H 0.52232 0.17549 0.48014 0.0
N264 N 0.50234 0.2163 0.54757 0.0
N265 N 0.4831 0.20444 0.58642 0.0
C266 C 0.48496 0.22721 0.56865 0.0
C267 C 0.51191 0.18556 0.55211 0.0
C268 C 0.50005 0.17816 0.576 0.0
C269 C 0.54882 0.24731 0.55421 0.0
O270 O 0.55388 0.21704 0.55282 0.0
H271 H 0.47377 0.25141 0.57062 0.0
H272 H 0.52666 0.1697 0.53923 0.0
O273 O 0.48165 0.263 0.49462 0.0
H274 H 0.56148 0.15806 0.44488 0.0
H275 H 0.504 0.1553 0.58534 0.0
Dy276 Dy 0.27405 0.29727 0.31241 0.0
Dy277 Dy 0.30493 0.32326 0.26224 0.0
C278 C 0.30112 0.25458 0.25588 0.0
O279 O 0.30576 0.30472 0.33833 0.0
O280 O 0.33225 0.30017 0.29927 0.0
O281 O 0.27476 0.26455 0.34739 0.0
O282 O 0.24108 0.30159 0.33628 0.0
O283 O 0.29298 0.35992 0.29873 0.0
O284 O 0.26031 0.34889 0.3175 0.0
O285 O 0.26748 0.33166 0.24039 0.0
O286 O 0.25176 0.30126 0.26906 0.0
O287 O 0.30771 0.36002 0.23432 0.0
O288 O 0.33648 0.31506 0.23402 0.0
C289 C 0.32791 0.30028 0.32866 0.0
O290 O 0.29543 0.25544 0.28484 0.0
O291 O 0.30283 0.27892 0.24226 0.0
C292 C 0.23758 0.25483 0.35299 0.0
C293 C 0.20961 0.21481 0.35553 0.0
C294 C 0.22037 0.21806 0.32798 0.0
C295 C 0.23426 0.23793 0.32672 0.0
C296 C 0.22708 0.25154 0.38047 0.0
C297 C 0.21322 0.23173 0.38177 0.0
C298 C 0.25133 0.27662 0.35204 0.0
C299 C 0.27311 0.36758 0.31492 0.0
C300 C 0.25113 0.31789 0.24484 0.0
C301 C 0.34792 0.35885 0.22359 0.0
C302 C 0.38301 0.3892 0.2193 0.0
C303 C 0.36809 0.39428 0.24506 0.0
C304 C 0.35067 0.37922 0.24719 0.0
C305 C 0.36302 0.35333 0.19822 0.0
C306 C 0.38039 0.36827 0.19608 0.0
C307 C 0.32923 0.3435 0.22433 0.0
H308 H 0.21817 0.20513 0.30745 0.0
H309 H 0.24229 0.24025 0.30528 0.0
H310 H 0.22938 0.26457 0.40091 0.0
H311 H 0.20491 0.23017 0.40321 0.0
H312 H 0.3695 0.41038 0.26326 0.0
H313 H 0.33921 0.38373 0.26705 0.0
H314 H 0.36125 0.33753 0.17986 0.0
H315 H 0.39186 0.3633 0.17623 0.0
Dy316 Dy 0.79846 0.2607 0.30017 0.0
Dy317 Dy 0.818 0.30137 0.25306 0.0
C318 C 0.76051 0.32002 0.26647 0.0
O319 O 0.78815 0.24734 0.25274 0.0
O320 O 0.81769 0.25851 0.22649 0.0
O321 O 0.79259 0.21814 0.31231 0.0
O322 O 0.78425 0.25722 0.34436 0.0
O323 O 0.85267 0.26682 0.27181 0.0
O324 O 0.83694 0.23113 0.29063 0.0
O325 O 0.80624 0.32974 0.29615 0.0
O326 O 0.81692 0.28929 0.32837 0.0
O327 O 0.83569 0.33554 0.24837 0.0
O328 O 0.82134 0.31781 0.20786 0.0
C329 C 0.80157 0.24396 0.22829 0.0
O330 O 0.76545 0.30235 0.29067 0.0
O331 O 0.77729 0.31894 0.24654 0.0
C332 C 0.76108 0.2236 0.34715 0.0
C333 C 0.71861 0.21398 0.36768 0.0
C334 C 0.71674 0.23839 0.34781 0.0
C335 C 0.73785 0.24319 0.33763 0.0
C336 C 0.76302 0.19876 0.36616 0.0
C337 C 0.742 0.19395 0.37632 0.0
C338 C 0.78351 0.22931 0.33875 0.0
C339 C 0.85557 0.23894 0.28197 0.0
C340 C 0.81227 0.31902 0.3238 0.0
C341 C 0.85508 0.33574 0.20178 0.0
C342 C 0.89548 0.34345 0.17298 0.0
C343 C 0.89899 0.3249 0.19902 0.0
C344 C 0.87896 0.32104 0.21327 0.0
C345 C 0.85157 0.35334 0.17529 0.0
C346 C 0.87155 0.35712 0.16096 0.0
C347 C 0.83352 0.33561 0.21853 0.0
H348 H 0.69901 0.25437 0.34093 0.0
H349 H 0.73605 0.26251 0.32291 0.0
H350 H 0.78083 0.18335 0.3736 0.0
H351 H 0.74408 0.17465 0.39118 0.0
H352 H 0.91712 0.31421 0.20903 0.0
H353 H 0.88209 0.30736 0.23377 0.0
H354 H 0.83327 0.36487 0.1661 0.0
H355 H 0.86822 0.371 0.1406 0.0
Dy356 Dy 0.80496 0.75177 0.24639 0.0
Dy357 Dy 0.82997 0.79044 0.29648 0.0
C358 C 0.77753 0.78281 0.30795 0.0
O359 O 0.80699 0.79294 0.22225 0.0
O360 O 0.8072 0.82542 0.26335 0.0
O361 O 0.77667 0.75257 0.2126 0.0
O362 O 0.8054 0.70915 0.22268 0.0
O363 O 0.85363 0.78137 0.25541 0.0
O364 O 0.84429 0.73982 0.23371 0.0
O365 O 0.84565 0.74025 0.30818 0.0
O366 O 0.81577 0.72215 0.28737 0.0
O367 O 0.86076 0.79252 0.32463 0.0
O368 O 0.82661 0.831 0.32564 0.0
C369 C 0.80519 0.82051 0.23371 0.0
O370 O 0.77517 0.77708 0.27846 0.0
O371 O 0.79812 0.78464 0.32023 0.0
C372 C 0.76643 0.70662 0.20769 0.0
C373 C 0.73021 0.67759 0.20488 0.0
C374 C 0.73039 0.69933 0.2285 0.0
C375 C 0.74838 0.71366 0.22992 0.0
C376 C 0.76657 0.68465 0.18442 0.0
C377 C 0.74866 0.67023 0.18302 0.0
C378 C 0.78479 0.72252 0.20785 0.0
C379 C 0.85803 0.75785 0.23566 0.0
C380 C 0.83472 0.71919 0.30593 0.0
C381 C 0.8634 0.8425 0.33409 0.0
C382 C 0.8934 0.88034 0.33613 0.0
C383 C 0.89212 0.86232 0.30968 0.0
C384 C 0.87719 0.84362 0.30864 0.0
C385 C 0.864 0.86115 0.36007 0.0
C386 C 0.87881 0.87997 0.36108 0.0
C387 C 0.84954 0.8207 0.33475 0.0
H388 H 0.71666 0.70522 0.24593 0.0
H389 H 0.74807 0.73047 0.24815 0.0
H390 H 0.78035 0.67896 0.16704 0.0
H391 H 0.74892 0.65387 0.16436 0.0
H392 H 0.90289 0.8624 0.28994 0.0
H393 H 0.87685 0.82949 0.28827 0.0
H394 H 0.85351 0.86053 0.37994 0.0
H395 H 0.87956 0.89329 0.38189 0.0
Dy396 Dy 0.32318 0.81576 0.30559 0.0
Dy397 Dy 0.30635 0.77185 0.25389 0.0
C398 C 0.3633 0.75503 0.27601 0.0
O399 O 0.31461 0.84126 0.2614 0.0
O400 O 0.32524 0.79926 0.22882 0.0
O401 O 0.33866 0.85217 0.31465 0.0
O402 O 0.32547 0.83277 0.35219 0.0
O403 O 0.2732 0.81399 0.26003 0.0
O404 O 0.28214 0.83124 0.30761 0.0
O405 O 0.29807 0.75767 0.30006 0.0
O406 O 0.32736 0.7709 0.3283 0.0
O407 O 0.30229 0.72783 0.23978 0.0
O408 O 0.29225 0.76605 0.20845 0.0
C409 C 0.3215 0.82894 0.23426 0.0
O410 O 0.35896 0.78264 0.28926 0.0
O411 O 0.34571 0.74575 0.26386 0.0
C412 C 0.35887 0.85122 0.3622 0.0
C413 C 0.40267 0.85349 0.39115 0.0
C414 C 0.40147 0.82572 0.37712 0.0
C415 C 0.37977 0.82463 0.36268 0.0
C416 C 0.35973 0.87867 0.3768 0.0
C417 C 0.3814 0.87983 0.39116 0.0
C418 C 0.3368 0.85166 0.34426 0.0
C419 C 0.26664 0.83195 0.28458 0.0
C420 C 0.3128 0.75416 0.32442 0.0
C421 C 0.27175 0.72929 0.20181 0.0
C422 C 0.23129 0.71448 0.17673 0.0
C423 C 0.22803 0.73769 0.19985 0.0
C424 C 0.24814 0.7451 0.21227 0.0
C425 C 0.27513 0.70566 0.17941 0.0
C426 C 0.25512 0.69829 0.16698 0.0
C427 C 0.29307 0.73763 0.21287 0.0
H428 H 0.41738 0.80488 0.37705 0.0
H429 H 0.37944 0.80327 0.35131 0.0
H430 H 0.34381 0.89951 0.37633 0.0
H431 H 0.3817 0.90168 0.40134 0.0
H432 H 0.20989 0.75073 0.20767 0.0
H433 H 0.24525 0.76347 0.22956 0.0
H434 H 0.29326 0.69316 0.17118 0.0
H435 H 0.25829 0.68 0.14957 0.0
Dy436 Dy 0.28015 0.75995 0.80364 0.0
Dy437 Dy 0.30815 0.79423 0.75713 0.0
C438 C 0.24998 0.82224 0.76812 0.0
O439 O 0.27206 0.74769 0.75538 0.0
O440 O 0.30607 0.75164 0.73291 0.0
O441 O 0.25519 0.7346 0.8099 0.0
O442 O 0.27399 0.74694 0.84931 0.0
O443 O 0.33722 0.75975 0.78456 0.0
O444 O 0.31759 0.7254 0.79609 0.0
O445 O 0.29516 0.82662 0.79663 0.0
O446 O 0.29537 0.79104 0.83254 0.0
O447 O 0.33354 0.81939 0.75236 0.0
O448 O 0.31565 0.80663 0.71204 0.0
C449 C 0.28719 0.74182 0.73258 0.0
O450 O 0.25247 0.80602 0.79311 0.0
O451 O 0.26781 0.81743 0.74857 0.0
C452 C 0.23363 0.74571 0.8567 0.0
C453 C 0.1896 0.75982 0.88949 0.0
C454 C 0.18901 0.76231 0.85737 0.0
C455 C 0.2107 0.75541 0.84121 0.0
C456 C 0.23428 0.74375 0.88878 0.0
C457 C 0.21257 0.75082 0.90499 0.0
C458 C 0.25687 0.73586 0.83972 0.0
C459 C 0.3378 0.73182 0.79188 0.0
C460 C 0.29484 0.81895 0.82521 0.0
C461 C 0.35576 0.8097 0.70646 0.0
C462 C 0.40031 0.79588 0.67506 0.0
C463 C 0.38633 0.77576 0.67251 0.0
C464 C 0.36429 0.78258 0.68807 0.0
C465 C 0.36984 0.82949 0.7094 0.0
C466 C 0.39183 0.82267 0.694 0.0
C467 C 0.33223 0.81839 0.72247 0.0
H468 H 0.1718 0.76869 0.84447 0.0
H469 H 0.20945 0.75711 0.81647 0.0
H470 H 0.25166 0.73629 0.90134 0.0
H471 H 0.21384 0.74907 0.92971 0.0
H472 H 0.39213 0.75505 0.65799 0.0
H473 H 0.35385 0.7668 0.68547 0.0
H474 H 0.36374 0.85045 0.72358 0.0
H475 H 0.40226 0.83841 0.69711 0.0
Dy476 Dy 0.3056 0.24876 0.76644 0.0
Dy477 Dy 0.33876 0.27689 0.81597 0.0
C478 C 0.28068 0.29197 0.82361 0.0
O479 O 0.31197 0.28733 0.74104 0.0
O480 O 0.32621 0.31318 0.77986 0.0
O481 O 0.27536 0.25429 0.73415 0.0
O482 O 0.30126 0.20839 0.74274 0.0
O483 O 0.36251 0.26094 0.77575 0.0
O484 O 0.34477 0.2272 0.75291 0.0
O485 O 0.34376 0.22852 0.83066 0.0
O486 O 0.30852 0.22265 0.81011 0.0
O487 O 0.37175 0.27045 0.84344 0.0
O488 O 0.34116 0.31347 0.84735 0.0
C489 C 0.31861 0.31095 0.75128 0.0
O490 O 0.27793 0.28409 0.79482 0.0
O491 O 0.30239 0.2863 0.83687 0.0
C492 C 0.26103 0.21125 0.72676 0.0
C493 C 0.22262 0.18594 0.72012 0.0
C494 C 0.22097 0.21062 0.74114 0.0
C495 C 0.24006 0.22314 0.74451 0.0
C496 C 0.26275 0.18658 0.70597 0.0
C497 C 0.2438 0.17404 0.70267 0.0
C498 C 0.28108 0.2245 0.72851 0.0
C499 C 0.36265 0.23903 0.75546 0.0
C500 C 0.32698 0.21488 0.83013 0.0
C501 C 0.381 0.31665 0.85648 0.0
C502 C 0.41386 0.35071 0.86311 0.0
C503 C 0.42163 0.32029 0.85062 0.0
C504 C 0.40539 0.30342 0.84735 0.0
C505 C 0.37319 0.34708 0.86873 0.0
C506 C 0.38937 0.36397 0.87187 0.0
C507 C 0.36393 0.2986 0.85522 0.0
H508 H 0.20503 0.2201 0.75515 0.0
H509 H 0.23838 0.24213 0.76081 0.0
H510 H 0.27872 0.1772 0.69196 0.0
H511 H 0.24556 0.15538 0.68597 0.0
H512 H 0.44041 0.3092 0.84397 0.0
H513 H 0.41208 0.2799 0.83808 0.0
H514 H 0.35457 0.35778 0.87619 0.0
H515 H 0.38263 0.38751 0.8811 0.0
Dy516 Dy 0.81475 0.30788 0.81264 0.0
Dy517 Dy 0.78689 0.28037 0.75519 0.0
C518 C 0.84463 0.24802 0.77138 0.0
O519 O 0.82827 0.31802 0.7685 0.0
O520 O 0.7938 0.32261 0.73894 0.0
O521 O 0.83039 0.34175 0.83221 0.0
O522 O 0.82982 0.30286 0.85885 0.0
O523 O 0.75713 0.31498 0.78117 0.0
O524 O 0.77808 0.34457 0.80543 0.0
O525 O 0.79772 0.24595 0.79255 0.0
O526 O 0.79263 0.28147 0.83166 0.0
O527 O 0.76193 0.25584 0.7419 0.0
O528 O 0.77924 0.27329 0.70688 0.0
C529 C 0.81447 0.32828 0.74404 0.0
O530 O 0.8422 0.26271 0.79818 0.0
O531 O 0.82698 0.25441 0.75008 0.0
C532 C 0.8631 0.32136 0.86838 0.0
C533 C 0.91128 0.31093 0.89243 0.0
C534 C 0.90615 0.28938 0.87168 0.0
C535 C 0.88231 0.29455 0.85977 0.0
C536 C 0.86816 0.34304 0.88871 0.0
C537 C 0.89194 0.33795 0.90056 0.0
C538 C 0.8376 0.32652 0.85752 0.0
C539 C 0.7575 0.34065 0.79544 0.0
C540 C 0.79523 0.25315 0.82183 0.0
C541 C 0.74009 0.26847 0.69444 0.0
C542 C 0.69511 0.27937 0.66112 0.0
C543 C 0.69609 0.2953 0.68914 0.0
C544 C 0.71837 0.28991 0.70564 0.0
C545 C 0.73928 0.25316 0.66626 0.0
C546 C 0.71712 0.25849 0.64981 0.0
C547 C 0.76336 0.25963 0.71263 0.0
H548 H 0.92044 0.2682 0.86504 0.0
H549 H 0.87882 0.27743 0.84414 0.0
H550 H 0.85362 0.3639 0.89562 0.0
H551 H 0.89518 0.3554 0.91594 0.0
H552 H 0.67963 0.31177 0.69845 0.0
H553 H 0.71854 0.302 0.72739 0.0
H554 H 0.75575 0.23631 0.65733 0.0
H555 H 0.71717 0.24532 0.62869 0.0
Dy556 Dy 0.7846 0.77379 0.7902 0.0
Dy557 Dy 0.81461 0.80586 0.74592 0.0
C558 C 0.80558 0.7409 0.72656 0.0
O559 O 0.8247 0.75189 0.80121 0.0
O560 O 0.83853 0.79099 0.7875 0.0
O561 O 0.78195 0.73313 0.81168 0.0
O562 O 0.75647 0.77882 0.82301 0.0
O563 O 0.79794 0.84346 0.78135 0.0
O564 O 0.79007 0.81328 0.81799 0.0
O565 O 0.77939 0.81075 0.7209 0.0
O566 O 0.7553 0.80333 0.75866 0.0
O567 O 0.81611 0.84307 0.71737 0.0
O568 O 0.84741 0.80083 0.72148 0.0
C569 C 0.84114 0.76604 0.80317 0.0
O570 O 0.78758 0.74692 0.74581 0.0
O571 O 0.82097 0.75679 0.72786 0.0
C572 C 0.74327 0.73578 0.82975 0.0
C573 C 0.70557 0.71035 0.83638 0.0
C574 C 0.71061 0.71894 0.80731 0.0
C575 C 0.72933 0.73166 0.80402 0.0
C576 C 0.73838 0.72715 0.85862 0.0
C577 C 0.71975 0.71455 0.86194 0.0
C578 C 0.763 0.74903 0.8275 0.0
C579 C 0.79229 0.83961 0.80959 0.0
C580 C 0.75802 0.81162 0.73079 0.0
C581 C 0.85538 0.84663 0.70898 0.0
C582 C 0.88951 0.87828 0.70401 0.0
C583 C 0.88761 0.86426 0.73167 0.0
C584 C 0.87066 0.84856 0.73414 0.0
C585 C 0.85692 0.86099 0.68165 0.0
C586 C 0.87379 0.87665 0.67915 0.0
C587 C 0.83868 0.8284 0.70977 0.0
H588 H 0.6999 0.71617 0.78722 0.0
H589 H 0.73289 0.73831 0.78154 0.0
H590 H 0.74907 0.7301 0.87869 0.0
H591 H 0.71667 0.70768 0.88453 0.0
H592 H 0.89923 0.8654 0.75138 0.0
H593 H 0.86971 0.83761 0.75548 0.0
H594 H 0.84538 0.85955 0.66192 0.0
H595 H 0.87495 0.88672 0.65739 0.0
H596 H 0.12517 0.08975 0.31999 0.0
H597 H 0.11226 0.11939 0.41473 0.0
H598 H 0.15165 0.12113 0.31613 0.0
H599 H 0.13893 0.15066 0.41087 0.0
H600 H 0.20863 0.17583 0.40145 0.0
H601 H 0.18231 0.14402 0.40481 0.0
H602 H 0.14959 0.17564 0.31621 0.0
H603 H 0.17582 0.2076 0.3129 0.0
C604 C 0.12772 0.10319 0.33993 0.0
C605 C 0.11645 0.10205 0.36767 0.0
C606 C 0.14298 0.12117 0.3377 0.0
C607 C 0.14743 0.13839 0.36318 0.0
C608 C 0.13618 0.1373 0.39092 0.0
C609 C 0.12086 0.11936 0.39314 0.0
C610 C 0.19571 0.17616 0.38276 0.0
C611 C 0.19429 0.19437 0.35694 0.0
C612 C 0.18062 0.15794 0.3847 0.0
C613 C 0.16377 0.15739 0.36085 0.0
C614 C 0.16257 0.17525 0.33483 0.0
C615 C 0.17765 0.19353 0.33291 0.0
H616 H 0.01009 0.1256 0.30741 0.0
H617 H 0.97622 0.06504 0.26003 0.0
H618 H 0.97139 0.16857 0.30395 0.0
H619 H 0.93766 0.10801 0.25646 0.0
H620 H 0.86719 0.17736 0.29458 0.0
H621 H 0.90695 0.13692 0.29355 0.0
H622 H 0.9404 0.20412 0.26879 0.0
H623 H 0.90029 0.24505 0.26985 0.0
C624 C 0.99452 0.12152 0.29583 0.0
C625 C 0.99634 0.09168 0.28414 0.0
C626 C 0.97232 0.14625 0.29378 0.0
C627 C 0.95127 0.14175 0.28024 0.0
C628 C 0.95336 0.11223 0.2675 0.0
C629 C 0.97559 0.08759 0.26932 0.0
C630 C 0.88294 0.18374 0.28898 0.0
C631 C 0.88037 0.21468 0.28236 0.0
C632 C 0.9058 0.16036 0.28812 0.0
C633 C 0.92694 0.16709 0.28082 0.0
C634 C 0.92453 0.19809 0.27461 0.0
C635 C 0.90151 0.22156 0.27518 0.0
H636 H 0.02381 0.92722 0.37773 0.0
H637 H 0.97281 0.01471 0.34766 0.0
H638 H 0.9924 0.90299 0.36949 0.0
H639 H 0.94135 0.99012 0.33872 0.0
H640 H 0.88583 0.93914 0.36001 0.0
H641 H 0.9159 0.96602 0.36761 0.0
H642 H 0.97065 0.88819 0.32507 0.0
H643 H 0.94086 0.86111 0.31809 0.0
C644 C 1.00583 0.94141 0.36965 0.0
C645 C 1.00084 0.97298 0.36344 0.0
C646 C 0.98789 0.92738 0.36453 0.0
C647 C 0.96444 0.94456 0.3532 0.0
C648 C 0.95922 0.97629 0.34755 0.0
C649 C 0.97727 0.99031 0.35248 0.0
C650 C 0.90429 0.92782 0.35226 0.0
C651 C 0.91096 0.89794 0.33852 0.0
C652 C 0.92145 0.94331 0.3564 0.0
C653 C 0.9457 0.92913 0.34715 0.0
C654 C 0.9522 0.89957 0.33281 0.0
C655 C 0.93504 0.8842 0.32848 0.0
H656 H 0.13991 0.99658 0.2542 0.0
H657 H 0.11616 0.94869 0.32381 0.0
H658 H 0.17869 0.9535 0.25126 0.0
H659 H 0.1551 0.90607 0.32127 0.0
H660 H 0.24112 0.86231 0.33467 0.0
H661 H 0.20042 0.90196 0.33519 0.0
H662 H 0.19467 0.89426 0.23665 0.0
H663 H 0.23506 0.85423 0.23607 0.0
C664 C 0.14282 0.97674 0.26861 0.0
C665 C 0.12482 0.97612 0.28913 0.0
C666 C 0.16504 0.95206 0.26692 0.0
C667 C 0.17003 0.92646 0.28619 0.0
C668 C 0.15188 0.92556 0.30631 0.0
C669 C 0.12947 0.94991 0.30754 0.0
C670 C 0.23111 0.86887 0.31314 0.0
C671 C 0.2414 0.85496 0.28535 0.0
C672 C 0.20775 0.89151 0.31345 0.0
C673 C 0.19434 0.90129 0.28594 0.0
C674 C 0.20459 0.88735 0.25819 0.0
C675 C 0.22769 0.86426 0.25792 0.0
H676 H 0.09997 0.95458 0.76437 0.0
H677 H 0.14082 0.99048 0.70375 0.0
H678 H 0.13738 0.91172 0.77731 0.0
H679 H 0.17818 0.94902 0.71754 0.0
H680 H 0.23302 0.85274 0.71481 0.0
H681 H 0.19546 0.89591 0.70627 0.0
H682 H 0.17711 0.89426 0.80117 0.0
H683 H 0.2143 0.85011 0.80932 0.0
C684 C 0.11708 0.95372 0.7545 0.0
C685 C 0.11755 0.97556 0.73288 0.0
C686 C 0.13853 0.92919 0.76183 0.0
C687 C 0.16081 0.92642 0.74794 0.0
C688 C 0.16131 0.94965 0.72788 0.0
C689 C 0.13993 0.97367 0.72022 0.0
C690 C 0.22096 0.86152 0.73384 0.0
C691 C 0.22673 0.84799 0.76273 0.0
C692 C 0.19945 0.88651 0.72905 0.0
C693 C 0.18329 0.89901 0.75315 0.0
C694 C 0.18894 0.88518 0.782 0.0
C695 C 0.21035 0.85988 0.78669 0.0
H696 H 0.09052 0.14598 0.65938 0.0
H697 H 0.12831 0.07163 0.72034 0.0
H698 H 0.12304 0.16868 0.6684 0.0
H699 H 0.16018 0.09479 0.73017 0.0
H700 H 0.22633 0.12474 0.7135 0.0
H701 H 0.19356 0.1029 0.70408 0.0
H702 H 0.14014 0.19501 0.70874 0.0
H703 H 0.17311 0.21702 0.71715 0.0
C704 C 0.10573 0.13447 0.67466 0.0
C705 C 0.10671 0.10702 0.68917 0.0
C706 C 0.12424 0.14766 0.68011 0.0
C707 C 0.14423 0.13359 0.70006 0.0
C708 C 0.1452 0.1061 0.71446 0.0
C709 C 0.12673 0.093 0.70908 0.0
C710 C 0.20761 0.14038 0.71234 0.0
C711 C 0.20238 0.17265 0.71598 0.0
C712 C 0.18878 0.12782 0.70724 0.0
C713 C 0.16418 0.14718 0.70564 0.0
C714 C 0.1589 0.17946 0.7095 0.0
C715 C 0.17777 0.19204 0.71471 0.0
H716 H 0.95764 0.08756 0.6975 0.0
H717 H 0.99672 0.12244 0.76782 0.0
H718 H 0.91943 0.12646 0.71216 0.0
H719 H 0.95836 0.16282 0.78183 0.0
H720 H 0.88078 0.21849 0.81294 0.0
H721 H 0.91885 0.17639 0.8032 0.0
H722 H 0.90006 0.17976 0.70629 0.0
H723 H 0.86166 0.22082 0.71623 0.0
C724 C 0.95799 0.10363 0.71623 0.0
C725 C 0.98013 0.10216 0.7314 0.0
C726 C 0.93609 0.12619 0.72446 0.0
C727 C 0.93576 0.14841 0.7477 0.0
C728 C 0.95784 0.14608 0.76387 0.0
C729 C 0.97984 0.12299 0.75591 0.0
C730 C 0.88478 0.21019 0.78954 0.0
C731 C 0.86806 0.22291 0.76535 0.0
C732 C 0.90672 0.18611 0.78395 0.0
C733 C 0.91258 0.17434 0.75399 0.0
C734 C 0.89598 0.18755 0.72979 0.0
C735 C 0.87395 0.21133 0.73543 0.0
H736 H 0.98283 0.97449 0.63271 0.0
H737 H 0.00841 0.95548 0.72648 0.0
H738 H 0.95311 0.94785 0.63937 0.0
H739 H 0.97826 0.92983 0.73345 0.0
H740 H 0.93717 0.85934 0.72546 0.0
H741 H 0.96819 0.88367 0.71793 0.0
H742 H 0.91527 0.95654 0.66694 0.0
H743 H 0.88424 0.93233 0.67457 0.0
C744 C 0.98224 0.96447 0.65466 0.0
C745 C 0.99793 0.96731 0.67909 0.0
C746 C 0.96501 0.94951 0.6586 0.0
C747 C 0.96317 0.93688 0.68703 0.0
C748 C 0.97926 0.9391 0.71121 0.0
C749 C 0.99639 0.95412 0.7073 0.0
C750 C 0.93206 0.88076 0.71297 0.0
C751 C 0.90819 0.89383 0.70061 0.0
C752 C 0.94988 0.89466 0.70856 0.0
C753 C 0.94427 0.92197 0.69166 0.0
C754 C 0.92035 0.93519 0.67955 0.0
C755 C 0.90254 0.92134 0.684 0.0
H756 H 0.31013 0.08395 0.14898 0.0
H757 H 0.24659 0.15903 0.11864 0.0
H758 H 0.31906 0.11856 0.18864 0.0
H759 H 0.2557 0.19351 0.15786 0.0
H760 H 0.30633 0.24833 0.19407 0.0
H761 H 0.29994 0.20809 0.16043 0.0
H762 H 0.2909 0.15821 0.23873 0.0
H763 H 0.29674 0.19912 0.27309 0.0
C764 C 0.29803 0.10775 0.15099 0.0
C765 C 0.27773 0.11894 0.13075 0.0
C766 C 0.30304 0.12735 0.1737 0.0
C767 C 0.28806 0.1585 0.17602 0.0
C768 C 0.26745 0.16948 0.15636 0.0
C769 C 0.2622 0.14979 0.13409 0.0
C770 C 0.30339 0.22865 0.2044 0.0
C771 C 0.30186 0.22713 0.23638 0.0
C772 C 0.29964 0.20571 0.18502 0.0
C773 C 0.2947 0.18047 0.19713 0.0
C774 C 0.29466 0.17765 0.22904 0.0
C775 C 0.29805 0.20098 0.24859 0.0
H776 H 0.0231 0.3283 0.06843 0.0
H777 H 1.00607 0.41944 0.11155 0.0
H778 H 0.9884 0.32113 0.09205 0.0
H779 H 0.97167 0.41143 0.13665 0.0
H780 H 0.89723 0.39788 0.15012 0.0
H781 H 0.93144 0.40709 0.12604 0.0
H782 H 0.97612 0.31184 0.1415 0.0
H783 H 0.94158 0.30221 0.16416 0.0
C784 C 0.01193 0.34703 0.08275 0.0
C785 C 0.01748 0.37466 0.0878 0.0
C786 C 0.99213 0.34261 0.09679 0.0
C787 C 0.97732 0.36554 0.11649 0.0
C788 C 0.98262 0.39334 0.12143 0.0
C789 C 1.00248 0.39783 0.10725 0.0
C790 C 0.91426 0.37878 0.14804 0.0
C791 C 0.91656 0.3492 0.15886 0.0
C792 C 0.93399 0.38421 0.13462 0.0
C793 C 0.95653 0.36021 0.13174 0.0
C794 C 0.95892 0.33075 0.14294 0.0
C795 C 0.93918 0.3253 0.15627 0.0
H796 H 0.8028 0.98183 0.12773 0.0
H797 H 0.8638 0.90359 0.09764 0.0
H798 H 0.79222 0.94882 0.16403 0.0
H799 H 0.8533 0.87062 0.13394 0.0
H800 H 0.8086 0.81524 0.17152 0.0
H801 H 0.81646 0.85142 0.13714 0.0
H802 H 0.81121 0.9169 0.21242 0.0
H803 H 0.8035 0.88048 0.24733 0.0
C804 C 0.81395 0.9576 0.12897 0.0
C805 C 0.83404 0.94518 0.1098 0.0
C806 C 0.808 0.93882 0.14983 0.0
C807 C 0.82181 0.90718 0.15154 0.0
C808 C 0.84218 0.8949 0.1328 0.0
C809 C 0.84833 0.91377 0.11227 0.0
C810 C 0.80872 0.8375 0.18083 0.0
C811 C 0.80554 0.84485 0.2123 0.0
C812 C 0.81345 0.85809 0.1611 0.0
C813 C 0.81482 0.88668 0.17225 0.0
C814 C 0.81028 0.89492 0.20331 0.0
C815 C 0.80582 0.8741 0.22323 0.0
H816 H 0.10679 0.65299 0.12285 0.0
H817 H 0.10864 0.71963 0.05594 0.0
H818 H 0.1437 0.65838 0.14833 0.0
H819 H 0.14499 0.72547 0.08151 0.0
H820 H 0.22335 0.70548 0.1157 0.0
H821 H 0.18838 0.69534 0.09066 0.0
H822 H 0.1555 0.69944 0.1786 0.0
H823 H 0.19095 0.70888 0.20387 0.0
C824 C 0.11519 0.66856 0.11348 0.0
C825 C 0.10478 0.68597 0.0875 0.0
C826 C 0.13614 0.67189 0.12821 0.0
C827 C 0.14722 0.6924 0.11696 0.0
C828 C 0.13703 0.70929 0.09061 0.0
C829 C 0.11607 0.70616 0.07612 0.0
C830 C 0.20883 0.70383 0.12977 0.0
C831 C 0.20995 0.70794 0.1618 0.0
C832 C 0.18868 0.6983 0.11538 0.0
C833 C 0.16915 0.69666 0.13263 0.0
C834 C 0.17037 0.70032 0.16471 0.0
C835 C 0.19052 0.70605 0.17914 0.0
H836 H 0.24681 0.9977 0.91769 0.0
H837 H 0.28494 0.93587 0.98964 0.0
H838 H 0.25311 0.95341 0.88244 0.0
H839 H 0.2922 0.89169 0.954 0.0
H840 H 0.28302 0.81707 0.8852 0.0
H841 H 0.27315 0.85985 0.92298 0.0
H842 H 0.28897 0.91876 0.85714 0.0
H843 H 0.29834 0.87648 0.81938 0.0
C844 C 0.25625 0.97466 0.92611 0.0
C845 C 0.26565 0.97035 0.95635 0.0
C846 C 0.26015 0.94931 0.90581 0.0
C847 C 0.27355 0.91914 0.91531 0.0
C848 C 0.28183 0.91464 0.94598 0.0
C849 C 0.27788 0.93999 0.9663 0.0
C850 C 0.28461 0.83908 0.87893 0.0
C851 C 0.29137 0.84343 0.84927 0.0
C852 C 0.27892 0.86357 0.90054 0.0
C853 C 0.27993 0.89279 0.89287 0.0
C854 C 0.28741 0.89676 0.86351 0.0
C855 C 0.29301 0.8724 0.84195 0.0
H856 H 0.1814 0.32399 0.97236 0.0
H857 H 0.13722 0.38655 0.90456 0.0
H858 H 0.21571 0.30859 0.93801 0.0
H859 H 0.17196 0.3716 0.87019 0.0
H860 H 0.23205 0.30499 0.80677 0.0
H861 H 0.19662 0.32482 0.83967 0.0
H862 H 0.24447 0.33072 0.91618 0.0
H863 H 0.2797 0.31078 0.88373 0.0
C864 C 0.17901 0.33449 0.9501 0.0
C865 C 0.15652 0.3564 0.94117 0.0
C866 C 0.19878 0.3259 0.9305 0.0
C867 C 0.1966 0.33892 0.90137 0.0
C868 C 0.17416 0.361 0.89241 0.0
C869 C 0.15436 0.36979 0.91219 0.0
C870 C 0.23499 0.31074 0.83055 0.0
C871 C 0.2588 0.30602 0.8426 0.0
C872 C 0.21467 0.32224 0.84936 0.0
C873 C 0.21776 0.3291 0.8806 0.0
C874 C 0.24148 0.32518 0.89234 0.0
C875 C 0.26171 0.31384 0.87362 0.0
H876 H 0.81683 0.1343 0.97982 0.0
H877 H 0.8583 0.0752 0.90767 0.0
H878 H 0.80416 0.17781 0.94541 0.0
H879 H 0.84672 0.11926 0.87359 0.0
H880 H 0.7981 0.1929 0.81036 0.0
H881 H 0.81077 0.15016 0.84594 0.0
H882 H 0.81761 0.21352 0.91888 0.0
H883 H 0.80416 0.25638 0.88356 0.0
C884 C 0.82343 0.13066 0.95666 0.0
C885 C 0.8383 0.10112 0.94639 0.0
C886 C 0.81637 0.15573 0.937 0.0
C887 C 0.82418 0.15199 0.9066 0.0
C888 C 0.83994 0.12278 0.89669 0.0
C889 C 0.84691 0.0976 0.91637 0.0
C890 C 0.802 0.19776 0.83409 0.0
C891 C 0.80005 0.22804 0.84414 0.0
C892 C 0.80956 0.17319 0.85441 0.0
C893 C 0.81551 0.17831 0.8852 0.0
C894 C 0.81296 0.20877 0.8954 0.0
C895 C 0.80522 0.23338 0.87513 0.0
H896 H 0.96237 0.66426 0.92638 0.0
H897 H 0.95124 0.7617 0.9436 0.0
H898 H 0.92973 0.6778 0.887 0.0
H899 H 0.91819 0.77517 0.90521 0.0
H900 H 0.87899 0.78891 0.81255 0.0
H901 H 0.91264 0.77272 0.85006 0.0
H902 H 0.88525 0.70174 0.88083 0.0
H903 H 0.85169 0.71759 0.84283 0.0
C904 C 0.95297 0.68854 0.92185 0.0
C905 C 0.95951 0.71184 0.93825 0.0
C906 C 0.93409 0.69631 0.89946 0.0
C907 C 0.92138 0.72758 0.89282 0.0
C908 C 0.9278 0.75084 0.9094 0.0
C909 C 0.94659 0.74309 0.93178 0.0
C910 C 0.88017 0.7697 0.82713 0.0
C911 C 0.86252 0.75465 0.82469 0.0
C912 C 0.89941 0.76055 0.84883 0.0
C913 C 0.90154 0.73612 0.8687 0.0
C914 C 0.88427 0.7205 0.86575 0.0
C915 C 0.86496 0.72968 0.84402 0.0
H916 H 0.13108 0.28627 0.1367 0.0
H917 H 0.16079 0.3367 0.07618 0.0
H918 H 0.16258 0.28613 0.17533 0.0
H919 H 0.19114 0.33872 0.1153 0.0
H920 H 0.2554 0.31973 0.18289 0.0
H921 H 0.22621 0.3157 0.14274 0.0
H922 H 0.17471 0.31509 0.21192 0.0
H923 H 0.20477 0.31681 0.25175 0.0
C924 C 0.14438 0.29734 0.13167 0.0
C925 C 0.14348 0.31132 0.10329 0.0
C926 C 0.16234 0.29768 0.15403 0.0
C927 C 0.17953 0.31278 0.14898 0.0
C928 C 0.17872 0.32634 0.12023 0.0
C929 C 0.16116 0.3253 0.09764 0.0
C930 C 0.23773 0.31899 0.1894 0.0
C931 C 0.23233 0.3188 0.22048 0.0
C932 C 0.22084 0.31674 0.16633 0.0
C933 C 0.1978 0.31497 0.17367 0.0
C934 C 0.19233 0.31555 0.20497 0.0
C935 C 0.20947 0.31699 0.22798 0.0
H936 H 0.07426 0.7653 0.01749 0.0
H937 H 0.04123 0.77391 0.92645 0.0
H938 H 0.11149 0.76997 0.99666 0.0
H939 H 0.07834 0.77847 0.9057 0.0
H940 H 0.14423 0.80339 0.87847 0.0
H941 H 0.1059 0.80936 0.90352 0.0
H942 H 0.14398 0.73508 0.96432 0.0
H943 H 0.18217 0.72861 0.93901 0.0
C944 C 0.07467 0.76896 0.99317 0.0
C945 C 0.05474 0.76911 0.97363 0.0
C946 C 0.09613 0.77131 0.98117 0.0
C947 C 0.09805 0.77426 0.94943 0.0
C948 C 0.07752 0.77641 0.93025 0.0
C949 C 0.05621 0.77373 0.94217 0.0
C950 C 0.14448 0.78823 0.89712 0.0
C951 C 0.16644 0.76534 0.90645 0.0
C952 C 0.12247 0.79177 0.91158 0.0
C953 C 0.12179 0.77269 0.93594 0.0
C954 C 0.14384 0.75051 0.94596 0.0
C955 C 0.16582 0.74682 0.93138 0.0
H956 H 0.31293 0.14318 1.00569 0.0
H957 H 0.32299 0.0618 0.94762 0.0
H958 H 0.32024 0.17123 0.96246 0.0
H959 H 0.32979 0.09029 0.9038 0.0
H960 H 0.30194 0.17296 0.83165 0.0
H961 H 0.30165 0.13833 0.8733 0.0
H962 H 0.35362 0.17066 0.92538 0.0
H963 H 0.35427 0.20481 0.88379 0.0
C964 C 0.31719 0.13107 0.98376 0.0
C965 C 0.31765 0.10013 0.98023 0.0
C966 C 0.32135 0.14719 0.95893 0.0
C967 C 0.3255 0.13311 0.92956 0.0
C968 C 0.32653 0.10187 0.92608 0.0
C969 C 0.32293 0.08542 0.95123 0.0
C970 C 0.31355 0.17242 0.85181 0.0
C971 C 0.3281 0.19182 0.85423 0.0
C972 C 0.31347 0.15241 0.87563 0.0
C973 C 0.32759 0.15172 0.90276 0.0
C974 C 0.34245 0.17068 0.90491 0.0
C975 C 0.34287 0.19022 0.88093 0.0
H976 H 0.0439 0.29273 1.00668 0.0
H977 H 0.05754 0.31813 0.91641 0.0
H978 H 1.00584 0.28574 0.98705 0.0
H979 H 0.01955 0.31203 0.89709 0.0
H980 H 0.95519 0.28545 0.8636 0.0
H981 H 0.99623 0.27914 0.88406 0.0
H982 H 0.96596 0.31921 0.97083 0.0
H983 H 0.92507 0.32404 0.95088 0.0
C984 C 0.03909 0.29616 0.98254 0.0
C985 C 0.05378 0.3061 0.96317 0.0
C986 C 0.01709 0.29255 0.97133 0.0
C987 C 0.00935 0.29864 0.94048 0.0
C988 C 0.02486 0.3068 0.92085 0.0
C989 C 0.04671 0.31046 0.93202 0.0
C990 C 0.95727 0.29238 0.88723 0.0
C991 C 0.93664 0.30556 0.90541 0.0
C992 C 0.98087 0.28905 0.89891 0.0
C993 C 0.98455 0.29887 0.9291 0.0
C994 C 0.96399 0.3111 0.94759 0.0
C995 C 0.94041 0.31435 0.93594 0.0
H996 H 0.78214 1.00556 0.92934 0.0
H997 H 0.81557 0.92312 0.98174 0.0
H998 H 0.77484 0.97319 0.88606 0.0
H999 H 0.80838 0.89111 0.93927 0.0
H1000 H 0.77775 0.84037 0.86859 0.0
H1001 H 0.77679 0.87788 0.90971 0.0
H1002 H 0.80027 0.93345 0.84775 0.0
H1003 H 0.80106 0.89568 0.80599 0.0
C1004 C 0.78722 0.98069 0.93196 0.0
C1005 C 0.79908 0.96695 0.95917 0.0
C1006 C 0.78341 0.96207 0.90703 0.0
C1007 C 0.79102 0.9294 0.90902 0.0
C1008 C 0.80193 0.91608 0.93682 0.0
C1009 C 0.80604 0.93449 0.9613 0.0
C1010 C 0.78258 0.86062 0.86342 0.0
C1011 C 0.78976 0.8646 0.83377 0.0
C1012 C 0.78206 0.88222 0.88721 0.0
C1013 C 0.7887 0.90867 0.88234 0.0
C1014 C 0.7949 0.91349 0.8524 0.0
C1015 C 0.79547 0.8917 0.82844 0.0
H1016 H 0.95775 0.77967 0.09755 0.0
H1017 H 0.97392 0.68079 0.10587 0.0
H1018 H 0.9272 0.78896 0.13754 0.0
H1019 H 0.94433 0.6899 0.14582 0.0
H1020 H 0.87074 0.71419 0.18924 0.0
H1021 H 0.90124 0.70773 0.15064 0.0
H1022 H 0.92092 0.78387 0.19198 0.0
H1023 H 0.88973 0.79094 0.2304 0.0
C1024 C 0.95495 0.75997 0.10801 0.0
C1025 C 0.96812 0.72952 0.0982 0.0
C1026 C 0.93752 0.76525 0.13103 0.0
C1027 C 0.933 0.74017 0.14473 0.0
C1028 C 0.94676 0.70983 0.13536 0.0
C1029 C 0.96392 0.70461 0.11244 0.0
C1030 C 0.88161 0.72949 0.19034 0.0
C1031 C 0.87782 0.75292 0.21321 0.0
C1032 C 0.89925 0.72572 0.16816 0.0
C1033 C 0.91378 0.74512 0.1682 0.0
C1034 C 0.90997 0.76865 0.19102 0.0
C1035 C 0.89222 0.7725 0.21326 0.0
H1036 H 0.28542 0.93964 0.07329 0.0
H1037 H 0.3394 0.9743 0.11741 0.0
H1038 H 0.29408 0.89888 0.11086 0.0
H1039 H 0.34804 0.93331 0.15567 0.0
H1040 H 0.32312 0.88828 0.23951 0.0
H1041 H 0.32356 0.92324 0.19858 0.0
H1042 H 0.32514 0.8512 0.13123 0.0
H1043 H 0.32476 0.81609 0.17221 0.0
C1044 C 0.29957 0.93809 0.09073 0.0
C1045 C 0.3118 0.96012 0.09229 0.0
C1046 C 0.30459 0.91463 0.11227 0.0
C1047 C 0.32169 0.91278 0.13646 0.0
C1048 C 0.33464 0.93416 0.13744 0.0
C1049 C 0.32992 0.95743 0.11538 0.0
C1050 C 0.3238 0.87972 0.216 0.0
C1051 C 0.32371 0.84934 0.20925 0.0
C1052 C 0.32427 0.89975 0.1925 0.0
C1053 C 0.32436 0.89014 0.16153 0.0
C1054 C 0.32491 0.85948 0.1548 0.0
C1055 C 0.32476 0.83929 0.17833 0.0
H1056 H 0.84667 0.10401 0.08692 0.0
H1057 H 0.77142 0.10818 0.09368 0.0
H1058 H 0.84041 0.14568 0.1244 0.0
H1059 H 0.76488 0.15132 0.13171 0.0
H1060 H 0.77682 0.20133 0.22626 0.0
H1061 H 0.77688 0.16301 0.18541 0.0
H1062 H 0.82092 0.20012 0.13077 0.0
H1063 H 0.82137 0.23754 0.17152 0.0
C1064 C 0.82857 0.11401 0.09622 0.0
C1065 C 0.80956 0.10247 0.08708 0.0
C1066 C 0.82492 0.13834 0.11774 0.0
C1067 C 0.80207 0.15233 0.13112 0.0
C1068 C 0.78279 0.14108 0.12199 0.0
C1069 C 0.78645 0.11652 0.10002 0.0
C1070 C 0.78634 0.20146 0.20541 0.0
C1071 C 0.79939 0.22238 0.20252 0.0
C1072 C 0.78625 0.17954 0.18186 0.0
C1073 C 0.79919 0.178 0.15479 0.0
C1074 C 0.81121 0.19996 0.15147 0.0
C1075 C 0.8114 0.22163 0.17493 0.0
H1076 H 0.57474 0.66708 0.88161 0.0
H1077 H 0.62773 0.57948 0.85421 0.0
H1078 H 0.60386 0.6935 0.87129 0.0
H1079 H 0.65689 0.60586 0.84396 0.0
H1080 H 0.69435 0.66657 0.7999 0.0
H1081 H 0.66351 0.64209 0.80833 0.0
H1082 H 0.64224 0.69791 0.89104 0.0
H1083 H 0.67234 0.72314 0.88199 0.0
C1084 C 0.59269 0.65339 0.87375 0.0
C1085 C 0.59888 0.62114 0.86874 0.0
C1086 C 0.60938 0.66855 0.86774 0.0
C1087 C 0.63267 0.65183 0.85665 0.0
C1088 C 0.63893 0.61954 0.85191 0.0
C1089 C 0.62224 0.60439 0.85788 0.0
C1090 C 0.68282 0.67394 0.8196 0.0
C1091 C 0.68589 0.69668 0.84035 0.0
C1092 C 0.66536 0.65965 0.82465 0.0
C1093 C 0.65053 0.66788 0.8505 0.0
C1094 C 0.65322 0.69116 0.87081 0.0
C1095 C 0.67067 0.7054 0.86578 0.0
H1096 H 0.45937 0.55579 0.78879 0.0
H1097 H 0.49283 0.6253 0.81365 0.0
H1098 H 0.41964 0.59639 0.78336 0.0
H1099 H 0.45313 0.66567 0.80924 0.0
H1100 H 0.38191 0.73467 0.77489 0.0
H1101 H 0.42142 0.69385 0.7756 0.0
H1102 H 0.38867 0.63141 0.81413 0.0
H1103 H 0.34872 0.67222 0.81242 0.0
C1104 C 0.45832 0.57975 0.79283 0.0
C1105 C 0.47937 0.5872 0.80164 0.0
C1106 C 0.43544 0.60305 0.79007 0.0
C1107 C 0.43298 0.63442 0.79617 0.0
C1108 C 0.45422 0.64189 0.80401 0.0
C1109 C 0.47709 0.61864 0.80659 0.0
C1110 C 0.38306 0.71231 0.78369 0.0
C1111 C 0.36205 0.70688 0.79382 0.0
C1112 C 0.40585 0.68882 0.78416 0.0
C1113 C 0.40842 0.6592 0.795 0.0
C1114 C 0.3874 0.65374 0.80519 0.0
C1115 C 0.36449 0.67726 0.80449 0.0
H1116 H 0.50917 0.45477 0.93056 0.0
H1117 H 0.49869 0.47084 0.83336 0.0
H1118 H 0.48582 0.41885 0.92597 0.0
H1119 H 0.4752 0.43559 0.82877 0.0
H1120 H 0.44955 0.35255 0.82435 0.0
H1121 H 0.47731 0.38256 0.83071 0.0
H1122 H 0.44431 0.42045 0.91684 0.0
H1123 H 0.41751 0.38916 0.91129 0.0
C1124 C 0.50191 0.4506 0.90825 0.0
C1125 C 0.50589 0.46556 0.88235 0.0
C1126 C 0.48848 0.43011 0.90559 0.0
C1127 C 0.47859 0.42431 0.87698 0.0
C1128 C 0.48291 0.43897 0.85105 0.0
C1129 C 0.49643 0.45926 0.85369 0.0
C1130 C 0.44848 0.36688 0.84489 0.0
C1131 C 0.43118 0.36854 0.86721 0.0
C1132 C 0.46422 0.38439 0.84838 0.0
C1133 C 0.46298 0.40409 0.87422 0.0
C1134 C 0.44598 0.40531 0.8968 0.0
C1135 C 0.43032 0.3877 0.89338 0.0
H1136 H 0.63446 0.47723 0.87992 0.0
H1137 H 0.6076 0.47485 0.78651 0.0
H1138 H 0.6738 0.44046 0.86619 0.0
H1139 H 0.64759 0.43773 0.77257 0.0
H1140 H 0.71193 0.34279 0.77386 0.0
H1141 H 0.67277 0.383 0.78305 0.0
H1142 H 0.70982 0.43616 0.83668 0.0
H1143 H 0.74907 0.39574 0.82782 0.0
C1144 C 0.63695 0.46896 0.85632 0.0
C1145 C 0.61775 0.47897 0.83433 0.0
C1146 C 0.65969 0.44799 0.8484 0.0
C1147 C 0.66397 0.43621 0.81826 0.0
C1148 C 0.64484 0.44625 0.79607 0.0
C1149 C 0.62198 0.46758 0.80399 0.0
C1150 C 0.71181 0.36306 0.78758 0.0
C1151 C 0.73374 0.36579 0.80037 0.0
C1152 C 0.68931 0.38628 0.79259 0.0
C1153 C 0.6881 0.41279 0.81067 0.0
C1154 C 0.71006 0.41585 0.82294 0.0
C1155 C 0.7326 0.39269 0.81781 0.0
H1156 H 0.62218 0.43748 0.18967 0.0
H1157 H 0.62119 0.47347 0.28262 0.0
H1158 H 0.66059 0.39693 0.2008 0.0
H1159 H 0.66035 0.43245 0.29377 0.0
H1160 H 0.72165 0.33538 0.30543 0.0
H1161 H 0.68109 0.37439 0.29793 0.0
H1162 H 0.70259 0.39584 0.21005 0.0
H1163 H 0.74269 0.357 0.21723 0.0
C1164 C 0.63013 0.43676 0.2126 0.0
C1165 C 0.61865 0.45905 0.23517 0.0
C1166 C 0.6523 0.41346 0.21893 0.0
C1167 C 0.6638 0.41167 0.24802 0.0
C1168 C 0.65194 0.43317 0.27111 0.0
C1169 C 0.62956 0.4567 0.26473 0.0
C1170 C 0.71766 0.34831 0.28443 0.0
C1171 C 0.73548 0.34283 0.26186 0.0
C1172 C 0.69447 0.37084 0.28028 0.0
C1173 C 0.68852 0.38817 0.25334 0.0
C1174 C 0.70637 0.38262 0.23088 0.0
C1175 C 0.72948 0.36034 0.23507 0.0
H1176 H 0.64065 0.55724 0.21163 0.0
H1177 H 0.59427 0.63946 0.16624 0.0
H1178 H 0.6735 0.57962 0.216 0.0
H1179 H 0.62739 0.66132 0.16961 0.0
H1180 H 0.68115 0.70575 0.21343 0.0
H1181 H 0.64881 0.6825 0.20886 0.0
H1182 H 0.70228 0.59389 0.18528 0.0
H1183 H 0.73476 0.61694 0.19086 0.0
C1184 C 0.63745 0.58003 0.20249 0.0
C1185 C 0.61471 0.59657 0.18872 0.0
C1186 C 0.6564 0.59274 0.20472 0.0
C1187 C 0.65306 0.62234 0.19328 0.0
C1188 C 0.63047 0.63865 0.17905 0.0
C1189 C 0.61155 0.62592 0.17676 0.0
C1190 C 0.68605 0.68123 0.20762 0.0
C1191 C 0.71056 0.66321 0.20256 0.0
C1192 C 0.66746 0.66798 0.20461 0.0
C1193 C 0.67291 0.63635 0.19655 0.0
C1194 C 0.69745 0.61826 0.19173 0.0
C1195 C 0.71604 0.63154 0.19465 0.0
H1196 H 0.52068 0.65824 0.26404 0.0
H1197 H 0.48949 0.58557 0.27584 0.0
H1198 H 0.48053 0.69728 0.27059 0.0
H1199 H 0.44943 0.62469 0.28313 0.0
H1200 H 0.37896 0.69731 0.24879 0.0
H1201 H 0.41979 0.65943 0.24946 0.0
H1202 H 0.44654 0.72292 0.30388 0.0
H1203 H 0.40538 0.76144 0.30283 0.0
C1204 C 0.50538 0.65055 0.2687 0.0
C1205 C 0.50836 0.61866 0.26909 0.0
C1206 C 0.48231 0.67303 0.27256 0.0
C1207 C 0.46159 0.66421 0.27691 0.0
C1208 C 0.46486 0.63235 0.27912 0.0
C1209 C 0.48792 0.60987 0.27524 0.0
C1210 C 0.39346 0.7034 0.26092 0.0
C1211 C 0.38875 0.7326 0.27571 0.0
C1212 C 0.41694 0.68142 0.26156 0.0
C1213 C 0.43651 0.68786 0.27704 0.0
C1214 C 0.43194 0.71719 0.29162 0.0
C1215 C 0.40832 0.73929 0.29101 0.0
H1216 H 0.49874 0.45217 0.15588 0.0
H1217 H 0.47819 0.50321 0.24135 0.0
H1218 H 0.46805 0.42727 0.1625 0.0
H1219 H 0.44753 0.47819 0.248 0.0
H1220 H 0.41344 0.40169 0.26391 0.0
H1221 H 0.44383 0.4275 0.25818 0.0
H1222 H 0.42378 0.44 0.16203 0.0
H1223 H 0.39343 0.41441 0.16774 0.0
C1224 C 0.48757 0.45832 0.17596 0.0
C1225 C 0.491 0.47978 0.19804 0.0
C1226 C 0.46994 0.444 0.17977 0.0
C1227 C 0.45527 0.45076 0.20577 0.0
C1228 C 0.45874 0.47212 0.22792 0.0
C1229 C 0.47636 0.48648 0.22409 0.0
C1230 C 0.41534 0.41023 0.24163 0.0
C1231 C 0.40108 0.40575 0.21625 0.0
C1232 C 0.43278 0.42501 0.23833 0.0
C1233 C 0.43637 0.43565 0.20959 0.0
C1234 C 0.42186 0.43156 0.18436 0.0
C1235 C 0.40444 0.41685 0.18765 0.0
H1236 H 0.80358 0.5791 0.60965 0.0
H1237 H 0.84305 0.6264 0.55977 0.0
H1238 H 0.79575 0.61975 0.65004 0.0
H1239 H 0.83451 0.6674 0.59889 0.0
H1240 H 0.844 0.71507 0.68825 0.0
H1241 H 0.84806 0.67569 0.64801 0.0
H1242 H 0.77671 0.67158 0.66824 0.0
H1243 H 0.77312 0.71031 0.70944 0.0
C1244 C 0.80991 0.59866 0.60685 0.0
C1245 C 0.82396 0.59946 0.58149 0.0
C1246 C 0.80554 0.622 0.6301 0.0
C1247 C 0.81496 0.64682 0.62838 0.0
C1248 C 0.82764 0.64835 0.60188 0.0
C1249 C 0.83225 0.62496 0.57907 0.0
C1250 C 0.82917 0.70577 0.68425 0.0
C1251 C 0.80824 0.71605 0.70227 0.0
C1252 C 0.83137 0.68323 0.66081 0.0
C1253 C 0.81257 0.6704 0.65423 0.0
C1254 C 0.79171 0.68049 0.67254 0.0
C1255 C 0.78961 0.7029 0.69621 0.0
H1256 H 0.55161 0.72972 0.61337 0.0
H1257 H 0.51282 0.7998 0.54873 0.0
H1258 H 0.51335 0.73666 0.63914 0.0
H1259 H 0.47463 0.80649 0.57407 0.0
H1260 H 0.41687 0.83767 0.64691 0.0
H1261 H 0.45485 0.82802 0.62029 0.0
H1262 H 0.47384 0.72972 0.63565 0.0
H1263 H 0.43619 0.73962 0.66375 0.0
C1264 C 0.53489 0.7463 0.60439 0.0
C1265 C 0.5354 0.76441 0.57914 0.0
C1266 C 0.51289 0.75028 0.61915 0.0
C1267 C 0.49081 0.77239 0.60895 0.0
C1268 C 0.49129 0.78979 0.58311 0.0
C1269 C 0.51324 0.78591 0.56849 0.0
C1270 C 0.42921 0.81399 0.64497 0.0
C1271 C 0.42339 0.78948 0.65776 0.0
C1272 C 0.45093 0.80838 0.62924 0.0
C1273 C 0.46751 0.77804 0.6256 0.0
C1274 C 0.46167 0.75343 0.63821 0.0
C1275 C 0.4399 0.75907 0.65404 0.0
H1276 H 0.31428 0.4179 0.58558 0.0
H1277 H 0.34795 0.46074 0.65509 0.0
H1278 H 0.30983 0.38166 0.62298 0.0
H1279 H 0.34193 0.42663 0.6933 0.0
H1280 H 0.35017 0.34412 0.75204 0.0
H1281 H 0.35406 0.3799 0.71435 0.0
H1282 H 0.29185 0.36896 0.66307 0.0
H1283 H 0.28949 0.33113 0.69987 0.0
C1284 C 0.32036 0.41981 0.60909 0.0
C1285 C 0.33166 0.44195 0.61734 0.0
C1286 C 0.31767 0.39914 0.63081 0.0
C1287 C 0.3256 0.40056 0.66172 0.0
C1288 C 0.33622 0.42362 0.66987 0.0
C1289 C 0.33952 0.44359 0.64797 0.0
C1290 C 0.33723 0.34952 0.73278 0.0
C1291 C 0.31945 0.3348 0.72913 0.0
C1292 C 0.33931 0.37039 0.71101 0.0
C1293 C 0.32321 0.37804 0.68516 0.0
C1294 C 0.30506 0.36358 0.68198 0.0
C1295 C 0.30346 0.342 0.70337 0.0
H1296 H 0.54438 0.2984 0.59251 0.0
H1297 H 0.59702 0.22286 0.54443 0.0
H1298 H 0.57824 0.3125 0.61778 0.0
H1299 H 0.63037 0.23698 0.56885 0.0
H1300 H 0.68594 0.28093 0.59888 0.0
H1301 H 0.64896 0.27942 0.57131 0.0
H1302 H 0.61287 0.2853 0.65712 0.0
H1303 H 0.65011 0.28614 0.68495 0.0
C1304 C 0.5631 0.28531 0.58687 0.0
C1305 C 0.56811 0.25957 0.56653 0.0
C1306 C 0.58245 0.29318 0.60145 0.0
C1307 C 0.60702 0.27588 0.59528 0.0
C1308 C 0.61174 0.25103 0.57391 0.0
C1309 C 0.5926 0.24285 0.55999 0.0
C1310 C 0.67016 0.28199 0.61198 0.0
C1311 C 0.6713 0.28308 0.64426 0.0
C1312 C 0.64888 0.28131 0.59612 0.0
C1313 C 0.62801 0.28196 0.61201 0.0
C1314 C 0.62855 0.28501 0.64418 0.0
C1315 C 0.64996 0.28548 0.66013 0.0
H1316 H 0.86151 0.40604 0.48078 0.0
H1317 H 0.79711 0.47993 0.45067 0.0
H1318 H 0.85317 0.37102 0.44236 0.0
H1319 H 0.7884 0.44426 0.41186 0.0
H1320 H 0.80217 0.38216 0.32205 0.0
H1321 H 0.80507 0.41791 0.36369 0.0
H1322 H 0.82716 0.34181 0.42642 0.0
H1323 H 0.82464 0.30593 0.3846 0.0
C1324 C 0.84528 0.41478 0.46616 0.0
C1325 C 0.83004 0.44598 0.46887 0.0
C1326 C 0.84039 0.39447 0.44412 0.0
C1327 C 0.82011 0.40457 0.42374 0.0
C1328 C 0.80435 0.43564 0.42691 0.0
C1329 C 0.80917 0.45606 0.44936 0.0
C1330 C 0.8076 0.37297 0.34473 0.0
C1331 C 0.81341 0.34093 0.34975 0.0
C1332 C 0.80904 0.39364 0.36877 0.0
C1333 C 0.81642 0.38296 0.39862 0.0
C1334 C 0.82174 0.35099 0.40373 0.0
C1335 C 0.82024 0.33031 0.3797 0.0
H1336 H 0.64311 0.77643 0.38939 0.0
H1337 H 0.6902 0.78048 0.46696 0.0
H1338 H 0.67334 0.78174 0.35473 0.0
H1339 H 0.72149 0.78377 0.43245 0.0
H1340 H 0.76811 0.81085 0.36494 0.0
H1341 H 0.73563 0.81143 0.39921 0.0
H1342 H 0.70951 0.75682 0.33217 0.0
H1343 H 0.74085 0.75822 0.29753 0.0
C1344 C 0.66017 0.77807 0.39896 0.0
C1345 C 0.66436 0.77787 0.43085 0.0
C1346 C 0.67771 0.78091 0.37907 0.0
C1347 C 0.70031 0.78285 0.39042 0.0
C1348 C 0.70432 0.78287 0.42254 0.0
C1349 C 0.68646 0.78077 0.44247 0.0
C1350 C 0.75519 0.79932 0.35746 0.0
C1351 C 0.75701 0.7847 0.32835 0.0
C1352 C 0.73663 0.79933 0.37729 0.0
C1353 C 0.71965 0.7841 0.36884 0.0
C1354 C 0.72161 0.76952 0.33957 0.0
C1355 C 0.7398 0.77014 0.31957 0.0
H1356 H 0.36936 0.60183 0.45139 0.0
H1357 H 0.29225 0.61346 0.44458 0.0
H1358 H 0.36302 0.64411 0.41614 0.0
H1359 H 0.28576 0.65658 0.41008 0.0
H1360 H 0.2882 0.71155 0.32332 0.0
H1361 H 0.29312 0.66948 0.35886 0.0
H1362 H 0.3457 0.69927 0.41281 0.0
H1363 H 0.34113 0.74077 0.37716 0.0
C1364 C 0.35102 0.6133 0.44243 0.0
C1365 C 0.33138 0.60391 0.45107 0.0
C1366 C 0.3473 0.63795 0.42237 0.0
C1367 C 0.32381 0.65411 0.41017 0.0
C1368 C 0.30415 0.64466 0.41869 0.0
C1369 C 0.30786 0.62003 0.43886 0.0
C1370 C 0.3007 0.70927 0.34287 0.0
C1371 C 0.31428 0.7297 0.34717 0.0
C1372 C 0.30348 0.68512 0.36339 0.0
C1373 C 0.31998 0.68061 0.38878 0.0
C1374 C 0.33317 0.70146 0.39331 0.0
C1375 C 0.33037 0.72556 0.37288 0.0
H1376 H 0.43047 0.22508 0.47665 0.0
H1377 H 0.45752 0.29604 0.44516 0.0
H1378 H 0.39672 0.24056 0.43939 0.0
H1379 H 0.42328 0.31171 0.40731 0.0
H1380 H 0.37573 0.29705 0.32006 0.0
H1381 H 0.40896 0.28811 0.35885 0.0
H1382 H 0.35915 0.28475 0.42873 0.0
H1383 H 0.32619 0.29345 0.39039 0.0
C1384 C 0.42908 0.24427 0.46192 0.0
C1385 C 0.44671 0.25935 0.46396 0.0
C1386 C 0.40961 0.25323 0.44057 0.0
C1387 C 0.40724 0.27738 0.42031 0.0
C1388 C 0.42468 0.29287 0.42248 0.0
C1389 C 0.44413 0.28412 0.44432 0.0
C1390 C 0.37187 0.29447 0.34372 0.0
C1391 C 0.34826 0.29567 0.35194 0.0
C1392 C 0.39087 0.28963 0.36598 0.0
C1393 C 0.38675 0.28557 0.39689 0.0
C1394 C 0.36305 0.28742 0.40511 0.0
C1395 C 0.3441 0.29247 0.38302 0.0
H1396 H 0.69001 0.77265 0.56891 0.0
H1397 H 0.62611 0.8375 0.61066 0.0
H1398 H 0.71574 0.78222 0.61085 0.0
H1399 H 0.65211 0.84663 0.65333 0.0
H1400 H 0.71192 0.8077 0.73768 0.0
H1401 H 0.68128 0.80928 0.69684 0.0
H1402 H 0.72708 0.83061 0.63139 0.0
H1403 H 0.75739 0.82957 0.67172 0.0
C1404 C 0.68147 0.78906 0.58703 0.0
C1405 C 0.65606 0.80438 0.58647 0.0
C1406 C 0.69623 0.79461 0.61098 0.0
C1407 C 0.6859 0.81521 0.63527 0.0
C1408 C 0.66048 0.83062 0.63486 0.0
C1409 C 0.64568 0.82554 0.61042 0.0
C1410 C 0.71518 0.81349 0.71474 0.0
C1411 C 0.73732 0.8181 0.708 0.0
C1412 C 0.69762 0.81442 0.6914 0.0
C1413 C 0.70201 0.8197 0.66095 0.0
C1414 C 0.72338 0.82615 0.65462 0.0
C1415 C 0.74074 0.82556 0.67784 0.0
H1416 H 0.58433 0.17454 0.40688 0.0
H1417 H 0.59827 0.22814 0.48449 0.0
H1418 H 0.62172 0.17597 0.38337 0.0
H1419 H 0.63492 0.23033 0.46082 0.0
H1420 H 0.71205 0.20097 0.42661 0.0
H1421 H 0.67566 0.19559 0.44847 0.0
H1422 H 0.63797 0.21425 0.36035 0.0
H1423 H 0.67483 0.21868 0.33811 0.0
C1424 C 0.59538 0.18651 0.41893 0.0
C1425 C 0.58825 0.20132 0.44748 0.0
C1426 C 0.61663 0.1876 0.40536 0.0
C1427 C 0.63129 0.20325 0.42024 0.0
C1428 C 0.62421 0.2178 0.44889 0.0
C1429 C 0.603 0.21684 0.46231 0.0
C1430 C 0.69615 0.20349 0.41174 0.0
C1431 C 0.69638 0.21019 0.38058 0.0
C1432 C 0.67519 0.20073 0.42437 0.0
C1433 C 0.65388 0.20463 0.40619 0.0
C1434 C 0.65416 0.21088 0.3749 0.0
C1435 C 0.67517 0.21375 0.36225 0.0
H1436 H 0.82881 0.57851 0.42691 0.0
H1437 H 0.9037 0.57593 0.44109 0.0
H1438 H 0.8227 0.61688 0.38775 0.0
H1439 H 0.89791 0.61351 0.40051 0.0
H1440 H 0.866 0.71051 0.35598 0.0
H1441 H 0.87641 0.66807 0.39195 0.0
H1442 H 0.83333 0.62363 0.33688 0.0
H1443 H 0.82233 0.66644 0.30152 0.0
C1444 C 0.84403 0.58605 0.42164 0.0
C1445 C 0.86668 0.57434 0.43747 0.0
C1446 C 0.84063 0.60777 0.39876 0.0
C1447 C 0.85983 0.61826 0.39087 0.0
C1448 C 0.88267 0.60613 0.40623 0.0
C1449 C 0.88607 0.58436 0.42927 0.0
C1450 C 0.85895 0.69153 0.3514 0.0
C1451 C 0.8431 0.69204 0.32608 0.0
C1452 C 0.86503 0.6671 0.37195 0.0
C1453 C 0.85551 0.64258 0.36748 0.0
C1454 C 0.84055 0.64248 0.34138 0.0
C1455 C 0.83432 0.66698 0.32101 0.0
H1456 H 0.52592 0.85091 0.5116 0.0
H1457 H 0.55122 0.8578 0.42108 0.0
H1458 H 0.48536 0.85676 0.49011 0.0
H1459 H 0.51034 0.86468 0.39968 0.0
H1460 H 0.44868 0.82735 0.3687 0.0
H1461 H 0.48714 0.83019 0.39053 0.0
H1462 H 0.44837 0.88841 0.46501 0.0
H1463 H 0.40992 0.88428 0.44391 0.0
C1464 C 0.5227 0.85453 0.48721 0.0
C1465 C 0.54198 0.85343 0.46801 0.0
C1466 C 0.49934 0.85795 0.47486 0.0
C1467 C 0.49465 0.86061 0.44305 0.0
C1468 C 0.51347 0.86187 0.42418 0.0
C1469 C 0.53687 0.85826 0.4365 0.0
C1470 C 0.44834 0.84047 0.38993 0.0
C1471 C 0.42617 0.8554 0.40462 0.0
C1472 C 0.47039 0.84256 0.40219 0.0
C1473 C 0.47089 0.85976 0.42943 0.0
C1474 C 0.4487 0.87483 0.44409 0.0
C1475 C 0.42662 0.87267 0.43184 0.0
H1476 H 0.32912 0.46164 0.43966 0.0
H1477 H 0.25551 0.49683 0.47339 0.0
H1478 H 0.31465 0.43999 0.39472 0.0
H1479 H 0.24078 0.47459 0.42749 0.0
H1480 H 0.2467 0.38037 0.36732 0.0
H1481 H 0.24819 0.41854 0.40721 0.0
H1482 H 0.28857 0.45645 0.34767 0.0
H1483 H 0.28763 0.4179 0.30807 0.0
C1484 C 0.30974 0.46488 0.43742 0.0
C1485 C 0.29347 0.48074 0.46021 0.0
C1486 C 0.30138 0.4528 0.41135 0.0
C1487 C 0.27652 0.456 0.40735 0.0
C1488 C 0.26003 0.47201 0.42998 0.0
C1489 C 0.26843 0.48464 0.45615 0.0
C1490 C 0.25517 0.39752 0.36234 0.0
C1491 C 0.26762 0.39567 0.33489 0.0
C1492 C 0.25592 0.41947 0.38519 0.0
C1493 C 0.26898 0.43994 0.38074 0.0
C1494 C 0.27881 0.44046 0.35189 0.0
C1495 C 0.27827 0.41841 0.32923 0.0
H1496 H 0.46677 0.16008 0.60862 0.0
H1497 H 0.46226 0.25608 0.62154 0.0
H1498 H 0.43944 0.16554 0.65126 0.0
H1499 H 0.43431 0.26183 0.66324 0.0
H1500 H 0.40364 0.25619 0.75511 0.0
H1501 H 0.4338 0.24583 0.71532 0.0
H1502 H 0.39671 0.19097 0.6643 0.0
H1503 H 0.36667 0.20084 0.70447 0.0
C1504 C 0.46003 0.18232 0.62055 0.0
C1505 C 0.46678 0.20763 0.61154 0.0
C1506 C 0.44415 0.18553 0.64482 0.0
C1507 C 0.4347 0.2141 0.66078 0.0
C1508 C 0.44149 0.23936 0.65179 0.0
C1509 C 0.4573 0.23617 0.62753 0.0
C1510 C 0.40202 0.2416 0.73561 0.0
C1511 C 0.38259 0.22949 0.73299 0.0
C1512 C 0.41925 0.23585 0.71264 0.0
C1513 C 0.41753 0.2179 0.68638 0.0
C1514 C 0.39869 0.20474 0.6843 0.0
C1515 C 0.38142 0.21046 0.70734 0.0
H1516 H 0.84378 0.41199 0.58017 0.0
H1517 H 0.87712 0.45046 0.65413 0.0
H1518 H 0.83224 0.38009 0.61638 0.0
H1519 H 0.8653 0.41896 0.69055 0.0
H1520 H 0.8584 0.33837 0.7439 0.0
H1521 H 0.87253 0.36678 0.70681 0.0
H1522 H 0.80345 0.38725 0.65665 0.0
H1523 H 0.78953 0.35805 0.69333 0.0
C1524 C 0.84864 0.41358 0.60421 0.0
C1525 C 0.86124 0.43382 0.61435 0.0
C1526 C 0.84194 0.39543 0.62498 0.0
C1527 C 0.84759 0.39721 0.65643 0.0
C1528 C 0.86087 0.41677 0.66645 0.0
C1529 C 0.86769 0.43481 0.6456 0.0
C1530 C 0.84618 0.34892 0.72497 0.0
C1531 C 0.82279 0.34596 0.7216 0.0
C1532 C 0.85428 0.36534 0.70376 0.0
C1533 C 0.83915 0.3793 0.67874 0.0
C1534 C 0.81573 0.37636 0.67539 0.0
C1535 C 0.80767 0.3598 0.69654 0.0
H1536 H 0.33607 0.61004 0.59336 0.0
H1537 H 0.2628 0.60562 0.59766 0.0
H1538 H 0.32577 0.65348 0.62908 0.0
H1539 H 0.25218 0.6504 0.63385 0.0
H1540 H 0.26446 0.69779 0.73074 0.0
H1541 H 0.26452 0.66113 0.68836 0.0
H1542 H 0.30079 0.70782 0.63211 0.0
H1543 H 0.30155 0.74343 0.67455 0.0
C1544 C 0.31759 0.61855 0.60175 0.0
C1545 C 0.30026 0.60428 0.59277 0.0
C1546 C 0.31161 0.64379 0.62206 0.0
C1547 C 0.28808 0.65563 0.63401 0.0
C1548 C 0.27047 0.6417 0.62492 0.0
C1549 C 0.27649 0.61624 0.6042 0.0
C1550 C 0.27206 0.70042 0.70911 0.0
C1551 C 0.28357 0.72285 0.70608 0.0
C1552 C 0.27193 0.67963 0.68481 0.0
C1553 C 0.28306 0.6813 0.65715 0.0
C1554 C 0.2926 0.70552 0.65343 0.0
C1555 C 0.29308 0.72587 0.67772 0.0
loop_
_geom_bond_atom_site_label_1
_geom_bond_atom_site_label_2
_geom_bond_distance
_geom_bond_site_symmetry_2
_ccdc_geom_bond_type
Cu0 N1 1.999 . S
Cu0 O6 1.974 . S
Cu0 N11 1.985 . S
Cu0 O20 1.959 . S
N1 Cu0 1.999 . S
N1 C3 1.263 . S
N1 C5 1.389 . S
N2 C3 1.358 . S
N2 C4 1.400 . S
C3 N1 1.263 . S
C3 N2 1.358 . S
C3 H9 0.930 . S
C4 N2 1.400 . S
C4 C5 1.351 . S
C4 H21 0.930 . S
C5 N1 1.389 . S
C5 C4 1.351 . S
C5 H10 0.930 . S
O6 Cu0 1.974 . S
O6 C16 1.282 1_545 S
C7 O8 1.261 . S
C7 O20 1.251 . S
O8 C7 1.261 . S
H9 C3 0.930 . S
H10 C5 0.930 . S
N11 Cu0 1.985 . S
N11 C13 1.335 . S
N11 C14 1.390 1_545 S
N12 C13 1.345 1_565 S
N12 C15 1.336 . S
C13 N11 1.335 . S
C13 N12 1.345 1_545 S
C13 H18 0.932 1_455 S
C14 N11 1.390 1_565 S
C14 C15 1.346 . S
C14 H19 0.930 . S
C15 N12 1.336 . S
C15 C14 1.346 . S
C15 H22 0.929 . S
C16 O6 1.282 1_565 S
C16 O17 1.216 . S
O17 C16 1.216 . S
H18 C13 0.932 1_655 S
H19 C14 0.930 . S
O20 Cu0 1.959 . S
O20 C7 1.251 . S
H21 C4 0.930 . S
H22 C15 0.929 . S
Cu23 N24 1.999 1_545 S
Cu23 O29 1.974 . S
Cu23 N34 1.985 . S
Cu23 O43 1.959 1_545 S
N24 Cu23 1.999 1_565 S
N24 C26 1.263 . S
N24 C28 1.389 . S
N25 C26 1.358 . S
N25 C27 1.400 . S
C26 N24 1.263 . S
C26 N25 1.358 . S
C26 H32 0.930 . S
C27 N25 1.400 . S
C27 C28 1.351 . S
C27 H44 0.930 . S
C28 N24 1.389 . S
C28 C27 1.351 . S
C28 H33 0.930 . S
O29 Cu23 1.974 . S
O29 C39 1.282 . S
C30 O31 1.261 . S
C30 O43 1.251 . S
O31 C30 1.261 . S
H32 C26 0.930 . S
H33 C28 0.930 . S
N34 Cu23 1.985 . S
N34 C36 1.335 . S
N34 C37 1.390 . S
N35 C36 1.345 . S
N35 C38 1.336 . S
C36 N34 1.335 . S
C36 N35 1.345 . S
C36 H41 0.930 . S
C37 N34 1.390 . S
C37 C38 1.346 . S
C37 H42 0.930 . S
C38 N35 1.336 . S
C38 C37 1.346 . S
C38 H45 0.929 . S
C39 O29 1.282 . S
C39 O40 1.216 . S
O40 C39 1.216 . S
H41 C36 0.930 . S
H42 C37 0.930 . S
O43 Cu23 1.959 1_565 S
O43 C30 1.251 . S
H44 C27 0.930 . S
H45 C38 0.929 . S
Cu46 N47 1.999 1_544 S
Cu46 O52 1.974 1_545 S
Cu46 N57 1.985 . S
Cu46 O66 1.959 1_554 S
N47 Cu46 1.999 1_566 S
N47 C49 1.263 . S
N47 C51 1.389 . S
N48 C49 1.358 . S
N48 C50 1.400 . S
C49 N47 1.263 . S
C49 N48 1.358 . S
C49 H55 0.930 . S
C50 N48 1.400 . S
C50 C51 1.351 . S
C50 H67 0.930 . S
C51 N47 1.389 . S
C51 C50 1.351 . S
C51 H56 0.924 1_565 S
O52 Cu46 1.974 1_565 S
O52 C62 1.282 . S
C53 O54 1.261 . S
C53 O66 1.251 . S
O54 C53 1.261 . S
H55 C49 0.930 . S
H56 C51 0.924 1_545 S
N57 Cu46 1.985 . S
N57 C59 1.335 . S
N57 C60 1.390 . S
N58 C59 1.345 . S
N58 C61 1.336 . S
C59 N57 1.335 . S
C59 N58 1.345 . S
C59 H64 0.930 . S
C60 N57 1.390 . S
C60 C61 1.346 . S
C60 H65 0.930 . S
C61 N58 1.336 . S
C61 C60 1.346 . S
C61 H68 0.929 . S
C62 O52 1.282 . S
C62 O63 1.216 . S
O63 C62 1.216 . S
H64 C59 0.930 . S
H65 C60 0.930 . S
O66 Cu46 1.959 1_556 S
O66 C53 1.251 . S
H67 C50 0.930 . S
H68 C61 0.929 . S
Cu69 N70 1.999 1_554 S
Cu69 O75 1.974 . S
Cu69 N80 1.985 . S
Cu69 O89 1.959 1_554 S
N70 Cu69 1.999 1_556 S
N70 C72 1.263 . S
N70 C74 1.389 . S
N71 C72 1.358 . S
N71 C73 1.400 . S
C72 N70 1.263 . S
C72 N71 1.358 . S
C72 H78 0.930 1_556 S
C73 N71 1.400 . S
C73 C74 1.351 . S
C73 H90 0.930 . S
C74 N70 1.389 . S
C74 C73 1.351 . S
C74 H79 0.930 . S
O75 Cu69 1.974 . S
O75 C85 1.282 . S
C76 O77 1.261 . S
C76 O89 1.251 . S
O77 C76 1.261 . S
H78 C72 0.930 1_554 S
H79 C74 0.930 . S
N80 Cu69 1.985 . S
N80 C82 1.335 . S
N80 C83 1.390 . S
N81 C82 1.345 . S
N81 C84 1.336 . S
C82 N80 1.335 . S
C82 N81 1.345 . S
C82 H87 0.930 . S
C83 N80 1.390 . S
C83 C84 1.346 . S
C83 H88 0.930 . S
C84 N81 1.336 . S
C84 C83 1.346 . S
C84 H91 0.929 . S
C85 O75 1.282 . S
C85 O86 1.216 . S
O86 C85 1.216 . S
H87 C82 0.930 . S
H88 C83 0.930 . S
O89 Cu69 1.959 1_556 S
O89 C76 1.251 . S
H90 C73 0.930 . S
H91 C84 0.929 . S
Cu92 N93 1.999 1_554 S
Cu92 O98 1.974 . S
Cu92 N103 1.985 1_545 S
Cu92 O112 1.959 1_544 S
N93 Cu92 1.999 1_556 S
N93 C95 1.263 . S
N93 C97 1.389 . S
N94 C95 1.358 . S
N94 C96 1.400 . S
C95 N93 1.263 . S
C95 N94 1.358 . S
C95 H101 0.930 . S
C96 N94 1.400 . S
C96 C97 1.351 . S
C96 H113 0.930 . S
C97 N93 1.389 . S
C97 C96 1.351 . S
C97 H102 0.930 . S
O98 Cu92 1.974 . S
O98 C108 1.282 . S
C99 O100 1.261 . S
C99 O112 1.251 . S
O100 C99 1.261 . S
H101 C95 0.930 . S
H102 C97 0.930 . S
N103 Cu92 1.985 1_565 S
N103 C105 1.335 . S
N103 C106 1.390 . S
N104 C105 1.345 . S
N104 C107 1.336 . S
C105 N103 1.335 . S
C105 N104 1.345 . S
C105 H110 0.930 . S
C106 N103 1.390 . S
C106 C107 1.346 . S
C106 H111 0.930 1_565 S
C107 N104 1.336 . S
C107 C106 1.346 . S
C107 H114 0.929 . S
C108 O98 1.282 . S
C108 O109 1.216 . S
O109 C108 1.216 . S
H110 C105 0.930 . S
H111 C106 0.930 1_545 S
O112 Cu92 1.959 1_566 S
O112 C99 1.251 . S
H113 C96 0.930 . S
H114 C107 0.929 . S
Cu115 N116 1.970 1_454 S
Cu115 O121 1.986 1_455 S
Cu115 N126 1.999 . S
Cu115 O135 1.947 1_554 S
N116 Cu115 1.970 1_656 S
N116 C118 1.285 . S
N116 C120 1.386 1_655 S
N117 C118 1.358 . S
N117 C119 1.400 . S
C118 N116 1.285 . S
C118 N117 1.358 . S
C118 H124 0.930 . S
C119 N117 1.400 . S
C119 C120 1.351 1_655 S
C119 H136 0.930 . S
C120 N116 1.386 1_455 S
C120 C119 1.351 1_455 S
C120 H125 0.930 . S
O121 Cu115 1.986 1_655 S
O121 C131 1.282 . S
C122 O123 1.261 . S
C122 O135 1.251 . S
O123 C122 1.261 . S
H124 C118 0.930 . S
H125 C120 0.930 . S
N126 Cu115 1.999 . S
N126 C128 1.335 . S
N126 C129 1.390 . S
N127 C128 1.345 . S
N127 C130 1.336 . S
C128 N126 1.335 . S
C128 N127 1.345 . S
C128 H133 0.930 . S
C129 N126 1.390 . S
C129 C130 1.346 . S
C129 H134 0.930 . S
C130 N127 1.336 . S
C130 C129 1.346 . S
C130 H137 0.929 . S
C131 O121 1.282 . S
C131 O132 1.216 . S
O132 C131 1.216 . S
H133 C128 0.930 . S
H134 C129 0.930 . S
O135 Cu115 1.947 1_556 S
O135 C122 1.251 . S
H136 C119 0.930 . S
H137 C130 0.929 . S
Cu138 N139 1.999 . S
Cu138 O144 1.974 . S
Cu138 N149 1.985 . S
Cu138 O158 1.959 . S
N139 Cu138 1.999 . S
N139 C141 1.263 . S
N139 C143 1.389 . S
N140 C141 1.358 . S
N140 C142 1.400 . S
C141 N139 1.263 . S
C141 N140 1.358 . S
C141 H147 0.930 . S
C142 N140 1.400 . S
C142 C143 1.351 . S
C142 H159 0.930 . S
C143 N139 1.389 . S
C143 C142 1.351 . S
C143 H148 0.930 . S
O144 Cu138 1.974 . S
O144 C154 1.282 . S
C145 O146 1.261 . S
C145 O158 1.251 . S
O146 C145 1.261 . S
H147 C141 0.930 . S
H148 C143 0.930 . S
N149 Cu138 1.985 . S
N149 C151 1.335 . S
N149 C152 1.390 . S
N150 C151 1.345 . S
N150 C153 1.336 . S
C151 N149 1.335 . S
C151 N150 1.345 . S
C151 H156 0.930 . S
C152 N149 1.390 . S
C152 C153 1.346 . S
C152 H157 0.930 . S
C153 N150 1.336 . S
C153 C152 1.346 . S
C153 H160 0.929 . S
C154 O144 1.282 . S
C154 O155 1.216 . S
O155 C154 1.216 . S
H156 C151 0.930 . S
H157 C152 0.930 . S
O158 Cu138 1.959 . S
O158 C145 1.251 . S
H159 C142 0.930 . S
H160 C153 0.929 . S
Cu161 N162 1.999 . S
Cu161 O167 1.974 . S
Cu161 N172 1.985 . S
Cu161 O181 1.959 . S
N162 Cu161 1.999 . S
N162 C164 1.263 . S
N162 C166 1.389 . S
N163 C164 1.358 . S
N163 C165 1.400 . S
C164 N162 1.263 . S
C164 N163 1.358 . S
C164 H170 0.930 . S
C165 N163 1.400 . S
C165 C166 1.351 . S
C165 H182 0.930 . S
C166 N162 1.389 . S
C166 C165 1.351 . S
C166 H171 0.930 . S
O167 Cu161 1.974 . S
O167 C177 1.282 . S
C168 O169 1.261 . S
C168 O181 1.251 . S
O169 C168 1.261 . S
H170 C164 0.930 . S
H171 C166 0.930 . S
N172 Cu161 1.985 . S
N172 C174 1.335 . S
N172 C175 1.390 . S
N173 C174 1.345 . S
N173 C176 1.336 . S
C174 N172 1.335 . S
C174 N173 1.345 . S
C174 H179 0.930 . S
C175 N172 1.390 . S
C175 C176 1.346 . S
C175 H180 0.930 . S
C176 N173 1.336 . S
C176 C175 1.346 . S
C176 H183 0.929 . S
C177 O167 1.282 . S
C177 O178 1.216 . S
O178 C177 1.216 . S
H179 C174 0.930 . S
H180 C175 0.930 . S
O181 Cu161 1.959 . S
O181 C168 1.251 . S
H182 C165 0.930 . S
H183 C176 0.929 . S
Cu184 N185 1.999 . S
Cu184 O190 1.974 . S
Cu184 N195 1.985 . S
Cu184 O204 1.959 . S
N185 Cu184 1.999 . S
N185 C187 1.263 . S
N185 C189 1.389 . S
N186 C187 1.358 . S
N186 C188 1.400 . S
C187 N185 1.263 . S
C187 N186 1.358 . S
C187 H193 0.930 . S
C188 N186 1.400 . S
C188 C189 1.351 . S
C188 H205 0.930 . S
C189 N185 1.389 . S
C189 C188 1.351 . S
C189 H194 0.930 . S
O190 Cu184 1.974 . S
O190 C200 1.282 . S
C191 O192 1.261 . S
C191 O204 1.251 . S
O192 C191 1.261 . S
H193 C187 0.930 . S
H194 C189 0.930 . S
N195 Cu184 1.985 . S
N195 C197 1.335 . S
N195 C198 1.390 . S
N196 C197 1.345 . S
N196 C199 1.336 . S
C197 N195 1.335 . S
C197 N196 1.345 . S
C197 H202 0.930 . S
C198 N195 1.390 . S
C198 C199 1.346 . S
C198 H203 0.930 . S
C199 N196 1.336 . S
C199 C198 1.346 . S
C199 H206 0.929 . S
C200 O190 1.282 . S
C200 O201 1.216 . S
O201 C200 1.216 . S
H202 C197 0.930 . S
H203 C198 0.930 . S
O204 Cu184 1.959 . S
O204 C191 1.251 . S
H205 C188 0.930 . S
H206 C199 0.929 . S
Cu207 N208 1.999 . S
Cu207 O213 1.974 . S
Cu207 N218 1.985 . S
Cu207 O227 1.959 . S
N208 Cu207 1.999 . S
N208 C210 1.263 . S
N208 C212 1.389 . S
N209 C210 1.358 . S
N209 C211 1.400 . S
C210 N208 1.263 . S
C210 N209 1.358 . S
C210 H216 0.930 . S
C211 N209 1.400 . S
C211 C212 1.351 . S
C211 H228 0.930 . S
C212 N208 1.389 . S
C212 C211 1.351 . S
C212 H217 0.930 . S
O213 Cu207 1.974 . S
O213 C223 1.282 . S
C214 O215 1.261 . S
C214 O227 1.251 . S
O215 C214 1.261 . S
H216 C210 0.930 . S
H217 C212 0.930 . S
N218 Cu207 1.985 . S
N218 C220 1.335 . S
N218 C221 1.390 . S
N219 C220 1.345 . S
N219 C222 1.336 . S
C220 N218 1.335 . S
C220 N219 1.345 . S
C220 H225 0.930 . S
C221 N218 1.390 . S
C221 C222 1.346 . S
C221 H226 0.930 . S
C222 N219 1.336 . S
C222 C221 1.346 . S
C222 H229 0.929 . S
C223 O213 1.282 . S
C223 O224 1.216 . S
O224 C223 1.216 . S
H225 C220 0.930 . S
H226 C221 0.930 . S
O227 Cu207 1.959 . S
O227 C214 1.251 . S
H228 C211 0.930 . S
H229 C222 0.929 . S
Cu230 N231 1.999 . S
Cu230 O236 1.974 . S
Cu230 N241 1.985 . S
Cu230 O250 1.959 . S
N231 Cu230 1.999 . S
N231 C233 1.263 . S
N231 C235 1.389 . S
N232 C233 1.358 . S
N232 C234 1.400 . S
C233 N231 1.263 . S
C233 N232 1.358 . S
C233 H239 0.930 . S
C234 N232 1.400 . S
C234 C235 1.351 . S
C234 H251 0.930 . S
C235 N231 1.389 . S
C235 C234 1.351 . S
C235 H240 0.930 . S
O236 Cu230 1.974 . S
O236 C246 1.282 . S
C237 O238 1.261 . S
C237 O250 1.251 . S
O238 C237 1.261 . S
H239 C233 0.930 . S
H240 C235 0.930 . S
N241 Cu230 1.985 . S
N241 C243 1.335 . S
N241 C244 1.390 . S
N242 C243 1.345 . S
N242 C245 1.336 . S
C243 N241 1.335 . S
C243 N242 1.345 . S
C243 H248 0.930 . S
C244 N241 1.390 . S
C244 C245 1.346 . S
C244 H249 0.930 . S
C245 N242 1.336 . S
C245 C244 1.346 . S
C245 H252 0.929 . S
C246 O236 1.282 . S
C246 O247 1.216 . S
O247 C246 1.216 . S
H248 C243 0.930 . S
H249 C244 0.930 . S
O250 Cu230 1.959 . S
O250 C237 1.251 . S
H251 C234 0.930 . S
H252 C245 0.929 . S
Cu253 N254 1.999 . S
Cu253 O259 1.974 . S
Cu253 N264 1.985 . S
Cu253 O273 1.959 . S
N254 Cu253 1.999 . S
N254 C256 1.263 . S
N254 C258 1.389 . S
N255 C256 1.358 . S
N255 C257 1.400 . S
C256 N254 1.263 . S
C256 N255 1.358 . S
C256 H262 0.930 . S
C257 N255 1.400 . S
C257 C258 1.351 . S
C257 H274 0.930 . S
C258 N254 1.389 . S
C258 C257 1.351 . S
C258 H263 0.930 . S
O259 Cu253 1.974 . S
O259 C269 1.282 . S
C260 O261 1.261 . S
C260 O273 1.251 . S
O261 C260 1.261 . S
H262 C256 0.930 . S
H263 C258 0.930 . S
N264 Cu253 1.985 . S
N264 C266 1.335 . S
N264 C267 1.390 . S
N265 C266 1.345 . S
N265 C268 1.336 . S
C266 N264 1.335 . S
C266 N265 1.345 . S
C266 H271 0.930 . S
C267 N264 1.390 . S
C267 C268 1.346 . S
C267 H272 0.930 . S
C268 N265 1.336 . S
C268 C267 1.346 . S
C268 H275 0.929 . S
C269 O259 1.282 . S
C269 O270 1.216 . S
O270 C269 1.216 . S
H271 C266 0.930 . S
H272 C267 0.930 . S
O273 Cu253 1.959 . S
O273 C260 1.251 . S
H274 C257 0.930 . S
H275 C268 0.929 . S
Dy276 O279 2.307 . S
Dy276 O281 2.395 . S
Dy276 O282 2.379 . S
Dy276 O284 2.339 . S
Dy276 O286 2.298 . S
Dy276 O290 2.275 . S
Dy276 C298 2.738 . S
Dy277 O280 2.298 . S
Dy277 O283 2.275 . S
Dy277 O285 2.307 . S
Dy277 O287 2.395 . S
Dy277 O288 2.379 . S
Dy277 O291 2.339 . S
Dy277 C307 2.738 . S
C278 O290 1.254 . S
C278 O291 1.257 . S
O279 Dy276 2.307 . S
O279 C289 1.266 . S
O280 Dy277 2.298 . S
O280 C289 1.236 . S
O281 Dy276 2.395 . S
O281 C298 1.255 . S
O282 Dy276 2.379 . S
O282 C298 1.249 . S
O283 Dy277 2.275 . S
O283 C299 1.254 . S
O284 Dy276 2.339 . S
O284 C299 1.257 . S
O285 Dy277 2.307 . S
O285 C300 1.266 . S
O286 Dy276 2.298 . S
O286 C300 1.236 . S
O287 Dy277 2.395 . S
O287 C307 1.255 . S
O288 Dy277 2.379 . S
O288 C307 1.249 . S
C289 O279 1.266 . S
C289 O280 1.236 . S
O290 Dy276 2.275 . S
O290 C278 1.254 . S
O291 Dy277 2.339 . S
O291 C278 1.257 . S
C292 C295 1.344 . S
C292 C296 1.328 . S
C292 C298 1.516 . S
C293 C294 1.304 . S
C293 C297 1.323 . S
C294 C293 1.304 . S
C294 C295 1.371 . S
C294 H308 0.930 . S
C295 C292 1.344 . S
C295 C294 1.371 . S
C295 H309 0.931 . S
C296 C292 1.328 . S
C296 C297 1.433 . S
C296 H310 0.931 . S
C297 C293 1.323 . S
C297 C296 1.433 . S
C297 H311 0.933 . S
C298 Dy276 2.738 . S
C298 O281 1.255 . S
C298 O282 1.249 . S
C298 C292 1.516 . S
C299 O283 1.254 . S
C299 O284 1.257 . S
C300 O285 1.266 . S
C300 O286 1.236 . S
C301 C304 1.344 . S
C301 C305 1.328 . S
C301 C307 1.516 . S
C302 C303 1.304 . S
C302 C306 1.323 . S
C303 C302 1.304 . S
C303 C304 1.371 . S
C303 H312 0.930 . S
C304 C301 1.344 . S
C304 C303 1.371 . S
C304 H313 0.931 . S
C305 C301 1.328 . S
C305 C306 1.433 . S
C305 H314 0.931 . S
C306 C302 1.323 . S
C306 C305 1.433 . S
C306 H315 0.933 . S
C307 Dy277 2.738 . S
C307 O287 1.255 . S
C307 O288 1.249 . S
C307 C301 1.516 . S
H308 C294 0.930 . S
H309 C295 0.931 . S
H310 C296 0.931 . S
H311 C297 0.933 . S
H312 C303 0.930 . S
H313 C304 0.931 . S
H314 C305 0.931 . S
H315 C306 0.933 . S
Dy316 O319 2.307 . S
Dy316 O321 2.395 . S
Dy316 O322 2.379 . S
Dy316 O324 2.339 . S
Dy316 O326 2.298 . S
Dy316 O330 2.275 . S
Dy316 C338 2.738 . S
Dy317 O320 2.298 . S
Dy317 O323 2.275 . S
Dy317 O325 2.307 . S
Dy317 O327 2.395 . S
Dy317 O328 2.379 . S
Dy317 O331 2.339 . S
Dy317 C347 2.738 . S
C318 O330 1.254 . S
C318 O331 1.257 . S
O319 Dy316 2.307 . S
O319 C329 1.266 . S
O320 Dy317 2.298 . S
O320 C329 1.236 . S
O321 Dy316 2.395 . S
O321 C338 1.255 . S
O322 Dy316 2.379 . S
O322 C338 1.249 . S
O323 Dy317 2.275 . S
O323 C339 1.254 . S
O324 Dy316 2.339 . S
O324 C339 1.257 . S
O325 Dy317 2.307 . S
O325 C340 1.266 . S
O326 Dy316 2.298 . S
O326 C340 1.236 . S
O327 Dy317 2.395 . S
O327 C347 1.255 . S
O328 Dy317 2.379 . S
O328 C347 1.249 . S
C329 O319 1.266 . S
C329 O320 1.236 . S
O330 Dy316 2.275 . S
O330 C318 1.254 . S
O331 Dy317 2.339 . S
O331 C318 1.257 . S
C332 C335 1.344 . S
C332 C336 1.328 . S
C332 C338 1.516 . S
C333 C334 1.304 . S
C333 C337 1.323 . S
C334 C333 1.304 . S
C334 C335 1.371 . S
C334 H348 0.930 . S
C335 C332 1.344 . S
C335 C334 1.371 . S
C335 H349 0.931 . S
C336 C332 1.328 . S
C336 C337 1.433 . S
C336 H350 0.931 . S
C337 C333 1.323 . S
C337 C336 1.433 . S
C337 H351 0.933 . S
C338 Dy316 2.738 . S
C338 O321 1.255 . S
C338 O322 1.249 . S
C338 C332 1.516 . S
C339 O323 1.254 . S
C339 O324 1.257 . S
C340 O325 1.266 . S
C340 O326 1.236 . S
C341 C344 1.344 . S
C341 C345 1.328 . S
C341 C347 1.516 . S
C342 C343 1.304 . S
C342 C346 1.323 . S
C343 C342 1.304 . S
C343 C344 1.371 . S
C343 H352 0.930 . S
C344 C341 1.344 . S
C344 C343 1.371 . S
C344 H353 0.931 . S
C345 C341 1.328 . S
C345 C346 1.433 . S
C345 H354 0.931 . S
C346 C342 1.323 . S
C346 C345 1.433 . S
C346 H355 0.933 . S
C347 Dy317 2.738 . S
C347 O327 1.255 . S
C347 O328 1.249 . S
C347 C341 1.516 . S
H348 C334 0.930 . S
H349 C335 0.931 . S
H350 C336 0.931 . S
H351 C337 0.933 . S
H352 C343 0.930 . S
H353 C344 0.931 . S
H354 C345 0.931 . S
H355 C346 0.933 . S
Dy356 O359 2.307 . S
Dy356 O361 2.395 . S
Dy356 O362 2.379 . S
Dy356 O364 2.339 . S
Dy356 O366 2.298 . S
Dy356 O370 2.275 . S
Dy356 C378 2.738 . S
Dy357 O360 2.298 . S
Dy357 O363 2.275 . S
Dy357 O365 2.307 . S
Dy357 O367 2.395 . S
Dy357 O368 2.379 . S
Dy357 O371 2.339 . S
Dy357 C387 2.738 . S
C358 O370 1.254 . S
C358 O371 1.257 . S
O359 Dy356 2.307 . S
O359 C369 1.266 . S
O360 Dy357 2.298 . S
O360 C369 1.236 . S
O361 Dy356 2.395 . S
O361 C378 1.255 . S
O362 Dy356 2.379 . S
O362 C378 1.249 . S
O363 Dy357 2.275 . S
O363 C379 1.254 . S
O364 Dy356 2.339 . S
O364 C379 1.257 . S
O365 Dy357 2.307 . S
O365 C380 1.266 . S
O366 Dy356 2.298 . S
O366 C380 1.236 . S
O367 Dy357 2.395 . S
O367 C387 1.255 . S
O368 Dy357 2.379 . S
O368 C387 1.249 . S
C369 O359 1.266 . S
C369 O360 1.236 . S
O370 Dy356 2.275 . S
O370 C358 1.254 . S
O371 Dy357 2.339 . S
O371 C358 1.257 . S
C372 C375 1.344 . S
C372 C376 1.328 . S
C372 C378 1.516 . S
C373 C374 1.304 . S
C373 C377 1.323 . S
C374 C373 1.304 . S
C374 C375 1.371 . S
C374 H388 0.930 . S
C375 C372 1.344 . S
C375 C374 1.371 . S
C375 H389 0.931 . S
C376 C372 1.328 . S
C376 C377 1.433 . S
C376 H390 0.931 . S
C377 C373 1.323 . S
C377 C376 1.433 . S
C377 H391 0.933 . S
C378 Dy356 2.738 . S
C378 O361 1.255 . S
C378 O362 1.249 . S
C378 C372 1.516 . S
C379 O363 1.254 . S
C379 O364 1.257 . S
C380 O365 1.266 . S
C380 O366 1.236 . S
C381 C384 1.344 . S
C381 C385 1.328 . S
C381 C387 1.516 . S
C382 C383 1.304 . S
C382 C386 1.323 . S
C383 C382 1.304 . S
C383 C384 1.371 . S
C383 H392 0.930 . S
C384 C381 1.344 . S
C384 C383 1.371 . S
C384 H393 0.931 . S
C385 C381 1.328 . S
C385 C386 1.433 . S
C385 H394 0.931 . S
C386 C382 1.323 . S
C386 C385 1.433 . S
C386 H395 0.933 . S
C387 Dy357 2.738 . S
C387 O367 1.255 . S
C387 O368 1.249 . S
C387 C381 1.516 . S
H388 C374 0.930 . S
H389 C375 0.931 . S
H390 C376 0.931 . S
H391 C377 0.933 . S
H392 C383 0.930 . S
H393 C384 0.931 . S
H394 C385 0.931 . S
H395 C386 0.933 . S
Dy396 O399 2.307 . S
Dy396 O401 2.395 . S
Dy396 O402 2.379 . S
Dy396 O404 2.339 . S
Dy396 O406 2.298 . S
Dy396 O410 2.275 . S
Dy396 C418 2.738 . S
Dy397 O400 2.298 . S
Dy397 O403 2.275 . S
Dy397 O405 2.307 . S
Dy397 O407 2.395 . S
Dy397 O408 2.379 . S
Dy397 O411 2.339 . S
Dy397 C427 2.738 . S
C398 O410 1.254 . S
C398 O411 1.257 . S
O399 Dy396 2.307 . S
O399 C409 1.266 . S
O400 Dy397 2.298 . S
O400 C409 1.236 . S
O401 Dy396 2.395 . S
O401 C418 1.255 . S
O402 Dy396 2.379 . S
O402 C418 1.249 . S
O403 Dy397 2.275 . S
O403 C419 1.254 . S
O404 Dy396 2.339 . S
O404 C419 1.257 . S
O405 Dy397 2.307 . S
O405 C420 1.266 . S
O406 Dy396 2.298 . S
O406 C420 1.236 . S
O407 Dy397 2.395 . S
O407 C427 1.255 . S
O408 Dy397 2.379 . S
O408 C427 1.249 . S
C409 O399 1.266 . S
C409 O400 1.236 . S
O410 Dy396 2.275 . S
O410 C398 1.254 . S
O411 Dy397 2.339 . S
O411 C398 1.257 . S
C412 C415 1.344 . S
C412 C416 1.328 . S
C412 C418 1.516 . S
C413 C414 1.304 . S
C413 C417 1.323 . S
C414 C413 1.304 . S
C414 C415 1.371 . S
C414 H428 0.930 . S
C415 C412 1.344 . S
C415 C414 1.371 . S
C415 H429 0.931 . S
C416 C412 1.328 . S
C416 C417 1.433 . S
C416 H430 0.931 . S
C417 C413 1.323 . S
C417 C416 1.433 . S
C417 H431 0.933 . S
C418 Dy396 2.738 . S
C418 O401 1.255 . S
C418 O402 1.249 . S
C418 C412 1.516 . S
C419 O403 1.254 . S
C419 O404 1.257 . S
C420 O405 1.266 . S
C420 O406 1.236 . S
C421 C424 1.344 . S
C421 C425 1.328 . S
C421 C427 1.516 . S
C422 C423 1.304 . S
C422 C426 1.323 . S
C423 C422 1.304 . S
C423 C424 1.371 . S
C423 H432 0.930 . S
C424 C421 1.344 . S
C424 C423 1.371 . S
C424 H433 0.931 . S
C425 C421 1.328 . S
C425 C426 1.433 . S
C425 H434 0.931 . S
C426 C422 1.323 . S
C426 C425 1.433 . S
C426 H435 0.933 . S
C427 Dy397 2.738 . S
C427 O407 1.255 . S
C427 O408 1.249 . S
C427 C421 1.516 . S
H428 C414 0.930 . S
H429 C415 0.931 . S
H430 C416 0.931 . S
H431 C417 0.933 . S
H432 C423 0.930 . S
H433 C424 0.931 . S
H434 C425 0.931 . S
H435 C426 0.933 . S
Dy436 O439 2.307 . S
Dy436 O441 2.395 . S
Dy436 O442 2.379 . S
Dy436 O444 2.339 . S
Dy436 O446 2.298 . S
Dy436 O450 2.275 . S
Dy436 C458 2.738 . S
Dy437 O440 2.298 . S
Dy437 O443 2.275 . S
Dy437 O445 2.307 . S
Dy437 O447 2.395 . S
Dy437 O448 2.379 . S
Dy437 O451 2.339 . S
Dy437 C467 2.738 . S
C438 O450 1.254 . S
C438 O451 1.257 . S
O439 Dy436 2.307 . S
O439 C449 1.266 . S
O440 Dy437 2.298 . S
O440 C449 1.236 . S
O441 Dy436 2.395 . S
O441 C458 1.255 . S
O442 Dy436 2.379 . S
O442 C458 1.249 . S
O443 Dy437 2.275 . S
O443 C459 1.254 . S
O444 Dy436 2.339 . S
O444 C459 1.257 . S
O445 Dy437 2.307 . S
O445 C460 1.266 . S
O446 Dy436 2.298 . S
O446 C460 1.236 . S
O447 Dy437 2.395 . S
O447 C467 1.255 . S
O448 Dy437 2.379 . S
O448 C467 1.249 . S
C449 O439 1.266 . S
C449 O440 1.236 . S
O450 Dy436 2.275 . S
O450 C438 1.254 . S
O451 Dy437 2.339 . S
O451 C438 1.257 . S
C452 C455 1.344 . S
C452 C456 1.328 . S
C452 C458 1.516 . S
C453 C454 1.304 . S
C453 C457 1.323 . S
C454 C453 1.304 . S
C454 C455 1.371 . S
C454 H468 0.930 . S
C455 C452 1.344 . S
C455 C454 1.371 . S
C455 H469 0.931 . S
C456 C452 1.328 . S
C456 C457 1.433 . S
C456 H470 0.931 . S
C457 C453 1.323 . S
C457 C456 1.433 . S
C457 H471 0.933 . S
C458 Dy436 2.738 . S
C458 O441 1.255 . S
C458 O442 1.249 . S
C458 C452 1.516 . S
C459 O443 1.254 . S
C459 O444 1.257 . S
C460 O445 1.266 . S
C460 O446 1.236 . S
C461 C464 1.344 . S
C461 C465 1.328 . S
C461 C467 1.516 . S
C462 C463 1.304 . S
C462 C466 1.323 . S
C463 C462 1.304 . S
C463 C464 1.371 . S
C463 H472 0.930 . S
C464 C461 1.344 . S
C464 C463 1.371 . S
C464 H473 0.931 . S
C465 C461 1.328 . S
C465 C466 1.433 . S
C465 H474 0.931 . S
C466 C462 1.323 . S
C466 C465 1.433 . S
C466 H475 0.933 . S
C467 Dy437 2.738 . S
C467 O447 1.255 . S
C467 O448 1.249 . S
C467 C461 1.516 . S
H468 C454 0.930 . S
H469 C455 0.931 . S
H470 C456 0.931 . S
H471 C457 0.933 . S
H472 C463 0.930 . S
H473 C464 0.931 . S
H474 C465 0.931 . S
H475 C466 0.933 . S
Dy476 O479 2.307 . S
Dy476 O481 2.395 . S
Dy476 O482 2.379 . S
Dy476 O484 2.339 . S
Dy476 O486 2.298 . S
Dy476 O490 2.275 . S
Dy476 C498 2.738 . S
Dy477 O480 2.298 . S
Dy477 O483 2.275 . S
Dy477 O485 2.307 . S
Dy477 O487 2.395 . S
Dy477 O488 2.379 . S
Dy477 O491 2.339 . S
Dy477 C507 2.738 . S
C478 O490 1.254 . S
C478 O491 1.257 . S
O479 Dy476 2.307 . S
O479 C489 1.266 . S
O480 Dy477 2.298 . S
O480 C489 1.236 . S
O481 Dy476 2.395 . S
O481 C498 1.255 . S
O482 Dy476 2.379 . S
O482 C498 1.249 . S
O483 Dy477 2.275 . S
O483 C499 1.254 . S
O484 Dy476 2.339 . S
O484 C499 1.257 . S
O485 Dy477 2.307 . S
O485 C500 1.266 . S
O486 Dy476 2.298 . S
O486 C500 1.236 . S
O487 Dy477 2.395 . S
O487 C507 1.255 . S
O488 Dy477 2.379 . S
O488 C507 1.249 . S
C489 O479 1.266 . S
C489 O480 1.236 . S
O490 Dy476 2.275 . S
O490 C478 1.254 . S
O491 Dy477 2.339 . S
O491 C478 1.257 . S
C492 C495 1.344 . S
C492 C496 1.328 . S
C492 C498 1.516 . S
C493 C494 1.304 . S
C493 C497 1.323 . S
C494 C493 1.304 . S
C494 C495 1.371 . S
C494 H508 0.930 . S
C495 C492 1.344 . S
C495 C494 1.371 . S
C495 H509 0.931 . S
C496 C492 1.328 . S
C496 C497 1.433 . S
C496 H510 0.931 . S
C497 C493 1.323 . S
C497 C496 1.433 . S
C497 H511 0.933 . S
C498 Dy476 2.738 . S
C498 O481 1.255 . S
C498 O482 1.249 . S
C498 C492 1.516 . S
C499 O483 1.254 . S
C499 O484 1.257 . S
C500 O485 1.266 . S
C500 O486 1.236 . S
C501 C504 1.344 . S
C501 C505 1.328 . S
C501 C507 1.516 . S
C502 C503 1.304 . S
C502 C506 1.323 . S
C503 C502 1.304 . S
C503 C504 1.371 . S
C503 H512 0.930 . S
C504 C501 1.344 . S
C504 C503 1.371 . S
C504 H513 0.931 . S
C505 C501 1.328 . S
C505 C506 1.433 . S
C505 H514 0.931 . S
C506 C502 1.323 . S
C506 C505 1.433 . S
C506 H515 0.933 . S
C507 Dy477 2.738 . S
C507 O487 1.255 . S
C507 O488 1.249 . S
C507 C501 1.516 . S
H508 C494 0.930 . S
H509 C495 0.931 . S
H510 C496 0.931 . S
H511 C497 0.933 . S
H512 C503 0.930 . S
H513 C504 0.931 . S
H514 C505 0.931 . S
H515 C506 0.933 . S
Dy516 O519 2.307 . S
Dy516 O521 2.395 . S
Dy516 O522 2.379 . S
Dy516 O524 2.339 . S
Dy516 O526 2.298 . S
Dy516 O530 2.275 . S
Dy516 C538 2.738 . S
Dy517 O520 2.298 . S
Dy517 O523 2.275 . S
Dy517 O525 2.307 . S
Dy517 O527 2.395 . S
Dy517 O528 2.379 . S
Dy517 O531 2.339 . S
Dy517 C547 2.738 . S
C518 O530 1.254 . S
C518 O531 1.257 . S
O519 Dy516 2.307 . S
O519 C529 1.266 . S
O520 Dy517 2.298 . S
O520 C529 1.236 . S
O521 Dy516 2.395 . S
O521 C538 1.255 . S
O522 Dy516 2.379 . S
O522 C538 1.249 . S
O523 Dy517 2.275 . S
O523 C539 1.254 . S
O524 Dy516 2.339 . S
O524 C539 1.257 . S
O525 Dy517 2.307 . S
O525 C540 1.266 . S
O526 Dy516 2.298 . S
O526 C540 1.236 . S
O527 Dy517 2.395 . S
O527 C547 1.255 . S
O528 Dy517 2.379 . S
O528 C547 1.249 . S
C529 O519 1.266 . S
C529 O520 1.236 . S
O530 Dy516 2.275 . S
O530 C518 1.254 . S
O531 Dy517 2.339 . S
O531 C518 1.257 . S
C532 C535 1.344 . S
C532 C536 1.328 . S
C532 C538 1.516 . S
C533 C534 1.304 . S
C533 C537 1.323 . S
C534 C533 1.304 . S
C534 C535 1.371 . S
C534 H548 0.930 . S
C535 C532 1.344 . S
C535 C534 1.371 . S
C535 H549 0.931 . S
C536 C532 1.328 . S
C536 C537 1.433 . S
C536 H550 0.931 . S
C537 C533 1.323 . S
C537 C536 1.433 . S
C537 H551 0.933 . S
C538 Dy516 2.738 . S
C538 O521 1.255 . S
C538 O522 1.249 . S
C538 C532 1.516 . S
C539 O523 1.254 . S
C539 O524 1.257 . S
C540 O525 1.266 . S
C540 O526 1.236 . S
C541 C544 1.344 . S
C541 C545 1.328 . S
C541 C547 1.516 . S
C542 C543 1.304 . S
C542 C546 1.323 . S
C543 C542 1.304 . S
C543 C544 1.371 . S
C543 H552 0.930 . S
C544 C541 1.344 . S
C544 C543 1.371 . S
C544 H553 0.931 . S
C545 C541 1.328 . S
C545 C546 1.433 . S
C545 H554 0.931 . S
C546 C542 1.323 . S
C546 C545 1.433 . S
C546 H555 0.933 . S
C547 Dy517 2.738 . S
C547 O527 1.255 . S
C547 O528 1.249 . S
C547 C541 1.516 . S
H548 C534 0.930 . S
H549 C535 0.931 . S
H550 C536 0.931 . S
H551 C537 0.933 . S
H552 C543 0.930 . S
H553 C544 0.931 . S
H554 C545 0.931 . S
H555 C546 0.933 . S
Dy556 O559 2.307 . S
Dy556 O561 2.395 . S
Dy556 O562 2.379 . S
Dy556 O564 2.339 . S
Dy556 O566 2.298 . S
Dy556 O570 2.275 . S
Dy556 C578 2.738 . S
Dy557 O560 2.298 . S
Dy557 O563 2.275 . S
Dy557 O565 2.307 . S
Dy557 O567 2.395 . S
Dy557 O568 2.379 . S
Dy557 O571 2.339 . S
Dy557 C587 2.738 . S
C558 O570 1.254 . S
C558 O571 1.257 . S
O559 Dy556 2.307 . S
O559 C569 1.266 . S
O560 Dy557 2.298 . S
O560 C569 1.236 . S
O561 Dy556 2.395 . S
O561 C578 1.255 . S
O562 Dy556 2.379 . S
O562 C578 1.249 . S
O563 Dy557 2.275 . S
O563 C579 1.254 . S
O564 Dy556 2.339 . S
O564 C579 1.257 . S
O565 Dy557 2.307 . S
O565 C580 1.266 . S
O566 Dy556 2.298 . S
O566 C580 1.236 . S
O567 Dy557 2.395 . S
O567 C587 1.255 . S
O568 Dy557 2.379 . S
O568 C587 1.249 . S
C569 O559 1.266 . S
C569 O560 1.236 . S
O570 Dy556 2.275 . S
O570 C558 1.254 . S
O571 Dy557 2.339 . S
O571 C558 1.257 . S
C572 C575 1.344 . S
C572 C576 1.328 . S
C572 C578 1.516 . S
C573 C574 1.304 . S
C573 C577 1.323 . S
C574 C573 1.304 . S
C574 C575 1.371 . S
C574 H588 0.930 . S
C575 C572 1.344 . S
C575 C574 1.371 . S
C575 H589 0.931 . S
C576 C572 1.328 . S
C576 C577 1.433 . S
C576 H590 0.931 . S
C577 C573 1.323 . S
C577 C576 1.433 . S
C577 H591 0.933 . S
C578 Dy556 2.738 . S
C578 O561 1.255 . S
C578 O562 1.249 . S
C578 C572 1.516 . S
C579 O563 1.254 . S
C579 O564 1.257 . S
C580 O565 1.266 . S
C580 O566 1.236 . S
C581 C584 1.344 . S
C581 C585 1.328 . S
C581 C587 1.516 . S
C582 C583 1.304 . S
C582 C586 1.323 . S
C583 C582 1.304 . S
C583 C584 1.371 . S
C583 H592 0.930 . S
C584 C581 1.344 . S
C584 C583 1.371 . S
C584 H593 0.931 . S
C585 C581 1.328 . S
C585 C586 1.433 . S
C585 H594 0.931 . S
C586 C582 1.323 . S
C586 C585 1.433 . S
C586 H595 0.933 . S
C587 Dy557 2.738 . S
C587 O567 1.255 . S
C587 O568 1.249 . S
C587 C581 1.516 . S
H588 C574 0.930 . S
H589 C575 0.931 . S
H590 C576 0.931 . S
H591 C577 0.933 . S
H592 C583 0.930 . S
H593 C584 0.931 . S
H594 C585 0.931 . S
H595 C586 0.933 . S
H596 C604 0.950 . S
H597 C609 0.950 . S
H598 C606 0.950 . S
H599 C608 0.950 . S
H600 C610 0.950 . S
H601 C612 0.950 . S
H602 C614 0.950 . S
H603 C615 0.950 . S
C604 H596 0.950 . S
C604 C605 1.386 . S
C604 C606 1.391 . S
C605 C604 1.386 . S
C605 C609 1.393 . S
C606 H598 0.950 . S
C606 C604 1.391 . S
C606 C607 1.400 . S
C607 C606 1.400 . S
C607 C608 1.398 . S
C607 C613 1.491 . S
C608 H599 0.950 . S
C608 C607 1.398 . S
C608 C609 1.391 . S
C609 H597 0.950 . S
C609 C605 1.393 . S
C609 C608 1.391 . S
C610 H600 0.950 . S
C610 C611 1.386 . S
C610 C612 1.391 . S
C611 C610 1.386 . S
C611 C615 1.393 . S
C612 H601 0.950 . S
C612 C610 1.391 . S
C612 C613 1.400 . S
C613 C607 1.491 . S
C613 C612 1.400 . S
C613 C614 1.398 . S
C614 H602 0.950 . S
C614 C613 1.398 . S
C614 C615 1.391 . S
C615 H603 0.950 . S
C615 C611 1.393 . S
C615 C614 1.391 . S
H616 C624 0.950 . S
H617 C629 0.950 . S
H618 C626 0.950 . S
H619 C628 0.950 . S
H620 C630 0.950 . S
H621 C632 0.950 . S
H622 C634 0.950 . S
H623 C635 0.950 . S
C624 H616 0.950 . S
C624 C625 1.386 . S
C624 C626 1.391 . S
C625 C624 1.386 . S
C625 C629 1.393 . S
C626 H618 0.950 . S
C626 C624 1.391 . S
C626 C627 1.400 . S
C627 C626 1.400 . S
C627 C628 1.398 . S
C627 C633 1.491 . S
C628 H619 0.950 . S
C628 C627 1.398 . S
C628 C629 1.391 . S
C629 H617 0.950 . S
C629 C625 1.393 . S
C629 C628 1.391 . S
C630 H620 0.950 . S
C630 C631 1.386 . S
C630 C632 1.391 . S
C631 C630 1.386 . S
C631 C635 1.393 . S
C632 H621 0.950 . S
C632 C630 1.391 . S
C632 C633 1.400 . S
C633 C627 1.491 . S
C633 C632 1.400 . S
C633 C634 1.398 . S
C634 H622 0.950 . S
C634 C633 1.398 . S
C634 C635 1.391 . S
C635 H623 0.950 . S
C635 C631 1.393 . S
C635 C634 1.391 . S
H636 C644 0.950 1_455 S
H637 C649 0.950 1_545 S
H638 C646 0.950 . S
H639 C648 0.950 . S
H640 C650 0.950 . S
H641 C652 0.950 . S
H642 C654 0.950 . S
H643 C655 0.950 . S
C644 H636 0.950 1_655 S
C644 C645 1.386 . S
C644 C646 1.391 . S
C645 C644 1.386 . S
C645 C649 1.393 . S
C646 H638 0.950 . S
C646 C644 1.391 . S
C646 C647 1.400 . S
C647 C646 1.400 . S
C647 C648 1.398 . S
C647 C653 1.491 . S
C648 H639 0.950 . S
C648 C647 1.398 . S
C648 C649 1.391 . S
C649 H637 0.950 1_565 S
C649 C645 1.393 . S
C649 C648 1.391 . S
C650 H640 0.950 . S
C650 C651 1.386 . S
C650 C652 1.391 . S
C651 C650 1.386 . S
C651 C655 1.393 . S
C652 H641 0.950 . S
C652 C650 1.391 . S
C652 C653 1.400 . S
C653 C647 1.491 . S
C653 C652 1.400 . S
C653 C654 1.398 . S
C654 H642 0.950 . S
C654 C653 1.398 . S
C654 C655 1.391 . S
C655 H643 0.950 . S
C655 C651 1.393 . S
C655 C654 1.391 . S
H656 C664 0.950 . S
H657 C669 0.950 . S
H658 C666 0.950 . S
H659 C668 0.950 . S
H660 C670 0.950 . S
H661 C672 0.950 . S
H662 C674 0.950 . S
H663 C675 0.950 . S
C664 H656 0.950 . S
C664 C665 1.386 . S
C664 C666 1.391 . S
C665 C664 1.386 . S
C665 C669 1.393 . S
C666 H658 0.950 . S
C666 C664 1.391 . S
C666 C667 1.400 . S
C667 C666 1.400 . S
C667 C668 1.398 . S
C667 C673 1.491 . S
C668 H659 0.950 . S
C668 C667 1.398 . S
C668 C669 1.391 . S
C669 H657 0.950 . S
C669 C665 1.393 . S
C669 C668 1.391 . S
C670 H660 0.950 . S
C670 C671 1.386 . S
C670 C672 1.391 . S
C671 C670 1.386 . S
C671 C675 1.393 . S
C672 H661 0.950 . S
C672 C670 1.391 . S
C672 C673 1.400 . S
C673 C667 1.491 . S
C673 C672 1.400 . S
C673 C674 1.398 . S
C674 H662 0.950 . S
C674 C673 1.398 . S
C674 C675 1.391 . S
C675 H663 0.950 . S
C675 C671 1.393 . S
C675 C674 1.391 . S
H676 C684 0.950 . S
H677 C689 0.950 . S
H678 C686 0.950 . S
H679 C688 0.950 . S
H680 C690 0.950 . S
H681 C692 0.950 . S
H682 C694 0.950 . S
H683 C695 0.950 . S
C684 H676 0.950 . S
C684 C685 1.386 . S
C684 C686 1.391 . S
C685 C684 1.386 . S
C685 C689 1.393 . S
C686 H678 0.950 . S
C686 C684 1.391 . S
C686 C687 1.400 . S
C687 C686 1.400 . S
C687 C688 1.398 . S
C687 C693 1.491 . S
C688 H679 0.950 . S
C688 C687 1.398 . S
C688 C689 1.391 . S
C689 H677 0.950 . S
C689 C685 1.393 . S
C689 C688 1.391 . S
C690 H680 0.950 . S
C690 C691 1.386 . S
C690 C692 1.391 . S
C691 C690 1.386 . S
C691 C695 1.393 . S
C692 H681 0.950 . S
C692 C690 1.391 . S
C692 C693 1.400 . S
C693 C687 1.491 . S
C693 C692 1.400 . S
C693 C694 1.398 . S
C694 H682 0.950 . S
C694 C693 1.398 . S
C694 C695 1.391 . S
C695 H683 0.950 . S
C695 C691 1.393 . S
C695 C694 1.391 . S
H696 C704 0.950 . S
H697 C709 0.950 . S
H698 C706 0.950 . S
H699 C708 0.950 . S
H700 C710 0.950 . S
H701 C712 0.950 . S
H702 C714 0.950 . S
H703 C715 0.950 . S
C704 H696 0.950 . S
C704 C705 1.386 . S
C704 C706 1.391 . S
C705 C704 1.386 . S
C705 C709 1.393 . S
C706 H698 0.950 . S
C706 C704 1.391 . S
C706 C707 1.400 . S
C707 C706 1.400 . S
C707 C708 1.398 . S
C707 C713 1.491 . S
C708 H699 0.950 . S
C708 C707 1.398 . S
C708 C709 1.391 . S
C709 H697 0.950 . S
C709 C705 1.393 . S
C709 C708 1.391 . S
C710 H700 0.950 . S
C710 C711 1.386 . S
C710 C712 1.391 . S
C711 C710 1.386 . S
C711 C715 1.393 . S
C712 H701 0.950 . S
C712 C710 1.391 . S
C712 C713 1.400 . S
C713 C707 1.491 . S
C713 C712 1.400 . S
C713 C714 1.398 . S
C714 H702 0.950 . S
C714 C713 1.398 . S
C714 C715 1.391 . S
C715 H703 0.950 . S
C715 C711 1.393 . S
C715 C714 1.391 . S
H716 C724 0.950 . S
H717 C729 0.950 . S
H718 C726 0.950 . S
H719 C728 0.950 . S
H720 C730 0.950 . S
H721 C732 0.950 . S
H722 C734 0.950 . S
H723 C735 0.950 . S
C724 H716 0.950 . S
C724 C725 1.386 . S
C724 C726 1.391 . S
C725 C724 1.386 . S
C725 C729 1.393 . S
C726 H718 0.950 . S
C726 C724 1.391 . S
C726 C727 1.400 . S
C727 C726 1.400 . S
C727 C728 1.398 . S
C727 C733 1.491 . S
C728 H719 0.950 . S
C728 C727 1.398 . S
C728 C729 1.391 . S
C729 H717 0.950 . S
C729 C725 1.393 . S
C729 C728 1.391 . S
C730 H720 0.950 . S
C730 C731 1.386 . S
C730 C732 1.391 . S
C731 C730 1.386 . S
C731 C735 1.393 . S
C732 H721 0.950 . S
C732 C730 1.391 . S
C732 C733 1.400 . S
C733 C727 1.491 . S
C733 C732 1.400 . S
C733 C734 1.398 . S
C734 H722 0.950 . S
C734 C733 1.398 . S
C734 C735 1.391 . S
C735 H723 0.950 . S
C735 C731 1.393 . S
C735 C734 1.391 . S
H736 C744 0.950 . S
H737 C749 0.950 1_455 S
H738 C746 0.950 . S
H739 C748 0.950 . S
H740 C750 0.950 . S
H741 C752 0.950 . S
H742 C754 0.950 . S
H743 C755 0.950 . S
C744 H736 0.950 . S
C744 C745 1.386 . S
C744 C746 1.391 . S
C745 C744 1.386 . S
C745 C749 1.393 . S
C746 H738 0.950 . S
C746 C744 1.391 . S
C746 C747 1.400 . S
C747 C746 1.400 . S
C747 C748 1.398 . S
C747 C753 1.491 . S
C748 H739 0.950 . S
C748 C747 1.398 . S
C748 C749 1.391 . S
C749 H737 0.950 1_655 S
C749 C745 1.393 . S
C749 C748 1.391 . S
C750 H740 0.950 . S
C750 C751 1.386 . S
C750 C752 1.391 . S
C751 C750 1.386 . S
C751 C755 1.393 . S
C752 H741 0.950 . S
C752 C750 1.391 . S
C752 C753 1.400 . S
C753 C747 1.491 . S
C753 C752 1.400 . S
C753 C754 1.398 . S
C754 H742 0.950 . S
C754 C753 1.398 . S
C754 C755 1.391 . S
C755 H743 0.950 . S
C755 C751 1.393 . S
C755 C754 1.391 . S
H756 C764 0.950 . S
H757 C769 0.950 . S
H758 C766 0.950 . S
H759 C768 0.950 . S
H760 C770 0.950 . S
H761 C772 0.950 . S
H762 C774 0.950 . S
H763 C775 0.950 . S
C764 H756 0.950 . S
C764 C765 1.386 . S
C764 C766 1.391 . S
C765 C764 1.386 . S
C765 C769 1.393 . S
C766 H758 0.950 . S
C766 C764 1.391 . S
C766 C767 1.400 . S
C767 C766 1.400 . S
C767 C768 1.398 . S
C767 C773 1.491 . S
C768 H759 0.950 . S
C768 C767 1.398 . S
C768 C769 1.391 . S
C769 H757 0.950 . S
C769 C765 1.393 . S
C769 C768 1.391 . S
C770 H760 0.950 . S
C770 C771 1.386 . S
C770 C772 1.391 . S
C771 C770 1.386 . S
C771 C775 1.393 . S
C772 H761 0.950 . S
C772 C770 1.391 . S
C772 C773 1.400 . S
C773 C767 1.491 . S
C773 C772 1.400 . S
C773 C774 1.398 . S
C774 H762 0.950 . S
C774 C773 1.398 . S
C774 C775 1.391 . S
C775 H763 0.950 . S
C775 C771 1.393 . S
C775 C774 1.391 . S
H776 C784 0.950 . S
H777 C789 0.950 . S
H778 C786 0.952 1_455 S
H779 C788 0.950 . S
H780 C790 0.950 . S
H781 C792 0.950 . S
H782 C794 0.950 . S
H783 C795 0.950 . S
C784 H776 0.950 . S
C784 C785 1.386 . S
C784 C786 1.354 1_455 S
C785 C784 1.386 . S
C785 C789 1.393 1_455 S
C786 H778 0.952 1_655 S
C786 C784 1.354 1_655 S
C786 C787 1.436 . S
C787 C786 1.436 . S
C787 C788 1.398 . S
C787 C793 1.491 . S
C788 H779 0.950 . S
C788 C787 1.398 . S
C788 C789 1.391 . S
C789 H777 0.950 . S
C789 C785 1.393 1_655 S
C789 C788 1.391 . S
C790 H780 0.950 . S
C790 C791 1.386 . S
C790 C792 1.391 . S
C791 C790 1.386 . S
C791 C795 1.393 . S
C792 H781 0.950 . S
C792 C790 1.391 . S
C792 C793 1.400 . S
C793 C787 1.491 . S
C793 C792 1.400 . S
C793 C794 1.398 . S
C794 H782 0.950 . S
C794 C793 1.398 . S
C794 C795 1.391 . S
C795 H783 0.950 . S
C795 C791 1.393 . S
C795 C794 1.391 . S
H796 C804 0.950 . S
H797 C809 0.950 . S
H798 C806 0.950 . S
H799 C808 0.950 . S
H800 C810 0.950 . S
H801 C812 0.950 . S
H802 C814 0.950 . S
H803 C815 0.950 . S
C804 H796 0.950 . S
C804 C805 1.386 . S
C804 C806 1.391 . S
C805 C804 1.386 . S
C805 C809 1.393 . S
C806 H798 0.950 . S
C806 C804 1.391 . S
C806 C807 1.400 . S
C807 C806 1.400 . S
C807 C808 1.398 . S
C807 C813 1.491 . S
C808 H799 0.950 . S
C808 C807 1.398 . S
C808 C809 1.391 . S
C809 H797 0.950 . S
C809 C805 1.393 . S
C809 C808 1.391 . S
C810 H800 0.950 . S
C810 C811 1.386 . S
C810 C812 1.391 . S
C811 C810 1.386 . S
C811 C815 1.393 . S
C812 H801 0.950 . S
C812 C810 1.391 . S
C812 C813 1.400 . S
C813 C807 1.491 . S
C813 C812 1.400 . S
C813 C814 1.398 . S
C814 H802 0.950 . S
C814 C813 1.398 . S
C814 C815 1.391 . S
C815 H803 0.950 . S
C815 C811 1.393 . S
C815 C814 1.391 . S
H816 C824 0.950 . S
H817 C829 0.950 . S
H818 C826 0.950 . S
H819 C828 0.950 . S
H820 C830 0.950 . S
H821 C832 0.950 . S
H822 C834 0.950 . S
H823 C835 0.950 . S
C824 H816 0.950 . S
C824 C825 1.386 . S
C824 C826 1.391 . S
C825 C824 1.386 . S
C825 C829 1.393 . S
C826 H818 0.950 . S
C826 C824 1.391 . S
C826 C827 1.400 . S
C827 C826 1.400 . S
C827 C828 1.398 . S
C827 C833 1.491 . S
C828 H819 0.950 . S
C828 C827 1.398 . S
C828 C829 1.391 . S
C829 H817 0.950 . S
C829 C825 1.393 . S
C829 C828 1.391 . S
C830 H820 0.950 . S
C830 C831 1.386 . S
C830 C832 1.391 . S
C831 C830 1.386 . S
C831 C835 1.393 . S
C832 H821 0.950 . S
C832 C830 1.391 . S
C832 C833 1.400 . S
C833 C827 1.491 . S
C833 C832 1.400 . S
C833 C834 1.398 . S
C834 H822 0.950 . S
C834 C833 1.398 . S
C834 C835 1.391 . S
C835 H823 0.950 . S
C835 C831 1.393 . S
C835 C834 1.391 . S
H836 C844 0.950 . S
H837 C849 0.950 . S
H838 C846 0.950 . S
H839 C848 0.950 . S
H840 C850 0.950 . S
H841 C852 0.950 . S
H842 C854 0.950 . S
H843 C855 0.950 . S
C844 H836 0.950 . S
C844 C845 1.386 . S
C844 C846 1.391 . S
C845 C844 1.386 . S
C845 C849 1.393 . S
C846 H838 0.950 . S
C846 C844 1.391 . S
C846 C847 1.400 . S
C847 C846 1.400 . S
C847 C848 1.398 . S
C847 C853 1.491 . S
C848 H839 0.950 . S
C848 C847 1.398 . S
C848 C849 1.391 . S
C849 H837 0.950 . S
C849 C845 1.393 . S
C849 C848 1.391 . S
C850 H840 0.950 . S
C850 C851 1.386 . S
C850 C852 1.391 . S
C851 C850 1.386 . S
C851 C855 1.393 . S
C852 H841 0.950 . S
C852 C850 1.391 . S
C852 C853 1.400 . S
C853 C847 1.491 . S
C853 C852 1.400 . S
C853 C854 1.398 . S
C854 H842 0.950 . S
C854 C853 1.398 . S
C854 C855 1.391 . S
C855 H843 0.950 . S
C855 C851 1.393 . S
C855 C854 1.391 . S
H856 C864 0.950 . S
H857 C869 0.950 . S
H858 C866 0.950 . S
H859 C868 0.950 . S
H860 C870 0.950 . S
H861 C872 0.950 . S
H862 C874 0.950 . S
H863 C875 0.950 . S
C864 H856 0.950 . S
C864 C865 1.386 . S
C864 C866 1.391 . S
C865 C864 1.386 . S
C865 C869 1.393 . S
C866 H858 0.950 . S
C866 C864 1.391 . S
C866 C867 1.400 . S
C867 C866 1.400 . S
C867 C868 1.398 . S
C867 C873 1.491 . S
C868 H859 0.950 . S
C868 C867 1.398 . S
C868 C869 1.391 . S
C869 H857 0.950 . S
C869 C865 1.393 . S
C869 C868 1.391 . S
C870 H860 0.950 . S
C870 C871 1.386 . S
C870 C872 1.391 . S
C871 C870 1.386 . S
C871 C875 1.393 . S
C872 H861 0.950 . S
C872 C870 1.391 . S
C872 C873 1.400 . S
C873 C867 1.491 . S
C873 C872 1.400 . S
C873 C874 1.398 . S
C874 H862 0.950 . S
C874 C873 1.398 . S
C874 C875 1.391 . S
C875 H863 0.950 . S
C875 C871 1.393 . S
C875 C874 1.391 . S
H876 C884 0.950 . S
H877 C889 0.950 . S
H878 C886 0.950 . S
H879 C888 0.950 . S
H880 C890 0.950 . S
H881 C892 0.950 . S
H882 C894 0.950 . S
H883 C895 0.950 . S
C884 H876 0.950 . S
C884 C885 1.386 . S
C884 C886 1.391 . S
C885 C884 1.386 . S
C885 C889 1.393 . S
C886 H878 0.950 . S
C886 C884 1.391 . S
C886 C887 1.400 . S
C887 C886 1.400 . S
C887 C888 1.398 . S
C887 C893 1.491 . S
C888 H879 0.950 . S
C888 C887 1.398 . S
C888 C889 1.391 . S
C889 H877 0.950 . S
C889 C885 1.393 . S
C889 C888 1.391 . S
C890 H880 0.950 . S
C890 C891 1.386 . S
C890 C892 1.391 . S
C891 C890 1.386 . S
C891 C895 1.393 . S
C892 H881 0.950 . S
C892 C890 1.391 . S
C892 C893 1.400 . S
C893 C887 1.491 . S
C893 C892 1.400 . S
C893 C894 1.398 . S
C894 H882 0.950 . S
C894 C893 1.398 . S
C894 C895 1.391 . S
C895 H883 0.950 . S
C895 C891 1.393 . S
C895 C894 1.391 . S
H896 C904 0.950 . S
H897 C909 0.950 . S
H898 C906 0.950 . S
H899 C908 0.950 . S
H900 C910 0.950 . S
H901 C912 0.950 . S
H902 C914 0.950 . S
H903 C915 0.950 . S
C904 H896 0.950 . S
C904 C905 1.386 . S
C904 C906 1.391 . S
C905 C904 1.386 . S
C905 C909 1.393 . S
C906 H898 0.950 . S
C906 C904 1.391 . S
C906 C907 1.400 . S
C907 C906 1.400 . S
C907 C908 1.398 . S
C907 C913 1.491 . S
C908 H899 0.950 . S
C908 C907 1.398 . S
C908 C909 1.391 . S
C909 H897 0.950 . S
C909 C905 1.393 . S
C909 C908 1.391 . S
C910 H900 0.950 . S
C910 C911 1.386 . S
C910 C912 1.391 . S
C911 C910 1.386 . S
C911 C915 1.393 . S
C912 H901 0.950 . S
C912 C910 1.391 . S
C912 C913 1.400 . S
C913 C907 1.491 . S
C913 C912 1.400 . S
C913 C914 1.398 . S
C914 H902 0.950 . S
C914 C913 1.398 . S
C914 C915 1.391 . S
C915 H903 0.950 . S
C915 C911 1.393 . S
C915 C914 1.391 . S
H916 C924 0.950 . S
H917 C929 0.950 . S
H918 C926 0.950 . S
H919 C928 0.950 . S
H920 C930 0.950 . S
H921 C932 0.950 . S
H922 C934 0.950 . S
H923 C935 0.950 . S
C924 H916 0.950 . S
C924 C925 1.386 . S
C924 C926 1.391 . S
C925 C924 1.386 . S
C925 C929 1.393 . S
C926 H918 0.950 . S
C926 C924 1.391 . S
C926 C927 1.400 . S
C927 C926 1.400 . S
C927 C928 1.398 . S
C927 C933 1.491 . S
C928 H919 0.950 . S
C928 C927 1.398 . S
C928 C929 1.391 . S
C929 H917 0.950 . S
C929 C925 1.393 . S
C929 C928 1.391 . S
C930 H920 0.950 . S
C930 C931 1.386 . S
C930 C932 1.391 . S
C931 C930 1.386 . S
C931 C935 1.393 . S
C932 H921 0.950 . S
C932 C930 1.391 . S
C932 C933 1.400 . S
C933 C927 1.491 . S
C933 C932 1.400 . S
C933 C934 1.398 . S
C934 H922 0.950 . S
C934 C933 1.398 . S
C934 C935 1.391 . S
C935 H923 0.950 . S
C935 C931 1.393 . S
C935 C934 1.391 . S
H936 C944 0.950 . S
H937 C949 0.950 . S
H938 C946 0.950 . S
H939 C948 0.950 . S
H940 C950 0.950 . S
H941 C952 0.950 . S
H942 C954 0.950 . S
H943 C955 0.950 . S
C944 H936 0.950 . S
C944 C945 1.386 . S
C944 C946 1.391 . S
C945 C944 1.386 . S
C945 C949 1.393 . S
C946 H938 0.950 . S
C946 C944 1.391 . S
C946 C947 1.400 . S
C947 C946 1.400 . S
C947 C948 1.398 . S
C947 C953 1.491 . S
C948 H939 0.950 . S
C948 C947 1.398 . S
C948 C949 1.391 . S
C949 H937 0.950 . S
C949 C945 1.393 . S
C949 C948 1.391 . S
C950 H940 0.950 . S
C950 C951 1.386 . S
C950 C952 1.391 . S
C951 C950 1.386 . S
C951 C955 1.393 . S
C952 H941 0.950 . S
C952 C950 1.391 . S
C952 C953 1.400 . S
C953 C947 1.491 . S
C953 C952 1.400 . S
C953 C954 1.398 . S
C954 H942 0.950 . S
C954 C953 1.398 . S
C954 C955 1.391 . S
C955 H943 0.950 . S
C955 C951 1.393 . S
C955 C954 1.391 . S
H956 C964 0.950 . S
H957 C969 0.950 . S
H958 C966 0.950 . S
H959 C968 0.950 . S
H960 C970 0.950 . S
H961 C972 0.950 . S
H962 C974 0.950 . S
H963 C975 0.950 . S
C964 H956 0.950 . S
C964 C965 1.386 . S
C964 C966 1.391 . S
C965 C964 1.386 . S
C965 C969 1.393 . S
C966 H958 0.950 . S
C966 C964 1.391 . S
C966 C967 1.400 . S
C967 C966 1.400 . S
C967 C968 1.398 . S
C967 C973 1.491 . S
C968 H959 0.950 . S
C968 C967 1.398 . S
C968 C969 1.391 . S
C969 H957 0.950 . S
C969 C965 1.393 . S
C969 C968 1.391 . S
C970 H960 0.950 . S
C970 C971 1.386 . S
C970 C972 1.391 . S
C971 C970 1.386 . S
C971 C975 1.393 . S
C972 H961 0.950 . S
C972 C970 1.391 . S
C972 C973 1.400 . S
C973 C967 1.491 . S
C973 C972 1.400 . S
C973 C974 1.398 . S
C974 H962 0.950 . S
C974 C973 1.398 . S
C974 C975 1.391 . S
C975 H963 0.950 . S
C975 C971 1.393 . S
C975 C974 1.391 . S
H976 C984 0.950 1_554 S
H977 C989 0.950 . S
H978 C986 0.950 . S
H979 C988 0.950 . S
H980 C990 0.950 . S
H981 C992 0.950 . S
H982 C994 0.950 . S
H983 C995 0.950 . S
C984 H976 0.950 1_556 S
C984 C985 1.386 . S
C984 C986 1.391 1_455 S
C985 C984 1.386 . S
C985 C989 1.393 . S
C986 H978 0.950 . S
C986 C984 1.391 1_655 S
C986 C987 1.400 . S
C987 C986 1.400 . S
C987 C988 1.398 1_655 S
C987 C993 1.491 . S
C988 H979 0.950 . S
C988 C987 1.398 1_455 S
C988 C989 1.391 . S
C989 H977 0.950 . S
C989 C985 1.393 . S
C989 C988 1.391 . S
C990 H980 0.950 . S
C990 C991 1.386 . S
C990 C992 1.391 . S
C991 C990 1.386 . S
C991 C995 1.393 . S
C992 H981 0.950 . S
C992 C990 1.391 . S
C992 C993 1.400 . S
C993 C987 1.491 . S
C993 C992 1.400 . S
C993 C994 1.398 . S
C994 H982 0.950 . S
C994 C993 1.398 . S
C994 C995 1.391 . S
C995 H983 0.950 . S
C995 C991 1.393 . S
C995 C994 1.391 . S
H996 C1004 0.950 . S
H997 C1009 0.950 . S
H998 C1006 0.950 . S
H999 C1008 0.950 . S
H1000 C1010 0.950 . S
H1001 C1012 0.950 . S
H1002 C1014 0.950 . S
H1003 C1015 0.950 . S
C1004 H996 0.950 . S
C1004 C1005 1.386 . S
C1004 C1006 1.391 . S
C1005 C1004 1.386 . S
C1005 C1009 1.393 . S
C1006 H998 0.950 . S
C1006 C1004 1.391 . S
C1006 C1007 1.400 . S
C1007 C1006 1.400 . S
C1007 C1008 1.398 . S
C1007 C1013 1.491 . S
C1008 H999 0.950 . S
C1008 C1007 1.398 . S
C1008 C1009 1.391 . S
C1009 H997 0.950 . S
C1009 C1005 1.393 . S
C1009 C1008 1.391 . S
C1010 H1000 0.950 . S
C1010 C1011 1.386 . S
C1010 C1012 1.391 . S
C1011 C1010 1.386 . S
C1011 C1015 1.393 . S
C1012 H1001 0.950 . S
C1012 C1010 1.391 . S
C1012 C1013 1.400 . S
C1013 C1007 1.491 . S
C1013 C1012 1.400 . S
C1013 C1014 1.398 . S
C1014 H1002 0.950 . S
C1014 C1013 1.398 . S
C1014 C1015 1.391 . S
C1015 H1003 0.950 . S
C1015 C1011 1.393 . S
C1015 C1014 1.391 . S
H1016 C1024 0.950 . S
H1017 C1029 0.950 . S
H1018 C1026 0.950 . S
H1019 C1028 0.950 . S
H1020 C1030 0.950 . S
H1021 C1032 0.950 . S
H1022 C1034 0.950 . S
H1023 C1035 0.950 . S
C1024 H1016 0.950 . S
C1024 C1025 1.386 . S
C1024 C1026 1.391 . S
C1025 C1024 1.386 . S
C1025 C1029 1.393 . S
C1026 H1018 0.950 . S
C1026 C1024 1.391 . S
C1026 C1027 1.400 . S
C1027 C1026 1.400 . S
C1027 C1028 1.398 . S
C1027 C1033 1.491 . S
C1028 H1019 0.950 . S
C1028 C1027 1.398 . S
C1028 C1029 1.391 . S
C1029 H1017 0.950 . S
C1029 C1025 1.393 . S
C1029 C1028 1.391 . S
C1030 H1020 0.950 . S
C1030 C1031 1.386 . S
C1030 C1032 1.391 . S
C1031 C1030 1.386 . S
C1031 C1035 1.393 . S
C1032 H1021 0.950 . S
C1032 C1030 1.391 . S
C1032 C1033 1.400 . S
C1033 C1027 1.491 . S
C1033 C1032 1.400 . S
C1033 C1034 1.398 . S
C1034 H1022 0.950 . S
C1034 C1033 1.398 . S
C1034 C1035 1.391 . S
C1035 H1023 0.950 . S
C1035 C1031 1.393 . S
C1035 C1034 1.391 . S
H1036 C1044 0.950 . S
H1037 C1049 0.950 . S
H1038 C1046 0.950 . S
H1039 C1048 0.950 . S
H1040 C1050 0.950 . S
H1041 C1052 0.950 . S
H1042 C1054 0.950 . S
H1043 C1055 0.950 . S
C1044 H1036 0.950 . S
C1044 C1045 1.386 . S
C1044 C1046 1.391 . S
C1045 C1044 1.386 . S
C1045 C1049 1.393 . S
C1046 H1038 0.950 . S
C1046 C1044 1.391 . S
C1046 C1047 1.400 . S
C1047 C1046 1.400 . S
C1047 C1048 1.398 . S
C1047 C1053 1.491 . S
C1048 H1039 0.950 . S
C1048 C1047 1.398 . S
C1048 C1049 1.391 . S
C1049 H1037 0.950 . S
C1049 C1045 1.393 . S
C1049 C1048 1.391 . S
C1050 H1040 0.950 . S
C1050 C1051 1.386 . S
C1050 C1052 1.391 . S
C1051 C1050 1.386 . S
C1051 C1055 1.393 . S
C1052 H1041 0.950 . S
C1052 C1050 1.391 . S
C1052 C1053 1.400 . S
C1053 C1047 1.491 . S
C1053 C1052 1.400 . S
C1053 C1054 1.398 . S
C1054 H1042 0.950 . S
C1054 C1053 1.398 . S
C1054 C1055 1.391 . S
C1055 H1043 0.950 . S
C1055 C1051 1.393 . S
C1055 C1054 1.391 . S
H1056 C1064 0.950 . S
H1057 C1069 0.950 . S
H1058 C1066 0.950 . S
H1059 C1068 0.950 . S
H1060 C1070 0.950 . S
H1061 C1072 0.950 . S
H1062 C1074 0.950 . S
H1063 C1075 0.950 . S
C1064 H1056 0.950 . S
C1064 C1065 1.386 . S
C1064 C1066 1.391 . S
C1065 C1064 1.386 . S
C1065 C1069 1.393 . S
C1066 H1058 0.950 . S
C1066 C1064 1.391 . S
C1066 C1067 1.400 . S
C1067 C1066 1.400 . S
C1067 C1068 1.398 . S
C1067 C1073 1.491 . S
C1068 H1059 0.950 . S
C1068 C1067 1.398 . S
C1068 C1069 1.391 . S
C1069 H1057 0.950 . S
C1069 C1065 1.393 . S
C1069 C1068 1.391 . S
C1070 H1060 0.950 . S
C1070 C1071 1.386 . S
C1070 C1072 1.391 . S
C1071 C1070 1.386 . S
C1071 C1075 1.393 . S
C1072 H1061 0.950 . S
C1072 C1070 1.391 . S
C1072 C1073 1.400 . S
C1073 C1067 1.491 . S
C1073 C1072 1.400 . S
C1073 C1074 1.398 . S
C1074 H1062 0.950 . S
C1074 C1073 1.398 . S
C1074 C1075 1.391 . S
C1075 H1063 0.950 . S
C1075 C1071 1.393 . S
C1075 C1074 1.391 . S
H1076 C1084 0.950 . S
H1077 C1089 0.950 . S
H1078 C1086 0.950 . S
H1079 C1088 0.950 . S
H1080 C1090 0.950 . S
H1081 C1092 0.950 . S
H1082 C1094 0.950 . S
H1083 C1095 0.950 . S
C1084 H1076 0.950 . S
C1084 C1085 1.386 . S
C1084 C1086 1.391 . S
C1085 C1084 1.386 . S
C1085 C1089 1.393 . S
C1086 H1078 0.950 . S
C1086 C1084 1.391 . S
C1086 C1087 1.400 . S
C1087 C1086 1.400 . S
C1087 C1088 1.398 . S
C1087 C1093 1.491 . S
C1088 H1079 0.950 . S
C1088 C1087 1.398 . S
C1088 C1089 1.391 . S
C1089 H1077 0.950 . S
C1089 C1085 1.393 . S
C1089 C1088 1.391 . S
C1090 H1080 0.950 . S
C1090 C1091 1.386 . S
C1090 C1092 1.391 . S
C1091 C1090 1.386 . S
C1091 C1095 1.393 . S
C1092 H1081 0.950 . S
C1092 C1090 1.391 . S
C1092 C1093 1.400 . S
C1093 C1087 1.491 . S
C1093 C1092 1.400 . S
C1093 C1094 1.398 . S
C1094 H1082 0.950 . S
C1094 C1093 1.398 . S
C1094 C1095 1.391 . S
C1095 H1083 0.950 . S
C1095 C1091 1.393 . S
C1095 C1094 1.391 . S
H1096 C1104 0.950 . S
H1097 C1109 0.950 . S
H1098 C1106 0.950 . S
H1099 C1108 0.950 . S
H1100 C1110 0.950 . S
H1101 C1112 0.950 . S
H1102 C1114 0.950 . S
H1103 C1115 0.950 . S
C1104 H1096 0.950 . S
C1104 C1105 1.386 . S
C1104 C1106 1.391 . S
C1105 C1104 1.386 . S
C1105 C1109 1.393 . S
C1106 H1098 0.950 . S
C1106 C1104 1.391 . S
C1106 C1107 1.400 . S
C1107 C1106 1.400 . S
C1107 C1108 1.398 . S
C1107 C1113 1.491 . S
C1108 H1099 0.950 . S
C1108 C1107 1.398 . S
C1108 C1109 1.391 . S
C1109 H1097 0.950 . S
C1109 C1105 1.393 . S
C1109 C1108 1.391 . S
C1110 H1100 0.950 . S
C1110 C1111 1.386 . S
C1110 C1112 1.391 . S
C1111 C1110 1.386 . S
C1111 C1115 1.393 . S
C1112 H1101 0.950 . S
C1112 C1110 1.391 . S
C1112 C1113 1.400 . S
C1113 C1107 1.491 . S
C1113 C1112 1.400 . S
C1113 C1114 1.398 . S
C1114 H1102 0.950 . S
C1114 C1113 1.398 . S
C1114 C1115 1.391 . S
C1115 H1103 0.950 . S
C1115 C1111 1.393 . S
C1115 C1114 1.391 . S
H1116 C1124 0.950 . S
H1117 C1129 0.950 . S
H1118 C1126 0.950 . S
H1119 C1128 0.950 . S
H1120 C1130 0.950 . S
H1121 C1132 0.950 . S
H1122 C1134 0.950 . S
H1123 C1135 0.950 . S
C1124 H1116 0.950 . S
C1124 C1125 1.386 . S
C1124 C1126 1.391 . S
C1125 C1124 1.386 . S
C1125 C1129 1.393 . S
C1126 H1118 0.950 . S
C1126 C1124 1.391 . S
C1126 C1127 1.400 . S
C1127 C1126 1.400 . S
C1127 C1128 1.398 . S
C1127 C1133 1.491 . S
C1128 H1119 0.950 . S
C1128 C1127 1.398 . S
C1128 C1129 1.391 . S
C1129 H1117 0.950 . S
C1129 C1125 1.393 . S
C1129 C1128 1.391 . S
C1130 H1120 0.950 . S
C1130 C1131 1.386 . S
C1130 C1132 1.391 . S
C1131 C1130 1.386 . S
C1131 C1135 1.393 . S
C1132 H1121 0.950 . S
C1132 C1130 1.391 . S
C1132 C1133 1.400 . S
C1133 C1127 1.491 . S
C1133 C1132 1.400 . S
C1133 C1134 1.398 . S
C1134 H1122 0.950 . S
C1134 C1133 1.398 . S
C1134 C1135 1.391 . S
C1135 H1123 0.950 . S
C1135 C1131 1.393 . S
C1135 C1134 1.391 . S
H1136 C1144 0.950 . S
H1137 C1149 0.950 . S
H1138 C1146 0.950 . S
H1139 C1148 0.950 . S
H1140 C1150 0.950 . S
H1141 C1152 0.950 . S
H1142 C1154 0.950 . S
H1143 C1155 0.950 . S
C1144 H1136 0.950 . S
C1144 C1145 1.386 . S
C1144 C1146 1.391 . S
C1145 C1144 1.386 . S
C1145 C1149 1.393 . S
C1146 H1138 0.950 . S
C1146 C1144 1.391 . S
C1146 C1147 1.400 . S
C1147 C1146 1.400 . S
C1147 C1148 1.398 . S
C1147 C1153 1.491 . S
C1148 H1139 0.950 . S
C1148 C1147 1.398 . S
C1148 C1149 1.391 . S
C1149 H1137 0.950 . S
C1149 C1145 1.393 . S
C1149 C1148 1.391 . S
C1150 H1140 0.950 . S
C1150 C1151 1.386 . S
C1150 C1152 1.391 . S
C1151 C1150 1.386 . S
C1151 C1155 1.393 . S
C1152 H1141 0.950 . S
C1152 C1150 1.391 . S
C1152 C1153 1.400 . S
C1153 C1147 1.491 . S
C1153 C1152 1.400 . S
C1153 C1154 1.398 . S
C1154 H1142 0.950 . S
C1154 C1153 1.398 . S
C1154 C1155 1.391 . S
C1155 H1143 0.950 . S
C1155 C1151 1.393 . S
C1155 C1154 1.391 . S
H1156 C1164 0.950 . S
H1157 C1169 0.950 . S
H1158 C1166 0.950 . S
H1159 C1168 0.950 . S
H1160 C1170 0.950 . S
H1161 C1172 0.950 . S
H1162 C1174 0.950 . S
H1163 C1175 0.950 . S
C1164 H1156 0.950 . S
C1164 C1165 1.386 . S
C1164 C1166 1.391 . S
C1165 C1164 1.386 . S
C1165 C1169 1.393 . S
C1166 H1158 0.950 . S
C1166 C1164 1.391 . S
C1166 C1167 1.400 . S
C1167 C1166 1.400 . S
C1167 C1168 1.398 . S
C1167 C1173 1.491 . S
C1168 H1159 0.950 . S
C1168 C1167 1.398 . S
C1168 C1169 1.391 . S
C1169 H1157 0.950 . S
C1169 C1165 1.393 . S
C1169 C1168 1.391 . S
C1170 H1160 0.950 . S
C1170 C1171 1.386 . S
C1170 C1172 1.391 . S
C1171 C1170 1.386 . S
C1171 C1175 1.393 . S
C1172 H1161 0.950 . S
C1172 C1170 1.391 . S
C1172 C1173 1.400 . S
C1173 C1167 1.491 . S
C1173 C1172 1.400 . S
C1173 C1174 1.398 . S
C1174 H1162 0.950 . S
C1174 C1173 1.398 . S
C1174 C1175 1.391 . S
C1175 H1163 0.950 . S
C1175 C1171 1.393 . S
C1175 C1174 1.391 . S
H1176 C1184 0.950 . S
H1177 C1189 0.950 . S
H1178 C1186 0.950 . S
H1179 C1188 0.950 . S
H1180 C1190 0.950 . S
H1181 C1192 0.950 . S
H1182 C1194 0.950 . S
H1183 C1195 0.950 . S
C1184 H1176 0.950 . S
C1184 C1185 1.386 . S
C1184 C1186 1.391 . S
C1185 C1184 1.386 . S
C1185 C1189 1.393 . S
C1186 H1178 0.950 . S
C1186 C1184 1.391 . S
C1186 C1187 1.400 . S
C1187 C1186 1.400 . S
C1187 C1188 1.398 . S
C1187 C1193 1.491 . S
C1188 H1179 0.950 . S
C1188 C1187 1.398 . S
C1188 C1189 1.391 . S
C1189 H1177 0.950 . S
C1189 C1185 1.393 . S
C1189 C1188 1.391 . S
C1190 H1180 0.950 . S
C1190 C1191 1.386 . S
C1190 C1192 1.391 . S
C1191 C1190 1.386 . S
C1191 C1195 1.393 . S
C1192 H1181 0.950 . S
C1192 C1190 1.391 . S
C1192 C1193 1.400 . S
C1193 C1187 1.491 . S
C1193 C1192 1.400 . S
C1193 C1194 1.398 . S
C1194 H1182 0.950 . S
C1194 C1193 1.398 . S
C1194 C1195 1.391 . S
C1195 H1183 0.950 . S
C1195 C1191 1.393 . S
C1195 C1194 1.391 . S
H1196 C1204 0.950 . S
H1197 C1209 0.950 . S
H1198 C1206 0.950 . S
H1199 C1208 0.950 . S
H1200 C1210 0.950 . S
H1201 C1212 0.950 . S
H1202 C1214 0.950 . S
H1203 C1215 0.950 . S
C1204 H1196 0.950 . S
C1204 C1205 1.386 . S
C1204 C1206 1.391 . S
C1205 C1204 1.386 . S
C1205 C1209 1.393 . S
C1206 H1198 0.950 . S
C1206 C1204 1.391 . S
C1206 C1207 1.400 . S
C1207 C1206 1.400 . S
C1207 C1208 1.398 . S
C1207 C1213 1.491 . S
C1208 H1199 0.950 . S
C1208 C1207 1.398 . S
C1208 C1209 1.391 . S
C1209 H1197 0.950 . S
C1209 C1205 1.393 . S
C1209 C1208 1.391 . S
C1210 H1200 0.950 . S
C1210 C1211 1.386 . S
C1210 C1212 1.391 . S
C1211 C1210 1.386 . S
C1211 C1215 1.393 . S
C1212 H1201 0.950 . S
C1212 C1210 1.391 . S
C1212 C1213 1.400 . S
C1213 C1207 1.491 . S
C1213 C1212 1.400 . S
C1213 C1214 1.398 . S
C1214 H1202 0.950 . S
C1214 C1213 1.398 . S
C1214 C1215 1.391 . S
C1215 H1203 0.950 . S
C1215 C1211 1.393 . S
C1215 C1214 1.391 . S
H1216 C1224 0.950 . S
H1217 C1229 0.950 . S
H1218 C1226 0.950 . S
H1219 C1228 0.950 . S
H1220 C1230 0.950 . S
H1221 C1232 0.950 . S
H1222 C1234 0.950 . S
H1223 C1235 0.950 . S
C1224 H1216 0.950 . S
C1224 C1225 1.386 . S
C1224 C1226 1.391 . S
C1225 C1224 1.386 . S
C1225 C1229 1.393 . S
C1226 H1218 0.950 . S
C1226 C1224 1.391 . S
C1226 C1227 1.400 . S
C1227 C1226 1.400 . S
C1227 C1228 1.398 . S
C1227 C1233 1.491 . S
C1228 H1219 0.950 . S
C1228 C1227 1.398 . S
C1228 C1229 1.391 . S
C1229 H1217 0.950 . S
C1229 C1225 1.393 . S
C1229 C1228 1.391 . S
C1230 H1220 0.950 . S
C1230 C1231 1.386 . S
C1230 C1232 1.391 . S
C1231 C1230 1.386 . S
C1231 C1235 1.393 . S
C1232 H1221 0.950 . S
C1232 C1230 1.391 . S
C1232 C1233 1.400 . S
C1233 C1227 1.491 . S
C1233 C1232 1.400 . S
C1233 C1234 1.398 . S
C1234 H1222 0.950 . S
C1234 C1233 1.398 . S
C1234 C1235 1.391 . S
C1235 H1223 0.950 . S
C1235 C1231 1.393 . S
C1235 C1234 1.391 . S
H1236 C1244 0.950 . S
H1237 C1249 0.950 . S
H1238 C1246 0.950 . S
H1239 C1248 0.950 . S
H1240 C1250 0.950 . S
H1241 C1252 0.950 . S
H1242 C1254 0.950 . S
H1243 C1255 0.950 . S
C1244 H1236 0.950 . S
C1244 C1245 1.386 . S
C1244 C1246 1.391 . S
C1245 C1244 1.386 . S
C1245 C1249 1.393 . S
C1246 H1238 0.950 . S
C1246 C1244 1.391 . S
C1246 C1247 1.400 . S
C1247 C1246 1.400 . S
C1247 C1248 1.398 . S
C1247 C1253 1.491 . S
C1248 H1239 0.950 . S
C1248 C1247 1.398 . S
C1248 C1249 1.391 . S
C1249 H1237 0.950 . S
C1249 C1245 1.393 . S
C1249 C1248 1.391 . S
C1250 H1240 0.950 . S
C1250 C1251 1.386 . S
C1250 C1252 1.391 . S
C1251 C1250 1.386 . S
C1251 C1255 1.393 . S
C1252 H1241 0.950 . S
C1252 C1250 1.391 . S
C1252 C1253 1.400 . S
C1253 C1247 1.491 . S
C1253 C1252 1.400 . S
C1253 C1254 1.398 . S
C1254 H1242 0.950 . S
C1254 C1253 1.398 . S
C1254 C1255 1.391 . S
C1255 H1243 0.950 . S
C1255 C1251 1.393 . S
C1255 C1254 1.391 . S
H1256 C1264 0.950 . S
H1257 C1269 0.950 . S
H1258 C1266 0.950 . S
H1259 C1268 0.950 . S
H1260 C1270 0.950 . S
H1261 C1272 0.950 . S
H1262 C1274 0.950 . S
H1263 C1275 0.950 . S
C1264 H1256 0.950 . S
C1264 C1265 1.386 . S
C1264 C1266 1.391 . S
C1265 C1264 1.386 . S
C1265 C1269 1.393 . S
C1266 H1258 0.950 . S
C1266 C1264 1.391 . S
C1266 C1267 1.400 . S
C1267 C1266 1.400 . S
C1267 C1268 1.398 . S
C1267 C1273 1.491 . S
C1268 H1259 0.950 . S
C1268 C1267 1.398 . S
C1268 C1269 1.391 . S
C1269 H1257 0.950 . S
C1269 C1265 1.393 . S
C1269 C1268 1.391 . S
C1270 H1260 0.950 . S
C1270 C1271 1.386 . S
C1270 C1272 1.391 . S
C1271 C1270 1.386 . S
C1271 C1275 1.393 . S
C1272 H1261 0.950 . S
C1272 C1270 1.391 . S
C1272 C1273 1.400 . S
C1273 C1267 1.491 . S
C1273 C1272 1.400 . S
C1273 C1274 1.398 . S
C1274 H1262 0.950 . S
C1274 C1273 1.398 . S
C1274 C1275 1.391 . S
C1275 H1263 0.950 . S
C1275 C1271 1.393 . S
C1275 C1274 1.391 . S
H1276 C1284 0.950 . S
H1277 C1289 0.950 . S
H1278 C1286 0.950 . S
H1279 C1288 0.950 . S
H1280 C1290 0.950 . S
H1281 C1292 0.950 . S
H1282 C1294 0.950 . S
H1283 C1295 0.950 . S
C1284 H1276 0.950 . S
C1284 C1285 1.386 . S
C1284 C1286 1.391 . S
C1285 C1284 1.386 . S
C1285 C1289 1.393 . S
C1286 H1278 0.950 . S
C1286 C1284 1.391 . S
C1286 C1287 1.400 . S
C1287 C1286 1.400 . S
C1287 C1288 1.398 . S
C1287 C1293 1.491 . S
C1288 H1279 0.950 . S
C1288 C1287 1.398 . S
C1288 C1289 1.391 . S
C1289 H1277 0.950 . S
C1289 C1285 1.393 . S
C1289 C1288 1.391 . S
C1290 H1280 0.950 . S
C1290 C1291 1.386 . S
C1290 C1292 1.391 . S
C1291 C1290 1.386 . S
C1291 C1295 1.393 . S
C1292 H1281 0.950 . S
C1292 C1290 1.391 . S
C1292 C1293 1.400 . S
C1293 C1287 1.491 . S
C1293 C1292 1.400 . S
C1293 C1294 1.398 . S
C1294 H1282 0.950 . S
C1294 C1293 1.398 . S
C1294 C1295 1.391 . S
C1295 H1283 0.950 . S
C1295 C1291 1.393 . S
C1295 C1294 1.391 . S
H1296 C1304 0.950 . S
H1297 C1309 0.950 . S
H1298 C1306 0.950 . S
H1299 C1308 0.950 . S
H1300 C1310 0.950 . S
H1301 C1312 0.950 . S
H1302 C1314 0.950 . S
H1303 C1315 0.950 . S
C1304 H1296 0.950 . S
C1304 C1305 1.386 . S
C1304 C1306 1.391 . S
C1305 C1304 1.386 . S
C1305 C1309 1.393 . S
C1306 H1298 0.950 . S
C1306 C1304 1.391 . S
C1306 C1307 1.400 . S
C1307 C1306 1.400 . S
C1307 C1308 1.398 . S
C1307 C1313 1.491 . S
C1308 H1299 0.950 . S
C1308 C1307 1.398 . S
C1308 C1309 1.391 . S
C1309 H1297 0.950 . S
C1309 C1305 1.393 . S
C1309 C1308 1.391 . S
C1310 H1300 0.950 . S
C1310 C1311 1.386 . S
C1310 C1312 1.391 . S
C1311 C1310 1.386 . S
C1311 C1315 1.393 . S
C1312 H1301 0.950 . S
C1312 C1310 1.391 . S
C1312 C1313 1.400 . S
C1313 C1307 1.491 . S
C1313 C1312 1.400 . S
C1313 C1314 1.398 . S
C1314 H1302 0.950 . S
C1314 C1313 1.398 . S
C1314 C1315 1.391 . S
C1315 H1303 0.950 . S
C1315 C1311 1.393 . S
C1315 C1314 1.391 . S
H1316 C1324 0.950 . S
H1317 C1329 0.950 . S
H1318 C1326 0.950 . S
H1319 C1328 0.950 . S
H1320 C1330 0.950 . S
H1321 C1332 0.950 . S
H1322 C1334 0.950 . S
H1323 C1335 0.950 . S
C1324 H1316 0.950 . S
C1324 C1325 1.386 . S
C1324 C1326 1.391 . S
C1325 C1324 1.386 . S
C1325 C1329 1.393 . S
C1326 H1318 0.950 . S
C1326 C1324 1.391 . S
C1326 C1327 1.400 . S
C1327 C1326 1.400 . S
C1327 C1328 1.398 . S
C1327 C1333 1.491 . S
C1328 H1319 0.950 . S
C1328 C1327 1.398 . S
C1328 C1329 1.391 . S
C1329 H1317 0.950 . S
C1329 C1325 1.393 . S
C1329 C1328 1.391 . S
C1330 H1320 0.950 . S
C1330 C1331 1.386 . S
C1330 C1332 1.391 . S
C1331 C1330 1.386 . S
C1331 C1335 1.393 . S
C1332 H1321 0.950 . S
C1332 C1330 1.391 . S
C1332 C1333 1.400 . S
C1333 C1327 1.491 . S
C1333 C1332 1.400 . S
C1333 C1334 1.398 . S
C1334 H1322 0.950 . S
C1334 C1333 1.398 . S
C1334 C1335 1.391 . S
C1335 H1323 0.950 . S
C1335 C1331 1.393 . S
C1335 C1334 1.391 . S
H1336 C1344 0.950 . S
H1337 C1349 0.950 . S
H1338 C1346 0.950 . S
H1339 C1348 0.950 . S
H1340 C1350 0.950 . S
H1341 C1352 0.950 . S
H1342 C1354 0.950 . S
H1343 C1355 0.950 . S
C1344 H1336 0.950 . S
C1344 C1345 1.386 . S
C1344 C1346 1.391 . S
C1345 C1344 1.386 . S
C1345 C1349 1.393 . S
C1346 H1338 0.950 . S
C1346 C1344 1.391 . S
C1346 C1347 1.400 . S
C1347 C1346 1.400 . S
C1347 C1348 1.398 . S
C1347 C1353 1.491 . S
C1348 H1339 0.950 . S
C1348 C1347 1.398 . S
C1348 C1349 1.391 . S
C1349 H1337 0.950 . S
C1349 C1345 1.393 . S
C1349 C1348 1.391 . S
C1350 H1340 0.950 . S
C1350 C1351 1.386 . S
C1350 C1352 1.391 . S
C1351 C1350 1.386 . S
C1351 C1355 1.393 . S
C1352 H1341 0.950 . S
C1352 C1350 1.391 . S
C1352 C1353 1.400 . S
C1353 C1347 1.491 . S
C1353 C1352 1.400 . S
C1353 C1354 1.398 . S
C1354 H1342 0.950 . S
C1354 C1353 1.398 . S
C1354 C1355 1.391 . S
C1355 H1343 0.950 . S
C1355 C1351 1.393 . S
C1355 C1354 1.391 . S
H1356 C1364 0.950 . S
H1357 C1369 0.950 . S
H1358 C1366 0.950 . S
H1359 C1368 0.950 . S
H1360 C1370 0.950 . S
H1361 C1372 0.950 . S
H1362 C1374 0.950 . S
H1363 C1375 0.950 . S
C1364 H1356 0.950 . S
C1364 C1365 1.386 . S
C1364 C1366 1.391 . S
C1365 C1364 1.386 . S
C1365 C1369 1.393 . S
C1366 H1358 0.950 . S
C1366 C1364 1.391 . S
C1366 C1367 1.400 . S
C1367 C1366 1.400 . S
C1367 C1368 1.398 . S
C1367 C1373 1.491 . S
C1368 H1359 0.950 . S
C1368 C1367 1.398 . S
C1368 C1369 1.391 . S
C1369 H1357 0.950 . S
C1369 C1365 1.393 . S
C1369 C1368 1.391 . S
C1370 H1360 0.950 . S
C1370 C1371 1.386 . S
C1370 C1372 1.391 . S
C1371 C1370 1.386 . S
C1371 C1375 1.393 . S
C1372 H1361 0.950 . S
C1372 C1370 1.391 . S
C1372 C1373 1.400 . S
C1373 C1367 1.491 . S
C1373 C1372 1.400 . S
C1373 C1374 1.398 . S
C1374 H1362 0.950 . S
C1374 C1373 1.398 . S
C1374 C1375 1.391 . S
C1375 H1363 0.950 . S
C1375 C1371 1.393 . S
C1375 C1374 1.391 . S
H1376 C1384 0.950 . S
H1377 C1389 0.950 . S
H1378 C1386 0.950 . S
H1379 C1388 0.950 . S
H1380 C1390 0.950 . S
H1381 C1392 0.950 . S
H1382 C1394 0.950 . S
H1383 C1395 0.950 . S
C1384 H1376 0.950 . S
C1384 C1385 1.386 . S
C1384 C1386 1.391 . S
C1385 C1384 1.386 . S
C1385 C1389 1.393 . S
C1386 H1378 0.950 . S
C1386 C1384 1.391 . S
C1386 C1387 1.400 . S
C1387 C1386 1.400 . S
C1387 C1388 1.398 . S
C1387 C1393 1.491 . S
C1388 H1379 0.950 . S
C1388 C1387 1.398 . S
C1388 C1389 1.391 . S
C1389 H1377 0.950 . S
C1389 C1385 1.393 . S
C1389 C1388 1.391 . S
C1390 H1380 0.950 . S
C1390 C1391 1.386 . S
C1390 C1392 1.391 . S
C1391 C1390 1.386 . S
C1391 C1395 1.393 . S
C1392 H1381 0.950 . S
C1392 C1390 1.391 . S
C1392 C1393 1.400 . S
C1393 C1387 1.491 . S
C1393 C1392 1.400 . S
C1393 C1394 1.398 . S
C1394 H1382 0.950 . S
C1394 C1393 1.398 . S
C1394 C1395 1.391 . S
C1395 H1383 0.950 . S
C1395 C1391 1.393 . S
C1395 C1394 1.391 . S
H1396 C1404 0.950 . S
H1397 C1409 0.950 . S
H1398 C1406 0.950 . S
H1399 C1408 0.950 . S
H1400 C1410 0.950 . S
H1401 C1412 0.950 . S
H1402 C1414 0.950 . S
H1403 C1415 0.950 . S
C1404 H1396 0.950 . S
C1404 C1405 1.386 . S
C1404 C1406 1.391 . S
C1405 C1404 1.386 . S
C1405 C1409 1.393 . S
C1406 H1398 0.950 . S
C1406 C1404 1.391 . S
C1406 C1407 1.400 . S
C1407 C1406 1.400 . S
C1407 C1408 1.398 . S
C1407 C1413 1.491 . S
C1408 H1399 0.950 . S
C1408 C1407 1.398 . S
C1408 C1409 1.391 . S
C1409 H1397 0.950 . S
C1409 C1405 1.393 . S
C1409 C1408 1.391 . S
C1410 H1400 0.950 . S
C1410 C1411 1.386 . S
C1410 C1412 1.391 . S
C1411 C1410 1.386 . S
C1411 C1415 1.393 . S
C1412 H1401 0.950 . S
C1412 C1410 1.391 . S
C1412 C1413 1.400 . S
C1413 C1407 1.491 . S
C1413 C1412 1.400 . S
C1413 C1414 1.398 . S
C1414 H1402 0.950 . S
C1414 C1413 1.398 . S
C1414 C1415 1.391 . S
C1415 H1403 0.950 . S
C1415 C1411 1.393 . S
C1415 C1414 1.391 . S
H1416 C1424 0.950 . S
H1417 C1429 0.950 . S
H1418 C1426 0.950 . S
H1419 C1428 0.950 . S
H1420 C1430 0.950 . S
H1421 C1432 0.950 . S
H1422 C1434 0.950 . S
H1423 C1435 0.950 . S
C1424 H1416 0.950 . S
C1424 C1425 1.386 . S
C1424 C1426 1.391 . S
C1425 C1424 1.386 . S
C1425 C1429 1.393 . S
C1426 H1418 0.950 . S
C1426 C1424 1.391 . S
C1426 C1427 1.400 . S
C1427 C1426 1.400 . S
C1427 C1428 1.398 . S
C1427 C1433 1.491 . S
C1428 H1419 0.950 . S
C1428 C1427 1.398 . S
C1428 C1429 1.391 . S
C1429 H1417 0.950 . S
C1429 C1425 1.393 . S
C1429 C1428 1.391 . S
C1430 H1420 0.950 . S
C1430 C1431 1.386 . S
C1430 C1432 1.391 . S
C1431 C1430 1.386 . S
C1431 C1435 1.393 . S
C1432 H1421 0.950 . S
C1432 C1430 1.391 . S
C1432 C1433 1.400 . S
C1433 C1427 1.491 . S
C1433 C1432 1.400 . S
C1433 C1434 1.398 . S
C1434 H1422 0.950 . S
C1434 C1433 1.398 . S
C1434 C1435 1.391 . S
C1435 H1423 0.950 . S
C1435 C1431 1.393 . S
C1435 C1434 1.391 . S
H1436 C1444 0.950 . S
H1437 C1449 0.950 . S
H1438 C1446 0.950 . S
H1439 C1448 0.950 . S
H1440 C1450 0.950 . S
H1441 C1452 0.950 . S
H1442 C1454 0.950 . S
H1443 C1455 0.950 . S
C1444 H1436 0.950 . S
C1444 C1445 1.386 . S
C1444 C1446 1.391 . S
C1445 C1444 1.386 . S
C1445 C1449 1.393 . S
C1446 H1438 0.950 . S
C1446 C1444 1.391 . S
C1446 C1447 1.400 . S
C1447 C1446 1.400 . S
C1447 C1448 1.398 . S
C1447 C1453 1.491 . S
C1448 H1439 0.950 . S
C1448 C1447 1.398 . S
C1448 C1449 1.391 . S
C1449 H1437 0.950 . S
C1449 C1445 1.393 . S
C1449 C1448 1.391 . S
C1450 H1440 0.950 . S
C1450 C1451 1.386 . S
C1450 C1452 1.391 . S
C1451 C1450 1.386 . S
C1451 C1455 1.393 . S
C1452 H1441 0.950 . S
C1452 C1450 1.391 . S
C1452 C1453 1.400 . S
C1453 C1447 1.491 . S
C1453 C1452 1.400 . S
C1453 C1454 1.398 . S
C1454 H1442 0.950 . S
C1454 C1453 1.398 . S
C1454 C1455 1.391 . S
C1455 H1443 0.950 . S
C1455 C1451 1.393 . S
C1455 C1454 1.391 . S
H1456 C1464 0.950 . S
H1457 C1469 0.950 . S
H1458 C1466 0.950 . S
H1459 C1468 0.950 . S
H1460 C1470 0.950 . S
H1461 C1472 0.950 . S
H1462 C1474 0.950 . S
H1463 C1475 0.950 . S
C1464 H1456 0.950 . S
C1464 C1465 1.386 . S
C1464 C1466 1.391 . S
C1465 C1464 1.386 . S
C1465 C1469 1.393 . S
C1466 H1458 0.950 . S
C1466 C1464 1.391 . S
C1466 C1467 1.400 . S
C1467 C1466 1.400 . S
C1467 C1468 1.398 . S
C1467 C1473 1.491 . S
C1468 H1459 0.950 . S
C1468 C1467 1.398 . S
C1468 C1469 1.391 . S
C1469 H1457 0.950 . S
C1469 C1465 1.393 . S
C1469 C1468 1.391 . S
C1470 H1460 0.950 . S
C1470 C1471 1.386 . S
C1470 C1472 1.391 . S
C1471 C1470 1.386 . S
C1471 C1475 1.393 . S
C1472 H1461 0.950 . S
C1472 C1470 1.391 . S
C1472 C1473 1.400 . S
C1473 C1467 1.491 . S
C1473 C1472 1.400 . S
C1473 C1474 1.398 . S
C1474 H1462 0.950 . S
C1474 C1473 1.398 . S
C1474 C1475 1.391 . S
C1475 H1463 0.950 . S
C1475 C1471 1.393 . S
C1475 C1474 1.391 . S
H1476 C1484 0.950 . S
H1477 C1489 0.950 . S
H1478 C1486 0.950 . S
H1479 C1488 0.950 . S
H1480 C1490 0.950 . S
H1481 C1492 0.950 . S
H1482 C1494 0.950 . S
H1483 C1495 0.950 . S
C1484 H1476 0.950 . S
C1484 C1485 1.386 . S
C1484 C1486 1.391 . S
C1485 C1484 1.386 . S
C1485 C1489 1.393 . S
C1486 H1478 0.950 . S
C1486 C1484 1.391 . S
C1486 C1487 1.400 . S
C1487 C1486 1.400 . S
C1487 C1488 1.398 . S
C1487 C1493 1.491 . S
C1488 H1479 0.950 . S
C1488 C1487 1.398 . S
C1488 C1489 1.391 . S
C1489 H1477 0.950 . S
C1489 C1485 1.393 . S
C1489 C1488 1.391 . S
C1490 H1480 0.950 . S
C1490 C1491 1.386 . S
C1490 C1492 1.391 . S
C1491 C1490 1.386 . S
C1491 C1495 1.393 . S
C1492 H1481 0.950 . S
C1492 C1490 1.391 . S
C1492 C1493 1.400 . S
C1493 C1487 1.491 . S
C1493 C1492 1.400 . S
C1493 C1494 1.398 . S
C1494 H1482 0.950 . S
C1494 C1493 1.398 . S
C1494 C1495 1.391 . S
C1495 H1483 0.950 . S
C1495 C1491 1.393 . S
C1495 C1494 1.391 . S
H1496 C1504 0.950 . S
H1497 C1509 0.950 . S
H1498 C1506 0.950 . S
H1499 C1508 0.950 . S
H1500 C1510 0.950 . S
H1501 C1512 0.950 . S
H1502 C1514 0.950 . S
H1503 C1515 0.950 . S
C1504 H1496 0.950 . S
C1504 C1505 1.386 . S
C1504 C1506 1.391 . S
C1505 C1504 1.386 . S
C1505 C1509 1.393 . S
C1506 H1498 0.950 . S
C1506 C1504 1.391 . S
C1506 C1507 1.400 . S
C1507 C1506 1.400 . S
C1507 C1508 1.398 . S
C1507 C1513 1.491 . S
C1508 H1499 0.950 . S
C1508 C1507 1.398 . S
C1508 C1509 1.391 . S
C1509 H1497 0.950 . S
C1509 C1505 1.393 . S
C1509 C1508 1.391 . S
C1510 H1500 0.950 . S
C1510 C1511 1.386 . S
C1510 C1512 1.391 . S
C1511 C1510 1.386 . S
C1511 C1515 1.393 . S
C1512 H1501 0.950 . S
C1512 C1510 1.391 . S
C1512 C1513 1.400 . S
C1513 C1507 1.491 . S
C1513 C1512 1.400 . S
C1513 C1514 1.398 . S
C1514 H1502 0.950 . S
C1514 C1513 1.398 . S
C1514 C1515 1.391 . S
C1515 H1503 0.950 . S
C1515 C1511 1.393 . S
C1515 C1514 1.391 . S
H1516 C1524 0.950 . S
H1517 C1529 0.950 . S
H1518 C1526 0.950 . S
H1519 C1528 0.950 . S
H1520 C1530 0.950 . S
H1521 C1532 0.950 . S
H1522 C1534 0.950 . S
H1523 C1535 0.950 . S
C1524 H1516 0.950 . S
C1524 C1525 1.386 . S
C1524 C1526 1.391 . S
C1525 C1524 1.386 . S
C1525 C1529 1.393 . S
C1526 H1518 0.950 . S
C1526 C1524 1.391 . S
C1526 C1527 1.400 . S
C1527 C1526 1.400 . S
C1527 C1528 1.398 . S
C1527 C1533 1.491 . S
C1528 H1519 0.950 . S
C1528 C1527 1.398 . S
C1528 C1529 1.391 . S
C1529 H1517 0.950 . S
C1529 C1525 1.393 . S
C1529 C1528 1.391 . S
C1530 H1520 0.950 . S
C1530 C1531 1.386 . S
C1530 C1532 1.391 . S
C1531 C1530 1.386 . S
C1531 C1535 1.393 . S
C1532 H1521 0.950 . S
C1532 C1530 1.391 . S
C1532 C1533 1.400 . S
C1533 C1527 1.491 . S
C1533 C1532 1.400 . S
C1533 C1534 1.398 . S
C1534 H1522 0.950 . S
C1534 C1533 1.398 . S
C1534 C1535 1.391 . S
C1535 H1523 0.950 . S
C1535 C1531 1.393 . S
C1535 C1534 1.391 . S
H1536 C1544 0.950 . S
H1537 C1549 0.950 . S
H1538 C1546 0.950 . S
H1539 C1548 0.950 . S
H1540 C1550 0.950 . S
H1541 C1552 0.950 . S
H1542 C1554 0.950 . S
H1543 C1555 0.950 . S
C1544 H1536 0.950 . S
C1544 C1545 1.386 . S
C1544 C1546 1.391 . S
C1545 C1544 1.386 . S
C1545 C1549 1.393 . S
C1546 H1538 0.950 . S
C1546 C1544 1.391 . S
C1546 C1547 1.400 . S
C1547 C1546 1.400 . S
C1547 C1548 1.398 . S
C1547 C1553 1.491 . S
C1548 H1539 0.950 . S
C1548 C1547 1.398 . S
C1548 C1549 1.391 . S
C1549 H1537 0.950 . S
C1549 C1545 1.393 . S
C1549 C1548 1.391 . S
C1550 H1540 0.950 . S
C1550 C1551 1.386 . S
C1550 C1552 1.391 . S
C1551 C1550 1.386 . S
C1551 C1555 1.393 . S
C1552 H1541 0.950 . S
C1552 C1550 1.391 . S
C1552 C1553 1.400 . S
C1553 C1547 1.491 . S
C1553 C1552 1.400 . S
C1553 C1554 1.398 . S
C1554 H1542 0.950 . S
C1554 C1553 1.398 . S
C1554 C1555 1.391 . S
C1555 H1543 0.950 . S
C1555 C1551 1.393 . S
C1555 C1554 1.391 . S
C611 C293 1.449 . S
C605 N2 1.434 . S
C631 C339 2.051 . S
C625 C7 2.040 1_655 S
C651 C382 1.465 . S
C645 N12 1.383 1_655 S
C665 C16 2.426 . S
C671 C419 2.479 . S
C691 C438 2.130 . S
C685 C30 2.122 . S
C711 C493 1.293 . S
C705 N35 1.252 . S
C725 C39 2.583 1_655 S
C731 C518 2.551 . S
C751 C582 1.254 . S
C745 N25 1.172 1_655 S
C771 C278 1.587 . S
C765 N58 1.557 . S
C785 N81 1.372 . S
C791 C342 1.389 . S
C811 C369 1.419 . S
C805 N104 1.375 . S
C825 N127 1.429 . S
C831 C422 1.428 . S
C851 C460 1.217 . S
C845 N48 1.164 . S
C871 C478 1.729 . S
C865 N71 1.728 . S
C885 N94 1.266 . S
C891 C540 1.288 . S
C911 C569 1.605 . S
C905 N117 1.577 . S
C925 C85 1.913 . S
C931 C300 1.958 . S
C945 C122 1.591 . S
C951 C453 1.586 . S
C965 C53 2.016 . S
C971 C500 2.029 . S
C991 C533 1.667 . S
C985 C76 1.678 . S
C1011 C579 2.248 . S
C1005 C99 2.266 . S
C1031 C379 2.113 . S
C1025 C131 2.108 . S
C1051 C409 1.790 . S
C1045 C62 1.782 . S
C1065 C108 1.657 . S
C1071 C329 1.654 . S
C1091 C573 1.550 . S
C1085 N140 1.535 . S
C1105 C145 2.037 . S
C1111 C459 2.042 . S
C1131 C502 1.364 . S
C1125 N150 1.293 . S
C1145 C154 2.428 . S
C1151 C539 2.473 . S
C1171 C318 2.116 . S
C1165 C168 2.099 . S
C1185 N173 1.187 . S
C1191 C373 1.211 . S
C1211 C398 2.556 . S
C1205 C177 2.586 . S
C1231 C302 1.337 . S
C1225 N163 1.234 . S
C1251 C558 2.045 . S
C1245 C200 2.031 . S
C1271 C462 1.636 . S
C1265 N219 1.623 . S
C1285 N242 1.615 . S
C1291 C489 1.681 . S
C1311 C542 1.738 . S
C1305 C269 1.765 . S
C1331 C340 1.524 . S
C1325 C191 1.545 . S
C1345 N209 2.010 . S
C1351 C358 2.015 . S
C1365 N232 1.561 . S
C1371 C420 1.618 . S
C1385 C260 2.021 . S
C1391 C289 2.056 . S
C1405 C223 1.602 . S
C1411 C580 1.634 . S
C1425 N255 1.231 . S
C1431 C333 1.277 . S
C1445 N186 1.594 . S
C1451 C380 1.623 . S
C1471 C413 1.382 . S
C1465 C214 1.397 . S
C1491 C299 1.987 . S
C1485 C237 1.996 . S
C1511 C499 1.628 . S
C1505 N265 1.604 . S
C1531 C529 1.450 . S
C1525 N196 1.363 . S
C1551 C449 1.328 . S
C1545 C246 1.333 . S
