# Generated by pormake.
# Topology nia, (6,6)-cn, num edge types: 1
# Building blocks:
#     Node 0, Type 0, BuildingBlock: BETFEN_clean_sbu_0, # of connection points: 6
#     Node 1, Type 0, BuildingBlock: BETFEN_clean_sbu_0, # of connection points: 6
#     Node 2, Type 1, BuildingBlock: MIDCAF_clean_sbu_0, # of connection points: 6
#     Node 3, Type 1, BuildingBlock: MIDCAF_clean_sbu_0, # of connection points: 6
#     Edge 4, Type (0, 1), BuildingBlock: AJUNOK_clean_linker_0, # of connection points: 2
#     Edge 5, Type (0, 1), BuildingBlock: AJUNOK_clean_linker_0, # of connection points: 2
#     Edge 6, Type (0, 1), BuildingBlock: AJUNOK_clean_linker_0, # of connection points: 2
#     Edge 7, Type (0, 1), BuildingBlock: AJUNOK_clean_linker_0, # of connection points: 2
#     Edge 8, Type (0, 1), BuildingBlock: AJUNOK_clean_linker_0, # of connection points: 2
#     Edge 9, Type (0, 1), BuildingBlock: AJUNOK_clean_linker_0, # of connection points: 2
#     Edge 10, Type (0, 1), BuildingBlock: AJUNOK_clean_linker_0, # of connection points: 2
#     Edge 11, Type (0, 1), BuildingBlock: AJUNOK_clean_linker_0, # of connection points: 2
#     Edge 12, Type (0, 1), BuildingBlock: AJUNOK_clean_linker_0, # of connection points: 2
#     Edge 13, Type (0, 1), BuildingBlock: AJUNOK_clean_linker_0, # of connection points: 2
#     Edge 14, Type (0, 1), BuildingBlock: AJUNOK_clean_linker_0, # of connection points: 2
#     Edge 15, Type (0, 1), BuildingBlock: AJUNOK_clean_linker_0, # of connection points: 2
# Relax obj value: 0.234
# Max RMSD: 0.292
# Mean RMSD: 0.224
data_MOF--net-nia--node1-BETFEN_clean_sbu_0--node2-MIDCAF_clean_sbu_0--edge1-AJUNOK_clean_linker_0
_symmetry_space_group_name_H-M    P1
_symmetry_Int_Tables_number       1
_symmetry_cell_setting            triclinic
loop_
_symmetry_equiv_pos_as_xyz
'x, y, z'
_cell_length_a     22.395306
_cell_length_b     22.425255
_cell_length_c     25.555879
_cell_angle_alpha  89.874575
_cell_angle_beta   90.217698
_cell_angle_gamma 138.89927
loop_
_atom_site_label
_atom_site_type_symbol
_atom_site_fract_x
_atom_site_fract_y
_atom_site_fract_z
_atom_type_partial_charge
Pr0 Pr 0.98385 0.04407 0.99745 0.0
Pr1 Pr 0.0545 0.9688 0.04101 0.0
C2 C 0.88997 0.07458 0.98097 0.0
C3 C 0.88939 0.13187 0.95304 0.0
C4 C 0.8687 0.12019 0.89932 0.0
C5 C 0.85762 0.16757 0.87529 0.0
C6 C 0.86735 0.22748 0.90453 0.0
C7 C 0.89028 0.24065 0.95783 0.0
C8 C 0.90117 0.1934 0.98178 0.0
C9 C 0.15594 0.14414 0.95568 0.0
C10 C 0.09627 0.1159 0.11132 0.0
C11 C 0.11938 0.90663 0.05365 0.0
C12 C 0.13271 0.86392 0.08714 0.0
C13 C 0.16624 0.89296 0.1386 0.0
C14 C 0.18535 0.85522 0.16709 0.0
C15 C 0.17157 0.78846 0.1443 0.0
C16 C 0.13542 0.7581 0.09339 0.0
C17 C 0.11623 0.79539 0.06523 0.0
C18 C 0.89331 0.89128 0.08429 0.0
C19 C 0.95392 0.9063 0.92402 0.0
O20 O 0.94809 0.11174 0.01953 0.0
O21 O 0.87677 0.01594 0.95376 0.0
O22 O 0.10959 0.08271 0.98932 0.0
O23 O 0.11311 0.16061 0.94297 0.0
O24 O 0.13207 0.09164 0.09634 0.0
O25 O 0.03004 0.09256 0.08483 0.0
O26 O 0.03685 0.8556 0.03689 0.0
O27 O 0.16831 0.99132 0.06262 0.0
O28 O 0.91572 0.91194 0.03686 0.0
O29 O 0.95178 0.90375 0.11064 0.0
O30 O 0.91693 0.92933 0.93825 0.0
O31 O 0.01823 0.92848 0.95214 0.0
H32 H 0.85847 0.07266 0.87616 0.0
H33 H 0.8395 0.15594 0.83419 0.0
H34 H 0.89568 0.2844 0.98173 0.0
H35 H 0.91557 0.20262 0.02337 0.0
H36 H 0.1791 0.94564 0.15635 0.0
H37 H 0.21184 0.87892 0.20653 0.0
H38 H 0.125 0.70762 0.07444 0.0
H39 H 0.09082 0.77237 0.02552 0.0
Pr40 Pr 0.98876 0.04575 0.54839 0.0
Pr41 Pr 0.03979 0.95758 0.49089 0.0
C42 C 0.95019 0.13112 0.5699 0.0
C43 C 0.91034 0.14669 0.60422 0.0
C44 C 0.93877 0.17719 0.65621 0.0
C45 C 0.90178 0.19625 0.68564 0.0
C46 C 0.83638 0.18519 0.66323 0.0
C47 C 0.80802 0.15376 0.61145 0.0
C48 C 0.84447 0.13476 0.58242 0.0
C49 C 0.90919 0.88355 0.59154 0.0
C50 C 0.88242 0.92412 0.44166 0.0
C51 C 0.05563 0.85552 0.45919 0.0
C52 C 0.11221 0.85483 0.43004 0.0
C53 C 0.08649 0.81739 0.37942 0.0
C54 C 0.13219 0.80521 0.3543 0.0
C55 C 0.20441 0.82998 0.37935 0.0
C56 C 0.23149 0.86954 0.42942 0.0
C57 C 0.18613 0.882 0.45441 0.0
C58 C 0.13915 0.12895 0.44853 0.0
C59 C 0.14741 0.0847 0.59923 0.0
O60 O 0.89379 0.05272 0.54595 0.0
O61 O 0.02843 0.16556 0.58213 0.0
O62 O 0.92327 0.90318 0.54351 0.0
O63 O 0.92602 0.94412 0.61849 0.0
O64 O 0.90346 0.8837 0.45116 0.0
O65 O 0.92518 0.00054 0.46496 0.0
O66 O 0.08467 0.89623 0.50489 0.0
O67 O 0.01153 0.86299 0.43232 0.0
O68 O 0.08474 0.0871 0.48588 0.0
O69 O 0.14826 0.0816 0.43167 0.0
O70 O 0.12385 0.12249 0.58877 0.0
O71 O 0.11465 0.01392 0.57264 0.0
H72 H 0.98984 0.1871 0.67379 0.0
H73 H 0.92436 0.21978 0.72559 0.0
H74 H 0.75909 0.14613 0.59267 0.0
H75 H 0.82234 0.11234 0.54223 0.0
H76 H 0.02899 0.79462 0.35988 0.0
H77 H 0.10952 0.7742 0.31585 0.0
H78 H 0.28497 0.88682 0.45056 0.0
H79 H 0.20691 0.90969 0.49368 0.0
Zn80 Zn 0.36231 0.59168 0.16847 0.0
Zn81 Zn 0.39866 0.64267 0.39962 0.0
Zn82 Zn 0.39906 0.62 0.26632 0.0
C83 C 0.55906 0.72903 0.32274 0.0
C84 C 0.29526 0.4625 0.36209 0.0
O85 O 0.33873 0.66107 0.24255 0.0
O86 O 0.29452 0.61619 0.16047 0.0
C87 C 0.5493 0.7151 0.17137 0.0
O88 O 0.54119 0.71094 0.27427 0.0
O89 O 0.49586 0.69498 0.35286 0.0
O90 O 0.31122 0.51021 0.39947 0.0
O91 O 0.32448 0.49435 0.31489 0.0
O92 O 0.4864 0.67816 0.13886 0.0
O93 O 0.53076 0.70106 0.22091 0.0
O94 O 0.30904 0.47566 0.25923 0.0
O95 O 0.29271 0.4646 0.17315 0.0
C96 C 0.27782 0.42923 0.21689 0.0
O97 O 0.35899 0.68121 0.29704 0.0
O98 O 0.35509 0.69065 0.38423 0.0
C99 C 0.29974 0.65195 0.20094 0.0
C100 C 0.34548 0.70359 0.33828 0.0
Zn101 Zn 0.67134 0.42146 0.87475 0.0
Zn102 Zn 0.62755 0.3581 0.67701 0.0
Zn103 Zn 0.64399 0.39551 0.77445 0.0
C104 C 0.73442 0.54059 0.67922 0.0
C105 C 0.45546 0.25676 0.71641 0.0
O106 O 0.70586 0.35862 0.80725 0.0
O107 O 0.7396 0.39968 0.89058 0.0
C108 C 0.76383 0.58579 0.82506 0.0
O109 O 0.72182 0.52331 0.72878 0.0
O110 O 0.70025 0.47842 0.64721 0.0
O111 O 0.49582 0.26863 0.67621 0.0
O112 O 0.49936 0.30018 0.75897 0.0
O113 O 0.74252 0.54896 0.86922 0.0
O114 O 0.73568 0.54009 0.78265 0.0
O115 O 0.51132 0.31882 0.81377 0.0
O116 O 0.54358 0.33231 0.89788 0.0
C117 C 0.48669 0.3013 0.86229 0.0
O118 O 0.6893 0.33618 0.75474 0.0
O119 O 0.67102 0.30923 0.66954 0.0
C120 C 0.7409 0.3673 0.85103 0.0
C121 C 0.69492 0.3073 0.71354 0.0
C122 C 0.14196 0.65994 0.1684 0.0
C123 C 0.19946 0.75332 0.17096 0.0
C124 C 0.17357 0.62677 0.18152 0.0
C125 C 0.26321 0.68545 0.19863 0.0
H126 H 0.07337 0.6127 0.15337 0.0
H127 H 0.12876 0.55522 0.17605 0.0
S128 S 0.43921 0.93411 0.21651 0.0
N129 N 0.34914 0.90318 0.19526 0.0
N130 N 0.40779 0.83989 0.22055 0.0
C131 C 0.3197 0.77782 0.20494 0.0
C132 C 0.28781 0.81198 0.19121 0.0
C133 C 0.22485 0.07351 0.66139 0.0
C134 C 0.21405 0.12358 0.64157 0.0
C135 C 0.29788 0.11407 0.69423 0.0
C136 C 0.36191 0.20562 0.70853 0.0
H137 H 0.18007 0.00421 0.64889 0.0
H138 H 0.30936 0.0763 0.70416 0.0
S139 S 0.35925 0.36359 0.6729 0.0
N140 N 0.2683 0.26716 0.64405 0.0
N141 N 0.40675 0.34316 0.70459 0.0
C142 C 0.34717 0.25379 0.69338 0.0
C143 C 0.27285 0.2128 0.66003 0.0
C144 C 0.22956 0.24305 0.16696 0.0
C145 C 0.13636 0.17871 0.15595 0.0
C146 C 0.2751 0.32092 0.19618 0.0
C147 C 0.22845 0.33557 0.21591 0.0
H148 H 0.26944 0.23862 0.14824 0.0
H149 H 0.34864 0.37473 0.19797 0.0
S150 S 0.98078 0.17552 0.21063 0.0
N151 N -0.0039 0.12542 0.17655 0.0
N152 N 0.08253 0.27202 0.23171 0.0
C153 C 0.13374 0.26557 0.21195 0.0
C154 C 0.08732 0.18682 0.18175 0.0
C155 C 0.7056 0.15144 0.68713 0.0
C156 C 0.79918 0.20971 0.69124 0.0
C157 C 0.67101 0.18183 0.69881 0.0
C158 C 0.72832 0.27081 0.71616 0.0
H159 H 0.6597 0.08382 0.6711 0.0
H160 H 0.5998 0.13711 0.69121 0.0
S161 S 0.97542 0.44586 0.74173 0.0
N162 N 0.94686 0.35765 0.71977 0.0
N163 N 0.88065 0.414 0.74258 0.0
C164 C 0.82026 0.32718 0.72531 0.0
C165 C 0.85597 0.29653 0.71297 0.0
C166 C 0.7306 0.79947 0.07546 0.0
C167 C 0.80871 0.85235 0.10659 0.0
C168 C 0.64831 0.7572 0.09696 0.0
C169 C 0.64078 0.76723 0.15037 0.0
H170 H 0.73225 0.78834 0.03451 0.0
H171 H 0.58957 0.7147 0.07137 0.0
S172 S 0.83261 0.91492 0.24522 0.0
N173 N 0.87747 0.92104 0.19145 0.0
N174 N 0.72451 0.84618 0.23142 0.0
C175 C 0.72052 0.82477 0.18099 0.0
C176 C 0.80393 0.86614 0.1592 0.0
C177 C 0.83696 0.77355 0.66578 0.0
C178 C 0.86864 0.79794 0.61383 0.0
C179 C 0.79529 0.69131 0.68725 0.0
C180 C 0.78554 0.6312 0.65814 0.0
H181 H 0.84212 0.81712 0.68969 0.0
H182 H 0.76749 0.67326 0.72611 0.0
S183 S 0.86027 0.66481 0.52096 0.0
N184 N 0.88742 0.7551 0.53391 0.0
N185 N 0.81431 0.6039 0.57499 0.0
C186 C 0.81913 0.65615 0.60657 0.0
C187 C 0.85946 0.7386 0.58431 0.0
C188 C 0.18769 0.71641 0.33845 0.0
C189 C 0.24485 0.80553 0.3565 0.0
C190 C 0.22228 0.68549 0.32753 0.0
C191 C 0.31509 0.74289 0.33385 0.0
H192 H 0.11488 0.66822 0.33639 0.0
H193 H 0.17539 0.61474 0.31753 0.0
S194 S 0.4953 0.98551 0.3714 0.0
N195 N 0.40067 0.95382 0.37306 0.0
N196 N 0.46482 0.89458 0.35385 0.0
C197 C 0.37375 0.83356 0.34803 0.0
C198 C 0.33888 0.8653 0.35882 0.0
C199 C 0.27487 0.15462 0.94518 0.0
C200 C 0.23613 0.17951 0.92826 0.0
C201 C 0.35298 0.19025 0.92124 0.0
C202 C 0.39463 0.25097 0.87886 0.0
H203 H 0.2461 0.1091 0.97805 0.0
H204 H 0.38265 0.17211 0.93703 0.0
S205 S 0.31876 0.33627 0.81917 0.0
N206 N 0.24398 0.26704 0.8658 0.0
N207 N 0.39075 0.33394 0.82098 0.0
C208 C 0.35483 0.27402 0.86046 0.0
C209 C 0.2757 0.23841 0.88518 0.0
C210 C 0.1464 0.24525 0.43937 0.0
C211 C 0.175 0.2102 0.42269 0.0
C212 C 0.18129 0.32354 0.41659 0.0
C213 C 0.24627 0.37015 0.37625 0.0
H214 H 0.0978 0.21293 0.47088 0.0
H215 H 0.15931 0.3496 0.43198 0.0
S216 S 0.34249 0.30508 0.31825 0.0
N217 N 0.26976 0.22589 0.36239 0.0
N218 N 0.33748 0.37486 0.32064 0.0
C219 C 0.27349 0.33429 0.35817 0.0
C220 C 0.23746 0.25401 0.38125 0.0
C221 C 0.76026 0.21409 0.85632 0.0
C222 C 0.84443 0.26917 0.88169 0.0
C223 C 0.72871 0.24767 0.8439 0.0
C224 C 0.7806 0.33733 0.85621 0.0
H225 H 0.71609 0.14315 0.84889 0.0
H226 H 0.66154 0.20204 0.82699 0.0
S227 S 0.01145 0.513 0.91432 0.0
N228 N 0.98373 0.4208 0.91239 0.0
N229 N 0.92363 0.48332 0.88962 0.0
C230 C 0.86707 0.39459 0.87838 0.0
C231 C 0.89939 0.36073 0.89077 0.0
C232 C 0.77154 0.81337 0.37105 0.0
C233 C 0.80495 0.88052 0.4072 0.0
C234 C 0.69412 0.76737 0.34072 0.0
C235 C 0.64892 0.7881 0.34549 0.0
H236 H 0.80434 0.79512 0.36679 0.0
H237 H 0.66792 0.71362 0.3147 0.0
S238 S 0.70365 0.95248 0.43649 0.0
N239 N 0.78294 0.9616 0.4473 0.0
N240 N 0.63904 0.87597 0.38975 0.0
C241 C 0.68138 0.85479 0.38115 0.0
C242 C 0.75934 0.90117 0.41204 0.0
C243 C 0.95948 0.82491 0.86248 0.0
C244 C 0.91455 0.84281 0.87987 0.0
C245 C 0.91229 0.74484 0.83559 0.0
C246 C 0.81946 0.68134 0.82489 0.0
H247 H 0.02895 0.8682 0.8742 0.0
H248 H 0.94584 0.72781 0.82873 0.0
S249 S 0.67692 0.70698 0.84843 0.0
N250 N 0.77685 0.79945 0.8738 0.0
N251 N 0.6885 0.64813 0.82379 0.0
C252 C 0.77746 0.70451 0.83483 0.0
C253 C 0.82523 0.78604 0.86212 0.0
loop_
_geom_bond_atom_site_label_1
_geom_bond_atom_site_label_2
_geom_bond_distance
_geom_bond_site_symmetry_2
_ccdc_geom_bond_type
Pr0 C2 2.880 . S
Pr0 O20 2.562 . S
Pr0 O21 2.490 . S
Pr0 O22 2.695 1_655 S
Pr0 O23 2.512 1_655 S
Pr0 O25 2.437 1_656 S
Pr0 O28 2.436 1_546 S
Pr0 O30 2.438 1_545 S
Pr1 C11 2.880 . S
Pr1 O22 2.436 1_564 S
Pr1 O24 2.438 1_565 S
Pr1 O26 2.562 . S
Pr1 O27 2.490 . S
Pr1 O28 2.695 1_455 S
Pr1 O29 2.512 1_455 S
Pr1 O31 2.437 1_455 S
C2 Pr0 2.880 . S
C2 C3 1.491 . S
C2 O20 1.254 . S
C2 O21 1.225 . S
C3 C2 1.491 . S
C3 C4 1.392 . S
C3 C8 1.356 . S
C4 C3 1.392 . S
C4 C5 1.368 . S
C4 H32 0.929 . S
C5 C4 1.368 . S
C5 C6 1.386 . S
C5 H33 0.929 . S
C6 C5 1.386 . S
C6 C7 1.373 . S
C7 C6 1.373 . S
C7 C8 1.409 . S
C7 H34 0.931 . S
C8 C3 1.356 . S
C8 C7 1.409 . S
C8 H35 0.930 . S
C9 O22 1.270 . S
C9 O23 1.248 . S
C10 O24 1.267 . S
C10 O25 1.278 . S
C11 Pr1 2.880 . S
C11 C12 1.491 . S
C11 O26 1.254 . S
C11 O27 1.225 . S
C12 C11 1.491 . S
C12 C13 1.392 . S
C12 C17 1.356 . S
C13 C12 1.392 . S
C13 C14 1.368 . S
C13 H36 0.929 . S
C14 C13 1.368 . S
C14 C15 1.386 . S
C14 H37 0.929 . S
C15 C14 1.386 . S
C15 C16 1.373 . S
C16 C15 1.373 . S
C16 C17 1.409 . S
C16 H38 0.931 . S
C17 C12 1.356 . S
C17 C16 1.409 . S
C17 H39 0.930 . S
C18 O28 1.270 . S
C18 O29 1.248 . S
C19 O30 1.267 . S
C19 O31 1.278 1_556 S
O20 Pr0 2.562 . S
O20 C2 1.254 . S
O21 Pr0 2.490 . S
O21 C2 1.225 . S
O22 Pr0 2.695 1_455 S
O22 Pr1 2.436 1_546 S
O22 C9 1.270 . S
O23 Pr0 2.512 1_455 S
O23 C9 1.248 . S
O24 Pr1 2.438 1_545 S
O24 C10 1.267 . S
O25 Pr0 2.437 1_454 S
O25 C10 1.278 . S
O26 Pr1 2.562 . S
O26 C11 1.254 . S
O27 Pr1 2.490 . S
O27 C11 1.225 . S
O28 Pr0 2.436 1_564 S
O28 Pr1 2.695 1_655 S
O28 C18 1.270 . S
O29 Pr1 2.512 1_655 S
O29 C18 1.248 . S
O30 Pr0 2.438 1_565 S
O30 C19 1.267 . S
O31 Pr1 2.437 1_655 S
O31 C19 1.278 1_554 S
H32 C4 0.929 . S
H33 C5 0.929 . S
H34 C7 0.931 . S
H35 C8 0.930 . S
H36 C13 0.929 . S
H37 C14 0.929 . S
H38 C16 0.931 . S
H39 C17 0.930 . S
Pr40 C42 2.880 1_455 S
Pr40 O60 2.562 1_455 S
Pr40 O61 2.490 1_455 S
Pr40 O62 2.695 1_445 S
Pr40 O63 2.512 1_445 S
Pr40 O65 2.437 1_445 S
Pr40 O68 2.436 . S
Pr40 O70 2.438 . S
Pr41 C51 2.880 . S
Pr41 O62 2.436 1_455 S
Pr41 O64 2.438 1_455 S
Pr41 O66 2.562 . S
Pr41 O67 2.490 . S
Pr41 O68 2.695 1_565 S
Pr41 O69 2.512 1_565 S
Pr41 O71 2.437 1_565 S
C42 Pr40 2.880 1_655 S
C42 C43 1.491 . S
C42 O60 1.254 . S
C42 O61 1.225 . S
C43 C42 1.491 . S
C43 C44 1.392 . S
C43 C48 1.356 . S
C44 C43 1.392 . S
C44 C45 1.368 . S
C44 H72 0.929 . S
C45 C44 1.368 . S
C45 C46 1.386 . S
C45 H73 0.929 . S
C46 C45 1.386 . S
C46 C47 1.373 . S
C47 C46 1.373 . S
C47 C48 1.409 . S
C47 H74 0.931 . S
C48 C43 1.356 . S
C48 C47 1.409 . S
C48 H75 0.930 . S
C49 O62 1.270 . S
C49 O63 1.248 . S
C50 O64 1.267 . S
C50 O65 1.278 . S
C51 Pr41 2.880 . S
C51 C52 1.491 . S
C51 O66 1.254 . S
C51 O67 1.225 . S
C52 C51 1.491 . S
C52 C53 1.392 . S
C52 C57 1.356 . S
C53 C52 1.392 . S
C53 C54 1.368 . S
C53 H76 0.929 1_565 S
C54 C53 1.368 . S
C54 C55 1.386 . S
C54 H77 0.929 . S
C55 C54 1.386 . S
C55 C56 1.373 . S
C56 C55 1.373 . S
C56 C57 1.409 . S
C56 H78 0.931 . S
C57 C52 1.356 . S
C57 C56 1.409 . S
C57 H79 0.930 . S
C58 O68 1.270 . S
C58 O69 1.248 . S
C59 O70 1.267 . S
C59 O71 1.278 . S
O60 Pr40 2.562 1_655 S
O60 C42 1.254 . S
O61 Pr40 2.490 1_655 S
O61 C42 1.225 . S
O62 Pr40 2.695 1_665 S
O62 Pr41 2.436 1_655 S
O62 C49 1.270 . S
O63 Pr40 2.512 1_665 S
O63 C49 1.248 . S
O64 Pr41 2.438 1_655 S
O64 C50 1.267 . S
O65 Pr40 2.437 1_665 S
O65 C50 1.278 . S
O66 Pr41 2.562 . S
O66 C51 1.254 . S
O67 Pr41 2.490 . S
O67 C51 1.225 . S
O68 Pr40 2.436 . S
O68 Pr41 2.695 1_545 S
O68 C58 1.270 . S
O69 Pr41 2.512 1_545 S
O69 C58 1.248 . S
O70 Pr40 2.438 . S
O70 C59 1.267 . S
O71 Pr41 2.437 1_545 S
O71 C59 1.278 . S
H72 C44 0.929 . S
H73 C45 0.929 . S
H74 C47 0.931 . S
H75 C48 0.930 . S
H76 C53 0.929 1_545 S
H77 C54 0.929 . S
H78 C56 0.931 . S
H79 C57 0.930 . S
Zn80 O86 1.920 . S
Zn80 O92 1.898 . S
Zn80 O95 1.905 . S
Zn81 O89 1.905 . S
Zn81 O90 1.898 . S
Zn81 O98 1.920 . S
Zn82 O85 2.080 . S
Zn82 O88 2.114 . S
Zn82 O91 2.120 . S
Zn82 O93 2.120 . S
Zn82 O94 2.114 . S
Zn82 O97 2.080 . S
C83 O88 1.166 . S
C83 O89 1.182 . S
C84 O90 1.167 . S
C84 O91 1.299 . S
O85 Zn82 2.080 . S
O85 C99 1.305 . S
O86 Zn80 1.920 . S
O86 C99 1.234 . S
C87 O92 1.167 . S
C87 O93 1.299 . S
O88 Zn82 2.114 . S
O88 C83 1.166 . S
O89 Zn81 1.905 . S
O89 C83 1.182 . S
O90 Zn81 1.898 . S
O90 C84 1.167 . S
O91 Zn82 2.120 . S
O91 C84 1.299 . S
O92 Zn80 1.898 . S
O92 C87 1.167 . S
O93 Zn82 2.120 . S
O93 C87 1.299 . S
O94 Zn82 2.114 . S
O94 C96 1.166 . S
O95 Zn80 1.905 . S
O95 C96 1.182 . S
C96 O94 1.166 . S
C96 O95 1.182 . S
O97 Zn82 2.080 . S
O97 C100 1.305 . S
O98 Zn81 1.920 . S
O98 C100 1.234 . S
C99 O85 1.305 . S
C99 O86 1.234 . S
C100 O97 1.305 . S
C100 O98 1.234 . S
Zn101 O107 1.920 . S
Zn101 O113 1.898 . S
Zn101 O116 1.905 . S
Zn102 O110 1.905 . S
Zn102 O111 1.898 . S
Zn102 O119 1.920 . S
Zn103 O106 2.080 . S
Zn103 O109 2.114 . S
Zn103 O112 2.120 . S
Zn103 O114 2.120 . S
Zn103 O115 2.114 . S
Zn103 O118 2.080 . S
C104 O109 1.166 . S
C104 O110 1.182 . S
C105 O111 1.167 . S
C105 O112 1.299 . S
O106 Zn103 2.080 . S
O106 C120 1.305 . S
O107 Zn101 1.920 . S
O107 C120 1.234 . S
C108 O113 1.167 . S
C108 O114 1.299 . S
O109 Zn103 2.114 . S
O109 C104 1.166 . S
O110 Zn102 1.905 . S
O110 C104 1.182 . S
O111 Zn102 1.898 . S
O111 C105 1.167 . S
O112 Zn103 2.120 . S
O112 C105 1.299 . S
O113 Zn101 1.898 . S
O113 C108 1.167 . S
O114 Zn103 2.120 . S
O114 C108 1.299 . S
O115 Zn103 2.114 . S
O115 C117 1.166 . S
O116 Zn101 1.905 . S
O116 C117 1.182 . S
C117 O115 1.166 . S
C117 O116 1.182 . S
O118 Zn103 2.080 . S
O118 C121 1.305 . S
O119 Zn102 1.920 . S
O119 C121 1.234 . S
C120 O106 1.305 . S
C120 O107 1.234 . S
C121 O118 1.305 . S
C121 O119 1.234 . S
C122 C123 1.369 . S
C122 C124 1.419 . S
C122 H126 0.930 . S
C123 C122 1.369 . S
C123 C132 1.429 . S
C124 C122 1.419 . S
C124 C125 1.363 . S
C124 H127 0.929 . S
C125 C124 1.363 . S
C125 C131 1.428 . S
H126 C122 0.930 . S
H127 C124 0.929 . S
S128 N129 1.613 . S
S128 N130 1.610 . S
N129 S128 1.613 . S
N129 C132 1.350 . S
N130 S128 1.610 . S
N130 C131 1.351 . S
C131 C125 1.428 . S
C131 N130 1.351 . S
C131 C132 1.434 . S
C132 C123 1.429 . S
C132 N129 1.350 . S
C132 C131 1.434 . S
C133 C134 1.369 . S
C133 C135 1.419 . S
C133 H137 0.930 . S
C134 C133 1.369 . S
C134 C143 1.429 . S
C135 C133 1.419 . S
C135 C136 1.363 . S
C135 H138 0.929 . S
C136 C135 1.363 . S
C136 C142 1.428 . S
H137 C133 0.930 . S
H138 C135 0.929 . S
S139 N140 1.613 . S
S139 N141 1.610 . S
N140 S139 1.613 . S
N140 C143 1.350 . S
N141 S139 1.610 . S
N141 C142 1.351 . S
C142 C136 1.428 . S
C142 N141 1.351 . S
C142 C143 1.434 . S
C143 C134 1.429 . S
C143 N140 1.350 . S
C143 C142 1.434 . S
C144 C145 1.369 . S
C144 C146 1.419 . S
C144 H148 0.930 . S
C145 C144 1.369 . S
C145 C154 1.429 . S
C146 C144 1.419 . S
C146 C147 1.363 . S
C146 H149 0.929 . S
C147 C146 1.363 . S
C147 C153 1.428 . S
H148 C144 0.930 . S
H149 C146 0.929 . S
S150 N151 1.613 . S
S150 N152 1.610 . S
N151 S150 1.613 . S
N151 C154 1.350 . S
N152 S150 1.610 . S
N152 C153 1.351 . S
C153 C147 1.428 . S
C153 N152 1.351 . S
C153 C154 1.434 . S
C154 C145 1.429 . S
C154 N151 1.350 . S
C154 C153 1.434 . S
C155 C156 1.369 . S
C155 C157 1.419 . S
C155 H159 0.930 . S
C156 C155 1.369 . S
C156 C165 1.429 . S
C157 C155 1.419 . S
C157 C158 1.363 . S
C157 H160 0.929 . S
C158 C157 1.363 . S
C158 C164 1.428 . S
H159 C155 0.930 . S
H160 C157 0.929 . S
S161 N162 1.613 . S
S161 N163 1.610 . S
N162 S161 1.613 . S
N162 C165 1.350 . S
N163 S161 1.610 . S
N163 C164 1.351 . S
C164 C158 1.428 . S
C164 N163 1.351 . S
C164 C165 1.434 . S
C165 C156 1.429 . S
C165 N162 1.350 . S
C165 C164 1.434 . S
C166 C167 1.369 . S
C166 C168 1.419 . S
C166 H170 0.930 . S
C167 C166 1.369 . S
C167 C176 1.429 . S
C168 C166 1.419 . S
C168 C169 1.363 . S
C168 H171 0.929 . S
C169 C168 1.363 . S
C169 C175 1.428 . S
H170 C166 0.930 . S
H171 C168 0.929 . S
S172 N173 1.613 . S
S172 N174 1.610 . S
N173 S172 1.613 . S
N173 C176 1.350 . S
N174 S172 1.610 . S
N174 C175 1.351 . S
C175 C169 1.428 . S
C175 N174 1.351 . S
C175 C176 1.434 . S
C176 C167 1.429 . S
C176 N173 1.350 . S
C176 C175 1.434 . S
C177 C178 1.369 . S
C177 C179 1.419 . S
C177 H181 0.930 . S
C178 C177 1.369 . S
C178 C187 1.429 . S
C179 C177 1.419 . S
C179 C180 1.363 . S
C179 H182 0.929 . S
C180 C179 1.363 . S
C180 C186 1.428 . S
H181 C177 0.930 . S
H182 C179 0.929 . S
S183 N184 1.613 . S
S183 N185 1.610 . S
N184 S183 1.613 . S
N184 C187 1.350 . S
N185 S183 1.610 . S
N185 C186 1.351 . S
C186 C180 1.428 . S
C186 N185 1.351 . S
C186 C187 1.434 . S
C187 C178 1.429 . S
C187 N184 1.350 . S
C187 C186 1.434 . S
C188 C189 1.369 . S
C188 C190 1.419 . S
C188 H192 0.930 . S
C189 C188 1.369 . S
C189 C198 1.429 . S
C190 C188 1.419 . S
C190 C191 1.363 . S
C190 H193 0.929 . S
C191 C190 1.363 . S
C191 C197 1.428 . S
H192 C188 0.930 . S
H193 C190 0.929 . S
S194 N195 1.613 . S
S194 N196 1.610 . S
N195 S194 1.613 . S
N195 C198 1.350 . S
N196 S194 1.610 . S
N196 C197 1.351 . S
C197 C191 1.428 . S
C197 N196 1.351 . S
C197 C198 1.434 . S
C198 C189 1.429 . S
C198 N195 1.350 . S
C198 C197 1.434 . S
C199 C200 1.369 . S
C199 C201 1.419 . S
C199 H203 0.930 . S
C200 C199 1.369 . S
C200 C209 1.429 . S
C201 C199 1.419 . S
C201 C202 1.363 . S
C201 H204 0.929 . S
C202 C201 1.363 . S
C202 C208 1.428 . S
H203 C199 0.930 . S
H204 C201 0.929 . S
S205 N206 1.613 . S
S205 N207 1.610 . S
N206 S205 1.613 . S
N206 C209 1.350 . S
N207 S205 1.610 . S
N207 C208 1.351 . S
C208 C202 1.428 . S
C208 N207 1.351 . S
C208 C209 1.434 . S
C209 C200 1.429 . S
C209 N206 1.350 . S
C209 C208 1.434 . S
C210 C211 1.369 . S
C210 C212 1.419 . S
C210 H214 0.930 . S
C211 C210 1.369 . S
C211 C220 1.429 . S
C212 C210 1.419 . S
C212 C213 1.363 . S
C212 H215 0.929 . S
C213 C212 1.363 . S
C213 C219 1.428 . S
H214 C210 0.930 . S
H215 C212 0.929 . S
S216 N217 1.613 . S
S216 N218 1.610 . S
N217 S216 1.613 . S
N217 C220 1.350 . S
N218 S216 1.610 . S
N218 C219 1.351 . S
C219 C213 1.428 . S
C219 N218 1.351 . S
C219 C220 1.434 . S
C220 C211 1.429 . S
C220 N217 1.350 . S
C220 C219 1.434 . S
C221 C222 1.369 . S
C221 C223 1.419 . S
C221 H225 0.930 . S
C222 C221 1.369 . S
C222 C231 1.429 . S
C223 C221 1.419 . S
C223 C224 1.363 . S
C223 H226 0.929 . S
C224 C223 1.363 . S
C224 C230 1.428 . S
H225 C221 0.930 . S
H226 C223 0.929 . S
S227 N228 1.613 . S
S227 N229 1.610 . S
N228 S227 1.613 . S
N228 C231 1.350 . S
N229 S227 1.610 . S
N229 C230 1.351 . S
C230 C224 1.428 . S
C230 N229 1.351 . S
C230 C231 1.434 . S
C231 C222 1.429 . S
C231 N228 1.350 . S
C231 C230 1.434 . S
C232 C233 1.369 . S
C232 C234 1.419 . S
C232 H236 0.930 . S
C233 C232 1.369 . S
C233 C242 1.429 . S
C234 C232 1.419 . S
C234 C235 1.363 . S
C234 H237 0.929 . S
C235 C234 1.363 . S
C235 C241 1.428 . S
H236 C232 0.930 . S
H237 C234 0.929 . S
S238 N239 1.613 . S
S238 N240 1.610 . S
N239 S238 1.613 . S
N239 C242 1.350 . S
N240 S238 1.610 . S
N240 C241 1.351 . S
C241 C235 1.428 . S
C241 N240 1.351 . S
C241 C242 1.434 . S
C242 C233 1.429 . S
C242 N239 1.350 . S
C242 C241 1.434 . S
C243 C244 1.369 . S
C243 C245 1.419 . S
C243 H247 0.930 1_655 S
C244 C243 1.369 . S
C244 C253 1.429 . S
C245 C243 1.419 . S
C245 C246 1.363 . S
C245 H248 0.929 . S
C246 C245 1.363 . S
C246 C252 1.428 . S
H247 C243 0.930 1_455 S
H248 C245 0.929 . S
S249 N250 1.613 . S
S249 N251 1.610 . S
N250 S249 1.613 . S
N250 C253 1.350 . S
N251 S249 1.610 . S
N251 C252 1.351 . S
C252 C246 1.428 . S
C252 N251 1.351 . S
C252 C253 1.434 . S
C253 C244 1.429 . S
C253 N250 1.350 . S
C253 C252 1.434 . S
C123 C15 1.407 . S
C125 C99 1.348 . S
C134 C59 1.351 . S
C136 C105 1.169 . S
C145 C10 1.437 . S
C147 C96 1.301 . S
C156 C46 1.559 . S
C158 C121 1.467 . S
C167 C18 1.880 . S
C169 C87 1.705 . S
C180 C104 1.785 . S
C178 C49 1.921 . S
C189 C55 1.415 . S
C191 C100 1.342 . S
C202 C117 1.792 . S
C200 C9 1.915 . S
C213 C84 1.701 . S
C211 C58 1.882 . S
C224 C120 1.456 . S
C222 C6 1.569 . S
C235 C83 1.301 . S
C233 C50 1.432 . S
C246 C108 1.170 . S
C244 C19 1.350 . S
