# Generated by pormake.
# Topology pth, (4,4)-cn, num edge types: 1
# Building blocks:
#     Node 0, Type 0, BuildingBlock: AZAVOO_clean_sbu_0, # of connection points: 4
#     Node 1, Type 0, BuildingBlock: AZAVOO_clean_sbu_0, # of connection points: 4
#     Node 2, Type 0, BuildingBlock: AZAVOO_clean_sbu_0, # of connection points: 4
#     Node 3, Type 1, BuildingBlock: MUDLON_clean_sbu_0, # of connection points: 4
#     Node 4, Type 1, BuildingBlock: MUDLON_clean_sbu_0, # of connection points: 4
#     Node 5, Type 1, BuildingBlock: MUDLON_clean_sbu_0, # of connection points: 4
#     Edge 6, Type (0, 1), BuildingBlock: XIVTED_clean_linker_0, # of connection points: 2
#     Edge 7, Type (0, 1), BuildingBlock: XIVTED_clean_linker_0, # of connection points: 2
#     Edge 8, Type (0, 1), BuildingBlock: XIVTED_clean_linker_0, # of connection points: 2
#     Edge 9, Type (0, 1), BuildingBlock: XIVTED_clean_linker_0, # of connection points: 2
#     Edge 10, Type (0, 1), BuildingBlock: XIVTED_clean_linker_0, # of connection points: 2
#     Edge 11, Type (0, 1), BuildingBlock: XIVTED_clean_linker_0, # of connection points: 2
#     Edge 12, Type (0, 1), BuildingBlock: XIVTED_clean_linker_0, # of connection points: 2
#     Edge 13, Type (0, 1), BuildingBlock: XIVTED_clean_linker_0, # of connection points: 2
#     Edge 14, Type (0, 1), BuildingBlock: XIVTED_clean_linker_0, # of connection points: 2
#     Edge 15, Type (0, 1), BuildingBlock: XIVTED_clean_linker_0, # of connection points: 2
#     Edge 16, Type (0, 1), BuildingBlock: XIVTED_clean_linker_0, # of connection points: 2
#     Edge 17, Type (0, 1), BuildingBlock: XIVTED_clean_linker_0, # of connection points: 2
# Relax obj value: 0.104
# Max RMSD: 0.230
# Mean RMSD: 0.137
data_MOF--net-pth--node1-AZAVOO_clean_sbu_0--node2-MUDLON_clean_sbu_0--edge1-XIVTED_clean_linker_0
_symmetry_space_group_name_H-M    P1
_symmetry_Int_Tables_number       1
_symmetry_cell_setting            triclinic
loop_
_symmetry_equiv_pos_as_xyz
'x, y, z'
_cell_length_a     22.662456
_cell_length_b     22.970466
_cell_length_c     59.860174
_cell_angle_alpha  90.986279
_cell_angle_beta   93.51162
_cell_angle_gamma 122.39252
loop_
_atom_site_label
_atom_site_type_symbol
_atom_site_fract_x
_atom_site_fract_y
_atom_site_fract_z
_atom_type_partial_charge
Mg0 Mg 0.1043 0.12772 0.09137 0.0
O1 O 0.02681 0.0348 0.06727 0.0
O2 O 0.98423 0.07292 0.0407 0.0
Mg3 Mg 0.03305 0.189 0.04768 0.0
C4 C 0.98792 0.02447 0.0494 0.0
C5 C 0.13558 0.02356 0.11532 0.0
O6 O 0.17567 0.03676 0.09876 0.0
O7 O 0.01586 0.1291 0.10729 0.0
O8 O 0.98161 0.17481 0.08085 0.0
O9 O 0.19293 0.15505 0.06994 0.0
O10 O 0.12386 0.19514 0.06578 0.0
C11 C 0.97872 0.15295 0.1005 0.0
C12 C 0.17468 0.19181 0.05895 0.0
O13 O 0.10179 0.05316 0.1167 0.0
Mg14 Mg 0.98172 0.04693 0.41104 0.0
O15 O 0.08152 0.08853 0.43494 0.0
O16 O 0.09654 0.17882 0.45526 0.0
Mg17 Mg 0.00873 0.19587 0.44421 0.0
C18 C 0.11572 0.13752 0.45012 0.0
C19 C 1.0026 0.92604 0.39864 0.0
O20 O 0.99186 0.91502 0.4199 0.0
O21 O 0.04163 0.1374 0.38879 0.0
O22 O 0.05201 0.22487 0.40949 0.0
O23 O 0.91465 0.97982 0.43737 0.0
O24 O 0.94198 0.08641 0.43281 0.0
C25 C 0.06163 0.20089 0.39159 0.0
C26 C 0.91092 0.03169 0.4439 0.0
O27 O 1.00554 0.97825 0.39052 0.0
Mg28 Mg 1.00422 0.02458 0.73655 0.0
O29 O 0.09048 0.10588 0.76234 0.0
O30 O 0.03727 0.1339 0.78662 0.0
Mg31 Mg 0.9197 0.07504 0.77582 0.0
C32 C 0.09238 0.13932 0.77994 0.0
C33 C 0.06558 1.00107 0.69536 0.0
O34 O 0.99793 0.96436 0.68939 0.0
O35 O 0.99464 0.10619 0.71863 0.0
O36 O 0.93702 0.1296 0.74251 0.0
O37 O 0.98772 0.94219 0.75906 0.0
O38 O 0.92886 0.99379 0.75976 0.0
C39 C 0.96421 0.13736 0.72382 0.0
C40 C 0.9425 0.9508 0.7683 0.0
O41 O 0.08696 0.03507 0.71422 0.0
Mg42 Mg 0.03664 0.54842 0.24872 0.0
C43 C 0.11507 0.48156 0.2637 0.0
O44 O 0.08416 0.44531 0.24467 0.0
C45 C 0.04102 0.65621 0.2222 0.0
O46 O 0.98217 0.62865 0.23197 0.0
C47 C 0.94345 0.44571 0.20968 0.0
O48 O 0.95504 0.50199 0.20044 0.0
O49 O 0.96591 0.44991 0.23001 0.0
O50 O 0.11162 0.53394 0.26821 0.0
O51 O 0.9895 0.57916 0.2732 0.0
C52 C 1.00415 0.58106 0.29416 0.0
O53 O 0.04006 0.55432 0.30132 0.0
O54 O 0.0796 0.63196 0.22573 0.0
Mg55 Mg 0.56473 0.12048 0.58042 0.0
C56 C 0.51524 0.15392 0.53779 0.0
O57 O 0.53764 0.11616 0.52985 0.0
C58 C 0.71876 0.20678 0.59811 0.0
O59 O 0.72812 0.1957 0.5774 0.0
C60 C 0.41734 0.03627 0.59426 0.0
O61 O 0.40346 0.03864 0.57278 0.0
O62 O 0.48055 0.06109 0.60175 0.0
O63 O 0.52591 0.17048 0.55873 0.0
O64 O 0.58891 0.06055 0.55872 0.0
C65 C 0.62743 0.03732 0.56396 0.0
O66 O 0.64915 0.0408 0.58509 0.0
O67 O 0.65728 0.18718 0.60313 0.0
Mg68 Mg 0.58709 0.54623 0.9188 0.0
C69 C 0.53503 0.45178 0.8763 0.0
O70 O 0.5786 0.50996 0.86735 0.0
C71 C 0.67735 0.57735 0.96247 0.0
O72 O 0.61626 0.54265 0.97089 0.0
C73 C 0.44468 0.48565 0.93638 0.0
O74 O 0.42367 0.45799 0.9158 0.0
O75 O 0.50903 0.53209 0.9411 0.0
O76 O 0.53471 0.45066 0.89755 0.0
O77 O 0.62814 0.6325 0.89702 0.0
C78 C 0.68833 0.64875 0.89151 0.0
O79 O 0.71436 0.6131 0.89916 0.0
O80 O 0.67932 0.57508 0.94129 0.0
H81 H 0.89374 0.20294 0.09265 0.0
H82 H 0.94212 0.3296 0.22092 0.0
H83 H 0.98086 0.14034 0.14615 0.0
H84 H 0.89085 0.41751 0.16568 0.0
H85 H 0.92554 0.23746 0.1951 0.0
H86 H 0.86064 0.2568 0.12047 0.0
C87 C 0.90459 0.19908 0.11025 0.0
C88 C 0.94177 0.16835 0.11699 0.0
C89 C 0.9167 0.27623 0.1887 0.0
C90 C 0.90454 0.2309 0.14899 0.0
C91 C 0.92592 0.32882 0.20346 0.0
C92 C 0.91916 0.38224 0.19539 0.0
C93 C 0.90044 0.2769 0.16573 0.0
C94 C 0.89768 0.37808 0.1726 0.0
C95 C 0.88587 0.2302 0.12614 0.0
C96 C 0.95326 0.16426 0.1401 0.0
N97 N 0.89002 0.32694 0.15854 0.0
N98 N 0.93593 0.19637 0.15525 0.0
H99 H 0.86942 0.94302 0.47826 0.0
H100 H 0.61258 0.05013 0.51907 0.0
H101 H 0.85817 0.11096 0.45202 0.0
H102 H 0.71671 0.99013 0.56753 0.0
H103 H 0.68044 0.04364 0.49027 0.0
H104 H 0.79504 0.93524 0.50795 0.0
C105 C 0.85153 0.97827 0.47879 0.0
C106 C 0.87008 0.02789 0.46274 0.0
C107 C 0.6879 0.03128 0.50718 0.0
C108 C 0.78415 0.01784 0.49596 0.0
C109 C 0.64889 0.03451 0.52365 0.0
C110 C 0.65954 0.02152 0.5459 0.0
C111 C 0.7373 0.01391 0.51279 0.0
C112 C 0.70723 1.0011 0.55064 0.0
C113 C 0.80931 0.97376 0.49567 0.0
C114 C 0.84555 0.07227 0.46413 0.0
N115 N 0.74473 0.99814 0.5342 0.0
N116 N 0.80327 0.06569 0.48028 0.0
H117 H 0.97929 0.87797 0.79477 0.0
H118 H 0.64534 0.72114 0.86618 0.0
H119 H 0.82939 0.93886 0.78714 0.0
H120 H 0.82073 0.69824 0.88043 0.0
H121 H 0.71027 0.80196 0.83748 0.0
H122 H 0.92009 0.8117 0.82642 0.0
C123 C 0.93401 0.87761 0.79983 0.0
C124 C 0.90911 0.91378 0.78827 0.0
C125 C 0.73452 0.77953 0.84707 0.0
C126 C 0.84045 0.83743 0.82449 0.0
C127 C 0.69756 0.73353 0.86343 0.0
C128 C 0.72732 0.70232 0.87554 0.0
C129 C 0.80133 0.79388 0.84284 0.0
C130 C 0.7952 0.72029 0.87135 0.0
C131 C 0.90022 0.83986 0.81796 0.0
C132 C 0.85034 0.91171 0.79564 0.0
N133 N 0.82951 0.76432 0.85529 0.0
N134 N 0.81754 0.87362 0.81319 0.0
H135 H 0.20137 0.95187 0.11825 0.0
H136 H 0.97824 0.72858 0.21725 0.0
H137 H 0.05094 0.97905 0.14993 0.0
H138 H 0.14624 0.71458 0.19323 0.0
H139 H 1.00498 0.81997 0.19214 0.0
H140 H 0.18303 0.86497 0.14496 0.0
C141 C 0.16469 0.93981 0.13084 0.0
C142 C 0.12745 0.97273 0.13177 0.0
C143 C 0.03634 0.79729 0.19233 0.0
C144 C 0.10616 0.87326 0.1623 0.0
C145 C 0.02097 0.74478 0.20668 0.0
C146 C 0.0599 0.71355 0.20731 0.0
C147 C 0.0909 0.81891 0.17826 0.0
C148 C 0.11491 0.73725 0.19328 0.0
C149 C 0.15435 0.89025 0.14609 0.0
C150 C 0.08075 0.95507 0.14849 0.0
N151 N 0.12859 0.78835 0.17921 0.0
N152 N 0.0713 0.90648 0.16297 0.0
H153 H 0.19004 0.22087 0.48783 0.0
H154 H 0.47326 0.11406 0.49346 0.0
H155 H 0.18711 0.07553 0.44032 0.0
H156 H 0.44506 0.2163 0.54917 0.0
H157 H 0.38046 0.11579 0.47125 0.0
H158 H 0.29378 0.2339 0.5081 0.0
C159 C 0.21127 0.19186 0.48158 0.0
C160 C 0.17943 0.14674 0.46234 0.0
C161 C 0.39489 0.13832 0.48827 0.0
C162 C 0.29868 0.16195 0.48547 0.0
C163 C 0.44824 0.13775 0.50097 0.0
C164 C 0.46676 0.16463 0.52333 0.0
C165 C 0.35978 0.16627 0.4979 0.0
C166 C 0.43244 0.1948 0.53204 0.0
C167 C 0.2705 0.19932 0.49321 0.0
C168 C 0.20949 0.11057 0.45511 0.0
N169 N 0.38029 0.19444 0.51935 0.0
N170 N 0.26738 0.119 0.46666 0.0
H171 H 0.11082 0.18172 0.82411 0.0
H172 H 0.52366 0.43037 0.83062 0.0
H173 H 0.2269 0.19357 0.76797 0.0
H174 H 0.41044 0.3442 0.88906 0.0
H175 H 0.41717 0.34909 0.80676 0.0
H176 H 0.22097 0.24906 0.84756 0.0
C177 C 0.15951 0.19881 0.81666 0.0
C178 C 0.15954 0.1822 0.79397 0.0
C179 C 0.41607 0.34739 0.82481 0.0
C180 C 0.28613 0.25945 0.82086 0.0
C181 C 0.47682 0.39361 0.83845 0.0
C182 C 0.47595 0.3945 0.8619 0.0
C183 C 0.3537 0.30272 0.83469 0.0
C184 C 0.41369 0.34562 0.87109 0.0
C185 C 0.22237 0.23673 0.83013 0.0
C186 C 0.22441 0.20522 0.78536 0.0
N187 N 0.35482 0.30256 0.85747 0.0
N188 N 0.28521 0.24326 0.79876 0.0
H189 H 0.89716 0.20677 0.72775 0.0
H190 H 0.84437 0.21709 0.59528 0.0
H191 H 0.9989 0.1535 0.68011 0.0
H192 H 0.71916 0.23709 0.64263 0.0
H193 H 0.92228 0.22276 0.62654 0.0
H194 H 0.85381 0.24695 0.69731 0.0
C195 C 0.91155 0.2046 0.71097 0.0
C196 C 0.95068 0.17528 0.70649 0.0
C197 C 0.87845 0.22711 0.63007 0.0
C198 C 0.90045 0.22088 0.67144 0.0
C199 C 0.83406 0.22424 0.61221 0.0
C200 C 0.77435 0.22544 0.61633 0.0
C201 C 0.86314 0.23136 0.6522 0.0
C202 C 0.76395 0.23496 0.63865 0.0
C203 C 0.88651 0.22745 0.69356 0.0
C204 C 0.96816 0.17477 0.68438 0.0
N205 N 0.8073 0.23664 0.65573 0.0
N206 N 0.94204 0.19615 0.66765 0.0
H207 H 0.93953 0.89847 0.0672 0.0
H208 H 0.79528 0.68945 0.94803 0.0
H209 H 0.94803 0.99267 0.00474 0.0
H210 H 0.69626 0.59865 0.00833 0.0
H211 H 0.87869 0.7965 0.97007 0.0
H212 H 0.87381 0.7843 0.04685 0.0
C213 C 0.92785 0.89516 0.04923 0.0
C214 C 0.94856 0.95505 0.03766 0.0
C215 C 0.83936 0.75269 0.9785 0.0
C216 C 0.87556 0.82545 0.01438 0.0
C217 C 0.79206 0.69123 0.96599 0.0
C218 C 0.73794 0.63506 0.9763 0.0
C219 C 0.83332 0.75786 1.00153 0.0
C220 C 0.73667 0.64085 0.99966 0.0
C221 C 0.8905 0.83018 0.03769 0.0
C222 C 0.93228 0.94785 0.01437 0.0
N223 N 0.7833 0.70144 0.0115 0.0
N224 N 0.89707 0.88435 0.0035 0.0
H225 H 0.00893 0.81465 0.41058 0.0
H226 H 0.95971 0.66815 0.28395 0.0
H227 H 0.99659 0.91856 0.35275 0.0
H228 H 0.02496 0.59403 0.34004 0.0
H229 H 0.95755 0.75073 0.30961 0.0
H230 H 1.00272 0.72582 0.38551 0.0
C231 C 1.00523 0.81899 0.39263 0.0
C232 C 1.00348 0.8743 0.38377 0.0
C233 C 0.97193 0.7161 0.31632 0.0
C234 C 0.99531 0.77226 0.35501 0.0
C235 C 0.97263 0.6685 0.3017 0.0
C236 C 0.9929 0.62422 0.30983 0.0
C237 C 0.99115 0.71927 0.33927 0.0
C238 C 0.00932 0.62735 0.33301 0.0
C239 C 1.00156 0.76819 0.37834 0.0
C240 C 0.99848 0.87711 0.36035 0.0
N241 N 0.00832 0.67423 0.34691 0.0
N242 N 0.99425 0.82668 0.34681 0.0
H243 H 0.0384 0.94437 0.65251 0.0
H244 H 0.43356 0.05115 0.64019 0.0
H245 H 0.20642 0.05616 0.70468 0.0
H246 H 0.27698 0.98105 0.58423 0.0
H247 H 0.34636 0.03697 0.66535 0.0
H248 H 0.12129 0.94341 0.62848 0.0
C249 C 0.09272 0.9687 0.65893 0.0
C250 C 0.11555 1.00074 0.68062 0.0
C251 C 0.33097 0.02418 0.64759 0.0
C252 C 0.21062 0.99927 0.65323 0.0
C253 C 0.3806 0.03179 0.63321 0.0
C254 C 0.36274 0.0178 0.61001 0.0
C255 C 0.26284 1.00203 0.63875 0.0
C256 C 0.29325 0.9929 0.60197 0.0
C257 C 0.13999 0.96807 0.6452 0.0
C258 C 0.18656 0.03125 0.68804 0.0
N259 N 0.24596 0.98619 0.6163 0.0
N260 N 0.23155 0.02973 0.67437 0.0
H261 H 0.31361 0.25291 0.05317 0.0
H262 H 0.30308 0.38971 0.93334 0.0
H263 H 0.12158 0.2212 0.02159 0.0
H264 H 0.48416 0.49866 0.98126 0.0
H265 H 0.23485 0.31665 0.96301 0.0
H266 H 0.37779 0.32948 0.02359 0.0
C267 C 0.2849 0.26142 0.03987 0.0
C268 C 0.21233 0.23121 0.03989 0.0
C269 C 0.28938 0.3571 0.96699 0.0
C270 C 0.28502 0.31831 0.00616 0.0
C271 C 0.32824 0.39898 0.95013 0.0
C272 C 0.39962 0.45019 0.95476 0.0
C273 C 0.32259 0.36555 0.98844 0.0
C274 C 0.42948 0.45975 0.97684 0.0
C275 C 0.32154 0.3056 0.02318 0.0
C276 C 0.17761 0.24429 0.02238 0.0
N277 N 0.39115 0.41709 0.99277 0.0
N278 N 0.21421 0.28664 0.00612 0.0
H279 H 0.0724 0.16772 0.34824 0.0
H280 H 0.16613 0.53393 0.30699 0.0
H281 H 0.11963 0.34067 0.3924 0.0
H282 H 0.10891 0.35905 0.26216 0.0
H283 H 0.17277 0.47097 0.33847 0.0
H284 H 0.10733 0.24316 0.31685 0.0
C285 C 0.09101 0.22169 0.35143 0.0
C286 C 0.09187 0.24748 0.37298 0.0
C287 C 0.15983 0.44672 0.3217 0.0
C288 C 0.13174 0.33411 0.33706 0.0
C289 C 0.15636 0.48285 0.30367 0.0
C290 C 0.13562 0.4513 0.28191 0.0
C291 C 0.14208 0.37839 0.31799 0.0
C292 C 0.12419 0.38516 0.27868 0.0
C293 C 0.11089 0.26476 0.33347 0.0
C294 C 0.11697 0.31807 0.37605 0.0
N295 N 0.12642 0.35047 0.29656 0.0
N296 N 0.1351 0.35861 0.35828 0.0
loop_
_geom_bond_atom_site_label_1
_geom_bond_atom_site_label_2
_geom_bond_distance
_geom_bond_site_symmetry_2
_ccdc_geom_bond_type
Mg0 O1 2.028 . S
Mg0 O7 1.986 . S
Mg0 O9 2.114 . S
Mg0 O10 2.251 . S
Mg0 O13 2.010 . S
O1 Mg0 2.028 . S
O1 C4 1.250 1_455 S
O2 Mg3 2.028 1_655 S
O2 C4 1.247 . S
Mg3 O2 2.028 1_455 S
Mg3 O8 2.032 . S
Mg3 O10 2.079 . S
C4 O1 1.250 1_655 S
C4 O2 1.247 . S
C5 O6 1.264 1_565 S
C5 O13 1.249 1_565 S
O6 C5 1.264 1_545 S
O7 Mg0 1.986 . S
O7 C11 1.246 . S
O8 Mg3 2.032 . S
O8 C11 1.259 . S
O9 Mg0 2.114 . S
O9 C12 1.252 . S
O10 Mg0 2.251 . S
O10 Mg3 2.079 . S
O10 C12 1.273 . S
C11 O7 1.246 . S
C11 O8 1.259 . S
C12 O9 1.252 . S
C12 O10 1.273 . S
O13 Mg0 2.010 . S
O13 C5 1.249 1_545 S
Mg14 O15 2.028 1_655 S
Mg14 O21 1.986 1_655 S
Mg14 O23 2.114 1_545 S
Mg14 O24 2.251 . S
Mg14 O27 2.010 1_545 S
O15 Mg14 2.028 1_455 S
O15 C18 1.250 . S
O16 Mg17 2.028 . S
O16 C18 1.248 . S
Mg17 O16 2.028 . S
Mg17 O22 2.032 . S
Mg17 O24 2.079 1_455 S
C18 O15 1.250 . S
C18 O16 1.248 . S
C19 O20 1.264 . S
C19 O27 1.249 . S
O20 C19 1.264 . S
O21 Mg14 1.986 1_455 S
O21 C25 1.246 . S
O22 Mg17 2.032 . S
O22 C25 1.259 . S
O23 Mg14 2.114 1_565 S
O23 C26 1.252 1_565 S
O24 Mg14 2.251 . S
O24 Mg17 2.079 1_655 S
O24 C26 1.273 . S
C25 O21 1.246 . S
C25 O22 1.259 . S
C26 O23 1.252 1_545 S
C26 O24 1.273 . S
O27 Mg14 2.010 1_565 S
O27 C19 1.249 . S
Mg28 O29 2.028 . S
Mg28 O35 1.986 1_455 S
Mg28 O37 2.114 1_545 S
Mg28 O38 2.251 1_445 S
Mg28 O41 2.010 . S
O29 Mg28 2.028 . S
O29 C32 1.250 . S
O30 Mg31 2.028 1_455 S
O30 C32 1.248 . S
Mg31 O30 2.028 1_655 S
Mg31 O36 2.032 . S
Mg31 O38 2.079 1_545 S
C32 O29 1.250 . S
C32 O30 1.248 . S
C33 O34 1.273 . S
C33 O41 1.242 1_565 S
O34 C33 1.273 . S
O35 Mg28 1.986 1_655 S
O35 C39 1.246 . S
O36 Mg31 2.032 . S
O36 C39 1.259 . S
O37 Mg28 2.114 1_565 S
O37 C40 1.252 1_455 S
O38 Mg28 2.251 1_665 S
O38 Mg31 2.079 1_565 S
O38 C40 1.273 . S
C39 O35 1.246 . S
C39 O36 1.259 . S
C40 O37 1.252 1_655 S
C40 O38 1.273 . S
O41 Mg28 2.010 . S
O41 C33 1.242 1_545 S
Mg42 O49 2.141 . S
Mg42 O50 2.048 . S
Mg42 O51 2.048 . S
Mg42 O54 2.141 . S
C43 O44 1.313 1_455 S
C43 O50 1.195 . S
O44 C43 1.313 1_655 S
C45 O46 1.245 1_455 S
C45 O54 1.289 . S
O46 C45 1.245 1_655 S
C47 O48 1.245 1_455 S
C47 O49 1.289 . S
O48 C47 1.245 1_655 S
O49 Mg42 2.141 . S
O49 C47 1.289 . S
O50 Mg42 2.048 . S
O50 C43 1.195 . S
O51 Mg42 2.048 . S
O51 C52 1.195 . S
C52 O51 1.195 . S
C52 O53 1.313 1_455 S
O53 C52 1.313 1_655 S
O54 Mg42 2.141 . S
O54 C45 1.289 . S
Mg55 O62 2.141 . S
Mg55 O63 2.048 . S
Mg55 O64 2.048 . S
Mg55 O67 2.141 . S
C56 O57 1.313 . S
C56 O63 1.195 . S
O57 C56 1.313 . S
C58 O59 1.245 . S
C58 O67 1.289 . S
O59 C58 1.245 . S
C60 O61 1.245 . S
C60 O62 1.289 . S
O61 C60 1.245 . S
O62 Mg55 2.141 . S
O62 C60 1.289 . S
O63 Mg55 2.048 . S
O63 C56 1.195 . S
O64 Mg55 2.048 . S
O64 C65 1.195 . S
C65 O64 1.195 . S
C65 O66 1.313 . S
O66 C65 1.313 . S
O67 Mg55 2.141 . S
O67 C58 1.289 . S
Mg68 O75 2.141 . S
Mg68 O76 2.048 . S
Mg68 O77 2.048 . S
Mg68 O80 2.141 . S
C69 O70 1.313 . S
C69 O76 1.195 . S
O70 C69 1.313 . S
C71 O72 1.245 . S
C71 O80 1.289 . S
O72 C71 1.245 . S
C73 O74 1.245 . S
C73 O75 1.289 . S
O74 C73 1.245 . S
O75 Mg68 2.141 . S
O75 C73 1.289 . S
O76 Mg68 2.048 . S
O76 C69 1.195 . S
O77 Mg68 2.048 . S
O77 C78 1.195 . S
C78 O77 1.195 . S
C78 O79 1.313 . S
O79 C78 1.313 . S
O80 Mg68 2.141 . S
O80 C71 1.289 . S
H81 C87 0.930 . S
H82 C91 0.930 . S
H83 C96 0.929 . S
H84 C94 0.929 1_655 S
H85 C89 0.929 . S
H86 C95 0.929 . S
C87 H81 0.930 . S
C87 C88 1.367 1_655 S
C87 C95 1.378 . S
C88 C87 1.367 1_455 S
C88 C96 1.433 . S
C89 H85 0.929 . S
C89 C91 1.378 . S
C89 C93 1.350 . S
C90 C93 1.463 . S
C90 C95 1.350 1_455 S
C90 N98 1.427 . S
C91 H82 0.930 . S
C91 C89 1.378 . S
C91 C92 1.367 . S
C92 C91 1.367 . S
C92 C94 1.433 . S
C93 C89 1.350 . S
C93 C90 1.463 . S
C93 N97 1.437 . S
C94 H84 0.929 1_455 S
C94 C92 1.433 . S
C94 N97 1.379 . S
C95 H86 0.929 . S
C95 C87 1.378 . S
C95 C90 1.350 1_655 S
C96 H83 0.929 . S
C96 C88 1.433 . S
C96 N98 1.384 . S
N97 C93 1.437 . S
N97 C94 1.379 . S
N98 C90 1.427 . S
N98 C96 1.384 . S
H99 C105 0.930 . S
H100 C109 0.930 . S
H101 C114 0.929 . S
H102 C112 0.929 1_565 S
H103 C107 0.929 . S
H104 C113 0.929 . S
C105 H99 0.930 . S
C105 C106 1.367 1_565 S
C105 C113 1.378 . S
C106 C105 1.367 1_545 S
C106 C114 1.433 . S
C107 H103 0.929 . S
C107 C109 1.378 . S
C107 C111 1.350 . S
C108 C111 1.463 . S
C108 C113 1.350 1_545 S
C108 N116 1.427 . S
C109 H100 0.930 . S
C109 C107 1.378 . S
C109 C110 1.367 . S
C110 C109 1.367 . S
C110 C112 1.433 . S
C111 C107 1.350 . S
C111 C108 1.463 . S
C111 N115 1.427 . S
C112 H102 0.929 1_545 S
C112 C110 1.433 . S
C112 N115 1.384 . S
C113 H104 0.929 . S
C113 C105 1.378 . S
C113 C108 1.350 1_565 S
C114 H101 0.929 . S
C114 C106 1.433 . S
C114 N116 1.384 . S
N115 C111 1.427 . S
N115 C112 1.384 . S
N116 C108 1.427 . S
N116 C114 1.384 . S
H117 C123 0.930 . S
H118 C127 0.930 . S
H119 C132 0.929 . S
H120 C130 0.929 . S
H121 C125 0.929 . S
H122 C131 0.929 . S
C123 H117 0.930 . S
C123 C124 1.367 . S
C123 C131 1.378 . S
C124 C123 1.367 . S
C124 C132 1.433 . S
C125 H121 0.929 . S
C125 C127 1.378 . S
C125 C129 1.350 . S
C126 C129 1.463 . S
C126 C131 1.350 . S
C126 N134 1.427 . S
C127 H118 0.930 . S
C127 C125 1.378 . S
C127 C128 1.367 . S
C128 C127 1.367 . S
C128 C130 1.433 . S
C129 C125 1.350 . S
C129 C126 1.463 . S
C129 N133 1.427 . S
C130 H120 0.929 . S
C130 C128 1.433 . S
C130 N133 1.384 . S
C131 H122 0.929 . S
C131 C123 1.378 . S
C131 C126 1.350 . S
C132 H119 0.929 . S
C132 C124 1.433 . S
C132 N134 1.384 . S
N133 C129 1.427 . S
N133 C130 1.384 . S
N134 C126 1.427 . S
N134 C132 1.384 . S
H135 C141 0.930 . S
H136 C145 0.930 1_655 S
H137 C150 0.929 . S
H138 C148 0.929 . S
H139 C143 0.930 . S
H140 C149 0.929 . S
C141 H135 0.930 . S
C141 C142 1.367 . S
C141 C149 1.378 . S
C142 C141 1.367 . S
C142 C150 1.433 . S
C143 H139 0.930 . S
C143 C145 1.378 . S
C143 C147 1.350 . S
C144 C147 1.463 . S
C144 C149 1.350 . S
C144 N152 1.427 . S
C145 H136 0.930 1_455 S
C145 C143 1.378 . S
C145 C146 1.367 . S
C146 C145 1.367 . S
C146 C148 1.433 . S
C147 C143 1.350 . S
C147 C144 1.463 . S
C147 N151 1.427 . S
C148 H138 0.929 . S
C148 C146 1.433 . S
C148 N151 1.384 . S
C149 H140 0.929 . S
C149 C141 1.378 . S
C149 C144 1.350 . S
C150 H137 0.929 . S
C150 C142 1.433 . S
C150 N152 1.384 . S
N151 C147 1.427 . S
N151 C148 1.384 . S
N152 C144 1.427 . S
N152 C150 1.384 . S
H153 C159 0.930 . S
H154 C163 0.930 1_565 S
H155 C168 0.929 1_565 S
H156 C166 0.929 . S
H157 C161 0.929 1_565 S
H158 C167 0.929 . S
C159 H153 0.930 . S
C159 C160 1.367 . S
C159 C167 1.378 . S
C160 C159 1.367 . S
C160 C168 1.433 . S
C161 H157 0.929 1_545 S
C161 C163 1.378 . S
C161 C165 1.350 . S
C162 C165 1.463 . S
C162 C167 1.350 . S
C162 N170 1.427 . S
C163 H154 0.930 1_545 S
C163 C161 1.378 . S
C163 C164 1.367 . S
C164 C163 1.367 . S
C164 C166 1.433 . S
C165 C161 1.350 . S
C165 C162 1.463 . S
C165 N169 1.427 . S
C166 H156 0.929 . S
C166 C164 1.433 . S
C166 N169 1.384 . S
C167 H158 0.929 . S
C167 C159 1.378 . S
C167 C162 1.350 . S
C168 H155 0.929 1_545 S
C168 C160 1.433 . S
C168 N170 1.384 . S
N169 C165 1.427 . S
N169 C166 1.384 . S
N170 C162 1.427 . S
N170 C168 1.384 . S
H171 C177 0.930 . S
H172 C181 0.930 . S
H173 C186 0.929 . S
H174 C184 0.929 . S
H175 C179 0.929 . S
H176 C185 0.929 . S
C177 H171 0.930 . S
C177 C178 1.367 . S
C177 C185 1.378 . S
C178 C177 1.367 . S
C178 C186 1.433 . S
C179 H175 0.929 . S
C179 C181 1.378 . S
C179 C183 1.350 . S
C180 C183 1.463 . S
C180 C185 1.350 . S
C180 N188 1.427 . S
C181 H172 0.930 . S
C181 C179 1.378 . S
C181 C182 1.367 . S
C182 C181 1.367 . S
C182 C184 1.433 . S
C183 C179 1.350 . S
C183 C180 1.463 . S
C183 N187 1.427 . S
C184 H174 0.929 . S
C184 C182 1.433 . S
C184 N187 1.384 . S
C185 H176 0.929 . S
C185 C177 1.378 . S
C185 C180 1.350 . S
C186 H173 0.929 . S
C186 C178 1.433 . S
C186 N188 1.384 . S
N187 C183 1.427 . S
N187 C184 1.384 . S
N188 C180 1.427 . S
N188 C186 1.384 . S
H189 C195 0.930 . S
H190 C199 0.930 1_565 S
H191 C204 0.929 1_565 S
H192 C202 0.929 . S
H193 C197 0.929 1_565 S
H194 C203 0.929 . S
C195 H189 0.930 . S
C195 C196 1.367 . S
C195 C203 1.378 . S
C196 C195 1.367 . S
C196 C204 1.433 . S
C197 H193 0.929 1_545 S
C197 C199 1.378 . S
C197 C201 1.350 . S
C198 C201 1.463 . S
C198 C203 1.350 . S
C198 N206 1.427 . S
C199 H190 0.930 1_545 S
C199 C197 1.378 . S
C199 C200 1.367 . S
C200 C199 1.367 . S
C200 C202 1.433 . S
C201 C197 1.350 . S
C201 C198 1.463 . S
C201 N205 1.427 . S
C202 H192 0.929 . S
C202 C200 1.433 . S
C202 N205 1.384 . S
C203 H194 0.929 . S
C203 C195 1.378 . S
C203 C198 1.350 . S
C204 H191 0.929 1_545 S
C204 C196 1.433 . S
C204 N206 1.384 . S
N205 C201 1.427 . S
N205 C202 1.384 . S
N206 C198 1.427 . S
N206 C204 1.384 . S
H207 C213 0.930 . S
H208 C217 0.930 . S
H209 C222 0.929 1_545 S
H210 C220 0.929 . S
H211 C215 0.929 . S
H212 C221 0.929 . S
C213 H207 0.930 . S
C213 C214 1.367 . S
C213 C221 1.378 . S
C214 C213 1.367 . S
C214 C222 1.433 . S
C215 H211 0.929 . S
C215 C217 1.378 . S
C215 C219 1.350 . S
C216 C219 1.463 1_554 S
C216 C221 1.350 . S
C216 N224 1.427 . S
C217 H208 0.930 . S
C217 C215 1.378 . S
C217 C218 1.367 . S
C218 C217 1.367 . S
C218 C220 1.433 . S
C219 C215 1.350 . S
C219 C216 1.463 1_556 S
C219 N223 1.432 . S
C220 H210 0.929 . S
C220 C218 1.433 . S
C220 N223 1.392 . S
C221 H212 0.929 . S
C221 C213 1.378 . S
C221 C216 1.350 . S
C222 H209 0.929 1_565 S
C222 C214 1.433 . S
C222 N224 1.384 . S
N223 C219 1.432 . S
N223 C220 1.392 . S
N224 C216 1.427 . S
N224 C222 1.384 . S
H225 C231 0.930 . S
H226 C235 0.930 . S
H227 C240 0.929 . S
H228 C238 0.929 . S
H229 C233 0.929 . S
H230 C239 0.929 . S
C231 H225 0.930 . S
C231 C232 1.367 . S
C231 C239 1.378 . S
C232 C231 1.367 . S
C232 C240 1.433 1_655 S
C233 H229 0.929 . S
C233 C235 1.378 . S
C233 C237 1.350 . S
C234 C237 1.463 1_655 S
C234 C239 1.350 . S
C234 N242 1.427 1_655 S
C235 H226 0.930 . S
C235 C233 1.378 . S
C235 C236 1.367 . S
C236 C235 1.367 . S
C236 C238 1.433 1_455 S
C237 C233 1.350 . S
C237 C234 1.463 1_455 S
C237 N241 1.427 1_455 S
C238 H228 0.929 . S
C238 C236 1.433 1_655 S
C238 N241 1.384 . S
C239 H230 0.929 . S
C239 C231 1.378 . S
C239 C234 1.350 . S
C240 H227 0.929 . S
C240 C232 1.433 1_455 S
C240 N242 1.384 . S
N241 C237 1.427 1_655 S
N241 C238 1.384 . S
N242 C234 1.427 1_455 S
N242 C240 1.384 . S
H243 C249 0.930 . S
H244 C253 0.930 . S
H245 C258 0.929 . S
H246 C256 0.929 1_565 S
H247 C251 0.929 . S
H248 C257 0.929 . S
C249 H243 0.930 . S
C249 C250 1.367 1_565 S
C249 C257 1.378 . S
C250 C249 1.367 1_545 S
C250 C258 1.433 . S
C251 H247 0.929 . S
C251 C253 1.378 . S
C251 C255 1.350 . S
C252 C255 1.463 . S
C252 C257 1.350 1_545 S
C252 N260 1.427 . S
C253 H244 0.930 . S
C253 C251 1.378 . S
C253 C254 1.367 . S
C254 C253 1.367 . S
C254 C256 1.433 . S
C255 C251 1.350 . S
C255 C252 1.463 . S
C255 N259 1.427 . S
C256 H246 0.929 1_545 S
C256 C254 1.433 . S
C256 N259 1.384 . S
C257 H248 0.929 . S
C257 C249 1.378 . S
C257 C252 1.350 1_565 S
C258 H245 0.929 . S
C258 C250 1.433 . S
C258 N260 1.384 . S
N259 C255 1.427 . S
N259 C256 1.384 . S
N260 C252 1.427 . S
N260 C258 1.384 . S
H261 C267 0.930 . S
H262 C271 0.930 . S
H263 C276 0.929 . S
H264 C274 0.929 . S
H265 C269 0.929 . S
H266 C275 0.929 . S
C267 H261 0.930 . S
C267 C268 1.367 . S
C267 C275 1.378 . S
C268 C267 1.367 . S
C268 C276 1.433 . S
C269 H265 0.929 . S
C269 C271 1.378 . S
C269 C273 1.350 . S
C270 C273 1.463 1_554 S
C270 C275 1.350 . S
C270 N278 1.429 1_554 S
C271 H262 0.930 . S
C271 C269 1.378 . S
C271 C272 1.367 . S
C272 C271 1.367 . S
C272 C274 1.433 . S
C273 C269 1.350 . S
C273 C270 1.463 1_556 S
C273 N277 1.427 . S
C274 H264 0.929 . S
C274 C272 1.433 . S
C274 N277 1.384 . S
C275 H266 0.929 . S
C275 C267 1.378 . S
C275 C270 1.350 . S
C276 H263 0.929 . S
C276 C268 1.433 . S
C276 N278 1.387 1_554 S
N277 C273 1.427 . S
N277 C274 1.384 . S
N278 C270 1.429 1_556 S
N278 C276 1.387 1_556 S
H279 C285 0.930 . S
H280 C289 0.930 . S
H281 C294 0.929 . S
H282 C292 0.927 1_655 S
H283 C287 0.929 . S
H284 C293 0.929 . S
C285 H279 0.930 . S
C285 C286 1.367 . S
C285 C293 1.378 . S
C286 C285 1.367 . S
C286 C294 1.433 . S
C287 H283 0.929 . S
C287 C289 1.378 . S
C287 C291 1.350 . S
C288 C291 1.463 . S
C288 C293 1.350 . S
C288 N296 1.427 . S
C289 H280 0.930 . S
C289 C287 1.378 . S
C289 C290 1.367 . S
C290 C289 1.367 . S
C290 C292 1.433 . S
C291 C287 1.350 . S
C291 C288 1.463 . S
C291 N295 1.427 . S
C292 H282 0.927 1_455 S
C292 C290 1.433 . S
C292 N295 1.384 . S
C293 H284 0.929 . S
C293 C285 1.378 . S
C293 C288 1.350 . S
C294 H281 0.929 . S
C294 C286 1.433 . S
C294 N296 1.384 . S
N295 C291 1.427 . S
N295 C292 1.384 . S
N296 C288 1.427 . S
N296 C294 1.384 . S
C92 C47 1.352 . S
C88 C11 1.353 . S
C106 C26 1.520 . S
C110 C65 1.518 . S
C124 C40 1.420 . S
C128 C78 1.417 . S
C142 C5 1.180 . S
C146 C45 1.347 . S
C164 C56 1.534 . S
C160 C18 1.520 . S
C178 C32 1.397 . S
C182 C69 1.423 . S
C200 C58 1.236 . S
C196 C39 1.243 . S
C214 C4 1.355 1_565 S
C218 C71 1.367 . S
C236 C52 1.415 . S
C232 C19 1.259 . S
C254 C60 1.272 . S
C250 C33 1.104 1_545 S
C272 C73 1.356 . S
C268 C12 1.363 . S
C286 C25 1.429 . S
C290 C43 1.441 . S
