# Generated by pormake.
# Topology hwx, (6,3)-cn, num edge types: 1
# Building blocks:
#     Node 0, Type 0, BuildingBlock: OJICUG_clean_sbu_0, # of connection points: 6
#     Node 1, Type 0, BuildingBlock: OJICUG_clean_sbu_0, # of connection points: 6
#     Node 2, Type 0, BuildingBlock: OJICUG_clean_sbu_0, # of connection points: 6
#     Node 3, Type 0, BuildingBlock: OJICUG_clean_sbu_0, # of connection points: 6
#     Node 4, Type 1, BuildingBlock: WUSLED_clean_sbu_0, # of connection points: 3
#     Node 5, Type 1, BuildingBlock: WUSLED_clean_sbu_0, # of connection points: 3
#     Node 6, Type 1, BuildingBlock: WUSLED_clean_sbu_0, # of connection points: 3
#     Node 7, Type 1, BuildingBlock: WUSLED_clean_sbu_0, # of connection points: 3
#     Node 8, Type 1, BuildingBlock: WUSLED_clean_sbu_0, # of connection points: 3
#     Node 9, Type 1, BuildingBlock: WUSLED_clean_sbu_0, # of connection points: 3
#     Node 10, Type 1, BuildingBlock: WUSLED_clean_sbu_0, # of connection points: 3
#     Node 11, Type 1, BuildingBlock: WUSLED_clean_sbu_0, # of connection points: 3
#     Edge 12, Type (0, 1), BuildingBlock: CIFDUS_clean_linker_0, # of connection points: 2
#     Edge 13, Type (0, 1), BuildingBlock: CIFDUS_clean_linker_0, # of connection points: 2
#     Edge 14, Type (0, 1), BuildingBlock: CIFDUS_clean_linker_0, # of connection points: 2
#     Edge 15, Type (0, 1), BuildingBlock: CIFDUS_clean_linker_0, # of connection points: 2
#     Edge 16, Type (0, 1), BuildingBlock: CIFDUS_clean_linker_0, # of connection points: 2
#     Edge 17, Type (0, 1), BuildingBlock: CIFDUS_clean_linker_0, # of connection points: 2
#     Edge 18, Type (0, 1), BuildingBlock: CIFDUS_clean_linker_0, # of connection points: 2
#     Edge 19, Type (0, 1), BuildingBlock: CIFDUS_clean_linker_0, # of connection points: 2
#     Edge 20, Type (0, 1), BuildingBlock: CIFDUS_clean_linker_0, # of connection points: 2
#     Edge 21, Type (0, 1), BuildingBlock: CIFDUS_clean_linker_0, # of connection points: 2
#     Edge 22, Type (0, 1), BuildingBlock: CIFDUS_clean_linker_0, # of connection points: 2
#     Edge 23, Type (0, 1), BuildingBlock: CIFDUS_clean_linker_0, # of connection points: 2
#     Edge 24, Type (0, 1), BuildingBlock: CIFDUS_clean_linker_0, # of connection points: 2
#     Edge 25, Type (0, 1), BuildingBlock: CIFDUS_clean_linker_0, # of connection points: 2
#     Edge 26, Type (0, 1), BuildingBlock: CIFDUS_clean_linker_0, # of connection points: 2
#     Edge 27, Type (0, 1), BuildingBlock: CIFDUS_clean_linker_0, # of connection points: 2
#     Edge 28, Type (0, 1), BuildingBlock: CIFDUS_clean_linker_0, # of connection points: 2
#     Edge 29, Type (0, 1), BuildingBlock: CIFDUS_clean_linker_0, # of connection points: 2
#     Edge 30, Type (0, 1), BuildingBlock: CIFDUS_clean_linker_0, # of connection points: 2
#     Edge 31, Type (0, 1), BuildingBlock: CIFDUS_clean_linker_0, # of connection points: 2
#     Edge 32, Type (0, 1), BuildingBlock: CIFDUS_clean_linker_0, # of connection points: 2
#     Edge 33, Type (0, 1), BuildingBlock: CIFDUS_clean_linker_0, # of connection points: 2
#     Edge 34, Type (0, 1), BuildingBlock: CIFDUS_clean_linker_0, # of connection points: 2
#     Edge 35, Type (0, 1), BuildingBlock: CIFDUS_clean_linker_0, # of connection points: 2
# Relax obj value: 0.072
# Max RMSD: 0.099
# Mean RMSD: 0.090
data_MOF--net-hwx--node1-OJICUG_clean_sbu_0--node2-WUSLED_clean_sbu_0--edge1-CIFDUS_clean_linker_0
_symmetry_space_group_name_H-M    P1
_symmetry_Int_Tables_number       1
_symmetry_cell_setting            triclinic
loop_
_symmetry_equiv_pos_as_xyz
'x, y, z'
_cell_length_a     58.759097
_cell_length_b     58.674139
_cell_length_c     26.30317
_cell_angle_alpha  90.340535
_cell_angle_beta   90.350696
_cell_angle_gamma 89.918728
loop_
_atom_site_label
_atom_site_type_symbol
_atom_site_fract_x
_atom_site_fract_y
_atom_site_fract_z
_atom_type_partial_charge
Sc0 Sc 0.23451 0.23733 0.09111 0.0
Sc1 Sc 0.19684 0.20457 0.01603 0.0
Sc2 Sc 0.23661 0.24105 0.95747 0.0
O3 O 0.22263 0.22766 0.02148 0.0
C4 C 0.23439 0.2847 0.0304 0.0
C5 C 0.18102 0.23462 0.11163 0.0
C6 C 0.18358 0.23881 0.92699 0.0
C7 C 0.22661 0.1838 0.10671 0.0
C8 C 0.28079 0.23454 0.02809 0.0
C9 C 0.22949 0.18902 0.92483 0.0
O10 O 0.23452 0.27302 0.07107 0.0
O11 O 0.17694 0.2208 0.07523 0.0
O12 O 0.20379 0.24616 0.92127 0.0
O13 O 0.23575 0.20271 0.11912 0.0
O14 O 0.27129 0.23753 0.98503 0.0
O15 O 0.21344 0.18559 0.95616 0.0
O16 O 0.26958 0.23358 0.06922 0.0
O17 O 0.21254 0.18189 0.07001 0.0
O18 O 0.23996 0.20795 0.92192 0.0
O19 O 0.20085 0.24222 0.12116 0.0
O20 O 0.23472 0.27558 0.98635 0.0
O21 O 0.17837 0.22437 0.96084 0.0
Sc22 Sc 0.27512 0.7429 0.42975 0.0
Sc23 Sc 0.31157 0.70685 0.4997 0.0
Sc24 Sc 0.27171 0.74195 0.56341 0.0
O25 O 0.28615 0.73055 0.49767 0.0
C26 C 0.27532 0.78798 0.49902 0.0
C27 C 0.32869 0.73926 0.41022 0.0
C28 C 0.32442 0.73829 0.59532 0.0
C29 C 0.28225 0.69002 0.40357 0.0
C30 C 0.22816 0.73871 0.49003 0.0
C31 C 0.27817 0.68889 0.58691 0.0
O32 O 0.27618 0.77788 0.4561 0.0
O33 O 0.33243 0.72476 0.44514 0.0
O34 O 0.30432 0.74601 0.60116 0.0
O35 O 0.27301 0.70934 0.39581 0.0
O36 O 0.23722 0.73911 0.53412 0.0
O37 O 0.29398 0.68594 0.55458 0.0
O38 O 0.23982 0.73989 0.44962 0.0
O39 O 0.29637 0.68657 0.43965 0.0
O40 O 0.26833 0.70801 0.59344 0.0
O41 O 0.30899 0.74727 0.40112 0.0
O42 O 0.27366 0.77724 0.54077 0.0
O43 O 0.32961 0.72442 0.55986 0.0
Sc44 Sc 0.77064 0.78013 0.9399 0.0
Sc45 Sc 0.80907 0.81277 0.01346 0.0
Sc46 Sc 0.77193 0.77414 0.07326 0.0
O47 O 0.78389 0.789 0.0089 0.0
C48 C 0.72592 0.78009 0.00825 0.0
C49 C 0.77702 0.83393 0.92691 0.0
C50 C 0.77765 0.82606 0.1083 0.0
C51 C 0.82366 0.78445 0.91454 0.0
C52 C 0.77383 0.73183 0.99658 0.0
C53 C 0.82525 0.77802 0.09929 0.0
O54 O 0.73589 0.78237 0.96579 0.0
O55 O 0.7919 0.83564 0.96203 0.0
O56 O 0.7681 0.80664 0.11129 0.0
O57 O 0.80377 0.77674 0.90591 0.0
O58 O 0.77448 0.74012 0.04144 0.0
O59 O 0.82925 0.79306 0.06593 0.0
O60 O 0.77213 0.74421 0.95712 0.0
O61 O 0.82817 0.79763 0.95186 0.0
O62 O 0.80548 0.76979 0.10617 0.0
O63 O 0.76783 0.81504 0.91461 0.0
O64 O 0.73675 0.77668 0.04954 0.0
O65 O 0.79287 0.83053 0.0756 0.0
Sc66 Sc 0.73974 0.27205 0.57448 0.0
Sc67 Sc 0.70505 0.30981 0.50409 0.0
Sc68 Sc 0.74199 0.27178 0.44069 0.0
O69 O 0.72893 0.28457 0.50643 0.0
C70 C 0.78632 0.27391 0.51115 0.0
C71 C 0.73576 0.32518 0.59942 0.0
C72 C 0.73813 0.3252 0.41513 0.0
C73 C 0.68611 0.27859 0.5933 0.0
C74 C 0.73731 0.2265 0.5079 0.0
C75 C 0.68973 0.27779 0.41064 0.0
O76 O 0.77534 0.27287 0.55273 0.0
O77 O 0.72104 0.32936 0.56494 0.0
O78 O 0.74592 0.30523 0.40705 0.0
O79 O 0.70538 0.2699 0.60461 0.0
O80 O 0.7395 0.23673 0.46564 0.0
O81 O 0.68593 0.29351 0.44312 0.0
O82 O 0.73659 0.23708 0.55018 0.0
O83 O 0.68351 0.29274 0.55733 0.0
O84 O 0.70892 0.26796 0.40658 0.0
O85 O 0.74428 0.30552 0.6062 0.0
O86 O 0.77651 0.27415 0.46794 0.0
O87 O 0.7239 0.32955 0.45011 0.0
C88 C 0.25876 0.54632 0.84155 0.0
C89 C 0.25809 0.56956 0.85431 0.0
C90 C 0.26552 0.5797 0.76618 0.0
C91 C 0.2614 0.5861 0.81697 0.0
C92 C 0.26609 0.55634 0.75365 0.0
C93 C 0.26271 0.53981 0.79104 0.0
U94 U 0.25298 0.53076 0.98048 0.0
O95 O 0.23112 0.5059 0.01886 0.0
O96 O 0.26829 0.50283 0.02476 0.0
C97 C 0.24846 0.49356 0.0346 0.0
C98 C 0.25587 0.52887 0.88096 0.0
C99 C 0.24684 0.46874 0.02602 0.0
C100 C 0.23449 0.43584 0.97629 0.0
C101 C 0.23632 0.45952 0.98246 0.0
C102 C 0.25403 0.43036 0.05662 0.0
C103 C 0.24322 0.42094 0.01346 0.0
C104 C 0.25576 0.45398 0.06282 0.0
C105 C 0.25479 0.58145 0.07682 0.0
C106 C 0.23435 0.60296 0.14171 0.0
C107 C 0.27522 0.59869 0.14824 0.0
C108 C 0.2752 0.58571 0.10345 0.0
C109 C 0.25485 0.60791 0.16732 0.0
C110 C 0.23432 0.58997 0.09692 0.0
C111 C 0.2552 0.57085 0.02543 0.0
O112 O 0.27346 0.52614 0.9114 0.0
O113 O 0.23639 0.52952 0.90526 0.0
O114 O 0.2361 0.5619 0.00832 0.0
O115 O 0.27325 0.55868 0.01363 0.0
H116 H 0.25521 0.5749 0.89325 0.0
H117 H 0.26119 0.6039 0.82812 0.0
H118 H 0.269 0.55083 0.71486 0.0
H119 H 0.2633 0.52193 0.78054 0.0
H120 H 0.2259 0.42923 0.94279 0.0
H121 H 0.22937 0.4706 0.95344 0.0
H122 H 0.26137 0.41949 0.08553 0.0
H123 H 0.26405 0.46075 0.09658 0.0
H124 H 0.21833 0.60958 0.15566 0.0
H125 H 0.29136 0.60241 0.16654 0.0
H126 H 0.29133 0.57976 0.0887 0.0
H127 H 0.21832 0.58726 0.07717 0.0
C128 C 0.96619 0.75968 0.66208 0.0
C129 C 0.94333 0.76237 0.64766 0.0
C130 C 0.93266 0.7683 0.73617 0.0
C131 C 0.92672 0.76665 0.68434 0.0
C132 C 0.95565 0.76556 0.75033 0.0
C133 C 0.97226 0.76128 0.71356 0.0
U134 U 0.98224 0.74964 0.52453 0.0
O135 O 0.01072 0.7626 0.4794 0.0
O136 O 0.00683 0.72574 0.4903 0.0
C137 C 0.01975 0.74225 0.47324 0.0
C138 C 0.9837 0.75526 0.62358 0.0
C139 C 0.04426 0.74027 0.48484 0.0
C140 C 0.0779 0.75126 0.53352 0.0
C141 C 0.05438 0.75259 0.52495 0.0
C142 C 0.08132 0.72472 0.4631 0.0
C143 C 0.09173 0.7375 0.50229 0.0
C144 C 0.05786 0.72616 0.45443 0.0
C145 C 0.93207 0.75023 0.42669 0.0
C146 C 0.9173 0.76907 0.35097 0.0
C147 C 0.90813 0.72952 0.36618 0.0
C148 C 0.92111 0.73007 0.41094 0.0
C149 C 0.90561 0.74916 0.33625 0.0
C150 C 0.9303 0.76962 0.39571 0.0
C151 C 0.94255 0.75173 0.47811 0.0
O152 O 0.98257 0.73514 0.60149 0.0
O153 O 0.98704 0.77191 0.5913 0.0
O154 O 0.95511 0.76974 0.48826 0.0
O155 O 0.95091 0.73283 0.49742 0.0
H156 H 0.93837 0.76124 0.60797 0.0
H157 H 0.90926 0.76899 0.672 0.0
H158 H 0.96078 0.76646 0.78991 0.0
H159 H 0.98984 0.75918 0.72532 0.0
H160 H 0.08531 0.76148 0.56375 0.0
H161 H 0.04417 0.76351 0.54913 0.0
H162 H 0.09131 0.71359 0.43895 0.0
H163 H 0.05035 0.71638 0.42355 0.0
H164 H 0.91551 0.78461 0.3293 0.0
H165 H 0.89958 0.71383 0.35567 0.0
H166 H 0.92189 0.7149 0.43416 0.0
H167 H 0.9382 0.78555 0.40696 0.0
C168 C 0.75377 0.46806 0.15967 0.0
C169 C 0.73246 0.46387 0.18172 0.0
C170 C 0.74891 0.43453 0.23602 0.0
C171 C 0.73004 0.44727 0.21918 0.0
C172 C 0.77029 0.43885 0.21435 0.0
C173 C 0.77271 0.45547 0.17676 0.0
U174 U 0.75605 0.48549 0.01992 0.0
O175 O 0.7401 0.51433 0.97994 0.0
O176 O 0.77729 0.51052 0.98038 0.0
C177 C 0.75979 0.52345 0.96823 0.0
C178 C 0.75608 0.48571 0.11973 0.0
C179 C 0.76208 0.54801 0.97929 0.0
C180 C 0.77512 0.57948 0.03261 0.0
C181 C 0.77297 0.55601 0.02358 0.0
C182 C 0.75519 0.58715 0.95367 0.0
C183 C 0.76632 0.59537 0.99764 0.0
C184 C 0.75315 0.56374 0.94461 0.0
C185 C 0.75027 0.43639 0.92145 0.0
C186 C 0.73924 0.43833 0.83223 0.0
C187 C 0.75478 0.40334 0.86654 0.0
C188 C 0.75704 0.41374 0.91414 0.0
C189 C 0.74572 0.41542 0.825 0.0
C190 C 0.74156 0.44877 0.88011 0.0
C191 C 0.75157 0.44607 0.97315 0.0
O192 O 0.77483 0.4852 0.09264 0.0
O193 O 0.73779 0.48971 0.0921 0.0
O194 O 0.73421 0.4586 0.9878 0.0
O195 O 0.77137 0.45443 0.98725 0.0
H196 H 0.71754 0.47337 0.16987 0.0
H197 H 0.71326 0.44422 0.23453 0.0
H198 H 0.78524 0.4296 0.22694 0.0
H199 H 0.78946 0.45844 0.16118 0.0
H200 H 0.78395 0.58516 0.06663 0.0
H201 H 0.77991 0.54414 0.05102 0.0
H202 H 0.74778 0.5988 0.92641 0.0
H203 H 0.74455 0.5579 0.91039 0.0
H204 H 0.73235 0.44815 0.80097 0.0
H205 H 0.75954 0.38558 0.86273 0.0
H206 H 0.76368 0.40388 0.94565 0.0
H207 H 0.73628 0.46634 0.88501 0.0
C208 C 0.04059 0.25882 0.36961 0.0
C209 C 0.06391 0.25821 0.3812 0.0
C210 C 0.07284 0.25123 0.29209 0.0
C211 C 0.07987 0.25444 0.34289 0.0
C212 C 0.04939 0.25193 0.28066 0.0
C213 C 0.0334 0.25571 0.31915 0.0
U214 U 0.02934 0.26798 0.50879 0.0
O215 O 1.00537 0.29005 0.55002 0.0
O216 O 1.00407 0.25295 0.56027 0.0
C217 C 0.99441 0.27273 0.56983 0.0
C218 C 0.02391 0.26226 0.41045 0.0
C219 C 0.96933 0.27326 0.56598 0.0
C220 C 0.93422 0.28465 0.52353 0.0
C221 C 0.95804 0.28381 0.52516 0.0
C222 C 0.93265 0.26403 0.60289 0.0
C223 C 0.92119 0.27485 0.56252 0.0
C224 C 0.95644 0.26332 0.60461 0.0
C225 C 0.08411 0.27021 0.59188 0.0
C226 C 0.08633 0.27109 0.6842 0.0
C227 C 0.12084 0.2721 0.63431 0.0
C228 C 0.10787 0.27131 0.58973 0.0
C229 C 0.11029 0.27186 0.68219 0.0
C230 C 0.07332 0.27027 0.63931 0.0
C231 C 0.0713 0.26823 0.54392 0.0
O232 O 0.0227 0.24548 0.44319 0.0
O233 O 0.02446 0.28244 0.43242 0.0
O234 O 0.06069 0.28667 0.52838 0.0
O235 O 0.05926 0.24955 0.53779 0.0
H236 H 0.06976 0.26046 0.42006 0.0
H237 H 0.09771 0.25363 0.35328 0.0
H238 H 0.04341 0.24974 0.24192 0.0
H239 H 0.01545 0.25613 0.30954 0.0
H240 H 0.92603 0.29333 0.49213 0.0
H241 H 0.96762 0.29157 0.49477 0.0
H242 H 0.92326 0.25592 0.63308 0.0
H243 H 0.9648 0.25501 0.63633 0.0
H244 H 0.07765 0.27106 0.7204 0.0
H245 H 0.1392 0.27223 0.63116 0.0
H246 H 0.11647 0.27115 0.55339 0.0
H247 H 0.05493 0.26945 0.64159 0.0
C248 C 0.73943 0.96866 0.66006 0.0
C249 C 0.72165 0.95286 0.6658 0.0
C250 C 0.74353 0.93227 0.72987 0.0
C251 C 0.72365 0.93496 0.70039 0.0
C252 C 0.76095 0.94858 0.72542 0.0
C253 C 0.75887 0.9666 0.69104 0.0
U254 U 0.73719 0.98213 0.52026 0.0
O255 O 0.7183 0.00735 0.47516 0.0
O256 O 0.75569 1.00703 0.47364 0.0
C257 C 0.73692 0.01758 0.45976 0.0
C258 C 0.73874 0.98609 0.61946 0.0
C259 C 0.73726 0.04269 0.46363 0.0
C260 C 0.72453 0.07839 0.50167 0.0
C261 C 0.72483 0.05451 0.50091 0.0
C262 C 0.74951 0.07892 0.42883 0.0
C263 C 0.73672 0.09092 0.46533 0.0
C264 C 0.74971 0.0551 0.42796 0.0
C265 C 0.73604 0.92799 0.43494 0.0
C266 C 0.74225 0.92573 0.34378 0.0
C267 C 0.73218 0.89182 0.39068 0.0
C268 C 0.73126 0.90464 0.43544 0.0
C269 C 0.73788 0.90212 0.34432 0.0
C270 C 0.74132 0.93859 0.38882 0.0
C271 C 0.73644 0.94041 0.48357 0.0
O272 O 0.75699 0.98698 0.59086 0.0
O273 O 0.71969 0.98757 0.59308 0.0
O274 O 0.71794 0.95182 0.49537 0.0
O275 O 0.75531 0.95147 0.49434 0.0
H276 H 0.70637 0.95392 0.64271 0.0
H277 H 0.70971 0.92301 0.7035 0.0
H278 H 0.77659 0.94698 0.74706 0.0
H279 H 0.77283 0.97851 0.68741 0.0
H280 H 0.71433 0.08702 0.53006 0.0
H281 H 0.7151 0.04531 0.52897 0.0
H282 H 0.75947 0.08793 0.4009 0.0
H283 H 0.75948 0.04632 0.399 0.0
H284 H 0.74648 0.93423 0.30866 0.0
H285 H 0.72912 0.87365 0.39279 0.0
H286 H 0.72727 0.89618 0.4708 0.0
H287 H 0.74504 0.95667 0.38782 0.0
C288 C 0.55141 0.24673 0.86091 0.0
C289 C 0.5731 0.25125 0.88114 0.0
C290 C 0.5897 0.24866 0.79659 0.0
C291 C 0.59205 0.25221 0.84934 0.0
C292 C 0.56791 0.24385 0.77664 0.0
C293 C 0.54893 0.2429 0.80856 0.0
U294 U 0.52783 0.25135 0.99323 0.0
O295 O 0.49803 0.2694 0.0241 0.0
O296 O 0.50118 0.23233 0.03318 0.0
C297 C 0.48849 0.25055 0.0402 0.0
C298 C 0.53143 0.24639 0.89443 0.0
C299 C 0.46399 0.24809 0.02947 0.0
C300 C 0.43225 0.23642 0.97548 0.0
C301 C 0.45576 0.23887 0.98355 0.0
C302 C 0.42513 0.25261 0.05881 0.0
C303 C 0.41665 0.24312 0.01325 0.0
C304 C 0.44852 0.25502 0.06678 0.0
C305 C 0.573 0.26172 0.09939 0.0
C306 C 0.58977 0.28714 0.16283 0.0
C307 C 0.58669 0.24682 0.18028 0.0
C308 C 0.57638 0.24336 0.13278 0.0
C309 C 0.59396 0.26867 0.19539 0.0
C310 C 0.57952 0.28369 0.11531 0.0
C311 C 0.56533 0.25788 0.04621 0.0
O312 O 0.53057 0.22908 0.92586 0.0
O313 O 0.52669 0.26598 0.91645 0.0
O314 O 0.55386 0.2745 0.0246 0.0
O315 O 0.55737 0.23755 0.03456 0.0
H316 H 0.57532 0.25429 0.92155 0.0
H317 H 0.60846 0.25628 0.86597 0.0
H318 H 0.56551 0.24074 0.73634 0.0
H319 H 0.53232 0.23932 0.79233 0.0
H320 H 0.42631 0.22895 0.94007 0.0
H321 H 0.46748 0.23345 0.95422 0.0
H322 H 0.41367 0.25841 0.08828 0.0
H323 H 0.45455 0.2623 0.10235 0.0
H324 H 0.59544 0.30414 0.17295 0.0
H325 H 0.58948 0.23227 0.2047 0.0
H326 H 0.57174 0.22617 0.12168 0.0
H327 H 0.57749 0.29813 0.09022 0.0
C328 C 0.26546 0.04863 0.37241 0.0
C329 C 0.28271 0.06504 0.36706 0.0
C330 C 0.25981 0.08571 0.30495 0.0
C331 C 0.27994 0.08328 0.33365 0.0
C332 C 0.24286 0.0689 0.30918 0.0
C333 C 0.24569 0.05055 0.34242 0.0
U334 U 0.26997 0.03248 0.51064 0.0
O335 O 0.25364 1.0058 0.55597 0.0
O336 O 0.29093 0.0072 0.55123 0.0
C337 C 0.2731 0.99587 0.56725 0.0
C338 C 0.26719 0.03048 0.41128 0.0
C339 C 0.27402 0.97091 0.56064 0.0
C340 C 0.26406 0.93605 0.5151 0.0
C341 C 0.26373 0.9599 0.51889 0.0
C342 C 0.28543 0.93407 0.59398 0.0
C343 C 0.2747 0.92282 0.55296 0.0
C344 C 0.28504 0.95783 0.59776 0.0
C345 C 0.27044 0.08531 0.60085 0.0
C346 C 0.26289 0.08746 0.69156 0.0
C347 C 0.27625 0.12081 0.64687 0.0
C348 C 0.27699 0.10824 0.60174 0.0
C349 C 0.26897 0.11069 0.69232 0.0
C350 C 0.26363 0.07484 0.64612 0.0
C351 C 0.26962 0.07345 0.55149 0.0
O352 O 0.2866 0.02917 0.43628 0.0
O353 O 0.24936 0.02839 0.44089 0.0
O354 O 0.25107 0.06173 0.54142 0.0
O355 O 0.28836 0.06312 0.53696 0.0
H356 H 0.29822 0.06412 0.38941 0.0
H357 H 0.29354 0.09562 0.33067 0.0
H358 H 0.22704 0.07029 0.28809 0.0
H359 H 0.23213 0.03817 0.34578 0.0
H360 H 0.2555 0.92797 0.4832 0.0
H361 H 0.25519 0.96971 0.48966 0.0
H362 H 0.29416 0.9245 0.6233 0.0
H363 H 0.2932 0.96602 0.63009 0.0
H364 H 0.25742 0.07908 0.72595 0.0
H365 H 0.28066 0.13871 0.64567 0.0
H366 H 0.28215 0.11663 0.56707 0.0
H367 H 0.25853 0.05711 0.64614 0.0
C368 C 0.47093 0.76401 0.15861 0.0
C369 C 0.45559 0.7814 0.17222 0.0
C370 C 0.43925 0.75737 0.23799 0.0
C371 C 0.44 0.77813 0.21149 0.0
C372 C 0.45499 0.74021 0.2251 0.0
C373 C 0.47069 0.74355 0.18606 0.0
U374 U 0.48229 0.76961 0.01655 0.0
O375 O 0.50616 0.79106 0.97425 0.0
O376 O 0.50856 0.75378 0.96837 0.0
C377 C 0.51771 0.77349 0.95677 0.0
C378 C 0.48693 0.76672 0.11561 0.0
C379 C 0.54269 0.77487 0.96123 0.0
C380 C 0.57722 0.78637 1.00607 0.0
C381 C 0.55344 0.78444 1.00414 0.0
C382 C 0.57971 0.76872 0.92282 0.0
C383 C 0.59065 0.77871 0.96517 0.0
C384 C 0.55601 0.76688 0.92088 0.0
C385 C 0.42928 0.76842 0.92737 0.0
C386 C 0.41558 0.74892 0.85105 0.0
C387 C 0.40237 0.78706 0.87027 0.0
C388 C 0.41593 0.7874 0.91416 0.0
C389 C 0.40165 0.76764 0.83868 0.0
C390 C 0.4292 0.74928 0.89488 0.0
C391 C 0.44104 0.76796 0.97743 0.0
O392 O 0.48869 0.74904 0.08492 0.0
O393 O 0.48625 0.78624 0.09127 0.0
O394 O 0.45316 0.74973 0.98811 0.0
O395 O 0.45072 0.78701 0.99284 0.0
H396 H 0.4554 0.79749 0.15227 0.0
H397 H 0.42847 0.79191 0.22096 0.0
H398 H 0.45481 0.72392 0.2442 0.0
H399 H 0.48241 0.72991 0.17668 0.0
H400 H 0.58502 0.79429 0.03911 0.0
H401 H 0.54346 0.79067 0.03582 0.0
H402 H 0.58947 0.7622 0.8911 0.0
H403 H 0.54805 0.75933 0.88757 0.0
H404 H 0.41525 0.73355 0.82805 0.0
H405 H 0.39211 0.8019 0.86158 0.0
H406 H 0.41547 0.80231 0.93861 0.0
H407 H 0.43908 0.73424 0.90406 0.0
H408 H 0.13773 0.21742 0.11556 0.0
H409 H 0.18183 0.2677 0.18516 0.0
H410 H 0.15206 0.27782 0.24518 0.0
H411 H 0.11406 0.27164 0.28018 0.0
H412 H 0.07018 0.22069 0.21294 0.0
H413 H 0.09911 0.21198 0.14935 0.0
C414 C 0.1408 0.23072 0.14358 0.0
C415 C 0.16214 0.24164 0.1458 0.0
C416 C 0.12361 0.23639 0.17853 0.0
C417 C 0.16571 0.25883 0.18256 0.0
C418 C 0.14866 0.26468 0.21702 0.0
C419 C 0.11084 0.25854 0.2518 0.0
C420 C 0.08998 0.24677 0.25166 0.0
C421 C 0.12767 0.25338 0.21579 0.0
C422 C 0.08596 0.23019 0.2138 0.0
C423 C 0.10258 0.22507 0.17757 0.0
H424 H 0.29793 0.6467 0.59337 0.0
H425 H 0.24384 0.68774 0.65671 0.0
H426 H 0.23484 0.65749 0.71631 0.0
H427 H 0.24303 0.61992 0.75277 0.0
H428 H 0.29749 0.57913 0.6909 0.0
H429 H 0.30535 0.60859 0.62821 0.0
C430 C 0.28404 0.64901 0.61989 0.0
C431 C 0.2717 0.66963 0.62045 0.0
C432 C 0.279 0.63157 0.65454 0.0
C433 C 0.25376 0.67218 0.65531 0.0
C434 C 0.24858 0.65487 0.68958 0.0
C435 C 0.25669 0.61751 0.72572 0.0
C436 C 0.26969 0.59734 0.72677 0.0
C437 C 0.26126 0.63461 0.68999 0.0
C438 C 0.28706 0.59436 0.69075 0.0
C439 C 0.29166 0.61127 0.65502 0.0
H440 H 0.8228 0.75035 0.18224 0.0
H441 H 0.86999 0.79112 0.09647 0.0
H442 H 0.89947 0.78446 0.16032 0.0
H443 H 0.91108 0.76949 0.24377 0.0
H444 H 0.86335 0.72991 0.33057 0.0
H445 H 0.83515 0.73338 0.26273 0.0
C446 C 0.83959 0.75757 0.17703 0.0
C447 C 0.84398 0.77141 0.13462 0.0
C448 C 0.85646 0.75395 0.2143 0.0
C449 C 0.86597 0.78051 0.12875 0.0
C450 C 0.88288 0.77677 0.16538 0.0
C451 C 0.89453 0.76158 0.24779 0.0
C452 C 0.8894 0.74953 0.29243 0.0
C453 C 0.87817 0.76395 0.20889 0.0
C454 C 0.86795 0.73907 0.29652 0.0
C455 C 0.8517 0.74119 0.25785 0.0
H456 H 0.71121 0.36252 0.62925 0.0
H457 H 0.77569 0.32856 0.65141 0.0
H458 H 0.78544 0.35517 0.71958 0.0
H459 H 0.77435 0.38568 0.77801 0.0
H460 H 0.70898 0.41834 0.76041 0.0
H461 H 0.70117 0.39513 0.68479 0.0
C462 C 0.72755 0.36122 0.64843 0.0
C463 C 0.74261 0.34345 0.63551 0.0
C464 C 0.73286 0.3763 0.68866 0.0
C465 C 0.76367 0.34192 0.66095 0.0
C466 C 0.76928 0.35713 0.69998 0.0
C467 C 0.75839 0.38777 0.75761 0.0
C468 C 0.74218 0.40355 0.77534 0.0
C469 C 0.75376 0.37396 0.71508 0.0
C470 C 0.72183 0.40641 0.74759 0.0
C471 C 0.71727 0.393 0.70453 0.0
H472 H 0.65058 0.301 0.38776 0.0
H473 H 0.68819 0.23997 0.35 0.0
H474 H 0.66087 0.23098 0.28294 0.0
H475 H 0.62825 0.24191 0.23034 0.0
H476 H 0.59076 0.30315 0.26598 0.0
H477 H 0.61609 0.31058 0.33836 0.0
C478 C 0.65264 0.28558 0.36533 0.0
C479 C 0.67158 0.27132 0.37379 0.0
C480 C 0.63699 0.28063 0.32606 0.0
C481 C 0.67395 0.25141 0.34414 0.0
C482 C 0.65831 0.24622 0.30569 0.0
C483 C 0.62529 0.25663 0.25455 0.0
C484 C 0.60765 0.27196 0.24265 0.0
C485 C 0.64005 0.26092 0.29566 0.0
C486 C 0.60436 0.2912 0.27395 0.0
C487 C 0.61882 0.29543 0.31541 0.0
H488 H 0.2672 0.18569 0.86528 0.0
H489 H 0.2047 0.1509 0.90141 0.0
H490 H 0.21222 0.12265 0.83522 0.0
H491 H 0.2349 0.10962 0.76241 0.0
H492 H 0.29784 0.14386 0.72765 0.0
H493 H 0.29168 0.1705 0.79778 0.0
C494 C 0.25528 0.17185 0.85896 0.0
C495 C 0.23529 0.17064 0.88804 0.0
C496 C 0.25968 0.15561 0.82075 0.0
C497 C 0.22021 0.15236 0.87965 0.0
C498 C 0.22445 0.13619 0.84162 0.0
C499 C 0.24753 0.12259 0.77077 0.0
C500 C 0.26666 0.12487 0.73921 0.0
C501 C 0.24392 0.13787 0.81133 0.0
C502 C 0.28271 0.14197 0.75054 0.0
C503 C 0.27926 0.15719 0.7908 0.0
H504 H 0.374 0.72807 0.41732 0.0
H505 H 0.32596 0.76605 0.32591 0.0
H506 H 0.35581 0.77527 0.266 0.0
H507 H 0.39493 0.77108 0.23668 0.0
H508 H 0.44369 0.73432 0.32832 0.0
H509 H 0.41411 0.7259 0.3903 0.0
C510 C 0.37007 0.73849 0.38451 0.0
C511 C 0.34762 0.7462 0.37632 0.0
C512 C 0.38741 0.74382 0.34979 0.0
C513 C 0.34298 0.7598 0.33351 0.0
C514 C 0.36007 0.76508 0.29895 0.0
C515 C 0.39928 0.76158 0.27062 0.0
C516 C 0.42158 0.75331 0.27748 0.0
C517 C 0.38227 0.75699 0.30639 0.0
C518 C 0.42663 0.74062 0.32141 0.0
C519 C 0.40973 0.7359 0.35713 0.0
H520 H 0.75296 0.83664 0.83802 0.0
H521 H 0.7874 0.87823 0.95043 0.0
H522 H 0.77932 0.91227 0.90071 0.0
H523 H 0.76349 0.93022 0.82406 0.0
H524 H 0.73061 0.8883 0.70996 0.0
H525 H 0.7367 0.85463 0.76206 0.0
C526 C 0.75856 0.85315 0.85193 0.0
C527 C 0.77085 0.85475 0.89795 0.0
C528 C 0.7541 0.8727 0.82284 0.0
C529 C 0.77802 0.87637 0.91508 0.0
C530 C 0.7734 0.89591 0.88665 0.0
C531 C 0.75775 0.91372 0.81041 0.0
C532 C 0.74655 0.91194 0.76305 0.0
C533 C 0.76168 0.89425 0.84018 0.0
C534 C 0.73893 0.89037 0.74653 0.0
C535 C 0.74257 0.871 0.77615 0.0
H536 H 0.8674 0.80032 0.91337 0.0
H537 H 0.82158 0.75447 0.83456 0.0
H538 H 0.85124 0.7452 0.77354 0.0
H539 H 0.88996 0.75044 0.7414 0.0
H540 H 0.93559 0.79685 0.81868 0.0
H541 H 0.90634 0.80524 0.88169 0.0
C542 C 0.86388 0.78822 0.88302 0.0
C543 C 0.84216 0.77821 0.8787 0.0
C544 C 0.88102 0.783 0.84769 0.0
C545 C 0.83804 0.76256 0.83893 0.0
C546 C 0.85502 0.75721 0.80389 0.0
C547 C 0.89347 0.76253 0.7718 0.0
C548 C 0.91496 0.77303 0.77512 0.0
C549 C 0.8765 0.76745 0.80765 0.0
C550 C 0.91931 0.78832 0.81542 0.0
C551 C 0.90253 0.79324 0.85134 0.0
H552 H 0.72284 0.36907 0.41625 0.0
H553 H 0.76789 0.32367 0.33496 0.0
H554 H 0.77587 0.35368 0.27365 0.0
H555 H 0.76836 0.39217 0.24028 0.0
H556 H 0.72324 0.43724 0.32212 0.0
H557 H 0.71684 0.40786 0.38557 0.0
C558 C 0.73457 0.3657 0.38543 0.0
C559 C 0.74464 0.34399 0.38034 0.0
C560 C 0.7389 0.38293 0.34995 0.0
C561 C 0.7598 0.34012 0.33996 0.0
C562 C 0.76435 0.35729 0.30472 0.0
C563 C 0.75737 0.39568 0.27236 0.0
C564 C 0.74616 0.41688 0.27605 0.0
C565 C 0.75375 0.37867 0.30894 0.0
C566 C 0.73178 0.42098 0.31769 0.0
C567 C 0.7282 0.40422 0.35423 0.0
H568 H 0.18659 0.27072 0.85201 0.0
H569 H 0.14023 0.22218 0.91773 0.0
H570 H 0.11274 0.22949 0.8501 0.0
H571 H 0.10336 0.24675 0.76777 0.0
H572 H 0.14938 0.29569 0.70258 0.0
H573 H 0.17542 0.29099 0.77435 0.0
C574 C 0.17038 0.26191 0.85196 0.0
C575 C 0.16572 0.2457 0.88978 0.0
C576 C 0.15461 0.26605 0.81264 0.0
C577 C 0.14445 0.23466 0.88914 0.0
C578 C 0.12868 0.23876 0.85029 0.0
C579 C 0.11883 0.25678 0.76972 0.0
C580 C 0.1245 0.2713 0.72931 0.0
C581 C 0.13379 0.25402 0.81119 0.0
C582 C 0.14478 0.28399 0.73251 0.0
C583 C 0.15967 0.2814 0.77368 0.0
H584 H 0.25234 0.68991 0.32373 0.0
H585 H 0.30152 0.64743 0.40094 0.0
H586 H 0.29641 0.61779 0.33649 0.0
H587 H 0.2797 0.60476 0.25531 0.0
H588 H 0.23121 0.64774 0.17756 0.0
H589 H 0.23411 0.67605 0.24548 0.0
C590 C 0.26185 0.67412 0.32681 0.0
C591 C 0.27746 0.67111 0.36709 0.0
C592 C 0.25897 0.65715 0.28939 0.0
C593 C 0.28945 0.65037 0.37039 0.0
C594 C 0.28659 0.63337 0.33342 0.0
C595 C 0.26974 0.62031 0.25328 0.0
C596 C 0.25531 0.62408 0.21121 0.0
C597 C 0.2717 0.63674 0.29225 0.0
C598 C 0.24226 0.6442 0.20967 0.0
C599 C 0.24404 0.66053 0.24834 0.0
H600 H 0.31934 0.76288 0.68308 0.0
H601 H 0.3698 0.72748 0.59354 0.0
H602 H 0.39835 0.73452 0.65941 0.0
H603 H 0.40862 0.74892 0.74449 0.0
H604 H 0.35772 0.78304 0.83503 0.0
H605 H 0.33 0.77864 0.7664 0.0
C606 C 0.33662 0.75687 0.67761 0.0
C607 C 0.34226 0.74452 0.63333 0.0
C608 C 0.35297 0.76073 0.71595 0.0
C609 C 0.36483 0.73692 0.6272 0.0
C610 C 0.38122 0.74091 0.66495 0.0
C611 C 0.39146 0.75537 0.74926 0.0
C612 C 0.38535 0.76627 0.79506 0.0
C613 C 0.3754 0.75245 0.70987 0.0
C614 C 0.36309 0.77485 0.80009 0.0
C615 C 0.34711 0.77218 0.76094 0.0
H616 H 0.7412 0.82691 0.17197 0.0
H617 H 0.80065 0.86548 0.12988 0.0
H618 H 0.79271 0.89324 0.19683 0.0
H619 H 0.77058 0.90502 0.27145 0.0
H620 H 0.71069 0.86694 0.31236 0.0
H621 H 0.71722 0.84055 0.24191 0.0
C622 C 0.75237 0.84145 0.1772 0.0
C623 C 0.77162 0.8439 0.14615 0.0
C624 C 0.74773 0.8574 0.21584 0.0
C625 C 0.78572 0.86306 0.15318 0.0
C626 C 0.78124 0.87896 0.19161 0.0
C627 C 0.75868 0.89124 0.26439 0.0
C628 C 0.74032 0.88786 0.29764 0.0
C629 C 0.7625 0.87611 0.22369 0.0
C630 C 0.72523 0.86971 0.28806 0.0
C631 C 0.72889 0.85464 0.24764 0.0
H632 H 0.68425 0.25461 0.68253 0.0
H633 H 0.64186 0.28974 0.57333 0.0
H634 H 0.60854 0.2829 0.62535 0.0
H635 H 0.59148 0.26873 0.7036 0.0
H636 H 0.63329 0.23338 0.81318 0.0
H637 H 0.66665 0.23874 0.75955 0.0
C638 C 0.66771 0.26062 0.66987 0.0
C639 C 0.66575 0.27281 0.62404 0.0
C640 C 0.64844 0.25677 0.70028 0.0
C641 C 0.64407 0.28045 0.60848 0.0
C642 C 0.62491 0.27655 0.63824 0.0
C643 C 0.60779 0.26185 0.71547 0.0
C644 C 0.6098 0.25072 0.76253 0.0
C645 C 0.62691 0.26497 0.68445 0.0
C646 C 0.63125 0.2423 0.77752 0.0
C647 C 0.65035 0.24526 0.74673 0.0
H648 H 0.24952 0.1814 0.19722 0.0
H649 H 0.21601 0.13948 0.08398 0.0
H650 H 0.22378 0.10558 0.13434 0.0
H651 H 0.23958 0.08774 0.21112 0.0
H652 H 0.27171 0.12988 0.32584 0.0
H653 H 0.26531 0.16357 0.2739 0.0
C654 C 0.244 0.16486 0.18334 0.0
C655 C 0.23214 0.16312 0.1368 0.0
C656 C 0.24834 0.14536 0.21273 0.0
C657 C 0.22507 0.14145 0.11971 0.0
C658 C 0.22952 0.12199 0.14849 0.0
C659 C 0.24505 0.1043 0.22498 0.0
C660 C 0.25619 0.10614 0.27238 0.0
C661 C 0.24099 0.12375 0.19524 0.0
C662 C 0.26345 0.12778 0.2892 0.0
C663 C 0.25964 0.14715 0.25967 0.0
H664 H 0.24053 0.316 0.95492 0.0
H665 H 0.22802 0.31053 0.11607 0.0
H666 H 0.22902 0.35189 0.12451 0.0
H667 H 0.23397 0.38964 0.08683 0.0
H668 H 0.24782 0.39531 0.92644 0.0
H669 H 0.24532 0.35395 0.91707 0.0
C670 C 0.23792 0.32382 0.99189 0.0
C671 C 0.23427 0.31001 0.03478 0.0
C672 C 0.23869 0.34772 0.99669 0.0
C673 C 0.23098 0.32059 0.08235 0.0
C674 C 0.23153 0.3443 0.08728 0.0
C675 C 0.23666 0.38186 0.04985 0.0
C676 C 0.24117 0.3957 0.00748 0.0
C677 C 0.23554 0.35803 0.04482 0.0
C678 C 0.24408 0.38522 0.95968 0.0
C679 C 0.24281 0.36151 0.95432 0.0
H680 H 0.19612 0.73787 0.56567 0.0
H681 H 0.20324 0.73663 0.40222 0.0
H682 H 0.16213 0.73594 0.39209 0.0
H683 H 0.12409 0.73683 0.42876 0.0
H684 H 0.11621 0.7373 0.59176 0.0
H685 H 0.15758 0.73751 0.60267 0.0
C686 C 0.18871 0.73735 0.52782 0.0
C687 C 0.20295 0.73738 0.48486 0.0
C688 C 0.16484 0.73699 0.52203 0.0
C689 C 0.19288 0.7367 0.43613 0.0
C690 C 0.16928 0.73631 0.43017 0.0
C691 C 0.13135 0.73663 0.46675 0.0
C692 C 0.11695 0.73701 0.50932 0.0
C693 C 0.15511 0.73657 0.47277 0.0
C694 C 0.12681 0.73727 0.55823 0.0
C695 C 0.1505 0.73726 0.56452 0.0
H696 H 0.76887 0.69878 0.06877 0.0
H697 H 0.78041 0.70812 0.9082 0.0
H698 H 0.77993 0.66701 0.895 0.0
H699 H 0.77539 0.62841 0.92819 0.0
H700 H 0.76231 0.61876 0.08791 0.0
H701 H 0.76473 0.65986 0.10225 0.0
C702 C 0.77142 0.69184 0.03092 0.0
C703 C 0.77458 0.70666 0.98957 0.0
C704 C 0.7709 0.66807 0.02335 0.0
C705 C 0.77779 0.69725 0.94078 0.0
C706 C 0.77754 0.67368 0.93312 0.0
C707 C 0.77286 0.63526 0.96612 0.0
C708 C 0.76855 0.6204 1.0068 0.0
C709 C 0.77388 0.65894 0.97399 0.0
C710 C 0.76588 0.62968 0.05588 0.0
C711 C 0.7671 0.65324 0.06409 0.0
H712 H 0.81434 0.27924 0.59404 0.0
H713 H 0.8155 0.26942 0.43117 0.0
H714 H 0.85692 0.26902 0.43269 0.0
H715 H 0.89294 0.27047 0.48006 0.0
H716 H 0.89209 0.28159 0.64242 0.0
H717 H 0.85058 0.28211 0.64114 0.0
C718 C 0.82362 0.27703 0.55884 0.0
C719 C 0.81165 0.2743 0.51262 0.0
C720 C 0.84759 0.27689 0.55981 0.0
C721 C 0.82411 0.2716 0.4674 0.0
C722 C 0.84788 0.27132 0.46816 0.0
C723 C 0.88374 0.27331 0.51514 0.0
C724 C 0.89578 0.27585 0.56128 0.0
C725 C 0.85981 0.27387 0.51412 0.0
C726 C 0.88339 0.27915 0.6064 0.0
C727 C 0.85959 0.27961 0.6057 0.0
H728 H 0.73537 0.19736 0.4264 0.0
H729 H 0.73687 0.1984 0.59062 0.0
H730 H 0.73658 0.1569 0.59193 0.0
H731 H 0.73705 0.12016 0.54674 0.0
H732 H 0.73452 0.11905 0.38268 0.0
H733 H 0.7344 0.16059 0.38128 0.0
C734 C 0.73558 0.18856 0.46253 0.0
C735 C 0.73622 0.20116 0.50829 0.0
C736 C 0.73541 0.16458 0.46315 0.0
C737 C 0.73638 0.1893 0.55469 0.0
C738 C 0.73625 0.16548 0.55556 0.0
C739 C 0.73619 0.12896 0.51065 0.0
C740 C 0.73597 0.11635 0.46492 0.0
C741 C 0.73589 0.15293 0.51004 0.0
C742 C 0.73516 0.1282 0.41853 0.0
C743 C 0.73493 0.15202 0.41765 0.0
H744 H 0.31198 0.24328 0.95352 0.0
H745 H 0.30661 0.22214 0.11006 0.0
H746 H 0.34788 0.2218 0.11807 0.0
H747 H 0.38551 0.22893 0.0823 0.0
H748 H 0.3914 0.25129 0.92699 0.0
H749 H 0.35005 0.24924 0.91668 0.0
C750 C 0.31981 0.23842 0.98929 0.0
C751 C 0.30604 0.2329 0.03119 0.0
C752 C 0.34372 0.23846 0.99395 0.0
C753 C 0.31663 0.22666 0.07721 0.0
C754 C 0.3403 0.22643 0.0819 0.0
C755 C 0.37777 0.23348 0.04622 0.0
C756 C 0.39161 0.24046 1.00566 0.0
C757 C 0.354 0.23261 0.0408 0.0
C758 C 0.38125 0.24573 0.95881 0.0
C759 C 0.35755 0.24471 0.95298 0.0
H760 H 0.27049 0.81592 0.58161 0.0
H761 H 0.28166 0.81733 0.41951 0.0
H762 H 0.28239 0.85891 0.42173 0.0
H763 H 0.28004 0.89504 0.46974 0.0
H764 H 0.26801 0.89331 0.63142 0.0
H765 H 0.2677 0.8518 0.62916 0.0
C766 C 0.27313 0.82525 0.54667 0.0
C767 C 0.27601 0.81334 0.50048 0.0
C768 C 0.27345 0.84921 0.5481 0.0
C769 C 0.27935 0.82591 0.45569 0.0
C770 C 0.27978 0.84975 0.45688 0.0
C771 C 0.27715 0.8856 0.50441 0.0
C772 C 0.27419 0.8974 0.55072 0.0
C773 C 0.2768 0.8616 0.50285 0.0
C774 C 0.27074 0.88478 0.59535 0.0
C775 C 0.27041 0.86098 0.59408 0.0
H776 H 0.69655 0.78931 0.93008 0.0
H777 H 0.6981 0.77177 0.08932 0.0
H778 H 0.65663 0.77036 0.09042 0.0
H779 H 0.61985 0.77249 0.04544 0.0
H780 H 0.61841 0.79081 0.88674 0.0
H781 H 0.65982 0.79323 0.88627 0.0
C782 C 0.68787 0.78526 0.96516 0.0
C783 C 0.70059 0.78054 0.00944 0.0
C784 C 0.66396 0.78441 0.96561 0.0
C785 C 0.68889 0.77546 0.05453 0.0
C786 C 0.6651 0.77459 0.05524 0.0
C787 C 0.62855 0.7773 0.0109 0.0
C788 C 0.61592 0.78122 0.96608 0.0
C789 C 0.65245 0.77884 0.0109 0.0
C790 C 0.62762 0.78721 0.92157 0.0
C791 C 0.65134 0.78876 0.92131 0.0
loop_
_geom_bond_atom_site_label_1
_geom_bond_atom_site_label_2
_geom_bond_distance
_geom_bond_site_symmetry_2
_ccdc_geom_bond_type
Sc0 O3 2.025 . S
Sc0 O10 2.105 . S
Sc0 O13 2.105 . S
Sc0 O16 2.105 . S
Sc0 O19 2.105 . S
Sc1 O3 2.025 . S
Sc1 O11 2.117 . S
Sc1 O15 2.093 1_554 S
Sc1 O17 2.117 . S
Sc1 O21 2.093 1_554 S
Sc2 O3 2.025 1_556 S
Sc2 O12 2.105 . S
Sc2 O14 2.105 . S
Sc2 O18 2.105 . S
Sc2 O20 2.105 . S
O3 Sc0 2.025 . S
O3 Sc1 2.025 . S
O3 Sc2 2.025 1_554 S
C4 O10 1.268 . S
C4 O20 1.268 1_554 S
C5 O11 1.268 . S
C5 O19 1.268 . S
C6 O12 1.268 . S
C6 O21 1.268 . S
C7 O13 1.268 . S
C7 O17 1.268 . S
C8 O14 1.268 1_554 S
C8 O16 1.268 . S
C9 O15 1.268 . S
C9 O18 1.268 . S
O10 Sc0 2.105 . S
O10 C4 1.268 . S
O11 Sc1 2.117 . S
O11 C5 1.268 . S
O12 Sc2 2.105 . S
O12 C6 1.268 . S
O13 Sc0 2.105 . S
O13 C7 1.268 . S
O14 Sc2 2.105 . S
O14 C8 1.268 1_556 S
O15 Sc1 2.093 1_556 S
O15 C9 1.268 . S
O16 Sc0 2.105 . S
O16 C8 1.268 . S
O17 Sc1 2.117 . S
O17 C7 1.268 . S
O18 Sc2 2.105 . S
O18 C9 1.268 . S
O19 Sc0 2.105 . S
O19 C5 1.268 . S
O20 Sc2 2.105 . S
O20 C4 1.268 1_556 S
O21 Sc1 2.093 1_556 S
O21 C6 1.268 . S
Sc22 O25 2.025 . S
Sc22 O32 2.105 . S
Sc22 O35 2.105 . S
Sc22 O38 2.105 . S
Sc22 O41 2.105 . S
Sc23 O25 2.025 . S
Sc23 O33 2.105 . S
Sc23 O37 2.105 . S
Sc23 O39 2.105 . S
Sc23 O43 2.105 . S
Sc24 O25 2.025 . S
Sc24 O34 2.105 . S
Sc24 O36 2.105 . S
Sc24 O40 2.105 . S
Sc24 O42 2.105 . S
O25 Sc22 2.025 . S
O25 Sc23 2.025 . S
O25 Sc24 2.025 . S
C26 O32 1.268 . S
C26 O42 1.268 . S
C27 O33 1.268 . S
C27 O41 1.268 . S
C28 O34 1.268 . S
C28 O43 1.268 . S
C29 O35 1.268 . S
C29 O39 1.268 . S
C30 O36 1.268 . S
C30 O38 1.268 . S
C31 O37 1.268 . S
C31 O40 1.268 . S
O32 Sc22 2.105 . S
O32 C26 1.268 . S
O33 Sc23 2.105 . S
O33 C27 1.268 . S
O34 Sc24 2.105 . S
O34 C28 1.268 . S
O35 Sc22 2.105 . S
O35 C29 1.268 . S
O36 Sc24 2.105 . S
O36 C30 1.268 . S
O37 Sc23 2.105 . S
O37 C31 1.268 . S
O38 Sc22 2.105 . S
O38 C30 1.268 . S
O39 Sc23 2.105 . S
O39 C29 1.268 . S
O40 Sc24 2.105 . S
O40 C31 1.268 . S
O41 Sc22 2.105 . S
O41 C27 1.268 . S
O42 Sc24 2.105 . S
O42 C26 1.268 . S
O43 Sc23 2.105 . S
O43 C28 1.268 . S
Sc44 O47 2.025 1_556 S
Sc44 O54 2.105 . S
Sc44 O57 2.105 . S
Sc44 O60 2.105 . S
Sc44 O63 2.105 . S
Sc45 O47 2.025 . S
Sc45 O55 2.105 1_554 S
Sc45 O59 2.105 . S
Sc45 O61 2.105 1_554 S
Sc45 O65 2.105 . S
Sc46 O47 2.025 . S
Sc46 O56 2.105 . S
Sc46 O58 2.105 . S
Sc46 O62 2.105 . S
Sc46 O64 2.105 . S
O47 Sc44 2.025 1_554 S
O47 Sc45 2.025 . S
O47 Sc46 2.025 . S
C48 O54 1.268 1_554 S
C48 O64 1.268 . S
C49 O55 1.268 . S
C49 O63 1.268 . S
C50 O56 1.268 . S
C50 O65 1.268 . S
C51 O57 1.268 . S
C51 O61 1.268 . S
C52 O58 1.268 . S
C52 O60 1.268 1_554 S
C53 O59 1.268 . S
C53 O62 1.268 . S
O54 Sc44 2.105 . S
O54 C48 1.268 1_556 S
O55 Sc45 2.105 1_556 S
O55 C49 1.268 . S
O56 Sc46 2.105 . S
O56 C50 1.268 . S
O57 Sc44 2.105 . S
O57 C51 1.268 . S
O58 Sc46 2.105 . S
O58 C52 1.268 . S
O59 Sc45 2.105 . S
O59 C53 1.268 . S
O60 Sc44 2.105 . S
O60 C52 1.268 1_556 S
O61 Sc45 2.105 1_556 S
O61 C51 1.268 . S
O62 Sc46 2.105 . S
O62 C53 1.268 . S
O63 Sc44 2.105 . S
O63 C49 1.268 . S
O64 Sc46 2.105 . S
O64 C48 1.268 . S
O65 Sc45 2.105 . S
O65 C50 1.268 . S
Sc66 O69 2.025 . S
Sc66 O76 2.105 . S
Sc66 O79 2.105 . S
Sc66 O82 2.105 . S
Sc66 O85 2.105 . S
Sc67 O69 2.025 . S
Sc67 O77 2.105 . S
Sc67 O81 2.105 . S
Sc67 O83 2.105 . S
Sc67 O87 2.105 . S
Sc68 O69 2.025 . S
Sc68 O78 2.105 . S
Sc68 O80 2.105 . S
Sc68 O84 2.105 . S
Sc68 O86 2.105 . S
O69 Sc66 2.025 . S
O69 Sc67 2.025 . S
O69 Sc68 2.025 . S
C70 O76 1.268 . S
C70 O86 1.268 . S
C71 O77 1.268 . S
C71 O85 1.268 . S
C72 O78 1.268 . S
C72 O87 1.268 . S
C73 O79 1.268 . S
C73 O83 1.268 . S
C74 O80 1.268 . S
C74 O82 1.268 . S
C75 O81 1.268 . S
C75 O84 1.268 . S
O76 Sc66 2.105 . S
O76 C70 1.268 . S
O77 Sc67 2.105 . S
O77 C71 1.268 . S
O78 Sc68 2.105 . S
O78 C72 1.268 . S
O79 Sc66 2.105 . S
O79 C73 1.268 . S
O80 Sc68 2.105 . S
O80 C74 1.268 . S
O81 Sc67 2.105 . S
O81 C75 1.268 . S
O82 Sc66 2.105 . S
O82 C74 1.268 . S
O83 Sc67 2.105 . S
O83 C73 1.268 . S
O84 Sc68 2.105 . S
O84 C75 1.268 . S
O85 Sc66 2.105 . S
O85 C71 1.268 . S
O86 Sc68 2.105 . S
O86 C70 1.268 . S
O87 Sc67 2.105 . S
O87 C72 1.268 . S
C88 C89 1.264 . S
C88 C93 1.479 . S
C88 C98 1.465 . S
C89 C88 1.264 . S
C89 C91 1.339 . S
C89 H116 0.931 . S
C90 C91 1.395 . S
C90 C92 1.320 . S
C91 C89 1.339 . S
C91 C90 1.395 . S
C91 H117 0.929 . S
C92 C90 1.320 . S
C92 C93 1.405 . S
C92 H118 0.930 . S
C93 C88 1.479 . S
C93 C92 1.405 . S
C93 H119 0.931 . S
U94 O95 2.454 . S
U94 O96 2.458 1_556 S
U94 C97 2.984 . S
U94 C98 2.847 . S
U94 C111 2.882 1_556 S
U94 O112 2.441 . S
U94 O113 2.420 . S
U94 O114 2.455 1_556 S
U94 O115 2.449 1_556 S
O95 U94 2.454 . S
O95 C97 1.353 . S
O96 U94 2.458 1_554 S
O96 C97 1.286 1_554 S
C97 U94 2.984 . S
C97 O95 1.353 . S
C97 O96 1.286 1_556 S
C97 C99 1.363 . S
C98 C88 1.465 . S
C98 U94 2.847 . S
C98 O112 1.249 . S
C98 O113 1.202 . S
C99 C97 1.363 . S
C99 C101 1.415 . S
C99 C104 1.334 1_556 S
C100 C101 1.310 . S
C100 C103 1.461 1_556 S
C100 H120 0.932 . S
C101 C99 1.415 . S
C101 C100 1.310 . S
C101 H121 0.930 . S
C102 C103 1.474 . S
C102 C104 1.285 . S
C102 H122 0.929 . S
C103 C100 1.461 1_554 S
C103 C102 1.474 . S
C104 C99 1.334 1_554 S
C104 C102 1.285 . S
C104 H123 0.930 . S
C105 C108 1.424 . S
C105 C110 1.245 . S
C105 C111 1.428 . S
C106 C109 1.260 . S
C106 C110 1.477 . S
C106 H124 0.932 . S
C107 C108 1.384 . S
C107 C109 1.479 . S
C107 H125 0.929 . S
C108 C105 1.424 . S
C108 C107 1.384 . S
C108 H126 0.928 . S
C109 C106 1.260 . S
C109 C107 1.479 . S
C110 C105 1.245 . S
C110 C106 1.477 . S
C110 H127 0.932 . S
C111 U94 2.882 1_554 S
C111 C105 1.428 . S
C111 O114 1.301 . S
C111 O115 1.282 . S
O112 U94 2.441 . S
O112 C98 1.249 . S
O113 U94 2.420 . S
O113 C98 1.202 . S
O114 U94 2.455 1_554 S
O114 C111 1.301 . S
O115 U94 2.449 1_554 S
O115 C111 1.282 . S
H116 C89 0.931 . S
H117 C91 0.929 . S
H118 C92 0.930 . S
H119 C93 0.931 . S
H120 C100 0.932 . S
H121 C101 0.930 . S
H122 C102 0.929 . S
H123 C104 0.930 . S
H124 C106 0.932 . S
H125 C107 0.929 . S
H126 C108 0.928 . S
H127 C110 0.932 . S
C128 C129 1.264 . S
C128 C133 1.479 . S
C128 C138 1.465 . S
C129 C128 1.264 . S
C129 C131 1.339 . S
C129 H156 0.931 . S
C130 C131 1.395 . S
C130 C132 1.320 . S
C131 C129 1.339 . S
C131 C130 1.395 . S
C131 H157 0.929 . S
C132 C130 1.320 . S
C132 C133 1.405 . S
C132 H158 0.930 . S
C133 C128 1.479 . S
C133 C132 1.405 . S
C133 H159 0.931 . S
U134 O135 2.454 1_655 S
U134 O136 2.458 1_655 S
U134 C137 2.984 1_655 S
U134 C138 2.847 . S
U134 C151 2.882 . S
U134 O152 2.441 . S
U134 O153 2.420 . S
U134 O154 2.455 . S
U134 O155 2.449 . S
O135 U134 2.454 1_455 S
O135 C137 1.353 . S
O136 U134 2.458 1_455 S
O136 C137 1.286 . S
C137 U134 2.984 1_455 S
C137 O135 1.353 . S
C137 O136 1.286 . S
C137 C139 1.363 . S
C138 C128 1.465 . S
C138 U134 2.847 . S
C138 O152 1.249 . S
C138 O153 1.202 . S
C139 C137 1.363 . S
C139 C141 1.408 . S
C139 C144 1.342 . S
C140 C141 1.310 . S
C140 C143 1.461 . S
C140 H160 0.932 . S
C141 C139 1.408 . S
C141 C140 1.310 . S
C141 H161 0.930 . S
C142 C143 1.474 . S
C142 C144 1.285 . S
C142 H162 0.929 . S
C143 C140 1.461 . S
C143 C142 1.474 . S
C144 C139 1.342 . S
C144 C142 1.285 . S
C144 H163 0.930 . S
C145 C148 1.424 . S
C145 C150 1.245 . S
C145 C151 1.428 . S
C146 C149 1.260 . S
C146 C150 1.477 . S
C146 H164 0.932 . S
C147 C148 1.384 . S
C147 C149 1.479 . S
C147 H165 0.929 . S
C148 C145 1.424 . S
C148 C147 1.384 . S
C148 H166 0.928 . S
C149 C146 1.260 . S
C149 C147 1.479 . S
C150 C145 1.245 . S
C150 C146 1.477 . S
C150 H167 0.932 . S
C151 U134 2.882 . S
C151 C145 1.428 . S
C151 O154 1.301 . S
C151 O155 1.282 . S
O152 U134 2.441 . S
O152 C138 1.249 . S
O153 U134 2.420 . S
O153 C138 1.202 . S
O154 U134 2.455 . S
O154 C151 1.301 . S
O155 U134 2.449 . S
O155 C151 1.282 . S
H156 C129 0.931 . S
H157 C131 0.929 . S
H158 C132 0.930 . S
H159 C133 0.931 . S
H160 C140 0.932 . S
H161 C141 0.930 . S
H162 C142 0.929 . S
H163 C144 0.930 . S
H164 C146 0.932 . S
H165 C147 0.929 . S
H166 C148 0.928 . S
H167 C150 0.932 . S
C168 C169 1.264 . S
C168 C173 1.479 . S
C168 C178 1.465 . S
C169 C168 1.264 . S
C169 C171 1.339 . S
C169 H196 0.931 . S
C170 C171 1.395 . S
C170 C172 1.320 . S
C171 C169 1.339 . S
C171 C170 1.395 . S
C171 H197 0.929 . S
C172 C170 1.320 . S
C172 C173 1.405 . S
C172 H198 0.930 . S
C173 C168 1.479 . S
C173 C172 1.405 . S
C173 H199 0.931 . S
U174 O175 2.454 . S
U174 O176 2.458 1_554 S
U174 C177 2.984 . S
U174 C178 2.847 . S
U174 C191 2.882 1_554 S
U174 O192 2.441 . S
U174 O193 2.420 . S
U174 O194 2.455 1_554 S
U174 O195 2.449 1_554 S
O175 U174 2.454 . S
O175 C177 1.353 . S
O176 U174 2.458 1_556 S
O176 C177 1.286 1_556 S
C177 U174 2.984 . S
C177 O175 1.353 . S
C177 O176 1.286 1_554 S
C177 C179 1.363 . S
C178 C168 1.465 . S
C178 U174 2.847 . S
C178 O192 1.249 . S
C178 O193 1.202 . S
C179 C177 1.363 . S
C179 C181 1.408 . S
C179 C184 1.342 1_554 S
C180 C181 1.310 . S
C180 C183 1.461 . S
C180 H200 0.932 . S
C181 C179 1.408 . S
C181 C180 1.310 . S
C181 H201 0.930 . S
C182 C183 1.474 1_556 S
C182 C184 1.285 . S
C182 H202 0.929 . S
C183 C180 1.461 . S
C183 C182 1.474 1_554 S
C184 C179 1.342 1_556 S
C184 C182 1.285 . S
C184 H203 0.930 . S
C185 C188 1.424 . S
C185 C190 1.245 . S
C185 C191 1.428 . S
C186 C189 1.260 . S
C186 C190 1.477 . S
C186 H204 0.932 . S
C187 C188 1.384 . S
C187 C189 1.479 . S
C187 H205 0.929 . S
C188 C185 1.424 . S
C188 C187 1.384 . S
C188 H206 0.928 . S
C189 C186 1.260 . S
C189 C187 1.479 . S
C190 C185 1.245 . S
C190 C186 1.477 . S
C190 H207 0.932 . S
C191 U174 2.882 1_556 S
C191 C185 1.428 . S
C191 O194 1.301 . S
C191 O195 1.282 . S
O192 U174 2.441 . S
O192 C178 1.249 . S
O193 U174 2.420 . S
O193 C178 1.202 . S
O194 U174 2.455 1_556 S
O194 C191 1.301 . S
O195 U174 2.449 1_556 S
O195 C191 1.282 . S
H196 C169 0.931 . S
H197 C171 0.929 . S
H198 C172 0.930 . S
H199 C173 0.931 . S
H200 C180 0.932 . S
H201 C181 0.930 . S
H202 C182 0.929 . S
H203 C184 0.930 . S
H204 C186 0.932 . S
H205 C187 0.929 . S
H206 C188 0.928 . S
H207 C190 0.932 . S
C208 C209 1.264 . S
C208 C213 1.479 . S
C208 C218 1.465 . S
C209 C208 1.264 . S
C209 C211 1.339 . S
C209 H236 0.931 . S
C210 C211 1.395 . S
C210 C212 1.320 . S
C211 C209 1.339 . S
C211 C210 1.395 . S
C211 H237 0.929 . S
C212 C210 1.320 . S
C212 C213 1.405 . S
C212 H238 0.930 . S
C213 C208 1.479 . S
C213 C212 1.405 . S
C213 H239 0.931 . S
U214 O215 2.454 1_455 S
U214 O216 2.458 1_455 S
U214 C217 2.984 1_455 S
U214 C218 2.847 . S
U214 C231 2.882 . S
U214 O232 2.441 . S
U214 O233 2.420 . S
U214 O234 2.455 . S
U214 O235 2.449 . S
O215 U214 2.454 1_655 S
O215 C217 1.353 . S
O216 U214 2.458 1_655 S
O216 C217 1.286 . S
C217 U214 2.984 1_655 S
C217 O215 1.353 . S
C217 O216 1.286 . S
C217 C219 1.363 . S
C218 C208 1.465 . S
C218 U214 2.847 . S
C218 O232 1.249 . S
C218 O233 1.202 . S
C219 C217 1.363 . S
C219 C221 1.408 . S
C219 C224 1.342 . S
C220 C221 1.310 . S
C220 C223 1.461 . S
C220 H240 0.932 . S
C221 C219 1.408 . S
C221 C220 1.310 . S
C221 H241 0.930 . S
C222 C223 1.474 . S
C222 C224 1.285 . S
C222 H242 0.929 . S
C223 C220 1.461 . S
C223 C222 1.474 . S
C224 C219 1.342 . S
C224 C222 1.285 . S
C224 H243 0.930 . S
C225 C228 1.424 . S
C225 C230 1.245 . S
C225 C231 1.428 . S
C226 C229 1.260 . S
C226 C230 1.477 . S
C226 H244 0.932 . S
C227 C228 1.384 . S
C227 C229 1.479 . S
C227 H245 0.929 . S
C228 C225 1.424 . S
C228 C227 1.384 . S
C228 H246 0.928 . S
C229 C226 1.260 . S
C229 C227 1.479 . S
C230 C225 1.245 . S
C230 C226 1.477 . S
C230 H247 0.932 . S
C231 U214 2.882 . S
C231 C225 1.428 . S
C231 O234 1.301 . S
C231 O235 1.282 . S
O232 U214 2.441 . S
O232 C218 1.249 . S
O233 U214 2.420 . S
O233 C218 1.202 . S
O234 U214 2.455 . S
O234 C231 1.301 . S
O235 U214 2.449 . S
O235 C231 1.282 . S
H236 C209 0.931 . S
H237 C211 0.929 . S
H238 C212 0.930 . S
H239 C213 0.931 . S
H240 C220 0.932 . S
H241 C221 0.930 . S
H242 C222 0.929 . S
H243 C224 0.930 . S
H244 C226 0.932 . S
H245 C227 0.929 . S
H246 C228 0.928 . S
H247 C230 0.932 . S
C248 C249 1.264 . S
C248 C253 1.479 . S
C248 C258 1.465 . S
C249 C248 1.264 . S
C249 C251 1.339 . S
C249 H276 0.931 . S
C250 C251 1.395 . S
C250 C252 1.320 . S
C251 C249 1.339 . S
C251 C250 1.395 . S
C251 H277 0.929 . S
C252 C250 1.320 . S
C252 C253 1.405 . S
C252 H278 0.930 . S
C253 C248 1.479 . S
C253 C252 1.405 . S
C253 H279 0.931 . S
U254 O255 2.454 1_565 S
U254 O256 2.458 1_565 S
U254 C257 2.984 1_565 S
U254 C258 2.847 . S
U254 C271 2.882 . S
U254 O272 2.441 . S
U254 O273 2.420 . S
U254 O274 2.455 . S
U254 O275 2.449 . S
O255 U254 2.454 1_545 S
O255 C257 1.353 . S
O256 U254 2.458 1_545 S
O256 C257 1.286 . S
C257 U254 2.984 1_545 S
C257 O255 1.353 . S
C257 O256 1.286 . S
C257 C259 1.363 . S
C258 C248 1.465 . S
C258 U254 2.847 . S
C258 O272 1.249 . S
C258 O273 1.202 . S
C259 C257 1.363 . S
C259 C261 1.408 . S
C259 C264 1.342 . S
C260 C261 1.310 . S
C260 C263 1.461 . S
C260 H280 0.932 . S
C261 C259 1.408 . S
C261 C260 1.310 . S
C261 H281 0.930 . S
C262 C263 1.474 . S
C262 C264 1.285 . S
C262 H282 0.929 . S
C263 C260 1.461 . S
C263 C262 1.474 . S
C264 C259 1.342 . S
C264 C262 1.285 . S
C264 H283 0.930 . S
C265 C268 1.424 . S
C265 C270 1.245 . S
C265 C271 1.428 . S
C266 C269 1.260 . S
C266 C270 1.477 . S
C266 H284 0.932 . S
C267 C268 1.384 . S
C267 C269 1.479 . S
C267 H285 0.929 . S
C268 C265 1.424 . S
C268 C267 1.384 . S
C268 H286 0.928 . S
C269 C266 1.260 . S
C269 C267 1.479 . S
C270 C265 1.245 . S
C270 C266 1.477 . S
C270 H287 0.932 . S
C271 U254 2.882 . S
C271 C265 1.428 . S
C271 O274 1.301 . S
C271 O275 1.282 . S
O272 U254 2.441 . S
O272 C258 1.249 . S
O273 U254 2.420 . S
O273 C258 1.202 . S
O274 U254 2.455 . S
O274 C271 1.301 . S
O275 U254 2.449 . S
O275 C271 1.282 . S
H276 C249 0.931 . S
H277 C251 0.929 . S
H278 C252 0.930 . S
H279 C253 0.931 . S
H280 C260 0.932 . S
H281 C261 0.930 . S
H282 C262 0.929 . S
H283 C264 0.930 . S
H284 C266 0.932 . S
H285 C267 0.929 . S
H286 C268 0.928 . S
H287 C270 0.932 . S
C288 C289 1.264 . S
C288 C293 1.479 . S
C288 C298 1.465 . S
C289 C288 1.264 . S
C289 C291 1.339 . S
C289 H316 0.931 . S
C290 C291 1.395 . S
C290 C292 1.320 . S
C291 C289 1.339 . S
C291 C290 1.395 . S
C291 H317 0.929 . S
C292 C290 1.320 . S
C292 C293 1.405 . S
C292 H318 0.930 . S
C293 C288 1.479 . S
C293 C292 1.405 . S
C293 H319 0.931 . S
U294 O295 2.454 . S
U294 O296 2.458 1_556 S
U294 C297 2.984 . S
U294 C298 2.847 . S
U294 C311 2.882 1_556 S
U294 O312 2.441 . S
U294 O313 2.420 . S
U294 O314 2.455 1_556 S
U294 O315 2.449 1_556 S
O295 U294 2.454 . S
O295 C297 1.353 . S
O296 U294 2.458 1_554 S
O296 C297 1.286 1_554 S
C297 U294 2.984 . S
C297 O295 1.353 . S
C297 O296 1.286 1_556 S
C297 C299 1.363 . S
C298 C288 1.465 . S
C298 U294 2.847 . S
C298 O312 1.249 . S
C298 O313 1.202 . S
C299 C297 1.363 . S
C299 C301 1.412 . S
C299 C304 1.337 1_556 S
C300 C301 1.310 . S
C300 C303 1.461 1_556 S
C300 H320 0.932 . S
C301 C299 1.412 . S
C301 C300 1.310 . S
C301 H321 0.930 . S
C302 C303 1.474 . S
C302 C304 1.285 . S
C302 H322 0.929 . S
C303 C300 1.461 1_554 S
C303 C302 1.474 . S
C304 C299 1.337 1_554 S
C304 C302 1.285 . S
C304 H323 0.930 . S
C305 C308 1.424 . S
C305 C310 1.245 . S
C305 C311 1.428 . S
C306 C309 1.260 . S
C306 C310 1.477 . S
C306 H324 0.932 . S
C307 C308 1.384 . S
C307 C309 1.479 . S
C307 H325 0.929 . S
C308 C305 1.424 . S
C308 C307 1.384 . S
C308 H326 0.928 . S
C309 C306 1.260 . S
C309 C307 1.479 . S
C310 C305 1.245 . S
C310 C306 1.477 . S
C310 H327 0.932 . S
C311 U294 2.882 1_554 S
C311 C305 1.428 . S
C311 O314 1.301 . S
C311 O315 1.282 . S
O312 U294 2.441 . S
O312 C298 1.249 . S
O313 U294 2.420 . S
O313 C298 1.202 . S
O314 U294 2.455 1_554 S
O314 C311 1.301 . S
O315 U294 2.449 1_554 S
O315 C311 1.282 . S
H316 C289 0.931 . S
H317 C291 0.929 . S
H318 C292 0.930 . S
H319 C293 0.931 . S
H320 C300 0.932 . S
H321 C301 0.930 . S
H322 C302 0.929 . S
H323 C304 0.930 . S
H324 C306 0.932 . S
H325 C307 0.929 . S
H326 C308 0.928 . S
H327 C310 0.932 . S
C328 C329 1.264 . S
C328 C333 1.479 . S
C328 C338 1.465 . S
C329 C328 1.264 . S
C329 C331 1.339 . S
C329 H356 0.931 . S
C330 C331 1.395 . S
C330 C332 1.320 . S
C331 C329 1.339 . S
C331 C330 1.395 . S
C331 H357 0.929 . S
C332 C330 1.320 . S
C332 C333 1.405 . S
C332 H358 0.930 . S
C333 C328 1.479 . S
C333 C332 1.405 . S
C333 H359 0.931 . S
U334 O335 2.454 1_545 S
U334 O336 2.458 1_545 S
U334 C337 2.984 1_545 S
U334 C338 2.847 . S
U334 C351 2.882 . S
U334 O352 2.441 . S
U334 O353 2.420 . S
U334 O354 2.455 . S
U334 O355 2.449 . S
O335 U334 2.454 1_565 S
O335 C337 1.353 . S
O336 U334 2.458 1_565 S
O336 C337 1.286 . S
C337 U334 2.984 1_565 S
C337 O335 1.353 . S
C337 O336 1.286 . S
C337 C339 1.363 . S
C338 C328 1.465 . S
C338 U334 2.847 . S
C338 O352 1.249 . S
C338 O353 1.202 . S
C339 C337 1.363 . S
C339 C341 1.408 . S
C339 C344 1.342 . S
C340 C341 1.310 . S
C340 C343 1.461 . S
C340 H360 0.932 . S
C341 C339 1.408 . S
C341 C340 1.310 . S
C341 H361 0.930 . S
C342 C343 1.474 . S
C342 C344 1.285 . S
C342 H362 0.929 . S
C343 C340 1.461 . S
C343 C342 1.474 . S
C344 C339 1.342 . S
C344 C342 1.285 . S
C344 H363 0.930 . S
C345 C348 1.424 . S
C345 C350 1.245 . S
C345 C351 1.428 . S
C346 C349 1.260 . S
C346 C350 1.477 . S
C346 H364 0.932 . S
C347 C348 1.384 . S
C347 C349 1.479 . S
C347 H365 0.929 . S
C348 C345 1.424 . S
C348 C347 1.384 . S
C348 H366 0.928 . S
C349 C346 1.260 . S
C349 C347 1.479 . S
C350 C345 1.245 . S
C350 C346 1.477 . S
C350 H367 0.932 . S
C351 U334 2.882 . S
C351 C345 1.428 . S
C351 O354 1.301 . S
C351 O355 1.282 . S
O352 U334 2.441 . S
O352 C338 1.249 . S
O353 U334 2.420 . S
O353 C338 1.202 . S
O354 U334 2.455 . S
O354 C351 1.301 . S
O355 U334 2.449 . S
O355 C351 1.282 . S
H356 C329 0.931 . S
H357 C331 0.929 . S
H358 C332 0.930 . S
H359 C333 0.931 . S
H360 C340 0.932 . S
H361 C341 0.930 . S
H362 C342 0.929 . S
H363 C344 0.930 . S
H364 C346 0.932 . S
H365 C347 0.929 . S
H366 C348 0.928 . S
H367 C350 0.932 . S
C368 C369 1.264 . S
C368 C373 1.479 . S
C368 C378 1.465 . S
C369 C368 1.264 . S
C369 C371 1.339 . S
C369 H396 0.931 . S
C370 C371 1.395 . S
C370 C372 1.320 . S
C371 C369 1.339 . S
C371 C370 1.395 . S
C371 H397 0.929 . S
C372 C370 1.320 . S
C372 C373 1.405 . S
C372 H398 0.930 . S
C373 C368 1.479 . S
C373 C372 1.405 . S
C373 H399 0.931 . S
U374 O375 2.454 . S
U374 O376 2.458 1_554 S
U374 C377 2.984 . S
U374 C378 2.847 . S
U374 C391 2.882 1_554 S
U374 O392 2.441 . S
U374 O393 2.420 . S
U374 O394 2.455 1_554 S
U374 O395 2.449 1_554 S
O375 U374 2.454 . S
O375 C377 1.353 . S
O376 U374 2.458 1_556 S
O376 C377 1.286 1_556 S
C377 U374 2.984 . S
C377 O375 1.353 . S
C377 O376 1.286 1_554 S
C377 C379 1.363 . S
C378 C368 1.465 . S
C378 U374 2.847 . S
C378 O392 1.249 . S
C378 O393 1.202 . S
C379 C377 1.363 . S
C379 C381 1.408 . S
C379 C384 1.342 1_554 S
C380 C381 1.310 . S
C380 C383 1.461 . S
C380 H400 0.932 . S
C381 C379 1.408 . S
C381 C380 1.310 . S
C381 H401 0.930 . S
C382 C383 1.474 1_556 S
C382 C384 1.285 . S
C382 H402 0.929 . S
C383 C380 1.461 . S
C383 C382 1.474 1_554 S
C384 C379 1.342 1_556 S
C384 C382 1.285 . S
C384 H403 0.930 . S
C385 C388 1.424 . S
C385 C390 1.245 . S
C385 C391 1.428 . S
C386 C389 1.260 . S
C386 C390 1.477 . S
C386 H404 0.932 . S
C387 C388 1.384 . S
C387 C389 1.479 . S
C387 H405 0.929 . S
C388 C385 1.424 . S
C388 C387 1.384 . S
C388 H406 0.928 . S
C389 C386 1.260 . S
C389 C387 1.479 . S
C390 C385 1.245 . S
C390 C386 1.477 . S
C390 H407 0.932 . S
C391 U374 2.882 1_556 S
C391 C385 1.428 . S
C391 O394 1.301 . S
C391 O395 1.282 . S
O392 U374 2.441 . S
O392 C378 1.249 . S
O393 U374 2.420 . S
O393 C378 1.202 . S
O394 U374 2.455 1_556 S
O394 C391 1.301 . S
O395 U374 2.449 1_556 S
O395 C391 1.282 . S
H396 C369 0.931 . S
H397 C371 0.929 . S
H398 C372 0.930 . S
H399 C373 0.931 . S
H400 C380 0.932 . S
H401 C381 0.930 . S
H402 C382 0.929 . S
H403 C384 0.930 . S
H404 C386 0.932 . S
H405 C387 0.929 . S
H406 C388 0.928 . S
H407 C390 0.932 . S
H408 C414 0.930 . S
H409 C417 0.930 . S
H410 C418 0.930 . S
H411 C419 0.930 . S
H412 C422 0.930 . S
H413 C423 0.930 . S
C414 H408 0.930 . S
C414 C415 1.355 . S
C414 C416 1.415 . S
C415 C414 1.355 . S
C415 C417 1.419 . S
C416 C414 1.415 . S
C416 C421 1.425 . S
C416 C423 1.409 . S
C417 H409 0.930 . S
C417 C415 1.419 . S
C417 C418 1.362 . S
C418 H410 0.930 . S
C418 C417 1.362 . S
C418 C421 1.409 . S
C419 H411 0.930 . S
C419 C420 1.355 . S
C419 C421 1.415 . S
C420 C419 1.355 . S
C420 C422 1.419 . S
C421 C416 1.425 . S
C421 C418 1.409 . S
C421 C419 1.415 . S
C422 H412 0.930 . S
C422 C420 1.419 . S
C422 C423 1.362 . S
C423 H413 0.930 . S
C423 C416 1.409 . S
C423 C422 1.362 . S
H424 C430 0.930 . S
H425 C433 0.930 . S
H426 C434 0.930 . S
H427 C435 0.930 . S
H428 C438 0.930 . S
H429 C439 0.930 . S
C430 H424 0.930 . S
C430 C431 1.355 . S
C430 C432 1.415 . S
C431 C430 1.355 . S
C431 C433 1.419 . S
C432 C430 1.415 . S
C432 C437 1.425 . S
C432 C439 1.409 . S
C433 H425 0.930 . S
C433 C431 1.419 . S
C433 C434 1.362 . S
C434 H426 0.930 . S
C434 C433 1.362 . S
C434 C437 1.409 . S
C435 H427 0.930 . S
C435 C436 1.355 . S
C435 C437 1.415 . S
C436 C435 1.355 . S
C436 C438 1.419 . S
C437 C432 1.425 . S
C437 C434 1.409 . S
C437 C435 1.415 . S
C438 H428 0.930 . S
C438 C436 1.419 . S
C438 C439 1.362 . S
C439 H429 0.930 . S
C439 C432 1.409 . S
C439 C438 1.362 . S
H440 C446 0.930 . S
H441 C449 0.930 . S
H442 C450 0.930 . S
H443 C451 0.930 . S
H444 C454 0.930 . S
H445 C455 0.930 . S
C446 H440 0.930 . S
C446 C447 1.355 . S
C446 C448 1.415 . S
C447 C446 1.355 . S
C447 C449 1.419 . S
C448 C446 1.415 . S
C448 C453 1.425 . S
C448 C455 1.409 . S
C449 H441 0.930 . S
C449 C447 1.419 . S
C449 C450 1.362 . S
C450 H442 0.930 . S
C450 C449 1.362 . S
C450 C453 1.409 . S
C451 H443 0.930 . S
C451 C452 1.355 . S
C451 C453 1.415 . S
C452 C451 1.355 . S
C452 C454 1.419 . S
C453 C448 1.425 . S
C453 C450 1.409 . S
C453 C451 1.415 . S
C454 H444 0.930 . S
C454 C452 1.419 . S
C454 C455 1.362 . S
C455 H445 0.930 . S
C455 C448 1.409 . S
C455 C454 1.362 . S
H456 C462 0.930 . S
H457 C465 0.930 . S
H458 C466 0.930 . S
H459 C467 0.930 . S
H460 C470 0.930 . S
H461 C471 0.930 . S
C462 H456 0.930 . S
C462 C463 1.355 . S
C462 C464 1.415 . S
C463 C462 1.355 . S
C463 C465 1.419 . S
C464 C462 1.415 . S
C464 C469 1.425 . S
C464 C471 1.409 . S
C465 H457 0.930 . S
C465 C463 1.419 . S
C465 C466 1.362 . S
C466 H458 0.930 . S
C466 C465 1.362 . S
C466 C469 1.409 . S
C467 H459 0.930 . S
C467 C468 1.355 . S
C467 C469 1.415 . S
C468 C467 1.355 . S
C468 C470 1.419 . S
C469 C464 1.425 . S
C469 C466 1.409 . S
C469 C467 1.415 . S
C470 H460 0.930 . S
C470 C468 1.419 . S
C470 C471 1.362 . S
C471 H461 0.930 . S
C471 C464 1.409 . S
C471 C470 1.362 . S
H472 C478 0.930 . S
H473 C481 0.930 . S
H474 C482 0.930 . S
H475 C483 0.930 . S
H476 C486 0.930 . S
H477 C487 0.930 . S
C478 H472 0.930 . S
C478 C479 1.355 . S
C478 C480 1.415 . S
C479 C478 1.355 . S
C479 C481 1.419 . S
C480 C478 1.415 . S
C480 C485 1.425 . S
C480 C487 1.409 . S
C481 H473 0.930 . S
C481 C479 1.419 . S
C481 C482 1.362 . S
C482 H474 0.930 . S
C482 C481 1.362 . S
C482 C485 1.409 . S
C483 H475 0.930 . S
C483 C484 1.355 . S
C483 C485 1.415 . S
C484 C483 1.355 . S
C484 C486 1.419 . S
C485 C480 1.425 . S
C485 C482 1.409 . S
C485 C483 1.415 . S
C486 H476 0.930 . S
C486 C484 1.419 . S
C486 C487 1.362 . S
C487 H477 0.930 . S
C487 C480 1.409 . S
C487 C486 1.362 . S
H488 C494 0.930 . S
H489 C497 0.930 . S
H490 C498 0.930 . S
H491 C499 0.930 . S
H492 C502 0.930 . S
H493 C503 0.930 . S
C494 H488 0.930 . S
C494 C495 1.355 . S
C494 C496 1.415 . S
C495 C494 1.355 . S
C495 C497 1.419 . S
C496 C494 1.415 . S
C496 C501 1.425 . S
C496 C503 1.409 . S
C497 H489 0.930 . S
C497 C495 1.419 . S
C497 C498 1.362 . S
C498 H490 0.930 . S
C498 C497 1.362 . S
C498 C501 1.409 . S
C499 H491 0.930 . S
C499 C500 1.355 . S
C499 C501 1.415 . S
C500 C499 1.355 . S
C500 C502 1.419 . S
C501 C496 1.425 . S
C501 C498 1.409 . S
C501 C499 1.415 . S
C502 H492 0.930 . S
C502 C500 1.419 . S
C502 C503 1.362 . S
C503 H493 0.930 . S
C503 C496 1.409 . S
C503 C502 1.362 . S
H504 C510 0.930 . S
H505 C513 0.930 . S
H506 C514 0.930 . S
H507 C515 0.930 . S
H508 C518 0.930 . S
H509 C519 0.930 . S
C510 H504 0.930 . S
C510 C511 1.355 . S
C510 C512 1.415 . S
C511 C510 1.355 . S
C511 C513 1.419 . S
C512 C510 1.415 . S
C512 C517 1.425 . S
C512 C519 1.409 . S
C513 H505 0.930 . S
C513 C511 1.419 . S
C513 C514 1.362 . S
C514 H506 0.930 . S
C514 C513 1.362 . S
C514 C517 1.409 . S
C515 H507 0.930 . S
C515 C516 1.355 . S
C515 C517 1.415 . S
C516 C515 1.355 . S
C516 C518 1.419 . S
C517 C512 1.425 . S
C517 C514 1.409 . S
C517 C515 1.415 . S
C518 H508 0.930 . S
C518 C516 1.419 . S
C518 C519 1.362 . S
C519 H509 0.930 . S
C519 C512 1.409 . S
C519 C518 1.362 . S
H520 C526 0.930 . S
H521 C529 0.930 . S
H522 C530 0.930 . S
H523 C531 0.930 . S
H524 C534 0.930 . S
H525 C535 0.930 . S
C526 H520 0.930 . S
C526 C527 1.355 . S
C526 C528 1.415 . S
C527 C526 1.355 . S
C527 C529 1.419 . S
C528 C526 1.415 . S
C528 C533 1.425 . S
C528 C535 1.409 . S
C529 H521 0.930 . S
C529 C527 1.419 . S
C529 C530 1.362 . S
C530 H522 0.930 . S
C530 C529 1.362 . S
C530 C533 1.409 . S
C531 H523 0.930 . S
C531 C532 1.355 . S
C531 C533 1.415 . S
C532 C531 1.355 . S
C532 C534 1.419 . S
C533 C528 1.425 . S
C533 C530 1.409 . S
C533 C531 1.415 . S
C534 H524 0.930 . S
C534 C532 1.419 . S
C534 C535 1.362 . S
C535 H525 0.930 . S
C535 C528 1.409 . S
C535 C534 1.362 . S
H536 C542 0.930 . S
H537 C545 0.930 . S
H538 C546 0.930 . S
H539 C547 0.930 . S
H540 C550 0.930 . S
H541 C551 0.930 . S
C542 H536 0.930 . S
C542 C543 1.355 . S
C542 C544 1.415 . S
C543 C542 1.355 . S
C543 C545 1.419 . S
C544 C542 1.415 . S
C544 C549 1.425 . S
C544 C551 1.409 . S
C545 H537 0.930 . S
C545 C543 1.419 . S
C545 C546 1.362 . S
C546 H538 0.930 . S
C546 C545 1.362 . S
C546 C549 1.409 . S
C547 H539 0.930 . S
C547 C548 1.355 . S
C547 C549 1.415 . S
C548 C547 1.355 . S
C548 C550 1.419 . S
C549 C544 1.425 . S
C549 C546 1.409 . S
C549 C547 1.415 . S
C550 H540 0.930 . S
C550 C548 1.419 . S
C550 C551 1.362 . S
C551 H541 0.930 . S
C551 C544 1.409 . S
C551 C550 1.362 . S
H552 C558 0.930 . S
H553 C561 0.930 . S
H554 C562 0.930 . S
H555 C563 0.930 . S
H556 C566 0.930 . S
H557 C567 0.930 . S
C558 H552 0.930 . S
C558 C559 1.355 . S
C558 C560 1.415 . S
C559 C558 1.355 . S
C559 C561 1.419 . S
C560 C558 1.415 . S
C560 C565 1.425 . S
C560 C567 1.409 . S
C561 H553 0.930 . S
C561 C559 1.419 . S
C561 C562 1.362 . S
C562 H554 0.930 . S
C562 C561 1.362 . S
C562 C565 1.409 . S
C563 H555 0.930 . S
C563 C564 1.355 . S
C563 C565 1.415 . S
C564 C563 1.355 . S
C564 C566 1.419 . S
C565 C560 1.425 . S
C565 C562 1.409 . S
C565 C563 1.415 . S
C566 H556 0.930 . S
C566 C564 1.419 . S
C566 C567 1.362 . S
C567 H557 0.930 . S
C567 C560 1.409 . S
C567 C566 1.362 . S
H568 C574 0.930 . S
H569 C577 0.930 . S
H570 C578 0.930 . S
H571 C579 0.930 . S
H572 C582 0.930 . S
H573 C583 0.930 . S
C574 H568 0.930 . S
C574 C575 1.355 . S
C574 C576 1.415 . S
C575 C574 1.355 . S
C575 C577 1.419 . S
C576 C574 1.415 . S
C576 C581 1.425 . S
C576 C583 1.409 . S
C577 H569 0.930 . S
C577 C575 1.419 . S
C577 C578 1.362 . S
C578 H570 0.930 . S
C578 C577 1.362 . S
C578 C581 1.409 . S
C579 H571 0.930 . S
C579 C580 1.355 . S
C579 C581 1.415 . S
C580 C579 1.355 . S
C580 C582 1.419 . S
C581 C576 1.425 . S
C581 C578 1.409 . S
C581 C579 1.415 . S
C582 H572 0.930 . S
C582 C580 1.419 . S
C582 C583 1.362 . S
C583 H573 0.930 . S
C583 C576 1.409 . S
C583 C582 1.362 . S
H584 C590 0.930 . S
H585 C593 0.930 . S
H586 C594 0.930 . S
H587 C595 0.930 . S
H588 C598 0.930 . S
H589 C599 0.930 . S
C590 H584 0.930 . S
C590 C591 1.355 . S
C590 C592 1.415 . S
C591 C590 1.355 . S
C591 C593 1.419 . S
C592 C590 1.415 . S
C592 C597 1.425 . S
C592 C599 1.409 . S
C593 H585 0.930 . S
C593 C591 1.419 . S
C593 C594 1.362 . S
C594 H586 0.930 . S
C594 C593 1.362 . S
C594 C597 1.409 . S
C595 H587 0.930 . S
C595 C596 1.355 . S
C595 C597 1.415 . S
C596 C595 1.355 . S
C596 C598 1.419 . S
C597 C592 1.425 . S
C597 C594 1.409 . S
C597 C595 1.415 . S
C598 H588 0.930 . S
C598 C596 1.419 . S
C598 C599 1.362 . S
C599 H589 0.930 . S
C599 C592 1.409 . S
C599 C598 1.362 . S
H600 C606 0.930 . S
H601 C609 0.930 . S
H602 C610 0.930 . S
H603 C611 0.930 . S
H604 C614 0.930 . S
H605 C615 0.930 . S
C606 H600 0.930 . S
C606 C607 1.355 . S
C606 C608 1.415 . S
C607 C606 1.355 . S
C607 C609 1.419 . S
C608 C606 1.415 . S
C608 C613 1.425 . S
C608 C615 1.409 . S
C609 H601 0.930 . S
C609 C607 1.419 . S
C609 C610 1.362 . S
C610 H602 0.930 . S
C610 C609 1.362 . S
C610 C613 1.409 . S
C611 H603 0.930 . S
C611 C612 1.355 . S
C611 C613 1.415 . S
C612 C611 1.355 . S
C612 C614 1.419 . S
C613 C608 1.425 . S
C613 C610 1.409 . S
C613 C611 1.415 . S
C614 H604 0.930 . S
C614 C612 1.419 . S
C614 C615 1.362 . S
C615 H605 0.930 . S
C615 C608 1.409 . S
C615 C614 1.362 . S
H616 C622 0.930 . S
H617 C625 0.930 . S
H618 C626 0.930 . S
H619 C627 0.930 . S
H620 C630 0.930 . S
H621 C631 0.930 . S
C622 H616 0.930 . S
C622 C623 1.355 . S
C622 C624 1.415 . S
C623 C622 1.355 . S
C623 C625 1.419 . S
C624 C622 1.415 . S
C624 C629 1.425 . S
C624 C631 1.409 . S
C625 H617 0.930 . S
C625 C623 1.419 . S
C625 C626 1.362 . S
C626 H618 0.930 . S
C626 C625 1.362 . S
C626 C629 1.409 . S
C627 H619 0.930 . S
C627 C628 1.355 . S
C627 C629 1.415 . S
C628 C627 1.355 . S
C628 C630 1.419 . S
C629 C624 1.425 . S
C629 C626 1.409 . S
C629 C627 1.415 . S
C630 H620 0.930 . S
C630 C628 1.419 . S
C630 C631 1.362 . S
C631 H621 0.930 . S
C631 C624 1.409 . S
C631 C630 1.362 . S
H632 C638 0.930 . S
H633 C641 0.930 . S
H634 C642 0.930 . S
H635 C643 0.930 . S
H636 C646 0.930 . S
H637 C647 0.930 . S
C638 H632 0.930 . S
C638 C639 1.355 . S
C638 C640 1.415 . S
C639 C638 1.355 . S
C639 C641 1.419 . S
C640 C638 1.415 . S
C640 C645 1.425 . S
C640 C647 1.409 . S
C641 H633 0.930 . S
C641 C639 1.419 . S
C641 C642 1.362 . S
C642 H634 0.930 . S
C642 C641 1.362 . S
C642 C645 1.409 . S
C643 H635 0.930 . S
C643 C644 1.355 . S
C643 C645 1.415 . S
C644 C643 1.355 . S
C644 C646 1.419 . S
C645 C640 1.425 . S
C645 C642 1.409 . S
C645 C643 1.415 . S
C646 H636 0.930 . S
C646 C644 1.419 . S
C646 C647 1.362 . S
C647 H637 0.930 . S
C647 C640 1.409 . S
C647 C646 1.362 . S
H648 C654 0.930 . S
H649 C657 0.930 . S
H650 C658 0.930 . S
H651 C659 0.930 . S
H652 C662 0.930 . S
H653 C663 0.930 . S
C654 H648 0.930 . S
C654 C655 1.355 . S
C654 C656 1.415 . S
C655 C654 1.355 . S
C655 C657 1.419 . S
C656 C654 1.415 . S
C656 C661 1.425 . S
C656 C663 1.409 . S
C657 H649 0.930 . S
C657 C655 1.419 . S
C657 C658 1.362 . S
C658 H650 0.930 . S
C658 C657 1.362 . S
C658 C661 1.409 . S
C659 H651 0.930 . S
C659 C660 1.355 . S
C659 C661 1.415 . S
C660 C659 1.355 . S
C660 C662 1.419 . S
C661 C656 1.425 . S
C661 C658 1.409 . S
C661 C659 1.415 . S
C662 H652 0.930 . S
C662 C660 1.419 . S
C662 C663 1.362 . S
C663 H653 0.930 . S
C663 C656 1.409 . S
C663 C662 1.362 . S
H664 C670 0.930 . S
H665 C673 0.930 . S
H666 C674 0.930 . S
H667 C675 0.930 . S
H668 C678 0.930 . S
H669 C679 0.930 . S
C670 H664 0.930 . S
C670 C671 1.355 1_556 S
C670 C672 1.415 . S
C671 C670 1.355 1_554 S
C671 C673 1.419 . S
C672 C670 1.415 . S
C672 C677 1.425 1_556 S
C672 C679 1.409 . S
C673 H665 0.930 . S
C673 C671 1.419 . S
C673 C674 1.362 . S
C674 H666 0.930 . S
C674 C673 1.362 . S
C674 C677 1.409 . S
C675 H667 0.930 . S
C675 C676 1.355 1_554 S
C675 C677 1.415 . S
C676 C675 1.355 1_556 S
C676 C678 1.419 . S
C677 C672 1.425 1_554 S
C677 C674 1.409 . S
C677 C675 1.415 . S
C678 H668 0.930 . S
C678 C676 1.419 . S
C678 C679 1.362 . S
C679 H669 0.930 . S
C679 C672 1.409 . S
C679 C678 1.362 . S
H680 C686 0.930 . S
H681 C689 0.930 . S
H682 C690 0.930 . S
H683 C691 0.930 . S
H684 C694 0.930 . S
H685 C695 0.930 . S
C686 H680 0.930 . S
C686 C687 1.355 . S
C686 C688 1.415 . S
C687 C686 1.355 . S
C687 C689 1.419 . S
C688 C686 1.415 . S
C688 C693 1.425 . S
C688 C695 1.409 . S
C689 H681 0.930 . S
C689 C687 1.419 . S
C689 C690 1.362 . S
C690 H682 0.930 . S
C690 C689 1.362 . S
C690 C693 1.409 . S
C691 H683 0.930 . S
C691 C692 1.355 . S
C691 C693 1.415 . S
C692 C691 1.355 . S
C692 C694 1.419 . S
C693 C688 1.425 . S
C693 C690 1.409 . S
C693 C691 1.415 . S
C694 H684 0.930 . S
C694 C692 1.419 . S
C694 C695 1.362 . S
C695 H685 0.930 . S
C695 C688 1.409 . S
C695 C694 1.362 . S
H696 C702 0.930 . S
H697 C705 0.930 . S
H698 C706 0.930 . S
H699 C707 0.930 . S
H700 C710 0.930 . S
H701 C711 0.930 . S
C702 H696 0.930 . S
C702 C703 1.355 . S
C702 C704 1.415 . S
C703 C702 1.355 . S
C703 C705 1.419 1_554 S
C704 C702 1.415 . S
C704 C709 1.425 1_554 S
C704 C711 1.409 . S
C705 H697 0.930 . S
C705 C703 1.419 1_556 S
C705 C706 1.362 . S
C706 H698 0.930 . S
C706 C705 1.362 . S
C706 C709 1.409 . S
C707 H699 0.930 . S
C707 C708 1.355 1_556 S
C707 C709 1.415 . S
C708 C707 1.355 1_554 S
C708 C710 1.419 . S
C709 C704 1.425 1_556 S
C709 C706 1.409 . S
C709 C707 1.415 . S
C710 H700 0.930 . S
C710 C708 1.419 . S
C710 C711 1.362 . S
C711 H701 0.930 . S
C711 C704 1.409 . S
C711 C710 1.362 . S
H712 C718 0.930 . S
H713 C721 0.930 . S
H714 C722 0.930 . S
H715 C723 0.930 . S
H716 C726 0.930 . S
H717 C727 0.930 . S
C718 H712 0.930 . S
C718 C719 1.355 . S
C718 C720 1.415 . S
C719 C718 1.355 . S
C719 C721 1.419 . S
C720 C718 1.415 . S
C720 C725 1.425 . S
C720 C727 1.409 . S
C721 H713 0.930 . S
C721 C719 1.419 . S
C721 C722 1.362 . S
C722 H714 0.930 . S
C722 C721 1.362 . S
C722 C725 1.409 . S
C723 H715 0.930 . S
C723 C724 1.355 . S
C723 C725 1.415 . S
C724 C723 1.355 . S
C724 C726 1.419 . S
C725 C720 1.425 . S
C725 C722 1.409 . S
C725 C723 1.415 . S
C726 H716 0.930 . S
C726 C724 1.419 . S
C726 C727 1.362 . S
C727 H717 0.930 . S
C727 C720 1.409 . S
C727 C726 1.362 . S
H728 C734 0.930 . S
H729 C737 0.930 . S
H730 C738 0.930 . S
H731 C739 0.930 . S
H732 C742 0.930 . S
H733 C743 0.930 . S
C734 H728 0.930 . S
C734 C735 1.355 . S
C734 C736 1.415 . S
C735 C734 1.355 . S
C735 C737 1.419 . S
C736 C734 1.415 . S
C736 C741 1.425 . S
C736 C743 1.409 . S
C737 H729 0.930 . S
C737 C735 1.419 . S
C737 C738 1.362 . S
C738 H730 0.930 . S
C738 C737 1.362 . S
C738 C741 1.409 . S
C739 H731 0.930 . S
C739 C740 1.355 . S
C739 C741 1.415 . S
C740 C739 1.355 . S
C740 C742 1.419 . S
C741 C736 1.425 . S
C741 C738 1.409 . S
C741 C739 1.415 . S
C742 H732 0.930 . S
C742 C740 1.419 . S
C742 C743 1.362 . S
C743 H733 0.930 . S
C743 C736 1.409 . S
C743 C742 1.362 . S
H744 C750 0.930 . S
H745 C753 0.930 . S
H746 C754 0.930 . S
H747 C755 0.930 . S
H748 C758 0.930 . S
H749 C759 0.930 . S
C750 H744 0.930 . S
C750 C751 1.355 1_556 S
C750 C752 1.415 . S
C751 C750 1.355 1_554 S
C751 C753 1.419 . S
C752 C750 1.415 . S
C752 C757 1.425 1_556 S
C752 C759 1.409 . S
C753 H745 0.930 . S
C753 C751 1.419 . S
C753 C754 1.362 . S
C754 H746 0.930 . S
C754 C753 1.362 . S
C754 C757 1.409 . S
C755 H747 0.930 . S
C755 C756 1.355 . S
C755 C757 1.415 . S
C756 C755 1.355 . S
C756 C758 1.419 1_554 S
C757 C752 1.425 1_554 S
C757 C754 1.409 . S
C757 C755 1.415 . S
C758 H748 0.930 . S
C758 C756 1.419 1_556 S
C758 C759 1.362 . S
C759 H749 0.930 . S
C759 C752 1.409 . S
C759 C758 1.362 . S
H760 C766 0.930 . S
H761 C769 0.930 . S
H762 C770 0.930 . S
H763 C771 0.930 . S
H764 C774 0.930 . S
H765 C775 0.930 . S
C766 H760 0.930 . S
C766 C767 1.355 . S
C766 C768 1.415 . S
C767 C766 1.355 . S
C767 C769 1.419 . S
C768 C766 1.415 . S
C768 C773 1.425 . S
C768 C775 1.409 . S
C769 H761 0.930 . S
C769 C767 1.419 . S
C769 C770 1.362 . S
C770 H762 0.930 . S
C770 C769 1.362 . S
C770 C773 1.409 . S
C771 H763 0.930 . S
C771 C772 1.355 . S
C771 C773 1.415 . S
C772 C771 1.355 . S
C772 C774 1.419 . S
C773 C768 1.425 . S
C773 C770 1.409 . S
C773 C771 1.415 . S
C774 H764 0.930 . S
C774 C772 1.419 . S
C774 C775 1.362 . S
C775 H765 0.930 . S
C775 C768 1.409 . S
C775 C774 1.362 . S
H776 C782 0.931 . S
H777 C785 0.930 . S
H778 C786 0.930 . S
H779 C787 0.930 . S
H780 C790 0.930 . S
H781 C791 0.930 . S
C782 H776 0.931 . S
C782 C783 1.353 1_556 S
C782 C784 1.415 . S
C783 C782 1.353 1_554 S
C783 C785 1.419 . S
C784 C782 1.415 . S
C784 C789 1.425 1_556 S
C784 C791 1.409 . S
C785 H777 0.930 . S
C785 C783 1.419 . S
C785 C786 1.362 . S
C786 H778 0.930 . S
C786 C785 1.362 . S
C786 C789 1.409 . S
C787 H779 0.930 . S
C787 C788 1.354 1_554 S
C787 C789 1.415 . S
C788 C787 1.354 1_556 S
C788 C790 1.420 . S
C789 C784 1.425 1_554 S
C789 C786 1.409 . S
C789 C787 1.415 . S
C790 H780 0.930 . S
C790 C788 1.420 . S
C790 C791 1.362 . S
C791 H781 0.930 . S
C791 C784 1.409 . S
C791 C790 1.362 . S
C415 C5 1.518 . S
C420 C210 1.531 . S
C431 C31 1.526 . S
C436 C90 1.537 . S
C452 C149 1.450 . S
C447 C53 1.560 . S
C463 C71 1.539 . S
C468 C189 1.449 . S
C484 C309 1.496 . S
C479 C75 1.524 . S
C500 C349 1.494 . S
C495 C9 1.551 . S
C516 C370 1.545 . S
C511 C27 1.515 . S
C532 C250 1.516 . S
C527 C49 1.535 . S
C543 C51 1.512 . S
C548 C130 1.475 . S
C559 C72 1.538 . S
C564 C170 1.451 . S
C575 C6 1.547 . S
C580 C229 1.524 . S
C596 C109 1.524 . S
C591 C29 1.535 . S
C607 C28 1.553 . S
C612 C389 1.506 . S
C628 C269 1.508 . S
C623 C50 1.560 . S
C644 C290 1.485 . S
C639 C73 1.543 . S
C655 C7 1.537 . S
C660 C330 1.452 . S
C676 C103 1.509 1_556 S
C671 C4 1.529 . S
C692 C143 1.506 . S
C687 C30 1.527 . S
C703 C52 1.533 . S
C708 C183 1.495 . S
C719 C70 1.517 . S
C724 C223 1.531 . S
C740 C263 1.521 . S
C735 C74 1.523 . S
C751 C8 1.534 . S
C756 C303 1.493 . S
C767 C26 1.527 . S
C772 C343 1.509 . S
C783 C48 1.516 . S
C788 C383 1.532 1_556 S
