# Generated by pormake.
# Topology pyr, (3,6)-cn, num edge types: 1
# Building blocks:
#     Node 0, Type 0, BuildingBlock: OLANEW_clean_sbu_2, # of connection points: 3
#     Node 1, Type 0, BuildingBlock: OLANEW_clean_sbu_2, # of connection points: 3
#     Node 2, Type 0, BuildingBlock: OLANEW_clean_sbu_2, # of connection points: 3
#     Node 3, Type 0, BuildingBlock: OLANEW_clean_sbu_2, # of connection points: 3
#     Node 4, Type 0, BuildingBlock: OLANEW_clean_sbu_2, # of connection points: 3
#     Node 5, Type 0, BuildingBlock: OLANEW_clean_sbu_2, # of connection points: 3
#     Node 6, Type 0, BuildingBlock: OLANEW_clean_sbu_2, # of connection points: 3
#     Node 7, Type 0, BuildingBlock: OLANEW_clean_sbu_2, # of connection points: 3
#     Node 8, Type 1, BuildingBlock: VOLQOD_clean_sbu_1, # of connection points: 6
#     Node 9, Type 1, BuildingBlock: VOLQOD_clean_sbu_1, # of connection points: 6
#     Node 10, Type 1, BuildingBlock: VOLQOD_clean_sbu_1, # of connection points: 6
#     Node 11, Type 1, BuildingBlock: VOLQOD_clean_sbu_1, # of connection points: 6
#     Edge 12, Type (0, 1), BuildingBlock: TEMPAE_clean_linker_10, # of connection points: 2
#     Edge 13, Type (0, 1), BuildingBlock: TEMPAE_clean_linker_10, # of connection points: 2
#     Edge 14, Type (0, 1), BuildingBlock: TEMPAE_clean_linker_10, # of connection points: 2
#     Edge 15, Type (0, 1), BuildingBlock: TEMPAE_clean_linker_10, # of connection points: 2
#     Edge 16, Type (0, 1), BuildingBlock: TEMPAE_clean_linker_10, # of connection points: 2
#     Edge 17, Type (0, 1), BuildingBlock: TEMPAE_clean_linker_10, # of connection points: 2
#     Edge 18, Type (0, 1), BuildingBlock: TEMPAE_clean_linker_10, # of connection points: 2
#     Edge 19, Type (0, 1), BuildingBlock: TEMPAE_clean_linker_10, # of connection points: 2
#     Edge 20, Type (0, 1), BuildingBlock: TEMPAE_clean_linker_10, # of connection points: 2
#     Edge 21, Type (0, 1), BuildingBlock: TEMPAE_clean_linker_10, # of connection points: 2
#     Edge 22, Type (0, 1), BuildingBlock: TEMPAE_clean_linker_10, # of connection points: 2
#     Edge 23, Type (0, 1), BuildingBlock: TEMPAE_clean_linker_10, # of connection points: 2
#     Edge 24, Type (0, 1), BuildingBlock: TEMPAE_clean_linker_10, # of connection points: 2
#     Edge 25, Type (0, 1), BuildingBlock: TEMPAE_clean_linker_10, # of connection points: 2
#     Edge 26, Type (0, 1), BuildingBlock: TEMPAE_clean_linker_10, # of connection points: 2
#     Edge 27, Type (0, 1), BuildingBlock: TEMPAE_clean_linker_10, # of connection points: 2
#     Edge 28, Type (0, 1), BuildingBlock: TEMPAE_clean_linker_10, # of connection points: 2
#     Edge 29, Type (0, 1), BuildingBlock: TEMPAE_clean_linker_10, # of connection points: 2
#     Edge 30, Type (0, 1), BuildingBlock: TEMPAE_clean_linker_10, # of connection points: 2
#     Edge 31, Type (0, 1), BuildingBlock: TEMPAE_clean_linker_10, # of connection points: 2
#     Edge 32, Type (0, 1), BuildingBlock: TEMPAE_clean_linker_10, # of connection points: 2
#     Edge 33, Type (0, 1), BuildingBlock: TEMPAE_clean_linker_10, # of connection points: 2
#     Edge 34, Type (0, 1), BuildingBlock: TEMPAE_clean_linker_10, # of connection points: 2
#     Edge 35, Type (0, 1), BuildingBlock: TEMPAE_clean_linker_10, # of connection points: 2
# Relax obj value: 0.090
# Max RMSD: 0.153
# Mean RMSD: 0.134
data_MOF--net-pry--node1-OLANEW_clean_sbu_2--node2-VOLQOD_clean_sbu_1--edge1-TEMPAE_clean_linker_10
_symmetry_space_group_name_H-M    P1
_symmetry_Int_Tables_number       1
_symmetry_cell_setting            triclinic
loop_
_symmetry_equiv_pos_as_xyz
'x, y, z'
_cell_length_a     39.611805
_cell_length_b     39.845371
_cell_length_c     39.275545
_cell_angle_alpha  94.42133
_cell_angle_beta   88.988756
_cell_angle_gamma 95.257762
loop_
_atom_site_label
_atom_site_type_symbol
_atom_site_fract_x
_atom_site_fract_y
_atom_site_fract_z
_atom_type_partial_charge
O0 O 0.19749 0.16388 0.14693 0.0
Cd1 Cd 0.14396 0.18437 0.16846 0.0
O2 O 0.17472 0.11151 0.13833 0.0
Cd3 Cd 0.12859 0.1214 0.16697 0.0
O4 O 0.10267 0.11413 0.21571 0.0
C5 C 0.11159 0.08918 0.23058 0.0
O6 O 0.13377 0.07041 0.2152 0.0
C7 C 0.20008 0.13326 0.13612 0.0
C8 C 0.12226 0.2374 0.13412 0.0
O9 O 0.14136 0.24316 0.16033 0.0
O10 O 0.11383 0.20651 0.12379 0.0
O11 O 0.46386 0.93656 0.71587 0.0
Cd12 Cd 0.44849 0.92035 0.65642 0.0
O13 O 0.41119 0.92614 0.73349 0.0
Cd14 Cd 0.38859 0.91922 0.6829 0.0
O15 O 0.34715 0.92976 0.65059 0.0
C16 C 0.32904 0.95215 0.6639 0.0
O17 O 0.33727 0.96668 0.69417 0.0
C18 C 0.44224 0.9346 0.74013 0.0
C19 C 0.46583 0.85543 0.63557 0.0
O20 O 0.48616 0.88157 0.63061 0.0
O21 O 0.43733 0.86002 0.65036 0.0
O22 O 0.66054 0.49965 0.95027 0.0
Cd23 Cd 0.59926 0.49455 0.94116 0.0
O24 O 0.65323 0.44571 0.95757 0.0
Cd25 Cd 0.6657 0.39647 0.97184 0.0
O26 O 0.65721 0.34535 0.98828 0.0
C27 C 0.6365 0.34082 0.01293 0.0
O28 O 0.62273 0.36705 0.02773 0.0
C29 C 0.67304 0.47259 0.95663 0.0
C30 C 0.58229 0.4956 0.87267 0.0
O31 O 0.58375 0.52261 0.89277 0.0
O32 O 0.58902 0.4681 0.88493 0.0
O33 O 0.91845 0.66511 0.43325 0.0
Cd34 Cd 0.89783 0.60625 0.41835 0.0
O35 O 0.96051 0.65384 0.46519 0.0
Cd36 Cd 0.9363 0.60275 0.46834 0.0
O37 O 0.88646 0.57862 0.48125 0.0
C38 C 0.86455 0.59983 0.48703 0.0
O39 O 0.8742 0.63215 0.48571 0.0
C40 C 0.94476 0.67511 0.45063 0.0
C41 C 0.917 0.58678 0.35178 0.0
O42 O 0.88895 0.59983 0.35813 0.0
O43 O 0.93582 0.58259 0.37705 0.0
O44 O 0.95906 0.938 0.91005 0.0
Cd45 Cd 0.94946 0.92368 0.96907 0.0
O46 O 0.90755 0.91884 0.8939 0.0
Cd47 Cd 0.88812 0.9126 0.9455 0.0
O48 O 0.84821 0.92274 0.98279 0.0
C49 C 0.83405 0.94942 0.97844 0.0
O50 O 0.84562 0.9683 0.95402 0.0
C51 C 0.9372 0.93141 0.88659 0.0
C52 C 0.95862 0.85581 0.97566 0.0
O53 O 0.92902 0.86524 0.97131 0.0
O54 O 0.9838 0.87848 0.9771 0.0
O55 O 0.5865 0.01324 0.43643 0.0
Cd56 Cd 0.60067 0.01339 0.49676 0.0
O57 O 0.57859 0.06652 0.44703 0.0
Cd58 Cd 0.56961 0.11891 0.43992 0.0
O59 O 0.56432 0.17282 0.45045 0.0
C60 C 0.53745 0.18601 0.44362 0.0
O61 O 0.51235 0.16688 0.42868 0.0
C62 C 0.57872 0.04079 0.42571 0.0
C63 C 0.67055 0.01638 0.50638 0.0
O64 O 0.65244 0.98797 0.5035 0.0
O65 O 0.65559 0.04339 0.50471 0.0
O66 O 0.52387 0.67562 0.12613 0.0
Cd67 Cd 0.53696 0.61722 0.12831 0.0
O68 O 0.47059 0.65792 0.11909 0.0
Cd69 Cd 0.41582 0.6537 0.11067 0.0
O70 O 0.36213 0.63862 0.10213 0.0
C71 C 0.34724 0.64668 0.07595 0.0
O72 O 0.36445 0.66517 0.05413 0.0
C73 C 0.49356 0.68251 0.12217 0.0
C74 C 0.53057 0.59812 0.19497 0.0
O75 O 0.55845 0.6126 0.18401 0.0
O76 O 0.50573 0.59233 0.17422 0.0
O77 O 0.09862 0.53116 0.66176 0.0
Cd78 Cd 0.11103 0.53675 0.60131 0.0
O79 O 0.09487 0.47615 0.65221 0.0
Cd80 Cd 0.08921 0.42311 0.66385 0.0
O81 O 0.08042 0.36811 0.66125 0.0
C82 C 0.06348 0.35402 0.63604 0.0
O83 O 0.05206 0.37314 0.61381 0.0
C84 C 0.09356 0.50208 0.67305 0.0
C85 C 0.17891 0.52798 0.58701 0.0
O86 O 0.16949 0.55695 0.59756 0.0
O87 O 0.1561 0.50308 0.58291 0.0
O88 O 0.00164 0.08459 0.59474 0.0
Zn89 Zn 0.98378 0.03552 0.58741 0.0
O90 O 0.01344 0.01082 0.55599 0.0
Zn91 Zn 0.98915 0.99473 0.51406 0.0
Zn92 Zn 0.05382 0.04021 0.54458 0.0
Zn93 Zn 0.02698 0.97209 0.57802 0.0
O94 O 0.98932 0.94417 0.50477 0.0
O95 O 0.01157 0.92839 0.55188 0.0
O96 O 0.93632 0.03278 0.56878 0.0
O97 O 0.94035 0.0053 0.51768 0.0
O98 O 0.0104 0.0162 0.4733 0.0
O99 O 0.05694 0.04551 0.49381 0.0
O100 O 0.09693 0.02192 0.5594 0.0
O101 O 0.98034 0.01615 0.63361 0.0
O102 O 0.07747 0.97432 0.58171 0.0
O103 O 0.00834 0.97044 0.62564 0.0
C104 C 0.02902 0.10114 0.58582 0.0
C105 C 0.99809 0.92124 0.52276 0.0
C106 C 0.03752 0.0352 0.4689 0.0
C107 C 0.92294 0.02018 0.54083 0.0
C108 C 0.10205 0.9952 0.57371 0.0
C109 C 0.99091 0.98979 0.64464 0.0
O110 O 0.05129 0.08697 0.56742 0.0
O111 O 0.5218 0.09182 0.05052 0.0
Zn112 Zn 0.49451 0.04663 0.05053 0.0
O113 O 0.51481 0.01726 0.08066 0.0
Zn114 Zn 0.5281 0.97801 0.05286 0.0
Zn115 Zn 0.55517 0.0414 0.10246 0.0
Zn116 Zn 0.48199 0.00258 0.1159 0.0
O117 O 0.50588 0.93547 0.06972 0.0
O118 O 0.4729 0.95127 0.11327 0.0
O119 O 0.4914 0.02648 0.00161 0.0
O120 O 0.5148 0.97834 0.00401 0.0
O121 O 0.57837 0.97555 0.05335 0.0
O122 O 0.59757 0.0188 0.08883 0.0
O123 O 0.55085 0.04358 0.15383 0.0
O124 O 0.44731 0.05479 0.06661 0.0
O125 O 0.50029 0.01674 0.16307 0.0
O126 O 0.43792 0.02413 0.11135 0.0
C127 C 0.5478 0.10519 0.06679 0.0
C128 C 0.48467 0.92826 0.09332 0.0
C129 C 0.60276 0.99307 0.06876 0.0
C130 C 0.50057 0.999 0.98716 0.0
C131 C 0.52774 0.03267 0.17422 0.0
C132 C 0.42811 0.04439 0.0907 0.0
O133 O 0.5626 0.08893 0.08793 0.0
O134 O 0.55066 0.53692 0.61005 0.0
Zn135 Zn 0.55188 0.5549 0.5638 0.0
O136 O 0.52156 0.52628 0.53267 0.0
Zn137 Zn 0.54814 0.50563 0.49575 0.0
Zn138 Zn 0.49648 0.49083 0.55773 0.0
Zn139 Zn 0.49005 0.55416 0.51287 0.0
O140 O 0.53599 0.5203 0.45011 0.0
O141 O 0.49646 0.55553 0.46194 0.0
O142 O 0.60038 0.55547 0.54749 0.0
O143 O 0.598 0.51898 0.50174 0.0
O144 O 0.54029 0.45513 0.49347 0.0
O145 O 0.50438 0.44416 0.53608 0.0
O146 O 0.4461 0.49578 0.5572 0.0
O147 O 0.53844 0.60284 0.56981 0.0
O148 O 0.44194 0.53677 0.5226 0.0
O149 O 0.49593 0.60206 0.53364 0.0
C150 C 0.5335 0.51291 0.62386 0.0
C151 C 0.51549 0.54041 0.44053 0.0
C152 C 0.52243 0.43416 0.51072 0.0
C153 C 0.61491 0.53935 0.523 0.0
C154 C 0.42827 0.51446 0.54131 0.0
C155 C 0.51572 0.61774 0.55593 0.0
O156 O 0.5113 0.49339 0.60715 0.0
O157 O 0.97956 0.51074 0.09032 0.0
Zn158 Zn 0.98561 0.49205 0.04164 0.0
O159 O 0.01455 0.52403 0.01587 0.0
Zn160 Zn 0.9891 0.53826 0.9782 0.0
Zn161 Zn 0.02928 0.56389 0.04599 0.0
Zn162 Zn 0.05424 0.50239 0.99753 0.0
O163 O 0.01003 0.52442 0.93304 0.0
O164 O 0.05444 0.49781 0.94579 0.0
O165 O 0.93856 0.48336 0.02139 0.0
O166 O 0.94122 0.51682 0.97855 0.0
O167 O 0.98704 0.58891 0.98096 0.0
O168 O 0.01267 0.60604 0.02982 0.0
O169 O 0.08013 0.57143 0.04743 0.0
O170 O 0.00727 0.44823 0.04425 0.0
O171 O 0.09755 0.52989 0.01248 0.0
O172 O 0.05552 0.45622 0.01509 0.0
C173 C 0.99152 0.53747 0.1075 0.0
C174 C 0.03542 0.50837 0.92383 0.0
C175 C 0.99692 0.61236 0.00342 0.0
C176 C 0.92469 0.49562 0.99664 0.0
C177 C 0.10391 0.55633 0.03253 0.0
C178 C 0.0353 0.438 0.03316 0.0
O179 O 0.01136 0.55966 0.09379 0.0
C180 C 0.10803 0.05347 0.28026 0.0
C181 C 0.09864 0.08195 0.26512 0.0
C182 C 0.09716 0.04664 0.31337 0.0
C183 C 0.07641 0.06885 0.33192 0.0
C184 C 0.06654 0.09749 0.31674 0.0
C185 C 0.07774 0.10369 0.28346 0.0
C186 C 0.10811 0.01574 0.32862 0.0
C187 C 0.04445 0.12174 0.33579 0.0
C188 C 0.02614 0.03316 0.40617 0.0
C189 C 0.04676 0.04509 0.43405 0.0
C190 C 0.03507 0.04136 0.37289 0.0
C191 C 0.06534 0.06203 0.3673 0.0
C192 C 0.08592 0.07475 0.39534 0.0
C193 C 0.07641 0.06611 0.42836 0.0
C194 C 0.01248 0.02729 0.34362 0.0
C195 C 0.11838 0.09691 0.39036 0.0
H196 H 0.12411 0.03648 0.26628 0.0
H197 H 0.07041 0.12577 0.27196 0.0
H198 H 0.12287 0.02342 0.35213 0.0
H199 H 0.08553 0.99923 0.33607 0.0
H200 H 0.1239 0.00076 0.31064 0.0
H201 H 0.03863 0.14257 0.32022 0.0
H202 H 0.02025 0.10803 0.34359 0.0
H203 H 0.05726 0.13288 0.35946 0.0
H204 H 0.00312 0.017 0.41023 0.0
H205 H 0.09246 0.0756 0.44969 0.0
H206 H 0.02643 0.01021 0.32599 0.0
H207 H 0.0053 0.04807 0.32876 0.0
H208 H 0.98899 0.01296 0.35245 0.0
H209 H 0.13649 0.08257 0.37455 0.0
H210 H 0.13066 0.10611 0.41497 0.0
H211 H 0.11326 0.11906 0.37643 0.0
C212 C 0.48523 0.95844 0.78381 0.0
C213 C 0.45262 0.94328 0.77605 0.0
C214 C 0.49457 0.96823 0.81773 0.0
C215 C 0.47081 0.96246 0.84449 0.0
C216 C 0.43805 0.94674 0.83686 0.0
C217 C 0.42933 0.93745 0.80277 0.0
C218 C 0.5297 0.98504 0.82493 0.0
C219 C 0.41212 0.93985 0.86471 0.0
C220 C 0.50134 0.95874 0.93503 0.0
C221 C 0.49414 0.99038 0.95027 0.0
C222 C 0.49443 0.94958 0.90049 0.0
C223 C 0.48011 0.97265 0.88058 0.0
C224 C 0.47336 0.00486 0.89555 0.0
C225 C 0.48037 0.01332 0.93025 0.0
C226 C 0.50179 0.91491 0.88551 0.0
C227 C 0.45823 0.03019 0.87503 0.0
H228 H 0.50334 0.96316 0.76333 0.0
H229 H 0.40411 0.92565 0.79707 0.0
H230 H 0.52797 0.01054 0.83798 0.0
H231 H 0.54303 0.97021 0.84239 0.0
H232 H 0.54522 0.98763 0.80128 0.0
H233 H 0.38789 0.92704 0.85452 0.0
H234 H 0.42226 0.92374 0.88322 0.0
H235 H 0.40676 0.96392 0.87901 0.0
H236 H 0.51199 0.94079 0.95021 0.0
H237 H 0.47484 0.03786 0.94171 0.0
H238 H 0.51859 0.91713 0.86274 0.0
H239 H 0.47785 0.90031 0.87693 0.0
H240 H 0.51406 0.90038 0.90411 0.0
H241 H 0.47404 0.03481 0.85197 0.0
H242 H 0.45599 0.05471 0.89001 0.0
H243 H 0.43264 0.01992 0.86617 0.0
C244 C 0.55807 0.52377 0.82514 0.0
C245 C 0.57328 0.49622 0.83633 0.0
C246 C 0.54993 0.52502 0.79066 0.0
C247 C 0.55774 0.49837 0.7667 0.0
C248 C 0.57284 0.47034 0.77788 0.0
C249 C 0.58016 0.46947 0.81264 0.0
C250 C 0.53339 0.5551 0.77979 0.0
C251 C 0.58207 0.44173 0.75301 0.0
C252 C 0.51529 0.49046 0.67992 0.0
C253 C 0.53983 0.50788 0.66008 0.0
C254 C 0.52076 0.48701 0.71469 0.0
C255 C 0.55175 0.50076 0.72971 0.0
C256 C 0.57691 0.51762 0.70957 0.0
C257 C 0.57053 0.52123 0.67512 0.0
C258 C 0.49316 0.4693 0.73552 0.0
C259 C 0.61052 0.53211 0.72447 0.0
H260 H 0.55244 0.54439 0.84337 0.0
H261 H 0.59201 0.44815 0.82113 0.0
H262 H 0.55063 0.56929 0.7623 0.0
H263 H 0.50983 0.54652 0.76555 0.0
H264 H 0.52701 0.57263 0.80186 0.0
H265 H 0.59266 0.42125 0.76596 0.0
H266 H 0.55944 0.43081 0.7384 0.0
H267 H 0.60111 0.45147 0.73428 0.0
H268 H 0.49147 0.48023 0.66847 0.0
H269 H 0.58976 0.53444 0.65986 0.0
H270 H 0.48485 0.48704 0.75652 0.0
H271 H 0.503 0.44787 0.74747 0.0
H272 H 0.47076 0.45954 0.7199 0.0
H273 H 0.60637 0.55214 0.74493 0.0
H274 H 0.62797 0.54312 0.70497 0.0
H275 H 0.62306 0.51215 0.73626 0.0
C276 C 0.95792 0.56233 0.30959 0.0
C277 C 0.92765 0.57751 0.31623 0.0
C278 C 0.96883 0.55445 0.27596 0.0
C279 C 0.94907 0.56206 0.24837 0.0
C280 C 0.91831 0.57701 0.25491 0.0
C281 C 0.90794 0.5845 0.28876 0.0
C282 C 0.0017 0.53837 0.26995 0.0
C283 C 0.8966 0.58558 0.22612 0.0
C284 C 0.99176 0.57397 0.16235 0.0
C285 C 0.98158 0.54323 0.14391 0.0
C286 C 0.98162 0.58027 0.19646 0.0
C287 C 0.96092 0.55519 0.21262 0.0
C288 C 0.95096 0.52392 0.19439 0.0
C289 C 0.96135 0.51834 0.16023 0.0
C290 C 0.99266 0.61398 0.21507 0.0
C291 C 0.92904 0.49652 0.21086 0.0
H292 H 0.97326 0.55678 0.33067 0.0
H293 H 0.88453 0.59623 0.29367 0.0
H294 H 0.99723 0.51432 0.2538 0.0
H295 H 0.0199 0.55529 0.25595 0.0
H296 H 0.01355 0.53306 0.29417 0.0
H297 H 0.87304 0.5965 0.23552 0.0
H298 H 0.91117 0.60402 0.21046 0.0
H299 H 0.88953 0.56258 0.20909 0.0
H300 H 0.00736 0.59339 0.15001 0.0
H301 H 0.95343 0.49446 0.14627 0.0
H302 H 0.00651 0.61014 0.23856 0.0
H303 H 0.97009 0.62728 0.22311 0.0
H304 H 0.00929 0.63054 0.19906 0.0
H305 H 0.94124 0.48991 0.23435 0.0
H306 H 0.92435 0.47325 0.19351 0.0
H307 H 0.90426 0.50579 0.2186 0.0
C308 C 0.26334 0.14262 0.13126 0.0
C309 C 0.23324 0.12202 0.1242 0.0
C310 C 0.29512 0.1305 0.12421 0.0
C311 C 0.29684 0.09715 0.10937 0.0
C312 C 0.26657 0.0768 0.10076 0.0
C313 C 0.23516 0.08941 0.10845 0.0
C314 C 0.32684 0.15291 0.13392 0.0
C315 C 0.26735 0.04131 0.0844 0.0
C316 C 0.38049 0.07409 0.06935 0.0
C317 C 0.39404 0.05691 0.09511 0.0
C318 C 0.34875 0.08702 0.07347 0.0
C319 C 0.33023 0.08302 0.10425 0.0
C320 C 0.34365 0.06561 0.13029 0.0
C321 C 0.37529 0.05259 0.12534 0.0
C322 C 0.33509 0.10505 0.04495 0.0
C323 C 0.32475 0.06106 0.16359 0.0
H324 H 0.26212 0.16779 0.14356 0.0
H325 H 0.21203 0.07338 0.10273 0.0
H326 H 0.3405 0.14153 0.15393 0.0
H327 H 0.3442 0.15497 0.11156 0.0
H328 H 0.32124 0.17874 0.14373 0.0
H329 H 0.2417 0.02969 0.07704 0.0
H330 H 0.28388 0.04134 0.0613 0.0
H331 H 0.27824 0.02521 0.10243 0.0
H332 H 0.39468 0.07742 0.04581 0.0
H333 H 0.38559 0.03952 0.14544 0.0
H334 H 0.33134 0.13151 0.05404 0.0
H335 H 0.30997 0.0926 0.03695 0.0
H336 H 0.35229 0.10536 0.0223 0.0
H337 H 0.32034 0.08612 0.1764 0.0
H338 H 0.33871 0.04702 0.18132 0.0
H339 H 0.29954 0.04716 0.15866 0.0
C340 C 0.27646 0.98224 0.66412 0.0
C341 C 0.29806 0.96044 0.64693 0.0
C342 C 0.24586 0.98878 0.64968 0.0
C343 C 0.23669 0.97336 0.61709 0.0
C344 C 0.25888 0.95224 0.59904 0.0
C345 C 0.28929 0.9459 0.61424 0.0
C346 C 0.22278 0.01128 0.66988 0.0
C347 C 0.25004 0.9356 0.5641 0.0
C348 C 0.14221 0.96067 0.60088 0.0
C349 C 0.13699 0.98859 0.58252 0.0
C350 C 0.17468 0.95495 0.6114 0.0
C351 C 0.20276 0.97756 0.60321 0.0
C352 C 0.19794 0.00518 0.58375 0.0
C353 C 0.16507 0.01045 0.57371 0.0
C354 C 0.17872 0.92529 0.63227 0.0
C355 C 0.22737 0.02965 0.57432 0.0
H356 H 0.28304 0.99366 0.68936 0.0
H357 H 0.30593 0.92918 0.60071 0.0
H358 H 0.2163 0.03192 0.65446 0.0
H359 H 0.1987 0.99639 0.67608 0.0
H360 H 0.23441 0.02268 0.6941 0.0
H361 H 0.27121 0.9222 0.55227 0.0
H362 H 0.22754 0.91709 0.56609 0.0
H363 H 0.24331 0.95472 0.54691 0.0
H364 H 0.12078 0.94354 0.60778 0.0
H365 H 0.16135 0.03198 0.55938 0.0
H366 H 0.18794 0.93458 0.65812 0.0
H367 H 0.19792 0.90943 0.62025 0.0
H368 H 0.15457 0.90917 0.63507 0.0
H369 H 0.23807 0.04367 0.59777 0.0
H370 H 0.21982 0.04821 0.55684 0.0
H371 H 0.24787 0.01574 0.5619 0.0
C372 C 0.72722 0.4446 0.95415 0.0
C373 C 0.70964 0.47291 0.96357 0.0
C374 C 0.76225 0.44523 0.9596 0.0
C375 C 0.78002 0.47489 0.97488 0.0
C376 C 0.76226 0.50341 0.98478 0.0
C377 C 0.72735 0.50216 0.97875 0.0
C378 C 0.78038 0.41451 0.94821 0.0
C379 C 0.78023 0.53544 0.00136 0.0
C380 C 0.86655 0.47264 0.01465 0.0
C381 C 0.88811 0.48688 0.98982 0.0
C382 C 0.83133 0.4677 0.00978 0.0
C383 C 0.81742 0.47685 0.9792 0.0
C384 C 0.8392 0.48982 0.95345 0.0
C385 C 0.87422 0.49485 0.95914 0.0
C386 C 0.80888 0.45395 0.03789 0.0
C387 C 0.82543 0.49947 0.92029 0.0
H388 H 0.71385 0.42231 0.94146 0.0
H389 H 0.71381 0.52409 0.98607 0.0
H390 H 0.79904 0.42086 0.92778 0.0
H391 H 0.7947 0.40652 0.96975 0.0
H392 H 0.76263 0.39288 0.93835 0.0
H393 H 0.76249 0.55479 0.00897 0.0
H394 H 0.79388 0.52974 0.02436 0.0
H395 H 0.79944 0.54635 0.98343 0.0
H396 H 0.87704 0.4665 0.03846 0.0
H397 H 0.8907 0.50558 0.93967 0.0
H398 H 0.79185 0.43198 0.02765 0.0
H399 H 0.79257 0.47359 0.04831 0.0
H400 H 0.82374 0.44602 0.05913 0.0
H401 H 0.80874 0.47813 0.90822 0.0
H402 H 0.8459 0.50675 0.90186 0.0
H403 H 0.80981 0.52107 0.92541 0.0
C404 C 0.81844 0.55606 0.50254 0.0
C405 C 0.82848 0.58877 0.49319 0.0
C406 C 0.78408 0.54576 0.50844 0.0
C407 C 0.75932 0.56855 0.50424 0.0
C408 C 0.76935 0.60146 0.4945 0.0
C409 C 0.80381 0.61125 0.48939 0.0
C410 C 0.77429 0.51064 0.51934 0.0
C411 C 0.74366 0.62633 0.48923 0.0
C412 C 0.66759 0.53643 0.48728 0.0
C413 C 0.65215 0.54485 0.51882 0.0
C414 C 0.70265 0.54321 0.4824 0.0
C415 C 0.72278 0.55824 0.5099 0.0
C416 C 0.70753 0.56565 0.54214 0.0
C417 C 0.67233 0.55915 0.54613 0.0
C418 C 0.71793 0.53545 0.4475 0.0
C419 C 0.72827 0.58121 0.57219 0.0
H420 H 0.83746 0.53865 0.50563 0.0
H421 H 0.81137 0.63649 0.4819 0.0
H422 H 0.76045 0.51216 0.54414 0.0
H423 H 0.75689 0.49642 0.50041 0.0
H424 H 0.79666 0.49618 0.522 0.0
H425 H 0.75563 0.65073 0.48097 0.0
H426 H 0.7251 0.61542 0.46964 0.0
H427 H 0.72929 0.63144 0.51328 0.0
H428 H 0.65213 0.52545 0.46604 0.0
H429 H 0.6606 0.56537 0.57068 0.0
H430 H 0.73928 0.51955 0.44938 0.0
H431 H 0.72835 0.55932 0.43689 0.0
H432 H 0.6991 0.52219 0.42931 0.0
H433 H 0.75 0.56626 0.57603 0.0
H434 H 0.71305 0.58275 0.59619 0.0
H435 H 0.73885 0.6071 0.56703 0.0
C436 C 0.11731 0.29916 0.12994 0.0
C437 C 0.10966 0.26561 0.11687 0.0
C438 C 0.10465 0.32609 0.11465 0.0
C439 C 0.08392 0.31938 0.08546 0.0
C440 C 0.07642 0.28562 0.07187 0.0
C441 C 0.08932 0.25913 0.08776 0.0
C442 C 0.1132 0.36174 0.12997 0.0
C443 C 0.05455 0.27747 0.04069 0.0
C444 C 0.02675 0.38759 0.06798 0.0
C445 C 0.04593 0.40557 0.0438 0.0
C446 C 0.03835 0.35892 0.08103 0.0
C447 C 0.06983 0.3478 0.06955 0.0
C448 C 0.08868 0.365 0.04419 0.0
C449 C 0.07655 0.39368 0.03168 0.0
C450 C 0.0175 0.34127 0.10805 0.0
C451 C 0.12224 0.35379 0.03109 0.0
H452 H 0.13296 0.30444 0.15242 0.0
H453 H 0.08331 0.2333 0.07745 0.0
H454 H 0.12607 0.37744 0.11061 0.0
H455 H 0.08958 0.3733 0.1379 0.0
H456 H 0.12989 0.36272 0.15253 0.0
H457 H 0.0517 0.24998 0.03284 0.0
H458 H 0.029 0.28611 0.04589 0.0
H459 H 0.06568 0.29117 0.01902 0.0
H460 H 0.00307 0.39648 0.07755 0.0
H461 H 0.09154 0.40723 0.01291 0.0
H462 H 0.03166 0.34383 0.13237 0.0
H463 H 0.01288 0.31387 0.10041 0.0
H464 H 0.99267 0.35179 0.11276 0.0
H465 H 0.14094 0.35708 0.05206 0.0
H466 H 0.13259 0.36835 0.00964 0.0
H467 H 0.11944 0.32654 0.02235 0.0
C468 C 0.63862 0.27803 0.00565 0.0
C469 C 0.62605 0.30636 0.02319 0.0
C470 C 0.62711 0.24517 0.01367 0.0
C471 C 0.60249 0.24057 0.03986 0.0
C472 C 0.59036 0.26906 0.05825 0.0
C473 C 0.60228 0.30161 0.04969 0.0
C474 C 0.64067 0.21536 0.99355 0.0
C475 C 0.56416 0.26515 0.08642 0.0
C476 C 0.54633 0.15797 0.0363 0.0
C477 C 0.56151 0.14008 0.06042 0.0
C478 C 0.55942 0.19069 0.02942 0.0
C479 C 0.58838 0.20596 0.0471 0.0
C480 C 0.60373 0.1882 0.07161 0.0
C481 C 0.59013 0.15546 0.07797 0.0
C482 C 0.54234 0.20887 0.00308 0.0
C483 C 0.6346 0.20374 0.09102 0.0
H484 H 0.65704 0.28146 0.98519 0.0
H485 H 0.59249 0.32335 0.06345 0.0
H486 H 0.65109 0.19847 0.0111 0.0
H487 H 0.61976 0.20036 0.9793 0.0
H488 H 0.66085 0.22324 0.97505 0.0
H489 H 0.55853 0.28985 0.09932 0.0
H490 H 0.54027 0.25211 0.07577 0.0
H491 H 0.57304 0.24923 0.10581 0.0
H492 H 0.52424 0.14636 0.02256 0.0
H493 H 0.60207 0.1419 0.09666 0.0
H494 H 0.5606 0.21534 0.98234 0.0
H495 H 0.53395 0.23294 0.01491 0.0
H496 H 0.51999 0.19349 0.99163 0.0
H497 H 0.65563 0.20999 0.0729 0.0
H498 H 0.64341 0.18666 0.1094 0.0
H499 H 0.62886 0.22772 0.10526 0.0
C500 C 0.98832 0.72345 0.46505 0.0
C501 C 0.95492 0.71166 0.45644 0.0
C502 C 0.99733 0.75803 0.4731 0.0
C503 C 0.97207 0.78104 0.47358 0.0
C504 C 0.93845 0.76928 0.4643 0.0
C505 C 0.93041 0.73479 0.45536 0.0
C506 C 0.03365 0.76984 0.48191 0.0
C507 C 0.9106 0.79285 0.46535 0.0
C508 C 0.98446 0.86064 0.53302 0.0
C509 C 0.99209 0.88546 0.50998 0.0
C510 C 0.9779 0.82655 0.52145 0.0
C511 C 0.9801 0.81698 0.48606 0.0
C512 C 0.98866 0.84186 0.46273 0.0
C513 C 0.99401 0.87596 0.47494 0.0
C514 C 0.96788 0.8009 0.54705 0.0
C515 C 0.99216 0.83245 0.42494 0.0
H516 H 0.00736 0.70562 0.46566 0.0
H517 H 0.90447 0.72572 0.449 0.0
H518 H 0.04277 0.79149 0.467 0.0
H519 H 0.03533 0.77876 0.50934 0.0
H520 H 0.05081 0.74944 0.47682 0.0
H521 H 0.88601 0.77985 0.4563 0.0
H522 H 0.9071 0.80374 0.49191 0.0
H523 H 0.91764 0.81421 0.44936 0.0
H524 H 0.98276 0.86802 0.56011 0.0
H525 H 0.00026 0.89516 0.45716 0.0
H526 H 0.98614 0.78134 0.54595 0.0
H527 H 0.94256 0.78786 0.54065 0.0
H528 H 0.96693 0.81261 0.57361 0.0
H529 H 0.01039 0.81297 0.42049 0.0
H530 H 0.00097 0.85456 0.41048 0.0
H531 H 0.96743 0.82131 0.41454 0.0
C532 C 0.45464 0.79247 0.63412 0.0
C533 C 0.47484 0.82097 0.62433 0.0
C534 C 0.46259 0.75967 0.62335 0.0
C535 C 0.49125 0.75524 0.60197 0.0
C536 C 0.51184 0.78389 0.59211 0.0
C537 C 0.50349 0.81641 0.60355 0.0
C538 C 0.44018 0.72975 0.63467 0.0
C539 C 0.54241 0.78019 0.56907 0.0
C540 C 0.52659 0.66933 0.59646 0.0
C541 C 0.51117 0.65358 0.56675 0.0
C542 C 0.52067 0.70256 0.60803 0.0
C543 C 0.4991 0.72059 0.58927 0.0
C544 C 0.48418 0.70516 0.55882 0.0
C545 C 0.49024 0.67183 0.54803 0.0
C546 C 0.53684 0.71807 0.64077 0.0
C547 C 0.46134 0.72368 0.53788 0.0
H548 H 0.43256 0.79576 0.65031 0.0
H549 H 0.51919 0.83829 0.5958 0.0
H550 H 0.42865 0.71487 0.61208 0.0
H551 H 0.45552 0.7128 0.64779 0.0
H552 H 0.41951 0.73747 0.65223 0.0
H553 H 0.55611 0.80497 0.56417 0.0
H554 H 0.56025 0.76455 0.58065 0.0
H555 H 0.53441 0.76691 0.54425 0.0
H556 H 0.54269 0.65542 0.61117 0.0
H557 H 0.47837 0.65999 0.52493 0.0
H558 H 0.51684 0.72395 0.65988 0.0
H559 H 0.5518 0.74225 0.63616 0.0
H560 H 0.55377 0.7011 0.65182 0.0
H561 H 0.43855 0.72972 0.55314 0.0
H562 H 0.45296 0.70868 0.51401 0.0
H563 H 0.47467 0.748 0.53105 0.0
C564 C 0.92206 0.93055 0.82491 0.0
C565 C 0.94573 0.93931 0.85101 0.0
C566 C 0.92924 0.93877 0.79129 0.0
C567 C 0.96081 0.95629 0.78357 0.0
C568 C 0.98489 0.9651 0.8097 0.0
C569 C 0.9771 0.95644 0.8431 0.0
C570 C 0.90301 0.92875 0.76405 0.0
C571 C 0.0188 0.98385 0.8024 0.0
C572 C 0.99175 0.95071 0.6915 0.0
C573 C 0.98308 0.98137 0.68023 0.0
C574 C 0.98469 0.94228 0.72505 0.0
C575 C 0.96871 0.96511 0.74802 0.0
C576 C 0.95997 0.99614 0.73694 0.0
C577 C 0.96717 0.00386 0.70313 0.0
C578 C 0.9942 0.90885 0.73588 0.0
C579 C 0.94301 0.02117 0.7608 0.0
H580 H 0.89777 0.9173 0.83072 0.0
H581 H 0.9955 0.9634 0.8631 0.0
H582 H 0.89577 0.95157 0.7525 0.0
H583 H 0.91377 0.91233 0.74329 0.0
H584 H 0.87976 0.91506 0.77422 0.0
H585 H 0.03467 0.98897 0.82559 0.0
H586 H 0.03288 0.96897 0.7828 0.0
H587 H 0.015 0.00828 0.7919 0.0
H588 H 0.00398 0.93309 0.67402 0.0
H589 H 0.96046 0.02764 0.69473 0.0
H590 H 0.97123 0.8936 0.74451 0.0
H591 H 0.01173 0.91315 0.75783 0.0
H592 H 0.00657 0.89394 0.71492 0.0
H593 H 0.91848 0.00933 0.77011 0.0
H594 H 0.93823 0.04436 0.74834 0.0
H595 H 0.95908 0.02856 0.78348 0.0
C596 C 0.55107 0.06673 0.37815 0.0
C597 C 0.57094 0.04232 0.38909 0.0
C598 C 0.54334 0.06762 0.34344 0.0
C599 C 0.55532 0.04316 0.31922 0.0
C600 C 0.57521 0.01835 0.33016 0.0
C601 C 0.58277 0.01825 0.3649 0.0
C602 C 0.52201 0.09444 0.33276 0.0
C603 C 0.58833 0.9917 0.30519 0.0
C604 C 0.51097 0.02112 0.23438 0.0
C605 C 0.53347 0.03744 0.21162 0.0
C606 C 0.51729 0.02354 0.26959 0.0
C607 C 0.54669 0.04293 0.28245 0.0
C608 C 0.56891 0.06038 0.25982 0.0
C609 C 0.56211 0.05734 0.22469 0.0
C610 C 0.49306 0.0044 0.29288 0.0
C611 C 0.60036 0.08155 0.27261 0.0
H612 H 0.54074 0.0846 0.39669 0.0
H613 H 0.59807 0.99923 0.37313 0.0
H614 H 0.53535 0.10865 0.31253 0.0
H615 H 0.49783 0.0824 0.32183 0.0
H616 H 0.51611 0.11263 0.35445 0.0
H617 H 0.60359 0.97427 0.31781 0.0
H618 H 0.56678 0.97659 0.29203 0.0
H619 H 0.60428 0.00388 0.28528 0.0
H620 H 0.48877 0.0057 0.22462 0.0
H621 H 0.57954 0.07025 0.2074 0.0
H622 H 0.48458 0.02169 0.31416 0.0
H623 H 0.50619 0.98464 0.30435 0.0
H624 H 0.47037 0.99206 0.27918 0.0
H625 H 0.59367 0.10016 0.29355 0.0
H626 H 0.61379 0.09536 0.2521 0.0
H627 H 0.61805 0.06511 0.28323 0.0
C628 C 0.55221 0.60043 0.25455 0.0
C629 C 0.52711 0.58872 0.23067 0.0
C630 C 0.54912 0.5922 0.28861 0.0
C631 C 0.52044 0.57144 0.29895 0.0
C632 C 0.4951 0.55934 0.27494 0.0
C633 C 0.49865 0.5683 0.24109 0.0
C634 C 0.57652 0.60584 0.31358 0.0
C635 C 0.46436 0.53682 0.28496 0.0
C636 C 0.53072 0.52645 0.37931 0.0
C637 C 0.51481 0.54717 0.404 0.0
C638 C 0.53191 0.53354 0.34486 0.0
C639 C 0.51719 0.56226 0.33491 0.0
C640 C 0.50056 0.58295 0.35955 0.0
C641 C 0.49939 0.57504 0.39379 0.0
C642 C 0.54949 0.51064 0.31922 0.0
C643 C 0.48483 0.61397 0.34992 0.0
H644 H 0.57419 0.61636 0.24672 0.0
H645 H 0.47921 0.55908 0.22273 0.0
H646 H 0.5654 0.6208 0.33526 0.0
H647 H 0.58802 0.58463 0.32429 0.0
H648 H 0.59693 0.62212 0.30158 0.0
H649 H 0.44708 0.52936 0.26317 0.0
H650 H 0.47243 0.5136 0.29507 0.0
H651 H 0.45004 0.54997 0.30567 0.0
H652 H 0.54248 0.50472 0.38692 0.0
H653 H 0.48714 0.59124 0.4127 0.0
H654 H 0.57197 0.52488 0.30827 0.0
H655 H 0.53226 0.50174 0.29778 0.0
H656 H 0.55795 0.48827 0.33076 0.0
H657 H 0.50475 0.63223 0.34 0.0
H658 H 0.47182 0.62674 0.3719 0.0
H659 H 0.46622 0.60706 0.32921 0.0
C660 C 0.09996 0.52495 0.73359 0.0
C661 C 0.08676 0.49918 0.70991 0.0
C662 C 0.09248 0.524 0.76854 0.0
C663 C 0.07115 0.49663 0.78011 0.0
C664 C 0.05822 0.47019 0.75641 0.0
C665 C 0.06599 0.47191 0.72151 0.0
C666 C 0.10669 0.55277 0.79297 0.0
C667 C 0.03528 0.44067 0.76777 0.0
C668 C 0.07171 0.4863 0.87552 0.0
C669 C 0.04348 0.50311 0.88686 0.0
C670 C 0.0805 0.48306 0.84067 0.0
C671 C 0.06066 0.49705 0.81667 0.0
C672 C 0.03167 0.51323 0.82784 0.0
C673 C 0.02341 0.51601 0.86273 0.0
C674 C 0.11148 0.46543 0.82963 0.0
C675 C 0.00989 0.52854 0.80304 0.0
H676 H 0.11602 0.54611 0.72473 0.0
H677 H 0.05469 0.45257 0.70328 0.0
H678 H 0.08565 0.56618 0.80497 0.0
H679 H 0.12053 0.54286 0.81379 0.0
H680 H 0.1242 0.57131 0.78009 0.0
H681 H 0.02991 0.42073 0.74671 0.0
H682 H 0.0469 0.42933 0.78914 0.0
H683 H 0.01088 0.44957 0.77733 0.0
H684 H 0.08731 0.47612 0.89391 0.0
H685 H 0.00148 0.52894 0.87111 0.0
H686 H 0.13083 0.48376 0.81892 0.0
H687 H 0.10484 0.44528 0.80914 0.0
H688 H 0.12291 0.454 0.8511 0.0
H689 H 0.02501 0.54934 0.79094 0.0
H690 H 0.98727 0.5388 0.81562 0.0
H691 H 0.00124 0.50935 0.78232 0.0
C692 C 0.79024 0.93761 0.02398 0.0
C693 C 0.80298 0.95739 0.99777 0.0
C694 C 0.75905 0.94319 0.04006 0.0
C695 C 0.7401 0.96886 0.02936 0.0
C696 C 0.75348 0.98971 0.00386 0.0
C697 C 0.78481 0.98384 0.98854 0.0
C698 C 0.74581 0.92081 0.06755 0.0
C699 C 0.73397 0.01723 0.99157 0.0
C700 C 0.64422 0.9601 0.03487 0.0
C701 C 0.63792 0.98449 0.06137 0.0
C702 C 0.6774 0.9539 0.02509 0.0
C703 C 0.70505 0.97226 0.04246 0.0
C704 C 0.69894 0.99573 0.07032 0.0
C705 C 0.66542 0.00173 0.07933 0.0
C706 C 0.68284 0.92881 0.99509 0.0
C707 C 0.7278 0.01539 0.08976 0.0
H708 H 0.80425 0.91728 0.03144 0.0
H709 H 0.79449 0.99934 0.96841 0.0
H710 H 0.73729 0.93633 0.09021 0.0
H711 H 0.72348 0.90415 0.05795 0.0
H712 H 0.76519 0.90469 0.07565 0.0
H713 H 0.74877 0.03246 0.97297 0.0
H714 H 0.71024 0.00579 0.97917 0.0
H715 H 0.72663 0.03442 0.01347 0.0
H716 H 0.62321 0.94656 0.02085 0.0
H717 H 0.66081 0.02042 0.10003 0.0
H718 H 0.69985 0.90995 0.00226 0.0
H719 H 0.69536 0.94219 0.97385 0.0
H720 H 0.65869 0.9152 0.98562 0.0
H721 H 0.74634 0.99812 0.09728 0.0
H722 H 0.71887 0.02972 0.11307 0.0
H723 H 0.74142 0.03355 0.07312 0.0
C724 C 0.72801 0.04837 0.50895 0.0
C725 C 0.70764 0.01794 0.51151 0.0
C726 C 0.76323 0.0501 0.51347 0.0
C727 C 0.77837 0.02078 0.52113 0.0
C728 C 0.75791 0.99005 0.52401 0.0
C729 C 0.72282 0.98895 0.51897 0.0
C730 C 0.78427 0.08322 0.50984 0.0
C731 C 0.77308 0.95832 0.53249 0.0
C732 C 0.87212 0.01397 0.50302 0.0
C733 C 0.88617 0.02186 0.53552 0.0
C734 C 0.83717 0.01419 0.49786 0.0
C735 C 0.81566 0.02209 0.52594 0.0
C736 C 0.82969 0.03043 0.55874 0.0
C737 C 0.86479 0.03042 0.5631 0.0
C738 C 0.8232 0.00558 0.46241 0.0
C739 C 0.80752 0.03869 0.58936 0.0
H740 H 0.71647 0.07085 0.50307 0.0
H741 H 0.70724 0.96538 0.52114 0.0
H742 H 0.798 0.09129 0.53388 0.0
H743 H 0.80364 0.08002 0.48938 0.0
H744 H 0.76863 0.10365 0.50363 0.0
H745 H 0.7536 0.93663 0.53442 0.0
H746 H 0.79192 0.9513 0.51258 0.0
H747 H 0.78671 0.96289 0.55709 0.0
H748 H 0.88844 0.00753 0.48152 0.0
H749 H 0.87538 0.03642 0.58833 0.0
H750 H 0.80865 0.02624 0.45478 0.0
H751 H 0.80542 0.98237 0.46218 0.0
H752 H 0.84348 0.00139 0.44305 0.0
H753 H 0.79276 0.0602 0.58467 0.0
H754 H 0.82244 0.04527 0.61301 0.0
H755 H 0.78903 0.01672 0.59361 0.0
C756 C 0.29371 0.61289 0.09196 0.0
C757 C 0.31129 0.63433 0.06962 0.0
C758 C 0.25994 0.60029 0.08591 0.0
C759 C 0.24328 0.60941 0.05687 0.0
C760 C 0.26075 0.63122 0.03434 0.0
C761 C 0.29458 0.6434 0.04096 0.0
C762 C 0.24214 0.57704 0.1105 0.0
C763 C 0.24375 0.64159 0.00318 0.0
C764 C 0.16645 0.55253 0.02456 0.0
C765 C 0.13961 0.56998 0.03852 0.0
C766 C 0.20031 0.56517 0.03018 0.0
C767 C 0.20753 0.59605 0.05012 0.0
C768 C 0.18062 0.61391 0.06408 0.0
C769 C 0.14701 0.60064 0.05818 0.0
C770 C 0.22838 0.54535 0.01498 0.0
C771 C 0.18733 0.647 0.08537 0.0
H772 H 0.3064 0.60571 0.11415 0.0
H773 H 0.30795 0.65996 0.02358 0.0
H774 H 0.21916 0.58804 0.12126 0.0
H775 H 0.23368 0.55239 0.0968 0.0
H776 H 0.25866 0.57244 0.13191 0.0
H777 H 0.26075 0.65897 0.98837 0.0
H778 H 0.23544 0.61888 0.98622 0.0
H779 H 0.22073 0.6543 0.01091 0.0
H780 H 0.16105 0.52884 0.00935 0.0
H781 H 0.1265 0.61442 0.06899 0.0
H782 H 0.24453 0.53831 0.03561 0.0
H783 H 0.24485 0.56118 0.99821 0.0
H784 H 0.21851 0.52193 -0.00019 0.0
H785 H 0.20214 0.64316 0.10825 0.0
H786 H 0.16356 0.65804 0.09391 0.0
H787 H 0.20276 0.66551 0.07049 0.0
C788 C 0.22472 0.49402 0.56196 0.0
C789 C 0.2151 0.52351 0.57993 0.0
C790 C 0.259 0.48984 0.5547 0.0
C791 C 0.28419 0.51556 0.56612 0.0
C792 C 0.27463 0.54513 0.58471 0.0
C793 C 0.24019 0.54885 0.59117 0.0
C794 C 0.26824 0.45818 0.53443 0.0
C795 C 0.30078 0.57295 0.59767 0.0
C796 C 0.37586 0.49678 0.57439 0.0
C797 C 0.39098 0.51166 0.54599 0.0
C798 C 0.3409 0.49706 0.58084 0.0
C799 C 0.32057 0.51211 0.55805 0.0
C800 C 0.33546 0.52581 0.52855 0.0
C801 C 0.37051 0.52564 0.52301 0.0
C802 C 0.32597 0.48252 0.61275 0.0
C803 C 0.31454 0.54158 0.50336 0.0
H804 H 0.20543 0.47438 0.55313 0.0
H805 H 0.23295 0.57159 0.60527 0.0
H806 H 0.28156 0.46492 0.51047 0.0
H807 H 0.28592 0.44499 0.54916 0.0
H808 H 0.24565 0.44039 0.52777 0.0
H809 H 0.28923 0.59378 0.61277 0.0
H810 H 0.31935 0.56259 0.61391 0.0
H811 H 0.31507 0.58362 0.57584 0.0
H812 H 0.39152 0.48603 0.59232 0.0
H813 H 0.38197 0.53689 0.50082 0.0
H814 H 0.304 0.46394 0.60628 0.0
H815 H 0.3165 0.50302 0.63006 0.0
H816 H 0.34476 0.4699 0.62674 0.0
H817 H 0.29241 0.52388 0.49517 0.0
H818 H 0.32945 0.5486 0.48034 0.0
H819 H 0.30456 0.56468 0.51574 0.0
C820 C 0.93589 0.79651 0.98514 0.0
C821 C 0.96361 0.81983 0.97891 0.0
C822 C 0.94038 0.76243 0.98884 0.0
C823 C 0.97331 0.75132 0.98568 0.0
C824 C 0.00132 0.77464 0.97888 0.0
C825 C 0.99617 0.80867 0.97586 0.0
C826 C 0.90996 0.73842 0.99658 0.0
C827 C 0.03676 0.76366 0.97488 0.0
C828 C 0.99237 0.67201 0.02673 0.0
C829 C 0.99018 0.64771 0.99885 0.0
C830 C 0.98643 0.70568 0.02288 0.0
C831 C 0.97863 0.71545 0.99024 0.0
C832 C 0.97637 0.69108 0.96197 0.0
C833 C 0.9819 0.65742 0.96666 0.0
C834 C 0.98856 0.73082 0.05375 0.0
C835 C 0.96859 0.70066 0.92668 0.0
H836 H 0.91067 0.805 0.98764 0.0
H837 H 0.01768 0.82651 0.97082 0.0
H838 H 0.90728 0.71717 0.97657 0.0
H839 H 0.91358 0.7274 0.02122 0.0
H840 H 0.88605 0.75103 0.99813 0.0
H841 H 0.05562 0.78466 0.96843 0.0
H842 H 0.04456 0.75378 0.99891 0.0
H843 H 0.03735 0.74282 0.95449 0.0
H844 H 0.9985 0.66468 0.05174 0.0
H845 H 0.98033 0.63883 0.94496 0.0
H846 H 0.96442 0.74283 0.05723 0.0
H847 H 0.00892 0.75124 0.04987 0.0
H848 H 0.99382 0.71892 0.07754 0.0
H849 H 0.94384 0.71164 0.92691 0.0
H850 H 0.96771 0.6787 0.90738 0.0
H851 H 0.98815 0.72031 0.91865 0.0
C852 C 0.51376 0.74374 0.12277 0.0
C853 C 0.48655 0.71847 0.12066 0.0
C854 C 0.50876 0.7778 0.12026 0.0
C855 C 0.47567 0.7871 0.11538 0.0
C856 C 0.4479 0.76205 0.11411 0.0
C857 C 0.45367 0.72806 0.11688 0.0
C858 C 0.53913 0.80375 0.12187 0.0
C859 C 0.41224 0.77104 0.10895 0.0
C860 C 0.46871 0.88144 0.13124 0.0
C861 C 0.47573 0.89217 0.09849 0.0
C862 C 0.4665 0.8469 0.13699 0.0
C863 C 0.47097 0.82274 0.10923 0.0
C864 C 0.47536 0.83339 0.07577 0.0
C865 C 0.47794 0.86798 0.07086 0.0
C866 C 0.4619 0.83654 0.17305 0.0
C867 C 0.47967 0.80846 0.04538 0.0
H868 H 0.53933 0.73693 0.12595 0.0
H869 H 0.43235 0.70928 0.11574 0.0
H870 H 0.54261 0.81515 0.097 0.0
H871 H 0.53496 0.82447 0.14159 0.0
H872 H 0.56288 0.79268 0.12782 0.0
H873 H 0.39315 0.74899 0.1107 0.0
H874 H 0.40588 0.79136 0.12827 0.0
H875 H 0.41032 0.78092 0.08347 0.0
H876 H 0.46705 0.90009 0.15267 0.0
H877 H 0.48292 0.87618 0.04541 0.0
H878 H 0.48627 0.82903 0.18217 0.0
H879 H 0.44293 0.81436 0.17405 0.0
H880 H 0.45377 0.8574 0.19084 0.0
H881 H 0.50458 0.79801 0.04678 0.0
H882 H 0.47851 0.82031 0.02078 0.0
H883 H 0.45979 0.78697 0.04555 0.0
C884 C 0.07006 0.29604 0.65434 0.0
C885 C 0.05761 0.31671 0.63099 0.0
C886 C 0.06547 0.26066 0.64909 0.0
C887 C 0.04808 0.24563 0.61978 0.0
C888 C 0.03509 0.26635 0.59637 0.0
C889 C 0.03998 0.30161 0.60227 0.0
C890 C 0.0796 0.23935 0.67464 0.0
C891 C 0.01641 0.25126 0.56479 0.0
C892 C 0.06391 0.15682 0.58513 0.0
C893 C 0.0347 0.13782 0.59615 0.0
C894 C 0.0689 0.19181 0.59327 0.0
C895 C 0.04414 0.20825 0.61297 0.0
C896 C 0.01499 0.18919 0.62485 0.0
C897 C 0.01059 0.15421 0.61628 0.0
C898 C 0.10033 0.21129 0.58012 0.0
C899 C 0.98809 0.20585 0.64602 0.0
H900 H 0.08366 0.3075 0.67663 0.0
H901 H 0.03022 0.31734 0.58411 0.0
H902 H 0.05913 0.22158 0.6844 0.0
H903 H 0.09884 0.22389 0.66204 0.0
H904 H 0.09156 0.25491 0.69666 0.0
H905 H 0.00724 0.27087 0.54952 0.0
H906 H 0.03334 0.23603 0.54841 0.0
H907 H 0.99435 0.23398 0.57206 0.0
H908 H 0.08275 0.14446 0.56964 0.0
H909 H 0.988 0.13979 0.62504 0.0
H910 H 0.11417 0.22582 0.60161 0.0
H911 H 0.09305 0.2298 0.56249 0.0
H912 H 0.11782 0.19454 0.56634 0.0
H913 H 0.99964 0.22045 0.66875 0.0
H914 H 0.96777 0.18724 0.65471 0.0
H915 H 0.97639 0.224 0.63083 0.0
C916 C 0.55943 0.24151 0.47296 0.0
C917 C 0.5342 0.22226 0.45345 0.0
C918 C 0.5566 0.27573 0.48288 0.0
C919 C 0.52796 0.29121 0.47286 0.0
C920 C 0.50239 0.27197 0.45319 0.0
C921 C 0.50576 0.23769 0.44381 0.0
C922 C 0.58436 0.29538 0.50396 0.0
C923 C 0.47161 0.28769 0.44181 0.0
C924 C 0.50806 0.37325 0.52201 0.0
C925 C 0.52288 0.39748 0.50086 0.0
C926 C 0.50923 0.33852 0.51309 0.0
C927 C 0.52536 0.3278 0.48219 0.0
C928 C 0.53986 0.35211 0.4605 0.0
C929 C 0.53856 0.38659 0.47014 0.0
C930 C 0.49367 0.31331 0.53696 0.0
C931 C 0.55708 0.34169 0.42722 0.0
H932 H 0.58143 0.2298 0.48067 0.0
H933 H 0.48615 0.22303 0.42873 0.0
H934 H 0.59612 0.31657 0.48979 0.0
H935 H 0.57355 0.30656 0.52802 0.0
H936 H 0.60452 0.27938 0.51044 0.0
H937 H 0.45376 0.26916 0.42706 0.0
H938 H 0.45795 0.29858 0.46433 0.0
H939 H 0.47961 0.30872 0.42567 0.0
H940 H 0.49593 0.38139 0.54579 0.0
H941 H 0.5499 0.40506 0.45347 0.0
H942 H 0.51349 0.29816 0.54582 0.0
H943 H 0.47443 0.29546 0.52331 0.0
H944 H 0.48142 0.32571 0.55965 0.0
H945 H 0.5791 0.32757 0.43228 0.0
H946 H 0.56611 0.3637 0.41271 0.0
H947 H 0.53934 0.3245 0.41096 0.0
loop_
_geom_bond_atom_site_label_1
_geom_bond_atom_site_label_2
_geom_bond_distance
_geom_bond_site_symmetry_2
_ccdc_geom_bond_type
O0 Cd1 2.300 . S
O0 C7 1.275 . S
Cd1 O0 2.300 . S
Cd1 O9 2.381 . S
Cd1 O10 2.378 . S
O2 Cd3 2.385 . S
O2 C7 1.255 . S
Cd3 O2 2.385 . S
Cd3 O4 2.317 . S
O4 Cd3 2.317 . S
O4 C5 1.232 . S
C5 O4 1.232 . S
C5 O6 1.218 . S
O6 C5 1.218 . S
C7 O0 1.275 . S
C7 O2 1.255 . S
C8 O9 1.258 . S
C8 O10 1.256 . S
O9 Cd1 2.381 . S
O9 C8 1.258 . S
O10 Cd1 2.378 . S
O10 C8 1.256 . S
O11 Cd12 2.300 . S
O11 C18 1.275 . S
Cd12 O11 2.300 . S
Cd12 O20 2.381 . S
Cd12 O21 2.378 . S
O13 Cd14 2.385 . S
O13 C18 1.255 . S
Cd14 O13 2.385 . S
Cd14 O15 2.317 . S
O15 Cd14 2.317 . S
O15 C16 1.232 . S
C16 O15 1.232 . S
C16 O17 1.218 . S
O17 C16 1.218 . S
C18 O11 1.275 . S
C18 O13 1.255 . S
C19 O20 1.258 . S
C19 O21 1.256 . S
O20 Cd12 2.381 . S
O20 C19 1.258 . S
O21 Cd12 2.378 . S
O21 C19 1.256 . S
O22 Cd23 2.300 . S
O22 C29 1.275 . S
Cd23 O22 2.300 . S
Cd23 O31 2.381 . S
Cd23 O32 2.378 . S
O24 Cd25 2.385 . S
O24 C29 1.255 . S
Cd25 O24 2.385 . S
Cd25 O26 2.317 . S
O26 Cd25 2.317 . S
O26 C27 1.232 . S
C27 O26 1.232 . S
C27 O28 1.218 . S
O28 C27 1.218 . S
C29 O22 1.275 . S
C29 O24 1.255 . S
C30 O31 1.258 . S
C30 O32 1.256 . S
O31 Cd23 2.381 . S
O31 C30 1.258 . S
O32 Cd23 2.378 . S
O32 C30 1.256 . S
O33 Cd34 2.300 . S
O33 C40 1.275 . S
Cd34 O33 2.300 . S
Cd34 O42 2.381 . S
Cd34 O43 2.378 . S
O35 Cd36 2.385 . S
O35 C40 1.255 . S
Cd36 O35 2.385 . S
Cd36 O37 2.317 . S
O37 Cd36 2.317 . S
O37 C38 1.232 . S
C38 O37 1.232 . S
C38 O39 1.218 . S
O39 C38 1.218 . S
C40 O33 1.275 . S
C40 O35 1.255 . S
C41 O42 1.258 . S
C41 O43 1.256 . S
O42 Cd34 2.381 . S
O42 C41 1.258 . S
O43 Cd34 2.378 . S
O43 C41 1.256 . S
O44 Cd45 2.300 . S
O44 C51 1.275 . S
Cd45 O44 2.300 . S
Cd45 O53 2.381 . S
Cd45 O54 2.378 1_556 S
O46 Cd47 2.385 1_565 S
O46 C51 1.255 . S
Cd47 O46 2.385 1_545 S
Cd47 O48 2.319 1_545 S
O48 Cd47 2.319 1_565 S
O48 C49 1.256 . S
C49 O48 1.256 . S
C49 O50 1.191 1_565 S
O50 C49 1.191 1_545 S
C51 O44 1.275 . S
C51 O46 1.255 . S
C52 O53 1.258 . S
C52 O54 1.256 1_556 S
O53 Cd45 2.381 . S
O53 C52 1.258 . S
O54 Cd45 2.378 1_554 S
O54 C52 1.256 1_554 S
O55 Cd56 2.300 . S
O55 C62 1.275 . S
Cd56 O55 2.300 . S
Cd56 O64 2.381 . S
Cd56 O65 2.378 . S
O57 Cd58 2.385 . S
O57 C62 1.255 . S
Cd58 O57 2.385 . S
Cd58 O59 2.317 . S
O59 Cd58 2.317 . S
O59 C60 1.232 . S
C60 O59 1.232 . S
C60 O61 1.218 . S
O61 C60 1.218 . S
C62 O55 1.275 . S
C62 O57 1.255 . S
C63 O64 1.258 . S
C63 O65 1.256 . S
O64 Cd56 2.381 . S
O64 C63 1.258 . S
O65 Cd56 2.378 . S
O65 C63 1.256 . S
O66 Cd67 2.300 . S
O66 C73 1.275 . S
Cd67 O66 2.300 . S
Cd67 O75 2.381 . S
Cd67 O76 2.378 . S
O68 Cd69 2.385 . S
O68 C73 1.255 . S
Cd69 O68 2.385 . S
Cd69 O70 2.317 . S
O70 Cd69 2.317 . S
O70 C71 1.232 . S
C71 O70 1.232 . S
C71 O72 1.218 . S
O72 C71 1.218 . S
C73 O66 1.275 . S
C73 O68 1.255 . S
C74 O75 1.258 . S
C74 O76 1.256 . S
O75 Cd67 2.381 . S
O75 C74 1.258 . S
O76 Cd67 2.378 . S
O76 C74 1.256 . S
O77 Cd78 2.300 . S
O77 C84 1.275 . S
Cd78 O77 2.300 . S
Cd78 O86 2.381 . S
Cd78 O87 2.378 . S
O79 Cd80 2.385 . S
O79 C84 1.255 . S
Cd80 O79 2.385 . S
Cd80 O81 2.317 . S
O81 Cd80 2.317 . S
O81 C82 1.232 . S
C82 O81 1.232 . S
C82 O83 1.218 . S
O83 C82 1.218 . S
C84 O77 1.275 . S
C84 O79 1.255 . S
C85 O86 1.258 . S
C85 O87 1.256 . S
O86 Cd78 2.381 . S
O86 C85 1.258 . S
O87 Cd78 2.378 . S
O87 C85 1.256 . S
O88 Zn89 1.953 . S
O88 C104 1.225 1_655 S
Zn89 O88 1.953 . S
Zn89 O90 1.949 1_655 S
Zn89 O96 1.919 . S
Zn89 O101 1.924 . S
O90 Zn89 1.949 1_455 S
O90 Zn91 1.923 1_445 S
O90 Zn92 1.950 . S
O90 Zn93 1.945 1_545 S
Zn91 O90 1.923 1_665 S
Zn91 O94 1.933 . S
Zn91 O97 1.941 1_565 S
Zn91 O98 1.965 1_665 S
Zn92 O90 1.950 . S
Zn92 O99 1.938 . S
Zn92 O100 1.906 . S
Zn92 O110 1.953 . S
Zn93 O90 1.945 1_565 S
Zn93 O95 1.932 1_455 S
Zn93 O102 1.977 . S
Zn93 O103 1.910 1_455 S
O94 Zn91 1.933 . S
O94 C105 1.226 . S
O95 Zn93 1.932 1_655 S
O95 C105 1.307 . S
O96 Zn89 1.919 . S
O96 C107 1.253 . S
O97 Zn91 1.941 1_545 S
O97 C107 1.283 . S
O98 Zn91 1.965 1_445 S
O98 C106 1.303 . S
O99 Zn92 1.938 . S
O99 C106 1.247 . S
O100 Zn92 1.906 . S
O100 C108 1.304 1_545 S
O101 Zn89 1.924 . S
O101 C109 1.311 . S
O102 Zn93 1.977 . S
O102 C108 1.272 . S
O103 Zn93 1.910 1_655 S
O103 C109 1.231 1_565 S
C104 O88 1.225 1_455 S
C104 O110 1.298 . S
C105 O94 1.226 . S
C105 O95 1.307 . S
C106 O98 1.303 . S
C106 O99 1.247 . S
C107 O96 1.253 . S
C107 O97 1.283 . S
C108 O100 1.304 1_565 S
C108 O102 1.272 . S
C109 O101 1.311 . S
C109 O103 1.231 1_545 S
O110 Zn92 1.953 . S
O110 C104 1.298 . S
O111 Zn112 1.953 . S
O111 C127 1.225 . S
Zn112 O111 1.953 . S
Zn112 O113 1.949 . S
Zn112 O119 1.919 1_554 S
Zn112 O124 1.924 . S
O113 Zn112 1.949 . S
O113 Zn114 1.923 1_545 S
O113 Zn115 1.950 . S
O113 Zn116 1.945 . S
Zn114 O113 1.923 1_565 S
Zn114 O117 1.933 . S
Zn114 O120 1.936 1_554 S
Zn114 O121 1.965 . S
Zn115 O113 1.950 . S
Zn115 O122 1.938 . S
Zn115 O123 1.906 . S
Zn115 O133 1.953 . S
Zn116 O113 1.945 . S
Zn116 O118 1.932 1_545 S
Zn116 O125 1.977 . S
Zn116 O126 1.910 . S
O117 Zn114 1.933 . S
O117 C128 1.226 . S
O118 Zn116 1.932 1_565 S
O118 C128 1.307 . S
O119 Zn112 1.919 1_556 S
O119 C130 1.253 1_545 S
O120 Zn114 1.936 1_556 S
O120 C130 1.286 . S
O121 Zn114 1.965 . S
O121 C129 1.303 1_565 S
O122 Zn115 1.938 . S
O122 C129 1.247 . S
O123 Zn115 1.906 . S
O123 C131 1.304 . S
O124 Zn112 1.924 . S
O124 C132 1.311 . S
O125 Zn116 1.977 . S
O125 C131 1.272 . S
O126 Zn116 1.910 . S
O126 C132 1.231 . S
C127 O111 1.225 . S
C127 O133 1.298 . S
C128 O117 1.226 . S
C128 O118 1.307 . S
C129 O121 1.303 1_545 S
C129 O122 1.247 . S
C130 O119 1.253 1_565 S
C130 O120 1.286 . S
C131 O123 1.304 . S
C131 O125 1.272 . S
C132 O124 1.311 . S
C132 O126 1.231 . S
O133 Zn115 1.953 . S
O133 C127 1.298 . S
O134 Zn135 1.953 . S
O134 C150 1.225 . S
Zn135 O134 1.953 . S
Zn135 O136 1.949 . S
Zn135 O142 1.919 . S
Zn135 O147 1.924 . S
O136 Zn135 1.949 . S
O136 Zn137 1.923 . S
O136 Zn138 1.950 . S
O136 Zn139 1.945 . S
Zn137 O136 1.923 . S
Zn137 O140 1.933 . S
Zn137 O143 1.941 . S
Zn137 O144 1.965 . S
Zn138 O136 1.950 . S
Zn138 O145 1.938 . S
Zn138 O146 1.906 . S
Zn138 O156 1.953 . S
Zn139 O136 1.945 . S
Zn139 O141 1.932 . S
Zn139 O148 1.977 . S
Zn139 O149 1.910 . S
O140 Zn137 1.933 . S
O140 C151 1.226 . S
O141 Zn139 1.932 . S
O141 C151 1.307 . S
O142 Zn135 1.919 . S
O142 C153 1.253 . S
O143 Zn137 1.941 . S
O143 C153 1.283 . S
O144 Zn137 1.965 . S
O144 C152 1.303 . S
O145 Zn138 1.938 . S
O145 C152 1.247 . S
O146 Zn138 1.906 . S
O146 C154 1.304 . S
O147 Zn135 1.924 . S
O147 C155 1.311 . S
O148 Zn139 1.977 . S
O148 C154 1.272 . S
O149 Zn139 1.910 . S
O149 C155 1.231 . S
C150 O134 1.225 . S
C150 O156 1.298 . S
C151 O140 1.226 . S
C151 O141 1.307 . S
C152 O144 1.303 . S
C152 O145 1.247 . S
C153 O142 1.253 . S
C153 O143 1.283 . S
C154 O146 1.304 . S
C154 O148 1.272 . S
C155 O147 1.311 . S
C155 O149 1.231 . S
O156 Zn138 1.953 . S
O156 C150 1.298 . S
O157 Zn158 1.953 . S
O157 C173 1.226 . S
Zn158 O157 1.953 . S
Zn158 O159 1.949 1_655 S
Zn158 O165 1.919 . S
Zn158 O170 1.924 1_655 S
O159 Zn158 1.949 1_455 S
O159 Zn160 1.923 1_554 S
O159 Zn161 1.950 . S
O159 Zn162 1.945 1_554 S
Zn160 O159 1.923 1_556 S
Zn160 O163 1.933 . S
Zn160 O166 1.941 1_455 S
Zn160 O167 1.965 . S
Zn161 O159 1.950 . S
Zn161 O168 1.938 . S
Zn161 O169 1.906 . S
Zn161 O179 1.953 . S
Zn162 O159 1.945 1_556 S
Zn162 O164 1.932 . S
Zn162 O171 1.977 1_556 S
Zn162 O172 1.910 1_556 S
O163 Zn160 1.933 . S
O163 C174 1.226 . S
O164 Zn162 1.932 . S
O164 C174 1.307 . S
O165 Zn158 1.919 . S
O165 C176 1.253 1_554 S
O166 Zn160 1.941 1_655 S
O166 C176 1.283 . S
O167 Zn160 1.965 . S
O167 C175 1.303 . S
O168 Zn161 1.938 . S
O168 C175 1.247 1_554 S
O169 Zn161 1.906 . S
O169 C177 1.304 . S
O170 Zn158 1.924 1_455 S
O170 C178 1.311 . S
O171 Zn162 1.977 1_554 S
O171 C177 1.272 . S
O172 Zn162 1.910 1_554 S
O172 C178 1.231 . S
C173 O157 1.226 . S
C173 O179 1.297 1_655 S
C174 O163 1.226 . S
C174 O164 1.307 . S
C175 O167 1.303 . S
C175 O168 1.247 1_556 S
C176 O165 1.253 1_556 S
C176 O166 1.283 . S
C177 O169 1.304 . S
C177 O171 1.272 . S
C178 O170 1.311 . S
C178 O172 1.231 . S
O179 Zn161 1.953 . S
O179 C173 1.297 1_455 S
C180 C181 1.391 . S
C180 C182 1.394 . S
C180 H196 0.931 . S
C181 C180 1.391 . S
C181 C185 1.376 . S
C182 C180 1.394 . S
C182 C183 1.369 . S
C182 C186 1.531 . S
C183 C182 1.369 . S
C183 C184 1.410 . S
C183 C191 1.503 . S
C184 C183 1.410 . S
C184 C185 1.392 . S
C184 C187 1.511 . S
C185 C181 1.376 . S
C185 C184 1.392 . S
C185 H197 0.929 . S
C186 C182 1.531 . S
C186 H198 0.960 . S
C186 H199 0.962 . S
C186 H200 0.960 . S
C187 C184 1.511 . S
C187 H201 0.961 . S
C187 H202 0.961 . S
C187 H203 0.961 . S
C188 C189 1.370 . S
C188 C190 1.363 . S
C188 H204 0.931 . S
C189 C188 1.370 . S
C189 C193 1.408 . S
C190 C188 1.363 . S
C190 C191 1.370 . S
C190 C194 1.524 . S
C191 C183 1.503 . S
C191 C190 1.370 . S
C191 C192 1.403 . S
C192 C191 1.403 . S
C192 C193 1.404 . S
C192 C195 1.539 . S
C193 C189 1.408 . S
C193 C192 1.404 . S
C193 H205 0.930 . S
C194 C190 1.524 . S
C194 H206 0.956 . S
C194 H207 0.961 . S
C194 H208 0.961 1_455 S
C195 C192 1.539 . S
C195 H209 0.958 . S
C195 H210 0.961 . S
C195 H211 0.960 . S
H196 C180 0.931 . S
H197 C185 0.929 . S
H198 C186 0.960 . S
H199 C186 0.962 . S
H200 C186 0.960 . S
H201 C187 0.961 . S
H202 C187 0.961 . S
H203 C187 0.961 . S
H204 C188 0.931 . S
H205 C193 0.930 . S
H206 C194 0.956 . S
H207 C194 0.961 . S
H208 C194 0.961 1_655 S
H209 C195 0.958 . S
H210 C195 0.961 . S
H211 C195 0.960 . S
C212 C213 1.391 . S
C212 C214 1.394 . S
C212 H228 0.931 . S
C213 C212 1.391 . S
C213 C217 1.376 . S
C214 C212 1.394 . S
C214 C215 1.369 . S
C214 C218 1.531 . S
C215 C214 1.369 . S
C215 C216 1.410 . S
C215 C223 1.503 . S
C216 C215 1.410 . S
C216 C217 1.392 . S
C216 C219 1.511 . S
C217 C213 1.376 . S
C217 C216 1.392 . S
C217 H229 0.929 . S
C218 C214 1.531 . S
C218 H230 0.960 . S
C218 H231 0.962 . S
C218 H232 0.960 . S
C219 C216 1.511 . S
C219 H233 0.961 . S
C219 H234 0.961 . S
C219 H235 0.961 1_565 S
C220 C221 1.370 . S
C220 C222 1.363 . S
C220 H236 0.931 . S
C221 C220 1.370 . S
C221 C225 1.408 1_565 S
C222 C220 1.363 . S
C222 C223 1.370 . S
C222 C226 1.524 . S
C223 C215 1.503 . S
C223 C222 1.370 . S
C223 C224 1.403 . S
C224 C223 1.403 . S
C224 C225 1.404 1_565 S
C224 C227 1.539 1_565 S
C225 C221 1.408 1_545 S
C225 C224 1.404 1_545 S
C225 H237 0.930 . S
C226 C222 1.524 . S
C226 H238 0.956 . S
C226 H239 0.961 . S
C226 H240 0.961 . S
C227 C224 1.539 1_545 S
C227 H241 0.958 . S
C227 H242 0.961 . S
C227 H243 0.960 . S
H228 C212 0.931 . S
H229 C217 0.929 . S
H230 C218 0.960 . S
H231 C218 0.962 . S
H232 C218 0.960 . S
H233 C219 0.961 . S
H234 C219 0.961 . S
H235 C219 0.961 1_545 S
H236 C220 0.931 . S
H237 C225 0.930 . S
H238 C226 0.956 . S
H239 C226 0.961 . S
H240 C226 0.961 . S
H241 C227 0.958 . S
H242 C227 0.961 . S
H243 C227 0.960 . S
C244 C245 1.391 . S
C244 C246 1.394 . S
C244 H260 0.931 . S
C245 C244 1.391 . S
C245 C249 1.376 . S
C246 C244 1.394 . S
C246 C247 1.369 . S
C246 C250 1.531 . S
C247 C246 1.369 . S
C247 C248 1.410 . S
C247 C255 1.503 . S
C248 C247 1.410 . S
C248 C249 1.392 . S
C248 C251 1.511 . S
C249 C245 1.376 . S
C249 C248 1.392 . S
C249 H261 0.929 . S
C250 C246 1.531 . S
C250 H262 0.960 . S
C250 H263 0.962 . S
C250 H264 0.960 . S
C251 C248 1.511 . S
C251 H265 0.961 . S
C251 H266 0.961 . S
C251 H267 0.961 . S
C252 C253 1.370 . S
C252 C254 1.363 . S
C252 H268 0.931 . S
C253 C252 1.370 . S
C253 C257 1.408 . S
C254 C252 1.363 . S
C254 C255 1.370 . S
C254 C258 1.524 . S
C255 C247 1.503 . S
C255 C254 1.370 . S
C255 C256 1.403 . S
C256 C255 1.403 . S
C256 C257 1.404 . S
C256 C259 1.539 . S
C257 C253 1.408 . S
C257 C256 1.404 . S
C257 H269 0.930 . S
C258 C254 1.524 . S
C258 H270 0.956 . S
C258 H271 0.961 . S
C258 H272 0.961 . S
C259 C256 1.539 . S
C259 H273 0.958 . S
C259 H274 0.961 . S
C259 H275 0.960 . S
H260 C244 0.931 . S
H261 C249 0.929 . S
H262 C250 0.960 . S
H263 C250 0.962 . S
H264 C250 0.960 . S
H265 C251 0.961 . S
H266 C251 0.961 . S
H267 C251 0.961 . S
H268 C252 0.931 . S
H269 C257 0.930 . S
H270 C258 0.956 . S
H271 C258 0.961 . S
H272 C258 0.961 . S
H273 C259 0.958 . S
H274 C259 0.961 . S
H275 C259 0.960 . S
C276 C277 1.391 . S
C276 C278 1.394 . S
C276 H292 0.931 1_655 S
C277 C276 1.391 . S
C277 C281 1.376 . S
C278 C276 1.394 . S
C278 C279 1.369 . S
C278 C282 1.531 1_655 S
C279 C278 1.369 . S
C279 C280 1.410 . S
C279 C287 1.503 . S
C280 C279 1.410 . S
C280 C281 1.392 . S
C280 C283 1.511 . S
C281 C277 1.376 . S
C281 C280 1.392 . S
C281 H293 0.929 . S
C282 C278 1.531 1_455 S
C282 H294 0.960 . S
C282 H295 0.962 . S
C282 H296 0.960 . S
C283 C280 1.511 . S
C283 H297 0.961 . S
C283 H298 0.961 . S
C283 H299 0.961 . S
C284 C285 1.371 . S
C284 C286 1.365 . S
C284 H300 0.928 1_655 S
C285 C284 1.371 . S
C285 C289 1.408 . S
C286 C284 1.365 . S
C286 C287 1.370 . S
C286 C290 1.523 1_655 S
C287 C279 1.503 . S
C287 C286 1.370 . S
C287 C288 1.403 . S
C288 C287 1.403 . S
C288 C289 1.404 . S
C288 C291 1.539 . S
C289 C285 1.408 . S
C289 C288 1.404 . S
C289 H301 0.930 . S
C290 C286 1.523 1_455 S
C290 H302 0.963 . S
C290 H303 0.953 1_455 S
C290 H304 0.962 . S
C291 C288 1.539 . S
C291 H305 0.958 . S
C291 H306 0.961 . S
C291 H307 0.960 . S
H292 C276 0.931 1_455 S
H293 C281 0.929 . S
H294 C282 0.960 . S
H295 C282 0.962 . S
H296 C282 0.960 . S
H297 C283 0.961 . S
H298 C283 0.961 . S
H299 C283 0.961 . S
H300 C284 0.928 1_455 S
H301 C289 0.930 . S
H302 C290 0.963 . S
H303 C290 0.953 1_655 S
H304 C290 0.962 . S
H305 C291 0.958 . S
H306 C291 0.961 . S
H307 C291 0.960 . S
C308 C309 1.391 . S
C308 C310 1.394 . S
C308 H324 0.931 . S
C309 C308 1.391 . S
C309 C313 1.376 . S
C310 C308 1.394 . S
C310 C311 1.369 . S
C310 C314 1.531 . S
C311 C310 1.369 . S
C311 C312 1.410 . S
C311 C319 1.503 . S
C312 C311 1.410 . S
C312 C313 1.392 . S
C312 C315 1.511 . S
C313 C309 1.376 . S
C313 C312 1.392 . S
C313 H325 0.929 . S
C314 C310 1.531 . S
C314 H326 0.960 . S
C314 H327 0.962 . S
C314 H328 0.960 . S
C315 C312 1.511 . S
C315 H329 0.961 . S
C315 H330 0.961 . S
C315 H331 0.961 . S
C316 C317 1.370 . S
C316 C318 1.363 . S
C316 H332 0.931 . S
C317 C316 1.370 . S
C317 C321 1.408 . S
C318 C316 1.363 . S
C318 C319 1.370 . S
C318 C322 1.524 . S
C319 C311 1.503 . S
C319 C318 1.370 . S
C319 C320 1.403 . S
C320 C319 1.403 . S
C320 C321 1.404 . S
C320 C323 1.539 . S
C321 C317 1.408 . S
C321 C320 1.404 . S
C321 H333 0.930 . S
C322 C318 1.524 . S
C322 H334 0.956 . S
C322 H335 0.961 . S
C322 H336 0.961 . S
C323 C320 1.539 . S
C323 H337 0.958 . S
C323 H338 0.961 . S
C323 H339 0.960 . S
H324 C308 0.931 . S
H325 C313 0.929 . S
H326 C314 0.960 . S
H327 C314 0.962 . S
H328 C314 0.960 . S
H329 C315 0.961 . S
H330 C315 0.961 . S
H331 C315 0.961 . S
H332 C316 0.931 . S
H333 C321 0.930 . S
H334 C322 0.956 . S
H335 C322 0.961 . S
H336 C322 0.961 . S
H337 C323 0.958 . S
H338 C323 0.961 . S
H339 C323 0.960 . S
C340 C341 1.391 . S
C340 C342 1.394 . S
C340 H356 0.931 . S
C341 C340 1.391 . S
C341 C345 1.376 . S
C342 C340 1.394 . S
C342 C343 1.369 . S
C342 C346 1.531 . S
C343 C342 1.369 . S
C343 C344 1.410 . S
C343 C351 1.503 . S
C344 C343 1.410 . S
C344 C345 1.392 . S
C344 C347 1.511 . S
C345 C341 1.376 . S
C345 C344 1.392 . S
C345 H357 0.929 . S
C346 C342 1.531 . S
C346 H358 0.960 . S
C346 H359 0.962 . S
C346 H360 0.960 . S
C347 C344 1.511 . S
C347 H361 0.961 . S
C347 H362 0.961 . S
C347 H363 0.961 . S
C348 C349 1.370 . S
C348 C350 1.363 . S
C348 H364 0.931 . S
C349 C348 1.370 . S
C349 C353 1.408 . S
C350 C348 1.363 . S
C350 C351 1.370 . S
C350 C354 1.524 . S
C351 C343 1.503 . S
C351 C350 1.370 . S
C351 C352 1.403 . S
C352 C351 1.403 . S
C352 C353 1.404 . S
C352 C355 1.539 1_565 S
C353 C349 1.408 . S
C353 C352 1.404 . S
C353 H365 0.930 1_565 S
C354 C350 1.524 . S
C354 H366 0.956 . S
C354 H367 0.961 . S
C354 H368 0.961 . S
C355 C352 1.539 1_545 S
C355 H369 0.958 . S
C355 H370 0.961 . S
C355 H371 0.960 . S
H356 C340 0.931 . S
H357 C345 0.929 . S
H358 C346 0.960 . S
H359 C346 0.962 . S
H360 C346 0.960 . S
H361 C347 0.961 . S
H362 C347 0.961 . S
H363 C347 0.961 . S
H364 C348 0.931 . S
H365 C353 0.930 1_545 S
H366 C354 0.956 . S
H367 C354 0.961 . S
H368 C354 0.961 . S
H369 C355 0.958 . S
H370 C355 0.961 . S
H371 C355 0.960 . S
C372 C373 1.391 . S
C372 C374 1.394 . S
C372 H388 0.931 . S
C373 C372 1.391 . S
C373 C377 1.376 . S
C374 C372 1.394 . S
C374 C375 1.369 . S
C374 C378 1.531 . S
C375 C374 1.369 . S
C375 C376 1.410 . S
C375 C383 1.503 . S
C376 C375 1.410 . S
C376 C377 1.392 . S
C376 C379 1.511 . S
C377 C373 1.376 . S
C377 C376 1.392 . S
C377 H389 0.929 . S
C378 C374 1.531 . S
C378 H390 0.960 . S
C378 H391 0.962 . S
C378 H392 0.960 . S
C379 C376 1.511 . S
C379 H393 0.961 1_556 S
C379 H394 0.961 . S
C379 H395 0.961 . S
C380 C381 1.370 . S
C380 C382 1.363 . S
C380 H396 0.931 1_556 S
C381 C380 1.370 . S
C381 C385 1.408 . S
C382 C380 1.363 . S
C382 C383 1.370 . S
C382 C386 1.524 1_556 S
C383 C375 1.503 . S
C383 C382 1.370 . S
C383 C384 1.403 . S
C384 C383 1.403 . S
C384 C385 1.404 . S
C384 C387 1.539 . S
C385 C381 1.408 . S
C385 C384 1.404 . S
C385 H397 0.930 . S
C386 C382 1.524 1_554 S
C386 H398 0.956 1_554 S
C386 H399 0.961 . S
C386 H400 0.961 . S
C387 C384 1.539 . S
C387 H401 0.958 . S
C387 H402 0.961 . S
C387 H403 0.960 . S
H388 C372 0.931 . S
H389 C377 0.929 . S
H390 C378 0.960 . S
H391 C378 0.962 . S
H392 C378 0.960 . S
H393 C379 0.961 1_554 S
H394 C379 0.961 . S
H395 C379 0.961 . S
H396 C380 0.931 1_554 S
H397 C385 0.930 . S
H398 C386 0.956 1_556 S
H399 C386 0.961 . S
H400 C386 0.961 . S
H401 C387 0.958 . S
H402 C387 0.961 . S
H403 C387 0.960 . S
C404 C405 1.391 . S
C404 C406 1.394 . S
C404 H420 0.931 . S
C405 C404 1.391 . S
C405 C409 1.376 . S
C406 C404 1.394 . S
C406 C407 1.369 . S
C406 C410 1.531 . S
C407 C406 1.369 . S
C407 C408 1.410 . S
C407 C415 1.503 . S
C408 C407 1.410 . S
C408 C409 1.392 . S
C408 C411 1.511 . S
C409 C405 1.376 . S
C409 C408 1.392 . S
C409 H421 0.929 . S
C410 C406 1.531 . S
C410 H422 0.960 . S
C410 H423 0.962 . S
C410 H424 0.960 . S
C411 C408 1.511 . S
C411 H425 0.961 . S
C411 H426 0.961 . S
C411 H427 0.961 . S
C412 C413 1.370 . S
C412 C414 1.363 . S
C412 H428 0.931 . S
C413 C412 1.370 . S
C413 C417 1.408 . S
C414 C412 1.363 . S
C414 C415 1.370 . S
C414 C418 1.524 . S
C415 C407 1.503 . S
C415 C414 1.370 . S
C415 C416 1.403 . S
C416 C415 1.403 . S
C416 C417 1.404 . S
C416 C419 1.539 . S
C417 C413 1.408 . S
C417 C416 1.404 . S
C417 H429 0.930 . S
C418 C414 1.524 . S
C418 H430 0.956 . S
C418 H431 0.961 . S
C418 H432 0.961 . S
C419 C416 1.539 . S
C419 H433 0.958 . S
C419 H434 0.961 . S
C419 H435 0.960 . S
H420 C404 0.931 . S
H421 C409 0.929 . S
H422 C410 0.960 . S
H423 C410 0.962 . S
H424 C410 0.960 . S
H425 C411 0.961 . S
H426 C411 0.961 . S
H427 C411 0.961 . S
H428 C412 0.931 . S
H429 C417 0.930 . S
H430 C418 0.956 . S
H431 C418 0.961 . S
H432 C418 0.961 . S
H433 C419 0.958 . S
H434 C419 0.961 . S
H435 C419 0.960 . S
C436 C437 1.391 . S
C436 C438 1.394 . S
C436 H452 0.931 . S
C437 C436 1.391 . S
C437 C441 1.376 . S
C438 C436 1.394 . S
C438 C439 1.369 . S
C438 C442 1.531 . S
C439 C438 1.369 . S
C439 C440 1.410 . S
C439 C447 1.503 . S
C440 C439 1.410 . S
C440 C441 1.392 . S
C440 C443 1.511 . S
C441 C437 1.376 . S
C441 C440 1.392 . S
C441 H453 0.929 . S
C442 C438 1.531 . S
C442 H454 0.960 . S
C442 H455 0.962 . S
C442 H456 0.960 . S
C443 C440 1.511 . S
C443 H457 0.961 . S
C443 H458 0.961 . S
C443 H459 0.961 . S
C444 C445 1.370 . S
C444 C446 1.363 . S
C444 H460 0.931 . S
C445 C444 1.370 . S
C445 C449 1.408 . S
C446 C444 1.363 . S
C446 C447 1.370 . S
C446 C450 1.524 . S
C447 C439 1.503 . S
C447 C446 1.370 . S
C447 C448 1.403 . S
C448 C447 1.403 . S
C448 C449 1.404 . S
C448 C451 1.539 . S
C449 C445 1.408 . S
C449 C448 1.404 . S
C449 H461 0.930 . S
C450 C446 1.524 . S
C450 H462 0.956 . S
C450 H463 0.961 . S
C450 H464 0.961 . S
C451 C448 1.539 . S
C451 H465 0.958 . S
C451 H466 0.961 . S
C451 H467 0.960 . S
H452 C436 0.931 . S
H453 C441 0.929 . S
H454 C442 0.960 . S
H455 C442 0.962 . S
H456 C442 0.960 . S
H457 C443 0.961 . S
H458 C443 0.961 . S
H459 C443 0.961 . S
H460 C444 0.931 . S
H461 C449 0.930 . S
H462 C450 0.956 . S
H463 C450 0.961 . S
H464 C450 0.961 . S
H465 C451 0.958 . S
H466 C451 0.961 . S
H467 C451 0.960 . S
C468 C469 1.391 . S
C468 C470 1.394 . S
C468 H484 0.931 . S
C469 C468 1.391 . S
C469 C473 1.376 1_556 S
C470 C468 1.394 . S
C470 C471 1.369 1_556 S
C470 C474 1.531 . S
C471 C470 1.369 1_554 S
C471 C472 1.410 . S
C471 C479 1.503 . S
C472 C471 1.410 . S
C472 C473 1.392 . S
C472 C475 1.511 . S
C473 C469 1.376 1_554 S
C473 C472 1.392 . S
C473 H485 0.929 . S
C474 C470 1.531 . S
C474 H486 0.960 . S
C474 H487 0.962 . S
C474 H488 0.960 . S
C475 C472 1.511 . S
C475 H489 0.961 . S
C475 H490 0.961 . S
C475 H491 0.961 . S
C476 C477 1.370 . S
C476 C478 1.363 1_554 S
C476 H492 0.931 1_554 S
C477 C476 1.370 . S
C477 C481 1.408 . S
C478 C476 1.363 1_556 S
C478 C479 1.370 1_556 S
C478 C482 1.524 . S
C479 C471 1.503 . S
C479 C478 1.370 1_554 S
C479 C480 1.403 . S
C480 C479 1.403 . S
C480 C481 1.404 . S
C480 C483 1.539 . S
C481 C477 1.408 . S
C481 C480 1.404 . S
C481 H493 0.930 . S
C482 C478 1.524 . S
C482 H494 0.956 . S
C482 H495 0.961 . S
C482 H496 0.961 . S
C483 C480 1.539 . S
C483 H497 0.958 . S
C483 H498 0.961 . S
C483 H499 0.960 . S
H484 C468 0.931 . S
H485 C473 0.929 . S
H486 C474 0.960 . S
H487 C474 0.962 . S
H488 C474 0.960 . S
H489 C475 0.961 . S
H490 C475 0.961 . S
H491 C475 0.961 . S
H492 C476 0.931 1_556 S
H493 C481 0.930 . S
H494 C482 0.956 . S
H495 C482 0.961 . S
H496 C482 0.961 . S
H497 C483 0.958 . S
H498 C483 0.961 . S
H499 C483 0.960 . S
C500 C501 1.391 . S
C500 C502 1.394 . S
C500 H516 0.931 . S
C501 C500 1.391 . S
C501 C505 1.376 . S
C502 C500 1.394 . S
C502 C503 1.369 . S
C502 C506 1.531 . S
C503 C502 1.369 . S
C503 C504 1.410 . S
C503 C511 1.503 . S
C504 C503 1.410 . S
C504 C505 1.392 . S
C504 C507 1.511 . S
C505 C501 1.376 . S
C505 C504 1.392 . S
C505 H517 0.929 . S
C506 C502 1.531 . S
C506 H518 0.960 1_655 S
C506 H519 0.962 . S
C506 H520 0.960 1_655 S
C507 C504 1.511 . S
C507 H521 0.961 . S
C507 H522 0.961 . S
C507 H523 0.961 . S
C508 C509 1.370 . S
C508 C510 1.363 . S
C508 H524 0.931 . S
C509 C508 1.370 . S
C509 C513 1.408 . S
C510 C508 1.363 . S
C510 C511 1.370 . S
C510 C514 1.524 . S
C511 C503 1.503 . S
C511 C510 1.370 . S
C511 C512 1.403 . S
C512 C511 1.403 . S
C512 C513 1.404 . S
C512 C515 1.539 1_655 S
C513 C509 1.408 . S
C513 C512 1.404 . S
C513 H525 0.930 1_655 S
C514 C510 1.524 . S
C514 H526 0.956 . S
C514 H527 0.961 . S
C514 H528 0.961 . S
C515 C512 1.539 1_455 S
C515 H529 0.958 . S
C515 H530 0.961 . S
C515 H531 0.960 1_455 S
H516 C500 0.931 . S
H517 C505 0.929 . S
H518 C506 0.960 1_455 S
H519 C506 0.962 . S
H520 C506 0.960 1_455 S
H521 C507 0.961 . S
H522 C507 0.961 . S
H523 C507 0.961 . S
H524 C508 0.931 . S
H525 C513 0.930 1_455 S
H526 C514 0.956 . S
H527 C514 0.961 . S
H528 C514 0.961 . S
H529 C515 0.958 . S
H530 C515 0.961 . S
H531 C515 0.960 1_655 S
C532 C533 1.391 . S
C532 C534 1.394 . S
C532 H548 0.931 . S
C533 C532 1.391 . S
C533 C537 1.376 . S
C534 C532 1.394 . S
C534 C535 1.369 . S
C534 C538 1.531 . S
C535 C534 1.369 . S
C535 C536 1.410 . S
C535 C543 1.503 . S
C536 C535 1.410 . S
C536 C537 1.392 . S
C536 C539 1.511 . S
C537 C533 1.376 . S
C537 C536 1.392 . S
C537 H549 0.929 . S
C538 C534 1.531 . S
C538 H550 0.960 . S
C538 H551 0.962 . S
C538 H552 0.960 . S
C539 C536 1.511 . S
C539 H553 0.961 . S
C539 H554 0.961 . S
C539 H555 0.961 . S
C540 C541 1.370 . S
C540 C542 1.363 . S
C540 H556 0.931 . S
C541 C540 1.370 . S
C541 C545 1.408 . S
C542 C540 1.363 . S
C542 C543 1.370 . S
C542 C546 1.524 . S
C543 C535 1.503 . S
C543 C542 1.370 . S
C543 C544 1.403 . S
C544 C543 1.403 . S
C544 C545 1.404 . S
C544 C547 1.539 . S
C545 C541 1.408 . S
C545 C544 1.404 . S
C545 H557 0.930 . S
C546 C542 1.524 . S
C546 H558 0.956 . S
C546 H559 0.961 . S
C546 H560 0.961 . S
C547 C544 1.539 . S
C547 H561 0.958 . S
C547 H562 0.961 . S
C547 H563 0.960 . S
H548 C532 0.931 . S
H549 C537 0.929 . S
H550 C538 0.960 . S
H551 C538 0.962 . S
H552 C538 0.960 . S
H553 C539 0.961 . S
H554 C539 0.961 . S
H555 C539 0.961 . S
H556 C540 0.931 . S
H557 C545 0.930 . S
H558 C546 0.956 . S
H559 C546 0.961 . S
H560 C546 0.961 . S
H561 C547 0.958 . S
H562 C547 0.961 . S
H563 C547 0.960 . S
C564 C565 1.373 1_545 S
C564 C566 1.400 . S
C564 H580 0.943 . S
C565 C564 1.373 1_565 S
C565 C569 1.376 . S
C566 C564 1.400 . S
C566 C567 1.369 1_545 S
C566 C570 1.531 . S
C567 C566 1.369 1_565 S
C567 C568 1.410 . S
C567 C575 1.503 . S
C568 C567 1.410 . S
C568 C569 1.392 . S
C568 C571 1.511 1_655 S
C569 C565 1.376 . S
C569 C568 1.392 . S
C569 H581 0.929 . S
C570 C566 1.531 . S
C570 H582 0.960 . S
C570 H583 0.962 . S
C570 H584 0.960 . S
C571 C568 1.511 1_455 S
C571 H585 0.961 . S
C571 H586 0.961 . S
C571 H587 0.961 . S
C572 C573 1.370 1_565 S
C572 C574 1.363 . S
C572 H588 0.931 . S
C573 C572 1.370 1_545 S
C573 C577 1.408 . S
C574 C572 1.363 . S
C574 C575 1.370 . S
C574 C578 1.524 . S
C575 C567 1.503 . S
C575 C574 1.370 . S
C575 C576 1.403 1_565 S
C576 C575 1.403 1_545 S
C576 C577 1.404 . S
C576 C579 1.539 1_655 S
C577 C573 1.408 . S
C577 C576 1.404 . S
C577 H589 0.930 1_655 S
C578 C574 1.524 . S
C578 H590 0.956 . S
C578 H591 0.961 . S
C578 H592 0.961 . S
C579 C576 1.539 1_455 S
C579 H593 0.958 1_455 S
C579 H594 0.961 . S
C579 H595 0.960 . S
H580 C564 0.943 . S
H581 C569 0.929 . S
H582 C570 0.960 . S
H583 C570 0.962 . S
H584 C570 0.960 . S
H585 C571 0.961 . S
H586 C571 0.961 . S
H587 C571 0.961 . S
H588 C572 0.931 . S
H589 C577 0.930 1_455 S
H590 C578 0.956 . S
H591 C578 0.961 . S
H592 C578 0.961 . S
H593 C579 0.958 1_655 S
H594 C579 0.961 . S
H595 C579 0.960 . S
C596 C597 1.391 . S
C596 C598 1.394 . S
C596 H612 0.931 . S
C597 C596 1.391 . S
C597 C601 1.376 . S
C598 C596 1.394 . S
C598 C599 1.369 . S
C598 C602 1.531 . S
C599 C598 1.369 . S
C599 C600 1.410 . S
C599 C607 1.503 . S
C600 C599 1.410 . S
C600 C601 1.392 . S
C600 C603 1.511 . S
C601 C597 1.376 . S
C601 C600 1.392 . S
C601 H613 0.929 . S
C602 C598 1.531 . S
C602 H614 0.960 . S
C602 H615 0.962 . S
C602 H616 0.960 . S
C603 C600 1.511 . S
C603 H617 0.961 . S
C603 H618 0.961 . S
C603 H619 0.961 . S
C604 C605 1.370 . S
C604 C606 1.363 . S
C604 H620 0.931 . S
C605 C604 1.370 . S
C605 C609 1.408 . S
C606 C604 1.363 . S
C606 C607 1.370 . S
C606 C610 1.524 . S
C607 C599 1.503 . S
C607 C606 1.370 . S
C607 C608 1.403 . S
C608 C607 1.403 . S
C608 C609 1.404 . S
C608 C611 1.539 . S
C609 C605 1.408 . S
C609 C608 1.404 . S
C609 H621 0.930 . S
C610 C606 1.524 . S
C610 H622 0.956 . S
C610 H623 0.961 . S
C610 H624 0.961 1_545 S
C611 C608 1.539 . S
C611 H625 0.958 . S
C611 H626 0.961 . S
C611 H627 0.960 . S
H612 C596 0.931 . S
H613 C601 0.929 . S
H614 C602 0.960 . S
H615 C602 0.962 . S
H616 C602 0.960 . S
H617 C603 0.961 . S
H618 C603 0.961 . S
H619 C603 0.961 . S
H620 C604 0.931 . S
H621 C609 0.930 . S
H622 C610 0.956 . S
H623 C610 0.961 . S
H624 C610 0.961 1_565 S
H625 C611 0.958 . S
H626 C611 0.961 . S
H627 C611 0.960 . S
C628 C629 1.391 . S
C628 C630 1.394 . S
C628 H644 0.931 . S
C629 C628 1.391 . S
C629 C633 1.376 . S
C630 C628 1.394 . S
C630 C631 1.369 . S
C630 C634 1.531 . S
C631 C630 1.369 . S
C631 C632 1.410 . S
C631 C639 1.503 . S
C632 C631 1.410 . S
C632 C633 1.392 . S
C632 C635 1.511 . S
C633 C629 1.376 . S
C633 C632 1.392 . S
C633 H645 0.929 . S
C634 C630 1.531 . S
C634 H646 0.960 . S
C634 H647 0.962 . S
C634 H648 0.960 . S
C635 C632 1.511 . S
C635 H649 0.961 . S
C635 H650 0.961 . S
C635 H651 0.961 . S
C636 C637 1.370 . S
C636 C638 1.363 . S
C636 H652 0.931 . S
C637 C636 1.370 . S
C637 C641 1.408 . S
C638 C636 1.363 . S
C638 C639 1.370 . S
C638 C642 1.524 . S
C639 C631 1.503 . S
C639 C638 1.370 . S
C639 C640 1.403 . S
C640 C639 1.403 . S
C640 C641 1.404 . S
C640 C643 1.539 . S
C641 C637 1.408 . S
C641 C640 1.404 . S
C641 H653 0.930 . S
C642 C638 1.524 . S
C642 H654 0.956 . S
C642 H655 0.961 . S
C642 H656 0.961 . S
C643 C640 1.539 . S
C643 H657 0.958 . S
C643 H658 0.961 . S
C643 H659 0.960 . S
H644 C628 0.931 . S
H645 C633 0.929 . S
H646 C634 0.960 . S
H647 C634 0.962 . S
H648 C634 0.960 . S
H649 C635 0.961 . S
H650 C635 0.961 . S
H651 C635 0.961 . S
H652 C636 0.931 . S
H653 C641 0.930 . S
H654 C642 0.956 . S
H655 C642 0.961 . S
H656 C642 0.961 . S
H657 C643 0.958 . S
H658 C643 0.961 . S
H659 C643 0.960 . S
C660 C661 1.391 . S
C660 C662 1.394 . S
C660 H676 0.931 . S
C661 C660 1.391 . S
C661 C665 1.376 . S
C662 C660 1.394 . S
C662 C663 1.369 . S
C662 C666 1.531 . S
C663 C662 1.369 . S
C663 C664 1.410 . S
C663 C671 1.503 . S
C664 C663 1.410 . S
C664 C665 1.392 . S
C664 C667 1.511 . S
C665 C661 1.376 . S
C665 C664 1.392 . S
C665 H677 0.929 . S
C666 C662 1.531 . S
C666 H678 0.960 . S
C666 H679 0.962 . S
C666 H680 0.960 . S
C667 C664 1.511 . S
C667 H681 0.961 . S
C667 H682 0.961 . S
C667 H683 0.961 . S
C668 C669 1.370 . S
C668 C670 1.363 . S
C668 H684 0.931 . S
C669 C668 1.370 . S
C669 C673 1.408 . S
C670 C668 1.363 . S
C670 C671 1.370 . S
C670 C674 1.524 . S
C671 C663 1.503 . S
C671 C670 1.370 . S
C671 C672 1.403 . S
C672 C671 1.403 . S
C672 C673 1.404 . S
C672 C675 1.539 . S
C673 C669 1.408 . S
C673 C672 1.404 . S
C673 H685 0.930 . S
C674 C670 1.524 . S
C674 H686 0.956 . S
C674 H687 0.961 . S
C674 H688 0.961 . S
C675 C672 1.539 . S
C675 H689 0.958 . S
C675 H690 0.961 1_455 S
C675 H691 0.960 . S
H676 C660 0.931 . S
H677 C665 0.929 . S
H678 C666 0.960 . S
H679 C666 0.962 . S
H680 C666 0.960 . S
H681 C667 0.961 . S
H682 C667 0.961 . S
H683 C667 0.961 . S
H684 C668 0.931 . S
H685 C673 0.930 . S
H686 C674 0.956 . S
H687 C674 0.961 . S
H688 C674 0.961 . S
H689 C675 0.958 . S
H690 C675 0.961 1_655 S
H691 C675 0.960 . S
C692 C693 1.394 . S
C692 C694 1.390 1_556 S
C692 H708 0.932 . S
C693 C692 1.394 . S
C693 C697 1.376 1_566 S
C694 C692 1.390 1_554 S
C694 C695 1.369 1_565 S
C694 C698 1.531 . S
C695 C694 1.369 1_545 S
C695 C696 1.410 . S
C695 C703 1.503 . S
C696 C695 1.410 . S
C696 C697 1.392 . S
C696 C699 1.511 . S
C697 C693 1.376 1_544 S
C697 C696 1.392 . S
C697 H709 0.925 1_554 S
C698 C694 1.531 . S
C698 H710 0.960 . S
C698 H711 0.962 1_554 S
C698 H712 0.960 . S
C699 C696 1.511 . S
C699 H713 0.961 . S
C699 H714 0.961 . S
C699 H715 0.961 . S
C700 C701 1.370 1_556 S
C700 C702 1.363 . S
C700 H716 0.931 . S
C701 C700 1.370 1_554 S
C701 C705 1.408 . S
C702 C700 1.363 . S
C702 C703 1.370 1_556 S
C702 C706 1.524 . S
C703 C695 1.503 . S
C703 C702 1.370 1_554 S
C703 C704 1.403 . S
C704 C703 1.403 . S
C704 C705 1.404 . S
C704 C707 1.539 . S
C705 C701 1.408 . S
C705 C704 1.404 . S
C705 H717 0.930 . S
C706 C702 1.524 . S
C706 H718 0.956 1_545 S
C706 H719 0.961 . S
C706 H720 0.961 . S
C707 C704 1.539 . S
C707 H721 0.958 1_545 S
C707 H722 0.961 . S
C707 H723 0.960 . S
H708 C692 0.932 . S
H709 C697 0.925 1_556 S
H710 C698 0.960 . S
H711 C698 0.962 1_556 S
H712 C698 0.960 . S
H713 C699 0.961 . S
H714 C699 0.961 . S
H715 C699 0.961 . S
H716 C700 0.931 . S
H717 C705 0.930 . S
H718 C706 0.956 1_565 S
H719 C706 0.961 . S
H720 C706 0.961 . S
H721 C707 0.958 1_565 S
H722 C707 0.961 . S
H723 C707 0.960 . S
C724 C725 1.391 . S
C724 C726 1.394 . S
C724 H740 0.931 . S
C725 C724 1.391 . S
C725 C729 1.376 . S
C726 C724 1.394 . S
C726 C727 1.369 . S
C726 C730 1.531 . S
C727 C726 1.369 . S
C727 C728 1.410 . S
C727 C735 1.503 . S
C728 C727 1.410 . S
C728 C729 1.392 . S
C728 C731 1.511 1_545 S
C729 C725 1.376 . S
C729 C728 1.392 . S
C729 H741 0.929 1_545 S
C730 C726 1.531 . S
C730 H742 0.960 . S
C730 H743 0.962 . S
C730 H744 0.960 . S
C731 C728 1.511 1_565 S
C731 H745 0.961 . S
C731 H746 0.961 . S
C731 H747 0.961 . S
C732 C733 1.370 . S
C732 C734 1.363 . S
C732 H748 0.931 . S
C733 C732 1.370 . S
C733 C737 1.408 . S
C734 C732 1.363 . S
C734 C735 1.370 . S
C734 C738 1.524 . S
C735 C727 1.503 . S
C735 C734 1.370 . S
C735 C736 1.403 . S
C736 C735 1.403 . S
C736 C737 1.404 . S
C736 C739 1.539 . S
C737 C733 1.408 . S
C737 C736 1.404 . S
C737 H749 0.930 . S
C738 C734 1.524 . S
C738 H750 0.956 . S
C738 H751 0.961 . S
C738 H752 0.961 . S
C739 C736 1.539 . S
C739 H753 0.958 . S
C739 H754 0.961 . S
C739 H755 0.960 . S
H740 C724 0.931 . S
H741 C729 0.929 1_565 S
H742 C730 0.960 . S
H743 C730 0.962 . S
H744 C730 0.960 . S
H745 C731 0.961 . S
H746 C731 0.961 . S
H747 C731 0.961 . S
H748 C732 0.931 . S
H749 C737 0.930 . S
H750 C738 0.956 . S
H751 C738 0.961 . S
H752 C738 0.961 . S
H753 C739 0.958 . S
H754 C739 0.961 . S
H755 C739 0.960 . S
C756 C757 1.391 . S
C756 C758 1.394 . S
C756 H772 0.931 . S
C757 C756 1.391 . S
C757 C761 1.376 . S
C758 C756 1.394 . S
C758 C759 1.369 . S
C758 C762 1.531 . S
C759 C758 1.369 . S
C759 C760 1.410 . S
C759 C767 1.503 . S
C760 C759 1.410 . S
C760 C761 1.392 . S
C760 C763 1.511 1_554 S
C761 C757 1.376 . S
C761 C760 1.392 . S
C761 H773 0.929 . S
C762 C758 1.531 . S
C762 H774 0.960 . S
C762 H775 0.962 . S
C762 H776 0.960 . S
C763 C760 1.511 1_556 S
C763 H777 0.961 . S
C763 H778 0.961 . S
C763 H779 0.961 . S
C764 C765 1.370 . S
C764 C766 1.363 . S
C764 H780 0.931 . S
C765 C764 1.370 . S
C765 C769 1.408 . S
C766 C764 1.363 . S
C766 C767 1.370 . S
C766 C770 1.524 . S
C767 C759 1.503 . S
C767 C766 1.370 . S
C767 C768 1.403 . S
C768 C767 1.403 . S
C768 C769 1.404 . S
C768 C771 1.539 . S
C769 C765 1.408 . S
C769 C768 1.404 . S
C769 H781 0.930 . S
C770 C766 1.524 . S
C770 H782 0.956 . S
C770 H783 0.961 . S
C770 H784 0.961 . S
C771 C768 1.539 . S
C771 H785 0.958 . S
C771 H786 0.961 1_554 S
C771 H787 0.960 . S
H772 C756 0.931 . S
H773 C761 0.929 . S
H774 C762 0.960 . S
H775 C762 0.962 . S
H776 C762 0.960 . S
H777 C763 0.961 . S
H778 C763 0.961 . S
H779 C763 0.961 . S
H780 C764 0.931 . S
H781 C769 0.930 . S
H782 C770 0.956 . S
H783 C770 0.961 . S
H784 C770 0.961 . S
H785 C771 0.958 . S
H786 C771 0.961 1_556 S
H787 C771 0.960 . S
C788 C789 1.391 . S
C788 C790 1.394 . S
C788 H804 0.931 . S
C789 C788 1.391 . S
C789 C793 1.376 . S
C790 C788 1.394 . S
C790 C791 1.369 . S
C790 C794 1.531 . S
C791 C790 1.369 . S
C791 C792 1.410 . S
C791 C799 1.503 . S
C792 C791 1.410 . S
C792 C793 1.392 . S
C792 C795 1.511 . S
C793 C789 1.376 . S
C793 C792 1.392 . S
C793 H805 0.929 . S
C794 C790 1.531 . S
C794 H806 0.960 . S
C794 H807 0.962 . S
C794 H808 0.960 . S
C795 C792 1.511 . S
C795 H809 0.961 . S
C795 H810 0.961 . S
C795 H811 0.961 . S
C796 C797 1.370 . S
C796 C798 1.363 . S
C796 H812 0.931 . S
C797 C796 1.370 . S
C797 C801 1.408 . S
C798 C796 1.363 . S
C798 C799 1.370 . S
C798 C802 1.524 . S
C799 C791 1.503 . S
C799 C798 1.370 . S
C799 C800 1.403 . S
C800 C799 1.403 . S
C800 C801 1.404 . S
C800 C803 1.539 . S
C801 C797 1.408 . S
C801 C800 1.404 . S
C801 H813 0.930 . S
C802 C798 1.524 . S
C802 H814 0.956 . S
C802 H815 0.961 . S
C802 H816 0.961 . S
C803 C800 1.539 . S
C803 H817 0.958 . S
C803 H818 0.961 . S
C803 H819 0.960 . S
H804 C788 0.931 . S
H805 C793 0.929 . S
H806 C794 0.960 . S
H807 C794 0.962 . S
H808 C794 0.960 . S
H809 C795 0.961 . S
H810 C795 0.961 . S
H811 C795 0.961 . S
H812 C796 0.931 . S
H813 C801 0.930 . S
H814 C802 0.956 . S
H815 C802 0.961 . S
H816 C802 0.961 . S
H817 C803 0.958 . S
H818 C803 0.961 . S
H819 C803 0.960 . S
C820 C821 1.391 . S
C820 C822 1.394 . S
C820 H836 0.931 . S
C821 C820 1.391 . S
C821 C825 1.376 1_556 S
C822 C820 1.394 . S
C822 C823 1.369 . S
C822 C826 1.531 . S
C823 C822 1.369 . S
C823 C824 1.400 1_656 S
C823 C831 1.503 . S
C824 C823 1.400 1_454 S
C824 C825 1.391 1_455 S
C824 C827 1.522 . S
C825 C821 1.376 1_554 S
C825 C824 1.391 1_655 S
C825 H837 0.929 1_655 S
C826 C822 1.531 . S
C826 H838 0.960 . S
C826 H839 0.962 . S
C826 H840 0.960 . S
C827 C824 1.522 . S
C827 H841 0.961 . S
C827 H842 0.961 . S
C827 H843 0.961 1_554 S
C828 C829 1.370 1_554 S
C828 C830 1.363 . S
C828 H844 0.931 . S
C829 C828 1.370 1_556 S
C829 C833 1.408 1_655 S
C830 C828 1.363 . S
C830 C831 1.370 1_554 S
C830 C834 1.524 . S
C831 C823 1.503 . S
C831 C830 1.370 1_556 S
C831 C832 1.403 1_655 S
C832 C831 1.403 1_455 S
C832 C833 1.404 . S
C832 C835 1.539 . S
C833 C829 1.408 1_455 S
C833 C832 1.404 . S
C833 H845 0.930 . S
C834 C830 1.524 . S
C834 H846 0.956 . S
C834 H847 0.961 . S
C834 H848 0.961 . S
C835 C832 1.539 . S
C835 H849 0.958 . S
C835 H850 0.961 . S
C835 H851 0.960 . S
H836 C820 0.931 . S
H837 C825 0.929 1_455 S
H838 C826 0.960 . S
H839 C826 0.962 . S
H840 C826 0.960 . S
H841 C827 0.961 . S
H842 C827 0.961 . S
H843 C827 0.961 1_556 S
H844 C828 0.931 . S
H845 C833 0.930 . S
H846 C834 0.956 . S
H847 C834 0.961 . S
H848 C834 0.961 . S
H849 C835 0.958 . S
H850 C835 0.961 . S
H851 C835 0.960 . S
C852 C853 1.391 . S
C852 C854 1.394 . S
C852 H868 0.931 . S
C853 C852 1.391 . S
C853 C857 1.376 . S
C854 C852 1.394 . S
C854 C855 1.369 . S
C854 C858 1.531 . S
C855 C854 1.369 . S
C855 C856 1.410 . S
C855 C863 1.503 . S
C856 C855 1.410 . S
C856 C857 1.392 . S
C856 C859 1.511 . S
C857 C853 1.376 . S
C857 C856 1.392 . S
C857 H869 0.929 . S
C858 C854 1.531 . S
C858 H870 0.960 . S
C858 H871 0.962 . S
C858 H872 0.960 . S
C859 C856 1.511 . S
C859 H873 0.961 . S
C859 H874 0.961 . S
C859 H875 0.961 . S
C860 C861 1.370 . S
C860 C862 1.363 . S
C860 H876 0.931 . S
C861 C860 1.370 . S
C861 C865 1.408 . S
C862 C860 1.363 . S
C862 C863 1.370 . S
C862 C866 1.524 . S
C863 C855 1.503 . S
C863 C862 1.370 . S
C863 C864 1.403 . S
C864 C863 1.403 . S
C864 C865 1.404 . S
C864 C867 1.539 . S
C865 C861 1.408 . S
C865 C864 1.404 . S
C865 H877 0.930 . S
C866 C862 1.524 . S
C866 H878 0.956 . S
C866 H879 0.961 . S
C866 H880 0.961 . S
C867 C864 1.539 . S
C867 H881 0.958 . S
C867 H882 0.961 . S
C867 H883 0.960 . S
H868 C852 0.931 . S
H869 C857 0.929 . S
H870 C858 0.960 . S
H871 C858 0.962 . S
H872 C858 0.960 . S
H873 C859 0.961 . S
H874 C859 0.961 . S
H875 C859 0.961 . S
H876 C860 0.931 . S
H877 C865 0.930 . S
H878 C866 0.956 . S
H879 C866 0.961 . S
H880 C866 0.961 . S
H881 C867 0.958 . S
H882 C867 0.961 . S
H883 C867 0.960 . S
C884 C885 1.391 . S
C884 C886 1.394 . S
C884 H900 0.931 . S
C885 C884 1.391 . S
C885 C889 1.376 . S
C886 C884 1.394 . S
C886 C887 1.369 . S
C886 C890 1.531 . S
C887 C886 1.369 . S
C887 C888 1.410 . S
C887 C895 1.503 . S
C888 C887 1.410 . S
C888 C889 1.392 . S
C888 C891 1.511 1_455 S
C889 C885 1.376 . S
C889 C888 1.392 . S
C889 H901 0.929 . S
C890 C886 1.531 . S
C890 H902 0.960 . S
C890 H903 0.962 . S
C890 H904 0.960 . S
C891 C888 1.511 1_655 S
C891 H905 0.961 . S
C891 H906 0.961 . S
C891 H907 0.961 . S
C892 C893 1.370 . S
C892 C894 1.363 . S
C892 H908 0.931 . S
C893 C892 1.370 . S
C893 C897 1.408 . S
C894 C892 1.363 . S
C894 C895 1.370 . S
C894 C898 1.524 . S
C895 C887 1.503 . S
C895 C894 1.370 . S
C895 C896 1.403 . S
C896 C895 1.403 . S
C896 C897 1.404 . S
C896 C899 1.539 . S
C897 C893 1.408 . S
C897 C896 1.404 . S
C897 H909 0.930 . S
C898 C894 1.524 . S
C898 H910 0.956 . S
C898 H911 0.961 . S
C898 H912 0.961 . S
C899 C896 1.539 . S
C899 H913 0.958 . S
C899 H914 0.961 . S
C899 H915 0.960 . S
H900 C884 0.931 . S
H901 C889 0.929 . S
H902 C890 0.960 . S
H903 C890 0.962 . S
H904 C890 0.960 . S
H905 C891 0.961 . S
H906 C891 0.961 . S
H907 C891 0.961 . S
H908 C892 0.931 . S
H909 C897 0.930 . S
H910 C898 0.956 . S
H911 C898 0.961 . S
H912 C898 0.961 . S
H913 C899 0.958 . S
H914 C899 0.961 . S
H915 C899 0.960 . S
C916 C917 1.391 . S
C916 C918 1.394 . S
C916 H932 0.931 . S
C917 C916 1.391 . S
C917 C921 1.376 . S
C918 C916 1.394 . S
C918 C919 1.369 . S
C918 C922 1.531 . S
C919 C918 1.369 . S
C919 C920 1.410 . S
C919 C927 1.503 . S
C920 C919 1.410 . S
C920 C921 1.392 . S
C920 C923 1.511 . S
C921 C917 1.376 . S
C921 C920 1.392 . S
C921 H933 0.929 . S
C922 C918 1.531 . S
C922 H934 0.960 . S
C922 H935 0.962 . S
C922 H936 0.960 . S
C923 C920 1.511 . S
C923 H937 0.961 . S
C923 H938 0.961 . S
C923 H939 0.961 . S
C924 C925 1.370 . S
C924 C926 1.363 . S
C924 H940 0.931 . S
C925 C924 1.370 . S
C925 C929 1.408 . S
C926 C924 1.363 . S
C926 C927 1.370 . S
C926 C930 1.524 . S
C927 C919 1.503 . S
C927 C926 1.370 . S
C927 C928 1.403 . S
C928 C927 1.403 . S
C928 C929 1.404 . S
C928 C931 1.539 . S
C929 C925 1.408 . S
C929 C928 1.404 . S
C929 H941 0.930 . S
C930 C926 1.524 . S
C930 H942 0.956 . S
C930 H943 0.961 . S
C930 H944 0.961 . S
C931 C928 1.539 . S
C931 H945 0.958 . S
C931 H946 0.961 . S
C931 H947 0.960 . S
H932 C916 0.931 . S
H933 C921 0.929 . S
H934 C922 0.960 . S
H935 C922 0.962 . S
H936 C922 0.960 . S
H937 C923 0.961 . S
H938 C923 0.961 . S
H939 C923 0.961 . S
H940 C924 0.931 . S
H941 C929 0.930 . S
H942 C930 0.956 . S
H943 C930 0.961 . S
H944 C930 0.961 . S
H945 C931 0.958 . S
H946 C931 0.961 . S
H947 C931 0.960 . S
C181 C5 1.737 . S
C189 C106 1.843 . S
C213 C18 1.623 . S
C221 C130 1.641 . S
C253 C150 1.256 . S
C245 C30 1.225 . S
C277 C41 1.187 . S
C285 C173 1.196 . S
C317 C132 1.924 . S
C309 C7 1.926 . S
C349 C108 1.870 . S
C341 C16 1.681 . S
C381 C176 1.648 . S
C373 C29 1.543 . S
C413 C153 1.175 . S
C405 C38 1.157 . S
C437 C8 1.543 . S
C445 C178 1.520 . S
C477 C127 1.767 . S
C469 C27 1.464 . S
C501 C40 1.590 . S
C509 C105 1.626 . S
C533 C19 1.140 . S
C541 C155 1.099 . S
C573 C109 1.692 . S
C565 C51 1.656 . S
C597 C62 1.604 . S
C605 C131 1.726 . S
C629 C74 1.565 . S
C637 C151 1.660 . S
C661 C84 1.517 . S
C669 C174 1.616 . S
C693 C49 1.820 . S
C701 C129 1.861 . S
C733 C107 1.498 . S
C725 C63 1.472 . S
C765 C177 1.405 . S
C757 C71 1.112 . S
C797 C154 1.185 . S
C789 C85 1.217 . S
C821 C52 1.858 . S
C829 C175 1.827 1_655 S
C861 C128 1.821 . S
C853 C73 1.686 . S
C893 C104 1.408 . S
C885 C82 1.026 . S
C917 C60 1.528 . S
C925 C152 1.871 . S
