# Generated by pormake.
# Topology zzz, (3,6)-cn, num edge types: 1
# Building blocks:
#     Node 0, Type 0, BuildingBlock: OLANEW_clean_sbu_2, # of connection points: 3
#     Node 1, Type 0, BuildingBlock: OLANEW_clean_sbu_2, # of connection points: 3
#     Node 2, Type 0, BuildingBlock: OLANEW_clean_sbu_2, # of connection points: 3
#     Node 3, Type 0, BuildingBlock: OLANEW_clean_sbu_2, # of connection points: 3
#     Node 4, Type 0, BuildingBlock: OLANEW_clean_sbu_2, # of connection points: 3
#     Node 5, Type 0, BuildingBlock: OLANEW_clean_sbu_2, # of connection points: 3
#     Node 6, Type 0, BuildingBlock: OLANEW_clean_sbu_2, # of connection points: 3
#     Node 7, Type 0, BuildingBlock: OLANEW_clean_sbu_2, # of connection points: 3
#     Node 8, Type 1, BuildingBlock: CUWYAW_clean_sbu_0, # of connection points: 6
#     Node 9, Type 1, BuildingBlock: CUWYAW_clean_sbu_0, # of connection points: 6
#     Node 10, Type 1, BuildingBlock: CUWYAW_clean_sbu_0, # of connection points: 6
#     Node 11, Type 1, BuildingBlock: CUWYAW_clean_sbu_0, # of connection points: 6
#     Edge 12, Type (0, 1), BuildingBlock: KIFKEQ_clean_linker_1, # of connection points: 2
#     Edge 13, Type (0, 1), BuildingBlock: KIFKEQ_clean_linker_1, # of connection points: 2
#     Edge 14, Type (0, 1), BuildingBlock: KIFKEQ_clean_linker_1, # of connection points: 2
#     Edge 15, Type (0, 1), BuildingBlock: KIFKEQ_clean_linker_1, # of connection points: 2
#     Edge 16, Type (0, 1), BuildingBlock: KIFKEQ_clean_linker_1, # of connection points: 2
#     Edge 17, Type (0, 1), BuildingBlock: KIFKEQ_clean_linker_1, # of connection points: 2
#     Edge 18, Type (0, 1), BuildingBlock: KIFKEQ_clean_linker_1, # of connection points: 2
#     Edge 19, Type (0, 1), BuildingBlock: KIFKEQ_clean_linker_1, # of connection points: 2
#     Edge 20, Type (0, 1), BuildingBlock: KIFKEQ_clean_linker_1, # of connection points: 2
#     Edge 21, Type (0, 1), BuildingBlock: KIFKEQ_clean_linker_1, # of connection points: 2
#     Edge 22, Type (0, 1), BuildingBlock: KIFKEQ_clean_linker_1, # of connection points: 2
#     Edge 23, Type (0, 1), BuildingBlock: KIFKEQ_clean_linker_1, # of connection points: 2
#     Edge 24, Type (0, 1), BuildingBlock: KIFKEQ_clean_linker_1, # of connection points: 2
#     Edge 25, Type (0, 1), BuildingBlock: KIFKEQ_clean_linker_1, # of connection points: 2
#     Edge 26, Type (0, 1), BuildingBlock: KIFKEQ_clean_linker_1, # of connection points: 2
#     Edge 27, Type (0, 1), BuildingBlock: KIFKEQ_clean_linker_1, # of connection points: 2
#     Edge 28, Type (0, 1), BuildingBlock: KIFKEQ_clean_linker_1, # of connection points: 2
#     Edge 29, Type (0, 1), BuildingBlock: KIFKEQ_clean_linker_1, # of connection points: 2
#     Edge 30, Type (0, 1), BuildingBlock: KIFKEQ_clean_linker_1, # of connection points: 2
#     Edge 31, Type (0, 1), BuildingBlock: KIFKEQ_clean_linker_1, # of connection points: 2
#     Edge 32, Type (0, 1), BuildingBlock: KIFKEQ_clean_linker_1, # of connection points: 2
#     Edge 33, Type (0, 1), BuildingBlock: KIFKEQ_clean_linker_1, # of connection points: 2
#     Edge 34, Type (0, 1), BuildingBlock: KIFKEQ_clean_linker_1, # of connection points: 2
#     Edge 35, Type (0, 1), BuildingBlock: KIFKEQ_clean_linker_1, # of connection points: 2
# Relax obj value: 0.230
# Max RMSD: 0.163
# Mean RMSD: 0.145
data_MOF--net-zzz--node1-OLANEW_clean_sbu_2--node2-CUWYAW_clean_sbu_0--edge1-KIFKEQ_clean_linker_1
_symmetry_space_group_name_H-M    P1
_symmetry_Int_Tables_number       1
_symmetry_cell_setting            triclinic
loop_
_symmetry_equiv_pos_as_xyz
'x, y, z'
_cell_length_a     56.814478
_cell_length_b     56.80904
_cell_length_c     16.234827
_cell_angle_alpha  89.819985
_cell_angle_beta   90.083892
_cell_angle_gamma 89.983466
loop_
_atom_site_label
_atom_site_type_symbol
_atom_site_fract_x
_atom_site_fract_y
_atom_site_fract_z
_atom_type_partial_charge
O0 O 0.73952 0.52236 0.25939 0.0
Cd1 Cd 0.69999 0.52732 0.31579 0.0
O2 O 0.74782 0.50238 0.37056 0.0
Cd3 Cd 0.76734 0.48343 0.4658 0.0
O4 O 0.76552 0.46904 0.59656 0.0
C5 C 0.77958 0.47553 0.65365 0.0
O6 O 0.76476 0.46828 0.59779 0.0
C7 C 0.7544 0.51079 0.30169 0.0
C8 C 0.66524 0.51886 0.19834 0.0
O9 O 0.67421 0.5394 0.2073 0.0
O10 O 0.67272 0.50224 0.24515 0.0
O11 O 0.96651 0.72271 0.2138 0.0
Cd12 Cd 0.96041 0.68424 0.27862 0.0
O13 O 0.99167 0.72769 0.31417 0.0
Cd14 Cd 0.0167 0.74846 0.3845 0.0
O15 O 0.02357 0.7804 0.45257 0.0
C16 C 0.03299 0.79808 0.41778 0.0
O17 O 0.04089 0.79603 0.34211 0.0
C18 C 0.98092 0.7359 0.2516 0.0
C19 C 0.96807 0.64698 0.17142 0.0
O20 O 0.94765 0.65634 0.17877 0.0
O21 O 0.98495 0.65529 0.21497 0.0
O22 O 0.7721 0.96678 0.20594 0.0
Cd23 Cd 0.80812 0.95593 0.27802 0.0
O24 O 0.76515 0.98659 0.3181 0.0
Cd25 Cd 0.74159 0.00293 0.40575 0.0
O26 O 0.70943 0.00041 0.47629 0.0
C27 C 0.69283 0.98944 0.44079 0.0
O28 O 0.69614 0.9811 0.36638 0.0
C29 C 0.75855 0.98005 0.2469 0.0
C30 C 0.84656 0.9669 0.18081 0.0
O31 O 0.83672 0.94663 0.1769 0.0
O32 O 0.83841 0.98191 0.23219 0.0
O33 O 0.52854 0.77473 0.26483 0.0
Cd34 Cd 0.53064 0.8133 0.33043 0.0
O35 O 0.49306 0.772 0.31657 0.0
Cd36 Cd 0.46381 0.74991 0.35532 0.0
O37 O 0.46215 0.71345 0.39429 0.0
C38 C 0.4645 0.70876 0.47032 0.0
O39 O 0.46527 0.72612 0.52353 0.0
C40 C 0.50979 0.76294 0.27532 0.0
C41 C 0.51789 0.84942 0.22333 0.0
O42 O 0.53943 0.84303 0.23092 0.0
O43 O 0.50235 0.83869 0.26659 0.0
O44 O 0.27444 0.53457 0.15631 0.0
Cd45 Cd 0.31357 0.53115 0.09506 0.0
O46 O 0.26704 0.50314 0.08368 0.0
Cd47 Cd 0.24532 0.47452 0.03757 0.0
O48 O 0.21322 0.46182 0.9808 0.0
C49 C 0.21057 0.46364 0.90335 0.0
O50 O 0.22819 0.4713 0.85833 0.0
C51 C 0.25992 0.51896 0.1331 0.0
C52 C 0.34796 0.52419 0.21461 0.0
O53 O 0.34313 0.54487 0.18767 0.0
O54 O 0.33659 0.50673 0.18451 0.0
O55 O 0.96308 0.26559 0.09127 0.0
Cd56 Cd 0.96507 0.30432 0.02645 0.0
O57 O 0.00085 0.26982 0.11545 0.0
Cd58 Cd 0.03395 0.25248 0.14641 0.0
O59 O 0.0427 0.21608 0.11952 0.0
C60 C 0.04647 0.2114 0.04428 0.0
O61 O 0.04751 0.22881 0.99094 0.0
C62 C 0.98215 0.25758 0.12104 0.0
C63 C 0.97352 0.33833 0.14579 0.0
O64 O 0.9525 0.33333 0.12294 0.0
O65 O 0.9906 0.32746 0.11119 0.0
O66 O 0.21907 0.95836 0.12173 0.0
Cd67 Cd 0.17991 0.9642 0.06292 0.0
O68 O 0.2231 0.99627 0.10141 0.0
Cd69 Cd 0.24335 0.02885 0.10704 0.0
O70 O 0.27717 0.0447 0.07875 0.0
C71 C 0.28138 0.0494 0.00371 0.0
O72 O 0.26432 0.04724 0.94955 0.0
C73 C 0.2317 0.97675 0.12573 0.0
C74 C 0.14826 0.97474 0.18789 0.0
O75 O 0.15082 0.9536 0.162 0.0
O76 O 0.1604 0.99103 0.1535 0.0
O77 O 0.54267 0.22922 0.1502 0.0
Cd78 Cd 0.53887 0.19054 0.08678 0.0
O79 O 0.50501 0.2326 0.12336 0.0
Cd80 Cd 0.47205 0.25242 0.12036 0.0
O81 O 0.45729 0.28544 0.07628 0.0
C82 C 0.4606 0.28907 -2e-05 0.0
O83 O 0.46942 0.27195 0.9553 0.0
C84 C 0.52399 0.24148 0.15116 0.0
C85 C 0.5256 0.15722 0.2033 0.0
O86 O 0.5473 0.16028 0.18451 0.0
O87 O 0.51011 0.16979 0.1662 0.0
C88 C 0.00098 0.03073 0.51246 0.0
Eu89 Eu 0.00792 0.01517 0.66199 0.0
C90 C 0.99854 0.05369 0.47113 0.0
C91 C 0.98563 0.05537 0.3977 0.0
C92 C 0.98339 0.077 0.35703 0.0
C93 C 0.99414 0.09732 0.38904 0.0
C94 C 0.0069 0.09557 0.46319 0.0
C95 C 0.00901 0.07396 0.50403 0.0
C96 C 0.9739 0.00733 0.77482 0.0
C97 C 0.02234 0.04916 0.81007 0.0
C98 C 0.02532 0.97342 0.97384 0.0
Eu99 Eu 0.02342 0.99149 0.8265 0.0
C100 C 0.02069 0.94968 0.00891 0.0
C101 C 0.03908 0.93329 0.01768 0.0
C102 C 0.03461 0.9105 0.0465 0.0
C103 C 0.01164 0.90355 0.0678 0.0
C104 C 0.99335 0.92014 0.06125 0.0
C105 C 0.99782 0.94294 0.03233 0.0
C106 C 0.05782 0.99673 0.71354 0.0
C107 C 0.01334 0.958 0.67492 0.0
O108 O 0.02176 0.02578 0.54265 0.0
O109 O 0.9839 0.02465 0.562 0.0
O110 O 0.97463 0.02614 0.72928 0.0
O111 O 0.99037 0.99356 0.75686 0.0
O112 O 0.01942 0.04761 0.72939 0.0
O113 O 0.02257 0.0304 0.85895 0.0
O114 O 0.00711 0.9852 0.94603 0.0
O115 O 0.04375 0.97549 0.9259 0.0
O116 O 0.0571 0.97956 0.76648 0.0
O117 O 0.04164 0.01138 0.72809 0.0
O118 O 0.01249 0.95952 0.75599 0.0
O119 O 0.01395 0.97691 0.62705 0.0
H120 H 0.97739 0.03989 0.37154 0.0
H121 H 0.97359 0.07775 0.2998 0.0
H122 H 0.01508 0.11096 0.49009 0.0
H123 H 0.01887 0.07308 0.56115 0.0
H124 H 0.05697 0.93797 0.00142 0.0
H125 H 0.04919 0.89832 0.0523 0.0
H126 H 0.97543 0.91536 0.07664 0.0
H127 H 0.98326 0.95517 0.02729 0.0
C128 C 0.45844 0.99489 0.51384 0.0
Eu129 Eu 0.47752 0.9991 0.65855 0.0
C130 C 0.43493 0.9909 0.47717 0.0
C131 C 0.43168 0.97251 0.42072 0.0
C132 C 0.40993 0.96937 0.38162 0.0
C133 C 0.3911 0.98475 0.39761 0.0
C134 C 0.39428 0.00291 0.45517 0.0
C135 C 0.41591 0.00591 0.49482 0.0
C136 C 0.4771 0.97032 0.79313 0.0
C137 C 0.44529 0.02654 0.79681 0.0
C138 C 0.52582 0.0346 0.9491 0.0
Eu139 Eu 0.50124 0.02383 0.81913 0.0
C140 C 0.5486 0.02761 0.9848 0.0
C141 C 0.56024 0.04301 0.03837 0.0
C142 C 0.5827 0.03754 0.06819 0.0
C143 C 0.59398 0.01654 0.04481 0.0
C144 C 0.58203 0.00097 0.99187 0.0
C145 C 0.55957 0.00649 0.962 0.0
C146 C 0.49452 0.05039 0.68253 0.0
C147 C 0.53301 0.99237 0.69183 0.0
O148 O 0.46181 0.01519 0.55049 0.0
O149 O 0.46824 0.97714 0.55302 0.0
O150 O 0.46859 0.96397 0.72212 0.0
O151 O 0.48403 0.99115 0.78671 0.0
O152 O 0.44748 0.01858 0.72028 0.0
O153 O 0.46302 0.02779 0.84975 0.0
O154 O 0.50898 0.01881 0.94967 0.0
O155 O 0.52705 0.04622 0.87946 0.0
O156 O 0.49256 0.05869 0.75679 0.0
O157 O 0.50088 0.02922 0.68479 0.0
O158 O 0.53037 0.00129 0.76664 0.0
O159 O 0.51587 0.99161 0.63642 0.0
H160 H 0.4461 0.96079 0.40587 0.0
H161 H 0.40803 0.95531 0.33721 0.0
H162 H 0.37999 0.01483 0.46961 0.0
H163 H 0.41778 0.02017 0.53848 0.0
H164 H 0.55213 0.05951 0.05593 0.0
H165 H 0.59147 0.0501 0.1078 0.0
H166 H 0.59003 0.98451 0.97341 0.0
H167 H 0.55092 0.9944 0.92033 0.0
C168 C 0.51276 0.47319 0.50394 0.0
Eu169 Eu 0.5054 0.48841 0.65303 0.0
C170 C 0.51368 0.4499 0.46407 0.0
C171 C 0.53185 0.44487 0.40846 0.0
C172 C 0.53347 0.42264 0.37205 0.0
C173 C 0.51682 0.40508 0.39021 0.0
C174 C 0.49853 0.41022 0.44562 0.0
C175 C 0.49704 0.43237 0.48259 0.0
C176 C 0.53931 0.49254 0.76954 0.0
C177 C 0.48769 0.45334 0.79246 0.0
C178 C 0.48726 0.52619 0.96812 0.0
Eu179 Eu 0.4904 0.51043 0.81812 0.0
C180 C 0.49002 0.54954 0.00779 0.0
C181 C 0.47039 0.56426 0.01906 0.0
C182 C 0.47303 0.5867 0.0529 0.0
C183 C 0.49534 0.59494 0.07704 0.0
C184 C 0.51488 0.57996 0.06777 0.0
C185 C 0.51226 0.55752 0.03367 0.0
C186 C 0.4563 0.50849 0.70265 0.0
C187 C 0.50216 0.54544 0.67198 0.0
O188 O 0.49221 0.48028 0.53035 0.0
O189 O 0.52972 0.47779 0.55593 0.0
O190 O 0.53726 0.47429 0.72229 0.0
O191 O 0.52395 0.50766 0.75211 0.0
O192 O 0.49004 0.45633 0.71223 0.0
O193 O 0.4899 0.471 0.84517 0.0
O194 O 0.50631 0.51635 0.93857 0.0
O195 O 0.46906 0.52354 0.91946 0.0
O196 O 0.45807 0.52535 0.75613 0.0
O197 O 0.47141 0.4927 0.71662 0.0
O198 O 0.50286 0.54298 0.75288 0.0
O199 O 0.50082 0.52712 0.62201 0.0
H200 H 0.54489 0.45812 0.39354 0.0
H201 H 0.54764 0.41925 0.32912 0.0
H202 H 0.48562 0.39695 0.46161 0.0
H203 H 0.483 0.43569 0.52612 0.0
H204 H 0.45297 0.55859 0.00052 0.0
H205 H 0.45761 0.5978 0.05826 0.0
H206 H 0.53226 0.58554 0.08705 0.0
H207 H 0.52772 0.54654 0.02697 0.0
C208 C 0.02202 0.51181 0.44447 0.0
Eu209 Eu 0.00411 0.50241 0.58842 0.0
C210 C 0.04617 0.51245 0.41096 0.0
C211 C 0.05267 0.53042 0.35614 0.0
C212 C 0.07572 0.53172 0.32601 0.0
C213 C 0.09276 0.51503 0.35008 0.0
C214 C 0.08609 0.49701 0.405 0.0
C215 C 0.06309 0.49577 0.43527 0.0
C216 C -0.00034 0.53188 0.71666 0.0
C217 C 0.04507 0.47754 0.70478 0.0
C218 C 0.9747 0.46771 0.8974 0.0
Eu219 Eu 0.99132 0.47851 0.75259 0.0
C220 C 0.95385 0.47379 0.94626 0.0
C221 C 0.94589 0.45822 0.00724 0.0
C222 C 0.92534 0.46314 0.05121 0.0
C223 C 0.91234 0.48368 0.03445 0.0
C224 C 0.92064 0.49945 0.97408 0.0
C225 C 0.94125 0.49456 0.93046 0.0
C226 C 0.99429 0.44987 0.62007 0.0
C227 C 0.9505 0.50326 0.64076 0.0
O228 O 0.01376 0.49108 0.465 0.0
O229 O 0.01692 0.52805 0.49857 0.0
O230 O 0.99366 0.53736 0.64177 0.0
O231 O 0.00914 0.51178 0.71975 0.0
O232 O 0.03891 0.48659 0.63259 0.0
O233 O 0.03 0.47454 0.76539 0.0
O234 O 0.98992 0.48464 0.88478 0.0
O235 O 0.97072 0.4552 0.83134 0.0
O236 O 0.00107 0.44357 0.69332 0.0
O237 O 0.98533 0.47005 0.62173 0.0
O238 O 0.95851 0.49855 0.71559 0.0
O239 O 0.96447 0.50261 0.57557 0.0
H240 H 0.03996 0.54359 0.33717 0.0
H241 H 0.08025 0.54606 0.28489 0.0
H242 H 0.09858 0.48365 0.42409 0.0
H243 H 0.05859 0.48176 0.47777 0.0
H244 H 0.95539 0.44207 0.01996 0.0
H245 H 0.91929 0.45054 0.09668 0.0
H246 H 0.91119 0.51557 0.96048 0.0
H247 H 0.94722 0.50687 0.88389 0.0
H248 H 0.11538 0.94587 0.25668 0.0
H249 H 0.14592 0.01523 0.27821 0.0
H250 H 0.09226 0.95281 0.38029 0.0
H251 H 0.12335 0.0219 0.40379 0.0
H252 H 0.06524 0.03148 0.59901 0.0
H253 H 0.08485 0.0274 0.46533 0.0
H254 H 0.10117 0.9549 0.52392 0.0
H255 H 0.08081 0.95876 0.65442 0.0
C256 C 0.11711 0.96263 0.28775 0.0
C257 C 0.13265 0.9799 0.25826 0.0
C258 C 0.10397 0.96657 0.3589 0.0
C259 C 0.10627 0.98776 0.40279 0.0
C260 C 0.12108 0.00544 0.37129 0.0
C261 C 0.13409 0.00157 0.29954 0.0
C262 C 0.0729 0.01469 0.58254 0.0
C263 C 0.07124 0.99536 0.63621 0.0
C264 C 0.08427 0.01237 0.50649 0.0
C265 C 0.09429 0.99071 0.48338 0.0
C266 C 0.09313 0.97165 0.53866 0.0
C267 C 0.08173 0.97395 0.61405 0.0
H268 H 0.55261 0.12246 0.27049 0.0
H269 H 0.4832 0.15343 0.2816 0.0
H270 H 0.54213 0.09552 0.38174 0.0
H271 H 0.47278 0.12644 0.39354 0.0
H272 H 0.48166 0.09642 0.665 0.0
H273 H 0.48684 0.12131 0.54285 0.0
H274 H 0.51402 0.06168 0.40878 0.0
H275 H 0.50883 0.03687 0.53037 0.0
C276 C 0.53508 0.12342 0.29637 0.0
C277 C 0.51876 0.1401 0.26754 0.0
C278 C 0.52904 0.1079 0.35969 0.0
C279 C 0.50664 0.10893 0.3961 0.0
C280 C 0.4902 0.1254 0.36673 0.0
C281 C 0.49614 0.14074 0.30254 0.0
C282 C 0.48842 0.08862 0.609 0.0
C283 C 0.49499 0.06482 0.6071 0.0
C284 C 0.49129 0.1028 0.53915 0.0
C285 C 0.501 0.09341 0.46673 0.0
C286 C 0.50674 0.06939 0.46413 0.0
C287 C 0.50366 0.0552 0.53355 0.0
H288 H 0.37955 0.5562 0.27287 0.0
H289 H 0.35635 0.48433 0.30484 0.0
H290 H 0.40709 0.55137 0.38659 0.0
H291 H 0.38335 0.47972 0.42072 0.0
H292 H 0.4482 0.47419 0.58804 0.0
H293 H 0.42389 0.47734 0.46384 0.0
H294 H 0.4046 0.54825 0.53254 0.0
H295 H 0.42958 0.54537 0.65368 0.0
C296 C 0.38032 0.53937 0.30428 0.0
C297 C 0.36564 0.52072 0.28038 0.0
C298 C 0.39602 0.53662 0.36979 0.0
C299 C 0.39722 0.51524 0.41357 0.0
C300 C 0.38303 0.49635 0.38799 0.0
C301 C 0.36745 0.49904 0.32186 0.0
C302 C 0.43888 0.49046 0.57583 0.0
C303 C 0.44089 0.5096 0.62981 0.0
C304 C 0.42482 0.49223 0.50521 0.0
C305 C 0.41242 0.51313 0.48781 0.0
C306 C 0.41427 0.53209 0.54291 0.0
C307 C 0.42838 0.53035 0.61294 0.0
H308 H 0.015 0.34774 0.22484 0.0
H309 H 0.94174 0.36812 0.21593 0.0
H310 H 0.02162 0.37549 0.33733 0.0
H311 H 0.94837 0.3957 0.32824 0.0
H312 H 0.97362 0.45912 0.47275 0.0
H313 H 0.97006 0.43298 0.35462 0.0
H314 H 0.00918 0.37942 0.48564 0.0
H315 H 0.01291 0.40579 0.60411 0.0
C316 C 0.00035 0.35821 0.24658 0.0
C317 C 0.97784 0.35573 0.21159 0.0
C318 C 0.00413 0.37398 0.31124 0.0
C319 C 0.98552 0.38773 0.34148 0.0
C320 C 0.96311 0.3855 0.30561 0.0
C321 C 0.95929 0.36961 0.24158 0.0
C322 C 0.98162 0.44183 0.4761 0.0
C323 C 0.99344 0.43438 0.54759 0.0
C324 C 0.97947 0.42684 0.40866 0.0
C325 C 0.9892 0.40412 0.41116 0.0
C326 C 0.00163 0.3969 0.48186 0.0
C327 C 0.00366 0.4119 0.5497 0.0
H328 H 0.86626 0.93935 0.06252 0.0
H329 H 0.87125 0.00822 0.17375 0.0
H330 H 0.89737 0.94979 0.96661 0.0
H331 H 0.90289 0.0185 0.07854 0.0
H332 H 0.93871 0.03604 0.8294 0.0
H333 H 0.90844 0.02654 0.93135 0.0
H334 H 0.9391 0.95747 0.96405 0.0
H335 H 0.96869 0.96672 0.86081 0.0
C336 C 0.87416 0.95665 0.06702 0.0
C337 C 0.86628 0.97297 0.12564 0.0
C338 C 0.89208 0.9626 0.01228 0.0
C339 C 0.90261 0.98497 0.01507 0.0
C340 C 0.89491 0.00123 0.07428 0.0
C341 C 0.87692 0.99528 0.1291 0.0
C342 C 0.93889 0.01887 0.85858 0.0
C343 C 0.95596 0.00211 0.83743 0.0
C344 C 0.92172 0.01348 0.9173 0.0
C345 C 0.92137 0.99123 0.95559 0.0
C346 C 0.93869 0.97464 0.93484 0.0
C347 C 0.95574 0.97999 0.87615 0.0
H348 H 0.47354 0.8644 0.18355 0.0
H349 H 0.54704 0.8775 0.13257 0.0
H350 H 0.46253 0.89514 0.08532 0.0
H351 H 0.536 0.90801 0.034 0.0
H352 H 0.50902 0.97538 0.91683 0.0
H353 H 0.51785 0.9475 0.0275 0.0
H354 H 0.46436 0.90057 0.93376 0.0
H355 H 0.45526 0.92885 0.82445 0.0
C356 C 0.48734 0.87387 0.1516 0.0
C357 C 0.51116 0.86847 0.16563 0.0
C358 C 0.48102 0.8914 0.09514 0.0
C359 C 0.4984 0.90398 0.05201 0.0
C360 C 0.52222 0.89882 0.06705 0.0
C361 C 0.52853 0.88122 0.12311 0.0
C362 C 0.49875 0.95944 0.92148 0.0
C363 C 0.48122 0.95441 0.8633 0.0
C364 C 0.50402 0.9433 0.98395 0.0
C365 C 0.49178 0.92184 0.98931 0.0
C366 C 0.47388 0.91708 0.93187 0.0
C367 C 0.46875 0.93318 0.86915 0.0
H368 H 0.64029 0.47834 0.17204 0.0
H369 H 0.64852 0.54961 0.08291 0.0
H370 H 0.60953 0.47157 0.06973 0.0
H371 H 0.61832 0.54268 0.97946 0.0
H372 H 0.54684 0.53138 0.86304 0.0
H373 H 0.57668 0.5371 0.96875 0.0
H374 H 0.60357 0.46716 0.92291 0.0
H375 H 0.57293 0.46116 0.81904 0.0
C376 C 0.63563 0.49252 0.13035 0.0
C377 C 0.6468 0.51454 0.13575 0.0
C378 C 0.61809 0.4886 0.0714 0.0
C379 C 0.6114 0.50659 0.01646 0.0
C380 C 0.62273 0.52855 0.02168 0.0
C381 C 0.64016 0.53249 0.08073 0.0
C382 C 0.55901 0.51716 0.87605 0.0
C383 C 0.55753 0.49578 0.83323 0.0
C384 C 0.57626 0.52051 0.93609 0.0
C385 C 0.59263 0.50264 0.95409 0.0
C386 C 0.59108 0.48118 0.91126 0.0
C387 C 0.57367 0.47779 0.8514 0.0
H388 H 0.0093 0.62369 0.14027 0.0
H389 H 0.93595 0.62634 0.06967 0.0
H390 H 0.01639 0.59378 0.03539 0.0
H391 H 0.94302 0.5963 0.9659 0.0
H392 H 0.01536 0.52664 0.8754 0.0
H393 H 0.00686 0.55241 0.99275 0.0
H394 H 0.96463 0.59685 0.83451 0.0
H395 H 0.97281 0.57112 0.71863 0.0
C396 C 0.99465 0.61772 0.10301 0.0
C397 C 0.97212 0.62758 0.11258 0.0
C398 C 0.9987 0.60048 0.04338 0.0
C399 C 0.9803 0.59286 0.99205 0.0
C400 C 0.95762 0.60211 0.00375 0.0
C401 C 0.95356 0.61927 0.06336 0.0
C402 C 0.00414 0.54184 0.86626 0.0
C403 C 0.99472 0.54693 0.78822 0.0
C404 C -0.00062 0.55662 0.93309 0.0
C405 C 0.98498 0.57657 0.92282 0.0
C406 C 0.97548 0.58143 0.84469 0.0
C407 C 0.98033 0.5668 0.77815 0.0
H408 H 0.00536 0.24467 0.26004 0.0
H409 H 0.96018 0.2175 0.06897 0.0
H410 H 0.00821 0.20555 0.32119 0.0
H411 H 0.96316 0.17803 0.12959 0.0
H412 H 0.95498 0.11692 0.31773 0.0
H413 H 0.95159 0.15531 0.25052 0.0
H414 H 0.02564 0.1677 0.29314 0.0
H415 H 0.02892 0.12951 0.36091 0.0
C416 C 0.99627 0.23019 0.23063 0.0
C417 C 0.98294 0.23395 0.15899 0.0
C418 C 0.9979 0.20777 0.26553 0.0
C419 C 0.98614 0.18856 0.22977 0.0
C420 C 0.97233 0.19246 0.15896 0.0
C421 C 0.97064 0.215 0.12414 0.0
C422 C 0.97056 0.12778 0.31203 0.0
C423 C 0.99217 0.12027 0.3453 0.0
C424 C 0.96864 0.14975 0.27338 0.0
C425 C 0.9883 0.16468 0.26698 0.0
C426 C 0.01002 0.15688 0.29857 0.0
C427 C 0.01192 0.13498 0.3374 0.0
H428 H 0.27104 0.99789 0.06528 0.0
H429 H 0.24695 0.95195 0.25942 0.0
H430 H 0.31023 0.99896 0.12756 0.0
H431 H 0.28627 0.95259 0.32148 0.0
H432 H 0.36573 0.94452 0.37004 0.0
H433 H 0.3279 0.94084 0.29877 0.0
H434 H 0.32736 0.01585 0.25447 0.0
H435 H 0.36519 0.01945 0.32459 0.0
C436 C 0.27411 0.98831 0.12201 0.0
C437 C 0.25584 0.97557 0.15931 0.0
C438 C 0.29655 0.98874 0.15731 0.0
C439 C 0.30126 0.97615 0.23019 0.0
C440 C 0.28322 0.96243 0.26523 0.0
C441 C 0.26072 0.9621 0.22994 0.0
C442 C 0.35757 0.96016 0.34449 0.0
C443 C 0.36835 0.98229 0.35323 0.0
C444 C 0.33585 0.95809 0.30426 0.0
C445 C 0.32463 0.97805 0.27104 0.0
C446 C 0.33564 0.0001 0.27873 0.0
C447 C 0.35718 0.0022 0.31962 0.0
H448 H 0.54638 0.25768 0.28835 0.0
H449 H 0.50391 0.2802 0.08283 0.0
H450 H 0.54538 0.29769 0.3443 0.0
H451 H 0.50216 0.32003 0.13923 0.0
H452 H 0.48158 0.37899 0.32114 0.0
H453 H 0.48433 0.33969 0.26125 0.0
H454 H 0.55892 0.33846 0.31273 0.0
H455 H 0.5561 0.37768 0.37359 0.0
C456 C 0.53678 0.27123 0.25534 0.0
C457 C 0.52441 0.26578 0.183 0.0
C458 C 0.53623 0.29411 0.28712 0.0
C459 C 0.52338 0.31194 0.24684 0.0
C460 C 0.51169 0.30656 0.17289 0.0
C461 C 0.51242 0.28375 0.14103 0.0
C462 C 0.49854 0.37028 0.3199 0.0
C463 C 0.51861 0.38139 0.35218 0.0
C464 C 0.50015 0.34787 0.28499 0.0
C465 C 0.52185 0.33597 0.28232 0.0
C466 C 0.54194 0.3471 0.31451 0.0
C467 C 0.54036 0.36962 0.34868 0.0
H468 H 0.24454 0.53307 0.28385 0.0
H469 H 0.21969 0.50689 0.05031 0.0
H470 H 0.20423 0.5332 0.33593 0.0
H471 H 0.1797 0.5054 0.10355 0.0
H472 H 0.10745 0.5272 0.19457 0.0
H473 H 0.14755 0.52954 0.14275 0.0
H474 H 0.17394 0.507 0.38002 0.0
H475 H 0.13393 0.50597 0.43315 0.0
C476 C 0.23047 0.52706 0.24399 0.0
C477 C 0.23539 0.5192 0.16392 0.0
C478 C 0.20739 0.52692 0.27402 0.0
C479 C 0.18864 0.51901 0.22447 0.0
C480 C 0.1936 0.51165 0.14361 0.0
C481 C 0.21666 0.51193 0.11356 0.0
C482 C 0.1218 0.52307 0.23612 0.0
C483 C 0.11735 0.51639 0.31816 0.0
C484 C 0.14484 0.52409 0.206 0.0
C485 C 0.16408 0.51837 0.25697 0.0
C486 C 0.15963 0.51179 0.33911 0.0
C487 C 0.1366 0.51087 0.36934 0.0
H488 H 0.98456 0.75235 0.09425 0.0
H489 H 0.98439 0.77501 0.34744 0.0
H490 H 0.99126 0.79297 0.0494 0.0
H491 H 0.99183 0.81544 0.30349 0.0
H492 H 0.98242 0.88875 0.19209 0.0
H493 H 0.97393 0.84844 0.23488 0.0
H494 H 0.022 0.82243 0.05031 0.0
H495 H 0.02976 0.86265 0.0055 0.0
C496 C 0.98614 0.76603 0.14025 0.0
C497 C 0.98466 0.76048 0.22437 0.0
C498 C 0.99013 0.78926 0.11475 0.0
C499 C 0.99241 0.80748 0.17287 0.0
C500 C 0.99018 0.80191 0.25698 0.0
C501 C 0.98635 0.77868 0.28235 0.0
C502 C 0.99101 0.87442 0.16014 0.0
C503 C 0.00677 0.87897 0.0953 0.0
C504 C 0.98633 0.85129 0.18525 0.0
C505 C 0.99725 0.83213 0.14601 0.0
C506 C 0.01303 0.83671 0.08125 0.0
C507 C 0.01773 0.85982 0.05624 0.0
H508 H 0.73055 0.95325 0.14878 0.0
H509 H 0.73355 0.02066 0.27017 0.0
H510 H 0.69093 0.96223 0.09936 0.0
H511 H 0.69386 0.02972 0.22085 0.0
H512 H 0.61295 0.02419 0.1981 0.0
H513 H 0.65302 0.01614 0.24457 0.0
H514 H 0.67019 0.98872 0.00424 0.0
H515 H 0.63025 0.99699 0.95736 0.0
C516 C 0.72274 0.97003 0.16462 0.0
C517 C 0.73491 0.98603 0.21484 0.0
C518 C 0.70009 0.97522 0.13614 0.0
C519 C 0.68915 0.99661 0.15673 0.0
C520 C 0.7016 0.01289 0.20527 0.0
C521 C 0.72429 0.00768 0.23375 0.0
C522 C 0.62531 0.01664 0.15488 0.0
C523 C 0.61831 0.01121 0.07395 0.0
C524 C 0.64829 0.01203 0.18157 0.0
C525 C 0.6648 0.0018 0.1281 0.0
C526 C 0.65781 0.99632 0.04731 0.0
C527 C 0.63487 0.001 0.02052 0.0
H528 H 0.47119 0.74049 0.21314 0.0
H529 H 0.54494 0.73037 0.26641 0.0
H530 H 0.46804 0.69951 0.16984 0.0
H531 H 0.54195 0.68938 0.22162 0.0
H532 H 0.53104 0.62618 0.04582 0.0
H533 H 0.535 0.66649 0.09484 0.0
H534 H 0.46989 0.65943 0.22954 0.0
H535 H 0.46611 0.61895 0.18196 0.0
C536 C 0.48664 0.72937 0.21685 0.0
C537 C 0.50816 0.73843 0.24526 0.0
C538 C 0.48487 0.70593 0.19168 0.0
C539 C 0.50468 0.69111 0.1931 0.0
C540 C 0.52637 0.70037 0.21949 0.0
C541 C 0.5281 0.72381 0.24514 0.0
C542 C 0.51775 0.63305 0.08702 0.0
C543 C 0.49823 0.61926 0.10973 0.0
C544 C 0.52001 0.6562 0.11497 0.0
C545 C 0.50274 0.6662 0.16593 0.0
C546 C 0.48335 0.65236 0.18947 0.0
C547 C 0.48117 0.62916 0.16198 0.0
H548 H 0.77737 0.53887 0.19309 0.0
H549 H 0.78597 0.47541 0.33717 0.0
H550 H 0.81618 0.53312 0.13339 0.0
H551 H 0.82487 0.46955 0.2771 0.0
H552 H 0.90238 0.47788 0.1986 0.0
H553 H 0.86496 0.48504 0.26843 0.0
H554 H 0.83391 0.50646 0.03687 0.0
H555 H 0.87119 0.4995 0.96763 0.0
C556 C 0.78761 0.52374 0.21239 0.0
C557 C 0.77865 0.50771 0.27046 0.0
C558 C 0.80983 0.52038 0.17786 0.0
C559 C 0.82358 0.50078 0.19995 0.0
C560 C 0.81485 0.485 0.2595 0.0
C561 C 0.79258 0.48841 0.29431 0.0
C562 C 0.8875 0.48405 0.16273 0.0
C563 C 0.88978 0.48827 0.07768 0.0
C564 C 0.86608 0.48812 0.20268 0.0
C565 C 0.84647 0.49646 0.15837 0.0
C566 C 0.84878 0.50053 0.07326 0.0
C567 C 0.87016 0.49653 0.03348 0.0
H568 H 0.06064 0.19497 0.89498 0.0
H569 H 0.03071 0.17246 0.12663 0.0
H570 H 0.05596 0.15535 0.84064 0.0
H571 H 0.02521 0.133 0.07148 0.0
H572 H 0.03647 0.0593 0.96726 0.0
H573 H 0.04437 0.09787 0.02611 0.0
H574 H 0.02465 0.13068 0.7955 0.0
H575 H 0.0175 0.09214 0.7359 0.0
C576 C 0.05316 0.18151 0.93442 0.0
C577 C 0.04603 0.18682 0.01499 0.0
C578 C 0.05027 0.15884 0.90306 0.0
C579 C 0.03993 0.14103 0.95124 0.0
C580 C 0.03345 0.1462 0.03285 0.0
C581 C 0.03657 0.16884 0.06451 0.0
C582 C 0.0338 0.07474 0.9291 0.0
C583 C 0.02643 0.07261 0.84674 0.0
C584 C 0.03825 0.09689 0.963 0.0
C585 C 0.03528 0.11741 0.91549 0.0
C586 C 0.02762 0.11524 0.83341 0.0
C587 C 0.02334 0.09312 0.79935 0.0
H588 H 0.32163 0.04362 0.09368 0.0
H589 H 0.2966 0.06153 0.84988 0.0
H590 H 0.36163 0.04146 0.04179 0.0
H591 H 0.33685 0.06022 0.79836 0.0
H592 H 0.4031 0.01935 0.7199 0.0
H593 H 0.36411 0.02928 0.77012 0.0
H594 H 0.395 0.0613 0.98596 0.0
H595 H 0.43406 0.05065 0.93698 0.0
C596 C 0.32474 0.0477 0.02937 0.0
C597 C 0.30591 0.05248 0.97564 0.0
C598 C 0.34774 0.04655 -0.00039 0.0
C599 C 0.35245 0.05039 0.91561 0.0
C600 C 0.33377 0.05665 0.86301 0.0
C601 C 0.31072 0.05759 0.89265 0.0
C602 C 0.40163 0.02865 0.77781 0.0
C603 C 0.4217 0.03399 0.82481 0.0
C604 C 0.37923 0.03453 0.80635 0.0
C605 C 0.37639 0.04609 0.8822 0.0
C606 C 0.39654 0.05208 0.92792 0.0
C607 C 0.41894 0.04603 0.8997 0.0
H608 H 0.44653 0.32939 0.07811 0.0
H609 H 0.47284 0.30341 0.84583 0.0
H610 H 0.45016 0.36969 0.02738 0.0
H611 H 0.47738 0.34345 0.79662 0.0
H612 H 0.46931 0.41708 0.70414 0.0
H613 H 0.45852 0.37815 0.75318 0.0
H614 H 0.48099 0.39701 0.99889 0.0
H615 H 0.49086 0.43644 0.95017 0.0
C616 C 0.45283 0.33226 0.01594 0.0
C617 C 0.45947 0.31321 0.96608 0.0
C618 C 0.45515 0.35537 0.98718 0.0
C619 C 0.46429 0.35987 0.90819 0.0
C620 C 0.47 0.34071 0.85735 0.0
C621 C 0.4675 0.31768 0.88579 0.0
C622 C 0.47192 0.41295 0.76871 0.0
C623 C 0.48112 0.42977 0.82324 0.0
C624 C 0.46577 0.39058 0.79682 0.0
C625 C 0.469 0.38433 0.87992 0.0
C626 C 0.47791 0.4013 0.93474 0.0
C627 C 0.48378 0.42385 0.90675 0.0
H628 H 0.19853 0.46411 0.73986 0.0
H629 H 0.16919 0.45677 0.98408 0.0
H630 H 0.15889 0.46337 0.68133 0.0
H631 H 0.12989 0.45696 0.92653 0.0
H632 H 0.06123 0.44441 0.81104 0.0
H633 H 0.10183 0.43636 0.84896 0.0
H634 H 0.12536 0.48871 0.67344 0.0
H635 H 0.08457 0.49586 0.63263 0.0
C636 C 0.18365 0.46214 0.78093 0.0
C637 C 0.18698 0.46055 0.86658 0.0
C638 C 0.16094 0.46189 0.74746 0.0
C639 C 0.14115 0.46017 0.79909 0.0
C640 C 0.14466 0.45785 0.88454 0.0
C641 C 0.16727 0.45788 0.91778 0.0
C642 C 0.07512 0.45399 0.7799 0.0
C643 C 0.06979 0.47105 0.72002 0.0
C644 C 0.09839 0.44946 0.80185 0.0
C645 C 0.11687 0.46224 0.76565 0.0
C646 C 0.11159 0.47844 0.70237 0.0
C647 C 0.08823 0.48267 0.67927 0.0
H648 H 0.01216 0.80879 0.56386 0.0
H649 H 0.05035 0.84006 0.36107 0.0
H650 H 0.00661 0.84738 0.62402 0.0
H651 H 0.0456 0.87881 0.42334 0.0
H652 H 0.01064 0.94663 0.5114 0.0
H653 H 0.01595 0.90791 0.44969 0.0
H654 H 0.02709 0.87789 0.6917 0.0
H655 H 0.0209 0.91622 0.7533 0.0
C656 C 0.01973 0.82388 0.53274 0.0
C657 C 0.03176 0.82135 0.45775 0.0
C658 C 0.01661 0.84605 0.56748 0.0
C659 C 0.02566 0.86623 0.52859 0.0
C660 C 0.03809 0.86367 0.45426 0.0
C661 C 0.04104 0.84144 0.41903 0.0
C662 C 0.014 0.9317 0.55137 0.0
C663 C 0.01519 0.93447 0.63724 0.0
C664 C 0.01729 0.90955 0.51597 0.0
C665 C 0.02202 0.88979 0.5657 0.0
C666 C 0.0231 0.89263 0.6516 0.0
C667 C 0.01959 0.91467 0.68696 0.0
H668 H 0.68439 0.98683 0.60552 0.0
H669 H 0.65014 0.98449 0.36818 0.0
H670 H 0.64651 0.98169 0.67333 0.0
H671 H 0.61211 0.98108 0.43513 0.0
H672 H 0.54605 0.96395 0.56416 0.0
H673 H 0.58561 0.95862 0.50951 0.0
H674 H 0.61323 0.003 0.70319 0.0
H675 H 0.57417 0.0069 0.76019 0.0
C676 C 0.66866 0.9854 0.56804 0.0
C677 C 0.67006 0.98618 0.48187 0.0
C678 C 0.64693 0.98255 0.60673 0.0
C679 C 0.62609 0.98107 0.55997 0.0
C680 C 0.6277 0.98161 0.47344 0.0
C681 C 0.64949 0.98384 0.43485 0.0
C682 C 0.56071 0.9721 0.5958 0.0
C683 C 0.557 0.98601 0.66585 0.0
C684 C 0.58337 0.96927 0.56413 0.0
C685 C 0.60267 0.98076 0.60078 0.0
C686 C 0.59898 0.99362 0.67352 0.0
C687 C 0.57645 0.996 0.70615 0.0
H688 H 0.47931 0.67213 0.37564 0.0
H689 H 0.46162 0.69073 0.62576 0.0
H690 H 0.49081 0.63295 0.42131 0.0
H691 H 0.4722 0.65123 0.67136 0.0
H692 H 0.51349 0.58718 0.74497 0.0
H693 H 0.50523 0.62666 0.69343 0.0
H694 H 0.47584 0.5969 0.47102 0.0
H695 H 0.485 0.55761 0.52111 0.0
C696 C 0.47747 0.66767 0.44022 0.0
C697 C 0.46948 0.68444 0.49716 0.0
C698 C 0.48407 0.6452 0.46648 0.0
C699 C 0.48258 0.63891 0.55019 0.0
C700 C 0.4741 0.65561 0.60675 0.0
C701 C 0.46778 0.67817 0.58059 0.0
C702 C 0.5056 0.58914 0.68453 0.0
C703 C 0.49994 0.56933 0.63704 0.0
C704 C 0.50063 0.61175 0.65529 0.0
C705 C 0.48957 0.615 0.57846 0.0
C706 C 0.4846 0.59513 0.52998 0.0
C707 C 0.48986 0.57256 0.55876 0.0
H708 H 0.809 0.4669 0.52266 0.0
H709 H 0.80105 0.50921 0.74088 0.0
H710 H 0.84973 0.47982 0.50969 0.0
H711 H 0.84104 0.52382 0.72474 0.0
H712 H 0.91868 0.50874 0.76355 0.0
H713 H 0.87658 0.50739 0.75443 0.0
H714 H 0.88096 0.50598 0.48833 0.0
H715 H 0.92397 0.50588 0.49829 0.0
C716 C 0.81575 0.4797 0.56598 0.0
C717 C 0.80208 0.48696 0.63333 0.0
C718 C 0.83912 0.48724 0.55845 0.0
C719 C 0.84906 0.5025 0.61732 0.0
C720 C 0.83441 0.51139 0.67993 0.0
C721 C 0.81138 0.50327 0.68887 0.0
C722 C 0.91082 0.50839 0.70278 0.0
C723 C 0.92481 0.50701 0.63169 0.0
C724 C 0.8864 0.50793 0.69739 0.0
C725 C 0.87504 0.50651 0.6205 0.0
C726 C 0.88902 0.50666 0.54874 0.0
C727 C 0.91369 0.50684 0.5543 0.0
loop_
_geom_bond_atom_site_label_1
_geom_bond_atom_site_label_2
_geom_bond_distance
_geom_bond_site_symmetry_2
_ccdc_geom_bond_type
O0 Cd1 2.300 . S
O0 C7 1.275 . S
Cd1 O0 2.300 . S
Cd1 O9 2.381 . S
Cd1 O10 2.378 . S
O2 Cd3 2.385 . S
O2 C7 1.255 . S
Cd3 O2 2.385 . S
Cd3 O4 2.317 . S
O4 Cd3 2.317 . S
O4 C5 1.232 . S
C5 O4 1.232 . S
C5 O6 1.218 . S
O6 C5 1.218 . S
C7 O0 1.275 . S
C7 O2 1.255 . S
C8 O9 1.258 . S
C8 O10 1.256 . S
O9 Cd1 2.381 . S
O9 C8 1.258 . S
O10 Cd1 2.378 . S
O10 C8 1.256 . S
O11 Cd12 2.300 1_655 S
O11 C18 1.275 1_655 S
Cd12 O11 2.300 1_455 S
Cd12 O20 2.381 1_455 S
Cd12 O21 2.378 . S
O13 Cd14 2.385 . S
O13 C18 1.255 . S
Cd14 O13 2.385 . S
Cd14 O15 2.317 . S
O15 Cd14 2.317 . S
O15 C16 1.232 . S
C16 O15 1.232 . S
C16 O17 1.218 . S
O17 C16 1.218 . S
C18 O11 1.275 1_455 S
C18 O13 1.255 . S
C19 O20 1.258 1_455 S
C19 O21 1.256 . S
O20 Cd12 2.381 1_655 S
O20 C19 1.258 1_655 S
O21 Cd12 2.378 . S
O21 C19 1.256 . S
O22 Cd23 2.300 1_565 S
O22 C29 1.275 1_565 S
Cd23 O22 2.300 1_545 S
Cd23 O31 2.381 1_545 S
Cd23 O32 2.378 . S
O24 Cd25 2.385 . S
O24 C29 1.255 . S
Cd25 O24 2.385 . S
Cd25 O26 2.317 . S
O26 Cd25 2.317 . S
O26 C27 1.232 . S
C27 O26 1.232 . S
C27 O28 1.218 . S
O28 C27 1.218 . S
C29 O22 1.275 1_545 S
C29 O24 1.255 . S
C30 O31 1.258 1_545 S
C30 O32 1.256 . S
O31 Cd23 2.381 1_565 S
O31 C30 1.258 1_565 S
O32 Cd23 2.378 . S
O32 C30 1.256 . S
O33 Cd34 2.300 . S
O33 C40 1.275 . S
Cd34 O33 2.300 . S
Cd34 O42 2.381 . S
Cd34 O43 2.378 . S
O35 Cd36 2.385 . S
O35 C40 1.255 . S
Cd36 O35 2.385 . S
Cd36 O37 2.317 . S
O37 Cd36 2.317 . S
O37 C38 1.232 . S
C38 O37 1.232 . S
C38 O39 1.218 . S
O39 C38 1.218 . S
C40 O33 1.275 . S
C40 O35 1.255 . S
C41 O42 1.258 . S
C41 O43 1.256 . S
O42 Cd34 2.381 . S
O42 C41 1.258 . S
O43 Cd34 2.378 . S
O43 C41 1.256 . S
O44 Cd45 2.300 . S
O44 C51 1.275 . S
Cd45 O44 2.300 . S
Cd45 O53 2.381 . S
Cd45 O54 2.378 . S
O46 Cd47 2.385 . S
O46 C51 1.255 . S
Cd47 O46 2.385 . S
Cd47 O48 2.317 1_554 S
O48 Cd47 2.317 1_556 S
O48 C49 1.232 . S
C49 O48 1.232 . S
C49 O50 1.218 . S
O50 C49 1.218 . S
C51 O44 1.275 . S
C51 O46 1.255 . S
C52 O53 1.258 . S
C52 O54 1.256 . S
O53 Cd45 2.381 . S
O53 C52 1.258 . S
O54 Cd45 2.378 . S
O54 C52 1.256 . S
O55 Cd56 2.300 1_655 S
O55 C62 1.275 1_655 S
Cd56 O55 2.300 1_455 S
Cd56 O64 2.381 1_455 S
Cd56 O65 2.378 . S
O57 Cd58 2.385 . S
O57 C62 1.255 . S
Cd58 O57 2.385 . S
Cd58 O59 2.317 1_554 S
O59 Cd58 2.317 1_556 S
O59 C60 1.232 . S
C60 O59 1.232 . S
C60 O61 1.218 . S
O61 C60 1.218 . S
C62 O55 1.275 1_455 S
C62 O57 1.255 . S
C63 O64 1.258 1_455 S
C63 O65 1.256 . S
O64 Cd56 2.381 1_655 S
O64 C63 1.258 1_655 S
O65 Cd56 2.378 . S
O65 C63 1.256 . S
O66 Cd67 2.300 1_565 S
O66 C73 1.275 1_565 S
Cd67 O66 2.300 1_545 S
Cd67 O75 2.381 1_545 S
Cd67 O76 2.378 . S
O68 Cd69 2.385 . S
O68 C73 1.255 . S
Cd69 O68 2.385 . S
Cd69 O70 2.317 1_554 S
O70 Cd69 2.317 1_556 S
O70 C71 1.232 . S
C71 O70 1.232 . S
C71 O72 1.218 . S
O72 C71 1.218 . S
C73 O66 1.275 1_545 S
C73 O68 1.255 . S
C74 O75 1.258 1_545 S
C74 O76 1.256 . S
O75 Cd67 2.381 1_565 S
O75 C74 1.258 1_565 S
O76 Cd67 2.378 . S
O76 C74 1.256 . S
O77 Cd78 2.300 . S
O77 C84 1.275 . S
Cd78 O77 2.300 . S
Cd78 O86 2.381 . S
Cd78 O87 2.378 . S
O79 Cd80 2.385 . S
O79 C84 1.255 . S
Cd80 O79 2.385 . S
Cd80 O81 2.317 1_554 S
O81 Cd80 2.317 1_556 S
O81 C82 1.232 . S
C82 O81 1.232 . S
C82 O83 1.218 . S
O83 C82 1.218 . S
C84 O77 1.275 . S
C84 O79 1.255 . S
C85 O86 1.258 . S
C85 O87 1.256 . S
O86 Cd78 2.381 . S
O86 C85 1.258 . S
O87 Cd78 2.378 . S
O87 C85 1.256 . S
C88 Eu89 2.835 . S
C88 C90 1.500 . S
C88 O108 1.257 . S
C88 O109 1.260 . S
Eu89 C88 2.835 . S
Eu89 O108 2.473 . S
Eu89 O109 2.480 . S
Eu89 O110 2.430 . S
Eu89 O111 2.670 1_545 S
Eu89 O112 2.394 . S
Eu89 O117 2.355 1_655 S
Eu89 O119 2.374 1_545 S
C90 C88 1.500 . S
C90 C91 1.377 . S
C90 C95 1.377 . S
C91 C90 1.377 . S
C91 C92 1.395 . S
C91 H120 0.931 . S
C92 C91 1.395 . S
C92 C93 1.383 . S
C92 H121 0.931 . S
C93 C92 1.383 . S
C93 C94 1.394 . S
C94 C93 1.394 . S
C94 C95 1.378 . S
C94 H122 0.931 1_655 S
C95 C90 1.377 . S
C95 C94 1.378 . S
C95 H123 0.931 1_655 S
C96 O110 1.284 . S
C96 O111 1.252 1_545 S
C97 O112 1.251 1_455 S
C97 O113 1.251 . S
C98 Eu99 2.835 . S
C98 C100 1.500 . S
C98 O114 1.257 . S
C98 O115 1.260 . S
Eu99 C98 2.835 . S
Eu99 O111 2.355 1_455 S
Eu99 O113 2.374 1_565 S
Eu99 O114 2.473 . S
Eu99 O115 2.480 . S
Eu99 O116 2.430 . S
Eu99 O117 2.670 1_565 S
Eu99 O118 2.394 . S
C100 C98 1.500 . S
C100 C101 1.377 . S
C100 C105 1.377 . S
C101 C100 1.377 . S
C101 C102 1.395 . S
C101 H124 0.931 . S
C102 C101 1.395 . S
C102 C103 1.383 1_556 S
C102 H125 0.931 . S
C103 C102 1.383 1_554 S
C103 C104 1.394 1_554 S
C104 C103 1.394 1_556 S
C104 C105 1.378 . S
C104 H126 0.931 1_456 S
C105 C100 1.377 . S
C105 C104 1.378 . S
C105 H127 0.931 1_455 S
C106 O116 1.278 . S
C106 O117 1.256 1_565 S
C107 O118 1.251 1_655 S
C107 O119 1.251 . S
O108 C88 1.257 . S
O108 Eu89 2.473 . S
O109 C88 1.260 . S
O109 Eu89 2.480 . S
O110 Eu89 2.430 . S
O110 C96 1.284 . S
O111 Eu89 2.670 1_565 S
O111 C96 1.252 1_565 S
O111 Eu99 2.355 1_655 S
O112 Eu89 2.394 . S
O112 C97 1.251 1_655 S
O113 C97 1.251 . S
O113 Eu99 2.374 1_545 S
O114 C98 1.257 . S
O114 Eu99 2.473 . S
O115 C98 1.260 . S
O115 Eu99 2.480 . S
O116 Eu99 2.430 . S
O116 C106 1.278 . S
O117 Eu89 2.355 1_455 S
O117 Eu99 2.670 1_545 S
O117 C106 1.256 1_545 S
O118 Eu99 2.394 . S
O118 C107 1.251 1_455 S
O119 Eu89 2.374 1_565 S
O119 C107 1.251 . S
H120 C91 0.931 . S
H121 C92 0.931 . S
H122 C94 0.931 1_455 S
H123 C95 0.931 1_455 S
H124 C101 0.931 . S
H125 C102 0.931 . S
H126 C104 0.931 1_654 S
H127 C105 0.931 1_655 S
C128 Eu129 2.835 . S
C128 C130 1.500 . S
C128 O148 1.257 . S
C128 O149 1.260 . S
Eu129 C128 2.835 . S
Eu129 O148 2.473 . S
Eu129 O149 2.480 . S
Eu129 O150 2.430 . S
Eu129 O151 2.670 . S
Eu129 O152 2.394 . S
Eu129 O157 2.355 1_565 S
Eu129 O159 2.374 . S
C130 C128 1.500 . S
C130 C131 1.377 . S
C130 C135 1.377 . S
C131 C130 1.377 . S
C131 C132 1.395 . S
C131 H160 0.931 . S
C132 C131 1.395 . S
C132 C133 1.383 . S
C132 H161 0.931 . S
C133 C132 1.383 . S
C133 C134 1.394 . S
C134 C133 1.394 . S
C134 C135 1.378 . S
C134 H162 0.931 1_565 S
C135 C130 1.377 . S
C135 C134 1.378 . S
C135 H163 0.931 1_565 S
C136 O150 1.259 . S
C136 O151 1.270 . S
C137 O152 1.251 1_545 S
C137 O153 1.251 . S
C138 Eu139 2.835 . S
C138 C140 1.500 . S
C138 O154 1.257 . S
C138 O155 1.260 . S
Eu139 C138 2.835 . S
Eu139 O151 2.355 1_545 S
Eu139 O153 2.374 . S
Eu139 O154 2.473 . S
Eu139 O155 2.480 . S
Eu139 O156 2.430 . S
Eu139 O157 2.670 . S
Eu139 O158 2.394 . S
C140 C138 1.500 . S
C140 C141 1.377 . S
C140 C145 1.377 . S
C141 C140 1.377 . S
C141 C142 1.395 . S
C141 H164 0.931 . S
C142 C141 1.395 . S
C142 C143 1.383 1_556 S
C142 H165 0.931 . S
C143 C142 1.383 1_554 S
C143 C144 1.394 1_554 S
C144 C143 1.394 1_556 S
C144 C145 1.378 . S
C144 H166 0.931 1_546 S
C145 C140 1.377 . S
C145 C144 1.378 . S
C145 H167 0.931 1_545 S
C146 O156 1.259 . S
C146 O157 1.270 . S
C147 O158 1.251 1_565 S
C147 O159 1.251 . S
O148 C128 1.257 . S
O148 Eu129 2.473 . S
O149 C128 1.260 . S
O149 Eu129 2.480 . S
O150 Eu129 2.430 . S
O150 C136 1.259 . S
O151 Eu129 2.670 . S
O151 C136 1.270 . S
O151 Eu139 2.355 1_565 S
O152 Eu129 2.394 . S
O152 C137 1.251 1_565 S
O153 C137 1.251 . S
O153 Eu139 2.374 . S
O154 C138 1.257 . S
O154 Eu139 2.473 . S
O155 C138 1.260 . S
O155 Eu139 2.480 . S
O156 Eu139 2.430 . S
O156 C146 1.259 . S
O157 Eu129 2.355 1_545 S
O157 Eu139 2.670 . S
O157 C146 1.270 . S
O158 Eu139 2.394 . S
O158 C147 1.251 1_545 S
O159 Eu129 2.374 . S
O159 C147 1.251 . S
H160 C131 0.931 . S
H161 C132 0.931 . S
H162 C134 0.931 1_545 S
H163 C135 0.931 1_545 S
H164 C141 0.931 . S
H165 C142 0.931 . S
H166 C144 0.931 1_564 S
H167 C145 0.931 1_565 S
C168 Eu169 2.835 . S
C168 C170 1.500 . S
C168 O188 1.257 . S
C168 O189 1.260 . S
Eu169 C168 2.835 . S
Eu169 O188 2.473 . S
Eu169 O189 2.480 . S
Eu169 O190 2.430 . S
Eu169 O191 2.670 . S
Eu169 O192 2.394 . S
Eu169 O197 2.355 . S
Eu169 O199 2.374 . S
C170 C168 1.500 . S
C170 C171 1.377 . S
C170 C175 1.377 . S
C171 C170 1.377 . S
C171 C172 1.395 . S
C171 H200 0.931 . S
C172 C171 1.395 . S
C172 C173 1.383 . S
C172 H201 0.931 . S
C173 C172 1.383 . S
C173 C174 1.394 . S
C174 C173 1.394 . S
C174 C175 1.378 . S
C174 H202 0.931 . S
C175 C170 1.377 . S
C175 C174 1.378 . S
C175 H203 0.931 . S
C176 O190 1.259 . S
C176 O191 1.270 . S
C177 O192 1.251 . S
C177 O193 1.251 . S
C178 Eu179 2.835 . S
C178 C180 1.500 . S
C178 O194 1.257 . S
C178 O195 1.260 . S
Eu179 C178 2.835 . S
Eu179 O191 2.355 . S
Eu179 O193 2.374 . S
Eu179 O194 2.473 . S
Eu179 O195 2.480 . S
Eu179 O196 2.430 . S
Eu179 O197 2.670 . S
Eu179 O198 2.394 . S
C180 C178 1.500 . S
C180 C181 1.377 . S
C180 C185 1.377 . S
C181 C180 1.377 . S
C181 C182 1.395 . S
C181 H204 0.931 . S
C182 C181 1.395 . S
C182 C183 1.383 1_556 S
C182 H205 0.931 . S
C183 C182 1.383 1_554 S
C183 C184 1.394 1_554 S
C184 C183 1.394 1_556 S
C184 C185 1.378 . S
C184 H206 0.931 1_556 S
C185 C180 1.377 . S
C185 C184 1.378 . S
C185 H207 0.931 . S
C186 O196 1.259 . S
C186 O197 1.270 . S
C187 O198 1.251 . S
C187 O199 1.251 . S
O188 C168 1.257 . S
O188 Eu169 2.473 . S
O189 C168 1.260 . S
O189 Eu169 2.480 . S
O190 Eu169 2.430 . S
O190 C176 1.259 . S
O191 Eu169 2.670 . S
O191 C176 1.270 . S
O191 Eu179 2.355 . S
O192 Eu169 2.394 . S
O192 C177 1.251 . S
O193 C177 1.251 . S
O193 Eu179 2.374 . S
O194 C178 1.257 . S
O194 Eu179 2.473 . S
O195 C178 1.260 . S
O195 Eu179 2.480 . S
O196 Eu179 2.430 . S
O196 C186 1.259 . S
O197 Eu169 2.355 . S
O197 Eu179 2.670 . S
O197 C186 1.270 . S
O198 Eu179 2.394 . S
O198 C187 1.251 . S
O199 Eu169 2.374 . S
O199 C187 1.251 . S
H200 C171 0.931 . S
H201 C172 0.931 . S
H202 C174 0.931 . S
H203 C175 0.931 . S
H204 C181 0.931 . S
H205 C182 0.931 . S
H206 C184 0.931 1_554 S
H207 C185 0.931 . S
C208 Eu209 2.835 . S
C208 C210 1.500 . S
C208 O228 1.257 . S
C208 O229 1.260 . S
Eu209 C208 2.835 . S
Eu209 O228 2.473 . S
Eu209 O229 2.480 . S
Eu209 O230 2.430 . S
Eu209 O231 2.670 1_455 S
Eu209 O232 2.394 . S
Eu209 O237 2.355 . S
Eu209 O239 2.374 1_455 S
C210 C208 1.500 . S
C210 C211 1.377 . S
C210 C215 1.377 . S
C211 C210 1.377 . S
C211 C212 1.395 . S
C211 H240 0.931 . S
C212 C211 1.395 . S
C212 C213 1.383 . S
C212 H241 0.931 . S
C213 C212 1.383 . S
C213 C214 1.394 . S
C214 C213 1.394 . S
C214 C215 1.378 . S
C214 H242 0.931 . S
C215 C210 1.377 . S
C215 C214 1.378 . S
C215 H243 0.931 . S
C216 O230 1.272 . S
C216 O231 1.260 1_455 S
C217 O232 1.251 . S
C217 O233 1.251 . S
C218 Eu219 2.835 . S
C218 C220 1.500 . S
C218 O234 1.257 . S
C218 O235 1.260 . S
Eu219 C218 2.835 . S
Eu219 O231 2.355 . S
Eu219 O233 2.374 1_655 S
Eu219 O234 2.473 . S
Eu219 O235 2.480 . S
Eu219 O236 2.430 . S
Eu219 O237 2.670 1_655 S
Eu219 O238 2.394 . S
C220 C218 1.500 . S
C220 C221 1.377 . S
C220 C225 1.377 . S
C221 C220 1.377 . S
C221 C222 1.395 . S
C221 H244 0.931 . S
C222 C221 1.395 . S
C222 C223 1.383 1_556 S
C222 H245 0.931 . S
C223 C222 1.383 1_554 S
C223 C224 1.394 1_554 S
C224 C223 1.394 1_556 S
C224 C225 1.378 . S
C224 H246 0.931 1_556 S
C225 C220 1.377 . S
C225 C224 1.378 . S
C225 H247 0.931 . S
C226 O236 1.267 . S
C226 O237 1.264 1_655 S
C227 O238 1.251 . S
C227 O239 1.251 . S
O228 C208 1.257 . S
O228 Eu209 2.473 . S
O229 C208 1.260 . S
O229 Eu209 2.480 . S
O230 Eu209 2.430 . S
O230 C216 1.272 . S
O231 Eu209 2.670 1_655 S
O231 C216 1.260 1_655 S
O231 Eu219 2.355 . S
O232 Eu209 2.394 . S
O232 C217 1.251 . S
O233 C217 1.251 . S
O233 Eu219 2.374 1_455 S
O234 C218 1.257 . S
O234 Eu219 2.473 . S
O235 C218 1.260 . S
O235 Eu219 2.480 . S
O236 Eu219 2.430 . S
O236 C226 1.267 . S
O237 Eu209 2.355 . S
O237 Eu219 2.670 1_455 S
O237 C226 1.264 1_455 S
O238 Eu219 2.394 . S
O238 C227 1.251 . S
O239 Eu209 2.374 1_655 S
O239 C227 1.251 . S
H240 C211 0.931 . S
H241 C212 0.931 . S
H242 C214 0.931 . S
H243 C215 0.931 . S
H244 C221 0.931 . S
H245 C222 0.931 . S
H246 C224 0.931 1_554 S
H247 C225 0.931 . S
H248 C256 0.950 . S
H249 C261 0.950 . S
H250 C258 0.950 . S
H251 C260 0.950 . S
H252 C262 0.950 . S
H253 C264 0.950 . S
H254 C266 0.950 . S
H255 C267 0.950 . S
C256 H248 0.950 . S
C256 C257 1.367 1_565 S
C256 C258 1.391 . S
C257 C256 1.367 1_545 S
C257 C261 1.412 . S
C258 H250 0.950 . S
C258 C256 1.391 . S
C258 C259 1.382 1_565 S
C259 C258 1.382 1_545 S
C259 C260 1.417 . S
C259 C265 1.491 . S
C260 H251 0.950 . S
C260 C259 1.417 . S
C260 C261 1.391 . S
C261 H249 0.950 . S
C261 C257 1.412 . S
C261 C260 1.391 . S
C262 H252 0.950 . S
C262 C263 1.392 . S
C262 C264 1.391 . S
C263 C262 1.392 . S
C263 C267 1.386 1_545 S
C264 H253 0.950 . S
C264 C262 1.391 . S
C264 C265 1.407 . S
C265 C259 1.491 . S
C265 C264 1.407 . S
C265 C266 1.391 1_545 S
C266 H254 0.950 . S
C266 C265 1.391 1_565 S
C266 C267 1.391 . S
C267 H255 0.950 . S
C267 C263 1.386 1_565 S
C267 C266 1.391 . S
H268 C276 0.950 . S
H269 C281 0.950 . S
H270 C278 0.950 . S
H271 C280 0.950 . S
H272 C282 0.950 . S
H273 C284 0.950 . S
H274 C286 0.950 . S
H275 C287 0.950 . S
C276 H268 0.950 . S
C276 C277 1.386 . S
C276 C278 1.391 . S
C277 C276 1.386 . S
C277 C281 1.393 . S
C278 H270 0.950 . S
C278 C276 1.391 . S
C278 C279 1.400 . S
C279 C278 1.400 . S
C279 C280 1.398 . S
C279 C285 1.491 . S
C280 H271 0.950 . S
C280 C279 1.398 . S
C280 C281 1.391 . S
C281 H269 0.950 . S
C281 C277 1.393 . S
C281 C280 1.391 . S
C282 H272 0.950 . S
C282 C283 1.386 . S
C282 C284 1.391 . S
C283 C282 1.386 . S
C283 C287 1.393 . S
C284 H273 0.950 . S
C284 C282 1.391 . S
C284 C285 1.400 . S
C285 C279 1.491 . S
C285 C284 1.400 . S
C285 C286 1.398 . S
C286 H274 0.950 . S
C286 C285 1.398 . S
C286 C287 1.391 . S
C287 H275 0.950 . S
C287 C283 1.393 . S
C287 C286 1.391 . S
H288 C296 0.950 . S
H289 C301 0.950 . S
H290 C298 0.950 . S
H291 C300 0.950 . S
H292 C302 0.950 . S
H293 C304 0.950 . S
H294 C306 0.950 . S
H295 C307 0.950 . S
C296 H288 0.950 . S
C296 C297 1.386 . S
C296 C298 1.391 . S
C297 C296 1.386 . S
C297 C301 1.393 . S
C298 H290 0.950 . S
C298 C296 1.391 . S
C298 C299 1.400 . S
C299 C298 1.400 . S
C299 C300 1.398 . S
C299 C305 1.491 . S
C300 H291 0.950 . S
C300 C299 1.398 . S
C300 C301 1.391 . S
C301 H289 0.950 . S
C301 C297 1.393 . S
C301 C300 1.391 . S
C302 H292 0.950 . S
C302 C303 1.386 . S
C302 C304 1.391 . S
C303 C302 1.386 . S
C303 C307 1.393 . S
C304 H293 0.950 . S
C304 C302 1.391 . S
C304 C305 1.400 . S
C305 C299 1.491 . S
C305 C304 1.400 . S
C305 C306 1.398 . S
C306 H294 0.950 . S
C306 C305 1.398 . S
C306 C307 1.391 . S
C307 H295 0.950 . S
C307 C303 1.393 . S
C307 C306 1.391 . S
H308 C316 0.950 . S
H309 C321 0.950 . S
H310 C318 0.950 . S
H311 C320 0.950 . S
H312 C322 0.950 . S
H313 C324 0.950 . S
H314 C326 0.950 . S
H315 C327 0.950 . S
C316 H308 0.950 . S
C316 C317 1.407 . S
C316 C318 1.391 . S
C317 C316 1.407 . S
C317 C321 1.373 1_455 S
C318 H310 0.950 . S
C318 C316 1.391 . S
C318 C319 1.421 . S
C319 C318 1.421 . S
C319 C320 1.380 1_455 S
C319 C325 1.490 . S
C320 H311 0.950 . S
C320 C319 1.380 1_655 S
C320 C321 1.391 . S
C321 H309 0.950 . S
C321 C317 1.373 1_655 S
C321 C320 1.391 . S
C322 H312 0.950 . S
C322 C323 1.381 1_655 S
C322 C324 1.391 . S
C323 C322 1.381 1_455 S
C323 C327 1.398 . S
C324 H313 0.950 . S
C324 C322 1.391 . S
C324 C325 1.395 1_655 S
C325 C319 1.490 . S
C325 C324 1.395 1_455 S
C325 C326 1.404 . S
C326 H314 0.950 . S
C326 C325 1.404 . S
C326 C327 1.391 . S
C327 H315 0.950 . S
C327 C323 1.398 . S
C327 C326 1.391 . S
H328 C336 0.950 . S
H329 C341 0.950 . S
H330 C338 0.950 . S
H331 C340 0.950 . S
H332 C342 0.950 . S
H333 C344 0.950 . S
H334 C346 0.950 . S
H335 C347 0.950 . S
C336 H328 0.950 . S
C336 C337 1.400 . S
C336 C338 1.391 . S
C337 C336 1.400 . S
C337 C341 1.379 1_565 S
C338 H330 0.950 . S
C338 C336 1.391 . S
C338 C339 1.410 . S
C339 C338 1.410 . S
C339 C340 1.389 1_565 S
C339 C345 1.490 1_565 S
C340 H331 0.950 . S
C340 C339 1.389 1_545 S
C340 C341 1.391 . S
C341 H329 0.950 . S
C341 C337 1.379 1_545 S
C341 C340 1.391 . S
C342 H332 0.950 . S
C342 C343 1.391 . S
C342 C344 1.391 . S
C343 C342 1.391 . S
C343 C347 1.388 1_545 S
C344 H333 0.950 . S
C344 C342 1.391 . S
C344 C345 1.401 1_556 S
C345 C339 1.490 1_545 S
C345 C344 1.401 1_554 S
C345 C346 1.397 1_545 S
C346 H334 0.950 . S
C346 C345 1.397 1_565 S
C346 C347 1.391 1_554 S
C347 H335 0.950 . S
C347 C343 1.388 1_565 S
C347 C346 1.391 1_556 S
H348 C356 0.950 . S
H349 C361 0.950 . S
H350 C358 0.950 . S
H351 C360 0.950 . S
H352 C362 0.950 . S
H353 C364 0.950 . S
H354 C366 0.950 . S
H355 C367 0.950 . S
C356 H348 0.950 . S
C356 C357 1.386 . S
C356 C358 1.391 . S
C357 C356 1.386 . S
C357 C361 1.393 . S
C358 H350 0.950 . S
C358 C356 1.391 . S
C358 C359 1.400 . S
C359 C358 1.400 . S
C359 C360 1.398 . S
C359 C365 1.491 . S
C360 H351 0.950 . S
C360 C359 1.398 . S
C360 C361 1.391 . S
C361 H349 0.950 . S
C361 C357 1.393 . S
C361 C360 1.391 . S
C362 H352 0.950 . S
C362 C363 1.386 . S
C362 C364 1.391 1_556 S
C363 C362 1.386 . S
C363 C367 1.393 . S
C364 H353 0.950 . S
C364 C362 1.391 1_554 S
C364 C365 1.400 . S
C365 C359 1.491 . S
C365 C364 1.400 . S
C365 C366 1.398 1_554 S
C366 H354 0.950 . S
C366 C365 1.398 1_556 S
C366 C367 1.391 . S
C367 H355 0.950 . S
C367 C363 1.393 . S
C367 C366 1.391 . S
H368 C376 0.950 . S
H369 C381 0.950 . S
H370 C378 0.950 . S
H371 C380 0.950 . S
H372 C382 0.950 . S
H373 C384 0.950 1_554 S
H374 C386 0.950 . S
H375 C387 0.950 . S
C376 H368 0.950 . S
C376 C377 1.386 . S
C376 C378 1.391 . S
C377 C376 1.386 . S
C377 C381 1.393 . S
C378 H370 0.950 . S
C378 C376 1.391 . S
C378 C379 1.400 . S
C379 C378 1.400 . S
C379 C380 1.398 . S
C379 C385 1.491 . S
C380 H371 0.950 . S
C380 C379 1.398 . S
C380 C381 1.391 . S
C381 H369 0.950 . S
C381 C377 1.393 . S
C381 C380 1.391 . S
C382 H372 0.950 . S
C382 C383 1.386 . S
C382 C384 1.391 . S
C383 C382 1.386 . S
C383 C387 1.393 . S
C384 H373 0.950 1_556 S
C384 C382 1.391 . S
C384 C385 1.400 1_556 S
C385 C379 1.491 . S
C385 C384 1.400 1_554 S
C385 C386 1.398 1_554 S
C386 H374 0.950 . S
C386 C385 1.398 1_556 S
C386 C387 1.391 . S
C387 H375 0.950 . S
C387 C383 1.393 . S
C387 C386 1.391 . S
H388 C396 0.950 . S
H389 C401 0.950 . S
H390 C398 0.950 . S
H391 C400 0.950 . S
H392 C402 0.950 . S
H393 C404 0.950 . S
H394 C406 0.950 . S
H395 C407 0.950 . S
C396 H388 0.950 . S
C396 C397 1.391 . S
C396 C398 1.391 . S
C397 C396 1.391 . S
C397 C401 1.389 1_455 S
C398 H390 0.950 . S
C398 C396 1.391 . S
C398 C399 1.400 1_455 S
C399 C398 1.400 1_655 S
C399 C400 1.398 . S
C399 C405 1.491 . S
C400 H391 0.950 . S
C400 C399 1.398 . S
C400 C401 1.391 . S
C401 H389 0.950 . S
C401 C397 1.389 1_655 S
C401 C400 1.391 . S
C402 H392 0.950 . S
C402 C403 1.386 . S
C402 C404 1.391 1_556 S
C403 C402 1.386 . S
C403 C407 1.393 1_655 S
C404 H393 0.950 . S
C404 C402 1.391 1_554 S
C404 C405 1.400 . S
C405 C399 1.491 . S
C405 C404 1.400 . S
C405 C406 1.398 1_654 S
C406 H394 0.950 . S
C406 C405 1.398 1_456 S
C406 C407 1.391 . S
C407 H395 0.950 . S
C407 C403 1.393 1_455 S
C407 C406 1.391 . S
H408 C416 0.950 . S
H409 C421 0.950 . S
H410 C418 0.950 . S
H411 C420 0.950 . S
H412 C422 0.950 . S
H413 C424 0.950 . S
H414 C426 0.950 1_455 S
H415 C427 0.950 1_455 S
C416 H408 0.950 . S
C416 C417 1.386 . S
C416 C418 1.391 . S
C417 C416 1.386 . S
C417 C421 1.393 1_455 S
C418 H410 0.950 . S
C418 C416 1.391 . S
C418 C419 1.400 1_455 S
C419 C418 1.400 1_655 S
C419 C420 1.398 . S
C419 C425 1.491 . S
C420 H411 0.950 . S
C420 C419 1.398 . S
C420 C421 1.391 . S
C421 H409 0.950 . S
C421 C417 1.393 1_655 S
C421 C420 1.391 . S
C422 H412 0.950 . S
C422 C423 1.386 . S
C422 C424 1.391 . S
C423 C422 1.386 . S
C423 C427 1.393 . S
C424 H413 0.950 . S
C424 C422 1.391 . S
C424 C425 1.400 . S
C425 C419 1.491 . S
C425 C424 1.400 . S
C425 C426 1.398 . S
C426 H414 0.950 1_655 S
C426 C425 1.398 . S
C426 C427 1.391 . S
C427 H415 0.950 1_655 S
C427 C423 1.393 . S
C427 C426 1.391 . S
H428 C436 0.950 . S
H429 C441 0.957 . S
H430 C438 0.950 . S
H431 C440 0.950 . S
H432 C442 0.950 . S
H433 C444 0.950 . S
H434 C446 0.950 . S
H435 C447 0.950 . S
C436 H428 0.950 . S
C436 C437 1.386 1_565 S
C436 C438 1.391 . S
C437 C436 1.386 1_545 S
C437 C441 1.395 . S
C438 H430 0.950 . S
C438 C436 1.391 . S
C438 C439 1.400 . S
C439 C438 1.400 . S
C439 C440 1.398 . S
C439 C445 1.491 . S
C440 H431 0.950 . S
C440 C439 1.398 . S
C440 C441 1.383 1_565 S
C441 H429 0.957 . S
C441 C437 1.395 . S
C441 C440 1.383 1_545 S
C442 H432 0.950 . S
C442 C443 1.386 . S
C442 C444 1.391 . S
C443 C442 1.386 . S
C443 C447 1.393 . S
C444 H433 0.950 . S
C444 C442 1.391 . S
C444 C445 1.400 . S
C445 C439 1.491 . S
C445 C444 1.400 . S
C445 C446 1.398 . S
C446 H434 0.950 . S
C446 C445 1.398 . S
C446 C447 1.391 . S
C447 H435 0.950 . S
C447 C443 1.393 . S
C447 C446 1.391 . S
H448 C456 0.950 . S
H449 C461 0.950 . S
H450 C458 0.950 . S
H451 C460 0.950 . S
H452 C462 0.950 . S
H453 C464 0.950 . S
H454 C466 0.950 . S
H455 C467 0.950 . S
C456 H448 0.950 . S
C456 C457 1.386 . S
C456 C458 1.391 . S
C457 C456 1.386 . S
C457 C461 1.393 . S
C458 H450 0.950 . S
C458 C456 1.391 . S
C458 C459 1.400 . S
C459 C458 1.400 . S
C459 C460 1.398 . S
C459 C465 1.491 . S
C460 H451 0.950 . S
C460 C459 1.398 . S
C460 C461 1.391 . S
C461 H449 0.950 . S
C461 C457 1.393 . S
C461 C460 1.391 . S
C462 H452 0.950 . S
C462 C463 1.386 . S
C462 C464 1.391 . S
C463 C462 1.386 . S
C463 C467 1.393 . S
C464 H453 0.950 . S
C464 C462 1.391 . S
C464 C465 1.400 . S
C465 C459 1.491 . S
C465 C464 1.400 . S
C465 C466 1.398 . S
C466 H454 0.950 . S
C466 C465 1.398 . S
C466 C467 1.391 . S
C467 H455 0.950 . S
C467 C463 1.393 . S
C467 C466 1.391 . S
H468 C476 0.950 . S
H469 C481 0.950 . S
H470 C478 0.950 . S
H471 C480 0.950 . S
H472 C482 0.950 . S
H473 C484 0.950 . S
H474 C486 0.950 . S
H475 C487 0.950 . S
C476 H468 0.950 . S
C476 C477 1.386 . S
C476 C478 1.391 . S
C477 C476 1.386 . S
C477 C481 1.393 . S
C478 H470 0.950 . S
C478 C476 1.391 . S
C478 C479 1.400 . S
C479 C478 1.400 . S
C479 C480 1.398 . S
C479 C485 1.491 . S
C480 H471 0.950 . S
C480 C479 1.398 . S
C480 C481 1.391 . S
C481 H469 0.950 . S
C481 C477 1.393 . S
C481 C480 1.391 . S
C482 H472 0.950 . S
C482 C483 1.386 . S
C482 C484 1.391 . S
C483 C482 1.386 . S
C483 C487 1.393 . S
C484 H473 0.950 . S
C484 C482 1.391 . S
C484 C485 1.400 . S
C485 C479 1.491 . S
C485 C484 1.400 . S
C485 C486 1.398 . S
C486 H474 0.950 . S
C486 C485 1.398 . S
C486 C487 1.391 . S
C487 H475 0.950 . S
C487 C483 1.393 . S
C487 C486 1.391 . S
H488 C496 0.950 . S
H489 C501 0.950 . S
H490 C498 0.950 . S
H491 C500 0.950 . S
H492 C502 0.950 . S
H493 C504 0.950 . S
H494 C506 0.950 . S
H495 C507 0.962 . S
C496 H488 0.950 . S
C496 C497 1.386 1_455 S
C496 C498 1.391 . S
C497 C496 1.386 1_655 S
C497 C501 1.393 . S
C498 H490 0.950 . S
C498 C496 1.391 . S
C498 C499 1.400 . S
C499 C498 1.400 . S
C499 C500 1.398 1_455 S
C499 C505 1.491 . S
C500 H491 0.950 . S
C500 C499 1.398 1_655 S
C500 C501 1.391 . S
C501 H489 0.950 . S
C501 C497 1.393 . S
C501 C500 1.391 . S
C502 H492 0.950 . S
C502 C503 1.386 . S
C502 C504 1.391 . S
C503 C502 1.386 . S
C503 C507 1.388 1_554 S
C504 H493 0.950 . S
C504 C502 1.391 . S
C504 C505 1.400 . S
C505 C499 1.491 . S
C505 C504 1.400 . S
C505 C506 1.398 . S
C506 H494 0.950 . S
C506 C505 1.398 . S
C506 C507 1.383 1_554 S
C507 H495 0.962 . S
C507 C503 1.388 1_556 S
C507 C506 1.383 1_556 S
H508 C516 0.950 . S
H509 C521 0.950 . S
H510 C518 0.950 . S
H511 C520 0.950 . S
H512 C522 0.950 . S
H513 C524 0.950 . S
H514 C526 0.957 . S
H515 C527 0.950 1_565 S
C516 H508 0.950 . S
C516 C517 1.411 . S
C516 C518 1.391 . S
C517 C516 1.411 . S
C517 C521 1.359 1_565 S
C518 H510 0.950 . S
C518 C516 1.391 . S
C518 C519 1.400 1_565 S
C519 C518 1.400 1_545 S
C519 C520 1.398 . S
C519 C525 1.491 . S
C520 H511 0.950 . S
C520 C519 1.398 . S
C520 C521 1.391 . S
C521 H509 0.950 . S
C521 C517 1.359 1_545 S
C521 C520 1.391 . S
C522 H512 0.950 . S
C522 C523 1.386 . S
C522 C524 1.391 . S
C523 C522 1.386 . S
C523 C527 1.393 . S
C524 H513 0.950 . S
C524 C522 1.391 . S
C524 C525 1.400 . S
C525 C519 1.491 . S
C525 C524 1.400 . S
C525 C526 1.393 1_545 S
C526 H514 0.957 . S
C526 C525 1.393 1_565 S
C526 C527 1.389 1_565 S
C527 H515 0.950 1_545 S
C527 C523 1.393 . S
C527 C526 1.389 1_545 S
H528 C536 0.950 . S
H529 C541 0.950 . S
H530 C538 0.950 . S
H531 C540 0.950 . S
H532 C542 0.950 . S
H533 C544 0.950 . S
H534 C546 0.950 . S
H535 C547 0.950 . S
C536 H528 0.950 . S
C536 C537 1.386 . S
C536 C538 1.391 . S
C537 C536 1.386 . S
C537 C541 1.393 . S
C538 H530 0.950 . S
C538 C536 1.391 . S
C538 C539 1.400 . S
C539 C538 1.400 . S
C539 C540 1.398 . S
C539 C545 1.491 . S
C540 H531 0.950 . S
C540 C539 1.398 . S
C540 C541 1.391 . S
C541 H529 0.950 . S
C541 C537 1.393 . S
C541 C540 1.391 . S
C542 H532 0.950 . S
C542 C543 1.386 1_556 S
C542 C544 1.391 1_556 S
C543 C542 1.386 1_554 S
C543 C547 1.393 . S
C544 H533 0.950 . S
C544 C542 1.391 1_554 S
C544 C545 1.400 . S
C545 C539 1.491 . S
C545 C544 1.400 . S
C545 C546 1.398 . S
C546 H534 0.950 . S
C546 C545 1.398 . S
C546 C547 1.391 . S
C547 H535 0.950 . S
C547 C543 1.393 . S
C547 C546 1.391 . S
H548 C556 0.950 . S
H549 C561 0.950 . S
H550 C558 0.950 . S
H551 C560 0.950 . S
H552 C562 0.950 . S
H553 C564 0.950 . S
H554 C566 0.950 . S
H555 C567 0.950 . S
C556 H548 0.950 . S
C556 C557 1.386 . S
C556 C558 1.391 . S
C557 C556 1.386 . S
C557 C561 1.393 . S
C558 H550 0.950 . S
C558 C556 1.391 . S
C558 C559 1.400 . S
C559 C558 1.400 . S
C559 C560 1.398 . S
C559 C565 1.491 . S
C560 H551 0.950 . S
C560 C559 1.398 . S
C560 C561 1.391 . S
C561 H549 0.950 . S
C561 C557 1.393 . S
C561 C560 1.391 . S
C562 H552 0.950 . S
C562 C563 1.386 . S
C562 C564 1.391 . S
C563 C562 1.386 . S
C563 C567 1.393 . S
C564 H553 0.950 . S
C564 C562 1.391 . S
C564 C565 1.400 . S
C565 C559 1.491 . S
C565 C564 1.400 . S
C565 C566 1.398 . S
C566 H554 0.950 . S
C566 C565 1.398 . S
C566 C567 1.391 . S
C567 H555 0.950 . S
C567 C563 1.393 . S
C567 C566 1.391 . S
H568 C576 0.950 . S
H569 C581 0.950 . S
H570 C578 0.950 . S
H571 C580 0.950 . S
H572 C582 0.950 . S
H573 C584 0.950 . S
H574 C586 0.950 . S
H575 C587 0.950 . S
C576 H568 0.950 . S
C576 C577 1.386 . S
C576 C578 1.391 . S
C577 C576 1.386 . S
C577 C581 1.393 1_455 S
C578 H570 0.950 . S
C578 C576 1.391 . S
C578 C579 1.400 . S
C579 C578 1.400 . S
C579 C580 1.398 1_455 S
C579 C585 1.491 . S
C580 H571 0.950 . S
C580 C579 1.398 1_655 S
C580 C581 1.391 . S
C581 H569 0.950 . S
C581 C577 1.393 1_655 S
C581 C580 1.391 . S
C582 H572 0.950 . S
C582 C583 1.386 1_655 S
C582 C584 1.391 . S
C583 C582 1.386 1_455 S
C583 C587 1.393 . S
C584 H573 0.950 . S
C584 C582 1.391 . S
C584 C585 1.400 1_655 S
C585 C579 1.491 . S
C585 C584 1.400 1_455 S
C585 C586 1.398 . S
C586 H574 0.950 . S
C586 C585 1.398 . S
C586 C587 1.391 . S
C587 H575 0.950 . S
C587 C583 1.393 . S
C587 C586 1.391 . S
H588 C596 0.947 1_565 S
H589 C601 0.950 . S
H590 C598 0.950 . S
H591 C600 0.950 . S
H592 C602 0.950 . S
H593 C604 0.950 . S
H594 C606 0.950 . S
H595 C607 0.950 . S
C596 H588 0.947 1_545 S
C596 C597 1.386 . S
C596 C598 1.394 . S
C597 C596 1.386 . S
C597 C601 1.395 . S
C598 H590 0.950 . S
C598 C596 1.394 . S
C598 C599 1.400 . S
C599 C598 1.400 . S
C599 C600 1.398 . S
C599 C605 1.491 . S
C600 H591 0.950 . S
C600 C599 1.398 . S
C600 C601 1.391 . S
C601 H589 0.950 . S
C601 C597 1.395 . S
C601 C600 1.391 . S
C602 H592 0.950 . S
C602 C603 1.386 . S
C602 C604 1.391 . S
C603 C602 1.386 . S
C603 C607 1.393 . S
C604 H593 0.950 . S
C604 C602 1.391 . S
C604 C605 1.400 . S
C605 C599 1.491 . S
C605 C604 1.400 . S
C605 C606 1.398 . S
C606 H594 0.950 . S
C606 C605 1.398 . S
C606 C607 1.391 . S
C607 H595 0.950 . S
C607 C603 1.393 . S
C607 C606 1.391 . S
H608 C616 0.950 . S
H609 C621 0.950 . S
H610 C618 0.950 . S
H611 C620 0.950 . S
H612 C622 0.950 . S
H613 C624 0.950 . S
H614 C626 0.950 . S
H615 C627 0.950 . S
C616 H608 0.950 . S
C616 C617 1.386 . S
C616 C618 1.391 . S
C617 C616 1.386 . S
C617 C621 1.393 . S
C618 H610 0.950 . S
C618 C616 1.391 . S
C618 C619 1.400 . S
C619 C618 1.400 . S
C619 C620 1.398 . S
C619 C625 1.491 . S
C620 H611 0.950 . S
C620 C619 1.398 . S
C620 C621 1.391 . S
C621 H609 0.950 . S
C621 C617 1.393 . S
C621 C620 1.391 . S
C622 H612 0.950 . S
C622 C623 1.386 . S
C622 C624 1.391 . S
C623 C622 1.386 . S
C623 C627 1.393 . S
C624 H613 0.950 . S
C624 C622 1.391 . S
C624 C625 1.400 . S
C625 C619 1.491 . S
C625 C624 1.400 . S
C625 C626 1.398 . S
C626 H614 0.950 . S
C626 C625 1.398 . S
C626 C627 1.391 . S
C627 H615 0.950 . S
C627 C623 1.393 . S
C627 C626 1.391 . S
H628 C636 0.950 . S
H629 C641 0.950 . S
H630 C638 0.950 . S
H631 C640 0.950 . S
H632 C642 0.950 . S
H633 C644 0.950 . S
H634 C646 0.950 . S
H635 C647 0.950 . S
C636 H628 0.950 . S
C636 C637 1.386 . S
C636 C638 1.391 . S
C637 C636 1.386 . S
C637 C641 1.393 . S
C638 H630 0.950 . S
C638 C636 1.391 . S
C638 C639 1.400 . S
C639 C638 1.400 . S
C639 C640 1.398 . S
C639 C645 1.491 . S
C640 H631 0.950 . S
C640 C639 1.398 . S
C640 C641 1.391 . S
C641 H629 0.950 . S
C641 C637 1.393 . S
C641 C640 1.391 . S
C642 H632 0.950 . S
C642 C643 1.386 . S
C642 C644 1.391 . S
C643 C642 1.386 . S
C643 C647 1.393 . S
C644 H633 0.950 . S
C644 C642 1.391 . S
C644 C645 1.400 . S
C645 C639 1.491 . S
C645 C644 1.400 . S
C645 C646 1.398 . S
C646 H634 0.950 . S
C646 C645 1.398 . S
C646 C647 1.391 . S
C647 H635 0.950 . S
C647 C643 1.393 . S
C647 C646 1.391 . S
H648 C656 0.950 . S
H649 C661 0.950 . S
H650 C658 0.950 . S
H651 C660 0.950 . S
H652 C662 0.950 . S
H653 C664 0.950 . S
H654 C666 0.950 . S
H655 C667 0.950 . S
C656 H648 0.950 . S
C656 C657 1.367 1_455 S
C656 C658 1.391 . S
C657 C656 1.367 1_655 S
C657 C661 1.415 . S
C658 H650 0.950 . S
C658 C656 1.391 . S
C658 C659 1.400 1_455 S
C659 C658 1.400 1_655 S
C659 C660 1.398 . S
C659 C665 1.491 . S
C660 H651 0.950 . S
C660 C659 1.398 . S
C660 C661 1.391 . S
C661 H649 0.950 . S
C661 C657 1.415 . S
C661 C660 1.391 . S
C662 H652 0.950 . S
C662 C663 1.386 . S
C662 C664 1.391 . S
C663 C662 1.386 . S
C663 C667 1.393 1_655 S
C664 H653 0.950 . S
C664 C662 1.391 . S
C664 C665 1.400 . S
C665 C659 1.491 . S
C665 C664 1.400 . S
C665 C666 1.398 1_655 S
C666 H654 0.950 . S
C666 C665 1.398 1_455 S
C666 C667 1.391 . S
C667 H655 0.950 . S
C667 C663 1.393 1_455 S
C667 C666 1.391 . S
H668 C676 0.950 . S
H669 C681 0.950 . S
H670 C678 0.950 . S
H671 C680 0.950 . S
H672 C682 0.950 . S
H673 C684 0.950 . S
H674 C686 0.950 . S
H675 C687 0.950 . S
C676 H668 0.950 . S
C676 C677 1.354 1_545 S
C676 C678 1.391 . S
C677 C676 1.354 1_565 S
C677 C681 1.427 . S
C678 H670 0.950 . S
C678 C676 1.391 . S
C678 C679 1.400 1_545 S
C679 C678 1.400 1_565 S
C679 C680 1.398 . S
C679 C685 1.491 . S
C680 H671 0.950 . S
C680 C679 1.398 . S
C680 C681 1.391 . S
C681 H669 0.950 . S
C681 C677 1.427 . S
C681 C680 1.391 . S
C682 H672 0.950 . S
C682 C683 1.386 . S
C682 C684 1.391 . S
C683 C682 1.386 . S
C683 C687 1.393 1_565 S
C684 H673 0.950 . S
C684 C682 1.391 . S
C684 C685 1.400 . S
C685 C679 1.491 . S
C685 C684 1.400 . S
C685 C686 1.398 1_565 S
C686 H674 0.950 . S
C686 C685 1.398 1_545 S
C686 C687 1.391 . S
C687 H675 0.950 . S
C687 C683 1.393 1_545 S
C687 C686 1.391 . S
H688 C696 0.950 . S
H689 C701 0.950 . S
H690 C698 0.950 . S
H691 C700 0.950 . S
H692 C702 0.950 . S
H693 C704 0.950 . S
H694 C706 0.950 . S
H695 C707 0.950 . S
C696 H688 0.950 . S
C696 C697 1.386 . S
C696 C698 1.391 . S
C697 C696 1.386 . S
C697 C701 1.393 . S
C698 H690 0.950 . S
C698 C696 1.391 . S
C698 C699 1.400 . S
C699 C698 1.400 . S
C699 C700 1.398 . S
C699 C705 1.491 . S
C700 H691 0.950 . S
C700 C699 1.398 . S
C700 C701 1.391 . S
C701 H689 0.950 . S
C701 C697 1.393 . S
C701 C700 1.391 . S
C702 H692 0.950 . S
C702 C703 1.386 . S
C702 C704 1.391 . S
C703 C702 1.386 . S
C703 C707 1.393 . S
C704 H693 0.950 . S
C704 C702 1.391 . S
C704 C705 1.400 . S
C705 C699 1.491 . S
C705 C704 1.400 . S
C705 C706 1.398 . S
C706 H694 0.950 . S
C706 C705 1.398 . S
C706 C707 1.391 . S
C707 H695 0.950 . S
C707 C703 1.393 . S
C707 C706 1.391 . S
H708 C716 0.950 . S
H709 C721 0.950 . S
H710 C718 0.950 . S
H711 C720 0.950 . S
H712 C722 0.950 . S
H713 C724 0.950 . S
H714 C726 0.950 . S
H715 C727 0.950 . S
C716 H708 0.950 . S
C716 C717 1.386 . S
C716 C718 1.391 . S
C717 C716 1.386 . S
C717 C721 1.393 . S
C718 H710 0.950 . S
C718 C716 1.391 . S
C718 C719 1.400 . S
C719 C718 1.400 . S
C719 C720 1.398 . S
C719 C725 1.491 . S
C720 H711 0.950 . S
C720 C719 1.398 . S
C720 C721 1.391 . S
C721 H709 0.950 . S
C721 C717 1.393 . S
C721 C720 1.391 . S
C722 H712 0.950 . S
C722 C723 1.386 . S
C722 C724 1.391 . S
C723 C722 1.386 . S
C723 C727 1.393 . S
C724 H713 0.950 . S
C724 C722 1.391 . S
C724 C725 1.400 . S
C725 C719 1.491 . S
C725 C724 1.400 . S
C725 C726 1.398 . S
C726 H714 0.950 . S
C726 C725 1.398 . S
C726 C727 1.391 . S
C727 H715 0.950 . S
C727 C723 1.393 . S
C727 C726 1.391 . S
C257 C74 1.786 . S
C263 C106 1.900 1_545 S
C283 C146 1.911 . S
C277 C85 1.786 . S
C303 C186 1.911 . S
C297 C52 1.796 . S
C323 C226 1.902 1_455 S
C317 C63 1.809 . S
C343 C96 1.902 . S
C337 C30 1.793 1_565 S
C357 C41 1.814 . S
C363 C136 1.911 . S
C377 C8 1.822 . S
C383 C176 1.910 . S
C397 C19 1.804 . S
C403 C216 1.906 1_655 S
C423 C93 0.568 . S
C417 C62 0.528 . S
C443 C133 0.589 . S
C437 C73 0.549 . S
C463 C173 0.568 . S
C457 C84 0.574 . S
C477 C51 0.564 . S
C483 C213 0.536 . S
C497 C18 0.617 1_655 S
C503 C103 0.582 . S
C523 C143 0.564 . S
C517 C29 0.586 1_565 S
C543 C183 0.556 . S
C537 C40 0.565 . S
C557 C7 0.596 . S
C563 C223 0.561 . S
C577 C60 1.702 . S
C583 C97 2.223 . S
C597 C71 1.738 . S
C603 C137 2.222 . S
C623 C177 2.208 . S
C617 C82 1.681 . S
C643 C217 2.218 . S
C637 C49 1.680 . S
C657 C16 1.745 1_655 S
C663 C107 2.245 . S
C683 C147 2.219 . S
C677 C27 1.726 1_565 S
C703 C187 2.200 . S
C697 C38 1.785 . S
C717 C5 1.784 . S
C723 C227 2.226 . S
