# Generated by pormake.
# Topology pth, (4,4)-cn, num edge types: 1
# Building blocks:
#     Node 0, Type 0, BuildingBlock: GALJAG_clean_sbu_0, # of connection points: 4
#     Node 1, Type 0, BuildingBlock: GALJAG_clean_sbu_0, # of connection points: 4
#     Node 2, Type 0, BuildingBlock: GALJAG_clean_sbu_0, # of connection points: 4
#     Node 3, Type 1, BuildingBlock: MUDLON_clean_sbu_0, # of connection points: 4
#     Node 4, Type 1, BuildingBlock: MUDLON_clean_sbu_0, # of connection points: 4
#     Node 5, Type 1, BuildingBlock: MUDLON_clean_sbu_0, # of connection points: 4
#     Edge 6, Type (0, 1), BuildingBlock: FUNLAD_clean_linker_0, # of connection points: 2
#     Edge 7, Type (0, 1), BuildingBlock: FUNLAD_clean_linker_0, # of connection points: 2
#     Edge 8, Type (0, 1), BuildingBlock: FUNLAD_clean_linker_0, # of connection points: 2
#     Edge 9, Type (0, 1), BuildingBlock: FUNLAD_clean_linker_0, # of connection points: 2
#     Edge 10, Type (0, 1), BuildingBlock: FUNLAD_clean_linker_0, # of connection points: 2
#     Edge 11, Type (0, 1), BuildingBlock: FUNLAD_clean_linker_0, # of connection points: 2
#     Edge 12, Type (0, 1), BuildingBlock: FUNLAD_clean_linker_0, # of connection points: 2
#     Edge 13, Type (0, 1), BuildingBlock: FUNLAD_clean_linker_0, # of connection points: 2
#     Edge 14, Type (0, 1), BuildingBlock: FUNLAD_clean_linker_0, # of connection points: 2
#     Edge 15, Type (0, 1), BuildingBlock: FUNLAD_clean_linker_0, # of connection points: 2
#     Edge 16, Type (0, 1), BuildingBlock: FUNLAD_clean_linker_0, # of connection points: 2
#     Edge 17, Type (0, 1), BuildingBlock: FUNLAD_clean_linker_0, # of connection points: 2
# Relax obj value: 0.043
# Max RMSD: 0.088
# Mean RMSD: 0.080
data_MOF--net-pth--node1-GALJAG_clean_sbu_0--node2-MUDLON_clean_sbu_0--edge1-FUNLAD_clean_linker_0
_symmetry_space_group_name_H-M    P1
_symmetry_Int_Tables_number       1
_symmetry_cell_setting            triclinic
loop_
_symmetry_equiv_pos_as_xyz
'x, y, z'
_cell_length_a     26.964569
_cell_length_b     27.006884
_cell_length_c     67.897812
_cell_angle_alpha  90.081898
_cell_angle_beta   90.204969
_cell_angle_gamma 120.00549
loop_
_atom_site_label
_atom_site_type_symbol
_atom_site_fract_x
_atom_site_fract_y
_atom_site_fract_z
_atom_type_partial_charge
In0 In 0.01979 0.00924 0.10406 0.0
O1 O 0.97042 0.05123 0.11612 0.0
O2 O 0.05469 0.07927 0.12704 0.0
C3 C 0.95256 0.9271 0.0782 0.0
C4 C 0.09756 0.08718 0.0794 0.0
C5 C 0.01507 0.93731 0.13231 0.0
O6 O 0.93654 0.95883 0.08647 0.0
O7 O 1.0026 0.93808 0.08264 0.0
O8 O 0.06095 0.96884 0.12299 0.0
O9 O 0.97301 0.94308 0.12748 0.0
C10 C 0.01087 0.08472 0.12747 0.0
O11 O 0.11062 0.05946 0.09138 0.0
O12 O 0.04559 0.07408 0.07964 0.0
In13 In 0.02672 0.02945 0.43781 0.0
O14 O 0.06995 0.1176 0.42297 0.0
O15 O 0.98633 0.05414 0.41352 0.0
C16 C 0.09699 0.02291 0.46461 0.0
C17 C 0.95001 0.03299 0.46214 0.0
C18 C 0.02813 0.95407 0.41225 0.0
O19 O 0.11205 0.06805 0.45474 0.0
O20 O 0.04698 0.98249 0.46105 0.0
O21 O 0.98454 0.94225 0.42259 0.0
O22 O 0.07021 0.0039 0.41471 0.0
C23 C 0.02744 0.10461 0.41173 0.0
O24 O 0.93723 0.98997 0.45129 0.0
O25 O 1.00135 0.07289 0.46094 0.0
In26 In 0.00745 0.01117 0.77164 0.0
O27 O 0.95633 0.91862 0.78227 0.0
O28 O 0.93607 0.97976 0.79396 0.0
C29 C 0.08583 0.01743 0.74579 0.0
C30 C 0.93353 0.01935 0.74706 0.0
C31 C 0.0812 0.073 0.80057 0.0
O32 O 0.05264 0.9717 0.75486 0.0
O33 O 0.07887 0.05929 0.74969 0.0
O34 O 0.05934 0.09446 0.7893 0.0
O35 O 0.06527 0.02117 0.79723 0.0
C36 C 0.92491 0.92844 0.7936 0.0
O37 O 0.96079 0.057 0.76015 0.0
O38 O 0.94521 0.97962 0.74621 0.0
Mg39 Mg 0.02358 0.52535 0.27071 0.0
C40 C 0.94769 0.41371 0.29674 0.0
O41 O 0.90312 0.39822 0.28517 0.0
C42 C 0.96315 0.5483 0.23712 0.0
O43 O 0.9868 0.52438 0.22691 0.0
C44 C 0.01867 0.44447 0.2424 0.0
O45 O 0.96699 0.42502 0.24952 0.0
O46 O 0.05878 0.49238 0.24873 0.0
O47 O 0.9941 0.45989 0.29345 0.0
O48 O 0.07683 0.60361 0.28738 0.0
C49 C 0.04971 0.60275 0.30284 0.0
O50 O 0.99986 0.55717 0.30627 0.0
O51 O 0.9661 0.5487 0.25585 0.0
Mg52 Mg 0.51065 0.02433 0.60393 0.0
C53 C 0.42513 0.95467 0.57163 0.0
O54 O 0.47187 0.9675 0.56184 0.0
C55 C 0.54056 0.95275 0.63484 0.0
O56 O 0.4973 0.90402 0.62871 0.0
C57 C 0.45968 0.05223 0.6351 0.0
O58 O 0.45426 1.00186 0.6384 0.0
O59 O 0.4867 0.07954 0.61978 0.0
O60 O 0.4287 0.96573 0.58999 0.0
O61 O 0.57673 0.05288 0.58128 0.0
C62 C 0.58759 0.0125 0.57861 0.0
O63 O 0.55868 0.96556 0.58896 0.0
O64 O 0.54968 0.99944 0.6272 0.0
Mg65 Mg 0.50283 0.51342 0.93619 0.0
C66 C 0.43833 0.38888 0.92423 0.0
O67 O 0.41382 0.38434 0.94132 0.0
C68 C 0.6049 0.54577 0.96678 0.0
O69 O 0.58117 0.49231 0.97253 0.0
C70 C 0.43454 0.48713 0.97384 0.0
O71 O 0.48631 0.51348 0.98144 0.0
O72 O 0.42881 0.48756 0.95524 0.0
O73 O 0.48276 0.43593 0.91988 0.0
O74 O 0.51901 0.57639 0.91333 0.0
C75 C 0.5439 0.57056 0.89833 0.0
O76 O 0.55101 0.52594 0.89743 0.0
O77 O 0.58186 0.55933 0.95304 0.0
C78 C 0.05645 0.16644 0.15122 0.0
C79 C 0.00809 0.12762 0.14025 0.0
C80 C 0.0544 0.20705 0.16344 0.0
C81 C 1.00379 0.20973 0.16494 0.0
C82 C 0.95538 0.17063 0.15405 0.0
C83 C 0.95756 0.13022 0.14173 0.0
C84 C 0.99869 0.25038 0.17842 0.0
C85 C 0.04341 0.30057 0.1846 0.0
C86 C 0.03738 0.34005 0.1985 0.0
C87 C 0.0856 0.3809 0.20912 0.0
C88 C 0.08062 0.41661 0.22304 0.0
C89 C 0.02714 0.41176 0.22661 0.0
H90 H 0.94691 0.3094 0.19296 0.0
C91 C 0.97959 0.37272 0.21542 0.0
C92 C 0.98466 0.33781 0.20141 0.0
H93 H 0.938 0.36893 0.21749 0.0
H94 H 0.09598 0.1653 0.15046 0.0
H95 H 0.09211 0.23511 0.172 0.0
H96 H 0.91568 0.17139 0.15506 0.0
H97 H 0.91957 0.10077 0.1335 0.0
H98 H 0.95575 0.23762 0.18332 0.0
H99 H 0.08636 0.31302 0.17972 0.0
H100 H 0.12698 0.38428 0.20698 0.0
H101 H 0.11802 0.44656 0.23141 0.0
C102 C 0.85054 0.99415 0.47522 0.0
C103 C 0.90813 0.03772 0.47485 0.0
C104 C 0.81111 0.99948 0.48708 0.0
C105 C 0.82865 0.04837 0.49898 0.0
C106 C 0.88601 0.09231 0.49825 0.0
C107 C 0.92537 0.087 0.48639 0.0
C108 C 0.78862 0.05488 0.51237 0.0
C109 C 0.74238 0.00972 0.52021 0.0
C110 C 0.70432 0.01386 0.53512 0.0
C111 C 0.67175 0.96595 0.54693 0.0
C112 C 0.63473 0.96642 0.56104 0.0
C113 C 0.62858 0.01473 0.56367 0.0
H114 H 0.72202 0.1 0.52851 0.0
C115 C 0.66086 0.06297 0.55182 0.0
C116 C 0.69853 0.06261 0.53764 0.0
H117 H 0.65679 0.10068 0.55342 0.0
H118 H 0.83583 0.95608 0.46626 0.0
H119 H 0.7669 0.96546 0.48666 0.0
H120 H 0.90067 0.13059 0.5071 0.0
H121 H 0.9694 0.1216 0.4863 0.0
H122 H 0.80032 0.09781 0.51708 0.0
H123 H 0.73405 0.96696 0.51673 0.0
H124 H 0.67509 0.92778 0.54533 0.0
H125 H 0.6106 0.92832 0.56983 0.0
C126 C 0.8438 0.8973 0.81723 0.0
C127 C 0.87753 0.88345 0.80521 0.0
C128 C 0.79807 0.85497 0.82794 0.0
C129 C 0.78485 0.79757 0.82681 0.0
C130 C 0.81911 0.78405 0.81492 0.0
C131 C 0.86483 0.82642 0.80421 0.0
C132 C 0.73714 0.75058 0.83804 0.0
C133 C 0.69543 0.75479 0.84756 0.0
C134 C 0.65029 0.70662 0.85911 0.0
C135 C 0.62735 0.71822 0.8759 0.0
C136 C 0.58946 0.67369 0.88819 0.0
C137 C 0.57372 0.61683 0.88378 0.0
H138 H 0.64528 0.63846 0.84064 0.0
C139 C 0.59326 0.60508 0.86619 0.0
C140 C 0.63082 0.64935 0.85395 0.0
H141 H 0.58106 0.56158 0.86219 0.0
H142 H 0.8527 0.941 0.81837 0.0
H143 H 0.77405 0.86801 0.83717 0.0
H144 H 0.81033 0.74036 0.81382 0.0
H145 H 0.89006 0.81442 0.79509 0.0
H146 H 0.73707 0.71036 0.83861 0.0
H147 H 0.69527 0.79482 0.84781 0.0
H148 H 0.64085 0.76195 0.88002 0.0
H149 H 0.57504 0.68407 0.90163 0.0
C150 C 0.95487 0.85493 0.15429 0.0
C151 C 0.00947 0.89526 0.14736 0.0
C152 C 0.94837 0.81394 0.16813 0.0
C153 C 0.99644 0.81253 0.17546 0.0
C154 C 0.05117 0.85372 0.16892 0.0
C155 C 0.05764 0.8944 0.15484 0.0
C156 C 0.99064 0.76894 0.19002 0.0
C157 C 0.94555 0.71525 0.19013 0.0
C158 C 0.94299 0.67048 0.20338 0.0
C159 C 0.92355 0.61534 0.19587 0.0
C160 C 0.92678 0.57409 0.20734 0.0
C161 C 0.9477 0.5867 0.22675 0.0
H162 H 0.9753 0.72419 0.2294 0.0
C163 C 0.963 0.64051 0.23478 0.0
C164 C 0.96123 0.68231 0.22312 0.0
H165 H 0.97983 0.65156 0.24965 0.0
H166 H 0.91688 0.85466 0.14889 0.0
H167 H 0.9057 0.78384 0.17322 0.0
H168 H 0.08893 0.8538 0.17447 0.0
H169 H 0.10024 0.92514 0.14985 0.0
H170 H 0.02649 0.78001 0.19993 0.0
H171 H 0.91256 0.70205 0.17886 0.0
H172 H 0.90875 0.6051 0.18076 0.0
H173 H 0.91496 0.53301 0.20079 0.0
C174 C 0.11926 0.96186 0.48627 0.0
C175 C 0.13469 0.01642 0.47901 0.0
C176 C 0.15434 0.95464 0.49976 0.0
C177 C 0.20558 1.00196 0.50643 0.0
C178 C 0.22055 0.05666 0.49945 0.0
C179 C 0.18577 0.06381 0.48569 0.0
C180 C 0.24323 0.99556 0.52102 0.0
C181 C 0.24909 0.94885 0.52186 0.0
C182 C 0.28945 0.94453 0.53571 0.0
C183 C 0.32167 0.91994 0.52923 0.0
C184 C 0.36385 0.92022 0.54137 0.0
C185 C 0.37334 0.94354 0.56045 0.0
H186 H 0.27165 0.98328 0.56068 0.0
C187 C 0.33816 0.96438 0.56744 0.0
C188 C 0.29694 0.96536 0.55512 0.0
H189 H 0.34466 0.98299 0.58203 0.0
H190 H 0.08002 0.92448 0.48146 0.0
H191 H 0.14068 0.91207 0.5052 0.0
H192 H 0.2596 0.09389 0.50448 0.0
H193 H 0.19857 0.10637 0.48044 0.0
H194 H 0.26958 0.03187 0.53054 0.0
H195 H 0.22763 0.915 0.511 0.0
H196 H 0.31613 0.90298 0.51441 0.0
H197 H 0.39038 0.90396 0.53559 0.0
C198 C 0.15009 0.1652 0.81756 0.0
C199 C 0.123 0.10532 0.81638 0.0
C200 C 0.1911 0.195 0.83226 0.0
C201 C 0.20537 0.16525 0.84612 0.0
C202 C 0.17733 0.10541 0.8451 0.0
C203 C 0.13705 0.07581 0.83032 0.0
C204 C 0.24706 0.19467 0.86239 0.0
C205 C 0.29178 0.2483 0.86103 0.0
C206 C 0.3322 0.27866 0.8776 0.0
C207 C 0.38619 0.32585 0.87343 0.0
C208 C 0.42281 0.35939 0.88864 0.0
C209 C 0.40589 0.34685 0.90843 0.0
H210 H 0.27495 0.22922 0.9014 0.0
C211 C 0.35306 0.29801 0.91265 0.0
C212 C 0.31653 0.26441 0.89745 0.0
H213 H 0.33849 0.28725 0.9277 0.0
H214 H 0.13996 0.18902 0.80704 0.0
H215 H 0.21069 0.24105 0.83294 0.0
H216 H 0.18698 0.08139 0.85569 0.0
H217 H 0.11673 0.02964 0.82987 0.0
H218 H 0.24184 0.16994 0.87559 0.0
H219 H 0.29993 0.27081 0.84711 0.0
H220 H 0.39943 0.3379 0.85831 0.0
H221 H 0.46307 0.39684 0.88482 0.0
C222 C 0.86175 0.97614 0.71989 0.0
C223 C 0.8886 0.01886 0.73436 0.0
C224 C 0.81682 0.9726 0.70855 0.0
C225 C 0.79717 0.01146 0.71152 0.0
C226 C 0.82503 0.05509 0.72565 0.0
C227 C 0.87019 0.05868 0.73702 0.0
C228 C 0.74974 0.00937 0.69956 0.0
C229 C 0.70982 0.962 0.69005 0.0
C230 C 0.6649 0.96074 0.67684 0.0
C231 C 0.61751 0.90771 0.67148 0.0
C232 C 0.57624 0.90466 0.65814 0.0
C233 C 0.58174 0.95471 0.64981 0.0
H234 H 0.70643 0.05243 0.67163 0.0
C235 C 0.62885 0.00773 0.65533 0.0
C236 C 0.67 0.01076 0.66854 0.0
H237 H 0.63482 0.04727 0.64913 0.0
H238 H 0.8753 0.9451 0.71735 0.0
H239 H 0.79832 0.93975 0.69732 0.0
H240 H 0.8114 0.08614 0.72806 0.0
H241 H 0.8901 0.0921 0.74805 0.0
H242 H 0.7473 0.04823 0.69907 0.0
H243 H 0.70924 0.92187 0.6921 0.0
H244 H 0.61265 0.86838 0.67749 0.0
H245 H 0.54062 0.86313 0.65417 0.0
C246 C 0.86174 0.87049 0.05876 0.0
C247 C 0.9151 0.87889 0.06503 0.0
C248 C 0.82601 0.82375 0.04676 0.0
C249 C 0.84292 0.78434 0.04087 0.0
C250 C 0.89593 0.7925 0.04736 0.0
C251 C 0.93188 0.8395 0.05915 0.0
C252 C 0.80561 0.73352 0.02849 0.0
C253 C 0.76976 0.73397 0.01475 0.0
C254 C 0.73225 0.68422 1.00197 0.0
C255 C 0.71355 0.6947 0.98399 0.0
C256 C 0.67453 0.64957 0.97218 0.0
C257 C 0.6524 0.59249 0.97817 0.0
H258 H 0.72451 0.6173 0.02166 0.0
C259 C 0.67237 0.5817 0.9959 0.0
C260 C 0.71193 0.62713 1.00771 0.0
H261 H 0.65593 0.53831 1.001 0.0
H262 H 0.84746 0.89983 0.06321 0.0
H263 H 0.78472 0.81797 0.04249 0.0
H264 H 0.9098 0.76261 0.04317 0.0
H265 H 0.97257 0.84452 0.06387 0.0
H266 H 0.81043 0.69611 0.03 0.0
H267 H 0.76944 0.77348 0.01207 0.0
H268 H 0.72844 0.73813 0.97918 0.0
H269 H 0.66036 0.65969 0.9586 0.0
C270 C 0.08195 0.9265 0.3889 0.0
C271 C 0.03087 0.91236 0.39881 0.0
C272 C 0.08567 0.88635 0.37687 0.0
C273 C 0.03806 0.83116 0.3744 0.0
C274 C 0.98688 0.81748 0.38417 0.0
C275 C 0.98326 0.85755 0.39623 0.0
C276 C 0.04005 0.78559 0.3626 0.0
C277 C 0.08245 0.79379 0.35013 0.0
C278 C 0.0811 0.74564 0.33895 0.0
C279 C 0.1059 0.75512 0.32014 0.0
C280 C 0.0995 0.70906 0.3086 0.0
C281 C 0.06834 0.65298 0.31582 0.0
H282 H 0.03706 0.68122 0.36145 0.0
C283 C 0.0475 0.64423 0.33517 0.0
C284 C 0.05418 0.68996 0.34667 0.0
H285 H 0.02417 0.60152 0.34126 0.0
H286 H 0.11953 0.96838 0.39069 0.0
H287 H 0.1263 0.89868 0.37001 0.0
H288 H 0.94951 0.77532 0.38264 0.0
H289 H 0.94333 0.84534 0.40368 0.0
H290 H 1.00336 0.74282 0.364 0.0
H291 H 0.11717 0.83658 0.34706 0.0
H292 H 0.12785 0.7978 0.31399 0.0
H293 H 0.11594 0.71697 0.29371 0.0
C294 C 0.16799 0.07517 0.72316 0.0
C295 C 0.13066 0.02248 0.73208 0.0
C296 C 0.21208 0.08087 0.71086 0.0
C297 C 0.21956 0.03375 0.70713 0.0
C298 C 0.18171 0.981 0.71591 0.0
C299 C 0.13773 0.97536 0.72821 0.0
C300 C 0.26767 0.0379 0.69515 0.0
C301 C 0.30086 0.08137 0.68291 0.0
C302 C 0.34839 0.08204 0.67159 0.0
C303 C 0.36199 0.10613 0.65263 0.0
C304 C 0.40192 0.1007 0.64095 0.0
C305 C 0.42881 0.07129 0.64818 0.0
H306 H 0.37213 0.0407 0.69417 0.0
C307 C 0.41863 0.05155 0.66768 0.0
C308 C 0.3793 0.05722 0.6793 0.0
H309 H 0.4395 0.02952 0.67375 0.0
H310 H 0.16378 0.11239 0.72594 0.0
H311 H 0.24079 0.12257 0.70479 0.0
H312 H 0.18649 0.94398 0.71341 0.0
H313 H 0.10971 0.93422 0.73487 0.0
H314 H 0.27506 1.00195 0.69617 0.0
H315 H 0.29128 0.11526 0.68013 0.0
H316 H 0.33955 0.12647 0.64649 0.0
H317 H 0.40891 0.11616 0.62593 0.0
C318 C 0.12243 0.16552 0.05513 0.0
C319 C 0.13987 0.13409 0.06688 0.0
C320 C 0.16225 0.21238 0.04423 0.0
C321 C 0.22067 0.22871 0.04463 0.0
C322 C 0.23795 0.19686 0.05627 0.0
C323 C 0.19802 0.15001 0.06726 0.0
C324 C 0.26509 0.27979 0.03387 0.0
C325 C 0.25361 0.30557 0.01892 0.0
C326 C 0.29885 0.35591 1.00818 0.0
C327 C 0.28901 0.36484 0.98851 0.0
C328 C 0.33197 0.40945 0.97756 0.0
C329 C 0.38562 0.44652 0.98613 0.0
H330 H 0.35971 0.39109 0.03243 0.0
C331 C 0.39416 0.43974 1.00617 0.0
C332 C 0.3513 0.39503 0.01708 0.0
H333 H 0.43473 0.46783 0.01332 0.0
H334 H 0.07797 0.15471 0.05467 0.0
H335 H 0.14689 0.23629 0.03599 0.0
H336 H 0.28264 0.20853 0.05699 0.0
H337 H 0.21283 0.12682 0.07625 0.0
H338 H 0.30938 0.29536 0.03806 0.0
H339 H 0.21016 0.2874 0.01338 0.0
H340 H 0.24865 0.33596 0.98136 0.0
H341 H 0.32382 0.41346 0.96218 0.0
C342 C 0.97501 0.12684 0.38609 0.0
C343 C 0.02391 0.14529 0.39802 0.0
C344 C 0.96941 0.16501 0.37372 0.0
C345 C 0.01251 0.22288 0.37307 0.0
C346 C 0.06205 0.24099 0.38466 0.0
C347 C 0.06764 0.20267 0.39708 0.0
C348 C 0.00823 0.26502 0.36009 0.0
C349 C 0.95824 0.25848 0.35314 0.0
C350 C 0.95456 0.30002 0.33968 0.0
C351 C 0.90649 0.28106 0.32727 0.0
C352 C 0.90293 0.31824 0.31371 0.0
C353 C 0.94734 0.37531 0.31239 0.0
H354 H 0.03411 0.37503 0.34883 0.0
C355 C 0.99407 0.39491 0.32546 0.0
C356 C 0.99758 0.35788 0.33898 0.0
H357 H 0.02864 0.4389 0.3251 0.0
H358 H 0.94074 0.08273 0.38633 0.0
H359 H 0.93154 0.14851 0.36454 0.0
H360 H 0.09627 0.28514 0.38429 0.0
H361 H 0.10587 0.2181 0.40607 0.0
H362 H 0.04823 0.30289 0.35623 0.0
H363 H 0.91818 0.22061 0.35693 0.0
H364 H 0.87227 0.23691 0.32769 0.0
H365 H 0.86626 0.30183 0.30391 0.0
loop_
_geom_bond_atom_site_label_1
_geom_bond_atom_site_label_2
_geom_bond_distance
_geom_bond_site_symmetry_2
_ccdc_geom_bond_type
In0 O1 2.294 1_455 S
In0 O2 2.326 . S
In0 O6 2.266 1_445 S
In0 O7 2.326 1_445 S
In0 O8 2.266 1_545 S
In0 O9 2.326 1_445 S
In0 O11 2.294 . S
In0 O12 2.326 . S
O1 In0 2.294 1_655 S
O1 C10 1.240 1_655 S
O2 In0 2.326 . S
O2 C10 1.252 . S
C3 O6 1.252 . S
C3 O7 1.260 . S
C4 O11 1.240 . S
C4 O12 1.252 . S
C5 O8 1.249 1_655 S
C5 O9 1.266 . S
O6 In0 2.266 1_665 S
O6 C3 1.252 . S
O7 In0 2.326 1_665 S
O7 C3 1.260 . S
O8 In0 2.266 1_565 S
O8 C5 1.249 1_455 S
O9 In0 2.326 1_665 S
O9 C5 1.266 . S
C10 O1 1.240 1_455 S
C10 O2 1.252 . S
O11 In0 2.294 . S
O11 C4 1.240 . S
O12 In0 2.326 . S
O12 C4 1.252 . S
In13 O14 2.294 . S
In13 O15 2.326 1_455 S
In13 O19 2.266 . S
In13 O20 2.326 1_545 S
In13 O21 2.266 1_445 S
In13 O22 2.326 1_545 S
In13 O24 2.294 1_445 S
In13 O25 2.326 1_455 S
O14 In13 2.294 . S
O14 C23 1.240 1_455 S
O15 In13 2.326 1_655 S
O15 C23 1.252 . S
C16 O19 1.246 1_565 S
C16 O20 1.263 . S
C17 O24 1.240 1_545 S
C17 O25 1.252 . S
C18 O21 1.252 1_455 S
C18 O22 1.260 . S
O19 In13 2.266 . S
O19 C16 1.246 1_545 S
O20 In13 2.326 1_565 S
O20 C16 1.263 . S
O21 In13 2.266 1_665 S
O21 C18 1.252 1_655 S
O22 In13 2.326 1_565 S
O22 C18 1.260 . S
C23 O14 1.240 1_655 S
C23 O15 1.252 . S
O24 In13 2.294 1_665 S
O24 C17 1.240 1_565 S
O25 In13 2.326 1_655 S
O25 C17 1.252 . S
In26 O27 2.294 1_445 S
In26 O28 2.326 1_445 S
In26 O32 2.266 1_545 S
In26 O33 2.326 . S
In26 O34 2.266 . S
In26 O35 2.326 . S
In26 O37 2.294 1_455 S
In26 O38 2.326 1_445 S
O27 In26 2.294 1_665 S
O27 C36 1.240 . S
O28 In26 2.326 1_665 S
O28 C36 1.252 . S
C29 O32 1.252 1_545 S
C29 O33 1.260 . S
C30 O37 1.240 1_565 S
C30 O38 1.252 . S
C31 O34 1.252 . S
C31 O35 1.260 . S
O32 In26 2.266 1_565 S
O32 C29 1.252 1_565 S
O33 In26 2.326 . S
O33 C29 1.260 . S
O34 In26 2.266 . S
O34 C31 1.252 . S
O35 In26 2.326 . S
O35 C31 1.260 . S
C36 O27 1.240 . S
C36 O28 1.252 . S
O37 In26 2.294 1_655 S
O37 C30 1.240 1_545 S
O38 In26 2.326 1_665 S
O38 C30 1.252 . S
Mg39 O46 2.141 . S
Mg39 O47 2.048 . S
Mg39 O48 2.048 . S
Mg39 O51 2.141 . S
C40 O41 1.313 . S
C40 O47 1.195 1_655 S
O41 C40 1.313 . S
C42 O43 1.245 . S
C42 O51 1.289 1_655 S
O43 C42 1.245 . S
C44 O45 1.245 . S
C44 O46 1.289 1_655 S
O45 C44 1.245 . S
O46 Mg39 2.141 . S
O46 C44 1.289 1_455 S
O47 Mg39 2.048 . S
O47 C40 1.195 1_455 S
O48 Mg39 2.048 . S
O48 C49 1.195 1_455 S
C49 O48 1.195 1_655 S
C49 O50 1.313 . S
O50 C49 1.313 . S
O51 Mg39 2.141 . S
O51 C42 1.289 1_455 S
Mg52 O59 2.141 . S
Mg52 O60 2.048 . S
Mg52 O61 2.048 . S
Mg52 O64 2.141 . S
C53 O54 1.313 . S
C53 O60 1.195 1_565 S
O54 C53 1.313 . S
C55 O56 1.245 . S
C55 O64 1.289 1_565 S
O56 C55 1.245 . S
C57 O58 1.245 . S
C57 O59 1.289 1_565 S
O58 C57 1.245 . S
O59 Mg52 2.141 . S
O59 C57 1.289 1_545 S
O60 Mg52 2.048 . S
O60 C53 1.195 1_545 S
O61 Mg52 2.048 . S
O61 C62 1.195 1_545 S
C62 O61 1.195 1_565 S
C62 O63 1.313 . S
O63 C62 1.313 . S
O64 Mg52 2.141 . S
O64 C55 1.289 1_545 S
Mg65 O72 2.141 . S
Mg65 O73 2.048 . S
Mg65 O74 2.048 . S
Mg65 O77 2.141 . S
C66 O67 1.313 . S
C66 O73 1.195 . S
O67 C66 1.313 . S
C68 O69 1.245 . S
C68 O77 1.289 . S
O69 C68 1.245 . S
C70 O71 1.245 . S
C70 O72 1.289 . S
O71 C70 1.245 . S
O72 Mg65 2.141 . S
O72 C70 1.289 . S
O73 Mg65 2.048 . S
O73 C66 1.195 . S
O74 Mg65 2.048 . S
O74 C75 1.195 . S
C75 O74 1.195 . S
C75 O76 1.313 . S
O76 C75 1.313 . S
O77 Mg65 2.141 . S
O77 C68 1.289 . S
C78 C79 1.386 . S
C78 C80 1.383 . S
C78 H94 0.951 . S
C79 C78 1.386 . S
C79 C83 1.383 1_455 S
C80 C78 1.383 . S
C80 C81 1.402 1_455 S
C80 H95 0.951 . S
C81 C80 1.402 1_655 S
C81 C82 1.375 . S
C81 C84 1.481 . S
C82 C81 1.375 . S
C82 C83 1.367 . S
C82 H96 0.951 . S
C83 C79 1.383 1_655 S
C83 C82 1.367 . S
C83 H97 0.950 . S
C84 C81 1.481 . S
C84 C85 1.297 1_655 S
C84 H98 0.950 . S
C85 C84 1.297 1_455 S
C85 C86 1.479 . S
C85 H99 0.950 . S
C86 C85 1.479 . S
C86 C87 1.375 . S
C86 C92 1.404 1_455 S
C87 C86 1.375 . S
C87 C88 1.369 . S
C87 H100 0.950 . S
C88 C87 1.369 . S
C88 C89 1.392 . S
C88 H101 0.951 . S
C89 C88 1.392 . S
C89 C91 1.384 1_455 S
H90 C92 0.949 . S
C91 C89 1.384 1_655 S
C91 C92 1.385 . S
C91 H93 0.950 . S
C92 C86 1.404 1_655 S
C92 H90 0.949 . S
C92 C91 1.385 . S
H93 C91 0.950 . S
H94 C78 0.951 . S
H95 C80 0.951 . S
H96 C82 0.951 . S
H97 C83 0.950 . S
H98 C84 0.950 . S
H99 C85 0.950 . S
H100 C87 0.950 . S
H101 C88 0.951 . S
C102 C103 1.386 1_565 S
C102 C104 1.383 . S
C102 H118 0.951 . S
C103 C102 1.386 1_545 S
C103 C107 1.383 . S
C104 C102 1.383 . S
C104 C105 1.402 1_565 S
C104 H119 0.951 . S
C105 C104 1.402 1_545 S
C105 C106 1.375 . S
C105 C108 1.481 . S
C106 C105 1.375 . S
C106 C107 1.367 . S
C106 H120 0.951 . S
C107 C103 1.383 . S
C107 C106 1.367 . S
C107 H121 0.950 . S
C108 C105 1.481 . S
C108 C109 1.297 . S
C108 H122 0.950 . S
C109 C108 1.297 . S
C109 C110 1.479 . S
C109 H123 0.951 1_545 S
C110 C109 1.479 . S
C110 C111 1.375 1_545 S
C110 C116 1.404 . S
C111 C110 1.375 1_565 S
C111 C112 1.369 . S
C111 H124 0.950 . S
C112 C111 1.369 . S
C112 C113 1.392 1_565 S
C112 H125 0.951 . S
C113 C112 1.392 1_545 S
C113 C115 1.384 . S
H114 C116 0.949 . S
C115 C113 1.384 . S
C115 C116 1.385 . S
C115 H117 0.950 . S
C116 C110 1.404 . S
C116 H114 0.949 . S
C116 C115 1.385 . S
H117 C115 0.950 . S
H118 C102 0.951 . S
H119 C104 0.951 . S
H120 C106 0.951 . S
H121 C107 0.950 . S
H122 C108 0.950 . S
H123 C109 0.951 1_565 S
H124 C111 0.950 . S
H125 C112 0.951 . S
C126 C127 1.386 . S
C126 C128 1.383 . S
C126 H142 0.951 . S
C127 C126 1.386 . S
C127 C131 1.383 . S
C128 C126 1.383 . S
C128 C129 1.402 . S
C128 H143 0.951 . S
C129 C128 1.402 . S
C129 C130 1.375 . S
C129 C132 1.481 . S
C130 C129 1.375 . S
C130 C131 1.367 . S
C130 H144 0.951 . S
C131 C127 1.383 . S
C131 C130 1.367 . S
C131 H145 0.950 . S
C132 C129 1.481 . S
C132 C133 1.297 . S
C132 H146 0.950 . S
C133 C132 1.297 . S
C133 C134 1.479 . S
C133 H147 0.950 . S
C134 C133 1.479 . S
C134 C135 1.375 . S
C134 C140 1.404 . S
C135 C134 1.375 . S
C135 C136 1.369 . S
C135 H148 0.950 . S
C136 C135 1.369 . S
C136 C137 1.392 . S
C136 H149 0.951 . S
C137 C136 1.392 . S
C137 C139 1.384 . S
H138 C140 0.949 . S
C139 C137 1.384 . S
C139 C140 1.385 . S
C139 H141 0.950 . S
C140 C134 1.404 . S
C140 H138 0.949 . S
C140 C139 1.385 . S
H141 C139 0.950 . S
H142 C126 0.951 . S
H143 C128 0.951 . S
H144 C130 0.951 . S
H145 C131 0.950 . S
H146 C132 0.950 . S
H147 C133 0.950 . S
H148 C135 0.950 . S
H149 C136 0.951 . S
C150 C151 1.386 1_655 S
C150 C152 1.383 . S
C150 H166 0.951 . S
C151 C150 1.386 1_455 S
C151 C155 1.383 . S
C152 C150 1.383 . S
C152 C153 1.402 1_655 S
C152 H167 0.951 . S
C153 C152 1.402 1_455 S
C153 C154 1.375 . S
C153 C156 1.481 . S
C154 C153 1.375 . S
C154 C155 1.367 . S
C154 H168 0.951 . S
C155 C151 1.383 . S
C155 C154 1.367 . S
C155 H169 0.950 . S
C156 C153 1.481 . S
C156 C157 1.297 . S
C156 H170 0.950 . S
C157 C156 1.297 . S
C157 C158 1.479 . S
C157 H171 0.950 1_455 S
C158 C157 1.479 . S
C158 C159 1.375 1_455 S
C158 C164 1.404 . S
C159 C158 1.375 1_655 S
C159 C160 1.369 . S
C159 H172 0.950 . S
C160 C159 1.369 . S
C160 C161 1.392 1_655 S
C160 H173 0.951 . S
C161 C160 1.392 1_455 S
C161 C163 1.384 . S
H162 C164 0.949 . S
C163 C161 1.384 . S
C163 C164 1.385 . S
C163 H165 0.950 . S
C164 C158 1.404 . S
C164 H162 0.949 . S
C164 C163 1.385 . S
H165 C163 0.950 . S
H166 C150 0.951 . S
H167 C152 0.951 . S
H168 C154 0.951 . S
H169 C155 0.950 . S
H170 C156 0.950 . S
H171 C157 0.950 1_655 S
H172 C159 0.950 . S
H173 C160 0.951 . S
C174 C175 1.386 1_565 S
C174 C176 1.383 . S
C174 H190 0.951 . S
C175 C174 1.386 1_545 S
C175 C179 1.383 . S
C176 C174 1.383 . S
C176 C177 1.402 1_565 S
C176 H191 0.951 . S
C177 C176 1.402 1_545 S
C177 C178 1.375 . S
C177 C180 1.481 . S
C178 C177 1.375 . S
C178 C179 1.367 . S
C178 H192 0.951 . S
C179 C175 1.383 . S
C179 C178 1.367 . S
C179 H193 0.950 . S
C180 C177 1.481 . S
C180 C181 1.297 . S
C180 H194 0.950 . S
C181 C180 1.297 . S
C181 C182 1.479 . S
C181 H195 0.950 1_545 S
C182 C181 1.479 . S
C182 C183 1.375 1_545 S
C182 C188 1.404 . S
C183 C182 1.375 1_565 S
C183 C184 1.369 . S
C183 H196 0.950 . S
C184 C183 1.369 . S
C184 C185 1.392 1_565 S
C184 H197 0.951 . S
C185 C184 1.392 1_545 S
C185 C187 1.384 . S
H186 C188 0.949 . S
C187 C185 1.384 . S
C187 C188 1.385 . S
C187 H189 0.950 . S
C188 C182 1.404 . S
C188 H186 0.949 . S
C188 C187 1.385 . S
H189 C187 0.950 . S
H190 C174 0.951 . S
H191 C176 0.951 . S
H192 C178 0.951 . S
H193 C179 0.950 . S
H194 C180 0.950 . S
H195 C181 0.950 1_565 S
H196 C183 0.950 . S
H197 C184 0.951 . S
C198 C199 1.386 . S
C198 C200 1.383 . S
C198 H214 0.951 . S
C199 C198 1.386 . S
C199 C203 1.383 . S
C200 C198 1.383 . S
C200 C201 1.402 . S
C200 H215 0.951 . S
C201 C200 1.402 . S
C201 C202 1.375 . S
C201 C204 1.481 . S
C202 C201 1.375 . S
C202 C203 1.367 . S
C202 H216 0.951 . S
C203 C199 1.383 . S
C203 C202 1.367 . S
C203 H217 0.950 . S
C204 C201 1.481 . S
C204 C205 1.297 . S
C204 H218 0.950 . S
C205 C204 1.297 . S
C205 C206 1.479 . S
C205 H219 0.950 . S
C206 C205 1.479 . S
C206 C207 1.375 . S
C206 C212 1.404 . S
C207 C206 1.375 . S
C207 C208 1.369 . S
C207 H220 0.950 . S
C208 C207 1.369 . S
C208 C209 1.392 . S
C208 H221 0.951 . S
C209 C208 1.392 . S
C209 C211 1.384 . S
H210 C212 0.949 . S
C211 C209 1.384 . S
C211 C212 1.385 . S
C211 H213 0.950 . S
C212 C206 1.404 . S
C212 H210 0.949 . S
C212 C211 1.385 . S
H213 C211 0.950 . S
H214 C198 0.951 . S
H215 C200 0.951 . S
H216 C202 0.951 . S
H217 C203 0.950 . S
H218 C204 0.950 . S
H219 C205 0.950 . S
H220 C207 0.950 . S
H221 C208 0.951 . S
C222 C223 1.379 1_565 S
C222 C224 1.383 . S
C222 H238 0.951 . S
C223 C222 1.379 1_545 S
C223 C227 1.397 . S
C224 C222 1.383 . S
C224 C225 1.402 1_565 S
C224 H239 0.951 . S
C225 C224 1.402 1_545 S
C225 C226 1.375 . S
C225 C228 1.481 . S
C226 C225 1.375 . S
C226 C227 1.367 . S
C226 H240 0.951 . S
C227 C223 1.397 . S
C227 C226 1.367 . S
C227 H241 0.950 . S
C228 C225 1.481 . S
C228 C229 1.297 1_545 S
C228 H242 0.950 . S
C229 C228 1.297 1_565 S
C229 C230 1.479 . S
C229 H243 0.950 . S
C230 C229 1.479 . S
C230 C231 1.375 . S
C230 C236 1.404 1_565 S
C231 C230 1.375 . S
C231 C232 1.369 . S
C231 H244 0.950 . S
C232 C231 1.369 . S
C232 C233 1.392 1_565 S
C232 H245 0.951 . S
C233 C232 1.392 1_545 S
C233 C235 1.384 . S
H234 C236 0.949 . S
C235 C233 1.384 . S
C235 C236 1.385 . S
C235 H237 0.950 . S
C236 C230 1.404 1_545 S
C236 H234 0.949 . S
C236 C235 1.385 . S
H237 C235 0.950 . S
H238 C222 0.951 . S
H239 C224 0.951 . S
H240 C226 0.951 . S
H241 C227 0.950 . S
H242 C228 0.950 . S
H243 C229 0.950 . S
H244 C231 0.950 . S
H245 C232 0.951 . S
C246 C247 1.386 . S
C246 C248 1.383 . S
C246 H262 0.951 . S
C247 C246 1.386 . S
C247 C251 1.383 . S
C248 C246 1.383 . S
C248 C249 1.402 . S
C248 H263 0.951 . S
C249 C248 1.402 . S
C249 C250 1.375 . S
C249 C252 1.481 . S
C250 C249 1.375 . S
C250 C251 1.367 . S
C250 H264 0.951 . S
C251 C247 1.383 . S
C251 C250 1.367 . S
C251 H265 0.950 . S
C252 C249 1.481 . S
C252 C253 1.297 . S
C252 H266 0.950 . S
C253 C252 1.297 . S
C253 C254 1.479 1_554 S
C253 H267 0.950 1_554 S
C254 C253 1.479 1_556 S
C254 C255 1.375 . S
C254 C260 1.404 . S
C255 C254 1.375 . S
C255 C256 1.369 . S
C255 H268 0.950 . S
C256 C255 1.369 . S
C256 C257 1.392 . S
C256 H269 0.951 . S
C257 C256 1.392 . S
C257 C259 1.384 . S
H258 C260 0.949 1_554 S
C259 C257 1.384 . S
C259 C260 1.385 . S
C259 H261 0.950 . S
C260 C254 1.404 . S
C260 H258 0.949 1_556 S
C260 C259 1.385 . S
H261 C259 0.950 . S
H262 C246 0.951 . S
H263 C248 0.951 . S
H264 C250 0.951 . S
H265 C251 0.950 . S
H266 C252 0.950 . S
H267 C253 0.950 1_556 S
H268 C255 0.950 . S
H269 C256 0.951 . S
C270 C271 1.386 . S
C270 C272 1.383 . S
C270 H286 0.951 . S
C271 C270 1.386 . S
C271 C275 1.383 1_455 S
C272 C270 1.383 . S
C272 C273 1.402 1_455 S
C272 H287 0.951 . S
C273 C272 1.402 1_655 S
C273 C274 1.375 . S
C273 C276 1.481 . S
C274 C273 1.375 . S
C274 C275 1.367 . S
C274 H288 0.951 . S
C275 C271 1.383 1_655 S
C275 C274 1.367 . S
C275 H289 0.950 . S
C276 C273 1.481 . S
C276 C277 1.297 1_655 S
C276 H290 0.950 . S
C277 C276 1.297 1_455 S
C277 C278 1.479 . S
C277 H291 0.950 . S
C278 C277 1.479 . S
C278 C279 1.375 . S
C278 C284 1.404 1_455 S
C279 C278 1.375 . S
C279 C280 1.369 . S
C279 H292 0.950 . S
C280 C279 1.369 . S
C280 C281 1.392 . S
C280 H293 0.951 . S
C281 C280 1.392 . S
C281 C283 1.384 1_455 S
H282 C284 0.949 . S
C283 C281 1.384 1_655 S
C283 C284 1.385 . S
C283 H285 0.950 . S
C284 C278 1.404 1_655 S
C284 H282 0.949 . S
C284 C283 1.385 . S
H285 C283 0.950 . S
H286 C270 0.951 . S
H287 C272 0.951 . S
H288 C274 0.951 . S
H289 C275 0.950 . S
H290 C276 0.950 . S
H291 C277 0.950 . S
H292 C279 0.950 . S
H293 C280 0.951 . S
C294 C295 1.386 . S
C294 C296 1.383 . S
C294 H310 0.951 . S
C295 C294 1.386 . S
C295 C299 1.383 1_545 S
C296 C294 1.383 . S
C296 C297 1.402 1_545 S
C296 H311 0.951 . S
C297 C296 1.402 1_565 S
C297 C298 1.375 . S
C297 C300 1.481 . S
C298 C297 1.375 . S
C298 C299 1.367 . S
C298 H312 0.951 . S
C299 C295 1.383 1_565 S
C299 C298 1.367 . S
C299 H313 0.950 . S
C300 C297 1.481 . S
C300 C301 1.297 1_565 S
C300 H314 0.950 . S
C301 C300 1.297 1_545 S
C301 C302 1.479 . S
C301 H315 0.950 . S
C302 C301 1.479 . S
C302 C303 1.375 . S
C302 C308 1.404 1_545 S
C303 C302 1.375 . S
C303 C304 1.369 . S
C303 H316 0.950 . S
C304 C303 1.369 . S
C304 C305 1.392 . S
C304 H317 0.951 . S
C305 C304 1.392 . S
C305 C307 1.384 1_545 S
H306 C308 0.949 . S
C307 C305 1.384 1_565 S
C307 C308 1.385 . S
C307 H309 0.950 . S
C308 C302 1.404 1_565 S
C308 H306 0.949 . S
C308 C307 1.385 . S
H309 C307 0.950 . S
H310 C294 0.951 . S
H311 C296 0.951 . S
H312 C298 0.951 . S
H313 C299 0.950 . S
H314 C300 0.950 . S
H315 C301 0.950 . S
H316 C303 0.950 . S
H317 C304 0.951 . S
C318 C319 1.386 . S
C318 C320 1.383 . S
C318 H334 0.951 . S
C319 C318 1.386 . S
C319 C323 1.383 . S
C320 C318 1.383 . S
C320 C321 1.402 . S
C320 H335 0.951 . S
C321 C320 1.402 . S
C321 C322 1.375 . S
C321 C324 1.481 . S
C322 C321 1.375 . S
C322 C323 1.367 . S
C322 H336 0.951 . S
C323 C319 1.383 . S
C323 C322 1.367 . S
C323 H337 0.950 . S
C324 C321 1.481 . S
C324 C325 1.297 . S
C324 H338 0.950 . S
C325 C324 1.297 . S
C325 C326 1.479 1_554 S
C325 H339 0.950 . S
C326 C325 1.479 1_556 S
C326 C327 1.375 . S
C326 C332 1.404 1_556 S
C327 C326 1.375 . S
C327 C328 1.369 . S
C327 H340 0.950 . S
C328 C327 1.369 . S
C328 C329 1.392 . S
C328 H341 0.951 . S
C329 C328 1.392 . S
C329 C331 1.384 . S
H330 C332 0.949 . S
C331 C329 1.384 . S
C331 C332 1.385 1_556 S
C331 H333 0.950 . S
C332 C326 1.404 1_554 S
C332 H330 0.949 . S
C332 C331 1.385 1_554 S
H333 C331 0.950 . S
H334 C318 0.951 . S
H335 C320 0.951 . S
H336 C322 0.951 . S
H337 C323 0.950 . S
H338 C324 0.950 . S
H339 C325 0.950 . S
H340 C327 0.950 . S
H341 C328 0.951 . S
C342 C343 1.375 1_655 S
C342 C344 1.383 . S
C342 H358 0.951 . S
C343 C342 1.375 1_455 S
C343 C347 1.390 . S
C344 C342 1.383 . S
C344 C345 1.402 1_655 S
C344 H359 0.951 . S
C345 C344 1.402 1_455 S
C345 C346 1.375 . S
C345 C348 1.481 . S
C346 C345 1.375 . S
C346 C347 1.367 . S
C346 H360 0.951 . S
C347 C343 1.390 . S
C347 C346 1.367 . S
C347 H361 0.950 . S
C348 C345 1.481 . S
C348 C349 1.297 1_455 S
C348 H362 0.950 . S
C349 C348 1.297 1_655 S
C349 C350 1.479 . S
C349 H363 0.950 . S
C350 C349 1.479 . S
C350 C351 1.375 . S
C350 C356 1.404 1_655 S
C351 C350 1.375 . S
C351 C352 1.369 . S
C351 H364 0.950 . S
C352 C351 1.369 . S
C352 C353 1.392 1_655 S
C352 H365 0.951 . S
C353 C352 1.392 1_455 S
C353 C355 1.384 . S
H354 C356 0.949 . S
C355 C353 1.384 . S
C355 C356 1.385 . S
C355 H357 0.950 . S
C356 C350 1.404 1_455 S
C356 H354 0.949 . S
C356 C355 1.385 . S
H357 C355 0.950 . S
H358 C342 0.951 . S
H359 C344 0.951 . S
H360 C346 0.951 . S
H361 C347 0.950 . S
H362 C348 0.950 . S
H363 C349 0.950 . S
H364 C351 0.950 . S
H365 C352 0.951 . S
C89 C44 1.435 1_455 S
C79 C10 1.444 . S
C103 C17 1.514 . S
C113 C62 1.510 1_545 S
C127 C36 1.522 . S
C137 C75 1.521 . S
C151 C5 1.442 1_455 S
C161 C42 1.438 1_455 S
C185 C53 1.515 1_545 S
C175 C16 1.517 1_545 S
C199 C31 1.518 . S
C209 C66 1.524 . S
C233 C55 1.420 1_545 S
C223 C30 1.431 1_545 S
C247 C3 1.446 . S
C257 C68 1.412 . S
C281 C49 1.512 1_455 S
C271 C18 1.520 . S
C305 C57 1.419 1_545 S
C295 C29 1.440 . S
C329 C70 1.449 . S
C319 C4 1.446 . S
C343 C23 1.519 1_455 S
C353 C40 1.499 1_455 S
