# Generated by pormake.
# Topology gar, (4,6)-cn, num edge types: 1
# Building blocks:
#     Node 0, Type 0, BuildingBlock: QUQFOY_clean_sbu_1, # of connection points: 4
#     Node 1, Type 0, BuildingBlock: QUQFOY_clean_sbu_1, # of connection points: 4
#     Node 2, Type 0, BuildingBlock: QUQFOY_clean_sbu_1, # of connection points: 4
#     Node 3, Type 0, BuildingBlock: QUQFOY_clean_sbu_1, # of connection points: 4
#     Node 4, Type 0, BuildingBlock: QUQFOY_clean_sbu_1, # of connection points: 4
#     Node 5, Type 0, BuildingBlock: QUQFOY_clean_sbu_1, # of connection points: 4
#     Node 6, Type 0, BuildingBlock: QUQFOY_clean_sbu_1, # of connection points: 4
#     Node 7, Type 0, BuildingBlock: QUQFOY_clean_sbu_1, # of connection points: 4
#     Node 8, Type 0, BuildingBlock: QUQFOY_clean_sbu_1, # of connection points: 4
#     Node 9, Type 0, BuildingBlock: QUQFOY_clean_sbu_1, # of connection points: 4
#     Node 10, Type 0, BuildingBlock: QUQFOY_clean_sbu_1, # of connection points: 4
#     Node 11, Type 0, BuildingBlock: QUQFOY_clean_sbu_1, # of connection points: 4
#     Node 12, Type 0, BuildingBlock: QUQFOY_clean_sbu_1, # of connection points: 4
#     Node 13, Type 0, BuildingBlock: QUQFOY_clean_sbu_1, # of connection points: 4
#     Node 14, Type 0, BuildingBlock: QUQFOY_clean_sbu_1, # of connection points: 4
#     Node 15, Type 0, BuildingBlock: QUQFOY_clean_sbu_1, # of connection points: 4
#     Node 16, Type 0, BuildingBlock: QUQFOY_clean_sbu_1, # of connection points: 4
#     Node 17, Type 0, BuildingBlock: QUQFOY_clean_sbu_1, # of connection points: 4
#     Node 18, Type 0, BuildingBlock: QUQFOY_clean_sbu_1, # of connection points: 4
#     Node 19, Type 0, BuildingBlock: QUQFOY_clean_sbu_1, # of connection points: 4
#     Node 20, Type 0, BuildingBlock: QUQFOY_clean_sbu_1, # of connection points: 4
#     Node 21, Type 0, BuildingBlock: QUQFOY_clean_sbu_1, # of connection points: 4
#     Node 22, Type 0, BuildingBlock: QUQFOY_clean_sbu_1, # of connection points: 4
#     Node 23, Type 0, BuildingBlock: QUQFOY_clean_sbu_1, # of connection points: 4
#     Node 24, Type 1, BuildingBlock: PAMTOO_clean_sbu_0, # of connection points: 6
#     Node 25, Type 1, BuildingBlock: PAMTOO_clean_sbu_0, # of connection points: 6
#     Node 26, Type 1, BuildingBlock: PAMTOO_clean_sbu_0, # of connection points: 6
#     Node 27, Type 1, BuildingBlock: PAMTOO_clean_sbu_0, # of connection points: 6
#     Node 28, Type 1, BuildingBlock: PAMTOO_clean_sbu_0, # of connection points: 6
#     Node 29, Type 1, BuildingBlock: PAMTOO_clean_sbu_0, # of connection points: 6
#     Node 30, Type 1, BuildingBlock: PAMTOO_clean_sbu_0, # of connection points: 6
#     Node 31, Type 1, BuildingBlock: PAMTOO_clean_sbu_0, # of connection points: 6
#     Node 32, Type 1, BuildingBlock: PAMTOO_clean_sbu_0, # of connection points: 6
#     Node 33, Type 1, BuildingBlock: PAMTOO_clean_sbu_0, # of connection points: 6
#     Node 34, Type 1, BuildingBlock: PAMTOO_clean_sbu_0, # of connection points: 6
#     Node 35, Type 1, BuildingBlock: PAMTOO_clean_sbu_0, # of connection points: 6
#     Node 36, Type 1, BuildingBlock: PAMTOO_clean_sbu_0, # of connection points: 6
#     Node 37, Type 1, BuildingBlock: PAMTOO_clean_sbu_0, # of connection points: 6
#     Node 38, Type 1, BuildingBlock: PAMTOO_clean_sbu_0, # of connection points: 6
#     Node 39, Type 1, BuildingBlock: PAMTOO_clean_sbu_0, # of connection points: 6
#     Edge 40, Type (0, 1), BuildingBlock: MIFKUJ_clean_linker_0, # of connection points: 2
#     Edge 41, Type (0, 1), BuildingBlock: MIFKUJ_clean_linker_0, # of connection points: 2
#     Edge 42, Type (0, 1), BuildingBlock: MIFKUJ_clean_linker_0, # of connection points: 2
#     Edge 43, Type (0, 1), BuildingBlock: MIFKUJ_clean_linker_0, # of connection points: 2
#     Edge 44, Type (0, 1), BuildingBlock: MIFKUJ_clean_linker_0, # of connection points: 2
#     Edge 45, Type (0, 1), BuildingBlock: MIFKUJ_clean_linker_0, # of connection points: 2
#     Edge 46, Type (0, 1), BuildingBlock: MIFKUJ_clean_linker_0, # of connection points: 2
#     Edge 47, Type (0, 1), BuildingBlock: MIFKUJ_clean_linker_0, # of connection points: 2
#     Edge 48, Type (0, 1), BuildingBlock: MIFKUJ_clean_linker_0, # of connection points: 2
#     Edge 49, Type (0, 1), BuildingBlock: MIFKUJ_clean_linker_0, # of connection points: 2
#     Edge 50, Type (0, 1), BuildingBlock: MIFKUJ_clean_linker_0, # of connection points: 2
#     Edge 51, Type (0, 1), BuildingBlock: MIFKUJ_clean_linker_0, # of connection points: 2
#     Edge 52, Type (0, 1), BuildingBlock: MIFKUJ_clean_linker_0, # of connection points: 2
#     Edge 53, Type (0, 1), BuildingBlock: MIFKUJ_clean_linker_0, # of connection points: 2
#     Edge 54, Type (0, 1), BuildingBlock: MIFKUJ_clean_linker_0, # of connection points: 2
#     Edge 55, Type (0, 1), BuildingBlock: MIFKUJ_clean_linker_0, # of connection points: 2
#     Edge 56, Type (0, 1), BuildingBlock: MIFKUJ_clean_linker_0, # of connection points: 2
#     Edge 57, Type (0, 1), BuildingBlock: MIFKUJ_clean_linker_0, # of connection points: 2
#     Edge 58, Type (0, 1), BuildingBlock: MIFKUJ_clean_linker_0, # of connection points: 2
#     Edge 59, Type (0, 1), BuildingBlock: MIFKUJ_clean_linker_0, # of connection points: 2
#     Edge 60, Type (0, 1), BuildingBlock: MIFKUJ_clean_linker_0, # of connection points: 2
#     Edge 61, Type (0, 1), BuildingBlock: MIFKUJ_clean_linker_0, # of connection points: 2
#     Edge 62, Type (0, 1), BuildingBlock: MIFKUJ_clean_linker_0, # of connection points: 2
#     Edge 63, Type (0, 1), BuildingBlock: MIFKUJ_clean_linker_0, # of connection points: 2
#     Edge 64, Type (0, 1), BuildingBlock: MIFKUJ_clean_linker_0, # of connection points: 2
#     Edge 65, Type (0, 1), BuildingBlock: MIFKUJ_clean_linker_0, # of connection points: 2
#     Edge 66, Type (0, 1), BuildingBlock: MIFKUJ_clean_linker_0, # of connection points: 2
#     Edge 67, Type (0, 1), BuildingBlock: MIFKUJ_clean_linker_0, # of connection points: 2
#     Edge 68, Type (0, 1), BuildingBlock: MIFKUJ_clean_linker_0, # of connection points: 2
#     Edge 69, Type (0, 1), BuildingBlock: MIFKUJ_clean_linker_0, # of connection points: 2
#     Edge 70, Type (0, 1), BuildingBlock: MIFKUJ_clean_linker_0, # of connection points: 2
#     Edge 71, Type (0, 1), BuildingBlock: MIFKUJ_clean_linker_0, # of connection points: 2
#     Edge 72, Type (0, 1), BuildingBlock: MIFKUJ_clean_linker_0, # of connection points: 2
#     Edge 73, Type (0, 1), BuildingBlock: MIFKUJ_clean_linker_0, # of connection points: 2
#     Edge 74, Type (0, 1), BuildingBlock: MIFKUJ_clean_linker_0, # of connection points: 2
#     Edge 75, Type (0, 1), BuildingBlock: MIFKUJ_clean_linker_0, # of connection points: 2
#     Edge 76, Type (0, 1), BuildingBlock: MIFKUJ_clean_linker_0, # of connection points: 2
#     Edge 77, Type (0, 1), BuildingBlock: MIFKUJ_clean_linker_0, # of connection points: 2
#     Edge 78, Type (0, 1), BuildingBlock: MIFKUJ_clean_linker_0, # of connection points: 2
#     Edge 79, Type (0, 1), BuildingBlock: MIFKUJ_clean_linker_0, # of connection points: 2
#     Edge 80, Type (0, 1), BuildingBlock: MIFKUJ_clean_linker_0, # of connection points: 2
#     Edge 81, Type (0, 1), BuildingBlock: MIFKUJ_clean_linker_0, # of connection points: 2
#     Edge 82, Type (0, 1), BuildingBlock: MIFKUJ_clean_linker_0, # of connection points: 2
#     Edge 83, Type (0, 1), BuildingBlock: MIFKUJ_clean_linker_0, # of connection points: 2
#     Edge 84, Type (0, 1), BuildingBlock: MIFKUJ_clean_linker_0, # of connection points: 2
#     Edge 85, Type (0, 1), BuildingBlock: MIFKUJ_clean_linker_0, # of connection points: 2
#     Edge 86, Type (0, 1), BuildingBlock: MIFKUJ_clean_linker_0, # of connection points: 2
#     Edge 87, Type (0, 1), BuildingBlock: MIFKUJ_clean_linker_0, # of connection points: 2
#     Edge 88, Type (0, 1), BuildingBlock: MIFKUJ_clean_linker_0, # of connection points: 2
#     Edge 89, Type (0, 1), BuildingBlock: MIFKUJ_clean_linker_0, # of connection points: 2
#     Edge 90, Type (0, 1), BuildingBlock: MIFKUJ_clean_linker_0, # of connection points: 2
#     Edge 91, Type (0, 1), BuildingBlock: MIFKUJ_clean_linker_0, # of connection points: 2
#     Edge 92, Type (0, 1), BuildingBlock: MIFKUJ_clean_linker_0, # of connection points: 2
#     Edge 93, Type (0, 1), BuildingBlock: MIFKUJ_clean_linker_0, # of connection points: 2
#     Edge 94, Type (0, 1), BuildingBlock: MIFKUJ_clean_linker_0, # of connection points: 2
#     Edge 95, Type (0, 1), BuildingBlock: MIFKUJ_clean_linker_0, # of connection points: 2
#     Edge 96, Type (0, 1), BuildingBlock: MIFKUJ_clean_linker_0, # of connection points: 2
#     Edge 97, Type (0, 1), BuildingBlock: MIFKUJ_clean_linker_0, # of connection points: 2
#     Edge 98, Type (0, 1), BuildingBlock: MIFKUJ_clean_linker_0, # of connection points: 2
#     Edge 99, Type (0, 1), BuildingBlock: MIFKUJ_clean_linker_0, # of connection points: 2
#     Edge 100, Type (0, 1), BuildingBlock: MIFKUJ_clean_linker_0, # of connection points: 2
#     Edge 101, Type (0, 1), BuildingBlock: MIFKUJ_clean_linker_0, # of connection points: 2
#     Edge 102, Type (0, 1), BuildingBlock: MIFKUJ_clean_linker_0, # of connection points: 2
#     Edge 103, Type (0, 1), BuildingBlock: MIFKUJ_clean_linker_0, # of connection points: 2
#     Edge 104, Type (0, 1), BuildingBlock: MIFKUJ_clean_linker_0, # of connection points: 2
#     Edge 105, Type (0, 1), BuildingBlock: MIFKUJ_clean_linker_0, # of connection points: 2
#     Edge 106, Type (0, 1), BuildingBlock: MIFKUJ_clean_linker_0, # of connection points: 2
#     Edge 107, Type (0, 1), BuildingBlock: MIFKUJ_clean_linker_0, # of connection points: 2
#     Edge 108, Type (0, 1), BuildingBlock: MIFKUJ_clean_linker_0, # of connection points: 2
#     Edge 109, Type (0, 1), BuildingBlock: MIFKUJ_clean_linker_0, # of connection points: 2
#     Edge 110, Type (0, 1), BuildingBlock: MIFKUJ_clean_linker_0, # of connection points: 2
#     Edge 111, Type (0, 1), BuildingBlock: MIFKUJ_clean_linker_0, # of connection points: 2
#     Edge 112, Type (0, 1), BuildingBlock: MIFKUJ_clean_linker_0, # of connection points: 2
#     Edge 113, Type (0, 1), BuildingBlock: MIFKUJ_clean_linker_0, # of connection points: 2
#     Edge 114, Type (0, 1), BuildingBlock: MIFKUJ_clean_linker_0, # of connection points: 2
#     Edge 115, Type (0, 1), BuildingBlock: MIFKUJ_clean_linker_0, # of connection points: 2
#     Edge 116, Type (0, 1), BuildingBlock: MIFKUJ_clean_linker_0, # of connection points: 2
#     Edge 117, Type (0, 1), BuildingBlock: MIFKUJ_clean_linker_0, # of connection points: 2
#     Edge 118, Type (0, 1), BuildingBlock: MIFKUJ_clean_linker_0, # of connection points: 2
#     Edge 119, Type (0, 1), BuildingBlock: MIFKUJ_clean_linker_0, # of connection points: 2
#     Edge 120, Type (0, 1), BuildingBlock: MIFKUJ_clean_linker_0, # of connection points: 2
#     Edge 121, Type (0, 1), BuildingBlock: MIFKUJ_clean_linker_0, # of connection points: 2
#     Edge 122, Type (0, 1), BuildingBlock: MIFKUJ_clean_linker_0, # of connection points: 2
#     Edge 123, Type (0, 1), BuildingBlock: MIFKUJ_clean_linker_0, # of connection points: 2
#     Edge 124, Type (0, 1), BuildingBlock: MIFKUJ_clean_linker_0, # of connection points: 2
#     Edge 125, Type (0, 1), BuildingBlock: MIFKUJ_clean_linker_0, # of connection points: 2
#     Edge 126, Type (0, 1), BuildingBlock: MIFKUJ_clean_linker_0, # of connection points: 2
#     Edge 127, Type (0, 1), BuildingBlock: MIFKUJ_clean_linker_0, # of connection points: 2
#     Edge 128, Type (0, 1), BuildingBlock: MIFKUJ_clean_linker_0, # of connection points: 2
#     Edge 129, Type (0, 1), BuildingBlock: MIFKUJ_clean_linker_0, # of connection points: 2
#     Edge 130, Type (0, 1), BuildingBlock: MIFKUJ_clean_linker_0, # of connection points: 2
#     Edge 131, Type (0, 1), BuildingBlock: MIFKUJ_clean_linker_0, # of connection points: 2
#     Edge 132, Type (0, 1), BuildingBlock: MIFKUJ_clean_linker_0, # of connection points: 2
#     Edge 133, Type (0, 1), BuildingBlock: MIFKUJ_clean_linker_0, # of connection points: 2
#     Edge 134, Type (0, 1), BuildingBlock: MIFKUJ_clean_linker_0, # of connection points: 2
#     Edge 135, Type (0, 1), BuildingBlock: MIFKUJ_clean_linker_0, # of connection points: 2
# Relax obj value: 0.145
# Max RMSD: 0.271
# Mean RMSD: 0.180
data_MOF--net-gar--node1-QUQFOY_clean_sbu_1--node2-PAMTOO_clean_sbu_0--edge1-MIFKUJ_clean_linker_0
_symmetry_space_group_name_H-M    P1
_symmetry_Int_Tables_number       1
_symmetry_cell_setting            triclinic
loop_
_symmetry_equiv_pos_as_xyz
'x, y, z'
_cell_length_a     76.916268
_cell_length_b     77.002561
_cell_length_c     74.72411
_cell_angle_alpha  96.494273
_cell_angle_beta   95.599942
_cell_angle_gamma 106.90849
loop_
_atom_site_label
_atom_site_type_symbol
_atom_site_fract_x
_atom_site_fract_y
_atom_site_fract_z
_atom_type_partial_charge
O0 O 0.03628 0.27591 0.37754 0.0
Cd1 Cd 0.03828 0.29229 0.35689 0.0
Cd2 Cd 0.02751 0.31545 0.38924 0.0
O3 O 0.03156 0.29338 0.40116 0.0
O4 O 0.05164 0.28108 0.3386 0.0
O5 O 0.06432 0.30842 0.35457 0.0
C6 C 0.06598 0.29526 0.34314 0.0
C7 C 0.03218 0.34381 0.40851 0.0
C8 C 0.03414 0.27854 0.39424 0.0
C9 C 1.00182 0.30192 0.35189 0.0
O10 O 0.00591 0.30986 0.36833 0.0
O11 O 0.01287 0.29463 0.34439 0.0
O12 O 0.01867 0.32945 0.40907 0.0
O13 O 0.04356 0.34211 0.39732 0.0
O14 O 1.00235 0.72767 0.69269 0.0
Cd15 Cd 0.00722 0.75127 0.71177 0.0
Cd16 Cd 0.0234 0.76883 0.68347 0.0
O17 O 0.01299 0.74193 0.6701 0.0
O18 O 0.9889 0.74698 0.73021 0.0
O19 O 0.98861 0.76569 0.71009 0.0
C20 C 0.98122 0.75795 0.72315 0.0
C21 C 0.02133 0.79305 0.66717 0.0
C22 C 0.00588 0.72711 0.67633 0.0
C23 C 0.0491 0.76922 0.71739 0.0
O24 O 0.04712 0.77378 0.70163 0.0
O25 O 0.03502 0.76102 0.72448 0.0
O26 O 0.0317 0.78312 0.66324 0.0
O27 O 0.01186 0.78925 0.68035 0.0
O28 O 0.5738 0.80661 0.87394 0.0
Cd29 Cd 0.55365 0.80591 0.89083 0.0
Cd30 Cd 0.53855 0.81882 0.85847 0.0
O31 O 0.56202 0.81349 0.84844 0.0
O32 O 0.56179 0.79464 0.91187 0.0
O33 O 0.536 0.78116 0.8935 0.0
C34 C 0.54724 0.78075 0.90735 0.0
C35 C 0.50769 0.80918 0.84327 0.0
C36 C 0.57492 0.80934 0.85752 0.0
C37 C 0.54659 0.84325 0.89556 0.0
O38 O 0.54279 0.84157 0.87834 0.0
O39 O 0.55046 0.83043 0.9029 0.0
O40 O 0.5204 0.82221 0.83849 0.0
O41 O 0.51276 0.8005 0.85564 0.0
O42 O 0.49832 0.21628 0.18593 0.0
Cd43 Cd 0.50313 0.23952 0.20576 0.0
Cd44 Cd 0.51973 0.2576 0.1779 0.0
O45 O 0.51008 0.23093 0.164 0.0
O46 O 0.48394 0.23422 0.22331 0.0
O47 O 0.48533 0.25498 0.20517 0.0
C48 C 0.47711 0.24627 0.21731 0.0
C49 C 0.51805 0.2822 0.16198 0.0
C50 C 0.50254 0.21596 0.1698 0.0
C51 C 0.54496 0.2577 0.21221 0.0
O52 O 0.543 0.26248 0.19656 0.0
O53 O 0.53084 0.2491 0.21904 0.0
O54 O 0.5288 0.2726 0.1584 0.0
O55 O 0.50791 0.27778 0.17455 0.0
O56 O 0.03974 0.76696 0.11691 0.0
Cd57 Cd 0.04372 0.79005 0.1359 0.0
Cd58 Cd 0.06328 0.80712 0.10869 0.0
O59 O 0.05498 0.7793 0.09546 0.0
O60 O 0.02845 0.78016 0.155 0.0
O61 O 0.02319 0.80139 0.13983 0.0
C62 C 0.01876 0.79089 0.15202 0.0
C63 C 0.0571 0.8329 0.09653 0.0
C64 C 0.0458 0.76511 0.10177 0.0
C65 C 0.08516 0.80796 0.14529 0.0
O66 O 0.08553 0.81245 0.12936 0.0
O67 O 0.06993 0.79991 0.15043 0.0
O68 O 0.06986 0.82638 0.09156 0.0
O69 O 0.04733 0.82446 0.1079 0.0
O70 O 0.5321 0.76893 0.44114 0.0
Cd71 Cd 0.51664 0.76783 0.46276 0.0
Cd72 Cd 0.49315 0.77935 0.42987 0.0
O73 O 0.51512 0.77464 0.41802 0.0
O74 O 0.52892 0.75536 0.48085 0.0
O75 O 0.5012 0.74191 0.46632 0.0
C76 C 0.51488 0.7408 0.47716 0.0
C77 C 0.46569 0.77681 0.41029 0.0
C78 C 0.52959 0.77136 0.42459 0.0
C79 C 0.50754 0.80488 0.46765 0.0
O80 O 0.49951 0.80064 0.45131 0.0
O81 O 0.51459 0.79375 0.47507 0.0
O82 O 0.48077 0.78964 0.41031 0.0
O83 O 0.46611 0.76493 0.42107 0.0
O84 O 0.55146 0.26695 0.6209 0.0
Cd85 Cd 0.55645 0.29005 0.64019 0.0
Cd86 Cd 0.57533 0.30687 0.61276 0.0
O87 O 0.56567 0.27927 0.59887 0.0
O88 O 0.54078 0.28084 0.65928 0.0
O89 O 0.53649 0.30223 0.64376 0.0
C90 C 0.53151 0.29186 0.65594 0.0
C91 C 0.56912 0.33329 0.60191 0.0
C92 C 0.55658 0.26512 0.60527 0.0
C93 C 0.5981 0.30672 0.64865 0.0
O94 O 0.59814 0.31103 0.63263 0.0
O95 O 0.58295 0.29937 0.65435 0.0
O96 O 0.58134 0.32652 0.5959 0.0
O97 O 0.55997 0.32483 0.61367 0.0
O98 O 1.00202 0.23598 0.94507 0.0
Cd99 Cd 1.0036 0.25631 0.92867 0.0
Cd100 Cd 0.99191 0.27275 0.96114 0.0
O101 O 0.99691 0.24917 0.9711 0.0
O102 O 0.01521 0.24858 0.90741 0.0
O103 O 0.02873 0.27378 0.92689 0.0
C104 C 0.02924 0.26289 0.9126 0.0
C105 C 1.00246 0.30393 0.97581 0.0
C106 C 0.99991 0.23553 0.96174 0.0
C107 C 0.96706 0.2646 0.92452 0.0
O108 O 0.96908 0.26898 0.94174 0.0
O109 O 0.97941 0.25986 0.91687 0.0
O110 O 0.98963 0.29168 0.98141 0.0
O111 O 0.01049 0.29821 0.96298 0.0
O112 O 0.40689 0.05259 0.27676 0.0
Cd113 Cd 0.39397 0.05181 0.29956 0.0
Cd114 Cd 0.42209 0.04418 0.31379 0.0
O115 O 0.4328 0.05092 0.29059 0.0
O116 O 0.37512 0.06371 0.29404 0.0
O117 O 0.39773 0.07478 0.31711 0.0
C118 C 0.38331 0.0761 0.30771 0.0
C119 C 0.43962 0.05761 0.34155 0.0
C120 C 0.42338 0.05274 0.27642 0.0
C121 C 0.38645 0.0143 0.30848 0.0
O122 O 0.40375 0.0183 0.31213 0.0
O123 O 0.37926 0.02643 0.30435 0.0
O124 O 0.44319 0.04475 0.33137 0.0
O125 O 0.42595 0.06302 0.33582 0.0
O126 O 0.28971 0.19204 0.55812 0.0
Cd127 Cd 0.28739 0.17366 0.53484 0.0
Cd128 Cd 0.27385 0.19978 0.51984 0.0
O129 O 0.28198 0.2142 0.54621 0.0
O130 O 0.29827 0.15494 0.54349 0.0
O131 O 0.31005 0.17234 0.52347 0.0
C132 C 0.31061 0.15947 0.53298 0.0
C133 C 0.28132 0.21218 0.49319 0.0
C134 C 0.28714 0.20772 0.56005 0.0
C135 C 0.24748 0.16199 0.51831 0.0
O136 O 0.24952 0.17856 0.51613 0.0
O137 O 0.26112 0.15721 0.52444 0.0
O138 O 0.26965 0.21671 0.50254 0.0
O139 O 0.28966 0.20138 0.49958 0.0
O140 O 0.11632 0.02565 0.75666 0.0
Cd141 Cd 0.13454 0.0276 0.77966 0.0
Cd142 Cd 0.10877 0.04097 0.79578 0.0
O143 O 0.09451 0.03364 0.76945 0.0
O144 O 0.15324 0.01673 0.7705 0.0
O145 O 0.13573 0.00482 0.79047 0.0
C146 C 0.14865 0.00433 0.7808 0.0
C147 C 0.0961 0.03257 0.82214 0.0
C148 C 0.10083 0.02862 0.75526 0.0
C149 C 0.14636 0.06741 0.79717 0.0
O150 O 0.12987 0.06537 0.79988 0.0
O151 O 0.15102 0.0538 0.79042 0.0
O152 O 0.09119 0.04412 0.81314 0.0
O153 O 0.10757 0.02499 0.81567 0.0
O154 O 0.26382 0.91166 0.03834 0.0
Cd155 Cd 0.26321 0.92231 0.01429 0.0
Cd156 Cd 0.25913 0.88943 1.00064 0.0
O157 O 0.25124 0.88316 0.0251 0.0
O158 O 0.25965 0.94646 0.02096 0.0
O159 O 0.23889 0.92324 0.00306 0.0
C160 C 0.24357 0.93979 0.01163 0.0
C161 C 0.24018 0.87621 0.97374 0.0
C162 C 0.25654 0.89483 0.03946 0.0
C163 C 0.29479 0.91609 0.99864 0.0
O164 O 0.28696 0.89925 0.99934 0.0
O165 O 0.28637 0.92779 0.00185 0.0
O166 O 0.24839 0.86687 0.98281 0.0
O167 O 0.2424 0.89311 0.98021 0.0
O168 O 0.27128 0.37253 0.0769 0.0
Cd169 Cd 0.27311 0.38962 0.05727 0.0
Cd170 Cd 0.28581 0.36038 0.04029 0.0
O171 O 0.27723 0.34841 0.0629 0.0
O172 O 0.26351 0.40919 0.0684 0.0
O173 O 0.25005 0.39121 0.04269 0.0
C174 C 0.25043 0.40454 0.05502 0.0
C175 C 0.28036 0.34396 0.0107 0.0
C176 C 0.27285 0.35651 0.07681 0.0
C177 C 0.31212 0.39923 0.04904 0.0
O178 O 0.30969 0.3822 0.04452 0.0
O179 O 0.29895 0.40493 0.05342 0.0
O180 O 0.29203 0.34179 0.02316 0.0
O181 O 0.27079 0.35461 0.01533 0.0
O182 O 0.80441 0.15165 0.09163 0.0
Cd183 Cd 0.79229 0.1351 0.06742 0.0
Cd184 Cd 0.78639 0.16493 0.05644 0.0
O185 O 0.80349 0.17663 0.08038 0.0
O186 O 0.80476 0.11631 0.06267 0.0
O187 O 0.80535 0.13831 0.04567 0.0
C188 C 0.81025 0.12416 0.04896 0.0
C189 C 0.78982 0.18276 0.03313 0.0
C190 C 0.80859 0.169 0.09323 0.0
C191 C 0.75341 0.13247 0.05896 0.0
O192 O 0.75964 0.14909 0.05652 0.0
O193 O 0.76434 0.12353 0.06317 0.0
O194 O 0.78279 0.18699 0.04729 0.0
O195 O 0.79523 0.16835 0.03222 0.0
O196 O 0.15774 0.51657 0.23269 0.0
Cd197 Cd 0.16907 0.52329 0.25976 0.0
Cd198 Cd 0.13704 0.52559 0.26413 0.0
O199 O 0.12939 0.50987 0.23894 0.0
O200 O 0.19157 0.51579 0.26242 0.0
O201 O 0.16682 0.5032 0.27501 0.0
C202 C 0.18338 0.50413 0.27232 0.0
C203 C 0.12144 0.51818 0.2885 0.0
C204 C 0.14058 0.50994 0.22752 0.0
C205 C 0.16691 0.56047 0.27055 0.0
O206 O 0.14981 0.55333 0.26553 0.0
O207 O 0.17727 0.55035 0.27126 0.0
O208 O 0.11423 0.52391 0.27493 0.0
O209 O 0.13726 0.51564 0.28773 0.0
O210 O 0.77282 0.87834 0.58244 0.0
Cd211 Cd 0.77477 0.89482 0.56216 0.0
Cd212 Cd 0.78615 0.86523 0.54535 0.0
O213 O 0.77866 0.85409 0.56865 0.0
O214 O 0.76422 0.91443 0.57144 0.0
O215 O 0.75173 0.89478 0.54644 0.0
C216 C 0.75138 0.90859 0.5578 0.0
C217 C 0.77835 0.84827 0.51594 0.0
C218 C 0.77442 0.86235 0.58255 0.0
C219 C 0.81332 0.90353 0.5524 0.0
O220 O 0.81041 0.88639 0.54806 0.0
O221 O 0.80063 0.90966 0.55745 0.0
O222 O 0.79043 0.84575 0.52774 0.0
O223 O 0.76973 0.85965 0.5212 0.0
O224 O 0.93617 0.0413 0.24121 0.0
Cd225 Cd 0.91819 0.03751 0.26046 0.0
Cd226 Cd 0.94645 0.02493 0.277 0.0
O227 O 0.95864 0.03256 0.25435 0.0
O228 O 0.89892 0.04802 0.25079 0.0
O229 O 0.91661 0.05962 0.277 0.0
C230 C 0.90358 0.06026 0.26506 0.0
C231 C 0.96165 0.0335 0.30689 0.0
C232 C 0.95171 0.03859 0.24113 0.0
C233 C 0.90865 0.99793 0.26792 0.0
O234 O 0.92557 1.00055 0.27303 0.0
O235 O 0.90304 0.01097 0.26322 0.0
O236 O 0.96565 0.02189 0.29544 0.0
O237 O 0.94966 0.04108 0.30109 0.0
O238 O 0.30277 0.66318 0.58436 0.0
Cd239 Cd 0.29594 0.64043 0.56501 0.0
Cd240 Cd 0.28405 0.66093 0.54278 0.0
O241 O 0.29261 0.67976 0.56621 0.0
O242 O 0.3146 0.62756 0.56731 0.0
O243 O 0.30923 0.64111 0.54346 0.0
C244 C 0.31832 0.63183 0.55156 0.0
C245 C 0.28479 0.67423 0.51631 0.0
C246 C 0.29997 0.67817 0.58164 0.0
C247 C 0.25765 0.62473 0.5497 0.0
O248 O 0.26137 0.63833 0.54106 0.0
O249 O 0.2697 0.62276 0.56148 0.0
O250 O 0.27286 0.67484 0.52705 0.0
O251 O 0.29679 0.66616 0.52066 0.0
O252 O 0.43497 0.54347 0.74571 0.0
Cd253 Cd 0.41843 0.54148 0.76621 0.0
Cd254 Cd 0.44791 0.52882 0.78163 0.0
O255 O 0.45919 0.53729 0.75863 0.0
O256 O 0.39889 0.55194 0.75697 0.0
O257 O 0.41788 0.56442 0.78224 0.0
C258 C 0.40429 0.56471 0.7708 0.0
C259 C 0.46478 0.5346 0.8109 0.0
C260 C 0.45091 0.54179 0.74511 0.0
C261 C 0.40924 0.50235 0.77391 0.0
O262 O 0.42635 0.5048 0.7776 0.0
O263 O 0.40334 0.51552 0.77023 0.0
O264 O 0.46713 0.52314 0.7981 0.0
O265 O 0.45366 0.54376 0.80679 0.0
O266 O 0.66346 0.01443 0.72757 0.0
Cd267 Cd 0.67848 0.02484 0.75267 0.0
Cd268 Cd 0.64712 0.02468 0.76366 0.0
O269 O 0.63733 0.00823 0.73891 0.0
O270 O 0.70097 0.01735 0.75526 0.0
O271 O 0.67762 0.00778 0.7708 0.0
C272 C 0.69373 0.00778 0.76728 0.0
C273 C 0.63363 0.01673 0.78911 0.0
C274 C 0.64618 0.00717 0.72555 0.0
C275 C 0.67452 0.06125 0.76465 0.0
O276 O 0.6577 0.05272 0.7647 0.0
O277 O 0.68568 0.05243 0.76116 0.0
O278 O 0.62491 0.02154 0.77591 0.0
O279 O 0.64985 0.01564 0.78759 0.0
O280 O 0.78742 0.69724 0.06307 0.0
Cd281 Cd 0.78494 0.67853 0.03998 0.0
Cd282 Cd 0.77145 0.70357 0.02411 0.0
O283 O 0.77863 0.71837 0.05028 0.0
O284 O 0.79646 0.66019 0.0484 0.0
O285 O 0.8073 0.67758 0.028 0.0
C286 C 0.80839 0.66484 0.0375 0.0
C287 C 0.78045 0.71516 0.9976 0.0
C288 C 0.78414 0.71258 0.06443 0.0
C289 C 0.74502 0.66627 0.02314 0.0
O290 O 0.74702 0.68264 0.02023 0.0
O291 O 0.75865 0.66181 0.0299 0.0
O292 O 0.76896 0.72068 0.00641 0.0
O293 O 0.78766 0.70369 0.00436 0.0
O294 O 0.90232 0.54943 0.78614 0.0
Cd295 Cd 0.8888 0.54993 0.80857 0.0
Cd296 Cd 0.91971 0.54989 0.82475 0.0
O297 O 0.9299 0.55828 0.80177 0.0
O298 O 0.86608 0.55488 0.79939 0.0
O299 O 0.88757 0.57428 0.82021 0.0
C300 C 0.87205 0.57042 0.8099 0.0
C301 C 0.93439 0.5639 0.85354 0.0
C302 C 0.91963 0.55469 0.78662 0.0
C303 C 0.88893 0.51562 0.8216 0.0
O304 O 0.90625 0.52228 0.82317 0.0
O305 O 0.8789 0.5256 0.8181 0.0
O306 O 0.94144 0.55422 0.84295 0.0
O307 O 0.91918 0.56647 0.84737 0.0
O308 O 0.75523 0.40362 0.55311 0.0
Cd309 Cd 0.76207 0.41709 0.53135 0.0
Cd310 Cd 0.7689 0.38746 0.51745 0.0
O311 O 0.75652 0.37753 0.53881 0.0
O312 O 0.75202 0.43774 0.53359 0.0
O313 O 0.74208 0.41445 0.51089 0.0
C314 C 0.74114 0.42988 0.51882 0.0
C315 C 0.76 0.36842 0.48979 0.0
C316 C 0.75267 0.38651 0.55235 0.0
C317 C 0.80071 0.42164 0.52605 0.0
O318 O 0.79572 0.40433 0.52167 0.0
O319 O 0.78903 0.4297 0.52975 0.0
O320 O 0.77038 0.36515 0.50273 0.0
O321 O 0.75439 0.38263 0.49265 0.0
O322 O 0.61794 0.524 0.26114 0.0
Cd323 Cd 0.63593 0.52635 0.28446 0.0
Cd324 Cd 0.60858 0.53783 0.2997 0.0
O325 O 0.59472 0.52973 0.27322 0.0
O326 O 0.65506 0.51604 0.27541 0.0
O327 O 0.63766 0.50373 0.29526 0.0
C328 C 0.65062 0.50347 0.28557 0.0
C329 C 0.59615 0.52893 0.32602 0.0
C330 C 0.60188 0.52564 0.25928 0.0
C331 C 0.64565 0.56579 0.30221 0.0
O332 O 0.6288 0.56287 0.30396 0.0
O333 O 0.65139 0.55273 0.29596 0.0
O334 O 0.59059 0.54004 0.31692 0.0
O335 O 0.6081 0.522 0.31962 0.0
Dy336 Dy 0.04566 0.046 0.04206 0.0
Dy337 Dy 1.00414 0.02328 0.02393 0.0
C338 C 0.03727 0.02993 0.99997 0.0
O339 O 0.03623 0.06688 0.02841 0.0
O340 O 1.00512 0.05318 0.02558 0.0
O341 O 0.07298 0.06391 0.04155 0.0
O342 O 0.06516 0.05411 0.06656 0.0
O343 O 0.00631 0.02372 0.05406 0.0
O344 O 0.02681 0.05202 0.06114 0.0
O345 O 0.01614 1.0003 0.02786 0.0
O346 O 0.04244 0.01682 0.04712 0.0
O347 O 0.97608 0.01213 0.0282 0.0
O348 O 0.98328 0.00916 1.00106 0.0
C349 C 0.01935 0.06758 0.02492 0.0
O350 O 0.04873 0.03249 0.01492 0.0
O351 O 0.02008 0.02922 1.00062 0.0
C352 C 0.09342 0.05321 0.05899 0.0
C353 C 0.11973 0.03464 0.06209 0.0
C354 C 0.1038 0.02731 0.04939 0.0
C355 C 0.09077 0.03647 0.04791 0.0
C356 C 0.10926 0.06073 0.0717 0.0
C357 C 0.12246 0.05151 0.07318 0.0
C358 C 0.07868 0.06161 0.0579 0.0
C359 C 0.01387 0.03871 0.06567 0.0
C360 C 0.03071 1.00101 0.03915 0.0
C361 C 0.95531 0.01573 0.0048 0.0
C362 C 0.93109 0.03573 0.99625 0.0
C363 C 0.93165 0.02903 0.01291 0.0
C364 C 0.94349 0.01899 0.01708 0.0
C365 C 0.95398 0.02152 0.98764 0.0
C366 C 0.94185 0.03139 0.98336 0.0
C367 C 0.96998 0.008 0.0109 0.0
H368 H 0.10151 0.0146 0.04033 0.0
H369 H 0.07851 0.03039 0.03813 0.0
H370 H 0.11132 0.07354 0.08051 0.0
H371 H 0.13467 0.05744 0.08305 0.0
H372 H 0.92319 0.03197 0.02292 0.0
H373 H 0.94396 0.01446 0.03028 0.0
H374 H 0.96278 0.01906 0.97781 0.0
H375 H 0.94148 0.03636 0.97037 0.0
Dy376 Dy 0.28209 0.78308 0.26015 0.0
Dy377 Dy 0.26376 0.79252 0.29591 0.0
C378 C 0.28654 0.82417 0.27704 0.0
O379 O 0.29775 0.77499 0.28293 0.0
O380 O 0.29326 0.79515 0.30551 0.0
O381 O 0.30645 0.78553 0.24729 0.0
O382 O 0.27975 0.77028 0.23243 0.0
O383 O 0.26219 0.76307 0.29406 0.0
O384 O 0.26107 0.75715 0.26329 0.0
O385 O 0.24141 0.78727 0.27236 0.0
O386 O 0.25961 0.79421 0.25003 0.0
O387 O 0.24229 0.78549 0.31282 0.0
O388 O 0.26511 0.81044 0.32072 0.0
C389 C 0.3025 0.78431 0.29941 0.0
O390 O 0.29514 0.81283 0.27086 0.0
O391 O 0.27129 0.81828 0.28393 0.0
C392 C 0.30028 0.78969 0.21711 0.0
C393 C 0.30043 0.8105 0.18859 0.0
C394 C 0.29927 0.81793 0.20632 0.0
C395 C 0.29916 0.8076 0.22043 0.0
C396 C 0.30231 0.78247 0.19968 0.0
C397 C 0.30245 0.79284 0.18547 0.0
C398 C 0.29703 0.77811 0.2314 0.0
C399 C 0.25786 0.75154 0.27889 0.0
C400 C 0.24363 0.79161 0.256 0.0
C401 C 0.25605 0.79222 0.34299 0.0
C402 C 0.26506 0.77849 0.37467 0.0
C403 C 0.27341 0.77577 0.35915 0.0
C404 C 0.26892 0.78254 0.34348 0.0
C405 C 0.24775 0.7952 0.35842 0.0
C406 C 0.25221 0.78831 0.37423 0.0
C407 C 0.2514 0.79858 0.32599 0.0
H408 H 0.29738 0.83132 0.20915 0.0
H409 H 0.29731 0.81329 0.23379 0.0
H410 H 0.30307 0.7686 0.19692 0.0
H411 H 0.30353 0.78685 0.17196 0.0
H412 H 0.28302 0.76791 0.35889 0.0
H413 H 0.27531 0.77995 0.3316 0.0
H414 H 0.23777 0.80264 0.35818 0.0
H415 H 0.2456 0.79059 0.38604 0.0
Dy416 Dy 0.51079 0.02992 0.54194 0.0
Dy417 Dy 0.55383 0.03971 0.53228 0.0
C418 C 0.52236 0.04622 0.50608 0.0
O419 O 0.5158 1.00243 0.53755 0.0
O420 O 0.53924 0.01011 0.52027 0.0
O421 O 0.48181 0.01701 0.53279 0.0
O422 O 0.49093 0.03283 0.55963 0.0
O423 O 0.55402 0.02803 0.55788 0.0
O424 O 0.52703 0.02936 0.56811 0.0
O425 O 0.55255 0.06682 0.54635 0.0
O426 O 0.52129 0.06077 0.54598 0.0
O427 O 0.58303 0.05081 0.54082 0.0
O428 O 0.57267 0.03714 0.51321 0.0
C429 C 0.52672 0.99765 0.52675 0.0
O430 O 0.51086 0.03307 0.51261 0.0
O431 O 0.53965 0.05277 0.51306 0.0
C432 C 0.46401 0.03511 0.54386 0.0
C433 C 0.44006 0.05657 0.53959 0.0
C434 C 0.45709 0.06126 0.53295 0.0
C435 C 0.46894 0.05064 0.53506 0.0
C436 C 0.44706 0.03025 0.55039 0.0
C437 C 0.43519 0.04085 0.54828 0.0
C438 C 0.47696 0.02465 0.54717 0.0
C439 C 0.54336 0.02725 0.57056 0.0
C440 C 0.53808 0.07231 0.5488 0.0
C441 C 0.5988 0.03174 0.52794 0.0
C442 C 0.62157 0.00948 0.53424 0.0
C443 C 0.60245 1.00247 0.53387 0.0
C444 C 0.5912 0.01352 0.53085 0.0
C445 C 0.61781 0.0388 0.52825 0.0
C446 C 0.62911 0.02778 0.53139 0.0
C447 C 0.587 0.0436 0.5257 0.0
H448 H 0.46133 0.07313 0.52611 0.0
H449 H 0.48205 0.05468 0.53001 0.0
H450 H 0.44313 0.01842 0.55739 0.0
H451 H 0.4224 0.03696 0.5539 0.0
H452 H 0.59622 0.98854 0.53626 0.0
H453 H 0.57657 0.00792 0.531 0.0
H454 H 0.62393 0.05287 0.5262 0.0
H455 H 0.64375 0.03355 0.53142 0.0
Dy456 Dy 0.29937 0.27852 0.78453 0.0
Dy457 Dy 0.2591 0.28719 0.77978 0.0
C458 C 0.29683 0.31855 0.77865 0.0
O459 O 0.29245 0.28156 0.81305 0.0
O460 O 0.27126 0.29722 0.80883 0.0
O461 O 0.32817 0.28467 0.79485 0.0
O462 O 0.3143 0.25994 0.77591 0.0
O463 O 0.25493 0.26228 0.79319 0.0
O464 O 0.27689 0.25174 0.78141 0.0
O465 O 0.26251 0.27348 0.75259 0.0
O466 O 0.29386 0.28319 0.75596 0.0
O467 O 0.22992 0.27704 0.77042 0.0
O468 O 0.24227 0.30508 0.78363 0.0
C469 C 0.28224 0.29129 0.81951 0.0
O470 O 0.30609 0.3089 0.7865 0.0
O471 O 0.27926 0.31175 0.77226 0.0
C472 C 0.3456 0.27385 0.77396 0.0
C473 C 0.37525 0.27883 0.75323 0.0
C474 C 0.36519 0.2915 0.75437 0.0
C475 C 0.35049 0.28902 0.76459 0.0
C476 C 0.35542 0.26112 0.77269 0.0
C477 C 0.37001 0.26354 0.76244 0.0
C478 C 0.32997 0.2706 0.78456 0.0
C479 C 0.26167 0.24888 0.78878 0.0
C480 C 0.27799 0.27667 0.74558 0.0
C481 C 0.21209 0.28987 0.78883 0.0
C482 C 0.18315 0.28561 0.81036 0.0
C483 C 0.20054 0.28505 0.8177 0.0
C484 C 0.21484 0.28709 0.80702 0.0
C485 C 0.19482 0.29044 0.78146 0.0
C486 C 0.18051 0.28832 0.79208 0.0
C487 C 0.227 0.29209 0.77738 0.0
H488 H 0.36882 0.3035 0.74758 0.0
H489 H 0.34297 0.29893 0.7652 0.0
H490 H 0.35171 0.24918 0.77957 0.0
H491 H 0.37705 0.25323 0.76159 0.0
H492 H 0.20303 0.28277 0.83162 0.0
H493 H 0.22804 0.28647 0.81294 0.0
H494 H 0.19241 0.29257 0.76747 0.0
H495 H 0.16742 0.28906 0.78602 0.0
Dy496 Dy 0.03271 0.01722 0.53058 0.0
Dy497 Dy 0.02476 0.05785 0.53618 0.0
C498 C 0.99424 0.02017 0.53914 0.0
O499 O 0.01854 0.02003 0.50374 0.0
O500 O 0.02741 0.05148 0.5069 0.0
O501 O 0.02275 0.98794 0.52161 0.0
O502 O 0.05069 1.00052 0.53472 0.0
O503 O 0.05504 0.06323 0.53712 0.0
O504 O 0.05591 0.03666 0.52027 0.0
O505 O 0.0273 0.05032 0.5644 0.0
O506 O 0.04461 0.03094 0.55891 0.0
O507 O 0.03285 0.08705 0.54604 0.0
O508 O 0.00654 0.07368 0.52971 0.0
C509 C 0.02093 0.03536 0.49672 0.0
O510 O 0.00741 0.01321 0.54358 0.0
O511 O 0.99756 0.03598 0.53303 0.0
C512 C 0.03543 0.97061 0.54047 0.0
C513 C 0.03125 0.94227 0.56245 0.0
C514 C 0.02126 0.95494 0.56443 0.0
C515 C 0.02335 0.96897 0.55358 0.0
C516 C 0.04551 0.95816 0.53855 0.0
C517 C 0.04348 0.94418 0.5494 0.0
C518 C 0.03771 0.98517 0.52874 0.0
C519 C 0.06366 0.05398 0.52733 0.0
C520 C 0.03815 0.04105 0.57025 0.0
C521 C 0.02111 0.10438 0.52616 0.0
C522 C 0.02494 0.13286 0.5043 0.0
C523 C 0.03505 0.12029 0.50222 0.0
C524 C 0.03313 0.10619 0.51299 0.0
C525 C 0.01098 0.11677 0.52824 0.0
C526 C 0.01282 0.1308 0.51746 0.0
C527 C 0.01831 0.08928 0.53727 0.0
H528 H 0.01159 0.95386 0.57417 0.0
H529 H 0.01545 0.97847 0.55536 0.0
H530 H 0.055 0.95924 0.52863 0.0
H531 H 0.05169 0.93499 0.54767 0.0
H532 H 0.04463 0.12144 0.4924 0.0
H533 H 0.04098 0.09667 0.51102 0.0
H534 H 1.00144 0.11549 0.53813 0.0
H535 H 1.00448 0.13984 0.51928 0.0
Dy536 Dy 0.28276 0.80816 0.776 0.0
Dy537 Dy 0.27297 0.76484 0.784 0.0
C538 C 0.26646 0.79579 0.81169 0.0
O539 O 0.31012 0.80286 0.77956 0.0
O540 O 0.30213 0.77965 0.79674 0.0
O541 O 0.29537 0.83712 0.78588 0.0
O542 O 0.28044 0.82827 0.75874 0.0
O543 O 0.28497 0.76539 0.75818 0.0
O544 O 0.28184 0.79205 0.74913 0.0
O545 O 0.24579 0.76652 0.77086 0.0
O546 O 0.25198 0.79793 0.77277 0.0
O547 O 0.26242 0.73562 0.77503 0.0
O548 O 0.27531 0.746 0.80285 0.0
C549 C 0.31475 0.79207 0.79037 0.0
O550 O 0.27937 0.80767 0.80523 0.0
O551 O 0.26005 0.77859 0.80416 0.0
C552 C 0.27745 0.8549 0.77486 0.0
C553 C 0.25518 0.87818 0.77863 0.0
C554 C 0.25136 0.86187 0.78639 0.0
C555 C 0.26237 0.85033 0.7845 0.0
C556 C 0.28149 0.87121 0.76731 0.0
C557 C 0.27049 0.88276 0.76918 0.0
C558 C 0.28816 0.84211 0.77156 0.0
C559 C 0.28479 0.77615 0.74583 0.0
C560 C 0.24037 0.78118 0.76941 0.0
C561 C 0.28099 0.71936 0.78866 0.0
C562 C 0.30365 0.69623 0.78626 0.0
C563 C 0.29595 0.70114 0.77049 0.0
C564 C 0.28479 0.7126 0.77166 0.0
C565 C 0.28864 0.71442 0.80442 0.0
C566 C 0.29991 0.70306 0.80325 0.0
C567 C 0.26934 0.7317 0.79017 0.0
H568 H 0.23986 0.85799 0.79392 0.0
H569 H 0.25896 0.8377 0.79034 0.0
H570 H 0.29294 0.87485 0.75964 0.0
H571 H 0.2737 0.89503 0.76277 0.0
H572 H 0.29872 0.69629 0.75721 0.0
H573 H 0.27923 0.71618 0.75921 0.0
H574 H 0.28592 0.71937 0.81769 0.0
H575 H 0.30546 0.69938 0.81565 0.0
Dy576 Dy 0.51947 0.03723 0.01782 0.0
Dy577 Dy 0.52624 0.01702 0.05266 0.0
C578 C 0.52718 0.99831 0.01279 0.0
O579 O 0.49198 0.0272 0.02673 0.0
O580 O 0.49719 0.00363 0.0402 0.0
O581 O 0.50348 0.03818 0.99277 0.0
O582 O 0.52886 0.05985 0.00285 0.0
O583 O 0.51411 0.03886 0.06322 0.0
O584 O 0.52279 0.05824 0.04236 0.0
O585 O 0.55264 0.03828 0.0516 0.0
O586 O 0.549 0.03871 0.02105 0.0
O587 O 0.5381 0.018 0.08026 0.0
O588 O 0.52273 0.99191 0.06408 0.0
C589 C 0.48591 0.01144 0.03264 0.0
O590 O 0.5173 0.00824 0.00656 0.0
O591 O 0.53548 1.0023 0.02963 0.0
C592 C 0.52347 0.04874 0.97172 0.0
C593 C 0.54132 0.04306 0.94148 0.0
C594 C 0.53297 0.0283 0.95032 0.0
C595 C 0.52421 0.03113 0.96534 0.0
C596 C 0.53147 0.06347 0.96273 0.0
C597 C 0.54037 0.06066 0.9477 0.0
C598 C 0.51634 0.05198 0.98891 0.0
C599 C 0.51722 0.05522 0.05816 0.0
C600 C 0.55954 0.04227 0.03671 0.0
C601 C 0.51882 0.99644 0.09468 0.0
C602 C 0.49896 0.99489 0.12428 0.0
C603 C 0.49142 0.99779 0.10739 0.0
C604 C 0.50129 0.99859 0.09272 0.0
C605 C 0.526 0.99246 0.1111 0.0
C606 C 0.51609 0.99163 0.12585 0.0
C607 C 0.53023 1.00055 0.08028 0.0
H608 H 0.53372 0.01465 0.946 0.0
H609 H 0.51847 0.0196 0.97226 0.0
H610 H 0.53126 0.07719 0.96762 0.0
H611 H 0.54663 0.07225 0.94104 0.0
H612 H 0.47843 1.00068 0.10581 0.0
H613 H 0.49565 1.00185 0.08012 0.0
H614 H 0.53957 0.99083 0.11276 0.0
H615 H 0.52214 0.98922 0.13868 0.0
Dy616 Dy 0.2625 0.25563 0.27217 0.0
Dy617 Dy 0.2848 0.29735 0.29153 0.0
C618 C 0.27918 0.26344 0.3138 0.0
O619 O 0.24177 0.26589 0.28589 0.0
O620 O 0.25516 0.29697 0.28897 0.0
O621 O 0.24153 0.23025 0.27302 0.0
O622 O 0.25611 0.23351 0.24969 0.0
O623 O 0.2801 0.29957 0.26201 0.0
O624 O 0.25704 0.27272 0.25139 0.0
O625 O 0.30728 0.28449 0.28686 0.0
O626 O 0.29122 0.26011 0.26507 0.0
O627 O 0.30454 0.32388 0.29161 0.0
O628 O 0.2909 0.31813 0.31516 0.0
C629 C 0.2408 0.2827 0.28935 0.0
O630 O 0.2772 0.25245 0.29848 0.0
O631 O 0.27883 0.28034 0.31378 0.0
C632 C 0.24927 0.20469 0.25968 0.0
C633 C 0.26404 0.17584 0.26394 0.0
C634 C 0.25754 0.18394 0.27859 0.0
C635 C 0.25022 0.19824 0.27649 0.0
C636 C 0.25436 0.1956 0.24466 0.0
C637 C 0.26177 0.18131 0.24678 0.0
C638 C 0.24515 0.22203 0.25825 0.0
C639 C 0.26742 0.28894 0.24913 0.0
C640 C 0.30693 0.27118 0.27389 0.0
C641 C 0.29404 0.34667 0.3062 0.0
C642 C 0.27757 0.37481 0.30691 0.0
C643 C 0.27149 0.35964 0.29305 0.0
C644 C 0.27961 0.34568 0.29272 0.0
C645 C 0.30054 0.36199 0.31981 0.0
C646 C 0.2924 0.37606 0.32013 0.0
C647 C 0.30069 0.33076 0.30692 0.0
H648 H 0.25926 0.18013 0.29202 0.0
H649 H 0.24632 0.20486 0.28834 0.0
H650 H 0.25356 0.20022 0.23152 0.0
H651 H 0.26647 0.1751 0.23523 0.0
H652 H 0.26031 0.35847 0.28251 0.0
H653 H 0.27431 0.33386 0.28218 0.0
H654 H 0.31151 0.3628 0.33044 0.0
H655 H 0.29729 0.3876 0.331 0.0
Dy656 Dy 0.53366 0.51272 0.0342 0.0
Dy657 Dy 0.52469 0.55277 0.04015 0.0
C658 C 0.494 0.51515 0.0419 0.0
O659 O 0.53094 0.52028 0.00607 0.0
O660 O 0.51371 0.5398 0.01139 0.0
O661 O 0.52694 0.48399 0.02299 0.0
O662 O 0.55185 0.49717 0.04168 0.0
O663 O 0.54974 0.55732 0.02657 0.0
O664 O 0.56043 0.53511 0.03716 0.0
O665 O 0.53869 0.5497 0.06706 0.0
O666 O 0.52992 0.51828 0.06329 0.0
O667 O 0.53413 0.58192 0.04984 0.0
O668 O 0.50637 0.56916 0.03622 0.0
C669 C 0.52029 0.52971 1.00014 0.0
O670 O 0.50333 0.50634 0.03265 0.0
O671 O 0.501 0.53256 0.049 0.0
C672 C 0.53725 0.46588 0.04295 0.0
C673 C 0.53173 0.43607 0.06314 0.0
C674 C 0.5196 0.44673 0.06283 0.0
C675 C 0.52236 0.46151 0.05288 0.0
C676 C 0.54936 0.45536 0.04324 0.0
C677 C 0.54668 0.44067 0.05321 0.0
C678 C 0.54088 0.48171 0.03279 0.0
C679 C 0.5632 0.55058 0.03045 0.0
C680 C 0.53615 0.53421 0.07382 0.0
C681 C 0.52138 0.59945 0.0309 0.0
C682 C 0.52498 0.62809 0.00933 0.0
C683 C 0.54015 0.62227 0.01479 0.0
C684 C 0.53838 0.60809 0.02538 0.0
C685 C 0.50622 0.60522 0.02543 0.0
C686 C 0.50797 0.6193 0.01472 0.0
C687 C 0.51921 0.58458 0.04239 0.0
H688 H 0.50784 0.44357 0.07013 0.0
H689 H 0.51289 0.46954 0.05297 0.0
H690 H 0.56107 0.45861 0.03586 0.0
H691 H 0.55655 0.43312 0.05336 0.0
H692 H 0.5534 0.62855 0.01071 0.0
H693 H 0.55034 0.60392 0.02924 0.0
H694 H 0.49299 0.59886 0.02951 0.0
H695 H 0.49603 0.62354 0.01095 0.0
Dy696 Dy 0.77826 0.30024 0.27616 0.0
Dy697 Dy 0.76908 0.25685 0.28155 0.0
C698 C 0.76522 0.28673 0.31223 0.0
O699 O 0.80438 0.29761 0.29105 0.0
O700 O 0.79963 0.26697 0.28177 0.0
O701 O 0.78883 0.32895 0.28739 0.0
O702 O 0.77746 0.32081 0.25887 0.0
O703 O 0.76914 0.25879 0.25206 0.0
O704 O 0.79011 0.28709 0.25438 0.0
O705 O 0.74133 0.26139 0.2785 0.0
O706 O 0.74898 0.28611 0.26307 0.0
O707 O 0.75806 0.22791 0.2709 0.0
O708 O 0.77084 0.23659 0.29883 0.0
C709 C 0.81071 0.28338 0.28873 0.0
O710 O 0.76275 0.29669 0.29974 0.0
O711 O 0.77202 0.27315 0.30888 0.0
C712 C 0.77222 0.34698 0.27426 0.0
C713 C 0.75088 0.37134 0.27711 0.0
C714 C 0.74982 0.35817 0.28894 0.0
C715 C 0.7603 0.34607 0.28747 0.0
C716 C 0.77328 0.36 0.2624 0.0
C717 C 0.76271 0.37201 0.26376 0.0
C718 C 0.7833 0.33426 0.27244 0.0
C719 C 0.78191 0.27062 0.24545 0.0
C720 C 0.73648 0.27269 0.26845 0.0
C721 C 0.77583 0.2103 0.28346 0.0
C722 C 0.79862 0.18743 0.28044 0.0
C723 C 0.79138 0.1931 0.2649 0.0
C724 C 0.7802 0.20451 0.26639 0.0
C725 C 0.78275 0.20431 0.29891 0.0
C726 C 0.79409 0.19309 0.29744 0.0
C727 C 0.7646 0.22293 0.28557 0.0
H728 H 0.74107 0.35733 0.29951 0.0
H729 H 0.75911 0.33603 0.29671 0.0
H730 H 0.78224 0.36081 0.25199 0.0
H731 H 0.76366 0.38167 0.25417 0.0
H732 H 0.79471 0.18906 0.25162 0.0
H733 H 0.77517 0.20892 0.2542 0.0
H734 H 0.77952 0.20846 0.31221 0.0
H735 H 0.79918 0.18872 0.30963 0.0
Dy736 Dy 0.0243 0.5479 0.52711 0.0
Dy737 Dy 0.03176 0.5282 0.56228 0.0
C738 C 0.03208 0.50895 0.5225 0.0
O739 O 0.99739 0.53883 0.53739 0.0
O740 O 1.00283 0.51473 0.5496 0.0
O741 O 0.00824 0.54732 0.50158 0.0
O742 O 0.03222 0.57055 0.51196 0.0
O743 O 0.02046 0.55071 0.57273 0.0
O744 O 0.02842 0.56949 0.55123 0.0
O745 O 0.05868 0.54791 0.55997 0.0
O746 O 0.05378 0.54916 0.52954 0.0
O747 O 0.04396 0.52963 0.58986 0.0
O748 O 0.02745 0.50349 0.57454 0.0
C749 C 0.99144 0.52297 0.5431 0.0
O750 O 0.02185 0.51865 0.51644 0.0
O751 O 0.04058 0.51298 0.53927 0.0
C752 C 0.02809 0.55895 0.48114 0.0
C753 C 0.04409 0.55313 0.44968 0.0
C754 C 0.04672 0.54412 0.46455 0.0
C755 C 0.03881 0.54701 0.48013 0.0
C756 C 0.02527 0.56793 0.46636 0.0
C757 C 0.0332 0.565 0.45065 0.0
C758 C 0.02023 0.56186 0.49785 0.0
C759 C 0.02332 0.56686 0.56726 0.0
C760 C 0.06489 0.55155 0.54468 0.0
C761 C 0.02405 0.50952 0.60514 0.0
C762 C 1.00399 0.50858 0.63464 0.0
C763 C 0.9973 0.51283 0.61804 0.0
C764 C 0.00726 0.51331 0.60343 0.0
C765 C 0.0305 0.50459 0.62137 0.0
C766 C 0.0205 0.50407 0.63605 0.0
C767 C 0.03537 0.51246 0.59051 0.0
H768 H 0.05476 0.53466 0.46408 0.0
H769 H 0.04106 0.53992 0.49144 0.0
H770 H 0.01704 0.5772 0.46699 0.0
H771 H 0.03105 0.57219 0.43939 0.0
H772 H 0.98484 0.51671 0.61659 0.0
H773 H 1.0022 0.51733 0.591 0.0
H774 H 0.04349 0.5017 0.62285 0.0
H775 H 0.0259 0.50061 0.64864 0.0
Dy776 Dy 0.79378 0.77885 0.29029 0.0
Dy777 Dy 0.75367 0.78819 0.28458 0.0
C778 C 0.79179 0.81773 0.28106 0.0
O779 O 0.79094 0.79214 0.3178 0.0
O780 O 0.75974 0.78738 0.31417 0.0
O781 O 0.82298 0.78797 0.29927 0.0
O782 O 0.80981 0.76023 0.2855 0.0
O783 O 0.74708 0.75809 0.28532 0.0
O784 O 0.77386 0.75586 0.30026 0.0
O785 O 0.76165 0.78496 0.2565 0.0
O786 O 0.78018 0.76696 0.26199 0.0
O787 O 0.72498 0.78079 0.27339 0.0
O788 O 0.73777 0.80641 0.29139 0.0
C789 C 0.77567 0.79198 0.32449 0.0
O790 O 0.79886 0.80435 0.27765 0.0
O791 O 0.77579 0.815 0.28689 0.0
C792 C 0.83991 0.77493 0.27958 0.0
C793 C 0.86804 0.77833 0.25702 0.0
C794 C 0.85904 0.79183 0.25919 0.0
C795 C 0.8451 0.79012 0.27028 0.0
C796 C 0.8487 0.76138 0.27735 0.0
C797 C 0.86254 0.76302 0.26619 0.0
C798 C 0.82535 0.7729 0.29153 0.0
C799 C 0.7562 0.7491 0.29443 0.0
C800 C 0.7708 0.77388 0.25066 0.0
C801 C 0.7068 0.79123 0.29374 0.0
C802 C 0.67758 0.78557 0.31511 0.0
C803 C 0.68608 0.77187 0.31131 0.0
C804 C 0.70056 0.77469 0.30081 0.0
C805 C 0.69843 0.80491 0.29752 0.0
C806 C 0.68405 0.80216 0.30809 0.0
C807 C 0.72241 0.79484 0.28305 0.0
H808 H 0.86295 0.80392 0.25257 0.0
H809 H 0.83847 0.80074 0.27163 0.0
H810 H 0.84483 0.74946 0.28424 0.0
H811 H 0.86881 0.75213 0.26463 0.0
H812 H 0.68143 0.75885 0.31627 0.0
H813 H 0.70689 0.76396 0.29826 0.0
H814 H 0.70314 0.81786 0.29242 0.0
H815 H 0.67822 0.81321 0.31097 0.0
Dy816 Dy 0.79243 0.28102 0.7688 0.0
Dy817 Dy 0.77459 0.29315 0.80399 0.0
C818 C 0.79906 0.32299 0.78442 0.0
O819 O 0.80721 0.27299 0.79223 0.0
O820 O 0.80386 0.29495 0.81361 0.0
O821 O 0.81578 0.28351 0.75424 0.0
O822 O 0.78956 0.26364 0.74327 0.0
O823 O 0.77094 0.26337 0.80308 0.0
O824 O 0.76964 0.25678 0.77244 0.0
O825 O 0.75269 0.28889 0.78014 0.0
O826 O 0.77092 0.29277 0.75742 0.0
O827 O 0.75284 0.28803 0.82076 0.0
O828 O 0.77697 0.31172 0.82864 0.0
C829 C 0.81238 0.28312 0.80829 0.0
O830 O 0.80689 0.3108 0.7786 0.0
O831 O 0.78352 0.31815 0.79104 0.0
C832 C 0.80551 0.28054 0.72286 0.0
C833 C 0.79586 0.29583 0.69248 0.0
C834 C 0.80629 0.30724 0.70821 0.0
C835 C 0.81102 0.29968 0.7233 0.0
C836 C 0.79634 0.26911 0.70665 0.0
C837 C 0.79146 0.27671 0.69157 0.0
C838 C 0.80574 0.27271 0.73987 0.0
C839 C 0.76586 0.25163 0.78807 0.0
C840 C 0.75515 0.29183 0.76337 0.0
C841 C 0.7663 0.29413 0.85103 0.0
C842 C 0.77264 0.27883 0.88254 0.0
C843 C 0.78225 0.27686 0.86779 0.0
C844 C 0.77906 0.28436 0.8522 0.0
C845 C 0.75685 0.29651 0.86576 0.0
C846 C 0.76005 0.28893 0.88149 0.0
C847 C 0.7626 0.3008 0.83391 0.0
H848 H 0.80975 0.32204 0.7093 0.0
H849 H 0.8179 0.30887 0.73567 0.0
H850 H 0.79187 0.25433 0.70608 0.0
H851 H 0.78361 0.26765 0.67948 0.0
H852 H 0.79222 0.26943 0.86822 0.0
H853 H 0.78642 0.28229 0.84091 0.0
H854 H 0.74687 0.30392 0.86498 0.0
H855 H 0.75235 0.29056 0.89262 0.0
Dy856 Dy 0.76647 0.76503 0.77784 0.0
Dy857 Dy 0.7893 0.80535 0.79872 0.0
C858 C 0.78201 0.77077 0.81978 0.0
O859 O 0.74541 0.77422 0.79201 0.0
O860 O 0.75968 0.80531 0.79669 0.0
O861 O 0.74951 0.73713 0.77742 0.0
O862 O 0.75801 0.7465 0.75251 0.0
O863 O 0.78646 0.80732 0.76894 0.0
O864 O 0.75962 0.78433 0.76025 0.0
O865 O 0.81089 0.79117 0.79502 0.0
O866 O 0.79503 0.77121 0.76985 0.0
O867 O 0.80829 0.83222 0.79851 0.0
O868 O 0.79748 0.82519 0.82321 0.0
C869 C 0.74497 0.79114 0.79648 0.0
O870 O 0.78001 0.76026 0.80413 0.0
O871 O 0.78228 0.78789 0.82032 0.0
C872 C 0.75988 0.71792 0.75767 0.0
C873 C 0.77757 0.6909 0.75337 0.0
C874 C 0.78693 0.70832 0.76324 0.0
C875 C 0.77816 0.72167 0.76535 0.0
C876 C 0.75045 0.70073 0.74752 0.0
C877 C 0.75926 0.68721 0.74542 0.0
C878 C 0.75121 0.73234 0.76052 0.0
C879 C 0.77193 0.79897 0.75697 0.0
C880 C 0.81066 0.77991 0.7803 0.0
C881 C 0.79961 0.85436 0.81639 0.0
C882 C 0.78483 0.88361 0.82058 0.0
C883 C 0.77597 0.86795 0.80774 0.0
C884 C 0.78329 0.85347 0.80567 0.0
C885 C 0.80868 0.86999 0.82911 0.0
C886 C 0.80137 0.88464 0.83113 0.0
C887 C 0.80619 0.83834 0.81488 0.0
H888 H 0.80085 0.71148 0.76995 0.0
H889 H 0.78561 0.73488 0.77329 0.0
H890 H 0.73632 0.69773 0.74145 0.0
H891 H 0.75174 0.67388 0.73776 0.0
H892 H 0.76343 0.86697 0.79914 0.0
H893 H 0.77613 0.84148 0.79577 0.0
H894 H 0.82123 0.87075 0.83757 0.0
H895 H 0.80845 0.89661 0.84108 0.0
Dy896 Dy 0.55414 0.54546 0.54919 0.0
Dy897 Dy 0.51282 0.52288 0.53073 0.0
C898 C 0.54599 0.52753 0.50709 0.0
O899 O 0.54147 0.56792 0.54495 0.0
O900 O 0.51682 0.55157 0.52373 0.0
O901 O 0.58042 0.56593 0.54993 0.0
O902 O 0.57493 0.55066 0.57239 0.0
O903 O 0.5094 0.53806 0.55687 0.0
O904 O 0.53729 0.5401 0.57187 0.0
O905 O 0.52312 0.50289 0.54549 0.0
O906 O 0.55379 0.51578 0.54512 0.0
O907 O 0.48577 0.50513 0.53267 0.0
O908 O 0.49265 0.51315 0.50681 0.0
C909 C 0.52801 0.5674 0.53234 0.0
O910 O 0.55623 0.54111 0.51941 0.0
O911 O 0.53039 0.51661 0.51032 0.0
C912 C 0.60281 0.5536 0.56194 0.0
C913 C 0.62527 0.53089 0.55942 0.0
C914 C 0.6137 0.53173 0.54407 0.0
C915 C 0.60255 0.54296 0.54531 0.0
C916 C 0.6152 0.55367 0.57705 0.0
C917 C 0.62653 0.54241 0.57576 0.0
C918 C 0.58747 0.56086 0.5643 0.0
C919 C 0.52035 0.54034 0.57211 0.0
C920 C 0.53995 0.50172 0.54731 0.0
C921 C 0.46302 0.51193 0.51342 0.0
C922 C 0.43575 0.52957 0.51081 0.0
C923 C 0.43902 0.52165 0.52635 0.0
C924 C 0.45251 0.5129 0.52765 0.0
C925 C 0.45871 0.51853 0.49729 0.0
C926 C 0.44524 0.52734 0.49603 0.0
C927 C 0.4795 0.50585 0.51599 0.0
H928 H 0.6128 0.52315 0.53125 0.0
H929 H 0.59289 0.5424 0.53354 0.0
H930 H 0.61529 0.56152 0.59006 0.0
H931 H 0.6355 0.54196 0.58769 0.0
H932 H 0.43156 0.52279 0.53778 0.0
H933 H 0.45523 0.50764 0.54012 0.0
H934 H 0.46639 0.51773 0.48598 0.0
H935 H 0.44301 0.5333 0.48388 0.0
Dy936 Dy 0.00624 0.53035 0.04597 0.0
Dy937 Dy 0.0558 0.54182 0.03691 0.0
C938 C 0.02848 0.54532 0.01156 0.0
O939 O 0.01155 0.50332 0.037 0.0
O940 O 0.04155 0.51103 0.02844 0.0
O941 O 0.98219 0.52463 0.02593 0.0
O942 O 0.98019 0.52875 0.05494 0.0
O943 O 0.03794 0.53339 0.05754 0.0
O944 O 0.016 0.52385 0.07305 0.0
O945 O 0.05034 0.56891 0.0459 0.0
O946 O 0.02017 0.56112 0.05399 0.0
O947 O 0.08095 0.54926 0.05553 0.0
O948 O 0.08103 0.54174 0.02661 0.0
C949 C 0.02549 0.49899 0.03023 0.0
O950 O 0.02504 0.53871 0.02646 0.0
O951 O 0.04576 0.54865 0.01008 0.0
C952 C 0.96122 0.53989 0.03547 0.0
C953 C 0.93889 0.56308 0.03234 0.0
C954 C 0.93322 0.54511 0.02269 0.0
C955 C 0.94428 0.53364 0.02427 0.0
C956 C 0.96734 0.55805 0.04447 0.0
C957 C 0.95627 0.56952 0.04296 0.0
C958 C 0.97195 0.52714 0.03837 0.0
C959 C 0.03354 0.52753 0.07262 0.0
C960 C 0.03616 0.57326 0.0522 0.0
C961 C 0.10209 0.53402 0.04684 0.0
C962 C 0.12455 0.5113 0.05193 0.0
C963 C 0.10551 0.50461 0.05239 0.0
C964 C 0.09437 0.51588 0.04985 0.0
C965 C 0.12106 0.54088 0.04681 0.0
C966 C 0.13221 0.52965 0.04936 0.0
C967 C 0.09049 0.54566 0.04286 0.0
H968 H 0.92012 0.53982 0.01406 0.0
H969 H 0.93941 0.51973 0.01705 0.0
H970 H 0.98048 0.56323 0.05307 0.0
H971 H 0.96108 0.58319 0.05068 0.0
H972 H 0.09923 0.49065 0.05462 0.0
H973 H 0.07972 0.51037 0.04996 0.0
H974 H 0.12723 0.55483 0.04444 0.0
H975 H 0.14675 0.53517 0.04872 0.0
H976 H 1.00266 0.20359 0.94388 0.0
H977 H 1.00458 0.17603 0.95573 0.0
H978 H 1.00192 0.20073 0.00972 0.0
H979 H 0.99949 0.22854 0.99769 0.0
H980 H 0.02803 0.16831 0.97627 0.0
H981 H 0.9856 0.16689 0.03631 0.0
H982 H 0.95907 0.1761 0.04505 0.0
H983 H 0.9387 0.17275 0.98878 0.0
H984 H 0.96501 0.16335 0.9797 0.0
H985 H 0.04504 0.10144 0.02701 0.0
H986 H 0.04089 0.12968 0.01818 0.0
H987 H 0.9831 0.10219 0.00225 0.0
H988 H 0.9871 0.07389 0.01165 0.0
H989 H 0.9865 0.13558 0.01663 0.0
H990 H 0.01541 0.11127 0.9706 0.0
H991 H 0.03865 0.099 0.958 0.0
H992 H 0.0807 0.1495 0.97965 0.0
H993 H 0.05773 0.16199 0.99259 0.0
C994 C 1.00242 0.20331 0.95832 0.0
C995 C 1.00092 0.21859 0.96974 0.0
C996 C 1.00359 0.18737 0.96514 0.0
C997 C 1.00336 0.1859 0.98372 0.0
C998 C 1.00186 0.20112 0.99527 0.0
C999 C 1.00056 0.21718 0.98838 0.0
C1000 C 1.00516 0.16862 0.99068 0.0
C1001 C 0.01893 0.16131 0.98518 0.0
C1002 C 0.9932 0.15889 0.00204 0.0
C1003 C 0.97741 0.16465 0.00735 0.0
C1004 C 0.97545 0.16812 0.02581 0.0
C1005 C 0.96046 0.17336 0.03082 0.0
C1006 C 0.94726 0.17509 0.01748 0.0
C1007 C 0.94899 0.1715 0.9991 0.0
C1008 C 0.96396 0.16625 0.99401 0.0
C1009 C 0.03138 0.10131 0.02168 0.0
C1010 C 0.01645 0.08513 0.01999 0.0
C1011 C 0.02902 0.11759 0.0165 0.0
C1012 C 0.0117 0.11828 0.0091 0.0
C1013 C 0.99666 0.10226 0.00783 0.0
C1014 C 0.99898 0.08596 0.01318 0.0
C1015 C 0.00948 0.1355 0.00235 0.0
C1016 C 0.99566 0.14274 0.00786 0.0
C1017 C 0.02103 0.14491 0.99052 0.0
C1018 C 0.03488 0.13749 0.98271 0.0
C1019 C 0.02963 0.11971 0.97278 0.0
C1020 C 0.04275 0.11272 0.96556 0.0
C1021 C 0.06115 0.12345 0.96806 0.0
C1022 C 0.06645 0.1412 0.97774 0.0
C1023 C 0.05339 0.14824 0.98501 0.0
H1024 H 0.07128 0.11801 0.96246 0.0
H1025 H 0.93567 0.17918 0.02139 0.0
H1026 H 0.1209 0.82166 0.13846 0.0
H1027 H 0.14898 0.82158 0.15698 0.0
H1028 H 0.11706 0.79828 0.19762 0.0
H1029 H 0.08913 0.79873 0.17949 0.0
H1030 H 0.14766 0.82265 0.21388 0.0
H1031 H 0.13298 0.77188 0.1644 0.0
H1032 H 0.12682 0.758 0.13211 0.0
H1033 H 0.1797 0.79162 0.1234 0.0
H1034 H 0.18609 0.80583 0.1556 0.0
H1035 H 0.2077 0.78443 0.262 0.0
H1036 H 0.18228 0.78932 0.24312 0.0
H1037 H 0.21856 0.81031 0.20477 0.0
H1038 H 0.24398 0.80498 0.22337 0.0
H1039 H 0.18746 0.78953 0.18667 0.0
H1040 H 0.2035 0.83893 0.2358 0.0
H1041 H 0.21033 0.85371 0.2678 0.0
H1042 H 0.15598 0.82446 0.27689 0.0
H1043 H 0.1489 0.8093 0.245 0.0
C1044 C 0.11986 0.81676 0.15145 0.0
C1045 C 0.10262 0.81014 0.15736 0.0
C1046 C 0.13597 0.81657 0.162 0.0
C1047 C 0.13523 0.80957 0.17862 0.0
C1048 C 0.11812 0.80368 0.18486 0.0
C1049 C 0.10207 0.80395 0.1744 0.0
C1050 C 0.15203 0.80784 0.18939 0.0
C1051 C 0.15623 0.81525 0.20794 0.0
C1052 C 0.1637 0.79869 0.18165 0.0
C1053 C 0.15993 0.79003 0.16235 0.0
C1054 C 0.14324 0.77638 0.15557 0.0
C1055 C 0.13972 0.76844 0.13729 0.0
C1056 C 0.15284 0.77396 0.1257 0.0
C1057 C 0.16954 0.78737 0.13238 0.0
C1058 C 0.17313 0.79536 0.15065 0.0
C1059 C 0.21033 0.79009 0.24956 0.0
C1060 C 0.228 0.79437 0.24432 0.0
C1061 C 0.19573 0.793 0.23877 0.0
C1062 C 0.19843 0.80053 0.22257 0.0
C1063 C 0.21602 0.80455 0.21718 0.0
C1064 C 0.2306 0.80151 0.22789 0.0
C1065 C 0.18291 0.80406 0.21127 0.0
C1066 C 0.17896 0.79703 0.19262 0.0
C1067 C 0.17156 0.8137 0.21887 0.0
C1068 C 0.17572 0.82286 0.23804 0.0
C1069 C 0.19304 0.83555 0.24465 0.0
C1070 C 0.19695 0.84401 0.26277 0.0
C1071 C 0.18361 0.83999 0.27438 0.0
C1072 C 0.16631 0.82754 0.26789 0.0
C1073 C 0.16233 0.81902 0.24979 0.0
H1074 H 0.18666 0.84655 0.2884 0.0
H1075 H 0.15008 0.76781 0.11155 0.0
H1076 H 0.48931 0.82834 0.45694 0.0
H1077 H 0.49391 0.86014 0.46923 0.0
H1078 H 0.53419 0.85723 0.51213 0.0
H1079 H 0.52964 0.82486 0.49973 0.0
H1080 H 0.51239 0.87826 0.52475 0.0
H1081 H 0.54862 0.87764 0.47695 0.0
H1082 H 0.55549 0.86858 0.44637 0.0
H1083 H 0.51554 0.89129 0.42253 0.0
H1084 H 0.50823 0.90025 0.45297 0.0
H1085 H 0.55046 0.98263 0.50998 0.0
H1086 H 0.54861 0.95034 0.50293 0.0
H1087 H 0.49731 0.93464 0.52469 0.0
H1088 H 0.49951 0.96703 0.53246 0.0
H1089 H 0.52828 0.92302 0.48159 0.0
H1090 H 0.4887 0.89309 0.53899 0.0
H1091 H 0.48549 0.90276 0.57081 0.0
H1092 H 0.53887 0.94264 0.5779 0.0
H1093 H 0.54248 0.93305 0.5462 0.0
C1094 C 0.49912 0.83424 0.46909 0.0
C1095 C 0.50921 0.82379 0.47716 0.0
C1096 C 0.50176 0.85263 0.47611 0.0
C1097 C 0.51464 0.86143 0.49148 0.0
C1098 C 0.5242 0.8509 0.5002 0.0
C1099 C 0.52157 0.83232 0.4931 0.0
C1100 C 0.5184 0.88171 0.49763 0.0
C1101 C 0.51589 0.88804 0.51532 0.0
C1102 C 0.52341 0.89478 0.4856 0.0
C1103 C 0.52777 0.88947 0.46724 0.0
C1104 C 0.5412 0.88057 0.46518 0.0
C1105 C 0.54519 0.87548 0.44787 0.0
C1106 C 0.53593 0.87932 0.43251 0.0
C1107 C 0.52269 0.88831 0.43444 0.0
C1108 C 0.51863 0.89341 0.45172 0.0
C1109 C 0.53877 0.97236 0.51335 0.0
C1110 C 0.52516 0.97766 0.52188 0.0
C1111 C 0.5377 0.95374 0.50925 0.0
C1112 C 0.52294 0.93969 0.51341 0.0
C1113 C 0.50915 0.94497 0.52167 0.0
C1114 C 0.51033 0.96363 0.52599 0.0
C1115 C 0.5218 0.91968 0.50864 0.0
C1116 C 0.52481 0.91335 0.49113 0.0
C1117 C 0.5177 0.90676 0.52102 0.0
C1118 C 0.51577 0.91245 0.54017 0.0
C1119 C 0.49978 0.90386 0.54737 0.0
C1120 C 0.49788 0.90934 0.56537 0.0
C1121 C 0.51194 0.92334 0.57635 0.0
C1122 C 0.52796 0.93184 0.56936 0.0
C1123 C 0.52993 0.9264 0.55137 0.0
H1124 H 0.51044 0.92757 0.59028 0.0
H1125 H 0.53904 0.87537 0.41912 0.0
H1126 H 0.50424 0.30726 0.64728 0.0
H1127 H 0.4771 0.30593 0.66243 0.0
H1128 H 0.49573 0.27609 0.70183 0.0
H1129 H 0.52236 0.27677 0.68636 0.0
H1130 H 0.4614 0.26068 0.69228 0.0
H1131 H 0.49804 0.32382 0.7107 0.0
H1132 H 0.51558 0.35493 0.70602 0.0
H1133 H 0.46759 0.3606 0.67583 0.0
H1134 H 0.44982 0.32942 0.68015 0.0
H1135 H 0.40766 0.2714 0.7617 0.0
H1136 H 0.43307 0.27439 0.74394 0.0
H1137 H 0.40496 0.29569 0.70312 0.0
H1138 H 0.37917 0.29239 0.72067 0.0
H1139 H 0.44222 0.31536 0.71134 0.0
H1140 H 0.40532 0.25257 0.695 0.0
H1141 H 0.38804 0.22182 0.70083 0.0
H1142 H 0.43724 0.21585 0.72825 0.0
H1143 H 0.45477 0.24671 0.72284 0.0
C1144 C 0.50259 0.30052 0.65924 0.0
C1145 C 0.51551 0.29214 0.66559 0.0
C1146 C 0.48707 0.29982 0.66797 0.0
C1147 C 0.48432 0.29107 0.68349 0.0
C1148 C 0.49737 0.28288 0.6899 0.0
C1149 C 0.51269 0.28334 0.68105 0.0
C1150 C 0.46774 0.28993 0.69287 0.0
C1151 C 0.45741 0.27273 0.69662 0.0
C1152 C 0.46201 0.30547 0.69815 0.0
C1153 C 0.47266 0.32422 0.69558 0.0
C1154 C 0.49127 0.33165 0.70295 0.0
C1155 C 0.50125 0.34931 0.70038 0.0
C1156 C 0.49272 0.35972 0.69059 0.0
C1157 C 0.47419 0.35251 0.68339 0.0
C1158 C 0.46415 0.33486 0.6859 0.0
C1159 C 0.4067 0.27654 0.74885 0.0
C1160 C 0.39115 0.28144 0.7426 0.0
C1161 C 0.42134 0.27833 0.73873 0.0
C1162 C 0.4209 0.28508 0.72206 0.0
C1163 C 0.40565 0.29045 0.71594 0.0
C1164 C 0.39092 0.2886 0.72605 0.0
C1165 C 0.43627 0.28623 0.71102 0.0
C1166 C 0.44626 0.30337 0.70692 0.0
C1167 C 0.4418 0.27067 0.70553 0.0
C1168 C 0.43133 0.25202 0.70864 0.0
C1169 C 0.41243 0.24476 0.70239 0.0
C1170 C 0.4026 0.2273 0.7056 0.0
C1171 C 0.41153 0.2169 0.71493 0.0
C1172 C 0.43033 0.22393 0.72103 0.0
C1173 C 0.44023 0.2414 0.71788 0.0
H1174 H 0.40389 0.20339 0.71741 0.0
H1175 H 0.50047 0.37338 0.68862 0.0
H1176 H 0.0126 0.82431 0.6785 0.0
H1177 H 0.01378 0.85034 0.66207 0.0
H1178 H 0.02903 0.82196 0.61588 0.0
H1179 H 0.02898 0.79657 0.6327 0.0
H1180 H 0.04868 0.85452 0.61968 0.0
H1181 H 0.98348 0.82821 0.61936 0.0
H1182 H 0.95519 0.8172 0.63319 0.0
H1183 H 0.96561 0.87078 0.66363 0.0
H1184 H 0.99408 0.88206 0.65013 0.0
H1185 H 0.03084 0.90673 0.5521 0.0
H1186 H 0.02844 0.88234 0.5708 0.0
H1187 H 0.0236 0.91852 0.61718 0.0
H1188 H 0.02629 0.94319 0.5986 0.0
H1189 H 0.99923 0.88381 0.61481 0.0
H1190 H 0.06383 0.90998 0.61334 0.0
H1191 H 0.09159 0.92053 0.59861 0.0
H1192 H 0.08131 0.86606 0.57025 0.0
H1193 H 0.05334 0.85523 0.58463 0.0
C1194 C 0.01609 0.82362 0.6648 0.0
C1195 C 0.02068 0.80837 0.65691 0.0
C1196 C 0.01666 0.83849 0.65532 0.0
C1197 C 0.02123 0.83818 0.6375 0.0
C1198 C 0.02552 0.82274 0.62958 0.0
C1199 C 0.02542 0.80814 0.6392 0.0
C1200 C 0.02219 0.85402 0.62719 0.0
C1201 C 0.03768 0.86067 0.61845 0.0
C1202 C 0.00819 0.86263 0.6259 0.0
C1203 C 0.991 0.85592 0.63387 0.0
C1204 C 0.97979 0.83761 0.62908 0.0
C1205 C 0.96372 0.83133 0.63685 0.0
C1206 C 0.95863 0.84327 0.64932 0.0
C1207 C 0.96958 0.86154 0.65399 0.0
C1208 C 0.98567 0.86789 0.64627 0.0
C1209 C 0.02945 0.90964 0.56632 0.0
C1210 C 0.02898 0.9271 0.57381 0.0
C1211 C 0.02799 0.89559 0.577 0.0
C1212 C 0.02608 0.8986 0.59551 0.0
C1213 C 0.02509 0.91583 0.60296 0.0
C1214 C 0.02658 0.92993 0.59227 0.0
C1215 C 0.02545 0.88384 0.60705 0.0
C1216 C 0.01014 0.87754 0.61608 0.0
C1217 C 0.0395 0.87538 0.60847 0.0
C1218 C 0.05641 0.88183 0.59995 0.0
C1219 C 0.06743 0.90028 0.60387 0.0
C1220 C 0.08321 0.9063 0.5956 0.0
C1221 C 0.08819 0.89398 0.58347 0.0
C1222 C 0.07743 0.8756 0.57963 0.0
C1223 C 0.06162 0.8695 0.58786 0.0
H1224 H 0.10041 0.89868 0.57708 0.0
H1225 H 0.9462 0.83837 0.65533 0.0
H1226 H 0.49291 0.82667 0.81855 0.0
H1227 H 0.46057 0.82295 0.80887 0.0
H1228 H 0.44473 0.78016 0.842 0.0
H1229 H 0.47716 0.78371 0.85163 0.0
H1230 H 0.42191 0.77115 0.81044 0.0
H1231 H 0.44404 0.82438 0.85593 0.0
H1232 H 0.46467 0.8547 0.87042 0.0
H1233 H 0.45132 0.87844 0.82367 0.0
H1234 H 0.43079 0.84818 0.80877 0.0
H1235 H 0.32947 0.77186 0.81213 0.0
H1236 H 0.36166 0.77398 0.82008 0.0
H1237 H 0.37771 0.81774 0.78808 0.0
H1238 H 0.34544 0.81589 0.78027 0.0
H1239 H 0.40043 0.82597 0.81882 0.0
H1240 H 0.37743 0.77242 0.77364 0.0
H1241 H 0.35657 0.74202 0.75966 0.0
H1242 H 0.37132 0.71866 0.80615 0.0
H1243 H 0.39202 0.74899 0.82059 0.0
C1244 C 0.48259 0.81631 0.82367 0.0
C1245 C 0.48782 0.80552 0.83595 0.0
C1246 C 0.46399 0.81428 0.81819 0.0
C1247 C 0.44996 0.80146 0.82487 0.0
C1248 C 0.45513 0.7902 0.83663 0.0
C1249 C 0.47377 0.79225 0.84215 0.0
C1250 C 0.43005 0.80017 0.81997 0.0
C1251 C 0.41721 0.78312 0.8125 0.0
C1252 C 0.42372 0.81576 0.82224 0.0
C1253 C 0.43602 0.83398 0.83116 0.0
C1254 C 0.44561 0.83604 0.84868 0.0
C1255 C 0.45727 0.85321 0.85697 0.0
C1256 C 0.45935 0.86848 0.84795 0.0
C1257 C 0.44972 0.8666 0.83063 0.0
C1258 C 0.43806 0.84944 0.82225 0.0
C1259 C 0.33979 0.782 0.80676 0.0
C1260 C 0.33465 0.79371 0.7955 0.0
C1261 C 0.35832 0.78311 0.81125 0.0
C1262 C 0.37236 0.79585 0.80453 0.0
C1263 C 0.36729 0.80773 0.79348 0.0
C1264 C 0.34873 0.80664 0.78898 0.0
C1265 C 0.39226 0.79696 0.80921 0.0
C1266 C 0.4051 0.81399 0.81669 0.0
C1267 C 0.39856 0.78133 0.80698 0.0
C1268 C 0.38615 0.76304 0.79829 0.0
C1269 C 0.37611 0.76084 0.78096 0.0
C1270 C 0.36432 0.74362 0.77295 0.0
C1271 C 0.36257 0.72843 0.78203 0.0
C1272 C 0.37264 0.73044 0.79915 0.0
C1273 C 0.38442 0.74764 0.80725 0.0
H1274 H 0.35346 0.71511 0.77577 0.0
H1275 H 0.46837 0.88176 0.8544 0.0
H1276 H 0.48858 0.18059 0.17741 0.0
H1277 H 0.48821 0.15185 0.15926 0.0
H1278 H 0.51236 0.18213 0.11804 0.0
H1279 H 0.51228 0.21068 0.13575 0.0
H1280 H 0.48773 0.15222 0.10204 0.0
H1281 H 0.53781 0.16499 0.15153 0.0
H1282 H 0.55132 0.17074 0.18379 0.0
H1283 H 0.51484 0.11922 0.19222 0.0
H1284 H 0.50099 0.11327 0.16004 0.0
H1285 H 0.52539 0.09141 0.05359 0.0
H1286 H 0.52051 0.11671 0.07303 0.0
H1287 H 0.49721 0.07978 0.10973 0.0
H1288 H 0.50251 0.05431 0.09048 0.0
H1289 H 0.51814 0.11074 0.12893 0.0
H1290 H 0.47008 0.09625 0.07928 0.0
H1291 H 0.45609 0.08991 0.04716 0.0
H1292 H 0.48723 0.14393 0.0392 0.0
H1293 H 0.50161 0.15051 0.07121 0.0
C1294 C 0.49361 0.18113 0.16438 0.0
C1295 C 0.50048 0.1981 0.15815 0.0
C1296 C 0.49356 0.16464 0.15405 0.0
C1297 C 0.50059 0.16469 0.13732 0.0
C1298 C 0.50689 0.18156 0.13086 0.0
C1299 C 0.50684 0.19798 0.14109 0.0
C1300 C 0.50167 0.1474 0.12651 0.0
C1301 C 0.49455 0.14329 0.10793 0.0
C1302 C 0.50996 0.13519 0.13415 0.0
C1303 C 0.5183 0.13875 0.15344 0.0
C1304 C 0.53262 0.15494 0.1603 0.0
C1305 C 0.54035 0.15823 0.17856 0.0
C1306 C 0.53393 0.14536 0.19005 0.0
C1307 C 0.5198 0.12916 0.1833 0.0
C1308 C 0.51203 0.12582 0.16506 0.0
C1309 C 0.51919 0.08856 0.06577 0.0
C1310 C 0.51425 0.07067 0.07031 0.0
C1311 C 0.5163 0.10312 0.07689 0.0
C1312 C 0.50811 0.10024 0.09278 0.0
C1313 C 0.50345 0.08244 0.09755 0.0
C1314 C 0.50646 0.06784 0.08646 0.0
C1315 C 0.50461 0.11585 0.10435 0.0
C1316 C 0.5112 0.1196 0.12305 0.0
C1317 C 0.49572 0.12768 0.09686 0.0
C1318 C 0.48703 0.12382 0.07761 0.0
C1319 C 0.47404 0.10674 0.07065 0.0
C1320 C 0.46603 0.10311 0.05247 0.0
C1321 C 0.4708 0.1165 0.04114 0.0
C1322 C 0.48356 0.13357 0.04798 0.0
C1323 C 0.49163 0.13726 0.06615 0.0
H1324 H 0.46458 0.11366 0.02706 0.0
H1325 H 0.53993 0.14793 0.20418 0.0
H1326 H 0.09906 0.32324 0.34983 0.0
H1327 H 0.12874 0.32281 0.34062 0.0
H1328 H 0.10371 0.26779 0.3123 0.0
H1329 H 0.07412 0.26813 0.32149 0.0
H1330 H 0.13512 0.26981 0.33213 0.0
H1331 H 0.11726 0.30695 0.29016 0.0
H1332 H 0.10818 0.33336 0.28147 0.0
H1333 H 0.15815 0.37042 0.31149 0.0
H1334 H 0.16741 0.34424 0.32059 0.0
H1335 H 0.20671 0.25705 0.28501 0.0
H1336 H 0.17806 0.26067 0.29362 0.0
H1337 H 0.2056 0.31777 0.31417 0.0
H1338 H 0.23428 0.31434 0.30477 0.0
H1339 H 0.17378 0.3162 0.2999 0.0
H1340 H 0.19238 0.28135 0.34238 0.0
H1341 H 0.20211 0.25634 0.35385 0.0
H1342 H 0.15219 0.21688 0.32648 0.0
H1343 H 0.14228 0.2416 0.31462 0.0
C1344 C 0.09979 0.31111 0.34147 0.0
C1345 C 0.08398 0.29575 0.3364 0.0
C1346 C 0.11687 0.31088 0.33614 0.0
C1347 C 0.11871 0.29529 0.32557 0.0
C1348 C 0.10288 0.28003 0.32041 0.0
C1349 C 0.08583 0.28028 0.32564 0.0
C1350 C 0.13708 0.29445 0.32044 0.0
C1351 C 0.14341 0.27985 0.32484 0.0
C1352 C 0.14854 0.30789 0.31161 0.0
C1353 C 0.14292 0.32363 0.30622 0.0
C1354 C 0.12623 0.32073 0.29505 0.0
C1355 C 0.12107 0.33566 0.29002 0.0
C1356 C 0.13255 0.35356 0.29597 0.0
C1357 C 0.14925 0.35656 0.30693 0.0
C1358 C 0.15446 0.34168 0.31202 0.0
C1359 C 0.20676 0.27043 0.29134 0.0
C1360 C 0.22305 0.28535 0.29424 0.0
C1361 C 0.19025 0.27248 0.29645 0.0
C1362 C 0.18941 0.28941 0.30511 0.0
C1363 C 0.2056 0.30447 0.30767 0.0
C1364 C 0.22213 0.30249 0.30228 0.0
C1365 C 0.17172 0.29132 0.31131 0.0
C1366 C 0.16554 0.30614 0.30719 0.0
C1367 C 0.16052 0.27827 0.32076 0.0
C1368 C 0.16666 0.26332 0.32749 0.0
C1369 C 0.18356 0.26732 0.33866 0.0
C1370 C 0.1891 0.2532 0.34525 0.0
C1371 C 0.17777 0.23505 0.34088 0.0
C1372 C 0.16094 0.23096 0.32984 0.0
C1373 C 0.15536 0.24501 0.32319 0.0
H1374 H 0.18197 0.22416 0.34612 0.0
H1375 H 0.12853 0.36509 0.29205 0.0
H1376 H 0.97001 0.01701 0.22518 0.0
H1377 H 0.98195 0.01881 0.19614 0.0
H1378 H 0.96699 0.06816 0.19137 0.0
H1379 H 0.95361 0.06537 0.21972 0.0
H1380 H 0.95869 0.05039 0.16096 0.0
H1381 H 0.01439 0.06567 0.20144 0.0
H1382 H 0.03638 0.06265 0.22631 0.0
H1383 H 0.03701 0.01139 0.19745 0.0
H1384 H 0.01483 0.01398 0.17251 0.0
H1385 H 0.01787 0.06983 0.08952 0.0
H1386 H 0.00876 0.07178 0.12015 0.0
H1387 H 0.98933 0.01275 0.11444 0.0
H1388 H 0.99781 0.01065 0.08368 0.0
H1389 H 0.01685 0.03806 0.14995 0.0
H1390 H 0.95781 0.02439 0.11039 0.0
H1391 H 0.93832 0.03128 0.08566 0.0
H1392 H 0.94805 0.08556 0.11424 0.0
H1393 H 0.96784 0.07905 0.13901 0.0
C1394 C 0.96951 0.02837 0.21802 0.0
C1395 C 0.96101 0.04112 0.22475 0.0
C1396 C 0.97647 0.02949 0.20142 0.0
C1397 C 0.97582 0.04386 0.19152 0.0
C1398 C 0.9677 0.05689 0.19857 0.0
C1399 C 0.96016 0.05539 0.21486 0.0
C1400 C 0.98264 0.04472 0.17342 0.0
C1401 C 0.97159 0.04798 0.1588 0.0
C1402 C 0.99945 0.04155 0.17021 0.0
C1403 C 0.01282 0.03995 0.18517 0.0
C1404 C 0.01912 0.0537 0.20045 0.0
C1405 C 0.03163 0.05207 0.21455 0.0
C1406 C 0.03805 0.03682 0.21348 0.0
C1407 C 0.03201 0.02319 0.19828 0.0
C1408 C 0.01949 0.02474 0.18414 0.0
C1409 C 0.01163 0.05728 0.09479 0.0
C1410 C 0.00849 0.04009 0.08417 0.0
C1411 C 0.00645 0.05842 0.11226 0.0
C1412 C 0.99841 0.0424 0.1195 0.0
C1413 C 0.99553 0.02525 0.10906 0.0
C1414 C 1.0003 0.0241 0.09147 0.0
C1415 C 0.99279 0.04347 0.13792 0.0
C1416 C 1.00408 0.0406 0.15245 0.0
C1417 C 0.97654 0.04753 0.14118 0.0
C1418 C 0.96447 0.05131 0.12642 0.0
C1419 C 0.95594 0.03785 0.1113 0.0
C1420 C 0.94481 0.04167 0.09731 0.0
C1421 C 0.942 0.05887 0.09835 0.0
C1422 C 0.95026 0.07226 0.11343 0.0
C1423 C 0.96143 0.06851 0.12745 0.0
H1424 H 0.93338 0.0618 0.0875 0.0
H1425 H 0.04773 0.03559 0.22442 0.0
H1426 H 0.31287 0.68608 0.4963 0.0
H1427 H 0.31235 0.70297 0.4703 0.0
H1428 H 0.25541 0.69818 0.47313 0.0
H1429 H 0.25587 0.6816 0.49896 0.0
H1430 H 0.26341 0.69167 0.43749 0.0
H1431 H 0.2863 0.73571 0.4932 0.0
H1432 H 0.30803 0.74985 0.52114 0.0
H1433 H 0.35258 0.76275 0.48951 0.0
H1434 H 0.3311 0.74844 0.46139 0.0
H1435 H 0.24065 0.75972 0.39517 0.0
H1436 H 0.24674 0.74162 0.41851 0.0
H1437 H 0.3043 0.75886 0.41281 0.0
H1438 H 0.29843 0.7776 0.39001 0.0
H1439 H 0.29977 0.75763 0.44749 0.0
H1440 H 0.27672 0.71761 0.39136 0.0
H1441 H 0.25547 0.70332 0.36316 0.0
H1442 H 0.2122 0.68215 0.39445 0.0
H1443 H 0.23311 0.69657 0.42286 0.0
C1444 C 0.30023 0.68846 0.49117 0.0
C1445 C 0.28447 0.68273 0.49969 0.0
C1446 C 0.29996 0.69809 0.47641 0.0
C1447 C 0.28386 0.70184 0.46995 0.0
C1448 C 0.26794 0.69537 0.47794 0.0
C1449 C 0.26827 0.68602 0.49275 0.0
C1450 C 0.28359 0.71351 0.45566 0.0
C1451 C 0.27132 0.7061 0.43962 0.0
C1452 C 0.29429 0.73217 0.45837 0.0
C1453 C 0.30715 0.7408 0.47525 0.0
C1454 C 0.30075 0.74142 0.49223 0.0
C1455 C 0.31301 0.74949 0.50809 0.0
C1456 C 0.33168 0.75714 0.50711 0.0
C1457 C 0.33812 0.75678 0.49025 0.0
C1458 C 0.32591 0.74869 0.47436 0.0
C1459 C 0.25466 0.76002 0.39923 0.0
C1460 C 0.26904 0.76989 0.39065 0.0
C1461 C 0.25809 0.7495 0.41237 0.0
C1462 C 0.27589 0.74854 0.41698 0.0
C1463 C 0.29044 0.75926 0.40926 0.0
C1464 C 0.28705 0.76986 0.3962 0.0
C1465 C 0.2792 0.73593 0.42946 0.0
C1466 C 0.29205 0.74314 0.44514 0.0
C1467 C 0.26913 0.71702 0.42633 0.0
C1468 C 0.25647 0.70831 0.40926 0.0
C1469 C 0.26264 0.71004 0.39224 0.0
C1470 C 0.25066 0.70189 0.37621 0.0
C1471 C 0.23249 0.69186 0.37701 0.0
C1472 C 0.22627 0.68994 0.39385 0.0
C1473 C 0.23819 0.69808 0.40993 0.0
H1474 H 0.22324 0.68554 0.36459 0.0
H1475 H 0.34116 0.76339 0.5194 0.0
H1476 H 0.61126 0.98407 0.7165 0.0
H1477 H 0.59131 0.98119 0.68804 0.0
H1478 H 0.63729 0.01328 0.6652 0.0
H1479 H 0.65744 0.01591 0.6934 0.0
H1480 H 0.60435 0.02778 0.67481 0.0
H1481 H 0.62323 0.98097 0.64126 0.0
H1482 H 0.6286 0.95097 0.63496 0.0
H1483 H 0.57132 0.9235 0.6348 0.0
H1484 H 0.56566 0.95339 0.64133 0.0
H1485 H 0.57798 0.04179 0.58706 0.0
H1486 H 0.59194 0.03379 0.61435 0.0
H1487 H 0.53961 0.9966 0.6208 0.0
H1488 H 0.52534 0.00488 0.5933 0.0
H1489 H 0.57165 0.98194 0.62098 0.0
H1490 H 0.55319 0.03093 0.65059 0.0
H1491 H 0.54949 0.06181 0.65476 0.0
H1492 H 0.60793 0.08618 0.66094 0.0
H1493 H 0.61199 0.05545 0.65655 0.0
C1494 C 0.61726 0.98985 0.70514 0.0
C1495 C 0.63581 1.00049 0.70722 0.0
C1496 C 0.60587 0.98812 0.68891 0.0
C1497 C 0.61291 0.9971 0.67471 0.0
C1498 C 0.63174 0.00616 0.67608 0.0
C1499 C 0.64321 0.00765 0.69219 0.0
C1500 C 0.60024 1.00065 0.6606 0.0
C1501 C 0.59724 0.01781 0.66298 0.0
C1502 C 0.59068 0.98737 0.64559 0.0
C1503 C 0.59409 0.9694 0.64212 0.0
C1504 C 0.61183 0.96853 0.64018 0.0
C1505 C 0.61491 0.95155 0.63648 0.0
C1506 C 0.60033 0.93534 0.63458 0.0
C1507 C 0.58262 0.93607 0.63634 0.0
C1508 C 0.57947 0.95303 0.64003 0.0
C1509 C 0.56939 0.03212 0.59445 0.0
C1510 C 0.55064 0.02392 0.58823 0.0
C1511 C 0.57735 0.02758 0.60999 0.0
C1512 C 0.56675 0.01465 0.61947 0.0
C1513 C 0.54791 0.00664 0.61356 0.0
C1514 C 0.53979 0.01145 0.59805 0.0
C1515 C 0.57599 0.0092 0.63505 0.0
C1516 C 0.57842 0.99174 0.63303 0.0
C1517 C 0.58524 0.0223 0.65034 0.0
C1518 C 0.58288 0.04085 0.65316 0.0
C1519 C 0.56525 0.04287 0.65272 0.0
C1520 C 0.56309 0.06036 0.65514 0.0
C1521 C 0.57846 0.07595 0.65809 0.0
C1522 C 0.59604 0.07409 0.65866 0.0
C1523 C 0.59828 0.05663 0.65624 0.0
H1524 H 0.57676 0.08948 0.65995 0.0
H1525 H 0.60273 0.9222 0.63169 0.0
H1526 H 0.25526 0.34303 0.98148 0.0
H1527 H 0.25541 0.33187 0.94943 0.0
H1528 H 0.30343 0.31576 0.96424 0.0
H1529 H 0.30328 0.32667 0.99622 0.0
H1530 H 0.30713 0.33611 0.93567 0.0
H1531 H 0.26388 0.28355 0.95161 0.0
H1532 H 0.23634 0.2667 0.96398 0.0
H1533 H 0.20218 0.28323 0.92466 0.0
H1534 H 0.22956 0.30042 0.91222 0.0
H1535 H 0.30682 0.28797 0.84742 0.0
H1536 H 0.30651 0.29511 0.88026 0.0
H1537 H 0.25745 0.31073 0.86954 0.0
H1538 H 0.25767 0.30376 0.83697 0.0
H1539 H 0.2549 0.28928 0.89646 0.0
H1540 H 0.29753 0.34307 0.88162 0.0
H1541 H 0.32469 0.36046 0.86906 0.0
H1542 H 0.35959 0.34229 0.90612 0.0
H1543 H 0.33257 0.32455 0.91873 0.0
C1544 C 0.26571 0.33689 0.97794 0.0
C1545 C 0.27921 0.3357 0.99146 0.0
C1546 C 0.26578 0.33052 0.95961 0.0
C1547 C 0.27944 0.32296 0.95441 0.0
C1548 C 0.29279 0.32156 0.9679 0.0
C1549 C 0.29259 0.32772 0.98622 0.0
C1550 C 0.28017 0.31706 0.93486 0.0
C1551 C 0.29582 0.32565 0.92717 0.0
C1552 C 0.26528 0.30371 0.92364 0.0
C1553 C 0.24879 0.29344 0.93112 0.0
C1554 C 0.25051 0.28374 0.94572 0.0
C1555 C 0.23493 0.2741 0.95271 0.0
C1556 C 0.21753 0.27393 0.94515 0.0
C1557 C 0.21568 0.28339 0.93053 0.0
C1558 C 0.23122 0.29308 0.92349 0.0
C1559 C 0.29597 0.29291 0.85207 0.0
C1560 C 0.28236 0.29538 0.83949 0.0
C1561 C 0.29583 0.29703 0.87084 0.0
C1562 C 0.28199 0.30354 0.87739 0.0
C1563 C 0.26825 0.30571 0.86485 0.0
C1564 C 0.26849 0.3018 0.84617 0.0
C1565 C 0.28182 0.30838 0.89725 0.0
C1566 C 0.26626 0.29963 0.905 0.0
C1567 C 0.29675 0.32166 0.9085 0.0
C1568 C 0.31301 0.3323 0.90096 0.0
C1569 C 0.31098 0.34264 0.88698 0.0
C1570 C 0.32635 0.35259 0.87987 0.0
C1571 C 0.34385 0.35243 0.88675 0.0
C1572 C 0.34602 0.34236 0.90078 0.0
C1573 C 0.33068 0.33237 0.90792 0.0
H1574 H 0.35574 0.36015 0.88124 0.0
H1575 H 0.20548 0.26645 0.95058 0.0
H1576 H 0.99305 0.02769 0.32156 0.0
H1577 H 1.00403 0.0294 0.35372 0.0
H1578 H 0.95818 0.04683 0.36845 0.0
H1579 H 0.94771 0.04605 0.33628 0.0
H1580 H 0.98557 0.06369 0.39229 0.0
H1581 H 0.95937 1.00051 0.36662 0.0
H1582 H 0.95506 0.97248 0.34492 0.0
H1583 H 0.01102 0.97481 0.36047 0.0
H1584 H 0.01574 1.003 0.38209 0.0
H1585 H 0.99574 0.00793 0.47271 0.0
H1586 H 0.98587 0.00855 0.44066 0.0
H1587 H 0.02596 0.06175 0.44382 0.0
H1588 H 0.0351 0.06158 0.47598 0.0
H1589 H 0.99962 0.00902 0.41132 0.0
H1590 H 0.01226 0.08769 0.41524 0.0
H1591 H 0.01271 0.114 0.43761 0.0
H1592 H 0.97653 0.07772 0.46702 0.0
H1593 H 0.97551 0.05124 0.44458 0.0
C1594 C 0.98546 0.03215 0.33167 0.0
C1595 C 0.96946 0.03665 0.32637 0.0
C1596 C 0.99166 0.03296 0.35009 0.0
C1597 C 0.98169 0.03775 0.36363 0.0
C1598 C 0.96612 0.04301 0.35835 0.0
C1599 C 0.96013 0.04257 0.33993 0.0
C1600 C 0.98714 0.03671 0.38316 0.0
C1601 C 0.98865 0.05174 0.39643 0.0
C1602 C 0.99076 0.02096 0.38877 0.0
C1603 C 0.98795 0.00396 0.37585 0.0
C1604 C 0.97079 0.99511 0.36532 0.0
C1605 C 0.96827 0.97918 0.35305 0.0
C1606 C 0.98277 0.9719 0.35129 0.0
C1607 C 0.99981 0.98049 0.36183 0.0
C1608 C 1.00241 0.99643 0.37411 0.0
C1609 C 1.00246 0.01971 0.46652 0.0
C1610 C 0.01606 0.03477 0.47692 0.0
C1611 C 0.99683 0.02007 0.44818 0.0
C1612 C 1.00485 0.03539 0.43979 0.0
C1613 C 0.01908 0.05002 0.45001 0.0
C1614 C 0.02441 0.04985 0.4684 0.0
C1615 C 0.99828 0.0361 0.42046 0.0
C1616 C 0.99656 0.021 0.40721 0.0
C1617 C 0.99387 0.05155 0.41498 0.0
C1618 C 0.99399 0.06745 0.42832 0.0
C1619 C 1.00431 0.08533 0.42642 0.0
C1620 C 1.00468 0.10028 0.43912 0.0
C1621 C 0.99474 0.09752 0.45379 0.0
C1622 C 0.98429 0.07983 0.45569 0.0
C1623 C 0.9838 0.06485 0.44297 0.0
H1624 H 0.9951 0.1091 0.46366 0.0
H1625 H 0.98079 0.95957 0.34178 0.0
H1626 H 0.31342 0.67879 0.61701 0.0
H1627 H 0.3152 0.70198 0.64281 0.0
H1628 H 0.29761 0.73525 0.60655 0.0
H1629 H 0.29556 0.71204 0.58062 0.0
H1630 H 0.33203 0.73912 0.65433 0.0
H1631 H 0.26478 0.74971 0.62613 0.0
H1632 H 0.23768 0.73465 0.60307 0.0
H1633 H 0.24353 0.68188 0.60981 0.0
H1634 H 0.2705 0.69664 0.63305 0.0
H1635 H 0.30073 0.7971 0.72113 0.0
H1636 H 0.30676 0.78598 0.69087 0.0
H1637 H 0.28145 0.73015 0.69903 0.0
H1638 H 0.27593 0.74102 0.72931 0.0
H1639 H 0.27015 0.74331 0.66327 0.0
H1640 H 0.32082 0.73797 0.70548 0.0
H1641 H 0.34695 0.75125 0.72989 0.0
H1642 H 0.37318 0.79046 0.69676 0.0
H1643 H 0.34699 0.77757 0.67224 0.0
C1644 C 0.31025 0.69119 0.61446 0.0
C1645 C 0.30398 0.69341 0.59682 0.0
C1646 C 0.31142 0.70448 0.62921 0.0
C1647 C 0.30631 0.72016 0.62655 0.0
C1648 C 0.30143 0.72312 0.60884 0.0
C1649 C 0.30021 0.70981 0.59407 0.0
C1650 C 0.30371 0.73191 0.64243 0.0
C1651 C 0.31858 0.74032 0.65615 0.0
C1652 C 0.28612 0.73336 0.64483 0.0
C1653 C 0.26976 0.72429 0.63112 0.0
C1654 C 0.26023 0.73489 0.6227 0.0
C1655 C 0.24491 0.72641 0.60961 0.0
C1656 C 0.23893 0.70733 0.60492 0.0
C1657 C 0.24821 0.69667 0.61339 0.0
C1658 C 0.26352 0.70508 0.62652 0.0
C1659 C 0.29643 0.78248 0.71638 0.0
C1660 C 0.28795 0.76988 0.72749 0.0
C1661 C 0.29988 0.77619 0.6992 0.0
C1662 C 0.29448 0.75732 0.69289 0.0
C1663 C 0.28563 0.74478 0.70377 0.0
C1664 C 0.28259 0.751 0.72105 0.0
C1665 C 0.2984 0.75028 0.67512 0.0
C1666 C 0.28373 0.7427 0.66112 0.0
C1667 C 0.31607 0.74939 0.67257 0.0
C1668 C 0.33187 0.75699 0.68717 0.0
C1669 C 0.33208 0.74954 0.70349 0.0
C1670 C 0.34691 0.75697 0.71732 0.0
C1671 C 0.36169 0.77173 0.71491 0.0
C1672 C 0.3617 0.77905 0.69862 0.0
C1673 C 0.34686 0.7717 0.68476 0.0
H1674 H 0.37317 0.77746 0.72564 0.0
H1675 H 0.22709 0.70079 0.59477 0.0
H1676 H 0.59981 0.99604 0.79408 0.0
H1677 H 0.58529 0.99818 0.82163 0.0
H1678 H 0.63539 0.03807 0.84931 0.0
H1679 H 0.65029 0.03452 0.82229 0.0
H1680 H 0.6208 0.02127 0.87285 0.0
H1681 H 0.59704 0.04948 0.8267 0.0
H1682 H 0.58271 0.05189 0.79646 0.0
H1683 H 0.53378 0.00987 0.80264 0.0
H1684 H 0.54792 0.00705 0.83283 0.0
H1685 H 0.57528 0.06368 0.93595 0.0
H1686 H 0.59242 0.05788 0.91115 0.0
H1687 H 0.54759 0.00955 0.8882 0.0
H1688 H 0.53026 0.01549 0.91268 0.0
H1689 H 0.56009 0.03163 0.86304 0.0
H1690 H 0.58879 0.00389 0.91021 0.0
H1691 H 0.60514 0.00555 0.94086 0.0
H1692 H 0.64677 0.0539 0.93283 0.0
H1693 H 0.63075 0.05239 0.90213 0.0
C1694 C 0.60779 0.00477 0.80629 0.0
C1695 C 0.62608 0.01509 0.80626 0.0
C1696 C 0.59947 0.00623 0.82193 0.0
C1697 C 0.60901 0.01883 0.83736 0.0
C1698 C 0.62766 0.02833 0.83759 0.0
C1699 C 0.6362 0.02629 0.82218 0.0
C1700 C 0.59935 0.02291 0.85282 0.0
C1701 C 0.60761 0.0237 0.87063 0.0
C1702 C 0.58217 0.02626 0.85009 0.0
C1703 C 0.57361 0.02792 0.83194 0.0
C1704 C 0.58327 0.04067 0.82155 0.0
C1705 C 0.57518 0.04212 0.80443 0.0
C1706 C 0.55736 0.03101 0.79761 0.0
C1707 C 0.54759 0.01845 0.80792 0.0
C1708 C 0.55563 0.01693 0.82505 0.0
C1709 C 0.56904 0.05192 0.92551 0.0
C1710 C 0.55144 0.04004 0.92619 0.0
C1711 C 0.57893 0.04849 0.91152 0.0
C1712 C 0.57137 0.03312 0.89804 0.0
C1713 C 0.5537 0.02141 0.89857 0.0
C1714 C 0.54384 0.0248 0.91254 0.0
C1715 C 0.58141 0.02962 0.88284 0.0
C1716 C 0.57325 0.0291 0.86511 0.0
C1717 C 0.59895 0.02724 0.88566 0.0
C1718 C 0.60849 0.02814 0.90406 0.0
C1719 C 0.60135 0.01493 0.9151 0.0
C1720 C 0.61057 0.01582 0.93243 0.0
C1721 C 0.62688 0.0299 0.93885 0.0
C1722 C 0.6341 0.04303 0.92788 0.0
C1723 C 0.62501 0.04213 0.9105 0.0
H1724 H 0.63396 0.03058 0.95227 0.0
H1725 H 0.55112 0.03215 0.78435 0.0
H1726 H 0.26829 0.32041 0.08118 0.0
H1727 H 0.26595 0.30724 0.10969 0.0
H1728 H 0.27071 0.3603 0.13901 0.0
H1729 H 0.2727 0.37343 0.11081 0.0
H1730 H 0.29501 0.34194 0.15439 0.0
H1731 H 0.23088 0.33088 0.13176 0.0
H1732 H 0.20326 0.31826 0.10895 0.0
H1733 H 0.20687 0.26382 0.11047 0.0
H1734 H 0.23468 0.27617 0.13313 0.0
H1735 H 0.27607 0.32412 0.24159 0.0
H1736 H 0.27538 0.33415 0.21172 0.0
H1737 H 0.25513 0.27764 0.186 0.0
H1738 H 0.25486 0.26761 0.21593 0.0
H1739 H 0.23937 0.2959 0.16745 0.0
H1740 H 0.30204 0.30534 0.19043 0.0
H1741 H 0.33025 0.31685 0.21259 0.0
H1742 H 0.33118 0.37236 0.20906 0.0
H1743 H 0.30275 0.3612 0.1872 0.0
C1744 C 0.26871 0.32922 0.09369 0.0
C1745 C 0.27064 0.34797 0.09366 0.0
C1746 C 0.26736 0.32168 0.10995 0.0
C1747 C 0.26818 0.33282 0.12646 0.0
C1748 C 0.27008 0.35147 0.12644 0.0
C1749 C 0.27113 0.35892 0.11024 0.0
C1750 C 0.26742 0.3253 0.14394 0.0
C1751 C 0.28281 0.33198 0.15734 0.0
C1752 C 0.25171 0.31189 0.14753 0.0
C1753 C 0.23498 0.30447 0.13397 0.0
C1754 C 0.22589 0.31624 0.1271 0.0
C1755 C 0.21018 0.30913 0.11423 0.0
C1756 C 0.20335 0.29026 0.10822 0.0
C1757 C 0.21219 0.27844 0.11511 0.0
C1758 C 0.22792 0.28549 0.12798 0.0
C1759 C 0.27132 0.31384 0.22956 0.0
C1760 C 0.26562 0.29507 0.23111 0.0
C1761 C 0.27106 0.31958 0.21245 0.0
C1762 C 0.2657 0.30667 0.19647 0.0
C1763 C 0.25943 0.28791 0.19804 0.0
C1764 C 0.25928 0.28218 0.21518 0.0
C1765 C 0.26695 0.31272 0.17819 0.0
C1766 C 0.25167 0.30576 0.16457 0.0
C1767 C 0.28293 0.32566 0.17426 0.0
C1768 C 0.30016 0.33242 0.18728 0.0
C1769 C 0.30819 0.32 0.19446 0.0
C1770 C 0.32423 0.32646 0.20696 0.0
C1771 C 0.3325 0.34531 0.21222 0.0
C1772 C 0.32476 0.35776 0.20498 0.0
C1773 C 0.30867 0.35137 0.19254 0.0
H1774 H 0.34492 0.35028 0.2219 0.0
H1775 H 0.19118 0.28478 0.09826 0.0
H1776 H 0.25109 0.97662 0.02063 0.0
H1777 H 0.22952 0.99288 0.02911 0.0
H1778 H 0.18476 0.9425 0.01463 0.0
H1779 H 0.20625 0.92624 0.00555 0.0
H1780 H 0.17393 0.97115 0.00709 0.0
H1781 H 0.20545 0.95551 0.05804 0.0
H1782 H 0.23228 0.95384 0.07791 0.0
H1783 H 0.25225 0.01268 0.08938 0.0
H1784 H 0.22566 0.01471 0.06934 0.0
H1785 H 0.11416 0.99797 0.06136 0.0
H1786 H 0.13587 0.98137 0.05421 0.0
H1787 H 0.17851 0.03276 0.05679 0.0
H1788 H 0.15674 0.04951 0.06351 0.0
H1789 H 0.18951 1.00253 0.07103 0.0
H1790 H 0.15662 0.0167 0.01833 0.0
H1791 H 0.1283 0.01657 0.99965 0.0
H1792 H 0.10918 0.95769 0.99288 0.0
H1793 H 0.13726 0.95749 0.01183 0.0
C1794 C 0.2366 0.96912 0.01883 0.0
C1795 C 0.23033 0.95015 0.0127 0.0
C1796 C 0.22432 0.97838 0.02375 0.0
C1797 C 0.20567 0.96874 0.02301 0.0
C1798 C 0.19915 0.95012 0.01545 0.0
C1799 C 0.21142 0.94088 0.01025 0.0
C1800 C 0.19336 0.97772 0.03153 0.0
C1801 C 0.17724 0.97783 0.02111 0.0
C1802 C 0.19771 0.98641 0.04987 0.0
C1803 C 0.21365 0.98526 0.06205 0.0
C1804 C 0.21563 0.9681 0.0647 0.0
C1805 C 0.23079 0.96709 0.076 0.0
C1806 C 0.24399 0.98315 0.08486 0.0
C1807 C 0.24203 1.00025 0.08248 0.0
C1808 C 0.22691 1.00134 0.07116 0.0
C1809 C 0.12826 0.00573 0.06077 0.0
C1810 C 0.13373 0.025 0.06261 0.0
C1811 C 0.14061 0.99624 0.05676 0.0
C1812 C 0.15859 0.00592 0.05468 0.0
C1813 C 0.16461 0.02514 0.05832 0.0
C1814 C 0.1522 0.03467 0.06221 0.0
C1815 C 0.17034 0.99613 0.0465 0.0
C1816 C 0.18628 0.99582 0.05702 0.0
C1817 C 0.16566 0.98699 0.02837 0.0
C1818 C 0.14895 0.98709 0.01666 0.0
C1819 C 0.14631 0.00373 0.01298 0.0
C1820 C 0.13031 0.00371 0.00233 0.0
C1821 C 0.11693 0.98713 0.99512 0.0
C1822 C 0.11955 0.97052 0.9985 0.0
C1823 C 0.1355 0.97046 0.00919 0.0
H1824 H 0.10455 0.98715 0.98689 0.0
H1825 H 0.25571 0.98234 0.09361 0.0
H1826 H 0.71234 0.67162 0.01155 0.0
H1827 H 0.68156 0.65033 0.01029 0.0
H1828 H 0.70473 0.60901 0.02689 0.0
H1829 H 0.73562 0.63015 0.02806 0.0
H1830 H 0.67428 0.59425 1.00083 0.0
H1831 H 0.69105 0.63412 0.05799 0.0
H1832 H 0.70218 0.66387 0.07816 0.0
H1833 H 0.657 0.67962 0.05438 0.0
H1834 H 0.64575 0.65005 0.03386 0.0
H1835 H 0.59483 0.54088 0.03522 0.0
H1836 H 0.62584 0.5591 0.03151 0.0
H1837 H 0.60487 0.60203 0.0154 0.0
H1838 H 0.57398 0.58409 0.01913 0.0
H1839 H 0.6346 0.61529 0.04124 0.0
H1840 H 0.61756 0.57473 0.9843 0.0
H1841 H 0.6066 0.54471 0.96457 0.0
H1842 H 0.65224 0.52981 0.98857 0.0
H1843 H 0.66334 0.55966 0.00865 0.0
C1844 C 0.71094 0.65793 0.01469 0.0
C1845 C 0.72647 0.65268 0.02011 0.0
C1846 C 0.69332 0.64579 0.014 0.0
C1847 C 0.69088 0.6282 0.01878 0.0
C1848 C 0.70632 0.62255 0.02322 0.0
C1849 C 0.72397 0.63469 0.02393 0.0
C1850 C 0.67229 0.61622 0.02031 0.0
C1851 C 0.66566 0.59874 0.0098 0.0
C1852 C 0.66099 0.62218 0.03188 0.0
C1853 C 0.66767 0.63995 0.04425 0.0
C1854 C 0.68357 0.64399 0.05695 0.0
C1855 C 0.68989 0.66081 0.06847 0.0
C1856 C 0.68033 0.67365 0.06751 0.0
C1857 C 0.66441 0.66967 0.05508 0.0
C1858 C 0.65805 0.65288 0.04351 0.0
C1859 C 0.5968 0.55415 0.03078 0.0
C1860 C 0.58191 0.56102 0.02751 0.0
C1861 C 0.61452 0.5645 0.0286 0.0
C1862 C 0.61763 0.58187 0.02309 0.0
C1863 C 0.60277 0.58866 0.01967 0.0
C1864 C 0.5851 0.57834 0.02178 0.0
C1865 C 0.63643 0.59339 0.02159 0.0
C1866 C 0.64317 0.61078 0.03221 0.0
C1867 C 0.64779 0.58728 0.0102 0.0
C1868 C 0.64117 0.56935 0.99812 0.0
C1869 C 0.62517 0.56499 0.98549 0.0
C1870 C 0.61895 0.54802 0.97422 0.0
C1871 C 0.62869 0.53534 0.97535 0.0
C1872 C 0.6447 0.53963 0.98773 0.0
C1873 C 0.65097 0.55658 0.99905 0.0
H1874 H 0.62385 0.52222 0.96661 0.0
H1875 H 0.68524 0.68666 0.07644 0.0
H1876 H 0.63982 0.47031 0.29817 0.0
H1877 H 0.6554 0.44666 0.2972 0.0
H1878 H 0.69896 0.48145 0.27328 0.0
H1879 H 0.68312 0.50463 0.2735 0.0
H1880 H 0.6909 0.44906 0.25616 0.0
H1881 H 0.70264 0.4738 0.31982 0.0
H1882 H 0.69453 0.48258 0.34993 0.0
H1883 H 0.66336 0.42658 0.3509 0.0
H1884 H 0.6711 0.41751 0.32068 0.0
H1885 H 0.76085 0.40762 0.27239 0.0
H1886 H 0.74242 0.4286 0.27412 0.0
H1887 H 0.69752 0.38597 0.28772 0.0
H1888 H 0.71565 0.36463 0.28547 0.0
H1889 H 0.70436 0.42014 0.30974 0.0
H1890 H 0.69489 0.39578 0.24624 0.0
H1891 H 0.70452 0.3878 0.21669 0.0
H1892 H 0.73328 0.44458 0.2162 0.0
H1893 H 0.72404 0.45287 0.2459 0.0
C1894 C 0.65275 0.4729 0.29277 0.0
C1895 C 0.66022 0.48933 0.2859 0.0
C1896 C 0.66171 0.45941 0.2923 0.0
C1897 C 0.67852 0.46227 0.28533 0.0
C1898 C 0.68601 0.47879 0.27865 0.0
C1899 C 0.67694 0.4921 0.27884 0.0
C1900 C 0.68823 0.44805 0.28452 0.0
C1901 C 0.694 0.44294 0.26798 0.0
C1902 C 0.69194 0.43959 0.29975 0.0
C1903 C 0.68728 0.44502 0.31791 0.0
C1904 C 0.69394 0.46339 0.3264 0.0
C1905 C 0.68943 0.46841 0.34349 0.0
C1906 C 0.67839 0.45516 0.3523 0.0
C1907 C 0.67188 0.43684 0.34405 0.0
C1908 C 0.67633 0.43175 0.32694 0.0
C1909 C 0.74699 0.40257 0.27552 0.0
C1910 C 0.73976 0.38432 0.27865 0.0
C1911 C 0.73649 0.41465 0.27662 0.0
C1912 C 0.71854 0.40882 0.28092 0.0
C1913 C 0.71136 0.39077 0.28442 0.0
C1914 C 0.7218 0.37861 0.28319 0.0
C1915 C 0.70726 0.42157 0.28154 0.0
C1916 C 0.70116 0.42629 0.29797 0.0
C1917 C 0.70344 0.42986 0.26629 0.0
C1918 C 0.7089 0.42492 0.24837 0.0
C1919 C 0.70338 0.40655 0.2399 0.0
C1920 C 0.70875 0.40197 0.22311 0.0
C1921 C 0.71954 0.41567 0.21459 0.0
C1922 C 0.72494 0.43398 0.22283 0.0
C1923 C 0.71963 0.43863 0.23963 0.0
H1924 H 0.72369 0.4121 0.20159 0.0
H1925 H 0.67492 0.45907 0.36553 0.0
H1926 H 0.83022 0.40903 0.52285 0.0
H1927 H 0.86245 0.42736 0.52539 0.0
H1928 H 0.84727 0.47706 0.53385 0.0
H1929 H 0.81506 0.45893 0.53129 0.0
H1930 H 0.87285 0.4783 0.50952 0.0
H1931 H 0.86384 0.4628 0.56941 0.0
H1932 H 0.85411 0.44156 0.59144 0.0
H1933 H 0.89243 0.41346 0.57641 0.0
H1934 H 0.90221 0.43438 0.5541 0.0
H1935 H 0.96338 0.5381 0.54044 0.0
H1936 H 0.93046 0.52194 0.53761 0.0
H1937 H 0.94215 0.47041 0.53803 0.0
H1938 H 0.97487 0.4865 0.54167 0.0
H1939 H 0.91758 0.47124 0.55852 0.0
H1940 H 0.9261 0.48513 0.49807 0.0
H1941 H 0.93564 0.50521 0.47502 0.0
H1942 H 0.89849 0.53493 0.48962 0.0
H1943 H 0.8889 0.51517 0.51292 0.0
C1944 C 0.83373 0.42385 0.52518 0.0
C1945 C 0.82012 0.43253 0.527 0.0
C1946 C 0.85212 0.43429 0.52665 0.0
C1947 C 0.85716 0.45352 0.52995 0.0
C1948 C 0.8436 0.46223 0.53131 0.0
C1949 C 0.82523 0.45183 0.52994 0.0
C1950 C 0.87665 0.46458 0.53247 0.0
C1951 C 0.88265 0.47696 0.52034 0.0
C1952 C 0.88936 0.4625 0.54641 0.0
C1953 C 0.88364 0.45005 0.55997 0.0
C1954 C 0.8701 0.45201 0.57071 0.0
C1955 C 0.86459 0.44004 0.58326 0.0
C1956 C 0.87261 0.42614 0.58529 0.0
C1957 C 0.88621 0.42422 0.57481 0.0
C1958 C 0.89176 0.43614 0.56223 0.0
C1959 C 0.95886 0.52333 0.53993 0.0
C1960 C 0.97162 0.51354 0.54128 0.0
C1961 C 0.94008 0.51411 0.53822 0.0
C1962 C 0.93383 0.49493 0.53737 0.0
C1963 C 0.94664 0.48521 0.53872 0.0
C1964 C 0.96534 0.49442 0.54077 0.0
C1965 C 0.914 0.48483 0.53534 0.0
C1966 C 0.90787 0.47265 0.54765 0.0
C1967 C 0.90123 0.48696 0.52142 0.0
C1968 C 0.90693 0.49879 0.50736 0.0
C1969 C 0.92007 0.49603 0.49645 0.0
C1970 C 0.92547 0.50734 0.48333 0.0
C1971 C 0.91772 0.52137 0.48089 0.0
C1972 C 0.90451 0.52408 0.49154 0.0
C1973 C 0.89907 0.51282 0.5047 0.0
H1974 H 0.92192 0.53011 0.47072 0.0
H1975 H 0.86832 0.41688 0.59501 0.0
H1976 H 0.39295 0.10808 0.29453 0.0
H1977 H 0.37381 0.12829 0.2918 0.0
H1978 H 0.33765 0.09786 0.32587 0.0
H1979 H 0.35668 0.0774 0.32822 0.0
H1980 H 0.32051 0.09655 0.29284 0.0
H1981 H 0.36056 0.14418 0.33819 0.0
H1982 H 0.39007 0.16587 0.35322 0.0
H1983 H 0.39676 0.19168 0.30526 0.0
H1984 H 0.36741 0.16997 0.28982 0.0
H1985 H 0.25744 0.1478 0.28425 0.0
H1986 H 0.27915 0.13212 0.29461 0.0
H1987 H 0.31798 0.16105 0.26194 0.0
H1988 H 0.29661 0.1772 0.252 0.0
H1989 H 0.33355 0.16389 0.29635 0.0
H1990 H 0.29652 0.11593 0.25 0.0
H1991 H 0.26795 0.09409 0.23312 0.0
H1992 H 0.25689 0.06871 0.2808 0.0
H1993 H 0.28529 0.09058 0.29805 0.0
C1994 C 0.38142 0.10636 0.30215 0.0
C1995 C 0.37625 0.09149 0.31174 0.0
C1996 C 0.37049 0.11786 0.30059 0.0
C1997 C 0.35431 0.11454 0.30863 0.0
C1998 C 0.35011 0.10064 0.31961 0.0
C1999 C 0.361 0.08909 0.32107 0.0
C2000 C 0.34025 0.12306 0.30275 0.0
C2001 C 0.3232 0.1113 0.29402 0.0
C2002 C 0.34414 0.14225 0.30354 0.0
C2003 C 0.36182 0.15534 0.3128 0.0
C2004 C 0.36838 0.15438 0.33079 0.0
C2005 C 0.38508 0.1667 0.33939 0.0
C2006 C 0.3953 0.18012 0.33019 0.0
C2007 C 0.38883 0.18127 0.31237 0.0
C2008 C 0.37215 0.16897 0.30369 0.0
C2009 C 0.27051 0.1506 0.2791 0.0
C2010 C 0.27536 0.16371 0.26736 0.0
C2011 C 0.28285 0.14162 0.28496 0.0
C2012 C 0.30015 0.14551 0.27906 0.0
C2013 C 0.3047 0.15795 0.26668 0.0
C2014 C 0.29238 0.16696 0.26083 0.0
C2015 C 0.31388 0.13735 0.28656 0.0
C2016 C 0.33083 0.14915 0.29544 0.0
C2017 C 0.31006 0.11818 0.28569 0.0
C2018 C 0.29293 0.10503 0.27538 0.0
C2019 C 0.28791 0.10581 0.25694 0.0
C2020 C 0.27177 0.0934 0.24729 0.0
C2021 C 0.26058 0.08005 0.2559 0.0
C2022 C 0.26555 0.07907 0.27416 0.0
C2023 C 0.28168 0.09146 0.28388 0.0
H2024 H 0.24809 0.07045 0.2484 0.0
H2025 H 0.40822 0.18965 0.33688 0.0
H2026 H 0.30634 0.12387 0.53623 0.0
H2027 H 0.32942 0.10789 0.53609 0.0
H2028 H 0.37007 0.15761 0.52842 0.0
H2029 H 0.34646 0.17333 0.52727 0.0
H2030 H 0.37725 0.13114 0.51056 0.0
H2031 H 0.36614 0.14118 0.57161 0.0
H2032 H 0.34812 0.14115 0.59716 0.0
H2033 H 0.32748 0.0823 0.58667 0.0
H2034 H 0.34518 0.08199 0.5609 0.0
H2035 H 0.44929 0.0942 0.54193 0.0
H2036 H 0.42868 0.11301 0.5397 0.0
H2037 H 0.38196 0.0643 0.53155 0.0
H2038 H 0.40238 0.04529 0.53308 0.0
H2039 H 0.38057 0.09275 0.55906 0.0
H2040 H 0.39212 0.08516 0.49585 0.0
H2041 H 0.41286 0.08735 0.47244 0.0
H2042 H 0.43693 0.14506 0.49117 0.0
H2043 H 0.41619 0.14323 0.5146 0.0
C2044 C 0.32019 0.13137 0.53441 0.0
C2045 C 0.32467 0.14988 0.53194 0.0
C2046 C 0.33345 0.12226 0.53448 0.0
C2047 C 0.35175 0.13164 0.53288 0.0
C2048 C 0.35614 0.15005 0.52985 0.0
C2049 C 0.34266 0.15905 0.52922 0.0
C2050 C 0.36613 0.12215 0.53455 0.0
C2051 C 0.37809 0.123 0.52135 0.0
C2052 C 0.36747 0.11149 0.54864 0.0
C2053 C 0.35689 0.11158 0.56423 0.0
C2054 C 0.35768 0.12824 0.57469 0.0
C2055 C 0.34752 0.12828 0.58921 0.0
C2056 C 0.33663 0.11174 0.59351 0.0
C2057 C 0.33591 0.09511 0.58332 0.0
C2058 C 0.34602 0.09499 0.56876 0.0
C2059 C 0.43465 0.0874 0.53936 0.0
C2060 C 0.42757 0.06814 0.53777 0.0
C2061 C 0.42288 0.09822 0.53818 0.0
C2062 C 0.40379 0.09005 0.53547 0.0
C2063 C 0.39666 0.07089 0.53376 0.0
C2064 C 0.40839 0.06005 0.53476 0.0
C2065 C 0.39116 0.10142 0.53487 0.0
C2066 C 0.37966 0.10099 0.54836 0.0
C2067 C 0.39063 0.11284 0.52141 0.0
C2068 C 0.40271 0.11403 0.50702 0.0
C2069 C 0.40187 0.0983 0.49499 0.0
C2070 C 0.41361 0.09948 0.48172 0.0
C2071 C 0.4263 0.1163 0.48041 0.0
C2072 C 0.42712 0.13203 0.49223 0.0
C2073 C 0.41532 0.13095 0.50544 0.0
H2074 H 0.43546 0.11716 0.4702 0.0
H2075 H 0.32878 0.1118 0.60476 0.0
H2076 H 0.63718 0.59765 0.31043 0.0
H2077 H 0.6574 0.62903 0.31239 0.0
H2078 H 0.70302 0.60857 0.30422 0.0
H2079 H 0.6829 0.57705 0.30217 0.0
H2080 H 0.71188 0.64137 0.33068 0.0
H2081 H 0.68237 0.61774 0.26893 0.0
H2082 H 0.65566 0.60313 0.24539 0.0
H2083 H 0.6329 0.64662 0.26007 0.0
H2084 H 0.65936 0.66135 0.28389 0.0
H2085 H 0.76958 0.72076 0.30105 0.0
H2086 H 0.75197 0.68976 0.30521 0.0
H2087 H 0.70225 0.70521 0.30087 0.0
H2088 H 0.71962 0.73582 0.29595 0.0
H2089 H 0.69597 0.67428 0.28121 0.0
H2090 H 0.72464 0.6986 0.34245 0.0
H2091 H 0.75043 0.71351 0.36688 0.0
H2092 H 0.77375 0.66991 0.35475 0.0
H2093 H 0.7482 0.65485 0.33008 0.0
C2094 C 0.65157 0.59978 0.30934 0.0
C2095 C 0.65837 0.5848 0.30593 0.0
C2096 C 0.66309 0.61774 0.31045 0.0
C2097 C 0.68163 0.62107 0.30825 0.0
C2098 C 0.68874 0.60626 0.30594 0.0
C2099 C 0.67719 0.58826 0.30469 0.0
C2100 C 0.69314 0.63984 0.30678 0.0
C2101 C 0.70857 0.64857 0.31979 0.0
C2102 C 0.68856 0.64927 0.29276 0.0
C2103 C 0.67275 0.64054 0.2783 0.0
C2104 C 0.6716 0.62411 0.26722 0.0
C2105 C 0.65652 0.61582 0.25382 0.0
C2106 C 0.64257 0.62391 0.25127 0.0
C2107 C 0.6437 0.64035 0.26208 0.0
C2108 C 0.65874 0.64868 0.27552 0.0
C2109 C 0.75491 0.71754 0.30112 0.0
C2110 C 0.74597 0.73068 0.29808 0.0
C2111 C 0.74486 0.69985 0.30359 0.0
C2112 C 0.72576 0.69513 0.30353 0.0
C2113 C 0.71693 0.70843 0.30089 0.0
C2114 C 0.72689 0.72595 0.29809 0.0
C2115 C 0.71472 0.67617 0.30531 0.0
C2116 C 0.69936 0.66727 0.29222 0.0
C2117 C 0.71928 0.66673 0.3194 0.0
C2118 C 0.7346 0.67569 0.3343 0.0
C2119 C 0.73533 0.69225 0.34491 0.0
C2120 C 0.7499 0.70072 0.35881 0.0
C2121 C 0.76374 0.69268 0.36233 0.0
C2122 C 0.76302 0.67613 0.35199 0.0
C2123 C 0.7485 0.66761 0.33806 0.0
H2124 H 0.77501 0.69926 0.3731 0.0
H2125 H 0.6309 0.61747 0.24088 0.0
H2126 H 0.8524 0.49712 0.81817 0.0
H2127 H 0.83812 0.46398 0.81308 0.0
H2128 H 0.89151 0.45602 0.81955 0.0
H2129 H 0.90601 0.48927 0.82444 0.0
H2130 H 0.87021 0.43659 0.78822 0.0
H2131 H 0.86335 0.44603 0.85159 0.0
H2132 H 0.85424 0.46052 0.87877 0.0
H2133 H 0.79816 0.44274 0.8535 0.0
H2134 H 0.80697 0.42835 0.82606 0.0
H2135 H 0.83577 0.33955 0.78559 0.0
H2136 H 0.85187 0.37248 0.79206 0.0
H2137 H 0.8 0.38365 0.79173 0.0
H2138 H 0.7839 0.35077 0.78591 0.0
H2139 H 0.8218 0.40136 0.82092 0.0
H2140 H 0.82754 0.39336 0.75752 0.0
H2141 H 0.83549 0.37952 0.7293 0.0
H2142 H 0.89199 0.39527 0.75298 0.0
H2143 H 0.88433 0.40898 0.78146 0.0
C2144 C 0.86113 0.48836 0.81884 0.0
C2145 C 0.88035 0.49581 0.82159 0.0
C2146 C 0.85293 0.46941 0.81598 0.0
C2147 C 0.86378 0.4576 0.81597 0.0
C2148 C 0.88293 0.46497 0.81948 0.0
C2149 C 0.89117 0.48395 0.82235 0.0
C2150 C 0.85511 0.43761 0.81094 0.0
C2151 C 0.85985 0.42876 0.79554 0.0
C2152 C 0.84118 0.42767 0.82016 0.0
C2153 C 0.83585 0.43622 0.83672 0.0
C2154 C 0.8491 0.44532 0.85178 0.0
C2155 C 0.84398 0.4535 0.86724 0.0
C2156 C 0.82564 0.45259 0.86785 0.0
C2157 C 0.81237 0.44345 0.85301 0.0
C2158 C 0.81741 0.43526 0.83751 0.0
C2159 C 0.82781 0.34906 0.78657 0.0
C2160 C 0.80862 0.34267 0.7854 0.0
C2161 C 0.83702 0.36786 0.79024 0.0
C2162 C 0.82712 0.38051 0.79237 0.0
C2163 C 0.80789 0.37411 0.79028 0.0
C2164 C 0.79872 0.35535 0.78691 0.0
C2165 C 0.83675 0.40029 0.79807 0.0
C2166 C 0.83221 0.40912 0.81361 0.0
C2167 C 0.85068 0.41026 0.78882 0.0
C2168 C 0.85532 0.40203 0.7717 0.0
C2169 C 0.84163 0.39374 0.75677 0.0
C2170 C 0.84609 0.38594 0.74072 0.0
C2171 C 0.86422 0.38647 0.73937 0.0
C2172 C 0.87794 0.39484 0.75406 0.0
C2173 C 0.87355 0.40264 0.77015 0.0
H2174 H 0.86765 0.38043 0.72693 0.0
H2175 H 0.82172 0.45893 0.87983 0.0
H2176 H 0.02809 0.84698 0.09969 0.0
H2177 H 0.02391 0.87485 0.08934 0.0
H2178 H 0.07561 0.88562 0.06835 0.0
H2179 H 0.07972 0.85764 0.07841 0.0
H2180 H 0.07188 0.91735 0.08741 0.0
H2181 H 0.03603 0.86956 0.03959 0.0
H2182 H 0.01221 0.84047 0.02672 0.0
H2183 H 0.971 0.86122 0.04782 0.0
H2184 H 0.99463 0.89036 0.06104 0.0
H2185 H 0.06285 0.99195 0.04249 0.0
H2186 H 0.06765 0.96355 0.05038 0.0
H2187 H 0.0103 0.94257 0.05618 0.0
H2188 H 0.00529 0.97024 0.04644 0.0
H2189 H 0.01763 0.91546 0.04471 0.0
H2190 H 0.05262 0.96258 0.09399 0.0
H2191 H 0.07598 0.99175 0.10765 0.0
H2192 H 0.11798 0.97266 0.08607 0.0
H2193 H 0.09483 0.94349 0.07206 0.0
C2194 C 0.03856 0.8552 0.09279 0.0
C2195 C 0.05422 0.84982 0.08987 0.0
C2196 C 0.03613 0.87122 0.08682 0.0
C2197 C 0.04939 0.88255 0.07791 0.0
C2198 C 0.06512 0.8773 0.07516 0.0
C2199 C 0.06742 0.86114 0.08087 0.0
C2200 C 0.04688 0.89978 0.0715 0.0
C2201 C 0.06008 0.9169 0.07794 0.0
C2202 C 0.03134 0.89954 0.05943 0.0
C2203 C 0.01712 0.88206 0.05146 0.0
C2204 C 0.02191 0.86786 0.04161 0.0
C2205 C 0.00844 0.85137 0.03423 0.0
C2206 C 0.99011 0.84898 0.03649 0.0
C2207 C 0.98521 0.86308 0.0461 0.0
C2208 C 0.99863 0.87959 0.05353 0.0
C2209 C 0.05124 0.9812 0.04533 0.0
C2210 C 0.03367 0.98347 0.04379 0.0
C2211 C 0.05403 0.96491 0.05017 0.0
C2212 C 0.03953 0.95067 0.05465 0.0
C2213 C 0.02191 0.95301 0.05293 0.0
C2214 C 0.019 0.96898 0.04737 0.0
C2215 C 0.04248 0.93338 0.06088 0.0
C2216 C 0.02939 0.91613 0.05433 0.0
C2217 C 0.058 0.93356 0.07313 0.0
C2218 C 0.07197 0.95093 0.08185 0.0
C2219 C 0.06683 0.96464 0.09212 0.0
C2220 C 0.08003 0.98117 0.0999 0.0
C2221 C 0.09844 0.98408 0.09768 0.0
C2222 C 0.10371 0.9704 0.08776 0.0
C2223 C 0.09056 0.95387 0.07989 0.0
H2224 H 0.10864 0.99691 0.10366 0.0
H2225 H 0.9797 0.8362 0.03076 0.0
H2226 H 0.95108 0.24562 0.89079 0.0
H2227 H 0.9247 0.24855 0.87172 0.0
H2228 H 0.92008 0.29048 0.91286 0.0
H2229 H 0.9457 0.28664 0.93242 0.0
H2230 H 0.88819 0.2726 0.89989 0.0
H2231 H 0.93977 0.29876 0.87052 0.0
H2232 H 0.96788 0.3004 0.85659 0.0
H2233 H 0.9378 0.25484 0.8158 0.0
H2234 H 0.90955 0.25276 0.82963 0.0
H2235 H 0.82985 0.30471 0.84058 0.0
H2236 H 0.85608 0.30223 0.86021 0.0
H2237 H 0.85687 0.25499 0.82369 0.0
H2238 H 0.83103 0.2578 0.80364 0.0
H2239 H 0.89087 0.27676 0.83441 0.0
H2240 H 0.83953 0.25065 0.86812 0.0
H2241 H 0.81237 0.2525 0.88233 0.0
H2242 H 0.84401 0.30384 0.91449 0.0
H2243 H 0.87149 0.30201 0.9008 0.0
C2244 C 0.94437 0.25539 0.89581 0.0
C2245 C 0.95057 0.26592 0.91314 0.0
C2246 C 0.92934 0.25722 0.88478 0.0
C2247 C 0.92049 0.27013 0.89048 0.0
C2248 C 0.92653 0.28043 0.90796 0.0
C2249 C 0.94126 0.27825 0.91919 0.0
C2250 C 0.90497 0.27283 0.87834 0.0
C2251 C 0.88899 0.27371 0.88563 0.0
C2252 C 0.90564 0.27428 0.85961 0.0
C2253 C 0.92259 0.2755 0.85122 0.0
C2254 C 0.93918 0.28901 0.85865 0.0
C2255 C 0.95513 0.29003 0.85077 0.0
C2256 C 0.95464 0.2777 0.83535 0.0
C2257 C 0.93817 0.26436 0.82776 0.0
C2258 C 0.92218 0.26327 0.8356 0.0
C2259 C 0.83556 0.29375 0.83671 0.0
C2260 C 0.82821 0.28143 0.82049 0.0
C2261 C 0.85054 0.29226 0.84806 0.0
C2262 C 0.85838 0.27818 0.84372 0.0
C2263 C 0.85113 0.26595 0.82746 0.0
C2264 C 0.83627 0.26755 0.81599 0.0
C2265 C 0.87419 0.27626 0.85596 0.0
C2266 C 0.89019 0.27557 0.84867 0.0
C2267 C 0.87376 0.27549 0.87476 0.0
C2268 C 0.85746 0.27623 0.88341 0.0
C2269 C 0.84065 0.26231 0.87823 0.0
C2270 C 0.82522 0.26336 0.88619 0.0
C2271 C 0.82642 0.27839 0.89917 0.0
C2272 C 0.84309 0.29228 0.90436 0.0
C2273 C 0.85863 0.29114 0.89666 0.0
H2274 H 0.81453 0.27922 0.90539 0.0
H2275 H 0.967 0.27851 0.82927 0.0
H2276 H 0.52864 0.23438 0.6077 0.0
H2277 H 0.52535 0.20245 0.59641 0.0
H2278 H 0.5743 0.2198 0.57105 0.0
H2279 H 0.57715 0.25205 0.58173 0.0
H2280 H 0.55211 0.19074 0.55035 0.0
H2281 H 0.57322 0.20304 0.61428 0.0
H2282 H 0.57292 0.21354 0.64664 0.0
H2283 H 0.52027 0.17363 0.64502 0.0
H2284 H 0.52016 0.16305 0.61258 0.0
H2285 H 0.56793 0.10228 0.54713 0.0
H2286 H 0.57096 0.13499 0.55496 0.0
H2287 H 0.51673 0.12066 0.57063 0.0
H2288 H 0.51346 0.08806 0.56257 0.0
H2289 H 0.54282 0.14812 0.59609 0.0
H2290 H 0.52237 0.13574 0.53187 0.0
H2291 H 0.5239 0.12449 0.50001 0.0
H2292 H 0.5769 0.16416 0.50279 0.0
H2293 H 0.57583 0.17543 0.5348 0.0
C2294 C 0.53857 0.23148 0.59945 0.0
C2295 C 0.5532 0.24594 0.59571 0.0
C2296 C 0.53679 0.21308 0.59313 0.0
C2297 C 0.54989 0.20837 0.58329 0.0
C2298 C 0.56403 0.22283 0.57871 0.0
C2299 C 0.56563 0.24136 0.58479 0.0
C2300 C 0.5491 0.18848 0.57845 0.0
C2301 C 0.55034 0.18157 0.56048 0.0
C2302 C 0.54655 0.17609 0.59142 0.0
C2303 C 0.54661 0.18237 0.61095 0.0
C2304 C 0.56153 0.19658 0.6208 0.0
C2305 C 0.56144 0.20254 0.63916 0.0
C2306 C 0.54657 0.19429 0.64787 0.0
C2307 C 0.53177 0.18003 0.63825 0.0
C2308 C 0.53179 0.17403 0.61988 0.0
C2309 C 0.55665 0.10605 0.55231 0.0
C2310 C 0.54045 0.09237 0.55421 0.0
C2311 C 0.55838 0.12483 0.55671 0.0
C2312 C 0.54405 0.13046 0.56337 0.0
C2313 C 0.52801 0.11681 0.56556 0.0
C2314 C 0.52616 0.09809 0.56088 0.0
C2315 C 0.5457 0.15048 0.56808 0.0
C2316 C 0.54464 0.15737 0.58602 0.0
C2317 C 0.54857 0.16281 0.55514 0.0
C2318 C 0.5491 0.15631 0.5358 0.0
C2319 C 0.53442 0.14197 0.52574 0.0
C2320 C 0.53519 0.1356 0.50765 0.0
C2321 C 0.55051 0.14357 0.4994 0.0
C2322 C 0.56505 0.15798 0.50921 0.0
C2323 C 0.56437 0.16437 0.52733 0.0
H2324 H 0.55109 0.13862 0.48539 0.0
H2325 H 0.54652 0.19892 0.66209 0.0
H2326 H 0.53446 0.78544 0.3927 0.0
H2327 H 0.55931 0.78654 0.37446 0.0
H2328 H 0.58263 0.75752 0.41145 0.0
H2329 H 0.5582 0.75712 0.43022 0.0
H2330 H 0.60902 0.78301 0.40325 0.0
H2331 H 0.55814 0.73698 0.36685 0.0
H2332 H 0.52675 0.7239 0.35038 0.0
H2333 H 0.53767 0.76568 0.31586 0.0
H2334 H 0.56906 0.77915 0.33227 0.0
H2335 H 0.67267 0.76719 0.34481 0.0
H2336 H 0.64738 0.76274 0.36295 0.0
H2337 H 0.62247 0.79369 0.32967 0.0
H2338 H 0.64706 0.79726 0.31084 0.0
H2339 H 0.59697 0.76542 0.33625 0.0
H2340 H 0.64783 0.81188 0.37391 0.0
H2341 H 0.67936 0.82409 0.3902 0.0
H2342 H 0.66849 0.78012 0.42215 0.0
H2343 H 0.63694 0.76753 0.40592 0.0
C2344 C 0.54479 0.77916 0.39691 0.0
C2345 C 0.54422 0.7711 0.41292 0.0
C2346 C 0.55901 0.77972 0.38637 0.0
C2347 C 0.57281 0.77181 0.39129 0.0
C2348 C 0.57222 0.76371 0.40727 0.0
C2349 C 0.55817 0.76343 0.41798 0.0
C2350 C 0.58804 0.77239 0.38003 0.0
C2351 C 0.60631 0.77887 0.38863 0.0
C2352 C 0.58473 0.76731 0.36086 0.0
C2353 C 0.5659 0.75916 0.35089 0.0
C2354 C 0.55381 0.74344 0.35581 0.0
C2355 C 0.53602 0.73595 0.34648 0.0
C2356 C 0.5302 0.74398 0.33211 0.0
C2357 C 0.54218 0.75949 0.32701 0.0
C2358 C 0.55998 0.76704 0.3363 0.0
C2359 C 0.6617 0.77285 0.34115 0.0
C2360 C 0.66209 0.78269 0.32631 0.0
C2361 C 0.64732 0.7705 0.35174 0.0
C2362 C 0.63307 0.77815 0.34796 0.0
C2363 C 0.63328 0.78772 0.33301 0.0
C2364 C 0.64754 0.78994 0.32233 0.0
C2365 C 0.61789 0.77623 0.35944 0.0
C2366 C 0.59964 0.76947 0.35088 0.0
C2367 C 0.62122 0.78094 0.37863 0.0
C2368 C 0.64008 0.78869 0.3886 0.0
C2369 C 0.65219 0.80477 0.38436 0.0
C2370 C 0.67006 0.81177 0.39359 0.0
C2371 C 0.67593 0.80288 0.40719 0.0
C2372 C 0.66392 0.787 0.41162 0.0
C2373 C 0.64604 0.77994 0.40243 0.0
H2374 H 0.68978 0.80829 0.41429 0.0
H2375 H 0.51643 0.73816 0.32491 0.0
H2376 H 0.03845 0.24475 0.38409 0.0
H2377 H 0.03767 0.22034 0.40252 0.0
H2378 H 0.02896 0.25414 0.44875 0.0
H2379 H 0.02994 0.27876 0.43045 0.0
H2380 H 0.05333 0.23712 0.45893 0.0
H2381 H 0.99358 0.21849 0.42372 0.0
H2382 H 0.97143 0.21099 0.39569 0.0
H2383 H 0.99268 0.16778 0.37597 0.0
H2384 H 0.01514 0.1752 0.40379 0.0
H2385 H 0.02399 0.1681 0.51429 0.0
H2386 H 0.02603 0.19234 0.49552 0.0
H2387 H 0.03305 0.15683 0.44971 0.0
H2388 H 0.03033 0.1322 0.46827 0.0
H2389 H 0.01005 0.17454 0.43894 0.0
H2390 H 0.06947 0.1927 0.47421 0.0
H2391 H 0.09171 0.20012 0.50217 0.0
H2392 H 0.07138 0.2441 0.52164 0.0
H2393 H 0.04884 0.23678 0.4939 0.0
C2394 C 0.0364 0.24707 0.39818 0.0
C2395 C 0.03419 0.26381 0.40569 0.0
C2396 C 0.03587 0.233 0.40872 0.0
C2397 C 0.033 0.2352 0.42703 0.0
C2398 C 0.03114 0.25201 0.43467 0.0
C2399 C 0.03167 0.26611 0.42414 0.0
C2400 C 0.0319 0.22001 0.43818 0.0
C2401 C 0.04369 0.22351 0.45465 0.0
C2402 C 0.01968 0.20204 0.43247 0.0
C2403 C 0.00616 0.19753 0.41576 0.0
C2404 C 0.99363 0.20749 0.41334 0.0
C2405 C 0.981 0.20323 0.3975 0.0
C2406 C 0.98068 0.18895 0.38403 0.0
C2407 C 0.99296 0.17886 0.3864 0.0
C2408 C 0.00563 0.18307 0.40221 0.0
C2409 C 0.02579 0.16529 0.50018 0.0
C2410 C 0.02688 0.148 0.49287 0.0
C2411 C 0.02719 0.17933 0.48947 0.0
C2412 C 0.02994 0.17661 0.47117 0.0
C2413 C 0.031 0.15938 0.46378 0.0
C2414 C 0.02958 0.1453 0.4745 0.0
C2415 C 0.03145 0.19165 0.45974 0.0
C2416 C 0.01973 0.18813 0.44321 0.0
C2417 C 0.04377 0.2096 0.46538 0.0
C2418 C 0.05735 0.21408 0.48205 0.0
C2419 C 0.06965 0.20387 0.48452 0.0
C2420 C 0.08233 0.20807 0.50031 0.0
C2421 C 0.08293 0.22254 0.51369 0.0
C2422 C 0.07089 0.23288 0.51127 0.0
C2423 C 0.05817 0.22872 0.49551 0.0
H2424 H 0.09275 0.22577 0.52591 0.0
H2425 H 0.97089 0.18567 0.37178 0.0
H2426 H 0.57672 0.28139 0.20495 0.0
H2427 H 0.60829 0.28366 0.21597 0.0
H2428 H 0.58911 0.24291 0.25052 0.0
H2429 H 0.55718 0.24082 0.2397 0.0
H2430 H 0.62007 0.26876 0.26767 0.0
H2431 H 0.60321 0.23185 0.20889 0.0
H2432 H 0.59104 0.22443 0.17625 0.0
H2433 H 0.63295 0.27121 0.16539 0.0
H2434 H 0.64523 0.27905 0.19802 0.0
H2435 H 0.70627 0.24971 0.2801 0.0
H2436 H 0.67382 0.24704 0.2721 0.0
H2437 H 0.68867 0.28832 0.23718 0.0
H2438 H 0.72108 0.29106 0.24508 0.0
H2439 H 0.65941 0.26057 0.22058 0.0
H2440 H 0.67566 0.29825 0.27872 0.0
H2441 H 0.68822 0.30643 0.31124 0.0
H2442 H 0.64803 0.25891 0.32316 0.0
H2443 H 0.63535 0.25029 0.29061 0.0
C2444 C 0.5791 0.27302 0.21507 0.0
C2445 C 0.5642 0.26083 0.2213 0.0
C2446 C 0.5973 0.27425 0.2213 0.0
C2447 C 0.60132 0.26313 0.23379 0.0
C2448 C 0.58653 0.25159 0.24079 0.0
C2449 C 0.5682 0.25043 0.23462 0.0
C2450 C 0.62086 0.26323 0.23891 0.0
C2451 C 0.62853 0.26665 0.25734 0.0
C2452 C 0.63229 0.26089 0.22558 0.0
C2453 C 0.62505 0.25612 0.20592 0.0
C2454 C 0.60977 0.24062 0.19956 0.0
C2455 C 0.60286 0.23633 0.18106 0.0
C2456 C 0.61119 0.24736 0.16876 0.0
C2457 C 0.62649 0.26268 0.17493 0.0
C2458 C 0.63345 0.26704 0.19343 0.0
C2459 C 0.70268 0.25821 0.27067 0.0
C2460 C 0.71649 0.27061 0.26328 0.0
C2461 C 0.68403 0.25673 0.26617 0.0
C2462 C 0.67858 0.26757 0.25409 0.0
C2463 C 0.69233 0.27976 0.2465 0.0
C2464 C 0.71097 0.28135 0.2511 0.0
C2465 C 0.65865 0.26624 0.2493 0.0
C2466 C 0.65091 0.26257 0.23091 0.0
C2467 C 0.64721 0.26839 0.26266 0.0
C2468 C 0.65468 0.27353 0.28222 0.0
C2469 C 0.66958 0.28946 0.28825 0.0
C2470 C 0.67671 0.29419 0.30668 0.0
C2471 C 0.66894 0.28318 0.31923 0.0
C2472 C 0.65402 0.26741 0.31339 0.0
C2473 C 0.64685 0.2626 0.29496 0.0
H2474 H 0.67445 0.28692 0.33347 0.0
H2475 H 0.60582 0.24403 0.15444 0.0
H2476 H 0.55641 0.85308 0.93252 0.0
H2477 H 0.55342 0.87959 0.9518 0.0
H2478 H 0.53119 0.89774 0.90468 0.0
H2479 H 0.53459 0.87147 0.88523 0.0
H2480 H 0.55268 0.92661 0.92627 0.0
H2481 H 0.50347 0.87553 0.93463 0.0
H2482 H 0.48815 0.84447 0.94112 0.0
H2483 H 0.51831 0.85812 0.99489 0.0
H2484 H 0.53402 0.8892 0.98863 0.0
H2485 H 0.51368 0.98696 0.97658 0.0
H2486 H 0.51672 0.96084 0.95666 0.0
H2487 H 0.54732 0.94694 0.00136 0.0
H2488 H 0.54437 0.97307 0.02141 0.0
H2489 H 0.5208 0.9162 0.98054 0.0
H2490 H 0.56931 0.96893 0.97038 0.0
H2491 H 0.57938 1.0007 0.96373 0.0
H2492 H 0.54595 0.98378 0.91161 0.0
H2493 H 0.53529 0.95197 0.91814 0.0
C2494 C 0.55097 0.86274 0.92619 0.0
C2495 C 0.54566 0.85999 0.90726 0.0
C2496 C 0.54916 0.87791 0.93729 0.0
C2497 C 0.54175 0.89063 0.92983 0.0
C2498 C 0.53691 0.88819 0.91087 0.0
C2499 C 0.53883 0.87308 0.89973 0.0
C2500 C 0.53872 0.90619 0.94184 0.0
C2501 C 0.54555 0.92424 0.93801 0.0
C2502 C 0.52942 0.90333 0.95727 0.0
C2503 C 0.52008 0.88463 0.96109 0.0
C2504 C 0.50696 0.87186 0.94779 0.0
C2505 C 0.49818 0.85426 0.95143 0.0
C2506 C 0.50229 0.84931 0.96839 0.0
C2507 C 0.51516 0.86196 0.98175 0.0
C2508 C 0.52401 0.87958 0.97817 0.0
C2509 C 0.5211 0.97841 0.98222 0.0
C2510 C 0.52892 0.98231 1.00063 0.0
C2511 C 0.52281 0.96343 0.97078 0.0
C2512 C 0.53237 0.95195 0.97744 0.0
C2513 C 0.53988 0.95557 0.99588 0.0
C2514 C 0.53826 0.97061 0.00731 0.0
C2515 C 0.53498 0.93648 0.96509 0.0
C2516 C 0.52802 0.91849 0.96884 0.0
C2517 C 0.5438 0.93936 0.94941 0.0
C2518 C 0.55138 0.9581 0.94482 0.0
C2519 C 0.56409 0.97198 0.9575 0.0
C2520 C 0.56983 0.99001 0.9538 0.0
C2521 C 0.56319 0.99427 0.93733 0.0
C2522 C 0.551 0.98047 0.9244 0.0
C2523 C 0.5451 0.96243 0.9281 0.0
H2524 H 0.56758 0.00827 0.93457 0.0
H2525 H 0.49547 0.83568 0.97119 0.0
H2526 H 0.95366 0.76679 0.70354 0.0
H2527 H 0.92501 0.76982 0.71296 0.0
H2528 H 0.94158 0.75989 0.76674 0.0
H2529 H 0.96956 0.75534 0.75676 0.0
H2530 H 0.90861 0.74489 0.76168 0.0
H2531 H 0.94075 0.80562 0.75202 0.0
H2532 H 0.95741 0.82977 0.73541 0.0
H2533 H 0.91057 0.81634 0.6943 0.0
H2534 H 0.89371 0.79197 0.71056 0.0
H2535 H 0.84366 0.78533 0.80191 0.0
H2536 H 0.87223 0.78121 0.79267 0.0
H2537 H 0.84648 0.76546 0.73701 0.0
H2538 H 0.81776 0.76891 0.74622 0.0
H2539 H 0.88364 0.79387 0.74372 0.0
H2540 H 0.85164 0.73352 0.75649 0.0
H2541 H 0.83614 0.71136 0.77562 0.0
H2542 H 0.88488 0.72721 0.81455 0.0
H2543 H 0.90058 0.74981 0.79588 0.0
C2544 C 0.95126 0.76535 0.71741 0.0
C2545 C 0.96412 0.76096 0.72938 0.0
C2546 C 0.9348 0.76727 0.72293 0.0
C2547 C 0.93091 0.76566 0.74088 0.0
C2548 C 0.94388 0.76129 0.75284 0.0
C2549 C 0.96007 0.75878 0.74714 0.0
C2550 C 0.91333 0.7681 0.74707 0.0
C2551 C 0.90347 0.75586 0.75791 0.0
C2552 C 0.90597 0.78217 0.74219 0.0
C2553 C 0.91604 0.79685 0.73241 0.0
C2554 C 0.93405 0.80775 0.73938 0.0
C2555 C 0.94352 0.82148 0.73003 0.0
C2556 C 0.93508 0.82455 0.71378 0.0
C2557 C 0.91711 0.81393 0.70687 0.0
C2558 C 0.90758 0.80017 0.71616 0.0
C2559 C 0.84403 0.78093 0.78771 0.0
C2560 C 0.82826 0.77744 0.77486 0.0
C2561 C 0.86043 0.77854 0.78242 0.0
C2562 C 0.86167 0.773 0.76409 0.0
C2563 C 0.84601 0.76973 0.75123 0.0
C2564 C 0.82951 0.77166 0.75656 0.0
C2565 C 0.87927 0.77078 0.75825 0.0
C2566 C 0.88901 0.78303 0.74749 0.0
C2567 C 0.88674 0.75706 0.7636 0.0
C2568 C 0.87723 0.74354 0.77487 0.0
C2569 C 0.859 0.73246 0.76923 0.0
C2570 C 0.85018 0.71977 0.77996 0.0
C2571 C 0.8595 0.71788 0.79628 0.0
C2572 C 0.87766 0.7287 0.80191 0.0
C2573 C 0.88653 0.74147 0.79127 0.0
H2574 H 0.85266 0.708 0.80453 0.0
H2575 H 0.94244 0.83518 0.70656 0.0
H2576 H 0.06466 0.03627 0.83379 0.0
H2577 H 0.05551 0.03401 0.86403 0.0
H2578 H 0.1046 0.02065 0.88158 0.0
H2579 H 0.1132 0.02182 0.85089 0.0
H2580 H 0.07984 1.00273 0.89809 0.0
H2581 H 0.09958 0.06555 0.89143 0.0
H2582 H 0.10152 0.09346 0.87749 0.0
H2583 H 0.04489 0.08701 0.88234 0.0
H2584 H 0.04254 0.05889 0.89607 0.0
H2585 H 0.0711 0.02807 0.99247 0.0
H2586 H 0.08222 0.02721 0.96281 0.0
H2587 H 0.02992 0.02822 0.9371 0.0
H2588 H 0.01872 0.02909 0.96655 0.0
H2589 H 0.05922 0.05343 0.92636 0.0
H2590 H 0.04198 0.98856 0.93372 0.0
H2591 H 0.04413 0.9633 0.95053 0.0
H2592 H 0.10199 0.97761 0.9478 0.0
H2593 H 0.10021 1.00306 0.93111 0.0
C2594 C 0.07339 0.03262 0.84403 0.0
C2595 C 0.0897 0.02931 0.83996 0.0
C2596 C 0.06825 0.0315 0.86143 0.0
C2597 C 0.07962 0.02773 0.87544 0.0
C2598 C 0.09559 0.02371 0.87117 0.0
C2599 C 0.10051 0.02437 0.85358 0.0
C2600 C 0.07499 0.02843 0.8945 0.0
C2601 C 0.07556 0.01397 0.90428 0.0
C2602 C 0.06953 0.04311 0.90292 0.0
C2603 C 0.07084 0.06 0.89462 0.0
C2604 C 0.0875 0.07 0.8894 0.0
C2605 C 0.08868 0.08587 0.88155 0.0
C2606 C 0.07333 0.09198 0.87899 0.0
C2607 C 0.05677 0.08225 0.88431 0.0
C2608 C 0.05551 0.06634 0.89214 0.0
C2609 C 0.06192 0.028 0.98049 0.0
C2610 C 0.04398 0.02863 0.98196 0.0
C2611 C 0.06829 0.02745 0.96352 0.0
C2612 C 0.05688 0.02755 0.94767 0.0
C2613 C 0.03899 0.02813 0.94911 0.0
C2614 C 0.03258 0.02856 0.96601 0.0
C2615 C 0.06356 0.02754 0.92957 0.0
C2616 C 0.0635 0.04223 0.92006 0.0
C2617 C 0.07005 0.01341 0.92172 0.0
C2618 C 0.07098 0.99779 0.93129 0.0
C2619 C 0.05517 0.98635 0.93676 0.0
C2620 C 0.05632 0.972 0.94626 0.0
C2621 C 0.07319 0.96888 0.95026 0.0
C2622 C 0.08893 0.98004 0.94468 0.0
C2623 C 0.08785 0.99441 0.93518 0.0
H2624 H 0.07407 0.9578 0.95767 0.0
H2625 H 0.07427 0.10428 0.87291 0.0
H2626 H 0.75654 0.40165 0.58799 0.0
H2627 H 0.75629 0.38495 0.61403 0.0
H2628 H 0.73636 0.33355 0.57778 0.0
H2629 H 0.73674 0.35003 0.55176 0.0
H2630 H 0.73353 0.3524 0.62932 0.0
H2631 H 0.77075 0.31523 0.58356 0.0
H2632 H 0.78656 0.31951 0.55642 0.0
H2633 H 0.80322 0.37797 0.57211 0.0
H2634 H 0.78781 0.374 0.59948 0.0
H2635 H 0.76068 0.28525 0.67529 0.0
H2636 H 0.74768 0.30032 0.65263 0.0
H2637 H 0.80079 0.34035 0.65487 0.0
H2638 H 0.81391 0.32511 0.67712 0.0
H2639 H 0.78533 0.32735 0.62089 0.0
H2640 H 0.76741 0.34922 0.67655 0.0
H2641 H 0.75238 0.34756 0.70422 0.0
H2642 H 0.69969 0.32426 0.67168 0.0
H2643 H 0.71442 0.32499 0.64381 0.0
C2644 C 0.75139 0.3868 0.58565 0.0
C2645 C 0.7472 0.37709 0.5679 0.0
C2646 C 0.75113 0.37729 0.60054 0.0
C2647 C 0.74661 0.35809 0.59768 0.0
C2648 C 0.73999 0.34839 0.58015 0.0
C2649 C 0.7404 0.35783 0.56531 0.0
C2650 C 0.75312 0.34869 0.61177 0.0
C2651 C 0.74474 0.34676 0.62755 0.0
C2652 C 0.76804 0.34181 0.60946 0.0
C2653 C 0.77795 0.34431 0.59341 0.0
C2654 C 0.77788 0.32898 0.58124 0.0
C2655 C 0.78676 0.33135 0.56583 0.0
C2656 C 0.79583 0.349 0.5625 0.0
C2657 C 0.79615 0.36431 0.57466 0.0
C2658 C 0.78734 0.36201 0.59012 0.0
C2659 C 0.76961 0.29709 0.67069 0.0
C2660 C 0.78832 0.30399 0.67782 0.0
C2661 C 0.76212 0.3058 0.65797 0.0
C2662 C 0.77326 0.32153 0.65228 0.0
C2663 C 0.79198 0.32824 0.65917 0.0
C2664 C 0.79945 0.31957 0.67187 0.0
C2665 C 0.76572 0.3308 0.63865 0.0
C2666 C 0.77396 0.33274 0.62278 0.0
C2667 C 0.75093 0.33793 0.64119 0.0
C2668 C 0.74209 0.33693 0.65804 0.0
C2669 C 0.75265 0.3434 0.67526 0.0
C2670 C 0.74417 0.34264 0.69101 0.0
C2671 C 0.7251 0.33574 0.68971 0.0
C2672 C 0.71447 0.32951 0.67267 0.0
C2673 C 0.72289 0.33002 0.6569 0.0
H2674 H 0.71856 0.33533 0.7019 0.0
H2675 H 0.80264 0.35081 0.55053 0.0
H2676 H 0.43596 0.0847 0.36682 0.0
H2677 H 0.45311 0.09543 0.39751 0.0
H2678 H 0.48442 0.05789 0.38741 0.0
H2679 H 0.46794 0.04763 0.35695 0.0
H2680 H 0.45364 0.07755 0.4246 0.0
H2681 H 0.52521 0.07088 0.40855 0.0
H2682 H 0.54574 0.07955 0.38555 0.0
H2683 H 0.5206 0.12057 0.37322 0.0
H2684 H 0.50009 0.11237 0.39635 0.0
H2685 H 0.4904 0.03176 0.483 0.0
H2686 H 0.4784 0.04571 0.45898 0.0
H2687 H 0.5258 0.09392 0.47236 0.0
H2688 H 0.53823 0.07967 0.49613 0.0
H2689 H 0.52007 0.08496 0.43815 0.0
H2690 H 0.48179 0.0979 0.47899 0.0
H2691 H 0.46163 0.09379 0.50288 0.0
H2692 H 0.42218 0.04838 0.46808 0.0
H2693 H 0.44199 0.05237 0.44385 0.0
C2694 C 0.44674 0.07901 0.3711 0.0
C2695 C 0.4506 0.06531 0.3595 0.0
C2696 C 0.45651 0.08515 0.38861 0.0
C2697 C 0.47028 0.07772 0.39466 0.0
C2698 C 0.47427 0.06427 0.38291 0.0
C2699 C 0.46466 0.05825 0.3655 0.0
C2700 C 0.47931 0.08223 0.41375 0.0
C2701 C 0.46822 0.07953 0.42766 0.0
C2702 C 0.49848 0.08579 0.41797 0.0
C2703 C 0.51108 0.09099 0.40424 0.0
C2704 C 0.52416 0.08188 0.40109 0.0
C2705 C 0.53577 0.08667 0.38797 0.0
C2706 C 0.53447 0.10059 0.37793 0.0
C2707 C 0.52157 0.10977 0.38099 0.0
C2708 C 0.50994 0.10504 0.3941 0.0
C2709 C 0.49826 0.04533 0.48085 0.0
C2710 C 0.51534 0.05452 0.49127 0.0
C2711 C 0.49126 0.05344 0.46729 0.0
C2712 C 0.50099 0.07107 0.46412 0.0
C2713 C 0.518 0.08036 0.47463 0.0
C2714 C 0.52515 0.07214 0.48809 0.0
C2715 C 0.4941 0.07863 0.4485 0.0
C2716 C 0.50562 0.08368 0.43529 0.0
C2717 C 0.47549 0.07801 0.44515 0.0
C2718 C 0.46342 0.07541 0.45961 0.0
C2719 C 0.46885 0.08698 0.47645 0.0
C2720 C 0.45747 0.08469 0.49005 0.0
C2721 C 0.44071 0.07072 0.48706 0.0
C2722 C 0.4352 0.05915 0.47039 0.0
C2723 C 0.44643 0.06151 0.45666 0.0
H2724 H 0.43192 0.06896 0.49761 0.0
H2725 H 0.54346 0.10427 0.36777 0.0
H2726 H 0.76741 0.73861 0.07411 0.0
H2727 H 0.76442 0.75108 0.10486 0.0
H2728 H 0.79917 0.7216 0.12726 0.0
H2729 H 0.80167 0.70863 0.09662 0.0
H2730 H 0.77031 0.71578 0.14333 0.0
H2731 H 0.81254 0.7705 0.12846 0.0
H2732 H 0.82313 0.79537 0.11023 0.0
H2733 H 0.77574 0.81262 0.11794 0.0
H2734 H 0.76475 0.78772 0.13604 0.0
H2735 H 0.79109 0.75431 0.23483 0.0
H2736 H 0.79231 0.74624 0.20273 0.0
H2737 H 0.75284 0.77415 0.18891 0.0
H2738 H 0.75172 0.78268 0.22143 0.0
H2739 H 0.78065 0.78114 0.1677 0.0
H2740 H 0.73955 0.72759 0.18416 0.0
H2741 H 0.72929 0.70302 0.20279 0.0
H2742 H 0.77474 0.68359 0.19201 0.0
H2743 H 0.78543 0.7082 0.17352 0.0
C2744 C 0.77471 0.73507 0.08558 0.0
C2745 C 0.78477 0.72258 0.08286 0.0
C2746 C 0.773 0.74224 0.10321 0.0
C2747 C 0.7816 0.73737 0.11852 0.0
C2748 C 0.79228 0.72552 0.11576 0.0
C2749 C 0.79379 0.71817 0.09818 0.0
C2750 C 0.77861 0.74352 0.13739 0.0
C2751 C 0.77282 0.73012 0.14867 0.0
C2752 C 0.78112 0.76215 0.14429 0.0
C2753 C 0.78773 0.77713 0.13344 0.0
C2754 C 0.80431 0.77951 0.12615 0.0
C2755 C 0.81039 0.79363 0.11586 0.0
C2756 C 0.80008 0.80553 0.11288 0.0
C2757 C 0.78369 0.80338 0.12023 0.0
C2758 C 0.77754 0.78927 0.13052 0.0
C2759 C 0.78254 0.75873 0.22507 0.0
C2760 C 0.77111 0.76901 0.23083 0.0
C2761 C 0.78326 0.75405 0.20663 0.0
C2762 C 0.77244 0.75928 0.19332 0.0
C2763 C 0.76125 0.76986 0.19892 0.0
C2764 C 0.76056 0.77466 0.21751 0.0
C2765 C 0.77291 0.75344 0.17367 0.0
C2766 C 0.77808 0.76682 0.16226 0.0
C2767 C 0.76986 0.73478 0.16659 0.0
C2768 C 0.76335 0.71982 0.17754 0.0
C2769 C 0.74742 0.71814 0.18585 0.0
C2770 C 0.74152 0.7042 0.19638 0.0
C2771 C 0.75137 0.69177 0.19861 0.0
C2772 C 0.76713 0.69323 0.19028 0.0
C2773 C 0.77309 0.70716 0.17975 0.0
H2774 H 0.74679 0.681 0.20677 0.0
H2775 H 0.80482 0.81645 0.10492 0.0
H2776 H 0.1096 0.01683 0.72239 0.0
H2777 H 0.09699 0.02018 0.69222 0.0
H2778 H 0.05825 0.04346 0.7157 0.0
H2779 H 0.07071 0.03996 0.74611 0.0
H2780 H 0.04251 0.02062 0.68398 0.0
H2781 H 0.0967 0.07128 0.70349 0.0
H2782 H 0.12921 0.08657 0.71581 0.0
H2783 H 0.14578 0.05841 0.67079 0.0
H2784 H 0.11336 0.04273 0.65833 0.0
H2785 H 0.023 0.05344 0.59936 0.0
H2786 H 0.03143 0.05245 0.63178 0.0
H2787 H 0.07352 0.02851 0.6182 0.0
H2788 H 0.06534 0.0295 0.58618 0.0
H2789 H 0.08644 0.0552 0.64659 0.0
H2790 H 0.03273 1.00206 0.62923 0.0
H2791 H 1.00038 0.9849 0.61801 0.0
H2792 H 0.98311 0.01748 0.65904 0.0
H2793 H 0.01542 0.03487 0.67048 0.0
C2794 C 0.09824 0.02246 0.72121 0.0
C2795 C 0.09129 0.02824 0.73679 0.0
C2796 C 0.09111 0.02448 0.70389 0.0
C2797 C 0.07693 0.03247 0.70167 0.0
C2798 C 0.06928 0.03739 0.71706 0.0
C2799 C 0.07641 0.03533 0.73446 0.0
C2800 C 0.07061 0.03613 0.68333 0.0
C2801 C 0.05206 0.02848 0.67593 0.0
C2802 C 0.08305 0.04621 0.67267 0.0
C2803 C 0.10259 0.05572 0.68005 0.0
C2804 C 0.10728 0.06825 0.69628 0.0
C2805 C 0.12569 0.077 0.70328 0.0
C2806 C 0.13955 0.07343 0.69411 0.0
C2807 C 0.13503 0.06114 0.67789 0.0
C2808 C 0.11663 0.05234 0.67084 0.0
C2809 C 0.03412 0.04808 0.60333 0.0
C2810 C 0.04345 0.04156 0.59009 0.0
C2811 C 0.03884 0.0474 0.62186 0.0
C2812 C 0.05306 0.04028 0.62749 0.0
C2813 C 0.06253 0.03408 0.61429 0.0
C2814 C 0.05776 0.03462 0.59589 0.0
C2815 C 0.05841 0.03929 0.64703 0.0
C2816 C 0.07683 0.04754 0.6547 0.0
C2817 C 0.04584 0.02977 0.6579 0.0
C2818 C 0.02645 0.01991 0.65054 0.0
C2819 C 0.02202 0.00572 0.6357 0.0
C2820 C 1.00369 0.9959 0.62935 0.0
C2821 C 0.98968 1.00013 0.63778 0.0
C2822 C 0.99397 0.01424 0.65252 0.0
C2823 C 0.01229 0.02406 0.65895 0.0
H2824 H 0.97549 0.99243 0.63297 0.0
H2825 H 0.1538 0.08022 0.69956 0.0
H2826 H 0.7715 0.33897 0.48008 0.0
H2827 H 0.76786 0.32188 0.44977 0.0
H2828 H 0.73515 0.35391 0.42876 0.0
H2829 H 0.73882 0.37135 0.45923 0.0
H2830 H 0.72308 0.31368 0.41435 0.0
H2831 H 0.77532 0.36823 0.42313 0.0
H2832 H 0.80398 0.39007 0.43986 0.0
H2833 H 0.8296 0.34736 0.43781 0.0
H2834 H 0.80097 0.32518 0.42132 0.0
H2835 H 0.74246 0.30647 0.32171 0.0
H2836 H 0.7369 0.3161 0.35241 0.0
H2837 H 0.77234 0.28721 0.37459 0.0
H2838 H 0.77777 0.27726 0.34392 0.0
H2839 H 0.78178 0.3251 0.38856 0.0
H2840 H 0.73042 0.27115 0.37688 0.0
H2841 H 0.70162 0.249 0.36093 0.0
H2842 H 0.67388 0.28969 0.36878 0.0
H2843 H 0.70268 0.31232 0.38421 0.0
C2844 C 0.76329 0.34226 0.46912 0.0
C2845 C 0.75565 0.35668 0.47196 0.0
C2846 C 0.7612 0.33243 0.45184 0.0
C2847 C 0.75138 0.3368 0.43714 0.0
C2848 C 0.74275 0.3504 0.44005 0.0
C2849 C 0.74495 0.36038 0.45739 0.0
C2850 C 0.75191 0.32845 0.41858 0.0
C2851 C 0.73579 0.31631 0.40849 0.0
C2852 C 0.76867 0.33168 0.41136 0.0
C2853 C 0.78594 0.345 0.42118 0.0
C2854 C 0.78701 0.36345 0.4264 0.0
C2855 C 0.80326 0.3759 0.43581 0.0
C2856 C 0.81859 0.37009 0.43994 0.0
C2857 C 0.81771 0.35183 0.43463 0.0
C2858 C 0.80148 0.33932 0.42524 0.0
C2859 C 0.74889 0.30199 0.33312 0.0
C2860 C 0.76069 0.29127 0.3305 0.0
C2861 C 0.74558 0.30738 0.35059 0.0
C2862 C 0.75418 0.30228 0.36564 0.0
C2863 C 0.76555 0.29117 0.36304 0.0
C2864 C 0.76864 0.28553 0.34556 0.0
C2865 C 0.75292 0.31021 0.38416 0.0
C2866 C 0.76899 0.32239 0.39429 0.0
C2867 C 0.73608 0.307 0.3913 0.0
C2868 C 0.71884 0.29356 0.38149 0.0
C2869 C 0.71829 0.27552 0.37492 0.0
C2870 C 0.70193 0.26284 0.366 0.0
C2871 C 0.68594 0.26795 0.36378 0.0
C2872 C 0.68629 0.28576 0.37046 0.0
C2873 C 0.70265 0.29854 0.37923 0.0
H2874 H 0.67328 0.25811 0.3569 0.0
H2875 H 0.83116 0.37975 0.44722 0.0
H2876 H 0.40411 0.04347 0.24238 0.0
H2877 H 0.41576 0.03556 0.21429 0.0
H2878 H 0.47078 0.05269 0.24301 0.0
H2879 H 0.45926 0.06038 0.27126 0.0
H2880 H 0.46653 0.06105 0.20521 0.0
H2881 H 0.44975 0.01151 0.24196 0.0
H2882 H 0.42805 0.99094 0.2583 0.0
H2883 H 0.39023 0.97051 0.20901 0.0
H2884 H 0.4116 0.99123 0.19245 0.0
H2885 H 0.51572 0.01391 0.15744 0.0
H2886 H 0.50108 0.02436 0.18218 0.0
H2887 H 0.44778 0.99472 0.15233 0.0
H2888 H 0.46237 0.98353 0.1277 0.0
H2889 H 0.44832 0.9933 0.18826 0.0
H2890 H 0.46507 0.03915 0.1503 0.0
H2891 H 0.48535 0.05963 0.1328 0.0
H2892 H 0.52103 0.08729 0.18198 0.0
H2893 H 0.50107 0.06676 0.19979 0.0
C2894 C 0.41876 0.04607 0.24262 0.0
C2895 C 0.43078 0.05228 0.25903 0.0
C2896 C 0.42535 0.04152 0.22658 0.0
C2897 C 0.44403 0.04338 0.22676 0.0
C2898 C 0.4563 0.05118 0.24272 0.0
C2899 C 0.44969 0.05548 0.25882 0.0
C2900 C 0.45046 0.03494 0.21113 0.0
C2901 C 0.46267 0.04626 0.2015 0.0
C2902 C 0.4449 0.01566 0.20612 0.0
C2903 C 0.43215 1.00309 0.21603 0.0
C2904 C 0.43673 1.00277 0.23465 0.0
C2905 C 0.42451 0.99106 0.24394 0.0
C2906 C 0.40774 0.97947 0.23471 0.0
C2907 C 0.4032 0.97953 0.21615 0.0
C2908 C 0.41536 0.99125 0.20681 0.0
C2909 C 0.5009 0.00909 0.15636 0.0
C2910 C 0.49017 0.99802 0.14056 0.0
C2911 C 0.49256 0.01529 0.1704 0.0
C2912 C 0.4734 0.01071 0.16878 0.0
C2913 C 0.46261 0.99857 0.15367 0.0
C2914 C 0.47095 0.99226 0.13962 0.0
C2915 C 0.46474 0.01938 0.18247 0.0
C2916 C 0.45207 0.0081 0.19176 0.0
C2917 C 0.46967 0.03872 0.18696 0.0
C2918 C 0.48165 0.05128 0.17637 0.0
C2919 C 0.47731 0.04951 0.15739 0.0
C2920 C 0.48874 0.06115 0.14741 0.0
C2921 C 0.5045 0.07474 0.15627 0.0
C2922 C 0.50882 0.07675 0.17514 0.0
C2923 C 0.49744 0.06513 0.18519 0.0
H2924 H 0.51334 0.08374 0.14851 0.0
H2925 H 0.3983 0.97041 0.24193 0.0
H2926 H 0.77972 0.74725 0.98595 0.0
H2927 H 0.78196 0.75517 0.95534 0.0
H2928 H 0.78978 0.703 0.93747 0.0
H2929 H 0.78877 0.69561 0.9685 0.0
H2930 H 0.80864 0.72604 0.91962 0.0
H2931 H 0.74636 0.71206 0.93022 0.0
H2932 H 0.7203 0.7139 0.94632 0.0
H2933 H 0.73182 0.77082 0.94046 0.0
H2934 H 0.7581 0.76939 0.92453 0.0
H2935 H 0.78202 0.7359 0.82567 0.0
H2936 H 0.78308 0.72432 0.85501 0.0
H2937 H 0.78615 0.77758 0.88275 0.0
H2938 H 0.78508 0.78914 0.85387 0.0
H2939 H 0.76001 0.75008 0.89369 0.0
H2940 H 0.82376 0.7624 0.88314 0.0
H2941 H 0.84805 0.75807 0.86547 0.0
H2942 H 0.83083 0.70045 0.8691 0.0
H2943 H 0.80628 0.7044 0.88659 0.0
C2944 C 0.7822 0.73759 0.97555 0.0
C2945 C 0.78397 0.72077 0.97961 0.0
C2946 C 0.78329 0.74203 0.95796 0.0
C2947 C 0.7854 0.72944 0.94378 0.0
C2948 C 0.78799 0.71294 0.94803 0.0
C2949 C 0.78743 0.70871 0.9658 0.0
C2950 C 0.78429 0.7333 0.92455 0.0
C2951 C 0.79784 0.73105 0.91392 0.0
C2952 C 0.77017 0.73975 0.91683 0.0
C2953 C 0.75429 0.74064 0.9263 0.0
C2954 C 0.7434 0.725 0.93245 0.0
C2955 C 0.72858 0.72596 0.94154 0.0
C2956 C 0.72443 0.74247 0.94444 0.0
C2957 C 0.73506 0.75804 0.93821 0.0
C2958 C 0.74991 0.75716 0.92914 0.0
C2959 C 0.78303 0.74514 0.83804 0.0
C2960 C 0.78341 0.76345 0.83732 0.0
C2961 C 0.78368 0.73853 0.85481 0.0
C2962 C 0.78472 0.7501 0.87113 0.0
C2963 C 0.78529 0.76836 0.87039 0.0
C2964 C 0.78471 0.77496 0.85377 0.0
C2965 C 0.78463 0.74337 0.88909 0.0
C2966 C 0.77074 0.74497 0.89943 0.0
C2967 C 0.79816 0.73595 0.8963 0.0
C2968 C 0.81307 0.73367 0.88601 0.0
C2969 C 0.82508 0.74879 0.88006 0.0
C2970 C 0.8389 0.74641 0.87009 0.0
C2971 C 0.84094 0.72899 0.86612 0.0
C2972 C 0.82921 0.71393 0.87216 0.0
C2973 C 0.81535 0.71624 0.88211 0.0
H2974 H 0.85164 0.72717 0.85839 0.0
H2975 H 0.71296 0.74319 0.95148 0.0
H2976 H 0.82943 0.10101 0.05727 0.0
H2977 H 0.8486 0.08881 0.03856 0.0
H2978 H 0.83642 0.11849 0.99582 0.0
H2979 H 0.81756 0.13137 0.01487 0.0
H2980 H 0.83721 0.06731 0.00439 0.0
H2981 H 0.86515 0.12945 0.98005 0.0
H2982 H 0.87626 0.16331 0.98696 0.0
H2983 H 0.90562 0.16 0.03775 0.0
H2984 H 0.89447 0.12613 0.03116 0.0
H2985 H 0.90354 0.03153 0.9685 0.0
H2986 H 0.88192 0.04959 0.96683 0.0
H2987 H 0.91223 0.08535 0.01561 0.0
H2988 H 0.9337 0.06751 0.01718 0.0
H2989 H 0.8985 0.10446 0.99306 0.0
H2990 H 0.87783 0.04776 0.01864 0.0
H2991 H 0.86918 0.01422 0.01803 0.0
H2992 H 0.8276 0.00662 0.97259 0.0
H2993 H 0.83621 0.04017 0.9728 0.0
C2994 C 0.83086 0.10503 0.04393 0.0
C2995 C 0.82199 0.11712 0.03751 0.0
C2996 C 0.84182 0.09805 0.03325 0.0
C2997 C 0.84401 0.10283 0.01586 0.0
C2998 C 0.83518 0.11491 0.00933 0.0
C2999 C 0.82435 0.12214 0.02017 0.0
C3000 C 0.85534 0.09461 0.00484 0.0
C3001 C 0.85036 0.07541 0.00128 0.0
C3002 C 0.87255 0.10518 1.00106 0.0
C3003 C 0.87883 0.12539 0.00523 0.0
C3004 C 0.87386 0.136 0.99274 0.0
C3005 C 0.88016 0.15516 0.99659 0.0
C3006 C 0.89159 0.1638 0.01281 0.0
C3007 C 0.89671 0.1533 0.02523 0.0
C3008 C 0.89037 0.13413 0.02147 0.0
C3009 C 0.90577 0.04356 0.97852 0.0
C3010 C 0.92 0.04807 0.99312 0.0
C3011 C 0.89347 0.05383 0.97757 0.0
C3012 C 0.8954 0.0687 0.9912 0.0
C3013 C 0.91051 0.07399 0.00493 0.0
C3014 C 0.92266 0.06371 0.00593 0.0
C3015 C 0.88054 0.07711 0.99306 0.0
C3016 C 0.88491 0.09631 0.99505 0.0
C3017 C 0.86288 0.06652 0.99585 0.0
C3018 C 0.85785 0.04639 0.99553 0.0
C3019 C 0.86697 0.03891 0.00841 0.0
C3020 C 0.86205 0.01992 0.00816 0.0
C3021 C 0.84789 0.00829 0.99523 0.0
C3022 C 0.8386 0.01564 0.98255 0.0
C3023 C 0.84351 0.03464 0.98271 0.0
H3024 H 0.84408 0.99358 0.99508 0.0
H3025 H 0.89653 0.17864 0.01574 0.0
H3026 H 0.34316 0.39211 0.03989 0.0
H3027 H 0.37363 0.41381 0.04111 0.0
H3028 H 0.35353 0.45824 0.06064 0.0
H3029 H 0.3228 0.43659 0.05921 0.0
H3030 H 0.37515 0.46756 0.0349 0.0
H3031 H 0.37932 0.44172 0.0896 0.0
H3032 H 0.37643 0.41726 0.10878 0.0
H3033 H 0.41433 0.39725 0.08041 0.0
H3034 H 0.4172 0.4214 0.06084 0.0
H3035 H 0.46771 0.52855 0.05552 0.0
H3036 H 0.4364 0.51093 0.05915 0.0
H3037 H 0.4465 0.4609 0.03766 0.0
H3038 H 0.4776 0.47821 0.03412 0.0
H3039 H 0.42957 0.4572 0.06794 0.0
H3040 H 0.42262 0.48098 0.01129 0.0
H3041 H 0.42566 0.50549 0.99215 0.0
H3042 H 0.39323 0.52958 0.02473 0.0
H3043 H 0.39021 0.50532 0.04423 0.0
C3044 C 0.34517 0.40643 0.04443 0.0
C3045 C 0.33054 0.41254 0.04951 0.0
C3046 C 0.36263 0.41888 0.04523 0.0
C3047 C 0.36592 0.43763 0.05125 0.0
C3048 C 0.35131 0.44383 0.05604 0.0
C3049 C 0.3338 0.43139 0.05521 0.0
C3050 C 0.38458 0.45071 0.05231 0.0
C3051 C 0.38702 0.46549 0.04241 0.0
C3052 C 0.40009 0.4479 0.06193 0.0
C3053 C 0.39835 0.4333 0.07365 0.0
C3054 C 0.38691 0.43201 0.08734 0.0
C3055 C 0.3853 0.41821 0.0983 0.0
C3056 C 0.39515 0.40568 0.09578 0.0
C3057 C 0.40668 0.40695 0.08232 0.0
C3058 C 0.40831 0.4207 0.0713 0.0
C3059 C 0.46326 0.5138 0.05162 0.0
C3060 C 0.47513 0.50481 0.04444 0.0
C3061 C 0.44537 0.50376 0.05364 0.0
C3062 C 0.43912 0.48462 0.04857 0.0
C3063 C 0.45105 0.47565 0.04168 0.0
C3064 C 0.46882 0.48562 0.03957 0.0
C3065 C 0.42014 0.47372 0.05019 0.0
C3066 C 0.41766 0.45938 0.06063 0.0
C3067 C 0.40462 0.47695 0.04109 0.0
C3068 C 0.40638 0.49148 0.02934 0.0
C3069 C 0.41627 0.4916 0.01447 0.0
C3070 C 0.41796 0.50542 0.00353 0.0
C3071 C 0.40969 0.51912 0.00726 0.0
C3072 C 0.39966 0.51898 0.02189 0.0
C3073 C 0.39794 0.5052 0.03288 0.0
H3074 H 0.41101 0.52981 0.99878 0.0
H3075 H 0.3939 0.39503 0.10429 0.0
H3076 H 0.37282 0.56572 0.75133 0.0
H3077 H 0.35759 0.58933 0.75472 0.0
H3078 H 0.39958 0.62024 0.79876 0.0
H3079 H 0.41471 0.59625 0.79575 0.0
H3080 H 0.3669 0.62054 0.80688 0.0
H3081 H 0.3983 0.63275 0.75524 0.0
H3082 H 0.40747 0.62533 0.72531 0.0
H3083 H 0.3513 0.60966 0.70061 0.0
H3084 H 0.34175 0.61676 0.73044 0.0
H3085 H 0.33603 0.69948 0.80733 0.0
H3086 H 0.35494 0.67886 0.80521 0.0
H3087 H 0.31631 0.64408 0.76039 0.0
H3088 H 0.29761 0.66485 0.76221 0.0
H3089 H 0.34977 0.64776 0.75334 0.0
H3090 H 0.31819 0.6335 0.80512 0.0
H3091 H 0.3088 0.6407 0.83501 0.0
H3092 H 0.36523 0.66015 0.85929 0.0
H3093 H 0.37496 0.65327 0.82948 0.0
C3094 C 0.37887 0.57754 0.76175 0.0
C3095 C 0.39507 0.57914 0.7732 0.0
C3096 C 0.37017 0.59111 0.76361 0.0
C3097 C 0.3776 0.60681 0.77675 0.0
C3098 C 0.39362 0.60832 0.78844 0.0
C3099 C 0.40228 0.59462 0.78669 0.0
C3100 C 0.36844 0.62143 0.77835 0.0
C3101 C 0.36344 0.62672 0.79523 0.0
C3102 C 0.36358 0.6293 0.76311 0.0
C3103 C 0.3693 0.62517 0.74511 0.0
C3104 C 0.38789 0.62762 0.74345 0.0
C3105 C 0.39316 0.62348 0.72649 0.0
C3106 C 0.37998 0.61699 0.71107 0.0
C3107 C 0.3615 0.61468 0.71257 0.0
C3108 C 0.35615 0.61878 0.72949 0.0
C3109 C 0.33153 0.68739 0.79708 0.0
C3110 C 0.31528 0.68379 0.78497 0.0
C3111 C 0.34235 0.67559 0.79589 0.0
C3112 C 0.33695 0.65971 0.7828 0.0
C3113 C 0.32082 0.65622 0.77059 0.0
C3114 C 0.31013 0.66813 0.77163 0.0
C3115 C 0.34797 0.64665 0.78179 0.0
C3116 C 0.35334 0.64168 0.76501 0.0
C3117 C 0.35315 0.63906 0.79711 0.0
C3118 C 0.3473 0.64304 0.81505 0.0
C3119 C 0.32859 0.63942 0.81681 0.0
C3120 C 0.32321 0.64343 0.83374 0.0
C3121 C 0.33641 0.65093 0.84903 0.0
C3122 C 0.35502 0.65437 0.84743 0.0
C3123 C 0.36048 0.65041 0.83053 0.0
H3124 H 0.33222 0.65403 0.86212 0.0
H3125 H 0.38408 0.61379 0.69796 0.0
H3126 H 0.24082 0.60012 0.5713 0.0
H3127 H 0.20793 0.58365 0.56833 0.0
H3128 H 0.19903 0.60467 0.51824 0.0
H3129 H 0.23161 0.62116 0.52113 0.0
H3130 H 0.17818 0.61299 0.54272 0.0
H3131 H 0.19277 0.55987 0.51763 0.0
H3132 H 0.20881 0.5364 0.51638 0.0
H3133 H 0.18831 0.51905 0.56495 0.0
H3134 H 0.17234 0.54261 0.56665 0.0
H3135 H 0.08338 0.56604 0.51775 0.0
H3136 H 0.11657 0.57537 0.51728 0.0
H3137 H 0.1246 0.55896 0.57 0.0
H3138 H 0.0915 0.54972 0.5707 0.0
H3139 H 0.14564 0.54736 0.54403 0.0
H3140 H 0.13228 0.60156 0.56953 0.0
H3141 H 0.11603 0.62485 0.57039 0.0
H3142 H 0.13449 0.64004 0.52032 0.0
H3143 H 0.15064 0.61662 0.51903 0.0
C3144 C 0.23189 0.60087 0.55946 0.0
C3145 C 0.23872 0.61215 0.5466 0.0
C3146 C 0.21314 0.59144 0.55776 0.0
C3147 C 0.20109 0.59309 0.54313 0.0
C3148 C 0.20811 0.60336 0.5297 0.0
C3149 C 0.22673 0.61279 0.5314 0.0
C3150 C 0.18102 0.58593 0.54277 0.0
C3151 C 0.17105 0.59858 0.54271 0.0
C3152 C 0.17184 0.56724 0.54327 0.0
C3153 C 0.18153 0.55315 0.54238 0.0
C3154 C 0.19184 0.55118 0.52816 0.0
C3155 C 0.20088 0.53783 0.52734 0.0
C3156 C 0.19963 0.52628 0.54061 0.0
C3157 C 0.18929 0.52803 0.5547 0.0
C3158 C 0.18023 0.54137 0.55559 0.0
C3159 C 0.09221 0.56441 0.52924 0.0
C3160 C 0.08486 0.55731 0.54433 0.0
C3161 C 0.11112 0.5697 0.52893 0.0
C3162 C 0.12292 0.56784 0.54362 0.0
C3163 C 0.11564 0.56042 0.55853 0.0
C3164 C 0.09676 0.55532 0.55895 0.0
C3165 C 0.14295 0.57441 0.54378 0.0
C3166 C 0.15286 0.56172 0.54393 0.0
C3167 C 0.15215 0.59308 0.54333 0.0
C3168 C 0.14249 0.60719 0.54408 0.0
C3169 C 0.13273 0.60974 0.55862 0.0
C3170 C 0.12357 0.62299 0.5592 0.0
C3171 C 0.12418 0.63388 0.54539 0.0
C3172 C 0.134 0.63157 0.53099 0.0
C3173 C 0.14317 0.61832 0.53034 0.0
H3174 H 0.11708 0.64414 0.54586 0.0
H3175 H 0.20662 0.51594 0.53995 0.0
H3176 H 0.67928 0.97709 0.78239 0.0
H3177 H 0.69595 0.95831 0.79634 0.0
H3178 H 0.74727 0.99625 0.78813 0.0
H3179 H 0.73058 0.01445 0.77329 0.0
H3180 H 0.74689 0.96349 0.77718 0.0
H3181 H 0.73134 0.99221 0.83171 0.0
H3182 H 0.71022 1.00096 0.85116 0.0
H3183 H 0.68081 0.94412 0.85042 0.0
H3184 H 0.70162 0.93503 0.83078 0.0
H3185 H 0.80253 0.92005 0.82168 0.0
H3186 H 0.78828 0.94433 0.81846 0.0
H3187 H 0.73502 0.90571 0.81921 0.0
H3188 H 0.74922 0.88155 0.82288 0.0
H3189 H 0.73763 0.94021 0.8359 0.0
H3190 H 0.74978 0.91143 0.77982 0.0
H3191 H 0.769 0.90112 0.75904 0.0
H3192 H 0.80285 0.95683 0.76151 0.0
H3193 H 0.78397 0.96743 0.78256 0.0
C3194 C 0.69413 0.98145 0.78371 0.0
C3195 C 0.70369 0.9971 0.77672 0.0
C3196 C 0.70365 0.97081 0.79181 0.0
C3197 C 0.72289 0.97603 0.79354 0.0
C3198 C 0.73243 0.99197 0.78695 0.0
C3199 C 0.7229 1.00233 0.77847 0.0
C3200 C 0.73308 0.96421 0.80091 0.0
C3201 C 0.74516 0.95878 0.79024 0.0
C3202 C 0.73032 0.95749 0.81762 0.0
C3203 C 0.71798 0.96296 0.82968 0.0
C3204 C 0.72032 0.98158 0.83562 0.0
C3205 C 0.7084 0.9866 0.84669 0.0
C3206 C 0.69416 0.9731 0.852 0.0
C3207 C 0.69184 0.95456 0.8463 0.0
C3208 C 0.70371 0.94947 0.83522 0.0
C3209 C 0.78787 0.91692 0.82174 0.0
C3210 C 0.77691 0.89892 0.82222 0.0
C3211 C 0.77975 0.93073 0.81981 0.0
C3212 C 0.7606 0.92666 0.81828 0.0
C3213 C 0.74981 0.90907 0.8203 0.0
C3214 C 0.75791 0.89528 0.82222 0.0
C3215 C 0.75159 0.93991 0.81232 0.0
C3216 C 0.73961 0.94536 0.82308 0.0
C3217 C 0.75425 0.94655 0.79559 0.0
C3218 C 0.76561 0.94019 0.78294 0.0
C3219 C 0.76142 0.92146 0.77606 0.0
C3220 C 0.77223 0.91557 0.76422 0.0
C3221 C 0.78717 0.92831 0.759 0.0
C3222 C 0.7913 0.94697 0.7656 0.0
C3223 C 0.78055 0.95293 0.77749 0.0
H3224 H 0.79552 0.92372 0.74982 0.0
H3225 H 0.68494 0.97702 0.86055 0.0
H3226 H 0.71852 0.89594 0.53525 0.0
H3227 H 0.69461 0.911 0.53195 0.0
H3228 H 0.72786 0.95694 0.57132 0.0
H3229 H 0.75137 0.94166 0.57517 0.0
H3230 H 0.69429 0.9496 0.57763 0.0
H3231 H 0.72333 0.95723 0.52329 0.0
H3232 H 0.73397 0.9467 0.49515 0.0
H3233 H 0.67873 0.91456 0.4734 0.0
H3234 H 0.6678 0.92474 0.50152 0.0
H3235 H 0.65471 0.01886 0.55602 0.0
H3236 H 0.67476 0.9998 0.56077 0.0
H3237 H 0.63559 0.95443 0.52507 0.0
H3238 H 0.6156 0.97352 0.52002 0.0
H3239 H 0.67001 0.95942 0.5169 0.0
H3240 H 0.64076 0.95404 0.57053 0.0
H3241 H 0.63032 0.9647 0.59874 0.0
H3242 H 0.68611 0.99312 0.6219 0.0
H3243 H 0.69689 0.98283 0.59375 0.0
C3244 C 0.72071 0.90926 0.54318 0.0
C3245 C 0.73688 0.91763 0.55541 0.0
C3246 C 0.70706 0.9179 0.54124 0.0
C3247 C 0.70948 0.93528 0.55119 0.0
C3248 C 0.72559 0.94355 0.5635 0.0
C3249 C 0.73908 0.93481 0.56563 0.0
C3250 C 0.6954 0.94501 0.54883 0.0
C3251 C 0.68915 0.95192 0.56435 0.0
C3252 C 0.68823 0.94764 0.53149 0.0
C3253 C 0.69478 0.94159 0.51457 0.0
C3254 C 0.71347 0.94782 0.51255 0.0
C3255 C 0.71955 0.94193 0.4966 0.0
C3256 C 0.70704 0.92993 0.48252 0.0
C3257 C 0.68841 0.92383 0.48433 0.0
C3258 C 0.68227 0.92967 0.50026 0.0
C3259 C 0.65038 0.00484 0.54914 0.0
C3260 C 0.63357 0.99774 0.53759 0.0
C3261 C 0.66178 0.99389 0.55202 0.0
C3262 C 0.65662 0.97561 0.54341 0.0
C3263 C 0.63983 0.96846 0.53192 0.0
C3264 C 0.62837 0.97937 0.52912 0.0
C3265 C 0.66915 0.96425 0.54571 0.0
C3266 C 0.67509 0.95703 0.53017 0.0
C3267 C 0.67608 0.96142 0.56304 0.0
C3268 C 0.66962 0.9678 0.57993 0.0
C3269 C 0.6508 0.96271 0.58156 0.0
C3270 C 0.64482 0.96865 0.59757 0.0
C3271 C 0.65754 0.97961 0.61208 0.0
C3272 C 0.67627 0.98464 0.61064 0.0
C3273 C 0.68232 0.97874 0.59467 0.0
H3274 H 0.65289 0.98418 0.62446 0.0
H3275 H 0.71177 0.92538 0.47018 0.0
H3276 H 0.41717 0.47022 0.77594 0.0
H3277 H 0.39576 0.43967 0.77518 0.0
H3278 H 0.35031 0.46178 0.77078 0.0
H3279 H 0.3717 0.49256 0.77148 0.0
H3280 H 0.34786 0.43721 0.79621 0.0
H3281 H 0.3574 0.43906 0.73418 0.0
H3282 H 0.37543 0.44451 0.70872 0.0
H3283 H 0.40077 0.40385 0.72184 0.0
H3284 H 0.3831 0.39835 0.74758 0.0
H3285 H 0.28269 0.34674 0.77353 0.0
H3286 H 0.29982 0.37863 0.77148 0.0
H3287 H 0.35055 0.36521 0.77725 0.0
H3288 H 0.33366 0.33352 0.77949 0.0
H3289 H 0.34753 0.38609 0.74919 0.0
H3290 H 0.34038 0.38626 0.81251 0.0
H3291 H 0.32294 0.38077 0.83839 0.0
H3292 H 0.29343 0.41751 0.82297 0.0
H3293 H 0.31054 0.423 0.79682 0.0
C3294 C 0.40263 0.46866 0.77483 0.0
C3295 C 0.39616 0.48386 0.7737 0.0
C3296 C 0.3904 0.45115 0.77433 0.0
C3297 C 0.37145 0.44845 0.77275 0.0
C3298 C 0.3649 0.46359 0.77195 0.0
C3299 C 0.37714 0.48114 0.77229 0.0
C3300 C 0.35859 0.42973 0.77192 0.0
C3301 C 0.3475 0.42609 0.78573 0.0
C3302 C 0.3584 0.41519 0.75842 0.0
C3303 C 0.36903 0.41841 0.74291 0.0
C3304 C 0.36693 0.43139 0.73174 0.0
C3305 C 0.37706 0.43447 0.71723 0.0
C3306 C 0.38927 0.42456 0.71369 0.0
C3307 C 0.39132 0.41153 0.72462 0.0
C3308 C 0.38124 0.40841 0.73915 0.0
C3309 C 0.29748 0.35059 0.77428 0.0
C3310 C 0.30684 0.33766 0.77676 0.0
C3311 C 0.30723 0.3688 0.77317 0.0
C3312 C 0.32643 0.37425 0.77429 0.0
C3313 C 0.33573 0.36126 0.77635 0.0
C3314 C 0.32606 0.34318 0.77772 0.0
C3315 C 0.33701 0.39354 0.7736 0.0
C3316 C 0.3477 0.39726 0.75951 0.0
C3317 C 0.33685 0.40812 0.78686 0.0
C3318 C 0.32656 0.40486 0.80257 0.0
C3319 C 0.33004 0.39303 0.81453 0.0
C3320 C 0.32025 0.38994 0.82927 0.0
C3321 C 0.30704 0.39874 0.83228 0.0
C3322 C 0.30364 0.41067 0.82059 0.0
C3323 C 0.31338 0.41378 0.80581 0.0
H3324 H 0.29947 0.39634 0.84371 0.0
H3325 H 0.3971 0.42697 0.70245 0.0
H3326 H 0.19943 0.57952 0.29132 0.0
H3327 H 0.21428 0.61276 0.296 0.0
H3328 H 0.16806 0.61981 0.26345 0.0
H3329 H 0.15281 0.58662 0.25913 0.0
H3330 H 0.21496 0.63199 0.25757 0.0
H3331 H 0.16398 0.63784 0.29221 0.0
H3332 H 0.14584 0.63057 0.31734 0.0
H3333 H 0.19517 0.64945 0.3557 0.0
H3334 H 0.21361 0.65646 0.3307 0.0
H3335 H 0.23726 0.7257 0.25101 0.0
H3336 H 0.22185 0.69339 0.25207 0.0
H3337 H 0.24371 0.70068 0.30883 0.0
H3338 H 0.25848 0.73327 0.30803 0.0
H3339 H 0.21029 0.68064 0.30471 0.0
H3340 H 0.26123 0.67867 0.27456 0.0
H3341 H 0.2829 0.68527 0.25218 0.0
H3342 H 0.23924 0.65824 0.20871 0.0
H3343 H 0.21724 0.6517 0.23083 0.0
C3344 C 0.19229 0.58819 0.28544 0.0
C3345 C 0.17501 0.58053 0.27482 0.0
C3346 C 0.20073 0.60712 0.2882 0.0
C3347 C 0.19209 0.61859 0.28026 0.0
C3348 C 0.17471 0.61109 0.26996 0.0
C3349 C 0.16608 0.59218 0.26747 0.0
C3350 C 0.2022 0.63807 0.28085 0.0
C3351 C 0.21381 0.64274 0.26768 0.0
C3352 C 0.20128 0.65175 0.29464 0.0
C3353 C 0.19018 0.64731 0.30956 0.0
C3354 C 0.17098 0.64012 0.30595 0.0
C3355 C 0.16063 0.63613 0.32019 0.0
C3356 C 0.16935 0.63944 0.3381 0.0
C3357 C 0.18843 0.64681 0.34181 0.0
C3358 C 0.19883 0.65077 0.32762 0.0
C3359 C 0.23885 0.72038 0.26368 0.0
C3360 C 0.24912 0.73193 0.27941 0.0
C3361 C 0.23011 0.70191 0.26426 0.0
C3362 C 0.2319 0.69453 0.28045 0.0
C3363 C 0.24216 0.70607 0.29619 0.0
C3364 C 0.25063 0.72465 0.2957 0.0
C3365 C 0.22273 0.67486 0.28096 0.0
C3366 C 0.21147 0.67004 0.29446 0.0
C3367 C 0.22438 0.66093 0.26774 0.0
C3368 C 0.23755 0.66484 0.25436 0.0
C3369 C 0.25622 0.67426 0.26022 0.0
C3370 C 0.26857 0.67797 0.24758 0.0
C3371 C 0.26244 0.67222 0.22903 0.0
C3372 C 0.24396 0.66271 0.22308 0.0
C3373 C 0.23155 0.65898 0.23567 0.0
H3374 H 0.27202 0.6751 0.21926 0.0
H3375 H 0.16132 0.63638 0.3491 0.0
H3376 H 0.54292 0.73383 0.49812 0.0
H3377 H 0.54422 0.70483 0.50771 0.0
H3378 H 0.48886 0.67825 0.48142 0.0
H3379 H 0.48745 0.70737 0.47189 0.0
H3380 H 0.49318 0.66548 0.51263 0.0
H3381 H 0.52689 0.67247 0.46243 0.0
H3382 H 0.55025 0.68781 0.44422 0.0
H3383 H 0.59299 0.69052 0.48693 0.0
H3384 H 0.56986 0.67541 0.50551 0.0
H3385 H 0.49862 0.57309 0.51191 0.0
H3386 H 0.49545 0.602 0.50338 0.0
H3387 H 0.54905 0.63117 0.53259 0.0
H3388 H 0.55223 0.6024 0.54131 0.0
H3389 H 0.54498 0.64219 0.49942 0.0
H3390 H 0.50972 0.63348 0.54906 0.0
H3391 H 0.48539 0.61744 0.56591 0.0
H3392 H 0.44437 0.61711 0.52248 0.0
H3393 H 0.4684 0.63268 0.50517 0.0
C3394 C 0.53092 0.72189 0.49444 0.0
C3395 C 0.51507 0.72316 0.48415 0.0
C3396 C 0.53173 0.70515 0.49986 0.0
C3397 C 0.51675 0.68897 0.49514 0.0
C3398 C 0.5007 0.69032 0.48529 0.0
C3399 C 0.49991 0.70709 0.4798 0.0
C3400 C 0.51796 0.67077 0.50027 0.0
C3401 C 0.50441 0.66032 0.50949 0.0
C3402 C 0.53267 0.66384 0.49652 0.0
C3403 C 0.54663 0.67299 0.48545 0.0
C3404 C 0.54127 0.67648 0.46801 0.0
C3405 C 0.55446 0.6851 0.45761 0.0
C3406 C 0.57309 0.69018 0.46444 0.0
C3407 C 0.57855 0.6866 0.48167 0.0
C3408 C 0.56541 0.678 0.49214 0.0
C3409 C 0.50974 0.58565 0.51663 0.0
C3410 C 0.52569 0.5852 0.52742 0.0
C3411 C 0.50787 0.60229 0.51175 0.0
C3412 C 0.52195 0.61905 0.51735 0.0
C3413 C 0.53791 0.6186 0.52802 0.0
C3414 C 0.53969 0.60203 0.53309 0.0
C3415 C 0.52027 0.63696 0.51189 0.0
C3416 C 0.53375 0.64735 0.50257 0.0
C3417 C 0.50537 0.64369 0.51537 0.0
C3418 C 0.4909 0.63405 0.52569 0.0
C3419 C 0.49551 0.62976 0.54299 0.0
C3420 C 0.48176 0.62076 0.55264 0.0
C3421 C 0.46332 0.61615 0.54524 0.0
C3422 C 0.45862 0.62056 0.52818 0.0
C3423 C 0.47231 0.62947 0.51843 0.0
H3424 H 0.45267 0.60922 0.55274 0.0
H3425 H 0.58328 0.69685 0.45636 0.0
H3426 H 0.60326 0.3029 0.68468 0.0
H3427 H 0.63121 0.30247 0.7029 0.0
H3428 H 0.66106 0.31345 0.65743 0.0
H3429 H 0.63298 0.31387 0.63898 0.0
H3430 H 0.66917 0.28615 0.6733 0.0
H3431 H 0.66857 0.34659 0.69376 0.0
H3432 H 0.65577 0.37086 0.70532 0.0
H3433 H 0.64626 0.34662 0.75387 0.0
H3434 H 0.65877 0.32204 0.74248 0.0
H3435 H 0.75523 0.29929 0.72816 0.0
H3436 H 0.73034 0.30378 0.70807 0.0
H3437 H 0.69551 0.29487 0.75014 0.0
H3438 H 0.72042 0.29066 0.77041 0.0
H3439 H 0.69173 0.32304 0.73444 0.0
H3440 H 0.69127 0.26132 0.7121 0.0
H3441 H 0.70578 0.23847 0.70049 0.0
H3442 H 0.71919 0.26693 0.65505 0.0
H3443 H 0.70475 0.28993 0.6664 0.0
C3444 C 0.61578 0.30547 0.67854 0.0
C3445 C 0.61575 0.30852 0.6603 0.0
C3446 C 0.63184 0.30522 0.68904 0.0
C3447 C 0.64841 0.308 0.68166 0.0
C3448 C 0.64852 0.31125 0.66351 0.0
C3449 C 0.63244 0.31164 0.653 0.0
C3450 C 0.66535 0.30705 0.69286 0.0
C3451 C 0.67423 0.29442 0.68655 0.0
C3452 C 0.67204 0.31767 0.71028 0.0
C3453 C 0.66444 0.33237 0.71718 0.0
C3454 C 0.6636 0.34634 0.70683 0.0
C3455 C 0.65643 0.36018 0.71337 0.0
C3456 C 0.65016 0.36026 0.7303 0.0
C3457 C 0.65109 0.34653 0.74075 0.0
C3458 C 0.65824 0.33265 0.73427 0.0
C3459 C 0.74228 0.29826 0.73319 0.0
C3460 C 0.73992 0.29453 0.75099 0.0
C3461 C 0.72797 0.30078 0.72159 0.0
C3462 C 0.71083 0.29949 0.72741 0.0
C3463 C 0.70852 0.29595 0.74523 0.0
C3464 C 0.72283 0.29347 0.75684 0.0
C3465 C 0.69528 0.30185 0.71508 0.0
C3466 C 0.68667 0.31477 0.72118 0.0
C3467 C 0.689 0.29165 0.69741 0.0
C3468 C 0.69711 0.27747 0.69021 0.0
C3469 C 0.69735 0.26273 0.69966 0.0
C3470 C 0.70554 0.24973 0.69311 0.0
C3471 C 0.71345 0.25127 0.67707 0.0
C3472 C 0.71307 0.26575 0.66748 0.0
C3473 C 0.70485 0.27875 0.67394 0.0
H3474 H 0.71984 0.24123 0.67205 0.0
H3475 H 0.64462 0.37099 0.73534 0.0
H3476 H 0.99142 0.32002 0.00567 0.0
H3477 H 0.99575 0.35263 0.01526 0.0
H3478 H 0.02595 0.36612 0.97042 0.0
H3479 H 0.02232 0.33359 0.96131 0.0
H3480 H 0.04153 0.39098 0.99688 0.0
H3481 H 0.97813 0.36509 0.97204 0.0
H3482 H 0.94672 0.34374 0.96885 0.0
H3483 H 0.94265 0.36225 0.02424 0.0
H3484 H 0.97413 0.38356 0.02782 0.0
H3485 H 0.03902 0.48322 0.00209 0.0
H3486 H 0.03491 0.4507 0.99249 0.0
H3487 H 1.00334 0.43681 0.03636 0.0
H3488 H 0.0063 0.46929 0.04506 0.0
H3489 H 0.98844 0.41198 0.01025 0.0
H3490 H 0.05336 0.43852 0.03397 0.0
H3491 H 0.08422 0.46024 0.03494 0.0
H3492 H 0.08484 0.44048 0.97896 0.0
H3493 H 0.05385 0.41878 0.97762 0.0
C3494 C 0.99916 0.32993 0.99794 0.0
C3495 C 0.00652 0.32402 0.98268 0.0
C3496 C 1.00147 0.34869 0.00334 0.0
C3497 C 0.01082 0.36215 0.99339 0.0
C3498 C 0.0186 0.35625 0.97842 0.0
C3499 C 0.01654 0.33752 0.97319 0.0
C3500 C 0.01257 0.38225 0.9985 0.0
C3501 C 0.02981 0.3955 0.9996 0.0
C3502 C 0.99749 0.38852 0.00239 0.0
C3503 C 0.97855 0.37578 1.00025 0.0
C3504 C 0.97058 0.36452 0.98357 0.0
C3505 C 0.95276 0.35244 0.98169 0.0
C3506 C 0.94272 0.3516 0.99635 0.0
C3507 C 0.95046 0.36289 0.01291 0.0
C3508 C 0.96828 0.37498 0.01487 0.0
C3509 C 0.03119 0.47324 0.0097 0.0
C3510 C 0.02307 0.479 0.02443 0.0
C3511 C 0.02897 0.4545 0.0043 0.0
C3512 C 0.01925 0.44091 0.01394 0.0
C3513 C 0.01099 0.44673 0.02859 0.0
C3514 C 0.01273 0.46542 0.03363 0.0
C3515 C 0.01746 0.42075 0.00877 0.0
C3516 C 1.00018 0.40747 0.00764 0.0
C3517 C 0.03247 0.41444 0.00464 0.0
C3518 C 0.05126 0.42716 0.00567 0.0
C3519 C 0.06007 0.43885 0.02187 0.0
C3520 C 0.07759 0.45118 0.02247 0.0
C3521 C 0.08648 0.4518 0.00698 0.0
C3522 C 0.07792 0.44001 0.99092 0.0
C3523 C 0.0604 0.42769 0.99025 0.0
H3524 H 0.09998 0.46139 0.00734 0.0
H3525 H 0.92893 0.34224 0.99486 0.0
H3526 H 0.01061 0.77493 0.18216 0.0
H3527 H 0.98459 0.77378 0.19867 0.0
H3528 H 0.96486 0.80498 0.16147 0.0
H3529 H 0.99141 0.80672 0.14517 0.0
H3530 H 0.95985 0.81634 0.19433 0.0
H3531 H 0.94515 0.7573 0.15902 0.0
H3532 H 0.94986 0.72821 0.14661 0.0
H3533 H 0.95522 0.71401 0.20037 0.0
H3534 H 0.95079 0.74315 0.21314 0.0
H3535 H 0.87103 0.79253 0.22475 0.0
H3536 H 0.89583 0.79558 0.20603 0.0
H3537 H 0.92395 0.77117 0.24386 0.0
H3538 H 0.89952 0.76848 0.26289 0.0
H3539 H 0.92286 0.75628 0.2084 0.0
H3540 H 0.93831 0.81703 0.24312 0.0
H3541 H 0.93186 0.84564 0.25415 0.0
H3542 H 0.92284 0.85583 0.19921 0.0
H3543 H 0.92901 0.82714 0.18784 0.0
C3544 C 1.00077 0.78159 0.17746 0.0
C3545 C 1.00306 0.79081 0.16223 0.0
C3546 C 0.98578 0.78083 0.18689 0.0
C3547 C 0.97242 0.78891 0.18114 0.0
C3548 C 0.97487 0.79852 0.16616 0.0
C3549 C 0.99005 0.79948 0.15682 0.0
C3550 C 0.95597 0.78722 0.1908 0.0
C3551 C 0.95161 0.80315 0.19713 0.0
C3552 C 0.94516 0.77007 0.19467 0.0
C3553 C 0.94779 0.75249 0.18705 0.0
C3554 C 0.94746 0.74804 0.16821 0.0
C3555 C 0.95006 0.73153 0.16111 0.0
C3556 C 0.95288 0.71928 0.1727 0.0
C3557 C 0.95305 0.72351 0.19141 0.0
C3558 C 0.95048 0.74001 0.19859 0.0
C3559 C 0.88258 0.78801 0.22926 0.0
C3560 C 0.88315 0.78023 0.24543 0.0
C3561 C 0.89675 0.78971 0.21846 0.0
C3562 C 0.91185 0.78369 0.22355 0.0
C3563 C 0.91242 0.77584 0.23958 0.0
C3564 C 0.89834 0.77423 0.25042 0.0
C3565 C 0.92702 0.78539 0.21219 0.0
C3566 C 0.93108 0.76944 0.2055 0.0
C3567 C 0.93734 0.80246 0.20778 0.0
C3568 C 0.93395 0.81985 0.21463 0.0
C3569 C 0.93484 0.82532 0.23339 0.0
C3570 C 0.93125 0.84155 0.2397 0.0
C3571 C 0.92689 0.85252 0.22739 0.0
C3572 C 0.92619 0.84731 0.20873 0.0
C3573 C 0.92976 0.83107 0.20235 0.0
H3574 H 0.92408 0.86507 0.2323 0.0
H3575 H 0.95489 0.70651 0.16717 0.0
H3576 H 0.53148 0.28938 0.13025 0.0
H3577 H 0.5325 0.31563 0.11451 0.0
H3578 H 0.50586 0.33743 0.15583 0.0
H3579 H 0.50411 0.31061 0.1713 0.0
H3580 H 0.49293 0.34364 0.12473 0.0
H3581 H 0.55375 0.35452 0.15395 0.0
H3582 H 0.58255 0.34769 0.16267 0.0
H3583 H 0.59116 0.34145 0.10669 0.0
H3584 H 0.56228 0.348 0.09761 0.0
H3585 H 0.5194 0.43325 0.09651 0.0
H3586 H 0.51581 0.40769 0.11402 0.0
H3587 H 0.53464 0.37775 0.07175 0.0
H3588 H 0.53786 0.40294 0.05399 0.0
H3589 H 0.55182 0.37744 0.10551 0.0
H3590 H 0.48948 0.36634 0.07713 0.0
H3591 H 0.46128 0.37477 0.06995 0.0
H3592 H 0.45662 0.38369 0.12682 0.0
H3593 H 0.48494 0.37555 0.13435 0.0
C3594 C 0.52577 0.29971 0.13599 0.0
C3595 C 0.51783 0.29793 0.15213 0.0
C3596 C 0.52647 0.31485 0.12701 0.0
C3597 C 0.51969 0.3289 0.13415 0.0
C3598 C 0.51131 0.32691 0.15004 0.0
C3599 C 0.51033 0.31156 0.15891 0.0
C3600 C 0.52149 0.34558 0.12502 0.0
C3601 C 0.5059 0.35117 0.1208 0.0
C3602 C 0.53834 0.35549 0.11968 0.0
C3603 C 0.55576 0.3516 0.12509 0.0
C3604 C 0.56172 0.35157 0.14349 0.0
C3605 C 0.57807 0.34776 0.1485 0.0
C3606 C 0.58866 0.34409 0.13524 0.0
C3607 C 0.58294 0.34427 0.11694 0.0
C3608 C 0.56659 0.34805 0.11186 0.0
C3609 C 0.52253 0.42113 0.09078 0.0
C3610 C 0.52898 0.4203 0.07377 0.0
C3611 C 0.52052 0.40652 0.10087 0.0
C3612 C 0.52489 0.39071 0.09421 0.0
C3613 C 0.53126 0.38981 0.07726 0.0
C3614 C 0.53318 0.40433 0.06713 0.0
C3615 C 0.52323 0.37521 0.10496 0.0
C3616 C 0.53889 0.36991 0.10953 0.0
C3617 C 0.50654 0.3658 0.11085 0.0
C3618 C 0.48943 0.37052 0.10631 0.0
C3619 C 0.48251 0.37023 0.08811 0.0
C3620 C 0.4665 0.37494 0.08398 0.0
C3621 C 0.45719 0.37982 0.09792 0.0
C3622 C 0.46385 0.37994 0.11603 0.0
C3623 C 0.47988 0.37527 0.12024 0.0
H3624 H 0.4448 0.38346 0.09469 0.0
H3625 H 0.60131 0.34115 0.13914 0.0
H3626 H 0.98063 0.32383 0.36013 0.0
H3627 H 0.94926 0.32054 0.34758 0.0
H3628 H 0.94861 0.27386 0.3095 0.0
H3629 H 0.98058 0.27741 0.32189 0.0
H3630 H 0.92945 0.29334 0.29333 0.0
H3631 H 0.92795 0.2689 0.34914 0.0
H3632 H 0.93653 0.26847 0.38172 0.0
H3633 H 0.91765 0.31488 0.39565 0.0
H3634 H 0.90919 0.31575 0.36313 0.0
H3635 H 0.83024 0.26043 0.27722 0.0
H3636 H 0.86271 0.26367 0.28578 0.0
H3637 H 0.86938 0.31451 0.32041 0.0
H3638 H 0.8369 0.31151 0.31165 0.0
H3639 H 0.88514 0.29136 0.33762 0.0
H3640 H 0.88528 0.31429 0.28081 0.0
H3641 H 0.87627 0.31346 0.2481 0.0
H3642 H 0.89759 0.26849 0.23562 0.0
H3643 H 0.90603 0.26849 0.26833 0.0
C3644 C 0.97398 0.3129 0.34896 0.0
C3645 C 0.9833 0.3008 0.34219 0.0
C3646 C 0.95584 0.31096 0.34183 0.0
C3647 C 0.9461 0.29663 0.32783 0.0
C3648 C 0.9556 0.28498 0.32038 0.0
C3649 C 0.97397 0.28703 0.32746 0.0
C3650 C 0.926 0.29371 0.32159 0.0
C3651 C 0.91974 0.2926 0.30302 0.0
C3652 C 0.9131 0.293 0.3341 0.0
C3653 C 0.91809 0.29249 0.35369 0.0
C3654 C 0.92574 0.27909 0.35915 0.0
C3655 C 0.93057 0.27876 0.3776 0.0
C3656 C 0.92767 0.29167 0.39075 0.0
C3657 C 0.9199 0.30491 0.38545 0.0
C3658 C 0.91507 0.30532 0.36701 0.0
C3659 C 0.83858 0.27237 0.28663 0.0
C3660 C 0.83078 0.28571 0.29374 0.0
C3661 C 0.85726 0.27423 0.29148 0.0
C3662 C 0.86872 0.28938 0.30375 0.0
C3663 C 0.86096 0.30268 0.31092 0.0
C3664 C 0.84232 0.30099 0.30584 0.0
C3665 C 0.88863 0.29117 0.30942 0.0
C3666 C 0.89484 0.29203 0.32792 0.0
C3667 C 0.90135 0.29142 0.29679 0.0
C3668 C 0.89605 0.29121 0.27709 0.0
C3669 C 0.88777 0.304 0.27113 0.0
C3670 C 0.88275 0.30367 0.25257 0.0
C3671 C 0.88621 0.29081 0.2398 0.0
C3672 C 0.89475 0.27831 0.24555 0.0
C3673 C 0.8996 0.27843 0.26411 0.0
H3674 H 0.88236 0.29061 0.22543 0.0
H3675 H 0.93142 0.29139 0.40503 0.0
H3676 H 0.99766 0.69264 0.68655 0.0
H3677 H 0.99811 0.66407 0.66873 0.0
H3678 H 0.01017 0.69227 0.62263 0.0
H3679 H 0.00961 0.72077 0.64025 0.0
H3680 H 0.98614 0.65859 0.61172 0.0
H3681 H 0.04408 0.68392 0.6506 0.0
H3682 H 0.06413 0.69574 0.67993 0.0
H3683 H 0.04191 0.64417 0.69871 0.0
H3684 H 0.02154 0.63212 0.66955 0.0
H3685 H 0.02535 0.60127 0.55936 0.0
H3686 H 0.01995 0.62659 0.57839 0.0
H3687 H 0.00873 0.59332 0.62108 0.0
H3688 H 0.01424 0.56782 0.6021 0.0
H3689 H 0.03028 0.62777 0.63485 0.0
H3690 H 0.97393 0.60159 0.59516 0.0
H3691 H 0.95393 0.58968 0.56583 0.0
H3692 H 0.97278 0.64255 0.54864 0.0
H3693 H 0.99311 0.65471 0.57778 0.0
C3694 C 1.00013 0.69273 0.67253 0.0
C3695 C 1.00367 0.70914 0.66492 0.0
C3696 C 1.00053 0.67637 0.66237 0.0
C3697 C 1.00447 0.67598 0.64435 0.0
C3698 C 0.00716 0.69213 0.63649 0.0
C3699 C 0.00685 0.70849 0.64663 0.0
C3700 C 0.00647 0.65905 0.63385 0.0
C3701 C 0.99591 0.65197 0.61673 0.0
C3702 C 0.01888 0.65001 0.64048 0.0
C3703 C 0.03115 0.65719 0.65798 0.0
C3704 C 0.04337 0.67515 0.66103 0.0
C3705 C 0.05481 0.68188 0.67762 0.0
C3706 C 0.05425 0.67073 0.69119 0.0
C3707 C 0.0423 0.6528 0.68819 0.0
C3708 C 0.03082 0.64601 0.67164 0.0
C3709 C 0.02174 0.59925 0.57279 0.0
C3710 C 0.0202 0.58238 0.57911 0.0
C3711 C 0.01855 0.61378 0.58366 0.0
C3712 C 0.01368 0.61189 0.60115 0.0
C3713 C 0.0124 0.59517 0.60764 0.0
C3714 C 0.01553 0.58056 0.59672 0.0
C3715 C 0.0101 0.62745 0.61261 0.0
C3716 C 0.02039 0.63428 0.62989 0.0
C3717 C 0.99742 0.63625 0.60614 0.0
C3718 C 0.98517 0.62902 0.5886 0.0
C3719 C 0.97392 0.61064 0.58508 0.0
C3720 C 0.9625 0.60385 0.56849 0.0
C3721 C 0.96211 0.61534 0.55536 0.0
C3722 C 0.97311 0.63366 0.55881 0.0
C3723 C 0.98457 0.64051 0.57537 0.0
H3724 H 0.95326 0.61006 0.54253 0.0
H3725 H 0.06312 0.67596 0.70402 0.0
H3726 H 0.60239 0.79719 0.87248 0.0
H3727 H 0.63036 0.79548 0.86079 0.0
H3728 H 0.61473 0.81651 0.81273 0.0
H3729 H 0.58619 0.81792 0.82431 0.0
H3730 H 0.62992 0.7909 0.803 0.0
H3731 H 0.64884 0.84376 0.84854 0.0
H3732 H 0.65141 0.86159 0.87878 0.0
H3733 H 0.67848 0.82674 0.90304 0.0
H3734 H 0.67586 0.80854 0.87297 0.0
H3735 H 0.73846 0.82368 0.80892 0.0
H3736 H 0.70987 0.82814 0.81748 0.0
H3737 H 0.68291 0.76991 0.80428 0.0
H3738 H 0.71127 0.76539 0.7956 0.0
H3739 H 0.68952 0.81756 0.84296 0.0
H3740 H 0.63732 0.76084 0.78982 0.0
H3741 H 0.63532 0.74593 0.75835 0.0
H3742 H 0.67584 0.79359 0.74712 0.0
H3743 H 0.67789 0.80888 0.77842 0.0
C3744 C 0.60475 0.80149 0.85939 0.0
C3745 C 0.59182 0.80784 0.84948 0.0
C3746 C 0.62098 0.80059 0.85272 0.0
C3747 C 0.62515 0.80621 0.83595 0.0
C3748 C 0.61209 0.81215 0.82575 0.0
C3749 C 0.59569 0.81299 0.83242 0.0
C3750 C 0.64308 0.80582 0.82931 0.0
C3751 C 0.64291 0.79674 0.8118 0.0
C3752 C 0.66034 0.81375 0.84042 0.0
C3753 C 0.66202 0.8247 0.85852 0.0
C3754 C 0.65524 0.83982 0.86034 0.0
C3755 C 0.65672 0.85001 0.87745 0.0
C3756 C 0.66507 0.84527 0.89283 0.0
C3757 C 0.672 0.83038 0.89112 0.0
C3758 C 0.67054 0.82014 0.87405 0.0
C3759 C 0.72644 0.8118 0.80772 0.0
C3760 C 0.72737 0.79414 0.80143 0.0
C3761 C 0.71001 0.81437 0.81272 0.0
C3762 C 0.69391 0.79943 0.81142 0.0
C3763 C 0.69486 0.7818 0.80518 0.0
C3764 C 0.71126 0.77921 0.80026 0.0
C3765 C 0.67629 0.80213 0.81689 0.0
C3766 C 0.67653 0.81168 0.83417 0.0
C3767 C 0.65916 0.79494 0.80544 0.0
C3768 C 0.65788 0.78592 0.78653 0.0
C3769 C 0.64575 0.76817 0.78061 0.0
C3770 C 0.64462 0.75965 0.76281 0.0
C3771 C 0.65549 0.76879 0.75076 0.0
C3772 C 0.66747 0.7865 0.75648 0.0
C3773 C 0.66864 0.79509 0.77426 0.0
H3774 H 0.6546 0.76216 0.73699 0.0
H3775 H 0.6662 0.85317 0.90606 0.0
H3776 H 0.43569 0.54863 0.71303 0.0
H3777 H 0.44796 0.54974 0.68415 0.0
H3778 H 0.49698 0.54072 0.70892 0.0
H3779 H 0.48479 0.53959 0.73805 0.0
H3780 H 0.50448 0.56727 0.68609 0.0
H3781 H 0.46463 0.50577 0.68321 0.0
H3782 H 0.43567 0.4821 0.68532 0.0
H3783 H 0.40773 0.50166 0.64317 0.0
H3784 H 0.43649 0.52562 0.64099 0.0
H3785 H 0.53823 0.54121 0.60582 0.0
H3786 H 0.52677 0.54291 0.635 0.0
H3787 H 0.47544 0.54559 0.60842 0.0
H3788 H 0.4867 0.54335 0.57892 0.0
H3789 H 0.46895 0.52286 0.63231 0.0
H3790 H 0.50857 0.58403 0.63459 0.0
H3791 H 0.5373 0.60804 0.63251 0.0
H3792 H 0.56537 0.5898 0.67561 0.0
H3793 H 0.53686 0.56551 0.67779 0.0
C3794 C 0.44915 0.54701 0.71246 0.0
C3795 C 0.45919 0.54393 0.72795 0.0
C3796 C 0.45612 0.54757 0.69585 0.0
C3797 C 0.47329 0.54506 0.69425 0.0
C3798 C 0.48367 0.54262 0.7098 0.0
C3799 C 0.47666 0.54196 0.72645 0.0
C3800 C 0.48016 0.5446 0.67627 0.0
C3801 C 0.49684 0.55741 0.67438 0.0
C3802 C 0.46997 0.53206 0.66083 0.0
C3803 C 0.45267 0.51761 0.66207 0.0
C3804 C 0.45228 0.50512 0.67449 0.0
C3805 C 0.4359 0.49163 0.67568 0.0
C3806 C 0.41986 0.49041 0.66442 0.0
C3807 C 0.42017 0.50264 0.6519 0.0
C3808 C 0.4365 0.51617 0.65067 0.0
C3809 C 0.52453 0.54228 0.60611 0.0
C3810 C 0.51343 0.54222 0.58994 0.0
C3811 C 0.51801 0.54335 0.6229 0.0
C3812 C 0.50031 0.54469 0.62407 0.0
C3813 C 0.48917 0.54463 0.60795 0.0
C3814 C 0.49565 0.54341 0.59107 0.0
C3815 C 0.49332 0.54557 0.64203 0.0
C3816 C 0.4766 0.5328 0.64396 0.0
C3817 C 0.50345 0.55822 0.65747 0.0
C3818 C 0.52061 0.57285 0.65624 0.0
C3819 C 0.5209 0.58506 0.64354 0.0
C3820 C 0.53714 0.59873 0.64235 0.0
C3821 C 0.55316 0.60042 0.65389 0.0
C3822 C 0.55296 0.58846 0.66667 0.0
C3823 C 0.53676 0.57475 0.66789 0.0
H3824 H 0.56572 0.61101 0.65295 0.0
H3825 H 0.4072 0.47996 0.66536 0.0
H3826 H 0.78615 0.21689 0.03432 0.0
H3827 H 0.78531 0.23436 0.00918 0.0
H3828 H 0.79427 0.19096 0.97296 0.0
H3829 H 0.79569 0.17358 0.99829 0.0
H3830 H 0.81351 0.22339 0.96594 0.0
H3831 H 0.75109 0.19553 0.97436 0.0
H3832 H 0.72467 0.1877 0.9914 0.0
H3833 H 0.7296 0.24484 0.00441 0.0
H3834 H 0.75623 0.25304 0.98765 0.0
H3835 H 0.77595 0.24457 0.88299 0.0
H3836 H 0.78236 0.23036 0.90941 0.0
H3837 H 0.78196 0.27837 0.94499 0.0
H3838 H 0.7761 0.29303 0.91851 0.0
H3839 H 0.75914 0.24448 0.95246 0.0
H3840 H 0.82736 0.27063 0.95206 0.0
H3841 H 0.85559 0.27739 0.93747 0.0
H3842 H 0.83795 0.22262 0.90811 0.0
H3843 H 0.80994 0.21539 0.92306 0.0
C3844 C 0.78807 0.21111 0.02103 0.0
C3845 C 0.79083 0.19381 0.01819 0.0
C3846 C 0.78749 0.22107 0.00666 0.0
C3847 C 0.7893 0.21376 0.98913 0.0
C3848 C 0.79273 0.19678 0.98638 0.0
C3849 C 0.79354 0.18688 1.00083 0.0
C3850 C 0.7873 0.22374 0.97364 0.0
C3851 C 0.8015 0.22779 0.96289 0.0
C3852 C 0.7718 0.2298 0.96984 0.0
C3853 C 0.75576 0.22491 0.9799 0.0
C3854 C 0.74663 0.20644 0.98097 0.0
C3855 C 0.7316 0.20193 0.99056 0.0
C3856 C 0.72549 0.21576 0.99902 0.0
C3857 C 0.73437 0.23414 0.99787 0.0
C3858 C 0.74942 0.23872 0.98831 0.0
C3859 C 0.77749 0.25225 0.89643 0.0
C3860 C 0.77565 0.26999 0.89868 0.0
C3861 C 0.78124 0.24413 0.91149 0.0
C3862 C 0.783 0.25349 0.92909 0.0
C3863 C 0.78086 0.27106 0.93146 0.0
C3864 C 0.7773 0.2793 0.91636 0.0
C3865 C 0.78535 0.24414 0.9449 0.0
C3866 C 0.77115 0.24013 0.95564 0.0
C3867 C 0.80069 0.23793 0.94859 0.0
C3868 C 0.81656 0.24257 0.93846 0.0
C3869 C 0.82948 0.2601 0.94238 0.0
C3870 C 0.84552 0.26394 0.93423 0.0
C3871 C 0.84856 0.25044 0.92187 0.0
C3872 C 0.83559 0.23305 0.91769 0.0
C3873 C 0.8197 0.22904 0.92608 0.0
H3874 H 0.86093 0.25346 0.91551 0.0
H3875 H 0.71385 0.21224 0.00644 0.0
H3876 H 0.10692 0.4873 0.21193 0.0
H3877 H 0.09236 0.48598 0.18099 0.0
H3878 H 0.14291 0.52148 0.16842 0.0
H3879 H 0.15773 0.52255 0.1992 0.0
H3880 H 0.11094 0.53501 0.16729 0.0
H3881 H 0.1291 0.48339 0.1448 0.0
H3882 H 0.13238 0.45244 0.14431 0.0
H3883 H 0.0738 0.42882 0.13614 0.0
H3884 H 0.07014 0.45966 0.13702 0.0
H3885 H 0.069 0.5471 0.08419 0.0
H3886 H 0.09065 0.54009 0.10625 0.0
H3887 H 0.0474 0.49344 0.11614 0.0
H3888 H 0.02617 0.49968 0.09281 0.0
H3889 H 0.07868 0.48512 0.11656 0.0
H3890 H 0.05965 0.53453 0.14417 0.0
H3891 H 0.05426 0.56471 0.14708 0.0
H3892 H 0.11185 0.59142 0.14833 0.0
H3893 H 0.11755 0.56136 0.14517 0.0
C3894 C 0.11511 0.49429 0.20237 0.0
C3895 C 0.13338 0.5052 0.208 0.0
C3896 C 0.1068 0.49347 0.18471 0.0
C3897 C 0.11658 0.5037 0.17254 0.0
C3898 C 0.13521 0.51345 0.17766 0.0
C3899 C 0.14365 0.514 0.19523 0.0
C3900 C 0.10651 0.50684 0.156 0.0
C3901 C 0.10424 0.52424 0.15595 0.0
C3902 C 0.09722 0.4925 0.14171 0.0
C3903 C 0.09936 0.4739 0.14115 0.0
C3904 C 0.11691 0.47163 0.14311 0.0
C3905 C 0.11883 0.45409 0.14274 0.0
C3906 C 0.10331 0.43868 0.14022 0.0
C3907 C 0.08582 0.44078 0.13809 0.0
C3908 C 0.08381 0.45829 0.13853 0.0
C3909 C 0.06443 0.53491 0.09045 0.0
C3910 C 0.04624 0.52358 0.08639 0.0
C3911 C 0.07663 0.53113 0.10337 0.0
C3912 C 0.07062 0.51628 0.11292 0.0
C3913 C 0.05236 0.5049 0.10885 0.0
C3914 C 0.04023 0.50857 0.09571 0.0
C3915 C 0.08307 0.51332 0.12788 0.0
C3916 C 0.08565 0.49597 0.12772 0.0
C3917 C 0.09236 0.52758 0.1423 0.0
C3918 C 0.08899 0.54569 0.14421 0.0
C3919 C 0.07114 0.54683 0.14491 0.0
C3920 C 0.06803 0.56391 0.14663 0.0
C3921 C 0.08269 0.57997 0.14783 0.0
C3922 C 0.1005 0.57897 0.14736 0.0
C3923 C 0.10368 0.56192 0.14561 0.0
H3924 H 0.08026 0.59318 0.14916 0.0
H3925 H 0.10483 0.42512 0.13988 0.0
H3926 H 0.7979 0.82759 0.5004 0.0
H3927 H 0.79642 0.81652 0.46817 0.0
H3928 H 0.75188 0.83839 0.45526 0.0
H3929 H 0.75334 0.84968 0.48761 0.0
H3930 H 0.74707 0.80314 0.43528 0.0
H3931 H 0.79284 0.8624 0.44961 0.0
H3932 H 0.82043 0.8854 0.46697 0.0
H3933 H 0.85294 0.85031 0.45299 0.0
H3934 H 0.82546 0.82697 0.43577 0.0
H3935 H 0.75026 0.80337 0.3414 0.0
H3936 H 0.75017 0.81149 0.3738 0.0
H3937 H 0.80129 0.79967 0.38529 0.0
H3938 H 0.80185 0.79226 0.35256 0.0
H3939 H 0.80258 0.82892 0.40647 0.0
H3940 H 0.75757 0.76972 0.39178 0.0
H3941 H 0.7303 0.74633 0.37434 0.0
H3942 H 0.69666 0.78002 0.38895 0.0
H3943 H 0.72377 0.80371 0.40639 0.0
C3944 C 0.7876 0.82987 0.49078 0.0
C3945 C 0.77579 0.83962 0.49663 0.0
C3946 C 0.78683 0.82357 0.47232 0.0
C3947 C 0.77419 0.8268 0.45926 0.0
C3948 C 0.76178 0.83577 0.4651 0.0
C3949 C 0.76264 0.84223 0.48359 0.0
C3950 C 0.77461 0.82164 0.43951 0.0
C3951 C 0.75912 0.8089 0.42891 0.0
C3952 C 0.7905 0.8288 0.43129 0.0
C3953 C 0.80705 0.84286 0.44156 0.0
C3954 C 0.80584 0.85952 0.45036 0.0
C3955 C 0.82147 0.87263 0.46016 0.0
C3956 C 0.83842 0.8693 0.46113 0.0
C3957 C 0.83979 0.85286 0.45226 0.0
C3958 C 0.8242 0.8397 0.44247 0.0
C3959 C 0.7615 0.80243 0.35078 0.0
C3960 C 0.77602 0.79702 0.34435 0.0
C3961 C 0.76136 0.80698 0.3694 0.0
C3962 C 0.77547 0.80577 0.38216 0.0
C3963 C 0.79015 0.80062 0.37577 0.0
C3964 C 0.79047 0.79637 0.35706 0.0
C3965 C 0.77503 0.8103 0.40208 0.0
C3966 C 0.79053 0.82299 0.41277 0.0
C3967 C 0.75918 0.80295 0.4104 0.0
C3968 C 0.74275 0.78856 0.40028 0.0
C3969 C 0.74437 0.77218 0.39123 0.0
C3970 C 0.72894 0.75886 0.38136 0.0
C3971 C 0.71176 0.76171 0.38052 0.0
C3972 C 0.70997 0.77784 0.38964 0.0
C3973 C 0.72537 0.79121 0.39955 0.0
H3974 H 0.69984 0.75141 0.37283 0.0
H3975 H 0.8505 0.87946 0.46871 0.0
H3976 H 0.46069 0.55546 0.84163 0.0
H3977 H 0.47234 0.55499 0.87319 0.0
H3978 H 0.49978 0.51607 0.85498 0.0
H3979 H 0.48801 0.51631 0.82345 0.0
H3980 H 0.48178 0.5051 0.88223 0.0
H3981 H 0.52381 0.56124 0.87192 0.0
H3982 H 0.53343 0.59202 0.86276 0.0
H3983 H 0.50561 0.61204 0.90369 0.0
H3984 H 0.4956 0.5813 0.91293 0.0
H3985 H 0.5301 0.51055 0.97126 0.0
H3986 H 0.52284 0.51155 0.93872 0.0
H3987 H 0.49297 0.54978 0.95158 0.0
H3988 H 0.50019 0.549 0.98383 0.0
H3989 H 0.51445 0.56086 0.92652 0.0
H3990 H 0.47086 0.50436 0.93543 0.0
H3991 H 0.4612 0.47362 0.94468 0.0
H3992 H 0.49213 0.45442 0.9064 0.0
H3993 H 0.50217 0.48515 0.89709 0.0
C3994 C 0.46941 0.54699 0.84431 0.0
C3995 C 0.47343 0.53596 0.82995 0.0
C3996 C 0.4761 0.54675 0.8624 0.0
C3997 C 0.48706 0.53556 0.86655 0.0
C3998 C 0.49135 0.5248 0.8522 0.0
C3999 C 0.48467 0.52503 0.83413 0.0
C4000 C 0.49344 0.53453 0.88585 0.0
C4001 C 0.4892 0.51729 0.89182 0.0
C4002 C 0.50284 0.55041 0.89855 0.0
C4003 C 0.50881 0.56891 0.893 0.0
C4004 C 0.51961 0.57216 0.87887 0.0
C4005 C 0.52516 0.58961 0.87368 0.0
C4006 C 0.52009 0.60396 0.8826 0.0
C4007 C 0.5095 0.6009 0.89677 0.0
C4008 C 0.5039 0.58347 0.902 0.0
C4009 C 0.52194 0.51911 0.96715 0.0
C4010 C 0.51571 0.52963 0.98026 0.0
C4011 C 0.51776 0.51965 0.94852 0.0
C4012 C 0.50726 0.53069 0.94263 0.0
C4013 C 0.50112 0.5412 0.95571 0.0
C4014 C 0.50522 0.54064 0.97423 0.0
C4015 C 0.5026 0.53148 0.92291 0.0
C4016 C 0.50716 0.54868 0.91687 0.0
C4017 C 0.49349 0.51558 0.91016 0.0
C4018 C 0.48744 0.4971 0.91572 0.0
C4019 C 0.47573 0.49363 0.92909 0.0
C4020 C 0.47016 0.4762 0.93433 0.0
C4021 C 0.47609 0.46209 0.92618 0.0
C4022 C 0.48757 0.46537 0.91273 0.0
C4023 C 0.4932 0.48279 0.90746 0.0
H4024 H 0.47176 0.44861 0.93024 0.0
H4025 H 0.52441 0.61746 0.87857 0.0
H4026 H 0.80734 0.15906 0.12714 0.0
H4027 H 0.81222 0.18021 0.15544 0.0
H4028 H 0.83389 0.22602 0.12727 0.0
H4029 H 0.82868 0.20503 0.09888 0.0
H4030 H 0.8371 0.21143 0.17868 0.0
H4031 H 0.80634 0.25228 0.13209 0.0
H4032 H 0.7899 0.24797 0.10104 0.0
H4033 H 0.76618 0.19053 0.10318 0.0
H4034 H 0.78221 0.19459 0.13433 0.0
H4035 H 0.8162 0.2829 0.23574 0.0
H4036 H 0.82814 0.26874 0.21054 0.0
H4037 H 0.77453 0.22952 0.1933 0.0
H4038 H 0.76262 0.24342 0.21839 0.0
H4039 H 0.79118 0.2437 0.16493 0.0
H4040 H 0.80478 0.2194 0.21925 0.0
H4041 H 0.81888 0.221 0.25067 0.0
H4042 H 0.87249 0.2394 0.23467 0.0
H4043 H 0.85878 0.23908 0.20333 0.0
C4044 C 0.81387 0.17356 0.12714 0.0
C4045 C 0.81713 0.18051 0.11078 0.0
C4046 C 0.81674 0.18563 0.14335 0.0
C4047 C 0.823 0.20465 0.14327 0.0
C4048 C 0.82884 0.21137 0.12749 0.0
C4049 C 0.82574 0.19937 0.11128 0.0
C4050 C 0.81905 0.21705 0.15778 0.0
C4051 C 0.82731 0.21876 0.17574 0.0
C4052 C 0.80588 0.22615 0.15387 0.0
C4053 C 0.79565 0.22371 0.13541 0.0
C4054 C 0.79754 0.23877 0.12594 0.0
C4055 C 0.7883 0.23636 0.10834 0.0
C4056 C 0.77706 0.21897 0.10011 0.0
C4057 C 0.77493 0.20398 0.10954 0.0
C4058 C 0.78408 0.20633 0.12716 0.0
C4059 C 0.80692 0.27151 0.22631 0.0
C4060 C 0.7885 0.26422 0.22892 0.0
C4061 C 0.81378 0.26338 0.21207 0.0
C4062 C 0.80222 0.24804 0.20024 0.0
C4063 C 0.78364 0.24135 0.20234 0.0
C4064 C 0.77686 0.24928 0.21665 0.0
C4065 C 0.80931 0.23831 0.18594 0.0
C4066 C 0.80145 0.23693 0.16793 0.0
C4067 C 0.82246 0.22918 0.19 0.0
C4068 C 0.83071 0.22958 0.20894 0.0
C4069 C 0.81958 0.22419 0.22246 0.0
C4070 C 0.82751 0.22486 0.24028 0.0
C4071 C 0.84657 0.23044 0.24469 0.0
C4072 C 0.85774 0.23535 0.23128 0.0
C4073 C 0.84989 0.23501 0.2135 0.0
H4074 H 0.85268 0.23086 0.25847 0.0
H4075 H 0.76998 0.21713 0.08646 0.0
H4076 H 0.13752 0.51891 0.32291 0.0
H4077 H 0.12448 0.5231 0.35106 0.0
H4078 H 0.07269 0.5186 0.31985 0.0
H4079 H 0.08581 0.51499 0.29173 0.0
H4080 H 0.08375 0.54877 0.34379 0.0
H4081 H 0.07934 0.4849 0.34561 0.0
H4082 H 0.09142 0.45854 0.34563 0.0
H4083 H 0.12929 0.48604 0.39352 0.0
H4084 H 0.11758 0.51266 0.39366 0.0
H4085 H 0.0284 0.54673 0.41422 0.0
H4086 H 0.04219 0.5398 0.38722 0.0
H4087 H 0.09278 0.54522 0.42112 0.0
H4088 H 0.07904 0.55207 0.44815 0.0
H4089 H 0.08371 0.51525 0.39669 0.0
H4090 H 0.08925 0.57841 0.39588 0.0
H4091 H 0.0791 0.60602 0.39655 0.0
H4092 H 0.04164 0.58164 0.34763 0.0
H4093 H 0.05139 0.55376 0.3468 0.0
C4094 C 0.12322 0.51835 0.32207 0.0
C4095 C 0.11268 0.51673 0.30517 0.0
C4096 C 0.11578 0.52074 0.33817 0.0
C4097 C 0.09761 0.52118 0.33755 0.0
C4098 C 0.08677 0.51842 0.32063 0.0
C4099 C 0.09426 0.51628 0.30459 0.0
C4100 C 0.09031 0.52617 0.35436 0.0
C4101 C 0.08346 0.54124 0.35524 0.0
C4102 C 0.09072 0.51688 0.3696 0.0
C4103 C 0.09769 0.50084 0.36954 0.0
C4104 C 0.09033 0.48538 0.35606 0.0
C4105 C 0.0971 0.47038 0.35606 0.0
C4106 C 0.11115 0.47063 0.36954 0.0
C4107 C 0.11843 0.48587 0.38308 0.0
C4108 C 0.11172 0.5009 0.38313 0.0
C4109 C 0.04253 0.54669 0.41587 0.0
C4110 C 0.05266 0.54995 0.43325 0.0
C4111 C 0.05038 0.54271 0.40047 0.0
C4112 C 0.06855 0.54214 0.40218 0.0
C4113 C 0.07873 0.54554 0.41952 0.0
C4114 C 0.07086 0.54944 0.43492 0.0
C4115 C 0.07678 0.53756 0.38591 0.0
C4116 C 0.08394 0.52271 0.38519 0.0
C4117 C 0.07689 0.5472 0.37089 0.0
C4118 C 0.07092 0.56391 0.37138 0.0
C4119 C 0.07873 0.57886 0.38535 0.0
C4120 C 0.07308 0.59458 0.38574 0.0
C4121 C 0.0597 0.59556 0.37217 0.0
C4122 C 0.05198 0.58084 0.35815 0.0
C4123 C 0.05758 0.56509 0.3577 0.0
H4124 H 0.05535 0.60774 0.37249 0.0
H4125 H 0.11637 0.459 0.36951 0.0
H4126 H 0.77841 0.82913 0.5892 0.0
H4127 H 0.77595 0.81614 0.61768 0.0
H4128 H 0.76344 0.86352 0.64275 0.0
H4129 H 0.76555 0.87639 0.61445 0.0
H4130 H 0.7952 0.82786 0.65055 0.0
H4131 H 0.73511 0.85217 0.67393 0.0
H4132 H 0.70698 0.85758 0.66024 0.0
H4133 H 0.70427 0.81915 0.61292 0.0
H4134 H 0.73222 0.81333 0.62641 0.0
H4135 H 0.79535 0.82814 0.745 0.0
H4136 H 0.79396 0.83689 0.7146 0.0
H4137 H 0.74372 0.79258 0.69743 0.0
H4138 H 0.74487 0.78383 0.7279 0.0
H4139 H 0.74159 0.82262 0.68388 0.0
H4140 H 0.78411 0.7884 0.68623 0.0
H4141 H 0.81096 0.78022 0.69902 0.0
H4142 H 0.84648 0.83294 0.69251 0.0
H4143 H 0.8198 0.84156 0.67997 0.0
C4144 C 0.77496 0.8367 0.60072 0.0
C4145 C 0.77211 0.8538 0.59944 0.0
C4146 C 0.77364 0.82929 0.61704 0.0
C4147 C 0.76934 0.83874 0.63237 0.0
C4148 C 0.76646 0.85577 0.63108 0.0
C4149 C 0.76774 0.86316 0.61483 0.0
C4150 C 0.76828 0.83114 0.64989 0.0
C4151 C 0.78345 0.82668 0.6578 0.0
C4152 C 0.75282 0.82921 0.65926 0.0
C4153 C 0.73586 0.83244 0.65113 0.0
C4154 C 0.72846 0.84481 0.66064 0.0
C4155 C 0.71256 0.84796 0.65291 0.0
C4156 C 0.70388 0.83875 0.6357 0.0
C4157 C 0.71104 0.82632 0.62621 0.0
C4158 C 0.72693 0.82311 0.63389 0.0
C4159 C 0.78391 0.82031 0.73483 0.0
C4160 C 0.77027 0.8052 0.73892 0.0
C4161 C 0.7832 0.82528 0.71739 0.0
C4162 C 0.7689 0.81522 0.7036 0.0
C4163 C 0.75493 0.80052 0.7078 0.0
C4164 C 0.75563 0.79552 0.72526 0.0
C4165 C 0.76872 0.81988 0.68476 0.0
C4166 C 0.75332 0.82377 0.6766 0.0
C4167 C 0.7838 0.8209 0.67499 0.0
C4168 C 0.79993 0.81568 0.6823 0.0
C4169 C 0.79764 0.7983 0.68764 0.0
C4170 C 0.81283 0.79358 0.69483 0.0
C4171 C 0.83041 0.80607 0.69661 0.0
C4172 C 0.83285 0.82328 0.69114 0.0
C4173 C 0.8177 0.82809 0.68397 0.0
H4174 H 0.84216 0.80239 0.70219 0.0
H4175 H 0.69158 0.84122 0.62973 0.0
H4176 H 0.74516 0.46567 0.51804 0.0
H4177 H 0.72063 0.47966 0.51989 0.0
H4178 H 0.68045 0.42603 0.50923 0.0
H4179 H 0.70509 0.41189 0.50696 0.0
H4180 H 0.66966 0.46084 0.4983 0.0
H4181 H 0.69269 0.43412 0.54842 0.0
H4182 H 0.71814 0.42837 0.5671 0.0
H4183 H 0.74349 0.48639 0.58279 0.0
H4184 H 0.71836 0.49247 0.56389 0.0
H4185 H 0.61089 0.49432 0.54862 0.0
H4186 H 0.62772 0.47281 0.5402 0.0
H4187 H 0.67894 0.51568 0.55838 0.0
H4188 H 0.66207 0.53719 0.56705 0.0
H4189 H 0.68077 0.4819 0.56501 0.0
H4190 H 0.66042 0.50927 0.51475 0.0
H4191 H 0.63602 0.51706 0.49647 0.0
H4192 H 0.60648 0.45977 0.48127 0.0
H4193 H 0.63065 0.45168 0.49964 0.0
C4194 C 0.73105 0.45693 0.51512 0.0
C4195 C 0.72689 0.43778 0.51267 0.0
C4196 C 0.71707 0.46492 0.51613 0.0
C4197 C 0.69889 0.45379 0.51505 0.0
C4198 C 0.69447 0.43475 0.51006 0.0
C4199 C 0.70852 0.42672 0.50879 0.0
C4200 C 0.68594 0.46163 0.52368 0.0
C4201 C 0.67177 0.4651 0.5129 0.0
C4202 C 0.68899 0.46737 0.54271 0.0
C4203 C 0.70373 0.46373 0.55464 0.0
C4204 C 0.70375 0.44564 0.55578 0.0
C4205 C 0.71811 0.44233 0.5664 0.0
C4206 C 0.73244 0.45701 0.5761 0.0
C4207 C 0.73239 0.47503 0.57526 0.0
C4208 C 0.71809 0.47842 0.5646 0.0
C4209 C 0.62575 0.49898 0.55113 0.0
C4210 C 0.63532 0.51738 0.55812 0.0
C4211 C 0.6353 0.48675 0.54634 0.0
C4212 C 0.6545 0.49285 0.54829 0.0
C4213 C 0.66408 0.5108 0.55673 0.0
C4214 C 0.65451 0.52305 0.56166 0.0
C4215 C 0.66454 0.48131 0.53967 0.0
C4216 C 0.67829 0.47723 0.55047 0.0
C4217 C 0.66113 0.47513 0.52068 0.0
C4218 C 0.64725 0.47988 0.50864 0.0
C4219 C 0.64874 0.49835 0.50747 0.0
C4220 C 0.63494 0.50282 0.49713 0.0
C4221 C 0.61969 0.48893 0.48776 0.0
C4222 C 0.6183 0.47052 0.48854 0.0
C4223 C 0.63206 0.46598 0.49889 0.0
H4224 H 0.60895 0.49245 0.47993 0.0
H4225 H 0.74356 0.45442 0.5843 0.0
H4226 H 0.23774 0.12623 0.5243 0.0
H4227 H 0.20681 0.10507 0.52238 0.0
H4228 H 0.18407 0.14587 0.50368 0.0
H4229 H 0.21498 0.16714 0.50544 0.0
H4230 H 0.18081 0.11017 0.54201 0.0
H4231 H 0.14282 0.12382 0.47671 0.0
H4232 H 0.14932 0.13178 0.44647 0.0
H4233 H 0.19305 0.10755 0.44882 0.0
H4234 H 0.18666 0.09921 0.47894 0.0
H4235 H 0.08557 0.08791 0.54353 0.0
H4236 H 0.11697 0.10354 0.53909 0.0
H4237 H 0.11632 0.05762 0.49996 0.0
H4238 H 0.08475 0.04173 0.50432 0.0
H4239 H 0.1319 0.09211 0.48891 0.0
H4240 H 0.13789 0.06117 0.54033 0.0
H4241 H 0.13148 0.05226 0.57025 0.0
H4242 H 0.15267 0.10874 0.5949 0.0
H4243 H 0.15896 0.11802 0.56505 0.0
C4244 C 0.2262 0.13065 0.51951 0.0
C4245 C 0.22887 0.14845 0.51511 0.0
C4246 C 0.20851 0.11852 0.51847 0.0
C4247 C 0.19313 0.12386 0.51287 0.0
C4248 C 0.19575 0.14138 0.50785 0.0
C4249 C 0.21344 0.15355 0.50893 0.0
C4250 C 0.17439 0.11166 0.51361 0.0
C4251 C 0.17017 0.10616 0.53036 0.0
C4252 C 0.16052 0.10628 0.49838 0.0
C4253 C 0.16435 0.11104 0.48017 0.0
C4254 C 0.15377 0.12012 0.47074 0.0
C4255 C 0.15745 0.12471 0.45362 0.0
C4256 C 0.17162 0.12022 0.44575 0.0
C4257 C 0.18212 0.11108 0.45496 0.0
C4258 C 0.17849 0.10645 0.47207 0.0
C4259 C 0.09203 0.08108 0.53394 0.0
C4260 C 0.08265 0.06349 0.52436 0.0
C4261 C 0.11 0.09006 0.53144 0.0
C4262 C 0.11899 0.08167 0.5193 0.0
C4263 C 0.1096 0.0643 0.50941 0.0
C4264 C 0.09161 0.05521 0.51199 0.0
C4265 C 0.13835 0.091 0.51737 0.0
C4266 C 0.14264 0.09602 0.50047 0.0
C4267 C 0.15236 0.09585 0.53242 0.0
C4268 C 0.14877 0.0903 0.55042 0.0
C4269 C 0.14107 0.0717 0.5521 0.0
C4270 C 0.13747 0.06659 0.56906 0.0
C4271 C 0.14163 0.07993 0.58446 0.0
C4272 C 0.14944 0.09842 0.58295 0.0
C4273 C 0.15304 0.10361 0.56602 0.0
H4274 H 0.13883 0.07594 0.59757 0.0
H4275 H 0.17445 0.12379 0.43251 0.0
H4276 H 0.18436 0.00885 0.77754 0.0
H4277 H 0.20063 0.98603 0.77782 0.0
H4278 H 0.15082 0.94502 0.78484 0.0
H4279 H 0.13482 0.9684 0.78591 0.0
H4280 H 0.17664 0.93852 0.80331 0.0
H4281 H 0.16934 0.94867 0.74196 0.0
H4282 H 0.17045 0.96614 0.71618 0.0
H4283 H 0.22909 0.98756 0.72868 0.0
H4284 H 0.22831 0.97041 0.75469 0.0
H4285 H 0.21758 0.86777 0.77603 0.0
H4286 H 0.19777 0.88753 0.77721 0.0
H4287 H 0.24534 0.93541 0.7846 0.0
H4288 H 0.26528 0.91582 0.78404 0.0
H4289 H 0.21789 0.93532 0.7568 0.0
H4290 H 0.22226 0.92674 0.82127 0.0
H4291 H 0.21928 0.90735 0.84564 0.0
H4292 H 0.16331 0.87894 0.82304 0.0
H4293 H 0.16588 0.89844 0.79875 0.0
C4294 C 0.1769 0.99497 0.7792 0.0
C4295 C 0.1583 0.99034 0.78155 0.0
C4296 C 0.18617 0.98185 0.77919 0.0
C4297 C 0.17688 0.96354 0.78072 0.0
C4298 C 0.15833 0.95897 0.78347 0.0
C4299 C 0.14917 0.97231 0.78407 0.0
C4300 C 0.18669 0.94937 0.7796 0.0
C4301 C 0.18538 0.93768 0.79291 0.0
C4302 C 0.19819 0.94806 0.76607 0.0
C4303 C 0.19874 0.95835 0.75037 0.0
C4304 C 0.18246 0.95719 0.73928 0.0
C4305 C 0.18303 0.96703 0.72462 0.0
C4306 C 0.19982 0.97798 0.72082 0.0
C4307 C 0.21609 0.97908 0.73165 0.0
C4308 C 0.21559 0.96928 0.74634 0.0
C4309 C 0.22388 0.88251 0.77829 0.0
C4310 C 0.24307 0.89018 0.77998 0.0
C4311 C 0.2125 0.89379 0.77887 0.0
C4312 C 0.22008 0.91295 0.78105 0.0
C4313 C 0.2392 0.92065 0.78285 0.0
C4314 C 0.25058 0.90941 0.78243 0.0
C4315 C 0.20815 0.92505 0.78074 0.0
C4316 C 0.209 0.93621 0.76706 0.0
C4317 C 0.19589 0.92551 0.79357 0.0
C4318 C 0.19429 0.91394 0.8082 0.0
C4319 C 0.20933 0.91634 0.82152 0.0
C4320 C 0.2077 0.90538 0.83534 0.0
C4321 C 0.19115 0.89185 0.83583 0.0
C4322 C 0.17613 0.88941 0.82263 0.0
C4323 C 0.17762 0.90048 0.80891 0.0
H4324 H 0.18997 0.88328 0.84646 0.0
H4325 H 0.20024 0.98559 0.70946 0.0
H4326 H 0.32096 0.89934 0.0058 0.0
H4327 H 0.35424 0.91357 0.00889 0.0
H4328 H 0.34611 0.96205 0.99037 0.0
H4329 H 0.3129 0.94805 0.98743 0.0
H4330 H 0.37652 0.95207 0.97765 0.0
H4331 H 0.35061 0.96231 0.03303 0.0
H4332 H 0.33259 0.9523 0.0576 0.0
H4333 H 0.36818 0.92102 0.07282 0.0
H4334 H 0.38625 0.93062 0.04812 0.0
H4335 H 0.4583 0.02175 0.01525 0.0
H4336 H 0.42597 0.00373 0.00759 0.0
H4337 H 0.4364 0.96037 0.03456 0.0
H4338 H 0.46862 0.97839 0.0426 0.0
H4339 H 0.40518 0.96582 0.04219 0.0
H4340 H 0.43267 0.95716 0.98854 0.0
H4341 H 0.45076 0.96674 0.96391 0.0
H4342 H 0.41271 0.99413 0.94516 0.0
H4343 H 0.39453 0.98496 0.96988 0.0
C4344 C 0.32627 0.91281 0.00189 0.0
C4345 C 0.31439 0.9227 0.99658 0.0
C4346 C 0.34525 0.92093 0.00373 0.0
C4347 C 0.35253 0.93891 1.00007 0.0
C4348 C 0.3407 0.94817 0.99329 0.0
C4349 C 0.32176 0.94018 0.99168 0.0
C4350 C 0.37222 0.94889 0.00527 0.0
C4351 C 0.38282 0.95518 0.99174 0.0
C4352 C 0.38039 0.95264 0.02365 0.0
C4353 C 0.36964 0.94699 0.03859 0.0
C4354 C 0.35449 0.95316 0.04151 0.0
C4355 C 0.34429 0.94759 0.05547 0.0
C4356 C 0.3492 0.93598 0.06673 0.0
C4357 C 0.36437 0.92998 0.06407 0.0
C4358 C 0.3746 0.93548 0.05009 0.0
C4359 C 0.45369 0.00846 0.0197 0.0
C4360 C 0.46607 1.00144 0.0294 0.0
C4361 C 0.43524 0.99813 0.01521 0.0
C4362 C 0.42889 0.98057 0.0202 0.0
C4363 C 0.44106 0.97384 0.03048 0.0
C4364 C 0.45948 0.98417 0.03503 0.0
C4365 C 0.4096 0.96911 0.01457 0.0
C4366 C 0.39902 0.96258 0.02805 0.0
C4367 C 0.4015 0.96507 0.99613 0.0
C4368 C 0.41233 0.97051 0.98117 0.0
C4369 C 0.42823 0.96535 0.97925 0.0
C4370 C 0.43849 0.97069 0.96526 0.0
C4371 C 0.43291 0.98107 0.95301 0.0
C4372 C 0.41703 0.98611 0.95469 0.0
C4373 C 0.40673 0.98083 0.96867 0.0
H4374 H 0.44087 0.9852 0.94218 0.0
H4375 H 0.34128 0.93168 0.07753 0.0
H4376 H 0.88631 0.60753 0.8129 0.0
H4377 H 0.87008 0.62856 0.80304 0.0
H4378 H 0.81896 0.58441 0.79401 0.0
H4379 H 0.83531 0.56326 0.80298 0.0
H4380 H 0.82287 0.59911 0.76519 0.0
H4381 H 0.82961 0.62292 0.82831 0.0
H4382 H 0.84533 0.63633 0.85929 0.0
H4383 H 0.87731 0.68376 0.83902 0.0
H4384 H 0.86201 0.6705 0.80785 0.0
H4385 H 0.7627 0.6553 0.75836 0.0
H4386 H 0.77959 0.63401 0.76569 0.0
H4387 H 0.8299 0.67291 0.75682 0.0
H4388 H 0.81299 0.69389 0.74848 0.0
H4389 H 0.82744 0.66193 0.7936 0.0
H4390 H 0.81913 0.63736 0.73032 0.0
H4391 H 0.8013 0.62405 0.70012 0.0
H4392 H 0.76974 0.57779 0.72235 0.0
H4393 H 0.78721 0.59096 0.75276 0.0
C4394 C 0.87154 0.60251 0.80931 0.0
C4395 C 0.86201 0.58384 0.80856 0.0
C4396 C 0.86226 0.61451 0.80368 0.0
C4397 C 0.84329 0.60803 0.7977 0.0
C4398 C 0.83362 0.58966 0.79837 0.0
C4399 C 0.84292 0.57762 0.80358 0.0
C4400 C 0.83383 0.61972 0.78893 0.0
C4401 C 0.82367 0.61274 0.77159 0.0
C4402 C 0.83533 0.63773 0.79698 0.0
C4403 C 0.84482 0.64558 0.81568 0.0
C4404 C 0.84015 0.6361 0.83041 0.0
C4405 C 0.84896 0.6437 0.84802 0.0
C4406 C 0.86236 0.66085 0.85111 0.0
C4407 C 0.86697 0.67045 0.8366 0.0
C4408 C 0.85823 0.6629 0.81896 0.0
C4409 C 0.77721 0.65901 0.75721 0.0
C4410 C 0.78662 0.67639 0.7532 0.0
C4411 C 0.78684 0.6469 0.76153 0.0
C4412 C 0.80594 0.6521 0.762 0.0
C4413 C 0.81515 0.66881 0.75664 0.0
C4414 C 0.8055 0.68075 0.75198 0.0
C4415 C 0.81644 0.64113 0.77019 0.0
C4416 C 0.82677 0.64829 0.78734 0.0
C4417 C 0.81488 0.62321 0.76214 0.0
C4418 C 0.80436 0.61524 0.74386 0.0
C4419 C 0.80827 0.62444 0.72881 0.0
C4420 C 0.79825 0.6169 0.71164 0.0
C4421 C 0.78436 0.60011 0.70933 0.0
C4422 C 0.78049 0.59081 0.72417 0.0
C4423 C 0.79046 0.59829 0.74137 0.0
H4424 H 0.77663 0.5943 0.69603 0.0
H4425 H 0.86913 0.66673 0.86477 0.0
H4426 H 0.80477 0.62926 0.04036 0.0
H4427 H 0.82801 0.61355 0.03878 0.0
H4428 H 0.86765 0.66378 0.03071 0.0
H4429 H 0.84383 0.67921 0.03096 0.0
H4430 H 0.87383 0.63775 0.01125 0.0
H4431 H 0.86533 0.64579 0.07379 0.0
H4432 H 0.84807 0.64413 0.10002 0.0
H4433 H 0.82848 0.58536 0.08723 0.0
H4434 H 0.84544 0.58668 0.0608 0.0
H4435 H 0.9476 0.60032 0.03173 0.0
H4436 H 0.92702 0.61929 0.03288 0.0
H4437 H 0.88123 0.57111 0.03315 0.0
H4438 H 0.90175 0.55221 0.03276 0.0
H4439 H 0.88074 0.59867 0.0582 0.0
H4440 H 0.88916 0.59197 0.99445 0.0
H4441 H 0.90795 0.59472 0.96937 0.0
H4442 H 0.92993 0.65289 0.98649 0.0
H4443 H 0.91143 0.65045 0.01182 0.0
C4444 C 0.81844 0.63693 0.03818 0.0
C4445 C 0.82257 0.65548 0.03594 0.0
C4446 C 0.8318 0.62798 0.03745 0.0
C4447 C 0.84986 0.63756 0.03524 0.0
C4448 C 0.8539 0.65606 0.03258 0.0
C4449 C 0.84032 0.66489 0.03274 0.0
C4450 C 0.86436 0.62818 0.03566 0.0
C4451 C 0.8755 0.62947 0.02172 0.0
C4452 C 0.86662 0.6172 0.04921 0.0
C4453 C 0.85656 0.61635 0.06524 0.0
C4454 C 0.85727 0.63252 0.07652 0.0
C4455 C 0.84754 0.63164 0.09143 0.0
C4456 C 0.83716 0.61465 0.09526 0.0
C4457 C 0.83652 0.59851 0.08424 0.0
C4458 C 0.84621 0.59931 0.06931 0.0
C4459 C 0.93317 0.59376 0.03212 0.0
C4460 C 0.92636 0.57468 0.03207 0.0
C4461 C 0.92138 0.60462 0.03262 0.0
C4462 C 0.90252 0.59662 0.03292 0.0
C4463 C 0.89571 0.57761 0.03286 0.0
C4464 C 0.90746 0.56677 0.03243 0.0
C4465 C 0.8898 0.60795 0.03362 0.0
C4466 C 0.87908 0.60707 0.04784 0.0
C4467 C 0.88816 0.61951 0.02051 0.0
C4468 C 0.89902 0.621 0.0051 0.0
C4469 C 0.89807 0.60533 0.99292 0.0
C4470 C 0.90866 0.60683 0.97866 0.0
C4471 C 0.92015 0.62396 0.97636 0.0
C4472 C 0.92104 0.63963 0.9883 0.0
C4473 C 0.91049 0.6382 0.00259 0.0
H4474 H 0.92829 0.62509 0.96529 0.0
H4475 H 0.82963 0.614 0.1068 0.0
H4476 H 0.18239 0.07696 0.79166 0.0
H4477 H 0.20343 0.10782 0.79299 0.0
H4478 H 0.16216 0.13092 0.81088 0.0
H4479 H 0.14089 0.10008 0.80937 0.0
H4480 H 0.17597 0.14583 0.78277 0.0
H4481 H 0.20063 0.13352 0.83968 0.0
H4482 H 0.21336 0.11598 0.86019 0.0
H4483 H 0.25877 0.12044 0.82997 0.0
H4484 H 0.24618 0.1378 0.80911 0.0
H4485 H 0.22945 0.23831 0.80288 0.0
H4486 H 0.21165 0.2074 0.80644 0.0
H4487 H 0.25253 0.18591 0.78504 0.0
H4488 H 0.27066 0.21699 0.78148 0.0
H4489 H 0.23965 0.17009 0.81497 0.0
H4490 H 0.21477 0.18181 0.75787 0.0
H4491 H 0.20218 0.19941 0.73731 0.0
H4492 H 0.15711 0.19579 0.76788 0.0
H4493 H 0.16959 0.17838 0.78879 0.0
C4494 C 0.17785 0.08857 0.79615 0.0
C4495 C 0.15989 0.08601 0.80032 0.0
C4496 C 0.18994 0.10624 0.79697 0.0
C4497 C 0.18439 0.12169 0.80208 0.0
C4498 C 0.16671 0.11919 0.80686 0.0
C4499 C 0.1546 0.10153 0.80605 0.0
C4500 C 0.1965 0.14042 0.80116 0.0
C4501 C 0.18979 0.15123 0.79006 0.0
C4502 C 0.21474 0.14724 0.81018 0.0
C4503 C 0.22236 0.13681 0.82272 0.0
C4504 C 0.21325 0.13063 0.83731 0.0
C4505 C 0.22045 0.12074 0.84902 0.0
C4506 C 0.23684 0.11706 0.84636 0.0
C4507 C 0.24607 0.12329 0.832 0.0
C4508 C 0.23891 0.13317 0.82024 0.0
C4509 C 0.23478 0.22707 0.79898 0.0
C4510 C 0.25144 0.23013 0.79174 0.0
C4511 C 0.22454 0.20939 0.80102 0.0
C4512 C 0.23066 0.19435 0.7958 0.0
C4513 C 0.24756 0.19735 0.78911 0.0
C4514 C 0.25785 0.2151 0.78702 0.0
C4515 C 0.219 0.17548 0.79677 0.0
C4516 C 0.22581 0.16465 0.80775 0.0
C4517 C 0.20082 0.16858 0.78762 0.0
C4518 C 0.19321 0.17894 0.775 0.0
C4519 C 0.20225 0.18489 0.76029 0.0
C4520 C 0.19512 0.19481 0.74856 0.0
C4521 C 0.17888 0.19875 0.75131 0.0
C4522 C 0.16971 0.19274 0.76578 0.0
C4523 C 0.17679 0.18283 0.77756 0.0
H4524 H 0.17338 0.20644 0.74221 0.0
H4525 H 0.2424 0.1094 0.85544 0.0
H4526 H 0.3491 1.00167 0.30593 0.0
H4527 H 0.32965 0.96967 0.29944 0.0
H4528 H 0.37782 0.95169 0.30058 0.0
H4529 H 0.39739 0.98358 0.30719 0.0
H4530 H 0.35115 0.93681 0.26873 0.0
H4531 H 0.35489 0.94651 0.33474 0.0
H4532 H 0.35115 0.96236 0.36402 0.0
H4533 H 0.29366 0.95091 0.346 0.0
H4534 H 0.29712 0.93519 0.3165 0.0
H4535 H 0.32161 0.84238 0.27272 0.0
H4536 H 0.33579 0.87548 0.27601 0.0
H4537 H 0.28392 0.88388 0.28455 0.0
H4538 H 0.26978 0.85072 0.28191 0.0
H4539 H 0.3092 0.90496 0.30931 0.0
H4540 H 0.30326 0.89258 0.24525 0.0
H4541 H 0.30534 0.87696 0.21522 0.0
H4542 H 0.36407 0.89416 0.2273 0.0
H4543 H 0.36236 0.90958 0.25756 0.0
C4544 C 0.35555 0.9909 0.30505 0.0
C4545 C 0.37477 0.99512 0.30703 0.0
C4546 C 0.34443 0.97266 0.30133 0.0
C4547 C 0.35237 0.95844 0.29945 0.0
C4548 C 0.37151 0.96257 0.30191 0.0
C4549 C 0.38264 0.98077 0.30582 0.0
C4550 C 0.34077 0.93923 0.29433 0.0
C4551 C 0.34207 0.92971 0.27761 0.0
C4552 C 0.32835 0.93042 0.30561 0.0
C4553 C 0.32631 0.93987 0.32334 0.0
C4554 C 0.34149 0.94753 0.33695 0.0
C4555 C 0.33941 0.95645 0.3536 0.0
C4556 C 0.32219 0.95769 0.35684 0.0
C4557 C 0.307 0.94997 0.34346 0.0
C4558 C 0.30901 0.94104 0.32678 0.0
C4559 C 0.31317 0.85126 0.27508 0.0
C4560 C 0.29464 0.84401 0.2772 0.0
C4561 C 0.32126 0.87018 0.27684 0.0
C4562 C 0.31086 0.88215 0.28035 0.0
C4563 C 0.29219 0.87489 0.28187 0.0
C4564 C 0.28414 0.85596 0.28036 0.0
C4565 C 0.31988 0.90221 0.28384 0.0
C4566 C 0.31807 0.91198 0.30022 0.0
C4567 C 0.33154 0.91134 0.27204 0.0
C4568 C 0.33267 0.90215 0.25377 0.0
C4569 C 0.31663 0.89292 0.24158 0.0
C4570 C 0.31774 0.88411 0.2245 0.0
C4571 C 0.33483 0.88456 0.21937 0.0
C4572 C 0.35084 0.89383 0.2313 0.0
C4573 C 0.34981 0.90262 0.24842 0.0
H4574 H 0.33567 0.87776 0.20613 0.0
H4575 H 0.32061 0.9646 0.36975 0.0
H4576 H 0.54233 0.34939 0.60959 0.0
H4577 H 0.53785 0.37746 0.60015 0.0
H4578 H 0.58463 0.38461 0.57121 0.0
H4579 H 0.58914 0.35653 0.58059 0.0
H4580 H 0.5854 0.41736 0.58945 0.0
H4581 H 0.54003 0.36918 0.54872 0.0
H4582 H 0.51382 0.34092 0.54046 0.0
H4583 H 0.48025 0.36636 0.56996 0.0
H4584 H 0.50635 0.39471 0.57859 0.0
H4585 H 0.57008 0.48951 0.54331 0.0
H4586 H 0.57529 0.46132 0.5514 0.0
H4587 H 0.52328 0.44679 0.572 0.0
H4588 H 0.51758 0.47433 0.56282 0.0
H4589 H 0.52578 0.4174 0.55767 0.0
H4590 H 0.5708 0.46585 0.59854 0.0
H4591 H 0.59696 0.49412 0.6072 0.0
H4592 H 0.63137 0.46847 0.57933 0.0
H4593 H 0.60528 0.44027 0.56996 0.0
C4594 C 0.55166 0.35685 0.60116 0.0
C4595 C 0.56607 0.35042 0.59584 0.0
C4596 C 0.54904 0.373 0.59568 0.0
C4597 C 0.56077 0.38337 0.58474 0.0
C4598 C 0.5753 0.37707 0.5796 0.0
C4599 C 0.57782 0.36084 0.58494 0.0
C4600 C 0.55792 0.40066 0.57867 0.0
C4601 C 0.5724 0.41729 0.58232 0.0
C4602 C 0.54091 0.40099 0.56966 0.0
C4603 C 0.5252 0.384 0.56444 0.0
C4604 C 0.5271 0.3687 0.55356 0.0
C4605 C 0.51226 0.35267 0.54879 0.0
C4606 C 0.4954 0.35183 0.55472 0.0
C4607 C 0.49333 0.36703 0.5654 0.0
C4608 C 0.50814 0.38308 0.57022 0.0
C4609 C 0.5597 0.4803 0.54953 0.0
C4610 C 0.54336 0.48439 0.55235 0.0
C4611 C 0.56279 0.46411 0.55438 0.0
C4612 C 0.54993 0.45168 0.56284 0.0
C4613 C 0.53357 0.45582 0.56556 0.0
C4614 C 0.5303 0.47175 0.56031 0.0
C4615 C 0.55321 0.43437 0.56864 0.0
C4616 C 0.5388 0.41764 0.56489 0.0
C4617 C 0.57028 0.43403 0.57771 0.0
C4618 C 0.586 0.451 0.58336 0.0
C4619 C 0.5839 0.4663 0.5941 0.0
C4620 C 0.59871 0.48233 0.5991 0.0
C4621 C 0.61578 0.48313 0.59372 0.0
C4622 C 0.6181 0.46788 0.58338 0.0
C4623 C 0.60329 0.45188 0.57818 0.0
H4624 H 0.62723 0.49555 0.59759 0.0
H4625 H 0.48392 0.33941 0.55102 0.0
H4626 H 0.43026 0.75497 0.41056 0.0
H4627 H 0.40218 0.75554 0.39234 0.0
H4628 H 0.43426 0.79788 0.36525 0.0
H4629 H 0.46217 0.79774 0.38374 0.0
H4630 H 0.4058 0.8066 0.37239 0.0
H4631 H 0.41476 0.75105 0.34488 0.0
H4632 H 0.41927 0.72055 0.34397 0.0
H4633 H 0.36766 0.69966 0.36356 0.0
H4634 H 0.36295 0.73011 0.36479 0.0
H4635 H 0.3274 0.76674 0.29008 0.0
H4636 H 0.35435 0.76487 0.30907 0.0
H4637 H 0.34104 0.79583 0.35465 0.0
H4638 H 0.31427 0.7981 0.33561 0.0
H4639 H 0.36007 0.75033 0.33804 0.0
H4640 H 0.37994 0.8218 0.38208 0.0
H4641 H 0.37728 0.85268 0.37981 0.0
H4642 H 0.37459 0.8424 0.32176 0.0
H4643 H 0.37748 0.81158 0.32371 0.0
C4644 C 0.43134 0.76433 0.40065 0.0
C4645 C 0.44854 0.77627 0.39863 0.0
C4646 C 0.41523 0.76462 0.39016 0.0
C4647 C 0.41595 0.77665 0.37718 0.0
C4648 C 0.43317 0.7885 0.37514 0.0
C4649 C 0.4492 0.78833 0.38571 0.0
C4650 C 0.39889 0.7772 0.36588 0.0
C4651 C 0.3958 0.79424 0.36495 0.0
C4652 C 0.38581 0.76121 0.35584 0.0
C4653 C 0.3886 0.7429 0.35511 0.0
C4654 C 0.40444 0.73998 0.34912 0.0
C4655 C 0.40702 0.7227 0.34853 0.0
C4656 C 0.39378 0.70819 0.35376 0.0
C4657 C 0.37791 0.71092 0.35954 0.0
C4658 C 0.37527 0.72818 0.36018 0.0
C4659 C 0.33017 0.77317 0.30415 0.0
C4660 C 0.31867 0.78273 0.3112 0.0
C4661 C 0.34561 0.77203 0.31505 0.0
C4662 C 0.35001 0.78039 0.33333 0.0
C4663 C 0.33827 0.78956 0.34054 0.0
C4664 C 0.32288 0.79081 0.3296 0.0
C4665 C 0.36697 0.7797 0.34466 0.0
C4666 C 0.37001 0.76265 0.3456 0.0
C4667 C 0.38025 0.79573 0.35435 0.0
C4668 C 0.37872 0.81432 0.35304 0.0
C4669 C 0.37884 0.82616 0.36884 0.0
C4670 C 0.37728 0.84365 0.36761 0.0
C4671 C 0.3757 0.84947 0.35065 0.0
C4672 C 0.37575 0.83785 0.33488 0.0
C4673 C 0.37732 0.82037 0.33604 0.0
H4674 H 0.37448 0.86301 0.34972 0.0
H4675 H 0.3958 0.69482 0.35328 0.0
H4676 H 0.06804 0.7529 0.07969 0.0
H4677 H 0.06714 0.72105 0.07019 0.0
H4678 H 0.01776 0.70185 0.09453 0.0
H4679 H 0.01911 0.73353 0.10462 0.0
H4680 H 0.03799 0.6832 0.10399 0.0
H4681 H 0.02078 0.69808 0.04538 0.0
H4682 H 0.02403 0.71577 0.01971 0.0
H4683 H 0.07507 0.70542 0.01273 0.0
H4684 H 0.07222 0.68785 0.03851 0.0
H4685 H 0.01153 0.58859 0.06698 0.0
H4686 H 0.01366 0.62093 0.07384 0.0
H4687 H 0.06656 0.6363 0.05525 0.0
H4688 H 0.06449 0.60382 0.04814 0.0
H4689 H 0.04615 0.65697 0.04283 0.0
H4690 H 0.06228 0.64105 0.10103 0.0
H4691 H 0.05821 0.6228 0.12626 0.0
H4692 H 0.00801 0.63483 0.13352 0.0
H4693 H 0.01165 0.65295 0.10817 0.0
C4694 C 0.05677 0.74189 0.08266 0.0
C4695 C 0.04359 0.74593 0.09287 0.0
C4696 C 0.05624 0.72355 0.07721 0.0
C4697 C 0.0423 0.70868 0.08147 0.0
C4698 C 0.02879 0.71281 0.09108 0.0
C4699 C 0.02948 0.73106 0.09675 0.0
C4700 C 0.04212 0.68893 0.07687 0.0
C4701 C 0.0395 0.67751 0.09049 0.0
C4702 C 0.04463 0.68125 0.05946 0.0
C4703 C 0.04638 0.69182 0.04399 0.0
C4704 C 0.03276 0.6997 0.03846 0.0
C4705 C 0.03452 0.70968 0.02387 0.0
C4706 C 0.04977 0.71176 0.01463 0.0
C4707 C 0.06327 0.70382 0.01992 0.0
C4708 C 0.06159 0.69384 0.03451 0.0
C4709 C 0.02372 0.59875 0.06438 0.0
C4710 C 0.03789 0.59331 0.05705 0.0
C4711 C 0.02493 0.61739 0.0684 0.0
C4712 C 0.04037 0.63131 0.0653 0.0
C4713 C 0.05449 0.62597 0.05784 0.0
C4714 C 0.05331 0.60728 0.05386 0.0
C4715 C 0.04171 0.65132 0.06985 0.0
C4716 C 0.04461 0.66275 0.05629 0.0
C4717 C 0.03933 0.65901 0.08727 0.0
C4718 C 0.03717 0.64822 0.1026 0.0
C4719 C 0.05031 0.63969 0.10793 0.0
C4720 C 0.04809 0.62939 0.12226 0.0
C4721 C 0.03284 0.62762 0.13146 0.0
C4722 C 0.0198 0.6362 0.12637 0.0
C4723 C 0.02195 0.6465 0.11203 0.0
H4724 H 0.03114 0.61964 0.14255 0.0
H4725 H 0.05111 0.7195 0.00334 0.0
H4726 H 0.06405 0.28648 0.92383 0.0
H4727 H 0.09084 0.29073 0.90762 0.0
H4728 H 0.0576 0.25171 0.86218 0.0
H4729 H 0.03109 0.24686 0.87863 0.0
H4730 H 0.08802 0.24497 0.86758 0.0
H4731 H 0.07287 0.30081 0.86291 0.0
H4732 H 0.06658 0.32939 0.87435 0.0
H4733 H 0.12032 0.34986 0.9053 0.0
H4734 H 0.12685 0.32129 0.89421 0.0
H4735 H 0.14678 0.26608 0.80023 0.0
H4736 H 0.1216 0.26291 0.81841 0.0
H4737 H 0.15937 0.29654 0.86433 0.0
H4738 H 0.18463 0.30012 0.84606 0.0
H4739 H 0.12796 0.30632 0.85991 0.0
H4740 H 0.14313 0.25038 0.86284 0.0
H4741 H 0.14905 0.22193 0.8503 0.0
H4742 H 0.09442 0.20178 0.82127 0.0
H4743 H 0.08825 0.23023 0.83343 0.0
C4744 C 0.06245 0.27888 0.91034 0.0
C4745 C 0.0454 0.26635 0.90253 0.0
C4746 C 0.07778 0.28139 0.90102 0.0
C4747 C 0.07633 0.27173 0.88348 0.0
C4748 C 0.05923 0.25932 0.87567 0.0
C4749 C 0.04401 0.2566 0.88508 0.0
C4750 C 0.09257 0.27414 0.87336 0.0
C4751 C 0.09656 0.25842 0.86573 0.0
C4752 C 0.10416 0.29165 0.87124 0.0
C4753 C 0.10027 0.30884 0.87788 0.0
C4754 C 0.0833 0.31136 0.87226 0.0
C4755 C 0.07969 0.32756 0.87866 0.0
C4756 C 0.09302 0.34141 0.89058 0.0
C4757 C 0.11 0.3391 0.89609 0.0
C4758 C 0.11366 0.32292 0.88974 0.0
C4759 C 0.14976 0.27292 0.81415 0.0
C4760 C 0.1678 0.28337 0.82164 0.0
C4761 C 0.13533 0.27096 0.82461 0.0
C4762 C 0.13855 0.27934 0.84284 0.0
C4763 C 0.15651 0.28989 0.85033 0.0
C4764 C 0.17098 0.2918 0.83989 0.0
C4765 C 0.12315 0.27717 0.85398 0.0
C4766 C 0.11938 0.29291 0.86181 0.0
C4767 C 0.11165 0.25968 0.85615 0.0
C4768 C 0.11529 0.24251 0.84893 0.0
C4769 C 0.13242 0.23994 0.85368 0.0
C4770 C 0.13581 0.22381 0.84665 0.0
C4771 C 0.12213 0.21008 0.83497 0.0
C4772 C 0.10501 0.21244 0.83031 0.0
C4773 C 0.10155 0.22855 0.83728 0.0
H4774 H 0.12479 0.1976 0.82954 0.0
H4775 H 0.0902 0.35394 0.89553 0.0
H4776 H 0.56838 0.77696 0.93736 0.0
H4777 H 0.56379 0.75069 0.95377 0.0
H4778 H 0.51434 0.72194 0.91702 0.0
H4779 H 0.51872 0.74843 0.90062 0.0
H4780 H 0.5094 0.71723 0.95156 0.0
H4781 H 0.55455 0.71143 0.91331 0.0
H4782 H 0.58336 0.72178 0.9002 0.0
H4783 H 0.6144 0.73111 0.95325 0.0
H4784 H 0.58574 0.72105 0.96672 0.0
H4785 H 0.50148 0.63029 0.98011 0.0
H4786 H 0.50454 0.65546 0.96221 0.0
H4787 H 0.55579 0.6858 0.99553 0.0
H4788 H 0.5529 0.66056 0.01331 0.0
H4789 H 0.55915 0.68892 0.96148 0.0
H4790 H 0.51433 0.69584 0.99997 0.0
H4791 H 0.48567 0.68588 0.01342 0.0
H4792 H 0.45423 0.67481 0.9604 0.0
H4793 H 0.48273 0.68449 0.9466 0.0
C4794 C 0.55648 0.76509 0.93274 0.0
C4795 C 0.54396 0.76482 0.91758 0.0
C4796 C 0.55392 0.74999 0.94212 0.0
C4797 C 0.53887 0.73413 0.93651 0.0
C4798 C 0.52611 0.73395 0.9216 0.0
C4799 C 0.52865 0.74911 0.9122 0.0
C4800 C 0.53655 0.71781 0.94622 0.0
C4801 C 0.52018 0.71087 0.95348 0.0
C4802 C 0.55073 0.70968 0.94912 0.0
C4803 C 0.56799 0.71563 0.94104 0.0
C4804 C 0.56751 0.71581 0.9222 0.0
C4805 C 0.58382 0.72161 0.9147 0.0
C4806 C 0.6007 0.72714 0.92589 0.0
C4807 C 0.60131 0.72684 0.9446 0.0
C4808 C 0.58504 0.72107 0.95217 0.0
C4809 C 0.51335 0.64237 0.98371 0.0
C4810 C 0.52691 0.64338 0.99823 0.0
C4811 C 0.51508 0.6568 0.97345 0.0
C4812 C 0.53028 0.67276 0.97762 0.0
C4813 C 0.54393 0.6737 0.99198 0.0
C4814 C 0.54228 0.65921 0.00214 0.0
C4815 C 0.53206 0.68841 0.967 0.0
C4816 C 0.54834 0.69523 0.95953 0.0
C4817 C 0.51782 0.69645 0.96397 0.0
C4818 C 0.50067 0.69072 0.97224 0.0
C4819 C 0.50131 0.69116 0.99117 0.0
C4820 C 0.48509 0.68559 0.99885 0.0
C4821 C 0.46814 0.67967 0.98776 0.0
C4822 C 0.46737 0.67937 0.96897 0.0
C4823 C 0.48355 0.68492 0.96121 0.0
H4824 H 0.4556 0.67536 0.99374 0.0
H4825 H 0.61331 0.73162 0.92006 0.0
H4826 H 0.06112 0.74826 0.74045 0.0
H4827 H 0.09285 0.74957 0.75037 0.0
H4828 H 0.11233 0.7975 0.72435 0.0
H4829 H 0.08071 0.79552 0.71361 0.0
H4830 H 0.13175 0.77806 0.71644 0.0
H4831 H 0.11525 0.79628 0.7742 0.0
H4832 H 0.09697 0.79396 0.79967 0.0
H4833 H 0.10684 0.74319 0.80803 0.0
H4834 H 0.12501 0.74509 0.78246 0.0
H4835 H 0.22502 0.80688 0.75837 0.0
H4836 H 0.1926 0.8042 0.75099 0.0
H4837 H 0.17748 0.74857 0.76241 0.0
H4838 H 0.2101 0.75104 0.76962 0.0
H4839 H 0.15611 0.7705 0.77801 0.0
H4840 H 0.17415 0.75438 0.72001 0.0
H4841 H 0.19366 0.75909 0.6956 0.0
H4842 H 0.18185 0.80938 0.68913 0.0
H4843 H 0.16246 0.8051 0.71369 0.0
C4844 C 0.07217 0.7593 0.73717 0.0
C4845 C 0.06824 0.77186 0.72631 0.0
C4846 C 0.09045 0.76008 0.74289 0.0
C4847 C 0.10538 0.77376 0.73835 0.0
C4848 C 0.10134 0.78668 0.72804 0.0
C4849 C 0.08313 0.78565 0.72201 0.0
C4850 C 0.12509 0.77418 0.74339 0.0
C4851 C 0.13699 0.77667 0.73004 0.0
C4852 C 0.13228 0.77194 0.76097 0.0
C4853 C 0.12132 0.77073 0.77629 0.0
C4854 C 0.1134 0.78455 0.78138 0.0
C4855 C 0.10309 0.78332 0.79585 0.0
C4856 C 0.1007 0.76841 0.80542 0.0
C4857 C 0.10867 0.75472 0.80058 0.0
C4858 C 0.119 0.75587 0.78611 0.0
C4859 C 0.21488 0.794 0.75928 0.0
C4860 C 0.22036 0.77913 0.76452 0.0
C4861 C 0.19625 0.7925 0.75503 0.0
C4862 C 0.18243 0.77616 0.75605 0.0
C4863 C 0.18779 0.76134 0.7615 0.0
C4864 C 0.2065 0.76274 0.76552 0.0
C4865 C 0.16253 0.77462 0.75115 0.0
C4866 C 0.15069 0.77188 0.76448 0.0
C4867 C 0.15545 0.77698 0.73367 0.0
C4868 C 0.16698 0.7795 0.7188 0.0
C4869 C 0.17582 0.76652 0.71348 0.0
C4870 C 0.18684 0.7691 0.69959 0.0
C4871 C 0.18903 0.78455 0.69084 0.0
C4872 C 0.18016 0.79743 0.69593 0.0
C4873 C 0.16914 0.79492 0.70982 0.0
H4874 H 0.19757 0.78652 0.6801 0.0
H4875 H 0.09271 0.76749 0.81662 0.0
H4876 H 0.05801 0.37753 0.40952 0.0
H4877 H 0.06036 0.40665 0.42834 0.0
H4878 H 0.01261 0.37953 0.45193 0.0
H4879 H 0.01034 0.35054 0.43346 0.0
H4880 H 0.03839 0.42807 0.43106 0.0
H4881 H 0.01652 0.39709 0.49591 0.0
H4882 H 0.01923 0.37139 0.51178 0.0
H4883 H 0.06716 0.37048 0.48713 0.0
H4884 H 0.0649 0.39632 0.47132 0.0
H4885 H 0.01159 0.49219 0.48961 0.0
H4886 H 0.01386 0.46554 0.46999 0.0
H4887 H 0.05924 0.46335 0.50753 0.0
H4888 H 0.05655 0.48958 0.52754 0.0
H4889 H 0.03856 0.43079 0.49772 0.0
H4890 H 0.06406 0.47917 0.46448 0.0
H4891 H 0.06531 0.50637 0.44949 0.0
H4892 H 0.01744 0.4753 0.41215 0.0
H4893 H 0.01576 0.44796 0.42705 0.0
C4894 C 0.04807 0.37776 0.41879 0.0
C4895 C 0.03407 0.3616 0.42004 0.0
C4896 C 0.04936 0.39447 0.42948 0.0
C4897 C 0.03678 0.39536 0.44175 0.0
C4898 C 0.02269 0.37925 0.44283 0.0
C4899 C 0.02139 0.36262 0.43218 0.0
C4900 C 0.03832 0.41294 0.45361 0.0
C4901 C 0.03846 0.42868 0.44564 0.0
C4902 C 0.03889 0.41402 0.47274 0.0
C4903 C 0.04041 0.39853 0.48229 0.0
C4904 C 0.02767 0.39145 0.49392 0.0
C4905 C 0.02913 0.37685 0.5029 0.0
C4906 C 0.04332 0.36927 0.50042 0.0
C4907 C 0.05613 0.37631 0.48899 0.0
C4908 C 0.05475 0.39092 0.47999 0.0
C4909 C 0.02211 0.48609 0.49368 0.0
C4910 C 0.03386 0.49307 0.51022 0.0
C4911 C 0.02348 0.47087 0.48234 0.0
C4912 C 0.03691 0.46244 0.48703 0.0
C4913 C 0.04873 0.46949 0.50351 0.0
C4914 C 0.0472 0.48456 0.51497 0.0
C4915 C 0.03818 0.44589 0.47518 0.0
C4916 C 0.03855 0.43029 0.48316 0.0
C4917 C 0.03861 0.44517 0.45616 0.0
C4918 C 0.03971 0.46153 0.44699 0.0
C4919 C 0.05373 0.47815 0.45314 0.0
C4920 C 0.05453 0.4936 0.44465 0.0
C4921 C 0.04144 0.49258 0.42991 0.0
C4922 C 0.02756 0.47608 0.42358 0.0
C4923 C 0.0267 0.46059 0.43203 0.0
H4924 H 0.04207 0.50456 0.42337 0.0
H4925 H 0.04442 0.35797 0.50737 0.0
H4926 H 0.45938 0.27103 0.20756 0.0
H4927 H 0.4315 0.27584 0.21764 0.0
H4928 H 0.42783 0.23334 0.25131 0.0
H4929 H 0.45587 0.2288 0.24158 0.0
H4930 H 0.39737 0.2567 0.21426 0.0
H4931 H 0.40563 0.23964 0.28742 0.0
H4932 H 0.43026 0.24161 0.31205 0.0
H4933 H 0.46671 0.28595 0.29116 0.0
H4934 H 0.44223 0.28438 0.26655 0.0
H4935 H 0.31186 0.2445 0.24866 0.0
H4936 H 0.34047 0.2408 0.23974 0.0
H4937 H 0.37133 0.28854 0.27807 0.0
H4938 H 0.3427 0.29211 0.28732 0.0
H4939 H 0.38889 0.2644 0.27929 0.0
H4940 H 0.36406 0.2885 0.22992 0.0
H4941 H 0.34067 0.28972 0.20546 0.0
H4942 H 0.3395 0.23681 0.17912 0.0
H4943 H 0.36275 0.23516 0.20353 0.0
C4944 C 0.45274 0.26277 0.21722 0.0
C4945 C 0.46015 0.24958 0.22378 0.0
C4946 C 0.43664 0.26548 0.22296 0.0
C4947 C 0.42735 0.25516 0.23552 0.0
C4948 C 0.43468 0.24187 0.24196 0.0
C4949 C 0.45081 0.2392 0.23627 0.0
C4950 C 0.40999 0.25813 0.24162 0.0
C4951 C 0.3956 0.25833 0.22851 0.0
C4952 C 0.40739 0.2606 0.26022 0.0
C4953 C 0.42215 0.26176 0.27505 0.0
C4954 C 0.41888 0.24985 0.28813 0.0
C4955 C 0.43282 0.25089 0.30208 0.0
C4956 C 0.45006 0.26386 0.30314 0.0
C4957 C 0.45337 0.27586 0.29029 0.0
C4958 C 0.43948 0.27489 0.27632 0.0
C4959 C 0.32469 0.25426 0.25527 0.0
C4960 C 0.32472 0.26868 0.26876 0.0
C4961 C 0.34119 0.25217 0.25002 0.0
C4962 C 0.35838 0.26453 0.25791 0.0
C4963 C 0.35845 0.27875 0.27162 0.0
C4964 C 0.34193 0.28082 0.27691 0.0
C4965 C 0.37616 0.26263 0.25191 0.0
C4966 C 0.39063 0.26266 0.26504 0.0
C4967 C 0.37896 0.26067 0.23335 0.0
C4968 C 0.36502 0.26164 0.21864 0.0
C4969 C 0.35872 0.27707 0.21898 0.0
C4970 C 0.3455 0.27785 0.20511 0.0
C4971 C 0.33856 0.26334 0.19078 0.0
C4972 C 0.34487 0.24803 0.19025 0.0
C4973 C 0.35808 0.24717 0.20408 0.0
H4974 H 0.32832 0.26397 0.18007 0.0
H4975 H 0.46083 0.26464 0.31394 0.0
H4976 H 0.56532 0.53334 0.33872 0.0
H4977 H 0.55671 0.53068 0.36914 0.0
H4978 H 0.60512 0.51539 0.38478 0.0
H4979 H 0.61322 0.5171 0.35399 0.0
H4980 H 0.57991 0.49704 0.40071 0.0
H4981 H 0.6014 0.56082 0.39609 0.0
H4982 H 0.60312 0.5892 0.38305 0.0
H4983 H 0.54713 0.58332 0.39043 0.0
H4984 H 0.54501 0.55476 0.40331 0.0
H4985 H 0.58065 0.53871 0.49737 0.0
H4986 H 0.58935 0.5361 0.4666 0.0
H4987 H 0.53276 0.50916 0.44445 0.0
H4988 H 0.52403 0.51106 0.47509 0.0
H4989 H 0.56339 0.54869 0.43295 0.0
H4990 H 0.54384 0.48197 0.43673 0.0
H4991 H 0.54587 0.45527 0.45118 0.0
H4992 H 0.60339 0.46927 0.44676 0.0
H4993 H 0.60183 0.49651 0.43297 0.0
C4994 C 0.57402 0.5292 0.34858 0.0
C4995 C 0.59 0.5255 0.34393 0.0
C4996 C 0.56918 0.52784 0.36608 0.0
C4997 C 0.58051 0.52334 0.37959 0.0
C4998 C 0.59614 0.51899 0.37474 0.0
C4999 C 0.60078 0.51996 0.35709 0.0
C5000 C 0.57623 0.52352 0.39876 0.0
C5001 C 0.57643 0.50844 0.40772 0.0
C5002 C 0.57176 0.53837 0.40821 0.0
C5003 C 0.573 0.55556 0.4005 0.0
C5004 C 0.58942 0.56551 0.39482 0.0
C5005 C 0.59047 0.58164 0.38747 0.0
C5006 C 0.57523 0.58803 0.38587 0.0
C5007 C 0.55892 0.57833 0.39165 0.0
C5008 C 0.55779 0.56219 0.39899 0.0
C5009 C 0.5701 0.53198 0.48597 0.0
C5010 C 0.55165 0.525 0.48872 0.0
C5011 C 0.5751 0.53046 0.46841 0.0
C5012 C 0.56173 0.52219 0.45327 0.0
C5013 C 0.54334 0.51526 0.45597 0.0
C5014 C 0.53838 0.51638 0.47352 0.0
C5015 C 0.5667 0.52211 0.43451 0.0
C5016 C 0.5668 0.53732 0.42578 0.0
C5017 C 0.57181 0.50759 0.42545 0.0
C5018 C 0.57279 0.49153 0.43422 0.0
C5019 C 0.557 0.47964 0.43926 0.0
C5020 C 0.55806 0.46435 0.44727 0.0
C5021 C 0.57479 0.46066 0.45003 0.0
C5022 C 0.59047 0.47222 0.44474 0.0
C5023 C 0.58952 0.48763 0.43692 0.0
H5024 H 0.57556 0.44878 0.45615 0.0
H5025 H 0.57607 0.60052 0.38017 0.0
H5026 H 0.24149 0.86002 0.04657 0.0
H5027 H 0.24642 0.8485 0.07507 0.0
H5028 H 0.27594 0.90353 0.10135 0.0
H5029 H 0.27124 0.91521 0.07278 0.0
H5030 H 0.29613 0.88058 0.10404 0.0
H5031 H 0.23594 0.88002 0.11464 0.0
H5032 H 0.20243 0.8734 0.10807 0.0
H5033 H 0.19548 0.81555 0.10054 0.0
H5034 H 0.22897 0.8218 0.10673 0.0
H5035 H 0.31383 0.84733 0.18725 0.0
H5036 H 0.30475 0.864 0.1639 0.0
H5037 H 0.27135 0.81276 0.13201 0.0
H5038 H 0.27967 0.79609 0.15564 0.0
H5039 H 0.25266 0.83693 0.13505 0.0
H5040 H 0.31222 0.83721 0.12001 0.0
H5041 H 0.34568 0.84306 0.126 0.0
H5042 H 0.35346 0.90059 0.14098 0.0
H5043 H 0.32001 0.89503 0.1353 0.0
C5044 C 0.24867 0.86975 0.0585 0.0
C5045 C 0.25625 0.88849 0.05736 0.0
C5046 C 0.25136 0.86315 0.07482 0.0
C5047 C 0.26156 0.87517 0.09029 0.0
C5048 C 0.26804 0.89405 0.08952 0.0
C5049 C 0.26533 0.90068 0.07319 0.0
C5050 C 0.26766 0.86768 0.10625 0.0
C5051 C 0.28661 0.87137 0.11113 0.0
C5052 C 0.25521 0.85524 0.11504 0.0
C5053 C 0.23503 0.85141 0.11102 0.0
C5054 C 0.2273 0.86589 0.11139 0.0
C5055 C 0.20829 0.86219 0.10777 0.0
C5056 C 0.19683 0.84406 0.10386 0.0
C5057 C 0.20436 0.82959 0.10356 0.0
C5058 C 0.22336 0.8332 0.10713 0.0
C5059 C 0.30464 0.83962 0.1752 0.0
C5060 C 0.29745 0.8204 0.17329 0.0
C5061 C 0.29955 0.84915 0.16185 0.0
C5062 C 0.28739 0.83959 0.14625 0.0
C5063 C 0.28071 0.82038 0.144 0.0
C5064 C 0.28569 0.81085 0.15739 0.0
C5065 C 0.28106 0.84958 0.13252 0.0
C5066 C 0.26212 0.84635 0.1281 0.0
C5067 C 0.29349 0.86232 0.124 0.0
C5068 C 0.3136 0.86567 0.12744 0.0
C5069 C 0.32105 0.85108 0.12474 0.0
C5070 C 0.34002 0.85435 0.12804 0.0
C5071 C 0.35168 0.87217 0.13392 0.0
C5072 C 0.34441 0.88678 0.13646 0.0
C5073 C 0.32545 0.88358 0.13319 0.0
H5074 H 0.36636 0.87468 0.13646 0.0
H5075 H 0.18212 0.84124 0.10109 0.0
H5076 H 0.91857 0.57509 0.88231 0.0
H5077 H 0.92978 0.57719 0.91472 0.0
H5078 H 0.97929 0.56716 0.90032 0.0
H5079 H 0.96844 0.56522 0.86823 0.0
H5080 H 0.9508 0.5399 0.92043 0.0
H5081 H 0.9887 0.60345 0.91842 0.0
H5082 H 0.99241 0.63578 0.9151 0.0
H5083 H 0.96081 0.64037 0.95871 0.0
H5084 H 0.95657 0.60789 0.96201 0.0
H5085 H 0.02876 0.54496 0.97559 0.0
H5086 H 0.00694 0.55226 0.95396 0.0
H5087 H 0.97741 0.56447 0.9975 0.0
H5088 H 0.99952 0.5573 0.01936 0.0
H5089 H 0.98607 0.59112 0.96883 0.0
H5090 H 0.95548 0.52938 0.97568 0.0
H5091 H 0.9537 0.49754 0.9794 0.0
H5092 H 0.97133 0.48939 0.92717 0.0
H5093 H 0.97354 0.5213 0.92326 0.0
C5094 C 0.9321 0.57396 0.88613 0.0
C5095 C 0.94255 0.56975 0.87276 0.0
C5096 C 0.93843 0.57513 0.90459 0.0
C5097 C 0.95526 0.57222 0.90974 0.0
C5098 C 0.96625 0.56944 0.8965 0.0
C5099 C 0.96001 0.56831 0.87818 0.0
C5100 C 0.9605 0.56922 0.92834 0.0
C5101 C 0.95825 0.55106 0.93117 0.0
C5102 C 0.9697 0.58381 0.94241 0.0
C5103 C 0.97203 0.60318 0.94022 0.0
C5104 C 0.98229 0.61126 0.92709 0.0
C5105 C 0.98454 0.62962 0.92526 0.0
C5106 C 0.97675 0.64008 0.93661 0.0
C5107 C 0.96673 0.63221 0.94986 0.0
C5108 C 0.96439 0.61383 0.9517 0.0
C5109 C 0.01764 0.54923 0.98053 0.0
C5110 C 0.01542 0.55011 0.99895 0.0
C5111 C 1.00523 0.5534 0.96823 0.0
C5112 C 0.99055 0.55872 0.97419 0.0
C5113 C 0.98863 0.56028 0.99271 0.0
C5114 C 1.00103 0.55592 0.00506 0.0
C5115 C 0.97709 0.56183 0.96051 0.0
C5116 C 0.97783 0.57992 0.95851 0.0
C5117 C 0.96641 0.54715 0.94715 0.0
C5118 C 0.9647 0.52777 0.94919 0.0
C5119 C 0.95906 0.52084 0.96501 0.0
C5120 C 0.95797 0.50277 0.96716 0.0
C5121 C 0.96239 0.49145 0.95353 0.0
C5122 C 0.96788 0.49817 0.9377 0.0
C5123 C 0.96902 0.51624 0.9355 0.0
H5124 H 0.96156 0.47746 0.95522 0.0
H5125 H 0.97854 0.65431 0.93521 0.0
H5126 H 0.29508 0.19617 0.59228 0.0
H5127 H 0.29387 0.21002 0.62287 0.0
H5128 H 0.2814 0.25539 0.60144 0.0
H5129 H 0.28203 0.24125 0.57052 0.0
H5130 H 0.31168 0.23959 0.64455 0.0
H5131 H 0.25386 0.27139 0.62785 0.0
H5132 H 0.22726 0.26674 0.60451 0.0
H5133 H 0.22255 0.20954 0.59271 0.0
H5134 H 0.24896 0.21381 0.61613 0.0
H5135 H 0.30481 0.29177 0.72567 0.0
H5136 H 0.30658 0.28272 0.69371 0.0
H5137 H 0.25355 0.24195 0.68863 0.0
H5138 H 0.25136 0.25159 0.72056 0.0
H5139 H 0.2562 0.25592 0.6587 0.0
H5140 H 0.29595 0.23226 0.69591 0.0
H5141 H 0.32111 0.23429 0.71998 0.0
H5142 H 0.35961 0.2695 0.69171 0.0
H5143 H 0.33463 0.26801 0.66766 0.0
C5144 C 0.29221 0.20918 0.59399 0.0
C5145 C 0.28854 0.2175 0.57881 0.0
C5146 C 0.29156 0.21712 0.61159 0.0
C5147 C 0.28727 0.23365 0.61458 0.0
C5148 C 0.28437 0.24244 0.59954 0.0
C5149 C 0.28488 0.2344 0.58184 0.0
C5150 C 0.28539 0.24121 0.6334 0.0
C5151 C 0.29957 0.24324 0.64759 0.0
C5152 C 0.2695 0.24575 0.63758 0.0
C5153 C 0.25351 0.24298 0.62358 0.0
C5154 C 0.2471 0.25781 0.6203 0.0
C5155 C 0.23207 0.25525 0.60706 0.0
C5156 C 0.22326 0.23787 0.59709 0.0
C5157 C 0.22943 0.22301 0.60039 0.0
C5158 C 0.24444 0.2255 0.61363 0.0
C5159 C 0.29341 0.28099 0.71771 0.0
C5160 C 0.27799 0.27228 0.7257 0.0
C5161 C 0.2945 0.27575 0.69941 0.0
C5162 C 0.28044 0.26128 0.68877 0.0
C5163 C 0.26465 0.25307 0.69652 0.0
C5164 C 0.2634 0.25858 0.71479 0.0
C5165 C 0.2825 0.25431 0.66983 0.0
C5166 C 0.26837 0.2524 0.65563 0.0
C5167 C 0.29828 0.24947 0.66571 0.0
C5168 C 0.31337 0.25016 0.68006 0.0
C5169 C 0.30976 0.24054 0.69488 0.0
C5170 C 0.32399 0.2416 0.70854 0.0
C5171 C 0.34194 0.25207 0.70742 0.0
C5172 C 0.3457 0.26145 0.6926 0.0
C5173 C 0.33151 0.2605 0.67896 0.0
H5174 H 0.35293 0.25286 0.71799 0.0
H5175 H 0.21164 0.23592 0.58683 0.0
H5176 H 0.569 0.53185 0.24914 0.0
H5177 H 0.5552 0.53256 0.21833 0.0
H5178 H 0.59992 0.51837 0.19637 0.0
H5179 H 0.61352 0.51727 0.22687 0.0
H5180 H 0.56679 0.55375 0.19379 0.0
H5181 H 0.58629 0.49393 0.15456 0.0
H5182 H 0.58973 0.46386 0.15938 0.0
H5183 H 0.55308 0.45954 0.19962 0.0
H5184 H 0.54921 0.48944 0.19486 0.0
H5185 H 0.56108 0.56096 0.09894 0.0
H5186 H 0.57004 0.55922 0.13093 0.0
H5187 H 0.5294 0.50604 0.12556 0.0
H5188 H 0.52116 0.50737 0.09352 0.0
H5189 H 0.55766 0.50348 0.14274 0.0
H5190 H 0.52577 0.54814 0.15005 0.0
H5191 H 0.51849 0.57667 0.14575 0.0
H5192 H 0.57293 0.6086 0.17032 0.0
H5193 H 0.58061 0.58024 0.17456 0.0
C5194 C 0.57575 0.5286 0.23773 0.0
C5195 C 0.59236 0.5244 0.24058 0.0
C5196 C 0.56791 0.52915 0.22011 0.0
C5197 C 0.57641 0.52541 0.20492 0.0
C5198 C 0.59287 0.52102 0.20775 0.0
C5199 C 0.60068 0.52043 0.22529 0.0
C5200 C 0.56847 0.52653 0.18615 0.0
C5201 C 0.56472 0.54272 0.18263 0.0
C5202 C 0.56542 0.51207 0.17156 0.0
C5203 C 0.56762 0.49403 0.17447 0.0
C5204 C 0.57892 0.48653 0.1644 0.0
C5205 C 0.58095 0.46952 0.16712 0.0
C5206 C 0.57168 0.45983 0.17984 0.0
C5207 C 0.56031 0.4671 0.18983 0.0
C5208 C 0.55822 0.48409 0.18714 0.0
C5209 C 0.55394 0.54901 0.10468 0.0
C5210 C 0.54043 0.5343 0.09367 0.0
C5211 C 0.55901 0.54803 0.12303 0.0
C5212 C 0.55032 0.53254 0.1309 0.0
C5213 C 0.53646 0.51811 0.11995 0.0
C5214 C 0.53169 0.51891 0.10158 0.0
C5215 C 0.55613 0.53083 0.15021 0.0
C5216 C 0.55959 0.51452 0.15385 0.0
C5217 C 0.5584 0.54499 0.16496 0.0
C5218 C 0.55381 0.56206 0.16248 0.0
C5219 C 0.53623 0.56124 0.15443 0.0
C5220 C 0.53202 0.57738 0.15202 0.0
C5221 C 0.54525 0.59443 0.15772 0.0
C5222 C 0.5627 0.59538 0.16589 0.0
C5223 C 0.56698 0.57928 0.16832 0.0
H5224 H 0.54197 0.60691 0.15584 0.0
H5225 H 0.57327 0.44666 0.18193 0.0
H5226 H 0.21572 0.84236 0.96271 0.0
H5227 H 0.20812 0.82625 0.93145 0.0
H5228 H 0.23824 0.87578 0.91246 0.0
H5229 H 0.24446 0.89218 0.94345 0.0
H5230 H 0.21471 0.85543 0.8856 0.0
H5231 H 0.25982 0.84495 0.93001 0.0
H5232 H 0.27014 0.83561 0.95869 0.0
H5233 H 0.2314 0.78183 0.94297 0.0
H5234 H 0.2207 0.79097 0.91428 0.0
H5235 H 0.27312 0.83113 0.82775 0.0
H5236 H 0.25836 0.84214 0.8521 0.0
H5237 H 0.2255 0.78662 0.85401 0.0
H5238 H 0.24035 0.77536 0.82968 0.0
H5239 H 0.24288 0.80513 0.88718 0.0
H5240 H 0.2027 0.81609 0.83895 0.0
H5241 H 0.19591 0.82712 0.8101 0.0
H5242 H 0.2306 0.88138 0.83235 0.0
H5243 H 0.23716 0.8708 0.86152 0.0
C5244 C 0.21991 0.84994 0.95169 0.0
C5245 C 0.23084 0.86835 0.95533 0.0
C5246 C 0.21568 0.84075 0.93388 0.0
C5247 C 0.22329 0.84961 0.91975 0.0
C5248 C 0.23237 0.86858 0.92315 0.0
C5249 C 0.23597 0.87796 0.94087 0.0
C5250 C 0.22502 0.83881 0.90266 0.0
C5251 C 0.22074 0.84435 0.88594 0.0
C5252 C 0.23281 0.82423 0.903 0.0
C5253 C 0.23931 0.8187 0.92015 0.0
C5254 C 0.25345 0.83117 0.93273 0.0
C5255 C 0.25937 0.82591 0.94897 0.0
C5256 C 0.25139 0.80816 0.95267 0.0
C5257 C 0.23752 0.7956 0.9401 0.0
C5258 C 0.23152 0.8008 0.92386 0.0
C5259 C 0.26279 0.82122 0.83334 0.0
C5260 C 0.25804 0.80234 0.82691 0.0
C5261 C 0.25416 0.82758 0.84707 0.0
C5262 C 0.24058 0.81521 0.85456 0.0
C5263 C 0.23581 0.79637 0.84822 0.0
C5264 C 0.2444 0.78998 0.83443 0.0
C5265 C 0.23285 0.82194 0.87026 0.0
C5266 C 0.23619 0.81572 0.88675 0.0
C5267 C 0.22463 0.8361 0.86971 0.0
C5268 C 0.22033 0.84267 0.85242 0.0
C5269 C 0.20877 0.8304 0.83771 0.0
C5270 C 0.20489 0.83659 0.82135 0.0
C5271 C 0.21262 0.855 0.8195 0.0
C5272 C 0.22434 0.86722 0.83395 0.0
C5273 C 0.22804 0.86117 0.85044 0.0
H5274 H 0.20957 0.85977 0.80685 0.0
H5275 H 0.25599 0.80411 0.96525 0.0
H5276 H 0.95599 0.56475 0.78261 0.0
H5277 H 0.96921 0.55833 0.75518 0.0
H5278 H 0.915 0.53665 0.72464 0.0
H5279 H 0.9016 0.54292 0.75203 0.0
H5280 H 0.9346 0.51254 0.72152 0.0
H5281 H 0.94375 0.57554 0.71572 0.0
H5282 H 0.95387 0.60901 0.72546 0.0
H5283 H 0.00969 0.60877 0.73588 0.0
H5284 H 0.99987 0.57524 0.72647 0.0
H5285 H 0.96707 0.49827 0.63641 0.0
H5286 H 0.95184 0.50668 0.66172 0.0
H5287 H 1.00447 0.53197 0.69467 0.0
H5288 H 0.01981 0.52436 0.66918 0.0
H5289 H 0.98417 0.55463 0.69528 0.0
H5290 H 0.97482 0.49145 0.70266 0.0
H5291 H 0.96476 0.45797 0.69291 0.0
H5292 H 0.90937 0.45857 0.67959 0.0
H5293 H 0.91915 0.49211 0.68904 0.0
C5294 C 0.94688 0.55899 0.76998 0.0
C5295 C 0.92774 0.55417 0.76954 0.0
C5296 C 0.95447 0.55538 0.7543 0.0
C5297 C 0.94306 0.54697 0.73793 0.0
C5298 C 0.92401 0.54309 0.73719 0.0
C5299 C 0.9164 0.54675 0.75285 0.0
C5300 C 0.95093 0.54064 0.72213 0.0
C5301 C 0.94521 0.52177 0.71553 0.0
C5302 C 0.96509 0.55266 0.71473 0.0
C5303 C 0.97104 0.57283 0.72054 0.0
C5304 C 0.95816 0.58259 0.72026 0.0
C5305 C 0.96385 0.60158 0.72568 0.0
C5306 C 0.9824 0.611 0.73133 0.0
C5307 C 0.99532 0.60145 0.73153 0.0
C5308 C 0.9897 0.58245 0.72613 0.0
C5309 C 0.97538 0.5055 0.6491 0.0
C5310 C 0.99464 0.51074 0.65077 0.0
C5311 C 0.96666 0.51016 0.66359 0.0
C5312 C 0.97705 0.51993 0.68006 0.0
C5313 C 0.99623 0.52446 0.68203 0.0
C5314 C 1.00496 0.5199 0.66753 0.0
C5315 C 0.96802 0.5265 0.69483 0.0
C5316 C 0.97351 0.5454 0.70121 0.0
C5317 C 0.95367 0.51451 0.70205 0.0
C5318 C 0.94776 0.49433 0.69639 0.0
C5319 C 0.96052 0.48447 0.69751 0.0
C5320 C 0.95486 0.46548 0.69206 0.0
C5321 C 0.93645 0.45616 0.68558 0.0
C5322 C 0.92364 0.46581 0.68459 0.0
C5323 C 0.92923 0.48481 0.69 0.0
H5324 H 0.93209 0.44146 0.68138 0.0
H5325 H 0.98678 0.62571 0.73551 0.0
H5326 H 0.30354 0.20377 0.46904 0.0
H5327 H 0.30518 0.2112 0.43807 0.0
H5328 H 0.26625 0.2411 0.4452 0.0
H5329 H 0.26446 0.23366 0.476 0.0
H5330 H 0.2567 0.21854 0.4135 0.0
H5331 H 0.31199 0.26317 0.44514 0.0
H5332 H 0.34205 0.27382 0.46448 0.0
H5333 H 0.36349 0.24175 0.42683 0.0
H5334 H 0.33347 0.2307 0.40738 0.0
H5335 H 0.27219 0.27795 0.34623 0.0
H5336 H 0.27458 0.26715 0.37558 0.0
H5337 H 0.29305 0.22331 0.35153 0.0
H5338 H 0.29019 0.23377 0.3217 0.0
H5339 H 0.31399 0.25005 0.39003 0.0
H5340 H 0.25863 0.20509 0.35864 0.0
H5341 H 0.22886 0.19531 0.33888 0.0
H5342 H 0.20807 0.22861 0.37594 0.0
H5343 H 0.23787 0.23879 0.39582 0.0
C5344 C 0.2955 0.21212 0.4641 0.0
C5345 C 0.28388 0.21812 0.47507 0.0
C5346 C 0.29646 0.21637 0.44636 0.0
C5347 C 0.28585 0.22675 0.43923 0.0
C5348 C 0.27451 0.23301 0.4503 0.0
C5349 C 0.27358 0.22881 0.468 0.0
C5350 C 0.28602 0.23066 0.4201 0.0
C5351 C 0.26927 0.2255 0.40847 0.0
C5352 C 0.3024 0.23935 0.41323 0.0
C5353 C 0.32043 0.24594 0.42492 0.0
C5354 C 0.32307 0.25825 0.44107 0.0
C5355 C 0.34011 0.26439 0.45203 0.0
C5356 C 0.35465 0.25842 0.44692 0.0
C5357 C 0.3522 0.24633 0.4308 0.0
C5358 C 0.33518 0.24014 0.41979 0.0
C5359 C 0.27683 0.26603 0.3471 0.0
C5360 C 0.28101 0.25673 0.33158 0.0
C5361 C 0.27819 0.25989 0.36393 0.0
C5362 C 0.28406 0.2445 0.36574 0.0
C5363 C 0.28856 0.23528 0.3504 0.0
C5364 C 0.28684 0.24121 0.33338 0.0
C5365 C 0.28475 0.23794 0.38368 0.0
C5366 C 0.30155 0.24279 0.39508 0.0
C5367 C 0.26847 0.22892 0.39038 0.0
C5368 C 0.25051 0.22283 0.37861 0.0
C5369 C 0.24777 0.21047 0.36248 0.0
C5370 C 0.23089 0.20482 0.35129 0.0
C5371 C 0.2166 0.21135 0.35614 0.0
C5372 C 0.21916 0.22356 0.3722 0.0
C5373 C 0.23604 0.22926 0.38346 0.0
H5374 H 0.20353 0.20686 0.34747 0.0
H5375 H 0.36783 0.26319 0.45542 0.0
H5376 H 0.34764 0.62447 0.5684 0.0
H5377 H 0.36918 0.61135 0.55418 0.0
H5378 H 0.34163 0.61143 0.50109 0.0
H5379 H 0.32022 0.62512 0.51528 0.0
H5380 H 0.34525 0.57602 0.51037 0.0
H5381 H 0.38085 0.63746 0.50845 0.0
H5382 H 0.39666 0.67012 0.51992 0.0
H5383 H 0.43208 0.65523 0.55935 0.0
H5384 H 0.41626 0.62247 0.5484 0.0
H5385 H 0.41033 0.53116 0.48307 0.0
H5386 H 0.39139 0.55188 0.48315 0.0
H5387 H 0.41535 0.57543 0.53846 0.0
H5388 H 0.43464 0.55538 0.53823 0.0
H5389 H 0.41305 0.60142 0.51909 0.0
H5390 H 0.37306 0.54256 0.52818 0.0
H5391 H 0.35709 0.50939 0.51991 0.0
H5392 H 0.33022 0.51915 0.47062 0.0
H5393 H 0.34624 0.55239 0.47852 0.0
C5394 C 0.34636 0.62197 0.5537 0.0
C5395 C 0.33227 0.62568 0.5429 0.0
C5396 C 0.35871 0.6146 0.54561 0.0
C5397 C 0.35697 0.61056 0.52663 0.0
C5398 C 0.34319 0.61462 0.51576 0.0
C5399 C 0.33104 0.62241 0.52386 0.0
C5400 C 0.36844 0.60029 0.51859 0.0
C5401 C 0.36007 0.58167 0.51173 0.0
C5402 C 0.38774 0.60769 0.52087 0.0
C5403 C 0.39722 0.62744 0.52766 0.0
C5404 C 0.39186 0.64112 0.51971 0.0
C5405 C 0.40086 0.65967 0.5261 0.0
C5406 C 0.41534 0.66475 0.54038 0.0
C5407 C 0.42085 0.65128 0.5483 0.0
C5408 C 0.41187 0.63271 0.54199 0.0
C5409 C 0.41158 0.54084 0.49518 0.0
C5410 C 0.42375 0.54148 0.51074 0.0
C5411 C 0.40073 0.55259 0.49523 0.0
C5412 C 0.40189 0.56507 0.51085 0.0
C5413 C 0.41424 0.56589 0.52626 0.0
C5414 C 0.42506 0.55424 0.5262 0.0
C5415 C 0.38996 0.57703 0.51166 0.0
C5416 C 0.39823 0.59593 0.51715 0.0
C5417 C 0.37061 0.56984 0.50857 0.0
C5418 C 0.36103 0.54989 0.5038 0.0
C5419 C 0.36387 0.5376 0.5155 0.0
C5420 C 0.35479 0.51881 0.5109 0.0
C5421 C 0.3427 0.51216 0.49471 0.0
C5422 C 0.33963 0.52431 0.48313 0.0
C5423 C 0.3487 0.54313 0.48765 0.0
H5424 H 0.33567 0.4976 0.49118 0.0
H5425 H 0.4223 0.67912 0.54529 0.0
H5426 H 0.82455 0.94118 0.55947 0.0
H5427 H 0.85485 0.96222 0.55769 0.0
H5428 H 0.8739 0.91618 0.54132 0.0
H5429 H 0.84377 0.89506 0.5432 0.0
H5430 H 0.89844 0.94117 0.56722 0.0
H5431 H 0.86305 0.94172 0.51037 0.0
H5432 H 0.83691 0.94573 0.49123 0.0
H5433 H 0.85079 1.00179 0.5166 0.0
H5434 H 0.87689 0.99804 0.53606 0.0
H5435 H 0.98055 0.98313 0.53546 0.0
H5436 H 0.94933 0.96468 0.53733 0.0
H5437 H 0.9337 0.01398 0.54786 0.0
H5438 H 0.96492 0.03256 0.5449 0.0
H5439 H 0.90705 0.98896 0.52672 0.0
H5440 H 0.94401 0.98922 0.58192 0.0
H5441 H 0.97105 0.98567 0.5997 0.0
H5442 H 0.95418 0.92824 0.57844 0.0
H5443 H 0.92736 0.93161 0.55984 0.0
C5444 C 0.83517 0.93552 0.5555 0.0
C5445 C 0.83168 0.91641 0.55145 0.0
C5446 C 0.85248 0.94757 0.55442 0.0
C5447 C 0.8666 0.94077 0.54923 0.0
C5448 C 0.86321 0.92173 0.54536 0.0
C5449 C 0.84593 0.90968 0.5464 0.0
C5450 C 0.88498 0.95341 0.54787 0.0
C5451 C 0.90036 0.95151 0.55824 0.0
C5452 C 0.88741 0.96725 0.53656 0.0
C5453 C 0.8718 0.96954 0.5248 0.0
C5454 C 0.86044 0.95486 0.51196 0.0
C5455 C 0.84565 0.95709 0.50104 0.0
C5456 C 0.84216 0.97398 0.50273 0.0
C5457 C 0.85349 0.9887 0.51532 0.0
C5458 C 0.86829 0.98654 0.52629 0.0
C5459 C 0.97047 0.99006 0.53819 0.0
C5460 C 0.9752 0.0093 0.5403 0.0
C5461 C 0.95261 0.97949 0.5393 0.0
C5462 C 0.93922 0.98792 0.54325 0.0
C5463 C 0.94381 0.00715 0.54493 0.0
C5464 C 0.96164 0.01776 0.54333 0.0
C5465 C 0.92061 0.97658 0.54589 0.0
C5466 C 0.90517 0.97874 0.53582 0.0
C5467 C 0.9181 0.963 0.55757 0.0
C5468 C 0.93372 0.96071 0.56939 0.0
C5469 C 0.94607 0.97583 0.58098 0.0
C5470 C 0.9614 0.97385 0.5912 0.0
C5471 C 0.96432 0.95672 0.5903 0.0
C5472 C 0.9519 0.94151 0.57914 0.0
C5473 C 0.93665 0.94346 0.56871 0.0
H5474 H 0.97621 0.95523 0.59823 0.0
H5475 H 0.8307 0.97568 0.49426 0.0
H5476 H 0.91244 0.09065 0.29131 0.0
H5477 H 0.89688 0.11425 0.29445 0.0
H5478 H 0.8578 0.08549 0.24737 0.0
H5479 H 0.87349 0.06224 0.2439 0.0
H5480 H 0.86815 0.12097 0.24574 0.0
H5481 H 0.84786 0.0834 0.29216 0.0
H5482 H 0.85232 0.06877 0.31924 0.0
H5483 H 0.88022 0.12163 0.35059 0.0
H5484 H 0.87611 0.13655 0.32363 0.0
H5485 H 0.79459 0.15743 0.2551 0.0
H5486 H 0.81444 0.1378 0.2531 0.0
H5487 H 0.85023 0.17116 0.30042 0.0
H5488 H 0.83033 0.19078 0.30256 0.0
H5489 H 0.84419 0.13588 0.30289 0.0
H5490 H 0.86219 0.17384 0.25756 0.0
H5491 H 0.85726 0.18883 0.23088 0.0
H5492 H 0.83426 0.13614 0.19767 0.0
H5493 H 0.83872 0.12081 0.22424 0.0
C5494 C 0.90052 0.08937 0.28166 0.0
C5495 C 0.89418 0.07453 0.26739 0.0
C5496 C 0.8916 0.10284 0.28348 0.0
C5497 C 0.87602 0.10158 0.27124 0.0
C5498 C 0.86979 0.08682 0.25696 0.0
C5499 C 0.87876 0.07347 0.25505 0.0
C5500 C 0.86602 0.11547 0.27322 0.0
C5501 C 0.86278 0.1241 0.25819 0.0
C5502 C 0.85946 0.12003 0.28963 0.0
C5503 C 0.86184 0.11107 0.30584 0.0
C5504 C 0.85505 0.09189 0.3048 0.0
C5505 C 0.8575 0.08355 0.32013 0.0
C5506 C 0.8666 0.09426 0.33661 0.0
C5507 C 0.87321 0.11334 0.33781 0.0
C5508 C 0.87081 0.12175 0.32252 0.0
C5509 C 0.80678 0.1607 0.26497 0.0
C5510 C 0.81088 0.17567 0.27898 0.0
C5511 C 0.81813 0.14946 0.26382 0.0
C5512 C 0.83397 0.15311 0.27649 0.0
C5513 C 0.83809 0.16805 0.2905 0.0
C5514 C 0.82668 0.17923 0.29173 0.0
C5515 C 0.84602 0.1411 0.2753 0.0
C5516 C 0.84968 0.13287 0.29048 0.0
C5517 C 0.85303 0.13697 0.25906 0.0
C5518 C 0.85067 0.14616 0.24294 0.0
C5519 C 0.85598 0.16544 0.24459 0.0
C5520 C 0.85328 0.174 0.22949 0.0
C5521 C 0.84543 0.16345 0.2126 0.0
C5522 C 0.84032 0.1443 0.21077 0.0
C5523 C 0.84295 0.13566 0.22585 0.0
H5524 H 0.84332 0.1701 0.20092 0.0
H5525 H 0.86848 0.08778 0.34846 0.0
H5526 H 0.73499 0.09661 0.06094 0.0
H5527 H 0.70182 0.0817 0.05538 0.0
H5528 H 0.69338 0.13283 0.04494 0.0
H5529 H 0.72643 0.14789 0.05065 0.0
H5530 H 0.67009 0.11658 0.06638 0.0
H5531 H 0.68931 0.09951 0.01011 0.0
H5532 H 0.70746 0.08698 0.98966 0.0
H5533 H 0.6872 0.03417 0.00662 0.0
H5534 H 0.66912 0.04645 0.02737 0.0
H5535 H 0.57876 0.05414 0.00913 0.0
H5536 H 0.61163 0.07002 0.01137 0.0
H5537 H 0.61823 0.06587 0.06858 0.0
H5538 H 0.58547 0.05027 0.06656 0.0
H5539 H 0.64189 0.06046 0.02109 0.0
H5540 H 0.64894 0.10482 0.09123 0.0
H5541 H 0.63 0.11899 0.10918 0.0
H5542 H 0.5968 0.12064 0.06013 0.0
H5543 H 0.6157 0.10675 0.04189 0.0
C5544 C 0.72608 0.1047 0.05751 0.0
C5545 C 0.73336 0.12344 0.05622 0.0
C5546 C 0.70714 0.09613 0.05424 0.0
C5547 C 0.69518 0.10613 0.04955 0.0
C5548 C 0.70239 0.12487 0.04851 0.0
C5549 C 0.72129 0.13344 0.05176 0.0
C5550 C 0.67512 0.09712 0.04604 0.0
C5551 C 0.66392 0.10432 0.05648 0.0
C5552 C 0.66706 0.08138 0.03281 0.0
C5553 C 0.678 0.07396 0.02043 0.0
C5554 C 0.68886 0.08527 0.00961 0.0
C5555 C 0.6991 0.0782 0.99793 0.0
C5556 C 0.69852 0.05981 0.99688 0.0
C5557 C 0.68766 0.04843 0.00747 0.0
C5558 C 0.6774 0.05543 0.01918 0.0
C5559 C 0.58722 0.05657 0.02218 0.0
C5560 C 0.57948 0.05108 0.0377 0.0
C5561 C 0.60599 0.06559 0.02341 0.0
C5562 C 0.61728 0.06932 0.04018 0.0
C5563 C 0.60968 0.06339 0.05557 0.0
C5564 C 0.59095 0.05443 0.05437 0.0
C5565 C 0.63698 0.07966 0.04177 0.0
C5566 C 0.64808 0.07274 0.03097 0.0
C5567 C 0.64492 0.09592 0.05437 0.0
C5568 C 0.63365 0.10458 0.06522 0.0
C5569 C 0.63766 0.10829 0.08428 0.0
C5570 C 0.62691 0.11626 0.0945 0.0
C5571 C 0.61217 0.12066 0.08581 0.0
C5572 C 0.60818 0.11717 0.06686 0.0
C5573 C 0.61889 0.10923 0.05657 0.0
H5574 H 0.60386 0.12681 0.09375 0.0
H5575 H 0.70645 0.05436 0.98782 0.0
H5576 H 0.21993 0.51154 0.28206 0.0
H5577 H 0.23606 0.49072 0.29238 0.0
H5578 H 0.18432 0.4483 0.28927 0.0
H5579 H 0.16805 0.46957 0.27993 0.0
H5580 H 0.20615 0.44567 0.31665 0.0
H5581 H 0.21181 0.45071 0.25429 0.0
H5582 H 0.21893 0.46637 0.22767 0.0
H5583 H 0.2753 0.48942 0.2516 0.0
H5584 H 0.26846 0.47408 0.27849 0.0
H5585 H 0.24074 0.36953 0.30232 0.0
H5586 H 0.22505 0.39276 0.30049 0.0
H5587 H 0.27719 0.43539 0.31152 0.0
H5588 H 0.29306 0.41209 0.31289 0.0
H5589 H 0.25557 0.4382 0.28134 0.0
H5590 H 0.24791 0.42929 0.34353 0.0
H5591 H 0.23871 0.4104 0.36757 0.0
H5592 H 0.18331 0.39052 0.34039 0.0
H5593 H 0.19221 0.40915 0.31609 0.0
C5594 C 0.21201 0.49783 0.28378 0.0
C5595 C 0.1928 0.49201 0.28 0.0
C5596 C 0.22122 0.48593 0.2896 0.0
C5597 C 0.21143 0.46778 0.29108 0.0
C5598 C 0.19216 0.46221 0.28811 0.0
C5599 C 0.18289 0.47431 0.28273 0.0
C5600 C 0.22136 0.45444 0.29481 0.0
C5601 C 0.21686 0.44394 0.30884 0.0
C5602 C 0.23539 0.4522 0.28466 0.0
C5603 C 0.23958 0.4614 0.26848 0.0
C5604 C 0.2257 0.45922 0.25393 0.0
C5605 C 0.22968 0.46803 0.23879 0.0
C5606 C 0.24754 0.47893 0.23797 0.0
C5607 C 0.26146 0.481 0.25227 0.0
C5608 C 0.25754 0.47224 0.26746 0.0
C5609 C 0.24886 0.38386 0.30441 0.0
C5610 C 0.26813 0.38903 0.30758 0.0
C5611 C 0.23987 0.39711 0.30357 0.0
C5612 C 0.24996 0.41577 0.30602 0.0
C5613 C 0.26918 0.42103 0.30967 0.0
C5614 C 0.27821 0.40775 0.31054 0.0
C5615 C 0.24053 0.42965 0.30329 0.0
C5616 C 0.24504 0.44014 0.28931 0.0
C5617 C 0.2262 0.43146 0.31314 0.0
C5618 C 0.22076 0.42055 0.32795 0.0
C5619 C 0.23378 0.42083 0.34264 0.0
C5620 C 0.22862 0.41018 0.35632 0.0
C5621 C 0.21045 0.39925 0.3555 0.0
C5622 C 0.19738 0.399 0.34102 0.0
C5623 C 0.20247 0.40964 0.32731 0.0
H5624 H 0.20649 0.39099 0.36608 0.0
H5625 H 0.2506 0.48573 0.22623 0.0
H5626 H 0.21713 0.39432 0.03321 0.0
H5627 H 0.19404 0.41058 0.03266 0.0
H5628 H 0.22954 0.45349 0.07377 0.0
H5629 H 0.2522 0.43702 0.07486 0.0
H5630 H 0.19667 0.44602 0.08179 0.0
H5631 H 0.22322 0.45757 0.02671 0.0
H5632 H 0.23224 0.44909 0.99697 0.0
H5633 H 0.17603 0.4197 0.97613 0.0
H5634 H 0.16669 0.42782 0.00583 0.0
H5635 H 0.159 0.51897 0.07091 0.0
H5636 H 0.17877 0.49913 0.07127 0.0
H5637 H 0.13643 0.45605 0.03606 0.0
H5638 H 0.11677 0.47593 0.03554 0.0
H5639 H 0.17049 0.46157 0.02465 0.0
H5640 H 0.14401 0.45261 0.0795 0.0
H5641 H 0.13539 0.46248 0.10896 0.0
H5642 H 0.1922 0.48807 0.1303 0.0
H5643 H 0.20116 0.47869 0.10078 0.0
C5644 C 0.21999 0.40723 0.04209 0.0
C5645 C 0.2365 0.41438 0.05406 0.0
C5646 C 0.20681 0.41657 0.04172 0.0
C5647 C 0.21008 0.43341 0.05304 0.0
C5648 C 0.22661 0.44052 0.06495 0.0
C5649 C 0.23961 0.4311 0.06551 0.0
C5650 C 0.19639 0.44371 0.05273 0.0
C5651 C 0.19112 0.44957 0.06929 0.0
C5652 C 0.1887 0.44799 0.03641 0.0
C5653 C 0.19429 0.44313 0.01854 0.0
C5654 C 0.2128 0.44918 0.01582 0.0
C5655 C 0.21797 0.44446 0.99897 0.0
C5656 C 0.20473 0.43382 0.98469 0.0
C5657 C 0.18628 0.42791 0.98722 0.0
C5658 C 0.18104 0.43258 0.00405 0.0
C5659 C 0.1539 0.50527 0.06325 0.0
C5660 C 0.13626 0.49899 0.05317 0.0
C5661 C 0.16517 0.49391 0.06355 0.0
C5662 C 0.15905 0.47607 0.05375 0.0
C5663 C 0.14144 0.46975 0.04373 0.0
C5664 C 0.13015 0.48106 0.04357 0.0
C5665 C 0.17114 0.46412 0.05372 0.0
C5666 C 0.17602 0.45793 0.03711 0.0
C5667 C 0.17858 0.45965 0.07 0.0
C5668 C 0.17325 0.46508 0.08786 0.0
C5669 C 0.15467 0.46046 0.09042 0.0
C5670 C 0.14972 0.46596 0.10715 0.0
C5671 C 0.16324 0.47592 0.1215 0.0
C5672 C 0.18174 0.48037 0.11916 0.0
C5673 C 0.18676 0.47496 0.10243 0.0
H5674 H 0.15939 0.48017 0.13445 0.0
H5675 H 0.20875 0.43018 0.97165 0.0
H5676 H 0.87102 0.98807 0.26307 0.0
H5677 H 0.8494 0.95769 0.26354 0.0
H5678 H 0.89462 0.93582 0.27265 0.0
H5679 H 0.91628 0.96603 0.27223 0.0
H5680 H 0.86687 0.91338 0.24651 0.0
H5681 H 0.87347 0.94559 0.30734 0.0
H5682 H 0.87258 0.97098 0.33015 0.0
H5683 H 0.81535 0.9606 0.31168 0.0
H5684 H 0.81597 0.93528 0.28858 0.0
H5685 H 0.82823 0.83031 0.27832 0.0
H5686 H 0.84609 0.86105 0.27441 0.0
H5687 H 0.79741 0.87824 0.27328 0.0
H5688 H 0.77948 0.84749 0.27793 0.0
H5689 H 0.82462 0.90362 0.29309 0.0
H5690 H 0.81724 0.86974 0.2337 0.0
H5691 H 0.81805 0.84415 0.21108 0.0
H5692 H 0.87624 0.85756 0.22622 0.0
H5693 H 0.87575 0.88309 0.2491 0.0
C5694 C 0.87636 0.97678 0.26511 0.0
C5695 C 0.8954 0.97951 0.26768 0.0
C5696 C 0.86399 0.95945 0.26543 0.0
C5697 C 0.87042 0.94454 0.26824 0.0
C5698 C 0.88937 0.94715 0.27045 0.0
C5699 C 0.90173 0.96446 0.27028 0.0
C5700 C 0.85751 0.92622 0.26915 0.0
C5701 C 0.85771 0.91119 0.25676 0.0
C5702 C 0.8452 0.92349 0.2822 0.0
C5703 C 0.84482 0.93869 0.29609 0.0
C5704 C 0.86074 0.94883 0.30803 0.0
C5705 C 0.86028 0.96319 0.32104 0.0
C5706 C 0.84393 0.96744 0.32233 0.0
C5707 C 0.82801 0.95731 0.31064 0.0
C5708 C 0.8284 0.94295 0.2976 0.0
C5709 C 0.82125 0.84057 0.27713 0.0
C5710 C 0.80239 0.83641 0.27831 0.0
C5711 C 0.8315 0.85816 0.2748 0.0
C5712 C 0.82306 0.87191 0.27313 0.0
C5713 C 0.80422 0.86784 0.27443 0.0
C5714 C 0.79398 0.85026 0.27706 0.0
C5715 C 0.83408 0.89062 0.27056 0.0
C5716 C 0.83357 0.90576 0.28265 0.0
C5717 C 0.84604 0.89346 0.25715 0.0
C5718 C 0.84643 0.87827 0.24321 0.0
C5719 C 0.83019 0.86718 0.23227 0.0
C5720 C 0.8306 0.85268 0.2194 0.0
C5721 C 0.84718 0.84921 0.21724 0.0
C5722 C 0.8634 0.86026 0.22791 0.0
C5723 C 0.86308 0.87477 0.24082 0.0
H5724 H 0.84745 0.83797 0.20728 0.0
H5725 H 0.8436 0.97856 0.33241 0.0
H5726 H 0.70987 0.08313 0.76775 0.0
H5727 H 0.72155 0.11628 0.77639 0.0
H5728 H 0.66673 0.11833 0.78124 0.0
H5729 H 0.65477 0.08495 0.77245 0.0
H5730 H 0.68501 0.1443 0.76233 0.0
H5731 H 0.69575 0.12507 0.8192 0.0
H5732 H 0.70592 0.10693 0.84085 0.0
H5733 H 0.76149 0.1288 0.83059 0.0
H5734 H 0.75163 0.14687 0.80867 0.0
H5735 H 0.7507 0.23711 0.81679 0.0
H5736 H 0.73124 0.20566 0.81679 0.0
H5737 H 0.73761 0.19162 0.76076 0.0
H5738 H 0.75667 0.22295 0.7605 0.0
H5739 H 0.7375 0.17325 0.8112 0.0
H5740 H 0.6991 0.16294 0.73782 0.0
H5741 H 0.68865 0.18173 0.71708 0.0
H5742 H 0.68609 0.2197 0.76274 0.0
H5743 H 0.69623 0.20099 0.78377 0.0
C5744 C 0.70024 0.09057 0.77065 0.0
C5745 C 0.68138 0.0814 0.76941 0.0
C5746 C 0.70698 0.10951 0.77573 0.0
C5747 C 0.69503 0.11965 0.77975 0.0
C5748 C 0.67616 0.11065 0.77832 0.0
C5749 C 0.66937 0.09163 0.77327 0.0
C5750 C 0.7024 0.13978 0.78457 0.0
C5751 C 0.69633 0.15069 0.77315 0.0
C5752 C 0.71686 0.14807 0.79899 0.0
C5753 C 0.72292 0.13727 0.81221 0.0
C5754 C 0.71012 0.12592 0.82146 0.0
C5755 C 0.71584 0.11566 0.8338 0.0
C5756 C 0.73433 0.1167 0.83708 0.0
C5757 C 0.74716 0.12802 0.82804 0.0
C5758 C 0.74152 0.1383 0.81568 0.0
C5759 C 0.74797 0.2273 0.80449 0.0
C5760 C 0.75507 0.23251 0.78859 0.0
C5761 C 0.73685 0.20938 0.80452 0.0
C5762 C 0.7327 0.19649 0.78867 0.0
C5763 C 0.74028 0.20153 0.77299 0.0
C5764 C 0.75126 0.21941 0.7729 0.0
C5765 C 0.72071 0.17759 0.78838 0.0
C5766 C 0.7259 0.16693 0.80066 0.0
C5767 C 0.70525 0.16957 0.77494 0.0
C5768 C 0.69851 0.18058 0.76238 0.0
C5769 C 0.69615 0.17521 0.74345 0.0
C5770 C 0.69032 0.18587 0.73164 0.0
C5771 C 0.68674 0.20192 0.73859 0.0
C5772 C 0.6889 0.20729 0.75737 0.0
C5773 C 0.6947 0.19666 0.76924 0.0
H5774 H 0.68229 0.21018 0.72942 0.0
H5775 H 0.73873 0.10874 0.84663 0.0
loop_
_geom_bond_atom_site_label_1
_geom_bond_atom_site_label_2
_geom_bond_distance
_geom_bond_site_symmetry_2
_ccdc_geom_bond_type
O0 Cd1 2.223 . S
O0 C8 1.315 . S
Cd1 O0 2.223 . S
Cd1 O4 2.297 . S
Cd1 O5 2.439 . S
Cd1 O11 2.240 . S
Cd2 O3 2.240 . S
Cd2 O10 2.223 1_455 S
Cd2 O12 2.297 . S
Cd2 O13 2.439 . S
O3 Cd2 2.240 . S
O3 C8 1.279 . S
O4 Cd1 2.297 . S
O4 C6 1.247 . S
O5 Cd1 2.439 . S
O5 C6 1.208 . S
C6 O4 1.247 . S
C6 O5 1.208 . S
C7 O12 1.247 . S
C7 O13 1.208 . S
C8 O0 1.315 . S
C8 O3 1.279 . S
C9 O10 1.315 . S
C9 O11 1.279 1_655 S
O10 Cd2 2.223 1_655 S
O10 C9 1.315 . S
O11 Cd1 2.240 . S
O11 C9 1.279 1_455 S
O12 Cd2 2.297 . S
O12 C7 1.247 . S
O13 Cd2 2.439 . S
O13 C7 1.208 . S
O14 Cd15 2.223 . S
O14 C22 1.315 . S
Cd15 O14 2.223 . S
Cd15 O18 2.297 1_455 S
Cd15 O19 2.439 1_455 S
Cd15 O25 2.240 . S
Cd16 O17 2.240 . S
Cd16 O24 2.223 . S
Cd16 O26 2.297 . S
Cd16 O27 2.439 . S
O17 Cd16 2.240 . S
O17 C22 1.279 . S
O18 Cd15 2.297 1_655 S
O18 C20 1.247 . S
O19 Cd15 2.439 1_655 S
O19 C20 1.208 . S
C20 O18 1.247 . S
C20 O19 1.208 . S
C21 O26 1.247 . S
C21 O27 1.208 . S
C22 O14 1.315 . S
C22 O17 1.279 . S
C23 O24 1.315 . S
C23 O25 1.279 . S
O24 Cd16 2.223 . S
O24 C23 1.315 . S
O25 Cd15 2.240 . S
O25 C23 1.279 . S
O26 Cd16 2.297 . S
O26 C21 1.247 . S
O27 Cd16 2.439 . S
O27 C21 1.208 . S
O28 Cd29 2.223 . S
O28 C36 1.315 . S
Cd29 O28 2.223 . S
Cd29 O32 2.297 . S
Cd29 O33 2.439 . S
Cd29 O39 2.240 . S
Cd30 O31 2.240 . S
Cd30 O38 2.223 . S
Cd30 O40 2.297 . S
Cd30 O41 2.439 . S
O31 Cd30 2.240 . S
O31 C36 1.279 . S
O32 Cd29 2.297 . S
O32 C34 1.247 . S
O33 Cd29 2.439 . S
O33 C34 1.208 . S
C34 O32 1.247 . S
C34 O33 1.208 . S
C35 O40 1.247 . S
C35 O41 1.208 . S
C36 O28 1.315 . S
C36 O31 1.279 . S
C37 O38 1.315 . S
C37 O39 1.279 . S
O38 Cd30 2.223 . S
O38 C37 1.315 . S
O39 Cd29 2.240 . S
O39 C37 1.279 . S
O40 Cd30 2.297 . S
O40 C35 1.247 . S
O41 Cd30 2.439 . S
O41 C35 1.208 . S
O42 Cd43 2.223 . S
O42 C50 1.315 . S
Cd43 O42 2.223 . S
Cd43 O46 2.297 . S
Cd43 O47 2.439 . S
Cd43 O53 2.240 . S
Cd44 O45 2.240 . S
Cd44 O52 2.223 . S
Cd44 O54 2.297 . S
Cd44 O55 2.439 . S
O45 Cd44 2.240 . S
O45 C50 1.279 . S
O46 Cd43 2.297 . S
O46 C48 1.247 . S
O47 Cd43 2.439 . S
O47 C48 1.208 . S
C48 O46 1.247 . S
C48 O47 1.208 . S
C49 O54 1.247 . S
C49 O55 1.208 . S
C50 O42 1.315 . S
C50 O45 1.279 . S
C51 O52 1.315 . S
C51 O53 1.279 . S
O52 Cd44 2.223 . S
O52 C51 1.315 . S
O53 Cd43 2.240 . S
O53 C51 1.279 . S
O54 Cd44 2.297 . S
O54 C49 1.247 . S
O55 Cd44 2.439 . S
O55 C49 1.208 . S
O56 Cd57 2.223 . S
O56 C64 1.315 . S
Cd57 O56 2.223 . S
Cd57 O60 2.297 . S
Cd57 O61 2.439 . S
Cd57 O67 2.240 . S
Cd58 O59 2.240 . S
Cd58 O66 2.223 . S
Cd58 O68 2.297 . S
Cd58 O69 2.439 . S
O59 Cd58 2.240 . S
O59 C64 1.279 . S
O60 Cd57 2.297 . S
O60 C62 1.247 . S
O61 Cd57 2.439 . S
O61 C62 1.208 . S
C62 O60 1.247 . S
C62 O61 1.208 . S
C63 O68 1.247 . S
C63 O69 1.208 . S
C64 O56 1.315 . S
C64 O59 1.279 . S
C65 O66 1.315 . S
C65 O67 1.279 . S
O66 Cd58 2.223 . S
O66 C65 1.315 . S
O67 Cd57 2.240 . S
O67 C65 1.279 . S
O68 Cd58 2.297 . S
O68 C63 1.247 . S
O69 Cd58 2.439 . S
O69 C63 1.208 . S
O70 Cd71 2.223 . S
O70 C78 1.315 . S
Cd71 O70 2.223 . S
Cd71 O74 2.297 . S
Cd71 O75 2.439 . S
Cd71 O81 2.240 . S
Cd72 O73 2.240 . S
Cd72 O80 2.223 . S
Cd72 O82 2.297 . S
Cd72 O83 2.439 . S
O73 Cd72 2.240 . S
O73 C78 1.279 . S
O74 Cd71 2.297 . S
O74 C76 1.247 . S
O75 Cd71 2.439 . S
O75 C76 1.208 . S
C76 O74 1.247 . S
C76 O75 1.208 . S
C77 O82 1.247 . S
C77 O83 1.208 . S
C78 O70 1.315 . S
C78 O73 1.279 . S
C79 O80 1.315 . S
C79 O81 1.279 . S
O80 Cd72 2.223 . S
O80 C79 1.315 . S
O81 Cd71 2.240 . S
O81 C79 1.279 . S
O82 Cd72 2.297 . S
O82 C77 1.247 . S
O83 Cd72 2.439 . S
O83 C77 1.208 . S
O84 Cd85 2.223 . S
O84 C92 1.315 . S
Cd85 O84 2.223 . S
Cd85 O88 2.297 . S
Cd85 O89 2.439 . S
Cd85 O95 2.240 . S
Cd86 O87 2.240 . S
Cd86 O94 2.223 . S
Cd86 O96 2.297 . S
Cd86 O97 2.439 . S
O87 Cd86 2.240 . S
O87 C92 1.279 . S
O88 Cd85 2.297 . S
O88 C90 1.247 . S
O89 Cd85 2.439 . S
O89 C90 1.208 . S
C90 O88 1.247 . S
C90 O89 1.208 . S
C91 O96 1.247 . S
C91 O97 1.208 . S
C92 O84 1.315 . S
C92 O87 1.279 . S
C93 O94 1.315 . S
C93 O95 1.279 . S
O94 Cd86 2.223 . S
O94 C93 1.315 . S
O95 Cd85 2.240 . S
O95 C93 1.279 . S
O96 Cd86 2.297 . S
O96 C91 1.247 . S
O97 Cd86 2.439 . S
O97 C91 1.208 . S
O98 Cd99 2.223 1_655 S
O98 C106 1.315 . S
Cd99 O98 2.223 1_455 S
Cd99 O102 2.297 . S
Cd99 O103 2.439 . S
Cd99 O109 2.240 1_455 S
Cd100 O101 2.240 1_655 S
Cd100 O108 2.223 . S
Cd100 O110 2.297 . S
Cd100 O111 2.439 1_655 S
O101 Cd100 2.240 1_455 S
O101 C106 1.279 1_455 S
O102 Cd99 2.297 . S
O102 C104 1.247 . S
O103 Cd99 2.439 . S
O103 C104 1.208 . S
C104 O102 1.247 . S
C104 O103 1.208 . S
C105 O110 1.201 1_455 S
C105 O111 1.259 . S
C106 O98 1.315 . S
C106 O101 1.279 1_655 S
C107 O108 1.315 . S
C107 O109 1.279 . S
O108 Cd100 2.223 . S
O108 C107 1.315 . S
O109 Cd99 2.240 1_655 S
O109 C107 1.279 . S
O110 Cd100 2.297 . S
O110 C105 1.201 1_655 S
O111 Cd100 2.439 1_455 S
O111 C105 1.259 . S
O112 Cd113 2.226 . S
O112 C120 1.315 . S
Cd113 O112 2.226 . S
Cd113 O116 2.297 . S
Cd113 O117 2.439 . S
Cd113 O123 2.240 1_545 S
Cd114 O115 2.240 . S
Cd114 O122 2.223 1_545 S
Cd114 O124 2.297 1_545 S
Cd114 O125 2.439 . S
O115 Cd114 2.240 . S
O115 C120 1.279 . S
O116 Cd113 2.297 . S
O116 C118 1.247 . S
O117 Cd113 2.439 . S
O117 C118 1.208 . S
C118 O116 1.247 . S
C118 O117 1.208 . S
C119 O124 1.247 1_545 S
C119 O125 1.208 . S
C120 O112 1.315 . S
C120 O115 1.279 . S
C121 O122 1.315 . S
C121 O123 1.279 . S
O122 Cd114 2.223 1_565 S
O122 C121 1.315 . S
O123 Cd113 2.240 1_565 S
O123 C121 1.279 . S
O124 Cd114 2.297 1_565 S
O124 C119 1.247 1_565 S
O125 Cd114 2.439 . S
O125 C119 1.208 . S
O126 Cd127 2.223 . S
O126 C134 1.315 . S
Cd127 O126 2.223 . S
Cd127 O130 2.297 . S
Cd127 O131 2.439 . S
Cd127 O137 2.240 . S
Cd128 O129 2.240 . S
Cd128 O136 2.223 . S
Cd128 O138 2.297 . S
Cd128 O139 2.439 . S
O129 Cd128 2.240 . S
O129 C134 1.279 . S
O130 Cd127 2.297 . S
O130 C132 1.247 . S
O131 Cd127 2.439 . S
O131 C132 1.208 . S
C132 O130 1.247 . S
C132 O131 1.208 . S
C133 O138 1.247 . S
C133 O139 1.208 . S
C134 O126 1.315 . S
C134 O129 1.279 . S
C135 O136 1.315 . S
C135 O137 1.279 . S
O136 Cd128 2.223 . S
O136 C135 1.315 . S
O137 Cd127 2.240 . S
O137 C135 1.279 . S
O138 Cd128 2.297 . S
O138 C133 1.247 . S
O139 Cd128 2.439 . S
O139 C133 1.208 . S
O140 Cd141 2.223 . S
O140 C148 1.315 . S
Cd141 O140 2.223 . S
Cd141 O144 2.233 1_545 S
Cd141 O145 2.439 1_545 S
Cd141 O151 2.240 . S
Cd142 O143 2.240 . S
Cd142 O150 2.223 . S
Cd142 O152 2.297 . S
Cd142 O153 2.439 . S
O143 Cd142 2.240 . S
O143 C148 1.279 . S
O144 Cd141 2.233 1_565 S
O144 C146 1.278 . S
O145 Cd141 2.439 1_565 S
O145 C146 1.208 . S
C146 O144 1.278 . S
C146 O145 1.208 . S
C147 O152 1.247 . S
C147 O153 1.208 . S
C148 O140 1.315 . S
C148 O143 1.279 . S
C149 O150 1.315 . S
C149 O151 1.279 . S
O150 Cd142 2.223 . S
O150 C149 1.315 . S
O151 Cd141 2.240 . S
O151 C149 1.279 . S
O152 Cd142 2.297 . S
O152 C147 1.247 . S
O153 Cd142 2.439 . S
O153 C147 1.208 . S
O154 Cd155 2.223 . S
O154 C162 1.315 . S
Cd155 O154 2.223 . S
Cd155 O158 2.297 . S
Cd155 O159 2.439 1_554 S
Cd155 O165 2.240 1_554 S
Cd156 O157 2.240 1_556 S
Cd156 O164 2.223 1_556 S
Cd156 O166 2.297 . S
Cd156 O167 2.439 . S
O157 Cd156 2.240 1_554 S
O157 C162 1.279 . S
O158 Cd155 2.297 . S
O158 C160 1.247 . S
O159 Cd155 2.439 1_556 S
O159 C160 1.208 1_556 S
C160 O158 1.247 . S
C160 O159 1.208 1_554 S
C161 O166 1.247 . S
C161 O167 1.208 . S
C162 O154 1.315 . S
C162 O157 1.279 . S
C163 O164 1.315 . S
C163 O165 1.279 1_554 S
O164 Cd156 2.223 1_554 S
O164 C163 1.315 . S
O165 Cd155 2.240 1_556 S
O165 C163 1.279 1_556 S
O166 Cd156 2.297 . S
O166 C161 1.247 . S
O167 Cd156 2.439 . S
O167 C161 1.208 . S
O168 Cd169 2.223 . S
O168 C176 1.315 . S
Cd169 O168 2.223 . S
Cd169 O172 2.297 . S
Cd169 O173 2.439 . S
Cd169 O179 2.240 . S
Cd170 O171 2.240 . S
Cd170 O178 2.223 . S
Cd170 O180 2.301 . S
Cd170 O181 2.439 . S
O171 Cd170 2.240 . S
O171 C176 1.279 . S
O172 Cd169 2.297 . S
O172 C174 1.247 . S
O173 Cd169 2.439 . S
O173 C174 1.208 . S
C174 O172 1.247 . S
C174 O173 1.208 . S
C175 O180 1.246 1_556 S
C175 O181 1.208 1_556 S
C176 O168 1.315 . S
C176 O171 1.279 . S
C177 O178 1.315 . S
C177 O179 1.279 . S
O178 Cd170 2.223 . S
O178 C177 1.315 . S
O179 Cd169 2.240 . S
O179 C177 1.279 . S
O180 Cd170 2.301 . S
O180 C175 1.246 1_554 S
O181 Cd170 2.439 . S
O181 C175 1.208 1_554 S
O182 Cd183 2.223 . S
O182 C190 1.315 . S
Cd183 O182 2.223 . S
Cd183 O186 2.297 . S
Cd183 O187 2.439 . S
Cd183 O193 2.240 . S
Cd184 O185 2.240 . S
Cd184 O192 2.223 . S
Cd184 O194 2.297 . S
Cd184 O195 2.439 . S
O185 Cd184 2.240 . S
O185 C190 1.279 . S
O186 Cd183 2.297 . S
O186 C188 1.247 . S
O187 Cd183 2.439 . S
O187 C188 1.208 . S
C188 O186 1.247 . S
C188 O187 1.208 . S
C189 O194 1.247 . S
C189 O195 1.208 . S
C190 O182 1.315 . S
C190 O185 1.279 . S
C191 O192 1.315 . S
C191 O193 1.279 . S
O192 Cd184 2.223 . S
O192 C191 1.315 . S
O193 Cd183 2.240 . S
O193 C191 1.279 . S
O194 Cd184 2.297 . S
O194 C189 1.247 . S
O195 Cd184 2.439 . S
O195 C189 1.208 . S
O196 Cd197 2.223 . S
O196 C204 1.315 . S
Cd197 O196 2.223 . S
Cd197 O200 2.297 . S
Cd197 O201 2.439 . S
Cd197 O207 2.240 . S
Cd198 O199 2.240 . S
Cd198 O206 2.223 . S
Cd198 O208 2.297 . S
Cd198 O209 2.439 . S
O199 Cd198 2.240 . S
O199 C204 1.279 . S
O200 Cd197 2.297 . S
O200 C202 1.247 . S
O201 Cd197 2.439 . S
O201 C202 1.208 . S
C202 O200 1.247 . S
C202 O201 1.208 . S
C203 O208 1.247 . S
C203 O209 1.208 . S
C204 O196 1.315 . S
C204 O199 1.279 . S
C205 O206 1.315 . S
C205 O207 1.279 . S
O206 Cd198 2.223 . S
O206 C205 1.315 . S
O207 Cd197 2.240 . S
O207 C205 1.279 . S
O208 Cd198 2.297 . S
O208 C203 1.247 . S
O209 Cd198 2.439 . S
O209 C203 1.208 . S
O210 Cd211 2.223 . S
O210 C218 1.315 . S
Cd211 O210 2.223 . S
Cd211 O214 2.297 . S
Cd211 O215 2.439 . S
Cd211 O221 2.240 . S
Cd212 O213 2.240 . S
Cd212 O220 2.223 . S
Cd212 O222 2.297 . S
Cd212 O223 2.439 . S
O213 Cd212 2.240 . S
O213 C218 1.279 . S
O214 Cd211 2.297 . S
O214 C216 1.247 . S
O215 Cd211 2.439 . S
O215 C216 1.208 . S
C216 O214 1.247 . S
C216 O215 1.208 . S
C217 O222 1.247 . S
C217 O223 1.208 . S
C218 O210 1.315 . S
C218 O213 1.279 . S
C219 O220 1.315 . S
C219 O221 1.279 . S
O220 Cd212 2.223 . S
O220 C219 1.315 . S
O221 Cd211 2.240 . S
O221 C219 1.279 . S
O222 Cd212 2.297 . S
O222 C217 1.247 . S
O223 Cd212 2.439 . S
O223 C217 1.208 . S
O224 Cd225 2.223 . S
O224 C232 1.315 . S
Cd225 O224 2.223 . S
Cd225 O228 2.297 . S
Cd225 O229 2.439 . S
Cd225 O235 2.240 . S
Cd226 O227 2.240 . S
Cd226 O234 2.223 1_545 S
Cd226 O236 2.297 . S
Cd226 O237 2.439 . S
O227 Cd226 2.240 . S
O227 C232 1.279 . S
O228 Cd225 2.297 . S
O228 C230 1.247 . S
O229 Cd225 2.439 . S
O229 C230 1.208 . S
C230 O228 1.247 . S
C230 O229 1.208 . S
C231 O236 1.247 . S
C231 O237 1.208 . S
C232 O224 1.315 . S
C232 O227 1.279 . S
C233 O234 1.315 . S
C233 O235 1.279 1_565 S
O234 Cd226 2.223 1_565 S
O234 C233 1.315 . S
O235 Cd225 2.240 . S
O235 C233 1.279 1_545 S
O236 Cd226 2.297 . S
O236 C231 1.247 . S
O237 Cd226 2.439 . S
O237 C231 1.208 . S
O238 Cd239 2.223 . S
O238 C246 1.315 . S
Cd239 O238 2.223 . S
Cd239 O242 2.297 . S
Cd239 O243 2.439 . S
Cd239 O249 2.240 . S
Cd240 O241 2.240 . S
Cd240 O248 2.223 . S
Cd240 O250 2.297 . S
Cd240 O251 2.439 . S
O241 Cd240 2.240 . S
O241 C246 1.279 . S
O242 Cd239 2.297 . S
O242 C244 1.247 . S
O243 Cd239 2.439 . S
O243 C244 1.208 . S
C244 O242 1.247 . S
C244 O243 1.208 . S
C245 O250 1.247 . S
C245 O251 1.208 . S
C246 O238 1.315 . S
C246 O241 1.279 . S
C247 O248 1.315 . S
C247 O249 1.279 . S
O248 Cd240 2.223 . S
O248 C247 1.315 . S
O249 Cd239 2.240 . S
O249 C247 1.279 . S
O250 Cd240 2.297 . S
O250 C245 1.247 . S
O251 Cd240 2.439 . S
O251 C245 1.208 . S
O252 Cd253 2.223 . S
O252 C260 1.315 . S
Cd253 O252 2.223 . S
Cd253 O256 2.297 . S
Cd253 O257 2.439 . S
Cd253 O263 2.240 . S
Cd254 O255 2.240 . S
Cd254 O262 2.223 . S
Cd254 O264 2.297 . S
Cd254 O265 2.439 . S
O255 Cd254 2.240 . S
O255 C260 1.279 . S
O256 Cd253 2.297 . S
O256 C258 1.247 . S
O257 Cd253 2.439 . S
O257 C258 1.208 . S
C258 O256 1.247 . S
C258 O257 1.208 . S
C259 O264 1.247 . S
C259 O265 1.208 . S
C260 O252 1.315 . S
C260 O255 1.279 . S
C261 O262 1.315 . S
C261 O263 1.279 . S
O262 Cd254 2.223 . S
O262 C261 1.315 . S
O263 Cd253 2.240 . S
O263 C261 1.279 . S
O264 Cd254 2.297 . S
O264 C259 1.247 . S
O265 Cd254 2.439 . S
O265 C259 1.208 . S
O266 Cd267 2.223 . S
O266 C274 1.315 . S
Cd267 O266 2.223 . S
Cd267 O270 2.297 . S
Cd267 O271 2.439 . S
Cd267 O277 2.240 . S
Cd268 O269 2.240 . S
Cd268 O276 2.223 . S
Cd268 O278 2.297 . S
Cd268 O279 2.439 . S
O269 Cd268 2.240 . S
O269 C274 1.279 . S
O270 Cd267 2.297 . S
O270 C272 1.247 . S
O271 Cd267 2.439 . S
O271 C272 1.208 . S
C272 O270 1.247 . S
C272 O271 1.208 . S
C273 O278 1.247 . S
C273 O279 1.208 . S
C274 O266 1.315 . S
C274 O269 1.279 . S
C275 O276 1.315 . S
C275 O277 1.279 . S
O276 Cd268 2.223 . S
O276 C275 1.315 . S
O277 Cd267 2.240 . S
O277 C275 1.279 . S
O278 Cd268 2.297 . S
O278 C273 1.247 . S
O279 Cd268 2.439 . S
O279 C273 1.208 . S
O280 Cd281 2.223 . S
O280 C288 1.315 . S
Cd281 O280 2.223 . S
Cd281 O284 2.297 . S
Cd281 O285 2.439 . S
Cd281 O291 2.240 . S
Cd282 O283 2.240 . S
Cd282 O290 2.223 . S
Cd282 O292 2.297 1_554 S
Cd282 O293 2.397 1_554 S
O283 Cd282 2.240 . S
O283 C288 1.279 . S
O284 Cd281 2.297 . S
O284 C286 1.247 . S
O285 Cd281 2.439 . S
O285 C286 1.208 . S
C286 O284 1.247 . S
C286 O285 1.208 . S
C287 O292 1.247 . S
C287 O293 1.235 . S
C288 O280 1.315 . S
C288 O283 1.279 . S
C289 O290 1.315 . S
C289 O291 1.279 . S
O290 Cd282 2.223 . S
O290 C289 1.315 . S
O291 Cd281 2.240 . S
O291 C289 1.279 . S
O292 Cd282 2.297 1_556 S
O292 C287 1.247 . S
O293 Cd282 2.397 1_556 S
O293 C287 1.235 . S
O294 Cd295 2.223 . S
O294 C302 1.315 . S
Cd295 O294 2.223 . S
Cd295 O298 2.297 . S
Cd295 O299 2.439 . S
Cd295 O305 2.240 . S
Cd296 O297 2.240 . S
Cd296 O304 2.223 . S
Cd296 O306 2.297 . S
Cd296 O307 2.439 . S
O297 Cd296 2.240 . S
O297 C302 1.279 . S
O298 Cd295 2.297 . S
O298 C300 1.247 . S
O299 Cd295 2.439 . S
O299 C300 1.208 . S
C300 O298 1.247 . S
C300 O299 1.208 . S
C301 O306 1.247 . S
C301 O307 1.208 . S
C302 O294 1.315 . S
C302 O297 1.279 . S
C303 O304 1.315 . S
C303 O305 1.279 . S
O304 Cd296 2.223 . S
O304 C303 1.315 . S
O305 Cd295 2.240 . S
O305 C303 1.279 . S
O306 Cd296 2.297 . S
O306 C301 1.247 . S
O307 Cd296 2.439 . S
O307 C301 1.208 . S
O308 Cd309 2.223 . S
O308 C316 1.315 . S
Cd309 O308 2.223 . S
Cd309 O312 2.297 . S
Cd309 O313 2.439 . S
Cd309 O319 2.240 . S
Cd310 O311 2.240 . S
Cd310 O318 2.223 . S
Cd310 O320 2.297 . S
Cd310 O321 2.439 . S
O311 Cd310 2.240 . S
O311 C316 1.279 . S
O312 Cd309 2.297 . S
O312 C314 1.247 . S
O313 Cd309 2.439 . S
O313 C314 1.208 . S
C314 O312 1.247 . S
C314 O313 1.208 . S
C315 O320 1.247 . S
C315 O321 1.208 . S
C316 O308 1.315 . S
C316 O311 1.279 . S
C317 O318 1.315 . S
C317 O319 1.279 . S
O318 Cd310 2.223 . S
O318 C317 1.315 . S
O319 Cd309 2.240 . S
O319 C317 1.279 . S
O320 Cd310 2.297 . S
O320 C315 1.247 . S
O321 Cd310 2.439 . S
O321 C315 1.208 . S
O322 Cd323 2.223 . S
O322 C330 1.315 . S
Cd323 O322 2.223 . S
Cd323 O326 2.297 . S
Cd323 O327 2.439 . S
Cd323 O333 2.240 . S
Cd324 O325 2.240 . S
Cd324 O332 2.223 . S
Cd324 O334 2.297 . S
Cd324 O335 2.439 . S
O325 Cd324 2.240 . S
O325 C330 1.279 . S
O326 Cd323 2.297 . S
O326 C328 1.247 . S
O327 Cd323 2.439 . S
O327 C328 1.208 . S
C328 O326 1.247 . S
C328 O327 1.208 . S
C329 O334 1.247 . S
C329 O335 1.208 . S
C330 O322 1.315 . S
C330 O325 1.279 . S
C331 O332 1.315 . S
C331 O333 1.279 . S
O332 Cd324 2.223 . S
O332 C331 1.315 . S
O333 Cd323 2.240 . S
O333 C331 1.279 . S
O334 Cd324 2.297 . S
O334 C329 1.247 . S
O335 Cd324 2.439 . S
O335 C329 1.208 . S
Dy336 O339 2.307 . S
Dy336 O341 2.395 . S
Dy336 O342 2.379 . S
Dy336 O344 2.339 . S
Dy336 O346 2.298 . S
Dy336 O350 2.275 . S
Dy336 C358 2.738 . S
Dy337 O340 2.298 1_655 S
Dy337 O343 2.275 1_655 S
Dy337 O345 2.307 1_655 S
Dy337 O347 2.395 . S
Dy337 O348 2.379 . S
Dy337 O351 2.339 1_655 S
Dy337 C367 2.738 . S
C338 O350 1.254 . S
C338 O351 1.257 . S
O339 Dy336 2.307 . S
O339 C349 1.266 . S
O340 Dy337 2.298 1_455 S
O340 C349 1.236 . S
O341 Dy336 2.395 . S
O341 C358 1.255 . S
O342 Dy336 2.379 . S
O342 C358 1.249 . S
O343 Dy337 2.275 1_455 S
O343 C359 1.254 . S
O344 Dy336 2.339 . S
O344 C359 1.257 . S
O345 Dy337 2.307 1_455 S
O345 C360 1.266 . S
O346 Dy336 2.298 . S
O346 C360 1.236 . S
O347 Dy337 2.395 . S
O347 C367 1.255 . S
O348 Dy337 2.379 . S
O348 C367 1.249 . S
C349 O339 1.266 . S
C349 O340 1.236 . S
O350 Dy336 2.275 . S
O350 C338 1.254 . S
O351 Dy337 2.339 1_455 S
O351 C338 1.257 . S
C352 C355 1.344 . S
C352 C356 1.328 . S
C352 C358 1.516 . S
C353 C354 1.304 . S
C353 C357 1.323 . S
C354 C353 1.304 . S
C354 C355 1.371 . S
C354 H368 0.930 . S
C355 C352 1.344 . S
C355 C354 1.371 . S
C355 H369 0.931 . S
C356 C352 1.328 . S
C356 C357 1.433 . S
C356 H370 0.931 . S
C357 C353 1.323 . S
C357 C356 1.433 . S
C357 H371 0.933 . S
C358 Dy336 2.738 . S
C358 O341 1.255 . S
C358 O342 1.249 . S
C358 C352 1.516 . S
C359 O343 1.254 . S
C359 O344 1.257 . S
C360 O345 1.266 . S
C360 O346 1.236 . S
C361 C364 1.344 . S
C361 C365 1.328 . S
C361 C367 1.516 . S
C362 C363 1.304 . S
C362 C366 1.323 . S
C363 C362 1.304 . S
C363 C364 1.371 . S
C363 H372 0.930 . S
C364 C361 1.344 . S
C364 C363 1.371 . S
C364 H373 0.931 . S
C365 C361 1.328 . S
C365 C366 1.433 . S
C365 H374 0.903 1_554 S
C366 C362 1.323 . S
C366 C365 1.433 . S
C366 H375 0.933 1_554 S
C367 Dy337 2.738 . S
C367 O347 1.255 . S
C367 O348 1.249 . S
C367 C361 1.516 . S
H368 C354 0.930 . S
H369 C355 0.931 . S
H370 C356 0.931 . S
H371 C357 0.933 . S
H372 C363 0.930 . S
H373 C364 0.931 . S
H374 C365 0.903 1_556 S
H375 C366 0.933 1_556 S
Dy376 O379 2.307 . S
Dy376 O381 2.395 . S
Dy376 O382 2.379 . S
Dy376 O384 2.339 . S
Dy376 O386 2.298 . S
Dy376 O390 2.275 . S
Dy376 C398 2.738 . S
Dy377 O380 2.298 . S
Dy377 O383 2.275 . S
Dy377 O385 2.307 . S
Dy377 O387 2.395 . S
Dy377 O388 2.379 . S
Dy377 O391 2.339 . S
Dy377 C407 2.738 . S
C378 O390 1.254 . S
C378 O391 1.257 . S
O379 Dy376 2.307 . S
O379 C389 1.266 . S
O380 Dy377 2.298 . S
O380 C389 1.236 . S
O381 Dy376 2.395 . S
O381 C398 1.255 . S
O382 Dy376 2.379 . S
O382 C398 1.249 . S
O383 Dy377 2.275 . S
O383 C399 1.254 . S
O384 Dy376 2.339 . S
O384 C399 1.257 . S
O385 Dy377 2.307 . S
O385 C400 1.266 . S
O386 Dy376 2.298 . S
O386 C400 1.236 . S
O387 Dy377 2.395 . S
O387 C407 1.255 . S
O388 Dy377 2.379 . S
O388 C407 1.249 . S
C389 O379 1.266 . S
C389 O380 1.236 . S
O390 Dy376 2.275 . S
O390 C378 1.254 . S
O391 Dy377 2.339 . S
O391 C378 1.257 . S
C392 C395 1.344 . S
C392 C396 1.328 . S
C392 C398 1.516 . S
C393 C394 1.304 . S
C393 C397 1.323 . S
C394 C393 1.304 . S
C394 C395 1.371 . S
C394 H408 0.930 . S
C395 C392 1.344 . S
C395 C394 1.371 . S
C395 H409 0.931 . S
C396 C392 1.328 . S
C396 C397 1.433 . S
C396 H410 0.931 . S
C397 C393 1.323 . S
C397 C396 1.433 . S
C397 H411 0.933 . S
C398 Dy376 2.738 . S
C398 O381 1.255 . S
C398 O382 1.249 . S
C398 C392 1.516 . S
C399 O383 1.254 . S
C399 O384 1.257 . S
C400 O385 1.266 . S
C400 O386 1.236 . S
C401 C404 1.344 . S
C401 C405 1.328 . S
C401 C407 1.516 . S
C402 C403 1.304 . S
C402 C406 1.323 . S
C403 C402 1.304 . S
C403 C404 1.371 . S
C403 H412 0.930 . S
C404 C401 1.344 . S
C404 C403 1.371 . S
C404 H413 0.931 . S
C405 C401 1.328 . S
C405 C406 1.433 . S
C405 H414 0.931 . S
C406 C402 1.323 . S
C406 C405 1.433 . S
C406 H415 0.933 . S
C407 Dy377 2.738 . S
C407 O387 1.255 . S
C407 O388 1.249 . S
C407 C401 1.516 . S
H408 C394 0.930 . S
H409 C395 0.931 . S
H410 C396 0.931 . S
H411 C397 0.933 . S
H412 C403 0.930 . S
H413 C404 0.931 . S
H414 C405 0.931 . S
H415 C406 0.933 . S
Dy416 O419 2.301 1_545 S
Dy416 O421 2.395 . S
Dy416 O422 2.379 . S
Dy416 O424 2.339 . S
Dy416 O426 2.298 . S
Dy416 O430 2.275 . S
Dy416 C438 2.738 . S
Dy417 O420 2.298 . S
Dy417 O423 2.275 . S
Dy417 O425 2.307 . S
Dy417 O427 2.395 . S
Dy417 O428 2.379 . S
Dy417 O431 2.339 . S
Dy417 C447 2.738 . S
C418 O430 1.254 . S
C418 O431 1.257 . S
O419 Dy416 2.301 1_565 S
O419 C429 1.269 . S
O420 Dy417 2.298 . S
O420 C429 1.236 1_545 S
O421 Dy416 2.395 . S
O421 C438 1.255 . S
O422 Dy416 2.379 . S
O422 C438 1.249 . S
O423 Dy417 2.275 . S
O423 C439 1.254 . S
O424 Dy416 2.339 . S
O424 C439 1.257 . S
O425 Dy417 2.307 . S
O425 C440 1.266 . S
O426 Dy416 2.298 . S
O426 C440 1.236 . S
O427 Dy417 2.395 . S
O427 C447 1.255 . S
O428 Dy417 2.379 . S
O428 C447 1.249 . S
C429 O419 1.269 . S
C429 O420 1.236 1_565 S
O430 Dy416 2.275 . S
O430 C418 1.254 . S
O431 Dy417 2.339 . S
O431 C418 1.257 . S
C432 C435 1.344 . S
C432 C436 1.328 . S
C432 C438 1.516 . S
C433 C434 1.304 . S
C433 C437 1.323 . S
C434 C433 1.304 . S
C434 C435 1.371 . S
C434 H448 0.930 . S
C435 C432 1.344 . S
C435 C434 1.371 . S
C435 H449 0.931 . S
C436 C432 1.328 . S
C436 C437 1.433 . S
C436 H450 0.931 . S
C437 C433 1.323 . S
C437 C436 1.433 . S
C437 H451 0.933 . S
C438 Dy416 2.738 . S
C438 O421 1.255 . S
C438 O422 1.249 . S
C438 C432 1.516 . S
C439 O423 1.254 . S
C439 O424 1.257 . S
C440 O425 1.266 . S
C440 O426 1.236 . S
C441 C444 1.344 1_545 S
C441 C445 1.328 . S
C441 C447 1.516 . S
C442 C443 1.304 . S
C442 C446 1.323 . S
C443 C442 1.304 . S
C443 C444 1.371 . S
C443 H452 0.930 . S
C444 C441 1.344 1_565 S
C444 C443 1.371 . S
C444 H453 0.931 . S
C445 C441 1.328 . S
C445 C446 1.433 1_545 S
C445 H454 0.931 . S
C446 C442 1.323 . S
C446 C445 1.433 1_565 S
C446 H455 0.933 . S
C447 Dy417 2.738 . S
C447 O427 1.255 . S
C447 O428 1.249 . S
C447 C441 1.516 . S
H448 C434 0.930 . S
H449 C435 0.931 . S
H450 C436 0.931 . S
H451 C437 0.933 . S
H452 C443 0.930 . S
H453 C444 0.931 . S
H454 C445 0.931 . S
H455 C446 0.933 . S
Dy456 O459 2.307 . S
Dy456 O461 2.395 . S
Dy456 O462 2.379 . S
Dy456 O464 2.339 . S
Dy456 O466 2.298 . S
Dy456 O470 2.275 . S
Dy456 C478 2.738 . S
Dy457 O460 2.298 . S
Dy457 O463 2.275 . S
Dy457 O465 2.307 . S
Dy457 O467 2.395 . S
Dy457 O468 2.379 . S
Dy457 O471 2.339 . S
Dy457 C487 2.738 . S
C458 O470 1.254 . S
C458 O471 1.257 . S
O459 Dy456 2.307 . S
O459 C469 1.266 . S
O460 Dy457 2.298 . S
O460 C469 1.236 . S
O461 Dy456 2.395 . S
O461 C478 1.255 . S
O462 Dy456 2.379 . S
O462 C478 1.249 . S
O463 Dy457 2.275 . S
O463 C479 1.254 . S
O464 Dy456 2.339 . S
O464 C479 1.257 . S
O465 Dy457 2.307 . S
O465 C480 1.266 . S
O466 Dy456 2.298 . S
O466 C480 1.236 . S
O467 Dy457 2.395 . S
O467 C487 1.255 . S
O468 Dy457 2.379 . S
O468 C487 1.249 . S
C469 O459 1.266 . S
C469 O460 1.236 . S
O470 Dy456 2.275 . S
O470 C458 1.254 . S
O471 Dy457 2.339 . S
O471 C458 1.257 . S
C472 C475 1.344 . S
C472 C476 1.328 . S
C472 C478 1.516 . S
C473 C474 1.304 . S
C473 C477 1.323 . S
C474 C473 1.304 . S
C474 C475 1.371 . S
C474 H488 0.930 . S
C475 C472 1.344 . S
C475 C474 1.371 . S
C475 H489 0.931 . S
C476 C472 1.328 . S
C476 C477 1.433 . S
C476 H490 0.931 . S
C477 C473 1.323 . S
C477 C476 1.433 . S
C477 H491 0.933 . S
C478 Dy456 2.738 . S
C478 O461 1.255 . S
C478 O462 1.249 . S
C478 C472 1.516 . S
C479 O463 1.254 . S
C479 O464 1.257 . S
C480 O465 1.266 . S
C480 O466 1.236 . S
C481 C484 1.344 . S
C481 C485 1.328 . S
C481 C487 1.516 . S
C482 C483 1.304 . S
C482 C486 1.323 . S
C483 C482 1.304 . S
C483 C484 1.371 . S
C483 H492 0.930 . S
C484 C481 1.344 . S
C484 C483 1.371 . S
C484 H493 0.931 . S
C485 C481 1.328 . S
C485 C486 1.433 . S
C485 H494 0.931 . S
C486 C482 1.323 . S
C486 C485 1.433 . S
C486 H495 0.933 . S
C487 Dy457 2.738 . S
C487 O467 1.255 . S
C487 O468 1.249 . S
C487 C481 1.516 . S
H488 C474 0.930 . S
H489 C475 0.931 . S
H490 C476 0.931 . S
H491 C477 0.933 . S
H492 C483 0.930 . S
H493 C484 0.931 . S
H494 C485 0.931 . S
H495 C486 0.933 . S
Dy496 O499 2.307 . S
Dy496 O501 2.395 1_545 S
Dy496 O502 2.379 1_545 S
Dy496 O504 2.339 . S
Dy496 O506 2.298 . S
Dy496 O510 2.275 . S
Dy496 C518 2.738 1_545 S
Dy497 O500 2.298 . S
Dy497 O503 2.275 . S
Dy497 O505 2.307 . S
Dy497 O507 2.395 . S
Dy497 O508 2.379 . S
Dy497 O511 2.339 1_455 S
Dy497 C527 2.738 . S
C498 O510 1.254 1_655 S
C498 O511 1.257 . S
O499 Dy496 2.307 . S
O499 C509 1.266 . S
O500 Dy497 2.298 . S
O500 C509 1.236 . S
O501 Dy496 2.395 1_565 S
O501 C518 1.255 . S
O502 Dy496 2.379 1_565 S
O502 C518 1.249 . S
O503 Dy497 2.275 . S
O503 C519 1.254 . S
O504 Dy496 2.339 . S
O504 C519 1.257 . S
O505 Dy497 2.307 . S
O505 C520 1.266 . S
O506 Dy496 2.298 . S
O506 C520 1.236 . S
O507 Dy497 2.395 . S
O507 C527 1.255 . S
O508 Dy497 2.379 . S
O508 C527 1.249 . S
C509 O499 1.266 . S
C509 O500 1.236 . S
O510 Dy496 2.275 . S
O510 C498 1.254 1_455 S
O511 Dy497 2.339 1_655 S
O511 C498 1.257 . S
C512 C515 1.344 . S
C512 C516 1.328 . S
C512 C518 1.516 . S
C513 C514 1.304 . S
C513 C517 1.323 . S
C514 C513 1.304 . S
C514 C515 1.371 . S
C514 H528 0.930 . S
C515 C512 1.344 . S
C515 C514 1.371 . S
C515 H529 0.931 . S
C516 C512 1.328 . S
C516 C517 1.433 . S
C516 H530 0.931 . S
C517 C513 1.323 . S
C517 C516 1.433 . S
C517 H531 0.933 . S
C518 Dy496 2.738 1_565 S
C518 O501 1.255 . S
C518 O502 1.249 . S
C518 C512 1.516 . S
C519 O503 1.254 . S
C519 O504 1.257 . S
C520 O505 1.266 . S
C520 O506 1.236 . S
C521 C524 1.344 . S
C521 C525 1.328 . S
C521 C527 1.516 . S
C522 C523 1.304 . S
C522 C526 1.323 . S
C523 C522 1.304 . S
C523 C524 1.371 . S
C523 H532 0.930 . S
C524 C521 1.344 . S
C524 C523 1.371 . S
C524 H533 0.931 . S
C525 C521 1.328 . S
C525 C526 1.433 . S
C525 H534 0.931 1_455 S
C526 C522 1.323 . S
C526 C525 1.433 . S
C526 H535 0.933 1_455 S
C527 Dy497 2.738 . S
C527 O507 1.255 . S
C527 O508 1.249 . S
C527 C521 1.516 . S
H528 C514 0.930 . S
H529 C515 0.931 . S
H530 C516 0.931 . S
H531 C517 0.933 . S
H532 C523 0.930 . S
H533 C524 0.931 . S
H534 C525 0.931 1_655 S
H535 C526 0.933 1_655 S
Dy536 O539 2.307 . S
Dy536 O541 2.395 . S
Dy536 O542 2.379 . S
Dy536 O544 2.339 . S
Dy536 O546 2.298 . S
Dy536 O550 2.275 . S
Dy536 C558 2.738 . S
Dy537 O540 2.298 . S
Dy537 O543 2.275 . S
Dy537 O545 2.307 . S
Dy537 O547 2.395 . S
Dy537 O548 2.379 . S
Dy537 O551 2.339 . S
Dy537 C567 2.738 . S
C538 O550 1.254 . S
C538 O551 1.257 . S
O539 Dy536 2.307 . S
O539 C549 1.266 . S
O540 Dy537 2.298 . S
O540 C549 1.236 . S
O541 Dy536 2.395 . S
O541 C558 1.255 . S
O542 Dy536 2.379 . S
O542 C558 1.249 . S
O543 Dy537 2.275 . S
O543 C559 1.254 . S
O544 Dy536 2.339 . S
O544 C559 1.257 . S
O545 Dy537 2.307 . S
O545 C560 1.266 . S
O546 Dy536 2.298 . S
O546 C560 1.236 . S
O547 Dy537 2.395 . S
O547 C567 1.255 . S
O548 Dy537 2.379 . S
O548 C567 1.249 . S
C549 O539 1.266 . S
C549 O540 1.236 . S
O550 Dy536 2.275 . S
O550 C538 1.254 . S
O551 Dy537 2.339 . S
O551 C538 1.257 . S
C552 C555 1.344 . S
C552 C556 1.328 . S
C552 C558 1.516 . S
C553 C554 1.304 . S
C553 C557 1.323 . S
C554 C553 1.304 . S
C554 C555 1.371 . S
C554 H568 0.930 . S
C555 C552 1.344 . S
C555 C554 1.371 . S
C555 H569 0.931 . S
C556 C552 1.328 . S
C556 C557 1.433 . S
C556 H570 0.931 . S
C557 C553 1.323 . S
C557 C556 1.433 . S
C557 H571 0.933 . S
C558 Dy536 2.738 . S
C558 O541 1.255 . S
C558 O542 1.249 . S
C558 C552 1.516 . S
C559 O543 1.254 . S
C559 O544 1.257 . S
C560 O545 1.266 . S
C560 O546 1.236 . S
C561 C564 1.344 . S
C561 C565 1.328 . S
C561 C567 1.516 . S
C562 C563 1.304 . S
C562 C566 1.323 . S
C563 C562 1.304 . S
C563 C564 1.371 . S
C563 H572 0.930 . S
C564 C561 1.344 . S
C564 C563 1.371 . S
C564 H573 0.931 . S
C565 C561 1.328 . S
C565 C566 1.433 . S
C565 H574 0.931 . S
C566 C562 1.323 . S
C566 C565 1.433 . S
C566 H575 0.933 . S
C567 Dy537 2.738 . S
C567 O547 1.255 . S
C567 O548 1.249 . S
C567 C561 1.516 . S
H568 C554 0.930 . S
H569 C555 0.931 . S
H570 C556 0.931 . S
H571 C557 0.933 . S
H572 C563 0.930 . S
H573 C564 0.931 . S
H574 C565 0.931 . S
H575 C566 0.933 . S
Dy576 O579 2.307 . S
Dy576 O581 2.395 1_554 S
Dy576 O582 2.379 1_554 S
Dy576 O584 2.339 . S
Dy576 O586 2.298 . S
Dy576 O590 2.275 . S
Dy576 C598 2.738 1_554 S
Dy577 O580 2.298 . S
Dy577 O583 2.275 . S
Dy577 O585 2.307 . S
Dy577 O587 2.395 . S
Dy577 O588 2.392 . S
Dy577 O591 2.339 1_545 S
Dy577 C607 2.738 . S
C578 O590 1.208 1_565 S
C578 O591 1.273 . S
O579 Dy576 2.307 . S
O579 C589 1.266 . S
O580 Dy577 2.298 . S
O580 C589 1.236 . S
O581 Dy576 2.395 1_556 S
O581 C598 1.255 . S
O582 Dy576 2.379 1_556 S
O582 C598 1.249 . S
O583 Dy577 2.275 . S
O583 C599 1.254 . S
O584 Dy576 2.339 . S
O584 C599 1.257 . S
O585 Dy577 2.307 . S
O585 C600 1.266 . S
O586 Dy576 2.298 . S
O586 C600 1.236 . S
O587 Dy577 2.395 . S
O587 C607 1.255 . S
O588 Dy577 2.392 . S
O588 C607 1.264 . S
C589 O579 1.266 . S
C589 O580 1.236 . S
O590 Dy576 2.275 . S
O590 C578 1.208 1_545 S
O591 Dy577 2.339 1_565 S
O591 C578 1.273 . S
C592 C595 1.344 . S
C592 C596 1.328 . S
C592 C598 1.516 . S
C593 C594 1.304 . S
C593 C597 1.323 . S
C594 C593 1.304 . S
C594 C595 1.371 . S
C594 H608 0.930 . S
C595 C592 1.344 . S
C595 C594 1.371 . S
C595 H609 0.931 . S
C596 C592 1.328 . S
C596 C597 1.433 . S
C596 H610 0.931 . S
C597 C593 1.323 . S
C597 C596 1.433 . S
C597 H611 0.933 . S
C598 Dy576 2.738 1_556 S
C598 O581 1.255 . S
C598 O582 1.249 . S
C598 C592 1.516 . S
C599 O583 1.254 . S
C599 O584 1.257 . S
C600 O585 1.266 . S
C600 O586 1.236 . S
C601 C604 1.344 . S
C601 C605 1.328 1_545 S
C601 C607 1.516 . S
C602 C603 1.304 1_565 S
C602 C606 1.323 . S
C603 C602 1.304 1_545 S
C603 C604 1.371 . S
C603 H612 0.930 . S
C604 C601 1.344 . S
C604 C603 1.371 . S
C604 H613 0.931 . S
C605 C601 1.328 1_565 S
C605 C606 1.433 . S
C605 H614 0.931 . S
C606 C602 1.323 . S
C606 C605 1.433 . S
C606 H615 0.933 . S
C607 Dy577 2.738 . S
C607 O587 1.255 . S
C607 O588 1.264 . S
C607 C601 1.516 . S
H608 C594 0.930 . S
H609 C595 0.931 . S
H610 C596 0.931 . S
H611 C597 0.933 . S
H612 C603 0.930 . S
H613 C604 0.931 . S
H614 C605 0.931 . S
H615 C606 0.933 . S
Dy616 O619 2.307 . S
Dy616 O621 2.395 . S
Dy616 O622 2.379 . S
Dy616 O624 2.339 . S
Dy616 O626 2.298 . S
Dy616 O630 2.275 . S
Dy616 C638 2.738 . S
Dy617 O620 2.298 . S
Dy617 O623 2.275 . S
Dy617 O625 2.307 . S
Dy617 O627 2.395 . S
Dy617 O628 2.379 . S
Dy617 O631 2.339 . S
Dy617 C647 2.738 . S
C618 O630 1.254 . S
C618 O631 1.257 . S
O619 Dy616 2.307 . S
O619 C629 1.266 . S
O620 Dy617 2.298 . S
O620 C629 1.236 . S
O621 Dy616 2.395 . S
O621 C638 1.255 . S
O622 Dy616 2.379 . S
O622 C638 1.249 . S
O623 Dy617 2.275 . S
O623 C639 1.254 . S
O624 Dy616 2.339 . S
O624 C639 1.257 . S
O625 Dy617 2.307 . S
O625 C640 1.266 . S
O626 Dy616 2.298 . S
O626 C640 1.236 . S
O627 Dy617 2.395 . S
O627 C647 1.255 . S
O628 Dy617 2.379 . S
O628 C647 1.249 . S
C629 O619 1.266 . S
C629 O620 1.236 . S
O630 Dy616 2.275 . S
O630 C618 1.254 . S
O631 Dy617 2.339 . S
O631 C618 1.257 . S
C632 C635 1.344 . S
C632 C636 1.328 . S
C632 C638 1.516 . S
C633 C634 1.304 . S
C633 C637 1.323 . S
C634 C633 1.304 . S
C634 C635 1.371 . S
C634 H648 0.930 . S
C635 C632 1.344 . S
C635 C634 1.371 . S
C635 H649 0.931 . S
C636 C632 1.328 . S
C636 C637 1.433 . S
C636 H650 0.931 . S
C637 C633 1.323 . S
C637 C636 1.433 . S
C637 H651 0.933 . S
C638 Dy616 2.738 . S
C638 O621 1.255 . S
C638 O622 1.249 . S
C638 C632 1.516 . S
C639 O623 1.254 . S
C639 O624 1.257 . S
C640 O625 1.266 . S
C640 O626 1.236 . S
C641 C644 1.344 . S
C641 C645 1.328 . S
C641 C647 1.516 . S
C642 C643 1.304 . S
C642 C646 1.323 . S
C643 C642 1.304 . S
C643 C644 1.371 . S
C643 H652 0.930 . S
C644 C641 1.344 . S
C644 C643 1.371 . S
C644 H653 0.931 . S
C645 C641 1.328 . S
C645 C646 1.433 . S
C645 H654 0.931 . S
C646 C642 1.323 . S
C646 C645 1.433 . S
C646 H655 0.933 . S
C647 Dy617 2.738 . S
C647 O627 1.255 . S
C647 O628 1.249 . S
C647 C641 1.516 . S
H648 C634 0.930 . S
H649 C635 0.931 . S
H650 C636 0.931 . S
H651 C637 0.933 . S
H652 C643 0.930 . S
H653 C644 0.931 . S
H654 C645 0.931 . S
H655 C646 0.933 . S
Dy656 O659 2.307 . S
Dy656 O661 2.395 . S
Dy656 O662 2.379 . S
Dy656 O664 2.339 . S
Dy656 O666 2.298 . S
Dy656 O670 2.275 . S
Dy656 C678 2.738 . S
Dy657 O660 2.298 . S
Dy657 O663 2.275 . S
Dy657 O665 2.307 . S
Dy657 O667 2.395 . S
Dy657 O668 2.379 . S
Dy657 O671 2.339 . S
Dy657 C687 2.738 . S
C658 O670 1.254 . S
C658 O671 1.257 . S
O659 Dy656 2.307 . S
O659 C669 1.266 . S
O660 Dy657 2.298 . S
O660 C669 1.236 . S
O661 Dy656 2.395 . S
O661 C678 1.255 . S
O662 Dy656 2.379 . S
O662 C678 1.249 . S
O663 Dy657 2.275 . S
O663 C679 1.254 . S
O664 Dy656 2.339 . S
O664 C679 1.257 . S
O665 Dy657 2.307 . S
O665 C680 1.266 . S
O666 Dy656 2.298 . S
O666 C680 1.236 . S
O667 Dy657 2.395 . S
O667 C687 1.255 . S
O668 Dy657 2.379 . S
O668 C687 1.249 . S
C669 O659 1.266 . S
C669 O660 1.236 . S
O670 Dy656 2.275 . S
O670 C658 1.254 . S
O671 Dy657 2.339 . S
O671 C658 1.257 . S
C672 C675 1.344 . S
C672 C676 1.328 . S
C672 C678 1.516 . S
C673 C674 1.304 . S
C673 C677 1.323 . S
C674 C673 1.304 . S
C674 C675 1.371 . S
C674 H688 0.930 . S
C675 C672 1.344 . S
C675 C674 1.371 . S
C675 H689 0.931 . S
C676 C672 1.328 . S
C676 C677 1.433 . S
C676 H690 0.931 . S
C677 C673 1.323 . S
C677 C676 1.433 . S
C677 H691 0.933 . S
C678 Dy656 2.738 . S
C678 O661 1.255 . S
C678 O662 1.249 . S
C678 C672 1.516 . S
C679 O663 1.254 . S
C679 O664 1.257 . S
C680 O665 1.266 . S
C680 O666 1.236 . S
C681 C684 1.344 . S
C681 C685 1.328 . S
C681 C687 1.516 . S
C682 C683 1.304 . S
C682 C686 1.323 1_556 S
C683 C682 1.304 . S
C683 C684 1.371 1_556 S
C683 H692 0.930 . S
C684 C681 1.344 . S
C684 C683 1.371 1_554 S
C684 H693 0.931 . S
C685 C681 1.328 . S
C685 C686 1.433 . S
C685 H694 0.931 . S
C686 C682 1.323 1_554 S
C686 C685 1.433 . S
C686 H695 0.933 . S
C687 Dy657 2.738 . S
C687 O667 1.255 . S
C687 O668 1.249 . S
C687 C681 1.516 . S
H688 C674 0.930 . S
H689 C675 0.931 . S
H690 C676 0.931 . S
H691 C677 0.933 . S
H692 C683 0.930 . S
H693 C684 0.931 . S
H694 C685 0.931 . S
H695 C686 0.933 . S
Dy696 O699 2.307 . S
Dy696 O701 2.395 . S
Dy696 O702 2.379 . S
Dy696 O704 2.339 . S
Dy696 O706 2.298 . S
Dy696 O710 2.275 . S
Dy696 C718 2.738 . S
Dy697 O700 2.298 . S
Dy697 O703 2.275 . S
Dy697 O705 2.307 . S
Dy697 O707 2.395 . S
Dy697 O708 2.379 . S
Dy697 O711 2.339 . S
Dy697 C727 2.738 . S
C698 O710 1.254 . S
C698 O711 1.257 . S
O699 Dy696 2.307 . S
O699 C709 1.266 . S
O700 Dy697 2.298 . S
O700 C709 1.236 . S
O701 Dy696 2.395 . S
O701 C718 1.255 . S
O702 Dy696 2.379 . S
O702 C718 1.249 . S
O703 Dy697 2.275 . S
O703 C719 1.254 . S
O704 Dy696 2.339 . S
O704 C719 1.257 . S
O705 Dy697 2.307 . S
O705 C720 1.266 . S
O706 Dy696 2.298 . S
O706 C720 1.236 . S
O707 Dy697 2.395 . S
O707 C727 1.255 . S
O708 Dy697 2.379 . S
O708 C727 1.249 . S
C709 O699 1.266 . S
C709 O700 1.236 . S
O710 Dy696 2.275 . S
O710 C698 1.254 . S
O711 Dy697 2.339 . S
O711 C698 1.257 . S
C712 C715 1.344 . S
C712 C716 1.328 . S
C712 C718 1.516 . S
C713 C714 1.304 . S
C713 C717 1.323 . S
C714 C713 1.304 . S
C714 C715 1.371 . S
C714 H728 0.930 . S
C715 C712 1.344 . S
C715 C714 1.371 . S
C715 H729 0.931 . S
C716 C712 1.328 . S
C716 C717 1.433 . S
C716 H730 0.931 . S
C717 C713 1.323 . S
C717 C716 1.433 . S
C717 H731 0.933 . S
C718 Dy696 2.738 . S
C718 O701 1.255 . S
C718 O702 1.249 . S
C718 C712 1.516 . S
C719 O703 1.254 . S
C719 O704 1.257 . S
C720 O705 1.266 . S
C720 O706 1.236 . S
C721 C724 1.344 . S
C721 C725 1.328 . S
C721 C727 1.516 . S
C722 C723 1.304 . S
C722 C726 1.323 . S
C723 C722 1.304 . S
C723 C724 1.371 . S
C723 H732 0.930 . S
C724 C721 1.344 . S
C724 C723 1.371 . S
C724 H733 0.931 . S
C725 C721 1.328 . S
C725 C726 1.433 . S
C725 H734 0.931 . S
C726 C722 1.323 . S
C726 C725 1.433 . S
C726 H735 0.933 . S
C727 Dy697 2.738 . S
C727 O707 1.255 . S
C727 O708 1.249 . S
C727 C721 1.516 . S
H728 C714 0.930 . S
H729 C715 0.931 . S
H730 C716 0.931 . S
H731 C717 0.933 . S
H732 C723 0.930 . S
H733 C724 0.931 . S
H734 C725 0.931 . S
H735 C726 0.933 . S
Dy736 O739 2.307 1_455 S
Dy736 O741 2.395 . S
Dy736 O742 2.379 . S
Dy736 O744 2.339 . S
Dy736 O746 2.298 . S
Dy736 O750 2.275 . S
Dy736 C758 2.738 . S
Dy737 O740 2.298 1_455 S
Dy737 O743 2.275 . S
Dy737 O745 2.307 . S
Dy737 O747 2.395 . S
Dy737 O748 2.379 . S
Dy737 O751 2.339 . S
Dy737 C767 2.708 1_455 S
C738 O750 1.254 . S
C738 O751 1.257 . S
O739 Dy736 2.307 1_655 S
O739 C749 1.266 . S
O740 Dy737 2.298 1_655 S
O740 C749 1.236 . S
O741 Dy736 2.395 . S
O741 C758 1.255 . S
O742 Dy736 2.379 . S
O742 C758 1.249 . S
O743 Dy737 2.275 . S
O743 C759 1.254 . S
O744 Dy736 2.339 . S
O744 C759 1.257 . S
O745 Dy737 2.307 . S
O745 C760 1.266 . S
O746 Dy736 2.298 . S
O746 C760 1.236 . S
O747 Dy737 2.395 . S
O747 C767 1.263 1_455 S
O748 Dy737 2.379 . S
O748 C767 1.214 1_455 S
C749 O739 1.266 . S
C749 O740 1.236 . S
O750 Dy736 2.275 . S
O750 C738 1.254 . S
O751 Dy737 2.339 . S
O751 C738 1.257 . S
C752 C755 1.344 . S
C752 C756 1.328 . S
C752 C758 1.516 . S
C753 C754 1.304 . S
C753 C757 1.323 . S
C754 C753 1.304 . S
C754 C755 1.371 . S
C754 H768 0.930 . S
C755 C752 1.344 . S
C755 C754 1.371 . S
C755 H769 0.931 . S
C756 C752 1.328 . S
C756 C757 1.433 . S
C756 H770 0.931 . S
C757 C753 1.323 . S
C757 C756 1.433 . S
C757 H771 0.933 . S
C758 Dy736 2.738 . S
C758 O741 1.255 . S
C758 O742 1.249 . S
C758 C752 1.516 . S
C759 O743 1.254 . S
C759 O744 1.257 . S
C760 O745 1.266 . S
C760 O746 1.236 . S
C761 C764 1.344 . S
C761 C765 1.328 . S
C761 C767 1.546 . S
C762 C763 1.304 . S
C762 C766 1.323 . S
C763 C762 1.304 . S
C763 C764 1.371 . S
C763 H772 0.930 . S
C764 C761 1.344 . S
C764 C763 1.371 . S
C764 H773 0.931 . S
C765 C761 1.328 . S
C765 C766 1.433 . S
C765 H774 0.931 . S
C766 C762 1.323 . S
C766 C765 1.433 . S
C766 H775 0.933 . S
C767 Dy737 2.708 1_655 S
C767 O747 1.263 1_655 S
C767 O748 1.214 1_655 S
C767 C761 1.546 . S
H768 C754 0.930 . S
H769 C755 0.931 . S
H770 C756 0.931 . S
H771 C757 0.933 . S
H772 C763 0.930 . S
H773 C764 0.931 . S
H774 C765 0.931 . S
H775 C766 0.933 . S
Dy776 O779 2.307 . S
Dy776 O781 2.395 . S
Dy776 O782 2.379 . S
Dy776 O784 2.339 . S
Dy776 O786 2.298 . S
Dy776 O790 2.275 . S
Dy776 C798 2.738 . S
Dy777 O780 2.298 . S
Dy777 O783 2.275 . S
Dy777 O785 2.307 . S
Dy777 O787 2.395 . S
Dy777 O788 2.379 . S
Dy777 O791 2.339 . S
Dy777 C807 2.738 . S
C778 O790 1.254 . S
C778 O791 1.257 . S
O779 Dy776 2.307 . S
O779 C789 1.266 . S
O780 Dy777 2.298 . S
O780 C789 1.236 . S
O781 Dy776 2.395 . S
O781 C798 1.255 . S
O782 Dy776 2.379 . S
O782 C798 1.249 . S
O783 Dy777 2.275 . S
O783 C799 1.254 . S
O784 Dy776 2.339 . S
O784 C799 1.257 . S
O785 Dy777 2.307 . S
O785 C800 1.266 . S
O786 Dy776 2.298 . S
O786 C800 1.236 . S
O787 Dy777 2.395 . S
O787 C807 1.255 . S
O788 Dy777 2.379 . S
O788 C807 1.249 . S
C789 O779 1.266 . S
C789 O780 1.236 . S
O790 Dy776 2.275 . S
O790 C778 1.254 . S
O791 Dy777 2.339 . S
O791 C778 1.257 . S
C792 C795 1.344 . S
C792 C796 1.328 . S
C792 C798 1.516 . S
C793 C794 1.304 . S
C793 C797 1.323 . S
C794 C793 1.304 . S
C794 C795 1.371 . S
C794 H808 0.930 . S
C795 C792 1.344 . S
C795 C794 1.371 . S
C795 H809 0.931 . S
C796 C792 1.328 . S
C796 C797 1.433 . S
C796 H810 0.931 . S
C797 C793 1.323 . S
C797 C796 1.433 . S
C797 H811 0.933 . S
C798 Dy776 2.738 . S
C798 O781 1.255 . S
C798 O782 1.249 . S
C798 C792 1.516 . S
C799 O783 1.254 . S
C799 O784 1.257 . S
C800 O785 1.266 . S
C800 O786 1.236 . S
C801 C804 1.344 . S
C801 C805 1.328 . S
C801 C807 1.516 . S
C802 C803 1.304 . S
C802 C806 1.323 . S
C803 C802 1.304 . S
C803 C804 1.371 . S
C803 H812 0.930 . S
C804 C801 1.344 . S
C804 C803 1.371 . S
C804 H813 0.931 . S
C805 C801 1.328 . S
C805 C806 1.433 . S
C805 H814 0.931 . S
C806 C802 1.323 . S
C806 C805 1.433 . S
C806 H815 0.933 . S
C807 Dy777 2.738 . S
C807 O787 1.255 . S
C807 O788 1.249 . S
C807 C801 1.516 . S
H808 C794 0.930 . S
H809 C795 0.931 . S
H810 C796 0.931 . S
H811 C797 0.933 . S
H812 C803 0.930 . S
H813 C804 0.931 . S
H814 C805 0.931 . S
H815 C806 0.933 . S
Dy816 O819 2.307 . S
Dy816 O821 2.395 . S
Dy816 O822 2.379 . S
Dy816 O824 2.339 . S
Dy816 O826 2.298 . S
Dy816 O830 2.275 . S
Dy816 C838 2.738 . S
Dy817 O820 2.298 . S
Dy817 O823 2.275 . S
Dy817 O825 2.307 . S
Dy817 O827 2.395 . S
Dy817 O828 2.379 . S
Dy817 O831 2.339 . S
Dy817 C847 2.738 . S
C818 O830 1.254 . S
C818 O831 1.257 . S
O819 Dy816 2.307 . S
O819 C829 1.266 . S
O820 Dy817 2.298 . S
O820 C829 1.236 . S
O821 Dy816 2.395 . S
O821 C838 1.255 . S
O822 Dy816 2.379 . S
O822 C838 1.249 . S
O823 Dy817 2.275 . S
O823 C839 1.254 . S
O824 Dy816 2.339 . S
O824 C839 1.257 . S
O825 Dy817 2.307 . S
O825 C840 1.266 . S
O826 Dy816 2.298 . S
O826 C840 1.236 . S
O827 Dy817 2.395 . S
O827 C847 1.255 . S
O828 Dy817 2.379 . S
O828 C847 1.249 . S
C829 O819 1.266 . S
C829 O820 1.236 . S
O830 Dy816 2.275 . S
O830 C818 1.254 . S
O831 Dy817 2.339 . S
O831 C818 1.257 . S
C832 C835 1.344 . S
C832 C836 1.328 . S
C832 C838 1.516 . S
C833 C834 1.304 . S
C833 C837 1.323 . S
C834 C833 1.304 . S
C834 C835 1.371 . S
C834 H848 0.930 . S
C835 C832 1.344 . S
C835 C834 1.371 . S
C835 H849 0.931 . S
C836 C832 1.328 . S
C836 C837 1.433 . S
C836 H850 0.931 . S
C837 C833 1.323 . S
C837 C836 1.433 . S
C837 H851 0.933 . S
C838 Dy816 2.738 . S
C838 O821 1.255 . S
C838 O822 1.249 . S
C838 C832 1.516 . S
C839 O823 1.254 . S
C839 O824 1.257 . S
C840 O825 1.266 . S
C840 O826 1.236 . S
C841 C844 1.344 . S
C841 C845 1.328 . S
C841 C847 1.516 . S
C842 C843 1.304 . S
C842 C846 1.323 . S
C843 C842 1.304 . S
C843 C844 1.371 . S
C843 H852 0.930 . S
C844 C841 1.344 . S
C844 C843 1.371 . S
C844 H853 0.931 . S
C845 C841 1.328 . S
C845 C846 1.433 . S
C845 H854 0.931 . S
C846 C842 1.323 . S
C846 C845 1.433 . S
C846 H855 0.933 . S
C847 Dy817 2.738 . S
C847 O827 1.255 . S
C847 O828 1.249 . S
C847 C841 1.516 . S
H848 C834 0.930 . S
H849 C835 0.931 . S
H850 C836 0.931 . S
H851 C837 0.933 . S
H852 C843 0.930 . S
H853 C844 0.931 . S
H854 C845 0.931 . S
H855 C846 0.933 . S
Dy856 O859 2.307 . S
Dy856 O861 2.395 . S
Dy856 O862 2.379 . S
Dy856 O864 2.339 . S
Dy856 O866 2.298 . S
Dy856 O870 2.275 . S
Dy856 C878 2.738 . S
Dy857 O860 2.298 . S
Dy857 O863 2.275 . S
Dy857 O865 2.307 . S
Dy857 O867 2.395 . S
Dy857 O868 2.379 . S
Dy857 O871 2.339 . S
Dy857 C887 2.738 . S
C858 O870 1.254 . S
C858 O871 1.257 . S
O859 Dy856 2.307 . S
O859 C869 1.266 . S
O860 Dy857 2.298 . S
O860 C869 1.236 . S
O861 Dy856 2.395 . S
O861 C878 1.255 . S
O862 Dy856 2.379 . S
O862 C878 1.249 . S
O863 Dy857 2.275 . S
O863 C879 1.254 . S
O864 Dy856 2.339 . S
O864 C879 1.257 . S
O865 Dy857 2.307 . S
O865 C880 1.266 . S
O866 Dy856 2.298 . S
O866 C880 1.236 . S
O867 Dy857 2.395 . S
O867 C887 1.255 . S
O868 Dy857 2.379 . S
O868 C887 1.249 . S
C869 O859 1.266 . S
C869 O860 1.236 . S
O870 Dy856 2.275 . S
O870 C858 1.254 . S
O871 Dy857 2.339 . S
O871 C858 1.257 . S
C872 C875 1.344 . S
C872 C876 1.328 . S
C872 C878 1.516 . S
C873 C874 1.304 . S
C873 C877 1.323 . S
C874 C873 1.304 . S
C874 C875 1.371 . S
C874 H888 0.930 . S
C875 C872 1.344 . S
C875 C874 1.371 . S
C875 H889 0.931 . S
C876 C872 1.328 . S
C876 C877 1.433 . S
C876 H890 0.931 . S
C877 C873 1.323 . S
C877 C876 1.433 . S
C877 H891 0.933 . S
C878 Dy856 2.738 . S
C878 O861 1.255 . S
C878 O862 1.249 . S
C878 C872 1.516 . S
C879 O863 1.254 . S
C879 O864 1.257 . S
C880 O865 1.266 . S
C880 O866 1.236 . S
C881 C884 1.344 . S
C881 C885 1.328 . S
C881 C887 1.516 . S
C882 C883 1.304 . S
C882 C886 1.323 . S
C883 C882 1.304 . S
C883 C884 1.371 . S
C883 H892 0.930 . S
C884 C881 1.344 . S
C884 C883 1.371 . S
C884 H893 0.931 . S
C885 C881 1.328 . S
C885 C886 1.433 . S
C885 H894 0.931 . S
C886 C882 1.323 . S
C886 C885 1.433 . S
C886 H895 0.933 . S
C887 Dy857 2.738 . S
C887 O867 1.255 . S
C887 O868 1.249 . S
C887 C881 1.516 . S
H888 C874 0.930 . S
H889 C875 0.931 . S
H890 C876 0.931 . S
H891 C877 0.933 . S
H892 C883 0.930 . S
H893 C884 0.931 . S
H894 C885 0.931 . S
H895 C886 0.933 . S
Dy896 O899 2.307 . S
Dy896 O901 2.395 . S
Dy896 O902 2.379 . S
Dy896 O904 2.339 . S
Dy896 O906 2.298 . S
Dy896 O910 2.275 . S
Dy896 C918 2.738 . S
Dy897 O900 2.298 . S
Dy897 O903 2.275 . S
Dy897 O905 2.307 . S
Dy897 O907 2.395 . S
Dy897 O908 2.379 . S
Dy897 O911 2.339 . S
Dy897 C927 2.738 . S
C898 O910 1.254 . S
C898 O911 1.257 . S
O899 Dy896 2.307 . S
O899 C909 1.266 . S
O900 Dy897 2.298 . S
O900 C909 1.236 . S
O901 Dy896 2.395 . S
O901 C918 1.255 . S
O902 Dy896 2.379 . S
O902 C918 1.249 . S
O903 Dy897 2.275 . S
O903 C919 1.254 . S
O904 Dy896 2.339 . S
O904 C919 1.257 . S
O905 Dy897 2.307 . S
O905 C920 1.266 . S
O906 Dy896 2.298 . S
O906 C920 1.236 . S
O907 Dy897 2.395 . S
O907 C927 1.255 . S
O908 Dy897 2.379 . S
O908 C927 1.249 . S
C909 O899 1.266 . S
C909 O900 1.236 . S
O910 Dy896 2.275 . S
O910 C898 1.254 . S
O911 Dy897 2.339 . S
O911 C898 1.257 . S
C912 C915 1.344 . S
C912 C916 1.328 . S
C912 C918 1.516 . S
C913 C914 1.304 . S
C913 C917 1.323 . S
C914 C913 1.304 . S
C914 C915 1.371 . S
C914 H928 0.930 . S
C915 C912 1.344 . S
C915 C914 1.371 . S
C915 H929 0.931 . S
C916 C912 1.328 . S
C916 C917 1.433 . S
C916 H930 0.931 . S
C917 C913 1.323 . S
C917 C916 1.433 . S
C917 H931 0.933 . S
C918 Dy896 2.738 . S
C918 O901 1.255 . S
C918 O902 1.249 . S
C918 C912 1.516 . S
C919 O903 1.254 . S
C919 O904 1.257 . S
C920 O905 1.266 . S
C920 O906 1.236 . S
C921 C924 1.344 . S
C921 C925 1.328 . S
C921 C927 1.516 . S
C922 C923 1.304 . S
C922 C926 1.323 . S
C923 C922 1.304 . S
C923 C924 1.371 . S
C923 H932 0.930 . S
C924 C921 1.344 . S
C924 C923 1.371 . S
C924 H933 0.931 . S
C925 C921 1.328 . S
C925 C926 1.433 . S
C925 H934 0.931 . S
C926 C922 1.323 . S
C926 C925 1.433 . S
C926 H935 0.933 . S
C927 Dy897 2.738 . S
C927 O907 1.255 . S
C927 O908 1.249 . S
C927 C921 1.516 . S
H928 C914 0.930 . S
H929 C915 0.931 . S
H930 C916 0.931 . S
H931 C917 0.933 . S
H932 C923 0.930 . S
H933 C924 0.931 . S
H934 C925 0.931 . S
H935 C926 0.933 . S
Dy936 O939 2.307 1_655 S
Dy936 O941 2.395 . S
Dy936 O942 2.379 . S
Dy936 O944 2.339 1_655 S
Dy936 O946 2.298 1_655 S
Dy936 O950 2.275 1_655 S
Dy936 C958 2.738 . S
Dy937 O940 2.298 . S
Dy937 O943 2.275 . S
Dy937 O945 2.307 . S
Dy937 O947 2.395 . S
Dy937 O948 2.379 . S
Dy937 O951 2.339 . S
Dy937 C967 2.738 . S
C938 O950 1.254 . S
C938 O951 1.257 . S
O939 Dy936 2.307 1_455 S
O939 C949 1.266 . S
O940 Dy937 2.298 . S
O940 C949 1.236 . S
O941 Dy936 2.395 . S
O941 C958 1.255 . S
O942 Dy936 2.379 . S
O942 C958 1.249 . S
O943 Dy937 2.275 . S
O943 C959 1.254 . S
O944 Dy936 2.339 1_455 S
O944 C959 1.257 . S
O945 Dy937 2.307 . S
O945 C960 1.266 . S
O946 Dy936 2.298 1_455 S
O946 C960 1.236 . S
O947 Dy937 2.395 . S
O947 C967 1.255 . S
O948 Dy937 2.379 . S
O948 C967 1.249 . S
C949 O939 1.266 . S
C949 O940 1.236 . S
O950 Dy936 2.275 1_455 S
O950 C938 1.254 . S
O951 Dy937 2.339 . S
O951 C938 1.257 . S
C952 C955 1.344 . S
C952 C956 1.328 . S
C952 C958 1.516 . S
C953 C954 1.304 . S
C953 C957 1.323 . S
C954 C953 1.304 . S
C954 C955 1.371 . S
C954 H968 0.930 . S
C955 C952 1.344 . S
C955 C954 1.371 . S
C955 H969 0.931 . S
C956 C952 1.328 . S
C956 C957 1.433 . S
C956 H970 0.931 . S
C957 C953 1.323 . S
C957 C956 1.433 . S
C957 H971 0.933 . S
C958 Dy936 2.738 . S
C958 O941 1.255 . S
C958 O942 1.249 . S
C958 C952 1.516 . S
C959 O943 1.254 . S
C959 O944 1.257 . S
C960 O945 1.266 . S
C960 O946 1.236 . S
C961 C964 1.344 . S
C961 C965 1.328 . S
C961 C967 1.516 . S
C962 C963 1.304 . S
C962 C966 1.323 . S
C963 C962 1.304 . S
C963 C964 1.371 . S
C963 H972 0.930 . S
C964 C961 1.344 . S
C964 C963 1.371 . S
C964 H973 0.931 . S
C965 C961 1.328 . S
C965 C966 1.433 . S
C965 H974 0.931 . S
C966 C962 1.323 . S
C966 C965 1.433 . S
C966 H975 0.933 . S
C967 Dy937 2.738 . S
C967 O947 1.255 . S
C967 O948 1.249 . S
C967 C961 1.516 . S
H968 C954 0.930 . S
H969 C955 0.931 . S
H970 C956 0.931 . S
H971 C957 0.933 . S
H972 C963 0.930 . S
H973 C964 0.931 . S
H974 C965 0.931 . S
H975 C966 0.933 . S
H976 C994 0.951 . S
H977 C996 0.951 . S
H978 C998 0.950 . S
H979 C999 0.950 . S
H980 C1001 0.950 . S
H981 C1004 0.950 . S
H982 C1005 0.950 . S
H983 C1007 0.950 . S
H984 C1008 0.950 . S
H985 C1009 0.951 . S
H986 C1011 0.951 . S
H987 C1013 0.950 1_655 S
H988 C1014 0.950 1_655 S
H989 C1016 0.950 . S
H990 C1019 0.950 . S
H991 C1020 0.950 . S
H992 C1022 0.950 . S
H993 C1023 0.950 . S
C994 H976 0.951 . S
C994 C995 1.366 . S
C994 C996 1.388 . S
C995 C994 1.366 . S
C995 C999 1.385 1_655 S
C996 H977 0.951 . S
C996 C994 1.388 . S
C996 C997 1.366 1_655 S
C997 C996 1.366 1_455 S
C997 C998 1.414 . S
C997 C1000 1.499 . S
C998 H978 0.950 . S
C998 C997 1.414 . S
C998 C999 1.374 . S
C999 H979 0.950 . S
C999 C995 1.385 1_455 S
C999 C998 1.374 . S
C1000 C997 1.499 . S
C1000 C1001 1.373 . S
C1000 C1002 1.389 1_456 S
C1001 H980 0.950 . S
C1001 C1000 1.373 . S
C1001 C1017 1.377 . S
C1002 C1000 1.389 1_654 S
C1002 C1003 1.524 . S
C1002 C1016 1.377 . S
C1003 C1002 1.524 . S
C1003 C1004 1.397 . S
C1003 C1008 1.363 . S
C1004 H981 0.950 . S
C1004 C1003 1.397 . S
C1004 C1005 1.334 . S
C1005 H982 0.950 . S
C1005 C1004 1.334 . S
C1005 C1006 1.287 . S
C1006 C1005 1.287 . S
C1006 C1007 1.524 . S
C1006 H1025 0.913 . S
C1007 H983 0.950 . S
C1007 C1006 1.524 . S
C1007 C1008 1.415 . S
C1008 H984 0.950 . S
C1008 C1003 1.363 . S
C1008 C1007 1.415 . S
C1009 H985 0.951 . S
C1009 C1010 1.366 . S
C1009 C1011 1.388 . S
C1010 C1009 1.366 . S
C1010 C1014 1.385 . S
C1011 H986 0.951 . S
C1011 C1009 1.388 . S
C1011 C1012 1.366 . S
C1012 C1011 1.366 . S
C1012 C1013 1.414 . S
C1012 C1015 1.499 . S
C1013 H987 0.950 1_455 S
C1013 C1012 1.414 . S
C1013 C1014 1.374 . S
C1014 H988 0.950 1_455 S
C1014 C1010 1.385 . S
C1014 C1013 1.374 . S
C1015 C1012 1.499 . S
C1015 C1016 1.373 1_455 S
C1015 C1017 1.389 1_554 S
C1016 H989 0.950 . S
C1016 C1002 1.377 . S
C1016 C1015 1.373 1_655 S
C1017 C1001 1.377 . S
C1017 C1015 1.389 1_556 S
C1017 C1018 1.524 . S
C1018 C1017 1.524 . S
C1018 C1019 1.397 . S
C1018 C1023 1.363 . S
C1019 H990 0.950 . S
C1019 C1018 1.397 . S
C1019 C1020 1.334 . S
C1020 H991 0.950 . S
C1020 C1019 1.334 . S
C1020 C1021 1.287 . S
C1021 C1020 1.287 . S
C1021 C1022 1.524 . S
C1021 H1024 0.999 . S
C1022 H992 0.950 . S
C1022 C1021 1.524 . S
C1022 C1023 1.415 . S
C1023 H993 0.950 . S
C1023 C1018 1.363 . S
C1023 C1022 1.415 . S
H1024 C1021 0.999 . S
H1025 C1006 0.913 . S
H1026 C1044 0.951 . S
H1027 C1046 0.951 . S
H1028 C1048 0.950 . S
H1029 C1049 0.950 . S
H1030 C1051 0.950 . S
H1031 C1054 0.950 . S
H1032 C1055 0.950 . S
H1033 C1057 0.950 . S
H1034 C1058 0.950 . S
H1035 C1059 0.951 . S
H1036 C1061 0.951 . S
H1037 C1063 0.950 . S
H1038 C1064 0.950 . S
H1039 C1066 0.950 . S
H1040 C1069 0.950 . S
H1041 C1070 0.950 . S
H1042 C1072 0.950 . S
H1043 C1073 0.950 . S
C1044 H1026 0.951 . S
C1044 C1045 1.366 . S
C1044 C1046 1.388 . S
C1045 C1044 1.366 . S
C1045 C1049 1.385 . S
C1046 H1027 0.951 . S
C1046 C1044 1.388 . S
C1046 C1047 1.366 . S
C1047 C1046 1.366 . S
C1047 C1048 1.414 . S
C1047 C1050 1.499 . S
C1048 H1028 0.950 . S
C1048 C1047 1.414 . S
C1048 C1049 1.374 . S
C1049 H1029 0.950 . S
C1049 C1045 1.385 . S
C1049 C1048 1.374 . S
C1050 C1047 1.499 . S
C1050 C1051 1.373 . S
C1050 C1052 1.389 . S
C1051 H1030 0.950 . S
C1051 C1050 1.373 . S
C1051 C1067 1.377 . S
C1052 C1050 1.389 . S
C1052 C1053 1.524 . S
C1052 C1066 1.377 . S
C1053 C1052 1.524 . S
C1053 C1054 1.397 . S
C1053 C1058 1.363 . S
C1054 H1031 0.950 . S
C1054 C1053 1.397 . S
C1054 C1055 1.334 . S
C1055 H1032 0.950 . S
C1055 C1054 1.334 . S
C1055 C1056 1.287 . S
C1056 C1055 1.287 . S
C1056 C1057 1.524 . S
C1056 H1075 0.913 . S
C1057 H1033 0.950 . S
C1057 C1056 1.524 . S
C1057 C1058 1.415 . S
C1058 H1034 0.950 . S
C1058 C1053 1.363 . S
C1058 C1057 1.415 . S
C1059 H1035 0.951 . S
C1059 C1060 1.366 . S
C1059 C1061 1.388 . S
C1060 C1059 1.366 . S
C1060 C1064 1.385 . S
C1061 H1036 0.951 . S
C1061 C1059 1.388 . S
C1061 C1062 1.366 . S
C1062 C1061 1.366 . S
C1062 C1063 1.414 . S
C1062 C1065 1.499 . S
C1063 H1037 0.950 . S
C1063 C1062 1.414 . S
C1063 C1064 1.374 . S
C1064 H1038 0.950 . S
C1064 C1060 1.385 . S
C1064 C1063 1.374 . S
C1065 C1062 1.499 . S
C1065 C1066 1.373 . S
C1065 C1067 1.389 . S
C1066 H1039 0.950 . S
C1066 C1052 1.377 . S
C1066 C1065 1.373 . S
C1067 C1051 1.377 . S
C1067 C1065 1.389 . S
C1067 C1068 1.524 . S
C1068 C1067 1.524 . S
C1068 C1069 1.397 . S
C1068 C1073 1.363 . S
C1069 H1040 0.950 . S
C1069 C1068 1.397 . S
C1069 C1070 1.334 . S
C1070 H1041 0.950 . S
C1070 C1069 1.334 . S
C1070 C1071 1.287 . S
C1071 C1070 1.287 . S
C1071 C1072 1.524 . S
C1071 H1074 0.999 . S
C1072 H1042 0.950 . S
C1072 C1071 1.524 . S
C1072 C1073 1.415 . S
C1073 H1043 0.950 . S
C1073 C1068 1.363 . S
C1073 C1072 1.415 . S
H1074 C1071 0.999 . S
H1075 C1056 0.913 . S
H1076 C1094 0.951 . S
H1077 C1096 0.951 . S
H1078 C1098 0.950 . S
H1079 C1099 0.950 . S
H1080 C1101 0.950 . S
H1081 C1104 0.950 . S
H1082 C1105 0.950 . S
H1083 C1107 0.950 . S
H1084 C1108 0.950 . S
H1085 C1109 0.951 . S
H1086 C1111 0.951 . S
H1087 C1113 0.950 . S
H1088 C1114 0.950 . S
H1089 C1116 0.950 . S
H1090 C1119 0.950 . S
H1091 C1120 0.950 . S
H1092 C1122 0.950 . S
H1093 C1123 0.950 . S
C1094 H1076 0.951 . S
C1094 C1095 1.366 . S
C1094 C1096 1.388 . S
C1095 C1094 1.366 . S
C1095 C1099 1.385 . S
C1096 H1077 0.951 . S
C1096 C1094 1.388 . S
C1096 C1097 1.366 . S
C1097 C1096 1.366 . S
C1097 C1098 1.414 . S
C1097 C1100 1.499 . S
C1098 H1078 0.950 . S
C1098 C1097 1.414 . S
C1098 C1099 1.374 . S
C1099 H1079 0.950 . S
C1099 C1095 1.385 . S
C1099 C1098 1.374 . S
C1100 C1097 1.499 . S
C1100 C1101 1.373 . S
C1100 C1102 1.389 . S
C1101 H1080 0.950 . S
C1101 C1100 1.373 . S
C1101 C1117 1.377 . S
C1102 C1100 1.389 . S
C1102 C1103 1.524 . S
C1102 C1116 1.377 . S
C1103 C1102 1.524 . S
C1103 C1104 1.397 . S
C1103 C1108 1.363 . S
C1104 H1081 0.950 . S
C1104 C1103 1.397 . S
C1104 C1105 1.334 . S
C1105 H1082 0.950 . S
C1105 C1104 1.334 . S
C1105 C1106 1.287 . S
C1106 C1105 1.287 . S
C1106 C1107 1.524 . S
C1106 H1125 0.913 . S
C1107 H1083 0.950 . S
C1107 C1106 1.524 . S
C1107 C1108 1.415 . S
C1108 H1084 0.950 . S
C1108 C1103 1.363 . S
C1108 C1107 1.415 . S
C1109 H1085 0.951 . S
C1109 C1110 1.366 . S
C1109 C1111 1.388 . S
C1110 C1109 1.366 . S
C1110 C1114 1.385 . S
C1111 H1086 0.951 . S
C1111 C1109 1.388 . S
C1111 C1112 1.366 . S
C1112 C1111 1.366 . S
C1112 C1113 1.414 . S
C1112 C1115 1.499 . S
C1113 H1087 0.950 . S
C1113 C1112 1.414 . S
C1113 C1114 1.374 . S
C1114 H1088 0.950 . S
C1114 C1110 1.385 . S
C1114 C1113 1.374 . S
C1115 C1112 1.499 . S
C1115 C1116 1.373 . S
C1115 C1117 1.389 . S
C1116 H1089 0.950 . S
C1116 C1102 1.377 . S
C1116 C1115 1.373 . S
C1117 C1101 1.377 . S
C1117 C1115 1.389 . S
C1117 C1118 1.524 . S
C1118 C1117 1.524 . S
C1118 C1119 1.397 . S
C1118 C1123 1.363 . S
C1119 H1090 0.950 . S
C1119 C1118 1.397 . S
C1119 C1120 1.334 . S
C1120 H1091 0.950 . S
C1120 C1119 1.334 . S
C1120 C1121 1.287 . S
C1121 C1120 1.287 . S
C1121 C1122 1.524 . S
C1121 H1124 0.999 . S
C1122 H1092 0.950 . S
C1122 C1121 1.524 . S
C1122 C1123 1.415 . S
C1123 H1093 0.950 . S
C1123 C1118 1.363 . S
C1123 C1122 1.415 . S
H1124 C1121 0.999 . S
H1125 C1106 0.913 . S
H1126 C1144 0.951 . S
H1127 C1146 0.951 . S
H1128 C1148 0.950 . S
H1129 C1149 0.950 . S
H1130 C1151 0.950 . S
H1131 C1154 0.950 . S
H1132 C1155 0.950 . S
H1133 C1157 0.950 . S
H1134 C1158 0.950 . S
H1135 C1159 0.951 . S
H1136 C1161 0.951 . S
H1137 C1163 0.950 . S
H1138 C1164 0.950 . S
H1139 C1166 0.950 . S
H1140 C1169 0.950 . S
H1141 C1170 0.950 . S
H1142 C1172 0.950 . S
H1143 C1173 0.950 . S
C1144 H1126 0.951 . S
C1144 C1145 1.366 . S
C1144 C1146 1.388 . S
C1145 C1144 1.366 . S
C1145 C1149 1.385 . S
C1146 H1127 0.951 . S
C1146 C1144 1.388 . S
C1146 C1147 1.366 . S
C1147 C1146 1.366 . S
C1147 C1148 1.414 . S
C1147 C1150 1.499 . S
C1148 H1128 0.950 . S
C1148 C1147 1.414 . S
C1148 C1149 1.374 . S
C1149 H1129 0.950 . S
C1149 C1145 1.385 . S
C1149 C1148 1.374 . S
C1150 C1147 1.499 . S
C1150 C1151 1.373 . S
C1150 C1152 1.389 . S
C1151 H1130 0.950 . S
C1151 C1150 1.373 . S
C1151 C1167 1.377 . S
C1152 C1150 1.389 . S
C1152 C1153 1.524 . S
C1152 C1166 1.377 . S
C1153 C1152 1.524 . S
C1153 C1154 1.397 . S
C1153 C1158 1.363 . S
C1154 H1131 0.950 . S
C1154 C1153 1.397 . S
C1154 C1155 1.334 . S
C1155 H1132 0.950 . S
C1155 C1154 1.334 . S
C1155 C1156 1.287 . S
C1156 C1155 1.287 . S
C1156 C1157 1.524 . S
C1156 H1175 0.913 . S
C1157 H1133 0.950 . S
C1157 C1156 1.524 . S
C1157 C1158 1.415 . S
C1158 H1134 0.950 . S
C1158 C1153 1.363 . S
C1158 C1157 1.415 . S
C1159 H1135 0.951 . S
C1159 C1160 1.366 . S
C1159 C1161 1.388 . S
C1160 C1159 1.366 . S
C1160 C1164 1.385 . S
C1161 H1136 0.951 . S
C1161 C1159 1.388 . S
C1161 C1162 1.366 . S
C1162 C1161 1.366 . S
C1162 C1163 1.414 . S
C1162 C1165 1.499 . S
C1163 H1137 0.950 . S
C1163 C1162 1.414 . S
C1163 C1164 1.374 . S
C1164 H1138 0.950 . S
C1164 C1160 1.385 . S
C1164 C1163 1.374 . S
C1165 C1162 1.499 . S
C1165 C1166 1.373 . S
C1165 C1167 1.389 . S
C1166 H1139 0.950 . S
C1166 C1152 1.377 . S
C1166 C1165 1.373 . S
C1167 C1151 1.377 . S
C1167 C1165 1.389 . S
C1167 C1168 1.524 . S
C1168 C1167 1.524 . S
C1168 C1169 1.397 . S
C1168 C1173 1.363 . S
C1169 H1140 0.950 . S
C1169 C1168 1.397 . S
C1169 C1170 1.334 . S
C1170 H1141 0.950 . S
C1170 C1169 1.334 . S
C1170 C1171 1.287 . S
C1171 C1170 1.287 . S
C1171 C1172 1.524 . S
C1171 H1174 0.999 . S
C1172 H1142 0.950 . S
C1172 C1171 1.524 . S
C1172 C1173 1.415 . S
C1173 H1143 0.950 . S
C1173 C1168 1.363 . S
C1173 C1172 1.415 . S
H1174 C1171 0.999 . S
H1175 C1156 0.913 . S
H1176 C1194 0.951 . S
H1177 C1196 0.951 . S
H1178 C1198 0.950 . S
H1179 C1199 0.950 . S
H1180 C1201 0.950 . S
H1181 C1204 0.948 . S
H1182 C1205 0.950 . S
H1183 C1207 0.950 . S
H1184 C1208 0.950 . S
H1185 C1209 0.951 . S
H1186 C1211 0.951 . S
H1187 C1213 0.950 . S
H1188 C1214 0.950 . S
H1189 C1216 0.950 . S
H1190 C1219 0.950 . S
H1191 C1220 0.950 . S
H1192 C1222 0.950 . S
H1193 C1223 0.950 . S
C1194 H1176 0.951 . S
C1194 C1195 1.366 . S
C1194 C1196 1.388 . S
C1195 C1194 1.366 . S
C1195 C1199 1.385 . S
C1196 H1177 0.951 . S
C1196 C1194 1.388 . S
C1196 C1197 1.366 . S
C1197 C1196 1.366 . S
C1197 C1198 1.414 . S
C1197 C1200 1.499 . S
C1198 H1178 0.950 . S
C1198 C1197 1.414 . S
C1198 C1199 1.374 . S
C1199 H1179 0.950 . S
C1199 C1195 1.385 . S
C1199 C1198 1.374 . S
C1200 C1197 1.499 . S
C1200 C1201 1.373 . S
C1200 C1202 1.389 . S
C1201 H1180 0.950 . S
C1201 C1200 1.373 . S
C1201 C1217 1.377 . S
C1202 C1200 1.389 . S
C1202 C1203 1.524 . S
C1202 C1216 1.377 . S
C1203 C1202 1.524 . S
C1203 C1204 1.375 1_455 S
C1203 C1208 1.363 . S
C1204 H1181 0.948 . S
C1204 C1203 1.375 1_655 S
C1204 C1205 1.358 . S
C1205 H1182 0.950 . S
C1205 C1204 1.358 . S
C1205 C1206 1.287 . S
C1206 C1205 1.287 . S
C1206 C1207 1.524 1_655 S
C1206 H1225 0.913 . S
C1207 H1183 0.950 . S
C1207 C1206 1.524 1_455 S
C1207 C1208 1.415 . S
C1208 H1184 0.950 . S
C1208 C1203 1.363 . S
C1208 C1207 1.415 . S
C1209 H1185 0.951 . S
C1209 C1210 1.366 . S
C1209 C1211 1.388 . S
C1210 C1209 1.366 . S
C1210 C1214 1.385 . S
C1211 H1186 0.951 . S
C1211 C1209 1.388 . S
C1211 C1212 1.366 . S
C1212 C1211 1.366 . S
C1212 C1213 1.414 . S
C1212 C1215 1.499 . S
C1213 H1187 0.950 . S
C1213 C1212 1.414 . S
C1213 C1214 1.374 . S
C1214 H1188 0.950 . S
C1214 C1210 1.385 . S
C1214 C1213 1.374 . S
C1215 C1212 1.499 . S
C1215 C1216 1.373 . S
C1215 C1217 1.389 . S
C1216 H1189 0.950 . S
C1216 C1202 1.377 . S
C1216 C1215 1.373 . S
C1217 C1201 1.377 . S
C1217 C1215 1.389 . S
C1217 C1218 1.524 . S
C1218 C1217 1.524 . S
C1218 C1219 1.397 . S
C1218 C1223 1.363 . S
C1219 H1190 0.950 . S
C1219 C1218 1.397 . S
C1219 C1220 1.334 . S
C1220 H1191 0.950 . S
C1220 C1219 1.334 . S
C1220 C1221 1.287 . S
C1221 C1220 1.287 . S
C1221 C1222 1.524 . S
C1221 H1224 0.999 . S
C1222 H1192 0.950 . S
C1222 C1221 1.524 . S
C1222 C1223 1.415 . S
C1223 H1193 0.950 . S
C1223 C1218 1.363 . S
C1223 C1222 1.415 . S
H1224 C1221 0.999 . S
H1225 C1206 0.913 . S
H1226 C1244 0.951 . S
H1227 C1246 0.951 . S
H1228 C1248 0.950 . S
H1229 C1249 0.950 . S
H1230 C1251 0.950 . S
H1231 C1254 0.950 . S
H1232 C1255 0.950 . S
H1233 C1257 0.950 . S
H1234 C1258 0.950 . S
H1235 C1259 0.951 . S
H1236 C1261 0.951 . S
H1237 C1263 0.950 . S
H1238 C1264 0.950 . S
H1239 C1266 0.950 . S
H1240 C1269 0.950 . S
H1241 C1270 0.950 . S
H1242 C1272 0.950 . S
H1243 C1273 0.950 . S
C1244 H1226 0.951 . S
C1244 C1245 1.366 . S
C1244 C1246 1.388 . S
C1245 C1244 1.366 . S
C1245 C1249 1.385 . S
C1246 H1227 0.951 . S
C1246 C1244 1.388 . S
C1246 C1247 1.366 . S
C1247 C1246 1.366 . S
C1247 C1248 1.414 . S
C1247 C1250 1.499 . S
C1248 H1228 0.950 . S
C1248 C1247 1.414 . S
C1248 C1249 1.374 . S
C1249 H1229 0.950 . S
C1249 C1245 1.385 . S
C1249 C1248 1.374 . S
C1250 C1247 1.499 . S
C1250 C1251 1.373 . S
C1250 C1252 1.389 . S
C1251 H1230 0.950 . S
C1251 C1250 1.373 . S
C1251 C1267 1.377 . S
C1252 C1250 1.389 . S
C1252 C1253 1.524 . S
C1252 C1266 1.377 . S
C1253 C1252 1.524 . S
C1253 C1254 1.397 . S
C1253 C1258 1.363 . S
C1254 H1231 0.950 . S
C1254 C1253 1.397 . S
C1254 C1255 1.334 . S
C1255 H1232 0.950 . S
C1255 C1254 1.334 . S
C1255 C1256 1.287 . S
C1256 C1255 1.287 . S
C1256 C1257 1.524 . S
C1256 H1275 0.913 . S
C1257 H1233 0.950 . S
C1257 C1256 1.524 . S
C1257 C1258 1.415 . S
C1258 H1234 0.950 . S
C1258 C1253 1.363 . S
C1258 C1257 1.415 . S
C1259 H1235 0.951 . S
C1259 C1260 1.366 . S
C1259 C1261 1.388 . S
C1260 C1259 1.366 . S
C1260 C1264 1.385 . S
C1261 H1236 0.951 . S
C1261 C1259 1.388 . S
C1261 C1262 1.366 . S
C1262 C1261 1.366 . S
C1262 C1263 1.414 . S
C1262 C1265 1.499 . S
C1263 H1237 0.950 . S
C1263 C1262 1.414 . S
C1263 C1264 1.374 . S
C1264 H1238 0.950 . S
C1264 C1260 1.385 . S
C1264 C1263 1.374 . S
C1265 C1262 1.499 . S
C1265 C1266 1.373 . S
C1265 C1267 1.389 . S
C1266 H1239 0.950 . S
C1266 C1252 1.377 . S
C1266 C1265 1.373 . S
C1267 C1251 1.377 . S
C1267 C1265 1.389 . S
C1267 C1268 1.524 . S
C1268 C1267 1.524 . S
C1268 C1269 1.397 . S
C1268 C1273 1.363 . S
C1269 H1240 0.950 . S
C1269 C1268 1.397 . S
C1269 C1270 1.334 . S
C1270 H1241 0.950 . S
C1270 C1269 1.334 . S
C1270 C1271 1.287 . S
C1271 C1270 1.287 . S
C1271 C1272 1.524 . S
C1271 H1274 0.999 . S
C1272 H1242 0.950 . S
C1272 C1271 1.524 . S
C1272 C1273 1.415 . S
C1273 H1243 0.950 . S
C1273 C1268 1.363 . S
C1273 C1272 1.415 . S
H1274 C1271 0.999 . S
H1275 C1256 0.913 . S
H1276 C1294 0.951 . S
H1277 C1296 0.951 . S
H1278 C1298 0.950 . S
H1279 C1299 0.950 . S
H1280 C1301 0.950 . S
H1281 C1304 0.950 . S
H1282 C1305 0.950 . S
H1283 C1307 0.950 . S
H1284 C1308 0.950 . S
H1285 C1309 0.951 . S
H1286 C1311 0.951 . S
H1287 C1313 0.950 . S
H1288 C1314 0.950 . S
H1289 C1316 0.950 . S
H1290 C1319 0.950 . S
H1291 C1320 0.950 . S
H1292 C1322 0.950 . S
H1293 C1323 0.950 . S
C1294 H1276 0.951 . S
C1294 C1295 1.366 . S
C1294 C1296 1.388 . S
C1295 C1294 1.366 . S
C1295 C1299 1.385 . S
C1296 H1277 0.951 . S
C1296 C1294 1.388 . S
C1296 C1297 1.366 . S
C1297 C1296 1.366 . S
C1297 C1298 1.414 . S
C1297 C1300 1.499 . S
C1298 H1278 0.950 . S
C1298 C1297 1.414 . S
C1298 C1299 1.374 . S
C1299 H1279 0.950 . S
C1299 C1295 1.385 . S
C1299 C1298 1.374 . S
C1300 C1297 1.499 . S
C1300 C1301 1.373 . S
C1300 C1302 1.389 . S
C1301 H1280 0.950 . S
C1301 C1300 1.373 . S
C1301 C1317 1.377 . S
C1302 C1300 1.389 . S
C1302 C1303 1.524 . S
C1302 C1316 1.377 . S
C1303 C1302 1.524 . S
C1303 C1304 1.397 . S
C1303 C1308 1.363 . S
C1304 H1281 0.950 . S
C1304 C1303 1.397 . S
C1304 C1305 1.334 . S
C1305 H1282 0.950 . S
C1305 C1304 1.334 . S
C1305 C1306 1.287 . S
C1306 C1305 1.287 . S
C1306 C1307 1.524 . S
C1306 H1325 0.913 . S
C1307 H1283 0.950 . S
C1307 C1306 1.524 . S
C1307 C1308 1.415 . S
C1308 H1284 0.950 . S
C1308 C1303 1.363 . S
C1308 C1307 1.415 . S
C1309 H1285 0.951 . S
C1309 C1310 1.366 . S
C1309 C1311 1.388 . S
C1310 C1309 1.366 . S
C1310 C1314 1.385 . S
C1311 H1286 0.951 . S
C1311 C1309 1.388 . S
C1311 C1312 1.366 . S
C1312 C1311 1.366 . S
C1312 C1313 1.414 . S
C1312 C1315 1.499 . S
C1313 H1287 0.950 . S
C1313 C1312 1.414 . S
C1313 C1314 1.374 . S
C1314 H1288 0.950 . S
C1314 C1310 1.385 . S
C1314 C1313 1.374 . S
C1315 C1312 1.499 . S
C1315 C1316 1.373 . S
C1315 C1317 1.389 . S
C1316 H1289 0.950 . S
C1316 C1302 1.377 . S
C1316 C1315 1.373 . S
C1317 C1301 1.377 . S
C1317 C1315 1.389 . S
C1317 C1318 1.524 . S
C1318 C1317 1.524 . S
C1318 C1319 1.397 . S
C1318 C1323 1.363 . S
C1319 H1290 0.950 . S
C1319 C1318 1.397 . S
C1319 C1320 1.334 . S
C1320 H1291 0.950 . S
C1320 C1319 1.334 . S
C1320 C1321 1.287 . S
C1321 C1320 1.287 . S
C1321 C1322 1.524 . S
C1321 H1324 0.999 . S
C1322 H1292 0.950 . S
C1322 C1321 1.524 . S
C1322 C1323 1.415 . S
C1323 H1293 0.950 . S
C1323 C1318 1.363 . S
C1323 C1322 1.415 . S
H1324 C1321 0.999 . S
H1325 C1306 0.913 . S
H1326 C1344 0.951 . S
H1327 C1346 0.951 . S
H1328 C1348 0.950 . S
H1329 C1349 0.950 . S
H1330 C1351 0.950 . S
H1331 C1354 0.950 . S
H1332 C1355 0.950 . S
H1333 C1357 0.950 . S
H1334 C1358 0.950 . S
H1335 C1359 0.951 . S
H1336 C1361 0.951 . S
H1337 C1363 0.950 . S
H1338 C1364 0.950 . S
H1339 C1366 0.950 . S
H1340 C1369 0.950 . S
H1341 C1370 0.950 . S
H1342 C1372 0.950 . S
H1343 C1373 0.950 . S
C1344 H1326 0.951 . S
C1344 C1345 1.366 . S
C1344 C1346 1.388 . S
C1345 C1344 1.366 . S
C1345 C1349 1.385 . S
C1346 H1327 0.951 . S
C1346 C1344 1.388 . S
C1346 C1347 1.366 . S
C1347 C1346 1.366 . S
C1347 C1348 1.414 . S
C1347 C1350 1.499 . S
C1348 H1328 0.950 . S
C1348 C1347 1.414 . S
C1348 C1349 1.374 . S
C1349 H1329 0.950 . S
C1349 C1345 1.385 . S
C1349 C1348 1.374 . S
C1350 C1347 1.499 . S
C1350 C1351 1.373 . S
C1350 C1352 1.389 . S
C1351 H1330 0.950 . S
C1351 C1350 1.373 . S
C1351 C1367 1.377 . S
C1352 C1350 1.389 . S
C1352 C1353 1.524 . S
C1352 C1366 1.377 . S
C1353 C1352 1.524 . S
C1353 C1354 1.397 . S
C1353 C1358 1.363 . S
C1354 H1331 0.950 . S
C1354 C1353 1.397 . S
C1354 C1355 1.334 . S
C1355 H1332 0.950 . S
C1355 C1354 1.334 . S
C1355 C1356 1.287 . S
C1356 C1355 1.287 . S
C1356 C1357 1.524 . S
C1356 H1375 0.913 . S
C1357 H1333 0.950 . S
C1357 C1356 1.524 . S
C1357 C1358 1.415 . S
C1358 H1334 0.950 . S
C1358 C1353 1.363 . S
C1358 C1357 1.415 . S
C1359 H1335 0.951 . S
C1359 C1360 1.366 . S
C1359 C1361 1.388 . S
C1360 C1359 1.366 . S
C1360 C1364 1.385 . S
C1361 H1336 0.951 . S
C1361 C1359 1.388 . S
C1361 C1362 1.366 . S
C1362 C1361 1.366 . S
C1362 C1363 1.414 . S
C1362 C1365 1.499 . S
C1363 H1337 0.950 . S
C1363 C1362 1.414 . S
C1363 C1364 1.374 . S
C1364 H1338 0.950 . S
C1364 C1360 1.385 . S
C1364 C1363 1.374 . S
C1365 C1362 1.499 . S
C1365 C1366 1.373 . S
C1365 C1367 1.389 . S
C1366 H1339 0.950 . S
C1366 C1352 1.377 . S
C1366 C1365 1.373 . S
C1367 C1351 1.377 . S
C1367 C1365 1.389 . S
C1367 C1368 1.524 . S
C1368 C1367 1.524 . S
C1368 C1369 1.397 . S
C1368 C1373 1.363 . S
C1369 H1340 0.950 . S
C1369 C1368 1.397 . S
C1369 C1370 1.334 . S
C1370 H1341 0.950 . S
C1370 C1369 1.334 . S
C1370 C1371 1.287 . S
C1371 C1370 1.287 . S
C1371 C1372 1.524 . S
C1371 H1374 0.999 . S
C1372 H1342 0.950 . S
C1372 C1371 1.524 . S
C1372 C1373 1.415 . S
C1373 H1343 0.950 . S
C1373 C1368 1.363 . S
C1373 C1372 1.415 . S
H1374 C1371 0.999 . S
H1375 C1356 0.913 . S
H1376 C1394 0.913 1_565 S
H1377 C1396 0.951 . S
H1378 C1398 0.950 . S
H1379 C1399 0.950 . S
H1380 C1401 0.950 . S
H1381 C1404 0.971 . S
H1382 C1405 0.950 . S
H1383 C1407 0.950 . S
H1384 C1408 0.954 . S
H1385 C1409 0.951 . S
H1386 C1411 0.948 . S
H1387 C1413 0.950 . S
H1388 C1414 0.950 . S
H1389 C1416 0.904 1_455 S
H1390 C1419 0.950 . S
H1391 C1420 0.950 . S
H1392 C1422 0.950 . S
H1393 C1423 0.950 . S
C1394 H1376 0.913 1_545 S
C1394 C1395 1.366 . S
C1394 C1396 1.388 . S
C1395 C1394 1.366 . S
C1395 C1399 1.385 . S
C1396 H1377 0.951 . S
C1396 C1394 1.388 . S
C1396 C1397 1.366 . S
C1397 C1396 1.366 . S
C1397 C1398 1.414 . S
C1397 C1400 1.499 . S
C1398 H1378 0.950 . S
C1398 C1397 1.414 . S
C1398 C1399 1.374 . S
C1399 H1379 0.950 . S
C1399 C1395 1.385 . S
C1399 C1398 1.374 . S
C1400 C1397 1.499 . S
C1400 C1401 1.373 . S
C1400 C1402 1.389 . S
C1401 H1380 0.950 . S
C1401 C1400 1.373 . S
C1401 C1417 1.377 . S
C1402 C1400 1.389 . S
C1402 C1403 1.524 . S
C1402 C1416 1.377 . S
C1403 C1402 1.524 . S
C1403 C1404 1.397 1_655 S
C1403 C1408 1.349 1_545 S
C1404 H1381 0.971 . S
C1404 C1403 1.397 1_455 S
C1404 C1405 1.334 . S
C1405 H1382 0.950 . S
C1405 C1404 1.334 . S
C1405 C1406 1.287 . S
C1406 C1405 1.287 . S
C1406 C1407 1.524 1_545 S
C1406 H1425 0.913 1_545 S
C1407 H1383 0.950 . S
C1407 C1406 1.524 1_565 S
C1407 C1408 1.425 1_455 S
C1408 H1384 0.954 . S
C1408 C1403 1.349 1_565 S
C1408 C1407 1.425 1_655 S
C1409 H1385 0.951 . S
C1409 C1410 1.366 . S
C1409 C1411 1.388 . S
C1410 C1409 1.366 . S
C1410 C1414 1.385 . S
C1411 H1386 0.948 . S
C1411 C1409 1.388 . S
C1411 C1412 1.366 1_455 S
C1412 C1411 1.366 1_655 S
C1412 C1413 1.414 . S
C1412 C1415 1.499 . S
C1413 H1387 0.950 . S
C1413 C1412 1.414 . S
C1413 C1414 1.374 1_655 S
C1414 H1388 0.950 . S
C1414 C1410 1.385 . S
C1414 C1413 1.374 1_455 S
C1415 C1412 1.499 . S
C1415 C1416 1.373 . S
C1415 C1417 1.389 . S
C1416 H1389 0.904 1_655 S
C1416 C1402 1.377 . S
C1416 C1415 1.373 . S
C1417 C1401 1.377 . S
C1417 C1415 1.389 . S
C1417 C1418 1.524 . S
C1418 C1417 1.524 . S
C1418 C1419 1.397 . S
C1418 C1423 1.363 . S
C1419 H1390 0.950 . S
C1419 C1418 1.397 . S
C1419 C1420 1.334 . S
C1420 H1391 0.950 . S
C1420 C1419 1.334 . S
C1420 C1421 1.287 . S
C1421 C1420 1.287 . S
C1421 C1422 1.524 . S
C1421 H1424 0.999 . S
C1422 H1392 0.950 . S
C1422 C1421 1.524 . S
C1422 C1423 1.415 . S
C1423 H1393 0.950 . S
C1423 C1418 1.363 . S
C1423 C1422 1.415 . S
H1424 C1421 0.999 . S
H1425 C1406 0.913 1_565 S
H1426 C1444 0.951 . S
H1427 C1446 0.951 . S
H1428 C1448 0.950 . S
H1429 C1449 0.950 . S
H1430 C1451 0.950 . S
H1431 C1454 0.950 . S
H1432 C1455 0.950 . S
H1433 C1457 0.950 . S
H1434 C1458 0.950 . S
H1435 C1459 0.951 . S
H1436 C1461 0.951 . S
H1437 C1463 0.950 . S
H1438 C1464 0.950 . S
H1439 C1466 0.950 . S
H1440 C1469 0.950 . S
H1441 C1470 0.950 . S
H1442 C1472 0.950 . S
H1443 C1473 0.950 . S
C1444 H1426 0.951 . S
C1444 C1445 1.366 . S
C1444 C1446 1.388 . S
C1445 C1444 1.366 . S
C1445 C1449 1.385 . S
C1446 H1427 0.951 . S
C1446 C1444 1.388 . S
C1446 C1447 1.366 . S
C1447 C1446 1.366 . S
C1447 C1448 1.414 . S
C1447 C1450 1.499 . S
C1448 H1428 0.950 . S
C1448 C1447 1.414 . S
C1448 C1449 1.374 . S
C1449 H1429 0.950 . S
C1449 C1445 1.385 . S
C1449 C1448 1.374 . S
C1450 C1447 1.499 . S
C1450 C1451 1.373 . S
C1450 C1452 1.389 . S
C1451 H1430 0.950 . S
C1451 C1450 1.373 . S
C1451 C1467 1.377 . S
C1452 C1450 1.389 . S
C1452 C1453 1.524 . S
C1452 C1466 1.377 . S
C1453 C1452 1.524 . S
C1453 C1454 1.397 . S
C1453 C1458 1.363 . S
C1454 H1431 0.950 . S
C1454 C1453 1.397 . S
C1454 C1455 1.334 . S
C1455 H1432 0.950 . S
C1455 C1454 1.334 . S
C1455 C1456 1.287 . S
C1456 C1455 1.287 . S
C1456 C1457 1.524 . S
C1456 H1475 0.913 . S
C1457 H1433 0.950 . S
C1457 C1456 1.524 . S
C1457 C1458 1.415 . S
C1458 H1434 0.950 . S
C1458 C1453 1.363 . S
C1458 C1457 1.415 . S
C1459 H1435 0.951 . S
C1459 C1460 1.366 . S
C1459 C1461 1.388 . S
C1460 C1459 1.366 . S
C1460 C1464 1.385 . S
C1461 H1436 0.951 . S
C1461 C1459 1.388 . S
C1461 C1462 1.366 . S
C1462 C1461 1.366 . S
C1462 C1463 1.414 . S
C1462 C1465 1.499 . S
C1463 H1437 0.950 . S
C1463 C1462 1.414 . S
C1463 C1464 1.374 . S
C1464 H1438 0.950 . S
C1464 C1460 1.385 . S
C1464 C1463 1.374 . S
C1465 C1462 1.499 . S
C1465 C1466 1.373 . S
C1465 C1467 1.389 . S
C1466 H1439 0.950 . S
C1466 C1452 1.377 . S
C1466 C1465 1.373 . S
C1467 C1451 1.377 . S
C1467 C1465 1.389 . S
C1467 C1468 1.524 . S
C1468 C1467 1.524 . S
C1468 C1469 1.397 . S
C1468 C1473 1.363 . S
C1469 H1440 0.950 . S
C1469 C1468 1.397 . S
C1469 C1470 1.334 . S
C1470 H1441 0.950 . S
C1470 C1469 1.334 . S
C1470 C1471 1.287 . S
C1471 C1470 1.287 . S
C1471 C1472 1.524 . S
C1471 H1474 0.999 . S
C1472 H1442 0.950 . S
C1472 C1471 1.524 . S
C1472 C1473 1.415 . S
C1473 H1443 0.950 . S
C1473 C1468 1.363 . S
C1473 C1472 1.415 . S
H1474 C1471 0.999 . S
H1475 C1456 0.913 . S
H1476 C1494 0.951 . S
H1477 C1496 0.951 . S
H1478 C1498 0.950 . S
H1479 C1499 0.950 . S
H1480 C1501 0.950 . S
H1481 C1504 0.950 . S
H1482 C1505 0.950 . S
H1483 C1507 0.950 . S
H1484 C1508 0.950 1_565 S
H1485 C1509 0.951 . S
H1486 C1511 0.951 . S
H1487 C1513 0.950 . S
H1488 C1514 0.950 . S
H1489 C1516 0.950 . S
H1490 C1519 0.950 . S
H1491 C1520 0.950 . S
H1492 C1522 0.950 . S
H1493 C1523 0.950 . S
C1494 H1476 0.951 . S
C1494 C1495 1.366 . S
C1494 C1496 1.388 . S
C1495 C1494 1.366 . S
C1495 C1499 1.385 . S
C1496 H1477 0.951 . S
C1496 C1494 1.388 . S
C1496 C1497 1.366 . S
C1497 C1496 1.366 . S
C1497 C1498 1.414 . S
C1497 C1500 1.499 . S
C1498 H1478 0.950 . S
C1498 C1497 1.414 . S
C1498 C1499 1.374 . S
C1499 H1479 0.950 . S
C1499 C1495 1.385 . S
C1499 C1498 1.374 . S
C1500 C1497 1.499 . S
C1500 C1501 1.373 . S
C1500 C1502 1.389 . S
C1501 H1480 0.950 . S
C1501 C1500 1.373 . S
C1501 C1517 1.377 . S
C1502 C1500 1.389 . S
C1502 C1503 1.524 . S
C1502 C1516 1.377 . S
C1503 C1502 1.524 . S
C1503 C1504 1.397 . S
C1503 C1508 1.363 . S
C1504 H1481 0.950 . S
C1504 C1503 1.397 . S
C1504 C1505 1.334 . S
C1505 H1482 0.950 . S
C1505 C1504 1.334 . S
C1505 C1506 1.287 . S
C1506 C1505 1.287 . S
C1506 C1507 1.524 1_545 S
C1506 H1525 0.913 1_545 S
C1507 H1483 0.950 . S
C1507 C1506 1.524 1_565 S
C1507 C1508 1.415 1_565 S
C1508 H1484 0.950 1_545 S
C1508 C1503 1.363 . S
C1508 C1507 1.415 1_545 S
C1509 H1485 0.951 . S
C1509 C1510 1.366 . S
C1509 C1511 1.388 . S
C1510 C1509 1.366 . S
C1510 C1514 1.385 . S
C1511 H1486 0.951 . S
C1511 C1509 1.388 . S
C1511 C1512 1.366 . S
C1512 C1511 1.366 . S
C1512 C1513 1.414 . S
C1512 C1515 1.499 . S
C1513 H1487 0.950 . S
C1513 C1512 1.414 . S
C1513 C1514 1.374 . S
C1514 H1488 0.950 . S
C1514 C1510 1.385 . S
C1514 C1513 1.374 . S
C1515 C1512 1.499 . S
C1515 C1516 1.373 . S
C1515 C1517 1.389 . S
C1516 H1489 0.950 . S
C1516 C1502 1.377 . S
C1516 C1515 1.373 . S
C1517 C1501 1.377 . S
C1517 C1515 1.389 . S
C1517 C1518 1.524 . S
C1518 C1517 1.524 . S
C1518 C1519 1.397 . S
C1518 C1523 1.363 . S
C1519 H1490 0.950 . S
C1519 C1518 1.397 . S
C1519 C1520 1.334 . S
C1520 H1491 0.950 . S
C1520 C1519 1.334 . S
C1520 C1521 1.287 . S
C1521 C1520 1.287 . S
C1521 C1522 1.524 . S
C1521 H1524 0.999 . S
C1522 H1492 0.950 . S
C1522 C1521 1.524 . S
C1522 C1523 1.415 . S
C1523 H1493 0.950 . S
C1523 C1518 1.363 . S
C1523 C1522 1.415 . S
H1524 C1521 0.999 . S
H1525 C1506 0.913 1_565 S
H1526 C1544 0.951 . S
H1527 C1546 0.951 . S
H1528 C1548 0.950 . S
H1529 C1549 0.950 . S
H1530 C1551 0.950 . S
H1531 C1554 0.950 . S
H1532 C1555 0.950 . S
H1533 C1557 0.950 . S
H1534 C1558 0.950 . S
H1535 C1559 0.951 . S
H1536 C1561 0.951 . S
H1537 C1563 0.950 . S
H1538 C1564 0.950 . S
H1539 C1566 0.950 . S
H1540 C1569 0.950 . S
H1541 C1570 0.950 . S
H1542 C1572 0.950 . S
H1543 C1573 0.950 . S
C1544 H1526 0.951 . S
C1544 C1545 1.366 . S
C1544 C1546 1.388 . S
C1545 C1544 1.366 . S
C1545 C1549 1.385 . S
C1546 H1527 0.951 . S
C1546 C1544 1.388 . S
C1546 C1547 1.366 . S
C1547 C1546 1.366 . S
C1547 C1548 1.414 . S
C1547 C1550 1.499 . S
C1548 H1528 0.950 . S
C1548 C1547 1.414 . S
C1548 C1549 1.374 . S
C1549 H1529 0.950 . S
C1549 C1545 1.385 . S
C1549 C1548 1.374 . S
C1550 C1547 1.499 . S
C1550 C1551 1.373 . S
C1550 C1552 1.389 . S
C1551 H1530 0.950 . S
C1551 C1550 1.373 . S
C1551 C1567 1.377 . S
C1552 C1550 1.389 . S
C1552 C1553 1.524 . S
C1552 C1566 1.377 . S
C1553 C1552 1.524 . S
C1553 C1554 1.397 . S
C1553 C1558 1.363 . S
C1554 H1531 0.950 . S
C1554 C1553 1.397 . S
C1554 C1555 1.334 . S
C1555 H1532 0.950 . S
C1555 C1554 1.334 . S
C1555 C1556 1.287 . S
C1556 C1555 1.287 . S
C1556 C1557 1.524 . S
C1556 H1575 0.913 . S
C1557 H1533 0.950 . S
C1557 C1556 1.524 . S
C1557 C1558 1.415 . S
C1558 H1534 0.950 . S
C1558 C1553 1.363 . S
C1558 C1557 1.415 . S
C1559 H1535 0.951 . S
C1559 C1560 1.366 . S
C1559 C1561 1.388 . S
C1560 C1559 1.366 . S
C1560 C1564 1.385 . S
C1561 H1536 0.951 . S
C1561 C1559 1.388 . S
C1561 C1562 1.366 . S
C1562 C1561 1.366 . S
C1562 C1563 1.414 . S
C1562 C1565 1.499 . S
C1563 H1537 0.950 . S
C1563 C1562 1.414 . S
C1563 C1564 1.374 . S
C1564 H1538 0.950 . S
C1564 C1560 1.385 . S
C1564 C1563 1.374 . S
C1565 C1562 1.499 . S
C1565 C1566 1.373 . S
C1565 C1567 1.389 . S
C1566 H1539 0.950 . S
C1566 C1552 1.377 . S
C1566 C1565 1.373 . S
C1567 C1551 1.377 . S
C1567 C1565 1.389 . S
C1567 C1568 1.524 . S
C1568 C1567 1.524 . S
C1568 C1569 1.397 . S
C1568 C1573 1.363 . S
C1569 H1540 0.950 . S
C1569 C1568 1.397 . S
C1569 C1570 1.334 . S
C1570 H1541 0.950 . S
C1570 C1569 1.334 . S
C1570 C1571 1.287 . S
C1571 C1570 1.287 . S
C1571 C1572 1.524 . S
C1571 H1574 0.999 . S
C1572 H1542 0.950 . S
C1572 C1571 1.524 . S
C1572 C1573 1.415 . S
C1573 H1543 0.950 . S
C1573 C1568 1.363 . S
C1573 C1572 1.415 . S
H1574 C1571 0.999 . S
H1575 C1556 0.913 . S
H1576 C1594 0.951 . S
H1577 C1596 0.951 . S
H1578 C1598 0.950 . S
H1579 C1599 0.950 . S
H1580 C1601 0.950 . S
H1581 C1604 0.946 1_565 S
H1582 C1605 0.950 . S
H1583 C1607 0.950 . S
H1584 C1608 0.950 . S
H1585 C1609 0.945 1_655 S
H1586 C1611 0.951 . S
H1587 C1613 0.950 . S
H1588 C1614 0.950 . S
H1589 C1616 0.950 . S
H1590 C1619 0.950 . S
H1591 C1620 0.950 . S
H1592 C1622 0.950 . S
H1593 C1623 0.950 . S
C1594 H1576 0.951 . S
C1594 C1595 1.366 . S
C1594 C1596 1.388 . S
C1595 C1594 1.366 . S
C1595 C1599 1.385 . S
C1596 H1577 0.951 . S
C1596 C1594 1.388 . S
C1596 C1597 1.366 . S
C1597 C1596 1.366 . S
C1597 C1598 1.414 . S
C1597 C1600 1.499 . S
C1598 H1578 0.950 . S
C1598 C1597 1.414 . S
C1598 C1599 1.374 . S
C1599 H1579 0.950 . S
C1599 C1595 1.385 . S
C1599 C1598 1.374 . S
C1600 C1597 1.499 . S
C1600 C1601 1.373 . S
C1600 C1602 1.389 . S
C1601 H1580 0.950 . S
C1601 C1600 1.373 . S
C1601 C1617 1.377 . S
C1602 C1600 1.389 . S
C1602 C1603 1.524 1_655 S
C1602 C1616 1.377 1_655 S
C1603 C1602 1.524 1_455 S
C1603 C1604 1.434 1_455 S
C1603 C1608 1.363 . S
C1604 H1581 0.946 1_545 S
C1604 C1603 1.434 1_655 S
C1604 C1605 1.305 1_545 S
C1605 H1582 0.950 . S
C1605 C1604 1.305 1_565 S
C1605 C1606 1.287 1_655 S
C1606 C1605 1.287 1_455 S
C1606 C1607 1.524 1_565 S
C1606 H1625 0.913 . S
C1607 H1583 0.950 . S
C1607 C1606 1.524 1_545 S
C1607 C1608 1.415 . S
C1608 H1584 0.950 . S
C1608 C1603 1.363 . S
C1608 C1607 1.415 . S
C1609 H1585 0.945 1_455 S
C1609 C1610 1.375 . S
C1609 C1611 1.384 1_455 S
C1610 C1609 1.375 . S
C1610 C1614 1.385 . S
C1611 H1586 0.951 . S
C1611 C1609 1.384 1_655 S
C1611 C1612 1.366 1_655 S
C1612 C1611 1.366 1_455 S
C1612 C1613 1.414 . S
C1612 C1615 1.499 1_455 S
C1613 H1587 0.950 . S
C1613 C1612 1.414 . S
C1613 C1614 1.374 . S
C1614 H1588 0.950 . S
C1614 C1610 1.385 . S
C1614 C1613 1.374 . S
C1615 C1612 1.499 1_655 S
C1615 C1616 1.373 1_655 S
C1615 C1617 1.389 . S
C1616 H1589 0.950 . S
C1616 C1602 1.377 1_455 S
C1616 C1615 1.373 1_455 S
C1617 C1601 1.377 . S
C1617 C1615 1.389 . S
C1617 C1618 1.524 . S
C1618 C1617 1.524 . S
C1618 C1619 1.397 . S
C1618 C1623 1.363 . S
C1619 H1590 0.950 . S
C1619 C1618 1.397 . S
C1619 C1620 1.334 . S
C1620 H1591 0.950 . S
C1620 C1619 1.334 . S
C1620 C1621 1.287 . S
C1621 C1620 1.287 . S
C1621 C1622 1.524 . S
C1621 H1624 0.999 . S
C1622 H1592 0.950 . S
C1622 C1621 1.524 . S
C1622 C1623 1.415 . S
C1623 H1593 0.950 . S
C1623 C1618 1.363 . S
C1623 C1622 1.415 . S
H1624 C1621 0.999 . S
H1625 C1606 0.913 . S
H1626 C1644 0.951 . S
H1627 C1646 0.951 . S
H1628 C1648 0.950 . S
H1629 C1649 0.950 . S
H1630 C1651 0.950 . S
H1631 C1654 0.950 . S
H1632 C1655 0.950 . S
H1633 C1657 0.950 . S
H1634 C1658 0.950 . S
H1635 C1659 0.951 . S
H1636 C1661 0.951 . S
H1637 C1663 0.950 . S
H1638 C1664 0.950 . S
H1639 C1666 0.950 . S
H1640 C1669 0.950 . S
H1641 C1670 0.950 . S
H1642 C1672 0.950 . S
H1643 C1673 0.950 . S
C1644 H1626 0.951 . S
C1644 C1645 1.366 . S
C1644 C1646 1.388 . S
C1645 C1644 1.366 . S
C1645 C1649 1.385 . S
C1646 H1627 0.951 . S
C1646 C1644 1.388 . S
C1646 C1647 1.366 . S
C1647 C1646 1.366 . S
C1647 C1648 1.414 . S
C1647 C1650 1.499 . S
C1648 H1628 0.950 . S
C1648 C1647 1.414 . S
C1648 C1649 1.374 . S
C1649 H1629 0.950 . S
C1649 C1645 1.385 . S
C1649 C1648 1.374 . S
C1650 C1647 1.499 . S
C1650 C1651 1.373 . S
C1650 C1652 1.389 . S
C1651 H1630 0.950 . S
C1651 C1650 1.373 . S
C1651 C1667 1.377 . S
C1652 C1650 1.389 . S
C1652 C1653 1.524 . S
C1652 C1666 1.377 . S
C1653 C1652 1.524 . S
C1653 C1654 1.397 . S
C1653 C1658 1.363 . S
C1654 H1631 0.950 . S
C1654 C1653 1.397 . S
C1654 C1655 1.334 . S
C1655 H1632 0.950 . S
C1655 C1654 1.334 . S
C1655 C1656 1.287 . S
C1656 C1655 1.287 . S
C1656 C1657 1.524 . S
C1656 H1675 0.913 . S
C1657 H1633 0.950 . S
C1657 C1656 1.524 . S
C1657 C1658 1.415 . S
C1658 H1634 0.950 . S
C1658 C1653 1.363 . S
C1658 C1657 1.415 . S
C1659 H1635 0.951 . S
C1659 C1660 1.366 . S
C1659 C1661 1.388 . S
C1660 C1659 1.366 . S
C1660 C1664 1.385 . S
C1661 H1636 0.951 . S
C1661 C1659 1.388 . S
C1661 C1662 1.366 . S
C1662 C1661 1.366 . S
C1662 C1663 1.414 . S
C1662 C1665 1.499 . S
C1663 H1637 0.950 . S
C1663 C1662 1.414 . S
C1663 C1664 1.374 . S
C1664 H1638 0.950 . S
C1664 C1660 1.385 . S
C1664 C1663 1.374 . S
C1665 C1662 1.499 . S
C1665 C1666 1.373 . S
C1665 C1667 1.389 . S
C1666 H1639 0.950 . S
C1666 C1652 1.377 . S
C1666 C1665 1.373 . S
C1667 C1651 1.377 . S
C1667 C1665 1.389 . S
C1667 C1668 1.524 . S
C1668 C1667 1.524 . S
C1668 C1669 1.397 . S
C1668 C1673 1.363 . S
C1669 H1640 0.950 . S
C1669 C1668 1.397 . S
C1669 C1670 1.334 . S
C1670 H1641 0.950 . S
C1670 C1669 1.334 . S
C1670 C1671 1.287 . S
C1671 C1670 1.287 . S
C1671 C1672 1.524 . S
C1671 H1674 0.999 . S
C1672 H1642 0.950 . S
C1672 C1671 1.524 . S
C1672 C1673 1.415 . S
C1673 H1643 0.950 . S
C1673 C1668 1.363 . S
C1673 C1672 1.415 . S
H1674 C1671 0.999 . S
H1675 C1656 0.913 . S
H1676 C1694 0.951 . S
H1677 C1696 0.951 . S
H1678 C1698 0.950 . S
H1679 C1699 0.950 . S
H1680 C1701 0.950 . S
H1681 C1704 0.950 . S
H1682 C1705 0.950 . S
H1683 C1707 0.950 . S
H1684 C1708 0.950 . S
H1685 C1709 0.951 . S
H1686 C1711 0.951 . S
H1687 C1713 0.950 . S
H1688 C1714 0.950 . S
H1689 C1716 0.950 . S
H1690 C1719 0.950 . S
H1691 C1720 0.950 . S
H1692 C1722 0.950 . S
H1693 C1723 0.950 . S
C1694 H1676 0.951 . S
C1694 C1695 1.366 . S
C1694 C1696 1.388 . S
C1695 C1694 1.366 . S
C1695 C1699 1.385 . S
C1696 H1677 0.951 . S
C1696 C1694 1.388 . S
C1696 C1697 1.366 . S
C1697 C1696 1.366 . S
C1697 C1698 1.414 . S
C1697 C1700 1.499 . S
C1698 H1678 0.950 . S
C1698 C1697 1.414 . S
C1698 C1699 1.374 . S
C1699 H1679 0.950 . S
C1699 C1695 1.385 . S
C1699 C1698 1.374 . S
C1700 C1697 1.499 . S
C1700 C1701 1.373 . S
C1700 C1702 1.389 . S
C1701 H1680 0.950 . S
C1701 C1700 1.373 . S
C1701 C1717 1.377 . S
C1702 C1700 1.389 . S
C1702 C1703 1.524 . S
C1702 C1716 1.377 . S
C1703 C1702 1.524 . S
C1703 C1704 1.397 . S
C1703 C1708 1.363 . S
C1704 H1681 0.950 . S
C1704 C1703 1.397 . S
C1704 C1705 1.334 . S
C1705 H1682 0.950 . S
C1705 C1704 1.334 . S
C1705 C1706 1.287 . S
C1706 C1705 1.287 . S
C1706 C1707 1.524 . S
C1706 H1725 0.913 . S
C1707 H1683 0.950 . S
C1707 C1706 1.524 . S
C1707 C1708 1.415 . S
C1708 H1684 0.950 . S
C1708 C1703 1.363 . S
C1708 C1707 1.415 . S
C1709 H1685 0.951 . S
C1709 C1710 1.366 . S
C1709 C1711 1.388 . S
C1710 C1709 1.366 . S
C1710 C1714 1.385 . S
C1711 H1686 0.951 . S
C1711 C1709 1.388 . S
C1711 C1712 1.366 . S
C1712 C1711 1.366 . S
C1712 C1713 1.414 . S
C1712 C1715 1.499 . S
C1713 H1687 0.950 . S
C1713 C1712 1.414 . S
C1713 C1714 1.374 . S
C1714 H1688 0.950 . S
C1714 C1710 1.385 . S
C1714 C1713 1.374 . S
C1715 C1712 1.499 . S
C1715 C1716 1.373 . S
C1715 C1717 1.389 . S
C1716 H1689 0.950 . S
C1716 C1702 1.377 . S
C1716 C1715 1.373 . S
C1717 C1701 1.377 . S
C1717 C1715 1.389 . S
C1717 C1718 1.524 . S
C1718 C1717 1.524 . S
C1718 C1719 1.397 . S
C1718 C1723 1.363 . S
C1719 H1690 0.950 . S
C1719 C1718 1.397 . S
C1719 C1720 1.334 . S
C1720 H1691 0.950 . S
C1720 C1719 1.334 . S
C1720 C1721 1.287 . S
C1721 C1720 1.287 . S
C1721 C1722 1.524 . S
C1721 H1724 0.999 . S
C1722 H1692 0.950 . S
C1722 C1721 1.524 . S
C1722 C1723 1.415 . S
C1723 H1693 0.950 . S
C1723 C1718 1.363 . S
C1723 C1722 1.415 . S
H1724 C1721 0.999 . S
H1725 C1706 0.913 . S
H1726 C1744 0.951 . S
H1727 C1746 0.951 . S
H1728 C1748 0.950 . S
H1729 C1749 0.950 . S
H1730 C1751 0.950 . S
H1731 C1754 0.950 . S
H1732 C1755 0.950 . S
H1733 C1757 0.950 . S
H1734 C1758 0.950 . S
H1735 C1759 0.951 . S
H1736 C1761 0.951 . S
H1737 C1763 0.950 . S
H1738 C1764 0.950 . S
H1739 C1766 0.950 . S
H1740 C1769 0.950 . S
H1741 C1770 0.950 . S
H1742 C1772 0.950 . S
H1743 C1773 0.950 . S
C1744 H1726 0.951 . S
C1744 C1745 1.366 . S
C1744 C1746 1.388 . S
C1745 C1744 1.366 . S
C1745 C1749 1.385 . S
C1746 H1727 0.951 . S
C1746 C1744 1.388 . S
C1746 C1747 1.366 . S
C1747 C1746 1.366 . S
C1747 C1748 1.414 . S
C1747 C1750 1.499 . S
C1748 H1728 0.950 . S
C1748 C1747 1.414 . S
C1748 C1749 1.374 . S
C1749 H1729 0.950 . S
C1749 C1745 1.385 . S
C1749 C1748 1.374 . S
C1750 C1747 1.499 . S
C1750 C1751 1.373 . S
C1750 C1752 1.389 . S
C1751 H1730 0.950 . S
C1751 C1750 1.373 . S
C1751 C1767 1.377 . S
C1752 C1750 1.389 . S
C1752 C1753 1.524 . S
C1752 C1766 1.377 . S
C1753 C1752 1.524 . S
C1753 C1754 1.397 . S
C1753 C1758 1.363 . S
C1754 H1731 0.950 . S
C1754 C1753 1.397 . S
C1754 C1755 1.334 . S
C1755 H1732 0.950 . S
C1755 C1754 1.334 . S
C1755 C1756 1.287 . S
C1756 C1755 1.287 . S
C1756 C1757 1.524 . S
C1756 H1775 0.913 . S
C1757 H1733 0.950 . S
C1757 C1756 1.524 . S
C1757 C1758 1.415 . S
C1758 H1734 0.950 . S
C1758 C1753 1.363 . S
C1758 C1757 1.415 . S
C1759 H1735 0.951 . S
C1759 C1760 1.366 . S
C1759 C1761 1.388 . S
C1760 C1759 1.366 . S
C1760 C1764 1.385 . S
C1761 H1736 0.951 . S
C1761 C1759 1.388 . S
C1761 C1762 1.366 . S
C1762 C1761 1.366 . S
C1762 C1763 1.414 . S
C1762 C1765 1.499 . S
C1763 H1737 0.950 . S
C1763 C1762 1.414 . S
C1763 C1764 1.374 . S
C1764 H1738 0.950 . S
C1764 C1760 1.385 . S
C1764 C1763 1.374 . S
C1765 C1762 1.499 . S
C1765 C1766 1.373 . S
C1765 C1767 1.389 . S
C1766 H1739 0.950 . S
C1766 C1752 1.377 . S
C1766 C1765 1.373 . S
C1767 C1751 1.377 . S
C1767 C1765 1.389 . S
C1767 C1768 1.524 . S
C1768 C1767 1.524 . S
C1768 C1769 1.397 . S
C1768 C1773 1.363 . S
C1769 H1740 0.950 . S
C1769 C1768 1.397 . S
C1769 C1770 1.334 . S
C1770 H1741 0.950 . S
C1770 C1769 1.334 . S
C1770 C1771 1.287 . S
C1771 C1770 1.287 . S
C1771 C1772 1.524 . S
C1771 H1774 0.999 . S
C1772 H1742 0.950 . S
C1772 C1771 1.524 . S
C1772 C1773 1.415 . S
C1773 H1743 0.950 . S
C1773 C1768 1.363 . S
C1773 C1772 1.415 . S
H1774 C1771 0.999 . S
H1775 C1756 0.913 . S
H1776 C1794 0.951 . S
H1777 C1796 0.951 . S
H1778 C1798 0.950 . S
H1779 C1799 0.950 . S
H1780 C1801 0.950 . S
H1781 C1804 0.950 . S
H1782 C1805 0.950 . S
H1783 C1807 0.941 1_545 S
H1784 C1808 0.950 . S
H1785 C1809 0.951 . S
H1786 C1811 0.951 . S
H1787 C1813 0.950 . S
H1788 C1814 0.950 . S
H1789 C1816 0.950 . S
H1790 C1819 0.950 . S
H1791 C1820 0.950 . S
H1792 C1822 0.950 . S
H1793 C1823 0.950 . S
C1794 H1776 0.951 . S
C1794 C1795 1.366 . S
C1794 C1796 1.388 . S
C1795 C1794 1.366 . S
C1795 C1799 1.385 . S
C1796 H1777 0.951 . S
C1796 C1794 1.388 . S
C1796 C1797 1.366 . S
C1797 C1796 1.366 . S
C1797 C1798 1.414 . S
C1797 C1800 1.499 . S
C1798 H1778 0.950 . S
C1798 C1797 1.414 . S
C1798 C1799 1.374 . S
C1799 H1779 0.950 . S
C1799 C1795 1.385 . S
C1799 C1798 1.374 . S
C1800 C1797 1.499 . S
C1800 C1801 1.373 . S
C1800 C1802 1.389 . S
C1801 H1780 0.950 . S
C1801 C1800 1.373 . S
C1801 C1817 1.377 . S
C1802 C1800 1.389 . S
C1802 C1803 1.524 . S
C1802 C1816 1.377 . S
C1803 C1802 1.524 . S
C1803 C1804 1.397 . S
C1803 C1808 1.363 . S
C1804 H1781 0.950 . S
C1804 C1803 1.397 . S
C1804 C1805 1.334 . S
C1805 H1782 0.950 . S
C1805 C1804 1.334 . S
C1805 C1806 1.287 . S
C1806 C1805 1.287 . S
C1806 C1807 1.524 . S
C1806 H1825 0.913 . S
C1807 H1783 0.941 1_565 S
C1807 C1806 1.524 . S
C1807 C1808 1.415 . S
C1808 H1784 0.950 . S
C1808 C1803 1.363 . S
C1808 C1807 1.415 . S
C1809 H1785 0.951 . S
C1809 C1810 1.366 1_565 S
C1809 C1811 1.388 . S
C1810 C1809 1.366 1_545 S
C1810 C1814 1.385 . S
C1811 H1786 0.951 . S
C1811 C1809 1.388 . S
C1811 C1812 1.366 . S
C1812 C1811 1.366 . S
C1812 C1813 1.414 1_565 S
C1812 C1815 1.499 . S
C1813 H1787 0.950 . S
C1813 C1812 1.414 1_545 S
C1813 C1814 1.374 . S
C1814 H1788 0.950 . S
C1814 C1810 1.385 . S
C1814 C1813 1.374 . S
C1815 C1812 1.499 . S
C1815 C1816 1.373 . S
C1815 C1817 1.389 . S
C1816 H1789 0.950 . S
C1816 C1802 1.377 . S
C1816 C1815 1.373 . S
C1817 C1801 1.377 . S
C1817 C1815 1.389 . S
C1817 C1818 1.524 . S
C1818 C1817 1.524 . S
C1818 C1819 1.397 . S
C1818 C1823 1.363 . S
C1819 H1790 0.950 . S
C1819 C1818 1.397 . S
C1819 C1820 1.334 1_554 S
C1820 H1791 0.950 . S
C1820 C1819 1.334 1_556 S
C1820 C1821 1.287 . S
C1821 C1820 1.287 . S
C1821 C1822 1.524 . S
C1821 H1824 0.999 . S
C1822 H1792 0.950 . S
C1822 C1821 1.524 . S
C1822 C1823 1.415 1_556 S
C1823 H1793 0.950 . S
C1823 C1818 1.363 . S
C1823 C1822 1.415 1_554 S
H1824 C1821 0.999 . S
H1825 C1806 0.913 . S
H1826 C1844 0.951 . S
H1827 C1846 0.951 . S
H1828 C1848 0.950 . S
H1829 C1849 0.950 . S
H1830 C1851 0.950 . S
H1831 C1854 0.950 . S
H1832 C1855 0.950 . S
H1833 C1857 0.950 . S
H1834 C1858 0.950 . S
H1835 C1859 0.951 . S
H1836 C1861 0.951 . S
H1837 C1863 0.950 . S
H1838 C1864 0.950 . S
H1839 C1866 0.950 . S
H1840 C1869 0.950 . S
H1841 C1870 0.950 . S
H1842 C1872 0.950 . S
H1843 C1873 0.950 1_554 S
C1844 H1826 0.951 . S
C1844 C1845 1.366 . S
C1844 C1846 1.388 . S
C1845 C1844 1.366 . S
C1845 C1849 1.385 . S
C1846 H1827 0.951 . S
C1846 C1844 1.388 . S
C1846 C1847 1.366 . S
C1847 C1846 1.366 . S
C1847 C1848 1.414 . S
C1847 C1850 1.499 . S
C1848 H1828 0.950 . S
C1848 C1847 1.414 . S
C1848 C1849 1.374 . S
C1849 H1829 0.950 . S
C1849 C1845 1.385 . S
C1849 C1848 1.374 . S
C1850 C1847 1.499 . S
C1850 C1851 1.373 . S
C1850 C1852 1.389 . S
C1851 H1830 0.950 . S
C1851 C1850 1.373 . S
C1851 C1867 1.377 . S
C1852 C1850 1.389 . S
C1852 C1853 1.524 . S
C1852 C1866 1.377 . S
C1853 C1852 1.524 . S
C1853 C1854 1.397 . S
C1853 C1858 1.363 . S
C1854 H1831 0.950 . S
C1854 C1853 1.397 . S
C1854 C1855 1.334 . S
C1855 H1832 0.950 . S
C1855 C1854 1.334 . S
C1855 C1856 1.287 . S
C1856 C1855 1.287 . S
C1856 C1857 1.524 . S
C1856 H1875 0.913 . S
C1857 H1833 0.950 . S
C1857 C1856 1.524 . S
C1857 C1858 1.415 . S
C1858 H1834 0.950 . S
C1858 C1853 1.363 . S
C1858 C1857 1.415 . S
C1859 H1835 0.951 . S
C1859 C1860 1.366 . S
C1859 C1861 1.388 . S
C1860 C1859 1.366 . S
C1860 C1864 1.385 . S
C1861 H1836 0.951 . S
C1861 C1859 1.388 . S
C1861 C1862 1.366 . S
C1862 C1861 1.366 . S
C1862 C1863 1.414 . S
C1862 C1865 1.499 . S
C1863 H1837 0.950 . S
C1863 C1862 1.414 . S
C1863 C1864 1.374 . S
C1864 H1838 0.950 . S
C1864 C1860 1.385 . S
C1864 C1863 1.374 . S
C1865 C1862 1.499 . S
C1865 C1866 1.373 . S
C1865 C1867 1.389 . S
C1866 H1839 0.950 . S
C1866 C1852 1.377 . S
C1866 C1865 1.373 . S
C1867 C1851 1.377 . S
C1867 C1865 1.389 . S
C1867 C1868 1.557 . S
C1868 C1867 1.557 . S
C1868 C1869 1.376 1_554 S
C1868 C1873 1.351 1_554 S
C1869 H1840 0.950 . S
C1869 C1868 1.376 1_556 S
C1869 C1870 1.334 . S
C1870 H1841 0.950 . S
C1870 C1869 1.334 . S
C1870 C1871 1.287 . S
C1871 C1870 1.287 . S
C1871 C1872 1.524 . S
C1871 H1874 0.999 . S
C1872 H1842 0.950 . S
C1872 C1871 1.524 . S
C1872 C1873 1.415 . S
C1873 H1843 0.950 1_556 S
C1873 C1868 1.351 1_556 S
C1873 C1872 1.415 . S
H1874 C1871 0.999 . S
H1875 C1856 0.913 . S
H1876 C1894 0.951 . S
H1877 C1896 0.951 . S
H1878 C1898 0.950 . S
H1879 C1899 0.950 . S
H1880 C1901 0.950 . S
H1881 C1904 0.950 . S
H1882 C1905 0.950 . S
H1883 C1907 0.950 . S
H1884 C1908 0.950 . S
H1885 C1909 0.951 . S
H1886 C1911 0.951 . S
H1887 C1913 0.950 . S
H1888 C1914 0.950 . S
H1889 C1916 0.950 . S
H1890 C1919 0.950 . S
H1891 C1920 0.950 . S
H1892 C1922 0.950 . S
H1893 C1923 0.950 . S
C1894 H1876 0.951 . S
C1894 C1895 1.366 . S
C1894 C1896 1.388 . S
C1895 C1894 1.366 . S
C1895 C1899 1.385 . S
C1896 H1877 0.951 . S
C1896 C1894 1.388 . S
C1896 C1897 1.366 . S
C1897 C1896 1.366 . S
C1897 C1898 1.414 . S
C1897 C1900 1.499 . S
C1898 H1878 0.950 . S
C1898 C1897 1.414 . S
C1898 C1899 1.374 . S
C1899 H1879 0.950 . S
C1899 C1895 1.385 . S
C1899 C1898 1.374 . S
C1900 C1897 1.499 . S
C1900 C1901 1.373 . S
C1900 C1902 1.389 . S
C1901 H1880 0.950 . S
C1901 C1900 1.373 . S
C1901 C1917 1.377 . S
C1902 C1900 1.389 . S
C1902 C1903 1.524 . S
C1902 C1916 1.377 . S
C1903 C1902 1.524 . S
C1903 C1904 1.397 . S
C1903 C1908 1.363 . S
C1904 H1881 0.950 . S
C1904 C1903 1.397 . S
C1904 C1905 1.334 . S
C1905 H1882 0.950 . S
C1905 C1904 1.334 . S
C1905 C1906 1.287 . S
C1906 C1905 1.287 . S
C1906 C1907 1.524 . S
C1906 H1925 0.913 . S
C1907 H1883 0.950 . S
C1907 C1906 1.524 . S
C1907 C1908 1.415 . S
C1908 H1884 0.950 . S
C1908 C1903 1.363 . S
C1908 C1907 1.415 . S
C1909 H1885 0.951 . S
C1909 C1910 1.366 . S
C1909 C1911 1.388 . S
C1910 C1909 1.366 . S
C1910 C1914 1.385 . S
C1911 H1886 0.951 . S
C1911 C1909 1.388 . S
C1911 C1912 1.366 . S
C1912 C1911 1.366 . S
C1912 C1913 1.414 . S
C1912 C1915 1.499 . S
C1913 H1887 0.950 . S
C1913 C1912 1.414 . S
C1913 C1914 1.374 . S
C1914 H1888 0.950 . S
C1914 C1910 1.385 . S
C1914 C1913 1.374 . S
C1915 C1912 1.499 . S
C1915 C1916 1.373 . S
C1915 C1917 1.389 . S
C1916 H1889 0.950 . S
C1916 C1902 1.377 . S
C1916 C1915 1.373 . S
C1917 C1901 1.377 . S
C1917 C1915 1.389 . S
C1917 C1918 1.524 . S
C1918 C1917 1.524 . S
C1918 C1919 1.397 . S
C1918 C1923 1.363 . S
C1919 H1890 0.950 . S
C1919 C1918 1.397 . S
C1919 C1920 1.334 . S
C1920 H1891 0.950 . S
C1920 C1919 1.334 . S
C1920 C1921 1.287 . S
C1921 C1920 1.287 . S
C1921 C1922 1.524 . S
C1921 H1924 0.999 . S
C1922 H1892 0.950 . S
C1922 C1921 1.524 . S
C1922 C1923 1.415 . S
C1923 H1893 0.950 . S
C1923 C1918 1.363 . S
C1923 C1922 1.415 . S
H1924 C1921 0.999 . S
H1925 C1906 0.913 . S
H1926 C1944 0.951 . S
H1927 C1946 0.951 . S
H1928 C1948 0.950 . S
H1929 C1949 0.950 . S
H1930 C1951 0.950 . S
H1931 C1954 0.950 . S
H1932 C1955 0.950 . S
H1933 C1957 0.950 . S
H1934 C1958 0.950 . S
H1935 C1959 0.951 . S
H1936 C1961 0.951 . S
H1937 C1963 0.950 . S
H1938 C1964 0.950 . S
H1939 C1966 0.950 . S
H1940 C1969 0.950 . S
H1941 C1970 0.950 . S
H1942 C1972 0.950 . S
H1943 C1973 0.950 . S
C1944 H1926 0.951 . S
C1944 C1945 1.366 . S
C1944 C1946 1.388 . S
C1945 C1944 1.366 . S
C1945 C1949 1.385 . S
C1946 H1927 0.951 . S
C1946 C1944 1.388 . S
C1946 C1947 1.366 . S
C1947 C1946 1.366 . S
C1947 C1948 1.414 . S
C1947 C1950 1.499 . S
C1948 H1928 0.950 . S
C1948 C1947 1.414 . S
C1948 C1949 1.374 . S
C1949 H1929 0.950 . S
C1949 C1945 1.385 . S
C1949 C1948 1.374 . S
C1950 C1947 1.499 . S
C1950 C1951 1.373 . S
C1950 C1952 1.389 . S
C1951 H1930 0.950 . S
C1951 C1950 1.373 . S
C1951 C1967 1.377 . S
C1952 C1950 1.389 . S
C1952 C1953 1.524 . S
C1952 C1966 1.377 . S
C1953 C1952 1.524 . S
C1953 C1954 1.397 . S
C1953 C1958 1.363 . S
C1954 H1931 0.950 . S
C1954 C1953 1.397 . S
C1954 C1955 1.334 . S
C1955 H1932 0.950 . S
C1955 C1954 1.334 . S
C1955 C1956 1.287 . S
C1956 C1955 1.287 . S
C1956 C1957 1.524 . S
C1956 H1975 0.913 . S
C1957 H1933 0.950 . S
C1957 C1956 1.524 . S
C1957 C1958 1.415 . S
C1958 H1934 0.950 . S
C1958 C1953 1.363 . S
C1958 C1957 1.415 . S
C1959 H1935 0.951 . S
C1959 C1960 1.366 . S
C1959 C1961 1.388 . S
C1960 C1959 1.366 . S
C1960 C1964 1.385 . S
C1961 H1936 0.951 . S
C1961 C1959 1.388 . S
C1961 C1962 1.366 . S
C1962 C1961 1.366 . S
C1962 C1963 1.414 . S
C1962 C1965 1.499 . S
C1963 H1937 0.950 . S
C1963 C1962 1.414 . S
C1963 C1964 1.374 . S
C1964 H1938 0.950 . S
C1964 C1960 1.385 . S
C1964 C1963 1.374 . S
C1965 C1962 1.499 . S
C1965 C1966 1.373 . S
C1965 C1967 1.389 . S
C1966 H1939 0.950 . S
C1966 C1952 1.377 . S
C1966 C1965 1.373 . S
C1967 C1951 1.377 . S
C1967 C1965 1.389 . S
C1967 C1968 1.524 . S
C1968 C1967 1.524 . S
C1968 C1969 1.397 . S
C1968 C1973 1.363 . S
C1969 H1940 0.950 . S
C1969 C1968 1.397 . S
C1969 C1970 1.334 . S
C1970 H1941 0.950 . S
C1970 C1969 1.334 . S
C1970 C1971 1.287 . S
C1971 C1970 1.287 . S
C1971 C1972 1.524 . S
C1971 H1974 0.999 . S
C1972 H1942 0.950 . S
C1972 C1971 1.524 . S
C1972 C1973 1.415 . S
C1973 H1943 0.950 . S
C1973 C1968 1.363 . S
C1973 C1972 1.415 . S
H1974 C1971 0.999 . S
H1975 C1956 0.913 . S
H1976 C1994 0.951 . S
H1977 C1996 0.951 . S
H1978 C1998 0.950 . S
H1979 C1999 0.950 . S
H1980 C2001 0.950 . S
H1981 C2004 0.950 . S
H1982 C2005 0.950 . S
H1983 C2007 0.950 . S
H1984 C2008 0.950 . S
H1985 C2009 0.951 . S
H1986 C2011 0.951 . S
H1987 C2013 0.950 . S
H1988 C2014 0.950 . S
H1989 C2016 0.950 . S
H1990 C2019 0.950 . S
H1991 C2020 0.950 . S
H1992 C2022 0.950 . S
H1993 C2023 0.950 . S
C1994 H1976 0.951 . S
C1994 C1995 1.366 . S
C1994 C1996 1.388 . S
C1995 C1994 1.366 . S
C1995 C1999 1.385 . S
C1996 H1977 0.951 . S
C1996 C1994 1.388 . S
C1996 C1997 1.366 . S
C1997 C1996 1.366 . S
C1997 C1998 1.414 . S
C1997 C2000 1.499 . S
C1998 H1978 0.950 . S
C1998 C1997 1.414 . S
C1998 C1999 1.374 . S
C1999 H1979 0.950 . S
C1999 C1995 1.385 . S
C1999 C1998 1.374 . S
C2000 C1997 1.499 . S
C2000 C2001 1.373 . S
C2000 C2002 1.389 . S
C2001 H1980 0.950 . S
C2001 C2000 1.373 . S
C2001 C2017 1.377 . S
C2002 C2000 1.389 . S
C2002 C2003 1.524 . S
C2002 C2016 1.377 . S
C2003 C2002 1.524 . S
C2003 C2004 1.397 . S
C2003 C2008 1.363 . S
C2004 H1981 0.950 . S
C2004 C2003 1.397 . S
C2004 C2005 1.334 . S
C2005 H1982 0.950 . S
C2005 C2004 1.334 . S
C2005 C2006 1.287 . S
C2006 C2005 1.287 . S
C2006 C2007 1.524 . S
C2006 H2025 0.913 . S
C2007 H1983 0.950 . S
C2007 C2006 1.524 . S
C2007 C2008 1.415 . S
C2008 H1984 0.950 . S
C2008 C2003 1.363 . S
C2008 C2007 1.415 . S
C2009 H1985 0.951 . S
C2009 C2010 1.366 . S
C2009 C2011 1.388 . S
C2010 C2009 1.366 . S
C2010 C2014 1.385 . S
C2011 H1986 0.951 . S
C2011 C2009 1.388 . S
C2011 C2012 1.366 . S
C2012 C2011 1.366 . S
C2012 C2013 1.414 . S
C2012 C2015 1.499 . S
C2013 H1987 0.950 . S
C2013 C2012 1.414 . S
C2013 C2014 1.374 . S
C2014 H1988 0.950 . S
C2014 C2010 1.385 . S
C2014 C2013 1.374 . S
C2015 C2012 1.499 . S
C2015 C2016 1.373 . S
C2015 C2017 1.389 . S
C2016 H1989 0.950 . S
C2016 C2002 1.377 . S
C2016 C2015 1.373 . S
C2017 C2001 1.377 . S
C2017 C2015 1.389 . S
C2017 C2018 1.524 . S
C2018 C2017 1.524 . S
C2018 C2019 1.397 . S
C2018 C2023 1.363 . S
C2019 H1990 0.950 . S
C2019 C2018 1.397 . S
C2019 C2020 1.334 . S
C2020 H1991 0.950 . S
C2020 C2019 1.334 . S
C2020 C2021 1.287 . S
C2021 C2020 1.287 . S
C2021 C2022 1.524 . S
C2021 H2024 0.999 . S
C2022 H1992 0.950 . S
C2022 C2021 1.524 . S
C2022 C2023 1.415 . S
C2023 H1993 0.950 . S
C2023 C2018 1.363 . S
C2023 C2022 1.415 . S
H2024 C2021 0.999 . S
H2025 C2006 0.913 . S
H2026 C2044 0.951 . S
H2027 C2046 0.951 . S
H2028 C2048 0.950 . S
H2029 C2049 0.950 . S
H2030 C2051 0.950 . S
H2031 C2054 0.950 . S
H2032 C2055 0.950 . S
H2033 C2057 0.950 . S
H2034 C2058 0.950 . S
H2035 C2059 0.951 . S
H2036 C2061 0.951 . S
H2037 C2063 0.950 . S
H2038 C2064 0.950 . S
H2039 C2066 0.950 . S
H2040 C2069 0.950 . S
H2041 C2070 0.950 . S
H2042 C2072 0.950 . S
H2043 C2073 0.950 . S
C2044 H2026 0.951 . S
C2044 C2045 1.366 . S
C2044 C2046 1.388 . S
C2045 C2044 1.366 . S
C2045 C2049 1.385 . S
C2046 H2027 0.951 . S
C2046 C2044 1.388 . S
C2046 C2047 1.366 . S
C2047 C2046 1.366 . S
C2047 C2048 1.414 . S
C2047 C2050 1.499 . S
C2048 H2028 0.950 . S
C2048 C2047 1.414 . S
C2048 C2049 1.374 . S
C2049 H2029 0.950 . S
C2049 C2045 1.385 . S
C2049 C2048 1.374 . S
C2050 C2047 1.499 . S
C2050 C2051 1.373 . S
C2050 C2052 1.389 . S
C2051 H2030 0.950 . S
C2051 C2050 1.373 . S
C2051 C2067 1.377 . S
C2052 C2050 1.389 . S
C2052 C2053 1.524 . S
C2052 C2066 1.377 . S
C2053 C2052 1.524 . S
C2053 C2054 1.397 . S
C2053 C2058 1.363 . S
C2054 H2031 0.950 . S
C2054 C2053 1.397 . S
C2054 C2055 1.334 . S
C2055 H2032 0.950 . S
C2055 C2054 1.334 . S
C2055 C2056 1.287 . S
C2056 C2055 1.287 . S
C2056 C2057 1.524 . S
C2056 H2075 0.913 . S
C2057 H2033 0.950 . S
C2057 C2056 1.524 . S
C2057 C2058 1.415 . S
C2058 H2034 0.950 . S
C2058 C2053 1.363 . S
C2058 C2057 1.415 . S
C2059 H2035 0.951 . S
C2059 C2060 1.366 . S
C2059 C2061 1.388 . S
C2060 C2059 1.366 . S
C2060 C2064 1.385 . S
C2061 H2036 0.951 . S
C2061 C2059 1.388 . S
C2061 C2062 1.366 . S
C2062 C2061 1.366 . S
C2062 C2063 1.414 . S
C2062 C2065 1.499 . S
C2063 H2037 0.950 . S
C2063 C2062 1.414 . S
C2063 C2064 1.374 . S
C2064 H2038 0.950 . S
C2064 C2060 1.385 . S
C2064 C2063 1.374 . S
C2065 C2062 1.499 . S
C2065 C2066 1.373 . S
C2065 C2067 1.389 . S
C2066 H2039 0.950 . S
C2066 C2052 1.377 . S
C2066 C2065 1.373 . S
C2067 C2051 1.377 . S
C2067 C2065 1.389 . S
C2067 C2068 1.524 . S
C2068 C2067 1.524 . S
C2068 C2069 1.397 . S
C2068 C2073 1.363 . S
C2069 H2040 0.950 . S
C2069 C2068 1.397 . S
C2069 C2070 1.334 . S
C2070 H2041 0.950 . S
C2070 C2069 1.334 . S
C2070 C2071 1.287 . S
C2071 C2070 1.287 . S
C2071 C2072 1.524 . S
C2071 H2074 0.999 . S
C2072 H2042 0.950 . S
C2072 C2071 1.524 . S
C2072 C2073 1.415 . S
C2073 H2043 0.950 . S
C2073 C2068 1.363 . S
C2073 C2072 1.415 . S
H2074 C2071 0.999 . S
H2075 C2056 0.913 . S
H2076 C2094 0.951 . S
H2077 C2096 0.951 . S
H2078 C2098 0.950 . S
H2079 C2099 0.950 . S
H2080 C2101 0.950 . S
H2081 C2104 0.950 . S
H2082 C2105 0.950 . S
H2083 C2107 0.950 . S
H2084 C2108 0.950 . S
H2085 C2109 0.951 . S
H2086 C2111 0.951 . S
H2087 C2113 0.950 . S
H2088 C2114 0.950 . S
H2089 C2116 0.950 . S
H2090 C2119 0.950 . S
H2091 C2120 0.950 . S
H2092 C2122 0.950 . S
H2093 C2123 0.950 . S
C2094 H2076 0.951 . S
C2094 C2095 1.366 . S
C2094 C2096 1.388 . S
C2095 C2094 1.366 . S
C2095 C2099 1.385 . S
C2096 H2077 0.951 . S
C2096 C2094 1.388 . S
C2096 C2097 1.366 . S
C2097 C2096 1.366 . S
C2097 C2098 1.414 . S
C2097 C2100 1.499 . S
C2098 H2078 0.950 . S
C2098 C2097 1.414 . S
C2098 C2099 1.374 . S
C2099 H2079 0.950 . S
C2099 C2095 1.385 . S
C2099 C2098 1.374 . S
C2100 C2097 1.499 . S
C2100 C2101 1.373 . S
C2100 C2102 1.389 . S
C2101 H2080 0.950 . S
C2101 C2100 1.373 . S
C2101 C2117 1.377 . S
C2102 C2100 1.389 . S
C2102 C2103 1.524 . S
C2102 C2116 1.377 . S
C2103 C2102 1.524 . S
C2103 C2104 1.397 . S
C2103 C2108 1.363 . S
C2104 H2081 0.950 . S
C2104 C2103 1.397 . S
C2104 C2105 1.334 . S
C2105 H2082 0.950 . S
C2105 C2104 1.334 . S
C2105 C2106 1.287 . S
C2106 C2105 1.287 . S
C2106 C2107 1.524 . S
C2106 H2125 0.913 . S
C2107 H2083 0.950 . S
C2107 C2106 1.524 . S
C2107 C2108 1.415 . S
C2108 H2084 0.950 . S
C2108 C2103 1.363 . S
C2108 C2107 1.415 . S
C2109 H2085 0.951 . S
C2109 C2110 1.366 . S
C2109 C2111 1.388 . S
C2110 C2109 1.366 . S
C2110 C2114 1.385 . S
C2111 H2086 0.951 . S
C2111 C2109 1.388 . S
C2111 C2112 1.366 . S
C2112 C2111 1.366 . S
C2112 C2113 1.414 . S
C2112 C2115 1.499 . S
C2113 H2087 0.950 . S
C2113 C2112 1.414 . S
C2113 C2114 1.374 . S
C2114 H2088 0.950 . S
C2114 C2110 1.385 . S
C2114 C2113 1.374 . S
C2115 C2112 1.499 . S
C2115 C2116 1.373 . S
C2115 C2117 1.389 . S
C2116 H2089 0.950 . S
C2116 C2102 1.377 . S
C2116 C2115 1.373 . S
C2117 C2101 1.377 . S
C2117 C2115 1.389 . S
C2117 C2118 1.524 . S
C2118 C2117 1.524 . S
C2118 C2119 1.397 . S
C2118 C2123 1.363 . S
C2119 H2090 0.950 . S
C2119 C2118 1.397 . S
C2119 C2120 1.334 . S
C2120 H2091 0.950 . S
C2120 C2119 1.334 . S
C2120 C2121 1.287 . S
C2121 C2120 1.287 . S
C2121 C2122 1.524 . S
C2121 H2124 0.999 . S
C2122 H2092 0.950 . S
C2122 C2121 1.524 . S
C2122 C2123 1.415 . S
C2123 H2093 0.950 . S
C2123 C2118 1.363 . S
C2123 C2122 1.415 . S
H2124 C2121 0.999 . S
H2125 C2106 0.913 . S
H2126 C2144 0.951 . S
H2127 C2146 0.951 . S
H2128 C2148 0.950 . S
H2129 C2149 0.950 . S
H2130 C2151 0.950 . S
H2131 C2154 0.950 . S
H2132 C2155 0.950 . S
H2133 C2157 0.950 . S
H2134 C2158 0.950 . S
H2135 C2159 0.951 . S
H2136 C2161 0.951 . S
H2137 C2163 0.950 . S
H2138 C2164 0.950 . S
H2139 C2166 0.950 . S
H2140 C2169 0.950 . S
H2141 C2170 0.950 . S
H2142 C2172 0.950 . S
H2143 C2173 0.950 . S
C2144 H2126 0.951 . S
C2144 C2145 1.366 . S
C2144 C2146 1.388 . S
C2145 C2144 1.366 . S
C2145 C2149 1.385 . S
C2146 H2127 0.951 . S
C2146 C2144 1.388 . S
C2146 C2147 1.366 . S
C2147 C2146 1.366 . S
C2147 C2148 1.414 . S
C2147 C2150 1.499 . S
C2148 H2128 0.950 . S
C2148 C2147 1.414 . S
C2148 C2149 1.374 . S
C2149 H2129 0.950 . S
C2149 C2145 1.385 . S
C2149 C2148 1.374 . S
C2150 C2147 1.499 . S
C2150 C2151 1.373 . S
C2150 C2152 1.389 . S
C2151 H2130 0.950 . S
C2151 C2150 1.373 . S
C2151 C2167 1.377 . S
C2152 C2150 1.389 . S
C2152 C2153 1.524 . S
C2152 C2166 1.377 . S
C2153 C2152 1.524 . S
C2153 C2154 1.397 . S
C2153 C2158 1.363 . S
C2154 H2131 0.950 . S
C2154 C2153 1.397 . S
C2154 C2155 1.334 . S
C2155 H2132 0.950 . S
C2155 C2154 1.334 . S
C2155 C2156 1.287 . S
C2156 C2155 1.287 . S
C2156 C2157 1.524 . S
C2156 H2175 0.913 . S
C2157 H2133 0.950 . S
C2157 C2156 1.524 . S
C2157 C2158 1.415 . S
C2158 H2134 0.950 . S
C2158 C2153 1.363 . S
C2158 C2157 1.415 . S
C2159 H2135 0.951 . S
C2159 C2160 1.366 . S
C2159 C2161 1.388 . S
C2160 C2159 1.366 . S
C2160 C2164 1.385 . S
C2161 H2136 0.951 . S
C2161 C2159 1.388 . S
C2161 C2162 1.366 . S
C2162 C2161 1.366 . S
C2162 C2163 1.414 . S
C2162 C2165 1.499 . S
C2163 H2137 0.950 . S
C2163 C2162 1.414 . S
C2163 C2164 1.374 . S
C2164 H2138 0.950 . S
C2164 C2160 1.385 . S
C2164 C2163 1.374 . S
C2165 C2162 1.499 . S
C2165 C2166 1.373 . S
C2165 C2167 1.389 . S
C2166 H2139 0.950 . S
C2166 C2152 1.377 . S
C2166 C2165 1.373 . S
C2167 C2151 1.377 . S
C2167 C2165 1.389 . S
C2167 C2168 1.524 . S
C2168 C2167 1.524 . S
C2168 C2169 1.397 . S
C2168 C2173 1.363 . S
C2169 H2140 0.950 . S
C2169 C2168 1.397 . S
C2169 C2170 1.334 . S
C2170 H2141 0.950 . S
C2170 C2169 1.334 . S
C2170 C2171 1.287 . S
C2171 C2170 1.287 . S
C2171 C2172 1.524 . S
C2171 H2174 0.999 . S
C2172 H2142 0.950 . S
C2172 C2171 1.524 . S
C2172 C2173 1.415 . S
C2173 H2143 0.950 . S
C2173 C2168 1.363 . S
C2173 C2172 1.415 . S
H2174 C2171 0.999 . S
H2175 C2156 0.913 . S
H2176 C2194 0.951 . S
H2177 C2196 0.951 . S
H2178 C2198 0.950 . S
H2179 C2199 0.950 . S
H2180 C2201 0.950 . S
H2181 C2204 0.950 . S
H2182 C2205 0.950 . S
H2183 C2207 0.950 . S
H2184 C2208 0.950 . S
H2185 C2209 0.951 . S
H2186 C2211 0.951 . S
H2187 C2213 0.950 . S
H2188 C2214 0.950 . S
H2189 C2216 0.950 . S
H2190 C2219 0.950 . S
H2191 C2220 0.950 . S
H2192 C2222 0.950 . S
H2193 C2223 0.950 . S
C2194 H2176 0.951 . S
C2194 C2195 1.366 . S
C2194 C2196 1.388 . S
C2195 C2194 1.366 . S
C2195 C2199 1.385 . S
C2196 H2177 0.951 . S
C2196 C2194 1.388 . S
C2196 C2197 1.366 . S
C2197 C2196 1.366 . S
C2197 C2198 1.414 . S
C2197 C2200 1.499 . S
C2198 H2178 0.950 . S
C2198 C2197 1.414 . S
C2198 C2199 1.374 . S
C2199 H2179 0.950 . S
C2199 C2195 1.385 . S
C2199 C2198 1.374 . S
C2200 C2197 1.499 . S
C2200 C2201 1.373 . S
C2200 C2202 1.389 . S
C2201 H2180 0.950 . S
C2201 C2200 1.373 . S
C2201 C2217 1.377 . S
C2202 C2200 1.389 . S
C2202 C2203 1.524 . S
C2202 C2216 1.377 . S
C2203 C2202 1.524 . S
C2203 C2204 1.397 . S
C2203 C2208 1.363 1_455 S
C2204 H2181 0.950 . S
C2204 C2203 1.397 . S
C2204 C2205 1.334 . S
C2205 H2182 0.950 . S
C2205 C2204 1.334 . S
C2205 C2206 1.287 1_455 S
C2206 C2205 1.287 1_655 S
C2206 C2207 1.524 . S
C2206 H2225 0.913 . S
C2207 H2183 0.950 . S
C2207 C2206 1.524 . S
C2207 C2208 1.415 . S
C2208 H2184 0.950 . S
C2208 C2203 1.363 1_655 S
C2208 C2207 1.415 . S
C2209 H2185 0.951 . S
C2209 C2210 1.366 . S
C2209 C2211 1.388 . S
C2210 C2209 1.366 . S
C2210 C2214 1.385 . S
C2211 H2186 0.951 . S
C2211 C2209 1.388 . S
C2211 C2212 1.366 . S
C2212 C2211 1.366 . S
C2212 C2213 1.414 . S
C2212 C2215 1.499 . S
C2213 H2187 0.950 . S
C2213 C2212 1.414 . S
C2213 C2214 1.374 . S
C2214 H2188 0.950 . S
C2214 C2210 1.385 . S
C2214 C2213 1.374 . S
C2215 C2212 1.499 . S
C2215 C2216 1.373 . S
C2215 C2217 1.389 . S
C2216 H2189 0.950 . S
C2216 C2202 1.377 . S
C2216 C2215 1.373 . S
C2217 C2201 1.377 . S
C2217 C2215 1.389 . S
C2217 C2218 1.524 . S
C2218 C2217 1.524 . S
C2218 C2219 1.397 . S
C2218 C2223 1.363 . S
C2219 H2190 0.950 . S
C2219 C2218 1.397 . S
C2219 C2220 1.334 . S
C2220 H2191 0.950 . S
C2220 C2219 1.334 . S
C2220 C2221 1.287 . S
C2221 C2220 1.287 . S
C2221 C2222 1.524 . S
C2221 H2224 0.999 . S
C2222 H2192 0.950 . S
C2222 C2221 1.524 . S
C2222 C2223 1.415 . S
C2223 H2193 0.950 . S
C2223 C2218 1.363 . S
C2223 C2222 1.415 . S
H2224 C2221 0.999 . S
H2225 C2206 0.913 . S
H2226 C2244 0.951 . S
H2227 C2246 0.951 . S
H2228 C2248 0.950 . S
H2229 C2249 0.950 . S
H2230 C2251 0.950 . S
H2231 C2254 0.950 . S
H2232 C2255 0.950 . S
H2233 C2257 0.950 . S
H2234 C2258 0.950 . S
H2235 C2259 0.951 . S
H2236 C2261 0.951 . S
H2237 C2263 0.950 . S
H2238 C2264 0.950 . S
H2239 C2266 0.950 . S
H2240 C2269 0.950 . S
H2241 C2270 0.950 . S
H2242 C2272 0.950 . S
H2243 C2273 0.950 . S
C2244 H2226 0.951 . S
C2244 C2245 1.366 . S
C2244 C2246 1.388 . S
C2245 C2244 1.366 . S
C2245 C2249 1.385 . S
C2246 H2227 0.951 . S
C2246 C2244 1.388 . S
C2246 C2247 1.366 . S
C2247 C2246 1.366 . S
C2247 C2248 1.414 . S
C2247 C2250 1.499 . S
C2248 H2228 0.950 . S
C2248 C2247 1.414 . S
C2248 C2249 1.374 . S
C2249 H2229 0.950 . S
C2249 C2245 1.385 . S
C2249 C2248 1.374 . S
C2250 C2247 1.499 . S
C2250 C2251 1.373 . S
C2250 C2252 1.389 . S
C2251 H2230 0.950 . S
C2251 C2250 1.373 . S
C2251 C2267 1.377 . S
C2252 C2250 1.389 . S
C2252 C2253 1.524 . S
C2252 C2266 1.377 . S
C2253 C2252 1.524 . S
C2253 C2254 1.397 . S
C2253 C2258 1.363 . S
C2254 H2231 0.950 . S
C2254 C2253 1.397 . S
C2254 C2255 1.334 . S
C2255 H2232 0.950 . S
C2255 C2254 1.334 . S
C2255 C2256 1.287 . S
C2256 C2255 1.287 . S
C2256 C2257 1.524 . S
C2256 H2275 0.913 . S
C2257 H2233 0.950 . S
C2257 C2256 1.524 . S
C2257 C2258 1.415 . S
C2258 H2234 0.950 . S
C2258 C2253 1.363 . S
C2258 C2257 1.415 . S
C2259 H2235 0.951 . S
C2259 C2260 1.366 . S
C2259 C2261 1.388 . S
C2260 C2259 1.366 . S
C2260 C2264 1.385 . S
C2261 H2236 0.951 . S
C2261 C2259 1.388 . S
C2261 C2262 1.366 . S
C2262 C2261 1.366 . S
C2262 C2263 1.414 . S
C2262 C2265 1.499 . S
C2263 H2237 0.950 . S
C2263 C2262 1.414 . S
C2263 C2264 1.374 . S
C2264 H2238 0.950 . S
C2264 C2260 1.385 . S
C2264 C2263 1.374 . S
C2265 C2262 1.499 . S
C2265 C2266 1.373 . S
C2265 C2267 1.389 . S
C2266 H2239 0.950 . S
C2266 C2252 1.377 . S
C2266 C2265 1.373 . S
C2267 C2251 1.377 . S
C2267 C2265 1.389 . S
C2267 C2268 1.524 . S
C2268 C2267 1.524 . S
C2268 C2269 1.397 . S
C2268 C2273 1.363 . S
C2269 H2240 0.950 . S
C2269 C2268 1.397 . S
C2269 C2270 1.334 . S
C2270 H2241 0.950 . S
C2270 C2269 1.334 . S
C2270 C2271 1.287 . S
C2271 C2270 1.287 . S
C2271 C2272 1.524 . S
C2271 H2274 0.999 . S
C2272 H2242 0.950 . S
C2272 C2271 1.524 . S
C2272 C2273 1.415 . S
C2273 H2243 0.950 . S
C2273 C2268 1.363 . S
C2273 C2272 1.415 . S
H2274 C2271 0.999 . S
H2275 C2256 0.913 . S
H2276 C2294 0.951 . S
H2277 C2296 0.951 . S
H2278 C2298 0.950 . S
H2279 C2299 0.950 . S
H2280 C2301 0.950 . S
H2281 C2304 0.950 . S
H2282 C2305 0.950 . S
H2283 C2307 0.950 . S
H2284 C2308 0.950 . S
H2285 C2309 0.951 . S
H2286 C2311 0.951 . S
H2287 C2313 0.950 . S
H2288 C2314 0.950 . S
H2289 C2316 0.950 . S
H2290 C2319 0.950 . S
H2291 C2320 0.950 . S
H2292 C2322 0.950 . S
H2293 C2323 0.950 . S
C2294 H2276 0.951 . S
C2294 C2295 1.366 . S
C2294 C2296 1.388 . S
C2295 C2294 1.366 . S
C2295 C2299 1.385 . S
C2296 H2277 0.951 . S
C2296 C2294 1.388 . S
C2296 C2297 1.366 . S
C2297 C2296 1.366 . S
C2297 C2298 1.414 . S
C2297 C2300 1.499 . S
C2298 H2278 0.950 . S
C2298 C2297 1.414 . S
C2298 C2299 1.374 . S
C2299 H2279 0.950 . S
C2299 C2295 1.385 . S
C2299 C2298 1.374 . S
C2300 C2297 1.499 . S
C2300 C2301 1.373 . S
C2300 C2302 1.389 . S
C2301 H2280 0.950 . S
C2301 C2300 1.373 . S
C2301 C2317 1.377 . S
C2302 C2300 1.389 . S
C2302 C2303 1.524 . S
C2302 C2316 1.377 . S
C2303 C2302 1.524 . S
C2303 C2304 1.397 . S
C2303 C2308 1.363 . S
C2304 H2281 0.950 . S
C2304 C2303 1.397 . S
C2304 C2305 1.334 . S
C2305 H2282 0.950 . S
C2305 C2304 1.334 . S
C2305 C2306 1.287 . S
C2306 C2305 1.287 . S
C2306 C2307 1.524 . S
C2306 H2325 0.913 . S
C2307 H2283 0.950 . S
C2307 C2306 1.524 . S
C2307 C2308 1.415 . S
C2308 H2284 0.950 . S
C2308 C2303 1.363 . S
C2308 C2307 1.415 . S
C2309 H2285 0.951 . S
C2309 C2310 1.366 . S
C2309 C2311 1.388 . S
C2310 C2309 1.366 . S
C2310 C2314 1.385 . S
C2311 H2286 0.951 . S
C2311 C2309 1.388 . S
C2311 C2312 1.366 . S
C2312 C2311 1.366 . S
C2312 C2313 1.414 . S
C2312 C2315 1.499 . S
C2313 H2287 0.950 . S
C2313 C2312 1.414 . S
C2313 C2314 1.374 . S
C2314 H2288 0.950 . S
C2314 C2310 1.385 . S
C2314 C2313 1.374 . S
C2315 C2312 1.499 . S
C2315 C2316 1.373 . S
C2315 C2317 1.389 . S
C2316 H2289 0.950 . S
C2316 C2302 1.377 . S
C2316 C2315 1.373 . S
C2317 C2301 1.377 . S
C2317 C2315 1.389 . S
C2317 C2318 1.524 . S
C2318 C2317 1.524 . S
C2318 C2319 1.397 . S
C2318 C2323 1.363 . S
C2319 H2290 0.950 . S
C2319 C2318 1.397 . S
C2319 C2320 1.334 . S
C2320 H2291 0.950 . S
C2320 C2319 1.334 . S
C2320 C2321 1.287 . S
C2321 C2320 1.287 . S
C2321 C2322 1.524 . S
C2321 H2324 0.999 . S
C2322 H2292 0.950 . S
C2322 C2321 1.524 . S
C2322 C2323 1.415 . S
C2323 H2293 0.950 . S
C2323 C2318 1.363 . S
C2323 C2322 1.415 . S
H2324 C2321 0.999 . S
H2325 C2306 0.913 . S
H2326 C2344 0.951 . S
H2327 C2346 0.951 . S
H2328 C2348 0.950 . S
H2329 C2349 0.950 . S
H2330 C2351 0.950 . S
H2331 C2354 0.950 . S
H2332 C2355 0.950 . S
H2333 C2357 0.950 . S
H2334 C2358 0.950 . S
H2335 C2359 0.951 . S
H2336 C2361 0.951 . S
H2337 C2363 0.950 . S
H2338 C2364 0.950 . S
H2339 C2366 0.950 . S
H2340 C2369 0.950 . S
H2341 C2370 0.950 . S
H2342 C2372 0.950 . S
H2343 C2373 0.950 . S
C2344 H2326 0.951 . S
C2344 C2345 1.366 . S
C2344 C2346 1.388 . S
C2345 C2344 1.366 . S
C2345 C2349 1.385 . S
C2346 H2327 0.951 . S
C2346 C2344 1.388 . S
C2346 C2347 1.366 . S
C2347 C2346 1.366 . S
C2347 C2348 1.414 . S
C2347 C2350 1.499 . S
C2348 H2328 0.950 . S
C2348 C2347 1.414 . S
C2348 C2349 1.374 . S
C2349 H2329 0.950 . S
C2349 C2345 1.385 . S
C2349 C2348 1.374 . S
C2350 C2347 1.499 . S
C2350 C2351 1.373 . S
C2350 C2352 1.389 . S
C2351 H2330 0.950 . S
C2351 C2350 1.373 . S
C2351 C2367 1.377 . S
C2352 C2350 1.389 . S
C2352 C2353 1.524 . S
C2352 C2366 1.377 . S
C2353 C2352 1.524 . S
C2353 C2354 1.397 . S
C2353 C2358 1.363 . S
C2354 H2331 0.950 . S
C2354 C2353 1.397 . S
C2354 C2355 1.334 . S
C2355 H2332 0.950 . S
C2355 C2354 1.334 . S
C2355 C2356 1.287 . S
C2356 C2355 1.287 . S
C2356 C2357 1.524 . S
C2356 H2375 0.913 . S
C2357 H2333 0.950 . S
C2357 C2356 1.524 . S
C2357 C2358 1.415 . S
C2358 H2334 0.950 . S
C2358 C2353 1.363 . S
C2358 C2357 1.415 . S
C2359 H2335 0.951 . S
C2359 C2360 1.366 . S
C2359 C2361 1.388 . S
C2360 C2359 1.366 . S
C2360 C2364 1.385 . S
C2361 H2336 0.951 . S
C2361 C2359 1.388 . S
C2361 C2362 1.366 . S
C2362 C2361 1.366 . S
C2362 C2363 1.414 . S
C2362 C2365 1.499 . S
C2363 H2337 0.950 . S
C2363 C2362 1.414 . S
C2363 C2364 1.374 . S
C2364 H2338 0.950 . S
C2364 C2360 1.385 . S
C2364 C2363 1.374 . S
C2365 C2362 1.499 . S
C2365 C2366 1.373 . S
C2365 C2367 1.389 . S
C2366 H2339 0.950 . S
C2366 C2352 1.377 . S
C2366 C2365 1.373 . S
C2367 C2351 1.377 . S
C2367 C2365 1.389 . S
C2367 C2368 1.524 . S
C2368 C2367 1.524 . S
C2368 C2369 1.397 . S
C2368 C2373 1.363 . S
C2369 H2340 0.950 . S
C2369 C2368 1.397 . S
C2369 C2370 1.334 . S
C2370 H2341 0.950 . S
C2370 C2369 1.334 . S
C2370 C2371 1.287 . S
C2371 C2370 1.287 . S
C2371 C2372 1.524 . S
C2371 H2374 0.999 . S
C2372 H2342 0.950 . S
C2372 C2371 1.524 . S
C2372 C2373 1.415 . S
C2373 H2343 0.950 . S
C2373 C2368 1.363 . S
C2373 C2372 1.415 . S
H2374 C2371 0.999 . S
H2375 C2356 0.913 . S
H2376 C2394 0.951 . S
H2377 C2396 0.951 . S
H2378 C2398 0.950 . S
H2379 C2399 0.950 . S
H2380 C2401 0.950 . S
H2381 C2404 0.950 . S
H2382 C2405 0.950 . S
H2383 C2407 0.950 . S
H2384 C2408 0.950 1_455 S
H2385 C2409 0.951 . S
H2386 C2411 0.951 . S
H2387 C2413 0.950 . S
H2388 C2414 0.950 . S
H2389 C2416 0.950 . S
H2390 C2419 0.950 . S
H2391 C2420 0.950 . S
H2392 C2422 0.950 . S
H2393 C2423 0.950 . S
C2394 H2376 0.951 . S
C2394 C2395 1.366 . S
C2394 C2396 1.388 . S
C2395 C2394 1.366 . S
C2395 C2399 1.385 . S
C2396 H2377 0.951 . S
C2396 C2394 1.388 . S
C2396 C2397 1.366 . S
C2397 C2396 1.366 . S
C2397 C2398 1.414 . S
C2397 C2400 1.499 . S
C2398 H2378 0.950 . S
C2398 C2397 1.414 . S
C2398 C2399 1.374 . S
C2399 H2379 0.950 . S
C2399 C2395 1.385 . S
C2399 C2398 1.374 . S
C2400 C2397 1.499 . S
C2400 C2401 1.373 . S
C2400 C2402 1.389 . S
C2401 H2380 0.950 . S
C2401 C2400 1.373 . S
C2401 C2417 1.377 . S
C2402 C2400 1.389 . S
C2402 C2403 1.524 1_455 S
C2402 C2416 1.377 . S
C2403 C2402 1.524 1_655 S
C2403 C2404 1.397 . S
C2403 C2408 1.363 . S
C2404 H2381 0.950 . S
C2404 C2403 1.397 . S
C2404 C2405 1.334 . S
C2405 H2382 0.950 . S
C2405 C2404 1.334 . S
C2405 C2406 1.287 . S
C2406 C2405 1.287 . S
C2406 C2407 1.524 . S
C2406 H2425 0.913 . S
C2407 H2383 0.950 . S
C2407 C2406 1.524 . S
C2407 C2408 1.415 . S
C2408 H2384 0.950 1_655 S
C2408 C2403 1.363 . S
C2408 C2407 1.415 . S
C2409 H2385 0.951 . S
C2409 C2410 1.366 . S
C2409 C2411 1.388 . S
C2410 C2409 1.366 . S
C2410 C2414 1.385 . S
C2411 H2386 0.951 . S
C2411 C2409 1.388 . S
C2411 C2412 1.366 . S
C2412 C2411 1.366 . S
C2412 C2413 1.414 . S
C2412 C2415 1.499 . S
C2413 H2387 0.950 . S
C2413 C2412 1.414 . S
C2413 C2414 1.374 . S
C2414 H2388 0.950 . S
C2414 C2410 1.385 . S
C2414 C2413 1.374 . S
C2415 C2412 1.499 . S
C2415 C2416 1.373 . S
C2415 C2417 1.389 . S
C2416 H2389 0.950 . S
C2416 C2402 1.377 . S
C2416 C2415 1.373 . S
C2417 C2401 1.377 . S
C2417 C2415 1.389 . S
C2417 C2418 1.524 . S
C2418 C2417 1.524 . S
C2418 C2419 1.397 . S
C2418 C2423 1.363 . S
C2419 H2390 0.950 . S
C2419 C2418 1.397 . S
C2419 C2420 1.334 . S
C2420 H2391 0.950 . S
C2420 C2419 1.334 . S
C2420 C2421 1.287 . S
C2421 C2420 1.287 . S
C2421 C2422 1.524 . S
C2421 H2424 0.999 . S
C2422 H2392 0.950 . S
C2422 C2421 1.524 . S
C2422 C2423 1.415 . S
C2423 H2393 0.950 . S
C2423 C2418 1.363 . S
C2423 C2422 1.415 . S
H2424 C2421 0.999 . S
H2425 C2406 0.913 . S
H2426 C2444 0.951 . S
H2427 C2446 0.951 . S
H2428 C2448 0.950 . S
H2429 C2449 0.950 . S
H2430 C2451 0.950 . S
H2431 C2454 0.950 . S
H2432 C2455 0.950 . S
H2433 C2457 0.950 . S
H2434 C2458 0.950 . S
H2435 C2459 0.951 . S
H2436 C2461 0.951 . S
H2437 C2463 0.950 . S
H2438 C2464 0.950 . S
H2439 C2466 0.950 . S
H2440 C2469 0.950 . S
H2441 C2470 0.950 . S
H2442 C2472 0.950 . S
H2443 C2473 0.950 . S
C2444 H2426 0.951 . S
C2444 C2445 1.366 . S
C2444 C2446 1.388 . S
C2445 C2444 1.366 . S
C2445 C2449 1.385 . S
C2446 H2427 0.951 . S
C2446 C2444 1.388 . S
C2446 C2447 1.366 . S
C2447 C2446 1.366 . S
C2447 C2448 1.414 . S
C2447 C2450 1.499 . S
C2448 H2428 0.950 . S
C2448 C2447 1.414 . S
C2448 C2449 1.374 . S
C2449 H2429 0.950 . S
C2449 C2445 1.385 . S
C2449 C2448 1.374 . S
C2450 C2447 1.499 . S
C2450 C2451 1.373 . S
C2450 C2452 1.389 . S
C2451 H2430 0.950 . S
C2451 C2450 1.373 . S
C2451 C2467 1.377 . S
C2452 C2450 1.389 . S
C2452 C2453 1.524 . S
C2452 C2466 1.377 . S
C2453 C2452 1.524 . S
C2453 C2454 1.397 . S
C2453 C2458 1.363 . S
C2454 H2431 0.950 . S
C2454 C2453 1.397 . S
C2454 C2455 1.334 . S
C2455 H2432 0.950 . S
C2455 C2454 1.334 . S
C2455 C2456 1.287 . S
C2456 C2455 1.287 . S
C2456 C2457 1.524 . S
C2456 H2475 0.913 . S
C2457 H2433 0.950 . S
C2457 C2456 1.524 . S
C2457 C2458 1.415 . S
C2458 H2434 0.950 . S
C2458 C2453 1.363 . S
C2458 C2457 1.415 . S
C2459 H2435 0.951 . S
C2459 C2460 1.366 . S
C2459 C2461 1.388 . S
C2460 C2459 1.366 . S
C2460 C2464 1.385 . S
C2461 H2436 0.951 . S
C2461 C2459 1.388 . S
C2461 C2462 1.366 . S
C2462 C2461 1.366 . S
C2462 C2463 1.414 . S
C2462 C2465 1.499 . S
C2463 H2437 0.950 . S
C2463 C2462 1.414 . S
C2463 C2464 1.374 . S
C2464 H2438 0.950 . S
C2464 C2460 1.385 . S
C2464 C2463 1.374 . S
C2465 C2462 1.499 . S
C2465 C2466 1.373 . S
C2465 C2467 1.389 . S
C2466 H2439 0.950 . S
C2466 C2452 1.377 . S
C2466 C2465 1.373 . S
C2467 C2451 1.377 . S
C2467 C2465 1.389 . S
C2467 C2468 1.524 . S
C2468 C2467 1.524 . S
C2468 C2469 1.397 . S
C2468 C2473 1.363 . S
C2469 H2440 0.950 . S
C2469 C2468 1.397 . S
C2469 C2470 1.334 . S
C2470 H2441 0.950 . S
C2470 C2469 1.334 . S
C2470 C2471 1.287 . S
C2471 C2470 1.287 . S
C2471 C2472 1.524 . S
C2471 H2474 0.999 . S
C2472 H2442 0.950 . S
C2472 C2471 1.524 . S
C2472 C2473 1.415 . S
C2473 H2443 0.950 . S
C2473 C2468 1.363 . S
C2473 C2472 1.415 . S
H2474 C2471 0.999 . S
H2475 C2456 0.913 . S
H2476 C2494 0.951 . S
H2477 C2496 0.951 . S
H2478 C2498 0.950 . S
H2479 C2499 0.950 . S
H2480 C2501 0.950 . S
H2481 C2504 0.950 . S
H2482 C2505 0.950 . S
H2483 C2507 0.950 . S
H2484 C2508 0.950 . S
H2485 C2509 0.951 . S
H2486 C2511 0.951 . S
H2487 C2513 0.966 . S
H2488 C2514 0.950 . S
H2489 C2516 0.950 . S
H2490 C2519 0.950 . S
H2491 C2520 0.950 . S
H2492 C2522 0.950 . S
H2493 C2523 0.950 . S
C2494 H2476 0.951 . S
C2494 C2495 1.366 . S
C2494 C2496 1.388 . S
C2495 C2494 1.366 . S
C2495 C2499 1.385 . S
C2496 H2477 0.951 . S
C2496 C2494 1.388 . S
C2496 C2497 1.366 . S
C2497 C2496 1.366 . S
C2497 C2498 1.414 . S
C2497 C2500 1.499 . S
C2498 H2478 0.950 . S
C2498 C2497 1.414 . S
C2498 C2499 1.374 . S
C2499 H2479 0.950 . S
C2499 C2495 1.385 . S
C2499 C2498 1.374 . S
C2500 C2497 1.499 . S
C2500 C2501 1.373 . S
C2500 C2502 1.389 . S
C2501 H2480 0.950 . S
C2501 C2500 1.373 . S
C2501 C2517 1.377 . S
C2502 C2500 1.389 . S
C2502 C2503 1.524 . S
C2502 C2516 1.377 . S
C2503 C2502 1.524 . S
C2503 C2504 1.397 . S
C2503 C2508 1.363 . S
C2504 H2481 0.950 . S
C2504 C2503 1.397 . S
C2504 C2505 1.334 . S
C2505 H2482 0.950 . S
C2505 C2504 1.334 . S
C2505 C2506 1.287 . S
C2506 C2505 1.287 . S
C2506 C2507 1.524 . S
C2506 H2525 0.913 . S
C2507 H2483 0.950 . S
C2507 C2506 1.524 . S
C2507 C2508 1.415 . S
C2508 H2484 0.950 . S
C2508 C2503 1.363 . S
C2508 C2507 1.415 . S
C2509 H2485 0.951 . S
C2509 C2510 1.366 1_556 S
C2509 C2511 1.388 . S
C2510 C2509 1.366 1_554 S
C2510 C2514 1.385 . S
C2511 H2486 0.951 . S
C2511 C2509 1.388 . S
C2511 C2512 1.366 . S
C2512 C2511 1.366 . S
C2512 C2513 1.378 1_556 S
C2512 C2515 1.499 . S
C2513 H2487 0.966 . S
C2513 C2512 1.378 1_554 S
C2513 C2514 1.395 . S
C2514 H2488 0.950 . S
C2514 C2510 1.385 . S
C2514 C2513 1.395 . S
C2515 C2512 1.499 . S
C2515 C2516 1.373 . S
C2515 C2517 1.389 . S
C2516 H2489 0.950 . S
C2516 C2502 1.377 . S
C2516 C2515 1.373 . S
C2517 C2501 1.377 . S
C2517 C2515 1.389 . S
C2517 C2518 1.524 . S
C2518 C2517 1.524 . S
C2518 C2519 1.397 . S
C2518 C2523 1.363 . S
C2519 H2490 0.950 . S
C2519 C2518 1.397 . S
C2519 C2520 1.334 . S
C2520 H2491 0.950 . S
C2520 C2519 1.334 . S
C2520 C2521 1.287 . S
C2521 C2520 1.287 . S
C2521 C2522 1.524 . S
C2521 H2524 0.999 . S
C2522 H2492 0.950 . S
C2522 C2521 1.524 . S
C2522 C2523 1.415 . S
C2523 H2493 0.950 . S
C2523 C2518 1.363 . S
C2523 C2522 1.415 . S
H2524 C2521 0.999 . S
H2525 C2506 0.913 . S
H2526 C2544 0.951 . S
H2527 C2546 0.951 . S
H2528 C2548 0.950 . S
H2529 C2549 0.950 . S
H2530 C2551 0.950 . S
H2531 C2554 0.950 . S
H2532 C2555 0.950 . S
H2533 C2557 0.950 . S
H2534 C2558 0.950 . S
H2535 C2559 0.951 . S
H2536 C2561 0.951 . S
H2537 C2563 0.950 . S
H2538 C2564 0.950 . S
H2539 C2566 0.950 . S
H2540 C2569 0.950 . S
H2541 C2570 0.950 . S
H2542 C2572 0.950 . S
H2543 C2573 0.950 . S
C2544 H2526 0.951 . S
C2544 C2545 1.366 . S
C2544 C2546 1.388 . S
C2545 C2544 1.366 . S
C2545 C2549 1.385 . S
C2546 H2527 0.951 . S
C2546 C2544 1.388 . S
C2546 C2547 1.366 . S
C2547 C2546 1.366 . S
C2547 C2548 1.414 . S
C2547 C2550 1.499 . S
C2548 H2528 0.950 . S
C2548 C2547 1.414 . S
C2548 C2549 1.374 . S
C2549 H2529 0.950 . S
C2549 C2545 1.385 . S
C2549 C2548 1.374 . S
C2550 C2547 1.499 . S
C2550 C2551 1.373 . S
C2550 C2552 1.389 . S
C2551 H2530 0.950 . S
C2551 C2550 1.373 . S
C2551 C2567 1.377 . S
C2552 C2550 1.389 . S
C2552 C2553 1.524 . S
C2552 C2566 1.377 . S
C2553 C2552 1.524 . S
C2553 C2554 1.397 . S
C2553 C2558 1.363 . S
C2554 H2531 0.950 . S
C2554 C2553 1.397 . S
C2554 C2555 1.334 . S
C2555 H2532 0.950 . S
C2555 C2554 1.334 . S
C2555 C2556 1.287 . S
C2556 C2555 1.287 . S
C2556 C2557 1.524 . S
C2556 H2575 0.913 . S
C2557 H2533 0.950 . S
C2557 C2556 1.524 . S
C2557 C2558 1.415 . S
C2558 H2534 0.950 . S
C2558 C2553 1.363 . S
C2558 C2557 1.415 . S
C2559 H2535 0.951 . S
C2559 C2560 1.366 . S
C2559 C2561 1.388 . S
C2560 C2559 1.366 . S
C2560 C2564 1.385 . S
C2561 H2536 0.951 . S
C2561 C2559 1.388 . S
C2561 C2562 1.366 . S
C2562 C2561 1.366 . S
C2562 C2563 1.414 . S
C2562 C2565 1.499 . S
C2563 H2537 0.950 . S
C2563 C2562 1.414 . S
C2563 C2564 1.374 . S
C2564 H2538 0.950 . S
C2564 C2560 1.385 . S
C2564 C2563 1.374 . S
C2565 C2562 1.499 . S
C2565 C2566 1.373 . S
C2565 C2567 1.389 . S
C2566 H2539 0.950 . S
C2566 C2552 1.377 . S
C2566 C2565 1.373 . S
C2567 C2551 1.377 . S
C2567 C2565 1.389 . S
C2567 C2568 1.524 . S
C2568 C2567 1.524 . S
C2568 C2569 1.397 . S
C2568 C2573 1.363 . S
C2569 H2540 0.950 . S
C2569 C2568 1.397 . S
C2569 C2570 1.334 . S
C2570 H2541 0.950 . S
C2570 C2569 1.334 . S
C2570 C2571 1.287 . S
C2571 C2570 1.287 . S
C2571 C2572 1.524 . S
C2571 H2574 0.999 . S
C2572 H2542 0.950 . S
C2572 C2571 1.524 . S
C2572 C2573 1.415 . S
C2573 H2543 0.950 . S
C2573 C2568 1.363 . S
C2573 C2572 1.415 . S
H2574 C2571 0.999 . S
H2575 C2556 0.913 . S
H2576 C2594 0.951 . S
H2577 C2596 0.951 . S
H2578 C2598 0.950 . S
H2579 C2599 0.950 . S
H2580 C2601 0.950 . S
H2581 C2604 0.950 . S
H2582 C2605 0.950 . S
H2583 C2607 0.950 . S
H2584 C2608 0.950 . S
H2585 C2609 0.951 . S
H2586 C2611 0.951 . S
H2587 C2613 0.950 . S
H2588 C2614 0.950 . S
H2589 C2616 0.950 . S
H2590 C2619 0.950 . S
H2591 C2620 0.950 . S
H2592 C2622 0.950 . S
H2593 C2623 0.931 1_545 S
C2594 H2576 0.951 . S
C2594 C2595 1.366 . S
C2594 C2596 1.388 . S
C2595 C2594 1.366 . S
C2595 C2599 1.385 . S
C2596 H2577 0.951 . S
C2596 C2594 1.388 . S
C2596 C2597 1.366 . S
C2597 C2596 1.366 . S
C2597 C2598 1.414 . S
C2597 C2600 1.499 . S
C2598 H2578 0.950 . S
C2598 C2597 1.414 . S
C2598 C2599 1.374 . S
C2599 H2579 0.950 . S
C2599 C2595 1.385 . S
C2599 C2598 1.374 . S
C2600 C2597 1.499 . S
C2600 C2601 1.373 . S
C2600 C2602 1.389 . S
C2601 H2580 0.950 . S
C2601 C2600 1.373 . S
C2601 C2617 1.377 . S
C2602 C2600 1.389 . S
C2602 C2603 1.524 . S
C2602 C2616 1.377 . S
C2603 C2602 1.524 . S
C2603 C2604 1.397 . S
C2603 C2608 1.363 . S
C2604 H2581 0.950 . S
C2604 C2603 1.397 . S
C2604 C2605 1.334 . S
C2605 H2582 0.950 . S
C2605 C2604 1.334 . S
C2605 C2606 1.287 . S
C2606 C2605 1.287 . S
C2606 C2607 1.524 . S
C2606 H2625 0.913 . S
C2607 H2583 0.950 . S
C2607 C2606 1.524 . S
C2607 C2608 1.415 . S
C2608 H2584 0.950 . S
C2608 C2603 1.363 . S
C2608 C2607 1.415 . S
C2609 H2585 0.951 . S
C2609 C2610 1.366 . S
C2609 C2611 1.388 . S
C2610 C2609 1.366 . S
C2610 C2614 1.385 . S
C2611 H2586 0.951 . S
C2611 C2609 1.388 . S
C2611 C2612 1.366 . S
C2612 C2611 1.366 . S
C2612 C2613 1.414 . S
C2612 C2615 1.499 . S
C2613 H2587 0.950 . S
C2613 C2612 1.414 . S
C2613 C2614 1.374 . S
C2614 H2588 0.950 . S
C2614 C2610 1.385 . S
C2614 C2613 1.374 . S
C2615 C2612 1.499 . S
C2615 C2616 1.373 . S
C2615 C2617 1.389 . S
C2616 H2589 0.950 . S
C2616 C2602 1.377 . S
C2616 C2615 1.373 . S
C2617 C2601 1.377 . S
C2617 C2615 1.389 . S
C2617 C2618 1.491 1_545 S
C2618 C2617 1.491 1_565 S
C2618 C2619 1.409 . S
C2618 C2623 1.385 . S
C2619 H2590 0.950 . S
C2619 C2618 1.409 . S
C2619 C2620 1.334 . S
C2620 H2591 0.950 . S
C2620 C2619 1.334 . S
C2620 C2621 1.287 . S
C2621 C2620 1.287 . S
C2621 C2622 1.524 . S
C2621 H2624 0.999 . S
C2622 H2592 0.950 . S
C2622 C2621 1.524 . S
C2622 C2623 1.415 . S
C2623 H2593 0.931 1_565 S
C2623 C2618 1.385 . S
C2623 C2622 1.415 . S
H2624 C2621 0.999 . S
H2625 C2606 0.913 . S
H2626 C2644 0.951 . S
H2627 C2646 0.951 . S
H2628 C2648 0.950 . S
H2629 C2649 0.950 . S
H2630 C2651 0.950 . S
H2631 C2654 0.950 . S
H2632 C2655 0.950 . S
H2633 C2657 0.950 . S
H2634 C2658 0.950 . S
H2635 C2659 0.951 . S
H2636 C2661 0.951 . S
H2637 C2663 0.950 . S
H2638 C2664 0.950 . S
H2639 C2666 0.950 . S
H2640 C2669 0.950 . S
H2641 C2670 0.950 . S
H2642 C2672 0.950 . S
H2643 C2673 0.950 . S
C2644 H2626 0.951 . S
C2644 C2645 1.366 . S
C2644 C2646 1.388 . S
C2645 C2644 1.366 . S
C2645 C2649 1.385 . S
C2646 H2627 0.951 . S
C2646 C2644 1.388 . S
C2646 C2647 1.366 . S
C2647 C2646 1.366 . S
C2647 C2648 1.414 . S
C2647 C2650 1.499 . S
C2648 H2628 0.950 . S
C2648 C2647 1.414 . S
C2648 C2649 1.374 . S
C2649 H2629 0.950 . S
C2649 C2645 1.385 . S
C2649 C2648 1.374 . S
C2650 C2647 1.499 . S
C2650 C2651 1.373 . S
C2650 C2652 1.389 . S
C2651 H2630 0.950 . S
C2651 C2650 1.373 . S
C2651 C2667 1.377 . S
C2652 C2650 1.389 . S
C2652 C2653 1.524 . S
C2652 C2666 1.377 . S
C2653 C2652 1.524 . S
C2653 C2654 1.397 . S
C2653 C2658 1.363 . S
C2654 H2631 0.950 . S
C2654 C2653 1.397 . S
C2654 C2655 1.334 . S
C2655 H2632 0.950 . S
C2655 C2654 1.334 . S
C2655 C2656 1.287 . S
C2656 C2655 1.287 . S
C2656 C2657 1.524 . S
C2656 H2675 0.913 . S
C2657 H2633 0.950 . S
C2657 C2656 1.524 . S
C2657 C2658 1.415 . S
C2658 H2634 0.950 . S
C2658 C2653 1.363 . S
C2658 C2657 1.415 . S
C2659 H2635 0.951 . S
C2659 C2660 1.366 . S
C2659 C2661 1.388 . S
C2660 C2659 1.366 . S
C2660 C2664 1.385 . S
C2661 H2636 0.951 . S
C2661 C2659 1.388 . S
C2661 C2662 1.366 . S
C2662 C2661 1.366 . S
C2662 C2663 1.414 . S
C2662 C2665 1.499 . S
C2663 H2637 0.950 . S
C2663 C2662 1.414 . S
C2663 C2664 1.374 . S
C2664 H2638 0.950 . S
C2664 C2660 1.385 . S
C2664 C2663 1.374 . S
C2665 C2662 1.499 . S
C2665 C2666 1.373 . S
C2665 C2667 1.389 . S
C2666 H2639 0.950 . S
C2666 C2652 1.377 . S
C2666 C2665 1.373 . S
C2667 C2651 1.377 . S
C2667 C2665 1.389 . S
C2667 C2668 1.524 . S
C2668 C2667 1.524 . S
C2668 C2669 1.397 . S
C2668 C2673 1.363 . S
C2669 H2640 0.950 . S
C2669 C2668 1.397 . S
C2669 C2670 1.334 . S
C2670 H2641 0.950 . S
C2670 C2669 1.334 . S
C2670 C2671 1.287 . S
C2671 C2670 1.287 . S
C2671 C2672 1.524 . S
C2671 H2674 0.999 . S
C2672 H2642 0.950 . S
C2672 C2671 1.524 . S
C2672 C2673 1.415 . S
C2673 H2643 0.950 . S
C2673 C2668 1.363 . S
C2673 C2672 1.415 . S
H2674 C2671 0.999 . S
H2675 C2656 0.913 . S
H2676 C2694 0.951 . S
H2677 C2696 0.951 . S
H2678 C2698 0.950 . S
H2679 C2699 0.950 . S
H2680 C2701 0.970 . S
H2681 C2704 0.950 . S
H2682 C2705 0.950 . S
H2683 C2707 0.950 . S
H2684 C2708 0.950 . S
H2685 C2709 0.951 . S
H2686 C2711 0.951 1_565 S
H2687 C2713 0.950 . S
H2688 C2714 0.950 . S
H2689 C2716 0.950 . S
H2690 C2719 0.950 . S
H2691 C2720 0.950 . S
H2692 C2722 0.950 . S
H2693 C2723 0.950 . S
C2694 H2676 0.951 . S
C2694 C2695 1.366 . S
C2694 C2696 1.388 . S
C2695 C2694 1.366 . S
C2695 C2699 1.385 1_545 S
C2696 H2677 0.951 . S
C2696 C2694 1.388 . S
C2696 C2697 1.366 . S
C2697 C2696 1.366 . S
C2697 C2698 1.414 1_545 S
C2697 C2700 1.499 . S
C2698 H2678 0.950 . S
C2698 C2697 1.414 1_565 S
C2698 C2699 1.374 . S
C2699 H2679 0.950 . S
C2699 C2695 1.385 1_565 S
C2699 C2698 1.374 . S
C2700 C2697 1.499 . S
C2700 C2701 1.373 . S
C2700 C2702 1.389 . S
C2701 H2680 0.970 . S
C2701 C2700 1.373 . S
C2701 C2717 1.377 . S
C2702 C2700 1.389 . S
C2702 C2703 1.524 . S
C2702 C2716 1.377 . S
C2703 C2702 1.524 . S
C2703 C2704 1.397 . S
C2703 C2708 1.363 . S
C2704 H2681 0.950 . S
C2704 C2703 1.397 . S
C2704 C2705 1.334 . S
C2705 H2682 0.950 . S
C2705 C2704 1.334 . S
C2705 C2706 1.287 . S
C2706 C2705 1.287 . S
C2706 C2707 1.524 . S
C2706 H2725 0.913 . S
C2707 H2683 0.950 . S
C2707 C2706 1.524 . S
C2707 C2708 1.415 . S
C2708 H2684 0.950 . S
C2708 C2703 1.363 . S
C2708 C2707 1.415 . S
C2709 H2685 0.951 . S
C2709 C2710 1.366 . S
C2709 C2711 1.388 . S
C2710 C2709 1.366 . S
C2710 C2714 1.385 . S
C2711 H2686 0.951 1_545 S
C2711 C2709 1.388 . S
C2711 C2712 1.366 . S
C2712 C2711 1.366 . S
C2712 C2713 1.414 . S
C2712 C2715 1.499 . S
C2713 H2687 0.950 . S
C2713 C2712 1.414 . S
C2713 C2714 1.374 . S
C2714 H2688 0.950 . S
C2714 C2710 1.385 . S
C2714 C2713 1.374 . S
C2715 C2712 1.499 . S
C2715 C2716 1.373 . S
C2715 C2717 1.389 . S
C2716 H2689 0.950 . S
C2716 C2702 1.377 . S
C2716 C2715 1.373 . S
C2717 C2701 1.377 . S
C2717 C2715 1.389 . S
C2717 C2718 1.524 . S
C2718 C2717 1.524 . S
C2718 C2719 1.397 . S
C2718 C2723 1.363 1_545 S
C2719 H2690 0.950 . S
C2719 C2718 1.397 . S
C2719 C2720 1.334 . S
C2720 H2691 0.950 . S
C2720 C2719 1.334 . S
C2720 C2721 1.287 1_545 S
C2721 C2720 1.287 1_565 S
C2721 C2722 1.524 . S
C2721 H2724 0.999 . S
C2722 H2692 0.950 . S
C2722 C2721 1.524 . S
C2722 C2723 1.415 . S
C2723 H2693 0.950 . S
C2723 C2718 1.363 1_565 S
C2723 C2722 1.415 . S
H2724 C2721 0.999 . S
H2725 C2706 0.913 . S
H2726 C2744 0.951 . S
H2727 C2746 0.951 . S
H2728 C2748 0.950 . S
H2729 C2749 0.950 . S
H2730 C2751 0.950 . S
H2731 C2754 0.950 . S
H2732 C2755 0.950 . S
H2733 C2757 0.950 . S
H2734 C2758 0.950 . S
H2735 C2759 0.951 . S
H2736 C2761 0.951 . S
H2737 C2763 0.950 . S
H2738 C2764 0.950 . S
H2739 C2766 0.950 . S
H2740 C2769 0.950 . S
H2741 C2770 0.950 . S
H2742 C2772 0.950 . S
H2743 C2773 0.950 . S
C2744 H2726 0.951 . S
C2744 C2745 1.366 . S
C2744 C2746 1.388 . S
C2745 C2744 1.366 . S
C2745 C2749 1.385 . S
C2746 H2727 0.951 . S
C2746 C2744 1.388 . S
C2746 C2747 1.366 . S
C2747 C2746 1.366 . S
C2747 C2748 1.414 . S
C2747 C2750 1.499 . S
C2748 H2728 0.950 . S
C2748 C2747 1.414 . S
C2748 C2749 1.374 . S
C2749 H2729 0.950 . S
C2749 C2745 1.385 . S
C2749 C2748 1.374 . S
C2750 C2747 1.499 . S
C2750 C2751 1.373 . S
C2750 C2752 1.389 . S
C2751 H2730 0.950 . S
C2751 C2750 1.373 . S
C2751 C2767 1.377 . S
C2752 C2750 1.389 . S
C2752 C2753 1.524 . S
C2752 C2766 1.377 . S
C2753 C2752 1.524 . S
C2753 C2754 1.397 . S
C2753 C2758 1.363 . S
C2754 H2731 0.950 . S
C2754 C2753 1.397 . S
C2754 C2755 1.334 . S
C2755 H2732 0.950 . S
C2755 C2754 1.334 . S
C2755 C2756 1.287 . S
C2756 C2755 1.287 . S
C2756 C2757 1.524 . S
C2756 H2775 0.913 . S
C2757 H2733 0.950 . S
C2757 C2756 1.524 . S
C2757 C2758 1.415 . S
C2758 H2734 0.950 . S
C2758 C2753 1.363 . S
C2758 C2757 1.415 . S
C2759 H2735 0.951 . S
C2759 C2760 1.366 . S
C2759 C2761 1.388 . S
C2760 C2759 1.366 . S
C2760 C2764 1.385 . S
C2761 H2736 0.951 . S
C2761 C2759 1.388 . S
C2761 C2762 1.366 . S
C2762 C2761 1.366 . S
C2762 C2763 1.414 . S
C2762 C2765 1.499 . S
C2763 H2737 0.950 . S
C2763 C2762 1.414 . S
C2763 C2764 1.374 . S
C2764 H2738 0.950 . S
C2764 C2760 1.385 . S
C2764 C2763 1.374 . S
C2765 C2762 1.499 . S
C2765 C2766 1.373 . S
C2765 C2767 1.389 . S
C2766 H2739 0.950 . S
C2766 C2752 1.377 . S
C2766 C2765 1.373 . S
C2767 C2751 1.377 . S
C2767 C2765 1.389 . S
C2767 C2768 1.524 . S
C2768 C2767 1.524 . S
C2768 C2769 1.397 . S
C2768 C2773 1.363 . S
C2769 H2740 0.950 . S
C2769 C2768 1.397 . S
C2769 C2770 1.334 . S
C2770 H2741 0.950 . S
C2770 C2769 1.334 . S
C2770 C2771 1.287 . S
C2771 C2770 1.287 . S
C2771 C2772 1.524 . S
C2771 H2774 0.999 . S
C2772 H2742 0.950 . S
C2772 C2771 1.524 . S
C2772 C2773 1.415 . S
C2773 H2743 0.950 . S
C2773 C2768 1.363 . S
C2773 C2772 1.415 . S
H2774 C2771 0.999 . S
H2775 C2756 0.913 . S
H2776 C2794 0.951 . S
H2777 C2796 0.951 . S
H2778 C2798 0.950 . S
H2779 C2799 0.950 . S
H2780 C2801 0.950 . S
H2781 C2804 0.950 . S
H2782 C2805 0.950 . S
H2783 C2807 0.950 . S
H2784 C2808 0.950 . S
H2785 C2809 0.951 . S
H2786 C2811 0.951 . S
H2787 C2813 0.950 . S
H2788 C2814 0.950 . S
H2789 C2816 0.950 . S
H2790 C2819 0.950 1_565 S
H2791 C2820 0.950 1_655 S
H2792 C2822 0.944 . S
H2793 C2823 0.950 . S
C2794 H2776 0.951 . S
C2794 C2795 1.366 . S
C2794 C2796 1.388 . S
C2795 C2794 1.366 . S
C2795 C2799 1.385 . S
C2796 H2777 0.951 . S
C2796 C2794 1.388 . S
C2796 C2797 1.366 . S
C2797 C2796 1.366 . S
C2797 C2798 1.414 . S
C2797 C2800 1.499 . S
C2798 H2778 0.950 . S
C2798 C2797 1.414 . S
C2798 C2799 1.374 . S
C2799 H2779 0.950 . S
C2799 C2795 1.385 . S
C2799 C2798 1.374 . S
C2800 C2797 1.499 . S
C2800 C2801 1.373 . S
C2800 C2802 1.389 . S
C2801 H2780 0.950 . S
C2801 C2800 1.373 . S
C2801 C2817 1.377 . S
C2802 C2800 1.389 . S
C2802 C2803 1.524 . S
C2802 C2816 1.377 . S
C2803 C2802 1.524 . S
C2803 C2804 1.397 . S
C2803 C2808 1.363 . S
C2804 H2781 0.950 . S
C2804 C2803 1.397 . S
C2804 C2805 1.334 . S
C2805 H2782 0.950 . S
C2805 C2804 1.334 . S
C2805 C2806 1.287 . S
C2806 C2805 1.287 . S
C2806 C2807 1.524 . S
C2806 H2825 0.913 . S
C2807 H2783 0.950 . S
C2807 C2806 1.524 . S
C2807 C2808 1.415 . S
C2808 H2784 0.950 . S
C2808 C2803 1.363 . S
C2808 C2807 1.415 . S
C2809 H2785 0.951 . S
C2809 C2810 1.366 . S
C2809 C2811 1.388 . S
C2810 C2809 1.366 . S
C2810 C2814 1.385 . S
C2811 H2786 0.951 . S
C2811 C2809 1.388 . S
C2811 C2812 1.366 . S
C2812 C2811 1.366 . S
C2812 C2813 1.414 . S
C2812 C2815 1.499 . S
C2813 H2787 0.950 . S
C2813 C2812 1.414 . S
C2813 C2814 1.374 . S
C2814 H2788 0.950 . S
C2814 C2810 1.385 . S
C2814 C2813 1.374 . S
C2815 C2812 1.499 . S
C2815 C2816 1.373 . S
C2815 C2817 1.389 . S
C2816 H2789 0.950 . S
C2816 C2802 1.377 . S
C2816 C2815 1.373 . S
C2817 C2801 1.377 . S
C2817 C2815 1.389 . S
C2817 C2818 1.524 . S
C2818 C2817 1.524 . S
C2818 C2819 1.397 . S
C2818 C2823 1.363 . S
C2819 H2790 0.950 1_545 S
C2819 C2818 1.397 . S
C2819 C2820 1.334 1_545 S
C2820 H2791 0.950 1_455 S
C2820 C2819 1.334 1_565 S
C2820 C2821 1.287 1_465 S
C2821 C2820 1.287 1_645 S
C2821 C2822 1.524 . S
C2821 H2824 0.999 1_545 S
C2822 H2792 0.944 . S
C2822 C2821 1.524 . S
C2822 C2823 1.421 1_655 S
C2823 H2793 0.950 . S
C2823 C2818 1.363 . S
C2823 C2822 1.421 1_455 S
H2824 C2821 0.999 1_565 S
H2825 C2806 0.913 . S
H2826 C2844 0.951 . S
H2827 C2846 0.951 . S
H2828 C2848 0.950 . S
H2829 C2849 0.950 . S
H2830 C2851 0.950 . S
H2831 C2854 0.950 . S
H2832 C2855 0.950 . S
H2833 C2857 0.950 . S
H2834 C2858 0.950 . S
H2835 C2859 0.951 . S
H2836 C2861 0.951 . S
H2837 C2863 0.950 . S
H2838 C2864 0.950 . S
H2839 C2866 0.950 . S
H2840 C2869 0.950 . S
H2841 C2870 0.950 . S
H2842 C2872 0.950 . S
H2843 C2873 0.950 . S
C2844 H2826 0.951 . S
C2844 C2845 1.366 . S
C2844 C2846 1.388 . S
C2845 C2844 1.366 . S
C2845 C2849 1.385 . S
C2846 H2827 0.951 . S
C2846 C2844 1.388 . S
C2846 C2847 1.366 . S
C2847 C2846 1.366 . S
C2847 C2848 1.414 . S
C2847 C2850 1.499 . S
C2848 H2828 0.950 . S
C2848 C2847 1.414 . S
C2848 C2849 1.374 . S
C2849 H2829 0.950 . S
C2849 C2845 1.385 . S
C2849 C2848 1.374 . S
C2850 C2847 1.499 . S
C2850 C2851 1.373 . S
C2850 C2852 1.389 . S
C2851 H2830 0.950 . S
C2851 C2850 1.373 . S
C2851 C2867 1.377 . S
C2852 C2850 1.389 . S
C2852 C2853 1.524 . S
C2852 C2866 1.377 . S
C2853 C2852 1.524 . S
C2853 C2854 1.397 . S
C2853 C2858 1.363 . S
C2854 H2831 0.950 . S
C2854 C2853 1.397 . S
C2854 C2855 1.334 . S
C2855 H2832 0.950 . S
C2855 C2854 1.334 . S
C2855 C2856 1.287 . S
C2856 C2855 1.287 . S
C2856 C2857 1.524 . S
C2856 H2875 0.913 . S
C2857 H2833 0.950 . S
C2857 C2856 1.524 . S
C2857 C2858 1.415 . S
C2858 H2834 0.950 . S
C2858 C2853 1.363 . S
C2858 C2857 1.415 . S
C2859 H2835 0.951 . S
C2859 C2860 1.366 . S
C2859 C2861 1.388 . S
C2860 C2859 1.366 . S
C2860 C2864 1.385 . S
C2861 H2836 0.951 . S
C2861 C2859 1.388 . S
C2861 C2862 1.366 . S
C2862 C2861 1.366 . S
C2862 C2863 1.414 . S
C2862 C2865 1.499 . S
C2863 H2837 0.950 . S
C2863 C2862 1.414 . S
C2863 C2864 1.374 . S
C2864 H2838 0.950 . S
C2864 C2860 1.385 . S
C2864 C2863 1.374 . S
C2865 C2862 1.499 . S
C2865 C2866 1.373 . S
C2865 C2867 1.389 . S
C2866 H2839 0.950 . S
C2866 C2852 1.377 . S
C2866 C2865 1.373 . S
C2867 C2851 1.377 . S
C2867 C2865 1.389 . S
C2867 C2868 1.524 . S
C2868 C2867 1.524 . S
C2868 C2869 1.397 . S
C2868 C2873 1.363 . S
C2869 H2840 0.950 . S
C2869 C2868 1.397 . S
C2869 C2870 1.334 . S
C2870 H2841 0.950 . S
C2870 C2869 1.334 . S
C2870 C2871 1.287 . S
C2871 C2870 1.287 . S
C2871 C2872 1.524 . S
C2871 H2874 0.999 . S
C2872 H2842 0.950 . S
C2872 C2871 1.524 . S
C2872 C2873 1.415 . S
C2873 H2843 0.950 . S
C2873 C2868 1.363 . S
C2873 C2872 1.415 . S
H2874 C2871 0.999 . S
H2875 C2856 0.913 . S
H2876 C2894 0.951 . S
H2877 C2896 0.951 . S
H2878 C2898 0.950 . S
H2879 C2899 0.950 . S
H2880 C2901 0.950 . S
H2881 C2904 0.950 . S
H2882 C2905 0.950 . S
H2883 C2907 0.950 . S
H2884 C2908 0.950 . S
H2885 C2909 0.951 . S
H2886 C2911 0.951 . S
H2887 C2913 0.950 . S
H2888 C2914 0.950 . S
H2889 C2916 0.950 . S
H2890 C2919 0.950 . S
H2891 C2920 0.950 . S
H2892 C2922 0.950 . S
H2893 C2923 0.950 . S
C2894 H2876 0.951 . S
C2894 C2895 1.366 1_565 S
C2894 C2896 1.388 . S
C2895 C2894 1.366 1_545 S
C2895 C2899 1.385 . S
C2896 H2877 0.951 . S
C2896 C2894 1.388 . S
C2896 C2897 1.362 1_565 S
C2897 C2896 1.362 1_545 S
C2897 C2898 1.428 . S
C2897 C2900 1.491 1_545 S
C2898 H2878 0.950 . S
C2898 C2897 1.428 . S
C2898 C2899 1.374 . S
C2899 H2879 0.950 . S
C2899 C2895 1.385 . S
C2899 C2898 1.374 . S
C2900 C2897 1.491 1_565 S
C2900 C2901 1.352 1_565 S
C2900 C2902 1.413 . S
C2901 H2880 0.950 . S
C2901 C2900 1.352 1_545 S
C2901 C2917 1.377 . S
C2902 C2900 1.413 . S
C2902 C2903 1.524 . S
C2902 C2916 1.377 . S
C2903 C2902 1.524 . S
C2903 C2904 1.397 . S
C2903 C2908 1.363 . S
C2904 H2881 0.950 . S
C2904 C2903 1.397 . S
C2904 C2905 1.334 . S
C2905 H2882 0.950 . S
C2905 C2904 1.334 . S
C2905 C2906 1.287 . S
C2906 C2905 1.287 . S
C2906 C2907 1.524 . S
C2906 H2925 0.913 . S
C2907 H2883 0.950 . S
C2907 C2906 1.524 . S
C2907 C2908 1.415 . S
C2908 H2884 0.950 . S
C2908 C2903 1.363 . S
C2908 C2907 1.415 . S
C2909 H2885 0.951 . S
C2909 C2910 1.366 1_545 S
C2909 C2911 1.388 . S
C2910 C2909 1.366 1_565 S
C2910 C2914 1.385 . S
C2911 H2886 0.951 . S
C2911 C2909 1.388 . S
C2911 C2912 1.366 1_545 S
C2912 C2911 1.366 1_565 S
C2912 C2913 1.414 . S
C2912 C2915 1.499 . S
C2913 H2887 0.950 . S
C2913 C2912 1.414 . S
C2913 C2914 1.374 . S
C2914 H2888 0.950 . S
C2914 C2910 1.385 . S
C2914 C2913 1.374 . S
C2915 C2912 1.499 . S
C2915 C2916 1.373 . S
C2915 C2917 1.389 1_565 S
C2916 H2889 0.950 . S
C2916 C2902 1.377 . S
C2916 C2915 1.373 . S
C2917 C2901 1.377 . S
C2917 C2915 1.389 1_545 S
C2917 C2918 1.524 . S
C2918 C2917 1.524 . S
C2918 C2919 1.397 . S
C2918 C2923 1.363 . S
C2919 H2890 0.950 . S
C2919 C2918 1.397 . S
C2919 C2920 1.334 . S
C2920 H2891 0.950 . S
C2920 C2919 1.334 . S
C2920 C2921 1.287 . S
C2921 C2920 1.287 . S
C2921 C2922 1.524 . S
C2921 H2924 0.999 . S
C2922 H2892 0.950 . S
C2922 C2921 1.524 . S
C2922 C2923 1.415 . S
C2923 H2893 0.950 . S
C2923 C2918 1.363 . S
C2923 C2922 1.415 . S
H2924 C2921 0.999 . S
H2925 C2906 0.913 . S
H2926 C2944 0.951 . S
H2927 C2946 0.951 . S
H2928 C2948 0.950 . S
H2929 C2949 0.950 . S
H2930 C2951 0.950 . S
H2931 C2954 0.950 . S
H2932 C2955 0.950 . S
H2933 C2957 0.950 . S
H2934 C2958 0.950 . S
H2935 C2959 0.951 . S
H2936 C2961 0.951 . S
H2937 C2963 0.950 . S
H2938 C2964 0.950 . S
H2939 C2966 0.950 . S
H2940 C2969 0.950 . S
H2941 C2970 0.950 . S
H2942 C2972 0.950 . S
H2943 C2973 0.950 . S
C2944 H2926 0.951 . S
C2944 C2945 1.366 . S
C2944 C2946 1.388 . S
C2945 C2944 1.366 . S
C2945 C2949 1.385 . S
C2946 H2927 0.951 . S
C2946 C2944 1.388 . S
C2946 C2947 1.366 . S
C2947 C2946 1.366 . S
C2947 C2948 1.414 . S
C2947 C2950 1.499 . S
C2948 H2928 0.950 . S
C2948 C2947 1.414 . S
C2948 C2949 1.374 . S
C2949 H2929 0.950 . S
C2949 C2945 1.385 . S
C2949 C2948 1.374 . S
C2950 C2947 1.499 . S
C2950 C2951 1.373 . S
C2950 C2952 1.389 . S
C2951 H2930 0.950 . S
C2951 C2950 1.373 . S
C2951 C2967 1.377 . S
C2952 C2950 1.389 . S
C2952 C2953 1.524 . S
C2952 C2966 1.377 . S
C2953 C2952 1.524 . S
C2953 C2954 1.397 . S
C2953 C2958 1.363 . S
C2954 H2931 0.950 . S
C2954 C2953 1.397 . S
C2954 C2955 1.334 . S
C2955 H2932 0.950 . S
C2955 C2954 1.334 . S
C2955 C2956 1.287 . S
C2956 C2955 1.287 . S
C2956 C2957 1.524 . S
C2956 H2975 0.913 . S
C2957 H2933 0.950 . S
C2957 C2956 1.524 . S
C2957 C2958 1.415 . S
C2958 H2934 0.950 . S
C2958 C2953 1.363 . S
C2958 C2957 1.415 . S
C2959 H2935 0.951 . S
C2959 C2960 1.366 . S
C2959 C2961 1.388 . S
C2960 C2959 1.366 . S
C2960 C2964 1.385 . S
C2961 H2936 0.951 . S
C2961 C2959 1.388 . S
C2961 C2962 1.366 . S
C2962 C2961 1.366 . S
C2962 C2963 1.414 . S
C2962 C2965 1.499 . S
C2963 H2937 0.950 . S
C2963 C2962 1.414 . S
C2963 C2964 1.374 . S
C2964 H2938 0.950 . S
C2964 C2960 1.385 . S
C2964 C2963 1.374 . S
C2965 C2962 1.499 . S
C2965 C2966 1.373 . S
C2965 C2967 1.389 . S
C2966 H2939 0.950 . S
C2966 C2952 1.377 . S
C2966 C2965 1.373 . S
C2967 C2951 1.377 . S
C2967 C2965 1.389 . S
C2967 C2968 1.524 . S
C2968 C2967 1.524 . S
C2968 C2969 1.397 . S
C2968 C2973 1.363 . S
C2969 H2940 0.950 . S
C2969 C2968 1.397 . S
C2969 C2970 1.334 . S
C2970 H2941 0.950 . S
C2970 C2969 1.334 . S
C2970 C2971 1.287 . S
C2971 C2970 1.287 . S
C2971 C2972 1.524 . S
C2971 H2974 0.999 . S
C2972 H2942 0.950 . S
C2972 C2971 1.524 . S
C2972 C2973 1.415 . S
C2973 H2943 0.950 . S
C2973 C2968 1.363 . S
C2973 C2972 1.415 . S
H2974 C2971 0.999 . S
H2975 C2956 0.913 . S
H2976 C2994 0.951 . S
H2977 C2996 0.951 . S
H2978 C2998 0.950 . S
H2979 C2999 0.950 . S
H2980 C3001 0.950 . S
H2981 C3004 0.950 . S
H2982 C3005 0.950 . S
H2983 C3007 0.950 . S
H2984 C3008 0.950 . S
H2985 C3009 0.951 . S
H2986 C3011 0.951 . S
H2987 C3013 0.950 . S
H2988 C3014 0.950 . S
H2989 C3016 0.950 . S
H2990 C3019 0.950 . S
H2991 C3020 0.950 . S
H2992 C3022 0.950 . S
H2993 C3023 0.950 . S
C2994 H2976 0.951 . S
C2994 C2995 1.366 . S
C2994 C2996 1.388 . S
C2995 C2994 1.366 . S
C2995 C2999 1.385 . S
C2996 H2977 0.951 . S
C2996 C2994 1.388 . S
C2996 C2997 1.366 . S
C2997 C2996 1.366 . S
C2997 C2998 1.414 . S
C2997 C3000 1.499 . S
C2998 H2978 0.950 . S
C2998 C2997 1.414 . S
C2998 C2999 1.374 . S
C2999 H2979 0.950 . S
C2999 C2995 1.385 . S
C2999 C2998 1.374 . S
C3000 C2997 1.499 . S
C3000 C3001 1.373 . S
C3000 C3002 1.389 . S
C3001 H2980 0.950 . S
C3001 C3000 1.373 . S
C3001 C3017 1.377 . S
C3002 C3000 1.389 . S
C3002 C3003 1.524 . S
C3002 C3016 1.377 . S
C3003 C3002 1.524 . S
C3003 C3004 1.397 . S
C3003 C3008 1.363 . S
C3004 H2981 0.950 . S
C3004 C3003 1.397 . S
C3004 C3005 1.334 . S
C3005 H2982 0.950 . S
C3005 C3004 1.334 . S
C3005 C3006 1.287 . S
C3006 C3005 1.287 . S
C3006 C3007 1.524 . S
C3006 H3025 0.913 . S
C3007 H2983 0.950 . S
C3007 C3006 1.524 . S
C3007 C3008 1.415 . S
C3008 H2984 0.950 . S
C3008 C3003 1.363 . S
C3008 C3007 1.415 . S
C3009 H2985 0.951 . S
C3009 C3010 1.366 . S
C3009 C3011 1.388 . S
C3010 C3009 1.366 . S
C3010 C3014 1.385 . S
C3011 H2986 0.951 . S
C3011 C3009 1.388 . S
C3011 C3012 1.366 . S
C3012 C3011 1.366 . S
C3012 C3013 1.414 . S
C3012 C3015 1.499 . S
C3013 H2987 0.950 . S
C3013 C3012 1.414 . S
C3013 C3014 1.374 . S
C3014 H2988 0.950 . S
C3014 C3010 1.385 . S
C3014 C3013 1.374 . S
C3015 C3012 1.499 . S
C3015 C3016 1.373 . S
C3015 C3017 1.389 . S
C3016 H2989 0.950 . S
C3016 C3002 1.377 . S
C3016 C3015 1.373 . S
C3017 C3001 1.377 . S
C3017 C3015 1.389 . S
C3017 C3018 1.524 . S
C3018 C3017 1.524 . S
C3018 C3019 1.397 . S
C3018 C3023 1.363 . S
C3019 H2990 0.950 . S
C3019 C3018 1.397 . S
C3019 C3020 1.334 . S
C3020 H2991 0.950 . S
C3020 C3019 1.334 . S
C3020 C3021 1.287 . S
C3021 C3020 1.287 . S
C3021 C3022 1.524 . S
C3021 H3024 0.999 . S
C3022 H2992 0.950 . S
C3022 C3021 1.524 . S
C3022 C3023 1.415 . S
C3023 H2993 0.950 . S
C3023 C3018 1.363 . S
C3023 C3022 1.415 . S
H3024 C3021 0.999 . S
H3025 C3006 0.913 . S
H3026 C3044 0.951 . S
H3027 C3046 0.951 . S
H3028 C3048 0.950 . S
H3029 C3049 0.950 . S
H3030 C3051 0.950 . S
H3031 C3054 0.950 . S
H3032 C3055 0.950 . S
H3033 C3057 0.950 . S
H3034 C3058 0.950 . S
H3035 C3059 0.951 . S
H3036 C3061 0.951 . S
H3037 C3063 0.950 . S
H3038 C3064 0.950 . S
H3039 C3066 0.950 . S
H3040 C3069 0.950 . S
H3041 C3070 0.950 . S
H3042 C3072 0.950 . S
H3043 C3073 0.950 . S
C3044 H3026 0.951 . S
C3044 C3045 1.366 . S
C3044 C3046 1.388 . S
C3045 C3044 1.366 . S
C3045 C3049 1.385 . S
C3046 H3027 0.951 . S
C3046 C3044 1.388 . S
C3046 C3047 1.366 . S
C3047 C3046 1.366 . S
C3047 C3048 1.414 . S
C3047 C3050 1.499 . S
C3048 H3028 0.950 . S
C3048 C3047 1.414 . S
C3048 C3049 1.374 . S
C3049 H3029 0.950 . S
C3049 C3045 1.385 . S
C3049 C3048 1.374 . S
C3050 C3047 1.499 . S
C3050 C3051 1.373 . S
C3050 C3052 1.389 . S
C3051 H3030 0.950 . S
C3051 C3050 1.373 . S
C3051 C3067 1.377 . S
C3052 C3050 1.389 . S
C3052 C3053 1.524 . S
C3052 C3066 1.377 . S
C3053 C3052 1.524 . S
C3053 C3054 1.397 . S
C3053 C3058 1.363 . S
C3054 H3031 0.950 . S
C3054 C3053 1.397 . S
C3054 C3055 1.334 . S
C3055 H3032 0.950 . S
C3055 C3054 1.334 . S
C3055 C3056 1.287 . S
C3056 C3055 1.287 . S
C3056 C3057 1.524 . S
C3056 H3075 0.913 . S
C3057 H3033 0.950 . S
C3057 C3056 1.524 . S
C3057 C3058 1.415 . S
C3058 H3034 0.950 . S
C3058 C3053 1.363 . S
C3058 C3057 1.415 . S
C3059 H3035 0.951 . S
C3059 C3060 1.366 . S
C3059 C3061 1.388 . S
C3060 C3059 1.366 . S
C3060 C3064 1.385 . S
C3061 H3036 0.951 . S
C3061 C3059 1.388 . S
C3061 C3062 1.366 . S
C3062 C3061 1.366 . S
C3062 C3063 1.414 . S
C3062 C3065 1.499 . S
C3063 H3037 0.950 . S
C3063 C3062 1.414 . S
C3063 C3064 1.374 . S
C3064 H3038 0.950 . S
C3064 C3060 1.385 . S
C3064 C3063 1.374 . S
C3065 C3062 1.499 . S
C3065 C3066 1.373 . S
C3065 C3067 1.389 . S
C3066 H3039 0.950 . S
C3066 C3052 1.377 . S
C3066 C3065 1.373 . S
C3067 C3051 1.377 . S
C3067 C3065 1.389 . S
C3067 C3068 1.524 . S
C3068 C3067 1.524 . S
C3068 C3069 1.397 . S
C3068 C3073 1.363 . S
C3069 H3040 0.950 . S
C3069 C3068 1.397 . S
C3069 C3070 1.334 1_554 S
C3070 H3041 0.950 . S
C3070 C3069 1.334 1_556 S
C3070 C3071 1.287 . S
C3071 C3070 1.287 . S
C3071 C3072 1.524 1_556 S
C3071 H3074 0.999 . S
C3072 H3042 0.950 . S
C3072 C3071 1.524 1_554 S
C3072 C3073 1.415 . S
C3073 H3043 0.950 . S
C3073 C3068 1.363 . S
C3073 C3072 1.415 . S
H3074 C3071 0.999 . S
H3075 C3056 0.913 . S
H3076 C3094 0.951 . S
H3077 C3096 0.951 . S
H3078 C3098 0.950 . S
H3079 C3099 0.950 . S
H3080 C3101 0.950 . S
H3081 C3104 0.950 . S
H3082 C3105 0.950 . S
H3083 C3107 0.950 . S
H3084 C3108 0.950 . S
H3085 C3109 0.951 . S
H3086 C3111 0.951 . S
H3087 C3113 0.950 . S
H3088 C3114 0.950 . S
H3089 C3116 0.950 . S
H3090 C3119 0.950 . S
H3091 C3120 0.950 . S
H3092 C3122 0.950 . S
H3093 C3123 0.950 . S
C3094 H3076 0.951 . S
C3094 C3095 1.366 . S
C3094 C3096 1.388 . S
C3095 C3094 1.366 . S
C3095 C3099 1.385 . S
C3096 H3077 0.951 . S
C3096 C3094 1.388 . S
C3096 C3097 1.366 . S
C3097 C3096 1.366 . S
C3097 C3098 1.414 . S
C3097 C3100 1.499 . S
C3098 H3078 0.950 . S
C3098 C3097 1.414 . S
C3098 C3099 1.374 . S
C3099 H3079 0.950 . S
C3099 C3095 1.385 . S
C3099 C3098 1.374 . S
C3100 C3097 1.499 . S
C3100 C3101 1.373 . S
C3100 C3102 1.389 . S
C3101 H3080 0.950 . S
C3101 C3100 1.373 . S
C3101 C3117 1.377 . S
C3102 C3100 1.389 . S
C3102 C3103 1.524 . S
C3102 C3116 1.377 . S
C3103 C3102 1.524 . S
C3103 C3104 1.397 . S
C3103 C3108 1.363 . S
C3104 H3081 0.950 . S
C3104 C3103 1.397 . S
C3104 C3105 1.334 . S
C3105 H3082 0.950 . S
C3105 C3104 1.334 . S
C3105 C3106 1.287 . S
C3106 C3105 1.287 . S
C3106 C3107 1.524 . S
C3106 H3125 0.913 . S
C3107 H3083 0.950 . S
C3107 C3106 1.524 . S
C3107 C3108 1.415 . S
C3108 H3084 0.950 . S
C3108 C3103 1.363 . S
C3108 C3107 1.415 . S
C3109 H3085 0.951 . S
C3109 C3110 1.366 . S
C3109 C3111 1.388 . S
C3110 C3109 1.366 . S
C3110 C3114 1.385 . S
C3111 H3086 0.951 . S
C3111 C3109 1.388 . S
C3111 C3112 1.366 . S
C3112 C3111 1.366 . S
C3112 C3113 1.414 . S
C3112 C3115 1.499 . S
C3113 H3087 0.950 . S
C3113 C3112 1.414 . S
C3113 C3114 1.374 . S
C3114 H3088 0.950 . S
C3114 C3110 1.385 . S
C3114 C3113 1.374 . S
C3115 C3112 1.499 . S
C3115 C3116 1.373 . S
C3115 C3117 1.389 . S
C3116 H3089 0.950 . S
C3116 C3102 1.377 . S
C3116 C3115 1.373 . S
C3117 C3101 1.377 . S
C3117 C3115 1.389 . S
C3117 C3118 1.524 . S
C3118 C3117 1.524 . S
C3118 C3119 1.397 . S
C3118 C3123 1.363 . S
C3119 H3090 0.950 . S
C3119 C3118 1.397 . S
C3119 C3120 1.334 . S
C3120 H3091 0.950 . S
C3120 C3119 1.334 . S
C3120 C3121 1.287 . S
C3121 C3120 1.287 . S
C3121 C3122 1.524 . S
C3121 H3124 0.999 . S
C3122 H3092 0.950 . S
C3122 C3121 1.524 . S
C3122 C3123 1.415 . S
C3123 H3093 0.950 . S
C3123 C3118 1.363 . S
C3123 C3122 1.415 . S
H3124 C3121 0.999 . S
H3125 C3106 0.913 . S
H3126 C3144 0.951 . S
H3127 C3146 0.951 . S
H3128 C3148 0.950 . S
H3129 C3149 0.950 . S
H3130 C3151 0.950 . S
H3131 C3154 0.950 . S
H3132 C3155 0.950 . S
H3133 C3157 0.950 . S
H3134 C3158 0.950 . S
H3135 C3159 0.951 . S
H3136 C3161 0.951 . S
H3137 C3163 0.950 . S
H3138 C3164 0.950 . S
H3139 C3166 0.950 . S
H3140 C3169 0.950 . S
H3141 C3170 0.950 . S
H3142 C3172 0.950 . S
H3143 C3173 0.950 . S
C3144 H3126 0.951 . S
C3144 C3145 1.366 . S
C3144 C3146 1.388 . S
C3145 C3144 1.366 . S
C3145 C3149 1.385 . S
C3146 H3127 0.951 . S
C3146 C3144 1.388 . S
C3146 C3147 1.366 . S
C3147 C3146 1.366 . S
C3147 C3148 1.414 . S
C3147 C3150 1.499 . S
C3148 H3128 0.950 . S
C3148 C3147 1.414 . S
C3148 C3149 1.374 . S
C3149 H3129 0.950 . S
C3149 C3145 1.385 . S
C3149 C3148 1.374 . S
C3150 C3147 1.499 . S
C3150 C3151 1.373 . S
C3150 C3152 1.389 . S
C3151 H3130 0.950 . S
C3151 C3150 1.373 . S
C3151 C3167 1.377 . S
C3152 C3150 1.389 . S
C3152 C3153 1.524 . S
C3152 C3166 1.377 . S
C3153 C3152 1.524 . S
C3153 C3154 1.397 . S
C3153 C3158 1.363 . S
C3154 H3131 0.950 . S
C3154 C3153 1.397 . S
C3154 C3155 1.334 . S
C3155 H3132 0.950 . S
C3155 C3154 1.334 . S
C3155 C3156 1.287 . S
C3156 C3155 1.287 . S
C3156 C3157 1.524 . S
C3156 H3175 0.913 . S
C3157 H3133 0.950 . S
C3157 C3156 1.524 . S
C3157 C3158 1.415 . S
C3158 H3134 0.950 . S
C3158 C3153 1.363 . S
C3158 C3157 1.415 . S
C3159 H3135 0.951 . S
C3159 C3160 1.366 . S
C3159 C3161 1.388 . S
C3160 C3159 1.366 . S
C3160 C3164 1.385 . S
C3161 H3136 0.951 . S
C3161 C3159 1.388 . S
C3161 C3162 1.366 . S
C3162 C3161 1.366 . S
C3162 C3163 1.414 . S
C3162 C3165 1.499 . S
C3163 H3137 0.950 . S
C3163 C3162 1.414 . S
C3163 C3164 1.374 . S
C3164 H3138 0.950 . S
C3164 C3160 1.385 . S
C3164 C3163 1.374 . S
C3165 C3162 1.499 . S
C3165 C3166 1.373 . S
C3165 C3167 1.389 . S
C3166 H3139 0.950 . S
C3166 C3152 1.377 . S
C3166 C3165 1.373 . S
C3167 C3151 1.377 . S
C3167 C3165 1.389 . S
C3167 C3168 1.524 . S
C3168 C3167 1.524 . S
C3168 C3169 1.397 . S
C3168 C3173 1.363 . S
C3169 H3140 0.950 . S
C3169 C3168 1.397 . S
C3169 C3170 1.334 . S
C3170 H3141 0.950 . S
C3170 C3169 1.334 . S
C3170 C3171 1.287 . S
C3171 C3170 1.287 . S
C3171 C3172 1.524 . S
C3171 H3174 0.999 . S
C3172 H3142 0.950 . S
C3172 C3171 1.524 . S
C3172 C3173 1.415 . S
C3173 H3143 0.950 . S
C3173 C3168 1.363 . S
C3173 C3172 1.415 . S
H3174 C3171 0.999 . S
H3175 C3156 0.913 . S
H3176 C3194 0.951 . S
H3177 C3196 0.951 . S
H3178 C3198 0.950 1_545 S
H3179 C3199 0.950 . S
H3180 C3201 0.950 . S
H3181 C3204 0.950 . S
H3182 C3205 0.950 . S
H3183 C3207 0.950 . S
H3184 C3208 0.950 . S
H3185 C3209 0.951 . S
H3186 C3211 0.951 . S
H3187 C3213 0.950 . S
H3188 C3214 0.950 . S
H3189 C3216 0.950 . S
H3190 C3219 0.950 . S
H3191 C3220 0.950 . S
H3192 C3222 0.950 . S
H3193 C3223 0.950 . S
C3194 H3176 0.951 . S
C3194 C3195 1.366 1_565 S
C3194 C3196 1.388 . S
C3195 C3194 1.366 1_545 S
C3195 C3199 1.385 . S
C3196 H3177 0.951 . S
C3196 C3194 1.388 . S
C3196 C3197 1.366 . S
C3197 C3196 1.366 . S
C3197 C3198 1.414 . S
C3197 C3200 1.499 . S
C3198 H3178 0.950 1_565 S
C3198 C3197 1.414 . S
C3198 C3199 1.374 1_565 S
C3199 H3179 0.950 . S
C3199 C3195 1.385 . S
C3199 C3198 1.374 1_545 S
C3200 C3197 1.499 . S
C3200 C3201 1.373 . S
C3200 C3202 1.389 . S
C3201 H3180 0.950 . S
C3201 C3200 1.373 . S
C3201 C3217 1.377 . S
C3202 C3200 1.389 . S
C3202 C3203 1.524 . S
C3202 C3216 1.377 . S
C3203 C3202 1.524 . S
C3203 C3204 1.397 . S
C3203 C3208 1.363 . S
C3204 H3181 0.950 . S
C3204 C3203 1.397 . S
C3204 C3205 1.334 . S
C3205 H3182 0.950 . S
C3205 C3204 1.334 . S
C3205 C3206 1.287 . S
C3206 C3205 1.287 . S
C3206 C3207 1.524 . S
C3206 H3225 0.913 . S
C3207 H3183 0.950 . S
C3207 C3206 1.524 . S
C3207 C3208 1.415 . S
C3208 H3184 0.950 . S
C3208 C3203 1.363 . S
C3208 C3207 1.415 . S
C3209 H3185 0.951 . S
C3209 C3210 1.366 . S
C3209 C3211 1.388 . S
C3210 C3209 1.366 . S
C3210 C3214 1.385 . S
C3211 H3186 0.951 . S
C3211 C3209 1.388 . S
C3211 C3212 1.366 . S
C3212 C3211 1.366 . S
C3212 C3213 1.414 . S
C3212 C3215 1.499 . S
C3213 H3187 0.950 . S
C3213 C3212 1.414 . S
C3213 C3214 1.374 . S
C3214 H3188 0.950 . S
C3214 C3210 1.385 . S
C3214 C3213 1.374 . S
C3215 C3212 1.499 . S
C3215 C3216 1.373 . S
C3215 C3217 1.389 . S
C3216 H3189 0.950 . S
C3216 C3202 1.377 . S
C3216 C3215 1.373 . S
C3217 C3201 1.377 . S
C3217 C3215 1.389 . S
C3217 C3218 1.524 . S
C3218 C3217 1.524 . S
C3218 C3219 1.397 . S
C3218 C3223 1.363 . S
C3219 H3190 0.950 . S
C3219 C3218 1.397 . S
C3219 C3220 1.334 . S
C3220 H3191 0.950 . S
C3220 C3219 1.334 . S
C3220 C3221 1.287 . S
C3221 C3220 1.287 . S
C3221 C3222 1.524 . S
C3221 H3224 0.999 . S
C3222 H3192 0.950 . S
C3222 C3221 1.524 . S
C3222 C3223 1.415 . S
C3223 H3193 0.950 . S
C3223 C3218 1.363 . S
C3223 C3222 1.415 . S
H3224 C3221 0.999 . S
H3225 C3206 0.913 . S
H3226 C3244 0.951 . S
H3227 C3246 0.951 . S
H3228 C3248 0.950 . S
H3229 C3249 0.950 . S
H3230 C3251 0.950 . S
H3231 C3254 0.950 . S
H3232 C3255 0.950 . S
H3233 C3257 0.950 . S
H3234 C3258 0.950 . S
H3235 C3259 0.951 1_545 S
H3236 C3261 0.951 . S
H3237 C3263 0.950 . S
H3238 C3264 0.950 . S
H3239 C3266 0.950 . S
H3240 C3269 0.950 . S
H3241 C3270 0.950 . S
H3242 C3272 0.977 . S
H3243 C3273 0.950 . S
C3244 H3226 0.951 . S
C3244 C3245 1.366 . S
C3244 C3246 1.388 . S
C3245 C3244 1.366 . S
C3245 C3249 1.385 . S
C3246 H3227 0.951 . S
C3246 C3244 1.388 . S
C3246 C3247 1.366 . S
C3247 C3246 1.366 . S
C3247 C3248 1.414 . S
C3247 C3250 1.499 . S
C3248 H3228 0.950 . S
C3248 C3247 1.414 . S
C3248 C3249 1.374 . S
C3249 H3229 0.950 . S
C3249 C3245 1.385 . S
C3249 C3248 1.374 . S
C3250 C3247 1.499 . S
C3250 C3251 1.373 . S
C3250 C3252 1.389 . S
C3251 H3230 0.950 . S
C3251 C3250 1.373 . S
C3251 C3267 1.377 . S
C3252 C3250 1.389 . S
C3252 C3253 1.524 . S
C3252 C3266 1.377 . S
C3253 C3252 1.524 . S
C3253 C3254 1.397 . S
C3253 C3258 1.363 . S
C3254 H3231 0.950 . S
C3254 C3253 1.397 . S
C3254 C3255 1.334 . S
C3255 H3232 0.950 . S
C3255 C3254 1.334 . S
C3255 C3256 1.287 . S
C3256 C3255 1.287 . S
C3256 C3257 1.524 . S
C3256 H3275 0.913 . S
C3257 H3233 0.950 . S
C3257 C3256 1.524 . S
C3257 C3258 1.415 . S
C3258 H3234 0.950 . S
C3258 C3253 1.363 . S
C3258 C3257 1.415 . S
C3259 H3235 0.951 1_565 S
C3259 C3260 1.366 . S
C3259 C3261 1.388 . S
C3260 C3259 1.366 . S
C3260 C3264 1.385 . S
C3261 H3236 0.951 . S
C3261 C3259 1.388 . S
C3261 C3262 1.366 . S
C3262 C3261 1.366 . S
C3262 C3263 1.414 . S
C3262 C3265 1.499 . S
C3263 H3237 0.950 . S
C3263 C3262 1.414 . S
C3263 C3264 1.374 . S
C3264 H3238 0.950 . S
C3264 C3260 1.385 . S
C3264 C3263 1.374 . S
C3265 C3262 1.499 . S
C3265 C3266 1.373 . S
C3265 C3267 1.389 . S
C3266 H3239 0.950 . S
C3266 C3252 1.377 . S
C3266 C3265 1.373 . S
C3267 C3251 1.377 . S
C3267 C3265 1.389 . S
C3267 C3268 1.524 . S
C3268 C3267 1.524 . S
C3268 C3269 1.397 . S
C3268 C3273 1.363 . S
C3269 H3240 0.950 . S
C3269 C3268 1.397 . S
C3269 C3270 1.334 . S
C3270 H3241 0.950 . S
C3270 C3269 1.334 . S
C3270 C3271 1.287 . S
C3271 C3270 1.287 . S
C3271 C3272 1.524 . S
C3271 H3274 0.999 . S
C3272 H3242 0.977 . S
C3272 C3271 1.524 . S
C3272 C3273 1.415 . S
C3273 H3243 0.950 . S
C3273 C3268 1.363 . S
C3273 C3272 1.415 . S
H3274 C3271 0.999 . S
H3275 C3256 0.913 . S
H3276 C3294 0.951 . S
H3277 C3296 0.951 . S
H3278 C3298 0.950 . S
H3279 C3299 0.950 . S
H3280 C3301 0.950 . S
H3281 C3304 0.950 . S
H3282 C3305 0.950 . S
H3283 C3307 0.950 . S
H3284 C3308 0.950 . S
H3285 C3309 0.951 . S
H3286 C3311 0.951 . S
H3287 C3313 0.950 . S
H3288 C3314 0.950 . S
H3289 C3316 0.950 . S
H3290 C3319 0.950 . S
H3291 C3320 0.950 . S
H3292 C3322 0.950 . S
H3293 C3323 0.950 . S
C3294 H3276 0.951 . S
C3294 C3295 1.366 . S
C3294 C3296 1.388 . S
C3295 C3294 1.366 . S
C3295 C3299 1.385 . S
C3296 H3277 0.951 . S
C3296 C3294 1.388 . S
C3296 C3297 1.366 . S
C3297 C3296 1.366 . S
C3297 C3298 1.414 . S
C3297 C3300 1.499 . S
C3298 H3278 0.950 . S
C3298 C3297 1.414 . S
C3298 C3299 1.374 . S
C3299 H3279 0.950 . S
C3299 C3295 1.385 . S
C3299 C3298 1.374 . S
C3300 C3297 1.499 . S
C3300 C3301 1.373 . S
C3300 C3302 1.389 . S
C3301 H3280 0.950 . S
C3301 C3300 1.373 . S
C3301 C3317 1.377 . S
C3302 C3300 1.389 . S
C3302 C3303 1.524 . S
C3302 C3316 1.377 . S
C3303 C3302 1.524 . S
C3303 C3304 1.397 . S
C3303 C3308 1.363 . S
C3304 H3281 0.950 . S
C3304 C3303 1.397 . S
C3304 C3305 1.334 . S
C3305 H3282 0.950 . S
C3305 C3304 1.334 . S
C3305 C3306 1.287 . S
C3306 C3305 1.287 . S
C3306 C3307 1.524 . S
C3306 H3325 0.913 . S
C3307 H3283 0.950 . S
C3307 C3306 1.524 . S
C3307 C3308 1.415 . S
C3308 H3284 0.950 . S
C3308 C3303 1.363 . S
C3308 C3307 1.415 . S
C3309 H3285 0.951 . S
C3309 C3310 1.366 . S
C3309 C3311 1.388 . S
C3310 C3309 1.366 . S
C3310 C3314 1.385 . S
C3311 H3286 0.951 . S
C3311 C3309 1.388 . S
C3311 C3312 1.366 . S
C3312 C3311 1.366 . S
C3312 C3313 1.414 . S
C3312 C3315 1.499 . S
C3313 H3287 0.950 . S
C3313 C3312 1.414 . S
C3313 C3314 1.374 . S
C3314 H3288 0.950 . S
C3314 C3310 1.385 . S
C3314 C3313 1.374 . S
C3315 C3312 1.499 . S
C3315 C3316 1.373 . S
C3315 C3317 1.389 . S
C3316 H3289 0.950 . S
C3316 C3302 1.377 . S
C3316 C3315 1.373 . S
C3317 C3301 1.377 . S
C3317 C3315 1.389 . S
C3317 C3318 1.524 . S
C3318 C3317 1.524 . S
C3318 C3319 1.397 . S
C3318 C3323 1.363 . S
C3319 H3290 0.950 . S
C3319 C3318 1.397 . S
C3319 C3320 1.334 . S
C3320 H3291 0.950 . S
C3320 C3319 1.334 . S
C3320 C3321 1.287 . S
C3321 C3320 1.287 . S
C3321 C3322 1.524 . S
C3321 H3324 0.999 . S
C3322 H3292 0.950 . S
C3322 C3321 1.524 . S
C3322 C3323 1.415 . S
C3323 H3293 0.950 . S
C3323 C3318 1.363 . S
C3323 C3322 1.415 . S
H3324 C3321 0.999 . S
H3325 C3306 0.913 . S
H3326 C3344 0.951 . S
H3327 C3346 0.951 . S
H3328 C3348 0.950 . S
H3329 C3349 0.950 . S
H3330 C3351 0.950 . S
H3331 C3354 0.950 . S
H3332 C3355 0.950 . S
H3333 C3357 0.950 . S
H3334 C3358 0.950 . S
H3335 C3359 0.951 . S
H3336 C3361 0.951 . S
H3337 C3363 0.950 . S
H3338 C3364 0.950 . S
H3339 C3366 0.950 . S
H3340 C3369 0.950 . S
H3341 C3370 0.950 . S
H3342 C3372 0.950 . S
H3343 C3373 0.950 . S
C3344 H3326 0.951 . S
C3344 C3345 1.366 . S
C3344 C3346 1.388 . S
C3345 C3344 1.366 . S
C3345 C3349 1.385 . S
C3346 H3327 0.951 . S
C3346 C3344 1.388 . S
C3346 C3347 1.366 . S
C3347 C3346 1.366 . S
C3347 C3348 1.414 . S
C3347 C3350 1.499 . S
C3348 H3328 0.950 . S
C3348 C3347 1.414 . S
C3348 C3349 1.374 . S
C3349 H3329 0.950 . S
C3349 C3345 1.385 . S
C3349 C3348 1.374 . S
C3350 C3347 1.499 . S
C3350 C3351 1.373 . S
C3350 C3352 1.389 . S
C3351 H3330 0.950 . S
C3351 C3350 1.373 . S
C3351 C3367 1.377 . S
C3352 C3350 1.389 . S
C3352 C3353 1.524 . S
C3352 C3366 1.377 . S
C3353 C3352 1.524 . S
C3353 C3354 1.397 . S
C3353 C3358 1.363 . S
C3354 H3331 0.950 . S
C3354 C3353 1.397 . S
C3354 C3355 1.334 . S
C3355 H3332 0.950 . S
C3355 C3354 1.334 . S
C3355 C3356 1.287 . S
C3356 C3355 1.287 . S
C3356 C3357 1.524 . S
C3356 H3375 0.913 . S
C3357 H3333 0.950 . S
C3357 C3356 1.524 . S
C3357 C3358 1.415 . S
C3358 H3334 0.950 . S
C3358 C3353 1.363 . S
C3358 C3357 1.415 . S
C3359 H3335 0.951 . S
C3359 C3360 1.366 . S
C3359 C3361 1.388 . S
C3360 C3359 1.366 . S
C3360 C3364 1.385 . S
C3361 H3336 0.951 . S
C3361 C3359 1.388 . S
C3361 C3362 1.366 . S
C3362 C3361 1.366 . S
C3362 C3363 1.414 . S
C3362 C3365 1.499 . S
C3363 H3337 0.950 . S
C3363 C3362 1.414 . S
C3363 C3364 1.374 . S
C3364 H3338 0.950 . S
C3364 C3360 1.385 . S
C3364 C3363 1.374 . S
C3365 C3362 1.499 . S
C3365 C3366 1.373 . S
C3365 C3367 1.389 . S
C3366 H3339 0.950 . S
C3366 C3352 1.377 . S
C3366 C3365 1.373 . S
C3367 C3351 1.377 . S
C3367 C3365 1.389 . S
C3367 C3368 1.524 . S
C3368 C3367 1.524 . S
C3368 C3369 1.397 . S
C3368 C3373 1.363 . S
C3369 H3340 0.950 . S
C3369 C3368 1.397 . S
C3369 C3370 1.334 . S
C3370 H3341 0.950 . S
C3370 C3369 1.334 . S
C3370 C3371 1.287 . S
C3371 C3370 1.287 . S
C3371 C3372 1.524 . S
C3371 H3374 0.999 . S
C3372 H3342 0.950 . S
C3372 C3371 1.524 . S
C3372 C3373 1.415 . S
C3373 H3343 0.950 . S
C3373 C3368 1.363 . S
C3373 C3372 1.415 . S
H3374 C3371 0.999 . S
H3375 C3356 0.913 . S
H3376 C3394 0.951 . S
H3377 C3396 0.951 . S
H3378 C3398 0.950 . S
H3379 C3399 0.950 . S
H3380 C3401 0.950 . S
H3381 C3404 0.950 . S
H3382 C3405 0.950 . S
H3383 C3407 0.950 . S
H3384 C3408 0.950 . S
H3385 C3409 0.951 . S
H3386 C3411 0.951 . S
H3387 C3413 0.950 . S
H3388 C3414 0.950 . S
H3389 C3416 0.950 . S
H3390 C3419 0.950 . S
H3391 C3420 0.950 . S
H3392 C3422 0.950 . S
H3393 C3423 0.950 . S
C3394 H3376 0.951 . S
C3394 C3395 1.366 . S
C3394 C3396 1.388 . S
C3395 C3394 1.366 . S
C3395 C3399 1.385 . S
C3396 H3377 0.951 . S
C3396 C3394 1.388 . S
C3396 C3397 1.366 . S
C3397 C3396 1.366 . S
C3397 C3398 1.414 . S
C3397 C3400 1.499 . S
C3398 H3378 0.950 . S
C3398 C3397 1.414 . S
C3398 C3399 1.374 . S
C3399 H3379 0.950 . S
C3399 C3395 1.385 . S
C3399 C3398 1.374 . S
C3400 C3397 1.499 . S
C3400 C3401 1.373 . S
C3400 C3402 1.389 . S
C3401 H3380 0.950 . S
C3401 C3400 1.373 . S
C3401 C3417 1.377 . S
C3402 C3400 1.389 . S
C3402 C3403 1.524 . S
C3402 C3416 1.377 . S
C3403 C3402 1.524 . S
C3403 C3404 1.397 . S
C3403 C3408 1.363 . S
C3404 H3381 0.950 . S
C3404 C3403 1.397 . S
C3404 C3405 1.334 . S
C3405 H3382 0.950 . S
C3405 C3404 1.334 . S
C3405 C3406 1.287 . S
C3406 C3405 1.287 . S
C3406 C3407 1.524 . S
C3406 H3425 0.913 . S
C3407 H3383 0.950 . S
C3407 C3406 1.524 . S
C3407 C3408 1.415 . S
C3408 H3384 0.950 . S
C3408 C3403 1.363 . S
C3408 C3407 1.415 . S
C3409 H3385 0.951 . S
C3409 C3410 1.366 . S
C3409 C3411 1.388 . S
C3410 C3409 1.366 . S
C3410 C3414 1.385 . S
C3411 H3386 0.951 . S
C3411 C3409 1.388 . S
C3411 C3412 1.366 . S
C3412 C3411 1.366 . S
C3412 C3413 1.414 . S
C3412 C3415 1.499 . S
C3413 H3387 0.950 . S
C3413 C3412 1.414 . S
C3413 C3414 1.374 . S
C3414 H3388 0.950 . S
C3414 C3410 1.385 . S
C3414 C3413 1.374 . S
C3415 C3412 1.499 . S
C3415 C3416 1.373 . S
C3415 C3417 1.389 . S
C3416 H3389 0.950 . S
C3416 C3402 1.377 . S
C3416 C3415 1.373 . S
C3417 C3401 1.377 . S
C3417 C3415 1.389 . S
C3417 C3418 1.524 . S
C3418 C3417 1.524 . S
C3418 C3419 1.397 . S
C3418 C3423 1.363 . S
C3419 H3390 0.950 . S
C3419 C3418 1.397 . S
C3419 C3420 1.334 . S
C3420 H3391 0.950 . S
C3420 C3419 1.334 . S
C3420 C3421 1.287 . S
C3421 C3420 1.287 . S
C3421 C3422 1.524 . S
C3421 H3424 0.999 . S
C3422 H3392 0.950 . S
C3422 C3421 1.524 . S
C3422 C3423 1.415 . S
C3423 H3393 0.950 . S
C3423 C3418 1.363 . S
C3423 C3422 1.415 . S
H3424 C3421 0.999 . S
H3425 C3406 0.913 . S
H3426 C3444 0.951 . S
H3427 C3446 0.951 . S
H3428 C3448 0.950 . S
H3429 C3449 0.950 . S
H3430 C3451 0.950 . S
H3431 C3454 0.950 . S
H3432 C3455 0.950 . S
H3433 C3457 0.950 . S
H3434 C3458 0.950 . S
H3435 C3459 0.951 . S
H3436 C3461 0.951 . S
H3437 C3463 0.950 . S
H3438 C3464 0.950 . S
H3439 C3466 0.950 . S
H3440 C3469 0.950 . S
H3441 C3470 0.950 . S
H3442 C3472 0.950 . S
H3443 C3473 0.950 . S
C3444 H3426 0.951 . S
C3444 C3445 1.366 . S
C3444 C3446 1.388 . S
C3445 C3444 1.366 . S
C3445 C3449 1.385 . S
C3446 H3427 0.951 . S
C3446 C3444 1.388 . S
C3446 C3447 1.366 . S
C3447 C3446 1.366 . S
C3447 C3448 1.414 . S
C3447 C3450 1.499 . S
C3448 H3428 0.950 . S
C3448 C3447 1.414 . S
C3448 C3449 1.374 . S
C3449 H3429 0.950 . S
C3449 C3445 1.385 . S
C3449 C3448 1.374 . S
C3450 C3447 1.499 . S
C3450 C3451 1.373 . S
C3450 C3452 1.389 . S
C3451 H3430 0.950 . S
C3451 C3450 1.373 . S
C3451 C3467 1.377 . S
C3452 C3450 1.389 . S
C3452 C3453 1.524 . S
C3452 C3466 1.377 . S
C3453 C3452 1.524 . S
C3453 C3454 1.397 . S
C3453 C3458 1.363 . S
C3454 H3431 0.950 . S
C3454 C3453 1.397 . S
C3454 C3455 1.334 . S
C3455 H3432 0.950 . S
C3455 C3454 1.334 . S
C3455 C3456 1.287 . S
C3456 C3455 1.287 . S
C3456 C3457 1.524 . S
C3456 H3475 0.913 . S
C3457 H3433 0.950 . S
C3457 C3456 1.524 . S
C3457 C3458 1.415 . S
C3458 H3434 0.950 . S
C3458 C3453 1.363 . S
C3458 C3457 1.415 . S
C3459 H3435 0.951 . S
C3459 C3460 1.366 . S
C3459 C3461 1.388 . S
C3460 C3459 1.366 . S
C3460 C3464 1.385 . S
C3461 H3436 0.951 . S
C3461 C3459 1.388 . S
C3461 C3462 1.366 . S
C3462 C3461 1.366 . S
C3462 C3463 1.414 . S
C3462 C3465 1.499 . S
C3463 H3437 0.950 . S
C3463 C3462 1.414 . S
C3463 C3464 1.374 . S
C3464 H3438 0.950 . S
C3464 C3460 1.385 . S
C3464 C3463 1.374 . S
C3465 C3462 1.499 . S
C3465 C3466 1.373 . S
C3465 C3467 1.389 . S
C3466 H3439 0.950 . S
C3466 C3452 1.377 . S
C3466 C3465 1.373 . S
C3467 C3451 1.377 . S
C3467 C3465 1.389 . S
C3467 C3468 1.524 . S
C3468 C3467 1.524 . S
C3468 C3469 1.397 . S
C3468 C3473 1.363 . S
C3469 H3440 0.950 . S
C3469 C3468 1.397 . S
C3469 C3470 1.334 . S
C3470 H3441 0.950 . S
C3470 C3469 1.334 . S
C3470 C3471 1.287 . S
C3471 C3470 1.287 . S
C3471 C3472 1.524 . S
C3471 H3474 0.999 . S
C3472 H3442 0.950 . S
C3472 C3471 1.524 . S
C3472 C3473 1.415 . S
C3473 H3443 0.950 . S
C3473 C3468 1.363 . S
C3473 C3472 1.415 . S
H3474 C3471 0.999 . S
H3475 C3456 0.913 . S
H3476 C3494 0.951 1_554 S
H3477 C3496 0.951 . S
H3478 C3498 0.970 . S
H3479 C3499 0.950 . S
H3480 C3501 0.950 . S
H3481 C3504 0.950 . S
H3482 C3505 0.950 . S
H3483 C3507 0.950 . S
H3484 C3508 0.950 1_455 S
H3485 C3509 0.951 . S
H3486 C3511 0.951 . S
H3487 C3513 0.950 . S
H3488 C3514 0.950 . S
H3489 C3516 0.929 1_655 S
H3490 C3519 0.950 . S
H3491 C3520 0.950 1_554 S
H3492 C3522 0.950 . S
H3493 C3523 0.950 . S
C3494 H3476 0.951 1_556 S
C3494 C3495 1.366 . S
C3494 C3496 1.388 1_556 S
C3495 C3494 1.366 . S
C3495 C3499 1.385 1_455 S
C3496 H3477 0.951 . S
C3496 C3494 1.388 1_554 S
C3496 C3497 1.366 1_554 S
C3497 C3496 1.366 1_556 S
C3497 C3498 1.408 1_455 S
C3497 C3500 1.499 1_556 S
C3498 H3478 0.970 . S
C3498 C3497 1.408 1_655 S
C3498 C3499 1.362 . S
C3499 H3479 0.950 . S
C3499 C3495 1.385 1_655 S
C3499 C3498 1.362 . S
C3500 C3497 1.499 1_554 S
C3500 C3501 1.373 1_554 S
C3500 C3502 1.418 . S
C3501 H3480 0.950 . S
C3501 C3500 1.373 1_556 S
C3501 C3517 1.377 1_556 S
C3502 C3500 1.418 . S
C3502 C3503 1.504 1_455 S
C3502 C3516 1.366 . S
C3503 C3502 1.504 1_655 S
C3503 C3504 1.397 . S
C3503 C3508 1.363 . S
C3504 H3481 0.950 . S
C3504 C3503 1.397 . S
C3504 C3505 1.334 . S
C3505 H3482 0.950 . S
C3505 C3504 1.334 . S
C3505 C3506 1.287 . S
C3506 C3505 1.287 . S
C3506 C3507 1.524 . S
C3506 H3525 0.913 . S
C3507 H3483 0.950 . S
C3507 C3506 1.524 . S
C3507 C3508 1.415 . S
C3508 H3484 0.950 1_655 S
C3508 C3503 1.363 . S
C3508 C3507 1.415 . S
C3509 H3485 0.951 . S
C3509 C3510 1.366 . S
C3509 C3511 1.388 . S
C3510 C3509 1.366 . S
C3510 C3514 1.385 . S
C3511 H3486 0.951 . S
C3511 C3509 1.388 . S
C3511 C3512 1.366 . S
C3512 C3511 1.366 . S
C3512 C3513 1.414 . S
C3512 C3515 1.499 . S
C3513 H3487 0.950 . S
C3513 C3512 1.414 . S
C3513 C3514 1.374 . S
C3514 H3488 0.950 . S
C3514 C3510 1.385 . S
C3514 C3513 1.374 . S
C3515 C3512 1.499 . S
C3515 C3516 1.373 . S
C3515 C3517 1.389 . S
C3516 H3489 0.929 1_455 S
C3516 C3502 1.366 . S
C3516 C3515 1.373 . S
C3517 C3501 1.377 1_554 S
C3517 C3515 1.389 . S
C3517 C3518 1.524 1_554 S
C3518 C3517 1.524 1_556 S
C3518 C3519 1.397 1_556 S
C3518 C3523 1.363 . S
C3519 H3490 0.950 . S
C3519 C3518 1.397 1_554 S
C3519 C3520 1.334 1_554 S
C3520 H3491 0.950 1_556 S
C3520 C3519 1.334 1_556 S
C3520 C3521 1.287 . S
C3521 C3520 1.287 . S
C3521 C3522 1.524 . S
C3521 H3524 0.999 . S
C3522 H3492 0.950 . S
C3522 C3521 1.524 . S
C3522 C3523 1.415 . S
C3523 H3493 0.950 . S
C3523 C3518 1.363 . S
C3523 C3522 1.415 . S
H3524 C3521 0.999 . S
H3525 C3506 0.913 . S
H3526 C3544 0.952 . S
H3527 C3546 0.951 . S
H3528 C3548 0.950 . S
H3529 C3549 0.950 . S
H3530 C3551 0.950 . S
H3531 C3554 0.950 . S
H3532 C3555 0.950 . S
H3533 C3557 0.950 . S
H3534 C3558 0.950 . S
H3535 C3559 0.951 . S
H3536 C3561 0.951 . S
H3537 C3563 0.950 . S
H3538 C3564 0.950 . S
H3539 C3566 0.950 . S
H3540 C3569 0.950 . S
H3541 C3570 0.950 . S
H3542 C3572 0.950 . S
H3543 C3573 0.950 . S
C3544 H3526 0.952 . S
C3544 C3545 1.366 . S
C3544 C3546 1.388 . S
C3545 C3544 1.366 . S
C3545 C3549 1.385 . S
C3546 H3527 0.951 . S
C3546 C3544 1.388 . S
C3546 C3547 1.366 . S
C3547 C3546 1.366 . S
C3547 C3548 1.414 . S
C3547 C3550 1.499 . S
C3548 H3528 0.950 . S
C3548 C3547 1.414 . S
C3548 C3549 1.374 . S
C3549 H3529 0.950 . S
C3549 C3545 1.385 . S
C3549 C3548 1.374 . S
C3550 C3547 1.499 . S
C3550 C3551 1.373 . S
C3550 C3552 1.389 . S
C3551 H3530 0.950 . S
C3551 C3550 1.373 . S
C3551 C3567 1.377 . S
C3552 C3550 1.389 . S
C3552 C3553 1.524 . S
C3552 C3566 1.377 . S
C3553 C3552 1.524 . S
C3553 C3554 1.397 . S
C3553 C3558 1.363 . S
C3554 H3531 0.950 . S
C3554 C3553 1.397 . S
C3554 C3555 1.334 . S
C3555 H3532 0.950 . S
C3555 C3554 1.334 . S
C3555 C3556 1.287 . S
C3556 C3555 1.287 . S
C3556 C3557 1.524 . S
C3556 H3575 0.913 . S
C3557 H3533 0.950 . S
C3557 C3556 1.524 . S
C3557 C3558 1.415 . S
C3558 H3534 0.950 . S
C3558 C3553 1.363 . S
C3558 C3557 1.415 . S
C3559 H3535 0.951 . S
C3559 C3560 1.366 . S
C3559 C3561 1.388 . S
C3560 C3559 1.366 . S
C3560 C3564 1.385 . S
C3561 H3536 0.951 . S
C3561 C3559 1.388 . S
C3561 C3562 1.366 . S
C3562 C3561 1.366 . S
C3562 C3563 1.414 . S
C3562 C3565 1.499 . S
C3563 H3537 0.950 . S
C3563 C3562 1.414 . S
C3563 C3564 1.374 . S
C3564 H3538 0.950 . S
C3564 C3560 1.385 . S
C3564 C3563 1.374 . S
C3565 C3562 1.499 . S
C3565 C3566 1.373 . S
C3565 C3567 1.389 . S
C3566 H3539 0.950 . S
C3566 C3552 1.377 . S
C3566 C3565 1.373 . S
C3567 C3551 1.377 . S
C3567 C3565 1.389 . S
C3567 C3568 1.524 . S
C3568 C3567 1.524 . S
C3568 C3569 1.397 . S
C3568 C3573 1.363 . S
C3569 H3540 0.950 . S
C3569 C3568 1.397 . S
C3569 C3570 1.334 . S
C3570 H3541 0.950 . S
C3570 C3569 1.334 . S
C3570 C3571 1.287 . S
C3571 C3570 1.287 . S
C3571 C3572 1.524 . S
C3571 H3574 0.999 . S
C3572 H3542 0.950 . S
C3572 C3571 1.524 . S
C3572 C3573 1.415 . S
C3573 H3543 0.950 . S
C3573 C3568 1.363 . S
C3573 C3572 1.415 . S
H3574 C3571 0.999 . S
H3575 C3556 0.913 . S
H3576 C3594 0.951 . S
H3577 C3596 0.951 . S
H3578 C3598 0.950 . S
H3579 C3599 0.950 . S
H3580 C3601 0.950 . S
H3581 C3604 0.950 . S
H3582 C3605 0.950 . S
H3583 C3607 0.950 . S
H3584 C3608 0.950 . S
H3585 C3609 0.951 . S
H3586 C3611 0.951 . S
H3587 C3613 0.950 . S
H3588 C3614 0.950 . S
H3589 C3616 0.950 . S
H3590 C3619 0.950 . S
H3591 C3620 0.950 . S
H3592 C3622 0.950 . S
H3593 C3623 0.950 . S
C3594 H3576 0.951 . S
C3594 C3595 1.366 . S
C3594 C3596 1.388 . S
C3595 C3594 1.366 . S
C3595 C3599 1.385 . S
C3596 H3577 0.951 . S
C3596 C3594 1.388 . S
C3596 C3597 1.366 . S
C3597 C3596 1.366 . S
C3597 C3598 1.414 . S
C3597 C3600 1.499 . S
C3598 H3578 0.950 . S
C3598 C3597 1.414 . S
C3598 C3599 1.374 . S
C3599 H3579 0.950 . S
C3599 C3595 1.385 . S
C3599 C3598 1.374 . S
C3600 C3597 1.499 . S
C3600 C3601 1.373 . S
C3600 C3602 1.389 . S
C3601 H3580 0.950 . S
C3601 C3600 1.373 . S
C3601 C3617 1.377 . S
C3602 C3600 1.389 . S
C3602 C3603 1.524 . S
C3602 C3616 1.377 . S
C3603 C3602 1.524 . S
C3603 C3604 1.397 . S
C3603 C3608 1.363 . S
C3604 H3581 0.950 . S
C3604 C3603 1.397 . S
C3604 C3605 1.334 . S
C3605 H3582 0.950 . S
C3605 C3604 1.334 . S
C3605 C3606 1.287 . S
C3606 C3605 1.287 . S
C3606 C3607 1.524 . S
C3606 H3625 0.913 . S
C3607 H3583 0.950 . S
C3607 C3606 1.524 . S
C3607 C3608 1.415 . S
C3608 H3584 0.950 . S
C3608 C3603 1.363 . S
C3608 C3607 1.415 . S
C3609 H3585 0.951 . S
C3609 C3610 1.366 . S
C3609 C3611 1.388 . S
C3610 C3609 1.366 . S
C3610 C3614 1.385 . S
C3611 H3586 0.951 . S
C3611 C3609 1.388 . S
C3611 C3612 1.366 . S
C3612 C3611 1.366 . S
C3612 C3613 1.414 . S
C3612 C3615 1.499 . S
C3613 H3587 0.950 . S
C3613 C3612 1.414 . S
C3613 C3614 1.374 . S
C3614 H3588 0.950 . S
C3614 C3610 1.385 . S
C3614 C3613 1.374 . S
C3615 C3612 1.499 . S
C3615 C3616 1.373 . S
C3615 C3617 1.389 . S
C3616 H3589 0.950 . S
C3616 C3602 1.377 . S
C3616 C3615 1.373 . S
C3617 C3601 1.377 . S
C3617 C3615 1.389 . S
C3617 C3618 1.524 . S
C3618 C3617 1.524 . S
C3618 C3619 1.397 . S
C3618 C3623 1.363 . S
C3619 H3590 0.950 . S
C3619 C3618 1.397 . S
C3619 C3620 1.334 . S
C3620 H3591 0.950 . S
C3620 C3619 1.334 . S
C3620 C3621 1.287 . S
C3621 C3620 1.287 . S
C3621 C3622 1.524 . S
C3621 H3624 0.999 . S
C3622 H3592 0.950 . S
C3622 C3621 1.524 . S
C3622 C3623 1.415 . S
C3623 H3593 0.950 . S
C3623 C3618 1.363 . S
C3623 C3622 1.415 . S
H3624 C3621 0.999 . S
H3625 C3606 0.913 . S
H3626 C3644 0.951 . S
H3627 C3646 0.951 . S
H3628 C3648 0.950 . S
H3629 C3649 0.950 . S
H3630 C3651 0.950 . S
H3631 C3654 0.950 . S
H3632 C3655 0.950 . S
H3633 C3657 0.950 . S
H3634 C3658 0.950 . S
H3635 C3659 0.951 . S
H3636 C3661 0.951 . S
H3637 C3663 0.950 . S
H3638 C3664 0.950 . S
H3639 C3666 0.950 . S
H3640 C3669 0.950 . S
H3641 C3670 0.950 . S
H3642 C3672 0.950 . S
H3643 C3673 0.950 . S
C3644 H3626 0.951 . S
C3644 C3645 1.366 . S
C3644 C3646 1.388 . S
C3645 C3644 1.366 . S
C3645 C3649 1.385 . S
C3646 H3627 0.951 . S
C3646 C3644 1.388 . S
C3646 C3647 1.366 . S
C3647 C3646 1.366 . S
C3647 C3648 1.414 . S
C3647 C3650 1.499 . S
C3648 H3628 0.950 . S
C3648 C3647 1.414 . S
C3648 C3649 1.374 . S
C3649 H3629 0.950 . S
C3649 C3645 1.385 . S
C3649 C3648 1.374 . S
C3650 C3647 1.499 . S
C3650 C3651 1.373 . S
C3650 C3652 1.389 . S
C3651 H3630 0.950 . S
C3651 C3650 1.373 . S
C3651 C3667 1.377 . S
C3652 C3650 1.389 . S
C3652 C3653 1.524 . S
C3652 C3666 1.377 . S
C3653 C3652 1.524 . S
C3653 C3654 1.397 . S
C3653 C3658 1.363 . S
C3654 H3631 0.950 . S
C3654 C3653 1.397 . S
C3654 C3655 1.334 . S
C3655 H3632 0.950 . S
C3655 C3654 1.334 . S
C3655 C3656 1.287 . S
C3656 C3655 1.287 . S
C3656 C3657 1.524 . S
C3656 H3675 0.913 . S
C3657 H3633 0.950 . S
C3657 C3656 1.524 . S
C3657 C3658 1.415 . S
C3658 H3634 0.950 . S
C3658 C3653 1.363 . S
C3658 C3657 1.415 . S
C3659 H3635 0.951 . S
C3659 C3660 1.366 . S
C3659 C3661 1.388 . S
C3660 C3659 1.366 . S
C3660 C3664 1.385 . S
C3661 H3636 0.951 . S
C3661 C3659 1.388 . S
C3661 C3662 1.366 . S
C3662 C3661 1.366 . S
C3662 C3663 1.414 . S
C3662 C3665 1.499 . S
C3663 H3637 0.950 . S
C3663 C3662 1.414 . S
C3663 C3664 1.374 . S
C3664 H3638 0.950 . S
C3664 C3660 1.385 . S
C3664 C3663 1.374 . S
C3665 C3662 1.499 . S
C3665 C3666 1.373 . S
C3665 C3667 1.389 . S
C3666 H3639 0.950 . S
C3666 C3652 1.377 . S
C3666 C3665 1.373 . S
C3667 C3651 1.377 . S
C3667 C3665 1.389 . S
C3667 C3668 1.524 . S
C3668 C3667 1.524 . S
C3668 C3669 1.397 . S
C3668 C3673 1.363 . S
C3669 H3640 0.950 . S
C3669 C3668 1.397 . S
C3669 C3670 1.334 . S
C3670 H3641 0.950 . S
C3670 C3669 1.334 . S
C3670 C3671 1.287 . S
C3671 C3670 1.287 . S
C3671 C3672 1.524 . S
C3671 H3674 0.999 . S
C3672 H3642 0.950 . S
C3672 C3671 1.524 . S
C3672 C3673 1.415 . S
C3673 H3643 0.950 . S
C3673 C3668 1.363 . S
C3673 C3672 1.415 . S
H3674 C3671 0.999 . S
H3675 C3656 0.913 . S
H3676 C3694 0.951 . S
H3677 C3696 0.951 . S
H3678 C3698 0.950 . S
H3679 C3699 0.950 . S
H3680 C3701 0.950 . S
H3681 C3704 0.950 . S
H3682 C3705 0.950 . S
H3683 C3707 0.950 . S
H3684 C3708 0.950 . S
H3685 C3709 0.951 . S
H3686 C3711 0.951 . S
H3687 C3713 0.950 . S
H3688 C3714 0.950 . S
H3689 C3716 0.950 . S
H3690 C3719 0.950 . S
H3691 C3720 0.950 . S
H3692 C3722 0.950 . S
H3693 C3723 0.950 . S
C3694 H3676 0.951 . S
C3694 C3695 1.366 . S
C3694 C3696 1.388 . S
C3695 C3694 1.366 . S
C3695 C3699 1.385 . S
C3696 H3677 0.951 . S
C3696 C3694 1.388 . S
C3696 C3697 1.366 . S
C3697 C3696 1.366 . S
C3697 C3698 1.414 . S
C3697 C3700 1.499 . S
C3698 H3678 0.950 . S
C3698 C3697 1.414 . S
C3698 C3699 1.374 . S
C3699 H3679 0.950 . S
C3699 C3695 1.385 . S
C3699 C3698 1.374 . S
C3700 C3697 1.499 . S
C3700 C3701 1.373 1_455 S
C3700 C3702 1.389 . S
C3701 H3680 0.950 . S
C3701 C3700 1.373 1_655 S
C3701 C3717 1.377 . S
C3702 C3700 1.389 . S
C3702 C3703 1.524 . S
C3702 C3716 1.377 . S
C3703 C3702 1.524 . S
C3703 C3704 1.397 . S
C3703 C3708 1.363 . S
C3704 H3681 0.950 . S
C3704 C3703 1.397 . S
C3704 C3705 1.334 . S
C3705 H3682 0.950 . S
C3705 C3704 1.334 . S
C3705 C3706 1.287 . S
C3706 C3705 1.287 . S
C3706 C3707 1.524 . S
C3706 H3725 0.913 . S
C3707 H3683 0.950 . S
C3707 C3706 1.524 . S
C3707 C3708 1.415 . S
C3708 H3684 0.950 . S
C3708 C3703 1.363 . S
C3708 C3707 1.415 . S
C3709 H3685 0.951 . S
C3709 C3710 1.366 . S
C3709 C3711 1.388 . S
C3710 C3709 1.366 . S
C3710 C3714 1.385 . S
C3711 H3686 0.951 . S
C3711 C3709 1.388 . S
C3711 C3712 1.366 . S
C3712 C3711 1.366 . S
C3712 C3713 1.414 . S
C3712 C3715 1.499 . S
C3713 H3687 0.950 . S
C3713 C3712 1.414 . S
C3713 C3714 1.374 . S
C3714 H3688 0.950 . S
C3714 C3710 1.385 . S
C3714 C3713 1.374 . S
C3715 C3712 1.499 . S
C3715 C3716 1.373 . S
C3715 C3717 1.389 1_455 S
C3716 H3689 0.950 . S
C3716 C3702 1.377 . S
C3716 C3715 1.373 . S
C3717 C3701 1.377 . S
C3717 C3715 1.389 1_655 S
C3717 C3718 1.524 . S
C3718 C3717 1.524 . S
C3718 C3719 1.397 . S
C3718 C3723 1.363 . S
C3719 H3690 0.950 . S
C3719 C3718 1.397 . S
C3719 C3720 1.334 . S
C3720 H3691 0.950 . S
C3720 C3719 1.334 . S
C3720 C3721 1.287 . S
C3721 C3720 1.287 . S
C3721 C3722 1.524 . S
C3721 H3724 0.999 . S
C3722 H3692 0.950 . S
C3722 C3721 1.524 . S
C3722 C3723 1.415 . S
C3723 H3693 0.950 . S
C3723 C3718 1.363 . S
C3723 C3722 1.415 . S
H3724 C3721 0.999 . S
H3725 C3706 0.913 . S
H3726 C3744 0.951 . S
H3727 C3746 0.951 . S
H3728 C3748 0.950 . S
H3729 C3749 0.950 . S
H3730 C3751 0.950 . S
H3731 C3754 0.950 . S
H3732 C3755 0.950 . S
H3733 C3757 0.950 . S
H3734 C3758 0.950 . S
H3735 C3759 0.951 . S
H3736 C3761 0.951 . S
H3737 C3763 0.950 . S
H3738 C3764 0.950 . S
H3739 C3766 0.950 . S
H3740 C3769 0.950 . S
H3741 C3770 0.950 . S
H3742 C3772 0.950 . S
H3743 C3773 0.950 . S
C3744 H3726 0.951 . S
C3744 C3745 1.366 . S
C3744 C3746 1.388 . S
C3745 C3744 1.366 . S
C3745 C3749 1.385 . S
C3746 H3727 0.951 . S
C3746 C3744 1.388 . S
C3746 C3747 1.366 . S
C3747 C3746 1.366 . S
C3747 C3748 1.414 . S
C3747 C3750 1.499 . S
C3748 H3728 0.950 . S
C3748 C3747 1.414 . S
C3748 C3749 1.374 . S
C3749 H3729 0.950 . S
C3749 C3745 1.385 . S
C3749 C3748 1.374 . S
C3750 C3747 1.499 . S
C3750 C3751 1.373 . S
C3750 C3752 1.389 . S
C3751 H3730 0.950 . S
C3751 C3750 1.373 . S
C3751 C3767 1.377 . S
C3752 C3750 1.389 . S
C3752 C3753 1.524 . S
C3752 C3766 1.377 . S
C3753 C3752 1.524 . S
C3753 C3754 1.397 . S
C3753 C3758 1.363 . S
C3754 H3731 0.950 . S
C3754 C3753 1.397 . S
C3754 C3755 1.334 . S
C3755 H3732 0.950 . S
C3755 C3754 1.334 . S
C3755 C3756 1.287 . S
C3756 C3755 1.287 . S
C3756 C3757 1.524 . S
C3756 H3775 0.913 . S
C3757 H3733 0.950 . S
C3757 C3756 1.524 . S
C3757 C3758 1.415 . S
C3758 H3734 0.950 . S
C3758 C3753 1.363 . S
C3758 C3757 1.415 . S
C3759 H3735 0.951 . S
C3759 C3760 1.366 . S
C3759 C3761 1.388 . S
C3760 C3759 1.366 . S
C3760 C3764 1.385 . S
C3761 H3736 0.951 . S
C3761 C3759 1.388 . S
C3761 C3762 1.366 . S
C3762 C3761 1.366 . S
C3762 C3763 1.414 . S
C3762 C3765 1.499 . S
C3763 H3737 0.950 . S
C3763 C3762 1.414 . S
C3763 C3764 1.374 . S
C3764 H3738 0.950 . S
C3764 C3760 1.385 . S
C3764 C3763 1.374 . S
C3765 C3762 1.499 . S
C3765 C3766 1.373 . S
C3765 C3767 1.389 . S
C3766 H3739 0.950 . S
C3766 C3752 1.377 . S
C3766 C3765 1.373 . S
C3767 C3751 1.377 . S
C3767 C3765 1.389 . S
C3767 C3768 1.524 . S
C3768 C3767 1.524 . S
C3768 C3769 1.397 . S
C3768 C3773 1.363 . S
C3769 H3740 0.950 . S
C3769 C3768 1.397 . S
C3769 C3770 1.334 . S
C3770 H3741 0.950 . S
C3770 C3769 1.334 . S
C3770 C3771 1.287 . S
C3771 C3770 1.287 . S
C3771 C3772 1.524 . S
C3771 H3774 0.999 . S
C3772 H3742 0.950 . S
C3772 C3771 1.524 . S
C3772 C3773 1.415 . S
C3773 H3743 0.950 . S
C3773 C3768 1.363 . S
C3773 C3772 1.415 . S
H3774 C3771 0.999 . S
H3775 C3756 0.913 . S
H3776 C3794 0.951 . S
H3777 C3796 0.951 . S
H3778 C3798 0.950 . S
H3779 C3799 0.950 . S
H3780 C3801 0.950 . S
H3781 C3804 0.950 . S
H3782 C3805 0.950 . S
H3783 C3807 0.950 . S
H3784 C3808 0.950 . S
H3785 C3809 0.951 . S
H3786 C3811 0.951 . S
H3787 C3813 0.950 . S
H3788 C3814 0.950 . S
H3789 C3816 0.950 . S
H3790 C3819 0.950 . S
H3791 C3820 0.950 . S
H3792 C3822 0.950 . S
H3793 C3823 0.950 . S
C3794 H3776 0.951 . S
C3794 C3795 1.366 . S
C3794 C3796 1.388 . S
C3795 C3794 1.366 . S
C3795 C3799 1.385 . S
C3796 H3777 0.951 . S
C3796 C3794 1.388 . S
C3796 C3797 1.366 . S
C3797 C3796 1.366 . S
C3797 C3798 1.414 . S
C3797 C3800 1.499 . S
C3798 H3778 0.950 . S
C3798 C3797 1.414 . S
C3798 C3799 1.374 . S
C3799 H3779 0.950 . S
C3799 C3795 1.385 . S
C3799 C3798 1.374 . S
C3800 C3797 1.499 . S
C3800 C3801 1.373 . S
C3800 C3802 1.389 . S
C3801 H3780 0.950 . S
C3801 C3800 1.373 . S
C3801 C3817 1.377 . S
C3802 C3800 1.389 . S
C3802 C3803 1.524 . S
C3802 C3816 1.377 . S
C3803 C3802 1.524 . S
C3803 C3804 1.397 . S
C3803 C3808 1.363 . S
C3804 H3781 0.950 . S
C3804 C3803 1.397 . S
C3804 C3805 1.334 . S
C3805 H3782 0.950 . S
C3805 C3804 1.334 . S
C3805 C3806 1.287 . S
C3806 C3805 1.287 . S
C3806 C3807 1.524 . S
C3806 H3825 0.913 . S
C3807 H3783 0.950 . S
C3807 C3806 1.524 . S
C3807 C3808 1.415 . S
C3808 H3784 0.950 . S
C3808 C3803 1.363 . S
C3808 C3807 1.415 . S
C3809 H3785 0.951 . S
C3809 C3810 1.366 . S
C3809 C3811 1.388 . S
C3810 C3809 1.366 . S
C3810 C3814 1.385 . S
C3811 H3786 0.951 . S
C3811 C3809 1.388 . S
C3811 C3812 1.366 . S
C3812 C3811 1.366 . S
C3812 C3813 1.414 . S
C3812 C3815 1.499 . S
C3813 H3787 0.950 . S
C3813 C3812 1.414 . S
C3813 C3814 1.374 . S
C3814 H3788 0.950 . S
C3814 C3810 1.385 . S
C3814 C3813 1.374 . S
C3815 C3812 1.499 . S
C3815 C3816 1.373 . S
C3815 C3817 1.389 . S
C3816 H3789 0.950 . S
C3816 C3802 1.377 . S
C3816 C3815 1.373 . S
C3817 C3801 1.377 . S
C3817 C3815 1.389 . S
C3817 C3818 1.524 . S
C3818 C3817 1.524 . S
C3818 C3819 1.397 . S
C3818 C3823 1.363 . S
C3819 H3790 0.950 . S
C3819 C3818 1.397 . S
C3819 C3820 1.334 . S
C3820 H3791 0.950 . S
C3820 C3819 1.334 . S
C3820 C3821 1.287 . S
C3821 C3820 1.287 . S
C3821 C3822 1.524 . S
C3821 H3824 0.999 . S
C3822 H3792 0.950 . S
C3822 C3821 1.524 . S
C3822 C3823 1.415 . S
C3823 H3793 0.950 . S
C3823 C3818 1.363 . S
C3823 C3822 1.415 . S
H3824 C3821 0.999 . S
H3825 C3806 0.913 . S
H3826 C3844 0.951 . S
H3827 C3846 0.959 . S
H3828 C3848 0.950 . S
H3829 C3849 0.950 . S
H3830 C3851 0.950 . S
H3831 C3854 0.950 . S
H3832 C3855 0.950 . S
H3833 C3857 0.950 . S
H3834 C3858 0.950 . S
H3835 C3859 0.951 . S
H3836 C3861 0.951 . S
H3837 C3863 0.950 . S
H3838 C3864 0.950 . S
H3839 C3866 0.950 . S
H3840 C3869 0.950 . S
H3841 C3870 0.950 . S
H3842 C3872 0.950 . S
H3843 C3873 0.950 . S
C3844 H3826 0.951 . S
C3844 C3845 1.366 . S
C3844 C3846 1.388 1_554 S
C3845 C3844 1.366 . S
C3845 C3849 1.385 1_554 S
C3846 H3827 0.959 . S
C3846 C3844 1.388 1_556 S
C3846 C3847 1.366 . S
C3847 C3846 1.366 . S
C3847 C3848 1.414 . S
C3847 C3850 1.499 . S
C3848 H3828 0.950 . S
C3848 C3847 1.414 . S
C3848 C3849 1.374 . S
C3849 H3829 0.950 . S
C3849 C3845 1.385 1_556 S
C3849 C3848 1.374 . S
C3850 C3847 1.499 . S
C3850 C3851 1.373 . S
C3850 C3852 1.389 . S
C3851 H3830 0.950 . S
C3851 C3850 1.373 . S
C3851 C3867 1.377 . S
C3852 C3850 1.389 . S
C3852 C3853 1.524 . S
C3852 C3866 1.377 . S
C3853 C3852 1.524 . S
C3853 C3854 1.397 . S
C3853 C3858 1.363 . S
C3854 H3831 0.950 . S
C3854 C3853 1.397 . S
C3854 C3855 1.334 . S
C3855 H3832 0.950 . S
C3855 C3854 1.334 . S
C3855 C3856 1.287 . S
C3856 C3855 1.287 . S
C3856 C3857 1.524 . S
C3856 H3875 0.913 . S
C3857 H3833 0.950 . S
C3857 C3856 1.524 . S
C3857 C3858 1.415 . S
C3858 H3834 0.950 . S
C3858 C3853 1.363 . S
C3858 C3857 1.415 . S
C3859 H3835 0.951 . S
C3859 C3860 1.366 . S
C3859 C3861 1.388 . S
C3860 C3859 1.366 . S
C3860 C3864 1.385 . S
C3861 H3836 0.951 . S
C3861 C3859 1.388 . S
C3861 C3862 1.366 . S
C3862 C3861 1.366 . S
C3862 C3863 1.414 . S
C3862 C3865 1.499 . S
C3863 H3837 0.950 . S
C3863 C3862 1.414 . S
C3863 C3864 1.374 . S
C3864 H3838 0.950 . S
C3864 C3860 1.385 . S
C3864 C3863 1.374 . S
C3865 C3862 1.499 . S
C3865 C3866 1.373 . S
C3865 C3867 1.389 . S
C3866 H3839 0.950 . S
C3866 C3852 1.377 . S
C3866 C3865 1.373 . S
C3867 C3851 1.377 . S
C3867 C3865 1.389 . S
C3867 C3868 1.524 . S
C3868 C3867 1.524 . S
C3868 C3869 1.397 . S
C3868 C3873 1.363 . S
C3869 H3840 0.950 . S
C3869 C3868 1.397 . S
C3869 C3870 1.334 . S
C3870 H3841 0.950 . S
C3870 C3869 1.334 . S
C3870 C3871 1.287 . S
C3871 C3870 1.287 . S
C3871 C3872 1.524 . S
C3871 H3874 0.999 . S
C3872 H3842 0.950 . S
C3872 C3871 1.524 . S
C3872 C3873 1.415 . S
C3873 H3843 0.950 . S
C3873 C3868 1.363 . S
C3873 C3872 1.415 . S
H3874 C3871 0.999 . S
H3875 C3856 0.913 . S
H3876 C3894 0.951 . S
H3877 C3896 0.951 . S
H3878 C3898 0.950 . S
H3879 C3899 0.950 . S
H3880 C3901 0.950 . S
H3881 C3904 0.950 . S
H3882 C3905 0.950 . S
H3883 C3907 0.950 . S
H3884 C3908 0.950 . S
H3885 C3909 0.951 . S
H3886 C3911 0.951 . S
H3887 C3913 0.950 . S
H3888 C3914 0.950 . S
H3889 C3916 0.950 . S
H3890 C3919 0.950 . S
H3891 C3920 0.950 . S
H3892 C3922 0.950 . S
H3893 C3923 0.950 . S
C3894 H3876 0.951 . S
C3894 C3895 1.366 . S
C3894 C3896 1.388 . S
C3895 C3894 1.366 . S
C3895 C3899 1.385 . S
C3896 H3877 0.951 . S
C3896 C3894 1.388 . S
C3896 C3897 1.366 . S
C3897 C3896 1.366 . S
C3897 C3898 1.414 . S
C3897 C3900 1.499 . S
C3898 H3878 0.950 . S
C3898 C3897 1.414 . S
C3898 C3899 1.374 . S
C3899 H3879 0.950 . S
C3899 C3895 1.385 . S
C3899 C3898 1.374 . S
C3900 C3897 1.499 . S
C3900 C3901 1.373 . S
C3900 C3902 1.389 . S
C3901 H3880 0.950 . S
C3901 C3900 1.373 . S
C3901 C3917 1.377 . S
C3902 C3900 1.389 . S
C3902 C3903 1.524 . S
C3902 C3916 1.377 . S
C3903 C3902 1.524 . S
C3903 C3904 1.397 . S
C3903 C3908 1.363 . S
C3904 H3881 0.950 . S
C3904 C3903 1.397 . S
C3904 C3905 1.334 . S
C3905 H3882 0.950 . S
C3905 C3904 1.334 . S
C3905 C3906 1.287 . S
C3906 C3905 1.287 . S
C3906 C3907 1.524 . S
C3906 H3925 0.913 . S
C3907 H3883 0.950 . S
C3907 C3906 1.524 . S
C3907 C3908 1.415 . S
C3908 H3884 0.950 . S
C3908 C3903 1.363 . S
C3908 C3907 1.415 . S
C3909 H3885 0.951 . S
C3909 C3910 1.366 . S
C3909 C3911 1.388 . S
C3910 C3909 1.366 . S
C3910 C3914 1.385 . S
C3911 H3886 0.951 . S
C3911 C3909 1.388 . S
C3911 C3912 1.366 . S
C3912 C3911 1.366 . S
C3912 C3913 1.414 . S
C3912 C3915 1.499 . S
C3913 H3887 0.950 . S
C3913 C3912 1.414 . S
C3913 C3914 1.374 . S
C3914 H3888 0.950 . S
C3914 C3910 1.385 . S
C3914 C3913 1.374 . S
C3915 C3912 1.499 . S
C3915 C3916 1.373 . S
C3915 C3917 1.389 . S
C3916 H3889 0.950 . S
C3916 C3902 1.377 . S
C3916 C3915 1.373 . S
C3917 C3901 1.377 . S
C3917 C3915 1.389 . S
C3917 C3918 1.524 . S
C3918 C3917 1.524 . S
C3918 C3919 1.397 . S
C3918 C3923 1.363 . S
C3919 H3890 0.950 . S
C3919 C3918 1.397 . S
C3919 C3920 1.334 . S
C3920 H3891 0.950 . S
C3920 C3919 1.334 . S
C3920 C3921 1.287 . S
C3921 C3920 1.287 . S
C3921 C3922 1.524 . S
C3921 H3924 0.999 . S
C3922 H3892 0.950 . S
C3922 C3921 1.524 . S
C3922 C3923 1.415 . S
C3923 H3893 0.950 . S
C3923 C3918 1.363 . S
C3923 C3922 1.415 . S
H3924 C3921 0.999 . S
H3925 C3906 0.913 . S
H3926 C3944 0.951 . S
H3927 C3946 0.951 . S
H3928 C3948 0.950 . S
H3929 C3949 0.950 . S
H3930 C3951 0.950 . S
H3931 C3954 0.950 . S
H3932 C3955 0.950 . S
H3933 C3957 0.950 . S
H3934 C3958 0.950 . S
H3935 C3959 0.951 . S
H3936 C3961 0.951 . S
H3937 C3963 0.950 . S
H3938 C3964 0.950 . S
H3939 C3966 0.950 . S
H3940 C3969 0.950 . S
H3941 C3970 0.950 . S
H3942 C3972 0.950 . S
H3943 C3973 0.950 . S
C3944 H3926 0.951 . S
C3944 C3945 1.366 . S
C3944 C3946 1.388 . S
C3945 C3944 1.366 . S
C3945 C3949 1.385 . S
C3946 H3927 0.951 . S
C3946 C3944 1.388 . S
C3946 C3947 1.366 . S
C3947 C3946 1.366 . S
C3947 C3948 1.414 . S
C3947 C3950 1.499 . S
C3948 H3928 0.950 . S
C3948 C3947 1.414 . S
C3948 C3949 1.374 . S
C3949 H3929 0.950 . S
C3949 C3945 1.385 . S
C3949 C3948 1.374 . S
C3950 C3947 1.499 . S
C3950 C3951 1.373 . S
C3950 C3952 1.389 . S
C3951 H3930 0.950 . S
C3951 C3950 1.373 . S
C3951 C3967 1.377 . S
C3952 C3950 1.389 . S
C3952 C3953 1.524 . S
C3952 C3966 1.377 . S
C3953 C3952 1.524 . S
C3953 C3954 1.397 . S
C3953 C3958 1.363 . S
C3954 H3931 0.950 . S
C3954 C3953 1.397 . S
C3954 C3955 1.334 . S
C3955 H3932 0.950 . S
C3955 C3954 1.334 . S
C3955 C3956 1.287 . S
C3956 C3955 1.287 . S
C3956 C3957 1.524 . S
C3956 H3975 0.913 . S
C3957 H3933 0.950 . S
C3957 C3956 1.524 . S
C3957 C3958 1.415 . S
C3958 H3934 0.950 . S
C3958 C3953 1.363 . S
C3958 C3957 1.415 . S
C3959 H3935 0.951 . S
C3959 C3960 1.366 . S
C3959 C3961 1.388 . S
C3960 C3959 1.366 . S
C3960 C3964 1.385 . S
C3961 H3936 0.951 . S
C3961 C3959 1.388 . S
C3961 C3962 1.366 . S
C3962 C3961 1.366 . S
C3962 C3963 1.414 . S
C3962 C3965 1.499 . S
C3963 H3937 0.950 . S
C3963 C3962 1.414 . S
C3963 C3964 1.374 . S
C3964 H3938 0.950 . S
C3964 C3960 1.385 . S
C3964 C3963 1.374 . S
C3965 C3962 1.499 . S
C3965 C3966 1.373 . S
C3965 C3967 1.389 . S
C3966 H3939 0.950 . S
C3966 C3952 1.377 . S
C3966 C3965 1.373 . S
C3967 C3951 1.377 . S
C3967 C3965 1.389 . S
C3967 C3968 1.524 . S
C3968 C3967 1.524 . S
C3968 C3969 1.397 . S
C3968 C3973 1.363 . S
C3969 H3940 0.950 . S
C3969 C3968 1.397 . S
C3969 C3970 1.334 . S
C3970 H3941 0.950 . S
C3970 C3969 1.334 . S
C3970 C3971 1.287 . S
C3971 C3970 1.287 . S
C3971 C3972 1.524 . S
C3971 H3974 0.999 . S
C3972 H3942 0.950 . S
C3972 C3971 1.524 . S
C3972 C3973 1.415 . S
C3973 H3943 0.950 . S
C3973 C3968 1.363 . S
C3973 C3972 1.415 . S
H3974 C3971 0.999 . S
H3975 C3956 0.913 . S
H3976 C3994 0.951 . S
H3977 C3996 0.951 . S
H3978 C3998 0.950 . S
H3979 C3999 0.950 . S
H3980 C4001 0.950 . S
H3981 C4004 0.950 . S
H3982 C4005 0.950 . S
H3983 C4007 0.950 . S
H3984 C4008 0.950 . S
H3985 C4009 0.951 . S
H3986 C4011 0.951 . S
H3987 C4013 0.950 . S
H3988 C4014 0.950 . S
H3989 C4016 0.950 . S
H3990 C4019 0.950 . S
H3991 C4020 0.950 . S
H3992 C4022 0.950 . S
H3993 C4023 0.950 . S
C3994 H3976 0.951 . S
C3994 C3995 1.366 . S
C3994 C3996 1.388 . S
C3995 C3994 1.366 . S
C3995 C3999 1.385 . S
C3996 H3977 0.951 . S
C3996 C3994 1.388 . S
C3996 C3997 1.366 . S
C3997 C3996 1.366 . S
C3997 C3998 1.414 . S
C3997 C4000 1.499 . S
C3998 H3978 0.950 . S
C3998 C3997 1.414 . S
C3998 C3999 1.374 . S
C3999 H3979 0.950 . S
C3999 C3995 1.385 . S
C3999 C3998 1.374 . S
C4000 C3997 1.499 . S
C4000 C4001 1.373 . S
C4000 C4002 1.389 . S
C4001 H3980 0.950 . S
C4001 C4000 1.373 . S
C4001 C4017 1.377 . S
C4002 C4000 1.389 . S
C4002 C4003 1.524 . S
C4002 C4016 1.377 . S
C4003 C4002 1.524 . S
C4003 C4004 1.397 . S
C4003 C4008 1.363 . S
C4004 H3981 0.950 . S
C4004 C4003 1.397 . S
C4004 C4005 1.334 . S
C4005 H3982 0.950 . S
C4005 C4004 1.334 . S
C4005 C4006 1.287 . S
C4006 C4005 1.287 . S
C4006 C4007 1.524 . S
C4006 H4025 0.913 . S
C4007 H3983 0.950 . S
C4007 C4006 1.524 . S
C4007 C4008 1.415 . S
C4008 H3984 0.950 . S
C4008 C4003 1.363 . S
C4008 C4007 1.415 . S
C4009 H3985 0.951 . S
C4009 C4010 1.366 . S
C4009 C4011 1.388 . S
C4010 C4009 1.366 . S
C4010 C4014 1.385 . S
C4011 H3986 0.951 . S
C4011 C4009 1.388 . S
C4011 C4012 1.366 . S
C4012 C4011 1.366 . S
C4012 C4013 1.414 . S
C4012 C4015 1.499 . S
C4013 H3987 0.950 . S
C4013 C4012 1.414 . S
C4013 C4014 1.374 . S
C4014 H3988 0.950 . S
C4014 C4010 1.385 . S
C4014 C4013 1.374 . S
C4015 C4012 1.499 . S
C4015 C4016 1.373 . S
C4015 C4017 1.389 . S
C4016 H3989 0.950 . S
C4016 C4002 1.377 . S
C4016 C4015 1.373 . S
C4017 C4001 1.377 . S
C4017 C4015 1.389 . S
C4017 C4018 1.524 . S
C4018 C4017 1.524 . S
C4018 C4019 1.397 . S
C4018 C4023 1.363 . S
C4019 H3990 0.950 . S
C4019 C4018 1.397 . S
C4019 C4020 1.334 . S
C4020 H3991 0.950 . S
C4020 C4019 1.334 . S
C4020 C4021 1.287 . S
C4021 C4020 1.287 . S
C4021 C4022 1.524 . S
C4021 H4024 0.999 . S
C4022 H3992 0.950 . S
C4022 C4021 1.524 . S
C4022 C4023 1.415 . S
C4023 H3993 0.950 . S
C4023 C4018 1.363 . S
C4023 C4022 1.415 . S
H4024 C4021 0.999 . S
H4025 C4006 0.913 . S
H4026 C4044 0.951 . S
H4027 C4046 0.951 . S
H4028 C4048 0.950 . S
H4029 C4049 0.950 . S
H4030 C4051 0.950 . S
H4031 C4054 0.950 . S
H4032 C4055 0.950 . S
H4033 C4057 0.950 . S
H4034 C4058 0.950 . S
H4035 C4059 0.951 . S
H4036 C4061 0.951 . S
H4037 C4063 0.950 . S
H4038 C4064 0.950 . S
H4039 C4066 0.950 . S
H4040 C4069 0.950 . S
H4041 C4070 0.950 . S
H4042 C4072 0.950 . S
H4043 C4073 0.950 . S
C4044 H4026 0.951 . S
C4044 C4045 1.366 . S
C4044 C4046 1.388 . S
C4045 C4044 1.366 . S
C4045 C4049 1.385 . S
C4046 H4027 0.951 . S
C4046 C4044 1.388 . S
C4046 C4047 1.366 . S
C4047 C4046 1.366 . S
C4047 C4048 1.414 . S
C4047 C4050 1.499 . S
C4048 H4028 0.950 . S
C4048 C4047 1.414 . S
C4048 C4049 1.374 . S
C4049 H4029 0.950 . S
C4049 C4045 1.385 . S
C4049 C4048 1.374 . S
C4050 C4047 1.499 . S
C4050 C4051 1.373 . S
C4050 C4052 1.389 . S
C4051 H4030 0.950 . S
C4051 C4050 1.373 . S
C4051 C4067 1.377 . S
C4052 C4050 1.389 . S
C4052 C4053 1.524 . S
C4052 C4066 1.377 . S
C4053 C4052 1.524 . S
C4053 C4054 1.397 . S
C4053 C4058 1.363 . S
C4054 H4031 0.950 . S
C4054 C4053 1.397 . S
C4054 C4055 1.334 . S
C4055 H4032 0.950 . S
C4055 C4054 1.334 . S
C4055 C4056 1.287 . S
C4056 C4055 1.287 . S
C4056 C4057 1.524 . S
C4056 H4075 0.913 . S
C4057 H4033 0.950 . S
C4057 C4056 1.524 . S
C4057 C4058 1.415 . S
C4058 H4034 0.950 . S
C4058 C4053 1.363 . S
C4058 C4057 1.415 . S
C4059 H4035 0.951 . S
C4059 C4060 1.366 . S
C4059 C4061 1.388 . S
C4060 C4059 1.366 . S
C4060 C4064 1.385 . S
C4061 H4036 0.951 . S
C4061 C4059 1.388 . S
C4061 C4062 1.366 . S
C4062 C4061 1.366 . S
C4062 C4063 1.414 . S
C4062 C4065 1.499 . S
C4063 H4037 0.950 . S
C4063 C4062 1.414 . S
C4063 C4064 1.374 . S
C4064 H4038 0.950 . S
C4064 C4060 1.385 . S
C4064 C4063 1.374 . S
C4065 C4062 1.499 . S
C4065 C4066 1.373 . S
C4065 C4067 1.389 . S
C4066 H4039 0.950 . S
C4066 C4052 1.377 . S
C4066 C4065 1.373 . S
C4067 C4051 1.377 . S
C4067 C4065 1.389 . S
C4067 C4068 1.524 . S
C4068 C4067 1.524 . S
C4068 C4069 1.397 . S
C4068 C4073 1.363 . S
C4069 H4040 0.950 . S
C4069 C4068 1.397 . S
C4069 C4070 1.334 . S
C4070 H4041 0.950 . S
C4070 C4069 1.334 . S
C4070 C4071 1.287 . S
C4071 C4070 1.287 . S
C4071 C4072 1.524 . S
C4071 H4074 0.999 . S
C4072 H4042 0.950 . S
C4072 C4071 1.524 . S
C4072 C4073 1.415 . S
C4073 H4043 0.950 . S
C4073 C4068 1.363 . S
C4073 C4072 1.415 . S
H4074 C4071 0.999 . S
H4075 C4056 0.913 . S
H4076 C4094 0.951 . S
H4077 C4096 0.951 . S
H4078 C4098 0.950 . S
H4079 C4099 0.950 . S
H4080 C4101 0.950 . S
H4081 C4104 0.950 . S
H4082 C4105 0.950 . S
H4083 C4107 0.950 . S
H4084 C4108 0.950 . S
H4085 C4109 0.951 . S
H4086 C4111 0.951 . S
H4087 C4113 0.950 . S
H4088 C4114 0.950 . S
H4089 C4116 0.950 . S
H4090 C4119 0.950 . S
H4091 C4120 0.950 . S
H4092 C4122 0.950 . S
H4093 C4123 0.950 . S
C4094 H4076 0.951 . S
C4094 C4095 1.366 . S
C4094 C4096 1.388 . S
C4095 C4094 1.366 . S
C4095 C4099 1.385 . S
C4096 H4077 0.951 . S
C4096 C4094 1.388 . S
C4096 C4097 1.366 . S
C4097 C4096 1.366 . S
C4097 C4098 1.414 . S
C4097 C4100 1.499 . S
C4098 H4078 0.950 . S
C4098 C4097 1.414 . S
C4098 C4099 1.374 . S
C4099 H4079 0.950 . S
C4099 C4095 1.385 . S
C4099 C4098 1.374 . S
C4100 C4097 1.499 . S
C4100 C4101 1.373 . S
C4100 C4102 1.389 . S
C4101 H4080 0.950 . S
C4101 C4100 1.373 . S
C4101 C4117 1.377 . S
C4102 C4100 1.389 . S
C4102 C4103 1.524 . S
C4102 C4116 1.377 . S
C4103 C4102 1.524 . S
C4103 C4104 1.397 . S
C4103 C4108 1.363 . S
C4104 H4081 0.950 . S
C4104 C4103 1.397 . S
C4104 C4105 1.334 . S
C4105 H4082 0.950 . S
C4105 C4104 1.334 . S
C4105 C4106 1.287 . S
C4106 C4105 1.287 . S
C4106 C4107 1.524 . S
C4106 H4125 0.913 . S
C4107 H4083 0.950 . S
C4107 C4106 1.524 . S
C4107 C4108 1.415 . S
C4108 H4084 0.950 . S
C4108 C4103 1.363 . S
C4108 C4107 1.415 . S
C4109 H4085 0.951 . S
C4109 C4110 1.366 . S
C4109 C4111 1.388 . S
C4110 C4109 1.366 . S
C4110 C4114 1.385 . S
C4111 H4086 0.951 . S
C4111 C4109 1.388 . S
C4111 C4112 1.366 . S
C4112 C4111 1.366 . S
C4112 C4113 1.414 . S
C4112 C4115 1.499 . S
C4113 H4087 0.950 . S
C4113 C4112 1.414 . S
C4113 C4114 1.374 . S
C4114 H4088 0.950 . S
C4114 C4110 1.385 . S
C4114 C4113 1.374 . S
C4115 C4112 1.499 . S
C4115 C4116 1.373 . S
C4115 C4117 1.389 . S
C4116 H4089 0.950 . S
C4116 C4102 1.377 . S
C4116 C4115 1.373 . S
C4117 C4101 1.377 . S
C4117 C4115 1.389 . S
C4117 C4118 1.524 . S
C4118 C4117 1.524 . S
C4118 C4119 1.397 . S
C4118 C4123 1.363 . S
C4119 H4090 0.950 . S
C4119 C4118 1.397 . S
C4119 C4120 1.334 . S
C4120 H4091 0.950 . S
C4120 C4119 1.334 . S
C4120 C4121 1.287 . S
C4121 C4120 1.287 . S
C4121 C4122 1.524 . S
C4121 H4124 0.999 . S
C4122 H4092 0.950 . S
C4122 C4121 1.524 . S
C4122 C4123 1.415 . S
C4123 H4093 0.950 . S
C4123 C4118 1.363 . S
C4123 C4122 1.415 . S
H4124 C4121 0.999 . S
H4125 C4106 0.913 . S
H4126 C4144 0.951 . S
H4127 C4146 0.951 . S
H4128 C4148 0.950 . S
H4129 C4149 0.950 . S
H4130 C4151 0.950 . S
H4131 C4154 0.950 . S
H4132 C4155 0.950 . S
H4133 C4157 0.950 . S
H4134 C4158 0.950 . S
H4135 C4159 0.951 . S
H4136 C4161 0.951 . S
H4137 C4163 0.950 . S
H4138 C4164 0.950 . S
H4139 C4166 0.950 . S
H4140 C4169 0.950 . S
H4141 C4170 0.950 . S
H4142 C4172 0.950 . S
H4143 C4173 0.950 . S
C4144 H4126 0.951 . S
C4144 C4145 1.366 . S
C4144 C4146 1.388 . S
C4145 C4144 1.366 . S
C4145 C4149 1.385 . S
C4146 H4127 0.951 . S
C4146 C4144 1.388 . S
C4146 C4147 1.366 . S
C4147 C4146 1.366 . S
C4147 C4148 1.414 . S
C4147 C4150 1.499 . S
C4148 H4128 0.950 . S
C4148 C4147 1.414 . S
C4148 C4149 1.374 . S
C4149 H4129 0.950 . S
C4149 C4145 1.385 . S
C4149 C4148 1.374 . S
C4150 C4147 1.499 . S
C4150 C4151 1.373 . S
C4150 C4152 1.389 . S
C4151 H4130 0.950 . S
C4151 C4150 1.373 . S
C4151 C4167 1.377 . S
C4152 C4150 1.389 . S
C4152 C4153 1.524 . S
C4152 C4166 1.377 . S
C4153 C4152 1.524 . S
C4153 C4154 1.397 . S
C4153 C4158 1.363 . S
C4154 H4131 0.950 . S
C4154 C4153 1.397 . S
C4154 C4155 1.334 . S
C4155 H4132 0.950 . S
C4155 C4154 1.334 . S
C4155 C4156 1.287 . S
C4156 C4155 1.287 . S
C4156 C4157 1.524 . S
C4156 H4175 0.913 . S
C4157 H4133 0.950 . S
C4157 C4156 1.524 . S
C4157 C4158 1.415 . S
C4158 H4134 0.950 . S
C4158 C4153 1.363 . S
C4158 C4157 1.415 . S
C4159 H4135 0.951 . S
C4159 C4160 1.366 . S
C4159 C4161 1.388 . S
C4160 C4159 1.366 . S
C4160 C4164 1.385 . S
C4161 H4136 0.951 . S
C4161 C4159 1.388 . S
C4161 C4162 1.366 . S
C4162 C4161 1.366 . S
C4162 C4163 1.414 . S
C4162 C4165 1.499 . S
C4163 H4137 0.950 . S
C4163 C4162 1.414 . S
C4163 C4164 1.374 . S
C4164 H4138 0.950 . S
C4164 C4160 1.385 . S
C4164 C4163 1.374 . S
C4165 C4162 1.499 . S
C4165 C4166 1.373 . S
C4165 C4167 1.389 . S
C4166 H4139 0.950 . S
C4166 C4152 1.377 . S
C4166 C4165 1.373 . S
C4167 C4151 1.377 . S
C4167 C4165 1.389 . S
C4167 C4168 1.524 . S
C4168 C4167 1.524 . S
C4168 C4169 1.397 . S
C4168 C4173 1.363 . S
C4169 H4140 0.950 . S
C4169 C4168 1.397 . S
C4169 C4170 1.334 . S
C4170 H4141 0.950 . S
C4170 C4169 1.334 . S
C4170 C4171 1.287 . S
C4171 C4170 1.287 . S
C4171 C4172 1.524 . S
C4171 H4174 0.999 . S
C4172 H4142 0.950 . S
C4172 C4171 1.524 . S
C4172 C4173 1.415 . S
C4173 H4143 0.950 . S
C4173 C4168 1.363 . S
C4173 C4172 1.415 . S
H4174 C4171 0.999 . S
H4175 C4156 0.913 . S
H4176 C4194 0.951 . S
H4177 C4196 0.951 . S
H4178 C4198 0.950 . S
H4179 C4199 0.950 . S
H4180 C4201 0.950 . S
H4181 C4204 0.950 . S
H4182 C4205 0.950 . S
H4183 C4207 0.950 . S
H4184 C4208 0.950 . S
H4185 C4209 0.951 . S
H4186 C4211 0.951 . S
H4187 C4213 0.950 . S
H4188 C4214 0.950 . S
H4189 C4216 0.950 . S
H4190 C4219 0.950 . S
H4191 C4220 0.950 . S
H4192 C4222 0.950 . S
H4193 C4223 0.950 . S
C4194 H4176 0.951 . S
C4194 C4195 1.366 . S
C4194 C4196 1.388 . S
C4195 C4194 1.366 . S
C4195 C4199 1.385 . S
C4196 H4177 0.951 . S
C4196 C4194 1.388 . S
C4196 C4197 1.366 . S
C4197 C4196 1.366 . S
C4197 C4198 1.414 . S
C4197 C4200 1.499 . S
C4198 H4178 0.950 . S
C4198 C4197 1.414 . S
C4198 C4199 1.374 . S
C4199 H4179 0.950 . S
C4199 C4195 1.385 . S
C4199 C4198 1.374 . S
C4200 C4197 1.499 . S
C4200 C4201 1.373 . S
C4200 C4202 1.389 . S
C4201 H4180 0.950 . S
C4201 C4200 1.373 . S
C4201 C4217 1.377 . S
C4202 C4200 1.389 . S
C4202 C4203 1.524 . S
C4202 C4216 1.377 . S
C4203 C4202 1.524 . S
C4203 C4204 1.397 . S
C4203 C4208 1.363 . S
C4204 H4181 0.950 . S
C4204 C4203 1.397 . S
C4204 C4205 1.334 . S
C4205 H4182 0.950 . S
C4205 C4204 1.334 . S
C4205 C4206 1.287 . S
C4206 C4205 1.287 . S
C4206 C4207 1.524 . S
C4206 H4225 0.913 . S
C4207 H4183 0.950 . S
C4207 C4206 1.524 . S
C4207 C4208 1.415 . S
C4208 H4184 0.950 . S
C4208 C4203 1.363 . S
C4208 C4207 1.415 . S
C4209 H4185 0.951 . S
C4209 C4210 1.366 . S
C4209 C4211 1.388 . S
C4210 C4209 1.366 . S
C4210 C4214 1.385 . S
C4211 H4186 0.951 . S
C4211 C4209 1.388 . S
C4211 C4212 1.366 . S
C4212 C4211 1.366 . S
C4212 C4213 1.414 . S
C4212 C4215 1.499 . S
C4213 H4187 0.950 . S
C4213 C4212 1.414 . S
C4213 C4214 1.374 . S
C4214 H4188 0.950 . S
C4214 C4210 1.385 . S
C4214 C4213 1.374 . S
C4215 C4212 1.499 . S
C4215 C4216 1.373 . S
C4215 C4217 1.389 . S
C4216 H4189 0.950 . S
C4216 C4202 1.377 . S
C4216 C4215 1.373 . S
C4217 C4201 1.377 . S
C4217 C4215 1.389 . S
C4217 C4218 1.524 . S
C4218 C4217 1.524 . S
C4218 C4219 1.397 . S
C4218 C4223 1.363 . S
C4219 H4190 0.950 . S
C4219 C4218 1.397 . S
C4219 C4220 1.334 . S
C4220 H4191 0.950 . S
C4220 C4219 1.334 . S
C4220 C4221 1.287 . S
C4221 C4220 1.287 . S
C4221 C4222 1.524 . S
C4221 H4224 0.999 . S
C4222 H4192 0.950 . S
C4222 C4221 1.524 . S
C4222 C4223 1.415 . S
C4223 H4193 0.950 . S
C4223 C4218 1.363 . S
C4223 C4222 1.415 . S
H4224 C4221 0.999 . S
H4225 C4206 0.913 . S
H4226 C4244 0.951 . S
H4227 C4246 0.951 . S
H4228 C4248 0.950 . S
H4229 C4249 0.950 . S
H4230 C4251 0.950 . S
H4231 C4254 0.950 . S
H4232 C4255 0.950 . S
H4233 C4257 0.950 . S
H4234 C4258 0.950 . S
H4235 C4259 0.951 . S
H4236 C4261 0.951 . S
H4237 C4263 0.950 . S
H4238 C4264 0.950 . S
H4239 C4266 0.950 . S
H4240 C4269 0.950 . S
H4241 C4270 0.950 . S
H4242 C4272 0.950 . S
H4243 C4273 0.950 . S
C4244 H4226 0.951 . S
C4244 C4245 1.366 . S
C4244 C4246 1.388 . S
C4245 C4244 1.366 . S
C4245 C4249 1.385 . S
C4246 H4227 0.951 . S
C4246 C4244 1.388 . S
C4246 C4247 1.366 . S
C4247 C4246 1.366 . S
C4247 C4248 1.414 . S
C4247 C4250 1.499 . S
C4248 H4228 0.950 . S
C4248 C4247 1.414 . S
C4248 C4249 1.374 . S
C4249 H4229 0.950 . S
C4249 C4245 1.385 . S
C4249 C4248 1.374 . S
C4250 C4247 1.499 . S
C4250 C4251 1.373 . S
C4250 C4252 1.389 . S
C4251 H4230 0.950 . S
C4251 C4250 1.373 . S
C4251 C4267 1.377 . S
C4252 C4250 1.389 . S
C4252 C4253 1.524 . S
C4252 C4266 1.377 . S
C4253 C4252 1.524 . S
C4253 C4254 1.397 . S
C4253 C4258 1.363 . S
C4254 H4231 0.950 . S
C4254 C4253 1.397 . S
C4254 C4255 1.334 . S
C4255 H4232 0.950 . S
C4255 C4254 1.334 . S
C4255 C4256 1.287 . S
C4256 C4255 1.287 . S
C4256 C4257 1.524 . S
C4256 H4275 0.913 . S
C4257 H4233 0.950 . S
C4257 C4256 1.524 . S
C4257 C4258 1.415 . S
C4258 H4234 0.950 . S
C4258 C4253 1.363 . S
C4258 C4257 1.415 . S
C4259 H4235 0.951 . S
C4259 C4260 1.366 . S
C4259 C4261 1.388 . S
C4260 C4259 1.366 . S
C4260 C4264 1.385 . S
C4261 H4236 0.951 . S
C4261 C4259 1.388 . S
C4261 C4262 1.366 . S
C4262 C4261 1.366 . S
C4262 C4263 1.414 . S
C4262 C4265 1.499 . S
C4263 H4237 0.950 . S
C4263 C4262 1.414 . S
C4263 C4264 1.374 . S
C4264 H4238 0.950 . S
C4264 C4260 1.385 . S
C4264 C4263 1.374 . S
C4265 C4262 1.499 . S
C4265 C4266 1.373 . S
C4265 C4267 1.389 . S
C4266 H4239 0.950 . S
C4266 C4252 1.377 . S
C4266 C4265 1.373 . S
C4267 C4251 1.377 . S
C4267 C4265 1.389 . S
C4267 C4268 1.524 . S
C4268 C4267 1.524 . S
C4268 C4269 1.397 . S
C4268 C4273 1.363 . S
C4269 H4240 0.950 . S
C4269 C4268 1.397 . S
C4269 C4270 1.334 . S
C4270 H4241 0.950 . S
C4270 C4269 1.334 . S
C4270 C4271 1.287 . S
C4271 C4270 1.287 . S
C4271 C4272 1.524 . S
C4271 H4274 0.999 . S
C4272 H4242 0.950 . S
C4272 C4271 1.524 . S
C4272 C4273 1.415 . S
C4273 H4243 0.950 . S
C4273 C4268 1.363 . S
C4273 C4272 1.415 . S
H4274 C4271 0.999 . S
H4275 C4256 0.913 . S
H4276 C4294 0.951 . S
H4277 C4296 0.951 . S
H4278 C4298 0.950 . S
H4279 C4299 0.950 . S
H4280 C4301 0.950 . S
H4281 C4304 0.950 . S
H4282 C4305 0.950 . S
H4283 C4307 0.950 1_545 S
H4284 C4308 0.950 . S
H4285 C4309 0.951 . S
H4286 C4311 0.951 . S
H4287 C4313 0.950 . S
H4288 C4314 0.950 . S
H4289 C4316 0.950 . S
H4290 C4319 0.950 . S
H4291 C4320 0.950 . S
H4292 C4322 0.950 . S
H4293 C4323 0.950 . S
C4294 H4276 0.951 . S
C4294 C4295 1.366 . S
C4294 C4296 1.388 . S
C4295 C4294 1.366 . S
C4295 C4299 1.385 . S
C4296 H4277 0.951 . S
C4296 C4294 1.388 . S
C4296 C4297 1.366 . S
C4297 C4296 1.366 . S
C4297 C4298 1.414 . S
C4297 C4300 1.499 . S
C4298 H4278 0.950 . S
C4298 C4297 1.414 . S
C4298 C4299 1.374 . S
C4299 H4279 0.950 . S
C4299 C4295 1.385 . S
C4299 C4298 1.374 . S
C4300 C4297 1.499 . S
C4300 C4301 1.373 . S
C4300 C4302 1.389 . S
C4301 H4280 0.950 . S
C4301 C4300 1.373 . S
C4301 C4317 1.377 . S
C4302 C4300 1.389 . S
C4302 C4303 1.524 . S
C4302 C4316 1.377 . S
C4303 C4302 1.524 . S
C4303 C4304 1.397 . S
C4303 C4308 1.363 . S
C4304 H4281 0.950 . S
C4304 C4303 1.397 . S
C4304 C4305 1.334 . S
C4305 H4282 0.950 . S
C4305 C4304 1.334 . S
C4305 C4306 1.287 . S
C4306 C4305 1.287 . S
C4306 C4307 1.524 . S
C4306 H4325 0.913 1_565 S
C4307 H4283 0.950 1_565 S
C4307 C4306 1.524 . S
C4307 C4308 1.415 . S
C4308 H4284 0.950 . S
C4308 C4303 1.363 . S
C4308 C4307 1.415 . S
C4309 H4285 0.951 . S
C4309 C4310 1.366 . S
C4309 C4311 1.388 . S
C4310 C4309 1.366 . S
C4310 C4314 1.385 . S
C4311 H4286 0.951 . S
C4311 C4309 1.388 . S
C4311 C4312 1.366 . S
C4312 C4311 1.366 . S
C4312 C4313 1.414 . S
C4312 C4315 1.499 . S
C4313 H4287 0.950 . S
C4313 C4312 1.414 . S
C4313 C4314 1.374 . S
C4314 H4288 0.950 . S
C4314 C4310 1.385 . S
C4314 C4313 1.374 . S
C4315 C4312 1.499 . S
C4315 C4316 1.373 . S
C4315 C4317 1.389 . S
C4316 H4289 0.950 . S
C4316 C4302 1.377 . S
C4316 C4315 1.373 . S
C4317 C4301 1.377 . S
C4317 C4315 1.389 . S
C4317 C4318 1.524 . S
C4318 C4317 1.524 . S
C4318 C4319 1.397 . S
C4318 C4323 1.363 . S
C4319 H4290 0.950 . S
C4319 C4318 1.397 . S
C4319 C4320 1.334 . S
C4320 H4291 0.950 . S
C4320 C4319 1.334 . S
C4320 C4321 1.287 . S
C4321 C4320 1.287 . S
C4321 C4322 1.524 . S
C4321 H4324 0.999 . S
C4322 H4292 0.950 . S
C4322 C4321 1.524 . S
C4322 C4323 1.415 . S
C4323 H4293 0.950 . S
C4323 C4318 1.363 . S
C4323 C4322 1.415 . S
H4324 C4321 0.999 . S
H4325 C4306 0.913 1_545 S
H4326 C4344 0.951 . S
H4327 C4346 0.951 . S
H4328 C4348 0.950 1_556 S
H4329 C4349 0.950 . S
H4330 C4351 0.950 1_556 S
H4331 C4354 0.950 . S
H4332 C4355 0.950 . S
H4333 C4357 0.950 . S
H4334 C4358 0.950 . S
H4335 C4359 0.951 . S
H4336 C4361 0.951 . S
H4337 C4363 0.950 . S
H4338 C4364 0.950 . S
H4339 C4366 0.950 . S
H4340 C4369 0.950 1_554 S
H4341 C4370 0.950 . S
H4342 C4372 0.950 . S
H4343 C4373 0.950 . S
C4344 H4326 0.951 . S
C4344 C4345 1.366 . S
C4344 C4346 1.388 . S
C4345 C4344 1.366 . S
C4345 C4349 1.385 1_554 S
C4346 H4327 0.951 . S
C4346 C4344 1.388 . S
C4346 C4347 1.366 . S
C4347 C4346 1.366 . S
C4347 C4348 1.414 . S
C4347 C4350 1.499 . S
C4348 H4328 0.950 1_554 S
C4348 C4347 1.414 . S
C4348 C4349 1.374 1_554 S
C4349 H4329 0.950 . S
C4349 C4345 1.385 1_556 S
C4349 C4348 1.374 1_556 S
C4350 C4347 1.499 . S
C4350 C4351 1.373 . S
C4350 C4352 1.389 . S
C4351 H4330 0.950 1_554 S
C4351 C4350 1.373 . S
C4351 C4367 1.377 . S
C4352 C4350 1.389 . S
C4352 C4353 1.524 . S
C4352 C4366 1.377 . S
C4353 C4352 1.524 . S
C4353 C4354 1.397 . S
C4353 C4358 1.363 . S
C4354 H4331 0.950 . S
C4354 C4353 1.397 . S
C4354 C4355 1.334 . S
C4355 H4332 0.950 . S
C4355 C4354 1.334 . S
C4355 C4356 1.287 . S
C4356 C4355 1.287 . S
C4356 C4357 1.524 . S
C4356 H4375 0.913 . S
C4357 H4333 0.950 . S
C4357 C4356 1.524 . S
C4357 C4358 1.415 . S
C4358 H4334 0.950 . S
C4358 C4353 1.363 . S
C4358 C4357 1.415 . S
C4359 H4335 0.951 . S
C4359 C4360 1.366 . S
C4359 C4361 1.388 . S
C4360 C4359 1.366 . S
C4360 C4364 1.385 1_545 S
C4361 H4336 0.951 . S
C4361 C4359 1.388 . S
C4361 C4362 1.366 1_545 S
C4362 C4361 1.366 1_565 S
C4362 C4363 1.414 . S
C4362 C4365 1.499 . S
C4363 H4337 0.950 . S
C4363 C4362 1.414 . S
C4363 C4364 1.374 . S
C4364 H4338 0.950 . S
C4364 C4360 1.385 1_565 S
C4364 C4363 1.374 . S
C4365 C4362 1.499 . S
C4365 C4366 1.373 . S
C4365 C4367 1.389 . S
C4366 H4339 0.950 . S
C4366 C4352 1.377 . S
C4366 C4365 1.373 . S
C4367 C4351 1.377 . S
C4367 C4365 1.389 . S
C4367 C4368 1.524 1_554 S
C4368 C4367 1.524 1_556 S
C4368 C4369 1.397 . S
C4368 C4373 1.363 . S
C4369 H4340 0.950 1_556 S
C4369 C4368 1.397 . S
C4369 C4370 1.334 . S
C4370 H4341 0.950 . S
C4370 C4369 1.334 . S
C4370 C4371 1.287 . S
C4371 C4370 1.287 . S
C4371 C4372 1.524 . S
C4371 H4374 0.999 . S
C4372 H4342 0.950 . S
C4372 C4371 1.524 . S
C4372 C4373 1.415 . S
C4373 H4343 0.950 . S
C4373 C4368 1.363 . S
C4373 C4372 1.415 . S
H4374 C4371 0.999 . S
H4375 C4356 0.913 . S
H4376 C4394 0.951 . S
H4377 C4396 0.951 . S
H4378 C4398 0.950 . S
H4379 C4399 0.950 . S
H4380 C4401 0.950 . S
H4381 C4404 0.950 . S
H4382 C4405 0.950 . S
H4383 C4407 0.950 . S
H4384 C4408 0.950 . S
H4385 C4409 0.951 . S
H4386 C4411 0.951 . S
H4387 C4413 0.950 . S
H4388 C4414 0.950 . S
H4389 C4416 0.950 . S
H4390 C4419 0.950 . S
H4391 C4420 0.950 . S
H4392 C4422 0.950 . S
H4393 C4423 0.950 . S
C4394 H4376 0.951 . S
C4394 C4395 1.366 . S
C4394 C4396 1.388 . S
C4395 C4394 1.366 . S
C4395 C4399 1.385 . S
C4396 H4377 0.951 . S
C4396 C4394 1.388 . S
C4396 C4397 1.366 . S
C4397 C4396 1.366 . S
C4397 C4398 1.414 . S
C4397 C4400 1.499 . S
C4398 H4378 0.950 . S
C4398 C4397 1.414 . S
C4398 C4399 1.374 . S
C4399 H4379 0.950 . S
C4399 C4395 1.385 . S
C4399 C4398 1.374 . S
C4400 C4397 1.499 . S
C4400 C4401 1.373 . S
C4400 C4402 1.389 . S
C4401 H4380 0.950 . S
C4401 C4400 1.373 . S
C4401 C4417 1.377 . S
C4402 C4400 1.389 . S
C4402 C4403 1.524 . S
C4402 C4416 1.377 . S
C4403 C4402 1.524 . S
C4403 C4404 1.397 . S
C4403 C4408 1.363 . S
C4404 H4381 0.950 . S
C4404 C4403 1.397 . S
C4404 C4405 1.334 . S
C4405 H4382 0.950 . S
C4405 C4404 1.334 . S
C4405 C4406 1.287 . S
C4406 C4405 1.287 . S
C4406 C4407 1.524 . S
C4406 H4425 0.913 . S
C4407 H4383 0.950 . S
C4407 C4406 1.524 . S
C4407 C4408 1.415 . S
C4408 H4384 0.950 . S
C4408 C4403 1.363 . S
C4408 C4407 1.415 . S
C4409 H4385 0.951 . S
C4409 C4410 1.366 . S
C4409 C4411 1.388 . S
C4410 C4409 1.366 . S
C4410 C4414 1.385 . S
C4411 H4386 0.951 . S
C4411 C4409 1.388 . S
C4411 C4412 1.366 . S
C4412 C4411 1.366 . S
C4412 C4413 1.414 . S
C4412 C4415 1.499 . S
C4413 H4387 0.950 . S
C4413 C4412 1.414 . S
C4413 C4414 1.374 . S
C4414 H4388 0.950 . S
C4414 C4410 1.385 . S
C4414 C4413 1.374 . S
C4415 C4412 1.499 . S
C4415 C4416 1.373 . S
C4415 C4417 1.389 . S
C4416 H4389 0.950 . S
C4416 C4402 1.377 . S
C4416 C4415 1.373 . S
C4417 C4401 1.377 . S
C4417 C4415 1.389 . S
C4417 C4418 1.524 . S
C4418 C4417 1.524 . S
C4418 C4419 1.397 . S
C4418 C4423 1.363 . S
C4419 H4390 0.950 . S
C4419 C4418 1.397 . S
C4419 C4420 1.334 . S
C4420 H4391 0.950 . S
C4420 C4419 1.334 . S
C4420 C4421 1.287 . S
C4421 C4420 1.287 . S
C4421 C4422 1.524 . S
C4421 H4424 0.999 . S
C4422 H4392 0.950 . S
C4422 C4421 1.524 . S
C4422 C4423 1.415 . S
C4423 H4393 0.950 . S
C4423 C4418 1.363 . S
C4423 C4422 1.415 . S
H4424 C4421 0.999 . S
H4425 C4406 0.913 . S
H4426 C4444 0.951 . S
H4427 C4446 0.951 . S
H4428 C4448 0.950 . S
H4429 C4449 0.950 . S
H4430 C4451 0.950 . S
H4431 C4454 0.950 . S
H4432 C4455 0.950 . S
H4433 C4457 0.950 . S
H4434 C4458 0.950 . S
H4435 C4459 0.951 . S
H4436 C4461 0.951 . S
H4437 C4463 0.950 . S
H4438 C4464 0.950 . S
H4439 C4466 0.950 . S
H4440 C4469 0.950 . S
H4441 C4470 0.950 . S
H4442 C4472 0.950 . S
H4443 C4473 0.950 . S
C4444 H4426 0.951 . S
C4444 C4445 1.366 . S
C4444 C4446 1.388 . S
C4445 C4444 1.366 . S
C4445 C4449 1.385 . S
C4446 H4427 0.951 . S
C4446 C4444 1.388 . S
C4446 C4447 1.366 . S
C4447 C4446 1.366 . S
C4447 C4448 1.414 . S
C4447 C4450 1.499 . S
C4448 H4428 0.950 . S
C4448 C4447 1.414 . S
C4448 C4449 1.374 . S
C4449 H4429 0.950 . S
C4449 C4445 1.385 . S
C4449 C4448 1.374 . S
C4450 C4447 1.499 . S
C4450 C4451 1.373 . S
C4450 C4452 1.389 . S
C4451 H4430 0.950 . S
C4451 C4450 1.373 . S
C4451 C4467 1.377 . S
C4452 C4450 1.389 . S
C4452 C4453 1.524 . S
C4452 C4466 1.377 . S
C4453 C4452 1.524 . S
C4453 C4454 1.397 . S
C4453 C4458 1.363 . S
C4454 H4431 0.950 . S
C4454 C4453 1.397 . S
C4454 C4455 1.334 . S
C4455 H4432 0.950 . S
C4455 C4454 1.334 . S
C4455 C4456 1.287 . S
C4456 C4455 1.287 . S
C4456 C4457 1.524 . S
C4456 H4475 0.913 . S
C4457 H4433 0.950 . S
C4457 C4456 1.524 . S
C4457 C4458 1.415 . S
C4458 H4434 0.950 . S
C4458 C4453 1.363 . S
C4458 C4457 1.415 . S
C4459 H4435 0.951 . S
C4459 C4460 1.366 . S
C4459 C4461 1.388 . S
C4460 C4459 1.366 . S
C4460 C4464 1.385 . S
C4461 H4436 0.951 . S
C4461 C4459 1.388 . S
C4461 C4462 1.366 . S
C4462 C4461 1.366 . S
C4462 C4463 1.414 . S
C4462 C4465 1.499 . S
C4463 H4437 0.950 . S
C4463 C4462 1.414 . S
C4463 C4464 1.374 . S
C4464 H4438 0.950 . S
C4464 C4460 1.385 . S
C4464 C4463 1.374 . S
C4465 C4462 1.499 . S
C4465 C4466 1.373 . S
C4465 C4467 1.389 . S
C4466 H4439 0.950 . S
C4466 C4452 1.377 . S
C4466 C4465 1.373 . S
C4467 C4451 1.377 . S
C4467 C4465 1.389 . S
C4467 C4468 1.524 . S
C4468 C4467 1.524 . S
C4468 C4469 1.397 . S
C4468 C4473 1.363 . S
C4469 H4440 0.950 . S
C4469 C4468 1.397 . S
C4469 C4470 1.334 . S
C4470 H4441 0.950 . S
C4470 C4469 1.334 . S
C4470 C4471 1.287 . S
C4471 C4470 1.287 . S
C4471 C4472 1.524 . S
C4471 H4474 0.999 . S
C4472 H4442 0.950 . S
C4472 C4471 1.524 . S
C4472 C4473 1.415 . S
C4473 H4443 0.950 . S
C4473 C4468 1.363 . S
C4473 C4472 1.415 . S
H4474 C4471 0.999 . S
H4475 C4456 0.913 . S
H4476 C4494 0.951 . S
H4477 C4496 0.951 . S
H4478 C4498 0.950 . S
H4479 C4499 0.950 . S
H4480 C4501 0.950 . S
H4481 C4504 0.950 . S
H4482 C4505 0.950 . S
H4483 C4507 0.950 . S
H4484 C4508 0.950 . S
H4485 C4509 0.951 . S
H4486 C4511 0.951 . S
H4487 C4513 0.950 . S
H4488 C4514 0.950 . S
H4489 C4516 0.950 . S
H4490 C4519 0.950 . S
H4491 C4520 0.950 . S
H4492 C4522 0.950 . S
H4493 C4523 0.950 . S
C4494 H4476 0.951 . S
C4494 C4495 1.366 . S
C4494 C4496 1.388 . S
C4495 C4494 1.366 . S
C4495 C4499 1.385 . S
C4496 H4477 0.951 . S
C4496 C4494 1.388 . S
C4496 C4497 1.366 . S
C4497 C4496 1.366 . S
C4497 C4498 1.414 . S
C4497 C4500 1.499 . S
C4498 H4478 0.950 . S
C4498 C4497 1.414 . S
C4498 C4499 1.374 . S
C4499 H4479 0.950 . S
C4499 C4495 1.385 . S
C4499 C4498 1.374 . S
C4500 C4497 1.499 . S
C4500 C4501 1.373 . S
C4500 C4502 1.389 . S
C4501 H4480 0.950 . S
C4501 C4500 1.373 . S
C4501 C4517 1.377 . S
C4502 C4500 1.389 . S
C4502 C4503 1.524 . S
C4502 C4516 1.377 . S
C4503 C4502 1.524 . S
C4503 C4504 1.397 . S
C4503 C4508 1.363 . S
C4504 H4481 0.950 . S
C4504 C4503 1.397 . S
C4504 C4505 1.334 . S
C4505 H4482 0.950 . S
C4505 C4504 1.334 . S
C4505 C4506 1.287 . S
C4506 C4505 1.287 . S
C4506 C4507 1.524 . S
C4506 H4525 0.913 . S
C4507 H4483 0.950 . S
C4507 C4506 1.524 . S
C4507 C4508 1.415 . S
C4508 H4484 0.950 . S
C4508 C4503 1.363 . S
C4508 C4507 1.415 . S
C4509 H4485 0.951 . S
C4509 C4510 1.366 . S
C4509 C4511 1.388 . S
C4510 C4509 1.366 . S
C4510 C4514 1.385 . S
C4511 H4486 0.951 . S
C4511 C4509 1.388 . S
C4511 C4512 1.366 . S
C4512 C4511 1.366 . S
C4512 C4513 1.414 . S
C4512 C4515 1.499 . S
C4513 H4487 0.950 . S
C4513 C4512 1.414 . S
C4513 C4514 1.374 . S
C4514 H4488 0.950 . S
C4514 C4510 1.385 . S
C4514 C4513 1.374 . S
C4515 C4512 1.499 . S
C4515 C4516 1.373 . S
C4515 C4517 1.389 . S
C4516 H4489 0.950 . S
C4516 C4502 1.377 . S
C4516 C4515 1.373 . S
C4517 C4501 1.377 . S
C4517 C4515 1.389 . S
C4517 C4518 1.524 . S
C4518 C4517 1.524 . S
C4518 C4519 1.397 . S
C4518 C4523 1.363 . S
C4519 H4490 0.950 . S
C4519 C4518 1.397 . S
C4519 C4520 1.334 . S
C4520 H4491 0.950 . S
C4520 C4519 1.334 . S
C4520 C4521 1.287 . S
C4521 C4520 1.287 . S
C4521 C4522 1.524 . S
C4521 H4524 0.999 . S
C4522 H4492 0.950 . S
C4522 C4521 1.524 . S
C4522 C4523 1.415 . S
C4523 H4493 0.950 . S
C4523 C4518 1.363 . S
C4523 C4522 1.415 . S
H4524 C4521 0.999 . S
H4525 C4506 0.913 . S
H4526 C4544 0.951 . S
H4527 C4546 0.951 . S
H4528 C4548 0.950 . S
H4529 C4549 0.950 . S
H4530 C4551 0.950 . S
H4531 C4554 0.950 . S
H4532 C4555 0.950 . S
H4533 C4557 0.950 . S
H4534 C4558 0.950 . S
H4535 C4559 0.951 . S
H4536 C4561 0.951 . S
H4537 C4563 0.950 . S
H4538 C4564 0.950 . S
H4539 C4566 0.950 . S
H4540 C4569 0.950 . S
H4541 C4570 0.950 . S
H4542 C4572 0.950 . S
H4543 C4573 0.950 . S
C4544 H4526 0.951 . S
C4544 C4545 1.366 . S
C4544 C4546 1.388 . S
C4545 C4544 1.366 . S
C4545 C4549 1.385 . S
C4546 H4527 0.951 . S
C4546 C4544 1.388 . S
C4546 C4547 1.366 . S
C4547 C4546 1.366 . S
C4547 C4548 1.414 . S
C4547 C4550 1.499 . S
C4548 H4528 0.950 . S
C4548 C4547 1.414 . S
C4548 C4549 1.374 . S
C4549 H4529 0.950 . S
C4549 C4545 1.385 . S
C4549 C4548 1.374 . S
C4550 C4547 1.499 . S
C4550 C4551 1.373 . S
C4550 C4552 1.389 . S
C4551 H4530 0.950 . S
C4551 C4550 1.373 . S
C4551 C4567 1.377 . S
C4552 C4550 1.389 . S
C4552 C4553 1.524 . S
C4552 C4566 1.377 . S
C4553 C4552 1.524 . S
C4553 C4554 1.397 . S
C4553 C4558 1.363 . S
C4554 H4531 0.950 . S
C4554 C4553 1.397 . S
C4554 C4555 1.334 . S
C4555 H4532 0.950 . S
C4555 C4554 1.334 . S
C4555 C4556 1.287 . S
C4556 C4555 1.287 . S
C4556 C4557 1.524 . S
C4556 H4575 0.913 . S
C4557 H4533 0.950 . S
C4557 C4556 1.524 . S
C4557 C4558 1.415 . S
C4558 H4534 0.950 . S
C4558 C4553 1.363 . S
C4558 C4557 1.415 . S
C4559 H4535 0.951 . S
C4559 C4560 1.366 . S
C4559 C4561 1.388 . S
C4560 C4559 1.366 . S
C4560 C4564 1.385 . S
C4561 H4536 0.951 . S
C4561 C4559 1.388 . S
C4561 C4562 1.366 . S
C4562 C4561 1.366 . S
C4562 C4563 1.414 . S
C4562 C4565 1.499 . S
C4563 H4537 0.950 . S
C4563 C4562 1.414 . S
C4563 C4564 1.374 . S
C4564 H4538 0.950 . S
C4564 C4560 1.385 . S
C4564 C4563 1.374 . S
C4565 C4562 1.499 . S
C4565 C4566 1.373 . S
C4565 C4567 1.389 . S
C4566 H4539 0.950 . S
C4566 C4552 1.377 . S
C4566 C4565 1.373 . S
C4567 C4551 1.377 . S
C4567 C4565 1.389 . S
C4567 C4568 1.524 . S
C4568 C4567 1.524 . S
C4568 C4569 1.397 . S
C4568 C4573 1.363 . S
C4569 H4540 0.950 . S
C4569 C4568 1.397 . S
C4569 C4570 1.334 . S
C4570 H4541 0.950 . S
C4570 C4569 1.334 . S
C4570 C4571 1.287 . S
C4571 C4570 1.287 . S
C4571 C4572 1.524 . S
C4571 H4574 0.999 . S
C4572 H4542 0.950 . S
C4572 C4571 1.524 . S
C4572 C4573 1.415 . S
C4573 H4543 0.950 . S
C4573 C4568 1.363 . S
C4573 C4572 1.415 . S
H4574 C4571 0.999 . S
H4575 C4556 0.913 . S
H4576 C4594 0.951 . S
H4577 C4596 0.951 . S
H4578 C4598 0.950 . S
H4579 C4599 0.950 . S
H4580 C4601 0.950 . S
H4581 C4604 0.950 . S
H4582 C4605 0.950 . S
H4583 C4607 0.950 . S
H4584 C4608 0.950 . S
H4585 C4609 0.951 . S
H4586 C4611 0.951 . S
H4587 C4613 0.950 . S
H4588 C4614 0.950 . S
H4589 C4616 0.950 . S
H4590 C4619 0.950 . S
H4591 C4620 0.950 . S
H4592 C4622 0.950 . S
H4593 C4623 0.950 . S
C4594 H4576 0.951 . S
C4594 C4595 1.366 . S
C4594 C4596 1.388 . S
C4595 C4594 1.366 . S
C4595 C4599 1.385 . S
C4596 H4577 0.951 . S
C4596 C4594 1.388 . S
C4596 C4597 1.366 . S
C4597 C4596 1.366 . S
C4597 C4598 1.414 . S
C4597 C4600 1.499 . S
C4598 H4578 0.950 . S
C4598 C4597 1.414 . S
C4598 C4599 1.374 . S
C4599 H4579 0.950 . S
C4599 C4595 1.385 . S
C4599 C4598 1.374 . S
C4600 C4597 1.499 . S
C4600 C4601 1.373 . S
C4600 C4602 1.389 . S
C4601 H4580 0.950 . S
C4601 C4600 1.373 . S
C4601 C4617 1.377 . S
C4602 C4600 1.389 . S
C4602 C4603 1.524 . S
C4602 C4616 1.377 . S
C4603 C4602 1.524 . S
C4603 C4604 1.397 . S
C4603 C4608 1.363 . S
C4604 H4581 0.950 . S
C4604 C4603 1.397 . S
C4604 C4605 1.334 . S
C4605 H4582 0.950 . S
C4605 C4604 1.334 . S
C4605 C4606 1.287 . S
C4606 C4605 1.287 . S
C4606 C4607 1.524 . S
C4606 H4625 0.913 . S
C4607 H4583 0.950 . S
C4607 C4606 1.524 . S
C4607 C4608 1.415 . S
C4608 H4584 0.950 . S
C4608 C4603 1.363 . S
C4608 C4607 1.415 . S
C4609 H4585 0.951 . S
C4609 C4610 1.366 . S
C4609 C4611 1.388 . S
C4610 C4609 1.366 . S
C4610 C4614 1.385 . S
C4611 H4586 0.951 . S
C4611 C4609 1.388 . S
C4611 C4612 1.366 . S
C4612 C4611 1.366 . S
C4612 C4613 1.414 . S
C4612 C4615 1.499 . S
C4613 H4587 0.950 . S
C4613 C4612 1.414 . S
C4613 C4614 1.374 . S
C4614 H4588 0.950 . S
C4614 C4610 1.385 . S
C4614 C4613 1.374 . S
C4615 C4612 1.499 . S
C4615 C4616 1.373 . S
C4615 C4617 1.389 . S
C4616 H4589 0.950 . S
C4616 C4602 1.377 . S
C4616 C4615 1.373 . S
C4617 C4601 1.377 . S
C4617 C4615 1.389 . S
C4617 C4618 1.524 . S
C4618 C4617 1.524 . S
C4618 C4619 1.397 . S
C4618 C4623 1.363 . S
C4619 H4590 0.950 . S
C4619 C4618 1.397 . S
C4619 C4620 1.334 . S
C4620 H4591 0.950 . S
C4620 C4619 1.334 . S
C4620 C4621 1.287 . S
C4621 C4620 1.287 . S
C4621 C4622 1.524 . S
C4621 H4624 0.999 . S
C4622 H4592 0.950 . S
C4622 C4621 1.524 . S
C4622 C4623 1.415 . S
C4623 H4593 0.950 . S
C4623 C4618 1.363 . S
C4623 C4622 1.415 . S
H4624 C4621 0.999 . S
H4625 C4606 0.913 . S
H4626 C4644 0.951 . S
H4627 C4646 0.951 . S
H4628 C4648 0.950 . S
H4629 C4649 0.950 . S
H4630 C4651 0.950 . S
H4631 C4654 0.950 . S
H4632 C4655 0.950 . S
H4633 C4657 0.950 . S
H4634 C4658 0.950 . S
H4635 C4659 0.951 . S
H4636 C4661 0.951 . S
H4637 C4663 0.950 . S
H4638 C4664 0.950 . S
H4639 C4666 0.950 . S
H4640 C4669 0.950 . S
H4641 C4670 0.950 . S
H4642 C4672 0.950 . S
H4643 C4673 0.950 . S
C4644 H4626 0.951 . S
C4644 C4645 1.366 . S
C4644 C4646 1.388 . S
C4645 C4644 1.366 . S
C4645 C4649 1.385 . S
C4646 H4627 0.951 . S
C4646 C4644 1.388 . S
C4646 C4647 1.366 . S
C4647 C4646 1.366 . S
C4647 C4648 1.414 . S
C4647 C4650 1.499 . S
C4648 H4628 0.950 . S
C4648 C4647 1.414 . S
C4648 C4649 1.374 . S
C4649 H4629 0.950 . S
C4649 C4645 1.385 . S
C4649 C4648 1.374 . S
C4650 C4647 1.499 . S
C4650 C4651 1.373 . S
C4650 C4652 1.389 . S
C4651 H4630 0.950 . S
C4651 C4650 1.373 . S
C4651 C4667 1.377 . S
C4652 C4650 1.389 . S
C4652 C4653 1.524 . S
C4652 C4666 1.377 . S
C4653 C4652 1.524 . S
C4653 C4654 1.397 . S
C4653 C4658 1.363 . S
C4654 H4631 0.950 . S
C4654 C4653 1.397 . S
C4654 C4655 1.334 . S
C4655 H4632 0.950 . S
C4655 C4654 1.334 . S
C4655 C4656 1.287 . S
C4656 C4655 1.287 . S
C4656 C4657 1.524 . S
C4656 H4675 0.913 . S
C4657 H4633 0.950 . S
C4657 C4656 1.524 . S
C4657 C4658 1.415 . S
C4658 H4634 0.950 . S
C4658 C4653 1.363 . S
C4658 C4657 1.415 . S
C4659 H4635 0.951 . S
C4659 C4660 1.366 . S
C4659 C4661 1.388 . S
C4660 C4659 1.366 . S
C4660 C4664 1.385 . S
C4661 H4636 0.951 . S
C4661 C4659 1.388 . S
C4661 C4662 1.366 . S
C4662 C4661 1.366 . S
C4662 C4663 1.414 . S
C4662 C4665 1.499 . S
C4663 H4637 0.950 . S
C4663 C4662 1.414 . S
C4663 C4664 1.374 . S
C4664 H4638 0.950 . S
C4664 C4660 1.385 . S
C4664 C4663 1.374 . S
C4665 C4662 1.499 . S
C4665 C4666 1.373 . S
C4665 C4667 1.389 . S
C4666 H4639 0.950 . S
C4666 C4652 1.377 . S
C4666 C4665 1.373 . S
C4667 C4651 1.377 . S
C4667 C4665 1.389 . S
C4667 C4668 1.524 . S
C4668 C4667 1.524 . S
C4668 C4669 1.397 . S
C4668 C4673 1.363 . S
C4669 H4640 0.950 . S
C4669 C4668 1.397 . S
C4669 C4670 1.334 . S
C4670 H4641 0.950 . S
C4670 C4669 1.334 . S
C4670 C4671 1.287 . S
C4671 C4670 1.287 . S
C4671 C4672 1.524 . S
C4671 H4674 0.999 . S
C4672 H4642 0.950 . S
C4672 C4671 1.524 . S
C4672 C4673 1.415 . S
C4673 H4643 0.950 . S
C4673 C4668 1.363 . S
C4673 C4672 1.415 . S
H4674 C4671 0.999 . S
H4675 C4656 0.913 . S
H4676 C4694 0.951 . S
H4677 C4696 0.951 . S
H4678 C4698 0.950 . S
H4679 C4699 0.950 . S
H4680 C4701 0.950 . S
H4681 C4704 0.950 . S
H4682 C4705 0.950 . S
H4683 C4707 0.950 . S
H4684 C4708 0.950 . S
H4685 C4709 0.951 . S
H4686 C4711 0.951 . S
H4687 C4713 0.950 . S
H4688 C4714 0.950 . S
H4689 C4716 0.950 . S
H4690 C4719 0.950 . S
H4691 C4720 0.950 . S
H4692 C4722 0.950 . S
H4693 C4723 0.950 1_655 S
C4694 H4676 0.951 . S
C4694 C4695 1.366 . S
C4694 C4696 1.388 . S
C4695 C4694 1.366 . S
C4695 C4699 1.385 . S
C4696 H4677 0.951 . S
C4696 C4694 1.388 . S
C4696 C4697 1.366 . S
C4697 C4696 1.366 . S
C4697 C4698 1.414 . S
C4697 C4700 1.499 . S
C4698 H4678 0.950 . S
C4698 C4697 1.414 . S
C4698 C4699 1.374 . S
C4699 H4679 0.950 . S
C4699 C4695 1.385 . S
C4699 C4698 1.374 . S
C4700 C4697 1.499 . S
C4700 C4701 1.373 . S
C4700 C4702 1.389 . S
C4701 H4680 0.950 . S
C4701 C4700 1.373 . S
C4701 C4717 1.377 . S
C4702 C4700 1.389 . S
C4702 C4703 1.524 . S
C4702 C4716 1.377 . S
C4703 C4702 1.524 . S
C4703 C4704 1.397 . S
C4703 C4708 1.363 . S
C4704 H4681 0.950 . S
C4704 C4703 1.397 . S
C4704 C4705 1.334 . S
C4705 H4682 0.950 . S
C4705 C4704 1.334 . S
C4705 C4706 1.287 . S
C4706 C4705 1.287 . S
C4706 C4707 1.524 . S
C4706 H4725 0.913 . S
C4707 H4683 0.950 . S
C4707 C4706 1.524 . S
C4707 C4708 1.415 . S
C4708 H4684 0.950 . S
C4708 C4703 1.363 . S
C4708 C4707 1.415 . S
C4709 H4685 0.951 . S
C4709 C4710 1.366 . S
C4709 C4711 1.388 . S
C4710 C4709 1.366 . S
C4710 C4714 1.385 . S
C4711 H4686 0.951 . S
C4711 C4709 1.388 . S
C4711 C4712 1.366 . S
C4712 C4711 1.366 . S
C4712 C4713 1.414 . S
C4712 C4715 1.499 . S
C4713 H4687 0.950 . S
C4713 C4712 1.414 . S
C4713 C4714 1.374 . S
C4714 H4688 0.950 . S
C4714 C4710 1.385 . S
C4714 C4713 1.374 . S
C4715 C4712 1.499 . S
C4715 C4716 1.373 . S
C4715 C4717 1.389 . S
C4716 H4689 0.950 . S
C4716 C4702 1.377 . S
C4716 C4715 1.373 . S
C4717 C4701 1.377 . S
C4717 C4715 1.389 . S
C4717 C4718 1.524 . S
C4718 C4717 1.524 . S
C4718 C4719 1.397 . S
C4718 C4723 1.363 . S
C4719 H4690 0.950 . S
C4719 C4718 1.397 . S
C4719 C4720 1.334 . S
C4720 H4691 0.950 . S
C4720 C4719 1.334 . S
C4720 C4721 1.287 . S
C4721 C4720 1.287 . S
C4721 C4722 1.524 1_455 S
C4721 H4724 0.999 . S
C4722 H4692 0.950 . S
C4722 C4721 1.524 1_655 S
C4722 C4723 1.415 1_655 S
C4723 H4693 0.950 1_455 S
C4723 C4718 1.363 . S
C4723 C4722 1.415 1_455 S
H4724 C4721 0.999 . S
H4725 C4706 0.913 . S
H4726 C4744 0.951 . S
H4727 C4746 0.951 . S
H4728 C4748 0.950 . S
H4729 C4749 0.950 . S
H4730 C4751 0.950 . S
H4731 C4754 0.950 . S
H4732 C4755 0.950 . S
H4733 C4757 0.950 . S
H4734 C4758 0.950 . S
H4735 C4759 0.951 . S
H4736 C4761 0.951 . S
H4737 C4763 0.950 . S
H4738 C4764 0.950 . S
H4739 C4766 0.950 . S
H4740 C4769 0.950 . S
H4741 C4770 0.950 . S
H4742 C4772 0.950 . S
H4743 C4773 0.950 . S
C4744 H4726 0.951 . S
C4744 C4745 1.366 . S
C4744 C4746 1.388 . S
C4745 C4744 1.366 . S
C4745 C4749 1.385 . S
C4746 H4727 0.951 . S
C4746 C4744 1.388 . S
C4746 C4747 1.366 . S
C4747 C4746 1.366 . S
C4747 C4748 1.414 . S
C4747 C4750 1.499 . S
C4748 H4728 0.950 . S
C4748 C4747 1.414 . S
C4748 C4749 1.374 . S
C4749 H4729 0.950 . S
C4749 C4745 1.385 . S
C4749 C4748 1.374 . S
C4750 C4747 1.499 . S
C4750 C4751 1.373 . S
C4750 C4752 1.389 . S
C4751 H4730 0.950 . S
C4751 C4750 1.373 . S
C4751 C4767 1.377 . S
C4752 C4750 1.389 . S
C4752 C4753 1.524 . S
C4752 C4766 1.377 . S
C4753 C4752 1.524 . S
C4753 C4754 1.397 . S
C4753 C4758 1.363 . S
C4754 H4731 0.950 . S
C4754 C4753 1.397 . S
C4754 C4755 1.334 . S
C4755 H4732 0.950 . S
C4755 C4754 1.334 . S
C4755 C4756 1.287 . S
C4756 C4755 1.287 . S
C4756 C4757 1.524 . S
C4756 H4775 0.913 . S
C4757 H4733 0.950 . S
C4757 C4756 1.524 . S
C4757 C4758 1.415 . S
C4758 H4734 0.950 . S
C4758 C4753 1.363 . S
C4758 C4757 1.415 . S
C4759 H4735 0.951 . S
C4759 C4760 1.366 . S
C4759 C4761 1.388 . S
C4760 C4759 1.366 . S
C4760 C4764 1.385 . S
C4761 H4736 0.951 . S
C4761 C4759 1.388 . S
C4761 C4762 1.366 . S
C4762 C4761 1.366 . S
C4762 C4763 1.414 . S
C4762 C4765 1.499 . S
C4763 H4737 0.950 . S
C4763 C4762 1.414 . S
C4763 C4764 1.374 . S
C4764 H4738 0.950 . S
C4764 C4760 1.385 . S
C4764 C4763 1.374 . S
C4765 C4762 1.499 . S
C4765 C4766 1.373 . S
C4765 C4767 1.389 . S
C4766 H4739 0.950 . S
C4766 C4752 1.377 . S
C4766 C4765 1.373 . S
C4767 C4751 1.377 . S
C4767 C4765 1.389 . S
C4767 C4768 1.524 . S
C4768 C4767 1.524 . S
C4768 C4769 1.397 . S
C4768 C4773 1.363 . S
C4769 H4740 0.950 . S
C4769 C4768 1.397 . S
C4769 C4770 1.334 . S
C4770 H4741 0.950 . S
C4770 C4769 1.334 . S
C4770 C4771 1.287 . S
C4771 C4770 1.287 . S
C4771 C4772 1.524 . S
C4771 H4774 0.999 . S
C4772 H4742 0.950 . S
C4772 C4771 1.524 . S
C4772 C4773 1.415 . S
C4773 H4743 0.950 . S
C4773 C4768 1.363 . S
C4773 C4772 1.415 . S
H4774 C4771 0.999 . S
H4775 C4756 0.913 . S
H4776 C4794 0.951 . S
H4777 C4796 0.951 . S
H4778 C4798 0.950 . S
H4779 C4799 0.950 . S
H4780 C4801 0.950 . S
H4781 C4804 0.950 . S
H4782 C4805 0.950 . S
H4783 C4807 0.950 . S
H4784 C4808 0.950 . S
H4785 C4809 0.951 . S
H4786 C4811 0.951 . S
H4787 C4813 0.950 . S
H4788 C4814 0.950 1_554 S
H4789 C4816 0.950 . S
H4790 C4819 0.950 . S
H4791 C4820 0.950 . S
H4792 C4822 0.950 . S
H4793 C4823 0.950 . S
C4794 H4776 0.951 . S
C4794 C4795 1.366 . S
C4794 C4796 1.388 . S
C4795 C4794 1.366 . S
C4795 C4799 1.385 . S
C4796 H4777 0.951 . S
C4796 C4794 1.388 . S
C4796 C4797 1.366 . S
C4797 C4796 1.366 . S
C4797 C4798 1.414 . S
C4797 C4800 1.499 . S
C4798 H4778 0.950 . S
C4798 C4797 1.414 . S
C4798 C4799 1.374 . S
C4799 H4779 0.950 . S
C4799 C4795 1.385 . S
C4799 C4798 1.374 . S
C4800 C4797 1.499 . S
C4800 C4801 1.373 . S
C4800 C4802 1.389 . S
C4801 H4780 0.950 . S
C4801 C4800 1.373 . S
C4801 C4817 1.377 . S
C4802 C4800 1.389 . S
C4802 C4803 1.524 . S
C4802 C4816 1.377 . S
C4803 C4802 1.524 . S
C4803 C4804 1.397 . S
C4803 C4808 1.363 . S
C4804 H4781 0.950 . S
C4804 C4803 1.397 . S
C4804 C4805 1.334 . S
C4805 H4782 0.950 . S
C4805 C4804 1.334 . S
C4805 C4806 1.287 . S
C4806 C4805 1.287 . S
C4806 C4807 1.524 . S
C4806 H4825 0.913 . S
C4807 H4783 0.950 . S
C4807 C4806 1.524 . S
C4807 C4808 1.415 . S
C4808 H4784 0.950 . S
C4808 C4803 1.363 . S
C4808 C4807 1.415 . S
C4809 H4785 0.951 . S
C4809 C4810 1.366 . S
C4809 C4811 1.388 . S
C4810 C4809 1.366 . S
C4810 C4814 1.385 . S
C4811 H4786 0.951 . S
C4811 C4809 1.388 . S
C4811 C4812 1.366 . S
C4812 C4811 1.366 . S
C4812 C4813 1.414 . S
C4812 C4815 1.499 . S
C4813 H4787 0.950 . S
C4813 C4812 1.414 . S
C4813 C4814 1.374 . S
C4814 H4788 0.950 1_556 S
C4814 C4810 1.385 . S
C4814 C4813 1.374 . S
C4815 C4812 1.499 . S
C4815 C4816 1.373 . S
C4815 C4817 1.389 . S
C4816 H4789 0.950 . S
C4816 C4802 1.377 . S
C4816 C4815 1.373 . S
C4817 C4801 1.377 . S
C4817 C4815 1.389 . S
C4817 C4818 1.524 . S
C4818 C4817 1.524 . S
C4818 C4819 1.397 . S
C4818 C4823 1.363 . S
C4819 H4790 0.950 . S
C4819 C4818 1.397 . S
C4819 C4820 1.334 . S
C4820 H4791 0.950 . S
C4820 C4819 1.334 . S
C4820 C4821 1.287 . S
C4821 C4820 1.287 . S
C4821 C4822 1.524 . S
C4821 H4824 0.999 . S
C4822 H4792 0.950 . S
C4822 C4821 1.524 . S
C4822 C4823 1.415 . S
C4823 H4793 0.950 . S
C4823 C4818 1.363 . S
C4823 C4822 1.415 . S
H4824 C4821 0.999 . S
H4825 C4806 0.913 . S
H4826 C4844 0.951 . S
H4827 C4846 0.951 . S
H4828 C4848 0.950 . S
H4829 C4849 0.950 . S
H4830 C4851 0.950 . S
H4831 C4854 0.950 . S
H4832 C4855 0.950 . S
H4833 C4857 0.950 . S
H4834 C4858 0.950 . S
H4835 C4859 0.951 . S
H4836 C4861 0.951 . S
H4837 C4863 0.950 . S
H4838 C4864 0.950 . S
H4839 C4866 0.950 . S
H4840 C4869 0.950 . S
H4841 C4870 0.950 . S
H4842 C4872 0.950 . S
H4843 C4873 0.950 . S
C4844 H4826 0.951 . S
C4844 C4845 1.366 . S
C4844 C4846 1.388 . S
C4845 C4844 1.366 . S
C4845 C4849 1.385 . S
C4846 H4827 0.951 . S
C4846 C4844 1.388 . S
C4846 C4847 1.366 . S
C4847 C4846 1.366 . S
C4847 C4848 1.414 . S
C4847 C4850 1.499 . S
C4848 H4828 0.950 . S
C4848 C4847 1.414 . S
C4848 C4849 1.374 . S
C4849 H4829 0.950 . S
C4849 C4845 1.385 . S
C4849 C4848 1.374 . S
C4850 C4847 1.499 . S
C4850 C4851 1.373 . S
C4850 C4852 1.389 . S
C4851 H4830 0.950 . S
C4851 C4850 1.373 . S
C4851 C4867 1.377 . S
C4852 C4850 1.389 . S
C4852 C4853 1.524 . S
C4852 C4866 1.377 . S
C4853 C4852 1.524 . S
C4853 C4854 1.397 . S
C4853 C4858 1.363 . S
C4854 H4831 0.950 . S
C4854 C4853 1.397 . S
C4854 C4855 1.334 . S
C4855 H4832 0.950 . S
C4855 C4854 1.334 . S
C4855 C4856 1.287 . S
C4856 C4855 1.287 . S
C4856 C4857 1.524 . S
C4856 H4875 0.913 . S
C4857 H4833 0.950 . S
C4857 C4856 1.524 . S
C4857 C4858 1.415 . S
C4858 H4834 0.950 . S
C4858 C4853 1.363 . S
C4858 C4857 1.415 . S
C4859 H4835 0.951 . S
C4859 C4860 1.366 . S
C4859 C4861 1.388 . S
C4860 C4859 1.366 . S
C4860 C4864 1.385 . S
C4861 H4836 0.951 . S
C4861 C4859 1.388 . S
C4861 C4862 1.366 . S
C4862 C4861 1.366 . S
C4862 C4863 1.414 . S
C4862 C4865 1.499 . S
C4863 H4837 0.950 . S
C4863 C4862 1.414 . S
C4863 C4864 1.374 . S
C4864 H4838 0.950 . S
C4864 C4860 1.385 . S
C4864 C4863 1.374 . S
C4865 C4862 1.499 . S
C4865 C4866 1.373 . S
C4865 C4867 1.389 . S
C4866 H4839 0.950 . S
C4866 C4852 1.377 . S
C4866 C4865 1.373 . S
C4867 C4851 1.377 . S
C4867 C4865 1.389 . S
C4867 C4868 1.524 . S
C4868 C4867 1.524 . S
C4868 C4869 1.397 . S
C4868 C4873 1.363 . S
C4869 H4840 0.950 . S
C4869 C4868 1.397 . S
C4869 C4870 1.334 . S
C4870 H4841 0.950 . S
C4870 C4869 1.334 . S
C4870 C4871 1.287 . S
C4871 C4870 1.287 . S
C4871 C4872 1.524 . S
C4871 H4874 0.999 . S
C4872 H4842 0.950 . S
C4872 C4871 1.524 . S
C4872 C4873 1.415 . S
C4873 H4843 0.950 . S
C4873 C4868 1.363 . S
C4873 C4872 1.415 . S
H4874 C4871 0.999 . S
H4875 C4856 0.913 . S
H4876 C4894 0.951 . S
H4877 C4896 0.951 . S
H4878 C4898 0.950 . S
H4879 C4899 0.950 . S
H4880 C4901 0.950 . S
H4881 C4904 0.950 . S
H4882 C4905 0.950 . S
H4883 C4907 0.950 . S
H4884 C4908 0.950 . S
H4885 C4909 0.951 1_655 S
H4886 C4911 0.938 1_655 S
H4887 C4913 0.950 . S
H4888 C4914 0.950 . S
H4889 C4916 0.950 . S
H4890 C4919 0.950 . S
H4891 C4920 0.950 . S
H4892 C4922 0.950 . S
H4893 C4923 0.950 . S
C4894 H4876 0.951 . S
C4894 C4895 1.366 . S
C4894 C4896 1.388 . S
C4895 C4894 1.366 . S
C4895 C4899 1.385 . S
C4896 H4877 0.951 . S
C4896 C4894 1.388 . S
C4896 C4897 1.366 . S
C4897 C4896 1.366 . S
C4897 C4898 1.414 . S
C4897 C4900 1.499 . S
C4898 H4878 0.950 . S
C4898 C4897 1.414 . S
C4898 C4899 1.374 . S
C4899 H4879 0.950 . S
C4899 C4895 1.385 . S
C4899 C4898 1.374 . S
C4900 C4897 1.499 . S
C4900 C4901 1.373 . S
C4900 C4902 1.389 . S
C4901 H4880 0.950 . S
C4901 C4900 1.373 . S
C4901 C4917 1.377 . S
C4902 C4900 1.389 . S
C4902 C4903 1.524 . S
C4902 C4916 1.377 . S
C4903 C4902 1.524 . S
C4903 C4904 1.397 . S
C4903 C4908 1.363 . S
C4904 H4881 0.950 . S
C4904 C4903 1.397 . S
C4904 C4905 1.334 . S
C4905 H4882 0.950 . S
C4905 C4904 1.334 . S
C4905 C4906 1.287 . S
C4906 C4905 1.287 . S
C4906 C4907 1.524 . S
C4906 H4925 0.913 . S
C4907 H4883 0.950 . S
C4907 C4906 1.524 . S
C4907 C4908 1.415 . S
C4908 H4884 0.950 . S
C4908 C4903 1.363 . S
C4908 C4907 1.415 . S
C4909 H4885 0.951 1_455 S
C4909 C4910 1.366 . S
C4909 C4911 1.388 . S
C4910 C4909 1.366 . S
C4910 C4914 1.385 . S
C4911 H4886 0.938 1_455 S
C4911 C4909 1.388 . S
C4911 C4912 1.366 . S
C4912 C4911 1.366 . S
C4912 C4913 1.414 . S
C4912 C4915 1.499 . S
C4913 H4887 0.950 . S
C4913 C4912 1.414 . S
C4913 C4914 1.374 . S
C4914 H4888 0.950 . S
C4914 C4910 1.385 . S
C4914 C4913 1.374 . S
C4915 C4912 1.499 . S
C4915 C4916 1.373 . S
C4915 C4917 1.389 . S
C4916 H4889 0.950 . S
C4916 C4902 1.377 . S
C4916 C4915 1.373 . S
C4917 C4901 1.377 . S
C4917 C4915 1.389 . S
C4917 C4918 1.524 . S
C4918 C4917 1.524 . S
C4918 C4919 1.397 . S
C4918 C4923 1.363 1_455 S
C4919 H4890 0.950 . S
C4919 C4918 1.397 . S
C4919 C4920 1.334 . S
C4920 H4891 0.950 . S
C4920 C4919 1.334 . S
C4920 C4921 1.287 . S
C4921 C4920 1.287 . S
C4921 C4922 1.524 1_455 S
C4921 H4924 0.999 . S
C4922 H4892 0.950 . S
C4922 C4921 1.524 1_655 S
C4922 C4923 1.415 . S
C4923 H4893 0.950 . S
C4923 C4918 1.363 1_655 S
C4923 C4922 1.415 . S
H4924 C4921 0.999 . S
H4925 C4906 0.913 . S
H4926 C4944 0.951 . S
H4927 C4946 0.951 . S
H4928 C4948 0.950 . S
H4929 C4949 0.950 . S
H4930 C4951 0.950 . S
H4931 C4954 0.950 . S
H4932 C4955 0.950 . S
H4933 C4957 0.950 . S
H4934 C4958 0.950 . S
H4935 C4959 0.951 . S
H4936 C4961 0.951 . S
H4937 C4963 0.950 . S
H4938 C4964 0.950 . S
H4939 C4966 0.950 . S
H4940 C4969 0.950 . S
H4941 C4970 0.950 . S
H4942 C4972 0.950 . S
H4943 C4973 0.950 . S
C4944 H4926 0.951 . S
C4944 C4945 1.366 . S
C4944 C4946 1.388 . S
C4945 C4944 1.366 . S
C4945 C4949 1.385 . S
C4946 H4927 0.951 . S
C4946 C4944 1.388 . S
C4946 C4947 1.366 . S
C4947 C4946 1.366 . S
C4947 C4948 1.414 . S
C4947 C4950 1.499 . S
C4948 H4928 0.950 . S
C4948 C4947 1.414 . S
C4948 C4949 1.374 . S
C4949 H4929 0.950 . S
C4949 C4945 1.385 . S
C4949 C4948 1.374 . S
C4950 C4947 1.499 . S
C4950 C4951 1.373 . S
C4950 C4952 1.389 . S
C4951 H4930 0.950 . S
C4951 C4950 1.373 . S
C4951 C4967 1.377 . S
C4952 C4950 1.389 . S
C4952 C4953 1.524 . S
C4952 C4966 1.377 . S
C4953 C4952 1.524 . S
C4953 C4954 1.397 . S
C4953 C4958 1.363 . S
C4954 H4931 0.950 . S
C4954 C4953 1.397 . S
C4954 C4955 1.334 . S
C4955 H4932 0.950 . S
C4955 C4954 1.334 . S
C4955 C4956 1.287 . S
C4956 C4955 1.287 . S
C4956 C4957 1.524 . S
C4956 H4975 0.913 . S
C4957 H4933 0.950 . S
C4957 C4956 1.524 . S
C4957 C4958 1.415 . S
C4958 H4934 0.950 . S
C4958 C4953 1.363 . S
C4958 C4957 1.415 . S
C4959 H4935 0.951 . S
C4959 C4960 1.366 . S
C4959 C4961 1.388 . S
C4960 C4959 1.366 . S
C4960 C4964 1.385 . S
C4961 H4936 0.951 . S
C4961 C4959 1.388 . S
C4961 C4962 1.366 . S
C4962 C4961 1.366 . S
C4962 C4963 1.414 . S
C4962 C4965 1.499 . S
C4963 H4937 0.950 . S
C4963 C4962 1.414 . S
C4963 C4964 1.374 . S
C4964 H4938 0.950 . S
C4964 C4960 1.385 . S
C4964 C4963 1.374 . S
C4965 C4962 1.499 . S
C4965 C4966 1.373 . S
C4965 C4967 1.389 . S
C4966 H4939 0.950 . S
C4966 C4952 1.377 . S
C4966 C4965 1.373 . S
C4967 C4951 1.377 . S
C4967 C4965 1.389 . S
C4967 C4968 1.524 . S
C4968 C4967 1.524 . S
C4968 C4969 1.397 . S
C4968 C4973 1.363 . S
C4969 H4940 0.950 . S
C4969 C4968 1.397 . S
C4969 C4970 1.334 . S
C4970 H4941 0.950 . S
C4970 C4969 1.334 . S
C4970 C4971 1.287 . S
C4971 C4970 1.287 . S
C4971 C4972 1.524 . S
C4971 H4974 0.999 . S
C4972 H4942 0.950 . S
C4972 C4971 1.524 . S
C4972 C4973 1.415 . S
C4973 H4943 0.950 . S
C4973 C4968 1.363 . S
C4973 C4972 1.415 . S
H4974 C4971 0.999 . S
H4975 C4956 0.913 . S
H4976 C4994 0.951 . S
H4977 C4996 0.951 . S
H4978 C4998 0.950 . S
H4979 C4999 0.950 . S
H4980 C5001 0.950 . S
H4981 C5004 0.950 . S
H4982 C5005 0.950 . S
H4983 C5007 0.950 . S
H4984 C5008 0.950 . S
H4985 C5009 0.951 . S
H4986 C5011 0.951 . S
H4987 C5013 0.950 . S
H4988 C5014 0.950 . S
H4989 C5016 0.950 . S
H4990 C5019 0.950 . S
H4991 C5020 0.950 . S
H4992 C5022 0.950 . S
H4993 C5023 0.950 . S
C4994 H4976 0.951 . S
C4994 C4995 1.366 . S
C4994 C4996 1.388 . S
C4995 C4994 1.366 . S
C4995 C4999 1.385 . S
C4996 H4977 0.951 . S
C4996 C4994 1.388 . S
C4996 C4997 1.366 . S
C4997 C4996 1.366 . S
C4997 C4998 1.414 . S
C4997 C5000 1.499 . S
C4998 H4978 0.950 . S
C4998 C4997 1.414 . S
C4998 C4999 1.374 . S
C4999 H4979 0.950 . S
C4999 C4995 1.385 . S
C4999 C4998 1.374 . S
C5000 C4997 1.499 . S
C5000 C5001 1.373 . S
C5000 C5002 1.389 . S
C5001 H4980 0.950 . S
C5001 C5000 1.373 . S
C5001 C5017 1.377 . S
C5002 C5000 1.389 . S
C5002 C5003 1.524 . S
C5002 C5016 1.377 . S
C5003 C5002 1.524 . S
C5003 C5004 1.397 . S
C5003 C5008 1.363 . S
C5004 H4981 0.950 . S
C5004 C5003 1.397 . S
C5004 C5005 1.334 . S
C5005 H4982 0.950 . S
C5005 C5004 1.334 . S
C5005 C5006 1.287 . S
C5006 C5005 1.287 . S
C5006 C5007 1.524 . S
C5006 H5025 0.913 . S
C5007 H4983 0.950 . S
C5007 C5006 1.524 . S
C5007 C5008 1.415 . S
C5008 H4984 0.950 . S
C5008 C5003 1.363 . S
C5008 C5007 1.415 . S
C5009 H4985 0.951 . S
C5009 C5010 1.366 . S
C5009 C5011 1.388 . S
C5010 C5009 1.366 . S
C5010 C5014 1.385 . S
C5011 H4986 0.951 . S
C5011 C5009 1.388 . S
C5011 C5012 1.366 . S
C5012 C5011 1.366 . S
C5012 C5013 1.414 . S
C5012 C5015 1.499 . S
C5013 H4987 0.950 . S
C5013 C5012 1.414 . S
C5013 C5014 1.374 . S
C5014 H4988 0.950 . S
C5014 C5010 1.385 . S
C5014 C5013 1.374 . S
C5015 C5012 1.499 . S
C5015 C5016 1.373 . S
C5015 C5017 1.389 . S
C5016 H4989 0.950 . S
C5016 C5002 1.377 . S
C5016 C5015 1.373 . S
C5017 C5001 1.377 . S
C5017 C5015 1.389 . S
C5017 C5018 1.524 . S
C5018 C5017 1.524 . S
C5018 C5019 1.397 . S
C5018 C5023 1.363 . S
C5019 H4990 0.950 . S
C5019 C5018 1.397 . S
C5019 C5020 1.334 . S
C5020 H4991 0.950 . S
C5020 C5019 1.334 . S
C5020 C5021 1.287 . S
C5021 C5020 1.287 . S
C5021 C5022 1.524 . S
C5021 H5024 0.999 . S
C5022 H4992 0.950 . S
C5022 C5021 1.524 . S
C5022 C5023 1.415 . S
C5023 H4993 0.950 . S
C5023 C5018 1.363 . S
C5023 C5022 1.415 . S
H5024 C5021 0.999 . S
H5025 C5006 0.913 . S
H5026 C5044 0.951 . S
H5027 C5046 0.951 . S
H5028 C5048 0.950 . S
H5029 C5049 0.950 . S
H5030 C5051 0.950 . S
H5031 C5054 0.950 . S
H5032 C5055 0.950 . S
H5033 C5057 0.950 . S
H5034 C5058 0.950 . S
H5035 C5059 0.951 . S
H5036 C5061 0.951 . S
H5037 C5063 0.950 . S
H5038 C5064 0.950 . S
H5039 C5066 0.950 . S
H5040 C5069 0.950 . S
H5041 C5070 0.950 . S
H5042 C5072 0.950 . S
H5043 C5073 0.950 . S
C5044 H5026 0.951 . S
C5044 C5045 1.366 . S
C5044 C5046 1.388 . S
C5045 C5044 1.366 . S
C5045 C5049 1.385 . S
C5046 H5027 0.951 . S
C5046 C5044 1.388 . S
C5046 C5047 1.366 . S
C5047 C5046 1.366 . S
C5047 C5048 1.414 . S
C5047 C5050 1.499 . S
C5048 H5028 0.950 . S
C5048 C5047 1.414 . S
C5048 C5049 1.374 . S
C5049 H5029 0.950 . S
C5049 C5045 1.385 . S
C5049 C5048 1.374 . S
C5050 C5047 1.499 . S
C5050 C5051 1.373 . S
C5050 C5052 1.389 . S
C5051 H5030 0.950 . S
C5051 C5050 1.373 . S
C5051 C5067 1.377 . S
C5052 C5050 1.389 . S
C5052 C5053 1.524 . S
C5052 C5066 1.377 . S
C5053 C5052 1.524 . S
C5053 C5054 1.397 . S
C5053 C5058 1.363 . S
C5054 H5031 0.950 . S
C5054 C5053 1.397 . S
C5054 C5055 1.334 . S
C5055 H5032 0.950 . S
C5055 C5054 1.334 . S
C5055 C5056 1.287 . S
C5056 C5055 1.287 . S
C5056 C5057 1.524 . S
C5056 H5075 0.913 . S
C5057 H5033 0.950 . S
C5057 C5056 1.524 . S
C5057 C5058 1.415 . S
C5058 H5034 0.950 . S
C5058 C5053 1.363 . S
C5058 C5057 1.415 . S
C5059 H5035 0.951 . S
C5059 C5060 1.366 . S
C5059 C5061 1.388 . S
C5060 C5059 1.366 . S
C5060 C5064 1.385 . S
C5061 H5036 0.951 . S
C5061 C5059 1.388 . S
C5061 C5062 1.366 . S
C5062 C5061 1.366 . S
C5062 C5063 1.414 . S
C5062 C5065 1.499 . S
C5063 H5037 0.950 . S
C5063 C5062 1.414 . S
C5063 C5064 1.374 . S
C5064 H5038 0.950 . S
C5064 C5060 1.385 . S
C5064 C5063 1.374 . S
C5065 C5062 1.499 . S
C5065 C5066 1.373 . S
C5065 C5067 1.389 . S
C5066 H5039 0.950 . S
C5066 C5052 1.377 . S
C5066 C5065 1.373 . S
C5067 C5051 1.377 . S
C5067 C5065 1.389 . S
C5067 C5068 1.524 . S
C5068 C5067 1.524 . S
C5068 C5069 1.397 . S
C5068 C5073 1.363 . S
C5069 H5040 0.950 . S
C5069 C5068 1.397 . S
C5069 C5070 1.334 . S
C5070 H5041 0.950 . S
C5070 C5069 1.334 . S
C5070 C5071 1.287 . S
C5071 C5070 1.287 . S
C5071 C5072 1.524 . S
C5071 H5074 0.999 . S
C5072 H5042 0.950 . S
C5072 C5071 1.524 . S
C5072 C5073 1.415 . S
C5073 H5043 0.950 . S
C5073 C5068 1.363 . S
C5073 C5072 1.415 . S
H5074 C5071 0.999 . S
H5075 C5056 0.913 . S
H5076 C5094 0.951 . S
H5077 C5096 0.951 . S
H5078 C5098 0.950 . S
H5079 C5099 0.950 . S
H5080 C5101 0.950 . S
H5081 C5104 0.950 . S
H5082 C5105 0.950 . S
H5083 C5107 0.950 . S
H5084 C5108 0.950 . S
H5085 C5109 0.951 . S
H5086 C5111 0.951 . S
H5087 C5113 0.950 . S
H5088 C5114 0.950 . S
H5089 C5116 0.950 . S
H5090 C5119 0.950 . S
H5091 C5120 0.950 . S
H5092 C5122 0.950 . S
H5093 C5123 0.950 . S
C5094 H5076 0.951 . S
C5094 C5095 1.366 . S
C5094 C5096 1.388 . S
C5095 C5094 1.366 . S
C5095 C5099 1.385 . S
C5096 H5077 0.951 . S
C5096 C5094 1.388 . S
C5096 C5097 1.366 . S
C5097 C5096 1.366 . S
C5097 C5098 1.414 . S
C5097 C5100 1.499 . S
C5098 H5078 0.950 . S
C5098 C5097 1.414 . S
C5098 C5099 1.374 . S
C5099 H5079 0.950 . S
C5099 C5095 1.385 . S
C5099 C5098 1.374 . S
C5100 C5097 1.499 . S
C5100 C5101 1.373 . S
C5100 C5102 1.389 . S
C5101 H5080 0.950 . S
C5101 C5100 1.373 . S
C5101 C5117 1.377 . S
C5102 C5100 1.389 . S
C5102 C5103 1.524 . S
C5102 C5116 1.377 . S
C5103 C5102 1.524 . S
C5103 C5104 1.397 . S
C5103 C5108 1.363 . S
C5104 H5081 0.950 . S
C5104 C5103 1.397 . S
C5104 C5105 1.334 . S
C5105 H5082 0.950 . S
C5105 C5104 1.334 . S
C5105 C5106 1.287 . S
C5106 C5105 1.287 . S
C5106 C5107 1.524 . S
C5106 H5125 0.913 . S
C5107 H5083 0.950 . S
C5107 C5106 1.524 . S
C5107 C5108 1.415 . S
C5108 H5084 0.950 . S
C5108 C5103 1.363 . S
C5108 C5107 1.415 . S
C5109 H5085 0.951 . S
C5109 C5110 1.366 1_556 S
C5109 C5111 1.388 1_455 S
C5110 C5109 1.366 1_554 S
C5110 C5114 1.385 1_455 S
C5111 H5086 0.951 . S
C5111 C5109 1.388 1_655 S
C5111 C5112 1.366 . S
C5112 C5111 1.366 . S
C5112 C5113 1.414 . S
C5112 C5115 1.499 . S
C5113 H5087 0.950 . S
C5113 C5112 1.414 . S
C5113 C5114 1.374 1_556 S
C5114 H5088 0.950 . S
C5114 C5110 1.385 1_655 S
C5114 C5113 1.374 1_554 S
C5115 C5112 1.499 . S
C5115 C5116 1.373 . S
C5115 C5117 1.389 . S
C5116 H5089 0.950 . S
C5116 C5102 1.377 . S
C5116 C5115 1.373 . S
C5117 C5101 1.377 . S
C5117 C5115 1.389 . S
C5117 C5118 1.524 . S
C5118 C5117 1.524 . S
C5118 C5119 1.397 . S
C5118 C5123 1.363 . S
C5119 H5090 0.950 . S
C5119 C5118 1.397 . S
C5119 C5120 1.334 . S
C5120 H5091 0.950 . S
C5120 C5119 1.334 . S
C5120 C5121 1.287 . S
C5121 C5120 1.287 . S
C5121 C5122 1.524 . S
C5121 H5124 0.999 . S
C5122 H5092 0.950 . S
C5122 C5121 1.524 . S
C5122 C5123 1.415 . S
C5123 H5093 0.950 . S
C5123 C5118 1.363 . S
C5123 C5122 1.415 . S
H5124 C5121 0.999 . S
H5125 C5106 0.913 . S
H5126 C5144 0.951 . S
H5127 C5146 0.951 . S
H5128 C5148 0.950 . S
H5129 C5149 0.950 . S
H5130 C5151 0.950 . S
H5131 C5154 0.950 . S
H5132 C5155 0.950 . S
H5133 C5157 0.950 . S
H5134 C5158 0.950 . S
H5135 C5159 0.951 . S
H5136 C5161 0.951 . S
H5137 C5163 0.950 . S
H5138 C5164 0.950 . S
H5139 C5166 0.950 . S
H5140 C5169 0.950 . S
H5141 C5170 0.950 . S
H5142 C5172 0.950 . S
H5143 C5173 0.950 . S
C5144 H5126 0.951 . S
C5144 C5145 1.366 . S
C5144 C5146 1.388 . S
C5145 C5144 1.366 . S
C5145 C5149 1.385 . S
C5146 H5127 0.951 . S
C5146 C5144 1.388 . S
C5146 C5147 1.366 . S
C5147 C5146 1.366 . S
C5147 C5148 1.414 . S
C5147 C5150 1.499 . S
C5148 H5128 0.950 . S
C5148 C5147 1.414 . S
C5148 C5149 1.374 . S
C5149 H5129 0.950 . S
C5149 C5145 1.385 . S
C5149 C5148 1.374 . S
C5150 C5147 1.499 . S
C5150 C5151 1.373 . S
C5150 C5152 1.389 . S
C5151 H5130 0.950 . S
C5151 C5150 1.373 . S
C5151 C5167 1.377 . S
C5152 C5150 1.389 . S
C5152 C5153 1.524 . S
C5152 C5166 1.377 . S
C5153 C5152 1.524 . S
C5153 C5154 1.397 . S
C5153 C5158 1.363 . S
C5154 H5131 0.950 . S
C5154 C5153 1.397 . S
C5154 C5155 1.334 . S
C5155 H5132 0.950 . S
C5155 C5154 1.334 . S
C5155 C5156 1.287 . S
C5156 C5155 1.287 . S
C5156 C5157 1.524 . S
C5156 H5175 0.913 . S
C5157 H5133 0.950 . S
C5157 C5156 1.524 . S
C5157 C5158 1.415 . S
C5158 H5134 0.950 . S
C5158 C5153 1.363 . S
C5158 C5157 1.415 . S
C5159 H5135 0.951 . S
C5159 C5160 1.366 . S
C5159 C5161 1.388 . S
C5160 C5159 1.366 . S
C5160 C5164 1.385 . S
C5161 H5136 0.951 . S
C5161 C5159 1.388 . S
C5161 C5162 1.366 . S
C5162 C5161 1.366 . S
C5162 C5163 1.414 . S
C5162 C5165 1.499 . S
C5163 H5137 0.950 . S
C5163 C5162 1.414 . S
C5163 C5164 1.374 . S
C5164 H5138 0.950 . S
C5164 C5160 1.385 . S
C5164 C5163 1.374 . S
C5165 C5162 1.499 . S
C5165 C5166 1.373 . S
C5165 C5167 1.389 . S
C5166 H5139 0.950 . S
C5166 C5152 1.377 . S
C5166 C5165 1.373 . S
C5167 C5151 1.377 . S
C5167 C5165 1.389 . S
C5167 C5168 1.524 . S
C5168 C5167 1.524 . S
C5168 C5169 1.397 . S
C5168 C5173 1.363 . S
C5169 H5140 0.950 . S
C5169 C5168 1.397 . S
C5169 C5170 1.334 . S
C5170 H5141 0.950 . S
C5170 C5169 1.334 . S
C5170 C5171 1.287 . S
C5171 C5170 1.287 . S
C5171 C5172 1.524 . S
C5171 H5174 0.999 . S
C5172 H5142 0.950 . S
C5172 C5171 1.524 . S
C5172 C5173 1.415 . S
C5173 H5143 0.950 . S
C5173 C5168 1.363 . S
C5173 C5172 1.415 . S
H5174 C5171 0.999 . S
H5175 C5156 0.913 . S
H5176 C5194 0.951 . S
H5177 C5196 0.951 . S
H5178 C5198 0.950 . S
H5179 C5199 0.950 . S
H5180 C5201 0.950 . S
H5181 C5204 0.950 . S
H5182 C5205 0.950 . S
H5183 C5207 0.950 . S
H5184 C5208 0.950 . S
H5185 C5209 0.951 . S
H5186 C5211 0.951 . S
H5187 C5213 0.950 . S
H5188 C5214 0.950 . S
H5189 C5216 0.950 . S
H5190 C5219 0.950 . S
H5191 C5220 0.950 . S
H5192 C5222 0.950 . S
H5193 C5223 0.950 . S
C5194 H5176 0.951 . S
C5194 C5195 1.366 . S
C5194 C5196 1.388 . S
C5195 C5194 1.366 . S
C5195 C5199 1.385 . S
C5196 H5177 0.951 . S
C5196 C5194 1.388 . S
C5196 C5197 1.366 . S
C5197 C5196 1.366 . S
C5197 C5198 1.414 . S
C5197 C5200 1.499 . S
C5198 H5178 0.950 . S
C5198 C5197 1.414 . S
C5198 C5199 1.374 . S
C5199 H5179 0.950 . S
C5199 C5195 1.385 . S
C5199 C5198 1.374 . S
C5200 C5197 1.499 . S
C5200 C5201 1.373 . S
C5200 C5202 1.389 . S
C5201 H5180 0.950 . S
C5201 C5200 1.373 . S
C5201 C5217 1.377 . S
C5202 C5200 1.389 . S
C5202 C5203 1.524 . S
C5202 C5216 1.377 . S
C5203 C5202 1.524 . S
C5203 C5204 1.397 . S
C5203 C5208 1.363 . S
C5204 H5181 0.950 . S
C5204 C5203 1.397 . S
C5204 C5205 1.334 . S
C5205 H5182 0.950 . S
C5205 C5204 1.334 . S
C5205 C5206 1.287 . S
C5206 C5205 1.287 . S
C5206 C5207 1.524 . S
C5206 H5225 0.913 . S
C5207 H5183 0.950 . S
C5207 C5206 1.524 . S
C5207 C5208 1.415 . S
C5208 H5184 0.950 . S
C5208 C5203 1.363 . S
C5208 C5207 1.415 . S
C5209 H5185 0.951 . S
C5209 C5210 1.366 . S
C5209 C5211 1.388 . S
C5210 C5209 1.366 . S
C5210 C5214 1.385 . S
C5211 H5186 0.951 . S
C5211 C5209 1.388 . S
C5211 C5212 1.366 . S
C5212 C5211 1.366 . S
C5212 C5213 1.414 . S
C5212 C5215 1.499 . S
C5213 H5187 0.950 . S
C5213 C5212 1.414 . S
C5213 C5214 1.374 . S
C5214 H5188 0.950 . S
C5214 C5210 1.385 . S
C5214 C5213 1.374 . S
C5215 C5212 1.499 . S
C5215 C5216 1.373 . S
C5215 C5217 1.389 . S
C5216 H5189 0.950 . S
C5216 C5202 1.377 . S
C5216 C5215 1.373 . S
C5217 C5201 1.377 . S
C5217 C5215 1.389 . S
C5217 C5218 1.524 . S
C5218 C5217 1.524 . S
C5218 C5219 1.397 . S
C5218 C5223 1.363 . S
C5219 H5190 0.950 . S
C5219 C5218 1.397 . S
C5219 C5220 1.334 . S
C5220 H5191 0.950 . S
C5220 C5219 1.334 . S
C5220 C5221 1.287 . S
C5221 C5220 1.287 . S
C5221 C5222 1.524 . S
C5221 H5224 0.999 . S
C5222 H5192 0.950 . S
C5222 C5221 1.524 . S
C5222 C5223 1.415 . S
C5223 H5193 0.950 . S
C5223 C5218 1.363 . S
C5223 C5222 1.415 . S
H5224 C5221 0.999 . S
H5225 C5206 0.913 . S
H5226 C5244 0.951 . S
H5227 C5246 0.951 . S
H5228 C5248 0.950 . S
H5229 C5249 0.950 . S
H5230 C5251 0.950 . S
H5231 C5254 0.950 . S
H5232 C5255 0.950 . S
H5233 C5257 0.950 . S
H5234 C5258 0.950 . S
H5235 C5259 0.951 . S
H5236 C5261 0.951 . S
H5237 C5263 0.950 . S
H5238 C5264 0.950 . S
H5239 C5266 0.950 . S
H5240 C5269 0.950 . S
H5241 C5270 0.950 . S
H5242 C5272 0.950 . S
H5243 C5273 0.950 . S
C5244 H5226 0.951 . S
C5244 C5245 1.366 . S
C5244 C5246 1.388 . S
C5245 C5244 1.366 . S
C5245 C5249 1.385 . S
C5246 H5227 0.951 . S
C5246 C5244 1.388 . S
C5246 C5247 1.366 . S
C5247 C5246 1.366 . S
C5247 C5248 1.414 . S
C5247 C5250 1.499 . S
C5248 H5228 0.950 . S
C5248 C5247 1.414 . S
C5248 C5249 1.374 . S
C5249 H5229 0.950 . S
C5249 C5245 1.385 . S
C5249 C5248 1.374 . S
C5250 C5247 1.499 . S
C5250 C5251 1.373 . S
C5250 C5252 1.389 . S
C5251 H5230 0.950 . S
C5251 C5250 1.373 . S
C5251 C5267 1.377 . S
C5252 C5250 1.389 . S
C5252 C5253 1.524 . S
C5252 C5266 1.377 . S
C5253 C5252 1.524 . S
C5253 C5254 1.397 . S
C5253 C5258 1.363 . S
C5254 H5231 0.950 . S
C5254 C5253 1.397 . S
C5254 C5255 1.334 . S
C5255 H5232 0.950 . S
C5255 C5254 1.334 . S
C5255 C5256 1.287 . S
C5256 C5255 1.287 . S
C5256 C5257 1.524 . S
C5256 H5275 0.913 . S
C5257 H5233 0.950 . S
C5257 C5256 1.524 . S
C5257 C5258 1.415 . S
C5258 H5234 0.950 . S
C5258 C5253 1.363 . S
C5258 C5257 1.415 . S
C5259 H5235 0.951 . S
C5259 C5260 1.366 . S
C5259 C5261 1.388 . S
C5260 C5259 1.366 . S
C5260 C5264 1.385 . S
C5261 H5236 0.951 . S
C5261 C5259 1.388 . S
C5261 C5262 1.366 . S
C5262 C5261 1.366 . S
C5262 C5263 1.414 . S
C5262 C5265 1.499 . S
C5263 H5237 0.950 . S
C5263 C5262 1.414 . S
C5263 C5264 1.374 . S
C5264 H5238 0.950 . S
C5264 C5260 1.385 . S
C5264 C5263 1.374 . S
C5265 C5262 1.499 . S
C5265 C5266 1.373 . S
C5265 C5267 1.389 . S
C5266 H5239 0.950 . S
C5266 C5252 1.377 . S
C5266 C5265 1.373 . S
C5267 C5251 1.377 . S
C5267 C5265 1.389 . S
C5267 C5268 1.524 . S
C5268 C5267 1.524 . S
C5268 C5269 1.397 . S
C5268 C5273 1.363 . S
C5269 H5240 0.950 . S
C5269 C5268 1.397 . S
C5269 C5270 1.334 . S
C5270 H5241 0.950 . S
C5270 C5269 1.334 . S
C5270 C5271 1.287 . S
C5271 C5270 1.287 . S
C5271 C5272 1.524 . S
C5271 H5274 0.999 . S
C5272 H5242 0.950 . S
C5272 C5271 1.524 . S
C5272 C5273 1.415 . S
C5273 H5243 0.950 . S
C5273 C5268 1.363 . S
C5273 C5272 1.415 . S
H5274 C5271 0.999 . S
H5275 C5256 0.913 . S
H5276 C5294 0.951 . S
H5277 C5296 0.951 . S
H5278 C5298 0.950 . S
H5279 C5299 0.950 . S
H5280 C5301 0.950 . S
H5281 C5304 0.950 . S
H5282 C5305 0.950 . S
H5283 C5307 0.950 . S
H5284 C5308 0.950 . S
H5285 C5309 0.951 . S
H5286 C5311 0.951 . S
H5287 C5313 0.950 . S
H5288 C5314 0.950 . S
H5289 C5316 0.950 . S
H5290 C5319 0.950 . S
H5291 C5320 0.950 . S
H5292 C5322 0.950 . S
H5293 C5323 0.950 . S
C5294 H5276 0.951 . S
C5294 C5295 1.366 . S
C5294 C5296 1.388 . S
C5295 C5294 1.366 . S
C5295 C5299 1.385 . S
C5296 H5277 0.951 . S
C5296 C5294 1.388 . S
C5296 C5297 1.366 . S
C5297 C5296 1.366 . S
C5297 C5298 1.414 . S
C5297 C5300 1.499 . S
C5298 H5278 0.950 . S
C5298 C5297 1.414 . S
C5298 C5299 1.374 . S
C5299 H5279 0.950 . S
C5299 C5295 1.385 . S
C5299 C5298 1.374 . S
C5300 C5297 1.499 . S
C5300 C5301 1.373 . S
C5300 C5302 1.389 . S
C5301 H5280 0.950 . S
C5301 C5300 1.373 . S
C5301 C5317 1.377 . S
C5302 C5300 1.389 . S
C5302 C5303 1.524 . S
C5302 C5316 1.377 . S
C5303 C5302 1.524 . S
C5303 C5304 1.397 . S
C5303 C5308 1.363 . S
C5304 H5281 0.950 . S
C5304 C5303 1.397 . S
C5304 C5305 1.334 . S
C5305 H5282 0.950 . S
C5305 C5304 1.334 . S
C5305 C5306 1.287 . S
C5306 C5305 1.287 . S
C5306 C5307 1.524 . S
C5306 H5325 0.913 . S
C5307 H5283 0.950 . S
C5307 C5306 1.524 . S
C5307 C5308 1.415 . S
C5308 H5284 0.950 . S
C5308 C5303 1.363 . S
C5308 C5307 1.415 . S
C5309 H5285 0.951 . S
C5309 C5310 1.366 . S
C5309 C5311 1.388 . S
C5310 C5309 1.366 . S
C5310 C5314 1.385 . S
C5311 H5286 0.951 . S
C5311 C5309 1.388 . S
C5311 C5312 1.366 . S
C5312 C5311 1.366 . S
C5312 C5313 1.414 . S
C5312 C5315 1.499 . S
C5313 H5287 0.950 . S
C5313 C5312 1.414 . S
C5313 C5314 1.374 . S
C5314 H5288 0.950 . S
C5314 C5310 1.385 . S
C5314 C5313 1.374 . S
C5315 C5312 1.499 . S
C5315 C5316 1.373 . S
C5315 C5317 1.389 . S
C5316 H5289 0.950 . S
C5316 C5302 1.377 . S
C5316 C5315 1.373 . S
C5317 C5301 1.377 . S
C5317 C5315 1.389 . S
C5317 C5318 1.524 . S
C5318 C5317 1.524 . S
C5318 C5319 1.397 . S
C5318 C5323 1.363 . S
C5319 H5290 0.950 . S
C5319 C5318 1.397 . S
C5319 C5320 1.334 . S
C5320 H5291 0.950 . S
C5320 C5319 1.334 . S
C5320 C5321 1.287 . S
C5321 C5320 1.287 . S
C5321 C5322 1.524 . S
C5321 H5324 0.999 . S
C5322 H5292 0.950 . S
C5322 C5321 1.524 . S
C5322 C5323 1.415 . S
C5323 H5293 0.950 . S
C5323 C5318 1.363 . S
C5323 C5322 1.415 . S
H5324 C5321 0.999 . S
H5325 C5306 0.913 . S
H5326 C5344 0.951 . S
H5327 C5346 0.951 . S
H5328 C5348 0.950 . S
H5329 C5349 0.950 . S
H5330 C5351 0.950 . S
H5331 C5354 0.950 . S
H5332 C5355 0.950 . S
H5333 C5357 0.950 . S
H5334 C5358 0.950 . S
H5335 C5359 0.951 . S
H5336 C5361 0.951 . S
H5337 C5363 0.950 . S
H5338 C5364 0.950 . S
H5339 C5366 0.950 . S
H5340 C5369 0.950 . S
H5341 C5370 0.950 . S
H5342 C5372 0.950 . S
H5343 C5373 0.950 . S
C5344 H5326 0.951 . S
C5344 C5345 1.366 . S
C5344 C5346 1.388 . S
C5345 C5344 1.366 . S
C5345 C5349 1.385 . S
C5346 H5327 0.951 . S
C5346 C5344 1.388 . S
C5346 C5347 1.366 . S
C5347 C5346 1.366 . S
C5347 C5348 1.414 . S
C5347 C5350 1.499 . S
C5348 H5328 0.950 . S
C5348 C5347 1.414 . S
C5348 C5349 1.374 . S
C5349 H5329 0.950 . S
C5349 C5345 1.385 . S
C5349 C5348 1.374 . S
C5350 C5347 1.499 . S
C5350 C5351 1.373 . S
C5350 C5352 1.389 . S
C5351 H5330 0.950 . S
C5351 C5350 1.373 . S
C5351 C5367 1.377 . S
C5352 C5350 1.389 . S
C5352 C5353 1.524 . S
C5352 C5366 1.377 . S
C5353 C5352 1.524 . S
C5353 C5354 1.397 . S
C5353 C5358 1.363 . S
C5354 H5331 0.950 . S
C5354 C5353 1.397 . S
C5354 C5355 1.334 . S
C5355 H5332 0.950 . S
C5355 C5354 1.334 . S
C5355 C5356 1.287 . S
C5356 C5355 1.287 . S
C5356 C5357 1.524 . S
C5356 H5375 0.913 . S
C5357 H5333 0.950 . S
C5357 C5356 1.524 . S
C5357 C5358 1.415 . S
C5358 H5334 0.950 . S
C5358 C5353 1.363 . S
C5358 C5357 1.415 . S
C5359 H5335 0.951 . S
C5359 C5360 1.366 . S
C5359 C5361 1.388 . S
C5360 C5359 1.366 . S
C5360 C5364 1.385 . S
C5361 H5336 0.951 . S
C5361 C5359 1.388 . S
C5361 C5362 1.366 . S
C5362 C5361 1.366 . S
C5362 C5363 1.414 . S
C5362 C5365 1.499 . S
C5363 H5337 0.950 . S
C5363 C5362 1.414 . S
C5363 C5364 1.374 . S
C5364 H5338 0.950 . S
C5364 C5360 1.385 . S
C5364 C5363 1.374 . S
C5365 C5362 1.499 . S
C5365 C5366 1.373 . S
C5365 C5367 1.389 . S
C5366 H5339 0.950 . S
C5366 C5352 1.377 . S
C5366 C5365 1.373 . S
C5367 C5351 1.377 . S
C5367 C5365 1.389 . S
C5367 C5368 1.524 . S
C5368 C5367 1.524 . S
C5368 C5369 1.397 . S
C5368 C5373 1.363 . S
C5369 H5340 0.950 . S
C5369 C5368 1.397 . S
C5369 C5370 1.334 . S
C5370 H5341 0.950 . S
C5370 C5369 1.334 . S
C5370 C5371 1.287 . S
C5371 C5370 1.287 . S
C5371 C5372 1.524 . S
C5371 H5374 0.999 . S
C5372 H5342 0.950 . S
C5372 C5371 1.524 . S
C5372 C5373 1.415 . S
C5373 H5343 0.950 . S
C5373 C5368 1.363 . S
C5373 C5372 1.415 . S
H5374 C5371 0.999 . S
H5375 C5356 0.913 . S
H5376 C5394 0.951 . S
H5377 C5396 0.951 . S
H5378 C5398 0.950 . S
H5379 C5399 0.950 . S
H5380 C5401 0.950 . S
H5381 C5404 0.950 . S
H5382 C5405 0.950 . S
H5383 C5407 0.950 . S
H5384 C5408 0.950 . S
H5385 C5409 0.951 . S
H5386 C5411 0.951 . S
H5387 C5413 0.950 . S
H5388 C5414 0.950 . S
H5389 C5416 0.950 . S
H5390 C5419 0.950 . S
H5391 C5420 0.950 . S
H5392 C5422 0.950 . S
H5393 C5423 0.950 . S
C5394 H5376 0.951 . S
C5394 C5395 1.366 . S
C5394 C5396 1.388 . S
C5395 C5394 1.366 . S
C5395 C5399 1.385 . S
C5396 H5377 0.951 . S
C5396 C5394 1.388 . S
C5396 C5397 1.366 . S
C5397 C5396 1.366 . S
C5397 C5398 1.414 . S
C5397 C5400 1.499 . S
C5398 H5378 0.950 . S
C5398 C5397 1.414 . S
C5398 C5399 1.374 . S
C5399 H5379 0.950 . S
C5399 C5395 1.385 . S
C5399 C5398 1.374 . S
C5400 C5397 1.499 . S
C5400 C5401 1.373 . S
C5400 C5402 1.389 . S
C5401 H5380 0.950 . S
C5401 C5400 1.373 . S
C5401 C5417 1.377 . S
C5402 C5400 1.389 . S
C5402 C5403 1.524 . S
C5402 C5416 1.377 . S
C5403 C5402 1.524 . S
C5403 C5404 1.397 . S
C5403 C5408 1.363 . S
C5404 H5381 0.950 . S
C5404 C5403 1.397 . S
C5404 C5405 1.334 . S
C5405 H5382 0.950 . S
C5405 C5404 1.334 . S
C5405 C5406 1.287 . S
C5406 C5405 1.287 . S
C5406 C5407 1.524 . S
C5406 H5425 0.913 . S
C5407 H5383 0.950 . S
C5407 C5406 1.524 . S
C5407 C5408 1.415 . S
C5408 H5384 0.950 . S
C5408 C5403 1.363 . S
C5408 C5407 1.415 . S
C5409 H5385 0.951 . S
C5409 C5410 1.366 . S
C5409 C5411 1.388 . S
C5410 C5409 1.366 . S
C5410 C5414 1.385 . S
C5411 H5386 0.951 . S
C5411 C5409 1.388 . S
C5411 C5412 1.366 . S
C5412 C5411 1.366 . S
C5412 C5413 1.414 . S
C5412 C5415 1.499 . S
C5413 H5387 0.950 . S
C5413 C5412 1.414 . S
C5413 C5414 1.374 . S
C5414 H5388 0.950 . S
C5414 C5410 1.385 . S
C5414 C5413 1.374 . S
C5415 C5412 1.499 . S
C5415 C5416 1.373 . S
C5415 C5417 1.389 . S
C5416 H5389 0.950 . S
C5416 C5402 1.377 . S
C5416 C5415 1.373 . S
C5417 C5401 1.377 . S
C5417 C5415 1.389 . S
C5417 C5418 1.524 . S
C5418 C5417 1.524 . S
C5418 C5419 1.397 . S
C5418 C5423 1.363 . S
C5419 H5390 0.950 . S
C5419 C5418 1.397 . S
C5419 C5420 1.334 . S
C5420 H5391 0.950 . S
C5420 C5419 1.334 . S
C5420 C5421 1.287 . S
C5421 C5420 1.287 . S
C5421 C5422 1.524 . S
C5421 H5424 0.999 . S
C5422 H5392 0.950 . S
C5422 C5421 1.524 . S
C5422 C5423 1.415 . S
C5423 H5393 0.950 . S
C5423 C5418 1.363 . S
C5423 C5422 1.415 . S
H5424 C5421 0.999 . S
H5425 C5406 0.913 . S
H5426 C5444 0.951 . S
H5427 C5446 0.951 . S
H5428 C5448 0.950 . S
H5429 C5449 0.950 . S
H5430 C5451 0.950 . S
H5431 C5454 0.950 . S
H5432 C5455 0.950 . S
H5433 C5457 0.950 . S
H5434 C5458 0.950 . S
H5435 C5459 0.951 . S
H5436 C5461 0.951 . S
H5437 C5463 0.950 . S
H5438 C5464 0.950 . S
H5439 C5466 0.950 . S
H5440 C5469 0.950 . S
H5441 C5470 0.950 . S
H5442 C5472 0.950 . S
H5443 C5473 0.950 . S
C5444 H5426 0.951 . S
C5444 C5445 1.366 . S
C5444 C5446 1.388 . S
C5445 C5444 1.366 . S
C5445 C5449 1.385 . S
C5446 H5427 0.951 . S
C5446 C5444 1.388 . S
C5446 C5447 1.366 . S
C5447 C5446 1.366 . S
C5447 C5448 1.414 . S
C5447 C5450 1.499 . S
C5448 H5428 0.950 . S
C5448 C5447 1.414 . S
C5448 C5449 1.374 . S
C5449 H5429 0.950 . S
C5449 C5445 1.385 . S
C5449 C5448 1.374 . S
C5450 C5447 1.499 . S
C5450 C5451 1.373 . S
C5450 C5452 1.389 . S
C5451 H5430 0.950 . S
C5451 C5450 1.373 . S
C5451 C5467 1.377 . S
C5452 C5450 1.389 . S
C5452 C5453 1.524 . S
C5452 C5466 1.377 . S
C5453 C5452 1.524 . S
C5453 C5454 1.397 . S
C5453 C5458 1.363 . S
C5454 H5431 0.950 . S
C5454 C5453 1.397 . S
C5454 C5455 1.334 . S
C5455 H5432 0.950 . S
C5455 C5454 1.334 . S
C5455 C5456 1.287 . S
C5456 C5455 1.287 . S
C5456 C5457 1.524 . S
C5456 H5475 0.913 . S
C5457 H5433 0.950 . S
C5457 C5456 1.524 . S
C5457 C5458 1.415 . S
C5458 H5434 0.950 . S
C5458 C5453 1.363 . S
C5458 C5457 1.415 . S
C5459 H5435 0.951 . S
C5459 C5460 1.366 1_565 S
C5459 C5461 1.388 . S
C5460 C5459 1.366 1_545 S
C5460 C5464 1.385 . S
C5461 H5436 0.951 . S
C5461 C5459 1.388 . S
C5461 C5462 1.366 . S
C5462 C5461 1.366 . S
C5462 C5463 1.414 . S
C5462 C5465 1.499 . S
C5463 H5437 0.950 . S
C5463 C5462 1.414 . S
C5463 C5464 1.374 1_565 S
C5464 H5438 0.950 . S
C5464 C5460 1.385 . S
C5464 C5463 1.374 1_545 S
C5465 C5462 1.499 . S
C5465 C5466 1.373 . S
C5465 C5467 1.389 . S
C5466 H5439 0.950 . S
C5466 C5452 1.377 . S
C5466 C5465 1.373 . S
C5467 C5451 1.377 . S
C5467 C5465 1.389 . S
C5467 C5468 1.524 . S
C5468 C5467 1.524 . S
C5468 C5469 1.397 . S
C5468 C5473 1.363 . S
C5469 H5440 0.950 . S
C5469 C5468 1.397 . S
C5469 C5470 1.334 . S
C5470 H5441 0.950 . S
C5470 C5469 1.334 . S
C5470 C5471 1.287 . S
C5471 C5470 1.287 . S
C5471 C5472 1.524 . S
C5471 H5474 0.999 . S
C5472 H5442 0.950 . S
C5472 C5471 1.524 . S
C5472 C5473 1.415 . S
C5473 H5443 0.950 . S
C5473 C5468 1.363 . S
C5473 C5472 1.415 . S
H5474 C5471 0.999 . S
H5475 C5456 0.913 . S
H5476 C5494 0.951 . S
H5477 C5496 0.951 . S
H5478 C5498 0.950 . S
H5479 C5499 0.950 . S
H5480 C5501 0.950 . S
H5481 C5504 0.950 . S
H5482 C5505 0.950 . S
H5483 C5507 0.950 . S
H5484 C5508 0.950 . S
H5485 C5509 0.951 . S
H5486 C5511 0.951 . S
H5487 C5513 0.950 . S
H5488 C5514 0.950 . S
H5489 C5516 0.950 . S
H5490 C5519 0.950 . S
H5491 C5520 0.950 . S
H5492 C5522 0.950 . S
H5493 C5523 0.950 . S
C5494 H5476 0.951 . S
C5494 C5495 1.366 . S
C5494 C5496 1.388 . S
C5495 C5494 1.366 . S
C5495 C5499 1.385 . S
C5496 H5477 0.951 . S
C5496 C5494 1.388 . S
C5496 C5497 1.366 . S
C5497 C5496 1.366 . S
C5497 C5498 1.414 . S
C5497 C5500 1.499 . S
C5498 H5478 0.950 . S
C5498 C5497 1.414 . S
C5498 C5499 1.374 . S
C5499 H5479 0.950 . S
C5499 C5495 1.385 . S
C5499 C5498 1.374 . S
C5500 C5497 1.499 . S
C5500 C5501 1.373 . S
C5500 C5502 1.389 . S
C5501 H5480 0.950 . S
C5501 C5500 1.373 . S
C5501 C5517 1.377 . S
C5502 C5500 1.389 . S
C5502 C5503 1.524 . S
C5502 C5516 1.377 . S
C5503 C5502 1.524 . S
C5503 C5504 1.397 . S
C5503 C5508 1.363 . S
C5504 H5481 0.950 . S
C5504 C5503 1.397 . S
C5504 C5505 1.334 . S
C5505 H5482 0.950 . S
C5505 C5504 1.334 . S
C5505 C5506 1.287 . S
C5506 C5505 1.287 . S
C5506 C5507 1.524 . S
C5506 H5525 0.913 . S
C5507 H5483 0.950 . S
C5507 C5506 1.524 . S
C5507 C5508 1.415 . S
C5508 H5484 0.950 . S
C5508 C5503 1.363 . S
C5508 C5507 1.415 . S
C5509 H5485 0.951 . S
C5509 C5510 1.366 . S
C5509 C5511 1.388 . S
C5510 C5509 1.366 . S
C5510 C5514 1.385 . S
C5511 H5486 0.951 . S
C5511 C5509 1.388 . S
C5511 C5512 1.366 . S
C5512 C5511 1.366 . S
C5512 C5513 1.414 . S
C5512 C5515 1.499 . S
C5513 H5487 0.950 . S
C5513 C5512 1.414 . S
C5513 C5514 1.374 . S
C5514 H5488 0.950 . S
C5514 C5510 1.385 . S
C5514 C5513 1.374 . S
C5515 C5512 1.499 . S
C5515 C5516 1.373 . S
C5515 C5517 1.389 . S
C5516 H5489 0.950 . S
C5516 C5502 1.377 . S
C5516 C5515 1.373 . S
C5517 C5501 1.377 . S
C5517 C5515 1.389 . S
C5517 C5518 1.524 . S
C5518 C5517 1.524 . S
C5518 C5519 1.397 . S
C5518 C5523 1.363 . S
C5519 H5490 0.950 . S
C5519 C5518 1.397 . S
C5519 C5520 1.334 . S
C5520 H5491 0.950 . S
C5520 C5519 1.334 . S
C5520 C5521 1.287 . S
C5521 C5520 1.287 . S
C5521 C5522 1.524 . S
C5521 H5524 0.999 . S
C5522 H5492 0.950 . S
C5522 C5521 1.524 . S
C5522 C5523 1.415 . S
C5523 H5493 0.950 . S
C5523 C5518 1.363 . S
C5523 C5522 1.415 . S
H5524 C5521 0.999 . S
H5525 C5506 0.913 . S
H5526 C5544 0.951 . S
H5527 C5546 0.951 . S
H5528 C5548 0.950 . S
H5529 C5549 0.950 . S
H5530 C5551 0.950 . S
H5531 C5554 0.950 . S
H5532 C5555 0.950 1_556 S
H5533 C5557 0.950 . S
H5534 C5558 0.950 . S
H5535 C5559 0.951 . S
H5536 C5561 0.951 . S
H5537 C5563 0.950 . S
H5538 C5564 0.950 . S
H5539 C5566 0.950 . S
H5540 C5569 0.950 . S
H5541 C5570 0.950 . S
H5542 C5572 0.950 . S
H5543 C5573 0.950 . S
C5544 H5526 0.951 . S
C5544 C5545 1.366 . S
C5544 C5546 1.388 . S
C5545 C5544 1.366 . S
C5545 C5549 1.385 . S
C5546 H5527 0.951 . S
C5546 C5544 1.388 . S
C5546 C5547 1.366 . S
C5547 C5546 1.366 . S
C5547 C5548 1.414 . S
C5547 C5550 1.499 . S
C5548 H5528 0.950 . S
C5548 C5547 1.414 . S
C5548 C5549 1.374 . S
C5549 H5529 0.950 . S
C5549 C5545 1.385 . S
C5549 C5548 1.374 . S
C5550 C5547 1.499 . S
C5550 C5551 1.373 . S
C5550 C5552 1.389 . S
C5551 H5530 0.950 . S
C5551 C5550 1.373 . S
C5551 C5567 1.377 . S
C5552 C5550 1.389 . S
C5552 C5553 1.524 . S
C5552 C5566 1.377 . S
C5553 C5552 1.524 . S
C5553 C5554 1.397 . S
C5553 C5558 1.363 . S
C5554 H5531 0.950 . S
C5554 C5553 1.397 . S
C5554 C5555 1.334 . S
C5555 H5532 0.950 1_554 S
C5555 C5554 1.334 . S
C5555 C5556 1.287 . S
C5556 C5555 1.287 . S
C5556 C5557 1.524 . S
C5556 H5575 0.913 . S
C5557 H5533 0.950 . S
C5557 C5556 1.524 . S
C5557 C5558 1.415 . S
C5558 H5534 0.950 . S
C5558 C5553 1.363 . S
C5558 C5557 1.415 . S
C5559 H5535 0.951 . S
C5559 C5560 1.366 . S
C5559 C5561 1.388 . S
C5560 C5559 1.366 . S
C5560 C5564 1.385 . S
C5561 H5536 0.951 . S
C5561 C5559 1.388 . S
C5561 C5562 1.366 . S
C5562 C5561 1.366 . S
C5562 C5563 1.414 . S
C5562 C5565 1.499 . S
C5563 H5537 0.950 . S
C5563 C5562 1.414 . S
C5563 C5564 1.374 . S
C5564 H5538 0.950 . S
C5564 C5560 1.385 . S
C5564 C5563 1.374 . S
C5565 C5562 1.499 . S
C5565 C5566 1.373 . S
C5565 C5567 1.389 . S
C5566 H5539 0.950 . S
C5566 C5552 1.377 . S
C5566 C5565 1.373 . S
C5567 C5551 1.377 . S
C5567 C5565 1.389 . S
C5567 C5568 1.524 . S
C5568 C5567 1.524 . S
C5568 C5569 1.397 . S
C5568 C5573 1.363 . S
C5569 H5540 0.950 . S
C5569 C5568 1.397 . S
C5569 C5570 1.334 . S
C5570 H5541 0.950 . S
C5570 C5569 1.334 . S
C5570 C5571 1.287 . S
C5571 C5570 1.287 . S
C5571 C5572 1.524 . S
C5571 H5574 0.999 . S
C5572 H5542 0.950 . S
C5572 C5571 1.524 . S
C5572 C5573 1.415 . S
C5573 H5543 0.950 . S
C5573 C5568 1.363 . S
C5573 C5572 1.415 . S
H5574 C5571 0.999 . S
H5575 C5556 0.913 . S
H5576 C5594 0.951 . S
H5577 C5596 0.951 . S
H5578 C5598 0.950 . S
H5579 C5599 0.950 . S
H5580 C5601 0.950 . S
H5581 C5604 0.950 . S
H5582 C5605 0.950 . S
H5583 C5607 0.950 . S
H5584 C5608 0.950 . S
H5585 C5609 0.951 . S
H5586 C5611 0.951 . S
H5587 C5613 0.950 . S
H5588 C5614 0.950 . S
H5589 C5616 0.950 . S
H5590 C5619 0.950 . S
H5591 C5620 0.950 . S
H5592 C5622 0.950 . S
H5593 C5623 0.950 . S
C5594 H5576 0.951 . S
C5594 C5595 1.366 . S
C5594 C5596 1.388 . S
C5595 C5594 1.366 . S
C5595 C5599 1.385 . S
C5596 H5577 0.951 . S
C5596 C5594 1.388 . S
C5596 C5597 1.366 . S
C5597 C5596 1.366 . S
C5597 C5598 1.414 . S
C5597 C5600 1.499 . S
C5598 H5578 0.950 . S
C5598 C5597 1.414 . S
C5598 C5599 1.374 . S
C5599 H5579 0.950 . S
C5599 C5595 1.385 . S
C5599 C5598 1.374 . S
C5600 C5597 1.499 . S
C5600 C5601 1.373 . S
C5600 C5602 1.389 . S
C5601 H5580 0.950 . S
C5601 C5600 1.373 . S
C5601 C5617 1.377 . S
C5602 C5600 1.389 . S
C5602 C5603 1.524 . S
C5602 C5616 1.377 . S
C5603 C5602 1.524 . S
C5603 C5604 1.397 . S
C5603 C5608 1.363 . S
C5604 H5581 0.950 . S
C5604 C5603 1.397 . S
C5604 C5605 1.334 . S
C5605 H5582 0.950 . S
C5605 C5604 1.334 . S
C5605 C5606 1.287 . S
C5606 C5605 1.287 . S
C5606 C5607 1.524 . S
C5606 H5625 0.913 . S
C5607 H5583 0.950 . S
C5607 C5606 1.524 . S
C5607 C5608 1.415 . S
C5608 H5584 0.950 . S
C5608 C5603 1.363 . S
C5608 C5607 1.415 . S
C5609 H5585 0.951 . S
C5609 C5610 1.366 . S
C5609 C5611 1.388 . S
C5610 C5609 1.366 . S
C5610 C5614 1.385 . S
C5611 H5586 0.951 . S
C5611 C5609 1.388 . S
C5611 C5612 1.366 . S
C5612 C5611 1.366 . S
C5612 C5613 1.414 . S
C5612 C5615 1.499 . S
C5613 H5587 0.950 . S
C5613 C5612 1.414 . S
C5613 C5614 1.374 . S
C5614 H5588 0.950 . S
C5614 C5610 1.385 . S
C5614 C5613 1.374 . S
C5615 C5612 1.499 . S
C5615 C5616 1.373 . S
C5615 C5617 1.389 . S
C5616 H5589 0.950 . S
C5616 C5602 1.377 . S
C5616 C5615 1.373 . S
C5617 C5601 1.377 . S
C5617 C5615 1.389 . S
C5617 C5618 1.524 . S
C5618 C5617 1.524 . S
C5618 C5619 1.397 . S
C5618 C5623 1.363 . S
C5619 H5590 0.950 . S
C5619 C5618 1.397 . S
C5619 C5620 1.334 . S
C5620 H5591 0.950 . S
C5620 C5619 1.334 . S
C5620 C5621 1.287 . S
C5621 C5620 1.287 . S
C5621 C5622 1.524 . S
C5621 H5624 0.999 . S
C5622 H5592 0.950 . S
C5622 C5621 1.524 . S
C5622 C5623 1.415 . S
C5623 H5593 0.950 . S
C5623 C5618 1.363 . S
C5623 C5622 1.415 . S
H5624 C5621 0.999 . S
H5625 C5606 0.913 . S
H5626 C5644 0.951 . S
H5627 C5646 0.951 . S
H5628 C5648 0.950 . S
H5629 C5649 0.950 . S
H5630 C5651 0.950 . S
H5631 C5654 0.950 1_554 S
H5632 C5655 0.950 . S
H5633 C5657 0.950 . S
H5634 C5658 0.982 . S
H5635 C5659 0.951 . S
H5636 C5661 0.951 . S
H5637 C5663 0.950 . S
H5638 C5664 0.950 . S
H5639 C5666 0.950 . S
H5640 C5669 0.950 . S
H5641 C5670 0.950 . S
H5642 C5672 0.950 . S
H5643 C5673 0.950 . S
C5644 H5626 0.951 . S
C5644 C5645 1.366 . S
C5644 C5646 1.388 . S
C5645 C5644 1.366 . S
C5645 C5649 1.385 . S
C5646 H5627 0.951 . S
C5646 C5644 1.388 . S
C5646 C5647 1.366 . S
C5647 C5646 1.366 . S
C5647 C5648 1.414 . S
C5647 C5650 1.499 . S
C5648 H5628 0.950 . S
C5648 C5647 1.414 . S
C5648 C5649 1.374 . S
C5649 H5629 0.950 . S
C5649 C5645 1.385 . S
C5649 C5648 1.374 . S
C5650 C5647 1.499 . S
C5650 C5651 1.373 . S
C5650 C5652 1.389 . S
C5651 H5630 0.950 . S
C5651 C5650 1.373 . S
C5651 C5667 1.377 . S
C5652 C5650 1.389 . S
C5652 C5653 1.524 . S
C5652 C5666 1.377 . S
C5653 C5652 1.524 . S
C5653 C5654 1.397 1_554 S
C5653 C5658 1.363 1_554 S
C5654 H5631 0.950 1_556 S
C5654 C5653 1.397 1_556 S
C5654 C5655 1.334 . S
C5655 H5632 0.950 . S
C5655 C5654 1.334 . S
C5655 C5656 1.287 . S
C5656 C5655 1.287 . S
C5656 C5657 1.524 . S
C5656 H5675 0.913 . S
C5657 H5633 0.950 . S
C5657 C5656 1.524 . S
C5657 C5658 1.415 . S
C5658 H5634 0.982 . S
C5658 C5653 1.363 1_556 S
C5658 C5657 1.415 . S
C5659 H5635 0.951 . S
C5659 C5660 1.366 . S
C5659 C5661 1.388 . S
C5660 C5659 1.366 . S
C5660 C5664 1.385 . S
C5661 H5636 0.951 . S
C5661 C5659 1.388 . S
C5661 C5662 1.366 . S
C5662 C5661 1.366 . S
C5662 C5663 1.414 . S
C5662 C5665 1.499 . S
C5663 H5637 0.950 . S
C5663 C5662 1.414 . S
C5663 C5664 1.374 . S
C5664 H5638 0.950 . S
C5664 C5660 1.385 . S
C5664 C5663 1.374 . S
C5665 C5662 1.499 . S
C5665 C5666 1.373 . S
C5665 C5667 1.389 . S
C5666 H5639 0.950 . S
C5666 C5652 1.377 . S
C5666 C5665 1.373 . S
C5667 C5651 1.377 . S
C5667 C5665 1.389 . S
C5667 C5668 1.524 . S
C5668 C5667 1.524 . S
C5668 C5669 1.397 . S
C5668 C5673 1.363 . S
C5669 H5640 0.950 . S
C5669 C5668 1.397 . S
C5669 C5670 1.334 . S
C5670 H5641 0.950 . S
C5670 C5669 1.334 . S
C5670 C5671 1.287 . S
C5671 C5670 1.287 . S
C5671 C5672 1.524 . S
C5671 H5674 0.999 . S
C5672 H5642 0.950 . S
C5672 C5671 1.524 . S
C5672 C5673 1.415 . S
C5673 H5643 0.950 . S
C5673 C5668 1.363 . S
C5673 C5672 1.415 . S
H5674 C5671 0.999 . S
H5675 C5656 0.913 . S
H5676 C5694 0.951 . S
H5677 C5696 0.951 . S
H5678 C5698 0.950 . S
H5679 C5699 0.950 . S
H5680 C5701 0.950 . S
H5681 C5704 0.950 . S
H5682 C5705 0.950 . S
H5683 C5707 0.950 . S
H5684 C5708 0.950 . S
H5685 C5709 0.951 . S
H5686 C5711 0.951 . S
H5687 C5713 0.950 . S
H5688 C5714 0.950 . S
H5689 C5716 0.950 . S
H5690 C5719 0.950 . S
H5691 C5720 0.950 . S
H5692 C5722 0.950 . S
H5693 C5723 0.950 . S
C5694 H5676 0.951 . S
C5694 C5695 1.366 . S
C5694 C5696 1.388 . S
C5695 C5694 1.366 . S
C5695 C5699 1.385 . S
C5696 H5677 0.951 . S
C5696 C5694 1.388 . S
C5696 C5697 1.366 . S
C5697 C5696 1.366 . S
C5697 C5698 1.414 . S
C5697 C5700 1.499 . S
C5698 H5678 0.950 . S
C5698 C5697 1.414 . S
C5698 C5699 1.374 . S
C5699 H5679 0.950 . S
C5699 C5695 1.385 . S
C5699 C5698 1.374 . S
C5700 C5697 1.499 . S
C5700 C5701 1.373 . S
C5700 C5702 1.389 . S
C5701 H5680 0.950 . S
C5701 C5700 1.373 . S
C5701 C5717 1.377 . S
C5702 C5700 1.389 . S
C5702 C5703 1.524 . S
C5702 C5716 1.377 . S
C5703 C5702 1.524 . S
C5703 C5704 1.397 . S
C5703 C5708 1.363 . S
C5704 H5681 0.950 . S
C5704 C5703 1.397 . S
C5704 C5705 1.334 . S
C5705 H5682 0.950 . S
C5705 C5704 1.334 . S
C5705 C5706 1.287 . S
C5706 C5705 1.287 . S
C5706 C5707 1.524 . S
C5706 H5725 0.913 . S
C5707 H5683 0.950 . S
C5707 C5706 1.524 . S
C5707 C5708 1.415 . S
C5708 H5684 0.950 . S
C5708 C5703 1.363 . S
C5708 C5707 1.415 . S
C5709 H5685 0.951 . S
C5709 C5710 1.366 . S
C5709 C5711 1.388 . S
C5710 C5709 1.366 . S
C5710 C5714 1.385 . S
C5711 H5686 0.951 . S
C5711 C5709 1.388 . S
C5711 C5712 1.366 . S
C5712 C5711 1.366 . S
C5712 C5713 1.414 . S
C5712 C5715 1.499 . S
C5713 H5687 0.950 . S
C5713 C5712 1.414 . S
C5713 C5714 1.374 . S
C5714 H5688 0.950 . S
C5714 C5710 1.385 . S
C5714 C5713 1.374 . S
C5715 C5712 1.499 . S
C5715 C5716 1.373 . S
C5715 C5717 1.389 . S
C5716 H5689 0.950 . S
C5716 C5702 1.377 . S
C5716 C5715 1.373 . S
C5717 C5701 1.377 . S
C5717 C5715 1.389 . S
C5717 C5718 1.524 . S
C5718 C5717 1.524 . S
C5718 C5719 1.397 . S
C5718 C5723 1.363 . S
C5719 H5690 0.950 . S
C5719 C5718 1.397 . S
C5719 C5720 1.334 . S
C5720 H5691 0.950 . S
C5720 C5719 1.334 . S
C5720 C5721 1.287 . S
C5721 C5720 1.287 . S
C5721 C5722 1.524 . S
C5721 H5724 0.999 . S
C5722 H5692 0.950 . S
C5722 C5721 1.524 . S
C5722 C5723 1.415 . S
C5723 H5693 0.950 . S
C5723 C5718 1.363 . S
C5723 C5722 1.415 . S
H5724 C5721 0.999 . S
H5725 C5706 0.913 . S
H5726 C5744 0.951 . S
H5727 C5746 0.951 . S
H5728 C5748 0.950 . S
H5729 C5749 0.950 . S
H5730 C5751 0.950 . S
H5731 C5754 0.950 . S
H5732 C5755 0.950 . S
H5733 C5757 0.950 . S
H5734 C5758 0.950 . S
H5735 C5759 0.951 . S
H5736 C5761 0.951 . S
H5737 C5763 0.950 . S
H5738 C5764 0.950 . S
H5739 C5766 0.950 . S
H5740 C5769 0.950 . S
H5741 C5770 0.950 . S
H5742 C5772 0.950 . S
H5743 C5773 0.950 . S
C5744 H5726 0.951 . S
C5744 C5745 1.366 . S
C5744 C5746 1.388 . S
C5745 C5744 1.366 . S
C5745 C5749 1.385 . S
C5746 H5727 0.951 . S
C5746 C5744 1.388 . S
C5746 C5747 1.366 . S
C5747 C5746 1.366 . S
C5747 C5748 1.414 . S
C5747 C5750 1.499 . S
C5748 H5728 0.950 . S
C5748 C5747 1.414 . S
C5748 C5749 1.374 . S
C5749 H5729 0.950 . S
C5749 C5745 1.385 . S
C5749 C5748 1.374 . S
C5750 C5747 1.499 . S
C5750 C5751 1.373 . S
C5750 C5752 1.389 . S
C5751 H5730 0.950 . S
C5751 C5750 1.373 . S
C5751 C5767 1.377 . S
C5752 C5750 1.389 . S
C5752 C5753 1.524 . S
C5752 C5766 1.377 . S
C5753 C5752 1.524 . S
C5753 C5754 1.397 . S
C5753 C5758 1.363 . S
C5754 H5731 0.950 . S
C5754 C5753 1.397 . S
C5754 C5755 1.334 . S
C5755 H5732 0.950 . S
C5755 C5754 1.334 . S
C5755 C5756 1.287 . S
C5756 C5755 1.287 . S
C5756 C5757 1.524 . S
C5756 H5775 0.913 . S
C5757 H5733 0.950 . S
C5757 C5756 1.524 . S
C5757 C5758 1.415 . S
C5758 H5734 0.950 . S
C5758 C5753 1.363 . S
C5758 C5757 1.415 . S
C5759 H5735 0.951 . S
C5759 C5760 1.366 . S
C5759 C5761 1.388 . S
C5760 C5759 1.366 . S
C5760 C5764 1.385 . S
C5761 H5736 0.951 . S
C5761 C5759 1.388 . S
C5761 C5762 1.366 . S
C5762 C5761 1.366 . S
C5762 C5763 1.414 . S
C5762 C5765 1.499 . S
C5763 H5737 0.950 . S
C5763 C5762 1.414 . S
C5763 C5764 1.374 . S
C5764 H5738 0.950 . S
C5764 C5760 1.385 . S
C5764 C5763 1.374 . S
C5765 C5762 1.499 . S
C5765 C5766 1.373 . S
C5765 C5767 1.389 . S
C5766 H5739 0.950 . S
C5766 C5752 1.377 . S
C5766 C5765 1.373 . S
C5767 C5751 1.377 . S
C5767 C5765 1.389 . S
C5767 C5768 1.524 . S
C5768 C5767 1.524 . S
C5768 C5769 1.397 . S
C5768 C5773 1.363 . S
C5769 H5740 0.950 . S
C5769 C5768 1.397 . S
C5769 C5770 1.334 . S
C5770 H5741 0.950 . S
C5770 C5769 1.334 . S
C5770 C5771 1.287 . S
C5771 C5770 1.287 . S
C5771 C5772 1.524 . S
C5771 H5774 0.999 . S
C5772 H5742 0.950 . S
C5772 C5771 1.524 . S
C5772 C5773 1.415 . S
C5773 H5743 0.950 . S
C5773 C5768 1.363 . S
C5773 C5772 1.415 . S
H5774 C5771 0.999 . S
H5775 C5756 0.913 . S
C995 C106 2.313 . S
C1010 C349 2.320 . S
C1045 C65 2.000 . S
C1060 C400 1.973 . S
C1095 C79 1.776 . S
C1110 C429 1.770 . S
C1160 C473 1.246 . S
C1145 C90 1.227 . S
C1195 C21 1.132 . S
C1210 C513 1.144 . S
C1260 C549 1.411 . S
C1245 C35 1.416 . S
C1310 C599 1.757 . S
C1295 C50 1.766 . S
C1345 C6 2.104 . S
C1360 C629 2.115 . S
C1410 C359 2.007 . S
C1395 C232 2.011 . S
C1445 C245 0.522 . S
C1460 C402 0.501 . S
C1510 C439 1.190 . S
C1495 C274 1.197 . S
C1560 C469 1.299 . S
C1545 C175 1.293 . S
C1595 C231 1.161 . S
C1610 C509 1.164 . S
C1660 C559 0.745 . S
C1645 C246 0.746 . S
C1710 C593 0.562 . S
C1695 C273 0.569 . S
C1760 C639 1.911 . S
C1745 C176 1.914 . S
C1810 C353 1.069 . S
C1795 C160 1.062 . S
C1845 C289 1.655 . S
C1860 C679 1.646 . S
C1910 C713 1.435 . S
C1895 C328 1.412 . S
C1960 C749 1.117 . S
C1945 C317 1.142 . S
C1995 C118 1.280 . S
C2010 C633 1.277 . S
C2045 C132 1.471 . S
C2060 C433 1.494 . S
C2095 C331 1.645 . S
C2110 C799 1.633 . S
C2160 C818 0.401 . S
C2145 C303 0.376 . S
C2210 C360 1.930 1_565 S
C2195 C63 1.947 . S
C2260 C829 2.444 . S
C2245 C107 2.420 . S
C2295 C92 1.614 . S
C2310 C440 1.634 . S
C2345 C78 1.842 . S
C2360 C802 1.813 . S
C2410 C522 1.672 . S
C2395 C8 1.694 . S
C2445 C51 1.666 . S
C2460 C720 1.676 . S
C2510 C578 2.215 . S
C2495 C37 2.143 . S
C2560 C880 2.097 . S
C2545 C20 2.111 . S
C2610 C338 1.828 1_556 S
C2595 C147 1.829 . S
C2660 C833 0.600 . S
C2645 C316 0.576 . S
C2695 C119 1.161 . S
C2710 C418 1.197 . S
C2745 C288 1.502 . S
C2760 C800 1.508 . S
C2795 C148 1.574 . S
C2810 C520 1.576 . S
C2860 C698 0.886 . S
C2845 C315 0.874 . S
C2895 C120 0.904 . S
C2910 C602 0.891 . S
C2945 C287 1.822 . S
C2960 C858 1.821 . S
C2995 C188 0.858 . S
C3010 C362 0.857 . S
C3045 C177 2.035 . S
C3060 C658 2.038 . S
C3095 C258 1.461 . S
C3110 C562 1.485 . S
C3145 C247 1.165 . S
C3160 C760 1.160 . S
C3210 C882 1.131 . S
C3195 C272 1.144 . S
C3245 C216 1.299 . S
C3260 C442 1.314 . S
C3310 C458 1.959 . S
C3295 C261 1.955 . S
C3360 C399 0.417 . S
C3345 C205 0.427 . S
C3395 C76 1.910 . S
C3410 C909 1.916 . S
C3460 C840 2.048 . S
C3445 C93 2.074 . S
C3495 C105 1.340 . S
C3510 C949 1.337 . S
C3545 C62 1.259 1_655 S
C3560 C793 1.281 . S
C3595 C49 1.096 . S
C3610 C673 1.106 . S
C3660 C709 1.854 . S
C3645 C9 1.864 . S
C3710 C759 1.675 . S
C3695 C22 1.684 . S
C3760 C869 2.521 . S
C3745 C36 2.519 . S
C3810 C919 1.916 . S
C3795 C260 1.919 . S
C3845 C189 0.439 . S
C3860 C842 0.411 . S
C3910 C959 1.089 . S
C3895 C204 1.094 . S
C3960 C789 1.107 . S
C3945 C217 1.106 . S
C4010 C669 1.354 1_556 S
C3995 C259 1.346 . S
C4045 C190 0.846 . S
C4060 C719 0.843 . S
C4110 C753 0.679 . S
C4095 C203 0.681 . S
C4145 C218 2.005 . S
C4160 C879 2.002 . S
C4210 C913 1.063 . S
C4195 C314 1.057 . S
C4245 C135 1.745 . S
C4260 C519 1.733 . S
C4310 C553 1.404 . S
C4295 C146 1.378 . S
C4360 C589 1.172 . S
C4345 C163 1.190 . S
C4410 C873 1.302 . S
C4395 C300 1.305 . S
C4445 C286 1.444 . S
C4460 C953 1.469 . S
C4510 C479 1.557 . S
C4495 C149 1.565 . S
C4560 C378 0.359 . S
C4545 C121 0.305 . S
C4595 C91 1.937 . S
C4610 C920 1.926 . S
C4660 C389 2.044 . S
C4645 C77 1.946 . S
C4695 C64 1.596 . S
C4710 C960 1.627 . S
C4745 C104 1.427 . S
C4760 C482 1.457 . S
C4795 C34 1.307 . S
C4810 C682 1.329 . S
C4860 C560 1.657 . S
C4845 C23 1.636 . S
C4895 C7 1.668 . S
C4910 C738 1.765 . S
C4945 C48 2.096 . S
C4960 C640 2.089 . S
C5010 C898 1.810 . S
C4995 C329 1.817 . S
C5045 C162 0.610 . S
C5060 C393 0.618 . S
C5110 C938 1.198 . S
C5095 C301 1.166 . S
C5145 C134 1.517 . S
C5160 C480 1.527 . S
C5195 C330 1.590 . S
C5210 C680 1.595 . S
C5260 C538 0.900 . S
C5245 C161 0.897 . S
C5295 C302 0.919 . S
C5310 C762 0.905 . S
C5360 C618 1.800 . S
C5345 C133 1.805 . S
C5410 C922 1.033 . S
C5395 C244 1.036 . S
C5460 C498 1.992 . S
C5445 C219 1.980 . S
C5495 C230 1.229 . S
C5510 C722 1.246 . S
C5560 C600 1.144 . S
C5545 C191 1.156 . S
C5595 C202 1.331 . S
C5610 C642 1.315 . S
C5645 C174 1.526 . S
C5660 C962 1.547 . S
C5710 C778 1.912 . S
C5695 C233 1.899 . S
C5760 C839 0.387 . S
C5745 C275 0.385 . S
