# Generated by pormake.
# Topology pts, (4,4)-cn, num edge types: 1
# Building blocks:
#     Node 0, Type 0, BuildingBlock: KOZSID_clean_sbu_0, # of connection points: 4
#     Node 1, Type 0, BuildingBlock: KOZSID_clean_sbu_0, # of connection points: 4
#     Node 2, Type 1, BuildingBlock: UXUYUI_clean_sbu_0, # of connection points: 4
#     Node 3, Type 1, BuildingBlock: UXUYUI_clean_sbu_0, # of connection points: 4
#     Edge 4, Type (0, 1), BuildingBlock: FUNLAD_clean_linker_0, # of connection points: 2
#     Edge 5, Type (0, 1), BuildingBlock: FUNLAD_clean_linker_0, # of connection points: 2
#     Edge 6, Type (0, 1), BuildingBlock: FUNLAD_clean_linker_0, # of connection points: 2
#     Edge 7, Type (0, 1), BuildingBlock: FUNLAD_clean_linker_0, # of connection points: 2
#     Edge 8, Type (0, 1), BuildingBlock: FUNLAD_clean_linker_0, # of connection points: 2
#     Edge 9, Type (0, 1), BuildingBlock: FUNLAD_clean_linker_0, # of connection points: 2
#     Edge 10, Type (0, 1), BuildingBlock: FUNLAD_clean_linker_0, # of connection points: 2
#     Edge 11, Type (0, 1), BuildingBlock: FUNLAD_clean_linker_0, # of connection points: 2
# Relax obj value: 0.000
# Max RMSD: 0.020
# Mean RMSD: 0.014
data_MOF--net-pts--node1-KOZSID_clean_sbu_0--node2-UXUYUI_clean_sbu_0--edge1-FUNLAD_clean_linker_0
_symmetry_space_group_name_H-M    P1
_symmetry_Int_Tables_number       1
_symmetry_cell_setting            triclinic
loop_
_symmetry_equiv_pos_as_xyz
'x, y, z'
_cell_length_a     36.96548
_cell_length_b     36.974799
_cell_length_c     53.709
_cell_angle_alpha  87.130869
_cell_angle_beta   92.889274
_cell_angle_gamma 90.043665
loop_
_atom_site_label
_atom_site_type_symbol
_atom_site_fract_x
_atom_site_fract_y
_atom_site_fract_z
_atom_type_partial_charge
C0 C 0.59426 0.07579 0.04739 0.0
C1 C 0.60422 0.10895 0.05666 0.0
C2 C 0.58409 0.1347 0.04322 0.0
C3 C 0.5628 0.11591 0.02673 0.0
N4 N 0.56794 0.07965 0.02889 0.0
Co5 Co 0.54148 0.04226 0.00916 0.0
N6 N 0.51393 0.08043 0.9881 0.0
C7 C 0.51792 0.11672 0.98902 0.0
C8 C 0.49558 0.13613 0.97215 0.0
C9 C 0.47598 0.11076 0.95976 0.0
C10 C 0.48739 0.0772 0.96996 0.0
N11 N 0.51401 0.00484 0.99003 0.0
C12 C 0.48666 0.00872 0.97227 0.0
C13 C 0.47362 0.97542 0.96501 0.0
C14 C 0.49334 0.94959 0.97867 0.0
C15 C 0.51702 0.96847 0.99353 0.0
N16 N 0.57004 0.00413 0.02958 0.0
C17 C 0.56813 0.96791 0.02721 0.0
C18 C 0.59274 0.94854 0.0424 0.0
C19 C 0.61185 0.97386 0.05512 0.0
C20 C 0.59745 0.00741 0.04713 0.0
N21 N 0.5029 0.04082 0.03378 0.0
C22 C 0.44584 0.03858 0.06691 0.0
C23 C 0.46484 0.0072 0.06217 0.0
C24 C 0.4929 0.00888 0.04559 0.0
C25 C 0.45634 0.07116 0.05513 0.0
C26 C 0.48482 0.07172 0.03896 0.0
N27 N 0.58005 0.04373 0.98452 0.0
C28 C 0.61936 0.01314 0.95753 0.0
C29 C 0.63678 0.04559 0.95101 0.0
C30 C 0.62487 0.07715 0.96138 0.0
C31 C 0.59672 0.07564 0.97784 0.0
C32 C 0.59137 0.01282 0.97414 0.0
H33 H 0.58917 0.10067 0.98507 0.0
H34 H 0.5794 0.98717 0.97836 0.0
H35 H 0.50585 0.9839 0.04245 0.0
H36 H 0.49154 0.09751 0.0308 0.0
C37 C 0.54013 0.13169 0.00762 0.0
C38 C 0.61128 0.0416 0.05634 0.0
C39 C 0.47147 0.04318 0.96224 0.0
C40 C 0.54277 0.95287 0.01065 0.0
H41 H 0.62439 0.11407 0.07137 0.0
H42 H 0.58545 0.16373 0.04486 0.0
H43 H 0.49306 0.16527 0.96969 0.0
H44 H 0.45512 0.11631 0.9452 0.0
H45 H 0.45184 0.97026 0.95143 0.0
H46 H 0.49056 0.92051 0.97798 0.0
H47 H 0.59662 0.91948 0.04383 0.0
H48 H 0.63418 0.96811 0.06852 0.0
H49 H 0.45757 0.98127 0.07079 0.0
H50 H 0.44283 0.0963 0.05853 0.0
H51 H 0.62702 0.98798 0.94973 0.0
H52 H 0.63763 0.10298 0.95724 0.0
C53 C 0.07425 0.48857 0.54891 0.0
C54 C 0.10723 0.47671 0.55986 0.0
C55 C 0.13343 0.49632 0.54835 0.0
C56 C 0.11506 0.51903 0.53117 0.0
N57 N 0.07863 0.51533 0.53109 0.0
Co58 Co 0.04168 0.54289 0.50896 0.0
N59 N 0.08038 0.57021 0.49106 0.0
C60 C 0.11663 0.5658 0.49467 0.0
C61 C 0.13639 0.5887 0.47981 0.0
C62 C 0.11132 0.60931 0.46606 0.0
C63 C 0.07757 0.59785 0.47348 0.0
N64 N 0.00474 0.57099 0.48713 0.0
C65 C 0.00911 0.59895 0.47019 0.0
C66 C 0.97606 0.61214 0.46018 0.0
C67 C 0.94987 0.59199 0.47127 0.0
C68 C 0.96829 0.56788 0.48743 0.0
N69 N 0.00297 0.51514 0.52662 0.0
C70 C 0.96675 0.51814 0.52201 0.0
C71 C 0.94696 0.49473 0.53648 0.0
C72 C 0.97202 0.47529 0.55107 0.0
C73 C 0.00579 0.48811 0.54466 0.0
N74 N 0.04064 0.58122 0.53367 0.0
C75 C 0.03915 0.63826 0.56673 0.0
C76 C 0.00717 0.62183 0.55809 0.0
C77 C 0.00851 0.59367 0.54168 0.0
C78 C 0.07191 0.62512 0.55888 0.0
C79 C 0.07204 0.59676 0.54262 0.0
N80 N 0.04274 0.50449 0.48422 0.0
C81 C 0.01155 0.46406 0.45619 0.0
C82 C 0.04414 0.44757 0.45091 0.0
C83 C 0.07604 0.46054 0.46237 0.0
C84 C 0.07474 0.48875 0.4787 0.0
C85 C 0.01148 0.49218 0.4727 0.0
H86 H 0.10004 0.49703 0.48681 0.0
H87 H 0.98572 0.50337 0.47593 0.0
H88 H 0.98316 0.5827 0.53552 0.0
H89 H 0.09792 0.58806 0.53741 0.0
C90 C 0.13127 0.54228 0.51372 0.0
C91 C 0.03967 0.47291 0.55568 0.0
C92 C 0.04379 0.61499 0.4639 0.0
C93 C 0.95214 0.54299 0.50382 0.0
H94 H 0.11185 0.45565 0.5744 0.0
H95 H 0.16246 0.49373 0.5517 0.0
H96 H 0.16558 0.59094 0.47957 0.0
H97 H 0.11719 0.63089 0.45251 0.0
H98 H 0.97127 0.63452 0.44666 0.0
H99 H 0.92083 0.59515 0.46835 0.0
H100 H 0.91781 0.49185 0.53624 0.0
H101 H 0.96611 0.45377 0.56466 0.0
H102 H 0.98106 0.63116 0.56349 0.0
H103 H 0.09749 0.63649 0.56539 0.0
H104 H 0.98609 0.45554 0.4475 0.0
H105 H 0.10202 0.44854 0.4592 0.0
Li106 Li 0.03978 0.07125 0.27433 0.0
Li107 Li 0.03713 0.00457 0.27536 0.0
Li108 Li 0.07011 0.04077 0.24203 0.0
Li109 Li 0.00284 0.03953 0.24084 0.0
C110 C 0.10223 0.04987 0.29741 0.0
N111 N 0.14432 0.07903 0.33533 0.0
C112 C 0.10222 0.03424 0.32164 0.0
C113 C 0.12395 0.08004 0.29238 0.0
C114 C 0.12363 0.04945 0.34058 0.0
C115 C 0.14494 0.09447 0.31183 0.0
C116 C 0.96776 0.02617 0.29005 0.0
C117 C 0.91451 0.98859 0.29187 0.0
N118 N 0.90941 0.99927 0.31531 0.0
C119 C 0.96172 0.03715 0.31403 0.0
C120 C 0.94375 1.00201 0.27876 0.0
C121 C 0.93219 0.02309 0.32654 0.0
C122 C 0.03885 0.14627 0.28389 0.0
N123 N 0.0405 0.11234 0.2949 0.0
C124 C 0.04139 0.13659 0.33543 0.0
C125 C 0.04162 0.10706 0.32016 0.0
C126 C 0.03955 0.17206 0.32464 0.0
C127 C 0.03836 0.1766 0.29844 0.0
H128 H 0.03739 0.14982 0.26377 0.0
H129 H 0.0425 0.07985 0.32851 0.0
C130 C 0.0522 0.93042 0.28719 0.0
N131 N 0.03778 0.96069 0.29615 0.0
C132 C 0.05236 0.89759 0.30129 0.0
C133 C 0.02411 0.92786 0.33409 0.0
C134 C 0.02439 0.96009 0.3193 0.0
C135 C 0.03795 0.89589 0.32505 0.0
H136 H 0.0635 0.93173 0.26899 0.0
H137 H 0.01399 0.98463 0.32637 0.0
C138 C 0.04755 0.10363 0.21833 0.0
N139 N 0.07267 0.14589 0.17901 0.0
C140 C 0.02921 0.10405 0.19492 0.0
C141 C 0.07842 0.12499 0.22183 0.0
C142 C 0.0424 0.12555 0.17525 0.0
C143 C 0.09077 0.14607 0.20169 0.0
C144 C 0.02582 0.96986 0.2252 0.0
C145 C 0.04052 0.96396 0.20227 0.0
C146 C 0.99969 0.94606 0.23438 0.0
C147 C 0.0284 0.93464 0.18871 0.0
C148 C 0.9883 0.91704 0.22028 0.0
N149 N 1.00273 0.912 0.19791 0.0
C150 C 0.14492 0.03551 0.23218 0.0
C151 C 0.10582 0.04517 0.1962 0.0
C152 C 0.17507 0.03469 0.21744 0.0
N153 N 0.11114 0.04077 0.2214 0.0
C154 C 0.13516 0.04501 0.1808 0.0
C155 C 0.17051 0.03949 0.1913 0.0
H156 H 0.14846 0.03152 0.25223 0.0
H157 H 0.07869 0.04862 0.18798 0.0
C158 C 0.93224 0.06403 0.22652 0.0
N159 N 0.95912 0.04191 0.21985 0.0
C160 C 0.89983 0.06735 0.21197 0.0
C161 C 0.92317 0.02491 0.184 0.0
C162 C 0.95529 0.0228 0.19888 0.0
C163 C 0.89493 0.04745 0.19045 0.0
H164 H 0.93605 0.07915 0.24319 0.0
H165 H 0.97721 0.0062 0.19344 0.0
O166 O 0.08111 0.03565 0.2787 0.0
O167 O 0.99656 0.03972 0.27755 0.0
O168 O 0.03517 0.08257 0.23776 0.0
O169 O 0.03733 0.99856 0.23864 0.0
H170 H 0.08566 0.01079 0.32581 0.0
H171 H 0.12447 0.09224 0.27369 0.0
H172 H 0.12373 0.03777 0.35946 0.0
H173 H 0.16172 0.11795 0.30824 0.0
H174 H 0.89578 0.96978 0.28337 0.0
H175 H 0.97978 0.05614 0.32295 0.0
H176 H 0.94738 0.99396 0.26 0.0
H177 H 0.92736 0.03114 0.34518 0.0
H178 H 0.04281 0.13161 0.35549 0.0
H179 H 0.03627 0.20327 0.28921 0.0
H180 H 0.06399 0.87387 0.29374 0.0
H181 H 0.01263 0.9279 0.35224 0.0
H182 H 0.0052 0.08779 0.19191 0.0
H183 H 0.09275 0.12517 0.23988 0.0
H184 H 0.0286 0.126 0.15699 0.0
H185 H 0.11474 0.16258 0.20409 0.0
H186 H 0.06095 0.98191 0.19495 0.0
H187 H 0.98862 0.94966 0.25232 0.0
H188 H 0.03941 0.92987 0.17088 0.0
H189 H 0.96807 0.89844 0.22717 0.0
H190 H 0.20156 0.02968 0.22648 0.0
H191 H 0.13007 0.0494 0.16086 0.0
H192 H 0.87866 0.08496 0.21763 0.0
H193 H 0.92072 0.0096 0.16732 0.0
Li194 Li 0.01257 0.04713 0.77421 0.0
Li195 Li 0.07943 0.04588 0.77623 0.0
Li196 Li 0.04349 0.08131 0.74189 0.0
Li197 Li 0.04641 0.01465 0.74178 0.0
C198 C 0.03287 0.10757 0.79677 0.0
N199 N 0.00376 0.14508 0.83426 0.0
C200 C 0.05015 0.10693 0.82055 0.0
C201 C 1.00103 0.12764 0.79199 0.0
C202 C 0.03495 0.126 0.83927 0.0
C203 C 0.98666 0.1463 0.81121 0.0
C204 C 0.05742 0.97459 0.79286 0.0
C205 C 0.09335 0.92004 0.79823 0.0
N206 N 0.08149 0.91447 0.82167 0.0
C207 C 0.04516 0.968 0.81687 0.0
C208 C 0.08136 0.95015 0.78334 0.0
C209 C 0.05782 0.93761 0.83119 0.0
C210 C 0.93726 0.04285 0.78323 0.0
N211 N 0.97099 0.0451 0.79437 0.0
C212 C 0.94611 0.04426 0.8347 0.0
C213 C 0.97585 0.04566 0.81962 0.0
C214 C 0.91085 0.04184 0.82378 0.0
C215 C 0.90671 0.04119 0.79762 0.0
H216 H 0.93407 0.04203 0.76314 0.0
H217 H 0.00289 0.04725 0.8281 0.0
C218 C 0.15261 0.06237 0.78977 0.0
N219 N 0.12232 0.04579 0.79807 0.0
C220 C 0.18416 0.06349 0.80522 0.0
C221 C 0.15263 0.03117 0.83774 0.0
C222 C 0.12175 0.03056 0.82163 0.0
C223 C 0.18446 0.0478 0.82963 0.0
H224 H 0.1522 0.07503 0.77117 0.0
H225 H 0.09715 0.0185 0.82813 0.0
C226 C 0.98284 0.06222 0.71763 0.0
N227 N 0.94427 0.09535 0.67739 0.0
C228 C 0.98558 0.04943 0.69375 0.0
C229 C 0.96015 0.09156 0.7211 0.0
C230 C 0.96592 0.06661 0.67363 0.0
C231 C 0.94099 0.10805 0.7005 0.0
C232 C 0.11697 0.03789 0.72864 0.0
C233 C 0.12685 0.05331 0.70568 0.0
C234 C 0.1383 0.01034 0.74054 0.0
C235 C 0.15748 0.04035 0.69475 0.0
C236 C 0.16876 0.99816 0.72904 0.0
N237 N 0.1776 0.01324 0.70654 0.0
C238 C 0.04001 0.15748 0.72988 0.0
C239 C 0.04603 0.12085 0.69539 0.0
C240 C 0.04011 0.18887 0.71422 0.0
N241 N 0.04291 0.12432 0.72028 0.0
C242 C 0.04634 0.15147 0.67907 0.0
C243 C 0.04351 0.18615 0.68842 0.0
H244 H 0.03803 0.15962 0.74975 0.0
H245 H 0.04834 0.09421 0.6882 0.0
C246 C 0.02893 0.94289 0.72873 0.0
N247 N 0.04618 0.97369 0.72109 0.0
C248 C 0.02795 0.91273 0.71396 0.0
C249 C 0.0621 0.94663 0.68357 0.0
C250 C 0.06233 0.97611 0.69887 0.0
C251 C 0.0447 0.9143 0.69098 0.0
H252 H 0.01578 0.94181 0.74629 0.0
H253 H 0.07506 1.00108 0.69282 0.0
O254 O 0.04714 0.08872 0.77829 0.0
O255 O 0.04512 0.00418 0.77855 0.0
O256 O 1.00236 0.04615 0.73749 0.0
O257 O 0.08693 0.05019 0.73953 0.0
H258 H 0.07493 0.09177 0.82454 0.0
H259 H 0.98742 0.12858 0.77368 0.0
H260 H 0.04793 0.12559 0.85779 0.0
H261 H 0.9619 0.16173 0.80781 0.0
H262 H 0.11196 0.90099 0.79109 0.0
H263 H 0.02628 0.98627 0.82445 0.0
H264 H 0.09026 0.95403 0.76455 0.0
H265 H 0.04877 0.93238 0.84988 0.0
H266 H 0.95077 0.04538 0.8547 0.0
H267 H 0.8802 0.03877 0.78833 0.0
H268 H 0.20781 0.07719 0.7983 0.0
H269 H 0.15157 0.01862 0.85634 0.0
H270 H 0.0029 0.02668 0.69074 0.0
H271 H 0.95749 0.10161 0.73947 0.0
H272 H 0.96795 0.05714 0.65502 0.0
H273 H 0.9235 0.13093 0.70289 0.0
H274 H 0.11098 0.07495 0.69632 0.0
H275 H 0.13179 0.99889 0.75863 0.0
H276 H 0.16528 0.05188 0.6769 0.0
H277 H 0.18546 0.97682 0.73805 0.0
H278 H 0.03833 0.21502 0.7223 0.0
H279 H 0.04855 0.14799 0.65931 0.0
H280 H 0.01368 0.88868 0.72031 0.0
H281 H 0.07569 0.94916 0.66618 0.0
C282 C 0.3828 0.05621 0.07699 0.0
C283 C 0.41515 0.03745 0.08383 0.0
C284 C 0.35395 0.05544 0.09291 0.0
C285 C 0.35686 0.03601 0.11614 0.0
C286 C 0.38935 0.01764 0.12309 0.0
C287 C 0.41805 0.01801 0.10702 0.0
C288 C 0.32709 0.03558 0.13385 0.0
C289 C 0.29178 0.03778 0.12628 0.0
C290 C 0.26173 0.03732 0.14374 0.0
C291 C 0.22782 0.02387 0.13576 0.0
C292 C 0.19855 0.02404 0.15127 0.0
C293 C 0.20217 0.03842 0.17506 0.0
H294 H 0.2911 0.063 0.17409 0.0
C295 C 0.23621 0.05208 0.18299 0.0
C296 C 0.26565 0.05146 0.16757 0.0
H297 H 0.24 0.06406 0.20092 0.0
H298 H 0.3797 0.07134 0.05921 0.0
H299 H 0.32972 0.0707 0.08716 0.0
H300 H 0.39247 0.00276 0.14097 0.0
H301 H 0.44277 0.00363 0.11293 0.0
H302 H 0.33451 0.03152 0.15362 0.0
H303 H 0.28431 0.03818 0.10644 0.0
H304 H 0.22399 0.0129 0.11748 0.0
H305 H 0.17312 0.01262 0.14458 0.0
C306 C 0.04542 0.40603 0.56464 0.0
C307 C 0.03899 0.44052 0.57318 0.0
C308 C 0.04429 0.37535 0.58095 0.0
C309 C 0.03705 0.37871 0.60628 0.0
C310 C 0.03045 0.41347 0.61461 0.0
C311 C 0.03148 0.44408 0.59824 0.0
C312 C 0.03494 0.34686 0.62441 0.0
C313 C 0.049 0.31392 0.62081 0.0
C314 C 0.04706 0.28194 0.63885 0.0
C315 C 0.07003 0.25232 0.636 0.0
C316 C 0.06892 0.22142 0.65205 0.0
C317 C 0.04466 0.2192 0.6714 0.0
H318 H 0.0035 0.30116 0.66067 0.0
C319 C 0.02151 0.24871 0.67426 0.0
C320 C 0.02252 0.27964 0.65813 0.0
H321 H 1.00206 0.24764 0.68869 0.0
H322 H 0.05094 0.40284 0.54524 0.0
H323 H 0.04842 0.34922 0.57338 0.0
H324 H 0.02451 0.417 0.63389 0.0
H325 H 0.02632 0.47055 0.60511 0.0
H326 H 0.02241 0.35147 0.64181 0.0
H327 H 0.06397 0.31016 0.60428 0.0
H328 H 0.08911 0.2531 0.62132 0.0
H329 H 0.08743 0.19938 0.64945 0.0
C330 C 0.67609 0.05717 0.06724 0.0
C331 C 0.64329 0.04165 0.07437 0.0
C332 C 0.70655 0.05624 0.08385 0.0
C333 C 0.70476 0.03954 0.10791 0.0
C334 C 0.67184 0.02411 0.11496 0.0
C335 C 0.64127 0.02554 0.09848 0.0
C336 C 0.73714 0.03598 0.12548 0.0
C337 C 0.76417 0.06046 0.12611 0.0
C338 C 0.79684 0.05639 0.1434 0.0
C339 C 0.81445 0.08751 0.15179 0.0
C340 C 0.84586 0.08462 0.16745 0.0
C341 C 0.86082 0.0505 0.17459 0.0
H342 H 0.79935 0.99766 0.14409 0.0
C343 C 0.84339 0.01933 0.16603 0.0
C344 C 0.81167 0.0222 0.15069 0.0
H345 H 0.85428 0.99268 0.17125 0.0
H346 H 0.67825 0.06954 0.04865 0.0
H347 H 0.73167 0.06763 0.07753 0.0
H348 H 0.66975 0.01092 0.13331 0.0
H349 H 0.61616 0.01355 0.10439 0.0
H350 H 0.73793 0.01311 0.13902 0.0
H351 H 0.7617 0.08518 0.11433 0.0
H352 H 0.80382 0.11417 0.14626 0.0
H353 H 0.85892 0.10912 0.17352 0.0
C354 C 0.06121 0.69911 0.57997 0.0
C355 C 0.03839 0.66905 0.58358 0.0
C356 C 0.06049 0.72814 0.5957 0.0
C357 C 0.03683 0.72783 0.61545 0.0
C358 C 0.01441 0.69756 0.61926 0.0
C359 C 0.01496 0.66864 0.60342 0.0
C360 C 0.0357 0.75792 0.63289 0.0
C361 C 0.04461 0.79241 0.62644 0.0
C362 C 0.04345 0.82283 0.6436 0.0
C363 C 0.04022 0.85839 0.63328 0.0
C364 C 0.04017 0.88788 0.64859 0.0
C365 C 0.04383 0.88266 0.67472 0.0
H366 H 0.05065 0.79061 0.67848 0.0
C367 C 0.04714 0.84702 0.68511 0.0
C368 C 0.04701 0.81745 0.66976 0.0
H369 H 0.05071 0.84194 0.70511 0.0
H370 H 0.07948 0.70039 0.5648 0.0
H371 H 0.07896 0.75041 0.59252 0.0
H372 H 0.99621 0.69636 0.63447 0.0
H373 H 0.99739 0.64569 0.60695 0.0
H374 H 0.02547 0.75159 0.6512 0.0
H375 H 0.05153 0.79925 0.60737 0.0
H376 H 0.03756 0.86342 0.61322 0.0
H377 H 0.03699 0.91481 0.63987 0.0
C378 C 0.40497 0.05258 0.95299 0.0
C379 C 0.43901 0.04359 0.94471 0.0
C380 C 0.37415 0.05205 0.93676 0.0
C381 C 0.37691 0.04275 0.91175 0.0
C382 C 0.41124 0.03384 0.90364 0.0
C383 C 0.44199 0.03435 0.91991 0.0
C384 C 0.34487 0.04073 0.89374 0.0
C385 C 0.31221 0.05562 0.89707 0.0
C386 C 0.28013 0.0529 0.87922 0.0
C387 C 0.24547 0.05843 0.88796 0.0
C388 C 0.21455 0.05657 0.87197 0.0
C389 C 0.21747 0.04943 0.84668 0.0
H390 H 0.30925 0.04261 0.84605 0.0
C391 C 0.25216 0.04428 0.8378 0.0
C392 C 0.28314 0.04603 0.85383 0.0
H393 H 0.25541 0.03864 0.81844 0.0
H394 H 0.40219 0.05952 0.97217 0.0
H395 H 0.34837 0.05817 0.94419 0.0
H396 H 0.41433 0.02638 0.8846 0.0
H397 H 0.4681 0.02728 0.91322 0.0
H398 H 0.34869 0.02612 0.87705 0.0
H399 H 0.30811 0.07007 0.91377 0.0
H400 H 0.24225 0.06415 0.90731 0.0
H401 H 0.18835 0.06132 0.87937 0.0
C402 C 0.01774 0.39031 0.43389 0.0
C403 C 0.04495 0.41696 0.43382 0.0
C404 C 0.0189 0.36123 0.4182 0.0
C405 C 0.04757 0.35784 0.40212 0.0
C406 C 0.07438 0.38481 0.4018 0.0
C407 C 0.07317 0.4139 0.41743 0.0
C408 C 0.05034 0.32737 0.38502 0.0
C409 C 0.03221 0.29573 0.38756 0.0
C410 C 0.03509 0.26472 0.37086 0.0
C411 C 0.01732 0.23222 0.37735 0.0
C412 C 0.0188 0.20232 0.36247 0.0
C413 C 0.0382 0.20397 0.34058 0.0
H414 H 0.06818 0.29078 0.34264 0.0
C415 C 0.05594 0.23647 0.33397 0.0
C416 C 0.05435 0.26648 0.34881 0.0
H417 H 0.07144 0.23871 0.31738 0.0
H418 H 0.99568 0.39161 0.44634 0.0
H419 H 0.997 0.34187 0.41868 0.0
H420 H 0.09658 0.38333 0.38946 0.0
H421 H 0.09425 0.4342 0.41646 0.0
H422 H 0.06925 0.33113 0.37035 0.0
H423 H 0.01489 0.29152 0.40315 0.0
H424 H 1.00203 0.22989 0.39404 0.0
H425 H 0.00419 0.17806 0.36798 0.0
C426 C 0.69288 0.01837 0.93459 0.0
C427 C 0.66725 0.04658 0.93374 0.0
C428 C 0.72178 0.01958 0.91867 0.0
C429 C 0.72604 0.04931 0.90159 0.0
C430 C 0.70008 0.07718 0.90053 0.0
C431 C 0.67114 0.07589 0.91636 0.0
C432 C 0.75646 0.05224 0.88425 0.0
C433 C 0.78716 0.03231 0.88703 0.0
C434 C 0.81812 0.03558 0.87014 0.0
C435 C 0.85078 0.0179 0.87771 0.0
C436 C 0.88065 0.01985 0.86273 0.0
C437 C 0.87878 0.03961 0.83964 0.0
H438 H 0.79144 0.06849 0.83977 0.0
C439 C 0.84603 0.05708 0.83186 0.0
C440 C 0.81604 0.05501 0.84683 0.0
H441 H 0.8436 0.07276 0.81428 0.0
H442 H 0.69095 0.99544 0.9478 0.0
H443 H 0.74031 0.99691 0.91981 0.0
H444 H 0.70224 0.10023 0.88742 0.0
H445 H 0.65161 0.0978 0.91478 0.0
H446 H 0.75365 0.07288 0.86923 0.0
H447 H 0.79081 0.01335 0.90301 0.0
H448 H 0.85329 0.0024 0.89538 0.0
H449 H 0.9051 0.00541 0.86917 0.0
C450 C 0.03613 0.65067 0.42295 0.0
C451 C 0.04484 0.64968 0.44868 0.0
C452 C 0.03737 0.68338 0.40868 0.0
C453 C 0.04729 0.71582 0.41999 0.0
C454 C 0.05648 0.71439 0.44575 0.0
C455 C 0.0552 0.6817 0.45996 0.0
C456 C 0.04947 0.75142 0.4057 0.0
C457 C 0.03297 0.75877 0.383 0.0
C458 C 0.03515 0.79441 0.36877 0.0
C459 C 0.02714 0.79575 0.34289 0.0
C460 C 0.02826 0.82851 0.32875 0.0
C461 C 0.03713 0.86097 0.34017 0.0
H462 H 0.04914 0.82755 0.40022 0.0
C463 C 0.0448 0.85979 0.36612 0.0
C464 C 0.04378 0.82697 0.38028 0.0
H465 H 0.05185 0.88424 0.37553 0.0
H466 H 0.02856 0.62606 0.41388 0.0
H467 H 0.03118 0.68275 0.38883 0.0
H468 H 0.06453 0.73873 0.45499 0.0
H469 H 0.06226 0.68138 0.4798 0.0
H470 H 0.06519 0.7724 0.4146 0.0
H471 H 0.0173 0.73783 0.37402 0.0
H472 H 0.02001 0.77127 0.3335 0.0
H473 H 0.02158 0.82845 0.30889 0.0
loop_
_geom_bond_atom_site_label_1
_geom_bond_atom_site_label_2
_geom_bond_distance
_geom_bond_site_symmetry_2
_ccdc_geom_bond_type
C0 C1 1.443 . S
C0 N4 1.376 . S
C0 C38 1.389 . S
C1 C0 1.443 . S
C1 C2 1.340 . S
C1 H41 0.951 . S
C2 C1 1.340 . S
C2 C3 1.439 . S
C2 H42 0.950 . S
C3 C2 1.439 . S
C3 N4 1.374 . S
C3 C37 1.403 . S
N4 C0 1.376 . S
N4 C3 1.374 . S
N4 Co5 2.008 . S
Co5 N4 2.008 . S
Co5 N6 1.995 1_554 S
Co5 N11 2.008 1_554 S
Co5 N16 2.012 . S
Co5 N21 2.282 . S
Co5 N27 2.282 1_554 S
N6 Co5 1.995 1_556 S
N6 C7 1.376 . S
N6 C10 1.383 . S
C7 N6 1.376 . S
C7 C8 1.446 . S
C7 C37 1.384 1_556 S
C8 C7 1.446 . S
C8 C9 1.339 . S
C8 H43 0.949 . S
C9 C8 1.339 . S
C9 C10 1.439 . S
C9 H44 0.950 . S
C10 N6 1.383 . S
C10 C9 1.439 . S
C10 C39 1.392 . S
N11 Co5 2.008 1_556 S
N11 C12 1.376 . S
N11 C15 1.374 1_545 S
C12 N11 1.376 . S
C12 C13 1.443 1_545 S
C12 C39 1.389 . S
C13 C12 1.443 1_565 S
C13 C14 1.340 . S
C13 H45 0.951 . S
C14 C13 1.340 . S
C14 C15 1.439 . S
C14 H46 0.950 . S
C15 N11 1.374 1_565 S
C15 C14 1.439 . S
C15 C40 1.395 1_556 S
N16 Co5 2.012 . S
N16 C17 1.352 1_545 S
N16 C20 1.387 . S
C17 N16 1.352 1_565 S
C17 C18 1.446 . S
C17 C40 1.391 . S
C18 C17 1.446 . S
C18 C19 1.339 . S
C18 H47 0.949 . S
C19 C18 1.339 . S
C19 C20 1.439 1_565 S
C19 H48 0.950 . S
C20 N16 1.387 . S
C20 C19 1.439 1_545 S
C20 C38 1.392 . S
N21 Co5 2.282 . S
N21 C24 1.332 . S
N21 C26 1.332 . S
C22 C23 1.386 . S
C22 C25 1.388 . S
C23 C22 1.386 . S
C23 C24 1.382 . S
C23 H49 0.950 1_545 S
C24 N21 1.332 . S
C24 C23 1.382 . S
C24 H35 0.952 1_545 S
C25 C22 1.388 . S
C25 C26 1.382 . S
C25 H50 0.950 . S
C26 N21 1.332 . S
C26 C25 1.382 . S
C26 H36 0.948 . S
N27 Co5 2.282 1_556 S
N27 C31 1.332 . S
N27 C32 1.332 . S
C28 C29 1.388 . S
C28 C32 1.382 . S
C28 H51 0.950 1_545 S
C29 C28 1.388 . S
C29 C30 1.386 . S
C30 C29 1.386 . S
C30 C31 1.382 . S
C30 H52 0.950 . S
C31 N27 1.332 . S
C31 C30 1.382 . S
C31 H33 0.952 . S
C32 N27 1.332 . S
C32 C28 1.382 . S
C32 H34 0.948 1_545 S
H33 C31 0.952 . S
H34 C32 0.948 1_565 S
H35 C24 0.952 1_565 S
H36 C26 0.948 . S
C37 C3 1.403 . S
C37 C7 1.384 1_554 S
C38 C0 1.389 . S
C38 C20 1.392 . S
C39 C10 1.392 . S
C39 C12 1.389 . S
C40 C15 1.395 1_554 S
C40 C17 1.391 . S
H41 C1 0.951 . S
H42 C2 0.950 . S
H43 C8 0.949 . S
H44 C9 0.950 . S
H45 C13 0.951 . S
H46 C14 0.950 . S
H47 C18 0.949 . S
H48 C19 0.950 . S
H49 C23 0.950 1_565 S
H50 C25 0.950 . S
H51 C28 0.950 1_565 S
H52 C30 0.950 . S
C53 C54 1.443 . S
C53 N57 1.376 . S
C53 C91 1.389 . S
C54 C53 1.443 . S
C54 C55 1.340 . S
C54 H94 0.951 . S
C55 C54 1.340 . S
C55 C56 1.439 . S
C55 H95 0.950 . S
C56 C55 1.439 . S
C56 N57 1.374 . S
C56 C90 1.395 . S
N57 C53 1.376 . S
N57 C56 1.374 . S
N57 Co58 2.008 . S
Co58 N57 2.008 . S
Co58 N59 1.995 . S
Co58 N64 2.006 . S
Co58 N69 1.995 . S
Co58 N74 2.282 . S
Co58 N80 2.282 . S
N59 Co58 1.995 . S
N59 C60 1.376 . S
N59 C63 1.383 . S
C60 N59 1.376 . S
C60 C61 1.446 . S
C60 C90 1.391 . S
C61 C60 1.446 . S
C61 C62 1.339 . S
C61 H96 0.949 . S
C62 C61 1.339 . S
C62 C63 1.439 . S
C62 H97 0.950 . S
C63 N59 1.383 . S
C63 C62 1.439 . S
C63 C92 1.392 . S
N64 Co58 2.006 . S
N64 C65 1.376 . S
N64 C68 1.377 1_455 S
C65 N64 1.376 . S
C65 C66 1.443 1_455 S
C65 C92 1.389 . S
C66 C65 1.443 1_655 S
C66 C67 1.340 . S
C66 H98 0.951 . S
C67 C66 1.340 . S
C67 C68 1.439 . S
C67 H99 0.950 . S
C68 N64 1.377 1_655 S
C68 C67 1.439 . S
C68 C93 1.395 . S
N69 Co58 1.995 . S
N69 C70 1.376 1_455 S
N69 C73 1.383 . S
C70 N69 1.376 1_655 S
C70 C71 1.446 . S
C70 C93 1.391 . S
C71 C70 1.446 . S
C71 C72 1.339 . S
C71 H100 0.949 . S
C72 C71 1.339 . S
C72 C73 1.439 1_655 S
C72 H101 0.950 . S
C73 N69 1.383 . S
C73 C72 1.439 1_455 S
C73 C91 1.392 . S
N74 Co58 2.282 . S
N74 C77 1.332 . S
N74 C79 1.332 . S
C75 C76 1.386 . S
C75 C78 1.388 . S
C76 C75 1.386 . S
C76 C77 1.382 . S
C76 H102 0.950 1_455 S
C77 N74 1.332 . S
C77 C76 1.382 . S
C77 H88 0.952 1_455 S
C78 C75 1.388 . S
C78 C79 1.382 . S
C78 H103 0.950 . S
C79 N74 1.332 . S
C79 C78 1.382 . S
C79 H89 0.948 . S
N80 Co58 2.282 . S
N80 C84 1.332 . S
N80 C85 1.332 . S
C81 C82 1.388 . S
C81 C85 1.382 . S
C81 H104 0.950 1_455 S
C82 C81 1.388 . S
C82 C83 1.386 . S
C83 C82 1.386 . S
C83 C84 1.382 . S
C83 H105 0.950 . S
C84 N80 1.332 . S
C84 C83 1.382 . S
C84 H86 0.952 . S
C85 N80 1.332 . S
C85 C81 1.382 . S
C85 H87 0.948 1_455 S
H86 C84 0.952 . S
H87 C85 0.948 1_655 S
H88 C77 0.952 1_655 S
H89 C79 0.948 . S
C90 C56 1.395 . S
C90 C60 1.391 . S
C91 C53 1.389 . S
C91 C73 1.392 . S
C92 C63 1.392 . S
C92 C65 1.389 . S
C93 C68 1.395 . S
C93 C70 1.391 . S
H94 C54 0.951 . S
H95 C55 0.950 . S
H96 C61 0.949 . S
H97 C62 0.950 . S
H98 C66 0.951 . S
H99 C67 0.950 . S
H100 C71 0.949 . S
H101 C72 0.950 . S
H102 C76 0.950 1_655 S
H103 C78 0.950 . S
H104 C81 0.950 1_655 S
H105 C83 0.950 . S
Li106 N123 1.990 . S
Li106 O166 1.956 . S
Li106 O167 1.970 1_455 S
Li106 O168 1.961 . S
Li107 N131 1.990 . S
Li107 O166 1.970 1_565 S
Li107 O167 1.956 1_465 S
Li107 O169 1.961 . S
Li108 N153 1.990 . S
Li108 O166 1.961 . S
Li108 O168 1.956 . S
Li108 O169 1.970 1_545 S
Li109 N159 1.990 . S
Li109 O167 1.961 . S
Li109 O168 1.970 1_655 S
Li109 O169 1.956 1_645 S
C110 C112 1.348 . S
C110 C113 1.356 . S
C110 O166 1.325 . S
N111 C114 1.314 . S
N111 C115 1.279 . S
C112 C110 1.348 . S
C112 C114 1.353 . S
C112 H170 0.929 1_545 S
C113 C110 1.356 . S
C113 C115 1.358 . S
C113 H171 0.930 . S
C114 N111 1.314 . S
C114 C112 1.353 . S
C114 H172 0.930 1_545 S
C115 N111 1.279 . S
C115 C113 1.358 . S
C115 H173 0.930 . S
C116 C119 1.348 . S
C116 C120 1.356 . S
C116 O167 1.325 . S
C117 N118 1.279 . S
C117 C120 1.358 . S
C117 H174 0.930 1_545 S
N118 C117 1.279 . S
N118 C121 1.314 . S
C119 C116 1.348 . S
C119 C121 1.353 . S
C119 H175 0.929 . S
C120 C116 1.356 . S
C120 C117 1.358 . S
C120 H176 0.930 1_545 S
C121 N118 1.314 . S
C121 C119 1.353 . S
C121 H177 0.930 . S
C122 N123 1.314 . S
C122 C127 1.353 . S
C122 H128 0.921 1_455 S
N123 Li106 1.990 . S
N123 C122 1.314 . S
N123 C125 1.279 . S
C124 C125 1.358 . S
C124 C126 1.356 . S
C124 H178 0.930 . S
C125 N123 1.279 . S
C125 C124 1.358 . S
C125 H129 0.930 . S
C126 C124 1.356 . S
C126 C127 1.348 . S
C127 C122 1.353 . S
C127 C126 1.348 . S
C127 H179 0.929 1_455 S
H128 C122 0.921 1_655 S
H129 C125 0.930 . S
C130 N131 1.314 . S
C130 C132 1.353 . S
C130 H136 0.930 . S
N131 Li107 1.990 . S
N131 C130 1.314 . S
N131 C134 1.279 . S
C132 C130 1.353 . S
C132 C135 1.348 . S
C132 H180 0.929 . S
C133 C134 1.358 . S
C133 C135 1.356 . S
C133 H181 0.930 1_455 S
C134 N131 1.279 . S
C134 C133 1.358 . S
C134 H137 0.930 1_455 S
C135 C132 1.348 . S
C135 C133 1.356 . S
H136 C130 0.930 . S
H137 C134 0.930 1_655 S
C138 C140 1.348 . S
C138 C141 1.356 . S
C138 O168 1.325 . S
N139 C142 1.314 . S
N139 C143 1.279 . S
C140 C138 1.348 . S
C140 C142 1.353 . S
C140 H182 0.929 1_455 S
C141 C138 1.356 . S
C141 C143 1.358 . S
C141 H183 0.930 . S
C142 N139 1.314 . S
C142 C140 1.353 . S
C142 H184 0.930 1_455 S
C143 N139 1.279 . S
C143 C141 1.358 . S
C143 H185 0.930 . S
C144 C145 1.348 . S
C144 C146 1.356 . S
C144 O169 1.325 . S
C145 C144 1.348 . S
C145 C147 1.353 . S
C145 H186 0.929 . S
C146 C144 1.356 . S
C146 C148 1.358 . S
C146 H187 0.930 1_455 S
C147 C145 1.353 . S
C147 N149 1.314 . S
C147 H188 0.930 . S
C148 C146 1.358 . S
C148 N149 1.279 . S
C148 H189 0.930 1_455 S
N149 C147 1.314 . S
N149 C148 1.279 . S
C150 C152 1.353 . S
C150 N153 1.314 . S
C150 H156 0.921 1_545 S
C151 N153 1.279 . S
C151 C154 1.358 . S
C151 H157 0.930 . S
C152 C150 1.353 . S
C152 C155 1.348 . S
C152 H190 0.929 1_545 S
N153 Li108 1.990 . S
N153 C150 1.314 . S
N153 C151 1.279 . S
C154 C151 1.358 . S
C154 C155 1.356 . S
C154 H191 0.930 . S
C155 C152 1.348 . S
C155 C154 1.356 . S
H156 C150 0.921 1_565 S
H157 C151 0.930 . S
C158 N159 1.314 . S
C158 C160 1.353 . S
C158 H164 0.930 . S
N159 Li109 1.990 . S
N159 C158 1.314 . S
N159 C162 1.279 . S
C160 C158 1.353 . S
C160 C163 1.348 . S
C160 H192 0.929 . S
C161 C162 1.358 . S
C161 C163 1.356 . S
C161 H193 0.930 1_545 S
C162 N159 1.279 . S
C162 C161 1.358 . S
C162 H165 0.930 1_545 S
C163 C160 1.348 . S
C163 C161 1.356 . S
H164 C158 0.930 . S
H165 C162 0.930 1_565 S
O166 Li106 1.956 . S
O166 Li107 1.970 1_545 S
O166 Li108 1.961 . S
O166 C110 1.325 . S
O167 Li106 1.970 1_655 S
O167 Li107 1.956 1_645 S
O167 Li109 1.961 . S
O167 C116 1.325 . S
O168 Li106 1.961 . S
O168 Li108 1.956 . S
O168 Li109 1.970 1_455 S
O168 C138 1.325 . S
O169 Li107 1.961 . S
O169 Li108 1.970 1_565 S
O169 Li109 1.956 1_465 S
O169 C144 1.325 . S
H170 C112 0.929 1_565 S
H171 C113 0.930 . S
H172 C114 0.930 1_565 S
H173 C115 0.930 . S
H174 C117 0.930 1_565 S
H175 C119 0.929 . S
H176 C120 0.930 1_565 S
H177 C121 0.930 . S
H178 C124 0.930 . S
H179 C127 0.929 1_655 S
H180 C132 0.929 . S
H181 C133 0.930 1_655 S
H182 C140 0.929 1_655 S
H183 C141 0.930 . S
H184 C142 0.930 1_655 S
H185 C143 0.930 . S
H186 C145 0.929 . S
H187 C146 0.930 1_655 S
H188 C147 0.930 . S
H189 C148 0.930 1_655 S
H190 C152 0.929 1_565 S
H191 C154 0.930 . S
H192 C160 0.929 . S
H193 C161 0.930 1_565 S
Li194 N211 1.990 1_455 S
Li194 O254 1.956 . S
Li194 O255 1.970 . S
Li194 O256 1.961 . S
Li195 N219 1.990 . S
Li195 O254 1.970 . S
Li195 O255 1.956 . S
Li195 O257 1.961 . S
Li196 N241 1.990 . S
Li196 O254 1.961 . S
Li196 O256 1.956 . S
Li196 O257 1.970 . S
Li197 N247 1.990 1_545 S
Li197 O255 1.961 . S
Li197 O256 1.970 . S
Li197 O257 1.956 . S
C198 C200 1.348 . S
C198 C201 1.356 . S
C198 O254 1.325 . S
N199 C202 1.314 . S
N199 C203 1.279 . S
C200 C198 1.348 . S
C200 C202 1.353 . S
C200 H258 0.929 . S
C201 C198 1.356 . S
C201 C203 1.358 . S
C201 H259 0.930 . S
C202 N199 1.314 . S
C202 C200 1.353 . S
C202 H260 0.930 . S
C203 N199 1.279 . S
C203 C201 1.358 . S
C203 H261 0.930 . S
C204 C207 1.348 . S
C204 C208 1.356 . S
C204 O255 1.325 1_565 S
C205 N206 1.279 . S
C205 C208 1.358 . S
C205 H262 0.930 . S
N206 C205 1.279 . S
N206 C209 1.314 . S
C207 C204 1.348 . S
C207 C209 1.353 . S
C207 H263 0.929 . S
C208 C204 1.356 . S
C208 C205 1.358 . S
C208 H264 0.930 . S
C209 N206 1.314 . S
C209 C207 1.353 . S
C209 H265 0.930 . S
C210 N211 1.314 . S
C210 C215 1.353 . S
C210 H216 0.930 . S
N211 Li194 1.990 1_655 S
N211 C210 1.314 . S
N211 C213 1.279 . S
C212 C213 1.358 . S
C212 C214 1.356 . S
C212 H266 0.930 . S
C213 N211 1.279 . S
C213 C212 1.358 . S
C213 H217 0.930 . S
C214 C212 1.356 . S
C214 C215 1.348 . S
C215 C210 1.353 . S
C215 C214 1.348 . S
C215 H267 0.929 . S
H216 C210 0.930 . S
H217 C213 0.930 . S
C218 N219 1.314 . S
C218 C220 1.353 . S
C218 H224 0.930 . S
N219 Li195 1.990 . S
N219 C218 1.314 . S
N219 C222 1.279 . S
C220 C218 1.353 . S
C220 C223 1.348 . S
C220 H268 0.929 . S
C221 C222 1.358 . S
C221 C223 1.356 . S
C221 H269 0.930 . S
C222 N219 1.279 . S
C222 C221 1.358 . S
C222 H225 0.930 . S
C223 C220 1.348 . S
C223 C221 1.356 . S
H224 C218 0.930 . S
H225 C222 0.930 . S
C226 C228 1.348 . S
C226 C229 1.356 . S
C226 O256 1.325 1_655 S
N227 C230 1.314 . S
N227 C231 1.279 . S
C228 C226 1.348 . S
C228 C230 1.353 . S
C228 H270 0.929 . S
C229 C226 1.356 . S
C229 C231 1.358 . S
C229 H271 0.930 . S
C230 N227 1.314 . S
C230 C228 1.353 . S
C230 H272 0.930 . S
C231 N227 1.279 . S
C231 C229 1.358 . S
C231 H273 0.930 . S
C232 C233 1.348 . S
C232 C234 1.356 . S
C232 O257 1.325 . S
C233 C232 1.348 . S
C233 C235 1.353 . S
C233 H274 0.929 . S
C234 C232 1.356 . S
C234 C236 1.358 . S
C234 H275 0.930 . S
C235 C233 1.353 . S
C235 N237 1.314 . S
C235 H276 0.930 . S
C236 C234 1.358 . S
C236 N237 1.279 . S
C236 H277 0.930 . S
N237 C235 1.314 . S
N237 C236 1.279 . S
C238 C240 1.353 . S
C238 N241 1.314 . S
C238 H244 0.930 . S
C239 N241 1.279 . S
C239 C242 1.358 . S
C239 H245 0.930 . S
C240 C238 1.353 . S
C240 C243 1.348 . S
C240 H278 0.929 . S
N241 Li196 1.990 . S
N241 C238 1.314 . S
N241 C239 1.279 . S
C242 C239 1.358 . S
C242 C243 1.356 . S
C242 H279 0.930 . S
C243 C240 1.348 . S
C243 C242 1.356 . S
H244 C238 0.930 . S
H245 C239 0.930 . S
C246 N247 1.314 . S
C246 C248 1.353 . S
C246 H252 0.930 . S
N247 Li197 1.990 1_565 S
N247 C246 1.314 . S
N247 C250 1.279 . S
C248 C246 1.353 . S
C248 C251 1.348 . S
C248 H280 0.929 . S
C249 C250 1.358 . S
C249 C251 1.356 . S
C249 H281 0.930 . S
C250 N247 1.279 . S
C250 C249 1.358 . S
C250 H253 0.930 . S
C251 C248 1.348 . S
C251 C249 1.356 . S
H252 C246 0.930 . S
H253 C250 0.930 . S
O254 Li194 1.956 . S
O254 Li195 1.970 . S
O254 Li196 1.961 . S
O254 C198 1.325 . S
O255 Li194 1.970 . S
O255 Li195 1.956 . S
O255 Li197 1.961 . S
O255 C204 1.325 1_545 S
O256 Li194 1.961 . S
O256 Li196 1.956 . S
O256 Li197 1.970 . S
O256 C226 1.325 1_455 S
O257 Li195 1.961 . S
O257 Li196 1.970 . S
O257 Li197 1.956 . S
O257 C232 1.325 . S
H258 C200 0.929 . S
H259 C201 0.930 . S
H260 C202 0.930 . S
H261 C203 0.930 . S
H262 C205 0.930 . S
H263 C207 0.929 . S
H264 C208 0.930 . S
H265 C209 0.930 . S
H266 C212 0.930 . S
H267 C215 0.929 . S
H268 C220 0.929 . S
H269 C221 0.930 . S
H270 C228 0.929 . S
H271 C229 0.930 . S
H272 C230 0.930 . S
H273 C231 0.930 . S
H274 C233 0.929 . S
H275 C234 0.930 . S
H276 C235 0.930 . S
H277 C236 0.930 . S
H278 C240 0.929 . S
H279 C242 0.930 . S
H280 C248 0.929 . S
H281 C249 0.930 . S
C282 C283 1.386 . S
C282 C284 1.383 . S
C282 H298 0.951 . S
C283 C282 1.386 . S
C283 C287 1.383 . S
C284 C282 1.383 . S
C284 C285 1.402 . S
C284 H299 0.951 . S
C285 C284 1.402 . S
C285 C286 1.375 . S
C285 C288 1.481 . S
C286 C285 1.375 . S
C286 C287 1.367 . S
C286 H300 0.951 . S
C287 C283 1.383 . S
C287 C286 1.367 . S
C287 H301 0.950 . S
C288 C285 1.481 . S
C288 C289 1.297 . S
C288 H302 0.950 . S
C289 C288 1.297 . S
C289 C290 1.479 . S
C289 H303 0.950 . S
C290 C289 1.479 . S
C290 C291 1.375 . S
C290 C296 1.404 . S
C291 C290 1.375 . S
C291 C292 1.369 . S
C291 H304 0.950 . S
C292 C291 1.369 . S
C292 C293 1.392 . S
C292 H305 0.951 . S
C293 C292 1.392 . S
C293 C295 1.384 . S
H294 C296 0.949 . S
C295 C293 1.384 . S
C295 C296 1.385 . S
C295 H297 0.950 . S
C296 C290 1.404 . S
C296 H294 0.949 . S
C296 C295 1.385 . S
H297 C295 0.950 . S
H298 C282 0.951 . S
H299 C284 0.951 . S
H300 C286 0.951 . S
H301 C287 0.950 . S
H302 C288 0.950 . S
H303 C289 0.950 . S
H304 C291 0.950 . S
H305 C292 0.951 . S
C306 C307 1.386 . S
C306 C308 1.383 . S
C306 H322 0.951 . S
C307 C306 1.386 . S
C307 C311 1.383 . S
C308 C306 1.383 . S
C308 C309 1.402 . S
C308 H323 0.951 . S
C309 C308 1.402 . S
C309 C310 1.375 . S
C309 C312 1.481 . S
C310 C309 1.375 . S
C310 C311 1.367 . S
C310 H324 0.937 1_455 S
C311 C307 1.383 . S
C311 C310 1.367 . S
C311 H325 0.964 . S
C312 C309 1.481 . S
C312 C313 1.297 . S
C312 H326 0.950 . S
C313 C312 1.297 . S
C313 C314 1.479 . S
C313 H327 0.950 . S
C314 C313 1.479 . S
C314 C315 1.375 . S
C314 C320 1.404 . S
C315 C314 1.375 . S
C315 C316 1.369 . S
C315 H328 0.950 . S
C316 C315 1.369 . S
C316 C317 1.392 . S
C316 H329 0.951 . S
C317 C316 1.392 . S
C317 C319 1.384 . S
H318 C320 0.949 . S
C319 C317 1.384 . S
C319 C320 1.385 . S
C319 H321 0.950 . S
C320 C314 1.404 . S
C320 H318 0.949 . S
C320 C319 1.385 . S
H321 C319 0.950 . S
H322 C306 0.951 . S
H323 C308 0.951 . S
H324 C310 0.937 1_655 S
H325 C311 0.964 . S
H326 C312 0.950 . S
H327 C313 0.950 . S
H328 C315 0.950 . S
H329 C316 0.951 . S
C330 C331 1.386 . S
C330 C332 1.383 . S
C330 H346 0.951 . S
C331 C330 1.386 . S
C331 C335 1.383 . S
C332 C330 1.383 . S
C332 C333 1.402 . S
C332 H347 0.951 . S
C333 C332 1.402 . S
C333 C334 1.375 . S
C333 C336 1.481 . S
C334 C333 1.375 . S
C334 C335 1.367 . S
C334 H348 0.951 1_545 S
C335 C331 1.383 . S
C335 C334 1.367 . S
C335 H349 0.950 1_545 S
C336 C333 1.481 . S
C336 C337 1.297 . S
C336 H350 0.950 . S
C337 C336 1.297 . S
C337 C338 1.479 . S
C337 H351 0.950 . S
C338 C337 1.479 . S
C338 C339 1.375 . S
C338 C344 1.404 . S
C339 C338 1.375 . S
C339 C340 1.369 . S
C339 H352 0.950 . S
C340 C339 1.369 . S
C340 C341 1.392 . S
C340 H353 0.951 . S
C341 C340 1.392 . S
C341 C343 1.384 . S
H342 C344 0.958 . S
C343 C341 1.384 . S
C343 C344 1.385 . S
C343 H345 0.950 1_545 S
C344 C338 1.404 . S
C344 H342 0.958 . S
C344 C343 1.385 . S
H345 C343 0.950 1_565 S
H346 C330 0.951 . S
H347 C332 0.951 . S
H348 C334 0.951 1_565 S
H349 C335 0.950 1_565 S
H350 C336 0.950 . S
H351 C337 0.950 . S
H352 C339 0.950 . S
H353 C340 0.951 . S
C354 C355 1.386 . S
C354 C356 1.383 . S
C354 H370 0.951 . S
C355 C354 1.386 . S
C355 C359 1.383 . S
C356 C354 1.383 . S
C356 C357 1.402 . S
C356 H371 0.951 . S
C357 C356 1.402 . S
C357 C358 1.375 . S
C357 C360 1.481 . S
C358 C357 1.375 . S
C358 C359 1.367 . S
C358 H372 0.951 . S
C359 C355 1.383 . S
C359 C358 1.367 . S
C359 H373 0.950 . S
C360 C357 1.481 . S
C360 C361 1.297 . S
C360 H374 0.950 . S
C361 C360 1.297 . S
C361 C362 1.479 . S
C361 H375 0.950 . S
C362 C361 1.479 . S
C362 C363 1.375 . S
C362 C368 1.404 . S
C363 C362 1.375 . S
C363 C364 1.369 . S
C363 H376 0.950 . S
C364 C363 1.369 . S
C364 C365 1.392 . S
C364 H377 0.951 . S
C365 C364 1.392 . S
C365 C367 1.384 . S
H366 C368 0.949 . S
C367 C365 1.384 . S
C367 C368 1.385 . S
C367 H369 0.950 . S
C368 C362 1.404 . S
C368 H366 0.949 . S
C368 C367 1.385 . S
H369 C367 0.950 . S
H370 C354 0.951 . S
H371 C356 0.951 . S
H372 C358 0.951 . S
H373 C359 0.950 . S
H374 C360 0.950 . S
H375 C361 0.950 . S
H376 C363 0.950 . S
H377 C364 0.951 . S
C378 C379 1.386 . S
C378 C380 1.383 . S
C378 H394 0.951 . S
C379 C378 1.386 . S
C379 C383 1.383 . S
C380 C378 1.383 . S
C380 C381 1.402 . S
C380 H395 0.951 . S
C381 C380 1.402 . S
C381 C382 1.375 . S
C381 C384 1.481 . S
C382 C381 1.375 . S
C382 C383 1.367 . S
C382 H396 0.951 . S
C383 C379 1.383 . S
C383 C382 1.367 . S
C383 H397 0.950 . S
C384 C381 1.481 . S
C384 C385 1.297 . S
C384 H398 0.950 . S
C385 C384 1.297 . S
C385 C386 1.479 . S
C385 H399 0.950 . S
C386 C385 1.479 . S
C386 C387 1.375 . S
C386 C392 1.404 . S
C387 C386 1.375 . S
C387 C388 1.369 . S
C387 H400 0.950 . S
C388 C387 1.369 . S
C388 C389 1.392 . S
C388 H401 0.951 . S
C389 C388 1.392 . S
C389 C391 1.384 . S
H390 C392 0.949 . S
C391 C389 1.384 . S
C391 C392 1.385 . S
C391 H393 0.950 . S
C392 C386 1.404 . S
C392 H390 0.949 . S
C392 C391 1.385 . S
H393 C391 0.950 . S
H394 C378 0.951 . S
H395 C380 0.951 . S
H396 C382 0.951 . S
H397 C383 0.950 . S
H398 C384 0.950 . S
H399 C385 0.950 . S
H400 C387 0.950 . S
H401 C388 0.951 . S
C402 C403 1.386 . S
C402 C404 1.383 . S
C402 H418 0.951 . S
C403 C402 1.386 . S
C403 C407 1.383 . S
C404 C402 1.383 . S
C404 C405 1.402 . S
C404 H419 0.951 . S
C405 C404 1.402 . S
C405 C406 1.375 . S
C405 C408 1.481 . S
C406 C405 1.375 . S
C406 C407 1.367 . S
C406 H420 0.951 . S
C407 C403 1.383 . S
C407 C406 1.367 . S
C407 H421 0.950 . S
C408 C405 1.481 . S
C408 C409 1.297 . S
C408 H422 0.950 . S
C409 C408 1.297 . S
C409 C410 1.479 . S
C409 H423 0.950 . S
C410 C409 1.479 . S
C410 C411 1.375 . S
C410 C416 1.404 . S
C411 C410 1.375 . S
C411 C412 1.369 . S
C411 H424 0.945 1_455 S
C412 C411 1.369 . S
C412 C413 1.392 . S
C412 H425 0.951 . S
C413 C412 1.392 . S
C413 C415 1.384 . S
H414 C416 0.949 . S
C415 C413 1.384 . S
C415 C416 1.385 . S
C415 H417 0.950 . S
C416 C410 1.404 . S
C416 H414 0.949 . S
C416 C415 1.385 . S
H417 C415 0.950 . S
H418 C402 0.951 . S
H419 C404 0.951 . S
H420 C406 0.951 . S
H421 C407 0.950 . S
H422 C408 0.950 . S
H423 C409 0.950 . S
H424 C411 0.945 1_655 S
H425 C412 0.951 . S
C426 C427 1.386 . S
C426 C428 1.383 . S
C426 H442 0.951 . S
C427 C426 1.386 . S
C427 C431 1.383 . S
C428 C426 1.383 . S
C428 C429 1.402 . S
C428 H443 0.951 . S
C429 C428 1.402 . S
C429 C430 1.375 . S
C429 C432 1.481 . S
C430 C429 1.375 . S
C430 C431 1.367 . S
C430 H444 0.951 . S
C431 C427 1.383 . S
C431 C430 1.367 . S
C431 H445 0.950 . S
C432 C429 1.481 . S
C432 C433 1.297 . S
C432 H446 0.950 . S
C433 C432 1.297 . S
C433 C434 1.479 . S
C433 H447 0.950 . S
C434 C433 1.479 . S
C434 C435 1.375 . S
C434 C440 1.404 . S
C435 C434 1.375 . S
C435 C436 1.369 . S
C435 H448 0.965 . S
C436 C435 1.369 . S
C436 C437 1.392 . S
C436 H449 0.951 . S
C437 C436 1.392 . S
C437 C439 1.384 . S
H438 C440 0.949 . S
C439 C437 1.384 . S
C439 C440 1.385 . S
C439 H441 0.950 . S
C440 C434 1.404 . S
C440 H438 0.949 . S
C440 C439 1.385 . S
H441 C439 0.950 . S
H442 C426 0.951 . S
H443 C428 0.951 . S
H444 C430 0.951 . S
H445 C431 0.950 . S
H446 C432 0.950 . S
H447 C433 0.950 . S
H448 C435 0.965 . S
H449 C436 0.951 . S
C450 C451 1.386 . S
C450 C452 1.383 . S
C450 H466 0.951 1_455 S
C451 C450 1.386 . S
C451 C455 1.383 . S
C452 C450 1.383 . S
C452 C453 1.402 . S
C452 H467 0.951 1_455 S
C453 C452 1.402 . S
C453 C454 1.375 . S
C453 C456 1.481 . S
C454 C453 1.375 . S
C454 C455 1.367 . S
C454 H468 0.951 . S
C455 C451 1.383 . S
C455 C454 1.367 . S
C455 H469 0.950 . S
C456 C453 1.481 . S
C456 C457 1.297 . S
C456 H470 0.950 . S
C457 C456 1.297 . S
C457 C458 1.479 . S
C457 H471 0.950 1_455 S
C458 C457 1.479 . S
C458 C459 1.387 . S
C458 C464 1.404 . S
C459 C458 1.387 . S
C459 C460 1.372 . S
C459 H472 0.935 1_455 S
C460 C459 1.372 . S
C460 C461 1.392 . S
C460 H473 0.951 1_455 S
C461 C460 1.392 . S
C461 C463 1.384 . S
H462 C464 0.949 . S
C463 C461 1.384 . S
C463 C464 1.385 . S
C463 H465 0.950 . S
C464 C458 1.404 . S
C464 H462 0.949 . S
C464 C463 1.385 . S
H465 C463 0.950 . S
H466 C450 0.951 1_655 S
H467 C452 0.951 1_655 S
H468 C454 0.951 . S
H469 C455 0.950 . S
H470 C456 0.950 . S
H471 C457 0.950 1_655 S
H472 C459 0.935 1_655 S
H473 C460 0.951 1_655 S
C293 C155 1.483 . S
C283 C22 1.486 . S
C317 C243 1.480 . S
C307 C91 1.482 . S
C341 C163 1.480 . S
C331 C38 1.482 . S
C365 C251 1.482 . S
C355 C75 1.486 . S
C389 C223 1.481 . S
C379 C39 1.482 . S
C413 C126 1.483 . S
C403 C82 1.484 . S
C437 C214 1.483 . S
C427 C29 1.484 . S
C451 C92 1.487 . S
C461 C135 1.473 . S
