# Generated by pormake.
# Topology tsx, (6,3)-cn, num edge types: 1
# Building blocks:
#     Node 0, Type 0, BuildingBlock: CIFDUS_clean_sbu_1, # of connection points: 6
#     Node 1, Type 0, BuildingBlock: CIFDUS_clean_sbu_1, # of connection points: 6
#     Node 2, Type 1, BuildingBlock: WUSLED_clean_sbu_0, # of connection points: 3
#     Node 3, Type 1, BuildingBlock: WUSLED_clean_sbu_0, # of connection points: 3
#     Node 4, Type 1, BuildingBlock: WUSLED_clean_sbu_0, # of connection points: 3
#     Node 5, Type 1, BuildingBlock: WUSLED_clean_sbu_0, # of connection points: 3
#     Edge 6, Type (0, 1), BuildingBlock: OJICUG_clean_linker_0, # of connection points: 2
#     Edge 7, Type (0, 1), BuildingBlock: OJICUG_clean_linker_0, # of connection points: 2
#     Edge 8, Type (0, 1), BuildingBlock: OJICUG_clean_linker_0, # of connection points: 2
#     Edge 9, Type (0, 1), BuildingBlock: OJICUG_clean_linker_0, # of connection points: 2
#     Edge 10, Type (0, 1), BuildingBlock: OJICUG_clean_linker_0, # of connection points: 2
#     Edge 11, Type (0, 1), BuildingBlock: OJICUG_clean_linker_0, # of connection points: 2
#     Edge 12, Type (0, 1), BuildingBlock: OJICUG_clean_linker_0, # of connection points: 2
#     Edge 13, Type (0, 1), BuildingBlock: OJICUG_clean_linker_0, # of connection points: 2
#     Edge 14, Type (0, 1), BuildingBlock: OJICUG_clean_linker_0, # of connection points: 2
#     Edge 15, Type (0, 1), BuildingBlock: OJICUG_clean_linker_0, # of connection points: 2
#     Edge 16, Type (0, 1), BuildingBlock: OJICUG_clean_linker_0, # of connection points: 2
#     Edge 17, Type (0, 1), BuildingBlock: OJICUG_clean_linker_0, # of connection points: 2
# Relax obj value: 0.120
# Max RMSD: 0.152
# Mean RMSD: 0.113
data_MOF--net-tsx--node1-CIFDUS_clean_sbu_1--node2-WUSLED_clean_sbu_0--edge1-OJICUG_clean_linker_0
_symmetry_space_group_name_H-M    P1
_symmetry_Int_Tables_number       1
_symmetry_cell_setting            triclinic
loop_
_symmetry_equiv_pos_as_xyz
'x, y, z'
_cell_length_a     18.119012
_cell_length_b     23.302958
_cell_length_c     37.247615
_cell_angle_alpha  97.511304
_cell_angle_beta   92.397078
_cell_angle_gamma 91.51443
loop_
_atom_site_label
_atom_site_type_symbol
_atom_site_fract_x
_atom_site_fract_y
_atom_site_fract_z
_atom_type_partial_charge
O0 O 1.02077 0.1141 0.02374 0.0
Mn1 Mn 0.079 0.0352 0.01846 0.0
O2 O 0.90415 0.09167 1.00533 0.0
Mn3 Mn 0.9326 0.02316 0.98083 0.0
O4 O 0.1396 0.95694 0.0125 0.0
O5 O 0.17152 0.08771 0.02735 0.0
Mn6 Mn 0.23319 0.05107 0.05324 0.0
O7 O 0.07224 0.03137 0.07496 0.0
O8 O 0.25779 0.98309 0.02703 0.0
O9 O 0.09031 0.03922 0.96276 0.0
O10 O 0.97606 0.02738 0.93743 0.0
O11 O 0.2842 0.11696 0.04785 0.0
O12 O 0.19031 0.04447 0.09647 0.0
C13 C 0.92438 0.94741 1.00333 0.0
C14 C 0.95296 0.12815 0.01963 0.0
C15 C 0.20879 0.94506 0.01473 0.0
C16 C 0.22393 0.12771 0.03035 0.0
C17 C 0.12199 0.0353 0.10119 0.0
C18 C 0.045 0.03535 0.93508 0.0
O19 O 0.98441 0.98128 1.00928 0.0
O20 O 0.87164 0.96266 0.9823 0.0
O21 O 0.52556 0.61224 0.52412 0.0
Mn22 Mn 0.58323 0.53452 0.51717 0.0
O23 O 0.40774 0.58957 0.50871 0.0
Mn24 Mn 0.4361 0.52472 0.48035 0.0
O25 O 0.64318 0.45796 0.50933 0.0
O26 O 0.67558 0.58708 0.52754 0.0
Mn27 Mn 0.73681 0.54993 0.55354 0.0
O28 O 0.57588 0.52699 0.57298 0.0
O29 O 0.76086 0.48206 0.52695 0.0
O30 O 0.59438 0.54191 0.46212 0.0
O31 O 0.47903 0.5376 0.43801 0.0
O32 O 0.78725 0.6167 0.549 0.0
O33 O 0.69263 0.54162 0.59616 0.0
C34 C 0.42986 0.44608 0.49959 0.0
C35 C 0.45753 0.62571 0.52228 0.0
C36 C 0.71165 0.44561 0.51256 0.0
C37 C 0.72737 0.62764 0.53126 0.0
C38 C 0.62436 0.53051 0.59971 0.0
C39 C 0.54816 0.54397 0.43535 0.0
O40 O 0.48935 0.48031 0.50644 0.0
O41 O 0.37704 0.46218 0.47892 0.0
C42 C 0.93737 0.13243 0.46212 0.0
C43 C 0.92855 0.17106 0.43654 0.0
C44 C 0.8433 0.22588 0.47555 0.0
C45 C 0.88121 0.21748 0.44314 0.0
C46 C 0.85086 0.1858 0.50039 0.0
C47 C 0.89736 0.13946 0.49365 0.0
U48 U 0.08452 0.01113 0.43233 0.0
O49 O 0.09568 0.94104 0.46612 0.0
O50 O 0.18373 0.00829 0.46823 0.0
C51 C 0.16027 0.96099 0.48044 0.0
C52 C 0.99268 0.08779 0.45921 0.0
C53 C 0.21537 0.91812 0.48663 0.0
C54 C 0.29181 0.87538 0.5304 0.0
C55 C 0.24326 0.91766 0.52221 0.0
C56 C 0.28696 0.83415 0.46706 0.0
C57 C 0.31369 0.83294 0.50303 0.0
C58 C 0.23768 0.87646 0.45889 0.0
C59 C 0.08319 0.98925 0.32465 0.0
C60 C 0.09745 0.95156 0.26151 0.0
C61 C 0.04637 0.04617 0.27671 0.0
C62 C 0.0529 0.0396 0.31381 0.0
C63 C 0.07081 0.00275 0.25033 0.0
C64 C 0.10345 0.94495 0.29815 0.0
C65 C 0.10215 0.98234 0.36274 0.0
O66 O 0.97247 0.03324 0.44951 0.0
O67 O 0.06052 0.10156 0.45149 0.0
O68 O 0.05344 0.95619 0.38077 0.0
O69 O 0.14062 0.02446 0.38269 0.0
H70 H 0.95975 0.16638 0.41221 0.0
H71 H 0.87701 0.24827 0.4238 0.0
H72 H 0.82221 0.19115 0.52552 0.0
H73 H 0.90407 0.11014 0.51376 0.0
H74 H 0.31175 0.87552 0.55824 0.0
H75 H 0.22626 0.94952 0.54391 0.0
H76 H 0.30226 0.80132 0.44555 0.0
H77 H 0.21607 0.87606 0.4313 0.0
H78 H 0.11678 0.91745 0.24187 0.0
H79 H 1.02632 0.08629 0.26883 0.0
H80 H 0.0371 0.07444 0.33391 0.0
H81 H 0.12721 0.90591 0.30589 0.0
C82 C 0.9291 0.95072 0.54206 0.0
C83 C 0.90771 0.92243 0.57119 0.0
C84 C 0.82901 0.85395 0.53018 0.0
C85 C 0.85824 0.87456 0.56532 0.0
C86 C 0.84981 0.88315 0.50122 0.0
C87 C 0.89928 0.93106 0.50715 0.0
U88 U 0.05078 0.05678 0.60618 0.0
O89 O 0.16508 0.08911 0.60291 0.0
O90 O 0.07464 0.15061 0.60809 0.0
C91 C 0.14605 0.14352 0.60529 0.0
C92 C 0.98327 -8e-05 0.54784 0.0
C93 C 0.18791 0.18303 0.58503 0.0
C94 C 0.27626 0.20163 0.54 0.0
C95 C 0.22761 0.1635 0.55439 0.0
C96 C 0.24445 0.27913 0.58599 0.0
C97 C 0.28659 0.25968 0.55621 0.0
C98 C 0.1959 0.2413 0.60015 0.0
C99 C 1.03295 0.03516 0.70819 0.0
C100 C 0.11077 0.06801 0.76238 0.0
C101 C 0.99478 0.01603 0.76719 0.0
C102 C 0.98134 0.01249 0.72988 0.0
C103 C 0.06023 0.04259 0.7838 0.0
C104 C 0.09745 0.06394 0.72459 0.0
C105 C 1.01849 0.024 0.66865 0.0
O106 O 0.95911 0.04827 0.5649 0.0
O107 O 0.04959 0.98766 0.55975 0.0
O108 O 0.07203 0.00196 0.64902 0.0
O109 O 0.98114 0.06277 0.65354 0.0
H110 H 0.93026 0.93679 0.59838 0.0
H111 H 0.84489 0.85254 0.5882 0.0
H112 H 0.8283 0.86868 0.47388 0.0
H113 H 0.91492 0.9523 0.48434 0.0
H114 H 0.30738 0.18516 0.51688 0.0
H115 H 0.22273 0.11863 0.54227 0.0
H116 H 0.24897 0.32377 0.59853 0.0
H117 H 0.16613 0.25729 0.62387 0.0
H118 H 0.16143 0.08901 0.77463 0.0
H119 H 0.95426 0.99703 0.78311 0.0
H120 H 0.93114 0.99043 0.71778 0.0
H121 H 0.13791 0.08192 0.70821 0.0
C122 C 0.46365 0.63708 0.98672 0.0
C123 C 0.44137 0.66377 0.95645 0.0
C124 C 0.36284 0.72898 0.99394 0.0
C125 C 0.39187 0.70954 0.96006 0.0
C126 C 0.384 0.70044 0.02372 0.0
C127 C 0.43459 0.65606 0.02023 0.0
U128 U 0.57443 0.52588 0.9292 0.0
O129 O 0.68727 0.49443 0.93621 0.0
O130 O 0.5919 0.43293 0.93189 0.0
C131 C 0.6642 0.4402 0.93512 0.0
C132 C 0.51592 0.589 0.98387 0.0
C133 C 0.70741 0.40114 0.9557 0.0
C134 C 0.77678 0.37706 1.00915 0.0
C135 C 0.7307 0.41478 0.99244 0.0
C136 C 0.77648 0.31255 0.95268 0.0
C137 C 0.80124 0.32612 0.98908 0.0
C138 C 0.72993 0.34935 0.93634 0.0
C139 C 0.54282 0.53713 0.82534 0.0
C140 C 0.60019 0.48717 0.77284 0.0
C141 C 0.5072 0.55778 0.76485 0.0
C142 C 0.49961 0.56688 0.80227 0.0
C143 C 0.55824 0.51841 0.74956 0.0
C144 C 0.5927 0.49659 0.81049 0.0
C145 C 0.53519 0.55151 0.86459 0.0
O146 O 0.48797 0.53851 0.96896 0.0
O147 O 0.58158 0.6006 0.97232 0.0
O148 O 0.59329 0.57525 0.88376 0.0
O149 O 0.4984 0.51395 0.88094 0.0
H150 H 0.46305 0.64979 0.93018 0.0
H151 H 0.37804 0.73055 0.93653 0.0
H152 H 0.36207 0.71261 0.05012 0.0
H153 H 0.45152 0.6371 0.04405 0.0
H154 H 0.7947 0.38826 0.03736 0.0
H155 H 0.71416 0.45459 1.00794 0.0
H156 H 0.79335 0.2732 0.93673 0.0
H157 H 0.71267 0.33783 0.90804 0.0
H158 H 0.63949 0.45597 0.76203 0.0
H159 H 0.47502 0.58345 0.74811 0.0
H160 H 0.46092 0.59845 0.81334 0.0
H161 H 0.62636 0.47303 0.82794 0.0
C162 C 0.42874 0.44825 0.04308 0.0
C163 C 0.40666 0.41965 0.07193 0.0
C164 C 0.32815 0.35223 0.03028 0.0
C165 C 0.35689 0.37208 0.0656 0.0
C166 C 0.34994 0.38155 1.00158 0.0
C167 C 0.39969 0.42911 1.00797 0.0
U168 U 0.55095 0.55273 0.10795 0.0
O169 O 0.66436 0.58655 0.10434 0.0
O170 O 0.57309 0.64706 0.1112 0.0
C171 C 0.64449 0.6408 0.10774 0.0
C172 C 0.48173 0.49796 0.04947 0.0
C173 C 0.68508 0.68153 0.08779 0.0
C174 C 0.77241 0.7021 0.04276 0.0
C175 C 0.72431 0.66321 0.0568 0.0
C176 C 0.74081 0.77813 0.08974 0.0
C177 C 0.78258 0.75983 0.05961 0.0
C178 C 0.69287 0.73947 0.1036 0.0
C179 C 0.54258 0.52688 0.2089 0.0
C180 C 0.59572 0.58572 0.26309 0.0
C181 C 0.53604 0.4927 0.26743 0.0
C182 C 0.52041 0.48485 0.23016 0.0
C183 C 0.57377 0.54306 0.28429 0.0
C184 C 0.58073 0.57744 0.22541 0.0
C185 C 0.52314 0.51621 0.16988 0.0
O186 O 0.45694 0.54459 0.06819 0.0
O187 O 0.54908 0.48609 0.06009 0.0
O188 O 0.57494 0.49491 0.14885 0.0
O189 O 0.48461 0.55584 0.15622 0.0
H190 H 0.4286 0.43371 0.09928 0.0
H191 H 0.34272 0.3498 0.08826 0.0
H192 H 0.32881 0.36755 0.97412 0.0
H193 H 0.41578 0.45055 0.98533 0.0
H194 H 0.80328 0.68641 0.0194 0.0
H195 H 0.71961 0.61861 0.04414 0.0
H196 H 0.74516 0.82249 0.10281 0.0
H197 H 0.6635 0.75453 0.12763 0.0
H198 H 0.62435 0.62513 0.27564 0.0
H199 H 0.51702 0.45985 0.28328 0.0
H200 H 0.49028 0.4459 0.21791 0.0
H201 H 0.59813 0.61044 0.20931 0.0
C202 C 0.26319 0.1999 0.99239 0.0
C203 C 0.21757 0.18568 0.01964 0.0
H204 H 0.33481 0.26376 0.97454 0.0
C205 C 0.19662 0.22989 0.04619 0.0
H206 H 0.28191 0.16616 0.9723 0.0
C207 C 0.22817 0.28575 0.04809 0.0
C208 C 0.2808 0.29833 0.02327 0.0
H209 H 0.16316 0.21965 0.06809 0.0
H210 H 0.21541 0.31787 0.07051 0.0
C211 C 0.29442 0.25578 0.99408 0.0
C212 C 0.22576 0.84741 0.97714 0.0
C213 C 0.23495 0.88483 1.0099 0.0
H214 H 0.25842 0.76829 0.9462 0.0
C215 C 0.28208 0.86875 0.03752 0.0
H216 H 0.19079 0.8592 0.95515 0.0
C217 C 0.32183 0.81827 0.03231 0.0
C218 C 0.31533 0.78111 0.99932 0.0
H219 H 0.29097 0.89699 0.06297 0.0
H220 H 0.36031 0.81009 0.05392 0.0
C221 C 0.26565 0.79591 0.9719 0.0
C222 C 0.87785 0.84618 0.99438 0.0
C223 C 0.91236 0.89217 0.01791 0.0
H224 H 0.80885 0.76956 0.98879 0.0
C225 C 0.91317 0.89003 0.05533 0.0
H226 H 0.8755 0.84725 0.96534 0.0
C227 C 0.8745 0.84506 0.06896 0.0
C228 C 0.83421 0.80173 0.04537 0.0
H229 H 0.9381 0.9254 0.07407 0.0
H230 H 0.87333 0.84576 0.09805 0.0
C231 C 0.83918 0.80164 1.00786 0.0
C232 C 0.95833 0.22391 0.99752 0.0
C233 C 0.93137 0.18933 0.02256 0.0
H234 H 0.93729 0.29424 0.96699 0.0
C235 C 0.86762 0.20644 0.04098 0.0
H236 H 1.00583 0.21078 0.98207 0.0
C237 C 0.82878 0.25479 0.03269 0.0
C238 C 0.8519 0.28588 1.00508 0.0
H239 H 0.84455 0.17966 0.05969 0.0
H240 H 0.7773 0.26468 0.04557 0.0
C241 C 0.91854 0.27127 0.98857 0.0
C242 C 0.70049 0.73014 0.54748 0.0
C243 C 0.72101 0.68595 0.52078 0.0
H244 H 0.7184 0.81843 0.57144 0.0
C245 C 0.76552 0.7005 0.49318 0.0
H246 H 0.6679 0.71977 0.56965 0.0
C247 C 0.79574 0.75671 0.49448 0.0
C248 C 0.78243 0.79939 0.52368 0.0
H249 H 0.78399 0.66687 0.47294 0.0
H250 H 0.83514 0.76496 0.47454 0.0
C251 C 0.73102 0.78633 0.54898 0.0
C252 C 0.71865 0.35335 0.46986 0.0
C253 C 0.73545 0.38595 0.50373 0.0
H254 H 0.74103 0.27638 0.43396 0.0
C255 C 0.78319 0.36381 0.5288 0.0
H256 H 0.68231 0.37001 0.45011 0.0
C257 C 0.81602 0.311 0.51985 0.0
C258 C 0.80234 0.27926 0.48543 0.0
H259 H 0.7968 0.3883 0.55515 0.0
H260 H 0.85455 0.29617 0.53941 0.0
C261 C 0.75264 0.30039 0.4606 0.0
C262 C 0.41869 0.38859 0.55142 0.0
C263 C 0.4175 0.39071 0.51398 0.0
H264 H 0.3786 0.34483 0.59429 0.0
C265 C 0.38239 0.34489 0.49055 0.0
H266 H 0.44405 0.42386 0.57009 0.0
C267 C 0.34359 0.30051 0.50419 0.0
C268 C 0.33884 0.30083 0.54173 0.0
H269 H 0.37976 0.34597 0.46152 0.0
H270 H 0.31288 0.26845 0.48525 0.0
C271 C 0.37969 0.34396 0.56518 0.0
C272 C 0.45971 0.71938 0.49855 0.0
C273 C 0.43721 0.6864 0.52535 0.0
H274 H 0.43682 0.79144 0.46987 0.0
C275 C 0.37898 0.70509 0.54708 0.0
H276 H 0.50294 0.70448 0.48067 0.0
C277 C 0.34147 0.75475 0.54105 0.0
C278 C 0.36037 0.78549 0.5125 0.0
H279 H 0.35944 0.67918 0.5671 0.0
H280 H 0.29453 0.76685 0.55715 0.0
C281 C 0.42105 0.76831 0.49191 0.0
C282 C 0.03307 0.03375 0.15268 0.0
C283 C 0.10389 0.02655 0.13884 0.0
H284 H 0.96665 0.03307 0.19954 0.0
C285 C 0.16181 0.01226 0.16219 0.0
H286 H 0.98736 0.04491 0.13552 0.0
C287 C 0.15011 0.00562 0.19802 0.0
C288 C 0.08007 0.01288 0.21212 0.0
H289 H 0.21716 0.00583 0.15281 0.0
H290 H 0.19652 0.99479 0.21492 0.0
C291 C 1.02139 0.02747 0.18928 0.0
C292 C 0.08509 0.08955 0.88522 0.0
C293 C 0.07139 0.03662 0.89839 0.0
H294 H 0.0932 0.13312 0.8379 0.0
C295 C 0.06466 0.98554 0.87393 0.0
H296 H 0.08856 0.12965 0.90366 0.0
C297 C 0.06677 0.98749 0.83673 0.0
C298 C 0.07496 0.04067 0.82314 0.0
H299 H 0.0527 0.94445 0.88347 0.0
H300 H 0.05762 0.94761 0.81839 0.0
C301 C 0.08731 0.09155 0.84771 0.0
C302 C 0.66012 0.51321 0.66266 0.0
C303 C 0.60358 0.52131 0.63678 0.0
H304 H 0.69061 0.50667 0.71776 0.0
C305 C 0.53029 0.52298 0.6476 0.0
H306 H 0.71734 0.51078 0.65542 0.0
C307 C 0.51475 0.51965 0.68396 0.0
C308 C 0.57215 0.51436 0.71009 0.0
H309 H 0.48544 0.52861 0.62836 0.0
H310 H 0.4579 0.52223 0.69172 0.0
C311 C 0.64474 0.51 0.69864 0.0
C312 C 0.61185 0.50828 0.37935 0.0
C313 C 0.57375 0.55217 0.39942 0.0
H314 H 0.64176 0.47115 0.32638 0.0
C315 C 0.54624 0.5979 0.38225 0.0
H316 H 0.63225 0.47212 0.39199 0.0
C317 C 0.55258 0.59789 0.34496 0.0
C318 C 0.5849 0.55132 0.32425 0.0
H319 H 0.51582 0.63178 0.39731 0.0
H320 H 0.52692 0.63172 0.33193 0.0
C321 C 0.61684 0.50761 0.34191 0.0
loop_
_geom_bond_atom_site_label_1
_geom_bond_atom_site_label_2
_geom_bond_distance
_geom_bond_site_symmetry_2
_ccdc_geom_bond_type
O0 Mn1 2.163 1_655 S
O0 C14 1.244 1_554 S
Mn1 O0 2.163 1_455 S
Mn1 O4 2.160 1_544 S
Mn1 O5 2.222 . S
Mn1 O7 2.174 . S
Mn1 O9 2.148 1_554 S
Mn1 O19 2.220 1_444 S
O2 Mn3 2.087 . S
O2 C14 1.256 . S
Mn3 O2 2.087 . S
Mn3 O10 2.089 . S
Mn3 O19 2.290 1_545 S
Mn3 O20 2.251 1_545 S
O4 Mn1 2.160 1_566 S
O4 C15 1.239 1_556 S
O5 Mn1 2.222 . S
O5 Mn6 2.290 . S
O5 C16 1.278 . S
Mn6 O5 2.290 . S
Mn6 O8 2.089 1_545 S
Mn6 O11 2.251 . S
Mn6 O12 2.087 . S
O7 Mn1 2.174 . S
O7 C17 1.244 . S
O8 Mn6 2.089 1_565 S
O8 C15 1.256 . S
O9 Mn1 2.148 1_556 S
O9 C18 1.239 . S
O10 Mn3 2.089 . S
O10 C18 1.256 1_655 S
O11 Mn6 2.251 . S
O11 C16 1.241 . S
O12 Mn6 2.087 . S
O12 C17 1.256 . S
C13 O19 1.278 1_554 S
C13 O20 1.241 1_554 S
C14 O0 1.244 1_556 S
C14 O2 1.256 . S
C15 O4 1.239 1_554 S
C15 O8 1.256 . S
C16 O5 1.278 . S
C16 O11 1.241 . S
C17 O7 1.244 . S
C17 O12 1.256 . S
C18 O9 1.239 . S
C18 O10 1.256 1_455 S
O19 Mn1 2.220 1_666 S
O19 Mn3 2.290 1_565 S
O19 C13 1.278 1_556 S
O20 Mn3 2.251 1_565 S
O20 C13 1.241 1_556 S
O21 Mn22 2.163 . S
O21 C35 1.244 . S
Mn22 O21 2.163 . S
Mn22 O25 2.160 . S
Mn22 O26 2.221 . S
Mn22 O28 2.163 . S
Mn22 O30 2.160 . S
Mn22 O40 2.221 . S
O23 Mn24 2.087 . S
O23 C35 1.256 . S
Mn24 O23 2.087 . S
Mn24 O31 2.089 . S
Mn24 O40 2.290 . S
Mn24 O41 2.251 . S
O25 Mn22 2.160 . S
O25 C36 1.239 . S
O26 Mn22 2.221 . S
O26 Mn27 2.290 . S
O26 C37 1.278 . S
Mn27 O26 2.290 . S
Mn27 O29 2.089 . S
Mn27 O32 2.251 . S
Mn27 O33 2.087 . S
O28 Mn22 2.163 . S
O28 C38 1.244 . S
O29 Mn27 2.089 . S
O29 C36 1.256 . S
O30 Mn22 2.160 . S
O30 C39 1.239 . S
O31 Mn24 2.089 . S
O31 C39 1.256 . S
O32 Mn27 2.251 . S
O32 C37 1.241 . S
O33 Mn27 2.087 . S
O33 C38 1.256 . S
C34 O40 1.278 . S
C34 O41 1.241 . S
C35 O21 1.244 . S
C35 O23 1.256 . S
C36 O25 1.239 . S
C36 O29 1.256 . S
C37 O26 1.278 . S
C37 O32 1.241 . S
C38 O28 1.244 . S
C38 O33 1.256 . S
C39 O30 1.239 . S
C39 O31 1.256 . S
O40 Mn22 2.221 . S
O40 Mn24 2.290 . S
O40 C34 1.278 . S
O41 Mn24 2.251 . S
O41 C34 1.241 . S
C42 C43 1.264 . S
C42 C47 1.479 . S
C42 C52 1.465 . S
C43 C42 1.264 . S
C43 C45 1.339 . S
C43 H70 0.931 . S
C44 C45 1.395 . S
C44 C46 1.320 . S
C45 C43 1.339 . S
C45 C44 1.395 . S
C45 H71 0.929 . S
C46 C44 1.320 . S
C46 C47 1.405 . S
C46 H72 0.930 . S
C47 C42 1.479 . S
C47 C46 1.405 . S
C47 H73 0.931 . S
U48 O49 2.454 1_545 S
U48 O50 2.458 1_545 S
U48 C51 2.984 1_545 S
U48 C52 2.847 1_455 S
U48 C65 2.882 . S
U48 O66 2.441 . S
U48 O67 2.420 . S
U48 O68 2.455 1_545 S
U48 O69 2.449 . S
O49 U48 2.454 1_565 S
O49 C51 1.353 . S
O50 U48 2.458 1_565 S
O50 C51 1.286 . S
C51 U48 2.984 1_565 S
C51 O49 1.353 . S
C51 O50 1.286 . S
C51 C53 1.363 . S
C52 C42 1.465 . S
C52 U48 2.847 1_655 S
C52 O66 1.249 1_655 S
C52 O67 1.202 1_655 S
C53 C51 1.363 . S
C53 C55 1.408 . S
C53 C58 1.342 . S
C54 C55 1.310 . S
C54 C57 1.461 . S
C54 H74 0.932 . S
C55 C53 1.408 . S
C55 C54 1.310 . S
C55 H75 0.930 . S
C56 C57 1.474 . S
C56 C58 1.285 . S
C56 H76 0.929 . S
C57 C54 1.461 . S
C57 C56 1.474 . S
C58 C53 1.342 . S
C58 C56 1.285 . S
C58 H77 0.930 . S
C59 C62 1.424 . S
C59 C64 1.245 1_545 S
C59 C65 1.428 . S
C60 C63 1.260 . S
C60 C64 1.477 . S
C60 H78 0.932 . S
C61 C62 1.384 . S
C61 C63 1.479 1_545 S
C61 H79 0.921 1_455 S
C62 C59 1.424 . S
C62 C61 1.384 . S
C62 H80 0.928 . S
C63 C60 1.260 . S
C63 C61 1.479 1_565 S
C64 C59 1.245 1_565 S
C64 C60 1.477 . S
C64 H81 0.932 . S
C65 U48 2.882 . S
C65 C59 1.428 . S
C65 O68 1.301 1_545 S
C65 O69 1.282 . S
O66 U48 2.441 . S
O66 C52 1.249 1_455 S
O67 U48 2.420 . S
O67 C52 1.202 1_455 S
O68 U48 2.455 1_565 S
O68 C65 1.301 1_565 S
O69 U48 2.449 . S
O69 C65 1.282 . S
H70 C43 0.931 . S
H71 C45 0.929 . S
H72 C46 0.930 . S
H73 C47 0.931 . S
H74 C54 0.932 . S
H75 C55 0.930 . S
H76 C56 0.929 . S
H77 C58 0.930 . S
H78 C60 0.932 . S
H79 C61 0.921 1_655 S
H80 C62 0.928 . S
H81 C64 0.932 . S
C82 C83 1.264 . S
C82 C87 1.479 . S
C82 C92 1.465 . S
C83 C82 1.264 . S
C83 C85 1.339 . S
C83 H110 0.931 . S
C84 C85 1.395 . S
C84 C86 1.320 . S
C85 C83 1.339 . S
C85 C84 1.395 . S
C85 H111 0.929 . S
C86 C84 1.320 . S
C86 C87 1.405 . S
C86 H112 0.930 . S
C87 C82 1.479 . S
C87 C86 1.405 . S
C87 H113 0.931 . S
U88 O89 2.454 . S
U88 O90 2.458 . S
U88 C91 2.984 . S
U88 C92 2.847 1_445 S
U88 C105 2.882 . S
U88 O106 2.441 1_455 S
U88 O107 2.420 1_445 S
U88 O108 2.455 . S
U88 O109 2.449 . S
O89 U88 2.454 . S
O89 C91 1.353 . S
O90 U88 2.458 . S
O90 C91 1.286 . S
C91 U88 2.984 . S
C91 O89 1.353 . S
C91 O90 1.286 . S
C91 C93 1.363 . S
C92 C82 1.465 . S
C92 U88 2.847 1_665 S
C92 O106 1.249 1_565 S
C92 O107 1.202 . S
C93 C91 1.363 . S
C93 C95 1.408 . S
C93 C98 1.342 . S
C94 C95 1.310 . S
C94 C97 1.461 . S
C94 H114 0.932 . S
C95 C93 1.408 . S
C95 C94 1.310 . S
C95 H115 0.930 . S
C96 C97 1.474 . S
C96 C98 1.285 . S
C96 H116 0.929 . S
C97 C94 1.461 . S
C97 C96 1.474 . S
C98 C93 1.342 . S
C98 C96 1.285 . S
C98 H117 0.930 . S
C99 C102 1.424 1_455 S
C99 C104 1.245 . S
C99 C105 1.428 . S
C100 C103 1.260 . S
C100 C104 1.477 . S
C100 H118 0.932 . S
C101 C102 1.384 . S
C101 C103 1.479 1_655 S
C101 H119 0.929 . S
C102 C99 1.424 1_655 S
C102 C101 1.384 . S
C102 H120 0.928 . S
C103 C100 1.260 . S
C103 C101 1.479 1_455 S
C104 C99 1.245 . S
C104 C100 1.477 . S
C104 H121 0.932 . S
C105 U88 2.882 . S
C105 C99 1.428 . S
C105 O108 1.301 . S
C105 O109 1.282 . S
O106 U88 2.441 1_655 S
O106 C92 1.249 1_545 S
O107 U88 2.420 1_665 S
O107 C92 1.202 . S
O108 U88 2.455 . S
O108 C105 1.301 . S
O109 U88 2.449 . S
O109 C105 1.282 . S
H110 C83 0.931 . S
H111 C85 0.929 . S
H112 C86 0.930 . S
H113 C87 0.931 . S
H114 C94 0.932 . S
H115 C95 0.930 . S
H116 C96 0.929 . S
H117 C98 0.930 . S
H118 C100 0.932 . S
H119 C101 0.929 . S
H120 C102 0.928 . S
H121 C104 0.932 . S
C122 C123 1.264 . S
C122 C127 1.479 1_556 S
C122 C132 1.465 . S
C123 C122 1.264 . S
C123 C125 1.339 . S
C123 H150 0.931 . S
C124 C125 1.395 1_554 S
C124 C126 1.320 . S
C125 C123 1.339 . S
C125 C124 1.395 1_556 S
C125 H151 0.929 . S
C126 C124 1.320 . S
C126 C127 1.405 . S
C126 H152 0.930 . S
C127 C122 1.479 1_554 S
C127 C126 1.405 . S
C127 H153 0.931 . S
U128 O129 2.454 . S
U128 O130 2.458 . S
U128 C131 2.984 . S
U128 C132 2.847 . S
U128 C145 2.882 . S
U128 O146 2.441 . S
U128 O147 2.420 . S
U128 O148 2.455 . S
U128 O149 2.449 . S
O129 U128 2.454 . S
O129 C131 1.353 . S
O130 U128 2.458 . S
O130 C131 1.286 . S
C131 U128 2.984 . S
C131 O129 1.353 . S
C131 O130 1.286 . S
C131 C133 1.363 . S
C132 C122 1.465 . S
C132 U128 2.847 . S
C132 O146 1.249 . S
C132 O147 1.202 . S
C133 C131 1.363 . S
C133 C135 1.408 1_556 S
C133 C138 1.342 . S
C134 C135 1.310 . S
C134 C137 1.454 1_554 S
C134 H154 0.932 . S
C135 C133 1.408 1_554 S
C135 C134 1.310 . S
C135 H155 0.930 . S
C136 C137 1.487 . S
C136 C138 1.285 . S
C136 H156 0.929 . S
C137 C134 1.454 1_556 S
C137 C136 1.487 . S
C138 C133 1.342 . S
C138 C136 1.285 . S
C138 H157 0.930 . S
C139 C142 1.424 . S
C139 C144 1.245 . S
C139 C145 1.428 . S
C140 C143 1.260 . S
C140 C144 1.477 . S
C140 H158 0.932 . S
C141 C142 1.384 . S
C141 C143 1.479 . S
C141 H159 0.929 . S
C142 C139 1.424 . S
C142 C141 1.384 . S
C142 H160 0.928 . S
C143 C140 1.260 . S
C143 C141 1.479 . S
C144 C139 1.245 . S
C144 C140 1.477 . S
C144 H161 0.932 . S
C145 U128 2.882 . S
C145 C139 1.428 . S
C145 O148 1.301 . S
C145 O149 1.282 . S
O146 U128 2.441 . S
O146 C132 1.249 . S
O147 U128 2.420 . S
O147 C132 1.202 . S
O148 U128 2.455 . S
O148 C145 1.301 . S
O149 U128 2.449 . S
O149 C145 1.282 . S
H150 C123 0.931 . S
H151 C125 0.929 . S
H152 C126 0.930 . S
H153 C127 0.931 . S
H154 C134 0.932 . S
H155 C135 0.930 . S
H156 C136 0.929 . S
H157 C138 0.930 . S
H158 C140 0.932 . S
H159 C141 0.929 . S
H160 C142 0.928 . S
H161 C144 0.932 . S
C162 C163 1.264 . S
C162 C167 1.479 1_554 S
C162 C172 1.465 . S
C163 C162 1.264 . S
C163 C165 1.339 . S
C163 H190 0.931 . S
C164 C165 1.362 1_556 S
C164 C166 1.341 . S
C165 C163 1.339 . S
C165 C164 1.362 1_554 S
C165 H191 0.929 . S
C166 C164 1.341 . S
C166 C167 1.405 . S
C166 H192 0.930 . S
C167 C162 1.479 1_556 S
C167 C166 1.405 . S
C167 H193 0.931 . S
U168 O169 2.454 . S
U168 O170 2.458 . S
U168 C171 2.984 . S
U168 C172 2.847 . S
U168 C185 2.882 . S
U168 O186 2.441 . S
U168 O187 2.420 . S
U168 O188 2.455 . S
U168 O189 2.449 . S
O169 U168 2.454 . S
O169 C171 1.353 . S
O170 U168 2.458 . S
O170 C171 1.286 . S
C171 U168 2.984 . S
C171 O169 1.353 . S
C171 O170 1.286 . S
C171 C173 1.363 . S
C172 C162 1.465 . S
C172 U168 2.847 . S
C172 O186 1.249 . S
C172 O187 1.202 . S
C173 C171 1.363 . S
C173 C175 1.408 . S
C173 C178 1.342 . S
C174 C175 1.310 1_556 S
C174 C177 1.461 1_556 S
C174 H194 0.932 . S
C175 C173 1.408 . S
C175 C174 1.310 1_554 S
C175 H195 0.930 1_554 S
C176 C177 1.474 . S
C176 C178 1.285 . S
C176 H196 0.929 . S
C177 C174 1.461 1_554 S
C177 C176 1.474 . S
C178 C173 1.342 . S
C178 C176 1.285 . S
C178 H197 0.930 . S
C179 C182 1.424 . S
C179 C184 1.245 . S
C179 C185 1.428 . S
C180 C183 1.260 . S
C180 C184 1.477 . S
C180 H198 0.932 . S
C181 C182 1.384 . S
C181 C183 1.479 . S
C181 H199 0.929 . S
C182 C179 1.424 . S
C182 C181 1.384 . S
C182 H200 0.928 . S
C183 C180 1.260 . S
C183 C181 1.479 . S
C184 C179 1.245 . S
C184 C180 1.477 . S
C184 H201 0.932 . S
C185 U168 2.882 . S
C185 C179 1.428 . S
C185 O188 1.301 . S
C185 O189 1.282 . S
O186 U168 2.441 . S
O186 C172 1.249 . S
O187 U168 2.420 . S
O187 C172 1.202 . S
O188 U168 2.455 . S
O188 C185 1.301 . S
O189 U168 2.449 . S
O189 C185 1.282 . S
H190 C163 0.931 . S
H191 C165 0.929 . S
H192 C166 0.930 . S
H193 C167 0.931 . S
H194 C174 0.932 . S
H195 C175 0.930 1_556 S
H196 C176 0.929 . S
H197 C178 0.930 . S
H198 C180 0.932 . S
H199 C181 0.929 . S
H200 C182 0.928 . S
H201 C184 0.932 . S
C202 C203 1.387 1_556 S
C202 H206 0.950 . S
C202 C211 1.390 . S
C203 C202 1.387 1_554 S
C203 C205 1.387 . S
H204 C211 0.950 . S
C205 C203 1.387 . S
C205 C207 1.390 . S
C205 H209 0.950 . S
H206 C202 0.950 . S
C207 C205 1.390 . S
C207 C208 1.387 1_554 S
C207 H210 0.950 . S
C208 C207 1.387 1_556 S
C208 C211 1.387 . S
H209 C205 0.950 . S
H210 C207 0.950 . S
C211 C202 1.390 . S
C211 H204 0.950 . S
C211 C208 1.387 . S
C212 C213 1.387 1_556 S
C212 H216 0.950 . S
C212 C221 1.390 . S
C213 C212 1.387 1_554 S
C213 C215 1.387 . S
H214 C221 0.950 . S
C215 C213 1.387 . S
C215 C217 1.390 . S
C215 H219 0.950 . S
H216 C212 0.950 . S
C217 C215 1.390 . S
C217 C218 1.387 . S
C217 H220 0.950 . S
C218 C217 1.387 . S
C218 C221 1.387 1_554 S
H219 C215 0.950 . S
H220 C217 0.950 . S
C221 C212 1.390 . S
C221 H214 0.950 . S
C221 C218 1.387 1_556 S
C222 C223 1.387 1_556 S
C222 H226 0.950 . S
C222 C231 1.390 . S
C223 C222 1.387 1_554 S
C223 C225 1.387 . S
H224 C231 0.950 . S
C225 C223 1.387 . S
C225 C227 1.390 . S
C225 H229 0.950 . S
H226 C222 0.950 . S
C227 C225 1.390 . S
C227 C228 1.387 . S
C227 H230 0.950 . S
C228 C227 1.387 . S
C228 C231 1.387 1_554 S
H229 C225 0.950 . S
H230 C227 0.950 . S
C231 C222 1.390 . S
C231 H224 0.950 . S
C231 C228 1.387 1_556 S
C232 C233 1.387 1_556 S
C232 H236 0.950 . S
C232 C241 1.390 . S
C233 C232 1.387 1_554 S
C233 C235 1.387 . S
H234 C241 0.950 . S
C235 C233 1.387 . S
C235 C237 1.390 . S
C235 H239 0.950 . S
H236 C232 0.950 . S
C237 C235 1.390 . S
C237 C238 1.387 . S
C237 H240 0.950 . S
C238 C237 1.387 . S
C238 C241 1.387 1_554 S
H239 C235 0.950 . S
H240 C237 0.950 . S
C241 C232 1.390 . S
C241 H234 0.950 . S
C241 C238 1.387 1_556 S
C242 C243 1.387 . S
C242 H246 0.950 . S
C242 C251 1.390 . S
C243 C242 1.387 . S
C243 C245 1.387 . S
H244 C251 0.950 . S
C245 C243 1.387 . S
C245 C247 1.390 . S
C245 H249 0.950 . S
H246 C242 0.950 . S
C247 C245 1.390 . S
C247 C248 1.387 . S
C247 H250 0.950 . S
C248 C247 1.387 . S
C248 C251 1.387 . S
H249 C245 0.950 . S
H250 C247 0.950 . S
C251 C242 1.390 . S
C251 H244 0.950 . S
C251 C248 1.387 . S
C252 C253 1.387 . S
C252 H256 0.950 . S
C252 C261 1.390 . S
C253 C252 1.387 . S
C253 C255 1.387 . S
H254 C261 0.950 . S
C255 C253 1.387 . S
C255 C257 1.390 . S
C255 H259 0.950 . S
H256 C252 0.950 . S
C257 C255 1.390 . S
C257 C258 1.387 . S
C257 H260 0.950 . S
C258 C257 1.387 . S
C258 C261 1.387 . S
H259 C255 0.950 . S
H260 C257 0.950 . S
C261 C252 1.390 . S
C261 H254 0.950 . S
C261 C258 1.387 . S
C262 C263 1.387 . S
C262 H266 0.950 . S
C262 C271 1.390 . S
C263 C262 1.387 . S
C263 C265 1.387 . S
H264 C271 0.950 . S
C265 C263 1.387 . S
C265 C267 1.390 . S
C265 H269 0.950 . S
H266 C262 0.950 . S
C267 C265 1.390 . S
C267 C268 1.387 . S
C267 H270 0.950 . S
C268 C267 1.387 . S
C268 C271 1.387 . S
H269 C265 0.950 . S
H270 C267 0.950 . S
C271 C262 1.390 . S
C271 H264 0.950 . S
C271 C268 1.387 . S
C272 C273 1.387 . S
C272 H276 0.950 . S
C272 C281 1.390 . S
C273 C272 1.387 . S
C273 C275 1.387 . S
H274 C281 0.950 . S
C275 C273 1.387 . S
C275 C277 1.390 . S
C275 H279 0.950 . S
H276 C272 0.950 . S
C277 C275 1.390 . S
C277 C278 1.387 . S
C277 H280 0.950 . S
C278 C277 1.387 . S
C278 C281 1.387 . S
H279 C275 0.950 . S
H280 C277 0.950 . S
C281 C272 1.390 . S
C281 H274 0.950 . S
C281 C278 1.387 . S
C282 C283 1.387 1_655 S
C282 H286 0.950 . S
C282 C291 1.391 . S
C283 C282 1.387 1_455 S
C283 C285 1.387 . S
H284 C291 0.949 1_565 S
C285 C283 1.387 . S
C285 C287 1.391 . S
C285 H289 0.950 . S
H286 C282 0.950 . S
C287 C285 1.391 . S
C287 C288 1.387 1_545 S
C287 H290 0.949 1_545 S
C288 C287 1.387 1_565 S
C288 C291 1.387 1_465 S
H289 C285 0.950 . S
H290 C287 0.949 1_565 S
C291 C282 1.391 . S
C291 H284 0.949 1_545 S
C291 C288 1.387 1_645 S
C292 C293 1.387 . S
C292 H296 0.950 . S
C292 C301 1.390 . S
C293 C292 1.387 . S
C293 C295 1.387 . S
H294 C301 0.950 . S
C295 C293 1.387 . S
C295 C297 1.390 1_455 S
C295 H299 0.950 1_445 S
H296 C292 0.950 . S
C297 C295 1.390 1_655 S
C297 C298 1.387 1_655 S
C297 H300 0.940 1_545 S
C298 C297 1.387 1_455 S
C298 C301 1.387 . S
H299 C295 0.950 1_665 S
H300 C297 0.940 1_565 S
C301 C292 1.390 . S
C301 H294 0.950 . S
C301 C298 1.387 . S
C302 C303 1.387 . S
C302 H306 0.950 . S
C302 C311 1.390 . S
C303 C302 1.387 . S
C303 C305 1.387 . S
H304 C311 0.950 . S
C305 C303 1.387 . S
C305 C307 1.390 . S
C305 H309 0.950 . S
H306 C302 0.950 . S
C307 C305 1.390 . S
C307 C308 1.387 . S
C307 H310 0.950 . S
C308 C307 1.387 . S
C308 C311 1.387 . S
H309 C305 0.950 . S
H310 C307 0.950 . S
C311 C302 1.390 . S
C311 H304 0.950 . S
C311 C308 1.387 . S
C312 C313 1.387 . S
C312 H316 0.950 . S
C312 C321 1.390 . S
C313 C312 1.387 . S
C313 C315 1.387 . S
H314 C321 0.950 . S
C315 C313 1.387 . S
C315 C317 1.390 . S
C315 H319 0.950 . S
H316 C312 0.950 . S
C317 C315 1.390 . S
C317 C318 1.387 . S
C317 H320 0.950 . S
C318 C317 1.387 . S
C318 C321 1.387 . S
H319 C315 0.950 . S
H320 C317 0.950 . S
C321 C312 1.390 . S
C321 H314 0.950 . S
C321 C318 1.387 . S
C208 C164 1.615 . S
C203 C16 1.616 . S
C213 C15 1.685 . S
C218 C124 1.647 . S
C223 C13 1.332 . S
C228 C177 1.578 . S
C233 C14 1.474 1_554 S
C238 C137 1.477 1_554 S
C243 C37 1.618 . S
C248 C84 1.614 . S
C253 C36 1.686 . S
C258 C44 1.647 . S
C268 C97 1.579 . S
C263 C34 1.336 . S
C278 C57 1.481 . S
C273 C35 1.474 . S
C283 C17 1.526 . S
C288 C63 1.543 . S
C293 C18 1.412 . S
C298 C103 1.425 . S
C308 C143 1.541 . S
C303 C38 1.527 . S
C313 C39 1.416 . S
C318 C183 1.427 . S
