# Generated by pormake.
# Topology pth, (4,4)-cn, num edge types: 1
# Building blocks:
#     Node 0, Type 0, BuildingBlock: AZAVOO_clean_sbu_0, # of connection points: 4
#     Node 1, Type 0, BuildingBlock: AZAVOO_clean_sbu_0, # of connection points: 4
#     Node 2, Type 0, BuildingBlock: AZAVOO_clean_sbu_0, # of connection points: 4
#     Node 3, Type 1, BuildingBlock: NAWXER_clean_sbu_0, # of connection points: 4
#     Node 4, Type 1, BuildingBlock: NAWXER_clean_sbu_0, # of connection points: 4
#     Node 5, Type 1, BuildingBlock: NAWXER_clean_sbu_0, # of connection points: 4
#     Edge 6, Type (0, 1), BuildingBlock: EZIPEK_clean_linker_0, # of connection points: 2
#     Edge 7, Type (0, 1), BuildingBlock: EZIPEK_clean_linker_0, # of connection points: 2
#     Edge 8, Type (0, 1), BuildingBlock: EZIPEK_clean_linker_0, # of connection points: 2
#     Edge 9, Type (0, 1), BuildingBlock: EZIPEK_clean_linker_0, # of connection points: 2
#     Edge 10, Type (0, 1), BuildingBlock: EZIPEK_clean_linker_0, # of connection points: 2
#     Edge 11, Type (0, 1), BuildingBlock: EZIPEK_clean_linker_0, # of connection points: 2
#     Edge 12, Type (0, 1), BuildingBlock: EZIPEK_clean_linker_0, # of connection points: 2
#     Edge 13, Type (0, 1), BuildingBlock: EZIPEK_clean_linker_0, # of connection points: 2
#     Edge 14, Type (0, 1), BuildingBlock: EZIPEK_clean_linker_0, # of connection points: 2
#     Edge 15, Type (0, 1), BuildingBlock: EZIPEK_clean_linker_0, # of connection points: 2
#     Edge 16, Type (0, 1), BuildingBlock: EZIPEK_clean_linker_0, # of connection points: 2
#     Edge 17, Type (0, 1), BuildingBlock: EZIPEK_clean_linker_0, # of connection points: 2
# Relax obj value: 0.080
# Max RMSD: 0.222
# Mean RMSD: 0.117
data_MOF--net-pth--node1-AZAVOO_clean_sbu_0--node2-NAWXER_clean_sbu_0--edge1-EZIPEK_clean_linker_0
_symmetry_space_group_name_H-M    P1
_symmetry_Int_Tables_number       1
_symmetry_cell_setting            triclinic
loop_
_symmetry_equiv_pos_as_xyz
'x, y, z'
_cell_length_a     16.524944
_cell_length_b     17.069471
_cell_length_c     42.366673
_cell_angle_alpha  91.339391
_cell_angle_beta   93.853934
_cell_angle_gamma 122.38558
loop_
_atom_site_label
_atom_site_type_symbol
_atom_site_fract_x
_atom_site_fract_y
_atom_site_fract_z
_atom_type_partial_charge
Mg0 Mg 0.20081 0.11825 0.06609 0.0
O1 O 0.06249 0.01597 0.03458 0.0
O2 O 0.03488 0.09774 -0.00011 0.0
Mg3 Mg 0.16112 0.25058 0.0072 0.0
C4 C 0.01138 0.02093 0.0117 0.0
C5 C 0.23772 0.00104 0.1113 0.0
O6 O 0.32242 0.05539 0.10089 0.0
O7 O 0.1218 0.17398 0.09123 0.0
O8 O 0.11666 0.26796 0.05614 0.0
O9 O 0.29336 0.10349 0.03327 0.0
O10 O 0.25405 0.20842 0.03021 0.0
C11 C 0.10363 0.23542 0.08352 0.0
C12 C 0.29906 0.17279 0.01937 0.0
O13 O 0.16795 0.00882 0.1016 0.0
Mg14 Mg 0.92225 0.99576 0.38293 0.0
O15 O 0.0582 0.04327 0.41679 0.0
O16 O 0.0763 0.15263 0.45158 0.0
Mg17 Mg 0.9546 0.17814 0.43974 0.0
C18 C 0.10433 0.10149 0.44071 0.0
C19 C 0.89013 0.83618 0.33738 0.0
O20 O 0.80179 0.80728 0.34342 0.0
O21 O 0.00719 0.12938 0.35773 0.0
O22 O 0.00939 0.23395 0.3915 0.0
O23 O 0.81978 0.89116 0.4154 0.0
O24 O 0.86443 0.0383 0.41612 0.0
C25 C 0.02607 0.21114 0.36487 0.0
C26 C 0.81365 0.95828 0.42717 0.0
O27 O 0.95971 0.91382 0.35008 0.0
Mg28 Mg 0.01416 0.03222 0.72674 0.0
O29 O 0.1092 0.15717 0.76301 0.0
O30 O 0.0072 0.17483 0.7899 0.0
Mg31 Mg 0.85212 0.05348 0.77555 0.0
C32 C 0.0925 0.20054 0.78399 0.0
C33 C 0.1247 0.99704 0.68153 0.0
O34 O 0.04767 0.9152 0.68508 0.0
O35 O 0.96712 0.115 0.69802 0.0
O36 O 0.85084 0.10399 0.72562 0.0
O37 O 0.01674 0.93338 0.75963 0.0
O38 O 0.90749 0.97084 0.75749 0.0
C39 C 0.89694 0.12553 0.70095 0.0
C40 C 0.9405 0.9243 0.77003 0.0
O41 O 0.1371 0.06864 0.69657 0.0
C42 C 0.96648 0.61293 0.25487 0.0
C43 C 0.03396 0.44008 0.17801 0.0
O44 O 0.05481 0.63718 0.25699 0.0
Zn45 Zn 0.14375 0.60158 0.23384 0.0
O46 O 0.90533 0.54818 0.23461 0.0
Zn47 Zn 0.99456 0.52318 0.21657 0.0
O48 O 0.03047 0.46652 0.25501 0.0
O49 O 0.1874 0.55092 0.26686 0.0
O50 O 0.95182 0.42503 0.18294 0.0
O51 O 0.10873 0.50543 0.19462 0.0
O52 O 0.23244 0.71838 0.21656 0.0
O53 O 0.08277 0.64999 0.19425 0.0
C54 C 0.10542 0.48064 0.27149 0.0
C55 C 0.171 0.71773 0.19657 0.0
C56 C 0.66492 0.14033 0.59584 0.0
C57 C 0.43175 0.12445 0.51221 0.0
O58 O 0.59185 0.05895 0.58776 0.0
Zn59 Zn 0.4719 0.99049 0.55361 0.0
O60 O 0.6746 0.20915 0.58141 0.0
Zn61 Zn 0.55577 0.13905 0.55222 0.0
O62 O 0.44377 0.08385 0.58414 0.0
O63 O 0.37019 0.93013 0.58126 0.0
O64 O 0.51183 0.19749 0.52244 0.0
O65 O 0.41143 0.04584 0.52193 0.0
O66 O 0.50822 0.92036 0.52732 0.0
O67 O 0.59531 0.06983 0.52058 0.0
C68 C 0.37892 0.0042 0.5928 0.0
C69 C 0.57576 0.98768 0.51413 0.0
C70 C 0.53617 0.41897 0.93078 0.0
C71 C 0.71478 0.65178 0.85694 0.0
O72 O 0.51099 0.47792 0.92847 0.0
Zn73 Zn 0.54999 0.59942 0.90315 0.0
O74 O 0.6027 0.42657 0.91512 0.0
Zn75 Zn 0.62639 0.53497 0.89394 0.0
O76 O 0.69274 0.64349 0.93171 0.0
O77 O 0.59976 0.69692 0.93678 0.0
O78 O 0.72155 0.58344 0.86387 0.0
O79 O 0.65406 0.66459 0.8695 0.0
O80 O 0.42955 0.5604 0.87872 0.0
O81 O 0.49174 0.47894 0.86521 0.0
C82 C 0.67536 0.6989 0.94631 0.0
C83 C 0.4239 0.49442 0.86208 0.0
C84 C 1.00101 0.29184 0.10283 0.0
C85 C 0.07965 0.28049 0.10846 0.0
C86 C 0.1147 0.35707 0.16156 0.0
C87 C 0.04544 0.38117 0.15431 0.0
N88 N 0.93778 0.38744 0.11417 0.0
N89 N 0.2274 0.32631 0.14036 0.0
C90 C 0.99202 0.35244 0.12393 0.0
C91 C 0.14083 0.31942 0.13705 0.0
N92 N 0.93412 0.24392 0.0776 0.0
N93 N 0.15465 0.36756 0.1919 0.0
H94 H 0.25337 0.30505 0.1225 0.0
H95 H 0.27867 0.36337 0.15953 0.0
H96 H 0.13848 0.39354 0.21122 0.0
H97 H 0.1968 0.34094 0.19843 0.0
H98 H 0.87043 0.24274 0.07415 0.0
H99 H 0.93771 0.19792 0.062 0.0
H100 H 0.90516 0.37525 0.09113 0.0
H101 H 0.93425 0.43713 0.12766 0.0
C102 C 0.6485 0.89702 0.44467 0.0
C103 C 0.74971 0.94597 0.45208 0.0
C104 C 0.73815 0.02582 0.49841 0.0
C105 C 0.63539 0.97308 0.49256 0.0
N106 N 0.49218 0.85176 0.46108 0.0
N107 N 0.88528 0.03182 0.49076 0.0
C108 C 0.59033 0.90542 0.46627 0.0
C109 C 0.79237 0.00203 0.48056 0.0
N110 N 0.60863 0.84736 0.41604 0.0
N111 N 0.78587 0.10146 0.51982 0.0
H112 H 0.92527 0.01259 0.4784 0.0
H113 H 0.91803 0.06563 0.51302 0.0
H114 H 0.75312 0.12545 0.53369 0.0
H115 H 0.86042 0.14701 0.52174 0.0
H116 H 0.53753 0.82012 0.40724 0.0
H117 H 0.64827 0.83751 0.40009 0.0
H118 H 0.4554 0.79326 0.44517 0.0
H119 H 0.44666 0.86332 0.47341 0.0
C120 C 0.79866 0.76975 0.7807 0.0
C121 C 0.88572 0.85328 0.7924 0.0
C122 C 0.86261 0.8027 0.8465 0.0
C123 C 0.77729 0.71811 0.83461 0.0
N124 N 0.67139 0.61304 0.79064 0.0
N125 N 0.0097 0.9439 0.83484 0.0
C126 C 0.74751 0.69921 0.80173 0.0
C127 C 0.92067 0.86805 0.82486 0.0
N128 N 0.76447 0.75828 0.7495 0.0
N129 N 0.88662 0.8213 0.87853 0.0
H130 H 0.05292 0.99413 0.8197 0.0
H131 H 0.04379 0.9542 0.8575 0.0
H132 H 0.84799 0.77343 0.89498 0.0
H133 H 0.94136 0.88574 0.88903 0.0
H134 H 0.69597 0.70481 0.74034 0.0
H135 H 0.8026 0.80518 0.73276 0.0
H136 H 0.6516 0.59103 0.7667 0.0
H137 H 0.63175 0.56017 0.80549 0.0
C138 C 0.19874 0.93637 0.16469 0.0
C139 C 0.22413 0.93059 0.13377 0.0
C140 C 0.23332 0.79596 0.1468 0.0
C141 C 0.19848 0.79616 0.17643 0.0
N142 N 0.13899 0.85978 0.21299 0.0
N143 N 0.25284 0.84816 0.09351 0.0
C144 C 0.17871 0.86458 0.18523 0.0
C145 C 0.23881 0.85898 0.12436 0.0
N146 N 0.19757 0.01237 0.17487 0.0
N147 N 0.26117 0.73544 0.14019 0.0
H148 H 0.2554 0.89167 0.0762 0.0
H149 H 0.25364 0.79153 0.08431 0.0
H150 H 0.25586 0.68694 0.15585 0.0
H151 H 0.29658 0.73808 0.12044 0.0
H152 H 0.18979 0.02563 0.19822 0.0
H153 H 0.21251 0.06673 0.16061 0.0
H154 H 0.11143 0.90002 0.21888 0.0
H155 H 0.12828 0.8114 0.22947 0.0
C156 C 0.27045 0.19817 0.47073 0.0
C157 C 0.19366 0.11077 0.45643 0.0
C158 C 0.29346 0.04758 0.46955 0.0
C159 C 0.35785 0.12702 0.49039 0.0
N160 N 0.38987 0.27193 0.51545 0.0
N161 N 0.12688 0.94451 0.45021 0.0
C162 C 0.34208 0.20122 0.49228 0.0
C163 C 0.20357 0.03304 0.45787 0.0
N164 N 0.27784 0.2789 0.4631 0.0
N165 N 0.31819 0.98654 0.46032 0.0
H166 H 0.05669 0.92795 0.44513 0.0
H167 H 0.13126 0.88637 0.45324 0.0
H168 H 0.38649 0.99857 0.46618 0.0
H169 H 0.27533 0.93105 0.4435 0.0
H170 H 0.33676 0.34413 0.47151 0.0
H171 H 0.23289 0.28132 0.4452 0.0
H172 H 0.37326 0.32237 0.5187 0.0
H173 H 0.43686 0.27465 0.53368 0.0
C174 C 0.24837 0.35771 0.78939 0.0
C175 C 0.17498 0.27998 0.80384 0.0
C176 C 0.25561 0.35563 0.85646 0.0
C177 C 0.33453 0.42727 0.84193 0.0
N178 N 0.41103 0.4947 0.79482 0.0
N179 N 0.11758 0.19757 0.85115 0.0
C180 C 0.33235 0.42778 0.80842 0.0
C181 C 0.18042 0.27726 0.83742 0.0
N182 N 0.23604 0.36645 0.75772 0.0
N183 N 0.25266 0.36196 0.88855 0.0
H184 H 0.06294 0.13727 0.83827 0.0
H185 H 0.12513 0.18787 0.87509 0.0
H186 H 0.30797 0.41625 0.90359 0.0
H187 H 0.19212 0.3172 0.90003 0.0
H188 H 0.28238 0.42574 0.74637 0.0
H189 H 0.17459 0.31773 0.74321 0.0
H190 H 0.41895 0.49264 0.77069 0.0
H191 H 0.4711 0.55011 0.80805 0.0
C192 C 0.8104 0.07042 0.64677 0.0
C193 C 0.85171 0.14004 0.67216 0.0
C194 C 0.77452 0.21551 0.64719 0.0
C195 C 0.73856 0.14909 0.62067 0.0
N196 N 0.74494 0.02747 0.59233 0.0
N197 N 0.88893 0.28818 0.69404 0.0
C198 C 0.76424 0.08159 0.61951 0.0
C199 C 0.83907 0.21587 0.67148 0.0
N200 N 0.80825 0.98951 0.64943 0.0
N201 N 0.74221 0.27379 0.65046 0.0
H202 H 0.93609 0.28968 0.71208 0.0
H203 H 0.8903 0.34981 0.69316 0.0
H204 H 0.69284 0.2742 0.63396 0.0
H205 H 0.75781 0.31625 0.67093 0.0
H206 H 0.76801 0.93188 0.63325 0.0
H207 H 0.83785 0.97522 0.66924 0.0
H208 H 0.77386 0.98685 0.58912 0.0
H209 H 0.70731 0.02866 0.57195 0.0
C210 C 0.92228 0.85555 0.98854 0.0
C211 C 0.92061 0.93431 -0.00132 0.0
C212 C 0.74608 0.84808 0.98298 0.0
C213 C 0.74995 0.77122 0.97117 0.0
N214 N 0.8293 0.68831 0.98079 0.0
N215 N 0.82691 0.9964 0.01415 0.0
C216 C 0.83427 0.77061 0.97952 0.0
C217 C 0.83126 0.9282 -0.00172 0.0
N218 N 0.00772 0.86205 0.98621 0.0
N219 N 0.6611 0.84396 0.98065 0.0
H220 H 0.88686 0.05401 0.02656 0.0
H221 H 0.76312 0.99258 0.01751 0.0
H222 H 0.59452 0.78134 0.97801 0.0
H223 H 0.65657 0.90235 0.98284 0.0
H224 H 0.01173 0.8082 0.97598 0.0
H225 H 0.07451 0.92378 -0.0086 0.0
H226 H 0.88783 0.68419 0.98886 0.0
H227 H 0.76371 0.62441 0.97853 0.0
C228 C 0.88465 0.77145 0.28295 0.0
C229 C 0.90776 0.77767 0.31617 0.0
C230 C 0.95286 0.66324 0.30916 0.0
C231 C 0.93845 0.66369 0.27576 0.0
N232 N 0.90512 0.72867 0.23048 0.0
N233 N 0.97272 0.73765 0.36111 0.0
C234 C 0.90742 0.71999 0.26249 0.0
C235 C 0.94469 0.72604 0.32934 0.0
N236 N 0.84096 0.81482 0.27092 0.0
N237 N 0.97097 0.60022 0.32155 0.0
H238 H 0.96388 0.77976 0.37689 0.0
H239 H 0.01059 0.71062 0.3716 0.0
H240 H 0.9757 0.55211 0.30747 0.0
H241 H 0.97277 0.58965 0.34561 0.0
H242 H 0.81182 0.80381 0.24747 0.0
H243 H 0.82799 0.85743 0.28487 0.0
H244 H 0.89459 0.77721 0.21977 0.0
H245 H 0.9217 0.69277 0.21464 0.0
C246 C 0.25223 0.96804 0.668 0.0
C247 C 0.19422 0.00409 0.6597 0.0
C248 C 0.24985 0.0303 0.60651 0.0
C249 C 0.31269 0.00011 0.6155 0.0
N250 N 0.38588 0.9543 0.65596 0.0
N251 N 0.14571 0.08044 0.6229 0.0
C252 C 0.31699 0.97238 0.64654 0.0
C253 C 0.19589 0.03905 0.62955 0.0
N254 N 0.24489 0.92906 0.69635 0.0
N255 N 0.23841 0.04633 0.57552 0.0
H256 H 0.10175 0.08433 0.63857 0.0
H257 H 0.15275 0.11686 0.60283 0.0
H258 H 0.27501 0.03862 0.55783 0.0
H259 H 0.18663 0.05915 0.56662 0.0
H260 H 0.2759 0.89127 0.70217 0.0
H261 H 0.20311 0.92999 0.71357 0.0
H262 H 0.40013 0.94404 0.67928 0.0
H263 H 0.43436 0.95653 0.64089 0.0
C264 C 0.46458 0.28157 0.00371 0.0
C265 C 0.36477 0.21826 -0.00552 0.0
C266 C 0.38675 0.26953 0.94048 0.0
C267 C 0.48322 0.34028 0.95078 0.0
N268 N 0.62161 0.40264 0.98882 0.0
N269 N 0.22996 0.14694 0.95467 0.0
C270 C 0.5248 0.34226 0.98135 0.0
C271 C 0.32588 0.20978 0.96283 0.0
N272 N 0.49992 0.28745 0.03444 0.0
N273 N 0.35487 0.25863 0.90909 0.0
H274 H 0.18536 0.09872 0.97012 0.0
H275 H 0.19361 0.14383 0.93319 0.0
H276 H 0.39901 0.30066 0.89225 0.0
H277 H 0.28795 0.20428 0.89914 0.0
H278 H 0.56919 0.33779 0.04397 0.0
H279 H 0.45856 0.24277 0.05122 0.0
H280 H 0.65916 0.40452 0.00981 0.0
H281 H 0.66675 0.44816 0.97289 0.0
C282 C 0.13319 0.37161 0.34639 0.0
C283 C 0.0547 0.27833 0.33989 0.0
C284 C 0.02611 0.31509 0.2865 0.0
C285 C 0.09405 0.41157 0.29465 0.0
N286 N 0.19825 0.53228 0.33578 0.0
N287 N 0.91063 0.16837 0.30609 0.0
C288 C 0.14466 0.44029 0.32546 0.0
C289 C 0.99704 0.25168 0.31054 0.0
N290 N 0.19727 0.39455 0.37237 0.0
N291 N 0.98978 0.28261 0.25576 0.0
H292 H 0.88212 0.12108 0.3235 0.0
H293 H 0.86176 0.15098 0.28625 0.0
H294 H 0.00816 0.32478 0.23685 0.0
H295 H 0.94861 0.21188 0.24862 0.0
H296 H 0.26078 0.45973 0.37663 0.0
H297 H 0.19177 0.34557 0.38785 0.0
H298 H 0.22851 0.55541 0.3591 0.0
H299 H 0.20379 0.58491 0.32231 0.0
loop_
_geom_bond_atom_site_label_1
_geom_bond_atom_site_label_2
_geom_bond_distance
_geom_bond_site_symmetry_2
_ccdc_geom_bond_type
Mg0 O1 2.028 1_545 S
Mg0 O7 1.986 . S
Mg0 O9 2.114 . S
Mg0 O10 2.251 . S
Mg0 O13 2.010 . S
O1 Mg0 2.028 1_565 S
O1 C4 1.250 1_455 S
O2 Mg3 2.028 1_655 S
O2 C4 1.248 1_545 S
Mg3 O2 2.028 1_455 S
Mg3 O8 2.032 . S
Mg3 O10 2.079 . S
C4 O1 1.250 1_655 S
C4 O2 1.248 1_565 S
C5 O6 1.264 . S
C5 O13 1.249 1_565 S
O6 C5 1.264 . S
O7 Mg0 1.986 . S
O7 C11 1.246 . S
O8 Mg3 2.032 . S
O8 C11 1.259 . S
O9 Mg0 2.114 . S
O9 C12 1.252 . S
O10 Mg0 2.251 . S
O10 Mg3 2.079 . S
O10 C12 1.273 . S
C11 O7 1.246 . S
C11 O8 1.259 . S
C12 O9 1.252 . S
C12 O10 1.273 . S
O13 Mg0 2.010 . S
O13 C5 1.249 1_545 S
Mg14 O15 2.028 1_655 S
Mg14 O21 1.986 1_655 S
Mg14 O23 2.114 1_545 S
Mg14 O24 2.251 . S
Mg14 O27 2.010 1_545 S
O15 Mg14 2.028 1_455 S
O15 C18 1.250 . S
O16 Mg17 2.028 . S
O16 C18 1.248 . S
Mg17 O16 2.028 . S
Mg17 O22 2.032 . S
Mg17 O24 2.079 1_455 S
C18 O15 1.250 . S
C18 O16 1.248 . S
C19 O20 1.264 . S
C19 O27 1.249 . S
O20 C19 1.264 . S
O21 Mg14 1.986 1_455 S
O21 C25 1.246 . S
O22 Mg17 2.032 . S
O22 C25 1.259 . S
O23 Mg14 2.114 1_565 S
O23 C26 1.252 1_565 S
O24 Mg14 2.251 . S
O24 Mg17 2.079 1_655 S
O24 C26 1.273 . S
C25 O21 1.246 . S
C25 O22 1.259 . S
C26 O23 1.252 1_545 S
C26 O24 1.273 . S
O27 Mg14 2.010 1_565 S
O27 C19 1.249 . S
Mg28 O29 2.028 . S
Mg28 O35 1.986 1_455 S
Mg28 O37 2.114 1_545 S
Mg28 O38 2.251 1_445 S
Mg28 O41 2.010 1_545 S
O29 Mg28 2.028 . S
O29 C32 1.250 . S
O30 Mg31 2.028 1_455 S
O30 C32 1.248 . S
Mg31 O30 2.028 1_655 S
Mg31 O36 2.032 . S
Mg31 O38 2.079 1_545 S
C32 O29 1.250 . S
C32 O30 1.248 . S
C33 O34 1.264 . S
C33 O41 1.249 . S
O34 C33 1.264 . S
O35 Mg28 1.986 1_655 S
O35 C39 1.246 . S
O36 Mg31 2.032 . S
O36 C39 1.259 . S
O37 Mg28 2.114 1_565 S
O37 C40 1.252 1_455 S
O38 Mg28 2.251 1_665 S
O38 Mg31 2.079 1_565 S
O38 C40 1.273 . S
C39 O35 1.246 . S
C39 O36 1.259 . S
C40 O37 1.252 1_655 S
C40 O38 1.273 . S
O41 Mg28 2.010 1_565 S
O41 C33 1.249 . S
C42 O44 1.247 . S
C42 O46 1.258 1_455 S
C43 O50 1.247 1_455 S
C43 O51 1.258 . S
O44 C42 1.247 . S
O44 Zn45 2.028 . S
Zn45 O44 2.028 . S
Zn45 O49 2.035 . S
Zn45 O51 2.035 . S
Zn45 O52 2.028 . S
O46 C42 1.258 1_655 S
O46 Zn47 2.035 . S
Zn47 O46 2.035 . S
Zn47 O48 2.028 . S
Zn47 O50 2.028 . S
Zn47 O53 2.035 . S
O48 Zn47 2.028 . S
O48 C54 1.247 1_655 S
O49 Zn45 2.035 . S
O49 C54 1.258 . S
O50 C43 1.247 1_655 S
O50 Zn47 2.028 . S
O51 C43 1.258 . S
O51 Zn45 2.035 . S
O52 Zn45 2.028 . S
O52 C55 1.247 . S
O53 Zn47 2.035 . S
O53 C55 1.258 1_655 S
C54 O48 1.247 1_455 S
C54 O49 1.258 . S
C55 O52 1.247 . S
C55 O53 1.258 1_455 S
C56 O58 1.247 . S
C56 O60 1.258 . S
C57 O64 1.247 . S
C57 O65 1.258 . S
O58 C56 1.247 . S
O58 Zn59 2.028 1_545 S
Zn59 O58 2.028 1_565 S
Zn59 O63 2.035 1_565 S
Zn59 O65 2.035 1_565 S
Zn59 O66 2.028 1_565 S
O60 C56 1.258 . S
O60 Zn61 2.035 . S
Zn61 O60 2.035 . S
Zn61 O62 2.028 . S
Zn61 O64 2.028 . S
Zn61 O67 2.035 . S
O62 Zn61 2.028 . S
O62 C68 1.247 . S
O63 Zn59 2.035 1_545 S
O63 C68 1.258 . S
O64 C57 1.247 . S
O64 Zn61 2.028 . S
O65 C57 1.258 . S
O65 Zn59 2.035 1_545 S
O66 Zn59 2.028 1_545 S
O66 C69 1.247 . S
O67 Zn61 2.035 . S
O67 C69 1.258 . S
C68 O62 1.247 . S
C68 O63 1.258 . S
C69 O66 1.247 . S
C69 O67 1.258 . S
C70 O72 1.247 . S
C70 O74 1.258 . S
C71 O78 1.247 . S
C71 O79 1.258 . S
O72 C70 1.247 . S
O72 Zn73 2.028 . S
Zn73 O72 2.028 . S
Zn73 O77 2.035 . S
Zn73 O79 2.035 . S
Zn73 O80 2.028 . S
O74 C70 1.258 . S
O74 Zn75 2.035 . S
Zn75 O74 2.035 . S
Zn75 O76 2.028 . S
Zn75 O78 2.028 . S
Zn75 O81 2.035 . S
O76 Zn75 2.028 . S
O76 C82 1.247 . S
O77 Zn73 2.035 . S
O77 C82 1.258 . S
O78 C71 1.247 . S
O78 Zn75 2.028 . S
O79 C71 1.258 . S
O79 Zn73 2.035 . S
O80 Zn73 2.028 . S
O80 C83 1.247 . S
O81 Zn75 2.035 . S
O81 C83 1.258 . S
C82 O76 1.247 . S
C82 O77 1.258 . S
C83 O80 1.247 . S
C83 O81 1.258 . S
C84 C85 1.363 1_655 S
C84 C90 1.379 . S
C84 N92 1.356 . S
C85 C84 1.363 1_455 S
C85 C91 1.363 . S
C86 C87 1.363 . S
C86 C91 1.379 . S
C86 N93 1.356 . S
C87 C86 1.363 . S
C87 C90 1.363 1_455 S
N88 C90 1.356 . S
N88 H100 0.984 . S
N88 H101 0.985 . S
N89 C91 1.356 . S
N89 H94 0.984 . S
N89 H95 0.985 . S
C90 C84 1.379 . S
C90 C87 1.363 1_655 S
C90 N88 1.356 . S
C91 C85 1.363 . S
C91 C86 1.379 . S
C91 N89 1.356 . S
N92 C84 1.356 . S
N92 H98 0.984 . S
N92 H99 0.984 . S
N93 C86 1.356 . S
N93 H96 0.984 . S
N93 H97 0.985 . S
H94 N89 0.984 . S
H95 N89 0.985 . S
H96 N93 0.984 . S
H97 N93 0.985 . S
H98 N92 0.984 . S
H99 N92 0.984 . S
H100 N88 0.984 . S
H101 N88 0.985 . S
C102 C103 1.363 1_565 S
C102 C108 1.379 . S
C102 N110 1.356 . S
C103 C102 1.363 1_545 S
C103 C109 1.363 . S
C104 C105 1.363 . S
C104 C109 1.379 . S
C104 N111 1.356 . S
C105 C104 1.363 . S
C105 C108 1.363 1_545 S
N106 C108 1.356 . S
N106 H118 0.984 . S
N106 H119 0.985 . S
N107 C109 1.356 . S
N107 H112 0.984 . S
N107 H113 0.985 1_655 S
C108 C102 1.379 . S
C108 C105 1.363 1_565 S
C108 N106 1.356 . S
C109 C103 1.363 . S
C109 C104 1.379 . S
C109 N107 1.356 . S
N110 C102 1.356 . S
N110 H116 0.984 . S
N110 H117 0.984 . S
N111 C104 1.356 . S
N111 H114 0.984 . S
N111 H115 0.985 . S
H112 N107 0.984 . S
H113 N107 0.985 1_455 S
H114 N111 0.984 . S
H115 N111 0.985 . S
H116 N110 0.984 . S
H117 N110 0.984 . S
H118 N106 0.984 . S
H119 N106 0.985 . S
C120 C121 1.363 . S
C120 C126 1.379 . S
C120 N128 1.356 . S
C121 C120 1.363 . S
C121 C127 1.363 . S
C122 C123 1.363 . S
C122 C127 1.379 . S
C122 N129 1.356 . S
C123 C122 1.363 . S
C123 C126 1.363 . S
N124 C126 1.356 . S
N124 H136 0.984 . S
N124 H137 0.985 . S
N125 C127 1.356 . S
N125 H130 0.984 1_565 S
N125 H131 0.985 1_565 S
C126 C120 1.379 . S
C126 C123 1.363 . S
C126 N124 1.356 . S
C127 C121 1.363 . S
C127 C122 1.379 . S
C127 N125 1.356 . S
N128 C120 1.356 . S
N128 H134 0.984 . S
N128 H135 0.984 . S
N129 C122 1.356 . S
N129 H132 0.984 . S
N129 H133 0.985 . S
H130 N125 0.984 1_545 S
H131 N125 0.985 1_545 S
H132 N129 0.984 . S
H133 N129 0.985 . S
H134 N128 0.984 . S
H135 N128 0.984 . S
H136 N124 0.984 . S
H137 N124 0.985 . S
C138 C139 1.363 . S
C138 C144 1.379 . S
C138 N146 1.356 . S
C139 C138 1.363 . S
C139 C145 1.363 . S
C140 C141 1.363 . S
C140 C145 1.379 . S
C140 N147 1.356 1_455 S
C141 C140 1.363 . S
C141 C144 1.363 . S
N142 C144 1.356 . S
N142 H154 0.984 . S
N142 H155 0.985 . S
N143 C145 1.356 . S
N143 H148 0.984 . S
N143 H149 0.985 1_455 S
C144 C138 1.379 . S
C144 C141 1.363 . S
C144 N142 1.356 . S
C145 C139 1.363 . S
C145 C140 1.379 . S
C145 N143 1.356 . S
N146 C138 1.356 . S
N146 H152 0.984 1_565 S
N146 H153 0.984 1_565 S
N147 C140 1.356 1_655 S
N147 H150 0.984 . S
N147 H151 0.985 . S
H148 N143 0.984 . S
H149 N143 0.985 1_655 S
H150 N147 0.984 . S
H151 N147 0.985 . S
H152 N146 0.984 1_545 S
H153 N146 0.984 1_545 S
H154 N142 0.984 . S
H155 N142 0.985 . S
C156 C157 1.363 . S
C156 C162 1.379 . S
C156 N164 1.356 . S
C157 C156 1.363 . S
C157 C163 1.363 . S
C158 C159 1.363 . S
C158 C163 1.379 . S
C158 N165 1.356 1_545 S
C159 C158 1.363 . S
C159 C162 1.363 . S
N160 C162 1.356 . S
N160 H172 0.984 . S
N160 H173 0.985 . S
N161 C163 1.356 1_565 S
N161 H166 0.984 . S
N161 H167 0.985 . S
C162 C156 1.379 . S
C162 C159 1.363 . S
C162 N160 1.356 . S
C163 C157 1.363 . S
C163 C158 1.379 . S
C163 N161 1.356 1_545 S
N164 C156 1.356 . S
N164 H170 0.984 . S
N164 H171 0.984 . S
N165 C158 1.356 1_565 S
N165 H168 0.984 . S
N165 H169 0.985 . S
H166 N161 0.984 . S
H167 N161 0.985 . S
H168 N165 0.984 . S
H169 N165 0.985 . S
H170 N164 0.984 . S
H171 N164 0.984 . S
H172 N160 0.984 . S
H173 N160 0.985 . S
C174 C175 1.363 . S
C174 C180 1.379 . S
C174 N182 1.356 . S
C175 C174 1.363 . S
C175 C181 1.363 . S
C176 C177 1.363 . S
C176 C181 1.379 . S
C176 N183 1.356 . S
C177 C176 1.363 . S
C177 C180 1.363 . S
N178 C180 1.356 . S
N178 H190 0.984 . S
N178 H191 0.985 . S
N179 C181 1.356 . S
N179 H184 0.984 . S
N179 H185 0.985 . S
C180 C174 1.379 . S
C180 C177 1.363 . S
C180 N178 1.356 . S
C181 C175 1.363 . S
C181 C176 1.379 . S
C181 N179 1.356 . S
N182 C174 1.356 . S
N182 H188 0.984 . S
N182 H189 0.984 . S
N183 C176 1.356 . S
N183 H186 0.984 . S
N183 H187 0.985 . S
H184 N179 0.984 . S
H185 N179 0.985 . S
H186 N183 0.984 . S
H187 N183 0.985 . S
H188 N182 0.984 . S
H189 N182 0.984 . S
H190 N178 0.984 . S
H191 N178 0.985 . S
C192 C193 1.363 . S
C192 C198 1.379 . S
C192 N200 1.356 1_545 S
C193 C192 1.363 . S
C193 C199 1.363 . S
C194 C195 1.363 . S
C194 C199 1.379 . S
C194 N201 1.356 . S
C195 C194 1.363 . S
C195 C198 1.363 . S
N196 C198 1.356 1_565 S
N196 H208 0.984 . S
N196 H209 0.985 . S
N197 C199 1.356 . S
N197 H202 0.984 . S
N197 H203 0.985 . S
C198 C192 1.379 . S
C198 C195 1.363 . S
C198 N196 1.356 1_545 S
C199 C193 1.363 . S
C199 C194 1.379 . S
C199 N197 1.356 . S
N200 C192 1.356 1_565 S
N200 H206 0.984 . S
N200 H207 0.984 1_565 S
N201 C194 1.356 . S
N201 H204 0.984 . S
N201 H205 0.985 . S
H202 N197 0.984 . S
H203 N197 0.985 . S
H204 N201 0.984 . S
H205 N201 0.985 . S
H206 N200 0.984 . S
H207 N200 0.984 1_545 S
H208 N196 0.984 . S
H209 N196 0.985 . S
C210 C211 1.363 1_556 S
C210 C216 1.379 . S
C210 N218 1.356 1_565 S
C211 C210 1.363 1_554 S
C211 C217 1.363 . S
C212 C213 1.363 1_554 S
C212 C217 1.379 . S
C212 N219 1.356 . S
C213 C212 1.363 1_556 S
C213 C216 1.363 . S
N214 C216 1.356 . S
N214 H226 0.984 . S
N214 H227 0.985 . S
N215 C217 1.356 . S
N215 H220 0.984 . S
N215 H221 0.985 . S
C216 C210 1.379 . S
C216 C213 1.363 . S
C216 N214 1.356 . S
C217 C211 1.363 . S
C217 C212 1.379 . S
C217 N215 1.356 . S
N218 C210 1.356 1_545 S
N218 H224 0.984 . S
N218 H225 0.966 1_556 S
N219 C212 1.356 . S
N219 H222 0.984 1_554 S
N219 H223 0.985 . S
H220 N215 0.984 . S
H221 N215 0.985 . S
H222 N219 0.984 1_556 S
H223 N219 0.985 . S
H224 N218 0.984 . S
H225 N218 0.966 1_554 S
H226 N214 0.984 . S
H227 N214 0.985 . S
C228 C229 1.363 . S
C228 C234 1.379 . S
C228 N236 1.356 . S
C229 C228 1.363 . S
C229 C235 1.363 1_655 S
C230 C231 1.363 . S
C230 C235 1.379 . S
C230 N237 1.356 . S
C231 C230 1.363 . S
C231 C234 1.363 1_455 S
N232 C234 1.356 . S
N232 H244 0.984 . S
N232 H245 0.985 . S
N233 C235 1.356 . S
N233 H238 0.984 . S
N233 H239 0.985 . S
C234 C228 1.379 . S
C234 C231 1.363 1_655 S
C234 N232 1.356 . S
C235 C229 1.363 1_455 S
C235 C230 1.379 . S
C235 N233 1.356 . S
N236 C228 1.356 . S
N236 H242 0.984 . S
N236 H243 0.984 . S
N237 C230 1.356 . S
N237 H240 0.984 . S
N237 H241 0.985 . S
H238 N233 0.984 . S
H239 N233 0.985 . S
H240 N237 0.984 . S
H241 N237 0.985 . S
H242 N236 0.984 . S
H243 N236 0.984 . S
H244 N232 0.984 . S
H245 N232 0.985 . S
C246 C247 1.363 1_565 S
C246 C252 1.379 . S
C246 N254 1.356 . S
C247 C246 1.363 1_545 S
C247 C253 1.363 . S
C248 C249 1.363 . S
C248 C253 1.379 . S
C248 N255 1.356 . S
C249 C248 1.363 . S
C249 C252 1.363 1_545 S
N250 C252 1.356 . S
N250 H262 0.984 . S
N250 H263 0.985 . S
N251 C253 1.356 . S
N251 H256 0.984 . S
N251 H257 0.985 . S
C252 C246 1.379 . S
C252 C249 1.363 1_565 S
C252 N250 1.356 . S
C253 C247 1.363 . S
C253 C248 1.379 . S
C253 N251 1.356 . S
N254 C246 1.356 . S
N254 H260 0.984 . S
N254 H261 0.984 . S
N255 C248 1.356 . S
N255 H258 0.984 . S
N255 H259 0.985 . S
H256 N251 0.984 . S
H257 N251 0.985 . S
H258 N255 0.984 . S
H259 N255 0.985 . S
H260 N254 0.984 . S
H261 N254 0.984 . S
H262 N250 0.984 . S
H263 N250 0.985 . S
C264 C265 1.363 . S
C264 C270 1.379 1_554 S
C264 N272 1.356 . S
C265 C264 1.363 . S
C265 C271 1.363 1_554 S
C266 C267 1.363 . S
C266 C271 1.379 . S
C266 N273 1.356 . S
C267 C266 1.363 . S
C267 C270 1.363 . S
N268 C270 1.356 . S
N268 H280 0.984 1_556 S
N268 H281 0.985 . S
N269 C271 1.356 . S
N269 H274 0.984 1_556 S
N269 H275 0.985 . S
C270 C264 1.379 1_556 S
C270 C267 1.363 . S
C270 N268 1.356 . S
C271 C265 1.363 1_556 S
C271 C266 1.379 . S
C271 N269 1.356 . S
N272 C264 1.356 . S
N272 H278 0.984 . S
N272 H279 0.984 . S
N273 C266 1.356 . S
N273 H276 0.984 . S
N273 H277 0.985 . S
H274 N269 0.984 1_554 S
H275 N269 0.985 . S
H276 N273 0.984 . S
H277 N273 0.985 . S
H278 N272 0.984 . S
H279 N272 0.984 . S
H280 N268 0.984 1_554 S
H281 N268 0.985 . S
C282 C283 1.363 . S
C282 C288 1.379 . S
C282 N290 1.356 . S
C283 C282 1.363 . S
C283 C289 1.363 . S
C284 C285 1.363 . S
C284 C289 1.379 . S
C284 N291 1.356 1_455 S
C285 C284 1.363 . S
C285 C288 1.363 . S
N286 C288 1.356 . S
N286 H298 0.984 . S
N286 H299 0.985 . S
N287 C289 1.356 1_655 S
N287 H292 0.984 1_655 S
N287 H293 0.985 . S
C288 C282 1.379 . S
C288 C285 1.363 . S
C288 N286 1.356 . S
C289 C283 1.363 . S
C289 C284 1.379 . S
C289 N287 1.356 1_455 S
N290 C282 1.356 . S
N290 H296 0.984 . S
N290 H297 0.984 . S
N291 C284 1.356 1_655 S
N291 H294 0.984 . S
N291 H295 0.985 . S
H292 N287 0.984 1_455 S
H293 N287 0.985 . S
H294 N291 0.984 . S
H295 N291 0.985 . S
H296 N290 0.984 . S
H297 N290 0.984 . S
H298 N286 0.984 . S
H299 N286 0.985 . S
C87 C43 1.452 . S
C85 C11 1.437 . S
C103 C26 1.535 . S
C105 C69 1.554 . S
C121 C40 1.441 . S
C123 C71 1.453 . S
C139 C5 1.291 . S
C141 C55 1.447 . S
C159 C57 1.547 . S
C157 C18 1.532 . S
C175 C32 1.425 . S
C177 C83 1.443 . S
C195 C56 1.353 . S
C193 C39 1.345 . S
C211 C4 1.438 . S
C213 C82 1.455 . S
C231 C42 1.462 . S
C229 C19 1.311 . S
C249 C68 1.393 . S
C247 C33 1.232 1_545 S
C267 C70 1.470 . S
C265 C12 1.454 . S
C283 C25 1.449 . S
C285 C54 1.466 . S
