# Generated by pormake.
# Topology pth, (4,4)-cn, num edge types: 1
# Building blocks:
#     Node 0, Type 0, BuildingBlock: QUQFOY_clean_sbu_1, # of connection points: 4
#     Node 1, Type 0, BuildingBlock: QUQFOY_clean_sbu_1, # of connection points: 4
#     Node 2, Type 0, BuildingBlock: QUQFOY_clean_sbu_1, # of connection points: 4
#     Node 3, Type 1, BuildingBlock: KOZSID_clean_sbu_0, # of connection points: 4
#     Node 4, Type 1, BuildingBlock: KOZSID_clean_sbu_0, # of connection points: 4
#     Node 5, Type 1, BuildingBlock: KOZSID_clean_sbu_0, # of connection points: 4
#     Edge 6, Type (0, 1), BuildingBlock: MIFKUJ_clean_linker_0, # of connection points: 2
#     Edge 7, Type (0, 1), BuildingBlock: MIFKUJ_clean_linker_0, # of connection points: 2
#     Edge 8, Type (0, 1), BuildingBlock: MIFKUJ_clean_linker_0, # of connection points: 2
#     Edge 9, Type (0, 1), BuildingBlock: MIFKUJ_clean_linker_0, # of connection points: 2
#     Edge 10, Type (0, 1), BuildingBlock: MIFKUJ_clean_linker_0, # of connection points: 2
#     Edge 11, Type (0, 1), BuildingBlock: MIFKUJ_clean_linker_0, # of connection points: 2
#     Edge 12, Type (0, 1), BuildingBlock: MIFKUJ_clean_linker_0, # of connection points: 2
#     Edge 13, Type (0, 1), BuildingBlock: MIFKUJ_clean_linker_0, # of connection points: 2
#     Edge 14, Type (0, 1), BuildingBlock: MIFKUJ_clean_linker_0, # of connection points: 2
#     Edge 15, Type (0, 1), BuildingBlock: MIFKUJ_clean_linker_0, # of connection points: 2
#     Edge 16, Type (0, 1), BuildingBlock: MIFKUJ_clean_linker_0, # of connection points: 2
#     Edge 17, Type (0, 1), BuildingBlock: MIFKUJ_clean_linker_0, # of connection points: 2
# Relax obj value: 0.021
# Max RMSD: 0.124
# Mean RMSD: 0.073
data_MOF--net-pth--node1-QUQFOY_clean_sbu_1--node2-KOZSID_clean_sbu_0--edge1-MIFKUJ_clean_linker_0
_symmetry_space_group_name_H-M    P1
_symmetry_Int_Tables_number       1
_symmetry_cell_setting            triclinic
loop_
_symmetry_equiv_pos_as_xyz
'x, y, z'
_cell_length_a     32.604936
_cell_length_b     35.297126
_cell_length_c     79.275856
_cell_angle_alpha  87.921123
_cell_angle_beta   87.844173
_cell_angle_gamma 120.12183
loop_
_atom_site_label
_atom_site_type_symbol
_atom_site_fract_x
_atom_site_fract_y
_atom_site_fract_z
_atom_type_partial_charge
O0 O 0.08768 0.11266 0.03415 0.0
Cd1 Cd 0.02792 0.07075 0.04945 0.0
Cd2 Cd 0.07298 0.0204 0.04819 0.0
O3 O 0.12763 0.07737 0.03571 0.0
O4 O 1.0016 0.10845 0.05674 0.0
O5 O 0.03306 0.08156 0.07433 0.0
C6 C 0.01496 0.10634 0.07168 0.0
C7 C 0.08577 0.97851 0.06869 0.0
C8 C 0.12484 0.11059 0.03061 0.0
C9 C 0.97687 0.98451 0.03327 0.0
O10 O 0.01414 0.98227 0.03514 0.0
O11 O 0.97346 0.01627 0.03886 0.0
O12 O 0.0987 0.98053 0.05296 0.0
O13 O 0.06832 0.00278 0.07302 0.0
O14 O 0.01143 0.09492 0.39085 0.0
Cd15 Cd 0.06946 0.11385 0.37432 0.0
Cd16 Cd 0.02743 0.02345 0.37396 0.0
O17 O 0.96972 0.02507 0.38541 0.0
O18 O 0.09163 0.17691 0.3681 0.0
O19 O 0.06415 0.12584 0.34958 0.0
C20 C 0.07962 0.16621 0.35293 0.0
C21 C 0.01887 0.97507 0.35309 0.0
C22 C 0.9733 0.05798 0.39277 0.0
C23 C 0.12175 0.07464 0.39019 0.0
O24 O 0.08467 0.03791 0.38831 0.0
O25 O 0.12529 0.11019 0.38422 0.0
O26 O 0.00306 0.96103 0.36852 0.0
O27 O 0.03718 0.01654 0.3492 0.0
O28 O 0.99297 0.02551 0.70326 0.0
Cd29 Cd 0.03692 0.01148 0.7171 0.0
Cd30 Cd 0.08928 0.10098 0.71449 0.0
O31 O 0.02971 0.09741 0.70467 0.0
O32 O 0.99508 0.94781 0.72396 0.0
O33 O 0.02186 0.99914 0.74237 0.0
C34 C 0.99565 0.95827 0.73939 0.0
C35 C 0.12894 0.14609 0.73623 0.0
C36 C 0.99494 0.06201 0.70014 0.0
C37 C 0.13004 0.05233 0.69672 0.0
O38 O 0.13111 0.08853 0.69818 0.0
O39 O 0.09737 0.01735 0.70457 0.0
O40 O 0.13129 0.16215 0.72111 0.0
O41 O 0.10208 0.10416 0.73924 0.0
C42 C 0.09415 0.6306 0.18329 0.0
C43 C 0.1383 0.66454 0.17691 0.0
C44 C 0.1716 0.66058 0.18542 0.0
C45 C 0.14624 0.62499 0.19662 0.0
N46 N 0.09859 0.60557 0.19572 0.0
Co47 Co 0.04881 0.5556 0.21098 0.0
N48 N 0.09821 0.55163 0.22411 0.0
C49 C 0.14591 0.5773 0.22161 0.0
C50 C 0.17084 0.56534 0.23191 0.0
C51 C 0.13709 0.5293 0.24141 0.0
C52 C 0.09334 0.52146 0.23633 0.0
N53 N 0.99906 0.50585 0.22633 0.0
C54 C 0.00364 0.48013 0.23839 0.0
C55 C 0.95986 0.44818 0.24576 0.0
C56 C 0.92632 0.45328 0.23785 0.0
C57 C 0.95142 0.48799 0.22618 0.0
N58 N 0.99936 0.55908 0.19773 0.0
C59 C 0.95163 0.5331 0.20021 0.0
C60 C 0.92669 0.54276 0.18902 0.0
C61 C 0.9604 0.57736 0.17888 0.0
C62 C 0.00419 0.58719 0.18462 0.0
N63 N 0.04884 0.5124 0.1955 0.0
C64 C 0.04795 0.44672 0.17576 0.0
C65 C 0.00573 0.44445 0.18162 0.0
C66 C 0.00698 0.47713 0.19138 0.0
C67 C 0.09077 0.48344 0.17956 0.0
C68 C 0.0904 0.51572 0.18926 0.0
N69 N 0.04861 0.59885 0.22654 0.0
C70 C 0.00591 0.62831 0.2417 0.0
C71 C 0.04805 0.6628 0.24712 0.0
C72 C 0.09051 0.66423 0.24216 0.0
C73 C 0.08999 0.63236 0.23196 0.0
C74 C 0.00696 0.59695 0.23169 0.0
H75 H 0.1236 0.63572 0.22858 0.0
H76 H 0.97349 0.57175 0.22813 0.0
H77 H 0.97347 0.47276 0.19562 0.0
H78 H 0.12415 0.54275 0.1918 0.0
C79 C 0.16616 0.61062 0.20874 0.0
C80 C 0.04911 0.62461 0.17764 0.0
C81 C 0.04837 0.4836 0.24281 0.0
C82 C 0.93129 0.5013 0.21371 0.0
H83 H 0.14603 0.69037 0.1674 0.0
H84 H 0.20978 0.68196 0.18398 0.0
H85 H 0.20902 0.58014 0.2321 0.0
H86 H 0.14399 0.51024 0.25067 0.0
H87 H 0.95293 0.42307 0.25553 0.0
H88 H 0.88811 0.43294 0.23987 0.0
H89 H 0.88851 0.52705 0.18849 0.0
H90 H 0.95347 0.59401 0.16862 0.0
H91 H 0.97151 0.41753 0.1787 0.0
H92 H 0.12459 0.48694 0.17541 0.0
H93 H 0.97196 0.62567 0.24489 0.0
H94 H 0.1242 0.68961 0.24621 0.0
C95 C 0.47071 0.0174 0.57181 0.0
C96 C 0.4341 0.97695 0.57853 0.0
C97 C 0.43854 0.94569 0.57044 0.0
C98 C 0.47712 0.96859 0.55919 0.0
N99 N 0.49764 0.01269 0.55951 0.0
Co100 Co 0.55386 0.05803 0.54483 0.0
N101 N 0.55866 0.01168 0.53237 0.0
C102 C 0.52986 0.96771 0.53487 0.0
C103 C 0.54227 0.94397 0.52477 0.0
C104 C 0.58125 0.97451 0.51512 0.0
C105 C 0.59021 0.01541 0.51982 0.0
N106 N 0.61089 0.10334 0.53044 0.0
C107 C 0.63749 0.09854 0.51803 0.0
C108 C 0.67376 0.13891 0.51115 0.0
C109 C 0.67053 0.17024 0.51969 0.0
C110 C 0.6325 0.14744 0.53117 0.0
N111 N 0.54822 0.10438 0.55697 0.0
C112 C 0.5761 0.14839 0.55412 0.0
C113 C 0.56395 0.17201 0.56442 0.0
C114 C 0.52578 0.14134 0.5744 0.0
C115 C 0.5166 0.10054 0.56952 0.0
N116 N 0.59694 0.05731 0.56182 0.0
C117 C 0.65934 0.057 0.58563 0.0
C118 C 0.66168 0.09604 0.57994 0.0
C119 C 0.63076 0.09548 0.5681 0.0
C120 C 0.62473 0.01799 0.57924 0.0
C121 C 0.59402 0.01886 0.56756 0.0
N122 N 0.51089 0.05895 0.52784 0.0
C123 C 0.48977 0.09947 0.50817 0.0
C124 C 0.44894 0.06108 0.50428 0.0
C125 C 0.44006 0.02146 0.5123 0.0
C126 C 0.47132 0.02112 0.52386 0.0
C127 C 0.51976 0.09769 0.51989 0.0
H128 H 0.46254 0.98988 0.52947 0.0
H129 H 0.5499 0.12822 0.52229 0.0
H130 H 0.63503 0.12647 0.56426 0.0
H131 H 0.56835 0.988 0.5633 0.0
C132 C 0.49311 0.9496 0.5475 0.0
C133 C 0.47771 0.05921 0.57731 0.0
C134 C 0.62963 0.05669 0.51221 0.0
C135 C 0.61477 0.16653 0.54221 0.0
H136 H 0.40651 0.9705 0.58812 0.0
H137 H 0.41574 0.91045 0.57228 0.0
H138 H 0.52554 0.90862 0.52467 0.0
H139 H 0.6011 0.96725 0.50584 0.0
H140 H 0.69971 0.14518 0.50092 0.0
H141 H 0.69285 0.20549 0.5176 0.0
H142 H 0.58119 0.20733 0.56478 0.0
H143 H 0.50706 0.14831 0.58424 0.0
H144 H 0.68699 0.12715 0.58469 0.0
H145 H 0.62158 0.9868 0.583 0.0
H146 H 0.49902 0.13097 0.5021 0.0
H147 H 0.40873 0.99075 0.50991 0.0
C148 C 0.64622 0.59018 0.86365 0.0
C149 C 0.68444 0.58583 0.85805 0.0
C150 C 0.6805 0.55028 0.86696 0.0
C151 C 0.64035 0.53499 0.87747 0.0
N152 N 0.61821 0.55851 0.87579 0.0
Co153 Co 0.55851 0.54726 0.88865 0.0
N154 N 0.55584 0.49794 0.90297 0.0
C155 C 0.58868 0.48525 0.90285 0.0
C156 C 0.57873 0.45202 0.91467 0.0
C157 C 0.53677 0.44262 0.92278 0.0
C158 C 0.52317 0.47041 0.91523 0.0
N159 N 0.49741 0.53442 0.90092 0.0
C160 C 0.46827 0.50125 0.91243 0.0
C161 C 0.42671 0.50185 0.91636 0.0
C162 C 0.42988 0.53674 0.90717 0.0
C163 C 0.47267 0.55511 0.89801 0.0
N164 N 0.56274 0.59822 0.87494 0.0
C165 C 0.53242 0.61377 0.87619 0.0
C166 C 0.54563 0.65046 0.8658 0.0
C167 C 0.58736 0.6594 0.85759 0.0
C168 C 0.5972 0.62748 0.86349 0.0
N169 N 0.52046 0.50579 0.87155 0.0
C170 C 0.46154 0.44416 0.84893 0.0
C171 C 0.45905 0.48185 0.85161 0.0
C172 C 0.48843 0.51186 0.86285 0.0
C173 C 0.49479 0.43827 0.85753 0.0
C174 C 0.52397 0.46943 0.86858 0.0
N175 N 0.59631 0.58877 0.90576 0.0
C176 C 0.60849 0.64595 0.92437 0.0
C177 C 0.65241 0.65161 0.92856 0.0
C178 C 0.66717 0.62442 0.92138 0.0
C179 C 0.63876 0.59339 0.91019 0.0
C180 C 0.58136 0.61475 0.91306 0.0
H181 H 0.65222 0.5739 0.90513 0.0
H182 H 0.54854 0.61256 0.91033 0.0
H183 H 0.48398 0.5394 0.86444 0.0
H184 H 0.54884 0.46322 0.87467 0.0
C185 C 0.62607 0.50238 0.89046 0.0
C186 C 0.63964 0.62634 0.85778 0.0
C187 C 0.47798 0.46801 0.91965 0.0
C188 C 0.4909 0.59209 0.88676 0.0
H189 H 0.7131 0.60693 0.84885 0.0
H190 H 0.70511 0.53815 0.86636 0.0
H191 H 0.59892 0.43578 0.91683 0.0
H192 H 0.51788 0.41749 0.93289 0.0
H193 H 0.39679 0.47917 0.92481 0.0
H194 H 0.40381 0.54716 0.90702 0.0
H195 H 0.52708 0.66851 0.86434 0.0
H196 H 0.60821 0.68638 0.84831 0.0
H197 H 0.43362 0.48777 0.84535 0.0
H198 H 0.49853 0.40987 0.85568 0.0
H199 H 0.59481 0.66542 0.92982 0.0
H200 H 0.70105 0.6276 0.92405 0.0
H201 H 0.9606 0.14508 0.07306 0.0
H202 H 0.96638 0.20013 0.09215 0.0
H203 H 0.07489 0.19004 0.11807 0.0
H204 H 0.06753 0.13335 0.09947 0.0
H205 H 0.02486 0.20311 0.14013 0.0
H206 H 0.10095 0.2743 0.0865 0.0
H207 H 0.10842 0.28815 0.05551 0.0
H208 H 0.9951 0.31682 0.05849 0.0
H209 H 0.98652 0.30257 0.08949 0.0
H210 H 0.10889 0.45353 0.14921 0.0
H211 H 0.10628 0.39455 0.13321 0.0
H212 H 0.98043 0.29991 0.16328 0.0
H213 H 0.98448 0.35808 0.17997 0.0
H214 H 0.04692 0.34181 0.11327 0.0
H215 H 0.97098 0.20065 0.16631 0.0
H216 H 0.97556 0.19138 0.19705 0.0
H217 H 0.11031 0.31102 0.19498 0.0
H218 H 0.10686 0.32069 0.1642 0.0
C219 C 0.98514 0.15407 0.08301 0.0
C220 C 0.01378 0.135 0.0847 0.0
C221 C 0.98875 0.18589 0.09384 0.0
C222 C 0.02207 0.20036 0.1063 0.0
C223 C 0.04909 0.17978 0.10853 0.0
C224 C 0.04481 0.14727 0.09788 0.0
C225 C 0.0299 0.23791 0.11655 0.0
C226 C 0.02962 0.23338 0.13424 0.0
C227 C 0.03764 0.27816 0.10893 0.0
C228 C 0.04283 0.28699 0.0903 0.0
C229 C 0.07743 0.28329 0.08053 0.0
C230 C 0.08188 0.29125 0.06297 0.0
C231 C 0.05218 0.30326 0.05503 0.0
C232 C 0.01804 0.30746 0.06465 0.0
C233 C 0.0134 0.29949 0.08222 0.0
C234 C 0.08114 0.4201 0.15265 0.0
C235 C 0.04691 0.41084 0.16595 0.0
C236 C 0.0794 0.38636 0.14335 0.0
C237 C 0.04341 0.34252 0.14708 0.0
C238 C 0.0091 0.33322 0.16028 0.0
C239 C 0.01108 0.36681 0.16969 0.0
C240 C 0.04086 0.30668 0.13689 0.0
C241 C 0.04216 0.31155 0.11918 0.0
C242 C 0.03576 0.26741 0.14448 0.0
C243 C 0.03839 0.26158 0.16296 0.0
C244 C 1.00167 0.22487 0.1724 0.0
C245 C 0.00406 0.21958 0.18983 0.0
C246 C 0.04313 0.25067 0.19797 0.0
C247 C 0.07998 0.28705 0.18867 0.0
C248 C 0.0778 0.29248 0.17124 0.0
H249 H 0.04488 0.24652 0.21147 0.0
H250 H 0.05568 0.3094 0.04143 0.0
H251 H 0.8775 0.99869 0.39262 0.0
H252 H 0.81373 0.99361 0.41197 0.0
H253 H 0.91772 0.10112 0.43864 0.0
H254 H 0.98102 0.10733 0.41922 0.0
H255 H 0.84238 0.0161 0.4589 0.0
H256 H 0.86761 0.13066 0.41594 0.0
H257 H 0.87101 0.15752 0.38648 0.0
H258 H 0.72685 0.05536 0.38189 0.0
H259 H 0.72288 0.0275 0.41128 0.0
H260 H 0.72379 0.08499 0.51418 0.0
H261 H 0.77799 0.08161 0.49287 0.0
H262 H 0.66329 0.02048 0.4596 0.0
H263 H 0.60997 0.02671 0.48056 0.0
H264 H 0.73762 0.07287 0.44142 0.0
H265 H 0.70539 0.96145 0.48382 0.0
H266 H 0.69759 0.92862 0.51259 0.0
H267 H 0.84696 0.01344 0.5176 0.0
H268 H 0.85556 0.04729 0.48894 0.0
C269 C 0.88662 0.02119 0.40261 0.0
C270 C 0.9342 0.05354 0.40435 0.0
C271 C 0.85028 0.01828 0.41361 0.0
C272 C 0.86121 0.04702 0.42669 0.0
C273 C 0.90866 0.07868 0.42862 0.0
C274 C 0.94472 0.08227 0.41745 0.0
C275 C 0.82353 0.0448 0.43841 0.0
C276 C 0.81952 0.02865 0.45517 0.0
C277 C 0.7928 0.05978 0.43331 0.0
C278 C 0.79517 0.07666 0.41571 0.0
C279 C 0.83682 0.11364 0.40859 0.0
C280 C 0.83881 0.12912 0.39192 0.0
C281 C 0.79923 0.10806 0.38229 0.0
C282 C 0.75752 0.07157 0.38934 0.0
C283 C 0.75538 0.05594 0.406 0.0
C284 C 0.71047 0.07129 0.50222 0.0
C285 C 0.66283 0.05588 0.49898 0.0
C286 C 0.74122 0.06886 0.49012 0.0
C287 C 0.72456 0.04967 0.47474 0.0
C288 C 0.67706 0.03516 0.47137 0.0
C289 C 0.64657 0.03852 0.48334 0.0
C290 C 0.75677 0.04493 0.46222 0.0
C291 C 0.75984 0.05973 0.44526 0.0
C292 C 0.78591 0.02766 0.46707 0.0
C293 C 0.78104 0.00714 0.48426 0.0
C294 C 0.73654 0.9733 0.49109 0.0
C295 C 0.73197 0.95449 0.50737 0.0
C296 C 0.77174 0.96899 0.51692 0.0
C297 C 0.81618 1.00226 0.51019 0.0
C298 C 0.82093 0.02125 0.49392 0.0
H299 H 0.76813 0.95439 0.52953 0.0
H300 H 0.80082 0.1201 0.36939 0.0
H301 H 0.98342 0.96951 0.77298 0.0
H302 H 0.92512 0.91476 0.7942 0.0
H303 H 0.87812 0.81664 0.7574 0.0
H304 H 0.93582 0.87091 0.73619 0.0
H305 H 0.80404 0.81754 0.77338 0.0
H306 H 0.94422 0.81571 0.78941 0.0
H307 H 0.02643 0.84826 0.79806 0.0
H308 H 0.98914 0.89336 0.84248 0.0
H309 H 0.9068 0.86157 0.83396 0.0
H310 H 0.65995 0.62258 0.82448 0.0
H311 H 0.7225 0.68101 0.80541 0.0
H312 H 0.76426 0.76933 0.84583 0.0
H313 H 0.70221 0.71031 0.865 0.0
H314 H 0.84089 0.77702 0.82902 0.0
H315 H 0.70067 0.77716 0.81392 0.0
H316 H 0.61819 0.745 0.80561 0.0
H317 H 0.65519 0.70493 0.75974 0.0
H318 H 0.73777 0.73623 0.7679 0.0
C319 C 0.9611 0.93613 0.76948 0.0
C320 C 0.96429 0.92464 0.75287 0.0
C321 C 0.9278 0.90486 0.78163 0.0
C322 C 0.8972 0.86154 0.7774 0.0
C323 C 0.90117 0.84986 0.76094 0.0
C324 C 0.9344 0.88096 0.74884 0.0
C325 C 0.85965 0.82862 0.78981 0.0
C326 C 0.81218 0.80832 0.78547 0.0
C327 C 0.87003 0.81759 0.80581 0.0
C328 C 0.91949 0.83669 0.81095 0.0
C329 C 0.95365 0.83291 0.80094 0.0
C330 C 1.00025 0.85115 0.80584 0.0
C331 C 0.01304 0.87298 0.82078 0.0
C332 C 0.97921 0.87651 0.83089 0.0
C333 C 0.93256 0.85836 0.82604 0.0
C334 C 0.68252 0.65456 0.8292 0.0
C335 C 0.67652 0.66225 0.8461 0.0
C336 C 0.71808 0.68794 0.81833 0.0
C337 C 0.74784 0.7298 0.82412 0.0
C338 C 0.74179 0.73738 0.84107 0.0
C339 C 0.7063 0.70387 0.85196 0.0
C340 C 0.78534 0.76544 0.81247 0.0
C341 C 0.83273 0.78636 0.81696 0.0
C342 C 0.7749 0.77728 0.79662 0.0
C343 C 0.72534 0.75874 0.79159 0.0
C344 C 0.69115 0.76122 0.80211 0.0
C345 C 0.64439 0.74317 0.79742 0.0
C346 C 0.63143 0.72286 0.78217 0.0
C347 C 0.66526 0.72064 0.77156 0.0
C348 C 0.71207 0.73856 0.7762 0.0
H349 H 0.59521 0.70891 0.77856 0.0
H350 H 0.04913 0.88707 0.82455 0.0
H351 H 0.12792 0.92927 0.06384 0.0
H352 H 0.12132 0.86955 0.08244 0.0
H353 H 0.03748 0.89296 0.11947 0.0
H354 H 0.04497 0.95361 0.10104 0.0
H355 H 0.09571 0.87436 0.1349 0.0
H356 H 0.98595 0.80887 0.09208 0.0
H357 H 0.96001 0.79489 0.06301 0.0
H358 H 0.05512 0.74644 0.05274 0.0
H359 H 0.08214 0.76073 0.08169 0.0
H360 H 0.00973 0.67544 0.18367 0.0
H361 H 0.01172 0.73297 0.16489 0.0
H362 H 0.09236 0.7092 0.12658 0.0
H363 H 0.08657 0.64891 0.14489 0.0
H364 H 0.0344 0.72791 0.11189 0.0
H365 H 0.14709 0.79995 0.15565 0.0
H366 H 0.16469 0.80898 0.18577 0.0
H367 H 0.05393 0.83952 0.19464 0.0
H368 H 0.03668 0.83168 0.1647 0.0
C369 C 0.10856 0.92212 0.07603 0.0
C370 C 0.08678 0.94614 0.08091 0.0
C371 C 0.10448 0.88766 0.08661 0.0
C372 C 0.07794 0.87595 0.10222 0.0
C373 C 0.0579 0.90112 0.10745 0.0
C374 C 0.06229 0.93588 0.09691 0.0
C375 C 0.07038 0.83704 0.1129 0.0
C376 C 0.08197 0.84232 0.12985 0.0
C377 C 0.05271 0.79507 0.1064 0.0
C378 C 0.03641 0.78629 0.08901 0.0
C379 C 1.0016 0.79555 0.08359 0.0
C380 C 0.98666 0.78752 0.06714 0.0
C381 C 0.006 0.7699 0.05602 0.0
C382 C 0.04023 0.76016 0.06135 0.0
C383 C 0.05534 0.76818 0.07779 0.0
C384 C 0.02734 0.68223 0.17115 0.0
C385 C 0.0488 0.65839 0.16582 0.0
C386 C 0.02901 0.71548 0.16048 0.0
C387 C 0.0538 0.72678 0.14449 0.0
C388 C 0.07356 0.70166 0.13891 0.0
C389 C 0.07059 0.66747 0.1494 0.0
C390 C 0.06027 0.76538 0.13381 0.0
C391 C 0.0485 0.76006 0.11686 0.0
C392 C 0.0774 0.80724 0.1403 0.0
C393 C 0.09067 0.81532 0.15799 0.0
C394 C 0.12699 0.80913 0.16405 0.0
C395 C 0.13695 0.81409 0.1811 0.0
C396 C 0.11073 0.82514 0.19217 0.0
C397 C 0.07481 0.83161 0.18614 0.0
C398 C 0.06509 0.82718 0.16911 0.0
H399 H 0.11811 0.82851 0.2054 0.0
H400 H 0.99438 0.7637 0.04329 0.0
H401 H 0.14052 0.0084 0.39593 0.0
H402 H 0.19883 0.00747 0.4141 0.0
H403 H 0.24569 0.14105 0.42586 0.0
H404 H 0.1887 0.14275 0.40702 0.0
H405 H 0.31899 0.13138 0.42317 0.0
H406 H 0.16681 0.04894 0.45326 0.0
H407 H 0.0823 0.99182 0.45773 0.0
H408 H 0.11869 0.89162 0.45169 0.0
H409 H 0.2034 0.94819 0.44697 0.0
H410 H 0.42392 0.12422 0.49979 0.0
H411 H 0.37157 0.12756 0.47932 0.0
H412 H 0.3453 0.00437 0.46094 0.0
H413 H 0.39892 1.00132 0.481 0.0
H414 H 0.2625 0.00902 0.46712 0.0
H415 H 0.41708 0.09529 0.43795 0.0
H416 H 0.50091 0.15456 0.43493 0.0
H417 H 0.45832 0.2505 0.44125 0.0
H418 H 0.37423 0.19172 0.44455 0.0
C419 C 0.1635 0.03771 0.40228 0.0
C420 C 0.15975 0.07555 0.40015 0.0
C421 C 0.19666 0.03706 0.41277 0.0
C422 C 0.22591 0.07379 0.42175 0.0
C423 C 0.22339 0.11218 0.41917 0.0
C424 C 0.19079 0.11313 0.4084 0.0
C425 C 0.25832 0.07178 0.43406 0.0
C426 C 0.3064 0.10489 0.4329 0.0
C427 C 0.24228 0.03694 0.44668 0.0
C428 C 0.19139 0.00283 0.4496 0.0
C429 C 0.15675 0.01473 0.45278 0.0
C430 C 0.10882 0.98246 0.45537 0.0
C431 C 0.09512 0.93813 0.45496 0.0
C432 C 0.12935 0.92597 0.45199 0.0
C433 C 0.17733 0.95813 0.44937 0.0
C434 C 0.40766 0.09807 0.49125 0.0
C435 C 0.41605 0.0626 0.49203 0.0
C436 C 0.37751 0.09997 0.4796 0.0
C437 C 0.35487 0.0664 0.46852 0.0
C438 C 0.36243 0.03061 0.4694 0.0
C439 C 0.39292 0.02883 0.48096 0.0
C440 C 0.32288 0.06844 0.45614 0.0
C441 C 0.27492 0.0354 0.45734 0.0
C442 C 0.33886 0.10366 0.44376 0.0
C443 C 0.38938 0.13906 0.44165 0.0
C444 C 0.42561 0.12899 0.43883 0.0
C445 C 0.47317 0.16251 0.43704 0.0
C446 C 0.48494 0.20626 0.43794 0.0
C447 C 0.44915 0.21659 0.44057 0.0
C448 C 0.40153 0.18319 0.44239 0.0
H449 H 0.52178 0.23216 0.43655 0.0
H450 H 0.05799 0.91319 0.45696 0.0
H451 H 0.18406 0.23537 0.73383 0.0
H452 H 0.23929 0.28241 0.75393 0.0
H453 H 0.19825 0.16944 0.78806 0.0
H454 H 0.14203 0.12198 0.76803 0.0
H455 H 0.20963 0.23841 0.80522 0.0
H456 H 0.30092 0.21354 0.76335 0.0
H457 H 0.32977 0.21029 0.73454 0.0
H458 H 0.38607 0.34879 0.72528 0.0
H459 H 0.35695 0.35277 0.75397 0.0
H460 H 0.41194 0.35449 0.85416 0.0
H461 H 0.35513 0.30075 0.83585 0.0
H462 H 0.38017 0.40554 0.79967 0.0
H463 H 0.43737 0.45927 0.81776 0.0
H464 H 0.37788 0.33611 0.78439 0.0
H465 H 0.28262 0.35899 0.82638 0.0
H466 H 0.25447 0.36103 0.85546 0.0
H467 H 0.20692 0.22413 0.86482 0.0
H468 H 0.23542 0.22144 0.83585 0.0
C469 C 0.18636 0.22045 0.74567 0.0
C470 C 0.15881 0.17481 0.74926 0.0
C471 C 0.21822 0.24743 0.75713 0.0
C472 C 0.2237 0.22941 0.77237 0.0
C473 C 0.19485 0.18407 0.77634 0.0
C474 C 0.16273 0.15699 0.76487 0.0
C475 C 0.26042 0.25795 0.78388 0.0
C476 C 0.24655 0.25925 0.80074 0.0
C477 C 0.3086 0.28556 0.77802 0.0
C478 C 0.32638 0.28337 0.76077 0.0
C479 C 0.31914 0.24325 0.75513 0.0
C480 C 0.33559 0.24128 0.73883 0.0
C481 C 0.35964 0.27929 0.72807 0.0
C482 C 0.36739 0.31937 0.73362 0.0
C483 C 0.35097 0.3215 0.74991 0.0
C484 C 0.40575 0.36602 0.84221 0.0
C485 C 0.42903 0.41118 0.83745 0.0
C486 C 0.37299 0.3353 0.83182 0.0
C487 C 0.36298 0.34915 0.81647 0.0
C488 C 0.38716 0.3941 0.81148 0.0
C489 C 0.41963 0.42479 0.82189 0.0
C490 C 0.32693 0.31707 0.80562 0.0
C491 C 0.341 0.31506 0.78889 0.0
C492 C 0.27909 0.28863 0.81165 0.0
C493 C 0.26162 0.29013 0.82901 0.0
C494 C 0.2665 0.32941 0.83468 0.0
C495 C 0.25043 0.33067 0.85114 0.0
C496 C 0.22905 0.29277 0.862 0.0
C497 C 0.22356 0.25348 0.85641 0.0
C498 C 0.23964 0.25206 0.83997 0.0
H499 H 0.21664 0.29381 0.87474 0.0
H500 H 0.37235 0.2777 0.71546 0.0
H501 H 0.90543 0.99444 0.69614 0.0
H502 H 0.84641 0.99422 0.67803 0.0
H503 H 0.94196 0.13096 0.66304 0.0
H504 H 1.00041 0.1318 0.68175 0.0
H505 H 0.85666 0.1178 0.66603 0.0
H506 H 0.92693 0.04481 0.6378 0.0
H507 H 0.95285 0.99062 0.63454 0.0
H508 H 0.80836 0.88548 0.64277 0.0
H509 H 0.78163 0.93907 0.64631 0.0
H510 H 0.75306 0.11954 0.58828 0.0
H511 H 0.80698 0.12078 0.60906 0.0
H512 H 0.69709 0.99564 0.63145 0.0
H513 H 0.64193 0.99483 0.61122 0.0
H514 H 0.78814 0.00263 0.62474 0.0
H515 H 0.71987 0.08033 0.65172 0.0
H516 H 0.69771 0.13748 0.65319 0.0
H517 H 0.84439 0.23776 0.64487 0.0
H518 H 0.86737 0.18115 0.6431 0.0
C519 C 0.91373 0.02458 0.6891 0.0
C520 C 0.95775 0.06307 0.69028 0.0
C521 C 0.88004 0.02435 0.67865 0.0
C522 C 0.89009 0.06227 0.66879 0.0
C523 C 0.93337 0.10119 0.67043 0.0
C524 C 0.9668 0.10165 0.68113 0.0
C525 C 0.85597 0.06104 0.65652 0.0
C526 C 0.84219 0.09288 0.65689 0.0
C527 C 0.83643 0.02827 0.64465 0.0
C528 C 0.85235 0.99595 0.64249 0.0
C529 C 0.90073 0.01012 0.63904 0.0
C530 C 0.91556 0.97952 0.63712 0.0
C531 C 0.88229 0.93463 0.63849 0.0
C532 C 0.83409 0.92026 0.64174 0.0
C533 C 0.81908 0.95073 0.64369 0.0
C534 C 0.73987 0.09252 0.59777 0.0
C535 C 0.69278 0.05719 0.59805 0.0
C536 C 0.77097 0.09322 0.60958 0.0
C537 C 0.75591 0.05844 0.62184 0.0
C538 C 0.70938 0.02277 0.62205 0.0
C539 C 0.67799 0.02228 0.61038 0.0
C540 C 0.789 0.05921 0.63435 0.0
C541 C 0.80262 0.02737 0.63396 0.0
C542 C 0.80902 0.09241 0.64595 0.0
C543 C 0.79528 0.12648 0.64712 0.0
C544 C 0.74736 0.11456 0.65006 0.0
C545 C 0.73466 0.14686 0.65098 0.0
C546 C 0.7696 0.19122 0.64908 0.0
C547 C 0.81735 0.20338 0.64631 0.0
C548 C 0.83024 0.1712 0.64537 0.0
H549 H 0.7597 0.21618 0.64979 0.0
H550 H 0.89384 0.91099 0.637 0.0
H551 H 0.90638 0.98859 0.01669 0.0
H552 H 0.84775 0.93284 0.99942 0.0
H553 H 0.90078 0.84613 0.01239 0.0
H554 H 0.96017 0.90201 0.02903 0.0
H555 H 0.89221 0.8466 0.98047 0.0
H556 H 0.79009 0.83127 0.02882 0.0
H557 H 0.75322 0.85634 0.05004 0.0
H558 H 0.69493 0.8978 0.01059 0.0
H559 H 0.73196 0.87346 0.98911 0.0
H560 H 0.70856 0.64696 0.95262 0.0
H561 H 0.76038 0.70432 0.97071 0.0
H562 H 0.71632 0.79111 0.94918 0.0
H563 H 0.66529 0.7344 0.9307 0.0
H564 H 0.71918 0.79277 0.98437 0.0
H565 H 0.82043 0.80522 0.93626 0.0
H566 H 0.85614 0.77789 0.91555 0.0
H567 H 0.91534 0.73946 0.95563 0.0
H568 H 0.87937 0.76598 0.97662 0.0
C569 C 0.90511 0.95743 0.01598 0.0
C570 C 0.93807 0.94982 0.02416 0.0
C571 C 0.87148 0.92549 0.00614 0.0
C572 C 0.86956 0.88502 0.00461 0.0
C573 C 0.90163 0.87709 0.01322 0.0
C574 C 0.93555 0.9091 0.02279 0.0
C575 C 0.83593 0.85149 0.9935 0.0
C576 C 0.8543 0.83449 0.98154 0.0
C577 C 0.78653 0.83635 0.99446 0.0
C578 C 0.76422 0.85097 0.00735 0.0
C579 C 0.76972 0.84605 0.02466 0.0
C580 C 0.74873 0.86007 0.03674 0.0
C581 C 0.72186 0.87877 0.03166 0.0
C582 C 0.71581 0.88337 0.0145 0.0
C583 C 0.73676 0.86944 0.00237 0.0
C584 C 0.71012 0.67833 0.95158 0.0
C585 C 0.68279 0.68597 0.94008 0.0
C586 C 0.73959 0.71103 0.96202 0.0
C587 C 0.74245 0.7521 0.96121 0.0
C588 C 0.71452 0.7596 0.95006 0.0
C589 C 0.68522 0.727 0.93954 0.0
C590 C 0.77554 0.78755 0.9717 0.0
C591 C 0.75712 0.805 0.98341 0.0
C592 C 0.82488 0.8029 0.97064 0.0
C593 C 0.84683 0.78722 0.95802 0.0
C594 C 0.84075 0.79063 0.94067 0.0
C595 C 0.86109 0.77534 0.92888 0.0
C596 C 0.88789 0.75686 0.93427 0.0
C597 C 0.89452 0.75374 0.95147 0.0
C598 C 0.8742 0.76893 0.96332 0.0
H599 H 0.90361 0.74503 0.92512 0.0
H600 H 0.70564 0.8896 0.04103 0.0
H601 H 0.95801 0.8869 0.35249 0.0
H602 H 0.96421 0.8359 0.33396 0.0
H603 H 0.0908 0.94366 0.30844 0.0
H604 H 0.08255 0.99495 0.32621 0.0
H605 H 0.04762 0.89349 0.28647 0.0
H606 H 0.08938 0.86555 0.34034 0.0
H607 H 0.08089 0.8485 0.37115 0.0
H608 H 0.95561 0.72425 0.36535 0.0
H609 H 0.96299 0.7408 0.33451 0.0
H610 H 0.11439 0.75119 0.24702 0.0
H611 H 0.11289 0.80591 0.2646 0.0
H612 H 0.97774 0.70711 0.28837 0.0
H613 H 0.98052 0.65172 0.27176 0.0
H614 H 0.03069 0.75509 0.31132 0.0
H615 H 0.99688 0.79194 0.25479 0.0
H616 H 0.01504 0.81729 0.22457 0.0
H617 H 0.14254 0.93311 0.23669 0.0
H618 H 0.12537 0.90828 0.2669 0.0
C619 C 0.98675 0.89969 0.34275 0.0
C620 C 0.01976 0.94489 0.34077 0.0
C621 C 0.99069 0.87043 0.33228 0.0
C622 C 0.02884 0.88547 0.32004 0.0
C623 C 0.06108 0.93091 0.31778 0.0
C624 C 0.05633 0.96033 0.32792 0.0
C625 C 0.03504 0.85406 0.30954 0.0
C626 C 0.04454 0.86353 0.29201 0.0
C627 C 0.03109 0.81475 0.31659 0.0
C628 C 0.0265 0.80462 0.33513 0.0
C629 C 0.05983 0.83472 0.34565 0.0
C630 C 0.05524 0.82513 0.36312 0.0
C631 C 0.01766 0.78537 0.37021 0.0
C632 C 0.98466 0.75506 0.35984 0.0
C633 C 0.98905 0.76452 0.34237 0.0
C634 C 0.08458 0.74084 0.25614 0.0
C635 C 0.04745 0.69673 0.25781 0.0
C636 C 0.08342 0.77249 0.26603 0.0
C637 C 0.04469 0.76106 0.27764 0.0
C638 C 0.0079 0.71704 0.27945 0.0
C639 C 0.00931 0.68533 0.26975 0.0
C640 C 0.04249 0.79427 0.28824 0.0
C641 C 0.03381 0.78511 0.30584 0.0
C642 C 0.04897 0.83466 0.28133 0.0
C643 C 0.06 0.8481 0.26306 0.0
C644 C 0.02902 0.82255 0.25097 0.0
C645 C 0.03911 0.83692 0.23385 0.0
C646 C 0.07992 0.87686 0.22874 0.0
C647 C 0.11096 0.90225 0.24068 0.0
C648 C 0.10106 0.88806 0.25777 0.0
H649 H 0.08755 0.88846 0.21557 0.0
H650 H 0.01418 0.778 0.38374 0.0
H651 H 0.16102 0.99289 0.6975 0.0
H652 H 0.22155 0.99233 0.67816 0.0
H653 H 0.23946 0.1074 0.65036 0.0
H654 H 0.18051 0.10912 0.66982 0.0
H655 H 0.22106 0.02061 0.63196 0.0
H656 H 0.32001 0.13601 0.66936 0.0
H657 H 0.34488 0.16249 0.69764 0.0
H658 H 0.37771 0.06045 0.7074 0.0
H659 H 0.35226 0.03298 0.67925 0.0
H660 H 0.41617 0.08941 0.57361 0.0
H661 H 0.35852 0.08737 0.59487 0.0
H662 H 0.4042 0.0252 0.63159 0.0
H663 H 0.46389 0.02982 0.61052 0.0
H664 H 0.3879 0.0792 0.64685 0.0
H665 H 0.29914 0.967 0.60992 0.0
H666 H 0.27175 0.93425 0.58271 0.0
H667 H 0.2152 0.01915 0.57318 0.0
H668 H 0.24291 0.05292 0.60023 0.0
C669 C 0.17799 0.01809 0.68729 0.0
C670 C 0.16619 0.05115 0.68522 0.0
C671 C 0.21249 0.01774 0.67629 0.0
C672 C 0.23483 0.04988 0.6629 0.0
C673 C 0.22259 0.08242 0.66066 0.0
C674 C 0.18905 0.0834 0.67183 0.0
C675 C 0.27094 0.04973 0.65108 0.0
C676 C 0.25767 0.03369 0.63509 0.0
C677 C 0.3181 0.06542 0.65548 0.0
C678 C 0.33363 0.0821 0.67232 0.0
C679 C 0.33201 0.11893 0.67761 0.0
C680 C 0.34634 0.13419 0.69359 0.0
C681 C 0.3627 0.11307 0.70433 0.0
C682 C 0.36492 0.07673 0.69908 0.0
C683 C 0.35057 0.06131 0.68312 0.0
C684 C 0.41409 0.07578 0.58629 0.0
C685 C 0.44404 0.0595 0.59047 0.0
C686 C 0.38088 0.07418 0.59839 0.0
C687 C 0.37603 0.05509 0.61478 0.0
C688 C 0.40694 0.03985 0.61905 0.0
C689 C 0.44084 0.04228 0.60703 0.0
C690 C 0.33855 0.0508 0.62736 0.0
C691 C 0.35136 0.06582 0.64359 0.0
C692 C 0.2906 0.03324 0.62327 0.0
C693 C 0.27346 0.01275 0.60705 0.0
C694 C 0.28112 0.97889 0.60198 0.0
C695 C 0.26552 0.96012 0.58658 0.0
C696 C 0.24183 0.97467 0.57621 0.0
C697 C 0.23359 0.00795 0.58123 0.0
C698 C 0.2492 0.02689 0.5966 0.0
H699 H 0.22978 0.9601 0.56429 0.0
H700 H 0.37379 0.12493 0.7167 0.0
H701 H 0.18919 0.10723 0.00841 0.0
H702 H 0.25037 0.16722 0.98961 0.0
H703 H 0.21241 0.25697 0.01116 0.0
H704 H 0.14947 0.19658 0.02913 0.0
H705 H 0.22384 0.27427 0.98004 0.0
H706 H 0.31917 0.25284 0.01939 0.0
H707 H 0.34867 0.21193 0.03593 0.0
H708 H 0.393 0.17787 0.99004 0.0
H709 H 0.36322 0.21814 0.97321 0.0
H710 H 0.44165 0.47171 0.95081 0.0
H711 H 0.38234 0.40998 0.96973 0.0
H712 H 0.37584 0.31905 0.93358 0.0
H713 H 0.43352 0.38078 0.91433 0.0
H714 H 0.38881 0.30315 0.97145 0.0
H715 H 0.29099 0.32804 0.93285 0.0
H716 H 0.26624 0.37523 0.91806 0.0
H717 H 0.23157 0.40964 0.96576 0.0
H718 H 0.25693 0.3632 0.98083 0.0
C719 C 0.19426 0.13988 0.0092 0.0
C720 C 0.16459 0.14725 0.02023 0.0
C721 C 0.22944 0.17428 0.9985 0.0
C722 C 0.23672 0.21706 0.99904 0.0
C723 C 0.20758 0.22442 0.01036 0.0
C724 C 0.17168 0.18987 0.0207 0.0
C725 C 0.27328 0.25387 0.98743 0.0
C726 C 0.26 0.28071 0.97842 0.0
C727 C 0.32058 0.26238 0.98497 0.0
C728 C 0.33852 0.23813 0.99504 0.0
C729 C 0.33489 0.23635 0.01282 0.0
C730 C 0.35172 0.21332 0.02225 0.0
C731 C 0.37258 0.19221 0.01404 0.0
C732 C 0.37677 0.19418 0.99638 0.0
C733 C 0.35996 0.21713 0.98689 0.0
C734 C 0.42706 0.43853 0.94687 0.0
C735 C 0.44161 0.43084 0.9311 0.0
C736 C 0.39355 0.40342 0.95768 0.0
C737 C 0.37493 0.36009 0.95302 0.0
C738 C 0.39 0.35229 0.93739 0.0
C739 C 0.42269 0.38743 0.92643 0.0
C740 C 0.339 0.32295 0.96436 0.0
C741 C 0.35251 0.29631 0.97323 0.0
C742 C 0.29229 0.31518 0.96701 0.0
C743 C 0.27635 0.34254 0.95796 0.0
C744 C 0.27852 0.34599 0.94018 0.0
C745 C 0.2643 0.37255 0.93175 0.0
C746 C 0.24747 0.39553 0.94096 0.0
C747 C 0.24468 0.39188 0.95863 0.0
C748 C 0.25894 0.36542 0.96713 0.0
H749 H 0.23649 0.41608 0.93441 0.0
H750 H 0.38558 0.1744 0.02136 0.0
H751 H 0.0598 0.15605 0.31941 0.0
H752 H 0.05421 0.20806 0.29957 0.0
H753 H 0.09385 0.30113 0.33817 0.0
H754 H 0.09973 0.24972 0.35796 0.0
H755 H 0.01445 0.28915 0.32266 0.0
H756 H 0.17172 0.31779 0.30617 0.0
H757 H 0.23126 0.29846 0.29649 0.0
H758 H 0.15867 0.25126 0.25111 0.0
H759 H 0.09827 0.26975 0.26064 0.0
H760 H 0.06425 0.48442 0.2763 0.0
H761 H 0.06818 0.42786 0.29395 0.0
H762 H 0.03669 0.34727 0.25125 0.0
H763 H 0.03339 0.40435 0.23357 0.0
H764 H 0.10793 0.34862 0.26768 0.0
H765 H 0.95285 0.32226 0.28303 0.0
H766 H 0.8924 0.34087 0.29224 0.0
H767 H 0.95801 0.38125 0.33928 0.0
H768 H 0.01939 0.36357 0.33023 0.0
C769 C 0.06787 0.1878 0.3236 0.0
C770 C 0.08028 0.19869 0.34028 0.0
C771 C 0.06467 0.2175 0.31225 0.0
C772 C 0.07359 0.25853 0.31738 0.0
C773 C 0.08665 0.26964 0.33393 0.0
C774 C 0.09024 0.24022 0.34521 0.0
C775 C 0.06796 0.28953 0.30578 0.0
C776 C 0.03527 0.30253 0.31072 0.0
C777 C 0.09395 0.3059 0.28994 0.0
C778 C 0.13015 0.29466 0.28422 0.0
C779 C 0.16819 0.30289 0.29421 0.0
C780 C 0.20215 0.29217 0.28873 0.0
C781 C 0.19867 0.2735 0.27322 0.0
C782 C 0.16127 0.26563 0.26314 0.0
C783 C 0.12717 0.27625 0.26856 0.0
C784 C 0.05788 0.45443 0.2708 0.0
C785 C 0.04836 0.44837 0.25369 0.0
C786 C 0.06002 0.42212 0.28084 0.0
C787 C 0.05231 0.38303 0.27398 0.0
C788 C 0.04273 0.37707 0.25683 0.0
C789 C 0.04059 0.40944 0.24678 0.0
C790 C 0.05491 0.3488 0.28469 0.0
C791 C 0.0869 0.33509 0.27957 0.0
C792 C 0.02799 0.33148 0.30033 0.0
C793 C 0.991 0.34195 0.30588 0.0
C794 C 0.95463 0.33544 0.29528 0.0
C795 C 0.92016 0.34577 0.30048 0.0
C796 C 0.92142 0.36232 0.31632 0.0
C797 C 0.95711 0.36847 0.327 0.0
C798 C 0.99174 0.35827 0.32185 0.0
H799 H 0.89469 0.37028 0.32033 0.0
H800 H 0.22502 0.26525 0.269 0.0
loop_
_geom_bond_atom_site_label_1
_geom_bond_atom_site_label_2
_geom_bond_distance
_geom_bond_site_symmetry_2
_ccdc_geom_bond_type
O0 Cd1 2.223 . S
O0 C8 1.315 . S
Cd1 O0 2.223 . S
Cd1 O4 2.297 . S
Cd1 O5 2.439 . S
Cd1 O11 2.240 . S
Cd2 O3 2.240 . S
Cd2 O10 2.223 1_545 S
Cd2 O12 2.297 1_545 S
Cd2 O13 2.439 1_545 S
O3 Cd2 2.240 . S
O3 C8 1.279 . S
O4 Cd1 2.297 . S
O4 C6 1.247 . S
O5 Cd1 2.439 . S
O5 C6 1.208 . S
C6 O4 1.247 . S
C6 O5 1.208 . S
C7 O12 1.247 . S
C7 O13 1.208 . S
C8 O0 1.315 . S
C8 O3 1.279 . S
C9 O10 1.315 . S
C9 O11 1.279 1_565 S
O10 Cd2 2.223 1_565 S
O10 C9 1.315 . S
O11 Cd1 2.240 . S
O11 C9 1.279 1_545 S
O12 Cd2 2.297 1_565 S
O12 C7 1.247 . S
O13 Cd2 2.439 1_565 S
O13 C7 1.208 . S
O14 Cd15 2.223 . S
O14 C22 1.315 1_455 S
Cd15 O14 2.223 . S
Cd15 O18 2.297 . S
Cd15 O19 2.439 . S
Cd15 O25 2.240 . S
Cd16 O17 2.237 . S
Cd16 O24 2.223 1_655 S
Cd16 O26 2.300 1_645 S
Cd16 O27 2.439 1_655 S
O17 Cd16 2.237 . S
O17 C22 1.279 . S
O18 Cd15 2.297 . S
O18 C20 1.247 . S
O19 Cd15 2.439 . S
O19 C20 1.208 . S
C20 O18 1.247 . S
C20 O19 1.208 . S
C21 O26 1.247 . S
C21 O27 1.208 1_565 S
C22 O14 1.315 1_655 S
C22 O17 1.279 . S
C23 O24 1.315 . S
C23 O25 1.279 . S
O24 Cd16 2.223 1_455 S
O24 C23 1.315 . S
O25 Cd15 2.240 . S
O25 C23 1.279 . S
O26 Cd16 2.300 1_465 S
O26 C21 1.247 . S
O27 Cd16 2.439 1_455 S
O27 C21 1.208 1_545 S
O28 Cd29 2.223 1_655 S
O28 C36 1.307 1_565 S
Cd29 O28 2.223 1_455 S
Cd29 O32 2.297 1_455 S
Cd29 O33 2.447 . S
Cd29 O39 2.240 1_565 S
Cd30 O31 2.240 . S
Cd30 O38 2.223 . S
Cd30 O40 2.297 . S
Cd30 O41 2.439 . S
O31 Cd30 2.240 . S
O31 C36 1.277 1_455 S
O32 Cd29 2.297 1_655 S
O32 C34 1.247 . S
O33 Cd29 2.447 . S
O33 C34 1.199 1_455 S
C34 O32 1.247 . S
C34 O33 1.199 1_655 S
C35 O40 1.247 . S
C35 O41 1.208 . S
C36 O28 1.307 1_545 S
C36 O31 1.277 1_655 S
C37 O38 1.315 . S
C37 O39 1.279 . S
O38 Cd30 2.223 . S
O38 C37 1.315 . S
O39 Cd29 2.240 1_545 S
O39 C37 1.279 . S
O40 Cd30 2.297 . S
O40 C35 1.247 . S
O41 Cd30 2.439 . S
O41 C35 1.208 . S
C42 C43 1.443 . S
C42 N46 1.376 . S
C42 C80 1.389 . S
C43 C42 1.443 . S
C43 C44 1.340 . S
C43 H83 0.951 . S
C44 C43 1.340 . S
C44 C45 1.439 . S
C44 H84 0.950 . S
C45 C44 1.439 . S
C45 N46 1.374 . S
C45 C79 1.395 . S
N46 C42 1.376 . S
N46 C45 1.374 . S
N46 Co47 2.008 . S
Co47 N46 2.008 . S
Co47 N48 1.995 . S
Co47 N53 2.008 1_455 S
Co47 N58 1.995 1_455 S
Co47 N63 2.282 . S
Co47 N69 2.282 . S
N48 Co47 1.995 . S
N48 C49 1.376 . S
N48 C52 1.383 . S
C49 N48 1.376 . S
C49 C50 1.446 . S
C49 C79 1.391 . S
C50 C49 1.446 . S
C50 C51 1.339 . S
C50 H85 0.949 . S
C51 C50 1.339 . S
C51 C52 1.439 . S
C51 H86 0.950 . S
C52 N48 1.383 . S
C52 C51 1.439 . S
C52 C81 1.392 . S
N53 Co47 2.008 1_655 S
N53 C54 1.376 . S
N53 C57 1.374 . S
C54 N53 1.376 . S
C54 C55 1.443 . S
C54 C81 1.389 1_655 S
C55 C54 1.443 . S
C55 C56 1.340 . S
C55 H87 0.951 . S
C56 C55 1.340 . S
C56 C57 1.439 . S
C56 H88 0.950 . S
C57 N53 1.374 . S
C57 C56 1.439 . S
C57 C82 1.395 . S
N58 Co47 1.995 1_655 S
N58 C59 1.376 . S
N58 C62 1.383 . S
C59 N58 1.376 . S
C59 C60 1.446 . S
C59 C82 1.391 . S
C60 C59 1.446 . S
C60 C61 1.339 . S
C60 H89 0.949 . S
C61 C60 1.339 . S
C61 C62 1.439 . S
C61 H90 0.950 . S
C62 N58 1.383 . S
C62 C61 1.439 . S
C62 C80 1.392 1_655 S
N63 Co47 2.282 . S
N63 C66 1.332 . S
N63 C68 1.332 . S
C64 C65 1.386 . S
C64 C67 1.388 . S
C65 C64 1.386 . S
C65 C66 1.382 . S
C65 H91 0.950 1_455 S
C66 N63 1.332 . S
C66 C65 1.382 . S
C66 H77 0.952 1_455 S
C67 C64 1.388 . S
C67 C68 1.382 . S
C67 H92 0.950 . S
C68 N63 1.332 . S
C68 C67 1.382 . S
C68 H78 0.948 . S
N69 Co47 2.282 . S
N69 C73 1.332 . S
N69 C74 1.332 1_455 S
C70 C71 1.388 1_655 S
C70 C74 1.382 . S
C70 H93 0.950 . S
C71 C70 1.388 1_455 S
C71 C72 1.386 . S
C72 C71 1.386 . S
C72 C73 1.382 . S
C72 H94 0.950 . S
C73 N69 1.332 . S
C73 C72 1.382 . S
C73 H75 0.952 . S
C74 N69 1.332 1_655 S
C74 C70 1.382 . S
C74 H76 0.948 . S
H75 C73 0.952 . S
H76 C74 0.948 . S
H77 C66 0.952 1_655 S
H78 C68 0.948 . S
C79 C45 1.395 . S
C79 C49 1.391 . S
C80 C42 1.389 . S
C80 C62 1.392 1_455 S
C81 C52 1.392 . S
C81 C54 1.389 1_455 S
C82 C57 1.395 . S
C82 C59 1.391 . S
H83 C43 0.951 . S
H84 C44 0.950 . S
H85 C50 0.949 . S
H86 C51 0.950 . S
H87 C55 0.951 . S
H88 C56 0.950 . S
H89 C60 0.949 . S
H90 C61 0.950 . S
H91 C65 0.950 1_655 S
H92 C67 0.950 . S
H93 C70 0.950 . S
H94 C72 0.950 . S
C95 C96 1.443 1_545 S
C95 N99 1.376 . S
C95 C133 1.389 . S
C96 C95 1.443 1_565 S
C96 C97 1.340 . S
C96 H136 0.951 . S
C97 C96 1.340 . S
C97 C98 1.439 . S
C97 H137 0.950 . S
C98 C97 1.439 . S
C98 N99 1.374 1_565 S
C98 C132 1.395 . S
N99 C95 1.376 . S
N99 C98 1.374 1_545 S
N99 Co100 2.008 . S
Co100 N99 2.008 . S
Co100 N101 1.995 . S
Co100 N106 2.008 . S
Co100 N111 1.995 . S
Co100 N116 2.282 . S
Co100 N122 2.282 . S
N101 Co100 1.995 . S
N101 C102 1.376 1_545 S
N101 C105 1.383 . S
C102 N101 1.376 1_565 S
C102 C103 1.446 . S
C102 C132 1.391 . S
C103 C102 1.446 . S
C103 C104 1.339 . S
C103 H138 0.949 . S
C104 C103 1.339 . S
C104 C105 1.439 1_565 S
C104 H139 0.950 . S
C105 N101 1.383 . S
C105 C104 1.439 1_545 S
C105 C134 1.392 . S
N106 Co100 2.008 . S
N106 C107 1.376 . S
N106 C110 1.374 . S
C107 N106 1.376 . S
C107 C108 1.443 . S
C107 C134 1.389 . S
C108 C107 1.443 . S
C108 C109 1.340 . S
C108 H140 0.951 . S
C109 C108 1.340 . S
C109 C110 1.439 . S
C109 H141 0.950 . S
C110 N106 1.374 . S
C110 C109 1.439 . S
C110 C135 1.395 . S
N111 Co100 1.995 . S
N111 C112 1.376 . S
N111 C115 1.383 . S
C112 N111 1.376 . S
C112 C113 1.446 . S
C112 C135 1.391 . S
C113 C112 1.446 . S
C113 C114 1.339 . S
C113 H142 0.949 . S
C114 C113 1.339 . S
C114 C115 1.439 . S
C114 H143 0.950 . S
C115 N111 1.383 . S
C115 C114 1.439 . S
C115 C133 1.392 . S
N116 Co100 2.282 . S
N116 C119 1.332 . S
N116 C121 1.332 . S
C117 C118 1.386 . S
C117 C120 1.388 . S
C118 C117 1.386 . S
C118 C119 1.382 . S
C118 H144 0.950 . S
C119 N116 1.332 . S
C119 C118 1.382 . S
C119 H130 0.952 . S
C120 C117 1.388 . S
C120 C121 1.382 . S
C120 H145 0.950 1_545 S
C121 N116 1.332 . S
C121 C120 1.382 . S
C121 H131 0.948 1_545 S
N122 Co100 2.282 . S
N122 C126 1.332 . S
N122 C127 1.332 . S
C123 C124 1.388 . S
C123 C127 1.382 . S
C123 H146 0.950 . S
C124 C123 1.388 . S
C124 C125 1.386 . S
C125 C124 1.386 . S
C125 C126 1.382 . S
C125 H147 0.950 . S
C126 N122 1.332 . S
C126 C125 1.382 . S
C126 H128 0.952 . S
C127 N122 1.332 . S
C127 C123 1.382 . S
C127 H129 0.948 . S
H128 C126 0.952 . S
H129 C127 0.948 . S
H130 C119 0.952 . S
H131 C121 0.948 1_565 S
C132 C98 1.395 . S
C132 C102 1.391 . S
C133 C95 1.389 . S
C133 C115 1.392 . S
C134 C105 1.392 . S
C134 C107 1.389 . S
C135 C110 1.395 . S
C135 C112 1.391 . S
H136 C96 0.951 . S
H137 C97 0.950 . S
H138 C103 0.949 . S
H139 C104 0.950 . S
H140 C108 0.951 . S
H141 C109 0.950 . S
H142 C113 0.949 . S
H143 C114 0.950 . S
H144 C118 0.950 . S
H145 C120 0.950 1_565 S
H146 C123 0.950 . S
H147 C125 0.950 . S
C148 C149 1.443 . S
C148 N152 1.376 . S
C148 C186 1.389 . S
C149 C148 1.443 . S
C149 C150 1.340 . S
C149 H189 0.951 . S
C150 C149 1.340 . S
C150 C151 1.439 . S
C150 H190 0.950 . S
C151 C150 1.439 . S
C151 N152 1.374 . S
C151 C185 1.395 . S
N152 C148 1.376 . S
N152 C151 1.374 . S
N152 Co153 2.008 . S
Co153 N152 2.008 . S
Co153 N154 1.995 . S
Co153 N159 2.008 . S
Co153 N164 1.995 . S
Co153 N169 2.282 . S
Co153 N175 2.282 . S
N154 Co153 1.995 . S
N154 C155 1.376 . S
N154 C158 1.383 . S
C155 N154 1.376 . S
C155 C156 1.446 . S
C155 C185 1.391 . S
C156 C155 1.446 . S
C156 C157 1.339 . S
C156 H191 0.949 . S
C157 C156 1.339 . S
C157 C158 1.439 . S
C157 H192 0.950 . S
C158 N154 1.383 . S
C158 C157 1.439 . S
C158 C187 1.392 . S
N159 Co153 2.008 . S
N159 C160 1.376 . S
N159 C163 1.374 . S
C160 N159 1.376 . S
C160 C161 1.443 . S
C160 C187 1.389 . S
C161 C160 1.443 . S
C161 C162 1.340 . S
C161 H193 0.951 . S
C162 C161 1.340 . S
C162 C163 1.439 . S
C162 H194 0.950 . S
C163 N159 1.374 . S
C163 C162 1.439 . S
C163 C188 1.395 . S
N164 Co153 1.995 . S
N164 C165 1.376 . S
N164 C168 1.383 . S
C165 N164 1.376 . S
C165 C166 1.446 . S
C165 C188 1.391 . S
C166 C165 1.446 . S
C166 C167 1.339 . S
C166 H195 0.949 . S
C167 C166 1.339 . S
C167 C168 1.439 . S
C167 H196 0.950 . S
C168 N164 1.383 . S
C168 C167 1.439 . S
C168 C186 1.392 . S
N169 Co153 2.282 . S
N169 C172 1.332 . S
N169 C174 1.332 . S
C170 C171 1.386 . S
C170 C173 1.388 . S
C171 C170 1.386 . S
C171 C172 1.382 . S
C171 H197 0.950 . S
C172 N169 1.332 . S
C172 C171 1.382 . S
C172 H183 0.952 . S
C173 C170 1.388 . S
C173 C174 1.382 . S
C173 H198 0.950 . S
C174 N169 1.332 . S
C174 C173 1.382 . S
C174 H184 0.948 . S
N175 Co153 2.282 . S
N175 C179 1.332 . S
N175 C180 1.332 . S
C176 C177 1.388 . S
C176 C180 1.382 . S
C176 H199 0.950 . S
C177 C176 1.388 . S
C177 C178 1.386 . S
C178 C177 1.386 . S
C178 C179 1.382 . S
C178 H200 0.950 . S
C179 N175 1.332 . S
C179 C178 1.382 . S
C179 H181 0.952 . S
C180 N175 1.332 . S
C180 C176 1.382 . S
C180 H182 0.948 . S
H181 C179 0.952 . S
H182 C180 0.948 . S
H183 C172 0.952 . S
H184 C174 0.948 . S
C185 C151 1.395 . S
C185 C155 1.391 . S
C186 C148 1.389 . S
C186 C168 1.392 . S
C187 C158 1.392 . S
C187 C160 1.389 . S
C188 C163 1.395 . S
C188 C165 1.391 . S
H189 C149 0.951 . S
H190 C150 0.950 . S
H191 C156 0.949 . S
H192 C157 0.950 . S
H193 C161 0.951 . S
H194 C162 0.950 . S
H195 C166 0.949 . S
H196 C167 0.950 . S
H197 C171 0.950 . S
H198 C173 0.950 . S
H199 C176 0.950 . S
H200 C178 0.950 . S
H201 C219 0.951 1_655 S
H202 C221 0.951 1_655 S
H203 C223 0.950 . S
H204 C224 0.950 . S
H205 C226 0.950 . S
H206 C229 0.950 . S
H207 C230 0.950 . S
H208 C232 0.950 . S
H209 C233 0.950 . S
H210 C234 0.951 . S
H211 C236 0.951 . S
H212 C238 0.950 1_655 S
H213 C239 0.950 1_655 S
H214 C241 0.950 1_655 S
H215 C244 0.950 . S
H216 C245 0.950 . S
H217 C247 0.950 . S
H218 C248 0.950 . S
C219 H201 0.951 1_455 S
C219 C220 1.366 . S
C219 C221 1.388 . S
C220 C219 1.366 . S
C220 C224 1.385 . S
C221 H202 0.951 1_455 S
C221 C219 1.388 . S
C221 C222 1.366 . S
C222 C221 1.366 . S
C222 C223 1.414 . S
C222 C225 1.499 . S
C223 H203 0.950 . S
C223 C222 1.414 . S
C223 C224 1.374 . S
C224 H204 0.950 . S
C224 C220 1.385 . S
C224 C223 1.374 . S
C225 C222 1.499 . S
C225 C226 1.373 . S
C225 C227 1.389 . S
C226 H205 0.950 . S
C226 C225 1.373 . S
C226 C242 1.377 . S
C227 C225 1.389 . S
C227 C228 1.524 1_455 S
C227 C241 1.377 . S
C228 C227 1.524 1_655 S
C228 C229 1.397 1_655 S
C228 C233 1.363 . S
C229 H206 0.950 . S
C229 C228 1.397 1_455 S
C229 C230 1.334 1_455 S
C230 H207 0.950 . S
C230 C229 1.334 1_655 S
C230 C231 1.287 . S
C231 C230 1.287 . S
C231 C232 1.524 . S
C231 H250 0.913 . S
C232 H208 0.950 . S
C232 C231 1.524 . S
C232 C233 1.415 . S
C233 H209 0.950 . S
C233 C228 1.363 . S
C233 C232 1.415 . S
C234 H210 0.951 . S
C234 C235 1.366 . S
C234 C236 1.388 . S
C235 C234 1.366 . S
C235 C239 1.385 . S
C236 H211 0.951 . S
C236 C234 1.388 . S
C236 C237 1.366 . S
C237 C236 1.366 . S
C237 C238 1.414 . S
C237 C240 1.499 . S
C238 H212 0.950 1_455 S
C238 C237 1.414 . S
C238 C239 1.374 . S
C239 H213 0.950 1_455 S
C239 C235 1.385 . S
C239 C238 1.374 . S
C240 C237 1.499 . S
C240 C241 1.373 . S
C240 C242 1.389 . S
C241 H214 0.950 1_455 S
C241 C227 1.377 . S
C241 C240 1.373 . S
C242 C226 1.377 . S
C242 C240 1.389 . S
C242 C243 1.524 . S
C243 C242 1.524 . S
C243 C244 1.397 . S
C243 C248 1.363 . S
C244 H215 0.950 . S
C244 C243 1.397 . S
C244 C245 1.334 . S
C245 H216 0.950 . S
C245 C244 1.334 . S
C245 C246 1.287 . S
C246 C245 1.287 . S
C246 C247 1.524 . S
C246 H249 0.999 . S
C247 H217 0.950 . S
C247 C246 1.524 . S
C247 C248 1.415 . S
C248 H218 0.950 . S
C248 C243 1.363 . S
C248 C247 1.415 . S
H249 C246 0.999 . S
H250 C231 0.913 . S
H251 C269 0.951 . S
H252 C271 0.951 . S
H253 C273 0.950 . S
H254 C274 0.950 . S
H255 C276 0.950 . S
H256 C279 0.950 . S
H257 C280 0.950 . S
H258 C282 0.950 . S
H259 C283 0.950 . S
H260 C284 0.951 . S
H261 C286 0.951 . S
H262 C288 0.950 . S
H263 C289 0.950 . S
H264 C291 0.950 . S
H265 C294 0.950 1_565 S
H266 C295 0.950 . S
H267 C297 0.950 . S
H268 C298 0.950 . S
C269 H251 0.951 . S
C269 C270 1.366 . S
C269 C271 1.388 . S
C270 C269 1.366 . S
C270 C274 1.385 . S
C271 H252 0.951 . S
C271 C269 1.388 . S
C271 C272 1.366 . S
C272 C271 1.366 . S
C272 C273 1.414 . S
C272 C275 1.499 . S
C273 H253 0.950 . S
C273 C272 1.414 . S
C273 C274 1.374 . S
C274 H254 0.950 . S
C274 C270 1.385 . S
C274 C273 1.374 . S
C275 C272 1.499 . S
C275 C276 1.373 . S
C275 C277 1.389 . S
C276 H255 0.950 . S
C276 C275 1.373 . S
C276 C292 1.377 . S
C277 C275 1.389 . S
C277 C278 1.524 . S
C277 C291 1.377 . S
C278 C277 1.524 . S
C278 C279 1.397 . S
C278 C283 1.363 . S
C279 H256 0.950 . S
C279 C278 1.397 . S
C279 C280 1.334 . S
C280 H257 0.950 . S
C280 C279 1.334 . S
C280 C281 1.287 . S
C281 C280 1.287 . S
C281 C282 1.524 . S
C281 H300 0.913 . S
C282 H258 0.950 . S
C282 C281 1.524 . S
C282 C283 1.415 . S
C283 H259 0.950 . S
C283 C278 1.363 . S
C283 C282 1.415 . S
C284 H260 0.951 . S
C284 C285 1.366 . S
C284 C286 1.388 . S
C285 C284 1.366 . S
C285 C289 1.385 . S
C286 H261 0.951 . S
C286 C284 1.388 . S
C286 C287 1.366 . S
C287 C286 1.366 . S
C287 C288 1.414 . S
C287 C290 1.499 . S
C288 H262 0.950 . S
C288 C287 1.414 . S
C288 C289 1.374 . S
C289 H263 0.950 . S
C289 C285 1.385 . S
C289 C288 1.374 . S
C290 C287 1.499 . S
C290 C291 1.373 . S
C290 C292 1.389 . S
C291 H264 0.950 . S
C291 C277 1.377 . S
C291 C290 1.373 . S
C292 C276 1.377 . S
C292 C290 1.389 . S
C292 C293 1.524 . S
C293 C292 1.524 . S
C293 C294 1.397 . S
C293 C298 1.363 . S
C294 H265 0.950 1_545 S
C294 C293 1.397 . S
C294 C295 1.334 1_545 S
C295 H266 0.950 . S
C295 C294 1.334 1_565 S
C295 C296 1.287 1_565 S
C296 C295 1.287 1_545 S
C296 C297 1.524 . S
C296 H299 0.999 . S
C297 H267 0.950 . S
C297 C296 1.524 . S
C297 C298 1.415 . S
C298 H268 0.950 . S
C298 C293 1.363 . S
C298 C297 1.415 . S
H299 C296 0.999 . S
H300 C281 0.913 . S
H301 C319 0.951 . S
H302 C321 0.951 . S
H303 C323 0.950 . S
H304 C324 0.950 . S
H305 C326 0.950 . S
H306 C329 0.950 . S
H307 C330 0.950 1_455 S
H308 C332 0.950 . S
H309 C333 0.950 . S
H310 C334 0.951 . S
H311 C336 0.951 . S
H312 C338 0.950 . S
H313 C339 0.950 . S
H314 C341 0.950 . S
H315 C344 0.950 . S
H316 C345 0.950 . S
H317 C347 0.950 . S
H318 C348 0.950 . S
C319 H301 0.951 . S
C319 C320 1.366 . S
C319 C321 1.388 . S
C320 C319 1.366 . S
C320 C324 1.385 . S
C321 H302 0.951 . S
C321 C319 1.388 . S
C321 C322 1.366 . S
C322 C321 1.366 . S
C322 C323 1.414 . S
C322 C325 1.499 . S
C323 H303 0.950 . S
C323 C322 1.414 . S
C323 C324 1.374 . S
C324 H304 0.950 . S
C324 C320 1.385 . S
C324 C323 1.374 . S
C325 C322 1.499 . S
C325 C326 1.373 . S
C325 C327 1.389 . S
C326 H305 0.950 . S
C326 C325 1.373 . S
C326 C342 1.377 . S
C327 C325 1.389 . S
C327 C328 1.524 . S
C327 C341 1.377 . S
C328 C327 1.524 . S
C328 C329 1.397 . S
C328 C333 1.363 . S
C329 H306 0.950 . S
C329 C328 1.397 . S
C329 C330 1.334 . S
C330 H307 0.950 1_655 S
C330 C329 1.334 . S
C330 C331 1.287 . S
C331 C330 1.287 . S
C331 C332 1.524 . S
C331 H350 0.913 1_655 S
C332 H308 0.950 . S
C332 C331 1.524 . S
C332 C333 1.415 . S
C333 H309 0.950 . S
C333 C328 1.363 . S
C333 C332 1.415 . S
C334 H310 0.951 . S
C334 C335 1.366 . S
C334 C336 1.388 . S
C335 C334 1.366 . S
C335 C339 1.385 . S
C336 H311 0.951 . S
C336 C334 1.388 . S
C336 C337 1.366 . S
C337 C336 1.366 . S
C337 C338 1.414 . S
C337 C340 1.499 . S
C338 H312 0.950 . S
C338 C337 1.414 . S
C338 C339 1.374 . S
C339 H313 0.950 . S
C339 C335 1.385 . S
C339 C338 1.374 . S
C340 C337 1.499 . S
C340 C341 1.373 . S
C340 C342 1.389 . S
C341 H314 0.950 . S
C341 C327 1.377 . S
C341 C340 1.373 . S
C342 C326 1.377 . S
C342 C340 1.389 . S
C342 C343 1.524 . S
C343 C342 1.524 . S
C343 C344 1.397 . S
C343 C348 1.363 . S
C344 H315 0.950 . S
C344 C343 1.397 . S
C344 C345 1.334 . S
C345 H316 0.950 . S
C345 C344 1.334 . S
C345 C346 1.287 . S
C346 C345 1.287 . S
C346 C347 1.524 . S
C346 H349 0.999 . S
C347 H317 0.950 . S
C347 C346 1.524 . S
C347 C348 1.415 . S
C348 H318 0.950 . S
C348 C343 1.363 . S
C348 C347 1.415 . S
H349 C346 0.999 . S
H350 C331 0.913 1_455 S
H351 C369 0.951 . S
H352 C371 0.951 . S
H353 C373 0.950 1_655 S
H354 C374 0.950 1_655 S
H355 C376 0.950 . S
H356 C379 0.950 1_655 S
H357 C380 0.950 1_655 S
H358 C382 0.950 . S
H359 C383 0.950 . S
H360 C384 0.951 1_655 S
H361 C386 0.951 1_655 S
H362 C388 0.950 . S
H363 C389 0.950 . S
H364 C391 0.950 . S
H365 C394 0.950 . S
H366 C395 0.950 . S
H367 C397 0.950 1_655 S
H368 C398 0.950 1_655 S
C369 H351 0.951 . S
C369 C370 1.366 . S
C369 C371 1.388 . S
C370 C369 1.366 . S
C370 C374 1.385 . S
C371 H352 0.951 . S
C371 C369 1.388 . S
C371 C372 1.366 . S
C372 C371 1.366 . S
C372 C373 1.414 . S
C372 C375 1.499 . S
C373 H353 0.950 1_455 S
C373 C372 1.414 . S
C373 C374 1.374 . S
C374 H354 0.950 1_455 S
C374 C370 1.385 . S
C374 C373 1.374 . S
C375 C372 1.499 . S
C375 C376 1.373 . S
C375 C377 1.389 . S
C376 H355 0.950 . S
C376 C375 1.373 . S
C376 C392 1.377 . S
C377 C375 1.389 . S
C377 C378 1.524 . S
C377 C391 1.377 . S
C378 C377 1.524 . S
C378 C379 1.397 . S
C378 C383 1.363 . S
C379 H356 0.950 1_455 S
C379 C378 1.397 . S
C379 C380 1.334 . S
C380 H357 0.950 1_455 S
C380 C379 1.334 . S
C380 C381 1.287 . S
C381 C380 1.287 . S
C381 C382 1.524 . S
C381 H400 0.913 . S
C382 H358 0.950 . S
C382 C381 1.524 . S
C382 C383 1.415 . S
C383 H359 0.950 . S
C383 C378 1.363 . S
C383 C382 1.415 . S
C384 H360 0.951 1_455 S
C384 C385 1.366 . S
C384 C386 1.388 . S
C385 C384 1.366 . S
C385 C389 1.385 . S
C386 H361 0.951 1_455 S
C386 C384 1.388 . S
C386 C387 1.366 . S
C387 C386 1.366 . S
C387 C388 1.414 . S
C387 C390 1.499 . S
C388 H362 0.950 . S
C388 C387 1.414 . S
C388 C389 1.374 . S
C389 H363 0.950 . S
C389 C385 1.385 . S
C389 C388 1.374 . S
C390 C387 1.499 . S
C390 C391 1.373 . S
C390 C392 1.389 . S
C391 H364 0.950 . S
C391 C377 1.377 . S
C391 C390 1.373 . S
C392 C376 1.377 . S
C392 C390 1.389 . S
C392 C393 1.524 . S
C393 C392 1.524 . S
C393 C394 1.397 . S
C393 C398 1.363 . S
C394 H365 0.950 . S
C394 C393 1.397 . S
C394 C395 1.334 . S
C395 H366 0.950 . S
C395 C394 1.334 . S
C395 C396 1.287 . S
C396 C395 1.287 . S
C396 C397 1.524 . S
C396 H399 0.999 . S
C397 H367 0.950 1_455 S
C397 C396 1.524 . S
C397 C398 1.415 . S
C398 H368 0.950 1_455 S
C398 C393 1.363 . S
C398 C397 1.415 . S
H399 C396 0.999 . S
H400 C381 0.913 . S
H401 C419 0.951 . S
H402 C421 0.951 . S
H403 C423 0.950 . S
H404 C424 0.950 . S
H405 C426 0.950 . S
H406 C429 0.950 . S
H407 C430 0.950 . S
H408 C432 0.950 . S
H409 C433 0.950 . S
H410 C434 0.951 . S
H411 C436 0.951 . S
H412 C438 0.950 . S
H413 C439 0.950 . S
H414 C441 0.950 . S
H415 C444 0.950 . S
H416 C445 0.950 . S
H417 C447 0.950 . S
H418 C448 0.950 . S
C419 H401 0.951 . S
C419 C420 1.366 . S
C419 C421 1.388 . S
C420 C419 1.366 . S
C420 C424 1.385 . S
C421 H402 0.951 . S
C421 C419 1.388 . S
C421 C422 1.366 . S
C422 C421 1.366 . S
C422 C423 1.414 . S
C422 C425 1.499 . S
C423 H403 0.950 . S
C423 C422 1.414 . S
C423 C424 1.374 . S
C424 H404 0.950 . S
C424 C420 1.385 . S
C424 C423 1.374 . S
C425 C422 1.499 . S
C425 C426 1.373 . S
C425 C427 1.389 . S
C426 H405 0.950 . S
C426 C425 1.373 . S
C426 C442 1.377 . S
C427 C425 1.389 . S
C427 C428 1.524 1_545 S
C427 C441 1.377 . S
C428 C427 1.524 1_565 S
C428 C429 1.397 . S
C428 C433 1.363 . S
C429 H406 0.950 . S
C429 C428 1.397 . S
C429 C430 1.334 . S
C430 H407 0.950 . S
C430 C429 1.334 . S
C430 C431 1.287 . S
C431 C430 1.287 . S
C431 C432 1.524 . S
C431 H450 0.913 . S
C432 H408 0.950 . S
C432 C431 1.524 . S
C432 C433 1.415 . S
C433 H409 0.950 . S
C433 C428 1.363 . S
C433 C432 1.415 . S
C434 H410 0.951 . S
C434 C435 1.366 . S
C434 C436 1.388 . S
C435 C434 1.366 . S
C435 C439 1.385 . S
C436 H411 0.951 . S
C436 C434 1.388 . S
C436 C437 1.366 . S
C437 C436 1.366 . S
C437 C438 1.414 . S
C437 C440 1.499 . S
C438 H412 0.950 . S
C438 C437 1.414 . S
C438 C439 1.374 . S
C439 H413 0.950 . S
C439 C435 1.385 . S
C439 C438 1.374 . S
C440 C437 1.499 . S
C440 C441 1.373 . S
C440 C442 1.389 . S
C441 H414 0.950 . S
C441 C427 1.377 . S
C441 C440 1.373 . S
C442 C426 1.377 . S
C442 C440 1.389 . S
C442 C443 1.524 . S
C443 C442 1.524 . S
C443 C444 1.397 . S
C443 C448 1.363 . S
C444 H415 0.950 . S
C444 C443 1.397 . S
C444 C445 1.334 . S
C445 H416 0.950 . S
C445 C444 1.334 . S
C445 C446 1.287 . S
C446 C445 1.287 . S
C446 C447 1.524 . S
C446 H449 0.999 . S
C447 H417 0.950 . S
C447 C446 1.524 . S
C447 C448 1.415 . S
C448 H418 0.950 . S
C448 C443 1.363 . S
C448 C447 1.415 . S
H449 C446 0.999 . S
H450 C431 0.913 . S
H451 C469 0.951 . S
H452 C471 0.951 . S
H453 C473 0.950 . S
H454 C474 0.950 . S
H455 C476 0.950 . S
H456 C479 0.950 . S
H457 C480 0.950 . S
H458 C482 0.950 . S
H459 C483 0.950 . S
H460 C484 0.951 . S
H461 C486 0.951 . S
H462 C488 0.950 . S
H463 C489 0.950 . S
H464 C491 0.950 . S
H465 C494 0.950 . S
H466 C495 0.950 . S
H467 C497 0.950 . S
H468 C498 0.950 . S
C469 H451 0.951 . S
C469 C470 1.366 . S
C469 C471 1.388 . S
C470 C469 1.366 . S
C470 C474 1.385 . S
C471 H452 0.951 . S
C471 C469 1.388 . S
C471 C472 1.366 . S
C472 C471 1.366 . S
C472 C473 1.414 . S
C472 C475 1.499 . S
C473 H453 0.950 . S
C473 C472 1.414 . S
C473 C474 1.374 . S
C474 H454 0.950 . S
C474 C470 1.385 . S
C474 C473 1.374 . S
C475 C472 1.499 . S
C475 C476 1.373 . S
C475 C477 1.389 . S
C476 H455 0.950 . S
C476 C475 1.373 . S
C476 C492 1.377 . S
C477 C475 1.389 . S
C477 C478 1.524 . S
C477 C491 1.377 . S
C478 C477 1.524 . S
C478 C479 1.397 . S
C478 C483 1.363 . S
C479 H456 0.950 . S
C479 C478 1.397 . S
C479 C480 1.334 . S
C480 H457 0.950 . S
C480 C479 1.334 . S
C480 C481 1.287 . S
C481 C480 1.287 . S
C481 C482 1.524 . S
C481 H500 0.913 . S
C482 H458 0.950 . S
C482 C481 1.524 . S
C482 C483 1.415 . S
C483 H459 0.950 . S
C483 C478 1.363 . S
C483 C482 1.415 . S
C484 H460 0.951 . S
C484 C485 1.366 . S
C484 C486 1.388 . S
C485 C484 1.366 . S
C485 C489 1.385 . S
C486 H461 0.951 . S
C486 C484 1.388 . S
C486 C487 1.366 . S
C487 C486 1.366 . S
C487 C488 1.414 . S
C487 C490 1.499 . S
C488 H462 0.950 . S
C488 C487 1.414 . S
C488 C489 1.374 . S
C489 H463 0.950 . S
C489 C485 1.385 . S
C489 C488 1.374 . S
C490 C487 1.499 . S
C490 C491 1.373 . S
C490 C492 1.389 . S
C491 H464 0.950 . S
C491 C477 1.377 . S
C491 C490 1.373 . S
C492 C476 1.377 . S
C492 C490 1.389 . S
C492 C493 1.524 . S
C493 C492 1.524 . S
C493 C494 1.397 . S
C493 C498 1.363 . S
C494 H465 0.950 . S
C494 C493 1.397 . S
C494 C495 1.334 . S
C495 H466 0.950 . S
C495 C494 1.334 . S
C495 C496 1.287 . S
C496 C495 1.287 . S
C496 C497 1.524 . S
C496 H499 0.999 . S
C497 H467 0.950 . S
C497 C496 1.524 . S
C497 C498 1.415 . S
C498 H468 0.950 . S
C498 C493 1.363 . S
C498 C497 1.415 . S
H499 C496 0.999 . S
H500 C481 0.913 . S
H501 C519 0.951 1_565 S
H502 C521 0.951 1_565 S
H503 C523 0.950 . S
H504 C524 0.950 1_455 S
H505 C526 0.950 . S
H506 C529 0.950 . S
H507 C530 0.950 . S
H508 C532 0.950 . S
H509 C533 0.950 . S
H510 C534 0.951 . S
H511 C536 0.951 . S
H512 C538 0.950 1_565 S
H513 C539 0.950 1_565 S
H514 C541 0.935 1_565 S
H515 C544 0.950 . S
H516 C545 0.950 . S
H517 C547 0.950 . S
H518 C548 0.950 . S
C519 H501 0.951 1_545 S
C519 C520 1.366 . S
C519 C521 1.388 . S
C520 C519 1.366 . S
C520 C524 1.385 . S
C521 H502 0.951 1_545 S
C521 C519 1.388 . S
C521 C522 1.366 . S
C522 C521 1.366 . S
C522 C523 1.414 . S
C522 C525 1.499 . S
C523 H503 0.950 . S
C523 C522 1.414 . S
C523 C524 1.374 . S
C524 H504 0.950 1_655 S
C524 C520 1.385 . S
C524 C523 1.374 . S
C525 C522 1.499 . S
C525 C526 1.373 . S
C525 C527 1.389 . S
C526 H505 0.950 . S
C526 C525 1.373 . S
C526 C542 1.377 . S
C527 C525 1.389 . S
C527 C528 1.524 1_545 S
C527 C541 1.377 . S
C528 C527 1.524 1_565 S
C528 C529 1.397 1_565 S
C528 C533 1.363 . S
C529 H506 0.950 . S
C529 C528 1.397 1_545 S
C529 C530 1.334 1_545 S
C530 H507 0.950 . S
C530 C529 1.334 1_565 S
C530 C531 1.287 . S
C531 C530 1.287 . S
C531 C532 1.524 . S
C531 H550 0.913 . S
C532 H508 0.950 . S
C532 C531 1.524 . S
C532 C533 1.415 . S
C533 H509 0.950 . S
C533 C528 1.363 . S
C533 C532 1.415 . S
C534 H510 0.951 . S
C534 C535 1.366 . S
C534 C536 1.388 . S
C535 C534 1.366 . S
C535 C539 1.385 . S
C536 H511 0.951 . S
C536 C534 1.388 . S
C536 C537 1.366 . S
C537 C536 1.366 . S
C537 C538 1.414 . S
C537 C540 1.499 . S
C538 H512 0.950 1_545 S
C538 C537 1.414 . S
C538 C539 1.374 . S
C539 H513 0.950 1_545 S
C539 C535 1.385 . S
C539 C538 1.374 . S
C540 C537 1.499 . S
C540 C541 1.373 . S
C540 C542 1.389 . S
C541 H514 0.935 1_545 S
C541 C527 1.377 . S
C541 C540 1.373 . S
C542 C526 1.377 . S
C542 C540 1.389 . S
C542 C543 1.524 . S
C543 C542 1.524 . S
C543 C544 1.397 . S
C543 C548 1.363 . S
C544 H515 0.950 . S
C544 C543 1.397 . S
C544 C545 1.334 . S
C545 H516 0.950 . S
C545 C544 1.334 . S
C545 C546 1.287 . S
C546 C545 1.287 . S
C546 C547 1.524 . S
C546 H549 0.999 . S
C547 H517 0.950 . S
C547 C546 1.524 . S
C547 C548 1.415 . S
C548 H518 0.950 . S
C548 C543 1.363 . S
C548 C547 1.415 . S
H549 C546 0.999 . S
H550 C531 0.913 . S
H551 C569 0.951 . S
H552 C571 0.951 . S
H553 C573 0.950 . S
H554 C574 0.950 . S
H555 C576 0.950 . S
H556 C579 0.950 . S
H557 C580 0.950 . S
H558 C582 0.950 . S
H559 C583 0.950 . S
H560 C584 0.951 . S
H561 C586 0.951 . S
H562 C588 0.950 . S
H563 C589 0.950 . S
H564 C591 0.950 . S
H565 C594 0.950 . S
H566 C595 0.950 . S
H567 C597 0.950 . S
H568 C598 0.950 . S
C569 H551 0.951 . S
C569 C570 1.366 1_556 S
C569 C571 1.388 . S
C570 C569 1.366 1_554 S
C570 C574 1.385 . S
C571 H552 0.951 . S
C571 C569 1.388 . S
C571 C572 1.366 . S
C572 C571 1.366 . S
C572 C573 1.414 1_556 S
C572 C575 1.499 . S
C573 H553 0.950 . S
C573 C572 1.414 1_554 S
C573 C574 1.374 . S
C574 H554 0.950 . S
C574 C570 1.385 . S
C574 C573 1.374 . S
C575 C572 1.499 . S
C575 C576 1.373 . S
C575 C577 1.389 . S
C576 H555 0.950 . S
C576 C575 1.373 . S
C576 C592 1.377 . S
C577 C575 1.389 . S
C577 C578 1.524 . S
C577 C591 1.377 . S
C578 C577 1.524 . S
C578 C579 1.397 . S
C578 C583 1.363 . S
C579 H556 0.950 . S
C579 C578 1.397 . S
C579 C580 1.334 . S
C580 H557 0.950 . S
C580 C579 1.334 . S
C580 C581 1.287 . S
C581 C580 1.287 . S
C581 C582 1.524 . S
C581 H600 0.913 . S
C582 H558 0.950 . S
C582 C581 1.524 . S
C582 C583 1.415 . S
C583 H559 0.950 . S
C583 C578 1.363 . S
C583 C582 1.415 . S
C584 H560 0.951 . S
C584 C585 1.366 . S
C584 C586 1.388 . S
C585 C584 1.366 . S
C585 C589 1.385 . S
C586 H561 0.951 . S
C586 C584 1.388 . S
C586 C587 1.366 . S
C587 C586 1.366 . S
C587 C588 1.414 . S
C587 C590 1.499 . S
C588 H562 0.950 . S
C588 C587 1.414 . S
C588 C589 1.374 . S
C589 H563 0.950 . S
C589 C585 1.385 . S
C589 C588 1.374 . S
C590 C587 1.499 . S
C590 C591 1.373 . S
C590 C592 1.389 . S
C591 H564 0.950 . S
C591 C577 1.377 . S
C591 C590 1.373 . S
C592 C576 1.377 . S
C592 C590 1.389 . S
C592 C593 1.524 . S
C593 C592 1.524 . S
C593 C594 1.397 . S
C593 C598 1.363 . S
C594 H565 0.950 . S
C594 C593 1.397 . S
C594 C595 1.334 . S
C595 H566 0.950 . S
C595 C594 1.334 . S
C595 C596 1.287 . S
C596 C595 1.287 . S
C596 C597 1.524 . S
C596 H599 0.999 . S
C597 H567 0.950 . S
C597 C596 1.524 . S
C597 C598 1.415 . S
C598 H568 0.950 . S
C598 C593 1.363 . S
C598 C597 1.415 . S
H599 C596 0.999 . S
H600 C581 0.913 . S
H601 C619 0.951 . S
H602 C621 0.951 . S
H603 C623 0.950 . S
H604 C624 0.950 . S
H605 C626 0.950 . S
H606 C629 0.950 . S
H607 C630 0.950 . S
H608 C632 0.950 . S
H609 C633 0.950 . S
H610 C634 0.951 . S
H611 C636 0.951 . S
H612 C638 0.950 . S
H613 C639 0.950 . S
H614 C641 0.950 1_655 S
H615 C644 0.950 . S
H616 C645 0.950 . S
H617 C647 0.950 . S
H618 C648 0.950 . S
C619 H601 0.951 . S
C619 C620 1.366 1_655 S
C619 C621 1.388 . S
C620 C619 1.366 1_455 S
C620 C624 1.385 . S
C621 H602 0.951 . S
C621 C619 1.388 . S
C621 C622 1.366 1_655 S
C622 C621 1.366 1_455 S
C622 C623 1.414 . S
C622 C625 1.499 . S
C623 H603 0.950 . S
C623 C622 1.414 . S
C623 C624 1.374 . S
C624 H604 0.950 . S
C624 C620 1.385 . S
C624 C623 1.374 . S
C625 C622 1.499 . S
C625 C626 1.373 . S
C625 C627 1.389 . S
C626 H605 0.950 . S
C626 C625 1.373 . S
C626 C642 1.377 . S
C627 C625 1.389 . S
C627 C628 1.524 1_455 S
C627 C641 1.377 . S
C628 C627 1.524 1_655 S
C628 C629 1.397 1_655 S
C628 C633 1.363 . S
C629 H606 0.950 . S
C629 C628 1.397 1_455 S
C629 C630 1.334 . S
C630 H607 0.950 . S
C630 C629 1.334 . S
C630 C631 1.287 1_455 S
C631 C630 1.287 1_655 S
C631 C632 1.524 . S
C631 H650 0.913 . S
C632 H608 0.950 . S
C632 C631 1.524 . S
C632 C633 1.415 . S
C633 H609 0.950 . S
C633 C628 1.363 . S
C633 C632 1.415 . S
C634 H610 0.951 . S
C634 C635 1.366 . S
C634 C636 1.388 . S
C635 C634 1.366 . S
C635 C639 1.385 1_455 S
C636 H611 0.951 . S
C636 C634 1.388 . S
C636 C637 1.366 . S
C637 C636 1.366 . S
C637 C638 1.414 1_455 S
C637 C640 1.499 . S
C638 H612 0.950 . S
C638 C637 1.414 1_655 S
C638 C639 1.374 . S
C639 H613 0.950 . S
C639 C635 1.385 1_655 S
C639 C638 1.374 . S
C640 C637 1.499 . S
C640 C641 1.373 . S
C640 C642 1.389 . S
C641 H614 0.950 1_455 S
C641 C627 1.377 . S
C641 C640 1.373 . S
C642 C626 1.377 . S
C642 C640 1.389 . S
C642 C643 1.524 . S
C643 C642 1.524 . S
C643 C644 1.397 . S
C643 C648 1.363 . S
C644 H615 0.950 . S
C644 C643 1.397 . S
C644 C645 1.334 . S
C645 H616 0.950 . S
C645 C644 1.334 . S
C645 C646 1.287 . S
C646 C645 1.287 . S
C646 C647 1.524 . S
C646 H649 0.999 . S
C647 H617 0.950 . S
C647 C646 1.524 . S
C647 C648 1.415 . S
C648 H618 0.950 . S
C648 C643 1.363 . S
C648 C647 1.415 . S
H649 C646 0.999 . S
H650 C631 0.913 . S
H651 C669 0.951 . S
H652 C671 0.951 . S
H653 C673 0.950 . S
H654 C674 0.950 . S
H655 C676 0.950 . S
H656 C679 0.950 . S
H657 C680 0.950 . S
H658 C682 0.950 . S
H659 C683 0.950 . S
H660 C684 0.951 . S
H661 C686 0.951 . S
H662 C688 0.950 . S
H663 C689 0.950 . S
H664 C691 0.950 . S
H665 C694 0.950 . S
H666 C695 0.950 . S
H667 C697 0.950 . S
H668 C698 0.950 . S
C669 H651 0.951 . S
C669 C670 1.366 . S
C669 C671 1.388 . S
C670 C669 1.366 . S
C670 C674 1.385 . S
C671 H652 0.951 . S
C671 C669 1.388 . S
C671 C672 1.366 . S
C672 C671 1.366 . S
C672 C673 1.414 . S
C672 C675 1.499 . S
C673 H653 0.950 . S
C673 C672 1.414 . S
C673 C674 1.374 . S
C674 H654 0.950 . S
C674 C670 1.385 . S
C674 C673 1.374 . S
C675 C672 1.499 . S
C675 C676 1.373 . S
C675 C677 1.389 . S
C676 H655 0.950 . S
C676 C675 1.373 . S
C676 C692 1.377 . S
C677 C675 1.389 . S
C677 C678 1.524 . S
C677 C691 1.377 . S
C678 C677 1.524 . S
C678 C679 1.397 . S
C678 C683 1.363 . S
C679 H656 0.950 . S
C679 C678 1.397 . S
C679 C680 1.334 . S
C680 H657 0.950 . S
C680 C679 1.334 . S
C680 C681 1.287 . S
C681 C680 1.287 . S
C681 C682 1.524 . S
C681 H700 0.913 . S
C682 H658 0.950 . S
C682 C681 1.524 . S
C682 C683 1.415 . S
C683 H659 0.950 . S
C683 C678 1.363 . S
C683 C682 1.415 . S
C684 H660 0.951 . S
C684 C685 1.366 . S
C684 C686 1.388 . S
C685 C684 1.366 . S
C685 C689 1.385 . S
C686 H661 0.951 . S
C686 C684 1.388 . S
C686 C687 1.366 . S
C687 C686 1.366 . S
C687 C688 1.414 . S
C687 C690 1.499 . S
C688 H662 0.950 . S
C688 C687 1.414 . S
C688 C689 1.374 . S
C689 H663 0.950 . S
C689 C685 1.385 . S
C689 C688 1.374 . S
C690 C687 1.499 . S
C690 C691 1.373 . S
C690 C692 1.389 . S
C691 H664 0.950 . S
C691 C677 1.377 . S
C691 C690 1.373 . S
C692 C676 1.377 . S
C692 C690 1.389 . S
C692 C693 1.524 . S
C693 C692 1.524 . S
C693 C694 1.397 1_545 S
C693 C698 1.363 . S
C694 H665 0.950 . S
C694 C693 1.397 1_565 S
C694 C695 1.334 . S
C695 H666 0.950 . S
C695 C694 1.334 . S
C695 C696 1.287 . S
C696 C695 1.287 . S
C696 C697 1.524 1_565 S
C696 H699 0.999 . S
C697 H667 0.950 . S
C697 C696 1.524 1_545 S
C697 C698 1.415 . S
C698 H668 0.950 . S
C698 C693 1.363 . S
C698 C697 1.415 . S
H699 C696 0.999 . S
H700 C681 0.913 . S
H701 C719 0.951 . S
H702 C721 0.951 . S
H703 C723 0.950 . S
H704 C724 0.950 . S
H705 C726 0.950 . S
H706 C729 0.915 1_554 S
H707 C730 0.917 1_554 S
H708 C732 0.950 . S
H709 C733 0.950 . S
H710 C734 0.951 . S
H711 C736 0.951 . S
H712 C738 0.950 . S
H713 C739 0.950 . S
H714 C741 0.950 . S
H715 C744 0.950 . S
H716 C745 0.950 . S
H717 C747 0.950 . S
H718 C748 0.950 . S
C719 H701 0.951 . S
C719 C720 1.366 1_556 S
C719 C721 1.388 . S
C720 C719 1.366 1_554 S
C720 C724 1.385 . S
C721 H702 0.951 . S
C721 C719 1.388 . S
C721 C722 1.366 . S
C722 C721 1.366 . S
C722 C723 1.414 1_556 S
C722 C725 1.499 . S
C723 H703 0.950 . S
C723 C722 1.414 1_554 S
C723 C724 1.374 . S
C724 H704 0.950 . S
C724 C720 1.385 . S
C724 C723 1.374 . S
C725 C722 1.499 . S
C725 C726 1.373 . S
C725 C727 1.389 . S
C726 H705 0.950 . S
C726 C725 1.373 . S
C726 C742 1.377 . S
C727 C725 1.389 . S
C727 C728 1.524 . S
C727 C741 1.377 . S
C728 C727 1.524 . S
C728 C729 1.397 . S
C728 C733 1.363 . S
C729 H706 0.915 1_556 S
C729 C728 1.397 . S
C729 C730 1.346 . S
C730 H707 0.917 1_556 S
C730 C729 1.346 . S
C730 C731 1.310 . S
C731 C730 1.310 . S
C731 C732 1.524 . S
C731 H750 0.913 . S
C732 H708 0.950 . S
C732 C731 1.524 . S
C732 C733 1.415 . S
C733 H709 0.950 . S
C733 C728 1.363 . S
C733 C732 1.415 . S
C734 H710 0.951 . S
C734 C735 1.366 . S
C734 C736 1.388 . S
C735 C734 1.366 . S
C735 C739 1.385 . S
C736 H711 0.951 . S
C736 C734 1.388 . S
C736 C737 1.366 . S
C737 C736 1.366 . S
C737 C738 1.414 . S
C737 C740 1.499 . S
C738 H712 0.950 . S
C738 C737 1.414 . S
C738 C739 1.374 . S
C739 H713 0.950 . S
C739 C735 1.385 . S
C739 C738 1.374 . S
C740 C737 1.499 . S
C740 C741 1.373 . S
C740 C742 1.389 . S
C741 H714 0.950 . S
C741 C727 1.377 . S
C741 C740 1.373 . S
C742 C726 1.377 . S
C742 C740 1.389 . S
C742 C743 1.524 . S
C743 C742 1.524 . S
C743 C744 1.397 . S
C743 C748 1.363 . S
C744 H715 0.950 . S
C744 C743 1.397 . S
C744 C745 1.334 . S
C745 H716 0.950 . S
C745 C744 1.334 . S
C745 C746 1.287 . S
C746 C745 1.287 . S
C746 C747 1.524 . S
C746 H749 0.999 . S
C747 H717 0.950 . S
C747 C746 1.524 . S
C747 C748 1.415 . S
C748 H718 0.950 . S
C748 C743 1.363 . S
C748 C747 1.415 . S
H749 C746 0.999 . S
H750 C731 0.913 . S
H751 C769 0.951 . S
H752 C771 0.951 . S
H753 C773 0.950 . S
H754 C774 0.950 . S
H755 C776 0.950 . S
H756 C779 0.950 . S
H757 C780 0.950 . S
H758 C782 0.950 . S
H759 C783 0.950 . S
H760 C784 0.951 . S
H761 C786 0.951 . S
H762 C788 0.950 . S
H763 C789 0.950 . S
H764 C791 0.950 . S
H765 C794 0.950 . S
H766 C795 0.950 . S
H767 C797 0.950 . S
H768 C798 0.950 . S
C769 H751 0.951 . S
C769 C770 1.366 . S
C769 C771 1.388 . S
C770 C769 1.366 . S
C770 C774 1.385 . S
C771 H752 0.951 . S
C771 C769 1.388 . S
C771 C772 1.366 . S
C772 C771 1.366 . S
C772 C773 1.414 . S
C772 C775 1.499 . S
C773 H753 0.950 . S
C773 C772 1.414 . S
C773 C774 1.374 . S
C774 H754 0.950 . S
C774 C770 1.385 . S
C774 C773 1.374 . S
C775 C772 1.499 . S
C775 C776 1.373 1_455 S
C775 C777 1.389 . S
C776 H755 0.950 . S
C776 C775 1.373 1_655 S
C776 C792 1.377 . S
C777 C775 1.389 . S
C777 C778 1.524 . S
C777 C791 1.377 . S
C778 C777 1.524 . S
C778 C779 1.397 . S
C778 C783 1.363 . S
C779 H756 0.950 . S
C779 C778 1.397 . S
C779 C780 1.334 . S
C780 H757 0.950 . S
C780 C779 1.334 . S
C780 C781 1.287 . S
C781 C780 1.287 . S
C781 C782 1.524 . S
C781 H800 0.913 . S
C782 H758 0.950 . S
C782 C781 1.524 . S
C782 C783 1.415 . S
C783 H759 0.950 . S
C783 C778 1.363 . S
C783 C782 1.415 . S
C784 H760 0.951 . S
C784 C785 1.366 . S
C784 C786 1.388 . S
C785 C784 1.366 . S
C785 C789 1.385 . S
C786 H761 0.951 . S
C786 C784 1.388 . S
C786 C787 1.366 . S
C787 C786 1.366 . S
C787 C788 1.414 . S
C787 C790 1.499 . S
C788 H762 0.950 . S
C788 C787 1.414 . S
C788 C789 1.374 . S
C789 H763 0.950 . S
C789 C785 1.385 . S
C789 C788 1.374 . S
C790 C787 1.499 . S
C790 C791 1.373 . S
C790 C792 1.389 1_455 S
C791 H764 0.950 . S
C791 C777 1.377 . S
C791 C790 1.373 . S
C792 C776 1.377 . S
C792 C790 1.389 1_655 S
C792 C793 1.524 . S
C793 C792 1.524 . S
C793 C794 1.397 . S
C793 C798 1.363 . S
C794 H765 0.950 . S
C794 C793 1.397 . S
C794 C795 1.334 . S
C795 H766 0.950 . S
C795 C794 1.334 . S
C795 C796 1.287 . S
C796 C795 1.287 . S
C796 C797 1.524 . S
C796 H799 0.999 . S
C797 H767 0.950 . S
C797 C796 1.524 . S
C797 C798 1.415 . S
C798 H768 0.950 . S
C798 C793 1.363 . S
C798 C797 1.415 . S
H799 C796 0.999 . S
H800 C781 0.913 . S
C235 C64 1.484 . S
C220 C6 1.463 . S
C270 C22 1.586 . S
C285 C134 1.609 . S
C320 C34 1.220 . S
C335 C186 1.240 . S
C370 C7 1.464 . S
C385 C80 1.485 . S
C435 C124 1.604 . S
C420 C23 1.582 . S
C470 C35 1.231 . S
C485 C170 1.248 . S
C535 C117 1.603 . S
C520 C36 1.599 . S
C570 C9 1.810 1_655 S
C585 C177 1.846 . S
C635 C71 1.482 . S
C620 C21 1.457 . S
C685 C133 1.608 . S
C670 C37 1.590 . S
C735 C187 1.875 . S
C720 C8 1.841 . S
C770 C20 1.459 . S
C785 C81 1.483 . S
