# Generated by pormake.
# Topology soc, (4,6)-cn, num edge types: 1
# Building blocks:
#     Node 0, Type 0, BuildingBlock: ESEHIV_clean_sbu_0, # of connection points: 4
#     Node 1, Type 0, BuildingBlock: ESEHIV_clean_sbu_0, # of connection points: 4
#     Node 2, Type 0, BuildingBlock: ESEHIV_clean_sbu_0, # of connection points: 4
#     Node 3, Type 0, BuildingBlock: ESEHIV_clean_sbu_0, # of connection points: 4
#     Node 4, Type 0, BuildingBlock: ESEHIV_clean_sbu_0, # of connection points: 4
#     Node 5, Type 0, BuildingBlock: ESEHIV_clean_sbu_0, # of connection points: 4
#     Node 6, Type 0, BuildingBlock: ESEHIV_clean_sbu_0, # of connection points: 4
#     Node 7, Type 0, BuildingBlock: ESEHIV_clean_sbu_0, # of connection points: 4
#     Node 8, Type 0, BuildingBlock: ESEHIV_clean_sbu_0, # of connection points: 4
#     Node 9, Type 0, BuildingBlock: ESEHIV_clean_sbu_0, # of connection points: 4
#     Node 10, Type 0, BuildingBlock: ESEHIV_clean_sbu_0, # of connection points: 4
#     Node 11, Type 0, BuildingBlock: ESEHIV_clean_sbu_0, # of connection points: 4
#     Node 12, Type 1, BuildingBlock: BETFAJ_clean_sbu_0, # of connection points: 6
#     Node 13, Type 1, BuildingBlock: BETFAJ_clean_sbu_0, # of connection points: 6
#     Node 14, Type 1, BuildingBlock: BETFAJ_clean_sbu_0, # of connection points: 6
#     Node 15, Type 1, BuildingBlock: BETFAJ_clean_sbu_0, # of connection points: 6
#     Node 16, Type 1, BuildingBlock: BETFAJ_clean_sbu_0, # of connection points: 6
#     Node 17, Type 1, BuildingBlock: BETFAJ_clean_sbu_0, # of connection points: 6
#     Node 18, Type 1, BuildingBlock: BETFAJ_clean_sbu_0, # of connection points: 6
#     Node 19, Type 1, BuildingBlock: BETFAJ_clean_sbu_0, # of connection points: 6
#     Edge 20, Type (0, 1), BuildingBlock: UVAHIK_clean_linker_0, # of connection points: 2
#     Edge 21, Type (0, 1), BuildingBlock: UVAHIK_clean_linker_0, # of connection points: 2
#     Edge 22, Type (0, 1), BuildingBlock: UVAHIK_clean_linker_0, # of connection points: 2
#     Edge 23, Type (0, 1), BuildingBlock: UVAHIK_clean_linker_0, # of connection points: 2
#     Edge 24, Type (0, 1), BuildingBlock: UVAHIK_clean_linker_0, # of connection points: 2
#     Edge 25, Type (0, 1), BuildingBlock: UVAHIK_clean_linker_0, # of connection points: 2
#     Edge 26, Type (0, 1), BuildingBlock: UVAHIK_clean_linker_0, # of connection points: 2
#     Edge 27, Type (0, 1), BuildingBlock: UVAHIK_clean_linker_0, # of connection points: 2
#     Edge 28, Type (0, 1), BuildingBlock: UVAHIK_clean_linker_0, # of connection points: 2
#     Edge 29, Type (0, 1), BuildingBlock: UVAHIK_clean_linker_0, # of connection points: 2
#     Edge 30, Type (0, 1), BuildingBlock: UVAHIK_clean_linker_0, # of connection points: 2
#     Edge 31, Type (0, 1), BuildingBlock: UVAHIK_clean_linker_0, # of connection points: 2
#     Edge 32, Type (0, 1), BuildingBlock: UVAHIK_clean_linker_0, # of connection points: 2
#     Edge 33, Type (0, 1), BuildingBlock: UVAHIK_clean_linker_0, # of connection points: 2
#     Edge 34, Type (0, 1), BuildingBlock: UVAHIK_clean_linker_0, # of connection points: 2
#     Edge 35, Type (0, 1), BuildingBlock: UVAHIK_clean_linker_0, # of connection points: 2
#     Edge 36, Type (0, 1), BuildingBlock: UVAHIK_clean_linker_0, # of connection points: 2
#     Edge 37, Type (0, 1), BuildingBlock: UVAHIK_clean_linker_0, # of connection points: 2
#     Edge 38, Type (0, 1), BuildingBlock: UVAHIK_clean_linker_0, # of connection points: 2
#     Edge 39, Type (0, 1), BuildingBlock: UVAHIK_clean_linker_0, # of connection points: 2
#     Edge 40, Type (0, 1), BuildingBlock: UVAHIK_clean_linker_0, # of connection points: 2
#     Edge 41, Type (0, 1), BuildingBlock: UVAHIK_clean_linker_0, # of connection points: 2
#     Edge 42, Type (0, 1), BuildingBlock: UVAHIK_clean_linker_0, # of connection points: 2
#     Edge 43, Type (0, 1), BuildingBlock: UVAHIK_clean_linker_0, # of connection points: 2
#     Edge 44, Type (0, 1), BuildingBlock: UVAHIK_clean_linker_0, # of connection points: 2
#     Edge 45, Type (0, 1), BuildingBlock: UVAHIK_clean_linker_0, # of connection points: 2
#     Edge 46, Type (0, 1), BuildingBlock: UVAHIK_clean_linker_0, # of connection points: 2
#     Edge 47, Type (0, 1), BuildingBlock: UVAHIK_clean_linker_0, # of connection points: 2
#     Edge 48, Type (0, 1), BuildingBlock: UVAHIK_clean_linker_0, # of connection points: 2
#     Edge 49, Type (0, 1), BuildingBlock: UVAHIK_clean_linker_0, # of connection points: 2
#     Edge 50, Type (0, 1), BuildingBlock: UVAHIK_clean_linker_0, # of connection points: 2
#     Edge 51, Type (0, 1), BuildingBlock: UVAHIK_clean_linker_0, # of connection points: 2
#     Edge 52, Type (0, 1), BuildingBlock: UVAHIK_clean_linker_0, # of connection points: 2
#     Edge 53, Type (0, 1), BuildingBlock: UVAHIK_clean_linker_0, # of connection points: 2
#     Edge 54, Type (0, 1), BuildingBlock: UVAHIK_clean_linker_0, # of connection points: 2
#     Edge 55, Type (0, 1), BuildingBlock: UVAHIK_clean_linker_0, # of connection points: 2
#     Edge 56, Type (0, 1), BuildingBlock: UVAHIK_clean_linker_0, # of connection points: 2
#     Edge 57, Type (0, 1), BuildingBlock: UVAHIK_clean_linker_0, # of connection points: 2
#     Edge 58, Type (0, 1), BuildingBlock: UVAHIK_clean_linker_0, # of connection points: 2
#     Edge 59, Type (0, 1), BuildingBlock: UVAHIK_clean_linker_0, # of connection points: 2
#     Edge 60, Type (0, 1), BuildingBlock: UVAHIK_clean_linker_0, # of connection points: 2
#     Edge 61, Type (0, 1), BuildingBlock: UVAHIK_clean_linker_0, # of connection points: 2
#     Edge 62, Type (0, 1), BuildingBlock: UVAHIK_clean_linker_0, # of connection points: 2
#     Edge 63, Type (0, 1), BuildingBlock: UVAHIK_clean_linker_0, # of connection points: 2
#     Edge 64, Type (0, 1), BuildingBlock: UVAHIK_clean_linker_0, # of connection points: 2
#     Edge 65, Type (0, 1), BuildingBlock: UVAHIK_clean_linker_0, # of connection points: 2
#     Edge 66, Type (0, 1), BuildingBlock: UVAHIK_clean_linker_0, # of connection points: 2
#     Edge 67, Type (0, 1), BuildingBlock: UVAHIK_clean_linker_0, # of connection points: 2
# Relax obj value: 0.162
# Max RMSD: 0.248
# Mean RMSD: 0.166
data_MOF--net-soc--node1-ESEHIV_clean_sbu_0--node2-BETFAJ_clean_sbu_0--edge1-UVAHIK_clean_linker_0
_symmetry_space_group_name_H-M    P1
_symmetry_Int_Tables_number       1
_symmetry_cell_setting            triclinic
loop_
_symmetry_equiv_pos_as_xyz
'x, y, z'
_cell_length_a     63.973543
_cell_length_b     62.609733
_cell_length_c     55.773794
_cell_angle_alpha  83.811294
_cell_angle_beta   84.53072
_cell_angle_gamma 73.440003
loop_
_atom_site_label
_atom_site_type_symbol
_atom_site_fract_x
_atom_site_fract_y
_atom_site_fract_z
_atom_type_partial_charge
Cu0 Cu 0.03752 0.02012 0.35525 0.0
N1 N 0.05345 0.03052 0.37531 0.0
N2 N 0.07599 0.04887 0.38578 0.0
C3 C 0.06479 0.04538 0.36797 0.0
C4 C 0.0713 0.03582 0.40525 0.0
C5 C 0.05744 0.0244 0.39868 0.0
O6 O 0.05798 0.99675 0.33769 0.0
C7 C 1.00485 0.04573 0.32377 0.0
O8 O 1.002 0.02645 0.31995 0.0
H9 H 0.06487 0.05338 0.34978 0.0
H10 H 0.05113 0.01217 0.40997 0.0
N11 N 1.01784 0.00672 0.37305 0.0
N12 N 0.99432 0.986 0.37977 0.0
C13 C 1.01066 0.99079 0.36503 0.0
C14 C 1.00584 0.01218 0.39377 0.0
C15 C 0.99134 0.9993 0.39805 0.0
C16 C 0.07541 0.99841 0.32556 0.0
O17 O 0.07899 0.01814 0.32098 0.0
H18 H 1.0169 0.98342 0.34819 0.0
H19 H 1.00688 0.02527 0.4044 0.0
O20 O 1.02042 0.04603 0.33625 0.0
H21 H 0.07795 0.0341 0.42272 0.0
H22 H 0.97884 1.00051 0.41275 0.0
Cu23 Cu 0.03928 0.0351 0.72831 0.0
N24 N 0.02763 0.0176 0.71119 0.0
N25 N 1.00841 0.99433 0.70465 0.0
C26 C 1.0141 0.00561 0.72109 0.0
C27 C 1.0189 0.9994 0.68356 0.0
C28 C 0.03072 0.01382 0.68765 0.0
O29 O 1.01513 0.05519 0.74607 0.0
C30 C 0.07672 1.00185 0.73441 0.0
O31 O 0.07583 0.00494 0.71081 0.0
H32 H 1.00882 0.00497 0.7401 0.0
H33 H 0.0409 0.02096 0.67445 0.0
N34 N 0.05319 0.0532 0.70795 0.0
N35 N 0.07585 0.07442 0.69735 0.0
C36 C 0.07068 0.05892 0.71369 0.0
C37 C 0.04699 0.06547 0.68718 0.0
C38 C 0.06097 0.07867 0.6806 0.0
C39 C 0.9985 0.06446 0.73394 0.0
O40 O 0.99886 0.0595 0.71159 0.0
H41 H 0.07871 0.05271 0.73031 0.0
H42 H 0.03284 0.06548 0.678 0.0
O43 O 0.06159 0.01425 0.74745 0.0
H44 H 1.01794 0.99332 0.66637 0.0
H45 H 0.05996 0.09077 0.66505 0.0
Cu46 Cu 0.34202 0.03568 0.072 0.0
N47 N 0.36164 0.01327 0.05535 0.0
N48 N 0.3741 0.98087 0.03845 0.0
C49 C 0.35931 0.99272 0.05439 0.0
C50 C 0.38625 0.99458 0.02897 0.0
C51 C 0.37846 0.01461 0.03939 0.0
O52 O 0.32509 0.02021 0.09523 0.0
C53 C 0.31865 0.07815 0.04972 0.0
O54 O 0.31839 0.08536 0.07103 0.0
H55 H 0.34601 0.98718 0.06398 0.0
H56 H 0.38388 0.02946 0.03465 0.0
N57 N 0.35702 0.04992 0.08932 0.0
N58 N 0.36374 0.06907 0.11791 0.0
C59 C 0.34912 0.0603 0.10954 0.0
C60 C 0.37739 0.05203 0.08477 0.0
C61 C 0.38158 0.06386 0.10233 0.0
C62 C 0.33634 0.00753 0.11167 0.0
O63 O 0.357 0.00701 0.1119 0.0
H64 H 0.33275 0.06176 0.11757 0.0
H65 H 0.38848 0.04546 0.06978 0.0
O66 O 0.32615 0.05727 0.04728 0.0
H67 H 0.39926 0.99078 0.01487 0.0
H68 H 0.39666 0.06813 0.10357 0.0
Cu69 Cu 0.0641 0.3026 0.08865 0.0
N70 N 0.0774 0.31957 0.06562 0.0
N71 N 0.09629 0.32763 0.03158 0.0
C72 C 0.08929 0.31169 0.04559 0.0
C73 C 0.0884 0.34634 0.04341 0.0
C74 C 0.07675 0.34132 0.06434 0.0
O75 O 0.085 0.28809 0.113 0.0
C76 C 0.04114 0.29433 0.05355 0.0
O77 O 0.03851 0.31598 0.04968 0.0
H78 H 0.09274 0.29447 0.04156 0.0
H79 H 0.0682 0.35283 0.07744 0.0
N80 N 0.03964 0.32035 0.10515 0.0
N81 N 1.00685 0.32908 0.1255 0.0
C82 C 1.021 0.31456 0.11127 0.0
C83 C 0.03736 0.33915 0.11595 0.0
C84 C 1.0171 0.34465 0.12841 0.0
C85 C 0.10551 0.28045 0.10818 0.0
O86 O 0.11303 0.27898 0.0855 0.0
H87 H 1.01843 0.29928 0.10637 0.0
H88 H 0.04984 0.34774 0.11568 0.0
O89 O 0.05268 0.28352 0.07076 0.0
H90 H 0.0905 0.36263 0.03727 0.0
H91 H 1.01071 0.35875 0.1392 0.0
Cu92 Cu 0.79546 0.99159 0.01225 0.0
N93 N 0.81236 0.00879 0.99552 0.0
N94 N 0.81854 0.03932 0.97519 0.0
C95 C 0.80336 0.02928 0.98507 0.0
C96 C 0.838 0.0244 0.97946 0.0
C97 C 0.83413 0.00555 0.99222 0.0
O98 O 0.77776 0.01107 0.03594 0.0
C99 C 0.79068 0.97492 0.97006 0.0
O100 O 0.81133 0.97484 0.96731 0.0
H101 H 0.78588 0.03666 0.98487 0.0
H102 H 0.84625 0.99079 0.99897 0.0
N103 N 0.812 0.96567 0.02866 0.0
N104 N 0.8194 0.93682 0.0567 0.0
C105 C 0.80568 0.9569 0.05026 0.0
C106 C 0.83035 0.95057 0.02103 0.0
C107 C 0.83495 0.93266 0.03834 0.0
C108 C 0.78866 0.01459 0.05236 0.0
O109 O 0.80961 0.00414 0.05257 0.0
H110 H 0.79065 0.96461 0.06048 0.0
H111 H 0.83927 0.95206 1.00376 0.0
O112 O 0.77945 0.98233 0.98907 0.0
H113 H 0.85384 0.02716 0.97436 0.0
H114 H 0.84834 0.91756 0.03727 0.0
Cu115 Cu 0.03119 0.73075 1.008 0.0
N116 N 1.01752 0.71799 0.98739 0.0
N117 N 0.99371 0.71515 0.96176 0.0
C118 C 0.9984 0.72798 0.97735 0.0
C119 C 1.01058 0.69636 0.96208 0.0
C120 C 0.02522 0.69817 0.97787 0.0
O121 O 1.00889 0.74582 0.03217 0.0
C122 C 0.0585 0.76088 0.99178 0.0
O123 O 0.05572 0.76777 0.01359 0.0
H124 H 0.98853 0.74465 0.98086 0.0
H125 H 0.04062 0.6861 0.98176 0.0
N126 N 0.05195 0.70894 0.02558 0.0
N127 N 0.07936 0.69562 0.05002 0.0
C128 C 0.06887 0.71294 0.03511 0.0
C129 C 0.05182 0.68814 0.03466 0.0
C130 C 0.06867 0.67991 0.04991 0.0
C131 C 0.99806 0.73299 0.04324 0.0
O132 O 1.00202 0.71274 0.03632 0.0
H133 H 0.07263 0.72881 0.03244 0.0
H134 H 0.03976 0.67991 0.03134 0.0
O135 O 0.04783 0.74785 0.98653 0.0
H136 H 1.01229 0.6823 0.95162 0.0
H137 H 0.07238 0.66395 0.06056 0.0
Cu138 Cu 0.53288 0.51864 0.86636 0.0
N139 N 0.54498 0.53488 0.88458 0.0
N140 N 0.56473 0.5575 0.89163 0.0
C141 C 0.55961 0.54578 0.87525 0.0
C142 C 0.55279 0.55381 0.91216 0.0
C143 C 0.54063 0.53979 0.90776 0.0
O144 O 0.55728 0.4999 0.84744 0.0
C145 C 0.49417 0.5506 0.86367 0.0
O146 O 0.49555 0.54461 0.88691 0.0
H147 H 0.56573 0.54573 0.85648 0.0
H148 H 0.52905 0.53408 0.92037 0.0
N149 N 0.51959 0.49907 0.88533 0.0
N150 N 0.49914 0.47528 0.89334 0.0
C151 C 0.50541 0.49002 0.87682 0.0
C152 C 0.52249 0.48979 0.90812 0.0
C153 C 0.50989 0.47501 0.9131 0.0
C154 C 0.57184 0.48754 0.86094 0.0
O155 O 0.56864 0.48907 0.88438 0.0
H156 H 0.50043 0.49365 0.85847 0.0
H157 H 0.53338 0.49307 0.92005 0.0
O158 O 0.50972 0.54069 0.84916 0.0
H159 H 0.55268 0.56087 0.92906 0.0
H160 H 0.50887 0.46477 0.92986 0.0
Cu161 Cu 0.54728 0.53798 0.24353 0.0
N162 N 0.53445 0.52177 0.22611 0.0
N163 N 0.51428 0.49961 0.21891 0.0
C164 C 0.52099 0.50963 0.2358 0.0
C165 C 0.52407 0.50563 0.19775 0.0
C166 C 0.53649 0.51935 0.20225 0.0
O167 O 0.52443 0.5576 0.26332 0.0
C168 C 0.58539 0.50478 0.24703 0.0
O169 O 0.58389 0.50895 0.22355 0.0
H170 H 0.51644 0.50801 0.25496 0.0
H171 H 0.54632 0.52697 0.1891 0.0
N172 N 0.56068 0.55654 0.22318 0.0
N173 N 0.58406 0.57674 0.21128 0.0
C174 C 0.57931 0.56091 0.22748 0.0
C175 C 0.55325 0.57012 0.20359 0.0
C176 C 0.56768 0.58266 0.1962 0.0
C177 C 0.5064 0.5669 0.25365 0.0
O178 O 0.50399 0.56224 0.23186 0.0
H179 H 0.58863 0.55336 0.24295 0.0
H180 H 0.53809 0.57133 0.19575 0.0
O181 O 0.57022 0.51607 0.26095 0.0
H182 H 0.52221 0.50071 0.18024 0.0
H183 H 0.56604 0.59539 0.18119 0.0
Cu184 Cu 0.82419 0.54562 0.56277 0.0
N185 N 0.84154 0.55403 0.53676 0.0
N186 N 0.85087 0.57352 0.50359 0.0
C187 C 0.83552 0.57269 0.52178 0.0
C188 C 0.86721 0.55461 0.50736 0.0
C189 C 0.86134 0.54254 0.52777 0.0
O190 O 0.81207 0.57059 0.58266 0.0
C191 C 0.81059 0.516 0.53989 0.0
O192 O 0.83177 0.50664 0.53957 0.0
H193 H 0.82008 0.58532 0.52417 0.0
H194 H 0.87059 0.52626 0.53509 0.0
N195 N 0.84055 0.52207 0.58254 0.0
N196 N 0.84824 0.49005 0.60614 0.0
C197 C 0.83266 0.50595 0.59456 0.0
C198 C 0.86181 0.51656 0.58698 0.0
C199 C 0.86663 0.49675 0.60155 0.0
C200 C 0.82588 0.57958 0.58928 0.0
O201 O 0.84646 0.57219 0.58141 0.0
H202 H 0.81578 0.5059 0.59451 0.0
H203 H 0.8731 0.526 0.57979 0.0
O204 O 0.80263 0.53453 0.54931 0.0
H205 H 0.882 0.54948 0.49578 0.0
H206 H 0.88256 0.48774 0.60767 0.0
Cu207 Cu 0.56183 0.7879 0.57203 0.0
N208 N 0.583 0.77107 0.5502 0.0
N209 N 0.60861 0.7632 0.5194 0.0
C210 C 0.5954 0.77933 0.53269 0.0
C211 C 0.60428 0.74406 0.52918 0.0
C212 C 0.58853 0.74895 0.54799 0.0
O213 O 0.57745 0.79998 0.59335 0.0
C214 C 0.53574 0.80461 0.53371 0.0
O215 O 0.54517 0.78427 0.5275 0.0
H216 H 0.59426 0.79696 0.52949 0.0
H217 H 0.58147 0.73719 0.55909 0.0
N218 N 0.54571 0.77089 0.59151 0.0
N219 N 0.51796 0.76295 0.61515 0.0
C220 C 0.52436 0.77808 0.5991 0.0
C221 C 0.55308 0.7505 0.60314 0.0
C222 C 0.53606 0.74554 0.61761 0.0
C223 C 0.59458 0.78629 0.60169 0.0
O224 O 0.60015 0.76555 0.59584 0.0
H225 H 0.51401 0.79454 0.59376 0.0
H226 H 0.56983 0.74024 0.60186 0.0
O227 O 0.54071 0.81056 0.55307 0.0
H228 H 0.61192 0.72754 0.52331 0.0
H229 H 0.53709 0.73037 0.6293 0.0
Cu230 Cu 0.28204 0.49334 0.52058 0.0
N231 N 0.29958 0.5104 0.50408 0.0
N232 N 0.30746 0.53892 0.48067 0.0
C233 C 0.29169 0.52923 0.48975 0.0
C234 C 0.32603 0.52561 0.48986 0.0
C235 C 0.32112 0.50806 0.5043 0.0
O236 O 0.26491 0.51243 0.54464 0.0
C237 C 0.27479 0.48127 0.47665 0.0
O238 O 0.29502 0.48235 0.47236 0.0
H239 H 0.27454 0.53588 0.48651 0.0
H240 H 0.33239 0.4947 0.51441 0.0
N241 N 0.29756 0.46623 0.53647 0.0
N242 N 0.30441 0.43637 0.56362 0.0
C243 C 0.29039 0.45633 0.55706 0.0
C244 C 0.31672 0.45195 0.52958 0.0
C245 C 0.32099 0.43351 0.54629 0.0
C246 C 0.2755 0.5137 0.56238 0.0
O247 O 0.29583 0.50139 0.56358 0.0
H248 H 0.27489 0.46347 0.56675 0.0
H249 H 0.3267 0.45459 0.51337 0.0
O250 O 0.26503 0.48583 0.49724 0.0
H251 H 0.34208 0.52827 0.48636 0.0
H252 H 0.33522 0.41916 0.54572 0.0
Cu253 Cu 0.51858 0.23941 0.52107 0.0
N254 N 0.54047 0.22404 0.49948 0.0
N255 N 0.57079 0.21757 0.47476 0.0
C256 C 0.55678 0.23213 0.48897 0.0
C257 C 0.56293 0.1996 0.47623 0.0
C258 C 0.54406 0.20372 0.49136 0.0
O259 O 0.53257 0.25713 0.53804 0.0
C260 C 0.48228 0.2424 0.49631 0.0
O261 O 0.48848 0.22099 0.50342 0.0
H262 H 0.55858 0.24825 0.49215 0.0
H263 H 0.53373 0.19271 0.496 0.0
N264 N 0.50946 0.22029 0.54542 0.0
N265 N 0.49201 0.21038 0.57961 0.0
C266 C 0.49488 0.22744 0.56389 0.0
C267 C 0.51617 0.19787 0.54959 0.0
C268 C 0.50531 0.1917 0.57061 0.0
C269 C 0.54888 0.24466 0.54914 0.0
O270 O 0.5536 0.22295 0.54785 0.0
H271 H 0.48661 0.24491 0.56573 0.0
H272 H 0.52847 0.1868 0.53857 0.0
O273 O 0.49324 0.255 0.50219 0.0
H274 H 0.57015 0.1847 0.46683 0.0
H275 H 0.50757 0.17485 0.579 0.0
Sm276 Sm 0.27113 0.26954 0.31736 0.0
Sm277 Sm 0.30815 0.28709 0.28425 0.0
C278 C 0.23455 0.25809 0.32964 0.0
C279 C 0.22573 0.2387 0.33623 0.0
C280 C 0.21167 0.23439 0.32071 0.0
C281 C 0.2024 0.2167 0.3265 0.0
C282 C 0.20688 0.2029 0.34807 0.0
C283 C 0.22092 0.20722 0.36372 0.0
C284 C 0.23032 0.22495 0.35783 0.0
C285 C 0.30825 0.26316 0.34261 0.0
C286 C 0.30988 0.23455 0.28579 0.0
C287 C 0.33998 0.30348 0.26399 0.0
C288 C 0.35315 0.31904 0.26573 0.0
C289 C 0.3758 0.31156 0.26067 0.0
C290 C 0.38859 0.32643 0.25912 0.0
C291 C 0.37897 0.34916 0.26252 0.0
C292 C 0.35634 0.35646 0.26864 0.0
C293 C 0.34351 0.34152 0.27021 0.0
C294 C 0.27292 0.28408 0.26133 0.0
C295 C 0.27334 0.32039 0.32127 0.0
O296 O 0.24251 0.26023 0.30728 0.0
O297 O 0.24558 0.26383 0.34531 0.0
O298 O 0.30501 0.27121 0.32123 0.0
O299 O 0.29119 0.25685 0.3516 0.0
O300 O 0.28996 0.2391 0.29669 0.0
O301 O 0.32141 0.24926 0.28222 0.0
O302 O 0.34347 0.28537 0.27898 0.0
O303 O 0.31943 0.31202 0.25921 0.0
O304 O 0.27209 0.29083 0.28206 0.0
O305 O 0.2927 0.27989 0.25145 0.0
O306 O 0.29238 0.31577 0.30845 0.0
O307 O 0.26096 0.30649 0.32494 0.0
H308 H 0.20764 0.24491 0.3041 0.0
H309 H 0.19134 0.21412 0.31427 0.0
H310 H 0.22474 0.19682 0.38041 0.0
H311 H 0.24105 0.22792 0.3702 0.0
H312 H 0.38356 0.29429 0.25719 0.0
H313 H 0.40602 0.32018 0.25486 0.0
H314 H 0.34842 0.37388 0.27128 0.0
H315 H 0.32604 0.34768 0.27419 0.0
Sm316 Sm 0.79529 0.28408 0.31858 0.0
Sm317 Sm 0.78187 0.26262 0.28028 0.0
C318 C 0.80512 0.31242 0.34472 0.0
C319 C 0.79619 0.32869 0.3629 0.0
C320 C 0.77527 0.34387 0.36184 0.0
C321 C 0.76809 0.36027 0.37833 0.0
C322 C 0.78167 0.36169 0.3962 0.0
C323 C 0.80241 0.34611 0.3974 0.0
C324 C 0.80955 0.32982 0.38093 0.0
C325 C 0.81918 0.23983 0.31628 0.0
C326 C 0.75755 0.2607 0.33507 0.0
C327 C 0.76909 0.23627 0.25412 0.0
C328 C 0.77245 0.22182 0.23409 0.0
C329 C 0.79124 0.20381 0.23117 0.0
C330 C 0.79232 0.1885 0.21419 0.0
C331 C 0.7746 0.19087 0.19995 0.0
C332 C 0.75622 0.20945 0.20238 0.0
C333 C 0.7552 0.22472 0.21924 0.0
C334 C 0.75931 0.30713 0.28279 0.0
C335 C 0.82005 0.28527 0.26356 0.0
O336 O 0.79825 0.31783 0.32294 0.0
O337 O 0.80797 0.29125 0.3518 0.0
O338 O 0.81372 0.25371 0.29829 0.0
O339 O 0.81274 0.24942 0.33621 0.0
O340 O 0.76497 0.27733 0.33957 0.0
O341 O 0.76415 0.25059 0.31502 0.0
O342 O 0.7804 0.22893 0.27315 0.0
O343 O 0.76472 0.25789 0.24911 0.0
O344 O 0.76361 0.29284 0.30062 0.0
O345 O 0.76668 0.29808 0.26272 0.0
O346 O 0.81217 0.26896 0.25893 0.0
O347 O 0.81383 0.29525 0.28382 0.0
H348 H 0.76463 0.34327 0.34807 0.0
H349 H 0.75197 0.37188 0.37705 0.0
H350 H 0.81346 0.34691 0.41061 0.0
H351 H 0.8258 0.31838 0.38195 0.0
H352 H 0.80478 0.20119 0.24244 0.0
H353 H 0.80687 0.17459 0.21254 0.0
H354 H 0.74214 0.2117 0.19205 0.0
H355 H 0.74044 0.23836 0.22138 0.0
Sm356 Sm 0.80323 0.74426 0.27927 0.0
Sm357 Sm 0.80567 0.79095 0.28964 0.0
C358 C 0.80022 0.70287 0.27997 0.0
C359 C 0.78379 0.69287 0.27276 0.0
C360 C 0.77955 0.67431 0.28656 0.0
C361 C 0.76362 0.66501 0.28012 0.0
C362 C 0.75168 0.6741 0.25969 0.0
C363 C 0.75607 0.69271 0.2459 0.0
C364 C 0.77186 0.70207 0.25244 0.0
C365 C 0.78179 0.77866 0.24755 0.0
C366 C 0.76739 0.77295 0.31879 0.0
C367 C 0.80874 0.83236 0.28917 0.0
C368 C 0.82396 0.84295 0.29799 0.0
C369 C 0.82542 0.86381 0.28732 0.0
C370 C 0.83998 0.87396 0.29542 0.0
C371 C 0.85328 0.8634 0.31439 0.0
C372 C 0.85174 0.84245 0.32503 0.0
C373 C 0.83726 0.83226 0.31682 0.0
C374 C 0.82775 0.75619 0.32062 0.0
C375 C 0.84065 0.76274 0.24929 0.0
O376 O 0.79455 0.71463 0.29872 0.0
O377 O 0.81059 0.71221 0.26248 0.0
O378 O 0.7824 0.77961 0.26989 0.0
O379 O 0.7899 0.75819 0.24218 0.0
O380 O 0.77908 0.753 0.31268 0.0
O381 O 0.77194 0.79133 0.3086 0.0
O382 O 0.81638 0.81982 0.2713 0.0
O383 O 0.79713 0.82348 0.3057 0.0
O384 O 0.82692 0.75567 0.29831 0.0
O385 O 0.81898 0.7763 0.32679 0.0
O386 O 0.82864 0.78267 0.25515 0.0
O387 O 0.8368 0.74431 0.26034 0.0
H388 H 0.78845 0.66711 0.30242 0.0
H389 H 0.76045 0.65092 0.29139 0.0
H390 H 0.74745 0.69996 0.22988 0.0
H391 H 0.77472 0.71651 0.24158 0.0
H392 H 0.81529 0.87226 0.27273 0.0
H393 H 0.84065 0.8902 0.28701 0.0
H394 H 0.86197 0.83377 0.33944 0.0
H395 H 0.8365 0.81601 0.32513 0.0
Sm396 Sm 0.27681 0.77958 0.28239 0.0
Sm397 Sm 0.31148 0.78601 0.31369 0.0
C398 C 0.24381 0.78385 0.25517 0.0
C399 C 0.23382 0.77215 0.23996 0.0
C400 C 0.22404 0.78401 0.21929 0.0
C401 C 0.21438 0.77373 0.20421 0.0
C402 C 0.21429 0.75128 0.20946 0.0
C403 C 0.22401 0.73938 0.23034 0.0
C404 C 0.2338 0.74972 0.24545 0.0
C405 C 0.31719 0.74942 0.27584 0.0
C406 C 0.30045 0.82045 0.26697 0.0
C407 C 0.34445 0.78231 0.34069 0.0
C408 C 0.35606 0.79493 0.35269 0.0
C409 C 0.37868 0.78637 0.35418 0.0
C410 C 0.39004 0.79668 0.36729 0.0
C411 C 0.37898 0.81584 0.37922 0.0
C412 C 0.35632 0.82474 0.37719 0.0
C413 C 0.34494 0.81439 0.36399 0.0
C414 C 0.2709 0.81613 0.31993 0.0
C415 C 0.2888 0.74462 0.3289 0.0
O416 O 0.26243 0.78735 0.24673 0.0
O417 O 0.24269 0.77896 0.2786 0.0
O418 O 0.31393 0.76982 0.27899 0.0
O419 O 0.29892 0.7451 0.27327 0.0
O420 O 0.28271 0.81354 0.26709 0.0
O421 O 0.31622 0.81036 0.28136 0.0
O422 O 0.32475 0.78237 0.3496 0.0
O423 O 0.34663 0.78305 0.31706 0.0
O424 O 0.27433 0.79565 0.31708 0.0
O425 O 0.28912 0.82076 0.32206 0.0
O426 O 0.30619 0.75204 0.32872 0.0
O427 O 0.27275 0.7545 0.3147 0.0
H428 H 0.2238 0.80135 0.21481 0.0
H429 H 0.2067 0.78352 0.18857 0.0
H430 H 0.2243 0.72203 0.23479 0.0
H431 H 0.24136 0.74023 0.2613 0.0
H432 H 0.38752 0.77129 0.34572 0.0
H433 H 0.40739 0.78912 0.36877 0.0
H434 H 0.34735 0.8396 0.38595 0.0
H435 H 0.32745 0.82133 0.36301 0.0
Sm436 Sm 0.29161 0.78767 0.8143 0.0
Sm437 Sm 0.27375 0.76316 0.78331 0.0
C438 C 0.30599 0.81523 0.83689 0.0
C439 C 0.31176 0.81878 0.86083 0.0
C440 C 0.29615 0.8229 0.88054 0.0
C441 C 0.30174 0.8283 0.90232 0.0
C442 C 0.32303 0.82958 0.90477 0.0
C443 C 0.33875 0.82466 0.88528 0.0
C444 C 0.33314 0.81939 0.86354 0.0
C445 C 0.3096 0.74177 0.82082 0.0
C446 C 0.25314 0.76665 0.83818 0.0
C447 C 0.26136 0.73923 0.75419 0.0
C448 C 0.2668 0.72429 0.73462 0.0
C449 C 0.28606 0.70663 0.73361 0.0
C450 C 0.2891 0.69094 0.7166 0.0
C451 C 0.2729 0.69269 0.70049 0.0
C452 C 0.25416 0.71107 0.70094 0.0
C453 C 0.25118 0.7267 0.71784 0.0
C454 C 0.24695 0.80541 0.79042 0.0
C455 C 0.31475 0.78167 0.75974 0.0
O456 O 0.28532 0.81837 0.83348 0.0
O457 O 0.31894 0.79828 0.82621 0.0
O458 O 0.30582 0.75302 0.80082 0.0
O459 O 0.30354 0.75473 0.83834 0.0
O460 O 0.26101 0.78402 0.83787 0.0
O461 O 0.25974 0.75267 0.82107 0.0
O462 O 0.2686 0.73121 0.77549 0.0
O463 O 0.26072 0.76025 0.74866 0.0
O464 O 0.26736 0.80085 0.78567 0.0
O465 O 0.24032 0.78772 0.79129 0.0
O466 O 0.30303 0.76778 0.75766 0.0
O467 O 0.31154 0.79328 0.77877 0.0
H468 H 0.27953 0.82246 0.87899 0.0
H469 H 0.28933 0.83186 0.91709 0.0
H470 H 0.35518 0.82586 0.88643 0.0
H471 H 0.34541 0.81642 0.84856 0.0
H472 H 0.29837 0.70457 0.74638 0.0
H473 H 0.30386 0.67714 0.71647 0.0
H474 H 0.24122 0.7128 0.68908 0.0
H475 H 0.23617 0.7402 0.71846 0.0
Sm476 Sm 0.28829 0.24124 0.79978 0.0
Sm477 Sm 0.2994 0.28168 0.81276 0.0
C478 C 0.27547 0.2047 0.79816 0.0
C479 C 0.25776 0.19764 0.78928 0.0
C480 C 0.25063 0.18036 0.80241 0.0
C481 C 0.23504 0.17215 0.79345 0.0
C482 C 0.22635 0.181 0.77107 0.0
C483 C 0.23308 0.19881 0.75829 0.0
C484 C 0.24862 0.20709 0.76734 0.0
C485 C 0.28247 0.27539 0.76313 0.0
C486 C 0.2512 0.27952 0.82858 0.0
C487 C 0.31201 0.31827 0.81476 0.0
C488 C 0.33058 0.32592 0.8207 0.0
C489 C 0.34089 0.33753 0.80264 0.0
C490 C 0.35695 0.34695 0.80829 0.0
C491 C 0.36294 0.34512 0.83221 0.0
C492 C 0.35308 0.33288 0.85017 0.0
C493 C 0.33706 0.32337 0.84448 0.0
C494 C 0.30533 0.24709 0.8491 0.0
C495 C 0.33665 0.24393 0.78372 0.0
O496 O 0.27053 0.21686 0.8166 0.0
O497 O 0.28889 0.21122 0.78182 0.0
O498 O 0.27739 0.27801 0.78525 0.0
O499 O 0.28867 0.25436 0.75965 0.0
O500 O 0.259 0.25799 0.82558 0.0
O501 O 0.26237 0.29365 0.8198 0.0
O502 O 0.31431 0.30799 0.79507 0.0
O503 O 0.30118 0.30985 0.83256 0.0
O504 O 0.31058 0.2448 0.82697 0.0
O505 O 0.29842 0.26807 0.85283 0.0
O506 O 0.32896 0.26525 0.78758 0.0
O507 O 0.32542 0.22959 0.79166 0.0
H508 H 0.25742 0.17294 0.81944 0.0
H509 H 0.22991 0.15873 0.804 0.0
H510 H 0.22688 0.20591 0.74093 0.0
H511 H 0.25384 0.22052 0.75693 0.0
H512 H 0.33615 0.33978 0.78419 0.0
H513 H 0.36448 0.35595 0.79395 0.0
H514 H 0.35713 0.33133 0.86881 0.0
H515 H 0.32937 0.31457 0.85887 0.0
Sm516 Sm 0.77034 0.27987 0.78607 0.0
Sm517 Sm 0.81128 0.28482 0.81458 0.0
C518 C 0.73089 0.28787 0.76988 0.0
C519 C 0.71834 0.28883 0.74865 0.0
C520 C 0.69637 0.30148 0.74901 0.0
C521 C 0.68337 0.30123 0.73026 0.0
C522 C 0.69205 0.28831 0.71061 0.0
C523 C 0.71433 0.27608 0.71003 0.0
C524 C 0.72733 0.27631 0.72888 0.0
C525 C 0.80971 0.24999 0.77208 0.0
C526 C 0.80425 0.30782 0.76023 0.0
C527 C 0.84798 0.27912 0.83624 0.0
C528 C 0.85918 0.27625 0.85904 0.0
C529 C 0.87037 0.25476 0.86865 0.0
C530 C 0.88389 0.252 0.88776 0.0
C531 C 0.88669 0.27065 0.8977 0.0
C532 C 0.87486 0.29214 0.88865 0.0
C533 C 0.86136 0.2949 0.86952 0.0
C534 C 0.77219 0.31761 0.81875 0.0
C535 C 0.7816 0.25163 0.83919 0.0
O536 O 0.74055 0.30362 0.77087 0.0
O537 O 0.7423 0.26808 0.77846 0.0
O538 O 0.80603 0.265 0.78631 0.0
O539 O 0.79131 0.25079 0.76331 0.0
O540 O 0.78378 0.30647 0.76254 0.0
O541 O 0.81904 0.29676 0.7755 0.0
O542 O 0.84133 0.26254 0.83038 0.0
O543 O 0.83513 0.29881 0.8295 0.0
O544 O 0.77432 0.29701 0.81823 0.0
O545 O 0.79112 0.32124 0.81955 0.0
O546 O 0.79842 0.25975 0.84032 0.0
O547 O 0.76797 0.25774 0.82158 0.0
H548 H 0.68907 0.31116 0.76417 0.0
H549 H 0.6663 0.31062 0.73163 0.0
H550 H 0.72175 0.26621 0.69507 0.0
H551 H 0.74427 0.26643 0.7282 0.0
H552 H 0.86931 0.24002 0.86087 0.0
H553 H 0.89249 0.2352 0.89445 0.0
H554 H 0.87678 0.30692 0.8956 0.0
H555 H 0.85329 0.31172 0.86235 0.0
Sm556 Sm 0.76289 0.77488 0.80514 0.0
Sm557 Sm 0.79885 0.78672 0.77265 0.0
C558 C 0.72919 0.76261 0.82768 0.0
C559 C 0.71759 0.7452 0.8306 0.0
C560 C 0.71313 0.73546 0.81082 0.0
C561 C 0.70116 0.71966 0.8145 0.0
C562 C 0.69347 0.71341 0.83797 0.0
C563 C 0.69847 0.7229 0.85765 0.0
C564 C 0.71034 0.73865 0.85397 0.0
C565 C 0.80168 0.76775 0.82661 0.0
C566 C 0.79127 0.73928 0.76656 0.0
C567 C 0.83319 0.79854 0.75124 0.0
C568 C 0.84547 0.81532 0.74989 0.0
C569 C 0.85104 0.82275 0.77065 0.0
C570 C 0.86386 0.83775 0.76847 0.0
C571 C 0.8713 0.84552 0.74551 0.0
C572 C 0.86515 0.83842 0.72485 0.0
C573 C 0.85244 0.82345 0.72705 0.0
C574 C 0.76089 0.79286 0.7503 0.0
C575 C 0.76951 0.82284 0.8103 0.0
O576 O 0.72785 0.77548 0.80745 0.0
O577 O 0.74849 0.75728 0.8362 0.0
O578 O 0.8 0.7627 0.80571 0.0
O579 O 0.78261 0.77651 0.83701 0.0
O580 O 0.77245 0.74663 0.77916 0.0
O581 O 0.80631 0.75016 0.76471 0.0
O582 O 0.8342 0.78463 0.77066 0.0
O583 O 0.81385 0.80506 0.74271 0.0
O584 O 0.76166 0.79836 0.77135 0.0
O585 O 0.78031 0.78482 0.74033 0.0
O586 O 0.78848 0.81542 0.79799 0.0
O587 O 0.75476 0.81161 0.81265 0.0
H588 H 0.71867 0.74023 0.7926 0.0
H589 H 0.69751 0.71273 0.79894 0.0
H590 H 0.69323 0.71814 0.87599 0.0
H591 H 0.71372 0.74589 0.86947 0.0
H592 H 0.84578 0.81674 0.7885 0.0
H593 H 0.86839 0.84281 0.78475 0.0
H594 H 0.87019 0.84441 0.70691 0.0
H595 H 0.84823 0.81799 0.71081 0.0
C596 C 0.10173 0.06667 0.36144 0.0
C597 C 0.09065 0.06281 0.38376 0.0
C598 C 0.11533 0.08077 0.35904 0.0
C599 C 0.14601 0.10794 0.39329 0.0
H600 H 0.14269 0.14795 0.33477 0.0
C601 C 0.18702 0.18083 0.37755 0.0
C602 C 0.19639 0.18447 0.35416 0.0
C603 C 0.17524 0.16493 0.38247 0.0
C604 C 0.14402 0.13671 0.35109 0.0
H605 H 0.08555 0.07043 0.4212 0.0
H606 H 0.10925 0.09535 0.41699 0.0
H607 H 0.11975 0.1226 0.34103 0.0
H608 H 0.20197 0.17328 0.31804 0.0
H609 H 0.18152 0.14564 0.32658 0.0
H610 H 0.17024 0.12238 0.40334 0.0
C611 C 0.10754 0.08723 0.40139 0.0
C612 C 0.13086 0.12216 0.35469 0.0
C613 C 0.09393 0.073 0.40381 0.0
C614 C 0.19455 0.17122 0.33611 0.0
C615 C 0.18281 0.1554 0.341 0.0
C616 C 0.15918 0.12262 0.3897 0.0
C617 C 0.11818 0.0915 0.37887 0.0
C618 C 0.13182 0.10742 0.3757 0.0
C619 C 0.17261 0.1524 0.36407 0.0
C620 C 0.15848 0.137 0.36842 0.0
H621 H 0.10002 0.05865 0.34578 0.0
H622 H 0.1237 0.08321 0.34158 0.0
H623 H 0.14727 0.0967 0.40959 0.0
H624 H 0.18803 0.19087 0.39181 0.0
H625 H 0.16749 0.16308 0.4004 0.0
C626 C 0.97205 0.06764 0.30136 0.0
C627 C 0.98777 0.06685 0.31765 0.0
C628 C 0.95443 0.0868 0.29791 0.0
C629 C 0.93324 0.14692 0.31259 0.0
H630 H 0.87714 0.13848 0.30214 0.0
C631 C 0.85007 0.21044 0.3347 0.0
C632 C 0.83727 0.21898 0.31487 0.0
C633 C 0.86841 0.19196 0.33284 0.0
C634 C 0.89276 0.14105 0.30487 0.0
H635 H 0.99741 0.08577 0.34285 0.0
H636 H 0.96654 0.11853 0.33773 0.0
H637 H 0.90965 0.10647 0.30263 0.0
H638 H 0.83313 0.21439 0.27783 0.0
H639 H 0.8649 0.18129 0.27494 0.0
H640 H 0.91584 0.18132 0.31626 0.0
C641 C 0.96798 0.10481 0.32687 0.0
C642 C 0.9115 0.12275 0.30499 0.0
C643 C 0.98576 0.08585 0.32994 0.0
C644 C 0.84274 0.20815 0.29338 0.0
C645 C 0.86084 0.18927 0.29172 0.0
C646 C 0.91444 0.16504 0.31302 0.0
C647 C 0.95184 0.10554 0.31102 0.0
C648 C 0.93204 0.12533 0.30912 0.0
C649 C 0.87405 0.18129 0.31131 0.0
C650 C 0.89403 0.16225 0.30936 0.0
H651 H 0.97316 0.0533 0.29154 0.0
H652 H 0.94275 0.08676 0.28512 0.0
H653 H 0.94869 0.14991 0.31516 0.0
H654 H 0.84632 0.21844 0.35147 0.0
H655 H 0.87828 0.18601 0.34822 0.0
C656 C 0.97019 0.96186 0.39432 0.0
C657 C 0.98126 0.97169 0.37522 0.0
C658 C 0.95733 0.94823 0.38965 0.0
C659 C 0.94814 0.91539 0.34207 0.0
H660 H 0.8908 0.92274 0.37535 0.0
C661 C 0.88161 0.88438 0.30618 0.0
C662 C 0.86882 0.87414 0.32289 0.0
C663 C 0.89617 0.89459 0.3141 0.0
C664 C 0.90689 0.92027 0.36613 0.0
H665 H 0.98688 0.97533 0.33618 0.0
H666 H 0.96465 0.95174 0.32813 0.0
H667 H 0.91486 0.9435 0.38673 0.0
H668 H 0.86121 0.86668 0.36105 0.0
H669 H 0.88678 0.88447 0.37491 0.0
H670 H 0.94001 0.89254 0.32114 0.0
C671 C 0.96629 0.95407 0.34675 0.0
C672 C 0.92069 0.93214 0.37268 0.0
C673 C 0.97909 0.96763 0.3514 0.0
C674 C 0.87097 0.87429 0.34773 0.0
C675 C 0.88545 0.88464 0.35567 0.0
C676 C 0.93434 0.90361 0.33549 0.0
C677 C 0.95527 0.94416 0.36578 0.0
C678 C 0.94133 0.93012 0.36043 0.0
C679 C 0.89823 0.89488 0.33893 0.0
C680 C 0.91343 0.90619 0.34717 0.0
H681 H 0.97165 0.96453 0.41286 0.0
H682 H 0.94918 0.9407 0.40473 0.0
H683 H 0.96411 0.91309 0.33261 0.0
H684 H 0.88049 0.88435 0.28692 0.0
H685 H 0.9056 0.90256 0.30075 0.0
C686 C 0.09274 0.95726 0.33348 0.0
C687 C 0.09318 0.97782 0.32075 0.0
C688 C 0.11081 0.93848 0.33189 0.0
C689 C 0.16003 0.9116 0.29596 0.0
H690 H 0.18434 0.88675 0.3574 0.0
C691 C 0.23136 0.8294 0.31059 0.0
C692 C 0.24934 0.83301 0.32046 0.0
C693 C 0.21147 0.84623 0.30975 0.0
C694 C 0.17763 0.89344 0.34016 0.0
H695 H 0.11255 0.99435 0.2953 0.0
H696 H 0.14394 0.96117 0.29194 0.0
H697 H 0.15062 0.91755 0.35642 0.0
H698 H 0.26053 0.85679 0.33766 0.0
H699 H 0.22555 0.88576 0.33714 0.0
H700 H 0.18703 0.88722 0.27978 0.0
C701 C 0.12963 0.95982 0.30338 0.0
C702 C 0.15835 0.91097 0.33959 0.0
C703 C 0.11169 0.97879 0.30535 0.0
C704 C 0.24693 0.85353 0.32997 0.0
C705 C 0.22695 0.87009 0.32969 0.0
C706 C 0.17908 0.89367 0.29659 0.0
C707 C 0.12956 0.93966 0.31714 0.0
C708 C 0.14948 0.92038 0.31749 0.0
C709 C 0.20911 0.8667 0.31936 0.0
C710 C 0.18817 0.88463 0.31868 0.0
H711 H 0.07881 0.95588 0.34558 0.0
H712 H 0.11031 0.92309 0.34256 0.0
H713 H 0.15349 0.91856 0.27871 0.0
H714 H 0.23279 0.8138 0.30309 0.0
H715 H 0.19789 0.84322 0.30177 0.0
C716 C 0.10668 0.96683 0.72986 0.0
C717 C 0.09457 0.98344 0.74476 0.0
C718 C 0.12345 0.94909 0.7388 0.0
C719 C 0.16468 0.93007 0.78173 0.0
H720 H 0.1601 0.87123 0.7718 0.0
C721 C 0.23679 0.84741 0.782 0.0
C722 C 0.23151 0.82788 0.79201 0.0
C723 C 0.22049 0.86796 0.78061 0.0
C724 C 0.16158 0.88749 0.77498 0.0
H725 H 0.09097 0.99468 0.78074 0.0
H726 H 0.12097 0.96341 0.79644 0.0
H727 H 0.13042 0.90416 0.76135 0.0
H728 H 0.20578 0.81477 0.81037 0.0
H729 H 0.17768 0.85033 0.80817 0.0
H730 H 0.19633 0.91318 0.7947 0.0
C731 C 0.11713 0.96432 0.77779 0.0
C732 C 0.1446 0.90634 0.76889 0.0
C733 C 0.09994 0.98207 0.76888 0.0
C734 C 0.21022 0.82949 0.80213 0.0
C735 C 0.1941 0.84986 0.80085 0.0
C736 C 0.18194 0.91108 0.78759 0.0
C737 C 0.12882 0.94756 0.76282 0.0
C738 C 0.14604 0.92781 0.77195 0.0
C739 C 0.1988 0.86917 0.7893 0.0
C740 C 0.18056 0.88959 0.78415 0.0
H741 H 0.10302 0.96729 0.71121 0.0
H742 H 0.13228 0.93647 0.72686 0.0
H743 H 0.16621 0.9465 0.78405 0.0
H744 H 0.25313 0.8466 0.77417 0.0
H745 H 0.22459 0.88259 0.77158 0.0
C746 C 0.11154 0.07419 0.71072 0.0
C747 C 0.09235 0.08559 0.69932 0.0
C748 C 0.12667 0.08541 0.71484 0.0
C749 C 0.13007 0.14118 0.72419 0.0
H750 H 0.19257 0.1135 0.71742 0.0
C751 C 0.1931 0.18472 0.74835 0.0
C752 C 0.21098 0.17111 0.76074 0.0
C753 C 0.17891 0.17523 0.73842 0.0
C754 C 0.17516 0.12139 0.71961 0.0
H755 H 0.0742 0.11758 0.68275 0.0
H756 H 0.10074 0.13728 0.68991 0.0
H757 H 0.16757 0.09515 0.7036 0.0
H758 H 0.22808 0.13679 0.77202 0.0
H759 H 0.20304 0.12038 0.75543 0.0
H760 H 0.13759 0.16712 0.74079 0.0
C761 C 0.10399 0.11964 0.69574 0.0
C762 C 0.16085 0.11091 0.71161 0.0
C763 C 0.08892 0.10833 0.69142 0.0
C764 C 0.21431 0.14782 0.76291 0.0
C765 C 0.20013 0.13836 0.75305 0.0
C766 C 0.14439 0.15164 0.7323 0.0
C767 C 0.1229 0.10835 0.70777 0.0
C768 C 0.13814 0.12051 0.71413 0.0
C769 C 0.18227 0.15192 0.74063 0.0
C770 C 0.16709 0.14168 0.73045 0.0
H771 H 0.11471 0.05662 0.71678 0.0
H772 H 0.14097 0.07627 0.72433 0.0
H773 H 0.11264 0.14887 0.72665 0.0
H774 H 0.18995 0.20273 0.74651 0.0
H775 H 0.16541 0.18616 0.72881 0.0
C776 C 0.95916 0.08489 0.73351 0.0
C777 C 0.97933 0.08165 0.74337 0.0
C778 C 0.94158 0.10323 0.73869 0.0
C779 C 0.91933 0.14901 0.77878 0.0
H780 H 0.88757 0.17721 0.72254 0.0
C781 C 0.84933 0.23253 0.77927 0.0
C782 C 0.83044 0.23234 0.76847 0.0
C783 C 0.86849 0.21492 0.777 0.0
C784 C 0.89617 0.16948 0.73846 0.0
H785 H 0.99663 0.09443 0.76745 0.0
H786 H 0.96571 0.12698 0.77641 0.0
H787 H 0.91887 0.14466 0.71841 0.0
H788 H 0.81686 0.21393 0.74632 0.0
H789 H 0.85024 0.18339 0.74206 0.0
H790 H 0.8964 0.17411 0.79875 0.0
C791 C 0.96354 0.11513 0.76475 0.0
C792 C 0.9141 0.15076 0.73613 0.0
C793 C 0.98121 0.0965 0.75969 0.0
C794 C 0.83119 0.21454 0.75483 0.0
C795 C 0.85033 0.19708 0.75236 0.0
C796 C 0.90134 0.16791 0.78109 0.0
C797 C 0.94374 0.11905 0.75364 0.0
C798 C 0.92564 0.13995 0.75632 0.0
C799 C 0.86917 0.19696 0.76354 0.0
C800 C 0.88932 0.17807 0.76101 0.0
H801 H 0.95711 0.07354 0.72114 0.0
H802 H 0.9264 0.1053 0.73044 0.0
H803 H 0.92785 0.14109 0.79468 0.0
H804 H 0.84929 0.24626 0.78949 0.0
H805 H 0.88282 0.21546 0.78554 0.0
C806 C 0.99698 0.96194 0.6946 0.0
C807 C 0.99434 0.97975 0.70899 0.0
C808 C 0.98371 0.94746 0.69929 0.0
C809 C 0.9309 0.94311 0.72929 0.0
H810 H 0.95733 0.87936 0.72692 0.0
C811 C 0.88214 0.87832 0.75766 0.0
C812 C 0.88581 0.86058 0.7429 0.0
C813 C 0.89554 0.89275 0.75455 0.0
C814 C 0.94964 0.89713 0.72743 0.0
H815 H 0.97525 0.9966 0.73922 0.0
H816 H 0.95229 0.97122 0.74755 0.0
H817 H 0.98012 0.90492 0.71892 0.0
H818 H 0.9069 0.84375 0.71378 0.0
H819 H 0.92982 0.86912 0.70798 0.0
H820 H 0.90037 0.93534 0.73757 0.0
C821 C 0.96459 0.96849 0.7326 0.0
C822 C 0.96271 0.91178 0.72282 0.0
C823 C 0.97792 0.98289 0.72798 0.0
C824 C 0.90338 0.85743 0.72523 0.0
C825 C 0.91673 0.87183 0.72211 0.0
C826 C 0.91779 0.92845 0.73383 0.0
C827 C 0.96741 0.95052 0.7184 0.0
C828 C 0.95349 0.93495 0.72358 0.0
C829 C 0.91296 0.88972 0.73665 0.0
C830 C 0.92698 0.90528 0.73281 0.0
H831 H 1.00956 0.95895 0.67996 0.0
H832 H 0.98614 0.93392 0.68783 0.0
H833 H 0.92325 0.96089 0.72976 0.0
H834 H 0.86868 0.88129 0.77134 0.0
H835 H 0.89232 0.90622 0.76623 0.0
C836 C 0.37276 0.09726 0.13989 0.0
C837 C 0.36053 0.08204 0.13852 0.0
C838 C 0.3689 0.11062 0.15925 0.0
C839 C 0.32566 0.13519 0.20431 0.0
H840 H 0.37259 0.14865 0.23348 0.0
C841 C 0.30694 0.19684 0.27789 0.0
C842 C 0.31869 0.21292 0.27489 0.0
C843 C 0.31356 0.17796 0.26477 0.0
C844 C 0.35929 0.14514 0.22545 0.0
H845 H 0.33524 0.06834 0.15715 0.0
H846 H 0.32835 0.09183 0.19074 0.0
H847 H 0.38126 0.1212 0.20346 0.0
H848 H 0.34729 0.2211 0.25662 0.0
H849 H 0.35856 0.18849 0.23355 0.0
H850 H 0.30368 0.15957 0.22558 0.0
C851 C 0.34075 0.09359 0.17662 0.0
C852 C 0.36427 0.12942 0.20827 0.0
C853 C 0.34467 0.08018 0.15731 0.0
C854 C 0.33783 0.20908 0.25942 0.0
C855 C 0.34438 0.19027 0.24624 0.0
C856 C 0.32068 0.15097 0.22138 0.0
C857 C 0.35267 0.10912 0.17769 0.0
C858 C 0.3475 0.12449 0.19727 0.0
C859 C 0.33202 0.17476 0.24828 0.0
C860 C 0.33743 0.15638 0.23193 0.0
H861 H 0.3849 0.09938 0.12565 0.0
H862 H 0.37815 0.12264 0.15937 0.0
H863 H 0.31237 0.132 0.19594 0.0
H864 H 0.29221 0.19915 0.28979 0.0
H865 H 0.30391 0.16611 0.26715 0.0
C866 C 0.97489 0.31384 0.12741 0.0
C867 C 0.98619 0.32693 0.13694 0.0
C868 C 0.95566 0.31053 0.13928 0.0
C869 C 0.91101 0.33325 0.18465 0.0
H870 H 0.90546 0.27277 0.19283 0.0
C871 C 0.84705 0.30754 0.25287 0.0
C872 C 0.83721 0.29158 0.24686 0.0
C873 C 0.86404 0.31272 0.23792 0.0
C874 C 0.90652 0.28983 0.19039 0.0
H875 H 0.98566 0.34711 0.16642 0.0
H876 H 0.95206 0.34152 0.18691 0.0
H877 H 0.93708 0.28045 0.16948 0.0
H878 H 0.83724 0.26894 0.22003 0.0
H879 H 0.86667 0.27828 0.1937 0.0
H880 H 0.8805 0.34266 0.20558 0.0
C881 C 0.95806 0.33391 0.17014 0.0
C882 C 0.9247 0.29422 0.17702 0.0
C883 C 0.97737 0.33714 0.15833 0.0
C884 C 0.8445 0.28125 0.22526 0.0
C885 C 0.86149 0.2865 0.21024 0.0
C886 C 0.89277 0.32889 0.19792 0.0
C887 C 0.94713 0.32035 0.16091 0.0
C888 C 0.92727 0.31594 0.17419 0.0
C889 C 0.87161 0.30217 0.21648 0.0
C890 C 0.89039 0.30707 0.20118 0.0
H891 H 0.98089 0.30608 0.11074 0.0
H892 H 0.94743 0.30029 0.13148 0.0
H893 H 0.91234 0.35023 0.1825 0.0
H894 H 0.84193 0.31579 0.2694 0.0
H895 H 0.87162 0.32461 0.24355 0.0
C896 C 0.80687 0.93085 0.09945 0.0
C897 C 0.81624 0.9221 0.0775 0.0
C898 C 0.80194 0.91683 0.11909 0.0
C899 C 0.78699 0.86486 0.13238 0.0
H900 H 0.80497 0.86419 0.19699 0.0
C901 C 0.78423 0.79351 0.20465 0.0
C902 C 0.78028 0.79768 0.22912 0.0
C903 C 0.78611 0.81049 0.18702 0.0
C904 C 0.79942 0.86449 0.17919 0.0
H905 H 0.82812 0.89184 0.05896 0.0
H906 H 0.81926 0.8673 0.09321 0.0
H907 H 0.81439 0.89017 0.16463 0.0
H908 H 0.77414 0.82313 0.25432 0.0
H909 H 0.77696 0.85322 0.22327 0.0
H910 H 0.77176 0.83955 0.1467 0.0
C911 C 0.81582 0.88501 0.09521 0.0
C912 C 0.80496 0.87925 0.16065 0.0
C913 C 0.82107 0.89898 0.07571 0.0
C914 C 0.77724 0.81948 0.23556 0.0
C915 C 0.77905 0.83662 0.2178 0.0
C916 C 0.78119 0.85037 0.15091 0.0
C917 C 0.80596 0.89385 0.11696 0.0
C918 C 0.79919 0.8792 0.13699 0.0
C919 C 0.78388 0.83221 0.19334 0.0
C920 C 0.78776 0.8496 0.17444 0.0
H921 H 0.80315 0.94861 0.1013 0.0
H922 H 0.79434 0.92404 0.13565 0.0
H923 H 0.78195 0.86484 0.11438 0.0
H924 H 0.78673 0.77684 0.19914 0.0
H925 H 0.79021 0.8063 0.16849 0.0
C926 C 0.11185 0.70732 0.05658 0.0
C927 C 0.09641 0.69575 0.06508 0.0
C928 C 0.12666 0.71015 0.07195 0.0
C929 C 0.15014 0.69153 0.13185 0.0
H930 H 0.15863 0.75085 0.12479 0.0
C931 C 0.19008 0.72734 0.2024 0.0
C932 C 0.20382 0.7407 0.19311 0.0
C933 C 0.17855 0.71941 0.18685 0.0
C934 C 0.15668 0.73411 0.12684 0.0
H935 H 0.0849 0.67731 0.09615 0.0
H936 H 0.1106 0.68255 0.1233 0.0
H937 H 0.13587 0.74135 0.09758 0.0
H938 H 0.21738 0.75484 0.16013 0.0
H939 H 0.19732 0.74111 0.13315 0.0
H940 H 0.17074 0.68464 0.1616 0.0
C941 C 0.11148 0.68918 0.10459 0.0
C942 C 0.14365 0.72861 0.11117 0.0
C943 C 0.09675 0.68615 0.08906 0.0
C944 C 0.20654 0.74505 0.16792 0.0
C945 C 0.19505 0.73717 0.15245 0.0
C946 C 0.16316 0.69711 0.14768 0.0
C947 C 0.12626 0.70172 0.09636 0.0
C948 C 0.14031 0.70721 0.1133 0.0
C949 C 0.18053 0.7247 0.16173 0.0
C950 C 0.16669 0.71844 0.14522 0.0
H951 H 0.11218 0.71457 0.03806 0.0
H952 H 0.13819 0.71936 0.06476 0.0
H953 H 0.14804 0.67486 0.13394 0.0
H954 H 0.18754 0.72379 0.22172 0.0
H955 H 0.16741 0.70992 0.19457 0.0
C956 C 0.36542 0.9446 0.04599 0.0
C957 C 0.37409 0.95971 0.03051 0.0
C958 C 0.36267 0.92549 0.0374 0.0
C959 C 0.34242 0.89875 1.00881 0.0
H960 H 0.38189 0.86626 0.95952 0.0
C961 C 0.31413 0.85709 0.93617 0.0
C962 C 0.32847 0.83804 0.92654 0.0
C963 C 0.32064 0.8674 0.95399 0.0
C964 C 0.37083 0.87481 0.97359 0.0
H965 H 0.38754 0.96599 0.99412 0.0
H966 H 0.38274 0.93279 0.97915 0.0
H967 H 0.39348 0.89222 0.98114 0.0
H968 H 0.36018 0.81379 0.92942 0.0
H969 H 0.37154 0.83176 0.9607 0.0
H970 H 0.31962 0.88162 1.00096 0.0
C971 C 0.37828 0.93555 0.99802 0.0
C972 C 0.37739 0.88991 0.98577 0.0
C973 C 0.38103 0.95464 1.00661 0.0
C974 C 0.34892 0.82869 0.93622 0.0
C975 C 0.35543 0.83898 0.9541 0.0
C976 C 0.33586 0.88363 0.99664 0.0
C977 C 0.36858 0.92104 0.01315 0.0
C978 C 0.36302 0.90253 1.003 0.0
C979 C 0.34162 0.85885 0.96263 0.0
C980 C 0.34975 0.87199 0.97839 0.0
H981 H 0.36032 0.94781 0.06464 0.0
H982 H 0.35549 0.91444 0.04961 0.0
H983 H 0.33089 0.9083 0.02188 0.0
H984 H 0.29836 0.86485 0.92892 0.0
H985 H 0.30968 0.88283 0.95993 0.0
C986 C 0.11138 0.30662 0.9956 0.0
C987 C 0.10944 0.32505 1.00891 0.0
C988 C 0.12472 0.30364 0.97417 0.0
C989 C 0.17141 0.32066 0.94129 0.0
H990 H 0.15627 0.29367 0.8884 0.0
C991 C 0.22537 0.30911 0.85232 0.0
C992 C 0.23113 0.28744 0.84453 0.0
C993 C 0.20855 0.31549 0.87027 0.0
C994 C 0.16072 0.30118 0.90306 0.0
H995 H 0.11997 0.35503 1.00946 0.0
H996 H 0.14254 0.35024 0.97179 0.0
H997 H 0.13067 0.30177 0.9238 0.0
H998 H 0.22287 0.25589 0.84858 0.0
H999 H 0.19337 0.26714 0.87974 0.0
H1000 H 0.20142 0.3201 0.92048 0.0
C1001 C 0.1341 0.33778 0.97825 0.0
C1002 C 0.14611 0.30575 0.92341 0.0
C1003 C 0.12088 0.34068 0.9998 0.0
C1004 C 0.21888 0.2727 0.85417 0.0
C1005 C 0.20192 0.27917 0.87199 0.0
C1006 C 0.1859 0.31629 0.92086 0.0
C1007 C 0.13638 0.31909 0.96525 0.0
C1008 C 0.15136 0.31533 0.94294 0.0
C1009 C 0.19697 0.30042 0.88069 0.0
C1010 C 0.18082 0.30631 0.90161 0.0
H1011 H 0.10263 0.29437 1.00165 0.0
H1012 H 0.12622 0.28889 0.96489 0.0
H1013 H 0.17626 0.32764 0.95608 0.0
H1014 H 0.23442 0.32091 0.8453 0.0
H1015 H 0.20491 0.33209 0.87638 0.0
C1016 C 0.79504 0.07805 0.9694 0.0
C1017 C 0.81437 0.06157 0.96327 0.0
C1018 C 0.79032 0.09934 0.95721 0.0
C1019 C 0.77803 0.13789 0.9187 0.0
H1020 H 0.8235 0.1678 0.90269 0.0
C1021 C 0.76885 0.21761 0.85239 0.0
C1022 C 0.77963 0.23314 0.85734 0.0
C1023 C 0.7711 0.1976 0.86707 0.0
C1024 C 0.81054 0.15979 0.90726 0.0
H1025 H 0.84402 0.05465 0.93974 0.0
H1026 H 0.83578 0.09197 0.91831 0.0
H1027 H 0.83222 0.13089 0.92456 0.0
H1028 H 0.79963 0.24077 0.88276 0.0
H1029 H 0.80311 0.20623 0.90853 0.0
H1030 H 0.75629 0.16696 0.9016 0.0
C1031 C 0.82436 0.0884 0.93273 0.0
C1032 C 0.81563 0.13849 0.9195 0.0
C1033 C 0.82911 0.06704 0.94499 0.0
C1034 C 0.79132 0.22903 0.87825 0.0
C1035 C 0.79348 0.20914 0.89293 0.0
C1036 C 0.77294 0.15921 0.90641 0.0
C1037 C 0.80481 0.10472 0.93859 0.0
C1038 C 0.79944 0.1273 0.92538 0.0
C1039 C 0.78408 0.19283 0.88702 0.0
C1040 C 0.78913 0.17042 0.9006 0.0
H1041 H 0.78358 0.07457 0.98379 0.0
H1042 H 0.77536 0.11166 0.96254 0.0
H1043 H 0.76523 0.12959 0.92273 0.0
H1044 H 0.75981 0.22022 0.83636 0.0
H1045 H 0.76367 0.18536 0.862 0.0
C1046 C 0.95515 0.73562 0.95479 0.0
C1047 C 0.97506 0.72074 0.94716 0.0
C1048 C 0.93711 0.74109 0.94064 0.0
C1049 C 0.91471 0.72155 0.89047 0.0
H1050 H 0.87579 0.78175 0.88772 0.0
C1051 C 0.84233 0.75084 0.82785 0.0
C1052 C 0.8224 0.76323 0.83855 0.0
C1053 C 0.86166 0.74613 0.83984 0.0
C1054 C 0.88642 0.76481 0.8884 0.0
H1055 H 0.9916 0.70025 0.91832 0.0
H1056 H 0.96031 0.70991 0.89356 0.0
H1057 H 0.90799 0.77258 0.91103 0.0
H1058 H 0.80715 0.78079 0.8699 0.0
H1059 H 0.8407 0.77266 0.89072 0.0
H1060 H 0.89308 0.71387 0.86774 0.0
C1061 C 0.95845 0.71704 0.91074 0.0
C1062 C 0.90488 0.75952 0.90186 0.0
C1063 C 0.97645 0.71149 0.92496 0.0
C1064 C 0.82225 0.77115 0.86121 0.0
C1065 C 0.84152 0.76661 0.87308 0.0
C1066 C 0.89629 0.72689 0.87689 0.0
C1067 C 0.9385 0.73191 0.91837 0.0
C1068 C 0.91919 0.73774 0.9033 0.0
C1069 C 0.86147 0.75392 0.86266 0.0
C1070 C 0.88178 0.74854 0.8759 0.0
H1071 H 0.95337 0.7428 0.97192 0.0
H1072 H 0.92195 0.75226 0.94739 0.0
H1073 H 0.92513 0.70453 0.89137 0.0
H1074 H 0.84295 0.74458 0.81035 0.0
H1075 H 0.87677 0.73649 0.8312 0.0
C1076 C 0.14363 0.26735 0.12225 0.0
C1077 C 0.12108 0.27651 0.12752 0.0
C1078 C 0.15866 0.26602 0.13942 0.0
C1079 C 0.16536 0.2927 0.19305 0.0
H1080 H 0.21729 0.24263 0.19894 0.0
C1081 C 0.23244 0.28985 0.25828 0.0
C1082 C 0.25419 0.28163 0.24909 0.0
C1083 C 0.21508 0.28781 0.24583 0.0
C1084 C 0.20298 0.25686 0.19742 0.0
H1085 H 0.09672 0.2909 0.15544 0.0
H1086 H 0.12299 0.28854 0.18542 0.0
H1087 H 0.1892 0.24123 0.17304 0.0
H1088 H 0.27474 0.26482 0.2197 0.0
H1089 H 0.24478 0.26161 0.19797 0.0
H1090 H 0.1794 0.30857 0.21699 0.0
C1091 C 0.12903 0.28253 0.16787 0.0
C1092 C 0.18682 0.25602 0.18255 0.0
C1093 C 0.11394 0.2837 0.15073 0.0
C1094 C 0.25818 0.27128 0.22733 0.0
C1095 C 0.24094 0.26925 0.21494 0.0
C1096 C 0.18159 0.29358 0.20788 0.0
C1097 C 0.15163 0.27395 0.16234 0.0
C1098 C 0.16794 0.27407 0.17983 0.0
C1099 C 0.21911 0.27751 0.22392 0.0
C1100 C 0.20083 0.27583 0.20994 0.0
H1101 H 0.14977 0.26169 0.10458 0.0
H1102 H 0.17592 0.25952 0.13438 0.0
H1103 H 0.15116 0.30702 0.19123 0.0
H1104 H 0.22884 0.29804 0.27493 0.0
H1105 H 0.19852 0.29423 0.25343 0.0
C1106 C 0.08238 0.7537 0.95329 0.0
C1107 C 0.07679 0.76469 0.9747 0.0
C1108 C 0.10115 0.75481 0.93865 0.0
C1109 C 0.15466 0.76739 0.94048 0.0
H1110 H 0.15669 0.76501 0.87111 0.0
C1111 C 0.22811 0.7787 0.87492 0.0
C1112 C 0.23466 0.76465 0.85588 0.0
C1113 C 0.20927 0.7786 0.88998 0.0
C1114 C 0.15649 0.76546 0.89049 0.0
H1115 H 0.0864 0.78619 0.99689 0.0
H1116 H 0.11874 0.78875 0.97099 0.0
H1117 H 0.1226 0.76665 0.89532 0.0
H1118 H 0.22656 0.73913 0.8382 0.0
H1119 H 0.19376 0.739 0.8644 0.0
H1120 H 0.18856 0.76659 0.93542 0.0
C1121 C 0.10889 0.77874 0.96581 0.0
C1122 C 0.13688 0.76638 0.90446 0.0
C1123 C 0.09015 0.77749 0.98058 0.0
C1124 C 0.22212 0.75012 0.85269 0.0
C1125 C 0.20316 0.75019 0.86759 0.0
C1126 C 0.17423 0.76669 0.92646 0.0
C1127 C 0.1149 0.76711 0.9448 0.0
C1128 C 0.13566 0.76718 0.92973 0.0
C1129 C 0.19632 0.76463 0.88625 0.0
C1130 C 0.17546 0.76554 0.90129 0.0
H1131 H 0.07264 0.74353 0.94818 0.0
H1132 H 0.10523 0.74533 0.92291 0.0
H1133 H 0.15462 0.7676 0.95987 0.0
H1134 H 0.23729 0.79018 0.87789 0.0
H1135 H 0.20445 0.79003 0.90406 0.0
C1136 C 0.3061 0.11757 0.03097 0.0
C1137 C 0.3137 0.09452 0.02814 0.0
C1138 C 0.30424 0.13329 0.01088 0.0
C1139 C 0.30279 0.14096 0.9438 0.0
H1140 H 0.3229 0.19255 0.95136 0.0
C1141 C 0.31334 0.20612 0.86349 0.0
C1142 C 0.30674 0.22868 0.86854 0.0
C1143 C 0.31412 0.18904 0.88223 0.0
C1144 C 0.31698 0.1784 0.94895 0.0
H1145 H 0.32444 0.07001 1.00166 0.0
H1146 H 0.32127 0.09747 0.96659 0.0
H1147 H 0.32333 0.16447 0.98512 0.0
H1148 H 0.29548 0.25102 0.89708 0.0
H1149 H 0.29673 0.22151 0.9295 0.0
H1150 H 0.29649 0.15504 0.90748 0.0
C1151 C 0.31663 0.10338 0.9844 0.0
C1152 C 0.31719 0.16226 0.96839 0.0
C1153 C 0.31848 0.08761 1.00455 0.0
C1154 C 0.30085 0.2338 0.8926 0.0
C1155 C 0.30167 0.21682 0.91124 0.0
C1156 C 0.30257 0.15718 0.92427 0.0
C1157 C 0.30998 0.12646 0.98734 0.0
C1158 C 0.30991 0.1434 0.96622 0.0
C1159 C 0.3084 0.19418 0.9064 0.0
C1160 C 0.30947 0.17625 0.92667 0.0
H1161 H 0.30212 0.12356 0.04881 0.0
H1162 H 0.29857 0.15088 0.01386 0.0
H1163 H 0.29695 0.12675 0.94147 0.0
H1164 H 0.31785 0.20168 0.84508 0.0
H1165 H 0.31951 0.1718 0.87782 0.0
C1166 C 1.01874 0.26817 0.04796 0.0
C1167 C 0.02986 0.28385 0.03822 0.0
C1168 C 1.00467 0.26194 0.03389 0.0
C1169 C 0.99033 0.26299 0.97051 0.0
H1170 H 0.93145 0.26807 0.9985 0.0
C1171 C 0.92338 0.25181 0.9143 0.0
C1172 C 0.90289 0.26782 0.91627 0.0
C1173 C 0.93923 0.25015 0.93061 0.0
C1174 C 0.94782 0.26657 0.99041 0.0
H1175 H 0.03589 0.3044 1.00598 0.0
H1176 H 1.01199 0.29324 0.98146 0.0
H1177 H 0.95964 0.27063 0.0239 0.0
H1178 H 0.88286 0.29409 0.93767 0.0
H1179 H 0.9106 0.2914 0.96589 0.0
H1180 H 0.97847 0.25977 0.93687 0.0
C1181 C 1.01391 0.28575 0.99984 0.0
C1182 C 0.96405 0.26776 1.00505 0.0
C1183 C 0.02759 0.2922 0.01393 0.0
C1184 C 0.89851 0.28172 0.93542 0.0
C1185 C 0.91436 0.28 0.9518 0.0
C1186 C 0.97418 0.26167 0.95593 0.0
C1187 C 1.00184 0.27097 1.00975 0.0
C1188 C 0.9854 0.26647 0.99515 0.0
C1189 C 0.93506 0.26441 0.9494 0.0
C1190 C 0.95259 0.26388 0.96555 0.0
H1191 H 1.01999 0.26171 0.06674 0.0
H1192 H 0.99566 0.25042 0.04201 0.0
H1193 H 1.00664 0.26177 0.96233 0.0
H1194 H 0.92748 0.24096 0.89967 0.0
H1195 H 0.95488 0.23778 0.92833 0.0
C1196 C 0.76279 0.95775 0.95702 0.0
C1197 C 0.78175 0.96496 0.95184 0.0
C1198 C 0.7563 0.94594 0.94041 0.0
C1199 C 0.76597 0.93168 0.87619 0.0
H1200 H 0.75285 0.87653 0.90178 0.0
C1201 C 0.78053 0.85606 0.82027 0.0
C1202 C 0.76566 0.84307 0.82359 0.0
C1203 C 0.77823 0.87373 0.83455 0.0
C1204 C 0.7561 0.89206 0.89432 0.0
H1205 H 0.80812 0.9664 0.92474 0.0
H1206 H 0.79698 0.94598 0.89615 0.0
H1207 H 0.75583 0.90299 0.92948 0.0
H1208 H 0.73628 0.83896 0.84412 0.0
H1209 H 0.73233 0.86981 0.86907 0.0
H1210 H 0.76708 0.92034 0.84109 0.0
C1211 C 0.78696 0.94943 0.91283 0.0
C1212 C 0.75777 0.90727 0.91021 0.0
C1213 C 0.79347 0.96102 0.92938 0.0
C1214 C 0.74803 0.84862 0.84104 0.0
C1215 C 0.74583 0.86621 0.85547 0.0
C1216 C 0.76441 0.91645 0.86033 0.0
C1217 C 0.76853 0.94138 0.91824 0.0
C1218 C 0.76331 0.92698 0.90137 0.0
C1219 C 0.76108 0.87878 0.85261 0.0
C1220 C 0.76 0.8962 0.86923 0.0
H1221 H 0.75344 0.96051 0.97419 0.0
H1222 H 0.74192 0.94012 0.94505 0.0
H1223 H 0.76983 0.94691 0.86873 0.0
H1224 H 0.79431 0.85226 0.80702 0.0
H1225 H 0.7904 0.8829 0.83204 0.0
C1226 C 0.9736 0.72269 0.07733 0.0
C1227 C 0.98229 0.73923 0.06454 0.0
C1228 C 0.95939 0.72731 0.09786 0.0
C1229 C 0.91973 0.77141 0.1294 0.0
H1230 H 0.9297 0.72672 0.18408 0.0
C1231 C 0.86287 0.78074 0.218 0.0
C1232 C 0.85821 0.76127 0.22943 0.0
C1233 C 0.87882 0.77952 0.19872 0.0
C1234 C 0.92646 0.73928 0.16893 0.0
H1235 H 0.98234 0.77392 0.06333 0.0
H1236 H 0.95693 0.78218 0.09945 0.0
H1237 H 0.95584 0.72265 0.14905 0.0
H1238 H 0.86678 0.7252 0.22925 0.0
H1239 H 0.89423 0.72306 0.19554 0.0
H1240 H 0.88997 0.78772 0.14902 0.0
C1241 C 0.96142 0.76552 0.09337 0.0
C1242 C 0.94157 0.73701 0.14886 0.0
C1243 C 0.97599 0.76079 0.07274 0.0
C1244 C 0.87001 0.74054 0.22108 0.0
C1245 C 0.8859 0.73932 0.20175 0.0
C1246 C 0.90446 0.77364 0.14949 0.0
C1247 C 0.9532 0.74867 0.10633 0.0
C1248 C 0.93823 0.75279 0.12864 0.0
C1249 C 0.89056 0.75879 0.19024 0.0
C1250 C 0.90742 0.75737 0.16939 0.0
H1251 H 0.9779 0.70588 0.07167 0.0
H1252 H 0.9531 0.71405 0.10707 0.0
H1253 H 0.91659 0.78378 0.11406 0.0
H1254 H 0.85413 0.79704 0.22389 0.0
H1255 H 0.88206 0.79486 0.19061 0.0
C1256 C 0.33947 0.98208 0.14951 0.0
C1257 C 0.32768 0.992 0.12924 0.0
C1258 C 0.33344 0.96548 0.16499 0.0
C1259 C 0.30432 0.92219 0.16674 0.0
H1260 H 0.31304 0.91704 0.23523 0.0
C1261 C 0.2864 0.8506 0.23405 0.0
C1262 C 0.30202 0.84071 0.25106 0.0
C1263 C 0.28757 0.86993 0.21939 0.0
C1264 C 0.31067 0.91813 0.21612 0.0
H1265 H 0.29979 0.99259 0.10974 0.0
H1266 H 0.28899 0.96348 0.1371 0.0
H1267 H 0.31709 0.95005 0.20997 0.0
H1268 H 0.33119 0.84352 0.26583 0.0
H1269 H 0.33321 0.87716 0.24032 0.0
H1270 H 0.29799 0.89011 0.17302 0.0
C1271 C 0.30312 0.96853 0.14081 0.0
C1272 C 0.31296 0.9371 0.20159 0.0
C1273 C 0.30916 0.98536 0.12526 0.0
C1274 C 0.31887 0.85063 0.25297 0.0
C1275 C 0.31994 0.87005 0.23844 0.0
C1276 C 0.3019 0.90322 0.18134 0.0
C1277 C 0.31537 0.9582 0.16075 0.0
C1278 C 0.31029 0.93921 0.1766 0.0
C1279 C 0.30428 0.87999 0.22149 0.0
C1280 C 0.30546 0.90076 0.20614 0.0
H1281 H 0.35382 0.98677 0.15319 0.0
H1282 H 0.34351 0.95779 0.17985 0.0
H1283 H 0.30235 0.92308 0.14756 0.0
H1284 H 0.27317 0.84346 0.23206 0.0
H1285 H 0.27515 0.87721 0.20668 0.0
C1286 C 0.76494 0.05253 0.06186 0.0
C1287 C 0.77935 0.0319 0.06936 0.0
C1288 C 0.7602 0.0705 0.07639 0.0
C1289 C 0.7637 0.08543 0.1382 0.0
H1290 H 0.77522 0.13925 0.10568 0.0
C1291 C 0.78297 0.15059 0.19124 0.0
C1292 C 0.7745 0.17339 0.18381 0.0
C1293 C 0.78134 0.1341 0.17706 0.0
C1294 C 0.77159 0.12453 0.11504 0.0
H1295 H 0.79898 0.01334 0.09835 0.0
H1296 H 0.79034 0.04432 0.12385 0.0
H1297 H 0.77382 0.10919 0.08199 0.0
H1298 H 0.75829 0.19663 0.15511 0.0
H1299 H 0.75495 0.1679 0.13072 0.0
H1300 H 0.76165 0.10055 0.17125 0.0
C1301 C 0.78276 0.04682 0.10682 0.0
C1302 C 0.77073 0.10731 0.10143 0.0
C1303 C 0.78775 0.02908 0.0922 0.0
C1304 C 0.76476 0.17924 0.16157 0.0
C1305 C 0.76303 0.16274 0.14743 0.0
C1306 C 0.76441 0.10268 0.15179 0.0
C1307 C 0.7695 0.06793 0.09879 0.0
C1308 C 0.76722 0.08739 0.1129 0.0
C1309 C 0.77109 0.13994 0.15513 0.0
C1310 C 0.76883 0.12226 0.14044 0.0
H1311 H 0.75847 0.05519 0.04419 0.0
H1312 H 0.74982 0.08656 0.06982 0.0
H1313 H 0.76073 0.07037 0.14752 0.0
H1314 H 0.79035 0.1454 0.20836 0.0
H1315 H 0.78812 0.11673 0.18337 0.0
C1316 C 0.59604 0.56807 0.86923 0.0
C1317 C 0.57877 0.57209 0.88726 0.0
C1318 C 0.60885 0.58291 0.86387 0.0
C1319 C 0.60718 0.64161 0.86812 0.0
H1320 H 0.67006 0.62051 0.85586 0.0
C1321 C 0.66202 0.7011 0.85931 0.0
C1322 C 0.67998 0.69736 0.84214 0.0
C1323 C 0.64972 0.68575 0.86408 0.0
C1324 C 0.65248 0.62668 0.85889 0.0
H1325 H 0.56169 0.59474 0.91403 0.0
H1326 H 0.58421 0.62055 0.90486 0.0
H1327 H 0.64892 0.59356 0.86641 0.0
H1328 H 0.69891 0.67462 0.81629 0.0
H1329 H 0.6771 0.64798 0.82425 0.0
H1330 H 0.61065 0.67469 0.86049 0.0
C1331 C 0.58768 0.60599 0.89471 0.0
C1332 C 0.64038 0.61123 0.86501 0.0
C1333 C 0.57493 0.59107 0.90016 0.0
C1334 C 0.68511 0.67806 0.82952 0.0
C1335 C 0.67276 0.66267 0.83429 0.0
C1336 C 0.61925 0.65704 0.86192 0.0
C1337 C 0.60465 0.60219 0.87634 0.0
C1338 C 0.6176 0.61853 0.86983 0.0
C1339 C 0.65498 0.66629 0.85173 0.0
C1340 C 0.64208 0.64978 0.85738 0.0
H1341 H 0.59961 0.55345 0.85917 0.0
H1342 H 0.62171 0.57956 0.84953 0.0
H1343 H 0.5896 0.64777 0.87125 0.0
H1344 H 0.6574 0.71595 0.86911 0.0
H1345 H 0.63631 0.68899 0.8778 0.0
C1346 C 0.45935 0.57938 0.8734 0.0
C1347 C 0.4751 0.5691 0.85571 0.0
C1348 C 0.44171 0.59744 0.86711 0.0
C1349 C 0.40679 0.62646 0.81875 0.0
H1350 H 0.39415 0.67583 0.85926 0.0
C1351 C 0.33755 0.70973 0.80258 0.0
C1352 C 0.32641 0.7199 0.82321 0.0
C1353 C 0.35544 0.69068 0.8048 0.0
C1354 C 0.39722 0.66211 0.84794 0.0
H1355 H 0.48416 0.56951 0.81726 0.0
H1356 H 0.45281 0.60141 0.80611 0.0
H1357 H 0.42631 0.6444 0.86532 0.0
H1358 H 0.32446 0.71732 0.86234 0.0
H1359 H 0.35526 0.68389 0.86631 0.0
H1360 H 0.37736 0.64417 0.80162 0.0
C1361 C 0.45442 0.59528 0.82495 0.0
C1362 C 0.41578 0.64412 0.85133 0.0
C1363 C 0.47237 0.57709 0.83132 0.0
C1364 C 0.33282 0.70999 0.84611 0.0
C1365 C 0.35063 0.69093 0.84834 0.0
C1366 C 0.38807 0.64453 0.81539 0.0
C1367 C 0.43912 0.60585 0.84291 0.0
C1368 C 0.4206 0.62588 0.83712 0.0
C1369 C 0.36255 0.68135 0.82772 0.0
C1370 C 0.38283 0.66239 0.83028 0.0
H1371 H 0.46068 0.57368 0.89237 0.0
H1372 H 0.43002 0.60488 0.88133 0.0
H1373 H 0.41003 0.61259 0.80759 0.0
H1374 H 0.33296 0.71699 0.78465 0.0
H1375 H 0.36423 0.68382 0.78853 0.0
C1376 C 0.48774 0.4404 0.90165 0.0
C1377 C 0.48502 0.46182 0.88959 0.0
C1378 C 0.47514 0.42674 0.89636 0.0
C1379 C 0.44339 0.41906 0.84768 0.0
H1380 H 0.41826 0.38349 0.89717 0.0
C1381 C 0.37736 0.3787 0.82816 0.0
C1382 C 0.37848 0.35698 0.83862 0.0
C1383 C 0.39136 0.39029 0.83463 0.0
C1384 C 0.42543 0.3931 0.88312 0.0
H1385 H 0.46608 0.48617 0.8636 0.0
H1386 H 0.44414 0.4625 0.85445 0.0
H1387 H 0.44044 0.40626 0.90868 0.0
H1388 H 0.39545 0.33031 0.8639 0.0
H1389 H 0.41992 0.35066 0.87527 0.0
H1390 H 0.42832 0.40611 0.82214 0.0
C1391 C 0.45637 0.45598 0.86753 0.0
C1392 C 0.4381 0.40615 0.88972 0.0
C1393 C 0.46893 0.46957 0.87279 0.0
C1394 C 0.39401 0.3471 0.85569 0.0
C1395 C 0.40801 0.35875 0.86222 0.0
C1396 C 0.43076 0.40605 0.84111 0.0
C1397 C 0.45957 0.43426 0.87891 0.0
C1398 C 0.44697 0.41951 0.87207 0.0
C1399 C 0.40682 0.38049 0.85175 0.0
C1400 C 0.42138 0.39316 0.85876 0.0
H1401 H 0.50011 0.43389 0.91455 0.0
H1402 H 0.47806 0.41004 0.90536 0.0
H1403 H 0.45041 0.42876 0.83358 0.0
H1404 H 0.36529 0.38702 0.81536 0.0
H1405 H 0.38974 0.40716 0.82656 0.0
C1406 C 0.59549 0.46574 0.82752 0.0
C1407 C 0.59222 0.47165 0.85151 0.0
C1408 C 0.61482 0.44993 0.81987 0.0
C1409 C 0.67189 0.4246 0.83644 0.0
H1410 H 0.67108 0.37435 0.80195 0.0
C1411 C 0.75167 0.35795 0.81371 0.0
C1412 C 0.75134 0.33552 0.81756 0.0
C1413 C 0.7322 0.3752 0.81359 0.0
C1414 C 0.67157 0.38826 0.81164 0.0
H1415 H 0.60683 0.46563 0.88611 0.0
H1416 H 0.63991 0.43857 0.87291 0.0
H1417 H 0.63709 0.40383 0.80956 0.0
H1418 H 0.73038 0.31346 0.82351 0.0
H1419 H 0.69619 0.34368 0.82404 0.0
H1420 H 0.70588 0.40892 0.83964 0.0
C1421 C 0.62783 0.4461 0.85987 0.0
C1422 C 0.65214 0.40528 0.81572 0.0
C1423 C 0.60868 0.4616 0.86748 0.0
C1424 C 0.73109 0.33063 0.8206 0.0
C1425 C 0.71152 0.34796 0.8207 0.0
C1426 C 0.69118 0.40771 0.83242 0.0
C1427 C 0.63126 0.44006 0.836 0.0
C1428 C 0.65204 0.42341 0.82864 0.0
C1429 C 0.71184 0.37051 0.81763 0.0
C1430 C 0.69129 0.38912 0.82027 0.0
H1431 H 0.58308 0.4731 0.81482 0.0
H1432 H 0.61703 0.44561 0.80133 0.0
H1433 H 0.67245 0.43845 0.84622 0.0
H1434 H 0.76703 0.36222 0.81096 0.0
H1435 H 0.73316 0.39228 0.81058 0.0
C1436 C 0.6051 0.47814 0.28039 0.0
C1437 C 0.60456 0.48725 0.2562 0.0
C1438 C 0.62304 0.46054 0.28791 0.0
C1439 C 0.68095 0.432 0.26918 0.0
H1440 H 0.66996 0.37934 0.3052 0.0
C1441 C 0.74014 0.34435 0.26305 0.0
C1442 C 0.74376 0.32963 0.28402 0.0
C1443 C 0.72451 0.36511 0.26358 0.0
C1444 C 0.67336 0.39405 0.29549 0.0
H1445 H 0.62271 0.48542 0.22119 0.0
H1446 H 0.65348 0.45511 0.23412 0.0
H1447 H 0.63982 0.41337 0.29952 0.0
H1448 H 0.73424 0.32525 0.32218 0.0
H1449 H 0.7066 0.36159 0.32305 0.0
H1450 H 0.71424 0.41247 0.26429 0.0
C1451 C 0.64032 0.46149 0.24744 0.0
C1452 C 0.65609 0.41357 0.29228 0.0
C1453 C 0.62248 0.47881 0.23995 0.0
C1454 C 0.73174 0.33626 0.30572 0.0
C1455 C 0.71587 0.357 0.3062 0.0
C1456 C 0.69812 0.41252 0.27228 0.0
C1457 C 0.64083 0.45198 0.27143 0.0
C1458 C 0.65957 0.43256 0.27842 0.0
C1459 C 0.712 0.37159 0.28507 0.0
C1460 C 0.69442 0.39311 0.28486 0.0
H1461 H 0.59152 0.48427 0.29333 0.0
H1462 H 0.62297 0.45361 0.30656 0.0
H1463 H 0.68431 0.44647 0.25888 0.0
H1464 H 0.74918 0.33969 0.24608 0.0
H1465 H 0.72177 0.37583 0.24693 0.0
C1466 C 0.62168 0.57366 0.221 0.0
C1467 C 0.60183 0.58651 0.21181 0.0
C1468 C 0.63834 0.58345 0.2235 0.0
C1469 C 0.64674 0.63738 0.23229 0.0
H1470 H 0.70782 0.60751 0.21703 0.0
C1471 C 0.7151 0.67823 0.24377 0.0
C1472 C 0.73464 0.66433 0.25281 0.0
C1473 C 0.69917 0.6691 0.23714 0.0
C1474 C 0.69086 0.61596 0.22165 0.0
H1475 H 0.58408 0.61961 0.19753 0.0
H1476 H 0.61326 0.63678 0.20185 0.0
H1477 H 0.67972 0.59092 0.20759 0.0
H1478 H 0.75271 0.62982 0.26175 0.0
H1479 H 0.72462 0.61396 0.25102 0.0
H1480 H 0.65778 0.66212 0.24691 0.0
C1481 C 0.61585 0.61912 0.20722 0.0
C1482 C 0.67477 0.60649 0.21614 0.0
C1483 C 0.59923 0.60926 0.20452 0.0
C1484 C 0.73778 0.64106 0.25512 0.0
C1485 C 0.72178 0.63193 0.24862 0.0
C1486 C 0.66283 0.64678 0.23795 0.0
C1487 C 0.63547 0.60636 0.21701 0.0
C1488 C 0.65254 0.61703 0.22154 0.0
C1489 C 0.70227 0.64583 0.23952 0.0
C1490 C 0.68511 0.63613 0.23285 0.0
H1491 H 0.62423 0.55604 0.22652 0.0
H1492 H 0.6532 0.5732 0.23125 0.0
H1493 H 0.62976 0.64572 0.23701 0.0
H1494 H 0.71197 0.69624 0.24202 0.0
H1495 H 0.68447 0.68032 0.22996 0.0
C1496 C 0.46686 0.58483 0.26198 0.0
C1497 C 0.48856 0.58393 0.26534 0.0
C1498 C 0.44968 0.60286 0.26908 0.0
C1499 C 0.43687 0.66224 0.27386 0.0
H1500 H 0.3821 0.65495 0.30464 0.0
C1501 C 0.35766 0.7367 0.28168 0.0
C1502 C 0.33829 0.73187 0.27731 0.0
C1503 C 0.37715 0.71943 0.28415 0.0
C1504 C 0.39722 0.65732 0.29587 0.0
H1505 H 0.50941 0.60091 0.27917 0.0
H1506 H 0.47915 0.63305 0.29118 0.0
H1507 H 0.41422 0.62274 0.30318 0.0
H1508 H 0.3242 0.70531 0.27165 0.0
H1509 H 0.35791 0.67556 0.27526 0.0
H1510 H 0.41959 0.6966 0.26538 0.0
C1511 C 0.47552 0.61952 0.28335 0.0
C1512 C 0.41566 0.63887 0.29523 0.0
C1513 C 0.49277 0.60109 0.27671 0.0
C1514 C 0.33883 0.7096 0.27512 0.0
C1515 C 0.35817 0.69245 0.27748 0.0
C1516 C 0.41831 0.68073 0.27429 0.0
C1517 C 0.45383 0.6207 0.27925 0.0
C1518 C 0.43552 0.64098 0.28365 0.0
C1519 C 0.37758 0.69703 0.28227 0.0
C1520 C 0.39807 0.67834 0.28465 0.0
H1521 H 0.46321 0.57186 0.25312 0.0
H1522 H 0.43319 0.60338 0.26547 0.0
H1523 H 0.45194 0.66431 0.26464 0.0
H1524 H 0.35773 0.75374 0.28332 0.0
H1525 H 0.39177 0.72359 0.28785 0.0
C1526 C 0.48435 0.48755 0.24272 0.0
C1527 C 0.49991 0.48533 0.22288 0.0
C1528 C 0.47081 0.47334 0.24699 0.0
C1529 C 0.4675 0.41801 0.23382 0.0
H1530 H 0.4061 0.44082 0.25406 0.0
C1531 C 0.40806 0.36366 0.23874 0.0
C1532 C 0.39239 0.36526 0.25843 0.0
C1533 C 0.42082 0.3786 0.23467 0.0
C1534 C 0.42327 0.43414 0.24871 0.0
H1535 H 0.51327 0.46646 0.19188 0.0
H1536 H 0.48945 0.44183 0.19913 0.0
H1537 H 0.4289 0.46648 0.24607 0.0
H1538 H 0.37781 0.38393 0.28925 0.0
H1539 H 0.40024 0.41006 0.28221 0.0
H1540 H 0.46196 0.38571 0.23651 0.0
C1541 C 0.4879 0.45445 0.21154 0.0
C1542 C 0.43633 0.44885 0.24409 0.0
C1543 C 0.50139 0.46873 0.20723 0.0
C1544 C 0.38963 0.38235 0.27383 0.0
C1545 C 0.40246 0.39733 0.26977 0.0
C1546 C 0.45447 0.40332 0.23846 0.0
C1547 C 0.47252 0.45652 0.23155 0.0
C1548 C 0.45858 0.44096 0.2365 0.0
C1549 C 0.41828 0.39555 0.25019 0.0
C1550 C 0.43218 0.41121 0.24585 0.0
H1551 H 0.48255 0.50035 0.25495 0.0
H1552 H 0.45925 0.47528 0.26265 0.0
H1553 H 0.48466 0.41132 0.22844 0.0
H1554 H 0.41027 0.35101 0.22619 0.0
H1555 H 0.43251 0.37703 0.21913 0.0
C1556 C 0.79902 0.60246 0.61935 0.0
C1557 C 0.81966 0.59708 0.60664 0.0
C1558 C 0.79416 0.61802 0.63685 0.0
C1559 C 0.81252 0.66411 0.65666 0.0
H1560 H 0.78462 0.65078 0.71907 0.0
C1561 C 0.81411 0.71278 0.73741 0.0
C1562 C 0.79447 0.72025 0.75155 0.0
C1563 C 0.81614 0.69721 0.72057 0.0
C1564 C 0.79223 0.65484 0.70165 0.0
H1565 H 0.85117 0.60416 0.60207 0.0
H1566 H 0.84278 0.63096 0.6323 0.0
H1567 H 0.78907 0.62564 0.68706 0.0
H1568 H 0.76185 0.71632 0.7598 0.0
H1569 H 0.76545 0.68907 0.73035 0.0
H1570 H 0.81591 0.6931 0.67114 0.0
C1571 C 0.83023 0.62341 0.62875 0.0
C1572 C 0.79472 0.64048 0.68329 0.0
C1573 C 0.8351 0.60788 0.61146 0.0
C1574 C 0.77724 0.71092 0.74925 0.0
C1575 C 0.77929 0.69528 0.73236 0.0
C1576 C 0.81008 0.67837 0.67494 0.0
C1577 C 0.80977 0.62863 0.64179 0.0
C1578 C 0.80523 0.64477 0.66069 0.0
C1579 C 0.79858 0.68868 0.71739 0.0
C1580 C 0.80024 0.67375 0.6978 0.0
H1581 H 0.78679 0.59439 0.6161 0.0
H1582 H 0.77818 0.6218 0.64646 0.0
H1583 H 0.82025 0.66819 0.63932 0.0
H1584 H 0.82778 0.71946 0.73877 0.0
H1585 H 0.8314 0.6921 0.70972 0.0
C1586 C 0.47763 0.77973 0.6188 0.0
C1587 C 0.49682 0.76546 0.6283 0.0
C1588 C 0.45724 0.78226 0.63174 0.0
C1589 C 0.43236 0.77545 0.69398 0.0
H1590 H 0.38044 0.7776 0.66208 0.0
C1591 C 0.3471 0.796 0.74507 0.0
C1592 C 0.33342 0.78262 0.7418 0.0
C1593 C 0.36611 0.79508 0.73003 0.0
C1594 C 0.39479 0.77695 0.67129 0.0
H1595 H 0.50936 0.74284 0.65918 0.0
H1596 H 0.47405 0.74709 0.6815 0.0
H1597 H 0.41545 0.77325 0.63844 0.0
H1598 H 0.32885 0.75829 0.71938 0.0
H1599 H 0.362 0.75675 0.69309 0.0
H1600 H 0.41192 0.77884 0.72684 0.0
C1601 C 0.47471 0.75643 0.66407 0.0
C1602 C 0.41484 0.77467 0.65769 0.0
C1603 C 0.49501 0.75379 0.65109 0.0
C1604 C 0.33891 0.76889 0.72245 0.0
C1605 C 0.35794 0.76804 0.7073 0.0
C1606 C 0.41234 0.77789 0.70752 0.0
C1607 C 0.45552 0.77074 0.65465 0.0
C1608 C 0.43395 0.77374 0.66888 0.0
C1609 C 0.37204 0.7808 0.71119 0.0
C1610 C 0.39326 0.77862 0.69641 0.0
H1611 H 0.47832 0.78885 0.60125 0.0
H1612 H 0.44286 0.79354 0.62396 0.0
H1613 H 0.44662 0.77505 0.70323 0.0
H1614 H 0.34345 0.80685 0.75969 0.0
H1615 H 0.37632 0.80545 0.73334 0.0
C1616 C 0.3106 0.3979 0.58349 0.0
C1617 C 0.30181 0.42113 0.58437 0.0
C1618 C 0.30756 0.38311 0.60335 0.0
C1619 C 0.29516 0.37897 0.66945 0.0
H1620 H 0.27868 0.32627 0.65763 0.0
C1621 C 0.27591 0.3161 0.7478 0.0
C1622 C 0.28294 0.29334 0.74357 0.0
C1623 C 0.27711 0.33262 0.72892 0.0
C1624 C 0.28357 0.34072 0.66133 0.0
H1625 H 0.28341 0.44698 0.60719 0.0
H1626 H 0.27821 0.42114 0.64193 0.0
H1627 H 0.28359 0.35288 0.62393 0.0
H1628 H 0.29709 0.27007 0.71643 0.0
H1629 H 0.29964 0.29847 0.684 0.0
H1630 H 0.29563 0.36655 0.70682 0.0
C1631 C 0.28738 0.41439 0.62579 0.0
C1632 C 0.28633 0.35603 0.64193 0.0
C1633 C 0.29019 0.42919 0.6058 0.0
C1634 C 0.29128 0.28746 0.72024 0.0
C1635 C 0.29261 0.30385 0.70153 0.0
C1636 C 0.29261 0.3635 0.6889 0.0
C1637 C 0.29586 0.39115 0.62474 0.0
C1638 C 0.29234 0.37526 0.64567 0.0
C1639 C 0.28545 0.3267 0.70547 0.0
C1640 C 0.28699 0.344 0.68509 0.0
H1641 H 0.31949 0.39111 0.56725 0.0
H1642 H 0.3145 0.36532 0.602 0.0
H1643 H 0.29993 0.39355 0.67295 0.0
H1644 H 0.2695 0.32112 0.76564 0.0
H1645 H 0.27128 0.35001 0.73268 0.0
C1646 C 0.58216 0.23823 0.57183 0.0
C1647 C 0.56304 0.25332 0.5631 0.0
C1648 C 0.59578 0.24516 0.58549 0.0
C1649 C 0.59748 0.28779 0.62519 0.0
H1650 H 0.66003 0.26133 0.61541 0.0
C1651 C 0.66081 0.30565 0.68358 0.0
C1652 C 0.67769 0.28694 0.6914 0.0
C1653 C 0.6468 0.304 0.66638 0.0
C1654 C 0.64261 0.26878 0.61852 0.0
H1655 H 0.54335 0.28782 0.56206 0.0
H1656 H 0.56742 0.30012 0.58626 0.0
H1657 H 0.63558 0.25497 0.58781 0.0
H1658 H 0.69271 0.2517 0.68713 0.0
H1659 H 0.66862 0.24894 0.65711 0.0
H1660 H 0.60465 0.30136 0.6562 0.0
C1661 C 0.57169 0.28276 0.58238 0.0
C1662 C 0.62855 0.26517 0.60263 0.0
C1663 C 0.55796 0.27577 0.56843 0.0
C1664 C 0.68027 0.26662 0.68129 0.0
C1665 C 0.66636 0.26501 0.66405 0.0
C1666 C 0.61162 0.29148 0.64111 0.0
C1667 C 0.59086 0.26748 0.59099 0.0
C1668 C 0.60575 0.27412 0.60608 0.0
C1669 C 0.64937 0.28364 0.65639 0.0
C1670 C 0.63435 0.28156 0.63831 0.0
H1671 H 0.58673 0.22078 0.56823 0.0
H1672 H 0.61006 0.23277 0.59215 0.0
H1673 H 0.58003 0.29484 0.62849 0.0
H1674 H 0.65845 0.32168 0.69062 0.0
H1675 H 0.63409 0.31877 0.66072 0.0
C1676 C 0.80168 0.4809 0.53479 0.0
C1677 C 0.79687 0.50419 0.53004 0.0
C1678 C 0.79177 0.46856 0.52251 0.0
C1679 C 0.77282 0.46888 0.46378 0.0
H1680 H 0.75625 0.41635 0.49251 0.0
C1681 C 0.76451 0.40195 0.40454 0.0
C1682 C 0.7749 0.3798 0.41298 0.0
C1683 C 0.76053 0.41934 0.41969 0.0
C1684 C 0.76086 0.43093 0.48415 0.0
H1685 H 0.77741 0.53309 0.50946 0.0
H1686 H 0.76032 0.51128 0.48723 0.0
H1687 H 0.76073 0.44354 0.51842 0.0
H1688 H 0.78791 0.35844 0.44445 0.0
H1689 H 0.78162 0.3886 0.47052 0.0
H1690 H 0.77437 0.45567 0.42966 0.0
C1691 C 0.77157 0.50268 0.50077 0.0
C1692 C 0.76327 0.44657 0.49901 0.0
C1693 C 0.78119 0.51514 0.51354 0.0
C1694 C 0.78021 0.37534 0.43723 0.0
C1695 C 0.77629 0.39267 0.45232 0.0
C1696 C 0.7706 0.45313 0.44891 0.0
C1697 C 0.77714 0.4792 0.50482 0.0
C1698 C 0.76998 0.46533 0.48903 0.0
C1699 C 0.76682 0.41498 0.44364 0.0
C1700 C 0.76534 0.43355 0.45898 0.0
H1701 H 0.81375 0.47211 0.54744 0.0
H1702 H 0.79661 0.45052 0.52585 0.0
H1703 H 0.77823 0.48306 0.45558 0.0
H1704 H 0.76028 0.40602 0.38593 0.0
H1705 H 0.75295 0.43626 0.41247 0.0
C1706 C 0.63059 0.78537 0.49386 0.0
C1707 C 0.62365 0.7658 0.49875 0.0
C1708 C 0.64507 0.78778 0.47384 0.0
C1709 C 0.66761 0.76389 0.41496 0.0
H1710 H 0.71272 0.79316 0.41984 0.0
C1711 C 0.74194 0.75527 0.3455 0.0
C1712 C 0.74922 0.77427 0.33792 0.0
C1713 C 0.72565 0.75584 0.36424 0.0
C1714 C 0.70005 0.78518 0.41806 0.0
H1715 H 0.62678 0.73349 0.48571 0.0
H1716 H 0.65228 0.73736 0.45171 0.0
H1717 H 0.68655 0.79094 0.45425 0.0
H1718 H 0.74486 0.80888 0.34426 0.0
H1719 H 0.71642 0.80982 0.37721 0.0
H1720 H 0.68144 0.75769 0.37899 0.0
C1721 C 0.64625 0.75111 0.46306 0.0
C1722 C 0.68498 0.78392 0.43783 0.0
C1723 C 0.63173 0.74874 0.48295 0.0
C1724 C 0.73961 0.79396 0.34954 0.0
C1725 C 0.72341 0.79445 0.36855 0.0
C1726 C 0.68276 0.76501 0.39532 0.0
C1727 C 0.65312 0.77068 0.45809 0.0
C1728 C 0.66865 0.77303 0.43668 0.0
C1729 C 0.71625 0.77536 0.37616 0.0
C1730 C 0.69933 0.77546 0.39666 0.0
H1731 H 0.62501 0.79886 0.50556 0.0
H1732 H 0.64975 0.8032 0.47059 0.0
H1733 H 0.65503 0.75586 0.41303 0.0
H1734 H 0.74894 0.73978 0.33705 0.0
H1735 H 0.72076 0.74074 0.36977 0.0
C1736 C 0.28698 0.56713 0.45023 0.0
C1737 C 0.30473 0.55943 0.46503 0.0
C1738 C 0.28401 0.58725 0.43554 0.0
C1739 C 0.29939 0.64056 0.42888 0.0
H1740 H 0.28075 0.64581 0.36382 0.0
C1741 C 0.30512 0.71469 0.3607 0.0
C1742 C 0.28835 0.72406 0.3449 0.0
C1743 C 0.30558 0.6951 0.37545 0.0
C1744 C 0.28565 0.64474 0.38206 0.0
H1745 H 0.33332 0.5671 0.4757 0.0
H1746 H 0.32837 0.60188 0.44989 0.0
H1747 H 0.28499 0.61056 0.38897 0.0
H1748 H 0.25881 0.7199 0.33236 0.0
H1749 H 0.25955 0.68552 0.3584 0.0
H1750 H 0.3002 0.6746 0.42202 0.0
C1751 C 0.31655 0.59248 0.44986 0.0
C1752 C 0.28813 0.62449 0.3965 0.0
C1753 C 0.31955 0.57234 0.4645 0.0
C1754 C 0.27194 0.71322 0.34434 0.0
C1755 C 0.27244 0.69343 0.35915 0.0
C1756 C 0.29691 0.66074 0.41449 0.0
C1757 C 0.29867 0.6003 0.43526 0.0
C1758 C 0.29529 0.62204 0.42003 0.0
C1759 C 0.28929 0.68416 0.37495 0.0
C1760 C 0.29029 0.66306 0.39076 0.0
H1761 H 0.27537 0.55756 0.44986 0.0
H1762 H 0.26997 0.59276 0.42469 0.0
H1763 H 0.30443 0.63952 0.44707 0.0
H1764 H 0.31814 0.7224 0.36166 0.0
H1765 H 0.31903 0.68831 0.38699 0.0
C1766 C 0.46175 0.26727 0.46222 0.0
C1767 C 0.46291 0.25071 0.48161 0.0
C1768 C 0.44469 0.27217 0.44649 0.0
C1769 C 0.38892 0.26659 0.44224 0.0
H1770 H 0.40363 0.26428 0.37334 0.0
C1771 C 0.32887 0.25183 0.37986 0.0
C1772 C 0.32701 0.26288 0.35656 0.0
C1773 C 0.34542 0.25264 0.39414 0.0
C1774 C 0.39912 0.26533 0.39247 0.0
H1775 H 0.44668 0.22703 0.50022 0.0
H1776 H 0.41694 0.23592 0.47353 0.0
H1777 H 0.43191 0.26323 0.40048 0.0
H1778 H 0.34124 0.28334 0.32983 0.0
H1779 H 0.37019 0.28497 0.35488 0.0
H1780 H 0.35628 0.2686 0.43456 0.0
C1781 C 0.42912 0.24506 0.4702 0.0
C1782 C 0.41537 0.26475 0.40804 0.0
C1783 C 0.44625 0.23991 0.4855 0.0
C1784 C 0.34237 0.27449 0.34765 0.0
C1785 C 0.35897 0.2754 0.36204 0.0
C1786 C 0.37271 0.26732 0.42675 0.0
C1787 C 0.42825 0.26095 0.45024 0.0
C1788 C 0.41057 0.26481 0.4332 0.0
C1789 C 0.36055 0.26471 0.38567 0.0
C1790 C 0.37764 0.26608 0.40169 0.0
H1791 H 0.47449 0.27569 0.45861 0.0
H1792 H 0.44443 0.28456 0.43132 0.0
H1793 H 0.38455 0.26705 0.46147 0.0
H1794 H 0.31736 0.24265 0.38722 0.0
H1795 H 0.34634 0.24369 0.41191 0.0
C1796 C 0.63126 0.78171 0.61617 0.0
C1797 C 0.60887 0.79308 0.61699 0.0
C1798 C 0.6451 0.78662 0.63128 0.0
C1799 C 0.64846 0.80407 0.68959 0.0
H1800 H 0.70312 0.81378 0.66135 0.0
C1801 C 0.72002 0.80767 0.74657 0.0
C1802 C 0.74092 0.79609 0.73732 0.0
C1803 C 0.70169 0.81102 0.73303 0.0
C1804 C 0.68798 0.81102 0.6696 0.0
H1805 H 0.58338 0.81855 0.63438 0.0
H1806 H 0.60781 0.82678 0.66163 0.0
H1807 H 0.67486 0.81346 0.63518 0.0
H1808 H 0.75887 0.77818 0.70719 0.0
H1809 H 0.72736 0.78364 0.68407 0.0
H1810 H 0.66216 0.80038 0.72403 0.0
C1811 C 0.6145 0.81425 0.64891 0.0
C1812 C 0.67175 0.811 0.65458 0.0
C1813 C 0.60061 0.80966 0.63326 0.0
C1814 C 0.74306 0.78749 0.71471 0.0
C1815 C 0.72495 0.79077 0.70132 0.0
C1816 C 0.66489 0.80386 0.70472 0.0
C1817 C 0.6369 0.80275 0.64796 0.0
C1818 C 0.65209 0.80687 0.66433 0.0
C1819 C 0.70405 0.80287 0.71003 0.0
C1820 C 0.68516 0.80656 0.6948 0.0
H1821 H 0.63814 0.76888 0.60381 0.0
H1822 H 0.66225 0.77739 0.63028 0.0
H1823 H 0.63347 0.80074 0.69755 0.0
H1824 H 0.71789 0.81437 0.76403 0.0
H1825 H 0.68581 0.82034 0.74031 0.0
C1826 C 0.60899 0.20269 0.45863 0.0
C1827 C 0.5902 0.22072 0.46129 0.0
C1828 C 0.62812 0.20605 0.44644 0.0
C1829 C 0.65453 0.2513 0.4243 0.0
H1830 H 0.69189 0.20568 0.38552 0.0
C1831 C 0.73495 0.26212 0.37461 0.0
C1832 C 0.7403 0.25433 0.35149 0.0
C1833 C 0.7179 0.25681 0.38949 0.0
C1834 C 0.68157 0.21873 0.39607 0.0
H1835 H 0.5764 0.25622 0.45261 0.0
H1836 H 0.60931 0.26203 0.43061 0.0
H1837 H 0.65929 0.19928 0.40745 0.0
H1838 H 0.73194 0.23482 0.32589 0.0
H1839 H 0.70196 0.22628 0.35128 0.0
H1840 H 0.67613 0.27125 0.41186 0.0
C1841 C 0.60972 0.2454 0.43865 0.0
C1842 C 0.66297 0.21489 0.40901 0.0
C1843 C 0.59076 0.24208 0.45114 0.0
C1844 C 0.7284 0.24096 0.34369 0.0
C1845 C 0.71122 0.23591 0.35838 0.0
C1846 C 0.67296 0.25526 0.41111 0.0
C1847 C 0.62877 0.22748 0.43629 0.0
C1848 C 0.64907 0.2312 0.42317 0.0
C1849 C 0.70564 0.24382 0.38147 0.0
C1850 C 0.68666 0.2391 0.39663 0.0
H1851 H 0.60907 0.1861 0.46654 0.0
H1852 H 0.64249 0.19188 0.44536 0.0
H1853 H 0.64452 0.26412 0.43536 0.0
H1854 H 0.74388 0.27236 0.3812 0.0
H1855 H 0.71438 0.2629 0.40729 0.0
C1856 C 0.8292 0.60357 0.47612 0.0
C1857 C 0.8496 0.59061 0.48384 0.0
C1858 C 0.82788 0.62049 0.4574 0.0
C1859 C 0.85969 0.64153 0.40601 0.0
H1860 H 0.81525 0.69754 0.41469 0.0
C1861 C 0.83862 0.7147 0.33072 0.0
C1862 C 0.8337 0.73643 0.33812 0.0
C1863 C 0.84198 0.69622 0.34788 0.0
C1864 C 0.82787 0.68208 0.41205 0.0
H1865 H 0.88463 0.58518 0.47773 0.0
H1866 H 0.88233 0.61487 0.44506 0.0
H1867 H 0.81827 0.6666 0.44568 0.0
H1868 H 0.82939 0.7559 0.36898 0.0
H1869 H 0.83563 0.72376 0.39882 0.0
H1870 H 0.86949 0.65731 0.37248 0.0
C1871 C 0.86736 0.61171 0.45333 0.0
C1872 C 0.82942 0.66423 0.42969 0.0
C1873 C 0.86868 0.59473 0.47208 0.0
C1874 C 0.83302 0.73933 0.3628 0.0
C1875 C 0.83643 0.72093 0.37989 0.0
C1876 C 0.85811 0.65944 0.38829 0.0
C1877 C 0.84692 0.62493 0.44595 0.0
C1878 C 0.84534 0.64375 0.42691 0.0
C1879 C 0.8405 0.6992 0.3727 0.0
C1880 C 0.84225 0.67995 0.3912 0.0
H1881 H 0.8142 0.60053 0.48439 0.0
H1882 H 0.81189 0.63007 0.45182 0.0
H1883 H 0.872 0.62589 0.40325 0.0
H1884 H 0.83921 0.71204 0.31176 0.0
H1885 H 0.84496 0.6797 0.34177 0.0
C1886 C 0.52084 0.81845 0.49386 0.0
C1887 C 0.51828 0.81898 0.51906 0.0
C1888 C 0.50304 0.8275 0.47976 0.0
C1889 C 0.44533 0.83287 0.48415 0.0
H1890 H 0.44834 0.86035 0.41867 0.0
C1891 C 0.38197 0.83232 0.41758 0.0
C1892 C 0.39105 0.82555 0.3947 0.0
C1893 C 0.39442 0.83876 0.43333 0.0
C1894 C 0.4472 0.85265 0.43691 0.0
H1895 H 0.49545 0.83027 0.54934 0.0
H1896 H 0.46391 0.84585 0.52459 0.0
H1897 H 0.47632 0.85962 0.44586 0.0
H1898 H 0.41985 0.82174 0.36989 0.0
H1899 H 0.44168 0.83223 0.39745 0.0
H1900 H 0.41713 0.82455 0.47489 0.0
C1901 C 0.47982 0.83865 0.51576 0.0
C1902 C 0.46316 0.85238 0.45252 0.0
C1903 C 0.49785 0.82993 0.52988 0.0
C1904 C 0.41246 0.8265 0.38751 0.0
C1905 C 0.4249 0.83284 0.40326 0.0
C1906 C 0.42946 0.83298 0.4685 0.0
C1907 C 0.48215 0.8369 0.49063 0.0
C1908 C 0.46282 0.8418 0.47603 0.0
C1909 C 0.41624 0.83856 0.4266 0.0
C1910 C 0.43065 0.84216 0.44439 0.0
H1911 H 0.53644 0.80997 0.48515 0.0
H1912 H 0.50536 0.82564 0.46052 0.0
H1913 H 0.44474 0.82435 0.50207 0.0
H1914 H 0.36557 0.83171 0.42376 0.0
H1915 H 0.38711 0.84335 0.45104 0.0
C1916 C 0.25191 0.45791 0.46515 0.0
C1917 C 0.26514 0.47232 0.4584 0.0
C1918 C 0.24743 0.4453 0.44797 0.0
C1919 C 0.27499 0.42083 0.39304 0.0
H1920 H 0.22281 0.40234 0.3879 0.0
C1921 C 0.27562 0.35903 0.32497 0.0
C1922 C 0.26648 0.34147 0.33326 0.0
C1923 C 0.27144 0.37781 0.33797 0.0
C1924 C 0.23753 0.40728 0.38923 0.0
H1925 H 0.28203 0.48676 0.42826 0.0
H1926 H 0.27374 0.46535 0.39833 0.0
H1927 H 0.22188 0.43085 0.41521 0.0
H1928 H 0.24493 0.33027 0.36104 0.0
H1929 H 0.23818 0.36277 0.38419 0.0
H1930 H 0.291 0.39696 0.36803 0.0
C1931 C 0.2674 0.46317 0.41687 0.0
C1932 C 0.23696 0.42362 0.40482 0.0
C1933 C 0.27205 0.47551 0.43397 0.0
C1934 C 0.25219 0.34357 0.35418 0.0
C1935 C 0.24824 0.36226 0.3674 0.0
C1936 C 0.2756 0.40453 0.37768 0.0
C1937 C 0.25601 0.44711 0.42388 0.0
C1938 C 0.25572 0.43058 0.40681 0.0
C1939 C 0.25834 0.37931 0.35981 0.0
C1940 C 0.25691 0.39752 0.37551 0.0
H1941 H 0.24647 0.45513 0.48392 0.0
H1942 H 0.23861 0.43305 0.4539 0.0
H1943 H 0.28991 0.42534 0.39465 0.0
H1944 H 0.28644 0.35807 0.30871 0.0
H1945 H 0.27901 0.3909 0.33121 0.0
C1946 C 0.46931 0.1945 0.61112 0.0
C1947 C 0.47827 0.212 0.60179 0.0
C1948 C 0.45552 0.19644 0.63232 0.0
C1949 C 0.41985 0.23931 0.67027 0.0
H1950 H 0.42183 0.18926 0.71832 0.0
C1951 C 0.36924 0.252 0.76038 0.0
C1952 C 0.3568 0.23691 0.7677 0.0
C1953 C 0.38586 0.24736 0.74198 0.0
C1954 C 0.42101 0.20334 0.70498 0.0
H1955 H 0.48046 0.24485 0.60804 0.0
H1956 H 0.45666 0.24818 0.64492 0.0
H1957 H 0.44709 0.18437 0.68221 0.0
H1958 H 0.35299 0.20444 0.76237 0.0
H1959 H 0.38208 0.19636 0.73011 0.0
H1960 H 0.39383 0.25828 0.69284 0.0
C1961 C 0.45979 0.23317 0.63559 0.0
C1962 C 0.43544 0.20054 0.68427 0.0
C1963 C 0.47346 0.23127 0.6144 0.0
C1964 C 0.36229 0.21641 0.75721 0.0
C1965 C 0.37897 0.21177 0.73871 0.0
C1966 C 0.40554 0.24211 0.69093 0.0
C1967 C 0.45044 0.2159 0.6447 0.0
C1968 C 0.43508 0.21854 0.6667 0.0
C1969 C 0.39045 0.22754 0.73037 0.0
C1970 C 0.406 0.22423 0.70861 0.0
H1971 H 0.47256 0.17952 0.60173 0.0
H1972 H 0.44842 0.18291 0.63866 0.0
H1973 H 0.41872 0.25341 0.65689 0.0
H1974 H 0.36562 0.26786 0.76821 0.0
H1975 H 0.39473 0.25963 0.73636 0.0
C1976 C 0.86046 0.45834 0.63696 0.0
C1977 C 0.84569 0.46986 0.61969 0.0
C1978 C 0.85755 0.43913 0.65047 0.0
C1979 C 0.82754 0.39585 0.65258 0.0
H1980 H 0.83842 0.38848 0.72059 0.0
C1981 C 0.79586 0.33568 0.72404 0.0
C1982 C 0.81066 0.32337 0.74094 0.0
C1983 C 0.80139 0.35196 0.70747 0.0
C1984 C 0.83552 0.39019 0.70156 0.0
H1985 H 0.81669 0.46949 0.60254 0.0
H1986 H 0.81113 0.43682 0.6267 0.0
H1987 H 0.84587 0.41999 0.69529 0.0
H1988 H 0.84325 0.31794 0.75299 0.0
H1989 H 0.8527 0.34633 0.72427 0.0
H1990 H 0.81652 0.36631 0.65927 0.0
C1991 C 0.82517 0.44237 0.62961 0.0
C1992 C 0.83988 0.40821 0.68701 0.0
C1993 C 0.82817 0.46143 0.61599 0.0
C1994 C 0.83137 0.32715 0.74034 0.0
C1995 C 0.83679 0.3435 0.72397 0.0
C1996 C 0.82296 0.37795 0.66723 0.0
C1997 C 0.83973 0.43104 0.64714 0.0
C1998 C 0.83589 0.41132 0.66235 0.0
C1999 C 0.82174 0.35633 0.70767 0.0
C2000 C 0.8269 0.37497 0.69186 0.0
H2001 H 0.87408 0.46434 0.64037 0.0
H2002 H 0.86929 0.43063 0.66355 0.0
H2003 H 0.8246 0.39751 0.63358 0.0
H2004 H 0.7798 0.33317 0.72399 0.0
H2005 H 0.78946 0.3617 0.69513 0.0
C2006 C 0.2744 0.52739 0.60252 0.0
C2007 C 0.26733 0.53138 0.57901 0.0
C2008 C 0.27218 0.54514 0.6165 0.0
C2009 C 0.24826 0.60613 0.62073 0.0
H2010 H 0.30213 0.59992 0.65094 0.0
C2011 C 0.26661 0.67945 0.66151 0.0
C2012 C 0.27436 0.67453 0.68482 0.0
C2013 C 0.26544 0.66231 0.64804 0.0
C2014 C 0.28693 0.60184 0.64277 0.0
H2015 H 0.25098 0.55668 0.55216 0.0
H2016 H 0.2474 0.58796 0.5765 0.0
H2017 H 0.29824 0.56937 0.62993 0.0
H2018 H 0.28739 0.64767 0.71198 0.0
H2019 H 0.28577 0.61783 0.6883 0.0
H2020 H 0.23717 0.63886 0.63346 0.0
C2021 C 0.2544 0.5711 0.58428 0.0
C2022 C 0.28462 0.58429 0.63084 0.0
C2023 C 0.25636 0.55321 0.57037 0.0
C2024 C 0.2817 0.65205 0.69395 0.0
C2025 C 0.28066 0.63493 0.68043 0.0
C2026 C 0.25063 0.62378 0.63263 0.0
C2027 C 0.26322 0.56728 0.60705 0.0
C2028 C 0.26519 0.58611 0.61989 0.0
C2029 C 0.27217 0.63991 0.65752 0.0
C2030 C 0.26994 0.62171 0.64392 0.0
H2031 H 0.28279 0.51063 0.60958 0.0
H2032 H 0.27853 0.54159 0.63426 0.0
H2033 H 0.2331 0.60802 0.61252 0.0
H2034 H 0.26113 0.69658 0.65381 0.0
H2035 H 0.25919 0.66658 0.63025 0.0
loop_
_geom_bond_atom_site_label_1
_geom_bond_atom_site_label_2
_geom_bond_distance
_geom_bond_site_symmetry_2
_ccdc_geom_bond_type
Cu0 N1 2.016 . S
Cu0 O6 1.964 1_545 S
Cu0 N11 1.968 1_545 S
Cu0 O20 1.970 . S
N1 Cu0 2.016 . S
N1 C3 1.263 . S
N1 C5 1.389 . S
N2 C3 1.358 . S
N2 C4 1.400 . S
C3 N1 1.263 . S
C3 N2 1.358 . S
C3 H9 0.930 . S
C4 N2 1.400 . S
C4 C5 1.351 . S
C4 H21 0.930 . S
C5 N1 1.389 . S
C5 C4 1.351 . S
C5 H10 0.930 . S
O6 Cu0 1.964 1_565 S
O6 C16 1.282 . S
C7 O8 1.261 1_655 S
C7 O20 1.251 1_655 S
O8 C7 1.261 1_455 S
H9 C3 0.930 . S
H10 C5 0.930 . S
N11 Cu0 1.968 1_565 S
N11 C13 1.335 1_455 S
N11 C14 1.390 . S
N12 C13 1.345 . S
N12 C15 1.336 1_655 S
C13 N11 1.335 1_655 S
C13 N12 1.345 . S
C13 H18 0.930 . S
C14 N11 1.390 . S
C14 C15 1.346 . S
C14 H19 0.930 . S
C15 N12 1.336 1_455 S
C15 C14 1.346 . S
C15 H22 0.929 . S
C16 O6 1.282 . S
C16 O17 1.216 . S
O17 C16 1.216 . S
H18 C13 0.930 . S
H19 C14 0.930 . S
O20 Cu0 1.970 . S
O20 C7 1.251 1_455 S
H21 C4 0.930 . S
H22 C15 0.929 . S
Cu23 N24 1.999 1_455 S
Cu23 O29 1.974 1_455 S
Cu23 N34 1.985 . S
Cu23 O43 1.959 . S
N24 Cu23 1.999 1_655 S
N24 C26 1.263 . S
N24 C28 1.389 1_645 S
N25 C26 1.358 1_565 S
N25 C27 1.400 . S
C26 N24 1.263 . S
C26 N25 1.358 1_545 S
C26 H32 0.930 . S
C27 N25 1.400 . S
C27 C28 1.351 1_655 S
C27 H44 0.930 . S
C28 N24 1.389 1_465 S
C28 C27 1.351 1_455 S
C28 H33 0.930 . S
O29 Cu23 1.974 1_655 S
O29 C39 1.282 . S
C30 O31 1.261 . S
C30 O43 1.251 . S
O31 C30 1.261 . S
H32 C26 0.930 . S
H33 C28 0.930 . S
N34 Cu23 1.985 . S
N34 C36 1.335 . S
N34 C37 1.390 . S
N35 C36 1.345 . S
N35 C38 1.336 . S
C36 N34 1.335 . S
C36 N35 1.345 . S
C36 H41 0.930 . S
C37 N34 1.390 . S
C37 C38 1.346 . S
C37 H42 0.930 . S
C38 N35 1.336 . S
C38 C37 1.346 . S
C38 H45 0.929 . S
C39 O29 1.282 . S
C39 O40 1.216 . S
O40 C39 1.216 . S
H41 C36 0.930 . S
H42 C37 0.930 . S
O43 Cu23 1.959 . S
O43 C30 1.251 . S
H44 C27 0.930 . S
H45 C38 0.929 . S
Cu46 N47 1.999 . S
Cu46 O52 1.974 . S
Cu46 N57 1.985 . S
Cu46 O66 1.959 . S
N47 Cu46 1.999 . S
N47 C49 1.263 1_545 S
N47 C51 1.389 . S
N48 C49 1.358 . S
N48 C50 1.400 . S
C49 N47 1.263 1_565 S
C49 N48 1.358 . S
C49 H55 0.930 . S
C50 N48 1.400 . S
C50 C51 1.351 1_565 S
C50 H67 0.930 1_554 S
C51 N47 1.389 . S
C51 C50 1.351 1_545 S
C51 H56 0.930 . S
O52 Cu46 1.974 . S
O52 C62 1.282 . S
C53 O54 1.261 . S
C53 O66 1.251 . S
O54 C53 1.261 . S
H55 C49 0.930 . S
H56 C51 0.930 . S
N57 Cu46 1.985 . S
N57 C59 1.335 . S
N57 C60 1.390 . S
N58 C59 1.345 . S
N58 C61 1.336 . S
C59 N57 1.335 . S
C59 N58 1.345 . S
C59 H64 0.930 . S
C60 N57 1.390 . S
C60 C61 1.346 . S
C60 H65 0.930 . S
C61 N58 1.336 . S
C61 C60 1.346 . S
C61 H68 0.929 . S
C62 O52 1.282 . S
C62 O63 1.216 . S
O63 C62 1.216 . S
H64 C59 0.930 . S
H65 C60 0.930 . S
O66 Cu46 1.959 . S
O66 C53 1.251 . S
H67 C50 0.930 1_556 S
H68 C61 0.929 . S
Cu69 N70 1.999 . S
Cu69 O75 1.974 . S
Cu69 N80 1.985 . S
Cu69 O89 1.959 . S
N70 Cu69 1.999 . S
N70 C72 1.263 . S
N70 C74 1.389 . S
N71 C72 1.358 . S
N71 C73 1.400 1_554 S
C72 N70 1.263 . S
C72 N71 1.358 . S
C72 H78 0.930 . S
C73 N71 1.400 1_556 S
C73 C74 1.351 1_556 S
C73 H90 0.930 . S
C74 N70 1.389 . S
C74 C73 1.351 1_554 S
C74 H79 0.945 . S
O75 Cu69 1.974 . S
O75 C85 1.282 . S
C76 O77 1.261 . S
C76 O89 1.251 . S
O77 C76 1.261 . S
H78 C72 0.930 . S
H79 C74 0.945 . S
N80 Cu69 1.985 . S
N80 C82 1.335 1_455 S
N80 C83 1.390 . S
N81 C82 1.345 . S
N81 C84 1.336 . S
C82 N80 1.335 1_655 S
C82 N81 1.345 . S
C82 H87 0.930 . S
C83 N80 1.390 . S
C83 C84 1.346 1_455 S
C83 H88 0.930 . S
C84 N81 1.336 . S
C84 C83 1.346 1_655 S
C84 H91 0.929 . S
C85 O75 1.282 . S
C85 O86 1.216 . S
O86 C85 1.216 . S
H87 C82 0.930 . S
H88 C83 0.930 . S
O89 Cu69 1.959 . S
O89 C76 1.251 . S
H90 C73 0.930 . S
H91 C84 0.929 . S
Cu92 N93 1.999 1_554 S
Cu92 O98 1.974 . S
Cu92 N103 1.985 1_545 S
Cu92 O112 1.959 1_544 S
N93 Cu92 1.999 1_556 S
N93 C95 1.263 . S
N93 C97 1.389 . S
N94 C95 1.358 . S
N94 C96 1.400 . S
C95 N93 1.263 . S
C95 N94 1.358 . S
C95 H101 0.930 . S
C96 N94 1.400 . S
C96 C97 1.351 . S
C96 H113 0.930 . S
C97 N93 1.389 . S
C97 C96 1.351 . S
C97 H102 0.930 . S
O98 Cu92 1.974 . S
O98 C108 1.282 . S
C99 O100 1.261 . S
C99 O112 1.251 . S
O100 C99 1.261 . S
H101 C95 0.930 . S
H102 C97 0.930 . S
N103 Cu92 1.985 1_565 S
N103 C105 1.335 . S
N103 C106 1.390 . S
N104 C105 1.345 . S
N104 C107 1.336 . S
C105 N103 1.335 . S
C105 N104 1.345 . S
C105 H110 0.930 . S
C106 N103 1.390 . S
C106 C107 1.346 . S
C106 H111 0.930 . S
C107 N104 1.336 . S
C107 C106 1.346 . S
C107 H114 0.929 . S
C108 O98 1.282 . S
C108 O109 1.216 . S
O109 C108 1.216 . S
H110 C105 0.930 . S
H111 C106 0.930 . S
O112 Cu92 1.959 1_566 S
O112 C99 1.251 . S
H113 C96 0.930 . S
H114 C107 0.929 . S
Cu115 N116 1.999 1_454 S
Cu115 O121 1.974 1_455 S
Cu115 N126 1.985 . S
Cu115 O135 1.959 1_554 S
N116 Cu115 1.999 1_656 S
N116 C118 1.263 . S
N116 C120 1.389 1_655 S
N117 C118 1.358 . S
N117 C119 1.400 . S
C118 N116 1.263 . S
C118 N117 1.358 . S
C118 H124 0.916 1_556 S
C119 N117 1.400 . S
C119 C120 1.351 1_655 S
C119 H136 0.930 . S
C120 N116 1.389 1_455 S
C120 C119 1.351 1_455 S
C120 H125 0.930 . S
O121 Cu115 1.974 1_655 S
O121 C131 1.282 . S
C122 O123 1.261 . S
C122 O135 1.251 . S
O123 C122 1.261 . S
H124 C118 0.916 1_554 S
H125 C120 0.930 . S
N126 Cu115 1.985 . S
N126 C128 1.335 . S
N126 C129 1.390 . S
N127 C128 1.345 . S
N127 C130 1.336 . S
C128 N126 1.335 . S
C128 N127 1.345 . S
C128 H133 0.930 . S
C129 N126 1.390 . S
C129 C130 1.346 . S
C129 H134 0.930 . S
C130 N127 1.336 . S
C130 C129 1.346 . S
C130 H137 0.929 . S
C131 O121 1.282 . S
C131 O132 1.216 . S
O132 C131 1.216 . S
H133 C128 0.930 . S
H134 C129 0.930 . S
O135 Cu115 1.959 1_556 S
O135 C122 1.251 . S
H136 C119 0.930 . S
H137 C130 0.929 . S
Cu138 N139 1.999 . S
Cu138 O144 1.974 . S
Cu138 N149 1.985 . S
Cu138 O158 1.959 . S
N139 Cu138 1.999 . S
N139 C141 1.263 . S
N139 C143 1.389 . S
N140 C141 1.358 . S
N140 C142 1.400 . S
C141 N139 1.263 . S
C141 N140 1.358 . S
C141 H147 0.930 . S
C142 N140 1.400 . S
C142 C143 1.351 . S
C142 H159 0.930 . S
C143 N139 1.389 . S
C143 C142 1.351 . S
C143 H148 0.930 . S
O144 Cu138 1.974 . S
O144 C154 1.282 . S
C145 O146 1.261 . S
C145 O158 1.251 . S
O146 C145 1.261 . S
H147 C141 0.930 . S
H148 C143 0.930 . S
N149 Cu138 1.985 . S
N149 C151 1.335 . S
N149 C152 1.390 . S
N150 C151 1.345 . S
N150 C153 1.336 . S
C151 N149 1.335 . S
C151 N150 1.345 . S
C151 H156 0.930 . S
C152 N149 1.390 . S
C152 C153 1.346 . S
C152 H157 0.930 . S
C153 N150 1.336 . S
C153 C152 1.346 . S
C153 H160 0.929 . S
C154 O144 1.282 . S
C154 O155 1.216 . S
O155 C154 1.216 . S
H156 C151 0.930 . S
H157 C152 0.930 . S
O158 Cu138 1.959 . S
O158 C145 1.251 . S
H159 C142 0.930 . S
H160 C153 0.929 . S
Cu161 N162 1.999 . S
Cu161 O167 1.974 . S
Cu161 N172 1.985 . S
Cu161 O181 1.959 . S
N162 Cu161 1.999 . S
N162 C164 1.263 . S
N162 C166 1.389 . S
N163 C164 1.358 . S
N163 C165 1.400 . S
C164 N162 1.263 . S
C164 N163 1.358 . S
C164 H170 0.930 . S
C165 N163 1.400 . S
C165 C166 1.351 . S
C165 H182 0.930 . S
C166 N162 1.389 . S
C166 C165 1.351 . S
C166 H171 0.930 . S
O167 Cu161 1.974 . S
O167 C177 1.282 . S
C168 O169 1.261 . S
C168 O181 1.251 . S
O169 C168 1.261 . S
H170 C164 0.930 . S
H171 C166 0.930 . S
N172 Cu161 1.985 . S
N172 C174 1.335 . S
N172 C175 1.390 . S
N173 C174 1.345 . S
N173 C176 1.336 . S
C174 N172 1.335 . S
C174 N173 1.345 . S
C174 H179 0.930 . S
C175 N172 1.390 . S
C175 C176 1.346 . S
C175 H180 0.930 . S
C176 N173 1.336 . S
C176 C175 1.346 . S
C176 H183 0.929 . S
C177 O167 1.282 . S
C177 O178 1.216 . S
O178 C177 1.216 . S
H179 C174 0.930 . S
H180 C175 0.930 . S
O181 Cu161 1.959 . S
O181 C168 1.251 . S
H182 C165 0.930 . S
H183 C176 0.929 . S
Cu184 N185 1.999 . S
Cu184 O190 1.974 . S
Cu184 N195 1.985 . S
Cu184 O204 1.959 . S
N185 Cu184 1.999 . S
N185 C187 1.263 . S
N185 C189 1.389 . S
N186 C187 1.358 . S
N186 C188 1.400 . S
C187 N185 1.263 . S
C187 N186 1.358 . S
C187 H193 0.930 . S
C188 N186 1.400 . S
C188 C189 1.351 . S
C188 H205 0.930 . S
C189 N185 1.389 . S
C189 C188 1.351 . S
C189 H194 0.930 . S
O190 Cu184 1.974 . S
O190 C200 1.282 . S
C191 O192 1.261 . S
C191 O204 1.251 . S
O192 C191 1.261 . S
H193 C187 0.930 . S
H194 C189 0.930 . S
N195 Cu184 1.985 . S
N195 C197 1.335 . S
N195 C198 1.390 . S
N196 C197 1.345 . S
N196 C199 1.336 . S
C197 N195 1.335 . S
C197 N196 1.345 . S
C197 H202 0.930 . S
C198 N195 1.390 . S
C198 C199 1.346 . S
C198 H203 0.930 . S
C199 N196 1.336 . S
C199 C198 1.346 . S
C199 H206 0.929 . S
C200 O190 1.282 . S
C200 O201 1.216 . S
O201 C200 1.216 . S
H202 C197 0.930 . S
H203 C198 0.930 . S
O204 Cu184 1.959 . S
O204 C191 1.251 . S
H205 C188 0.930 . S
H206 C199 0.929 . S
Cu207 N208 1.999 . S
Cu207 O213 1.974 . S
Cu207 N218 1.985 . S
Cu207 O227 1.959 . S
N208 Cu207 1.999 . S
N208 C210 1.263 . S
N208 C212 1.389 . S
N209 C210 1.358 . S
N209 C211 1.400 . S
C210 N208 1.263 . S
C210 N209 1.358 . S
C210 H216 0.930 . S
C211 N209 1.400 . S
C211 C212 1.351 . S
C211 H228 0.930 . S
C212 N208 1.389 . S
C212 C211 1.351 . S
C212 H217 0.930 . S
O213 Cu207 1.974 . S
O213 C223 1.282 . S
C214 O215 1.261 . S
C214 O227 1.251 . S
O215 C214 1.261 . S
H216 C210 0.930 . S
H217 C212 0.930 . S
N218 Cu207 1.985 . S
N218 C220 1.335 . S
N218 C221 1.390 . S
N219 C220 1.345 . S
N219 C222 1.336 . S
C220 N218 1.335 . S
C220 N219 1.345 . S
C220 H225 0.930 . S
C221 N218 1.390 . S
C221 C222 1.346 . S
C221 H226 0.930 . S
C222 N219 1.336 . S
C222 C221 1.346 . S
C222 H229 0.929 . S
C223 O213 1.282 . S
C223 O224 1.216 . S
O224 C223 1.216 . S
H225 C220 0.930 . S
H226 C221 0.930 . S
O227 Cu207 1.959 . S
O227 C214 1.251 . S
H228 C211 0.930 . S
H229 C222 0.929 . S
Cu230 N231 1.999 . S
Cu230 O236 1.974 . S
Cu230 N241 1.985 . S
Cu230 O250 1.959 . S
N231 Cu230 1.999 . S
N231 C233 1.263 . S
N231 C235 1.389 . S
N232 C233 1.358 . S
N232 C234 1.400 . S
C233 N231 1.263 . S
C233 N232 1.358 . S
C233 H239 0.930 . S
C234 N232 1.400 . S
C234 C235 1.351 . S
C234 H251 0.930 . S
C235 N231 1.389 . S
C235 C234 1.351 . S
C235 H240 0.930 . S
O236 Cu230 1.974 . S
O236 C246 1.282 . S
C237 O238 1.261 . S
C237 O250 1.251 . S
O238 C237 1.261 . S
H239 C233 0.930 . S
H240 C235 0.930 . S
N241 Cu230 1.985 . S
N241 C243 1.335 . S
N241 C244 1.390 . S
N242 C243 1.345 . S
N242 C245 1.336 . S
C243 N241 1.335 . S
C243 N242 1.345 . S
C243 H248 0.930 . S
C244 N241 1.390 . S
C244 C245 1.346 . S
C244 H249 0.930 . S
C245 N242 1.336 . S
C245 C244 1.346 . S
C245 H252 0.929 . S
C246 O236 1.282 . S
C246 O247 1.216 . S
O247 C246 1.216 . S
H248 C243 0.930 . S
H249 C244 0.930 . S
O250 Cu230 1.959 . S
O250 C237 1.251 . S
H251 C234 0.930 . S
H252 C245 0.929 . S
Cu253 N254 1.999 . S
Cu253 O259 1.974 . S
Cu253 N264 1.985 . S
Cu253 O273 1.959 . S
N254 Cu253 1.999 . S
N254 C256 1.263 . S
N254 C258 1.389 . S
N255 C256 1.358 . S
N255 C257 1.400 . S
C256 N254 1.263 . S
C256 N255 1.358 . S
C256 H262 0.930 . S
C257 N255 1.400 . S
C257 C258 1.351 . S
C257 H274 0.930 . S
C258 N254 1.389 . S
C258 C257 1.351 . S
C258 H263 0.930 . S
O259 Cu253 1.974 . S
O259 C269 1.282 . S
C260 O261 1.261 . S
C260 O273 1.251 . S
O261 C260 1.261 . S
H262 C256 0.930 . S
H263 C258 0.930 . S
N264 Cu253 1.985 . S
N264 C266 1.335 . S
N264 C267 1.390 . S
N265 C266 1.345 . S
N265 C268 1.336 . S
C266 N264 1.335 . S
C266 N265 1.345 . S
C266 H271 0.930 . S
C267 N264 1.390 . S
C267 C268 1.346 . S
C267 H272 0.930 . S
C268 N265 1.336 . S
C268 C267 1.346 . S
C268 H275 0.929 . S
C269 O259 1.282 . S
C269 O270 1.216 . S
O270 C269 1.216 . S
H271 C266 0.930 . S
H272 C267 0.930 . S
O273 Cu253 1.959 . S
O273 C260 1.251 . S
H274 C257 0.930 . S
H275 C268 0.929 . S
Sm276 C278 2.846 . S
Sm276 O296 2.543 . S
Sm276 O297 2.450 . S
Sm276 O298 2.681 . S
Sm276 O299 2.464 . S
Sm276 O300 2.396 . S
Sm276 O304 2.386 . S
Sm276 O307 2.408 . S
Sm277 C287 2.846 . S
Sm277 O298 2.386 . S
Sm277 O301 2.408 . S
Sm277 O302 2.543 . S
Sm277 O303 2.450 . S
Sm277 O304 2.681 . S
Sm277 O305 2.464 . S
Sm277 O306 2.396 . S
C278 Sm276 2.846 . S
C278 C279 1.506 . S
C278 O296 1.261 . S
C278 O297 1.242 . S
C279 C278 1.506 . S
C279 C280 1.358 . S
C279 C284 1.382 . S
C280 C279 1.358 . S
C280 C281 1.385 . S
C280 H308 0.930 . S
C281 C280 1.385 . S
C281 C282 1.395 . S
C281 H309 0.929 . S
C282 C281 1.395 . S
C282 C283 1.335 . S
C283 C282 1.335 . S
C283 C284 1.398 . S
C283 H310 0.930 . S
C284 C279 1.382 . S
C284 C283 1.398 . S
C284 H311 0.929 . S
C285 O298 1.271 . S
C285 O299 1.251 . S
C286 O300 1.252 . S
C286 O301 1.272 . S
C287 Sm277 2.846 . S
C287 C288 1.506 . S
C287 O302 1.261 . S
C287 O303 1.242 . S
C288 C287 1.506 . S
C288 C289 1.358 . S
C288 C293 1.382 . S
C289 C288 1.358 . S
C289 C290 1.385 . S
C289 H312 0.930 . S
C290 C289 1.385 . S
C290 C291 1.395 . S
C290 H313 0.929 . S
C291 C290 1.395 . S
C291 C292 1.335 . S
C292 C291 1.335 . S
C292 C293 1.398 . S
C292 H314 0.930 . S
C293 C288 1.382 . S
C293 C292 1.398 . S
C293 H315 0.929 . S
C294 O304 1.271 . S
C294 O305 1.251 . S
C295 O306 1.252 . S
C295 O307 1.272 . S
O296 Sm276 2.543 . S
O296 C278 1.261 . S
O297 Sm276 2.450 . S
O297 C278 1.242 . S
O298 Sm276 2.681 . S
O298 Sm277 2.386 . S
O298 C285 1.271 . S
O299 Sm276 2.464 . S
O299 C285 1.251 . S
O300 Sm276 2.396 . S
O300 C286 1.252 . S
O301 Sm277 2.408 . S
O301 C286 1.272 . S
O302 Sm277 2.543 . S
O302 C287 1.261 . S
O303 Sm277 2.450 . S
O303 C287 1.242 . S
O304 Sm276 2.386 . S
O304 Sm277 2.681 . S
O304 C294 1.271 . S
O305 Sm277 2.464 . S
O305 C294 1.251 . S
O306 Sm277 2.396 . S
O306 C295 1.252 . S
O307 Sm276 2.408 . S
O307 C295 1.272 . S
H308 C280 0.930 . S
H309 C281 0.929 . S
H310 C283 0.930 . S
H311 C284 0.929 . S
H312 C289 0.930 . S
H313 C290 0.929 . S
H314 C292 0.930 . S
H315 C293 0.929 . S
Sm316 C318 2.846 . S
Sm316 O336 2.543 . S
Sm316 O337 2.450 . S
Sm316 O338 2.681 . S
Sm316 O339 2.464 . S
Sm316 O340 2.396 . S
Sm316 O344 2.386 . S
Sm316 O347 2.408 . S
Sm317 C327 2.846 . S
Sm317 O338 2.386 . S
Sm317 O341 2.408 . S
Sm317 O342 2.543 . S
Sm317 O343 2.450 . S
Sm317 O344 2.681 . S
Sm317 O345 2.464 . S
Sm317 O346 2.396 . S
C318 Sm316 2.846 . S
C318 C319 1.506 . S
C318 O336 1.261 . S
C318 O337 1.242 . S
C319 C318 1.506 . S
C319 C320 1.358 . S
C319 C324 1.382 . S
C320 C319 1.358 . S
C320 C321 1.385 . S
C320 H348 0.930 . S
C321 C320 1.385 . S
C321 C322 1.395 . S
C321 H349 0.929 . S
C322 C321 1.395 . S
C322 C323 1.335 . S
C323 C322 1.335 . S
C323 C324 1.398 . S
C323 H350 0.930 . S
C324 C319 1.382 . S
C324 C323 1.398 . S
C324 H351 0.929 . S
C325 O338 1.271 . S
C325 O339 1.251 . S
C326 O340 1.252 . S
C326 O341 1.272 . S
C327 Sm317 2.846 . S
C327 C328 1.506 . S
C327 O342 1.261 . S
C327 O343 1.242 . S
C328 C327 1.506 . S
C328 C329 1.358 . S
C328 C333 1.382 . S
C329 C328 1.358 . S
C329 C330 1.385 . S
C329 H352 0.930 . S
C330 C329 1.385 . S
C330 C331 1.395 . S
C330 H353 0.929 . S
C331 C330 1.395 . S
C331 C332 1.335 . S
C332 C331 1.335 . S
C332 C333 1.398 . S
C332 H354 0.930 . S
C333 C328 1.382 . S
C333 C332 1.398 . S
C333 H355 0.929 . S
C334 O344 1.271 . S
C334 O345 1.251 . S
C335 O346 1.252 . S
C335 O347 1.272 . S
O336 Sm316 2.543 . S
O336 C318 1.261 . S
O337 Sm316 2.450 . S
O337 C318 1.242 . S
O338 Sm316 2.681 . S
O338 Sm317 2.386 . S
O338 C325 1.271 . S
O339 Sm316 2.464 . S
O339 C325 1.251 . S
O340 Sm316 2.396 . S
O340 C326 1.252 . S
O341 Sm317 2.408 . S
O341 C326 1.272 . S
O342 Sm317 2.543 . S
O342 C327 1.261 . S
O343 Sm317 2.450 . S
O343 C327 1.242 . S
O344 Sm316 2.386 . S
O344 Sm317 2.681 . S
O344 C334 1.271 . S
O345 Sm317 2.464 . S
O345 C334 1.251 . S
O346 Sm317 2.396 . S
O346 C335 1.252 . S
O347 Sm316 2.408 . S
O347 C335 1.272 . S
H348 C320 0.930 . S
H349 C321 0.929 . S
H350 C323 0.930 . S
H351 C324 0.929 . S
H352 C329 0.930 . S
H353 C330 0.929 . S
H354 C332 0.930 . S
H355 C333 0.929 . S
Sm356 C358 2.846 . S
Sm356 O376 2.543 . S
Sm356 O377 2.450 . S
Sm356 O378 2.681 . S
Sm356 O379 2.464 . S
Sm356 O380 2.396 . S
Sm356 O384 2.386 . S
Sm356 O387 2.408 . S
Sm357 C367 2.846 . S
Sm357 O378 2.386 . S
Sm357 O381 2.408 . S
Sm357 O382 2.543 . S
Sm357 O383 2.450 . S
Sm357 O384 2.681 . S
Sm357 O385 2.464 . S
Sm357 O386 2.396 . S
C358 Sm356 2.846 . S
C358 C359 1.506 . S
C358 O376 1.261 . S
C358 O377 1.242 . S
C359 C358 1.506 . S
C359 C360 1.358 . S
C359 C364 1.382 . S
C360 C359 1.358 . S
C360 C361 1.385 . S
C360 H388 0.930 . S
C361 C360 1.385 . S
C361 C362 1.395 . S
C361 H389 0.929 . S
C362 C361 1.395 . S
C362 C363 1.335 . S
C363 C362 1.335 . S
C363 C364 1.398 . S
C363 H390 0.930 . S
C364 C359 1.382 . S
C364 C363 1.398 . S
C364 H391 0.929 . S
C365 O378 1.271 . S
C365 O379 1.251 . S
C366 O380 1.252 . S
C366 O381 1.272 . S
C367 Sm357 2.846 . S
C367 C368 1.506 . S
C367 O382 1.261 . S
C367 O383 1.242 . S
C368 C367 1.506 . S
C368 C369 1.358 . S
C368 C373 1.382 . S
C369 C368 1.358 . S
C369 C370 1.385 . S
C369 H392 0.930 . S
C370 C369 1.385 . S
C370 C371 1.395 . S
C370 H393 0.929 . S
C371 C370 1.395 . S
C371 C372 1.335 . S
C372 C371 1.335 . S
C372 C373 1.398 . S
C372 H394 0.930 . S
C373 C368 1.382 . S
C373 C372 1.398 . S
C373 H395 0.929 . S
C374 O384 1.271 . S
C374 O385 1.251 . S
C375 O386 1.252 . S
C375 O387 1.272 . S
O376 Sm356 2.543 . S
O376 C358 1.261 . S
O377 Sm356 2.450 . S
O377 C358 1.242 . S
O378 Sm356 2.681 . S
O378 Sm357 2.386 . S
O378 C365 1.271 . S
O379 Sm356 2.464 . S
O379 C365 1.251 . S
O380 Sm356 2.396 . S
O380 C366 1.252 . S
O381 Sm357 2.408 . S
O381 C366 1.272 . S
O382 Sm357 2.543 . S
O382 C367 1.261 . S
O383 Sm357 2.450 . S
O383 C367 1.242 . S
O384 Sm356 2.386 . S
O384 Sm357 2.681 . S
O384 C374 1.271 . S
O385 Sm357 2.464 . S
O385 C374 1.251 . S
O386 Sm357 2.396 . S
O386 C375 1.252 . S
O387 Sm356 2.408 . S
O387 C375 1.272 . S
H388 C360 0.930 . S
H389 C361 0.929 . S
H390 C363 0.930 . S
H391 C364 0.929 . S
H392 C369 0.930 . S
H393 C370 0.929 . S
H394 C372 0.930 . S
H395 C373 0.929 . S
Sm396 C398 2.846 . S
Sm396 O416 2.543 . S
Sm396 O417 2.450 . S
Sm396 O418 2.681 . S
Sm396 O419 2.464 . S
Sm396 O420 2.396 . S
Sm396 O424 2.386 . S
Sm396 O427 2.408 . S
Sm397 C407 2.846 . S
Sm397 O418 2.386 . S
Sm397 O421 2.408 . S
Sm397 O422 2.543 . S
Sm397 O423 2.450 . S
Sm397 O424 2.681 . S
Sm397 O425 2.464 . S
Sm397 O426 2.396 . S
C398 Sm396 2.846 . S
C398 C399 1.506 . S
C398 O416 1.261 . S
C398 O417 1.242 . S
C399 C398 1.506 . S
C399 C400 1.358 . S
C399 C404 1.382 . S
C400 C399 1.358 . S
C400 C401 1.385 . S
C400 H428 0.930 . S
C401 C400 1.385 . S
C401 C402 1.395 . S
C401 H429 0.929 . S
C402 C401 1.395 . S
C402 C403 1.335 . S
C403 C402 1.335 . S
C403 C404 1.398 . S
C403 H430 0.930 . S
C404 C399 1.382 . S
C404 C403 1.398 . S
C404 H431 0.929 . S
C405 O418 1.271 . S
C405 O419 1.251 . S
C406 O420 1.252 . S
C406 O421 1.272 . S
C407 Sm397 2.846 . S
C407 C408 1.506 . S
C407 O422 1.261 . S
C407 O423 1.242 . S
C408 C407 1.506 . S
C408 C409 1.358 . S
C408 C413 1.382 . S
C409 C408 1.358 . S
C409 C410 1.385 . S
C409 H432 0.930 . S
C410 C409 1.385 . S
C410 C411 1.395 . S
C410 H433 0.929 . S
C411 C410 1.395 . S
C411 C412 1.335 . S
C412 C411 1.335 . S
C412 C413 1.398 . S
C412 H434 0.930 . S
C413 C408 1.382 . S
C413 C412 1.398 . S
C413 H435 0.929 . S
C414 O424 1.271 . S
C414 O425 1.251 . S
C415 O426 1.252 . S
C415 O427 1.272 . S
O416 Sm396 2.543 . S
O416 C398 1.261 . S
O417 Sm396 2.450 . S
O417 C398 1.242 . S
O418 Sm396 2.681 . S
O418 Sm397 2.386 . S
O418 C405 1.271 . S
O419 Sm396 2.464 . S
O419 C405 1.251 . S
O420 Sm396 2.396 . S
O420 C406 1.252 . S
O421 Sm397 2.408 . S
O421 C406 1.272 . S
O422 Sm397 2.543 . S
O422 C407 1.261 . S
O423 Sm397 2.450 . S
O423 C407 1.242 . S
O424 Sm396 2.386 . S
O424 Sm397 2.681 . S
O424 C414 1.271 . S
O425 Sm397 2.464 . S
O425 C414 1.251 . S
O426 Sm397 2.396 . S
O426 C415 1.252 . S
O427 Sm396 2.408 . S
O427 C415 1.272 . S
H428 C400 0.930 . S
H429 C401 0.929 . S
H430 C403 0.930 . S
H431 C404 0.929 . S
H432 C409 0.930 . S
H433 C410 0.929 . S
H434 C412 0.930 . S
H435 C413 0.929 . S
Sm436 C438 2.846 . S
Sm436 O456 2.543 . S
Sm436 O457 2.450 . S
Sm436 O458 2.681 . S
Sm436 O459 2.464 . S
Sm436 O460 2.396 . S
Sm436 O464 2.386 . S
Sm436 O467 2.408 . S
Sm437 C447 2.846 . S
Sm437 O458 2.386 . S
Sm437 O461 2.408 . S
Sm437 O462 2.543 . S
Sm437 O463 2.450 . S
Sm437 O464 2.681 . S
Sm437 O465 2.464 . S
Sm437 O466 2.396 . S
C438 Sm436 2.846 . S
C438 C439 1.506 . S
C438 O456 1.261 . S
C438 O457 1.242 . S
C439 C438 1.506 . S
C439 C440 1.358 . S
C439 C444 1.382 . S
C440 C439 1.358 . S
C440 C441 1.385 . S
C440 H468 0.930 . S
C441 C440 1.385 . S
C441 C442 1.395 . S
C441 H469 0.929 . S
C442 C441 1.395 . S
C442 C443 1.335 . S
C443 C442 1.335 . S
C443 C444 1.398 . S
C443 H470 0.930 . S
C444 C439 1.382 . S
C444 C443 1.398 . S
C444 H471 0.929 . S
C445 O458 1.271 . S
C445 O459 1.251 . S
C446 O460 1.252 . S
C446 O461 1.272 . S
C447 Sm437 2.846 . S
C447 C448 1.506 . S
C447 O462 1.261 . S
C447 O463 1.242 . S
C448 C447 1.506 . S
C448 C449 1.358 . S
C448 C453 1.382 . S
C449 C448 1.358 . S
C449 C450 1.385 . S
C449 H472 0.930 . S
C450 C449 1.385 . S
C450 C451 1.395 . S
C450 H473 0.929 . S
C451 C450 1.395 . S
C451 C452 1.335 . S
C452 C451 1.335 . S
C452 C453 1.398 . S
C452 H474 0.930 . S
C453 C448 1.382 . S
C453 C452 1.398 . S
C453 H475 0.929 . S
C454 O464 1.271 . S
C454 O465 1.251 . S
C455 O466 1.252 . S
C455 O467 1.272 . S
O456 Sm436 2.543 . S
O456 C438 1.261 . S
O457 Sm436 2.450 . S
O457 C438 1.242 . S
O458 Sm436 2.681 . S
O458 Sm437 2.386 . S
O458 C445 1.271 . S
O459 Sm436 2.464 . S
O459 C445 1.251 . S
O460 Sm436 2.396 . S
O460 C446 1.252 . S
O461 Sm437 2.408 . S
O461 C446 1.272 . S
O462 Sm437 2.543 . S
O462 C447 1.261 . S
O463 Sm437 2.450 . S
O463 C447 1.242 . S
O464 Sm436 2.386 . S
O464 Sm437 2.681 . S
O464 C454 1.271 . S
O465 Sm437 2.464 . S
O465 C454 1.251 . S
O466 Sm437 2.396 . S
O466 C455 1.252 . S
O467 Sm436 2.408 . S
O467 C455 1.272 . S
H468 C440 0.930 . S
H469 C441 0.929 . S
H470 C443 0.930 . S
H471 C444 0.929 . S
H472 C449 0.930 . S
H473 C450 0.929 . S
H474 C452 0.930 . S
H475 C453 0.929 . S
Sm476 C478 2.846 . S
Sm476 O496 2.543 . S
Sm476 O497 2.450 . S
Sm476 O498 2.681 . S
Sm476 O499 2.464 . S
Sm476 O500 2.396 . S
Sm476 O504 2.386 . S
Sm476 O507 2.408 . S
Sm477 C487 2.846 . S
Sm477 O498 2.386 . S
Sm477 O501 2.408 . S
Sm477 O502 2.543 . S
Sm477 O503 2.450 . S
Sm477 O504 2.681 . S
Sm477 O505 2.464 . S
Sm477 O506 2.396 . S
C478 Sm476 2.846 . S
C478 C479 1.506 . S
C478 O496 1.261 . S
C478 O497 1.242 . S
C479 C478 1.506 . S
C479 C480 1.358 . S
C479 C484 1.382 . S
C480 C479 1.358 . S
C480 C481 1.385 . S
C480 H508 0.930 . S
C481 C480 1.385 . S
C481 C482 1.395 . S
C481 H509 0.929 . S
C482 C481 1.395 . S
C482 C483 1.335 . S
C483 C482 1.335 . S
C483 C484 1.398 . S
C483 H510 0.930 . S
C484 C479 1.382 . S
C484 C483 1.398 . S
C484 H511 0.929 . S
C485 O498 1.271 . S
C485 O499 1.251 . S
C486 O500 1.252 . S
C486 O501 1.272 . S
C487 Sm477 2.846 . S
C487 C488 1.506 . S
C487 O502 1.261 . S
C487 O503 1.242 . S
C488 C487 1.506 . S
C488 C489 1.358 . S
C488 C493 1.382 . S
C489 C488 1.358 . S
C489 C490 1.385 . S
C489 H512 0.930 . S
C490 C489 1.385 . S
C490 C491 1.395 . S
C490 H513 0.929 . S
C491 C490 1.395 . S
C491 C492 1.335 . S
C492 C491 1.335 . S
C492 C493 1.398 . S
C492 H514 0.930 . S
C493 C488 1.382 . S
C493 C492 1.398 . S
C493 H515 0.929 . S
C494 O504 1.271 . S
C494 O505 1.251 . S
C495 O506 1.252 . S
C495 O507 1.272 . S
O496 Sm476 2.543 . S
O496 C478 1.261 . S
O497 Sm476 2.450 . S
O497 C478 1.242 . S
O498 Sm476 2.681 . S
O498 Sm477 2.386 . S
O498 C485 1.271 . S
O499 Sm476 2.464 . S
O499 C485 1.251 . S
O500 Sm476 2.396 . S
O500 C486 1.252 . S
O501 Sm477 2.408 . S
O501 C486 1.272 . S
O502 Sm477 2.543 . S
O502 C487 1.261 . S
O503 Sm477 2.450 . S
O503 C487 1.242 . S
O504 Sm476 2.386 . S
O504 Sm477 2.681 . S
O504 C494 1.271 . S
O505 Sm477 2.464 . S
O505 C494 1.251 . S
O506 Sm477 2.396 . S
O506 C495 1.252 . S
O507 Sm476 2.408 . S
O507 C495 1.272 . S
H508 C480 0.930 . S
H509 C481 0.929 . S
H510 C483 0.930 . S
H511 C484 0.929 . S
H512 C489 0.930 . S
H513 C490 0.929 . S
H514 C492 0.930 . S
H515 C493 0.929 . S
Sm516 C518 2.846 . S
Sm516 O536 2.543 . S
Sm516 O537 2.450 . S
Sm516 O538 2.681 . S
Sm516 O539 2.464 . S
Sm516 O540 2.396 . S
Sm516 O544 2.386 . S
Sm516 O547 2.408 . S
Sm517 C527 2.846 . S
Sm517 O538 2.386 . S
Sm517 O541 2.408 . S
Sm517 O542 2.543 . S
Sm517 O543 2.450 . S
Sm517 O544 2.681 . S
Sm517 O545 2.464 . S
Sm517 O546 2.396 . S
C518 Sm516 2.846 . S
C518 C519 1.506 . S
C518 O536 1.261 . S
C518 O537 1.242 . S
C519 C518 1.506 . S
C519 C520 1.358 . S
C519 C524 1.382 . S
C520 C519 1.358 . S
C520 C521 1.385 . S
C520 H548 0.930 . S
C521 C520 1.385 . S
C521 C522 1.395 . S
C521 H549 0.929 . S
C522 C521 1.395 . S
C522 C523 1.335 . S
C523 C522 1.335 . S
C523 C524 1.398 . S
C523 H550 0.930 . S
C524 C519 1.382 . S
C524 C523 1.398 . S
C524 H551 0.929 . S
C525 O538 1.271 . S
C525 O539 1.251 . S
C526 O540 1.252 . S
C526 O541 1.272 . S
C527 Sm517 2.846 . S
C527 C528 1.506 . S
C527 O542 1.261 . S
C527 O543 1.242 . S
C528 C527 1.506 . S
C528 C529 1.358 . S
C528 C533 1.382 . S
C529 C528 1.358 . S
C529 C530 1.385 . S
C529 H552 0.930 . S
C530 C529 1.385 . S
C530 C531 1.395 . S
C530 H553 0.929 . S
C531 C530 1.395 . S
C531 C532 1.335 . S
C532 C531 1.335 . S
C532 C533 1.398 . S
C532 H554 0.930 . S
C533 C528 1.382 . S
C533 C532 1.398 . S
C533 H555 0.929 . S
C534 O544 1.271 . S
C534 O545 1.251 . S
C535 O546 1.252 . S
C535 O547 1.272 . S
O536 Sm516 2.543 . S
O536 C518 1.261 . S
O537 Sm516 2.450 . S
O537 C518 1.242 . S
O538 Sm516 2.681 . S
O538 Sm517 2.386 . S
O538 C525 1.271 . S
O539 Sm516 2.464 . S
O539 C525 1.251 . S
O540 Sm516 2.396 . S
O540 C526 1.252 . S
O541 Sm517 2.408 . S
O541 C526 1.272 . S
O542 Sm517 2.543 . S
O542 C527 1.261 . S
O543 Sm517 2.450 . S
O543 C527 1.242 . S
O544 Sm516 2.386 . S
O544 Sm517 2.681 . S
O544 C534 1.271 . S
O545 Sm517 2.464 . S
O545 C534 1.251 . S
O546 Sm517 2.396 . S
O546 C535 1.252 . S
O547 Sm516 2.408 . S
O547 C535 1.272 . S
H548 C520 0.930 . S
H549 C521 0.929 . S
H550 C523 0.930 . S
H551 C524 0.929 . S
H552 C529 0.930 . S
H553 C530 0.929 . S
H554 C532 0.930 . S
H555 C533 0.929 . S
Sm556 C558 2.846 . S
Sm556 O576 2.543 . S
Sm556 O577 2.450 . S
Sm556 O578 2.681 . S
Sm556 O579 2.464 . S
Sm556 O580 2.396 . S
Sm556 O584 2.386 . S
Sm556 O587 2.408 . S
Sm557 C567 2.846 . S
Sm557 O578 2.386 . S
Sm557 O581 2.408 . S
Sm557 O582 2.543 . S
Sm557 O583 2.450 . S
Sm557 O584 2.681 . S
Sm557 O585 2.464 . S
Sm557 O586 2.396 . S
C558 Sm556 2.846 . S
C558 C559 1.506 . S
C558 O576 1.261 . S
C558 O577 1.242 . S
C559 C558 1.506 . S
C559 C560 1.358 . S
C559 C564 1.382 . S
C560 C559 1.358 . S
C560 C561 1.385 . S
C560 H588 0.930 . S
C561 C560 1.385 . S
C561 C562 1.395 . S
C561 H589 0.929 . S
C562 C561 1.395 . S
C562 C563 1.335 . S
C563 C562 1.335 . S
C563 C564 1.398 . S
C563 H590 0.930 . S
C564 C559 1.382 . S
C564 C563 1.398 . S
C564 H591 0.929 . S
C565 O578 1.271 . S
C565 O579 1.251 . S
C566 O580 1.252 . S
C566 O581 1.272 . S
C567 Sm557 2.846 . S
C567 C568 1.506 . S
C567 O582 1.261 . S
C567 O583 1.242 . S
C568 C567 1.506 . S
C568 C569 1.358 . S
C568 C573 1.382 . S
C569 C568 1.358 . S
C569 C570 1.385 . S
C569 H592 0.930 . S
C570 C569 1.385 . S
C570 C571 1.395 . S
C570 H593 0.929 . S
C571 C570 1.395 . S
C571 C572 1.335 . S
C572 C571 1.335 . S
C572 C573 1.398 . S
C572 H594 0.930 . S
C573 C568 1.382 . S
C573 C572 1.398 . S
C573 H595 0.929 . S
C574 O584 1.271 . S
C574 O585 1.251 . S
C575 O586 1.252 . S
C575 O587 1.272 . S
O576 Sm556 2.543 . S
O576 C558 1.261 . S
O577 Sm556 2.450 . S
O577 C558 1.242 . S
O578 Sm556 2.681 . S
O578 Sm557 2.386 . S
O578 C565 1.271 . S
O579 Sm556 2.464 . S
O579 C565 1.251 . S
O580 Sm556 2.396 . S
O580 C566 1.252 . S
O581 Sm557 2.408 . S
O581 C566 1.272 . S
O582 Sm557 2.543 . S
O582 C567 1.261 . S
O583 Sm557 2.450 . S
O583 C567 1.242 . S
O584 Sm556 2.386 . S
O584 Sm557 2.681 . S
O584 C574 1.271 . S
O585 Sm557 2.464 . S
O585 C574 1.251 . S
O586 Sm557 2.396 . S
O586 C575 1.252 . S
O587 Sm556 2.408 . S
O587 C575 1.272 . S
H588 C560 0.930 . S
H589 C561 0.929 . S
H590 C563 0.930 . S
H591 C564 0.929 . S
H592 C569 0.930 . S
H593 C570 0.929 . S
H594 C572 0.930 . S
H595 C573 0.929 . S
C596 C597 1.349 . S
C596 C598 1.327 . S
C596 H621 0.950 . S
C597 C596 1.349 . S
C597 C613 1.349 . S
C598 C596 1.327 . S
C598 C617 1.429 . S
C598 H622 0.950 . S
C599 C616 1.574 . S
C599 C618 1.368 . S
C599 H623 0.949 . S
H600 C604 0.949 . S
C601 C602 1.349 . S
C601 C603 1.327 . S
C601 H624 0.950 . S
C602 C601 1.349 . S
C602 C614 1.349 . S
C603 C601 1.327 . S
C603 C619 1.429 . S
C603 H625 0.950 . S
C604 H600 0.949 . S
C604 C612 1.574 . S
C604 C620 1.368 . S
H605 C613 0.950 . S
H606 C611 0.950 . S
H607 C612 0.949 . S
H608 C614 0.950 . S
H609 C615 0.950 . S
H610 C616 0.949 . S
C611 H606 0.950 . S
C611 C613 1.327 . S
C611 C617 1.429 . S
C612 C604 1.574 . S
C612 H607 0.949 . S
C612 C618 1.368 . S
C613 C597 1.349 . S
C613 H605 0.950 . S
C613 C611 1.327 . S
C614 C602 1.349 . S
C614 H608 0.950 . S
C614 C615 1.327 . S
C615 H609 0.950 . S
C615 C614 1.327 . S
C615 C619 1.429 . S
C616 C599 1.574 . S
C616 H610 0.949 . S
C616 C620 1.368 . S
C617 C598 1.429 . S
C617 C611 1.429 . S
C617 C618 1.523 . S
C618 C599 1.368 . S
C618 C612 1.368 . S
C618 C617 1.523 . S
C619 C603 1.429 . S
C619 C615 1.429 . S
C619 C620 1.523 . S
C620 C604 1.368 . S
C620 C616 1.368 . S
C620 C619 1.523 . S
H621 C596 0.950 . S
H622 C598 0.950 . S
H623 C599 0.949 . S
H624 C601 0.950 . S
H625 C603 0.950 . S
C626 C627 1.349 . S
C626 C628 1.327 . S
C626 H651 0.950 . S
C627 C626 1.349 . S
C627 C643 1.349 . S
C628 C626 1.327 . S
C628 C647 1.429 . S
C628 H652 0.950 . S
C629 C646 1.574 . S
C629 C648 1.368 . S
C629 H653 0.949 . S
H630 C634 0.949 . S
C631 C632 1.349 . S
C631 C633 1.327 . S
C631 H654 0.950 . S
C632 C631 1.349 . S
C632 C644 1.349 . S
C633 C631 1.327 . S
C633 C649 1.429 . S
C633 H655 0.950 . S
C634 H630 0.949 . S
C634 C642 1.574 . S
C634 C650 1.368 . S
H635 C643 0.950 . S
H636 C641 0.950 . S
H637 C642 0.949 . S
H638 C644 0.950 . S
H639 C645 0.950 . S
H640 C646 0.949 . S
C641 H636 0.950 . S
C641 C643 1.327 . S
C641 C647 1.429 . S
C642 C634 1.574 . S
C642 H637 0.949 . S
C642 C648 1.368 . S
C643 C627 1.349 . S
C643 H635 0.950 . S
C643 C641 1.327 . S
C644 C632 1.349 . S
C644 H638 0.950 . S
C644 C645 1.327 . S
C645 H639 0.950 . S
C645 C644 1.327 . S
C645 C649 1.429 . S
C646 C629 1.574 . S
C646 H640 0.949 . S
C646 C650 1.368 . S
C647 C628 1.429 . S
C647 C641 1.429 . S
C647 C648 1.523 . S
C648 C629 1.368 . S
C648 C642 1.368 . S
C648 C647 1.523 . S
C649 C633 1.429 . S
C649 C645 1.429 . S
C649 C650 1.523 . S
C650 C634 1.368 . S
C650 C646 1.368 . S
C650 C649 1.523 . S
H651 C626 0.950 . S
H652 C628 0.950 . S
H653 C629 0.949 . S
H654 C631 0.950 . S
H655 C633 0.950 . S
C656 C657 1.349 . S
C656 C658 1.327 . S
C656 H681 0.950 . S
C657 C656 1.349 . S
C657 C673 1.349 . S
C658 C656 1.327 . S
C658 C677 1.429 . S
C658 H682 0.950 . S
C659 C676 1.574 . S
C659 C678 1.368 . S
C659 H683 0.949 . S
H660 C664 0.949 . S
C661 C662 1.349 . S
C661 C663 1.327 . S
C661 H684 0.950 . S
C662 C661 1.349 . S
C662 C674 1.349 . S
C663 C661 1.327 . S
C663 C679 1.429 . S
C663 H685 0.950 . S
C664 H660 0.949 . S
C664 C672 1.574 . S
C664 C680 1.368 . S
H665 C673 0.950 . S
H666 C671 0.950 . S
H667 C672 0.949 . S
H668 C674 0.950 . S
H669 C675 0.950 . S
H670 C676 0.949 . S
C671 H666 0.950 . S
C671 C673 1.327 . S
C671 C677 1.429 . S
C672 C664 1.574 . S
C672 H667 0.949 . S
C672 C678 1.368 . S
C673 C657 1.349 . S
C673 H665 0.950 . S
C673 C671 1.327 . S
C674 C662 1.349 . S
C674 H668 0.950 . S
C674 C675 1.327 . S
C675 H669 0.950 . S
C675 C674 1.327 . S
C675 C679 1.429 . S
C676 C659 1.574 . S
C676 H670 0.949 . S
C676 C680 1.368 . S
C677 C658 1.429 . S
C677 C671 1.429 . S
C677 C678 1.523 . S
C678 C659 1.368 . S
C678 C672 1.368 . S
C678 C677 1.523 . S
C679 C663 1.429 . S
C679 C675 1.429 . S
C679 C680 1.523 . S
C680 C664 1.368 . S
C680 C676 1.368 . S
C680 C679 1.523 . S
H681 C656 0.950 . S
H682 C658 0.950 . S
H683 C659 0.949 . S
H684 C661 0.950 . S
H685 C663 0.950 . S
C686 C687 1.349 . S
C686 C688 1.327 . S
C686 H711 0.950 . S
C687 C686 1.349 . S
C687 C703 1.349 . S
C688 C686 1.327 . S
C688 C707 1.429 . S
C688 H712 0.950 . S
C689 C706 1.574 . S
C689 C708 1.368 . S
C689 H713 0.949 . S
H690 C694 0.949 . S
C691 C692 1.349 . S
C691 C693 1.327 . S
C691 H714 0.950 . S
C692 C691 1.349 . S
C692 C704 1.349 . S
C693 C691 1.327 . S
C693 C709 1.429 . S
C693 H715 0.950 . S
C694 H690 0.949 . S
C694 C702 1.574 . S
C694 C710 1.368 . S
H695 C703 0.950 . S
H696 C701 0.950 . S
H697 C702 0.949 . S
H698 C704 0.950 . S
H699 C705 0.950 . S
H700 C706 0.949 . S
C701 H696 0.950 . S
C701 C703 1.327 . S
C701 C707 1.429 . S
C702 C694 1.574 . S
C702 H697 0.949 . S
C702 C708 1.368 . S
C703 C687 1.349 . S
C703 H695 0.950 . S
C703 C701 1.327 . S
C704 C692 1.349 . S
C704 H698 0.950 . S
C704 C705 1.327 . S
C705 H699 0.950 . S
C705 C704 1.327 . S
C705 C709 1.429 . S
C706 C689 1.574 . S
C706 H700 0.949 . S
C706 C710 1.368 . S
C707 C688 1.429 . S
C707 C701 1.429 . S
C707 C708 1.523 . S
C708 C689 1.368 . S
C708 C702 1.368 . S
C708 C707 1.523 . S
C709 C693 1.429 . S
C709 C705 1.429 . S
C709 C710 1.523 . S
C710 C694 1.368 . S
C710 C706 1.368 . S
C710 C709 1.523 . S
H711 C686 0.950 . S
H712 C688 0.950 . S
H713 C689 0.949 . S
H714 C691 0.950 . S
H715 C693 0.950 . S
C716 C717 1.349 . S
C716 C718 1.327 . S
C716 H741 0.950 . S
C717 C716 1.349 . S
C717 C733 1.349 . S
C718 C716 1.327 . S
C718 C737 1.429 . S
C718 H742 0.950 . S
C719 C736 1.574 . S
C719 C738 1.368 . S
C719 H743 0.949 . S
H720 C724 0.949 . S
C721 C722 1.349 . S
C721 C723 1.327 . S
C721 H744 0.950 . S
C722 C721 1.349 . S
C722 C734 1.349 . S
C723 C721 1.327 . S
C723 C739 1.429 . S
C723 H745 0.950 . S
C724 H720 0.949 . S
C724 C732 1.574 . S
C724 C740 1.368 . S
H725 C733 0.950 . S
H726 C731 0.950 . S
H727 C732 0.949 . S
H728 C734 0.950 . S
H729 C735 0.950 . S
H730 C736 0.949 . S
C731 H726 0.950 . S
C731 C733 1.327 . S
C731 C737 1.429 . S
C732 C724 1.574 . S
C732 H727 0.949 . S
C732 C738 1.368 . S
C733 C717 1.349 . S
C733 H725 0.950 . S
C733 C731 1.327 . S
C734 C722 1.349 . S
C734 H728 0.950 . S
C734 C735 1.327 . S
C735 H729 0.950 . S
C735 C734 1.327 . S
C735 C739 1.429 . S
C736 C719 1.574 . S
C736 H730 0.949 . S
C736 C740 1.368 . S
C737 C718 1.429 . S
C737 C731 1.429 . S
C737 C738 1.523 . S
C738 C719 1.368 . S
C738 C732 1.368 . S
C738 C737 1.523 . S
C739 C723 1.429 . S
C739 C735 1.429 . S
C739 C740 1.523 . S
C740 C724 1.368 . S
C740 C736 1.368 . S
C740 C739 1.523 . S
H741 C716 0.950 . S
H742 C718 0.950 . S
H743 C719 0.949 . S
H744 C721 0.950 . S
H745 C723 0.950 . S
C746 C747 1.349 . S
C746 C748 1.327 . S
C746 H771 0.950 . S
C747 C746 1.349 . S
C747 C763 1.349 . S
C748 C746 1.327 . S
C748 C767 1.429 . S
C748 H772 0.950 . S
C749 C766 1.574 . S
C749 C768 1.368 . S
C749 H773 0.949 . S
H750 C754 0.949 . S
C751 C752 1.349 . S
C751 C753 1.327 . S
C751 H774 0.950 . S
C752 C751 1.349 . S
C752 C764 1.349 . S
C753 C751 1.327 . S
C753 C769 1.429 . S
C753 H775 0.950 . S
C754 H750 0.949 . S
C754 C762 1.574 . S
C754 C770 1.368 . S
H755 C763 0.950 . S
H756 C761 0.950 . S
H757 C762 0.949 . S
H758 C764 0.950 . S
H759 C765 0.950 . S
H760 C766 0.949 . S
C761 H756 0.950 . S
C761 C763 1.327 . S
C761 C767 1.429 . S
C762 C754 1.574 . S
C762 H757 0.949 . S
C762 C768 1.368 . S
C763 C747 1.349 . S
C763 H755 0.950 . S
C763 C761 1.327 . S
C764 C752 1.349 . S
C764 H758 0.950 . S
C764 C765 1.327 . S
C765 H759 0.950 . S
C765 C764 1.327 . S
C765 C769 1.429 . S
C766 C749 1.574 . S
C766 H760 0.949 . S
C766 C770 1.368 . S
C767 C748 1.429 . S
C767 C761 1.429 . S
C767 C768 1.523 . S
C768 C749 1.368 . S
C768 C762 1.368 . S
C768 C767 1.523 . S
C769 C753 1.429 . S
C769 C765 1.429 . S
C769 C770 1.523 . S
C770 C754 1.368 . S
C770 C766 1.368 . S
C770 C769 1.523 . S
H771 C746 0.950 . S
H772 C748 0.950 . S
H773 C749 0.949 . S
H774 C751 0.950 . S
H775 C753 0.950 . S
C776 C777 1.349 . S
C776 C778 1.327 . S
C776 H801 0.950 . S
C777 C776 1.349 . S
C777 C793 1.349 . S
C778 C776 1.327 . S
C778 C797 1.429 . S
C778 H802 0.950 . S
C779 C796 1.574 . S
C779 C798 1.368 . S
C779 H803 0.949 . S
H780 C784 0.949 . S
C781 C782 1.349 . S
C781 C783 1.327 . S
C781 H804 0.950 . S
C782 C781 1.349 . S
C782 C794 1.349 . S
C783 C781 1.327 . S
C783 C799 1.429 . S
C783 H805 0.950 . S
C784 H780 0.949 . S
C784 C792 1.574 . S
C784 C800 1.368 . S
H785 C793 0.950 . S
H786 C791 0.950 . S
H787 C792 0.949 . S
H788 C794 0.950 . S
H789 C795 0.950 . S
H790 C796 0.949 . S
C791 H786 0.950 . S
C791 C793 1.327 . S
C791 C797 1.429 . S
C792 C784 1.574 . S
C792 H787 0.949 . S
C792 C798 1.368 . S
C793 C777 1.349 . S
C793 H785 0.950 . S
C793 C791 1.327 . S
C794 C782 1.349 . S
C794 H788 0.950 . S
C794 C795 1.327 . S
C795 H789 0.950 . S
C795 C794 1.327 . S
C795 C799 1.429 . S
C796 C779 1.574 . S
C796 H790 0.949 . S
C796 C800 1.368 . S
C797 C778 1.429 . S
C797 C791 1.429 . S
C797 C798 1.523 . S
C798 C779 1.368 . S
C798 C792 1.368 . S
C798 C797 1.523 . S
C799 C783 1.429 . S
C799 C795 1.429 . S
C799 C800 1.523 . S
C800 C784 1.368 . S
C800 C796 1.368 . S
C800 C799 1.523 . S
H801 C776 0.950 . S
H802 C778 0.950 . S
H803 C779 0.949 . S
H804 C781 0.950 . S
H805 C783 0.950 . S
C806 C807 1.349 . S
C806 C808 1.327 . S
C806 H831 0.950 . S
C807 C806 1.349 . S
C807 C823 1.349 . S
C808 C806 1.327 . S
C808 C827 1.429 . S
C808 H832 0.950 . S
C809 C826 1.574 . S
C809 C828 1.368 . S
C809 H833 0.949 . S
H810 C814 0.949 . S
C811 C812 1.349 . S
C811 C813 1.327 . S
C811 H834 0.950 . S
C812 C811 1.349 . S
C812 C824 1.349 . S
C813 C811 1.327 . S
C813 C829 1.429 . S
C813 H835 0.950 . S
C814 H810 0.949 . S
C814 C822 1.574 . S
C814 C830 1.368 . S
H815 C823 0.950 1_545 S
H816 C821 0.950 . S
H817 C822 0.949 . S
H818 C824 0.950 . S
H819 C825 0.950 . S
H820 C826 0.949 . S
C821 H816 0.950 . S
C821 C823 1.327 . S
C821 C827 1.429 . S
C822 C814 1.574 . S
C822 H817 0.949 . S
C822 C828 1.368 . S
C823 C807 1.349 . S
C823 H815 0.950 1_565 S
C823 C821 1.327 . S
C824 C812 1.349 . S
C824 H818 0.950 . S
C824 C825 1.327 . S
C825 H819 0.950 . S
C825 C824 1.327 . S
C825 C829 1.429 . S
C826 C809 1.574 . S
C826 H820 0.949 . S
C826 C830 1.368 . S
C827 C808 1.429 . S
C827 C821 1.429 . S
C827 C828 1.523 . S
C828 C809 1.368 . S
C828 C822 1.368 . S
C828 C827 1.523 . S
C829 C813 1.429 . S
C829 C825 1.429 . S
C829 C830 1.523 . S
C830 C814 1.368 . S
C830 C826 1.368 . S
C830 C829 1.523 . S
H831 C806 0.950 . S
H832 C808 0.950 . S
H833 C809 0.949 . S
H834 C811 0.950 . S
H835 C813 0.950 . S
C836 C837 1.349 . S
C836 C838 1.327 . S
C836 H861 0.950 . S
C837 C836 1.349 . S
C837 C853 1.349 . S
C838 C836 1.327 . S
C838 C857 1.429 . S
C838 H862 0.950 . S
C839 C856 1.574 . S
C839 C858 1.368 . S
C839 H863 0.949 . S
H840 C844 0.949 . S
C841 C842 1.349 . S
C841 C843 1.327 . S
C841 H864 0.950 . S
C842 C841 1.349 . S
C842 C854 1.349 . S
C843 C841 1.327 . S
C843 C859 1.429 . S
C843 H865 0.950 . S
C844 H840 0.949 . S
C844 C852 1.574 . S
C844 C860 1.368 . S
H845 C853 0.950 . S
H846 C851 0.950 . S
H847 C852 0.949 . S
H848 C854 0.950 . S
H849 C855 0.950 . S
H850 C856 0.949 . S
C851 H846 0.950 . S
C851 C853 1.327 . S
C851 C857 1.429 . S
C852 C844 1.574 . S
C852 H847 0.949 . S
C852 C858 1.368 . S
C853 C837 1.349 . S
C853 H845 0.950 . S
C853 C851 1.327 . S
C854 C842 1.349 . S
C854 H848 0.950 . S
C854 C855 1.327 . S
C855 H849 0.950 . S
C855 C854 1.327 . S
C855 C859 1.429 . S
C856 C839 1.574 . S
C856 H850 0.949 . S
C856 C860 1.368 . S
C857 C838 1.429 . S
C857 C851 1.429 . S
C857 C858 1.523 . S
C858 C839 1.368 . S
C858 C852 1.368 . S
C858 C857 1.523 . S
C859 C843 1.429 . S
C859 C855 1.429 . S
C859 C860 1.523 . S
C860 C844 1.368 . S
C860 C856 1.368 . S
C860 C859 1.523 . S
H861 C836 0.950 . S
H862 C838 0.950 . S
H863 C839 0.949 . S
H864 C841 0.950 . S
H865 C843 0.950 . S
C866 C867 1.349 . S
C866 C868 1.327 . S
C866 H891 0.950 . S
C867 C866 1.349 . S
C867 C883 1.349 . S
C868 C866 1.327 . S
C868 C887 1.429 . S
C868 H892 0.950 . S
C869 C886 1.574 . S
C869 C888 1.368 . S
C869 H893 0.949 . S
H870 C874 0.949 . S
C871 C872 1.349 . S
C871 C873 1.327 . S
C871 H894 0.950 . S
C872 C871 1.349 . S
C872 C884 1.349 . S
C873 C871 1.327 . S
C873 C889 1.429 . S
C873 H895 0.950 . S
C874 H870 0.949 . S
C874 C882 1.574 . S
C874 C890 1.368 . S
H875 C883 0.950 . S
H876 C881 0.950 . S
H877 C882 0.949 . S
H878 C884 0.950 . S
H879 C885 0.950 . S
H880 C886 0.949 . S
C881 H876 0.950 . S
C881 C883 1.327 . S
C881 C887 1.429 . S
C882 C874 1.574 . S
C882 H877 0.949 . S
C882 C888 1.368 . S
C883 C867 1.349 . S
C883 H875 0.950 . S
C883 C881 1.327 . S
C884 C872 1.349 . S
C884 H878 0.950 . S
C884 C885 1.327 . S
C885 H879 0.950 . S
C885 C884 1.327 . S
C885 C889 1.429 . S
C886 C869 1.574 . S
C886 H880 0.949 . S
C886 C890 1.368 . S
C887 C868 1.429 . S
C887 C881 1.429 . S
C887 C888 1.523 . S
C888 C869 1.368 . S
C888 C882 1.368 . S
C888 C887 1.523 . S
C889 C873 1.429 . S
C889 C885 1.429 . S
C889 C890 1.523 . S
C890 C874 1.368 . S
C890 C886 1.368 . S
C890 C889 1.523 . S
H891 C866 0.950 . S
H892 C868 0.950 . S
H893 C869 0.949 . S
H894 C871 0.950 . S
H895 C873 0.950 . S
C896 C897 1.349 . S
C896 C898 1.327 . S
C896 H921 0.950 . S
C897 C896 1.349 . S
C897 C913 1.349 . S
C898 C896 1.327 . S
C898 C917 1.429 . S
C898 H922 0.950 . S
C899 C916 1.574 . S
C899 C918 1.368 . S
C899 H923 0.949 . S
H900 C904 0.949 . S
C901 C902 1.349 . S
C901 C903 1.327 . S
C901 H924 0.950 . S
C902 C901 1.349 . S
C902 C914 1.349 . S
C903 C901 1.327 . S
C903 C919 1.429 . S
C903 H925 0.950 . S
C904 H900 0.949 . S
C904 C912 1.574 . S
C904 C920 1.368 . S
H905 C913 0.950 . S
H906 C911 0.950 . S
H907 C912 0.949 . S
H908 C914 0.950 . S
H909 C915 0.950 . S
H910 C916 0.949 . S
C911 H906 0.950 . S
C911 C913 1.327 . S
C911 C917 1.429 . S
C912 C904 1.574 . S
C912 H907 0.949 . S
C912 C918 1.368 . S
C913 C897 1.349 . S
C913 H905 0.950 . S
C913 C911 1.327 . S
C914 C902 1.349 . S
C914 H908 0.950 . S
C914 C915 1.327 . S
C915 H909 0.950 . S
C915 C914 1.327 . S
C915 C919 1.429 . S
C916 C899 1.574 . S
C916 H910 0.949 . S
C916 C920 1.368 . S
C917 C898 1.429 . S
C917 C911 1.429 . S
C917 C918 1.523 . S
C918 C899 1.368 . S
C918 C912 1.368 . S
C918 C917 1.523 . S
C919 C903 1.429 . S
C919 C915 1.429 . S
C919 C920 1.523 . S
C920 C904 1.368 . S
C920 C916 1.368 . S
C920 C919 1.523 . S
H921 C896 0.950 . S
H922 C898 0.950 . S
H923 C899 0.949 . S
H924 C901 0.950 . S
H925 C903 0.950 . S
C926 C927 1.349 . S
C926 C928 1.327 . S
C926 H951 0.950 . S
C927 C926 1.349 . S
C927 C943 1.349 . S
C928 C926 1.327 . S
C928 C947 1.429 . S
C928 H952 0.950 . S
C929 C946 1.574 . S
C929 C948 1.368 . S
C929 H953 0.949 . S
H930 C934 0.949 . S
C931 C932 1.349 . S
C931 C933 1.327 . S
C931 H954 0.950 . S
C932 C931 1.349 . S
C932 C944 1.349 . S
C933 C931 1.327 . S
C933 C949 1.429 . S
C933 H955 0.950 . S
C934 H930 0.949 . S
C934 C942 1.574 . S
C934 C950 1.368 . S
H935 C943 0.950 . S
H936 C941 0.950 . S
H937 C942 0.949 . S
H938 C944 0.950 . S
H939 C945 0.950 . S
H940 C946 0.949 . S
C941 H936 0.950 . S
C941 C943 1.327 . S
C941 C947 1.429 . S
C942 C934 1.574 . S
C942 H937 0.949 . S
C942 C948 1.368 . S
C943 C927 1.349 . S
C943 H935 0.950 . S
C943 C941 1.327 . S
C944 C932 1.349 . S
C944 H938 0.950 . S
C944 C945 1.327 . S
C945 H939 0.950 . S
C945 C944 1.327 . S
C945 C949 1.429 . S
C946 C929 1.574 . S
C946 H940 0.949 . S
C946 C950 1.368 . S
C947 C928 1.429 . S
C947 C941 1.429 . S
C947 C948 1.523 . S
C948 C929 1.368 . S
C948 C942 1.368 . S
C948 C947 1.523 . S
C949 C933 1.429 . S
C949 C945 1.429 . S
C949 C950 1.523 . S
C950 C934 1.368 . S
C950 C946 1.368 . S
C950 C949 1.523 . S
H951 C926 0.950 . S
H952 C928 0.950 . S
H953 C929 0.949 . S
H954 C931 0.950 . S
H955 C933 0.950 . S
C956 C957 1.349 . S
C956 C958 1.327 . S
C956 H981 0.950 . S
C957 C956 1.349 . S
C957 C973 1.349 . S
C958 C956 1.327 . S
C958 C977 1.429 1_554 S
C958 H982 0.950 . S
C959 C976 1.574 . S
C959 C978 1.368 . S
C959 H983 0.949 . S
H960 C964 0.949 . S
C961 C962 1.349 . S
C961 C963 1.327 . S
C961 H984 0.950 . S
C962 C961 1.349 . S
C962 C974 1.349 . S
C963 C961 1.327 . S
C963 C979 1.429 . S
C963 H985 0.950 . S
C964 H960 0.949 . S
C964 C972 1.574 . S
C964 C980 1.368 . S
H965 C973 0.950 . S
H966 C971 0.950 1_556 S
H967 C972 0.949 . S
H968 C974 0.950 . S
H969 C975 0.950 . S
H970 C976 0.949 . S
C971 H966 0.950 1_554 S
C971 C973 1.327 . S
C971 C977 1.429 1_554 S
C972 C964 1.574 . S
C972 H967 0.949 . S
C972 C978 1.368 . S
C973 C957 1.349 . S
C973 H965 0.950 . S
C973 C971 1.327 . S
C974 C962 1.349 . S
C974 H968 0.950 . S
C974 C975 1.327 . S
C975 H969 0.950 . S
C975 C974 1.327 . S
C975 C979 1.429 . S
C976 C959 1.574 . S
C976 H970 0.949 . S
C976 C980 1.368 . S
C977 C958 1.429 1_556 S
C977 C971 1.429 1_556 S
C977 C978 1.523 . S
C978 C959 1.368 . S
C978 C972 1.368 . S
C978 C977 1.523 . S
C979 C963 1.429 . S
C979 C975 1.429 . S
C979 C980 1.523 . S
C980 C964 1.368 . S
C980 C976 1.368 . S
C980 C979 1.523 . S
H981 C956 0.950 . S
H982 C958 0.950 . S
H983 C959 0.949 . S
H984 C961 0.950 . S
H985 C963 0.950 . S
C986 C987 1.349 . S
C986 C988 1.327 . S
C986 H1011 0.950 . S
C987 C986 1.349 . S
C987 C1003 1.349 . S
C988 C986 1.327 . S
C988 C1007 1.429 . S
C988 H1012 0.950 . S
C989 C1006 1.574 . S
C989 C1008 1.368 . S
C989 H1013 0.949 . S
H990 C994 0.949 . S
C991 C992 1.349 . S
C991 C993 1.327 . S
C991 H1014 0.950 . S
C992 C991 1.349 . S
C992 C1004 1.349 . S
C993 C991 1.327 . S
C993 C1009 1.429 . S
C993 H1015 0.950 . S
C994 H990 0.949 . S
C994 C1002 1.574 . S
C994 C1010 1.368 . S
H995 C1003 0.950 . S
H996 C1001 0.950 . S
H997 C1002 0.949 . S
H998 C1004 0.950 . S
H999 C1005 0.950 . S
H1000 C1006 0.949 . S
C1001 H996 0.950 . S
C1001 C1003 1.327 . S
C1001 C1007 1.429 . S
C1002 C994 1.574 . S
C1002 H997 0.949 . S
C1002 C1008 1.368 . S
C1003 C987 1.349 . S
C1003 H995 0.950 . S
C1003 C1001 1.327 . S
C1004 C992 1.349 . S
C1004 H998 0.950 . S
C1004 C1005 1.327 . S
C1005 H999 0.950 . S
C1005 C1004 1.327 . S
C1005 C1009 1.429 . S
C1006 C989 1.574 . S
C1006 H1000 0.949 . S
C1006 C1010 1.368 . S
C1007 C988 1.429 . S
C1007 C1001 1.429 . S
C1007 C1008 1.523 . S
C1008 C989 1.368 . S
C1008 C1002 1.368 . S
C1008 C1007 1.523 . S
C1009 C993 1.429 . S
C1009 C1005 1.429 . S
C1009 C1010 1.523 . S
C1010 C994 1.368 . S
C1010 C1006 1.368 . S
C1010 C1009 1.523 . S
H1011 C986 0.950 . S
H1012 C988 0.950 . S
H1013 C989 0.949 . S
H1014 C991 0.950 . S
H1015 C993 0.950 . S
C1016 C1017 1.349 . S
C1016 C1018 1.327 . S
C1016 H1041 0.950 . S
C1017 C1016 1.349 . S
C1017 C1033 1.349 . S
C1018 C1016 1.327 . S
C1018 C1037 1.429 . S
C1018 H1042 0.950 . S
C1019 C1036 1.574 . S
C1019 C1038 1.368 . S
C1019 H1043 0.949 . S
H1020 C1024 0.949 . S
C1021 C1022 1.349 . S
C1021 C1023 1.327 . S
C1021 H1044 0.950 . S
C1022 C1021 1.349 . S
C1022 C1034 1.349 . S
C1023 C1021 1.327 . S
C1023 C1039 1.429 . S
C1023 H1045 0.950 . S
C1024 H1020 0.949 . S
C1024 C1032 1.574 . S
C1024 C1040 1.368 . S
H1025 C1033 0.950 . S
H1026 C1031 0.950 . S
H1027 C1032 0.949 . S
H1028 C1034 0.950 . S
H1029 C1035 0.950 . S
H1030 C1036 0.949 . S
C1031 H1026 0.950 . S
C1031 C1033 1.327 . S
C1031 C1037 1.429 . S
C1032 C1024 1.574 . S
C1032 H1027 0.949 . S
C1032 C1038 1.368 . S
C1033 C1017 1.349 . S
C1033 H1025 0.950 . S
C1033 C1031 1.327 . S
C1034 C1022 1.349 . S
C1034 H1028 0.950 . S
C1034 C1035 1.327 . S
C1035 H1029 0.950 . S
C1035 C1034 1.327 . S
C1035 C1039 1.429 . S
C1036 C1019 1.574 . S
C1036 H1030 0.949 . S
C1036 C1040 1.368 . S
C1037 C1018 1.429 . S
C1037 C1031 1.429 . S
C1037 C1038 1.523 . S
C1038 C1019 1.368 . S
C1038 C1032 1.368 . S
C1038 C1037 1.523 . S
C1039 C1023 1.429 . S
C1039 C1035 1.429 . S
C1039 C1040 1.523 . S
C1040 C1024 1.368 . S
C1040 C1036 1.368 . S
C1040 C1039 1.523 . S
H1041 C1016 0.950 . S
H1042 C1018 0.950 . S
H1043 C1019 0.949 . S
H1044 C1021 0.950 . S
H1045 C1023 0.950 . S
C1046 C1047 1.349 . S
C1046 C1048 1.327 . S
C1046 H1071 0.950 . S
C1047 C1046 1.349 . S
C1047 C1063 1.349 . S
C1048 C1046 1.327 . S
C1048 C1067 1.429 . S
C1048 H1072 0.950 . S
C1049 C1066 1.574 . S
C1049 C1068 1.368 . S
C1049 H1073 0.949 . S
H1050 C1054 0.949 . S
C1051 C1052 1.349 . S
C1051 C1053 1.327 . S
C1051 H1074 0.950 . S
C1052 C1051 1.349 . S
C1052 C1064 1.349 . S
C1053 C1051 1.327 . S
C1053 C1069 1.429 . S
C1053 H1075 0.950 . S
C1054 H1050 0.949 . S
C1054 C1062 1.574 . S
C1054 C1070 1.368 . S
H1055 C1063 0.950 . S
H1056 C1061 0.950 . S
H1057 C1062 0.949 . S
H1058 C1064 0.950 . S
H1059 C1065 0.950 . S
H1060 C1066 0.949 . S
C1061 H1056 0.950 . S
C1061 C1063 1.327 . S
C1061 C1067 1.429 . S
C1062 C1054 1.574 . S
C1062 H1057 0.949 . S
C1062 C1068 1.368 . S
C1063 C1047 1.349 . S
C1063 H1055 0.950 . S
C1063 C1061 1.327 . S
C1064 C1052 1.349 . S
C1064 H1058 0.950 . S
C1064 C1065 1.327 . S
C1065 H1059 0.950 . S
C1065 C1064 1.327 . S
C1065 C1069 1.429 . S
C1066 C1049 1.574 . S
C1066 H1060 0.949 . S
C1066 C1070 1.368 . S
C1067 C1048 1.429 . S
C1067 C1061 1.429 . S
C1067 C1068 1.523 . S
C1068 C1049 1.368 . S
C1068 C1062 1.368 . S
C1068 C1067 1.523 . S
C1069 C1053 1.429 . S
C1069 C1065 1.429 . S
C1069 C1070 1.523 . S
C1070 C1054 1.368 . S
C1070 C1066 1.368 . S
C1070 C1069 1.523 . S
H1071 C1046 0.950 . S
H1072 C1048 0.950 . S
H1073 C1049 0.949 . S
H1074 C1051 0.950 . S
H1075 C1053 0.950 . S
C1076 C1077 1.349 . S
C1076 C1078 1.327 . S
C1076 H1101 0.950 . S
C1077 C1076 1.349 . S
C1077 C1093 1.349 . S
C1078 C1076 1.327 . S
C1078 C1097 1.429 . S
C1078 H1102 0.950 . S
C1079 C1096 1.574 . S
C1079 C1098 1.368 . S
C1079 H1103 0.949 . S
H1080 C1084 0.949 . S
C1081 C1082 1.349 . S
C1081 C1083 1.327 . S
C1081 H1104 0.950 . S
C1082 C1081 1.349 . S
C1082 C1094 1.349 . S
C1083 C1081 1.327 . S
C1083 C1099 1.429 . S
C1083 H1105 0.950 . S
C1084 H1080 0.949 . S
C1084 C1092 1.574 . S
C1084 C1100 1.368 . S
H1085 C1093 0.950 . S
H1086 C1091 0.950 . S
H1087 C1092 0.949 . S
H1088 C1094 0.950 . S
H1089 C1095 0.950 . S
H1090 C1096 0.949 . S
C1091 H1086 0.950 . S
C1091 C1093 1.327 . S
C1091 C1097 1.429 . S
C1092 C1084 1.574 . S
C1092 H1087 0.949 . S
C1092 C1098 1.368 . S
C1093 C1077 1.349 . S
C1093 H1085 0.950 . S
C1093 C1091 1.327 . S
C1094 C1082 1.349 . S
C1094 H1088 0.950 . S
C1094 C1095 1.327 . S
C1095 H1089 0.950 . S
C1095 C1094 1.327 . S
C1095 C1099 1.429 . S
C1096 C1079 1.574 . S
C1096 H1090 0.949 . S
C1096 C1100 1.368 . S
C1097 C1078 1.429 . S
C1097 C1091 1.429 . S
C1097 C1098 1.523 . S
C1098 C1079 1.368 . S
C1098 C1092 1.368 . S
C1098 C1097 1.523 . S
C1099 C1083 1.429 . S
C1099 C1095 1.429 . S
C1099 C1100 1.523 . S
C1100 C1084 1.368 . S
C1100 C1096 1.368 . S
C1100 C1099 1.523 . S
H1101 C1076 0.950 . S
H1102 C1078 0.950 . S
H1103 C1079 0.949 . S
H1104 C1081 0.950 . S
H1105 C1083 0.950 . S
C1106 C1107 1.349 . S
C1106 C1108 1.327 . S
C1106 H1131 0.950 . S
C1107 C1106 1.349 . S
C1107 C1123 1.349 . S
C1108 C1106 1.327 . S
C1108 C1127 1.429 . S
C1108 H1132 0.950 . S
C1109 C1126 1.574 . S
C1109 C1128 1.368 . S
C1109 H1133 0.949 . S
H1110 C1114 0.949 . S
C1111 C1112 1.349 . S
C1111 C1113 1.327 . S
C1111 H1134 0.950 . S
C1112 C1111 1.349 . S
C1112 C1124 1.349 . S
C1113 C1111 1.327 . S
C1113 C1129 1.429 . S
C1113 H1135 0.950 . S
C1114 H1110 0.949 . S
C1114 C1122 1.574 . S
C1114 C1130 1.368 . S
H1115 C1123 0.950 . S
H1116 C1121 0.950 . S
H1117 C1122 0.949 . S
H1118 C1124 0.950 . S
H1119 C1125 0.950 . S
H1120 C1126 0.949 . S
C1121 H1116 0.950 . S
C1121 C1123 1.327 . S
C1121 C1127 1.429 . S
C1122 C1114 1.574 . S
C1122 H1117 0.949 . S
C1122 C1128 1.368 . S
C1123 C1107 1.349 . S
C1123 H1115 0.950 . S
C1123 C1121 1.327 . S
C1124 C1112 1.349 . S
C1124 H1118 0.950 . S
C1124 C1125 1.327 . S
C1125 H1119 0.950 . S
C1125 C1124 1.327 . S
C1125 C1129 1.429 . S
C1126 C1109 1.574 . S
C1126 H1120 0.949 . S
C1126 C1130 1.368 . S
C1127 C1108 1.429 . S
C1127 C1121 1.429 . S
C1127 C1128 1.523 . S
C1128 C1109 1.368 . S
C1128 C1122 1.368 . S
C1128 C1127 1.523 . S
C1129 C1113 1.429 . S
C1129 C1125 1.429 . S
C1129 C1130 1.523 . S
C1130 C1114 1.368 . S
C1130 C1126 1.368 . S
C1130 C1129 1.523 . S
H1131 C1106 0.950 . S
H1132 C1108 0.950 . S
H1133 C1109 0.949 . S
H1134 C1111 0.950 . S
H1135 C1113 0.950 . S
C1136 C1137 1.349 . S
C1136 C1138 1.292 1_554 S
C1136 H1161 0.950 . S
C1137 C1136 1.349 . S
C1137 C1153 1.349 1_554 S
C1138 C1136 1.292 1_556 S
C1138 C1157 1.470 . S
C1138 H1162 0.944 1_556 S
C1139 C1156 1.574 . S
C1139 C1158 1.368 . S
C1139 H1163 0.949 . S
H1140 C1144 0.949 . S
C1141 C1142 1.349 . S
C1141 C1143 1.327 . S
C1141 H1164 0.950 . S
C1142 C1141 1.349 . S
C1142 C1154 1.349 . S
C1143 C1141 1.327 . S
C1143 C1159 1.429 . S
C1143 H1165 0.950 . S
C1144 H1140 0.949 . S
C1144 C1152 1.574 . S
C1144 C1160 1.368 . S
H1145 C1153 0.950 . S
H1146 C1151 0.950 . S
H1147 C1152 0.949 . S
H1148 C1154 0.950 . S
H1149 C1155 0.950 . S
H1150 C1156 0.949 . S
C1151 H1146 0.950 . S
C1151 C1153 1.327 . S
C1151 C1157 1.429 . S
C1152 C1144 1.574 . S
C1152 H1147 0.949 . S
C1152 C1158 1.368 . S
C1153 C1137 1.349 1_556 S
C1153 H1145 0.950 . S
C1153 C1151 1.327 . S
C1154 C1142 1.349 . S
C1154 H1148 0.950 . S
C1154 C1155 1.327 . S
C1155 H1149 0.950 . S
C1155 C1154 1.327 . S
C1155 C1159 1.429 . S
C1156 C1139 1.574 . S
C1156 H1150 0.949 . S
C1156 C1160 1.368 . S
C1157 C1138 1.470 . S
C1157 C1151 1.429 . S
C1157 C1158 1.523 . S
C1158 C1139 1.368 . S
C1158 C1152 1.368 . S
C1158 C1157 1.523 . S
C1159 C1143 1.429 . S
C1159 C1155 1.429 . S
C1159 C1160 1.523 . S
C1160 C1144 1.368 . S
C1160 C1156 1.368 . S
C1160 C1159 1.523 . S
H1161 C1136 0.950 . S
H1162 C1138 0.944 1_554 S
H1163 C1139 0.949 . S
H1164 C1141 0.950 . S
H1165 C1143 0.950 . S
C1166 C1167 1.349 . S
C1166 C1168 1.327 . S
C1166 H1191 0.950 . S
C1167 C1166 1.349 . S
C1167 C1183 1.349 1_554 S
C1168 C1166 1.327 . S
C1168 C1187 1.429 1_554 S
C1168 H1192 0.950 . S
C1169 C1186 1.574 . S
C1169 C1188 1.368 . S
C1169 H1193 0.949 . S
H1170 C1174 0.949 . S
C1171 C1172 1.349 . S
C1171 C1173 1.327 . S
C1171 H1194 0.950 . S
C1172 C1171 1.349 . S
C1172 C1184 1.349 . S
C1173 C1171 1.327 . S
C1173 C1189 1.429 . S
C1173 H1195 0.950 . S
C1174 H1170 0.949 . S
C1174 C1182 1.574 . S
C1174 C1190 1.368 . S
H1175 C1183 0.950 1_455 S
H1176 C1181 0.950 . S
H1177 C1182 0.949 1_554 S
H1178 C1184 0.950 . S
H1179 C1185 0.950 . S
H1180 C1186 0.949 . S
C1181 H1176 0.950 . S
C1181 C1183 1.327 . S
C1181 C1187 1.429 . S
C1182 C1174 1.574 . S
C1182 H1177 0.949 1_556 S
C1182 C1188 1.368 . S
C1183 C1167 1.349 1_556 S
C1183 H1175 0.950 1_655 S
C1183 C1181 1.327 . S
C1184 C1172 1.349 . S
C1184 H1178 0.950 . S
C1184 C1185 1.327 . S
C1185 H1179 0.950 . S
C1185 C1184 1.327 . S
C1185 C1189 1.429 . S
C1186 C1169 1.574 . S
C1186 H1180 0.949 . S
C1186 C1190 1.368 . S
C1187 C1168 1.429 1_556 S
C1187 C1181 1.429 . S
C1187 C1188 1.523 . S
C1188 C1169 1.368 . S
C1188 C1182 1.368 . S
C1188 C1187 1.523 . S
C1189 C1173 1.429 . S
C1189 C1185 1.429 . S
C1189 C1190 1.523 . S
C1190 C1174 1.368 . S
C1190 C1186 1.368 . S
C1190 C1189 1.523 . S
H1191 C1166 0.950 . S
H1192 C1168 0.950 . S
H1193 C1169 0.949 . S
H1194 C1171 0.950 . S
H1195 C1173 0.950 . S
C1196 C1197 1.349 . S
C1196 C1198 1.327 . S
C1196 H1221 0.950 . S
C1197 C1196 1.349 . S
C1197 C1213 1.349 . S
C1198 C1196 1.327 . S
C1198 C1217 1.429 . S
C1198 H1222 0.950 . S
C1199 C1216 1.574 . S
C1199 C1218 1.368 . S
C1199 H1223 0.949 . S
H1200 C1204 0.949 . S
C1201 C1202 1.349 . S
C1201 C1203 1.327 . S
C1201 H1224 0.950 . S
C1202 C1201 1.349 . S
C1202 C1214 1.349 . S
C1203 C1201 1.327 . S
C1203 C1219 1.429 . S
C1203 H1225 0.950 . S
C1204 H1200 0.949 . S
C1204 C1212 1.574 . S
C1204 C1220 1.368 . S
H1205 C1213 0.950 . S
H1206 C1211 0.950 . S
H1207 C1212 0.949 . S
H1208 C1214 0.950 . S
H1209 C1215 0.950 . S
H1210 C1216 0.949 . S
C1211 H1206 0.950 . S
C1211 C1213 1.327 . S
C1211 C1217 1.429 . S
C1212 C1204 1.574 . S
C1212 H1207 0.949 . S
C1212 C1218 1.368 . S
C1213 C1197 1.349 . S
C1213 H1205 0.950 . S
C1213 C1211 1.327 . S
C1214 C1202 1.349 . S
C1214 H1208 0.950 . S
C1214 C1215 1.327 . S
C1215 H1209 0.950 . S
C1215 C1214 1.327 . S
C1215 C1219 1.429 . S
C1216 C1199 1.574 . S
C1216 H1210 0.949 . S
C1216 C1220 1.368 . S
C1217 C1198 1.429 . S
C1217 C1211 1.429 . S
C1217 C1218 1.523 . S
C1218 C1199 1.368 . S
C1218 C1212 1.368 . S
C1218 C1217 1.523 . S
C1219 C1203 1.429 . S
C1219 C1215 1.429 . S
C1219 C1220 1.523 . S
C1220 C1204 1.368 . S
C1220 C1216 1.368 . S
C1220 C1219 1.523 . S
H1221 C1196 0.950 . S
H1222 C1198 0.950 . S
H1223 C1199 0.949 . S
H1224 C1201 0.950 . S
H1225 C1203 0.950 . S
C1226 C1227 1.349 . S
C1226 C1228 1.327 . S
C1226 H1251 0.950 . S
C1227 C1226 1.349 . S
C1227 C1243 1.349 . S
C1228 C1226 1.327 . S
C1228 C1247 1.429 . S
C1228 H1252 0.950 . S
C1229 C1246 1.574 . S
C1229 C1248 1.368 . S
C1229 H1253 0.949 . S
H1230 C1234 0.949 . S
C1231 C1232 1.349 . S
C1231 C1233 1.327 . S
C1231 H1254 0.950 . S
C1232 C1231 1.349 . S
C1232 C1244 1.349 . S
C1233 C1231 1.327 . S
C1233 C1249 1.429 . S
C1233 H1255 0.950 . S
C1234 H1230 0.949 . S
C1234 C1242 1.574 . S
C1234 C1250 1.368 . S
H1235 C1243 0.950 . S
H1236 C1241 0.950 . S
H1237 C1242 0.949 . S
H1238 C1244 0.950 . S
H1239 C1245 0.950 . S
H1240 C1246 0.949 . S
C1241 H1236 0.950 . S
C1241 C1243 1.327 . S
C1241 C1247 1.429 . S
C1242 C1234 1.574 . S
C1242 H1237 0.949 . S
C1242 C1248 1.368 . S
C1243 C1227 1.349 . S
C1243 H1235 0.950 . S
C1243 C1241 1.327 . S
C1244 C1232 1.349 . S
C1244 H1238 0.950 . S
C1244 C1245 1.327 . S
C1245 H1239 0.950 . S
C1245 C1244 1.327 . S
C1245 C1249 1.429 . S
C1246 C1229 1.574 . S
C1246 H1240 0.949 . S
C1246 C1250 1.368 . S
C1247 C1228 1.429 . S
C1247 C1241 1.429 . S
C1247 C1248 1.523 . S
C1248 C1229 1.368 . S
C1248 C1242 1.368 . S
C1248 C1247 1.523 . S
C1249 C1233 1.429 . S
C1249 C1245 1.429 . S
C1249 C1250 1.523 . S
C1250 C1234 1.368 . S
C1250 C1246 1.368 . S
C1250 C1249 1.523 . S
H1251 C1226 0.950 . S
H1252 C1228 0.950 . S
H1253 C1229 0.949 . S
H1254 C1231 0.950 . S
H1255 C1233 0.950 . S
C1256 C1257 1.349 . S
C1256 C1258 1.327 . S
C1256 H1281 0.950 . S
C1257 C1256 1.349 . S
C1257 C1273 1.349 . S
C1258 C1256 1.327 . S
C1258 C1277 1.429 . S
C1258 H1282 0.950 . S
C1259 C1276 1.574 . S
C1259 C1278 1.368 . S
C1259 H1283 0.949 . S
H1260 C1264 0.949 . S
C1261 C1262 1.349 . S
C1261 C1263 1.327 . S
C1261 H1284 0.950 . S
C1262 C1261 1.349 . S
C1262 C1274 1.349 . S
C1263 C1261 1.327 . S
C1263 C1279 1.429 . S
C1263 H1285 0.950 . S
C1264 H1260 0.949 . S
C1264 C1272 1.574 . S
C1264 C1280 1.368 . S
H1265 C1273 0.950 . S
H1266 C1271 0.950 . S
H1267 C1272 0.949 . S
H1268 C1274 0.950 . S
H1269 C1275 0.950 . S
H1270 C1276 0.949 . S
C1271 H1266 0.950 . S
C1271 C1273 1.327 . S
C1271 C1277 1.429 . S
C1272 C1264 1.574 . S
C1272 H1267 0.949 . S
C1272 C1278 1.368 . S
C1273 C1257 1.349 . S
C1273 H1265 0.950 . S
C1273 C1271 1.327 . S
C1274 C1262 1.349 . S
C1274 H1268 0.950 . S
C1274 C1275 1.327 . S
C1275 H1269 0.950 . S
C1275 C1274 1.327 . S
C1275 C1279 1.429 . S
C1276 C1259 1.574 . S
C1276 H1270 0.949 . S
C1276 C1280 1.368 . S
C1277 C1258 1.429 . S
C1277 C1271 1.429 . S
C1277 C1278 1.523 . S
C1278 C1259 1.368 . S
C1278 C1272 1.368 . S
C1278 C1277 1.523 . S
C1279 C1263 1.429 . S
C1279 C1275 1.429 . S
C1279 C1280 1.523 . S
C1280 C1264 1.368 . S
C1280 C1276 1.368 . S
C1280 C1279 1.523 . S
H1281 C1256 0.950 . S
H1282 C1258 0.950 . S
H1283 C1259 0.949 . S
H1284 C1261 0.950 . S
H1285 C1263 0.950 . S
C1286 C1287 1.349 . S
C1286 C1288 1.327 . S
C1286 H1311 0.950 . S
C1287 C1286 1.349 . S
C1287 C1303 1.349 . S
C1288 C1286 1.327 . S
C1288 C1307 1.429 . S
C1288 H1312 0.950 . S
C1289 C1306 1.574 . S
C1289 C1308 1.368 . S
C1289 H1313 0.949 . S
H1290 C1294 0.949 . S
C1291 C1292 1.349 . S
C1291 C1293 1.327 . S
C1291 H1314 0.950 . S
C1292 C1291 1.349 . S
C1292 C1304 1.349 . S
C1293 C1291 1.327 . S
C1293 C1309 1.429 . S
C1293 H1315 0.950 . S
C1294 H1290 0.949 . S
C1294 C1302 1.574 . S
C1294 C1310 1.368 . S
H1295 C1303 0.950 . S
H1296 C1301 0.950 . S
H1297 C1302 0.949 . S
H1298 C1304 0.950 . S
H1299 C1305 0.950 . S
H1300 C1306 0.949 . S
C1301 H1296 0.950 . S
C1301 C1303 1.327 . S
C1301 C1307 1.429 . S
C1302 C1294 1.574 . S
C1302 H1297 0.949 . S
C1302 C1308 1.368 . S
C1303 C1287 1.349 . S
C1303 H1295 0.950 . S
C1303 C1301 1.327 . S
C1304 C1292 1.349 . S
C1304 H1298 0.950 . S
C1304 C1305 1.327 . S
C1305 H1299 0.950 . S
C1305 C1304 1.327 . S
C1305 C1309 1.429 . S
C1306 C1289 1.574 . S
C1306 H1300 0.949 . S
C1306 C1310 1.368 . S
C1307 C1288 1.429 . S
C1307 C1301 1.429 . S
C1307 C1308 1.523 . S
C1308 C1289 1.368 . S
C1308 C1302 1.368 . S
C1308 C1307 1.523 . S
C1309 C1293 1.429 . S
C1309 C1305 1.429 . S
C1309 C1310 1.523 . S
C1310 C1294 1.368 . S
C1310 C1306 1.368 . S
C1310 C1309 1.523 . S
H1311 C1286 0.950 . S
H1312 C1288 0.950 . S
H1313 C1289 0.949 . S
H1314 C1291 0.950 . S
H1315 C1293 0.950 . S
C1316 C1317 1.349 . S
C1316 C1318 1.327 . S
C1316 H1341 0.950 . S
C1317 C1316 1.349 . S
C1317 C1333 1.349 . S
C1318 C1316 1.327 . S
C1318 C1337 1.429 . S
C1318 H1342 0.950 . S
C1319 C1336 1.574 . S
C1319 C1338 1.368 . S
C1319 H1343 0.949 . S
H1320 C1324 0.949 . S
C1321 C1322 1.349 . S
C1321 C1323 1.327 . S
C1321 H1344 0.950 . S
C1322 C1321 1.349 . S
C1322 C1334 1.349 . S
C1323 C1321 1.327 . S
C1323 C1339 1.429 . S
C1323 H1345 0.950 . S
C1324 H1320 0.949 . S
C1324 C1332 1.574 . S
C1324 C1340 1.368 . S
H1325 C1333 0.950 . S
H1326 C1331 0.950 . S
H1327 C1332 0.949 . S
H1328 C1334 0.950 . S
H1329 C1335 0.950 . S
H1330 C1336 0.949 . S
C1331 H1326 0.950 . S
C1331 C1333 1.327 . S
C1331 C1337 1.429 . S
C1332 C1324 1.574 . S
C1332 H1327 0.949 . S
C1332 C1338 1.368 . S
C1333 C1317 1.349 . S
C1333 H1325 0.950 . S
C1333 C1331 1.327 . S
C1334 C1322 1.349 . S
C1334 H1328 0.950 . S
C1334 C1335 1.327 . S
C1335 H1329 0.950 . S
C1335 C1334 1.327 . S
C1335 C1339 1.429 . S
C1336 C1319 1.574 . S
C1336 H1330 0.949 . S
C1336 C1340 1.368 . S
C1337 C1318 1.429 . S
C1337 C1331 1.429 . S
C1337 C1338 1.523 . S
C1338 C1319 1.368 . S
C1338 C1332 1.368 . S
C1338 C1337 1.523 . S
C1339 C1323 1.429 . S
C1339 C1335 1.429 . S
C1339 C1340 1.523 . S
C1340 C1324 1.368 . S
C1340 C1336 1.368 . S
C1340 C1339 1.523 . S
H1341 C1316 0.950 . S
H1342 C1318 0.950 . S
H1343 C1319 0.949 . S
H1344 C1321 0.950 . S
H1345 C1323 0.950 . S
C1346 C1347 1.349 . S
C1346 C1348 1.327 . S
C1346 H1371 0.950 . S
C1347 C1346 1.349 . S
C1347 C1363 1.349 . S
C1348 C1346 1.327 . S
C1348 C1367 1.429 . S
C1348 H1372 0.950 . S
C1349 C1366 1.574 . S
C1349 C1368 1.368 . S
C1349 H1373 0.949 . S
H1350 C1354 0.949 . S
C1351 C1352 1.349 . S
C1351 C1353 1.327 . S
C1351 H1374 0.950 . S
C1352 C1351 1.349 . S
C1352 C1364 1.349 . S
C1353 C1351 1.327 . S
C1353 C1369 1.429 . S
C1353 H1375 0.950 . S
C1354 H1350 0.949 . S
C1354 C1362 1.574 . S
C1354 C1370 1.368 . S
H1355 C1363 0.950 . S
H1356 C1361 0.950 . S
H1357 C1362 0.949 . S
H1358 C1364 0.950 . S
H1359 C1365 0.950 . S
H1360 C1366 0.949 . S
C1361 H1356 0.950 . S
C1361 C1363 1.327 . S
C1361 C1367 1.429 . S
C1362 C1354 1.574 . S
C1362 H1357 0.949 . S
C1362 C1368 1.368 . S
C1363 C1347 1.349 . S
C1363 H1355 0.950 . S
C1363 C1361 1.327 . S
C1364 C1352 1.349 . S
C1364 H1358 0.950 . S
C1364 C1365 1.327 . S
C1365 H1359 0.950 . S
C1365 C1364 1.327 . S
C1365 C1369 1.429 . S
C1366 C1349 1.574 . S
C1366 H1360 0.949 . S
C1366 C1370 1.368 . S
C1367 C1348 1.429 . S
C1367 C1361 1.429 . S
C1367 C1368 1.523 . S
C1368 C1349 1.368 . S
C1368 C1362 1.368 . S
C1368 C1367 1.523 . S
C1369 C1353 1.429 . S
C1369 C1365 1.429 . S
C1369 C1370 1.523 . S
C1370 C1354 1.368 . S
C1370 C1366 1.368 . S
C1370 C1369 1.523 . S
H1371 C1346 0.950 . S
H1372 C1348 0.950 . S
H1373 C1349 0.949 . S
H1374 C1351 0.950 . S
H1375 C1353 0.950 . S
C1376 C1377 1.349 . S
C1376 C1378 1.327 . S
C1376 H1401 0.950 . S
C1377 C1376 1.349 . S
C1377 C1393 1.349 . S
C1378 C1376 1.327 . S
C1378 C1397 1.429 . S
C1378 H1402 0.950 . S
C1379 C1396 1.574 . S
C1379 C1398 1.368 . S
C1379 H1403 0.949 . S
H1380 C1384 0.949 . S
C1381 C1382 1.349 . S
C1381 C1383 1.327 . S
C1381 H1404 0.950 . S
C1382 C1381 1.349 . S
C1382 C1394 1.349 . S
C1383 C1381 1.327 . S
C1383 C1399 1.429 . S
C1383 H1405 0.950 . S
C1384 H1380 0.949 . S
C1384 C1392 1.574 . S
C1384 C1400 1.368 . S
H1385 C1393 0.950 . S
H1386 C1391 0.950 . S
H1387 C1392 0.949 . S
H1388 C1394 0.950 . S
H1389 C1395 0.950 . S
H1390 C1396 0.949 . S
C1391 H1386 0.950 . S
C1391 C1393 1.327 . S
C1391 C1397 1.429 . S
C1392 C1384 1.574 . S
C1392 H1387 0.949 . S
C1392 C1398 1.368 . S
C1393 C1377 1.349 . S
C1393 H1385 0.950 . S
C1393 C1391 1.327 . S
C1394 C1382 1.349 . S
C1394 H1388 0.950 . S
C1394 C1395 1.327 . S
C1395 H1389 0.950 . S
C1395 C1394 1.327 . S
C1395 C1399 1.429 . S
C1396 C1379 1.574 . S
C1396 H1390 0.949 . S
C1396 C1400 1.368 . S
C1397 C1378 1.429 . S
C1397 C1391 1.429 . S
C1397 C1398 1.523 . S
C1398 C1379 1.368 . S
C1398 C1392 1.368 . S
C1398 C1397 1.523 . S
C1399 C1383 1.429 . S
C1399 C1395 1.429 . S
C1399 C1400 1.523 . S
C1400 C1384 1.368 . S
C1400 C1396 1.368 . S
C1400 C1399 1.523 . S
H1401 C1376 0.950 . S
H1402 C1378 0.950 . S
H1403 C1379 0.949 . S
H1404 C1381 0.950 . S
H1405 C1383 0.950 . S
C1406 C1407 1.349 . S
C1406 C1408 1.327 . S
C1406 H1431 0.950 . S
C1407 C1406 1.349 . S
C1407 C1423 1.349 . S
C1408 C1406 1.327 . S
C1408 C1427 1.429 . S
C1408 H1432 0.950 . S
C1409 C1426 1.574 . S
C1409 C1428 1.368 . S
C1409 H1433 0.949 . S
H1410 C1414 0.949 . S
C1411 C1412 1.349 . S
C1411 C1413 1.327 . S
C1411 H1434 0.950 . S
C1412 C1411 1.349 . S
C1412 C1424 1.349 . S
C1413 C1411 1.327 . S
C1413 C1429 1.429 . S
C1413 H1435 0.950 . S
C1414 H1410 0.949 . S
C1414 C1422 1.574 . S
C1414 C1430 1.368 . S
H1415 C1423 0.950 . S
H1416 C1421 0.950 . S
H1417 C1422 0.949 . S
H1418 C1424 0.950 . S
H1419 C1425 0.950 . S
H1420 C1426 0.949 . S
C1421 H1416 0.950 . S
C1421 C1423 1.327 . S
C1421 C1427 1.429 . S
C1422 C1414 1.574 . S
C1422 H1417 0.949 . S
C1422 C1428 1.368 . S
C1423 C1407 1.349 . S
C1423 H1415 0.950 . S
C1423 C1421 1.327 . S
C1424 C1412 1.349 . S
C1424 H1418 0.950 . S
C1424 C1425 1.327 . S
C1425 H1419 0.950 . S
C1425 C1424 1.327 . S
C1425 C1429 1.429 . S
C1426 C1409 1.574 . S
C1426 H1420 0.949 . S
C1426 C1430 1.368 . S
C1427 C1408 1.429 . S
C1427 C1421 1.429 . S
C1427 C1428 1.523 . S
C1428 C1409 1.368 . S
C1428 C1422 1.368 . S
C1428 C1427 1.523 . S
C1429 C1413 1.429 . S
C1429 C1425 1.429 . S
C1429 C1430 1.523 . S
C1430 C1414 1.368 . S
C1430 C1426 1.368 . S
C1430 C1429 1.523 . S
H1431 C1406 0.950 . S
H1432 C1408 0.950 . S
H1433 C1409 0.949 . S
H1434 C1411 0.950 . S
H1435 C1413 0.950 . S
C1436 C1437 1.349 . S
C1436 C1438 1.327 . S
C1436 H1461 0.950 . S
C1437 C1436 1.349 . S
C1437 C1453 1.349 . S
C1438 C1436 1.327 . S
C1438 C1457 1.429 . S
C1438 H1462 0.950 . S
C1439 C1456 1.574 . S
C1439 C1458 1.368 . S
C1439 H1463 0.949 . S
H1440 C1444 0.949 . S
C1441 C1442 1.349 . S
C1441 C1443 1.327 . S
C1441 H1464 0.950 . S
C1442 C1441 1.349 . S
C1442 C1454 1.349 . S
C1443 C1441 1.327 . S
C1443 C1459 1.429 . S
C1443 H1465 0.950 . S
C1444 H1440 0.949 . S
C1444 C1452 1.574 . S
C1444 C1460 1.368 . S
H1445 C1453 0.950 . S
H1446 C1451 0.950 . S
H1447 C1452 0.949 . S
H1448 C1454 0.950 . S
H1449 C1455 0.950 . S
H1450 C1456 0.949 . S
C1451 H1446 0.950 . S
C1451 C1453 1.327 . S
C1451 C1457 1.429 . S
C1452 C1444 1.574 . S
C1452 H1447 0.949 . S
C1452 C1458 1.368 . S
C1453 C1437 1.349 . S
C1453 H1445 0.950 . S
C1453 C1451 1.327 . S
C1454 C1442 1.349 . S
C1454 H1448 0.950 . S
C1454 C1455 1.327 . S
C1455 H1449 0.950 . S
C1455 C1454 1.327 . S
C1455 C1459 1.429 . S
C1456 C1439 1.574 . S
C1456 H1450 0.949 . S
C1456 C1460 1.368 . S
C1457 C1438 1.429 . S
C1457 C1451 1.429 . S
C1457 C1458 1.523 . S
C1458 C1439 1.368 . S
C1458 C1452 1.368 . S
C1458 C1457 1.523 . S
C1459 C1443 1.429 . S
C1459 C1455 1.429 . S
C1459 C1460 1.523 . S
C1460 C1444 1.368 . S
C1460 C1456 1.368 . S
C1460 C1459 1.523 . S
H1461 C1436 0.950 . S
H1462 C1438 0.950 . S
H1463 C1439 0.949 . S
H1464 C1441 0.950 . S
H1465 C1443 0.950 . S
C1466 C1467 1.349 . S
C1466 C1468 1.327 . S
C1466 H1491 0.950 . S
C1467 C1466 1.349 . S
C1467 C1483 1.349 . S
C1468 C1466 1.327 . S
C1468 C1487 1.429 . S
C1468 H1492 0.950 . S
C1469 C1486 1.574 . S
C1469 C1488 1.368 . S
C1469 H1493 0.949 . S
H1470 C1474 0.949 . S
C1471 C1472 1.349 . S
C1471 C1473 1.327 . S
C1471 H1494 0.950 . S
C1472 C1471 1.349 . S
C1472 C1484 1.349 . S
C1473 C1471 1.327 . S
C1473 C1489 1.429 . S
C1473 H1495 0.950 . S
C1474 H1470 0.949 . S
C1474 C1482 1.574 . S
C1474 C1490 1.368 . S
H1475 C1483 0.950 . S
H1476 C1481 0.950 . S
H1477 C1482 0.949 . S
H1478 C1484 0.950 . S
H1479 C1485 0.950 . S
H1480 C1486 0.949 . S
C1481 H1476 0.950 . S
C1481 C1483 1.327 . S
C1481 C1487 1.429 . S
C1482 C1474 1.574 . S
C1482 H1477 0.949 . S
C1482 C1488 1.368 . S
C1483 C1467 1.349 . S
C1483 H1475 0.950 . S
C1483 C1481 1.327 . S
C1484 C1472 1.349 . S
C1484 H1478 0.950 . S
C1484 C1485 1.327 . S
C1485 H1479 0.950 . S
C1485 C1484 1.327 . S
C1485 C1489 1.429 . S
C1486 C1469 1.574 . S
C1486 H1480 0.949 . S
C1486 C1490 1.368 . S
C1487 C1468 1.429 . S
C1487 C1481 1.429 . S
C1487 C1488 1.523 . S
C1488 C1469 1.368 . S
C1488 C1482 1.368 . S
C1488 C1487 1.523 . S
C1489 C1473 1.429 . S
C1489 C1485 1.429 . S
C1489 C1490 1.523 . S
C1490 C1474 1.368 . S
C1490 C1486 1.368 . S
C1490 C1489 1.523 . S
H1491 C1466 0.950 . S
H1492 C1468 0.950 . S
H1493 C1469 0.949 . S
H1494 C1471 0.950 . S
H1495 C1473 0.950 . S
C1496 C1497 1.349 . S
C1496 C1498 1.327 . S
C1496 H1521 0.950 . S
C1497 C1496 1.349 . S
C1497 C1513 1.349 . S
C1498 C1496 1.327 . S
C1498 C1517 1.429 . S
C1498 H1522 0.950 . S
C1499 C1516 1.574 . S
C1499 C1518 1.368 . S
C1499 H1523 0.949 . S
H1500 C1504 0.949 . S
C1501 C1502 1.349 . S
C1501 C1503 1.327 . S
C1501 H1524 0.950 . S
C1502 C1501 1.349 . S
C1502 C1514 1.349 . S
C1503 C1501 1.327 . S
C1503 C1519 1.429 . S
C1503 H1525 0.950 . S
C1504 H1500 0.949 . S
C1504 C1512 1.574 . S
C1504 C1520 1.368 . S
H1505 C1513 0.950 . S
H1506 C1511 0.950 . S
H1507 C1512 0.949 . S
H1508 C1514 0.950 . S
H1509 C1515 0.950 . S
H1510 C1516 0.949 . S
C1511 H1506 0.950 . S
C1511 C1513 1.327 . S
C1511 C1517 1.429 . S
C1512 C1504 1.574 . S
C1512 H1507 0.949 . S
C1512 C1518 1.368 . S
C1513 C1497 1.349 . S
C1513 H1505 0.950 . S
C1513 C1511 1.327 . S
C1514 C1502 1.349 . S
C1514 H1508 0.950 . S
C1514 C1515 1.327 . S
C1515 H1509 0.950 . S
C1515 C1514 1.327 . S
C1515 C1519 1.429 . S
C1516 C1499 1.574 . S
C1516 H1510 0.949 . S
C1516 C1520 1.368 . S
C1517 C1498 1.429 . S
C1517 C1511 1.429 . S
C1517 C1518 1.523 . S
C1518 C1499 1.368 . S
C1518 C1512 1.368 . S
C1518 C1517 1.523 . S
C1519 C1503 1.429 . S
C1519 C1515 1.429 . S
C1519 C1520 1.523 . S
C1520 C1504 1.368 . S
C1520 C1516 1.368 . S
C1520 C1519 1.523 . S
H1521 C1496 0.950 . S
H1522 C1498 0.950 . S
H1523 C1499 0.949 . S
H1524 C1501 0.950 . S
H1525 C1503 0.950 . S
C1526 C1527 1.349 . S
C1526 C1528 1.327 . S
C1526 H1551 0.950 . S
C1527 C1526 1.349 . S
C1527 C1543 1.349 . S
C1528 C1526 1.327 . S
C1528 C1547 1.429 . S
C1528 H1552 0.950 . S
C1529 C1546 1.574 . S
C1529 C1548 1.368 . S
C1529 H1553 0.949 . S
H1530 C1534 0.949 . S
C1531 C1532 1.349 . S
C1531 C1533 1.327 . S
C1531 H1554 0.950 . S
C1532 C1531 1.349 . S
C1532 C1544 1.349 . S
C1533 C1531 1.327 . S
C1533 C1549 1.429 . S
C1533 H1555 0.950 . S
C1534 H1530 0.949 . S
C1534 C1542 1.574 . S
C1534 C1550 1.368 . S
H1535 C1543 0.950 . S
H1536 C1541 0.950 . S
H1537 C1542 0.949 . S
H1538 C1544 0.950 . S
H1539 C1545 0.950 . S
H1540 C1546 0.949 . S
C1541 H1536 0.950 . S
C1541 C1543 1.327 . S
C1541 C1547 1.429 . S
C1542 C1534 1.574 . S
C1542 H1537 0.949 . S
C1542 C1548 1.368 . S
C1543 C1527 1.349 . S
C1543 H1535 0.950 . S
C1543 C1541 1.327 . S
C1544 C1532 1.349 . S
C1544 H1538 0.950 . S
C1544 C1545 1.327 . S
C1545 H1539 0.950 . S
C1545 C1544 1.327 . S
C1545 C1549 1.429 . S
C1546 C1529 1.574 . S
C1546 H1540 0.949 . S
C1546 C1550 1.368 . S
C1547 C1528 1.429 . S
C1547 C1541 1.429 . S
C1547 C1548 1.523 . S
C1548 C1529 1.368 . S
C1548 C1542 1.368 . S
C1548 C1547 1.523 . S
C1549 C1533 1.429 . S
C1549 C1545 1.429 . S
C1549 C1550 1.523 . S
C1550 C1534 1.368 . S
C1550 C1546 1.368 . S
C1550 C1549 1.523 . S
H1551 C1526 0.950 . S
H1552 C1528 0.950 . S
H1553 C1529 0.949 . S
H1554 C1531 0.950 . S
H1555 C1533 0.950 . S
C1556 C1557 1.349 . S
C1556 C1558 1.327 . S
C1556 H1581 0.950 . S
C1557 C1556 1.349 . S
C1557 C1573 1.349 . S
C1558 C1556 1.327 . S
C1558 C1577 1.429 . S
C1558 H1582 0.950 . S
C1559 C1576 1.574 . S
C1559 C1578 1.368 . S
C1559 H1583 0.949 . S
H1560 C1564 0.949 . S
C1561 C1562 1.349 . S
C1561 C1563 1.327 . S
C1561 H1584 0.950 . S
C1562 C1561 1.349 . S
C1562 C1574 1.349 . S
C1563 C1561 1.327 . S
C1563 C1579 1.429 . S
C1563 H1585 0.950 . S
C1564 H1560 0.949 . S
C1564 C1572 1.574 . S
C1564 C1580 1.368 . S
H1565 C1573 0.950 . S
H1566 C1571 0.950 . S
H1567 C1572 0.949 . S
H1568 C1574 0.950 . S
H1569 C1575 0.950 . S
H1570 C1576 0.949 . S
C1571 H1566 0.950 . S
C1571 C1573 1.327 . S
C1571 C1577 1.429 . S
C1572 C1564 1.574 . S
C1572 H1567 0.949 . S
C1572 C1578 1.368 . S
C1573 C1557 1.349 . S
C1573 H1565 0.950 . S
C1573 C1571 1.327 . S
C1574 C1562 1.349 . S
C1574 H1568 0.950 . S
C1574 C1575 1.327 . S
C1575 H1569 0.950 . S
C1575 C1574 1.327 . S
C1575 C1579 1.429 . S
C1576 C1559 1.574 . S
C1576 H1570 0.949 . S
C1576 C1580 1.368 . S
C1577 C1558 1.429 . S
C1577 C1571 1.429 . S
C1577 C1578 1.523 . S
C1578 C1559 1.368 . S
C1578 C1572 1.368 . S
C1578 C1577 1.523 . S
C1579 C1563 1.429 . S
C1579 C1575 1.429 . S
C1579 C1580 1.523 . S
C1580 C1564 1.368 . S
C1580 C1576 1.368 . S
C1580 C1579 1.523 . S
H1581 C1556 0.950 . S
H1582 C1558 0.950 . S
H1583 C1559 0.949 . S
H1584 C1561 0.950 . S
H1585 C1563 0.950 . S
C1586 C1587 1.349 . S
C1586 C1588 1.327 . S
C1586 H1611 0.950 . S
C1587 C1586 1.349 . S
C1587 C1603 1.349 . S
C1588 C1586 1.327 . S
C1588 C1607 1.429 . S
C1588 H1612 0.950 . S
C1589 C1606 1.574 . S
C1589 C1608 1.368 . S
C1589 H1613 0.949 . S
H1590 C1594 0.949 . S
C1591 C1592 1.349 . S
C1591 C1593 1.327 . S
C1591 H1614 0.950 . S
C1592 C1591 1.349 . S
C1592 C1604 1.349 . S
C1593 C1591 1.327 . S
C1593 C1609 1.429 . S
C1593 H1615 0.950 . S
C1594 H1590 0.949 . S
C1594 C1602 1.574 . S
C1594 C1610 1.368 . S
H1595 C1603 0.950 . S
H1596 C1601 0.950 . S
H1597 C1602 0.949 . S
H1598 C1604 0.950 . S
H1599 C1605 0.950 . S
H1600 C1606 0.949 . S
C1601 H1596 0.950 . S
C1601 C1603 1.327 . S
C1601 C1607 1.429 . S
C1602 C1594 1.574 . S
C1602 H1597 0.949 . S
C1602 C1608 1.368 . S
C1603 C1587 1.349 . S
C1603 H1595 0.950 . S
C1603 C1601 1.327 . S
C1604 C1592 1.349 . S
C1604 H1598 0.950 . S
C1604 C1605 1.327 . S
C1605 H1599 0.950 . S
C1605 C1604 1.327 . S
C1605 C1609 1.429 . S
C1606 C1589 1.574 . S
C1606 H1600 0.949 . S
C1606 C1610 1.368 . S
C1607 C1588 1.429 . S
C1607 C1601 1.429 . S
C1607 C1608 1.523 . S
C1608 C1589 1.368 . S
C1608 C1602 1.368 . S
C1608 C1607 1.523 . S
C1609 C1593 1.429 . S
C1609 C1605 1.429 . S
C1609 C1610 1.523 . S
C1610 C1594 1.368 . S
C1610 C1606 1.368 . S
C1610 C1609 1.523 . S
H1611 C1586 0.950 . S
H1612 C1588 0.950 . S
H1613 C1589 0.949 . S
H1614 C1591 0.950 . S
H1615 C1593 0.950 . S
C1616 C1617 1.349 . S
C1616 C1618 1.327 . S
C1616 H1641 0.950 . S
C1617 C1616 1.349 . S
C1617 C1633 1.349 . S
C1618 C1616 1.327 . S
C1618 C1637 1.429 . S
C1618 H1642 0.950 . S
C1619 C1636 1.574 . S
C1619 C1638 1.368 . S
C1619 H1643 0.949 . S
H1620 C1624 0.949 . S
C1621 C1622 1.349 . S
C1621 C1623 1.327 . S
C1621 H1644 0.950 . S
C1622 C1621 1.349 . S
C1622 C1634 1.349 . S
C1623 C1621 1.327 . S
C1623 C1639 1.429 . S
C1623 H1645 0.950 . S
C1624 H1620 0.949 . S
C1624 C1632 1.574 . S
C1624 C1640 1.368 . S
H1625 C1633 0.950 . S
H1626 C1631 0.950 . S
H1627 C1632 0.949 . S
H1628 C1634 0.950 . S
H1629 C1635 0.950 . S
H1630 C1636 0.949 . S
C1631 H1626 0.950 . S
C1631 C1633 1.327 . S
C1631 C1637 1.429 . S
C1632 C1624 1.574 . S
C1632 H1627 0.949 . S
C1632 C1638 1.368 . S
C1633 C1617 1.349 . S
C1633 H1625 0.950 . S
C1633 C1631 1.327 . S
C1634 C1622 1.349 . S
C1634 H1628 0.950 . S
C1634 C1635 1.327 . S
C1635 H1629 0.950 . S
C1635 C1634 1.327 . S
C1635 C1639 1.429 . S
C1636 C1619 1.574 . S
C1636 H1630 0.949 . S
C1636 C1640 1.368 . S
C1637 C1618 1.429 . S
C1637 C1631 1.429 . S
C1637 C1638 1.523 . S
C1638 C1619 1.368 . S
C1638 C1632 1.368 . S
C1638 C1637 1.523 . S
C1639 C1623 1.429 . S
C1639 C1635 1.429 . S
C1639 C1640 1.523 . S
C1640 C1624 1.368 . S
C1640 C1636 1.368 . S
C1640 C1639 1.523 . S
H1641 C1616 0.950 . S
H1642 C1618 0.950 . S
H1643 C1619 0.949 . S
H1644 C1621 0.950 . S
H1645 C1623 0.950 . S
C1646 C1647 1.349 . S
C1646 C1648 1.327 . S
C1646 H1671 0.950 . S
C1647 C1646 1.349 . S
C1647 C1663 1.349 . S
C1648 C1646 1.327 . S
C1648 C1667 1.429 . S
C1648 H1672 0.950 . S
C1649 C1666 1.574 . S
C1649 C1668 1.368 . S
C1649 H1673 0.949 . S
H1650 C1654 0.949 . S
C1651 C1652 1.349 . S
C1651 C1653 1.327 . S
C1651 H1674 0.950 . S
C1652 C1651 1.349 . S
C1652 C1664 1.349 . S
C1653 C1651 1.327 . S
C1653 C1669 1.429 . S
C1653 H1675 0.950 . S
C1654 H1650 0.949 . S
C1654 C1662 1.574 . S
C1654 C1670 1.368 . S
H1655 C1663 0.950 . S
H1656 C1661 0.950 . S
H1657 C1662 0.949 . S
H1658 C1664 0.950 . S
H1659 C1665 0.950 . S
H1660 C1666 0.949 . S
C1661 H1656 0.950 . S
C1661 C1663 1.327 . S
C1661 C1667 1.429 . S
C1662 C1654 1.574 . S
C1662 H1657 0.949 . S
C1662 C1668 1.368 . S
C1663 C1647 1.349 . S
C1663 H1655 0.950 . S
C1663 C1661 1.327 . S
C1664 C1652 1.349 . S
C1664 H1658 0.950 . S
C1664 C1665 1.327 . S
C1665 H1659 0.950 . S
C1665 C1664 1.327 . S
C1665 C1669 1.429 . S
C1666 C1649 1.574 . S
C1666 H1660 0.949 . S
C1666 C1670 1.368 . S
C1667 C1648 1.429 . S
C1667 C1661 1.429 . S
C1667 C1668 1.523 . S
C1668 C1649 1.368 . S
C1668 C1662 1.368 . S
C1668 C1667 1.523 . S
C1669 C1653 1.429 . S
C1669 C1665 1.429 . S
C1669 C1670 1.523 . S
C1670 C1654 1.368 . S
C1670 C1666 1.368 . S
C1670 C1669 1.523 . S
H1671 C1646 0.950 . S
H1672 C1648 0.950 . S
H1673 C1649 0.949 . S
H1674 C1651 0.950 . S
H1675 C1653 0.950 . S
C1676 C1677 1.349 . S
C1676 C1678 1.327 . S
C1676 H1701 0.950 . S
C1677 C1676 1.349 . S
C1677 C1693 1.349 . S
C1678 C1676 1.327 . S
C1678 C1697 1.429 . S
C1678 H1702 0.950 . S
C1679 C1696 1.574 . S
C1679 C1698 1.368 . S
C1679 H1703 0.949 . S
H1680 C1684 0.949 . S
C1681 C1682 1.349 . S
C1681 C1683 1.327 . S
C1681 H1704 0.950 . S
C1682 C1681 1.349 . S
C1682 C1694 1.349 . S
C1683 C1681 1.327 . S
C1683 C1699 1.429 . S
C1683 H1705 0.950 . S
C1684 H1680 0.949 . S
C1684 C1692 1.574 . S
C1684 C1700 1.368 . S
H1685 C1693 0.950 . S
H1686 C1691 0.950 . S
H1687 C1692 0.949 . S
H1688 C1694 0.950 . S
H1689 C1695 0.950 . S
H1690 C1696 0.949 . S
C1691 H1686 0.950 . S
C1691 C1693 1.327 . S
C1691 C1697 1.429 . S
C1692 C1684 1.574 . S
C1692 H1687 0.949 . S
C1692 C1698 1.368 . S
C1693 C1677 1.349 . S
C1693 H1685 0.950 . S
C1693 C1691 1.327 . S
C1694 C1682 1.349 . S
C1694 H1688 0.950 . S
C1694 C1695 1.327 . S
C1695 H1689 0.950 . S
C1695 C1694 1.327 . S
C1695 C1699 1.429 . S
C1696 C1679 1.574 . S
C1696 H1690 0.949 . S
C1696 C1700 1.368 . S
C1697 C1678 1.429 . S
C1697 C1691 1.429 . S
C1697 C1698 1.523 . S
C1698 C1679 1.368 . S
C1698 C1692 1.368 . S
C1698 C1697 1.523 . S
C1699 C1683 1.429 . S
C1699 C1695 1.429 . S
C1699 C1700 1.523 . S
C1700 C1684 1.368 . S
C1700 C1696 1.368 . S
C1700 C1699 1.523 . S
H1701 C1676 0.950 . S
H1702 C1678 0.950 . S
H1703 C1679 0.949 . S
H1704 C1681 0.950 . S
H1705 C1683 0.950 . S
C1706 C1707 1.349 . S
C1706 C1708 1.327 . S
C1706 H1731 0.950 . S
C1707 C1706 1.349 . S
C1707 C1723 1.349 . S
C1708 C1706 1.327 . S
C1708 C1727 1.429 . S
C1708 H1732 0.950 . S
C1709 C1726 1.574 . S
C1709 C1728 1.368 . S
C1709 H1733 0.949 . S
H1710 C1714 0.949 . S
C1711 C1712 1.349 . S
C1711 C1713 1.327 . S
C1711 H1734 0.950 . S
C1712 C1711 1.349 . S
C1712 C1724 1.349 . S
C1713 C1711 1.327 . S
C1713 C1729 1.429 . S
C1713 H1735 0.950 . S
C1714 H1710 0.949 . S
C1714 C1722 1.574 . S
C1714 C1730 1.368 . S
H1715 C1723 0.950 . S
H1716 C1721 0.950 . S
H1717 C1722 0.949 . S
H1718 C1724 0.950 . S
H1719 C1725 0.950 . S
H1720 C1726 0.949 . S
C1721 H1716 0.950 . S
C1721 C1723 1.327 . S
C1721 C1727 1.429 . S
C1722 C1714 1.574 . S
C1722 H1717 0.949 . S
C1722 C1728 1.368 . S
C1723 C1707 1.349 . S
C1723 H1715 0.950 . S
C1723 C1721 1.327 . S
C1724 C1712 1.349 . S
C1724 H1718 0.950 . S
C1724 C1725 1.327 . S
C1725 H1719 0.950 . S
C1725 C1724 1.327 . S
C1725 C1729 1.429 . S
C1726 C1709 1.574 . S
C1726 H1720 0.949 . S
C1726 C1730 1.368 . S
C1727 C1708 1.429 . S
C1727 C1721 1.429 . S
C1727 C1728 1.523 . S
C1728 C1709 1.368 . S
C1728 C1722 1.368 . S
C1728 C1727 1.523 . S
C1729 C1713 1.429 . S
C1729 C1725 1.429 . S
C1729 C1730 1.523 . S
C1730 C1714 1.368 . S
C1730 C1726 1.368 . S
C1730 C1729 1.523 . S
H1731 C1706 0.950 . S
H1732 C1708 0.950 . S
H1733 C1709 0.949 . S
H1734 C1711 0.950 . S
H1735 C1713 0.950 . S
C1736 C1737 1.349 . S
C1736 C1738 1.327 . S
C1736 H1761 0.950 . S
C1737 C1736 1.349 . S
C1737 C1753 1.349 . S
C1738 C1736 1.327 . S
C1738 C1757 1.429 . S
C1738 H1762 0.950 . S
C1739 C1756 1.574 . S
C1739 C1758 1.368 . S
C1739 H1763 0.949 . S
H1740 C1744 0.949 . S
C1741 C1742 1.349 . S
C1741 C1743 1.327 . S
C1741 H1764 0.950 . S
C1742 C1741 1.349 . S
C1742 C1754 1.349 . S
C1743 C1741 1.327 . S
C1743 C1759 1.429 . S
C1743 H1765 0.950 . S
C1744 H1740 0.949 . S
C1744 C1752 1.574 . S
C1744 C1760 1.368 . S
H1745 C1753 0.950 . S
H1746 C1751 0.950 . S
H1747 C1752 0.949 . S
H1748 C1754 0.950 . S
H1749 C1755 0.950 . S
H1750 C1756 0.949 . S
C1751 H1746 0.950 . S
C1751 C1753 1.327 . S
C1751 C1757 1.429 . S
C1752 C1744 1.574 . S
C1752 H1747 0.949 . S
C1752 C1758 1.368 . S
C1753 C1737 1.349 . S
C1753 H1745 0.950 . S
C1753 C1751 1.327 . S
C1754 C1742 1.349 . S
C1754 H1748 0.950 . S
C1754 C1755 1.327 . S
C1755 H1749 0.950 . S
C1755 C1754 1.327 . S
C1755 C1759 1.429 . S
C1756 C1739 1.574 . S
C1756 H1750 0.949 . S
C1756 C1760 1.368 . S
C1757 C1738 1.429 . S
C1757 C1751 1.429 . S
C1757 C1758 1.523 . S
C1758 C1739 1.368 . S
C1758 C1752 1.368 . S
C1758 C1757 1.523 . S
C1759 C1743 1.429 . S
C1759 C1755 1.429 . S
C1759 C1760 1.523 . S
C1760 C1744 1.368 . S
C1760 C1756 1.368 . S
C1760 C1759 1.523 . S
H1761 C1736 0.950 . S
H1762 C1738 0.950 . S
H1763 C1739 0.949 . S
H1764 C1741 0.950 . S
H1765 C1743 0.950 . S
C1766 C1767 1.349 . S
C1766 C1768 1.327 . S
C1766 H1791 0.950 . S
C1767 C1766 1.349 . S
C1767 C1783 1.349 . S
C1768 C1766 1.327 . S
C1768 C1787 1.429 . S
C1768 H1792 0.950 . S
C1769 C1786 1.574 . S
C1769 C1788 1.368 . S
C1769 H1793 0.949 . S
H1770 C1774 0.949 . S
C1771 C1772 1.349 . S
C1771 C1773 1.327 . S
C1771 H1794 0.950 . S
C1772 C1771 1.349 . S
C1772 C1784 1.349 . S
C1773 C1771 1.327 . S
C1773 C1789 1.429 . S
C1773 H1795 0.950 . S
C1774 H1770 0.949 . S
C1774 C1782 1.574 . S
C1774 C1790 1.368 . S
H1775 C1783 0.950 . S
H1776 C1781 0.950 . S
H1777 C1782 0.949 . S
H1778 C1784 0.950 . S
H1779 C1785 0.950 . S
H1780 C1786 0.949 . S
C1781 H1776 0.950 . S
C1781 C1783 1.327 . S
C1781 C1787 1.429 . S
C1782 C1774 1.574 . S
C1782 H1777 0.949 . S
C1782 C1788 1.368 . S
C1783 C1767 1.349 . S
C1783 H1775 0.950 . S
C1783 C1781 1.327 . S
C1784 C1772 1.349 . S
C1784 H1778 0.950 . S
C1784 C1785 1.327 . S
C1785 H1779 0.950 . S
C1785 C1784 1.327 . S
C1785 C1789 1.429 . S
C1786 C1769 1.574 . S
C1786 H1780 0.949 . S
C1786 C1790 1.368 . S
C1787 C1768 1.429 . S
C1787 C1781 1.429 . S
C1787 C1788 1.523 . S
C1788 C1769 1.368 . S
C1788 C1782 1.368 . S
C1788 C1787 1.523 . S
C1789 C1773 1.429 . S
C1789 C1785 1.429 . S
C1789 C1790 1.523 . S
C1790 C1774 1.368 . S
C1790 C1786 1.368 . S
C1790 C1789 1.523 . S
H1791 C1766 0.950 . S
H1792 C1768 0.950 . S
H1793 C1769 0.949 . S
H1794 C1771 0.950 . S
H1795 C1773 0.950 . S
C1796 C1797 1.349 . S
C1796 C1798 1.327 . S
C1796 H1821 0.950 . S
C1797 C1796 1.349 . S
C1797 C1813 1.349 . S
C1798 C1796 1.327 . S
C1798 C1817 1.429 . S
C1798 H1822 0.950 . S
C1799 C1816 1.574 . S
C1799 C1818 1.368 . S
C1799 H1823 0.949 . S
H1800 C1804 0.949 . S
C1801 C1802 1.349 . S
C1801 C1803 1.327 . S
C1801 H1824 0.950 . S
C1802 C1801 1.349 . S
C1802 C1814 1.349 . S
C1803 C1801 1.327 . S
C1803 C1819 1.429 . S
C1803 H1825 0.950 . S
C1804 H1800 0.949 . S
C1804 C1812 1.574 . S
C1804 C1820 1.368 . S
H1805 C1813 0.950 . S
H1806 C1811 0.950 . S
H1807 C1812 0.949 . S
H1808 C1814 0.950 . S
H1809 C1815 0.950 . S
H1810 C1816 0.949 . S
C1811 H1806 0.950 . S
C1811 C1813 1.327 . S
C1811 C1817 1.429 . S
C1812 C1804 1.574 . S
C1812 H1807 0.949 . S
C1812 C1818 1.368 . S
C1813 C1797 1.349 . S
C1813 H1805 0.950 . S
C1813 C1811 1.327 . S
C1814 C1802 1.349 . S
C1814 H1808 0.950 . S
C1814 C1815 1.327 . S
C1815 H1809 0.950 . S
C1815 C1814 1.327 . S
C1815 C1819 1.429 . S
C1816 C1799 1.574 . S
C1816 H1810 0.949 . S
C1816 C1820 1.368 . S
C1817 C1798 1.429 . S
C1817 C1811 1.429 . S
C1817 C1818 1.523 . S
C1818 C1799 1.368 . S
C1818 C1812 1.368 . S
C1818 C1817 1.523 . S
C1819 C1803 1.429 . S
C1819 C1815 1.429 . S
C1819 C1820 1.523 . S
C1820 C1804 1.368 . S
C1820 C1816 1.368 . S
C1820 C1819 1.523 . S
H1821 C1796 0.950 . S
H1822 C1798 0.950 . S
H1823 C1799 0.949 . S
H1824 C1801 0.950 . S
H1825 C1803 0.950 . S
C1826 C1827 1.349 . S
C1826 C1828 1.327 . S
C1826 H1851 0.950 . S
C1827 C1826 1.349 . S
C1827 C1843 1.349 . S
C1828 C1826 1.327 . S
C1828 C1847 1.429 . S
C1828 H1852 0.950 . S
C1829 C1846 1.574 . S
C1829 C1848 1.368 . S
C1829 H1853 0.949 . S
H1830 C1834 0.949 . S
C1831 C1832 1.349 . S
C1831 C1833 1.327 . S
C1831 H1854 0.950 . S
C1832 C1831 1.349 . S
C1832 C1844 1.349 . S
C1833 C1831 1.327 . S
C1833 C1849 1.429 . S
C1833 H1855 0.950 . S
C1834 H1830 0.949 . S
C1834 C1842 1.574 . S
C1834 C1850 1.368 . S
H1835 C1843 0.950 . S
H1836 C1841 0.950 . S
H1837 C1842 0.949 . S
H1838 C1844 0.950 . S
H1839 C1845 0.950 . S
H1840 C1846 0.949 . S
C1841 H1836 0.950 . S
C1841 C1843 1.327 . S
C1841 C1847 1.429 . S
C1842 C1834 1.574 . S
C1842 H1837 0.949 . S
C1842 C1848 1.368 . S
C1843 C1827 1.349 . S
C1843 H1835 0.950 . S
C1843 C1841 1.327 . S
C1844 C1832 1.349 . S
C1844 H1838 0.950 . S
C1844 C1845 1.327 . S
C1845 H1839 0.950 . S
C1845 C1844 1.327 . S
C1845 C1849 1.429 . S
C1846 C1829 1.574 . S
C1846 H1840 0.949 . S
C1846 C1850 1.368 . S
C1847 C1828 1.429 . S
C1847 C1841 1.429 . S
C1847 C1848 1.523 . S
C1848 C1829 1.368 . S
C1848 C1842 1.368 . S
C1848 C1847 1.523 . S
C1849 C1833 1.429 . S
C1849 C1845 1.429 . S
C1849 C1850 1.523 . S
C1850 C1834 1.368 . S
C1850 C1846 1.368 . S
C1850 C1849 1.523 . S
H1851 C1826 0.950 . S
H1852 C1828 0.950 . S
H1853 C1829 0.949 . S
H1854 C1831 0.950 . S
H1855 C1833 0.950 . S
C1856 C1857 1.349 . S
C1856 C1858 1.327 . S
C1856 H1881 0.950 . S
C1857 C1856 1.349 . S
C1857 C1873 1.349 . S
C1858 C1856 1.327 . S
C1858 C1877 1.429 . S
C1858 H1882 0.950 . S
C1859 C1876 1.574 . S
C1859 C1878 1.368 . S
C1859 H1883 0.949 . S
H1860 C1864 0.949 . S
C1861 C1862 1.349 . S
C1861 C1863 1.327 . S
C1861 H1884 0.950 . S
C1862 C1861 1.349 . S
C1862 C1874 1.349 . S
C1863 C1861 1.327 . S
C1863 C1879 1.429 . S
C1863 H1885 0.950 . S
C1864 H1860 0.949 . S
C1864 C1872 1.574 . S
C1864 C1880 1.368 . S
H1865 C1873 0.950 . S
H1866 C1871 0.950 . S
H1867 C1872 0.949 . S
H1868 C1874 0.950 . S
H1869 C1875 0.950 . S
H1870 C1876 0.949 . S
C1871 H1866 0.950 . S
C1871 C1873 1.327 . S
C1871 C1877 1.429 . S
C1872 C1864 1.574 . S
C1872 H1867 0.949 . S
C1872 C1878 1.368 . S
C1873 C1857 1.349 . S
C1873 H1865 0.950 . S
C1873 C1871 1.327 . S
C1874 C1862 1.349 . S
C1874 H1868 0.950 . S
C1874 C1875 1.327 . S
C1875 H1869 0.950 . S
C1875 C1874 1.327 . S
C1875 C1879 1.429 . S
C1876 C1859 1.574 . S
C1876 H1870 0.949 . S
C1876 C1880 1.368 . S
C1877 C1858 1.429 . S
C1877 C1871 1.429 . S
C1877 C1878 1.523 . S
C1878 C1859 1.368 . S
C1878 C1872 1.368 . S
C1878 C1877 1.523 . S
C1879 C1863 1.429 . S
C1879 C1875 1.429 . S
C1879 C1880 1.523 . S
C1880 C1864 1.368 . S
C1880 C1876 1.368 . S
C1880 C1879 1.523 . S
H1881 C1856 0.950 . S
H1882 C1858 0.950 . S
H1883 C1859 0.949 . S
H1884 C1861 0.950 . S
H1885 C1863 0.950 . S
C1886 C1887 1.349 . S
C1886 C1888 1.327 . S
C1886 H1911 0.950 . S
C1887 C1886 1.349 . S
C1887 C1903 1.349 . S
C1888 C1886 1.327 . S
C1888 C1907 1.429 . S
C1888 H1912 0.950 . S
C1889 C1906 1.574 . S
C1889 C1908 1.368 . S
C1889 H1913 0.949 . S
H1890 C1894 0.949 . S
C1891 C1892 1.349 . S
C1891 C1893 1.327 . S
C1891 H1914 0.950 . S
C1892 C1891 1.349 . S
C1892 C1904 1.349 . S
C1893 C1891 1.327 . S
C1893 C1909 1.429 . S
C1893 H1915 0.950 . S
C1894 H1890 0.949 . S
C1894 C1902 1.574 . S
C1894 C1910 1.368 . S
H1895 C1903 0.950 . S
H1896 C1901 0.950 . S
H1897 C1902 0.949 . S
H1898 C1904 0.950 . S
H1899 C1905 0.950 . S
H1900 C1906 0.949 . S
C1901 H1896 0.950 . S
C1901 C1903 1.327 . S
C1901 C1907 1.429 . S
C1902 C1894 1.574 . S
C1902 H1897 0.949 . S
C1902 C1908 1.368 . S
C1903 C1887 1.349 . S
C1903 H1895 0.950 . S
C1903 C1901 1.327 . S
C1904 C1892 1.349 . S
C1904 H1898 0.950 . S
C1904 C1905 1.327 . S
C1905 H1899 0.950 . S
C1905 C1904 1.327 . S
C1905 C1909 1.429 . S
C1906 C1889 1.574 . S
C1906 H1900 0.949 . S
C1906 C1910 1.368 . S
C1907 C1888 1.429 . S
C1907 C1901 1.429 . S
C1907 C1908 1.523 . S
C1908 C1889 1.368 . S
C1908 C1902 1.368 . S
C1908 C1907 1.523 . S
C1909 C1893 1.429 . S
C1909 C1905 1.429 . S
C1909 C1910 1.523 . S
C1910 C1894 1.368 . S
C1910 C1906 1.368 . S
C1910 C1909 1.523 . S
H1911 C1886 0.950 . S
H1912 C1888 0.950 . S
H1913 C1889 0.949 . S
H1914 C1891 0.950 . S
H1915 C1893 0.950 . S
C1916 C1917 1.349 . S
C1916 C1918 1.327 . S
C1916 H1941 0.950 . S
C1917 C1916 1.349 . S
C1917 C1933 1.349 . S
C1918 C1916 1.327 . S
C1918 C1937 1.429 . S
C1918 H1942 0.950 . S
C1919 C1936 1.574 . S
C1919 C1938 1.368 . S
C1919 H1943 0.949 . S
H1920 C1924 0.949 . S
C1921 C1922 1.349 . S
C1921 C1923 1.327 . S
C1921 H1944 0.950 . S
C1922 C1921 1.349 . S
C1922 C1934 1.349 . S
C1923 C1921 1.327 . S
C1923 C1939 1.429 . S
C1923 H1945 0.950 . S
C1924 H1920 0.949 . S
C1924 C1932 1.574 . S
C1924 C1940 1.368 . S
H1925 C1933 0.950 . S
H1926 C1931 0.950 . S
H1927 C1932 0.949 . S
H1928 C1934 0.950 . S
H1929 C1935 0.950 . S
H1930 C1936 0.949 . S
C1931 H1926 0.950 . S
C1931 C1933 1.327 . S
C1931 C1937 1.429 . S
C1932 C1924 1.574 . S
C1932 H1927 0.949 . S
C1932 C1938 1.368 . S
C1933 C1917 1.349 . S
C1933 H1925 0.950 . S
C1933 C1931 1.327 . S
C1934 C1922 1.349 . S
C1934 H1928 0.950 . S
C1934 C1935 1.327 . S
C1935 H1929 0.950 . S
C1935 C1934 1.327 . S
C1935 C1939 1.429 . S
C1936 C1919 1.574 . S
C1936 H1930 0.949 . S
C1936 C1940 1.368 . S
C1937 C1918 1.429 . S
C1937 C1931 1.429 . S
C1937 C1938 1.523 . S
C1938 C1919 1.368 . S
C1938 C1932 1.368 . S
C1938 C1937 1.523 . S
C1939 C1923 1.429 . S
C1939 C1935 1.429 . S
C1939 C1940 1.523 . S
C1940 C1924 1.368 . S
C1940 C1936 1.368 . S
C1940 C1939 1.523 . S
H1941 C1916 0.950 . S
H1942 C1918 0.950 . S
H1943 C1919 0.949 . S
H1944 C1921 0.950 . S
H1945 C1923 0.950 . S
C1946 C1947 1.349 . S
C1946 C1948 1.327 . S
C1946 H1971 0.950 . S
C1947 C1946 1.349 . S
C1947 C1963 1.349 . S
C1948 C1946 1.327 . S
C1948 C1967 1.429 . S
C1948 H1972 0.950 . S
C1949 C1966 1.574 . S
C1949 C1968 1.368 . S
C1949 H1973 0.949 . S
H1950 C1954 0.949 . S
C1951 C1952 1.349 . S
C1951 C1953 1.327 . S
C1951 H1974 0.950 . S
C1952 C1951 1.349 . S
C1952 C1964 1.349 . S
C1953 C1951 1.327 . S
C1953 C1969 1.429 . S
C1953 H1975 0.950 . S
C1954 H1950 0.949 . S
C1954 C1962 1.574 . S
C1954 C1970 1.368 . S
H1955 C1963 0.950 . S
H1956 C1961 0.950 . S
H1957 C1962 0.949 . S
H1958 C1964 0.950 . S
H1959 C1965 0.950 . S
H1960 C1966 0.949 . S
C1961 H1956 0.950 . S
C1961 C1963 1.327 . S
C1961 C1967 1.429 . S
C1962 C1954 1.574 . S
C1962 H1957 0.949 . S
C1962 C1968 1.368 . S
C1963 C1947 1.349 . S
C1963 H1955 0.950 . S
C1963 C1961 1.327 . S
C1964 C1952 1.349 . S
C1964 H1958 0.950 . S
C1964 C1965 1.327 . S
C1965 H1959 0.950 . S
C1965 C1964 1.327 . S
C1965 C1969 1.429 . S
C1966 C1949 1.574 . S
C1966 H1960 0.949 . S
C1966 C1970 1.368 . S
C1967 C1948 1.429 . S
C1967 C1961 1.429 . S
C1967 C1968 1.523 . S
C1968 C1949 1.368 . S
C1968 C1962 1.368 . S
C1968 C1967 1.523 . S
C1969 C1953 1.429 . S
C1969 C1965 1.429 . S
C1969 C1970 1.523 . S
C1970 C1954 1.368 . S
C1970 C1966 1.368 . S
C1970 C1969 1.523 . S
H1971 C1946 0.950 . S
H1972 C1948 0.950 . S
H1973 C1949 0.949 . S
H1974 C1951 0.950 . S
H1975 C1953 0.950 . S
C1976 C1977 1.349 . S
C1976 C1978 1.327 . S
C1976 H2001 0.950 . S
C1977 C1976 1.349 . S
C1977 C1993 1.349 . S
C1978 C1976 1.327 . S
C1978 C1997 1.429 . S
C1978 H2002 0.950 . S
C1979 C1996 1.574 . S
C1979 C1998 1.368 . S
C1979 H2003 0.949 . S
H1980 C1984 0.949 . S
C1981 C1982 1.349 . S
C1981 C1983 1.327 . S
C1981 H2004 0.950 . S
C1982 C1981 1.349 . S
C1982 C1994 1.349 . S
C1983 C1981 1.327 . S
C1983 C1999 1.429 . S
C1983 H2005 0.950 . S
C1984 H1980 0.949 . S
C1984 C1992 1.574 . S
C1984 C2000 1.368 . S
H1985 C1993 0.950 . S
H1986 C1991 0.950 . S
H1987 C1992 0.949 . S
H1988 C1994 0.950 . S
H1989 C1995 0.950 . S
H1990 C1996 0.949 . S
C1991 H1986 0.950 . S
C1991 C1993 1.327 . S
C1991 C1997 1.429 . S
C1992 C1984 1.574 . S
C1992 H1987 0.949 . S
C1992 C1998 1.368 . S
C1993 C1977 1.349 . S
C1993 H1985 0.950 . S
C1993 C1991 1.327 . S
C1994 C1982 1.349 . S
C1994 H1988 0.950 . S
C1994 C1995 1.327 . S
C1995 H1989 0.950 . S
C1995 C1994 1.327 . S
C1995 C1999 1.429 . S
C1996 C1979 1.574 . S
C1996 H1990 0.949 . S
C1996 C2000 1.368 . S
C1997 C1978 1.429 . S
C1997 C1991 1.429 . S
C1997 C1998 1.523 . S
C1998 C1979 1.368 . S
C1998 C1992 1.368 . S
C1998 C1997 1.523 . S
C1999 C1983 1.429 . S
C1999 C1995 1.429 . S
C1999 C2000 1.523 . S
C2000 C1984 1.368 . S
C2000 C1996 1.368 . S
C2000 C1999 1.523 . S
H2001 C1976 0.950 . S
H2002 C1978 0.950 . S
H2003 C1979 0.949 . S
H2004 C1981 0.950 . S
H2005 C1983 0.950 . S
C2006 C2007 1.349 . S
C2006 C2008 1.327 . S
C2006 H2031 0.950 . S
C2007 C2006 1.349 . S
C2007 C2023 1.349 . S
C2008 C2006 1.327 . S
C2008 C2027 1.429 . S
C2008 H2032 0.950 . S
C2009 C2026 1.574 . S
C2009 C2028 1.368 . S
C2009 H2033 0.949 . S
H2010 C2014 0.949 . S
C2011 C2012 1.349 . S
C2011 C2013 1.327 . S
C2011 H2034 0.950 . S
C2012 C2011 1.349 . S
C2012 C2024 1.349 . S
C2013 C2011 1.327 . S
C2013 C2029 1.429 . S
C2013 H2035 0.950 . S
C2014 H2010 0.949 . S
C2014 C2022 1.574 . S
C2014 C2030 1.368 . S
H2015 C2023 0.950 . S
H2016 C2021 0.950 . S
H2017 C2022 0.949 . S
H2018 C2024 0.950 . S
H2019 C2025 0.950 . S
H2020 C2026 0.949 . S
C2021 H2016 0.950 . S
C2021 C2023 1.327 . S
C2021 C2027 1.429 . S
C2022 C2014 1.574 . S
C2022 H2017 0.949 . S
C2022 C2028 1.368 . S
C2023 C2007 1.349 . S
C2023 H2015 0.950 . S
C2023 C2021 1.327 . S
C2024 C2012 1.349 . S
C2024 H2018 0.950 . S
C2024 C2025 1.327 . S
C2025 H2019 0.950 . S
C2025 C2024 1.327 . S
C2025 C2029 1.429 . S
C2026 C2009 1.574 . S
C2026 H2020 0.949 . S
C2026 C2030 1.368 . S
C2027 C2008 1.429 . S
C2027 C2021 1.429 . S
C2027 C2028 1.523 . S
C2028 C2009 1.368 . S
C2028 C2022 1.368 . S
C2028 C2027 1.523 . S
C2029 C2013 1.429 . S
C2029 C2025 1.429 . S
C2029 C2030 1.523 . S
C2030 C2014 1.368 . S
C2030 C2026 1.368 . S
C2030 C2029 1.523 . S
H2031 C2006 0.950 . S
H2032 C2008 0.950 . S
H2033 C2009 0.949 . S
H2034 C2011 0.950 . S
H2035 C2013 0.950 . S
C602 C282 1.406 . S
C597 N2 1.389 . S
C632 C325 2.811 . S
C627 C7 2.844 . S
C662 C371 1.697 . S
C657 N12 1.603 . S
C687 C16 1.853 . S
C692 C414 1.875 . S
C722 C454 2.897 . S
C717 C30 2.914 1_565 S
C752 C482 1.495 . S
C747 N35 1.456 . S
C777 C39 2.023 . S
C782 C525 1.977 . S
C812 C571 1.264 . S
C807 N25 1.194 . S
C842 C286 1.185 . S
C837 N58 1.149 . S
C867 N81 1.862 . S
C872 C335 1.863 . S
C902 C365 1.418 . S
C897 N104 1.397 . S
C927 N127 1.066 . S
C932 C402 1.066 . S
C962 C442 0.695 . S
C957 N48 0.690 . S
C992 C486 1.621 . S
C987 N71 1.589 1_556 S
C1017 N94 1.077 . S
C1022 C535 1.062 . S
C1052 C565 2.017 . S
C1047 N117 2.033 . S
C1077 C85 2.563 . S
C1082 C294 2.505 . S
C1107 C122 2.348 . S
C1112 C446 2.315 . S
C1137 C53 2.041 . S
C1142 C494 1.975 . S
C1172 C531 1.304 . S
C1167 C76 1.333 1_655 S
C1202 C575 1.764 . S
C1197 C99 1.763 . S
C1232 C375 2.024 . S
C1227 C131 2.009 . S
C1262 C406 1.427 . S
C1257 C62 1.447 1_565 S
C1287 C108 0.960 . S
C1292 C331 0.953 . S
C1322 C562 1.467 . S
C1317 N140 1.454 . S
C1347 C145 2.840 . S
C1352 C445 2.804 . S
C1382 C491 1.593 . S
C1377 N150 1.499 . S
C1407 C154 1.860 . S
C1412 C534 1.882 . S
C1442 C334 2.900 . S
C1437 C168 2.919 . S
C1467 N173 1.346 . S
C1472 C362 1.386 . S
C1502 C405 1.979 . S
C1497 C177 2.028 . S
C1532 C291 1.333 . S
C1527 N163 1.256 . S
C1562 C566 1.648 . S
C1557 C200 1.645 . S
C1592 C455 2.159 . S
C1587 N219 2.158 . S
C1617 N242 1.643 . S
C1622 C485 1.665 . S
C1652 C522 1.310 . S
C1647 C269 1.358 . S
C1682 C322 0.977 . S
C1677 C191 0.997 . S
C1707 N209 1.835 . S
C1712 C366 1.873 . S
C1737 N232 1.387 . S
C1742 C415 1.366 . S
C1767 C260 2.575 . S
C1772 C285 2.523 . S
C1797 C223 2.275 . S
C1802 C574 2.223 . S
C1827 N255 1.881 . S
C1832 C326 1.901 . S
C1857 N186 1.513 . S
C1862 C374 1.504 . S
C1892 C411 1.007 . S
C1887 C214 1.026 . S
C1922 C295 1.454 . S
C1917 C237 1.453 . S
C1952 C495 1.592 . S
C1947 N265 1.532 . S
C1982 C526 1.073 . S
C1977 N196 1.076 . S
C2012 C451 0.663 . S
C2007 C246 0.658 . S
