# Generated by pormake.
# Topology ctn, (3,4)-cn, num edge types: 1
# Building blocks:
#     Node 0, Type 0, BuildingBlock: WUSLED_clean_sbu_0, # of connection points: 3
#     Node 1, Type 0, BuildingBlock: WUSLED_clean_sbu_0, # of connection points: 3
#     Node 2, Type 0, BuildingBlock: WUSLED_clean_sbu_0, # of connection points: 3
#     Node 3, Type 0, BuildingBlock: WUSLED_clean_sbu_0, # of connection points: 3
#     Node 4, Type 0, BuildingBlock: WUSLED_clean_sbu_0, # of connection points: 3
#     Node 5, Type 0, BuildingBlock: WUSLED_clean_sbu_0, # of connection points: 3
#     Node 6, Type 0, BuildingBlock: WUSLED_clean_sbu_0, # of connection points: 3
#     Node 7, Type 0, BuildingBlock: WUSLED_clean_sbu_0, # of connection points: 3
#     Node 8, Type 0, BuildingBlock: WUSLED_clean_sbu_0, # of connection points: 3
#     Node 9, Type 0, BuildingBlock: WUSLED_clean_sbu_0, # of connection points: 3
#     Node 10, Type 0, BuildingBlock: WUSLED_clean_sbu_0, # of connection points: 3
#     Node 11, Type 0, BuildingBlock: WUSLED_clean_sbu_0, # of connection points: 3
#     Node 12, Type 0, BuildingBlock: WUSLED_clean_sbu_0, # of connection points: 3
#     Node 13, Type 0, BuildingBlock: WUSLED_clean_sbu_0, # of connection points: 3
#     Node 14, Type 0, BuildingBlock: WUSLED_clean_sbu_0, # of connection points: 3
#     Node 15, Type 0, BuildingBlock: WUSLED_clean_sbu_0, # of connection points: 3
#     Node 16, Type 1, BuildingBlock: QUQFOY_clean_sbu_1, # of connection points: 4
#     Node 17, Type 1, BuildingBlock: QUQFOY_clean_sbu_1, # of connection points: 4
#     Node 18, Type 1, BuildingBlock: QUQFOY_clean_sbu_1, # of connection points: 4
#     Node 19, Type 1, BuildingBlock: QUQFOY_clean_sbu_1, # of connection points: 4
#     Node 20, Type 1, BuildingBlock: QUQFOY_clean_sbu_1, # of connection points: 4
#     Node 21, Type 1, BuildingBlock: QUQFOY_clean_sbu_1, # of connection points: 4
#     Node 22, Type 1, BuildingBlock: QUQFOY_clean_sbu_1, # of connection points: 4
#     Node 23, Type 1, BuildingBlock: QUQFOY_clean_sbu_1, # of connection points: 4
#     Node 24, Type 1, BuildingBlock: QUQFOY_clean_sbu_1, # of connection points: 4
#     Node 25, Type 1, BuildingBlock: QUQFOY_clean_sbu_1, # of connection points: 4
#     Node 26, Type 1, BuildingBlock: QUQFOY_clean_sbu_1, # of connection points: 4
#     Node 27, Type 1, BuildingBlock: QUQFOY_clean_sbu_1, # of connection points: 4
#     Edge 28, Type (0, 1), BuildingBlock: KIFKEQ_clean_linker_1, # of connection points: 2
#     Edge 29, Type (0, 1), BuildingBlock: KIFKEQ_clean_linker_1, # of connection points: 2
#     Edge 30, Type (0, 1), BuildingBlock: KIFKEQ_clean_linker_1, # of connection points: 2
#     Edge 31, Type (0, 1), BuildingBlock: KIFKEQ_clean_linker_1, # of connection points: 2
#     Edge 32, Type (0, 1), BuildingBlock: KIFKEQ_clean_linker_1, # of connection points: 2
#     Edge 33, Type (0, 1), BuildingBlock: KIFKEQ_clean_linker_1, # of connection points: 2
#     Edge 34, Type (0, 1), BuildingBlock: KIFKEQ_clean_linker_1, # of connection points: 2
#     Edge 35, Type (0, 1), BuildingBlock: KIFKEQ_clean_linker_1, # of connection points: 2
#     Edge 36, Type (0, 1), BuildingBlock: KIFKEQ_clean_linker_1, # of connection points: 2
#     Edge 37, Type (0, 1), BuildingBlock: KIFKEQ_clean_linker_1, # of connection points: 2
#     Edge 38, Type (0, 1), BuildingBlock: KIFKEQ_clean_linker_1, # of connection points: 2
#     Edge 39, Type (0, 1), BuildingBlock: KIFKEQ_clean_linker_1, # of connection points: 2
#     Edge 40, Type (0, 1), BuildingBlock: KIFKEQ_clean_linker_1, # of connection points: 2
#     Edge 41, Type (0, 1), BuildingBlock: KIFKEQ_clean_linker_1, # of connection points: 2
#     Edge 42, Type (0, 1), BuildingBlock: KIFKEQ_clean_linker_1, # of connection points: 2
#     Edge 43, Type (0, 1), BuildingBlock: KIFKEQ_clean_linker_1, # of connection points: 2
#     Edge 44, Type (0, 1), BuildingBlock: KIFKEQ_clean_linker_1, # of connection points: 2
#     Edge 45, Type (0, 1), BuildingBlock: KIFKEQ_clean_linker_1, # of connection points: 2
#     Edge 46, Type (0, 1), BuildingBlock: KIFKEQ_clean_linker_1, # of connection points: 2
#     Edge 47, Type (0, 1), BuildingBlock: KIFKEQ_clean_linker_1, # of connection points: 2
#     Edge 48, Type (0, 1), BuildingBlock: KIFKEQ_clean_linker_1, # of connection points: 2
#     Edge 49, Type (0, 1), BuildingBlock: KIFKEQ_clean_linker_1, # of connection points: 2
#     Edge 50, Type (0, 1), BuildingBlock: KIFKEQ_clean_linker_1, # of connection points: 2
#     Edge 51, Type (0, 1), BuildingBlock: KIFKEQ_clean_linker_1, # of connection points: 2
#     Edge 52, Type (0, 1), BuildingBlock: KIFKEQ_clean_linker_1, # of connection points: 2
#     Edge 53, Type (0, 1), BuildingBlock: KIFKEQ_clean_linker_1, # of connection points: 2
#     Edge 54, Type (0, 1), BuildingBlock: KIFKEQ_clean_linker_1, # of connection points: 2
#     Edge 55, Type (0, 1), BuildingBlock: KIFKEQ_clean_linker_1, # of connection points: 2
#     Edge 56, Type (0, 1), BuildingBlock: KIFKEQ_clean_linker_1, # of connection points: 2
#     Edge 57, Type (0, 1), BuildingBlock: KIFKEQ_clean_linker_1, # of connection points: 2
#     Edge 58, Type (0, 1), BuildingBlock: KIFKEQ_clean_linker_1, # of connection points: 2
#     Edge 59, Type (0, 1), BuildingBlock: KIFKEQ_clean_linker_1, # of connection points: 2
#     Edge 60, Type (0, 1), BuildingBlock: KIFKEQ_clean_linker_1, # of connection points: 2
#     Edge 61, Type (0, 1), BuildingBlock: KIFKEQ_clean_linker_1, # of connection points: 2
#     Edge 62, Type (0, 1), BuildingBlock: KIFKEQ_clean_linker_1, # of connection points: 2
#     Edge 63, Type (0, 1), BuildingBlock: KIFKEQ_clean_linker_1, # of connection points: 2
#     Edge 64, Type (0, 1), BuildingBlock: KIFKEQ_clean_linker_1, # of connection points: 2
#     Edge 65, Type (0, 1), BuildingBlock: KIFKEQ_clean_linker_1, # of connection points: 2
#     Edge 66, Type (0, 1), BuildingBlock: KIFKEQ_clean_linker_1, # of connection points: 2
#     Edge 67, Type (0, 1), BuildingBlock: KIFKEQ_clean_linker_1, # of connection points: 2
#     Edge 68, Type (0, 1), BuildingBlock: KIFKEQ_clean_linker_1, # of connection points: 2
#     Edge 69, Type (0, 1), BuildingBlock: KIFKEQ_clean_linker_1, # of connection points: 2
#     Edge 70, Type (0, 1), BuildingBlock: KIFKEQ_clean_linker_1, # of connection points: 2
#     Edge 71, Type (0, 1), BuildingBlock: KIFKEQ_clean_linker_1, # of connection points: 2
#     Edge 72, Type (0, 1), BuildingBlock: KIFKEQ_clean_linker_1, # of connection points: 2
#     Edge 73, Type (0, 1), BuildingBlock: KIFKEQ_clean_linker_1, # of connection points: 2
#     Edge 74, Type (0, 1), BuildingBlock: KIFKEQ_clean_linker_1, # of connection points: 2
#     Edge 75, Type (0, 1), BuildingBlock: KIFKEQ_clean_linker_1, # of connection points: 2
# Relax obj value: 0.036
# Max RMSD: 0.140
# Mean RMSD: 0.064
data_MOF--net-ctn--node1-WUSLED_clean_sbu_0--node2-QUQFOY_clean_sbu_1--edge1-KIFKEQ_clean_linker_1
_symmetry_space_group_name_H-M    P1
_symmetry_Int_Tables_number       1
_symmetry_cell_setting            triclinic
loop_
_symmetry_equiv_pos_as_xyz
'x, y, z'
_cell_length_a     72.01422
_cell_length_b     72.389321
_cell_length_c     72.523321
_cell_angle_alpha  93.222984
_cell_angle_beta   90.023987
_cell_angle_gamma 94.128382
loop_
_atom_site_label
_atom_site_type_symbol
_atom_site_fract_x
_atom_site_fract_y
_atom_site_fract_z
_atom_type_partial_charge
C0 C 0.01526 0.09734 0.10464 0.0
C1 C 0.01787 0.08083 0.11323 0.0
C2 C 0.99438 0.08817 0.13621 0.0
C3 C 0.0075 0.07627 0.12887 0.0
C4 C 0.992 0.10479 0.1276 0.0
C5 C 1.00235 0.10931 0.11196 0.0
U6 U 0.05426 0.08943 0.07002 0.0
O7 O 0.05418 0.09013 0.03977 0.0
O8 O 0.07294 0.10978 0.05626 0.0
C9 C 0.06596 0.10487 0.03982 0.0
C10 C 0.02576 0.10218 0.08799 0.0
C11 C 0.06011 0.1201 0.02905 0.0
C12 C 0.03695 0.14117 0.02102 0.0
C13 C 0.04256 0.12704 0.03173 0.0
C14 C 0.06652 0.14179 1.00507 0.0
C15 C 0.04884 0.14868 0.00749 0.0
C16 C 0.07207 0.12762 0.01574 0.0
C17 C 0.08603 0.04954 0.07677 0.0
C18 C 0.11875 0.0458 0.07014 0.0
C19 C 0.09696 0.01876 0.07058 0.0
C20 C 0.08254 0.03021 0.07482 0.0
C21 C 0.1153 0.02638 0.06833 0.0
C22 C 0.10427 0.05726 0.07429 0.0
C23 C 0.07057 0.06112 0.08213 0.0
O24 O 0.04303 0.10891 0.09084 0.0
O25 O 0.02402 0.08985 0.07398 0.0
O26 O 0.05585 0.05924 0.07128 0.0
O27 O 0.07505 0.07843 0.08786 0.0
H28 H 0.0278 0.07142 0.10775 0.0
H29 H 0.00954 0.06326 0.13499 0.0
H30 H 0.98225 0.11441 0.13303 0.0
H31 H 1.00024 0.12216 0.10554 0.0
H32 H 0.02316 0.14594 0.02313 0.0
H33 H 0.03312 0.1214 0.04196 0.0
H34 H 0.07615 0.14743 0.99501 0.0
H35 H 0.08571 0.12249 0.01355 0.0
H36 H 0.1327 0.05217 0.06871 0.0
H37 H 0.09368 1.00393 0.06897 0.0
H38 H 0.0686 0.02391 0.0767 0.0
H39 H 0.10743 0.07213 0.07574 0.0
C40 C 0.27409 0.76431 0.19669 0.0
C41 C 0.28957 0.76918 0.18573 0.0
C42 C 0.27236 0.79235 0.17118 0.0
C43 C 0.28868 0.78299 0.17307 0.0
C44 C 0.25702 0.78763 0.18244 0.0
C45 C 0.25787 0.77372 0.19499 0.0
U46 U 0.29719 0.73997 0.23526 0.0
O47 O 0.28499 0.72713 0.25967 0.0
O48 O 0.29954 0.71028 0.23897 0.0
C49 C 0.28961 0.71047 0.25416 0.0
C50 C 0.27441 0.74933 0.2097 0.0
C51 C 0.27492 0.69542 0.2552 0.0
C52 C 0.24481 0.68039 0.24599 0.0
C53 C 0.25857 0.69496 0.2446 0.0
C54 C 0.26375 0.66669 0.26846 0.0
C55 C 0.24722 0.66613 0.25803 0.0
C56 C 0.27743 0.6812 0.26705 0.0
C57 C 0.34372 0.75906 0.25559 0.0
C58 C 0.35639 0.74683 0.2831 0.0
C59 C 0.37513 0.76897 0.26584 0.0
C60 C 0.36049 0.76971 0.2533 0.0
C61 C 0.37324 0.75759 0.28094 0.0
C62 C 0.34178 0.74751 0.27049 0.0
C63 C 0.32834 0.76017 0.24245 0.0
O64 O 0.28697 0.73719 0.20662 0.0
O65 O 0.27278 0.75445 0.22727 0.0
O66 O 0.3123 0.76388 0.2499 0.0
O67 O 0.3268 0.74686 0.22934 0.0
H68 H 0.30231 0.76221 0.18677 0.0
H69 H 0.3007 0.78603 0.16449 0.0
H70 H 0.24434 0.79472 0.18163 0.0
H71 H 0.24579 0.77026 0.20337 0.0
H72 H 0.23219 0.68045 0.23787 0.0
H73 H 0.25644 0.70586 0.23535 0.0
H74 H 0.26623 0.65578 0.27759 0.0
H75 H 0.29004 0.6813 0.27524 0.0
H76 H 0.35457 0.73778 0.29446 0.0
H77 H 0.38782 0.77761 0.26391 0.0
H78 H 0.36221 0.7787 0.24188 0.0
H79 H 0.32894 0.73908 0.27239 0.0
C80 C 0.95099 0.45781 0.02173 0.0
C81 C 0.96537 0.44794 0.02848 0.0
C82 C 0.96235 0.42607 1.00168 0.0
C83 C 0.971 0.4322 0.01855 0.0
C84 C 0.94786 0.436 0.99506 0.0
C85 C 0.94224 0.45174 1.00501 0.0
U86 U 0.95633 0.49214 0.06306 0.0
O87 O 0.95626 0.52255 0.06508 0.0
O88 O 0.93535 0.50573 0.08006 0.0
C89 C 0.94098 0.52237 0.075 0.0
C90 C 0.9452 0.47451 0.03197 0.0
C91 C 0.92629 0.53345 0.06828 0.0
C92 C 0.90544 0.54122 0.04398 0.0
C93 C 0.9192 0.53036 0.05026 0.0
C94 C 0.90553 0.55817 0.07376 0.0
C95 C 0.89846 0.55529 0.05565 0.0
C96 C 0.91934 0.54735 0.07999 0.0
C97 C 0.99394 0.48372 0.09878 0.0
C98 C 1.00399 0.50541 0.12422 0.0
C99 C 0.01641 0.47515 0.12117 0.0
C100 C 1.00554 0.4708 0.10534 0.0
C101 C 0.01589 0.49256 0.13074 0.0
C102 C 0.9931 0.50102 0.10836 0.0
C103 C 0.98323 0.47895 0.08172 0.0
O104 O 0.93714 0.47164 0.04791 0.0
O105 O 0.95768 0.4887 0.03278 0.0
O106 O 0.98617 0.49036 0.06838 0.0
O107 O 0.96555 0.47369 0.08385 0.0
H108 H 0.97231 0.4525 0.04138 0.0
H109 H 0.98233 0.42501 0.02394 0.0
H110 H 0.94073 0.43152 0.98225 0.0
H111 H 0.93108 0.45918 0.99964 0.0
H112 H 0.90012 0.53847 0.03005 0.0
H113 H 0.92435 0.51959 0.04105 0.0
H114 H 0.90063 0.56901 0.08303 0.0
H115 H 0.92467 0.54993 0.09394 0.0
H116 H 1.00338 0.519 0.13115 0.0
H117 H 0.02515 0.46483 0.12596 0.0
H118 H 1.00629 0.45735 0.09814 0.0
H119 H 0.9842 0.51117 0.10344 0.0
C120 C 0.71237 0.78422 0.19811 0.0
C121 C 0.72664 0.79104 0.18661 0.0
C122 C 0.72165 0.76358 0.16566 0.0
C123 C 0.73126 0.7808 0.17052 0.0
C124 C 0.70746 0.75679 0.17738 0.0
C125 C 0.70288 0.76703 0.19345 0.0
U126 U 0.71932 0.8265 0.23178 0.0
O127 O 0.69892 0.84317 0.24619 0.0
O128 O 0.71845 0.82841 0.26219 0.0
C129 C 0.70389 0.83838 0.2626 0.0
C130 C 0.70725 0.79484 0.21497 0.0
C131 C 0.68856 0.83219 0.2747 0.0
C132 C 0.65977 0.81363 0.28002 0.0
C133 C 0.67485 0.81843 0.26862 0.0
C134 C 0.67229 0.83592 0.30382 0.0
C135 C 0.65818 0.82252 0.29768 0.0
C136 C 0.6873 0.84071 0.29242 0.0
C137 C 0.75727 0.86466 0.223 0.0
C138 C 0.7738 0.8859 0.2456 0.0
C139 C 0.77097 0.89447 0.21398 0.0
C140 C 0.76094 0.87755 0.2095 0.0
C141 C 0.77767 0.89882 0.23206 0.0
C142 C 0.76363 0.86904 0.24115 0.0
C143 C 0.74694 0.84676 0.21782 0.0
O144 O 0.71974 0.79615 0.22829 0.0
O145 O 0.69993 0.81062 0.21236 0.0
O146 O 0.7295 0.84774 0.21287 0.0
O147 O 0.74937 0.83304 0.22852 0.0
H148 H 0.73411 0.80432 0.19003 0.0
H149 H 0.7421 0.78652 0.16171 0.0
H150 H 0.69997 0.74348 0.17422 0.0
H151 H 0.6919 0.76153 0.20223 0.0
H152 H 0.64908 0.80337 0.2748 0.0
H153 H 0.67562 0.81169 0.25495 0.0
H154 H 0.67169 0.84281 0.31743 0.0
H155 H 0.69782 0.8513 0.29736 0.0
H156 H 0.77892 0.88862 0.2596 0.0
H157 H 0.77337 0.90418 0.20326 0.0
H158 H 0.75606 0.8745 0.19545 0.0
H159 H 0.76091 0.8594 0.25188 0.0
C160 C 1.00083 0.98818 0.44716 0.0
C161 C 1.00662 1.00496 0.43942 0.0
C162 C 0.98032 1.00132 0.41804 0.0
C163 C 0.99645 0.01149 0.42502 0.0
C164 C 0.97462 0.98447 0.42588 0.0
C165 C 0.9848 0.97798 0.44031 0.0
U166 U 0.04373 0.99237 0.47756 0.0
O167 O 0.04719 0.98965 0.50738 0.0
O168 O 0.06115 0.97124 0.48763 0.0
C169 C 0.0572 0.97522 0.50503 0.0
C170 C 0.01154 0.98125 0.46225 0.0
C171 C 0.05151 0.95931 0.51597 0.0
C172 C 0.0285 0.93527 0.52491 0.0
C173 C 0.0337 0.95019 0.51406 0.0
C174 C 0.05892 0.93842 0.53952 0.0
C175 C 0.04104 0.92926 0.53784 0.0
C176 C 0.06408 0.95329 0.52868 0.0
C177 C 0.08025 0.03208 0.46949 0.0
C178 C 0.10845 0.03774 0.48797 0.0
C179 C 0.10203 0.05826 0.46384 0.0
C180 C 0.08548 0.04763 0.45956 0.0
C181 C 0.11367 0.05352 0.47816 0.0
C182 C 0.09184 0.0271 0.48368 0.0
C183 C 0.06256 0.02141 0.46503 0.0
O184 O 0.02726 0.97428 0.45727 0.0
O185 O 0.0132 0.99234 0.47724 0.0
O186 O 0.04958 0.0226 0.47769 0.0
O187 O 0.06393 1.00442 0.45804 0.0
H188 H 0.019 0.01302 0.44456 0.0
H189 H 1.00112 0.02461 0.41949 0.0
H190 H 0.96245 0.97615 0.42068 0.0
H191 H 0.98019 0.96495 0.44608 0.0
H192 H 0.01457 0.92867 0.52339 0.0
H193 H 0.02381 0.95468 0.50429 0.0
H194 H 0.06902 0.93398 0.5491 0.0
H195 H 0.07792 0.96015 0.53027 0.0
H196 H 0.11701 0.03381 0.49918 0.0
H197 H 0.10578 0.07015 0.45583 0.0
H198 H 0.07671 0.05161 0.44852 0.0
H199 H 0.08794 0.01512 0.49151 0.0
C200 C 0.20535 0.78568 0.85538 0.0
C201 C 0.21841 0.77951 0.86756 0.0
C202 C 0.21273 0.80504 0.88976 0.0
C203 C 0.22207 0.78911 0.88462 0.0
C204 C 0.19968 0.81111 0.87741 0.0
C205 C 0.19604 0.80151 0.86039 0.0
U206 U 0.21453 0.74794 0.81814 0.0
O207 O 0.19469 0.72969 0.80126 0.0
O208 O 0.21434 0.74922 0.78787 0.0
C209 C 0.19966 0.73738 0.78586 0.0
C210 C 0.20132 0.77584 0.83739 0.0
C211 C 0.18428 0.74358 0.77496 0.0
C212 C 0.15715 0.76143 0.77252 0.0
C213 C 0.17212 0.75611 0.78279 0.0
C214 C 0.16657 0.74205 0.74634 0.0
C215 C 0.15412 0.75436 0.75419 0.0
C216 C 0.1815 0.7367 0.75666 0.0
C217 C 0.25324 0.71491 0.8262 0.0
C218 C 0.2748 0.69938 0.80576 0.0
C219 C 0.2658 0.68625 0.83468 0.0
C220 C 0.25448 0.70084 0.83858 0.0
C221 C 0.27632 0.68544 0.81834 0.0
C222 C 0.26337 0.71397 0.80964 0.0
C223 C 0.24203 0.73071 0.83143 0.0
O224 O 0.21435 0.77795 0.82485 0.0
O225 O 0.19431 0.75862 0.83802 0.0
O226 O 0.22446 0.72648 0.8353 0.0
O227 O 0.24456 0.74559 0.82184 0.0
H228 H 0.22573 0.76727 0.86387 0.0
H229 H 0.23206 0.78395 0.89386 0.0
H230 H 0.19247 0.82348 0.88076 0.0
H231 H 0.18598 0.80649 0.8511 0.0
H232 H 0.14796 0.7711 0.77891 0.0
H233 H 0.17414 0.76166 0.7969 0.0
H234 H 0.16452 0.73617 0.73236 0.0
H235 H 0.19075 0.727 0.75041 0.0
H236 H 0.28279 0.69928 0.79311 0.0
H237 H 0.26631 0.67558 0.84452 0.0
H238 H 0.2468 0.70124 0.85143 0.0
H239 H 0.26271 0.72463 0.79981 0.0
C240 C 0.96203 0.60443 0.52577 0.0
C241 C 0.97744 0.61581 0.52036 0.0
C242 C 0.97265 0.63765 0.54646 0.0
C243 C 0.9827 0.63232 0.53063 0.0
C244 C 0.95715 0.62618 0.55168 0.0
C245 C 0.95192 0.60972 0.54142 0.0
U246 U 0.96801 0.56823 0.4861 0.0
O247 O 0.9647 0.5378 0.48614 0.0
O248 O 0.94667 0.55263 0.46859 0.0
C249 C 0.94995 0.53671 0.47535 0.0
C250 C 0.95634 0.58698 0.51535 0.0
C251 C 0.93352 0.52619 0.48239 0.0
C252 C 0.90924 0.52223 0.50538 0.0
C253 C 0.92496 0.53224 0.49879 0.0
C254 C 0.91049 0.50003 0.47919 0.0
C255 C 0.90181 0.50599 0.49565 0.0
C256 C 0.92622 0.51006 0.47264 0.0
C257 C 0.00753 0.57458 0.4515 0.0
C258 C 0.0143 0.55067 0.4281 0.0
C259 C 0.03037 0.58124 0.42775 0.0
C260 C 0.02054 0.58693 0.44342 0.0
C261 C 0.02737 0.56304 0.41988 0.0
C262 C 1.00441 0.55641 0.44375 0.0
C263 C 0.99727 0.58091 0.4679 0.0
O264 O 0.94991 0.58866 0.49861 0.0
O265 O 0.96787 0.57378 0.51622 0.0
O266 O 0.99835 0.57084 0.48234 0.0
O267 O 0.98034 0.58566 0.46473 0.0
H268 H 0.98542 0.61187 0.50829 0.0
H269 H 0.99479 0.64076 0.52634 0.0
H270 H 0.94892 0.63001 0.56361 0.0
H271 H 0.93994 0.60111 0.54572 0.0
H272 H 0.90304 0.5271 0.51819 0.0
H273 H 0.93045 0.5447 0.5065 0.0
H274 H 0.90498 0.48776 0.47122 0.0
H275 H 0.93263 0.50525 0.4599 0.0
H276 H 0.01153 0.53664 0.42226 0.0
H277 H 0.0405 0.59103 0.42192 0.0
H278 H 0.02312 0.60099 0.44925 0.0
H279 H 0.99431 0.54672 0.44979 0.0
C280 C 0.77984 0.80192 0.85469 0.0
C281 C 0.79046 0.78647 0.85198 0.0
C282 C 0.78198 0.77649 0.88259 0.0
C283 C 0.79145 0.77381 0.86579 0.0
C284 C 0.77147 0.79207 0.88523 0.0
C285 C 0.77041 0.80465 0.87139 0.0
U286 U 0.79871 0.82448 0.81164 0.0
O287 O 0.7841 0.83326 0.78734 0.0
O288 O 0.8009 0.85379 0.80485 0.0
C289 C 0.7891 0.85092 0.79099 0.0
C290 C 0.77862 0.8154 0.84038 0.0
C291 C 0.774 0.86355 0.79096 0.0
C292 C 0.74472 0.87387 0.80291 0.0
C293 C 0.75879 0.86148 0.80293 0.0
C294 C 0.76098 0.8905 0.77895 0.0
C295 C 0.74567 0.88858 0.79094 0.0
C296 C 0.77498 0.87809 0.77897 0.0
C297 C 0.84367 0.80791 0.79015 0.0
C298 C 0.85607 0.81736 0.76069 0.0
C299 C 0.87451 0.79996 0.78058 0.0
C300 C 0.86014 0.79948 0.79351 0.0
C301 C 0.87266 0.80889 0.76401 0.0
C302 C 0.8417 0.81693 0.77371 0.0
C303 C 0.82882 0.80716 0.80404 0.0
O304 O 0.79173 0.82903 0.84102 0.0
O305 O 0.77509 0.80832 0.82354 0.0
O306 O 0.81216 0.80111 0.79794 0.0
O307 O 0.82864 0.82172 0.81568 0.0
H308 H 0.79799 0.78423 0.83921 0.0
H309 H 0.7998 0.76205 0.86341 0.0
H310 H 0.76382 0.79441 0.8979 0.0
H311 H 0.76217 0.8165 0.87372 0.0
H312 H 0.73306 0.87186 0.81218 0.0
H313 H 0.75782 0.85031 0.8123 0.0
H314 H 0.76236 0.90182 0.76979 0.0
H315 H 0.7867 0.87995 0.76971 0.0
H316 H 0.85429 0.82448 0.74814 0.0
H317 H 0.88697 0.79307 0.78345 0.0
H318 H 0.86187 0.79244 0.80613 0.0
H319 H 0.82908 0.82362 0.77095 0.0
C320 C 0.2778 0.30245 0.35349 0.0
C321 C 0.28869 0.28716 0.35124 0.0
C322 C 0.27745 0.27591 0.3806 0.0
C323 C 0.28851 0.27398 0.36468 0.0
C324 C 0.26679 0.29144 0.38281 0.0
C325 C 0.26695 0.30454 0.36937 0.0
U326 U 0.29856 0.32548 0.31134 0.0
O327 O 0.28478 0.33574 0.28725 0.0
O328 O 0.30214 0.35506 0.30555 0.0
C329 C 0.29044 0.35313 0.29156 0.0
C330 C 0.27764 0.31638 0.33951 0.0
C331 C 0.27602 0.36656 0.29174 0.0
C332 C 0.24525 0.37596 0.30021 0.0
C333 C 0.25863 0.36282 0.30002 0.0
C334 C 0.26657 0.39671 0.28397 0.0
C335 C 0.24913 0.39311 0.29227 0.0
C336 C 0.27986 0.38355 0.2837 0.0
C337 C 0.34298 0.30786 0.28973 0.0
C338 C 0.35593 0.31768 0.2606 0.0
C339 C 0.37375 0.29952 0.28032 0.0
C340 C 0.35922 0.29904 0.29308 0.0
C341 C 0.37229 0.30882 0.26392 0.0
C342 C 0.34141 0.31726 0.27345 0.0
C343 C 0.32796 0.30715 0.30345 0.0
O344 O 0.29134 0.3294 0.34071 0.0
O345 O 0.27416 0.30987 0.32247 0.0
O346 O 0.3112 0.30195 0.29703 0.0
O347 O 0.3282 0.32135 0.31558 0.0
H348 H 0.29724 0.28538 0.33907 0.0
H349 H 0.29677 0.26214 0.36246 0.0
H350 H 0.2584 0.29358 0.39503 0.0
H351 H 0.25858 0.31634 0.37139 0.0
H352 H 0.23203 0.37285 0.30687 0.0
H353 H 0.25545 0.34981 0.30644 0.0
H354 H 0.26992 0.40968 0.27755 0.0
H355 H 0.2932 0.38668 0.27725 0.0
H356 H 0.35445 0.3251 0.24819 0.0
H357 H 0.38603 0.29233 0.28318 0.0
H358 H 0.36066 0.29172 0.30557 0.0
H359 H 0.32898 0.32426 0.2707 0.0
C360 C 0.45174 0.95657 0.5209 0.0
C361 C 0.4663 0.94691 0.52762 0.0
C362 C 0.46311 0.92468 0.5011 0.0
C363 C 0.47193 0.93108 0.51782 0.0
C364 C 0.4484 0.93437 0.49456 0.0
C365 C 0.44279 0.95017 0.50438 0.0
U366 U 0.45695 0.99235 0.56134 0.0
O367 O 0.45649 0.02274 0.56198 0.0
O368 O 0.43586 1.0064 0.57774 0.0
C369 C 0.44108 0.02277 0.57172 0.0
C370 C 0.446 0.97346 0.53083 0.0
C371 C 0.42624 0.03379 0.56468 0.0
C372 C 0.41729 0.06147 0.5503 0.0
C373 C 0.43106 0.0506 0.55648 0.0
C374 C 0.39348 0.03912 0.56061 0.0
C375 C 0.39832 0.0559 0.55233 0.0
C376 C 0.40727 0.02819 0.56673 0.0
C377 C 0.49489 0.98637 0.59786 0.0
C378 C 0.49718 0.99149 0.63129 0.0
C379 C 0.52502 0.99403 0.61264 0.0
C380 C 0.51427 0.98981 0.59671 0.0
C381 C 0.51665 0.99474 0.63017 0.0
C382 C 0.48641 0.98736 0.61532 0.0
C383 C 0.48412 0.98076 0.58082 0.0
O384 O 0.43808 0.971 0.54692 0.0
O385 O 0.45838 0.98772 0.53116 0.0
O386 O 0.48693 0.99145 0.56688 0.0
O387 O 0.46654 0.97494 0.58279 0.0
H388 H 0.4734 0.95172 0.54037 0.0
H389 H 0.48341 0.92407 0.52314 0.0
H390 H 0.44113 0.92967 0.48189 0.0
H391 H 0.43149 0.95745 0.49904 0.0
H392 H 0.42151 0.07445 0.54424 0.0
H393 H 0.44554 0.05546 0.55497 0.0
H394 H 0.37901 0.03433 0.56224 0.0
H395 H 0.40301 0.0154 0.57311 0.0
H396 H 0.49027 0.99171 0.64455 0.0
H397 H 0.53991 0.99677 0.61119 0.0
H398 H 0.52116 0.98906 0.58343 0.0
H399 H 0.4715 0.98468 0.61671 0.0
C400 C 0.21502 0.28433 0.69708 0.0
C401 C 0.22764 0.29278 0.68484 0.0
C402 C 0.2266 0.2643 0.66513 0.0
C403 C 0.23334 0.28286 0.66897 0.0
C404 C 0.21419 0.25585 0.67765 0.0
C405 C 0.20845 0.2658 0.69346 0.0
U406 U 0.21891 0.32657 0.73094 0.0
O407 O 0.19715 0.34309 0.74336 0.0
O408 O 0.21558 0.32885 0.76111 0.0
C409 C 0.20081 0.33845 0.76017 0.0
C410 C 0.20848 0.29474 0.71352 0.0
C411 C 0.18451 0.33259 0.77137 0.0
C412 C 0.16765 0.31073 0.79078 0.0
C413 C 0.18277 0.31527 0.77932 0.0
C414 C 0.15563 0.34051 0.78614 0.0
C415 C 0.154 0.3234 0.79451 0.0
C416 C 0.17073 0.34506 0.77479 0.0
C417 C 0.25733 0.36513 0.72438 0.0
C418 C 0.26947 0.39577 0.71605 0.0
C419 C 0.275 0.38574 0.74673 0.0
C420 C 0.265 0.36882 0.74215 0.0
C421 C 0.27747 0.3994 0.73371 0.0
C422 C 0.25959 0.37879 0.71143 0.0
C423 C 0.2474 0.34706 0.71888 0.0
O424 O 0.21992 0.29623 0.72774 0.0
O425 O 0.20113 0.31037 0.71035 0.0
O426 O 0.23037 0.34776 0.71257 0.0
O427 O 0.24908 0.33351 0.72998 0.0
H428 H 0.23296 0.30706 0.68749 0.0
H429 H 0.24307 0.2897 0.65972 0.0
H430 H 0.20855 0.24167 0.675 0.0
H431 H 0.1987 0.25908 0.70278 0.0
H432 H 0.1669 0.29748 0.79707 0.0
H433 H 0.19319 0.30535 0.77691 0.0
H434 H 0.1452 0.35046 0.78836 0.0
H435 H 0.17175 0.35848 0.7688 0.0
H436 H 0.27079 0.40605 0.70576 0.0
H437 H 0.28116 0.38792 0.76037 0.0
H438 H 0.2635 0.35858 0.75247 0.0
H439 H 0.25377 0.37629 0.69766 0.0
C440 C 0.77221 0.26158 0.69628 0.0
C441 C 0.78497 0.27718 0.69769 0.0
C442 C 0.77077 0.28971 0.67097 0.0
C443 C 0.78425 0.29114 0.68516 0.0
C444 C 0.75799 0.27402 0.66972 0.0
C445 C 0.75872 0.26011 0.68227 0.0
U446 U 0.79567 0.2389 0.73549 0.0
O447 O 0.78356 0.22523 0.75946 0.0
O448 O 0.79972 0.2095 0.73919 0.0
C449 C 0.78918 0.20895 0.75396 0.0
C450 C 0.77293 0.24666 0.70915 0.0
C451 C 0.77506 0.19328 0.75411 0.0
C452 C 0.74503 0.1782 0.74474 0.0
C453 C 0.7583 0.19329 0.74423 0.0
C454 C 0.76527 0.16297 0.76483 0.0
C455 C 0.74838 0.16285 0.75504 0.0
C456 C 0.77846 0.17804 0.76435 0.0
C457 C 0.8407 0.26098 0.75701 0.0
C458 C 0.85383 0.25014 0.78499 0.0
C459 C 0.87154 0.27278 0.76743 0.0
C460 C 0.85696 0.2724 0.75466 0.0
C461 C 0.87012 0.26178 0.78285 0.0
C462 C 0.83926 0.24973 0.77216 0.0
C463 C 0.82542 0.26096 0.74356 0.0
O464 O 0.78662 0.23576 0.70643 0.0
O465 O 0.77052 0.25159 0.72666 0.0
O466 O 0.80893 0.26354 0.75061 0.0
O467 O 0.82506 0.24765 0.73045 0.0
H468 H 0.7955 0.27853 0.70846 0.0
H469 H 0.79418 0.3031 0.68666 0.0
H470 H 0.74763 0.27229 0.65881 0.0
H471 H 0.74881 0.2481 0.68093 0.0
H472 H 0.73224 0.17846 0.73692 0.0
H473 H 0.7555 0.20494 0.73617 0.0
H474 H 0.76818 0.15152 0.77312 0.0
H475 H 0.79132 0.17785 0.77208 0.0
H476 H 0.85218 0.24162 0.79677 0.0
H477 H 0.884 0.28164 0.76514 0.0
H478 H 0.85836 0.28105 0.74296 0.0
H479 H 0.8268 0.24075 0.77413 0.0
C480 C 0.51691 0.59703 0.60528 0.0
C481 C 0.51957 0.58044 0.61372 0.0
C482 C 0.49567 0.58724 0.63641 0.0
C483 C 0.50901 0.57557 0.62912 0.0
C484 C 0.49334 0.60401 0.62808 0.0
C485 C 0.50385 0.60883 0.61262 0.0
U486 U 0.55594 0.58912 0.57086 0.0
O487 O 0.55562 0.58925 0.54049 0.0
O488 O 0.57461 0.60901 0.55664 0.0
C489 C 0.56739 0.60397 0.5403 0.0
C490 C 0.52734 0.60192 0.58861 0.0
C491 C 0.56161 0.61902 0.52912 0.0
C492 C 0.55042 0.6497 0.5265 0.0
C493 C 0.55591 0.63568 0.5374 0.0
C494 C 0.556 0.63053 0.4989 0.0
C495 C 0.55034 0.64731 0.50708 0.0
C496 C 0.56161 0.61659 0.50981 0.0
C497 C 0.58791 0.54993 0.57883 0.0
C498 C 0.61111 0.53963 0.55698 0.0
C499 C 0.60847 0.52644 0.58692 0.0
C500 C 0.59397 0.53769 0.59147 0.0
C501 C 0.61718 0.5272 0.56959 0.0
C502 C 0.59661 0.55093 0.56158 0.0
C503 C 0.57235 0.56128 0.58388 0.0
O504 O 0.54455 0.60885 0.59137 0.0
O505 O 0.5257 0.58947 0.5747 0.0
O506 O 0.55778 0.55911 0.57285 0.0
O507 O 0.57694 0.57873 0.58896 0.0
H508 H 0.52968 0.5712 0.60828 0.0
H509 H 0.51134 0.56268 0.63537 0.0
H510 H 0.48307 0.61321 0.63323 0.0
H511 H 0.50162 0.62168 0.60625 0.0
H512 H 0.54641 0.66249 0.53332 0.0
H513 H 0.5557 0.63789 0.5523 0.0
H514 H 0.55581 0.62801 0.48404 0.0
H515 H 0.56585 0.6038 0.50314 0.0
H516 H 0.61766 0.54073 0.54361 0.0
H517 H 0.61259 0.51688 0.59686 0.0
H518 H 0.58737 0.53672 0.60484 0.0
H519 H 0.59214 0.56037 0.55167 0.0
C520 C 0.50274 0.48735 0.94693 0.0
C521 C 0.50653 0.50535 0.94097 0.0
C522 C 0.48251 0.49977 0.91725 0.0
C523 C 0.49645 0.51153 0.92632 0.0
C524 C 0.47882 0.48172 0.92325 0.0
C525 C 0.48884 0.47558 0.93798 0.0
U526 U 0.54541 0.49208 0.97774 0.0
O527 O 0.54863 0.48957 0.00762 0.0
O528 O 0.56286 0.47113 0.98812 0.0
C529 C 0.55872 0.47519 1.00546 0.0
C530 C 0.51343 0.48067 0.96218 0.0
C531 C 0.55297 0.45931 0.01644 0.0
C532 C 0.52988 0.43537 0.02542 0.0
C533 C 0.53515 0.45023 0.01452 0.0
C534 C 0.56026 0.43849 0.04009 0.0
C535 C 0.54236 0.42937 0.03841 0.0
C536 C 0.56549 0.45331 0.02922 0.0
C537 C 0.58182 0.53191 0.96962 0.0
C538 C 0.60982 0.53797 0.98833 0.0
C539 C 0.60364 0.55797 0.96367 0.0
C540 C 0.58714 0.54725 0.95942 0.0
C541 C 0.61514 0.55355 0.97824 0.0
C542 C 0.59326 0.52725 0.98406 0.0
C543 C 0.5642 0.52112 0.96514 0.0
O544 O 0.52923 0.47377 0.95739 0.0
O545 O 0.51488 0.49182 0.97714 0.0
O546 O 0.55113 0.52232 0.97769 0.0
O547 O 0.56571 0.5041 0.9583 0.0
H548 H 0.51736 0.51458 0.94761 0.0
H549 H 0.49979 0.52542 0.92188 0.0
H550 H 0.46805 0.47239 0.91668 0.0
H551 H 0.48576 0.46163 0.94238 0.0
H552 H 0.51593 0.4288 0.02388 0.0
H553 H 0.52529 0.45472 1.00471 0.0
H554 H 0.57032 0.43406 0.04972 0.0
H555 H 0.57934 0.46014 0.03082 0.0
H556 H 0.61827 0.5343 0.99973 0.0
H557 H 0.60746 0.56968 0.95545 0.0
H558 H 0.57848 0.55097 0.94818 0.0
H559 H 0.5893 0.51543 0.9921 0.0
C560 C 0.70524 0.28604 0.35525 0.0
C561 C 0.71791 0.27972 0.36774 0.0
C562 C 0.71244 0.30563 0.38955 0.0
C563 C 0.72147 0.28942 0.38477 0.0
C564 C 0.69979 0.31187 0.37689 0.0
C565 C 0.69623 0.30215 0.35992 0.0
U566 U 0.71559 0.24884 0.31795 0.0
O567 O 0.69633 0.22981 0.30119 0.0
O568 O 0.71509 0.25006 0.28769 0.0
C569 C 0.70083 0.2377 0.28577 0.0
C570 C 0.70133 0.27608 0.33731 0.0
C571 C 0.68508 0.24339 0.27504 0.0
C572 C 0.65761 0.26078 0.27278 0.0
C573 C 0.67275 0.2557 0.28296 0.0
C574 C 0.66716 0.24156 0.24654 0.0
C575 C 0.65457 0.2537 0.25446 0.0
C576 C 0.68226 0.23644 0.25677 0.0
C577 C 0.75612 0.21817 0.32568 0.0
C578 C 0.76205 0.19011 0.30725 0.0
C579 C 0.7839 0.20214 0.33116 0.0
C580 C 0.77276 0.21682 0.33534 0.0
C581 C 0.77859 0.18846 0.31723 0.0
C582 C 0.7509 0.20486 0.31145 0.0
C583 C 0.74424 0.23324 0.33112 0.0
O584 O 0.7141 0.27873 0.32461 0.0
O585 O 0.69507 0.25862 0.33799 0.0
O586 O 0.72687 0.2281 0.335 0.0
O587 O 0.74592 0.24793 0.32123 0.0
H588 H 0.725 0.26728 0.36433 0.0
H589 H 0.73114 0.28412 0.39425 0.0
H590 H 0.69283 0.32445 0.37997 0.0
H591 H 0.68648 0.30726 0.35038 0.0
H592 H 0.64832 0.27032 0.27922 0.0
H593 H 0.6748 0.2613 0.29705 0.0
H594 H 0.66511 0.23568 0.23256 0.0
H595 H 0.69166 0.22693 0.25045 0.0
H596 H 0.75748 0.17975 0.29655 0.0
H597 H 0.79668 0.20149 0.3389 0.0
H598 H 0.77704 0.22703 0.3463 0.0
H599 H 0.73807 0.20571 0.30383 0.0
C600 C 0.46194 0.10551 0.0255 0.0
C601 C 0.47753 0.11674 0.02028 0.0
C602 C 0.47276 0.13853 0.04643 0.0
C603 C 0.4829 0.13315 0.03066 0.0
C604 C 0.4571 0.12719 0.05147 0.0
C605 C 0.45176 0.11084 0.04109 0.0
U606 U 0.4681 0.06905 0.98609 0.0
O607 O 0.46392 0.03867 0.98606 0.0
O608 O 0.44685 0.054 0.96801 0.0
C609 C 0.44948 0.03797 0.97489 0.0
C610 C 0.45609 0.08818 0.01493 0.0
C611 C 0.43258 0.02781 0.98143 0.0
C612 C 0.40926 0.02238 1.00511 0.0
C613 C 0.42542 0.03205 0.99904 0.0
C614 C 0.40714 1.00429 0.97594 0.0
C615 C 0.39991 0.00841 0.99361 0.0
C616 C 0.42335 0.0139 0.96993 0.0
C617 C 0.50888 0.0741 0.9528 0.0
C618 C 0.51323 0.05139 0.92749 0.0
C619 C 0.5354 0.07802 0.93241 0.0
C620 C 0.52512 0.08424 0.94757 0.0
C621 C 0.5296 0.06151 0.92218 0.0
C622 C 0.50296 0.05762 0.94269 0.0
C623 C 0.4983 0.08085 0.9688 0.0
O624 O 0.45029 0.09004 0.998 0.0
O625 O 0.46716 0.07464 0.01618 0.0
O626 O 0.49857 0.07077 0.9833 0.0
O627 O 0.48166 0.08607 0.96506 0.0
H628 H 0.48557 0.11276 0.00826 0.0
H629 H 0.49511 0.14149 0.02651 0.0
H630 H 0.44882 0.13107 0.06334 0.0
H631 H 0.43964 0.10235 0.04525 0.0
H632 H 0.40393 0.02604 0.01869 0.0
H633 H 0.43231 0.04288 0.00806 0.0
H634 H 0.40038 0.99347 0.96684 0.0
H635 H 0.42869 0.01047 0.95629 0.0
H636 H 0.50848 0.03853 0.92003 0.0
H637 H 0.54776 0.08631 0.92854 0.0
H638 H 0.52984 0.09702 0.9552 0.0
H639 H 0.49044 0.0496 0.9466 0.0
O640 O 0.25475 0.88102 0.01745 0.0
Cd641 Cd 0.26523 0.89602 0.04072 0.0
Cd642 Cd 0.24214 0.92309 0.02647 0.0
O643 O 0.23573 0.90103 0.00764 0.0
O644 O 0.27846 0.87759 0.0543 0.0
O645 O 0.25408 0.89105 0.06572 0.0
C646 C 0.26673 0.87949 0.06755 0.0
C647 C 0.21774 0.94149 0.03545 0.0
C648 C 0.24269 0.88537 1.00595 0.0
C649 C 0.28387 0.93262 0.02994 0.0
O650 O 0.26803 0.93714 0.02476 0.0
O651 O 0.28552 0.91718 0.03711 0.0
O652 O 0.22492 0.94189 0.01921 0.0
O653 O 0.22432 0.93043 0.04677 0.0
O654 O 0.15811 0.5447 0.28458 0.0
Cd655 Cd 0.14285 0.52116 0.2924 0.0
Cd656 Cd 0.11611 0.5363 0.26872 0.0
O657 O 0.13824 0.55564 0.26548 0.0
O658 O 0.16158 0.50795 0.30592 0.0
O659 O 0.14784 0.49613 0.28027 0.0
C660 C 0.15969 0.49462 0.29339 0.0
C661 C 0.0981 0.52717 0.24239 0.0
C662 C 0.15404 0.55678 0.27346 0.0
C663 C 0.10618 0.53133 0.30903 0.0
O664 O 0.10183 0.53694 0.29341 0.0
O665 O 0.12163 0.52426 0.3113 0.0
O666 O 0.09725 0.54327 0.25071 0.0
O667 O 0.10942 0.5161 0.24895 0.0
O668 O 0.76035 0.68902 0.99627 0.0
Cd669 Cd 0.7509 0.67383 0.01811 0.0
Cd670 Cd 0.77294 0.64773 0.99877 0.0
O671 O 0.77775 0.66925 0.98133 0.0
O672 O 0.73643 0.69216 0.03247 0.0
O673 O 0.76083 0.6801 0.04406 0.0
C674 C 0.74754 0.69109 0.04619 0.0
C675 C 0.79806 0.63256 0.00957 0.0
C676 C 0.77096 0.685 0.98284 0.0
C677 C 0.73222 0.63665 1.00402 0.0
O678 O 0.7476 0.6324 0.99696 0.0
O679 O 0.73103 0.65209 0.01303 0.0
O680 O 0.79198 0.62961 0.99286 0.0
O681 O 0.79005 0.64452 0.02018 0.0
O682 O 0.91113 0.03453 0.29368 0.0
Cd683 Cd 0.89773 0.03605 0.26871 0.0
Cd684 Cd 0.86957 0.04902 0.29267 0.0
O685 O 0.88943 0.0447 0.31237 0.0
O686 O 0.9175 0.03119 0.25016 0.0
O687 O 0.9037 0.05748 0.25244 0.0
C688 C 0.91581 0.04748 0.24438 0.0
C689 C 0.85351 0.07605 0.29638 0.0
C690 C 0.90541 0.03856 0.30989 0.0
C691 C 0.86021 0.01432 0.26814 0.0
O692 O 0.85478 0.02605 0.28031 0.0
O693 O 0.87666 0.01598 0.26179 0.0
O694 O 0.85027 0.06229 0.30672 0.0
O695 O 0.86615 0.0746 0.28385 0.0
O696 O 0.25831 0.18862 0.49517 0.0
Cd697 Cd 0.24992 0.17335 0.51731 0.0
Cd698 Cd 0.27151 0.14771 0.49748 0.0
O699 O 0.27583 0.1692 0.47993 0.0
O700 O 0.23622 0.19169 0.53252 0.0
O701 O 0.26111 0.1794 0.54278 0.0
C702 C 0.24803 0.19051 0.54564 0.0
C703 C 0.2969 0.13278 0.50801 0.0
C704 C 0.26871 0.18478 0.48153 0.0
C705 C 0.23101 0.13627 0.50357 0.0
O706 O 0.24623 0.13223 0.49603 0.0
O707 O 0.22995 0.15161 0.51283 0.0
O708 O 0.2907 0.12982 0.49134 0.0
O709 O 0.28885 0.14462 0.51872 0.0
O710 O 0.41239 0.53395 0.79361 0.0
Cd711 Cd 0.39851 0.53591 0.76897 0.0
Cd712 Cd 0.3711 0.54895 0.79379 0.0
O713 O 0.39148 0.5446 0.81294 0.0
O714 O 0.41784 0.53061 0.7501 0.0
O715 O 0.40472 0.55725 0.75263 0.0
C716 C 0.41647 0.54697 0.74438 0.0
C717 C 0.35526 0.57609 0.79779 0.0
C718 C 0.40723 0.53812 0.80999 0.0
C719 C 0.36084 0.51445 0.76931 0.0
O720 O 0.3559 0.526 0.78191 0.0
O721 O 0.37702 0.5162 0.76233 0.0
O722 O 0.35235 0.56248 0.80838 0.0
O723 O 0.36745 0.57443 0.78485 0.0
O724 O 0.7539 0.38039 0.51795 0.0
Cd725 Cd 0.76494 0.39479 0.54132 0.0
Cd726 Cd 0.74295 0.42298 0.52692 0.0
O727 O 0.7363 0.40139 0.50763 0.0
O728 O 0.77765 0.37548 0.55412 0.0
O729 O 0.75426 0.3898 0.56653 0.0
C730 C 0.76641 0.37763 0.56775 0.0
C731 C 0.7189 0.44187 0.53578 0.0
C732 C 0.74247 0.38535 0.50614 0.0
C733 C 0.78486 0.43106 0.53111 0.0
O734 O 0.76927 0.4363 0.52603 0.0
O735 O 0.78591 0.41532 0.53785 0.0
O736 O 0.72658 0.44257 0.51978 0.0
O737 O 0.72479 0.43024 0.54691 0.0
O738 O 0.65857 0.04271 0.78395 0.0
Cd739 Cd 0.64301 0.01955 0.79226 0.0
Cd740 Cd 0.61581 0.03525 0.76964 0.0
O741 O 0.6381 0.05429 0.76597 0.0
O742 O 0.66174 1.00573 0.80508 0.0
O743 O 0.64684 0.99436 0.77987 0.0
C744 C 0.65901 0.99245 0.79259 0.0
C745 C 0.59744 0.02631 0.74351 0.0
C746 C 0.65424 0.05501 0.7732 0.0
C747 C 0.60698 0.03029 0.8101 0.0
O748 O 0.60211 0.03596 0.79467 0.0
O749 O 0.62246 0.02311 0.8118 0.0
O750 O 0.59682 0.04242 0.75187 0.0
O751 O 0.60863 0.01507 0.74999 0.0
O752 O 0.99011 0.29708 0.92852 0.0
Cd753 Cd 0.99226 0.27228 0.91337 0.0
Cd754 Cd 0.01156 0.29581 0.88906 0.0
O755 O 0.00697 0.3151 0.9104 0.0
O756 O 0.98648 0.2526 0.93111 0.0
O757 O 0.01394 0.25691 0.91778 0.0
C758 C 1.00334 0.24792 0.92912 0.0
C759 C 0.03989 0.29988 0.87321 0.0
C760 C 0.99743 0.31298 0.92498 0.0
C761 C 0.97563 0.27429 0.87571 0.0
O762 O 0.98909 0.28607 0.8727 0.0
O763 O 0.97444 0.26658 0.89104 0.0
O764 O 0.02684 0.31095 0.87173 0.0
O765 O 0.03702 0.28635 0.88397 0.0
O766 O 0.49136 0.79579 0.42784 0.0
Cd767 Cd 0.49396 0.77103 0.41274 0.0
Cd768 Cd 0.51284 0.79478 0.38828 0.0
O769 O 0.50781 0.814 0.40955 0.0
O770 O 0.4882 0.75109 0.43021 0.0
O771 O 0.5159 0.75612 0.41754 0.0
C772 C 0.5052 0.74677 0.42851 0.0
C773 C 0.54127 0.79904 0.37268 0.0
C774 C 0.49838 0.81179 0.42419 0.0
C775 C 0.47746 0.77247 0.37486 0.0
O776 O 0.49067 0.78451 0.37177 0.0
O777 O 0.47641 0.76492 0.39027 0.0
O778 O 0.52807 0.80988 0.37088 0.0
O779 O 0.5385 0.78567 0.38365 0.0
O780 O 0.98979 0.78493 0.67659 0.0
Cd781 Cd 0.0123 0.7759 0.66183 0.0
Cd782 Cd 0.99435 0.79666 0.63439 0.0
O783 O 0.97603 0.8007 0.65594 0.0
O784 O 0.02544 0.76263 0.68077 0.0
O785 O 0.03848 0.78699 0.66758 0.0
C786 C 0.03966 0.77423 0.67918 0.0
C787 C 1.00363 0.82223 0.61733 0.0
C788 C 0.97668 0.79464 0.67204 0.0
C789 C 0.99979 0.75609 0.62525 0.0
O790 O 0.99346 0.77101 0.62032 0.0
O791 O 0.00774 0.75553 0.64085 0.0
O792 O 0.98726 0.8139 0.61549 0.0
O793 O 0.01485 0.81613 0.6291 0.0
O794 O 0.49012 0.28514 0.17727 0.0
Cd795 Cd 0.51264 0.2761 0.16254 0.0
Cd796 Cd 0.4949 0.2971 0.13513 0.0
O797 O 0.47655 0.30112 0.15667 0.0
O798 O 0.5257 0.26269 0.18143 0.0
O799 O 0.53885 0.28708 0.16835 0.0
C800 C 0.53997 0.27424 0.17988 0.0
C801 C 0.5043 0.32269 0.11813 0.0
C802 C 0.47708 0.29495 0.17272 0.0
C803 C 0.50018 0.25651 0.12584 0.0
O804 O 0.49395 0.27149 0.12096 0.0
O805 O 0.50806 0.25584 0.14147 0.0
O806 O 0.48791 0.31442 0.11626 0.0
O807 O 0.51547 0.31653 0.12991 0.0
H808 H 0.24652 0.81316 0.90688 0.0
H809 H 0.18785 0.82056 0.91348 0.0
H810 H 0.25307 0.83146 0.93572 0.0
H811 H 0.19443 0.83893 0.94225 0.0
H812 H 0.21689 0.88967 0.97908 0.0
H813 H 0.20937 0.86935 0.95181 0.0
H814 H 0.24854 0.83128 0.96925 0.0
H815 H 0.25631 0.85174 0.99646 0.0
C816 C 0.23499 0.81848 0.91459 0.0
C817 C 0.21667 0.81546 0.90779 0.0
C818 C 0.23875 0.82897 0.93113 0.0
C819 C 0.22428 0.83672 0.94125 0.0
C820 C 0.20592 0.83342 0.93463 0.0
C821 C 0.20216 0.8229 0.91812 0.0
C822 C 0.22384 0.87692 0.97719 0.0
C823 C 0.23726 0.8724 0.98996 0.0
C824 C 0.21945 0.86521 0.96158 0.0
C825 C 0.22838 0.8487 0.95832 0.0
C826 C 0.24158 0.84401 0.97124 0.0
C827 C 0.24594 0.8557 0.98689 0.0
H828 H 0.04348 0.53022 0.41273 0.0
H829 H 0.03495 0.58249 0.38923 0.0
H830 H 0.06135 0.52095 0.38553 0.0
H831 H 0.05325 0.57351 0.3624 0.0
H832 H 0.07208 0.5457 0.30908 0.0
H833 H 0.05209 0.55192 0.33543 0.0
H834 H 0.09151 0.52942 0.37141 0.0
H835 H 0.11143 0.52288 0.34498 0.0
C836 C 0.04533 0.53968 0.40172 0.0
C837 C 0.03784 0.55712 0.40317 0.0
C838 C 0.05572 0.53445 0.38623 0.0
C839 C 0.05874 0.54649 0.3718 0.0
C840 C 0.05102 0.56381 0.37316 0.0
C841 C 0.04071 0.56905 0.38865 0.0
C842 C 0.07646 0.54194 0.32257 0.0
C843 C 0.09345 0.53389 0.32491 0.0
C844 C 0.06502 0.5456 0.3377 0.0
C845 C 0.07027 0.54132 0.35555 0.0
C846 C 0.08698 0.53276 0.35782 0.0
C847 C 0.09845 0.52909 0.34267 0.0
H848 H 0.78653 0.78405 0.91974 0.0
H849 H 0.77931 0.73851 0.8787 0.0
H850 H 0.78591 0.76214 0.94408 0.0
H851 H 0.7785 0.71654 0.90307 0.0
H852 H 0.7916 0.68126 0.95113 0.0
H853 H 0.79631 0.70343 0.92706 0.0
H854 H 0.76296 0.74156 0.95794 0.0
H855 H 0.75861 0.71974 0.98204 0.0
C856 C 0.78476 0.76934 0.91592 0.0
C857 C 0.7828 0.76303 0.89729 0.0
C858 C 0.7844 0.75677 0.92987 0.0
C859 C 0.78199 0.73756 0.92557 0.0
C860 C 0.78058 0.73122 0.90688 0.0
C861 C 0.78101 0.74381 0.8929 0.0
C862 C 0.78541 0.69444 0.95284 0.0
C863 C 0.77471 0.69868 0.96854 0.0
C864 C 0.78802 0.7071 0.93898 0.0
C865 C 0.78002 0.7243 0.94055 0.0
C866 C 0.76957 0.72859 0.95638 0.0
C867 C 0.76697 0.71598 0.97018 0.0
H868 H 0.94241 1.00018 0.41375 0.0
H869 H 0.99385 0.01799 0.38727 0.0
H870 H 0.92487 0.01031 0.3879 0.0
H871 H 0.97628 0.02889 0.36183 0.0
H872 H 0.93943 0.02399 0.3097 0.0
H873 H 0.95758 0.0161 0.33604 0.0
H874 H 0.91633 0.03758 0.37309 0.0
H875 H 0.89789 0.04511 0.34667 0.0
C876 C 0.94999 1.00629 0.40243 0.0
C877 C 0.96957 0.00817 0.40258 0.0
C878 C 0.93991 0.01234 0.38772 0.0
C879 C 0.94914 0.02044 0.37276 0.0
C880 C 0.96871 0.02254 0.37301 0.0
C881 C 0.97879 0.01647 0.38772 0.0
C882 C 0.93425 0.02717 0.32345 0.0
C883 C 0.91712 0.03512 0.32603 0.0
C884 C 0.94474 0.02272 0.33859 0.0
C885 C 0.93841 0.02613 0.35671 0.0
C886 C 0.92149 0.03449 0.35931 0.0
C887 C 0.91097 0.03893 0.34416 0.0
H888 H 0.22938 0.277 0.63036 0.0
H889 H 0.23576 0.22818 0.66074 0.0
H890 H 0.23638 0.25967 0.60172 0.0
H891 H 0.24225 0.21068 0.63196 0.0
H892 H 0.26865 0.18955 0.57745 0.0
H893 H 0.26518 0.20791 0.60652 0.0
H894 H 0.21999 0.23472 0.5826 0.0
H895 H 0.22353 0.21667 0.55372 0.0
C896 C 0.23246 0.26262 0.63096 0.0
C897 C 0.23193 0.25396 0.64784 0.0
C898 C 0.23629 0.25263 0.61451 0.0
C899 C 0.23974 0.23376 0.61453 0.0
C900 C 0.23976 0.22523 0.63148 0.0
C901 C 0.23584 0.2352 0.64794 0.0
C902 C 0.25804 0.19942 0.57842 0.0
C903 C 0.24637 0.20163 0.56328 0.0
C904 C 0.256 0.20987 0.59508 0.0
C905 C 0.24236 0.22283 0.59685 0.0
C906 C 0.23082 0.22508 0.58163 0.0
C907 C 0.23277 0.21461 0.56509 0.0
H908 H 0.48576 0.60899 0.66652 0.0
H909 H 0.47891 0.55302 0.64234 0.0
H910 H 0.46656 0.59977 0.69267 0.0
H911 H 0.45964 0.54383 0.66831 0.0
H912 H 0.44337 0.52872 0.72619 0.0
H913 H 0.46247 0.53888 0.70056 0.0
H914 H 0.43487 0.58997 0.70127 0.0
H915 H 0.41595 0.57992 0.72738 0.0
C916 C 0.48004 0.59476 0.66672 0.0
C917 C 0.48396 0.58172 0.65238 0.0
C918 C 0.469 0.58947 0.68169 0.0
C919 C 0.46159 0.57103 0.68266 0.0
C920 C 0.4654 0.55807 0.66822 0.0
C921 C 0.47646 0.56333 0.65331 0.0
C922 C 0.44134 0.54214 0.72092 0.0
C923 C 0.42807 0.55349 0.72882 0.0
C924 C 0.45224 0.54792 0.70612 0.0
C925 C 0.45014 0.56519 0.69872 0.0
C926 C 0.43698 0.57666 0.70672 0.0
C927 C 0.42606 0.57086 0.72162 0.0
H928 H 0.80027 0.3084 0.65464 0.0
H929 H 0.74015 0.30392 0.6561 0.0
H930 H 0.79947 0.33116 0.63122 0.0
H931 H 0.73934 0.32607 0.63205 0.0
H932 H 0.74461 0.37806 0.59885 0.0
H933 H 0.74598 0.35826 0.625 0.0
H934 H 0.79149 0.33109 0.59905 0.0
H935 H 0.7904 0.35102 0.5733 0.0
C936 C 0.78687 0.31236 0.65008 0.0
C937 C 0.77027 0.30424 0.65723 0.0
C938 C 0.78641 0.32526 0.63647 0.0
C939 C 0.76934 0.33036 0.62961 0.0
C940 C 0.75274 0.32259 0.63709 0.0
C941 C 0.7532 0.30969 0.65072 0.0
C942 C 0.75496 0.36793 0.59882 0.0
C943 C 0.76738 0.36613 0.58398 0.0
C944 C 0.75569 0.35651 0.61375 0.0
C945 C 0.76887 0.34307 0.61417 0.0
C946 C 0.78137 0.34146 0.59938 0.0
C947 C 0.78065 0.35284 0.58451 0.0
H948 H 0.5509 0.98249 0.6376 0.0
H949 H 0.50865 0.01591 0.66135 0.0
H950 H 0.57032 0.98984 0.66489 0.0
H951 H 0.52764 0.02245 0.68904 0.0
H952 H 0.57493 0.04829 0.72575 0.0
H953 H 0.55548 0.04021 0.69872 0.0
H954 H 0.57313 0.98434 0.69713 0.0
H955 H 0.59311 0.99264 0.72402 0.0
C956 C 0.54573 0.9914 0.64864 0.0
C957 C 0.52823 0.99872 0.64717 0.0
C958 C 0.55677 0.9954 0.66442 0.0
C959 C 0.55059 1.00677 0.67919 0.0
C960 C 0.53298 0.01385 0.67784 0.0
C961 C 0.52196 0.00991 0.66203 0.0
C962 C 0.57469 0.03426 0.71966 0.0
C963 C 0.58559 0.0211 0.72706 0.0
C964 C 0.5634 0.02959 0.70421 0.0
C965 C 0.56262 0.01159 0.69575 0.0
C966 C 0.57354 0.99839 0.70315 0.0
C967 C 0.58493 1.00311 0.71862 0.0
H968 H 0.88381 0.23321 0.80095 0.0
H969 H 0.89114 0.29254 0.79632 0.0
H970 H 0.90945 0.23499 0.82325 0.0
H971 H 0.91677 0.29423 0.81833 0.0
H972 H 0.97401 0.28857 0.84175 0.0
H973 H 0.94868 0.28451 0.81942 0.0
H974 H 0.91794 0.24766 0.8551 0.0
H975 H 0.94348 0.25153 0.87754 0.0
C976 C 0.89078 0.24664 0.80477 0.0
C977 C 0.88549 0.26272 0.7967 0.0
C978 C 0.90548 0.24764 0.81752 0.0
C979 C 0.91526 0.26472 0.82242 0.0
C980 C 0.90979 0.2808 0.81455 0.0
C981 C 0.89509 0.27982 0.8019 0.0
C982 C 0.96193 0.27947 0.84485 0.0
C983 C 0.96076 0.27048 0.86155 0.0
C984 C 0.94735 0.27725 0.83206 0.0
C985 C 0.9312 0.26595 0.83558 0.0
C986 C 0.93024 0.25641 0.85196 0.0
C987 C 0.94485 0.25868 0.86484 0.0
H988 H 0.47299 0.89192 0.51422 0.0
H989 H 0.46731 0.91994 0.4637 0.0
H990 H 0.48302 0.86475 0.49648 0.0
H991 H 0.47665 0.89261 0.44596 0.0
H992 H 0.51101 0.84797 0.42056 0.0
H993 H 0.50366 0.87511 0.43979 0.0
H994 H 0.47005 0.84001 0.47494 0.0
H995 H 0.47767 0.81277 0.4559 0.0
C996 C 0.47394 0.89231 0.49934 0.0
C997 C 0.46931 0.9081 0.49038 0.0
C998 C 0.4795 0.87667 0.48916 0.0
C999 C 0.48064 0.87649 0.46979 0.0
C1000 C 0.47614 0.89234 0.46087 0.0
C1001 C 0.47055 0.90794 0.47103 0.0
C1002 C 0.50216 0.84599 0.43246 0.0
C1003 C 0.49486 0.82816 0.43661 0.0
C1004 C 0.49785 0.86158 0.44343 0.0
C1005 C 0.48614 0.85977 0.45883 0.0
C1006 C 0.47924 0.8419 0.46327 0.0
C1007 C 0.48354 0.82628 0.45229 0.0
H1008 H 0.13903 0.34683 0.82041 0.0
H1009 H 0.13345 0.29018 0.79777 0.0
H1010 H 0.11229 0.34055 0.84015 0.0
H1011 H 0.10671 0.28386 0.81784 0.0
H1012 H 0.06876 0.27704 0.86946 0.0
H1013 H 0.0972 0.28203 0.85125 0.0
H1014 H 0.07859 0.33406 0.83475 0.0
H1015 H 0.05047 0.32921 0.85286 0.0
C1016 C 0.13206 0.33304 0.81956 0.0
C1017 C 0.13827 0.31909 0.80728 0.0
C1018 C 0.11675 0.32944 0.83095 0.0
C1019 C 0.10728 0.31175 0.83045 0.0
C1020 C 0.11381 0.29759 0.81864 0.0
C1021 C 0.12912 0.30123 0.80714 0.0
C1022 C 0.07082 0.28956 0.862 0.0
C1023 C 0.05738 0.30274 0.86265 0.0
C1024 C 0.08704 0.29236 0.8515 0.0
C1025 C 0.09018 0.30849 0.84164 0.0
C1026 C 0.07673 0.32163 0.84239 0.0
C1027 C 0.06054 0.31878 0.85272 0.0
H1028 H 0.5645 0.65798 0.47379 0.0
H1029 H 0.5221 0.67027 0.51388 0.0
H1030 H 0.55363 0.68134 0.45431 0.0
H1031 H 0.51202 0.69438 0.49498 0.0
H1032 H 0.48479 0.72206 0.44873 0.0
H1033 H 0.49589 0.69806 0.46716 0.0
H1034 H 0.5525 0.71395 0.45165 0.0
H1035 H 0.54124 0.73763 0.43262 0.0
C1036 C 0.55287 0.66565 0.47849 0.0
C1037 C 0.54416 0.66211 0.49543 0.0
C1038 C 0.5468 0.67927 0.4674 0.0
C1039 C 0.53189 0.68978 0.47299 0.0
C1040 C 0.52334 0.68639 0.49004 0.0
C1041 C 0.52933 0.67271 0.50105 0.0
C1042 C 0.49961 0.7204 0.44918 0.0
C1043 C 0.51213 0.73179 0.43921 0.0
C1044 C 0.50601 0.7067 0.45989 0.0
C1045 C 0.52513 0.7041 0.46109 0.0
C1046 C 0.53766 0.71538 0.45093 0.0
C1047 C 0.53122 0.72903 0.44007 0.0
H1048 H 0.91006 0.81504 0.77046 0.0
H1049 H 0.86988 0.80311 0.72639 0.0
H1050 H 0.93531 0.8132 0.74822 0.0
H1051 H 0.89517 0.80119 0.70411 0.0
H1052 H 0.94555 0.81365 0.66711 0.0
H1053 H 0.9206 0.81887 0.68919 0.0
H1054 H 0.94889 0.78903 0.7294 0.0
H1055 H 0.9739 0.7841 0.70758 0.0
C1056 C 0.90662 0.81198 0.75601 0.0
C1057 C 0.88796 0.80906 0.75022 0.0
C1058 C 0.9211 0.81092 0.74326 0.0
C1059 C 0.91728 0.80688 0.72439 0.0
C1060 C 0.8986 0.80451 0.71851 0.0
C1061 C 0.8841 0.8056 0.73128 0.0
C1062 C 0.9465 0.8083 0.6807 0.0
C1063 C 0.96175 0.79844 0.68555 0.0
C1064 C 0.93214 0.81121 0.69332 0.0
C1065 C 0.93274 0.80439 0.71107 0.0
C1066 C 0.9481 0.79472 0.71595 0.0
C1067 C 0.96241 0.79179 0.70337 0.0
H1068 H 0.04872 0.92636 0.57453 0.0
H1069 H 0.0209 0.89664 0.52785 0.0
H1070 H 0.03996 0.90062 0.59378 0.0
H1071 H 0.01211 0.87091 0.54712 0.0
H1072 H 0.98275 0.83767 0.5917 0.0
H1073 H 0.99178 0.8635 0.57277 0.0
H1074 H 0.04638 0.86847 0.59804 0.0
H1075 H 0.0372 0.84273 0.61729 0.0
C1076 C 0.04087 0.91427 0.56832 0.0
C1077 C 0.03553 0.91358 0.54962 0.0
C1078 C 0.03586 0.8995 0.57937 0.0
C1079 C 0.02534 0.88369 0.57201 0.0
C1080 C 0.01998 0.883 0.55331 0.0
C1081 C 0.025 0.89776 0.54225 0.0
C1082 C 0.99668 0.84427 0.59327 0.0
C1083 C 0.00926 0.83812 0.60603 0.0
C1084 C 1.0019 0.85902 0.58231 0.0
C1085 C 0.01983 0.86803 0.58381 0.0
C1086 C 0.0324 0.86196 0.59666 0.0
C1087 C 0.02717 0.84716 0.60764 0.0
H1088 H 0.11843 0.75696 0.76641 0.0
H1089 H 0.15254 0.76273 0.71781 0.0
H1090 H 0.09113 0.76346 0.74868 0.0
H1091 H 0.12507 0.76871 0.69991 0.0
H1092 H 0.07331 0.79462 0.67769 0.0
H1093 H 0.10124 0.79137 0.6962 0.0
H1094 H 0.07222 0.74686 0.72423 0.0
H1095 H 0.04446 0.75019 0.70603 0.0
C1096 C 0.12014 0.75979 0.75198 0.0
C1097 C 0.13768 0.75926 0.74352 0.0
C1098 C 0.10445 0.76333 0.74176 0.0
C1099 C 0.10589 0.76648 0.72284 0.0
C1100 C 0.1235 0.76645 0.71448 0.0
C1101 C 0.1392 0.76283 0.72469 0.0
C1102 C 0.07291 0.7842 0.68785 0.0
C1103 C 0.05665 0.77268 0.69038 0.0
C1104 C 0.08892 0.78228 0.69839 0.0
C1105 C 0.08893 0.7689 0.71175 0.0
C1106 C 0.07262 0.75749 0.71428 0.0
C1107 C 0.05671 0.75933 0.70373 0.0
H1108 H 0.98413 0.67171 0.53408 0.0
H1109 H 0.97376 0.64294 0.58406 0.0
H1110 H 0.99236 0.70042 0.55253 0.0
H1111 H 0.98126 0.67169 0.60242 0.0
H1112 H 0.01207 0.72195 0.63096 0.0
H1113 H 0.00709 0.69358 0.61137 0.0
H1114 H 0.97693 0.72301 0.57221 0.0
H1115 H 0.98223 0.7515 0.5916 0.0
C1116 C 0.9837 0.67149 0.54899 0.0
C1117 C 0.97821 0.65505 0.5576 0.0
C1118 C 0.98822 0.68798 0.55956 0.0
C1119 C 0.98743 0.68837 0.57896 0.0
C1120 C 0.98222 0.67185 0.58753 0.0
C1121 C 0.97769 0.65541 0.57699 0.0
C1122 C 1.00446 0.72242 0.61812 0.0
C1123 C 0.99746 0.73902 0.61292 0.0
C1124 C 1.00153 0.70611 0.60694 0.0
C1125 C 0.99152 0.70598 0.59027 0.0
C1126 C 0.98487 0.72266 0.58486 0.0
C1127 C 0.98781 0.73899 0.59605 0.0
H1128 H 0.80393 0.91674 0.21071 0.0
H1129 H 0.77711 0.92116 0.26393 0.0
H1130 H 0.8227 0.9454 0.21839 0.0
H1131 H 0.79673 0.94921 0.27206 0.0
H1132 H 0.82303 0.00813 0.2755 0.0
H1133 H 0.80245 0.98108 0.26596 0.0
H1134 H 0.84822 0.95661 0.23755 0.0
H1135 H 0.86858 0.98389 0.24653 0.0
C1136 C 0.80195 0.92384 0.22403 0.0
C1137 C 0.78896 0.91656 0.23669 0.0
C1138 C 0.81294 0.94018 0.22855 0.0
C1139 C 0.81135 0.94962 0.2459 0.0
C1140 C 0.79822 0.94245 0.25849 0.0
C1141 C 0.78714 0.92618 0.25392 0.0
C1142 C 0.82867 0.99703 0.26712 0.0
C1143 C 0.84748 0.9982 0.2618 0.0
C1144 C 0.81689 0.98144 0.26175 0.0
C1145 C 0.82365 0.96658 0.25103 0.0
C1146 C 0.84242 0.96788 0.24555 0.0
C1147 C 0.85416 0.98351 0.2508 0.0
H1148 H 0.78765 0.17162 0.28382 0.0
H1149 H 0.79522 0.16849 0.34262 0.0
H1150 H 0.80589 0.14462 0.27833 0.0
H1151 H 0.81388 0.14205 0.33713 0.0
H1152 H 0.82693 0.08263 0.32215 0.0
H1153 H 0.80904 0.10973 0.32652 0.0
H1154 H 0.83792 0.1347 0.28094 0.0
H1155 H 0.85576 0.10726 0.27633 0.0
C1156 C 0.79321 0.1652 0.29556 0.0
C1157 C 0.78997 0.17225 0.31366 0.0
C1158 C 0.80383 0.14986 0.2924 0.0
C1159 C 0.81133 0.14115 0.30729 0.0
C1160 C 0.80815 0.14828 0.32535 0.0
C1161 C 0.79761 0.1636 0.32849 0.0
C1162 C 0.82953 0.09388 0.31303 0.0
C1163 C 0.84284 0.09279 0.29892 0.0
C1164 C 0.81931 0.10949 0.31561 0.0
C1165 C 0.82211 0.12445 0.30415 0.0
C1166 C 0.83533 0.12334 0.28991 0.0
C1167 C 0.84562 0.10768 0.28735 0.0
H1168 H 0.36782 0.9992 0.97404 0.0
H1169 H 0.39298 0.99456 0.0275 0.0
H1170 H 0.33979 0.98172 0.98407 0.0
H1171 H 0.36469 0.97745 0.03772 0.0
H1172 H 0.32008 0.92771 0.03905 0.0
H1173 H 0.34791 0.94684 0.03118 0.0
H1174 H 0.31365 0.98479 1.00549 0.0
H1175 H 0.28584 0.9656 0.01311 0.0
C1176 C 0.36736 0.99445 0.98794 0.0
C1177 C 0.38265 0.9982 0.99995 0.0
C1178 C 0.35121 0.98462 0.99376 0.0
C1179 C 0.34999 0.97823 0.01171 0.0
C1180 C 0.36525 0.98207 0.02377 0.0
C1181 C 0.38138 0.992 0.01797 0.0
C1182 C 0.31845 0.94021 0.03185 0.0
C1183 C 0.3007 0.94503 0.02661 0.0
C1184 C 0.33441 0.95122 0.02742 0.0
C1185 C 0.333 0.96726 0.01759 0.0
C1186 C 0.31523 0.97235 0.01281 0.0
C1187 C 0.29927 0.9614 0.0173 0.0
H1188 H 0.21152 0.3882 0.28553 0.0
H1189 H 0.25532 0.43032 0.30038 0.0
H1190 H 0.1889 0.41192 0.28631 0.0
H1191 H 0.23291 0.45397 0.30074 0.0
H1192 H 0.18587 0.48869 0.3191 0.0
H1193 H 0.20651 0.46356 0.31927 0.0
H1194 H 0.18098 0.43911 0.26891 0.0
H1195 H 0.16004 0.4643 0.26881 0.0
C1196 C 0.2163 0.4025 0.28902 0.0
C1197 C 0.23522 0.40738 0.29286 0.0
C1198 C 0.20338 0.4161 0.28929 0.0
C1199 C 0.20909 0.43483 0.29361 0.0
C1200 C 0.228 0.43965 0.29756 0.0
C1201 C 0.24089 0.42611 0.29716 0.0
C1202 C 0.18453 0.47793 0.30809 0.0
C1203 C 0.17135 0.47858 0.29387 0.0
C1204 C 0.19646 0.46356 0.30815 0.0
C1205 C 0.19552 0.44942 0.29402 0.0
C1206 C 0.18199 0.44974 0.28006 0.0
C1207 C 0.17005 0.46421 0.27996 0.0
H1208 H 0.14805 0.04215 0.48659 0.0
H1209 H 0.11853 0.09135 0.48057 0.0
H1210 H 0.17656 0.06153 0.49401 0.0
H1211 H 0.14706 0.11064 0.48733 0.0
H1212 H 0.19628 0.14049 0.51775 0.0
H1213 H 0.16826 0.11995 0.51275 0.0
H1214 H 0.1993 0.0823 0.47867 0.0
H1215 H 0.22749 0.10269 0.48393 0.0
C1216 C 0.14763 0.05709 0.48692 0.0
C1217 C 0.13102 0.0652 0.48294 0.0
C1218 C 0.164 0.06818 0.49098 0.0
C1219 C 0.1641 0.08763 0.49126 0.0
C1220 C 0.14744 0.09572 0.48745 0.0
C1221 C 0.13112 0.08465 0.48334 0.0
C1222 C 0.1972 0.12779 0.50926 0.0
C1223 C 0.21416 0.12331 0.50116 0.0
C1224 C 0.18108 0.11606 0.50632 0.0
C1225 C 0.1815 0.09954 0.4952 0.0
C1226 C 0.19853 0.09483 0.48744 0.0
C1227 C 0.21468 0.10659 0.49037 0.0
H1228 H 0.71057 0.16354 0.75878 0.0
H1229 H 0.75439 0.12591 0.75324 0.0
H1230 H 0.68779 0.1373 0.76207 0.0
H1231 H 0.73165 0.0997 0.75649 0.0
H1232 H 0.68993 0.06099 0.78624 0.0
H1233 H 0.71235 0.08684 0.78072 0.0
H1234 H 0.67249 0.10996 0.74567 0.0
H1235 H 0.64986 0.08422 0.75145 0.0
C1236 C 0.7153 0.14966 0.758 0.0
C1237 C 0.73432 0.14684 0.75588 0.0
C1238 C 0.70225 0.13461 0.75989 0.0
C1239 C 0.70791 0.1164 0.75968 0.0
C1240 C 0.72687 0.11357 0.75708 0.0
C1241 C 0.7399 0.12859 0.75521 0.0
C1242 C 0.68593 0.07153 0.77731 0.0
C1243 C 0.66806 0.07051 0.76933 0.0
C1244 C 0.69884 0.08632 0.77405 0.0
C1245 C 0.69423 0.10047 0.76272 0.0
C1246 C 0.67641 0.0994 0.75463 0.0
C1247 C 0.66348 0.08458 0.75788 0.0
H1248 H 0.39747 0.07413 0.5203 0.0
H1249 H 0.36607 0.06426 0.56995 0.0
H1250 H 0.37368 0.0936 0.50997 0.0
H1251 H 0.34198 0.0833 0.55935 0.0
H1252 H 0.31179 0.13373 0.54292 0.0
H1253 H 0.33664 0.11569 0.55377 0.0
H1254 H 0.34159 0.09009 0.49891 0.0
H1255 H 0.31704 0.10823 0.48804 0.0
C1256 C 0.38551 0.07615 0.52904 0.0
C1257 C 0.38368 0.06762 0.54596 0.0
C1258 C 0.37178 0.08717 0.52303 0.0
C1259 C 0.3559 0.09 0.53382 0.0
C1260 C 0.35412 0.08156 0.55079 0.0
C1261 C 0.36782 0.07047 0.55676 0.0
C1262 C 0.31826 0.12433 0.53317 0.0
C1263 C 0.31243 0.12244 0.51461 0.0
C1264 C 0.33241 0.1139 0.53941 0.0
C1265 C 0.3411 0.10142 0.52721 0.0
C1266 C 0.33538 0.09972 0.50863 0.0
C1267 C 0.32122 0.11008 0.50242 0.0
H1268 H 0.62266 0.50808 0.5366 0.0
H1269 H 0.64591 0.51821 0.59145 0.0
H1270 H 0.64698 0.48731 0.52871 0.0
H1271 H 0.67028 0.49744 0.58355 0.0
H1272 H 0.69967 0.44426 0.56844 0.0
H1273 H 0.67505 0.46475 0.57667 0.0
H1274 H 0.68009 0.48811 0.52322 0.0
H1275 H 0.70431 0.46748 0.5149 0.0
C1276 C 0.63308 0.50604 0.54692 0.0
C1277 C 0.63232 0.51484 0.56466 0.0
C1278 C 0.64702 0.4941 0.54241 0.0
C1279 C 0.6606 0.49067 0.5555 0.0
C1280 C 0.65988 0.49951 0.57323 0.0
C1281 C 0.64592 0.51145 0.57774 0.0
C1282 C 0.69548 0.45375 0.55845 0.0
C1283 C 0.70394 0.45419 0.541 0.0
C1284 C 0.68145 0.46558 0.5632 0.0
C1285 C 0.67555 0.47808 0.55059 0.0
C1286 C 0.68406 0.47848 0.53317 0.0
C1287 C 0.69806 0.4667 0.52844 0.0
H1288 H 0.68761 0.3222 0.4126 0.0
H1289 H 0.74603 0.31294 0.40728 0.0
H1290 H 0.69413 0.34057 0.44139 0.0
H1291 H 0.75249 0.33118 0.43615 0.0
H1292 H 0.75486 0.35112 0.49697 0.0
H1293 H 0.74699 0.33096 0.4696 0.0
H1294 H 0.71 0.37065 0.45123 0.0
H1295 H 0.71764 0.39072 0.47868 0.0
C1296 C 0.70186 0.32414 0.41752 0.0
C1297 C 0.71631 0.31616 0.40755 0.0
C1298 C 0.70558 0.33465 0.43404 0.0
C1299 C 0.72384 0.33739 0.44104 0.0
C1300 C 0.73824 0.32914 0.43126 0.0
C1301 C 0.73452 0.31867 0.41471 0.0
C1302 C 0.74494 0.35551 0.48717 0.0
C1303 C 0.73692 0.37259 0.49003 0.0
C1304 C 0.74053 0.34399 0.47142 0.0
C1305 C 0.72793 0.34922 0.4582 0.0
C1306 C 0.71962 0.36611 0.46124 0.0
C1307 C 0.72407 0.37767 0.47695 0.0
H1308 H 0.56749 0.06176 0.91903 0.0
H1309 H 0.51654 0.04663 0.88865 0.0
H1310 H 0.58552 0.05288 0.89198 0.0
H1311 H 0.53461 0.03705 0.86176 0.0
H1312 H 0.57337 0.0457 0.81175 0.0
H1313 H 0.5544 0.05173 0.83889 0.0
H1314 H 0.5938 0.02634 0.87261 0.0
H1315 H 0.61303 0.02062 0.84551 0.0
C1316 C 0.56013 0.05647 0.90659 0.0
C1317 C 0.54056 0.05504 0.90598 0.0
C1318 C 0.57048 0.05116 0.89114 0.0
C1319 C 0.56152 0.04426 0.87468 0.0
C1320 C 0.54195 0.04249 0.87416 0.0
C1321 C 0.53158 0.0478 0.88964 0.0
C1322 C 0.57796 0.04129 0.82491 0.0
C1323 C 0.59481 0.03277 0.82643 0.0
C1324 C 0.567 0.04465 0.84048 0.0
C1325 C 0.5726 0.03958 0.85796 0.0
C1326 C 0.58922 0.03067 0.85941 0.0
C1327 C 0.60019 0.0273 0.84383 0.0
H1328 H 0.24712 0.26221 0.39948 0.0
H1329 H 0.30636 0.25752 0.39388 0.0
H1330 H 0.24612 0.2403 0.42375 0.0
H1331 H 0.30526 0.23532 0.41814 0.0
H1332 H 0.28952 0.18174 0.44982 0.0
H1333 H 0.2923 0.2034 0.42507 0.0
H1334 H 0.25742 0.24016 0.45575 0.0
H1335 H 0.25447 0.21863 0.48027 0.0
C1336 C 0.25997 0.2566 0.4035 0.0
C1337 C 0.27686 0.26182 0.39484 0.0
C1338 C 0.25938 0.24401 0.41741 0.0
C1339 C 0.27564 0.23621 0.42301 0.0
C1340 C 0.29248 0.24101 0.41405 0.0
C1341 C 0.29309 0.25371 0.40014 0.0
C1342 C 0.28254 0.1945 0.45132 0.0
C1343 C 0.27167 0.19836 0.46701 0.0
C1344 C 0.2842 0.20693 0.43717 0.0
C1345 C 0.27492 0.2234 0.43837 0.0
C1346 C 0.26446 0.22743 0.45425 0.0
C1347 C 0.26287 0.21511 0.46838 0.0
H1348 H 0.47335 0.48077 0.8845 0.0
H1349 H 0.46785 0.5334 0.91437 0.0
H1350 H 0.45573 0.49114 0.85876 0.0
H1351 H 0.45056 0.54395 0.8884 0.0
H1352 H 0.40128 0.54552 0.84696 0.0
H1353 H 0.41998 0.53702 0.87285 0.0
H1354 H 0.45916 0.51373 0.83464 0.0
H1355 H 0.44047 0.52202 0.80878 0.0
C1356 C 0.46835 0.49455 0.88558 0.0
C1357 C 0.47196 0.50624 0.9015 0.0
C1358 C 0.45843 0.50057 0.87075 0.0
C1359 C 0.4518 0.51839 0.87151 0.0
C1360 C 0.45538 0.5301 0.88744 0.0
C1361 C 0.46542 0.52411 0.90224 0.0
C1362 C 0.41396 0.53872 0.84407 0.0
C1363 C 0.41929 0.53437 0.82577 0.0
C1364 C 0.42471 0.53391 0.85892 0.0
C1365 C 0.44098 0.52458 0.8558 0.0
C1366 C 0.44655 0.52066 0.83751 0.0
C1367 C 0.43587 0.52553 0.82268 0.0
H1368 H 0.75604 0.75805 0.15079 0.0
H1369 H 0.69725 0.74489 0.14113 0.0
H1370 H 0.76302 0.74084 0.12194 0.0
H1371 H 0.70423 0.72721 0.11279 0.0
H1372 H 0.72119 0.71556 0.05349 0.0
H1373 H 0.71574 0.73317 0.08222 0.0
H1374 H 0.76183 0.70902 0.10762 0.0
H1375 H 0.76756 0.6915 0.07855 0.0
C1376 C 0.74461 0.7515 0.14252 0.0
C1377 C 0.72608 0.75287 0.14828 0.0
C1378 C 0.74862 0.74147 0.1261 0.0
C1379 C 0.73419 0.73268 0.11502 0.0
C1380 C 0.71568 0.73399 0.12086 0.0
C1381 C 0.71168 0.74396 0.13724 0.0
C1382 C 0.73023 0.71399 0.06516 0.0
C1383 C 0.74477 0.70204 0.06374 0.0
C1384 C 0.72701 0.72403 0.08169 0.0
C1385 C 0.73823 0.72239 0.09729 0.0
C1386 C 0.75301 0.71069 0.09582 0.0
C1387 C 0.75623 0.70058 0.0792 0.0
H1388 H 0.95739 0.09285 0.14239 0.0
H1389 H 1.0057 0.07213 0.16729 0.0
H1390 H 0.9387 0.08397 0.16893 0.0
H1391 H 0.98698 0.06316 0.19376 0.0
H1392 H 0.91507 0.08059 0.22772 0.0
H1393 H 0.93438 0.09129 0.20211 0.0
H1394 H 0.96191 0.04015 0.20047 0.0
H1395 H 0.94293 0.02962 0.22607 0.0
C1396 C 0.96409 0.0866 0.15361 0.0
C1397 C 0.98306 0.08316 0.15264 0.0
C1398 C 0.95336 0.08151 0.16884 0.0
C1399 C 0.96131 0.0728 0.18345 0.0
C1400 C 0.98033 0.06957 0.1826 0.0
C1401 C 0.99107 0.07469 0.1674 0.0
C1402 C 0.92528 0.07167 0.2219 0.0
C1403 C 0.92745 0.05426 0.22895 0.0
C1404 C 0.93628 0.07776 0.20718 0.0
C1405 C 0.94973 0.06659 0.19926 0.0
C1406 C 0.9519 0.04922 0.2064 0.0
C1407 C 0.9409 0.04313 0.22103 0.0
H1408 H 0.29966 0.81836 0.16121 0.0
H1409 H 0.24252 0.79881 0.14944 0.0
H1410 H 0.29828 0.84056 0.13726 0.0
H1411 H 0.24109 0.82133 0.12582 0.0
H1412 H 0.24104 0.87538 0.09526 0.0
H1413 H 0.24226 0.85555 0.12145 0.0
H1414 H 0.29573 0.8385 0.10301 0.0
H1415 H 0.29458 0.85824 0.07699 0.0
C1416 C 0.28681 0.81874 0.15353 0.0
C1417 C 0.27124 0.80666 0.15725 0.0
C1418 C 0.28601 0.83154 0.13985 0.0
C1419 C 0.26959 0.83268 0.12963 0.0
C1420 C 0.25388 0.82095 0.13362 0.0
C1421 C 0.25471 0.80805 0.14721 0.0
C1422 C 0.25311 0.86749 0.09689 0.0
C1423 C 0.26769 0.86835 0.08402 0.0
C1424 C 0.25376 0.85607 0.11183 0.0
C1425 C 0.2691 0.84546 0.11429 0.0
C1426 C 0.28382 0.84665 0.10162 0.0
C1427 C 0.28309 0.85789 0.08664 0.0
H1428 H 1.00686 0.5111 0.16314 0.0
H1429 H 0.05214 0.48479 0.13581 0.0
H1430 H 0.02663 0.51896 0.19016 0.0
H1431 H 0.07189 0.49263 0.16282 0.0
H1432 H 0.09587 0.49411 0.22173 0.0
H1433 H 0.07577 0.48532 0.19501 0.0
H1434 H 0.0537 0.53933 0.19921 0.0
H1435 H 0.07342 0.54795 0.22598 0.0
C1436 C 0.02107 0.50711 0.16283 0.0
C1437 C 0.02789 0.49732 0.14729 0.0
C1438 C 0.03241 0.5116 0.17833 0.0
C1439 C 0.05087 0.50643 0.17866 0.0
C1440 C 0.05767 0.49657 0.16315 0.0
C1441 C 0.04633 0.49208 0.14765 0.0
C1442 C 0.08672 0.50409 0.21693 0.0
C1443 C 0.08624 0.52172 0.226 0.0
C1444 C 0.07526 0.49909 0.20157 0.0
C1445 C 0.06307 0.51161 0.19499 0.0
C1446 C 0.06268 0.52924 0.20407 0.0
C1447 C 0.07411 0.53423 0.21936 0.0
H1448 H 0.37088 0.75817 0.31865 0.0
H1449 H 0.41048 0.75639 0.274 0.0
H1450 H 0.39636 0.75977 0.341 0.0
H1451 H 0.43595 0.75783 0.29631 0.0
H1452 H 0.47564 0.78611 0.3406 0.0
H1453 H 0.45069 0.78071 0.31798 0.0
H1454 H 0.42107 0.74315 0.35382 0.0
H1455 H 0.44596 0.74887 0.37677 0.0
C1456 C 0.38501 0.75782 0.31361 0.0
C1457 C 0.38866 0.7573 0.29454 0.0
C1458 C 0.39963 0.75871 0.32642 0.0
C1459 C 0.41823 0.75905 0.32046 0.0
C1460 C 0.42182 0.75796 0.30138 0.0
C1461 C 0.40722 0.75713 0.28859 0.0
C1462 C 0.46388 0.77658 0.34367 0.0
C1463 C 0.4628 0.76798 0.36058 0.0
C1464 C 0.4496 0.7734 0.3306 0.0
C1465 C 0.43385 0.7615 0.33406 0.0
C1466 C 0.43291 0.75258 0.35081 0.0
C1467 C 0.44723 0.75576 0.36393 0.0
H1468 H 0.96694 0.42144 0.96429 0.0
H1469 H 0.97168 0.39312 0.01477 0.0
H1470 H 0.97627 0.39407 0.94659 0.0
H1471 H 0.98172 0.36595 0.99709 0.0
H1472 H 0.97647 0.31411 0.95651 0.0
H1473 H 0.96886 0.34141 0.97543 0.0
H1474 H 1.00315 0.37629 0.94065 0.0
H1475 H 0.0105 0.34908 0.92151 0.0
C1476 C 0.96997 0.40937 0.97162 0.0
C1477 C 0.96847 0.40946 0.99095 0.0
C1478 C 0.97556 0.39375 0.96148 0.0
C1479 C 0.9798 0.37782 0.97042 0.0
C1480 C 0.9784 0.37793 0.98976 0.0
C1481 C 0.97283 0.39358 0.99991 0.0
C1482 C 0.98251 0.32759 0.95295 0.0
C1483 C 0.99401 0.32938 0.93739 0.0
C1484 C 0.9782 0.34324 0.96387 0.0
C1485 C 0.98529 0.36106 0.95949 0.0
C1486 C 0.9972 0.3628 0.94423 0.0
C1487 C 1.00151 0.34716 0.93332 0.0
H1488 H 0.63974 0.78872 0.30337 0.0
H1489 H 0.63884 0.84725 0.31837 0.0
H1490 H 0.61177 0.78257 0.32182 0.0
H1491 H 0.61144 0.84105 0.33723 0.0
H1492 H 0.55049 0.8266 0.34964 0.0
H1493 H 0.57883 0.83156 0.33192 0.0
H1494 H 0.60037 0.78322 0.35413 0.0
H1495 H 0.57165 0.77803 0.3718 0.0
C1496 C 0.63362 0.80025 0.31063 0.0
C1497 C 0.64155 0.81848 0.30937 0.0
C1498 C 0.61772 0.79671 0.32136 0.0
C1499 C 0.60934 0.81132 0.33096 0.0
C1500 C 0.61741 0.82949 0.32984 0.0
C1501 C 0.63327 0.83302 0.31918 0.0
C1502 C 0.56125 0.817 0.35082 0.0
C1503 C 0.55882 0.80194 0.36221 0.0
C1504 C 0.57757 0.81992 0.34071 0.0
C1505 C 0.59193 0.80787 0.34169 0.0
C1506 C 0.5895 0.79269 0.35298 0.0
C1507 C 0.57311 0.78978 0.36318 0.0
H1508 H 0.02877 0.17829 0.01802 0.0
H1509 H 0.05505 0.1527 0.97052 0.0
H1510 H 0.01812 0.20204 0.99884 0.0
H1511 H 0.04456 0.17662 0.9514 0.0
H1512 H 0.03783 0.23401 0.92789 0.0
H1513 H 0.04928 0.21023 0.94677 0.0
H1514 H 0.99585 0.20442 0.97367 0.0
H1515 H 0.9845 0.22821 0.95504 0.0
C1516 C 0.03219 0.17764 1.00347 0.0
C1517 C 0.04273 0.1635 0.99585 0.0
C1518 C 0.0261 0.19129 0.99247 0.0
C1519 C 0.03043 0.1912 0.97356 0.0
C1520 C 0.04117 0.17723 0.96596 0.0
C1521 C 0.0472 0.16352 0.97695 0.0
C1522 C 0.02853 0.22761 0.9378 0.0
C1523 C 0.01026 0.23304 0.93997 0.0
C1524 C 0.03506 0.21394 0.94857 0.0
C1525 C 0.02351 0.20549 0.96181 0.0
C1526 C 1.00521 0.21084 0.96382 0.0
C1527 C 0.99866 0.2244 0.95303 0.0
H1528 H 0.40966 0.31426 0.27085 0.0
H1529 H 0.3699 0.30378 0.22622 0.0
H1530 H 0.43513 0.31254 0.24885 0.0
H1531 H 0.3954 0.30194 0.20418 0.0
H1532 H 0.44624 0.31441 0.16787 0.0
H1533 H 0.42115 0.31953 0.18981 0.0
H1534 H 0.4487 0.28868 0.22973 0.0
H1535 H 0.47386 0.28388 0.20806 0.0
C1536 C 0.40636 0.31154 0.25633 0.0
C1537 C 0.38775 0.309 0.25031 0.0
C1538 C 0.42096 0.31054 0.24372 0.0
C1539 C 0.41733 0.30694 0.22475 0.0
C1540 C 0.3987 0.30493 0.21866 0.0
C1541 C 0.38408 0.30597 0.23129 0.0
C1542 C 0.447 0.30882 0.18138 0.0
C1543 C 0.46209 0.29872 0.18617 0.0
C1544 C 0.43256 0.31167 0.19391 0.0
C1545 C 0.4329 0.30453 0.21154 0.0
C1546 C 0.44811 0.29462 0.21638 0.0
C1547 C 0.46251 0.29176 0.20388 0.0
H1548 H 0.52211 0.39679 0.02849 0.0
H1549 H 0.54997 0.42655 0.07513 0.0
H1550 H 0.51316 0.37117 0.04784 0.0
H1551 H 0.54106 0.40092 0.09446 0.0
H1552 H 0.53796 0.34307 0.11814 0.0
H1553 H 0.5473 0.36873 0.09884 0.0
H1554 H 0.49274 0.36397 0.07349 0.0
H1555 H 0.48354 0.33821 0.09246 0.0
C1556 C 0.52619 0.39795 0.0429 0.0
C1557 C 0.53677 0.41374 0.05023 0.0
C1558 C 0.52107 0.38324 0.054 0.0
C1559 C 0.5264 0.38397 0.07272 0.0
C1560 C 0.53698 0.39976 0.08004 0.0
C1561 C 0.54208 0.41447 0.06895 0.0
C1562 C 0.52797 0.34752 0.10846 0.0
C1563 C 0.51002 0.33857 0.10683 0.0
C1564 C 0.53328 0.36228 0.09746 0.0
C1565 C 0.52078 0.36838 0.08457 0.0
C1566 C 0.50281 0.35946 0.08305 0.0
C1567 C 0.4975 0.34475 0.09404 0.0
H1568 H 0.65289 0.26217 0.21812 0.0
H1569 H 0.61887 0.25605 0.26674 0.0
H1570 H 0.62537 0.26825 0.20033 0.0
H1571 H 0.59153 0.26266 0.24912 0.0
H1572 H 0.54471 0.24998 0.20654 0.0
H1573 H 0.57249 0.24637 0.22462 0.0
H1574 H 0.60163 0.291 0.19686 0.0
H1575 H 0.57369 0.29452 0.17847 0.0
C1576 C 0.63956 0.26219 0.22502 0.0
C1577 C 0.63807 0.25852 0.24383 0.0
C1578 C 0.62383 0.26588 0.21488 0.0
C1579 C 0.60624 0.26586 0.22328 0.0
C1580 C 0.60484 0.26256 0.24217 0.0
C1581 C 0.62055 0.25896 0.25232 0.0
C1582 C 0.557 0.25909 0.20428 0.0
C1583 C 0.55697 0.27254 0.19103 0.0
C1584 C 0.57291 0.25709 0.21476 0.0
C1585 C 0.58927 0.26845 0.21226 0.0
C1586 C 0.58929 0.28194 0.19902 0.0
C1587 C 0.57327 0.28402 0.18855 0.0
H1588 H 0.48467 0.17256 0.03426 0.0
H1589 H 0.47362 0.14365 0.08405 0.0
H1590 H 0.49297 0.20116 0.05287 0.0
H1591 H 0.48122 0.17228 0.10256 0.0
H1592 H 0.51217 0.22223 0.13151 0.0
H1593 H 0.50715 0.19397 0.11178 0.0
H1594 H 0.47753 0.22378 0.07252 0.0
H1595 H 0.48286 0.25218 0.09206 0.0
C1596 C 0.48412 0.17228 0.04917 0.0
C1597 C 0.47841 0.15584 0.05767 0.0
C1598 C 0.48868 0.18871 0.05982 0.0
C1599 C 0.48772 0.18903 0.07921 0.0
C1600 C 0.48231 0.1725 0.08768 0.0
C1601 C 0.47772 0.15612 0.07705 0.0
C1602 C 0.50467 0.22282 0.11862 0.0
C1603 C 0.49783 0.23949 0.11343 0.0
C1604 C 0.50172 0.20657 0.10735 0.0
C1605 C 0.49184 0.20657 0.09062 0.0
C1606 C 0.48536 0.22333 0.08523 0.0
C1607 C 0.48831 0.2396 0.0965 0.0
H1608 H 0.27886 0.42031 0.76656 0.0
H1609 H 0.30174 0.41873 0.71145 0.0
H1610 H 0.29859 0.44833 0.77461 0.0
H1611 H 0.32062 0.44733 0.71918 0.0
H1612 H 0.36807 0.48491 0.7459 0.0
H1613 H 0.34742 0.4578 0.73709 0.0
H1614 H 0.30338 0.48069 0.76958 0.0
H1615 H 0.32426 0.5076 0.77888 0.0
C1616 C 0.28803 0.42596 0.75612 0.0
C1617 C 0.28874 0.41714 0.73837 0.0
C1618 C 0.29918 0.4422 0.76067 0.0
C1619 C 0.31125 0.45012 0.74756 0.0
C1620 C 0.3117 0.4415 0.72971 0.0
C1621 C 0.30064 0.42521 0.7252 0.0
C1622 C 0.35396 0.48423 0.75111 0.0
C1623 C 0.34787 0.49843 0.76315 0.0
C1624 C 0.34205 0.46869 0.74596 0.0
C1625 C 0.32369 0.467 0.75262 0.0
C1626 C 0.3175 0.48137 0.76442 0.0
C1627 C 0.32946 0.49687 0.76966 0.0
H1628 H 0.29864 0.67029 0.84311 0.0
H1629 H 0.28302 0.66632 0.78541 0.0
H1630 H 0.3184 0.64465 0.83776 0.0
H1631 H 0.30309 0.64072 0.78003 0.0
H1632 H 0.35476 0.60576 0.77577 0.0
H1633 H 0.33649 0.63294 0.78027 0.0
H1634 H 0.31334 0.61112 0.83019 0.0
H1635 H 0.33155 0.58423 0.82583 0.0
C1636 C 0.29932 0.66389 0.82929 0.0
C1637 C 0.28903 0.67027 0.81474 0.0
C1638 C 0.31071 0.64921 0.82622 0.0
C1639 C 0.31222 0.64056 0.8085 0.0
C1640 C 0.30236 0.64721 0.79382 0.0
C1641 C 0.29085 0.66188 0.7969 0.0
C1642 C 0.34582 0.60684 0.78773 0.0
C1643 C 0.34465 0.59284 0.80045 0.0
C1644 C 0.33528 0.62234 0.79024 0.0
C1645 C 0.32352 0.62422 0.80562 0.0
C1646 C 0.32246 0.61024 0.81834 0.0
C1647 C 0.33285 0.59475 0.81577 0.0
H1648 H 0.8951 0.4683 0.49596 0.0
H1649 H 0.87042 0.51968 0.51089 0.0
H1650 H 0.86702 0.4509 0.5059 0.0
H1651 H 0.84261 0.50226 0.52157 0.0
H1652 H 0.78812 0.4647 0.51553 0.0
H1653 H 0.81655 0.48306 0.50832 0.0
H1654 H 0.84917 0.44307 0.53301 0.0
H1655 H 0.82072 0.42443 0.53987 0.0
C1656 C 0.8837 0.47589 0.50141 0.0
C1657 C 0.88499 0.49539 0.50252 0.0
C1658 C 0.86768 0.46591 0.50735 0.0
C1659 C 0.85255 0.47517 0.51455 0.0
C1660 C 0.85394 0.49468 0.51592 0.0
C1661 C 0.86996 0.50467 0.50998 0.0
C1662 C 0.80133 0.45986 0.51956 0.0
C1663 C 0.80211 0.44301 0.52818 0.0
C1664 C 0.81765 0.47047 0.51551 0.0
C1665 C 0.83517 0.4645 0.52 0.0
C1666 C 0.83593 0.44791 0.52909 0.0
C1667 C 0.81959 0.43729 0.53313 0.0
H1668 H 0.7304 0.90443 0.76152 0.0
H1669 H 0.72787 0.90366 0.821 0.0
H1670 H 0.70837 0.92847 0.76219 0.0
H1671 H 0.70517 0.92705 0.82159 0.0
H1672 H 0.68585 0.98562 0.81728 0.0
H1673 H 0.70529 0.95955 0.8169 0.0
H1674 H 0.6765 0.93541 0.76806 0.0
H1675 H 0.65724 0.96191 0.7682 0.0
C1676 C 0.72507 0.9093 0.77475 0.0
C1677 C 0.73107 0.9022 0.79122 0.0
C1678 C 0.71223 0.92293 0.77511 0.0
C1679 C 0.70503 0.92979 0.79195 0.0
C1680 C 0.71062 0.92229 0.80838 0.0
C1681 C 0.72349 0.90869 0.80803 0.0
C1682 C 0.68356 0.97473 0.80649 0.0
C1683 C 0.67001 0.9759 0.79273 0.0
C1684 C 0.69465 0.95967 0.80635 0.0
C1685 C 0.69247 0.94532 0.79247 0.0
C1686 C 0.6787 0.94633 0.77884 0.0
C1687 C 0.66759 0.96145 0.77897 0.0
H1688 H 0.61998 0.59138 0.97985 0.0
H1689 H 0.64942 0.54239 0.98736 0.0
H1690 H 0.64844 0.6108 0.98658 0.0
H1691 H 0.67784 0.56193 0.99476 0.0
H1692 H 0.72897 0.60282 0.98481 0.0
H1693 H 0.70083 0.58238 0.97937 0.0
H1694 H 0.66924 0.62063 0.01214 0.0
H1695 H 0.69721 0.6412 0.01732 0.0
C1696 C 0.63254 0.58475 0.98294 0.0
C1697 C 0.63244 0.56532 0.98297 0.0
C1698 C 0.64881 0.5959 0.98702 0.0
C1699 C 0.66542 0.58793 0.99125 0.0
C1700 C 0.66532 0.5685 0.9914 0.0
C1701 C 0.649 0.55732 0.98735 0.0
C1702 C 0.71604 0.60684 0.99092 0.0
C1703 C 0.71536 0.62372 1.0014 0.0
C1704 C 0.69993 0.59506 0.98788 0.0
C1705 C 0.68276 0.59992 0.99524 0.0
C1706 C 0.68217 0.61662 1.00602 0.0
C1707 C 0.69826 0.62837 0.00906 0.0
H1708 H 0.22626 0.64698 0.23058 0.0
H1709 H 0.23517 0.65035 0.28963 0.0
H1710 H 0.20354 0.62057 0.23367 0.0
H1711 H 0.21263 0.62401 0.29267 0.0
H1712 H 0.18854 0.56419 0.28902 0.0
H1713 H 0.21054 0.59068 0.28469 0.0
H1714 H 0.17249 0.61201 0.24648 0.0
H1715 H 0.15048 0.5853 0.25059 0.0
C1716 C 0.22323 0.64222 0.24423 0.0
C1717 C 0.23267 0.65068 0.25984 0.0
C1718 C 0.21024 0.62708 0.24599 0.0
C1719 C 0.20643 0.62006 0.2634 0.0
C1720 C 0.21555 0.6288 0.27902 0.0
C1721 C 0.22848 0.64392 0.27727 0.0
C1722 C 0.18485 0.57446 0.27964 0.0
C1723 C 0.16768 0.57262 0.27022 0.0
C1724 C 0.19743 0.58973 0.27724 0.0
C1725 C 0.19321 0.60354 0.26535 0.0
C1726 C 0.17621 0.60155 0.25565 0.0
C1727 C 0.16357 0.58628 0.25808 0.0
H1728 H 0.86775 0.56675 0.07413 0.0
H1729 H 0.89638 0.57045 0.02201 0.0
H1730 H 0.84404 0.58595 0.06315 0.0
H1731 H 0.87277 0.58975 0.01106 0.0
H1732 H 0.81641 0.6059 0.99055 0.0
H1733 H 0.84062 0.58759 1.00177 0.0
H1734 H 0.83896 0.6172 0.0551 0.0
H1735 H 0.81431 0.63528 0.04394 0.0
C1736 C 0.86908 0.5718 0.06039 0.0
C1737 C 0.88396 0.56702 0.04894 0.0
C1738 C 0.8555 0.58285 0.0541 0.0
C1739 C 0.85646 0.58943 0.03621 0.0
C1740 C 0.8714 0.5847 0.0248 0.0
C1741 C 0.88495 0.57361 0.03108 0.0
C1742 C 0.82123 0.60858 1.00466 0.0
C1743 C 0.8134 0.62207 0.01635 0.0
C1744 C 0.83522 0.59813 0.01107 0.0
C1745 C 0.84179 0.60089 0.02935 0.0
C1746 C 0.83407 0.61452 0.04102 0.0
C1747 C 0.82003 0.62498 0.03459 0.0
H1748 H 0.14497 0.03229 0.0451 0.0
H1749 H 0.12067 0.99259 0.08211 0.0
H1750 H 0.16999 0.01216 0.03816 0.0
H1751 H 0.14513 0.97199 0.07436 0.0
H1752 H 0.2019 0.94714 0.06957 0.0
H1753 H 0.17768 0.96798 0.07811 0.0
H1754 H 0.17497 0.98365 0.02159 0.0
H1755 H 0.19943 0.96335 0.01326 0.0
C1756 C 0.14496 0.0193 0.0518 0.0
C1757 C 0.13071 0.01409 0.06414 0.0
C1758 C 0.15921 0.00761 0.04762 0.0
C1759 C 0.15956 0.99034 0.05559 0.0
C1760 C 0.14543 0.98523 0.06808 0.0
C1761 C 0.13122 0.99696 0.07232 0.0
C1762 C 0.1961 0.95504 0.059 0.0
C1763 C 0.20264 0.95361 0.04076 0.0
C1764 C 0.18216 0.96693 0.06386 0.0
C1765 C 0.17439 0.97761 0.05056 0.0
C1766 C 0.18085 0.97597 0.03229 0.0
C1767 C 0.19481 0.96418 0.02747 0.0
loop_
_geom_bond_atom_site_label_1
_geom_bond_atom_site_label_2
_geom_bond_distance
_geom_bond_site_symmetry_2
_ccdc_geom_bond_type
C0 C1 1.264 . S
C0 C5 1.479 . S
C0 C10 1.465 . S
C1 C0 1.264 . S
C1 C3 1.339 . S
C1 H28 0.931 . S
C2 C3 1.395 . S
C2 C4 1.320 . S
C3 C1 1.339 . S
C3 C2 1.395 . S
C3 H29 0.929 . S
C4 C2 1.320 . S
C4 C5 1.405 . S
C4 H30 0.930 . S
C5 C0 1.479 . S
C5 C4 1.405 . S
C5 H31 0.931 . S
U6 O7 2.454 . S
U6 O8 2.458 . S
U6 C9 2.984 . S
U6 C10 2.847 . S
U6 C23 2.882 . S
U6 O24 2.441 . S
U6 O25 2.420 . S
U6 O26 2.455 . S
U6 O27 2.449 . S
O7 U6 2.454 . S
O7 C9 1.353 . S
O8 U6 2.458 . S
O8 C9 1.286 . S
C9 U6 2.984 . S
C9 O7 1.353 . S
C9 O8 1.286 . S
C9 C11 1.363 . S
C10 C0 1.465 . S
C10 U6 2.847 . S
C10 O24 1.249 . S
C10 O25 1.202 . S
C11 C9 1.363 . S
C11 C13 1.408 . S
C11 C16 1.342 . S
C12 C13 1.310 . S
C12 C15 1.461 . S
C12 H32 0.932 . S
C13 C11 1.408 . S
C13 C12 1.310 . S
C13 H33 0.930 . S
C14 C15 1.474 . S
C14 C16 1.285 . S
C14 H34 0.929 . S
C15 C12 1.461 . S
C15 C14 1.474 . S
C16 C11 1.342 . S
C16 C14 1.285 . S
C16 H35 0.930 . S
C17 C20 1.424 . S
C17 C22 1.245 . S
C17 C23 1.428 . S
C18 C21 1.260 . S
C18 C22 1.477 . S
C18 H36 0.932 . S
C19 C20 1.384 . S
C19 C21 1.479 . S
C19 H37 0.929 . S
C20 C17 1.424 . S
C20 C19 1.384 . S
C20 H38 0.928 . S
C21 C18 1.260 . S
C21 C19 1.479 . S
C22 C17 1.245 . S
C22 C18 1.477 . S
C22 H39 0.932 . S
C23 U6 2.882 . S
C23 C17 1.428 . S
C23 O26 1.301 . S
C23 O27 1.282 . S
O24 U6 2.441 . S
O24 C10 1.249 . S
O25 U6 2.420 . S
O25 C10 1.202 . S
O26 U6 2.455 . S
O26 C23 1.301 . S
O27 U6 2.449 . S
O27 C23 1.282 . S
H28 C1 0.931 . S
H29 C3 0.929 . S
H30 C4 0.930 . S
H31 C5 0.931 . S
H32 C12 0.932 . S
H33 C13 0.930 . S
H34 C14 0.929 . S
H35 C16 0.930 . S
H36 C18 0.932 . S
H37 C19 0.929 . S
H38 C20 0.928 . S
H39 C22 0.932 . S
C40 C41 1.264 . S
C40 C45 1.479 . S
C40 C50 1.465 . S
C41 C40 1.264 . S
C41 C43 1.339 . S
C41 H68 0.931 . S
C42 C43 1.395 . S
C42 C44 1.320 . S
C43 C41 1.339 . S
C43 C42 1.395 . S
C43 H69 0.929 . S
C44 C42 1.320 . S
C44 C45 1.405 . S
C44 H70 0.930 . S
C45 C40 1.479 . S
C45 C44 1.405 . S
C45 H71 0.931 . S
U46 O47 2.454 . S
U46 O48 2.458 . S
U46 C49 2.984 . S
U46 C50 2.847 . S
U46 C63 2.882 . S
U46 O64 2.441 . S
U46 O65 2.420 . S
U46 O66 2.455 . S
U46 O67 2.449 . S
O47 U46 2.454 . S
O47 C49 1.353 . S
O48 U46 2.458 . S
O48 C49 1.286 . S
C49 U46 2.984 . S
C49 O47 1.353 . S
C49 O48 1.286 . S
C49 C51 1.363 . S
C50 C40 1.465 . S
C50 U46 2.847 . S
C50 O64 1.249 . S
C50 O65 1.202 . S
C51 C49 1.363 . S
C51 C53 1.408 . S
C51 C56 1.342 . S
C52 C53 1.310 . S
C52 C55 1.461 . S
C52 H72 0.932 . S
C53 C51 1.408 . S
C53 C52 1.310 . S
C53 H73 0.930 . S
C54 C55 1.474 . S
C54 C56 1.285 . S
C54 H74 0.929 . S
C55 C52 1.461 . S
C55 C54 1.474 . S
C56 C51 1.342 . S
C56 C54 1.285 . S
C56 H75 0.930 . S
C57 C60 1.424 . S
C57 C62 1.245 . S
C57 C63 1.428 . S
C58 C61 1.260 . S
C58 C62 1.477 . S
C58 H76 0.932 . S
C59 C60 1.384 . S
C59 C61 1.479 . S
C59 H77 0.929 . S
C60 C57 1.424 . S
C60 C59 1.384 . S
C60 H78 0.928 . S
C61 C58 1.260 . S
C61 C59 1.479 . S
C62 C57 1.245 . S
C62 C58 1.477 . S
C62 H79 0.932 . S
C63 U46 2.882 . S
C63 C57 1.428 . S
C63 O66 1.301 . S
C63 O67 1.282 . S
O64 U46 2.441 . S
O64 C50 1.249 . S
O65 U46 2.420 . S
O65 C50 1.202 . S
O66 U46 2.455 . S
O66 C63 1.301 . S
O67 U46 2.449 . S
O67 C63 1.282 . S
H68 C41 0.931 . S
H69 C43 0.929 . S
H70 C44 0.930 . S
H71 C45 0.931 . S
H72 C52 0.932 . S
H73 C53 0.930 . S
H74 C54 0.929 . S
H75 C56 0.930 . S
H76 C58 0.932 . S
H77 C59 0.929 . S
H78 C60 0.928 . S
H79 C62 0.932 . S
C80 C81 1.264 . S
C80 C85 1.479 . S
C80 C90 1.465 . S
C81 C80 1.264 . S
C81 C83 1.339 . S
C81 H108 0.931 . S
C82 C83 1.395 . S
C82 C84 1.320 . S
C83 C81 1.339 . S
C83 C82 1.395 . S
C83 H109 0.929 . S
C84 C82 1.320 . S
C84 C85 1.405 . S
C84 H110 0.930 . S
C85 C80 1.479 . S
C85 C84 1.405 . S
C85 H111 0.931 . S
U86 O87 2.454 . S
U86 O88 2.458 . S
U86 C89 2.984 . S
U86 C90 2.847 . S
U86 C103 2.882 . S
U86 O104 2.441 . S
U86 O105 2.420 . S
U86 O106 2.455 . S
U86 O107 2.449 . S
O87 U86 2.454 . S
O87 C89 1.353 . S
O88 U86 2.458 . S
O88 C89 1.286 . S
C89 U86 2.984 . S
C89 O87 1.353 . S
C89 O88 1.286 . S
C89 C91 1.363 . S
C90 C80 1.465 . S
C90 U86 2.847 . S
C90 O104 1.249 . S
C90 O105 1.202 . S
C91 C89 1.363 . S
C91 C93 1.408 . S
C91 C96 1.342 . S
C92 C93 1.310 . S
C92 C95 1.461 . S
C92 H112 0.932 . S
C93 C91 1.408 . S
C93 C92 1.310 . S
C93 H113 0.930 . S
C94 C95 1.474 . S
C94 C96 1.285 . S
C94 H114 0.929 . S
C95 C92 1.461 . S
C95 C94 1.474 . S
C96 C91 1.342 . S
C96 C94 1.285 . S
C96 H115 0.930 . S
C97 C100 1.424 . S
C97 C102 1.245 . S
C97 C103 1.428 . S
C98 C101 1.260 . S
C98 C102 1.477 . S
C98 H116 0.932 . S
C99 C100 1.384 . S
C99 C101 1.479 . S
C99 H117 0.929 . S
C100 C97 1.424 . S
C100 C99 1.384 . S
C100 H118 0.928 . S
C101 C98 1.260 . S
C101 C99 1.479 . S
C102 C97 1.245 . S
C102 C98 1.477 . S
C102 H119 0.932 . S
C103 U86 2.882 . S
C103 C97 1.428 . S
C103 O106 1.301 . S
C103 O107 1.282 . S
O104 U86 2.441 . S
O104 C90 1.249 . S
O105 U86 2.420 . S
O105 C90 1.202 . S
O106 U86 2.455 . S
O106 C103 1.301 . S
O107 U86 2.449 . S
O107 C103 1.282 . S
H108 C81 0.931 . S
H109 C83 0.929 . S
H110 C84 0.930 . S
H111 C85 0.931 . S
H112 C92 0.932 . S
H113 C93 0.930 . S
H114 C94 0.929 . S
H115 C96 0.930 . S
H116 C98 0.932 . S
H117 C99 0.929 . S
H118 C100 0.928 . S
H119 C102 0.932 . S
C120 C121 1.264 . S
C120 C125 1.479 . S
C120 C130 1.465 . S
C121 C120 1.264 . S
C121 C123 1.339 . S
C121 H148 0.931 . S
C122 C123 1.395 . S
C122 C124 1.320 . S
C123 C121 1.339 . S
C123 C122 1.395 . S
C123 H149 0.929 . S
C124 C122 1.320 . S
C124 C125 1.405 . S
C124 H150 0.930 . S
C125 C120 1.479 . S
C125 C124 1.405 . S
C125 H151 0.931 . S
U126 O127 2.454 . S
U126 O128 2.458 . S
U126 C129 2.984 . S
U126 C130 2.847 . S
U126 C143 2.882 . S
U126 O144 2.441 . S
U126 O145 2.420 . S
U126 O146 2.455 . S
U126 O147 2.449 . S
O127 U126 2.454 . S
O127 C129 1.353 . S
O128 U126 2.458 . S
O128 C129 1.286 . S
C129 U126 2.984 . S
C129 O127 1.353 . S
C129 O128 1.286 . S
C129 C131 1.363 . S
C130 C120 1.465 . S
C130 U126 2.847 . S
C130 O144 1.249 . S
C130 O145 1.202 . S
C131 C129 1.363 . S
C131 C133 1.408 . S
C131 C136 1.342 . S
C132 C133 1.310 . S
C132 C135 1.461 . S
C132 H152 0.932 . S
C133 C131 1.408 . S
C133 C132 1.310 . S
C133 H153 0.930 . S
C134 C135 1.474 . S
C134 C136 1.285 . S
C134 H154 0.929 . S
C135 C132 1.461 . S
C135 C134 1.474 . S
C136 C131 1.342 . S
C136 C134 1.285 . S
C136 H155 0.930 . S
C137 C140 1.424 . S
C137 C142 1.245 . S
C137 C143 1.428 . S
C138 C141 1.260 . S
C138 C142 1.477 . S
C138 H156 0.932 . S
C139 C140 1.384 . S
C139 C141 1.479 . S
C139 H157 0.929 . S
C140 C137 1.424 . S
C140 C139 1.384 . S
C140 H158 0.928 . S
C141 C138 1.260 . S
C141 C139 1.479 . S
C142 C137 1.245 . S
C142 C138 1.477 . S
C142 H159 0.932 . S
C143 U126 2.882 . S
C143 C137 1.428 . S
C143 O146 1.301 . S
C143 O147 1.282 . S
O144 U126 2.441 . S
O144 C130 1.249 . S
O145 U126 2.420 . S
O145 C130 1.202 . S
O146 U126 2.455 . S
O146 C143 1.301 . S
O147 U126 2.449 . S
O147 C143 1.282 . S
H148 C121 0.931 . S
H149 C123 0.929 . S
H150 C124 0.930 . S
H151 C125 0.931 . S
H152 C132 0.932 . S
H153 C133 0.930 . S
H154 C134 0.929 . S
H155 C136 0.930 . S
H156 C138 0.932 . S
H157 C139 0.929 . S
H158 C140 0.928 . S
H159 C142 0.932 . S
C160 C161 1.264 . S
C160 C165 1.479 . S
C160 C170 1.465 . S
C161 C160 1.264 . S
C161 C163 1.339 . S
C161 H188 0.931 . S
C162 C163 1.395 . S
C162 C164 1.320 . S
C163 C161 1.339 . S
C163 C162 1.395 . S
C163 H189 0.929 . S
C164 C162 1.320 . S
C164 C165 1.405 . S
C164 H190 0.930 . S
C165 C160 1.479 . S
C165 C164 1.405 . S
C165 H191 0.931 . S
U166 O167 2.454 . S
U166 O168 2.458 . S
U166 C169 2.984 . S
U166 C170 2.847 . S
U166 C183 2.882 . S
U166 O184 2.441 . S
U166 O185 2.420 . S
U166 O186 2.455 . S
U166 O187 2.449 . S
O167 U166 2.454 . S
O167 C169 1.353 . S
O168 U166 2.458 . S
O168 C169 1.286 . S
C169 U166 2.984 . S
C169 O167 1.353 . S
C169 O168 1.286 . S
C169 C171 1.363 . S
C170 C160 1.465 . S
C170 U166 2.847 . S
C170 O184 1.249 . S
C170 O185 1.202 . S
C171 C169 1.363 . S
C171 C173 1.408 . S
C171 C176 1.342 . S
C172 C173 1.310 . S
C172 C175 1.461 . S
C172 H192 0.932 . S
C173 C171 1.408 . S
C173 C172 1.310 . S
C173 H193 0.930 . S
C174 C175 1.474 . S
C174 C176 1.285 . S
C174 H194 0.929 . S
C175 C172 1.461 . S
C175 C174 1.474 . S
C176 C171 1.342 . S
C176 C174 1.285 . S
C176 H195 0.930 . S
C177 C180 1.424 1_565 S
C177 C182 1.245 . S
C177 C183 1.428 . S
C178 C181 1.271 . S
C178 C182 1.469 1_545 S
C178 H196 0.920 1_545 S
C179 C180 1.384 . S
C179 C181 1.479 . S
C179 H197 0.929 . S
C180 C177 1.424 1_545 S
C180 C179 1.384 . S
C180 H198 0.928 . S
C181 C178 1.271 . S
C181 C179 1.479 . S
C182 C177 1.245 . S
C182 C178 1.469 1_565 S
C182 H199 0.932 . S
C183 U166 2.882 . S
C183 C177 1.428 . S
C183 O186 1.301 . S
C183 O187 1.282 . S
O184 U166 2.441 . S
O184 C170 1.249 . S
O185 U166 2.420 . S
O185 C170 1.202 . S
O186 U166 2.455 . S
O186 C183 1.301 . S
O187 U166 2.449 . S
O187 C183 1.282 . S
H188 C161 0.931 . S
H189 C163 0.929 . S
H190 C164 0.930 . S
H191 C165 0.931 . S
H192 C172 0.932 . S
H193 C173 0.930 . S
H194 C174 0.929 . S
H195 C176 0.930 . S
H196 C178 0.920 1_565 S
H197 C179 0.929 . S
H198 C180 0.928 . S
H199 C182 0.932 . S
C200 C201 1.264 . S
C200 C205 1.479 . S
C200 C210 1.465 . S
C201 C200 1.264 . S
C201 C203 1.339 . S
C201 H228 0.931 . S
C202 C203 1.395 . S
C202 C204 1.320 . S
C203 C201 1.339 . S
C203 C202 1.395 . S
C203 H229 0.929 . S
C204 C202 1.320 . S
C204 C205 1.405 . S
C204 H230 0.930 . S
C205 C200 1.479 . S
C205 C204 1.405 . S
C205 H231 0.931 . S
U206 O207 2.454 . S
U206 O208 2.458 . S
U206 C209 2.984 . S
U206 C210 2.847 . S
U206 C223 2.882 . S
U206 O224 2.441 . S
U206 O225 2.420 . S
U206 O226 2.455 . S
U206 O227 2.449 . S
O207 U206 2.454 . S
O207 C209 1.353 . S
O208 U206 2.458 . S
O208 C209 1.286 . S
C209 U206 2.984 . S
C209 O207 1.353 . S
C209 O208 1.286 . S
C209 C211 1.363 . S
C210 C200 1.465 . S
C210 U206 2.847 . S
C210 O224 1.249 . S
C210 O225 1.202 . S
C211 C209 1.363 . S
C211 C213 1.408 . S
C211 C216 1.342 . S
C212 C213 1.310 . S
C212 C215 1.461 . S
C212 H232 0.932 . S
C213 C211 1.408 . S
C213 C212 1.310 . S
C213 H233 0.930 . S
C214 C215 1.474 . S
C214 C216 1.285 . S
C214 H234 0.929 . S
C215 C212 1.461 . S
C215 C214 1.474 . S
C216 C211 1.342 . S
C216 C214 1.285 . S
C216 H235 0.930 . S
C217 C220 1.424 . S
C217 C222 1.245 . S
C217 C223 1.428 . S
C218 C221 1.260 . S
C218 C222 1.477 . S
C218 H236 0.932 . S
C219 C220 1.384 . S
C219 C221 1.479 . S
C219 H237 0.929 . S
C220 C217 1.424 . S
C220 C219 1.384 . S
C220 H238 0.928 . S
C221 C218 1.260 . S
C221 C219 1.479 . S
C222 C217 1.245 . S
C222 C218 1.477 . S
C222 H239 0.932 . S
C223 U206 2.882 . S
C223 C217 1.428 . S
C223 O226 1.301 . S
C223 O227 1.282 . S
O224 U206 2.441 . S
O224 C210 1.249 . S
O225 U206 2.420 . S
O225 C210 1.202 . S
O226 U206 2.455 . S
O226 C223 1.301 . S
O227 U206 2.449 . S
O227 C223 1.282 . S
H228 C201 0.931 . S
H229 C203 0.929 . S
H230 C204 0.930 . S
H231 C205 0.931 . S
H232 C212 0.932 . S
H233 C213 0.930 . S
H234 C214 0.929 . S
H235 C216 0.930 . S
H236 C218 0.932 . S
H237 C219 0.929 . S
H238 C220 0.928 . S
H239 C222 0.932 . S
C240 C241 1.264 . S
C240 C245 1.479 . S
C240 C250 1.465 . S
C241 C240 1.264 . S
C241 C243 1.339 . S
C241 H268 0.931 . S
C242 C243 1.395 . S
C242 C244 1.320 . S
C243 C241 1.339 . S
C243 C242 1.395 . S
C243 H269 0.929 . S
C244 C242 1.320 . S
C244 C245 1.405 . S
C244 H270 0.930 . S
C245 C240 1.479 . S
C245 C244 1.405 . S
C245 H271 0.931 . S
U246 O247 2.454 . S
U246 O248 2.458 . S
U246 C249 2.984 . S
U246 C250 2.847 . S
U246 C263 2.882 . S
U246 O264 2.441 . S
U246 O265 2.420 . S
U246 O266 2.455 . S
U246 O267 2.449 . S
O247 U246 2.454 . S
O247 C249 1.353 . S
O248 U246 2.458 . S
O248 C249 1.286 . S
C249 U246 2.984 . S
C249 O247 1.353 . S
C249 O248 1.286 . S
C249 C251 1.363 . S
C250 C240 1.465 . S
C250 U246 2.847 . S
C250 O264 1.249 . S
C250 O265 1.202 . S
C251 C249 1.363 . S
C251 C253 1.408 . S
C251 C256 1.342 . S
C252 C253 1.310 . S
C252 C255 1.461 . S
C252 H272 0.932 . S
C253 C251 1.408 . S
C253 C252 1.310 . S
C253 H273 0.930 . S
C254 C255 1.474 . S
C254 C256 1.285 . S
C254 H274 0.929 . S
C255 C252 1.461 . S
C255 C254 1.474 . S
C256 C251 1.342 . S
C256 C254 1.285 . S
C256 H275 0.930 . S
C257 C260 1.424 . S
C257 C262 1.245 . S
C257 C263 1.428 . S
C258 C261 1.260 . S
C258 C262 1.477 . S
C258 H276 0.932 . S
C259 C260 1.384 . S
C259 C261 1.479 . S
C259 H277 0.929 . S
C260 C257 1.424 . S
C260 C259 1.384 . S
C260 H278 0.928 . S
C261 C258 1.260 . S
C261 C259 1.479 . S
C262 C257 1.245 . S
C262 C258 1.477 . S
C262 H279 0.932 . S
C263 U246 2.882 . S
C263 C257 1.428 . S
C263 O266 1.301 . S
C263 O267 1.282 . S
O264 U246 2.441 . S
O264 C250 1.249 . S
O265 U246 2.420 . S
O265 C250 1.202 . S
O266 U246 2.455 . S
O266 C263 1.301 . S
O267 U246 2.449 . S
O267 C263 1.282 . S
H268 C241 0.931 . S
H269 C243 0.929 . S
H270 C244 0.930 . S
H271 C245 0.931 . S
H272 C252 0.932 . S
H273 C253 0.930 . S
H274 C254 0.929 . S
H275 C256 0.930 . S
H276 C258 0.932 . S
H277 C259 0.929 . S
H278 C260 0.928 . S
H279 C262 0.932 . S
C280 C281 1.264 . S
C280 C285 1.479 . S
C280 C290 1.465 . S
C281 C280 1.264 . S
C281 C283 1.339 . S
C281 H308 0.931 . S
C282 C283 1.395 . S
C282 C284 1.320 . S
C283 C281 1.339 . S
C283 C282 1.395 . S
C283 H309 0.929 . S
C284 C282 1.320 . S
C284 C285 1.405 . S
C284 H310 0.930 . S
C285 C280 1.479 . S
C285 C284 1.405 . S
C285 H311 0.931 . S
U286 O287 2.454 . S
U286 O288 2.458 . S
U286 C289 2.984 . S
U286 C290 2.847 . S
U286 C303 2.882 . S
U286 O304 2.441 . S
U286 O305 2.420 . S
U286 O306 2.455 . S
U286 O307 2.449 . S
O287 U286 2.454 . S
O287 C289 1.353 . S
O288 U286 2.458 . S
O288 C289 1.286 . S
C289 U286 2.984 . S
C289 O287 1.353 . S
C289 O288 1.286 . S
C289 C291 1.363 . S
C290 C280 1.465 . S
C290 U286 2.847 . S
C290 O304 1.249 . S
C290 O305 1.202 . S
C291 C289 1.363 . S
C291 C293 1.408 . S
C291 C296 1.342 . S
C292 C293 1.310 . S
C292 C295 1.461 . S
C292 H312 0.932 . S
C293 C291 1.408 . S
C293 C292 1.310 . S
C293 H313 0.930 . S
C294 C295 1.474 . S
C294 C296 1.285 . S
C294 H314 0.929 . S
C295 C292 1.461 . S
C295 C294 1.474 . S
C296 C291 1.342 . S
C296 C294 1.285 . S
C296 H315 0.930 . S
C297 C300 1.424 . S
C297 C302 1.245 . S
C297 C303 1.428 . S
C298 C301 1.260 . S
C298 C302 1.477 . S
C298 H316 0.932 . S
C299 C300 1.384 . S
C299 C301 1.479 . S
C299 H317 0.929 . S
C300 C297 1.424 . S
C300 C299 1.384 . S
C300 H318 0.928 . S
C301 C298 1.260 . S
C301 C299 1.479 . S
C302 C297 1.245 . S
C302 C298 1.477 . S
C302 H319 0.932 . S
C303 U286 2.882 . S
C303 C297 1.428 . S
C303 O306 1.301 . S
C303 O307 1.282 . S
O304 U286 2.441 . S
O304 C290 1.249 . S
O305 U286 2.420 . S
O305 C290 1.202 . S
O306 U286 2.455 . S
O306 C303 1.301 . S
O307 U286 2.449 . S
O307 C303 1.282 . S
H308 C281 0.931 . S
H309 C283 0.929 . S
H310 C284 0.930 . S
H311 C285 0.931 . S
H312 C292 0.932 . S
H313 C293 0.930 . S
H314 C294 0.929 . S
H315 C296 0.930 . S
H316 C298 0.932 . S
H317 C299 0.929 . S
H318 C300 0.928 . S
H319 C302 0.932 . S
C320 C321 1.264 . S
C320 C325 1.479 . S
C320 C330 1.465 . S
C321 C320 1.264 . S
C321 C323 1.339 . S
C321 H348 0.931 . S
C322 C323 1.395 . S
C322 C324 1.320 . S
C323 C321 1.339 . S
C323 C322 1.395 . S
C323 H349 0.929 . S
C324 C322 1.320 . S
C324 C325 1.405 . S
C324 H350 0.930 . S
C325 C320 1.479 . S
C325 C324 1.405 . S
C325 H351 0.931 . S
U326 O327 2.454 . S
U326 O328 2.458 . S
U326 C329 2.984 . S
U326 C330 2.847 . S
U326 C343 2.882 . S
U326 O344 2.441 . S
U326 O345 2.420 . S
U326 O346 2.455 . S
U326 O347 2.449 . S
O327 U326 2.454 . S
O327 C329 1.353 . S
O328 U326 2.458 . S
O328 C329 1.286 . S
C329 U326 2.984 . S
C329 O327 1.353 . S
C329 O328 1.286 . S
C329 C331 1.363 . S
C330 C320 1.465 . S
C330 U326 2.847 . S
C330 O344 1.249 . S
C330 O345 1.202 . S
C331 C329 1.363 . S
C331 C333 1.408 . S
C331 C336 1.342 . S
C332 C333 1.310 . S
C332 C335 1.461 . S
C332 H352 0.932 . S
C333 C331 1.408 . S
C333 C332 1.310 . S
C333 H353 0.930 . S
C334 C335 1.474 . S
C334 C336 1.285 . S
C334 H354 0.929 . S
C335 C332 1.461 . S
C335 C334 1.474 . S
C336 C331 1.342 . S
C336 C334 1.285 . S
C336 H355 0.930 . S
C337 C340 1.424 . S
C337 C342 1.245 . S
C337 C343 1.428 . S
C338 C341 1.260 . S
C338 C342 1.477 . S
C338 H356 0.932 . S
C339 C340 1.384 . S
C339 C341 1.479 . S
C339 H357 0.929 . S
C340 C337 1.424 . S
C340 C339 1.384 . S
C340 H358 0.928 . S
C341 C338 1.260 . S
C341 C339 1.479 . S
C342 C337 1.245 . S
C342 C338 1.477 . S
C342 H359 0.932 . S
C343 U326 2.882 . S
C343 C337 1.428 . S
C343 O346 1.301 . S
C343 O347 1.282 . S
O344 U326 2.441 . S
O344 C330 1.249 . S
O345 U326 2.420 . S
O345 C330 1.202 . S
O346 U326 2.455 . S
O346 C343 1.301 . S
O347 U326 2.449 . S
O347 C343 1.282 . S
H348 C321 0.931 . S
H349 C323 0.929 . S
H350 C324 0.930 . S
H351 C325 0.931 . S
H352 C332 0.932 . S
H353 C333 0.930 . S
H354 C334 0.929 . S
H355 C336 0.930 . S
H356 C338 0.932 . S
H357 C339 0.929 . S
H358 C340 0.928 . S
H359 C342 0.932 . S
C360 C361 1.264 . S
C360 C365 1.479 . S
C360 C370 1.465 . S
C361 C360 1.264 . S
C361 C363 1.339 . S
C361 H388 0.931 . S
C362 C363 1.395 . S
C362 C364 1.320 . S
C363 C361 1.339 . S
C363 C362 1.395 . S
C363 H389 0.929 . S
C364 C362 1.320 . S
C364 C365 1.405 . S
C364 H390 0.930 . S
C365 C360 1.479 . S
C365 C364 1.405 . S
C365 H391 0.931 . S
U366 O367 2.454 . S
U366 O368 2.458 . S
U366 C369 2.984 . S
U366 C370 2.847 . S
U366 C383 2.882 . S
U366 O384 2.441 . S
U366 O385 2.420 . S
U366 O386 2.455 . S
U366 O387 2.449 . S
O367 U366 2.454 . S
O367 C369 1.353 . S
O368 U366 2.458 . S
O368 C369 1.286 . S
C369 U366 2.984 . S
C369 O367 1.353 . S
C369 O368 1.286 . S
C369 C371 1.363 . S
C370 C360 1.465 . S
C370 U366 2.847 . S
C370 O384 1.249 . S
C370 O385 1.202 . S
C371 C369 1.363 . S
C371 C373 1.408 . S
C371 C376 1.342 . S
C372 C373 1.310 . S
C372 C375 1.461 . S
C372 H392 0.932 . S
C373 C371 1.408 . S
C373 C372 1.310 . S
C373 H393 0.930 . S
C374 C375 1.474 . S
C374 C376 1.285 . S
C374 H394 0.929 . S
C375 C372 1.461 . S
C375 C374 1.474 . S
C376 C371 1.342 . S
C376 C374 1.285 . S
C376 H395 0.930 . S
C377 C380 1.424 . S
C377 C382 1.245 . S
C377 C383 1.428 . S
C378 C381 1.260 . S
C378 C382 1.477 . S
C378 H396 0.932 . S
C379 C380 1.384 . S
C379 C381 1.479 . S
C379 H397 0.929 . S
C380 C377 1.424 . S
C380 C379 1.384 . S
C380 H398 0.928 . S
C381 C378 1.260 . S
C381 C379 1.479 . S
C382 C377 1.245 . S
C382 C378 1.477 . S
C382 H399 0.932 . S
C383 U366 2.882 . S
C383 C377 1.428 . S
C383 O386 1.301 . S
C383 O387 1.282 . S
O384 U366 2.441 . S
O384 C370 1.249 . S
O385 U366 2.420 . S
O385 C370 1.202 . S
O386 U366 2.455 . S
O386 C383 1.301 . S
O387 U366 2.449 . S
O387 C383 1.282 . S
H388 C361 0.931 . S
H389 C363 0.929 . S
H390 C364 0.930 . S
H391 C365 0.931 . S
H392 C372 0.932 . S
H393 C373 0.930 . S
H394 C374 0.929 . S
H395 C376 0.930 . S
H396 C378 0.932 . S
H397 C379 0.929 . S
H398 C380 0.928 . S
H399 C382 0.932 . S
C400 C401 1.264 . S
C400 C405 1.479 . S
C400 C410 1.465 . S
C401 C400 1.264 . S
C401 C403 1.339 . S
C401 H428 0.931 . S
C402 C403 1.395 . S
C402 C404 1.320 . S
C403 C401 1.339 . S
C403 C402 1.395 . S
C403 H429 0.929 . S
C404 C402 1.320 . S
C404 C405 1.405 . S
C404 H430 0.930 . S
C405 C400 1.479 . S
C405 C404 1.405 . S
C405 H431 0.931 . S
U406 O407 2.454 . S
U406 O408 2.458 . S
U406 C409 2.984 . S
U406 C410 2.847 . S
U406 C423 2.882 . S
U406 O424 2.441 . S
U406 O425 2.420 . S
U406 O426 2.455 . S
U406 O427 2.449 . S
O407 U406 2.454 . S
O407 C409 1.353 . S
O408 U406 2.458 . S
O408 C409 1.286 . S
C409 U406 2.984 . S
C409 O407 1.353 . S
C409 O408 1.286 . S
C409 C411 1.363 . S
C410 C400 1.465 . S
C410 U406 2.847 . S
C410 O424 1.249 . S
C410 O425 1.202 . S
C411 C409 1.363 . S
C411 C413 1.408 . S
C411 C416 1.342 . S
C412 C413 1.310 . S
C412 C415 1.461 . S
C412 H432 0.932 . S
C413 C411 1.408 . S
C413 C412 1.310 . S
C413 H433 0.930 . S
C414 C415 1.474 . S
C414 C416 1.285 . S
C414 H434 0.929 . S
C415 C412 1.461 . S
C415 C414 1.474 . S
C416 C411 1.342 . S
C416 C414 1.285 . S
C416 H435 0.930 . S
C417 C420 1.424 . S
C417 C422 1.245 . S
C417 C423 1.428 . S
C418 C421 1.260 . S
C418 C422 1.477 . S
C418 H436 0.932 . S
C419 C420 1.384 . S
C419 C421 1.479 . S
C419 H437 0.929 . S
C420 C417 1.424 . S
C420 C419 1.384 . S
C420 H438 0.928 . S
C421 C418 1.260 . S
C421 C419 1.479 . S
C422 C417 1.245 . S
C422 C418 1.477 . S
C422 H439 0.932 . S
C423 U406 2.882 . S
C423 C417 1.428 . S
C423 O426 1.301 . S
C423 O427 1.282 . S
O424 U406 2.441 . S
O424 C410 1.249 . S
O425 U406 2.420 . S
O425 C410 1.202 . S
O426 U406 2.455 . S
O426 C423 1.301 . S
O427 U406 2.449 . S
O427 C423 1.282 . S
H428 C401 0.931 . S
H429 C403 0.929 . S
H430 C404 0.930 . S
H431 C405 0.931 . S
H432 C412 0.932 . S
H433 C413 0.930 . S
H434 C414 0.929 . S
H435 C416 0.930 . S
H436 C418 0.932 . S
H437 C419 0.929 . S
H438 C420 0.928 . S
H439 C422 0.932 . S
C440 C441 1.264 . S
C440 C445 1.479 . S
C440 C450 1.465 . S
C441 C440 1.264 . S
C441 C443 1.339 . S
C441 H468 0.931 . S
C442 C443 1.395 . S
C442 C444 1.320 . S
C443 C441 1.339 . S
C443 C442 1.395 . S
C443 H469 0.929 . S
C444 C442 1.320 . S
C444 C445 1.405 . S
C444 H470 0.930 . S
C445 C440 1.479 . S
C445 C444 1.405 . S
C445 H471 0.931 . S
U446 O447 2.454 . S
U446 O448 2.458 . S
U446 C449 2.984 . S
U446 C450 2.847 . S
U446 C463 2.882 . S
U446 O464 2.441 . S
U446 O465 2.420 . S
U446 O466 2.455 . S
U446 O467 2.449 . S
O447 U446 2.454 . S
O447 C449 1.353 . S
O448 U446 2.458 . S
O448 C449 1.286 . S
C449 U446 2.984 . S
C449 O447 1.353 . S
C449 O448 1.286 . S
C449 C451 1.363 . S
C450 C440 1.465 . S
C450 U446 2.847 . S
C450 O464 1.249 . S
C450 O465 1.202 . S
C451 C449 1.363 . S
C451 C453 1.408 . S
C451 C456 1.342 . S
C452 C453 1.310 . S
C452 C455 1.461 . S
C452 H472 0.932 . S
C453 C451 1.408 . S
C453 C452 1.310 . S
C453 H473 0.930 . S
C454 C455 1.474 . S
C454 C456 1.285 . S
C454 H474 0.929 . S
C455 C452 1.461 . S
C455 C454 1.474 . S
C456 C451 1.342 . S
C456 C454 1.285 . S
C456 H475 0.930 . S
C457 C460 1.424 . S
C457 C462 1.245 . S
C457 C463 1.428 . S
C458 C461 1.260 . S
C458 C462 1.477 . S
C458 H476 0.932 . S
C459 C460 1.384 . S
C459 C461 1.479 . S
C459 H477 0.929 . S
C460 C457 1.424 . S
C460 C459 1.384 . S
C460 H478 0.928 . S
C461 C458 1.260 . S
C461 C459 1.479 . S
C462 C457 1.245 . S
C462 C458 1.477 . S
C462 H479 0.932 . S
C463 U446 2.882 . S
C463 C457 1.428 . S
C463 O466 1.301 . S
C463 O467 1.282 . S
O464 U446 2.441 . S
O464 C450 1.249 . S
O465 U446 2.420 . S
O465 C450 1.202 . S
O466 U446 2.455 . S
O466 C463 1.301 . S
O467 U446 2.449 . S
O467 C463 1.282 . S
H468 C441 0.931 . S
H469 C443 0.929 . S
H470 C444 0.930 . S
H471 C445 0.931 . S
H472 C452 0.932 . S
H473 C453 0.930 . S
H474 C454 0.929 . S
H475 C456 0.930 . S
H476 C458 0.932 . S
H477 C459 0.929 . S
H478 C460 0.928 . S
H479 C462 0.932 . S
C480 C481 1.264 . S
C480 C485 1.479 . S
C480 C490 1.465 . S
C481 C480 1.264 . S
C481 C483 1.339 . S
C481 H508 0.931 . S
C482 C483 1.395 . S
C482 C484 1.320 . S
C483 C481 1.339 . S
C483 C482 1.395 . S
C483 H509 0.929 . S
C484 C482 1.320 . S
C484 C485 1.405 . S
C484 H510 0.930 . S
C485 C480 1.479 . S
C485 C484 1.405 . S
C485 H511 0.931 . S
U486 O487 2.454 . S
U486 O488 2.458 . S
U486 C489 2.984 . S
U486 C490 2.847 . S
U486 C503 2.882 . S
U486 O504 2.441 . S
U486 O505 2.420 . S
U486 O506 2.455 . S
U486 O507 2.449 . S
O487 U486 2.454 . S
O487 C489 1.353 . S
O488 U486 2.458 . S
O488 C489 1.286 . S
C489 U486 2.984 . S
C489 O487 1.353 . S
C489 O488 1.286 . S
C489 C491 1.363 . S
C490 C480 1.465 . S
C490 U486 2.847 . S
C490 O504 1.249 . S
C490 O505 1.202 . S
C491 C489 1.363 . S
C491 C493 1.408 . S
C491 C496 1.342 . S
C492 C493 1.310 . S
C492 C495 1.461 . S
C492 H512 0.932 . S
C493 C491 1.408 . S
C493 C492 1.310 . S
C493 H513 0.930 . S
C494 C495 1.474 . S
C494 C496 1.285 . S
C494 H514 0.929 . S
C495 C492 1.461 . S
C495 C494 1.474 . S
C496 C491 1.342 . S
C496 C494 1.285 . S
C496 H515 0.930 . S
C497 C500 1.424 . S
C497 C502 1.245 . S
C497 C503 1.428 . S
C498 C501 1.260 . S
C498 C502 1.477 . S
C498 H516 0.932 . S
C499 C500 1.384 . S
C499 C501 1.479 . S
C499 H517 0.929 . S
C500 C497 1.424 . S
C500 C499 1.384 . S
C500 H518 0.928 . S
C501 C498 1.260 . S
C501 C499 1.479 . S
C502 C497 1.245 . S
C502 C498 1.477 . S
C502 H519 0.932 . S
C503 U486 2.882 . S
C503 C497 1.428 . S
C503 O506 1.301 . S
C503 O507 1.282 . S
O504 U486 2.441 . S
O504 C490 1.249 . S
O505 U486 2.420 . S
O505 C490 1.202 . S
O506 U486 2.455 . S
O506 C503 1.301 . S
O507 U486 2.449 . S
O507 C503 1.282 . S
H508 C481 0.931 . S
H509 C483 0.929 . S
H510 C484 0.930 . S
H511 C485 0.931 . S
H512 C492 0.932 . S
H513 C493 0.930 . S
H514 C494 0.929 . S
H515 C496 0.930 . S
H516 C498 0.932 . S
H517 C499 0.929 . S
H518 C500 0.928 . S
H519 C502 0.932 . S
C520 C521 1.264 . S
C520 C525 1.479 . S
C520 C530 1.465 . S
C521 C520 1.264 . S
C521 C523 1.339 . S
C521 H548 0.931 . S
C522 C523 1.395 . S
C522 C524 1.320 . S
C523 C521 1.339 . S
C523 C522 1.395 . S
C523 H549 0.929 . S
C524 C522 1.320 . S
C524 C525 1.405 . S
C524 H550 0.930 . S
C525 C520 1.479 . S
C525 C524 1.405 . S
C525 H551 0.931 . S
U526 O527 2.454 . S
U526 O528 2.458 . S
U526 C529 2.984 . S
U526 C530 2.847 . S
U526 C543 2.882 . S
U526 O544 2.441 . S
U526 O545 2.420 . S
U526 O546 2.455 . S
U526 O547 2.449 . S
O527 U526 2.454 . S
O527 C529 1.353 . S
O528 U526 2.458 . S
O528 C529 1.286 . S
C529 U526 2.984 . S
C529 O527 1.353 . S
C529 O528 1.286 . S
C529 C531 1.363 . S
C530 C520 1.465 . S
C530 U526 2.847 . S
C530 O544 1.249 . S
C530 O545 1.202 . S
C531 C529 1.363 . S
C531 C533 1.408 . S
C531 C536 1.342 . S
C532 C533 1.310 . S
C532 C535 1.461 . S
C532 H552 0.932 . S
C533 C531 1.408 . S
C533 C532 1.310 . S
C533 H553 0.930 . S
C534 C535 1.474 . S
C534 C536 1.285 . S
C534 H554 0.929 . S
C535 C532 1.461 . S
C535 C534 1.474 . S
C536 C531 1.342 . S
C536 C534 1.285 . S
C536 H555 0.930 . S
C537 C540 1.424 . S
C537 C542 1.245 . S
C537 C543 1.428 . S
C538 C541 1.260 . S
C538 C542 1.477 . S
C538 H556 0.932 . S
C539 C540 1.384 . S
C539 C541 1.479 . S
C539 H557 0.929 . S
C540 C537 1.424 . S
C540 C539 1.384 . S
C540 H558 0.928 . S
C541 C538 1.260 . S
C541 C539 1.479 . S
C542 C537 1.245 . S
C542 C538 1.477 . S
C542 H559 0.932 . S
C543 U526 2.882 . S
C543 C537 1.428 . S
C543 O546 1.301 . S
C543 O547 1.282 . S
O544 U526 2.441 . S
O544 C530 1.249 . S
O545 U526 2.420 . S
O545 C530 1.202 . S
O546 U526 2.455 . S
O546 C543 1.301 . S
O547 U526 2.449 . S
O547 C543 1.282 . S
H548 C521 0.931 . S
H549 C523 0.929 . S
H550 C524 0.930 . S
H551 C525 0.931 . S
H552 C532 0.932 . S
H553 C533 0.930 . S
H554 C534 0.929 . S
H555 C536 0.930 . S
H556 C538 0.932 . S
H557 C539 0.929 . S
H558 C540 0.928 . S
H559 C542 0.932 . S
C560 C561 1.264 . S
C560 C565 1.479 . S
C560 C570 1.465 . S
C561 C560 1.264 . S
C561 C563 1.339 . S
C561 H588 0.931 . S
C562 C563 1.395 . S
C562 C564 1.320 . S
C563 C561 1.339 . S
C563 C562 1.395 . S
C563 H589 0.929 . S
C564 C562 1.320 . S
C564 C565 1.405 . S
C564 H590 0.930 . S
C565 C560 1.479 . S
C565 C564 1.405 . S
C565 H591 0.931 . S
U566 O567 2.454 . S
U566 O568 2.458 . S
U566 C569 2.984 . S
U566 C570 2.847 . S
U566 C583 2.882 . S
U566 O584 2.441 . S
U566 O585 2.420 . S
U566 O586 2.455 . S
U566 O587 2.449 . S
O567 U566 2.454 . S
O567 C569 1.353 . S
O568 U566 2.458 . S
O568 C569 1.286 . S
C569 U566 2.984 . S
C569 O567 1.353 . S
C569 O568 1.286 . S
C569 C571 1.363 . S
C570 C560 1.465 . S
C570 U566 2.847 . S
C570 O584 1.249 . S
C570 O585 1.202 . S
C571 C569 1.363 . S
C571 C573 1.408 . S
C571 C576 1.342 . S
C572 C573 1.310 . S
C572 C575 1.461 . S
C572 H592 0.932 . S
C573 C571 1.408 . S
C573 C572 1.310 . S
C573 H593 0.930 . S
C574 C575 1.474 . S
C574 C576 1.285 . S
C574 H594 0.929 . S
C575 C572 1.461 . S
C575 C574 1.474 . S
C576 C571 1.342 . S
C576 C574 1.285 . S
C576 H595 0.930 . S
C577 C580 1.424 . S
C577 C582 1.245 . S
C577 C583 1.428 . S
C578 C581 1.260 . S
C578 C582 1.477 . S
C578 H596 0.932 . S
C579 C580 1.384 . S
C579 C581 1.479 . S
C579 H597 0.929 . S
C580 C577 1.424 . S
C580 C579 1.384 . S
C580 H598 0.928 . S
C581 C578 1.260 . S
C581 C579 1.479 . S
C582 C577 1.245 . S
C582 C578 1.477 . S
C582 H599 0.932 . S
C583 U566 2.882 . S
C583 C577 1.428 . S
C583 O586 1.301 . S
C583 O587 1.282 . S
O584 U566 2.441 . S
O584 C570 1.249 . S
O585 U566 2.420 . S
O585 C570 1.202 . S
O586 U566 2.455 . S
O586 C583 1.301 . S
O587 U566 2.449 . S
O587 C583 1.282 . S
H588 C561 0.931 . S
H589 C563 0.929 . S
H590 C564 0.930 . S
H591 C565 0.931 . S
H592 C572 0.932 . S
H593 C573 0.930 . S
H594 C574 0.929 . S
H595 C576 0.930 . S
H596 C578 0.932 . S
H597 C579 0.929 . S
H598 C580 0.928 . S
H599 C582 0.932 . S
C600 C601 1.264 . S
C600 C605 1.479 . S
C600 C610 1.465 . S
C601 C600 1.264 . S
C601 C603 1.339 . S
C601 H628 0.931 . S
C602 C603 1.395 . S
C602 C604 1.320 . S
C603 C601 1.339 . S
C603 C602 1.395 . S
C603 H629 0.929 . S
C604 C602 1.320 . S
C604 C605 1.405 . S
C604 H630 0.930 1_556 S
C605 C600 1.479 . S
C605 C604 1.405 . S
C605 H631 0.931 . S
U606 O607 2.454 . S
U606 O608 2.458 . S
U606 C609 2.984 . S
U606 C610 2.847 . S
U606 C623 2.882 . S
U606 O624 2.441 . S
U606 O625 2.420 . S
U606 O626 2.455 . S
U606 O627 2.449 . S
O607 U606 2.454 . S
O607 C609 1.353 . S
O608 U606 2.458 . S
O608 C609 1.286 . S
C609 U606 2.984 . S
C609 O607 1.353 . S
C609 O608 1.286 . S
C609 C611 1.363 . S
C610 C600 1.465 . S
C610 U606 2.847 . S
C610 O624 1.249 . S
C610 O625 1.202 . S
C611 C609 1.363 . S
C611 C613 1.408 . S
C611 C616 1.342 . S
C612 C613 1.310 . S
C612 C615 1.461 . S
C612 H632 0.932 . S
C613 C611 1.408 . S
C613 C612 1.310 . S
C613 H633 0.930 . S
C614 C615 1.474 . S
C614 C616 1.285 . S
C614 H634 0.929 . S
C615 C612 1.461 . S
C615 C614 1.474 . S
C616 C611 1.342 . S
C616 C614 1.285 . S
C616 H635 0.930 . S
C617 C620 1.424 . S
C617 C622 1.245 . S
C617 C623 1.428 . S
C618 C621 1.260 . S
C618 C622 1.477 . S
C618 H636 0.932 . S
C619 C620 1.384 . S
C619 C621 1.479 . S
C619 H637 0.929 . S
C620 C617 1.424 . S
C620 C619 1.384 . S
C620 H638 0.928 . S
C621 C618 1.260 . S
C621 C619 1.479 . S
C622 C617 1.245 . S
C622 C618 1.477 . S
C622 H639 0.932 . S
C623 U606 2.882 . S
C623 C617 1.428 . S
C623 O626 1.301 . S
C623 O627 1.282 . S
O624 U606 2.441 . S
O624 C610 1.249 . S
O625 U606 2.420 . S
O625 C610 1.202 . S
O626 U606 2.455 . S
O626 C623 1.301 . S
O627 U606 2.449 . S
O627 C623 1.282 . S
H628 C601 0.931 . S
H629 C603 0.929 . S
H630 C604 0.930 1_554 S
H631 C605 0.931 . S
H632 C612 0.932 . S
H633 C613 0.930 . S
H634 C614 0.929 . S
H635 C616 0.930 . S
H636 C618 0.932 . S
H637 C619 0.929 . S
H638 C620 0.928 . S
H639 C622 0.932 . S
O640 Cd641 2.223 . S
O640 C648 1.315 . S
Cd641 O640 2.223 . S
Cd641 O644 2.297 . S
Cd641 O645 2.439 . S
Cd641 O651 2.240 . S
Cd642 O643 2.240 . S
Cd642 O650 2.223 . S
Cd642 O652 2.297 . S
Cd642 O653 2.439 . S
O643 Cd642 2.240 . S
O643 C648 1.279 . S
O644 Cd641 2.297 . S
O644 C646 1.247 . S
O645 Cd641 2.439 . S
O645 C646 1.208 . S
C646 O644 1.247 . S
C646 O645 1.208 . S
C647 O652 1.247 . S
C647 O653 1.208 . S
C648 O640 1.315 . S
C648 O643 1.279 . S
C649 O650 1.315 . S
C649 O651 1.279 . S
O650 Cd642 2.223 . S
O650 C649 1.315 . S
O651 Cd641 2.240 . S
O651 C649 1.279 . S
O652 Cd642 2.297 . S
O652 C647 1.247 . S
O653 Cd642 2.439 . S
O653 C647 1.208 . S
O654 Cd655 2.223 . S
O654 C662 1.315 . S
Cd655 O654 2.223 . S
Cd655 O658 2.297 . S
Cd655 O659 2.439 . S
Cd655 O665 2.240 . S
Cd656 O657 2.240 . S
Cd656 O664 2.223 . S
Cd656 O666 2.297 . S
Cd656 O667 2.439 . S
O657 Cd656 2.240 . S
O657 C662 1.279 . S
O658 Cd655 2.297 . S
O658 C660 1.247 . S
O659 Cd655 2.439 . S
O659 C660 1.208 . S
C660 O658 1.247 . S
C660 O659 1.208 . S
C661 O666 1.247 . S
C661 O667 1.208 . S
C662 O654 1.315 . S
C662 O657 1.279 . S
C663 O664 1.315 . S
C663 O665 1.279 . S
O664 Cd656 2.223 . S
O664 C663 1.315 . S
O665 Cd655 2.240 . S
O665 C663 1.279 . S
O666 Cd656 2.297 . S
O666 C661 1.247 . S
O667 Cd656 2.439 . S
O667 C661 1.208 . S
O668 Cd669 2.223 1_556 S
O668 C676 1.315 . S
Cd669 O668 2.223 1_554 S
Cd669 O672 2.297 . S
Cd669 O673 2.439 . S
Cd669 O679 2.240 . S
Cd670 O671 2.240 . S
Cd670 O678 2.223 . S
Cd670 O680 2.297 1_556 S
Cd670 O681 2.439 1_556 S
O671 Cd670 2.240 . S
O671 C676 1.279 . S
O672 Cd669 2.297 . S
O672 C674 1.247 . S
O673 Cd669 2.439 . S
O673 C674 1.208 . S
C674 O672 1.247 . S
C674 O673 1.208 . S
C675 O680 1.247 . S
C675 O681 1.208 . S
C676 O668 1.315 . S
C676 O671 1.279 . S
C677 O678 1.315 . S
C677 O679 1.279 1_556 S
O678 Cd670 2.223 . S
O678 C677 1.315 . S
O679 Cd669 2.240 . S
O679 C677 1.279 1_554 S
O680 Cd670 2.297 1_554 S
O680 C675 1.247 . S
O681 Cd670 2.439 1_554 S
O681 C675 1.208 . S
O682 Cd683 2.223 . S
O682 C690 1.315 . S
Cd683 O682 2.223 . S
Cd683 O686 2.297 . S
Cd683 O687 2.439 . S
Cd683 O693 2.240 . S
Cd684 O685 2.240 . S
Cd684 O692 2.223 . S
Cd684 O694 2.297 . S
Cd684 O695 2.439 . S
O685 Cd684 2.240 . S
O685 C690 1.279 . S
O686 Cd683 2.297 . S
O686 C688 1.247 . S
O687 Cd683 2.439 . S
O687 C688 1.208 . S
C688 O686 1.247 . S
C688 O687 1.208 . S
C689 O694 1.247 . S
C689 O695 1.208 . S
C690 O682 1.315 . S
C690 O685 1.279 . S
C691 O692 1.315 . S
C691 O693 1.279 . S
O692 Cd684 2.223 . S
O692 C691 1.315 . S
O693 Cd683 2.240 . S
O693 C691 1.279 . S
O694 Cd684 2.297 . S
O694 C689 1.247 . S
O695 Cd684 2.439 . S
O695 C689 1.208 . S
O696 Cd697 2.223 . S
O696 C704 1.315 . S
Cd697 O696 2.223 . S
Cd697 O700 2.297 . S
Cd697 O701 2.439 . S
Cd697 O707 2.240 . S
Cd698 O699 2.240 . S
Cd698 O706 2.223 . S
Cd698 O708 2.297 . S
Cd698 O709 2.439 . S
O699 Cd698 2.240 . S
O699 C704 1.279 . S
O700 Cd697 2.297 . S
O700 C702 1.247 . S
O701 Cd697 2.439 . S
O701 C702 1.208 . S
C702 O700 1.247 . S
C702 O701 1.208 . S
C703 O708 1.247 . S
C703 O709 1.208 . S
C704 O696 1.315 . S
C704 O699 1.279 . S
C705 O706 1.315 . S
C705 O707 1.279 . S
O706 Cd698 2.223 . S
O706 C705 1.315 . S
O707 Cd697 2.240 . S
O707 C705 1.279 . S
O708 Cd698 2.297 . S
O708 C703 1.247 . S
O709 Cd698 2.439 . S
O709 C703 1.208 . S
O710 Cd711 2.223 . S
O710 C718 1.315 . S
Cd711 O710 2.223 . S
Cd711 O714 2.297 . S
Cd711 O715 2.439 . S
Cd711 O721 2.240 . S
Cd712 O713 2.240 . S
Cd712 O720 2.223 . S
Cd712 O722 2.297 . S
Cd712 O723 2.439 . S
O713 Cd712 2.240 . S
O713 C718 1.279 . S
O714 Cd711 2.297 . S
O714 C716 1.247 . S
O715 Cd711 2.439 . S
O715 C716 1.208 . S
C716 O714 1.247 . S
C716 O715 1.208 . S
C717 O722 1.247 . S
C717 O723 1.208 . S
C718 O710 1.315 . S
C718 O713 1.279 . S
C719 O720 1.315 . S
C719 O721 1.279 . S
O720 Cd712 2.223 . S
O720 C719 1.315 . S
O721 Cd711 2.240 . S
O721 C719 1.279 . S
O722 Cd712 2.297 . S
O722 C717 1.247 . S
O723 Cd712 2.439 . S
O723 C717 1.208 . S
O724 Cd725 2.223 . S
O724 C732 1.315 . S
Cd725 O724 2.223 . S
Cd725 O728 2.297 . S
Cd725 O729 2.439 . S
Cd725 O735 2.240 . S
Cd726 O727 2.240 . S
Cd726 O734 2.223 . S
Cd726 O736 2.297 . S
Cd726 O737 2.439 . S
O727 Cd726 2.240 . S
O727 C732 1.279 . S
O728 Cd725 2.297 . S
O728 C730 1.247 . S
O729 Cd725 2.439 . S
O729 C730 1.208 . S
C730 O728 1.247 . S
C730 O729 1.208 . S
C731 O736 1.247 . S
C731 O737 1.208 . S
C732 O724 1.315 . S
C732 O727 1.279 . S
C733 O734 1.315 . S
C733 O735 1.279 . S
O734 Cd726 2.223 . S
O734 C733 1.315 . S
O735 Cd725 2.240 . S
O735 C733 1.279 . S
O736 Cd726 2.297 . S
O736 C731 1.247 . S
O737 Cd726 2.439 . S
O737 C731 1.208 . S
O738 Cd739 2.223 1_545 S
O738 C746 1.315 . S
Cd739 O738 2.223 1_565 S
Cd739 O742 2.297 . S
Cd739 O743 2.439 . S
Cd739 O749 2.240 1_565 S
Cd740 O741 2.240 . S
Cd740 O748 2.223 . S
Cd740 O750 2.297 . S
Cd740 O751 2.439 1_545 S
O741 Cd740 2.240 . S
O741 C746 1.279 . S
O742 Cd739 2.297 . S
O742 C744 1.247 . S
O743 Cd739 2.439 . S
O743 C744 1.208 . S
C744 O742 1.247 . S
C744 O743 1.208 . S
C745 O750 1.247 1_565 S
C745 O751 1.208 . S
C746 O738 1.315 . S
C746 O741 1.279 . S
C747 O748 1.315 . S
C747 O749 1.279 . S
O748 Cd740 2.223 . S
O748 C747 1.315 . S
O749 Cd739 2.240 1_545 S
O749 C747 1.279 . S
O750 Cd740 2.297 . S
O750 C745 1.247 1_545 S
O751 Cd740 2.439 1_565 S
O751 C745 1.208 . S
O752 Cd753 2.223 . S
O752 C760 1.315 . S
Cd753 O752 2.223 . S
Cd753 O756 2.297 1_655 S
Cd753 O757 2.439 1_655 S
Cd753 O763 2.240 . S
Cd754 O755 2.240 . S
Cd754 O762 2.223 1_455 S
Cd754 O764 2.297 . S
Cd754 O765 2.439 . S
O755 Cd754 2.240 . S
O755 C760 1.279 1_455 S
O756 Cd753 2.297 1_455 S
O756 C758 1.247 . S
O757 Cd753 2.439 1_455 S
O757 C758 1.208 . S
C758 O756 1.247 . S
C758 O757 1.208 . S
C759 O764 1.247 . S
C759 O765 1.208 . S
C760 O752 1.315 . S
C760 O755 1.279 1_655 S
C761 O762 1.315 . S
C761 O763 1.279 . S
O762 Cd754 2.223 1_655 S
O762 C761 1.315 . S
O763 Cd753 2.240 . S
O763 C761 1.279 . S
O764 Cd754 2.297 . S
O764 C759 1.247 . S
O765 Cd754 2.439 . S
O765 C759 1.208 . S
O766 Cd767 2.223 . S
O766 C774 1.315 . S
Cd767 O766 2.223 . S
Cd767 O770 2.297 . S
Cd767 O771 2.439 . S
Cd767 O777 2.240 . S
Cd768 O769 2.240 . S
Cd768 O776 2.223 . S
Cd768 O778 2.297 . S
Cd768 O779 2.439 . S
O769 Cd768 2.240 . S
O769 C774 1.279 . S
O770 Cd767 2.297 . S
O770 C772 1.247 . S
O771 Cd767 2.439 . S
O771 C772 1.208 . S
C772 O770 1.247 . S
C772 O771 1.208 . S
C773 O778 1.247 . S
C773 O779 1.208 . S
C774 O766 1.315 . S
C774 O769 1.279 . S
C775 O776 1.315 . S
C775 O777 1.279 . S
O776 Cd768 2.223 . S
O776 C775 1.315 . S
O777 Cd767 2.240 . S
O777 C775 1.279 . S
O778 Cd768 2.297 . S
O778 C773 1.247 . S
O779 Cd768 2.439 . S
O779 C773 1.208 . S
O780 Cd781 2.223 1_655 S
O780 C788 1.315 . S
Cd781 O780 2.223 1_455 S
Cd781 O784 2.297 . S
Cd781 O785 2.439 . S
Cd781 O791 2.240 . S
Cd782 O783 2.240 . S
Cd782 O790 2.223 . S
Cd782 O792 2.297 1_655 S
Cd782 O793 2.439 1_655 S
O783 Cd782 2.240 . S
O783 C788 1.279 . S
O784 Cd781 2.297 . S
O784 C786 1.247 . S
O785 Cd781 2.439 . S
O785 C786 1.208 . S
C786 O784 1.247 . S
C786 O785 1.208 . S
C787 O792 1.247 . S
C787 O793 1.208 . S
C788 O780 1.315 . S
C788 O783 1.279 . S
C789 O790 1.315 . S
C789 O791 1.279 1_655 S
O790 Cd782 2.223 . S
O790 C789 1.315 . S
O791 Cd781 2.240 . S
O791 C789 1.279 1_455 S
O792 Cd782 2.297 1_455 S
O792 C787 1.247 . S
O793 Cd782 2.439 1_455 S
O793 C787 1.208 . S
O794 Cd795 2.223 . S
O794 C802 1.315 . S
Cd795 O794 2.223 . S
Cd795 O798 2.297 . S
Cd795 O799 2.439 . S
Cd795 O805 2.240 . S
Cd796 O797 2.240 . S
Cd796 O804 2.223 . S
Cd796 O806 2.297 . S
Cd796 O807 2.439 . S
O797 Cd796 2.240 . S
O797 C802 1.279 . S
O798 Cd795 2.297 . S
O798 C800 1.247 . S
O799 Cd795 2.439 . S
O799 C800 1.208 . S
C800 O798 1.247 . S
C800 O799 1.208 . S
C801 O806 1.247 . S
C801 O807 1.208 . S
C802 O794 1.315 . S
C802 O797 1.279 . S
C803 O804 1.315 . S
C803 O805 1.279 . S
O804 Cd796 2.223 . S
O804 C803 1.315 . S
O805 Cd795 2.240 . S
O805 C803 1.279 . S
O806 Cd796 2.297 . S
O806 C801 1.247 . S
O807 Cd796 2.439 . S
O807 C801 1.208 . S
H808 C816 0.950 . S
H809 C821 0.950 . S
H810 C818 0.950 . S
H811 C820 0.950 . S
H812 C822 0.950 1_554 S
H813 C824 0.950 . S
H814 C826 0.950 . S
H815 C827 0.950 . S
C816 H808 0.950 . S
C816 C817 1.386 . S
C816 C818 1.391 . S
C817 C816 1.386 . S
C817 C821 1.393 . S
C818 H810 0.950 . S
C818 C816 1.391 . S
C818 C819 1.400 . S
C819 C818 1.400 . S
C819 C820 1.398 . S
C819 C825 1.491 . S
C820 H811 0.950 . S
C820 C819 1.398 . S
C820 C821 1.391 . S
C821 H809 0.950 . S
C821 C817 1.393 . S
C821 C820 1.391 . S
C822 H812 0.950 1_556 S
C822 C823 1.386 1_556 S
C822 C824 1.391 . S
C823 C822 1.386 1_554 S
C823 C827 1.393 1_554 S
C824 H813 0.950 . S
C824 C822 1.391 . S
C824 C825 1.400 . S
C825 C819 1.491 . S
C825 C824 1.400 . S
C825 C826 1.398 . S
C826 H814 0.950 . S
C826 C825 1.398 . S
C826 C827 1.391 . S
C827 H815 0.950 . S
C827 C823 1.393 1_556 S
C827 C826 1.391 . S
H828 C836 0.951 . S
H829 C841 0.950 . S
H830 C838 0.950 . S
H831 C840 0.950 . S
H832 C842 0.950 . S
H833 C844 0.950 . S
H834 C846 0.950 . S
H835 C847 0.950 . S
C836 H828 0.951 . S
C836 C837 1.386 1_455 S
C836 C838 1.391 . S
C837 C836 1.386 1_655 S
C837 C841 1.393 . S
C838 H830 0.950 . S
C838 C836 1.391 . S
C838 C839 1.400 . S
C839 C838 1.400 . S
C839 C840 1.398 . S
C839 C845 1.491 . S
C840 H831 0.950 . S
C840 C839 1.398 . S
C840 C841 1.391 1_455 S
C841 H829 0.950 . S
C841 C837 1.393 . S
C841 C840 1.391 1_655 S
C842 H832 0.950 . S
C842 C843 1.386 . S
C842 C844 1.391 . S
C843 C842 1.386 . S
C843 C847 1.393 . S
C844 H833 0.950 . S
C844 C842 1.391 . S
C844 C845 1.400 . S
C845 C839 1.491 . S
C845 C844 1.400 . S
C845 C846 1.398 . S
C846 H834 0.950 . S
C846 C845 1.398 . S
C846 C847 1.391 . S
C847 H835 0.950 . S
C847 C843 1.393 . S
C847 C846 1.391 . S
H848 C856 0.950 . S
H849 C861 0.950 . S
H850 C858 0.950 . S
H851 C860 0.950 . S
H852 C862 0.950 . S
H853 C864 0.950 . S
H854 C866 0.950 . S
H855 C867 0.950 . S
C856 H848 0.950 . S
C856 C857 1.386 . S
C856 C858 1.391 . S
C857 C856 1.386 . S
C857 C861 1.393 . S
C858 H850 0.950 . S
C858 C856 1.391 . S
C858 C859 1.400 . S
C859 C858 1.400 . S
C859 C860 1.398 . S
C859 C865 1.491 . S
C860 H851 0.950 . S
C860 C859 1.398 . S
C860 C861 1.391 . S
C861 H849 0.950 . S
C861 C857 1.393 . S
C861 C860 1.391 . S
C862 H852 0.950 . S
C862 C863 1.386 . S
C862 C864 1.391 . S
C863 C862 1.386 . S
C863 C867 1.393 . S
C864 H853 0.950 . S
C864 C862 1.391 . S
C864 C865 1.400 . S
C865 C859 1.491 . S
C865 C864 1.400 . S
C865 C866 1.398 . S
C866 H854 0.950 . S
C866 C865 1.398 . S
C866 C867 1.391 . S
C867 H855 0.950 . S
C867 C863 1.393 . S
C867 C866 1.391 . S
H868 C876 0.950 . S
H869 C881 0.950 . S
H870 C878 0.950 . S
H871 C880 0.950 . S
H872 C882 0.950 . S
H873 C884 0.950 . S
H874 C886 0.950 1_565 S
H875 C887 0.950 . S
C876 H868 0.950 . S
C876 C877 1.386 1_655 S
C876 C878 1.391 . S
C877 C876 1.386 1_455 S
C877 C881 1.393 . S
C878 H870 0.950 . S
C878 C876 1.391 . S
C878 C879 1.411 . S
C879 C878 1.411 . S
C879 C880 1.396 1_565 S
C879 C885 1.483 1_565 S
C880 H871 0.950 . S
C880 C879 1.396 1_545 S
C880 C881 1.391 1_645 S
C881 H869 0.950 . S
C881 C877 1.393 . S
C881 C880 1.391 1_465 S
C882 H872 0.950 . S
C882 C883 1.386 . S
C882 C884 1.391 . S
C883 C882 1.386 . S
C883 C887 1.393 . S
C884 H873 0.950 . S
C884 C882 1.391 . S
C884 C885 1.400 . S
C885 C879 1.483 1_545 S
C885 C884 1.400 . S
C885 C886 1.398 . S
C886 H874 0.950 1_545 S
C886 C885 1.398 . S
C886 C887 1.391 . S
C887 H875 0.950 . S
C887 C883 1.393 . S
C887 C886 1.391 . S
H888 C896 0.950 . S
H889 C901 0.950 . S
H890 C898 0.950 . S
H891 C900 0.950 . S
H892 C902 0.950 . S
H893 C904 0.950 . S
H894 C906 0.950 . S
H895 C907 0.950 . S
C896 H888 0.950 . S
C896 C897 1.386 . S
C896 C898 1.391 . S
C897 C896 1.386 . S
C897 C901 1.393 . S
C898 H890 0.950 . S
C898 C896 1.391 . S
C898 C899 1.400 . S
C899 C898 1.400 . S
C899 C900 1.398 . S
C899 C905 1.491 . S
C900 H891 0.950 . S
C900 C899 1.398 . S
C900 C901 1.391 . S
C901 H889 0.950 . S
C901 C897 1.393 . S
C901 C900 1.391 . S
C902 H892 0.950 . S
C902 C903 1.386 . S
C902 C904 1.391 . S
C903 C902 1.386 . S
C903 C907 1.393 . S
C904 H893 0.950 . S
C904 C902 1.391 . S
C904 C905 1.400 . S
C905 C899 1.491 . S
C905 C904 1.400 . S
C905 C906 1.398 . S
C906 H894 0.950 . S
C906 C905 1.398 . S
C906 C907 1.391 . S
C907 H895 0.950 . S
C907 C903 1.393 . S
C907 C906 1.391 . S
H908 C916 0.950 . S
H909 C921 0.950 . S
H910 C918 0.950 . S
H911 C920 0.950 . S
H912 C922 0.950 . S
H913 C924 0.950 . S
H914 C926 0.950 . S
H915 C927 0.950 . S
C916 H908 0.950 . S
C916 C917 1.386 . S
C916 C918 1.391 . S
C917 C916 1.386 . S
C917 C921 1.393 . S
C918 H910 0.950 . S
C918 C916 1.391 . S
C918 C919 1.400 . S
C919 C918 1.400 . S
C919 C920 1.398 . S
C919 C925 1.491 . S
C920 H911 0.950 . S
C920 C919 1.398 . S
C920 C921 1.391 . S
C921 H909 0.950 . S
C921 C917 1.393 . S
C921 C920 1.391 . S
C922 H912 0.950 . S
C922 C923 1.386 . S
C922 C924 1.391 . S
C923 C922 1.386 . S
C923 C927 1.393 . S
C924 H913 0.950 . S
C924 C922 1.391 . S
C924 C925 1.400 . S
C925 C919 1.491 . S
C925 C924 1.400 . S
C925 C926 1.398 . S
C926 H914 0.950 . S
C926 C925 1.398 . S
C926 C927 1.391 . S
C927 H915 0.950 . S
C927 C923 1.393 . S
C927 C926 1.391 . S
H928 C936 0.950 . S
H929 C941 0.950 . S
H930 C938 0.950 . S
H931 C940 0.950 . S
H932 C942 0.950 . S
H933 C944 0.950 . S
H934 C946 0.950 . S
H935 C947 0.950 . S
C936 H928 0.950 . S
C936 C937 1.386 . S
C936 C938 1.391 . S
C937 C936 1.386 . S
C937 C941 1.393 . S
C938 H930 0.950 . S
C938 C936 1.391 . S
C938 C939 1.400 . S
C939 C938 1.400 . S
C939 C940 1.398 . S
C939 C945 1.491 . S
C940 H931 0.950 . S
C940 C939 1.398 . S
C940 C941 1.391 . S
C941 H929 0.950 . S
C941 C937 1.393 . S
C941 C940 1.391 . S
C942 H932 0.950 . S
C942 C943 1.386 . S
C942 C944 1.391 . S
C943 C942 1.386 . S
C943 C947 1.393 . S
C944 H933 0.950 . S
C944 C942 1.391 . S
C944 C945 1.400 . S
C945 C939 1.491 . S
C945 C944 1.400 . S
C945 C946 1.398 . S
C946 H934 0.950 . S
C946 C945 1.398 . S
C946 C947 1.391 . S
C947 H935 0.950 . S
C947 C943 1.393 . S
C947 C946 1.391 . S
H948 C956 0.950 . S
H949 C961 0.950 . S
H950 C958 0.950 . S
H951 C960 0.950 . S
H952 C962 0.950 1_545 S
H953 C964 0.950 . S
H954 C966 0.950 . S
H955 C967 0.950 . S
C956 H948 0.950 . S
C956 C957 1.386 . S
C956 C958 1.391 . S
C957 C956 1.386 . S
C957 C961 1.393 . S
C958 H950 0.950 . S
C958 C956 1.391 . S
C958 C959 1.400 . S
C959 C958 1.400 . S
C959 C960 1.398 . S
C959 C965 1.491 . S
C960 H951 0.950 . S
C960 C959 1.398 . S
C960 C961 1.391 . S
C961 H949 0.950 . S
C961 C957 1.393 . S
C961 C960 1.391 . S
C962 H952 0.950 1_565 S
C962 C963 1.386 . S
C962 C964 1.391 . S
C963 C962 1.386 . S
C963 C967 1.393 . S
C964 H953 0.950 . S
C964 C962 1.391 . S
C964 C965 1.400 . S
C965 C959 1.491 . S
C965 C964 1.400 . S
C965 C966 1.398 . S
C966 H954 0.950 . S
C966 C965 1.398 . S
C966 C967 1.391 . S
C967 H955 0.950 . S
C967 C963 1.393 . S
C967 C966 1.391 . S
H968 C976 0.950 . S
H969 C981 0.950 . S
H970 C978 0.950 . S
H971 C980 0.950 . S
H972 C982 0.950 . S
H973 C984 0.950 . S
H974 C986 0.950 . S
H975 C987 0.950 . S
C976 H968 0.950 . S
C976 C977 1.386 . S
C976 C978 1.391 . S
C977 C976 1.386 . S
C977 C981 1.393 . S
C978 H970 0.950 . S
C978 C976 1.391 . S
C978 C979 1.400 . S
C979 C978 1.400 . S
C979 C980 1.398 . S
C979 C985 1.491 . S
C980 H971 0.950 . S
C980 C979 1.398 . S
C980 C981 1.391 . S
C981 H969 0.950 . S
C981 C977 1.393 . S
C981 C980 1.391 . S
C982 H972 0.950 . S
C982 C983 1.386 . S
C982 C984 1.391 . S
C983 C982 1.386 . S
C983 C987 1.393 . S
C984 H973 0.950 . S
C984 C982 1.391 . S
C984 C985 1.400 . S
C985 C979 1.491 . S
C985 C984 1.400 . S
C985 C986 1.398 . S
C986 H974 0.950 . S
C986 C985 1.398 . S
C986 C987 1.391 . S
C987 H975 0.950 . S
C987 C983 1.393 . S
C987 C986 1.391 . S
H988 C996 0.950 . S
H989 C1001 0.950 . S
H990 C998 0.950 . S
H991 C1000 0.950 . S
H992 C1002 0.950 . S
H993 C1004 0.950 . S
H994 C1006 0.950 . S
H995 C1007 0.950 . S
C996 H988 0.950 . S
C996 C997 1.386 . S
C996 C998 1.391 . S
C997 C996 1.386 . S
C997 C1001 1.393 . S
C998 H990 0.950 . S
C998 C996 1.391 . S
C998 C999 1.400 . S
C999 C998 1.400 . S
C999 C1000 1.398 . S
C999 C1005 1.491 . S
C1000 H991 0.950 . S
C1000 C999 1.398 . S
C1000 C1001 1.391 . S
C1001 H989 0.950 . S
C1001 C997 1.393 . S
C1001 C1000 1.391 . S
C1002 H992 0.950 . S
C1002 C1003 1.386 . S
C1002 C1004 1.391 . S
C1003 C1002 1.386 . S
C1003 C1007 1.393 . S
C1004 H993 0.950 . S
C1004 C1002 1.391 . S
C1004 C1005 1.400 . S
C1005 C999 1.491 . S
C1005 C1004 1.400 . S
C1005 C1006 1.398 . S
C1006 H994 0.950 . S
C1006 C1005 1.398 . S
C1006 C1007 1.391 . S
C1007 H995 0.950 . S
C1007 C1003 1.393 . S
C1007 C1006 1.391 . S
H1008 C1016 0.950 . S
H1009 C1021 0.950 . S
H1010 C1018 0.950 . S
H1011 C1020 0.950 . S
H1012 C1022 0.950 . S
H1013 C1024 0.950 . S
H1014 C1026 0.950 . S
H1015 C1027 0.950 . S
C1016 H1008 0.950 . S
C1016 C1017 1.386 . S
C1016 C1018 1.391 . S
C1017 C1016 1.386 . S
C1017 C1021 1.393 . S
C1018 H1010 0.950 . S
C1018 C1016 1.391 . S
C1018 C1019 1.400 . S
C1019 C1018 1.400 . S
C1019 C1020 1.398 . S
C1019 C1025 1.491 . S
C1020 H1011 0.950 . S
C1020 C1019 1.398 . S
C1020 C1021 1.391 . S
C1021 H1009 0.950 . S
C1021 C1017 1.393 . S
C1021 C1020 1.391 . S
C1022 H1012 0.950 . S
C1022 C1023 1.386 . S
C1022 C1024 1.391 . S
C1023 C1022 1.386 . S
C1023 C1027 1.393 . S
C1024 H1013 0.950 . S
C1024 C1022 1.391 . S
C1024 C1025 1.400 . S
C1025 C1019 1.491 . S
C1025 C1024 1.400 . S
C1025 C1026 1.398 . S
C1026 H1014 0.950 . S
C1026 C1025 1.398 . S
C1026 C1027 1.391 . S
C1027 H1015 0.950 . S
C1027 C1023 1.393 . S
C1027 C1026 1.391 . S
H1028 C1036 0.950 . S
H1029 C1041 0.950 . S
H1030 C1038 0.950 . S
H1031 C1040 0.950 . S
H1032 C1042 0.950 . S
H1033 C1044 0.950 . S
H1034 C1046 0.950 . S
H1035 C1047 0.950 . S
C1036 H1028 0.950 . S
C1036 C1037 1.386 . S
C1036 C1038 1.391 . S
C1037 C1036 1.386 . S
C1037 C1041 1.393 . S
C1038 H1030 0.950 . S
C1038 C1036 1.391 . S
C1038 C1039 1.400 . S
C1039 C1038 1.400 . S
C1039 C1040 1.398 . S
C1039 C1045 1.491 . S
C1040 H1031 0.950 . S
C1040 C1039 1.398 . S
C1040 C1041 1.391 . S
C1041 H1029 0.950 . S
C1041 C1037 1.393 . S
C1041 C1040 1.391 . S
C1042 H1032 0.950 . S
C1042 C1043 1.386 . S
C1042 C1044 1.391 . S
C1043 C1042 1.386 . S
C1043 C1047 1.393 . S
C1044 H1033 0.950 . S
C1044 C1042 1.391 . S
C1044 C1045 1.400 . S
C1045 C1039 1.491 . S
C1045 C1044 1.400 . S
C1045 C1046 1.398 . S
C1046 H1034 0.950 . S
C1046 C1045 1.398 . S
C1046 C1047 1.391 . S
C1047 H1035 0.950 . S
C1047 C1043 1.393 . S
C1047 C1046 1.391 . S
H1048 C1056 0.950 . S
H1049 C1061 0.950 . S
H1050 C1058 0.950 . S
H1051 C1060 0.950 . S
H1052 C1062 0.950 . S
H1053 C1064 0.950 . S
H1054 C1066 0.950 . S
H1055 C1067 0.950 . S
C1056 H1048 0.950 . S
C1056 C1057 1.386 . S
C1056 C1058 1.391 . S
C1057 C1056 1.386 . S
C1057 C1061 1.393 . S
C1058 H1050 0.950 . S
C1058 C1056 1.391 . S
C1058 C1059 1.400 . S
C1059 C1058 1.400 . S
C1059 C1060 1.398 . S
C1059 C1065 1.491 . S
C1060 H1051 0.950 . S
C1060 C1059 1.398 . S
C1060 C1061 1.391 . S
C1061 H1049 0.950 . S
C1061 C1057 1.393 . S
C1061 C1060 1.391 . S
C1062 H1052 0.950 . S
C1062 C1063 1.386 . S
C1062 C1064 1.391 . S
C1063 C1062 1.386 . S
C1063 C1067 1.393 . S
C1064 H1053 0.950 . S
C1064 C1062 1.391 . S
C1064 C1065 1.400 . S
C1065 C1059 1.491 . S
C1065 C1064 1.400 . S
C1065 C1066 1.398 . S
C1066 H1054 0.950 . S
C1066 C1065 1.398 . S
C1066 C1067 1.391 . S
C1067 H1055 0.950 . S
C1067 C1063 1.393 . S
C1067 C1066 1.391 . S
H1068 C1076 0.950 . S
H1069 C1081 0.950 . S
H1070 C1078 0.950 . S
H1071 C1080 0.950 . S
H1072 C1082 0.950 . S
H1073 C1084 0.950 . S
H1074 C1086 0.950 . S
H1075 C1087 0.950 . S
C1076 H1068 0.950 . S
C1076 C1077 1.386 . S
C1076 C1078 1.391 . S
C1077 C1076 1.386 . S
C1077 C1081 1.393 . S
C1078 H1070 0.950 . S
C1078 C1076 1.391 . S
C1078 C1079 1.400 . S
C1079 C1078 1.400 . S
C1079 C1080 1.398 . S
C1079 C1085 1.491 . S
C1080 H1071 0.950 . S
C1080 C1079 1.398 . S
C1080 C1081 1.391 . S
C1081 H1069 0.950 . S
C1081 C1077 1.393 . S
C1081 C1080 1.391 . S
C1082 H1072 0.950 . S
C1082 C1083 1.386 . S
C1082 C1084 1.391 . S
C1083 C1082 1.386 . S
C1083 C1087 1.393 . S
C1084 H1073 0.950 . S
C1084 C1082 1.391 . S
C1084 C1085 1.400 . S
C1085 C1079 1.491 . S
C1085 C1084 1.400 . S
C1085 C1086 1.398 . S
C1086 H1074 0.950 . S
C1086 C1085 1.398 . S
C1086 C1087 1.391 . S
C1087 H1075 0.950 . S
C1087 C1083 1.393 . S
C1087 C1086 1.391 . S
H1088 C1096 0.950 . S
H1089 C1101 0.950 . S
H1090 C1098 0.950 . S
H1091 C1100 0.950 . S
H1092 C1102 0.950 . S
H1093 C1104 0.950 . S
H1094 C1106 0.950 . S
H1095 C1107 0.950 . S
C1096 H1088 0.950 . S
C1096 C1097 1.386 . S
C1096 C1098 1.391 . S
C1097 C1096 1.386 . S
C1097 C1101 1.393 . S
C1098 H1090 0.950 . S
C1098 C1096 1.391 . S
C1098 C1099 1.400 . S
C1099 C1098 1.400 . S
C1099 C1100 1.398 . S
C1099 C1105 1.491 . S
C1100 H1091 0.950 . S
C1100 C1099 1.398 . S
C1100 C1101 1.391 . S
C1101 H1089 0.950 . S
C1101 C1097 1.393 . S
C1101 C1100 1.391 . S
C1102 H1092 0.950 . S
C1102 C1103 1.386 . S
C1102 C1104 1.391 . S
C1103 C1102 1.386 . S
C1103 C1107 1.393 . S
C1104 H1093 0.950 . S
C1104 C1102 1.391 . S
C1104 C1105 1.400 . S
C1105 C1099 1.491 . S
C1105 C1104 1.400 . S
C1105 C1106 1.398 . S
C1106 H1094 0.950 . S
C1106 C1105 1.398 . S
C1106 C1107 1.391 . S
C1107 H1095 0.950 . S
C1107 C1103 1.393 . S
C1107 C1106 1.391 . S
H1108 C1116 0.950 . S
H1109 C1121 0.950 . S
H1110 C1118 0.950 . S
H1111 C1120 0.950 . S
H1112 C1122 0.950 . S
H1113 C1124 0.950 . S
H1114 C1126 0.950 . S
H1115 C1127 0.950 . S
C1116 H1108 0.950 . S
C1116 C1117 1.386 . S
C1116 C1118 1.391 . S
C1117 C1116 1.386 . S
C1117 C1121 1.393 . S
C1118 H1110 0.950 . S
C1118 C1116 1.391 . S
C1118 C1119 1.400 . S
C1119 C1118 1.400 . S
C1119 C1120 1.398 . S
C1119 C1125 1.491 . S
C1120 H1111 0.950 . S
C1120 C1119 1.398 . S
C1120 C1121 1.391 . S
C1121 H1109 0.950 . S
C1121 C1117 1.393 . S
C1121 C1120 1.391 . S
C1122 H1112 0.950 . S
C1122 C1123 1.386 . S
C1122 C1124 1.391 . S
C1123 C1122 1.386 . S
C1123 C1127 1.393 . S
C1124 H1113 0.950 . S
C1124 C1122 1.391 . S
C1124 C1125 1.400 . S
C1125 C1119 1.491 . S
C1125 C1124 1.400 . S
C1125 C1126 1.398 . S
C1126 H1114 0.950 . S
C1126 C1125 1.398 . S
C1126 C1127 1.391 . S
C1127 H1115 0.950 . S
C1127 C1123 1.393 . S
C1127 C1126 1.391 . S
H1128 C1136 0.950 . S
H1129 C1141 0.950 . S
H1130 C1138 0.950 . S
H1131 C1140 0.950 . S
H1132 C1142 0.950 . S
H1133 C1144 0.950 . S
H1134 C1146 0.950 . S
H1135 C1147 0.950 . S
C1136 H1128 0.950 . S
C1136 C1137 1.386 . S
C1136 C1138 1.391 . S
C1137 C1136 1.386 . S
C1137 C1141 1.393 . S
C1138 H1130 0.950 . S
C1138 C1136 1.391 . S
C1138 C1139 1.400 . S
C1139 C1138 1.400 . S
C1139 C1140 1.398 . S
C1139 C1145 1.491 . S
C1140 H1131 0.950 . S
C1140 C1139 1.398 . S
C1140 C1141 1.391 . S
C1141 H1129 0.950 . S
C1141 C1137 1.393 . S
C1141 C1140 1.391 . S
C1142 H1132 0.950 . S
C1142 C1143 1.386 . S
C1142 C1144 1.391 1_545 S
C1143 C1142 1.386 . S
C1143 C1147 1.393 1_545 S
C1144 H1133 0.950 . S
C1144 C1142 1.391 1_565 S
C1144 C1145 1.400 . S
C1145 C1139 1.491 . S
C1145 C1144 1.400 . S
C1145 C1146 1.398 . S
C1146 H1134 0.950 . S
C1146 C1145 1.398 . S
C1146 C1147 1.391 . S
C1147 H1135 0.950 . S
C1147 C1143 1.393 1_565 S
C1147 C1146 1.391 . S
H1148 C1156 0.950 . S
H1149 C1161 0.950 . S
H1150 C1158 0.950 . S
H1151 C1160 0.950 . S
H1152 C1162 0.950 . S
H1153 C1164 0.950 . S
H1154 C1166 0.950 . S
H1155 C1167 0.950 . S
C1156 H1148 0.950 . S
C1156 C1157 1.386 . S
C1156 C1158 1.391 . S
C1157 C1156 1.386 . S
C1157 C1161 1.393 . S
C1158 H1150 0.950 . S
C1158 C1156 1.391 . S
C1158 C1159 1.400 . S
C1159 C1158 1.400 . S
C1159 C1160 1.398 . S
C1159 C1165 1.491 . S
C1160 H1151 0.950 . S
C1160 C1159 1.398 . S
C1160 C1161 1.391 . S
C1161 H1149 0.950 . S
C1161 C1157 1.393 . S
C1161 C1160 1.391 . S
C1162 H1152 0.950 . S
C1162 C1163 1.386 . S
C1162 C1164 1.391 . S
C1163 C1162 1.386 . S
C1163 C1167 1.393 . S
C1164 H1153 0.950 . S
C1164 C1162 1.391 . S
C1164 C1165 1.400 . S
C1165 C1159 1.491 . S
C1165 C1164 1.400 . S
C1165 C1166 1.398 . S
C1166 H1154 0.950 . S
C1166 C1165 1.398 . S
C1166 C1167 1.391 . S
C1167 H1155 0.950 . S
C1167 C1163 1.393 . S
C1167 C1166 1.391 . S
H1168 C1176 0.950 . S
H1169 C1181 0.950 . S
H1170 C1178 0.950 . S
H1171 C1180 0.950 1_554 S
H1172 C1182 0.950 . S
H1173 C1184 0.950 . S
H1174 C1186 0.950 . S
H1175 C1187 0.950 1_556 S
C1176 H1168 0.950 . S
C1176 C1177 1.386 . S
C1176 C1178 1.391 1_545 S
C1177 C1176 1.386 . S
C1177 C1181 1.393 . S
C1178 H1170 0.950 . S
C1178 C1176 1.391 1_565 S
C1178 C1179 1.400 . S
C1179 C1178 1.400 . S
C1179 C1180 1.398 1_565 S
C1179 C1185 1.465 1_556 S
C1180 H1171 0.950 1_556 S
C1180 C1179 1.398 1_545 S
C1180 C1181 1.391 . S
C1181 H1169 0.950 . S
C1181 C1177 1.393 . S
C1181 C1180 1.391 . S
C1182 H1172 0.950 . S
C1182 C1183 1.386 . S
C1182 C1184 1.391 . S
C1183 C1182 1.386 . S
C1183 C1187 1.393 . S
C1184 H1173 0.950 . S
C1184 C1182 1.391 . S
C1184 C1185 1.445 . S
C1185 C1179 1.465 1_554 S
C1185 C1184 1.445 . S
C1185 C1186 1.381 1_554 S
C1186 H1174 0.950 . S
C1186 C1185 1.381 1_556 S
C1186 C1187 1.391 1_556 S
C1187 H1175 0.950 1_554 S
C1187 C1183 1.393 . S
C1187 C1186 1.391 1_554 S
H1188 C1196 0.950 . S
H1189 C1201 0.950 . S
H1190 C1198 0.950 . S
H1191 C1200 0.950 . S
H1192 C1202 0.950 . S
H1193 C1204 0.950 . S
H1194 C1206 0.950 . S
H1195 C1207 0.950 . S
C1196 H1188 0.950 . S
C1196 C1197 1.386 . S
C1196 C1198 1.391 . S
C1197 C1196 1.386 . S
C1197 C1201 1.393 . S
C1198 H1190 0.950 . S
C1198 C1196 1.391 . S
C1198 C1199 1.400 . S
C1199 C1198 1.400 . S
C1199 C1200 1.398 . S
C1199 C1205 1.491 . S
C1200 H1191 0.950 . S
C1200 C1199 1.398 . S
C1200 C1201 1.391 . S
C1201 H1189 0.950 . S
C1201 C1197 1.393 . S
C1201 C1200 1.391 . S
C1202 H1192 0.950 . S
C1202 C1203 1.386 . S
C1202 C1204 1.391 . S
C1203 C1202 1.386 . S
C1203 C1207 1.393 . S
C1204 H1193 0.950 . S
C1204 C1202 1.391 . S
C1204 C1205 1.400 . S
C1205 C1199 1.491 . S
C1205 C1204 1.400 . S
C1205 C1206 1.398 . S
C1206 H1194 0.950 . S
C1206 C1205 1.398 . S
C1206 C1207 1.391 . S
C1207 H1195 0.950 . S
C1207 C1203 1.393 . S
C1207 C1206 1.391 . S
H1208 C1216 0.950 . S
H1209 C1221 0.950 . S
H1210 C1218 0.950 . S
H1211 C1220 0.950 . S
H1212 C1222 0.950 . S
H1213 C1224 0.950 . S
H1214 C1226 0.950 . S
H1215 C1227 0.950 . S
C1216 H1208 0.950 . S
C1216 C1217 1.386 . S
C1216 C1218 1.391 . S
C1217 C1216 1.386 . S
C1217 C1221 1.393 . S
C1218 H1210 0.950 . S
C1218 C1216 1.391 . S
C1218 C1219 1.400 . S
C1219 C1218 1.400 . S
C1219 C1220 1.398 . S
C1219 C1225 1.491 . S
C1220 H1211 0.950 . S
C1220 C1219 1.398 . S
C1220 C1221 1.391 . S
C1221 H1209 0.950 . S
C1221 C1217 1.393 . S
C1221 C1220 1.391 . S
C1222 H1212 0.950 . S
C1222 C1223 1.386 . S
C1222 C1224 1.391 . S
C1223 C1222 1.386 . S
C1223 C1227 1.393 . S
C1224 H1213 0.950 . S
C1224 C1222 1.391 . S
C1224 C1225 1.400 . S
C1225 C1219 1.491 . S
C1225 C1224 1.400 . S
C1225 C1226 1.398 . S
C1226 H1214 0.950 . S
C1226 C1225 1.398 . S
C1226 C1227 1.391 . S
C1227 H1215 0.950 . S
C1227 C1223 1.393 . S
C1227 C1226 1.391 . S
H1228 C1236 0.950 . S
H1229 C1241 0.950 . S
H1230 C1238 0.950 . S
H1231 C1240 0.950 . S
H1232 C1242 0.950 . S
H1233 C1244 0.950 . S
H1234 C1246 0.950 . S
H1235 C1247 0.950 . S
C1236 H1228 0.950 . S
C1236 C1237 1.386 . S
C1236 C1238 1.391 . S
C1237 C1236 1.386 . S
C1237 C1241 1.393 . S
C1238 H1230 0.950 . S
C1238 C1236 1.391 . S
C1238 C1239 1.400 . S
C1239 C1238 1.400 . S
C1239 C1240 1.398 . S
C1239 C1245 1.491 . S
C1240 H1231 0.950 . S
C1240 C1239 1.398 . S
C1240 C1241 1.391 . S
C1241 H1229 0.950 . S
C1241 C1237 1.393 . S
C1241 C1240 1.391 . S
C1242 H1232 0.950 . S
C1242 C1243 1.386 . S
C1242 C1244 1.391 . S
C1243 C1242 1.386 . S
C1243 C1247 1.393 . S
C1244 H1233 0.950 . S
C1244 C1242 1.391 . S
C1244 C1245 1.400 . S
C1245 C1239 1.491 . S
C1245 C1244 1.400 . S
C1245 C1246 1.398 . S
C1246 H1234 0.950 . S
C1246 C1245 1.398 . S
C1246 C1247 1.391 . S
C1247 H1235 0.950 . S
C1247 C1243 1.393 . S
C1247 C1246 1.391 . S
H1248 C1256 0.950 1_565 S
H1249 C1261 0.950 . S
H1250 C1258 0.950 . S
H1251 C1260 0.950 . S
H1252 C1262 0.950 . S
H1253 C1264 0.950 . S
H1254 C1266 0.950 . S
H1255 C1267 0.950 . S
C1256 H1248 0.950 1_545 S
C1256 C1257 1.386 . S
C1256 C1258 1.391 . S
C1257 C1256 1.386 . S
C1257 C1261 1.393 . S
C1258 H1250 0.950 . S
C1258 C1256 1.391 . S
C1258 C1259 1.400 . S
C1259 C1258 1.400 . S
C1259 C1260 1.398 . S
C1259 C1265 1.491 . S
C1260 H1251 0.950 . S
C1260 C1259 1.398 . S
C1260 C1261 1.391 . S
C1261 H1249 0.950 . S
C1261 C1257 1.393 . S
C1261 C1260 1.391 . S
C1262 H1252 0.950 . S
C1262 C1263 1.386 . S
C1262 C1264 1.391 . S
C1263 C1262 1.386 . S
C1263 C1267 1.393 . S
C1264 H1253 0.950 . S
C1264 C1262 1.391 . S
C1264 C1265 1.400 . S
C1265 C1259 1.491 . S
C1265 C1264 1.400 . S
C1265 C1266 1.398 . S
C1266 H1254 0.950 . S
C1266 C1265 1.398 . S
C1266 C1267 1.391 . S
C1267 H1255 0.950 . S
C1267 C1263 1.393 . S
C1267 C1266 1.391 . S
H1268 C1276 0.950 . S
H1269 C1281 0.950 . S
H1270 C1278 0.950 . S
H1271 C1280 0.950 . S
H1272 C1282 0.950 . S
H1273 C1284 0.950 . S
H1274 C1286 0.950 . S
H1275 C1287 0.950 . S
C1276 H1268 0.950 . S
C1276 C1277 1.386 . S
C1276 C1278 1.391 . S
C1277 C1276 1.386 . S
C1277 C1281 1.393 . S
C1278 H1270 0.950 . S
C1278 C1276 1.391 . S
C1278 C1279 1.400 . S
C1279 C1278 1.400 . S
C1279 C1280 1.398 . S
C1279 C1285 1.491 . S
C1280 H1271 0.950 . S
C1280 C1279 1.398 . S
C1280 C1281 1.391 . S
C1281 H1269 0.950 . S
C1281 C1277 1.393 . S
C1281 C1280 1.391 . S
C1282 H1272 0.950 . S
C1282 C1283 1.386 . S
C1282 C1284 1.391 . S
C1283 C1282 1.386 . S
C1283 C1287 1.393 . S
C1284 H1273 0.950 . S
C1284 C1282 1.391 . S
C1284 C1285 1.400 . S
C1285 C1279 1.491 . S
C1285 C1284 1.400 . S
C1285 C1286 1.398 . S
C1286 H1274 0.950 . S
C1286 C1285 1.398 . S
C1286 C1287 1.391 . S
C1287 H1275 0.950 . S
C1287 C1283 1.393 . S
C1287 C1286 1.391 . S
H1288 C1296 0.950 . S
H1289 C1301 0.950 . S
H1290 C1298 0.950 . S
H1291 C1300 0.950 . S
H1292 C1302 0.950 . S
H1293 C1304 0.950 . S
H1294 C1306 0.950 . S
H1295 C1307 0.950 . S
C1296 H1288 0.950 . S
C1296 C1297 1.386 . S
C1296 C1298 1.391 . S
C1297 C1296 1.386 . S
C1297 C1301 1.393 . S
C1298 H1290 0.950 . S
C1298 C1296 1.391 . S
C1298 C1299 1.400 . S
C1299 C1298 1.400 . S
C1299 C1300 1.398 . S
C1299 C1305 1.491 . S
C1300 H1291 0.950 . S
C1300 C1299 1.398 . S
C1300 C1301 1.391 . S
C1301 H1289 0.950 . S
C1301 C1297 1.393 . S
C1301 C1300 1.391 . S
C1302 H1292 0.950 . S
C1302 C1303 1.386 . S
C1302 C1304 1.391 . S
C1303 C1302 1.386 . S
C1303 C1307 1.393 . S
C1304 H1293 0.950 . S
C1304 C1302 1.391 . S
C1304 C1305 1.400 . S
C1305 C1299 1.491 . S
C1305 C1304 1.400 . S
C1305 C1306 1.398 . S
C1306 H1294 0.950 . S
C1306 C1305 1.398 . S
C1306 C1307 1.391 . S
C1307 H1295 0.950 . S
C1307 C1303 1.393 . S
C1307 C1306 1.391 . S
H1308 C1316 0.950 . S
H1309 C1321 0.950 . S
H1310 C1318 0.950 . S
H1311 C1320 0.950 . S
H1312 C1322 0.950 . S
H1313 C1324 0.950 . S
H1314 C1326 0.950 . S
H1315 C1327 0.950 . S
C1316 H1308 0.950 . S
C1316 C1317 1.386 . S
C1316 C1318 1.391 . S
C1317 C1316 1.386 . S
C1317 C1321 1.393 . S
C1318 H1310 0.950 . S
C1318 C1316 1.391 . S
C1318 C1319 1.400 . S
C1319 C1318 1.400 . S
C1319 C1320 1.398 . S
C1319 C1325 1.491 . S
C1320 H1311 0.950 . S
C1320 C1319 1.398 . S
C1320 C1321 1.391 . S
C1321 H1309 0.950 . S
C1321 C1317 1.393 . S
C1321 C1320 1.391 . S
C1322 H1312 0.950 . S
C1322 C1323 1.386 . S
C1322 C1324 1.391 . S
C1323 C1322 1.386 . S
C1323 C1327 1.393 . S
C1324 H1313 0.950 . S
C1324 C1322 1.391 . S
C1324 C1325 1.400 . S
C1325 C1319 1.491 . S
C1325 C1324 1.400 . S
C1325 C1326 1.398 . S
C1326 H1314 0.950 . S
C1326 C1325 1.398 . S
C1326 C1327 1.391 . S
C1327 H1315 0.950 . S
C1327 C1323 1.393 . S
C1327 C1326 1.391 . S
H1328 C1336 0.950 . S
H1329 C1341 0.950 . S
H1330 C1338 0.950 . S
H1331 C1340 0.950 . S
H1332 C1342 0.950 . S
H1333 C1344 0.950 . S
H1334 C1346 0.950 . S
H1335 C1347 0.950 . S
C1336 H1328 0.950 . S
C1336 C1337 1.386 . S
C1336 C1338 1.391 . S
C1337 C1336 1.386 . S
C1337 C1341 1.393 . S
C1338 H1330 0.950 . S
C1338 C1336 1.391 . S
C1338 C1339 1.400 . S
C1339 C1338 1.400 . S
C1339 C1340 1.398 . S
C1339 C1345 1.491 . S
C1340 H1331 0.950 . S
C1340 C1339 1.398 . S
C1340 C1341 1.391 . S
C1341 H1329 0.950 . S
C1341 C1337 1.393 . S
C1341 C1340 1.391 . S
C1342 H1332 0.950 . S
C1342 C1343 1.386 . S
C1342 C1344 1.391 . S
C1343 C1342 1.386 . S
C1343 C1347 1.393 . S
C1344 H1333 0.950 . S
C1344 C1342 1.391 . S
C1344 C1345 1.400 . S
C1345 C1339 1.491 . S
C1345 C1344 1.400 . S
C1345 C1346 1.398 . S
C1346 H1334 0.950 . S
C1346 C1345 1.398 . S
C1346 C1347 1.391 . S
C1347 H1335 0.950 . S
C1347 C1343 1.393 . S
C1347 C1346 1.391 . S
H1348 C1356 0.950 . S
H1349 C1361 0.950 . S
H1350 C1358 0.950 . S
H1351 C1360 0.950 . S
H1352 C1362 0.950 . S
H1353 C1364 0.950 . S
H1354 C1366 0.950 . S
H1355 C1367 0.950 . S
C1356 H1348 0.950 . S
C1356 C1357 1.386 . S
C1356 C1358 1.391 . S
C1357 C1356 1.386 . S
C1357 C1361 1.393 . S
C1358 H1350 0.950 . S
C1358 C1356 1.391 . S
C1358 C1359 1.400 . S
C1359 C1358 1.400 . S
C1359 C1360 1.398 . S
C1359 C1365 1.491 . S
C1360 H1351 0.950 . S
C1360 C1359 1.398 . S
C1360 C1361 1.391 . S
C1361 H1349 0.950 . S
C1361 C1357 1.393 . S
C1361 C1360 1.391 . S
C1362 H1352 0.950 . S
C1362 C1363 1.386 . S
C1362 C1364 1.391 . S
C1363 C1362 1.386 . S
C1363 C1367 1.393 . S
C1364 H1353 0.950 . S
C1364 C1362 1.391 . S
C1364 C1365 1.400 . S
C1365 C1359 1.491 . S
C1365 C1364 1.400 . S
C1365 C1366 1.398 . S
C1366 H1354 0.950 . S
C1366 C1365 1.398 . S
C1366 C1367 1.391 . S
C1367 H1355 0.950 . S
C1367 C1363 1.393 . S
C1367 C1366 1.391 . S
H1368 C1376 0.950 . S
H1369 C1381 0.950 . S
H1370 C1378 0.950 . S
H1371 C1380 0.950 . S
H1372 C1382 0.950 . S
H1373 C1384 0.950 . S
H1374 C1386 0.950 . S
H1375 C1387 0.950 . S
C1376 H1368 0.950 . S
C1376 C1377 1.386 . S
C1376 C1378 1.391 . S
C1377 C1376 1.386 . S
C1377 C1381 1.393 . S
C1378 H1370 0.950 . S
C1378 C1376 1.391 . S
C1378 C1379 1.400 . S
C1379 C1378 1.400 . S
C1379 C1380 1.398 . S
C1379 C1385 1.491 . S
C1380 H1371 0.950 . S
C1380 C1379 1.398 . S
C1380 C1381 1.391 . S
C1381 H1369 0.950 . S
C1381 C1377 1.393 . S
C1381 C1380 1.391 . S
C1382 H1372 0.950 . S
C1382 C1383 1.386 . S
C1382 C1384 1.391 . S
C1383 C1382 1.386 . S
C1383 C1387 1.393 . S
C1384 H1373 0.950 . S
C1384 C1382 1.391 . S
C1384 C1385 1.400 . S
C1385 C1379 1.491 . S
C1385 C1384 1.400 . S
C1385 C1386 1.398 . S
C1386 H1374 0.950 . S
C1386 C1385 1.398 . S
C1386 C1387 1.391 . S
C1387 H1375 0.950 . S
C1387 C1383 1.393 . S
C1387 C1386 1.391 . S
H1388 C1396 0.950 . S
H1389 C1401 0.950 . S
H1390 C1398 0.950 . S
H1391 C1400 0.950 . S
H1392 C1402 0.950 . S
H1393 C1404 0.950 . S
H1394 C1406 0.950 . S
H1395 C1407 0.950 . S
C1396 H1388 0.950 . S
C1396 C1397 1.386 . S
C1396 C1398 1.391 1_455 S
C1397 C1396 1.386 . S
C1397 C1401 1.393 . S
C1398 H1390 0.950 . S
C1398 C1396 1.391 1_655 S
C1398 C1399 1.400 . S
C1399 C1398 1.400 . S
C1399 C1400 1.398 1_655 S
C1399 C1405 1.491 . S
C1400 H1391 0.950 . S
C1400 C1399 1.398 1_455 S
C1400 C1401 1.391 . S
C1401 H1389 0.950 . S
C1401 C1397 1.393 . S
C1401 C1400 1.391 . S
C1402 H1392 0.950 . S
C1402 C1403 1.386 . S
C1402 C1404 1.391 . S
C1403 C1402 1.386 . S
C1403 C1407 1.393 . S
C1404 H1393 0.950 . S
C1404 C1402 1.391 . S
C1404 C1405 1.400 . S
C1405 C1399 1.491 . S
C1405 C1404 1.400 . S
C1405 C1406 1.398 . S
C1406 H1394 0.950 . S
C1406 C1405 1.398 . S
C1406 C1407 1.391 . S
C1407 H1395 0.950 . S
C1407 C1403 1.393 . S
C1407 C1406 1.391 . S
H1408 C1416 0.950 . S
H1409 C1421 0.950 . S
H1410 C1418 0.950 . S
H1411 C1420 0.950 . S
H1412 C1422 0.950 . S
H1413 C1424 0.950 . S
H1414 C1426 0.950 . S
H1415 C1427 0.950 . S
C1416 H1408 0.950 . S
C1416 C1417 1.386 . S
C1416 C1418 1.391 . S
C1417 C1416 1.386 . S
C1417 C1421 1.393 . S
C1418 H1410 0.950 . S
C1418 C1416 1.391 . S
C1418 C1419 1.400 . S
C1419 C1418 1.400 . S
C1419 C1420 1.398 . S
C1419 C1425 1.491 . S
C1420 H1411 0.950 . S
C1420 C1419 1.398 . S
C1420 C1421 1.391 . S
C1421 H1409 0.950 . S
C1421 C1417 1.393 . S
C1421 C1420 1.391 . S
C1422 H1412 0.950 . S
C1422 C1423 1.386 . S
C1422 C1424 1.391 . S
C1423 C1422 1.386 . S
C1423 C1427 1.393 . S
C1424 H1413 0.950 . S
C1424 C1422 1.391 . S
C1424 C1425 1.400 . S
C1425 C1419 1.491 . S
C1425 C1424 1.400 . S
C1425 C1426 1.398 . S
C1426 H1414 0.950 . S
C1426 C1425 1.398 . S
C1426 C1427 1.391 . S
C1427 H1415 0.950 . S
C1427 C1423 1.393 . S
C1427 C1426 1.391 . S
H1428 C1436 0.950 . S
H1429 C1441 0.950 . S
H1430 C1438 0.950 . S
H1431 C1440 0.999 . S
H1432 C1442 0.950 . S
H1433 C1444 0.950 . S
H1434 C1446 0.950 . S
H1435 C1447 0.950 . S
C1436 H1428 0.950 . S
C1436 C1437 1.386 . S
C1436 C1438 1.391 . S
C1437 C1436 1.386 . S
C1437 C1441 1.393 . S
C1438 H1430 0.950 . S
C1438 C1436 1.391 . S
C1438 C1439 1.400 1_655 S
C1439 C1438 1.400 1_455 S
C1439 C1440 1.400 . S
C1439 C1445 1.491 . S
C1440 H1431 0.999 . S
C1440 C1439 1.400 . S
C1440 C1441 1.343 1_455 S
C1441 H1429 0.950 . S
C1441 C1437 1.393 . S
C1441 C1440 1.343 1_655 S
C1442 H1432 0.950 . S
C1442 C1443 1.386 . S
C1442 C1444 1.391 . S
C1443 C1442 1.386 . S
C1443 C1447 1.393 . S
C1444 H1433 0.950 . S
C1444 C1442 1.391 . S
C1444 C1445 1.400 . S
C1445 C1439 1.491 . S
C1445 C1444 1.400 . S
C1445 C1446 1.398 . S
C1446 H1434 0.950 . S
C1446 C1445 1.398 . S
C1446 C1447 1.391 . S
C1447 H1435 0.950 . S
C1447 C1443 1.393 . S
C1447 C1446 1.391 . S
H1448 C1456 0.950 . S
H1449 C1461 0.950 . S
H1450 C1458 0.950 . S
H1451 C1460 0.950 . S
H1452 C1462 0.950 . S
H1453 C1464 0.950 . S
H1454 C1466 0.950 . S
H1455 C1467 0.950 . S
C1456 H1448 0.950 . S
C1456 C1457 1.386 . S
C1456 C1458 1.391 . S
C1457 C1456 1.386 . S
C1457 C1461 1.393 . S
C1458 H1450 0.950 . S
C1458 C1456 1.391 . S
C1458 C1459 1.400 . S
C1459 C1458 1.400 . S
C1459 C1460 1.398 . S
C1459 C1465 1.491 . S
C1460 H1451 0.950 . S
C1460 C1459 1.398 . S
C1460 C1461 1.391 . S
C1461 H1449 0.950 . S
C1461 C1457 1.393 . S
C1461 C1460 1.391 . S
C1462 H1452 0.950 . S
C1462 C1463 1.386 . S
C1462 C1464 1.391 . S
C1463 C1462 1.386 . S
C1463 C1467 1.393 . S
C1464 H1453 0.950 . S
C1464 C1462 1.391 . S
C1464 C1465 1.400 . S
C1465 C1459 1.491 . S
C1465 C1464 1.400 . S
C1465 C1466 1.398 . S
C1466 H1454 0.950 . S
C1466 C1465 1.398 . S
C1466 C1467 1.391 . S
C1467 H1455 0.950 . S
C1467 C1463 1.393 . S
C1467 C1466 1.391 . S
H1468 C1476 0.950 . S
H1469 C1481 0.950 . S
H1470 C1478 0.950 . S
H1471 C1480 0.941 1_554 S
H1472 C1482 0.950 . S
H1473 C1484 0.950 . S
H1474 C1486 0.950 . S
H1475 C1487 0.950 . S
C1476 H1468 0.950 . S
C1476 C1477 1.386 1_556 S
C1476 C1478 1.391 . S
C1477 C1476 1.386 1_554 S
C1477 C1481 1.393 . S
C1478 H1470 0.950 . S
C1478 C1476 1.391 . S
C1478 C1479 1.400 . S
C1479 C1478 1.400 . S
C1479 C1480 1.398 . S
C1479 C1485 1.491 . S
C1480 H1471 0.941 1_556 S
C1480 C1479 1.398 . S
C1480 C1481 1.391 1_556 S
C1481 H1469 0.950 . S
C1481 C1477 1.393 . S
C1481 C1480 1.391 1_554 S
C1482 H1472 0.950 . S
C1482 C1483 1.386 . S
C1482 C1484 1.391 . S
C1483 C1482 1.386 . S
C1483 C1487 1.393 . S
C1484 H1473 0.950 . S
C1484 C1482 1.391 . S
C1484 C1485 1.400 . S
C1485 C1479 1.491 . S
C1485 C1484 1.400 . S
C1485 C1486 1.398 . S
C1486 H1474 0.950 . S
C1486 C1485 1.398 . S
C1486 C1487 1.391 . S
C1487 H1475 0.950 . S
C1487 C1483 1.393 . S
C1487 C1486 1.391 . S
H1488 C1496 0.950 . S
H1489 C1501 0.950 . S
H1490 C1498 0.950 . S
H1491 C1500 0.950 . S
H1492 C1502 0.950 . S
H1493 C1504 0.950 . S
H1494 C1506 0.950 . S
H1495 C1507 0.950 . S
C1496 H1488 0.950 . S
C1496 C1497 1.386 . S
C1496 C1498 1.391 . S
C1497 C1496 1.386 . S
C1497 C1501 1.393 . S
C1498 H1490 0.950 . S
C1498 C1496 1.391 . S
C1498 C1499 1.400 . S
C1499 C1498 1.400 . S
C1499 C1500 1.398 . S
C1499 C1505 1.491 . S
C1500 H1491 0.950 . S
C1500 C1499 1.398 . S
C1500 C1501 1.391 . S
C1501 H1489 0.950 . S
C1501 C1497 1.393 . S
C1501 C1500 1.391 . S
C1502 H1492 0.950 . S
C1502 C1503 1.386 . S
C1502 C1504 1.391 . S
C1503 C1502 1.386 . S
C1503 C1507 1.393 . S
C1504 H1493 0.950 . S
C1504 C1502 1.391 . S
C1504 C1505 1.400 . S
C1505 C1499 1.491 . S
C1505 C1504 1.400 . S
C1505 C1506 1.398 . S
C1506 H1494 0.950 . S
C1506 C1505 1.398 . S
C1506 C1507 1.391 . S
C1507 H1495 0.950 . S
C1507 C1503 1.393 . S
C1507 C1506 1.391 . S
H1508 C1516 0.950 . S
H1509 C1521 0.950 . S
H1510 C1518 0.950 . S
H1511 C1520 0.915 1_556 S
H1512 C1522 0.950 . S
H1513 C1524 0.950 . S
H1514 C1526 0.950 . S
H1515 C1527 0.950 . S
C1516 H1508 0.950 . S
C1516 C1517 1.386 . S
C1516 C1518 1.391 . S
C1517 C1516 1.386 . S
C1517 C1521 1.393 . S
C1518 H1510 0.950 . S
C1518 C1516 1.391 . S
C1518 C1519 1.400 . S
C1519 C1518 1.400 . S
C1519 C1520 1.400 . S
C1519 C1525 1.491 1_554 S
C1520 H1511 0.915 1_554 S
C1520 C1519 1.400 . S
C1520 C1521 1.424 . S
C1521 H1509 0.950 . S
C1521 C1517 1.393 . S
C1521 C1520 1.424 . S
C1522 H1512 0.950 . S
C1522 C1523 1.386 . S
C1522 C1524 1.391 . S
C1523 C1522 1.386 . S
C1523 C1527 1.393 . S
C1524 H1513 0.950 . S
C1524 C1522 1.391 . S
C1524 C1525 1.400 . S
C1525 C1519 1.491 1_556 S
C1525 C1524 1.400 . S
C1525 C1526 1.398 . S
C1526 H1514 0.950 . S
C1526 C1525 1.398 . S
C1526 C1527 1.391 . S
C1527 H1515 0.950 . S
C1527 C1523 1.393 . S
C1527 C1526 1.391 . S
H1528 C1536 0.950 . S
H1529 C1541 0.950 . S
H1530 C1538 0.950 . S
H1531 C1540 0.950 . S
H1532 C1542 0.950 . S
H1533 C1544 0.950 . S
H1534 C1546 0.950 . S
H1535 C1547 0.950 . S
C1536 H1528 0.950 . S
C1536 C1537 1.386 . S
C1536 C1538 1.391 . S
C1537 C1536 1.386 . S
C1537 C1541 1.393 . S
C1538 H1530 0.950 . S
C1538 C1536 1.391 . S
C1538 C1539 1.400 . S
C1539 C1538 1.400 . S
C1539 C1540 1.398 . S
C1539 C1545 1.491 . S
C1540 H1531 0.950 . S
C1540 C1539 1.398 . S
C1540 C1541 1.391 . S
C1541 H1529 0.950 . S
C1541 C1537 1.393 . S
C1541 C1540 1.391 . S
C1542 H1532 0.950 . S
C1542 C1543 1.386 . S
C1542 C1544 1.391 . S
C1543 C1542 1.386 . S
C1543 C1547 1.393 . S
C1544 H1533 0.950 . S
C1544 C1542 1.391 . S
C1544 C1545 1.400 . S
C1545 C1539 1.491 . S
C1545 C1544 1.400 . S
C1545 C1546 1.398 . S
C1546 H1534 0.950 . S
C1546 C1545 1.398 . S
C1546 C1547 1.391 . S
C1547 H1535 0.950 . S
C1547 C1543 1.393 . S
C1547 C1546 1.391 . S
H1548 C1556 0.950 . S
H1549 C1561 0.950 . S
H1550 C1558 0.950 . S
H1551 C1560 0.950 . S
H1552 C1562 0.950 . S
H1553 C1564 0.950 . S
H1554 C1566 0.950 . S
H1555 C1567 0.950 . S
C1556 H1548 0.950 . S
C1556 C1557 1.386 . S
C1556 C1558 1.391 1_556 S
C1557 C1556 1.386 . S
C1557 C1561 1.393 1_556 S
C1558 H1550 0.950 . S
C1558 C1556 1.391 1_554 S
C1558 C1559 1.400 . S
C1559 C1558 1.400 . S
C1559 C1560 1.398 . S
C1559 C1565 1.491 . S
C1560 H1551 0.950 . S
C1560 C1559 1.398 . S
C1560 C1561 1.391 . S
C1561 H1549 0.950 . S
C1561 C1557 1.393 1_554 S
C1561 C1560 1.391 . S
C1562 H1552 0.950 . S
C1562 C1563 1.386 . S
C1562 C1564 1.391 . S
C1563 C1562 1.386 . S
C1563 C1567 1.393 . S
C1564 H1553 0.950 . S
C1564 C1562 1.391 . S
C1564 C1565 1.400 . S
C1565 C1559 1.491 . S
C1565 C1564 1.400 . S
C1565 C1566 1.398 . S
C1566 H1554 0.950 . S
C1566 C1565 1.398 . S
C1566 C1567 1.391 . S
C1567 H1555 0.950 . S
C1567 C1563 1.393 . S
C1567 C1566 1.391 . S
H1568 C1576 0.950 . S
H1569 C1581 0.950 . S
H1570 C1578 0.950 . S
H1571 C1580 0.950 . S
H1572 C1582 0.950 . S
H1573 C1584 0.950 . S
H1574 C1586 0.950 . S
H1575 C1587 0.950 . S
C1576 H1568 0.950 . S
C1576 C1577 1.386 . S
C1576 C1578 1.391 . S
C1577 C1576 1.386 . S
C1577 C1581 1.393 . S
C1578 H1570 0.950 . S
C1578 C1576 1.391 . S
C1578 C1579 1.400 . S
C1579 C1578 1.400 . S
C1579 C1580 1.398 . S
C1579 C1585 1.491 . S
C1580 H1571 0.950 . S
C1580 C1579 1.398 . S
C1580 C1581 1.391 . S
C1581 H1569 0.950 . S
C1581 C1577 1.393 . S
C1581 C1580 1.391 . S
C1582 H1572 0.950 . S
C1582 C1583 1.386 . S
C1582 C1584 1.391 . S
C1583 C1582 1.386 . S
C1583 C1587 1.393 . S
C1584 H1573 0.950 . S
C1584 C1582 1.391 . S
C1584 C1585 1.400 . S
C1585 C1579 1.491 . S
C1585 C1584 1.400 . S
C1585 C1586 1.398 . S
C1586 H1574 0.950 . S
C1586 C1585 1.398 . S
C1586 C1587 1.391 . S
C1587 H1575 0.950 . S
C1587 C1583 1.393 . S
C1587 C1586 1.391 . S
H1588 C1596 0.950 1_556 S
H1589 C1601 0.950 . S
H1590 C1598 0.950 . S
H1591 C1600 0.950 . S
H1592 C1602 0.950 . S
H1593 C1604 0.950 . S
H1594 C1606 0.950 . S
H1595 C1607 0.950 . S
C1596 H1588 0.950 1_554 S
C1596 C1597 1.386 . S
C1596 C1598 1.391 . S
C1597 C1596 1.386 . S
C1597 C1601 1.393 . S
C1598 H1590 0.950 . S
C1598 C1596 1.391 . S
C1598 C1599 1.400 . S
C1599 C1598 1.400 . S
C1599 C1600 1.398 . S
C1599 C1605 1.491 . S
C1600 H1591 0.950 . S
C1600 C1599 1.398 . S
C1600 C1601 1.391 . S
C1601 H1589 0.950 . S
C1601 C1597 1.393 . S
C1601 C1600 1.391 . S
C1602 H1592 0.950 . S
C1602 C1603 1.386 . S
C1602 C1604 1.391 . S
C1603 C1602 1.386 . S
C1603 C1607 1.393 . S
C1604 H1593 0.950 . S
C1604 C1602 1.391 . S
C1604 C1605 1.400 . S
C1605 C1599 1.491 . S
C1605 C1604 1.400 . S
C1605 C1606 1.398 . S
C1606 H1594 0.950 . S
C1606 C1605 1.398 . S
C1606 C1607 1.391 . S
C1607 H1595 0.950 . S
C1607 C1603 1.393 . S
C1607 C1606 1.391 . S
H1608 C1616 0.950 . S
H1609 C1621 0.950 . S
H1610 C1618 0.950 . S
H1611 C1620 0.950 . S
H1612 C1622 0.950 . S
H1613 C1624 0.950 . S
H1614 C1626 0.950 . S
H1615 C1627 0.950 . S
C1616 H1608 0.950 . S
C1616 C1617 1.386 . S
C1616 C1618 1.391 . S
C1617 C1616 1.386 . S
C1617 C1621 1.393 . S
C1618 H1610 0.950 . S
C1618 C1616 1.391 . S
C1618 C1619 1.400 . S
C1619 C1618 1.400 . S
C1619 C1620 1.398 . S
C1619 C1625 1.491 . S
C1620 H1611 0.950 . S
C1620 C1619 1.398 . S
C1620 C1621 1.391 . S
C1621 H1609 0.950 . S
C1621 C1617 1.393 . S
C1621 C1620 1.391 . S
C1622 H1612 0.950 . S
C1622 C1623 1.386 . S
C1622 C1624 1.391 . S
C1623 C1622 1.386 . S
C1623 C1627 1.393 . S
C1624 H1613 0.950 . S
C1624 C1622 1.391 . S
C1624 C1625 1.400 . S
C1625 C1619 1.491 . S
C1625 C1624 1.400 . S
C1625 C1626 1.398 . S
C1626 H1614 0.950 . S
C1626 C1625 1.398 . S
C1626 C1627 1.391 . S
C1627 H1615 0.950 . S
C1627 C1623 1.393 . S
C1627 C1626 1.391 . S
H1628 C1636 0.950 . S
H1629 C1641 0.950 . S
H1630 C1638 0.950 . S
H1631 C1640 0.950 . S
H1632 C1642 0.950 . S
H1633 C1644 0.950 . S
H1634 C1646 0.950 . S
H1635 C1647 0.950 . S
C1636 H1628 0.950 . S
C1636 C1637 1.386 . S
C1636 C1638 1.391 . S
C1637 C1636 1.386 . S
C1637 C1641 1.393 . S
C1638 H1630 0.950 . S
C1638 C1636 1.391 . S
C1638 C1639 1.400 . S
C1639 C1638 1.400 . S
C1639 C1640 1.398 . S
C1639 C1645 1.491 . S
C1640 H1631 0.950 . S
C1640 C1639 1.398 . S
C1640 C1641 1.391 . S
C1641 H1629 0.950 . S
C1641 C1637 1.393 . S
C1641 C1640 1.391 . S
C1642 H1632 0.950 . S
C1642 C1643 1.386 . S
C1642 C1644 1.391 . S
C1643 C1642 1.386 . S
C1643 C1647 1.393 . S
C1644 H1633 0.950 . S
C1644 C1642 1.391 . S
C1644 C1645 1.400 . S
C1645 C1639 1.491 . S
C1645 C1644 1.400 . S
C1645 C1646 1.398 . S
C1646 H1634 0.950 . S
C1646 C1645 1.398 . S
C1646 C1647 1.391 . S
C1647 H1635 0.950 . S
C1647 C1643 1.393 . S
C1647 C1646 1.391 . S
H1648 C1656 0.950 . S
H1649 C1661 0.950 . S
H1650 C1658 0.950 . S
H1651 C1660 0.950 . S
H1652 C1662 0.950 . S
H1653 C1664 0.950 . S
H1654 C1666 0.950 . S
H1655 C1667 0.950 . S
C1656 H1648 0.950 . S
C1656 C1657 1.386 . S
C1656 C1658 1.391 . S
C1657 C1656 1.386 . S
C1657 C1661 1.393 . S
C1658 H1650 0.950 . S
C1658 C1656 1.391 . S
C1658 C1659 1.400 . S
C1659 C1658 1.400 . S
C1659 C1660 1.398 . S
C1659 C1665 1.491 . S
C1660 H1651 0.950 . S
C1660 C1659 1.398 . S
C1660 C1661 1.391 . S
C1661 H1649 0.950 . S
C1661 C1657 1.393 . S
C1661 C1660 1.391 . S
C1662 H1652 0.950 . S
C1662 C1663 1.386 . S
C1662 C1664 1.391 . S
C1663 C1662 1.386 . S
C1663 C1667 1.393 . S
C1664 H1653 0.950 . S
C1664 C1662 1.391 . S
C1664 C1665 1.400 . S
C1665 C1659 1.491 . S
C1665 C1664 1.400 . S
C1665 C1666 1.398 . S
C1666 H1654 0.950 . S
C1666 C1665 1.398 . S
C1666 C1667 1.391 . S
C1667 H1655 0.950 . S
C1667 C1663 1.393 . S
C1667 C1666 1.391 . S
H1668 C1676 0.950 . S
H1669 C1681 0.950 . S
H1670 C1678 0.950 . S
H1671 C1680 0.950 . S
H1672 C1682 0.950 . S
H1673 C1684 0.950 . S
H1674 C1686 0.950 . S
H1675 C1687 0.950 . S
C1676 H1668 0.950 . S
C1676 C1677 1.386 . S
C1676 C1678 1.391 . S
C1677 C1676 1.386 . S
C1677 C1681 1.393 . S
C1678 H1670 0.950 . S
C1678 C1676 1.391 . S
C1678 C1679 1.400 . S
C1679 C1678 1.400 . S
C1679 C1680 1.398 . S
C1679 C1685 1.491 . S
C1680 H1671 0.950 . S
C1680 C1679 1.398 . S
C1680 C1681 1.391 . S
C1681 H1669 0.950 . S
C1681 C1677 1.393 . S
C1681 C1680 1.391 . S
C1682 H1672 0.950 . S
C1682 C1683 1.386 . S
C1682 C1684 1.391 . S
C1683 C1682 1.386 . S
C1683 C1687 1.393 . S
C1684 H1673 0.950 . S
C1684 C1682 1.391 . S
C1684 C1685 1.400 . S
C1685 C1679 1.491 . S
C1685 C1684 1.400 . S
C1685 C1686 1.398 . S
C1686 H1674 0.950 . S
C1686 C1685 1.398 . S
C1686 C1687 1.391 . S
C1687 H1675 0.950 . S
C1687 C1683 1.393 . S
C1687 C1686 1.391 . S
H1688 C1696 0.950 . S
H1689 C1701 0.950 . S
H1690 C1698 0.950 . S
H1691 C1700 0.950 . S
H1692 C1702 0.950 . S
H1693 C1704 0.950 . S
H1694 C1706 0.950 . S
H1695 C1707 0.950 . S
C1696 H1688 0.950 . S
C1696 C1697 1.386 . S
C1696 C1698 1.391 . S
C1697 C1696 1.386 . S
C1697 C1701 1.393 . S
C1698 H1690 0.950 . S
C1698 C1696 1.391 . S
C1698 C1699 1.400 . S
C1699 C1698 1.400 . S
C1699 C1700 1.398 . S
C1699 C1705 1.491 . S
C1700 H1691 0.950 . S
C1700 C1699 1.398 . S
C1700 C1701 1.391 . S
C1701 H1689 0.950 . S
C1701 C1697 1.393 . S
C1701 C1700 1.391 . S
C1702 H1692 0.950 . S
C1702 C1703 1.386 . S
C1702 C1704 1.391 . S
C1703 C1702 1.386 . S
C1703 C1707 1.393 . S
C1704 H1693 0.950 . S
C1704 C1702 1.391 . S
C1704 C1705 1.400 . S
C1705 C1699 1.491 . S
C1705 C1704 1.400 . S
C1705 C1706 1.398 . S
C1706 H1694 0.950 . S
C1706 C1705 1.398 . S
C1706 C1707 1.391 . S
C1707 H1695 0.950 . S
C1707 C1703 1.393 . S
C1707 C1706 1.391 . S
H1708 C1716 0.950 . S
H1709 C1721 0.950 . S
H1710 C1718 0.950 . S
H1711 C1720 0.950 . S
H1712 C1722 0.950 . S
H1713 C1724 0.950 . S
H1714 C1726 0.950 . S
H1715 C1727 0.950 . S
C1716 H1708 0.950 . S
C1716 C1717 1.386 . S
C1716 C1718 1.391 . S
C1717 C1716 1.386 . S
C1717 C1721 1.393 . S
C1718 H1710 0.950 . S
C1718 C1716 1.391 . S
C1718 C1719 1.400 . S
C1719 C1718 1.400 . S
C1719 C1720 1.398 . S
C1719 C1725 1.491 . S
C1720 H1711 0.950 . S
C1720 C1719 1.398 . S
C1720 C1721 1.391 . S
C1721 H1709 0.950 . S
C1721 C1717 1.393 . S
C1721 C1720 1.391 . S
C1722 H1712 0.950 . S
C1722 C1723 1.386 . S
C1722 C1724 1.391 . S
C1723 C1722 1.386 . S
C1723 C1727 1.393 . S
C1724 H1713 0.950 . S
C1724 C1722 1.391 . S
C1724 C1725 1.400 . S
C1725 C1719 1.491 . S
C1725 C1724 1.400 . S
C1725 C1726 1.398 . S
C1726 H1714 0.950 . S
C1726 C1725 1.398 . S
C1726 C1727 1.391 . S
C1727 H1715 0.950 . S
C1727 C1723 1.393 . S
C1727 C1726 1.391 . S
H1728 C1736 0.950 . S
H1729 C1741 0.950 . S
H1730 C1738 0.950 . S
H1731 C1740 0.950 . S
H1732 C1742 0.950 . S
H1733 C1744 0.950 . S
H1734 C1746 0.950 . S
H1735 C1747 0.950 . S
C1736 H1728 0.950 . S
C1736 C1737 1.386 . S
C1736 C1738 1.391 . S
C1737 C1736 1.386 . S
C1737 C1741 1.393 . S
C1738 H1730 0.950 . S
C1738 C1736 1.391 . S
C1738 C1739 1.400 . S
C1739 C1738 1.400 . S
C1739 C1740 1.398 . S
C1739 C1745 1.491 . S
C1740 H1731 0.950 . S
C1740 C1739 1.398 . S
C1740 C1741 1.391 . S
C1741 H1729 0.950 . S
C1741 C1737 1.393 . S
C1741 C1740 1.391 . S
C1742 H1732 0.950 . S
C1742 C1743 1.386 . S
C1742 C1744 1.391 . S
C1743 C1742 1.386 . S
C1743 C1747 1.393 . S
C1744 H1733 0.950 . S
C1744 C1742 1.391 . S
C1744 C1745 1.400 . S
C1745 C1739 1.491 . S
C1745 C1744 1.400 . S
C1745 C1746 1.398 . S
C1746 H1734 0.950 . S
C1746 C1745 1.398 . S
C1746 C1747 1.391 . S
C1747 H1735 0.950 . S
C1747 C1743 1.393 . S
C1747 C1746 1.391 . S
H1748 C1756 0.950 . S
H1749 C1761 0.950 . S
H1750 C1758 0.950 . S
H1751 C1760 0.950 . S
H1752 C1762 0.950 . S
H1753 C1764 0.950 1_545 S
H1754 C1766 0.950 1_545 S
H1755 C1767 0.950 . S
C1756 H1748 0.950 . S
C1756 C1757 1.386 . S
C1756 C1758 1.391 . S
C1757 C1756 1.386 . S
C1757 C1761 1.393 . S
C1758 H1750 0.950 . S
C1758 C1756 1.391 . S
C1758 C1759 1.400 . S
C1759 C1758 1.400 . S
C1759 C1760 1.398 . S
C1759 C1765 1.491 . S
C1760 H1751 0.950 . S
C1760 C1759 1.398 . S
C1760 C1761 1.391 . S
C1761 H1749 0.950 . S
C1761 C1757 1.393 . S
C1761 C1760 1.391 . S
C1762 H1752 0.950 . S
C1762 C1763 1.386 . S
C1762 C1764 1.391 . S
C1763 C1762 1.386 . S
C1763 C1767 1.393 . S
C1764 H1753 0.950 1_565 S
C1764 C1762 1.391 . S
C1764 C1765 1.400 1_565 S
C1765 C1759 1.491 . S
C1765 C1764 1.400 1_545 S
C1765 C1766 1.398 1_545 S
C1766 H1754 0.950 1_565 S
C1766 C1765 1.398 1_565 S
C1766 C1767 1.391 . S
C1767 H1755 0.950 . S
C1767 C1763 1.393 . S
C1767 C1766 1.391 . S
C823 C648 1.616 . S
C817 C202 1.622 . S
C843 C663 1.797 . S
C837 C261 1.771 . S
C857 C282 1.728 . S
C863 C676 1.734 . S
C883 C690 1.603 . S
C877 C162 1.577 . S
C903 C702 1.643 . S
C897 C402 1.714 . S
C923 C716 1.434 . S
C917 C482 1.325 . S
C937 C442 1.792 . S
C943 C730 1.760 . S
C963 C745 1.589 . S
C957 C381 1.500 . S
C977 C461 1.739 . S
C983 C761 1.729 . S
C1003 C774 1.582 . S
C997 C362 1.539 . S
C1017 C415 1.584 . S
C1023 C759 1.538 . S
C1043 C772 1.659 . S
C1037 C495 1.600 . S
C1057 C301 1.920 . S
C1063 C788 1.912 . S
C1077 C175 1.661 . S
C1083 C787 1.678 . S
C1097 C215 1.727 . S
C1103 C786 1.654 . S
C1117 C242 1.610 . S
C1123 C789 1.650 . S
C1137 C141 1.752 . S
C1143 C691 1.741 . S
C1157 C581 1.540 . S
C1163 C689 1.514 . S
C1183 C649 1.548 . S
C1177 C615 1.577 . S
C1203 C660 1.771 . S
C1197 C335 1.784 . S
C1217 C181 1.668 . S
C1223 C705 1.709 . S
C1243 C746 1.899 . S
C1237 C455 1.904 . S
C1263 C703 1.590 . S
C1257 C375 1.573 1_545 S
C1283 C731 1.658 . S
C1277 C501 1.565 . S
C1303 C732 1.625 . S
C1297 C562 1.622 . S
C1317 C621 1.763 . S
C1323 C747 1.790 . S
C1337 C322 1.735 . S
C1343 C704 1.725 . S
C1363 C718 1.597 . S
C1357 C522 1.576 . S
C1377 C122 1.708 . S
C1383 C674 1.661 . S
C1403 C688 1.440 . S
C1397 C2 1.342 . S
C1423 C646 1.768 . S
C1417 C42 1.796 . S
C1443 C661 1.587 . S
C1437 C101 1.530 . S
C1457 C61 1.740 . S
C1463 C775 1.726 . S
C1477 C82 1.524 . S
C1483 C760 1.578 . S
C1497 C135 1.582 . S
C1503 C773 1.529 . S
C1517 C15 1.624 . S
C1523 C758 1.657 . S
C1543 C802 1.912 . S
C1537 C341 1.920 . S
C1563 C801 1.663 . S
C1557 C535 1.672 . S
C1583 C800 1.676 . S
C1577 C575 1.729 . S
C1597 C602 1.613 1_554 S
C1603 C803 1.652 . S
C1617 C421 1.752 . S
C1623 C719 1.740 . S
C1643 C717 1.522 . S
C1637 C221 1.529 . S
C1663 C733 1.563 . S
C1657 C255 1.581 . S
C1683 C744 1.773 . S
C1677 C295 1.787 . S
C1697 C541 1.660 . S
C1703 C677 1.714 . S
C1723 C662 1.900 . S
C1717 C55 1.903 . S
C1737 C95 1.566 . S
C1743 C675 1.589 . S
C1763 C647 1.654 . S
C1757 C21 1.577 . S
