# Generated by pormake.
# Topology nia, (6,6)-cn, num edge types: 1
# Building blocks:
#     Node 0, Type 0, BuildingBlock: INOVEN_clean_sbu_0, # of connection points: 6
#     Node 1, Type 0, BuildingBlock: INOVEN_clean_sbu_0, # of connection points: 6
#     Node 2, Type 1, BuildingBlock: MIDCAF_clean_sbu_0, # of connection points: 6
#     Node 3, Type 1, BuildingBlock: MIDCAF_clean_sbu_0, # of connection points: 6
#     Edge 4, Type (0, 1), BuildingBlock: KIFKEQ_clean_linker_1, # of connection points: 2
#     Edge 5, Type (0, 1), BuildingBlock: KIFKEQ_clean_linker_1, # of connection points: 2
#     Edge 6, Type (0, 1), BuildingBlock: KIFKEQ_clean_linker_1, # of connection points: 2
#     Edge 7, Type (0, 1), BuildingBlock: KIFKEQ_clean_linker_1, # of connection points: 2
#     Edge 8, Type (0, 1), BuildingBlock: KIFKEQ_clean_linker_1, # of connection points: 2
#     Edge 9, Type (0, 1), BuildingBlock: KIFKEQ_clean_linker_1, # of connection points: 2
#     Edge 10, Type (0, 1), BuildingBlock: KIFKEQ_clean_linker_1, # of connection points: 2
#     Edge 11, Type (0, 1), BuildingBlock: KIFKEQ_clean_linker_1, # of connection points: 2
#     Edge 12, Type (0, 1), BuildingBlock: KIFKEQ_clean_linker_1, # of connection points: 2
#     Edge 13, Type (0, 1), BuildingBlock: KIFKEQ_clean_linker_1, # of connection points: 2
#     Edge 14, Type (0, 1), BuildingBlock: KIFKEQ_clean_linker_1, # of connection points: 2
#     Edge 15, Type (0, 1), BuildingBlock: KIFKEQ_clean_linker_1, # of connection points: 2
# Relax obj value: 0.322
# Max RMSD: 0.268
# Mean RMSD: 0.250
data_MOF--net-nia--node1-INOVEN_clean_sbu_0--node2-MIDCAF_clean_sbu_0--edge1-KIFKEQ_clean_linker_1
_symmetry_space_group_name_H-M    P1
_symmetry_Int_Tables_number       1
_symmetry_cell_setting            triclinic
loop_
_symmetry_equiv_pos_as_xyz
'x, y, z'
_cell_length_a     25.78681
_cell_length_b     29.308265
_cell_length_c     33.220013
_cell_angle_alpha  67.135038
_cell_angle_beta   102.32881
_cell_angle_gamma 127.77376
loop_
_atom_site_label
_atom_site_type_symbol
_atom_site_fract_x
_atom_site_fract_y
_atom_site_fract_z
_atom_type_partial_charge
Gd0 Gd 0.07863 0.03208 0.07006 0.0
Gd1 Gd 0.97338 0.91899 1.04992 0.0
C2 C 0.97115 0.03685 1.00788 0.0
C3 C 0.18431 0.1242 0.08886 0.0
C4 C 0.19725 0.16592 0.10986 0.0
C5 C 0.15685 0.18507 0.10301 0.0
C6 C 0.24666 0.18188 0.14048 0.0
C7 C 0.21488 0.23532 0.15776 0.0
C8 C 0.25536 0.21614 0.1643 0.0
C9 C 0.16588 0.21981 0.12652 0.0
C10 C 0.96609 -0.03142 0.1162 0.0
C11 C 0.07676 0.91209 0.11457 0.0
C12 C 0.87032 0.82693 1.02932 0.0
C13 C 0.86171 0.79236 1.00315 0.0
C14 C 0.90875 0.81987 0.97065 0.0
C15 C 0.80679 0.73152 1.01074 0.0
C16 C 0.84616 0.72567 0.95365 0.0
C17 C 0.79904 0.69838 0.98622 0.0
C18 C 0.901 0.78689 0.94607 0.0
C19 C 0.08705 -0.01435 1.00337 0.0
O20 O 0.03444 0.07116 1.01504 0.0
O21 O 0.93575 -0.0233 1.02586 0.0
O22 O 0.15641 0.06754 0.11462 0.0
O23 O 0.15937 0.12883 1.05001 0.0
O24 O 0.0072 0.02755 0.10258 0.0
O25 O 0.98825 0.94478 0.10791 0.0
O26 O 0.01353 0.87904 0.10739 0.0
O27 O 0.11375 -0.0279 0.09566 0.0
O28 O 0.89196 0.88373 1.00758 0.0
O29 O 0.89911 0.82071 0.06647 0.0
O30 O 0.04803 0.92663 1.01716 0.0
O31 O 0.06229 0.00674 1.01208 0.0
H32 H 0.11771 0.17247 0.07997 0.0
H33 H 0.27754 0.16655 0.14672 0.0
H34 H 0.29295 0.2265 0.18846 0.0
H35 H 0.13457 0.23469 0.12005 0.0
H36 H 0.95155 0.86693 0.96421 0.0
H37 H 0.7702 0.70953 1.03584 0.0
H38 H 0.75681 0.65097 0.99341 0.0
H39 H 0.9378 0.80946 0.92098 0.0
Gd40 Gd 0.99138 -0.00091 0.57031 0.0
Gd41 Gd 0.06594 0.95662 0.54566 0.0
C42 C 0.942 0.94127 0.49196 0.0
C43 C 0.95466 0.06232 0.57313 0.0
C44 C 0.92594 0.06692 0.60415 0.0
C45 C 0.96102 0.0866 0.63972 0.0
C46 C 0.86429 0.05609 0.59595 0.0
C47 C 0.87592 0.09029 0.65548 0.0
C48 C 0.83938 0.06733 0.62145 0.0
C49 C 0.93614 0.09809 0.66519 0.0
C50 C 0.94151 0.88027 0.61848 0.0
C51 C 0.11043 0.0052 0.62958 0.0
C52 C 0.11828 0.9062 0.54229 0.0
C53 C 0.13209 0.89001 0.51118 0.0
C54 C 0.15472 0.92938 0.46801 0.0
C55 C 0.1232 0.8339 0.52555 0.0
C56 C 0.16158 0.85708 0.4546 0.0
C57 C 0.13772 0.81754 0.49762 0.0
C58 C 0.16963 0.91312 0.43998 0.0
C59 C 0.09602 0.06898 0.49583 0.0
O60 O 0.9497 -0.01823 0.50598 0.0
O61 O 0.97529 0.91762 0.50768 0.0
O62 O 0.01516 0.07922 0.57903 0.0
O63 O 0.91633 0.01393 0.56079 0.0
O64 O 0.92035 0.90876 0.62241 0.0
O65 O 0.98681 0.91704 0.58974 0.0
O66 O 0.11336 -0.02291 0.60787 0.0
O67 O 0.06959 0.02084 0.61998 0.0
O68 O 0.05629 0.87507 0.55299 0.0
O69 O 0.1523 0.96453 0.5372 0.0
O70 O 0.0979 0.03523 0.48064 0.0
O71 O 0.08319 0.04318 0.53619 0.0
H72 H 0.0087 0.09526 0.64696 0.0
H73 H 0.83622 0.04084 0.56882 0.0
H74 H 0.79233 0.05993 0.6136 0.0
H75 H 0.96564 0.11611 0.69099 0.0
H76 H 0.16145 -0.02721 0.45612 0.0
H77 H 0.10586 0.80297 0.55874 0.0
H78 H 0.13209 0.77459 0.51023 0.0
H79 H 0.18756 0.94437 0.40696 0.0
Zn80 Zn 0.38286 0.69027 0.21501 0.0
Zn81 Zn 0.39657 0.63577 0.38681 0.0
Zn82 Zn 0.39043 0.66142 0.30172 0.0
C83 C 0.5251 0.7112 0.35567 0.0
C84 C 0.32171 0.52378 0.37346 0.0
O85 O 0.3362 0.70405 0.2752 0.0
O86 O 0.33923 0.73025 0.20305 0.0
C87 C 0.51595 0.74848 0.23452 0.0
O88 O 0.49603 0.71326 0.3189 0.0
O89 O 0.49199 0.67678 0.39121 0.0
O90 O 0.34003 0.54558 0.40405 0.0
O91 O 0.33668 0.55984 0.33337 0.0
O92 O 0.4786 0.743 0.20244 0.0
O93 O 0.49193 0.72183 0.27387 0.0
O94 O 0.34006 0.57616 0.28761 0.0
O95 O 0.33019 0.60446 0.21574 0.0
C96 C 0.32057 0.56332 0.25193 0.0
O97 O 0.344 0.69405 0.32021 0.0
O98 O 0.36275 0.67931 0.39083 0.0
C99 C 0.32206 0.72812 0.23689 0.0
C100 C 0.34069 0.69923 0.35622 0.0
Zn101 Zn 0.67566 0.27235 0.90123 0.0
Zn102 Zn 0.65572 0.31869 0.73278 0.0
Zn103 Zn 0.66321 0.29152 0.81826 0.0
C104 C 0.72063 0.42822 0.74481 0.0
C105 C 0.52737 0.23123 0.76685 0.0
O106 O 0.71563 0.24744 0.84532 0.0
O107 O 0.70403 0.21872 0.9169 0.0
C108 C 0.74521 0.39661 0.86373 0.0
O109 O 0.71447 0.39272 0.78452 0.0
O110 O 0.69546 0.40646 0.71406 0.0
O111 O 0.55932 0.26229 0.7309 0.0
O112 O 0.55722 0.23638 0.80305 0.0
O113 O 0.74164 0.35808 0.89988 0.0
O114 O 0.71682 0.37946 0.83022 0.0
O115 O 0.56238 0.23297 0.84708 0.0
O116 O 0.58376 0.23572 0.91454 0.0
C117 C 0.54287 0.22033 0.88509 0.0
O118 O 0.71113 0.26024 0.79986 0.0
O119 O 0.70996 0.2942 0.7276 0.0
C120 C 0.72367 0.21993 0.88458 0.0
C121 C 0.72597 0.2675 0.76214 0.0
H122 H 0.03053 0.79235 0.13709 0.0
H123 H 0.19451 0.96456 0.1534 0.0
H124 H 0.08893 0.74704 0.17496 0.0
H125 H 0.25174 0.91889 0.19277 0.0
H126 H 0.36859 0.84623 0.19564 0.0
H127 H 0.30647 0.88907 0.17288 0.0
H128 H 0.13316 0.71251 0.24046 0.0
H129 H 0.19569 0.66943 0.2612 0.0
C130 C 0.0785 0.82015 0.14954 0.0
C131 C 0.10832 0.88221 0.14172 0.0
C132 C 0.1119 0.7941 0.17154 0.0
C133 C 0.1755 0.82943 0.18663 0.0
C134 C 0.20357 0.89065 0.18076 0.0
C135 C 0.17063 0.91681 0.1583 0.0
C136 C 0.31759 0.81715 0.20642 0.0
C137 C 0.28712 0.75512 0.23106 0.0
C138 C 0.28188 0.8416 0.19358 0.0
C139 C 0.2146 0.80437 0.2049 0.0
C140 C 0.18468 0.74244 0.23085 0.0
C141 C 0.22057 0.71793 0.24343 0.0
H142 H 0.20458 -0.01508 0.6574 0.0
H143 H 0.12725 0.06946 0.67914 0.0
H144 H 0.29542 0.03056 0.7038 0.0
H145 H 0.21774 0.11397 0.72677 0.0
H146 H 0.44429 0.26221 0.73268 0.0
H147 H 0.33233 0.19661 0.71107 0.0
H148 H 0.33816 0.04007 0.77393 0.0
H149 H 0.45144 0.10697 0.79431 0.0
C150 C 0.20604 0.01213 0.67284 0.0
C151 C 0.15905 0.02431 0.66381 0.0
C152 C 0.25805 0.03795 0.69991 0.0
C153 C 0.26437 0.07647 0.71883 0.0
C154 C 0.21496 0.08533 0.71217 0.0
C155 C 0.1629 0.05957 0.68495 0.0
C156 C 0.42056 0.21338 0.74316 0.0
C157 C 0.45567 0.18925 0.7656 0.0
C158 C 0.35634 0.17563 0.7309 0.0
C159 C 0.32622 0.11298 0.74042 0.0
C160 C 0.36016 0.08823 0.76558 0.0
C161 C 0.42461 0.1262 0.77772 0.0
H162 H 0.33075 0.32625 0.1812 0.0
H163 H 0.12049 0.2281 0.19112 0.0
H164 H 0.34676 0.39263 0.21652 0.0
H165 H 0.13701 0.29611 0.22539 0.0
H166 H 0.21999 0.50104 0.20375 0.0
H167 H 0.18679 0.40958 0.19176 0.0
H168 H 0.32567 0.39744 0.28599 0.0
H169 H 0.35885 0.48937 0.298 0.0
C170 C 0.28786 0.31794 0.19168 0.0
C171 C 0.22433 0.27224 0.18278 0.0
C172 C 0.2971 0.35597 0.21203 0.0
C173 C 0.2431 0.3495 0.22361 0.0
C174 C 0.17948 0.3023 0.21646 0.0
C175 C 0.17016 0.26381 0.19648 0.0
C176 C 0.24211 0.47781 0.22269 0.0
C177 C 0.29188 0.50197 0.2517 0.0
C178 C 0.2229 0.42533 0.21606 0.0
C179 C 0.25399 0.39673 0.23777 0.0
C180 C 0.30128 0.41895 0.26867 0.0
C181 C 0.31996 0.47117 0.27569 0.0
H182 H 0.82697 0.15629 0.6168 0.0
H183 H 0.87812 0.07548 0.74301 0.0
H184 H 0.79746 0.19827 0.65005 0.0
H185 H 0.84931 0.11918 0.77651 0.0
H186 H 0.704 0.15626 0.80859 0.0
H187 H 0.7453 0.11105 0.78849 0.0
H188 H 0.86488 0.28107 0.68431 0.0
H189 H 0.82355 0.3255 0.70406 0.0
C190 C 0.83119 0.14683 0.65181 0.0
C191 C 0.85463 0.11229 0.67727 0.0
C192 C 0.81509 0.17162 0.67078 0.0
C193 C 0.82205 0.16273 0.71574 0.0
C194 C 0.84375 0.12684 0.74172 0.0
C195 C 0.86046 0.10218 0.72254 0.0
C196 C 0.74063 0.18426 0.78232 0.0
C197 C 0.76042 0.2441 0.75761 0.0
C198 C 0.7641 0.15845 0.77078 0.0
C199 C 0.80717 0.19226 0.73427 0.0
C200 C 0.83067 0.25361 0.71201 0.0
C201 C 0.80726 0.2791 0.72339 0.0
H202 H 0.9192 0.01878 0.13552 0.0
H203 H 0.8746 0.84413 0.1526 0.0
H204 H 0.81507 -0.03309 0.17163 0.0
H205 H 0.76929 0.79177 0.18911 0.0
H206 H 0.60351 0.72485 0.2806 0.0
H207 H 0.71748 0.77786 0.25788 0.0
H208 H 0.69997 0.90451 0.14439 0.0
H209 H 0.58723 0.85186 0.16677 0.0
C210 C 0.88735 -0.03083 0.14742 0.0
C211 C 0.90471 0.93542 0.14099 0.0
C212 C 0.82775 0.93955 0.16811 0.0
C213 C 0.78412 0.87541 0.18305 0.0
C214 C 0.80241 0.84131 0.17824 0.0
C215 C 0.86226 0.87115 0.15713 0.0
C216 C 0.62482 0.76488 0.2514 0.0
C217 C 0.58694 0.78463 0.22552 0.0
C218 C 0.68952 0.79465 0.23817 0.0
C219 C 0.71736 0.84514 0.19935 0.0
C220 C 0.68002 0.86605 0.17462 0.0
C221 C 0.61547 0.83588 0.18738 0.0
H222 H 0.99402 0.81911 0.62688 0.0
H223 H 0.8284 0.79571 0.66692 0.0
H224 H 0.94304 0.70929 0.6643 0.0
H225 H 0.77795 0.68678 0.70442 0.0
H226 H 0.67462 0.49321 0.69583 0.0
H227 H 0.73214 0.60383 0.67092 0.0
H228 H 0.90159 0.62365 0.74281 0.0
H229 H 0.8429 0.51166 0.76841 0.0
C230 C 0.94689 0.79052 0.64364 0.0
C231 C 0.91446 0.81548 0.64321 0.0
C232 C 0.91817 0.728 0.66554 0.0
C233 C 0.85638 0.68959 0.687 0.0
C234 C 0.82532 0.71525 0.68782 0.0
C235 C 0.85422 0.77756 0.66636 0.0
C236 C 0.72382 0.52116 0.7068 0.0
C237 C 0.75432 0.49426 0.73419 0.0
C238 C 0.75665 0.58435 0.69268 0.0
C239 C 0.82127 0.62224 0.70496 0.0
C240 C 0.85184 0.59536 0.73278 0.0
C241 C 0.81831 0.53159 0.74761 0.0
H242 H 0.27164 0.93148 0.40137 0.0
H243 H 0.09684 0.74567 0.4447 0.0
H244 H 0.31272 0.90067 0.36507 0.0
H245 H 0.13894 0.71436 0.41006 0.0
H246 H 0.21854 0.67102 0.33516 0.0
H247 H 0.17181 0.71792 0.34531 0.0
H248 H 0.35603 0.84123 0.39568 0.0
H249 H 0.40263 0.7961 0.3834 0.0
C250 C 0.24136 0.88433 0.40241 0.0
C251 C 0.18146 0.8408 0.42653 0.0
C252 C 0.26519 0.86654 0.38196 0.0
C253 C 0.22963 0.80486 0.38521 0.0
C254 C 0.16756 0.76228 0.40667 0.0
C255 C 0.14376 0.78007 0.42705 0.0
C256 C 0.2494 0.70986 0.34658 0.0
C257 C 0.31429 0.73105 0.35757 0.0
C258 C 0.22256 0.73607 0.35312 0.0
C259 C 0.26017 0.78344 0.3713 0.0
C260 C 0.32595 0.80572 0.38088 0.0
C261 C 0.35256 0.77957 0.37426 0.0
H262 H 0.17278 0.11021 0.97047 0.0
H263 H 0.1434 0.94364 0.9827 0.0
H264 H 0.27999 0.1704 0.93452 0.0
H265 H 0.25091 0.00341 0.94774 0.0
H266 H 0.43243 0.12745 0.85965 0.0
H267 H 0.31815 0.07437 0.88071 0.0
H268 H 0.38485 0.18953 0.95805 0.0
H269 H 0.49766 0.24374 0.93514 0.0
C270 C 0.1892 0.08657 0.96525 0.0
C271 C 0.15012 0.02238 0.97952 0.0
C272 C 0.25061 0.12093 0.94482 0.0
C273 C 0.2742 0.09173 0.93836 0.0
C274 C 0.234 0.02743 0.95161 0.0
C275 C 0.17262 -0.00685 0.97198 0.0
C276 C 0.42205 0.14258 0.87971 0.0
C277 C 0.47351 0.19025 0.895 0.0
C278 C 0.3569 0.11161 0.89252 0.0
C279 C 0.34226 0.12777 0.92106 0.0
C280 C 0.39403 0.17647 0.9355 0.0
C281 C 0.4588 0.20717 0.92272 0.0
H282 H 0.12169 0.14877 0.53195 0.0
H283 H 0.12969 0.13638 0.4084 0.0
H284 H 0.17146 0.25733 0.49757 0.0
H285 H 0.18178 0.24712 0.37363 0.0
H286 H 0.22056 0.44409 0.33207 0.0
H287 H 0.16211 0.33221 0.35681 0.0
H288 H 0.28682 0.34259 0.46781 0.0
H289 H 0.34518 0.45288 0.44292 0.0
C290 C 0.13302 0.16904 0.49719 0.0
C291 C 0.12152 0.13393 0.47289 0.0
C292 C 0.16224 0.23153 0.47755 0.0
C293 C 0.18123 0.26088 0.43302 0.0
C294 C 0.16747 0.22556 0.40801 0.0
C295 C 0.13806 0.16245 0.4279 0.0
C296 C 0.23617 0.42232 0.36113 0.0
C297 C 0.28763 0.45713 0.38541 0.0
C298 C 0.20261 0.35845 0.37539 0.0
C299 C 0.21945 0.32868 0.41452 0.0
C300 C 0.27196 0.36404 0.43795 0.0
C301 C 0.30542 0.42726 0.42366 0.0
H302 H 0.0212 0.15913 0.97252 0.0
H303 H 0.84413 -0.02202 0.98326 0.0
H304 H 0.96067 0.20277 0.93465 0.0
H305 H 0.7846 0.0215 0.94539 0.0
H306 H 0.68948 0.11291 0.94701 0.0
H307 H 0.75103 0.06958 0.9701 0.0
H308 H 0.89617 0.21771 0.86662 0.0
H309 H 0.83389 0.2616 0.84356 0.0
C310 C 0.96977 0.12875 0.96635 0.0
C311 C 0.93735 0.065 0.98155 0.0
C312 C 0.93525 0.15377 0.94439 0.0
C313 C 0.86775 0.11547 0.93738 0.0
C314 C 0.83633 0.05211 0.95085 0.0
C315 C 0.87061 0.02722 0.97262 0.0
C316 C 0.73392 0.13565 0.92869 0.0
C317 C 0.75671 0.19022 0.89332 0.0
C318 C 0.7691 0.11075 0.9418 0.0
C319 C 0.82849 0.14022 0.92018 0.0
C320 C 0.85072 0.19422 0.88401 0.0
C321 C 0.81485 0.21891 0.87053 0.0
H322 H 0.9196 0.86583 0.45128 0.0
H323 H 0.85284 -0.03253 0.45664 0.0
H324 H 0.8297 0.81873 0.40438 0.0
H325 H 0.76231 0.91959 0.40983 0.0
H326 H 0.59992 0.67584 0.40448 0.0
H327 H 0.71176 0.74136 0.42583 0.0
H328 H 0.72379 0.90136 0.33677 0.0
H329 H 0.61084 0.83467 0.3149 0.0
C330 C 0.88633 0.87884 0.44205 0.0
C331 C 0.89282 0.91965 0.4585 0.0
C332 C 0.83485 0.85185 0.41502 0.0
C333 C 0.78857 0.86499 0.4037 0.0
C334 C 0.7975 0.9089 0.41766 0.0
C335 C 0.84911 0.93596 0.44482 0.0
C336 C 0.62733 0.72495 0.38832 0.0
C337 C 0.59705 0.75036 0.35819 0.0
C338 C 0.69147 0.76259 0.40048 0.0
C339 C 0.72645 0.82662 0.38331 0.0
C340 C 0.69774 0.85215 0.35078 0.0
C341 C 0.63355 0.81415 0.33796 0.0
H342 H 0.73438 0.64391 0.92063 0.0
H343 H 0.94216 0.72606 0.9304 0.0
H344 H 0.72063 0.57637 0.88754 0.0
H345 H 0.92892 0.66042 0.89536 0.0
H346 H 0.84776 0.46119 0.91015 0.0
H347 H 0.88034 0.55251 0.92156 0.0
H348 H 0.74199 0.56413 0.82628 0.0
H349 H 0.70736 0.47076 0.81649 0.0
C350 C 0.77726 0.64807 0.9152 0.0
C351 C 0.83914 0.68969 0.92879 0.0
C352 C 0.7696 0.61004 0.89554 0.0
C353 C 0.8237 0.61284 0.88891 0.0
C354 C 0.88617 0.6567 0.90042 0.0
C355 C 0.8938 0.69464 0.9202 0.0
C356 C 0.82553 0.48419 0.89088 0.0
C357 C 0.77527 0.45913 0.86234 0.0
C358 C 0.84447 0.53681 0.89716 0.0
C359 C 0.81329 0.56533 0.87514 0.0
C360 C 0.76628 0.5427 0.84418 0.0
C361 C 0.74713 0.48978 0.83806 0.0
loop_
_geom_bond_atom_site_label_1
_geom_bond_atom_site_label_2
_geom_bond_distance
_geom_bond_site_symmetry_2
_ccdc_geom_bond_type
Gd0 C3 2.818 . S
Gd0 O20 2.377 . S
Gd0 O22 2.448 . S
Gd0 O23 2.506 . S
Gd0 O24 2.435 1_445 S
Gd0 O25 2.717 1_445 S
Gd0 O27 2.395 1_545 S
Gd0 O31 2.327 1_554 S
Gd1 C12 2.818 . S
Gd1 O21 2.395 1_565 S
Gd1 O25 2.327 1_556 S
Gd1 O26 2.377 1_656 S
Gd1 O28 2.448 . S
Gd1 O29 2.506 . S
Gd1 O30 2.435 1_665 S
Gd1 O31 2.717 1_665 S
C2 O20 1.240 1_656 S
C2 O21 1.240 . S
C3 Gd0 2.818 . S
C3 C4 1.510 . S
C3 O22 1.249 . S
C3 O23 1.252 . S
C4 C3 1.510 . S
C4 C5 1.404 . S
C4 C6 1.352 . S
C5 C4 1.404 . S
C5 C9 1.389 . S
C5 H32 0.930 . S
C6 C4 1.352 . S
C6 C8 1.374 . S
C6 H33 0.931 . S
C7 C8 1.359 . S
C7 C9 1.364 . S
C8 C6 1.374 . S
C8 C7 1.359 . S
C8 H34 0.931 . S
C9 C5 1.389 . S
C9 C7 1.364 . S
C9 H35 0.931 . S
C10 O24 1.256 . S
C10 O25 1.257 . S
C11 O26 1.240 . S
C11 O27 1.240 . S
C12 Gd1 2.818 . S
C12 C13 1.510 . S
C12 O28 1.249 . S
C12 O29 1.252 . S
C13 C12 1.510 . S
C13 C14 1.404 . S
C13 C15 1.352 . S
C14 C13 1.404 . S
C14 C18 1.389 . S
C14 H36 0.930 . S
C15 C13 1.352 . S
C15 C17 1.374 . S
C15 H37 0.931 1_556 S
C16 C17 1.359 . S
C16 C18 1.364 . S
C17 C15 1.374 . S
C17 C16 1.359 . S
C17 H38 0.931 . S
C18 C14 1.389 . S
C18 C16 1.364 . S
C18 H39 0.931 . S
C19 O30 1.256 . S
C19 O31 1.257 . S
O20 Gd0 2.377 . S
O20 C2 1.240 1_454 S
O21 Gd1 2.395 1_545 S
O21 C2 1.240 . S
O22 Gd0 2.448 . S
O22 C3 1.249 . S
O23 Gd0 2.506 . S
O23 C3 1.252 . S
O24 Gd0 2.435 1_665 S
O24 C10 1.256 . S
O25 Gd0 2.717 1_665 S
O25 Gd1 2.327 1_554 S
O25 C10 1.257 . S
O26 Gd1 2.377 1_454 S
O26 C11 1.240 . S
O27 Gd0 2.395 1_565 S
O27 C11 1.240 . S
O28 Gd1 2.448 . S
O28 C12 1.249 . S
O29 Gd1 2.506 . S
O29 C12 1.252 . S
O30 Gd1 2.435 1_445 S
O30 C19 1.256 . S
O31 Gd0 2.327 1_556 S
O31 Gd1 2.717 1_445 S
O31 C19 1.257 . S
H32 C5 0.930 . S
H33 C6 0.931 . S
H34 C8 0.931 . S
H35 C9 0.931 . S
H36 C14 0.930 . S
H37 C15 0.931 1_554 S
H38 C17 0.931 . S
H39 C18 0.931 . S
Gd40 C43 2.818 1_455 S
Gd40 O60 2.377 1_445 S
Gd40 O62 2.448 1_455 S
Gd40 O63 2.506 1_455 S
Gd40 O64 2.435 1_445 S
Gd40 O65 2.717 1_545 S
Gd40 O67 2.395 . S
Gd40 O71 2.327 . S
Gd41 C52 2.818 . S
Gd41 O61 2.395 1_455 S
Gd41 O65 2.327 . S
Gd41 O66 2.377 1_565 S
Gd41 O68 2.448 1_565 S
Gd41 O69 2.506 . S
Gd41 O70 2.435 1_565 S
Gd41 O71 2.717 1_565 S
C42 O60 1.240 . S
C42 O61 1.240 . S
C43 Gd40 2.818 1_655 S
C43 C44 1.510 . S
C43 O62 1.249 . S
C43 O63 1.252 . S
C44 C43 1.510 . S
C44 C45 1.404 . S
C44 C46 1.352 . S
C45 C44 1.404 . S
C45 C49 1.389 . S
C45 H72 0.930 . S
C46 C44 1.352 . S
C46 C48 1.374 . S
C46 H73 0.931 . S
C47 C48 1.359 . S
C47 C49 1.364 . S
C48 C46 1.374 . S
C48 C47 1.359 . S
C48 H74 0.931 . S
C49 C45 1.389 . S
C49 C47 1.364 . S
C49 H75 0.931 . S
C50 O64 1.256 . S
C50 O65 1.257 1_655 S
C51 O66 1.240 . S
C51 O67 1.240 . S
C52 Gd41 2.818 . S
C52 C53 1.510 . S
C52 O68 1.249 1_565 S
C52 O69 1.252 . S
C53 C52 1.510 . S
C53 C54 1.404 . S
C53 C55 1.352 . S
C54 C53 1.404 . S
C54 C58 1.389 . S
C54 H76 0.930 1_565 S
C55 C53 1.352 . S
C55 C57 1.374 . S
C55 H77 0.931 . S
C56 C57 1.359 . S
C56 C58 1.364 . S
C57 C55 1.374 . S
C57 C56 1.359 . S
C57 H78 0.931 . S
C58 C54 1.389 . S
C58 C56 1.364 . S
C58 H79 0.931 1_565 S
C59 O70 1.256 . S
C59 O71 1.257 . S
O60 Gd40 2.377 1_665 S
O60 C42 1.240 . S
O61 Gd41 2.395 1_655 S
O61 C42 1.240 . S
O62 Gd40 2.448 1_655 S
O62 C43 1.249 . S
O63 Gd40 2.506 1_655 S
O63 C43 1.252 . S
O64 Gd40 2.435 1_665 S
O64 C50 1.256 . S
O65 Gd40 2.717 1_565 S
O65 Gd41 2.327 . S
O65 C50 1.257 1_455 S
O66 Gd41 2.377 1_545 S
O66 C51 1.240 . S
O67 Gd40 2.395 . S
O67 C51 1.240 . S
O68 Gd41 2.448 1_545 S
O68 C52 1.249 1_545 S
O69 Gd41 2.506 . S
O69 C52 1.252 . S
O70 Gd41 2.435 1_545 S
O70 C59 1.256 . S
O71 Gd40 2.327 . S
O71 Gd41 2.717 1_545 S
O71 C59 1.257 . S
H72 C45 0.930 . S
H73 C46 0.931 . S
H74 C48 0.931 . S
H75 C49 0.931 . S
H76 C54 0.930 1_545 S
H77 C55 0.931 . S
H78 C57 0.931 . S
H79 C58 0.931 1_545 S
Zn80 O86 1.920 . S
Zn80 O92 1.898 . S
Zn80 O95 1.905 . S
Zn81 O89 1.905 . S
Zn81 O90 1.898 . S
Zn81 O98 1.920 . S
Zn82 O85 2.080 . S
Zn82 O88 2.114 . S
Zn82 O91 2.120 . S
Zn82 O93 2.120 . S
Zn82 O94 2.114 . S
Zn82 O97 2.080 . S
C83 O88 1.166 . S
C83 O89 1.182 . S
C84 O90 1.167 . S
C84 O91 1.299 . S
O85 Zn82 2.080 . S
O85 C99 1.305 . S
O86 Zn80 1.920 . S
O86 C99 1.234 . S
C87 O92 1.167 . S
C87 O93 1.299 . S
O88 Zn82 2.114 . S
O88 C83 1.166 . S
O89 Zn81 1.905 . S
O89 C83 1.182 . S
O90 Zn81 1.898 . S
O90 C84 1.167 . S
O91 Zn82 2.120 . S
O91 C84 1.299 . S
O92 Zn80 1.898 . S
O92 C87 1.167 . S
O93 Zn82 2.120 . S
O93 C87 1.299 . S
O94 Zn82 2.114 . S
O94 C96 1.166 . S
O95 Zn80 1.905 . S
O95 C96 1.182 . S
C96 O94 1.166 . S
C96 O95 1.182 . S
O97 Zn82 2.080 . S
O97 C100 1.305 . S
O98 Zn81 1.920 . S
O98 C100 1.234 . S
C99 O85 1.305 . S
C99 O86 1.234 . S
C100 O97 1.305 . S
C100 O98 1.234 . S
Zn101 O107 1.920 . S
Zn101 O113 1.898 . S
Zn101 O116 1.905 . S
Zn102 O110 1.905 . S
Zn102 O111 1.898 . S
Zn102 O119 1.920 . S
Zn103 O106 2.080 . S
Zn103 O109 2.114 . S
Zn103 O112 2.120 . S
Zn103 O114 2.120 . S
Zn103 O115 2.114 . S
Zn103 O118 2.080 . S
C104 O109 1.166 . S
C104 O110 1.182 . S
C105 O111 1.167 . S
C105 O112 1.299 . S
O106 Zn103 2.080 . S
O106 C120 1.305 . S
O107 Zn101 1.920 . S
O107 C120 1.234 . S
C108 O113 1.167 . S
C108 O114 1.299 . S
O109 Zn103 2.114 . S
O109 C104 1.166 . S
O110 Zn102 1.905 . S
O110 C104 1.182 . S
O111 Zn102 1.898 . S
O111 C105 1.167 . S
O112 Zn103 2.120 . S
O112 C105 1.299 . S
O113 Zn101 1.898 . S
O113 C108 1.167 . S
O114 Zn103 2.120 . S
O114 C108 1.299 . S
O115 Zn103 2.114 . S
O115 C117 1.166 . S
O116 Zn101 1.905 . S
O116 C117 1.182 . S
C117 O115 1.166 . S
C117 O116 1.182 . S
O118 Zn103 2.080 . S
O118 C121 1.305 . S
O119 Zn102 1.920 . S
O119 C121 1.234 . S
C120 O106 1.305 . S
C120 O107 1.234 . S
C121 O118 1.305 . S
C121 O119 1.234 . S
H122 C130 0.950 . S
H123 C135 0.950 . S
H124 C132 0.950 . S
H125 C134 0.950 . S
H126 C136 0.950 . S
H127 C138 0.950 . S
H128 C140 0.950 . S
H129 C141 0.950 . S
C130 H122 0.950 . S
C130 C131 1.386 . S
C130 C132 1.391 . S
C131 C130 1.386 . S
C131 C135 1.393 . S
C132 H124 0.950 . S
C132 C130 1.391 . S
C132 C133 1.400 . S
C133 C132 1.400 . S
C133 C134 1.398 . S
C133 C139 1.491 . S
C134 H125 0.950 . S
C134 C133 1.398 . S
C134 C135 1.391 . S
C135 H123 0.950 . S
C135 C131 1.393 . S
C135 C134 1.391 . S
C136 H126 0.950 . S
C136 C137 1.386 . S
C136 C138 1.391 . S
C137 C136 1.386 . S
C137 C141 1.393 . S
C138 H127 0.950 . S
C138 C136 1.391 . S
C138 C139 1.400 . S
C139 C133 1.491 . S
C139 C138 1.400 . S
C139 C140 1.398 . S
C140 H128 0.950 . S
C140 C139 1.398 . S
C140 C141 1.391 . S
C141 H129 0.950 . S
C141 C137 1.393 . S
C141 C140 1.391 . S
H142 C150 0.950 . S
H143 C155 0.950 . S
H144 C152 0.950 . S
H145 C154 0.950 . S
H146 C156 0.950 . S
H147 C158 0.950 . S
H148 C160 0.950 . S
H149 C161 0.950 . S
C150 H142 0.950 . S
C150 C151 1.386 . S
C150 C152 1.391 . S
C151 C150 1.386 . S
C151 C155 1.393 . S
C152 H144 0.950 . S
C152 C150 1.391 . S
C152 C153 1.400 . S
C153 C152 1.400 . S
C153 C154 1.398 . S
C153 C159 1.491 . S
C154 H145 0.950 . S
C154 C153 1.398 . S
C154 C155 1.391 . S
C155 H143 0.950 . S
C155 C151 1.393 . S
C155 C154 1.391 . S
C156 H146 0.950 . S
C156 C157 1.386 . S
C156 C158 1.391 . S
C157 C156 1.386 . S
C157 C161 1.393 . S
C158 H147 0.950 . S
C158 C156 1.391 . S
C158 C159 1.400 . S
C159 C153 1.491 . S
C159 C158 1.400 . S
C159 C160 1.398 . S
C160 H148 0.950 . S
C160 C159 1.398 . S
C160 C161 1.391 . S
C161 H149 0.950 . S
C161 C157 1.393 . S
C161 C160 1.391 . S
H162 C170 0.950 . S
H163 C175 0.950 . S
H164 C172 0.950 . S
H165 C174 0.950 . S
H166 C176 0.950 . S
H167 C178 0.950 . S
H168 C180 0.950 . S
H169 C181 0.950 . S
C170 H162 0.950 . S
C170 C171 1.386 . S
C170 C172 1.391 . S
C171 C170 1.386 . S
C171 C175 1.393 . S
C172 H164 0.950 . S
C172 C170 1.391 . S
C172 C173 1.400 . S
C173 C172 1.400 . S
C173 C174 1.398 . S
C173 C179 1.491 . S
C174 H165 0.950 . S
C174 C173 1.398 . S
C174 C175 1.391 . S
C175 H163 0.950 . S
C175 C171 1.393 . S
C175 C174 1.391 . S
C176 H166 0.950 . S
C176 C177 1.386 . S
C176 C178 1.391 . S
C177 C176 1.386 . S
C177 C181 1.393 . S
C178 H167 0.950 . S
C178 C176 1.391 . S
C178 C179 1.400 . S
C179 C173 1.491 . S
C179 C178 1.400 . S
C179 C180 1.398 . S
C180 H168 0.950 . S
C180 C179 1.398 . S
C180 C181 1.391 . S
C181 H169 0.950 . S
C181 C177 1.393 . S
C181 C180 1.391 . S
H182 C190 0.950 . S
H183 C195 0.950 . S
H184 C192 0.950 . S
H185 C194 0.950 . S
H186 C196 0.950 . S
H187 C198 0.950 . S
H188 C200 0.950 . S
H189 C201 0.950 . S
C190 H182 0.950 . S
C190 C191 1.386 . S
C190 C192 1.391 . S
C191 C190 1.386 . S
C191 C195 1.393 . S
C192 H184 0.950 . S
C192 C190 1.391 . S
C192 C193 1.400 . S
C193 C192 1.400 . S
C193 C194 1.398 . S
C193 C199 1.491 . S
C194 H185 0.950 . S
C194 C193 1.398 . S
C194 C195 1.391 . S
C195 H183 0.950 . S
C195 C191 1.393 . S
C195 C194 1.391 . S
C196 H186 0.950 . S
C196 C197 1.386 . S
C196 C198 1.391 . S
C197 C196 1.386 . S
C197 C201 1.393 . S
C198 H187 0.950 . S
C198 C196 1.391 . S
C198 C199 1.400 . S
C199 C193 1.491 . S
C199 C198 1.400 . S
C199 C200 1.398 . S
C200 H188 0.950 . S
C200 C199 1.398 . S
C200 C201 1.391 . S
C201 H189 0.950 . S
C201 C197 1.393 . S
C201 C200 1.391 . S
H202 C210 0.950 . S
H203 C215 0.950 . S
H204 C212 0.950 . S
H205 C214 0.950 . S
H206 C216 0.950 . S
H207 C218 0.950 . S
H208 C220 0.950 . S
H209 C221 0.950 . S
C210 H202 0.950 . S
C210 C211 1.386 . S
C210 C212 1.391 . S
C211 C210 1.386 . S
C211 C215 1.393 . S
C212 H204 0.950 . S
C212 C210 1.391 . S
C212 C213 1.400 . S
C213 C212 1.400 . S
C213 C214 1.398 . S
C213 C219 1.491 . S
C214 H205 0.950 . S
C214 C213 1.398 . S
C214 C215 1.391 . S
C215 H203 0.950 . S
C215 C211 1.393 . S
C215 C214 1.391 . S
C216 H206 0.950 . S
C216 C217 1.386 . S
C216 C218 1.391 . S
C217 C216 1.386 . S
C217 C221 1.393 . S
C218 H207 0.950 . S
C218 C216 1.391 . S
C218 C219 1.400 . S
C219 C213 1.491 . S
C219 C218 1.400 . S
C219 C220 1.398 . S
C220 H208 0.950 . S
C220 C219 1.398 . S
C220 C221 1.391 . S
C221 H209 0.950 . S
C221 C217 1.393 . S
C221 C220 1.391 . S
H222 C230 0.968 . S
H223 C235 0.950 . S
H224 C232 0.950 . S
H225 C234 0.950 . S
H226 C236 0.950 . S
H227 C238 0.950 . S
H228 C240 0.950 . S
H229 C241 0.950 . S
C230 H222 0.968 . S
C230 C231 1.386 . S
C230 C232 1.391 . S
C231 C230 1.386 . S
C231 C235 1.393 . S
C232 H224 0.950 . S
C232 C230 1.391 . S
C232 C233 1.400 . S
C233 C232 1.400 . S
C233 C234 1.398 . S
C233 C239 1.491 . S
C234 H225 0.950 . S
C234 C233 1.398 . S
C234 C235 1.391 . S
C235 H223 0.950 . S
C235 C231 1.393 . S
C235 C234 1.391 . S
C236 H226 0.950 . S
C236 C237 1.386 . S
C236 C238 1.391 . S
C237 C236 1.386 . S
C237 C241 1.393 . S
C238 H227 0.950 . S
C238 C236 1.391 . S
C238 C239 1.400 . S
C239 C233 1.491 . S
C239 C238 1.400 . S
C239 C240 1.398 . S
C240 H228 0.950 . S
C240 C239 1.398 . S
C240 C241 1.391 . S
C241 H229 0.950 . S
C241 C237 1.393 . S
C241 C240 1.391 . S
H242 C250 0.950 1_545 S
H243 C255 0.950 . S
H244 C252 0.950 . S
H245 C254 0.950 . S
H246 C256 0.950 . S
H247 C258 0.950 . S
H248 C260 0.950 . S
H249 C261 0.950 . S
C250 H242 0.950 1_565 S
C250 C251 1.386 . S
C250 C252 1.391 . S
C251 C250 1.386 . S
C251 C255 1.393 . S
C252 H244 0.950 . S
C252 C250 1.391 . S
C252 C253 1.400 . S
C253 C252 1.400 . S
C253 C254 1.398 . S
C253 C259 1.491 . S
C254 H245 0.950 . S
C254 C253 1.398 . S
C254 C255 1.391 . S
C255 H243 0.950 . S
C255 C251 1.393 . S
C255 C254 1.391 . S
C256 H246 0.950 . S
C256 C257 1.386 . S
C256 C258 1.391 . S
C257 C256 1.386 . S
C257 C261 1.393 . S
C258 H247 0.950 . S
C258 C256 1.391 . S
C258 C259 1.400 . S
C259 C253 1.491 . S
C259 C258 1.400 . S
C259 C260 1.398 . S
C260 H248 0.950 . S
C260 C259 1.398 . S
C260 C261 1.391 . S
C261 H249 0.950 . S
C261 C257 1.393 . S
C261 C260 1.391 . S
H262 C270 0.950 . S
H263 C275 0.950 . S
H264 C272 0.950 . S
H265 C274 0.950 . S
H266 C276 0.950 . S
H267 C278 0.950 . S
H268 C280 0.950 . S
H269 C281 0.950 . S
C270 H262 0.950 . S
C270 C271 1.386 . S
C270 C272 1.391 . S
C271 C270 1.386 . S
C271 C275 1.393 . S
C272 H264 0.950 . S
C272 C270 1.391 . S
C272 C273 1.400 . S
C273 C272 1.400 . S
C273 C274 1.398 . S
C273 C279 1.491 . S
C274 H265 0.950 . S
C274 C273 1.398 . S
C274 C275 1.391 . S
C275 H263 0.950 . S
C275 C271 1.393 . S
C275 C274 1.391 . S
C276 H266 0.950 . S
C276 C277 1.386 . S
C276 C278 1.391 . S
C277 C276 1.386 . S
C277 C281 1.393 . S
C278 H267 0.950 . S
C278 C276 1.391 . S
C278 C279 1.400 . S
C279 C273 1.491 . S
C279 C278 1.400 . S
C279 C280 1.398 . S
C280 H268 0.950 . S
C280 C279 1.398 . S
C280 C281 1.391 . S
C281 H269 0.950 . S
C281 C277 1.393 . S
C281 C280 1.391 . S
H282 C290 0.950 . S
H283 C295 0.950 . S
H284 C292 0.950 . S
H285 C294 0.950 . S
H286 C296 0.950 . S
H287 C298 0.950 . S
H288 C300 0.950 . S
H289 C301 0.950 . S
C290 H282 0.950 . S
C290 C291 1.386 . S
C290 C292 1.391 . S
C291 C290 1.386 . S
C291 C295 1.393 . S
C292 H284 0.950 . S
C292 C290 1.391 . S
C292 C293 1.400 . S
C293 C292 1.400 . S
C293 C294 1.398 . S
C293 C299 1.491 . S
C294 H285 0.950 . S
C294 C293 1.398 . S
C294 C295 1.391 . S
C295 H283 0.950 . S
C295 C291 1.393 . S
C295 C294 1.391 . S
C296 H286 0.950 . S
C296 C297 1.386 . S
C296 C298 1.391 . S
C297 C296 1.386 . S
C297 C301 1.393 . S
C298 H287 0.950 . S
C298 C296 1.391 . S
C298 C299 1.400 . S
C299 C293 1.491 . S
C299 C298 1.400 . S
C299 C300 1.398 . S
C300 H288 0.950 . S
C300 C299 1.398 . S
C300 C301 1.391 . S
C301 H289 0.950 . S
C301 C297 1.393 . S
C301 C300 1.391 . S
H302 C310 0.950 1_455 S
H303 C315 0.950 . S
H304 C312 0.950 . S
H305 C314 0.950 . S
H306 C316 0.950 . S
H307 C318 0.950 . S
H308 C320 0.950 . S
H309 C321 0.950 . S
C310 H302 0.950 1_655 S
C310 C311 1.386 . S
C310 C312 1.391 . S
C311 C310 1.386 . S
C311 C315 1.393 . S
C312 H304 0.950 . S
C312 C310 1.391 . S
C312 C313 1.400 . S
C313 C312 1.400 . S
C313 C314 1.398 . S
C313 C319 1.491 . S
C314 H305 0.950 . S
C314 C313 1.398 . S
C314 C315 1.391 . S
C315 H303 0.950 . S
C315 C311 1.393 . S
C315 C314 1.391 . S
C316 H306 0.950 . S
C316 C317 1.386 . S
C316 C318 1.391 . S
C317 C316 1.386 . S
C317 C321 1.393 . S
C318 H307 0.950 . S
C318 C316 1.391 . S
C318 C319 1.400 . S
C319 C313 1.491 . S
C319 C318 1.400 . S
C319 C320 1.398 . S
C320 H308 0.950 . S
C320 C319 1.398 . S
C320 C321 1.391 . S
C321 H309 0.950 . S
C321 C317 1.393 . S
C321 C320 1.391 . S
H322 C330 0.950 . S
H323 C335 0.950 . S
H324 C332 0.950 . S
H325 C334 0.950 . S
H326 C336 0.950 . S
H327 C338 0.950 . S
H328 C340 0.950 . S
H329 C341 0.950 . S
C330 H322 0.950 . S
C330 C331 1.386 . S
C330 C332 1.391 . S
C331 C330 1.386 . S
C331 C335 1.393 . S
C332 H324 0.950 . S
C332 C330 1.391 . S
C332 C333 1.400 . S
C333 C332 1.400 . S
C333 C334 1.398 . S
C333 C339 1.491 . S
C334 H325 0.950 . S
C334 C333 1.398 . S
C334 C335 1.391 . S
C335 H323 0.950 . S
C335 C331 1.393 . S
C335 C334 1.391 . S
C336 H326 0.950 . S
C336 C337 1.386 . S
C336 C338 1.391 . S
C337 C336 1.386 . S
C337 C341 1.393 . S
C338 H327 0.950 . S
C338 C336 1.391 . S
C338 C339 1.400 . S
C339 C333 1.491 . S
C339 C338 1.400 . S
C339 C340 1.398 . S
C340 H328 0.950 . S
C340 C339 1.398 . S
C340 C341 1.391 . S
C341 H329 0.950 . S
C341 C337 1.393 . S
C341 C340 1.391 . S
H342 C350 0.950 . S
H343 C355 0.950 . S
H344 C352 0.950 . S
H345 C354 0.950 . S
H346 C356 0.950 . S
H347 C358 0.950 . S
H348 C360 0.950 . S
H349 C361 0.950 . S
C350 H342 0.950 . S
C350 C351 1.386 . S
C350 C352 1.391 . S
C351 C350 1.386 . S
C351 C355 1.393 . S
C352 H344 0.950 . S
C352 C350 1.391 . S
C352 C353 1.400 . S
C353 C352 1.400 . S
C353 C354 1.398 . S
C353 C359 1.491 . S
C354 H345 0.950 . S
C354 C353 1.398 . S
C354 C355 1.391 . S
C355 H343 0.950 . S
C355 C351 1.393 . S
C355 C354 1.391 . S
C356 H346 0.950 . S
C356 C357 1.386 . S
C356 C358 1.391 . S
C357 C356 1.386 . S
C357 C361 1.393 . S
C358 H347 0.950 . S
C358 C356 1.391 . S
C358 C359 1.400 . S
C359 C353 1.491 . S
C359 C358 1.400 . S
C359 C360 1.398 . S
C360 H348 0.950 . S
C360 C359 1.398 . S
C360 C361 1.391 . S
C361 H349 0.950 . S
C361 C357 1.393 . S
C361 C360 1.391 . S
C131 C11 1.924 . S
C137 C99 1.866 . S
C151 C51 1.221 . S
C157 C105 1.157 . S
C171 C7 0.903 . S
C177 C96 0.854 . S
C191 C47 1.382 . S
C197 C121 1.269 . S
C211 C10 2.075 . S
C217 C87 1.979 . S
C237 C104 2.273 . S
C231 C50 2.347 . S
C251 C56 1.239 . S
C257 C100 1.173 . S
C277 C117 1.756 . S
C271 C19 1.813 . S
C297 C84 2.105 . S
C291 C59 2.197 . S
C317 C120 2.057 . S
C311 C2 2.129 . S
C337 C83 1.390 . S
C331 C42 1.474 . S
C357 C108 0.805 . S
C351 C16 0.884 . S
