# Generated by pormake.
# Topology pth, (4,4)-cn, num edge types: 1
# Building blocks:
#     Node 0, Type 0, BuildingBlock: CEKHIL_clean_sbu_0, # of connection points: 4
#     Node 1, Type 0, BuildingBlock: CEKHIL_clean_sbu_0, # of connection points: 4
#     Node 2, Type 0, BuildingBlock: CEKHIL_clean_sbu_0, # of connection points: 4
#     Node 3, Type 1, BuildingBlock: KOZSID_clean_sbu_0, # of connection points: 4
#     Node 4, Type 1, BuildingBlock: KOZSID_clean_sbu_0, # of connection points: 4
#     Node 5, Type 1, BuildingBlock: KOZSID_clean_sbu_0, # of connection points: 4
#     Edge 6, Type (0, 1), BuildingBlock: ZUJKAS_clean_linker_0, # of connection points: 2
#     Edge 7, Type (0, 1), BuildingBlock: ZUJKAS_clean_linker_0, # of connection points: 2
#     Edge 8, Type (0, 1), BuildingBlock: ZUJKAS_clean_linker_0, # of connection points: 2
#     Edge 9, Type (0, 1), BuildingBlock: ZUJKAS_clean_linker_0, # of connection points: 2
#     Edge 10, Type (0, 1), BuildingBlock: ZUJKAS_clean_linker_0, # of connection points: 2
#     Edge 11, Type (0, 1), BuildingBlock: ZUJKAS_clean_linker_0, # of connection points: 2
#     Edge 12, Type (0, 1), BuildingBlock: ZUJKAS_clean_linker_0, # of connection points: 2
#     Edge 13, Type (0, 1), BuildingBlock: ZUJKAS_clean_linker_0, # of connection points: 2
#     Edge 14, Type (0, 1), BuildingBlock: ZUJKAS_clean_linker_0, # of connection points: 2
#     Edge 15, Type (0, 1), BuildingBlock: ZUJKAS_clean_linker_0, # of connection points: 2
#     Edge 16, Type (0, 1), BuildingBlock: ZUJKAS_clean_linker_0, # of connection points: 2
#     Edge 17, Type (0, 1), BuildingBlock: ZUJKAS_clean_linker_0, # of connection points: 2
# Relax obj value: 0.006
# Max RMSD: 0.053
# Mean RMSD: 0.039
data_MOF--net-pth--node1-CEKHIL_clean_sbu_0--node2-KOZSID_clean_sbu_0--edge1-ZUJKAS_clean_linker_0
_symmetry_space_group_name_H-M    P1
_symmetry_Int_Tables_number       1
_symmetry_cell_setting            triclinic
loop_
_symmetry_equiv_pos_as_xyz
'x, y, z'
_cell_length_a     33.314093
_cell_length_b     33.404832
_cell_length_c     77.558106
_cell_angle_alpha  88.777113
_cell_angle_beta   87.805147
_cell_angle_gamma 120.33033
loop_
_atom_site_label
_atom_site_type_symbol
_atom_site_fract_x
_atom_site_fract_y
_atom_site_fract_z
_atom_type_partial_charge
Co0 Co 0.04699 0.04928 0.05702 0.0
O1 O 0.01581 1.00029 0.07471 0.0
O2 O 0.07717 0.0126 0.05836 0.0
C3 C 0.04983 0.10634 0.07311 0.0
O4 O 0.09021 0.09768 0.03818 0.0
Co5 Co 0.99928 0.10071 0.04239 0.0
O6 O 0.06218 0.14459 0.03182 0.0
C7 C 0.96981 0.00607 0.03154 0.0
C8 C 0.04647 0.98837 0.07085 0.0
C9 C 0.09408 0.13423 0.0305 0.0
O10 O 0.0038 0.00715 0.03935 0.0
O11 O 0.9602 0.03861 0.0323 0.0
O12 O 0.08069 0.09375 0.07449 0.0
O13 O 0.01636 0.0816 0.06328 0.0
Co14 Co 0.03022 0.0765 0.37645 0.0
O15 O 1.00165 0.09537 0.35941 0.0
O16 O 0.05966 0.14371 0.37484 0.0
C17 C 0.03714 0.02493 0.35997 0.0
O18 O 0.07053 0.07033 0.39445 0.0
Co19 Co 0.98183 0.97529 0.39149 0.0
O20 O 0.0443 0.99446 0.3998 0.0
C21 C 0.94809 0.03726 0.40324 0.0
C22 C 0.03111 0.13791 0.36287 0.0
C23 C 0.0749 0.03708 0.40111 0.0
O24 O 0.98316 0.07192 0.39495 0.0
O25 O 0.93975 0.99549 0.40247 0.0
O26 O 0.06783 0.06896 0.35825 0.0
O27 O 1.00167 0.01413 0.37044 0.0
Co28 Co 0.04021 0.05399 0.71047 0.0
O29 O 0.09087 0.08726 0.69334 0.0
O30 O 0.07671 0.02373 0.70818 0.0
C31 C 0.98435 0.05345 0.69455 0.0
O32 O 0.99043 0.00881 0.72859 0.0
Co33 Co 0.98757 0.09949 0.72658 0.0
O34 O 0.9432 0.036 0.73623 0.0
C35 C 0.08178 0.12753 0.73747 0.0
C36 C 0.10231 0.0561 0.69644 0.0
C37 C 0.95358 0.00415 0.73665 0.0
O38 O 0.08121 0.09462 0.72889 0.0
O39 O 0.04913 0.13712 0.73719 0.0
O40 O 0.99701 0.02284 0.69244 0.0
O41 O 0.00834 0.08547 0.70507 0.0
C42 C 0.09976 0.65132 0.18907 0.0
C43 C 0.14299 0.68693 0.1826 0.0
C44 C 0.17563 0.68283 0.19129 0.0
C45 C 0.15069 0.64536 0.20261 0.0
N46 N 0.10398 0.62493 0.20163 0.0
Co47 Co 0.05494 0.57106 0.21655 0.0
N48 N 0.10317 0.56632 0.22981 0.0
C49 C 0.14998 0.59307 0.22722 0.0
C50 C 0.17431 0.5805 0.23771 0.0
C51 C 0.14115 0.54323 0.24755 0.0
C52 C 0.09824 0.53535 0.24256 0.0
N53 N 0.00589 0.51758 0.23158 0.0
C54 C 0.01008 0.49188 0.24442 0.0
C55 C 0.96688 0.45842 0.25175 0.0
C56 C 0.93424 0.46243 0.24302 0.0
C57 C 0.95918 0.49816 0.231 0.0
N58 N 0.0067 0.57542 0.20319 0.0
C59 C 0.95992 0.54759 0.20534 0.0
C60 C 0.93564 0.55857 0.19419 0.0
C61 C 0.96881 0.59592 0.18439 0.0
C62 C 0.01162 0.60583 0.19023 0.0
N63 N 0.05546 0.52675 0.19988 0.0
C64 C 0.05637 0.46209 0.17713 0.0
C65 C 0.01448 0.4564 0.18422 0.0
C66 C 0.01482 0.48882 0.19543 0.0
C67 C 0.09776 0.50113 0.18149 0.0
C68 C 0.09652 0.53268 0.19275 0.0
N69 N 0.05443 0.61539 0.2332 0.0
C70 C 0.01235 0.64371 0.2503 0.0
C71 C 0.05388 0.68087 0.25561 0.0
C72 C 0.09565 0.68407 0.24972 0.0
C73 C 0.09512 0.65123 0.2387 0.0
C74 C 0.01342 0.61175 0.23921 0.0
H75 H 0.12815 0.65592 0.23465 0.0
H76 H 0.98057 0.58456 0.23559 0.0
H77 H 0.98172 0.48215 0.20044 0.0
H78 H 0.1293 0.56152 0.19553 0.0
C79 C 0.17007 0.62917 0.21458 0.0
C80 C 0.05579 0.64497 0.18323 0.0
C81 C 0.0539 0.49718 0.24993 0.0
C82 C 0.93975 0.51287 0.2185 0.0
H83 H 0.15032 0.71363 0.1728 0.0
H84 H 0.21309 0.70501 0.18974 0.0
H85 H 0.21172 0.59612 0.23798 0.0
H86 H 0.14795 0.52371 0.25713 0.0
H87 H 0.95965 0.43334 0.26222 0.0
H88 H 0.89675 0.44135 0.24503 0.0
H89 H 0.89823 0.54187 0.19347 0.0
H90 H 0.96217 0.61411 0.1742 0.0
H91 H 0.98141 0.42653 0.18144 0.0
H92 H 0.13115 0.50765 0.17614 0.0
H93 H 0.97894 0.63899 0.25472 0.0
H94 H 0.12888 0.71238 0.25328 0.0
C95 C 0.45674 0.02399 0.5763 0.0
C96 C 0.42357 0.98033 0.58322 0.0
C97 C 0.42877 0.94876 0.57401 0.0
C98 C 0.46499 0.97476 0.56218 0.0
N99 N 0.48351 0.02111 0.5633 0.0
Co100 Co 0.53832 0.0713 0.5491 0.0
N101 N 0.54422 0.02467 0.53497 0.0
C102 C 0.51557 0.97805 0.53604 0.0
C103 C 0.52784 0.95502 0.52451 0.0
C104 C 0.56687 0.98887 0.5156 0.0
C105 C 0.57638 0.03077 0.52233 0.0
N106 N 0.59422 0.12142 0.53529 0.0
C107 C 0.62266 0.11835 0.52304 0.0
C108 C 0.6594 0.16185 0.51754 0.0
C109 C 0.65404 0.19352 0.52661 0.0
C110 C 0.61474 0.16771 0.53717 0.0
N111 N 0.5314 0.11796 0.56286 0.0
C112 C 0.55759 0.16473 0.56072 0.0
C113 C 0.54286 0.18795 0.57111 0.0
C114 C 0.50468 0.15408 0.58039 0.0
C115 C 0.49855 0.11184 0.57524 0.0
N116 N 0.58073 0.06926 0.56605 0.0
C117 C 0.64342 0.06677 0.58904 0.0
C118 C 0.64493 0.10839 0.5847 0.0
C119 C 0.61354 0.10884 0.57332 0.0
C120 C 0.60945 0.02635 0.58182 0.0
C121 C 0.57875 0.02834 0.5705 0.0
N122 N 0.49586 0.07335 0.53212 0.0
C123 C 0.47445 0.11687 0.51292 0.0
C124 C 0.43394 0.07644 0.50882 0.0
C125 C 0.42534 0.03439 0.51653 0.0
C126 C 0.45648 0.03362 0.52794 0.0
C127 C 0.50454 0.11458 0.52448 0.0
H128 H 0.44764 1.00041 0.53333 0.0
H129 H 0.53455 0.14672 0.52705 0.0
H130 H 0.61668 0.1417 0.57052 0.0
H131 H 0.55404 0.99632 0.56538 0.0
C132 C 0.48023 0.9567 0.54908 0.0
C133 C 0.46043 0.06694 0.58219 0.0
C134 C 0.61709 0.07517 0.51659 0.0
C135 C 0.59601 0.18585 0.5489 0.0
H136 H 0.39778 0.97206 0.59368 0.0
H137 H 0.40803 0.9113 0.57555 0.0
H138 H 0.51118 0.91791 0.5231 0.0
H139 H 0.58661 0.98328 0.5055 0.0
H140 H 0.68752 0.16991 0.5081 0.0
H141 H 0.67642 0.2309 0.52575 0.0
H142 H 0.5578 0.22512 0.57173 0.0
H143 H 0.48353 0.16003 0.58972 0.0
H144 H 0.67004 0.1406 0.59014 0.0
H145 H 0.60704 0.99325 0.58456 0.0
H146 H 0.48333 0.15032 0.50712 0.0
H147 H 0.39424 0.00203 0.51403 0.0
C148 C 0.63864 0.57815 0.85652 0.0
C149 C 0.67349 0.57047 0.85004 0.0
C150 C 0.66777 0.53188 0.85874 0.0
C151 C 0.63006 0.51829 0.87005 0.0
N152 N 0.61107 0.5457 0.86906 0.0
Co153 Co 0.55656 0.53902 0.88359 0.0
N154 N 0.55006 0.48385 0.89712 0.0
C155 C 0.57727 0.46473 0.8952 0.0
C156 C 0.56383 0.42654 0.90599 0.0
C157 C 0.52553 0.42063 0.91531 0.0
C158 C 0.51786 0.45584 0.9097 0.0
N159 N 0.50167 0.53199 0.89793 0.0
C160 C 0.47387 0.49929 0.91035 0.0
C161 C 0.43916 0.50706 0.91692 0.0
C162 C 0.44459 0.54544 0.90815 0.0
C163 C 0.48226 0.55902 0.89682 0.0
N164 N 0.56341 0.59455 0.87023 0.0
C165 C 0.53668 0.61417 0.87233 0.0
C166 C 0.54991 0.65213 0.86145 0.0
C167 C 0.58773 0.65753 0.85193 0.0
C168 C 0.59557 0.6225 0.85765 0.0
N169 N 0.51324 0.49691 0.86661 0.0
C170 C 0.448 0.43394 0.84415 0.0
C171 C 0.44609 0.47269 0.8495 0.0
C172 C 0.47862 0.50332 0.86061 0.0
C173 C 0.48405 0.42806 0.84992 0.0
C174 C 0.51607 0.45973 0.86097 0.0
N175 N 0.59981 0.5811 0.9006 0.0
C176 C 0.62486 0.64647 0.91893 0.0
C177 C 0.66287 0.64289 0.92388 0.0
C178 C 0.66842 0.60744 0.91709 0.0
C179 C 0.63673 0.57715 0.90563 0.0
C180 C 0.59413 0.61558 0.9074 0.0
H181 H 0.64298 0.55094 0.90097 0.0
H182 H 0.56629 0.62064 0.90407 0.0
H183 H 0.47472 0.53171 0.86429 0.0
H184 H 0.54241 0.45302 0.86495 0.0
C185 C 0.61341 0.48167 0.88242 0.0
C186 C 0.63436 0.61774 0.85083 0.0
C187 C 0.47845 0.45999 0.91619 0.0
C188 C 0.49969 0.59646 0.88478 0.0
H189 H 0.70083 0.59111 0.84026 0.0
H190 H 0.68926 0.51625 0.8573 0.0
H191 H 0.57932 0.40485 0.90667 0.0
H192 H 0.50503 0.39292 0.92491 0.0
H193 H 0.41239 0.48684 0.92694 0.0
H194 H 0.42332 0.56128 0.90972 0.0
H195 H 0.53416 0.67356 0.86063 0.0
H196 H 0.60751 0.68444 0.84198 0.0
H197 H 0.4196 0.47961 0.84513 0.0
H198 H 0.48708 0.39853 0.84629 0.0
H199 H 0.61924 0.67366 0.92363 0.0
H200 H 0.69692 0.60274 0.92069 0.0
H201 H 0.1141 0.16073 0.09579 0.0
H202 H 0.11525 0.22259 0.11255 0.0
H203 H 0.99239 0.20273 0.08841 0.0
H204 H 0.99059 0.14038 0.07181 0.0
H205 H 0.12115 0.30569 0.10199 0.0
H206 H 0.95455 0.19147 0.13974 0.0
H207 H 0.9847 0.16885 0.12714 0.0
H208 H 0.95015 0.18869 0.11674 0.0
C209 C 0.08735 0.16956 0.09403 0.0
C210 C 0.05202 0.1454 0.08258 0.0
C211 C 0.08807 0.20495 0.10361 0.0
C212 C 0.05343 0.21673 0.10197 0.0
C213 C 0.01887 0.19352 0.09018 0.0
H214 H 0.99635 0.41543 0.15187 0.0
H215 H 0.99652 0.35728 0.13325 0.0
C216 C 0.01805 0.15807 0.08063 0.0
C217 C 0.05351 0.25327 0.11262 0.0
H218 H 0.98916 0.27235 0.1432 0.0
C219 C 0.09236 0.2984 0.11104 0.0
C220 C 0.0159 0.24371 0.12442 0.0
C221 C 0.97412 0.19549 0.12728 0.0
C222 C 0.09435 0.33435 0.12076 0.0
C223 C 0.05679 0.32473 0.13258 0.0
C224 C 0.01786 0.27968 0.1341 0.0
C225 C 0.05742 0.36073 0.14369 0.0
C226 C 0.13629 0.3825 0.11808 0.0
C227 C 0.09128 0.38162 0.15589 0.0
C228 C 0.09112 0.41467 0.16663 0.0
C229 C 0.05691 0.42738 0.16548 0.0
C230 C 0.02291 0.40617 0.15326 0.0
C231 C 0.02309 0.37309 0.14253 0.0
H232 H 0.15585 0.38678 0.10559 0.0
H233 H 0.12588 0.40926 0.1184 0.0
H234 H 0.16016 0.38881 0.1286 0.0
H235 H 0.11746 0.37183 0.15729 0.0
H236 H 0.11728 0.42954 0.1761 0.0
H237 H 0.95052 0.11984 0.40859 0.0
H238 H 0.89648 0.13202 0.427 0.0
H239 H 0.8188 0.98589 0.44155 0.0
H240 H 0.87185 0.97319 0.42316 0.0
H241 H 0.76236 0.0207 0.43256 0.0
H242 H 0.88871 0.1308 0.47998 0.0
H243 H 0.9052 0.15102 0.45776 0.0
H244 H 0.90095 0.09742 0.46488 0.0
C245 C 0.92202 0.09029 0.41574 0.0
C246 C 0.91579 0.04553 0.41438 0.0
C247 C 0.89128 0.09738 0.42633 0.0
C248 C 0.85389 0.05994 0.43583 0.0
C249 C 0.84743 0.01532 0.43438 0.0
H250 H 0.67866 0.04689 0.52335 0.0
H251 H 0.73671 0.04563 0.50318 0.0
C252 C 0.87798 0.00818 0.42384 0.0
C253 C 0.82073 0.06654 0.4471 0.0
H254 H 0.81226 0.11787 0.48365 0.0
C255 C 0.7733 0.04216 0.44368 0.0
C256 C 0.83498 0.09411 0.46172 0.0
C257 C 0.88514 0.11958 0.46646 0.0
C258 C 0.7397 0.04429 0.45451 0.0
C259 C 0.75396 0.07219 0.46904 0.0
C260 C 0.80143 0.09679 0.47243 0.0
C261 C 0.71987 0.0746 0.48129 0.0
C262 C 0.68902 0.01543 0.45061 0.0
C263 C 0.69156 0.09185 0.47574 0.0
C264 C 0.65838 0.0924 0.48723 0.0
C265 C 0.65331 0.07609 0.50446 0.0
C266 C 0.6821 0.0596 0.51009 0.0
C267 C 0.71522 0.059 0.49861 0.0
H268 H 0.68298 0.98789 0.44153 0.0
H269 H 0.6669 0.99884 0.46264 0.0
H270 H 0.67766 0.0382 0.44457 0.0
H271 H 0.69503 0.10476 0.46252 0.0
H272 H 0.63647 0.10527 0.48267 0.0
H273 H 0.87572 0.98461 0.75654 0.0
H274 H 0.82508 0.91523 0.77462 0.0
H275 H 0.90814 0.85518 0.75907 0.0
H276 H 0.96001 0.92535 0.74104 0.0
H277 H 0.77139 0.82545 0.76599 0.0
H278 H 0.9027 0.84106 0.81159 0.0
H279 H 0.91296 0.8878 0.79662 0.0
H280 H 0.91791 0.83978 0.78922 0.0
C281 C 0.88353 0.95683 0.75691 0.0
C282 C 0.92231 0.9609 0.74733 0.0
C283 C 0.85434 0.91703 0.76729 0.0
C284 C 0.86303 0.88015 0.76841 0.0
C285 C 0.90124 0.88356 0.7587 0.0
H286 H 0.64975 0.61013 0.81652 0.0
H287 H 0.70669 0.67113 0.79585 0.0
C288 C 0.93072 0.92363 0.7483 0.0
C289 C 0.83146 0.83829 0.77969 0.0
H290 H 0.82731 0.77525 0.81573 0.0
C291 C 0.78366 0.81429 0.77681 0.0
C292 C 0.84739 0.82408 0.79394 0.0
C293 C 0.89795 0.84966 0.79819 0.0
C294 C 0.75134 0.77696 0.78785 0.0
C295 C 0.7673 0.76247 0.80201 0.0
C296 C 0.81515 0.78613 0.8048 0.0
C297 C 0.73459 0.72448 0.81458 0.0
C298 C 0.7002 0.75457 0.78462 0.0
C299 C 0.73237 0.73369 0.83208 0.0
C300 C 0.70033 0.69879 0.84387 0.0
C301 C 0.67004 0.65404 0.83839 0.0
C302 C 0.67282 0.64447 0.82099 0.0
C303 C 0.70504 0.67933 0.8092 0.0
H304 H 0.69295 0.7769 0.776 0.0
H305 H 0.6888 0.72131 0.77829 0.0
H306 H 0.67896 0.74698 0.79693 0.0
H307 H 0.75484 0.76817 0.83655 0.0
H308 H 0.6987 0.70682 0.85725 0.0
H309 H 0.10293 0.95149 0.06502 0.0
H310 H 0.10426 0.88954 0.08214 0.0
H311 H 0.9939 0.87849 0.11652 0.0
H312 H 0.99158 0.93916 0.09933 0.0
H313 H 0.123 0.8866 0.11562 0.0
H314 H 0.94352 0.74449 0.1064 0.0
H315 H 0.9706 0.79817 0.09347 0.0
H316 H 0.9444 0.79466 0.11462 0.0
C317 C 0.07864 0.93548 0.07612 0.0
C318 C 0.04692 0.95004 0.08072 0.0
C319 C 0.07947 0.90013 0.08592 0.0
C320 C 0.04856 0.87863 0.10046 0.0
C321 C 0.01719 0.89348 0.10511 0.0
H322 H 0.02561 0.7059 0.18884 0.0
H323 H 0.0249 0.76194 0.16792 0.0
C324 C 0.01613 0.92849 0.09529 0.0
C325 C 0.05025 0.84214 0.11126 0.0
H326 H 0.98229 0.73273 0.12976 0.0
C327 C 0.09237 0.85276 0.11852 0.0
C328 C 0.01033 0.79779 0.11503 0.0
C329 C 0.96481 0.78289 0.10682 0.0
C330 C 0.09513 0.82094 0.12987 0.0
C331 C 0.05483 0.77749 0.13409 0.0
C332 C 0.01303 0.76633 0.12658 0.0
C333 C 0.05529 0.74358 0.1466 0.0
C334 C 0.14072 0.83413 0.13767 0.0
C335 C 0.07232 0.71463 0.14145 0.0
C336 C 0.07241 0.68248 0.15333 0.0
C337 C 0.05579 0.67912 0.17053 0.0
C338 C 0.03867 0.70805 0.17564 0.0
C339 C 0.03826 0.73993 0.16374 0.0
H340 H 0.16842 0.87017 0.13376 0.0
H341 H 0.13587 0.83081 0.15199 0.0
H342 H 0.15252 0.80991 0.13358 0.0
H343 H 0.08539 0.71685 0.12825 0.0
H344 H 0.08548 0.66025 0.14911 0.0
H345 H 0.10454 0.97781 0.41099 0.0
H346 H 0.17041 0.9939 0.42819 0.0
H347 H 0.2053 0.13648 0.43121 0.0
H348 H 0.13916 0.12083 0.4138 0.0
H349 H 0.2713 0.06922 0.42063 0.0
H350 H 0.18956 0.08081 0.48295 0.0
H351 H 0.15519 0.05058 0.46508 0.0
H352 H 0.18838 0.11277 0.46415 0.0
C353 C 0.1261 0.0127 0.41526 0.0
C354 C 0.11626 0.04798 0.41107 0.0
C355 C 0.16387 0.02181 0.42507 0.0
C356 C 0.19246 0.06622 0.43108 0.0
C357 C 0.18336 0.10184 0.42678 0.0
H358 H 0.40868 0.14285 0.50545 0.0
H359 H 0.35425 0.14503 0.48572 0.0
C360 C 0.14567 0.09286 0.41679 0.0
C361 C 0.23137 0.07453 0.44198 0.0
H362 H 0.26262 0.08642 0.48381 0.0
C363 C 0.26969 0.0734 0.43442 0.0
C364 C 0.22921 0.08019 0.45993 0.0
C365 C 0.18839 0.08102 0.46865 0.0
C366 C 0.30576 0.07725 0.44439 0.0
C367 C 0.3027 0.08092 0.4625 0.0
C368 C 0.26493 0.08339 0.46996 0.0
C369 C 0.3373 0.08051 0.47402 0.0
C370 C 0.34691 0.0777 0.43535 0.0
C371 C 0.34576 0.04335 0.47416 0.0
C372 C 0.37738 0.0423 0.48527 0.0
C373 C 0.40088 0.07808 0.49671 0.0
C374 C 0.39198 0.11508 0.49664 0.0
C375 C 0.36052 0.11622 0.48544 0.0
H376 H 0.35158 0.09015 0.42161 0.0
H377 H 0.37961 0.10016 0.44181 0.0
H378 H 0.34087 0.04184 0.43554 0.0
H379 H 0.32748 0.01476 0.46581 0.0
H380 H 0.38352 0.01345 0.48479 0.0
H381 H 0.08829 0.18864 0.76165 0.0
H382 H 0.15388 0.23605 0.77916 0.0
H383 H 0.23169 0.17855 0.75557 0.0
H384 H 0.16592 0.13053 0.73789 0.0
H385 H 0.19998 0.20145 0.80268 0.0
H386 H 0.31728 0.32526 0.74959 0.0
H387 H 0.25494 0.29093 0.74798 0.0
H388 H 0.2897 0.26403 0.74612 0.0
C389 C 0.11928 0.18595 0.7601 0.0
C390 C 0.12174 0.15574 0.74827 0.0
C391 C 0.15673 0.21308 0.77018 0.0
C392 C 0.19771 0.21108 0.76856 0.0
C393 C 0.20045 0.18089 0.75688 0.0
H394 H 0.46002 0.38644 0.81774 0.0
H395 H 0.40058 0.32927 0.79988 0.0
C396 C 0.16275 0.15334 0.74685 0.0
C397 C 0.23719 0.24058 0.77928 0.0
H398 H 0.34477 0.3385 0.77758 0.0
C399 C 0.2318 0.23125 0.7972 0.0
C400 C 0.27872 0.27918 0.77207 0.0
C401 C 0.2858 0.2909 0.7529 0.0
C402 C 0.26668 0.25983 0.80816 0.0
C403 C 0.30753 0.29964 0.80105 0.0
C404 C 0.31343 0.30817 0.78304 0.0
C405 C 0.3436 0.33375 0.81211 0.0
C406 C 0.2595 0.2468 0.82724 0.0
C407 C 0.33157 0.35581 0.8248 0.0
C408 C 0.36532 0.38805 0.83518 0.0
C409 C 0.41217 0.39961 0.83296 0.0
C410 C 0.42425 0.37793 0.82004 0.0
C411 C 0.39034 0.34545 0.80971 0.0
H412 H 0.23512 0.20898 0.82975 0.0
H413 H 0.29295 0.25633 0.83306 0.0
H414 H 0.24407 0.26547 0.83383 0.0
H415 H 0.296 0.34827 0.82665 0.0
H416 H 0.35447 0.40353 0.84508 0.0
H417 H 0.95427 0.11599 0.69538 0.0
H418 H 0.89427 0.11687 0.67838 0.0
H419 H 0.86824 0.99025 0.65525 0.0
H420 H 0.92873 0.98959 0.67198 0.0
H421 H 0.87798 0.05601 0.63124 0.0
H422 H 0.75325 0.03726 0.68462 0.0
H423 H 0.81128 0.08483 0.68674 0.0
H424 H 0.80032 0.02628 0.68775 0.0
C425 C 0.93548 0.08811 0.68679 0.0
C426 C 0.94622 0.05268 0.68504 0.0
C427 C 0.90098 0.08851 0.67715 0.0
C428 C 0.87625 0.05329 0.6657 0.0
C429 C 0.88672 0.0177 0.66405 0.0
H430 H 0.62734 1.00032 0.61417 0.0
H431 H 0.68383 0.99687 0.63246 0.0
C432 C 0.92126 0.01733 0.67365 0.0
C433 C 0.841 0.05459 0.65484 0.0
H434 H 0.7395 0.05689 0.65663 0.0
C435 C 0.84762 0.05604 0.6368 0.0
C436 C 0.80107 0.05407 0.66209 0.0
C437 C 0.79068 0.05007 0.68136 0.0
C438 C 0.81587 0.0577 0.62581 0.0
C439 C 0.7768 0.05882 0.63304 0.0
C440 C 0.76972 0.05657 0.65109 0.0
C441 C 0.74251 0.06157 0.62208 0.0
C442 C 0.82405 0.05739 0.60655 0.0
C443 C 0.7565 0.09945 0.61032 0.0
C444 C 0.72436 0.10134 0.59973 0.0
C445 C 0.67737 0.06552 0.60074 0.0
C446 C 0.66332 0.02812 0.61281 0.0
C447 C 0.69552 0.02625 0.62339 0.0
H448 H 0.84777 0.04396 0.60337 0.0
H449 H 0.79074 0.03584 0.60031 0.0
H450 H 0.84042 0.0934 0.60093 0.0
H451 H 0.79238 0.12756 0.6093 0.0
H452 H 0.73657 0.1305 0.59052 0.0
H453 H 0.97312 0.92588 0.02766 0.0
H454 H 0.92524 0.86099 0.00956 0.0
H455 H 0.85256 0.93028 0.99335 0.0
H456 H 0.89994 0.99504 0.01118 0.0
H457 H 0.82559 0.80298 0.01042 0.0
H458 H 0.89754 0.90094 0.94753 0.0
H459 H 0.92637 0.92139 0.96741 0.0
H460 H 0.8781 0.92873 0.9625 0.0
C461 C 0.94704 0.9274 0.02021 0.0
C462 C 0.9407 0.96599 0.02085 0.0
C463 C 0.91967 0.89023 0.0099 0.0
C464 C 0.88584 0.89116 0.9999 0.0
C465 C 0.87903 0.92922 1.0007 0.0
H466 H 0.64445 0.67821 0.95277 0.0
H467 H 0.70029 0.7359 0.97145 0.0
C468 C 0.90611 0.96618 0.01101 0.0
C469 C 0.85697 0.85227 0.98877 0.0
H470 H 0.82722 0.82779 0.94703 0.0
C471 C 0.82622 0.80822 0.99654 0.0
C472 C 0.85824 0.85902 0.97064 0.0
C473 C 0.89214 0.90495 0.96147 0.0
C474 C 0.79547 0.77119 0.98672 0.0
C475 C 0.79513 0.77861 0.9687 0.0
C476 C 0.82714 0.82221 0.96086 0.0
C477 C 0.76116 0.7421 0.95776 0.0
C478 C 0.76364 0.72445 0.99574 0.0
C479 C 0.77675 0.72695 0.94364 0.0
C480 C 0.74489 0.69425 0.93282 0.0
C481 C 0.69672 0.67632 0.9358 0.0
C482 C 0.68126 0.69152 0.95 0.0
C483 C 0.71314 0.72411 0.96084 0.0
H484 H 0.77706 0.72088 0.00823 0.0
H485 H 0.72887 0.72055 0.99848 0.0
H486 H 0.75922 0.69585 0.98751 0.0
H487 H 0.81367 0.74067 0.94093 0.0
H488 H 0.75809 0.68387 0.92187 0.0
H489 H 0.9747 0.93194 0.35963 0.0
H490 H 0.98096 0.87419 0.34272 0.0
H491 H 0.11678 0.9798 0.32189 0.0
H492 H 0.11025 0.03803 0.33849 0.0
H493 H 0.063 0.92762 0.29689 0.0
H494 H 0.05624 0.812 0.35056 0.0
H495 H 0.00756 0.82111 0.35165 0.0
H496 H 0.06541 0.86926 0.35392 0.0
C497 C 0.00608 0.94282 0.35156 0.0
C498 C 0.04202 0.98955 0.35041 0.0
C499 C 0.00974 0.90966 0.34198 0.0
C500 C 0.04967 0.92242 0.33123 0.0
C501 C 0.08573 0.96906 0.33015 0.0
H502 H 0.11082 0.72483 0.28203 0.0
H503 H 0.11175 0.78467 0.29991 0.0
C504 C 0.08199 0.0023 0.33966 0.0
C505 C 0.05282 0.88763 0.32048 0.0
H506 H 0.04564 0.78187 0.32237 0.0
C507 C 0.05951 0.8959 0.30248 0.0
C508 C 0.04893 0.8465 0.32776 0.0
C509 C 0.04462 0.83683 0.34704 0.0
C510 C 0.06133 0.86377 0.29155 0.0
C511 C 0.05523 0.82163 0.29878 0.0
C512 C 0.0497 0.81387 0.31681 0.0
C513 C 0.05453 0.78524 0.28785 0.0
C514 C 0.07045 0.87565 0.27239 0.0
C515 C 0.02166 0.76511 0.27526 0.0
C516 C 0.02138 0.73128 0.26486 0.0
C517 C 0.05366 0.71635 0.26695 0.0
C518 C 0.08598 0.73598 0.27982 0.0
C519 C 0.08634 0.76998 0.29017 0.0
H520 H 0.08781 0.91372 0.26957 0.0
H521 H 0.09258 0.86284 0.26655 0.0
H522 H 0.0368 0.85906 0.26606 0.0
H523 H 0.99609 0.77554 0.27347 0.0
H524 H 0.99625 0.71735 0.25501 0.0
H525 H 0.11831 0.98426 0.69149 0.0
H526 H 0.18023 0.98522 0.67307 0.0
H527 H 0.23806 0.13157 0.66115 0.0
H528 H 0.175 0.13012 0.6788 0.0
H529 H 0.23506 0.09136 0.63306 0.0
H530 H 0.31274 0.02875 0.6807 0.0
H531 H 0.25196 0.9882 0.67897 0.0
H532 H 0.27029 0.04482 0.68697 0.0
C533 C 0.14458 0.01671 0.68508 0.0
C534 C 0.14183 0.05712 0.68659 0.0
C535 C 0.18021 0.01733 0.67463 0.0
C536 C 0.21452 0.05867 0.66588 0.0
C537 C 0.21217 0.09921 0.66772 0.0
H538 H 0.47129 0.09784 0.61502 0.0
H539 H 0.41189 0.09654 0.63515 0.0
C540 C 0.17611 0.09838 0.67786 0.0
C541 C 0.25129 0.05944 0.65401 0.0
H542 H 0.33583 0.03012 0.65105 0.0
C543 C 0.25727 0.07823 0.63708 0.0
C544 C 0.28089 0.04294 0.65921 0.0
C545 C 0.27902 0.02552 0.6775 0.0
C546 C 0.29154 0.08074 0.62524 0.0
C547 C 0.31959 0.06217 0.63016 0.0
C548 C 0.314 0.0438 0.64714 0.0
C549 C 0.35546 0.06227 0.61801 0.0
C550 C 0.29805 0.10458 0.60774 0.0
C551 C 0.34359 0.0428 0.60178 0.0
C552 C 0.3777 0.04458 0.59016 0.0
C553 C 0.42414 0.06478 0.59471 0.0
C554 C 0.43578 0.08264 0.61116 0.0
C555 C 0.40182 0.08164 0.62267 0.0
H556 H 0.2852 0.12946 0.60807 0.0
H557 H 0.33524 0.1237 0.60303 0.0
H558 H 0.27775 0.07816 0.59833 0.0
H559 H 0.30791 0.02626 0.59805 0.0
H560 H 0.36785 0.03013 0.5776 0.0
H561 H 0.11144 0.2111 0.01106 0.0
H562 H 0.18022 0.26261 0.99264 0.0
H563 H 0.24303 0.18155 0.00621 0.0
H564 H 0.17349 0.12885 0.02461 0.0
H565 H 0.27041 0.31696 1.00119 0.0
H566 H 0.25671 0.18944 0.95347 0.0
H567 H 0.20955 0.17786 0.96882 0.0
H568 H 0.25813 0.17334 0.9756 0.0
C569 C 0.13967 0.20387 0.01016 0.0
C570 C 0.13662 0.16549 0.01934 0.0
C571 C 0.17913 0.23355 0.99959 0.0
C572 C 0.21665 0.22576 0.99786 0.0
C573 C 0.21414 0.18779 0.00708 0.0
H574 H 0.48634 0.44247 0.95007 0.0
H575 H 0.42537 0.38422 0.97047 0.0
C576 C 0.17443 0.15782 0.01768 0.0
C577 C 0.25835 0.2582 0.98656 0.0
H578 H 0.32185 0.26527 0.94974 0.0
C579 C 0.28184 0.30562 0.98999 0.0
C580 C 0.27291 0.24346 0.97184 0.0
C581 C 0.24787 0.19335 0.96706 0.0
C582 C 0.31903 0.33872 0.97904 0.0
C583 C 0.33386 0.32396 0.96439 0.0
C584 C 0.31069 0.2765 0.96104 0.0
C585 C 0.37177 0.35756 0.95194 0.0
C586 C 0.34093 0.38939 0.98291 0.0
C587 C 0.36237 0.36098 0.93464 0.0
C588 C 0.39723 0.39383 0.92299 0.0
C589 C 0.44212 0.42367 0.92844 0.0
C590 C 0.45187 0.41975 0.94564 0.0
C591 C 0.41704 0.38676 0.95728 0.0
H592 H 0.31838 0.39574 0.99201 0.0
H593 H 0.37449 0.40082 0.98894 0.0
H594 H 0.3481 0.41114 0.97089 0.0
H595 H 0.32777 0.3388 0.93021 0.0
H596 H 0.38907 0.39635 0.90977 0.0
H597 H 0.08605 0.23132 0.36775 0.0
H598 H 0.08979 0.29592 0.35063 0.0
H599 H 0.98545 0.19826 0.31824 0.0
H600 H 0.98071 0.13395 0.33545 0.0
H601 H 0.11413 0.32087 0.31672 0.0
H602 H 0.93243 0.27979 0.32942 0.0
H603 H 0.95772 0.25265 0.34185 0.0
H604 H 0.93499 0.23135 0.32118 0.0
C605 C 0.06356 0.22367 0.3571 0.0
C606 C 0.03283 0.17746 0.35306 0.0
C607 C 0.06578 0.26062 0.3473 0.0
C608 C 0.03725 0.25203 0.33332 0.0
C609 C 0.00686 0.20589 0.32924 0.0
H610 H 0.02334 0.40577 0.24546 0.0
H611 H 0.02053 0.3482 0.26653 0.0
C612 C 0.00442 0.16906 0.33905 0.0
C613 C 0.04047 0.29104 0.32248 0.0
H614 H 0.97474 0.33238 0.30516 0.0
C615 C 0.08376 0.32372 0.31439 0.0
C616 C 1.00088 0.295 0.31946 0.0
C617 C 0.95401 0.2631 0.32859 0.0
C618 C 0.08809 0.35904 0.3029 0.0
C619 C 0.04819 0.36172 0.29941 0.0
C620 C 0.00518 0.32989 0.30777 0.0
C621 C 0.05029 0.39673 0.28676 0.0
C622 C 0.13494 0.39262 0.29415 0.0
C623 C 0.06768 0.4429 0.29125 0.0
C624 C 0.06892 0.47561 0.2793 0.0
C625 C 0.05313 0.46266 0.26266 0.0
C626 C 0.03578 0.41646 0.25821 0.0
C627 C 0.03418 0.3837 0.2702 0.0
H628 H 0.16204 0.38403 0.29735 0.0
H629 H 0.13227 0.39264 0.27992 0.0
H630 H 0.14623 0.42829 0.2982 0.0
H631 H 0.07999 0.45348 0.30401 0.0
H632 H 0.0821 0.51099 0.28302 0.0
loop_
_geom_bond_atom_site_label_1
_geom_bond_atom_site_label_2
_geom_bond_distance
_geom_bond_site_symmetry_2
_ccdc_geom_bond_type
Co0 O1 2.216 1_545 S
Co0 O2 2.091 . S
Co0 O4 2.004 . S
Co0 O10 2.021 . S
Co0 O12 2.137 . S
Co0 O13 2.244 . S
O1 Co0 2.216 1_565 S
O1 C8 1.247 . S
O2 Co0 2.091 . S
O2 C8 1.261 1_545 S
C3 O12 1.247 . S
C3 O13 1.272 . S
O4 Co0 2.004 . S
O4 C9 1.259 . S
Co5 O6 2.061 . S
Co5 O11 2.052 1_455 S
Co5 O13 2.135 . S
O6 Co5 2.061 . S
O6 C9 1.235 . S
C7 O10 1.238 1_655 S
C7 O11 1.241 . S
C8 O1 1.247 . S
C8 O2 1.261 1_565 S
C9 O4 1.259 . S
C9 O6 1.235 . S
O10 Co0 2.021 . S
O10 C7 1.238 1_455 S
O11 Co5 2.052 1_655 S
O11 C7 1.241 . S
O12 Co0 2.137 . S
O12 C3 1.247 . S
O13 Co0 2.244 . S
O13 C3 1.272 . S
O13 Co5 2.135 . S
Co14 O15 2.216 . S
Co14 O16 2.091 . S
Co14 O18 2.004 . S
Co14 O24 2.021 . S
Co14 O26 2.137 . S
Co14 O27 2.244 . S
O15 Co14 2.216 . S
O15 C22 1.247 . S
O16 Co14 2.091 . S
O16 C22 1.261 . S
C17 O26 1.247 . S
C17 O27 1.272 . S
O18 Co14 2.004 . S
O18 C23 1.259 . S
Co19 O20 2.061 1_665 S
Co19 O25 2.052 1_565 S
Co19 O27 2.135 1_665 S
O20 Co19 2.061 1_445 S
O20 C23 1.235 . S
C21 O24 1.238 1_655 S
C21 O25 1.241 . S
C22 O15 1.247 . S
C22 O16 1.261 . S
C23 O18 1.259 . S
C23 O20 1.235 . S
O24 Co14 2.021 . S
O24 C21 1.238 1_455 S
O25 Co19 2.052 1_545 S
O25 C21 1.241 . S
O26 Co14 2.137 . S
O26 C17 1.247 . S
O27 Co14 2.244 . S
O27 C17 1.272 . S
O27 Co19 2.135 1_445 S
Co28 O29 2.216 . S
Co28 O30 2.091 . S
Co28 O32 2.004 1_545 S
Co28 O38 2.021 . S
Co28 O40 2.137 . S
Co28 O41 2.244 . S
O29 Co28 2.216 . S
O29 C36 1.247 . S
O30 Co28 2.091 . S
O30 C36 1.261 . S
C31 O40 1.247 1_655 S
C31 O41 1.272 1_655 S
O32 Co28 2.004 1_565 S
O32 C37 1.259 1_455 S
Co33 O34 2.061 . S
Co33 O39 2.052 1_655 S
Co33 O41 2.135 1_655 S
O34 Co33 2.061 . S
O34 C37 1.235 1_545 S
C35 O38 1.238 . S
C35 O39 1.241 . S
C36 O29 1.247 . S
C36 O30 1.261 . S
C37 O32 1.259 1_655 S
C37 O34 1.235 1_565 S
O38 Co28 2.021 . S
O38 C35 1.238 . S
O39 Co33 2.052 1_455 S
O39 C35 1.241 . S
O40 Co28 2.137 . S
O40 C31 1.247 1_455 S
O41 Co28 2.244 . S
O41 C31 1.272 1_455 S
O41 Co33 2.135 1_455 S
C42 C43 1.443 . S
C42 N46 1.376 . S
C42 C80 1.389 . S
C43 C42 1.443 . S
C43 C44 1.340 . S
C43 H83 0.951 . S
C44 C43 1.340 . S
C44 C45 1.439 . S
C44 H84 0.950 . S
C45 C44 1.439 . S
C45 N46 1.374 . S
C45 C79 1.395 . S
N46 C42 1.376 . S
N46 C45 1.374 . S
N46 Co47 2.008 . S
Co47 N46 2.008 . S
Co47 N48 1.995 . S
Co47 N53 2.008 1_455 S
Co47 N58 1.995 1_455 S
Co47 N63 2.282 . S
Co47 N69 2.282 . S
N48 Co47 1.995 . S
N48 C49 1.376 . S
N48 C52 1.383 . S
C49 N48 1.376 . S
C49 C50 1.446 . S
C49 C79 1.391 . S
C50 C49 1.446 . S
C50 C51 1.339 . S
C50 H85 0.949 . S
C51 C50 1.339 . S
C51 C52 1.439 . S
C51 H86 0.950 . S
C52 N48 1.383 . S
C52 C51 1.439 . S
C52 C81 1.392 . S
N53 Co47 2.008 1_655 S
N53 C54 1.376 . S
N53 C57 1.374 . S
C54 N53 1.376 . S
C54 C55 1.443 . S
C54 C81 1.389 1_655 S
C55 C54 1.443 . S
C55 C56 1.340 . S
C55 H87 0.951 . S
C56 C55 1.340 . S
C56 C57 1.439 . S
C56 H88 0.950 . S
C57 N53 1.374 . S
C57 C56 1.439 . S
C57 C82 1.395 . S
N58 Co47 1.995 1_655 S
N58 C59 1.376 . S
N58 C62 1.383 . S
C59 N58 1.376 . S
C59 C60 1.446 . S
C59 C82 1.391 . S
C60 C59 1.446 . S
C60 C61 1.339 . S
C60 H89 0.949 . S
C61 C60 1.339 . S
C61 C62 1.439 . S
C61 H90 0.950 . S
C62 N58 1.383 . S
C62 C61 1.439 . S
C62 C80 1.392 1_655 S
N63 Co47 2.282 . S
N63 C66 1.332 1_455 S
N63 C68 1.332 . S
C64 C65 1.386 1_455 S
C64 C67 1.388 . S
C65 C64 1.386 1_655 S
C65 C66 1.382 . S
C65 H91 0.950 . S
C66 N63 1.332 1_655 S
C66 C65 1.382 . S
C66 H77 0.952 . S
C67 C64 1.388 . S
C67 C68 1.382 . S
C67 H92 0.950 . S
C68 N63 1.332 . S
C68 C67 1.382 . S
C68 H78 0.948 . S
N69 Co47 2.282 . S
N69 C73 1.332 . S
N69 C74 1.332 1_455 S
C70 C71 1.388 1_655 S
C70 C74 1.382 . S
C70 H93 0.950 . S
C71 C70 1.388 1_455 S
C71 C72 1.386 . S
C72 C71 1.386 . S
C72 C73 1.382 . S
C72 H94 0.950 . S
C73 N69 1.332 . S
C73 C72 1.382 . S
C73 H75 0.952 . S
C74 N69 1.332 1_655 S
C74 C70 1.382 . S
C74 H76 0.948 . S
H75 C73 0.952 . S
H76 C74 0.948 . S
H77 C66 0.952 . S
H78 C68 0.948 . S
C79 C45 1.395 . S
C79 C49 1.391 . S
C80 C42 1.389 . S
C80 C62 1.392 1_455 S
C81 C52 1.392 . S
C81 C54 1.389 1_455 S
C82 C57 1.395 . S
C82 C59 1.391 . S
H83 C43 0.951 . S
H84 C44 0.950 . S
H85 C50 0.949 . S
H86 C51 0.950 . S
H87 C55 0.951 . S
H88 C56 0.950 . S
H89 C60 0.949 . S
H90 C61 0.950 . S
H91 C65 0.950 . S
H92 C67 0.950 . S
H93 C70 0.950 . S
H94 C72 0.950 . S
C95 C96 1.443 1_545 S
C95 N99 1.376 . S
C95 C133 1.389 . S
C96 C95 1.443 1_565 S
C96 C97 1.340 . S
C96 H136 0.951 . S
C97 C96 1.340 . S
C97 C98 1.439 . S
C97 H137 0.950 . S
C98 C97 1.439 . S
C98 N99 1.374 1_565 S
C98 C132 1.395 . S
N99 C95 1.376 . S
N99 C98 1.374 1_545 S
N99 Co100 2.008 . S
Co100 N99 2.008 . S
Co100 N101 1.995 . S
Co100 N106 2.008 . S
Co100 N111 1.995 . S
Co100 N116 2.282 . S
Co100 N122 2.282 . S
N101 Co100 1.995 . S
N101 C102 1.376 1_545 S
N101 C105 1.383 . S
C102 N101 1.376 1_565 S
C102 C103 1.446 . S
C102 C132 1.391 . S
C103 C102 1.446 . S
C103 C104 1.339 . S
C103 H138 0.949 . S
C104 C103 1.339 . S
C104 C105 1.439 1_565 S
C104 H139 0.950 . S
C105 N101 1.383 . S
C105 C104 1.439 1_545 S
C105 C134 1.392 . S
N106 Co100 2.008 . S
N106 C107 1.376 . S
N106 C110 1.374 . S
C107 N106 1.376 . S
C107 C108 1.443 . S
C107 C134 1.389 . S
C108 C107 1.443 . S
C108 C109 1.340 . S
C108 H140 0.951 . S
C109 C108 1.340 . S
C109 C110 1.439 . S
C109 H141 0.950 . S
C110 N106 1.374 . S
C110 C109 1.439 . S
C110 C135 1.395 . S
N111 Co100 1.995 . S
N111 C112 1.376 . S
N111 C115 1.383 . S
C112 N111 1.376 . S
C112 C113 1.446 . S
C112 C135 1.391 . S
C113 C112 1.446 . S
C113 C114 1.339 . S
C113 H142 0.949 . S
C114 C113 1.339 . S
C114 C115 1.439 . S
C114 H143 0.950 . S
C115 N111 1.383 . S
C115 C114 1.439 . S
C115 C133 1.392 . S
N116 Co100 2.282 . S
N116 C119 1.332 . S
N116 C121 1.332 . S
C117 C118 1.386 . S
C117 C120 1.388 . S
C118 C117 1.386 . S
C118 C119 1.382 . S
C118 H144 0.950 . S
C119 N116 1.332 . S
C119 C118 1.382 . S
C119 H130 0.952 . S
C120 C117 1.388 . S
C120 C121 1.382 . S
C120 H145 0.950 1_545 S
C121 N116 1.332 . S
C121 C120 1.382 . S
C121 H131 0.948 1_545 S
N122 Co100 2.282 . S
N122 C126 1.332 . S
N122 C127 1.332 . S
C123 C124 1.388 . S
C123 C127 1.382 . S
C123 H146 0.950 . S
C124 C123 1.388 . S
C124 C125 1.386 . S
C125 C124 1.386 . S
C125 C126 1.382 . S
C125 H147 0.950 . S
C126 N122 1.332 . S
C126 C125 1.382 . S
C126 H128 0.952 . S
C127 N122 1.332 . S
C127 C123 1.382 . S
C127 H129 0.948 . S
H128 C126 0.952 . S
H129 C127 0.948 . S
H130 C119 0.952 . S
H131 C121 0.948 1_565 S
C132 C98 1.395 . S
C132 C102 1.391 . S
C133 C95 1.389 . S
C133 C115 1.392 . S
C134 C105 1.392 . S
C134 C107 1.389 . S
C135 C110 1.395 . S
C135 C112 1.391 . S
H136 C96 0.951 . S
H137 C97 0.950 . S
H138 C103 0.949 . S
H139 C104 0.950 . S
H140 C108 0.951 . S
H141 C109 0.950 . S
H142 C113 0.949 . S
H143 C114 0.950 . S
H144 C118 0.950 . S
H145 C120 0.950 1_565 S
H146 C123 0.950 . S
H147 C125 0.950 . S
C148 C149 1.443 . S
C148 N152 1.376 . S
C148 C186 1.389 . S
C149 C148 1.443 . S
C149 C150 1.340 . S
C149 H189 0.951 . S
C150 C149 1.340 . S
C150 C151 1.439 . S
C150 H190 0.950 . S
C151 C150 1.439 . S
C151 N152 1.374 . S
C151 C185 1.395 . S
N152 C148 1.376 . S
N152 C151 1.374 . S
N152 Co153 2.008 . S
Co153 N152 2.008 . S
Co153 N154 1.995 . S
Co153 N159 2.008 . S
Co153 N164 1.995 . S
Co153 N169 2.282 . S
Co153 N175 2.282 . S
N154 Co153 1.995 . S
N154 C155 1.376 . S
N154 C158 1.383 . S
C155 N154 1.376 . S
C155 C156 1.446 . S
C155 C185 1.391 . S
C156 C155 1.446 . S
C156 C157 1.339 . S
C156 H191 0.949 . S
C157 C156 1.339 . S
C157 C158 1.439 . S
C157 H192 0.950 . S
C158 N154 1.383 . S
C158 C157 1.439 . S
C158 C187 1.392 . S
N159 Co153 2.008 . S
N159 C160 1.376 . S
N159 C163 1.374 . S
C160 N159 1.376 . S
C160 C161 1.443 . S
C160 C187 1.389 . S
C161 C160 1.443 . S
C161 C162 1.340 . S
C161 H193 0.951 . S
C162 C161 1.340 . S
C162 C163 1.439 . S
C162 H194 0.950 . S
C163 N159 1.374 . S
C163 C162 1.439 . S
C163 C188 1.395 . S
N164 Co153 1.995 . S
N164 C165 1.376 . S
N164 C168 1.383 . S
C165 N164 1.376 . S
C165 C166 1.446 . S
C165 C188 1.391 . S
C166 C165 1.446 . S
C166 C167 1.339 . S
C166 H195 0.949 . S
C167 C166 1.339 . S
C167 C168 1.439 . S
C167 H196 0.950 . S
C168 N164 1.383 . S
C168 C167 1.439 . S
C168 C186 1.392 . S
N169 Co153 2.282 . S
N169 C172 1.332 . S
N169 C174 1.332 . S
C170 C171 1.386 . S
C170 C173 1.388 . S
C171 C170 1.386 . S
C171 C172 1.382 . S
C171 H197 0.950 . S
C172 N169 1.332 . S
C172 C171 1.382 . S
C172 H183 0.952 . S
C173 C170 1.388 . S
C173 C174 1.382 . S
C173 H198 0.950 . S
C174 N169 1.332 . S
C174 C173 1.382 . S
C174 H184 0.948 . S
N175 Co153 2.282 . S
N175 C179 1.332 . S
N175 C180 1.332 . S
C176 C177 1.388 . S
C176 C180 1.382 . S
C176 H199 0.950 . S
C177 C176 1.388 . S
C177 C178 1.386 . S
C178 C177 1.386 . S
C178 C179 1.382 . S
C178 H200 0.950 . S
C179 N175 1.332 . S
C179 C178 1.382 . S
C179 H181 0.952 . S
C180 N175 1.332 . S
C180 C176 1.382 . S
C180 H182 0.948 . S
H181 C179 0.952 . S
H182 C180 0.948 . S
H183 C172 0.952 . S
H184 C174 0.948 . S
C185 C151 1.395 . S
C185 C155 1.391 . S
C186 C148 1.389 . S
C186 C168 1.392 . S
C187 C158 1.392 . S
C187 C160 1.389 . S
C188 C163 1.395 . S
C188 C165 1.391 . S
H189 C149 0.951 . S
H190 C150 0.950 . S
H191 C156 0.949 . S
H192 C157 0.950 . S
H193 C161 0.951 . S
H194 C162 0.950 . S
H195 C166 0.949 . S
H196 C167 0.950 . S
H197 C171 0.950 . S
H198 C173 0.950 . S
H199 C176 0.950 . S
H200 C178 0.950 . S
H201 C209 0.929 . S
H202 C211 0.930 . S
H203 C213 0.930 . S
H204 C216 0.929 . S
H205 C219 0.930 . S
H206 C221 0.960 . S
H207 C221 0.960 . S
H208 C221 0.960 . S
C209 H201 0.929 . S
C209 C210 1.377 . S
C209 C211 1.384 . S
C210 C209 1.377 . S
C210 C216 1.390 . S
C211 H202 0.930 . S
C211 C209 1.384 . S
C211 C212 1.372 . S
C212 C211 1.372 . S
C212 C213 1.400 . S
C212 C217 1.490 . S
C213 H203 0.930 . S
C213 C212 1.400 . S
C213 C216 1.386 . S
H214 C230 0.930 . S
H215 C231 0.931 . S
C216 H204 0.929 . S
C216 C210 1.390 . S
C216 C213 1.386 . S
C217 C212 1.490 . S
C217 C219 1.395 . S
C217 C220 1.390 1_455 S
H218 C224 0.930 1_655 S
C219 H205 0.930 . S
C219 C217 1.395 . S
C219 C222 1.403 . S
C220 C217 1.390 1_655 S
C220 C221 1.532 . S
C220 C224 1.404 1_655 S
C221 H206 0.960 . S
C221 H207 0.960 . S
C221 H208 0.960 . S
C221 C220 1.532 . S
C222 C219 1.403 . S
C222 C223 1.392 . S
C222 C226 1.495 . S
C223 C222 1.392 . S
C223 C224 1.385 . S
C223 C225 1.478 . S
C224 H218 0.930 1_455 S
C224 C220 1.404 1_455 S
C224 C223 1.385 . S
C225 C223 1.478 . S
C225 C227 1.381 . S
C225 C231 1.383 . S
C226 C222 1.495 . S
C226 H232 0.959 . S
C226 H233 0.961 . S
C226 H234 0.960 . S
C227 C225 1.381 . S
C227 C228 1.394 . S
C227 H235 0.930 . S
C228 C227 1.394 . S
C228 C229 1.383 . S
C228 H236 0.929 . S
C229 C228 1.383 . S
C229 C230 1.377 . S
C230 H214 0.930 . S
C230 C229 1.377 . S
C230 C231 1.379 . S
C231 H215 0.931 . S
C231 C225 1.383 . S
C231 C230 1.379 . S
H232 C226 0.959 . S
H233 C226 0.961 . S
H234 C226 0.960 . S
H235 C227 0.930 . S
H236 C228 0.929 . S
H237 C245 0.929 . S
H238 C247 0.930 . S
H239 C249 0.930 . S
H240 C252 0.929 . S
H241 C255 0.930 . S
H242 C257 0.960 . S
H243 C257 0.960 . S
H244 C257 0.960 . S
C245 H237 0.929 . S
C245 C246 1.377 . S
C245 C247 1.384 . S
C246 C245 1.377 . S
C246 C252 1.390 . S
C247 H238 0.930 . S
C247 C245 1.384 . S
C247 C248 1.372 . S
C248 C247 1.372 . S
C248 C249 1.400 . S
C248 C253 1.490 . S
C249 H239 0.930 . S
C249 C248 1.400 . S
C249 C252 1.386 . S
H250 C266 0.930 . S
H251 C267 0.931 . S
C252 H240 0.929 . S
C252 C246 1.390 . S
C252 C249 1.386 . S
C253 C248 1.490 . S
C253 C255 1.395 . S
C253 C256 1.403 . S
H254 C260 0.930 . S
C255 H241 0.930 . S
C255 C253 1.395 . S
C255 C258 1.403 . S
C256 C253 1.403 . S
C256 C257 1.524 . S
C256 C260 1.400 . S
C257 H242 0.960 . S
C257 H243 0.960 . S
C257 H244 0.960 . S
C257 C256 1.524 . S
C258 C255 1.403 . S
C258 C259 1.392 . S
C258 C262 1.495 . S
C259 C258 1.392 . S
C259 C260 1.385 . S
C259 C261 1.478 . S
C260 H254 0.930 . S
C260 C256 1.400 . S
C260 C259 1.385 . S
C261 C259 1.478 . S
C261 C263 1.381 . S
C261 C267 1.383 . S
C262 C258 1.495 . S
C262 H268 0.959 . S
C262 H269 0.961 . S
C262 H270 0.960 . S
C263 C261 1.381 . S
C263 C264 1.394 . S
C263 H271 0.930 . S
C264 C263 1.394 . S
C264 C265 1.383 . S
C264 H272 0.929 . S
C265 C264 1.383 . S
C265 C266 1.377 . S
C266 H250 0.930 . S
C266 C265 1.377 . S
C266 C267 1.379 . S
C267 H251 0.931 . S
C267 C261 1.383 . S
C267 C266 1.379 . S
H268 C262 0.959 . S
H269 C262 0.961 . S
H270 C262 0.960 . S
H271 C263 0.930 . S
H272 C264 0.929 . S
H273 C281 0.929 . S
H274 C283 0.930 . S
H275 C285 0.930 . S
H276 C288 0.929 . S
H277 C291 0.930 . S
H278 C293 0.960 . S
H279 C293 0.960 . S
H280 C293 0.960 . S
C281 H273 0.929 . S
C281 C282 1.377 . S
C281 C283 1.384 . S
C282 C281 1.377 . S
C282 C288 1.390 . S
C283 H274 0.930 . S
C283 C281 1.384 . S
C283 C284 1.372 . S
C284 C283 1.372 . S
C284 C285 1.400 . S
C284 C289 1.490 . S
C285 H275 0.930 . S
C285 C284 1.400 . S
C285 C288 1.386 . S
H286 C302 0.930 . S
H287 C303 0.931 . S
C288 H276 0.929 . S
C288 C282 1.390 . S
C288 C285 1.386 . S
C289 C284 1.490 . S
C289 C291 1.395 . S
C289 C292 1.403 . S
H290 C296 0.930 . S
C291 H277 0.930 . S
C291 C289 1.395 . S
C291 C294 1.403 . S
C292 C289 1.403 . S
C292 C293 1.524 . S
C292 C296 1.400 . S
C293 H278 0.960 . S
C293 H279 0.960 . S
C293 H280 0.960 . S
C293 C292 1.524 . S
C294 C291 1.403 . S
C294 C295 1.392 . S
C294 C298 1.495 . S
C295 C294 1.392 . S
C295 C296 1.385 . S
C295 C297 1.478 . S
C296 H290 0.930 . S
C296 C292 1.400 . S
C296 C295 1.385 . S
C297 C295 1.478 . S
C297 C299 1.381 . S
C297 C303 1.383 . S
C298 C294 1.495 . S
C298 H304 0.959 . S
C298 H305 0.961 . S
C298 H306 0.960 . S
C299 C297 1.381 . S
C299 C300 1.394 . S
C299 H307 0.930 . S
C300 C299 1.394 . S
C300 C301 1.383 . S
C300 H308 0.929 . S
C301 C300 1.383 . S
C301 C302 1.377 . S
C302 H286 0.930 . S
C302 C301 1.377 . S
C302 C303 1.379 . S
C303 H287 0.931 . S
C303 C297 1.383 . S
C303 C302 1.379 . S
H304 C298 0.959 . S
H305 C298 0.961 . S
H306 C298 0.960 . S
H307 C299 0.930 . S
H308 C300 0.929 . S
H309 C317 0.929 . S
H310 C319 0.930 . S
H311 C321 0.930 . S
H312 C324 0.929 . S
H313 C327 0.930 . S
H314 C329 0.960 . S
H315 C329 0.960 . S
H316 C329 0.960 . S
C317 H309 0.929 . S
C317 C318 1.377 . S
C317 C319 1.384 . S
C318 C317 1.377 . S
C318 C324 1.390 . S
C319 H310 0.930 . S
C319 C317 1.384 . S
C319 C320 1.372 . S
C320 C319 1.372 . S
C320 C321 1.400 . S
C320 C325 1.490 . S
C321 H311 0.930 . S
C321 C320 1.400 . S
C321 C324 1.386 . S
H322 C338 0.930 . S
H323 C339 0.931 . S
C324 H312 0.929 . S
C324 C318 1.390 . S
C324 C321 1.386 . S
C325 C320 1.490 . S
C325 C327 1.395 . S
C325 C328 1.403 . S
H326 C332 0.930 1_655 S
C327 H313 0.930 . S
C327 C325 1.395 . S
C327 C330 1.403 . S
C328 C325 1.403 . S
C328 C329 1.524 1_455 S
C328 C332 1.400 . S
C329 H314 0.960 . S
C329 H315 0.960 . S
C329 H316 0.960 . S
C329 C328 1.524 1_655 S
C330 C327 1.403 . S
C330 C331 1.392 . S
C330 C334 1.495 . S
C331 C330 1.392 . S
C331 C332 1.385 . S
C331 C333 1.478 . S
C332 H326 0.930 1_455 S
C332 C328 1.400 . S
C332 C331 1.385 . S
C333 C331 1.478 . S
C333 C335 1.381 . S
C333 C339 1.383 . S
C334 C330 1.495 . S
C334 H340 0.959 . S
C334 H341 0.961 . S
C334 H342 0.960 . S
C335 C333 1.381 . S
C335 C336 1.394 . S
C335 H343 0.930 . S
C336 C335 1.394 . S
C336 C337 1.383 . S
C336 H344 0.929 . S
C337 C336 1.383 . S
C337 C338 1.377 . S
C338 H322 0.930 . S
C338 C337 1.377 . S
C338 C339 1.379 . S
C339 H323 0.931 . S
C339 C333 1.383 . S
C339 C338 1.379 . S
H340 C334 0.959 . S
H341 C334 0.961 . S
H342 C334 0.960 . S
H343 C335 0.930 . S
H344 C336 0.929 . S
H345 C353 0.929 . S
H346 C355 0.930 . S
H347 C357 0.930 . S
H348 C360 0.929 . S
H349 C363 0.930 . S
H350 C365 0.960 . S
H351 C365 0.960 1_565 S
H352 C365 0.960 . S
C353 H345 0.929 . S
C353 C354 1.377 . S
C353 C355 1.384 . S
C354 C353 1.377 . S
C354 C360 1.390 . S
C355 H346 0.930 . S
C355 C353 1.384 . S
C355 C356 1.372 . S
C356 C355 1.372 . S
C356 C357 1.400 . S
C356 C361 1.490 . S
C357 H347 0.930 . S
C357 C356 1.400 . S
C357 C360 1.386 . S
H358 C374 0.930 . S
H359 C375 0.931 . S
C360 H348 0.929 . S
C360 C354 1.390 . S
C360 C357 1.386 . S
C361 C356 1.490 . S
C361 C363 1.395 . S
C361 C364 1.403 . S
H362 C368 0.930 . S
C363 H349 0.930 . S
C363 C361 1.395 . S
C363 C366 1.403 . S
C364 C361 1.403 . S
C364 C365 1.524 . S
C364 C368 1.400 . S
C365 H350 0.960 . S
C365 H351 0.960 1_545 S
C365 H352 0.960 . S
C365 C364 1.524 . S
C366 C363 1.403 . S
C366 C367 1.392 . S
C366 C370 1.495 . S
C367 C366 1.392 . S
C367 C368 1.385 . S
C367 C369 1.478 . S
C368 H362 0.930 . S
C368 C364 1.400 . S
C368 C367 1.385 . S
C369 C367 1.478 . S
C369 C371 1.381 . S
C369 C375 1.383 . S
C370 C366 1.495 . S
C370 H376 0.959 . S
C370 H377 0.961 . S
C370 H378 0.960 . S
C371 C369 1.381 . S
C371 C372 1.394 . S
C371 H379 0.930 . S
C372 C371 1.394 . S
C372 C373 1.383 . S
C372 H380 0.929 . S
C373 C372 1.383 . S
C373 C374 1.377 . S
C374 H358 0.930 . S
C374 C373 1.377 . S
C374 C375 1.379 . S
C375 H359 0.931 . S
C375 C369 1.383 . S
C375 C374 1.379 . S
H376 C370 0.959 . S
H377 C370 0.961 . S
H378 C370 0.960 . S
H379 C371 0.930 . S
H380 C372 0.929 . S
H381 C389 0.929 . S
H382 C391 0.930 . S
H383 C393 0.930 . S
H384 C396 0.929 . S
H385 C399 0.930 . S
H386 C401 0.960 . S
H387 C401 0.960 . S
H388 C401 0.960 . S
C389 H381 0.929 . S
C389 C390 1.377 . S
C389 C391 1.384 . S
C390 C389 1.377 . S
C390 C396 1.390 . S
C391 H382 0.930 . S
C391 C389 1.384 . S
C391 C392 1.372 . S
C392 C391 1.372 . S
C392 C393 1.400 . S
C392 C397 1.490 . S
C393 H383 0.930 . S
C393 C392 1.400 . S
C393 C396 1.386 . S
H394 C410 0.930 . S
H395 C411 0.931 . S
C396 H384 0.929 . S
C396 C390 1.390 . S
C396 C393 1.386 . S
C397 C392 1.490 . S
C397 C399 1.395 . S
C397 C400 1.403 . S
H398 C404 0.930 . S
C399 H385 0.930 . S
C399 C397 1.395 . S
C399 C402 1.403 . S
C400 C397 1.403 . S
C400 C401 1.524 . S
C400 C404 1.400 . S
C401 H386 0.960 . S
C401 H387 0.960 . S
C401 H388 0.960 . S
C401 C400 1.524 . S
C402 C399 1.403 . S
C402 C403 1.392 . S
C402 C406 1.495 . S
C403 C402 1.392 . S
C403 C404 1.385 . S
C403 C405 1.478 . S
C404 H398 0.930 . S
C404 C400 1.400 . S
C404 C403 1.385 . S
C405 C403 1.478 . S
C405 C407 1.381 . S
C405 C411 1.383 . S
C406 C402 1.495 . S
C406 H412 0.959 . S
C406 H413 0.961 . S
C406 H414 0.960 . S
C407 C405 1.381 . S
C407 C408 1.394 . S
C407 H415 0.930 . S
C408 C407 1.394 . S
C408 C409 1.383 . S
C408 H416 0.929 . S
C409 C408 1.383 . S
C409 C410 1.377 . S
C410 H394 0.930 . S
C410 C409 1.377 . S
C410 C411 1.379 . S
C411 H395 0.931 . S
C411 C405 1.383 . S
C411 C410 1.379 . S
H412 C406 0.959 . S
H413 C406 0.961 . S
H414 C406 0.960 . S
H415 C407 0.930 . S
H416 C408 0.929 . S
H417 C425 0.929 1_455 S
H418 C427 0.930 . S
H419 C429 0.930 1_565 S
H420 C432 0.929 1_565 S
H421 C435 0.930 . S
H422 C437 0.960 . S
H423 C437 0.960 . S
H424 C437 0.960 . S
C425 H417 0.929 1_655 S
C425 C426 1.377 . S
C425 C427 1.384 . S
C426 C425 1.377 . S
C426 C432 1.390 . S
C427 H418 0.930 . S
C427 C425 1.384 . S
C427 C428 1.372 . S
C428 C427 1.372 . S
C428 C429 1.400 . S
C428 C433 1.490 . S
C429 H419 0.930 1_545 S
C429 C428 1.400 . S
C429 C432 1.386 . S
H430 C446 0.930 1_565 S
H431 C447 0.931 1_565 S
C432 H420 0.929 1_545 S
C432 C426 1.390 . S
C432 C429 1.386 . S
C433 C428 1.490 . S
C433 C435 1.395 . S
C433 C436 1.403 . S
H434 C440 0.930 . S
C435 H421 0.930 . S
C435 C433 1.395 . S
C435 C438 1.403 . S
C436 C433 1.403 . S
C436 C437 1.524 . S
C436 C440 1.400 . S
C437 H422 0.960 . S
C437 H423 0.960 . S
C437 H424 0.960 . S
C437 C436 1.524 . S
C438 C435 1.403 . S
C438 C439 1.392 . S
C438 C442 1.495 . S
C439 C438 1.392 . S
C439 C440 1.385 . S
C439 C441 1.478 . S
C440 H434 0.930 . S
C440 C436 1.400 . S
C440 C439 1.385 . S
C441 C439 1.478 . S
C441 C443 1.381 . S
C441 C447 1.383 . S
C442 C438 1.495 . S
C442 H448 0.959 . S
C442 H449 0.961 . S
C442 H450 0.960 . S
C443 C441 1.381 . S
C443 C444 1.394 . S
C443 H451 0.930 . S
C444 C443 1.394 . S
C444 C445 1.383 . S
C444 H452 0.929 . S
C445 C444 1.383 . S
C445 C446 1.377 . S
C446 H430 0.930 1_545 S
C446 C445 1.377 . S
C446 C447 1.379 . S
C447 H431 0.931 1_545 S
C447 C441 1.383 . S
C447 C446 1.379 . S
H448 C442 0.959 . S
H449 C442 0.961 . S
H450 C442 0.960 . S
H451 C443 0.930 . S
H452 C444 0.929 . S
H453 C461 0.929 . S
H454 C463 0.931 1_556 S
H455 C465 0.930 . S
H456 C468 0.929 . S
H457 C471 0.914 1_554 S
H458 C473 0.960 . S
H459 C473 0.960 . S
H460 C473 0.960 . S
C461 H453 0.929 . S
C461 C462 1.377 . S
C461 C463 1.381 . S
C462 C461 1.377 . S
C462 C468 1.390 . S
C463 H454 0.931 1_554 S
C463 C461 1.381 . S
C463 C464 1.374 1_554 S
C464 C463 1.374 1_556 S
C464 C465 1.400 . S
C464 C469 1.490 . S
C465 H455 0.930 . S
C465 C464 1.400 . S
C465 C468 1.386 1_556 S
H466 C482 0.930 . S
H467 C483 0.931 . S
C468 H456 0.929 . S
C468 C462 1.390 . S
C468 C465 1.386 1_554 S
C469 C464 1.490 . S
C469 C471 1.395 . S
C469 C472 1.403 . S
H470 C476 0.930 . S
C471 H457 0.914 1_556 S
C471 C469 1.395 . S
C471 C474 1.403 . S
C472 C469 1.403 . S
C472 C473 1.524 . S
C472 C476 1.400 . S
C473 H458 0.960 . S
C473 H459 0.960 . S
C473 H460 0.960 . S
C473 C472 1.524 . S
C474 C471 1.403 . S
C474 C475 1.392 . S
C474 C478 1.495 . S
C475 C474 1.392 . S
C475 C476 1.385 . S
C475 C477 1.478 . S
C476 H470 0.930 . S
C476 C472 1.400 . S
C476 C475 1.385 . S
C477 C475 1.478 . S
C477 C479 1.381 . S
C477 C483 1.383 . S
C478 C474 1.495 . S
C478 H484 1.025 . S
C478 H485 0.961 . S
C478 H486 0.960 . S
C479 C477 1.381 . S
C479 C480 1.394 . S
C479 H487 0.930 . S
C480 C479 1.394 . S
C480 C481 1.383 . S
C480 H488 0.929 . S
C481 C480 1.383 . S
C481 C482 1.377 . S
C482 H466 0.930 . S
C482 C481 1.377 . S
C482 C483 1.379 . S
C483 H467 0.931 . S
C483 C477 1.383 . S
C483 C482 1.379 . S
H484 C478 1.025 . S
H485 C478 0.961 . S
H486 C478 0.960 . S
H487 C479 0.930 . S
H488 C480 0.929 . S
H489 C497 0.929 . S
H490 C499 0.930 . S
H491 C501 0.930 . S
H492 C504 0.929 . S
H493 C507 0.930 . S
H494 C509 0.960 . S
H495 C509 0.960 . S
H496 C509 0.960 . S
C497 H489 0.929 . S
C497 C498 1.377 1_655 S
C497 C499 1.384 . S
C498 C497 1.377 1_455 S
C498 C504 1.390 . S
C499 H490 0.930 . S
C499 C497 1.384 . S
C499 C500 1.372 1_655 S
C500 C499 1.372 1_455 S
C500 C501 1.400 . S
C500 C505 1.490 . S
C501 H491 0.930 . S
C501 C500 1.400 . S
C501 C504 1.386 . S
H502 C518 0.930 . S
H503 C519 0.931 . S
C504 H492 0.929 . S
C504 C498 1.390 . S
C504 C501 1.386 . S
C505 C500 1.490 . S
C505 C507 1.395 . S
C505 C508 1.403 . S
H506 C512 0.930 . S
C507 H493 0.930 . S
C507 C505 1.395 . S
C507 C510 1.403 . S
C508 C505 1.403 . S
C508 C509 1.524 . S
C508 C512 1.400 . S
C509 H494 0.960 . S
C509 H495 0.960 . S
C509 H496 0.960 . S
C509 C508 1.524 . S
C510 C507 1.403 . S
C510 C511 1.392 . S
C510 C514 1.495 . S
C511 C510 1.392 . S
C511 C512 1.385 . S
C511 C513 1.478 . S
C512 H506 0.930 . S
C512 C508 1.400 . S
C512 C511 1.385 . S
C513 C511 1.478 . S
C513 C515 1.381 1_455 S
C513 C519 1.383 . S
C514 C510 1.495 . S
C514 H520 0.959 . S
C514 H521 0.961 . S
C514 H522 0.960 1_455 S
C515 C513 1.381 1_655 S
C515 C516 1.394 . S
C515 H523 0.930 . S
C516 C515 1.394 . S
C516 C517 1.383 1_655 S
C516 H524 0.929 . S
C517 C516 1.383 1_455 S
C517 C518 1.377 . S
C518 H502 0.930 . S
C518 C517 1.377 . S
C518 C519 1.379 . S
C519 H503 0.931 . S
C519 C513 1.383 . S
C519 C518 1.379 . S
H520 C514 0.959 . S
H521 C514 0.961 . S
H522 C514 0.960 1_655 S
H523 C515 0.930 . S
H524 C516 0.929 . S
H525 C533 0.929 1_565 S
H526 C535 0.928 1_565 S
H527 C537 0.930 . S
H528 C540 0.929 . S
H529 C543 0.930 . S
H530 C545 0.960 . S
H531 C545 0.960 1_565 S
H532 C545 0.960 . S
C533 H525 0.929 1_545 S
C533 C534 1.377 . S
C533 C535 1.384 . S
C534 C533 1.377 . S
C534 C540 1.390 . S
C535 H526 0.928 1_545 S
C535 C533 1.384 . S
C535 C536 1.372 . S
C536 C535 1.372 . S
C536 C537 1.400 . S
C536 C541 1.490 . S
C537 H527 0.930 . S
C537 C536 1.400 . S
C537 C540 1.386 . S
H538 C554 0.930 . S
H539 C555 0.931 . S
C540 H528 0.929 . S
C540 C534 1.390 . S
C540 C537 1.386 . S
C541 C536 1.490 . S
C541 C543 1.395 . S
C541 C544 1.403 . S
H542 C548 0.930 . S
C543 H529 0.930 . S
C543 C541 1.395 . S
C543 C546 1.403 . S
C544 C541 1.403 . S
C544 C545 1.524 . S
C544 C548 1.400 . S
C545 H530 0.960 . S
C545 H531 0.960 1_545 S
C545 H532 0.960 . S
C545 C544 1.524 . S
C546 C543 1.403 . S
C546 C547 1.392 . S
C546 C550 1.495 . S
C547 C546 1.392 . S
C547 C548 1.385 . S
C547 C549 1.478 . S
C548 H542 0.930 . S
C548 C544 1.400 . S
C548 C547 1.385 . S
C549 C547 1.478 . S
C549 C551 1.381 . S
C549 C555 1.383 . S
C550 C546 1.495 . S
C550 H556 0.959 . S
C550 H557 0.961 . S
C550 H558 0.960 . S
C551 C549 1.381 . S
C551 C552 1.394 . S
C551 H559 0.930 . S
C552 C551 1.394 . S
C552 C553 1.383 . S
C552 H560 0.929 . S
C553 C552 1.383 . S
C553 C554 1.377 . S
C554 H538 0.930 . S
C554 C553 1.377 . S
C554 C555 1.379 . S
C555 H539 0.931 . S
C555 C549 1.383 . S
C555 C554 1.379 . S
H556 C550 0.959 . S
H557 C550 0.961 . S
H558 C550 0.960 . S
H559 C551 0.930 . S
H560 C552 0.929 . S
H561 C569 0.929 . S
H562 C571 0.930 . S
H563 C573 0.930 . S
H564 C576 0.929 . S
H565 C579 0.930 . S
H566 C581 0.960 . S
H567 C581 0.960 . S
H568 C581 0.960 . S
C569 H561 0.929 . S
C569 C570 1.377 1_556 S
C569 C571 1.384 . S
C570 C569 1.377 1_554 S
C570 C576 1.390 . S
C571 H562 0.930 . S
C571 C569 1.384 . S
C571 C572 1.372 . S
C572 C571 1.372 . S
C572 C573 1.400 1_556 S
C572 C577 1.490 . S
C573 H563 0.930 . S
C573 C572 1.400 1_554 S
C573 C576 1.386 . S
H574 C590 0.930 . S
H575 C591 0.931 . S
C576 H564 0.929 . S
C576 C570 1.390 . S
C576 C573 1.386 . S
C577 C572 1.490 . S
C577 C579 1.395 . S
C577 C580 1.403 . S
H578 C584 0.930 . S
C579 H565 0.930 . S
C579 C577 1.395 . S
C579 C582 1.403 . S
C580 C577 1.403 . S
C580 C581 1.524 . S
C580 C584 1.400 . S
C581 H566 0.960 . S
C581 H567 0.960 . S
C581 H568 0.960 . S
C581 C580 1.524 . S
C582 C579 1.403 . S
C582 C583 1.392 . S
C582 C586 1.495 . S
C583 C582 1.392 . S
C583 C584 1.385 . S
C583 C585 1.478 . S
C584 H578 0.930 . S
C584 C580 1.400 . S
C584 C583 1.385 . S
C585 C583 1.478 . S
C585 C587 1.381 . S
C585 C591 1.383 . S
C586 C582 1.495 . S
C586 H592 0.959 . S
C586 H593 0.961 . S
C586 H594 0.960 . S
C587 C585 1.381 . S
C587 C588 1.394 . S
C587 H595 0.930 . S
C588 C587 1.394 . S
C588 C589 1.383 . S
C588 H596 0.929 . S
C589 C588 1.383 . S
C589 C590 1.377 . S
C590 H574 0.930 . S
C590 C589 1.377 . S
C590 C591 1.379 . S
C591 H575 0.931 . S
C591 C585 1.383 . S
C591 C590 1.379 . S
H592 C586 0.959 . S
H593 C586 0.961 . S
H594 C586 0.960 . S
H595 C587 0.930 . S
H596 C588 0.929 . S
H597 C605 0.929 . S
H598 C607 0.930 . S
H599 C609 0.930 1_655 S
H600 C612 0.929 1_655 S
H601 C615 0.930 . S
H602 C617 0.960 . S
H603 C617 0.960 . S
H604 C617 0.960 . S
C605 H597 0.929 . S
C605 C606 1.377 . S
C605 C607 1.384 . S
C606 C605 1.377 . S
C606 C612 1.390 . S
C607 H598 0.930 . S
C607 C605 1.384 . S
C607 C608 1.372 . S
C608 C607 1.372 . S
C608 C609 1.400 . S
C608 C613 1.490 . S
C609 H599 0.930 1_455 S
C609 C608 1.400 . S
C609 C612 1.386 . S
H610 C626 0.930 1_655 S
H611 C627 0.931 . S
C612 H600 0.929 1_455 S
C612 C606 1.390 . S
C612 C609 1.386 . S
C613 C608 1.490 . S
C613 C615 1.395 . S
C613 C616 1.403 1_455 S
H614 C620 0.930 . S
C615 H601 0.930 . S
C615 C613 1.395 . S
C615 C618 1.403 . S
C616 C613 1.403 1_655 S
C616 C617 1.524 . S
C616 C620 1.400 . S
C617 H602 0.960 . S
C617 H603 0.960 . S
C617 H604 0.960 . S
C617 C616 1.524 . S
C618 C615 1.403 . S
C618 C619 1.392 . S
C618 C622 1.495 . S
C619 C618 1.392 . S
C619 C620 1.385 1_455 S
C619 C621 1.478 . S
C620 H614 0.930 . S
C620 C616 1.400 . S
C620 C619 1.385 1_655 S
C621 C619 1.478 . S
C621 C623 1.381 . S
C621 C627 1.383 . S
C622 C618 1.495 . S
C622 H628 0.959 . S
C622 H629 0.961 . S
C622 H630 0.960 . S
C623 C621 1.381 . S
C623 C624 1.394 . S
C623 H631 0.930 . S
C624 C623 1.394 . S
C624 C625 1.383 . S
C624 H632 0.929 . S
C625 C624 1.383 . S
C625 C626 1.377 . S
C626 H610 0.930 1_455 S
C626 C625 1.377 . S
C626 C627 1.379 . S
C627 H611 0.931 . S
C627 C621 1.383 . S
C627 C626 1.379 . S
H628 C622 0.959 . S
H629 C622 0.961 . S
H630 C622 0.960 . S
H631 C623 0.930 . S
H632 C624 0.929 . S
C229 C64 1.489 . S
C210 C3 1.492 . S
C246 C21 1.512 . S
C265 C134 1.521 . S
C282 C37 1.487 . S
C301 C186 1.504 . S
C318 C8 1.501 . S
C337 C80 1.490 . S
C373 C124 1.502 . S
C354 C23 1.488 . S
C390 C35 1.478 . S
C409 C170 1.501 . S
C445 C117 1.483 . S
C426 C31 1.482 . S
C462 C7 1.481 1_565 S
C481 C177 1.494 . S
C517 C71 1.495 . S
C498 C17 1.493 1_565 S
C553 C133 1.472 . S
C534 C36 1.472 . S
C589 C187 1.503 . S
C570 C9 1.487 . S
C606 C22 1.501 . S
C625 C81 1.496 . S
