# Generated by pormake.
# Topology gar, (4,6)-cn, num edge types: 1
# Building blocks:
#     Node 0, Type 0, BuildingBlock: UXUYUI_clean_sbu_0, # of connection points: 4
#     Node 1, Type 0, BuildingBlock: UXUYUI_clean_sbu_0, # of connection points: 4
#     Node 2, Type 0, BuildingBlock: UXUYUI_clean_sbu_0, # of connection points: 4
#     Node 3, Type 0, BuildingBlock: UXUYUI_clean_sbu_0, # of connection points: 4
#     Node 4, Type 0, BuildingBlock: UXUYUI_clean_sbu_0, # of connection points: 4
#     Node 5, Type 0, BuildingBlock: UXUYUI_clean_sbu_0, # of connection points: 4
#     Node 6, Type 0, BuildingBlock: UXUYUI_clean_sbu_0, # of connection points: 4
#     Node 7, Type 0, BuildingBlock: UXUYUI_clean_sbu_0, # of connection points: 4
#     Node 8, Type 0, BuildingBlock: UXUYUI_clean_sbu_0, # of connection points: 4
#     Node 9, Type 0, BuildingBlock: UXUYUI_clean_sbu_0, # of connection points: 4
#     Node 10, Type 0, BuildingBlock: UXUYUI_clean_sbu_0, # of connection points: 4
#     Node 11, Type 0, BuildingBlock: UXUYUI_clean_sbu_0, # of connection points: 4
#     Node 12, Type 0, BuildingBlock: UXUYUI_clean_sbu_0, # of connection points: 4
#     Node 13, Type 0, BuildingBlock: UXUYUI_clean_sbu_0, # of connection points: 4
#     Node 14, Type 0, BuildingBlock: UXUYUI_clean_sbu_0, # of connection points: 4
#     Node 15, Type 0, BuildingBlock: UXUYUI_clean_sbu_0, # of connection points: 4
#     Node 16, Type 0, BuildingBlock: UXUYUI_clean_sbu_0, # of connection points: 4
#     Node 17, Type 0, BuildingBlock: UXUYUI_clean_sbu_0, # of connection points: 4
#     Node 18, Type 0, BuildingBlock: UXUYUI_clean_sbu_0, # of connection points: 4
#     Node 19, Type 0, BuildingBlock: UXUYUI_clean_sbu_0, # of connection points: 4
#     Node 20, Type 0, BuildingBlock: UXUYUI_clean_sbu_0, # of connection points: 4
#     Node 21, Type 0, BuildingBlock: UXUYUI_clean_sbu_0, # of connection points: 4
#     Node 22, Type 0, BuildingBlock: UXUYUI_clean_sbu_0, # of connection points: 4
#     Node 23, Type 0, BuildingBlock: UXUYUI_clean_sbu_0, # of connection points: 4
#     Node 24, Type 1, BuildingBlock: KUMBOL_clean_sbu_1, # of connection points: 6
#     Node 25, Type 1, BuildingBlock: KUMBOL_clean_sbu_1, # of connection points: 6
#     Node 26, Type 1, BuildingBlock: KUMBOL_clean_sbu_1, # of connection points: 6
#     Node 27, Type 1, BuildingBlock: KUMBOL_clean_sbu_1, # of connection points: 6
#     Node 28, Type 1, BuildingBlock: KUMBOL_clean_sbu_1, # of connection points: 6
#     Node 29, Type 1, BuildingBlock: KUMBOL_clean_sbu_1, # of connection points: 6
#     Node 30, Type 1, BuildingBlock: KUMBOL_clean_sbu_1, # of connection points: 6
#     Node 31, Type 1, BuildingBlock: KUMBOL_clean_sbu_1, # of connection points: 6
#     Node 32, Type 1, BuildingBlock: KUMBOL_clean_sbu_1, # of connection points: 6
#     Node 33, Type 1, BuildingBlock: KUMBOL_clean_sbu_1, # of connection points: 6
#     Node 34, Type 1, BuildingBlock: KUMBOL_clean_sbu_1, # of connection points: 6
#     Node 35, Type 1, BuildingBlock: KUMBOL_clean_sbu_1, # of connection points: 6
#     Node 36, Type 1, BuildingBlock: KUMBOL_clean_sbu_1, # of connection points: 6
#     Node 37, Type 1, BuildingBlock: KUMBOL_clean_sbu_1, # of connection points: 6
#     Node 38, Type 1, BuildingBlock: KUMBOL_clean_sbu_1, # of connection points: 6
#     Node 39, Type 1, BuildingBlock: KUMBOL_clean_sbu_1, # of connection points: 6
#     Edge 40, Type (0, 1), BuildingBlock: KIFKEQ_clean_linker_1, # of connection points: 2
#     Edge 41, Type (0, 1), BuildingBlock: KIFKEQ_clean_linker_1, # of connection points: 2
#     Edge 42, Type (0, 1), BuildingBlock: KIFKEQ_clean_linker_1, # of connection points: 2
#     Edge 43, Type (0, 1), BuildingBlock: KIFKEQ_clean_linker_1, # of connection points: 2
#     Edge 44, Type (0, 1), BuildingBlock: KIFKEQ_clean_linker_1, # of connection points: 2
#     Edge 45, Type (0, 1), BuildingBlock: KIFKEQ_clean_linker_1, # of connection points: 2
#     Edge 46, Type (0, 1), BuildingBlock: KIFKEQ_clean_linker_1, # of connection points: 2
#     Edge 47, Type (0, 1), BuildingBlock: KIFKEQ_clean_linker_1, # of connection points: 2
#     Edge 48, Type (0, 1), BuildingBlock: KIFKEQ_clean_linker_1, # of connection points: 2
#     Edge 49, Type (0, 1), BuildingBlock: KIFKEQ_clean_linker_1, # of connection points: 2
#     Edge 50, Type (0, 1), BuildingBlock: KIFKEQ_clean_linker_1, # of connection points: 2
#     Edge 51, Type (0, 1), BuildingBlock: KIFKEQ_clean_linker_1, # of connection points: 2
#     Edge 52, Type (0, 1), BuildingBlock: KIFKEQ_clean_linker_1, # of connection points: 2
#     Edge 53, Type (0, 1), BuildingBlock: KIFKEQ_clean_linker_1, # of connection points: 2
#     Edge 54, Type (0, 1), BuildingBlock: KIFKEQ_clean_linker_1, # of connection points: 2
#     Edge 55, Type (0, 1), BuildingBlock: KIFKEQ_clean_linker_1, # of connection points: 2
#     Edge 56, Type (0, 1), BuildingBlock: KIFKEQ_clean_linker_1, # of connection points: 2
#     Edge 57, Type (0, 1), BuildingBlock: KIFKEQ_clean_linker_1, # of connection points: 2
#     Edge 58, Type (0, 1), BuildingBlock: KIFKEQ_clean_linker_1, # of connection points: 2
#     Edge 59, Type (0, 1), BuildingBlock: KIFKEQ_clean_linker_1, # of connection points: 2
#     Edge 60, Type (0, 1), BuildingBlock: KIFKEQ_clean_linker_1, # of connection points: 2
#     Edge 61, Type (0, 1), BuildingBlock: KIFKEQ_clean_linker_1, # of connection points: 2
#     Edge 62, Type (0, 1), BuildingBlock: KIFKEQ_clean_linker_1, # of connection points: 2
#     Edge 63, Type (0, 1), BuildingBlock: KIFKEQ_clean_linker_1, # of connection points: 2
#     Edge 64, Type (0, 1), BuildingBlock: KIFKEQ_clean_linker_1, # of connection points: 2
#     Edge 65, Type (0, 1), BuildingBlock: KIFKEQ_clean_linker_1, # of connection points: 2
#     Edge 66, Type (0, 1), BuildingBlock: KIFKEQ_clean_linker_1, # of connection points: 2
#     Edge 67, Type (0, 1), BuildingBlock: KIFKEQ_clean_linker_1, # of connection points: 2
#     Edge 68, Type (0, 1), BuildingBlock: KIFKEQ_clean_linker_1, # of connection points: 2
#     Edge 69, Type (0, 1), BuildingBlock: KIFKEQ_clean_linker_1, # of connection points: 2
#     Edge 70, Type (0, 1), BuildingBlock: KIFKEQ_clean_linker_1, # of connection points: 2
#     Edge 71, Type (0, 1), BuildingBlock: KIFKEQ_clean_linker_1, # of connection points: 2
#     Edge 72, Type (0, 1), BuildingBlock: KIFKEQ_clean_linker_1, # of connection points: 2
#     Edge 73, Type (0, 1), BuildingBlock: KIFKEQ_clean_linker_1, # of connection points: 2
#     Edge 74, Type (0, 1), BuildingBlock: KIFKEQ_clean_linker_1, # of connection points: 2
#     Edge 75, Type (0, 1), BuildingBlock: KIFKEQ_clean_linker_1, # of connection points: 2
#     Edge 76, Type (0, 1), BuildingBlock: KIFKEQ_clean_linker_1, # of connection points: 2
#     Edge 77, Type (0, 1), BuildingBlock: KIFKEQ_clean_linker_1, # of connection points: 2
#     Edge 78, Type (0, 1), BuildingBlock: KIFKEQ_clean_linker_1, # of connection points: 2
#     Edge 79, Type (0, 1), BuildingBlock: KIFKEQ_clean_linker_1, # of connection points: 2
#     Edge 80, Type (0, 1), BuildingBlock: KIFKEQ_clean_linker_1, # of connection points: 2
#     Edge 81, Type (0, 1), BuildingBlock: KIFKEQ_clean_linker_1, # of connection points: 2
#     Edge 82, Type (0, 1), BuildingBlock: KIFKEQ_clean_linker_1, # of connection points: 2
#     Edge 83, Type (0, 1), BuildingBlock: KIFKEQ_clean_linker_1, # of connection points: 2
#     Edge 84, Type (0, 1), BuildingBlock: KIFKEQ_clean_linker_1, # of connection points: 2
#     Edge 85, Type (0, 1), BuildingBlock: KIFKEQ_clean_linker_1, # of connection points: 2
#     Edge 86, Type (0, 1), BuildingBlock: KIFKEQ_clean_linker_1, # of connection points: 2
#     Edge 87, Type (0, 1), BuildingBlock: KIFKEQ_clean_linker_1, # of connection points: 2
#     Edge 88, Type (0, 1), BuildingBlock: KIFKEQ_clean_linker_1, # of connection points: 2
#     Edge 89, Type (0, 1), BuildingBlock: KIFKEQ_clean_linker_1, # of connection points: 2
#     Edge 90, Type (0, 1), BuildingBlock: KIFKEQ_clean_linker_1, # of connection points: 2
#     Edge 91, Type (0, 1), BuildingBlock: KIFKEQ_clean_linker_1, # of connection points: 2
#     Edge 92, Type (0, 1), BuildingBlock: KIFKEQ_clean_linker_1, # of connection points: 2
#     Edge 93, Type (0, 1), BuildingBlock: KIFKEQ_clean_linker_1, # of connection points: 2
#     Edge 94, Type (0, 1), BuildingBlock: KIFKEQ_clean_linker_1, # of connection points: 2
#     Edge 95, Type (0, 1), BuildingBlock: KIFKEQ_clean_linker_1, # of connection points: 2
#     Edge 96, Type (0, 1), BuildingBlock: KIFKEQ_clean_linker_1, # of connection points: 2
#     Edge 97, Type (0, 1), BuildingBlock: KIFKEQ_clean_linker_1, # of connection points: 2
#     Edge 98, Type (0, 1), BuildingBlock: KIFKEQ_clean_linker_1, # of connection points: 2
#     Edge 99, Type (0, 1), BuildingBlock: KIFKEQ_clean_linker_1, # of connection points: 2
#     Edge 100, Type (0, 1), BuildingBlock: KIFKEQ_clean_linker_1, # of connection points: 2
#     Edge 101, Type (0, 1), BuildingBlock: KIFKEQ_clean_linker_1, # of connection points: 2
#     Edge 102, Type (0, 1), BuildingBlock: KIFKEQ_clean_linker_1, # of connection points: 2
#     Edge 103, Type (0, 1), BuildingBlock: KIFKEQ_clean_linker_1, # of connection points: 2
#     Edge 104, Type (0, 1), BuildingBlock: KIFKEQ_clean_linker_1, # of connection points: 2
#     Edge 105, Type (0, 1), BuildingBlock: KIFKEQ_clean_linker_1, # of connection points: 2
#     Edge 106, Type (0, 1), BuildingBlock: KIFKEQ_clean_linker_1, # of connection points: 2
#     Edge 107, Type (0, 1), BuildingBlock: KIFKEQ_clean_linker_1, # of connection points: 2
#     Edge 108, Type (0, 1), BuildingBlock: KIFKEQ_clean_linker_1, # of connection points: 2
#     Edge 109, Type (0, 1), BuildingBlock: KIFKEQ_clean_linker_1, # of connection points: 2
#     Edge 110, Type (0, 1), BuildingBlock: KIFKEQ_clean_linker_1, # of connection points: 2
#     Edge 111, Type (0, 1), BuildingBlock: KIFKEQ_clean_linker_1, # of connection points: 2
#     Edge 112, Type (0, 1), BuildingBlock: KIFKEQ_clean_linker_1, # of connection points: 2
#     Edge 113, Type (0, 1), BuildingBlock: KIFKEQ_clean_linker_1, # of connection points: 2
#     Edge 114, Type (0, 1), BuildingBlock: KIFKEQ_clean_linker_1, # of connection points: 2
#     Edge 115, Type (0, 1), BuildingBlock: KIFKEQ_clean_linker_1, # of connection points: 2
#     Edge 116, Type (0, 1), BuildingBlock: KIFKEQ_clean_linker_1, # of connection points: 2
#     Edge 117, Type (0, 1), BuildingBlock: KIFKEQ_clean_linker_1, # of connection points: 2
#     Edge 118, Type (0, 1), BuildingBlock: KIFKEQ_clean_linker_1, # of connection points: 2
#     Edge 119, Type (0, 1), BuildingBlock: KIFKEQ_clean_linker_1, # of connection points: 2
#     Edge 120, Type (0, 1), BuildingBlock: KIFKEQ_clean_linker_1, # of connection points: 2
#     Edge 121, Type (0, 1), BuildingBlock: KIFKEQ_clean_linker_1, # of connection points: 2
#     Edge 122, Type (0, 1), BuildingBlock: KIFKEQ_clean_linker_1, # of connection points: 2
#     Edge 123, Type (0, 1), BuildingBlock: KIFKEQ_clean_linker_1, # of connection points: 2
#     Edge 124, Type (0, 1), BuildingBlock: KIFKEQ_clean_linker_1, # of connection points: 2
#     Edge 125, Type (0, 1), BuildingBlock: KIFKEQ_clean_linker_1, # of connection points: 2
#     Edge 126, Type (0, 1), BuildingBlock: KIFKEQ_clean_linker_1, # of connection points: 2
#     Edge 127, Type (0, 1), BuildingBlock: KIFKEQ_clean_linker_1, # of connection points: 2
#     Edge 128, Type (0, 1), BuildingBlock: KIFKEQ_clean_linker_1, # of connection points: 2
#     Edge 129, Type (0, 1), BuildingBlock: KIFKEQ_clean_linker_1, # of connection points: 2
#     Edge 130, Type (0, 1), BuildingBlock: KIFKEQ_clean_linker_1, # of connection points: 2
#     Edge 131, Type (0, 1), BuildingBlock: KIFKEQ_clean_linker_1, # of connection points: 2
#     Edge 132, Type (0, 1), BuildingBlock: KIFKEQ_clean_linker_1, # of connection points: 2
#     Edge 133, Type (0, 1), BuildingBlock: KIFKEQ_clean_linker_1, # of connection points: 2
#     Edge 134, Type (0, 1), BuildingBlock: KIFKEQ_clean_linker_1, # of connection points: 2
#     Edge 135, Type (0, 1), BuildingBlock: KIFKEQ_clean_linker_1, # of connection points: 2
# Relax obj value: 0.086
# Max RMSD: 0.200
# Mean RMSD: 0.155
data_MOF--net-gar--node1-UXUYUI_clean_sbu_0--node2-KUMBOL_clean_sbu_1--edge1-KIFKEQ_clean_linker_1
_symmetry_space_group_name_H-M    P1
_symmetry_Int_Tables_number       1
_symmetry_cell_setting            triclinic
loop_
_symmetry_equiv_pos_as_xyz
'x, y, z'
_cell_length_a     74.103423
_cell_length_b     74.049853
_cell_length_c     69.718728
_cell_angle_alpha  95.751996
_cell_angle_beta   95.791926
_cell_angle_gamma 100.77702
loop_
_atom_site_label
_atom_site_type_symbol
_atom_site_fract_x
_atom_site_fract_y
_atom_site_fract_z
_atom_type_partial_charge
Li0 Li 0.02138 0.30074 0.34566 0.0
Li1 Li 0.04254 0.32219 0.37385 0.0
Li2 Li 0.05816 0.30289 0.34747 0.0
Li3 Li 0.03995 0.28706 0.37264 0.0
C4 C 0.03918 0.33424 0.33097 0.0
N5 N 0.0333 0.35736 0.30327 0.0
C6 C 0.03286 0.35051 0.33599 0.0
C7 C 0.04258 0.32973 0.31191 0.0
C8 C 0.02993 0.362 0.32176 0.0
C9 C 0.03951 0.34162 0.2981 0.0
C10 C 0.00906 0.30308 0.38826 0.0
C11 C 1.00348 0.30217 0.42164 0.0
N12 N 0.98573 0.30397 0.41667 0.0
C13 C 0.99078 0.30492 0.38346 0.0
C14 C 0.0155 0.30171 0.40748 0.0
C15 C 0.9792 0.30536 0.39805 0.0
C16 C 0.984 0.28067 0.32918 0.0
N17 N 0.99546 0.29766 0.33147 0.0
C18 C 0.96942 0.31105 0.32035 0.0
C19 C 0.98841 0.3127 0.32696 0.0
C20 C 0.95705 0.29375 0.31835 0.0
C21 C 0.96492 0.27841 0.32262 0.0
H22 H 0.98951 0.26882 0.3331 0.0
H23 H 0.99733 0.32624 0.32927 0.0
C24 C 0.059 0.35576 0.40158 0.0
N25 N 0.04321 0.34565 0.39102 0.0
C26 C 0.05862 0.37198 0.41393 0.0
C27 C 0.02584 0.3674 0.40427 0.0
C28 C 0.02684 0.3513 0.39219 0.0
C29 C 0.04183 0.37813 0.41559 0.0
H30 H 0.07195 0.35119 0.40059 0.0
H31 H 0.01441 0.34331 0.38362 0.0
C32 C 0.03572 0.26605 0.32987 0.0
N33 N 0.03341 0.23637 0.30179 0.0
C34 C 0.0408 0.24975 0.33494 0.0
C35 C 0.02941 0.26728 0.31057 0.0
C36 C 0.03956 0.23489 0.32051 0.0
C37 C 0.02835 0.2521 0.29657 0.0
C38 C 0.07588 0.30621 0.3916 0.0
C39 C 0.09183 0.29978 0.38754 0.0
C40 C 0.07362 0.31182 0.41079 0.0
C41 C 0.10524 0.29896 0.40284 0.0
C42 C 0.08736 0.31079 0.42569 0.0
N43 N 0.10275 0.30443 0.42144 0.0
C44 C 0.09626 0.31661 0.33759 0.0
C45 C 0.08455 0.28532 0.3255 0.0
C46 C 0.11368 0.31548 0.3313 0.0
N47 N 0.08196 0.30162 0.33481 0.0
C48 C 0.1017 0.28364 0.31888 0.0
C49 C 0.11689 0.29876 0.32187 0.0
H50 H 0.09439 0.32947 0.34519 0.0
H51 H 0.07348 0.27329 0.32358 0.0
C52 C 0.02177 0.25734 0.39198 0.0
N53 N 0.03858 0.26604 0.38792 0.0
C54 C 0.02021 0.24196 0.40242 0.0
C55 C 0.05325 0.24449 0.40423 0.0
C56 C 0.05417 0.2598 0.39375 0.0
C57 C 0.03609 0.23522 0.40875 0.0
H58 H 0.00946 0.2622 0.38691 0.0
H59 H 0.06737 0.26653 0.39008 0.0
O60 O 0.04249 0.32303 0.34478 0.0
O61 O 0.02047 0.30223 0.3741 0.0
O62 O 0.03668 0.28066 0.3438 0.0
O63 O 0.06277 0.30744 0.37678 0.0
H64 H 0.03026 0.35421 0.35072 0.0
H65 H 0.0476 0.31723 0.30786 0.0
H66 H 0.02502 0.37463 0.32542 0.0
H67 H 0.0421 0.33834 0.28328 0.0
H68 H 0.00825 0.30104 0.43658 0.0
H69 H 0.98556 0.30599 0.36865 0.0
H70 H 0.02956 0.3001 0.41137 0.0
H71 H 0.96501 0.30676 0.39455 0.0
H72 H 0.96441 0.32349 0.31765 0.0
H73 H 0.95643 0.26465 0.32112 0.0
H74 H 0.07139 0.37941 0.42234 0.0
H75 H 0.01257 0.37147 0.40447 0.0
H76 H 0.04568 0.2486 0.34985 0.0
H77 H 0.02536 0.27981 0.30647 0.0
H78 H 0.04347 0.22219 0.3242 0.0
H79 H 0.0235 0.25283 0.28156 0.0
H80 H 0.09379 0.29539 0.37276 0.0
H81 H 0.06145 0.31702 0.41414 0.0
H82 H 0.11764 0.29398 0.39993 0.0
H83 H 0.08581 0.31509 0.44062 0.0
H84 H 0.12459 0.32772 0.33389 0.0
H85 H 0.10316 0.27031 0.312 0.0
H86 H 0.00661 0.23518 0.40511 0.0
H87 H 0.06594 0.24004 0.40882 0.0
Li88 Li 0.02 0.76809 0.67384 0.0
Li89 Li 0.03754 0.75418 0.7008 0.0
Li90 Li 0.01526 0.73264 0.67259 0.0
Li91 Li 1.00054 0.75184 0.69903 0.0
C92 C 0.05006 0.7539 0.65843 0.0
N93 N 0.07391 0.75877 0.63055 0.0
C94 C 0.06862 0.7624 0.66382 0.0
C95 C 0.04363 0.74781 0.6389 0.0
C96 C 0.08045 0.76476 0.6495 0.0
C97 C 0.05591 0.7504 0.62501 0.0
C98 C 0.02695 0.78871 0.71717 0.0
C99 C 0.02714 0.80179 0.75028 0.0
N100 N 0.03629 0.81835 0.74607 0.0
C101 C 0.03635 0.80583 0.71314 0.0
C102 C 0.02228 0.78662 0.73585 0.0
C103 C 0.04096 0.82066 0.72797 0.0
C104 C 0.00642 0.7956 0.65264 0.0
N105 N 0.02194 0.78941 0.65885 0.0
C106 C 0.0407 0.81414 0.64558 0.0
C107 C 0.03889 0.79843 0.65552 0.0
C108 C 0.02495 0.82096 0.639 0.0
C109 C 0.0076 0.8113 0.64266 0.0
H110 H 0.99306 0.78847 0.65565 0.0
H111 H 0.05114 0.7936 0.66079 0.0
C112 C 0.07032 0.74061 0.71629 0.0
N113 N 0.0634 0.75634 0.71495 0.0
C114 C 0.08918 0.74141 0.72292 0.0
C115 C 0.09387 0.77459 0.72695 0.0
C116 C 0.07488 0.77316 0.7204 0.0
C117 C 0.10165 0.75859 0.72814 0.0
H118 H 0.06131 0.72728 0.71163 0.0
H119 H 0.06954 0.78564 0.71886 0.0
C120 C 0.98236 0.74471 0.6547 0.0
N121 N 0.95387 0.73671 0.62451 0.0
C122 C 0.96425 0.738 0.65827 0.0
C123 C 0.98601 0.74736 0.6358 0.0
C124 C 0.95003 0.73403 0.64281 0.0
C125 C 0.9714 0.74322 0.62072 0.0
C126 C 0.01534 0.71953 0.71477 0.0
C127 C 0.0079 0.70085 0.7086 0.0
C128 C 0.02189 0.72531 0.73434 0.0
C129 C 0.00711 0.68817 0.72219 0.0
C130 C 0.02087 0.7122 0.74748 0.0
N131 N 0.01357 0.69406 0.74118 0.0
C132 C 0.03025 0.70289 0.65519 0.0
C133 C 0.99824 0.69875 0.64505 0.0
C134 C 0.03124 0.6865 0.6436 0.0
N135 N 0.01397 0.70885 0.65575 0.0
C136 C 0.9986 0.68219 0.63322 0.0
C137 C 0.01532 0.67575 0.63219 0.0
H138 H 0.04264 0.71094 0.66381 0.0
H139 H 0.98536 0.70356 0.64555 0.0
C140 C 0.97113 0.77022 0.71244 0.0
N141 N 0.97683 0.75367 0.71167 0.0
C142 C 0.95407 0.77228 0.71907 0.0
C143 C 0.94857 0.7403 0.7243 0.0
C144 C 0.96579 0.73884 0.71761 0.0
C145 C 0.94216 0.7572 0.72506 0.0
H146 H 0.97966 0.78191 0.70745 0.0
H147 H 0.97012 0.72564 0.71684 0.0
O148 O 0.03831 0.7514 0.67226 0.0
O149 O 0.02188 0.77418 0.70275 0.0
O150 O 0.99635 0.74904 0.66973 0.0
O151 O 0.01656 0.73205 0.70162 0.0
H152 H 0.07382 0.7672 0.67886 0.0
H153 H 0.02933 0.74107 0.63453 0.0
H154 H 0.09484 0.77136 0.65345 0.0
H155 H 0.05113 0.74575 0.60983 0.0
H156 H 0.02359 0.80041 0.76481 0.0
H157 H 0.03998 0.80765 0.69872 0.0
H158 H 0.01489 0.77345 0.73912 0.0
H159 H 0.04821 0.83401 0.72507 0.0
H160 H 0.05439 0.82079 0.64299 0.0
H161 H 0.99502 0.81602 0.63822 0.0
H162 H 0.09385 0.7285 0.72374 0.0
H163 H 0.10245 0.78829 0.73033 0.0
H164 H 0.9612 0.73593 0.67285 0.0
H165 H 0.99994 0.7527 0.63285 0.0
H166 H 0.93593 0.72887 0.64535 0.0
H167 H 0.974 0.74524 0.60602 0.0
H168 H 1.00284 0.69619 0.69346 0.0
H169 H 0.02778 0.73974 0.73927 0.0
H170 H 1.0014 0.67365 0.71764 0.0
H171 H 0.02592 0.71643 0.76267 0.0
H172 H 0.04444 0.68224 0.64383 0.0
H173 H 0.98591 0.67472 0.6247 0.0
H174 H 0.95007 0.78559 0.71891 0.0
H175 H 0.94036 0.72817 0.72887 0.0
Li176 Li 0.52211 0.8013 0.84603 0.0
Li177 Li 0.54327 0.8227 0.87439 0.0
Li178 Li 0.55879 0.80319 0.84783 0.0
Li179 Li 0.54042 0.78736 0.87287 0.0
C180 C 0.53995 0.83489 0.8317 0.0
N181 N 0.53364 0.85821 0.80434 0.0
C182 C 0.53422 0.8514 0.83715 0.0
C183 C 0.54255 0.83024 0.8124 0.0
C184 C 0.53106 0.86299 0.82308 0.0
C185 C 0.53927 0.84222 0.79877 0.0
C186 C 0.50936 0.8021 0.88842 0.0
C187 C 0.50383 0.80062 0.92177 0.0
N188 N 0.48567 0.80083 0.91662 0.0
C189 C 0.49065 0.80229 0.88345 0.0
C190 C 0.51604 0.8013 0.90773 0.0
C191 C 0.4789 0.80166 0.89792 0.0
C192 C 0.48453 0.78198 0.82923 0.0
N193 N 0.4964 0.79875 0.83166 0.0
C194 C 0.47109 0.81295 0.82019 0.0
C195 C 0.48992 0.81406 0.82708 0.0
C196 C 0.45832 0.79592 0.818 0.0
C197 C 0.46557 0.78026 0.82242 0.0
H198 H 0.48957 0.76995 0.83334 0.0
H199 H 0.49918 0.8274 0.82941 0.0
C200 C 0.55979 0.85911 0.8977 0.0
N201 N 0.54396 0.84634 0.89145 0.0
C202 C 0.55939 0.87566 0.90954 0.0
C203 C 0.52652 0.86563 0.90876 0.0
C204 C 0.5275 0.84955 0.89668 0.0
C205 C 0.54254 0.87929 0.91542 0.0
H206 H 0.5728 0.85657 0.89338 0.0
H207 H 0.51493 0.83963 0.89144 0.0
C208 C 0.53593 0.76642 0.83011 0.0
N209 N 0.53296 0.73659 0.80205 0.0
C210 C 0.54138 0.75024 0.83503 0.0
C211 C 0.52893 0.76746 0.81097 0.0
C212 C 0.53979 0.7353 0.82061 0.0
C213 C 0.52755 0.75221 0.79698 0.0
C214 C 0.5764 0.80642 0.89202 0.0
C215 C 0.59198 0.79927 0.88808 0.0
C216 C 0.57446 0.81272 0.91112 0.0
C217 C 0.60533 0.79837 0.90341 0.0
C218 C 0.58811 0.81157 0.92606 0.0
N219 N 0.60313 0.80448 0.92192 0.0
C220 C 0.59757 0.8159 0.83943 0.0
C221 C 0.58423 0.78599 0.82396 0.0
C222 C 0.61485 0.81447 0.83296 0.0
N223 N 0.58251 0.80173 0.83508 0.0
C224 C 0.60123 0.78401 0.81715 0.0
C225 C 0.61721 0.79824 0.82172 0.0
H226 H 0.59641 0.82825 0.84853 0.0
H227 H 0.57249 0.77462 0.82058 0.0
C228 C 0.52227 0.75763 0.89248 0.0
N229 N 0.53901 0.76617 0.88806 0.0
C230 C 0.52079 0.74231 0.903 0.0
C231 C 0.5537 0.74439 0.904 0.0
C232 C 0.55456 0.75969 0.89349 0.0
C233 C 0.53664 0.73539 0.909 0.0
H234 H 0.50995 0.76259 0.88766 0.0
H235 H 0.56768 0.76624 0.88949 0.0
O236 O 0.54335 0.82352 0.84531 0.0
O237 O 0.52108 0.80278 0.87445 0.0
O238 O 0.53718 0.78111 0.84403 0.0
O239 O 0.56335 0.80771 0.87718 0.0
H240 H 0.53221 0.85519 0.85207 0.0
H241 H 0.54708 0.81753 0.80803 0.0
H242 H 0.52658 0.8758 0.82705 0.0
H243 H 0.54123 0.83883 0.78376 0.0
H244 H 0.50878 0.79993 0.93676 0.0
H245 H 0.48527 0.80304 0.86861 0.0
H246 H 0.53047 0.80108 0.91178 0.0
H247 H 0.4644 0.80184 0.89429 0.0
H248 H 0.46661 0.82548 0.81682 0.0
H249 H 0.45657 0.7668 0.82138 0.0
H250 H 0.57222 0.88557 0.91374 0.0
H251 H 0.51314 0.86708 0.9129 0.0
H252 H 0.5468 0.74924 0.84981 0.0
H253 H 0.52459 0.7799 0.80699 0.0
H254 H 0.54397 0.72269 0.82418 0.0
H255 H 0.52215 0.75279 0.78209 0.0
H256 H 0.59369 0.79435 0.87336 0.0
H257 H 0.56259 0.81853 0.91436 0.0
H258 H 0.61744 0.79281 0.90059 0.0
H259 H 0.58679 0.81637 0.94093 0.0
H260 H 0.62641 0.82591 0.83737 0.0
H261 H 0.60171 0.77127 0.80834 0.0
H262 H 0.50723 0.73572 0.90604 0.0
H263 H 0.56637 0.73977 0.90828 0.0
Li264 Li 0.51915 0.26793 0.17351 0.0
Li265 Li 0.53668 0.25456 0.20073 0.0
Li266 Li 0.51504 0.23249 0.17256 0.0
Li267 Li 0.49983 0.25175 0.19883 0.0
C268 C 0.54965 0.25385 0.15852 0.0
N269 N 0.57371 0.25796 0.13078 0.0
C270 C 0.56828 0.26203 0.16397 0.0
C271 C 0.54325 0.24771 0.13899 0.0
C272 C 0.58023 0.26402 0.14972 0.0
C273 C 0.55564 0.24991 0.12517 0.0
C274 C 0.52627 0.28876 0.21682 0.0
C275 C 0.52714 0.30175 0.25009 0.0
N276 N 0.53668 0.31816 0.24593 0.0
C277 C 0.53606 0.30573 0.21284 0.0
C278 C 0.52174 0.28671 0.23556 0.0
C279 C 0.54121 0.32044 0.22778 0.0
C280 C 0.50511 0.29521 0.1524 0.0
N281 N 0.52071 0.28893 0.15811 0.0
C282 C 0.53896 0.31286 0.1433 0.0
C283 C 0.53747 0.29757 0.15385 0.0
C284 C 0.52308 0.31965 0.13707 0.0
C285 C 0.50597 0.31054 0.14188 0.0
H286 H 0.49192 0.28835 0.15609 0.0
H287 H 0.54981 0.29277 0.15886 0.0
C288 C 0.56976 0.24186 0.21641 0.0
N289 N 0.5624 0.25733 0.21517 0.0
C290 C 0.58867 0.24313 0.22308 0.0
C291 C 0.59243 0.27626 0.2276 0.0
C292 C 0.57343 0.27436 0.22087 0.0
C293 C 0.60064 0.26055 0.22854 0.0
H294 H 0.56109 0.22839 0.21155 0.0
H295 H 0.56774 0.28664 0.21939 0.0
C296 C 0.48182 0.24456 0.15444 0.0
N297 N 0.45333 0.23754 0.12428 0.0
C298 C 0.46365 0.23804 0.15794 0.0
C299 C 0.48554 0.24745 0.13562 0.0
C300 C 0.44943 0.2346 0.1425 0.0
C301 C 0.47093 0.24381 0.12056 0.0
C302 C 0.51534 0.21964 0.21483 0.0
C303 C 0.50876 0.20081 0.20861 0.0
C304 C 0.52149 0.22558 0.23445 0.0
C305 C 0.50841 0.18816 0.22222 0.0
C306 C 0.52094 0.21249 0.2476 0.0
N307 N 0.51446 0.19421 0.24126 0.0
C308 C 0.53077 0.2037 0.15385 0.0
C309 C 0.4983 0.1979 0.14599 0.0
C310 C 0.53191 0.18756 0.14189 0.0
N311 N 0.51419 0.20876 0.15565 0.0
C312 C 0.4988 0.18145 0.13405 0.0
C313 C 0.51581 0.17605 0.13167 0.0
H314 H 0.54328 0.21231 0.16167 0.0
H315 H 0.4852 0.20201 0.14745 0.0
C316 C 0.46679 0.26676 0.20487 0.0
N317 N 0.47603 0.25371 0.21116 0.0
C318 C 0.44963 0.26882 0.21114 0.0
C319 C 0.4515 0.24441 0.23097 0.0
C320 C 0.46861 0.24264 0.22413 0.0
C321 C 0.44144 0.25753 0.22436 0.0
H322 H 0.47261 0.27553 0.19461 0.0
H323 H 0.47579 0.23218 0.22906 0.0
O324 O 0.5378 0.25163 0.17229 0.0
O325 O 0.52076 0.27435 0.20233 0.0
O326 O 0.49581 0.24848 0.16948 0.0
O327 O 0.51605 0.23215 0.20167 0.0
H328 H 0.57347 0.26686 0.17903 0.0
H329 H 0.5289 0.24122 0.13457 0.0
H330 H 0.59468 0.27036 0.15372 0.0
H331 H 0.5509 0.2452 0.11 0.0
H332 H 0.52371 0.30039 0.26467 0.0
H333 H 0.5396 0.30753 0.19837 0.0
H334 H 0.51406 0.27365 0.2388 0.0
H335 H 0.54879 0.33367 0.22492 0.0
H336 H 0.55254 0.31952 0.1404 0.0
H337 H 0.49329 0.31504 0.13737 0.0
H338 H 0.59385 0.23045 0.22373 0.0
H339 H 0.60074 0.29007 0.23124 0.0
H340 H 0.46056 0.2357 0.17244 0.0
H341 H 0.49952 0.25263 0.13272 0.0
H342 H 0.43528 0.22962 0.145 0.0
H343 H 0.47358 0.24604 0.10591 0.0
H344 H 0.50401 0.19603 0.19343 0.0
H345 H 0.52671 0.24013 0.23943 0.0
H346 H 0.50335 0.17354 0.21763 0.0
H347 H 0.52569 0.21685 0.26284 0.0
H348 H 0.54534 0.18402 0.14086 0.0
H349 H 0.48598 0.17321 0.12644 0.0
H350 H 0.44287 0.27935 0.20567 0.0
H351 H 0.44598 0.23519 0.241 0.0
Li352 Li 0.05467 0.80644 0.09794 0.0
Li353 Li 0.07398 0.7914 0.12424 0.0
Li354 Li 0.05213 0.76946 0.09604 0.0
Li355 Li 0.03857 0.78692 0.12313 0.0
C356 C 0.08686 0.79116 0.08198 0.0
N357 N 0.11223 0.79224 0.05551 0.0
C358 C 0.10568 0.79775 0.08819 0.0
C359 C 0.08091 0.78511 0.06234 0.0
C360 C 0.1183 0.7982 0.07457 0.0
C361 C 0.09397 0.78576 0.04917 0.0
C362 C 0.0621 0.8245 0.14225 0.0
C363 C 0.06383 0.83553 0.17623 0.0
N364 N 0.07009 0.85309 0.17234 0.0
C365 C 0.06858 0.84263 0.13857 0.0
C366 C 0.05971 0.82087 0.16121 0.0
C367 C 0.07253 0.85691 0.15398 0.0
C368 C 0.03809 0.83832 0.09008 0.0
N369 N 0.05256 0.83029 0.08564 0.0
C370 C 0.0632 0.85619 0.068 0.0
C371 C 0.065 0.83899 0.07466 0.0
C372 C 0.04855 0.86501 0.07268 0.0
C373 C 0.03587 0.85548 0.08385 0.0
H374 H 0.02827 0.83152 0.09884 0.0
H375 H 0.07661 0.83282 0.07127 0.0
C376 C 0.10383 0.77619 0.14133 0.0
N377 N 0.09777 0.79246 0.14109 0.0
C378 C 0.12014 0.77509 0.15302 0.0
C379 C 0.12416 0.80757 0.16411 0.0
C380 C 0.10768 0.80805 0.15221 0.0
C381 C 0.1307 0.79087 0.16482 0.0
H382 H 0.09592 0.76391 0.13242 0.0
H383 H 0.10277 0.82091 0.152 0.0
C384 C 0.01793 0.78001 0.07968 0.0
N385 N 0.98873 0.7702 0.05031 0.0
C386 C 1.00084 0.77032 0.08341 0.0
C387 C 0.02022 0.78474 0.06105 0.0
C388 C 0.98623 0.76547 0.06836 0.0
C389 C 1.00527 0.77964 0.04638 0.0
C390 C 0.05255 0.75678 0.13843 0.0
C391 C 0.04379 0.73827 0.13318 0.0
C392 C 0.05896 0.76323 0.1579 0.0
C393 C 0.04148 0.7265 0.14758 0.0
C394 C 0.0564 0.75102 0.17187 0.0
N395 N 0.04779 0.73306 0.16646 0.0
C396 C 0.06504 0.73639 0.08021 0.0
C397 C 0.03254 0.73239 0.07638 0.0
C398 C 0.06387 0.71746 0.07356 0.0
N399 N 0.04952 0.74361 0.08172 0.0
C400 C 0.03074 0.71336 0.06974 0.0
C401 C 0.04652 0.7053 0.06845 0.0
H402 H 0.07849 0.7452 0.08478 0.0
H403 H 0.02023 0.73796 0.07809 0.0
C404 C 0.01186 0.80071 0.14527 0.0
N405 N 0.01738 0.78506 0.13819 0.0
C406 C 0.99623 0.79963 0.15531 0.0
C407 C 0.99199 0.76636 0.15053 0.0
C408 C 0.00771 0.76807 0.14064 0.0
C409 C 0.98591 0.78225 0.15805 0.0
H410 H 0.01947 0.8141 0.14291 0.0
H411 H 0.01204 0.75576 0.13467 0.0
O412 O 0.07438 0.79034 0.09515 0.0
O413 O 0.05775 0.81045 0.12727 0.0
O414 O 0.03225 0.78525 0.09431 0.0
O415 O 0.05509 0.76845 0.12452 0.0
H416 H 0.11048 0.80243 0.10338 0.0
H417 H 0.06637 0.77987 0.05736 0.0
H418 H 0.13292 0.80326 0.07916 0.0
H419 H 0.08959 0.78108 0.03392 0.0
H420 H 0.062 0.83295 0.19098 0.0
H421 H 0.07049 0.84566 0.12395 0.0
H422 H 0.05456 0.80692 0.16425 0.0
H423 H 0.0775 0.87103 0.15134 0.0
H424 H 0.07357 0.86273 0.05965 0.0
H425 H 0.02413 0.86117 0.08776 0.0
H426 H 0.1245 0.76191 0.15257 0.0
H427 H 0.13149 0.82015 0.17296 0.0
H428 H 0.99886 0.76663 0.09779 0.0
H429 H 0.03337 0.79234 0.058 0.0
H430 H 0.97291 0.75799 0.07103 0.0
H431 H 0.0068 0.78322 0.03188 0.0
H432 H 0.03877 0.73305 0.11818 0.0
H433 H 0.06591 0.77748 0.16215 0.0
H434 H 0.03469 0.71215 0.14374 0.0
H435 H 0.0613 0.7558 0.187 0.0
H436 H 0.0766 0.71245 0.07266 0.0
H437 H 0.01697 0.70494 0.0664 0.0
H438 H 0.99207 0.81232 0.16051 0.0
H439 H 0.98475 0.75264 0.15237 0.0
Li440 Li 0.50603 0.78521 0.45108 0.0
Li441 Li 0.4845 0.76357 0.42271 0.0
Li442 Li 0.50405 0.74842 0.44959 0.0
Li443 Li 0.52 0.76659 0.42458 0.0
C444 C 0.4723 0.76746 0.46537 0.0
N445 N 0.44866 0.77375 0.49236 0.0
C446 C 0.4564 0.77423 0.45995 0.0
C447 C 0.47619 0.76384 0.48447 0.0
C448 C 0.44463 0.77735 0.47382 0.0
C449 C 0.46406 0.76712 0.49792 0.0
C450 C 0.50692 0.79796 0.40905 0.0
C451 C 0.51285 0.80447 0.37682 0.0
N452 N 0.51168 0.82243 0.38171 0.0
C453 C 0.5058 0.81648 0.41378 0.0
C454 C 0.51047 0.79188 0.39043 0.0
C455 C 0.50823 0.82863 0.39975 0.0
C456 C 0.52601 0.82226 0.46957 0.0
N457 N 0.50885 0.81118 0.46518 0.0
C458 C 0.49517 0.8376 0.4742 0.0
C459 C 0.49358 0.8186 0.4676 0.0
C460 C 0.51268 0.84959 0.47841 0.0
C461 C 0.52822 0.84134 0.47624 0.0
H462 H 0.5381 0.81647 0.46729 0.0
H463 H 0.47998 0.81 0.46358 0.0
C464 C 0.44471 0.75035 0.40762 0.0
N465 N 0.4607 0.76209 0.40539 0.0
C466 C 0.42799 0.75025 0.39581 0.0
C467 C 0.44431 0.77411 0.3794 0.0
C468 C 0.46058 0.77384 0.39153 0.0
C469 C 0.42756 0.76225 0.38133 0.0
H470 H 0.44481 0.74112 0.4187 0.0
H471 H 0.47307 0.78329 0.38988 0.0
C472 C 0.54084 0.77046 0.46699 0.0
N473 N 0.57088 0.77179 0.49434 0.0
C474 C 0.55609 0.76337 0.46175 0.0
C475 C 0.54083 0.77822 0.4861 0.0
C476 C 0.57116 0.76419 0.47581 0.0
C477 C 0.55615 0.77875 0.49973 0.0
C478 C 0.50017 0.73052 0.40517 0.0
C479 C 0.50753 0.71489 0.4085 0.0
C480 C 0.49291 0.7325 0.38639 0.0
C481 C 0.50752 0.70148 0.39291 0.0
C482 C 0.49315 0.71877 0.37119 0.0
N483 N 0.50038 0.70367 0.37474 0.0
C484 C 0.4934 0.70872 0.4547 0.0
C485 C 0.51912 0.72394 0.47687 0.0
C486 C 0.49518 0.69141 0.46086 0.0
N487 N 0.50545 0.72471 0.46241 0.0
C488 C 0.52122 0.70691 0.48364 0.0
C489 C 0.50938 0.69007 0.47546 0.0
H490 H 0.48265 0.70922 0.44316 0.0
H491 H 0.52882 0.73646 0.48294 0.0
C492 C 0.55212 0.78521 0.40915 0.0
N493 N 0.54139 0.76823 0.40968 0.0
C494 C 0.56764 0.78713 0.39893 0.0
C495 C 0.56115 0.75408 0.39011 0.0
C496 C 0.54579 0.75279 0.40051 0.0
C497 C 0.57242 0.77143 0.38912 0.0
H498 H 0.54867 0.79733 0.41676 0.0
H499 H 0.5375 0.73936 0.4013 0.0
O500 O 0.48375 0.76392 0.4519 0.0
O501 O 0.50438 0.78582 0.42254 0.0
O502 O 0.52611 0.7701 0.45342 0.0
O503 O 0.49973 0.74363 0.42028 0.0
H504 H 0.45321 0.77707 0.44519 0.0
H505 H 0.48842 0.75848 0.48882 0.0
H506 H 0.43227 0.78261 0.46985 0.0
H507 H 0.46686 0.76437 0.51276 0.0
H508 H 0.51558 0.79996 0.36234 0.0
H509 H 0.50296 0.82141 0.42807 0.0
H510 H 0.51123 0.77755 0.3865 0.0
H511 H 0.50734 0.84299 0.40319 0.0
H512 H 0.48261 0.84291 0.47518 0.0
H513 H 0.5421 0.84954 0.47947 0.0
H514 H 0.41557 0.74072 0.39792 0.0
H515 H 0.44484 0.78388 0.36882 0.0
H516 H 0.5563 0.75736 0.44699 0.0
H517 H 0.52911 0.78379 0.49033 0.0
H518 H 0.58309 0.7588 0.47198 0.0
H519 H 0.55636 0.78471 0.51458 0.0
H520 H 0.51344 0.71327 0.42289 0.0
H521 H 0.48711 0.7445 0.38361 0.0
H522 H 0.51324 0.68935 0.39526 0.0
H523 H 0.48756 0.7201 0.35657 0.0
H524 H 0.48542 0.67912 0.45412 0.0
H525 H 0.53251 0.70693 0.49479 0.0
H526 H 0.57598 0.80081 0.39903 0.0
H527 H 0.56399 0.74153 0.38274 0.0
Li528 Li 0.55534 0.30709 0.59714 0.0
Li529 Li 0.57481 0.29214 0.62357 0.0
Li530 Li 0.5526 0.27013 0.59558 0.0
Li531 Li 0.53951 0.28802 0.62258 0.0
C532 C 0.58737 0.2915 0.58116 0.0
N533 N 0.61269 0.29215 0.55466 0.0
C534 C 0.60609 0.29891 0.58714 0.0
C535 C 0.58148 0.28444 0.56174 0.0
C536 C 0.61869 0.29911 0.57351 0.0
C537 C 0.59452 0.28489 0.54855 0.0
C538 C 0.56202 0.32526 0.64157 0.0
C539 C 0.56258 0.33557 0.67557 0.0
N540 N 0.568 0.35339 0.67202 0.0
C541 C 0.56759 0.34365 0.63824 0.0
C542 C 0.55947 0.32114 0.66035 0.0
C543 C 0.57055 0.35769 0.65384 0.0
C544 C 0.53794 0.33806 0.58784 0.0
N545 N 0.55319 0.33079 0.5847 0.0
C546 C 0.56446 0.35734 0.56823 0.0
C547 C 0.56633 0.3402 0.57495 0.0
C548 C 0.54899 0.36539 0.57161 0.0
C549 C 0.53561 0.35516 0.58152 0.0
H550 H 0.52757 0.33071 0.59564 0.0
H551 H 0.57855 0.33464 0.57265 0.0
C552 C 0.60892 0.28051 0.63563 0.0
N553 N 0.59864 0.2934 0.64038 0.0
C554 C 0.62536 0.27974 0.64731 0.0
C555 C 0.62055 0.30539 0.66888 0.0
C556 C 0.60428 0.3058 0.65668 0.0
C557 C 0.63145 0.2922 0.66439 0.0
H558 H 0.60423 0.2706 0.62278 0.0
H559 H 0.5961 0.31597 0.66043 0.0
C560 C 0.51839 0.28058 0.57938 0.0
N561 N 0.48894 0.2702 0.55034 0.0
C562 C 0.50147 0.27074 0.58338 0.0
C563 C 0.52037 0.28518 0.56065 0.0
C564 C 0.48673 0.2656 0.56849 0.0
C565 C 0.5053 0.27979 0.54615 0.0
C566 C 0.55301 0.25744 0.63773 0.0
C567 C 0.54353 0.2392 0.63218 0.0
C568 C 0.55987 0.26333 0.6572 0.0
C569 C 0.54097 0.22714 0.64628 0.0
C570 C 0.55704 0.25084 0.67087 0.0
N571 N 0.54772 0.23316 0.66518 0.0
C572 C 0.56511 0.23641 0.58179 0.0
C573 C 0.53291 0.23356 0.57423 0.0
C574 C 0.56376 0.21744 0.57528 0.0
N575 N 0.54981 0.24422 0.5814 0.0
C576 C 0.53095 0.21451 0.56755 0.0
C577 C 0.54645 0.20587 0.56825 0.0
H578 H 0.57844 0.24479 0.58778 0.0
H579 H 0.52071 0.23958 0.57439 0.0
C580 C 0.51342 0.30262 0.64488 0.0
N581 N 0.51865 0.28676 0.63793 0.0
C582 C 0.49801 0.30194 0.6552 0.0
C583 C 0.49333 0.26861 0.65081 0.0
C584 C 0.50888 0.26994 0.64072 0.0
C585 C 0.48757 0.28474 0.65819 0.0
H586 H 0.52103 0.31587 0.64215 0.0
H587 H 0.51294 0.25747 0.6348 0.0
O588 O 0.57493 0.29081 0.59438 0.0
O589 O 0.55886 0.31139 0.62642 0.0
O590 O 0.53285 0.28607 0.59383 0.0
O591 O 0.55583 0.26937 0.6241 0.0
H592 H 0.61083 0.30441 0.60215 0.0
H593 H 0.56703 0.27858 0.55694 0.0
H594 H 0.63323 0.30477 0.57793 0.0
H595 H 0.5902 0.27944 0.53346 0.0
H596 H 0.56065 0.33261 0.69019 0.0
H597 H 0.5696 0.34704 0.62376 0.0
H598 H 0.55509 0.30696 0.66313 0.0
H599 H 0.57486 0.37199 0.65148 0.0
H600 H 0.57537 0.36447 0.56091 0.0
H601 H 0.52326 0.36026 0.58438 0.0
H602 H 0.63298 0.26913 0.6432 0.0
H603 H 0.6246 0.31548 0.68167 0.0
H604 H 0.49973 0.26714 0.59784 0.0
H605 H 0.53339 0.29289 0.55738 0.0
H606 H 0.47354 0.25798 0.57137 0.0
H607 H 0.50659 0.28326 0.53158 0.0
H608 H 0.53813 0.23442 0.61716 0.0
H609 H 0.56735 0.27737 0.66169 0.0
H610 H 0.53362 0.21299 0.64221 0.0
H611 H 0.56227 0.2552 0.68601 0.0
H612 H 0.5763 0.2119 0.57596 0.0
H613 H 0.51721 0.20649 0.5626 0.0
H614 H 0.49402 0.31475 0.66029 0.0
H615 H 0.48588 0.25502 0.65281 0.0
Li616 Li 0.00618 0.28458 0.95002 0.0
Li617 Li 0.98456 0.26366 0.92157 0.0
Li618 Li 1.00373 0.24781 0.94804 0.0
Li619 Li 0.02003 0.26616 0.92312 0.0
C620 C 0.97237 0.26689 0.96428 0.0
N621 N 0.94909 0.27302 0.9917 0.0
C622 C 0.95617 0.27324 0.95903 0.0
C623 C 0.97674 0.2636 0.98341 0.0
C624 C 0.94458 0.27627 0.97313 0.0
C625 C 0.96478 0.2668 0.99708 0.0
C626 C 0.00564 0.29764 0.90785 0.0
C627 C 0.00908 0.30408 0.87506 0.0
N628 N 0.00736 0.32185 0.88013 0.0
C629 C 1.00387 0.31594 0.91274 0.0
C630 C 0.00819 0.2916 0.88886 0.0
C631 C 1.00477 0.32797 0.89851 0.0
C632 C 0.02525 0.32277 0.96308 0.0
N633 N 0.00941 0.31041 0.96445 0.0
C634 C 0.99697 0.33538 0.9799 0.0
C635 C 0.99546 0.31649 0.9729 0.0
C636 C 0.01293 0.34869 0.97811 0.0
C637 C 0.02726 0.3418 0.9697 0.0
H638 H 0.03613 0.31802 0.95597 0.0
H639 H 0.98279 0.30682 0.97377 0.0
C640 C 0.94771 0.24747 0.89884 0.0
N641 N 0.96085 0.26315 0.90454 0.0
C642 C 0.93109 0.24802 0.88719 0.0
C643 C 0.94178 0.28069 0.88703 0.0
C644 C 0.95793 0.27958 0.89892 0.0
C645 C 0.92774 0.26485 0.88095 0.0
H646 H 0.94998 0.23448 0.90348 0.0
H647 H 0.96813 0.29205 0.90371 0.0
C648 C 0.04061 0.27033 0.966 0.0
N649 N 0.07019 0.27312 0.99431 0.0
C650 C 0.05716 0.26579 0.96104 0.0
C651 C 0.03908 0.27634 0.9853 0.0
C652 C 0.07196 0.26726 0.97559 0.0
C653 C 0.05421 0.27765 0.99942 0.0
C654 C 1.00009 0.23007 0.90392 0.0
C655 C 0.0064 0.21405 0.90796 0.0
C656 C 0.99404 0.23218 0.88479 0.0
C657 C 0.00666 0.20039 0.8927 0.0
C658 C 0.99453 0.2182 0.86993 0.0
N659 N 1.00077 0.20273 0.87416 0.0
C660 C 0.98962 0.21007 0.95893 0.0
C661 C 0.02138 0.2211 0.96916 0.0
C662 C 0.99067 0.19269 0.9654 0.0
N663 N 1.00487 0.22402 0.96071 0.0
C664 C 0.023 0.20398 0.97592 0.0
C665 C 0.00759 0.18916 0.97398 0.0
H666 H 0.97657 0.21221 0.95201 0.0
H667 H 0.03359 0.23187 0.97025 0.0
C668 C 0.05186 0.28488 0.90729 0.0
N669 N 0.04157 0.2678 0.90834 0.0
C670 C 0.06775 0.28688 0.89763 0.0
C671 C 0.06243 0.25371 0.89026 0.0
C672 C 0.04667 0.25233 0.90011 0.0
C673 C 0.07336 0.27117 0.88889 0.0
H674 H 0.04778 0.29704 0.91407 0.0
H675 H 0.0387 0.23883 0.90139 0.0
O676 O 0.98372 0.26357 0.95064 0.0
O677 O 1.00481 0.28567 0.92159 0.0
O678 O 0.02605 0.26914 0.95195 0.0
O679 O 0.99942 0.24342 0.91869 0.0
H680 H 0.9526 0.27579 0.94424 0.0
H681 H 0.98921 0.25859 0.98763 0.0
H682 H 0.932 0.2812 0.96931 0.0
H683 H 0.96796 0.26431 0.01196 0.0
H684 H 0.01112 0.29964 0.86032 0.0
H685 H 1.0016 0.32077 0.92728 0.0
H686 H 0.00955 0.27746 0.88486 0.0
H687 H 1.00338 0.34217 0.90207 0.0
H688 H 0.98552 0.33943 0.98652 0.0
H689 H 0.03979 0.35106 0.96747 0.0
H690 H 0.92089 0.23532 0.88343 0.0
H691 H 0.94057 0.29403 0.88258 0.0
H692 H 0.05854 0.26114 0.94614 0.0
H693 H 0.02636 0.27997 0.9893 0.0
H694 H 0.08485 0.26377 0.972 0.0
H695 H 0.05326 0.28228 0.01443 0.0
H696 H 0.01111 0.2122 0.9227 0.0
H697 H 0.98898 0.24445 0.88149 0.0
H698 H 0.01154 0.18793 0.8956 0.0
H699 H 0.9899 0.21963 0.85505 0.0
H700 H 0.9782 0.18209 0.96365 0.0
H701 H 0.03649 0.20226 0.98207 0.0
H702 H 0.07545 0.30069 0.89688 0.0
H703 H 0.06621 0.24112 0.88411 0.0
Li704 Li 0.39321 0.01567 0.31312 0.0
Li705 Li 0.36655 0.99894 0.29091 0.0
Li706 Li 0.39216 0.01913 0.2789 0.0
Li707 Li 0.36992 0.03161 0.29833 0.0
C708 C 0.40394 0.98431 0.29371 0.0
N709 N 0.42715 0.95956 0.29888 0.0
C710 C 0.39672 0.96617 0.29689 0.0
C711 C 0.42293 0.98982 0.29298 0.0
C712 C 0.4087 0.95388 0.29951 0.0
C713 C 0.43445 0.97711 0.29568 0.0
C714 C 0.35441 0.01143 0.32948 0.0
C715 C 0.32342 0.01084 0.3375 0.0
N716 N 0.32907 0.00825 0.35602 0.0
C717 C 0.35992 0.00881 0.3486 0.0
C718 C 0.33603 0.01245 0.32385 0.0
C719 C 0.34689 0.0072 0.3618 0.0
C720 C 0.41444 0.03313 0.34598 0.0
N721 N 0.40883 0.01615 0.33558 0.0
C722 C 0.42755 1.00273 0.35754 0.0
C723 C 0.41464 1.00095 0.34122 0.0
C724 C 0.43398 0.02023 0.36817 0.0
C725 C 0.42714 0.03552 0.3625 0.0
H726 H 0.4092 0.04484 0.34124 0.0
H727 H 0.40938 0.98751 0.33307 0.0
C728 C 0.34827 0.96825 0.26662 0.0
N729 N 0.35008 0.9766 0.28512 0.0
C730 C 0.3378 0.95052 0.26169 0.0
C731 C 0.33158 0.95022 0.29513 0.0
C732 C 0.34191 0.96815 0.29932 0.0
C733 C 0.32979 0.94111 0.27617 0.0
H734 H 0.35562 0.97506 0.2559 0.0
H735 H 0.34419 0.9749 0.31406 0.0
C736 C 0.4127 0.05211 0.30099 0.0
N737 N 0.44405 0.07882 0.30047 0.0
C738 C 0.41111 0.07008 0.29771 0.0
C739 C 0.43021 0.04772 0.30414 0.0
C740 C 0.42713 0.08339 0.29746 0.0
C741 C 0.44591 0.06143 0.30379 0.0
C742 C 0.35138 0.01157 0.25745 0.0
C743 C 0.35542 0.00743 0.23855 0.0
C744 C 0.33296 0.00981 0.26104 0.0
C745 C 0.3409 1.00135 0.22355 0.0
C746 C 0.31883 1.00368 0.24565 0.0
N747 N 0.32306 0.9996 0.22738 0.0
C748 C 0.40929 0.00517 0.24965 0.0
C749 C 0.4143 0.038 0.25312 0.0
C750 C 0.42079 0.00511 0.23513 0.0
N751 N 0.4066 0.02144 0.25853 0.0
C752 C 0.42591 0.0386 0.23855 0.0
C753 C 0.42944 0.02199 0.22961 0.0
H754 H 0.40254 0.99221 0.25395 0.0
H755 H 0.41154 0.05069 0.26015 0.0
C756 C 0.35356 0.0577 0.31899 0.0
N757 N 0.35696 0.05028 0.30142 0.0
C758 C 0.34299 0.07142 0.31998 0.0
C759 C 0.3399 0.06926 0.28482 0.0
C760 C 0.35059 0.05584 0.28455 0.0
C761 C 0.33595 0.07713 0.30267 0.0
H762 H 0.35904 0.05296 0.33213 0.0
H763 H 0.35394 0.0499 0.27089 0.0
O764 O 0.39239 0.99646 0.29094 0.0
O765 O 0.36702 0.01282 0.3164 0.0
O766 O 0.39714 0.03901 0.30143 0.0
O767 O 0.36545 0.01767 0.27227 0.0
H768 H 0.38204 0.96165 0.2974 0.0
H769 H 0.42871 1.00372 0.29027 0.0
H770 H 0.40332 0.93981 0.30205 0.0
H771 H 0.44918 0.9812 0.2952 0.0
H772 H 0.30915 0.01163 0.33335 0.0
H773 H 0.3741 0.00794 0.35317 0.0
H774 H 0.33155 0.01451 0.30914 0.0
H775 H 0.35095 0.00511 0.37663 0.0
H776 H 0.43237 0.99064 0.36189 0.0
H777 H 0.43185 0.04919 0.37052 0.0
H778 H 0.33662 0.94399 0.24689 0.0
H779 H 0.32594 0.94325 0.30679 0.0
H780 H 0.39761 0.07367 0.29533 0.0
H781 H 0.43167 0.03394 0.30693 0.0
H782 H 0.42612 0.09735 0.29489 0.0
H783 H 0.45956 0.05824 0.3062 0.0
H784 H 0.36962 0.00884 0.23552 0.0
H785 H 0.3296 0.01315 0.27552 0.0
H786 H 0.34381 0.99803 0.20886 0.0
H787 H 0.3045 1.0022 0.24822 0.0
H788 H 0.42273 0.99198 0.22816 0.0
H789 H 0.43224 0.05186 0.2345 0.0
H790 H 0.34039 0.0775 0.33396 0.0
H791 H 0.33521 0.07383 0.27122 0.0
Li792 Li 0.27034 0.18506 0.53206 0.0
Li793 Li 0.28318 0.15982 0.51314 0.0
Li794 Li 0.26839 0.18307 0.49518 0.0
Li795 Li 0.24856 0.15763 0.51033 0.0
C796 C 0.30564 0.2017 0.5188 0.0
N797 N 0.33597 0.23054 0.52519 0.0
C798 C 0.32315 0.19841 0.52491 0.0
C799 C 0.30351 0.21962 0.51593 0.0
C800 C 0.33832 0.21318 0.52808 0.0
C801 C 0.31903 0.23403 0.51925 0.0
C802 C 0.2665 0.14474 0.54609 0.0
C803 C 0.2604 0.11276 0.55192 0.0
N804 N 0.26706 0.11804 0.57097 0.0
C805 C 0.27322 0.14988 0.56572 0.0
C806 C 0.26 0.12606 0.5391 0.0
C807 C 0.27342 0.13616 0.57806 0.0
C808 C 0.25681 0.20419 0.56348 0.0
N809 N 0.27253 0.19999 0.55726 0.0
C810 C 0.28963 0.21289 0.5883 0.0
C811 C 0.28883 0.20436 0.5692 0.0
C812 C 0.2735 0.21708 0.59537 0.0
C813 C 0.25701 0.21283 0.58238 0.0
H814 H 0.24393 0.2004 0.55389 0.0
H815 H 0.30112 0.20061 0.56414 0.0
C816 C 0.31123 0.14371 0.49692 0.0
N817 N 0.30289 0.1459 0.51329 0.0
C818 C 0.32577 0.13401 0.49654 0.0
C819 C 0.32285 0.12887 0.52981 0.0
C820 C 0.30852 0.13879 0.5296 0.0
C821 C 0.33178 0.12636 0.51315 0.0
H822 H 0.30664 0.14958 0.48414 0.0
H823 H 0.30209 0.14099 0.54262 0.0
C824 C 0.23764 0.19727 0.50852 0.0
N825 N 0.21555 0.22249 0.50089 0.0
C826 C 0.21953 0.19113 0.49943 0.0
C827 C 0.24453 0.21619 0.5138 0.0
C828 C 0.20857 0.20411 0.49567 0.0
C829 C 0.23314 0.22874 0.50978 0.0
C830 C 0.26118 0.14162 0.47438 0.0
C831 C 0.25562 0.14518 0.45561 0.0
C832 C 0.26346 0.12383 0.47763 0.0
C833 C 0.25238 0.13079 0.44034 0.0
C834 C 0.26008 0.10981 0.46197 0.0
N835 N 0.25467 0.11356 0.4438 0.0
C836 C 0.28696 0.20139 0.4661 0.0
C837 C 0.25458 0.19942 0.46178 0.0
C838 C 0.28877 0.20964 0.44892 0.0
N839 N 0.27006 0.19642 0.47223 0.0
C840 C 0.25575 0.20758 0.44447 0.0
C841 C 0.27302 0.21275 0.43761 0.0
H842 H 0.2991 0.19869 0.4744 0.0
H843 H 0.2412 0.19502 0.46655 0.0
C844 C 0.21722 0.14087 0.5264 0.0
N845 N 0.22486 0.14099 0.50946 0.0
C846 C 0.20018 0.12929 0.52746 0.0
C847 C 0.19899 0.11806 0.49356 0.0
C848 C 0.21609 0.12991 0.49315 0.0
C849 C 0.19073 0.11757 0.51092 0.0
H850 H 0.22439 0.14985 0.53916 0.0
H851 H 0.22234 0.13022 0.4798 0.0
O852 O 0.29079 0.18729 0.51502 0.0
O853 O 0.26636 0.15799 0.5338 0.0
O854 O 0.24839 0.18473 0.51266 0.0
O855 O 0.26486 0.15566 0.48938 0.0
H856 H 0.325 0.18456 0.52706 0.0
H857 H 0.29006 0.22232 0.51099 0.0
H858 H 0.35197 0.21084 0.53276 0.0
H859 H 0.31763 0.24797 0.51702 0.0
H860 H 0.25542 0.09824 0.54674 0.0
H861 H 0.2783 0.16429 0.57133 0.0
H862 H 0.25471 0.12188 0.52394 0.0
H863 H 0.27864 0.13992 0.59328 0.0
H864 H 0.30267 0.21553 0.59761 0.0
H865 H 0.24424 0.216 0.58675 0.0
H866 H 0.33214 0.13241 0.48333 0.0
H867 H 0.3272 0.12362 0.54311 0.0
H868 H 0.214 0.17648 0.49537 0.0
H869 H 0.25847 0.2211 0.52103 0.0
H870 H 0.19452 0.19958 0.48866 0.0
H871 H 0.23826 0.24344 0.5138 0.0
H872 H 0.25388 0.15891 0.45285 0.0
H873 H 0.26791 0.12091 0.49206 0.0
H874 H 0.24809 0.13335 0.42572 0.0
H875 H 0.26182 0.09597 0.46424 0.0
H876 H 0.30244 0.21354 0.4446 0.0
H877 H 0.2431 0.20928 0.43628 0.0
H878 H 0.19437 0.12978 0.54109 0.0
H879 H 0.19245 0.10921 0.48045 0.0
Li880 Li 0.14778 0.05802 0.78758 0.0
Li881 Li 0.12214 0.03827 0.80228 0.0
Li882 Li 0.14524 0.02356 0.78464 0.0
Li883 Li 0.12053 0.03634 0.76556 0.0
C884 C 0.16378 0.04564 0.82324 0.0
N885 N 0.1925 0.05283 0.85319 0.0
C886 C 0.16039 0.05019 0.84231 0.0
C887 C 0.18175 0.04471 0.81938 0.0
C888 C 0.1751 0.05379 0.85725 0.0
C889 C 0.19609 0.04842 0.83473 0.0
C890 C 0.10831 0.06924 0.78858 0.0
C891 C 0.07702 0.0743 0.78617 0.0
N892 N 0.08331 0.09179 0.79533 0.0
C893 C 0.1145 0.08726 0.79793 0.0
C894 C 0.08946 0.06269 0.78258 0.0
C895 C 0.10163 0.09845 0.80123 0.0
C896 C 0.16372 0.08967 0.7719 0.0
N897 N 0.16424 0.08173 0.78865 0.0
C898 C 0.18742 0.10747 0.80434 0.0
C899 C 0.17574 0.09028 0.80478 0.0
C900 C 0.18719 0.11603 0.78718 0.0
C901 C 0.17507 0.10682 0.77083 0.0
H902 H 0.15448 0.08258 0.75927 0.0
H903 H 0.17584 0.08385 0.81802 0.0
C904 C 0.10323 0.01969 0.83074 0.0
N905 N 0.10871 0.03666 0.82491 0.0
C906 C 0.09506 0.01792 0.84793 0.0
C907 C 0.09827 0.05111 0.85299 0.0
C908 C 0.10631 0.05224 0.83564 0.0
C909 C 0.0926 0.03377 0.85955 0.0
H910 H 0.10553 0.00749 0.82221 0.0
H911 H 0.11115 0.06564 0.83108 0.0
C912 C 0.16061 0.03867 0.75185 0.0
N913 N 0.18682 0.03538 0.72694 0.0
C914 C 0.15513 0.03057 0.73266 0.0
C915 C 0.17937 0.04524 0.75835 0.0
C916 C 0.16861 0.029 0.7203 0.0
C917 C 0.19243 0.0434 0.74553 0.0
C918 C 0.1034 1.00112 0.77854 0.0
C919 C 0.10665 0.98351 0.77276 0.0
C920 C 0.08543 1.00343 0.78084 0.0
C921 C 0.09178 0.96843 0.76934 0.0
C922 C 0.07094 0.98799 0.7773 0.0
N923 N 0.07439 0.97096 0.77168 0.0
C924 C 0.16519 0.99819 0.80112 0.0
C925 C 0.16057 0.99469 0.76674 0.0
C926 C 0.17435 0.98326 0.80095 0.0
N927 N 0.15861 1.00366 0.78417 0.0
C928 C 0.16956 0.97968 0.76589 0.0
C929 C 0.17655 0.9737 0.78315 0.0
H930 H 0.1631 0.00525 0.81482 0.0
H931 H 0.1549 0.999 0.75346 0.0
C932 C 0.1067 0.05044 0.73228 0.0
N933 N 0.10609 0.03439 0.74034 0.0
C934 C 0.09871 0.05029 0.71316 0.0
C935 C 0.08909 0.0171 0.71096 0.0
C936 C 0.09739 0.01787 0.73015 0.0
C937 C 0.08994 0.03345 0.70205 0.0
H938 H 0.11387 0.06338 0.74057 0.0
H939 H 0.09737 0.00521 0.73665 0.0
O940 O 0.14945 0.04169 0.80854 0.0
O941 O 0.12075 0.05828 0.78486 0.0
O942 O 0.14759 0.04046 0.76408 0.0
O943 O 0.11788 0.01591 0.78246 0.0
H944 H 0.14654 0.05086 0.84554 0.0
H945 H 0.18455 0.04102 0.80473 0.0
H946 H 0.17268 0.0573 0.87209 0.0
H947 H 0.21006 0.04772 0.83198 0.0
H948 H 0.06237 0.06944 0.78161 0.0
H949 H 0.1291 0.09254 0.80253 0.0
H950 H 0.08452 0.04882 0.77513 0.0
H951 H 0.1062 0.11244 0.80844 0.0
H952 H 0.19634 0.11408 0.81738 0.0
H953 H 0.17454 0.11265 0.7572 0.0
H954 H 0.09076 1.0042 0.85205 0.0
H955 H 0.09707 0.06381 0.86145 0.0
H956 H 0.14063 0.02551 0.7274 0.0
H957 H 0.18379 0.05177 0.77309 0.0
H958 H 0.16459 0.02271 0.70542 0.0
H959 H 0.20701 0.04839 0.75036 0.0
H960 H 0.12051 0.9815 0.77103 0.0
H961 H 0.08275 0.01696 0.78549 0.0
H962 H 0.09409 0.9547 0.7649 0.0
H963 H 0.05695 0.98954 0.77908 0.0
H964 H 0.17927 0.97899 0.81461 0.0
H965 H 0.17107 0.97287 0.75182 0.0
H966 H 0.09955 0.06327 0.70707 0.0
H967 H 0.08267 1.00377 0.70296 0.0
Li968 Li 0.27438 0.93612 0.99786 0.0
Li969 Li 0.28736 0.91455 0.01771 0.0
Li970 Li 0.30675 0.94006 0.00517 0.0
Li971 Li 0.29027 0.91287 0.98357 0.0
C972 C 0.29649 0.95495 0.03879 0.0
N973 N 0.31251 0.98234 0.06875 0.0
C974 C 0.30099 0.95033 0.05739 0.0
C975 C 0.29996 0.97353 0.03548 0.0
C976 C 0.30912 0.96437 0.07234 0.0
C977 C 0.30815 0.98716 0.0508 0.0
C978 C 0.25397 0.89349 0.99538 0.0
C979 C 0.24425 0.86027 0.99194 0.0
N980 N 0.22677 0.86227 0.99467 0.0
C981 C 0.23592 0.89523 0.99806 0.0
C982 C 0.2582 0.8759 0.99222 0.0
C983 C 0.22236 0.87927 0.9977 0.0
C984 C 0.24505 0.947 0.97643 0.0
N985 N 0.25544 0.9486 0.99394 0.0
C986 C 0.23829 0.96914 0.00832 0.0
C987 C 0.25246 0.95939 0.00969 0.0
C988 C 0.22702 0.96758 0.99057 0.0
C989 C 0.2305 0.95645 0.97441 0.0
H990 H 0.2479 0.93819 0.96424 0.0
H991 H 0.2608 0.96006 0.02345 0.0
C992 C 0.30183 0.8993 0.04807 0.0
N993 N 0.28541 0.90053 0.03828 0.0
C994 C 0.30216 0.88969 0.06412 0.0
C995 C 0.26863 0.88248 0.05951 0.0
C996 C 0.26895 0.89243 0.04356 0.0
C997 C 0.28541 0.88135 0.07007 0.0
H998 H 0.31466 0.90616 0.04361 0.0
H999 H 0.25613 0.89397 0.03569 0.0
C1000 C 0.29147 0.95072 0.966 0.0
N1001 N 0.29081 0.97521 0.93867 0.0
C1002 C 0.2927 0.94491 0.94656 0.0
C1003 C 0.28985 0.96896 0.97154 0.0
C1004 C 0.29238 0.95752 0.93296 0.0
C1005 C 0.28951 0.98112 0.9575 0.0
C1006 C 0.32193 0.90262 0.00353 0.0
C1007 C 0.34018 0.90946 1.00047 0.0
C1008 C 0.31611 0.88373 0.00467 0.0
C1009 C 0.35227 0.8972 0.99838 0.0
C1010 C 0.32862 0.87192 0.00248 0.0
N1011 N 0.34628 0.87884 0.9994 0.0
C1012 C 0.33889 0.95935 0.02733 0.0
C1013 C 0.33444 0.96659 0.99497 0.0
C1014 C 0.35594 0.9714 0.03068 0.0
N1015 N 0.32861 0.95727 0.00973 0.0
C1016 C 0.35143 0.97867 0.99761 0.0
C1017 C 0.36243 0.98087 0.01553 0.0
H1018 H 0.33411 0.95119 0.0385 0.0
H1019 H 0.32634 0.96411 0.98091 0.0
C1020 C 0.27294 0.89208 0.95048 0.0
N1021 N 0.2897 0.89715 0.96142 0.0
C1022 C 0.2708 0.87977 0.93369 0.0
C1023 C 0.30332 0.87848 0.93975 0.0
C1024 C 0.30489 0.89105 0.95624 0.0
C1025 C 0.2861 0.87274 0.92847 0.0
H1026 H 0.26128 0.89761 0.9549 0.0
H1027 H 0.31817 0.89595 0.96477 0.0
O1028 O 0.2882 0.9414 0.02408 0.0
O1029 O 0.26729 0.909 0.9955 0.0
O1030 O 0.29292 0.93883 0.97962 0.0
O1031 O 0.30994 0.91446 0.00559 0.0
H1032 H 0.29814 0.93608 0.06031 0.0
H1033 H 0.29644 0.97736 0.02122 0.0
H1034 H 0.31267 0.96099 0.0868 0.0
H1035 H 0.311 1.00158 0.04842 0.0
H1036 H 0.2473 0.84656 0.9895 0.0
H1037 H 0.23245 0.90878 1.00042 0.0
H1038 H 0.27205 0.87433 0.98987 0.0
H1039 H 0.20833 0.8804 0.99979 0.0
H1040 H 0.23564 0.97711 0.02127 0.0
H1041 H 0.22189 0.95483 0.9606 0.0
H1042 H 0.31535 0.88895 0.07196 0.0
H1043 H 0.2555 0.8763 0.06393 0.0
H1044 H 0.29421 0.9309 0.94208 0.0
H1045 H 0.28907 0.97371 0.98655 0.0
H1046 H 0.29348 0.95326 0.91789 0.0
H1047 H 0.28833 0.9953 0.96158 0.0
H1048 H 0.34492 0.92407 0.99961 0.0
H1049 H 0.30211 0.87825 0.00726 0.0
H1050 H 0.36642 0.90228 0.99593 0.0
H1051 H 0.32429 0.85726 0.00327 0.0
H1052 H 0.36442 0.97243 0.0445 0.0
H1053 H 0.35628 0.98558 0.98557 0.0
H1054 H 0.25738 0.87561 0.92503 0.0
H1055 H 0.31542 0.8735 0.93567 0.0
Li1056 Li 0.2763 0.39303 0.03465 0.0
Li1057 Li 0.2904 0.36994 0.05185 0.0
Li1058 Li 0.31073 0.39562 0.03606 0.0
Li1059 Li 0.28953 0.36824 0.01497 0.0
C1060 C 0.29418 0.41094 0.07239 0.0
N1061 N 0.29197 0.43797 0.1019 0.0
C1062 C 0.28744 0.40597 0.08954 0.0
C1063 C 0.29992 0.42964 0.07029 0.0
C1064 C 0.28641 0.41985 0.10428 0.0
C1065 C 0.29865 0.4431 0.08536 0.0
C1066 C 0.25376 0.35165 0.03164 0.0
C1067 C 0.23958 0.31922 0.02687 0.0
N1068 N 0.22369 0.32352 0.0325 0.0
C1069 C 0.23728 0.35578 0.03728 0.0
C1070 C 0.25495 0.33325 0.02631 0.0
C1071 C 0.22224 0.34135 0.03767 0.0
C1072 C 0.24901 0.41052 0.01693 0.0
N1073 N 0.25648 0.40667 0.03431 0.0
C1074 C 0.23538 0.42166 0.05079 0.0
C1075 C 0.2498 0.41184 0.05106 0.0
C1076 C 0.22756 0.42611 0.03307 0.0
C1077 C 0.23455 0.42027 0.01597 0.0
H1078 H 0.25422 0.4059 0.00373 0.0
H1079 H 0.25557 0.40827 0.06468 0.0
C1080 C 0.30442 0.35536 0.08605 0.0
N1081 N 0.2887 0.35666 0.07479 0.0
C1082 C 0.30348 0.34765 0.10364 0.0
C1083 C 0.27021 0.34235 0.09768 0.0
C1084 C 0.27179 0.35028 0.08033 0.0
C1085 C 0.28618 0.34112 0.10988 0.0
H1086 H 0.31776 0.36079 0.08163 0.0
H1087 H 0.25942 0.35175 0.07156 0.0
C1088 C 0.29435 0.40888 0.00145 0.0
N1089 N 0.29793 0.43636 0.97729 0.0
C1090 C 0.29614 0.40457 0.98185 0.0
C1091 C 0.29436 0.42714 0.00878 0.0
C1092 C 0.29795 0.41867 0.96987 0.0
C1093 C 0.29619 0.44085 0.99633 0.0
C1094 C 0.32147 0.35535 0.03335 0.0
C1095 C 0.33979 0.36026 0.02957 0.0
C1096 C 0.31414 0.33702 0.03571 0.0
C1097 C 0.35051 0.34666 0.02813 0.0
C1098 C 0.32532 0.32383 0.03416 0.0
N1099 N 0.34312 0.32888 0.03044 0.0
C1100 C 0.34393 0.42195 0.05338 0.0
C1101 C 0.34143 0.41347 0.01944 0.0
C1102 C 0.36114 0.43367 0.05312 0.0
N1103 N 0.33444 0.41215 0.03667 0.0
C1104 C 0.3585 0.42501 0.0185 0.0
C1105 C 0.36875 0.43534 0.03548 0.0
H1106 H 0.33821 0.4206 0.06696 0.0
H1107 H 0.33372 0.40547 0.00636 0.0
C1108 C 0.27061 0.34683 0.97914 0.0
N1109 N 0.28746 0.35356 0.98967 0.0
C1110 C 0.26926 0.33816 0.96002 0.0
C1111 C 0.30256 0.3434 0.96285 0.0
C1112 C 0.30328 0.35189 0.9819 0.0
C1113 C 0.28539 0.33647 0.95141 0.0
H1114 H 0.25819 0.34855 0.98543 0.0
H1115 H 0.31654 0.35773 0.99028 0.0
O1116 O 0.29556 0.39752 0.05796 0.0
O1117 O 0.26856 0.36561 0.03108 0.0
O1118 O 0.29216 0.39516 0.01325 0.0
O1119 O 0.31097 0.36858 0.0353 0.0
H1120 H 0.28304 0.39156 0.09145 0.0
H1121 H 0.30541 0.4337 0.05723 0.0
H1122 H 0.2812 0.41621 0.11762 0.0
H1123 H 0.30303 0.45763 0.08394 0.0
H1124 H 0.24028 0.3049 0.02279 0.0
H1125 H 0.23615 0.36998 0.04139 0.0
H1126 H 0.26758 0.32987 0.02175 0.0
H1127 H 0.20941 0.34433 0.04207 0.0
H1128 H 0.23056 0.4259 0.06436 0.0
H1129 H 0.22875 0.42298 0.00191 0.0
H1130 H 0.31626 0.34737 0.1125 0.0
H1131 H 0.25652 0.33732 0.10149 0.0
H1132 H 0.29606 0.39046 0.97594 0.0
H1133 H 0.29277 0.43065 0.02386 0.0
H1134 H 0.29933 0.41553 0.95465 0.0
H1135 H 0.29616 0.45504 0.00178 0.0
H1136 H 0.34567 0.37444 0.02784 0.0
H1137 H 0.30003 0.33308 0.03885 0.0
H1138 H 0.36473 0.35025 0.02524 0.0
H1139 H 0.31986 0.30958 0.03598 0.0
H1140 H 0.36852 0.44109 0.06666 0.0
H1141 H 0.36349 0.42595 0.0045 0.0
H1142 H 0.25565 0.33293 0.95207 0.0
H1143 H 0.31545 0.34288 0.95697 0.0
Li1144 Li 0.77021 0.14125 0.06313 0.0
Li1145 Li 0.78585 0.11844 0.04732 0.0
Li1146 Li 0.77199 0.14071 0.02864 0.0
Li1147 Li 0.75291 0.11444 0.04096 0.0
C1148 C 0.80647 0.16105 0.05275 0.0
N1149 N 0.83456 0.19206 0.05828 0.0
C1150 C 0.82482 0.15932 0.05725 0.0
C1151 C 0.80239 0.17853 0.05102 0.0
C1152 C 0.83883 0.17517 0.06002 0.0
C1153 C 0.81679 0.19405 0.05387 0.0
C1154 C 0.76695 0.10216 0.07887 0.0
C1155 C 0.76211 0.07046 0.08568 0.0
N1156 N 0.76432 0.07643 0.10503 0.0
C1157 C 0.76918 0.108 0.09881 0.0
C1158 C 0.76338 0.08326 0.07221 0.0
C1159 C 0.76781 0.09477 0.11181 0.0
C1160 C 0.75369 0.15891 0.09126 0.0
N1161 N 0.77012 0.15638 0.08559 0.0
C1162 C 0.78697 0.17681 0.11255 0.0
C1163 C 0.78658 0.16469 0.09593 0.0
C1164 C 0.77023 0.18021 0.11834 0.0
C1165 C 0.75342 0.17108 0.10768 0.0
H1166 H 0.74085 0.15158 0.08297 0.0
H1167 H 0.79936 0.16194 0.09122 0.0
C1168 C 0.81189 0.10254 0.0322 0.0
N1169 N 0.80505 0.10603 0.04919 0.0
C1170 C 0.82604 0.09275 0.03152 0.0
C1171 C 0.82625 0.09089 0.06608 0.0
C1172 C 0.81183 0.10058 0.06602 0.0
C1173 C 0.83329 0.08683 0.04859 0.0
H1174 H 0.80632 0.10742 0.0192 0.0
H1175 H 0.80612 0.10381 0.07932 0.0
C1176 C 0.73727 0.15146 0.04265 0.0
N1177 N 0.71148 0.174 0.04344 0.0
C1178 C 0.71837 0.14371 0.039 0.0
C1179 C 0.74305 0.17066 0.0467 0.0
C1180 C 0.70555 0.15534 0.03944 0.0
C1181 C 0.7298 0.18182 0.04706 0.0
C1182 C 0.76655 0.09989 0.00686 0.0
C1183 C 0.76143 0.10352 0.98799 0.0
C1184 C 0.76706 0.08175 0.01045 0.0
C1185 C 0.75659 0.08882 0.97303 0.0
C1186 C 0.76215 0.06745 0.99508 0.0
N1187 N 0.75703 0.07124 0.97686 0.0
C1188 C 0.79074 0.16194 0.00305 0.0
C1189 C 0.75816 0.15962 1.00032 0.0
C1190 C 0.79212 0.17359 0.98853 0.0
N1191 N 0.77396 0.15544 0.00867 0.0
C1192 C 0.75889 0.17127 0.9859 0.0
C1193 C 0.77605 0.17846 0.97994 0.0
H1194 H 0.803 0.15813 0.0099 0.0
H1195 H 0.74499 0.15382 0.00481 0.0
C1196 C 0.72213 0.09314 0.05212 0.0
N1197 N 0.73095 0.09742 0.03654 0.0
C1198 C 0.7046 0.0819 0.04934 0.0
C1199 C 0.70607 0.07933 0.01462 0.0
C1200 C 0.72333 0.09089 0.01807 0.0
C1201 C 0.69631 0.07519 0.03034 0.0
H1202 H 0.72835 0.09913 0.0666 0.0
H1203 H 0.7302 0.09527 0.00596 0.0
O1204 O 0.79267 0.14561 0.04993 0.0
O1205 O 0.76771 0.11498 0.06601 0.0
O1206 O 0.74997 0.1402 0.04217 0.0
O1207 O 0.77098 0.11409 0.02169 0.0
H1208 H 0.82819 0.14585 0.0586 0.0
H1209 H 0.78832 0.18008 0.04733 0.0
H1210 H 0.8531 0.17404 0.06352 0.0
H1211 H 0.81383 0.20766 0.05253 0.0
H1212 H 0.75928 0.05577 0.08075 0.0
H1213 H 0.77184 0.1226 0.10418 0.0
H1214 H 0.76143 0.07853 0.05682 0.0
H1215 H 0.76947 0.09908 0.12728 0.0
H1216 H 0.80016 0.18367 0.12059 0.0
H1217 H 0.7403 0.17323 0.11208 0.0
H1218 H 0.83153 0.09017 0.0179 0.0
H1219 H 0.83179 0.0866 0.07948 0.0
H1220 H 0.71364 0.12888 0.03579 0.0
H1221 H 0.75757 0.17689 0.0497 0.0
H1222 H 0.69088 0.14954 0.0366 0.0
H1223 H 0.73409 0.1967 0.05024 0.0
H1224 H 0.761 0.11751 0.98501 0.0
H1225 H 0.77114 0.07876 0.02494 0.0
H1226 H 0.75245 0.09139 0.95839 0.0
H1227 H 0.7624 0.05332 0.99765 0.0
H1228 H 0.80554 0.1788 0.98415 0.0
H1229 H 0.74614 0.17431 0.97919 0.0
H1230 H 0.69728 0.07937 0.06179 0.0
H1231 H 0.70007 0.07437 0.99978 0.0
Li1232 Li 0.19141 0.55448 0.25571 0.0
Li1233 Li 0.16603 0.53522 0.26917 0.0
Li1234 Li 0.18795 0.52145 0.24978 0.0
Li1235 Li 0.16436 0.5363 0.23455 0.0
C1236 C 0.20664 0.5417 0.29049 0.0
N1237 N 0.23428 0.55201 0.32146 0.0
C1238 C 0.20225 0.54676 0.30906 0.0
C1239 C 0.22505 0.54169 0.28771 0.0
C1240 C 0.21644 0.552 0.32451 0.0
C1241 C 0.23883 0.54698 0.30355 0.0
C1242 C 0.15412 0.56938 0.25512 0.0
C1243 C 0.1236 0.57654 0.25139 0.0
N1244 N 0.13127 0.59492 0.25466 0.0
C1245 C 0.16169 0.58835 0.25843 0.0
C1246 C 0.13491 0.56342 0.25161 0.0
C1247 C 0.14992 0.60104 0.25816 0.0
C1248 C 0.21172 0.58605 0.24419 0.0
N1249 N 0.20782 0.57695 0.2597 0.0
C1250 C 0.22436 0.60254 0.2818 0.0
C1251 C 0.21384 0.58477 0.27821 0.0
C1252 C 0.22801 0.61258 0.26618 0.0
C1253 C 0.22194 0.6041 0.24711 0.0
H1254 H 0.20613 0.57965 0.22966 0.0
H1255 H 0.20974 0.57766 0.29026 0.0
C1256 C 0.14659 0.5171 0.2964 0.0
N1257 N 0.1526 0.53368 0.29008 0.0
C1258 C 0.137 0.51631 0.31258 0.0
C1259 C 0.14015 0.54966 0.3152 0.0
C1260 C 0.14963 0.54979 0.29903 0.0
C1261 C 0.13387 0.53279 0.32222 0.0
H1262 H 0.14943 0.50458 0.28898 0.0
H1263 H 0.15488 0.56276 0.29378 0.0
C1264 C 0.2037 0.54089 0.21845 0.0
N1265 N 0.23042 0.5449 0.19346 0.0
C1266 C 0.19857 0.54033 0.19852 0.0
C1267 C 0.22239 0.54349 0.22569 0.0
C1268 C 0.21229 0.54238 0.18612 0.0
C1269 C 0.2357 0.54548 0.21282 0.0
C1270 C 0.14509 0.50065 0.2445 0.0
C1271 C 0.14622 0.4826 0.23749 0.0
C1272 C 0.12793 0.50478 0.24776 0.0
C1273 C 0.13008 0.46895 0.23371 0.0
C1274 C 0.1121 0.49076 0.24376 0.0
N1275 N 0.11349 0.47329 0.23688 0.0
C1276 C 0.20706 0.49686 0.26397 0.0
C1277 C 0.20361 0.49487 0.22951 0.0
C1278 C 0.21717 0.48292 0.26351 0.0
N1279 N 0.20072 0.50257 0.24717 0.0
C1280 C 0.21349 0.4806 0.22833 0.0
C1281 C 0.22045 0.47467 0.24554 0.0
H1282 H 0.2041 0.50305 0.27771 0.0
H1283 H 0.19813 0.49972 0.21644 0.0
C1284 C 0.14535 0.55203 0.20673 0.0
N1285 N 0.14885 0.5358 0.21214 0.0
C1286 C 0.13343 0.55197 0.19004 0.0
C1287 C 0.13001 0.51859 0.18428 0.0
C1288 C 0.14179 0.51928 0.20124 0.0
C1289 C 0.12564 0.53508 0.17877 0.0
H1290 H 0.15188 0.56499 0.2153 0.0
H1291 H 0.14541 0.50672 0.20567 0.0
O1292 O 0.19291 0.53674 0.27518 0.0
O1293 O 0.16554 0.55682 0.2552 0.0
O1294 O 0.19039 0.53927 0.23074 0.0
O1295 O 0.16083 0.51404 0.24849 0.0
H1296 H 0.18808 0.5468 0.3115 0.0
H1297 H 0.22865 0.53762 0.2735 0.0
H1298 H 0.21326 0.55607 0.33893 0.0
H1299 H 0.25314 0.54709 0.3016 0.0
H1300 H 0.10872 0.57211 0.24858 0.0
H1301 H 0.17652 0.59325 0.2612 0.0
H1302 H 0.1288 0.54885 0.2488 0.0
H1303 H 0.1556 0.61575 0.26071 0.0
H1304 H 0.22893 0.60863 0.29669 0.0
H1305 H 0.22421 0.61159 0.23472 0.0
H1306 H 0.13244 0.50309 0.31773 0.0
H1307 H 0.13775 0.56262 0.32213 0.0
H1308 H 0.18413 0.53841 0.19271 0.0
H1309 H 0.22656 0.5441 0.24109 0.0
H1310 H 0.20854 0.54202 0.17066 0.0
H1311 H 0.25024 0.54755 0.21821 0.0
H1312 H 0.15944 0.47917 0.23503 0.0
H1313 H 0.12687 0.51857 0.25351 0.0
H1314 H 0.13074 0.45491 0.22829 0.0
H1315 H 0.09872 0.49376 0.24621 0.0
H1316 H 0.22192 0.47826 0.27702 0.0
H1317 H 0.21563 0.47427 0.21427 0.0
H1318 H 0.13053 0.56493 0.18581 0.0
H1319 H 0.12423 0.50538 0.17568 0.0
Li1320 Li 0.77639 0.89227 0.53414 0.0
Li1321 Li 0.79103 0.86959 0.55174 0.0
Li1322 Li 0.81107 0.89565 0.53586 0.0
Li1323 Li 0.78987 0.8677 0.51461 0.0
C1324 C 0.79536 0.91039 0.57249 0.0
N1325 N 0.79523 0.93712 0.60305 0.0
C1326 C 0.78747 0.90545 0.58907 0.0
C1327 C 0.80322 0.92889 0.57143 0.0
C1328 C 0.78754 0.91918 0.60438 0.0
C1329 C 0.80299 0.94221 0.58704 0.0
C1330 C 0.75362 0.85178 0.53145 0.0
C1331 C 0.73646 0.82041 0.52386 0.0
N1332 N 0.72205 0.82544 0.53224 0.0
C1333 C 0.73866 0.85668 0.53996 0.0
C1334 C 0.75254 0.83354 0.52328 0.0
C1335 C 0.72281 0.84314 0.54022 0.0
C1336 C 0.7455 0.90421 0.51585 0.0
N1337 N 0.75632 0.90575 0.53313 0.0
C1338 C 0.73868 0.92626 0.54773 0.0
C1339 C 0.75306 0.91642 0.54897 0.0
C1340 C 0.72734 0.92508 0.53004 0.0
C1341 C 0.73093 0.91378 0.51396 0.0
H1342 H 0.74822 0.89553 0.50348 0.0
H1343 H 0.76157 0.91739 0.56265 0.0
C1344 C 0.80413 0.86191 0.58971 0.0
N1345 N 0.78998 0.85649 0.57499 0.0
C1346 C 0.80333 0.85447 0.60745 0.0
C1347 C 0.77362 0.83559 0.59461 0.0
C1348 C 0.77496 0.84344 0.57716 0.0
C1349 C 0.78783 0.84119 0.61025 0.0
H1350 H 0.81591 0.87238 0.58784 0.0
H1351 H 0.76372 0.83931 0.56554 0.0
C1352 C 0.79069 0.90746 0.50038 0.0
N1353 N 0.78766 0.93346 0.4751 0.0
C1354 C 0.79112 0.90288 0.48052 0.0
C1355 C 0.78876 0.92526 0.50742 0.0
C1356 C 0.78959 0.91623 0.46797 0.0
C1357 C 0.7872 0.9382 0.49438 0.0
C1358 C 0.82227 0.85545 0.53367 0.0
C1359 C 0.84055 0.86034 0.52976 0.0
C1360 C 0.81503 0.83721 0.53641 0.0
C1361 C 0.85135 0.84679 0.52858 0.0
C1362 C 0.8263 0.82407 0.53514 0.0
N1363 N 0.84406 0.82909 0.53128 0.0
C1364 C 0.84842 0.91326 0.55168 0.0
C1365 C 0.83717 0.92394 0.52282 0.0
C1366 C 0.86564 0.92518 0.55213 0.0
N1367 N 0.83459 0.9128 0.53711 0.0
C1368 C 0.85401 0.93617 0.52284 0.0
C1369 C 0.86861 0.93689 0.53755 0.0
H1370 H 0.84616 0.90423 0.56285 0.0
H1371 H 0.82629 0.92321 0.51114 0.0
C1372 C 0.77168 0.85157 0.47691 0.0
N1373 N 0.78744 0.85282 0.48926 0.0
C1374 C 0.77013 0.84323 0.45765 0.0
C1375 C 0.80076 0.8369 0.4642 0.0
C1376 C 0.80182 0.84556 0.48326 0.0
C1377 C 0.78488 0.8359 0.45092 0.0
H1378 H 0.76049 0.85761 0.48184 0.0
H1379 H 0.8144 0.84698 0.49304 0.0
O1380 O 0.79558 0.89713 0.55746 0.0
O1381 O 0.76917 0.86483 0.5309 0.0
O1382 O 0.79253 0.89465 0.51288 0.0
O1383 O 0.8116 0.86858 0.53504 0.0
H1384 H 0.78125 0.89119 0.59007 0.0
H1385 H 0.8094 0.9329 0.55868 0.0
H1386 H 0.78146 0.91558 0.6173 0.0
H1387 H 0.809 0.9566 0.58644 0.0
H1388 H 0.73543 0.80622 0.51764 0.0
H1389 H 0.7393 0.87077 0.54631 0.0
H1390 H 0.76404 0.82959 0.51662 0.0
H1391 H 0.71111 0.84671 0.54675 0.0
H1392 H 0.73664 0.93488 0.5605 0.0
H1393 H 0.72241 0.91211 0.5001 0.0
H1394 H 0.81478 0.85911 0.61888 0.0
H1395 H 0.76127 0.82561 0.596 0.0
H1396 H 0.79282 0.88923 0.47488 0.0
H1397 H 0.78857 0.92906 0.52279 0.0
H1398 H 0.78999 0.9129 0.45257 0.0
H1399 H 0.78568 0.95203 0.4996 0.0
H1400 H 0.84631 0.87445 0.52763 0.0
H1401 H 0.8009 0.83327 0.53949 0.0
H1402 H 0.86552 0.85035 0.52554 0.0
H1403 H 0.82092 0.80988 0.53723 0.0
H1404 H 0.87647 0.9253 0.56382 0.0
H1405 H 0.85571 0.94465 0.51111 0.0
H1406 H 0.75755 0.84269 0.44805 0.0
H1407 H 0.81258 0.83169 0.45968 0.0
Li1408 Li 0.93859 0.01665 0.28197 0.0
Li1409 Li 0.91087 0.99588 0.26056 0.0
Li1410 Li 0.93671 0.01577 0.24484 0.0
Li1411 Li 0.91392 0.03033 0.26221 0.0
C1412 C 0.95077 0.98432 0.26205 0.0
N1413 N 0.97689 0.96219 0.26288 0.0
C1414 C 0.94584 0.96585 0.2654 0.0
C1415 C 0.96894 0.99156 0.25907 0.0
C1416 C 0.95927 0.95489 0.26579 0.0
C1417 C 0.98195 0.98013 0.25955 0.0
C1418 C 0.89774 0.01229 0.2951 0.0
C1419 C 0.86602 0.01217 0.30013 0.0
N1420 N 0.87 0.00926 0.31892 0.0
C1421 C 0.90153 0.00926 0.31442 0.0
C1422 C 0.87986 0.01373 0.28785 0.0
C1423 C 0.88731 0.00777 0.32624 0.0
C1424 C 0.95214 0.03298 0.32096 0.0
N1425 N 0.95337 0.01884 0.30739 0.0
C1426 C 0.97207 0.00652 0.33104 0.0
C1427 C 0.96322 0.00579 0.3121 0.0
C1428 C 0.97069 0.02069 0.34559 0.0
C1429 C 0.96064 0.03416 0.34011 0.0
H1430 H 0.94402 0.04307 0.31706 0.0
H1431 H 0.96395 0.99451 0.30131 0.0
C1432 C 0.88294 0.96389 0.24337 0.0
N1433 N 0.89397 0.97244 0.25981 0.0
C1434 C 0.87068 0.94701 0.24364 0.0
C1435 C 0.88177 0.94775 0.27753 0.0
C1436 C 0.89358 0.9647 0.27669 0.0
C1437 C 0.87006 0.93868 0.26088 0.0
H1438 H 0.88368 0.9701 0.23001 0.0
H1439 H 0.90254 0.97169 0.28954 0.0
C1440 C 0.95462 0.05299 0.26521 0.0
N1441 N 0.98123 0.08437 0.2645 0.0
C1442 C 0.94997 0.06793 0.25644 0.0
C1443 C 0.97274 0.05399 0.27368 0.0
C1444 C 0.96364 0.08369 0.25623 0.0
C1445 C 0.98601 0.06998 0.27313 0.0
C1446 C 0.89577 0.01239 0.22424 0.0
C1447 C 0.90074 0.0191 0.20707 0.0
C1448 C 0.87708 0.0066 0.2263 0.0
C1449 C 0.88688 0.0198 0.19217 0.0
C1450 C 0.86364 0.00751 0.21105 0.0
N1451 N 0.86878 0.01402 0.19444 0.0
C1452 C 0.94419 1.00292 0.20689 0.0
C1453 C 0.96347 0.03157 0.21992 0.0
C1454 C 0.95159 1.00378 0.18916 0.0
N1455 N 0.94998 0.01682 0.22181 0.0
C1456 C 0.97132 0.03294 0.20248 0.0
C1457 C 0.96524 0.01906 0.18661 0.0
H1458 H 0.93339 0.99135 0.20858 0.0
H1459 H 0.96794 0.04257 0.23173 0.0
C1460 C 0.89899 0.05908 0.28077 0.0
N1461 N 0.90038 0.0503 0.26306 0.0
C1462 C 0.88919 0.07349 0.28237 0.0
C1463 C 0.88247 0.06973 0.24745 0.0
C1464 C 0.89253 0.05551 0.24653 0.0
C1465 C 0.88062 0.07899 0.26557 0.0
H1466 H 0.90555 0.0549 0.29372 0.0
H1467 H 0.89407 0.04872 0.23255 0.0
O1468 O 0.93778 0.99517 0.26149 0.0
O1469 O 0.91164 0.01439 0.28355 0.0
O1470 O 0.94143 0.03755 0.26577 0.0
O1471 O 0.90917 0.01122 0.2388 0.0
H1472 H 0.9318 0.96007 0.26768 0.0
H1473 H 0.97291 0.00584 0.25643 0.0
H1474 H 0.95567 0.94057 0.26839 0.0
H1475 H 0.99608 0.98551 0.25727 0.0
H1476 H 0.85212 0.01335 0.29476 0.0
H1477 H 0.91532 0.00813 0.32024 0.0
H1478 H 0.87676 0.01624 0.27297 0.0
H1479 H 0.89005 0.00548 0.34125 0.0
H1480 H 0.97984 0.99594 0.3342 0.0
H1481 H 0.95878 0.04522 0.35064 0.0
H1482 H 0.86207 0.94036 0.23041 0.0
H1483 H 0.8817 0.94186 0.29114 0.0
H1484 H 0.93597 0.06736 0.24987 0.0
H1485 H 0.9765 0.04251 0.28055 0.0
H1486 H 0.96027 0.09538 0.2495 0.0
H1487 H 1.00012 0.07095 0.27958 0.0
H1488 H 0.91512 0.02381 0.2053 0.0
H1489 H 0.873 1.00135 0.23947 0.0
H1490 H 0.89053 0.02494 0.1788 0.0
H1491 H 0.84912 1.003 0.2124 0.0
H1492 H 0.94659 0.99258 0.17753 0.0
H1493 H 0.98165 0.04508 0.20128 0.0
H1494 H 0.88859 0.08041 0.29666 0.0
H1495 H 0.87606 0.07328 0.23407 0.0
Li1496 Li 0.26908 0.64143 0.56256 0.0
Li1497 Li 0.28482 0.61874 0.54745 0.0
Li1498 Li 0.27231 0.64136 0.52874 0.0
Li1499 Li 0.25211 0.61527 0.53989 0.0
C1500 C 0.3058 0.66105 0.55069 0.0
N1501 N 0.33358 0.69186 0.55168 0.0
C1502 C 0.32432 0.6593 0.55258 0.0
C1503 C 0.30139 0.67844 0.54925 0.0
C1504 C 0.33817 0.67506 0.55311 0.0
C1505 C 0.31563 0.69385 0.54974 0.0
C1506 C 0.26709 0.60245 0.57801 0.0
C1507 C 0.26419 0.57084 0.58483 0.0
N1508 N 0.26845 0.57691 0.60412 0.0
C1509 C 0.27142 0.6084 0.59789 0.0
C1510 C 0.26341 0.58354 0.57139 0.0
C1511 C 0.27206 0.59527 0.61087 0.0
C1512 C 0.2532 0.65753 0.59253 0.0
N1513 N 0.26926 0.656 0.58537 0.0
C1514 C 0.28707 0.67625 0.6119 0.0
C1515 C 0.28602 0.66466 0.59479 0.0
C1516 C 0.27067 0.67889 0.61917 0.0
C1517 C 0.25355 0.66924 0.60944 0.0
H1518 H 0.24015 0.64984 0.58499 0.0
H1519 H 0.29855 0.66249 0.58904 0.0
C1520 C 0.31149 0.60265 0.53386 0.0
N1521 N 0.30439 0.60694 0.5505 0.0
C1522 C 0.32762 0.59574 0.53461 0.0
C1523 C 0.3285 0.59732 0.56962 0.0
C1524 C 0.31234 0.6044 0.56819 0.0
C1525 C 0.33642 0.59338 0.55268 0.0
H1526 H 0.30493 0.60519 0.5201 0.0
H1527 H 0.30652 0.60844 0.58117 0.0
C1528 C 0.23679 0.65184 0.54528 0.0
N1529 N 0.21087 0.67332 0.55249 0.0
C1530 C 0.21802 0.64366 0.54373 0.0
C1531 C 0.24234 0.67097 0.55044 0.0
C1532 C 0.20514 0.65475 0.54741 0.0
C1533 C 0.22905 0.68157 0.55411 0.0
C1534 C 0.26517 0.60091 0.50628 0.0
C1535 C 0.26002 0.60533 0.48775 0.0
C1536 C 0.26426 0.5824 0.50928 0.0
C1537 C 0.25365 0.59105 0.47254 0.0
C1538 C 0.25781 0.56853 0.49369 0.0
N1539 N 0.25266 0.5731 0.47581 0.0
C1540 C 0.29009 0.65789 0.49891 0.0
C1541 C 0.26073 0.66444 0.50434 0.0
C1542 C 0.29063 0.66815 0.48314 0.0
N1543 N 0.27514 0.65613 0.50887 0.0
C1544 C 0.26079 0.67493 0.48903 0.0
C1545 C 0.2756 0.67644 0.47789 0.0
H1546 H 0.30128 0.65095 0.50289 0.0
H1547 H 0.24892 0.66253 0.51225 0.0
C1548 C 0.22178 0.59286 0.55037 0.0
N1549 N 0.23004 0.59838 0.53484 0.0
C1550 C 0.20441 0.58135 0.54753 0.0
C1551 C 0.20481 0.58105 0.5128 0.0
C1552 C 0.2219 0.59295 0.51634 0.0
C1553 C 0.19567 0.5755 0.52852 0.0
H1554 H 0.22834 0.59805 0.56493 0.0
H1555 H 0.22831 0.59833 0.50436 0.0
O1556 O 0.29214 0.64584 0.55082 0.0
O1557 O 0.26572 0.61512 0.56523 0.0
O1558 O 0.24947 0.64125 0.54081 0.0
O1559 O 0.27109 0.61469 0.52139 0.0
H1560 H 0.32796 0.64593 0.55384 0.0
H1561 H 0.28716 0.68002 0.54773 0.0
H1562 H 0.35258 0.67393 0.55471 0.0
H1563 H 0.31241 0.70739 0.54862 0.0
H1564 H 0.26132 0.55614 0.57993 0.0
H1565 H 0.27415 0.623 0.60325 0.0
H1566 H 0.25981 0.57873 0.55607 0.0
H1567 H 0.27535 0.59966 0.6263 0.0
H1568 H 0.30054 0.68303 0.61935 0.0
H1569 H 0.24061 0.67096 0.61462 0.0
H1570 H 0.33336 0.59258 0.52126 0.0
H1571 H 0.3351 0.59561 0.58372 0.0
H1572 H 0.21338 0.62894 0.53946 0.0
H1573 H 0.25674 0.67759 0.55164 0.0
H1574 H 0.19056 0.64861 0.54613 0.0
H1575 H 0.23319 0.69638 0.55817 0.0
H1576 H 0.2607 0.61961 0.48521 0.0
H1577 H 0.26838 0.5788 0.5235 0.0
H1578 H 0.24945 0.59423 0.45815 0.0
H1579 H 0.25688 0.55413 0.49581 0.0
H1580 H 0.30223 0.669 0.47475 0.0
H1581 H 0.24908 0.68138 0.48561 0.0
H1582 H 0.19758 0.57784 0.56007 0.0
H1583 H 0.19854 0.5768 0.49793 0.0
Li1584 Li 0.41069 0.4941 0.7601 0.0
Li1585 Li 0.43853 0.51534 0.78129 0.0
Li1586 Li 0.41403 0.52873 0.76153 0.0
Li1587 Li 0.43663 0.51409 0.74412 0.0
C1588 C 0.39826 0.5136 0.79499 0.0
N1589 N 0.37133 0.51496 0.81944 0.0
C1590 C 0.40261 0.51362 0.81497 0.0
C1591 C 0.38023 0.51421 0.78741 0.0
C1592 C 0.38879 0.5143 0.82709 0.0
C1593 C 0.36682 0.51495 0.80003 0.0
C1594 C 0.45087 0.48296 0.76184 0.0
C1595 C 0.48234 0.4793 0.76039 0.0
N1596 N 0.47733 0.46125 0.76336 0.0
C1597 C 0.44599 0.4644 0.76485 0.0
C1598 C 0.46914 0.49053 0.75957 0.0
C1599 C 0.4596 0.45365 0.7656 0.0
C1600 C 0.39004 0.45808 0.74295 0.0
N1601 N 0.39388 0.47046 0.75933 0.0
C1602 C 0.3746 0.44933 0.77627 0.0
C1603 C 0.38649 0.46631 0.77584 0.0
C1604 C 0.37045 0.43619 0.75966 0.0
C1605 C 0.3784 0.44075 0.74283 0.0
H1606 H 0.39615 0.46158 0.73002 0.0
H1607 H 0.39002 0.47606 0.78886 0.0
C1608 C 0.45454 0.53321 0.81922 0.0
N1609 N 0.45332 0.51764 0.80661 0.0
C1610 C 0.46298 0.53452 0.83842 0.0
C1611 C 0.46936 0.50398 0.83127 0.0
C1612 C 0.46063 0.50319 0.81229 0.0
C1613 C 0.47042 0.51968 0.84489 0.0
H1614 H 0.44835 0.54442 0.81456 0.0
H1615 H 0.45933 0.49079 0.80226 0.0
C1616 C 0.39579 0.51026 0.72351 0.0
N1617 N 0.36901 0.51163 0.69343 0.0
C1618 C 0.40079 0.51821 0.70697 0.0
C1619 C 0.37721 0.50292 0.72474 0.0
C1620 C 0.38704 0.51879 0.69192 0.0
C1621 C 0.36387 0.50378 0.70937 0.0
C1622 C 0.45429 0.5517 0.76458 0.0
C1623 C 0.44936 0.56646 0.75567 0.0
C1624 C 0.47236 0.55321 0.77346 0.0
C1625 C 0.46268 0.58255 0.75578 0.0
C1626 C 0.48529 0.56952 0.77321 0.0
N1627 N 0.48022 0.58374 0.76446 0.0
C1628 C 0.40054 0.5585 0.77996 0.0
C1629 C 0.3921 0.55366 0.74592 0.0
C1630 C 0.391 0.5731 0.78168 0.0
N1631 N 0.40075 0.54893 0.7623 0.0
C1632 C 0.38238 0.56816 0.74697 0.0
C1633 C 0.38158 0.57804 0.76506 0.0
H1634 H 0.40776 0.55474 0.79276 0.0
H1635 H 0.39268 0.54625 0.73197 0.0
C1636 C 0.44395 0.50154 0.70588 0.0
N1637 N 0.44983 0.5152 0.72102 0.0
C1638 C 0.45149 0.50257 0.68822 0.0
C1639 C 0.47138 0.53149 0.702 0.0
C1640 C 0.46344 0.52993 0.71937 0.0
C1641 C 0.46532 0.51781 0.68594 0.0
H1642 H 0.43305 0.48999 0.70736 0.0
H1643 H 0.46795 0.54076 0.73136 0.0
O1644 O 0.41161 0.51277 0.78294 0.0
O1645 O 0.43771 0.49362 0.76099 0.0
O1646 O 0.40909 0.50937 0.73827 0.0
O1647 O 0.44143 0.53594 0.76487 0.0
H1648 H 0.41647 0.51299 0.82103 0.0
H1649 H 0.37667 0.51417 0.77196 0.0
H1650 H 0.39194 0.51427 0.84258 0.0
H1651 H 0.35281 0.51549 0.79439 0.0
H1652 H 0.49656 0.48492 0.75865 0.0
H1653 H 0.43186 0.45839 0.76661 0.0
H1654 H 0.47307 0.50489 0.75721 0.0
H1655 H 0.45605 0.43925 0.76794 0.0
H1656 H 0.36907 0.44633 0.78966 0.0
H1657 H 0.37556 0.43106 0.72967 0.0
H1658 H 0.46306 0.54683 0.84821 0.0
H1659 H 0.47509 0.49226 0.8352 0.0
H1660 H 0.41511 0.52402 0.70584 0.0
H1661 H 0.37316 0.49661 0.7374 0.0
H1662 H 0.39069 0.52495 0.67906 0.0
H1663 H 0.34942 0.49818 0.71011 0.0
H1664 H 0.4354 0.56549 0.74876 0.0
H1665 H 0.47634 0.54188 0.78043 0.0
H1666 H 0.45908 0.59411 0.74896 0.0
H1667 H 0.49934 0.5709 0.78 0.0
H1668 H 0.39113 0.58051 0.79591 0.0
H1669 H 0.37527 0.57133 0.73376 0.0
H1670 H 0.44648 0.4915 0.67646 0.0
H1671 H 0.48181 0.54362 0.70103 0.0
Li1672 Li 0.66776 0.03679 0.76898 0.0
Li1673 Li 0.69335 0.05542 0.75524 0.0
Li1674 Li 0.66594 0.03732 0.73433 0.0
Li1675 Li 0.68936 0.0224 0.74984 0.0
C1676 C 0.65594 0.07059 0.7545 0.0
N1677 N 0.6327 0.09574 0.75376 0.0
C1678 C 0.66325 0.08958 0.7584 0.0
C1679 C 0.6368 0.06439 0.75026 0.0
C1680 C 0.65127 0.10208 0.75797 0.0
C1681 C 0.62529 0.07733 0.74992 0.0
C1682 C 0.70807 0.04435 0.79058 0.0
C1683 C 0.73985 0.04958 0.80503 0.0
N1684 N 0.73498 0.05719 0.82184 0.0
C1685 C 0.70335 0.05213 0.80803 0.0
C1686 C 0.72644 0.04297 0.78906 0.0
C1687 C 0.71717 0.05858 0.82365 0.0
C1688 C 0.64791 0.01877 0.79597 0.0
N1689 N 0.65388 0.03535 0.78961 0.0
C1690 C 0.64076 0.05122 0.81427 0.0
C1691 C 0.65041 0.05139 0.79822 0.0
C1692 C 0.63478 0.03438 0.82147 0.0
C1693 C 0.6381 0.01793 0.812 0.0
H1694 H 0.65108 0.0063 0.7888 0.0
H1695 H 0.65557 0.06436 0.79294 0.0
C1696 C 0.70944 0.08626 0.7409 0.0
N1697 N 0.71006 0.07771 0.75725 0.0
C1698 C 0.71915 0.10427 0.74127 0.0
C1699 C 0.73075 0.10384 0.77494 0.0
C1700 C 0.7206 0.08597 0.77402 0.0
C1701 C 0.72958 0.11318 0.75858 0.0
H1702 H 0.70054 0.07942 0.72795 0.0
H1703 H 0.72039 0.07928 0.78699 0.0
C1704 C 0.64664 1.00181 0.74509 0.0
N1705 N 0.61529 0.97411 0.73839 0.0
C1706 C 0.64798 0.98363 0.73886 0.0
C1707 C 0.6294 0.0059 0.74802 0.0
C1708 C 0.63196 0.96982 0.73554 0.0
C1709 C 0.6137 0.99171 0.74451 0.0
C1710 C 0.70521 0.04062 0.71831 0.0
C1711 C 0.70016 0.03866 0.69825 0.0
C1712 C 0.72388 0.04373 0.72579 0.0
C1713 C 0.71395 0.03984 0.68591 0.0
C1714 C 0.73726 0.04483 0.71297 0.0
N1715 N 0.73206 0.04288 0.69347 0.0
C1716 C 0.64773 0.05312 0.70607 0.0
C1717 C 0.64231 0.02022 0.70171 0.0
C1718 C 0.63555 0.05316 0.6896 0.0
N1719 N 0.65041 0.0368 0.71196 0.0
C1720 C 0.6302 0.0196 0.68502 0.0
C1721 C 0.6266 0.03622 0.67906 0.0
H1722 H 0.655 0.06607 0.7142 0.0
H1723 H 0.64528 0.00754 0.70648 0.0
C1724 C 0.70882 0.99801 0.76392 0.0
N1725 N 0.70186 1.00336 0.74718 0.0
C1726 C 0.71882 0.98399 0.76328 0.0
C1727 C 0.71381 0.98093 0.72809 0.0
C1728 C 0.70404 0.99525 0.72943 0.0
C1729 C 0.72138 0.97531 0.74521 0.0
H1730 H 0.70644 0.00456 0.77774 0.0
H1731 H 0.69808 0.99983 0.71642 0.0
O1732 O 0.66756 0.05823 0.75466 0.0
O1733 O 0.69472 0.03795 0.77515 0.0
O1734 O 0.66227 0.01538 0.74858 0.0
O1735 O 0.69183 0.03981 0.73049 0.0
H1736 H 0.67802 0.09463 0.76177 0.0
H1737 H 0.63092 0.0498 0.74697 0.0
H1738 H 0.65675 0.11681 0.76096 0.0
H1739 H 0.61046 0.07272 0.74655 0.0
H1740 H 0.75414 0.04867 0.80405 0.0
H1741 H 0.68921 0.05328 0.80947 0.0
H1742 H 0.73031 0.03697 0.77566 0.0
H1743 H 0.71374 0.06472 0.83722 0.0
H1744 H 0.63826 0.06414 0.82118 0.0
H1745 H 0.63375 0.00476 0.81732 0.0
H1746 H 0.71774 0.11149 0.7286 0.0
H1747 H 0.73838 0.11075 0.78861 0.0
H1748 H 0.66127 0.98023 0.73664 0.0
H1749 H 0.62817 0.01981 0.75316 0.0
H1750 H 0.63278 0.95568 0.73071 0.0
H1751 H 0.60026 0.99468 0.74672 0.0
H1752 H 0.68573 0.03632 0.69228 0.0
H1753 H 0.72797 0.04537 0.74131 0.0
H1754 H 0.71025 0.03837 0.67034 0.0
H1755 H 0.75179 0.04727 0.71852 0.0
H1756 H 0.63328 0.0662 0.68503 0.0
H1757 H 0.62352 0.00632 0.67703 0.0
H1758 H 0.72403 0.97959 0.77677 0.0
H1759 H 0.71539 0.97428 0.71397 0.0
Li1760 Li 0.76966 0.68484 0.03107 0.0
Li1761 Li 0.7819 0.65971 0.01181 0.0
Li1762 Li 0.76729 0.68308 0.99417 0.0
Li1763 Li 0.74745 0.65757 0.00943 0.0
C1764 C 0.80458 0.70163 0.01714 0.0
N1765 N 0.8346 0.73079 0.02319 0.0
C1766 C 0.82219 0.69864 0.02333 0.0
C1767 C 0.8022 0.71941 0.01398 0.0
C1768 C 0.8372 0.71357 0.02632 0.0
C1769 C 0.81757 0.73399 0.01714 0.0
C1770 C 0.7676 0.64505 0.04517 0.0
C1771 C 0.76345 0.61344 0.05222 0.0
N1772 N 0.77178 0.61945 0.07064 0.0
C1773 C 0.77604 0.65095 0.06418 0.0
C1774 C 0.76118 0.62617 0.03913 0.0
C1775 C 0.77806 0.63778 0.07683 0.0
C1776 C 0.75633 0.69773 0.06528 0.0
N1777 N 0.77196 0.69949 0.05635 0.0
C1778 C 0.78934 0.71828 0.08475 0.0
C1779 C 0.78831 0.70959 0.06567 0.0
C1780 C 0.77344 0.71649 0.09452 0.0
C1781 C 0.75675 0.70609 0.08431 0.0
H1782 H 0.74356 0.68936 0.05775 0.0
H1783 H 0.80067 0.71063 0.05849 0.0
C1784 C 0.80641 0.63756 0.99603 0.0
N1785 N 0.8016 0.64589 0.01255 0.0
C1786 C 0.82124 0.62821 0.99692 0.0
C1787 C 0.82599 0.63631 0.03171 0.0
C1788 C 0.81108 0.6454 0.03017 0.0
C1789 C 0.83139 0.62765 0.01494 0.0
H1790 H 0.79898 0.63845 0.98211 0.0
H1791 H 0.80731 0.65241 0.04305 0.0
C1792 C 0.73672 0.69744 0.00905 0.0
N1793 N 0.71457 0.72302 0.00348 0.0
C1794 C 0.71847 0.69161 1.00027 0.0
C1795 C 0.74371 0.71623 0.0151 0.0
C1796 C 0.70749 0.70478 0.99756 0.0
C1797 C 0.73229 0.72896 0.01211 0.0
C1798 C 0.75953 0.64153 0.9732 0.0
C1799 C 0.75627 0.64543 0.9541 0.0
C1800 C 0.75935 0.62329 0.97684 0.0
C1801 C 0.75292 0.63097 0.9389 0.0
C1802 C 0.75597 0.60921 0.96124 0.0
N1803 N 0.75286 0.61331 0.94275 0.0
C1804 C 0.78482 0.6977 0.96286 0.0
C1805 C 0.75458 0.70351 0.96336 0.0
C1806 C 0.7866 0.70583 0.94562 0.0
N1807 N 0.76896 0.69656 0.97137 0.0
C1808 C 0.75583 0.71192 0.94621 0.0
C1809 C 0.77194 0.71305 0.93683 0.0
H1810 H 0.79602 0.69188 0.96927 0.0
H1811 H 0.74197 0.70233 0.97007 0.0
C1812 C 0.71758 0.63905 0.02633 0.0
N1813 N 0.72369 0.64122 0.0088 0.0
C1814 C 0.70049 0.62769 0.02759 0.0
C1815 C 0.69601 0.62102 0.99266 0.0
C1816 C 0.71332 0.63245 0.99208 0.0
C1817 C 0.68926 0.61849 0.01062 0.0
H1818 H 0.72604 0.64619 0.03943 0.0
H1819 H 0.71838 0.63445 0.97827 0.0
O1820 O 0.78984 0.68709 0.01377 0.0
O1821 O 0.76532 0.65777 0.03269 0.0
O1822 O 0.74758 0.68473 0.01196 0.0
O1823 O 0.76337 0.65562 0.98815 0.0
H1824 H 0.82426 0.68491 0.02572 0.0
H1825 H 0.78866 0.72189 0.00903 0.0
H1826 H 0.85093 0.71146 0.03108 0.0
H1827 H 0.81597 0.74784 0.01474 0.0
H1828 H 0.75855 0.59877 0.04775 0.0
H1829 H 0.78102 0.66554 0.06909 0.0
H1830 H 0.75442 0.62142 0.02453 0.0
H1831 H 0.7846 0.64213 0.09158 0.0
H1832 H 0.80252 0.72626 0.09176 0.0
H1833 H 0.74416 0.70388 0.09112 0.0
H1834 H 0.82506 0.62198 0.98359 0.0
H1835 H 0.83328 0.63614 0.04594 0.0
H1836 H 0.71287 0.67707 0.99559 0.0
H1837 H 0.75778 0.72089 0.02206 0.0
H1838 H 0.69333 0.70049 0.99076 0.0
H1839 H 0.73749 0.74357 0.01669 0.0
H1840 H 0.75641 0.6595 0.95105 0.0
H1841 H 0.76203 0.62008 0.99153 0.0
H1842 H 0.75043 0.6338 0.92404 0.0
H1843 H 0.75589 0.59504 0.96382 0.0
H1844 H 0.79921 0.70593 0.93902 0.0
H1845 H 0.74419 0.71746 0.94043 0.0
H1846 H 0.69627 0.62603 0.04183 0.0
H1847 H 0.6879 0.61453 0.97911 0.0
Li1848 Li 0.86523 0.49709 0.78975 0.0
Li1849 Li 0.89174 0.51413 0.81206 0.0
Li1850 Li 0.86788 0.52938 0.79775 0.0
Li1851 Li 0.8903 0.51784 0.7779 0.0
C1852 C 0.85335 0.51077 0.8289 0.0
N1853 N 0.8285 0.51027 0.85592 0.0
C1854 C 0.85924 0.51013 0.84846 0.0
C1855 C 0.83486 0.5112 0.82307 0.0
C1856 C 0.84645 0.50984 0.8619 0.0
C1857 C 0.82251 0.51098 0.83696 0.0
C1858 C 0.9031 0.48336 0.79319 0.0
C1859 C 0.9339 0.47686 0.7962 0.0
N1860 N 0.92689 0.45945 0.80002 0.0
C1861 C 0.89617 0.46535 0.79702 0.0
C1862 C 0.92209 0.48913 0.79264 0.0
C1863 C 0.90844 0.45349 0.80048 0.0
C1864 C 0.84743 0.46555 0.76593 0.0
N1865 N 0.84908 0.47458 0.78413 0.0
C1866 C 0.83065 0.44877 0.79516 0.0
C1867 C 0.84086 0.46676 0.79865 0.0
C1868 C 0.82908 0.43899 0.77658 0.0
C1869 C 0.83714 0.44765 0.76171 0.0
H1870 H 0.8548 0.47193 0.75497 0.0
H1871 H 0.84298 0.47409 0.81313 0.0
C1872 C 0.91284 0.53234 0.84457 0.0
N1873 N 0.9076 0.51517 0.8345 0.0
C1874 C 0.92562 0.53532 0.86107 0.0
C1875 C 0.92679 0.50268 0.85687 0.0
C1876 C 0.91382 0.50031 0.84052 0.0
C1877 C 0.93287 0.5204 0.86713 0.0
H1878 H 0.90721 0.54375 0.83962 0.0
H1879 H 0.90881 0.48669 0.83269 0.0
C1880 C 0.84994 0.50864 0.75629 0.0
N1881 N 0.8227 0.49489 0.72553 0.0
C1882 C 0.85468 0.50557 0.7375 0.0
C1883 C 0.83135 0.5048 0.75942 0.0
C1884 C 0.8407 0.4986 0.72214 0.0
C1885 C 0.81778 0.4978 0.74369 0.0
C1886 C 0.91026 0.55086 0.80004 0.0
C1887 C 0.9082 0.56879 0.79709 0.0
C1888 C 0.92796 0.54685 0.80279 0.0
C1889 C 0.92395 0.58242 0.79676 0.0
C1890 C 0.94337 0.56086 0.80236 0.0
N1891 N 0.94106 0.5782 0.79938 0.0
C1892 C 0.85636 0.55823 0.8194 0.0
C1893 C 0.84475 0.55159 0.7859 0.0
C1894 C 0.84743 0.57319 0.82135 0.0
N1895 N 0.85495 0.54804 0.80181 0.0
C1896 C 0.8355 0.56616 0.7872 0.0
C1897 C 0.83699 0.5773 0.80501 0.0
H1898 H 0.86481 0.55503 0.8317 0.0
H1899 H 0.84432 0.54351 0.77204 0.0
C1900 C 0.9088 0.50501 0.74925 0.0
N1901 N 0.90485 0.52088 0.75771 0.0
C1902 C 0.92064 0.50565 0.73503 0.0
C1903 C 0.92347 0.53895 0.73784 0.0
C1904 C 0.91158 0.53766 0.75215 0.0
C1905 C 0.9283 0.5228 0.72936 0.0
H1906 H 0.90281 0.49184 0.75364 0.0
H1907 H 0.90785 0.54999 0.75888 0.0
O1908 O 0.86557 0.51021 0.81551 0.0
O1909 O 0.89128 0.49511 0.78964 0.0
O1910 O 0.86342 0.51602 0.77137 0.0
O1911 O 0.89496 0.53744 0.80056 0.0
H1912 H 0.87348 0.5096 0.85318 0.0
H1913 H 0.83008 0.51163 0.80799 0.0
H1914 H 0.85077 0.50921 0.87707 0.0
H1915 H 0.80814 0.51129 0.83266 0.0
H1916 H 0.94863 0.48117 0.79588 0.0
H1917 H 0.8815 0.46061 0.7974 0.0
H1918 H 0.92765 0.50292 0.78944 0.0
H1919 H 0.90329 0.43954 0.80353 0.0
H1920 H 0.82471 0.44231 0.80697 0.0
H1921 H 0.83652 0.44026 0.74737 0.0
H1922 H 0.93002 0.54914 0.86882 0.0
H1923 H 0.93189 0.49084 0.86156 0.0
H1924 H 0.86899 0.50864 0.7348 0.0
H1925 H 0.82744 0.50723 0.77383 0.0
H1926 H 0.84416 0.4962 0.70752 0.0
H1927 H 0.80334 0.49474 0.74591 0.0
H1928 H 0.89456 0.5721 0.79505 0.0
H1929 H 0.92978 0.53311 0.80534 0.0
H1930 H 0.92258 0.59635 0.79445 0.0
H1931 H 0.95716 0.55796 0.80446 0.0
H1932 H 0.849 0.58168 0.83523 0.0
H1933 H 0.82806 0.56927 0.77413 0.0
H1934 H 0.92361 0.49284 0.72837 0.0
H1935 H 0.92899 0.55238 0.73362 0.0
Li1936 Li 0.78825 0.41431 0.51945 0.0
Li1937 Li 0.77428 0.43561 0.49998 0.0
Li1938 Li 0.79127 0.41317 0.48518 0.0
Li1939 Li 0.80701 0.44022 0.50724 0.0
C1940 C 0.75522 0.39292 0.49826 0.0
N1941 N 0.72863 0.36176 0.49995 0.0
C1942 C 0.73765 0.39471 0.50279 0.0
C1943 C 0.75924 0.37532 0.49441 0.0
C1944 C 0.7244 0.37877 0.50364 0.0
C1945 C 0.74561 0.35972 0.49538 0.0
C1946 C 0.79728 0.45482 0.54002 0.0
C1947 C 0.80737 0.48737 0.55123 0.0
N1948 N 0.81498 0.48307 0.56835 0.0
C1949 C 0.80516 0.45071 0.55772 0.0
C1950 C 0.7983 0.47327 0.53674 0.0
C1951 C 0.81406 0.4652 0.57186 0.0
C1952 C 0.80232 0.39638 0.54815 0.0
N1953 N 0.78623 0.40019 0.54009 0.0
C1954 C 0.7691 0.38285 0.56167 0.0
C1955 C 0.76982 0.39408 0.54673 0.0
C1956 C 0.78545 0.37806 0.56965 0.0
C1957 C 0.80225 0.3852 0.56296 0.0
H1958 H 0.81523 0.402 0.543 0.0
H1959 H 0.75733 0.39781 0.54038 0.0
C1960 C 0.74648 0.45022 0.47951 0.0
N1961 N 0.75487 0.44768 0.497 0.0
C1962 C 0.73296 0.46103 0.47876 0.0
C1963 C 0.73687 0.46562 0.51397 0.0
C1964 C 0.75021 0.45484 0.51402 0.0
C1965 C 0.72827 0.46903 0.4962 0.0
H1966 H 0.75052 0.44414 0.46625 0.0
H1967 H 0.75697 0.45222 0.52764 0.0
C1968 C 0.82271 0.40294 0.50366 0.0
N1969 N 0.84655 0.37916 0.49653 0.0
C1970 C 0.84069 0.4099 0.49984 0.0
C1971 C 0.8169 0.38391 0.50401 0.0
C1972 C 0.85253 0.39765 0.49625 0.0
C1973 C 0.82914 0.37211 0.5003 0.0
C1974 C 0.79277 0.45034 0.46727 0.0
C1975 C 0.79727 0.44416 0.44909 0.0
C1976 C 0.7882 0.4678 0.4704 0.0
C1977 C 0.79716 0.45558 0.43432 0.0
C1978 C 0.78822 0.47879 0.45524 0.0
N1979 N 0.79266 0.47251 0.43767 0.0
C1980 C 0.77359 0.39224 0.45233 0.0
C1981 C 0.80572 0.39181 0.45643 0.0
C1982 C 0.77089 0.37975 0.4356 0.0
N1983 N 0.79069 0.39764 0.46251 0.0
C1984 C 0.80361 0.37907 0.43991 0.0
C1985 C 0.78598 0.37285 0.42951 0.0
H1986 H 0.76203 0.3975 0.45739 0.0
H1987 H 0.81927 0.39693 0.46434 0.0
C1988 C 0.84109 0.45556 0.52748 0.0
N1989 N 0.82855 0.45801 0.5129 0.0
C1990 C 0.85835 0.46729 0.53103 0.0
C1991 C 0.84891 0.48432 0.50513 0.0
C1992 C 0.83186 0.47227 0.50211 0.0
C1993 C 0.86253 0.4815 0.51934 0.0
H1994 H 0.83791 0.444 0.53574 0.0
H1995 H 0.8216 0.47394 0.49075 0.0
O1996 O 0.7682 0.40839 0.49706 0.0
O1997 O 0.78836 0.44083 0.52607 0.0
O1998 O 0.81098 0.41475 0.50729 0.0
O1999 O 0.79286 0.43929 0.48187 0.0
H2000 H 0.73431 0.40827 0.50566 0.0
H2001 H 0.77267 0.37371 0.49055 0.0
H2002 H 0.71076 0.37993 0.50719 0.0
H2003 H 0.74851 0.346 0.49243 0.0
H2004 H 0.80834 0.50172 0.54888 0.0
H2005 H 0.8044 0.43649 0.56051 0.0
H2006 H 0.79223 0.47664 0.5231 0.0
H2007 H 0.82022 0.46224 0.58564 0.0
H2008 H 0.75593 0.37768 0.56663 0.0
H2009 H 0.8152 0.3822 0.56917 0.0
H2010 H 0.72637 0.4632 0.46483 0.0
H2011 H 0.73311 0.47096 0.52773 0.0
H2012 H 0.84541 0.4246 0.49951 0.0
H2013 H 0.80311 0.37832 0.50715 0.0
H2014 H 0.86646 0.40283 0.49321 0.0
H2015 H 0.82481 0.35734 0.50045 0.0
H2016 H 0.80092 0.43073 0.44644 0.0
H2017 H 0.78483 0.47286 0.48444 0.0
H2018 H 0.80066 0.45098 0.42019 0.0
H2019 H 0.78473 0.49233 0.45746 0.0
H2020 H 0.75713 0.37522 0.42775 0.0
H2021 H 0.81556 0.37421 0.43523 0.0
H2022 H 0.86863 0.46457 0.54197 0.0
H2023 H 0.85167 0.49525 0.49597 0.0
Li2024 Li 0.62381 0.53823 0.30202 0.0
Li2025 Li 0.64922 0.55831 0.2869 0.0
Li2026 Li 0.6218 0.53647 0.26516 0.0
Li2027 Li 0.64693 0.52371 0.28396 0.0
C2028 C 0.60946 0.56922 0.28761 0.0
N2029 N 0.58404 0.59154 0.29321 0.0
C2030 C 0.61532 0.58732 0.29685 0.0
C2031 C 0.59072 0.56247 0.28112 0.0
C2032 C 0.60224 0.59839 0.29956 0.0
C2033 C 0.57806 0.57397 0.28414 0.0
C2034 C 0.66506 0.54554 0.323 0.0
C2035 C 0.69676 0.54682 0.33592 0.0
N2036 N 0.69268 0.55195 0.35401 0.0
C2037 C 0.66117 0.55085 0.34169 0.0
C2038 C 0.68298 0.5435 0.32004 0.0
C2039 C 0.67532 0.55402 0.35719 0.0
C2040 C 0.61202 0.52115 0.33458 0.0
N2041 N 0.61067 0.53605 0.32496 0.0
C2042 C 0.59356 0.54763 0.34933 0.0
C2043 C 0.60156 0.54916 0.33198 0.0
C2044 C 0.59506 0.53258 0.3599 0.0
C2045 C 0.60437 0.51916 0.35206 0.0
H2046 H 0.61948 0.51097 0.3289 0.0
H2047 H 0.60069 0.561 0.32434 0.0
C2048 C 0.66208 0.59179 0.27252 0.0
N2049 N 0.66555 0.58219 0.28767 0.0
C2050 C 0.67312 0.60908 0.27127 0.0
C2051 C 0.69136 0.60637 0.30115 0.0
C2052 C 0.67985 0.58914 0.3019 0.0
C2053 C 0.68804 0.61665 0.28569 0.0
H2054 H 0.65071 0.58594 0.26132 0.0
H2055 H 0.68238 0.58139 0.31387 0.0
C2056 C 0.60508 0.50121 0.27905 0.0
N2057 N 0.57602 0.47111 0.27379 0.0
C2058 C 0.60808 0.48352 0.27316 0.0
C2059 C 0.58735 0.50363 0.28231 0.0
C2060 C 0.59319 0.46847 0.27056 0.0
C2061 C 0.57282 0.48822 0.27955 0.0
C2062 C 0.66189 0.53954 0.2511 0.0
C2063 C 0.6565 0.53238 0.23161 0.0
C2064 C 0.68065 0.54564 0.25791 0.0
C2065 C 0.67006 0.53131 0.21923 0.0
C2066 C 0.69379 0.54436 0.24506 0.0
N2067 N 0.68826 0.53727 0.22616 0.0
C2068 C 0.6072 0.55033 0.23189 0.0
C2069 C 0.59857 0.51772 0.2299 0.0
C2070 C 0.59895 0.54999 0.21282 0.0
N2071 N 0.60705 0.53435 0.24 0.0
C2072 C 0.59002 0.51675 0.21077 0.0
C2073 C 0.59039 0.53302 0.2018 0.0
H2074 H 0.61421 0.56337 0.24009 0.0
H2075 H 0.5989 0.50513 0.23644 0.0
C2076 C 0.6665 0.49749 0.29978 0.0
N2077 N 0.66048 0.50385 0.28311 0.0
C2078 C 0.67567 0.48253 0.29907 0.0
C2079 C 0.67218 0.48088 0.2641 0.0
C2080 C 0.66312 0.49582 0.26548 0.0
C2081 C 0.67849 0.47388 0.28102 0.0
H2082 H 0.66393 0.50383 0.31363 0.0
H2083 H 0.65789 0.50079 0.25241 0.0
O2084 O 0.6221 0.5583 0.28466 0.0
O2085 O 0.65125 0.5419 0.30778 0.0
O2086 O 0.61958 0.51598 0.28205 0.0
O2087 O 0.6488 0.54066 0.26338 0.0
H2088 H 0.62982 0.59273 0.30186 0.0
H2089 H 0.58603 0.54852 0.27382 0.0
H2090 H 0.60655 0.61242 0.3067 0.0
H2091 H 0.5635 0.56895 0.27923 0.0
H2092 H 0.71069 0.54527 0.33387 0.0
H2093 H 0.64735 0.55244 0.34422 0.0
H2094 H 0.68618 0.53932 0.30565 0.0
H2095 H 0.6725 0.55809 0.37176 0.0
H2096 H 0.58629 0.55823 0.35436 0.0
H2097 H 0.60627 0.50743 0.35958 0.0
H2098 H 0.67013 0.61633 0.25896 0.0
H2099 H 0.70256 0.61171 0.3127 0.0
H2100 H 0.62178 0.48144 0.27068 0.0
H2101 H 0.58488 0.51723 0.28703 0.0
H2102 H 0.5953 0.4547 0.26602 0.0
H2103 H 0.55901 0.48985 0.28205 0.0
H2104 H 0.64201 0.52763 0.22614 0.0
H2105 H 0.685 0.55132 0.27293 0.0
H2106 H 0.66611 0.52575 0.20413 0.0
H2107 H 0.70837 0.54901 0.2501 0.0
H2108 H 0.59942 0.56292 0.20671 0.0
H2109 H 0.5838 0.50333 0.20286 0.0
H2110 H 0.68002 0.47747 0.31248 0.0
H2111 H 0.67416 0.47483 0.24987 0.0
C2112 C 0.99586 0.97182 0.9936 0.0
C2113 C 0.98315 0.95458 0.01871 0.0
C2114 C 0.99083 0.97155 0.01237 0.0
C2115 C 0.98052 0.93805 0.00608 0.0
C2116 C 0.99314 0.95521 0.9809 0.0
C2117 C 0.98543 0.93838 0.98723 0.0
N2118 N 1.00356 0.98828 0.98785 0.0
C2119 C 0.00818 0.98913 0.96945 0.0
C2120 C 0.99817 0.95599 0.96214 0.0
C2121 C 0.00567 0.97303 0.95639 0.0
Gd2122 Gd 0.05422 0.03781 0.03625 0.0
Gd2123 Gd 1.00457 0.01445 0.0101 0.0
N2124 N 0.99342 0.98779 0.02436 0.0
C2125 C 0.97811 0.95472 0.03752 0.0
C2126 C 0.98754 0.98802 0.04228 0.0
C2127 C 0.98019 0.97153 0.04929 0.0
H2128 H 0.98773 1.00084 0.05096 0.0
H2129 H 0.97573 0.97183 0.06361 0.0
H2130 H 0.07159 0.05323 0.9971 0.0
H2131 H 0.01306 1.00226 0.96449 0.0
H2132 H 0.0883 0.0822 0.98752 0.0
H2133 H 0.97219 0.94197 0.04291 0.0
H2134 H 0.97457 0.92493 0.01071 0.0
H2135 H 0.04903 0.04722 0.08376 0.0
H2136 H 0.99615 0.94354 0.95193 0.0
H2137 H 0.00925 0.97382 0.94178 0.0
H2138 H 0.09584 0.12572 0.04491 0.0
H2139 H 0.98318 0.9255 0.97764 0.0
H2140 H 0.07144 0.10451 0.10147 0.0
H2141 H 0.05563 0.07401 0.10889 0.0
N2142 N 0.05898 0.06254 0.06144 0.0
C2143 C 0.0683 0.07907 0.05726 0.0
C2144 C 0.05485 0.06056 0.07986 0.0
C2145 C 0.06803 0.09286 0.09013 0.0
C2146 C 0.05902 0.0757 0.09435 0.0
C2147 C 0.07302 0.09467 0.0715 0.0
H2148 H 0.08661 0.12357 0.07763 0.0
N2149 N 0.06858 0.06516 0.02524 0.0
C2150 C 0.07359 0.08031 0.03879 0.0
C2151 C 0.0887 0.09783 0.01538 0.0
C2152 C 0.08363 0.09713 0.03413 0.0
C2153 C 0.07421 0.06557 0.00723 0.0
C2154 C 0.08405 0.08194 0.00191 0.0
O2155 O 0.02593 0.99581 0.01568 0.0
O2156 O 0.04266 0.00913 0.04451 0.0
O2157 O 0.07861 0.02877 0.02765 0.0
O2158 O 0.07815 0.04013 0.05755 0.0
O2159 O 0.00545 0.02936 0.04063 0.0
O2160 O 0.03359 0.0266 0.05591 0.0
O2161 O 0.03855 0.05949 0.0251 0.0
O2162 O 0.00979 0.04569 0.00838 0.0
O2163 O 0.97567 0.01386 0.01314 0.0
O2164 O 0.98468 0.01214 0.98458 0.0
O2165 O 0.05129 0.0236 0.0052 0.0
O2166 O 0.02381 0.02848 0.99074 0.0
C2167 C 0.03524 0.99415 0.03239 0.0
C2168 C 0.01649 0.02884 0.05655 0.0
C2169 C 0.0966 0.01783 0.05185 0.0
C2170 C 0.12078 1.00046 0.04703 0.0
C2171 C 0.10318 0.99636 0.07441 0.0
C2172 C 0.09293 0.00934 0.06855 0.0
C2173 C 0.11715 0.99196 0.06377 0.0
C2174 C 0.11019 0.0131 0.04109 0.0
C2175 C 0.08719 0.03217 0.04529 0.0
C2176 C 0.08818 0.11269 0.04824 0.0
C2177 C 0.08287 0.11147 0.06685 0.0
H2178 H 0.09639 0.11048 0.01124 0.0
C2179 C 0.02274 0.06051 0.01497 0.0
C2180 C 0.04098 0.02674 0.98985 0.0
C2181 C 0.96108 0.02887 0.98949 0.0
C2182 C 0.93912 0.04821 0.99758 0.0
C2183 C 0.95335 0.05079 0.96784 0.0
C2184 C 0.96308 0.03701 0.97224 0.0
C2185 C 0.9414 0.05641 0.98042 0.0
C2186 C 0.94912 0.0346 0.00205 0.0
C2187 C 0.97128 0.01443 0.99465 0.0
H2188 H 0.10045 0.98986 0.08733 0.0
H2189 H 0.08231 0.01276 0.07705 0.0
H2190 H 0.12523 0.98222 0.06878 0.0
H2191 H 0.11254 0.01945 0.02795 0.0
H2192 H 0.95492 0.05699 0.95454 0.0
H2193 H 0.97217 0.03279 0.96217 0.0
H2194 H 0.93361 0.06678 0.9765 0.0
H2195 H 0.94756 0.02842 0.01539 0.0
C2196 C 0.30577 0.73982 0.22728 0.0
C2197 C 0.27917 0.72231 0.20574 0.0
C2198 C 0.28748 0.7379 0.21924 0.0
C2199 C 0.28941 0.7088 0.2006 0.0
C2200 C 0.31607 0.72624 0.22219 0.0
C2201 C 0.30782 0.71077 0.20877 0.0
N2202 N 0.31325 0.75463 0.24067 0.0
C2203 C 0.33101 0.75685 0.24934 0.0
C2204 C 0.33433 0.72849 0.23096 0.0
C2205 C 0.34182 0.74387 0.24458 0.0
Gd2206 Gd 0.26483 0.77755 0.29678 0.0
Gd2207 Gd 0.29444 0.77591 0.24803 0.0
N2208 N 0.27781 0.75111 0.2248 0.0
C2209 C 0.26082 0.72074 0.19773 0.0
C2210 C 0.26016 0.74996 0.21611 0.0
C2211 C 0.25135 0.73472 0.2028 0.0
H2212 H 0.25266 0.76076 0.21871 0.0
H2213 H 0.2373 0.73391 0.19625 0.0
H2214 H 0.30701 0.79434 0.32484 0.0
H2215 H 0.33691 0.76874 0.25985 0.0
H2216 H 0.32155 0.82106 0.34788 0.0
H2217 H 0.25394 0.70897 0.18736 0.0
H2218 H 0.28321 0.69676 0.19029 0.0
H2219 H 0.222 0.7837 0.28482 0.0
H2220 H 0.3427 0.71838 0.22739 0.0
H2221 H 0.35591 0.74573 0.25146 0.0
H2222 H 0.27388 0.85582 0.35536 0.0
H2223 H 0.31551 0.7002 0.2047 0.0
H2224 H 0.21473 0.83312 0.31791 0.0
H2225 H 0.20225 0.80593 0.29342 0.0
N2226 N 0.24538 0.79818 0.3041 0.0
C2227 C 0.2525 0.81294 0.31768 0.0
C2228 C 0.22761 0.79558 0.2954 0.0
C2229 C 0.22345 0.82339 0.31419 0.0
C2230 C 0.21637 0.8081 0.30032 0.0
C2231 C 0.24173 0.82602 0.323 0.0
H2232 H 0.24148 0.85159 0.34097 0.0
N2233 N 0.28102 0.80266 0.31984 0.0
C2234 C 0.27085 0.81531 0.32571 0.0
C2235 C 0.29724 0.83302 0.34724 0.0
C2236 C 0.27875 0.83087 0.33941 0.0
C2237 C 0.29893 0.80451 0.32808 0.0
C2238 C 0.30731 0.81972 0.34162 0.0
O2239 O 0.28957 0.74889 0.25971 0.0
O2240 O 0.2656 0.75819 0.27058 0.0
O2241 O 0.26548 0.7618 0.32127 0.0
O2242 O 0.23906 0.76177 0.30399 0.0
O2243 O 0.26564 0.78426 0.24361 0.0
O2244 O 0.24731 0.77254 0.26694 0.0
O2245 O 0.26993 0.80477 0.28534 0.0
O2246 O 0.29358 0.79492 0.27443 0.0
O2247 O 0.29439 0.79178 0.22355 0.0
O2248 O 0.32047 0.79148 0.24124 0.0
O2249 O 0.29362 0.76938 0.30144 0.0
O2250 O 0.31208 0.78045 0.27787 0.0
C2251 C 0.27601 0.74593 0.26998 0.0
C2252 C 0.24938 0.78033 0.25064 0.0
C2253 C 0.23795 0.7441 0.33143 0.0
C2254 C 0.23861 0.73034 0.3615 0.0
C2255 C 0.20955 0.72713 0.3408 0.0
C2256 C 0.21876 0.73734 0.32766 0.0
C2257 C 0.21939 0.72376 0.35778 0.0
C2258 C 0.24783 0.74029 0.34821 0.0
C2259 C 0.24757 0.75622 0.31878 0.0
C2260 C 0.26801 0.84383 0.34487 0.0
C2261 C 0.24955 0.8414 0.3367 0.0
H2262 H 0.3038 0.84477 0.35776 0.0
C2263 C 0.28354 0.80748 0.27509 0.0
C2264 C 0.30986 0.77293 0.29433 0.0
C2265 C 0.32239 0.80916 0.21384 0.0
C2266 C 0.32201 0.82528 0.18533 0.0
C2267 C 0.35127 0.82404 0.20354 0.0
C2268 C 0.34183 0.81376 0.2165 0.0
C2269 C 0.34139 0.8297 0.18787 0.0
C2270 C 0.31255 0.81518 0.19835 0.0
C2271 C 0.31232 0.7971 0.22628 0.0
H2272 H 0.19476 0.722 0.33794 0.0
H2273 H 0.21086 0.74016 0.31475 0.0
H2274 H 0.21207 0.71592 0.36793 0.0
H2275 H 0.26262 0.7456 0.35136 0.0
H2276 H 0.36624 0.82748 0.20554 0.0
H2277 H 0.34971 0.80917 0.22836 0.0
H2278 H 0.34882 0.83758 0.17782 0.0
H2279 H 0.29754 0.81171 0.19608 0.0
C2280 C 0.57107 0.06519 0.49643 0.0
C2281 C 0.59214 0.08645 0.52134 0.0
C2282 C 0.57917 0.06977 0.51564 0.0
C2283 C 0.59605 0.09898 0.50777 0.0
C2284 C 0.57558 0.07746 0.48262 0.0
C2285 C 0.58771 0.09455 0.4885 0.0
N2286 N 0.55988 0.04826 0.491 0.0
C2287 C 0.55423 0.04216 0.4718 0.0
C2288 C 0.56837 0.07187 0.46314 0.0
C2289 C 0.55789 0.05403 0.45768 0.0
Gd2290 Gd 0.50264 0.02411 0.53334 0.0
Gd2291 Gd 0.55451 0.02995 0.5163 0.0
N2292 N 0.57485 0.05759 0.52862 0.0
C2293 C 0.60112 0.08979 0.54041 0.0
C2294 C 0.58421 0.06026 0.54689 0.0
C2295 C 0.59731 0.07652 0.55316 0.0
H2296 H 0.58144 0.0498 0.55655 0.0
H2297 H 0.60449 0.0788 0.56777 0.0
H2298 H 0.48131 0.00755 0.48838 0.0
H2299 H 0.54713 0.02805 0.4672 0.0
H2300 H 0.46057 0.97888 0.47218 0.0
H2301 H 0.61126 0.10239 0.54531 0.0
H2302 H 0.60581 0.11197 0.51194 0.0
H2303 H 0.5132 0.01676 0.57997 0.0
H2304 H 0.57146 0.08091 0.45211 0.0
H2305 H 0.55297 0.04927 0.44253 0.0
H2306 H 0.45161 0.94022 0.52307 0.0
H2307 H 0.59121 0.10418 0.4781 0.0
H2308 H 0.4837 0.96283 0.5865 0.0
H2309 H 0.50514 0.99198 0.60041 0.0
N2310 N 0.49753 1.00138 0.55424 0.0
C2311 C 0.48522 0.98568 0.54639 0.0
C2312 C 0.50443 1.00388 0.57344 0.0
C2313 C 0.4874 0.97358 0.57732 0.0
C2314 C 0.49961 0.98996 0.5852 0.0
C2315 C 0.48001 0.97127 0.55773 0.0
H2316 H 0.46359 0.9438 0.5577 0.0
N2317 N 0.48397 0.99755 0.51579 0.0
C2318 C 0.4783 0.9837 0.52667 0.0
C2319 C 0.45993 0.96549 0.49823 0.0
C2320 C 0.46623 0.96721 0.51807 0.0
C2321 C 0.47755 0.99615 0.49659 0.0
C2322 C 0.46558 0.98002 0.48747 0.0
O2323 O 0.54754 0.05654 0.53176 0.0
O2324 O 0.51557 0.05378 0.52917 0.0
O2325 O 0.47536 0.03092 0.52616 0.0
O2326 O 0.48691 0.03214 0.55602 0.0
O2327 O 0.5459 0.01971 0.54367 0.0
O2328 O 0.52612 0.0362 0.55651 0.0
O2329 O 0.5154 0.99787 0.52737 0.0
O2330 O 0.53522 1.00258 0.5039 0.0
O2331 O 0.57389 0.01442 0.52944 0.0
O2332 O 0.5779 0.02466 0.50199 0.0
O2333 O 0.50663 0.03496 0.50486 0.0
O2334 O 0.52978 0.02129 0.49379 0.0
C2335 C 0.53254 0.06393 0.53201 0.0
C2336 C 0.54171 0.03033 0.55792 0.0
C2337 C 0.46744 0.0534 0.54942 0.0
C2338 C 0.44544 0.07418 0.54495 0.0
C2339 C 0.47048 0.0816 0.57165 0.0
C2340 C 0.47675 0.06563 0.56566 0.0
C2341 C 0.45498 0.08583 0.56148 0.0
C2342 C 0.45162 0.05773 0.5391 0.0
C2343 C 0.47357 0.03569 0.54427 0.0
C2344 C 0.46093 0.95295 0.52944 0.0
C2345 C 0.46776 0.95499 0.54919 0.0
H2346 H 0.45064 0.95303 0.49109 0.0
C2347 C 0.52436 0.99133 0.51347 0.0
C2348 C 0.51618 0.03013 0.49107 0.0
C2349 C 0.58952 0.99798 0.50755 0.0
C2350 C 0.61268 0.97845 0.50662 0.0
C2351 C 0.5841 0.97012 0.4845 0.0
C2352 C 0.57831 0.98585 0.49239 0.0
C2353 C 0.60116 0.9664 0.49159 0.0
C2354 C 0.60683 0.9943 0.51459 0.0
C2355 C 0.58386 0.01513 0.51506 0.0
H2356 H 0.4776 0.0907 0.58437 0.0
H2357 H 0.4888 0.06278 0.57404 0.0
H2358 H 0.45031 0.09822 0.56676 0.0
H2359 H 0.44426 0.04842 0.52661 0.0
H2360 H 0.57541 0.96087 0.47275 0.0
H2361 H 0.56525 0.98875 0.48644 0.0
H2362 H 0.60547 0.95418 0.48522 0.0
H2363 H 0.61571 1.00375 0.5261 0.0
C2364 C 0.23599 0.2979 0.73771 0.0
C2365 C 0.21509 0.27179 0.71829 0.0
C2366 C 0.22787 0.27918 0.73488 0.0
C2367 C 0.21101 0.28333 0.70435 0.0
C2368 C 0.23151 0.30962 0.72396 0.0
C2369 C 0.21924 0.30218 0.70715 0.0
N2370 N 0.24786 0.30474 0.75411 0.0
C2371 C 0.25427 0.32339 0.75846 0.0
C2372 C 0.23922 0.32856 0.72769 0.0
C2373 C 0.25041 0.3355 0.74517 0.0
Gd2374 Gd 0.30724 0.27069 0.77609 0.0
Gd2375 Gd 0.25457 0.28268 0.77441 0.0
N2376 N 0.23249 0.26818 0.7483 0.0
C2377 C 0.2069 0.25295 0.71614 0.0
C2378 C 0.22412 0.24996 0.74659 0.0
C2379 C 0.21131 0.24204 0.73045 0.0
H2380 H 0.22702 0.24153 0.75779 0.0
H2381 H 0.20478 0.22755 0.7291 0.0
H2382 H 0.33231 0.3132 0.787 0.0
H2383 H 0.26222 0.32914 0.77226 0.0
H2384 H 0.35471 0.33136 0.81404 0.0
H2385 H 0.19703 0.24676 0.70361 0.0
H2386 H 0.20141 0.27785 0.69141 0.0
H2387 H 0.30146 0.22551 0.78571 0.0
H2388 H 0.23618 0.33799 0.71746 0.0
H2389 H 0.2559 0.35022 0.7485 0.0
H2390 H 0.35942 0.28844 0.86067 0.0
H2391 H 0.21579 0.31096 0.69636 0.0
H2392 H 0.32726 0.22575 0.8432 0.0
H2393 H 0.30859 0.20888 0.81319 0.0
N2394 N 0.31348 0.25235 0.8008 0.0
C2395 C 0.3248 0.26175 0.81674 0.0
C2396 C 0.30848 0.23345 0.79908 0.0
C2397 C 0.32355 0.23336 0.83141 0.0
C2398 C 0.31295 0.22379 0.81452 0.0
C2399 C 0.33006 0.25246 0.83247 0.0
H2400 H 0.34631 0.2554 0.86066 0.0
N2401 N 0.32712 0.28925 0.80152 0.0
C2402 C 0.3322 0.28053 0.81688 0.0
C2403 C 0.35291 0.30884 0.83157 0.0
C2404 C 0.345 0.29027 0.83253 0.0
C2405 C 0.33553 0.30699 0.79996 0.0
C2406 C 0.34831 0.31717 0.81512 0.0
O2407 O 0.26525 0.27564 0.74507 0.0
O2408 O 0.28657 0.25666 0.75055 0.0
O2409 O 0.32634 0.27942 0.7549 0.0
O2410 O 0.33124 0.25851 0.77294 0.0
O2411 O 0.25555 0.25322 0.77949 0.0
O2412 O 0.28374 0.24509 0.77277 0.0
O2413 O 0.29979 0.2886 0.80148 0.0
O2414 O 0.27021 0.27376 0.79997 0.0
O2415 O 0.22758 0.27502 0.78468 0.0
O2416 O 0.24531 0.30132 0.79584 0.0
O2417 O 0.30032 0.29504 0.76181 0.0
O2418 O 0.27971 0.30646 0.77997 0.0
C2419 C 0.27579 0.26412 0.73877 0.0
C2420 C 0.26633 0.24112 0.7767 0.0
C2421 C 0.34642 0.25899 0.74462 0.0
C2422 C 0.37214 0.25935 0.72483 0.0
C2423 C 0.35135 0.23037 0.72758 0.0
C2424 C 0.34121 0.23973 0.73954 0.0
C2425 C 0.36665 0.24006 0.72028 0.0
C2426 C 0.36203 0.26882 0.73721 0.0
C2427 C 0.3373 0.26833 0.75966 0.0
C2428 C 0.34972 0.28114 0.84844 0.0
C2429 C 0.34221 0.26233 0.84845 0.0
H2430 H 0.36285 0.31676 0.84328 0.0
C2431 C 0.28472 0.28469 0.80987 0.0
C2432 C 0.29394 0.30899 0.76988 0.0
C2433 C 0.21291 0.29829 0.79897 0.0
C2434 C 0.18365 0.29815 0.81303 0.0
C2435 C 0.19548 0.32243 0.79377 0.0
C2436 C 0.21079 0.31445 0.79085 0.0
C2437 C 0.182 0.31433 0.80465 0.0
C2438 C 0.19931 0.29021 0.81025 0.0
C2439 C 0.22956 0.29017 0.79652 0.0
H2440 H 0.34743 0.21548 0.72408 0.0
H2441 H 0.32958 0.23181 0.74527 0.0
H2442 H 0.37433 0.23245 0.71108 0.0
H2443 H 0.36639 0.28364 0.74122 0.0
H2444 H 0.19403 0.33498 0.78757 0.0
H2445 H 0.22102 0.321 0.78234 0.0
H2446 H 0.17026 0.32081 0.80667 0.0
H2447 H 0.20085 0.27778 0.81671 0.0
C2448 C 0.01273 0.07028 0.567 0.0
C2449 C 0.04039 0.09033 0.58472 0.0
C2450 C 0.03142 0.07823 0.5682 0.0
C2451 C 0.03058 0.09356 0.6005 0.0
C2452 C 1.00266 0.07424 0.5825 0.0
C2453 C 0.01178 0.08548 0.59942 0.0
N2454 N 1.00416 0.05983 0.55021 0.0
C2455 C 0.98527 0.05473 0.54735 0.0
C2456 C 0.98354 0.06744 0.58023 0.0
C2457 C 0.97478 0.05796 0.56244 0.0
Gd2458 Gd 0.03546 1.00239 0.52457 0.0
Gd2459 Gd 0.0237 0.05479 0.52632 0.0
N2460 N 0.04073 0.07456 0.55291 0.0
C2461 C 0.05886 0.09913 0.58469 0.0
C2462 C 0.05835 0.0839 0.55226 0.0
C2463 C 0.06779 0.0961 0.56827 0.0
H2464 H 0.06511 0.08163 0.53946 0.0
H2465 H 0.0819 0.10316 0.56793 0.0
H2466 H 0.99131 0.98106 0.50861 0.0
H2467 H 0.97805 0.04853 0.53334 0.0
H2468 H 0.97423 0.9608 0.47984 0.0
H2469 H 0.06621 0.10856 0.59709 0.0
H2470 H 0.0373 0.10263 0.61343 0.0
H2471 H 0.08059 0.00607 0.51948 0.0
H2472 H 0.97532 0.07017 0.59179 0.0
H2473 H 0.95988 0.05348 0.56019 0.0
H2474 H 0.02139 0.94928 0.44057 0.0
H2475 H 1.00428 0.08851 0.61152 0.0
H2476 H 0.08448 0.97644 0.46466 0.0
H2477 H 0.09956 0.99612 0.49491 0.0
N2478 N 0.05498 0.99323 0.50277 0.0
C2479 C 0.04643 0.98167 0.48671 0.0
C2480 C 0.07381 0.99802 0.50608 0.0
C2481 C 0.07606 0.98096 0.4753 0.0
C2482 C 0.08462 0.99214 0.49232 0.0
C2483 C 0.05676 0.97543 0.4724 0.0
H2484 H 0.05529 0.95898 0.44456 0.0
N2485 N 0.01757 0.98239 0.4985 0.0
C2486 C 0.02723 0.97603 0.48455 0.0
C2487 C 0.99872 0.9589 0.46616 0.0
C2488 C 0.01801 0.96424 0.4679 0.0
C2489 C 0.99884 0.97678 0.49716 0.0
C2490 C 0.98912 0.96509 0.48092 0.0
O2491 O 0.04227 0.04764 0.55151 0.0
O2492 O 0.02782 0.01801 0.55084 0.0
O2493 O 0.02735 0.97509 0.53393 0.0
O2494 O 0.05441 0.99176 0.54448 0.0
O2495 O 0.04866 0.04822 0.51283 0.0
O2496 O 0.06024 0.02662 0.52957 0.0
O2497 O 0.03013 0.01411 0.49551 0.0
O2498 O 0.00971 0.0336 0.50111 0.0
O2499 O 0.03366 0.07412 0.50605 0.0
O2500 O 0.01095 0.07836 0.52159 0.0
O2501 O 0.00807 0.00582 0.53455 0.0
O2502 O 0.99842 0.0307 0.5214 0.0
C2503 C 0.03881 0.0327 0.56021 0.0
C2504 C 0.06269 0.04181 0.52081 0.0
C2505 C 0.05013 0.95906 0.54665 0.0
C2506 C 0.0498 0.92972 0.5606 0.0
C2507 C 0.07184 0.93963 0.53823 0.0
C2508 C 0.06473 0.95565 0.53642 0.0
C2509 C 0.0644 0.92674 0.55011 0.0
C2510 C 0.04275 0.94607 0.55891 0.0
C2511 C 0.04278 0.97627 0.54513 0.0
C2512 C 0.02826 0.95826 0.4535 0.0
C2513 C 0.04757 0.96381 0.45576 0.0
H2514 H 0.99113 0.94989 0.45358 0.0
C2515 C 0.01775 0.02365 0.48913 0.0
C2516 C 0.99509 0.01492 0.52917 0.0
C2517 C 0.01285 0.09174 0.49218 0.0
C2518 C 0.01214 0.116 0.47061 0.0
C2519 C 0.98702 0.08906 0.46698 0.0
C2520 C 0.99568 0.08215 0.48257 0.0
C2521 C 0.99521 0.10577 0.46098 0.0
C2522 C 0.02098 0.10889 0.48631 0.0
C2523 C 0.02168 0.08455 0.50908 0.0
H2524 H 0.08318 0.93716 0.53036 0.0
H2525 H 0.0707 0.96539 0.52709 0.0
H2526 H 0.07017 0.91442 0.55122 0.0
H2527 H 0.03151 0.94859 0.56695 0.0
H2528 H 0.97379 0.08152 0.45965 0.0
H2529 H 0.98882 0.06946 0.48734 0.0
H2530 H 0.98811 0.11093 0.44896 0.0
H2531 H 0.03403 0.11665 0.49391 0.0
C2532 C 0.24028 0.73499 0.79858 0.0
C2533 C 0.22202 0.71197 0.77308 0.0
C2534 C 0.23821 0.72526 0.77998 0.0
C2535 C 0.20789 0.70852 0.785 0.0
C2536 C 0.22624 0.73108 0.81071 0.0
C2537 C 0.21001 0.71801 0.80374 0.0
N2538 N 0.25623 0.74756 0.80513 0.0
C2539 C 0.2596 0.7551 0.82419 0.0
C2540 C 0.22913 0.73999 0.82975 0.0
C2541 C 0.24598 0.75183 0.83658 0.0
Gd2542 Gd 0.28056 0.80257 0.76378 0.0
Gd2543 Gd 0.27796 0.75068 0.78264 0.0
N2544 N 0.25199 0.72888 0.76853 0.0
C2545 C 0.22056 0.70238 0.75443 0.0
C2546 C 0.251 0.71917 0.75065 0.0
C2547 C 0.23516 0.70593 0.74322 0.0
H2548 H 0.26243 0.72174 0.74218 0.0
H2549 H 0.23425 0.69839 0.72892 0.0
H2550 H 0.29721 0.82999 0.80523 0.0
H2551 H 0.27295 0.76313 0.83034 0.0
H2552 H 0.32411 0.85523 0.81737 0.0
H2553 H 0.20833 0.69207 0.74864 0.0
H2554 H 0.19535 0.69835 0.77994 0.0
H2555 H 0.28474 0.79025 0.71576 0.0
H2556 H 0.21871 0.7373 0.8395 0.0
H2557 H 0.24868 0.75809 0.85156 0.0
H2558 H 0.35887 0.8612 0.76312 0.0
H2559 H 0.19911 0.71492 0.81288 0.0
H2560 H 0.33608 0.82119 0.70414 0.0
H2561 H 0.3076 0.79766 0.69341 0.0
N2562 N 0.30106 0.80746 0.74029 0.0
C2563 C 0.31612 0.82136 0.74618 0.0
C2564 C 0.29757 0.7996 0.72133 0.0
C2565 C 0.32633 0.81755 0.71438 0.0
C2566 C 0.31033 0.80418 0.7083 0.0
C2567 C 0.32922 0.8266 0.73336 0.0
H2568 H 0.3548 0.84502 0.73 0.0
N2569 N 0.30598 0.82527 0.77747 0.0
C2570 C 0.31842 0.83075 0.76501 0.0
C2571 C 0.33587 0.85401 0.79034 0.0
C2572 C 0.33383 0.84521 0.77127 0.0
C2573 C 0.30766 0.83397 0.79591 0.0
C2574 C 0.32272 0.84838 0.80269 0.0
O2575 O 0.25183 0.75636 0.76467 0.0
O2576 O 0.25282 0.78771 0.77194 0.0
O2577 O 0.27168 0.82892 0.77151 0.0
O2578 O 0.26655 0.81503 0.74158 0.0
O2579 O 0.28972 0.75947 0.75599 0.0
O2580 O 0.27181 0.77761 0.74181 0.0
O2581 O 0.30901 0.79711 0.77692 0.0
O2582 O 0.30733 0.76645 0.78324 0.0
O2583 O 0.28932 0.72566 0.77419 0.0
O2584 O 0.28769 0.73538 0.80455 0.0
O2585 O 0.27029 0.79409 0.79094 0.0
O2586 O 0.28741 0.77553 0.80497 0.0
C2587 C 0.24342 0.77067 0.76608 0.0
C2588 C 0.27949 0.76306 0.7411 0.0
C2589 C 0.25679 0.8444 0.74639 0.0
C2590 C 0.24213 0.87118 0.75157 0.0
C2591 C 0.25017 0.86184 0.71967 0.0
C2592 C 0.25712 0.84726 0.72679 0.0
C2593 C 0.24276 0.87375 0.73197 0.0
C2594 C 0.24919 0.85645 0.75885 0.0
C2595 C 0.26516 0.82931 0.75352 0.0
C2596 C 0.3469 0.85019 0.75852 0.0
C2597 C 0.34462 0.84091 0.73967 0.0
H2598 H 0.34755 0.86514 0.79567 0.0
C2599 C 0.31683 0.78319 0.782 0.0
C2600 C 0.28105 0.79085 0.80552 0.0
C2601 C 0.30165 0.70863 0.79993 0.0
C2602 C 0.316 0.68148 0.79574 0.0
C2603 C 0.31421 0.69595 0.82811 0.0
C2604 C 0.30538 0.70899 0.8202 0.0
C2605 C 0.31944 0.68228 0.816 0.0
C2606 C 0.30717 0.6948 0.7876 0.0
C2607 C 0.29287 0.7234 0.79242 0.0
H2608 H 0.25058 0.86395 0.70457 0.0
H2609 H 0.26302 0.83835 0.71696 0.0
H2610 H 0.23738 0.88498 0.72614 0.0
H2611 H 0.24882 0.85446 0.77401 0.0
H2612 H 0.31703 0.69648 0.84371 0.0
H2613 H 0.3016 0.71949 0.8301 0.0
H2614 H 0.32631 0.67227 0.82249 0.0
H2615 H 0.3046 0.69434 0.77197 0.0
C2616 C 0.56601 1.00167 0.0662 0.0
C2617 C 0.58249 0.02779 0.08905 0.0
C2618 C 0.56707 0.01945 0.07537 0.0
C2619 C 0.59687 0.01824 0.09297 0.0
C2620 C 0.58038 0.992 0.07016 0.0
C2621 C 0.59581 1.00039 0.08357 0.0
N2622 N 0.55115 0.99407 0.0529 0.0
C2623 C 0.54961 0.97676 0.04329 0.0
C2624 C 0.5789 0.97423 0.06036 0.0
C2625 C 0.56342 0.96658 0.0469 0.0
Gd2626 Gd 0.52885 0.04182 1.00065 0.0
Gd2627 Gd 0.52873 0.01207 0.04728 0.0
N2628 N 0.55298 0.02845 0.07108 0.0
C2629 C 0.58288 0.04539 0.09864 0.0
C2630 C 0.55274 0.04498 0.08165 0.0
C2631 C 0.5678 0.05387 0.09514 0.0
H2632 H 0.54083 0.05126 0.08051 0.0
H2633 H 0.5676 0.06713 0.10313 0.0
H2634 H 0.51589 1.00185 0.96856 0.0
H2635 H 0.53764 0.97074 0.03291 0.0
H2636 H 0.48895 0.98595 0.94624 0.0
H2637 H 0.59448 0.05227 0.10921 0.0
H2638 H 0.60882 0.02449 0.10338 0.0
H2639 H 0.52012 0.08323 0.01488 0.0
H2640 H 0.58962 0.96635 0.06304 0.0
H2641 H 0.56214 0.95284 0.03927 0.0
H2642 H 0.44859 0.02937 0.94485 0.0
H2643 H 0.607 0.99319 0.08678 0.0
H2644 H 0.46842 0.08792 0.98432 0.0
H2645 H 0.49589 0.10138 0.00813 0.0
N2646 N 0.50646 0.05984 0.99505 0.0
C2647 C 0.49156 0.05222 0.98181 0.0
C2648 C 0.50814 0.07724 0.00449 0.0
C2649 C 0.47902 0.07992 0.98718 0.0
C2650 C 0.49449 0.08756 1.00067 0.0
C2651 C 0.47735 0.06202 0.97764 0.0
H2652 H 0.45082 0.06096 0.96088 0.0
N2653 N 0.50418 0.02509 0.9775 0.0
C2654 C 0.49027 0.03426 0.97297 0.0
C2655 C 0.47408 0.00809 0.95019 0.0
C2656 C 0.47477 0.02589 0.9594 0.0
C2657 C 0.50412 0.00831 0.9673 0.0
C2658 C 0.48895 0.99939 0.95395 0.0
O2659 O 0.55526 0.01746 0.03447 0.0
O2660 O 0.55108 0.0448 0.02549 0.0
O2661 O 0.54471 0.04128 0.9762 0.0
O2662 O 0.54105 0.06778 0.99063 0.0
O2663 O 0.52073 0.04091 0.05187 0.0
O2664 O 0.53578 0.05904 0.03053 0.0
O2665 O 0.50249 0.03704 0.01377 0.0
O2666 O 0.50707 0.00981 0.02217 0.0
O2667 O 0.51216 0.01213 0.07125 0.0
O2668 O 0.51602 0.98587 0.05641 0.0
O2669 O 0.53734 0.01324 0.99625 0.0
O2670 O 0.52232 0.99492 0.01739 0.0
C2671 C 0.56144 0.03259 0.02727 0.0
C2672 C 0.5267 0.05729 0.04594 0.0
C2673 C 0.55865 0.06897 0.96311 0.0
C2674 C 0.57515 0.06784 0.93489 0.0
C2675 C 0.57139 0.09742 0.95048 0.0
C2676 C 0.56168 0.08837 0.96409 0.0
C2677 C 0.57809 0.08718 0.93585 0.0
C2678 C 0.56553 0.05878 0.9485 0.0
C2679 C 0.54784 0.05923 0.97678 0.0
C2680 C 0.46058 0.03562 0.9552 0.0
C2681 C 0.46188 0.05364 0.96428 0.0
H2682 H 0.46242 1.00119 0.93971 0.0
C2683 C 0.49664 0.02199 0.02119 0.0
C2684 C 0.53161 0.99681 0.00216 0.0
C2685 C 0.49739 0.984 0.08307 0.0
C2686 C 0.4819 0.98416 0.11205 0.0
C2687 C 0.4801 0.9553 0.09157 0.0
C2688 C 0.49105 0.96474 0.07912 0.0
C2689 C 0.47546 0.96498 0.10799 0.0
C2690 C 0.49282 0.99363 0.09963 0.0
C2691 C 0.50875 0.99413 0.07006 0.0
H2692 H 0.57368 0.11235 0.95123 0.0
H2693 H 0.55643 0.09652 0.97523 0.0
H2694 H 0.58561 0.09431 0.92536 0.0
H2695 H 0.5633 0.0438 0.94754 0.0
H2696 H 0.47519 0.94047 0.08847 0.0
H2697 H 0.49445 0.95703 0.06641 0.0
H2698 H 0.46695 0.95754 0.11755 0.0
H2699 H 0.4977 0.00848 0.10292 0.0
C2700 C 0.33397 0.31248 0.30464 0.0
C2701 C 0.35155 0.32493 0.27967 0.0
C2702 C 0.33456 0.31692 0.28571 0.0
C2703 C 0.36783 0.32838 0.29277 0.0
C2704 C 0.35034 0.31599 0.31782 0.0
C2705 C 0.36722 0.32396 0.31178 0.0
N2706 N 0.31745 0.30466 0.31014 0.0
C2707 C 0.31629 0.30058 0.3287 0.0
C2708 C 0.34926 0.31149 0.33674 0.0
C2709 C 0.33215 0.3038 0.34221 0.0
Gd2710 Gd 0.26876 0.2527 0.26097 0.0
Gd2711 Gd 0.29162 0.30206 0.28689 0.0
N2712 N 0.31858 0.3134 0.27323 0.0
C2713 C 0.35168 0.32947 0.26067 0.0
C2714 C 0.31854 0.31879 0.25509 0.0
C2715 C 0.33507 0.32652 0.2484 0.0
H2716 H 0.30583 0.31795 0.24598 0.0
H2717 H 0.33493 0.3306 0.23391 0.0
H2718 H 0.25258 0.23712 0.30082 0.0
H2719 H 0.30309 0.29557 0.33342 0.0
H2720 H 0.22337 0.22117 0.31042 0.0
H2721 H 0.36444 0.33565 0.25551 0.0
H2722 H 0.38097 0.33458 0.28838 0.0
H2723 H 0.25982 0.2573 0.21332 0.0
H2724 H 0.3615 0.31408 0.3473 0.0
H2725 H 0.33112 0.30062 0.35693 0.0
H2726 H 0.18064 0.21207 0.25226 0.0
H2727 H 0.3799 0.32681 0.32174 0.0
H2728 H 0.20264 0.23465 0.1952 0.0
H2729 H 0.23324 0.25026 0.18787 0.0
N2730 N 0.24427 0.24763 0.23557 0.0
C2731 C 0.22765 0.23857 0.23978 0.0
C2732 C 0.24643 0.25151 0.2171 0.0
C2733 C 0.2142 0.23822 0.20664 0.0
C2734 C 0.23142 0.24711 0.20247 0.0
C2735 C 0.21218 0.23365 0.2254 0.0
H2736 H 0.18326 0.22022 0.21919 0.0
N2737 N 0.24116 0.23926 0.2722 0.0
C2738 C 0.22615 0.23396 0.25849 0.0
C2739 C 0.20816 0.21995 0.28217 0.0
C2740 C 0.20918 0.22433 0.26319 0.0
C2741 C 0.24041 0.23435 0.29048 0.0
C2742 C 0.22388 0.2249 0.29583 0.0
O2743 O 0.31124 0.28163 0.28135 0.0
O2744 O 0.29773 0.26367 0.25314 0.0
O2745 O 0.27624 0.22763 0.2697 0.0
O2746 O 0.26682 0.22904 0.23943 0.0
O2747 O 0.27653 0.30047 0.25626 0.0
O2748 O 0.28072 0.27286 0.2413 0.0
O2749 O 0.24701 0.26977 0.26905 0.0
O2750 O 0.26115 0.29457 0.29192 0.0
O2751 O 0.28955 0.32982 0.28118 0.0
O2752 O 0.2943 0.32381 0.31082 0.0
O2753 O 0.28289 0.25537 0.29212 0.0
O2754 O 0.27826 0.2829 0.30676 0.0
C2755 C 0.31273 0.27149 0.26509 0.0
C2756 C 0.27792 0.28973 0.24043 0.0
C2757 C 0.28865 0.21047 0.24619 0.0
C2758 C 0.30572 0.18611 0.25114 0.0
C2759 C 0.31395 0.20719 0.22746 0.0
C2760 C 0.29977 0.21637 0.23195 0.0
C2761 C 0.31696 0.19208 0.23701 0.0
C2762 C 0.29177 0.19553 0.25572 0.0
C2763 C 0.27381 0.21952 0.25188 0.0
C2764 C 0.19378 0.21946 0.2489 0.0
C2765 C 0.19526 0.22413 0.23008 0.0
H2766 H 0.19538 0.21257 0.28634 0.0
C2767 C 0.24611 0.2836 0.28228 0.0
C2768 C 0.28023 0.26577 0.30764 0.0
C2769 C 0.27557 0.34561 0.30461 0.0
C2770 C 0.25684 0.3681 0.29668 0.0
C2771 C 0.25164 0.35133 0.32447 0.0
C2772 C 0.26591 0.34206 0.32063 0.0
C2773 C 0.24706 0.3643 0.31255 0.0
C2774 C 0.27096 0.35861 0.2928 0.0
C2775 C 0.29023 0.33578 0.29954 0.0
H2776 H 0.32257 0.21175 0.21652 0.0
H2777 H 0.29753 0.228 0.22441 0.0
H2778 H 0.32785 0.18496 0.2332 0.0
H2779 H 0.28334 0.19138 0.26699 0.0
H2780 H 0.24414 0.34849 0.33672 0.0
H2781 H 0.26915 0.332 0.33 0.0
H2782 H 0.23618 0.37157 0.31595 0.0
H2783 H 0.27831 0.36119 0.28035 0.0
C2784 C 0.51271 0.56989 0.06634 0.0
C2785 C 0.54043 0.59006 0.08384 0.0
C2786 C 0.53144 0.57774 0.06748 0.0
C2787 C 0.53057 0.59375 0.09946 0.0
C2788 C 0.50264 0.57417 0.08174 0.0
C2789 C 0.51175 0.58578 0.09844 0.0
N2790 N 0.50412 0.55905 0.04977 0.0
C2791 C 0.48528 0.55352 0.04712 0.0
C2792 C 0.48356 0.5672 0.07965 0.0
C2793 C 0.47481 0.55709 0.06214 0.0
Gd2794 Gd 0.53596 0.50218 0.02361 0.0
Gd2795 Gd 0.52356 0.55405 0.02584 0.0
N2796 N 0.54082 0.57361 0.05237 0.0
C2797 C 0.55901 0.59852 0.08386 0.0
C2798 C 0.55858 0.58256 0.05178 0.0
C2799 C 0.56805 0.59492 0.06765 0.0
H2800 H 0.56539 0.57999 0.03908 0.0
H2801 H 0.58227 0.60171 0.06735 0.0
H2802 H 0.49308 0.47694 0.00927 0.0
H2803 H 0.47804 0.54675 0.03332 0.0
H2804 H 0.47682 0.45499 0.98124 0.0
H2805 H 0.56639 0.6081 0.09614 0.0
H2806 H 0.53729 0.60303 0.11224 0.0
H2807 H 0.58111 0.51063 0.01658 0.0
H2808 H 0.47535 0.57017 0.09115 0.0
H2809 H 0.45994 0.55235 0.06006 0.0
H2810 H 0.52401 0.44829 0.94027 0.0
H2811 H 0.50424 0.58909 0.11044 0.0
H2812 H 0.58566 0.48195 0.96158 0.0
H2813 H 0.60009 0.50289 0.99124 0.0
N2814 N 0.5557 0.49567 1.00075 0.0
C2815 C 0.54764 0.48331 0.98509 0.0
C2816 C 0.57439 0.50216 0.00339 0.0
C2817 C 0.57713 0.48559 0.97253 0.0
C2818 C 0.58532 0.49749 0.98919 0.0
C2819 C 0.55814 0.47813 0.97042 0.0
H2820 H 0.55728 0.4615 0.94282 0.0
N2821 N 0.51891 0.48107 0.99798 0.0
C2822 C 0.52878 0.47573 0.98372 0.0
C2823 C 0.50115 0.45563 0.96661 0.0
C2824 C 0.52009 0.46297 0.96755 0.0
C2825 C 0.50059 0.47353 0.99744 0.0
C2826 C 0.4914 0.46085 0.98168 0.0
O2827 O 0.54114 0.54625 0.05145 0.0
O2828 O 0.52743 0.51612 0.05048 0.0
O2829 O 0.53068 0.47385 0.03222 0.0
O2830 O 0.55695 0.49308 0.04202 0.0
O2831 O 0.54883 0.54852 0.01237 0.0
O2832 O 0.55971 0.52725 0.03013 0.0
O2833 O 0.53054 0.51409 0.99465 0.0
O2834 O 0.5099 0.53334 1.00023 0.0
O2835 O 0.53327 0.57388 0.00587 0.0
O2836 O 0.51056 0.57754 0.02172 0.0
O2837 O 0.50774 0.50408 0.03272 0.0
O2838 O 0.49862 0.52972 0.02035 0.0
C2839 C 0.53746 0.53128 0.06017 0.0
C2840 C 0.56251 0.54173 0.02041 0.0
C2841 C 0.55441 0.4625 0.05288 0.0
C2842 C 0.5511 0.43397 0.06883 0.0
C2843 C 0.58162 0.45208 0.0667 0.0
C2844 C 0.57372 0.46479 0.05701 0.0
C2845 C 0.57045 0.43682 0.07253 0.0
C2846 C 0.54298 0.44689 0.05888 0.0
C2847 C 0.54697 0.47662 0.04226 0.0
C2848 C 0.53049 0.45801 0.95282 0.0
C2849 C 0.54944 0.46556 0.95425 0.0
H2850 H 0.49397 0.44581 0.95443 0.0
C2851 C 0.51814 0.52361 0.98828 0.0
C2852 C 0.49504 0.51356 0.02737 0.0
C2853 C 0.51235 0.59205 0.99295 0.0
C2854 C 0.51187 0.61719 0.97243 0.0
C2855 C 0.48556 0.59148 0.96957 0.0
C2856 C 0.49454 0.58349 0.98408 0.0
C2857 C 0.49414 0.60813 0.96374 0.0
C2858 C 0.52097 0.60908 0.98716 0.0
C2859 C 0.52122 0.58415 0.00933 0.0
H2860 H 0.59652 0.45405 0.06968 0.0
H2861 H 0.58286 0.47644 0.05258 0.0
H2862 H 0.57697 0.42716 0.08007 0.0
H2863 H 0.52806 0.44483 0.05588 0.0
H2864 H 0.47179 0.5848 0.96291 0.0
H2865 H 0.48744 0.57076 0.9886 0.0
H2866 H 0.48681 0.6141 0.95254 0.0
H2867 H 0.53458 0.61602 0.99413 0.0
C2868 C 0.74206 0.2345 0.30121 0.0
C2869 C 0.72153 0.21301 0.27602 0.0
C2870 C 0.73774 0.22659 0.28189 0.0
C2871 C 0.70929 0.20807 0.28959 0.0
C2872 C 0.72997 0.22919 0.31494 0.0
C2873 C 0.71343 0.21622 0.30896 0.0
N2874 N 0.75846 0.24659 0.30676 0.0
C2875 C 0.76413 0.25277 0.32593 0.0
C2876 C 0.73513 0.23663 0.33442 0.0
C2877 C 0.75237 0.24829 0.33995 0.0
Gd2878 Gd 0.78324 0.30428 0.26355 0.0
Gd2879 Gd 0.77676 0.25266 0.28167 0.0
N2880 N 0.74955 0.232 0.26887 0.0
C2881 C 0.71825 0.20467 0.2567 0.0
C2882 C 0.7469 0.22339 0.2503 0.0
C2883 C 0.73108 0.20977 0.24384 0.0
H2884 H 0.75715 0.22689 0.24063 0.0
H2885 H 0.72887 0.20309 0.22903 0.0
H2886 H 0.80079 0.3248 0.30851 0.0
H2887 H 0.77786 0.2608 0.3306 0.0
H2888 H 0.83 0.3448 0.32445 0.0
H2889 H 0.706 0.19411 0.25166 0.0
H2890 H 0.69668 0.19779 0.28531 0.0
H2891 H 0.7896 0.29355 0.21661 0.0
H2892 H 0.72618 0.23295 0.34538 0.0
H2893 H 0.75679 0.25352 0.35509 0.0
H2894 H 0.868 0.35295 0.27294 0.0
H2895 H 0.70397 0.21204 0.3193 0.0
H2896 H 0.84388 0.32172 0.20948 0.0
H2897 H 0.8142 0.30106 0.19582 0.0
N2898 N 0.80559 0.30882 0.24222 0.0
C2899 C 0.82166 0.32059 0.25001 0.0
C2900 C 0.80271 0.30199 0.22299 0.0
C2901 C 0.83322 0.31825 0.21881 0.0
C2902 C 0.81652 0.30649 0.21106 0.0
C2903 C 0.83596 0.32548 0.23847 0.0
H2904 H 0.86368 0.34121 0.23821 0.0
N2905 N 0.81037 0.3219 0.28093 0.0
C2906 C 0.82411 0.32731 0.26982 0.0
C2907 C 0.84301 0.34514 0.29817 0.0
C2908 C 0.84089 0.33895 0.27826 0.0
C2909 C 0.81213 0.32827 0.30017 0.0
C2910 C 0.82856 0.33983 0.30913 0.0
O2911 O 0.74929 0.26017 0.26935 0.0
O2912 O 0.7528 0.29044 0.2613 0.0
O2913 O 0.7752 0.33068 0.27232 0.0
O2914 O 0.77854 0.32283 0.24247 0.0
O2915 O 0.78593 0.26039 0.25351 0.0
O2916 O 0.77052 0.28096 0.2405 0.0
O2917 O 0.80881 0.29048 0.26921 0.0
O2918 O 0.8041 0.27201 0.29378 0.0
O2919 O 0.79262 0.23313 0.26919 0.0
O2920 O 0.7818 0.22956 0.29649 0.0
O2921 O 0.77193 0.30042 0.29186 0.0
O2922 O 0.7856 0.27762 0.30378 0.0
C2923 C 0.74241 0.27439 0.26367 0.0
C2924 C 0.77525 0.26478 0.2394 0.0
C2925 C 0.75617 0.34128 0.24762 0.0
C2926 C 0.73476 0.36272 0.25092 0.0
C2927 C 0.731 0.34038 0.22203 0.0
C2928 C 0.74618 0.33357 0.22946 0.0
C2929 C 0.72532 0.3548 0.23261 0.0
C2930 C 0.75043 0.35606 0.2583 0.0
C2931 C 0.77318 0.33471 0.25455 0.0
C2932 C 0.85503 0.34396 0.26668 0.0
C2933 C 0.85257 0.33727 0.24688 0.0
H2934 H 0.85571 0.35412 0.30518 0.0
C2935 C 0.81536 0.28216 0.28364 0.0
C2936 C 0.77669 0.29122 0.30602 0.0
C2937 C 0.80782 0.21658 0.29155 0.0
C2938 C 0.82591 0.19214 0.29196 0.0
C2939 C 0.83271 0.21813 0.31754 0.0
C2940 C 0.81858 0.22573 0.30875 0.0
C2941 C 0.83637 0.20145 0.30922 0.0
C2942 C 0.81154 0.19971 0.28317 0.0
C2943 C 0.79137 0.22326 0.28367 0.0
H2944 H 0.72364 0.33451 0.20791 0.0
H2945 H 0.75022 0.32239 0.22074 0.0
H2946 H 0.71357 0.35993 0.22634 0.0
H2947 H 0.75803 0.36226 0.27223 0.0
H2948 H 0.84074 0.2251 0.33095 0.0
H2949 H 0.81575 0.23851 0.31563 0.0
H2950 H 0.84733 0.19572 0.31632 0.0
H2951 H 0.80317 0.19241 0.27005 0.0
C2952 C 0.06473 0.50107 0.56892 0.0
C2953 C 0.08112 0.52753 0.59136 0.0
C2954 C 0.06589 0.51907 0.5775 0.0
C2955 C 0.09523 0.51784 0.59606 0.0
C2956 C 0.07885 0.49128 0.57361 0.0
C2957 C 0.09409 0.49977 0.58722 0.0
N2958 N 0.05019 0.49346 0.55522 0.0
C2959 C 0.04864 0.47597 0.54606 0.0
C2960 C 0.07737 0.47334 0.56423 0.0
C2961 C 0.06217 0.46565 0.55044 0.0
Gd2962 Gd 0.03305 0.54226 0.5019 0.0
Gd2963 Gd 0.02823 0.5117 0.54816 0.0
N2964 N 0.05215 0.52826 0.57232 0.0
C2965 C 0.08164 0.5454 0.6003 0.0
C2966 C 0.05198 0.54508 0.58228 0.0
C2967 C 0.06685 0.55407 0.59597 0.0
H2968 H 0.04026 0.55153 0.58052 0.0
H2969 H 0.0667 0.56756 0.60347 0.0
H2970 H 0.02682 0.50586 0.46561 0.0
H2971 H 0.03691 0.46996 0.53541 0.0
H2972 H 1.00357 0.49091 0.4387 0.0
H2973 H 0.0931 0.55238 0.61099 0.0
H2974 H 0.10705 0.52418 0.6066 0.0
H2975 H 0.02285 0.5834 0.51442 0.0
H2976 H 0.08791 0.46537 0.56747 0.0
H2977 H 0.06089 0.45179 0.54312 0.0
H2978 H 0.96132 0.5323 0.43398 0.0
H2979 H 0.1051 0.49249 0.59097 0.0
H2980 H 0.97497 0.58877 0.4774 0.0
H2981 H 0.99942 0.60154 0.50479 0.0
N2982 N 0.01166 0.56054 0.49302 0.0
C2983 C 0.99862 0.55344 0.47768 0.0
C2984 C 0.01215 0.57764 0.50262 0.0
C2985 C 0.98522 0.58075 0.48161 0.0
C2986 C 0.99896 0.58799 0.4971 0.0
C2987 C 0.98493 0.5633 0.47166 0.0
H2988 H 0.9607 0.56276 0.45125 0.0
N2989 N 0.01247 0.52716 0.4742 0.0
C2990 C 0.99886 0.53614 0.46818 0.0
C2991 C 0.98691 0.51164 0.44185 0.0
C2992 C 0.98557 0.52847 0.45205 0.0
C2993 C 0.01475 0.51166 0.46304 0.0
C2994 C 1.0018 0.50341 0.44714 0.0
O2995 O 0.05545 0.51562 0.53667 0.0
O2996 O 0.05131 0.54305 0.52928 0.0
O2997 O 0.05476 0.54288 0.48324 0.0
O2998 O 0.04744 0.56843 0.49449 0.0
O2999 O 0.01989 0.54048 0.55191 0.0
O3000 O 0.03606 0.5592 0.53173 0.0
O3001 O 1.00479 0.53681 0.51109 0.0
O3002 O 0.00696 0.50959 0.52235 0.0
O3003 O 0.01209 0.51188 0.57243 0.0
O3004 O 0.01431 0.48554 0.55648 0.0
O3005 O 0.03935 0.51271 0.49788 0.0
O3006 O 0.02276 0.49456 0.51822 0.0
C3007 C 0.06196 0.53114 0.53059 0.0
C3008 C 0.02601 0.55705 0.54639 0.0
C3009 C 0.05466 0.56577 0.46223 0.0
C3010 C 0.0619 0.56124 0.42905 0.0
C3011 C 0.04187 0.58248 0.43767 0.0
C3012 C 0.0437 0.57846 0.45682 0.0
C3013 C 0.0509 0.57392 0.42381 0.0
C3014 C 0.0637 0.55728 0.4483 0.0
C3015 C 0.05627 0.56052 0.48202 0.0
C3016 C 0.9717 0.53807 0.44624 0.0
C3017 C 0.97138 0.55544 0.45601 0.0
H3018 H 0.97699 0.50531 0.4294 0.0
C3019 C 0.99747 0.5223 0.51882 0.0
C3020 C 0.03222 0.49629 0.50306 0.0
C3021 C 0.99642 0.4839 0.58377 0.0
C3022 C 0.98092 0.48436 0.61275 0.0
C3023 C 0.97922 0.45532 0.59262 0.0
C3024 C 0.99014 0.46462 0.58006 0.0
C3025 C 0.97451 0.46516 0.6089 0.0
C3026 C 0.99186 0.49368 0.60025 0.0
C3027 C 0.00794 0.49388 0.57079 0.0
H3028 H 0.03347 0.59228 0.43356 0.0
H3029 H 0.03644 0.58516 0.46727 0.0
H3030 H 0.04952 0.57747 0.4091 0.0
H3031 H 0.07194 0.5473 0.45242 0.0
H3032 H 0.97439 0.44047 0.58973 0.0
H3033 H 0.99362 0.45677 0.56748 0.0
H3034 H 0.96601 0.45783 0.61854 0.0
H3035 H 0.99671 0.50855 0.60336 0.0
C3036 C 0.73642 0.7942 0.22958 0.0
C3037 C 0.71746 0.76643 0.21094 0.0
C3038 C 0.72914 0.77531 0.22778 0.0
C3039 C 0.71414 0.77654 0.19541 0.0
C3040 C 0.73214 0.8046 0.21445 0.0
C3041 C 0.7215 0.79557 0.19714 0.0
N3042 N 0.74622 0.80265 0.24673 0.0
C3043 C 0.75009 0.82154 0.25042 0.0
C3044 C 0.73787 0.82388 0.21753 0.0
C3045 C 0.74651 0.83241 0.23575 0.0
Gd3046 Gd 0.80456 0.77084 0.27228 0.0
Gd3047 Gd 0.75212 0.78276 0.26992 0.0
N3048 N 0.73275 0.76578 0.24293 0.0
C3049 C 0.70897 0.74779 0.2105 0.0
C3050 C 0.72351 0.74804 0.24319 0.0
C3051 C 0.71174 0.73866 0.22684 0.0
H3052 H 0.72559 0.74111 0.2559 0.0
H3053 H 0.70482 0.72443 0.22684 0.0
H3054 H 0.8251 0.81477 0.29037 0.0
H3055 H 0.75552 0.82833 0.2648 0.0
H3056 H 0.84536 0.83092 0.31952 0.0
H3057 H 0.69985 0.7405 0.19785 0.0
H3058 H 0.70541 0.7699 0.18224 0.0
H3059 H 0.80119 0.72537 0.27545 0.0
H3060 H 0.73483 0.83235 0.20629 0.0
H3061 H 0.75004 0.84736 0.23866 0.0
H3062 H 0.85754 0.78214 0.3562 0.0
H3063 H 0.71827 0.80331 0.1853 0.0
H3064 H 0.83067 0.71957 0.32971 0.0
H3065 H 0.81115 0.70545 0.29904 0.0
N3066 N 0.81365 0.75051 0.29321 0.0
C3067 C 0.82515 0.75856 0.30949 0.0
C3068 C 0.80905 0.73171 0.2891 0.0
C3069 C 0.82607 0.72839 0.31953 0.0
C3070 C 0.81498 0.72037 0.30228 0.0
C3071 C 0.83148 0.74769 0.32323 0.0
H3072 H 0.84798 0.74822 0.35085 0.0
N3073 N 0.82433 0.78794 0.29898 0.0
C3074 C 0.83076 0.77776 0.31239 0.0
C3075 C 0.8477 0.8058 0.33185 0.0
C3076 C 0.84254 0.78647 0.32926 0.0
C3077 C 0.82966 0.80675 0.30123 0.0
C3078 C 0.8413 0.81597 0.31773 0.0
O3079 O 0.75948 0.76414 0.24491 0.0
O3080 O 0.78911 0.7786 0.24594 0.0
O3081 O 0.83197 0.7793 0.26336 0.0
O3082 O 0.81533 0.75245 0.25191 0.0
O3083 O 0.75885 0.758 0.28369 0.0
O3084 O 0.78029 0.74605 0.26719 0.0
O3085 O 0.79283 0.77669 0.3012 0.0
O3086 O 0.7734 0.79703 0.2949 0.0
O3087 O 0.73364 0.77304 0.29112 0.0
O3088 O 0.7278 0.79435 0.27422 0.0
O3089 O 0.80191 0.7987 0.26312 0.0
O3090 O 0.7759 0.80842 0.27365 0.0
C3091 C 0.77451 0.76761 0.23639 0.0
C3092 C 0.76497 0.7438 0.2757 0.0
C3093 C 0.84806 0.75676 0.25027 0.0
C3094 C 0.87756 0.7572 0.23665 0.0
C3095 C 0.86738 0.73497 0.25878 0.0
C3096 C 0.85136 0.74208 0.26045 0.0
C3097 C 0.88039 0.7425 0.24711 0.0
C3098 C 0.86117 0.76421 0.23817 0.0
C3099 C 0.83088 0.76414 0.25173 0.0
C3100 C 0.84859 0.77568 0.3431 0.0
C3101 C 0.8431 0.75635 0.34008 0.0
H3102 H 0.85666 0.813 0.34465 0.0
C3103 C 0.783 0.78895 0.30719 0.0
C3104 C 0.7924 0.81169 0.26725 0.0
C3105 C 0.71495 0.79339 0.30393 0.0
C3106 C 0.69014 0.79457 0.32466 0.0
C3107 C 0.71607 0.82056 0.32699 0.0
C3108 C 0.72365 0.81131 0.31234 0.0
C3109 C 0.69944 0.8123 0.33309 0.0
C3110 C 0.69804 0.78503 0.31011 0.0
C3111 C 0.72243 0.78417 0.28747 0.0
H3112 H 0.86975 0.72357 0.26662 0.0
H3113 H 0.84154 0.73606 0.26965 0.0
H3114 H 0.89271 0.73671 0.24611 0.0
H3115 H 0.85874 0.77553 0.23018 0.0
H3116 H 0.72294 0.83436 0.3334 0.0
H3117 H 0.73614 0.81832 0.30728 0.0
H3118 H 0.69364 0.81989 0.34423 0.0
H3119 H 0.69087 0.77142 0.30333 0.0
C3120 C 0.80746 0.24548 0.72854 0.0
C3121 C 0.78289 0.22999 0.70343 0.0
C3122 C 0.7901 0.2445 0.71855 0.0
C3123 C 0.79326 0.21646 0.69878 0.0
C3124 C 0.81803 0.23205 0.72379 0.0
C3125 C 0.8108 0.2175 0.70892 0.0
N3126 N 0.81394 0.25947 0.74311 0.0
C3127 C 0.83105 0.2612 0.7532 0.0
C3128 C 0.83554 0.23362 0.73419 0.0
C3129 C 0.8421 0.24832 0.74891 0.0
Gd3130 Gd 0.76434 0.28009 0.80031 0.0
Gd3131 Gd 0.79455 0.28022 0.75003 0.0
N3132 N 0.78034 0.25776 0.72352 0.0
C3133 C 0.76553 0.22958 0.69329 0.0
C3134 C 0.76376 0.25781 0.71295 0.0
C3135 C 0.75604 0.24366 0.69795 0.0
H3136 H 0.75636 0.26874 0.71553 0.0
H3137 H 0.74279 0.24373 0.68986 0.0
H3138 H 0.80486 0.29174 0.83135 0.0
H3139 H 0.83624 0.27258 0.76452 0.0
H3140 H 0.81938 0.31579 0.85768 0.0
H3141 H 0.75951 0.21866 0.68162 0.0
H3142 H 0.78789 0.2052 0.68728 0.0
H3143 H 0.72211 0.28848 0.7886 0.0
H3144 H 0.84409 0.22361 0.73095 0.0
H3145 H 0.85566 0.24971 0.75696 0.0
H3146 H 0.77332 0.3522 0.86743 0.0
H3147 H 0.81867 0.20701 0.70511 0.0
H3148 H 0.71551 0.3354 0.82632 0.0
H3149 H 0.70309 0.3108 0.79899 0.0
N3150 N 0.74518 0.30049 0.80951 0.0
C3151 C 0.75215 0.31365 0.82483 0.0
C3152 C 0.72777 0.29928 0.80035 0.0
C3153 C 0.72393 0.32563 0.8218 0.0
C3154 C 0.7169 0.31181 0.80632 0.0
C3155 C 0.74175 0.32671 0.83126 0.0
H3156 H 0.74174 0.3507 0.85179 0.0
N3157 N 0.77995 0.30205 0.82663 0.0
C3158 C 0.77004 0.31449 0.83363 0.0
C3159 C 0.79589 0.329 0.85763 0.0
C3160 C 0.77785 0.32842 0.84912 0.0
C3161 C 0.79728 0.30215 0.83553 0.0
C3162 C 0.80556 0.31571 0.8509 0.0
O3163 O 0.78793 0.25255 0.76046 0.0
O3164 O 0.76377 0.2612 0.77282 0.0
O3165 O 0.76505 0.26159 0.82243 0.0
O3166 O 0.73846 0.26414 0.8071 0.0
O3167 O 0.76514 0.28667 0.74508 0.0
O3168 O 0.74696 0.27936 0.77053 0.0
O3169 O 0.77292 0.30948 0.79451 0.0
O3170 O 0.78515 0.29236 0.7755 0.0
O3171 O 0.79465 0.30093 0.73026 0.0
O3172 O 0.82046 0.29764 0.74568 0.0
O3173 O 0.79335 0.27187 0.80276 0.0
O3174 O 0.81148 0.28585 0.78027 0.0
C3175 C 0.77435 0.24909 0.77091 0.0
C3176 C 0.74909 0.28422 0.75273 0.0
C3177 C 0.73744 0.24335 0.83195 0.0
C3178 C 0.73803 0.22629 0.85985 0.0
C3179 C 0.70988 0.22201 0.83748 0.0
C3180 C 0.7188 0.23484 0.8264 0.0
C3181 C 0.71948 0.21762 0.8541 0.0
C3182 C 0.74692 0.23915 0.84879 0.0
C3183 C 0.74708 0.25666 0.82037 0.0
C3184 C 0.7675 0.34139 0.85559 0.0
C3185 C 0.7495 0.34053 0.8467 0.0
H3186 H 0.80238 0.3395 0.86952 0.0
C3187 C 0.78293 0.3089 0.78068 0.0
C3188 C 0.80958 0.27707 0.79597 0.0
C3189 C 0.82055 0.30469 0.71326 0.0
C3190 C 0.81843 0.31129 0.67975 0.0
C3191 C 0.8413 0.29422 0.69173 0.0
C3192 C 0.83511 0.29545 0.70999 0.0
C3193 C 0.83292 0.30196 0.6766 0.0
C3194 C 0.81251 0.31282 0.69816 0.0
C3195 C 0.81265 0.30508 0.73176 0.0
H3196 H 0.69553 0.21543 0.83316 0.0
H3197 H 0.71118 0.238 0.81348 0.0
H3198 H 0.71241 0.20765 0.86258 0.0
H3199 H 0.76129 0.24573 0.85328 0.0
H3200 H 0.85249 0.28708 0.68924 0.0
H3201 H 0.84153 0.28898 0.72139 0.0
H3202 H 0.83782 0.30078 0.66249 0.0
H3203 H 0.80117 0.31982 0.70057 0.0
C3204 C 0.8328 0.81321 0.80665 0.0
C3205 C 0.8512 0.82671 0.78275 0.0
C3206 C 0.83406 0.81795 0.78788 0.0
C3207 C 0.86695 0.83071 0.79662 0.0
C3208 C 0.84866 0.81718 0.82055 0.0
C3209 C 0.86568 0.82598 0.81545 0.0
N3210 N 0.81613 0.80468 0.81127 0.0
C3211 C 0.81433 0.80028 0.82964 0.0
C3212 C 0.84694 0.81229 0.83926 0.0
C3213 C 0.82971 0.80384 0.84381 0.0
Gd3214 Gd 0.76917 0.75214 0.76109 0.0
Gd3215 Gd 0.79117 0.80172 0.78687 0.0
N3216 N 0.81864 0.81372 0.77458 0.0
C3217 C 0.85203 0.83125 0.76381 0.0
C3218 C 0.81926 0.81882 0.75637 0.0
C3219 C 0.83596 0.82736 0.7506 0.0
H3220 H 0.80689 0.81699 0.74643 0.0
H3221 H 0.83635 0.83127 0.73608 0.0
H3222 H 0.75606 0.73362 0.80082 0.0
H3223 H 0.80096 0.79473 0.83374 0.0
H3224 H 0.72774 0.71743 0.81197 0.0
H3225 H 0.86493 0.838 0.75933 0.0
H3226 H 0.88019 0.8375 0.79294 0.0
H3227 H 0.75745 0.75797 0.71426 0.0
H3228 H 0.85879 0.81517 0.85034 0.0
H3229 H 0.82818 0.80037 0.85836 0.0
H3230 H 0.68173 0.71051 0.75684 0.0
H3231 H 0.87796 0.8292 0.82598 0.0
H3232 H 0.69997 0.7348 0.69911 0.0
H3233 H 0.7297 0.75108 0.69031 0.0
N3234 N 0.74349 0.74726 0.73713 0.0
C3235 C 0.72737 0.73782 0.74212 0.0
C3236 C 0.74449 0.75173 0.71869 0.0
C3237 C 0.71207 0.73821 0.70989 0.0
C3238 C 0.7288 0.74748 0.7049 0.0
C3239 C 0.71122 0.73311 0.72862 0.0
H3240 H 0.68229 0.71958 0.72391 0.0
N3241 N 0.74272 0.73768 0.77365 0.0
C3242 C 0.72703 0.73274 0.7608 0.0
C3243 C 0.71077 0.71762 0.78506 0.0
C3244 C 0.71056 0.72277 0.76628 0.0
C3245 C 0.74324 0.73171 0.79154 0.0
C3246 C 0.72724 0.72196 0.79767 0.0
O3247 O 0.81172 0.78233 0.7809 0.0
O3248 O 0.79819 0.763 0.7534 0.0
O3249 O 0.77649 0.72669 0.7688 0.0
O3250 O 0.76737 0.72912 0.73873 0.0
O3251 O 0.77674 0.79995 0.75596 0.0
O3252 O 0.78069 0.77216 0.741 0.0
O3253 O 0.74709 0.76919 0.76843 0.0
O3254 O 0.76078 0.79361 0.79187 0.0
O3255 O 0.78812 0.82904 0.78043 0.0
O3256 O 0.79356 0.82387 0.81031 0.0
O3257 O 0.78386 0.75557 0.79208 0.0
O3258 O 0.77738 0.78236 0.80623 0.0
C3259 C 0.81315 0.77144 0.76509 0.0
C3260 C 0.77831 0.78921 0.7402 0.0
C3261 C 0.78883 0.70978 0.74486 0.0
C3262 C 0.80674 0.68613 0.75071 0.0
C3263 C 0.81111 0.70348 0.72315 0.0
C3264 C 0.79764 0.71337 0.72834 0.0
C3265 C 0.8156 0.68982 0.7342 0.0
C3266 C 0.79366 0.69645 0.75604 0.0
C3267 C 0.77416 0.7191 0.75079 0.0
C3268 C 0.69448 0.71816 0.75287 0.0
C3269 C 0.6948 0.72333 0.73411 0.0
H3270 H 0.69843 0.70994 0.7898 0.0
C3271 C 0.74588 0.78275 0.78185 0.0
C3272 C 0.78008 0.76553 0.80732 0.0
C3273 C 0.77435 0.84515 0.80379 0.0
C3274 C 0.75591 0.86791 0.79606 0.0
C3275 C 0.75048 0.85097 0.82368 0.0
C3276 C 0.76465 0.84158 0.81977 0.0
C3277 C 0.74609 0.8641 0.81189 0.0
C3278 C 0.76988 0.85826 0.79208 0.0
C3279 C 0.78904 0.83541 0.79871 0.0
H3280 H 0.81788 0.70623 0.71041 0.0
H3281 H 0.79413 0.72371 0.71946 0.0
H3282 H 0.82567 0.68195 0.72962 0.0
H3283 H 0.78703 0.69409 0.76899 0.0
H3284 H 0.74295 0.84812 0.83592 0.0
H3285 H 0.76781 0.83143 0.82908 0.0
H3286 H 0.7353 0.87149 0.81537 0.0
H3287 H 0.77727 0.86083 0.77965 0.0
C3288 C 0.49423 0.47592 0.48917 0.0
C3289 C 0.47989 0.45753 0.51259 0.0
C3290 C 0.48915 0.4746 0.50774 0.0
C3291 C 0.47595 0.44184 0.49864 0.0
C3292 C 0.49019 0.46018 0.47511 0.0
C3293 C 0.48107 0.44316 0.47996 0.0
N3294 N 0.50292 0.4926 0.48479 0.0
C3295 C 0.50753 0.49456 0.46652 0.0
C3296 C 0.49523 0.46204 0.45649 0.0
C3297 C 0.50389 0.47931 0.45218 0.0
Gd3298 Gd 0.5555 0.53898 0.53685 0.0
Gd3299 Gd 0.5069 0.51747 0.50955 0.0
N3300 N 0.49313 0.49004 0.521 0.0
C3301 C 0.47456 0.45679 0.53123 0.0
C3302 C 0.48709 0.48955 0.53881 0.0
C3303 C 0.47804 0.47291 0.54433 0.0
H3304 H 0.48856 0.50197 0.5486 0.0
H3305 H 0.47342 0.47263 0.55856 0.0
H3306 H 0.57291 0.55286 0.49652 0.0
H3307 H 0.51338 0.50797 0.4627 0.0
H3308 H 0.5865 0.58178 0.48465 0.0
H3309 H 0.46737 0.44395 0.53548 0.0
H3310 H 0.4688 0.42864 0.5021 0.0
H3311 H 0.54898 0.55057 0.58325 0.0
H3312 H 0.49228 0.45029 0.44528 0.0
H3313 H 0.50751 0.48096 0.43771 0.0
H3314 H 0.59097 0.62795 0.53913 0.0
H3315 H 0.4778 0.43095 0.46932 0.0
H3316 H 0.56913 0.60878 0.59765 0.0
H3317 H 0.55459 0.57857 0.60693 0.0
N3318 N 0.55911 0.56482 0.56031 0.0
C3319 C 0.56752 0.58122 0.55502 0.0
C3320 C 0.55464 0.56371 0.57874 0.0
C3321 C 0.56641 0.59655 0.58705 0.0
C3322 C 0.55811 0.57954 0.59232 0.0
C3323 C 0.57127 0.59756 0.56825 0.0
H3324 H 0.58272 0.62702 0.57234 0.0
N3325 N 0.56819 0.56581 0.52361 0.0
C3326 C 0.57217 0.58174 0.53618 0.0
C3327 C 0.58546 0.59865 0.51136 0.0
C3328 C 0.58072 0.59862 0.53028 0.0
C3329 C 0.5739 0.56563 0.50561 0.0
C3330 C 0.58221 0.58203 0.49905 0.0
O3331 O 0.52505 0.49605 0.5159 0.0
O3332 O 0.54486 0.50935 0.54327 0.0
O3333 O 0.58261 0.53479 0.53105 0.0
O3334 O 0.57703 0.54045 0.56076 0.0
O3335 O 0.50811 0.53076 0.54095 0.0
O3336 O 0.53553 0.52635 0.55627 0.0
O3337 O 0.5363 0.55976 0.53129 0.0
O3338 O 0.51849 0.54664 0.50287 0.0
O3339 O 0.4814 0.52576 0.51598 0.0
O3340 O 0.48496 0.51606 0.48601 0.0
O3341 O 0.55422 0.52384 0.5062 0.0
O3342 O 0.52776 0.53014 0.49112 0.0
C3343 C 0.5359 0.4945 0.53165 0.0
C3344 C 0.51843 0.52855 0.55678 0.0
C3345 C 0.59724 0.52009 0.55438 0.0
C3346 C 0.62096 0.5024 0.54836 0.0
C3347 C 0.59833 0.49241 0.57 0.0
C3348 C 0.59001 0.50747 0.56678 0.0
C3349 C 0.61374 0.48981 0.56081 0.0
C3350 C 0.61262 0.51748 0.54533 0.0
C3351 C 0.58853 0.53543 0.5494 0.0
C3352 C 0.58441 0.61488 0.54343 0.0
C3353 C 0.57973 0.61435 0.56235 0.0
H3354 H 0.59204 0.61133 0.50629 0.0
C3355 C 0.52595 0.56143 0.51523 0.0
C3356 C 0.54409 0.52605 0.49029 0.0
C3357 C 0.45588 0.52506 0.49097 0.0
C3358 C 0.42798 0.5356 0.49808 0.0
C3359 C 0.43086 0.52348 0.46515 0.0
C3360 C 0.44849 0.52054 0.47133 0.0
C3361 C 0.42055 0.5309 0.47849 0.0
C3362 C 0.4456 0.53268 0.50422 0.0
C3363 C 0.47439 0.52232 0.49774 0.0
H3364 H 0.59274 0.48265 0.5795 0.0
H3365 H 0.5779 0.50911 0.57374 0.0
H3366 H 0.62 0.47806 0.56346 0.0
H3367 H 0.61768 0.52697 0.53529 0.0
H3368 H 0.42521 0.52004 0.45001 0.0
H3369 H 0.45631 0.51479 0.46078 0.0
H3370 H 0.40694 0.53324 0.47351 0.0
H3371 H 0.45122 0.5363 0.5194 0.0
C3372 C 0.07165 0.56321 0.99543 0.0
C3373 C 0.09443 0.5819 0.02075 0.0
C3374 C 0.08031 0.56621 0.01449 0.0
C3375 C 0.09951 0.59472 0.00775 0.0
C3376 C 0.07699 0.57591 0.98227 0.0
C3377 C 0.09079 0.59176 0.9886 0.0
N3378 N 0.05844 0.54765 0.98963 0.0
C3379 C 0.05109 0.54333 0.97059 0.0
C3380 C 0.06857 0.57212 0.96302 0.0
C3381 C 0.05573 0.55565 0.95711 0.0
Gd3382 Gd 1.00165 0.52332 0.03372 0.0
Gd3383 Gd 0.0525 0.52789 0.01352 0.0
N3384 N 0.07474 0.55387 0.02697 0.0
C3385 C 0.10295 0.58426 0.03996 0.0
C3386 C 0.08339 0.5557 0.04544 0.0
C3387 C 0.09748 0.57104 0.05232 0.0
H3388 H 0.07966 0.54515 0.05471 0.0
H3389 H 0.10422 0.57258 0.06706 0.0
H3390 H 0.98017 0.50519 0.98935 0.0
H3391 H 0.04212 0.53013 0.96557 0.0
H3392 H 0.95748 0.4771 0.97486 0.0
H3393 H 0.11385 0.59614 0.04534 0.0
H3394 H 0.11025 0.60693 0.01235 0.0
H3395 H 0.01303 0.51784 0.08085 0.0
H3396 H 0.07229 0.58153 0.95247 0.0
H3397 H 0.04967 0.55225 0.94209 0.0
H3398 H 0.9467 0.44213 0.0284 0.0
H3399 H 0.09501 0.60169 0.97869 0.0
H3400 H 0.98112 0.46593 0.09051 0.0
H3401 H 1.00421 0.49448 0.10273 0.0
N3402 N 0.99607 0.50211 0.05604 0.0
C3403 C 0.9831 0.48662 0.049 0.0
C3404 C 1.0035 0.50515 0.07508 0.0
C3405 C 0.98518 0.476 0.08069 0.0
C3406 C 0.99829 0.49206 0.08764 0.0
C3407 C 0.97736 0.47313 0.06121 0.0
H3408 H 0.95948 0.44675 0.06285 0.0
N3409 N 0.98233 0.49665 0.01748 0.0
C3410 C 0.97588 0.48395 0.02932 0.0
C3411 C 0.95618 0.46536 0.00188 0.0
C3412 C 0.96276 0.46783 0.02171 0.0
C3413 C 0.97574 0.49456 0.99828 0.0
C3414 C 0.96268 0.47879 0.99014 0.0
O3415 O 0.0458 0.55608 0.02519 0.0
O3416 O 0.01711 0.55324 0.03712 0.0
O3417 O 0.97587 0.5321 0.02452 0.0
O3418 O 0.98386 0.53043 0.05485 0.0
O3419 O 0.04579 0.51805 0.04171 0.0
O3420 O 0.02633 0.53452 0.05569 0.0
O3421 O 0.01312 0.49636 0.02728 0.0
O3422 O 0.03208 0.50086 0.00315 0.0
O3423 O 0.07481 0.51324 0.02355 0.0
O3424 O 0.0698 0.51891 0.99345 0.0
O3425 O 1.00522 0.53466 0.00539 0.0
O3426 O 0.02653 0.51942 0.99295 0.0
C3427 C 0.03263 0.56331 0.03293 0.0
C3428 C 0.04191 0.52855 0.0563 0.0
C3429 C 0.96676 0.55349 0.04769 0.0
C3430 C 0.94531 0.5748 0.04381 0.0
C3431 C 0.97198 0.58268 0.06869 0.0
C3432 C 0.97737 0.56615 0.0629 0.0
C3433 C 0.95612 0.58698 0.05929 0.0
C3434 C 0.95059 0.55784 0.0382 0.0
C3435 C 0.9722 0.53555 0.04226 0.0
C3436 C 0.95681 0.45458 0.034 0.0
C3437 C 0.96411 0.4572 0.05364 0.0
H3438 H 0.94607 0.45317 0.9955 0.0
C3439 C 0.02237 0.48976 0.01372 0.0
C3440 C 0.01366 0.52918 0.99095 0.0
C3441 C 0.09432 0.50232 0.9993 0.0
C3442 C 0.12169 0.4885 0.00465 0.0
C3443 C 0.10869 0.49083 0.97186 0.0
C3444 C 0.095 0.49908 0.97913 0.0
C3445 C 0.12197 0.48563 0.98449 0.0
C3446 C 0.10775 0.49683 0.01216 0.0
C3447 C 0.07961 0.51173 0.006 0.0
H3448 H 0.98013 0.59221 0.08057 0.0
H3449 H 0.98981 0.56325 0.07046 0.0
H3450 H 0.9522 0.59988 0.06426 0.0
H3451 H 0.94232 0.54821 0.02644 0.0
H3452 H 0.10903 0.4885 0.95633 0.0
H3453 H 0.08492 0.50297 0.9688 0.0
H3454 H 0.13255 0.47926 0.97851 0.0
H3455 H 0.10753 0.49918 0.02772 0.0
H3456 H 0.98902 0.15381 0.95771 0.0
H3457 H 0.03002 0.18094 0.00516 0.0
H3458 H 0.99222 0.1238 0.9674 0.0
H3459 H 0.03289 0.15108 0.0153 0.0
H3460 H 0.04649 0.09479 0.02317 0.0
H3461 H 0.04311 0.12441 0.01328 0.0
H3462 H 0.98793 0.09996 0.98557 0.0
H3463 H 0.99212 0.06989 0.99456 0.0
C3464 C 0.9986 0.15352 0.97041 0.0
C3465 C 0.00925 0.17026 0.98046 0.0
C3466 C 1.00045 0.13603 0.97612 0.0
C3467 C 0.01292 0.13432 0.99232 0.0
C3468 C 0.0234 0.15117 0.00249 0.0
C3469 C 0.02169 0.16863 0.99665 0.0
C3470 C 0.03371 0.09552 0.01481 0.0
C3471 C 0.01983 0.07941 0.00962 0.0
C3472 C 0.03156 0.11291 0.00923 0.0
C3473 C 0.01514 0.11531 0.9984 0.0
C3474 C 1.00102 0.09919 0.99348 0.0
C3475 C 1.00336 0.08168 0.99887 0.0
H3476 H 0.16317 0.81731 0.17491 0.0
H3477 H 0.13839 0.76187 0.18435 0.0
H3478 H 0.19118 0.81532 0.19557 0.0
H3479 H 0.16659 0.75958 0.20419 0.0
H3480 H 0.21292 0.76539 0.25382 0.0
H3481 H 0.18499 0.76869 0.23413 0.0
H3482 H 0.21822 0.80246 0.19857 0.0
H3483 H 0.24624 0.79976 0.21891 0.0
C3484 C 0.16357 0.80467 0.18136 0.0
C3485 C 0.1482 0.78977 0.1777 0.0
C3486 C 0.17988 0.80343 0.19311 0.0
C3487 C 0.1815 0.78726 0.20177 0.0
C3488 C 0.16608 0.77241 0.19816 0.0
C3489 C 0.14982 0.77364 0.18641 0.0
C3490 C 0.21437 0.77377 0.242 0.0
C3491 C 0.23208 0.78244 0.23826 0.0
C3492 C 0.1982 0.77546 0.23041 0.0
C3493 C 0.199 0.78582 0.21447 0.0
C3494 C 0.21675 0.79455 0.21075 0.0
C3495 C 0.23296 0.79287 0.2224 0.0
H3496 H 0.48986 0.86849 0.49877 0.0
H3497 H 0.54 0.87885 0.4716 0.0
H3498 H 0.49229 0.90171 0.50681 0.0
H3499 H 0.5429 0.91196 0.4805 0.0
H3500 H 0.53437 0.97197 0.48153 0.0
H3501 H 0.532 0.93871 0.47381 0.0
H3502 H 0.50697 0.92953 0.52618 0.0
H3503 H 0.50977 0.96288 0.53402 0.0
C3504 C 0.50146 0.87771 0.49444 0.0
C3505 C 0.51464 0.87043 0.48432 0.0
C3506 C 0.503 0.89702 0.49935 0.0
C3507 C 0.5178 0.91003 0.49437 0.0
C3508 C 0.53108 0.90275 0.48444 0.0
C3509 C 0.52954 0.88346 0.47954 0.0
C3510 C 0.52855 0.96295 0.49159 0.0
C3511 C 0.52235 0.97051 0.50852 0.0
C3512 C 0.52716 0.94365 0.48712 0.0
C3513 C 0.5193 0.93092 0.49928 0.0
C3514 C 0.5129 0.93851 0.51615 0.0
C3515 C 0.51448 0.95786 0.5207 0.0
H3516 H 0.45453 0.26014 0.64874 0.0
H3517 H 0.48171 0.30656 0.69068 0.0
H3518 H 0.42702 0.25734 0.66534 0.0
H3519 H 0.45379 0.30403 0.70716 0.0
H3520 H 0.40708 0.27522 0.74291 0.0
H3521 H 0.43514 0.28363 0.72706 0.0
H3522 H 0.40176 0.27243 0.67112 0.0
H3523 H 0.37406 0.2637 0.68697 0.0
C3524 C 0.45468 0.26977 0.66154 0.0
C3525 C 0.47051 0.2835 0.66836 0.0
C3526 C 0.43873 0.26833 0.67097 0.0
C3527 C 0.43799 0.28053 0.6876 0.0
C3528 C 0.4538 0.29433 0.69447 0.0
C3529 C 0.46979 0.29587 0.68491 0.0
C3530 C 0.40577 0.2751 0.72728 0.0
C3531 C 0.38838 0.26886 0.71616 0.0
C3532 C 0.42185 0.27985 0.71815 0.0
C3533 C 0.42085 0.27836 0.69771 0.0
C3534 C 0.40321 0.27331 0.68682 0.0
C3535 C 0.38727 0.26853 0.6959 0.0
H3536 H 1.00133 0.82841 0.60878 0.0
H3537 H 0.05248 0.85246 0.64532 0.0
H3538 H 1.00468 0.85556 0.5913 0.0
H3539 H 0.05616 0.87921 0.62736 0.0
H3540 H 0.05268 0.93217 0.60043 0.0
H3541 H 0.04505 0.90685 0.62029 0.0
H3542 H 0.0233 0.86925 0.56819 0.0
H3543 H 0.03092 0.89456 0.5486 0.0
C3544 C 0.01326 0.83948 0.61323 0.0
C3545 C 0.02668 0.83797 0.62851 0.0
C3546 C 0.01528 0.85506 0.60301 0.0
C3547 C 0.03076 0.86972 0.60774 0.0
C3548 C 0.04395 0.8684 0.6233 0.0
C3549 C 0.04196 0.85281 0.63348 0.0
C3550 C 0.04587 0.91857 0.59333 0.0
C3551 C 0.04226 0.91539 0.57296 0.0
C3552 C 0.04169 0.90396 0.60467 0.0
C3553 C 0.03365 0.8858 0.59594 0.0
C3554 C 0.02931 0.88294 0.57557 0.0
C3555 C 0.03369 0.89747 0.56427 0.0
H3556 H 0.43641 0.82199 0.82525 0.0
H3557 H 0.43269 0.76683 0.79645 0.0
H3558 H 0.40336 0.81955 0.81621 0.0
H3559 H 0.39969 0.76441 0.78733 0.0
H3560 H 0.33753 0.75688 0.78959 0.0
H3561 H 0.37063 0.76028 0.79767 0.0
H3562 H 0.37778 0.81882 0.79304 0.0
H3563 H 0.34427 0.8154 0.78578 0.0
C3564 C 0.42871 0.80936 0.81677 0.0
C3565 C 0.43769 0.7946 0.81178 0.0
C3566 C 0.4095 0.80795 0.81152 0.0
C3567 C 0.39832 0.79171 0.80103 0.0
C3568 C 0.40738 0.77706 0.79578 0.0
C3569 C 0.42656 0.77846 0.80105 0.0
C3570 C 0.346 0.77058 0.79026 0.0
C3571 C 0.33775 0.78587 0.78675 0.0
C3572 C 0.3653 0.77251 0.79477 0.0
C3573 C 0.37743 0.78983 0.79597 0.0
C3574 C 0.36921 0.80519 0.79251 0.0
C3575 C 0.3498 0.80323 0.78804 0.0
H3576 H 0.49328 0.14127 0.1278 0.0
H3577 H 0.54086 0.17124 0.10588 0.0
H3578 H 0.49585 0.11318 0.10805 0.0
H3579 H 0.54291 0.14373 0.08506 0.0
H3580 H 0.55246 0.08941 0.05632 0.0
H3581 H 0.55011 0.11705 0.07691 0.0
H3582 H 0.49333 0.09257 0.08258 0.0
H3583 H 0.49668 0.06437 0.06338 0.0
C3584 C 0.50419 0.14195 0.11851 0.0
C3585 C 0.5169 0.15869 0.11869 0.0
C3586 C 0.50567 0.12566 0.10687 0.0
C3587 C 0.5197 0.12546 0.09448 0.0
C3588 C 0.53215 0.14251 0.09448 0.0
C3589 C 0.53092 0.15863 0.10647 0.0
C3590 C 0.5395 0.08998 0.06207 0.0
C3591 C 0.52481 0.07457 0.05821 0.0
C3592 C 0.53798 0.1061 0.0739 0.0
C3593 C 0.52141 0.1078 0.08185 0.0
C3594 C 0.50658 0.09225 0.07752 0.0
C3595 C 0.50837 0.07589 0.06622 0.0
H3596 H 0.12523 0.27792 0.28958 0.0
H3597 H 0.15218 0.31543 0.33984 0.0
H3598 H 0.15508 0.27502 0.2797 0.0
H3599 H 0.18215 0.31205 0.33062 0.0
H3600 H 0.23726 0.3114 0.3073 0.0
H3601 H 0.20727 0.31579 0.31577 0.0
H3602 H 0.18132 0.26553 0.27838 0.0
H3603 H 0.21107 0.26267 0.26861 0.0
C3604 C 0.13753 0.28546 0.29875 0.0
C3605 C 0.13582 0.29698 0.31563 0.0
C3606 C 0.15503 0.28373 0.29308 0.0
C3607 C 0.1719 0.29317 0.30415 0.0
C3608 C 0.17006 0.30465 0.32111 0.0
C3609 C 0.15254 0.30661 0.32659 0.0
C3610 C 0.22515 0.30135 0.30075 0.0
C3611 C 0.22712 0.2864 0.28741 0.0
C3612 C 0.2076 0.30372 0.30584 0.0
C3613 C 0.19102 0.29097 0.29821 0.0
C3614 C 0.19313 0.27605 0.28476 0.0
C3615 C 0.21061 0.27405 0.27929 0.0
H3616 H 1.00113 0.03214 0.17996 0.0
H3617 H 0.9465 0.00991 0.14969 0.0
H3618 H 0.01322 0.03533 0.14891 0.0
H3619 H 0.95869 0.01274 0.11863 0.0
H3620 H 0.98399 0.03807 0.06678 0.0
H3621 H 0.97161 0.03605 0.09798 0.0
H3622 H 0.01938 0.01581 0.12075 0.0
H3623 H 0.03154 0.01754 0.08974 0.0
C3624 C 0.99165 0.02796 0.16672 0.0
C3625 C 0.97279 0.02072 0.16749 0.0
C3626 C 0.99864 0.02965 0.14884 0.0
C3627 C 0.98697 0.02431 0.13114 0.0
C3628 C 0.96809 0.01718 0.1319 0.0
C3629 C 0.96113 0.01534 0.14978 0.0
C3630 C 0.99188 0.03327 0.07847 0.0
C3631 C 0.00894 0.02828 0.0757 0.0
C3632 C 0.98474 0.03201 0.09636 0.0
C3633 C 0.99452 0.02586 0.11203 0.0
C3634 C 0.01158 0.02092 0.10922 0.0
C3635 C 0.01859 0.02197 0.09134 0.0
H3636 H 0.24591 0.67149 0.45083 0.0
H3637 H 0.30238 0.70169 0.46494 0.0
H3638 H 0.24168 0.68901 0.42371 0.0
H3639 H 0.29813 0.71903 0.43691 0.0
H3640 H 0.26892 0.71455 0.36459 0.0
H3641 H 0.28314 0.70463 0.39407 0.0
H3642 H 0.24626 0.72929 0.42774 0.0
H3643 H 0.23192 0.73901 0.39837 0.0
C3644 C 0.25744 0.68187 0.44808 0.0
C3645 C 0.27433 0.68561 0.46019 0.0
C3646 C 0.25501 0.69181 0.43258 0.0
C3647 C 0.26948 0.70548 0.42871 0.0
C3648 C 0.2868 0.7086 0.43997 0.0
C3649 C 0.28921 0.69869 0.45579 0.0
C3650 C 0.26426 0.71824 0.37843 0.0
C3651 C 0.24907 0.72702 0.37936 0.0
C3652 C 0.27251 0.7128 0.3952 0.0
C3653 C 0.26569 0.71629 0.41291 0.0
C3654 C 0.25167 0.72658 0.4141 0.0
C3655 C 0.24334 0.73186 0.39738 0.0
H3656 H 0.62686 0.01843 0.64336 0.0
H3657 H 0.59727 0.05324 0.67625 0.0
H3658 H 0.60493 0.01735 0.61462 0.0
H3659 H 0.57481 0.05168 0.64763 0.0
H3660 H 0.55208 0.06012 0.58528 0.0
H3661 H 0.57243 0.062 0.61569 0.0
H3662 H 0.57326 1.00369 0.60357 0.0
H3663 H 0.55383 1.00219 0.573 0.0
C3664 C 0.61551 0.0257 0.64438 0.0
C3665 C 0.61356 0.03586 0.66181 0.0
C3666 C 0.60294 0.02502 0.62805 0.0
C3667 C 0.58808 0.03427 0.62903 0.0
C3668 C 0.58624 0.04458 0.64649 0.0
C3669 C 0.59899 0.04544 0.66279 0.0
C3670 C 0.55655 0.04777 0.5894 0.0
C3671 C 0.55181 0.03112 0.57699 0.0
C3672 C 0.56808 0.04879 0.6067 0.0
C3673 C 0.5746 0.03304 0.61177 0.0
C3674 C 0.56885 0.01615 0.59973 0.0
C3675 C 0.5577 0.01525 0.58235 0.0
H3676 H 0.25984 0.33787 0.91998 0.0
H3677 H 0.30874 0.31587 0.93517 0.0
H3678 H 0.259 0.32507 0.88616 0.0
H3679 H 0.30818 0.30376 0.90125 0.0
H3680 H 0.31311 0.30589 0.83554 0.0
H3681 H 0.31281 0.31725 0.86951 0.0
H3682 H 0.25445 0.29386 0.86476 0.0
H3683 H 0.25496 0.28165 0.83088 0.0
C3684 C 0.27033 0.33017 0.91628 0.0
C3685 C 0.28442 0.32808 0.9306 0.0
C3686 C 0.26986 0.32289 0.89677 0.0
C3687 C 0.28359 0.31348 0.8909 0.0
C3688 C 0.29754 0.31119 0.90517 0.0
C3689 C 0.29789 0.31825 0.92469 0.0
C3690 C 0.30028 0.30283 0.84174 0.0
C3691 C 0.2842 0.29245 0.83043 0.0
C3692 C 0.30008 0.30945 0.86127 0.0
C3693 C 0.28364 0.30637 0.86999 0.0
C3694 C 0.26737 0.29649 0.85855 0.0
C3695 C 0.26768 0.28946 0.8391 0.0
H3696 H 0.97528 0.99124 0.3659 0.0
H3697 H 0.98535 0.05108 0.37288 0.0
H3698 H 0.98801 0.99194 0.39968 0.0
H3699 H 0.9974 0.05159 0.40683 0.0
H3700 H 0.99387 0.04252 0.47135 0.0
H3701 H 0.98427 0.04225 0.43698 0.0
H3702 H 0.01783 1.00209 0.42333 0.0
H3703 H 0.02826 1.0031 0.45802 0.0
C3704 C 0.98038 0.00459 0.37444 0.0
C3705 C 0.97912 0.02111 0.36633 0.0
C3706 C 0.98766 0.00494 0.39393 0.0
C3707 C 0.9937 0.0218 0.40608 0.0
C3708 C 0.99267 0.03832 0.39801 0.0
C3709 C 0.98562 0.038 0.37846 0.0
C3710 C 0.99946 0.03379 0.46114 0.0
C3711 C 0.0119 0.02285 0.46774 0.0
C3712 C 0.9939 0.03363 0.4413 0.0
C3713 C 1.00025 0.02217 0.42726 0.0
C3714 C 0.01255 0.01102 0.43373 0.0
C3715 C 0.0185 0.01154 0.45368 0.0
H3716 H 0.29345 0.71259 0.62898 0.0
H3717 H 0.24961 0.67431 0.64884 0.0
H3718 H 0.29534 0.73371 0.65862 0.0
H3719 H 0.25104 0.69599 0.67802 0.0
H3720 H 0.24957 0.75359 0.71399 0.0
H3721 H 0.24677 0.73311 0.68344 0.0
H3722 H 0.30325 0.72669 0.69681 0.0
H3723 H 0.30595 0.74673 0.72746 0.0
C3724 C 0.28426 0.70869 0.63966 0.0
C3725 C 0.27144 0.69181 0.63672 0.0
C3726 C 0.28526 0.7208 0.65642 0.0
C3727 C 0.27325 0.71628 0.67021 0.0
C3728 C 0.26022 0.69965 0.66725 0.0
C3729 C 0.25941 0.68737 0.65063 0.0
C3730 C 0.26134 0.74784 0.71022 0.0
C3731 C 0.27795 0.75154 0.72276 0.0
C3732 C 0.25972 0.73617 0.69299 0.0
C3733 C 0.27485 0.72861 0.6881 0.0
C3734 C 0.29153 0.73257 0.70048 0.0
C3735 C 0.29302 0.74387 0.71789 0.0
H3736 H 0.60268 0.01233 0.82828 0.0
H3737 H 0.64748 0.05646 0.85507 0.0
H3738 H 0.58717 0.01482 0.85769 0.0
H3739 H 0.63209 0.05909 0.88405 0.0
H3740 H 0.60759 0.05629 0.93794 0.0
H3741 H 0.62173 0.04212 0.91153 0.0
H3742 H 0.57278 0.04129 0.8718 0.0
H3743 H 0.55869 0.0553 0.89836 0.0
C3744 C 0.60929 0.02231 0.84058 0.0
C3745 C 0.62609 0.03437 0.83948 0.0
C3746 C 0.60046 0.02374 0.85729 0.0
C3747 C 0.60853 0.03705 0.87311 0.0
C3748 C 0.62573 0.04849 0.87221 0.0
C3749 C 0.63441 0.04717 0.85555 0.0
C3750 C 0.59983 0.05268 0.9236 0.0
C3751 C 0.58237 0.0571 0.91981 0.0
C3752 C 0.6078 0.04456 0.9086 0.0
C3753 C 0.59839 0.04084 0.88967 0.0
C3754 C 0.58026 0.04394 0.88629 0.0
C3755 C 0.57231 0.05212 0.90133 0.0
H3756 H 0.30903 0.32109 0.12859 0.0
H3757 H 0.2601 0.34384 0.13518 0.0
H3758 H 0.30713 0.30955 0.1599 0.0
H3759 H 0.25752 0.33124 0.16589 0.0
H3760 H 0.26771 0.32175 0.22989 0.0
H3761 H 0.26984 0.33426 0.19885 0.0
H3762 H 0.29114 0.28698 0.17638 0.0
H3763 H 0.28987 0.27509 0.20749 0.0
C3764 C 0.29783 0.32367 0.13663 0.0
C3765 C 0.28475 0.33351 0.12908 0.0
C3766 C 0.29656 0.31675 0.1546 0.0
C3767 C 0.28211 0.31931 0.16566 0.0
C3768 C 0.26901 0.32911 0.15809 0.0
C3769 C 0.27033 0.33613 0.14017 0.0
C3770 C 0.27283 0.31403 0.2183 0.0
C3771 C 0.2784 0.29727 0.22126 0.0
C3772 C 0.27395 0.32115 0.20038 0.0
C3773 C 0.28068 0.31172 0.18485 0.0
C3774 C 0.28616 0.29491 0.1879 0.0
C3775 C 0.28516 0.2879 0.20579 0.0
H3776 H 0.22463 1.00237 0.00488 0.0
H3777 H 0.1919 0.95041 0.97629 0.0
H3778 H 0.19697 0.01138 0.01518 0.0
H3779 H 0.1639 0.95982 0.98569 0.0
H3780 H 0.13044 0.9671 0.03755 0.0
H3781 H 0.15454 0.961 0.01793 0.0
H3782 H 0.16745 0.01889 0.00962 0.0
H3783 H 0.14459 0.02523 0.0305 0.0
C3784 C 0.21135 0.99325 1.0001 0.0
C3785 C 0.21033 0.97558 0.99021 0.0
C3786 C 0.19548 0.99842 0.00591 0.0
C3787 C 0.17834 0.98605 0.00165 0.0
C3788 C 0.17704 0.96937 0.98959 0.0
C3789 C 0.19299 0.96413 0.98394 0.0
C3790 C 0.1386 0.97852 0.03172 0.0
C3791 C 0.13562 0.9966 0.03556 0.0
C3792 C 0.15209 0.97498 0.02011 0.0
C3793 C 0.16269 0.98946 0.012 0.0
C3794 C 0.15953 0.00748 0.01568 0.0
C3795 C 0.14632 0.01105 0.02754 0.0
H3796 H 0.6715 0.58656 0.98698 0.0
H3797 H 0.6645 0.62313 0.03686 0.0
H3798 H 0.64134 0.56728 0.98908 0.0
H3799 H 0.63486 0.60331 0.03936 0.0
H3800 H 0.59199 0.5512 0.04885 0.0
H3801 H 0.62286 0.56937 0.04645 0.0
H3802 H 0.60696 0.57158 0.98559 0.0
H3803 H 0.57599 0.55395 0.98818 0.0
C3804 C 0.66361 0.59061 0.99834 0.0
C3805 C 0.67071 0.60652 0.01178 0.0
C3806 C 0.64633 0.57944 0.9996 0.0
C3807 C 0.63578 0.58368 0.01449 0.0
C3808 C 0.6428 0.59949 0.02792 0.0
C3809 C 0.65991 0.61082 0.0265 0.0
C3810 C 0.59521 0.55542 0.03494 0.0
C3811 C 0.58166 0.55117 0.01869 0.0
C3812 C 0.6128 0.56592 0.03359 0.0
C3813 C 0.61734 0.57192 0.01582 0.0
C3814 C 0.60392 0.5671 0.99944 0.0
C3815 C 0.5862 0.55707 1.00093 0.0
H3816 H 0.70855 0.46721 0.30405 0.0
H3817 H 0.6682 0.44273 0.25484 0.0
H3818 H 0.7229 0.4399 0.30093 0.0
H3819 H 0.68268 0.41596 0.25148 0.0
H3820 H 0.69956 0.36284 0.25836 0.0
H3821 H 0.68642 0.38944 0.26874 0.0
H3822 H 0.74097 0.42422 0.27742 0.0
H3823 H 0.7542 0.3973 0.26701 0.0
C3824 C 0.70269 0.45601 0.29264 0.0
C3825 C 0.68726 0.45726 0.27962 0.0
C3826 C 0.71101 0.44044 0.29077 0.0
C3827 C 0.7039 0.42568 0.27602 0.0
C3828 C 0.68839 0.42692 0.26319 0.0
C3829 C 0.6802 0.44243 0.26496 0.0
C3830 C 0.70881 0.37609 0.26283 0.0
C3831 C 0.72787 0.37804 0.26155 0.0
C3832 C 0.70127 0.39137 0.26868 0.0
C3833 C 0.71257 0.40907 0.27343 0.0
C3834 C 0.73187 0.41079 0.27377 0.0
C3835 C 0.73947 0.39538 0.26787 0.0
H3836 H 0.8865 0.49679 0.55166 0.0
H3837 H 0.88172 0.48819 0.48893 0.0
H3838 H 0.91967 0.5093 0.55281 0.0
H3839 H 0.91459 0.50087 0.49013 0.0
H3840 H 0.97149 0.53801 0.50012 0.0
H3841 H 0.93828 0.53122 0.50151 0.0
H3842 H 0.9455 0.4922 0.54236 0.0
H3843 H 0.97882 0.49878 0.54078 0.0
C3844 C 0.8925 0.49787 0.53818 0.0
C3845 C 0.88166 0.49162 0.52023 0.0
C3846 C 0.91135 0.50497 0.53884 0.0
C3847 C 0.91946 0.50597 0.52156 0.0
C3848 C 0.90848 0.50047 0.50361 0.0
C3849 C 0.88971 0.4933 0.50294 0.0
C3850 C 0.96604 0.52808 0.50947 0.0
C3851 C 0.97763 0.51877 0.52022 0.0
C3852 C 0.94708 0.52424 0.51027 0.0
C3853 C 0.93954 0.51132 0.52211 0.0
C3854 C 0.95115 0.5024 0.53332 0.0
C3855 C 0.9701 0.50602 0.53227 0.0
H3856 H 0.34674 0.11106 0.32358 0.0
H3857 H 0.30367 0.07797 0.28121 0.0
H3858 H 0.3366 0.13911 0.31512 0.0
H3859 H 0.294 0.10581 0.27217 0.0
H3860 H 0.27882 0.15862 0.25936 0.0
H3861 H 0.28251 0.13368 0.27863 0.0
H3862 H 0.34193 0.1523 0.28487 0.0
H3863 H 0.33815 0.17802 0.26658 0.0
C3864 C 0.33464 0.10978 0.31304 0.0
C3865 C 0.32613 0.09256 0.30273 0.0
C3866 C 0.32902 0.12578 0.30801 0.0
C3867 C 0.3149 0.12462 0.29263 0.0
C3868 C 0.30494 0.10716 0.28407 0.0
C3869 C 0.31049 0.09122 0.28917 0.0
C3870 C 0.29267 0.15754 0.26511 0.0
C3871 C 0.30825 0.17023 0.26151 0.0
C3872 C 0.29475 0.14326 0.27609 0.0
C3873 C 0.31246 0.14118 0.28341 0.0
C3874 C 0.32806 0.15384 0.2798 0.0
C3875 C 0.32596 0.16829 0.26896 0.0
H3876 H 0.36416 0.135 0.49697 0.0
H3877 H 0.33535 0.09505 0.53007 0.0
H3878 H 0.3909 0.12023 0.49973 0.0
H3879 H 0.36238 0.08078 0.53362 0.0
H3880 H 0.41104 0.0525 0.53152 0.0
H3881 H 0.38297 0.06317 0.51977 0.0
H3882 H 0.41464 0.11903 0.52439 0.0
H3883 H 0.44246 0.10827 0.53515 0.0
C3884 C 0.36342 0.12294 0.50466 0.0
C3885 C 0.3476 0.11639 0.51347 0.0
C3886 C 0.37888 0.11455 0.50644 0.0
C3887 C 0.37901 0.09938 0.51712 0.0
C3888 C 0.36286 0.09233 0.52518 0.0
C3889 C 0.3474 0.10071 0.52339 0.0
C3890 C 0.41203 0.06695 0.52951 0.0
C3891 C 0.42896 0.07957 0.53456 0.0
C3892 C 0.3959 0.07314 0.52301 0.0
C3893 C 0.39637 0.09206 0.52135 0.0
C3894 C 0.41359 0.10437 0.52528 0.0
C3895 C 0.4296 0.09821 0.53169 0.0
H3896 H 0.67696 0.64807 0.2756 0.0
H3897 H 0.72599 0.62732 0.29323 0.0
H3898 H 0.69609 0.6782 0.27319 0.0
H3899 H 0.74518 0.65766 0.29091 0.0
H3900 H 0.77169 0.70969 0.26129 0.0
H3901 H 0.75397 0.6789 0.26444 0.0
H3902 H 0.71635 0.70406 0.29649 0.0
H3903 H 0.7342 0.73459 0.29403 0.0
C3904 C 0.69183 0.64989 0.27889 0.0
C3905 C 0.69989 0.63519 0.28457 0.0
C3906 C 0.7028 0.66723 0.27764 0.0
C3907 C 0.72218 0.67036 0.28184 0.0
C3908 C 0.73031 0.65567 0.28743 0.0
C3909 C 0.71929 0.63834 0.28893 0.0
C3910 C 0.75986 0.70869 0.26932 0.0
C3911 C 0.7546 0.72479 0.27755 0.0
C3912 C 0.74966 0.69101 0.27106 0.0
C3913 C 0.73369 0.68901 0.28067 0.0
C3914 C 0.72846 0.70507 0.28885 0.0
C3915 C 0.7388 0.72264 0.28746 0.0
H3916 H 0.838 0.41347 0.79877 0.0
H3917 H 0.80373 0.41995 0.74696 0.0
H3918 H 0.82736 0.38012 0.7927 0.0
H3919 H 0.79313 0.38619 0.74067 0.0
H3920 H 0.76217 0.33161 0.76625 0.0
H3921 H 0.77392 0.36313 0.75954 0.0
H3922 H 0.82984 0.35363 0.76787 0.0
H3923 H 0.81803 0.32242 0.77529 0.0
C3924 C 0.82808 0.40769 0.78614 0.0
C3925 C 0.82148 0.41909 0.77339 0.0
C3926 C 0.82231 0.38864 0.78244 0.0
C3927 C 0.80983 0.38071 0.76595 0.0
C3928 C 0.80298 0.3921 0.7533 0.0
C3929 C 0.80891 0.41126 0.75693 0.0
C3930 C 0.7769 0.33616 0.76587 0.0
C3931 C 0.78932 0.3249 0.77111 0.0
C3932 C 0.78359 0.35403 0.7619 0.0
C3933 C 0.80274 0.3607 0.76345 0.0
C3934 C 0.815 0.34869 0.76672 0.0
C3935 C 0.8083 0.33086 0.77076 0.0
H3936 H 0.03547 0.89367 0.09224 0.0
H3937 H 0.05711 0.88008 0.03868 0.0
H3938 H 0.03209 0.92369 0.0824 0.0
H3939 H 0.05392 0.91032 0.02893 0.0
H3940 H 0.02931 0.96025 0.00901 0.0
H3941 H 0.03218 0.92973 0.01822 0.0
H3942 H 0.04901 0.95397 0.07768 0.0
H3943 H 0.04596 0.98437 0.06846 0.0
C3944 C 0.03947 0.89691 0.07828 0.0
C3945 C 0.04659 0.88395 0.06639 0.0
C3946 C 0.03769 0.91443 0.07266 0.0
C3947 C 0.04272 0.91989 0.05476 0.0
C3948 C 0.04969 0.90689 0.04276 0.0
C3949 C 0.05171 0.88942 0.0485 0.0
C3950 C 0.03352 0.95913 0.02409 0.0
C3951 C 0.03724 0.97511 0.0379 0.0
C3952 C 0.03536 0.94149 0.02941 0.0
C3953 C 0.04085 0.93895 0.04884 0.0
C3954 C 0.04454 0.95497 0.06262 0.0
C3955 C 0.0429 0.97261 0.05727 0.0
H3956 H 0.90342 0.23733 0.85529 0.0
H3957 H 0.91072 0.29518 0.87775 0.0
H3958 H 0.87515 0.2397 0.83528 0.0
H3959 H 0.88325 0.29755 0.85682 0.0
H3960 H 0.84459 0.29865 0.79976 0.0
H3961 H 0.87252 0.29533 0.82001 0.0
H3962 H 0.84209 0.24636 0.83932 0.0
H3963 H 0.81396 0.24997 0.81944 0.0
C3964 C 0.89918 0.25056 0.85619 0.0
C3965 C 0.90996 0.26606 0.8684 0.0
C3966 C 0.88287 0.25191 0.84449 0.0
C3967 C 0.87687 0.26887 0.84422 0.0
C3968 C 0.88752 0.28432 0.85634 0.0
C3969 C 0.90355 0.28291 0.86834 0.0
C3970 C 0.84381 0.28714 0.80828 0.0
C3971 C 0.82688 0.27463 0.80793 0.0
C3972 C 0.85986 0.28528 0.82 0.0
C3973 C 0.85968 0.27058 0.83141 0.0
C3974 C 0.84285 0.25781 0.83072 0.0
C3975 C 0.82666 0.25994 0.81937 0.0
H3976 H 0.52145 0.18217 0.5398 0.0
H3977 H 0.567 0.18157 0.58328 0.0
H3978 H 0.51827 0.14894 0.53087 0.0
H3979 H 0.56376 0.14843 0.57452 0.0
H3980 H 0.56403 0.09032 0.54625 0.0
H3981 H 0.56765 0.12368 0.55349 0.0
H3982 H 0.50888 0.11876 0.53798 0.0
H3983 H 0.50565 0.08543 0.52964 0.0
C3984 C 0.53076 0.17505 0.54765 0.0
C3985 C 0.54456 0.18506 0.56236 0.0
C3986 C 0.5289 0.15573 0.54249 0.0
C3987 C 0.5407 0.14544 0.55183 0.0
C3988 C 0.55451 0.1555 0.56652 0.0
C3989 C 0.5564 0.17479 0.57163 0.0
C3990 C 0.55195 0.0963 0.5439 0.0
C3991 C 0.53467 0.08481 0.53684 0.0
C3992 C 0.55392 0.11566 0.54847 0.0
C3993 C 0.5386 0.1245 0.54647 0.0
C3994 C 0.52123 0.11294 0.53952 0.0
C3995 C 0.51931 0.09357 0.53482 0.0
H3996 H 0.59656 0.74736 0.38502 0.0
H3997 H 0.58623 0.79936 0.368 0.0
H3998 H 0.62345 0.75023 0.3673 0.0
H3999 H 0.61364 0.8027 0.35119 0.0
H4000 H 0.65619 0.79945 0.30995 0.0
H4001 H 0.62705 0.79222 0.3239 0.0
H4002 H 0.65431 0.76688 0.36871 0.0
H4003 H 0.68323 0.7738 0.35429 0.0
C4004 C 0.59991 0.7594 0.37746 0.0
C4005 C 0.58904 0.77313 0.37811 0.0
C4006 C 0.61557 0.76116 0.36744 0.0
C4007 C 0.62094 0.77673 0.35771 0.0
C4008 C 0.60995 0.79036 0.3582 0.0
C4009 C 0.59429 0.78858 0.36818 0.0
C4010 C 0.65574 0.79189 0.32247 0.0
C4011 C 0.67187 0.78694 0.33087 0.0
C4012 C 0.63911 0.78797 0.33069 0.0
C4013 C 0.63819 0.77914 0.34769 0.0
C4014 C 0.65427 0.77353 0.35557 0.0
C4015 C 0.6709 0.77745 0.34731 0.0
H4016 H 0.05614 0.20738 0.40614 0.0
H4017 H 0.01288 0.22484 0.43604 0.0
H4018 H 0.05336 0.17989 0.42299 0.0
H4019 H 0.00965 0.19696 0.45234 0.0
H4020 H 0.01638 0.15099 0.48989 0.0
H4021 H 0.02393 0.18054 0.47645 0.0
H4022 H 0.03187 0.151 0.4223 0.0
H4023 H 0.02437 0.12172 0.43583 0.0
C4024 C 0.04611 0.2055 0.4164 0.0
C4025 C 0.0347 0.21849 0.41956 0.0
C4026 C 0.04438 0.18954 0.42596 0.0
C4027 C 0.03121 0.18602 0.43905 0.0
C4028 C 0.02007 0.19919 0.44254 0.0
C4029 C 0.02176 0.21513 0.43294 0.0
C4030 C 0.0202 0.15094 0.47529 0.0
C4031 C 0.01996 0.13407 0.46396 0.0
C4032 C 0.02429 0.16784 0.46747 0.0
C4033 C 0.02842 0.16828 0.44817 0.0
C4034 C 0.02896 0.15136 0.43723 0.0
C4035 C 0.02465 0.13452 0.44496 0.0
H4036 H 0.62518 0.28772 0.25413 0.0
H4037 H 0.62408 0.23746 0.21651 0.0
H4038 H 0.65843 0.29091 0.2627 0.0
H4039 H 0.65723 0.24058 0.22522 0.0
H4040 H 0.71535 0.24233 0.25584 0.0
H4041 H 0.68195 0.23883 0.2487 0.0
H4042 H 0.68822 0.29824 0.25231 0.0
H4043 H 0.72164 0.30159 0.26013 0.0
C4044 C 0.6319 0.27735 0.2475 0.0
C4045 C 0.62142 0.2623 0.23446 0.0
C4046 C 0.65121 0.2792 0.25248 0.0
C4047 C 0.66099 0.26607 0.24473 0.0
C4048 C 0.65049 0.25093 0.23188 0.0
C4049 C 0.63121 0.24911 0.22684 0.0
C4050 C 0.70969 0.25466 0.25546 0.0
C4051 C 0.72157 0.2722 0.25892 0.0
C4052 C 0.69032 0.25267 0.25103 0.0
C4053 C 0.6819 0.26821 0.24982 0.0
C4054 C 0.69381 0.28582 0.25329 0.0
C4055 C 0.71319 0.28776 0.25766 0.0
H4056 H 0.51273 0.89711 0.91821 0.0
H4057 H 0.56996 0.90258 0.94204 0.0
H4058 H 0.51062 0.92446 0.93949 0.0
H4059 H 0.56791 0.93075 0.96241 0.0
H4060 H 0.55908 0.99231 0.97928 0.0
H4061 H 0.56237 0.96431 0.95891 0.0
H4062 H 0.51217 0.93443 0.97635 0.0
H4063 H 0.50918 0.9622 0.99708 0.0
C4064 C 0.52491 0.90385 0.92799 0.0
C4065 C 0.54151 0.89698 0.9282 0.0
C4066 C 0.52366 0.91981 0.94019 0.0
C4067 C 0.53905 0.92992 0.9528 0.0
C4068 C 0.55577 0.92346 0.95282 0.0
C4069 C 0.55694 0.90721 0.94091 0.0
C4070 C 0.54877 0.97975 0.97882 0.0
C4071 C 0.53384 0.97962 0.98987 0.0
C4072 C 0.55071 0.96364 0.9672 0.0
C4073 C 0.53751 0.94701 0.96585 0.0
C4074 C 0.52256 0.94694 0.97687 0.0
C4075 C 0.52089 0.96289 0.98886 0.0
H4076 H 0.93145 0.78783 0.74412 0.0
H4077 H 0.90922 0.73085 0.7211 0.0
H4078 H 0.90127 0.79099 0.75365 0.0
H4079 H 0.87916 0.73395 0.73102 0.0
H4080 H 0.82186 0.75098 0.73299 0.0
H4081 H 0.85212 0.74729 0.72406 0.0
H4082 H 0.87861 0.78288 0.7759 0.0
H4083 H 0.8483 0.78582 0.78523 0.0
C4084 C 0.92023 0.77589 0.74097 0.0
C4085 C 0.92329 0.75904 0.73161 0.0
C4086 C 0.90274 0.77769 0.74671 0.0
C4087 C 0.88731 0.76279 0.74321 0.0
C4088 C 0.89036 0.74593 0.7339 0.0
C4089 C 0.90789 0.74408 0.72834 0.0
C4090 C 0.83406 0.75797 0.74264 0.0
C4091 C 0.83219 0.769 0.75982 0.0
C4092 C 0.85163 0.75581 0.73747 0.0
C4093 C 0.86828 0.76484 0.74905 0.0
C4094 C 0.86641 0.77585 0.76626 0.0
C4095 C 0.8488 0.77766 0.77164 0.0
H4096 H 0.09677 0.00902 0.88602 0.0
H4097 H 0.07031 0.05516 0.87646 0.0
H4098 H 0.08389 0.00659 0.91659 0.0
H4099 H 0.05846 0.05352 0.90762 0.0
H4100 H 0.02503 0.03632 0.95609 0.0
H4101 H 0.03681 0.03715 0.92483 0.0
H4102 H 0.0861 0.02003 0.94887 0.0
H4103 H 0.07381 0.01836 0.97995 0.0
C4104 C 0.08817 0.01866 0.89034 0.0
C4105 C 0.08464 0.03228 0.8785 0.0
C4106 C 0.08098 0.01744 0.90816 0.0
C4107 C 0.07009 0.02988 0.91487 0.0
C4108 C 0.06654 0.04348 0.90301 0.0
C4109 C 0.07362 0.04461 0.88514 0.0
C4110 C 0.03834 0.0326 0.95472 0.0
C4111 C 0.0484 0.02722 0.97066 0.0
C4112 C 0.04523 0.03326 0.93673 0.0
C4113 C 0.06255 0.02876 0.93409 0.0
C4114 C 0.07261 0.02335 0.95007 0.0
C4115 C 0.06562 0.02252 0.96804 0.0
H4116 H 0.80213 0.34862 0.57066 0.0
H4117 H 0.76856 0.37953 0.60272 0.0
H4118 H 0.80596 0.33063 0.59745 0.0
H4119 H 0.77184 0.36096 0.62957 0.0
H4120 H 0.81097 0.34596 0.6805 0.0
H4121 H 0.79804 0.35991 0.65341 0.0
H4122 H 0.79138 0.30805 0.6164 0.0
H4123 H 0.80482 0.29432 0.64342 0.0
C4124 C 0.79532 0.35132 0.58338 0.0
C4125 C 0.78529 0.36559 0.58481 0.0
C4126 C 0.79729 0.34086 0.59863 0.0
C4127 C 0.78921 0.3444 0.61564 0.0
C4128 C 0.77835 0.35806 0.61669 0.0
C4129 C 0.77635 0.36856 0.60132 0.0
C4130 C 0.80653 0.33753 0.6666 0.0
C4131 C 0.80925 0.31924 0.66382 0.0
C4132 C 0.79897 0.34544 0.65116 0.0
C4133 C 0.79388 0.33511 0.63273 0.0
C4134 C 0.79554 0.31644 0.63034 0.0
C4135 C 0.80329 0.30861 0.64573 0.0
H4136 H 0.43173 0.03631 0.40411 0.0
H4137 H 0.46712 0.0096 0.37017 0.0
H4138 H 0.4546 0.0404 0.43259 0.0
H4139 H 0.4905 0.01426 0.39854 0.0
H4140 H 0.51234 1.00355 0.46054 0.0
H4141 H 0.49414 1.00236 0.42917 0.0
H4142 H 0.48464 0.0574 0.4458 0.0
H4143 H 0.5021 0.05806 0.47755 0.0
C4144 C 0.44457 0.03155 0.40279 0.0
C4145 C 0.44781 0.02264 0.38518 0.0
C4146 C 0.45772 0.03402 0.41897 0.0
C4147 C 0.47442 0.02785 0.41768 0.0
C4148 C 0.47769 0.01903 0.39994 0.0
C4149 C 0.46439 0.01635 0.38379 0.0
C4150 C 0.50665 0.01549 0.45723 0.0
C4151 C 0.50829 0.03081 0.47127 0.0
C4152 C 0.49631 0.01487 0.4393 0.0
C4153 C 0.48778 0.0297 0.4352 0.0
C4154 C 0.4907 0.0456 0.44881 0.0
C4155 C 0.50072 0.04605 0.46685 0.0
H4156 H 0.80195 0.72101 0.12455 0.0
H4157 H 0.74669 0.7312 0.11198 0.0
H4158 H 0.80258 0.73351 0.1584 0.0
H4159 H 0.74723 0.74323 0.14589 0.0
H4160 H 0.74707 0.74339 0.21208 0.0
H4161 H 0.74703 0.732 0.17803 0.0
H4162 H 0.80301 0.76237 0.17983 0.0
H4163 H 0.80284 0.77411 0.21383 0.0
C4164 C 0.78999 0.72607 0.12885 0.0
C4165 C 0.77422 0.7249 0.11528 0.0
C4166 C 0.79034 0.73321 0.14838 0.0
C4167 C 0.7749 0.73928 0.15502 0.0
C4168 C 0.75926 0.73837 0.14145 0.0
C4169 C 0.75895 0.73139 0.12191 0.0
C4170 C 0.75925 0.7479 0.20519 0.0
C4171 C 0.77475 0.76001 0.21573 0.0
C4172 C 0.75927 0.74131 0.1856 0.0
C4173 C 0.77497 0.74633 0.17601 0.0
C4174 C 0.79068 0.7581 0.18668 0.0
C4175 C 0.79055 0.7649 0.20622 0.0
H4176 H 0.10567 0.05268 0.67432 0.0
H4177 H 0.05723 0.01301 0.68229 0.0
H4178 H 0.09383 0.05206 0.64044 0.0
H4179 H 0.0449 0.01281 0.64846 0.0
H4180 H 0.03405 1.00393 0.58236 0.0
H4181 H 0.0465 1.00365 0.61598 0.0
H4182 H 0.07294 0.06125 0.61877 0.0
H4183 H 0.06169 0.0609 0.58479 0.0
C4184 C 0.09233 0.04398 0.6689 0.0
C4185 C 0.0824 0.03297 0.68117 0.0
C4186 C 0.08543 0.04367 0.64936 0.0
C4187 C 0.06823 0.03249 0.64141 0.0
C4188 C 0.05831 0.02141 0.65374 0.0
C4189 C 0.06535 0.02157 0.67327 0.0
C4190 C 0.04259 0.01653 0.59013 0.0
C4191 C 0.04659 0.03258 0.58082 0.0
C4192 C 0.04963 0.01643 0.60959 0.0
C4193 C 0.06074 0.03246 0.62047 0.0
C4194 C 0.06472 0.04848 0.61104 0.0
C4195 C 0.05796 0.04844 0.5915 0.0
H4196 H 0.76986 0.37568 0.39371 0.0
H4197 H 0.7959 0.33939 0.42705 0.0
H4198 H 0.76575 0.3532 0.36488 0.0
H4199 H 0.79112 0.31637 0.3984 0.0
H4200 H 0.80272 0.295 0.33705 0.0
H4201 H 0.80349 0.31315 0.3683 0.0
H4202 H 0.7491 0.32357 0.35041 0.0
H4203 H 0.74888 0.30616 0.31872 0.0
C4204 C 0.77444 0.36272 0.39482 0.0
C4205 C 0.78325 0.35915 0.41235 0.0
C4206 C 0.77195 0.34978 0.37843 0.0
C4207 C 0.77799 0.33297 0.37944 0.0
C4208 C 0.78652 0.3293 0.39716 0.0
C4209 C 0.78926 0.34239 0.4135 0.0
C4210 C 0.79082 0.30091 0.34002 0.0
C4211 C 0.77581 0.29946 0.32566 0.0
C4212 C 0.7912 0.31122 0.3579 0.0
C4213 C 0.77642 0.31992 0.3617 0.0
C4214 C 0.76086 0.31736 0.34768 0.0
C4215 C 0.76066 0.30736 0.32967 0.0
H4216 H 0.42976 0.04186 0.19868 0.0
H4217 H 0.45618 1.00181 0.2255 0.0
H4218 H 0.44619 0.03774 0.17036 0.0
H4219 H 0.47208 0.99727 0.1971 0.0
H4220 H 0.50349 0.99562 0.14634 0.0
H4221 H 0.49459 0.01046 0.17603 0.0
H4222 H 0.44081 0.0104 0.14545 0.0
H4223 H 0.4499 0.99574 0.11592 0.0
C4224 C 0.43939 0.03251 0.19869 0.0
C4225 C 0.44152 0.02193 0.21407 0.0
C4226 C 0.44868 0.03007 0.18248 0.0
C4227 C 0.46025 0.01707 0.18149 0.0
C4228 C 0.46338 0.00751 0.19751 0.0
C4229 C 0.4541 0.00992 0.21366 0.0
C4230 C 0.48989 0.99907 0.14608 0.0
C4231 C 0.47717 0.99439 0.12924 0.0
C4232 C 0.48482 0.00754 0.16293 0.0
C4233 C 0.467 0.01148 0.16303 0.0
C4234 C 0.4547 0.0077 0.14575 0.0
C4235 C 0.45975 0.99913 0.12896 0.0
H4236 H 0.74402 0.71302 0.90723 0.0
H4237 H 0.80301 0.73188 0.92294 0.0
H4238 H 0.74628 0.72616 0.87668 0.0
H4239 H 0.8052 0.74412 0.89185 0.0
H4240 H 0.80127 0.74279 0.82333 0.0
H4241 H 0.79973 0.73074 0.85485 0.0
H4242 H 0.7551 0.75891 0.86552 0.0
H4243 H 0.75706 0.7714 0.83438 0.0
C4244 C 0.75747 0.72006 0.90439 0.0
C4245 C 0.77331 0.72127 0.91791 0.0
C4246 C 0.75875 0.7275 0.8867 0.0
C4247 C 0.77593 0.73613 0.88174 0.0
C4248 C 0.79178 0.73735 0.89509 0.0
C4249 C 0.79048 0.73019 0.91295 0.0
C4250 C 0.79118 0.74642 0.83245 0.0
C4251 C 0.77932 0.75806 0.82638 0.0
C4252 C 0.79035 0.7396 0.85054 0.0
C4253 C 0.77726 0.74382 0.86272 0.0
C4254 C 0.76528 0.75532 0.85649 0.0
C4255 C 0.76647 0.76254 0.8387 0.0
H4256 H 0.83479 0.05599 0.02515 0.0
H4257 H 0.86703 0.09739 0.06979 0.0
H4258 H 0.86275 0.04512 0.018 0.0
H4259 H 0.89523 0.08658 0.06249 0.0
H4260 H 0.91478 0.02442 0.01445 0.0
H4261 H 0.89064 0.03173 0.03338 0.0
H4262 H 0.90831 0.08977 0.02809 0.0
H4263 H 0.93287 0.0826 0.00945 0.0
C4264 C 0.84783 0.06229 0.03384 0.0
C4265 C 0.84897 0.07748 0.04793 0.0
C4266 C 0.86375 0.05608 0.02983 0.0
C4267 C 0.881 0.06513 0.03971 0.0
C4268 C 0.88199 0.07948 0.05475 0.0
C4269 C 0.86596 0.08554 0.05898 0.0
C4270 C 0.91386 0.0388 0.01775 0.0
C4271 C 0.92559 0.05297 0.01037 0.0
C4272 C 0.90007 0.04292 0.02856 0.0
C4273 C 0.89781 0.06125 0.03218 0.0
C4274 C 0.91006 0.07555 0.02567 0.0
C4275 C 0.92385 0.07143 0.01478 0.0
H4276 H 0.39569 0.42933 0.01252 0.0
H4277 H 0.38394 0.46928 0.0567 0.0
H4278 H 0.42518 0.44959 0.01039 0.0
H4279 H 0.41376 0.48933 0.05483 0.0
H4280 H 0.47862 0.50791 0.05993 0.0
H4281 H 0.44774 0.48981 0.06214 0.0
H4282 H 0.43735 0.48026 0.99952 0.0
H4283 H 0.46811 0.49875 0.99747 0.0
C4284 C 0.39925 0.44249 0.02168 0.0
C4285 C 0.38719 0.44762 0.03468 0.0
C4286 C 0.41624 0.45412 0.02046 0.0
C4287 C 0.42183 0.47119 0.03232 0.0
C4288 C 0.40996 0.47624 0.04555 0.0
C4289 C 0.39286 0.46466 0.04667 0.0
C4290 C 0.46954 0.5022 0.04669 0.0
C4291 C 0.47559 0.50482 0.02855 0.0
C4292 C 0.45187 0.49185 0.04792 0.0
C4293 C 0.44006 0.48346 0.03101 0.0
C4294 C 0.44611 0.4864 0.01284 0.0
C4295 C 0.46362 0.49713 0.01163 0.0
H4296 H 0.36009 0.58574 0.7933 0.0
H4297 H 0.37833 0.60456 0.74047 0.0
H4298 H 0.3427 0.61038 0.79648 0.0
H4299 H 0.36027 0.62901 0.74334 0.0
H4300 H 0.34533 0.68385 0.77463 0.0
H4301 H 0.36033 0.65822 0.76438 0.0
H4302 H 0.31536 0.61943 0.7814 0.0
H4303 H 0.30075 0.64505 0.79188 0.0
C4304 C 0.36042 0.59513 0.78233 0.0
C4305 C 0.37072 0.59313 0.76667 0.0
C4306 C 0.35018 0.60914 0.784 0.0
C4307 C 0.34988 0.6216 0.77004 0.0
C4308 C 0.3602 0.61968 0.75436 0.0
C4309 C 0.37043 0.60556 0.75265 0.0
C4310 C 0.33838 0.66976 0.77543 0.0
C4311 C 0.32185 0.66635 0.7839 0.0
C4312 C 0.34699 0.65508 0.76969 0.0
C4313 C 0.33925 0.63678 0.77247 0.0
C4314 C 0.32193 0.63337 0.77946 0.0
C4315 C 0.31339 0.64799 0.78519 0.0
H4316 H 0.16856 0.58094 0.50176 0.0
H4317 H 0.17899 0.54802 0.54806 0.0
H4318 H 0.13594 0.56717 0.49837 0.0
H4319 H 0.14595 0.53525 0.54559 0.0
H4320 H 0.08618 0.50784 0.52911 0.0
H4321 H 0.11893 0.51597 0.52512 0.0
H4322 H 0.11325 0.57241 0.51976 0.0
H4323 H 0.0806 0.56421 0.52318 0.0
C4324 C 0.16397 0.57047 0.51094 0.0
C4325 C 0.17632 0.56551 0.52517 0.0
C4326 C 0.14524 0.56279 0.50917 0.0
C4327 C 0.1385 0.55033 0.52183 0.0
C4328 C 0.15088 0.54472 0.53551 0.0
C4329 C 0.16972 0.5522 0.53711 0.0
C4330 C 0.09195 0.5219 0.52678 0.0
C4331 C 0.08103 0.53546 0.52647 0.0
C4332 C 0.11061 0.52653 0.52458 0.0
C4333 C 0.11851 0.54476 0.52211 0.0
C4334 C 0.1074 0.55815 0.52126 0.0
C4335 C 0.08876 0.55351 0.52334 0.0
H4336 H 0.70827 0.94114 0.72543 0.0
H4337 H 0.75439 0.97359 0.7646 0.0
H4338 H 0.71871 0.9128 0.73239 0.0
H4339 H 0.76453 0.94547 0.77202 0.0
H4340 H 0.78121 0.89343 0.78231 0.0
H4341 H 0.77539 0.91745 0.76259 0.0
H4342 H 0.71653 0.89944 0.7633 0.0
H4343 H 0.72231 0.87463 0.78212 0.0
C4344 C 0.72101 0.9422 0.73494 0.0
C4345 C 0.73045 0.95935 0.74474 0.0
C4346 C 0.72686 0.92604 0.73908 0.0
C4347 C 0.74219 0.92696 0.75299 0.0
C4348 C 0.75271 0.94432 0.76115 0.0
C4349 C 0.74688 0.96042 0.75702 0.0
C4350 C 0.767 0.89429 0.77785 0.0
C4351 C 0.75218 0.88223 0.78383 0.0
C4352 C 0.76371 0.90808 0.76663 0.0
C4353 C 0.74555 0.91027 0.76142 0.0
C4354 C 0.73068 0.89786 0.76685 0.0
C4355 C 0.73397 0.88392 0.77795 0.0
H4356 H 0.71536 0.94223 0.49933 0.0
H4357 H 0.70391 0.93134 0.55709 0.0
H4358 H 0.68888 0.95731 0.49596 0.0
H4359 H 0.67797 0.9472 0.55404 0.0
H4360 H 0.6186 0.95193 0.52919 0.0
H4361 H 0.6474 0.94108 0.53657 0.0
H4362 H 0.67614 0.98391 0.50653 0.0
H4363 H 0.64706 0.99456 0.49907 0.0
C4364 C 0.70727 0.9431 0.51136 0.0
C4365 C 0.71176 0.93534 0.52841 0.0
C4366 C 0.69221 0.95203 0.50953 0.0
C4367 C 0.68119 0.95348 0.52471 0.0
C4368 C 0.68597 0.94617 0.54195 0.0
C4369 C 0.70102 0.93721 0.54377 0.0
C4370 C 0.6312 0.95921 0.52455 0.0
C4371 C 0.63072 0.97409 0.51369 0.0
C4372 C 0.64773 0.95305 0.52879 0.0
C4373 C 0.66415 0.96152 0.52205 0.0
C4374 C 0.66374 0.9769 0.51175 0.0
C4375 C 0.64718 0.98315 0.50764 0.0
H4376 H 0.33748 0.42866 0.7748 0.0
H4377 H 0.37606 0.40194 0.74601 0.0
H4378 H 0.31808 0.39855 0.77653 0.0
H4379 H 0.35723 0.37178 0.74843 0.0
H4380 H 0.31336 0.31984 0.74047 0.0
H4381 H 0.33057 0.35044 0.73716 0.0
H4382 H 0.31459 0.37178 0.79159 0.0
H4383 H 0.29651 0.34117 0.79424 0.0
C4384 C 0.34188 0.41631 0.76894 0.0
C4385 C 0.35831 0.41774 0.7602 0.0
C4386 C 0.33079 0.39896 0.77004 0.0
C4387 C 0.33592 0.38247 0.76267 0.0
C4388 C 0.35243 0.384 0.75392 0.0
C4389 C 0.36335 0.40136 0.75257 0.0
C4390 C 0.3134 0.33111 0.75167 0.0
C4391 C 0.30353 0.32805 0.76761 0.0
C4392 C 0.32347 0.34872 0.74988 0.0
C4393 C 0.3243 0.36381 0.76419 0.0
C4394 C 0.31417 0.36073 0.78006 0.0
C4395 C 0.30381 0.34311 0.78167 0.0
H4396 H 0.25442 0.63168 0.24721 0.0
H4397 H 0.2204 0.638 0.29338 0.0
H4398 H 0.2673 0.66484 0.25277 0.0
H4399 H 0.23392 0.67089 0.29953 0.0
H4400 H 0.24216 0.73009 0.27872 0.0
H4401 H 0.23164 0.6973 0.28114 0.0
H4402 H 0.28729 0.68827 0.2778 0.0
H4403 H 0.29775 0.721 0.27513 0.0
C4404 C 0.24989 0.64012 0.25866 0.0
C4405 C 0.23658 0.63233 0.26998 0.0
C4406 C 0.2574 0.65899 0.26202 0.0
C4407 C 0.25172 0.67025 0.27676 0.0
C4408 C 0.23852 0.66243 0.28814 0.0
C4409 C 0.23096 0.64362 0.28473 0.0
C4410 C 0.25221 0.72119 0.27915 0.0
C4411 C 0.27063 0.72782 0.27643 0.0
C4412 C 0.24622 0.70246 0.28051 0.0
C4413 C 0.25865 0.69032 0.27925 0.0
C4414 C 0.27742 0.69736 0.27836 0.0
C4415 C 0.28338 0.71603 0.27696 0.0
H4416 H 0.52016 0.68099 0.51222 0.0
H4417 H 0.50481 0.65609 0.45288 0.0
H4418 H 0.52375 0.65108 0.522 0.0
H4419 H 0.50917 0.62641 0.46226 0.0
H4420 H 0.50564 0.56997 0.48315 0.0
H4421 H 0.50136 0.59985 0.47434 0.0
H4422 H 0.5371 0.62675 0.52617 0.0
H4423 H 0.53983 0.59659 0.53566 0.0
C4424 C 0.5177 0.66919 0.50112 0.0
C4425 C 0.51199 0.67134 0.48166 0.0
C4426 C 0.51988 0.65175 0.50676 0.0
C4427 C 0.51674 0.63555 0.49317 0.0
C4428 C 0.51132 0.63791 0.47363 0.0
C4429 C 0.50886 0.65526 0.46808 0.0
C4430 C 0.51258 0.58222 0.49278 0.0
C4431 C 0.52343 0.58045 0.51007 0.0
C4432 C 0.51029 0.59972 0.48755 0.0
C4433 C 0.51902 0.61651 0.49917 0.0
C4434 C 0.52983 0.61464 0.51658 0.0
C4435 C 0.53175 0.59706 0.52201 0.0
H4436 H 0.63805 0.29759 0.70454 0.0
H4437 H 0.66466 0.28474 0.65405 0.0
H4438 H 0.66607 0.29611 0.72554 0.0
H4439 H 0.69257 0.28296 0.67508 0.0
H4440 H 0.74637 0.29991 0.7184 0.0
H4441 H 0.7185 0.30183 0.69736 0.0
H4442 H 0.68463 0.27427 0.73674 0.0
H4443 H 0.71241 0.2719 0.75748 0.0
C4444 C 0.64986 0.29453 0.69783 0.0
C4445 C 0.64886 0.29133 0.67742 0.0
C4446 C 0.66597 0.29349 0.70996 0.0
C4447 C 0.6818 0.2894 0.70217 0.0
C4448 C 0.68085 0.28632 0.68176 0.0
C4449 C 0.66467 0.28716 0.66963 0.0
C4450 C 0.73301 0.29417 0.72261 0.0
C4451 C 0.73189 0.28585 0.73991 0.0
C4452 C 0.71693 0.29525 0.71044 0.0
C4453 C 0.6991 0.28827 0.71521 0.0
C4454 C 0.69799 0.28009 0.73259 0.0
C4455 C 0.71405 0.27879 0.74462 0.0
H4456 H 0.04443 0.37648 0.98981 0.0
H4457 H 0.98481 0.369 0.98079 0.0
H4458 H 0.04669 0.40964 0.99826 0.0
H4459 H 0.98725 0.40204 0.99018 0.0
H4460 H 0.99973 0.46052 0.02738 0.0
H4461 H 0.99704 0.42724 0.01893 0.0
H4462 H 0.0409 0.43788 0.98293 0.0
H4463 H 0.04287 0.47121 0.99054 0.0
C4464 C 0.03172 0.38169 0.98946 0.0
C4465 C 0.01439 0.36943 0.98434 0.0
C4466 C 0.03307 0.40093 0.99447 0.0
C4467 C 0.01718 0.40882 0.99494 0.0
C4468 C 0.99987 0.39664 0.99023 0.0
C4469 C 0.99849 0.37744 0.9849 0.0
C4470 C 0.00852 0.45593 0.01731 0.0
C4471 C 0.02111 0.46898 0.00929 0.0
C4472 C 0.00707 0.43665 0.01252 0.0
C4473 C 0.01866 0.42956 1.00007 0.0
C4474 C 0.03168 0.44259 0.99255 0.0
C4475 C 0.03275 0.46186 0.99689 0.0
H4476 H 0.97996 0.80455 0.19004 0.0
H4477 H 0.95322 0.7564 0.15012 0.0
H4478 H 0.953 0.80132 0.20778 0.0
H4479 H 0.92651 0.75287 0.16822 0.0
H4480 H 0.8746 0.75789 0.19703 0.0
H4481 H 0.8999 0.76569 0.17716 0.0
H4482 H 0.93879 0.78077 0.22932 0.0
H4483 H 0.91358 0.77296 0.24892 0.0
C4484 C 0.96832 0.79333 0.18491 0.0
C4485 C 0.969 0.78067 0.16862 0.0
C4486 C 0.95285 0.79138 0.19524 0.0
C4487 C 0.93747 0.77676 0.18959 0.0
C4488 C 0.93794 0.7644 0.173 0.0
C4489 C 0.95345 0.76629 0.16273 0.0
C4490 C 0.88851 0.76326 0.20419 0.0
C4491 C 0.89208 0.76487 0.22456 0.0
C4492 C 0.90307 0.76754 0.19282 0.0
C4493 C 0.92154 0.77377 0.20154 0.0
C4494 C 0.92484 0.77618 0.22198 0.0
C4495 C 0.91037 0.77167 0.23327 0.0
H4496 H 0.50359 0.34812 0.13911 0.0
H4497 H 0.54578 0.32867 0.10908 0.0
H4498 H 0.50638 0.3749 0.12098 0.0
H4499 H 0.54908 0.35566 0.09161 0.0
H4500 H 0.54458 0.39837 0.05165 0.0
H4501 H 0.53538 0.37031 0.06691 0.0
H4502 H 0.52656 0.40373 0.11824 0.0
H4503 H 0.53536 0.4317 0.10256 0.0
C4504 C 0.5134 0.34944 0.12859 0.0
C4505 C 0.52447 0.33607 0.12571 0.0
C4506 C 0.51514 0.36498 0.11828 0.0
C4507 C 0.52793 0.36762 0.10465 0.0
C4508 C 0.53884 0.35413 0.10167 0.0
C4509 C 0.53714 0.33867 0.11198 0.0
C4510 C 0.53997 0.39962 0.06589 0.0
C4511 C 0.54032 0.41723 0.07571 0.0
C4512 C 0.53503 0.38354 0.07486 0.0
C4513 C 0.53051 0.38458 0.09407 0.0
C4514 C 0.5298 0.4022 0.10344 0.0
C4515 C 0.53473 0.41831 0.09441 0.0
H4516 H 0.93826 0.31441 0.29479 0.0
H4517 H 0.92769 0.26878 0.32874 0.0
H4518 H 0.90509 0.31215 0.2869 0.0
H4519 H 0.89466 0.26578 0.31991 0.0
H4520 H 0.83478 0.27357 0.31632 0.0
H4521 H 0.86804 0.27655 0.32433 0.0
H4522 H 0.87685 0.2975 0.26969 0.0
H4523 H 0.84355 0.29475 0.26195 0.0
C4524 C 0.92899 0.30383 0.30064 0.0
C4525 C 0.93621 0.29186 0.31259 0.0
C4526 C 0.90969 0.30234 0.29582 0.0
C4527 C 0.89662 0.28878 0.30268 0.0
C4528 C 0.90386 0.27669 0.31445 0.0
C4529 C 0.92313 0.27823 0.31932 0.0
C4530 C 0.84376 0.27883 0.30596 0.0
C4531 C 0.83613 0.28405 0.28849 0.0
C4532 C 0.86307 0.28045 0.31052 0.0
C4533 C 0.87571 0.28726 0.29777 0.0
C4534 C 0.868 0.29249 0.28025 0.0
C4535 C 0.84867 0.2909 0.27572 0.0
H4536 H 0.98879 0.64326 0.62221 0.0
H4537 H 0.04418 0.66792 0.61258 0.0
H4538 H 0.99061 0.61528 0.60148 0.0
H4539 H 0.04645 0.6397 0.59299 0.0
H4540 H 0.04208 0.59344 0.54442 0.0
H4541 H 0.0385 0.62127 0.56385 0.0
H4542 H 1.00214 0.58808 0.59724 0.0
H4543 H 1.00486 0.56015 0.57679 0.0
C4544 C 1.0014 0.64284 0.61572 0.0
C4545 C 0.01632 0.65819 0.61934 0.0
C4546 C 1.00256 0.62651 0.60393 0.0
C4547 C 0.0187 0.62483 0.59527 0.0
C4548 C 0.03359 0.64021 0.59893 0.0
C4549 C 0.0324 0.65652 0.6106 0.0
C4550 C 0.03304 0.59196 0.55567 0.0
C4551 C 0.02362 0.57428 0.5587 0.0
C4552 C 0.0312 0.6081 0.56717 0.0
C4553 C 0.0201 0.60732 0.58251 0.0
C4554 C 0.01063 0.58959 0.58554 0.0
C4555 C 0.01231 0.57341 0.57382 0.0
H4556 H 0.63124 0.76607 0.81358 0.0
H4557 H 0.64687 0.82538 0.81477 0.0
H4558 H 0.6611 0.7627 0.80349 0.0
H4559 H 0.67694 0.8219 0.80527 0.0
H4560 H 0.73691 0.80999 0.8074 0.0
H4561 H 0.70666 0.81394 0.81622 0.0
H4562 H 0.68064 0.76518 0.77702 0.0
H4563 H 0.71077 0.7619 0.76755 0.0
C4564 C 0.64081 0.77849 0.81158 0.0
C4565 C 0.63603 0.79608 0.8152 0.0
C4566 C 0.65821 0.7765 0.80578 0.0
C4567 C 0.67186 0.79198 0.8035 0.0
C4568 C 0.66716 0.80955 0.80709 0.0
C4569 C 0.64968 0.81154 0.81268 0.0
C4570 C 0.72481 0.80013 0.8005 0.0
C4571 C 0.7268 0.78538 0.78686 0.0
C4572 C 0.70725 0.80242 0.80559 0.0
C4573 C 0.6908 0.78982 0.79759 0.0
C4574 C 0.69276 0.7751 0.78389 0.0
C4575 C 0.71029 0.77312 0.77846 0.0
H4576 H 0.5013 0.53129 0.67979 0.0
H4577 H 0.44709 0.50855 0.64874 0.0
H4578 H 0.5138 0.53471 0.649 0.0
H4579 H 0.45973 0.51149 0.61793 0.0
H4580 H 0.48523 0.5366 0.56628 0.0
H4581 H 0.47246 0.53436 0.59722 0.0
H4582 H 0.521 0.51605 0.62118 0.0
H4583 H 0.53367 0.51823 0.59046 0.0
C4584 C 0.49199 0.52704 0.66643 0.0
C4585 C 0.47312 0.51961 0.66693 0.0
C4586 C 0.49923 0.52884 0.64869 0.0
C4587 C 0.48783 0.52338 0.63083 0.0
C4588 C 0.46895 0.51603 0.63132 0.0
C4589 C 0.46172 0.51412 0.64906 0.0
C4590 C 0.4932 0.53215 0.57816 0.0
C4591 C 0.51057 0.52773 0.57576 0.0
C4592 C 0.48582 0.53076 0.59592 0.0
C4593 C 0.49567 0.52505 0.61185 0.0
C4594 C 0.51308 0.52076 0.60944 0.0
C4595 C 0.52036 0.52199 0.5917 0.0
H4596 H 0.75913 0.20762 0.97568 0.0
H4597 H 0.79422 0.17509 0.94817 0.0
H4598 H 0.75488 0.22241 0.9463 0.0
H4599 H 0.79022 0.19015 0.91883 0.0
H4600 H 0.74463 0.19274 0.86686 0.0
H4601 H 0.75985 0.18476 0.89668 0.0
H4602 H 0.76961 0.24202 0.92183 0.0
H4603 H 0.75446 0.24998 0.89175 0.0
C4604 C 0.7663 0.20401 0.96349 0.0
C4605 C 0.77674 0.19005 0.96398 0.0
C4606 C 0.76404 0.21259 0.94679 0.0
C4607 C 0.77211 0.20725 0.93032 0.0
C4608 C 0.78376 0.19436 0.93135 0.0
C4609 C 0.78611 0.18584 0.94812 0.0
C4610 C 0.75022 0.20358 0.87873 0.0
C4611 C 0.74822 0.22184 0.87733 0.0
C4612 C 0.75912 0.19912 0.89564 0.0
C4613 C 0.76591 0.21282 0.91147 0.0
C4614 C 0.76448 0.23125 0.90978 0.0
C4615 C 0.75581 0.23577 0.89271 0.0
H4616 H 0.12923 0.52065 0.1426 0.0
H4617 H 0.0942 0.5487 0.17567 0.0
H4618 H 0.10827 0.51967 0.11308 0.0
H4619 H 0.07264 0.54705 0.14631 0.0
H4620 H 0.04942 0.55704 0.08532 0.0
H4621 H 0.06993 0.55929 0.11562 0.0
H4622 H 0.07804 0.50362 0.09966 0.0
H4623 H 0.05839 0.50183 0.06923 0.0
C4624 C 0.11691 0.52644 0.14345 0.0
C4625 C 0.11312 0.53468 0.16115 0.0
C4626 C 0.10489 0.52583 0.12668 0.0
C4627 C 0.08875 0.53313 0.1275 0.0
C4628 C 0.08508 0.54151 0.14527 0.0
C4629 C 0.09729 0.54238 0.162 0.0
C4630 C 0.05554 0.54532 0.08852 0.0
C4631 C 0.05262 0.52937 0.07512 0.0
C4632 C 0.06719 0.54656 0.10577 0.0
C4633 C 0.07572 0.5317 0.10983 0.0
C4634 C 0.07206 0.51547 0.09666 0.0
C4635 C 0.06074 0.51438 0.07934 0.0
H4636 H 0.7724 0.85002 0.41838 0.0
H4637 H 0.79584 0.80431 0.43599 0.0
H4638 H 0.77229 0.83854 0.38455 0.0
H4639 H 0.79488 0.79205 0.40202 0.0
H4640 H 0.80556 0.78171 0.3387 0.0
H4641 H 0.80638 0.79293 0.3729 0.0
H4642 H 0.75954 0.81832 0.35839 0.0
H4643 H 0.76021 0.80868 0.3244 0.0
C4644 C 0.77723 0.83727 0.41501 0.0
C4645 C 0.78409 0.82812 0.43002 0.0
C4646 C 0.7771 0.83053 0.39543 0.0
C4647 C 0.78347 0.81412 0.39006 0.0
C4648 C 0.79015 0.80486 0.40521 0.0
C4649 C 0.7906 0.81184 0.42483 0.0
C4650 C 0.79571 0.79 0.34278 0.0
C4651 C 0.78312 0.79465 0.32851 0.0
C4652 C 0.79593 0.79626 0.3626 0.0
C4653 C 0.78317 0.80691 0.36888 0.0
C4654 C 0.77012 0.81083 0.35452 0.0
C4655 C 0.7703 0.80504 0.33479 0.0
H4656 H 0.48939 0.54998 0.87036 0.0
H4657 H 0.47017 0.4908 0.86725 0.0
H4658 H 0.50153 0.55099 0.90438 0.0
H4659 H 0.48305 0.49187 0.901 0.0
H4660 H 0.5252 0.50028 0.95736 0.0
H4661 H 0.51423 0.49906 0.92286 0.0
H4662 H 0.48836 0.54564 0.93597 0.0
H4663 H 0.4986 0.54633 0.97036 0.0
C4664 C 0.48766 0.53716 0.8768 0.0
C4665 C 0.47865 0.5203 0.86572 0.0
C4666 C 0.49476 0.53776 0.89638 0.0
C4667 C 0.49334 0.5215 0.90548 0.0
C4668 C 0.48465 0.50462 0.89442 0.0
C4669 C 0.4773 0.50404 0.87493 0.0
C4670 C 0.51698 0.51009 0.95299 0.0
C4671 C 0.51251 0.52313 0.96692 0.0
C4672 C 0.51073 0.50944 0.93313 0.0
C4673 C 0.50033 0.52222 0.92657 0.0
C4674 C 0.49637 0.53561 0.94041 0.0
C4675 C 0.50221 0.53594 0.96023 0.0
H4676 H 0.75258 0.20914 0.12097 0.0
H4677 H 0.78821 0.18046 0.15405 0.0
H4678 H 0.75395 0.23176 0.14943 0.0
H4679 H 0.78917 0.20255 0.1826 0.0
H4680 H 0.8037 0.25369 0.22394 0.0
H4681 H 0.8024 0.23453 0.19321 0.0
H4682 H 0.7438 0.234 0.18157 0.0
H4683 H 0.74546 0.25407 0.21213 0.0
C4684 C 0.76052 0.20765 0.13444 0.0
C4685 C 0.77038 0.19329 0.13551 0.0
C4686 C 0.76129 0.22049 0.15064 0.0
C4687 C 0.77181 0.21897 0.16809 0.0
C4688 C 0.78133 0.20431 0.16917 0.0
C4689 C 0.78072 0.19163 0.15295 0.0
C4690 C 0.79062 0.24958 0.21465 0.0
C4691 C 0.77459 0.25494 0.22021 0.0
C4692 C 0.78984 0.2386 0.19718 0.0
C4693 C 0.77292 0.2325 0.18527 0.0
C4694 C 0.75702 0.2386 0.19048 0.0
C4695 C 0.75791 0.24997 0.20787 0.0
H4696 H 0.14407 0.55576 0.35589 0.0
H4697 H 0.10209 0.50957 0.32775 0.0
H4698 H 0.12639 0.55846 0.38314 0.0
H4699 H 0.08451 0.51188 0.35552 0.0
H4700 H 0.04933 0.54707 0.39133 0.0
H4701 H 0.06724 0.5358 0.36688 0.0
H4702 H 0.11481 0.54345 0.41032 0.0
H4703 H 0.09727 0.55555 0.4345 0.0
C4704 C 0.13116 0.54601 0.35571 0.0
C4705 C 0.12426 0.53264 0.33967 0.0
C4706 C 0.12116 0.54738 0.37142 0.0
C4707 C 0.10408 0.53537 0.3714 0.0
C4708 C 0.09759 0.52138 0.35578 0.0
C4709 C 0.10766 0.51999 0.34001 0.0
C4710 C 0.0636 0.5463 0.39562 0.0
C4711 C 0.072 0.55251 0.4147 0.0
C4712 C 0.07374 0.53956 0.38173 0.0
C4713 C 0.09243 0.5389 0.38673 0.0
C4714 C 0.10047 0.54402 0.40607 0.0
C4715 C 0.09039 0.55084 0.41991 0.0
H4716 H 0.77353 0.80549 0.6168 0.0
H4717 H 0.79848 0.85944 0.64729 0.0
H4718 H 0.77047 0.79323 0.64779 0.0
H4719 H 0.79581 0.84704 0.67828 0.0
H4720 H 0.77064 0.82252 0.73054 0.0
H4721 H 0.77269 0.83503 0.69943 0.0
H4722 H 0.78975 0.78579 0.6754 0.0
H4723 H 0.78791 0.77343 0.70635 0.0
C4724 C 0.77834 0.81479 0.63007 0.0
C4725 C 0.78628 0.83352 0.62936 0.0
C4726 C 0.77674 0.80769 0.64792 0.0
C4727 C 0.78287 0.81911 0.66567 0.0
C4728 C 0.79074 0.83784 0.66498 0.0
C4729 C 0.79249 0.84491 0.64713 0.0
C4730 C 0.77475 0.81432 0.71861 0.0
C4731 C 0.77888 0.79682 0.72105 0.0
C4732 C 0.77604 0.82155 0.70075 0.0
C4733 C 0.78133 0.81143 0.68476 0.0
C4734 C 0.78535 0.79391 0.68721 0.0
C4735 C 0.78427 0.78679 0.70506 0.0
H4736 H 0.6943 0.46019 0.47485 0.0
H4737 H 0.72856 0.50132 0.51846 0.0
H4738 H 0.667 0.47179 0.48309 0.0
H4739 H 0.70137 0.51213 0.52755 0.0
H4740 H 0.64995 0.52885 0.5421 0.0
H4741 H 0.67467 0.52501 0.52261 0.0
H4742 H 0.65264 0.46605 0.51194 0.0
H4743 H 0.62715 0.47013 0.53026 0.0
C4744 C 0.69605 0.47211 0.48572 0.0
C4745 C 0.71334 0.47956 0.49645 0.0
C4746 C 0.68043 0.47858 0.49062 0.0
C4747 C 0.68199 0.4924 0.5064 0.0
C4748 C 0.69964 0.5014 0.51537 0.0
C4749 C 0.71523 0.49512 0.51029 0.0
C4750 C 0.65023 0.51511 0.53531 0.0
C4751 C 0.63667 0.49975 0.53773 0.0
C4752 C 0.66441 0.51292 0.5242 0.0
C4753 C 0.66553 0.49528 0.51562 0.0
C4754 C 0.65193 0.47992 0.51799 0.0
C4755 C 0.63758 0.48215 0.52889 0.0
H4756 H 0.16058 0.10787 0.48269 0.0
H4757 H 0.17893 0.09897 0.54116 0.0
H4758 H 0.13064 0.08839 0.4844 0.0
H4759 H 0.14859 0.08046 0.54333 0.0
H4760 H 0.0963 0.03557 0.53698 0.0
H4761 H 0.12727 0.05237 0.53369 0.0
H4762 H 0.10324 0.0885 0.4982 0.0
H4763 H 0.07259 0.0712 0.50062 0.0
C4764 C 0.15832 0.10174 0.49592 0.0
C4765 C 0.17235 0.10519 0.5118 0.0
C4766 C 0.14094 0.09072 0.49702 0.0
C4767 C 0.13693 0.08285 0.51409 0.0
C4768 C 0.15106 0.08605 0.52985 0.0
C4769 C 0.16848 0.09698 0.52871 0.0
C4770 C 0.09764 0.0469 0.52822 0.0
C4771 C 0.08181 0.0518 0.51892 0.0
C4772 C 0.11546 0.05674 0.52651 0.0
C4773 C 0.11797 0.07189 0.5156 0.0
C4774 C 0.10208 0.07675 0.50638 0.0
C4775 C 0.08435 0.06684 0.50794 0.0
H4776 H 0.1662 0.94102 0.75913 0.0
H4777 H 0.20784 0.96946 0.80563 0.0
H4778 H 0.18221 0.91521 0.75639 0.0
H4779 H 0.22369 0.94328 0.80322 0.0
H4780 H 0.25787 0.90613 0.76784 0.0
H4781 H 0.24161 0.93021 0.77931 0.0
H4782 H 0.19059 0.88959 0.77257 0.0
H4783 H 0.20701 0.86561 0.76097 0.0
C4784 C 0.17874 0.94174 0.76885 0.0
C4785 C 0.18582 0.95744 0.78246 0.0
C4786 C 0.18779 0.92678 0.76748 0.0
C4787 C 0.20423 0.9271 0.77964 0.0
C4788 C 0.21111 0.94261 0.79357 0.0
C4789 C 0.20196 0.95757 0.79503 0.0
C4790 C 0.24333 0.90229 0.76954 0.0
C4791 C 0.23368 0.88406 0.76373 0.0
C4792 C 0.23398 0.91607 0.77605 0.0
C4793 C 0.21472 0.9119 0.77659 0.0
C4794 C 0.20537 0.89332 0.77205 0.0
C4795 C 0.21477 0.87954 0.76566 0.0
H4796 H 0.38708 0.97548 0.99083 0.0
H4797 H 0.38113 0.00684 0.04479 0.0
H4798 H 0.42036 0.98715 0.99616 0.0
H4799 H 0.41479 0.01862 0.05008 0.0
H4800 H 0.47355 0.04609 0.02547 0.0
H4801 H 0.44021 0.03803 0.02687 0.0
H4802 H 0.44384 0.9806 0.02773 0.0
H4803 H 0.47713 0.9885 0.02655 0.0
C4804 C 0.39288 0.98523 0.00358 0.0
C4805 C 0.38174 0.99038 0.01744 0.0
C4806 C 0.41183 0.99167 0.00672 0.0
C4807 C 0.41979 1.00339 0.02365 0.0
C4808 C 0.40868 0.00942 0.03703 0.0
C4809 C 0.38963 1.00277 0.03401 0.0
C4810 C 0.46724 0.03181 0.02637 0.0
C4811 C 0.47763 0.01779 0.02545 0.0
C4812 C 0.44833 0.02731 0.02732 0.0
C4813 C 0.43981 0.00878 0.0272 0.0
C4814 C 0.45038 0.99497 0.02775 0.0
C4815 C 0.4693 0.99948 0.02704 0.0
H4816 H 0.80284 0.58095 0.79008 0.0
H4817 H 0.85499 0.61207 0.81986 0.0
H4818 H 0.79475 0.60924 0.78046 0.0
H4819 H 0.84652 0.64074 0.81112 0.0
H4820 H 0.84005 0.67646 0.76077 0.0
H4821 H 0.84573 0.6517 0.77967 0.0
H4822 H 0.78768 0.63874 0.78713 0.0
H4823 H 0.78175 0.66222 0.76692 0.0
C4824 C 0.81221 0.594 0.79523 0.0
C4825 C 0.82963 0.59439 0.80535 0.0
C4826 C 0.80757 0.61025 0.78982 0.0
C4827 C 0.82021 0.62718 0.79469 0.0
C4828 C 0.83673 0.6278 0.80678 0.0
C4829 C 0.84144 0.61146 0.81205 0.0
C4830 C 0.8285 0.66819 0.76629 0.0
C4831 C 0.81048 0.6713 0.76232 0.0
C4832 C 0.8318 0.65428 0.77748 0.0
C4833 C 0.81715 0.64339 0.78505 0.0
C4834 C 0.79923 0.64683 0.78143 0.0
C4835 C 0.79589 0.66043 0.76998 0.0
H4836 H 0.86462 0.64104 0.03701 0.0
H4837 H 0.83585 0.59445 0.99606 0.0
H4838 H 0.89155 0.62678 0.04046 0.0
H4839 H 0.86323 0.58017 0.99932 0.0
H4840 H 0.90964 0.55444 0.03509 0.0
H4841 H 0.88168 0.56625 0.02515 0.0
H4842 H 0.91564 0.61946 0.0208 0.0
H4843 H 0.94329 0.60776 0.03067 0.0
C4844 C 0.86402 0.6277 0.02874 0.0
C4845 C 0.84798 0.61886 0.01636 0.0
C4846 C 0.87958 0.6196 0.03055 0.0
C4847 C 0.87963 0.60236 0.02007 0.0
C4848 C 0.86362 0.59343 0.00763 0.0
C4849 C 0.84801 0.60167 0.00567 0.0
C4850 C 0.9111 0.56851 0.03154 0.0
C4851 C 0.92864 0.58028 0.03405 0.0
C4852 C 0.8951 0.57529 0.02588 0.0
C4853 C 0.8964 0.59395 0.02265 0.0
C4854 C 0.91408 0.60518 0.02367 0.0
C4855 C 0.92995 0.59845 0.02928 0.0
H4856 H 0.17894 0.14506 0.76868 0.0
H4857 H 0.22336 0.12873 0.80348 0.0
H4858 H 0.19919 0.1744 0.76593 0.0
H4859 H 0.24365 0.15817 0.80075 0.0
H4860 H 0.2675 0.22177 0.80777 0.0
H4861 H 0.24878 0.19139 0.81072 0.0
H4862 H 0.22589 0.18679 0.7505 0.0
H4863 H 0.24469 0.21713 0.74776 0.0
C4864 C 0.19308 0.14763 0.77563 0.0
C4865 C 0.19949 0.13436 0.78619 0.0
C4866 C 0.20474 0.1645 0.77402 0.0
C4867 C 0.22318 0.16866 0.78294 0.0
C4868 C 0.22951 0.15555 0.79381 0.0
C4869 C 0.21784 0.13864 0.7954 0.0
C4870 C 0.25878 0.21399 0.7951 0.0
C4871 C 0.25766 0.2216 0.77749 0.0
C4872 C 0.24799 0.19662 0.79677 0.0
C4873 C 0.23566 0.18661 0.78089 0.0
C4874 C 0.23498 0.19416 0.76312 0.0
C4875 C 0.24588 0.21144 0.76145 0.0
H4876 H 0.34233 0.91473 0.25429 0.0
H4877 H 0.29869 0.92277 0.28908 0.0
H4878 H 0.32976 0.88171 0.24876 0.0
H4879 H 0.28683 0.88949 0.28465 0.0
H4880 H 0.26164 0.83108 0.26506 0.0
H4881 H 0.27179 0.86364 0.26119 0.0
H4882 H 0.32879 0.857 0.26845 0.0
H4883 H 0.31851 0.82432 0.27139 0.0
C4884 C 0.32987 0.90947 0.2605 0.0
C4885 C 0.32135 0.92131 0.27196 0.0
C4886 C 0.32284 0.89053 0.25754 0.0
C4887 C 0.30733 0.88306 0.26622 0.0
C4888 C 0.29862 0.89492 0.27746 0.0
C4889 C 0.30553 0.91392 0.28023 0.0
C4890 C 0.2763 0.83657 0.26526 0.0
C4891 C 0.28937 0.82547 0.26862 0.0
C4892 C 0.2821 0.85516 0.26322 0.0
C4893 C 0.30106 0.86288 0.26485 0.0
C4894 C 0.31407 0.85138 0.26692 0.0
C4895 C 0.30822 0.83271 0.26862 0.0
H4896 H 0.53389 0.39308 0.59015 0.0
H4897 H 0.55931 0.38124 0.53858 0.0
H4898 H 0.53052 0.42316 0.58033 0.0
H4899 H 0.55589 0.41146 0.52878 0.0
H4900 H 0.52882 0.46055 0.50825 0.0
H4901 H 0.532 0.42995 0.51728 0.0
H4902 H 0.54946 0.45403 0.57667 0.0
H4903 H 0.54665 0.48455 0.56759 0.0
C4904 C 0.5387 0.39671 0.57662 0.0
C4905 C 0.54691 0.38426 0.5653 0.0
C4906 C 0.53689 0.41423 0.57103 0.0
C4907 C 0.54291 0.42011 0.55366 0.0
C4908 C 0.55092 0.40763 0.54218 0.0
C4909 C 0.55304 0.3902 0.54795 0.0
C4910 C 0.5334 0.45939 0.52324 0.0
C4911 C 0.53759 0.47537 0.53707 0.0
C4912 C 0.53531 0.44172 0.52845 0.0
C4913 C 0.54104 0.43916 0.54782 0.0
C4914 C 0.54493 0.45513 0.56165 0.0
C4915 C 0.54342 0.47282 0.55637 0.0
H4916 H 0.39174 0.7592 0.39077 0.0
H4917 H 0.42315 0.76635 0.34233 0.0
H4918 H 0.36379 0.76153 0.37024 0.0
H4919 H 0.39528 0.76812 0.32164 0.0
H4920 H 0.3464 0.7883 0.29214 0.0
H4921 H 0.37393 0.78545 0.31278 0.0
H4922 H 0.34 0.7492 0.3457 0.0
H4923 H 0.31237 0.75268 0.32535 0.0
C4924 C 0.3927 0.76102 0.37566 0.0
C4925 C 0.40995 0.76269 0.36842 0.0
C4926 C 0.37652 0.76233 0.36374 0.0
C4927 C 0.3769 0.76517 0.34401 0.0
C4928 C 0.39416 0.76644 0.33674 0.0
C4929 C 0.41031 0.76532 0.34869 0.0
C4930 C 0.34475 0.77961 0.3037 0.0
C4931 C 0.32696 0.77068 0.30687 0.0
C4932 C 0.36071 0.77787 0.31563 0.0
C4933 C 0.3596 0.76698 0.33117 0.0
C4934 C 0.34173 0.75798 0.33425 0.0
C4935 C 0.32574 0.75986 0.3224 0.0
H4936 H 0.07053 0.68212 0.0792 0.0
H4937 H 0.01874 0.68034 0.04392 0.0
H4938 H 0.06763 0.64898 0.07027 0.0
H4939 H 0.01576 0.64713 0.03529 0.0
H4940 H 0.00597 0.58415 0.03855 0.0
H4941 H 0.00945 0.61752 0.04654 0.0
H4942 H 0.06847 0.62403 0.04592 0.0
H4943 H 0.06487 0.59049 0.03848 0.0
C4944 C 0.05857 0.67487 0.06936 0.0
C4945 C 0.0449 0.68449 0.06246 0.0
C4946 C 0.05688 0.65559 0.06421 0.0
C4947 C 0.04139 0.6449 0.05201 0.0
C4948 C 0.02778 0.6545 0.04499 0.0
C4949 C 0.02951 0.6738 0.05004 0.0
C4950 C 0.01976 0.5926 0.04014 0.0
C4951 C 0.03515 0.58423 0.03763 0.0
C4952 C 0.02176 0.61198 0.04459 0.0
C4953 C 0.03928 0.62396 0.04691 0.0
C4954 C 0.0547 0.61557 0.04447 0.0
C4955 C 0.05264 0.59616 0.03989 0.0
H4956 H 0.07903 0.25051 0.85557 0.0
H4957 H 0.10664 0.29599 0.89845 0.0
H4958 H 0.10625 0.25408 0.83826 0.0
H4959 H 0.13362 0.29992 0.88079 0.0
H4960 H 0.18565 0.29541 0.85224 0.0
H4961 H 0.15978 0.2871 0.87124 0.0
H4962 H 0.12178 0.27524 0.8183 0.0
H4963 H 0.1476 0.28352 0.79957 0.0
C4964 C 0.09091 0.26122 0.86144 0.0
C4965 C 0.09039 0.27302 0.87846 0.0
C4966 C 0.10655 0.26338 0.85135 0.0
C4967 C 0.12228 0.27737 0.85796 0.0
C4968 C 0.12194 0.28888 0.87524 0.0
C4969 C 0.10627 0.28678 0.88527 0.0
C4970 C 0.1718 0.2906 0.8447 0.0
C4971 C 0.16869 0.28999 0.82439 0.0
C4972 C 0.15691 0.28605 0.85558 0.0
C4973 C 0.13851 0.2806 0.84641 0.0
C4974 C 0.13564 0.2792 0.82598 0.0
C4975 C 0.15046 0.28396 0.81518 0.0
H4976 H 0.5142 0.7258 0.93716 0.0
H4977 H 0.55608 0.70706 0.90601 0.0
H4978 H 0.51101 0.69818 0.95385 0.0
H4979 H 0.55338 0.6798 0.92324 0.0
H4980 H 0.52417 0.62222 0.93758 0.0
H4981 H 0.53201 0.65123 0.92364 0.0
H4982 H 0.52509 0.68169 0.97768 0.0
H4983 H 0.51712 0.6524 0.99149 0.0
C4984 C 0.52279 0.71585 0.93386 0.0
C4985 C 0.53532 0.71878 0.92002 0.0
C4986 C 0.52114 0.70005 0.94369 0.0
C4987 C 0.53191 0.68658 0.93998 0.0
C4988 C 0.54468 0.68967 0.92641 0.0
C4989 C 0.54637 0.70549 0.91662 0.0
C4990 C 0.52479 0.63517 0.94661 0.0
C4991 C 0.52024 0.63504 0.96568 0.0
C4992 C 0.52928 0.65186 0.93863 0.0
C4993 C 0.52909 0.66897 0.9494 0.0
C4994 C 0.52517 0.66884 0.9688 0.0
C4995 C 0.52085 0.65208 0.97685 0.0
H4996 H 0.12747 0.78694 0.75112 0.0
H4997 H 0.1241 0.7331 0.71928 0.0
H4998 H 0.16026 0.78953 0.75947 0.0
H4999 H 0.15659 0.73483 0.72921 0.0
H5000 H 0.21995 0.74521 0.73832 0.0
H5001 H 0.18684 0.7423 0.72917 0.0
H5002 H 0.18613 0.78586 0.77522 0.0
H5003 H 0.21934 0.78952 0.78299 0.0
C5004 C 0.13354 0.77549 0.74584 0.0
C5005 C 0.12242 0.75981 0.73427 0.0
C5006 C 0.15275 0.77683 0.75107 0.0
C5007 C 0.16198 0.76239 0.74536 0.0
C5008 C 0.15076 0.74659 0.73396 0.0
C5009 C 0.1316 0.74541 0.72844 0.0
C5010 C 0.21266 0.75417 0.74645 0.0
C5011 C 0.22258 0.76773 0.76132 0.0
C5012 C 0.19336 0.75246 0.74127 0.0
C5013 C 0.18293 0.76391 0.75111 0.0
C5014 C 0.19303 0.77702 0.76651 0.0
C5015 C 0.21236 0.77906 0.77126 0.0
H5016 H 0.01305 0.38557 0.43567 0.0
H5017 H 0.06844 0.41043 0.42623 0.0
H5018 H 0.01094 0.41348 0.45591 0.0
H5019 H 0.06687 0.43791 0.44769 0.0
H5020 H 0.05421 0.49271 0.47362 0.0
H5021 H 0.05635 0.46494 0.45285 0.0
H5022 H 0.01821 0.43206 0.48483 0.0
H5023 H 0.01508 0.46004 0.50455 0.0
C5024 C 0.02487 0.39694 0.43783 0.0
C5025 C 0.04089 0.39542 0.42891 0.0
C5026 C 0.02377 0.41306 0.4499 0.0
C5027 C 0.03872 0.42838 0.45381 0.0
C5028 C 0.05484 0.42678 0.44504 0.0
C5029 C 0.05587 0.4107 0.43282 0.0
C5030 C 0.04608 0.47959 0.47612 0.0
C5031 C 0.03424 0.47891 0.49076 0.0
C5032 C 0.0475 0.46344 0.46426 0.0
C5033 C 0.03742 0.44582 0.46678 0.0
C5034 C 0.02594 0.44516 0.48182 0.0
C5035 C 0.02429 0.46135 0.49345 0.0
H5036 H 0.42903 0.255 0.26073 0.0
H5037 H 0.41042 0.26424 0.20262 0.0
H5038 H 0.39887 0.25821 0.27069 0.0
H5039 H 0.38049 0.26766 0.21253 0.0
H5040 H 0.32176 0.25651 0.2302 0.0
H5041 H 0.35187 0.25272 0.22107 0.0
H5042 H 0.37775 0.27824 0.278 0.0
H5043 H 0.34738 0.28121 0.28736 0.0
C5044 C 0.41855 0.25765 0.24998 0.0
C5045 C 0.42257 0.25934 0.23075 0.0
C5046 C 0.40113 0.25969 0.25578 0.0
C5047 C 0.38675 0.26323 0.24256 0.0
C5048 C 0.39079 0.26477 0.22331 0.0
C5049 C 0.40825 0.26297 0.21759 0.0
C5050 C 0.33378 0.26121 0.24092 0.0
C5051 C 0.33173 0.26925 0.25962 0.0
C5052 C 0.35131 0.25921 0.23556 0.0
C5053 C 0.36776 0.26521 0.24861 0.0
C5054 C 0.36569 0.27319 0.26739 0.0
C5055 C 0.3481 0.27513 0.27277 0.0
H5056 H 0.58065 0.5011 0.37619 0.0
H5057 H 0.59221 0.56086 0.38779 0.0
H5058 H 0.56917 0.4991 0.40771 0.0
H5059 H 0.57997 0.55869 0.41877 0.0
H5060 H 0.53629 0.54637 0.46128 0.0
H5061 H 0.54857 0.54755 0.43017 0.0
H5062 H 0.58146 0.50741 0.4447 0.0
H5063 H 0.56935 0.50652 0.47629 0.0
C5064 C 0.5809 0.51385 0.38538 0.0
C5065 C 0.58747 0.53118 0.37912 0.0
C5066 C 0.57423 0.51265 0.4035 0.0
C5067 C 0.57363 0.52872 0.41581 0.0
C5068 C 0.58004 0.54601 0.40958 0.0
C5069 C 0.58696 0.54723 0.39164 0.0
C5070 C 0.54612 0.53775 0.45788 0.0
C5071 C 0.55183 0.52633 0.47132 0.0
C5072 C 0.55325 0.53851 0.44005 0.0
C5073 C 0.56604 0.52761 0.43489 0.0
C5074 C 0.57157 0.51594 0.44818 0.0
C5075 C 0.56473 0.5155 0.46631 0.0
H5076 H 0.26802 0.84648 0.07479 0.0
H5077 H 0.3036 0.89616 0.10517 0.0
H5078 H 0.27162 0.83079 0.104 0.0
H5079 H 0.30718 0.88067 0.13406 0.0
H5080 H 0.30356 0.85339 0.18697 0.0
H5081 H 0.28873 0.86562 0.15942 0.0
H5082 H 0.3018 0.82228 0.12012 0.0
H5083 H 0.31669 0.8102 0.14775 0.0
C5084 C 0.27628 0.85408 0.08784 0.0
C5085 C 0.28569 0.87238 0.08788 0.0
C5086 C 0.27834 0.84516 0.10441 0.0
C5087 C 0.28955 0.85463 0.12119 0.0
C5088 C 0.2982 0.8732 0.1214 0.0
C5089 C 0.29634 0.88198 0.10485 0.0
C5090 C 0.30295 0.84642 0.17242 0.0
C5091 C 0.3115 0.83126 0.16913 0.0
C5092 C 0.29443 0.85327 0.15678 0.0
C5093 C 0.29428 0.8449 0.13777 0.0
C5094 C 0.30166 0.82886 0.13469 0.0
C5095 C 0.31035 0.82213 0.15034 0.0
H5096 H 0.93023 0.53728 0.90261 0.0
H5097 H 0.9662 0.51018 0.86989 0.0
H5098 H 0.95252 0.5414 0.93157 0.0
H5099 H 0.989 0.51487 0.89873 0.0
H5100 H 0.00856 0.50259 0.96033 0.0
H5101 H 0.9909 0.50221 0.92893 0.0
H5102 H 0.98249 0.55754 0.94622 0.0
H5103 H 0.99949 0.55742 0.97809 0.0
C5104 C 0.9431 0.53249 0.90165 0.0
C5105 C 0.94661 0.52335 0.88427 0.0
C5106 C 0.95592 0.53498 0.9181 0.0
C5107 C 0.97254 0.52856 0.91732 0.0
C5108 C 0.9762 0.51977 0.89975 0.0
C5109 C 0.96324 0.51708 0.88333 0.0
C5110 C 1.00315 0.51474 0.95723 0.0
C5111 C 1.00508 0.52998 0.97145 0.0
C5112 C 0.99316 0.5146 0.93926 0.0
C5113 C 0.98524 0.52981 0.93522 0.0
C5114 C 0.98815 0.54549 0.94914 0.0
C5115 C 0.99786 0.54548 0.96726 0.0
H5116 H 0.30177 0.24125 0.61943 0.0
H5117 H 0.24573 0.21135 0.61912 0.0
H5118 H 0.30231 0.2533 0.65342 0.0
H5119 H 0.24616 0.22402 0.65281 0.0
H5120 H 0.24864 0.26487 0.70864 0.0
H5121 H 0.24791 0.25439 0.67409 0.0
H5122 H 0.30177 0.24081 0.68572 0.0
H5123 H 0.3023 0.25091 0.72019 0.0
C5124 C 0.28956 0.23715 0.62649 0.0
C5125 C 0.27371 0.22519 0.61619 0.0
C5126 C 0.28986 0.24418 0.64605 0.0
C5127 C 0.27427 0.2397 0.65594 0.0
C5128 C 0.25834 0.22802 0.64564 0.0
C5129 C 0.2581 0.22078 0.62617 0.0
C5130 C 0.26028 0.25965 0.70389 0.0
C5131 C 0.27536 0.25858 0.71741 0.0
C5132 C 0.25987 0.25357 0.68402 0.0
C5133 C 0.27477 0.24667 0.67703 0.0
C5134 C 0.29008 0.24609 0.69048 0.0
C5135 C 0.2903 0.2518 0.71034 0.0
H5136 H 0.55796 0.51167 0.18228 0.0
H5137 H 0.60514 0.55272 0.17386 0.0
H5138 H 0.54515 0.51114 0.14854 0.0
H5139 H 0.5928 0.55182 0.14009 0.0
H5140 H 0.55968 0.55982 0.08485 0.0
H5141 H 0.57127 0.56034 0.1187 0.0
H5142 H 0.54647 0.50229 0.11588 0.0
H5143 H 0.53361 0.50237 0.08232 0.0
C5144 C 0.56571 0.52047 0.17319 0.0
C5145 C 0.58254 0.53235 0.18096 0.0
C5146 C 0.55838 0.52013 0.1537 0.0
C5147 C 0.56777 0.5315 0.14128 0.0
C5148 C 0.58478 0.54317 0.14908 0.0
C5149 C 0.59196 0.54366 0.16857 0.0
C5150 C 0.55632 0.54729 0.09152 0.0
C5151 C 0.54527 0.53125 0.08082 0.0
C5152 C 0.56332 0.54744 0.111 0.0
C5153 C 0.55994 0.53134 0.1204 0.0
C5154 C 0.54914 0.51513 0.10952 0.0
C5155 C 0.54185 0.51512 0.0901 0.0
H5156 H 0.29423 0.8386 0.92586 0.0
H5157 H 0.2741 0.87816 0.89212 0.0
H5158 H 0.29221 0.81725 0.89625 0.0
H5159 H 0.27274 0.85729 0.86244 0.0
H5160 H 0.25476 0.80917 0.81628 0.0
H5161 H 0.25512 0.82792 0.84689 0.0
H5162 H 0.30807 0.8156 0.8673 0.0
H5163 H 0.30737 0.79614 0.83663 0.0
C5164 C 0.28945 0.84264 0.91202 0.0
C5165 C 0.28428 0.85979 0.91096 0.0
C5166 C 0.28839 0.83057 0.89518 0.0
C5167 C 0.28236 0.8357 0.87717 0.0
C5168 C 0.27713 0.8529 0.87622 0.0
C5169 C 0.27795 0.86483 0.89308 0.0
C5170 C 0.26645 0.81041 0.82734 0.0
C5171 C 0.28113 0.8014 0.82425 0.0
C5172 C 0.26667 0.82118 0.84479 0.0
C5173 C 0.28169 0.82329 0.85929 0.0
C5174 C 0.29624 0.81398 0.85635 0.0
C5175 C 0.29591 0.80297 0.83889 0.0
H5176 H 0.92684 0.54146 0.69765 0.0
H5177 H 0.95718 0.5053 0.72641 0.0
H5178 H 0.94327 0.53752 0.66929 0.0
H5179 H 0.97322 0.50102 0.69802 0.0
H5180 H 1.0033 0.49937 0.64586 0.0
H5181 H 0.99432 0.51483 0.67521 0.0
H5182 H 0.93863 0.50836 0.64636 0.0
H5183 H 0.94771 0.49295 0.61725 0.0
C5184 C 0.93738 0.53309 0.69809 0.0
C5185 C 0.94058 0.52342 0.714 0.0
C5186 C 0.94667 0.53077 0.68187 0.0
C5187 C 0.95933 0.51883 0.68143 0.0
C5188 C 0.96363 0.51041 0.69801 0.0
C5189 C 0.95431 0.51268 0.71416 0.0
C5190 C 0.98924 0.50153 0.64589 0.0
C5191 C 0.97601 0.49482 0.62971 0.0
C5192 C 0.98414 0.51037 0.66253 0.0
C5193 C 0.96581 0.51276 0.663 0.0
C5194 C 0.9529 0.5069 0.64631 0.0
C5195 C 0.95797 0.49789 0.6298 0.0
H5196 H 0.25218 0.2359 0.42123 0.0
H5197 H 0.29727 0.20825 0.41065 0.0
H5198 H 0.25387 0.24811 0.39024 0.0
H5199 H 0.29976 0.22145 0.38025 0.0
H5200 H 0.2882 0.23263 0.31721 0.0
H5201 H 0.28646 0.22004 0.34813 0.0
H5202 H 0.27017 0.26954 0.37284 0.0
H5203 H 0.27104 0.28163 0.34172 0.0
C5204 C 0.26251 0.23239 0.41237 0.0
C5205 C 0.27453 0.22092 0.4187 0.0
C5206 C 0.26368 0.23969 0.39458 0.0
C5207 C 0.277 0.23591 0.38246 0.0
C5208 C 0.28912 0.22456 0.38886 0.0
C5209 C 0.28787 0.21717 0.4066 0.0
C5210 C 0.28424 0.24083 0.32924 0.0
C5211 C 0.27984 0.25822 0.32683 0.0
C5212 C 0.28336 0.23365 0.34713 0.0
C5213 C 0.27816 0.24367 0.36328 0.0
C5214 C 0.27392 0.26115 0.36084 0.0
C5215 C 0.27463 0.26823 0.34293 0.0
H5216 H 0.34503 0.56338 0.56821 0.0
H5217 H 0.36703 0.6094 0.53836 0.0
H5218 H 0.37159 0.54921 0.56197 0.0
H5219 H 0.39329 0.59536 0.53199 0.0
H5220 H 0.43937 0.56781 0.52204 0.0
H5221 H 0.42107 0.58268 0.54381 0.0
H5222 H 0.37521 0.53631 0.52769 0.0
H5223 H 0.39354 0.52153 0.50605 0.0
C5224 C 0.3559 0.57071 0.56096 0.0
C5225 C 0.35407 0.58721 0.55344 0.0
C5226 C 0.37099 0.56265 0.55737 0.0
C5227 C 0.38431 0.57116 0.5464 0.0
C5228 C 0.38332 0.58861 0.54067 0.0
C5229 C 0.36825 0.59656 0.54412 0.0
C5230 C 0.42548 0.56072 0.52351 0.0
C5231 C 0.41757 0.54378 0.51223 0.0
C5232 C 0.41512 0.56913 0.53598 0.0
C5233 C 0.39682 0.56058 0.53742 0.0
C5234 C 0.38939 0.54306 0.52704 0.0
C5235 C 0.39968 0.53476 0.51443 0.0
H5236 H 0.90322 0.92911 0.54459 0.0
H5237 H 0.87547 0.97294 0.52944 0.0
H5238 H 0.93299 0.94892 0.54276 0.0
H5239 H 0.90534 0.99304 0.52804 0.0
H5240 H 0.96209 0.01701 0.50795 0.0
H5241 H 0.9313 0.99874 0.51019 0.0
H5242 H 0.9542 0.97478 0.5588 0.0
H5243 H 0.98467 0.99244 0.55613 0.0
C5244 C 0.90349 0.94309 0.54117 0.0
C5245 C 0.88691 0.9494 0.53724 0.0
C5246 C 0.92061 0.95454 0.54013 0.0
C5247 C 0.92173 0.97275 0.53535 0.0
C5248 C 0.90512 0.97908 0.5315 0.0
C5249 C 0.88796 0.96755 0.53238 0.0
C5250 C 0.96042 0.00801 0.51925 0.0
C5251 C 0.97586 0.0061 0.53176 0.0
C5252 C 0.94277 0.9975 0.52056 0.0
C5253 C 0.94018 0.98496 0.5345 0.0
C5254 C 0.95559 0.9838 0.5475 0.0
C5255 C 0.97312 0.99411 0.54608 0.0
H5256 H 0.8588 0.08763 0.29344 0.0
H5257 H 0.87839 0.10543 0.24075 0.0
H5258 H 0.84345 0.11386 0.29689 0.0
H5259 H 0.86211 0.13104 0.24361 0.0
H5260 H 0.85464 0.18826 0.27196 0.0
H5261 H 0.86581 0.15991 0.2633 0.0
H5262 H 0.81876 0.12809 0.28497 0.0
H5263 H 0.80789 0.15677 0.29392 0.0
C5264 C 0.85979 0.09705 0.28251 0.0
C5265 C 0.8701 0.0944 0.26694 0.0
C5266 C 0.85068 0.11198 0.28432 0.0
C5267 C 0.85151 0.12469 0.27056 0.0
C5268 C 0.86133 0.12172 0.25465 0.0
C5269 C 0.87053 0.10684 0.25289 0.0
C5270 C 0.84653 0.17512 0.27444 0.0
C5271 C 0.83042 0.17462 0.28349 0.0
C5272 C 0.85287 0.15883 0.26945 0.0
C5273 C 0.84331 0.14162 0.27357 0.0
C5274 C 0.82665 0.14109 0.28185 0.0
C5275 C 0.82028 0.15744 0.28678 0.0
H5276 H 0.67032 0.0814 0.00293 0.0
H5277 H 0.67825 0.04876 0.05008 0.0
H5278 H 0.6374 0.06856 0.99872 0.0
H5279 H 0.64496 0.03671 0.04658 0.0
H5280 H 0.58568 0.00932 0.02699 0.0
H5281 H 0.61874 0.01745 0.02463 0.0
H5282 H 0.61372 0.07402 0.01907 0.0
H5283 H 0.58072 0.06584 0.02084 0.0
C5284 C 0.66506 0.07118 0.01214 0.0
C5285 C 0.67678 0.06594 0.02677 0.0
C5286 C 0.64621 0.06404 0.00988 0.0
C5287 C 0.63875 0.05177 0.02238 0.0
C5288 C 0.65049 0.04601 0.0366 0.0
C5289 C 0.66943 0.05304 0.03876 0.0
C5290 C 0.59167 0.02344 0.02508 0.0
C5291 C 0.58084 0.03705 0.02432 0.0
C5292 C 0.61051 0.02805 0.02377 0.0
C5293 C 0.61866 0.04632 0.02174 0.0
C5294 C 0.60767 0.05976 0.02034 0.0
C5295 C 0.58884 0.05512 0.0215 0.0
H5296 H 0.25333 0.47342 0.26543 0.0
H5297 H 0.20801 0.44047 0.22562 0.0
H5298 H 0.26395 0.44553 0.27288 0.0
H5299 H 0.21887 0.41234 0.23271 0.0
H5300 H 0.223 0.37418 0.28259 0.0
H5301 H 0.21677 0.39885 0.26375 0.0
H5302 H 0.27551 0.4178 0.2631 0.0
H5303 H 0.28177 0.39385 0.28276 0.0
C5304 C 0.24611 0.46019 0.25773 0.0
C5305 C 0.22979 0.4589 0.2452 0.0
C5306 C 0.25221 0.44423 0.26189 0.0
C5307 C 0.24204 0.42677 0.25356 0.0
C5308 C 0.22677 0.42565 0.2395 0.0
C5309 C 0.22068 0.44169 0.2353 0.0
C5310 C 0.23454 0.38364 0.27841 0.0
C5311 C 0.25284 0.38224 0.2843 0.0
C5312 C 0.23099 0.3975 0.26731 0.0
C5313 C 0.2457 0.41014 0.26191 0.0
C5314 C 0.26395 0.40824 0.26711 0.0
C5315 C 0.2675 0.3945 0.27831 0.0
H5316 H 0.19797 0.4232 0.05433 0.0
H5317 H 0.22238 0.45318 0.0102 0.0
H5318 H 0.17279 0.44031 0.05263 0.0
H5319 H 0.19695 0.46967 0.00796 0.0
H5320 H 0.15718 0.50664 0.01451 0.0
H5321 H 0.18348 0.49281 0.02482 0.0
H5322 H 0.14583 0.44198 0.0303 0.0
H5323 H 0.1196 0.45615 0.02038 0.0
C5324 C 0.19806 0.43351 0.04436 0.0
C5325 C 0.21225 0.43673 0.03237 0.0
C5326 C 0.18351 0.44322 0.04327 0.0
C5327 C 0.18282 0.45648 0.03024 0.0
C5328 C 0.19713 0.45983 0.01843 0.0
C5329 C 0.21162 0.45012 0.01949 0.0
C5330 C 0.15457 0.49281 0.01878 0.0
C5331 C 0.1364 0.48255 0.01699 0.0
C5332 C 0.16962 0.48473 0.02434 0.0
C5333 C 0.16684 0.46613 0.02803 0.0
C5334 C 0.14854 0.45635 0.02768 0.0
C5335 C 0.13347 0.46448 0.02214 0.0
H5336 H 0.83303 0.92773 0.24742 0.0
H5337 H 0.87906 0.90837 0.27574 0.0
H5338 H 0.81279 0.89762 0.24885 0.0
H5339 H 0.85898 0.87834 0.27684 0.0
H5340 H 0.8233 0.8219 0.24966 0.0
H5341 H 0.84097 0.85266 0.24834 0.0
H5342 H 0.80117 0.87663 0.27799 0.0
H5343 H 0.78363 0.84545 0.28037 0.0
C5344 C 0.83882 0.91705 0.2539 0.0
C5345 C 0.85764 0.92044 0.26151 0.0
C5346 C 0.82721 0.8999 0.25485 0.0
C5347 C 0.8343 0.88568 0.26302 0.0
C5348 C 0.85313 0.88905 0.27047 0.0
C5349 C 0.86461 0.90625 0.26989 0.0
C5350 C 0.8181 0.83359 0.25594 0.0
C5351 C 0.80182 0.83098 0.26509 0.0
C5352 C 0.82834 0.85129 0.25514 0.0
C5353 C 0.8225 0.86704 0.26309 0.0
C5354 C 0.80592 0.86468 0.27163 0.0
C5355 C 0.79579 0.84681 0.27285 0.0
H5356 H 0.76442 0.13181 0.75675 0.0
H5357 H 0.70932 0.13863 0.76609 0.0
H5358 H 0.77514 0.16548 0.7618 0.0
H5359 H 0.71996 0.17206 0.77234 0.0
H5360 H 0.74 0.2303 0.7579 0.0
H5361 H 0.7292 0.19702 0.75533 0.0
H5362 H 0.78154 0.19161 0.78565 0.0
H5363 H 0.79271 0.22501 0.78684 0.0
C5364 C 0.75472 0.14066 0.75993 0.0
C5365 C 0.73615 0.13308 0.76083 0.0
C5366 C 0.76081 0.1598 0.76309 0.0
C5367 C 0.74838 0.17141 0.76751 0.0
C5368 C 0.72979 0.16355 0.76862 0.0
C5369 C 0.7237 0.14451 0.76513 0.0
C5370 C 0.74898 0.22195 0.76433 0.0
C5371 C 0.76703 0.22988 0.77266 0.0
C5372 C 0.74284 0.20293 0.7629 0.0
C5373 C 0.75455 0.19168 0.77026 0.0
C5374 C 0.77237 0.19989 0.77949 0.0
C5375 C 0.77868 0.21891 0.78041 0.0
loop_
_geom_bond_atom_site_label_1
_geom_bond_atom_site_label_2
_geom_bond_distance
_geom_bond_site_symmetry_2
_ccdc_geom_bond_type
Li0 N17 1.990 1_455 S
Li0 O60 1.956 . S
Li0 O61 1.970 . S
Li0 O62 1.961 . S
Li1 N25 1.990 . S
Li1 O60 1.970 . S
Li1 O61 1.956 . S
Li1 O63 1.961 . S
Li2 N47 1.990 . S
Li2 O60 1.961 . S
Li2 O62 1.956 . S
Li2 O63 1.970 . S
Li3 N53 1.990 . S
Li3 O61 1.961 . S
Li3 O62 1.970 . S
Li3 O63 1.956 . S
C4 C6 1.348 . S
C4 C7 1.356 . S
C4 O60 1.325 . S
N5 C8 1.314 . S
N5 C9 1.279 . S
C6 C4 1.348 . S
C6 C8 1.353 . S
C6 H64 0.929 . S
C7 C4 1.356 . S
C7 C9 1.358 . S
C7 H65 0.930 . S
C8 N5 1.314 . S
C8 C6 1.353 . S
C8 H66 0.930 . S
C9 N5 1.279 . S
C9 C7 1.358 . S
C9 H67 0.930 . S
C10 C13 1.348 1_455 S
C10 C14 1.356 . S
C10 O61 1.325 . S
C11 N12 1.279 . S
C11 C14 1.358 1_655 S
C11 H68 0.930 . S
N12 C11 1.279 . S
N12 C15 1.314 . S
C13 C10 1.348 1_655 S
C13 C15 1.353 . S
C13 H69 0.929 . S
C14 C10 1.356 . S
C14 C11 1.358 1_455 S
C14 H70 0.930 . S
C15 N12 1.314 . S
C15 C13 1.353 . S
C15 H71 0.930 . S
C16 N17 1.314 . S
C16 C21 1.353 . S
C16 H22 0.930 . S
N17 Li0 1.990 1_655 S
N17 C16 1.314 . S
N17 C19 1.279 . S
C18 C19 1.358 . S
C18 C20 1.356 . S
C18 H72 0.930 . S
C19 N17 1.279 . S
C19 C18 1.358 . S
C19 H23 0.930 . S
C20 C18 1.356 . S
C20 C21 1.348 . S
C21 C16 1.353 . S
C21 C20 1.348 . S
C21 H73 0.929 . S
H22 C16 0.930 . S
H23 C19 0.930 . S
C24 N25 1.314 . S
C24 C26 1.353 . S
C24 H30 0.930 . S
N25 Li1 1.990 . S
N25 C24 1.314 . S
N25 C28 1.279 . S
C26 C24 1.353 . S
C26 C29 1.348 . S
C26 H74 0.929 . S
C27 C28 1.358 . S
C27 C29 1.356 . S
C27 H75 0.930 . S
C28 N25 1.279 . S
C28 C27 1.358 . S
C28 H31 0.930 . S
C29 C26 1.348 . S
C29 C27 1.356 . S
H30 C24 0.930 . S
H31 C28 0.930 . S
C32 C34 1.348 . S
C32 C35 1.356 . S
C32 O62 1.325 . S
N33 C36 1.314 . S
N33 C37 1.279 . S
C34 C32 1.348 . S
C34 C36 1.353 . S
C34 H76 0.929 . S
C35 C32 1.356 . S
C35 C37 1.358 . S
C35 H77 0.930 . S
C36 N33 1.314 . S
C36 C34 1.353 . S
C36 H78 0.930 . S
C37 N33 1.279 . S
C37 C35 1.358 . S
C37 H79 0.930 . S
C38 C39 1.348 . S
C38 C40 1.356 . S
C38 O63 1.325 . S
C39 C38 1.348 . S
C39 C41 1.353 . S
C39 H80 0.929 . S
C40 C38 1.356 . S
C40 C42 1.358 . S
C40 H81 0.930 . S
C41 C39 1.353 . S
C41 N43 1.314 . S
C41 H82 0.930 . S
C42 C40 1.358 . S
C42 N43 1.279 . S
C42 H83 0.930 . S
N43 C41 1.314 . S
N43 C42 1.279 . S
C44 C46 1.353 . S
C44 N47 1.314 . S
C44 H50 0.930 . S
C45 N47 1.279 . S
C45 C48 1.358 . S
C45 H51 0.930 . S
C46 C44 1.353 . S
C46 C49 1.348 . S
C46 H84 0.929 . S
N47 Li2 1.990 . S
N47 C44 1.314 . S
N47 C45 1.279 . S
C48 C45 1.358 . S
C48 C49 1.356 . S
C48 H85 0.930 . S
C49 C46 1.348 . S
C49 C48 1.356 . S
H50 C44 0.930 . S
H51 C45 0.930 . S
C52 N53 1.314 . S
C52 C54 1.353 . S
C52 H58 0.930 . S
N53 Li3 1.990 . S
N53 C52 1.314 . S
N53 C56 1.279 . S
C54 C52 1.353 . S
C54 C57 1.348 . S
C54 H86 0.929 . S
C55 C56 1.358 . S
C55 C57 1.356 . S
C55 H87 0.930 . S
C56 N53 1.279 . S
C56 C55 1.358 . S
C56 H59 0.930 . S
C57 C54 1.348 . S
C57 C55 1.356 . S
H58 C52 0.930 . S
H59 C56 0.930 . S
O60 Li0 1.956 . S
O60 Li1 1.970 . S
O60 Li2 1.961 . S
O60 C4 1.325 . S
O61 Li0 1.970 . S
O61 Li1 1.956 . S
O61 Li3 1.961 . S
O61 C10 1.325 . S
O62 Li0 1.961 . S
O62 Li2 1.956 . S
O62 Li3 1.970 . S
O62 C32 1.325 . S
O63 Li1 1.961 . S
O63 Li2 1.970 . S
O63 Li3 1.956 . S
O63 C38 1.325 . S
H64 C6 0.929 . S
H65 C7 0.930 . S
H66 C8 0.930 . S
H67 C9 0.930 . S
H68 C11 0.930 . S
H69 C13 0.929 . S
H70 C14 0.930 . S
H71 C15 0.930 . S
H72 C18 0.930 . S
H73 C21 0.929 . S
H74 C26 0.929 . S
H75 C27 0.930 . S
H76 C34 0.929 . S
H77 C35 0.930 . S
H78 C36 0.930 . S
H79 C37 0.930 . S
H80 C39 0.929 . S
H81 C40 0.930 . S
H82 C41 0.930 . S
H83 C42 0.930 . S
H84 C46 0.929 . S
H85 C48 0.930 . S
H86 C54 0.929 . S
H87 C55 0.930 . S
Li88 N105 1.990 . S
Li88 O148 1.956 . S
Li88 O149 1.970 . S
Li88 O150 1.961 1_455 S
Li89 N113 1.990 . S
Li89 O148 1.970 . S
Li89 O149 1.956 . S
Li89 O151 1.961 . S
Li90 N135 1.990 . S
Li90 O148 1.961 . S
Li90 O150 1.956 1_455 S
Li90 O151 1.970 . S
Li91 N141 1.990 . S
Li91 O149 1.961 1_655 S
Li91 O150 1.970 . S
Li91 O151 1.956 1_655 S
C92 C94 1.348 . S
C92 C95 1.356 . S
C92 O148 1.325 . S
N93 C96 1.314 . S
N93 C97 1.279 . S
C94 C92 1.348 . S
C94 C96 1.353 . S
C94 H152 0.929 . S
C95 C92 1.356 . S
C95 C97 1.358 . S
C95 H153 0.930 . S
C96 N93 1.314 . S
C96 C94 1.353 . S
C96 H154 0.930 . S
C97 N93 1.279 . S
C97 C95 1.358 . S
C97 H155 0.930 . S
C98 C101 1.348 . S
C98 C102 1.356 . S
C98 O149 1.325 . S
C99 N100 1.279 . S
C99 C102 1.358 . S
C99 H156 0.930 . S
N100 C99 1.279 . S
N100 C103 1.314 . S
C101 C98 1.348 . S
C101 C103 1.353 . S
C101 H157 0.929 . S
C102 C98 1.356 . S
C102 C99 1.358 . S
C102 H158 0.930 . S
C103 N100 1.314 . S
C103 C101 1.353 . S
C103 H159 0.930 . S
C104 N105 1.314 . S
C104 C109 1.353 . S
C104 H110 0.930 1_455 S
N105 Li88 1.990 . S
N105 C104 1.314 . S
N105 C107 1.279 . S
C106 C107 1.358 . S
C106 C108 1.356 . S
C106 H160 0.930 . S
C107 N105 1.279 . S
C107 C106 1.358 . S
C107 H111 0.930 . S
C108 C106 1.356 . S
C108 C109 1.348 . S
C109 C104 1.353 . S
C109 C108 1.348 . S
C109 H161 0.929 1_455 S
H110 C104 0.930 1_655 S
H111 C107 0.930 . S
C112 N113 1.314 . S
C112 C114 1.353 . S
C112 H118 0.930 . S
N113 Li89 1.990 . S
N113 C112 1.314 . S
N113 C116 1.279 . S
C114 C112 1.353 . S
C114 C117 1.348 . S
C114 H162 0.929 . S
C115 C116 1.358 . S
C115 C117 1.356 . S
C115 H163 0.930 . S
C116 N113 1.279 . S
C116 C115 1.358 . S
C116 H119 0.930 . S
C117 C114 1.348 . S
C117 C115 1.356 . S
H118 C112 0.930 . S
H119 C116 0.930 . S
C120 C122 1.348 . S
C120 C123 1.356 . S
C120 O150 1.325 . S
N121 C124 1.314 . S
N121 C125 1.279 . S
C122 C120 1.348 . S
C122 C124 1.353 . S
C122 H164 0.929 . S
C123 C120 1.356 . S
C123 C125 1.358 . S
C123 H165 0.930 . S
C124 N121 1.314 . S
C124 C122 1.353 . S
C124 H166 0.930 . S
C125 N121 1.279 . S
C125 C123 1.358 . S
C125 H167 0.930 . S
C126 C127 1.348 . S
C126 C128 1.356 . S
C126 O151 1.325 . S
C127 C126 1.348 . S
C127 C129 1.353 . S
C127 H168 0.938 . S
C128 C126 1.356 . S
C128 C130 1.358 . S
C128 H169 0.930 . S
C129 C127 1.353 . S
C129 N131 1.314 . S
C129 H170 0.930 . S
C130 C128 1.358 . S
C130 N131 1.279 . S
C130 H171 0.930 . S
N131 C129 1.314 . S
N131 C130 1.279 . S
C132 C134 1.353 . S
C132 N135 1.314 . S
C132 H138 0.930 . S
C133 N135 1.279 1_655 S
C133 C136 1.358 . S
C133 H139 0.930 . S
C134 C132 1.353 . S
C134 C137 1.348 . S
C134 H172 0.929 . S
N135 Li90 1.990 . S
N135 C132 1.314 . S
N135 C133 1.279 1_455 S
C136 C133 1.358 . S
C136 C137 1.356 1_655 S
C136 H173 0.930 . S
C137 C134 1.348 . S
C137 C136 1.356 1_455 S
H138 C132 0.930 . S
H139 C133 0.930 . S
C140 N141 1.314 . S
C140 C142 1.353 . S
C140 H146 0.930 . S
N141 Li91 1.990 . S
N141 C140 1.314 . S
N141 C144 1.279 . S
C142 C140 1.353 . S
C142 C145 1.348 . S
C142 H174 0.929 . S
C143 C144 1.358 . S
C143 C145 1.356 . S
C143 H175 0.930 . S
C144 N141 1.279 . S
C144 C143 1.358 . S
C144 H147 0.930 . S
C145 C142 1.348 . S
C145 C143 1.356 . S
H146 C140 0.930 . S
H147 C144 0.930 . S
O148 Li88 1.956 . S
O148 Li89 1.970 . S
O148 Li90 1.961 . S
O148 C92 1.325 . S
O149 Li88 1.970 . S
O149 Li89 1.956 . S
O149 Li91 1.961 1_455 S
O149 C98 1.325 . S
O150 Li88 1.961 1_655 S
O150 Li90 1.956 1_655 S
O150 Li91 1.970 . S
O150 C120 1.325 . S
O151 Li89 1.961 . S
O151 Li90 1.970 . S
O151 Li91 1.956 1_455 S
O151 C126 1.325 . S
H152 C94 0.929 . S
H153 C95 0.930 . S
H154 C96 0.930 . S
H155 C97 0.930 . S
H156 C99 0.930 . S
H157 C101 0.929 . S
H158 C102 0.930 . S
H159 C103 0.930 . S
H160 C106 0.930 . S
H161 C109 0.929 1_655 S
H162 C114 0.929 . S
H163 C115 0.930 . S
H164 C122 0.929 . S
H165 C123 0.930 . S
H166 C124 0.930 . S
H167 C125 0.930 . S
H168 C127 0.938 . S
H169 C128 0.930 . S
H170 C129 0.930 . S
H171 C130 0.930 . S
H172 C134 0.929 . S
H173 C136 0.930 . S
H174 C142 0.929 . S
H175 C143 0.930 . S
Li176 N193 1.990 . S
Li176 O236 1.956 . S
Li176 O237 1.970 . S
Li176 O238 1.961 . S
Li177 N201 1.990 . S
Li177 O236 1.970 . S
Li177 O237 1.956 . S
Li177 O239 1.961 . S
Li178 N223 1.990 . S
Li178 O236 1.961 . S
Li178 O238 1.956 . S
Li178 O239 1.970 . S
Li179 N229 1.990 . S
Li179 O237 1.961 . S
Li179 O238 1.970 . S
Li179 O239 1.956 . S
C180 C182 1.348 . S
C180 C183 1.356 . S
C180 O236 1.325 . S
N181 C184 1.314 . S
N181 C185 1.279 . S
C182 C180 1.348 . S
C182 C184 1.353 . S
C182 H240 0.929 . S
C183 C180 1.356 . S
C183 C185 1.358 . S
C183 H241 0.930 . S
C184 N181 1.314 . S
C184 C182 1.353 . S
C184 H242 0.930 . S
C185 N181 1.279 . S
C185 C183 1.358 . S
C185 H243 0.930 . S
C186 C189 1.348 . S
C186 C190 1.356 . S
C186 O237 1.325 . S
C187 N188 1.279 . S
C187 C190 1.358 . S
C187 H244 0.930 . S
N188 C187 1.279 . S
N188 C191 1.314 . S
C189 C186 1.348 . S
C189 C191 1.353 . S
C189 H245 0.929 . S
C190 C186 1.356 . S
C190 C187 1.358 . S
C190 H246 0.930 . S
C191 N188 1.314 . S
C191 C189 1.353 . S
C191 H247 0.930 . S
C192 N193 1.314 . S
C192 C197 1.353 . S
C192 H198 0.930 . S
N193 Li176 1.990 . S
N193 C192 1.314 . S
N193 C195 1.279 . S
C194 C195 1.358 . S
C194 C196 1.356 . S
C194 H248 0.930 . S
C195 N193 1.279 . S
C195 C194 1.358 . S
C195 H199 0.930 . S
C196 C194 1.356 . S
C196 C197 1.348 . S
C197 C192 1.353 . S
C197 C196 1.348 . S
C197 H249 0.929 . S
H198 C192 0.930 . S
H199 C195 0.930 . S
C200 N201 1.314 . S
C200 C202 1.353 . S
C200 H206 0.930 . S
N201 Li177 1.990 . S
N201 C200 1.314 . S
N201 C204 1.279 . S
C202 C200 1.353 . S
C202 C205 1.348 . S
C202 H250 0.929 . S
C203 C204 1.358 . S
C203 C205 1.356 . S
C203 H251 0.930 . S
C204 N201 1.279 . S
C204 C203 1.358 . S
C204 H207 0.930 . S
C205 C202 1.348 . S
C205 C203 1.356 . S
H206 C200 0.930 . S
H207 C204 0.930 . S
C208 C210 1.348 . S
C208 C211 1.356 . S
C208 O238 1.325 . S
N209 C212 1.314 . S
N209 C213 1.279 . S
C210 C208 1.348 . S
C210 C212 1.353 . S
C210 H252 0.929 . S
C211 C208 1.356 . S
C211 C213 1.358 . S
C211 H253 0.930 . S
C212 N209 1.314 . S
C212 C210 1.353 . S
C212 H254 0.930 . S
C213 N209 1.279 . S
C213 C211 1.358 . S
C213 H255 0.930 . S
C214 C215 1.348 . S
C214 C216 1.356 . S
C214 O239 1.325 . S
C215 C214 1.348 . S
C215 C217 1.353 . S
C215 H256 0.929 . S
C216 C214 1.356 . S
C216 C218 1.358 . S
C216 H257 0.930 . S
C217 C215 1.353 . S
C217 N219 1.314 . S
C217 H258 0.930 . S
C218 C216 1.358 . S
C218 N219 1.279 . S
C218 H259 0.930 . S
N219 C217 1.314 . S
N219 C218 1.279 . S
C220 C222 1.353 . S
C220 N223 1.314 . S
C220 H226 0.930 . S
C221 N223 1.279 . S
C221 C224 1.358 . S
C221 H227 0.930 . S
C222 C220 1.353 . S
C222 C225 1.348 . S
C222 H260 0.929 . S
N223 Li178 1.990 . S
N223 C220 1.314 . S
N223 C221 1.279 . S
C224 C221 1.358 . S
C224 C225 1.356 . S
C224 H261 0.930 . S
C225 C222 1.348 . S
C225 C224 1.356 . S
H226 C220 0.930 . S
H227 C221 0.930 . S
C228 N229 1.314 . S
C228 C230 1.353 . S
C228 H234 0.930 . S
N229 Li179 1.990 . S
N229 C228 1.314 . S
N229 C232 1.279 . S
C230 C228 1.353 . S
C230 C233 1.348 . S
C230 H262 0.929 . S
C231 C232 1.358 . S
C231 C233 1.356 . S
C231 H263 0.930 . S
C232 N229 1.279 . S
C232 C231 1.358 . S
C232 H235 0.930 . S
C233 C230 1.348 . S
C233 C231 1.356 . S
H234 C228 0.930 . S
H235 C232 0.930 . S
O236 Li176 1.956 . S
O236 Li177 1.970 . S
O236 Li178 1.961 . S
O236 C180 1.325 . S
O237 Li176 1.970 . S
O237 Li177 1.956 . S
O237 Li179 1.961 . S
O237 C186 1.325 . S
O238 Li176 1.961 . S
O238 Li178 1.956 . S
O238 Li179 1.970 . S
O238 C208 1.325 . S
O239 Li177 1.961 . S
O239 Li178 1.970 . S
O239 Li179 1.956 . S
O239 C214 1.325 . S
H240 C182 0.929 . S
H241 C183 0.930 . S
H242 C184 0.930 . S
H243 C185 0.930 . S
H244 C187 0.930 . S
H245 C189 0.929 . S
H246 C190 0.930 . S
H247 C191 0.930 . S
H248 C194 0.930 . S
H249 C197 0.929 . S
H250 C202 0.929 . S
H251 C203 0.930 . S
H252 C210 0.929 . S
H253 C211 0.930 . S
H254 C212 0.930 . S
H255 C213 0.930 . S
H256 C215 0.929 . S
H257 C216 0.930 . S
H258 C217 0.930 . S
H259 C218 0.930 . S
H260 C222 0.929 . S
H261 C224 0.930 . S
H262 C230 0.929 . S
H263 C231 0.930 . S
Li264 N281 1.990 . S
Li264 O324 1.956 . S
Li264 O325 1.970 . S
Li264 O326 1.961 . S
Li265 N289 1.990 . S
Li265 O324 1.970 . S
Li265 O325 1.956 . S
Li265 O327 1.961 . S
Li266 N311 1.990 . S
Li266 O324 1.961 . S
Li266 O326 1.956 . S
Li266 O327 1.970 . S
Li267 N317 1.990 . S
Li267 O325 1.961 . S
Li267 O326 1.970 . S
Li267 O327 1.956 . S
C268 C270 1.348 . S
C268 C271 1.356 . S
C268 O324 1.325 . S
N269 C272 1.314 . S
N269 C273 1.279 . S
C270 C268 1.348 . S
C270 C272 1.353 . S
C270 H328 0.929 . S
C271 C268 1.356 . S
C271 C273 1.358 . S
C271 H329 0.930 . S
C272 N269 1.314 . S
C272 C270 1.353 . S
C272 H330 0.930 . S
C273 N269 1.279 . S
C273 C271 1.358 . S
C273 H331 0.930 . S
C274 C277 1.348 . S
C274 C278 1.356 . S
C274 O325 1.325 . S
C275 N276 1.279 . S
C275 C278 1.358 . S
C275 H332 0.930 . S
N276 C275 1.279 . S
N276 C279 1.314 . S
C277 C274 1.348 . S
C277 C279 1.353 . S
C277 H333 0.929 . S
C278 C274 1.356 . S
C278 C275 1.358 . S
C278 H334 0.930 . S
C279 N276 1.314 . S
C279 C277 1.353 . S
C279 H335 0.930 . S
C280 N281 1.314 . S
C280 C285 1.353 . S
C280 H286 0.930 . S
N281 Li264 1.990 . S
N281 C280 1.314 . S
N281 C283 1.279 . S
C282 C283 1.358 . S
C282 C284 1.356 . S
C282 H336 0.930 . S
C283 N281 1.279 . S
C283 C282 1.358 . S
C283 H287 0.930 . S
C284 C282 1.356 . S
C284 C285 1.348 . S
C285 C280 1.353 . S
C285 C284 1.348 . S
C285 H337 0.929 . S
H286 C280 0.930 . S
H287 C283 0.930 . S
C288 N289 1.314 . S
C288 C290 1.353 . S
C288 H294 0.930 . S
N289 Li265 1.990 . S
N289 C288 1.314 . S
N289 C292 1.279 . S
C290 C288 1.353 . S
C290 C293 1.348 . S
C290 H338 0.929 . S
C291 C292 1.358 . S
C291 C293 1.356 . S
C291 H339 0.930 . S
C292 N289 1.279 . S
C292 C291 1.358 . S
C292 H295 0.930 . S
C293 C290 1.348 . S
C293 C291 1.356 . S
H294 C288 0.930 . S
H295 C292 0.930 . S
C296 C298 1.348 . S
C296 C299 1.356 . S
C296 O326 1.325 . S
N297 C300 1.314 . S
N297 C301 1.279 . S
C298 C296 1.348 . S
C298 C300 1.353 . S
C298 H340 0.929 . S
C299 C296 1.356 . S
C299 C301 1.358 . S
C299 H341 0.930 . S
C300 N297 1.314 . S
C300 C298 1.353 . S
C300 H342 0.930 . S
C301 N297 1.279 . S
C301 C299 1.358 . S
C301 H343 0.930 . S
C302 C303 1.348 . S
C302 C304 1.356 . S
C302 O327 1.325 . S
C303 C302 1.348 . S
C303 C305 1.353 . S
C303 H344 0.929 . S
C304 C302 1.356 . S
C304 C306 1.358 . S
C304 H345 0.930 . S
C305 C303 1.353 . S
C305 N307 1.314 . S
C305 H346 0.930 . S
C306 C304 1.358 . S
C306 N307 1.279 . S
C306 H347 0.930 . S
N307 C305 1.314 . S
N307 C306 1.279 . S
C308 C310 1.353 . S
C308 N311 1.314 . S
C308 H314 0.930 . S
C309 N311 1.279 . S
C309 C312 1.358 . S
C309 H315 0.930 . S
C310 C308 1.353 . S
C310 C313 1.348 . S
C310 H348 0.929 . S
N311 Li266 1.990 . S
N311 C308 1.314 . S
N311 C309 1.279 . S
C312 C309 1.358 . S
C312 C313 1.356 . S
C312 H349 0.930 . S
C313 C310 1.348 . S
C313 C312 1.356 . S
H314 C308 0.930 . S
H315 C309 0.930 . S
C316 N317 1.314 . S
C316 C318 1.353 . S
C316 H322 0.930 . S
N317 Li267 1.990 . S
N317 C316 1.314 . S
N317 C320 1.279 . S
C318 C316 1.353 . S
C318 C321 1.348 . S
C318 H350 0.929 . S
C319 C320 1.358 . S
C319 C321 1.356 . S
C319 H351 0.930 . S
C320 N317 1.279 . S
C320 C319 1.358 . S
C320 H323 0.930 . S
C321 C318 1.348 . S
C321 C319 1.356 . S
H322 C316 0.930 . S
H323 C320 0.930 . S
O324 Li264 1.956 . S
O324 Li265 1.970 . S
O324 Li266 1.961 . S
O324 C268 1.325 . S
O325 Li264 1.970 . S
O325 Li265 1.956 . S
O325 Li267 1.961 . S
O325 C274 1.325 . S
O326 Li264 1.961 . S
O326 Li266 1.956 . S
O326 Li267 1.970 . S
O326 C296 1.325 . S
O327 Li265 1.961 . S
O327 Li266 1.970 . S
O327 Li267 1.956 . S
O327 C302 1.325 . S
H328 C270 0.929 . S
H329 C271 0.930 . S
H330 C272 0.930 . S
H331 C273 0.930 . S
H332 C275 0.930 . S
H333 C277 0.929 . S
H334 C278 0.930 . S
H335 C279 0.930 . S
H336 C282 0.930 . S
H337 C285 0.929 . S
H338 C290 0.929 . S
H339 C291 0.930 . S
H340 C298 0.929 . S
H341 C299 0.930 . S
H342 C300 0.930 . S
H343 C301 0.930 . S
H344 C303 0.929 . S
H345 C304 0.930 . S
H346 C305 0.930 . S
H347 C306 0.930 . S
H348 C310 0.929 . S
H349 C312 0.930 . S
H350 C318 0.929 . S
H351 C319 0.930 . S
Li352 N369 1.990 . S
Li352 O412 1.956 . S
Li352 O413 1.970 . S
Li352 O414 1.961 . S
Li353 N377 1.990 . S
Li353 O412 1.970 . S
Li353 O413 1.956 . S
Li353 O415 1.961 . S
Li354 N399 1.990 . S
Li354 O412 1.961 . S
Li354 O414 1.956 . S
Li354 O415 1.970 . S
Li355 N405 1.990 . S
Li355 O413 1.961 . S
Li355 O414 1.970 . S
Li355 O415 1.956 . S
C356 C358 1.348 . S
C356 C359 1.356 . S
C356 O412 1.325 . S
N357 C360 1.314 . S
N357 C361 1.279 . S
C358 C356 1.348 . S
C358 C360 1.353 . S
C358 H416 0.929 . S
C359 C356 1.356 . S
C359 C361 1.358 . S
C359 H417 0.930 . S
C360 N357 1.314 . S
C360 C358 1.353 . S
C360 H418 0.930 . S
C361 N357 1.279 . S
C361 C359 1.358 . S
C361 H419 0.930 . S
C362 C365 1.348 . S
C362 C366 1.356 . S
C362 O413 1.325 . S
C363 N364 1.279 . S
C363 C366 1.358 . S
C363 H420 0.930 . S
N364 C363 1.279 . S
N364 C367 1.314 . S
C365 C362 1.348 . S
C365 C367 1.353 . S
C365 H421 0.929 . S
C366 C362 1.356 . S
C366 C363 1.358 . S
C366 H422 0.930 . S
C367 N364 1.314 . S
C367 C365 1.353 . S
C367 H423 0.930 . S
C368 N369 1.314 . S
C368 C373 1.353 . S
C368 H374 0.930 . S
N369 Li352 1.990 . S
N369 C368 1.314 . S
N369 C371 1.279 . S
C370 C371 1.358 . S
C370 C372 1.356 . S
C370 H424 0.930 . S
C371 N369 1.279 . S
C371 C370 1.358 . S
C371 H375 0.930 . S
C372 C370 1.356 . S
C372 C373 1.348 . S
C373 C368 1.353 . S
C373 C372 1.348 . S
C373 H425 0.929 . S
H374 C368 0.930 . S
H375 C371 0.930 . S
C376 N377 1.314 . S
C376 C378 1.353 . S
C376 H382 0.930 . S
N377 Li353 1.990 . S
N377 C376 1.314 . S
N377 C380 1.279 . S
C378 C376 1.353 . S
C378 C381 1.348 . S
C378 H426 0.929 . S
C379 C380 1.358 . S
C379 C381 1.356 . S
C379 H427 0.930 . S
C380 N377 1.279 . S
C380 C379 1.358 . S
C380 H383 0.930 . S
C381 C378 1.348 . S
C381 C379 1.356 . S
H382 C376 0.930 . S
H383 C380 0.930 . S
C384 C386 1.348 1_455 S
C384 C387 1.356 . S
C384 O414 1.325 . S
N385 C388 1.314 . S
N385 C389 1.279 . S
C386 C384 1.348 1_655 S
C386 C388 1.353 . S
C386 H428 0.929 . S
C387 C384 1.356 . S
C387 C389 1.358 1_455 S
C387 H429 0.930 . S
C388 N385 1.314 . S
C388 C386 1.353 . S
C388 H430 0.930 . S
C389 N385 1.279 . S
C389 C387 1.358 1_655 S
C389 H431 0.930 . S
C390 C391 1.348 . S
C390 C392 1.356 . S
C390 O415 1.325 . S
C391 C390 1.348 . S
C391 C393 1.353 . S
C391 H432 0.929 . S
C392 C390 1.356 . S
C392 C394 1.358 . S
C392 H433 0.930 . S
C393 C391 1.353 . S
C393 N395 1.314 . S
C393 H434 0.930 . S
C394 C392 1.358 . S
C394 N395 1.279 . S
C394 H435 0.930 . S
N395 C393 1.314 . S
N395 C394 1.279 . S
C396 C398 1.353 . S
C396 N399 1.314 . S
C396 H402 0.930 . S
C397 N399 1.279 . S
C397 C400 1.358 . S
C397 H403 0.930 . S
C398 C396 1.353 . S
C398 C401 1.348 . S
C398 H436 0.929 . S
N399 Li354 1.990 . S
N399 C396 1.314 . S
N399 C397 1.279 . S
C400 C397 1.358 . S
C400 C401 1.356 . S
C400 H437 0.930 . S
C401 C398 1.348 . S
C401 C400 1.356 . S
H402 C396 0.930 . S
H403 C397 0.930 . S
C404 N405 1.314 . S
C404 C406 1.353 1_455 S
C404 H410 0.930 . S
N405 Li355 1.990 . S
N405 C404 1.314 . S
N405 C408 1.279 . S
C406 C404 1.353 1_655 S
C406 C409 1.348 . S
C406 H438 0.929 . S
C407 C408 1.358 1_655 S
C407 C409 1.356 . S
C407 H439 0.930 . S
C408 N405 1.279 . S
C408 C407 1.358 1_455 S
C408 H411 0.930 . S
C409 C406 1.348 . S
C409 C407 1.356 . S
H410 C404 0.930 . S
H411 C408 0.930 . S
O412 Li352 1.956 . S
O412 Li353 1.970 . S
O412 Li354 1.961 . S
O412 C356 1.325 . S
O413 Li352 1.970 . S
O413 Li353 1.956 . S
O413 Li355 1.961 . S
O413 C362 1.325 . S
O414 Li352 1.961 . S
O414 Li354 1.956 . S
O414 Li355 1.970 . S
O414 C384 1.325 . S
O415 Li353 1.961 . S
O415 Li354 1.970 . S
O415 Li355 1.956 . S
O415 C390 1.325 . S
H416 C358 0.929 . S
H417 C359 0.930 . S
H418 C360 0.930 . S
H419 C361 0.930 . S
H420 C363 0.930 . S
H421 C365 0.929 . S
H422 C366 0.930 . S
H423 C367 0.930 . S
H424 C370 0.930 . S
H425 C373 0.929 . S
H426 C378 0.929 . S
H427 C379 0.930 . S
H428 C386 0.929 . S
H429 C387 0.930 . S
H430 C388 0.930 . S
H431 C389 0.930 . S
H432 C391 0.929 . S
H433 C392 0.930 . S
H434 C393 0.930 . S
H435 C394 0.930 . S
H436 C398 0.929 . S
H437 C400 0.930 . S
H438 C406 0.929 . S
H439 C407 0.930 . S
Li440 N457 1.990 . S
Li440 O500 1.956 . S
Li440 O501 1.970 . S
Li440 O502 1.961 . S
Li441 N465 1.990 . S
Li441 O500 1.970 . S
Li441 O501 1.956 . S
Li441 O503 1.961 . S
Li442 N487 1.990 . S
Li442 O500 1.961 . S
Li442 O502 1.956 . S
Li442 O503 1.970 . S
Li443 N493 1.990 . S
Li443 O501 1.961 . S
Li443 O502 1.970 . S
Li443 O503 1.956 . S
C444 C446 1.348 . S
C444 C447 1.356 . S
C444 O500 1.325 . S
N445 C448 1.314 . S
N445 C449 1.279 . S
C446 C444 1.348 . S
C446 C448 1.353 . S
C446 H504 0.929 . S
C447 C444 1.356 . S
C447 C449 1.358 . S
C447 H505 0.930 . S
C448 N445 1.314 . S
C448 C446 1.353 . S
C448 H506 0.930 . S
C449 N445 1.279 . S
C449 C447 1.358 . S
C449 H507 0.930 . S
C450 C453 1.348 . S
C450 C454 1.356 . S
C450 O501 1.325 . S
C451 N452 1.279 . S
C451 C454 1.358 . S
C451 H508 0.930 . S
N452 C451 1.279 . S
N452 C455 1.314 . S
C453 C450 1.348 . S
C453 C455 1.353 . S
C453 H509 0.929 . S
C454 C450 1.356 . S
C454 C451 1.358 . S
C454 H510 0.930 . S
C455 N452 1.314 . S
C455 C453 1.353 . S
C455 H511 0.930 . S
C456 N457 1.314 . S
C456 C461 1.353 . S
C456 H462 0.930 . S
N457 Li440 1.990 . S
N457 C456 1.314 . S
N457 C459 1.279 . S
C458 C459 1.358 . S
C458 C460 1.356 . S
C458 H512 0.930 . S
C459 N457 1.279 . S
C459 C458 1.358 . S
C459 H463 0.930 . S
C460 C458 1.356 . S
C460 C461 1.348 . S
C461 C456 1.353 . S
C461 C460 1.348 . S
C461 H513 0.929 . S
H462 C456 0.930 . S
H463 C459 0.930 . S
C464 N465 1.314 . S
C464 C466 1.353 . S
C464 H470 0.930 . S
N465 Li441 1.990 . S
N465 C464 1.314 . S
N465 C468 1.279 . S
C466 C464 1.353 . S
C466 C469 1.348 . S
C466 H514 0.929 . S
C467 C468 1.358 . S
C467 C469 1.356 . S
C467 H515 0.930 . S
C468 N465 1.279 . S
C468 C467 1.358 . S
C468 H471 0.930 . S
C469 C466 1.348 . S
C469 C467 1.356 . S
H470 C464 0.930 . S
H471 C468 0.930 . S
C472 C474 1.348 . S
C472 C475 1.356 . S
C472 O502 1.325 . S
N473 C476 1.314 . S
N473 C477 1.279 . S
C474 C472 1.348 . S
C474 C476 1.353 . S
C474 H516 0.929 . S
C475 C472 1.356 . S
C475 C477 1.358 . S
C475 H517 0.930 . S
C476 N473 1.314 . S
C476 C474 1.353 . S
C476 H518 0.930 . S
C477 N473 1.279 . S
C477 C475 1.358 . S
C477 H519 0.930 . S
C478 C479 1.348 . S
C478 C480 1.356 . S
C478 O503 1.325 . S
C479 C478 1.348 . S
C479 C481 1.353 . S
C479 H520 0.929 . S
C480 C478 1.356 . S
C480 C482 1.358 . S
C480 H521 0.930 . S
C481 C479 1.353 . S
C481 N483 1.314 . S
C481 H522 0.930 . S
C482 C480 1.358 . S
C482 N483 1.279 . S
C482 H523 0.930 . S
N483 C481 1.314 . S
N483 C482 1.279 . S
C484 C486 1.353 . S
C484 N487 1.314 . S
C484 H490 0.930 . S
C485 N487 1.279 . S
C485 C488 1.358 . S
C485 H491 0.930 . S
C486 C484 1.353 . S
C486 C489 1.348 . S
C486 H524 0.929 . S
N487 Li442 1.990 . S
N487 C484 1.314 . S
N487 C485 1.279 . S
C488 C485 1.358 . S
C488 C489 1.356 . S
C488 H525 0.930 . S
C489 C486 1.348 . S
C489 C488 1.356 . S
H490 C484 0.930 . S
H491 C485 0.930 . S
C492 N493 1.314 . S
C492 C494 1.353 . S
C492 H498 0.930 . S
N493 Li443 1.990 . S
N493 C492 1.314 . S
N493 C496 1.279 . S
C494 C492 1.353 . S
C494 C497 1.348 . S
C494 H526 0.929 . S
C495 C496 1.358 . S
C495 C497 1.356 . S
C495 H527 0.930 . S
C496 N493 1.279 . S
C496 C495 1.358 . S
C496 H499 0.930 . S
C497 C494 1.348 . S
C497 C495 1.356 . S
H498 C492 0.930 . S
H499 C496 0.930 . S
O500 Li440 1.956 . S
O500 Li441 1.970 . S
O500 Li442 1.961 . S
O500 C444 1.325 . S
O501 Li440 1.970 . S
O501 Li441 1.956 . S
O501 Li443 1.961 . S
O501 C450 1.325 . S
O502 Li440 1.961 . S
O502 Li442 1.956 . S
O502 Li443 1.970 . S
O502 C472 1.325 . S
O503 Li441 1.961 . S
O503 Li442 1.970 . S
O503 Li443 1.956 . S
O503 C478 1.325 . S
H504 C446 0.929 . S
H505 C447 0.930 . S
H506 C448 0.930 . S
H507 C449 0.930 . S
H508 C451 0.930 . S
H509 C453 0.929 . S
H510 C454 0.930 . S
H511 C455 0.930 . S
H512 C458 0.930 . S
H513 C461 0.929 . S
H514 C466 0.929 . S
H515 C467 0.930 . S
H516 C474 0.929 . S
H517 C475 0.930 . S
H518 C476 0.930 . S
H519 C477 0.930 . S
H520 C479 0.929 . S
H521 C480 0.930 . S
H522 C481 0.930 . S
H523 C482 0.930 . S
H524 C486 0.929 . S
H525 C488 0.930 . S
H526 C494 0.929 . S
H527 C495 0.930 . S
Li528 N545 1.990 . S
Li528 O588 1.956 . S
Li528 O589 1.970 . S
Li528 O590 1.961 . S
Li529 N553 1.990 . S
Li529 O588 1.970 . S
Li529 O589 1.956 . S
Li529 O591 1.961 . S
Li530 N575 1.990 . S
Li530 O588 1.961 . S
Li530 O590 1.956 . S
Li530 O591 1.970 . S
Li531 N581 1.990 . S
Li531 O589 1.961 . S
Li531 O590 1.970 . S
Li531 O591 1.956 . S
C532 C534 1.348 . S
C532 C535 1.356 . S
C532 O588 1.325 . S
N533 C536 1.314 . S
N533 C537 1.279 . S
C534 C532 1.348 . S
C534 C536 1.353 . S
C534 H592 0.929 . S
C535 C532 1.356 . S
C535 C537 1.358 . S
C535 H593 0.930 . S
C536 N533 1.314 . S
C536 C534 1.353 . S
C536 H594 0.930 . S
C537 N533 1.279 . S
C537 C535 1.358 . S
C537 H595 0.930 . S
C538 C541 1.348 . S
C538 C542 1.356 . S
C538 O589 1.325 . S
C539 N540 1.279 . S
C539 C542 1.358 . S
C539 H596 0.930 . S
N540 C539 1.279 . S
N540 C543 1.314 . S
C541 C538 1.348 . S
C541 C543 1.353 . S
C541 H597 0.929 . S
C542 C538 1.356 . S
C542 C539 1.358 . S
C542 H598 0.930 . S
C543 N540 1.314 . S
C543 C541 1.353 . S
C543 H599 0.930 . S
C544 N545 1.314 . S
C544 C549 1.353 . S
C544 H550 0.930 . S
N545 Li528 1.990 . S
N545 C544 1.314 . S
N545 C547 1.279 . S
C546 C547 1.358 . S
C546 C548 1.356 . S
C546 H600 0.930 . S
C547 N545 1.279 . S
C547 C546 1.358 . S
C547 H551 0.930 . S
C548 C546 1.356 . S
C548 C549 1.348 . S
C549 C544 1.353 . S
C549 C548 1.348 . S
C549 H601 0.929 . S
H550 C544 0.930 . S
H551 C547 0.930 . S
C552 N553 1.314 . S
C552 C554 1.353 . S
C552 H558 0.930 . S
N553 Li529 1.990 . S
N553 C552 1.314 . S
N553 C556 1.279 . S
C554 C552 1.353 . S
C554 C557 1.348 . S
C554 H602 0.929 . S
C555 C556 1.358 . S
C555 C557 1.356 . S
C555 H603 0.930 . S
C556 N553 1.279 . S
C556 C555 1.358 . S
C556 H559 0.930 . S
C557 C554 1.348 . S
C557 C555 1.356 . S
H558 C552 0.930 . S
H559 C556 0.930 . S
C560 C562 1.348 . S
C560 C563 1.356 . S
C560 O590 1.325 . S
N561 C564 1.314 . S
N561 C565 1.279 . S
C562 C560 1.348 . S
C562 C564 1.353 . S
C562 H604 0.929 . S
C563 C560 1.356 . S
C563 C565 1.358 . S
C563 H605 0.930 . S
C564 N561 1.314 . S
C564 C562 1.353 . S
C564 H606 0.930 . S
C565 N561 1.279 . S
C565 C563 1.358 . S
C565 H607 0.930 . S
C566 C567 1.348 . S
C566 C568 1.356 . S
C566 O591 1.325 . S
C567 C566 1.348 . S
C567 C569 1.353 . S
C567 H608 0.929 . S
C568 C566 1.356 . S
C568 C570 1.358 . S
C568 H609 0.930 . S
C569 C567 1.353 . S
C569 N571 1.314 . S
C569 H610 0.930 . S
C570 C568 1.358 . S
C570 N571 1.279 . S
C570 H611 0.930 . S
N571 C569 1.314 . S
N571 C570 1.279 . S
C572 C574 1.353 . S
C572 N575 1.314 . S
C572 H578 0.930 . S
C573 N575 1.279 . S
C573 C576 1.358 . S
C573 H579 0.930 . S
C574 C572 1.353 . S
C574 C577 1.348 . S
C574 H612 0.929 . S
N575 Li530 1.990 . S
N575 C572 1.314 . S
N575 C573 1.279 . S
C576 C573 1.358 . S
C576 C577 1.356 . S
C576 H613 0.930 . S
C577 C574 1.348 . S
C577 C576 1.356 . S
H578 C572 0.930 . S
H579 C573 0.930 . S
C580 N581 1.314 . S
C580 C582 1.353 . S
C580 H586 0.930 . S
N581 Li531 1.990 . S
N581 C580 1.314 . S
N581 C584 1.279 . S
C582 C580 1.353 . S
C582 C585 1.348 . S
C582 H614 0.929 . S
C583 C584 1.358 . S
C583 C585 1.356 . S
C583 H615 0.930 . S
C584 N581 1.279 . S
C584 C583 1.358 . S
C584 H587 0.930 . S
C585 C582 1.348 . S
C585 C583 1.356 . S
H586 C580 0.930 . S
H587 C584 0.930 . S
O588 Li528 1.956 . S
O588 Li529 1.970 . S
O588 Li530 1.961 . S
O588 C532 1.325 . S
O589 Li528 1.970 . S
O589 Li529 1.956 . S
O589 Li531 1.961 . S
O589 C538 1.325 . S
O590 Li528 1.961 . S
O590 Li530 1.956 . S
O590 Li531 1.970 . S
O590 C560 1.325 . S
O591 Li529 1.961 . S
O591 Li530 1.970 . S
O591 Li531 1.956 . S
O591 C566 1.325 . S
H592 C534 0.929 . S
H593 C535 0.930 . S
H594 C536 0.930 . S
H595 C537 0.930 . S
H596 C539 0.930 . S
H597 C541 0.929 . S
H598 C542 0.930 . S
H599 C543 0.930 . S
H600 C546 0.930 . S
H601 C549 0.929 . S
H602 C554 0.929 . S
H603 C555 0.930 . S
H604 C562 0.929 . S
H605 C563 0.930 . S
H606 C564 0.930 . S
H607 C565 0.930 . S
H608 C567 0.929 . S
H609 C568 0.930 . S
H610 C569 0.930 . S
H611 C570 0.930 . S
H612 C574 0.929 . S
H613 C576 0.930 . S
H614 C582 0.929 . S
H615 C583 0.930 . S
Li616 N633 1.990 . S
Li616 O676 1.956 1_455 S
Li616 O677 1.970 . S
Li616 O678 1.961 . S
Li617 N641 1.990 . S
Li617 O676 1.970 . S
Li617 O677 1.956 1_655 S
Li617 O679 1.961 . S
Li618 N663 1.993 . S
Li618 O676 1.955 . S
Li618 O678 1.961 1_655 S
Li618 O679 1.970 . S
Li619 N669 1.990 . S
Li619 O677 1.961 . S
Li619 O678 1.970 . S
Li619 O679 1.956 1_455 S
C620 C622 1.348 . S
C620 C623 1.356 . S
C620 O676 1.325 . S
N621 C624 1.314 . S
N621 C625 1.279 . S
C622 C620 1.348 . S
C622 C624 1.353 . S
C622 H680 0.929 . S
C623 C620 1.356 . S
C623 C625 1.358 . S
C623 H681 0.930 . S
C624 N621 1.314 . S
C624 C622 1.353 . S
C624 H682 0.930 . S
C625 N621 1.279 . S
C625 C623 1.358 . S
C625 H683 0.930 1_556 S
C626 C629 1.348 1_455 S
C626 C630 1.356 . S
C626 O677 1.325 . S
C627 N628 1.279 . S
C627 C630 1.358 . S
C627 H684 0.930 . S
N628 C627 1.279 . S
N628 C631 1.302 1_455 S
C629 C626 1.348 1_655 S
C629 C631 1.351 . S
C629 H685 0.929 . S
C630 C626 1.356 . S
C630 C627 1.358 . S
C630 H686 0.930 . S
C631 N628 1.302 1_655 S
C631 C629 1.351 . S
C631 H687 0.949 . S
C632 N633 1.314 . S
C632 C637 1.353 . S
C632 H638 0.930 . S
N633 Li616 1.990 . S
N633 C632 1.314 . S
N633 C635 1.279 1_455 S
C634 C635 1.358 . S
C634 C636 1.356 1_655 S
C634 H688 0.930 . S
C635 N633 1.279 1_655 S
C635 C634 1.358 . S
C635 H639 0.930 . S
C636 C634 1.356 1_455 S
C636 C637 1.348 . S
C637 C632 1.353 . S
C637 C636 1.348 . S
C637 H689 0.929 . S
H638 C632 0.930 . S
H639 C635 0.930 . S
C640 N641 1.314 . S
C640 C642 1.353 . S
C640 H646 0.930 . S
N641 Li617 1.990 . S
N641 C640 1.314 . S
N641 C644 1.279 . S
C642 C640 1.353 . S
C642 C645 1.348 . S
C642 H690 0.929 . S
C643 C644 1.358 . S
C643 C645 1.356 . S
C643 H691 0.930 . S
C644 N641 1.279 . S
C644 C643 1.358 . S
C644 H647 0.930 . S
C645 C642 1.348 . S
C645 C643 1.356 . S
H646 C640 0.930 . S
H647 C644 0.930 . S
C648 C650 1.348 . S
C648 C651 1.356 . S
C648 O678 1.325 . S
N649 C652 1.314 . S
N649 C653 1.279 . S
C650 C648 1.348 . S
C650 C652 1.353 . S
C650 H692 0.929 . S
C651 C648 1.356 . S
C651 C653 1.358 . S
C651 H693 0.930 . S
C652 N649 1.314 . S
C652 C650 1.353 . S
C652 H694 0.930 . S
C653 N649 1.279 . S
C653 C651 1.358 . S
C653 H695 0.930 1_556 S
C654 C655 1.348 . S
C654 C656 1.356 . S
C654 O679 1.325 . S
C655 C654 1.348 . S
C655 C657 1.353 . S
C655 H696 0.929 1_655 S
C656 C654 1.356 . S
C656 C658 1.358 . S
C656 H697 0.930 . S
C657 C655 1.353 . S
C657 N659 1.314 . S
C657 H698 0.930 . S
C658 C656 1.358 . S
C658 N659 1.279 . S
C658 H699 0.930 . S
N659 C657 1.314 . S
N659 C658 1.279 . S
C660 C662 1.353 . S
C660 N663 1.340 . S
C660 H666 0.930 . S
C661 N663 1.253 1_455 S
C661 C664 1.358 . S
C661 H667 0.930 . S
C662 C660 1.353 . S
C662 C665 1.348 . S
C662 H700 0.929 . S
N663 Li618 1.993 . S
N663 C660 1.340 . S
N663 C661 1.253 1_655 S
C664 C661 1.358 . S
C664 C665 1.356 1_455 S
C664 H701 0.930 . S
C665 C662 1.348 . S
C665 C664 1.356 1_655 S
H666 C660 0.930 . S
H667 C661 0.930 . S
C668 N669 1.314 . S
C668 C670 1.353 . S
C668 H674 0.930 . S
N669 Li619 1.990 . S
N669 C668 1.314 . S
N669 C672 1.279 . S
C670 C668 1.353 . S
C670 C673 1.348 . S
C670 H702 0.929 . S
C671 C672 1.358 . S
C671 C673 1.356 . S
C671 H703 0.930 . S
C672 N669 1.279 . S
C672 C671 1.358 . S
C672 H675 0.930 . S
C673 C670 1.348 . S
C673 C671 1.356 . S
H674 C668 0.930 . S
H675 C672 0.930 . S
O676 Li616 1.956 1_655 S
O676 Li617 1.970 . S
O676 Li618 1.955 . S
O676 C620 1.325 . S
O677 Li616 1.970 . S
O677 Li617 1.956 1_455 S
O677 Li619 1.961 . S
O677 C626 1.325 . S
O678 Li616 1.961 . S
O678 Li618 1.961 1_455 S
O678 Li619 1.970 . S
O678 C648 1.325 . S
O679 Li617 1.961 . S
O679 Li618 1.970 . S
O679 Li619 1.956 1_655 S
O679 C654 1.325 . S
H680 C622 0.929 . S
H681 C623 0.930 . S
H682 C624 0.930 . S
H683 C625 0.930 1_554 S
H684 C627 0.930 . S
H685 C629 0.929 . S
H686 C630 0.930 . S
H687 C631 0.949 . S
H688 C634 0.930 . S
H689 C637 0.929 . S
H690 C642 0.929 . S
H691 C643 0.930 . S
H692 C650 0.929 . S
H693 C651 0.930 . S
H694 C652 0.930 . S
H695 C653 0.930 1_554 S
H696 C655 0.929 1_455 S
H697 C656 0.930 . S
H698 C657 0.930 . S
H699 C658 0.930 . S
H700 C662 0.929 . S
H701 C664 0.930 . S
H702 C670 0.929 . S
H703 C671 0.930 . S
Li704 N721 1.990 . S
Li704 O764 1.956 1_545 S
Li704 O765 1.970 . S
Li704 O766 1.961 . S
Li705 N729 1.990 . S
Li705 O764 1.970 . S
Li705 O765 1.956 1_565 S
Li705 O767 1.961 1_565 S
Li706 N751 1.990 . S
Li706 O764 1.961 1_545 S
Li706 O766 1.956 . S
Li706 O767 1.970 . S
Li707 N757 1.990 . S
Li707 O765 1.961 . S
Li707 O766 1.970 . S
Li707 O767 1.956 . S
C708 C710 1.348 . S
C708 C711 1.356 . S
C708 O764 1.325 . S
N709 C712 1.314 . S
N709 C713 1.279 . S
C710 C708 1.348 . S
C710 C712 1.353 . S
C710 H768 0.929 . S
C711 C708 1.356 . S
C711 C713 1.358 . S
C711 H769 0.930 . S
C712 N709 1.314 . S
C712 C710 1.353 . S
C712 H770 0.930 . S
C713 N709 1.279 . S
C713 C711 1.358 . S
C713 H771 0.930 . S
C714 C717 1.348 . S
C714 C718 1.356 . S
C714 O765 1.325 . S
C715 N716 1.279 . S
C715 C718 1.358 . S
C715 H772 0.930 . S
N716 C715 1.279 . S
N716 C719 1.322 . S
C717 C714 1.348 . S
C717 C719 1.353 . S
C717 H773 0.911 1_545 S
C718 C714 1.356 . S
C718 C715 1.358 . S
C718 H774 0.930 . S
C719 N716 1.322 . S
C719 C717 1.353 . S
C719 H775 0.921 1_545 S
C720 N721 1.314 . S
C720 C725 1.353 . S
C720 H726 0.930 . S
N721 Li704 1.990 . S
N721 C720 1.314 . S
N721 C723 1.279 1_545 S
C722 C723 1.363 1_545 S
C722 C724 1.385 . S
C722 H776 0.896 1_545 S
C723 N721 1.279 1_565 S
C723 C722 1.363 1_565 S
C723 H727 0.930 . S
C724 C722 1.385 . S
C724 C725 1.348 . S
C725 C720 1.353 . S
C725 C724 1.348 . S
C725 H777 0.929 . S
H726 C720 0.930 . S
H727 C723 0.930 . S
C728 N729 1.314 . S
C728 C730 1.353 . S
C728 H734 0.930 . S
N729 Li705 1.990 . S
N729 C728 1.314 . S
N729 C732 1.279 . S
C730 C728 1.353 . S
C730 C733 1.348 . S
C730 H778 0.929 . S
C731 C732 1.358 . S
C731 C733 1.356 . S
C731 H779 0.930 . S
C732 N729 1.279 . S
C732 C731 1.358 . S
C732 H735 0.930 . S
C733 C730 1.348 . S
C733 C731 1.356 . S
H734 C728 0.930 . S
H735 C732 0.930 . S
C736 C738 1.348 . S
C736 C739 1.356 . S
C736 O766 1.325 . S
N737 C740 1.314 . S
N737 C741 1.279 . S
C738 C736 1.348 . S
C738 C740 1.353 . S
C738 H780 0.929 . S
C739 C736 1.356 . S
C739 C741 1.358 . S
C739 H781 0.930 . S
C740 N737 1.314 . S
C740 C738 1.353 . S
C740 H782 0.930 . S
C741 N737 1.279 . S
C741 C739 1.358 . S
C741 H783 0.930 . S
C742 C743 1.358 . S
C742 C744 1.353 1_545 S
C742 O767 1.322 . S
C743 C742 1.358 . S
C743 C745 1.353 . S
C743 H784 0.929 . S
C744 C742 1.353 1_565 S
C744 C746 1.358 . S
C744 H785 0.930 . S
C745 C743 1.353 . S
C745 N747 1.314 1_545 S
C745 H786 0.930 . S
C746 C744 1.358 . S
C746 N747 1.279 . S
C746 H787 0.930 . S
N747 C745 1.314 1_565 S
N747 C746 1.279 . S
C748 C750 1.353 . S
C748 N751 1.314 1_565 S
C748 H754 0.930 . S
C749 N751 1.279 . S
C749 C752 1.358 . S
C749 H755 0.930 . S
C750 C748 1.353 . S
C750 C753 1.348 1_565 S
C750 H788 0.929 . S
N751 Li706 1.990 . S
N751 C748 1.314 1_545 S
N751 C749 1.279 . S
C752 C749 1.358 . S
C752 C753 1.356 . S
C752 H789 0.930 . S
C753 C750 1.348 1_545 S
C753 C752 1.356 . S
H754 C748 0.930 . S
H755 C749 0.930 . S
C756 N757 1.314 . S
C756 C758 1.353 . S
C756 H762 0.930 . S
N757 Li707 1.990 . S
N757 C756 1.314 . S
N757 C760 1.279 . S
C758 C756 1.353 . S
C758 C761 1.348 . S
C758 H790 0.929 . S
C759 C760 1.358 . S
C759 C761 1.356 . S
C759 H791 0.930 . S
C760 N757 1.279 . S
C760 C759 1.358 . S
C760 H763 0.930 . S
C761 C758 1.348 . S
C761 C759 1.356 . S
H762 C756 0.930 . S
H763 C760 0.930 . S
O764 Li704 1.956 1_565 S
O764 Li705 1.970 . S
O764 Li706 1.961 1_565 S
O764 C708 1.325 . S
O765 Li704 1.970 . S
O765 Li705 1.956 1_545 S
O765 Li707 1.961 . S
O765 C714 1.325 . S
O766 Li704 1.961 . S
O766 Li706 1.956 . S
O766 Li707 1.970 . S
O766 C736 1.325 . S
O767 Li705 1.961 1_545 S
O767 Li706 1.970 . S
O767 Li707 1.956 . S
O767 C742 1.322 . S
H768 C710 0.929 . S
H769 C711 0.930 . S
H770 C712 0.930 . S
H771 C713 0.930 . S
H772 C715 0.930 . S
H773 C717 0.911 1_565 S
H774 C718 0.930 . S
H775 C719 0.921 1_565 S
H776 C722 0.896 1_565 S
H777 C725 0.929 . S
H778 C730 0.929 . S
H779 C731 0.930 . S
H780 C738 0.929 . S
H781 C739 0.930 . S
H782 C740 0.930 . S
H783 C741 0.930 . S
H784 C743 0.929 . S
H785 C744 0.930 . S
H786 C745 0.930 . S
H787 C746 0.930 . S
H788 C750 0.929 . S
H789 C752 0.930 . S
H790 C758 0.929 . S
H791 C759 0.930 . S
Li792 N809 1.990 . S
Li792 O852 1.956 . S
Li792 O853 1.970 . S
Li792 O854 1.961 . S
Li793 N817 1.990 . S
Li793 O852 1.970 . S
Li793 O853 1.956 . S
Li793 O855 1.961 . S
Li794 N839 1.990 . S
Li794 O852 1.961 . S
Li794 O854 1.956 . S
Li794 O855 1.970 . S
Li795 N845 1.990 . S
Li795 O853 1.961 . S
Li795 O854 1.970 . S
Li795 O855 1.956 . S
C796 C798 1.348 . S
C796 C799 1.356 . S
C796 O852 1.325 . S
N797 C800 1.314 . S
N797 C801 1.279 . S
C798 C796 1.348 . S
C798 C800 1.353 . S
C798 H856 0.929 . S
C799 C796 1.356 . S
C799 C801 1.358 . S
C799 H857 0.930 . S
C800 N797 1.314 . S
C800 C798 1.353 . S
C800 H858 0.930 . S
C801 N797 1.279 . S
C801 C799 1.358 . S
C801 H859 0.930 . S
C802 C805 1.348 . S
C802 C806 1.356 . S
C802 O853 1.325 . S
C803 N804 1.279 . S
C803 C806 1.358 . S
C803 H860 0.930 . S
N804 C803 1.279 . S
N804 C807 1.314 . S
C805 C802 1.348 . S
C805 C807 1.353 . S
C805 H861 0.929 . S
C806 C802 1.356 . S
C806 C803 1.358 . S
C806 H862 0.930 . S
C807 N804 1.314 . S
C807 C805 1.353 . S
C807 H863 0.930 . S
C808 N809 1.314 . S
C808 C813 1.353 . S
C808 H814 0.930 . S
N809 Li792 1.990 . S
N809 C808 1.314 . S
N809 C811 1.279 . S
C810 C811 1.358 . S
C810 C812 1.356 . S
C810 H864 0.930 . S
C811 N809 1.279 . S
C811 C810 1.358 . S
C811 H815 0.930 . S
C812 C810 1.356 . S
C812 C813 1.348 . S
C813 C808 1.353 . S
C813 C812 1.348 . S
C813 H865 0.929 . S
H814 C808 0.930 . S
H815 C811 0.930 . S
C816 N817 1.314 . S
C816 C818 1.353 . S
C816 H822 0.930 . S
N817 Li793 1.990 . S
N817 C816 1.314 . S
N817 C820 1.279 . S
C818 C816 1.353 . S
C818 C821 1.348 . S
C818 H866 0.929 . S
C819 C820 1.358 . S
C819 C821 1.356 . S
C819 H867 0.930 . S
C820 N817 1.279 . S
C820 C819 1.358 . S
C820 H823 0.930 . S
C821 C818 1.348 . S
C821 C819 1.356 . S
H822 C816 0.930 . S
H823 C820 0.930 . S
C824 C826 1.348 . S
C824 C827 1.356 . S
C824 O854 1.325 . S
N825 C828 1.314 . S
N825 C829 1.279 . S
C826 C824 1.348 . S
C826 C828 1.353 . S
C826 H868 0.929 . S
C827 C824 1.356 . S
C827 C829 1.358 . S
C827 H869 0.930 . S
C828 N825 1.314 . S
C828 C826 1.353 . S
C828 H870 0.930 . S
C829 N825 1.279 . S
C829 C827 1.358 . S
C829 H871 0.930 . S
C830 C831 1.348 . S
C830 C832 1.356 . S
C830 O855 1.325 . S
C831 C830 1.348 . S
C831 C833 1.353 . S
C831 H872 0.929 . S
C832 C830 1.356 . S
C832 C834 1.358 . S
C832 H873 0.930 . S
C833 C831 1.353 . S
C833 N835 1.314 . S
C833 H874 0.930 . S
C834 C832 1.358 . S
C834 N835 1.279 . S
C834 H875 0.930 . S
N835 C833 1.314 . S
N835 C834 1.279 . S
C836 C838 1.353 . S
C836 N839 1.314 . S
C836 H842 0.930 . S
C837 N839 1.279 . S
C837 C840 1.358 . S
C837 H843 0.930 . S
C838 C836 1.353 . S
C838 C841 1.348 . S
C838 H876 0.929 . S
N839 Li794 1.990 . S
N839 C836 1.314 . S
N839 C837 1.279 . S
C840 C837 1.358 . S
C840 C841 1.356 . S
C840 H877 0.930 . S
C841 C838 1.348 . S
C841 C840 1.356 . S
H842 C836 0.930 . S
H843 C837 0.930 . S
C844 N845 1.314 . S
C844 C846 1.353 . S
C844 H850 0.930 . S
N845 Li795 1.990 . S
N845 C844 1.314 . S
N845 C848 1.279 . S
C846 C844 1.353 . S
C846 C849 1.348 . S
C846 H878 0.929 . S
C847 C848 1.358 . S
C847 C849 1.356 . S
C847 H879 0.930 . S
C848 N845 1.279 . S
C848 C847 1.358 . S
C848 H851 0.930 . S
C849 C846 1.348 . S
C849 C847 1.356 . S
H850 C844 0.930 . S
H851 C848 0.930 . S
O852 Li792 1.956 . S
O852 Li793 1.970 . S
O852 Li794 1.961 . S
O852 C796 1.325 . S
O853 Li792 1.970 . S
O853 Li793 1.956 . S
O853 Li795 1.961 . S
O853 C802 1.325 . S
O854 Li792 1.961 . S
O854 Li794 1.956 . S
O854 Li795 1.970 . S
O854 C824 1.325 . S
O855 Li793 1.961 . S
O855 Li794 1.970 . S
O855 Li795 1.956 . S
O855 C830 1.325 . S
H856 C798 0.929 . S
H857 C799 0.930 . S
H858 C800 0.930 . S
H859 C801 0.930 . S
H860 C803 0.930 . S
H861 C805 0.929 . S
H862 C806 0.930 . S
H863 C807 0.930 . S
H864 C810 0.930 . S
H865 C813 0.929 . S
H866 C818 0.929 . S
H867 C819 0.930 . S
H868 C826 0.929 . S
H869 C827 0.930 . S
H870 C828 0.930 . S
H871 C829 0.930 . S
H872 C831 0.929 . S
H873 C832 0.930 . S
H874 C833 0.930 . S
H875 C834 0.930 . S
H876 C838 0.929 . S
H877 C840 0.930 . S
H878 C846 0.929 . S
H879 C847 0.930 . S
Li880 N897 1.990 . S
Li880 O940 1.956 . S
Li880 O941 1.970 . S
Li880 O942 1.961 . S
Li881 N905 1.990 . S
Li881 O940 1.970 . S
Li881 O941 1.956 . S
Li881 O943 1.961 . S
Li882 N927 1.990 1_545 S
Li882 O940 1.961 . S
Li882 O942 1.956 . S
Li882 O943 1.970 . S
Li883 N933 1.990 . S
Li883 O941 1.961 . S
Li883 O942 1.970 . S
Li883 O943 1.956 . S
C884 C886 1.348 . S
C884 C887 1.356 . S
C884 O940 1.325 . S
N885 C888 1.314 . S
N885 C889 1.279 . S
C886 C884 1.348 . S
C886 C888 1.353 . S
C886 H944 0.929 . S
C887 C884 1.356 . S
C887 C889 1.358 . S
C887 H945 0.930 . S
C888 N885 1.314 . S
C888 C886 1.353 . S
C888 H946 0.930 . S
C889 N885 1.279 . S
C889 C887 1.358 . S
C889 H947 0.930 . S
C890 C893 1.348 . S
C890 C894 1.356 . S
C890 O941 1.325 . S
C891 N892 1.279 . S
C891 C894 1.358 . S
C891 H948 0.930 . S
N892 C891 1.279 . S
N892 C895 1.314 . S
C893 C890 1.348 . S
C893 C895 1.353 . S
C893 H949 0.929 . S
C894 C890 1.356 . S
C894 C891 1.358 . S
C894 H950 0.930 . S
C895 N892 1.314 . S
C895 C893 1.353 . S
C895 H951 0.930 . S
C896 N897 1.314 . S
C896 C901 1.353 . S
C896 H902 0.930 . S
N897 Li880 1.990 . S
N897 C896 1.314 . S
N897 C899 1.279 . S
C898 C899 1.358 . S
C898 C900 1.356 . S
C898 H952 0.930 . S
C899 N897 1.279 . S
C899 C898 1.358 . S
C899 H903 0.930 . S
C900 C898 1.356 . S
C900 C901 1.348 . S
C901 C896 1.353 . S
C901 C900 1.348 . S
C901 H953 0.929 . S
H902 C896 0.930 . S
H903 C899 0.930 . S
C904 N905 1.314 . S
C904 C906 1.353 . S
C904 H910 0.930 . S
N905 Li881 1.990 . S
N905 C904 1.314 . S
N905 C908 1.279 . S
C906 C904 1.353 . S
C906 C909 1.348 . S
C906 H954 0.929 . S
C907 C908 1.358 . S
C907 C909 1.356 . S
C907 H955 0.930 . S
C908 N905 1.279 . S
C908 C907 1.358 . S
C908 H911 0.930 . S
C909 C906 1.348 . S
C909 C907 1.356 . S
H910 C904 0.930 . S
H911 C908 0.930 . S
C912 C914 1.348 . S
C912 C915 1.356 . S
C912 O942 1.325 . S
N913 C916 1.314 . S
N913 C917 1.279 . S
C914 C912 1.348 . S
C914 C916 1.353 . S
C914 H956 0.929 . S
C915 C912 1.356 . S
C915 C917 1.358 . S
C915 H957 0.930 . S
C916 N913 1.314 . S
C916 C914 1.353 . S
C916 H958 0.930 . S
C917 N913 1.279 . S
C917 C915 1.358 . S
C917 H959 0.930 . S
C918 C919 1.348 . S
C918 C920 1.356 . S
C918 O943 1.325 1_565 S
C919 C918 1.348 . S
C919 C921 1.353 . S
C919 H960 0.929 . S
C920 C918 1.356 . S
C920 C922 1.358 . S
C920 H961 0.930 1_565 S
C921 C919 1.353 . S
C921 N923 1.314 . S
C921 H962 0.930 . S
C922 C920 1.358 . S
C922 N923 1.279 . S
C922 H963 0.930 . S
N923 C921 1.314 . S
N923 C922 1.279 . S
C924 C926 1.353 . S
C924 N927 1.314 . S
C924 H930 0.930 . S
C925 N927 1.279 . S
C925 C928 1.358 . S
C925 H931 0.930 . S
C926 C924 1.353 . S
C926 C929 1.348 . S
C926 H964 0.929 . S
N927 Li882 1.990 1_565 S
N927 C924 1.314 . S
N927 C925 1.279 . S
C928 C925 1.358 . S
C928 C929 1.356 . S
C928 H965 0.930 . S
C929 C926 1.348 . S
C929 C928 1.356 . S
H930 C924 0.930 . S
H931 C925 0.930 . S
C932 N933 1.314 . S
C932 C934 1.353 . S
C932 H938 0.930 . S
N933 Li883 1.990 . S
N933 C932 1.314 . S
N933 C936 1.279 . S
C934 C932 1.353 . S
C934 C937 1.348 . S
C934 H966 0.929 . S
C935 C936 1.358 . S
C935 C937 1.356 . S
C935 H967 0.930 1_545 S
C936 N933 1.279 . S
C936 C935 1.358 . S
C936 H939 0.889 1_545 S
C937 C934 1.348 . S
C937 C935 1.356 . S
H938 C932 0.930 . S
H939 C936 0.889 1_565 S
O940 Li880 1.956 . S
O940 Li881 1.970 . S
O940 Li882 1.961 . S
O940 C884 1.325 . S
O941 Li880 1.970 . S
O941 Li881 1.956 . S
O941 Li883 1.961 . S
O941 C890 1.325 . S
O942 Li880 1.961 . S
O942 Li882 1.956 . S
O942 Li883 1.970 . S
O942 C912 1.325 . S
O943 Li881 1.961 . S
O943 Li882 1.970 . S
O943 Li883 1.956 . S
O943 C918 1.325 1_545 S
H944 C886 0.929 . S
H945 C887 0.930 . S
H946 C888 0.930 . S
H947 C889 0.930 . S
H948 C891 0.930 . S
H949 C893 0.929 . S
H950 C894 0.930 . S
H951 C895 0.930 . S
H952 C898 0.930 . S
H953 C901 0.929 . S
H954 C906 0.929 . S
H955 C907 0.930 . S
H956 C914 0.929 . S
H957 C915 0.930 . S
H958 C916 0.930 . S
H959 C917 0.930 . S
H960 C919 0.929 . S
H961 C920 0.930 1_545 S
H962 C921 0.930 . S
H963 C922 0.930 . S
H964 C926 0.929 . S
H965 C928 0.930 . S
H966 C934 0.929 . S
H967 C935 0.930 1_565 S
Li968 N985 1.990 . S
Li968 O1028 1.979 . S
Li968 O1029 1.971 1_554 S
Li968 O1030 1.934 1_554 S
Li969 N993 1.990 . S
Li969 O1028 1.970 . S
Li969 O1029 1.956 1_554 S
Li969 O1031 1.996 . S
Li970 N1015 1.990 . S
Li970 O1028 1.961 . S
Li970 O1030 1.956 1_554 S
Li970 O1031 1.967 . S
Li971 N1021 1.990 . S
Li971 O1029 1.961 . S
Li971 O1030 1.970 . S
Li971 O1031 1.923 1_556 S
C972 C974 1.348 . S
C972 C975 1.356 . S
C972 O1028 1.325 . S
N973 C976 1.314 . S
N973 C977 1.279 . S
C974 C972 1.348 . S
C974 C976 1.353 . S
C974 H1032 0.929 . S
C975 C972 1.356 . S
C975 C977 1.358 . S
C975 H1033 0.930 . S
C976 N973 1.314 . S
C976 C974 1.353 . S
C976 H1034 0.930 . S
C977 N973 1.279 . S
C977 C975 1.358 . S
C977 H1035 0.930 . S
C978 C981 1.348 1_556 S
C978 C982 1.356 . S
C978 O1029 1.325 . S
C979 N980 1.279 . S
C979 C982 1.358 . S
C979 H1036 0.930 . S
N980 C979 1.279 . S
N980 C983 1.323 . S
C981 C978 1.348 1_554 S
C981 C983 1.357 1_554 S
C981 H1037 0.929 . S
C982 C978 1.356 . S
C982 C979 1.358 . S
C982 H1038 0.930 . S
C983 N980 1.323 . S
C983 C981 1.357 1_556 S
C983 H1039 0.918 1_556 S
C984 N985 1.272 1_556 S
C984 C989 1.353 . S
C984 H990 0.930 . S
N985 Li968 1.990 . S
N985 C984 1.272 1_554 S
N985 C987 1.323 . S
C986 C987 1.358 . S
C986 C988 1.344 1_554 S
C986 H1040 0.930 . S
C987 N985 1.323 . S
C987 C986 1.358 . S
C987 H991 0.930 . S
C988 C986 1.344 1_556 S
C988 C989 1.361 . S
C989 C984 1.353 . S
C989 C988 1.361 . S
C989 H1041 0.929 . S
H990 C984 0.930 . S
H991 C987 0.930 . S
C992 N993 1.314 . S
C992 C994 1.353 . S
C992 H998 0.930 . S
N993 Li969 1.990 . S
N993 C992 1.314 . S
N993 C996 1.279 . S
C994 C992 1.353 . S
C994 C997 1.348 . S
C994 H1042 0.929 . S
C995 C996 1.358 . S
C995 C997 1.356 . S
C995 H1043 0.930 . S
C996 N993 1.279 . S
C996 C995 1.358 . S
C996 H999 0.930 . S
C997 C994 1.348 . S
C997 C995 1.356 . S
H998 C992 0.930 . S
H999 C996 0.930 . S
C1000 C1002 1.348 . S
C1000 C1003 1.356 . S
C1000 O1030 1.325 . S
N1001 C1004 1.314 . S
N1001 C1005 1.279 . S
C1002 C1000 1.348 . S
C1002 C1004 1.353 . S
C1002 H1044 0.929 . S
C1003 C1000 1.356 . S
C1003 C1005 1.358 . S
C1003 H1045 0.930 . S
C1004 N1001 1.314 . S
C1004 C1002 1.353 . S
C1004 H1046 0.930 . S
C1005 N1001 1.279 . S
C1005 C1003 1.358 . S
C1005 H1047 0.930 . S
C1006 C1007 1.341 1_554 S
C1006 C1008 1.361 . S
C1006 O1031 1.324 . S
C1007 C1006 1.341 1_556 S
C1007 C1009 1.353 . S
C1007 H1048 0.929 . S
C1008 C1006 1.361 . S
C1008 C1010 1.358 . S
C1008 H1049 0.930 . S
C1009 C1007 1.353 . S
C1009 N1011 1.314 . S
C1009 H1050 0.930 . S
C1010 C1008 1.358 . S
C1010 N1011 1.279 1_554 S
C1010 H1051 0.930 . S
N1011 C1009 1.314 . S
N1011 C1010 1.279 1_556 S
C1012 C1014 1.353 . S
C1012 N1015 1.314 . S
C1012 H1018 0.930 . S
C1013 N1015 1.279 1_556 S
C1013 C1016 1.358 . S
C1013 H1019 0.930 . S
C1014 C1012 1.353 . S
C1014 C1017 1.348 . S
C1014 H1052 0.929 . S
N1015 Li970 1.990 . S
N1015 C1012 1.314 . S
N1015 C1013 1.279 1_554 S
C1016 C1013 1.358 . S
C1016 C1017 1.356 1_556 S
C1016 H1053 0.930 . S
C1017 C1014 1.348 . S
C1017 C1016 1.356 1_554 S
H1018 C1012 0.930 . S
H1019 C1013 0.930 . S
C1020 N1021 1.314 . S
C1020 C1022 1.353 . S
C1020 H1026 0.930 . S
N1021 Li971 1.990 . S
N1021 C1020 1.314 . S
N1021 C1024 1.279 . S
C1022 C1020 1.353 . S
C1022 C1025 1.348 . S
C1022 H1054 0.929 . S
C1023 C1024 1.358 . S
C1023 C1025 1.356 . S
C1023 H1055 0.930 . S
C1024 N1021 1.279 . S
C1024 C1023 1.358 . S
C1024 H1027 0.930 . S
C1025 C1022 1.348 . S
C1025 C1023 1.356 . S
H1026 C1020 0.930 . S
H1027 C1024 0.930 . S
O1028 Li968 1.979 . S
O1028 Li969 1.970 . S
O1028 Li970 1.961 . S
O1028 C972 1.325 . S
O1029 Li968 1.971 1_556 S
O1029 Li969 1.956 1_556 S
O1029 Li971 1.961 . S
O1029 C978 1.325 . S
O1030 Li968 1.934 1_556 S
O1030 Li970 1.956 1_556 S
O1030 Li971 1.970 . S
O1030 C1000 1.325 . S
O1031 Li969 1.996 . S
O1031 Li970 1.967 . S
O1031 Li971 1.923 1_554 S
O1031 C1006 1.324 . S
H1032 C974 0.929 . S
H1033 C975 0.930 . S
H1034 C976 0.930 . S
H1035 C977 0.930 . S
H1036 C979 0.930 . S
H1037 C981 0.929 . S
H1038 C982 0.930 . S
H1039 C983 0.918 1_554 S
H1040 C986 0.930 . S
H1041 C989 0.929 . S
H1042 C994 0.929 . S
H1043 C995 0.930 . S
H1044 C1002 0.929 . S
H1045 C1003 0.930 . S
H1046 C1004 0.930 . S
H1047 C1005 0.930 . S
H1048 C1007 0.929 . S
H1049 C1008 0.930 . S
H1050 C1009 0.930 . S
H1051 C1010 0.930 . S
H1052 C1014 0.929 . S
H1053 C1016 0.930 . S
H1054 C1022 0.929 . S
H1055 C1023 0.930 . S
Li1056 N1073 1.990 . S
Li1056 O1116 1.956 . S
Li1056 O1117 1.970 . S
Li1056 O1118 1.961 . S
Li1057 N1081 1.990 . S
Li1057 O1116 1.970 . S
Li1057 O1117 1.956 . S
Li1057 O1119 1.961 . S
Li1058 N1103 1.990 . S
Li1058 O1116 1.961 . S
Li1058 O1118 1.956 . S
Li1058 O1119 1.970 . S
Li1059 N1109 1.990 1_554 S
Li1059 O1117 1.961 . S
Li1059 O1118 1.970 . S
Li1059 O1119 1.956 . S
C1060 C1062 1.348 . S
C1060 C1063 1.356 . S
C1060 O1116 1.325 . S
N1061 C1064 1.314 . S
N1061 C1065 1.279 . S
C1062 C1060 1.348 . S
C1062 C1064 1.353 . S
C1062 H1120 0.929 . S
C1063 C1060 1.356 . S
C1063 C1065 1.358 . S
C1063 H1121 0.930 . S
C1064 N1061 1.314 . S
C1064 C1062 1.353 . S
C1064 H1122 0.930 . S
C1065 N1061 1.279 . S
C1065 C1063 1.358 . S
C1065 H1123 0.930 . S
C1066 C1069 1.348 . S
C1066 C1070 1.356 . S
C1066 O1117 1.325 . S
C1067 N1068 1.279 . S
C1067 C1070 1.358 . S
C1067 H1124 0.930 . S
N1068 C1067 1.279 . S
N1068 C1071 1.314 . S
C1069 C1066 1.348 . S
C1069 C1071 1.353 . S
C1069 H1125 0.929 . S
C1070 C1066 1.356 . S
C1070 C1067 1.358 . S
C1070 H1126 0.930 . S
C1071 N1068 1.314 . S
C1071 C1069 1.353 . S
C1071 H1127 0.930 . S
C1072 N1073 1.314 . S
C1072 C1077 1.353 . S
C1072 H1078 0.930 . S
N1073 Li1056 1.990 . S
N1073 C1072 1.314 . S
N1073 C1075 1.279 . S
C1074 C1075 1.358 . S
C1074 C1076 1.356 . S
C1074 H1128 0.930 . S
C1075 N1073 1.279 . S
C1075 C1074 1.358 . S
C1075 H1079 0.930 . S
C1076 C1074 1.356 . S
C1076 C1077 1.348 . S
C1077 C1072 1.353 . S
C1077 C1076 1.348 . S
C1077 H1129 0.929 . S
H1078 C1072 0.930 . S
H1079 C1075 0.930 . S
C1080 N1081 1.314 . S
C1080 C1082 1.353 . S
C1080 H1086 0.930 . S
N1081 Li1057 1.990 . S
N1081 C1080 1.314 . S
N1081 C1084 1.279 . S
C1082 C1080 1.353 . S
C1082 C1085 1.348 . S
C1082 H1130 0.929 . S
C1083 C1084 1.358 . S
C1083 C1085 1.356 . S
C1083 H1131 0.930 . S
C1084 N1081 1.279 . S
C1084 C1083 1.358 . S
C1084 H1087 0.930 . S
C1085 C1082 1.348 . S
C1085 C1083 1.356 . S
H1086 C1080 0.930 . S
H1087 C1084 0.930 . S
C1088 C1090 1.348 1_554 S
C1088 C1091 1.356 . S
C1088 O1118 1.325 . S
N1089 C1092 1.314 . S
N1089 C1093 1.279 . S
C1090 C1088 1.348 1_556 S
C1090 C1092 1.353 . S
C1090 H1132 0.929 . S
C1091 C1088 1.356 . S
C1091 C1093 1.358 1_554 S
C1091 H1133 0.930 . S
C1092 N1089 1.314 . S
C1092 C1090 1.353 . S
C1092 H1134 0.930 . S
C1093 N1089 1.279 . S
C1093 C1091 1.358 1_556 S
C1093 H1135 0.930 . S
C1094 C1095 1.348 . S
C1094 C1096 1.356 . S
C1094 O1119 1.325 . S
C1095 C1094 1.348 . S
C1095 C1097 1.353 . S
C1095 H1136 0.929 . S
C1096 C1094 1.356 . S
C1096 C1098 1.358 . S
C1096 H1137 0.930 . S
C1097 C1095 1.353 . S
C1097 N1099 1.314 . S
C1097 H1138 0.930 . S
C1098 C1096 1.358 . S
C1098 N1099 1.279 . S
C1098 H1139 0.930 . S
N1099 C1097 1.314 . S
N1099 C1098 1.279 . S
C1100 C1102 1.353 . S
C1100 N1103 1.314 . S
C1100 H1106 0.930 . S
C1101 N1103 1.279 . S
C1101 C1104 1.358 . S
C1101 H1107 0.930 . S
C1102 C1100 1.353 . S
C1102 C1105 1.348 . S
C1102 H1140 0.929 . S
N1103 Li1058 1.990 . S
N1103 C1100 1.314 . S
N1103 C1101 1.279 . S
C1104 C1101 1.358 . S
C1104 C1105 1.356 . S
C1104 H1141 0.930 . S
C1105 C1102 1.348 . S
C1105 C1104 1.356 . S
H1106 C1100 0.930 . S
H1107 C1101 0.930 . S
C1108 N1109 1.314 . S
C1108 C1110 1.353 . S
C1108 H1114 0.930 . S
N1109 Li1059 1.990 1_556 S
N1109 C1108 1.314 . S
N1109 C1112 1.279 . S
C1110 C1108 1.353 . S
C1110 C1113 1.348 . S
C1110 H1142 0.929 . S
C1111 C1112 1.358 . S
C1111 C1113 1.356 . S
C1111 H1143 0.930 . S
C1112 N1109 1.279 . S
C1112 C1111 1.358 . S
C1112 H1115 0.930 . S
C1113 C1110 1.348 . S
C1113 C1111 1.356 . S
H1114 C1108 0.930 . S
H1115 C1112 0.930 . S
O1116 Li1056 1.956 . S
O1116 Li1057 1.970 . S
O1116 Li1058 1.961 . S
O1116 C1060 1.325 . S
O1117 Li1056 1.970 . S
O1117 Li1057 1.956 . S
O1117 Li1059 1.961 . S
O1117 C1066 1.325 . S
O1118 Li1056 1.961 . S
O1118 Li1058 1.956 . S
O1118 Li1059 1.970 . S
O1118 C1088 1.325 . S
O1119 Li1057 1.961 . S
O1119 Li1058 1.970 . S
O1119 Li1059 1.956 . S
O1119 C1094 1.325 . S
H1120 C1062 0.929 . S
H1121 C1063 0.930 . S
H1122 C1064 0.930 . S
H1123 C1065 0.930 . S
H1124 C1067 0.930 . S
H1125 C1069 0.929 . S
H1126 C1070 0.930 . S
H1127 C1071 0.930 . S
H1128 C1074 0.930 . S
H1129 C1077 0.929 . S
H1130 C1082 0.929 . S
H1131 C1083 0.930 . S
H1132 C1090 0.929 . S
H1133 C1091 0.930 . S
H1134 C1092 0.930 . S
H1135 C1093 0.930 . S
H1136 C1095 0.929 . S
H1137 C1096 0.930 . S
H1138 C1097 0.930 . S
H1139 C1098 0.930 . S
H1140 C1102 0.929 . S
H1141 C1104 0.930 . S
H1142 C1110 0.929 . S
H1143 C1111 0.930 . S
Li1144 N1161 1.990 . S
Li1144 O1204 1.956 . S
Li1144 O1205 1.970 . S
Li1144 O1206 1.961 . S
Li1145 N1169 1.990 . S
Li1145 O1204 1.970 . S
Li1145 O1205 1.956 . S
Li1145 O1207 1.961 . S
Li1146 N1191 1.990 . S
Li1146 O1204 1.961 . S
Li1146 O1206 1.956 . S
Li1146 O1207 1.970 . S
Li1147 N1197 1.990 . S
Li1147 O1205 1.961 . S
Li1147 O1206 1.970 . S
Li1147 O1207 1.956 . S
C1148 C1150 1.348 . S
C1148 C1151 1.356 . S
C1148 O1204 1.325 . S
N1149 C1152 1.314 . S
N1149 C1153 1.279 . S
C1150 C1148 1.348 . S
C1150 C1152 1.353 . S
C1150 H1208 0.929 . S
C1151 C1148 1.356 . S
C1151 C1153 1.358 . S
C1151 H1209 0.930 . S
C1152 N1149 1.314 . S
C1152 C1150 1.353 . S
C1152 H1210 0.930 . S
C1153 N1149 1.279 . S
C1153 C1151 1.358 . S
C1153 H1211 0.930 . S
C1154 C1157 1.348 . S
C1154 C1158 1.356 . S
C1154 O1205 1.325 . S
C1155 N1156 1.279 . S
C1155 C1158 1.358 . S
C1155 H1212 0.930 . S
N1156 C1155 1.279 . S
N1156 C1159 1.314 . S
C1157 C1154 1.348 . S
C1157 C1159 1.353 . S
C1157 H1213 0.929 . S
C1158 C1154 1.356 . S
C1158 C1155 1.358 . S
C1158 H1214 0.930 . S
C1159 N1156 1.314 . S
C1159 C1157 1.353 . S
C1159 H1215 0.930 . S
C1160 N1161 1.314 . S
C1160 C1165 1.353 . S
C1160 H1166 0.930 . S
N1161 Li1144 1.990 . S
N1161 C1160 1.314 . S
N1161 C1163 1.279 . S
C1162 C1163 1.358 . S
C1162 C1164 1.356 . S
C1162 H1216 0.930 . S
C1163 N1161 1.279 . S
C1163 C1162 1.358 . S
C1163 H1167 0.930 . S
C1164 C1162 1.356 . S
C1164 C1165 1.348 . S
C1165 C1160 1.353 . S
C1165 C1164 1.348 . S
C1165 H1217 0.929 . S
H1166 C1160 0.930 . S
H1167 C1163 0.930 . S
C1168 N1169 1.314 . S
C1168 C1170 1.353 . S
C1168 H1174 0.930 . S
N1169 Li1145 1.990 . S
N1169 C1168 1.314 . S
N1169 C1172 1.279 . S
C1170 C1168 1.353 . S
C1170 C1173 1.348 . S
C1170 H1218 0.929 . S
C1171 C1172 1.358 . S
C1171 C1173 1.356 . S
C1171 H1219 0.930 . S
C1172 N1169 1.279 . S
C1172 C1171 1.358 . S
C1172 H1175 0.930 . S
C1173 C1170 1.348 . S
C1173 C1171 1.356 . S
H1174 C1168 0.930 . S
H1175 C1172 0.930 . S
C1176 C1178 1.348 . S
C1176 C1179 1.356 . S
C1176 O1206 1.325 . S
N1177 C1180 1.314 . S
N1177 C1181 1.279 . S
C1178 C1176 1.348 . S
C1178 C1180 1.353 . S
C1178 H1220 0.929 . S
C1179 C1176 1.356 . S
C1179 C1181 1.358 . S
C1179 H1221 0.930 . S
C1180 N1177 1.314 . S
C1180 C1178 1.353 . S
C1180 H1222 0.930 . S
C1181 N1177 1.279 . S
C1181 C1179 1.358 . S
C1181 H1223 0.930 . S
C1182 C1183 1.348 1_554 S
C1182 C1184 1.356 . S
C1182 O1207 1.325 . S
C1183 C1182 1.348 1_556 S
C1183 C1185 1.353 . S
C1183 H1224 0.929 . S
C1184 C1182 1.356 . S
C1184 C1186 1.358 1_554 S
C1184 H1225 0.930 . S
C1185 C1183 1.353 . S
C1185 N1187 1.314 . S
C1185 H1226 0.930 . S
C1186 C1184 1.358 1_556 S
C1186 N1187 1.279 . S
C1186 H1227 0.930 . S
N1187 C1185 1.314 . S
N1187 C1186 1.279 . S
C1188 C1190 1.353 . S
C1188 N1191 1.314 1_556 S
C1188 H1194 0.929 . S
C1189 N1191 1.279 1_556 S
C1189 C1192 1.358 . S
C1189 H1195 0.930 1_556 S
C1190 C1188 1.353 . S
C1190 C1193 1.348 . S
C1190 H1228 0.929 . S
N1191 Li1146 1.990 . S
N1191 C1188 1.314 1_554 S
N1191 C1189 1.279 1_554 S
C1192 C1189 1.358 . S
C1192 C1193 1.356 . S
C1192 H1229 0.930 . S
C1193 C1190 1.348 . S
C1193 C1192 1.356 . S
H1194 C1188 0.929 . S
H1195 C1189 0.930 1_554 S
C1196 N1197 1.314 . S
C1196 C1198 1.353 . S
C1196 H1202 0.930 . S
N1197 Li1147 1.990 . S
N1197 C1196 1.314 . S
N1197 C1200 1.279 . S
C1198 C1196 1.353 . S
C1198 C1201 1.348 . S
C1198 H1230 0.929 . S
C1199 C1200 1.358 . S
C1199 C1201 1.356 . S
C1199 H1231 0.930 . S
C1200 N1197 1.279 . S
C1200 C1199 1.358 . S
C1200 H1203 0.930 . S
C1201 C1198 1.348 . S
C1201 C1199 1.356 . S
H1202 C1196 0.930 . S
H1203 C1200 0.930 . S
O1204 Li1144 1.956 . S
O1204 Li1145 1.970 . S
O1204 Li1146 1.961 . S
O1204 C1148 1.325 . S
O1205 Li1144 1.970 . S
O1205 Li1145 1.956 . S
O1205 Li1147 1.961 . S
O1205 C1154 1.325 . S
O1206 Li1144 1.961 . S
O1206 Li1146 1.956 . S
O1206 Li1147 1.970 . S
O1206 C1176 1.325 . S
O1207 Li1145 1.961 . S
O1207 Li1146 1.970 . S
O1207 Li1147 1.956 . S
O1207 C1182 1.325 . S
H1208 C1150 0.929 . S
H1209 C1151 0.930 . S
H1210 C1152 0.930 . S
H1211 C1153 0.930 . S
H1212 C1155 0.930 . S
H1213 C1157 0.929 . S
H1214 C1158 0.930 . S
H1215 C1159 0.930 . S
H1216 C1162 0.930 . S
H1217 C1165 0.929 . S
H1218 C1170 0.929 . S
H1219 C1171 0.930 . S
H1220 C1178 0.929 . S
H1221 C1179 0.930 . S
H1222 C1180 0.930 . S
H1223 C1181 0.930 . S
H1224 C1183 0.929 . S
H1225 C1184 0.930 . S
H1226 C1185 0.930 . S
H1227 C1186 0.930 . S
H1228 C1190 0.929 . S
H1229 C1192 0.930 . S
H1230 C1198 0.929 . S
H1231 C1199 0.930 . S
Li1232 N1249 1.990 . S
Li1232 O1292 1.956 . S
Li1232 O1293 1.970 . S
Li1232 O1294 1.961 . S
Li1233 N1257 1.990 . S
Li1233 O1292 1.970 . S
Li1233 O1293 1.956 . S
Li1233 O1295 1.961 . S
Li1234 N1279 1.990 . S
Li1234 O1292 1.961 . S
Li1234 O1294 1.956 . S
Li1234 O1295 1.970 . S
Li1235 N1285 1.990 . S
Li1235 O1293 1.961 . S
Li1235 O1294 1.970 . S
Li1235 O1295 1.956 . S
C1236 C1238 1.348 . S
C1236 C1239 1.356 . S
C1236 O1292 1.325 . S
N1237 C1240 1.314 . S
N1237 C1241 1.279 . S
C1238 C1236 1.348 . S
C1238 C1240 1.353 . S
C1238 H1296 0.929 . S
C1239 C1236 1.356 . S
C1239 C1241 1.358 . S
C1239 H1297 0.930 . S
C1240 N1237 1.314 . S
C1240 C1238 1.353 . S
C1240 H1298 0.930 . S
C1241 N1237 1.279 . S
C1241 C1239 1.358 . S
C1241 H1299 0.930 . S
C1242 C1245 1.348 . S
C1242 C1246 1.356 . S
C1242 O1293 1.325 . S
C1243 N1244 1.279 . S
C1243 C1246 1.358 . S
C1243 H1300 0.930 . S
N1244 C1243 1.279 . S
N1244 C1247 1.314 . S
C1245 C1242 1.348 . S
C1245 C1247 1.353 . S
C1245 H1301 0.929 . S
C1246 C1242 1.356 . S
C1246 C1243 1.358 . S
C1246 H1302 0.930 . S
C1247 N1244 1.314 . S
C1247 C1245 1.353 . S
C1247 H1303 0.930 . S
C1248 N1249 1.314 . S
C1248 C1253 1.353 . S
C1248 H1254 0.930 . S
N1249 Li1232 1.990 . S
N1249 C1248 1.314 . S
N1249 C1251 1.279 . S
C1250 C1251 1.358 . S
C1250 C1252 1.356 . S
C1250 H1304 0.930 . S
C1251 N1249 1.279 . S
C1251 C1250 1.358 . S
C1251 H1255 0.930 . S
C1252 C1250 1.356 . S
C1252 C1253 1.348 . S
C1253 C1248 1.353 . S
C1253 C1252 1.348 . S
C1253 H1305 0.929 . S
H1254 C1248 0.930 . S
H1255 C1251 0.930 . S
C1256 N1257 1.314 . S
C1256 C1258 1.353 . S
C1256 H1262 0.930 . S
N1257 Li1233 1.990 . S
N1257 C1256 1.314 . S
N1257 C1260 1.279 . S
C1258 C1256 1.353 . S
C1258 C1261 1.348 . S
C1258 H1306 0.929 . S
C1259 C1260 1.358 . S
C1259 C1261 1.356 . S
C1259 H1307 0.930 . S
C1260 N1257 1.279 . S
C1260 C1259 1.358 . S
C1260 H1263 0.930 . S
C1261 C1258 1.348 . S
C1261 C1259 1.356 . S
H1262 C1256 0.930 . S
H1263 C1260 0.930 . S
C1264 C1266 1.348 . S
C1264 C1267 1.356 . S
C1264 O1294 1.325 . S
N1265 C1268 1.314 . S
N1265 C1269 1.279 . S
C1266 C1264 1.348 . S
C1266 C1268 1.353 . S
C1266 H1308 0.929 . S
C1267 C1264 1.356 . S
C1267 C1269 1.358 . S
C1267 H1309 0.930 . S
C1268 N1265 1.314 . S
C1268 C1266 1.353 . S
C1268 H1310 0.930 . S
C1269 N1265 1.279 . S
C1269 C1267 1.358 . S
C1269 H1311 0.930 . S
C1270 C1271 1.348 . S
C1270 C1272 1.356 . S
C1270 O1295 1.325 . S
C1271 C1270 1.348 . S
C1271 C1273 1.353 . S
C1271 H1312 0.929 . S
C1272 C1270 1.356 . S
C1272 C1274 1.358 . S
C1272 H1313 0.930 . S
C1273 C1271 1.353 . S
C1273 N1275 1.314 . S
C1273 H1314 0.930 . S
C1274 C1272 1.358 . S
C1274 N1275 1.279 . S
C1274 H1315 0.930 . S
N1275 C1273 1.314 . S
N1275 C1274 1.279 . S
C1276 C1278 1.353 . S
C1276 N1279 1.314 . S
C1276 H1282 0.930 . S
C1277 N1279 1.279 . S
C1277 C1280 1.358 . S
C1277 H1283 0.930 . S
C1278 C1276 1.353 . S
C1278 C1281 1.348 . S
C1278 H1316 0.929 . S
N1279 Li1234 1.990 . S
N1279 C1276 1.314 . S
N1279 C1277 1.279 . S
C1280 C1277 1.358 . S
C1280 C1281 1.356 . S
C1280 H1317 0.930 . S
C1281 C1278 1.348 . S
C1281 C1280 1.356 . S
H1282 C1276 0.930 . S
H1283 C1277 0.930 . S
C1284 N1285 1.314 . S
C1284 C1286 1.353 . S
C1284 H1290 0.930 . S
N1285 Li1235 1.990 . S
N1285 C1284 1.314 . S
N1285 C1288 1.279 . S
C1286 C1284 1.353 . S
C1286 C1289 1.348 . S
C1286 H1318 0.929 . S
C1287 C1288 1.358 . S
C1287 C1289 1.356 . S
C1287 H1319 0.930 . S
C1288 N1285 1.279 . S
C1288 C1287 1.358 . S
C1288 H1291 0.930 . S
C1289 C1286 1.348 . S
C1289 C1287 1.356 . S
H1290 C1284 0.930 . S
H1291 C1288 0.930 . S
O1292 Li1232 1.956 . S
O1292 Li1233 1.970 . S
O1292 Li1234 1.961 . S
O1292 C1236 1.325 . S
O1293 Li1232 1.970 . S
O1293 Li1233 1.956 . S
O1293 Li1235 1.961 . S
O1293 C1242 1.325 . S
O1294 Li1232 1.961 . S
O1294 Li1234 1.956 . S
O1294 Li1235 1.970 . S
O1294 C1264 1.325 . S
O1295 Li1233 1.961 . S
O1295 Li1234 1.970 . S
O1295 Li1235 1.956 . S
O1295 C1270 1.325 . S
H1296 C1238 0.929 . S
H1297 C1239 0.930 . S
H1298 C1240 0.930 . S
H1299 C1241 0.930 . S
H1300 C1243 0.930 . S
H1301 C1245 0.929 . S
H1302 C1246 0.930 . S
H1303 C1247 0.930 . S
H1304 C1250 0.930 . S
H1305 C1253 0.929 . S
H1306 C1258 0.929 . S
H1307 C1259 0.930 . S
H1308 C1266 0.929 . S
H1309 C1267 0.930 . S
H1310 C1268 0.930 . S
H1311 C1269 0.930 . S
H1312 C1271 0.929 . S
H1313 C1272 0.930 . S
H1314 C1273 0.930 . S
H1315 C1274 0.930 . S
H1316 C1278 0.929 . S
H1317 C1280 0.930 . S
H1318 C1286 0.929 . S
H1319 C1287 0.930 . S
Li1320 N1337 1.990 . S
Li1320 O1380 1.956 . S
Li1320 O1381 1.970 . S
Li1320 O1382 1.961 . S
Li1321 N1345 1.990 . S
Li1321 O1380 1.970 . S
Li1321 O1381 1.956 . S
Li1321 O1383 1.961 . S
Li1322 N1367 1.990 . S
Li1322 O1380 1.961 . S
Li1322 O1382 1.956 . S
Li1322 O1383 1.970 . S
Li1323 N1373 1.990 . S
Li1323 O1381 1.961 . S
Li1323 O1382 1.970 . S
Li1323 O1383 1.956 . S
C1324 C1326 1.348 . S
C1324 C1327 1.356 . S
C1324 O1380 1.325 . S
N1325 C1328 1.314 . S
N1325 C1329 1.279 . S
C1326 C1324 1.348 . S
C1326 C1328 1.353 . S
C1326 H1384 0.929 . S
C1327 C1324 1.356 . S
C1327 C1329 1.358 . S
C1327 H1385 0.930 . S
C1328 N1325 1.314 . S
C1328 C1326 1.353 . S
C1328 H1386 0.930 . S
C1329 N1325 1.279 . S
C1329 C1327 1.358 . S
C1329 H1387 0.930 . S
C1330 C1333 1.348 . S
C1330 C1334 1.356 . S
C1330 O1381 1.325 . S
C1331 N1332 1.279 . S
C1331 C1334 1.358 . S
C1331 H1388 0.930 . S
N1332 C1331 1.279 . S
N1332 C1335 1.314 . S
C1333 C1330 1.348 . S
C1333 C1335 1.353 . S
C1333 H1389 0.929 . S
C1334 C1330 1.356 . S
C1334 C1331 1.358 . S
C1334 H1390 0.930 . S
C1335 N1332 1.314 . S
C1335 C1333 1.353 . S
C1335 H1391 0.930 . S
C1336 N1337 1.314 . S
C1336 C1341 1.353 . S
C1336 H1342 0.930 . S
N1337 Li1320 1.990 . S
N1337 C1336 1.314 . S
N1337 C1339 1.279 . S
C1338 C1339 1.358 . S
C1338 C1340 1.356 . S
C1338 H1392 0.930 . S
C1339 N1337 1.279 . S
C1339 C1338 1.358 . S
C1339 H1343 0.930 . S
C1340 C1338 1.356 . S
C1340 C1341 1.348 . S
C1341 C1336 1.353 . S
C1341 C1340 1.348 . S
C1341 H1393 0.929 . S
H1342 C1336 0.930 . S
H1343 C1339 0.930 . S
C1344 N1345 1.314 . S
C1344 C1346 1.353 . S
C1344 H1350 0.930 . S
N1345 Li1321 1.990 . S
N1345 C1344 1.314 . S
N1345 C1348 1.279 . S
C1346 C1344 1.353 . S
C1346 C1349 1.348 . S
C1346 H1394 0.929 . S
C1347 C1348 1.358 . S
C1347 C1349 1.356 . S
C1347 H1395 0.930 . S
C1348 N1345 1.279 . S
C1348 C1347 1.358 . S
C1348 H1351 0.930 . S
C1349 C1346 1.348 . S
C1349 C1347 1.356 . S
H1350 C1344 0.930 . S
H1351 C1348 0.930 . S
C1352 C1354 1.348 . S
C1352 C1355 1.356 . S
C1352 O1382 1.325 . S
N1353 C1356 1.314 . S
N1353 C1357 1.279 . S
C1354 C1352 1.348 . S
C1354 C1356 1.353 . S
C1354 H1396 0.929 . S
C1355 C1352 1.356 . S
C1355 C1357 1.358 . S
C1355 H1397 0.930 . S
C1356 N1353 1.314 . S
C1356 C1354 1.353 . S
C1356 H1398 0.930 . S
C1357 N1353 1.279 . S
C1357 C1355 1.358 . S
C1357 H1399 0.930 . S
C1358 C1359 1.348 . S
C1358 C1360 1.356 . S
C1358 O1383 1.325 . S
C1359 C1358 1.348 . S
C1359 C1361 1.353 . S
C1359 H1400 0.929 . S
C1360 C1358 1.356 . S
C1360 C1362 1.358 . S
C1360 H1401 0.930 . S
C1361 C1359 1.353 . S
C1361 N1363 1.314 . S
C1361 H1402 0.930 . S
C1362 C1360 1.358 . S
C1362 N1363 1.279 . S
C1362 H1403 0.930 . S
N1363 C1361 1.314 . S
N1363 C1362 1.279 . S
C1364 C1366 1.353 . S
C1364 N1367 1.314 . S
C1364 H1370 0.930 . S
C1365 N1367 1.279 . S
C1365 C1368 1.358 . S
C1365 H1371 0.930 . S
C1366 C1364 1.353 . S
C1366 C1369 1.348 . S
C1366 H1404 0.929 . S
N1367 Li1322 1.990 . S
N1367 C1364 1.314 . S
N1367 C1365 1.279 . S
C1368 C1365 1.358 . S
C1368 C1369 1.356 . S
C1368 H1405 0.930 . S
C1369 C1366 1.348 . S
C1369 C1368 1.356 . S
H1370 C1364 0.930 . S
H1371 C1365 0.930 . S
C1372 N1373 1.314 . S
C1372 C1374 1.353 . S
C1372 H1378 0.930 . S
N1373 Li1323 1.990 . S
N1373 C1372 1.314 . S
N1373 C1376 1.279 . S
C1374 C1372 1.353 . S
C1374 C1377 1.348 . S
C1374 H1406 0.929 . S
C1375 C1376 1.358 . S
C1375 C1377 1.356 . S
C1375 H1407 0.930 . S
C1376 N1373 1.279 . S
C1376 C1375 1.358 . S
C1376 H1379 0.930 . S
C1377 C1374 1.348 . S
C1377 C1375 1.356 . S
H1378 C1372 0.930 . S
H1379 C1376 0.930 . S
O1380 Li1320 1.956 . S
O1380 Li1321 1.970 . S
O1380 Li1322 1.961 . S
O1380 C1324 1.325 . S
O1381 Li1320 1.970 . S
O1381 Li1321 1.956 . S
O1381 Li1323 1.961 . S
O1381 C1330 1.325 . S
O1382 Li1320 1.961 . S
O1382 Li1322 1.956 . S
O1382 Li1323 1.970 . S
O1382 C1352 1.325 . S
O1383 Li1321 1.961 . S
O1383 Li1322 1.970 . S
O1383 Li1323 1.956 . S
O1383 C1358 1.325 . S
H1384 C1326 0.929 . S
H1385 C1327 0.930 . S
H1386 C1328 0.930 . S
H1387 C1329 0.930 . S
H1388 C1331 0.930 . S
H1389 C1333 0.929 . S
H1390 C1334 0.930 . S
H1391 C1335 0.930 . S
H1392 C1338 0.930 . S
H1393 C1341 0.929 . S
H1394 C1346 0.929 . S
H1395 C1347 0.930 . S
H1396 C1354 0.929 . S
H1397 C1355 0.930 . S
H1398 C1356 0.930 . S
H1399 C1357 0.930 . S
H1400 C1359 0.929 . S
H1401 C1360 0.930 . S
H1402 C1361 0.930 . S
H1403 C1362 0.930 . S
H1404 C1366 0.929 . S
H1405 C1368 0.930 . S
H1406 C1374 0.929 . S
H1407 C1375 0.930 . S
Li1408 N1425 1.990 . S
Li1408 O1468 1.956 1_545 S
Li1408 O1469 1.970 . S
Li1408 O1470 1.961 . S
Li1409 N1433 1.990 . S
Li1409 O1468 1.970 . S
Li1409 O1469 1.956 1_565 S
Li1409 O1471 1.961 1_565 S
Li1410 N1455 1.990 . S
Li1410 O1468 1.961 1_545 S
Li1410 O1470 1.956 . S
Li1410 O1471 1.970 . S
Li1411 N1461 1.990 . S
Li1411 O1469 1.961 . S
Li1411 O1470 1.970 . S
Li1411 O1471 1.956 . S
C1412 C1414 1.348 . S
C1412 C1415 1.356 . S
C1412 O1468 1.325 . S
N1413 C1416 1.314 . S
N1413 C1417 1.279 . S
C1414 C1412 1.348 . S
C1414 C1416 1.353 . S
C1414 H1472 0.929 . S
C1415 C1412 1.356 . S
C1415 C1417 1.358 . S
C1415 H1473 0.930 . S
C1416 N1413 1.314 . S
C1416 C1414 1.353 . S
C1416 H1474 0.930 . S
C1417 N1413 1.279 . S
C1417 C1415 1.358 . S
C1417 H1475 0.930 . S
C1418 C1421 1.348 . S
C1418 C1422 1.356 . S
C1418 O1469 1.325 . S
C1419 N1420 1.279 . S
C1419 C1422 1.358 . S
C1419 H1476 0.930 . S
N1420 C1419 1.279 . S
N1420 C1423 1.314 . S
C1421 C1418 1.348 . S
C1421 C1423 1.353 . S
C1421 H1477 0.929 . S
C1422 C1418 1.356 . S
C1422 C1419 1.358 . S
C1422 H1478 0.930 . S
C1423 N1420 1.314 . S
C1423 C1421 1.353 . S
C1423 H1479 0.930 . S
C1424 N1425 1.314 . S
C1424 C1429 1.353 . S
C1424 H1430 0.930 . S
N1425 Li1408 1.990 . S
N1425 C1424 1.314 . S
N1425 C1427 1.279 . S
C1426 C1427 1.358 . S
C1426 C1428 1.356 . S
C1426 H1480 0.930 1_545 S
C1427 N1425 1.279 . S
C1427 C1426 1.358 . S
C1427 H1431 0.930 1_545 S
C1428 C1426 1.356 . S
C1428 C1429 1.348 . S
C1429 C1424 1.353 . S
C1429 C1428 1.348 . S
C1429 H1481 0.929 . S
H1430 C1424 0.930 . S
H1431 C1427 0.930 1_565 S
C1432 N1433 1.314 . S
C1432 C1434 1.353 . S
C1432 H1438 0.930 . S
N1433 Li1409 1.990 . S
N1433 C1432 1.314 . S
N1433 C1436 1.279 . S
C1434 C1432 1.353 . S
C1434 C1437 1.348 . S
C1434 H1482 0.929 . S
C1435 C1436 1.358 . S
C1435 C1437 1.356 . S
C1435 H1483 0.930 . S
C1436 N1433 1.279 . S
C1436 C1435 1.358 . S
C1436 H1439 0.930 . S
C1437 C1434 1.348 . S
C1437 C1435 1.356 . S
H1438 C1432 0.930 . S
H1439 C1436 0.930 . S
C1440 C1442 1.348 . S
C1440 C1443 1.356 . S
C1440 O1470 1.325 . S
N1441 C1444 1.314 . S
N1441 C1445 1.279 . S
C1442 C1440 1.348 . S
C1442 C1444 1.353 . S
C1442 H1484 0.929 . S
C1443 C1440 1.356 . S
C1443 C1445 1.358 . S
C1443 H1485 0.930 . S
C1444 N1441 1.314 . S
C1444 C1442 1.353 . S
C1444 H1486 0.930 . S
C1445 N1441 1.279 . S
C1445 C1443 1.358 . S
C1445 H1487 0.930 . S
C1446 C1447 1.348 . S
C1446 C1448 1.356 . S
C1446 O1471 1.325 . S
C1447 C1446 1.348 . S
C1447 C1449 1.353 . S
C1447 H1488 0.929 . S
C1448 C1446 1.356 . S
C1448 C1450 1.354 . S
C1448 H1489 0.929 1_545 S
C1449 C1447 1.353 . S
C1449 N1451 1.314 . S
C1449 H1490 0.930 . S
C1450 C1448 1.354 . S
C1450 N1451 1.293 . S
C1450 H1491 0.923 1_545 S
N1451 C1449 1.314 . S
N1451 C1450 1.293 . S
C1452 C1454 1.350 1_545 S
C1452 N1455 1.353 . S
C1452 H1458 0.890 1_545 S
C1453 N1455 1.279 . S
C1453 C1456 1.358 . S
C1453 H1459 0.930 . S
C1454 C1452 1.350 1_565 S
C1454 C1457 1.342 1_565 S
C1454 H1492 0.936 . S
N1455 Li1410 1.990 . S
N1455 C1452 1.353 . S
N1455 C1453 1.279 . S
C1456 C1453 1.358 . S
C1456 C1457 1.356 . S
C1456 H1493 0.930 . S
C1457 C1454 1.342 1_545 S
C1457 C1456 1.356 . S
H1458 C1452 0.890 1_565 S
H1459 C1453 0.930 . S
C1460 N1461 1.314 . S
C1460 C1462 1.353 . S
C1460 H1466 0.930 . S
N1461 Li1411 1.990 . S
N1461 C1460 1.314 . S
N1461 C1464 1.279 . S
C1462 C1460 1.353 . S
C1462 C1465 1.348 . S
C1462 H1494 0.929 . S
C1463 C1464 1.358 . S
C1463 C1465 1.356 . S
C1463 H1495 0.930 . S
C1464 N1461 1.279 . S
C1464 C1463 1.358 . S
C1464 H1467 0.930 . S
C1465 C1462 1.348 . S
C1465 C1463 1.356 . S
H1466 C1460 0.930 . S
H1467 C1464 0.930 . S
O1468 Li1408 1.956 1_565 S
O1468 Li1409 1.970 . S
O1468 Li1410 1.961 1_565 S
O1468 C1412 1.325 . S
O1469 Li1408 1.970 . S
O1469 Li1409 1.956 1_545 S
O1469 Li1411 1.961 . S
O1469 C1418 1.325 . S
O1470 Li1408 1.961 . S
O1470 Li1410 1.956 . S
O1470 Li1411 1.970 . S
O1470 C1440 1.325 . S
O1471 Li1409 1.961 1_545 S
O1471 Li1410 1.970 . S
O1471 Li1411 1.956 . S
O1471 C1446 1.325 . S
H1472 C1414 0.929 . S
H1473 C1415 0.930 . S
H1474 C1416 0.930 . S
H1475 C1417 0.930 . S
H1476 C1419 0.930 . S
H1477 C1421 0.929 . S
H1478 C1422 0.930 . S
H1479 C1423 0.930 . S
H1480 C1426 0.930 1_565 S
H1481 C1429 0.929 . S
H1482 C1434 0.929 . S
H1483 C1435 0.930 . S
H1484 C1442 0.929 . S
H1485 C1443 0.930 . S
H1486 C1444 0.930 . S
H1487 C1445 0.930 . S
H1488 C1447 0.929 . S
H1489 C1448 0.929 1_565 S
H1490 C1449 0.930 . S
H1491 C1450 0.923 1_565 S
H1492 C1454 0.936 . S
H1493 C1456 0.930 . S
H1494 C1462 0.929 . S
H1495 C1463 0.930 . S
Li1496 N1513 1.990 . S
Li1496 O1556 1.956 . S
Li1496 O1557 1.970 . S
Li1496 O1558 1.961 . S
Li1497 N1521 1.990 . S
Li1497 O1556 1.970 . S
Li1497 O1557 1.956 . S
Li1497 O1559 1.961 . S
Li1498 N1543 1.990 . S
Li1498 O1556 1.961 . S
Li1498 O1558 1.956 . S
Li1498 O1559 1.970 . S
Li1499 N1549 1.990 . S
Li1499 O1557 1.961 . S
Li1499 O1558 1.970 . S
Li1499 O1559 1.956 . S
C1500 C1502 1.348 . S
C1500 C1503 1.356 . S
C1500 O1556 1.325 . S
N1501 C1504 1.314 . S
N1501 C1505 1.279 . S
C1502 C1500 1.348 . S
C1502 C1504 1.353 . S
C1502 H1560 0.929 . S
C1503 C1500 1.356 . S
C1503 C1505 1.358 . S
C1503 H1561 0.930 . S
C1504 N1501 1.314 . S
C1504 C1502 1.353 . S
C1504 H1562 0.930 . S
C1505 N1501 1.279 . S
C1505 C1503 1.358 . S
C1505 H1563 0.930 . S
C1506 C1509 1.348 . S
C1506 C1510 1.356 . S
C1506 O1557 1.325 . S
C1507 N1508 1.279 . S
C1507 C1510 1.358 . S
C1507 H1564 0.930 . S
N1508 C1507 1.279 . S
N1508 C1511 1.314 . S
C1509 C1506 1.348 . S
C1509 C1511 1.353 . S
C1509 H1565 0.929 . S
C1510 C1506 1.356 . S
C1510 C1507 1.358 . S
C1510 H1566 0.930 . S
C1511 N1508 1.314 . S
C1511 C1509 1.353 . S
C1511 H1567 0.930 . S
C1512 N1513 1.314 . S
C1512 C1517 1.353 . S
C1512 H1518 0.930 . S
N1513 Li1496 1.990 . S
N1513 C1512 1.314 . S
N1513 C1515 1.279 . S
C1514 C1515 1.358 . S
C1514 C1516 1.356 . S
C1514 H1568 0.930 . S
C1515 N1513 1.279 . S
C1515 C1514 1.358 . S
C1515 H1519 0.930 . S
C1516 C1514 1.356 . S
C1516 C1517 1.348 . S
C1517 C1512 1.353 . S
C1517 C1516 1.348 . S
C1517 H1569 0.929 . S
H1518 C1512 0.930 . S
H1519 C1515 0.930 . S
C1520 N1521 1.314 . S
C1520 C1522 1.353 . S
C1520 H1526 0.930 . S
N1521 Li1497 1.990 . S
N1521 C1520 1.314 . S
N1521 C1524 1.279 . S
C1522 C1520 1.353 . S
C1522 C1525 1.348 . S
C1522 H1570 0.929 . S
C1523 C1524 1.358 . S
C1523 C1525 1.356 . S
C1523 H1571 0.930 . S
C1524 N1521 1.279 . S
C1524 C1523 1.358 . S
C1524 H1527 0.930 . S
C1525 C1522 1.348 . S
C1525 C1523 1.356 . S
H1526 C1520 0.930 . S
H1527 C1524 0.930 . S
C1528 C1530 1.348 . S
C1528 C1531 1.356 . S
C1528 O1558 1.325 . S
N1529 C1532 1.314 . S
N1529 C1533 1.279 . S
C1530 C1528 1.348 . S
C1530 C1532 1.353 . S
C1530 H1572 0.929 . S
C1531 C1528 1.356 . S
C1531 C1533 1.358 . S
C1531 H1573 0.930 . S
C1532 N1529 1.314 . S
C1532 C1530 1.353 . S
C1532 H1574 0.930 . S
C1533 N1529 1.279 . S
C1533 C1531 1.358 . S
C1533 H1575 0.930 . S
C1534 C1535 1.348 . S
C1534 C1536 1.356 . S
C1534 O1559 1.325 . S
C1535 C1534 1.348 . S
C1535 C1537 1.353 . S
C1535 H1576 0.929 . S
C1536 C1534 1.356 . S
C1536 C1538 1.358 . S
C1536 H1577 0.930 . S
C1537 C1535 1.353 . S
C1537 N1539 1.314 . S
C1537 H1578 0.930 . S
C1538 C1536 1.358 . S
C1538 N1539 1.279 . S
C1538 H1579 0.930 . S
N1539 C1537 1.314 . S
N1539 C1538 1.279 . S
C1540 C1542 1.353 . S
C1540 N1543 1.314 . S
C1540 H1546 0.930 . S
C1541 N1543 1.279 . S
C1541 C1544 1.358 . S
C1541 H1547 0.930 . S
C1542 C1540 1.353 . S
C1542 C1545 1.348 . S
C1542 H1580 0.929 . S
N1543 Li1498 1.990 . S
N1543 C1540 1.314 . S
N1543 C1541 1.279 . S
C1544 C1541 1.358 . S
C1544 C1545 1.356 . S
C1544 H1581 0.930 . S
C1545 C1542 1.348 . S
C1545 C1544 1.356 . S
H1546 C1540 0.930 . S
H1547 C1541 0.930 . S
C1548 N1549 1.314 . S
C1548 C1550 1.353 . S
C1548 H1554 0.930 . S
N1549 Li1499 1.990 . S
N1549 C1548 1.314 . S
N1549 C1552 1.279 . S
C1550 C1548 1.353 . S
C1550 C1553 1.348 . S
C1550 H1582 0.929 . S
C1551 C1552 1.358 . S
C1551 C1553 1.356 . S
C1551 H1583 0.930 . S
C1552 N1549 1.279 . S
C1552 C1551 1.358 . S
C1552 H1555 0.930 . S
C1553 C1550 1.348 . S
C1553 C1551 1.356 . S
H1554 C1548 0.930 . S
H1555 C1552 0.930 . S
O1556 Li1496 1.956 . S
O1556 Li1497 1.970 . S
O1556 Li1498 1.961 . S
O1556 C1500 1.325 . S
O1557 Li1496 1.970 . S
O1557 Li1497 1.956 . S
O1557 Li1499 1.961 . S
O1557 C1506 1.325 . S
O1558 Li1496 1.961 . S
O1558 Li1498 1.956 . S
O1558 Li1499 1.970 . S
O1558 C1528 1.325 . S
O1559 Li1497 1.961 . S
O1559 Li1498 1.970 . S
O1559 Li1499 1.956 . S
O1559 C1534 1.325 . S
H1560 C1502 0.929 . S
H1561 C1503 0.930 . S
H1562 C1504 0.930 . S
H1563 C1505 0.930 . S
H1564 C1507 0.930 . S
H1565 C1509 0.929 . S
H1566 C1510 0.930 . S
H1567 C1511 0.930 . S
H1568 C1514 0.930 . S
H1569 C1517 0.929 . S
H1570 C1522 0.929 . S
H1571 C1523 0.930 . S
H1572 C1530 0.929 . S
H1573 C1531 0.930 . S
H1574 C1532 0.930 . S
H1575 C1533 0.930 . S
H1576 C1535 0.929 . S
H1577 C1536 0.930 . S
H1578 C1537 0.930 . S
H1579 C1538 0.930 . S
H1580 C1542 0.929 . S
H1581 C1544 0.930 . S
H1582 C1550 0.929 . S
H1583 C1551 0.930 . S
Li1584 N1601 1.990 . S
Li1584 O1644 1.956 . S
Li1584 O1645 1.970 . S
Li1584 O1646 1.961 . S
Li1585 N1609 1.990 . S
Li1585 O1644 1.970 . S
Li1585 O1645 1.956 . S
Li1585 O1647 1.961 . S
Li1586 N1631 1.990 . S
Li1586 O1644 1.961 . S
Li1586 O1646 1.956 . S
Li1586 O1647 1.970 . S
Li1587 N1637 1.990 . S
Li1587 O1645 1.961 . S
Li1587 O1646 1.970 . S
Li1587 O1647 1.956 . S
C1588 C1590 1.348 . S
C1588 C1591 1.356 . S
C1588 O1644 1.325 . S
N1589 C1592 1.314 . S
N1589 C1593 1.279 . S
C1590 C1588 1.348 . S
C1590 C1592 1.353 . S
C1590 H1648 0.929 . S
C1591 C1588 1.356 . S
C1591 C1593 1.358 . S
C1591 H1649 0.930 . S
C1592 N1589 1.314 . S
C1592 C1590 1.353 . S
C1592 H1650 0.930 . S
C1593 N1589 1.279 . S
C1593 C1591 1.358 . S
C1593 H1651 0.930 . S
C1594 C1597 1.348 . S
C1594 C1598 1.356 . S
C1594 O1645 1.325 . S
C1595 N1596 1.279 . S
C1595 C1598 1.358 . S
C1595 H1652 0.930 . S
N1596 C1595 1.279 . S
N1596 C1599 1.314 . S
C1597 C1594 1.348 . S
C1597 C1599 1.353 . S
C1597 H1653 0.929 . S
C1598 C1594 1.356 . S
C1598 C1595 1.358 . S
C1598 H1654 0.930 . S
C1599 N1596 1.314 . S
C1599 C1597 1.353 . S
C1599 H1655 0.930 . S
C1600 N1601 1.314 . S
C1600 C1605 1.353 . S
C1600 H1606 0.930 . S
N1601 Li1584 1.990 . S
N1601 C1600 1.314 . S
N1601 C1603 1.279 . S
C1602 C1603 1.358 . S
C1602 C1604 1.356 . S
C1602 H1656 0.930 . S
C1603 N1601 1.279 . S
C1603 C1602 1.358 . S
C1603 H1607 0.930 . S
C1604 C1602 1.356 . S
C1604 C1605 1.348 . S
C1605 C1600 1.353 . S
C1605 C1604 1.348 . S
C1605 H1657 0.929 . S
H1606 C1600 0.930 . S
H1607 C1603 0.930 . S
C1608 N1609 1.314 . S
C1608 C1610 1.353 . S
C1608 H1614 0.930 . S
N1609 Li1585 1.990 . S
N1609 C1608 1.314 . S
N1609 C1612 1.279 . S
C1610 C1608 1.353 . S
C1610 C1613 1.348 . S
C1610 H1658 0.929 . S
C1611 C1612 1.358 . S
C1611 C1613 1.356 . S
C1611 H1659 0.930 . S
C1612 N1609 1.279 . S
C1612 C1611 1.358 . S
C1612 H1615 0.930 . S
C1613 C1610 1.348 . S
C1613 C1611 1.356 . S
H1614 C1608 0.930 . S
H1615 C1612 0.930 . S
C1616 C1618 1.348 . S
C1616 C1619 1.356 . S
C1616 O1646 1.325 . S
N1617 C1620 1.314 . S
N1617 C1621 1.279 . S
C1618 C1616 1.348 . S
C1618 C1620 1.353 . S
C1618 H1660 0.929 . S
C1619 C1616 1.356 . S
C1619 C1621 1.358 . S
C1619 H1661 0.930 . S
C1620 N1617 1.314 . S
C1620 C1618 1.353 . S
C1620 H1662 0.930 . S
C1621 N1617 1.279 . S
C1621 C1619 1.358 . S
C1621 H1663 0.930 . S
C1622 C1623 1.348 . S
C1622 C1624 1.356 . S
C1622 O1647 1.325 . S
C1623 C1622 1.348 . S
C1623 C1625 1.353 . S
C1623 H1664 0.929 . S
C1624 C1622 1.356 . S
C1624 C1626 1.358 . S
C1624 H1665 0.930 . S
C1625 C1623 1.353 . S
C1625 N1627 1.314 . S
C1625 H1666 0.930 . S
C1626 C1624 1.358 . S
C1626 N1627 1.279 . S
C1626 H1667 0.930 . S
N1627 C1625 1.314 . S
N1627 C1626 1.279 . S
C1628 C1630 1.353 . S
C1628 N1631 1.314 . S
C1628 H1634 0.930 . S
C1629 N1631 1.279 . S
C1629 C1632 1.358 . S
C1629 H1635 0.930 . S
C1630 C1628 1.353 . S
C1630 C1633 1.348 . S
C1630 H1668 0.929 . S
N1631 Li1586 1.990 . S
N1631 C1628 1.314 . S
N1631 C1629 1.279 . S
C1632 C1629 1.358 . S
C1632 C1633 1.356 . S
C1632 H1669 0.930 . S
C1633 C1630 1.348 . S
C1633 C1632 1.356 . S
H1634 C1628 0.930 . S
H1635 C1629 0.930 . S
C1636 N1637 1.314 . S
C1636 C1638 1.353 . S
C1636 H1642 0.930 . S
N1637 Li1587 1.990 . S
N1637 C1636 1.314 . S
N1637 C1640 1.279 . S
C1638 C1636 1.353 . S
C1638 C1641 1.348 . S
C1638 H1670 0.929 . S
C1639 C1640 1.358 . S
C1639 C1641 1.356 . S
C1639 H1671 0.930 . S
C1640 N1637 1.279 . S
C1640 C1639 1.358 . S
C1640 H1643 0.930 . S
C1641 C1638 1.348 . S
C1641 C1639 1.356 . S
H1642 C1636 0.930 . S
H1643 C1640 0.930 . S
O1644 Li1584 1.956 . S
O1644 Li1585 1.970 . S
O1644 Li1586 1.961 . S
O1644 C1588 1.325 . S
O1645 Li1584 1.970 . S
O1645 Li1585 1.956 . S
O1645 Li1587 1.961 . S
O1645 C1594 1.325 . S
O1646 Li1584 1.961 . S
O1646 Li1586 1.956 . S
O1646 Li1587 1.970 . S
O1646 C1616 1.325 . S
O1647 Li1585 1.961 . S
O1647 Li1586 1.970 . S
O1647 Li1587 1.956 . S
O1647 C1622 1.325 . S
H1648 C1590 0.929 . S
H1649 C1591 0.930 . S
H1650 C1592 0.930 . S
H1651 C1593 0.930 . S
H1652 C1595 0.930 . S
H1653 C1597 0.929 . S
H1654 C1598 0.930 . S
H1655 C1599 0.930 . S
H1656 C1602 0.930 . S
H1657 C1605 0.929 . S
H1658 C1610 0.929 . S
H1659 C1611 0.930 . S
H1660 C1618 0.929 . S
H1661 C1619 0.930 . S
H1662 C1620 0.930 . S
H1663 C1621 0.930 . S
H1664 C1623 0.929 . S
H1665 C1624 0.930 . S
H1666 C1625 0.930 . S
H1667 C1626 0.930 . S
H1668 C1630 0.929 . S
H1669 C1632 0.930 . S
H1670 C1638 0.929 . S
H1671 C1639 0.930 . S
Li1672 N1689 1.990 . S
Li1672 O1732 1.956 . S
Li1672 O1733 1.970 . S
Li1672 O1734 1.961 . S
Li1673 N1697 1.990 . S
Li1673 O1732 1.970 . S
Li1673 O1733 1.956 . S
Li1673 O1735 1.961 . S
Li1674 N1719 1.990 . S
Li1674 O1732 1.961 . S
Li1674 O1734 1.956 . S
Li1674 O1735 1.970 . S
Li1675 N1725 1.990 . S
Li1675 O1733 1.961 . S
Li1675 O1734 1.970 . S
Li1675 O1735 1.956 . S
C1676 C1678 1.348 . S
C1676 C1679 1.356 . S
C1676 O1732 1.325 . S
N1677 C1680 1.314 . S
N1677 C1681 1.279 . S
C1678 C1676 1.348 . S
C1678 C1680 1.353 . S
C1678 H1736 0.929 . S
C1679 C1676 1.356 . S
C1679 C1681 1.358 . S
C1679 H1737 0.930 . S
C1680 N1677 1.314 . S
C1680 C1678 1.353 . S
C1680 H1738 0.930 . S
C1681 N1677 1.279 . S
C1681 C1679 1.358 . S
C1681 H1739 0.930 . S
C1682 C1685 1.348 . S
C1682 C1686 1.356 . S
C1682 O1733 1.325 . S
C1683 N1684 1.279 . S
C1683 C1686 1.358 . S
C1683 H1740 0.930 . S
N1684 C1683 1.279 . S
N1684 C1687 1.314 . S
C1685 C1682 1.348 . S
C1685 C1687 1.353 . S
C1685 H1741 0.929 . S
C1686 C1682 1.356 . S
C1686 C1683 1.358 . S
C1686 H1742 0.930 . S
C1687 N1684 1.314 . S
C1687 C1685 1.353 . S
C1687 H1743 0.930 . S
C1688 N1689 1.314 . S
C1688 C1693 1.353 . S
C1688 H1694 0.930 . S
N1689 Li1672 1.990 . S
N1689 C1688 1.314 . S
N1689 C1691 1.279 . S
C1690 C1691 1.358 . S
C1690 C1692 1.356 . S
C1690 H1744 0.930 . S
C1691 N1689 1.279 . S
C1691 C1690 1.358 . S
C1691 H1695 0.930 . S
C1692 C1690 1.356 . S
C1692 C1693 1.348 . S
C1693 C1688 1.353 . S
C1693 C1692 1.348 . S
C1693 H1745 0.929 . S
H1694 C1688 0.930 . S
H1695 C1691 0.930 . S
C1696 N1697 1.314 . S
C1696 C1698 1.353 . S
C1696 H1702 0.930 . S
N1697 Li1673 1.990 . S
N1697 C1696 1.314 . S
N1697 C1700 1.279 . S
C1698 C1696 1.353 . S
C1698 C1701 1.348 . S
C1698 H1746 0.929 . S
C1699 C1700 1.358 . S
C1699 C1701 1.356 . S
C1699 H1747 0.930 . S
C1700 N1697 1.279 . S
C1700 C1699 1.358 . S
C1700 H1703 0.930 . S
C1701 C1698 1.348 . S
C1701 C1699 1.356 . S
H1702 C1696 0.930 . S
H1703 C1700 0.930 . S
C1704 C1706 1.348 1_545 S
C1704 C1707 1.351 . S
C1704 O1734 1.325 . S
N1705 C1708 1.314 . S
N1705 C1709 1.279 . S
C1706 C1704 1.348 1_565 S
C1706 C1708 1.353 . S
C1706 H1748 0.929 . S
C1707 C1704 1.351 . S
C1707 C1709 1.318 1_545 S
C1707 H1749 0.977 . S
C1708 N1705 1.314 . S
C1708 C1706 1.353 . S
C1708 H1750 0.930 . S
C1709 N1705 1.279 . S
C1709 C1707 1.318 1_565 S
C1709 H1751 0.930 . S
C1710 C1711 1.348 . S
C1710 C1712 1.356 . S
C1710 O1735 1.325 . S
C1711 C1710 1.348 . S
C1711 C1713 1.353 . S
C1711 H1752 0.929 . S
C1712 C1710 1.356 . S
C1712 C1714 1.358 . S
C1712 H1753 0.930 . S
C1713 C1711 1.353 . S
C1713 N1715 1.314 . S
C1713 H1754 0.930 . S
C1714 C1712 1.358 . S
C1714 N1715 1.279 . S
C1714 H1755 0.930 . S
N1715 C1713 1.314 . S
N1715 C1714 1.279 . S
C1716 C1718 1.353 . S
C1716 N1719 1.314 . S
C1716 H1722 0.930 . S
C1717 N1719 1.279 . S
C1717 C1720 1.358 . S
C1717 H1723 0.930 . S
C1718 C1716 1.353 . S
C1718 C1721 1.348 . S
C1718 H1756 0.929 . S
N1719 Li1674 1.990 . S
N1719 C1716 1.314 . S
N1719 C1717 1.279 . S
C1720 C1717 1.358 . S
C1720 C1721 1.356 . S
C1720 H1757 0.930 . S
C1721 C1718 1.348 . S
C1721 C1720 1.356 . S
H1722 C1716 0.930 . S
H1723 C1717 0.930 . S
C1724 N1725 1.314 1_565 S
C1724 C1726 1.353 . S
C1724 H1730 0.930 . S
N1725 Li1675 1.990 . S
N1725 C1724 1.314 1_545 S
N1725 C1728 1.279 1_545 S
C1726 C1724 1.353 . S
C1726 C1729 1.348 . S
C1726 H1758 0.929 . S
C1727 C1728 1.358 . S
C1727 C1729 1.356 . S
C1727 H1759 0.930 . S
C1728 N1725 1.279 1_565 S
C1728 C1727 1.358 . S
C1728 H1731 0.930 1_565 S
C1729 C1726 1.348 . S
C1729 C1727 1.356 . S
H1730 C1724 0.930 . S
H1731 C1728 0.930 1_545 S
O1732 Li1672 1.956 . S
O1732 Li1673 1.970 . S
O1732 Li1674 1.961 . S
O1732 C1676 1.325 . S
O1733 Li1672 1.970 . S
O1733 Li1673 1.956 . S
O1733 Li1675 1.961 . S
O1733 C1682 1.325 . S
O1734 Li1672 1.961 . S
O1734 Li1674 1.956 . S
O1734 Li1675 1.970 . S
O1734 C1704 1.325 . S
O1735 Li1673 1.961 . S
O1735 Li1674 1.970 . S
O1735 Li1675 1.956 . S
O1735 C1710 1.325 . S
H1736 C1678 0.929 . S
H1737 C1679 0.930 . S
H1738 C1680 0.930 . S
H1739 C1681 0.930 . S
H1740 C1683 0.930 . S
H1741 C1685 0.929 . S
H1742 C1686 0.930 . S
H1743 C1687 0.930 . S
H1744 C1690 0.930 . S
H1745 C1693 0.929 . S
H1746 C1698 0.929 . S
H1747 C1699 0.930 . S
H1748 C1706 0.929 . S
H1749 C1707 0.977 . S
H1750 C1708 0.930 . S
H1751 C1709 0.930 . S
H1752 C1711 0.929 . S
H1753 C1712 0.930 . S
H1754 C1713 0.930 . S
H1755 C1714 0.930 . S
H1756 C1718 0.929 . S
H1757 C1720 0.930 . S
H1758 C1726 0.929 . S
H1759 C1727 0.930 . S
Li1760 N1777 1.990 . S
Li1760 O1820 1.956 . S
Li1760 O1821 1.970 . S
Li1760 O1822 1.961 . S
Li1761 N1785 1.990 . S
Li1761 O1820 1.970 . S
Li1761 O1821 1.956 . S
Li1761 O1823 1.961 1_554 S
Li1762 N1807 1.990 . S
Li1762 O1820 1.961 1_556 S
Li1762 O1822 1.956 1_556 S
Li1762 O1823 1.970 . S
Li1763 N1813 1.990 . S
Li1763 O1821 1.961 . S
Li1763 O1822 1.970 . S
Li1763 O1823 1.956 1_554 S
C1764 C1766 1.348 . S
C1764 C1767 1.356 . S
C1764 O1820 1.325 . S
N1765 C1768 1.314 . S
N1765 C1769 1.279 . S
C1766 C1764 1.348 . S
C1766 C1768 1.353 . S
C1766 H1824 0.929 . S
C1767 C1764 1.356 . S
C1767 C1769 1.358 . S
C1767 H1825 0.930 . S
C1768 N1765 1.314 . S
C1768 C1766 1.353 . S
C1768 H1826 0.930 . S
C1769 N1765 1.279 . S
C1769 C1767 1.358 . S
C1769 H1827 0.930 . S
C1770 C1773 1.348 . S
C1770 C1774 1.356 . S
C1770 O1821 1.325 . S
C1771 N1772 1.279 . S
C1771 C1774 1.358 . S
C1771 H1828 0.930 . S
N1772 C1771 1.279 . S
N1772 C1775 1.314 . S
C1773 C1770 1.348 . S
C1773 C1775 1.353 . S
C1773 H1829 0.929 . S
C1774 C1770 1.356 . S
C1774 C1771 1.358 . S
C1774 H1830 0.930 . S
C1775 N1772 1.314 . S
C1775 C1773 1.353 . S
C1775 H1831 0.930 . S
C1776 N1777 1.314 . S
C1776 C1781 1.353 . S
C1776 H1782 0.930 . S
N1777 Li1760 1.990 . S
N1777 C1776 1.314 . S
N1777 C1779 1.279 . S
C1778 C1779 1.358 . S
C1778 C1780 1.356 . S
C1778 H1832 0.930 . S
C1779 N1777 1.279 . S
C1779 C1778 1.358 . S
C1779 H1783 0.930 . S
C1780 C1778 1.356 . S
C1780 C1781 1.348 . S
C1781 C1776 1.353 . S
C1781 C1780 1.348 . S
C1781 H1833 0.929 . S
H1782 C1776 0.930 . S
H1783 C1779 0.930 . S
C1784 N1785 1.314 1_556 S
C1784 C1786 1.353 . S
C1784 H1790 0.930 . S
N1785 Li1761 1.990 . S
N1785 C1784 1.314 1_554 S
N1785 C1788 1.279 . S
C1786 C1784 1.353 . S
C1786 C1789 1.348 1_556 S
C1786 H1834 0.929 . S
C1787 C1788 1.358 . S
C1787 C1789 1.356 . S
C1787 H1835 0.930 . S
C1788 N1785 1.279 . S
C1788 C1787 1.358 . S
C1788 H1791 0.930 . S
C1789 C1786 1.348 1_554 S
C1789 C1787 1.356 . S
H1790 C1784 0.930 . S
H1791 C1788 0.930 . S
C1792 C1794 1.348 . S
C1792 C1795 1.356 . S
C1792 O1822 1.325 . S
N1793 C1796 1.314 . S
N1793 C1797 1.279 . S
C1794 C1792 1.348 . S
C1794 C1796 1.353 . S
C1794 H1836 0.929 1_554 S
C1795 C1792 1.356 . S
C1795 C1797 1.358 . S
C1795 H1837 0.930 . S
C1796 N1793 1.314 . S
C1796 C1794 1.353 . S
C1796 H1838 0.930 1_554 S
C1797 N1793 1.279 . S
C1797 C1795 1.358 . S
C1797 H1839 0.930 . S
C1798 C1799 1.348 . S
C1798 C1800 1.356 . S
C1798 O1823 1.325 . S
C1799 C1798 1.348 . S
C1799 C1801 1.353 . S
C1799 H1840 0.929 . S
C1800 C1798 1.356 . S
C1800 C1802 1.358 . S
C1800 H1841 0.930 . S
C1801 C1799 1.353 . S
C1801 N1803 1.314 . S
C1801 H1842 0.930 . S
C1802 C1800 1.358 . S
C1802 N1803 1.279 . S
C1802 H1843 0.930 . S
N1803 C1801 1.314 . S
N1803 C1802 1.279 . S
C1804 C1806 1.353 . S
C1804 N1807 1.314 . S
C1804 H1810 0.930 . S
C1805 N1807 1.279 . S
C1805 C1808 1.358 . S
C1805 H1811 0.930 . S
C1806 C1804 1.353 . S
C1806 C1809 1.348 . S
C1806 H1844 0.929 . S
N1807 Li1762 1.990 . S
N1807 C1804 1.314 . S
N1807 C1805 1.279 . S
C1808 C1805 1.358 . S
C1808 C1809 1.356 . S
C1808 H1845 0.930 . S
C1809 C1806 1.348 . S
C1809 C1808 1.356 . S
H1810 C1804 0.930 . S
H1811 C1805 0.930 . S
C1812 N1813 1.314 . S
C1812 C1814 1.353 . S
C1812 H1818 0.930 . S
N1813 Li1763 1.990 . S
N1813 C1812 1.314 . S
N1813 C1816 1.279 1_554 S
C1814 C1812 1.353 . S
C1814 C1817 1.357 . S
C1814 H1846 0.929 . S
C1815 C1816 1.358 . S
C1815 C1817 1.346 1_556 S
C1815 H1847 0.930 . S
C1816 N1813 1.279 1_556 S
C1816 C1815 1.358 . S
C1816 H1819 0.930 . S
C1817 C1814 1.357 . S
C1817 C1815 1.346 1_554 S
H1818 C1812 0.930 . S
H1819 C1816 0.930 . S
O1820 Li1760 1.956 . S
O1820 Li1761 1.970 . S
O1820 Li1762 1.961 1_554 S
O1820 C1764 1.325 . S
O1821 Li1760 1.970 . S
O1821 Li1761 1.956 . S
O1821 Li1763 1.961 . S
O1821 C1770 1.325 . S
O1822 Li1760 1.961 . S
O1822 Li1762 1.956 1_554 S
O1822 Li1763 1.970 . S
O1822 C1792 1.325 . S
O1823 Li1761 1.961 1_556 S
O1823 Li1762 1.970 . S
O1823 Li1763 1.956 1_556 S
O1823 C1798 1.325 . S
H1824 C1766 0.929 . S
H1825 C1767 0.930 . S
H1826 C1768 0.930 . S
H1827 C1769 0.930 . S
H1828 C1771 0.930 . S
H1829 C1773 0.929 . S
H1830 C1774 0.930 . S
H1831 C1775 0.930 . S
H1832 C1778 0.930 . S
H1833 C1781 0.929 . S
H1834 C1786 0.929 . S
H1835 C1787 0.930 . S
H1836 C1794 0.929 1_556 S
H1837 C1795 0.930 . S
H1838 C1796 0.930 1_556 S
H1839 C1797 0.930 . S
H1840 C1799 0.929 . S
H1841 C1800 0.930 . S
H1842 C1801 0.930 . S
H1843 C1802 0.930 . S
H1844 C1806 0.929 . S
H1845 C1808 0.930 . S
H1846 C1814 0.929 . S
H1847 C1815 0.930 . S
Li1848 N1865 1.990 . S
Li1848 O1908 1.956 . S
Li1848 O1909 1.970 . S
Li1848 O1910 1.961 . S
Li1849 N1873 1.990 . S
Li1849 O1908 1.970 . S
Li1849 O1909 1.956 . S
Li1849 O1911 1.961 . S
Li1850 N1895 1.990 . S
Li1850 O1908 1.961 . S
Li1850 O1910 1.956 . S
Li1850 O1911 1.970 . S
Li1851 N1901 1.990 . S
Li1851 O1909 1.961 . S
Li1851 O1910 1.970 . S
Li1851 O1911 1.956 . S
C1852 C1854 1.348 . S
C1852 C1855 1.356 . S
C1852 O1908 1.325 . S
N1853 C1856 1.314 . S
N1853 C1857 1.279 . S
C1854 C1852 1.348 . S
C1854 C1856 1.353 . S
C1854 H1912 0.929 . S
C1855 C1852 1.356 . S
C1855 C1857 1.358 . S
C1855 H1913 0.930 . S
C1856 N1853 1.314 . S
C1856 C1854 1.353 . S
C1856 H1914 0.930 . S
C1857 N1853 1.279 . S
C1857 C1855 1.358 . S
C1857 H1915 0.930 . S
C1858 C1861 1.348 . S
C1858 C1862 1.356 . S
C1858 O1909 1.325 . S
C1859 N1860 1.279 . S
C1859 C1862 1.358 . S
C1859 H1916 0.930 . S
N1860 C1859 1.279 . S
N1860 C1863 1.314 . S
C1861 C1858 1.348 . S
C1861 C1863 1.353 . S
C1861 H1917 0.929 . S
C1862 C1858 1.356 . S
C1862 C1859 1.358 . S
C1862 H1918 0.930 . S
C1863 N1860 1.314 . S
C1863 C1861 1.353 . S
C1863 H1919 0.930 . S
C1864 N1865 1.314 . S
C1864 C1869 1.353 . S
C1864 H1870 0.930 . S
N1865 Li1848 1.990 . S
N1865 C1864 1.314 . S
N1865 C1867 1.279 . S
C1866 C1867 1.358 . S
C1866 C1868 1.356 . S
C1866 H1920 0.930 . S
C1867 N1865 1.279 . S
C1867 C1866 1.358 . S
C1867 H1871 0.930 . S
C1868 C1866 1.356 . S
C1868 C1869 1.348 . S
C1869 C1864 1.353 . S
C1869 C1868 1.348 . S
C1869 H1921 0.929 . S
H1870 C1864 0.930 . S
H1871 C1867 0.930 . S
C1872 N1873 1.314 . S
C1872 C1874 1.353 . S
C1872 H1878 0.930 . S
N1873 Li1849 1.990 . S
N1873 C1872 1.314 . S
N1873 C1876 1.279 . S
C1874 C1872 1.353 . S
C1874 C1877 1.348 . S
C1874 H1922 0.929 . S
C1875 C1876 1.358 . S
C1875 C1877 1.356 . S
C1875 H1923 0.930 . S
C1876 N1873 1.279 . S
C1876 C1875 1.358 . S
C1876 H1879 0.930 . S
C1877 C1874 1.348 . S
C1877 C1875 1.356 . S
H1878 C1872 0.930 . S
H1879 C1876 0.930 . S
C1880 C1882 1.348 . S
C1880 C1883 1.356 . S
C1880 O1910 1.325 . S
N1881 C1884 1.314 . S
N1881 C1885 1.279 . S
C1882 C1880 1.348 . S
C1882 C1884 1.353 . S
C1882 H1924 0.929 . S
C1883 C1880 1.356 . S
C1883 C1885 1.358 . S
C1883 H1925 0.930 . S
C1884 N1881 1.314 . S
C1884 C1882 1.353 . S
C1884 H1926 0.930 . S
C1885 N1881 1.279 . S
C1885 C1883 1.358 . S
C1885 H1927 0.930 . S
C1886 C1887 1.348 . S
C1886 C1888 1.356 . S
C1886 O1911 1.325 . S
C1887 C1886 1.348 . S
C1887 C1889 1.353 . S
C1887 H1928 0.929 . S
C1888 C1886 1.356 . S
C1888 C1890 1.358 . S
C1888 H1929 0.930 . S
C1889 C1887 1.353 . S
C1889 N1891 1.314 . S
C1889 H1930 0.930 . S
C1890 C1888 1.358 . S
C1890 N1891 1.279 . S
C1890 H1931 0.930 . S
N1891 C1889 1.314 . S
N1891 C1890 1.279 . S
C1892 C1894 1.353 . S
C1892 N1895 1.314 . S
C1892 H1898 0.930 . S
C1893 N1895 1.279 . S
C1893 C1896 1.358 . S
C1893 H1899 0.930 . S
C1894 C1892 1.353 . S
C1894 C1897 1.348 . S
C1894 H1932 0.929 . S
N1895 Li1850 1.990 . S
N1895 C1892 1.314 . S
N1895 C1893 1.279 . S
C1896 C1893 1.358 . S
C1896 C1897 1.356 . S
C1896 H1933 0.930 . S
C1897 C1894 1.348 . S
C1897 C1896 1.356 . S
H1898 C1892 0.930 . S
H1899 C1893 0.930 . S
C1900 N1901 1.314 . S
C1900 C1902 1.353 . S
C1900 H1906 0.930 . S
N1901 Li1851 1.990 . S
N1901 C1900 1.314 . S
N1901 C1904 1.279 . S
C1902 C1900 1.353 . S
C1902 C1905 1.348 . S
C1902 H1934 0.929 . S
C1903 C1904 1.358 . S
C1903 C1905 1.356 . S
C1903 H1935 0.930 . S
C1904 N1901 1.279 . S
C1904 C1903 1.358 . S
C1904 H1907 0.930 . S
C1905 C1902 1.348 . S
C1905 C1903 1.356 . S
H1906 C1900 0.930 . S
H1907 C1904 0.930 . S
O1908 Li1848 1.956 . S
O1908 Li1849 1.970 . S
O1908 Li1850 1.961 . S
O1908 C1852 1.325 . S
O1909 Li1848 1.970 . S
O1909 Li1849 1.956 . S
O1909 Li1851 1.961 . S
O1909 C1858 1.325 . S
O1910 Li1848 1.961 . S
O1910 Li1850 1.956 . S
O1910 Li1851 1.970 . S
O1910 C1880 1.325 . S
O1911 Li1849 1.961 . S
O1911 Li1850 1.970 . S
O1911 Li1851 1.956 . S
O1911 C1886 1.325 . S
H1912 C1854 0.929 . S
H1913 C1855 0.930 . S
H1914 C1856 0.930 . S
H1915 C1857 0.930 . S
H1916 C1859 0.930 . S
H1917 C1861 0.929 . S
H1918 C1862 0.930 . S
H1919 C1863 0.930 . S
H1920 C1866 0.930 . S
H1921 C1869 0.929 . S
H1922 C1874 0.929 . S
H1923 C1875 0.930 . S
H1924 C1882 0.929 . S
H1925 C1883 0.930 . S
H1926 C1884 0.930 . S
H1927 C1885 0.930 . S
H1928 C1887 0.929 . S
H1929 C1888 0.930 . S
H1930 C1889 0.930 . S
H1931 C1890 0.930 . S
H1932 C1894 0.929 . S
H1933 C1896 0.930 . S
H1934 C1902 0.929 . S
H1935 C1903 0.930 . S
Li1936 N1953 1.990 . S
Li1936 O1996 1.956 . S
Li1936 O1997 1.970 . S
Li1936 O1998 1.961 . S
Li1937 N1961 1.990 . S
Li1937 O1996 1.970 . S
Li1937 O1997 1.956 . S
Li1937 O1999 1.961 . S
Li1938 N1983 1.990 . S
Li1938 O1996 1.961 . S
Li1938 O1998 1.956 . S
Li1938 O1999 1.970 . S
Li1939 N1989 1.990 . S
Li1939 O1997 1.961 . S
Li1939 O1998 1.970 . S
Li1939 O1999 1.956 . S
C1940 C1942 1.348 . S
C1940 C1943 1.356 . S
C1940 O1996 1.325 . S
N1941 C1944 1.314 . S
N1941 C1945 1.279 . S
C1942 C1940 1.348 . S
C1942 C1944 1.353 . S
C1942 H2000 0.929 . S
C1943 C1940 1.356 . S
C1943 C1945 1.358 . S
C1943 H2001 0.930 . S
C1944 N1941 1.314 . S
C1944 C1942 1.353 . S
C1944 H2002 0.930 . S
C1945 N1941 1.279 . S
C1945 C1943 1.358 . S
C1945 H2003 0.930 . S
C1946 C1949 1.348 . S
C1946 C1950 1.356 . S
C1946 O1997 1.325 . S
C1947 N1948 1.279 . S
C1947 C1950 1.358 . S
C1947 H2004 0.930 . S
N1948 C1947 1.279 . S
N1948 C1951 1.314 . S
C1949 C1946 1.348 . S
C1949 C1951 1.353 . S
C1949 H2005 0.929 . S
C1950 C1946 1.356 . S
C1950 C1947 1.358 . S
C1950 H2006 0.930 . S
C1951 N1948 1.314 . S
C1951 C1949 1.353 . S
C1951 H2007 0.930 . S
C1952 N1953 1.314 . S
C1952 C1957 1.353 . S
C1952 H1958 0.930 . S
N1953 Li1936 1.990 . S
N1953 C1952 1.314 . S
N1953 C1955 1.279 . S
C1954 C1955 1.358 . S
C1954 C1956 1.356 . S
C1954 H2008 0.930 . S
C1955 N1953 1.279 . S
C1955 C1954 1.358 . S
C1955 H1959 0.930 . S
C1956 C1954 1.356 . S
C1956 C1957 1.348 . S
C1957 C1952 1.353 . S
C1957 C1956 1.348 . S
C1957 H2009 0.929 . S
H1958 C1952 0.930 . S
H1959 C1955 0.930 . S
C1960 N1961 1.314 . S
C1960 C1962 1.353 . S
C1960 H1966 0.930 . S
N1961 Li1937 1.990 . S
N1961 C1960 1.314 . S
N1961 C1964 1.279 . S
C1962 C1960 1.353 . S
C1962 C1965 1.348 . S
C1962 H2010 0.929 . S
C1963 C1964 1.358 . S
C1963 C1965 1.356 . S
C1963 H2011 0.930 . S
C1964 N1961 1.279 . S
C1964 C1963 1.358 . S
C1964 H1967 0.930 . S
C1965 C1962 1.348 . S
C1965 C1963 1.356 . S
H1966 C1960 0.930 . S
H1967 C1964 0.930 . S
C1968 C1970 1.348 . S
C1968 C1971 1.356 . S
C1968 O1998 1.325 . S
N1969 C1972 1.314 . S
N1969 C1973 1.279 . S
C1970 C1968 1.348 . S
C1970 C1972 1.353 . S
C1970 H2012 0.929 . S
C1971 C1968 1.356 . S
C1971 C1973 1.358 . S
C1971 H2013 0.930 . S
C1972 N1969 1.314 . S
C1972 C1970 1.353 . S
C1972 H2014 0.930 . S
C1973 N1969 1.279 . S
C1973 C1971 1.358 . S
C1973 H2015 0.930 . S
C1974 C1975 1.348 . S
C1974 C1976 1.356 . S
C1974 O1999 1.325 . S
C1975 C1974 1.348 . S
C1975 C1977 1.353 . S
C1975 H2016 0.929 . S
C1976 C1974 1.356 . S
C1976 C1978 1.358 . S
C1976 H2017 0.930 . S
C1977 C1975 1.353 . S
C1977 N1979 1.314 . S
C1977 H2018 0.930 . S
C1978 C1976 1.358 . S
C1978 N1979 1.279 . S
C1978 H2019 0.930 . S
N1979 C1977 1.314 . S
N1979 C1978 1.279 . S
C1980 C1982 1.353 . S
C1980 N1983 1.314 . S
C1980 H1986 0.930 . S
C1981 N1983 1.279 . S
C1981 C1984 1.358 . S
C1981 H1987 0.930 . S
C1982 C1980 1.353 . S
C1982 C1985 1.348 . S
C1982 H2020 0.929 . S
N1983 Li1938 1.990 . S
N1983 C1980 1.314 . S
N1983 C1981 1.279 . S
C1984 C1981 1.358 . S
C1984 C1985 1.356 . S
C1984 H2021 0.930 . S
C1985 C1982 1.348 . S
C1985 C1984 1.356 . S
H1986 C1980 0.930 . S
H1987 C1981 0.930 . S
C1988 N1989 1.314 . S
C1988 C1990 1.353 . S
C1988 H1994 0.930 . S
N1989 Li1939 1.990 . S
N1989 C1988 1.314 . S
N1989 C1992 1.279 . S
C1990 C1988 1.353 . S
C1990 C1993 1.348 . S
C1990 H2022 0.929 . S
C1991 C1992 1.358 . S
C1991 C1993 1.356 . S
C1991 H2023 0.930 . S
C1992 N1989 1.279 . S
C1992 C1991 1.358 . S
C1992 H1995 0.930 . S
C1993 C1990 1.348 . S
C1993 C1991 1.356 . S
H1994 C1988 0.930 . S
H1995 C1992 0.930 . S
O1996 Li1936 1.956 . S
O1996 Li1937 1.970 . S
O1996 Li1938 1.961 . S
O1996 C1940 1.325 . S
O1997 Li1936 1.970 . S
O1997 Li1937 1.956 . S
O1997 Li1939 1.961 . S
O1997 C1946 1.325 . S
O1998 Li1936 1.961 . S
O1998 Li1938 1.956 . S
O1998 Li1939 1.970 . S
O1998 C1968 1.325 . S
O1999 Li1937 1.961 . S
O1999 Li1938 1.970 . S
O1999 Li1939 1.956 . S
O1999 C1974 1.325 . S
H2000 C1942 0.929 . S
H2001 C1943 0.930 . S
H2002 C1944 0.930 . S
H2003 C1945 0.930 . S
H2004 C1947 0.930 . S
H2005 C1949 0.929 . S
H2006 C1950 0.930 . S
H2007 C1951 0.930 . S
H2008 C1954 0.930 . S
H2009 C1957 0.929 . S
H2010 C1962 0.929 . S
H2011 C1963 0.930 . S
H2012 C1970 0.929 . S
H2013 C1971 0.930 . S
H2014 C1972 0.930 . S
H2015 C1973 0.930 . S
H2016 C1975 0.929 . S
H2017 C1976 0.930 . S
H2018 C1977 0.930 . S
H2019 C1978 0.930 . S
H2020 C1982 0.929 . S
H2021 C1984 0.930 . S
H2022 C1990 0.929 . S
H2023 C1991 0.930 . S
Li2024 N2041 1.990 . S
Li2024 O2084 1.956 . S
Li2024 O2085 1.970 . S
Li2024 O2086 1.961 . S
Li2025 N2049 1.990 . S
Li2025 O2084 1.970 . S
Li2025 O2085 1.956 . S
Li2025 O2087 1.961 . S
Li2026 N2071 1.990 . S
Li2026 O2084 1.961 . S
Li2026 O2086 1.956 . S
Li2026 O2087 1.970 . S
Li2027 N2077 1.990 . S
Li2027 O2085 1.961 . S
Li2027 O2086 1.970 . S
Li2027 O2087 1.956 . S
C2028 C2030 1.348 . S
C2028 C2031 1.356 . S
C2028 O2084 1.325 . S
N2029 C2032 1.314 . S
N2029 C2033 1.279 . S
C2030 C2028 1.348 . S
C2030 C2032 1.353 . S
C2030 H2088 0.929 . S
C2031 C2028 1.356 . S
C2031 C2033 1.358 . S
C2031 H2089 0.930 . S
C2032 N2029 1.314 . S
C2032 C2030 1.353 . S
C2032 H2090 0.930 . S
C2033 N2029 1.279 . S
C2033 C2031 1.358 . S
C2033 H2091 0.930 . S
C2034 C2037 1.348 . S
C2034 C2038 1.356 . S
C2034 O2085 1.325 . S
C2035 N2036 1.279 . S
C2035 C2038 1.358 . S
C2035 H2092 0.930 . S
N2036 C2035 1.279 . S
N2036 C2039 1.314 . S
C2037 C2034 1.348 . S
C2037 C2039 1.353 . S
C2037 H2093 0.929 . S
C2038 C2034 1.356 . S
C2038 C2035 1.358 . S
C2038 H2094 0.930 . S
C2039 N2036 1.314 . S
C2039 C2037 1.353 . S
C2039 H2095 0.930 . S
C2040 N2041 1.314 . S
C2040 C2045 1.353 . S
C2040 H2046 0.930 . S
N2041 Li2024 1.990 . S
N2041 C2040 1.314 . S
N2041 C2043 1.279 . S
C2042 C2043 1.358 . S
C2042 C2044 1.356 . S
C2042 H2096 0.930 . S
C2043 N2041 1.279 . S
C2043 C2042 1.358 . S
C2043 H2047 0.930 . S
C2044 C2042 1.356 . S
C2044 C2045 1.348 . S
C2045 C2040 1.353 . S
C2045 C2044 1.348 . S
C2045 H2097 0.929 . S
H2046 C2040 0.930 . S
H2047 C2043 0.930 . S
C2048 N2049 1.314 . S
C2048 C2050 1.353 . S
C2048 H2054 0.930 . S
N2049 Li2025 1.990 . S
N2049 C2048 1.314 . S
N2049 C2052 1.279 . S
C2050 C2048 1.353 . S
C2050 C2053 1.348 . S
C2050 H2098 0.929 . S
C2051 C2052 1.358 . S
C2051 C2053 1.356 . S
C2051 H2099 0.930 . S
C2052 N2049 1.279 . S
C2052 C2051 1.358 . S
C2052 H2055 0.930 . S
C2053 C2050 1.348 . S
C2053 C2051 1.356 . S
H2054 C2048 0.930 . S
H2055 C2052 0.930 . S
C2056 C2058 1.348 . S
C2056 C2059 1.356 . S
C2056 O2086 1.325 . S
N2057 C2060 1.314 . S
N2057 C2061 1.279 . S
C2058 C2056 1.348 . S
C2058 C2060 1.353 . S
C2058 H2100 0.929 . S
C2059 C2056 1.356 . S
C2059 C2061 1.358 . S
C2059 H2101 0.930 . S
C2060 N2057 1.314 . S
C2060 C2058 1.353 . S
C2060 H2102 0.930 . S
C2061 N2057 1.279 . S
C2061 C2059 1.358 . S
C2061 H2103 0.930 . S
C2062 C2063 1.348 . S
C2062 C2064 1.356 . S
C2062 O2087 1.325 . S
C2063 C2062 1.348 . S
C2063 C2065 1.353 . S
C2063 H2104 0.929 . S
C2064 C2062 1.356 . S
C2064 C2066 1.358 . S
C2064 H2105 0.930 . S
C2065 C2063 1.353 . S
C2065 N2067 1.314 . S
C2065 H2106 0.930 . S
C2066 C2064 1.358 . S
C2066 N2067 1.279 . S
C2066 H2107 0.930 . S
N2067 C2065 1.314 . S
N2067 C2066 1.279 . S
C2068 C2070 1.353 . S
C2068 N2071 1.314 . S
C2068 H2074 0.930 . S
C2069 N2071 1.279 . S
C2069 C2072 1.358 . S
C2069 H2075 0.930 . S
C2070 C2068 1.353 . S
C2070 C2073 1.348 . S
C2070 H2108 0.929 . S
N2071 Li2026 1.990 . S
N2071 C2068 1.314 . S
N2071 C2069 1.279 . S
C2072 C2069 1.358 . S
C2072 C2073 1.356 . S
C2072 H2109 0.930 . S
C2073 C2070 1.348 . S
C2073 C2072 1.356 . S
H2074 C2068 0.930 . S
H2075 C2069 0.930 . S
C2076 N2077 1.314 . S
C2076 C2078 1.353 . S
C2076 H2082 0.930 . S
N2077 Li2027 1.990 . S
N2077 C2076 1.314 . S
N2077 C2080 1.279 . S
C2078 C2076 1.353 . S
C2078 C2081 1.348 . S
C2078 H2110 0.929 . S
C2079 C2080 1.358 . S
C2079 C2081 1.356 . S
C2079 H2111 0.930 . S
C2080 N2077 1.279 . S
C2080 C2079 1.358 . S
C2080 H2083 0.930 . S
C2081 C2078 1.348 . S
C2081 C2079 1.356 . S
H2082 C2076 0.930 . S
H2083 C2080 0.930 . S
O2084 Li2024 1.956 . S
O2084 Li2025 1.970 . S
O2084 Li2026 1.961 . S
O2084 C2028 1.325 . S
O2085 Li2024 1.970 . S
O2085 Li2025 1.956 . S
O2085 Li2027 1.961 . S
O2085 C2034 1.325 . S
O2086 Li2024 1.961 . S
O2086 Li2026 1.956 . S
O2086 Li2027 1.970 . S
O2086 C2056 1.325 . S
O2087 Li2025 1.961 . S
O2087 Li2026 1.970 . S
O2087 Li2027 1.956 . S
O2087 C2062 1.325 . S
H2088 C2030 0.929 . S
H2089 C2031 0.930 . S
H2090 C2032 0.930 . S
H2091 C2033 0.930 . S
H2092 C2035 0.930 . S
H2093 C2037 0.929 . S
H2094 C2038 0.930 . S
H2095 C2039 0.930 . S
H2096 C2042 0.930 . S
H2097 C2045 0.929 . S
H2098 C2050 0.929 . S
H2099 C2051 0.930 . S
H2100 C2058 0.929 . S
H2101 C2059 0.930 . S
H2102 C2060 0.930 . S
H2103 C2061 0.930 . S
H2104 C2063 0.929 . S
H2105 C2064 0.930 . S
H2106 C2065 0.930 . S
H2107 C2066 0.930 . S
H2108 C2070 0.929 . S
H2109 C2072 0.930 . S
H2110 C2078 0.929 . S
H2111 C2079 0.930 . S
C2112 C2114 1.422 1_556 S
C2112 C2116 1.415 . S
C2112 N2118 1.369 . S
C2113 C2114 1.421 . S
C2113 C2115 1.417 1_554 S
C2113 C2125 1.422 . S
C2114 C2112 1.422 1_554 S
C2114 C2113 1.421 . S
C2114 N2124 1.359 . S
C2115 C2113 1.417 1_556 S
C2115 C2117 1.329 . S
C2115 H2134 0.951 . S
C2116 C2112 1.415 . S
C2116 C2117 1.437 . S
C2116 C2120 1.413 . S
C2117 C2115 1.329 . S
C2117 C2116 1.437 . S
C2117 H2139 0.929 . S
N2118 C2112 1.369 . S
N2118 C2119 1.338 . S
N2118 Gd2123 2.622 1_566 S
C2119 N2118 1.338 . S
C2119 C2121 1.378 . S
C2119 H2131 0.929 . S
C2120 C2116 1.413 . S
C2120 C2121 1.348 . S
C2120 H2136 0.931 . S
C2121 C2119 1.378 . S
C2121 C2120 1.348 . S
C2121 H2137 0.930 . S
Gd2122 N2142 2.622 . S
Gd2122 N2149 2.570 . S
Gd2122 O2156 2.333 1_545 S
Gd2122 O2157 2.468 . S
Gd2122 O2158 2.427 . S
Gd2122 O2160 2.388 . S
Gd2122 O2161 2.386 . S
Gd2122 O2165 2.307 . S
Gd2122 C2175 2.805 . S
Gd2123 N2118 2.622 1_544 S
Gd2123 N2124 2.570 1_545 S
Gd2123 O2155 2.386 1_645 S
Gd2123 O2159 2.307 1_655 S
Gd2123 O2162 2.353 1_655 S
Gd2123 O2163 2.468 . S
Gd2123 O2164 2.427 1_554 S
Gd2123 O2166 2.388 1_654 S
Gd2123 C2187 2.805 . S
N2124 C2114 1.359 . S
N2124 Gd2123 2.570 1_565 S
N2124 C2126 1.343 . S
C2125 C2113 1.422 . S
C2125 C2127 1.321 . S
C2125 H2133 0.931 . S
C2126 N2124 1.343 . S
C2126 C2127 1.390 . S
C2126 H2128 0.931 . S
C2127 C2125 1.321 . S
C2127 C2126 1.390 . S
C2127 H2129 0.930 . S
H2128 C2126 0.931 . S
H2129 C2127 0.930 . S
H2130 C2153 0.930 1_556 S
H2131 C2119 0.929 . S
H2132 C2154 0.930 1_556 S
H2133 C2125 0.931 . S
H2134 C2115 0.951 . S
H2135 C2144 0.929 . S
H2136 C2120 0.931 . S
H2137 C2121 0.930 . S
H2138 C2176 0.930 . S
H2139 C2117 0.929 . S
H2140 C2145 0.931 . S
H2141 C2146 0.930 . S
N2142 Gd2122 2.622 . S
N2142 C2143 1.369 . S
N2142 C2144 1.338 . S
C2143 N2142 1.369 . S
C2143 C2147 1.415 . S
C2143 C2150 1.422 . S
C2144 H2135 0.929 . S
C2144 N2142 1.338 . S
C2144 C2146 1.378 . S
C2145 H2140 0.931 . S
C2145 C2146 1.348 . S
C2145 C2147 1.413 . S
C2146 H2141 0.930 . S
C2146 C2144 1.378 . S
C2146 C2145 1.348 . S
C2147 C2143 1.415 . S
C2147 C2145 1.413 . S
C2147 C2177 1.437 . S
H2148 C2177 0.929 . S
N2149 Gd2122 2.570 . S
N2149 C2150 1.359 . S
N2149 C2153 1.343 . S
C2150 C2143 1.422 . S
C2150 N2149 1.359 . S
C2150 C2152 1.421 . S
C2151 C2152 1.422 . S
C2151 C2154 1.321 . S
C2151 H2178 0.931 . S
C2152 C2150 1.421 . S
C2152 C2151 1.422 . S
C2152 C2176 1.417 . S
C2153 H2130 0.930 1_554 S
C2153 N2149 1.343 . S
C2153 C2154 1.390 . S
C2154 H2132 0.930 1_554 S
C2154 C2151 1.321 . S
C2154 C2153 1.390 . S
O2155 Gd2123 2.386 1_465 S
O2155 C2167 1.265 . S
O2156 Gd2122 2.333 1_565 S
O2156 C2167 1.253 . S
O2157 Gd2122 2.468 . S
O2157 C2175 1.263 . S
O2158 Gd2122 2.427 . S
O2158 C2175 1.252 . S
O2159 Gd2123 2.307 1_455 S
O2159 C2168 1.261 . S
O2160 Gd2122 2.388 . S
O2160 C2168 1.252 . S
O2161 Gd2122 2.386 . S
O2161 C2179 1.265 . S
O2162 Gd2123 2.353 1_455 S
O2162 C2179 1.242 . S
O2163 Gd2123 2.468 . S
O2163 C2187 1.263 . S
O2164 Gd2123 2.427 1_556 S
O2164 C2187 1.252 1_556 S
O2165 Gd2122 2.307 . S
O2165 C2180 1.261 1_554 S
O2166 Gd2123 2.388 1_456 S
O2166 C2180 1.252 . S
C2167 O2155 1.265 . S
C2167 O2156 1.253 . S
C2168 O2159 1.261 . S
C2168 O2160 1.252 . S
C2169 C2172 1.394 . S
C2169 C2174 1.370 . S
C2169 C2175 1.500 . S
C2170 C2173 1.376 . S
C2170 C2174 1.395 1_565 S
C2171 C2172 1.396 . S
C2171 C2173 1.350 1_545 S
C2171 H2188 0.929 . S
C2172 C2169 1.394 . S
C2172 C2171 1.396 . S
C2172 H2189 0.930 . S
C2173 C2170 1.376 . S
C2173 C2171 1.350 1_565 S
C2173 H2190 0.957 . S
C2174 C2169 1.370 . S
C2174 C2170 1.395 1_545 S
C2174 H2191 0.930 . S
C2175 Gd2122 2.805 . S
C2175 O2157 1.263 . S
C2175 O2158 1.252 . S
C2175 C2169 1.500 . S
C2176 H2138 0.930 . S
C2176 C2152 1.417 . S
C2176 C2177 1.329 . S
C2177 C2147 1.437 . S
C2177 H2148 0.929 . S
C2177 C2176 1.329 . S
H2178 C2151 0.931 . S
C2179 O2161 1.265 . S
C2179 O2162 1.242 . S
C2180 O2165 1.261 1_556 S
C2180 O2166 1.252 . S
C2181 C2184 1.394 . S
C2181 C2186 1.370 1_556 S
C2181 C2187 1.500 1_556 S
C2182 C2185 1.383 1_554 S
C2182 C2186 1.395 . S
C2183 C2184 1.396 . S
C2183 C2185 1.365 . S
C2183 H2192 0.929 . S
C2184 C2181 1.394 . S
C2184 C2183 1.396 . S
C2184 H2193 0.930 . S
C2185 C2182 1.383 1_556 S
C2185 C2183 1.365 . S
C2185 H2194 0.931 . S
C2186 C2181 1.370 1_554 S
C2186 C2182 1.395 . S
C2186 H2195 0.930 . S
C2187 Gd2123 2.805 . S
C2187 O2163 1.263 . S
C2187 O2164 1.252 1_554 S
C2187 C2181 1.500 1_554 S
H2188 C2171 0.929 . S
H2189 C2172 0.930 . S
H2190 C2173 0.957 . S
H2191 C2174 0.930 . S
H2192 C2183 0.929 . S
H2193 C2184 0.930 . S
H2194 C2185 0.931 . S
H2195 C2186 0.930 . S
C2196 C2198 1.422 . S
C2196 C2200 1.415 . S
C2196 N2202 1.369 . S
C2197 C2198 1.421 . S
C2197 C2199 1.417 . S
C2197 C2209 1.422 . S
C2198 C2196 1.422 . S
C2198 C2197 1.421 . S
C2198 N2208 1.359 . S
C2199 C2197 1.417 . S
C2199 C2201 1.329 . S
C2199 H2218 0.930 . S
C2200 C2196 1.415 . S
C2200 C2201 1.437 . S
C2200 C2204 1.413 . S
C2201 C2199 1.329 . S
C2201 C2200 1.437 . S
C2201 H2223 0.929 . S
N2202 C2196 1.369 . S
N2202 C2203 1.338 . S
N2202 Gd2207 2.622 . S
C2203 N2202 1.338 . S
C2203 C2205 1.378 . S
C2203 H2215 0.929 . S
C2204 C2200 1.413 . S
C2204 C2205 1.348 . S
C2204 H2220 0.931 . S
C2205 C2203 1.378 . S
C2205 C2204 1.348 . S
C2205 H2221 0.930 . S
Gd2206 N2226 2.622 . S
Gd2206 N2233 2.570 . S
Gd2206 O2240 2.353 . S
Gd2206 O2241 2.468 . S
Gd2206 O2242 2.427 . S
Gd2206 O2244 2.388 . S
Gd2206 O2245 2.386 . S
Gd2206 O2249 2.307 . S
Gd2206 C2259 2.805 . S
Gd2207 N2202 2.622 . S
Gd2207 N2208 2.570 . S
Gd2207 O2239 2.386 . S
Gd2207 O2243 2.307 . S
Gd2207 O2246 2.353 . S
Gd2207 O2247 2.468 . S
Gd2207 O2248 2.427 . S
Gd2207 O2250 2.388 . S
Gd2207 C2271 2.805 . S
N2208 C2198 1.359 . S
N2208 Gd2207 2.570 . S
N2208 C2210 1.343 . S
C2209 C2197 1.422 . S
C2209 C2211 1.321 . S
C2209 H2217 0.931 . S
C2210 N2208 1.343 . S
C2210 C2211 1.390 . S
C2210 H2212 0.931 . S
C2211 C2209 1.321 . S
C2211 C2210 1.390 . S
C2211 H2213 0.930 . S
H2212 C2210 0.931 . S
H2213 C2211 0.930 . S
H2214 C2237 0.931 . S
H2215 C2203 0.929 . S
H2216 C2238 0.930 . S
H2217 C2209 0.931 . S
H2218 C2199 0.930 . S
H2219 C2228 0.929 . S
H2220 C2204 0.931 . S
H2221 C2205 0.930 . S
H2222 C2260 0.930 . S
H2223 C2201 0.929 . S
H2224 C2229 0.931 . S
H2225 C2230 0.930 . S
N2226 Gd2206 2.622 . S
N2226 C2227 1.369 . S
N2226 C2228 1.338 . S
C2227 N2226 1.369 . S
C2227 C2231 1.415 . S
C2227 C2234 1.422 . S
C2228 H2219 0.929 . S
C2228 N2226 1.338 . S
C2228 C2230 1.378 . S
C2229 H2224 0.931 . S
C2229 C2230 1.348 . S
C2229 C2231 1.413 . S
C2230 H2225 0.930 . S
C2230 C2228 1.378 . S
C2230 C2229 1.348 . S
C2231 C2227 1.415 . S
C2231 C2229 1.413 . S
C2231 C2261 1.437 . S
H2232 C2261 0.929 . S
N2233 Gd2206 2.570 . S
N2233 C2234 1.359 . S
N2233 C2237 1.343 . S
C2234 C2227 1.422 . S
C2234 N2233 1.359 . S
C2234 C2236 1.421 . S
C2235 C2236 1.422 . S
C2235 C2238 1.321 . S
C2235 H2262 0.931 . S
C2236 C2234 1.421 . S
C2236 C2235 1.422 . S
C2236 C2260 1.417 . S
C2237 H2214 0.931 . S
C2237 N2233 1.343 . S
C2237 C2238 1.390 . S
C2238 H2216 0.930 . S
C2238 C2235 1.321 . S
C2238 C2237 1.390 . S
O2239 Gd2207 2.386 . S
O2239 C2251 1.265 . S
O2240 Gd2206 2.353 . S
O2240 C2251 1.242 . S
O2241 Gd2206 2.468 . S
O2241 C2259 1.263 . S
O2242 Gd2206 2.427 . S
O2242 C2259 1.252 . S
O2243 Gd2207 2.307 . S
O2243 C2252 1.261 . S
O2244 Gd2206 2.388 . S
O2244 C2252 1.252 . S
O2245 Gd2206 2.386 . S
O2245 C2263 1.265 . S
O2246 Gd2207 2.353 . S
O2246 C2263 1.242 . S
O2247 Gd2207 2.468 . S
O2247 C2271 1.263 . S
O2248 Gd2207 2.427 . S
O2248 C2271 1.252 . S
O2249 Gd2206 2.307 . S
O2249 C2264 1.261 . S
O2250 Gd2207 2.388 . S
O2250 C2264 1.252 . S
C2251 O2239 1.265 . S
C2251 O2240 1.242 . S
C2252 O2243 1.261 . S
C2252 O2244 1.252 . S
C2253 C2256 1.394 . S
C2253 C2258 1.370 . S
C2253 C2259 1.500 . S
C2254 C2257 1.383 . S
C2254 C2258 1.395 . S
C2255 C2256 1.396 . S
C2255 C2257 1.365 . S
C2255 H2272 0.929 . S
C2256 C2253 1.394 . S
C2256 C2255 1.396 . S
C2256 H2273 0.930 . S
C2257 C2254 1.383 . S
C2257 C2255 1.365 . S
C2257 H2274 0.931 . S
C2258 C2253 1.370 . S
C2258 C2254 1.395 . S
C2258 H2275 0.930 . S
C2259 Gd2206 2.805 . S
C2259 O2241 1.263 . S
C2259 O2242 1.252 . S
C2259 C2253 1.500 . S
C2260 H2222 0.930 . S
C2260 C2236 1.417 . S
C2260 C2261 1.329 . S
C2261 C2231 1.437 . S
C2261 H2232 0.929 . S
C2261 C2260 1.329 . S
H2262 C2235 0.931 . S
C2263 O2245 1.265 . S
C2263 O2246 1.242 . S
C2264 O2249 1.261 . S
C2264 O2250 1.252 . S
C2265 C2268 1.394 . S
C2265 C2270 1.370 . S
C2265 C2271 1.500 . S
C2266 C2269 1.383 . S
C2266 C2270 1.395 . S
C2267 C2268 1.396 . S
C2267 C2269 1.365 . S
C2267 H2276 0.929 . S
C2268 C2265 1.394 . S
C2268 C2267 1.396 . S
C2268 H2277 0.930 . S
C2269 C2266 1.383 . S
C2269 C2267 1.365 . S
C2269 H2278 0.931 . S
C2270 C2265 1.370 . S
C2270 C2266 1.395 . S
C2270 H2279 0.930 . S
C2271 Gd2207 2.805 . S
C2271 O2247 1.263 . S
C2271 O2248 1.252 . S
C2271 C2265 1.500 . S
H2272 C2255 0.929 . S
H2273 C2256 0.930 . S
H2274 C2257 0.931 . S
H2275 C2258 0.930 . S
H2276 C2267 0.929 . S
H2277 C2268 0.930 . S
H2278 C2269 0.931 . S
H2279 C2270 0.930 . S
C2280 C2282 1.422 . S
C2280 C2284 1.415 . S
C2280 N2286 1.369 . S
C2281 C2282 1.421 . S
C2281 C2283 1.417 . S
C2281 C2293 1.422 . S
C2282 C2280 1.422 . S
C2282 C2281 1.421 . S
C2282 N2292 1.359 . S
C2283 C2281 1.417 . S
C2283 C2285 1.329 . S
C2283 H2302 0.930 . S
C2284 C2280 1.415 . S
C2284 C2285 1.437 . S
C2284 C2288 1.413 . S
C2285 C2283 1.329 . S
C2285 C2284 1.437 . S
C2285 H2307 0.929 . S
N2286 C2280 1.369 . S
N2286 C2287 1.338 . S
N2286 Gd2291 2.622 . S
C2287 N2286 1.338 . S
C2287 C2289 1.378 . S
C2287 H2299 0.929 . S
C2288 C2284 1.413 . S
C2288 C2289 1.348 . S
C2288 H2304 0.931 . S
C2289 C2287 1.378 . S
C2289 C2288 1.348 . S
C2289 H2305 0.930 . S
Gd2290 N2310 2.622 1_545 S
Gd2290 N2317 2.570 1_545 S
Gd2290 O2324 2.353 . S
Gd2290 O2325 2.468 . S
Gd2290 O2326 2.427 . S
Gd2290 O2328 2.388 . S
Gd2290 O2329 2.386 1_545 S
Gd2290 O2333 2.307 . S
Gd2290 C2343 2.805 . S
Gd2291 N2286 2.622 . S
Gd2291 N2292 2.570 . S
Gd2291 O2323 2.386 . S
Gd2291 O2327 2.307 . S
Gd2291 O2330 2.353 1_545 S
Gd2291 O2331 2.468 . S
Gd2291 O2332 2.427 . S
Gd2291 O2334 2.388 . S
Gd2291 C2355 2.805 . S
N2292 C2282 1.359 . S
N2292 Gd2291 2.570 . S
N2292 C2294 1.343 . S
C2293 C2281 1.422 . S
C2293 C2295 1.321 . S
C2293 H2301 0.931 . S
C2294 N2292 1.343 . S
C2294 C2295 1.390 . S
C2294 H2296 0.931 . S
C2295 C2293 1.321 . S
C2295 C2294 1.390 . S
C2295 H2297 0.930 . S
H2296 C2294 0.931 . S
H2297 C2295 0.930 . S
H2298 C2321 0.931 . S
H2299 C2287 0.929 . S
H2300 C2322 0.930 . S
H2301 C2293 0.931 . S
H2302 C2283 0.930 . S
H2303 C2312 0.947 . S
H2304 C2288 0.931 . S
H2305 C2289 0.930 . S
H2306 C2344 0.930 . S
H2307 C2285 0.929 . S
H2308 C2313 0.931 . S
H2309 C2314 0.930 . S
N2310 Gd2290 2.622 1_565 S
N2310 C2311 1.369 . S
N2310 C2312 1.339 1_565 S
C2311 N2310 1.369 . S
C2311 C2315 1.415 . S
C2311 C2318 1.422 . S
C2312 H2303 0.947 . S
C2312 N2310 1.339 1_545 S
C2312 C2314 1.360 1_545 S
C2313 H2308 0.931 . S
C2313 C2314 1.348 . S
C2313 C2315 1.413 . S
C2314 H2309 0.930 . S
C2314 C2312 1.360 1_565 S
C2314 C2313 1.348 . S
C2315 C2311 1.415 . S
C2315 C2313 1.413 . S
C2315 C2345 1.437 . S
H2316 C2345 0.929 . S
N2317 Gd2290 2.570 1_565 S
N2317 C2318 1.359 . S
N2317 C2321 1.343 . S
C2318 C2311 1.422 . S
C2318 N2317 1.359 . S
C2318 C2320 1.421 . S
C2319 C2320 1.422 . S
C2319 C2322 1.321 . S
C2319 H2346 0.931 . S
C2320 C2318 1.421 . S
C2320 C2319 1.422 . S
C2320 C2344 1.417 . S
C2321 H2298 0.931 . S
C2321 N2317 1.343 . S
C2321 C2322 1.390 . S
C2322 H2300 0.930 . S
C2322 C2319 1.321 . S
C2322 C2321 1.390 . S
O2323 Gd2291 2.386 . S
O2323 C2335 1.265 . S
O2324 Gd2290 2.353 . S
O2324 C2335 1.242 . S
O2325 Gd2290 2.468 . S
O2325 C2343 1.263 . S
O2326 Gd2290 2.427 . S
O2326 C2343 1.252 . S
O2327 Gd2291 2.307 . S
O2327 C2336 1.261 . S
O2328 Gd2290 2.388 . S
O2328 C2336 1.252 . S
O2329 Gd2290 2.386 1_565 S
O2329 C2347 1.265 . S
O2330 Gd2291 2.353 1_565 S
O2330 C2347 1.242 . S
O2331 Gd2291 2.468 . S
O2331 C2355 1.263 . S
O2332 Gd2291 2.427 . S
O2332 C2355 1.252 . S
O2333 Gd2290 2.307 . S
O2333 C2348 1.261 . S
O2334 Gd2291 2.388 . S
O2334 C2348 1.252 . S
C2335 O2323 1.265 . S
C2335 O2324 1.242 . S
C2336 O2327 1.261 . S
C2336 O2328 1.252 . S
C2337 C2340 1.394 . S
C2337 C2342 1.370 . S
C2337 C2343 1.500 . S
C2338 C2341 1.383 . S
C2338 C2342 1.395 . S
C2339 C2340 1.396 . S
C2339 C2341 1.365 . S
C2339 H2356 0.929 . S
C2340 C2337 1.394 . S
C2340 C2339 1.396 . S
C2340 H2357 0.930 . S
C2341 C2338 1.383 . S
C2341 C2339 1.365 . S
C2341 H2358 0.931 . S
C2342 C2337 1.370 . S
C2342 C2338 1.395 . S
C2342 H2359 0.930 . S
C2343 Gd2290 2.805 . S
C2343 O2325 1.263 . S
C2343 O2326 1.252 . S
C2343 C2337 1.500 . S
C2344 H2306 0.930 . S
C2344 C2320 1.417 . S
C2344 C2345 1.329 . S
C2345 C2315 1.437 . S
C2345 H2316 0.929 . S
C2345 C2344 1.329 . S
H2346 C2319 0.931 . S
C2347 O2329 1.265 . S
C2347 O2330 1.242 . S
C2348 O2333 1.261 . S
C2348 O2334 1.252 . S
C2349 C2352 1.394 . S
C2349 C2354 1.370 . S
C2349 C2355 1.500 1_565 S
C2350 C2353 1.383 . S
C2350 C2354 1.395 . S
C2351 C2352 1.396 . S
C2351 C2353 1.365 . S
C2351 H2360 0.929 . S
C2352 C2349 1.394 . S
C2352 C2351 1.396 . S
C2352 H2361 0.930 . S
C2353 C2350 1.383 . S
C2353 C2351 1.365 . S
C2353 H2362 0.931 . S
C2354 C2349 1.370 . S
C2354 C2350 1.395 . S
C2354 H2363 0.930 . S
C2355 Gd2291 2.805 . S
C2355 O2331 1.263 . S
C2355 O2332 1.252 . S
C2355 C2349 1.500 1_545 S
H2356 C2339 0.929 . S
H2357 C2340 0.930 . S
H2358 C2341 0.931 . S
H2359 C2342 0.930 . S
H2360 C2351 0.929 . S
H2361 C2352 0.930 . S
H2362 C2353 0.931 . S
H2363 C2354 0.930 . S
C2364 C2366 1.422 . S
C2364 C2368 1.415 . S
C2364 N2370 1.369 . S
C2365 C2366 1.421 . S
C2365 C2367 1.417 . S
C2365 C2377 1.422 . S
C2366 C2364 1.422 . S
C2366 C2365 1.421 . S
C2366 N2376 1.359 . S
C2367 C2365 1.417 . S
C2367 C2369 1.329 . S
C2367 H2386 0.930 . S
C2368 C2364 1.415 . S
C2368 C2369 1.437 . S
C2368 C2372 1.413 . S
C2369 C2367 1.329 . S
C2369 C2368 1.437 . S
C2369 H2391 0.929 . S
N2370 C2364 1.369 . S
N2370 C2371 1.338 . S
N2370 Gd2375 2.622 . S
C2371 N2370 1.338 . S
C2371 C2373 1.378 . S
C2371 H2383 0.929 . S
C2372 C2368 1.413 . S
C2372 C2373 1.348 . S
C2372 H2388 0.931 . S
C2373 C2371 1.378 . S
C2373 C2372 1.348 . S
C2373 H2389 0.930 . S
Gd2374 N2394 2.622 . S
Gd2374 N2401 2.570 . S
Gd2374 O2408 2.353 . S
Gd2374 O2409 2.468 . S
Gd2374 O2410 2.427 . S
Gd2374 O2412 2.388 . S
Gd2374 O2413 2.386 . S
Gd2374 O2417 2.307 . S
Gd2374 C2427 2.805 . S
Gd2375 N2370 2.622 . S
Gd2375 N2376 2.570 . S
Gd2375 O2407 2.386 . S
Gd2375 O2411 2.307 . S
Gd2375 O2414 2.353 . S
Gd2375 O2415 2.468 . S
Gd2375 O2416 2.427 . S
Gd2375 O2418 2.388 . S
Gd2375 C2439 2.805 . S
N2376 C2366 1.359 . S
N2376 Gd2375 2.570 . S
N2376 C2378 1.343 . S
C2377 C2365 1.422 . S
C2377 C2379 1.321 . S
C2377 H2385 0.931 . S
C2378 N2376 1.343 . S
C2378 C2379 1.390 . S
C2378 H2380 0.931 . S
C2379 C2377 1.321 . S
C2379 C2378 1.390 . S
C2379 H2381 0.930 . S
H2380 C2378 0.931 . S
H2381 C2379 0.930 . S
H2382 C2405 0.931 . S
H2383 C2371 0.929 . S
H2384 C2406 0.930 . S
H2385 C2377 0.931 . S
H2386 C2367 0.930 . S
H2387 C2396 0.929 . S
H2388 C2372 0.931 . S
H2389 C2373 0.930 . S
H2390 C2428 0.930 . S
H2391 C2369 0.929 . S
H2392 C2397 0.931 . S
H2393 C2398 0.930 . S
N2394 Gd2374 2.622 . S
N2394 C2395 1.369 . S
N2394 C2396 1.338 . S
C2395 N2394 1.369 . S
C2395 C2399 1.415 . S
C2395 C2402 1.422 . S
C2396 H2387 0.929 . S
C2396 N2394 1.338 . S
C2396 C2398 1.378 . S
C2397 H2392 0.931 . S
C2397 C2398 1.348 . S
C2397 C2399 1.413 . S
C2398 H2393 0.930 . S
C2398 C2396 1.378 . S
C2398 C2397 1.348 . S
C2399 C2395 1.415 . S
C2399 C2397 1.413 . S
C2399 C2429 1.437 . S
H2400 C2429 0.929 . S
N2401 Gd2374 2.570 . S
N2401 C2402 1.359 . S
N2401 C2405 1.343 . S
C2402 C2395 1.422 . S
C2402 N2401 1.359 . S
C2402 C2404 1.421 . S
C2403 C2404 1.422 . S
C2403 C2406 1.321 . S
C2403 H2430 0.931 . S
C2404 C2402 1.421 . S
C2404 C2403 1.422 . S
C2404 C2428 1.417 . S
C2405 H2382 0.931 . S
C2405 N2401 1.343 . S
C2405 C2406 1.390 . S
C2406 H2384 0.930 . S
C2406 C2403 1.321 . S
C2406 C2405 1.390 . S
O2407 Gd2375 2.386 . S
O2407 C2419 1.265 . S
O2408 Gd2374 2.353 . S
O2408 C2419 1.242 . S
O2409 Gd2374 2.468 . S
O2409 C2427 1.263 . S
O2410 Gd2374 2.427 . S
O2410 C2427 1.252 . S
O2411 Gd2375 2.307 . S
O2411 C2420 1.261 . S
O2412 Gd2374 2.388 . S
O2412 C2420 1.252 . S
O2413 Gd2374 2.386 . S
O2413 C2431 1.265 . S
O2414 Gd2375 2.353 . S
O2414 C2431 1.242 . S
O2415 Gd2375 2.468 . S
O2415 C2439 1.263 . S
O2416 Gd2375 2.427 . S
O2416 C2439 1.252 . S
O2417 Gd2374 2.307 . S
O2417 C2432 1.261 . S
O2418 Gd2375 2.388 . S
O2418 C2432 1.252 . S
C2419 O2407 1.265 . S
C2419 O2408 1.242 . S
C2420 O2411 1.261 . S
C2420 O2412 1.252 . S
C2421 C2424 1.394 . S
C2421 C2426 1.370 . S
C2421 C2427 1.500 . S
C2422 C2425 1.383 . S
C2422 C2426 1.395 . S
C2423 C2424 1.396 . S
C2423 C2425 1.365 . S
C2423 H2440 0.929 . S
C2424 C2421 1.394 . S
C2424 C2423 1.396 . S
C2424 H2441 0.930 . S
C2425 C2422 1.383 . S
C2425 C2423 1.365 . S
C2425 H2442 0.931 . S
C2426 C2421 1.370 . S
C2426 C2422 1.395 . S
C2426 H2443 0.930 . S
C2427 Gd2374 2.805 . S
C2427 O2409 1.263 . S
C2427 O2410 1.252 . S
C2427 C2421 1.500 . S
C2428 H2390 0.930 . S
C2428 C2404 1.417 . S
C2428 C2429 1.329 . S
C2429 C2399 1.437 . S
C2429 H2400 0.929 . S
C2429 C2428 1.329 . S
H2430 C2403 0.931 . S
C2431 O2413 1.265 . S
C2431 O2414 1.242 . S
C2432 O2417 1.261 . S
C2432 O2418 1.252 . S
C2433 C2436 1.394 . S
C2433 C2438 1.370 . S
C2433 C2439 1.500 . S
C2434 C2437 1.383 . S
C2434 C2438 1.395 . S
C2435 C2436 1.396 . S
C2435 C2437 1.365 . S
C2435 H2444 0.929 . S
C2436 C2433 1.394 . S
C2436 C2435 1.396 . S
C2436 H2445 0.930 . S
C2437 C2434 1.383 . S
C2437 C2435 1.365 . S
C2437 H2446 0.931 . S
C2438 C2433 1.370 . S
C2438 C2434 1.395 . S
C2438 H2447 0.930 . S
C2439 Gd2375 2.805 . S
C2439 O2415 1.263 . S
C2439 O2416 1.252 . S
C2439 C2433 1.500 . S
H2440 C2423 0.929 . S
H2441 C2424 0.930 . S
H2442 C2425 0.931 . S
H2443 C2426 0.930 . S
H2444 C2435 0.929 . S
H2445 C2436 0.930 . S
H2446 C2437 0.931 . S
H2447 C2438 0.930 . S
C2448 C2450 1.422 . S
C2448 C2452 1.415 1_455 S
C2448 N2454 1.369 1_455 S
C2449 C2450 1.421 . S
C2449 C2451 1.417 . S
C2449 C2461 1.422 . S
C2450 C2448 1.422 . S
C2450 C2449 1.421 . S
C2450 N2460 1.359 . S
C2451 C2449 1.417 . S
C2451 C2453 1.329 . S
C2451 H2470 0.930 . S
C2452 C2448 1.415 1_655 S
C2452 C2453 1.437 1_655 S
C2452 C2456 1.413 . S
C2453 C2451 1.329 . S
C2453 C2452 1.437 1_455 S
C2453 H2475 0.929 1_455 S
N2454 C2448 1.369 1_655 S
N2454 C2455 1.338 . S
N2454 Gd2459 2.622 1_655 S
C2455 N2454 1.338 . S
C2455 C2457 1.378 . S
C2455 H2467 0.929 . S
C2456 C2452 1.413 . S
C2456 C2457 1.348 . S
C2456 H2472 0.931 . S
C2457 C2455 1.378 . S
C2457 C2456 1.348 . S
C2457 H2473 0.930 . S
Gd2458 N2478 2.622 . S
Gd2458 N2485 2.570 . S
Gd2458 O2492 2.353 1_565 S
Gd2458 O2493 2.468 . S
Gd2458 O2494 2.427 . S
Gd2458 O2496 2.388 1_565 S
Gd2458 O2497 2.386 1_565 S
Gd2458 O2501 2.307 1_565 S
Gd2458 C2511 2.805 . S
Gd2459 N2454 2.622 1_455 S
Gd2459 N2460 2.570 . S
Gd2459 O2491 2.386 . S
Gd2459 O2495 2.307 . S
Gd2459 O2498 2.353 . S
Gd2459 O2499 2.468 . S
Gd2459 O2500 2.427 1_455 S
Gd2459 O2502 2.388 1_455 S
Gd2459 C2523 2.805 . S
N2460 C2450 1.359 . S
N2460 Gd2459 2.570 . S
N2460 C2462 1.343 . S
C2461 C2449 1.422 . S
C2461 C2463 1.321 . S
C2461 H2469 0.931 . S
C2462 N2460 1.343 . S
C2462 C2463 1.390 . S
C2462 H2464 0.931 . S
C2463 C2461 1.321 . S
C2463 C2462 1.390 . S
C2463 H2465 0.930 . S
H2464 C2462 0.931 . S
H2465 C2463 0.930 . S
H2466 C2489 0.934 1_655 S
H2467 C2455 0.929 . S
H2468 C2490 0.930 . S
H2469 C2461 0.931 . S
H2470 C2451 0.930 . S
H2471 C2480 0.929 1_545 S
H2472 C2456 0.931 . S
H2473 C2457 0.930 . S
H2474 C2512 0.930 . S
H2475 C2453 0.929 1_655 S
H2476 C2481 0.931 . S
H2477 C2482 0.930 . S
N2478 Gd2458 2.622 . S
N2478 C2479 1.369 . S
N2478 C2480 1.338 . S
C2479 N2478 1.369 . S
C2479 C2483 1.415 . S
C2479 C2486 1.422 . S
C2480 H2471 0.929 1_565 S
C2480 N2478 1.338 . S
C2480 C2482 1.378 . S
C2481 H2476 0.931 . S
C2481 C2482 1.348 . S
C2481 C2483 1.413 . S
C2482 H2477 0.930 . S
C2482 C2480 1.378 . S
C2482 C2481 1.348 . S
C2483 C2479 1.415 . S
C2483 C2481 1.413 . S
C2483 C2513 1.437 . S
H2484 C2513 0.929 . S
N2485 Gd2458 2.570 . S
N2485 C2486 1.359 . S
N2485 C2489 1.339 . S
C2486 C2479 1.422 . S
C2486 N2485 1.359 . S
C2486 C2488 1.421 . S
C2487 C2488 1.422 1_655 S
C2487 C2490 1.321 . S
C2487 H2514 0.931 . S
C2488 C2486 1.421 . S
C2488 C2487 1.422 1_455 S
C2488 C2512 1.417 . S
C2489 H2466 0.934 1_455 S
C2489 N2485 1.339 . S
C2489 C2490 1.391 1_455 S
C2490 H2468 0.930 . S
C2490 C2487 1.321 . S
C2490 C2489 1.391 1_655 S
O2491 Gd2459 2.386 . S
O2491 C2503 1.265 . S
O2492 Gd2458 2.353 1_545 S
O2492 C2503 1.242 . S
O2493 Gd2458 2.468 . S
O2493 C2511 1.263 . S
O2494 Gd2458 2.427 . S
O2494 C2511 1.252 . S
O2495 Gd2459 2.307 . S
O2495 C2504 1.261 . S
O2496 Gd2458 2.388 1_545 S
O2496 C2504 1.252 . S
O2497 Gd2458 2.386 1_545 S
O2497 C2515 1.265 . S
O2498 Gd2459 2.353 . S
O2498 C2515 1.242 . S
O2499 Gd2459 2.468 . S
O2499 C2523 1.263 . S
O2500 Gd2459 2.427 1_655 S
O2500 C2523 1.252 1_655 S
O2501 Gd2458 2.307 1_545 S
O2501 C2516 1.261 1_455 S
O2502 Gd2459 2.388 1_655 S
O2502 C2516 1.252 . S
C2503 O2491 1.265 . S
C2503 O2492 1.242 . S
C2504 O2495 1.261 . S
C2504 O2496 1.252 . S
C2505 C2508 1.394 . S
C2505 C2510 1.370 . S
C2505 C2511 1.500 . S
C2506 C2509 1.383 . S
C2506 C2510 1.395 . S
C2507 C2508 1.396 . S
C2507 C2509 1.365 . S
C2507 H2524 0.929 . S
C2508 C2505 1.394 . S
C2508 C2507 1.396 . S
C2508 H2525 0.930 . S
C2509 C2506 1.383 . S
C2509 C2507 1.365 . S
C2509 H2526 0.931 . S
C2510 C2505 1.370 . S
C2510 C2506 1.395 . S
C2510 H2527 0.930 . S
C2511 Gd2458 2.805 . S
C2511 O2493 1.263 . S
C2511 O2494 1.252 . S
C2511 C2505 1.500 . S
C2512 H2474 0.930 . S
C2512 C2488 1.417 . S
C2512 C2513 1.329 . S
C2513 C2483 1.437 . S
C2513 H2484 0.929 . S
C2513 C2512 1.329 . S
H2514 C2487 0.931 . S
C2515 O2497 1.265 . S
C2515 O2498 1.242 . S
C2516 O2501 1.261 1_655 S
C2516 O2502 1.252 . S
C2517 C2520 1.394 1_455 S
C2517 C2522 1.370 . S
C2517 C2523 1.500 . S
C2518 C2521 1.383 1_455 S
C2518 C2522 1.395 . S
C2519 C2520 1.396 . S
C2519 C2521 1.365 . S
C2519 H2528 0.929 . S
C2520 C2517 1.394 1_655 S
C2520 C2519 1.396 . S
C2520 H2529 0.930 . S
C2521 C2518 1.383 1_655 S
C2521 C2519 1.365 . S
C2521 H2530 0.931 . S
C2522 C2517 1.370 . S
C2522 C2518 1.395 . S
C2522 H2531 0.930 . S
C2523 Gd2459 2.805 . S
C2523 O2499 1.263 . S
C2523 O2500 1.252 1_455 S
C2523 C2517 1.500 . S
H2524 C2507 0.929 . S
H2525 C2508 0.930 . S
H2526 C2509 0.931 . S
H2527 C2510 0.930 . S
H2528 C2519 0.929 . S
H2529 C2520 0.930 . S
H2530 C2521 0.931 . S
H2531 C2522 0.930 . S
C2532 C2534 1.422 . S
C2532 C2536 1.415 . S
C2532 N2538 1.369 . S
C2533 C2534 1.421 . S
C2533 C2535 1.417 . S
C2533 C2545 1.422 . S
C2534 C2532 1.422 . S
C2534 C2533 1.421 . S
C2534 N2544 1.359 . S
C2535 C2533 1.417 . S
C2535 C2537 1.329 . S
C2535 H2554 0.930 . S
C2536 C2532 1.415 . S
C2536 C2537 1.437 . S
C2536 C2540 1.413 . S
C2537 C2535 1.329 . S
C2537 C2536 1.437 . S
C2537 H2559 0.929 . S
N2538 C2532 1.369 . S
N2538 C2539 1.338 . S
N2538 Gd2543 2.622 . S
C2539 N2538 1.338 . S
C2539 C2541 1.378 . S
C2539 H2551 0.929 . S
C2540 C2536 1.413 . S
C2540 C2541 1.348 . S
C2540 H2556 0.931 . S
C2541 C2539 1.378 . S
C2541 C2540 1.348 . S
C2541 H2557 0.930 . S
Gd2542 N2562 2.622 . S
Gd2542 N2569 2.570 . S
Gd2542 O2576 2.353 . S
Gd2542 O2577 2.468 . S
Gd2542 O2578 2.427 . S
Gd2542 O2580 2.388 . S
Gd2542 O2581 2.386 . S
Gd2542 O2585 2.307 . S
Gd2542 C2595 2.805 . S
Gd2543 N2538 2.622 . S
Gd2543 N2544 2.570 . S
Gd2543 O2575 2.386 . S
Gd2543 O2579 2.307 . S
Gd2543 O2582 2.353 . S
Gd2543 O2583 2.468 . S
Gd2543 O2584 2.427 . S
Gd2543 O2586 2.388 . S
Gd2543 C2607 2.805 . S
N2544 C2534 1.359 . S
N2544 Gd2543 2.570 . S
N2544 C2546 1.343 . S
C2545 C2533 1.422 . S
C2545 C2547 1.321 . S
C2545 H2553 0.931 . S
C2546 N2544 1.343 . S
C2546 C2547 1.390 . S
C2546 H2548 0.931 . S
C2547 C2545 1.321 . S
C2547 C2546 1.390 . S
C2547 H2549 0.930 . S
H2548 C2546 0.931 . S
H2549 C2547 0.930 . S
H2550 C2573 0.931 . S
H2551 C2539 0.929 . S
H2552 C2574 0.930 . S
H2553 C2545 0.931 . S
H2554 C2535 0.930 . S
H2555 C2564 0.929 . S
H2556 C2540 0.931 . S
H2557 C2541 0.930 . S
H2558 C2596 0.930 . S
H2559 C2537 0.929 . S
H2560 C2565 0.931 . S
H2561 C2566 0.930 . S
N2562 Gd2542 2.622 . S
N2562 C2563 1.369 . S
N2562 C2564 1.338 . S
C2563 N2562 1.369 . S
C2563 C2567 1.415 . S
C2563 C2570 1.422 . S
C2564 H2555 0.929 . S
C2564 N2562 1.338 . S
C2564 C2566 1.378 . S
C2565 H2560 0.931 . S
C2565 C2566 1.348 . S
C2565 C2567 1.413 . S
C2566 H2561 0.930 . S
C2566 C2564 1.378 . S
C2566 C2565 1.348 . S
C2567 C2563 1.415 . S
C2567 C2565 1.413 . S
C2567 C2597 1.437 . S
H2568 C2597 0.929 . S
N2569 Gd2542 2.570 . S
N2569 C2570 1.359 . S
N2569 C2573 1.343 . S
C2570 C2563 1.422 . S
C2570 N2569 1.359 . S
C2570 C2572 1.421 . S
C2571 C2572 1.422 . S
C2571 C2574 1.321 . S
C2571 H2598 0.931 . S
C2572 C2570 1.421 . S
C2572 C2571 1.422 . S
C2572 C2596 1.417 . S
C2573 H2550 0.931 . S
C2573 N2569 1.343 . S
C2573 C2574 1.390 . S
C2574 H2552 0.930 . S
C2574 C2571 1.321 . S
C2574 C2573 1.390 . S
O2575 Gd2543 2.386 . S
O2575 C2587 1.265 . S
O2576 Gd2542 2.353 . S
O2576 C2587 1.242 . S
O2577 Gd2542 2.468 . S
O2577 C2595 1.263 . S
O2578 Gd2542 2.427 . S
O2578 C2595 1.252 . S
O2579 Gd2543 2.307 . S
O2579 C2588 1.261 . S
O2580 Gd2542 2.388 . S
O2580 C2588 1.252 . S
O2581 Gd2542 2.386 . S
O2581 C2599 1.265 . S
O2582 Gd2543 2.353 . S
O2582 C2599 1.242 . S
O2583 Gd2543 2.468 . S
O2583 C2607 1.263 . S
O2584 Gd2543 2.427 . S
O2584 C2607 1.252 . S
O2585 Gd2542 2.307 . S
O2585 C2600 1.261 . S
O2586 Gd2543 2.388 . S
O2586 C2600 1.252 . S
C2587 O2575 1.265 . S
C2587 O2576 1.242 . S
C2588 O2579 1.261 . S
C2588 O2580 1.252 . S
C2589 C2592 1.394 . S
C2589 C2594 1.370 . S
C2589 C2595 1.500 . S
C2590 C2593 1.383 . S
C2590 C2594 1.395 . S
C2591 C2592 1.396 . S
C2591 C2593 1.365 . S
C2591 H2608 0.929 . S
C2592 C2589 1.394 . S
C2592 C2591 1.396 . S
C2592 H2609 0.930 . S
C2593 C2590 1.383 . S
C2593 C2591 1.365 . S
C2593 H2610 0.931 . S
C2594 C2589 1.370 . S
C2594 C2590 1.395 . S
C2594 H2611 0.930 . S
C2595 Gd2542 2.805 . S
C2595 O2577 1.263 . S
C2595 O2578 1.252 . S
C2595 C2589 1.500 . S
C2596 H2558 0.930 . S
C2596 C2572 1.417 . S
C2596 C2597 1.329 . S
C2597 C2567 1.437 . S
C2597 H2568 0.929 . S
C2597 C2596 1.329 . S
H2598 C2571 0.931 . S
C2599 O2581 1.265 . S
C2599 O2582 1.242 . S
C2600 O2585 1.261 . S
C2600 O2586 1.252 . S
C2601 C2604 1.394 . S
C2601 C2606 1.370 . S
C2601 C2607 1.500 . S
C2602 C2605 1.383 . S
C2602 C2606 1.395 . S
C2603 C2604 1.396 . S
C2603 C2605 1.365 . S
C2603 H2612 0.929 . S
C2604 C2601 1.394 . S
C2604 C2603 1.396 . S
C2604 H2613 0.930 . S
C2605 C2602 1.383 . S
C2605 C2603 1.365 . S
C2605 H2614 0.931 . S
C2606 C2601 1.370 . S
C2606 C2602 1.395 . S
C2606 H2615 0.930 . S
C2607 Gd2543 2.805 . S
C2607 O2583 1.263 . S
C2607 O2584 1.252 . S
C2607 C2601 1.500 . S
H2608 C2591 0.929 . S
H2609 C2592 0.930 . S
H2610 C2593 0.931 . S
H2611 C2594 0.930 . S
H2612 C2603 0.929 . S
H2613 C2604 0.930 . S
H2614 C2605 0.931 . S
H2615 C2606 0.930 . S
C2616 C2618 1.422 1_565 S
C2616 C2620 1.415 . S
C2616 N2622 1.369 . S
C2617 C2618 1.421 . S
C2617 C2619 1.417 . S
C2617 C2629 1.422 . S
C2618 C2616 1.422 1_545 S
C2618 C2617 1.421 . S
C2618 N2628 1.359 . S
C2619 C2617 1.417 . S
C2619 C2621 1.329 1_545 S
C2619 H2638 0.930 . S
C2620 C2616 1.415 . S
C2620 C2621 1.437 . S
C2620 C2624 1.413 . S
C2621 C2619 1.329 1_565 S
C2621 C2620 1.437 . S
C2621 H2643 0.929 . S
N2622 C2616 1.369 . S
N2622 C2623 1.338 . S
N2622 Gd2627 2.622 1_565 S
C2623 N2622 1.338 . S
C2623 C2625 1.378 . S
C2623 H2635 0.929 . S
C2624 C2620 1.413 . S
C2624 C2625 1.348 . S
C2624 H2640 0.931 . S
C2625 C2623 1.378 . S
C2625 C2624 1.348 . S
C2625 H2641 0.930 . S
Gd2626 N2646 2.622 . S
Gd2626 N2653 2.570 . S
Gd2626 O2660 2.353 1_556 S
Gd2626 O2661 2.468 . S
Gd2626 O2662 2.427 . S
Gd2626 O2664 2.388 1_556 S
Gd2626 O2665 2.386 1_556 S
Gd2626 O2669 2.312 . S
Gd2626 C2679 2.805 . S
Gd2627 N2622 2.622 1_545 S
Gd2627 N2628 2.570 . S
Gd2627 O2659 2.386 . S
Gd2627 O2663 2.307 . S
Gd2627 O2666 2.353 . S
Gd2627 O2667 2.468 . S
Gd2627 O2668 2.427 1_545 S
Gd2627 O2670 2.388 1_545 S
Gd2627 C2691 2.803 1_545 S
N2628 C2618 1.359 . S
N2628 Gd2627 2.570 . S
N2628 C2630 1.343 . S
C2629 C2617 1.422 . S
C2629 C2631 1.321 . S
C2629 H2637 0.931 . S
C2630 N2628 1.343 . S
C2630 C2631 1.390 . S
C2630 H2632 0.931 . S
C2631 C2629 1.321 . S
C2631 C2630 1.390 . S
C2631 H2633 0.930 . S
H2632 C2630 0.931 . S
H2633 C2631 0.930 . S
H2634 C2657 0.931 1_565 S
H2635 C2623 0.929 . S
H2636 C2658 0.930 . S
H2637 C2629 0.931 . S
H2638 C2619 0.930 . S
H2639 C2648 0.929 1_554 S
H2640 C2624 0.931 . S
H2641 C2625 0.930 . S
H2642 C2680 0.930 . S
H2643 C2621 0.929 . S
H2644 C2649 0.931 . S
H2645 C2650 0.930 . S
N2646 Gd2626 2.622 . S
N2646 C2647 1.369 . S
N2646 C2648 1.338 . S
C2647 N2646 1.369 . S
C2647 C2651 1.415 . S
C2647 C2654 1.422 . S
C2648 H2639 0.929 1_556 S
C2648 N2646 1.338 . S
C2648 C2650 1.378 . S
C2649 H2644 0.931 . S
C2649 C2650 1.348 . S
C2649 C2651 1.413 . S
C2650 H2645 0.930 . S
C2650 C2648 1.378 . S
C2650 C2649 1.348 . S
C2651 C2647 1.415 . S
C2651 C2649 1.413 . S
C2651 C2681 1.437 . S
H2652 C2681 0.929 . S
N2653 Gd2626 2.570 . S
N2653 C2654 1.359 . S
N2653 C2657 1.343 . S
C2654 C2647 1.422 . S
C2654 N2653 1.359 . S
C2654 C2656 1.421 . S
C2655 C2656 1.422 . S
C2655 C2658 1.321 1_545 S
C2655 H2682 0.931 1_545 S
C2656 C2654 1.421 . S
C2656 C2655 1.422 . S
C2656 C2680 1.417 . S
C2657 H2634 0.931 1_545 S
C2657 N2653 1.343 . S
C2657 C2658 1.390 1_545 S
C2658 H2636 0.930 . S
C2658 C2655 1.321 1_565 S
C2658 C2657 1.390 1_565 S
O2659 Gd2627 2.386 . S
O2659 C2671 1.265 . S
O2660 Gd2626 2.353 1_554 S
O2660 C2671 1.242 . S
O2661 Gd2626 2.468 . S
O2661 C2679 1.263 . S
O2662 Gd2626 2.427 . S
O2662 C2679 1.252 . S
O2663 Gd2627 2.307 . S
O2663 C2672 1.261 . S
O2664 Gd2626 2.388 1_554 S
O2664 C2672 1.252 . S
O2665 Gd2626 2.386 1_554 S
O2665 C2683 1.265 . S
O2666 Gd2627 2.353 . S
O2666 C2683 1.242 . S
O2667 Gd2627 2.468 . S
O2667 C2691 1.255 1_545 S
O2668 Gd2627 2.427 1_565 S
O2668 C2691 1.259 . S
O2669 Gd2626 2.312 . S
O2669 C2684 1.252 1_546 S
O2670 Gd2627 2.388 1_565 S
O2670 C2684 1.252 . S
C2671 O2659 1.265 . S
C2671 O2660 1.242 . S
C2672 O2663 1.261 . S
C2672 O2664 1.252 . S
C2673 C2676 1.394 . S
C2673 C2678 1.370 . S
C2673 C2679 1.500 . S
C2674 C2677 1.383 . S
C2674 C2678 1.395 . S
C2675 C2676 1.396 . S
C2675 C2677 1.365 . S
C2675 H2692 0.929 . S
C2676 C2673 1.394 . S
C2676 C2675 1.396 . S
C2676 H2693 0.930 . S
C2677 C2674 1.383 . S
C2677 C2675 1.365 . S
C2677 H2694 0.931 . S
C2678 C2673 1.370 . S
C2678 C2674 1.395 . S
C2678 H2695 0.930 . S
C2679 Gd2626 2.805 . S
C2679 O2661 1.263 . S
C2679 O2662 1.252 . S
C2679 C2673 1.500 . S
C2680 H2642 0.930 . S
C2680 C2656 1.417 . S
C2680 C2681 1.329 . S
C2681 C2651 1.437 . S
C2681 H2652 0.929 . S
C2681 C2680 1.329 . S
H2682 C2655 0.931 1_565 S
C2683 O2665 1.265 . S
C2683 O2666 1.242 . S
C2684 O2669 1.252 1_564 S
C2684 O2670 1.252 . S
C2685 C2688 1.394 . S
C2685 C2690 1.370 1_565 S
C2685 C2691 1.502 . S
C2686 C2689 1.383 1_545 S
C2686 C2690 1.395 . S
C2687 C2688 1.396 . S
C2687 C2689 1.365 . S
C2687 H2696 0.929 . S
C2688 C2685 1.394 . S
C2688 C2687 1.396 . S
C2688 H2697 0.930 . S
C2689 C2686 1.383 1_565 S
C2689 C2687 1.365 . S
C2689 H2698 0.931 . S
C2690 C2685 1.370 1_545 S
C2690 C2686 1.395 . S
C2690 H2699 0.930 . S
C2691 Gd2627 2.803 1_565 S
C2691 O2667 1.255 1_565 S
C2691 O2668 1.259 . S
C2691 C2685 1.502 . S
H2692 C2675 0.929 . S
H2693 C2676 0.930 . S
H2694 C2677 0.931 . S
H2695 C2678 0.930 . S
H2696 C2687 0.929 . S
H2697 C2688 0.930 . S
H2698 C2689 0.931 . S
H2699 C2690 0.930 . S
C2700 C2702 1.422 . S
C2700 C2704 1.415 . S
C2700 N2706 1.369 . S
C2701 C2702 1.421 . S
C2701 C2703 1.417 . S
C2701 C2713 1.422 . S
C2702 C2700 1.422 . S
C2702 C2701 1.421 . S
C2702 N2712 1.359 . S
C2703 C2701 1.417 . S
C2703 C2705 1.329 . S
C2703 H2722 0.930 . S
C2704 C2700 1.415 . S
C2704 C2705 1.437 . S
C2704 C2708 1.413 . S
C2705 C2703 1.329 . S
C2705 C2704 1.437 . S
C2705 H2727 0.929 . S
N2706 C2700 1.369 . S
N2706 C2707 1.338 . S
N2706 Gd2711 2.622 . S
C2707 N2706 1.338 . S
C2707 C2709 1.378 . S
C2707 H2719 0.929 . S
C2708 C2704 1.413 . S
C2708 C2709 1.348 . S
C2708 H2724 0.931 . S
C2709 C2707 1.378 . S
C2709 C2708 1.348 . S
C2709 H2725 0.930 . S
Gd2710 N2730 2.622 . S
Gd2710 N2737 2.570 . S
Gd2710 O2744 2.353 . S
Gd2710 O2745 2.468 . S
Gd2710 O2746 2.427 . S
Gd2710 O2748 2.388 . S
Gd2710 O2749 2.386 . S
Gd2710 O2753 2.307 . S
Gd2710 C2763 2.805 . S
Gd2711 N2706 2.622 . S
Gd2711 N2712 2.570 . S
Gd2711 O2743 2.386 . S
Gd2711 O2747 2.307 . S
Gd2711 O2750 2.353 . S
Gd2711 O2751 2.468 . S
Gd2711 O2752 2.427 . S
Gd2711 O2754 2.388 . S
Gd2711 C2775 2.805 . S
N2712 C2702 1.359 . S
N2712 Gd2711 2.570 . S
N2712 C2714 1.343 . S
C2713 C2701 1.422 . S
C2713 C2715 1.321 . S
C2713 H2721 0.931 . S
C2714 N2712 1.343 . S
C2714 C2715 1.390 . S
C2714 H2716 0.931 . S
C2715 C2713 1.321 . S
C2715 C2714 1.390 . S
C2715 H2717 0.930 . S
H2716 C2714 0.931 . S
H2717 C2715 0.930 . S
H2718 C2741 0.931 . S
H2719 C2707 0.929 . S
H2720 C2742 0.930 . S
H2721 C2713 0.931 . S
H2722 C2703 0.930 . S
H2723 C2732 0.929 . S
H2724 C2708 0.931 . S
H2725 C2709 0.930 . S
H2726 C2764 0.930 . S
H2727 C2705 0.929 . S
H2728 C2733 0.931 . S
H2729 C2734 0.930 . S
N2730 Gd2710 2.622 . S
N2730 C2731 1.369 . S
N2730 C2732 1.338 . S
C2731 N2730 1.369 . S
C2731 C2735 1.415 . S
C2731 C2738 1.422 . S
C2732 H2723 0.929 . S
C2732 N2730 1.338 . S
C2732 C2734 1.378 . S
C2733 H2728 0.931 . S
C2733 C2734 1.348 . S
C2733 C2735 1.413 . S
C2734 H2729 0.930 . S
C2734 C2732 1.378 . S
C2734 C2733 1.348 . S
C2735 C2731 1.415 . S
C2735 C2733 1.413 . S
C2735 C2765 1.437 . S
H2736 C2765 0.929 . S
N2737 Gd2710 2.570 . S
N2737 C2738 1.359 . S
N2737 C2741 1.343 . S
C2738 C2731 1.422 . S
C2738 N2737 1.359 . S
C2738 C2740 1.421 . S
C2739 C2740 1.422 . S
C2739 C2742 1.321 . S
C2739 H2766 0.931 . S
C2740 C2738 1.421 . S
C2740 C2739 1.422 . S
C2740 C2764 1.417 . S
C2741 H2718 0.931 . S
C2741 N2737 1.343 . S
C2741 C2742 1.390 . S
C2742 H2720 0.930 . S
C2742 C2739 1.321 . S
C2742 C2741 1.390 . S
O2743 Gd2711 2.386 . S
O2743 C2755 1.265 . S
O2744 Gd2710 2.353 . S
O2744 C2755 1.242 . S
O2745 Gd2710 2.468 . S
O2745 C2763 1.263 . S
O2746 Gd2710 2.427 . S
O2746 C2763 1.252 . S
O2747 Gd2711 2.307 . S
O2747 C2756 1.261 . S
O2748 Gd2710 2.388 . S
O2748 C2756 1.252 . S
O2749 Gd2710 2.386 . S
O2749 C2767 1.265 . S
O2750 Gd2711 2.353 . S
O2750 C2767 1.242 . S
O2751 Gd2711 2.468 . S
O2751 C2775 1.263 . S
O2752 Gd2711 2.427 . S
O2752 C2775 1.252 . S
O2753 Gd2710 2.307 . S
O2753 C2768 1.261 . S
O2754 Gd2711 2.388 . S
O2754 C2768 1.252 . S
C2755 O2743 1.265 . S
C2755 O2744 1.242 . S
C2756 O2747 1.261 . S
C2756 O2748 1.252 . S
C2757 C2760 1.394 . S
C2757 C2762 1.370 . S
C2757 C2763 1.500 . S
C2758 C2761 1.383 . S
C2758 C2762 1.395 . S
C2759 C2760 1.396 . S
C2759 C2761 1.365 . S
C2759 H2776 0.929 . S
C2760 C2757 1.394 . S
C2760 C2759 1.396 . S
C2760 H2777 0.930 . S
C2761 C2758 1.383 . S
C2761 C2759 1.365 . S
C2761 H2778 0.931 . S
C2762 C2757 1.370 . S
C2762 C2758 1.395 . S
C2762 H2779 0.930 . S
C2763 Gd2710 2.805 . S
C2763 O2745 1.263 . S
C2763 O2746 1.252 . S
C2763 C2757 1.500 . S
C2764 H2726 0.930 . S
C2764 C2740 1.417 . S
C2764 C2765 1.329 . S
C2765 C2735 1.437 . S
C2765 H2736 0.929 . S
C2765 C2764 1.329 . S
H2766 C2739 0.931 . S
C2767 O2749 1.265 . S
C2767 O2750 1.242 . S
C2768 O2753 1.261 . S
C2768 O2754 1.252 . S
C2769 C2772 1.394 . S
C2769 C2774 1.370 . S
C2769 C2775 1.500 . S
C2770 C2773 1.383 . S
C2770 C2774 1.395 . S
C2771 C2772 1.396 . S
C2771 C2773 1.365 . S
C2771 H2780 0.929 . S
C2772 C2769 1.394 . S
C2772 C2771 1.396 . S
C2772 H2781 0.930 . S
C2773 C2770 1.383 . S
C2773 C2771 1.365 . S
C2773 H2782 0.931 . S
C2774 C2769 1.370 . S
C2774 C2770 1.395 . S
C2774 H2783 0.930 . S
C2775 Gd2711 2.805 . S
C2775 O2751 1.263 . S
C2775 O2752 1.252 . S
C2775 C2769 1.500 . S
H2776 C2759 0.929 . S
H2777 C2760 0.930 . S
H2778 C2761 0.931 . S
H2779 C2762 0.930 . S
H2780 C2771 0.929 . S
H2781 C2772 0.930 . S
H2782 C2773 0.931 . S
H2783 C2774 0.930 . S
C2784 C2786 1.422 . S
C2784 C2788 1.415 . S
C2784 N2790 1.369 . S
C2785 C2786 1.421 . S
C2785 C2787 1.417 . S
C2785 C2797 1.422 . S
C2786 C2784 1.422 . S
C2786 C2785 1.421 . S
C2786 N2796 1.359 . S
C2787 C2785 1.417 . S
C2787 C2789 1.329 . S
C2787 H2806 0.930 . S
C2788 C2784 1.415 . S
C2788 C2789 1.437 . S
C2788 C2792 1.413 . S
C2789 C2787 1.329 . S
C2789 C2788 1.437 . S
C2789 H2811 0.929 . S
N2790 C2784 1.369 . S
N2790 C2791 1.338 . S
N2790 Gd2795 2.622 . S
C2791 N2790 1.338 . S
C2791 C2793 1.378 . S
C2791 H2803 0.929 . S
C2792 C2788 1.413 . S
C2792 C2793 1.348 . S
C2792 H2808 0.931 . S
C2793 C2791 1.378 . S
C2793 C2792 1.348 . S
C2793 H2809 0.930 . S
Gd2794 N2814 2.622 1_554 S
Gd2794 N2821 2.570 1_554 S
Gd2794 O2828 2.353 . S
Gd2794 O2829 2.468 . S
Gd2794 O2830 2.427 . S
Gd2794 O2832 2.388 . S
Gd2794 O2833 2.386 1_554 S
Gd2794 O2837 2.307 . S
Gd2794 C2847 2.805 . S
Gd2795 N2790 2.622 . S
Gd2795 N2796 2.570 . S
Gd2795 O2827 2.386 . S
Gd2795 O2831 2.307 . S
Gd2795 O2834 2.353 1_554 S
Gd2795 O2835 2.468 . S
Gd2795 O2836 2.427 . S
Gd2795 O2838 2.388 . S
Gd2795 C2859 2.805 . S
N2796 C2786 1.359 . S
N2796 Gd2795 2.570 . S
N2796 C2798 1.343 . S
C2797 C2785 1.422 . S
C2797 C2799 1.321 . S
C2797 H2805 0.931 . S
C2798 N2796 1.343 . S
C2798 C2799 1.390 . S
C2798 H2800 0.931 . S
C2799 C2797 1.321 . S
C2799 C2798 1.390 . S
C2799 H2801 0.930 . S
H2800 C2798 0.931 . S
H2801 C2799 0.930 . S
H2802 C2825 0.931 1_554 S
H2803 C2791 0.929 . S
H2804 C2826 0.930 . S
H2805 C2797 0.931 . S
H2806 C2787 0.930 . S
H2807 C2816 0.929 1_554 S
H2808 C2792 0.931 . S
H2809 C2793 0.930 . S
H2810 C2848 0.930 . S
H2811 C2789 0.929 . S
H2812 C2817 0.931 . S
H2813 C2818 0.930 . S
N2814 Gd2794 2.622 1_556 S
N2814 C2815 1.369 . S
N2814 C2816 1.338 . S
C2815 N2814 1.369 . S
C2815 C2819 1.415 . S
C2815 C2822 1.422 . S
C2816 H2807 0.929 1_556 S
C2816 N2814 1.338 . S
C2816 C2818 1.378 . S
C2817 H2812 0.931 . S
C2817 C2818 1.348 . S
C2817 C2819 1.413 . S
C2818 H2813 0.930 . S
C2818 C2816 1.378 . S
C2818 C2817 1.348 . S
C2819 C2815 1.415 . S
C2819 C2817 1.413 . S
C2819 C2849 1.437 . S
H2820 C2849 0.929 . S
N2821 Gd2794 2.570 1_556 S
N2821 C2822 1.359 . S
N2821 C2825 1.343 . S
C2822 C2815 1.422 . S
C2822 N2821 1.359 . S
C2822 C2824 1.421 . S
C2823 C2824 1.422 . S
C2823 C2826 1.321 . S
C2823 H2850 0.931 . S
C2824 C2822 1.421 . S
C2824 C2823 1.422 . S
C2824 C2848 1.417 . S
C2825 H2802 0.931 1_556 S
C2825 N2821 1.343 . S
C2825 C2826 1.390 . S
C2826 H2804 0.930 . S
C2826 C2823 1.321 . S
C2826 C2825 1.390 . S
O2827 Gd2795 2.386 . S
O2827 C2839 1.265 . S
O2828 Gd2794 2.353 . S
O2828 C2839 1.242 . S
O2829 Gd2794 2.468 . S
O2829 C2847 1.263 . S
O2830 Gd2794 2.427 . S
O2830 C2847 1.252 . S
O2831 Gd2795 2.307 . S
O2831 C2840 1.261 . S
O2832 Gd2794 2.388 . S
O2832 C2840 1.252 . S
O2833 Gd2794 2.386 1_556 S
O2833 C2851 1.265 . S
O2834 Gd2795 2.353 1_556 S
O2834 C2851 1.242 . S
O2835 Gd2795 2.468 . S
O2835 C2859 1.263 . S
O2836 Gd2795 2.427 . S
O2836 C2859 1.252 . S
O2837 Gd2794 2.307 . S
O2837 C2852 1.261 . S
O2838 Gd2795 2.388 . S
O2838 C2852 1.252 . S
C2839 O2827 1.265 . S
C2839 O2828 1.242 . S
C2840 O2831 1.261 . S
C2840 O2832 1.252 . S
C2841 C2844 1.394 . S
C2841 C2846 1.370 . S
C2841 C2847 1.500 . S
C2842 C2845 1.383 . S
C2842 C2846 1.395 . S
C2843 C2844 1.396 . S
C2843 C2845 1.365 . S
C2843 H2860 0.929 . S
C2844 C2841 1.394 . S
C2844 C2843 1.396 . S
C2844 H2861 0.930 . S
C2845 C2842 1.383 . S
C2845 C2843 1.365 . S
C2845 H2862 0.931 . S
C2846 C2841 1.370 . S
C2846 C2842 1.395 . S
C2846 H2863 0.930 . S
C2847 Gd2794 2.805 . S
C2847 O2829 1.263 . S
C2847 O2830 1.252 . S
C2847 C2841 1.500 . S
C2848 H2810 0.930 . S
C2848 C2824 1.417 . S
C2848 C2849 1.329 . S
C2849 C2819 1.437 . S
C2849 H2820 0.929 . S
C2849 C2848 1.329 . S
H2850 C2823 0.931 . S
C2851 O2833 1.265 . S
C2851 O2834 1.242 . S
C2852 O2837 1.261 . S
C2852 O2838 1.252 . S
C2853 C2856 1.394 . S
C2853 C2858 1.370 . S
C2853 C2859 1.500 1_556 S
C2854 C2857 1.383 . S
C2854 C2858 1.395 . S
C2855 C2856 1.396 . S
C2855 C2857 1.365 . S
C2855 H2864 0.929 . S
C2856 C2853 1.394 . S
C2856 C2855 1.396 . S
C2856 H2865 0.930 . S
C2857 C2854 1.383 . S
C2857 C2855 1.365 . S
C2857 H2866 0.931 . S
C2858 C2853 1.370 . S
C2858 C2854 1.395 . S
C2858 H2867 0.930 . S
C2859 Gd2795 2.805 . S
C2859 O2835 1.263 . S
C2859 O2836 1.252 . S
C2859 C2853 1.500 1_554 S
H2860 C2843 0.929 . S
H2861 C2844 0.930 . S
H2862 C2845 0.931 . S
H2863 C2846 0.930 . S
H2864 C2855 0.929 . S
H2865 C2856 0.930 . S
H2866 C2857 0.931 . S
H2867 C2858 0.930 . S
C2868 C2870 1.422 . S
C2868 C2872 1.415 . S
C2868 N2874 1.369 . S
C2869 C2870 1.421 . S
C2869 C2871 1.417 . S
C2869 C2881 1.422 . S
C2870 C2868 1.422 . S
C2870 C2869 1.421 . S
C2870 N2880 1.359 . S
C2871 C2869 1.417 . S
C2871 C2873 1.329 . S
C2871 H2890 0.930 . S
C2872 C2868 1.415 . S
C2872 C2873 1.437 . S
C2872 C2876 1.413 . S
C2873 C2871 1.329 . S
C2873 C2872 1.437 . S
C2873 H2895 0.929 . S
N2874 C2868 1.369 . S
N2874 C2875 1.338 . S
N2874 Gd2879 2.622 . S
C2875 N2874 1.338 . S
C2875 C2877 1.378 . S
C2875 H2887 0.929 . S
C2876 C2872 1.413 . S
C2876 C2877 1.348 . S
C2876 H2892 0.931 . S
C2877 C2875 1.378 . S
C2877 C2876 1.348 . S
C2877 H2893 0.930 . S
Gd2878 N2898 2.622 . S
Gd2878 N2905 2.570 . S
Gd2878 O2912 2.353 . S
Gd2878 O2913 2.468 . S
Gd2878 O2914 2.427 . S
Gd2878 O2916 2.388 . S
Gd2878 O2917 2.386 . S
Gd2878 O2921 2.307 . S
Gd2878 C2931 2.805 . S
Gd2879 N2874 2.622 . S
Gd2879 N2880 2.570 . S
Gd2879 O2911 2.386 . S
Gd2879 O2915 2.307 . S
Gd2879 O2918 2.353 . S
Gd2879 O2919 2.468 . S
Gd2879 O2920 2.427 . S
Gd2879 O2922 2.388 . S
Gd2879 C2943 2.805 . S
N2880 C2870 1.359 . S
N2880 Gd2879 2.570 . S
N2880 C2882 1.343 . S
C2881 C2869 1.422 . S
C2881 C2883 1.321 . S
C2881 H2889 0.931 . S
C2882 N2880 1.343 . S
C2882 C2883 1.390 . S
C2882 H2884 0.931 . S
C2883 C2881 1.321 . S
C2883 C2882 1.390 . S
C2883 H2885 0.930 . S
H2884 C2882 0.931 . S
H2885 C2883 0.930 . S
H2886 C2909 0.931 . S
H2887 C2875 0.929 . S
H2888 C2910 0.930 . S
H2889 C2881 0.931 . S
H2890 C2871 0.930 . S
H2891 C2900 0.929 . S
H2892 C2876 0.931 . S
H2893 C2877 0.930 . S
H2894 C2932 0.930 . S
H2895 C2873 0.929 . S
H2896 C2901 0.931 . S
H2897 C2902 0.930 . S
N2898 Gd2878 2.622 . S
N2898 C2899 1.369 . S
N2898 C2900 1.338 . S
C2899 N2898 1.369 . S
C2899 C2903 1.415 . S
C2899 C2906 1.422 . S
C2900 H2891 0.929 . S
C2900 N2898 1.338 . S
C2900 C2902 1.378 . S
C2901 H2896 0.931 . S
C2901 C2902 1.348 . S
C2901 C2903 1.413 . S
C2902 H2897 0.930 . S
C2902 C2900 1.378 . S
C2902 C2901 1.348 . S
C2903 C2899 1.415 . S
C2903 C2901 1.413 . S
C2903 C2933 1.437 . S
H2904 C2933 0.929 . S
N2905 Gd2878 2.570 . S
N2905 C2906 1.359 . S
N2905 C2909 1.343 . S
C2906 C2899 1.422 . S
C2906 N2905 1.359 . S
C2906 C2908 1.421 . S
C2907 C2908 1.422 . S
C2907 C2910 1.321 . S
C2907 H2934 0.931 . S
C2908 C2906 1.421 . S
C2908 C2907 1.422 . S
C2908 C2932 1.417 . S
C2909 H2886 0.931 . S
C2909 N2905 1.343 . S
C2909 C2910 1.390 . S
C2910 H2888 0.930 . S
C2910 C2907 1.321 . S
C2910 C2909 1.390 . S
O2911 Gd2879 2.386 . S
O2911 C2923 1.265 . S
O2912 Gd2878 2.353 . S
O2912 C2923 1.242 . S
O2913 Gd2878 2.468 . S
O2913 C2931 1.263 . S
O2914 Gd2878 2.427 . S
O2914 C2931 1.252 . S
O2915 Gd2879 2.307 . S
O2915 C2924 1.261 . S
O2916 Gd2878 2.388 . S
O2916 C2924 1.252 . S
O2917 Gd2878 2.386 . S
O2917 C2935 1.265 . S
O2918 Gd2879 2.353 . S
O2918 C2935 1.242 . S
O2919 Gd2879 2.468 . S
O2919 C2943 1.263 . S
O2920 Gd2879 2.427 . S
O2920 C2943 1.252 . S
O2921 Gd2878 2.307 . S
O2921 C2936 1.261 . S
O2922 Gd2879 2.388 . S
O2922 C2936 1.252 . S
C2923 O2911 1.265 . S
C2923 O2912 1.242 . S
C2924 O2915 1.261 . S
C2924 O2916 1.252 . S
C2925 C2928 1.394 . S
C2925 C2930 1.370 . S
C2925 C2931 1.500 . S
C2926 C2929 1.383 . S
C2926 C2930 1.395 . S
C2927 C2928 1.396 . S
C2927 C2929 1.365 . S
C2927 H2944 0.929 . S
C2928 C2925 1.394 . S
C2928 C2927 1.396 . S
C2928 H2945 0.930 . S
C2929 C2926 1.383 . S
C2929 C2927 1.365 . S
C2929 H2946 0.931 . S
C2930 C2925 1.370 . S
C2930 C2926 1.395 . S
C2930 H2947 0.930 . S
C2931 Gd2878 2.805 . S
C2931 O2913 1.263 . S
C2931 O2914 1.252 . S
C2931 C2925 1.500 . S
C2932 H2894 0.930 . S
C2932 C2908 1.417 . S
C2932 C2933 1.329 . S
C2933 C2903 1.437 . S
C2933 H2904 0.929 . S
C2933 C2932 1.329 . S
H2934 C2907 0.931 . S
C2935 O2917 1.265 . S
C2935 O2918 1.242 . S
C2936 O2921 1.261 . S
C2936 O2922 1.252 . S
C2937 C2940 1.394 . S
C2937 C2942 1.370 . S
C2937 C2943 1.500 . S
C2938 C2941 1.383 . S
C2938 C2942 1.395 . S
C2939 C2940 1.396 . S
C2939 C2941 1.365 . S
C2939 H2948 0.929 . S
C2940 C2937 1.394 . S
C2940 C2939 1.396 . S
C2940 H2949 0.930 . S
C2941 C2938 1.383 . S
C2941 C2939 1.365 . S
C2941 H2950 0.931 . S
C2942 C2937 1.370 . S
C2942 C2938 1.395 . S
C2942 H2951 0.930 . S
C2943 Gd2879 2.805 . S
C2943 O2919 1.263 . S
C2943 O2920 1.252 . S
C2943 C2937 1.500 . S
H2944 C2927 0.929 . S
H2945 C2928 0.930 . S
H2946 C2929 0.931 . S
H2947 C2930 0.930 . S
H2948 C2939 0.929 . S
H2949 C2940 0.930 . S
H2950 C2941 0.931 . S
H2951 C2942 0.930 . S
C2952 C2954 1.422 . S
C2952 C2956 1.415 . S
C2952 N2958 1.369 . S
C2953 C2954 1.421 . S
C2953 C2955 1.417 . S
C2953 C2965 1.422 . S
C2954 C2952 1.422 . S
C2954 C2953 1.421 . S
C2954 N2964 1.359 . S
C2955 C2953 1.417 . S
C2955 C2957 1.329 . S
C2955 H2974 0.930 . S
C2956 C2952 1.415 . S
C2956 C2957 1.437 . S
C2956 C2960 1.413 . S
C2957 C2955 1.329 . S
C2957 C2956 1.437 . S
C2957 H2979 0.929 . S
N2958 C2952 1.369 . S
N2958 C2959 1.338 . S
N2958 Gd2963 2.622 . S
C2959 N2958 1.338 . S
C2959 C2961 1.378 . S
C2959 H2971 0.929 . S
C2960 C2956 1.413 . S
C2960 C2961 1.348 . S
C2960 H2976 0.931 . S
C2961 C2959 1.378 . S
C2961 C2960 1.348 . S
C2961 H2977 0.930 . S
Gd2962 N2982 2.622 1_455 S
Gd2962 N2989 2.570 1_455 S
Gd2962 O2996 2.353 . S
Gd2962 O2997 2.468 . S
Gd2962 O2998 2.427 . S
Gd2962 O3000 2.388 . S
Gd2962 O3001 2.386 1_455 S
Gd2962 O3005 2.307 . S
Gd2962 C3015 2.805 . S
Gd2963 N2958 2.622 . S
Gd2963 N2964 2.570 . S
Gd2963 O2995 2.386 . S
Gd2963 O2999 2.307 . S
Gd2963 O3002 2.353 1_455 S
Gd2963 O3003 2.468 . S
Gd2963 O3004 2.427 . S
Gd2963 O3006 2.388 . S
Gd2963 C3027 2.805 . S
N2964 C2954 1.359 . S
N2964 Gd2963 2.570 . S
N2964 C2966 1.343 . S
C2965 C2953 1.422 . S
C2965 C2967 1.321 . S
C2965 H2973 0.931 . S
C2966 N2964 1.343 . S
C2966 C2967 1.390 . S
C2966 H2968 0.931 . S
C2967 C2965 1.321 . S
C2967 C2966 1.390 . S
C2967 H2969 0.930 . S
H2968 C2966 0.931 . S
H2969 C2967 0.930 . S
H2970 C2993 0.931 1_455 S
H2971 C2959 0.929 . S
H2972 C2994 0.930 . S
H2973 C2965 0.931 . S
H2974 C2955 0.930 . S
H2975 C2984 0.909 1_455 S
H2976 C2960 0.931 . S
H2977 C2961 0.930 . S
H2978 C3016 0.930 . S
H2979 C2957 0.929 . S
H2980 C2985 0.931 . S
H2981 C2986 0.930 . S
N2982 Gd2962 2.622 1_655 S
N2982 C2983 1.369 . S
N2982 C2984 1.333 . S
C2983 N2982 1.369 . S
C2983 C2987 1.415 . S
C2983 C2990 1.422 . S
C2984 H2975 0.909 1_655 S
C2984 N2982 1.333 . S
C2984 C2986 1.403 . S
C2985 H2980 0.931 . S
C2985 C2986 1.348 . S
C2985 C2987 1.413 . S
C2986 H2981 0.930 . S
C2986 C2984 1.403 . S
C2986 C2985 1.348 . S
C2987 C2983 1.415 . S
C2987 C2985 1.413 . S
C2987 C3017 1.437 . S
H2988 C3017 0.929 . S
N2989 Gd2962 2.570 1_655 S
N2989 C2990 1.359 . S
N2989 C2993 1.343 . S
C2990 C2983 1.422 . S
C2990 N2989 1.359 . S
C2990 C2992 1.421 . S
C2991 C2992 1.422 . S
C2991 C2994 1.321 . S
C2991 H3018 0.931 . S
C2992 C2990 1.421 . S
C2992 C2991 1.422 . S
C2992 C3016 1.417 . S
C2993 H2970 0.931 1_655 S
C2993 N2989 1.343 . S
C2993 C2994 1.390 . S
C2994 H2972 0.930 . S
C2994 C2991 1.321 . S
C2994 C2993 1.390 . S
O2995 Gd2963 2.386 . S
O2995 C3007 1.265 . S
O2996 Gd2962 2.353 . S
O2996 C3007 1.242 . S
O2997 Gd2962 2.468 . S
O2997 C3015 1.263 . S
O2998 Gd2962 2.427 . S
O2998 C3015 1.252 . S
O2999 Gd2963 2.307 . S
O2999 C3008 1.261 . S
O3000 Gd2962 2.388 . S
O3000 C3008 1.252 . S
O3001 Gd2962 2.386 1_655 S
O3001 C3019 1.265 . S
O3002 Gd2963 2.353 1_655 S
O3002 C3019 1.242 . S
O3003 Gd2963 2.468 . S
O3003 C3027 1.263 . S
O3004 Gd2963 2.427 . S
O3004 C3027 1.252 . S
O3005 Gd2962 2.307 . S
O3005 C3020 1.261 . S
O3006 Gd2963 2.388 . S
O3006 C3020 1.252 . S
C3007 O2995 1.265 . S
C3007 O2996 1.242 . S
C3008 O2999 1.261 . S
C3008 O3000 1.252 . S
C3009 C3012 1.394 . S
C3009 C3014 1.370 . S
C3009 C3015 1.500 . S
C3010 C3013 1.383 . S
C3010 C3014 1.395 . S
C3011 C3012 1.396 . S
C3011 C3013 1.365 . S
C3011 H3028 0.929 . S
C3012 C3009 1.394 . S
C3012 C3011 1.396 . S
C3012 H3029 0.930 . S
C3013 C3010 1.383 . S
C3013 C3011 1.365 . S
C3013 H3030 0.931 . S
C3014 C3009 1.370 . S
C3014 C3010 1.395 . S
C3014 H3031 0.930 . S
C3015 Gd2962 2.805 . S
C3015 O2997 1.263 . S
C3015 O2998 1.252 . S
C3015 C3009 1.500 . S
C3016 H2978 0.930 . S
C3016 C2992 1.417 . S
C3016 C3017 1.329 . S
C3017 C2987 1.437 . S
C3017 H2988 0.929 . S
C3017 C3016 1.329 . S
H3018 C2991 0.931 . S
C3019 O3001 1.265 . S
C3019 O3002 1.242 . S
C3020 O3005 1.261 . S
C3020 O3006 1.252 . S
C3021 C3024 1.394 . S
C3021 C3026 1.370 . S
C3021 C3027 1.500 1_655 S
C3022 C3025 1.383 . S
C3022 C3026 1.395 . S
C3023 C3024 1.396 . S
C3023 C3025 1.365 . S
C3023 H3032 0.929 . S
C3024 C3021 1.394 . S
C3024 C3023 1.396 . S
C3024 H3033 0.930 . S
C3025 C3022 1.383 . S
C3025 C3023 1.365 . S
C3025 H3034 0.931 . S
C3026 C3021 1.370 . S
C3026 C3022 1.395 . S
C3026 H3035 0.930 . S
C3027 Gd2963 2.805 . S
C3027 O3003 1.263 . S
C3027 O3004 1.252 . S
C3027 C3021 1.500 1_455 S
H3028 C3011 0.929 . S
H3029 C3012 0.930 . S
H3030 C3013 0.931 . S
H3031 C3014 0.930 . S
H3032 C3023 0.929 . S
H3033 C3024 0.930 . S
H3034 C3025 0.931 . S
H3035 C3026 0.930 . S
C3036 C3038 1.422 . S
C3036 C3040 1.415 . S
C3036 N3042 1.369 . S
C3037 C3038 1.421 . S
C3037 C3039 1.417 . S
C3037 C3049 1.422 . S
C3038 C3036 1.422 . S
C3038 C3037 1.421 . S
C3038 N3048 1.359 . S
C3039 C3037 1.417 . S
C3039 C3041 1.329 . S
C3039 H3058 0.930 . S
C3040 C3036 1.415 . S
C3040 C3041 1.437 . S
C3040 C3044 1.413 . S
C3041 C3039 1.329 . S
C3041 C3040 1.437 . S
C3041 H3063 0.929 . S
N3042 C3036 1.369 . S
N3042 C3043 1.338 . S
N3042 Gd3047 2.622 . S
C3043 N3042 1.338 . S
C3043 C3045 1.378 . S
C3043 H3055 0.929 . S
C3044 C3040 1.413 . S
C3044 C3045 1.348 . S
C3044 H3060 0.931 . S
C3045 C3043 1.378 . S
C3045 C3044 1.348 . S
C3045 H3061 0.930 . S
Gd3046 N3066 2.622 . S
Gd3046 N3073 2.570 . S
Gd3046 O3080 2.353 . S
Gd3046 O3081 2.468 . S
Gd3046 O3082 2.427 . S
Gd3046 O3084 2.388 . S
Gd3046 O3085 2.386 . S
Gd3046 O3089 2.307 . S
Gd3046 C3099 2.805 . S
Gd3047 N3042 2.622 . S
Gd3047 N3048 2.570 . S
Gd3047 O3079 2.386 . S
Gd3047 O3083 2.307 . S
Gd3047 O3086 2.353 . S
Gd3047 O3087 2.468 . S
Gd3047 O3088 2.427 . S
Gd3047 O3090 2.388 . S
Gd3047 C3111 2.805 . S
N3048 C3038 1.359 . S
N3048 Gd3047 2.570 . S
N3048 C3050 1.343 . S
C3049 C3037 1.422 . S
C3049 C3051 1.321 . S
C3049 H3057 0.931 . S
C3050 N3048 1.343 . S
C3050 C3051 1.390 . S
C3050 H3052 0.931 . S
C3051 C3049 1.321 . S
C3051 C3050 1.390 . S
C3051 H3053 0.930 . S
H3052 C3050 0.931 . S
H3053 C3051 0.930 . S
H3054 C3077 0.931 . S
H3055 C3043 0.929 . S
H3056 C3078 0.930 . S
H3057 C3049 0.931 . S
H3058 C3039 0.930 . S
H3059 C3068 0.929 . S
H3060 C3044 0.931 . S
H3061 C3045 0.930 . S
H3062 C3100 0.930 . S
H3063 C3041 0.929 . S
H3064 C3069 0.931 . S
H3065 C3070 0.930 . S
N3066 Gd3046 2.622 . S
N3066 C3067 1.369 . S
N3066 C3068 1.338 . S
C3067 N3066 1.369 . S
C3067 C3071 1.415 . S
C3067 C3074 1.422 . S
C3068 H3059 0.929 . S
C3068 N3066 1.338 . S
C3068 C3070 1.378 . S
C3069 H3064 0.931 . S
C3069 C3070 1.348 . S
C3069 C3071 1.413 . S
C3070 H3065 0.930 . S
C3070 C3068 1.378 . S
C3070 C3069 1.348 . S
C3071 C3067 1.415 . S
C3071 C3069 1.413 . S
C3071 C3101 1.437 . S
H3072 C3101 0.929 . S
N3073 Gd3046 2.570 . S
N3073 C3074 1.359 . S
N3073 C3077 1.343 . S
C3074 C3067 1.422 . S
C3074 N3073 1.359 . S
C3074 C3076 1.421 . S
C3075 C3076 1.422 . S
C3075 C3078 1.321 . S
C3075 H3102 0.931 . S
C3076 C3074 1.421 . S
C3076 C3075 1.422 . S
C3076 C3100 1.417 . S
C3077 H3054 0.931 . S
C3077 N3073 1.343 . S
C3077 C3078 1.390 . S
C3078 H3056 0.930 . S
C3078 C3075 1.321 . S
C3078 C3077 1.390 . S
O3079 Gd3047 2.386 . S
O3079 C3091 1.265 . S
O3080 Gd3046 2.353 . S
O3080 C3091 1.242 . S
O3081 Gd3046 2.468 . S
O3081 C3099 1.263 . S
O3082 Gd3046 2.427 . S
O3082 C3099 1.252 . S
O3083 Gd3047 2.307 . S
O3083 C3092 1.261 . S
O3084 Gd3046 2.388 . S
O3084 C3092 1.252 . S
O3085 Gd3046 2.386 . S
O3085 C3103 1.265 . S
O3086 Gd3047 2.353 . S
O3086 C3103 1.242 . S
O3087 Gd3047 2.468 . S
O3087 C3111 1.263 . S
O3088 Gd3047 2.427 . S
O3088 C3111 1.252 . S
O3089 Gd3046 2.307 . S
O3089 C3104 1.261 . S
O3090 Gd3047 2.388 . S
O3090 C3104 1.252 . S
C3091 O3079 1.265 . S
C3091 O3080 1.242 . S
C3092 O3083 1.261 . S
C3092 O3084 1.252 . S
C3093 C3096 1.394 . S
C3093 C3098 1.370 . S
C3093 C3099 1.500 . S
C3094 C3097 1.383 . S
C3094 C3098 1.395 . S
C3095 C3096 1.396 . S
C3095 C3097 1.365 . S
C3095 H3112 0.929 . S
C3096 C3093 1.394 . S
C3096 C3095 1.396 . S
C3096 H3113 0.930 . S
C3097 C3094 1.383 . S
C3097 C3095 1.365 . S
C3097 H3114 0.931 . S
C3098 C3093 1.370 . S
C3098 C3094 1.395 . S
C3098 H3115 0.930 . S
C3099 Gd3046 2.805 . S
C3099 O3081 1.263 . S
C3099 O3082 1.252 . S
C3099 C3093 1.500 . S
C3100 H3062 0.930 . S
C3100 C3076 1.417 . S
C3100 C3101 1.329 . S
C3101 C3071 1.437 . S
C3101 H3072 0.929 . S
C3101 C3100 1.329 . S
H3102 C3075 0.931 . S
C3103 O3085 1.265 . S
C3103 O3086 1.242 . S
C3104 O3089 1.261 . S
C3104 O3090 1.252 . S
C3105 C3108 1.394 . S
C3105 C3110 1.370 . S
C3105 C3111 1.500 . S
C3106 C3109 1.383 . S
C3106 C3110 1.395 . S
C3107 C3108 1.396 . S
C3107 C3109 1.365 . S
C3107 H3116 0.929 . S
C3108 C3105 1.394 . S
C3108 C3107 1.396 . S
C3108 H3117 0.930 . S
C3109 C3106 1.383 . S
C3109 C3107 1.365 . S
C3109 H3118 0.931 . S
C3110 C3105 1.370 . S
C3110 C3106 1.395 . S
C3110 H3119 0.930 . S
C3111 Gd3047 2.805 . S
C3111 O3087 1.263 . S
C3111 O3088 1.252 . S
C3111 C3105 1.500 . S
H3112 C3095 0.929 . S
H3113 C3096 0.930 . S
H3114 C3097 0.931 . S
H3115 C3098 0.930 . S
H3116 C3107 0.929 . S
H3117 C3108 0.930 . S
H3118 C3109 0.931 . S
H3119 C3110 0.930 . S
C3120 C3122 1.422 . S
C3120 C3124 1.415 . S
C3120 N3126 1.369 . S
C3121 C3122 1.421 . S
C3121 C3123 1.417 . S
C3121 C3133 1.422 . S
C3122 C3120 1.422 . S
C3122 C3121 1.421 . S
C3122 N3132 1.359 . S
C3123 C3121 1.417 . S
C3123 C3125 1.329 . S
C3123 H3142 0.930 . S
C3124 C3120 1.415 . S
C3124 C3125 1.437 . S
C3124 C3128 1.413 . S
C3125 C3123 1.329 . S
C3125 C3124 1.437 . S
C3125 H3147 0.929 . S
N3126 C3120 1.369 . S
N3126 C3127 1.338 . S
N3126 Gd3131 2.622 . S
C3127 N3126 1.338 . S
C3127 C3129 1.378 . S
C3127 H3139 0.929 . S
C3128 C3124 1.413 . S
C3128 C3129 1.348 . S
C3128 H3144 0.931 . S
C3129 C3127 1.378 . S
C3129 C3128 1.348 . S
C3129 H3145 0.930 . S
Gd3130 N3150 2.622 . S
Gd3130 N3157 2.570 . S
Gd3130 O3164 2.353 . S
Gd3130 O3165 2.468 . S
Gd3130 O3166 2.427 . S
Gd3130 O3168 2.388 . S
Gd3130 O3169 2.386 . S
Gd3130 O3173 2.307 . S
Gd3130 C3183 2.805 . S
Gd3131 N3126 2.622 . S
Gd3131 N3132 2.570 . S
Gd3131 O3163 2.386 . S
Gd3131 O3167 2.307 . S
Gd3131 O3170 2.353 . S
Gd3131 O3171 2.468 . S
Gd3131 O3172 2.427 . S
Gd3131 O3174 2.388 . S
Gd3131 C3195 2.805 . S
N3132 C3122 1.359 . S
N3132 Gd3131 2.570 . S
N3132 C3134 1.343 . S
C3133 C3121 1.422 . S
C3133 C3135 1.321 . S
C3133 H3141 0.931 . S
C3134 N3132 1.343 . S
C3134 C3135 1.390 . S
C3134 H3136 0.931 . S
C3135 C3133 1.321 . S
C3135 C3134 1.390 . S
C3135 H3137 0.930 . S
H3136 C3134 0.931 . S
H3137 C3135 0.930 . S
H3138 C3161 0.931 . S
H3139 C3127 0.929 . S
H3140 C3162 0.930 . S
H3141 C3133 0.931 . S
H3142 C3123 0.930 . S
H3143 C3152 0.929 . S
H3144 C3128 0.931 . S
H3145 C3129 0.930 . S
H3146 C3184 0.930 . S
H3147 C3125 0.929 . S
H3148 C3153 0.931 . S
H3149 C3154 0.930 . S
N3150 Gd3130 2.622 . S
N3150 C3151 1.369 . S
N3150 C3152 1.338 . S
C3151 N3150 1.369 . S
C3151 C3155 1.415 . S
C3151 C3158 1.422 . S
C3152 H3143 0.929 . S
C3152 N3150 1.338 . S
C3152 C3154 1.378 . S
C3153 H3148 0.931 . S
C3153 C3154 1.348 . S
C3153 C3155 1.413 . S
C3154 H3149 0.930 . S
C3154 C3152 1.378 . S
C3154 C3153 1.348 . S
C3155 C3151 1.415 . S
C3155 C3153 1.413 . S
C3155 C3185 1.437 . S
H3156 C3185 0.929 . S
N3157 Gd3130 2.570 . S
N3157 C3158 1.359 . S
N3157 C3161 1.343 . S
C3158 C3151 1.422 . S
C3158 N3157 1.359 . S
C3158 C3160 1.421 . S
C3159 C3160 1.422 . S
C3159 C3162 1.321 . S
C3159 H3186 0.931 . S
C3160 C3158 1.421 . S
C3160 C3159 1.422 . S
C3160 C3184 1.417 . S
C3161 H3138 0.931 . S
C3161 N3157 1.343 . S
C3161 C3162 1.390 . S
C3162 H3140 0.930 . S
C3162 C3159 1.321 . S
C3162 C3161 1.390 . S
O3163 Gd3131 2.386 . S
O3163 C3175 1.265 . S
O3164 Gd3130 2.353 . S
O3164 C3175 1.242 . S
O3165 Gd3130 2.468 . S
O3165 C3183 1.263 . S
O3166 Gd3130 2.427 . S
O3166 C3183 1.252 . S
O3167 Gd3131 2.307 . S
O3167 C3176 1.261 . S
O3168 Gd3130 2.388 . S
O3168 C3176 1.252 . S
O3169 Gd3130 2.386 . S
O3169 C3187 1.265 . S
O3170 Gd3131 2.353 . S
O3170 C3187 1.242 . S
O3171 Gd3131 2.468 . S
O3171 C3195 1.263 . S
O3172 Gd3131 2.427 . S
O3172 C3195 1.252 . S
O3173 Gd3130 2.307 . S
O3173 C3188 1.261 . S
O3174 Gd3131 2.388 . S
O3174 C3188 1.252 . S
C3175 O3163 1.265 . S
C3175 O3164 1.242 . S
C3176 O3167 1.261 . S
C3176 O3168 1.252 . S
C3177 C3180 1.394 . S
C3177 C3182 1.370 . S
C3177 C3183 1.500 . S
C3178 C3181 1.383 . S
C3178 C3182 1.395 . S
C3179 C3180 1.396 . S
C3179 C3181 1.365 . S
C3179 H3196 0.929 . S
C3180 C3177 1.394 . S
C3180 C3179 1.396 . S
C3180 H3197 0.930 . S
C3181 C3178 1.383 . S
C3181 C3179 1.365 . S
C3181 H3198 0.931 . S
C3182 C3177 1.370 . S
C3182 C3178 1.395 . S
C3182 H3199 0.930 . S
C3183 Gd3130 2.805 . S
C3183 O3165 1.263 . S
C3183 O3166 1.252 . S
C3183 C3177 1.500 . S
C3184 H3146 0.930 . S
C3184 C3160 1.417 . S
C3184 C3185 1.329 . S
C3185 C3155 1.437 . S
C3185 H3156 0.929 . S
C3185 C3184 1.329 . S
H3186 C3159 0.931 . S
C3187 O3169 1.265 . S
C3187 O3170 1.242 . S
C3188 O3173 1.261 . S
C3188 O3174 1.252 . S
C3189 C3192 1.394 . S
C3189 C3194 1.370 . S
C3189 C3195 1.500 . S
C3190 C3193 1.383 . S
C3190 C3194 1.395 . S
C3191 C3192 1.396 . S
C3191 C3193 1.365 . S
C3191 H3200 0.929 . S
C3192 C3189 1.394 . S
C3192 C3191 1.396 . S
C3192 H3201 0.930 . S
C3193 C3190 1.383 . S
C3193 C3191 1.365 . S
C3193 H3202 0.931 . S
C3194 C3189 1.370 . S
C3194 C3190 1.395 . S
C3194 H3203 0.930 . S
C3195 Gd3131 2.805 . S
C3195 O3171 1.263 . S
C3195 O3172 1.252 . S
C3195 C3189 1.500 . S
H3196 C3179 0.929 . S
H3197 C3180 0.930 . S
H3198 C3181 0.931 . S
H3199 C3182 0.930 . S
H3200 C3191 0.929 . S
H3201 C3192 0.930 . S
H3202 C3193 0.931 . S
H3203 C3194 0.930 . S
C3204 C3206 1.422 . S
C3204 C3208 1.415 . S
C3204 N3210 1.369 . S
C3205 C3206 1.421 . S
C3205 C3207 1.417 . S
C3205 C3217 1.422 . S
C3206 C3204 1.422 . S
C3206 C3205 1.421 . S
C3206 N3216 1.359 . S
C3207 C3205 1.417 . S
C3207 C3209 1.329 . S
C3207 H3226 0.930 . S
C3208 C3204 1.415 . S
C3208 C3209 1.437 . S
C3208 C3212 1.413 . S
C3209 C3207 1.329 . S
C3209 C3208 1.437 . S
C3209 H3231 0.929 . S
N3210 C3204 1.369 . S
N3210 C3211 1.338 . S
N3210 Gd3215 2.622 . S
C3211 N3210 1.338 . S
C3211 C3213 1.378 . S
C3211 H3223 0.929 . S
C3212 C3208 1.413 . S
C3212 C3213 1.348 . S
C3212 H3228 0.931 . S
C3213 C3211 1.378 . S
C3213 C3212 1.348 . S
C3213 H3229 0.930 . S
Gd3214 N3234 2.622 . S
Gd3214 N3241 2.570 . S
Gd3214 O3248 2.353 . S
Gd3214 O3249 2.468 . S
Gd3214 O3250 2.427 . S
Gd3214 O3252 2.388 . S
Gd3214 O3253 2.386 . S
Gd3214 O3257 2.307 . S
Gd3214 C3267 2.805 . S
Gd3215 N3210 2.622 . S
Gd3215 N3216 2.570 . S
Gd3215 O3247 2.386 . S
Gd3215 O3251 2.307 . S
Gd3215 O3254 2.353 . S
Gd3215 O3255 2.468 . S
Gd3215 O3256 2.427 . S
Gd3215 O3258 2.388 . S
Gd3215 C3279 2.805 . S
N3216 C3206 1.359 . S
N3216 Gd3215 2.570 . S
N3216 C3218 1.343 . S
C3217 C3205 1.422 . S
C3217 C3219 1.321 . S
C3217 H3225 0.931 . S
C3218 N3216 1.343 . S
C3218 C3219 1.390 . S
C3218 H3220 0.931 . S
C3219 C3217 1.321 . S
C3219 C3218 1.390 . S
C3219 H3221 0.930 . S
H3220 C3218 0.931 . S
H3221 C3219 0.930 . S
H3222 C3245 0.931 . S
H3223 C3211 0.929 . S
H3224 C3246 0.930 . S
H3225 C3217 0.931 . S
H3226 C3207 0.930 . S
H3227 C3236 0.929 . S
H3228 C3212 0.931 . S
H3229 C3213 0.930 . S
H3230 C3268 0.930 . S
H3231 C3209 0.929 . S
H3232 C3237 0.931 . S
H3233 C3238 0.930 . S
N3234 Gd3214 2.622 . S
N3234 C3235 1.369 . S
N3234 C3236 1.338 . S
C3235 N3234 1.369 . S
C3235 C3239 1.415 . S
C3235 C3242 1.422 . S
C3236 H3227 0.929 . S
C3236 N3234 1.338 . S
C3236 C3238 1.378 . S
C3237 H3232 0.931 . S
C3237 C3238 1.348 . S
C3237 C3239 1.413 . S
C3238 H3233 0.930 . S
C3238 C3236 1.378 . S
C3238 C3237 1.348 . S
C3239 C3235 1.415 . S
C3239 C3237 1.413 . S
C3239 C3269 1.437 . S
H3240 C3269 0.929 . S
N3241 Gd3214 2.570 . S
N3241 C3242 1.359 . S
N3241 C3245 1.343 . S
C3242 C3235 1.422 . S
C3242 N3241 1.359 . S
C3242 C3244 1.421 . S
C3243 C3244 1.422 . S
C3243 C3246 1.321 . S
C3243 H3270 0.931 . S
C3244 C3242 1.421 . S
C3244 C3243 1.422 . S
C3244 C3268 1.417 . S
C3245 H3222 0.931 . S
C3245 N3241 1.343 . S
C3245 C3246 1.390 . S
C3246 H3224 0.930 . S
C3246 C3243 1.321 . S
C3246 C3245 1.390 . S
O3247 Gd3215 2.386 . S
O3247 C3259 1.265 . S
O3248 Gd3214 2.353 . S
O3248 C3259 1.242 . S
O3249 Gd3214 2.468 . S
O3249 C3267 1.263 . S
O3250 Gd3214 2.427 . S
O3250 C3267 1.252 . S
O3251 Gd3215 2.307 . S
O3251 C3260 1.261 . S
O3252 Gd3214 2.388 . S
O3252 C3260 1.252 . S
O3253 Gd3214 2.386 . S
O3253 C3271 1.265 . S
O3254 Gd3215 2.353 . S
O3254 C3271 1.242 . S
O3255 Gd3215 2.468 . S
O3255 C3279 1.263 . S
O3256 Gd3215 2.427 . S
O3256 C3279 1.252 . S
O3257 Gd3214 2.307 . S
O3257 C3272 1.261 . S
O3258 Gd3215 2.388 . S
O3258 C3272 1.252 . S
C3259 O3247 1.265 . S
C3259 O3248 1.242 . S
C3260 O3251 1.261 . S
C3260 O3252 1.252 . S
C3261 C3264 1.394 . S
C3261 C3266 1.370 . S
C3261 C3267 1.500 . S
C3262 C3265 1.383 . S
C3262 C3266 1.395 . S
C3263 C3264 1.396 . S
C3263 C3265 1.365 . S
C3263 H3280 0.929 . S
C3264 C3261 1.394 . S
C3264 C3263 1.396 . S
C3264 H3281 0.930 . S
C3265 C3262 1.383 . S
C3265 C3263 1.365 . S
C3265 H3282 0.931 . S
C3266 C3261 1.370 . S
C3266 C3262 1.395 . S
C3266 H3283 0.930 . S
C3267 Gd3214 2.805 . S
C3267 O3249 1.263 . S
C3267 O3250 1.252 . S
C3267 C3261 1.500 . S
C3268 H3230 0.930 . S
C3268 C3244 1.417 . S
C3268 C3269 1.329 . S
C3269 C3239 1.437 . S
C3269 H3240 0.929 . S
C3269 C3268 1.329 . S
H3270 C3243 0.931 . S
C3271 O3253 1.265 . S
C3271 O3254 1.242 . S
C3272 O3257 1.261 . S
C3272 O3258 1.252 . S
C3273 C3276 1.394 . S
C3273 C3278 1.370 . S
C3273 C3279 1.500 . S
C3274 C3277 1.383 . S
C3274 C3278 1.395 . S
C3275 C3276 1.396 . S
C3275 C3277 1.365 . S
C3275 H3284 0.929 . S
C3276 C3273 1.394 . S
C3276 C3275 1.396 . S
C3276 H3285 0.930 . S
C3277 C3274 1.383 . S
C3277 C3275 1.365 . S
C3277 H3286 0.931 . S
C3278 C3273 1.370 . S
C3278 C3274 1.395 . S
C3278 H3287 0.930 . S
C3279 Gd3215 2.805 . S
C3279 O3255 1.263 . S
C3279 O3256 1.252 . S
C3279 C3273 1.500 . S
H3280 C3263 0.929 . S
H3281 C3264 0.930 . S
H3282 C3265 0.931 . S
H3283 C3266 0.930 . S
H3284 C3275 0.929 . S
H3285 C3276 0.930 . S
H3286 C3277 0.931 . S
H3287 C3278 0.930 . S
C3288 C3290 1.422 . S
C3288 C3292 1.415 . S
C3288 N3294 1.369 . S
C3289 C3290 1.421 . S
C3289 C3291 1.417 . S
C3289 C3301 1.422 . S
C3290 C3288 1.422 . S
C3290 C3289 1.421 . S
C3290 N3300 1.359 . S
C3291 C3289 1.417 . S
C3291 C3293 1.329 . S
C3291 H3310 0.930 . S
C3292 C3288 1.415 . S
C3292 C3293 1.437 . S
C3292 C3296 1.413 . S
C3293 C3291 1.329 . S
C3293 C3292 1.437 . S
C3293 H3315 0.929 . S
N3294 C3288 1.369 . S
N3294 C3295 1.338 . S
N3294 Gd3299 2.622 . S
C3295 N3294 1.338 . S
C3295 C3297 1.378 . S
C3295 H3307 0.929 . S
C3296 C3292 1.413 . S
C3296 C3297 1.348 . S
C3296 H3312 0.931 . S
C3297 C3295 1.378 . S
C3297 C3296 1.348 . S
C3297 H3313 0.930 . S
Gd3298 N3318 2.622 . S
Gd3298 N3325 2.570 . S
Gd3298 O3332 2.353 . S
Gd3298 O3333 2.468 . S
Gd3298 O3334 2.427 . S
Gd3298 O3336 2.388 . S
Gd3298 O3337 2.386 . S
Gd3298 O3341 2.307 . S
Gd3298 C3351 2.805 . S
Gd3299 N3294 2.622 . S
Gd3299 N3300 2.570 . S
Gd3299 O3331 2.386 . S
Gd3299 O3335 2.307 . S
Gd3299 O3338 2.353 . S
Gd3299 O3339 2.468 . S
Gd3299 O3340 2.427 . S
Gd3299 O3342 2.388 . S
Gd3299 C3363 2.805 . S
N3300 C3290 1.359 . S
N3300 Gd3299 2.570 . S
N3300 C3302 1.343 . S
C3301 C3289 1.422 . S
C3301 C3303 1.321 . S
C3301 H3309 0.931 . S
C3302 N3300 1.343 . S
C3302 C3303 1.390 . S
C3302 H3304 0.931 . S
C3303 C3301 1.321 . S
C3303 C3302 1.390 . S
C3303 H3305 0.930 . S
H3304 C3302 0.931 . S
H3305 C3303 0.930 . S
H3306 C3329 0.931 . S
H3307 C3295 0.929 . S
H3308 C3330 0.930 . S
H3309 C3301 0.931 . S
H3310 C3291 0.930 . S
H3311 C3320 0.929 . S
H3312 C3296 0.931 . S
H3313 C3297 0.930 . S
H3314 C3352 0.930 . S
H3315 C3293 0.929 . S
H3316 C3321 0.931 . S
H3317 C3322 0.930 . S
N3318 Gd3298 2.622 . S
N3318 C3319 1.369 . S
N3318 C3320 1.338 . S
C3319 N3318 1.369 . S
C3319 C3323 1.415 . S
C3319 C3326 1.422 . S
C3320 H3311 0.929 . S
C3320 N3318 1.338 . S
C3320 C3322 1.378 . S
C3321 H3316 0.931 . S
C3321 C3322 1.348 . S
C3321 C3323 1.413 . S
C3322 H3317 0.930 . S
C3322 C3320 1.378 . S
C3322 C3321 1.348 . S
C3323 C3319 1.415 . S
C3323 C3321 1.413 . S
C3323 C3353 1.437 . S
H3324 C3353 0.929 . S
N3325 Gd3298 2.570 . S
N3325 C3326 1.359 . S
N3325 C3329 1.343 . S
C3326 C3319 1.422 . S
C3326 N3325 1.359 . S
C3326 C3328 1.421 . S
C3327 C3328 1.422 . S
C3327 C3330 1.321 . S
C3327 H3354 0.931 . S
C3328 C3326 1.421 . S
C3328 C3327 1.422 . S
C3328 C3352 1.417 . S
C3329 H3306 0.931 . S
C3329 N3325 1.343 . S
C3329 C3330 1.390 . S
C3330 H3308 0.930 . S
C3330 C3327 1.321 . S
C3330 C3329 1.390 . S
O3331 Gd3299 2.386 . S
O3331 C3343 1.265 . S
O3332 Gd3298 2.353 . S
O3332 C3343 1.242 . S
O3333 Gd3298 2.468 . S
O3333 C3351 1.263 . S
O3334 Gd3298 2.427 . S
O3334 C3351 1.252 . S
O3335 Gd3299 2.307 . S
O3335 C3344 1.261 . S
O3336 Gd3298 2.388 . S
O3336 C3344 1.252 . S
O3337 Gd3298 2.386 . S
O3337 C3355 1.265 . S
O3338 Gd3299 2.353 . S
O3338 C3355 1.242 . S
O3339 Gd3299 2.468 . S
O3339 C3363 1.263 . S
O3340 Gd3299 2.427 . S
O3340 C3363 1.252 . S
O3341 Gd3298 2.307 . S
O3341 C3356 1.261 . S
O3342 Gd3299 2.388 . S
O3342 C3356 1.252 . S
C3343 O3331 1.265 . S
C3343 O3332 1.242 . S
C3344 O3335 1.261 . S
C3344 O3336 1.252 . S
C3345 C3348 1.394 . S
C3345 C3350 1.370 . S
C3345 C3351 1.500 . S
C3346 C3349 1.383 . S
C3346 C3350 1.395 . S
C3347 C3348 1.396 . S
C3347 C3349 1.365 . S
C3347 H3364 0.929 . S
C3348 C3345 1.394 . S
C3348 C3347 1.396 . S
C3348 H3365 0.930 . S
C3349 C3346 1.383 . S
C3349 C3347 1.365 . S
C3349 H3366 0.931 . S
C3350 C3345 1.370 . S
C3350 C3346 1.395 . S
C3350 H3367 0.930 . S
C3351 Gd3298 2.805 . S
C3351 O3333 1.263 . S
C3351 O3334 1.252 . S
C3351 C3345 1.500 . S
C3352 H3314 0.930 . S
C3352 C3328 1.417 . S
C3352 C3353 1.329 . S
C3353 C3323 1.437 . S
C3353 H3324 0.929 . S
C3353 C3352 1.329 . S
H3354 C3327 0.931 . S
C3355 O3337 1.265 . S
C3355 O3338 1.242 . S
C3356 O3341 1.261 . S
C3356 O3342 1.252 . S
C3357 C3360 1.394 . S
C3357 C3362 1.370 . S
C3357 C3363 1.500 . S
C3358 C3361 1.383 . S
C3358 C3362 1.395 . S
C3359 C3360 1.396 . S
C3359 C3361 1.365 . S
C3359 H3368 0.929 . S
C3360 C3357 1.394 . S
C3360 C3359 1.396 . S
C3360 H3369 0.930 . S
C3361 C3358 1.383 . S
C3361 C3359 1.365 . S
C3361 H3370 0.931 . S
C3362 C3357 1.370 . S
C3362 C3358 1.395 . S
C3362 H3371 0.930 . S
C3363 Gd3299 2.805 . S
C3363 O3339 1.263 . S
C3363 O3340 1.252 . S
C3363 C3357 1.500 . S
H3364 C3347 0.929 . S
H3365 C3348 0.930 . S
H3366 C3349 0.931 . S
H3367 C3350 0.930 . S
H3368 C3359 0.929 . S
H3369 C3360 0.930 . S
H3370 C3361 0.931 . S
H3371 C3362 0.930 . S
C3372 C3374 1.422 1_556 S
C3372 C3376 1.415 . S
C3372 N3378 1.369 . S
C3373 C3374 1.421 . S
C3373 C3375 1.417 . S
C3373 C3385 1.422 . S
C3374 C3372 1.422 1_554 S
C3374 C3373 1.421 . S
C3374 N3384 1.359 . S
C3375 C3373 1.417 . S
C3375 C3377 1.329 1_554 S
C3375 H3394 0.930 . S
C3376 C3372 1.415 . S
C3376 C3377 1.437 . S
C3376 C3380 1.413 . S
C3377 C3375 1.329 1_556 S
C3377 C3376 1.437 . S
C3377 H3399 0.929 . S
N3378 C3372 1.369 . S
N3378 C3379 1.338 . S
N3378 Gd3383 2.622 1_556 S
C3379 N3378 1.338 . S
C3379 C3381 1.378 . S
C3379 H3391 0.929 . S
C3380 C3376 1.413 . S
C3380 C3381 1.348 . S
C3380 H3396 0.931 . S
C3381 C3379 1.378 . S
C3381 C3380 1.348 . S
C3381 H3397 0.930 . S
Gd3382 N3402 2.625 . S
Gd3382 N3409 2.579 . S
Gd3382 O3416 2.349 1_655 S
Gd3382 O3417 2.480 . S
Gd3382 O3418 2.437 . S
Gd3382 O3420 2.378 1_655 S
Gd3382 O3421 2.378 1_655 S
Gd3382 O3425 2.304 1_655 S
Gd3382 C3435 2.818 . S
Gd3383 N3378 2.622 1_554 S
Gd3383 N3384 2.570 . S
Gd3383 O3415 2.386 . S
Gd3383 O3419 2.307 . S
Gd3383 O3422 2.353 . S
Gd3383 O3423 2.468 . S
Gd3383 O3424 2.427 1_554 S
Gd3383 O3426 2.388 1_554 S
Gd3383 C3447 2.805 . S
N3384 C3374 1.359 . S
N3384 Gd3383 2.570 . S
N3384 C3386 1.343 . S
C3385 C3373 1.422 . S
C3385 C3387 1.321 . S
C3385 H3393 0.931 . S
C3386 N3384 1.343 . S
C3386 C3387 1.390 . S
C3386 H3388 0.931 . S
C3387 C3385 1.321 . S
C3387 C3386 1.390 . S
C3387 H3389 0.930 . S
H3388 C3386 0.931 . S
H3389 C3387 0.930 . S
H3390 C3413 0.931 1_556 S
H3391 C3379 0.929 . S
H3392 C3414 0.930 . S
H3393 C3385 0.931 . S
H3394 C3375 0.930 . S
H3395 C3404 0.929 1_455 S
H3396 C3380 0.931 . S
H3397 C3381 0.930 . S
H3398 C3436 0.930 . S
H3399 C3377 0.929 . S
H3400 C3405 0.931 . S
H3401 C3406 0.930 . S
N3402 Gd3382 2.625 . S
N3402 C3403 1.369 . S
N3402 C3404 1.338 . S
C3403 N3402 1.369 . S
C3403 C3407 1.415 . S
C3403 C3410 1.422 . S
C3404 H3395 0.929 1_655 S
C3404 N3402 1.338 . S
C3404 C3406 1.378 . S
C3405 H3400 0.931 . S
C3405 C3406 1.348 . S
C3405 C3407 1.413 . S
C3406 H3401 0.930 . S
C3406 C3404 1.378 . S
C3406 C3405 1.348 . S
C3407 C3403 1.415 . S
C3407 C3405 1.413 . S
C3407 C3437 1.437 . S
H3408 C3437 0.929 . S
N3409 Gd3382 2.579 . S
N3409 C3410 1.359 . S
N3409 C3413 1.343 . S
C3410 C3403 1.422 . S
C3410 N3409 1.359 . S
C3410 C3412 1.421 . S
C3411 C3412 1.422 . S
C3411 C3414 1.321 1_554 S
C3411 H3438 0.931 . S
C3412 C3410 1.421 . S
C3412 C3411 1.422 . S
C3412 C3436 1.417 . S
C3413 H3390 0.931 1_554 S
C3413 N3409 1.343 . S
C3413 C3414 1.390 1_554 S
C3414 H3392 0.930 . S
C3414 C3411 1.321 1_556 S
C3414 C3413 1.390 1_556 S
O3415 Gd3383 2.386 . S
O3415 C3427 1.265 . S
O3416 Gd3382 2.349 1_455 S
O3416 C3427 1.242 . S
O3417 Gd3382 2.480 . S
O3417 C3435 1.263 . S
O3418 Gd3382 2.437 . S
O3418 C3435 1.252 . S
O3419 Gd3383 2.307 . S
O3419 C3428 1.261 . S
O3420 Gd3382 2.378 1_455 S
O3420 C3428 1.252 . S
O3421 Gd3382 2.378 1_455 S
O3421 C3439 1.265 . S
O3422 Gd3383 2.353 . S
O3422 C3439 1.242 . S
O3423 Gd3383 2.468 . S
O3423 C3447 1.263 . S
O3424 Gd3383 2.427 1_556 S
O3424 C3447 1.252 1_556 S
O3425 Gd3382 2.304 1_455 S
O3425 C3440 1.261 1_554 S
O3426 Gd3383 2.388 1_556 S
O3426 C3440 1.252 . S
C3427 O3415 1.265 . S
C3427 O3416 1.242 . S
C3428 O3419 1.261 . S
C3428 O3420 1.252 . S
C3429 C3432 1.394 . S
C3429 C3434 1.370 . S
C3429 C3435 1.500 . S
C3430 C3433 1.383 . S
C3430 C3434 1.395 . S
C3431 C3432 1.396 . S
C3431 C3433 1.365 . S
C3431 H3448 0.929 . S
C3432 C3429 1.394 . S
C3432 C3431 1.396 . S
C3432 H3449 0.930 . S
C3433 C3430 1.383 . S
C3433 C3431 1.365 . S
C3433 H3450 0.931 . S
C3434 C3429 1.370 . S
C3434 C3430 1.395 . S
C3434 H3451 0.930 . S
C3435 Gd3382 2.818 . S
C3435 O3417 1.263 . S
C3435 O3418 1.252 . S
C3435 C3429 1.500 . S
C3436 H3398 0.930 . S
C3436 C3412 1.417 . S
C3436 C3437 1.329 . S
C3437 C3407 1.437 . S
C3437 H3408 0.929 . S
C3437 C3436 1.329 . S
H3438 C3411 0.931 . S
C3439 O3421 1.265 . S
C3439 O3422 1.242 . S
C3440 O3425 1.261 1_556 S
C3440 O3426 1.252 . S
C3441 C3444 1.394 . S
C3441 C3446 1.370 1_556 S
C3441 C3447 1.500 1_556 S
C3442 C3445 1.383 1_554 S
C3442 C3446 1.395 . S
C3443 C3444 1.396 . S
C3443 C3445 1.365 . S
C3443 H3452 0.929 . S
C3444 C3441 1.394 . S
C3444 C3443 1.396 . S
C3444 H3453 0.930 . S
C3445 C3442 1.383 1_556 S
C3445 C3443 1.365 . S
C3445 H3454 0.931 . S
C3446 C3441 1.370 1_554 S
C3446 C3442 1.395 . S
C3446 H3455 0.930 . S
C3447 Gd3383 2.805 . S
C3447 O3423 1.263 . S
C3447 O3424 1.252 1_554 S
C3447 C3441 1.500 1_554 S
H3448 C3431 0.929 . S
H3449 C3432 0.930 . S
H3450 C3433 0.931 . S
H3451 C3434 0.930 . S
H3452 C3443 0.929 . S
H3453 C3444 0.930 . S
H3454 C3445 0.931 . S
H3455 C3446 0.930 . S
H3456 C3464 0.950 . S
H3457 C3469 0.950 . S
H3458 C3466 0.950 . S
H3459 C3468 0.950 . S
H3460 C3470 0.950 . S
H3461 C3472 0.950 . S
H3462 C3474 0.950 1_556 S
H3463 C3475 0.923 1_655 S
C3464 H3456 0.950 . S
C3464 C3465 1.384 1_655 S
C3464 C3466 1.391 . S
C3465 C3464 1.384 1_455 S
C3465 C3469 1.396 1_556 S
C3466 H3458 0.950 . S
C3466 C3464 1.391 . S
C3466 C3467 1.400 1_656 S
C3467 C3466 1.400 1_454 S
C3467 C3468 1.398 . S
C3467 C3473 1.491 . S
C3468 H3459 0.950 . S
C3468 C3467 1.398 . S
C3468 C3469 1.391 . S
C3469 H3457 0.950 . S
C3469 C3465 1.396 1_554 S
C3469 C3468 1.391 . S
C3470 H3460 0.950 . S
C3470 C3471 1.386 . S
C3470 C3472 1.391 . S
C3471 C3470 1.386 . S
C3471 C3475 1.438 . S
C3472 H3461 0.950 . S
C3472 C3470 1.391 . S
C3472 C3473 1.400 . S
C3473 C3467 1.491 . S
C3473 C3472 1.400 . S
C3473 C3474 1.398 1_455 S
C3474 H3462 0.950 1_554 S
C3474 C3473 1.398 1_655 S
C3474 C3475 1.374 1_655 S
C3475 H3463 0.923 1_455 S
C3475 C3471 1.438 . S
C3475 C3474 1.374 1_455 S
H3476 C3484 0.950 . S
H3477 C3489 0.950 . S
H3478 C3486 0.950 . S
H3479 C3488 0.950 . S
H3480 C3490 0.950 . S
H3481 C3492 0.950 . S
H3482 C3494 0.950 . S
H3483 C3495 0.950 . S
C3484 H3476 0.950 . S
C3484 C3485 1.386 . S
C3484 C3486 1.391 . S
C3485 C3484 1.386 . S
C3485 C3489 1.393 . S
C3486 H3478 0.950 . S
C3486 C3484 1.391 . S
C3486 C3487 1.400 . S
C3487 C3486 1.400 . S
C3487 C3488 1.398 . S
C3487 C3493 1.491 . S
C3488 H3479 0.950 . S
C3488 C3487 1.398 . S
C3488 C3489 1.391 . S
C3489 H3477 0.950 . S
C3489 C3485 1.393 . S
C3489 C3488 1.391 . S
C3490 H3480 0.950 . S
C3490 C3491 1.386 . S
C3490 C3492 1.391 . S
C3491 C3490 1.386 . S
C3491 C3495 1.393 . S
C3492 H3481 0.950 . S
C3492 C3490 1.391 . S
C3492 C3493 1.400 . S
C3493 C3487 1.491 . S
C3493 C3492 1.400 . S
C3493 C3494 1.398 . S
C3494 H3482 0.950 . S
C3494 C3493 1.398 . S
C3494 C3495 1.391 . S
C3495 H3483 0.950 . S
C3495 C3491 1.393 . S
C3495 C3494 1.391 . S
H3496 C3504 0.950 . S
H3497 C3509 0.950 . S
H3498 C3506 0.950 . S
H3499 C3508 0.950 . S
H3500 C3510 0.950 . S
H3501 C3512 0.950 . S
H3502 C3514 0.950 . S
H3503 C3515 0.950 . S
C3504 H3496 0.950 . S
C3504 C3505 1.386 . S
C3504 C3506 1.391 . S
C3505 C3504 1.386 . S
C3505 C3509 1.393 . S
C3506 H3498 0.950 . S
C3506 C3504 1.391 . S
C3506 C3507 1.400 . S
C3507 C3506 1.400 . S
C3507 C3508 1.398 . S
C3507 C3513 1.491 . S
C3508 H3499 0.950 . S
C3508 C3507 1.398 . S
C3508 C3509 1.391 . S
C3509 H3497 0.950 . S
C3509 C3505 1.393 . S
C3509 C3508 1.391 . S
C3510 H3500 0.950 . S
C3510 C3511 1.386 . S
C3510 C3512 1.391 . S
C3511 C3510 1.386 . S
C3511 C3515 1.393 . S
C3512 H3501 0.950 . S
C3512 C3510 1.391 . S
C3512 C3513 1.400 . S
C3513 C3507 1.491 . S
C3513 C3512 1.400 . S
C3513 C3514 1.398 . S
C3514 H3502 0.950 . S
C3514 C3513 1.398 . S
C3514 C3515 1.391 . S
C3515 H3503 0.950 . S
C3515 C3511 1.393 . S
C3515 C3514 1.391 . S
H3516 C3524 0.950 . S
H3517 C3529 0.950 . S
H3518 C3526 0.950 . S
H3519 C3528 0.950 . S
H3520 C3530 0.950 . S
H3521 C3532 0.950 . S
H3522 C3534 0.950 . S
H3523 C3535 0.950 . S
C3524 H3516 0.950 . S
C3524 C3525 1.386 . S
C3524 C3526 1.391 . S
C3525 C3524 1.386 . S
C3525 C3529 1.393 . S
C3526 H3518 0.950 . S
C3526 C3524 1.391 . S
C3526 C3527 1.400 . S
C3527 C3526 1.400 . S
C3527 C3528 1.398 . S
C3527 C3533 1.491 . S
C3528 H3519 0.950 . S
C3528 C3527 1.398 . S
C3528 C3529 1.391 . S
C3529 H3517 0.950 . S
C3529 C3525 1.393 . S
C3529 C3528 1.391 . S
C3530 H3520 0.950 . S
C3530 C3531 1.386 . S
C3530 C3532 1.391 . S
C3531 C3530 1.386 . S
C3531 C3535 1.393 . S
C3532 H3521 0.950 . S
C3532 C3530 1.391 . S
C3532 C3533 1.400 . S
C3533 C3527 1.491 . S
C3533 C3532 1.400 . S
C3533 C3534 1.398 . S
C3534 H3522 0.950 . S
C3534 C3533 1.398 . S
C3534 C3535 1.391 . S
C3535 H3523 0.950 . S
C3535 C3531 1.393 . S
C3535 C3534 1.391 . S
H3536 C3544 0.950 1_655 S
H3537 C3549 0.950 . S
H3538 C3546 0.950 1_655 S
H3539 C3548 0.950 . S
H3540 C3550 0.950 . S
H3541 C3552 0.950 . S
H3542 C3554 0.950 . S
H3543 C3555 0.950 . S
C3544 H3536 0.950 1_455 S
C3544 C3545 1.386 . S
C3544 C3546 1.391 . S
C3545 C3544 1.386 . S
C3545 C3549 1.393 . S
C3546 H3538 0.950 1_455 S
C3546 C3544 1.391 . S
C3546 C3547 1.400 . S
C3547 C3546 1.400 . S
C3547 C3548 1.398 . S
C3547 C3553 1.491 . S
C3548 H3539 0.950 . S
C3548 C3547 1.398 . S
C3548 C3549 1.391 . S
C3549 H3537 0.950 . S
C3549 C3545 1.393 . S
C3549 C3548 1.391 . S
C3550 H3540 0.950 . S
C3550 C3551 1.386 . S
C3550 C3552 1.391 . S
C3551 C3550 1.386 . S
C3551 C3555 1.393 . S
C3552 H3541 0.950 . S
C3552 C3550 1.391 . S
C3552 C3553 1.400 . S
C3553 C3547 1.491 . S
C3553 C3552 1.400 . S
C3553 C3554 1.398 . S
C3554 H3542 0.950 . S
C3554 C3553 1.398 . S
C3554 C3555 1.391 . S
C3555 H3543 0.950 . S
C3555 C3551 1.393 . S
C3555 C3554 1.391 . S
H3556 C3564 0.950 . S
H3557 C3569 0.950 . S
H3558 C3566 0.950 . S
H3559 C3568 0.950 . S
H3560 C3570 0.950 . S
H3561 C3572 0.950 . S
H3562 C3574 0.950 . S
H3563 C3575 0.950 . S
C3564 H3556 0.950 . S
C3564 C3565 1.386 . S
C3564 C3566 1.391 . S
C3565 C3564 1.386 . S
C3565 C3569 1.393 . S
C3566 H3558 0.950 . S
C3566 C3564 1.391 . S
C3566 C3567 1.400 . S
C3567 C3566 1.400 . S
C3567 C3568 1.398 . S
C3567 C3573 1.491 . S
C3568 H3559 0.950 . S
C3568 C3567 1.398 . S
C3568 C3569 1.391 . S
C3569 H3557 0.950 . S
C3569 C3565 1.393 . S
C3569 C3568 1.391 . S
C3570 H3560 0.950 . S
C3570 C3571 1.386 . S
C3570 C3572 1.391 . S
C3571 C3570 1.386 . S
C3571 C3575 1.393 . S
C3572 H3561 0.950 . S
C3572 C3570 1.391 . S
C3572 C3573 1.400 . S
C3573 C3567 1.491 . S
C3573 C3572 1.400 . S
C3573 C3574 1.398 . S
C3574 H3562 0.950 . S
C3574 C3573 1.398 . S
C3574 C3575 1.391 . S
C3575 H3563 0.950 . S
C3575 C3571 1.393 . S
C3575 C3574 1.391 . S
H3576 C3584 0.950 . S
H3577 C3589 0.950 . S
H3578 C3586 0.950 . S
H3579 C3588 0.950 . S
H3580 C3590 0.950 . S
H3581 C3592 0.950 . S
H3582 C3594 0.950 . S
H3583 C3595 0.950 . S
C3584 H3576 0.950 . S
C3584 C3585 1.386 . S
C3584 C3586 1.391 . S
C3585 C3584 1.386 . S
C3585 C3589 1.393 . S
C3586 H3578 0.950 . S
C3586 C3584 1.391 . S
C3586 C3587 1.400 . S
C3587 C3586 1.400 . S
C3587 C3588 1.398 . S
C3587 C3593 1.491 . S
C3588 H3579 0.950 . S
C3588 C3587 1.398 . S
C3588 C3589 1.391 . S
C3589 H3577 0.950 . S
C3589 C3585 1.393 . S
C3589 C3588 1.391 . S
C3590 H3580 0.950 . S
C3590 C3591 1.386 . S
C3590 C3592 1.391 . S
C3591 C3590 1.386 . S
C3591 C3595 1.393 . S
C3592 H3581 0.950 . S
C3592 C3590 1.391 . S
C3592 C3593 1.400 . S
C3593 C3587 1.491 . S
C3593 C3592 1.400 . S
C3593 C3594 1.398 . S
C3594 H3582 0.950 . S
C3594 C3593 1.398 . S
C3594 C3595 1.391 . S
C3595 H3583 0.950 . S
C3595 C3591 1.393 . S
C3595 C3594 1.391 . S
H3596 C3604 0.950 . S
H3597 C3609 0.950 . S
H3598 C3606 0.950 . S
H3599 C3608 0.950 . S
H3600 C3610 0.950 . S
H3601 C3612 0.950 . S
H3602 C3614 0.950 . S
H3603 C3615 0.950 . S
C3604 H3596 0.950 . S
C3604 C3605 1.386 . S
C3604 C3606 1.391 . S
C3605 C3604 1.386 . S
C3605 C3609 1.393 . S
C3606 H3598 0.950 . S
C3606 C3604 1.391 . S
C3606 C3607 1.400 . S
C3607 C3606 1.400 . S
C3607 C3608 1.398 . S
C3607 C3613 1.491 . S
C3608 H3599 0.950 . S
C3608 C3607 1.398 . S
C3608 C3609 1.391 . S
C3609 H3597 0.950 . S
C3609 C3605 1.393 . S
C3609 C3608 1.391 . S
C3610 H3600 0.950 . S
C3610 C3611 1.386 . S
C3610 C3612 1.391 . S
C3611 C3610 1.386 . S
C3611 C3615 1.393 . S
C3612 H3601 0.950 . S
C3612 C3610 1.391 . S
C3612 C3613 1.400 . S
C3613 C3607 1.491 . S
C3613 C3612 1.400 . S
C3613 C3614 1.398 . S
C3614 H3602 0.950 . S
C3614 C3613 1.398 . S
C3614 C3615 1.391 . S
C3615 H3603 0.950 . S
C3615 C3611 1.393 . S
C3615 C3614 1.391 . S
H3616 C3624 0.950 1_455 S
H3617 C3629 0.950 . S
H3618 C3626 0.901 1_455 S
H3619 C3628 0.950 . S
H3620 C3630 0.950 . S
H3621 C3632 0.950 . S
H3622 C3634 0.950 . S
H3623 C3635 0.950 . S
C3624 H3616 0.950 1_655 S
C3624 C3625 1.386 . S
C3624 C3626 1.411 . S
C3625 C3624 1.386 . S
C3625 C3629 1.393 . S
C3626 H3618 0.901 1_655 S
C3626 C3624 1.411 . S
C3626 C3627 1.429 . S
C3627 C3626 1.429 . S
C3627 C3628 1.398 . S
C3627 C3633 1.491 . S
C3628 H3619 0.950 . S
C3628 C3627 1.398 . S
C3628 C3629 1.391 . S
C3629 H3617 0.950 . S
C3629 C3625 1.393 . S
C3629 C3628 1.391 . S
C3630 H3620 0.950 . S
C3630 C3631 1.386 1_655 S
C3630 C3632 1.391 . S
C3631 C3630 1.386 1_455 S
C3631 C3635 1.393 . S
C3632 H3621 0.950 . S
C3632 C3630 1.391 . S
C3632 C3633 1.400 . S
C3633 C3627 1.491 . S
C3633 C3632 1.400 . S
C3633 C3634 1.398 1_655 S
C3634 H3622 0.950 . S
C3634 C3633 1.398 1_455 S
C3634 C3635 1.391 . S
C3635 H3623 0.950 . S
C3635 C3631 1.393 . S
C3635 C3634 1.391 . S
H3636 C3644 0.950 . S
H3637 C3649 0.950 . S
H3638 C3646 0.950 . S
H3639 C3648 0.950 . S
H3640 C3650 0.950 . S
H3641 C3652 0.950 . S
H3642 C3654 0.950 . S
H3643 C3655 0.950 . S
C3644 H3636 0.950 . S
C3644 C3645 1.386 . S
C3644 C3646 1.391 . S
C3645 C3644 1.386 . S
C3645 C3649 1.393 . S
C3646 H3638 0.950 . S
C3646 C3644 1.391 . S
C3646 C3647 1.400 . S
C3647 C3646 1.400 . S
C3647 C3648 1.398 . S
C3647 C3653 1.491 . S
C3648 H3639 0.950 . S
C3648 C3647 1.398 . S
C3648 C3649 1.391 . S
C3649 H3637 0.950 . S
C3649 C3645 1.393 . S
C3649 C3648 1.391 . S
C3650 H3640 0.950 . S
C3650 C3651 1.386 . S
C3650 C3652 1.391 . S
C3651 C3650 1.386 . S
C3651 C3655 1.393 . S
C3652 H3641 0.950 . S
C3652 C3650 1.391 . S
C3652 C3653 1.400 . S
C3653 C3647 1.491 . S
C3653 C3652 1.400 . S
C3653 C3654 1.398 . S
C3654 H3642 0.950 . S
C3654 C3653 1.398 . S
C3654 C3655 1.391 . S
C3655 H3643 0.950 . S
C3655 C3651 1.393 . S
C3655 C3654 1.391 . S
H3656 C3664 0.950 . S
H3657 C3669 0.950 . S
H3658 C3666 0.941 1_565 S
H3659 C3668 0.950 . S
H3660 C3670 0.950 . S
H3661 C3672 0.950 . S
H3662 C3674 0.950 1_565 S
H3663 C3675 0.950 1_565 S
C3664 H3656 0.950 . S
C3664 C3665 1.386 . S
C3664 C3666 1.391 . S
C3665 C3664 1.386 . S
C3665 C3669 1.393 . S
C3666 H3658 0.941 1_545 S
C3666 C3664 1.391 . S
C3666 C3667 1.400 . S
C3667 C3666 1.400 . S
C3667 C3668 1.398 . S
C3667 C3673 1.491 . S
C3668 H3659 0.950 . S
C3668 C3667 1.398 . S
C3668 C3669 1.391 . S
C3669 H3657 0.950 . S
C3669 C3665 1.393 . S
C3669 C3668 1.391 . S
C3670 H3660 0.950 . S
C3670 C3671 1.386 . S
C3670 C3672 1.391 . S
C3671 C3670 1.386 . S
C3671 C3675 1.393 . S
C3672 H3661 0.950 . S
C3672 C3670 1.391 . S
C3672 C3673 1.400 . S
C3673 C3667 1.491 . S
C3673 C3672 1.400 . S
C3673 C3674 1.398 . S
C3674 H3662 0.950 1_545 S
C3674 C3673 1.398 . S
C3674 C3675 1.391 . S
C3675 H3663 0.950 1_545 S
C3675 C3671 1.393 . S
C3675 C3674 1.391 . S
H3676 C3684 0.950 . S
H3677 C3689 0.950 . S
H3678 C3686 0.950 . S
H3679 C3688 0.950 . S
H3680 C3690 0.950 . S
H3681 C3692 0.950 . S
H3682 C3694 0.950 . S
H3683 C3695 0.950 . S
C3684 H3676 0.950 . S
C3684 C3685 1.386 . S
C3684 C3686 1.391 . S
C3685 C3684 1.386 . S
C3685 C3689 1.393 . S
C3686 H3678 0.950 . S
C3686 C3684 1.391 . S
C3686 C3687 1.400 . S
C3687 C3686 1.400 . S
C3687 C3688 1.398 . S
C3687 C3693 1.491 . S
C3688 H3679 0.950 . S
C3688 C3687 1.398 . S
C3688 C3689 1.391 . S
C3689 H3677 0.950 . S
C3689 C3685 1.393 . S
C3689 C3688 1.391 . S
C3690 H3680 0.950 . S
C3690 C3691 1.386 . S
C3690 C3692 1.391 . S
C3691 C3690 1.386 . S
C3691 C3695 1.393 . S
C3692 H3681 0.950 . S
C3692 C3690 1.391 . S
C3692 C3693 1.400 . S
C3693 C3687 1.491 . S
C3693 C3692 1.400 . S
C3693 C3694 1.398 . S
C3694 H3682 0.950 . S
C3694 C3693 1.398 . S
C3694 C3695 1.391 . S
C3695 H3683 0.950 . S
C3695 C3691 1.393 . S
C3695 C3694 1.391 . S
H3696 C3704 0.950 1_565 S
H3697 C3709 0.950 . S
H3698 C3706 0.950 1_565 S
H3699 C3708 0.950 . S
H3700 C3710 0.950 . S
H3701 C3712 0.938 1_655 S
H3702 C3714 0.950 1_565 S
H3703 C3715 0.950 1_565 S
C3704 H3696 0.950 1_545 S
C3704 C3705 1.386 . S
C3704 C3706 1.391 . S
C3705 C3704 1.386 . S
C3705 C3709 1.393 . S
C3706 H3698 0.950 1_545 S
C3706 C3704 1.391 . S
C3706 C3707 1.400 . S
C3707 C3706 1.400 . S
C3707 C3708 1.398 . S
C3707 C3713 1.491 . S
C3708 H3699 0.950 . S
C3708 C3707 1.398 . S
C3708 C3709 1.391 . S
C3709 H3697 0.950 . S
C3709 C3705 1.393 . S
C3709 C3708 1.391 . S
C3710 H3700 0.950 . S
C3710 C3711 1.386 . S
C3710 C3712 1.393 . S
C3711 C3710 1.386 . S
C3711 C3715 1.393 . S
C3712 H3701 0.938 1_455 S
C3712 C3710 1.393 . S
C3712 C3713 1.401 1_455 S
C3713 C3707 1.491 . S
C3713 C3712 1.401 1_655 S
C3713 C3714 1.398 . S
C3714 H3702 0.950 1_545 S
C3714 C3713 1.398 . S
C3714 C3715 1.391 1_655 S
C3715 H3703 0.950 1_545 S
C3715 C3711 1.393 . S
C3715 C3714 1.391 1_455 S
H3716 C3724 0.950 . S
H3717 C3729 0.950 . S
H3718 C3726 0.950 . S
H3719 C3728 0.950 . S
H3720 C3730 0.950 . S
H3721 C3732 0.950 . S
H3722 C3734 0.950 . S
H3723 C3735 0.950 . S
C3724 H3716 0.950 . S
C3724 C3725 1.386 . S
C3724 C3726 1.391 . S
C3725 C3724 1.386 . S
C3725 C3729 1.393 . S
C3726 H3718 0.950 . S
C3726 C3724 1.391 . S
C3726 C3727 1.400 . S
C3727 C3726 1.400 . S
C3727 C3728 1.398 . S
C3727 C3733 1.491 . S
C3728 H3719 0.950 . S
C3728 C3727 1.398 . S
C3728 C3729 1.391 . S
C3729 H3717 0.950 . S
C3729 C3725 1.393 . S
C3729 C3728 1.391 . S
C3730 H3720 0.950 . S
C3730 C3731 1.386 . S
C3730 C3732 1.391 . S
C3731 C3730 1.386 . S
C3731 C3735 1.393 . S
C3732 H3721 0.950 . S
C3732 C3730 1.391 . S
C3732 C3733 1.400 . S
C3733 C3727 1.491 . S
C3733 C3732 1.400 . S
C3733 C3734 1.398 . S
C3734 H3722 0.950 . S
C3734 C3733 1.398 . S
C3734 C3735 1.391 . S
C3735 H3723 0.950 . S
C3735 C3731 1.393 . S
C3735 C3734 1.391 . S
H3736 C3744 0.950 . S
H3737 C3749 0.950 . S
H3738 C3746 0.950 . S
H3739 C3748 0.950 . S
H3740 C3750 0.950 . S
H3741 C3752 0.950 . S
H3742 C3754 0.950 . S
H3743 C3755 0.950 . S
C3744 H3736 0.950 . S
C3744 C3745 1.386 . S
C3744 C3746 1.391 . S
C3745 C3744 1.386 . S
C3745 C3749 1.393 . S
C3746 H3738 0.950 . S
C3746 C3744 1.391 . S
C3746 C3747 1.400 . S
C3747 C3746 1.400 . S
C3747 C3748 1.398 . S
C3747 C3753 1.491 . S
C3748 H3739 0.950 . S
C3748 C3747 1.398 . S
C3748 C3749 1.391 . S
C3749 H3737 0.950 . S
C3749 C3745 1.393 . S
C3749 C3748 1.391 . S
C3750 H3740 0.950 . S
C3750 C3751 1.386 . S
C3750 C3752 1.391 . S
C3751 C3750 1.386 . S
C3751 C3755 1.393 . S
C3752 H3741 0.950 . S
C3752 C3750 1.391 . S
C3752 C3753 1.400 . S
C3753 C3747 1.491 . S
C3753 C3752 1.400 . S
C3753 C3754 1.398 . S
C3754 H3742 0.950 . S
C3754 C3753 1.398 . S
C3754 C3755 1.391 . S
C3755 H3743 0.950 . S
C3755 C3751 1.393 . S
C3755 C3754 1.391 . S
H3756 C3764 0.950 . S
H3757 C3769 0.950 . S
H3758 C3766 0.950 . S
H3759 C3768 0.950 . S
H3760 C3770 0.950 . S
H3761 C3772 0.950 . S
H3762 C3774 0.950 . S
H3763 C3775 0.950 . S
C3764 H3756 0.950 . S
C3764 C3765 1.386 . S
C3764 C3766 1.391 . S
C3765 C3764 1.386 . S
C3765 C3769 1.393 . S
C3766 H3758 0.950 . S
C3766 C3764 1.391 . S
C3766 C3767 1.400 . S
C3767 C3766 1.400 . S
C3767 C3768 1.398 . S
C3767 C3773 1.491 . S
C3768 H3759 0.950 . S
C3768 C3767 1.398 . S
C3768 C3769 1.391 . S
C3769 H3757 0.950 . S
C3769 C3765 1.393 . S
C3769 C3768 1.391 . S
C3770 H3760 0.950 . S
C3770 C3771 1.386 . S
C3770 C3772 1.391 . S
C3771 C3770 1.386 . S
C3771 C3775 1.393 . S
C3772 H3761 0.950 . S
C3772 C3770 1.391 . S
C3772 C3773 1.400 . S
C3773 C3767 1.491 . S
C3773 C3772 1.400 . S
C3773 C3774 1.398 . S
C3774 H3762 0.950 . S
C3774 C3773 1.398 . S
C3774 C3775 1.391 . S
C3775 H3763 0.950 . S
C3775 C3771 1.393 . S
C3775 C3774 1.391 . S
H3776 C3784 0.948 1_556 S
H3777 C3789 0.950 1_556 S
H3778 C3786 0.950 1_545 S
H3779 C3788 0.950 . S
H3780 C3790 0.950 . S
H3781 C3792 0.950 . S
H3782 C3794 0.950 . S
H3783 C3795 0.950 . S
C3784 H3776 0.948 1_554 S
C3784 C3785 1.385 1_554 S
C3784 C3786 1.391 . S
C3785 C3784 1.385 1_556 S
C3785 C3789 1.382 1_556 S
C3786 H3778 0.950 1_565 S
C3786 C3784 1.391 . S
C3786 C3787 1.400 . S
C3787 C3786 1.400 . S
C3787 C3788 1.398 . S
C3787 C3793 1.491 . S
C3788 H3779 0.950 . S
C3788 C3787 1.398 . S
C3788 C3789 1.391 . S
C3789 H3777 0.950 1_554 S
C3789 C3785 1.382 1_554 S
C3789 C3788 1.391 . S
C3790 H3780 0.950 . S
C3790 C3791 1.386 . S
C3790 C3792 1.391 . S
C3791 C3790 1.386 . S
C3791 C3795 1.393 1_565 S
C3792 H3781 0.950 . S
C3792 C3790 1.391 . S
C3792 C3793 1.400 . S
C3793 C3787 1.491 . S
C3793 C3792 1.400 . S
C3793 C3794 1.398 1_565 S
C3794 H3782 0.950 . S
C3794 C3793 1.398 1_545 S
C3794 C3795 1.391 . S
C3795 H3783 0.950 . S
C3795 C3791 1.393 1_545 S
C3795 C3794 1.391 . S
H3796 C3804 0.950 . S
H3797 C3809 0.950 . S
H3798 C3806 0.950 . S
H3799 C3808 0.950 . S
H3800 C3810 0.950 . S
H3801 C3812 0.950 . S
H3802 C3814 0.950 . S
H3803 C3815 0.950 . S
C3804 H3796 0.950 . S
C3804 C3805 1.386 1_556 S
C3804 C3806 1.391 . S
C3805 C3804 1.386 1_554 S
C3805 C3809 1.393 . S
C3806 H3798 0.950 . S
C3806 C3804 1.391 . S
C3806 C3807 1.400 1_556 S
C3807 C3806 1.400 1_554 S
C3807 C3808 1.398 . S
C3807 C3813 1.491 . S
C3808 H3799 0.950 . S
C3808 C3807 1.398 . S
C3808 C3809 1.391 . S
C3809 H3797 0.950 . S
C3809 C3805 1.393 . S
C3809 C3808 1.391 . S
C3810 H3800 0.950 . S
C3810 C3811 1.386 . S
C3810 C3812 1.391 . S
C3811 C3810 1.386 . S
C3811 C3815 1.393 1_554 S
C3812 H3801 0.950 . S
C3812 C3810 1.391 . S
C3812 C3813 1.400 . S
C3813 C3807 1.491 . S
C3813 C3812 1.400 . S
C3813 C3814 1.398 1_554 S
C3814 H3802 0.950 . S
C3814 C3813 1.398 1_556 S
C3814 C3815 1.391 . S
C3815 H3803 0.950 . S
C3815 C3811 1.393 1_556 S
C3815 C3814 1.391 . S
H3816 C3824 0.950 . S
H3817 C3829 0.950 . S
H3818 C3826 0.950 . S
H3819 C3828 0.950 . S
H3820 C3830 0.950 . S
H3821 C3832 0.950 . S
H3822 C3834 0.950 . S
H3823 C3835 0.950 . S
C3824 H3816 0.950 . S
C3824 C3825 1.386 . S
C3824 C3826 1.391 . S
C3825 C3824 1.386 . S
C3825 C3829 1.393 . S
C3826 H3818 0.950 . S
C3826 C3824 1.391 . S
C3826 C3827 1.400 . S
C3827 C3826 1.400 . S
C3827 C3828 1.398 . S
C3827 C3833 1.491 . S
C3828 H3819 0.950 . S
C3828 C3827 1.398 . S
C3828 C3829 1.391 . S
C3829 H3817 0.950 . S
C3829 C3825 1.393 . S
C3829 C3828 1.391 . S
C3830 H3820 0.950 . S
C3830 C3831 1.386 . S
C3830 C3832 1.391 . S
C3831 C3830 1.386 . S
C3831 C3835 1.393 . S
C3832 H3821 0.950 . S
C3832 C3830 1.391 . S
C3832 C3833 1.400 . S
C3833 C3827 1.491 . S
C3833 C3832 1.400 . S
C3833 C3834 1.398 . S
C3834 H3822 0.950 . S
C3834 C3833 1.398 . S
C3834 C3835 1.391 . S
C3835 H3823 0.950 . S
C3835 C3831 1.393 . S
C3835 C3834 1.391 . S
H3836 C3844 0.950 . S
H3837 C3849 0.950 . S
H3838 C3846 0.950 . S
H3839 C3848 0.950 . S
H3840 C3850 0.950 . S
H3841 C3852 0.950 . S
H3842 C3854 0.950 . S
H3843 C3855 0.950 . S
C3844 H3836 0.950 . S
C3844 C3845 1.386 . S
C3844 C3846 1.391 . S
C3845 C3844 1.386 . S
C3845 C3849 1.393 . S
C3846 H3838 0.950 . S
C3846 C3844 1.391 . S
C3846 C3847 1.400 . S
C3847 C3846 1.400 . S
C3847 C3848 1.398 . S
C3847 C3853 1.491 . S
C3848 H3839 0.950 . S
C3848 C3847 1.398 . S
C3848 C3849 1.391 . S
C3849 H3837 0.950 . S
C3849 C3845 1.393 . S
C3849 C3848 1.391 . S
C3850 H3840 0.950 . S
C3850 C3851 1.386 . S
C3850 C3852 1.391 . S
C3851 C3850 1.386 . S
C3851 C3855 1.393 . S
C3852 H3841 0.950 . S
C3852 C3850 1.391 . S
C3852 C3853 1.400 . S
C3853 C3847 1.491 . S
C3853 C3852 1.400 . S
C3853 C3854 1.398 . S
C3854 H3842 0.950 . S
C3854 C3853 1.398 . S
C3854 C3855 1.391 . S
C3855 H3843 0.950 . S
C3855 C3851 1.393 . S
C3855 C3854 1.391 . S
H3856 C3864 0.950 . S
H3857 C3869 0.950 . S
H3858 C3866 0.950 . S
H3859 C3868 0.950 . S
H3860 C3870 0.950 . S
H3861 C3872 0.950 . S
H3862 C3874 0.950 . S
H3863 C3875 0.950 . S
C3864 H3856 0.950 . S
C3864 C3865 1.386 . S
C3864 C3866 1.391 . S
C3865 C3864 1.386 . S
C3865 C3869 1.393 . S
C3866 H3858 0.950 . S
C3866 C3864 1.391 . S
C3866 C3867 1.400 . S
C3867 C3866 1.400 . S
C3867 C3868 1.398 . S
C3867 C3873 1.491 . S
C3868 H3859 0.950 . S
C3868 C3867 1.398 . S
C3868 C3869 1.391 . S
C3869 H3857 0.950 . S
C3869 C3865 1.393 . S
C3869 C3868 1.391 . S
C3870 H3860 0.950 . S
C3870 C3871 1.386 . S
C3870 C3872 1.391 . S
C3871 C3870 1.386 . S
C3871 C3875 1.393 . S
C3872 H3861 0.950 . S
C3872 C3870 1.391 . S
C3872 C3873 1.400 . S
C3873 C3867 1.491 . S
C3873 C3872 1.400 . S
C3873 C3874 1.398 . S
C3874 H3862 0.950 . S
C3874 C3873 1.398 . S
C3874 C3875 1.391 . S
C3875 H3863 0.950 . S
C3875 C3871 1.393 . S
C3875 C3874 1.391 . S
H3876 C3884 0.950 . S
H3877 C3889 0.950 . S
H3878 C3886 0.950 . S
H3879 C3888 0.950 . S
H3880 C3890 0.950 . S
H3881 C3892 0.950 . S
H3882 C3894 0.950 . S
H3883 C3895 0.950 . S
C3884 H3876 0.950 . S
C3884 C3885 1.386 . S
C3884 C3886 1.391 . S
C3885 C3884 1.386 . S
C3885 C3889 1.393 . S
C3886 H3878 0.950 . S
C3886 C3884 1.391 . S
C3886 C3887 1.400 . S
C3887 C3886 1.400 . S
C3887 C3888 1.398 . S
C3887 C3893 1.491 . S
C3888 H3879 0.950 . S
C3888 C3887 1.398 . S
C3888 C3889 1.391 . S
C3889 H3877 0.950 . S
C3889 C3885 1.393 . S
C3889 C3888 1.391 . S
C3890 H3880 0.950 . S
C3890 C3891 1.386 . S
C3890 C3892 1.391 . S
C3891 C3890 1.386 . S
C3891 C3895 1.393 . S
C3892 H3881 0.950 . S
C3892 C3890 1.391 . S
C3892 C3893 1.400 . S
C3893 C3887 1.491 . S
C3893 C3892 1.400 . S
C3893 C3894 1.398 . S
C3894 H3882 0.950 . S
C3894 C3893 1.398 . S
C3894 C3895 1.391 . S
C3895 H3883 0.950 . S
C3895 C3891 1.393 . S
C3895 C3894 1.391 . S
H3896 C3904 0.950 . S
H3897 C3909 0.950 . S
H3898 C3906 0.950 . S
H3899 C3908 0.950 . S
H3900 C3910 0.950 . S
H3901 C3912 0.950 . S
H3902 C3914 0.950 . S
H3903 C3915 0.950 . S
C3904 H3896 0.950 . S
C3904 C3905 1.386 . S
C3904 C3906 1.391 . S
C3905 C3904 1.386 . S
C3905 C3909 1.393 . S
C3906 H3898 0.950 . S
C3906 C3904 1.391 . S
C3906 C3907 1.400 . S
C3907 C3906 1.400 . S
C3907 C3908 1.398 . S
C3907 C3913 1.491 . S
C3908 H3899 0.950 . S
C3908 C3907 1.398 . S
C3908 C3909 1.391 . S
C3909 H3897 0.950 . S
C3909 C3905 1.393 . S
C3909 C3908 1.391 . S
C3910 H3900 0.950 . S
C3910 C3911 1.386 . S
C3910 C3912 1.391 . S
C3911 C3910 1.386 . S
C3911 C3915 1.393 . S
C3912 H3901 0.950 . S
C3912 C3910 1.391 . S
C3912 C3913 1.400 . S
C3913 C3907 1.491 . S
C3913 C3912 1.400 . S
C3913 C3914 1.398 . S
C3914 H3902 0.950 . S
C3914 C3913 1.398 . S
C3914 C3915 1.391 . S
C3915 H3903 0.950 . S
C3915 C3911 1.393 . S
C3915 C3914 1.391 . S
H3916 C3924 0.950 . S
H3917 C3929 0.950 . S
H3918 C3926 0.950 . S
H3919 C3928 0.950 . S
H3920 C3930 0.950 . S
H3921 C3932 0.950 . S
H3922 C3934 0.950 . S
H3923 C3935 0.950 . S
C3924 H3916 0.950 . S
C3924 C3925 1.386 . S
C3924 C3926 1.391 . S
C3925 C3924 1.386 . S
C3925 C3929 1.393 . S
C3926 H3918 0.950 . S
C3926 C3924 1.391 . S
C3926 C3927 1.400 . S
C3927 C3926 1.400 . S
C3927 C3928 1.398 . S
C3927 C3933 1.491 . S
C3928 H3919 0.950 . S
C3928 C3927 1.398 . S
C3928 C3929 1.391 . S
C3929 H3917 0.950 . S
C3929 C3925 1.393 . S
C3929 C3928 1.391 . S
C3930 H3920 0.950 . S
C3930 C3931 1.386 . S
C3930 C3932 1.391 . S
C3931 C3930 1.386 . S
C3931 C3935 1.393 . S
C3932 H3921 0.950 . S
C3932 C3930 1.391 . S
C3932 C3933 1.400 . S
C3933 C3927 1.491 . S
C3933 C3932 1.400 . S
C3933 C3934 1.398 . S
C3934 H3922 0.950 . S
C3934 C3933 1.398 . S
C3934 C3935 1.391 . S
C3935 H3923 0.950 . S
C3935 C3931 1.393 . S
C3935 C3934 1.391 . S
H3936 C3944 0.950 . S
H3937 C3949 0.950 . S
H3938 C3946 0.950 . S
H3939 C3948 0.950 . S
H3940 C3950 0.950 . S
H3941 C3952 0.950 . S
H3942 C3954 0.950 . S
H3943 C3955 0.950 . S
C3944 H3936 0.950 . S
C3944 C3945 1.386 . S
C3944 C3946 1.391 . S
C3945 C3944 1.386 . S
C3945 C3949 1.393 . S
C3946 H3938 0.950 . S
C3946 C3944 1.391 . S
C3946 C3947 1.400 . S
C3947 C3946 1.400 . S
C3947 C3948 1.398 . S
C3947 C3953 1.491 . S
C3948 H3939 0.950 . S
C3948 C3947 1.398 . S
C3948 C3949 1.391 . S
C3949 H3937 0.950 . S
C3949 C3945 1.393 . S
C3949 C3948 1.391 . S
C3950 H3940 0.950 . S
C3950 C3951 1.386 . S
C3950 C3952 1.391 . S
C3951 C3950 1.386 . S
C3951 C3955 1.393 . S
C3952 H3941 0.950 . S
C3952 C3950 1.391 . S
C3952 C3953 1.400 . S
C3953 C3947 1.491 . S
C3953 C3952 1.400 . S
C3953 C3954 1.398 . S
C3954 H3942 0.950 . S
C3954 C3953 1.398 . S
C3954 C3955 1.391 . S
C3955 H3943 0.950 . S
C3955 C3951 1.393 . S
C3955 C3954 1.391 . S
H3956 C3964 0.950 . S
H3957 C3969 0.950 . S
H3958 C3966 0.950 . S
H3959 C3968 0.950 . S
H3960 C3970 0.950 . S
H3961 C3972 0.950 . S
H3962 C3974 0.950 . S
H3963 C3975 0.950 . S
C3964 H3956 0.950 . S
C3964 C3965 1.386 . S
C3964 C3966 1.391 . S
C3965 C3964 1.386 . S
C3965 C3969 1.393 . S
C3966 H3958 0.950 . S
C3966 C3964 1.391 . S
C3966 C3967 1.400 . S
C3967 C3966 1.400 . S
C3967 C3968 1.398 . S
C3967 C3973 1.491 . S
C3968 H3959 0.950 . S
C3968 C3967 1.398 . S
C3968 C3969 1.391 . S
C3969 H3957 0.950 . S
C3969 C3965 1.393 . S
C3969 C3968 1.391 . S
C3970 H3960 0.950 . S
C3970 C3971 1.386 . S
C3970 C3972 1.391 . S
C3971 C3970 1.386 . S
C3971 C3975 1.393 . S
C3972 H3961 0.950 . S
C3972 C3970 1.391 . S
C3972 C3973 1.400 . S
C3973 C3967 1.491 . S
C3973 C3972 1.400 . S
C3973 C3974 1.398 . S
C3974 H3962 0.950 . S
C3974 C3973 1.398 . S
C3974 C3975 1.391 . S
C3975 H3963 0.950 . S
C3975 C3971 1.393 . S
C3975 C3974 1.391 . S
H3976 C3984 0.950 . S
H3977 C3989 0.950 . S
H3978 C3986 0.950 . S
H3979 C3988 0.950 . S
H3980 C3990 0.950 . S
H3981 C3992 0.950 . S
H3982 C3994 0.950 . S
H3983 C3995 0.950 . S
C3984 H3976 0.950 . S
C3984 C3985 1.386 . S
C3984 C3986 1.391 . S
C3985 C3984 1.386 . S
C3985 C3989 1.393 . S
C3986 H3978 0.950 . S
C3986 C3984 1.391 . S
C3986 C3987 1.400 . S
C3987 C3986 1.400 . S
C3987 C3988 1.398 . S
C3987 C3993 1.491 . S
C3988 H3979 0.950 . S
C3988 C3987 1.398 . S
C3988 C3989 1.391 . S
C3989 H3977 0.950 . S
C3989 C3985 1.393 . S
C3989 C3988 1.391 . S
C3990 H3980 0.950 . S
C3990 C3991 1.386 . S
C3990 C3992 1.391 . S
C3991 C3990 1.386 . S
C3991 C3995 1.393 . S
C3992 H3981 0.950 . S
C3992 C3990 1.391 . S
C3992 C3993 1.400 . S
C3993 C3987 1.491 . S
C3993 C3992 1.400 . S
C3993 C3994 1.398 . S
C3994 H3982 0.950 . S
C3994 C3993 1.398 . S
C3994 C3995 1.391 . S
C3995 H3983 0.950 . S
C3995 C3991 1.393 . S
C3995 C3994 1.391 . S
H3996 C4004 0.950 . S
H3997 C4009 0.950 . S
H3998 C4006 0.950 . S
H3999 C4008 0.950 . S
H4000 C4010 0.950 . S
H4001 C4012 0.950 . S
H4002 C4014 0.950 . S
H4003 C4015 0.950 . S
C4004 H3996 0.950 . S
C4004 C4005 1.386 . S
C4004 C4006 1.391 . S
C4005 C4004 1.386 . S
C4005 C4009 1.393 . S
C4006 H3998 0.950 . S
C4006 C4004 1.391 . S
C4006 C4007 1.400 . S
C4007 C4006 1.400 . S
C4007 C4008 1.398 . S
C4007 C4013 1.491 . S
C4008 H3999 0.950 . S
C4008 C4007 1.398 . S
C4008 C4009 1.391 . S
C4009 H3997 0.950 . S
C4009 C4005 1.393 . S
C4009 C4008 1.391 . S
C4010 H4000 0.950 . S
C4010 C4011 1.386 . S
C4010 C4012 1.391 . S
C4011 C4010 1.386 . S
C4011 C4015 1.393 . S
C4012 H4001 0.950 . S
C4012 C4010 1.391 . S
C4012 C4013 1.400 . S
C4013 C4007 1.491 . S
C4013 C4012 1.400 . S
C4013 C4014 1.398 . S
C4014 H4002 0.950 . S
C4014 C4013 1.398 . S
C4014 C4015 1.391 . S
C4015 H4003 0.950 . S
C4015 C4011 1.393 . S
C4015 C4014 1.391 . S
H4016 C4024 0.950 . S
H4017 C4029 0.950 . S
H4018 C4026 0.950 . S
H4019 C4028 0.950 . S
H4020 C4030 0.950 . S
H4021 C4032 0.950 . S
H4022 C4034 0.950 . S
H4023 C4035 0.950 . S
C4024 H4016 0.950 . S
C4024 C4025 1.386 . S
C4024 C4026 1.391 . S
C4025 C4024 1.386 . S
C4025 C4029 1.393 . S
C4026 H4018 0.950 . S
C4026 C4024 1.391 . S
C4026 C4027 1.400 . S
C4027 C4026 1.400 . S
C4027 C4028 1.398 . S
C4027 C4033 1.491 . S
C4028 H4019 0.950 . S
C4028 C4027 1.398 . S
C4028 C4029 1.391 . S
C4029 H4017 0.950 . S
C4029 C4025 1.393 . S
C4029 C4028 1.391 . S
C4030 H4020 0.950 . S
C4030 C4031 1.386 . S
C4030 C4032 1.391 . S
C4031 C4030 1.386 . S
C4031 C4035 1.393 . S
C4032 H4021 0.950 . S
C4032 C4030 1.391 . S
C4032 C4033 1.400 . S
C4033 C4027 1.491 . S
C4033 C4032 1.400 . S
C4033 C4034 1.398 . S
C4034 H4022 0.950 . S
C4034 C4033 1.398 . S
C4034 C4035 1.391 . S
C4035 H4023 0.950 . S
C4035 C4031 1.393 . S
C4035 C4034 1.391 . S
H4036 C4044 0.950 . S
H4037 C4049 0.950 . S
H4038 C4046 0.950 . S
H4039 C4048 0.950 . S
H4040 C4050 0.950 . S
H4041 C4052 0.950 . S
H4042 C4054 0.950 . S
H4043 C4055 0.950 . S
C4044 H4036 0.950 . S
C4044 C4045 1.386 . S
C4044 C4046 1.391 . S
C4045 C4044 1.386 . S
C4045 C4049 1.393 . S
C4046 H4038 0.950 . S
C4046 C4044 1.391 . S
C4046 C4047 1.400 . S
C4047 C4046 1.400 . S
C4047 C4048 1.398 . S
C4047 C4053 1.491 . S
C4048 H4039 0.950 . S
C4048 C4047 1.398 . S
C4048 C4049 1.391 . S
C4049 H4037 0.950 . S
C4049 C4045 1.393 . S
C4049 C4048 1.391 . S
C4050 H4040 0.950 . S
C4050 C4051 1.386 . S
C4050 C4052 1.391 . S
C4051 C4050 1.386 . S
C4051 C4055 1.393 . S
C4052 H4041 0.950 . S
C4052 C4050 1.391 . S
C4052 C4053 1.400 . S
C4053 C4047 1.491 . S
C4053 C4052 1.400 . S
C4053 C4054 1.398 . S
C4054 H4042 0.950 . S
C4054 C4053 1.398 . S
C4054 C4055 1.391 . S
C4055 H4043 0.950 . S
C4055 C4051 1.393 . S
C4055 C4054 1.391 . S
H4056 C4064 0.950 . S
H4057 C4069 0.950 . S
H4058 C4066 0.950 . S
H4059 C4068 0.950 . S
H4060 C4070 0.950 . S
H4061 C4072 0.950 . S
H4062 C4074 0.950 . S
H4063 C4075 0.950 . S
C4064 H4056 0.950 . S
C4064 C4065 1.386 . S
C4064 C4066 1.391 . S
C4065 C4064 1.386 . S
C4065 C4069 1.393 . S
C4066 H4058 0.950 . S
C4066 C4064 1.391 . S
C4066 C4067 1.400 . S
C4067 C4066 1.400 . S
C4067 C4068 1.398 . S
C4067 C4073 1.491 . S
C4068 H4059 0.950 . S
C4068 C4067 1.398 . S
C4068 C4069 1.391 . S
C4069 H4057 0.950 . S
C4069 C4065 1.393 . S
C4069 C4068 1.391 . S
C4070 H4060 0.950 . S
C4070 C4071 1.386 . S
C4070 C4072 1.391 . S
C4071 C4070 1.386 . S
C4071 C4075 1.393 . S
C4072 H4061 0.950 . S
C4072 C4070 1.391 . S
C4072 C4073 1.400 . S
C4073 C4067 1.491 . S
C4073 C4072 1.400 . S
C4073 C4074 1.398 . S
C4074 H4062 0.950 . S
C4074 C4073 1.398 . S
C4074 C4075 1.391 . S
C4075 H4063 0.950 . S
C4075 C4071 1.393 . S
C4075 C4074 1.391 . S
H4076 C4084 0.950 . S
H4077 C4089 0.950 . S
H4078 C4086 0.950 . S
H4079 C4088 0.950 . S
H4080 C4090 0.950 . S
H4081 C4092 0.950 . S
H4082 C4094 0.950 . S
H4083 C4095 0.950 . S
C4084 H4076 0.950 . S
C4084 C4085 1.386 . S
C4084 C4086 1.391 . S
C4085 C4084 1.386 . S
C4085 C4089 1.393 . S
C4086 H4078 0.950 . S
C4086 C4084 1.391 . S
C4086 C4087 1.400 . S
C4087 C4086 1.400 . S
C4087 C4088 1.398 . S
C4087 C4093 1.491 . S
C4088 H4079 0.950 . S
C4088 C4087 1.398 . S
C4088 C4089 1.391 . S
C4089 H4077 0.950 . S
C4089 C4085 1.393 . S
C4089 C4088 1.391 . S
C4090 H4080 0.950 . S
C4090 C4091 1.386 . S
C4090 C4092 1.391 . S
C4091 C4090 1.386 . S
C4091 C4095 1.393 . S
C4092 H4081 0.950 . S
C4092 C4090 1.391 . S
C4092 C4093 1.400 . S
C4093 C4087 1.491 . S
C4093 C4092 1.400 . S
C4093 C4094 1.398 . S
C4094 H4082 0.950 . S
C4094 C4093 1.398 . S
C4094 C4095 1.391 . S
C4095 H4083 0.950 . S
C4095 C4091 1.393 . S
C4095 C4094 1.391 . S
H4096 C4104 0.950 . S
H4097 C4109 0.950 . S
H4098 C4106 0.950 . S
H4099 C4108 0.950 . S
H4100 C4110 0.950 . S
H4101 C4112 0.950 . S
H4102 C4114 0.950 . S
H4103 C4115 0.950 . S
C4104 H4096 0.950 . S
C4104 C4105 1.386 . S
C4104 C4106 1.391 . S
C4105 C4104 1.386 . S
C4105 C4109 1.393 . S
C4106 H4098 0.950 . S
C4106 C4104 1.391 . S
C4106 C4107 1.400 . S
C4107 C4106 1.400 . S
C4107 C4108 1.398 . S
C4107 C4113 1.491 . S
C4108 H4099 0.950 . S
C4108 C4107 1.398 . S
C4108 C4109 1.391 . S
C4109 H4097 0.950 . S
C4109 C4105 1.393 . S
C4109 C4108 1.391 . S
C4110 H4100 0.950 . S
C4110 C4111 1.386 . S
C4110 C4112 1.391 . S
C4111 C4110 1.386 . S
C4111 C4115 1.393 . S
C4112 H4101 0.950 . S
C4112 C4110 1.391 . S
C4112 C4113 1.400 . S
C4113 C4107 1.491 . S
C4113 C4112 1.400 . S
C4113 C4114 1.398 . S
C4114 H4102 0.950 . S
C4114 C4113 1.398 . S
C4114 C4115 1.391 . S
C4115 H4103 0.950 . S
C4115 C4111 1.393 . S
C4115 C4114 1.391 . S
H4116 C4124 0.950 . S
H4117 C4129 0.950 . S
H4118 C4126 0.950 . S
H4119 C4128 0.950 . S
H4120 C4130 0.950 . S
H4121 C4132 0.950 . S
H4122 C4134 0.950 . S
H4123 C4135 0.950 . S
C4124 H4116 0.950 . S
C4124 C4125 1.386 . S
C4124 C4126 1.391 . S
C4125 C4124 1.386 . S
C4125 C4129 1.393 . S
C4126 H4118 0.950 . S
C4126 C4124 1.391 . S
C4126 C4127 1.400 . S
C4127 C4126 1.400 . S
C4127 C4128 1.398 . S
C4127 C4133 1.491 . S
C4128 H4119 0.950 . S
C4128 C4127 1.398 . S
C4128 C4129 1.391 . S
C4129 H4117 0.950 . S
C4129 C4125 1.393 . S
C4129 C4128 1.391 . S
C4130 H4120 0.950 . S
C4130 C4131 1.386 . S
C4130 C4132 1.391 . S
C4131 C4130 1.386 . S
C4131 C4135 1.393 . S
C4132 H4121 0.950 . S
C4132 C4130 1.391 . S
C4132 C4133 1.400 . S
C4133 C4127 1.491 . S
C4133 C4132 1.400 . S
C4133 C4134 1.398 . S
C4134 H4122 0.950 . S
C4134 C4133 1.398 . S
C4134 C4135 1.391 . S
C4135 H4123 0.950 . S
C4135 C4131 1.393 . S
C4135 C4134 1.391 . S
H4136 C4144 0.950 . S
H4137 C4149 0.950 1_565 S
H4138 C4146 0.950 . S
H4139 C4148 0.950 1_565 S
H4140 C4150 0.950 . S
H4141 C4152 0.916 1_565 S
H4142 C4154 0.950 . S
H4143 C4155 0.950 . S
C4144 H4136 0.950 . S
C4144 C4145 1.386 . S
C4144 C4146 1.391 . S
C4145 C4144 1.386 . S
C4145 C4149 1.393 . S
C4146 H4138 0.950 . S
C4146 C4144 1.391 . S
C4146 C4147 1.400 . S
C4147 C4146 1.400 . S
C4147 C4148 1.398 . S
C4147 C4153 1.491 . S
C4148 H4139 0.950 1_545 S
C4148 C4147 1.398 . S
C4148 C4149 1.391 . S
C4149 H4137 0.950 1_545 S
C4149 C4145 1.393 . S
C4149 C4148 1.391 . S
C4150 H4140 0.950 . S
C4150 C4151 1.386 . S
C4150 C4152 1.391 . S
C4151 C4150 1.386 . S
C4151 C4155 1.393 . S
C4152 H4141 0.916 1_545 S
C4152 C4150 1.391 . S
C4152 C4153 1.400 . S
C4153 C4147 1.491 . S
C4153 C4152 1.400 . S
C4153 C4154 1.398 . S
C4154 H4142 0.950 . S
C4154 C4153 1.398 . S
C4154 C4155 1.391 . S
C4155 H4143 0.950 . S
C4155 C4151 1.393 . S
C4155 C4154 1.391 . S
H4156 C4164 0.950 . S
H4157 C4169 0.950 . S
H4158 C4166 0.950 . S
H4159 C4168 0.950 . S
H4160 C4170 0.950 . S
H4161 C4172 0.950 . S
H4162 C4174 0.950 . S
H4163 C4175 0.950 . S
C4164 H4156 0.950 . S
C4164 C4165 1.386 . S
C4164 C4166 1.391 . S
C4165 C4164 1.386 . S
C4165 C4169 1.393 . S
C4166 H4158 0.950 . S
C4166 C4164 1.391 . S
C4166 C4167 1.400 . S
C4167 C4166 1.400 . S
C4167 C4168 1.398 . S
C4167 C4173 1.491 . S
C4168 H4159 0.950 . S
C4168 C4167 1.398 . S
C4168 C4169 1.391 . S
C4169 H4157 0.950 . S
C4169 C4165 1.393 . S
C4169 C4168 1.391 . S
C4170 H4160 0.950 . S
C4170 C4171 1.386 . S
C4170 C4172 1.391 . S
C4171 C4170 1.386 . S
C4171 C4175 1.393 . S
C4172 H4161 0.950 . S
C4172 C4170 1.391 . S
C4172 C4173 1.400 . S
C4173 C4167 1.491 . S
C4173 C4172 1.400 . S
C4173 C4174 1.398 . S
C4174 H4162 0.950 . S
C4174 C4173 1.398 . S
C4174 C4175 1.391 . S
C4175 H4163 0.950 . S
C4175 C4171 1.393 . S
C4175 C4174 1.391 . S
H4176 C4184 0.950 . S
H4177 C4189 0.950 1_565 S
H4178 C4186 0.950 . S
H4179 C4188 0.950 1_565 S
H4180 C4190 0.935 1_565 S
H4181 C4192 0.950 1_565 S
H4182 C4194 0.950 . S
H4183 C4195 0.950 . S
C4184 H4176 0.950 . S
C4184 C4185 1.386 . S
C4184 C4186 1.391 . S
C4185 C4184 1.386 . S
C4185 C4189 1.393 . S
C4186 H4178 0.950 . S
C4186 C4184 1.391 . S
C4186 C4187 1.400 . S
C4187 C4186 1.400 . S
C4187 C4188 1.398 . S
C4187 C4193 1.491 . S
C4188 H4179 0.950 1_545 S
C4188 C4187 1.398 . S
C4188 C4189 1.391 . S
C4189 H4177 0.950 1_545 S
C4189 C4185 1.393 . S
C4189 C4188 1.391 . S
C4190 H4180 0.935 1_545 S
C4190 C4191 1.386 . S
C4190 C4192 1.391 . S
C4191 C4190 1.386 . S
C4191 C4195 1.393 . S
C4192 H4181 0.950 1_545 S
C4192 C4190 1.391 . S
C4192 C4193 1.400 . S
C4193 C4187 1.491 . S
C4193 C4192 1.400 . S
C4193 C4194 1.398 . S
C4194 H4182 0.950 . S
C4194 C4193 1.398 . S
C4194 C4195 1.391 . S
C4195 H4183 0.950 . S
C4195 C4191 1.393 . S
C4195 C4194 1.391 . S
H4196 C4204 0.950 . S
H4197 C4209 0.950 . S
H4198 C4206 0.950 . S
H4199 C4208 0.950 . S
H4200 C4210 0.950 . S
H4201 C4212 0.950 . S
H4202 C4214 0.950 . S
H4203 C4215 0.950 . S
C4204 H4196 0.950 . S
C4204 C4205 1.386 . S
C4204 C4206 1.391 . S
C4205 C4204 1.386 . S
C4205 C4209 1.393 . S
C4206 H4198 0.950 . S
C4206 C4204 1.391 . S
C4206 C4207 1.400 . S
C4207 C4206 1.400 . S
C4207 C4208 1.398 . S
C4207 C4213 1.491 . S
C4208 H4199 0.950 . S
C4208 C4207 1.398 . S
C4208 C4209 1.391 . S
C4209 H4197 0.950 . S
C4209 C4205 1.393 . S
C4209 C4208 1.391 . S
C4210 H4200 0.950 . S
C4210 C4211 1.386 . S
C4210 C4212 1.391 . S
C4211 C4210 1.386 . S
C4211 C4215 1.393 . S
C4212 H4201 0.950 . S
C4212 C4210 1.391 . S
C4212 C4213 1.400 . S
C4213 C4207 1.491 . S
C4213 C4212 1.400 . S
C4213 C4214 1.398 . S
C4214 H4202 0.950 . S
C4214 C4213 1.398 . S
C4214 C4215 1.391 . S
C4215 H4203 0.950 . S
C4215 C4211 1.393 . S
C4215 C4214 1.391 . S
H4216 C4224 0.950 . S
H4217 C4229 0.950 . S
H4218 C4226 0.950 . S
H4219 C4228 0.950 . S
H4220 C4230 0.950 . S
H4221 C4232 0.950 . S
H4222 C4234 0.950 . S
H4223 C4235 0.950 . S
C4224 H4216 0.950 . S
C4224 C4225 1.386 . S
C4224 C4226 1.391 . S
C4225 C4224 1.386 . S
C4225 C4229 1.393 1_545 S
C4226 H4218 0.950 . S
C4226 C4224 1.391 . S
C4226 C4227 1.400 . S
C4227 C4226 1.400 . S
C4227 C4228 1.398 1_545 S
C4227 C4233 1.491 . S
C4228 H4219 0.950 . S
C4228 C4227 1.398 1_565 S
C4228 C4229 1.391 . S
C4229 H4217 0.950 . S
C4229 C4225 1.393 1_565 S
C4229 C4228 1.391 . S
C4230 H4220 0.950 . S
C4230 C4231 1.386 1_565 S
C4230 C4232 1.391 . S
C4231 C4230 1.386 1_545 S
C4231 C4235 1.393 . S
C4232 H4221 0.950 . S
C4232 C4230 1.391 . S
C4232 C4233 1.400 1_565 S
C4233 C4227 1.491 . S
C4233 C4232 1.400 1_545 S
C4233 C4234 1.398 . S
C4234 H4222 0.950 . S
C4234 C4233 1.398 . S
C4234 C4235 1.391 . S
C4235 H4223 0.950 . S
C4235 C4231 1.393 . S
C4235 C4234 1.391 . S
H4236 C4244 0.950 . S
H4237 C4249 0.950 . S
H4238 C4246 0.950 . S
H4239 C4248 0.950 . S
H4240 C4250 0.950 . S
H4241 C4252 0.950 . S
H4242 C4254 0.950 . S
H4243 C4255 0.950 . S
C4244 H4236 0.950 . S
C4244 C4245 1.386 . S
C4244 C4246 1.391 . S
C4245 C4244 1.386 . S
C4245 C4249 1.393 . S
C4246 H4238 0.950 . S
C4246 C4244 1.391 . S
C4246 C4247 1.400 . S
C4247 C4246 1.400 . S
C4247 C4248 1.398 . S
C4247 C4253 1.491 . S
C4248 H4239 0.950 . S
C4248 C4247 1.398 . S
C4248 C4249 1.391 . S
C4249 H4237 0.950 . S
C4249 C4245 1.393 . S
C4249 C4248 1.391 . S
C4250 H4240 0.950 . S
C4250 C4251 1.386 . S
C4250 C4252 1.391 . S
C4251 C4250 1.386 . S
C4251 C4255 1.393 . S
C4252 H4241 0.950 . S
C4252 C4250 1.391 . S
C4252 C4253 1.400 . S
C4253 C4247 1.491 . S
C4253 C4252 1.400 . S
C4253 C4254 1.398 . S
C4254 H4242 0.950 . S
C4254 C4253 1.398 . S
C4254 C4255 1.391 . S
C4255 H4243 0.950 . S
C4255 C4251 1.393 . S
C4255 C4254 1.391 . S
H4256 C4264 0.950 . S
H4257 C4269 0.950 . S
H4258 C4266 0.950 . S
H4259 C4268 0.950 . S
H4260 C4270 0.950 . S
H4261 C4272 0.950 . S
H4262 C4274 0.967 . S
H4263 C4275 0.950 1_556 S
C4264 H4256 0.950 . S
C4264 C4265 1.386 . S
C4264 C4266 1.391 . S
C4265 C4264 1.386 . S
C4265 C4269 1.393 . S
C4266 H4258 0.950 . S
C4266 C4264 1.391 . S
C4266 C4267 1.400 . S
C4267 C4266 1.400 . S
C4267 C4268 1.398 . S
C4267 C4273 1.491 . S
C4268 H4259 0.950 . S
C4268 C4267 1.398 . S
C4268 C4269 1.391 . S
C4269 H4257 0.950 . S
C4269 C4265 1.393 . S
C4269 C4268 1.391 . S
C4270 H4260 0.950 . S
C4270 C4271 1.386 . S
C4270 C4272 1.391 . S
C4271 C4270 1.386 . S
C4271 C4275 1.393 . S
C4272 H4261 0.950 . S
C4272 C4270 1.391 . S
C4272 C4273 1.400 . S
C4273 C4267 1.491 . S
C4273 C4272 1.400 . S
C4273 C4274 1.398 . S
C4274 H4262 0.967 . S
C4274 C4273 1.398 . S
C4274 C4275 1.391 . S
C4275 H4263 0.950 1_554 S
C4275 C4271 1.393 . S
C4275 C4274 1.391 . S
H4276 C4284 0.950 . S
H4277 C4289 0.950 . S
H4278 C4286 0.950 . S
H4279 C4288 0.950 . S
H4280 C4290 0.950 . S
H4281 C4292 0.950 . S
H4282 C4294 0.950 . S
H4283 C4295 0.950 . S
C4284 H4276 0.950 . S
C4284 C4285 1.386 . S
C4284 C4286 1.391 . S
C4285 C4284 1.386 . S
C4285 C4289 1.393 . S
C4286 H4278 0.950 . S
C4286 C4284 1.391 . S
C4286 C4287 1.400 . S
C4287 C4286 1.400 . S
C4287 C4288 1.398 . S
C4287 C4293 1.491 . S
C4288 H4279 0.950 . S
C4288 C4287 1.398 . S
C4288 C4289 1.391 . S
C4289 H4277 0.950 . S
C4289 C4285 1.393 . S
C4289 C4288 1.391 . S
C4290 H4280 0.950 . S
C4290 C4291 1.386 . S
C4290 C4292 1.391 . S
C4291 C4290 1.386 . S
C4291 C4295 1.393 . S
C4292 H4281 0.950 . S
C4292 C4290 1.391 . S
C4292 C4293 1.400 . S
C4293 C4287 1.491 . S
C4293 C4292 1.400 . S
C4293 C4294 1.398 . S
C4294 H4282 0.950 . S
C4294 C4293 1.398 . S
C4294 C4295 1.391 . S
C4295 H4283 0.950 . S
C4295 C4291 1.393 . S
C4295 C4294 1.391 . S
H4296 C4304 0.950 . S
H4297 C4309 0.950 . S
H4298 C4306 0.950 . S
H4299 C4308 0.950 . S
H4300 C4310 0.950 . S
H4301 C4312 0.950 . S
H4302 C4314 0.950 . S
H4303 C4315 0.950 . S
C4304 H4296 0.950 . S
C4304 C4305 1.386 . S
C4304 C4306 1.391 . S
C4305 C4304 1.386 . S
C4305 C4309 1.393 . S
C4306 H4298 0.950 . S
C4306 C4304 1.391 . S
C4306 C4307 1.400 . S
C4307 C4306 1.400 . S
C4307 C4308 1.398 . S
C4307 C4313 1.491 . S
C4308 H4299 0.950 . S
C4308 C4307 1.398 . S
C4308 C4309 1.391 . S
C4309 H4297 0.950 . S
C4309 C4305 1.393 . S
C4309 C4308 1.391 . S
C4310 H4300 0.950 . S
C4310 C4311 1.386 . S
C4310 C4312 1.391 . S
C4311 C4310 1.386 . S
C4311 C4315 1.393 . S
C4312 H4301 0.950 . S
C4312 C4310 1.391 . S
C4312 C4313 1.400 . S
C4313 C4307 1.491 . S
C4313 C4312 1.400 . S
C4313 C4314 1.398 . S
C4314 H4302 0.950 . S
C4314 C4313 1.398 . S
C4314 C4315 1.391 . S
C4315 H4303 0.950 . S
C4315 C4311 1.393 . S
C4315 C4314 1.391 . S
H4316 C4324 0.950 . S
H4317 C4329 0.950 . S
H4318 C4326 0.950 . S
H4319 C4328 0.950 . S
H4320 C4330 0.950 . S
H4321 C4332 0.950 . S
H4322 C4334 0.950 . S
H4323 C4335 0.950 . S
C4324 H4316 0.950 . S
C4324 C4325 1.386 . S
C4324 C4326 1.391 . S
C4325 C4324 1.386 . S
C4325 C4329 1.393 . S
C4326 H4318 0.950 . S
C4326 C4324 1.391 . S
C4326 C4327 1.400 . S
C4327 C4326 1.400 . S
C4327 C4328 1.398 . S
C4327 C4333 1.491 . S
C4328 H4319 0.950 . S
C4328 C4327 1.398 . S
C4328 C4329 1.391 . S
C4329 H4317 0.950 . S
C4329 C4325 1.393 . S
C4329 C4328 1.391 . S
C4330 H4320 0.950 . S
C4330 C4331 1.386 . S
C4330 C4332 1.391 . S
C4331 C4330 1.386 . S
C4331 C4335 1.393 . S
C4332 H4321 0.950 . S
C4332 C4330 1.391 . S
C4332 C4333 1.400 . S
C4333 C4327 1.491 . S
C4333 C4332 1.400 . S
C4333 C4334 1.398 . S
C4334 H4322 0.950 . S
C4334 C4333 1.398 . S
C4334 C4335 1.391 . S
C4335 H4323 0.950 . S
C4335 C4331 1.393 . S
C4335 C4334 1.391 . S
H4336 C4344 0.950 . S
H4337 C4349 0.950 . S
H4338 C4346 0.950 . S
H4339 C4348 0.950 . S
H4340 C4350 0.950 . S
H4341 C4352 0.950 . S
H4342 C4354 0.950 . S
H4343 C4355 0.950 . S
C4344 H4336 0.950 . S
C4344 C4345 1.386 . S
C4344 C4346 1.391 . S
C4345 C4344 1.386 . S
C4345 C4349 1.393 . S
C4346 H4338 0.950 . S
C4346 C4344 1.391 . S
C4346 C4347 1.400 . S
C4347 C4346 1.400 . S
C4347 C4348 1.398 . S
C4347 C4353 1.491 . S
C4348 H4339 0.950 . S
C4348 C4347 1.398 . S
C4348 C4349 1.391 . S
C4349 H4337 0.950 . S
C4349 C4345 1.393 . S
C4349 C4348 1.391 . S
C4350 H4340 0.950 . S
C4350 C4351 1.386 . S
C4350 C4352 1.391 . S
C4351 C4350 1.386 . S
C4351 C4355 1.393 . S
C4352 H4341 0.950 . S
C4352 C4350 1.391 . S
C4352 C4353 1.400 . S
C4353 C4347 1.491 . S
C4353 C4352 1.400 . S
C4353 C4354 1.398 . S
C4354 H4342 0.950 . S
C4354 C4353 1.398 . S
C4354 C4355 1.391 . S
C4355 H4343 0.950 . S
C4355 C4351 1.393 . S
C4355 C4354 1.391 . S
H4356 C4364 0.950 . S
H4357 C4369 0.950 . S
H4358 C4366 0.950 . S
H4359 C4368 0.950 . S
H4360 C4370 0.950 . S
H4361 C4372 0.950 . S
H4362 C4374 0.950 . S
H4363 C4375 0.950 . S
C4364 H4356 0.950 . S
C4364 C4365 1.386 . S
C4364 C4366 1.391 . S
C4365 C4364 1.386 . S
C4365 C4369 1.393 . S
C4366 H4358 0.950 . S
C4366 C4364 1.391 . S
C4366 C4367 1.400 . S
C4367 C4366 1.400 . S
C4367 C4368 1.398 . S
C4367 C4373 1.491 . S
C4368 H4359 0.950 . S
C4368 C4367 1.398 . S
C4368 C4369 1.391 . S
C4369 H4357 0.950 . S
C4369 C4365 1.393 . S
C4369 C4368 1.391 . S
C4370 H4360 0.950 . S
C4370 C4371 1.386 . S
C4370 C4372 1.391 . S
C4371 C4370 1.386 . S
C4371 C4375 1.393 . S
C4372 H4361 0.950 . S
C4372 C4370 1.391 . S
C4372 C4373 1.400 . S
C4373 C4367 1.491 . S
C4373 C4372 1.400 . S
C4373 C4374 1.398 . S
C4374 H4362 0.950 . S
C4374 C4373 1.398 . S
C4374 C4375 1.391 . S
C4375 H4363 0.950 . S
C4375 C4371 1.393 . S
C4375 C4374 1.391 . S
H4376 C4384 0.950 . S
H4377 C4389 0.950 . S
H4378 C4386 0.950 . S
H4379 C4388 0.950 . S
H4380 C4390 0.950 . S
H4381 C4392 0.950 . S
H4382 C4394 0.950 . S
H4383 C4395 0.950 . S
C4384 H4376 0.950 . S
C4384 C4385 1.386 . S
C4384 C4386 1.391 . S
C4385 C4384 1.386 . S
C4385 C4389 1.393 . S
C4386 H4378 0.950 . S
C4386 C4384 1.391 . S
C4386 C4387 1.400 . S
C4387 C4386 1.400 . S
C4387 C4388 1.398 . S
C4387 C4393 1.491 . S
C4388 H4379 0.950 . S
C4388 C4387 1.398 . S
C4388 C4389 1.391 . S
C4389 H4377 0.950 . S
C4389 C4385 1.393 . S
C4389 C4388 1.391 . S
C4390 H4380 0.950 . S
C4390 C4391 1.386 . S
C4390 C4392 1.391 . S
C4391 C4390 1.386 . S
C4391 C4395 1.393 . S
C4392 H4381 0.950 . S
C4392 C4390 1.391 . S
C4392 C4393 1.400 . S
C4393 C4387 1.491 . S
C4393 C4392 1.400 . S
C4393 C4394 1.398 . S
C4394 H4382 0.950 . S
C4394 C4393 1.398 . S
C4394 C4395 1.391 . S
C4395 H4383 0.950 . S
C4395 C4391 1.393 . S
C4395 C4394 1.391 . S
H4396 C4404 0.950 . S
H4397 C4409 0.950 . S
H4398 C4406 0.950 . S
H4399 C4408 0.950 . S
H4400 C4410 0.950 . S
H4401 C4412 0.950 . S
H4402 C4414 0.950 . S
H4403 C4415 0.950 . S
C4404 H4396 0.950 . S
C4404 C4405 1.386 . S
C4404 C4406 1.391 . S
C4405 C4404 1.386 . S
C4405 C4409 1.393 . S
C4406 H4398 0.950 . S
C4406 C4404 1.391 . S
C4406 C4407 1.400 . S
C4407 C4406 1.400 . S
C4407 C4408 1.398 . S
C4407 C4413 1.491 . S
C4408 H4399 0.950 . S
C4408 C4407 1.398 . S
C4408 C4409 1.391 . S
C4409 H4397 0.950 . S
C4409 C4405 1.393 . S
C4409 C4408 1.391 . S
C4410 H4400 0.950 . S
C4410 C4411 1.386 . S
C4410 C4412 1.391 . S
C4411 C4410 1.386 . S
C4411 C4415 1.393 . S
C4412 H4401 0.950 . S
C4412 C4410 1.391 . S
C4412 C4413 1.400 . S
C4413 C4407 1.491 . S
C4413 C4412 1.400 . S
C4413 C4414 1.398 . S
C4414 H4402 0.950 . S
C4414 C4413 1.398 . S
C4414 C4415 1.391 . S
C4415 H4403 0.950 . S
C4415 C4411 1.393 . S
C4415 C4414 1.391 . S
H4416 C4424 0.950 . S
H4417 C4429 0.950 . S
H4418 C4426 0.950 . S
H4419 C4428 0.950 . S
H4420 C4430 0.950 . S
H4421 C4432 0.950 . S
H4422 C4434 0.950 . S
H4423 C4435 0.950 . S
C4424 H4416 0.950 . S
C4424 C4425 1.386 . S
C4424 C4426 1.391 . S
C4425 C4424 1.386 . S
C4425 C4429 1.393 . S
C4426 H4418 0.950 . S
C4426 C4424 1.391 . S
C4426 C4427 1.400 . S
C4427 C4426 1.400 . S
C4427 C4428 1.398 . S
C4427 C4433 1.491 . S
C4428 H4419 0.950 . S
C4428 C4427 1.398 . S
C4428 C4429 1.391 . S
C4429 H4417 0.950 . S
C4429 C4425 1.393 . S
C4429 C4428 1.391 . S
C4430 H4420 0.950 . S
C4430 C4431 1.386 . S
C4430 C4432 1.391 . S
C4431 C4430 1.386 . S
C4431 C4435 1.393 . S
C4432 H4421 0.950 . S
C4432 C4430 1.391 . S
C4432 C4433 1.400 . S
C4433 C4427 1.491 . S
C4433 C4432 1.400 . S
C4433 C4434 1.398 . S
C4434 H4422 0.950 . S
C4434 C4433 1.398 . S
C4434 C4435 1.391 . S
C4435 H4423 0.950 . S
C4435 C4431 1.393 . S
C4435 C4434 1.391 . S
H4436 C4444 0.950 . S
H4437 C4449 0.950 . S
H4438 C4446 0.950 . S
H4439 C4448 0.950 . S
H4440 C4450 0.950 . S
H4441 C4452 0.950 . S
H4442 C4454 0.950 . S
H4443 C4455 0.950 . S
C4444 H4436 0.950 . S
C4444 C4445 1.386 . S
C4444 C4446 1.391 . S
C4445 C4444 1.386 . S
C4445 C4449 1.393 . S
C4446 H4438 0.950 . S
C4446 C4444 1.391 . S
C4446 C4447 1.400 . S
C4447 C4446 1.400 . S
C4447 C4448 1.398 . S
C4447 C4453 1.491 . S
C4448 H4439 0.950 . S
C4448 C4447 1.398 . S
C4448 C4449 1.391 . S
C4449 H4437 0.950 . S
C4449 C4445 1.393 . S
C4449 C4448 1.391 . S
C4450 H4440 0.950 . S
C4450 C4451 1.386 . S
C4450 C4452 1.391 . S
C4451 C4450 1.386 . S
C4451 C4455 1.393 . S
C4452 H4441 0.950 . S
C4452 C4450 1.391 . S
C4452 C4453 1.400 . S
C4453 C4447 1.491 . S
C4453 C4452 1.400 . S
C4453 C4454 1.398 . S
C4454 H4442 0.950 . S
C4454 C4453 1.398 . S
C4454 C4455 1.391 . S
C4455 H4443 0.950 . S
C4455 C4451 1.393 . S
C4455 C4454 1.391 . S
H4456 C4464 0.949 . S
H4457 C4469 0.950 . S
H4458 C4466 0.950 . S
H4459 C4468 0.950 . S
H4460 C4470 0.950 1_655 S
H4461 C4472 0.921 1_655 S
H4462 C4474 0.950 . S
H4463 C4475 0.950 . S
C4464 H4456 0.949 . S
C4464 C4465 1.380 . S
C4464 C4466 1.391 . S
C4465 C4464 1.380 . S
C4465 C4469 1.399 1_455 S
C4466 H4458 0.950 . S
C4466 C4464 1.391 . S
C4466 C4467 1.400 . S
C4467 C4466 1.400 . S
C4467 C4468 1.398 1_455 S
C4467 C4473 1.491 . S
C4468 H4459 0.950 . S
C4468 C4467 1.398 1_655 S
C4468 C4469 1.391 . S
C4469 H4457 0.950 . S
C4469 C4465 1.399 1_655 S
C4469 C4468 1.391 . S
C4470 H4460 0.950 1_455 S
C4470 C4471 1.386 . S
C4470 C4472 1.386 . S
C4471 C4470 1.386 . S
C4471 C4475 1.393 . S
C4472 H4461 0.921 1_455 S
C4472 C4470 1.386 . S
C4472 C4473 1.434 . S
C4473 C4467 1.491 . S
C4473 C4472 1.434 . S
C4473 C4474 1.398 . S
C4474 H4462 0.950 . S
C4474 C4473 1.398 . S
C4474 C4475 1.391 . S
C4475 H4463 0.950 . S
C4475 C4471 1.393 . S
C4475 C4474 1.391 . S
H4476 C4484 0.950 . S
H4477 C4489 0.950 . S
H4478 C4486 0.950 . S
H4479 C4488 0.950 . S
H4480 C4490 0.950 . S
H4481 C4492 0.950 . S
H4482 C4494 0.950 . S
H4483 C4495 0.950 . S
C4484 H4476 0.950 . S
C4484 C4485 1.386 . S
C4484 C4486 1.391 . S
C4485 C4484 1.386 . S
C4485 C4489 1.393 . S
C4486 H4478 0.950 . S
C4486 C4484 1.391 . S
C4486 C4487 1.400 . S
C4487 C4486 1.400 . S
C4487 C4488 1.398 . S
C4487 C4493 1.491 . S
C4488 H4479 0.950 . S
C4488 C4487 1.398 . S
C4488 C4489 1.391 . S
C4489 H4477 0.950 . S
C4489 C4485 1.393 . S
C4489 C4488 1.391 . S
C4490 H4480 0.950 . S
C4490 C4491 1.386 . S
C4490 C4492 1.391 . S
C4491 C4490 1.386 . S
C4491 C4495 1.393 . S
C4492 H4481 0.950 . S
C4492 C4490 1.391 . S
C4492 C4493 1.400 . S
C4493 C4487 1.491 . S
C4493 C4492 1.400 . S
C4493 C4494 1.398 . S
C4494 H4482 0.950 . S
C4494 C4493 1.398 . S
C4494 C4495 1.391 . S
C4495 H4483 0.950 . S
C4495 C4491 1.393 . S
C4495 C4494 1.391 . S
H4496 C4504 0.950 . S
H4497 C4509 0.950 . S
H4498 C4506 0.950 . S
H4499 C4508 0.950 . S
H4500 C4510 0.950 . S
H4501 C4512 0.950 . S
H4502 C4514 0.950 . S
H4503 C4515 0.950 . S
C4504 H4496 0.950 . S
C4504 C4505 1.386 . S
C4504 C4506 1.391 . S
C4505 C4504 1.386 . S
C4505 C4509 1.393 . S
C4506 H4498 0.950 . S
C4506 C4504 1.391 . S
C4506 C4507 1.400 . S
C4507 C4506 1.400 . S
C4507 C4508 1.398 . S
C4507 C4513 1.491 . S
C4508 H4499 0.950 . S
C4508 C4507 1.398 . S
C4508 C4509 1.391 . S
C4509 H4497 0.950 . S
C4509 C4505 1.393 . S
C4509 C4508 1.391 . S
C4510 H4500 0.950 . S
C4510 C4511 1.386 . S
C4510 C4512 1.391 . S
C4511 C4510 1.386 . S
C4511 C4515 1.393 . S
C4512 H4501 0.950 . S
C4512 C4510 1.391 . S
C4512 C4513 1.400 . S
C4513 C4507 1.491 . S
C4513 C4512 1.400 . S
C4513 C4514 1.398 . S
C4514 H4502 0.950 . S
C4514 C4513 1.398 . S
C4514 C4515 1.391 . S
C4515 H4503 0.950 . S
C4515 C4511 1.393 . S
C4515 C4514 1.391 . S
H4516 C4524 0.950 . S
H4517 C4529 0.950 . S
H4518 C4526 0.950 . S
H4519 C4528 0.950 . S
H4520 C4530 0.950 . S
H4521 C4532 0.950 . S
H4522 C4534 0.950 . S
H4523 C4535 0.950 . S
C4524 H4516 0.950 . S
C4524 C4525 1.386 . S
C4524 C4526 1.391 . S
C4525 C4524 1.386 . S
C4525 C4529 1.393 . S
C4526 H4518 0.950 . S
C4526 C4524 1.391 . S
C4526 C4527 1.400 . S
C4527 C4526 1.400 . S
C4527 C4528 1.398 . S
C4527 C4533 1.491 . S
C4528 H4519 0.950 . S
C4528 C4527 1.398 . S
C4528 C4529 1.391 . S
C4529 H4517 0.950 . S
C4529 C4525 1.393 . S
C4529 C4528 1.391 . S
C4530 H4520 0.950 . S
C4530 C4531 1.386 . S
C4530 C4532 1.391 . S
C4531 C4530 1.386 . S
C4531 C4535 1.393 . S
C4532 H4521 0.950 . S
C4532 C4530 1.391 . S
C4532 C4533 1.400 . S
C4533 C4527 1.491 . S
C4533 C4532 1.400 . S
C4533 C4534 1.398 . S
C4534 H4522 0.950 . S
C4534 C4533 1.398 . S
C4534 C4535 1.391 . S
C4535 H4523 0.950 . S
C4535 C4531 1.393 . S
C4535 C4534 1.391 . S
H4536 C4544 0.950 . S
H4537 C4549 0.950 . S
H4538 C4546 0.950 . S
H4539 C4548 0.950 . S
H4540 C4550 0.950 . S
H4541 C4552 0.950 . S
H4542 C4554 0.950 1_655 S
H4543 C4555 0.950 . S
C4544 H4536 0.950 . S
C4544 C4545 1.386 1_655 S
C4544 C4546 1.391 . S
C4545 C4544 1.386 1_455 S
C4545 C4549 1.393 . S
C4546 H4538 0.950 . S
C4546 C4544 1.391 . S
C4546 C4547 1.400 1_655 S
C4547 C4546 1.400 1_455 S
C4547 C4548 1.398 . S
C4547 C4553 1.491 . S
C4548 H4539 0.950 . S
C4548 C4547 1.398 . S
C4548 C4549 1.391 . S
C4549 H4537 0.950 . S
C4549 C4545 1.393 . S
C4549 C4548 1.391 . S
C4550 H4540 0.950 . S
C4550 C4551 1.386 . S
C4550 C4552 1.391 . S
C4551 C4550 1.386 . S
C4551 C4555 1.393 . S
C4552 H4541 0.950 . S
C4552 C4550 1.391 . S
C4552 C4553 1.400 . S
C4553 C4547 1.491 . S
C4553 C4552 1.400 . S
C4553 C4554 1.398 . S
C4554 H4542 0.950 1_455 S
C4554 C4553 1.398 . S
C4554 C4555 1.391 . S
C4555 H4543 0.950 . S
C4555 C4551 1.393 . S
C4555 C4554 1.391 . S
H4556 C4564 0.950 . S
H4557 C4569 0.950 . S
H4558 C4566 0.950 . S
H4559 C4568 0.950 . S
H4560 C4570 0.950 . S
H4561 C4572 0.950 . S
H4562 C4574 0.950 . S
H4563 C4575 0.950 . S
C4564 H4556 0.950 . S
C4564 C4565 1.386 . S
C4564 C4566 1.391 . S
C4565 C4564 1.386 . S
C4565 C4569 1.393 . S
C4566 H4558 0.950 . S
C4566 C4564 1.391 . S
C4566 C4567 1.400 . S
C4567 C4566 1.400 . S
C4567 C4568 1.398 . S
C4567 C4573 1.491 . S
C4568 H4559 0.950 . S
C4568 C4567 1.398 . S
C4568 C4569 1.391 . S
C4569 H4557 0.950 . S
C4569 C4565 1.393 . S
C4569 C4568 1.391 . S
C4570 H4560 0.950 . S
C4570 C4571 1.386 . S
C4570 C4572 1.391 . S
C4571 C4570 1.386 . S
C4571 C4575 1.393 . S
C4572 H4561 0.950 . S
C4572 C4570 1.391 . S
C4572 C4573 1.400 . S
C4573 C4567 1.491 . S
C4573 C4572 1.400 . S
C4573 C4574 1.398 . S
C4574 H4562 0.950 . S
C4574 C4573 1.398 . S
C4574 C4575 1.391 . S
C4575 H4563 0.950 . S
C4575 C4571 1.393 . S
C4575 C4574 1.391 . S
H4576 C4584 0.950 . S
H4577 C4589 0.950 . S
H4578 C4586 0.950 . S
H4579 C4588 0.950 . S
H4580 C4590 0.950 . S
H4581 C4592 0.950 . S
H4582 C4594 0.950 . S
H4583 C4595 0.950 . S
C4584 H4576 0.950 . S
C4584 C4585 1.386 . S
C4584 C4586 1.391 . S
C4585 C4584 1.386 . S
C4585 C4589 1.393 . S
C4586 H4578 0.950 . S
C4586 C4584 1.391 . S
C4586 C4587 1.400 . S
C4587 C4586 1.400 . S
C4587 C4588 1.398 . S
C4587 C4593 1.491 . S
C4588 H4579 0.950 . S
C4588 C4587 1.398 . S
C4588 C4589 1.391 . S
C4589 H4577 0.950 . S
C4589 C4585 1.393 . S
C4589 C4588 1.391 . S
C4590 H4580 0.950 . S
C4590 C4591 1.386 . S
C4590 C4592 1.391 . S
C4591 C4590 1.386 . S
C4591 C4595 1.393 . S
C4592 H4581 0.950 . S
C4592 C4590 1.391 . S
C4592 C4593 1.400 . S
C4593 C4587 1.491 . S
C4593 C4592 1.400 . S
C4593 C4594 1.398 . S
C4594 H4582 0.950 . S
C4594 C4593 1.398 . S
C4594 C4595 1.391 . S
C4595 H4583 0.950 . S
C4595 C4591 1.393 . S
C4595 C4594 1.391 . S
H4596 C4604 0.950 . S
H4597 C4609 0.950 . S
H4598 C4606 0.950 . S
H4599 C4608 0.950 . S
H4600 C4610 0.950 . S
H4601 C4612 0.950 . S
H4602 C4614 0.950 . S
H4603 C4615 0.950 . S
C4604 H4596 0.950 . S
C4604 C4605 1.386 . S
C4604 C4606 1.391 . S
C4605 C4604 1.386 . S
C4605 C4609 1.393 . S
C4606 H4598 0.950 . S
C4606 C4604 1.391 . S
C4606 C4607 1.400 . S
C4607 C4606 1.400 . S
C4607 C4608 1.398 . S
C4607 C4613 1.491 . S
C4608 H4599 0.950 . S
C4608 C4607 1.398 . S
C4608 C4609 1.391 . S
C4609 H4597 0.950 . S
C4609 C4605 1.393 . S
C4609 C4608 1.391 . S
C4610 H4600 0.950 . S
C4610 C4611 1.386 . S
C4610 C4612 1.391 . S
C4611 C4610 1.386 . S
C4611 C4615 1.393 . S
C4612 H4601 0.950 . S
C4612 C4610 1.391 . S
C4612 C4613 1.400 . S
C4613 C4607 1.491 . S
C4613 C4612 1.400 . S
C4613 C4614 1.398 . S
C4614 H4602 0.950 . S
C4614 C4613 1.398 . S
C4614 C4615 1.391 . S
C4615 H4603 0.950 . S
C4615 C4611 1.393 . S
C4615 C4614 1.391 . S
H4616 C4624 0.950 . S
H4617 C4629 0.950 . S
H4618 C4626 0.950 . S
H4619 C4628 0.950 . S
H4620 C4630 0.950 . S
H4621 C4632 0.950 . S
H4622 C4634 0.950 . S
H4623 C4635 0.950 . S
C4624 H4616 0.950 . S
C4624 C4625 1.386 . S
C4624 C4626 1.391 . S
C4625 C4624 1.386 . S
C4625 C4629 1.393 . S
C4626 H4618 0.950 . S
C4626 C4624 1.391 . S
C4626 C4627 1.400 . S
C4627 C4626 1.400 . S
C4627 C4628 1.398 . S
C4627 C4633 1.491 . S
C4628 H4619 0.950 . S
C4628 C4627 1.398 . S
C4628 C4629 1.391 . S
C4629 H4617 0.950 . S
C4629 C4625 1.393 . S
C4629 C4628 1.391 . S
C4630 H4620 0.950 . S
C4630 C4631 1.386 . S
C4630 C4632 1.391 . S
C4631 C4630 1.386 . S
C4631 C4635 1.393 . S
C4632 H4621 0.950 . S
C4632 C4630 1.391 . S
C4632 C4633 1.400 . S
C4633 C4627 1.491 . S
C4633 C4632 1.400 . S
C4633 C4634 1.398 . S
C4634 H4622 0.950 . S
C4634 C4633 1.398 . S
C4634 C4635 1.391 . S
C4635 H4623 0.950 . S
C4635 C4631 1.393 . S
C4635 C4634 1.391 . S
H4636 C4644 0.950 . S
H4637 C4649 0.950 . S
H4638 C4646 0.950 . S
H4639 C4648 0.950 . S
H4640 C4650 0.950 . S
H4641 C4652 0.950 . S
H4642 C4654 0.950 . S
H4643 C4655 0.950 . S
C4644 H4636 0.950 . S
C4644 C4645 1.386 . S
C4644 C4646 1.391 . S
C4645 C4644 1.386 . S
C4645 C4649 1.393 . S
C4646 H4638 0.950 . S
C4646 C4644 1.391 . S
C4646 C4647 1.400 . S
C4647 C4646 1.400 . S
C4647 C4648 1.398 . S
C4647 C4653 1.491 . S
C4648 H4639 0.950 . S
C4648 C4647 1.398 . S
C4648 C4649 1.391 . S
C4649 H4637 0.950 . S
C4649 C4645 1.393 . S
C4649 C4648 1.391 . S
C4650 H4640 0.950 . S
C4650 C4651 1.386 . S
C4650 C4652 1.391 . S
C4651 C4650 1.386 . S
C4651 C4655 1.393 . S
C4652 H4641 0.950 . S
C4652 C4650 1.391 . S
C4652 C4653 1.400 . S
C4653 C4647 1.491 . S
C4653 C4652 1.400 . S
C4653 C4654 1.398 . S
C4654 H4642 0.950 . S
C4654 C4653 1.398 . S
C4654 C4655 1.391 . S
C4655 H4643 0.950 . S
C4655 C4651 1.393 . S
C4655 C4654 1.391 . S
H4656 C4664 0.950 . S
H4657 C4669 0.950 . S
H4658 C4666 0.950 . S
H4659 C4668 0.950 . S
H4660 C4670 0.950 . S
H4661 C4672 0.950 . S
H4662 C4674 0.950 . S
H4663 C4675 0.950 . S
C4664 H4656 0.950 . S
C4664 C4665 1.386 . S
C4664 C4666 1.391 . S
C4665 C4664 1.386 . S
C4665 C4669 1.393 . S
C4666 H4658 0.950 . S
C4666 C4664 1.391 . S
C4666 C4667 1.400 . S
C4667 C4666 1.400 . S
C4667 C4668 1.398 . S
C4667 C4673 1.491 . S
C4668 H4659 0.950 . S
C4668 C4667 1.398 . S
C4668 C4669 1.391 . S
C4669 H4657 0.950 . S
C4669 C4665 1.393 . S
C4669 C4668 1.391 . S
C4670 H4660 0.950 . S
C4670 C4671 1.386 . S
C4670 C4672 1.391 . S
C4671 C4670 1.386 . S
C4671 C4675 1.393 . S
C4672 H4661 0.950 . S
C4672 C4670 1.391 . S
C4672 C4673 1.400 . S
C4673 C4667 1.491 . S
C4673 C4672 1.400 . S
C4673 C4674 1.398 . S
C4674 H4662 0.950 . S
C4674 C4673 1.398 . S
C4674 C4675 1.391 . S
C4675 H4663 0.950 . S
C4675 C4671 1.393 . S
C4675 C4674 1.391 . S
H4676 C4684 0.950 . S
H4677 C4689 0.950 . S
H4678 C4686 0.950 . S
H4679 C4688 0.950 . S
H4680 C4690 0.950 . S
H4681 C4692 0.950 . S
H4682 C4694 0.950 . S
H4683 C4695 0.950 . S
C4684 H4676 0.950 . S
C4684 C4685 1.386 . S
C4684 C4686 1.391 . S
C4685 C4684 1.386 . S
C4685 C4689 1.393 . S
C4686 H4678 0.950 . S
C4686 C4684 1.391 . S
C4686 C4687 1.400 . S
C4687 C4686 1.400 . S
C4687 C4688 1.398 . S
C4687 C4693 1.491 . S
C4688 H4679 0.950 . S
C4688 C4687 1.398 . S
C4688 C4689 1.391 . S
C4689 H4677 0.950 . S
C4689 C4685 1.393 . S
C4689 C4688 1.391 . S
C4690 H4680 0.950 . S
C4690 C4691 1.386 . S
C4690 C4692 1.391 . S
C4691 C4690 1.386 . S
C4691 C4695 1.393 . S
C4692 H4681 0.950 . S
C4692 C4690 1.391 . S
C4692 C4693 1.400 . S
C4693 C4687 1.491 . S
C4693 C4692 1.400 . S
C4693 C4694 1.398 . S
C4694 H4682 0.950 . S
C4694 C4693 1.398 . S
C4694 C4695 1.391 . S
C4695 H4683 0.950 . S
C4695 C4691 1.393 . S
C4695 C4694 1.391 . S
H4696 C4704 0.950 . S
H4697 C4709 0.950 . S
H4698 C4706 0.950 . S
H4699 C4708 0.950 . S
H4700 C4710 0.950 . S
H4701 C4712 0.950 . S
H4702 C4714 0.950 . S
H4703 C4715 0.950 . S
C4704 H4696 0.950 . S
C4704 C4705 1.386 . S
C4704 C4706 1.391 . S
C4705 C4704 1.386 . S
C4705 C4709 1.393 . S
C4706 H4698 0.950 . S
C4706 C4704 1.391 . S
C4706 C4707 1.400 . S
C4707 C4706 1.400 . S
C4707 C4708 1.398 . S
C4707 C4713 1.491 . S
C4708 H4699 0.950 . S
C4708 C4707 1.398 . S
C4708 C4709 1.391 . S
C4709 H4697 0.950 . S
C4709 C4705 1.393 . S
C4709 C4708 1.391 . S
C4710 H4700 0.950 . S
C4710 C4711 1.386 . S
C4710 C4712 1.391 . S
C4711 C4710 1.386 . S
C4711 C4715 1.393 . S
C4712 H4701 0.950 . S
C4712 C4710 1.391 . S
C4712 C4713 1.400 . S
C4713 C4707 1.491 . S
C4713 C4712 1.400 . S
C4713 C4714 1.398 . S
C4714 H4702 0.950 . S
C4714 C4713 1.398 . S
C4714 C4715 1.391 . S
C4715 H4703 0.950 . S
C4715 C4711 1.393 . S
C4715 C4714 1.391 . S
H4716 C4724 0.950 . S
H4717 C4729 0.950 . S
H4718 C4726 0.950 . S
H4719 C4728 0.950 . S
H4720 C4730 0.950 . S
H4721 C4732 0.950 . S
H4722 C4734 0.950 . S
H4723 C4735 0.950 . S
C4724 H4716 0.950 . S
C4724 C4725 1.386 . S
C4724 C4726 1.391 . S
C4725 C4724 1.386 . S
C4725 C4729 1.393 . S
C4726 H4718 0.950 . S
C4726 C4724 1.391 . S
C4726 C4727 1.400 . S
C4727 C4726 1.400 . S
C4727 C4728 1.398 . S
C4727 C4733 1.491 . S
C4728 H4719 0.950 . S
C4728 C4727 1.398 . S
C4728 C4729 1.391 . S
C4729 H4717 0.950 . S
C4729 C4725 1.393 . S
C4729 C4728 1.391 . S
C4730 H4720 0.950 . S
C4730 C4731 1.386 . S
C4730 C4732 1.391 . S
C4731 C4730 1.386 . S
C4731 C4735 1.393 . S
C4732 H4721 0.950 . S
C4732 C4730 1.391 . S
C4732 C4733 1.400 . S
C4733 C4727 1.491 . S
C4733 C4732 1.400 . S
C4733 C4734 1.398 . S
C4734 H4722 0.950 . S
C4734 C4733 1.398 . S
C4734 C4735 1.391 . S
C4735 H4723 0.950 . S
C4735 C4731 1.393 . S
C4735 C4734 1.391 . S
H4736 C4744 0.950 . S
H4737 C4749 0.950 . S
H4738 C4746 0.950 . S
H4739 C4748 0.950 . S
H4740 C4750 0.950 . S
H4741 C4752 0.950 . S
H4742 C4754 0.950 . S
H4743 C4755 0.950 . S
C4744 H4736 0.950 . S
C4744 C4745 1.386 . S
C4744 C4746 1.391 . S
C4745 C4744 1.386 . S
C4745 C4749 1.393 . S
C4746 H4738 0.950 . S
C4746 C4744 1.391 . S
C4746 C4747 1.400 . S
C4747 C4746 1.400 . S
C4747 C4748 1.398 . S
C4747 C4753 1.491 . S
C4748 H4739 0.950 . S
C4748 C4747 1.398 . S
C4748 C4749 1.391 . S
C4749 H4737 0.950 . S
C4749 C4745 1.393 . S
C4749 C4748 1.391 . S
C4750 H4740 0.950 . S
C4750 C4751 1.386 . S
C4750 C4752 1.391 . S
C4751 C4750 1.386 . S
C4751 C4755 1.393 . S
C4752 H4741 0.950 . S
C4752 C4750 1.391 . S
C4752 C4753 1.400 . S
C4753 C4747 1.491 . S
C4753 C4752 1.400 . S
C4753 C4754 1.398 . S
C4754 H4742 0.950 . S
C4754 C4753 1.398 . S
C4754 C4755 1.391 . S
C4755 H4743 0.950 . S
C4755 C4751 1.393 . S
C4755 C4754 1.391 . S
H4756 C4764 0.950 . S
H4757 C4769 0.950 . S
H4758 C4766 0.950 . S
H4759 C4768 0.950 . S
H4760 C4770 0.950 . S
H4761 C4772 0.950 . S
H4762 C4774 0.950 . S
H4763 C4775 0.950 . S
C4764 H4756 0.950 . S
C4764 C4765 1.386 . S
C4764 C4766 1.391 . S
C4765 C4764 1.386 . S
C4765 C4769 1.393 . S
C4766 H4758 0.950 . S
C4766 C4764 1.391 . S
C4766 C4767 1.400 . S
C4767 C4766 1.400 . S
C4767 C4768 1.398 . S
C4767 C4773 1.491 . S
C4768 H4759 0.950 . S
C4768 C4767 1.398 . S
C4768 C4769 1.391 . S
C4769 H4757 0.950 . S
C4769 C4765 1.393 . S
C4769 C4768 1.391 . S
C4770 H4760 0.950 . S
C4770 C4771 1.386 . S
C4770 C4772 1.391 . S
C4771 C4770 1.386 . S
C4771 C4775 1.393 . S
C4772 H4761 0.950 . S
C4772 C4770 1.391 . S
C4772 C4773 1.400 . S
C4773 C4767 1.491 . S
C4773 C4772 1.400 . S
C4773 C4774 1.398 . S
C4774 H4762 0.950 . S
C4774 C4773 1.398 . S
C4774 C4775 1.391 . S
C4775 H4763 0.950 . S
C4775 C4771 1.393 . S
C4775 C4774 1.391 . S
H4776 C4784 0.950 . S
H4777 C4789 0.950 . S
H4778 C4786 0.950 . S
H4779 C4788 0.950 . S
H4780 C4790 0.950 . S
H4781 C4792 0.950 . S
H4782 C4794 0.950 . S
H4783 C4795 0.950 . S
C4784 H4776 0.950 . S
C4784 C4785 1.386 . S
C4784 C4786 1.391 . S
C4785 C4784 1.386 . S
C4785 C4789 1.393 . S
C4786 H4778 0.950 . S
C4786 C4784 1.391 . S
C4786 C4787 1.400 . S
C4787 C4786 1.400 . S
C4787 C4788 1.398 . S
C4787 C4793 1.491 . S
C4788 H4779 0.950 . S
C4788 C4787 1.398 . S
C4788 C4789 1.391 . S
C4789 H4777 0.950 . S
C4789 C4785 1.393 . S
C4789 C4788 1.391 . S
C4790 H4780 0.950 . S
C4790 C4791 1.386 . S
C4790 C4792 1.391 . S
C4791 C4790 1.386 . S
C4791 C4795 1.393 . S
C4792 H4781 0.950 . S
C4792 C4790 1.391 . S
C4792 C4793 1.400 . S
C4793 C4787 1.491 . S
C4793 C4792 1.400 . S
C4793 C4794 1.398 . S
C4794 H4782 0.950 . S
C4794 C4793 1.398 . S
C4794 C4795 1.391 . S
C4795 H4783 0.950 . S
C4795 C4791 1.393 . S
C4795 C4794 1.391 . S
H4796 C4804 0.950 . S
H4797 C4809 0.950 1_545 S
H4798 C4806 0.950 . S
H4799 C4808 0.950 . S
H4800 C4810 0.950 . S
H4801 C4812 0.950 . S
H4802 C4814 0.950 1_556 S
H4803 C4815 0.950 1_556 S
C4804 H4796 0.950 . S
C4804 C4805 1.386 1_556 S
C4804 C4806 1.391 . S
C4805 C4804 1.386 1_554 S
C4805 C4809 1.393 . S
C4806 H4798 0.950 . S
C4806 C4804 1.391 . S
C4806 C4807 1.400 1_556 S
C4807 C4806 1.400 1_554 S
C4807 C4808 1.398 1_565 S
C4807 C4813 1.491 . S
C4808 H4799 0.950 . S
C4808 C4807 1.398 1_545 S
C4808 C4809 1.391 1_545 S
C4809 H4797 0.950 1_565 S
C4809 C4805 1.393 . S
C4809 C4808 1.391 1_565 S
C4810 H4800 0.950 . S
C4810 C4811 1.386 . S
C4810 C4812 1.391 . S
C4811 C4810 1.386 . S
C4811 C4815 1.393 1_545 S
C4812 H4801 0.950 . S
C4812 C4810 1.391 . S
C4812 C4813 1.400 1_545 S
C4813 C4807 1.491 . S
C4813 C4812 1.400 1_565 S
C4813 C4814 1.398 . S
C4814 H4802 0.950 1_554 S
C4814 C4813 1.398 . S
C4814 C4815 1.391 . S
C4815 H4803 0.950 1_554 S
C4815 C4811 1.393 1_565 S
C4815 C4814 1.391 . S
H4816 C4824 0.950 . S
H4817 C4829 0.950 . S
H4818 C4826 0.950 . S
H4819 C4828 0.950 . S
H4820 C4830 0.950 . S
H4821 C4832 0.950 . S
H4822 C4834 0.950 . S
H4823 C4835 0.950 . S
C4824 H4816 0.950 . S
C4824 C4825 1.386 . S
C4824 C4826 1.391 . S
C4825 C4824 1.386 . S
C4825 C4829 1.393 . S
C4826 H4818 0.950 . S
C4826 C4824 1.391 . S
C4826 C4827 1.400 . S
C4827 C4826 1.400 . S
C4827 C4828 1.398 . S
C4827 C4833 1.491 . S
C4828 H4819 0.950 . S
C4828 C4827 1.398 . S
C4828 C4829 1.391 . S
C4829 H4817 0.950 . S
C4829 C4825 1.393 . S
C4829 C4828 1.391 . S
C4830 H4820 0.950 . S
C4830 C4831 1.386 . S
C4830 C4832 1.391 . S
C4831 C4830 1.386 . S
C4831 C4835 1.393 . S
C4832 H4821 0.950 . S
C4832 C4830 1.391 . S
C4832 C4833 1.400 . S
C4833 C4827 1.491 . S
C4833 C4832 1.400 . S
C4833 C4834 1.398 . S
C4834 H4822 0.950 . S
C4834 C4833 1.398 . S
C4834 C4835 1.391 . S
C4835 H4823 0.950 . S
C4835 C4831 1.393 . S
C4835 C4834 1.391 . S
H4836 C4844 0.950 . S
H4837 C4849 0.950 . S
H4838 C4846 0.950 . S
H4839 C4848 0.950 . S
H4840 C4850 0.950 . S
H4841 C4852 0.950 . S
H4842 C4854 0.950 . S
H4843 C4855 0.950 . S
C4844 H4836 0.950 . S
C4844 C4845 1.386 . S
C4844 C4846 1.391 . S
C4845 C4844 1.386 . S
C4845 C4849 1.393 . S
C4846 H4838 0.950 . S
C4846 C4844 1.391 . S
C4846 C4847 1.400 . S
C4847 C4846 1.400 . S
C4847 C4848 1.398 . S
C4847 C4853 1.491 . S
C4848 H4839 0.950 . S
C4848 C4847 1.398 . S
C4848 C4849 1.391 . S
C4849 H4837 0.950 . S
C4849 C4845 1.393 . S
C4849 C4848 1.391 . S
C4850 H4840 0.950 . S
C4850 C4851 1.386 . S
C4850 C4852 1.391 . S
C4851 C4850 1.386 . S
C4851 C4855 1.393 . S
C4852 H4841 0.950 . S
C4852 C4850 1.391 . S
C4852 C4853 1.400 . S
C4853 C4847 1.491 . S
C4853 C4852 1.400 . S
C4853 C4854 1.398 . S
C4854 H4842 0.950 . S
C4854 C4853 1.398 . S
C4854 C4855 1.391 . S
C4855 H4843 0.950 . S
C4855 C4851 1.393 . S
C4855 C4854 1.391 . S
H4856 C4864 0.950 . S
H4857 C4869 0.950 . S
H4858 C4866 0.950 . S
H4859 C4868 0.950 . S
H4860 C4870 0.950 . S
H4861 C4872 0.950 . S
H4862 C4874 0.950 . S
H4863 C4875 0.950 . S
C4864 H4856 0.950 . S
C4864 C4865 1.386 . S
C4864 C4866 1.391 . S
C4865 C4864 1.386 . S
C4865 C4869 1.393 . S
C4866 H4858 0.950 . S
C4866 C4864 1.391 . S
C4866 C4867 1.400 . S
C4867 C4866 1.400 . S
C4867 C4868 1.398 . S
C4867 C4873 1.491 . S
C4868 H4859 0.950 . S
C4868 C4867 1.398 . S
C4868 C4869 1.391 . S
C4869 H4857 0.950 . S
C4869 C4865 1.393 . S
C4869 C4868 1.391 . S
C4870 H4860 0.950 . S
C4870 C4871 1.386 . S
C4870 C4872 1.391 . S
C4871 C4870 1.386 . S
C4871 C4875 1.393 . S
C4872 H4861 0.950 . S
C4872 C4870 1.391 . S
C4872 C4873 1.400 . S
C4873 C4867 1.491 . S
C4873 C4872 1.400 . S
C4873 C4874 1.398 . S
C4874 H4862 0.950 . S
C4874 C4873 1.398 . S
C4874 C4875 1.391 . S
C4875 H4863 0.950 . S
C4875 C4871 1.393 . S
C4875 C4874 1.391 . S
H4876 C4884 0.950 . S
H4877 C4889 0.950 . S
H4878 C4886 0.950 . S
H4879 C4888 0.950 . S
H4880 C4890 0.950 . S
H4881 C4892 0.950 . S
H4882 C4894 0.950 . S
H4883 C4895 0.950 . S
C4884 H4876 0.950 . S
C4884 C4885 1.386 . S
C4884 C4886 1.391 . S
C4885 C4884 1.386 . S
C4885 C4889 1.393 . S
C4886 H4878 0.950 . S
C4886 C4884 1.391 . S
C4886 C4887 1.400 . S
C4887 C4886 1.400 . S
C4887 C4888 1.398 . S
C4887 C4893 1.491 . S
C4888 H4879 0.950 . S
C4888 C4887 1.398 . S
C4888 C4889 1.391 . S
C4889 H4877 0.950 . S
C4889 C4885 1.393 . S
C4889 C4888 1.391 . S
C4890 H4880 0.950 . S
C4890 C4891 1.386 . S
C4890 C4892 1.391 . S
C4891 C4890 1.386 . S
C4891 C4895 1.393 . S
C4892 H4881 0.950 . S
C4892 C4890 1.391 . S
C4892 C4893 1.400 . S
C4893 C4887 1.491 . S
C4893 C4892 1.400 . S
C4893 C4894 1.398 . S
C4894 H4882 0.950 . S
C4894 C4893 1.398 . S
C4894 C4895 1.391 . S
C4895 H4883 0.950 . S
C4895 C4891 1.393 . S
C4895 C4894 1.391 . S
H4896 C4904 0.950 . S
H4897 C4909 0.950 . S
H4898 C4906 0.950 . S
H4899 C4908 0.950 . S
H4900 C4910 0.950 . S
H4901 C4912 0.950 . S
H4902 C4914 0.950 . S
H4903 C4915 0.950 . S
C4904 H4896 0.950 . S
C4904 C4905 1.386 . S
C4904 C4906 1.391 . S
C4905 C4904 1.386 . S
C4905 C4909 1.393 . S
C4906 H4898 0.950 . S
C4906 C4904 1.391 . S
C4906 C4907 1.400 . S
C4907 C4906 1.400 . S
C4907 C4908 1.398 . S
C4907 C4913 1.491 . S
C4908 H4899 0.950 . S
C4908 C4907 1.398 . S
C4908 C4909 1.391 . S
C4909 H4897 0.950 . S
C4909 C4905 1.393 . S
C4909 C4908 1.391 . S
C4910 H4900 0.950 . S
C4910 C4911 1.386 . S
C4910 C4912 1.391 . S
C4911 C4910 1.386 . S
C4911 C4915 1.393 . S
C4912 H4901 0.950 . S
C4912 C4910 1.391 . S
C4912 C4913 1.400 . S
C4913 C4907 1.491 . S
C4913 C4912 1.400 . S
C4913 C4914 1.398 . S
C4914 H4902 0.950 . S
C4914 C4913 1.398 . S
C4914 C4915 1.391 . S
C4915 H4903 0.950 . S
C4915 C4911 1.393 . S
C4915 C4914 1.391 . S
H4916 C4924 0.950 . S
H4917 C4929 0.950 . S
H4918 C4926 0.950 . S
H4919 C4928 0.950 . S
H4920 C4930 0.950 . S
H4921 C4932 0.950 . S
H4922 C4934 0.950 . S
H4923 C4935 0.950 . S
C4924 H4916 0.950 . S
C4924 C4925 1.386 . S
C4924 C4926 1.391 . S
C4925 C4924 1.386 . S
C4925 C4929 1.393 . S
C4926 H4918 0.950 . S
C4926 C4924 1.391 . S
C4926 C4927 1.400 . S
C4927 C4926 1.400 . S
C4927 C4928 1.398 . S
C4927 C4933 1.491 . S
C4928 H4919 0.950 . S
C4928 C4927 1.398 . S
C4928 C4929 1.391 . S
C4929 H4917 0.950 . S
C4929 C4925 1.393 . S
C4929 C4928 1.391 . S
C4930 H4920 0.950 . S
C4930 C4931 1.386 . S
C4930 C4932 1.391 . S
C4931 C4930 1.386 . S
C4931 C4935 1.393 . S
C4932 H4921 0.950 . S
C4932 C4930 1.391 . S
C4932 C4933 1.400 . S
C4933 C4927 1.491 . S
C4933 C4932 1.400 . S
C4933 C4934 1.398 . S
C4934 H4922 0.950 . S
C4934 C4933 1.398 . S
C4934 C4935 1.391 . S
C4935 H4923 0.950 . S
C4935 C4931 1.393 . S
C4935 C4934 1.391 . S
H4936 C4944 0.950 . S
H4937 C4949 0.950 . S
H4938 C4946 0.950 . S
H4939 C4948 0.950 . S
H4940 C4950 0.950 . S
H4941 C4952 0.950 . S
H4942 C4954 0.950 . S
H4943 C4955 0.950 . S
C4944 H4936 0.950 . S
C4944 C4945 1.386 . S
C4944 C4946 1.391 . S
C4945 C4944 1.386 . S
C4945 C4949 1.393 . S
C4946 H4938 0.950 . S
C4946 C4944 1.391 . S
C4946 C4947 1.400 . S
C4947 C4946 1.400 . S
C4947 C4948 1.398 . S
C4947 C4953 1.491 . S
C4948 H4939 0.950 . S
C4948 C4947 1.398 . S
C4948 C4949 1.391 . S
C4949 H4937 0.950 . S
C4949 C4945 1.393 . S
C4949 C4948 1.391 . S
C4950 H4940 0.950 . S
C4950 C4951 1.386 . S
C4950 C4952 1.391 . S
C4951 C4950 1.386 . S
C4951 C4955 1.393 . S
C4952 H4941 0.950 . S
C4952 C4950 1.391 . S
C4952 C4953 1.400 . S
C4953 C4947 1.491 . S
C4953 C4952 1.400 . S
C4953 C4954 1.398 . S
C4954 H4942 0.950 . S
C4954 C4953 1.398 . S
C4954 C4955 1.391 . S
C4955 H4943 0.950 . S
C4955 C4951 1.393 . S
C4955 C4954 1.391 . S
H4956 C4964 0.950 . S
H4957 C4969 0.950 . S
H4958 C4966 0.950 . S
H4959 C4968 0.950 . S
H4960 C4970 0.950 . S
H4961 C4972 0.950 . S
H4962 C4974 0.950 . S
H4963 C4975 0.950 . S
C4964 H4956 0.950 . S
C4964 C4965 1.386 . S
C4964 C4966 1.391 . S
C4965 C4964 1.386 . S
C4965 C4969 1.393 . S
C4966 H4958 0.950 . S
C4966 C4964 1.391 . S
C4966 C4967 1.400 . S
C4967 C4966 1.400 . S
C4967 C4968 1.398 . S
C4967 C4973 1.491 . S
C4968 H4959 0.950 . S
C4968 C4967 1.398 . S
C4968 C4969 1.391 . S
C4969 H4957 0.950 . S
C4969 C4965 1.393 . S
C4969 C4968 1.391 . S
C4970 H4960 0.950 . S
C4970 C4971 1.386 . S
C4970 C4972 1.391 . S
C4971 C4970 1.386 . S
C4971 C4975 1.393 . S
C4972 H4961 0.950 . S
C4972 C4970 1.391 . S
C4972 C4973 1.400 . S
C4973 C4967 1.491 . S
C4973 C4972 1.400 . S
C4973 C4974 1.398 . S
C4974 H4962 0.950 . S
C4974 C4973 1.398 . S
C4974 C4975 1.391 . S
C4975 H4963 0.950 . S
C4975 C4971 1.393 . S
C4975 C4974 1.391 . S
H4976 C4984 0.950 . S
H4977 C4989 0.950 . S
H4978 C4986 0.950 . S
H4979 C4988 0.950 . S
H4980 C4990 0.950 . S
H4981 C4992 0.950 . S
H4982 C4994 0.950 . S
H4983 C4995 0.950 . S
C4984 H4976 0.950 . S
C4984 C4985 1.386 . S
C4984 C4986 1.391 . S
C4985 C4984 1.386 . S
C4985 C4989 1.393 . S
C4986 H4978 0.950 . S
C4986 C4984 1.391 . S
C4986 C4987 1.400 . S
C4987 C4986 1.400 . S
C4987 C4988 1.398 . S
C4987 C4993 1.491 . S
C4988 H4979 0.950 . S
C4988 C4987 1.398 . S
C4988 C4989 1.391 . S
C4989 H4977 0.950 . S
C4989 C4985 1.393 . S
C4989 C4988 1.391 . S
C4990 H4980 0.950 . S
C4990 C4991 1.386 . S
C4990 C4992 1.391 . S
C4991 C4990 1.386 . S
C4991 C4995 1.393 . S
C4992 H4981 0.950 . S
C4992 C4990 1.391 . S
C4992 C4993 1.400 . S
C4993 C4987 1.491 . S
C4993 C4992 1.400 . S
C4993 C4994 1.398 . S
C4994 H4982 0.950 . S
C4994 C4993 1.398 . S
C4994 C4995 1.391 . S
C4995 H4983 0.950 . S
C4995 C4991 1.393 . S
C4995 C4994 1.391 . S
H4996 C5004 0.950 . S
H4997 C5009 0.950 . S
H4998 C5006 0.950 . S
H4999 C5008 0.950 . S
H5000 C5010 0.950 . S
H5001 C5012 0.950 . S
H5002 C5014 0.950 . S
H5003 C5015 0.950 . S
C5004 H4996 0.950 . S
C5004 C5005 1.386 . S
C5004 C5006 1.391 . S
C5005 C5004 1.386 . S
C5005 C5009 1.393 . S
C5006 H4998 0.950 . S
C5006 C5004 1.391 . S
C5006 C5007 1.400 . S
C5007 C5006 1.400 . S
C5007 C5008 1.398 . S
C5007 C5013 1.491 . S
C5008 H4999 0.950 . S
C5008 C5007 1.398 . S
C5008 C5009 1.391 . S
C5009 H4997 0.950 . S
C5009 C5005 1.393 . S
C5009 C5008 1.391 . S
C5010 H5000 0.950 . S
C5010 C5011 1.386 . S
C5010 C5012 1.391 . S
C5011 C5010 1.386 . S
C5011 C5015 1.393 . S
C5012 H5001 0.950 . S
C5012 C5010 1.391 . S
C5012 C5013 1.400 . S
C5013 C5007 1.491 . S
C5013 C5012 1.400 . S
C5013 C5014 1.398 . S
C5014 H5002 0.950 . S
C5014 C5013 1.398 . S
C5014 C5015 1.391 . S
C5015 H5003 0.950 . S
C5015 C5011 1.393 . S
C5015 C5014 1.391 . S
H5016 C5024 0.950 . S
H5017 C5029 0.950 . S
H5018 C5026 0.950 . S
H5019 C5028 0.950 . S
H5020 C5030 0.950 . S
H5021 C5032 0.950 . S
H5022 C5034 0.950 . S
H5023 C5035 0.950 . S
C5024 H5016 0.950 . S
C5024 C5025 1.386 . S
C5024 C5026 1.391 . S
C5025 C5024 1.386 . S
C5025 C5029 1.393 . S
C5026 H5018 0.950 . S
C5026 C5024 1.391 . S
C5026 C5027 1.400 . S
C5027 C5026 1.400 . S
C5027 C5028 1.398 . S
C5027 C5033 1.491 . S
C5028 H5019 0.950 . S
C5028 C5027 1.398 . S
C5028 C5029 1.391 . S
C5029 H5017 0.950 . S
C5029 C5025 1.393 . S
C5029 C5028 1.391 . S
C5030 H5020 0.950 . S
C5030 C5031 1.386 . S
C5030 C5032 1.391 . S
C5031 C5030 1.386 . S
C5031 C5035 1.393 . S
C5032 H5021 0.950 . S
C5032 C5030 1.391 . S
C5032 C5033 1.400 . S
C5033 C5027 1.491 . S
C5033 C5032 1.400 . S
C5033 C5034 1.398 . S
C5034 H5022 0.950 . S
C5034 C5033 1.398 . S
C5034 C5035 1.391 . S
C5035 H5023 0.950 . S
C5035 C5031 1.393 . S
C5035 C5034 1.391 . S
H5036 C5044 0.950 . S
H5037 C5049 0.950 . S
H5038 C5046 0.950 . S
H5039 C5048 0.950 . S
H5040 C5050 0.950 . S
H5041 C5052 0.950 . S
H5042 C5054 0.950 . S
H5043 C5055 0.950 . S
C5044 H5036 0.950 . S
C5044 C5045 1.386 . S
C5044 C5046 1.391 . S
C5045 C5044 1.386 . S
C5045 C5049 1.393 . S
C5046 H5038 0.950 . S
C5046 C5044 1.391 . S
C5046 C5047 1.400 . S
C5047 C5046 1.400 . S
C5047 C5048 1.398 . S
C5047 C5053 1.491 . S
C5048 H5039 0.950 . S
C5048 C5047 1.398 . S
C5048 C5049 1.391 . S
C5049 H5037 0.950 . S
C5049 C5045 1.393 . S
C5049 C5048 1.391 . S
C5050 H5040 0.950 . S
C5050 C5051 1.386 . S
C5050 C5052 1.391 . S
C5051 C5050 1.386 . S
C5051 C5055 1.393 . S
C5052 H5041 0.950 . S
C5052 C5050 1.391 . S
C5052 C5053 1.400 . S
C5053 C5047 1.491 . S
C5053 C5052 1.400 . S
C5053 C5054 1.398 . S
C5054 H5042 0.950 . S
C5054 C5053 1.398 . S
C5054 C5055 1.391 . S
C5055 H5043 0.950 . S
C5055 C5051 1.393 . S
C5055 C5054 1.391 . S
H5056 C5064 0.950 . S
H5057 C5069 0.950 . S
H5058 C5066 0.950 . S
H5059 C5068 0.950 . S
H5060 C5070 0.950 . S
H5061 C5072 0.950 . S
H5062 C5074 0.950 . S
H5063 C5075 0.950 . S
C5064 H5056 0.950 . S
C5064 C5065 1.386 . S
C5064 C5066 1.391 . S
C5065 C5064 1.386 . S
C5065 C5069 1.393 . S
C5066 H5058 0.950 . S
C5066 C5064 1.391 . S
C5066 C5067 1.400 . S
C5067 C5066 1.400 . S
C5067 C5068 1.398 . S
C5067 C5073 1.491 . S
C5068 H5059 0.950 . S
C5068 C5067 1.398 . S
C5068 C5069 1.391 . S
C5069 H5057 0.950 . S
C5069 C5065 1.393 . S
C5069 C5068 1.391 . S
C5070 H5060 0.950 . S
C5070 C5071 1.386 . S
C5070 C5072 1.391 . S
C5071 C5070 1.386 . S
C5071 C5075 1.393 . S
C5072 H5061 0.950 . S
C5072 C5070 1.391 . S
C5072 C5073 1.400 . S
C5073 C5067 1.491 . S
C5073 C5072 1.400 . S
C5073 C5074 1.398 . S
C5074 H5062 0.950 . S
C5074 C5073 1.398 . S
C5074 C5075 1.391 . S
C5075 H5063 0.950 . S
C5075 C5071 1.393 . S
C5075 C5074 1.391 . S
H5076 C5084 0.950 . S
H5077 C5089 0.950 . S
H5078 C5086 0.950 . S
H5079 C5088 0.950 . S
H5080 C5090 0.950 . S
H5081 C5092 0.950 . S
H5082 C5094 0.950 . S
H5083 C5095 0.950 . S
C5084 H5076 0.950 . S
C5084 C5085 1.386 . S
C5084 C5086 1.391 . S
C5085 C5084 1.386 . S
C5085 C5089 1.393 . S
C5086 H5078 0.950 . S
C5086 C5084 1.391 . S
C5086 C5087 1.400 . S
C5087 C5086 1.400 . S
C5087 C5088 1.398 . S
C5087 C5093 1.491 . S
C5088 H5079 0.950 . S
C5088 C5087 1.398 . S
C5088 C5089 1.391 . S
C5089 H5077 0.950 . S
C5089 C5085 1.393 . S
C5089 C5088 1.391 . S
C5090 H5080 0.950 . S
C5090 C5091 1.386 . S
C5090 C5092 1.391 . S
C5091 C5090 1.386 . S
C5091 C5095 1.393 . S
C5092 H5081 0.950 . S
C5092 C5090 1.391 . S
C5092 C5093 1.400 . S
C5093 C5087 1.491 . S
C5093 C5092 1.400 . S
C5093 C5094 1.398 . S
C5094 H5082 0.950 . S
C5094 C5093 1.398 . S
C5094 C5095 1.391 . S
C5095 H5083 0.950 . S
C5095 C5091 1.393 . S
C5095 C5094 1.391 . S
H5096 C5104 0.950 . S
H5097 C5109 0.950 . S
H5098 C5106 0.950 . S
H5099 C5108 0.950 . S
H5100 C5110 0.950 1_455 S
H5101 C5112 0.950 . S
H5102 C5114 0.950 . S
H5103 C5115 0.950 . S
C5104 H5096 0.950 . S
C5104 C5105 1.386 . S
C5104 C5106 1.391 . S
C5105 C5104 1.386 . S
C5105 C5109 1.393 . S
C5106 H5098 0.950 . S
C5106 C5104 1.391 . S
C5106 C5107 1.400 . S
C5107 C5106 1.400 . S
C5107 C5108 1.398 . S
C5107 C5113 1.491 . S
C5108 H5099 0.950 . S
C5108 C5107 1.398 . S
C5108 C5109 1.391 . S
C5109 H5097 0.950 . S
C5109 C5105 1.393 . S
C5109 C5108 1.391 . S
C5110 H5100 0.950 1_655 S
C5110 C5111 1.382 . S
C5110 C5112 1.391 . S
C5111 C5110 1.382 . S
C5111 C5115 1.412 . S
C5112 H5101 0.950 . S
C5112 C5110 1.391 . S
C5112 C5113 1.400 . S
C5113 C5107 1.491 . S
C5113 C5112 1.400 . S
C5113 C5114 1.398 . S
C5114 H5102 0.950 . S
C5114 C5113 1.398 . S
C5114 C5115 1.391 . S
C5115 H5103 0.950 . S
C5115 C5111 1.412 . S
C5115 C5114 1.391 . S
H5116 C5124 0.950 . S
H5117 C5129 0.950 . S
H5118 C5126 0.950 . S
H5119 C5128 0.950 . S
H5120 C5130 0.950 . S
H5121 C5132 0.950 . S
H5122 C5134 0.950 . S
H5123 C5135 0.950 . S
C5124 H5116 0.950 . S
C5124 C5125 1.386 . S
C5124 C5126 1.391 . S
C5125 C5124 1.386 . S
C5125 C5129 1.393 . S
C5126 H5118 0.950 . S
C5126 C5124 1.391 . S
C5126 C5127 1.400 . S
C5127 C5126 1.400 . S
C5127 C5128 1.398 . S
C5127 C5133 1.491 . S
C5128 H5119 0.950 . S
C5128 C5127 1.398 . S
C5128 C5129 1.391 . S
C5129 H5117 0.950 . S
C5129 C5125 1.393 . S
C5129 C5128 1.391 . S
C5130 H5120 0.950 . S
C5130 C5131 1.386 . S
C5130 C5132 1.391 . S
C5131 C5130 1.386 . S
C5131 C5135 1.393 . S
C5132 H5121 0.950 . S
C5132 C5130 1.391 . S
C5132 C5133 1.400 . S
C5133 C5127 1.491 . S
C5133 C5132 1.400 . S
C5133 C5134 1.398 . S
C5134 H5122 0.950 . S
C5134 C5133 1.398 . S
C5134 C5135 1.391 . S
C5135 H5123 0.950 . S
C5135 C5131 1.393 . S
C5135 C5134 1.391 . S
H5136 C5144 0.950 . S
H5137 C5149 0.950 . S
H5138 C5146 0.950 . S
H5139 C5148 0.950 . S
H5140 C5150 0.950 . S
H5141 C5152 0.950 . S
H5142 C5154 0.950 . S
H5143 C5155 0.950 . S
C5144 H5136 0.950 . S
C5144 C5145 1.386 . S
C5144 C5146 1.391 . S
C5145 C5144 1.386 . S
C5145 C5149 1.393 . S
C5146 H5138 0.950 . S
C5146 C5144 1.391 . S
C5146 C5147 1.400 . S
C5147 C5146 1.400 . S
C5147 C5148 1.398 . S
C5147 C5153 1.491 . S
C5148 H5139 0.950 . S
C5148 C5147 1.398 . S
C5148 C5149 1.391 . S
C5149 H5137 0.950 . S
C5149 C5145 1.393 . S
C5149 C5148 1.391 . S
C5150 H5140 0.950 . S
C5150 C5151 1.386 . S
C5150 C5152 1.391 . S
C5151 C5150 1.386 . S
C5151 C5155 1.393 . S
C5152 H5141 0.950 . S
C5152 C5150 1.391 . S
C5152 C5153 1.400 . S
C5153 C5147 1.491 . S
C5153 C5152 1.400 . S
C5153 C5154 1.398 . S
C5154 H5142 0.950 . S
C5154 C5153 1.398 . S
C5154 C5155 1.391 . S
C5155 H5143 0.950 . S
C5155 C5151 1.393 . S
C5155 C5154 1.391 . S
H5156 C5164 0.950 . S
H5157 C5169 0.950 . S
H5158 C5166 0.950 . S
H5159 C5168 0.950 . S
H5160 C5170 0.950 . S
H5161 C5172 0.950 . S
H5162 C5174 0.950 . S
H5163 C5175 0.950 . S
C5164 H5156 0.950 . S
C5164 C5165 1.386 . S
C5164 C5166 1.391 . S
C5165 C5164 1.386 . S
C5165 C5169 1.393 . S
C5166 H5158 0.950 . S
C5166 C5164 1.391 . S
C5166 C5167 1.400 . S
C5167 C5166 1.400 . S
C5167 C5168 1.398 . S
C5167 C5173 1.491 . S
C5168 H5159 0.950 . S
C5168 C5167 1.398 . S
C5168 C5169 1.391 . S
C5169 H5157 0.950 . S
C5169 C5165 1.393 . S
C5169 C5168 1.391 . S
C5170 H5160 0.950 . S
C5170 C5171 1.386 . S
C5170 C5172 1.391 . S
C5171 C5170 1.386 . S
C5171 C5175 1.393 . S
C5172 H5161 0.950 . S
C5172 C5170 1.391 . S
C5172 C5173 1.400 . S
C5173 C5167 1.491 . S
C5173 C5172 1.400 . S
C5173 C5174 1.398 . S
C5174 H5162 0.950 . S
C5174 C5173 1.398 . S
C5174 C5175 1.391 . S
C5175 H5163 0.950 . S
C5175 C5171 1.393 . S
C5175 C5174 1.391 . S
H5176 C5184 0.950 . S
H5177 C5189 0.950 . S
H5178 C5186 0.950 . S
H5179 C5188 0.950 . S
H5180 C5190 0.950 . S
H5181 C5192 0.950 . S
H5182 C5194 0.950 . S
H5183 C5195 0.950 . S
C5184 H5176 0.950 . S
C5184 C5185 1.386 . S
C5184 C5186 1.391 . S
C5185 C5184 1.386 . S
C5185 C5189 1.393 . S
C5186 H5178 0.950 . S
C5186 C5184 1.391 . S
C5186 C5187 1.400 . S
C5187 C5186 1.400 . S
C5187 C5188 1.398 . S
C5187 C5193 1.491 . S
C5188 H5179 0.950 . S
C5188 C5187 1.398 . S
C5188 C5189 1.391 . S
C5189 H5177 0.950 . S
C5189 C5185 1.393 . S
C5189 C5188 1.391 . S
C5190 H5180 0.950 . S
C5190 C5191 1.386 . S
C5190 C5192 1.391 . S
C5191 C5190 1.386 . S
C5191 C5195 1.393 . S
C5192 H5181 0.950 . S
C5192 C5190 1.391 . S
C5192 C5193 1.400 . S
C5193 C5187 1.491 . S
C5193 C5192 1.400 . S
C5193 C5194 1.398 . S
C5194 H5182 0.950 . S
C5194 C5193 1.398 . S
C5194 C5195 1.391 . S
C5195 H5183 0.950 . S
C5195 C5191 1.393 . S
C5195 C5194 1.391 . S
H5196 C5204 0.950 . S
H5197 C5209 0.950 . S
H5198 C5206 0.950 . S
H5199 C5208 0.950 . S
H5200 C5210 0.950 . S
H5201 C5212 0.950 . S
H5202 C5214 0.950 . S
H5203 C5215 0.950 . S
C5204 H5196 0.950 . S
C5204 C5205 1.386 . S
C5204 C5206 1.391 . S
C5205 C5204 1.386 . S
C5205 C5209 1.393 . S
C5206 H5198 0.950 . S
C5206 C5204 1.391 . S
C5206 C5207 1.400 . S
C5207 C5206 1.400 . S
C5207 C5208 1.398 . S
C5207 C5213 1.491 . S
C5208 H5199 0.950 . S
C5208 C5207 1.398 . S
C5208 C5209 1.391 . S
C5209 H5197 0.950 . S
C5209 C5205 1.393 . S
C5209 C5208 1.391 . S
C5210 H5200 0.950 . S
C5210 C5211 1.386 . S
C5210 C5212 1.391 . S
C5211 C5210 1.386 . S
C5211 C5215 1.393 . S
C5212 H5201 0.950 . S
C5212 C5210 1.391 . S
C5212 C5213 1.400 . S
C5213 C5207 1.491 . S
C5213 C5212 1.400 . S
C5213 C5214 1.398 . S
C5214 H5202 0.950 . S
C5214 C5213 1.398 . S
C5214 C5215 1.391 . S
C5215 H5203 0.950 . S
C5215 C5211 1.393 . S
C5215 C5214 1.391 . S
H5216 C5224 0.950 . S
H5217 C5229 0.950 . S
H5218 C5226 0.950 . S
H5219 C5228 0.950 . S
H5220 C5230 0.950 . S
H5221 C5232 0.950 . S
H5222 C5234 0.950 . S
H5223 C5235 0.950 . S
C5224 H5216 0.950 . S
C5224 C5225 1.386 . S
C5224 C5226 1.391 . S
C5225 C5224 1.386 . S
C5225 C5229 1.393 . S
C5226 H5218 0.950 . S
C5226 C5224 1.391 . S
C5226 C5227 1.400 . S
C5227 C5226 1.400 . S
C5227 C5228 1.398 . S
C5227 C5233 1.491 . S
C5228 H5219 0.950 . S
C5228 C5227 1.398 . S
C5228 C5229 1.391 . S
C5229 H5217 0.950 . S
C5229 C5225 1.393 . S
C5229 C5228 1.391 . S
C5230 H5220 0.950 . S
C5230 C5231 1.386 . S
C5230 C5232 1.391 . S
C5231 C5230 1.386 . S
C5231 C5235 1.393 . S
C5232 H5221 0.950 . S
C5232 C5230 1.391 . S
C5232 C5233 1.400 . S
C5233 C5227 1.491 . S
C5233 C5232 1.400 . S
C5233 C5234 1.398 . S
C5234 H5222 0.950 . S
C5234 C5233 1.398 . S
C5234 C5235 1.391 . S
C5235 H5223 0.950 . S
C5235 C5231 1.393 . S
C5235 C5234 1.391 . S
H5236 C5244 0.950 . S
H5237 C5249 0.950 . S
H5238 C5246 0.950 . S
H5239 C5248 0.950 . S
H5240 C5250 0.950 . S
H5241 C5252 0.982 . S
H5242 C5254 0.950 . S
H5243 C5255 0.950 . S
C5244 H5236 0.950 . S
C5244 C5245 1.386 . S
C5244 C5246 1.391 . S
C5245 C5244 1.386 . S
C5245 C5249 1.393 . S
C5246 H5238 0.950 . S
C5246 C5244 1.391 . S
C5246 C5247 1.400 . S
C5247 C5246 1.400 . S
C5247 C5248 1.398 . S
C5247 C5253 1.491 . S
C5248 H5239 0.950 . S
C5248 C5247 1.398 . S
C5248 C5249 1.391 . S
C5249 H5237 0.950 . S
C5249 C5245 1.393 . S
C5249 C5248 1.391 . S
C5250 H5240 0.950 . S
C5250 C5251 1.386 1_545 S
C5250 C5252 1.391 1_545 S
C5251 C5250 1.386 1_565 S
C5251 C5255 1.393 . S
C5252 H5241 0.982 . S
C5252 C5250 1.391 1_565 S
C5252 C5253 1.400 . S
C5253 C5247 1.491 . S
C5253 C5252 1.400 . S
C5253 C5254 1.398 . S
C5254 H5242 0.950 . S
C5254 C5253 1.398 . S
C5254 C5255 1.391 . S
C5255 H5243 0.950 . S
C5255 C5251 1.393 . S
C5255 C5254 1.391 . S
H5256 C5264 0.950 . S
H5257 C5269 0.950 . S
H5258 C5266 0.950 . S
H5259 C5268 0.950 . S
H5260 C5270 0.950 . S
H5261 C5272 0.950 . S
H5262 C5274 0.950 . S
H5263 C5275 0.950 . S
C5264 H5256 0.950 . S
C5264 C5265 1.386 . S
C5264 C5266 1.391 . S
C5265 C5264 1.386 . S
C5265 C5269 1.393 . S
C5266 H5258 0.950 . S
C5266 C5264 1.391 . S
C5266 C5267 1.400 . S
C5267 C5266 1.400 . S
C5267 C5268 1.398 . S
C5267 C5273 1.491 . S
C5268 H5259 0.950 . S
C5268 C5267 1.398 . S
C5268 C5269 1.391 . S
C5269 H5257 0.950 . S
C5269 C5265 1.393 . S
C5269 C5268 1.391 . S
C5270 H5260 0.950 . S
C5270 C5271 1.386 . S
C5270 C5272 1.391 . S
C5271 C5270 1.386 . S
C5271 C5275 1.393 . S
C5272 H5261 0.950 . S
C5272 C5270 1.391 . S
C5272 C5273 1.400 . S
C5273 C5267 1.491 . S
C5273 C5272 1.400 . S
C5273 C5274 1.398 . S
C5274 H5262 0.950 . S
C5274 C5273 1.398 . S
C5274 C5275 1.391 . S
C5275 H5263 0.950 . S
C5275 C5271 1.393 . S
C5275 C5274 1.391 . S
H5276 C5284 0.950 . S
H5277 C5289 0.950 . S
H5278 C5286 0.950 . S
H5279 C5288 0.950 . S
H5280 C5290 0.950 . S
H5281 C5292 0.950 . S
H5282 C5294 0.950 . S
H5283 C5295 0.950 . S
C5284 H5276 0.950 . S
C5284 C5285 1.386 . S
C5284 C5286 1.391 . S
C5285 C5284 1.386 . S
C5285 C5289 1.393 . S
C5286 H5278 0.950 . S
C5286 C5284 1.391 . S
C5286 C5287 1.400 . S
C5287 C5286 1.400 . S
C5287 C5288 1.398 . S
C5287 C5293 1.491 . S
C5288 H5279 0.950 . S
C5288 C5287 1.398 . S
C5288 C5289 1.391 . S
C5289 H5277 0.950 . S
C5289 C5285 1.393 . S
C5289 C5288 1.391 . S
C5290 H5280 0.950 . S
C5290 C5291 1.386 . S
C5290 C5292 1.391 . S
C5291 C5290 1.386 . S
C5291 C5295 1.393 . S
C5292 H5281 0.950 . S
C5292 C5290 1.391 . S
C5292 C5293 1.400 . S
C5293 C5287 1.491 . S
C5293 C5292 1.400 . S
C5293 C5294 1.398 . S
C5294 H5282 0.950 . S
C5294 C5293 1.398 . S
C5294 C5295 1.391 . S
C5295 H5283 0.950 . S
C5295 C5291 1.393 . S
C5295 C5294 1.391 . S
H5296 C5304 0.950 . S
H5297 C5309 0.950 . S
H5298 C5306 0.950 . S
H5299 C5308 0.950 . S
H5300 C5310 0.950 . S
H5301 C5312 0.950 . S
H5302 C5314 0.950 . S
H5303 C5315 0.950 . S
C5304 H5296 0.950 . S
C5304 C5305 1.386 . S
C5304 C5306 1.391 . S
C5305 C5304 1.386 . S
C5305 C5309 1.393 . S
C5306 H5298 0.950 . S
C5306 C5304 1.391 . S
C5306 C5307 1.400 . S
C5307 C5306 1.400 . S
C5307 C5308 1.398 . S
C5307 C5313 1.491 . S
C5308 H5299 0.950 . S
C5308 C5307 1.398 . S
C5308 C5309 1.391 . S
C5309 H5297 0.950 . S
C5309 C5305 1.393 . S
C5309 C5308 1.391 . S
C5310 H5300 0.950 . S
C5310 C5311 1.386 . S
C5310 C5312 1.391 . S
C5311 C5310 1.386 . S
C5311 C5315 1.393 . S
C5312 H5301 0.950 . S
C5312 C5310 1.391 . S
C5312 C5313 1.400 . S
C5313 C5307 1.491 . S
C5313 C5312 1.400 . S
C5313 C5314 1.398 . S
C5314 H5302 0.950 . S
C5314 C5313 1.398 . S
C5314 C5315 1.391 . S
C5315 H5303 0.950 . S
C5315 C5311 1.393 . S
C5315 C5314 1.391 . S
H5316 C5324 0.950 . S
H5317 C5329 0.950 . S
H5318 C5326 0.950 . S
H5319 C5328 0.950 . S
H5320 C5330 0.950 . S
H5321 C5332 0.950 . S
H5322 C5334 0.950 . S
H5323 C5335 0.950 . S
C5324 H5316 0.950 . S
C5324 C5325 1.386 . S
C5324 C5326 1.391 . S
C5325 C5324 1.386 . S
C5325 C5329 1.393 . S
C5326 H5318 0.950 . S
C5326 C5324 1.391 . S
C5326 C5327 1.400 . S
C5327 C5326 1.400 . S
C5327 C5328 1.398 . S
C5327 C5333 1.491 . S
C5328 H5319 0.950 . S
C5328 C5327 1.398 . S
C5328 C5329 1.391 . S
C5329 H5317 0.950 . S
C5329 C5325 1.393 . S
C5329 C5328 1.391 . S
C5330 H5320 0.950 . S
C5330 C5331 1.386 . S
C5330 C5332 1.391 . S
C5331 C5330 1.386 . S
C5331 C5335 1.393 . S
C5332 H5321 0.950 . S
C5332 C5330 1.391 . S
C5332 C5333 1.400 . S
C5333 C5327 1.491 . S
C5333 C5332 1.400 . S
C5333 C5334 1.398 . S
C5334 H5322 0.950 . S
C5334 C5333 1.398 . S
C5334 C5335 1.391 . S
C5335 H5323 0.950 . S
C5335 C5331 1.393 . S
C5335 C5334 1.391 . S
H5336 C5344 0.950 . S
H5337 C5349 0.950 . S
H5338 C5346 0.950 . S
H5339 C5348 0.950 . S
H5340 C5350 0.950 . S
H5341 C5352 0.950 . S
H5342 C5354 0.950 . S
H5343 C5355 0.950 . S
C5344 H5336 0.950 . S
C5344 C5345 1.386 . S
C5344 C5346 1.391 . S
C5345 C5344 1.386 . S
C5345 C5349 1.393 . S
C5346 H5338 0.950 . S
C5346 C5344 1.391 . S
C5346 C5347 1.400 . S
C5347 C5346 1.400 . S
C5347 C5348 1.398 . S
C5347 C5353 1.491 . S
C5348 H5339 0.950 . S
C5348 C5347 1.398 . S
C5348 C5349 1.391 . S
C5349 H5337 0.950 . S
C5349 C5345 1.393 . S
C5349 C5348 1.391 . S
C5350 H5340 0.950 . S
C5350 C5351 1.386 . S
C5350 C5352 1.391 . S
C5351 C5350 1.386 . S
C5351 C5355 1.393 . S
C5352 H5341 0.950 . S
C5352 C5350 1.391 . S
C5352 C5353 1.400 . S
C5353 C5347 1.491 . S
C5353 C5352 1.400 . S
C5353 C5354 1.398 . S
C5354 H5342 0.950 . S
C5354 C5353 1.398 . S
C5354 C5355 1.391 . S
C5355 H5343 0.950 . S
C5355 C5351 1.393 . S
C5355 C5354 1.391 . S
H5356 C5364 0.950 . S
H5357 C5369 0.950 . S
H5358 C5366 0.950 . S
H5359 C5368 0.950 . S
H5360 C5370 0.950 . S
H5361 C5372 0.950 . S
H5362 C5374 0.950 . S
H5363 C5375 0.950 . S
C5364 H5356 0.950 . S
C5364 C5365 1.386 . S
C5364 C5366 1.391 . S
C5365 C5364 1.386 . S
C5365 C5369 1.393 . S
C5366 H5358 0.950 . S
C5366 C5364 1.391 . S
C5366 C5367 1.400 . S
C5367 C5366 1.400 . S
C5367 C5368 1.398 . S
C5367 C5373 1.491 . S
C5368 H5359 0.950 . S
C5368 C5367 1.398 . S
C5368 C5369 1.391 . S
C5369 H5357 0.950 . S
C5369 C5365 1.393 . S
C5369 C5368 1.391 . S
C5370 H5360 0.950 . S
C5370 C5371 1.386 . S
C5370 C5372 1.391 . S
C5371 C5370 1.386 . S
C5371 C5375 1.393 . S
C5372 H5361 0.950 . S
C5372 C5370 1.391 . S
C5372 C5373 1.400 . S
C5373 C5367 1.491 . S
C5373 C5372 1.400 . S
C5373 C5374 1.398 . S
C5374 H5362 0.950 . S
C5374 C5373 1.398 . S
C5374 C5375 1.391 . S
C5375 H5363 0.950 . S
C5375 C5371 1.393 . S
C5375 C5374 1.391 . S
C3465 C665 2.017 1_455 S
C3471 C2179 2.062 . S
C3485 C381 1.805 . S
C3491 C2252 1.803 . S
C3505 C460 1.877 . S
C3511 C2347 1.922 . S
C3531 C2422 1.440 . S
C3525 C585 1.541 . S
C3545 C108 1.542 . S
C3551 C2506 1.410 . S
C3571 C2599 1.921 . S
C3565 C196 1.879 . S
C3591 C2672 1.805 . S
C3585 C313 1.803 . S
C3605 C49 2.034 . S
C3611 C2767 2.069 . S
C3631 C2168 1.515 . S
C3625 C1457 1.552 . S
C3645 C1545 0.807 . S
C3651 C2254 0.783 . S
C3671 C2336 1.020 . S
C3665 C1721 1.030 . S
C3691 C2431 1.631 . S
C3685 C1113 1.610 . S
C3705 C1428 1.627 . S
C3711 C2515 1.641 . S
C3731 C2588 1.029 . S
C3725 C1516 1.028 . S
C3751 C2674 0.764 . S
C3745 C1692 0.804 . S
C3771 C2756 1.508 . S
C3765 C1085 1.548 . S
C3791 C2170 0.888 . S
C3785 C988 0.937 . S
C3805 C1817 1.656 . S
C3811 C2840 1.647 . S
C3831 C2926 1.253 . S
C3825 C2081 1.336 . S
C3851 C3019 0.806 . S
C3845 C1993 0.796 . S
C3865 C761 0.913 . S
C3871 C2758 0.925 . S
C3885 C821 1.330 . S
C3891 C2338 1.281 . S
C3905 C2053 1.660 . S
C3911 C3092 1.633 . S
C3931 C3187 0.817 . S
C3925 C1868 0.820 . S
C3951 C2167 2.063 . S
C3945 C372 2.027 . S
C3971 C3188 1.795 . S
C3965 C645 1.798 . S
C3985 C577 1.872 . S
C3991 C2335 1.912 . S
C4005 C497 1.540 . S
C4011 C3106 1.415 . S
C4031 C2518 1.408 . S
C4025 C57 1.540 . S
C4045 C293 1.873 . S
C4051 C2923 1.913 . S
C4071 C2684 1.802 1_556 S
C4065 C205 1.797 . S
C4091 C3259 2.058 . S
C4085 C145 2.018 . S
C4111 C2180 1.507 . S
C4105 C909 1.546 . S
C4131 C3190 0.816 . S
C4125 C1956 0.801 . S
C4145 C724 1.025 . S
C4151 C2348 1.018 . S
C4165 C1780 1.623 . S
C4171 C3091 1.634 . S
C4185 C937 1.610 . S
C4191 C2503 1.630 . S
C4211 C2936 1.018 . S
C4205 C1985 1.025 . S
C4225 C753 0.804 . S
C4231 C2686 0.779 . S
C4245 C1809 1.553 . S
C4251 C3272 1.513 . S
C4265 C1173 0.920 . S
C4271 C2182 0.897 . S
C4285 C1105 1.649 . S
C4291 C2852 1.645 . S
C4305 C1633 1.332 . S
C4311 C2602 1.266 . S
C4325 C1553 0.817 . S
C4331 C3007 0.819 . S
C4351 C3274 0.889 . S
C4345 C1729 0.939 . S
C4365 C1340 1.332 . S
C4371 C2350 1.265 . S
C4391 C2432 1.637 . S
C4385 C1604 1.656 . S
C4411 C2251 0.802 . S
C4405 C1252 0.798 . S
C4425 C489 2.029 . S
C4431 C3355 2.068 . S
C4451 C3176 1.804 . S
C4445 C557 1.799 . S
C4465 C636 1.852 1_554 S
C4471 C3439 1.912 . S
C4485 C409 1.542 . S
C4491 C3094 1.407 . S
C4505 C284 1.541 . S
C4511 C2842 1.433 . S
C4531 C2935 1.920 . S
C4525 C20 1.873 . S
C4551 C3008 1.800 . S
C4545 C137 1.807 . S
C4571 C3271 2.067 . S
C4565 C225 2.033 . S
C4591 C3344 1.517 . S
C4585 C1641 1.553 . S
C4605 C1193 0.807 . S
C4611 C3178 0.773 . S
C4631 C3428 1.016 . S
C4625 C1289 1.030 . S
C4651 C3103 1.631 . S
C4645 C1377 1.610 . S
C4671 C2851 1.633 . S
C4665 C1613 1.611 . S
C4685 C1164 1.030 . S
C4691 C2924 1.014 . S
C4711 C3010 0.815 . S
C4705 C1261 0.806 . S
C4725 C1349 1.554 . S
C4731 C3260 1.518 . S
C4751 C3346 0.917 . S
C4745 C1965 0.915 . S
C4765 C849 1.661 . S
C4771 C2504 1.640 . S
C4791 C2590 1.279 . S
C4785 C929 1.330 . S
C4811 C2683 0.821 . S
C4805 C1017 0.827 . S
C4831 C3262 0.888 . S
C4825 C1897 0.938 . S
C4845 C1789 1.330 . S
C4851 C3430 1.280 . S
C4871 C2420 1.632 . S
C4865 C900 1.658 . S
C4891 C2263 0.815 . S
C4885 C733 0.817 . S
C4905 C548 2.026 . S
C4911 C3343 2.063 . S
C4931 C2264 1.803 . S
C4925 C469 1.792 . S
C4945 C401 1.857 . S
C4951 C3427 1.909 . S
C4965 C673 1.539 . S
C4971 C2434 1.436 . S
C4985 C233 1.539 . S
C4991 C2854 1.433 . S
C5011 C2587 1.910 . S
C5005 C117 1.868 . S
C5025 C29 1.800 . S
C5031 C3020 1.799 . S
C5045 C321 2.018 . S
C5051 C2755 2.056 . S
C5071 C3356 1.496 . S
C5065 C2044 1.542 . S
C5085 C997 0.802 . S
C5091 C2266 0.817 . S
C5111 C3440 1.001 1_655 S
C5105 C1877 1.026 . S
C5125 C812 1.621 . S
C5131 C2419 1.632 . S
C5145 C2073 1.620 . S
C5151 C2839 1.632 . S
C5171 C2600 1.008 . S
C5165 C1025 1.032 . S
C5185 C1905 0.803 . S
C5191 C3022 0.772 . S
C5211 C2768 1.497 . S
C5205 C841 1.547 . S
C5231 C3358 0.930 . S
C5225 C1525 0.923 . S
C5251 C2516 1.642 1_565 S
C5245 C1369 1.646 . S
C5265 C1465 1.331 . S
C5271 C2938 1.268 . S
C5291 C2671 0.818 . S
C5285 C1201 0.813 . S
C5305 C1281 0.913 . S
C5311 C2770 0.928 . S
C5325 C1076 1.336 . S
C5331 C3442 1.248 . S
C5351 C3104 1.630 . S
C5345 C1437 1.655 . S
C5371 C3175 0.809 . S
C5365 C1701 0.814 . S
