# Generated by pormake.
# Topology nia, (6,6)-cn, num edge types: 1
# Building blocks:
#     Node 0, Type 0, BuildingBlock: KUMBUR_clean_sbu_1, # of connection points: 6
#     Node 1, Type 0, BuildingBlock: KUMBUR_clean_sbu_1, # of connection points: 6
#     Node 2, Type 1, BuildingBlock: MIDCAF_clean_sbu_0, # of connection points: 6
#     Node 3, Type 1, BuildingBlock: MIDCAF_clean_sbu_0, # of connection points: 6
#     Edge 4, Type (0, 1), BuildingBlock: FUNLAD_clean_linker_0, # of connection points: 2
#     Edge 5, Type (0, 1), BuildingBlock: FUNLAD_clean_linker_0, # of connection points: 2
#     Edge 6, Type (0, 1), BuildingBlock: FUNLAD_clean_linker_0, # of connection points: 2
#     Edge 7, Type (0, 1), BuildingBlock: FUNLAD_clean_linker_0, # of connection points: 2
#     Edge 8, Type (0, 1), BuildingBlock: FUNLAD_clean_linker_0, # of connection points: 2
#     Edge 9, Type (0, 1), BuildingBlock: FUNLAD_clean_linker_0, # of connection points: 2
#     Edge 10, Type (0, 1), BuildingBlock: FUNLAD_clean_linker_0, # of connection points: 2
#     Edge 11, Type (0, 1), BuildingBlock: FUNLAD_clean_linker_0, # of connection points: 2
#     Edge 12, Type (0, 1), BuildingBlock: FUNLAD_clean_linker_0, # of connection points: 2
#     Edge 13, Type (0, 1), BuildingBlock: FUNLAD_clean_linker_0, # of connection points: 2
#     Edge 14, Type (0, 1), BuildingBlock: FUNLAD_clean_linker_0, # of connection points: 2
#     Edge 15, Type (0, 1), BuildingBlock: FUNLAD_clean_linker_0, # of connection points: 2
# Relax obj value: 0.168
# Max RMSD: 0.275
# Mean RMSD: 0.199
data_MOF--net-nia--node1-KUMBUR_clean_sbu_1--node2-MIDCAF_clean_sbu_0--edge1-FUNLAD_clean_linker_0
_symmetry_space_group_name_H-M    P1
_symmetry_Int_Tables_number       1
_symmetry_cell_setting            triclinic
loop_
_symmetry_equiv_pos_as_xyz
'x, y, z'
_cell_length_a     32.151075
_cell_length_b     32.12353
_cell_length_c     36.255133
_cell_angle_alpha  90.20026
_cell_angle_beta   89.686533
_cell_angle_gamma 134.58818
loop_
_atom_site_label
_atom_site_type_symbol
_atom_site_fract_x
_atom_site_fract_y
_atom_site_fract_z
_atom_type_partial_charge
Tb0 Tb 0.03774 0.99239 0.0542 0.0
C1 C 0.90342 0.92245 0.91299 0.0
N2 N 0.95848 0.97397 0.92067 0.0
C3 C 0.99246 0.97 0.863 0.0
C4 C 0.89109 0.89087 0.88077 0.0
C5 C 0.00251 -0.00058 0.89557 0.0
C6 C 0.93668 0.91506 0.85581 0.0
C7 C 0.80133 0.8496 0.93023 0.0
C8 C 0.85947 0.90231 0.93739 0.0
C9 C 0.78897 0.81612 0.89919 0.0
C10 C 0.83378 0.83681 0.87443 0.0
Tb11 Tb 0.971 0.0188 0.97437 0.0
N12 N 0.87325 0.93652 0.96669 0.0
C13 C 0.75722 0.83347 0.95361 0.0
C14 C 0.82964 0.9239 0.98708 0.0
C15 C 0.77134 0.87147 0.98168 0.0
H16 H 0.04552 0.04194 0.90107 0.0
H17 H 0.73725 0.86097 0.99871 0.0
H18 H 0.92999 0.90731 0.11694 0.0
H19 H 0.26283 0.19311 0.074 0.0
H20 H 0.83932 0.95455 1.00715 0.0
H21 H 0.71196 0.79327 0.94914 0.0
H22 H 0.17928 0.10139 0.04183 0.0
H23 H 0.02771 0.98962 0.84353 0.0
H24 H 0.74466 0.77512 0.89347 0.0
H25 H 0.82345 0.81131 0.85013 0.0
H26 H 0.90572 0.92048 0.17754 0.0
H27 H 0.92906 0.89222 0.83068 0.0
H28 H 0.24663 0.21897 0.13311 0.0
N29 N 0.01163 0.99632 0.11229 0.0
C30 C 0.053 0.04724 0.13085 0.0
C31 C 0.94698 0.9569 0.16444 0.0
C32 C 0.04204 0.05608 0.16627 0.0
C33 C 0.96049 0.95001 0.12963 0.0
C34 C 0.98749 0.01058 0.18257 0.0
N35 N 0.11709 0.07725 0.08197 0.0
C36 C 0.17222 0.1126 0.06767 0.0
C37 C 0.15398 0.14037 0.13471 0.0
C38 C 0.10807 0.08875 0.11546 0.0
C39 C 0.21009 0.17882 0.11918 0.0
C40 C 0.21941 0.16436 0.0858 0.0
H41 H 0.97726 0.01553 0.20976 0.0
H42 H 0.07889 0.11684 0.21192 0.0
H43 H 0.17706 0.1908 0.18419 0.0
O44 O 0.08324 0.96984 0.03952 0.0
O45 O 0.07266 0.07976 0.04373 0.0
O46 O -0.00591 0.06441 0.02695 0.0
O47 O 0.04542 0.94956 0.09325 0.0
O48 O 0.08326 0.0231 1.00045 0.0
O49 O 0.06556 0.07467 0.97247 0.0
O50 O 0.92821 0.03972 0.94987 0.0
O51 O 0.9836 0.96032 0.96694 0.0
O52 O 0.96248 0.91708 0.02306 0.0
O53 O 0.02111 0.09766 0.94529 0.0
O54 O 0.93167 0.99545 0.02984 0.0
O55 O 0.94241 0.93696 0.05423 0.0
C56 C 0.04369 0.09467 0.0446 0.0
C57 C 0.05217 0.88643 0.06845 0.0
C58 C 0.06914 0.82399 0.07852 0.0
C59 C 0.01454 0.77715 0.06242 0.0
C60 C -0.00218 0.83903 0.05279 0.0
C61 C 0.97926 0.78475 0.0497 0.0
C62 C 0.08762 0.87877 0.08135 0.0
C63 C 0.09598 0.0614 0.97615 0.0
C64 C 0.07309 0.94439 0.07075 0.0
C65 C 0.08665 0.10894 0.18485 0.0
C66 C 0.14259 0.151 0.16911 0.0
C67 C 0.95958 0.9142 0.98695 0.0
C68 C 0.98461 0.14057 0.94687 0.0
C69 C 0.96297 0.1976 0.93108 0.0
C70 C 0.00204 0.23812 0.95875 0.0
C71 C 0.02272 0.18103 0.9746 0.0
C72 C 0.95445 0.14863 0.92559 0.0
C73 C 0.03124 0.22952 0.98047 0.0
C74 C 0.9144 0.95312 0.05191 0.0
C75 C 0.97677 0.09056 0.93881 0.0
H76 H -0.00147 0.73427 0.06026 0.0
H77 H 0.96985 0.84401 0.04294 0.0
H78 H 0.93723 0.74832 0.03756 0.0
H79 H 0.12985 0.91568 0.09316 0.0
H80 H 0.01072 0.27694 0.9634 0.0
H81 H 0.04633 0.17553 0.9914 0.0
H82 H 0.92406 0.11627 0.9049 0.0
H83 H 0.06106 0.26087 1.00169 0.0
Tb84 Tb 0.02415 0.97654 0.46857 0.0
C85 C 0.08561 0.10025 0.61152 0.0
N86 N 0.03494 0.04516 0.60273 0.0
C87 C 0.03953 0.00845 0.65841 0.0
C88 C 0.11688 0.11128 0.64345 0.0
C89 C 0.01043 -0.0004 0.62619 0.0
C90 C 0.09329 0.06444 0.66691 0.0
C91 C 0.15952 0.20306 0.59579 0.0
C92 C 0.10644 0.14536 0.58794 0.0
C93 C 0.19196 0.21413 0.62691 0.0
C94 C 0.17059 0.16838 0.65075 0.0
Tb95 Tb 0.98971 0.03557 0.55056 0.0
N96 N 0.07382 0.13291 0.55804 0.0
C97 C 0.17774 0.24811 0.57265 0.0
C98 C 0.08922 0.17759 0.53732 0.0
C99 C 0.14191 0.2354 0.5437 0.0
H100 H 0.96879 0.9564 0.6197 0.0
H101 H 0.15433 0.2703 0.52665 0.0
H102 H 0.11991 0.08718 0.41101 0.0
H103 H 0.82844 0.75026 0.44299 0.0
H104 H 0.0608 0.16976 0.51631 0.0
H105 H 0.21826 0.29302 0.5777 0.0
H106 H 0.90992 0.83448 0.48068 0.0
H107 H 0.02056 0.97211 0.67661 0.0
H108 H 0.2331 0.25811 0.63315 0.0
H109 H 0.19573 0.17767 0.67487 0.0
H110 H 0.12229 0.11021 0.34565 0.0
H111 H 0.116 0.07109 0.69171 0.0
H112 H 0.82089 0.76443 0.37717 0.0
N113 N 0.03356 0.00233 0.40826 0.0
C114 C 0.98928 0.95927 0.38578 0.0
C115 C 0.08419 0.06782 0.3567 0.0
C116 C 0.98966 0.96949 0.34795 0.0
C117 C 0.08219 0.05512 0.39392 0.0
C118 C 0.03731 0.02509 0.3337 0.0
N119 N 0.94629 0.89591 0.43703 0.0
C120 C 0.9066 0.84116 0.45212 0.0
C121 C 0.89945 0.85715 0.37785 0.0
C122 C 0.9449 0.90386 0.40046 0.0
C123 C 0.8566 0.8015 0.3936 0.0
C124 C 0.86061 0.79337 0.43079 0.0
H125 H 0.03925 0.03481 0.30479 0.0
H126 H 0.94273 0.93066 0.29638 0.0
H127 H 0.86367 0.83229 0.32258 0.0
O128 O 0.05726 0.94403 0.49068 0.0
O129 O 0.93586 0.94245 0.46816 0.0
O130 O 0.93634 0.00578 0.50102 0.0
O131 O 0.0687 0.96652 0.43333 0.0
O132 O 0.9847 0.92507 0.51981 0.0
O133 O 0.93047 0.94117 0.54494 0.0
O134 O 0.96634 0.07771 0.57294 0.0
O135 O 0.04884 0.02361 0.55411 0.0
O136 O 0.09573 0.05537 0.49904 0.0
O137 O 0.92026 0.98989 0.5882 0.0
O138 O 0.00847 0.07502 0.49587 0.0
O139 O 0.06918 0.0687 0.46869 0.0
C140 C 0.9151 0.96541 0.4756 0.0
C141 C 0.14147 0.977 0.4602 0.0
C142 C 0.21374 0.97659 0.44028 0.0
C143 C 0.25719 0.02975 0.45893 0.0
C144 C 0.18543 0.0305 0.47805 0.0
C145 C 0.24299 0.05657 0.4776 0.0
C146 C 0.15584 0.95043 0.44118 0.0
C147 C 0.944 0.91103 0.54236 0.0
C148 C 0.08082 0.94914 0.45949 0.0
C149 C 0.94346 0.92356 0.32547 0.0
C150 C 0.89852 0.86749 0.34037 0.0
C151 C 0.09725 0.05488 0.53508 0.0
C152 C 0.86565 0.01375 0.58706 0.0
C153 C 0.80768 0.0362 0.59524 0.0
C154 C 0.75872 0.98067 0.58121 0.0
C155 C 0.81586 0.95808 0.5737 0.0
C156 C 0.86114 0.05242 0.5981 0.0
C157 C 0.7629 0.94195 0.57059 0.0
C158 C 0.04428 0.08812 0.46924 0.0
C159 C 0.9219 0.03132 0.5908 0.0
H160 H 0.30216 0.05088 0.45867 0.0
H161 H 0.17533 0.05218 0.49199 0.0
H162 H 0.27671 0.09781 0.49158 0.0
H163 H 0.12171 0.90903 0.42735 0.0
H164 H 0.71688 0.96679 0.57901 0.0
H165 H 0.8178 0.92704 0.5654 0.0
H166 H 0.89933 0.09526 0.60862 0.0
H167 H 0.72488 0.89917 0.56006 0.0
Zn168 Zn 0.36945 0.66314 0.1329 0.0
Zn169 Zn 0.33165 0.64051 0.32912 0.0
Zn170 Zn 0.34867 0.64973 0.26239 0.0
C171 C 0.45341 0.7146 0.31694 0.0
C172 C 0.26812 0.52751 0.30432 0.0
O173 O 0.3167 0.68293 0.23613 0.0
O174 O 0.34477 0.67356 0.18452 0.0
C175 C 0.44549 0.70978 0.20855 0.0
O176 O 0.43774 0.70396 0.28293 0.0
O177 O 0.41556 0.69234 0.34216 0.0
O178 O 0.27806 0.55489 0.33344 0.0
O179 O 0.29131 0.55524 0.27358 0.0
O180 O 0.39957 0.68179 0.18881 0.0
O181 O 0.43842 0.70551 0.24364 0.0
O182 O 0.30026 0.56635 0.23529 0.0
O183 O 0.33726 0.61865 0.18492 0.0
C184 C 0.30497 0.56824 0.20008 0.0
O185 O 0.31242 0.68729 0.27417 0.0
O186 O 0.29753 0.67259 0.33421 0.0
C187 C 0.32002 0.68696 0.20088 0.0
C188 C 0.29519 0.69169 0.30477 0.0
Zn189 Zn 0.64102 0.33544 0.82974 0.0
Zn190 Zn 0.67056 0.372 0.68719 0.0
Zn191 Zn 0.65425 0.35876 0.7586 0.0
C192 C 0.73376 0.48259 0.71642 0.0
C193 C 0.55068 0.2986 0.70019 0.0
O194 O 0.69413 0.32644 0.77614 0.0
O195 O 0.67377 0.30238 0.83531 0.0
C196 C 0.71337 0.45756 0.81979 0.0
O197 O 0.70969 0.4529 0.74652 0.0
O198 O 0.72569 0.45783 0.68642 0.0
O199 O 0.58819 0.32389 0.67461 0.0
O200 O 0.56649 0.30596 0.73412 0.0
O201 O 0.69193 0.41871 0.84402 0.0
O202 O 0.7034 0.44387 0.78533 0.0
O203 O 0.55948 0.29884 0.77294 0.0
O204 O 0.55591 0.28226 0.83274 0.0
C205 C 0.53042 0.27417 0.80329 0.0
O206 O 0.69309 0.32639 0.73745 0.0
O207 O 0.69947 0.33614 0.6767 0.0
C208 C 0.69735 0.30665 0.80579 0.0
C209 C 0.70601 0.3197 0.70564 0.0
C210 C 0.11043 0.78034 0.07377 0.0
C211 C 0.10577 0.81507 0.09303 0.0
C212 C 0.14193 0.76908 0.0885 0.0
C213 C 0.16976 0.79248 0.12291 0.0
C214 C 0.16575 0.82784 0.14183 0.0
C215 C 0.13445 0.83923 0.12706 0.0
C216 C 0.19961 0.77786 0.14134 0.0
C217 C 0.21859 0.75644 0.12392 0.0
C218 C 0.24468 0.73877 0.14392 0.0
C219 C 0.28367 0.7393 0.12545 0.0
C220 C 0.30823 0.72227 0.14365 0.0
C221 C 0.29386 0.70397 0.18063 0.0
H222 H 0.19747 0.7152 0.19541 0.0
C223 C 0.25345 0.70166 0.19862 0.0
C224 C 0.22925 0.71887 0.18062 0.0
H225 H 0.23965 0.68562 0.22662 0.0
H226 H 0.08927 0.7614 0.04734 0.0
H227 H 0.14271 0.74063 0.07327 0.0
H228 H 0.18622 0.84609 0.16851 0.0
H229 H 0.13121 0.86551 0.1429 0.0
H230 H 0.20695 0.78614 0.17079 0.0
H231 H 0.21659 0.75304 0.09407 0.0
H232 H 0.29563 0.75348 0.09698 0.0
H233 H 0.33878 0.72395 0.12892 0.0
C234 C 0.15231 0.06046 0.58631 0.0
C235 C 0.15244 0.08462 0.55408 0.0
C236 C 0.20419 0.08937 0.60522 0.0
C237 C 0.2573 0.14267 0.59185 0.0
C238 C 0.25748 0.16611 0.55914 0.0
C239 C 0.20541 0.13758 0.54054 0.0
C240 C 0.31362 0.17254 0.60978 0.0
C241 C 0.31944 0.16953 0.6462 0.0
C242 C 0.37663 0.19807 0.66212 0.0
C243 C 0.39391 0.22611 0.69655 0.0
C244 C 0.4501 0.25747 0.71001 0.0
C245 C 0.48897 0.25996 0.68959 0.0
H246 H 0.40198 0.17558 0.61663 0.0
C247 C 0.47029 0.22917 0.65619 0.0
C248 C 0.41475 0.19844 0.64265 0.0
H249 H 0.49924 0.22987 0.64003 0.0
H250 H 0.11204 0.01899 0.59683 0.0
H251 H 0.20272 0.06915 0.6297 0.0
H252 H 0.29801 0.20677 0.54805 0.0
H253 H 0.20648 0.15695 0.51569 0.0
H254 H 0.35225 0.19936 0.59223 0.0
H255 H 0.28261 0.14818 0.66478 0.0
H256 H 0.36504 0.22605 0.71216 0.0
H257 H 0.46424 0.28234 0.73514 0.0
C258 C 0.1302 0.19625 0.06621 0.0
C259 C 0.06938 0.14918 0.06348 0.0
C260 C 0.15459 0.24738 0.08477 0.0
C261 C 0.11849 0.25274 0.10071 0.0
C262 C 0.05761 0.2056 0.09782 0.0
C263 C 0.03328 0.15452 0.07912 0.0
C264 C 0.14268 0.30563 0.12184 0.0
C265 C 0.19645 0.35929 0.11587 0.0
C266 C 0.22147 0.41208 0.13752 0.0
C267 C 0.26652 0.46764 0.12182 0.0
C268 C 0.29288 0.51838 0.14181 0.0
C269 C 0.27531 0.51469 0.17819 0.0
H270 H 0.17011 0.36668 0.18743 0.0
C271 C 0.23011 0.4592 0.1939 0.0
C272 C 0.20356 0.40844 0.1739 0.0
H273 H 0.21525 0.45491 0.22177 0.0
H274 H 0.15903 0.19366 0.05384 0.0
H275 H 0.20162 0.28196 0.08715 0.0
H276 H 0.02873 0.20829 0.11003 0.0
H277 H 0.98618 0.11883 0.07746 0.0
H278 H 0.11407 0.30024 0.14197 0.0
H279 H 0.2228 0.36561 0.09332 0.0
H280 H 0.28157 0.47184 0.09399 0.0
H281 H 0.32784 0.56047 0.12899 0.0
C282 C 0.82586 0.10684 0.64065 0.0
C283 C 0.80243 0.07664 0.60695 0.0
C284 C 0.81734 0.14194 0.6526 0.0
C285 C 0.78534 0.14761 0.63087 0.0
C286 C 0.76383 0.11889 0.59665 0.0
C287 C 0.77204 0.08371 0.58489 0.0
C288 C 0.77166 0.18139 0.64251 0.0
C289 C 0.77918 0.2025 0.67669 0.0
C290 C 0.75839 0.23038 0.68636 0.0
C291 C 0.78987 0.27727 0.71139 0.0
C292 C 0.77241 0.30609 0.71865 0.0
C293 C 0.72254 0.28735 0.70167 0.0
H294 H 0.68052 0.17317 0.65229 0.0
C295 C 0.68988 0.23915 0.67789 0.0
C296 C 0.70723 0.21061 0.67054 0.0
H297 H 0.65105 0.22387 0.66463 0.0
H298 H 0.84944 0.1021 0.65825 0.0
H299 H 0.83563 0.16395 0.67882 0.0
H300 H 0.73945 0.12273 0.57913 0.0
H301 H 0.75431 0.06177 0.55851 0.0
H302 H 0.75217 0.18748 0.62164 0.0
H303 H 0.8009 0.19999 0.69797 0.0
H304 H 0.82911 0.29297 0.72422 0.0
H305 H 0.79908 0.34433 0.73617 0.0
C306 C 0.84247 0.94871 0.08437 0.0
C307 C 0.8593 0.92046 0.07285 0.0
C308 C 0.7883 0.91728 0.10141 0.0
C309 C 0.7496 0.85669 0.10737 0.0
C310 C 0.76688 0.82868 0.09621 0.0
C311 C 0.82136 0.86029 0.07944 0.0
C312 C 0.68988 0.82105 0.12313 0.0
C313 C 0.67586 0.84289 0.14606 0.0
C314 C 0.61604 0.80759 0.16142 0.0
C315 C 0.60984 0.8235 0.19561 0.0
C316 C 0.55446 0.79196 0.21074 0.0
C317 C 0.50389 0.74424 0.19178 0.0
H318 H 0.56822 0.74777 0.11521 0.0
C319 C 0.50978 0.72916 0.15709 0.0
C320 C 0.56529 0.76029 0.14211 0.0
H321 H 0.4715 0.69272 0.14178 0.0
H322 H 0.87085 0.99508 0.07953 0.0
H323 H 0.77624 0.94036 0.10869 0.0
H324 H 0.73789 0.78204 0.10018 0.0
H325 H 0.83296 0.83728 0.07053 0.0
H326 H 0.65698 0.77473 0.11657 0.0
H327 H 0.70998 0.88777 0.15552 0.0
H328 H 0.64804 0.86022 0.21086 0.0
H329 H 0.55119 0.80534 0.23716 0.0
C330 C 0.86301 0.83667 0.58635 0.0
C331 C 0.91455 0.86113 0.56783 0.0
C332 C 0.83687 0.79158 0.61189 0.0
C333 C 0.86223 0.77078 0.62005 0.0
C334 C 0.91349 0.7948 0.60125 0.0
C335 C 0.93926 0.83941 0.57536 0.0
C336 C 0.83196 0.7212 0.64619 0.0
C337 C 0.8602 0.71257 0.66674 0.0
C338 C 0.8296 0.65775 0.68768 0.0
C339 C 0.85867 0.64017 0.69297 0.0
C340 C 0.8284 0.58418 0.70608 0.0
C341 C 0.76894 0.54538 0.71495 0.0
H342 H 0.74775 0.63311 0.69727 0.0
C343 C 0.74095 0.56441 0.71276 0.0
C344 C 0.77114 0.62041 0.69955 0.0
H345 H 0.69476 0.53466 0.71894 0.0
H346 H 0.84276 0.85231 0.58111 0.0
H347 H 0.79691 0.77319 0.62554 0.0
H348 H 0.93319 0.7785 0.60586 0.0
H349 H 0.979 0.85736 0.56162 0.0
H350 H 0.7847 0.69012 0.64731 0.0
H351 H 0.90757 0.74434 0.66546 0.0
H352 H 0.90379 0.66818 0.68444 0.0
H353 H 0.85043 0.56981 0.70692 0.0
C354 C 0.20546 0.92322 0.38545 0.0
C355 C 0.22815 0.94742 0.42072 0.0
C356 C 0.21564 0.89202 0.36818 0.0
C357 C 0.24851 0.88425 0.38606 0.0
C358 C 0.27206 0.90947 0.42095 0.0
C359 C 0.2624 0.9411 0.438 0.0
C360 C 0.25461 0.84577 0.37104 0.0
C361 C 0.25096 0.83303 0.33502 0.0
C362 C 0.25514 0.79185 0.32319 0.0
C363 C 0.28927 0.80447 0.29247 0.0
C364 C 0.29995 0.76983 0.28469 0.0
C365 C 0.27567 0.72168 0.30723 0.0
H366 H 0.19931 0.72926 0.36693 0.0
C367 C 0.23779 0.70664 0.33603 0.0
C368 C 0.22749 0.74119 0.34386 0.0
H369 H 0.21784 0.66929 0.35355 0.0
H370 H 0.17915 0.92775 0.37142 0.0
H371 H 0.19584 0.87224 0.34162 0.0
H372 H 0.29715 0.90372 0.43543 0.0
H373 H 0.27994 0.95876 0.46531 0.0
H374 H 0.26351 0.82755 0.3909 0.0
H375 H 0.2481 0.85502 0.31409 0.0
H376 H 0.31038 0.84295 0.27587 0.0
H377 H 0.32966 0.78258 0.26248 0.0
C378 C 0.16865 0.06579 0.94459 0.0
C379 C 0.14598 0.08995 0.95076 0.0
C380 C 0.21433 0.09163 0.91939 0.0
C381 C 0.2385 0.14243 0.9 0.0
C382 C 0.21647 0.16703 0.90669 0.0
C383 C 0.17037 0.14083 0.93148 0.0
C384 C 0.2894 0.17325 0.87479 0.0
C385 C 0.30015 0.14579 0.85525 0.0
C386 C 0.3554 0.17721 0.83435 0.0
C387 C 0.37339 0.14855 0.8283 0.0
C388 C 0.42922 0.17915 0.81453 0.0
C389 C 0.4676 0.23863 0.8058 0.0
H390 H 0.37967 0.25908 0.82565 0.0
C391 C 0.44838 0.26638 0.80915 0.0
C392 C 0.39247 0.23582 0.82286 0.0
H393 H 0.47784 0.31263 0.80326 0.0
H394 H 0.15081 0.02659 0.95897 0.0
H395 H 0.23142 0.07246 0.91586 0.0
H396 H 0.23483 0.20659 0.89254 0.0
H397 H 0.15412 0.16075 0.9357 0.0
H398 H 0.31937 0.22038 0.87326 0.0
H399 H 0.26936 0.09849 0.85691 0.0
H400 H 0.34569 0.10336 0.83652 0.0
H401 H 0.44377 0.15731 0.81293 0.0
C402 C 0.11728 0.17249 0.42695 0.0
C403 C 0.06011 0.12993 0.44082 0.0
C404 C 0.13197 0.21263 0.40045 0.0
C405 C 0.0895 0.21079 0.38733 0.0
C406 C 0.03224 0.16768 0.40116 0.0
C407 C 0.0177 0.12775 0.42765 0.0
C408 C 0.10431 0.2568 0.36289 0.0
C409 C 0.15435 0.2953 0.34336 0.0
C410 C 0.17503 0.34998 0.32757 0.0
C411 C 0.21931 0.38104 0.3005 0.0
C412 C 0.24702 0.43769 0.29025 0.0
C413 C 0.23119 0.4642 0.30733 0.0
H414 H 0.12442 0.35451 0.36432 0.0
C415 C 0.1848 0.43199 0.33269 0.0
C416 C 0.15704 0.37567 0.34273 0.0
H417 H 0.17202 0.45167 0.34637 0.0
H418 H 0.15102 0.17575 0.43731 0.0
H419 H 0.17702 0.24615 0.39159 0.0
H420 H -0.00122 0.16557 0.39197 0.0
H421 H 0.9732 0.09514 0.4379 0.0
H422 H 0.07322 0.26046 0.36242 0.0
H423 H 0.18309 0.2888 0.34055 0.0
H424 H 0.23437 0.36255 0.28857 0.0
H425 H 0.28324 0.46205 0.27095 0.0
C426 C 0.91264 0.23129 0.92348 0.0
C427 C 0.93109 0.20614 0.90814 0.0
C428 C 0.88261 0.23917 0.90213 0.0
C429 C 0.86963 0.22145 0.86503 0.0
C430 C 0.88688 0.19539 0.84974 0.0
C431 C 0.91803 0.18855 0.87087 0.0
C432 C 0.83601 0.22783 0.8426 0.0
C433 C 0.84549 0.27568 0.84525 0.0
C434 C 0.80826 0.28152 0.82769 0.0
C435 C 0.83166 0.33786 0.8223 0.0
C436 C 0.79567 0.34563 0.81226 0.0
C437 C 0.73564 0.29717 0.80753 0.0
H438 H 0.72857 0.18874 0.82576 0.0
C439 C 0.71224 0.24068 0.81133 0.0
C440 C 0.74839 0.23277 0.82105 0.0
H441 H 0.66569 0.20288 0.80855 0.0
H442 H 0.92034 0.24396 0.95223 0.0
H443 H 0.86829 0.25786 0.91498 0.0
H444 H 0.87705 0.18113 0.82124 0.0
H445 H 0.93224 0.16991 0.8578 0.0
H446 H 0.80374 0.19307 0.82348 0.0
H447 H 0.88186 0.31227 0.86183 0.0
H448 H 0.87747 0.37607 0.8275 0.0
H449 H 0.81418 0.38959 0.81009 0.0
C450 C 0.8558 0.92809 0.41762 0.0
C451 C 0.86398 0.94468 0.45475 0.0
C452 C 0.80754 0.90873 0.39806 0.0
C453 C 0.76657 0.90623 0.41531 0.0
C454 C 0.7761 0.92527 0.45198 0.0
C455 C 0.82428 0.94435 0.47143 0.0
C456 C 0.71362 0.88451 0.3963 0.0
C457 C 0.68747 0.84605 0.36809 0.0
C458 C 0.62919 0.8172 0.35359 0.0
C459 C 0.61167 0.79074 0.31856 0.0
C460 C 0.55503 0.7587 0.30573 0.0
C461 C 0.51498 0.7525 0.32784 0.0
H462 H 0.59919 0.8287 0.40301 0.0
C463 C 0.53282 0.77967 0.36253 0.0
C464 C 0.58891 0.81128 0.37535 0.0
H465 H 0.50281 0.77538 0.38035 0.0
H466 H 0.88767 0.93217 0.40316 0.0
H467 H 0.80342 0.89714 0.36934 0.0
H468 H 0.74574 0.92468 0.46586 0.0
H469 H 0.83032 0.95866 0.49958 0.0
H470 H 0.69379 0.89845 0.40776 0.0
H471 H 0.70766 0.83272 0.35616 0.0
H472 H 0.64144 0.7938 0.30142 0.0
H473 H 0.54195 0.73696 0.27927 0.0
C474 C 0.94995 0.85888 0.93347 0.0
C475 C 0.93104 0.85873 0.9685 0.0
C476 C 0.92158 0.8064 0.91525 0.0
C477 C 0.87406 0.75268 0.93202 0.0
C478 C 0.85626 0.75268 0.9675 0.0
C479 C 0.88428 0.80521 0.98552 0.0
C480 C 0.84422 0.69591 0.91437 0.0
C481 C 0.84201 0.68807 0.87761 0.0
C482 C 0.81234 0.6304 0.86144 0.0
C483 C 0.78399 0.61369 0.82726 0.0
C484 C 0.75273 0.55787 0.81293 0.0
C485 C 0.75027 0.51843 0.83227 0.0
H486 H 0.83501 0.60381 0.9056 0.0
C487 C 0.78084 0.53624 0.86561 0.0
C488 C 0.81175 0.59162 0.87994 0.0
H489 H 0.78042 0.50703 0.88091 0.0
H490 H 0.98703 0.89963 0.92026 0.0
H491 H 0.93787 0.80818 0.88851 0.0
H492 H 0.82025 0.71187 0.98123 0.0
H493 H 0.86898 0.80396 0.01259 0.0
H494 H 0.8212 0.65846 0.93259 0.0
H495 H 0.85947 0.72358 0.85888 0.0
H496 H 0.78423 0.64302 0.81231 0.0
H497 H 0.72843 0.54466 0.78771 0.0
loop_
_geom_bond_atom_site_label_1
_geom_bond_atom_site_label_2
_geom_bond_distance
_geom_bond_site_symmetry_2
_ccdc_geom_bond_type
Tb0 N29 2.617 . S
Tb0 N35 2.572 1_565 S
Tb0 O44 2.465 . S
Tb0 O45 2.387 1_565 S
Tb0 O47 2.428 . S
Tb0 O48 2.308 1_564 S
Tb0 O52 2.335 1_454 S
Tb0 O55 2.393 1_455 S
Tb0 C64 2.802 . S
C1 N2 1.381 1_565 S
C1 C4 1.416 . S
C1 C8 1.424 . S
N2 C1 1.381 1_545 S
N2 C5 1.331 1_655 S
N2 Tb11 2.618 . S
C3 C5 1.390 . S
C3 C6 1.339 . S
C3 H23 0.930 . S
C4 C1 1.416 . S
C4 C6 1.416 1_665 S
C4 C10 1.448 . S
C5 N2 1.331 1_455 S
C5 C3 1.390 . S
C5 H16 0.930 . S
C6 C3 1.339 . S
C6 C4 1.416 1_445 S
C6 H27 0.930 1_545 S
C7 C8 1.413 . S
C7 C9 1.427 . S
C7 C13 1.416 . S
C8 C1 1.424 . S
C8 C7 1.413 . S
C8 N12 1.361 . S
C9 C7 1.427 . S
C9 C10 1.328 . S
C9 H24 0.929 . S
C10 C4 1.448 . S
C10 C9 1.328 . S
C10 H25 0.930 . S
Tb11 N2 2.618 . S
Tb11 N12 2.572 1_545 S
Tb11 O46 2.327 1_656 S
Tb11 O49 2.393 1_655 S
Tb11 O50 2.465 . S
Tb11 O51 2.387 1_545 S
Tb11 O53 2.428 1_655 S
Tb11 O54 2.308 1_546 S
Tb11 C75 2.802 . S
N12 C8 1.361 . S
N12 Tb11 2.572 1_565 S
N12 C14 1.340 . S
C13 C7 1.416 . S
C13 C15 1.332 . S
C13 H21 0.931 . S
C14 N12 1.340 . S
C14 C15 1.407 . S
C14 H20 0.930 . S
C15 C13 1.332 . S
C15 C14 1.407 . S
C15 H17 0.929 . S
H16 C5 0.930 . S
H17 C15 0.929 . S
H18 C33 0.930 . S
H19 C40 0.929 . S
H20 C14 0.930 . S
H21 C13 0.931 . S
H22 C36 0.930 . S
H23 C3 0.930 . S
H24 C9 0.929 . S
H25 C10 0.930 . S
H26 C31 0.930 . S
H27 C6 0.930 1_565 S
H28 C39 0.931 . S
N29 Tb0 2.617 . S
N29 C30 1.379 1_565 S
N29 C33 1.334 1_455 S
C30 N29 1.379 1_545 S
C30 C32 1.416 . S
C30 C38 1.424 . S
C31 H26 0.930 . S
C31 C33 1.390 . S
C31 C34 1.339 1_565 S
C32 C30 1.416 . S
C32 C34 1.416 1_455 S
C32 C65 1.448 . S
C33 H18 0.930 . S
C33 N29 1.334 1_655 S
C33 C31 1.390 . S
C34 C31 1.339 1_545 S
C34 C32 1.416 1_655 S
C34 H41 0.930 . S
N35 Tb0 2.572 1_545 S
N35 C36 1.340 . S
N35 C38 1.361 . S
C36 H22 0.930 . S
C36 N35 1.340 . S
C36 C40 1.407 . S
C37 C38 1.413 . S
C37 C39 1.416 . S
C37 C66 1.427 . S
C38 C30 1.424 . S
C38 N35 1.361 . S
C38 C37 1.413 . S
C39 H28 0.931 . S
C39 C37 1.416 . S
C39 C40 1.332 . S
C40 H19 0.929 . S
C40 C36 1.407 . S
C40 C39 1.332 . S
H41 C34 0.930 . S
H42 C65 0.930 . S
H43 C66 0.929 . S
O44 Tb0 2.465 . S
O44 C64 1.264 . S
O45 Tb0 2.387 1_545 S
O45 C56 1.264 . S
O46 Tb11 2.327 1_454 S
O46 C56 1.271 . S
O47 Tb0 2.428 . S
O47 C64 1.256 . S
O48 Tb0 2.308 1_546 S
O48 C63 1.266 . S
O49 Tb11 2.393 1_455 S
O49 C63 1.248 . S
O50 Tb11 2.465 . S
O50 C75 1.264 . S
O51 Tb11 2.387 1_565 S
O51 C67 1.264 . S
O52 Tb0 2.335 1_656 S
O52 C67 1.261 . S
O53 Tb11 2.428 1_455 S
O53 C75 1.256 1_455 S
O54 Tb11 2.308 1_564 S
O54 C74 1.266 . S
O55 Tb0 2.393 1_655 S
O55 C74 1.248 . S
C56 O45 1.264 . S
C56 O46 1.271 . S
C57 C60 1.399 . S
C57 C62 1.383 . S
C57 C64 1.496 . S
C58 C59 1.399 . S
C58 C62 1.389 . S
C59 C58 1.399 . S
C59 C61 1.380 . S
C59 H76 0.929 . S
C60 C57 1.399 . S
C60 C61 1.392 . S
C60 H77 0.929 1_455 S
C61 C59 1.380 . S
C61 C60 1.392 . S
C61 H78 0.929 . S
C62 C57 1.383 . S
C62 C58 1.389 . S
C62 H79 0.931 . S
C63 O48 1.266 . S
C63 O49 1.248 . S
C64 Tb0 2.802 . S
C64 O44 1.264 . S
C64 O47 1.256 . S
C64 C57 1.496 . S
C65 C32 1.448 . S
C65 H42 0.930 . S
C65 C66 1.328 . S
C66 C37 1.427 . S
C66 H43 0.929 . S
C66 C65 1.328 . S
C67 O51 1.264 . S
C67 O52 1.261 . S
C68 C71 1.399 . S
C68 C72 1.383 . S
C68 C75 1.496 . S
C69 C70 1.399 . S
C69 C72 1.389 . S
C70 C69 1.399 . S
C70 C73 1.380 . S
C70 H80 0.929 . S
C71 C68 1.399 . S
C71 C73 1.392 . S
C71 H81 0.929 1_655 S
C72 C68 1.383 . S
C72 C69 1.389 . S
C72 H82 0.931 . S
C73 C70 1.380 . S
C73 C71 1.392 . S
C73 H83 0.929 . S
C74 O54 1.266 . S
C74 O55 1.248 . S
C75 Tb11 2.802 . S
C75 O50 1.264 . S
C75 O53 1.256 1_655 S
C75 C68 1.496 . S
H76 C59 0.929 . S
H77 C60 0.929 1_655 S
H78 C61 0.929 . S
H79 C62 0.931 . S
H80 C70 0.929 . S
H81 C71 0.929 1_455 S
H82 C72 0.931 . S
H83 C73 0.929 . S
Tb84 N113 2.617 1_565 S
Tb84 N119 2.572 1_455 S
Tb84 O128 2.465 . S
Tb84 O129 2.387 1_455 S
Tb84 O131 2.428 1_565 S
Tb84 O132 2.308 1_455 S
Tb84 O136 2.349 1_565 S
Tb84 O139 2.393 1_565 S
Tb84 C148 2.802 . S
C85 N86 1.379 1_455 S
C85 C88 1.416 . S
C85 C92 1.424 . S
N86 C85 1.379 1_655 S
N86 C89 1.334 1_545 S
N86 Tb95 2.617 . S
C87 C89 1.390 . S
C87 C90 1.339 1_665 S
C87 H107 0.930 . S
C88 C85 1.416 . S
C88 C90 1.416 . S
C88 C94 1.448 . S
C89 N86 1.334 1_565 S
C89 C87 1.390 . S
C89 H100 0.930 . S
C90 C87 1.339 1_445 S
C90 C88 1.416 . S
C90 H111 0.930 1_545 S
C91 C92 1.413 . S
C91 C93 1.427 . S
C91 C97 1.416 . S
C92 C85 1.424 . S
C92 C91 1.413 . S
C92 N96 1.361 . S
C93 C91 1.427 . S
C93 C94 1.328 . S
C93 H108 0.929 . S
C94 C88 1.448 . S
C94 C93 1.328 . S
C94 H109 0.930 . S
Tb95 N86 2.617 . S
Tb95 N96 2.572 1_655 S
Tb95 O130 2.349 1_545 S
Tb95 O133 2.393 1_545 S
Tb95 O134 2.465 . S
Tb95 O135 2.387 1_655 S
Tb95 O137 2.428 . S
Tb95 O138 2.308 1_655 S
Tb95 C159 2.802 . S
N96 C92 1.361 . S
N96 Tb95 2.572 1_455 S
N96 C98 1.340 . S
C97 C91 1.416 . S
C97 C99 1.332 . S
C97 H105 0.931 . S
C98 N96 1.340 . S
C98 C99 1.407 . S
C98 H104 0.930 . S
C99 C97 1.332 . S
C99 C98 1.407 . S
C99 H101 0.929 . S
H100 C89 0.930 . S
H101 C99 0.929 . S
H102 C117 0.930 . S
H103 C124 0.929 . S
H104 C98 0.930 . S
H105 C97 0.931 . S
H106 C120 0.930 . S
H107 C87 0.930 . S
H108 C93 0.929 . S
H109 C94 0.930 . S
H110 C115 0.930 . S
H111 C90 0.930 1_565 S
H112 C123 0.931 . S
N113 Tb84 2.617 1_545 S
N113 C114 1.379 1_445 S
N113 C117 1.334 . S
C114 N113 1.379 1_665 S
C114 C116 1.416 . S
C114 C122 1.424 . S
C115 H110 0.930 . S
C115 C117 1.390 . S
C115 C118 1.339 . S
C116 C114 1.416 . S
C116 C118 1.416 1_665 S
C116 C149 1.448 . S
C117 H102 0.930 . S
C117 N113 1.334 . S
C117 C115 1.390 . S
C118 C115 1.339 . S
C118 C116 1.416 1_445 S
C118 H125 0.930 . S
N119 Tb84 2.572 1_655 S
N119 C120 1.340 . S
N119 C122 1.361 . S
C120 H106 0.930 . S
C120 N119 1.340 . S
C120 C124 1.407 . S
C121 C122 1.413 . S
C121 C123 1.416 . S
C121 C150 1.427 . S
C122 C114 1.424 . S
C122 N119 1.361 . S
C122 C121 1.413 . S
C123 H112 0.931 . S
C123 C121 1.416 . S
C123 C124 1.332 . S
C124 H103 0.929 . S
C124 C120 1.407 . S
C124 C123 1.332 . S
H125 C118 0.930 . S
H126 C149 0.930 . S
H127 C150 0.929 . S
O128 Tb84 2.465 . S
O128 C148 1.264 . S
O129 Tb84 2.387 1_655 S
O129 C140 1.264 . S
O130 Tb95 2.349 1_565 S
O130 C140 1.243 . S
O131 Tb84 2.428 1_545 S
O131 C148 1.256 1_545 S
O132 Tb84 2.308 1_655 S
O132 C147 1.266 . S
O133 Tb95 2.393 1_565 S
O133 C147 1.248 . S
O134 Tb95 2.465 . S
O134 C159 1.264 . S
O135 Tb95 2.387 1_455 S
O135 C151 1.264 . S
O136 Tb84 2.349 1_545 S
O136 C151 1.243 . S
O137 Tb95 2.428 . S
O137 C159 1.256 . S
O138 Tb95 2.308 1_455 S
O138 C158 1.266 . S
O139 Tb84 2.393 1_545 S
O139 C158 1.248 . S
C140 O129 1.264 . S
C140 O130 1.243 . S
C141 C144 1.399 . S
C141 C146 1.383 . S
C141 C148 1.496 . S
C142 C143 1.399 . S
C142 C146 1.389 . S
C143 C142 1.399 . S
C143 C145 1.380 . S
C143 H160 0.929 . S
C144 C141 1.399 . S
C144 C145 1.392 . S
C144 H161 0.929 1_565 S
C145 C143 1.380 . S
C145 C144 1.392 . S
C145 H162 0.929 1_565 S
C146 C141 1.383 . S
C146 C142 1.389 . S
C146 H163 0.931 . S
C147 O132 1.266 . S
C147 O133 1.248 . S
C148 Tb84 2.802 . S
C148 O128 1.264 . S
C148 O131 1.256 1_565 S
C148 C141 1.496 . S
C149 C116 1.448 . S
C149 H126 0.930 . S
C149 C150 1.328 . S
C150 C121 1.427 . S
C150 H127 0.929 . S
C150 C149 1.328 . S
C151 O135 1.264 . S
C151 O136 1.243 . S
C152 C155 1.399 . S
C152 C156 1.383 . S
C152 C159 1.496 . S
C153 C154 1.399 . S
C153 C156 1.389 . S
C154 C153 1.399 . S
C154 C157 1.380 . S
C154 H164 0.929 . S
C155 C152 1.399 . S
C155 C157 1.392 . S
C155 H165 0.929 . S
C156 C152 1.383 . S
C156 C153 1.389 . S
C156 H166 0.931 . S
C157 C154 1.380 . S
C157 C155 1.392 . S
C157 H167 0.929 . S
C158 O138 1.266 . S
C158 O139 1.248 . S
C159 Tb95 2.802 . S
C159 O134 1.264 . S
C159 O137 1.256 . S
C159 C152 1.496 . S
H160 C143 0.929 . S
H161 C144 0.929 1_545 S
H162 C145 0.929 1_545 S
H163 C146 0.931 . S
H164 C154 0.929 . S
H165 C155 0.929 . S
H166 C156 0.931 . S
H167 C157 0.929 . S
Zn168 O174 1.920 . S
Zn168 O180 1.898 . S
Zn168 O183 1.905 . S
Zn169 O177 1.905 . S
Zn169 O178 1.898 . S
Zn169 O186 1.920 . S
Zn170 O173 2.080 . S
Zn170 O176 2.114 . S
Zn170 O179 2.120 . S
Zn170 O181 2.120 . S
Zn170 O182 2.114 . S
Zn170 O185 2.080 . S
C171 O176 1.166 . S
C171 O177 1.182 . S
C172 O178 1.167 . S
C172 O179 1.299 . S
O173 Zn170 2.080 . S
O173 C187 1.305 . S
O174 Zn168 1.920 . S
O174 C187 1.234 . S
C175 O180 1.167 . S
C175 O181 1.299 . S
O176 Zn170 2.114 . S
O176 C171 1.166 . S
O177 Zn169 1.905 . S
O177 C171 1.182 . S
O178 Zn169 1.898 . S
O178 C172 1.167 . S
O179 Zn170 2.120 . S
O179 C172 1.299 . S
O180 Zn168 1.898 . S
O180 C175 1.167 . S
O181 Zn170 2.120 . S
O181 C175 1.299 . S
O182 Zn170 2.114 . S
O182 C184 1.166 . S
O183 Zn168 1.905 . S
O183 C184 1.182 . S
C184 O182 1.166 . S
C184 O183 1.182 . S
O185 Zn170 2.080 . S
O185 C188 1.305 . S
O186 Zn169 1.920 . S
O186 C188 1.234 . S
C187 O173 1.305 . S
C187 O174 1.234 . S
C188 O185 1.305 . S
C188 O186 1.234 . S
Zn189 O195 1.920 . S
Zn189 O201 1.898 . S
Zn189 O204 1.905 . S
Zn190 O198 1.905 . S
Zn190 O199 1.898 . S
Zn190 O207 1.920 . S
Zn191 O194 2.080 . S
Zn191 O197 2.114 . S
Zn191 O200 2.120 . S
Zn191 O202 2.120 . S
Zn191 O203 2.114 . S
Zn191 O206 2.080 . S
C192 O197 1.166 . S
C192 O198 1.182 . S
C193 O199 1.167 . S
C193 O200 1.299 . S
O194 Zn191 2.080 . S
O194 C208 1.305 . S
O195 Zn189 1.920 . S
O195 C208 1.234 . S
C196 O201 1.167 . S
C196 O202 1.299 . S
O197 Zn191 2.114 . S
O197 C192 1.166 . S
O198 Zn190 1.905 . S
O198 C192 1.182 . S
O199 Zn190 1.898 . S
O199 C193 1.167 . S
O200 Zn191 2.120 . S
O200 C193 1.299 . S
O201 Zn189 1.898 . S
O201 C196 1.167 . S
O202 Zn191 2.120 . S
O202 C196 1.299 . S
O203 Zn191 2.114 . S
O203 C205 1.166 . S
O204 Zn189 1.905 . S
O204 C205 1.182 . S
C205 O203 1.166 . S
C205 O204 1.182 . S
O206 Zn191 2.080 . S
O206 C209 1.305 . S
O207 Zn190 1.920 . S
O207 C209 1.234 . S
C208 O194 1.305 . S
C208 O195 1.234 . S
C209 O206 1.305 . S
C209 O207 1.234 . S
C210 C211 1.386 . S
C210 C212 1.383 . S
C210 H226 0.951 . S
C211 C210 1.386 . S
C211 C215 1.383 . S
C212 C210 1.383 . S
C212 C213 1.402 . S
C212 H227 0.951 . S
C213 C212 1.402 . S
C213 C214 1.375 . S
C213 C216 1.481 . S
C214 C213 1.375 . S
C214 C215 1.367 . S
C214 H228 0.951 . S
C215 C211 1.383 . S
C215 C214 1.367 . S
C215 H229 0.950 . S
C216 C213 1.481 . S
C216 C217 1.297 . S
C216 H230 0.950 . S
C217 C216 1.297 . S
C217 C218 1.479 . S
C217 H231 0.950 . S
C218 C217 1.479 . S
C218 C219 1.375 . S
C218 C224 1.404 . S
C219 C218 1.375 . S
C219 C220 1.369 . S
C219 H232 0.950 . S
C220 C219 1.369 . S
C220 C221 1.392 . S
C220 H233 0.951 . S
C221 C220 1.392 . S
C221 C223 1.384 . S
H222 C224 0.949 . S
C223 C221 1.384 . S
C223 C224 1.385 . S
C223 H225 0.950 . S
C224 C218 1.404 . S
C224 H222 0.949 . S
C224 C223 1.385 . S
H225 C223 0.950 . S
H226 C210 0.951 . S
H227 C212 0.951 . S
H228 C214 0.951 . S
H229 C215 0.950 . S
H230 C216 0.950 . S
H231 C217 0.950 . S
H232 C219 0.950 . S
H233 C220 0.951 . S
C234 C235 1.386 . S
C234 C236 1.383 . S
C234 H250 0.951 . S
C235 C234 1.386 . S
C235 C239 1.383 . S
C236 C234 1.383 . S
C236 C237 1.402 . S
C236 H251 0.951 . S
C237 C236 1.402 . S
C237 C238 1.375 . S
C237 C240 1.481 . S
C238 C237 1.375 . S
C238 C239 1.367 . S
C238 H252 0.951 . S
C239 C235 1.383 . S
C239 C238 1.367 . S
C239 H253 0.950 . S
C240 C237 1.481 . S
C240 C241 1.297 . S
C240 H254 0.950 . S
C241 C240 1.297 . S
C241 C242 1.479 . S
C241 H255 0.950 . S
C242 C241 1.479 . S
C242 C243 1.375 . S
C242 C248 1.404 . S
C243 C242 1.375 . S
C243 C244 1.369 . S
C243 H256 0.950 . S
C244 C243 1.369 . S
C244 C245 1.392 . S
C244 H257 0.951 . S
C245 C244 1.392 . S
C245 C247 1.384 . S
H246 C248 0.949 . S
C247 C245 1.384 . S
C247 C248 1.385 . S
C247 H249 0.950 . S
C248 C242 1.404 . S
C248 H246 0.949 . S
C248 C247 1.385 . S
H249 C247 0.950 . S
H250 C234 0.951 . S
H251 C236 0.951 . S
H252 C238 0.951 . S
H253 C239 0.950 . S
H254 C240 0.950 . S
H255 C241 0.950 . S
H256 C243 0.950 . S
H257 C244 0.951 . S
C258 C259 1.386 . S
C258 C260 1.383 . S
C258 H274 0.951 . S
C259 C258 1.386 . S
C259 C263 1.383 . S
C260 C258 1.383 . S
C260 C261 1.402 . S
C260 H275 0.951 . S
C261 C260 1.402 . S
C261 C262 1.375 . S
C261 C264 1.481 . S
C262 C261 1.375 . S
C262 C263 1.367 . S
C262 H276 0.951 . S
C263 C259 1.383 . S
C263 C262 1.367 . S
C263 H277 0.950 . S
C264 C261 1.481 . S
C264 C265 1.297 . S
C264 H278 0.950 . S
C265 C264 1.297 . S
C265 C266 1.479 . S
C265 H279 0.950 . S
C266 C265 1.479 . S
C266 C267 1.375 . S
C266 C272 1.404 . S
C267 C266 1.375 . S
C267 C268 1.369 . S
C267 H280 0.950 . S
C268 C267 1.369 . S
C268 C269 1.392 . S
C268 H281 0.951 . S
C269 C268 1.392 . S
C269 C271 1.384 . S
H270 C272 0.949 . S
C271 C269 1.384 . S
C271 C272 1.385 . S
C271 H273 0.950 . S
C272 C266 1.404 . S
C272 H270 0.949 . S
C272 C271 1.385 . S
H273 C271 0.950 . S
H274 C258 0.951 . S
H275 C260 0.951 . S
H276 C262 0.951 . S
H277 C263 0.950 . S
H278 C264 0.950 . S
H279 C265 0.950 . S
H280 C267 0.950 . S
H281 C268 0.951 . S
C282 C283 1.386 . S
C282 C284 1.383 . S
C282 H298 0.951 . S
C283 C282 1.386 . S
C283 C287 1.383 . S
C284 C282 1.383 . S
C284 C285 1.402 . S
C284 H299 0.951 . S
C285 C284 1.402 . S
C285 C286 1.375 . S
C285 C288 1.481 . S
C286 C285 1.375 . S
C286 C287 1.367 . S
C286 H300 0.951 . S
C287 C283 1.383 . S
C287 C286 1.367 . S
C287 H301 0.950 . S
C288 C285 1.481 . S
C288 C289 1.297 . S
C288 H302 0.950 . S
C289 C288 1.297 . S
C289 C290 1.479 . S
C289 H303 0.950 . S
C290 C289 1.479 . S
C290 C291 1.375 . S
C290 C296 1.404 . S
C291 C290 1.375 . S
C291 C292 1.369 . S
C291 H304 0.950 . S
C292 C291 1.369 . S
C292 C293 1.392 . S
C292 H305 0.951 . S
C293 C292 1.392 . S
C293 C295 1.384 . S
H294 C296 0.949 . S
C295 C293 1.384 . S
C295 C296 1.385 . S
C295 H297 0.950 . S
C296 C290 1.404 . S
C296 H294 0.949 . S
C296 C295 1.385 . S
H297 C295 0.950 . S
H298 C282 0.951 . S
H299 C284 0.951 . S
H300 C286 0.951 . S
H301 C287 0.950 . S
H302 C288 0.950 . S
H303 C289 0.950 . S
H304 C291 0.950 . S
H305 C292 0.951 . S
C306 C307 1.386 . S
C306 C308 1.383 . S
C306 H322 0.951 . S
C307 C306 1.386 . S
C307 C311 1.383 . S
C308 C306 1.383 . S
C308 C309 1.402 . S
C308 H323 0.951 . S
C309 C308 1.402 . S
C309 C310 1.375 . S
C309 C312 1.481 . S
C310 C309 1.375 . S
C310 C311 1.367 . S
C310 H324 0.951 . S
C311 C307 1.383 . S
C311 C310 1.367 . S
C311 H325 0.950 . S
C312 C309 1.481 . S
C312 C313 1.297 . S
C312 H326 0.950 . S
C313 C312 1.297 . S
C313 C314 1.479 . S
C313 H327 0.950 . S
C314 C313 1.479 . S
C314 C315 1.375 . S
C314 C320 1.404 . S
C315 C314 1.375 . S
C315 C316 1.369 . S
C315 H328 0.950 . S
C316 C315 1.369 . S
C316 C317 1.392 . S
C316 H329 0.951 . S
C317 C316 1.392 . S
C317 C319 1.384 . S
H318 C320 0.949 . S
C319 C317 1.384 . S
C319 C320 1.385 . S
C319 H321 0.950 . S
C320 C314 1.404 . S
C320 H318 0.949 . S
C320 C319 1.385 . S
H321 C319 0.950 . S
H322 C306 0.951 . S
H323 C308 0.951 . S
H324 C310 0.951 . S
H325 C311 0.950 . S
H326 C312 0.950 . S
H327 C313 0.950 . S
H328 C315 0.950 . S
H329 C316 0.951 . S
C330 C331 1.386 . S
C330 C332 1.383 . S
C330 H346 0.951 . S
C331 C330 1.386 . S
C331 C335 1.383 . S
C332 C330 1.383 . S
C332 C333 1.402 . S
C332 H347 0.951 . S
C333 C332 1.402 . S
C333 C334 1.375 . S
C333 C336 1.481 . S
C334 C333 1.375 . S
C334 C335 1.367 . S
C334 H348 0.951 . S
C335 C331 1.383 . S
C335 C334 1.367 . S
C335 H349 0.950 . S
C336 C333 1.481 . S
C336 C337 1.297 . S
C336 H350 0.950 . S
C337 C336 1.297 . S
C337 C338 1.479 . S
C337 H351 0.950 . S
C338 C337 1.479 . S
C338 C339 1.375 . S
C338 C344 1.404 . S
C339 C338 1.375 . S
C339 C340 1.369 . S
C339 H352 0.950 . S
C340 C339 1.369 . S
C340 C341 1.392 . S
C340 H353 0.951 . S
C341 C340 1.392 . S
C341 C343 1.384 . S
H342 C344 0.949 . S
C343 C341 1.384 . S
C343 C344 1.385 . S
C343 H345 0.950 . S
C344 C338 1.404 . S
C344 H342 0.949 . S
C344 C343 1.385 . S
H345 C343 0.950 . S
H346 C330 0.951 . S
H347 C332 0.951 . S
H348 C334 0.951 . S
H349 C335 0.950 . S
H350 C336 0.950 . S
H351 C337 0.950 . S
H352 C339 0.950 . S
H353 C340 0.951 . S
C354 C355 1.386 . S
C354 C356 1.383 . S
C354 H370 0.951 . S
C355 C354 1.386 . S
C355 C359 1.383 . S
C356 C354 1.383 . S
C356 C357 1.402 . S
C356 H371 0.951 . S
C357 C356 1.402 . S
C357 C358 1.375 . S
C357 C360 1.481 . S
C358 C357 1.375 . S
C358 C359 1.367 . S
C358 H372 0.951 . S
C359 C355 1.383 . S
C359 C358 1.367 . S
C359 H373 0.950 . S
C360 C357 1.481 . S
C360 C361 1.297 . S
C360 H374 0.950 . S
C361 C360 1.297 . S
C361 C362 1.479 . S
C361 H375 0.950 . S
C362 C361 1.479 . S
C362 C363 1.375 . S
C362 C368 1.404 . S
C363 C362 1.375 . S
C363 C364 1.369 . S
C363 H376 0.950 . S
C364 C363 1.369 . S
C364 C365 1.392 . S
C364 H377 0.951 . S
C365 C364 1.392 . S
C365 C367 1.384 . S
H366 C368 0.949 . S
C367 C365 1.384 . S
C367 C368 1.385 . S
C367 H369 0.950 . S
C368 C362 1.404 . S
C368 H366 0.949 . S
C368 C367 1.385 . S
H369 C367 0.950 . S
H370 C354 0.951 . S
H371 C356 0.951 . S
H372 C358 0.951 . S
H373 C359 0.950 . S
H374 C360 0.950 . S
H375 C361 0.950 . S
H376 C363 0.950 . S
H377 C364 0.951 . S
C378 C379 1.386 . S
C378 C380 1.383 . S
C378 H394 0.951 . S
C379 C378 1.386 . S
C379 C383 1.383 . S
C380 C378 1.383 . S
C380 C381 1.402 . S
C380 H395 0.951 . S
C381 C380 1.402 . S
C381 C382 1.375 . S
C381 C384 1.481 . S
C382 C381 1.375 . S
C382 C383 1.367 . S
C382 H396 0.951 . S
C383 C379 1.383 . S
C383 C382 1.367 . S
C383 H397 0.950 . S
C384 C381 1.481 . S
C384 C385 1.297 . S
C384 H398 0.950 . S
C385 C384 1.297 . S
C385 C386 1.479 . S
C385 H399 0.950 . S
C386 C385 1.479 . S
C386 C387 1.375 . S
C386 C392 1.404 . S
C387 C386 1.375 . S
C387 C388 1.369 . S
C387 H400 0.950 . S
C388 C387 1.369 . S
C388 C389 1.392 . S
C388 H401 0.951 . S
C389 C388 1.392 . S
C389 C391 1.384 . S
H390 C392 0.949 . S
C391 C389 1.384 . S
C391 C392 1.385 . S
C391 H393 0.950 . S
C392 C386 1.404 . S
C392 H390 0.949 . S
C392 C391 1.385 . S
H393 C391 0.950 . S
H394 C378 0.951 . S
H395 C380 0.951 . S
H396 C382 0.951 . S
H397 C383 0.950 . S
H398 C384 0.950 . S
H399 C385 0.950 . S
H400 C387 0.950 . S
H401 C388 0.951 . S
C402 C403 1.386 . S
C402 C404 1.383 . S
C402 H418 0.951 . S
C403 C402 1.386 . S
C403 C407 1.383 . S
C404 C402 1.383 . S
C404 C405 1.402 . S
C404 H419 0.951 . S
C405 C404 1.402 . S
C405 C406 1.375 . S
C405 C408 1.481 . S
C406 C405 1.375 . S
C406 C407 1.367 . S
C406 H420 0.951 . S
C407 C403 1.383 . S
C407 C406 1.367 . S
C407 H421 0.950 . S
C408 C405 1.481 . S
C408 C409 1.297 . S
C408 H422 0.950 . S
C409 C408 1.297 . S
C409 C410 1.479 . S
C409 H423 0.950 . S
C410 C409 1.479 . S
C410 C411 1.375 . S
C410 C416 1.404 . S
C411 C410 1.375 . S
C411 C412 1.369 . S
C411 H424 0.950 . S
C412 C411 1.369 . S
C412 C413 1.392 . S
C412 H425 0.951 . S
C413 C412 1.392 . S
C413 C415 1.384 . S
H414 C416 0.949 . S
C415 C413 1.384 . S
C415 C416 1.385 . S
C415 H417 0.950 . S
C416 C410 1.404 . S
C416 H414 0.949 . S
C416 C415 1.385 . S
H417 C415 0.950 . S
H418 C402 0.951 . S
H419 C404 0.951 . S
H420 C406 0.951 . S
H421 C407 0.950 . S
H422 C408 0.950 . S
H423 C409 0.950 . S
H424 C411 0.950 . S
H425 C412 0.951 . S
C426 C427 1.386 . S
C426 C428 1.383 . S
C426 H442 0.951 . S
C427 C426 1.386 . S
C427 C431 1.383 . S
C428 C426 1.383 . S
C428 C429 1.402 . S
C428 H443 0.951 . S
C429 C428 1.402 . S
C429 C430 1.375 . S
C429 C432 1.481 . S
C430 C429 1.375 . S
C430 C431 1.367 . S
C430 H444 0.951 . S
C431 C427 1.383 . S
C431 C430 1.367 . S
C431 H445 0.950 . S
C432 C429 1.481 . S
C432 C433 1.297 . S
C432 H446 0.950 . S
C433 C432 1.297 . S
C433 C434 1.479 . S
C433 H447 0.950 . S
C434 C433 1.479 . S
C434 C435 1.375 . S
C434 C440 1.404 . S
C435 C434 1.375 . S
C435 C436 1.369 . S
C435 H448 0.950 . S
C436 C435 1.369 . S
C436 C437 1.392 . S
C436 H449 0.951 . S
C437 C436 1.392 . S
C437 C439 1.384 . S
H438 C440 0.949 . S
C439 C437 1.384 . S
C439 C440 1.385 . S
C439 H441 0.950 . S
C440 C434 1.404 . S
C440 H438 0.949 . S
C440 C439 1.385 . S
H441 C439 0.950 . S
H442 C426 0.951 . S
H443 C428 0.951 . S
H444 C430 0.951 . S
H445 C431 0.950 . S
H446 C432 0.950 . S
H447 C433 0.950 . S
H448 C435 0.950 . S
H449 C436 0.951 . S
C450 C451 1.386 . S
C450 C452 1.383 . S
C450 H466 0.951 . S
C451 C450 1.386 . S
C451 C455 1.383 . S
C452 C450 1.383 . S
C452 C453 1.402 . S
C452 H467 0.951 . S
C453 C452 1.402 . S
C453 C454 1.375 . S
C453 C456 1.481 . S
C454 C453 1.375 . S
C454 C455 1.367 . S
C454 H468 0.951 . S
C455 C451 1.383 . S
C455 C454 1.367 . S
C455 H469 0.950 . S
C456 C453 1.481 . S
C456 C457 1.297 . S
C456 H470 0.950 . S
C457 C456 1.297 . S
C457 C458 1.479 . S
C457 H471 0.950 . S
C458 C457 1.479 . S
C458 C459 1.375 . S
C458 C464 1.404 . S
C459 C458 1.375 . S
C459 C460 1.369 . S
C459 H472 0.950 . S
C460 C459 1.369 . S
C460 C461 1.392 . S
C460 H473 0.951 . S
C461 C460 1.392 . S
C461 C463 1.384 . S
H462 C464 0.949 . S
C463 C461 1.384 . S
C463 C464 1.385 . S
C463 H465 0.950 . S
C464 C458 1.404 . S
C464 H462 0.949 . S
C464 C463 1.385 . S
H465 C463 0.950 . S
H466 C450 0.951 . S
H467 C452 0.951 . S
H468 C454 0.951 . S
H469 C455 0.950 . S
H470 C456 0.950 . S
H471 C457 0.950 . S
H472 C459 0.950 . S
H473 C460 0.951 . S
C474 C475 1.386 . S
C474 C476 1.383 . S
C474 H490 0.951 . S
C475 C474 1.386 . S
C475 C479 1.383 . S
C476 C474 1.383 . S
C476 C477 1.402 . S
C476 H491 0.951 . S
C477 C476 1.402 . S
C477 C478 1.375 . S
C477 C480 1.481 . S
C478 C477 1.375 . S
C478 C479 1.367 . S
C478 H492 0.951 . S
C479 C475 1.383 . S
C479 C478 1.367 . S
C479 H493 0.950 . S
C480 C477 1.481 . S
C480 C481 1.297 . S
C480 H494 0.950 . S
C481 C480 1.297 . S
C481 C482 1.479 . S
C481 H495 0.950 . S
C482 C481 1.479 . S
C482 C483 1.375 . S
C482 C488 1.404 . S
C483 C482 1.375 . S
C483 C484 1.369 . S
C483 H496 0.950 . S
C484 C483 1.369 . S
C484 C485 1.392 . S
C484 H497 0.951 . S
C485 C484 1.392 . S
C485 C487 1.384 . S
H486 C488 0.949 . S
C487 C485 1.384 . S
C487 C488 1.385 . S
C487 H489 0.950 . S
C488 C482 1.404 . S
C488 H486 0.949 . S
C488 C487 1.385 . S
H489 C487 0.950 . S
H490 C474 0.951 . S
H491 C476 0.951 . S
H492 C478 0.951 . S
H493 C479 0.950 . S
H494 C480 0.950 . S
H495 C481 0.950 . S
H496 C483 0.950 . S
H497 C484 0.951 . S
C211 C58 1.131 . S
C221 C187 1.246 . S
C235 C151 1.528 . S
C245 C193 1.433 . S
C259 C56 1.589 . S
C269 C184 1.473 . S
C283 C153 1.239 . S
C293 C209 1.216 . S
C307 C74 1.584 . S
C317 C175 1.428 . S
C341 C192 1.502 . S
C331 C147 1.611 . S
C355 C142 1.203 . S
C365 C188 1.263 . S
C389 C205 1.521 . S
C379 C63 1.604 . S
C413 C172 1.449 . S
C403 C158 1.567 . S
C437 C208 1.275 . S
C427 C69 1.158 . S
C461 C171 1.447 . S
C451 C140 1.608 . S
C485 C196 1.444 . S
C475 C67 1.525 . S
