# Generated by pormake.
# Topology eea, (3,6)-cn, num edge types: 1
# Building blocks:
#     Node 0, Type 0, BuildingBlock: OLANEW_clean_sbu_2, # of connection points: 3
#     Node 1, Type 0, BuildingBlock: OLANEW_clean_sbu_2, # of connection points: 3
#     Node 2, Type 0, BuildingBlock: OLANEW_clean_sbu_2, # of connection points: 3
#     Node 3, Type 0, BuildingBlock: OLANEW_clean_sbu_2, # of connection points: 3
#     Node 4, Type 0, BuildingBlock: OLANEW_clean_sbu_2, # of connection points: 3
#     Node 5, Type 0, BuildingBlock: OLANEW_clean_sbu_2, # of connection points: 3
#     Node 6, Type 0, BuildingBlock: OLANEW_clean_sbu_2, # of connection points: 3
#     Node 7, Type 0, BuildingBlock: OLANEW_clean_sbu_2, # of connection points: 3
#     Node 8, Type 0, BuildingBlock: OLANEW_clean_sbu_2, # of connection points: 3
#     Node 9, Type 0, BuildingBlock: OLANEW_clean_sbu_2, # of connection points: 3
#     Node 10, Type 0, BuildingBlock: OLANEW_clean_sbu_2, # of connection points: 3
#     Node 11, Type 0, BuildingBlock: OLANEW_clean_sbu_2, # of connection points: 3
#     Node 12, Type 0, BuildingBlock: OLANEW_clean_sbu_2, # of connection points: 3
#     Node 13, Type 0, BuildingBlock: OLANEW_clean_sbu_2, # of connection points: 3
#     Node 14, Type 0, BuildingBlock: OLANEW_clean_sbu_2, # of connection points: 3
#     Node 15, Type 0, BuildingBlock: OLANEW_clean_sbu_2, # of connection points: 3
#     Node 16, Type 0, BuildingBlock: OLANEW_clean_sbu_2, # of connection points: 3
#     Node 17, Type 0, BuildingBlock: OLANEW_clean_sbu_2, # of connection points: 3
#     Node 18, Type 1, BuildingBlock: CUWYAW_clean_sbu_0, # of connection points: 6
#     Node 19, Type 1, BuildingBlock: CUWYAW_clean_sbu_0, # of connection points: 6
#     Node 20, Type 1, BuildingBlock: CUWYAW_clean_sbu_0, # of connection points: 6
#     Node 21, Type 1, BuildingBlock: CUWYAW_clean_sbu_0, # of connection points: 6
#     Node 22, Type 1, BuildingBlock: CUWYAW_clean_sbu_0, # of connection points: 6
#     Node 23, Type 1, BuildingBlock: CUWYAW_clean_sbu_0, # of connection points: 6
#     Node 24, Type 1, BuildingBlock: CUWYAW_clean_sbu_0, # of connection points: 6
#     Node 25, Type 1, BuildingBlock: CUWYAW_clean_sbu_0, # of connection points: 6
#     Node 26, Type 1, BuildingBlock: CUWYAW_clean_sbu_0, # of connection points: 6
#     Edge 27, Type (0, 1), BuildingBlock: XUDNAN_clean_linker_2, # of connection points: 2
#     Edge 28, Type (0, 1), BuildingBlock: XUDNAN_clean_linker_2, # of connection points: 2
#     Edge 29, Type (0, 1), BuildingBlock: XUDNAN_clean_linker_2, # of connection points: 2
#     Edge 30, Type (0, 1), BuildingBlock: XUDNAN_clean_linker_2, # of connection points: 2
#     Edge 31, Type (0, 1), BuildingBlock: XUDNAN_clean_linker_2, # of connection points: 2
#     Edge 32, Type (0, 1), BuildingBlock: XUDNAN_clean_linker_2, # of connection points: 2
#     Edge 33, Type (0, 1), BuildingBlock: XUDNAN_clean_linker_2, # of connection points: 2
#     Edge 34, Type (0, 1), BuildingBlock: XUDNAN_clean_linker_2, # of connection points: 2
#     Edge 35, Type (0, 1), BuildingBlock: XUDNAN_clean_linker_2, # of connection points: 2
#     Edge 36, Type (0, 1), BuildingBlock: XUDNAN_clean_linker_2, # of connection points: 2
#     Edge 37, Type (0, 1), BuildingBlock: XUDNAN_clean_linker_2, # of connection points: 2
#     Edge 38, Type (0, 1), BuildingBlock: XUDNAN_clean_linker_2, # of connection points: 2
#     Edge 39, Type (0, 1), BuildingBlock: XUDNAN_clean_linker_2, # of connection points: 2
#     Edge 40, Type (0, 1), BuildingBlock: XUDNAN_clean_linker_2, # of connection points: 2
#     Edge 41, Type (0, 1), BuildingBlock: XUDNAN_clean_linker_2, # of connection points: 2
#     Edge 42, Type (0, 1), BuildingBlock: XUDNAN_clean_linker_2, # of connection points: 2
#     Edge 43, Type (0, 1), BuildingBlock: XUDNAN_clean_linker_2, # of connection points: 2
#     Edge 44, Type (0, 1), BuildingBlock: XUDNAN_clean_linker_2, # of connection points: 2
#     Edge 45, Type (0, 1), BuildingBlock: XUDNAN_clean_linker_2, # of connection points: 2
#     Edge 46, Type (0, 1), BuildingBlock: XUDNAN_clean_linker_2, # of connection points: 2
#     Edge 47, Type (0, 1), BuildingBlock: XUDNAN_clean_linker_2, # of connection points: 2
#     Edge 48, Type (0, 1), BuildingBlock: XUDNAN_clean_linker_2, # of connection points: 2
#     Edge 49, Type (0, 1), BuildingBlock: XUDNAN_clean_linker_2, # of connection points: 2
#     Edge 50, Type (0, 1), BuildingBlock: XUDNAN_clean_linker_2, # of connection points: 2
#     Edge 51, Type (0, 1), BuildingBlock: XUDNAN_clean_linker_2, # of connection points: 2
#     Edge 52, Type (0, 1), BuildingBlock: XUDNAN_clean_linker_2, # of connection points: 2
#     Edge 53, Type (0, 1), BuildingBlock: XUDNAN_clean_linker_2, # of connection points: 2
#     Edge 54, Type (0, 1), BuildingBlock: XUDNAN_clean_linker_2, # of connection points: 2
#     Edge 55, Type (0, 1), BuildingBlock: XUDNAN_clean_linker_2, # of connection points: 2
#     Edge 56, Type (0, 1), BuildingBlock: XUDNAN_clean_linker_2, # of connection points: 2
#     Edge 57, Type (0, 1), BuildingBlock: XUDNAN_clean_linker_2, # of connection points: 2
#     Edge 58, Type (0, 1), BuildingBlock: XUDNAN_clean_linker_2, # of connection points: 2
#     Edge 59, Type (0, 1), BuildingBlock: XUDNAN_clean_linker_2, # of connection points: 2
#     Edge 60, Type (0, 1), BuildingBlock: XUDNAN_clean_linker_2, # of connection points: 2
#     Edge 61, Type (0, 1), BuildingBlock: XUDNAN_clean_linker_2, # of connection points: 2
#     Edge 62, Type (0, 1), BuildingBlock: XUDNAN_clean_linker_2, # of connection points: 2
#     Edge 63, Type (0, 1), BuildingBlock: XUDNAN_clean_linker_2, # of connection points: 2
#     Edge 64, Type (0, 1), BuildingBlock: XUDNAN_clean_linker_2, # of connection points: 2
#     Edge 65, Type (0, 1), BuildingBlock: XUDNAN_clean_linker_2, # of connection points: 2
#     Edge 66, Type (0, 1), BuildingBlock: XUDNAN_clean_linker_2, # of connection points: 2
#     Edge 67, Type (0, 1), BuildingBlock: XUDNAN_clean_linker_2, # of connection points: 2
#     Edge 68, Type (0, 1), BuildingBlock: XUDNAN_clean_linker_2, # of connection points: 2
#     Edge 69, Type (0, 1), BuildingBlock: XUDNAN_clean_linker_2, # of connection points: 2
#     Edge 70, Type (0, 1), BuildingBlock: XUDNAN_clean_linker_2, # of connection points: 2
#     Edge 71, Type (0, 1), BuildingBlock: XUDNAN_clean_linker_2, # of connection points: 2
#     Edge 72, Type (0, 1), BuildingBlock: XUDNAN_clean_linker_2, # of connection points: 2
#     Edge 73, Type (0, 1), BuildingBlock: XUDNAN_clean_linker_2, # of connection points: 2
#     Edge 74, Type (0, 1), BuildingBlock: XUDNAN_clean_linker_2, # of connection points: 2
#     Edge 75, Type (0, 1), BuildingBlock: XUDNAN_clean_linker_2, # of connection points: 2
#     Edge 76, Type (0, 1), BuildingBlock: XUDNAN_clean_linker_2, # of connection points: 2
#     Edge 77, Type (0, 1), BuildingBlock: XUDNAN_clean_linker_2, # of connection points: 2
#     Edge 78, Type (0, 1), BuildingBlock: XUDNAN_clean_linker_2, # of connection points: 2
#     Edge 79, Type (0, 1), BuildingBlock: XUDNAN_clean_linker_2, # of connection points: 2
#     Edge 80, Type (0, 1), BuildingBlock: XUDNAN_clean_linker_2, # of connection points: 2
# Relax obj value: 0.027
# Max RMSD: 0.191
# Mean RMSD: 0.126
data_MOF--net-eea--node1-OLANEW_clean_sbu_2--node2-CUWYAW_clean_sbu_0--edge1-XUDNAN_clean_linker_2
_symmetry_space_group_name_H-M    P1
_symmetry_Int_Tables_number       1
_symmetry_cell_setting            triclinic
loop_
_symmetry_equiv_pos_as_xyz
'x, y, z'
_cell_length_a     60.744877
_cell_length_b     58.825763
_cell_length_c     71.090853
_cell_angle_alpha  96.47299
_cell_angle_beta   93.60274
_cell_angle_gamma 120.55414
loop_
_atom_site_label
_atom_site_type_symbol
_atom_site_fract_x
_atom_site_fract_y
_atom_site_fract_z
_atom_type_partial_charge
O0 O 0.26694 0.16708 0.44134 0.0
Cd1 Cd 0.26981 0.16909 0.40727 0.0
O2 O 0.2269 0.13279 0.43718 0.0
Cd3 Cd 0.224 0.12076 0.40659 0.0
O4 O 0.21179 0.08559 0.38503 0.0
C5 C 0.22151 0.07146 0.38825 0.0
O6 O 0.23925 0.07993 0.40317 0.0
C7 C 0.24693 0.15111 0.44823 0.0
C8 C 0.2402 0.18745 0.39042 0.0
O9 O 0.26317 0.20405 0.39895 0.0
O10 O 0.23131 0.16243 0.39004 0.0
O11 O 0.89797 0.16741 0.43624 0.0
Cd12 Cd 0.89318 0.15895 0.40141 0.0
O13 O 0.89269 0.12857 0.44055 0.0
Cd14 Cd 0.88137 0.11015 0.41049 0.0
O15 O 0.85019 0.07298 0.39325 0.0
C16 C 0.82781 0.06585 0.39749 0.0
O17 O 0.82532 0.08186 0.41046 0.0
C18 C 0.89732 0.15173 0.44739 0.0
C19 C 0.94063 0.17843 0.38801 0.0
O20 O 0.93291 0.19423 0.39393 0.0
O21 O 0.92601 0.1534 0.38845 0.0
O22 O 0.89241 0.69838 0.44393 0.0
Cd23 Cd 0.90075 0.69532 0.41076 0.0
O24 O 0.87449 0.71976 0.43414 0.0
Cd25 Cd 0.85434 0.74171 0.43224 0.0
O26 O 0.83516 0.75842 0.41676 0.0
C27 C 0.82233 0.76802 0.42391 0.0
O28 O 0.82013 0.76862 0.4422 0.0
C29 C 0.88005 0.71011 0.44755 0.0
C30 C 0.95104 0.73168 0.40518 0.0
O31 O 0.93453 0.7389 0.40707 0.0
O32 O 0.94393 0.70732 0.40619 0.0
O33 O 0.17726 0.30201 0.59334 0.0
Cd34 Cd 0.18314 0.29966 0.62725 0.0
O35 O 0.14092 0.29847 0.59912 0.0
Cd36 Cd 0.10271 0.2936 0.59523 0.0
O37 O 0.06862 0.28823 0.60741 0.0
C38 C 0.04821 0.26527 0.60553 0.0
O39 O 0.04711 0.24482 0.59494 0.0
C40 C 0.15641 0.30059 0.58725 0.0
C41 C 0.203 0.26737 0.63392 0.0
O42 O 0.17888 0.25718 0.62838 0.0
O43 O 0.21783 0.29289 0.6363 0.0
O44 O 0.7579 0.85978 0.60115 0.0
Cd45 Cd 0.7649 0.863 0.63585 0.0
O46 O 0.79772 0.89183 0.59986 0.0
Cd47 Cd 0.80667 0.90812 0.63035 0.0
O48 O 0.81962 0.9447 0.65077 0.0
C49 C 0.80832 0.95749 0.648 0.0
O50 O 0.78888 0.9472 0.63412 0.0
C51 C 0.77563 0.87322 0.59141 0.0
C52 C 0.77362 0.82289 0.64488 0.0
O53 O 0.75067 0.81829 0.64107 0.0
O54 O 0.79256 0.84657 0.64462 0.0
O55 O 0.09109 0.87781 0.58351 0.0
Cd56 Cd 0.07795 0.89138 0.61246 0.0
O57 O 0.11587 0.8662 0.59831 0.0
Cd58 Cd 0.11629 0.8865 0.62604 0.0
O59 O 0.13754 0.92333 0.64698 0.0
C60 C 0.15967 0.94015 0.64312 0.0
O61 O 0.16747 0.93388 0.62762 0.0
C62 C 0.10534 0.86777 0.58288 0.0
C63 C 0.04109 0.84825 0.62791 0.0
O64 O 0.03417 0.85766 0.61488 0.0
O65 O 0.0653 0.85903 0.6334 0.0
O66 O 0.92171 0.47659 0.77105 0.0
Cd67 Cd 0.91735 0.47844 0.73686 0.0
O68 O 0.8818 0.44309 0.7696 0.0
Cd69 Cd 0.8744 0.43357 0.73849 0.0
O70 O 0.86373 0.3993 0.71648 0.0
C71 C 0.876 0.3874 0.71891 0.0
O72 O 0.89486 0.39756 0.73324 0.0
C73 C 0.9034 0.4606 0.77938 0.0
C74 C 0.90845 0.51892 0.72924 0.0
O75 O 0.88962 0.4948 0.72822 0.0
O76 O 0.93138 0.52387 0.73391 0.0
O77 O 0.56758 0.52276 0.77917 0.0
Cd78 Cd 0.58208 0.54773 0.75283 0.0
O79 O 0.55262 0.4844 0.76025 0.0
Cd80 Cd 0.53395 0.44081 0.75232 0.0
O81 O 0.5143 0.398 0.74083 0.0
C82 C 0.48996 0.38329 0.74006 0.0
O83 O 0.477 0.3941 0.74659 0.0
C84 C 0.55577 0.49736 0.77679 0.0
C85 C 0.62644 0.55255 0.74003 0.0
O86 O 0.62794 0.56932 0.754 0.0
O87 O 0.60396 0.53311 0.73246 0.0
O88 O 0.58581 0.09847 0.78622 0.0
Cd89 Cd 0.60262 0.12689 0.76201 0.0
O90 O 0.54858 0.08859 0.77166 0.0
Cd91 Cd 0.50711 0.07279 0.76765 0.0
O92 O 0.47047 0.06869 0.75759 0.0
C93 C 0.46746 0.08826 0.76256 0.0
O94 O 0.48589 0.10938 0.77429 0.0
C95 C 0.56139 0.08571 0.78504 0.0
C96 C 0.63872 0.1203 0.74396 0.0
O97 O 0.64549 0.13749 0.75923 0.0
O98 O 0.61466 0.10596 0.73724 0.0
O99 O 0.81727 0.58717 0.91876 0.0
Cd100 Cd 0.81519 0.56814 0.94799 0.0
O101 O 0.78317 0.58814 0.92542 0.0
Cd102 Cd 0.74944 0.59263 0.92468 0.0
O103 O 0.71755 0.59362 0.93671 0.0
C104 C 0.69448 0.57382 0.93274 0.0
O105 O 0.6895 0.55293 0.92031 0.0
C106 C 0.80011 0.59268 0.91432 0.0
C107 C 0.84881 0.54937 0.95283 0.0
O108 O 0.82659 0.53474 0.94264 0.0
O109 O 0.85535 0.57309 0.96056 0.0
O110 O 0.37579 0.14958 0.92891 0.0
Cd111 Cd 0.37485 0.13403 0.95953 0.0
O112 O 0.39076 0.18874 0.94648 0.0
Cd113 Cd 0.40623 0.23185 0.9526 0.0
O114 O 0.42367 0.27462 0.96271 0.0
C115 C 0.44584 0.28713 0.9727 0.0
O116 O 0.45734 0.27393 0.97622 0.0
C117 C 0.38304 0.17416 0.93003 0.0
C118 C 0.4138 0.12428 0.97046 0.0
O119 O 0.39247 0.1059 0.9604 0.0
O120 O 0.41708 0.14764 0.9749 0.0
O121 O 0.7524 0.20602 0.91719 0.0
Cd122 Cd 0.74952 0.214 0.95124 0.0
O123 O 0.78702 0.20326 0.922 0.0
Cd124 Cd 0.7952 0.21959 0.95241 0.0
O125 O 0.82601 0.25578 0.97087 0.0
C126 C 0.8487 0.26099 0.96894 0.0
O127 O 0.85143 0.24367 0.95751 0.0
C128 C 0.76914 0.20168 0.91059 0.0
C129 C 0.71057 0.16882 0.96351 0.0
O130 O 0.70559 0.18464 0.95576 0.0
O131 O 0.73395 0.17423 0.96536 0.0
O132 O 0.58828 0.8206 0.09888 0.0
Cd133 Cd 0.58406 0.81855 0.06419 0.0
O134 O 0.5487 0.78688 0.09863 0.0
Cd135 Cd 0.54054 0.77275 0.06782 0.0
O136 O 0.52687 0.73796 0.04543 0.0
C137 C 0.53688 0.72377 0.04735 0.0
O138 O 0.55541 0.73179 0.06162 0.0
C139 C 0.57015 0.80575 0.10784 0.0
C140 C 0.55755 0.84262 0.05159 0.0
O141 O 0.54575 0.81748 0.05217 0.0
O142 O 0.58196 0.85654 0.05711 0.0
O143 O 0.23367 0.85194 0.11062 0.0
Cd144 Cd 0.23373 0.84356 0.07628 0.0
O145 O 0.20521 0.80913 0.10563 0.0
Cd146 Cd 0.18043 0.76892 0.1119 0.0
O147 O 0.16257 0.72594 0.10287 0.0
C148 C 0.13903 0.71128 0.09547 0.0
O149 O 0.12458 0.72193 0.09468 0.0
C150 C 0.21856 0.83106 0.11724 0.0
C151 C 0.28061 0.87828 0.06465 0.0
O152 O 0.26218 0.88299 0.0641 0.0
O153 O 0.27699 0.85723 0.07095 0.0
O154 O 0.2366 0.42899 0.11637 0.0
Cd155 Cd 0.24566 0.45469 0.09006 0.0
O156 O 0.20832 0.39096 0.09779 0.0
Cd157 Cd 0.20437 0.4115 0.07524 0.0
O158 O 0.18411 0.43045 0.06468 0.0
C159 C 0.18269 0.44674 0.07716 0.0
O160 O 0.19447 0.45194 0.09463 0.0
C161 C 0.22162 0.40369 0.11402 0.0
C162 C 0.28375 0.45383 0.07032 0.0
O163 O 0.28969 0.47225 0.0846 0.0
O164 O 0.25984 0.4358 0.06541 0.0
O165 O 0.4937 0.94147 0.25797 0.0
Cd166 Cd 0.49134 0.92816 0.28954 0.0
O167 O 0.45883 0.94166 0.263 0.0
Cd168 Cd 0.42374 0.94359 0.26074 0.0
O169 O 0.39162 0.943 0.27337 0.0
C170 C 0.37023 0.92113 0.27231 0.0
O171 O 0.36713 0.8992 0.26244 0.0
C172 C 0.47564 0.94496 0.25203 0.0
C173 C 0.51711 0.90121 0.29584 0.0
O174 O 0.49416 0.88884 0.28671 0.0
O175 O 0.52801 0.92642 0.30186 0.0
O176 O 0.10221 0.5262 0.26921 0.0
Cd177 Cd 0.11611 0.53594 0.3037 0.0
O178 O 0.09029 0.55587 0.2695 0.0
Cd179 Cd 0.1063 0.5756 0.29908 0.0
O180 O 0.12442 0.61319 0.31928 0.0
C181 C 0.11504 0.62794 0.31733 0.0
O182 O 0.09484 0.61905 0.30435 0.0
C183 C 0.09203 0.53705 0.26048 0.0
C184 C 0.11806 0.49296 0.31501 0.0
O185 O 0.09686 0.49281 0.31321 0.0
O186 O 0.13855 0.51367 0.3118 0.0
O187 O 0.40816 0.52771 0.24341 0.0
Cd188 Cd 0.40505 0.54047 0.27659 0.0
O189 O 0.44847 0.53819 0.24968 0.0
Cd190 Cd 0.45495 0.55617 0.27953 0.0
O191 O 0.48623 0.59228 0.29764 0.0
C192 C 0.50856 0.59833 0.29382 0.0
O193 O 0.5105 0.58199 0.28077 0.0
C194 C 0.42819 0.52903 0.2378 0.0
C195 C 0.36721 0.49728 0.29123 0.0
O196 O 0.36142 0.51126 0.28177 0.0
O197 O 0.39089 0.50369 0.29374 0.0
C198 C 0.52503 0.99921 0.06695 0.0
Eu199 Eu 0.51258 0.00346 0.03233 0.0
C200 C 0.51417 0.99339 0.08508 0.0
C201 C 0.50916 0.01119 0.09617 0.0
C202 C 0.50058 0.00609 0.1139 0.0
C203 C 0.49682 0.98311 0.12091 0.0
C204 C 0.50129 0.96506 0.10956 0.0
C205 C 0.50997 0.97022 0.0919 0.0
C206 C 0.50367 0.04069 0.02058 0.0
C207 C 0.44967 0.97055 0.0201 0.0
C208 C 0.47588 0.99264 0.95499 0.0
Eu209 Eu 0.48968 0.99155 0.99017 0.0
C210 C 0.48606 0.99872 0.93669 0.0
C211 C 0.47889 0.97768 0.92156 0.0
C212 C 0.4861 0.98303 0.90356 0.0
C213 C 0.50045 0.00955 0.90025 0.0
C214 C 0.50823 0.03063 0.91554 0.0
C215 C 0.50108 0.02528 0.93357 0.0
C216 C 0.49698 0.95366 1.00237 0.0
C217 C 0.55211 0.02861 1.00277 0.0
O218 O 0.51492 0.97929 0.05257 0.0
O219 O 0.53065 0.02201 0.06172 0.0
O220 O 0.52275 0.04683 0.03354 0.0
O221 O 0.48968 0.01577 0.01591 0.0
O222 O 0.46917 0.97535 0.03277 0.0
O223 O 0.45343 0.97844 1.00331 0.0
O224 O 0.48395 0.01271 0.96902 0.0
O225 O 0.47335 0.97119 0.96078 0.0
O226 O 0.47738 0.94826 0.9903 0.0
O227 O 0.51239 0.97857 1.00663 0.0
O228 O 0.532 0.02253 0.99033 0.0
O229 O 0.54936 0.01968 0.01923 0.0
H230 H 0.51231 0.02931 0.09136 0.0
H231 H 0.49764 0.02059 0.12234 0.0
H232 H 0.4982 0.94695 0.11435 0.0
H233 H 0.51375 0.95621 0.08366 0.0
H234 H 0.46716 0.95702 0.92351 0.0
H235 H 0.4801 0.96634 0.89216 0.0
H236 H 0.51902 0.05129 0.91342 0.0
H237 H 0.50673 0.04198 0.94488 0.0
C238 C 0.01049 0.52438 0.06816 0.0
Eu239 Eu 0.00716 0.50245 0.03336 0.0
C240 C 0.01772 0.52136 0.08744 0.0
C241 C 0.01176 0.49625 0.09164 0.0
C242 C 0.01929 0.49387 0.10995 0.0
C243 C 0.03317 0.51659 0.12434 0.0
C244 C 0.03922 0.54172 0.11995 0.0
C245 C 0.03149 0.54403 0.1017 0.0
C246 C 0.97721 0.44961 0.01866 0.0
C247 C 0.05196 0.48654 0.03102 0.0
C248 C 0.01524 0.46477 0.9595 0.0
Eu249 Eu 0.01851 0.48561 0.99464 0.0
C250 C -0.00078 0.46055 0.94153 0.0
C251 C 0.00945 0.46266 0.92425 0.0
C252 C 0.99509 0.46086 0.90737 0.0
C253 C 0.97031 0.45721 0.90753 0.0
C254 C 0.9601 0.45484 0.92492 0.0
C255 C 0.97434 0.45631 0.94169 0.0
C256 C 0.04991 0.5376 0.01064 0.0
C257 C 0.97492 0.50248 0.99712 0.0
O258 O 0.02921 0.53448 0.05776 0.0
O259 O 0.98899 0.50429 0.05844 0.0
O260 O 0.9688 0.46288 0.02845 0.0
O261 O 0.00098 0.46421 0.01815 0.0
O262 O 0.04223 0.49894 0.04101 0.0
O263 O 0.04339 0.47603 0.01274 0.0
O264 O 0.00324 0.45051 0.97243 0.0
O265 O 0.03191 0.48981 0.96679 0.0
O266 O 0.05784 0.52361 1.00115 0.0
O267 O 0.02581 0.52398 0.01031 0.0
O268 O 0.98198 0.48691 0.9879 0.0
O269 O 0.9858 0.51532 0.01466 0.0
H270 H 0.00133 0.47849 0.08077 0.0
H271 H 0.01403 0.47418 0.11285 0.0
H272 H 0.05031 0.55973 0.13053 0.0
H273 H 0.03647 0.5636 0.09866 0.0
H274 H 0.02866 0.466 0.92386 0.0
H275 H 0.00342 0.46229 0.89421 0.0
H276 H 0.94129 0.45239 0.92572 0.0
H277 H 0.96604 0.45449 0.95485 0.0
C278 C 0.46452 0.45886 0.95239 0.0
Eu279 Eu 0.47734 0.49092 0.98481 0.0
C280 C 0.47492 0.45863 0.93432 0.0
C281 C 0.48978 0.48235 0.92706 0.0
C282 C 0.49852 0.4815 0.90942 0.0
C283 C 0.49275 0.45694 0.89882 0.0
C284 C 0.47864 0.43339 0.90657 0.0
C285 C 0.46975 0.43425 0.92413 0.0
C286 C 0.48404 0.54049 0.99119 0.0
C287 C 0.54044 0.52979 0.99441 0.0
C288 C 0.51402 0.55084 0.05896 0.0
Eu289 Eu 0.50249 0.52235 0.02511 0.0
C290 C 0.5012 0.54539 0.07614 0.0
C291 C 0.51256 0.56378 0.09322 0.0
C292 C 0.50049 0.55823 0.10965 0.0
C293 C 0.4768 0.53422 0.10918 0.0
C294 C 0.46549 0.51591 0.09196 0.0
C295 C 0.47764 0.5214 0.07562 0.0
C296 C 0.49628 0.47312 0.01848 0.0
C297 C 0.4393 0.4855 0.01473 0.0
O298 O 0.47745 0.45799 0.96744 0.0
O299 O 0.45653 0.47562 0.95591 0.0
O300 O 0.46466 0.52043 0.97981 0.0
O301 O 0.4996 0.53401 0.99723 0.0
O302 O 0.52035 0.50845 0.98367 0.0
O303 O 0.53774 0.5418 0.01023 0.0
O304 O 0.50142 0.55319 0.04442 0.0
O305 O 0.52366 0.53599 0.05393 0.0
O306 O 0.51591 0.49347 0.02936 0.0
O307 O 0.48024 0.47919 0.01276 0.0
O308 O 0.4596 0.50652 0.02547 0.0
O309 O 0.44177 0.47283 0.99923 0.0
H310 H 0.49423 0.50144 0.93486 0.0
H311 H 0.5091 0.5 0.90386 0.0
H312 H 0.4743 0.41422 0.89901 0.0
H313 H 0.45859 0.4158 0.92967 0.0
H314 H 0.53076 0.58238 0.09385 0.0
H315 H 0.50952 0.57286 0.12265 0.0
H316 H 0.44744 0.49712 0.09119 0.0
H317 H 0.46872 0.50681 0.0626 0.0
C318 C 0.18739 0.32553 0.39649 0.0
Eu319 Eu 0.17233 0.32637 0.36157 0.0
C320 C 0.17821 0.32079 0.41507 0.0
C321 C 0.15244 0.31189 0.41737 0.0
C322 C 0.14448 0.30788 0.43542 0.0
C323 C 0.16219 0.31268 0.45135 0.0
C324 C 0.18797 0.32165 0.44881 0.0
C325 C 0.19585 0.32559 0.43084 0.0
C326 C 0.15611 0.35844 0.34999 0.0
C327 C 0.11072 0.28253 0.34779 0.0
C328 C 0.13774 0.31571 0.28438 0.0
Eu329 Eu 0.15018 0.31316 0.31946 0.0
C330 C 0.15072 0.32346 0.2673 0.0
C331 C 0.16399 0.31152 0.25974 0.0
C332 C 0.17486 0.31802 0.24294 0.0
C333 C 0.17288 0.33675 0.23346 0.0
C334 C 0.16028 0.34927 0.24136 0.0
C335 C 0.14922 0.3426 0.25808 0.0
C336 C 0.16505 0.28013 0.33093 0.0
C337 C 0.21177 0.35584 0.33306 0.0
O338 O 0.17718 0.30473 0.3828 0.0
O339 O 0.19046 0.34711 0.3906 0.0
O340 O 0.17638 0.36714 0.36244 0.0
O341 O 0.14482 0.3335 0.34511 0.0
O342 O 0.13086 0.2924 0.36124 0.0
O343 O 0.11269 0.29025 0.33092 0.0
O344 O 0.14434 0.33501 0.29872 0.0
O345 O 0.13467 0.29391 0.28988 0.0
O346 O 0.14554 0.27231 0.31794 0.0
O347 O 0.17696 0.30515 0.33602 0.0
O348 O 0.1913 0.34806 0.32044 0.0
O349 O 0.20955 0.34634 0.34923 0.0
H350 H 0.13857 0.30808 0.40527 0.0
H351 H 0.12446 0.30079 0.43686 0.0
H352 H 0.20225 0.32607 0.46079 0.0
H353 H 0.21584 0.33259 0.42929 0.0
H354 H 0.16571 0.29688 0.26664 0.0
H355 H 0.1847 0.30828 0.2373 0.0
H356 H 0.15822 0.36359 0.23427 0.0
H357 H 0.13909 0.35207 0.26364 0.0
C358 C 0.67188 0.85347 0.40462 0.0
Eu359 Eu 0.66727 0.8354 0.36846 0.0
C360 C 0.684 0.85251 0.42281 0.0
C361 C 0.67755 0.8597 0.44014 0.0
C362 C 0.68976 0.85974 0.45751 0.0
C363 C 0.70866 0.85262 0.45777 0.0
C364 C 0.71458 0.84483 0.4403 0.0
C365 C 0.70233 0.84479 0.423 0.0
C366 C 0.63781 0.78395 0.35078 0.0
C367 C 0.71215 0.82137 0.35949 0.0
C368 C 0.6712 0.80883 0.29086 0.0
Eu369 Eu 0.67591 0.82491 0.32741 0.0
C370 C 0.65778 0.80983 0.27332 0.0
C371 C 0.66491 0.80527 0.25557 0.0
C372 C 0.65236 0.80625 0.23878 0.0
C373 C 0.6324 0.81176 0.23948 0.0
C374 C 0.62547 0.81653 0.25736 0.0
C375 C 0.63811 0.81566 0.27412 0.0
C376 C 0.70473 0.87652 0.34529 0.0
C377 C 0.63015 0.83667 0.33594 0.0
O378 O 0.68771 0.86727 0.39305 0.0
O379 O 0.65212 0.83075 0.3957 0.0
O380 O 0.62961 0.79537 0.36273 0.0
O381 O 0.66126 0.79953 0.34956 0.0
O382 O 0.70345 0.83237 0.372 0.0
O383 O 0.70204 0.81341 0.34129 0.0
O384 O 0.65653 0.79356 0.30236 0.0
O385 O 0.69024 0.83184 0.29999 0.0
O386 O 0.71339 0.86534 0.33363 0.0
O387 O 0.68131 0.86055 0.3462 0.0
O388 O 0.63804 0.82411 0.32418 0.0
O389 O 0.64159 0.84719 0.35373 0.0
H390 H 0.66336 0.86568 0.44024 0.0
H391 H 0.68495 0.86607 0.47073 0.0
H392 H 0.72872 0.83883 0.44003 0.0
H393 H 0.70733 0.83905 0.40975 0.0
H394 H 0.68012 0.80083 0.2547 0.0
H395 H 0.65793 0.80217 0.22522 0.0
H396 H 0.6104 0.82114 0.2584 0.0
H397 H 0.63248 0.81951 0.28767 0.0
C398 C 0.14442 0.80473 0.30074 0.0
Eu399 Eu 0.15836 0.83502 0.33406 0.0
C400 C 0.15525 0.80924 0.28272 0.0
C401 C 0.17326 0.83531 0.28012 0.0
C402 C 0.18392 0.83976 0.26312 0.0
C403 C 0.17699 0.81818 0.24844 0.0
C404 C 0.15905 0.79202 0.25122 0.0
C405 C 0.14826 0.78761 0.26824 0.0
C406 C 0.16504 0.88453 0.34095 0.0
C407 C 0.22142 0.87393 0.34117 0.0
C408 C 0.20028 0.89476 0.40758 0.0
Eu409 Eu 0.18616 0.86636 0.37353 0.0
C410 C 0.19078 0.88808 0.42587 0.0
C411 C 0.1785 0.86145 0.42901 0.0
C412 C 0.16872 0.85489 0.44614 0.0
C413 C 0.17075 0.87478 0.46032 0.0
C414 C 0.18288 0.90142 0.45706 0.0
C415 C 0.19287 0.90801 0.43995 0.0
C416 C 0.1785 0.81633 0.36639 0.0
C417 C 0.12312 0.82985 0.36597 0.0
O418 O 0.15889 0.80384 0.31472 0.0
O419 O 0.1345 0.81918 0.30623 0.0
O420 O 0.14511 0.86424 0.33023 0.0
O421 O 0.18121 0.87837 0.34612 0.0
O422 O 0.20101 0.85194 0.33136 0.0
O423 O 0.21951 0.88642 0.35705 0.0
O424 O 0.18413 0.89496 0.39463 0.0
O425 O 0.21181 0.88269 0.40057 0.0
O426 O 0.19888 0.83643 0.37676 0.0
O427 O 0.16276 0.82312 0.36157 0.0
O428 O 0.14385 0.85154 0.37568 0.0
O429 O 0.12459 0.81641 0.35041 0.0
H430 H 0.17901 0.85225 0.29125 0.0
H431 H 0.19735 0.86019 0.26143 0.0
H432 H 0.1536 0.77491 0.24036 0.0
H433 H 0.1346 0.76733 0.27014 0.0
H434 H 0.17629 0.84567 0.41814 0.0
H435 H 0.15918 0.83417 0.44816 0.0
H436 H 0.18486 0.91717 0.4678 0.0
H437 H 0.20209 0.92861 0.43767 0.0
C438 C 0.86745 0.69047 0.74287 0.0
Eu439 Eu 0.85247 0.68261 0.70633 0.0
C440 C 0.85628 0.6814 0.76027 0.0
C441 C 0.83004 0.67148 0.7615 0.0
C442 C 0.81984 0.66231 0.7781 0.0
C443 C 0.83569 0.66271 0.79362 0.0
C444 C 0.86198 0.67283 0.79226 0.0
C445 C 0.87213 0.68207 0.77575 0.0
C446 C 0.83301 0.70749 0.68763 0.0
C447 C 0.79316 0.63132 0.69416 0.0
C448 C 0.81601 0.64946 0.62757 0.0
Eu449 Eu 0.83145 0.65875 0.66414 0.0
C450 C 0.82289 0.66187 0.61035 0.0
C451 C 0.80314 0.65491 0.59555 0.0
C452 C 0.80891 0.66545 0.57867 0.0
C453 C 0.83464 0.68318 0.57624 0.0
C454 C 0.85447 0.69045 0.59125 0.0
C455 C 0.84863 0.67995 0.60823 0.0
C456 C 0.8508 0.63393 0.68312 0.0
C457 C 0.89018 0.70968 0.67633 0.0
O458 O 0.86762 0.67239 0.73045 0.0
O459 O 0.86122 0.70575 0.73483 0.0
O460 O 0.85316 0.72014 0.70068 0.0
O461 O 0.82351 0.68257 0.68579 0.0
O462 O 0.81288 0.64667 0.70786 0.0
O463 O 0.79486 0.63351 0.67597 0.0
O464 O 0.80791 0.66019 0.64038 0.0
O465 O 0.83124 0.64222 0.63512 0.0
O466 O 0.83068 0.62121 0.67008 0.0
O467 O 0.86031 0.6588 0.68469 0.0
O468 O 0.86933 0.69754 0.66331 0.0
O469 O 0.88923 0.70416 0.69385 0.0
H470 H 0.81745 0.67066 0.74961 0.0
H471 H 0.7995 0.65449 0.77867 0.0
H472 H 0.87479 0.67382 0.80405 0.0
H473 H 0.89242 0.68965 0.77503 0.0
H474 H 0.78318 0.64096 0.59695 0.0
H475 H 0.79323 0.65912 0.56731 0.0
H476 H 0.87444 0.70423 0.58985 0.0
H477 H 0.86417 0.68573 0.61958 0.0
C478 C 0.34819 0.21119 0.74082 0.0
Eu479 Eu 0.32898 0.17695 0.70919 0.0
C480 C 0.35327 0.21065 0.76114 0.0
C481 C 0.34486 0.18631 0.76771 0.0
C482 C 0.34948 0.18604 0.78718 0.0
C483 C 0.36266 0.21014 0.80038 0.0
C484 C 0.37143 0.23449 0.79358 0.0
C485 C 0.36672 0.23471 0.77413 0.0
C486 C 0.28924 0.12488 0.70203 0.0
C487 C 0.351 0.1363 0.70251 0.0
C488 C 0.31303 0.12257 0.63182 0.0
Eu489 Eu 0.32581 0.14758 0.66696 0.0
C490 C 0.30173 0.12512 0.61384 0.0
C491 C 0.31088 0.1218 0.59676 0.0
C492 C 0.3014 0.12562 0.57972 0.0
C493 C 0.28258 0.13284 0.57949 0.0
C494 C 0.27332 0.13595 0.59664 0.0
C495 C 0.28285 0.13218 0.61366 0.0
C496 C 0.368 0.19657 0.68042 0.0
C497 C 0.29627 0.18108 0.67364 0.0
O498 O 0.36234 0.20647 0.72968 0.0
O499 O 0.32377 0.19893 0.73343 0.0
O500 O 0.29365 0.14091 0.71786 0.0
O501 O 0.30588 0.13778 0.6918 0.0
O502 O 0.35334 0.15793 0.71285 0.0
O503 O 0.33787 0.12601 0.68508 0.0
O504 O 0.29798 0.11424 0.64504 0.0
O505 O 0.33633 0.14243 0.63872 0.0
O506 O 0.36902 0.17771 0.66987 0.0
O507 O 0.34507 0.18901 0.68261 0.0
O508 O 0.29896 0.16321 0.66255 0.0
O509 O 0.30827 0.19169 0.69138 0.0
H510 H 0.33451 0.16753 0.7578 0.0
H511 H 0.34223 0.16693 0.79194 0.0
H512 H 0.38201 0.25343 0.80328 0.0
H513 H 0.3735 0.25368 0.76924 0.0
H514 H 0.32551 0.11645 0.59663 0.0
H515 H 0.30866 0.1227 0.5667 0.0
H516 H 0.25903 0.14175 0.59697 0.0
H517 H 0.27563 0.13504 0.62669 0.0
C518 C 0.82361 0.13065 0.62888 0.0
Eu519 Eu 0.83347 0.15874 0.66262 0.0
C520 C 0.83626 0.13711 0.61173 0.0
C521 C 0.85759 0.16279 0.61183 0.0
C522 C 0.86924 0.16936 0.59537 0.0
C523 C 0.85972 0.15038 0.57847 0.0
C524 C 0.8384 0.12456 0.57854 0.0
C525 C 0.8268 0.11798 0.59506 0.0
C526 C 0.83618 0.20631 0.66976 0.0
C527 C 0.89616 0.20044 0.67262 0.0
C528 C 0.86865 0.21795 0.73688 0.0
Eu529 Eu 0.85745 0.18929 0.70306 0.0
C530 C 0.85486 0.21679 0.7534 0.0
C531 C 0.86753 0.22227 0.77197 0.0
C532 C 0.85427 0.21996 0.78772 0.0
C533 C 0.82792 0.21181 0.78517 0.0
C534 C 0.81553 0.20681 0.76648 0.0
C535 C 0.82886 0.20941 0.7508 0.0
C536 C 0.85475 0.14171 0.69525 0.0
C537 C 0.79463 0.14884 0.6924 0.0
O538 O 0.8372 0.12963 0.64344 0.0
O539 O 0.81223 0.14379 0.63384 0.0
O540 O 0.81756 0.18559 0.65841 0.0
O541 O 0.85322 0.20162 0.67558 0.0
O542 O 0.87675 0.17891 0.66159 0.0
O543 O 0.89287 0.21084 0.68887 0.0
O544 O 0.86067 0.22334 0.72141 0.0
O545 O 0.87365 0.19888 0.73318 0.0
O546 O 0.87409 0.16269 0.70596 0.0
O547 O 0.83752 0.14643 0.69005 0.0
O548 O 0.81413 0.17051 0.70332 0.0
O549 O 0.79811 0.13731 0.6768 0.0
H550 H 0.86509 0.17786 0.62458 0.0
H551 H 0.88571 0.18933 0.59591 0.0
H552 H 0.83024 0.10959 0.5657 0.0
H553 H 0.81025 0.09811 0.59475 0.0
H554 H 0.88768 0.22821 0.77428 0.0
H555 H 0.86478 0.22473 0.80186 0.0
H556 H 0.79537 0.20046 0.76387 0.0
H557 H 0.81876 0.20543 0.73663 0.0
H558 H 0.32699 0.88075 0.07073 0.0
H559 H 0.28906 0.91587 0.04229 0.0
H560 H 0.32868 0.94388 0.02861 0.0
H561 H 0.39058 0.94256 0.08228 0.0
H562 H 0.40788 0.92542 0.07837 0.0
H563 H 0.37677 0.90857 0.08647 0.0
H564 H 0.36013 0.87007 0.05765 0.0
H565 H 0.39113 0.88685 0.04941 0.0
H566 H 0.36237 0.87773 0.03374 0.0
H567 H 0.37054 0.96527 0.01611 0.0
H568 H 0.41409 0.98203 0.00737 0.0
H569 H 0.42663 0.93544 0.04521 0.0
C570 C 0.32712 0.89448 0.06173 0.0
C571 C 0.30493 0.8961 0.0575 0.0
C572 C 0.30585 0.91437 0.04576 0.0
C573 C 0.32823 0.93032 0.03789 0.0
C574 C 0.34964 0.92803 0.04215 0.0
C575 C 0.34948 0.91089 0.05398 0.0
C576 C 0.37524 0.91242 0.0562 0.0
C577 C 0.38839 0.92287 0.07707 0.0
C578 C 0.37201 0.88515 0.0488 0.0
C579 C 0.38966 0.93269 0.04342 0.0
C580 C 0.3744 0.94128 0.03542 0.0
C581 C 0.38279 0.95895 0.02242 0.0
C582 C 0.4075 0.96821 0.01747 0.0
C583 C 0.42367 0.96001 0.02564 0.0
C584 C 0.41471 0.94218 0.0389 0.0
H585 H 0.15052 0.43528 0.04384 0.0
H586 H 0.17732 0.48308 0.10072 0.0
H587 H 0.14766 0.49924 0.09468 0.0
H588 H 0.14225 0.48308 0.02003 0.0
H589 H 0.11355 0.45722 1.00455 0.0
H590 H 0.13798 0.45053 0.0129 0.0
H591 H 0.10364 0.40994 0.02659 0.0
H592 H 0.07915 0.41661 0.0184 0.0
H593 H 0.08463 0.41481 0.04326 0.0
H594 H 0.11355 0.50827 0.08337 0.0
H595 H 0.07824 0.51101 0.06698 0.0
H596 H 0.07349 0.45766 0.01724 0.0
C597 C 0.15041 0.44942 0.05493 0.0
C598 C 0.1663 0.45793 0.07276 0.0
C599 C 0.16537 0.47627 0.08695 0.0
C600 C 0.14858 0.48558 0.08367 0.0
C601 C 0.13287 0.47646 0.06609 0.0
C602 C 0.13372 0.45894 0.05189 0.0
C603 C 0.11423 0.45172 0.03449 0.0
C604 C 0.12782 0.46121 0.01695 0.0
C605 C 0.09423 0.42147 0.03046 0.0
C606 C 0.1021 0.46766 0.04123 0.0
C607 C 0.11319 0.4818 0.0595 0.0
C608 C 0.10483 0.49744 0.06901 0.0
C609 C 0.08467 0.49877 0.05958 0.0
C610 C 0.07305 0.48457 0.04079 0.0
C611 C 0.08201 0.46886 0.03154 0.0
H612 H 0.55453 0.68933 0.04812 0.0
H613 H 0.49519 0.69839 0.01892 0.0
H614 H 0.47579 0.65281 1.00032 0.0
H615 H 0.5615 0.65115 0.00733 0.0
H616 H 0.56632 0.63035 0.02179 0.0
H617 H 0.5762 0.66417 0.03194 0.0
H618 H 0.54813 0.64658 0.05898 0.0
H619 H 0.53829 0.61281 0.04887 0.0
H620 H 0.51429 0.62154 0.05278 0.0
H621 H 0.46118 0.60474 0.98651 0.0
H622 H 0.45398 0.5592 0.97773 0.0
H623 H 0.52361 0.58281 0.01555 0.0
C624 C 0.53763 0.68192 0.03766 0.0
C625 C 0.52639 0.69746 0.03498 0.0
C626 C 0.5042 0.68689 0.02118 0.0
C627 C 0.49302 0.66101 0.01057 0.0
C628 C 0.50435 0.64605 0.01384 0.0
C629 C 0.5263 0.65624 0.02695 0.0
C630 C 0.53441 0.63595 0.02818 0.0
C631 C 0.56119 0.64601 0.02193 0.0
C632 C 0.53372 0.62881 0.0484 0.0
C633 C 0.51344 0.61263 0.01388 0.0
C634 C 0.49623 0.61874 1.00574 0.0
C635 C 0.47469 0.59984 0.99265 0.0
C636 C 0.47072 0.57407 0.98777 0.0
C637 C 0.48825 0.56759 0.99594 0.0
C638 C 0.50991 0.58722 0.00904 0.0
H639 H 0.84998 0.30476 0.98878 0.0
H640 H 0.89932 0.2768 0.96813 0.0
H641 H 0.93757 0.32168 0.97958 0.0
H642 H 0.88394 0.36854 0.97531 0.0
H643 H 0.87986 0.38604 0.996 0.0
H644 H 0.85632 0.35121 0.98752 0.0
H645 H 0.86261 0.33995 0.02091 0.0
H646 H 0.88604 0.37481 0.02954 0.0
H647 H 0.89456 0.3499 0.03164 0.0
H648 H 0.97012 0.37005 0.99112 0.0
H649 H 0.99519 0.4186 1.00354 0.0
H650 H 0.92507 0.41541 0.01699 0.0
C651 C 0.86886 0.30795 0.98695 0.0
C652 C 0.87164 0.28722 0.97758 0.0
C653 C 0.89668 0.29232 0.97528 0.0
C654 C 0.91855 0.31776 0.98173 0.0
C655 C 0.9151 0.33788 0.99052 0.0
C656 C 0.89094 0.33326 0.9933 0.0
C657 C 0.89256 0.35866 1.00261 0.0
C658 C 0.87726 0.36657 0.98958 0.0
C659 C 0.8834 0.35564 0.02235 0.0
C660 C 0.92135 0.37831 1.00438 0.0
C661 C 0.93397 0.36587 0.99733 0.0
C662 C 0.9605 0.37998 0.99684 0.0
C663 C 0.97454 0.40754 1.00385 0.0
C664 C 0.96203 0.42064 0.01126 0.0
C665 C 0.93511 0.40581 0.01153 0.0
H666 H 0.64279 0.53534 0.92702 0.0
H667 H 0.69983 0.61095 0.96253 0.0
H668 H 0.66644 0.60843 0.98172 0.0
H669 H 0.58875 0.5466 0.92746 0.0
H670 H 0.56553 0.51203 0.92828 0.0
H671 H 0.59363 0.52054 0.91669 0.0
H672 H 0.60573 0.49484 0.93839 0.0
H673 H 0.57777 0.48643 0.95013 0.0
H674 H 0.6094 0.50354 0.96401 0.0
H675 H 0.62748 0.59635 0.99831 0.0
H676 H 0.58518 0.57667 0.01002 0.0
H677 H 0.55352 0.50928 0.96343 0.0
C678 C 0.64823 0.55153 0.93869 0.0
C679 C 0.67398 0.57334 0.94326 0.0
C680 C 0.68025 0.59407 0.9587 0.0
C681 C 0.66142 0.59281 0.96972 0.0
C682 C 0.63634 0.57081 0.96503 0.0
C683 C 0.62964 0.55067 0.94977 0.0
C684 C 0.60142 0.52894 0.948 0.0
C685 C 0.58645 0.52693 0.92898 0.0
C686 C 0.59842 0.50184 0.95028 0.0
C687 C 0.59345 0.53982 0.96486 0.0
C688 C 0.61384 0.56399 0.97448 0.0
C689 C 0.6113 0.57752 0.9908 0.0
C690 C 0.58722 0.56612 0.99739 0.0
C691 C 0.56598 0.54144 0.98766 0.0
C692 C 0.56929 0.52822 0.97118 0.0
H693 H 0.41033 0.07577 0.96546 0.0
H694 H 0.46103 0.15879 0.99222 0.0
H695 H 0.49155 0.14733 1.0066 0.0
H696 H 0.41763 0.04746 1.00411 0.0
H697 H 0.41669 0.01961 0.98977 0.0
H698 H 0.40047 0.03505 0.98011 0.0
H699 H 0.42646 0.04341 0.95136 0.0
H700 H 0.44266 0.02789 0.96105 0.0
H701 H 0.46124 0.06134 0.95579 0.0
H702 H 0.51516 0.12564 0.0199 0.0
H703 H 0.52914 0.0956 0.03068 0.0
H704 H 0.46178 0.02745 0.99567 0.0
C705 C 0.42805 0.09169 0.97406 0.0
C706 C 0.43333 0.1182 0.97765 0.0
C707 C 0.45663 0.13834 0.9892 0.0
C708 C 0.47409 0.13203 0.99741 0.0
C709 C 0.46801 0.10553 0.99388 0.0
C710 C 0.44557 0.08574 0.98237 0.0
C711 C 0.44264 0.05854 0.98163 0.0
C712 C 0.4179 0.03904 0.98938 0.0
C713 C 0.44329 0.04714 0.96125 0.0
C714 C 0.46657 0.06597 0.99488 0.0
C715 C 0.48123 0.09316 1.00166 0.0
C716 C 0.50391 0.10434 0.01453 0.0
C717 C 0.51168 0.0872 0.02061 0.0
C718 C 0.49663 0.0593 0.01391 0.0
C719 C 0.47389 0.04874 1.00087 0.0
H720 H 0.65822 0.14612 0.9552 0.0
H721 H 0.71645 0.13856 0.98766 0.0
H722 H 0.68216 0.10069 1.00048 0.0
H723 H 0.61579 0.13207 0.99001 0.0
H724 H 0.5867 0.11314 0.97302 0.0
H725 H 0.61577 0.13903 0.96595 0.0
H726 H 0.61293 0.10484 0.93801 0.0
H727 H 0.58381 0.07885 0.945 0.0
H728 H 0.61093 0.07451 0.94297 0.0
H729 H 0.64153 0.06563 0.01145 0.0
H730 H 0.59754 0.0344 0.01826 0.0
H731 H 0.566 0.0636 0.97737 0.0
C732 C 0.66376 0.13641 0.96492 0.0
C733 C 0.69001 0.14534 0.97048 0.0
C734 C 0.69646 0.13201 0.98316 0.0
C735 C 0.67712 0.11051 0.99054 0.0
C736 C 0.65144 0.10235 0.98488 0.0
C737 C 0.64472 0.11471 0.9722 0.0
C738 C 0.61572 0.1022 0.96848 0.0
C739 C 0.60806 0.12284 0.97475 0.0
C740 C 0.60524 0.08933 0.94736 0.0
C741 C 0.6072 0.08117 0.9813 0.0
C742 C 0.62806 0.08161 0.9907 0.0
C743 C 0.62502 0.06488 1.004 0.0
C744 C 0.59999 0.04728 0.00782 0.0
C745 C 0.57836 0.0464 0.99823 0.0
C746 C 0.58211 0.06348 0.98471 0.0
H747 H 0.89189 0.57057 0.97959 0.0
H748 H 0.8445 0.5042 0.93329 0.0
H749 H 0.87234 0.48571 0.93908 0.0
H750 H 0.9536 0.57799 0.97161 0.0
H751 H 0.96548 0.58537 0.99675 0.0
H752 H 0.94262 0.59414 0.98834 0.0
H753 H 0.91198 0.56702 0.01163 0.0
H754 H 0.93469 0.5581 0.02006 0.0
H755 H 0.90188 0.53227 0.01074 0.0
H756 H 0.90478 0.47402 0.95017 0.0
H757 H 0.93887 0.46921 0.96642 0.0
H758 H 0.96462 0.54251 1.00609 0.0
C759 C 0.88752 0.55229 0.97054 0.0
C760 C 0.86609 0.53889 0.95591 0.0
C761 C 0.86082 0.51482 0.94456 0.0
C762 C 0.87654 0.50419 0.94772 0.0
C763 C 0.89737 0.51777 0.96235 0.0
C764 C 0.90287 0.54125 0.97362 0.0
C765 C 0.92585 0.55133 0.98887 0.0
C766 C 0.94821 0.57884 0.98622 0.0
C767 C 0.91812 0.55222 0.00901 0.0
C768 C 0.9323 0.52975 0.98447 0.0
C769 C 0.91577 0.51072 0.96902 0.0
C770 C 0.91789 0.48885 0.96225 0.0
C771 C 0.93743 0.48637 0.97152 0.0
C772 C 0.95452 0.50554 0.98745 0.0
C773 C 0.9518 0.52747 0.99399 0.0
H774 H 0.42682 0.32018 0.96876 0.0
H775 H 0.49276 0.3191 0.99498 0.0
H776 H 0.51295 0.36669 0.00925 0.0
H777 H 0.46313 0.38773 0.95791 0.0
H778 H 0.43858 0.39513 0.96316 0.0
H779 H 0.42969 0.36119 0.95444 0.0
H780 H 0.40643 0.34598 0.98403 0.0
H781 H 0.4154 0.37991 0.99284 0.0
H782 H 0.42408 0.36197 0.00767 0.0
H783 H 0.52572 0.41409 0.0211 0.0
H784 H 0.53019 0.4583 0.02962 0.0
H785 H 0.45565 0.42828 0.99626 0.0
C786 C 0.44557 0.32996 0.97742 0.0
C787 C 0.45821 0.31589 0.98075 0.0
C788 C 0.4827 0.32944 0.99221 0.0
C789 C 0.49434 0.35649 1.00038 0.0
C790 C 0.48128 0.3697 0.99692 0.0
C791 C 0.45748 0.35695 0.98568 0.0
C792 C 0.44739 0.37567 0.98445 0.0
C793 C 0.44454 0.38019 0.96376 0.0
C794 C 0.42181 0.36526 0.99275 0.0
C795 C 0.4691 0.4008 0.99697 0.0
C796 C 0.48854 0.39698 1.00391 0.0
C797 C 0.51065 0.41734 0.01574 0.0
C798 C 0.51299 0.44232 0.02053 0.0
C799 C 0.49329 0.44662 0.01356 0.0
C800 C 0.47104 0.42553 1.00172 0.0
H801 H 0.08943 0.6737 0.07876 0.0
H802 H 0.16656 0.68676 0.08929 0.0
H803 H 0.15164 0.64308 0.06945 0.0
H804 H 0.05497 0.60075 0.07902 0.0
H805 H 0.02972 0.59363 0.06041 0.0
H806 H 0.0458 0.62511 0.07662 0.0
H807 H 0.05764 0.65065 0.04794 0.0
H808 H 0.04172 0.61937 0.03159 0.0
H809 H 0.07507 0.64386 0.03078 0.0
H810 H 0.12974 0.60038 0.0461 0.0
H811 H 0.10093 0.55905 0.0229 0.0
H812 H 0.03766 0.57274 0.02818 0.0
C813 C 0.10308 0.66719 0.07716 0.0
C814 C 0.12919 0.68371 0.08555 0.0
C815 C 0.14645 0.67446 0.08305 0.0
C816 C 0.13818 0.64969 0.07177 0.0
C817 C 0.11253 0.63424 0.06329 0.0
C818 C 0.09509 0.64237 0.06608 0.0
C819 C 0.06872 0.62214 0.05495 0.0
C820 C 0.04861 0.60967 0.06856 0.0
C821 C 0.06031 0.63477 0.04046 0.0
C822 C 0.07433 0.60186 0.04501 0.0
C823 C 0.0997 0.60921 0.05007 0.0
C824 C 0.10975 0.59424 0.04219 0.0
C825 C 0.09332 0.57094 0.02894 0.0
C826 C 0.06717 0.56283 0.02383 0.0
C827 C 0.05759 0.57851 0.03195 0.0
H828 H 0.33592 0.49053 0.07637 0.0
H829 H 0.27709 0.41651 0.04016 0.0
H830 H 0.31047 0.41624 0.02217 0.0
H831 H 0.37329 0.5201 0.03936 0.0
H832 H 0.40392 0.53556 0.05445 0.0
H833 H 0.3755 0.52969 0.06473 0.0
H834 H 0.38318 0.50284 0.08812 0.0
H835 H 0.41158 0.50873 0.07778 0.0
H836 H 0.3863 0.47498 0.07875 0.0
H837 H 0.35031 0.42437 0.00784 0.0
H838 H 0.39357 0.44022 0.99839 0.0
H839 H 0.42622 0.50887 0.04404 0.0
C840 C 0.33003 0.4742 0.0647 0.0
C841 C 0.30386 0.45351 0.0597 0.0
C842 C 0.29701 0.43257 0.04428 0.0
C843 C 0.31583 0.43224 0.03396 0.0
C844 C 0.34142 0.45298 0.03923 0.0
C845 C 0.34855 0.47357 0.05424 0.0
C846 C 0.37732 0.49363 0.05684 0.0
C847 C 0.38282 0.52138 0.05365 0.0
C848 C 0.39033 0.4951 0.07655 0.0
C849 C 0.38528 0.48107 0.04101 0.0
C850 C 0.36431 0.45766 0.03099 0.0
C851 C 0.36689 0.44265 0.01562 0.0
C852 C 0.39156 0.45184 0.01035 0.0
C853 C 0.41335 0.47577 0.02047 0.0
C854 C 0.41003 0.49045 0.03603 0.0
H855 H 0.57564 0.89621 0.05231 0.0
H856 H 0.50759 0.81695 0.03427 0.0
H857 H 0.48438 0.83704 0.0208 0.0
H858 H 0.54047 0.92989 0.06533 0.0
H859 H 0.56282 0.96007 0.05689 0.0
H860 H 0.5739 0.93966 0.06593 0.0
H861 H 0.5916 0.9362 0.03415 0.0
H862 H 0.58054 0.95654 0.02504 0.0
H863 H 0.57021 0.92393 0.01186 0.0
H864 H 0.46928 0.86521 0.00776 0.0
H865 H 0.46281 0.90001 0.99676 0.0
H866 H 0.54015 0.96122 0.02375 0.0
C867 C 0.5558 0.88309 0.04564 0.0
C868 C 0.54344 0.85497 0.04432 0.0
C869 C 0.51745 0.83852 0.0355 0.0
C870 C 0.50409 0.84975 0.0278 0.0
C871 C 0.51689 0.87747 0.02919 0.0
C872 C 0.54208 0.89399 0.03802 0.0
C873 C 0.5514 0.92316 0.03733 0.0
C874 C 0.5575 0.93913 0.05757 0.0
C875 C 0.57482 0.93568 0.02644 0.0
C876 C 0.52774 0.92035 0.0263 0.0
C877 C 0.50802 0.89382 0.02185 0.0
C878 C 0.48449 0.88607 0.01128 0.0
C879 C 0.48103 0.90595 1.00506 0.0
C880 C 0.50096 0.93322 0.00944 0.0
C881 C 0.52454 0.9405 0.0203 0.0
H882 H 0.98503 0.22701 0.39968 0.0
H883 H 0.95182 0.1531 0.35913 0.0
H884 H 0.99233 0.17143 0.34479 0.0
H885 H 0.02055 0.2721 0.36909 0.0
H886 H 0.04833 0.29386 0.38683 0.0
H887 H 0.01692 0.27486 0.39407 0.0
H888 H 0.03431 0.25396 0.41648 0.0
H889 H 0.06583 0.27297 0.40935 0.0
H890 H 0.04996 0.23705 0.40686 0.0
H891 H 0.03459 0.19954 0.33291 0.0
H892 H 0.07815 0.23349 0.32682 0.0
H893 H 0.08574 0.2871 0.37724 0.0
C894 C 0.98641 0.21468 0.38785 0.0
C895 C 0.96536 0.18876 0.38036 0.0
C896 C 0.96783 0.173 0.36505 0.0
C897 C 0.99069 0.18327 0.3568 0.0
C898 C 0.01105 0.20903 0.36438 0.0
C899 C 0.00935 0.22432 0.37982 0.0
C900 C 0.03427 0.25117 0.38549 0.0
C901 C 0.02974 0.27436 0.38376 0.0
C902 C 0.04683 0.25394 0.40575 0.0
C903 C 0.05 0.24885 0.37052 0.0
C904 C 0.03613 0.22448 0.35835 0.0
C905 C 0.04584 0.21846 0.34255 0.0
C906 C 0.07045 0.2378 0.33916 0.0
C907 C 0.08514 0.26251 0.35174 0.0
C908 C 0.07492 0.26805 0.36768 0.0
H909 H 0.79246 0.78915 0.43395 0.0
H910 H 0.82271 0.7683 0.38551 0.0
H911 H 0.79997 0.7824 0.36427 0.0
H912 H 0.73019 0.76614 0.4099 0.0
H913 H 0.72735 0.793 0.42194 0.0
H914 H 0.74721 0.78274 0.43363 0.0
H915 H 0.78602 0.83138 0.43855 0.0
H916 H 0.76662 0.84194 0.42649 0.0
H917 H 0.79622 0.84796 0.41817 0.0
H918 H 0.77208 0.79604 0.34789 0.0
H919 H 0.74079 0.80856 0.33747 0.0
H920 H 0.72884 0.821 0.39638 0.0
C921 C 0.7945 0.78777 0.41891 0.0
C922 C 0.80941 0.7776 0.41143 0.0
C923 C 0.81145 0.77603 0.39162 0.0
C924 C 0.79864 0.78404 0.37941 0.0
C925 C 0.78396 0.79376 0.38721 0.0
C926 C 0.78187 0.79577 0.40649 0.0
C927 C 0.76421 0.80619 0.41105 0.0
C928 C 0.74085 0.78579 0.41963 0.0
C929 C 0.77916 0.83348 0.42436 0.0
C930 C 0.75619 0.80899 0.39122 0.0
C931 C 0.768 0.80193 0.37773 0.0
C932 C 0.76288 0.80186 0.35835 0.0
C933 C 0.745 0.80893 0.35257 0.0
C934 C 0.7324 0.81596 0.36611 0.0
C935 C 0.73838 0.81623 0.3857 0.0
H936 H 0.23837 0.03674 0.39173 0.0
H937 H 0.1805 0.04497 0.35936 0.0
H938 H 0.16041 0.99825 0.3428 0.0
H939 H 0.24447 0.99413 0.35329 0.0
H940 H 0.24849 0.97454 0.36941 0.0
H941 H 0.25923 0.00914 0.3777 0.0
H942 H 0.23107 0.99517 0.40503 0.0
H943 H 0.22008 0.96054 0.39673 0.0
H944 H 0.19698 0.97089 0.39925 0.0
H945 H 0.14459 0.94939 0.33172 0.0
H946 H 0.13606 0.90312 0.32553 0.0
H947 H 0.20488 0.92762 0.36469 0.0
C948 C 0.22169 0.0289 0.38097 0.0
C949 C 0.211 0.04453 0.37684 0.0
C950 C 0.18908 0.03341 0.36271 0.0
C951 C 0.1775 0.00688 0.35326 0.0
C952 C 0.1882 0.99184 0.35799 0.0
C953 C 0.20998 0.00255 0.37137 0.0
C954 C 0.21729 0.98199 0.37427 0.0
C955 C 0.24395 0.99046 0.36831 0.0
C956 C 0.21628 0.97685 0.39505 0.0
C957 C 0.19599 0.95793 0.36066 0.0
C958 C 0.17937 0.96395 0.3514 0.0
C959 C 0.15764 0.94454 0.33872 0.0
C960 C 0.1529 0.91834 0.33534 0.0
C961 C 0.16989 0.91195 0.34456 0.0
C962 C 0.19169 0.93203 0.35733 0.0
H963 H 0.51105 0.63952 0.31837 0.0
H964 H 0.5585 0.61619 0.28839 0.0
H965 H 0.59686 0.66079 0.3004 0.0
H966 H 0.54184 0.70593 0.30907 0.0
H967 H 0.53972 0.72042 0.3321 0.0
H968 H 0.51608 0.68609 0.32218 0.0
H969 H 0.52643 0.67076 0.35257 0.0
H970 H 0.54997 0.70509 0.36265 0.0
H971 H 0.55928 0.6804 0.36036 0.0
H972 H 0.62958 0.7086 0.31395 0.0
H973 H 0.65489 0.75605 0.32951 0.0
H974 H 0.58648 0.74834 0.35093 0.0
C975 C 0.52956 0.64366 0.31454 0.0
C976 C 0.53175 0.62433 0.30244 0.0
C977 C 0.55631 0.63064 0.29764 0.0
C978 C 0.57824 0.65593 0.30438 0.0
C979 C 0.57534 0.67467 0.31597 0.0
C980 C 0.55169 0.66883 0.32115 0.0
C981 C 0.55377 0.69285 0.33338 0.0
C982 C 0.53685 0.70185 0.32359 0.0
C983 C 0.54696 0.68691 0.35343 0.0
C984 C 0.58222 0.71317 0.33406 0.0
C985 C 0.5943 0.70226 0.32393 0.0
C986 C 0.6204 0.71732 0.32206 0.0
C987 C 0.63458 0.74423 0.33089 0.0
C988 C 0.62261 0.75571 0.34145 0.0
C989 C 0.59612 0.73996 0.34303 0.0
H990 H 0.32116 0.87841 0.27159 0.0
H991 H 0.37381 0.96097 0.29874 0.0
H992 H 0.34145 0.95789 0.3193 0.0
H993 H 0.26253 0.88094 0.27182 0.0
H994 H 0.24339 0.84722 0.27652 0.0
H995 H 0.27042 0.85617 0.26354 0.0
H996 H 0.28994 0.83958 0.28816 0.0
H997 H 0.26304 0.83072 0.30125 0.0
H998 H 0.29555 0.85317 0.3132 0.0
H999 H 0.30429 0.94508 0.33808 0.0
H1000 H 0.26369 0.92444 0.35216 0.0
H1001 H 0.2349 0.85067 0.31213 0.0
C1002 C 0.32584 0.89592 0.28174 0.0
C1003 C 0.35006 0.91992 0.28357 0.0
C1004 C 0.35537 0.94238 0.29704 0.0
C1005 C 0.33714 0.94081 0.30883 0.0
C1006 C 0.31363 0.91672 0.30687 0.0
C1007 C 0.30781 0.89477 0.29353 0.0
C1008 C 0.28114 0.87123 0.29434 0.0
C1009 C 0.26333 0.86343 0.27543 0.0
C1010 C 0.28252 0.84726 0.29955 0.0
C1011 C 0.27299 0.8833 0.31035 0.0
C1012 C 0.29204 0.90951 0.31745 0.0
C1013 C 0.28916 0.92461 0.33256 0.0
C1014 C 0.26607 0.91267 0.34052 0.0
C1015 C 0.24611 0.88595 0.33324 0.0
C1016 C 0.24974 0.87116 0.31797 0.0
H1017 H 0.16004 0.49125 0.32966 0.0
H1018 H 0.07733 0.44175 0.31164 0.0
H1019 H 0.07821 0.40201 0.31861 0.0
H1020 H 0.17659 0.44357 0.31119 0.0
H1021 H 0.20086 0.45243 0.33116 0.0
H1022 H 0.19387 0.47707 0.32469 0.0
H1023 H 0.18456 0.48534 0.35908 0.0
H1024 H 0.19162 0.46079 0.36567 0.0
H1025 H 0.16103 0.45747 0.36913 0.0
H1026 H 0.08841 0.36735 0.32565 0.0
H1027 H 0.10659 0.34053 0.33535 0.0
H1028 H 0.18211 0.41277 0.35103 0.0
C1029 C 0.14213 0.47204 0.32722 0.0
C1030 C 0.11862 0.46952 0.32003 0.0
C1031 C 0.09553 0.44413 0.31718 0.0
C1032 C 0.09585 0.42144 0.32103 0.0
C1033 C 0.11935 0.42456 0.32798 0.0
C1034 C 0.14202 0.44925 0.33131 0.0
C1035 C 0.16455 0.44715 0.33929 0.0
C1036 C 0.18518 0.45555 0.32577 0.0
C1037 C 0.17611 0.46367 0.35949 0.0
C1038 C 0.15103 0.41738 0.33974 0.0
C1039 C 0.12502 0.40471 0.33295 0.0
C1040 C 0.10868 0.37708 0.33121 0.0
C1041 C 0.11918 0.36203 0.33669 0.0
C1042 C 0.14563 0.37469 0.3441 0.0
C1043 C 0.16173 0.4027 0.34566 0.0
H1044 H 0.31459 0.4728 0.2829 0.0
H1045 H 0.37463 0.47059 0.31767 0.0
H1046 H 0.34133 0.4336 0.33175 0.0
H1047 H 0.2716 0.45964 0.31769 0.0
H1048 H 0.24272 0.43873 0.30074 0.0
H1049 H 0.27123 0.46478 0.29317 0.0
H1050 H 0.27011 0.4299 0.26673 0.0
H1051 H 0.24158 0.40374 0.27422 0.0
H1052 H 0.26967 0.4009 0.27317 0.0
H1053 H 0.30167 0.39837 0.34314 0.0
H1054 H 0.25821 0.36572 0.34988 0.0
H1055 H 0.22397 0.38963 0.30674 0.0
C1056 C 0.32074 0.4645 0.29345 0.0
C1057 C 0.34721 0.47463 0.29924 0.0
C1058 C 0.35446 0.46311 0.31299 0.0
C1059 C 0.3357 0.44213 0.32109 0.0
C1060 C 0.30978 0.4327 0.31513 0.0
C1061 C 0.30226 0.44334 0.30151 0.0
C1062 C 0.27311 0.42948 0.29756 0.0
C1063 C 0.26415 0.44934 0.3026 0.0
C1064 C 0.26303 0.41515 0.27668 0.0
C1065 C 0.26545 0.4096 0.31125 0.0
C1066 C 0.28689 0.41186 0.32131 0.0
C1067 C 0.28472 0.39626 0.33525 0.0
C1068 C 0.25997 0.37783 0.33901 0.0
C1069 C 0.23773 0.37504 0.32876 0.0
C1070 C 0.2406 0.39108 0.31465 0.0
H1071 H 0.55849 0.91701 0.32295 0.0
H1072 H 0.50584 0.85264 0.27696 0.0
H1073 H 0.52836 0.82846 0.28279 0.0
H1074 H 0.6154 0.91587 0.31471 0.0
H1075 H 0.6275 0.92225 0.33973 0.0
H1076 H 0.60728 0.93448 0.33186 0.0
H1077 H 0.57568 0.90978 0.35542 0.0
H1078 H 0.59577 0.8974 0.36331 0.0
H1079 H 0.56212 0.87429 0.35433 0.0
H1080 H 0.55802 0.81252 0.29251 0.0
H1081 H 0.5913 0.80469 0.30666 0.0
H1082 H 0.62283 0.878 0.34765 0.0
C1083 C 0.55174 0.89785 0.31409 0.0
C1084 C 0.53052 0.88673 0.29942 0.0
C1085 C 0.52206 0.86149 0.28827 0.0
C1086 C 0.53473 0.84763 0.29146 0.0
C1087 C 0.55557 0.85913 0.30604 0.0
C1088 C 0.56388 0.88354 0.31729 0.0
C1089 C 0.58653 0.89129 0.33221 0.0
C1090 C 0.6106 0.91752 0.32945 0.0
C1091 C 0.5796 0.8933 0.35252 0.0
C1092 C 0.58986 0.86758 0.32743 0.0
C1093 C 0.57191 0.84934 0.31221 0.0
C1094 C 0.57196 0.82649 0.30458 0.0
C1095 C 0.59094 0.82224 0.31268 0.0
C1096 C 0.60938 0.84058 0.32836 0.0
C1097 C 0.60863 0.86338 0.33592 0.0
H1098 H 0.0991 0.66375 0.31629 0.0
H1099 H 0.15989 0.6546 0.34278 0.0
H1100 H 0.18243 0.7017 0.35908 0.0
H1101 H 0.13942 0.72955 0.30727 0.0
H1102 H 0.11714 0.74031 0.3124 0.0
H1103 H 0.10518 0.70556 0.30364 0.0
H1104 H 0.08104 0.69225 0.33308 0.0
H1105 H 0.09288 0.72699 0.34187 0.0
H1106 H 0.09877 0.70728 0.3568 0.0
H1107 H 0.19956 0.75082 0.37099 0.0
H1108 H 0.20879 0.79728 0.37852 0.0
H1109 H 0.13626 0.77336 0.34456 0.0
C1110 C 0.11701 0.67151 0.32566 0.0
C1111 C 0.12773 0.65546 0.32826 0.0
C1112 C 0.15127 0.66648 0.34061 0.0
C1113 C 0.16423 0.69322 0.34991 0.0
C1114 C 0.15331 0.70859 0.34678 0.0
C1115 C 0.13012 0.69805 0.33506 0.0
C1116 C 0.12271 0.71886 0.33372 0.0
C1117 C 0.12102 0.72385 0.31303 0.0
C1118 C 0.09735 0.71086 0.34186 0.0
C1119 C 0.14547 0.74283 0.34636 0.0
C1120 C 0.16296 0.73659 0.35378 0.0
C1121 C 0.18589 0.75586 0.3654 0.0
C1122 C 0.191 0.78215 0.36956 0.0
C1123 C 0.1732 0.78878 0.36215 0.0
C1124 C 0.15017 0.76881 0.35048 0.0
H1125 H 0.82711 0.02485 0.37403 0.0
H1126 H 0.77767 0.04585 0.40335 0.0
H1127 H 0.74068 0.99996 0.39255 0.0
H1128 H 0.77879 0.98021 0.33295 0.0
H1129 H 0.78994 0.95701 0.33148 0.0
H1130 H 0.81225 0.992 0.34059 0.0
H1131 H 0.82486 0.97965 0.37169 0.0
H1132 H 0.80245 0.94466 0.36274 0.0
H1133 H 0.80004 0.95971 0.38544 0.0
H1134 H 0.70963 0.9513 0.38021 0.0
H1135 H 0.6861 0.90338 0.36587 0.0
H1136 H 0.75547 0.91385 0.34445 0.0
C1137 C 0.80843 0.01992 0.37795 0.0
C1138 C 0.8053 0.03899 0.38952 0.0
C1139 C 0.78057 0.03162 0.39449 0.0
C1140 C 0.75941 0.00559 0.38843 0.0
C1141 C 0.76327 0.98715 0.37737 0.0
C1142 C 0.78708 0.99399 0.37205 0.0
C1143 C 0.78613 0.97013 0.36052 0.0
C1144 C 0.79213 0.97514 0.34018 0.0
C1145 C 0.80446 0.96313 0.37071 0.0
C1146 C 0.75813 0.94878 0.36039 0.0
C1147 C 0.74529 0.95905 0.37018 0.0
C1148 C 0.71941 0.94307 0.37239 0.0
C1149 C 0.70625 0.91589 0.36426 0.0
C1150 C 0.719 0.90503 0.35405 0.0
C1151 C 0.74526 0.9217 0.35213 0.0
H1152 H 0.98321 0.72049 0.3863 0.0
H1153 H 0.97793 0.78602 0.41555 0.0
H1154 H 0.02174 0.81829 0.40903 0.0
H1155 H 0.05116 0.74772 0.40104 0.0
H1156 H 0.0564 0.73591 0.37823 0.0
H1157 H 0.02522 0.71792 0.38605 0.0
H1158 H 0.00393 0.72211 0.35492 0.0
H1159 H 0.03507 0.74018 0.34705 0.0
H1160 H 0.01524 0.75478 0.34868 0.0
H1161 H 0.06644 0.84318 0.40011 0.0
H1162 H 0.10783 0.85944 0.38727 0.0
H1163 H 0.0826 0.77803 0.36161 0.0
C1164 C 0.99141 0.74162 0.39147 0.0
C1165 C 0.97738 0.75082 0.40159 0.0
C1166 C 0.98845 0.77862 0.40781 0.0
C1167 C 0.0133 0.79706 0.40421 0.0
C1168 C 0.02659 0.78736 0.39411 0.0
C1169 C 0.01595 0.76033 0.38764 0.0
C1170 C 0.03382 0.75529 0.37633 0.0
C1171 C 0.04214 0.7382 0.386 0.0
C1172 C 0.02126 0.74233 0.35551 0.0
C1173 C 0.05622 0.78369 0.37754 0.0
C1174 C 0.05178 0.80185 0.38805 0.0
C1175 C 0.07005 0.82919 0.39172 0.0
C1176 C 0.09348 0.83821 0.38441 0.0
C1177 C 0.09822 0.82 0.37331 0.0
C1178 C 0.07928 0.79242 0.36979 0.0
H1179 H 0.25174 0.23931 0.39082 0.0
H1180 H 0.19324 0.15645 0.36825 0.0
H1181 H 0.16755 0.17137 0.3512 0.0
H1182 H 0.20673 0.2625 0.3976 0.0
H1183 H 0.22762 0.29448 0.39072 0.0
H1184 H 0.24127 0.27743 0.40175 0.0
H1185 H 0.26604 0.27974 0.37294 0.0
H1186 H 0.25243 0.29672 0.36182 0.0
H1187 H 0.2484 0.26626 0.34911 0.0
H1188 H 0.14896 0.19488 0.3356 0.0
H1189 H 0.13791 0.22582 0.32307 0.0
H1190 H 0.20787 0.2936 0.35592 0.0
C1191 C 0.23346 0.22431 0.38238 0.0
C1192 C 0.22452 0.19669 0.38085 0.0
C1193 C 0.20049 0.1777 0.36967 0.0
C1194 C 0.18574 0.18597 0.35991 0.0
C1195 C 0.19517 0.21329 0.36159 0.0
C1196 C 0.21836 0.23221 0.37262 0.0
C1197 C 0.22407 0.26035 0.37181 0.0
C1198 C 0.22497 0.27452 0.39165 0.0
C1199 C 0.24923 0.27672 0.36342 0.0
C1200 C 0.2007 0.25422 0.35832 0.0
C1201 C 0.18426 0.22693 0.35266 0.0
C1202 C 0.1616 0.21629 0.33999 0.0
C1203 C 0.15553 0.23401 0.33292 0.0
C1204 C 0.17204 0.26202 0.33854 0.0
C1205 C 0.19488 0.27223 0.35143 0.0
H1206 H 0.67696 0.58974 0.75444 0.0
H1207 H 0.6288 0.52494 0.70735 0.0
H1208 H 0.66741 0.53511 0.69204 0.0
H1209 H 0.71764 0.63508 0.72759 0.0
H1210 H 0.74673 0.64891 0.7443 0.0
H1211 H 0.7159 0.63444 0.75277 0.0
H1212 H 0.7255 0.60244 0.76884 0.0
H1213 H 0.7564 0.61673 0.76033 0.0
H1214 H 0.73379 0.58116 0.75471 0.0
H1215 H 0.70993 0.5563 0.6797 0.0
H1216 H 0.75392 0.5855 0.6721 0.0
H1217 H 0.77488 0.63519 0.7278 0.0
C1218 C 0.6746 0.5773 0.74111 0.0
C1219 C 0.64986 0.55654 0.73209 0.0
C1220 C 0.64756 0.54087 0.71458 0.0
C1221 C 0.66939 0.54648 0.70577 0.0
C1222 C 0.69341 0.56753 0.7148 0.0
C1223 C 0.69621 0.58246 0.73222 0.0
C1224 C 0.72397 0.60502 0.73834 0.0
C1225 C 0.72617 0.63247 0.74089 0.0
C1226 C 0.7356 0.60109 0.75664 0.0
C1227 C 0.73611 0.60112 0.72127 0.0
C1228 C 0.71819 0.57927 0.70791 0.0
C1229 C 0.72427 0.57309 0.69021 0.0
C1230 C 0.74924 0.58985 0.686 0.0
C1231 C 0.76783 0.61238 0.69946 0.0
C1232 C 0.76125 0.61773 0.71743 0.0
H1233 H 0.45694 0.12843 0.76847 0.0
H1234 H 0.42738 0.04897 0.73621 0.0
H1235 H 0.39233 0.05144 0.71894 0.0
H1236 H 0.39348 0.12198 0.77182 0.0
H1237 H 0.40565 0.15631 0.76912 0.0
H1238 H 0.42678 0.14715 0.78036 0.0
H1239 H 0.45854 0.16784 0.75597 0.0
H1240 H 0.43747 0.17689 0.74458 0.0
H1241 H 0.447 0.15653 0.73073 0.0
H1242 H 0.36338 0.06429 0.70295 0.0
H1243 H 0.3413 0.08591 0.6902 0.0
H1244 H 0.38933 0.15681 0.73315 0.0
C1245 C 0.44282 0.11132 0.75804 0.0
C1246 C 0.4449 0.08849 0.7537 0.0
C1247 C 0.42616 0.06665 0.73982 0.0
C1248 C 0.40616 0.06784 0.72993 0.0
C1249 C 0.40505 0.0909 0.73423 0.0
C1250 C 0.42271 0.11215 0.74808 0.0
C1251 C 0.41803 0.1352 0.74923 0.0
C1252 C 0.41054 0.14046 0.7688 0.0
C1253 C 0.44166 0.1606 0.74486 0.0
C1254 C 0.39543 0.12387 0.73349 0.0
C1255 C 0.38815 0.09824 0.7251 0.0
C1256 C 0.36868 0.08421 0.70956 0.0
C1257 C 0.35636 0.09674 0.70236 0.0
C1258 C 0.36356 0.12304 0.7107 0.0
C1259 C 0.38318 0.13659 0.7266 0.0
H1260 H 0.89846 0.35734 0.72086 0.0
H1261 H 0.83396 0.35757 0.69107 0.0
H1262 H 0.81757 0.31169 0.67415 0.0
H1263 H 0.90758 0.31899 0.68111 0.0
H1264 H 0.91548 0.30115 0.69659 0.0
H1265 H 0.92297 0.33462 0.70533 0.0
H1266 H 0.89697 0.31762 0.73345 0.0
H1267 H 0.88938 0.28415 0.72473 0.0
H1268 H 0.86377 0.29049 0.72839 0.0
H1269 H 0.80638 0.2644 0.6625 0.0
H1270 H 0.80262 0.22026 0.65572 0.0
H1271 H 0.87516 0.25178 0.6924 0.0
C1272 C 0.88108 0.34794 0.71058 0.0
C1273 C 0.86749 0.36107 0.70729 0.0
C1274 C 0.84475 0.34796 0.69378 0.0
C1275 C 0.83527 0.32188 0.68412 0.0
C1276 C 0.84886 0.30931 0.68803 0.0
C1277 C 0.87143 0.32202 0.70079 0.0
C1278 C 0.88198 0.30386 0.70289 0.0
C1279 C 0.90858 0.31534 0.69607 0.0
C1280 C 0.88308 0.29874 0.72359 0.0
C1281 C 0.86163 0.27882 0.68952 0.0
C1282 C 0.84266 0.28232 0.6811 0.0
C1283 C 0.82127 0.26154 0.66885 0.0
C1284 C 0.81927 0.23656 0.66512 0.0
C1285 C 0.83858 0.23269 0.67356 0.0
C1286 C 0.86008 0.25418 0.68578 0.0
H1287 H 0.2072 0.98037 0.63771 0.0
H1288 H 0.14963 0.95991 0.67626 0.0
H1289 H 0.17711 0.00472 0.69611 0.0
H1290 H 0.26344 0.019 0.67382 0.0
H1291 H 0.28139 0.04323 0.65891 0.0
H1292 H 0.25756 0.00927 0.64819 0.0
H1293 H 0.23417 0.02646 0.62749 0.0
H1294 H 0.25808 0.06038 0.6381 0.0
H1295 H 0.22435 0.04812 0.63902 0.0
H1296 H 0.21064 0.05232 0.71131 0.0
H1297 H 0.24742 0.09901 0.72047 0.0
H1298 H 0.28282 0.08765 0.6721 0.0
C1299 C 0.20037 0.98519 0.65038 0.0
C1300 C 0.17624 0.96661 0.65544 0.0
C1301 C 0.16805 0.97381 0.67211 0.0
C1302 C 0.18353 0.9992 0.68347 0.0
C1303 C 0.20713 0.01708 0.67798 0.0
C1304 C 0.21553 0.01036 0.66184 0.0
C1305 C 0.2414 0.03334 0.65881 0.0
C1306 C 0.26217 0.02575 0.66001 0.0
C1307 C 0.23936 0.04262 0.63973 0.0
C1308 C 0.24618 0.05416 0.67567 0.0
C1309 C 0.22626 0.04441 0.68661 0.0
C1310 C 0.22634 0.06014 0.70286 0.0
C1311 C 0.24727 0.08657 0.70795 0.0
C1312 C 0.26767 0.09694 0.69678 0.0
C1313 C 0.26718 0.0804 0.6806 0.0
H1314 H 0.0006 0.21966 0.60329 0.0
H1315 H 0.04833 0.30148 0.63341 0.0
H1316 H 0.01475 0.29361 0.65399 0.0
H1317 H 0.9386 0.21574 0.60433 0.0
H1318 H 0.92229 0.18119 0.60757 0.0
H1319 H 0.94981 0.19427 0.59489 0.0
H1320 H 0.97135 0.1781 0.61842 0.0
H1321 H 0.94405 0.16597 0.63136 0.0
H1322 H 0.97601 0.18976 0.64374 0.0
H1323 H 0.9772 0.27618 0.6725 0.0
H1324 H 0.93643 0.2515 0.68585 0.0
H1325 H 0.9126 0.18149 0.64306 0.0
C1326 C 0.00391 0.23601 0.61409 0.0
C1327 C 0.02714 0.26118 0.61675 0.0
C1328 C 0.03068 0.28204 0.63105 0.0
C1329 C 0.01176 0.27776 0.64287 0.0
C1330 C 0.9893 0.25258 0.64009 0.0
C1331 C 0.98513 0.23216 0.6259 0.0
C1332 C 0.95933 0.20695 0.62597 0.0
C1333 C 0.94146 0.19911 0.60707 0.0
C1334 C 0.96292 0.18384 0.63012 0.0
C1335 C 0.94972 0.2164 0.64247 0.0
C1336 C 0.96739 0.2427 0.65051 0.0
C1337 C 0.96312 0.25562 0.66625 0.0
C1338 C 0.93997 0.24137 0.6738 0.0
C1339 C 0.92132 0.21458 0.6655 0.0
C1340 C 0.92642 0.20198 0.64969 0.0
H1341 H 0.81808 0.82828 0.66227 0.0
H1342 H 0.73908 0.76894 0.63748 0.0
H1343 H 0.74632 0.73288 0.64452 0.0
H1344 H 0.84721 0.79033 0.64618 0.0
H1345 H 0.86935 0.80154 0.66796 0.0
H1346 H 0.85838 0.82268 0.66021 0.0
H1347 H 0.84213 0.82547 0.69275 0.0
H1348 H 0.85312 0.80442 0.70062 0.0
H1349 H 0.81992 0.79502 0.70098 0.0
H1350 H 0.76221 0.70326 0.65403 0.0
H1351 H 0.78463 0.68232 0.66759 0.0
H1352 H 0.8526 0.76093 0.68757 0.0
C1353 C 0.80236 0.80769 0.65822 0.0
C1354 C 0.77805 0.80139 0.64923 0.0
C1355 C 0.75785 0.77422 0.64438 0.0
C1356 C 0.76181 0.7536 0.64825 0.0
C1357 C 0.78599 0.76048 0.65713 0.0
C1358 C 0.80586 0.78687 0.66221 0.0
C1359 C 0.82963 0.78887 0.67239 0.0
C1360 C 0.85249 0.80161 0.661 0.0
C1361 C 0.8366 0.80436 0.6929 0.0
C1362 C 0.81999 0.75951 0.67229 0.0
C1363 C 0.79487 0.74346 0.66321 0.0
C1364 C 0.78185 0.71563 0.66122 0.0
C1365 C 0.79475 0.70393 0.66892 0.0
C1366 C 0.82026 0.72005 0.67868 0.0
C1367 C 0.83305 0.74817 0.68025 0.0
H1368 H 0.98826 0.81824 0.61765 0.0
H1369 H 0.05024 0.82848 0.65843 0.0
H1370 H 0.01832 0.79334 0.67448 0.0
H1371 H 0.94342 0.80779 0.65039 0.0
H1372 H 0.91541 0.78263 0.63396 0.0
H1373 H 0.94306 0.80786 0.62501 0.0
H1374 H 0.94565 0.7709 0.60352 0.0
H1375 H 0.91793 0.74556 0.61238 0.0
H1376 H 0.94762 0.74548 0.61417 0.0
H1377 H 0.98011 0.75942 0.68731 0.0
H1378 H 0.93767 0.72674 0.69532 0.0
H1379 H 0.89992 0.73686 0.64577 0.0
C1380 C 0.99512 0.81294 0.62987 0.0
C1381 C 0.02178 0.82617 0.63681 0.0
C1382 C 0.02996 0.81864 0.65283 0.0
C1383 C 0.01197 0.7987 0.66206 0.0
C1384 C 0.98587 0.78628 0.65501 0.0
C1385 C 0.9774 0.79287 0.63919 0.0
C1386 C 0.94815 0.77655 0.63474 0.0
C1387 C 0.93685 0.79481 0.63612 0.0
C1388 C 0.93932 0.75856 0.61503 0.0
C1389 C 0.94157 0.7601 0.65072 0.0
C1390 C 0.96366 0.76612 0.66223 0.0
C1391 C 0.96266 0.75435 0.67832 0.0
C1392 C 0.93843 0.73589 0.68279 0.0
C1393 C 0.91547 0.72921 0.67116 0.0
C1394 C 0.91713 0.7414 0.65484 0.0
H1395 H 0.2471 0.281 0.65714 0.0
H1396 H 0.18203 0.21472 0.61881 0.0
H1397 H 0.19924 0.18564 0.62455 0.0
H1398 H 0.29541 0.26576 0.64497 0.0
H1399 H 0.31146 0.27489 0.66917 0.0
H1400 H 0.29456 0.29078 0.66154 0.0
H1401 H 0.26714 0.27636 0.68923 0.0
H1402 H 0.28397 0.26042 0.69693 0.0
H1403 H 0.24925 0.24148 0.69157 0.0
H1404 H 0.22406 0.16427 0.63366 0.0
H1405 H 0.25313 0.15082 0.6475 0.0
H1406 H 0.30065 0.23008 0.68156 0.0
C1407 C 0.23658 0.26041 0.64988 0.0
C1408 C 0.21335 0.2501 0.63742 0.0
C1409 C 0.19987 0.22296 0.62841 0.0
C1410 C 0.20952 0.20634 0.63153 0.0
C1411 C 0.23245 0.21709 0.64393 0.0
C1412 C 0.24568 0.2434 0.65313 0.0
C1413 C 0.26934 0.24964 0.66633 0.0
C1414 C 0.29416 0.27156 0.66012 0.0
C1415 C 0.26729 0.25743 0.68725 0.0
C1416 C 0.26742 0.22277 0.66301 0.0
C1417 C 0.24615 0.20438 0.64987 0.0
C1418 C 0.24069 0.17843 0.64404 0.0
C1419 C 0.25737 0.17103 0.65189 0.0
C1420 C 0.27905 0.18941 0.66559 0.0
C1421 C 0.28404 0.21556 0.67126 0.0
H1422 H 0.78795 0.98942 0.64544 0.0
H1423 H 0.85155 0.98728 0.67484 0.0
H1424 H 0.86999 0.03402 0.69083 0.0
H1425 H 0.82433 0.05573 0.63649 0.0
H1426 H 0.79973 0.06357 0.6404 0.0
H1427 H 0.79074 0.02952 0.63209 0.0
H1428 H 0.7655 0.01433 0.66079 0.0
H1429 H 0.77425 0.04833 0.6691 0.0
H1430 H 0.78174 0.0304 0.68477 0.0
H1431 H 0.8829 0.08209 0.70201 0.0
H1432 H 0.8879 0.12684 0.70878 0.0
H1433 H 0.81538 0.09682 0.67249 0.0
C1434 C 0.8056 0.99863 0.6554 0.0
C1435 C 0.81831 0.98466 0.65888 0.0
C1436 C 0.84143 0.99753 0.67198 0.0
C1437 C 0.85207 0.0241 0.68111 0.0
C1438 C 0.83929 0.03743 0.67707 0.0
C1439 C 0.81643 0.02504 0.66465 0.0
C1440 C 0.80673 0.0439 0.66246 0.0
C1441 C 0.80531 0.04844 0.64162 0.0
C1442 C 0.7805 0.03362 0.66972 0.0
C1443 C 0.82787 0.06894 0.67539 0.0
C1444 C 0.8465 0.06487 0.68368 0.0
C1445 C 0.86831 0.08543 0.69573 0.0
C1446 C 0.87102 0.11076 0.69945 0.0
C1447 C 0.852 0.11519 0.6912 0.0
C1448 C 0.83018 0.09396 0.67906 0.0
H1449 H 0.43786 0.34688 0.73519 0.0
H1450 H 0.51098 0.3549 0.7248 0.0
H1451 H 0.48788 0.30757 0.70905 0.0
H1452 H 0.40701 0.2785 0.74483 0.0
H1453 H 0.37584 0.26956 0.73309 0.0
H1454 H 0.39845 0.30364 0.7443 0.0
H1455 H 0.39497 0.31953 0.71219 0.0
H1456 H 0.37263 0.28541 0.70097 0.0
H1457 H 0.4017 0.30561 0.69098 0.0
H1458 H 0.4565 0.25952 0.69348 0.0
H1459 H 0.4192 0.21456 0.67958 0.0
H1460 H 0.36702 0.23852 0.70006 0.0
C1461 C 0.44908 0.33868 0.72974 0.0
C1462 C 0.47626 0.35464 0.73125 0.0
C1463 C 0.49015 0.34309 0.72383 0.0
C1464 C 0.47721 0.31621 0.71487 0.0
C1465 C 0.45039 0.30112 0.71348 0.0
C1466 C 0.43649 0.31193 0.72076 0.0
C1467 C 0.40777 0.29164 0.71706 0.0
C1468 C 0.39663 0.28548 0.73594 0.0
C1469 C 0.39343 0.30112 0.70455 0.0
C1470 C 0.40765 0.26785 0.70636 0.0
C1471 C 0.4324 0.27362 0.7045 0.0
C1472 C 0.43704 0.25475 0.69492 0.0
C1473 C 0.4158 0.22933 0.68706 0.0
C1474 C 0.39035 0.22313 0.68883 0.0
C1475 C 0.38632 0.24268 0.69859 0.0
H1476 H 0.69086 0.14829 0.75492 0.0
H1477 H 0.63087 0.08699 0.7106 0.0
H1478 H 0.66419 0.08507 0.69338 0.0
H1479 H 0.7338 0.18309 0.72461 0.0
H1480 H 0.7629 0.19166 0.73939 0.0
H1481 H 0.73514 0.18667 0.75025 0.0
H1482 H 0.73454 0.15077 0.76771 0.0
H1483 H 0.76248 0.15421 0.75784 0.0
H1484 H 0.73322 0.12198 0.7545 0.0
H1485 H 0.70473 0.09232 0.68002 0.0
H1486 H 0.74864 0.10829 0.67172 0.0
H1487 H 0.7811 0.16429 0.7252 0.0
C1488 C 0.68463 0.13417 0.74173 0.0
C1489 C 0.65827 0.11775 0.73413 0.0
C1490 C 0.65099 0.09972 0.71673 0.0
C1491 C 0.66976 0.09845 0.70686 0.0
C1492 C 0.69564 0.11522 0.71467 0.0
C1493 C 0.70301 0.13263 0.73176 0.0
C1494 C 0.73203 0.14955 0.73668 0.0
C1495 C 0.74152 0.1795 0.73782 0.0
C1496 C 0.7411 0.14381 0.75529 0.0
C1497 C 0.73992 0.13929 0.71954 0.0
C1498 C 0.71875 0.11938 0.70703 0.0
C1499 C 0.72145 0.10773 0.68981 0.0
C1500 C 0.74647 0.11693 0.68523 0.0
C1501 C 0.76838 0.13766 0.69778 0.0
C1502 C 0.76488 0.14856 0.71524 0.0
H1503 H 0.86461 0.51339 0.71056 0.0
H1504 H 0.94229 0.57298 0.73798 0.0
H1505 H 0.93525 0.60894 0.73035 0.0
H1506 H 0.86516 0.54708 0.67178 0.0
H1507 H 0.83172 0.53738 0.67077 0.0
H1508 H 0.84228 0.51638 0.6794 0.0
H1509 H 0.82374 0.5185 0.71097 0.0
H1510 H 0.81313 0.53953 0.70243 0.0
H1511 H 0.83392 0.55063 0.72491 0.0
H1512 H 0.91995 0.63841 0.71948 0.0
H1513 H 0.8983 0.65923 0.70457 0.0
H1514 H 0.83122 0.58048 0.68312 0.0
C1515 C 0.88005 0.53401 0.71512 0.0
C1516 C 0.90395 0.5404 0.72498 0.0
C1517 C 0.92381 0.56762 0.73043 0.0
C1518 C 0.91997 0.58819 0.72622 0.0
C1519 C 0.89623 0.5812 0.71641 0.0
C1520 C 0.87665 0.55478 0.71082 0.0
C1521 C 0.85341 0.55267 0.69965 0.0
C1522 C 0.84783 0.53748 0.67919 0.0
C1523 C 0.82965 0.53956 0.71012 0.0
C1524 C 0.86304 0.58203 0.69975 0.0
C1525 C 0.88768 0.59816 0.70966 0.0
C1526 C 0.90066 0.62598 0.71168 0.0
C1527 C 0.88821 0.63762 0.70319 0.0
C1528 C 0.86316 0.62143 0.69268 0.0
C1529 C 0.85041 0.59331 0.69105 0.0
H1530 H 0.50185 0.94123 0.22324 0.0
H1531 H 0.44757 0.96563 0.23724 0.0
H1532 H 0.44593 0.97678 0.20496 0.0
H1533 H 0.53769 0.9934 0.19655 0.0
H1534 H 0.5431 0.97242 0.17935 0.0
H1535 H 0.53912 0.96551 0.20334 0.0
H1536 H 0.50161 0.91711 0.19 0.0
H1537 H 0.50541 0.9239 0.16596 0.0
H1538 H 0.4745 0.91193 0.17417 0.0
H1539 H 0.45072 0.98568 0.17084 0.0
H1540 H 0.46208 0.99222 0.13829 0.0
H1541 H 0.5146 0.9637 0.14754 0.0
C1542 C 0.48954 0.94886 0.21956 0.0
C1543 C 0.47442 0.95201 0.23275 0.0
C1544 C 0.45873 0.96224 0.22731 0.0
C1545 C 0.45786 0.96887 0.20901 0.0
C1546 C 0.47289 0.9653 0.19634 0.0
C1547 C 0.4885 0.95562 0.20144 0.0
C1548 C 0.5032 0.95411 0.18541 0.0
C1549 C 0.53251 0.97246 0.19153 0.0
C1550 C 0.49572 0.92503 0.17848 0.0
C1551 C 0.49347 0.9645 0.17046 0.0
C1552 C 0.47595 0.9708 0.17697 0.0
C1553 C 0.46447 0.98086 0.16563 0.0
C1554 C 0.47116 0.98465 0.14719 0.0
C1555 C 0.48923 0.97846 0.14028 0.0
C1556 C 0.50041 0.96823 0.15219 0.0
H1557 H 0.06919 0.55611 0.23772 0.0
H1558 H 0.09403 0.49859 0.23612 0.0
H1559 H 0.08019 0.48576 0.2012 0.0
H1560 H 0.01264 0.51628 0.20169 0.0
H1561 H 0.01703 0.54498 0.1918 0.0
H1562 H 0.02785 0.54864 0.21674 0.0
H1563 H 0.07389 0.58559 0.2124 0.0
H1564 H 0.06326 0.58196 0.18744 0.0
H1565 H 0.09023 0.5784 0.19448 0.0
H1566 H 0.06567 0.48103 0.16615 0.0
H1567 H 0.05104 0.4842 0.13389 0.0
H1568 H 0.03452 0.54383 0.15889 0.0
C1569 C 0.07157 0.54064 0.2301 0.0
C1570 C 0.08273 0.52836 0.23969 0.0
C1571 C 0.08553 0.50828 0.22911 0.0
C1572 C 0.0777 0.50085 0.20927 0.0
C1573 C 0.06703 0.5136 0.20027 0.0
C1574 C 0.06384 0.53297 0.21036 0.0
C1575 C 0.05245 0.54411 0.19728 0.0
C1576 C 0.02592 0.53813 0.20217 0.0
C1577 C 0.07107 0.5743 0.19795 0.0
C1578 C 0.05001 0.5282 0.17818 0.0
C1579 C 0.05845 0.51067 0.18018 0.0
C1580 C 0.05874 0.49447 0.16443 0.0
C1581 C 0.05024 0.49632 0.14616 0.0
C1582 C 0.04151 0.5142 0.14378 0.0
C1583 C 0.0413 0.53015 0.16012 0.0
H1584 H 0.47013 0.53695 0.22077 0.0
H1585 H 0.38827 0.50747 0.20818 0.0
H1586 H 0.39118 0.5023 0.17361 0.0
H1587 H 0.48964 0.57644 0.18561 0.0
H1588 H 0.51452 0.56988 0.17964 0.0
H1589 H 0.50544 0.56774 0.20327 0.0
H1590 H 0.49566 0.51904 0.1999 0.0
H1591 H 0.50504 0.52112 0.17631 0.0
H1592 H 0.47365 0.49458 0.17974 0.0
H1593 H 0.40397 0.50458 0.14059 0.0
H1594 H 0.42547 0.5135 0.11169 0.0
H1595 H 0.49897 0.54187 0.14598 0.0
C1596 C 0.45263 0.52878 0.21078 0.0
C1597 C 0.42892 0.5225 0.2172 0.0
C1598 C 0.40662 0.51231 0.20362 0.0
C1599 C 0.40809 0.50928 0.18395 0.0
C1600 C 0.43195 0.51644 0.17814 0.0
C1601 C 0.45379 0.52579 0.19116 0.0
C1602 C 0.47747 0.53391 0.1813 0.0
C1603 C 0.49796 0.56376 0.18785 0.0
C1604 C 0.4886 0.51609 0.1845 0.0
C1605 C 0.4657 0.52847 0.16071 0.0
C1606 C 0.43938 0.51806 0.15915 0.0
C1607 C 0.4245 0.51236 0.14162 0.0
C1608 C 0.43687 0.51744 0.12526 0.0
C1609 C 0.46386 0.5283 0.12654 0.0
C1610 C 0.47834 0.53371 0.14454 0.0
H1611 H 0.94927 0.48899 0.80379 0.0
H1612 H 0.86758 0.43095 0.80166 0.0
H1613 H 0.87556 0.4258 0.83487 0.0
H1614 H 0.972 0.45599 0.82907 0.0
H1615 H 0.99889 0.48566 0.84345 0.0
H1616 H 0.98665 0.48737 0.82027 0.0
H1617 H 0.97961 0.52499 0.83534 0.0
H1618 H 0.99217 0.52366 0.85857 0.0
H1619 H 0.96067 0.5196 0.85472 0.0
H1620 H 0.89284 0.4232 0.86684 0.0
H1621 H 0.91797 0.42524 0.89622 0.0
H1622 H 0.98834 0.48605 0.87821 0.0
C1623 C 0.93295 0.47567 0.81044 0.0
C1624 C 0.90777 0.46042 0.80009 0.0
C1625 C 0.88703 0.4429 0.80927 0.0
C1626 C 0.89136 0.43982 0.82815 0.0
C1627 C 0.9165 0.45452 0.83774 0.0
C1628 C 0.93693 0.47234 0.82931 0.0
C1629 C 0.96225 0.48463 0.84243 0.0
C1630 C 0.98104 0.478 0.83325 0.0
C1631 C 0.97439 0.51503 0.8481 0.0
C1632 C 0.95292 0.47039 0.85933 0.0
C1633 C 0.92646 0.45323 0.85636 0.0
C1634 C 0.91353 0.43695 0.86951 0.0
C1635 C 0.928 0.43834 0.88622 0.0
C1636 C 0.95518 0.45596 0.8897 0.0
C1637 C 0.96766 0.47222 0.876 0.0
H1638 H 0.57419 0.51648 0.81467 0.0
H1639 H 0.51172 0.4485 0.77574 0.0
H1640 H 0.49149 0.42816 0.80314 0.0
H1641 H 0.57591 0.4796 0.85347 0.0
H1642 H 0.58199 0.50659 0.87191 0.0
H1643 H 0.59368 0.51372 0.84933 0.0
H1644 H 0.5698 0.53927 0.84519 0.0
H1645 H 0.5579 0.53205 0.86764 0.0
H1646 H 0.53556 0.52245 0.8462 0.0
H1647 H 0.4753 0.41803 0.83444 0.0
H1648 H 0.46449 0.41852 0.86723 0.0
H1649 H 0.53756 0.49308 0.88612 0.0
C1650 C 0.5566 0.49697 0.81194 0.0
C1651 C 0.54502 0.48361 0.79305 0.0
C1652 C 0.52165 0.45848 0.79002 0.0
C1653 C 0.50982 0.44692 0.80554 0.0
C1654 C 0.5216 0.46078 0.82398 0.0
C1655 C 0.54456 0.4852 0.82726 0.0
C1656 C 0.55209 0.49706 0.84834 0.0
C1657 C 0.57742 0.49936 0.85623 0.0
C1658 C 0.55393 0.52431 0.85205 0.0
C1659 C 0.52935 0.4759 0.85633 0.0
C1660 C 0.51213 0.45502 0.84208 0.0
C1661 C 0.48888 0.43399 0.84578 0.0
C1662 C 0.48298 0.4344 0.86452 0.0
C1663 C 0.50024 0.45573 0.87937 0.0
C1664 C 0.52388 0.47652 0.87514 0.0
H1665 H 0.58032 0.09377 0.82256 0.0
H1666 H 0.51372 0.03989 0.78005 0.0
H1667 H 0.49155 0.01334 0.80471 0.0
H1668 H 0.57704 0.04289 0.84931 0.0
H1669 H 0.58685 0.06458 0.87211 0.0
H1670 H 0.59786 0.07859 0.8509 0.0
H1671 H 0.57928 0.10932 0.85766 0.0
H1672 H 0.56819 0.09537 0.87885 0.0
H1673 H 0.54571 0.09459 0.8606 0.0
H1674 H 0.47608 0.9939 0.83421 0.0
H1675 H 0.46796 0.98316 0.86654 0.0
H1676 H 0.54518 0.04913 0.88976 0.0
C1677 C 0.56116 0.07623 0.81843 0.0
C1678 C 0.54849 0.06911 0.7995 0.0
C1679 C 0.52342 0.04613 0.7946 0.0
C1680 C 0.51083 0.03076 0.80846 0.0
C1681 C 0.52368 0.0386 0.82708 0.0
C1682 C 0.5483 0.06075 0.83209 0.0
C1683 C 0.55746 0.06543 0.85324 0.0
C1684 C 0.58121 0.0627 0.85658 0.0
C1685 C 0.56297 0.0928 0.86317 0.0
C1686 C 0.53398 0.04264 0.8594 0.0
C1687 C 0.5148 0.02728 0.84407 0.0
C1688 C 0.49105 0.00559 0.8463 0.0
C1689 C 0.48669 0.99956 0.86472 0.0
C1690 C 0.50599 0.01519 0.88069 0.0
C1691 C 0.52999 0.03687 0.87787 0.0
H1692 H 0.1745 0.28544 0.5573 0.0
H1693 H 0.12632 0.31791 0.57112 0.0
H1694 H 0.11909 0.32076 0.53707 0.0
H1695 H 0.20606 0.32685 0.52438 0.0
H1696 H 0.20729 0.30157 0.50842 0.0
H1697 H 0.2064 0.29959 0.53345 0.0
H1698 H 0.16581 0.25183 0.52517 0.0
H1699 H 0.16661 0.25363 0.50006 0.0
H1700 H 0.13782 0.24639 0.51034 0.0
H1701 H 0.12033 0.32356 0.5017 0.0
H1702 H 0.13011 0.32623 0.46848 0.0
H1703 H 0.17681 0.29108 0.47813 0.0
C1704 C 0.16215 0.29283 0.55314 0.0
C1705 C 0.15061 0.30103 0.56682 0.0
C1706 C 0.13475 0.31079 0.56083 0.0
C1707 C 0.13068 0.31265 0.54152 0.0
C1708 C 0.14249 0.30451 0.52841 0.0
C1709 C 0.15779 0.29465 0.53399 0.0
C1710 C 0.16932 0.28841 0.51738 0.0
C1711 C 0.19902 0.30511 0.52114 0.0
C1712 C 0.15928 0.25827 0.51298 0.0
C1713 C 0.15881 0.29708 0.50167 0.0
C1714 C 0.14317 0.30607 0.5082 0.0
C1715 C 0.13228 0.31623 0.49638 0.0
C1716 C 0.13784 0.31755 0.4775 0.0
C1717 C 0.15425 0.3089 0.47067 0.0
C1718 C 0.16439 0.2981 0.48292 0.0
H1719 H 0.72843 0.84749 0.56893 0.0
H1720 H 0.81082 0.88917 0.56627 0.0
H1721 H 0.80224 0.88504 0.53128 0.0
H1722 H 0.70774 0.80165 0.52266 0.0
H1723 H 0.67963 0.80398 0.51726 0.0
H1724 H 0.69204 0.80732 0.54177 0.0
H1725 H 0.69548 0.85322 0.54949 0.0
H1726 H 0.68327 0.85013 0.52502 0.0
H1727 H 0.71385 0.87909 0.5358 0.0
H1728 H 0.7851 0.87932 0.49712 0.0
H1729 H 0.76059 0.87358 0.46615 0.0
H1730 H 0.68931 0.83652 0.49098 0.0
C1731 C 0.74463 0.8552 0.56093 0.0
C1732 C 0.7703 0.86847 0.5703 0.0
C1733 C 0.79101 0.87886 0.55938 0.0
C1734 C 0.78633 0.87654 0.5395 0.0
C1735 C 0.76084 0.86383 0.53075 0.0
C1736 C 0.74032 0.85331 0.54108 0.0
C1737 C 0.71491 0.84246 0.52839 0.0
C1738 C 0.69756 0.81204 0.52746 0.0
C1739 C 0.70108 0.85711 0.53508 0.0
C1740 C 0.72444 0.84914 0.50942 0.0
C1741 C 0.75095 0.86107 0.51105 0.0
C1742 C 0.7643 0.86974 0.49561 0.0
C1743 C 0.75019 0.86631 0.47807 0.0
C1744 C 0.72304 0.85454 0.47614 0.0
C1745 C 0.71006 0.84569 0.49204 0.0
H1746 H 0.10096 0.88448 0.54928 0.0
H1747 H 0.1262 0.83656 0.57495 0.0
H1748 H 0.14277 0.83013 0.54518 0.0
H1749 H 0.08343 0.84799 0.49955 0.0
H1750 H 0.09568 0.87845 0.4897 0.0
H1751 H 0.08257 0.87595 0.51194 0.0
H1752 H 0.1253 0.91853 0.52832 0.0
H1753 H 0.13866 0.92099 0.50624 0.0
H1754 H 0.15533 0.91942 0.52748 0.0
H1755 H 0.15983 0.83216 0.51364 0.0
H1756 H 0.17646 0.84294 0.48297 0.0
H1757 H 0.14134 0.89084 0.47857 0.0
C1758 C 0.10929 0.87199 0.54846 0.0
C1759 C 0.11204 0.86076 0.56435 0.0
C1760 C 0.12375 0.84519 0.5629 0.0
C1761 C 0.13318 0.8414 0.54604 0.0
C1762 C 0.13084 0.85341 0.53084 0.0
C1763 C 0.11911 0.86832 0.53188 0.0
C1764 C 0.12101 0.88106 0.51423 0.0
C1765 C 0.09407 0.87021 0.5032 0.0
C1766 C 0.13597 0.91182 0.51939 0.0
C1767 C 0.13614 0.87149 0.50327 0.0
C1768 C 0.14131 0.85525 0.51294 0.0
C1769 C 0.15567 0.84463 0.50585 0.0
C1770 C 0.165 0.85083 0.48843 0.0
C1771 C 0.16019 0.86773 0.47844 0.0
C1772 C 0.14546 0.87803 0.48597 0.0
H1773 H 0.61649 0.83148 0.13139 0.0
H1774 H 0.53362 0.78582 0.13177 0.0
H1775 H 0.54077 0.78601 0.16635 0.0
H1776 H 0.63117 0.79696 0.16128 0.0
H1777 H 0.66093 0.82552 0.17372 0.0
H1778 H 0.64962 0.82538 0.14969 0.0
H1779 H 0.65107 0.86968 0.16073 0.0
H1780 H 0.66265 0.87012 0.18482 0.0
H1781 H 0.63403 0.87175 0.18009 0.0
H1782 H 0.55668 0.78737 0.20001 0.0
H1783 H 0.58029 0.78949 0.23034 0.0
H1784 H 0.65283 0.83365 0.20807 0.0
C1785 C 0.59986 0.82215 0.13885 0.0
C1786 C 0.57449 0.80882 0.12892 0.0
C1787 C 0.55323 0.79625 0.1391 0.0
C1788 C 0.55709 0.79631 0.15876 0.0
C1789 C 0.58232 0.809 0.16803 0.0
C1790 C 0.60337 0.82179 0.15845 0.0
C1791 C 0.62843 0.83197 0.1714 0.0
C1792 C 0.6434 0.81918 0.16355 0.0
C1793 C 0.64502 0.86271 0.17444 0.0
C1794 C 0.61813 0.8222 0.18956 0.0
C1795 C 0.59152 0.80936 0.1874 0.0
C1796 C 0.57755 0.7977 0.20197 0.0
C1797 C 0.59114 0.79908 0.21916 0.0
C1798 C 0.6184 0.81181 0.2216 0.0
C1799 C 0.63199 0.82368 0.2066 0.0
H1800 H 0.17732 0.80013 0.13532 0.0
H1801 H 0.25716 0.86563 0.14592 0.0
H1802 H 0.25565 0.86848 0.18071 0.0
H1803 H 0.15563 0.82611 0.1725 0.0
H1804 H 0.13355 0.79395 0.17863 0.0
H1805 H 0.14122 0.79633 0.15461 0.0
H1806 H 0.15574 0.76204 0.1565 0.0
H1807 H 0.14805 0.75951 0.18053 0.0
H1808 H 0.17997 0.76832 0.17571 0.0
H1809 H 0.24539 0.86449 0.21414 0.0
H1810 H 0.22668 0.85508 0.24406 0.0
H1811 H 0.15318 0.79261 0.21171 0.0
C1812 C 0.19465 0.81464 0.14496 0.0
C1813 C 0.21753 0.83231 0.13798 0.0
C1814 C 0.23948 0.85182 0.15102 0.0
C1815 C 0.23884 0.85352 0.17078 0.0
C1816 C 0.21603 0.83569 0.17722 0.0
C1817 C 0.19429 0.8167 0.16472 0.0
C1818 C 0.17193 0.80065 0.17536 0.0
C1819 C 0.14925 0.80451 0.16995 0.0
C1820 C 0.16343 0.77086 0.17181 0.0
C1821 C 0.1845 0.81363 0.19579 0.0
C1822 C 0.20996 0.8337 0.19652 0.0
C1823 C 0.22546 0.84881 0.21375 0.0
C1824 C 0.2146 0.84339 0.23069 0.0
C1825 C 0.18845 0.82307 0.23035 0.0
C1826 C 0.17332 0.80797 0.21257 0.0
H1827 H 0.23058 0.42465 0.152 0.0
H1828 H 0.20262 0.35022 0.11309 0.0
H1829 H 0.19126 0.3255 0.14027 0.0
H1830 H 0.25549 0.40728 0.19379 0.0
H1831 H 0.24463 0.42359 0.21048 0.0
H1832 H 0.25421 0.43588 0.18848 0.0
H1833 H 0.2098 0.4312 0.18007 0.0
H1834 H 0.20002 0.41874 0.20192 0.0
H1835 H 0.18069 0.39924 0.17935 0.0
H1836 H 0.17941 0.30847 0.17108 0.0
H1837 H 0.16643 0.30012 0.20301 0.0
H1838 H 0.20068 0.38545 0.22171 0.0
C1839 C 0.22277 0.40325 0.14927 0.0
C1840 C 0.21777 0.38937 0.13047 0.0
C1841 C 0.20677 0.36126 0.1274 0.0
C1842 C 0.20032 0.34707 0.14276 0.0
C1843 C 0.2049 0.36128 0.16107 0.0
C1844 C 0.21588 0.38875 0.1644 0.0
C1845 C 0.21643 0.39889 0.18509 0.0
C1846 C 0.24435 0.41751 0.19505 0.0
C1847 C 0.2008 0.41283 0.18669 0.0
C1848 C 0.2034 0.37276 0.19275 0.0
C1849 C 0.19733 0.35136 0.17875 0.0
C1850 C 0.18434 0.3251 0.18222 0.0
C1851 C 0.17713 0.32056 0.20042 0.0
C1852 C 0.18263 0.34214 0.21485 0.0
C1853 C 0.19618 0.36857 0.21095 0.0
H1854 H 0.82522 0.59133 0.88417 0.0
H1855 H 0.77632 0.62002 0.90437 0.0
H1856 H 0.77777 0.63874 0.87478 0.0
H1857 H 0.86645 0.6483 0.86417 0.0
H1858 H 0.87037 0.62955 0.84418 0.0
H1859 H 0.86382 0.61679 0.86632 0.0
H1860 H 0.82383 0.57266 0.84834 0.0
H1861 H 0.83029 0.58528 0.82613 0.0
H1862 H 0.7992 0.57401 0.83387 0.0
H1863 H 0.78619 0.65592 0.84309 0.0
H1864 H 0.80186 0.67105 0.81289 0.0
H1865 H 0.84564 0.63146 0.81413 0.0
C1866 C 0.81462 0.60136 0.88237 0.0
C1867 C 0.80018 0.60366 0.8965 0.0
C1868 C 0.78683 0.61719 0.89357 0.0
C1869 C 0.78773 0.62812 0.87683 0.0
C1870 C 0.80214 0.62541 0.86319 0.0
C1871 C 0.81537 0.61238 0.86583 0.0
C1872 C 0.83029 0.61301 0.84944 0.0
C1873 C 0.85946 0.6278 0.85645 0.0
C1874 C 0.82029 0.58455 0.83882 0.0
C1875 C 0.82371 0.62877 0.83724 0.0
C1876 C 0.80729 0.63559 0.84528 0.0
C1877 C 0.79895 0.65056 0.83664 0.0
C1878 C 0.80785 0.65896 0.81945 0.0
C1879 C 0.82505 0.65254 0.81119 0.0
C1880 C 0.83276 0.63698 0.82019 0.0
H1881 H 0.38755 0.15739 0.8937 0.0
H1882 H 0.3731 0.21404 0.92658 0.0
H1883 H 0.36898 0.23114 0.89733 0.0
H1884 H 0.42364 0.20011 0.85972 0.0
H1885 H 0.40931 0.17288 0.83978 0.0
H1886 H 0.41327 0.16655 0.8636 0.0
H1887 H 0.36435 0.13122 0.8598 0.0
H1888 H 0.36023 0.13754 0.83602 0.0
H1889 H 0.34127 0.14071 0.85349 0.0
H1890 H 0.36397 0.2404 0.86439 0.0
H1891 H 0.35829 0.24117 0.82989 0.0
H1892 H 0.37554 0.17824 0.81802 0.0
C1893 C 0.38388 0.17365 0.89475 0.0
C1894 C 0.38164 0.1851 0.91256 0.0
C1895 C 0.37625 0.20592 0.91332 0.0
C1896 C 0.37349 0.2155 0.8967 0.0
C1897 C 0.37596 0.20391 0.8794 0.0
C1898 C 0.38103 0.18344 0.87827 0.0
C1899 C 0.38167 0.17372 0.85775 0.0
C1900 C 0.40858 0.17862 0.85506 0.0
C1901 C 0.36062 0.14404 0.8514 0.0
C1902 C 0.37582 0.19169 0.84752 0.0
C1903 C 0.37272 0.20903 0.8603 0.0
C1904 C 0.36661 0.22712 0.85425 0.0
C1905 C 0.36357 0.2275 0.83461 0.0
C1906 C 0.36662 0.2099 0.8212 0.0
C1907 C 0.37291 0.19184 0.82785 0.0
H1908 H 0.80016 0.18858 0.89162 0.0
H1909 H 0.74046 0.20769 0.88245 0.0
H1910 H 0.74685 0.20918 0.84858 0.0
H1911 H 0.84227 0.23143 0.86433 0.0
H1912 H 0.85285 0.20959 0.85444 0.0
H1913 H 0.84138 0.20639 0.87728 0.0
H1914 H 0.80717 0.15635 0.86508 0.0
H1915 H 0.81882 0.15925 0.84225 0.0
H1916 H 0.78516 0.14708 0.8435 0.0
H1917 H 0.76416 0.21517 0.81722 0.0
H1918 H 0.78819 0.22108 0.78981 0.0
H1919 H 0.8347 0.19508 0.8187 0.0
C1920 C 0.78795 0.19242 0.8824 0.0
C1921 C 0.76981 0.19803 0.88972 0.0
C1922 C 0.75438 0.20318 0.87718 0.0
C1923 C 0.75791 0.20413 0.85791 0.0
C1924 C 0.77664 0.19948 0.85134 0.0
C1925 C 0.79106 0.19321 0.8631 0.0
C1926 C 0.81083 0.1904 0.85277 0.0
C1927 C 0.83846 0.21066 0.86281 0.0
C1928 C 0.80514 0.16155 0.85078 0.0
C1929 C 0.80593 0.19708 0.83359 0.0
C1930 C 0.78608 0.20215 0.83302 0.0
C1931 C 0.7793 0.21058 0.81731 0.0
C1932 C 0.79307 0.21377 0.80173 0.0
C1933 C 0.81334 0.20834 0.80183 0.0
C1934 C 0.81957 0.19968 0.81804 0.0
H1935 H 0.28937 0.17147 0.47528 0.0
H1936 H 0.20576 0.13083 0.46806 0.0
H1937 H 0.20621 0.12566 0.50203 0.0
H1938 H 0.29411 0.12936 0.50306 0.0
H1939 H 0.32312 0.15468 0.51851 0.0
H1940 H 0.31686 0.1594 0.49464 0.0
H1941 H 0.32093 0.20443 0.50795 0.0
H1942 H 0.32755 0.20003 0.53191 0.0
H1943 H 0.30144 0.20533 0.52579 0.0
H1944 H 0.21527 0.12042 0.53554 0.0
H1945 H 0.23233 0.11554 0.56629 0.0
H1946 H 0.31002 0.15883 0.55162 0.0
C1947 C 0.27123 0.16227 0.48101 0.0
C1948 C 0.24754 0.1518 0.46911 0.0
C1949 C 0.22413 0.13914 0.47697 0.0
C1950 C 0.2242 0.13615 0.49625 0.0
C1951 C 0.24783 0.1459 0.50746 0.0
C1952 C 0.27094 0.15883 0.50018 0.0
C1953 C 0.29343 0.16513 0.51473 0.0
C1954 C 0.3077 0.15131 0.50729 0.0
C1955 C 0.31192 0.19554 0.52043 0.0
C1956 C 0.27926 0.15299 0.5311 0.0
C1957 C 0.25302 0.14237 0.52672 0.0
C1958 C 0.23583 0.12903 0.53925 0.0
C1959 C 0.2457 0.1264 0.5567 0.0
C1960 C 0.2725 0.13685 0.56138 0.0
C1961 C 0.28943 0.1505 0.54841 0.0
H1962 H 0.89007 0.12023 0.47475 0.0
H1963 H 0.90788 0.19979 0.46718 0.0
H1964 H 0.90482 0.20992 0.50121 0.0
H1965 H 0.84278 0.10788 0.50304 0.0
H1966 H 0.85055 0.08987 0.51844 0.0
H1967 H 0.85826 0.09027 0.49443 0.0
H1968 H 0.90627 0.10905 0.50722 0.0
H1969 H 0.89867 0.10842 0.53133 0.0
H1970 H 0.92346 0.13912 0.52487 0.0
H1971 H 0.89411 0.20914 0.5347 0.0
H1972 H 0.87755 0.19799 0.56522 0.0
H1973 H 0.86758 0.11923 0.55116 0.0
C1974 C 0.89406 0.1401 0.48034 0.0
C1975 C 0.89932 0.15928 0.46829 0.0
C1976 C 0.90393 0.18482 0.47612 0.0
C1977 C 0.90227 0.19075 0.49546 0.0
C1978 C 0.8962 0.17104 0.50679 0.0
C1979 C 0.89242 0.14631 0.49956 0.0
C1980 C 0.88394 0.12782 0.51425 0.0
C1981 C 0.85731 0.10248 0.50711 0.0
C1982 C 0.90431 0.12069 0.51974 0.0
C1983 C 0.8826 0.14567 0.53063 0.0
C1984 C 0.89006 0.17062 0.52615 0.0
C1985 C 0.88875 0.18987 0.53854 0.0
C1986 C 0.87938 0.18335 0.55589 0.0
C1987 C 0.87135 0.15775 0.56069 0.0
C1988 C 0.87342 0.13891 0.54792 0.0
H1989 H 0.89916 0.70266 0.48062 0.0
H1990 H 0.84152 0.71879 0.4577 0.0
H1991 H 0.82686 0.71846 0.48919 0.0
H1992 H 0.85923 0.65594 0.50803 0.0
H1993 H 0.88424 0.66577 0.52767 0.0
H1994 H 0.89242 0.67067 0.50398 0.0
H1995 H 0.92464 0.72117 0.51646 0.0
H1996 H 0.91653 0.71642 0.54023 0.0
H1997 H 0.91354 0.74093 0.52908 0.0
H1998 H 0.81605 0.71273 0.52247 0.0
H1999 H 0.80928 0.70099 0.55475 0.0
H2000 H 0.87287 0.68694 0.55575 0.0
C2001 C 0.88375 0.7066 0.48229 0.0
C2002 C 0.87202 0.71154 0.46671 0.0
C2003 C 0.85157 0.71606 0.46946 0.0
C2004 C 0.84291 0.71565 0.48733 0.0
C2005 C 0.85485 0.71063 0.50233 0.0
C2006 C 0.87482 0.70617 0.5 0.0
C2007 C 0.88312 0.69931 0.518 0.0
C2008 C 0.87952 0.67126 0.51418 0.0
C2009 C 0.91112 0.72074 0.52644 0.0
C2010 C 0.86426 0.69997 0.53067 0.0
C2011 C 0.8483 0.70682 0.52143 0.0
C2012 C 0.82856 0.70754 0.5299 0.0
C2013 C 0.82477 0.7007 0.54819 0.0
C2014 C 0.84055 0.69306 0.55778 0.0
C2015 C 0.8608 0.69315 0.54895 0.0
loop_
_geom_bond_atom_site_label_1
_geom_bond_atom_site_label_2
_geom_bond_distance
_geom_bond_site_symmetry_2
_ccdc_geom_bond_type
O0 Cd1 2.300 . S
O0 C7 1.275 . S
Cd1 O0 2.300 . S
Cd1 O9 2.381 . S
Cd1 O10 2.378 . S
O2 Cd3 2.385 . S
O2 C7 1.255 . S
Cd3 O2 2.385 . S
Cd3 O4 2.317 . S
O4 Cd3 2.317 . S
O4 C5 1.232 . S
C5 O4 1.232 . S
C5 O6 1.218 . S
O6 C5 1.218 . S
C7 O0 1.275 . S
C7 O2 1.255 . S
C8 O9 1.258 . S
C8 O10 1.256 . S
O9 Cd1 2.381 . S
O9 C8 1.258 . S
O10 Cd1 2.378 . S
O10 C8 1.256 . S
O11 Cd12 2.300 . S
O11 C18 1.275 . S
Cd12 O11 2.300 . S
Cd12 O20 2.381 . S
Cd12 O21 2.378 . S
O13 Cd14 2.385 . S
O13 C18 1.255 . S
Cd14 O13 2.385 . S
Cd14 O15 2.317 . S
O15 Cd14 2.317 . S
O15 C16 1.232 . S
C16 O15 1.232 . S
C16 O17 1.218 . S
O17 C16 1.218 . S
C18 O11 1.275 . S
C18 O13 1.255 . S
C19 O20 1.258 . S
C19 O21 1.256 . S
O20 Cd12 2.381 . S
O20 C19 1.258 . S
O21 Cd12 2.378 . S
O21 C19 1.256 . S
O22 Cd23 2.300 . S
O22 C29 1.275 . S
Cd23 O22 2.300 . S
Cd23 O31 2.381 . S
Cd23 O32 2.378 . S
O24 Cd25 2.385 . S
O24 C29 1.255 . S
Cd25 O24 2.385 . S
Cd25 O26 2.317 . S
O26 Cd25 2.317 . S
O26 C27 1.232 . S
C27 O26 1.232 . S
C27 O28 1.218 . S
O28 C27 1.218 . S
C29 O22 1.275 . S
C29 O24 1.255 . S
C30 O31 1.258 . S
C30 O32 1.256 . S
O31 Cd23 2.381 . S
O31 C30 1.258 . S
O32 Cd23 2.378 . S
O32 C30 1.256 . S
O33 Cd34 2.300 . S
O33 C40 1.275 . S
Cd34 O33 2.300 . S
Cd34 O42 2.381 . S
Cd34 O43 2.378 . S
O35 Cd36 2.385 . S
O35 C40 1.255 . S
Cd36 O35 2.385 . S
Cd36 O37 2.317 . S
O37 Cd36 2.317 . S
O37 C38 1.232 . S
C38 O37 1.232 . S
C38 O39 1.218 . S
O39 C38 1.218 . S
C40 O33 1.275 . S
C40 O35 1.255 . S
C41 O42 1.258 . S
C41 O43 1.256 . S
O42 Cd34 2.381 . S
O42 C41 1.258 . S
O43 Cd34 2.378 . S
O43 C41 1.256 . S
O44 Cd45 2.300 . S
O44 C51 1.275 . S
Cd45 O44 2.300 . S
Cd45 O53 2.381 . S
Cd45 O54 2.378 . S
O46 Cd47 2.385 . S
O46 C51 1.255 . S
Cd47 O46 2.385 . S
Cd47 O48 2.317 . S
O48 Cd47 2.317 . S
O48 C49 1.232 . S
C49 O48 1.232 . S
C49 O50 1.218 . S
O50 C49 1.218 . S
C51 O44 1.275 . S
C51 O46 1.255 . S
C52 O53 1.258 . S
C52 O54 1.256 . S
O53 Cd45 2.381 . S
O53 C52 1.258 . S
O54 Cd45 2.378 . S
O54 C52 1.256 . S
O55 Cd56 2.300 . S
O55 C62 1.275 . S
Cd56 O55 2.300 . S
Cd56 O64 2.381 . S
Cd56 O65 2.378 . S
O57 Cd58 2.385 . S
O57 C62 1.255 . S
Cd58 O57 2.385 . S
Cd58 O59 2.317 . S
O59 Cd58 2.317 . S
O59 C60 1.232 . S
C60 O59 1.232 . S
C60 O61 1.218 . S
O61 C60 1.218 . S
C62 O55 1.275 . S
C62 O57 1.255 . S
C63 O64 1.258 . S
C63 O65 1.256 . S
O64 Cd56 2.381 . S
O64 C63 1.258 . S
O65 Cd56 2.378 . S
O65 C63 1.256 . S
O66 Cd67 2.300 . S
O66 C73 1.275 . S
Cd67 O66 2.300 . S
Cd67 O75 2.381 . S
Cd67 O76 2.378 . S
O68 Cd69 2.385 . S
O68 C73 1.255 . S
Cd69 O68 2.385 . S
Cd69 O70 2.317 . S
O70 Cd69 2.317 . S
O70 C71 1.232 . S
C71 O70 1.232 . S
C71 O72 1.218 . S
O72 C71 1.218 . S
C73 O66 1.275 . S
C73 O68 1.255 . S
C74 O75 1.258 . S
C74 O76 1.256 . S
O75 Cd67 2.381 . S
O75 C74 1.258 . S
O76 Cd67 2.378 . S
O76 C74 1.256 . S
O77 Cd78 2.300 . S
O77 C84 1.275 . S
Cd78 O77 2.300 . S
Cd78 O86 2.381 . S
Cd78 O87 2.378 . S
O79 Cd80 2.385 . S
O79 C84 1.255 . S
Cd80 O79 2.385 . S
Cd80 O81 2.317 . S
O81 Cd80 2.317 . S
O81 C82 1.232 . S
C82 O81 1.232 . S
C82 O83 1.218 . S
O83 C82 1.218 . S
C84 O77 1.275 . S
C84 O79 1.255 . S
C85 O86 1.258 . S
C85 O87 1.256 . S
O86 Cd78 2.381 . S
O86 C85 1.258 . S
O87 Cd78 2.378 . S
O87 C85 1.256 . S
O88 Cd89 2.300 . S
O88 C95 1.275 . S
Cd89 O88 2.300 . S
Cd89 O97 2.381 . S
Cd89 O98 2.378 . S
O90 Cd91 2.385 . S
O90 C95 1.255 . S
Cd91 O90 2.385 . S
Cd91 O92 2.317 . S
O92 Cd91 2.317 . S
O92 C93 1.232 . S
C93 O92 1.232 . S
C93 O94 1.218 . S
O94 C93 1.218 . S
C95 O88 1.275 . S
C95 O90 1.255 . S
C96 O97 1.258 . S
C96 O98 1.256 . S
O97 Cd89 2.381 . S
O97 C96 1.258 . S
O98 Cd89 2.378 . S
O98 C96 1.256 . S
O99 Cd100 2.300 . S
O99 C106 1.275 . S
Cd100 O99 2.300 . S
Cd100 O108 2.381 . S
Cd100 O109 2.378 . S
O101 Cd102 2.385 . S
O101 C106 1.255 . S
Cd102 O101 2.385 . S
Cd102 O103 2.317 . S
O103 Cd102 2.317 . S
O103 C104 1.232 . S
C104 O103 1.232 . S
C104 O105 1.218 . S
O105 C104 1.218 . S
C106 O99 1.275 . S
C106 O101 1.255 . S
C107 O108 1.258 . S
C107 O109 1.256 . S
O108 Cd100 2.381 . S
O108 C107 1.258 . S
O109 Cd100 2.378 . S
O109 C107 1.256 . S
O110 Cd111 2.300 . S
O110 C117 1.275 . S
Cd111 O110 2.300 . S
Cd111 O119 2.381 . S
Cd111 O120 2.378 . S
O112 Cd113 2.385 . S
O112 C117 1.255 . S
Cd113 O112 2.385 . S
Cd113 O114 2.317 . S
O114 Cd113 2.317 . S
O114 C115 1.232 . S
C115 O114 1.232 . S
C115 O116 1.218 . S
O116 C115 1.218 . S
C117 O110 1.275 . S
C117 O112 1.255 . S
C118 O119 1.258 . S
C118 O120 1.256 . S
O119 Cd111 2.381 . S
O119 C118 1.258 . S
O120 Cd111 2.378 . S
O120 C118 1.256 . S
O121 Cd122 2.300 . S
O121 C128 1.275 . S
Cd122 O121 2.300 . S
Cd122 O130 2.381 . S
Cd122 O131 2.378 . S
O123 Cd124 2.385 . S
O123 C128 1.255 . S
Cd124 O123 2.385 . S
Cd124 O125 2.317 . S
O125 Cd124 2.317 . S
O125 C126 1.232 . S
C126 O125 1.232 . S
C126 O127 1.218 . S
O127 C126 1.218 . S
C128 O121 1.275 . S
C128 O123 1.255 . S
C129 O130 1.258 . S
C129 O131 1.256 . S
O130 Cd122 2.381 . S
O130 C129 1.258 . S
O131 Cd122 2.378 . S
O131 C129 1.256 . S
O132 Cd133 2.300 . S
O132 C139 1.275 . S
Cd133 O132 2.300 . S
Cd133 O141 2.381 . S
Cd133 O142 2.378 . S
O134 Cd135 2.385 . S
O134 C139 1.255 . S
Cd135 O134 2.385 . S
Cd135 O136 2.317 . S
O136 Cd135 2.317 . S
O136 C137 1.232 . S
C137 O136 1.232 . S
C137 O138 1.218 . S
O138 C137 1.218 . S
C139 O132 1.275 . S
C139 O134 1.255 . S
C140 O141 1.258 . S
C140 O142 1.256 . S
O141 Cd133 2.381 . S
O141 C140 1.258 . S
O142 Cd133 2.378 . S
O142 C140 1.256 . S
O143 Cd144 2.300 . S
O143 C150 1.275 . S
Cd144 O143 2.300 . S
Cd144 O152 2.381 . S
Cd144 O153 2.378 . S
O145 Cd146 2.385 . S
O145 C150 1.255 . S
Cd146 O145 2.385 . S
Cd146 O147 2.317 . S
O147 Cd146 2.317 . S
O147 C148 1.232 . S
C148 O147 1.232 . S
C148 O149 1.218 . S
O149 C148 1.218 . S
C150 O143 1.275 . S
C150 O145 1.255 . S
C151 O152 1.258 . S
C151 O153 1.256 . S
O152 Cd144 2.381 . S
O152 C151 1.258 . S
O153 Cd144 2.378 . S
O153 C151 1.256 . S
O154 Cd155 2.300 . S
O154 C161 1.275 . S
Cd155 O154 2.300 . S
Cd155 O163 2.381 . S
Cd155 O164 2.378 . S
O156 Cd157 2.385 . S
O156 C161 1.255 . S
Cd157 O156 2.385 . S
Cd157 O158 2.317 . S
O158 Cd157 2.317 . S
O158 C159 1.232 . S
C159 O158 1.232 . S
C159 O160 1.218 . S
O160 C159 1.218 . S
C161 O154 1.275 . S
C161 O156 1.255 . S
C162 O163 1.258 . S
C162 O164 1.256 . S
O163 Cd155 2.381 . S
O163 C162 1.258 . S
O164 Cd155 2.378 . S
O164 C162 1.256 . S
O165 Cd166 2.300 . S
O165 C172 1.275 . S
Cd166 O165 2.300 . S
Cd166 O174 2.381 . S
Cd166 O175 2.378 . S
O167 Cd168 2.385 . S
O167 C172 1.255 . S
Cd168 O167 2.385 . S
Cd168 O169 2.317 . S
O169 Cd168 2.317 . S
O169 C170 1.232 . S
C170 O169 1.232 . S
C170 O171 1.218 . S
O171 C170 1.218 . S
C172 O165 1.275 . S
C172 O167 1.255 . S
C173 O174 1.258 . S
C173 O175 1.256 . S
O174 Cd166 2.381 . S
O174 C173 1.258 . S
O175 Cd166 2.378 . S
O175 C173 1.256 . S
O176 Cd177 2.300 . S
O176 C183 1.275 . S
Cd177 O176 2.300 . S
Cd177 O185 2.381 . S
Cd177 O186 2.378 . S
O178 Cd179 2.385 . S
O178 C183 1.255 . S
Cd179 O178 2.385 . S
Cd179 O180 2.317 . S
O180 Cd179 2.317 . S
O180 C181 1.232 . S
C181 O180 1.232 . S
C181 O182 1.218 . S
O182 C181 1.218 . S
C183 O176 1.275 . S
C183 O178 1.255 . S
C184 O185 1.258 . S
C184 O186 1.256 . S
O185 Cd177 2.381 . S
O185 C184 1.258 . S
O186 Cd177 2.378 . S
O186 C184 1.256 . S
O187 Cd188 2.300 . S
O187 C194 1.275 . S
Cd188 O187 2.300 . S
Cd188 O196 2.381 . S
Cd188 O197 2.378 . S
O189 Cd190 2.385 . S
O189 C194 1.255 . S
Cd190 O189 2.385 . S
Cd190 O191 2.317 . S
O191 Cd190 2.317 . S
O191 C192 1.232 . S
C192 O191 1.232 . S
C192 O193 1.218 . S
O193 C192 1.218 . S
C194 O187 1.275 . S
C194 O189 1.255 . S
C195 O196 1.258 . S
C195 O197 1.256 . S
O196 Cd188 2.381 . S
O196 C195 1.258 . S
O197 Cd188 2.378 . S
O197 C195 1.256 . S
C198 Eu199 2.835 . S
C198 C200 1.500 1_545 S
C198 O218 1.257 1_545 S
C198 O219 1.260 . S
Eu199 C198 2.835 . S
Eu199 O218 2.473 1_545 S
Eu199 O219 2.480 . S
Eu199 O220 2.430 . S
Eu199 O221 2.706 . S
Eu199 O222 2.394 1_545 S
Eu199 O227 2.355 1_545 S
Eu199 O229 2.374 . S
C200 C198 1.500 1_565 S
C200 C201 1.377 1_565 S
C200 C205 1.377 . S
C201 C200 1.377 1_545 S
C201 C202 1.395 . S
C201 H230 0.931 . S
C202 C201 1.395 . S
C202 C203 1.383 1_545 S
C202 H231 0.931 . S
C203 C202 1.383 1_565 S
C203 C204 1.394 . S
C204 C203 1.394 . S
C204 C205 1.378 . S
C204 H232 0.931 . S
C205 C200 1.377 . S
C205 C204 1.378 . S
C205 H233 0.931 . S
C206 O220 1.259 . S
C206 O221 1.286 . S
C207 O222 1.251 . S
C207 O223 1.251 1_554 S
C208 Eu209 2.835 1_545 S
C208 C210 1.500 . S
C208 O224 1.257 . S
C208 O225 1.260 1_545 S
Eu209 C208 2.835 1_565 S
Eu209 O221 2.335 1_566 S
Eu209 O223 2.374 . S
Eu209 O224 2.473 1_565 S
Eu209 O225 2.480 . S
Eu209 O226 2.430 . S
Eu209 O227 2.670 1_556 S
Eu209 O228 2.394 1_565 S
C210 C208 1.500 . S
C210 C211 1.377 1_545 S
C210 C215 1.377 . S
C211 C210 1.377 1_565 S
C211 C212 1.402 . S
C211 H234 0.931 . S
C212 C211 1.402 . S
C212 C213 1.354 1_565 S
C212 H235 0.953 . S
C213 C212 1.354 1_545 S
C213 C214 1.394 . S
C214 C213 1.394 . S
C214 C215 1.378 . S
C214 H236 0.931 . S
C215 C210 1.377 . S
C215 C214 1.378 . S
C215 H237 0.931 . S
C216 O226 1.259 1_554 S
C216 O227 1.270 . S
C217 O228 1.251 . S
C217 O229 1.251 1_556 S
O218 C198 1.257 1_565 S
O218 Eu199 2.473 1_565 S
O219 C198 1.260 . S
O219 Eu199 2.480 . S
O220 Eu199 2.430 . S
O220 C206 1.259 . S
O221 Eu199 2.706 . S
O221 C206 1.286 . S
O221 Eu209 2.335 1_544 S
O222 Eu199 2.394 1_565 S
O222 C207 1.251 . S
O223 C207 1.251 1_556 S
O223 Eu209 2.374 . S
O224 C208 1.257 . S
O224 Eu209 2.473 1_545 S
O225 C208 1.260 1_565 S
O225 Eu209 2.480 . S
O226 Eu209 2.430 . S
O226 C216 1.259 1_556 S
O227 Eu199 2.355 1_565 S
O227 Eu209 2.670 1_554 S
O227 C216 1.270 . S
O228 Eu209 2.394 1_545 S
O228 C217 1.251 . S
O229 Eu199 2.374 . S
O229 C217 1.251 1_554 S
H230 C201 0.931 . S
H231 C202 0.931 . S
H232 C204 0.931 . S
H233 C205 0.931 . S
H234 C211 0.931 . S
H235 C212 0.953 . S
H236 C214 0.931 . S
H237 C215 0.931 . S
C238 Eu239 2.835 1_455 S
C238 C240 1.500 . S
C238 O258 1.257 . S
C238 O259 1.260 1_455 S
Eu239 C238 2.835 1_655 S
Eu239 O258 2.473 1_655 S
Eu239 O259 2.480 . S
Eu239 O260 2.430 . S
Eu239 O261 2.670 . S
Eu239 O262 2.394 1_655 S
Eu239 O267 2.355 1_655 S
Eu239 O269 2.374 . S
C240 C238 1.500 . S
C240 C241 1.377 . S
C240 C245 1.377 . S
C241 C240 1.377 . S
C241 C242 1.395 . S
C241 H270 0.931 1_455 S
C242 C241 1.395 . S
C242 C243 1.383 . S
C242 H271 0.931 . S
C243 C242 1.383 . S
C243 C244 1.394 . S
C244 C243 1.394 . S
C244 C245 1.378 . S
C244 H272 0.931 . S
C245 C240 1.377 . S
C245 C244 1.378 . S
C245 H273 0.931 . S
C246 O260 1.259 . S
C246 O261 1.270 . S
C247 O262 1.251 . S
C247 O263 1.251 . S
C248 Eu249 2.835 1_655 S
C248 C250 1.500 . S
C248 O264 1.257 . S
C248 O265 1.260 1_655 S
Eu249 C248 2.835 1_455 S
Eu249 O261 2.355 1_456 S
Eu249 O263 2.374 1_556 S
Eu249 O264 2.473 1_455 S
Eu249 O265 2.480 . S
Eu249 O266 2.430 . S
Eu249 O267 2.670 1_556 S
Eu249 O268 2.394 1_455 S
C250 C248 1.500 . S
C250 C251 1.377 . S
C250 C255 1.377 . S
C251 C250 1.377 . S
C251 C252 1.395 . S
C251 H274 0.931 1_655 S
C252 C251 1.395 . S
C252 C253 1.383 . S
C252 H275 0.931 . S
C253 C252 1.383 . S
C253 C254 1.394 . S
C254 C253 1.394 . S
C254 C255 1.378 . S
C254 H276 0.931 . S
C255 C250 1.377 . S
C255 C254 1.378 . S
C255 H277 0.931 . S
C256 O266 1.259 1_554 S
C256 O267 1.270 . S
C257 O268 1.286 . S
C257 O269 1.195 1_556 S
O258 C238 1.257 . S
O258 Eu239 2.473 1_455 S
O259 C238 1.260 1_655 S
O259 Eu239 2.480 . S
O260 Eu239 2.430 . S
O260 C246 1.259 . S
O261 Eu239 2.670 . S
O261 C246 1.270 . S
O261 Eu249 2.355 1_654 S
O262 Eu239 2.394 1_455 S
O262 C247 1.251 . S
O263 C247 1.251 . S
O263 Eu249 2.374 1_554 S
O264 C248 1.257 . S
O264 Eu249 2.473 1_655 S
O265 C248 1.260 1_455 S
O265 Eu249 2.480 . S
O266 Eu249 2.430 . S
O266 C256 1.259 1_556 S
O267 Eu239 2.355 1_455 S
O267 Eu249 2.670 1_554 S
O267 C256 1.270 . S
O268 Eu249 2.394 1_655 S
O268 C257 1.286 . S
O269 Eu239 2.374 . S
O269 C257 1.195 1_554 S
H270 C241 0.931 1_655 S
H271 C242 0.931 . S
H272 C244 0.931 . S
H273 C245 0.931 . S
H274 C251 0.931 1_455 S
H275 C252 0.931 . S
H276 C254 0.931 . S
H277 C255 0.931 . S
C278 Eu279 2.835 . S
C278 C280 1.500 . S
C278 O298 1.257 . S
C278 O299 1.260 . S
Eu279 C278 2.835 . S
Eu279 O298 2.473 . S
Eu279 O299 2.480 . S
Eu279 O300 2.430 . S
Eu279 O301 2.670 1_556 S
Eu279 O302 2.394 . S
Eu279 O307 2.355 . S
Eu279 O309 2.374 . S
C280 C278 1.500 . S
C280 C281 1.377 . S
C280 C285 1.377 . S
C281 C280 1.377 . S
C281 C282 1.395 . S
C281 H310 0.931 . S
C282 C281 1.395 . S
C282 C283 1.383 . S
C282 H311 0.931 . S
C283 C282 1.383 . S
C283 C284 1.394 . S
C284 C283 1.394 . S
C284 C285 1.378 . S
C284 H312 0.931 . S
C285 C280 1.377 . S
C285 C284 1.378 . S
C285 H313 0.931 . S
C286 O300 1.259 1_554 S
C286 O301 1.270 . S
C287 O302 1.251 . S
C287 O303 1.251 1_556 S
C288 Eu289 2.835 . S
C288 C290 1.500 . S
C288 O304 1.257 . S
C288 O305 1.260 . S
Eu289 C288 2.835 . S
Eu289 O301 2.355 . S
Eu289 O303 2.374 . S
Eu289 O304 2.473 . S
Eu289 O305 2.480 . S
Eu289 O306 2.430 . S
Eu289 O307 2.670 1_554 S
Eu289 O308 2.394 . S
C290 C288 1.500 . S
C290 C291 1.377 . S
C290 C295 1.377 . S
C291 C290 1.377 . S
C291 C292 1.395 . S
C291 H314 0.931 . S
C292 C291 1.395 . S
C292 C293 1.383 . S
C292 H315 0.931 . S
C293 C292 1.383 . S
C293 C294 1.394 . S
C294 C293 1.394 . S
C294 C295 1.378 . S
C294 H316 0.931 . S
C295 C290 1.377 . S
C295 C294 1.378 . S
C295 H317 0.931 . S
C296 O306 1.259 . S
C296 O307 1.270 1_554 S
C297 O308 1.251 . S
C297 O309 1.251 1_554 S
O298 C278 1.257 . S
O298 Eu279 2.473 . S
O299 C278 1.260 . S
O299 Eu279 2.480 . S
O300 Eu279 2.430 . S
O300 C286 1.259 1_556 S
O301 Eu279 2.670 1_554 S
O301 C286 1.270 . S
O301 Eu289 2.355 . S
O302 Eu279 2.394 . S
O302 C287 1.251 . S
O303 C287 1.251 1_554 S
O303 Eu289 2.374 . S
O304 C288 1.257 . S
O304 Eu289 2.473 . S
O305 C288 1.260 . S
O305 Eu289 2.480 . S
O306 Eu289 2.430 . S
O306 C296 1.259 . S
O307 Eu279 2.355 . S
O307 Eu289 2.670 1_556 S
O307 C296 1.270 1_556 S
O308 Eu289 2.394 . S
O308 C297 1.251 . S
O309 Eu279 2.374 . S
O309 C297 1.251 1_556 S
H310 C281 0.931 . S
H311 C282 0.931 . S
H312 C284 0.931 . S
H313 C285 0.931 . S
H314 C291 0.931 . S
H315 C292 0.931 . S
H316 C294 0.931 . S
H317 C295 0.931 . S
C318 Eu319 2.835 . S
C318 C320 1.500 . S
C318 O338 1.257 . S
C318 O339 1.260 . S
Eu319 C318 2.835 . S
Eu319 O338 2.473 . S
Eu319 O339 2.480 . S
Eu319 O340 2.430 . S
Eu319 O341 2.670 . S
Eu319 O342 2.394 . S
Eu319 O347 2.355 . S
Eu319 O349 2.374 . S
C320 C318 1.500 . S
C320 C321 1.377 . S
C320 C325 1.377 . S
C321 C320 1.377 . S
C321 C322 1.395 . S
C321 H350 0.931 . S
C322 C321 1.395 . S
C322 C323 1.383 . S
C322 H351 0.931 . S
C323 C322 1.383 . S
C323 C324 1.394 . S
C324 C323 1.394 . S
C324 C325 1.378 . S
C324 H352 0.931 . S
C325 C320 1.377 . S
C325 C324 1.378 . S
C325 H353 0.931 . S
C326 O340 1.259 . S
C326 O341 1.270 . S
C327 O342 1.251 . S
C327 O343 1.251 . S
C328 Eu329 2.835 . S
C328 C330 1.500 . S
C328 O344 1.257 . S
C328 O345 1.260 . S
Eu329 C328 2.835 . S
Eu329 O341 2.355 . S
Eu329 O343 2.374 . S
Eu329 O344 2.473 . S
Eu329 O345 2.480 . S
Eu329 O346 2.430 . S
Eu329 O347 2.670 . S
Eu329 O348 2.394 . S
C330 C328 1.500 . S
C330 C331 1.377 . S
C330 C335 1.377 . S
C331 C330 1.377 . S
C331 C332 1.395 . S
C331 H354 0.931 . S
C332 C331 1.395 . S
C332 C333 1.383 . S
C332 H355 0.931 . S
C333 C332 1.383 . S
C333 C334 1.394 . S
C334 C333 1.394 . S
C334 C335 1.378 . S
C334 H356 0.931 . S
C335 C330 1.377 . S
C335 C334 1.378 . S
C335 H357 0.931 . S
C336 O346 1.259 . S
C336 O347 1.270 . S
C337 O348 1.251 . S
C337 O349 1.251 . S
O338 C318 1.257 . S
O338 Eu319 2.473 . S
O339 C318 1.260 . S
O339 Eu319 2.480 . S
O340 Eu319 2.430 . S
O340 C326 1.259 . S
O341 Eu319 2.670 . S
O341 C326 1.270 . S
O341 Eu329 2.355 . S
O342 Eu319 2.394 . S
O342 C327 1.251 . S
O343 C327 1.251 . S
O343 Eu329 2.374 . S
O344 C328 1.257 . S
O344 Eu329 2.473 . S
O345 C328 1.260 . S
O345 Eu329 2.480 . S
O346 Eu329 2.430 . S
O346 C336 1.259 . S
O347 Eu319 2.355 . S
O347 Eu329 2.670 . S
O347 C336 1.270 . S
O348 Eu329 2.394 . S
O348 C337 1.251 . S
O349 Eu319 2.374 . S
O349 C337 1.251 . S
H350 C321 0.931 . S
H351 C322 0.931 . S
H352 C324 0.931 . S
H353 C325 0.931 . S
H354 C331 0.931 . S
H355 C332 0.931 . S
H356 C334 0.931 . S
H357 C335 0.931 . S
C358 Eu359 2.835 . S
C358 C360 1.500 . S
C358 O378 1.257 . S
C358 O379 1.260 . S
Eu359 C358 2.835 . S
Eu359 O378 2.473 . S
Eu359 O379 2.480 . S
Eu359 O380 2.430 . S
Eu359 O381 2.670 . S
Eu359 O382 2.394 . S
Eu359 O387 2.355 . S
Eu359 O389 2.374 . S
C360 C358 1.500 . S
C360 C361 1.377 . S
C360 C365 1.377 . S
C361 C360 1.377 . S
C361 C362 1.395 . S
C361 H390 0.931 . S
C362 C361 1.395 . S
C362 C363 1.383 . S
C362 H391 0.931 . S
C363 C362 1.383 . S
C363 C364 1.394 . S
C364 C363 1.394 . S
C364 C365 1.378 . S
C364 H392 0.931 . S
C365 C360 1.377 . S
C365 C364 1.378 . S
C365 H393 0.931 . S
C366 O380 1.259 . S
C366 O381 1.270 . S
C367 O382 1.251 . S
C367 O383 1.251 . S
C368 Eu369 2.835 . S
C368 C370 1.500 . S
C368 O384 1.257 . S
C368 O385 1.260 . S
Eu369 C368 2.835 . S
Eu369 O381 2.355 . S
Eu369 O383 2.374 . S
Eu369 O384 2.473 . S
Eu369 O385 2.480 . S
Eu369 O386 2.430 . S
Eu369 O387 2.670 . S
Eu369 O388 2.394 . S
C370 C368 1.500 . S
C370 C371 1.377 . S
C370 C375 1.377 . S
C371 C370 1.377 . S
C371 C372 1.395 . S
C371 H394 0.931 . S
C372 C371 1.395 . S
C372 C373 1.383 . S
C372 H395 0.931 . S
C373 C372 1.383 . S
C373 C374 1.394 . S
C374 C373 1.394 . S
C374 C375 1.378 . S
C374 H396 0.931 . S
C375 C370 1.377 . S
C375 C374 1.378 . S
C375 H397 0.931 . S
C376 O386 1.259 . S
C376 O387 1.270 . S
C377 O388 1.251 . S
C377 O389 1.251 . S
O378 C358 1.257 . S
O378 Eu359 2.473 . S
O379 C358 1.260 . S
O379 Eu359 2.480 . S
O380 Eu359 2.430 . S
O380 C366 1.259 . S
O381 Eu359 2.670 . S
O381 C366 1.270 . S
O381 Eu369 2.355 . S
O382 Eu359 2.394 . S
O382 C367 1.251 . S
O383 C367 1.251 . S
O383 Eu369 2.374 . S
O384 C368 1.257 . S
O384 Eu369 2.473 . S
O385 C368 1.260 . S
O385 Eu369 2.480 . S
O386 Eu369 2.430 . S
O386 C376 1.259 . S
O387 Eu359 2.355 . S
O387 Eu369 2.670 . S
O387 C376 1.270 . S
O388 Eu369 2.394 . S
O388 C377 1.251 . S
O389 Eu359 2.374 . S
O389 C377 1.251 . S
H390 C361 0.931 . S
H391 C362 0.931 . S
H392 C364 0.931 . S
H393 C365 0.931 . S
H394 C371 0.931 . S
H395 C372 0.931 . S
H396 C374 0.931 . S
H397 C375 0.931 . S
C398 Eu399 2.835 . S
C398 C400 1.500 . S
C398 O418 1.257 . S
C398 O419 1.260 . S
Eu399 C398 2.835 . S
Eu399 O418 2.473 . S
Eu399 O419 2.480 . S
Eu399 O420 2.430 . S
Eu399 O421 2.670 . S
Eu399 O422 2.394 . S
Eu399 O427 2.355 . S
Eu399 O429 2.374 . S
C400 C398 1.500 . S
C400 C401 1.377 . S
C400 C405 1.377 . S
C401 C400 1.377 . S
C401 C402 1.395 . S
C401 H430 0.931 . S
C402 C401 1.395 . S
C402 C403 1.383 . S
C402 H431 0.931 . S
C403 C402 1.383 . S
C403 C404 1.394 . S
C404 C403 1.394 . S
C404 C405 1.378 . S
C404 H432 0.931 . S
C405 C400 1.377 . S
C405 C404 1.378 . S
C405 H433 0.931 . S
C406 O420 1.259 . S
C406 O421 1.270 . S
C407 O422 1.251 . S
C407 O423 1.251 . S
C408 Eu409 2.835 . S
C408 C410 1.500 . S
C408 O424 1.257 . S
C408 O425 1.260 . S
Eu409 C408 2.835 . S
Eu409 O421 2.355 . S
Eu409 O423 2.374 . S
Eu409 O424 2.473 . S
Eu409 O425 2.480 . S
Eu409 O426 2.430 . S
Eu409 O427 2.670 . S
Eu409 O428 2.394 . S
C410 C408 1.500 . S
C410 C411 1.377 . S
C410 C415 1.377 . S
C411 C410 1.377 . S
C411 C412 1.395 . S
C411 H434 0.931 . S
C412 C411 1.395 . S
C412 C413 1.383 . S
C412 H435 0.931 . S
C413 C412 1.383 . S
C413 C414 1.394 . S
C414 C413 1.394 . S
C414 C415 1.378 . S
C414 H436 0.931 . S
C415 C410 1.377 . S
C415 C414 1.378 . S
C415 H437 0.931 . S
C416 O426 1.259 . S
C416 O427 1.270 . S
C417 O428 1.251 . S
C417 O429 1.251 . S
O418 C398 1.257 . S
O418 Eu399 2.473 . S
O419 C398 1.260 . S
O419 Eu399 2.480 . S
O420 Eu399 2.430 . S
O420 C406 1.259 . S
O421 Eu399 2.670 . S
O421 C406 1.270 . S
O421 Eu409 2.355 . S
O422 Eu399 2.394 . S
O422 C407 1.251 . S
O423 C407 1.251 . S
O423 Eu409 2.374 . S
O424 C408 1.257 . S
O424 Eu409 2.473 . S
O425 C408 1.260 . S
O425 Eu409 2.480 . S
O426 Eu409 2.430 . S
O426 C416 1.259 . S
O427 Eu399 2.355 . S
O427 Eu409 2.670 . S
O427 C416 1.270 . S
O428 Eu409 2.394 . S
O428 C417 1.251 . S
O429 Eu399 2.374 . S
O429 C417 1.251 . S
H430 C401 0.931 . S
H431 C402 0.931 . S
H432 C404 0.931 . S
H433 C405 0.931 . S
H434 C411 0.931 . S
H435 C412 0.931 . S
H436 C414 0.931 . S
H437 C415 0.931 . S
C438 Eu439 2.835 . S
C438 C440 1.500 . S
C438 O458 1.257 . S
C438 O459 1.260 . S
Eu439 C438 2.835 . S
Eu439 O458 2.473 . S
Eu439 O459 2.480 . S
Eu439 O460 2.430 . S
Eu439 O461 2.670 . S
Eu439 O462 2.394 . S
Eu439 O467 2.355 . S
Eu439 O469 2.374 . S
C440 C438 1.500 . S
C440 C441 1.377 . S
C440 C445 1.377 . S
C441 C440 1.377 . S
C441 C442 1.395 . S
C441 H470 0.931 . S
C442 C441 1.395 . S
C442 C443 1.383 . S
C442 H471 0.931 . S
C443 C442 1.383 . S
C443 C444 1.394 . S
C444 C443 1.394 . S
C444 C445 1.378 . S
C444 H472 0.931 . S
C445 C440 1.377 . S
C445 C444 1.378 . S
C445 H473 0.931 . S
C446 O460 1.259 . S
C446 O461 1.270 . S
C447 O462 1.251 . S
C447 O463 1.251 . S
C448 Eu449 2.835 . S
C448 C450 1.500 . S
C448 O464 1.257 . S
C448 O465 1.260 . S
Eu449 C448 2.835 . S
Eu449 O461 2.355 . S
Eu449 O463 2.374 . S
Eu449 O464 2.473 . S
Eu449 O465 2.480 . S
Eu449 O466 2.430 . S
Eu449 O467 2.670 . S
Eu449 O468 2.394 . S
C450 C448 1.500 . S
C450 C451 1.377 . S
C450 C455 1.377 . S
C451 C450 1.377 . S
C451 C452 1.395 . S
C451 H474 0.931 . S
C452 C451 1.395 . S
C452 C453 1.383 . S
C452 H475 0.931 . S
C453 C452 1.383 . S
C453 C454 1.394 . S
C454 C453 1.394 . S
C454 C455 1.378 . S
C454 H476 0.931 . S
C455 C450 1.377 . S
C455 C454 1.378 . S
C455 H477 0.931 . S
C456 O466 1.259 . S
C456 O467 1.270 . S
C457 O468 1.251 . S
C457 O469 1.251 . S
O458 C438 1.257 . S
O458 Eu439 2.473 . S
O459 C438 1.260 . S
O459 Eu439 2.480 . S
O460 Eu439 2.430 . S
O460 C446 1.259 . S
O461 Eu439 2.670 . S
O461 C446 1.270 . S
O461 Eu449 2.355 . S
O462 Eu439 2.394 . S
O462 C447 1.251 . S
O463 C447 1.251 . S
O463 Eu449 2.374 . S
O464 C448 1.257 . S
O464 Eu449 2.473 . S
O465 C448 1.260 . S
O465 Eu449 2.480 . S
O466 Eu449 2.430 . S
O466 C456 1.259 . S
O467 Eu439 2.355 . S
O467 Eu449 2.670 . S
O467 C456 1.270 . S
O468 Eu449 2.394 . S
O468 C457 1.251 . S
O469 Eu439 2.374 . S
O469 C457 1.251 . S
H470 C441 0.931 . S
H471 C442 0.931 . S
H472 C444 0.931 . S
H473 C445 0.931 . S
H474 C451 0.931 . S
H475 C452 0.931 . S
H476 C454 0.931 . S
H477 C455 0.931 . S
C478 Eu479 2.835 . S
C478 C480 1.500 . S
C478 O498 1.257 . S
C478 O499 1.260 . S
Eu479 C478 2.835 . S
Eu479 O498 2.473 . S
Eu479 O499 2.480 . S
Eu479 O500 2.430 . S
Eu479 O501 2.670 . S
Eu479 O502 2.394 . S
Eu479 O507 2.355 . S
Eu479 O509 2.374 . S
C480 C478 1.500 . S
C480 C481 1.377 . S
C480 C485 1.377 . S
C481 C480 1.377 . S
C481 C482 1.395 . S
C481 H510 0.931 . S
C482 C481 1.395 . S
C482 C483 1.383 . S
C482 H511 0.931 . S
C483 C482 1.383 . S
C483 C484 1.394 . S
C484 C483 1.394 . S
C484 C485 1.378 . S
C484 H512 0.931 . S
C485 C480 1.377 . S
C485 C484 1.378 . S
C485 H513 0.931 . S
C486 O500 1.259 . S
C486 O501 1.270 . S
C487 O502 1.251 . S
C487 O503 1.251 . S
C488 Eu489 2.835 . S
C488 C490 1.500 . S
C488 O504 1.257 . S
C488 O505 1.260 . S
Eu489 C488 2.835 . S
Eu489 O501 2.355 . S
Eu489 O503 2.374 . S
Eu489 O504 2.473 . S
Eu489 O505 2.480 . S
Eu489 O506 2.430 . S
Eu489 O507 2.670 . S
Eu489 O508 2.394 . S
C490 C488 1.500 . S
C490 C491 1.377 . S
C490 C495 1.377 . S
C491 C490 1.377 . S
C491 C492 1.395 . S
C491 H514 0.931 . S
C492 C491 1.395 . S
C492 C493 1.383 . S
C492 H515 0.931 . S
C493 C492 1.383 . S
C493 C494 1.394 . S
C494 C493 1.394 . S
C494 C495 1.378 . S
C494 H516 0.931 . S
C495 C490 1.377 . S
C495 C494 1.378 . S
C495 H517 0.931 . S
C496 O506 1.259 . S
C496 O507 1.270 . S
C497 O508 1.251 . S
C497 O509 1.251 . S
O498 C478 1.257 . S
O498 Eu479 2.473 . S
O499 C478 1.260 . S
O499 Eu479 2.480 . S
O500 Eu479 2.430 . S
O500 C486 1.259 . S
O501 Eu479 2.670 . S
O501 C486 1.270 . S
O501 Eu489 2.355 . S
O502 Eu479 2.394 . S
O502 C487 1.251 . S
O503 C487 1.251 . S
O503 Eu489 2.374 . S
O504 C488 1.257 . S
O504 Eu489 2.473 . S
O505 C488 1.260 . S
O505 Eu489 2.480 . S
O506 Eu489 2.430 . S
O506 C496 1.259 . S
O507 Eu479 2.355 . S
O507 Eu489 2.670 . S
O507 C496 1.270 . S
O508 Eu489 2.394 . S
O508 C497 1.251 . S
O509 Eu479 2.374 . S
O509 C497 1.251 . S
H510 C481 0.931 . S
H511 C482 0.931 . S
H512 C484 0.931 . S
H513 C485 0.931 . S
H514 C491 0.931 . S
H515 C492 0.931 . S
H516 C494 0.931 . S
H517 C495 0.931 . S
C518 Eu519 2.835 . S
C518 C520 1.500 . S
C518 O538 1.257 . S
C518 O539 1.260 . S
Eu519 C518 2.835 . S
Eu519 O538 2.473 . S
Eu519 O539 2.480 . S
Eu519 O540 2.430 . S
Eu519 O541 2.670 . S
Eu519 O542 2.394 . S
Eu519 O547 2.355 . S
Eu519 O549 2.374 . S
C520 C518 1.500 . S
C520 C521 1.377 . S
C520 C525 1.377 . S
C521 C520 1.377 . S
C521 C522 1.395 . S
C521 H550 0.931 . S
C522 C521 1.395 . S
C522 C523 1.383 . S
C522 H551 0.931 . S
C523 C522 1.383 . S
C523 C524 1.394 . S
C524 C523 1.394 . S
C524 C525 1.378 . S
C524 H552 0.931 . S
C525 C520 1.377 . S
C525 C524 1.378 . S
C525 H553 0.931 . S
C526 O540 1.259 . S
C526 O541 1.270 . S
C527 O542 1.251 . S
C527 O543 1.251 . S
C528 Eu529 2.835 . S
C528 C530 1.500 . S
C528 O544 1.257 . S
C528 O545 1.260 . S
Eu529 C528 2.835 . S
Eu529 O541 2.355 . S
Eu529 O543 2.374 . S
Eu529 O544 2.473 . S
Eu529 O545 2.480 . S
Eu529 O546 2.430 . S
Eu529 O547 2.670 . S
Eu529 O548 2.394 . S
C530 C528 1.500 . S
C530 C531 1.377 . S
C530 C535 1.377 . S
C531 C530 1.377 . S
C531 C532 1.395 . S
C531 H554 0.931 . S
C532 C531 1.395 . S
C532 C533 1.383 . S
C532 H555 0.931 . S
C533 C532 1.383 . S
C533 C534 1.394 . S
C534 C533 1.394 . S
C534 C535 1.378 . S
C534 H556 0.931 . S
C535 C530 1.377 . S
C535 C534 1.378 . S
C535 H557 0.931 . S
C536 O546 1.259 . S
C536 O547 1.270 . S
C537 O548 1.251 . S
C537 O549 1.251 . S
O538 C518 1.257 . S
O538 Eu519 2.473 . S
O539 C518 1.260 . S
O539 Eu519 2.480 . S
O540 Eu519 2.430 . S
O540 C526 1.259 . S
O541 Eu519 2.670 . S
O541 C526 1.270 . S
O541 Eu529 2.355 . S
O542 Eu519 2.394 . S
O542 C527 1.251 . S
O543 C527 1.251 . S
O543 Eu529 2.374 . S
O544 C528 1.257 . S
O544 Eu529 2.473 . S
O545 C528 1.260 . S
O545 Eu529 2.480 . S
O546 Eu529 2.430 . S
O546 C536 1.259 . S
O547 Eu519 2.355 . S
O547 Eu529 2.670 . S
O547 C536 1.270 . S
O548 Eu529 2.394 . S
O548 C537 1.251 . S
O549 Eu519 2.374 . S
O549 C537 1.251 . S
H550 C521 0.931 . S
H551 C522 0.931 . S
H552 C524 0.931 . S
H553 C525 0.931 . S
H554 C531 0.931 . S
H555 C532 0.931 . S
H556 C534 0.931 . S
H557 C535 0.931 . S
H558 C570 0.930 . S
H559 C572 0.930 . S
H560 C573 0.930 . S
H561 C577 0.959 . S
H562 C577 0.959 . S
H563 C577 0.961 . S
H564 C578 0.969 1_556 S
H565 C578 0.948 1_556 S
H566 C578 0.939 1_556 S
H567 C581 0.929 . S
H568 C582 0.931 . S
H569 C584 0.930 . S
C570 H558 0.930 . S
C570 C571 1.399 . S
C570 C575 1.399 . S
C571 C570 1.399 . S
C571 C572 1.376 . S
C572 H559 0.930 . S
C572 C571 1.376 . S
C572 C573 1.388 . S
C573 H560 0.930 . S
C573 C572 1.388 . S
C573 C574 1.390 . S
C574 C573 1.390 . S
C574 C575 1.394 . S
C574 C580 1.465 . S
C575 C570 1.399 . S
C575 C574 1.394 . S
C575 C576 1.516 . S
C576 C575 1.516 . S
C576 C577 1.502 . S
C576 C578 1.592 . S
C576 C579 1.526 . S
C577 H561 0.959 . S
C577 H562 0.959 . S
C577 H563 0.961 . S
C577 C576 1.502 . S
C578 H564 0.969 1_554 S
C578 H565 0.948 1_554 S
C578 H566 0.939 1_554 S
C578 C576 1.592 . S
C579 C576 1.526 . S
C579 C580 1.396 . S
C579 C584 1.390 . S
C580 C574 1.465 . S
C580 C579 1.396 . S
C580 C581 1.399 . S
C581 H567 0.929 . S
C581 C580 1.399 . S
C581 C582 1.385 . S
C582 H568 0.931 . S
C582 C581 1.385 . S
C582 C583 1.389 . S
C583 C582 1.389 . S
C583 C584 1.387 . S
C584 H569 0.930 . S
C584 C579 1.390 . S
C584 C583 1.387 . S
H585 C597 0.930 . S
H586 C599 0.930 . S
H587 C600 0.930 . S
H588 C604 0.959 . S
H589 C604 0.930 1_556 S
H590 C604 0.961 . S
H591 C605 0.960 . S
H592 C605 0.961 1_556 S
H593 C605 0.959 . S
H594 C608 0.929 . S
H595 C609 0.931 . S
H596 C611 0.930 . S
C597 H585 0.930 . S
C597 C598 1.399 . S
C597 C602 1.399 . S
C598 C597 1.399 . S
C598 C599 1.376 . S
C599 H586 0.930 . S
C599 C598 1.376 . S
C599 C600 1.388 . S
C600 H587 0.930 . S
C600 C599 1.388 . S
C600 C601 1.390 . S
C601 C600 1.390 . S
C601 C602 1.394 . S
C601 C607 1.465 . S
C602 C597 1.399 . S
C602 C601 1.394 . S
C602 C603 1.516 . S
C603 C602 1.516 . S
C603 C604 1.502 . S
C603 C605 1.561 . S
C603 C606 1.526 . S
C604 H588 0.959 . S
C604 H589 0.930 1_554 S
C604 H590 0.961 . S
C604 C603 1.502 . S
C605 H591 0.960 . S
C605 H592 0.961 1_554 S
C605 H593 0.959 . S
C605 C603 1.561 . S
C606 C603 1.526 . S
C606 C607 1.396 . S
C606 C611 1.390 . S
C607 C601 1.465 . S
C607 C606 1.396 . S
C607 C608 1.399 . S
C608 H594 0.929 . S
C608 C607 1.399 . S
C608 C609 1.385 . S
C609 H595 0.931 . S
C609 C608 1.385 . S
C609 C610 1.389 . S
C610 C609 1.389 . S
C610 C611 1.387 . S
C611 H596 0.930 . S
C611 C606 1.390 . S
C611 C610 1.387 . S
H612 C624 0.930 . S
H613 C626 0.930 . S
H614 C627 0.930 . S
H615 C631 0.982 . S
H616 C631 0.964 . S
H617 C631 0.957 . S
H618 C632 0.960 . S
H619 C632 0.961 . S
H620 C632 0.959 . S
H621 C635 0.929 . S
H622 C636 0.931 . S
H623 C638 0.930 . S
C624 H612 0.930 . S
C624 C625 1.399 . S
C624 C629 1.399 . S
C625 C624 1.399 . S
C625 C626 1.376 . S
C626 H613 0.930 . S
C626 C625 1.376 . S
C626 C627 1.388 . S
C627 H614 0.930 . S
C627 C626 1.388 . S
C627 C628 1.390 . S
C628 C627 1.390 . S
C628 C629 1.394 . S
C628 C634 1.465 . S
C629 C624 1.399 . S
C629 C628 1.394 . S
C629 C630 1.516 . S
C630 C629 1.516 . S
C630 C631 1.468 1_554 S
C630 C632 1.561 . S
C630 C633 1.526 . S
C631 H615 0.982 . S
C631 H616 0.964 . S
C631 H617 0.957 . S
C631 C630 1.468 1_556 S
C632 H618 0.960 . S
C632 H619 0.961 . S
C632 H620 0.959 . S
C632 C630 1.561 . S
C633 C630 1.526 . S
C633 C634 1.396 . S
C633 C638 1.390 . S
C634 C628 1.465 . S
C634 C633 1.396 . S
C634 C635 1.399 . S
C635 H621 0.929 . S
C635 C634 1.399 . S
C635 C636 1.385 . S
C636 H622 0.931 . S
C636 C635 1.385 . S
C636 C637 1.389 . S
C637 C636 1.389 . S
C637 C638 1.387 . S
C638 H623 0.930 . S
C638 C633 1.390 . S
C638 C637 1.387 . S
H639 C651 0.930 . S
H640 C653 0.930 . S
H641 C654 0.930 . S
H642 C658 0.959 1_556 S
H643 C658 0.959 . S
H644 C658 0.961 . S
H645 C659 0.960 . S
H646 C659 0.961 . S
H647 C659 0.959 . S
H648 C662 0.929 . S
H649 C663 0.931 . S
H650 C665 0.930 . S
C651 H639 0.930 . S
C651 C652 1.399 . S
C651 C656 1.399 . S
C652 C651 1.399 . S
C652 C653 1.376 . S
C653 H640 0.930 . S
C653 C652 1.376 . S
C653 C654 1.388 . S
C654 H641 0.930 . S
C654 C653 1.388 . S
C654 C655 1.390 . S
C655 C654 1.390 . S
C655 C656 1.394 . S
C655 C661 1.465 . S
C656 C651 1.399 . S
C656 C655 1.394 . S
C656 C657 1.516 1_556 S
C657 C656 1.516 1_554 S
C657 C658 1.502 . S
C657 C659 1.561 . S
C657 C660 1.526 1_554 S
C658 H642 0.959 1_554 S
C658 H643 0.959 . S
C658 H644 0.961 . S
C658 C657 1.502 . S
C659 H645 0.960 . S
C659 H646 0.961 . S
C659 H647 0.959 . S
C659 C657 1.561 . S
C660 C657 1.526 1_556 S
C660 C661 1.396 . S
C660 C665 1.390 1_556 S
C661 C655 1.465 . S
C661 C660 1.396 . S
C661 C662 1.399 . S
C662 H648 0.929 . S
C662 C661 1.399 . S
C662 C663 1.385 . S
C663 H649 0.931 . S
C663 C662 1.385 . S
C663 C664 1.389 . S
C664 C663 1.389 . S
C664 C665 1.387 1_556 S
C665 H650 0.930 . S
C665 C660 1.390 1_554 S
C665 C664 1.387 1_554 S
H666 C678 0.930 . S
H667 C680 0.930 . S
H668 C681 0.918 1_554 S
H669 C685 0.959 . S
H670 C685 0.959 . S
H671 C685 0.961 . S
H672 C686 0.960 . S
H673 C686 0.961 . S
H674 C686 0.959 . S
H675 C689 0.929 . S
H676 C690 0.931 . S
H677 C692 0.930 . S
C678 H666 0.930 . S
C678 C679 1.399 . S
C678 C683 1.399 . S
C679 C678 1.399 . S
C679 C680 1.376 . S
C680 H667 0.930 . S
C680 C679 1.376 . S
C680 C681 1.388 . S
C681 H668 0.918 1_556 S
C681 C680 1.388 . S
C681 C682 1.390 . S
C682 C681 1.390 . S
C682 C683 1.394 . S
C682 C688 1.465 . S
C683 C678 1.399 . S
C683 C682 1.394 . S
C683 C684 1.516 . S
C684 C683 1.516 . S
C684 C685 1.502 . S
C684 C686 1.561 . S
C684 C687 1.526 . S
C685 H669 0.959 . S
C685 H670 0.959 . S
C685 H671 0.961 . S
C685 C684 1.502 . S
C686 H672 0.960 . S
C686 H673 0.961 . S
C686 H674 0.959 . S
C686 C684 1.561 . S
C687 C684 1.526 . S
C687 C688 1.396 . S
C687 C692 1.390 . S
C688 C682 1.465 . S
C688 C687 1.396 . S
C688 C689 1.399 1_556 S
C689 H675 0.929 . S
C689 C688 1.399 1_554 S
C689 C690 1.385 . S
C690 H676 0.931 . S
C690 C689 1.385 . S
C690 C691 1.389 1_554 S
C691 C690 1.389 1_556 S
C691 C692 1.387 . S
C692 H677 0.930 . S
C692 C687 1.390 . S
C692 C691 1.387 . S
H693 C705 0.930 . S
H694 C707 0.930 . S
H695 C708 0.930 . S
H696 C712 0.959 . S
H697 C712 0.959 . S
H698 C712 0.961 . S
H699 C713 0.960 . S
H700 C713 0.961 . S
H701 C713 0.959 . S
H702 C716 0.929 . S
H703 C717 0.931 . S
H704 C719 0.930 . S
C705 H693 0.930 . S
C705 C706 1.399 . S
C705 C710 1.399 . S
C706 C705 1.399 . S
C706 C707 1.376 1_556 S
C707 H694 0.930 . S
C707 C706 1.376 1_554 S
C707 C708 1.388 . S
C708 H695 0.930 . S
C708 C707 1.388 . S
C708 C709 1.390 . S
C709 C708 1.390 . S
C709 C710 1.394 1_554 S
C709 C715 1.465 . S
C710 C705 1.399 . S
C710 C709 1.394 1_556 S
C710 C711 1.516 . S
C711 C710 1.516 . S
C711 C712 1.502 . S
C711 C713 1.561 . S
C711 C714 1.526 . S
C712 H696 0.959 . S
C712 H697 0.959 . S
C712 H698 0.961 . S
C712 C711 1.502 . S
C713 H699 0.960 . S
C713 H700 0.961 . S
C713 H701 0.959 . S
C713 C711 1.561 . S
C714 C711 1.526 . S
C714 C715 1.396 1_556 S
C714 C719 1.390 . S
C715 C709 1.465 . S
C715 C714 1.396 1_554 S
C715 C716 1.399 . S
C716 H702 0.929 . S
C716 C715 1.399 . S
C716 C717 1.385 . S
C717 H703 0.931 . S
C717 C716 1.385 . S
C717 C718 1.389 . S
C718 C717 1.389 . S
C718 C719 1.387 1_554 S
C719 H704 0.930 . S
C719 C714 1.390 . S
C719 C718 1.387 1_556 S
H720 C732 0.930 . S
H721 C734 0.927 . S
H722 C735 0.954 . S
H723 C739 0.959 . S
H724 C739 0.959 . S
H725 C739 0.961 . S
H726 C740 0.960 . S
H727 C740 0.961 . S
H728 C740 0.959 . S
H729 C743 0.929 . S
H730 C744 0.931 . S
H731 C746 0.930 . S
C732 H720 0.930 . S
C732 C733 1.399 . S
C732 C737 1.399 . S
C733 C732 1.399 . S
C733 C734 1.376 . S
C734 H721 0.927 . S
C734 C733 1.376 . S
C734 C735 1.375 1_556 S
C735 H722 0.954 . S
C735 C734 1.375 1_554 S
C735 C736 1.379 1_554 S
C736 C735 1.379 1_556 S
C736 C737 1.394 . S
C736 C742 1.465 . S
C737 C732 1.399 . S
C737 C736 1.394 . S
C737 C738 1.516 . S
C738 C737 1.516 . S
C738 C739 1.502 . S
C738 C740 1.561 . S
C738 C741 1.526 . S
C739 H723 0.959 . S
C739 H724 0.959 . S
C739 H725 0.961 . S
C739 C738 1.502 . S
C740 H726 0.960 . S
C740 H727 0.961 . S
C740 H728 0.959 . S
C740 C738 1.561 . S
C741 C738 1.526 . S
C741 C742 1.396 . S
C741 C746 1.390 . S
C742 C736 1.465 . S
C742 C741 1.396 . S
C742 C743 1.399 1_556 S
C743 H729 0.929 . S
C743 C742 1.399 1_554 S
C743 C744 1.385 . S
C744 H730 0.931 . S
C744 C743 1.385 . S
C744 C745 1.389 1_554 S
C745 C744 1.389 1_556 S
C745 C746 1.387 . S
C746 H731 0.930 . S
C746 C741 1.390 . S
C746 C745 1.387 . S
H747 C759 0.930 . S
H748 C761 0.930 . S
H749 C762 0.930 . S
H750 C766 0.959 1_556 S
H751 C766 0.959 . S
H752 C766 0.961 . S
H753 C767 0.960 . S
H754 C767 0.961 . S
H755 C767 0.959 . S
H756 C770 0.929 . S
H757 C771 0.931 . S
H758 C773 0.885 1_554 S
C759 H747 0.930 . S
C759 C760 1.399 . S
C759 C764 1.399 . S
C760 C759 1.399 . S
C760 C761 1.376 . S
C761 H748 0.930 . S
C761 C760 1.376 . S
C761 C762 1.388 . S
C762 H749 0.930 . S
C762 C761 1.388 . S
C762 C763 1.390 . S
C763 C762 1.390 . S
C763 C764 1.394 . S
C763 C769 1.465 . S
C764 C759 1.399 . S
C764 C763 1.394 . S
C764 C765 1.519 1_556 S
C765 C764 1.519 1_554 S
C765 C766 1.502 . S
C765 C767 1.558 . S
C765 C768 1.527 1_554 S
C766 H750 0.959 1_554 S
C766 H751 0.959 . S
C766 H752 0.961 . S
C766 C765 1.502 . S
C767 H753 0.960 . S
C767 H754 0.961 . S
C767 H755 0.959 . S
C767 C765 1.558 . S
C768 C765 1.527 1_556 S
C768 C769 1.396 . S
C768 C773 1.412 . S
C769 C763 1.465 . S
C769 C768 1.396 . S
C769 C770 1.399 . S
C770 H756 0.929 . S
C770 C769 1.399 . S
C770 C771 1.385 . S
C771 H757 0.931 . S
C771 C770 1.385 . S
C771 C772 1.389 . S
C772 C771 1.389 . S
C772 C773 1.413 . S
C773 H758 0.885 1_556 S
C773 C768 1.412 . S
C773 C772 1.413 . S
H774 C786 0.930 . S
H775 C788 0.930 . S
H776 C789 0.930 . S
H777 C793 0.959 . S
H778 C793 0.959 . S
H779 C793 0.961 . S
H780 C794 0.960 . S
H781 C794 0.961 . S
H782 C794 0.959 . S
H783 C797 0.929 . S
H784 C798 0.931 . S
H785 C800 0.930 . S
C786 H774 0.930 . S
C786 C787 1.399 . S
C786 C791 1.399 . S
C787 C786 1.399 . S
C787 C788 1.376 1_556 S
C788 H775 0.930 . S
C788 C787 1.376 1_554 S
C788 C789 1.388 . S
C789 H776 0.930 . S
C789 C788 1.388 . S
C789 C790 1.390 1_554 S
C790 C789 1.390 1_556 S
C790 C791 1.394 . S
C790 C796 1.464 . S
C791 C786 1.399 . S
C791 C790 1.394 . S
C791 C792 1.516 . S
C792 C791 1.516 . S
C792 C793 1.502 . S
C792 C794 1.561 . S
C792 C795 1.526 . S
C793 H777 0.959 . S
C793 H778 0.959 . S
C793 H779 0.961 . S
C793 C792 1.502 . S
C794 H780 0.960 . S
C794 H781 0.961 . S
C794 H782 0.959 . S
C794 C792 1.561 . S
C795 C792 1.526 . S
C795 C796 1.419 . S
C795 C800 1.390 . S
C796 C790 1.464 . S
C796 C795 1.419 . S
C796 C797 1.382 1_556 S
C797 H783 0.929 . S
C797 C796 1.382 1_554 S
C797 C798 1.385 . S
C798 H784 0.931 . S
C798 C797 1.385 . S
C798 C799 1.389 1_554 S
C799 C798 1.389 1_556 S
C799 C800 1.387 . S
C800 H785 0.930 . S
C800 C795 1.390 . S
C800 C799 1.387 . S
H801 C813 0.930 . S
H802 C815 0.930 . S
H803 C816 0.930 . S
H804 C820 0.959 . S
H805 C820 0.959 . S
H806 C820 0.961 . S
H807 C821 0.960 . S
H808 C821 0.961 . S
H809 C821 0.959 . S
H810 C824 0.929 1_556 S
H811 C825 0.931 1_556 S
H812 C827 0.930 . S
C813 H801 0.930 . S
C813 C814 1.399 . S
C813 C818 1.399 . S
C814 C813 1.399 . S
C814 C815 1.376 . S
C815 H802 0.930 . S
C815 C814 1.376 . S
C815 C816 1.388 . S
C816 H803 0.930 . S
C816 C815 1.388 . S
C816 C817 1.390 . S
C817 C816 1.390 . S
C817 C818 1.394 . S
C817 C823 1.465 . S
C818 C813 1.399 . S
C818 C817 1.394 . S
C818 C819 1.516 . S
C819 C818 1.516 . S
C819 C820 1.502 . S
C819 C821 1.561 . S
C819 C822 1.526 . S
C820 H804 0.959 . S
C820 H805 0.959 . S
C820 H806 0.961 . S
C820 C819 1.502 . S
C821 H807 0.960 . S
C821 H808 0.961 . S
C821 H809 0.959 . S
C821 C819 1.561 . S
C822 C819 1.526 . S
C822 C823 1.396 . S
C822 C827 1.390 . S
C823 C817 1.465 . S
C823 C822 1.396 . S
C823 C824 1.399 . S
C824 H810 0.929 1_554 S
C824 C823 1.399 . S
C824 C825 1.385 . S
C825 H811 0.931 1_554 S
C825 C824 1.385 . S
C825 C826 1.389 . S
C826 C825 1.389 . S
C826 C827 1.387 . S
C827 H812 0.930 . S
C827 C822 1.390 . S
C827 C826 1.387 . S
H828 C840 0.930 . S
H829 C842 0.930 . S
H830 C843 0.930 . S
H831 C847 0.959 . S
H832 C847 0.959 . S
H833 C847 0.961 . S
H834 C848 0.960 . S
H835 C848 0.961 . S
H836 C848 0.959 . S
H837 C851 0.929 . S
H838 C852 0.931 . S
H839 C854 0.930 . S
C840 H828 0.930 . S
C840 C841 1.399 . S
C840 C845 1.399 . S
C841 C840 1.399 . S
C841 C842 1.376 . S
C842 H829 0.930 . S
C842 C841 1.376 . S
C842 C843 1.388 . S
C843 H830 0.930 . S
C843 C842 1.388 . S
C843 C844 1.390 . S
C844 C843 1.390 . S
C844 C845 1.394 . S
C844 C850 1.465 . S
C845 C840 1.399 . S
C845 C844 1.394 . S
C845 C846 1.516 . S
C846 C845 1.516 . S
C846 C847 1.502 . S
C846 C848 1.561 . S
C846 C849 1.526 . S
C847 H831 0.959 . S
C847 H832 0.959 . S
C847 H833 0.961 . S
C847 C846 1.502 . S
C848 H834 0.960 . S
C848 H835 0.961 . S
C848 H836 0.959 . S
C848 C846 1.561 . S
C849 C846 1.526 . S
C849 C850 1.396 . S
C849 C854 1.390 . S
C850 C844 1.465 . S
C850 C849 1.396 . S
C850 C851 1.399 . S
C851 H837 0.929 . S
C851 C850 1.399 . S
C851 C852 1.385 . S
C852 H838 0.931 . S
C852 C851 1.385 . S
C852 C853 1.389 . S
C853 C852 1.389 . S
C853 C854 1.387 . S
C854 H839 0.930 . S
C854 C849 1.390 . S
C854 C853 1.387 . S
H855 C867 0.930 . S
H856 C869 0.930 1_556 S
H857 C870 0.885 1_556 S
H858 C874 0.959 . S
H859 C874 0.959 . S
H860 C874 0.961 . S
H861 C875 0.960 . S
H862 C875 0.961 . S
H863 C875 0.959 . S
H864 C878 0.929 . S
H865 C879 0.931 . S
H866 C881 0.930 . S
C867 H855 0.930 . S
C867 C868 1.399 . S
C867 C872 1.399 . S
C868 C867 1.399 . S
C868 C869 1.376 . S
C869 H856 0.930 1_554 S
C869 C868 1.376 . S
C869 C870 1.408 . S
C870 H857 0.885 1_554 S
C870 C869 1.408 . S
C870 C871 1.417 . S
C871 C870 1.417 . S
C871 C872 1.394 . S
C871 C877 1.465 . S
C872 C867 1.399 . S
C872 C871 1.394 . S
C872 C873 1.516 . S
C873 C872 1.516 . S
C873 C874 1.502 . S
C873 C875 1.561 . S
C873 C876 1.526 . S
C874 H858 0.959 . S
C874 H859 0.959 . S
C874 H860 0.961 . S
C874 C873 1.502 . S
C875 H861 0.960 . S
C875 H862 0.961 . S
C875 H863 0.959 . S
C875 C873 1.561 . S
C876 C873 1.526 . S
C876 C877 1.396 . S
C876 C881 1.390 . S
C877 C871 1.465 . S
C877 C876 1.396 . S
C877 C878 1.399 1_554 S
C878 H864 0.929 . S
C878 C877 1.399 1_556 S
C878 C879 1.385 . S
C879 H865 0.931 . S
C879 C878 1.385 . S
C879 C880 1.389 1_556 S
C880 C879 1.389 1_554 S
C880 C881 1.387 . S
C881 H866 0.930 . S
C881 C876 1.390 . S
C881 C880 1.387 . S
H882 C894 0.930 . S
H883 C896 0.930 . S
H884 C897 0.930 . S
H885 C901 0.959 . S
H886 C901 0.959 . S
H887 C901 0.961 . S
H888 C902 0.960 . S
H889 C902 0.961 . S
H890 C902 0.959 . S
H891 C905 0.929 . S
H892 C906 0.931 . S
H893 C908 0.930 . S
C894 H882 0.930 . S
C894 C895 1.399 . S
C894 C899 1.399 1_655 S
C895 C894 1.399 . S
C895 C896 1.376 . S
C896 H883 0.930 . S
C896 C895 1.376 . S
C896 C897 1.388 . S
C897 H884 0.930 . S
C897 C896 1.388 . S
C897 C898 1.390 1_655 S
C898 C897 1.390 1_455 S
C898 C899 1.394 . S
C898 C904 1.465 . S
C899 C894 1.399 1_455 S
C899 C898 1.394 . S
C899 C900 1.516 . S
C900 C899 1.516 . S
C900 C901 1.502 . S
C900 C902 1.561 . S
C900 C903 1.526 . S
C901 H885 0.959 . S
C901 H886 0.959 . S
C901 H887 0.961 . S
C901 C900 1.502 . S
C902 H888 0.960 . S
C902 H889 0.961 . S
C902 H890 0.959 . S
C902 C900 1.561 . S
C903 C900 1.526 . S
C903 C904 1.396 . S
C903 C908 1.390 . S
C904 C898 1.465 . S
C904 C903 1.396 . S
C904 C905 1.399 . S
C905 H891 0.929 . S
C905 C904 1.399 . S
C905 C906 1.385 . S
C906 H892 0.931 . S
C906 C905 1.385 . S
C906 C907 1.389 . S
C907 C906 1.389 . S
C907 C908 1.387 . S
C908 H893 0.930 . S
C908 C903 1.390 . S
C908 C907 1.387 . S
H909 C921 0.930 . S
H910 C923 0.930 . S
H911 C924 0.930 . S
H912 C928 0.959 . S
H913 C928 0.959 . S
H914 C928 0.961 . S
H915 C929 0.960 . S
H916 C929 0.961 . S
H917 C929 0.959 . S
H918 C932 0.929 . S
H919 C933 0.931 . S
H920 C935 0.930 . S
C921 H909 0.930 . S
C921 C922 1.399 . S
C921 C926 1.399 . S
C922 C921 1.399 . S
C922 C923 1.376 . S
C923 H910 0.930 . S
C923 C922 1.376 . S
C923 C924 1.388 . S
C924 H911 0.930 . S
C924 C923 1.388 . S
C924 C925 1.390 . S
C925 C924 1.390 . S
C925 C926 1.394 . S
C925 C931 1.465 . S
C926 C921 1.399 . S
C926 C925 1.394 . S
C926 C927 1.516 . S
C927 C926 1.516 . S
C927 C928 1.502 . S
C927 C929 1.561 . S
C927 C930 1.526 . S
C928 H912 0.959 . S
C928 H913 0.959 . S
C928 H914 0.961 . S
C928 C927 1.502 . S
C929 H915 0.960 . S
C929 H916 0.961 . S
C929 H917 0.959 . S
C929 C927 1.561 . S
C930 C927 1.526 . S
C930 C931 1.396 . S
C930 C935 1.390 . S
C931 C925 1.465 . S
C931 C930 1.396 . S
C931 C932 1.399 . S
C932 H918 0.929 . S
C932 C931 1.399 . S
C932 C933 1.385 . S
C933 H919 0.931 . S
C933 C932 1.385 . S
C933 C934 1.389 . S
C934 C933 1.389 . S
C934 C935 1.387 . S
C935 H920 0.930 . S
C935 C930 1.390 . S
C935 C934 1.387 . S
H936 C948 0.930 . S
H937 C950 0.930 . S
H938 C951 0.930 . S
H939 C955 0.959 . S
H940 C955 0.959 . S
H941 C955 0.961 1_545 S
H942 C956 0.960 1_545 S
H943 C956 0.961 . S
H944 C956 0.959 . S
H945 C959 0.929 . S
H946 C960 0.931 . S
H947 C962 0.930 . S
C948 H936 0.930 . S
C948 C949 1.399 . S
C948 C953 1.399 . S
C949 C948 1.399 . S
C949 C950 1.376 . S
C950 H937 0.930 . S
C950 C949 1.376 . S
C950 C951 1.388 . S
C951 H938 0.930 . S
C951 C950 1.388 . S
C951 C952 1.390 . S
C952 C951 1.390 . S
C952 C953 1.394 . S
C952 C958 1.465 1_545 S
C953 C948 1.399 . S
C953 C952 1.394 . S
C953 C954 1.516 1_545 S
C954 C953 1.516 1_565 S
C954 C955 1.502 . S
C954 C956 1.561 . S
C954 C957 1.526 . S
C955 H939 0.959 . S
C955 H940 0.959 . S
C955 H941 0.961 1_565 S
C955 C954 1.502 . S
C956 H942 0.960 1_565 S
C956 H943 0.961 . S
C956 H944 0.959 . S
C956 C954 1.561 . S
C957 C954 1.526 . S
C957 C958 1.396 . S
C957 C962 1.390 . S
C958 C952 1.465 1_565 S
C958 C957 1.396 . S
C958 C959 1.399 . S
C959 H945 0.929 . S
C959 C958 1.399 . S
C959 C960 1.385 . S
C960 H946 0.931 . S
C960 C959 1.385 . S
C960 C961 1.389 . S
C961 C960 1.389 . S
C961 C962 1.387 . S
C962 H947 0.930 . S
C962 C957 1.390 . S
C962 C961 1.387 . S
H963 C975 0.930 . S
H964 C977 0.930 . S
H965 C978 0.930 . S
H966 C982 0.959 . S
H967 C982 0.959 . S
H968 C982 0.961 . S
H969 C983 0.960 . S
H970 C983 0.961 . S
H971 C983 0.959 . S
H972 C986 0.929 . S
H973 C987 0.931 . S
H974 C989 0.930 . S
C975 H963 0.930 . S
C975 C976 1.399 . S
C975 C980 1.399 . S
C976 C975 1.399 . S
C976 C977 1.376 . S
C977 H964 0.930 . S
C977 C976 1.376 . S
C977 C978 1.388 . S
C978 H965 0.930 . S
C978 C977 1.388 . S
C978 C979 1.390 . S
C979 C978 1.390 . S
C979 C980 1.394 . S
C979 C985 1.465 . S
C980 C975 1.399 . S
C980 C979 1.394 . S
C980 C981 1.516 . S
C981 C980 1.516 . S
C981 C982 1.502 . S
C981 C983 1.561 . S
C981 C984 1.526 . S
C982 H966 0.959 . S
C982 H967 0.959 . S
C982 H968 0.961 . S
C982 C981 1.502 . S
C983 H969 0.960 . S
C983 H970 0.961 . S
C983 H971 0.959 . S
C983 C981 1.561 . S
C984 C981 1.526 . S
C984 C985 1.396 . S
C984 C989 1.390 . S
C985 C979 1.465 . S
C985 C984 1.396 . S
C985 C986 1.399 . S
C986 H972 0.929 . S
C986 C985 1.399 . S
C986 C987 1.385 . S
C987 H973 0.931 . S
C987 C986 1.385 . S
C987 C988 1.389 . S
C988 C987 1.389 . S
C988 C989 1.387 . S
C989 H974 0.930 . S
C989 C984 1.390 . S
C989 C988 1.387 . S
H990 C1002 0.930 . S
H991 C1004 0.930 . S
H992 C1005 0.930 . S
H993 C1009 0.959 . S
H994 C1009 0.959 . S
H995 C1009 0.961 . S
H996 C1010 0.960 . S
H997 C1010 0.961 . S
H998 C1010 0.959 . S
H999 C1013 0.929 . S
H1000 C1014 0.931 . S
H1001 C1016 0.930 . S
C1002 H990 0.930 . S
C1002 C1003 1.399 . S
C1002 C1007 1.399 . S
C1003 C1002 1.399 . S
C1003 C1004 1.376 . S
C1004 H991 0.930 . S
C1004 C1003 1.376 . S
C1004 C1005 1.388 . S
C1005 H992 0.930 . S
C1005 C1004 1.388 . S
C1005 C1006 1.390 . S
C1006 C1005 1.390 . S
C1006 C1007 1.394 . S
C1006 C1012 1.465 . S
C1007 C1002 1.399 . S
C1007 C1006 1.394 . S
C1007 C1008 1.516 . S
C1008 C1007 1.516 . S
C1008 C1009 1.502 . S
C1008 C1010 1.561 . S
C1008 C1011 1.526 . S
C1009 H993 0.959 . S
C1009 H994 0.959 . S
C1009 H995 0.961 . S
C1009 C1008 1.502 . S
C1010 H996 0.960 . S
C1010 H997 0.961 . S
C1010 H998 0.959 . S
C1010 C1008 1.561 . S
C1011 C1008 1.526 . S
C1011 C1012 1.396 . S
C1011 C1016 1.390 . S
C1012 C1006 1.465 . S
C1012 C1011 1.396 . S
C1012 C1013 1.399 . S
C1013 H999 0.929 . S
C1013 C1012 1.399 . S
C1013 C1014 1.385 . S
C1014 H1000 0.931 . S
C1014 C1013 1.385 . S
C1014 C1015 1.389 . S
C1015 C1014 1.389 . S
C1015 C1016 1.387 . S
C1016 H1001 0.930 . S
C1016 C1011 1.390 . S
C1016 C1015 1.387 . S
H1017 C1029 0.930 . S
H1018 C1031 0.930 . S
H1019 C1032 0.930 . S
H1020 C1036 0.959 . S
H1021 C1036 0.959 . S
H1022 C1036 0.961 . S
H1023 C1037 0.960 . S
H1024 C1037 0.961 . S
H1025 C1037 0.959 . S
H1026 C1040 0.929 . S
H1027 C1041 0.931 . S
H1028 C1043 0.930 . S
C1029 H1017 0.930 . S
C1029 C1030 1.399 . S
C1029 C1034 1.399 . S
C1030 C1029 1.399 . S
C1030 C1031 1.376 . S
C1031 H1018 0.930 . S
C1031 C1030 1.376 . S
C1031 C1032 1.388 . S
C1032 H1019 0.930 . S
C1032 C1031 1.388 . S
C1032 C1033 1.390 . S
C1033 C1032 1.390 . S
C1033 C1034 1.394 . S
C1033 C1039 1.465 . S
C1034 C1029 1.399 . S
C1034 C1033 1.394 . S
C1034 C1035 1.516 . S
C1035 C1034 1.516 . S
C1035 C1036 1.502 . S
C1035 C1037 1.561 . S
C1035 C1038 1.526 . S
C1036 H1020 0.959 . S
C1036 H1021 0.959 . S
C1036 H1022 0.961 . S
C1036 C1035 1.502 . S
C1037 H1023 0.960 . S
C1037 H1024 0.961 . S
C1037 H1025 0.959 . S
C1037 C1035 1.561 . S
C1038 C1035 1.526 . S
C1038 C1039 1.396 . S
C1038 C1043 1.390 . S
C1039 C1033 1.465 . S
C1039 C1038 1.396 . S
C1039 C1040 1.399 . S
C1040 H1026 0.929 . S
C1040 C1039 1.399 . S
C1040 C1041 1.385 . S
C1041 H1027 0.931 . S
C1041 C1040 1.385 . S
C1041 C1042 1.389 . S
C1042 C1041 1.389 . S
C1042 C1043 1.387 . S
C1043 H1028 0.930 . S
C1043 C1038 1.390 . S
C1043 C1042 1.387 . S
H1044 C1056 0.930 . S
H1045 C1058 0.930 . S
H1046 C1059 0.930 . S
H1047 C1063 0.959 . S
H1048 C1063 0.959 . S
H1049 C1063 0.961 . S
H1050 C1064 0.960 . S
H1051 C1064 0.961 . S
H1052 C1064 0.959 . S
H1053 C1067 0.929 . S
H1054 C1068 0.931 . S
H1055 C1070 0.930 . S
C1056 H1044 0.930 . S
C1056 C1057 1.399 . S
C1056 C1061 1.399 . S
C1057 C1056 1.399 . S
C1057 C1058 1.376 . S
C1058 H1045 0.930 . S
C1058 C1057 1.376 . S
C1058 C1059 1.388 . S
C1059 H1046 0.930 . S
C1059 C1058 1.388 . S
C1059 C1060 1.390 . S
C1060 C1059 1.390 . S
C1060 C1061 1.394 . S
C1060 C1066 1.465 . S
C1061 C1056 1.399 . S
C1061 C1060 1.394 . S
C1061 C1062 1.516 . S
C1062 C1061 1.516 . S
C1062 C1063 1.502 . S
C1062 C1064 1.561 . S
C1062 C1065 1.526 . S
C1063 H1047 0.959 . S
C1063 H1048 0.959 . S
C1063 H1049 0.961 . S
C1063 C1062 1.502 . S
C1064 H1050 0.960 . S
C1064 H1051 0.961 . S
C1064 H1052 0.959 . S
C1064 C1062 1.561 . S
C1065 C1062 1.526 . S
C1065 C1066 1.396 . S
C1065 C1070 1.390 . S
C1066 C1060 1.465 . S
C1066 C1065 1.396 . S
C1066 C1067 1.399 . S
C1067 H1053 0.929 . S
C1067 C1066 1.399 . S
C1067 C1068 1.385 . S
C1068 H1054 0.931 . S
C1068 C1067 1.385 . S
C1068 C1069 1.389 . S
C1069 C1068 1.389 . S
C1069 C1070 1.387 . S
C1070 H1055 0.930 . S
C1070 C1065 1.390 . S
C1070 C1069 1.387 . S
H1071 C1083 0.930 . S
H1072 C1085 0.930 . S
H1073 C1086 0.930 . S
H1074 C1090 0.959 . S
H1075 C1090 0.959 . S
H1076 C1090 0.961 . S
H1077 C1091 0.960 . S
H1078 C1091 0.961 . S
H1079 C1091 0.959 . S
H1080 C1094 0.929 . S
H1081 C1095 0.931 . S
H1082 C1097 0.930 . S
C1083 H1071 0.930 . S
C1083 C1084 1.399 . S
C1083 C1088 1.399 . S
C1084 C1083 1.399 . S
C1084 C1085 1.376 . S
C1085 H1072 0.930 . S
C1085 C1084 1.376 . S
C1085 C1086 1.388 . S
C1086 H1073 0.930 . S
C1086 C1085 1.388 . S
C1086 C1087 1.390 . S
C1087 C1086 1.390 . S
C1087 C1088 1.394 . S
C1087 C1093 1.465 . S
C1088 C1083 1.399 . S
C1088 C1087 1.394 . S
C1088 C1089 1.516 . S
C1089 C1088 1.516 . S
C1089 C1090 1.502 . S
C1089 C1091 1.561 . S
C1089 C1092 1.526 . S
C1090 H1074 0.959 . S
C1090 H1075 0.959 . S
C1090 H1076 0.961 . S
C1090 C1089 1.502 . S
C1091 H1077 0.960 . S
C1091 H1078 0.961 . S
C1091 H1079 0.959 . S
C1091 C1089 1.561 . S
C1092 C1089 1.526 . S
C1092 C1093 1.396 . S
C1092 C1097 1.390 . S
C1093 C1087 1.465 . S
C1093 C1092 1.396 . S
C1093 C1094 1.399 . S
C1094 H1080 0.929 . S
C1094 C1093 1.399 . S
C1094 C1095 1.385 . S
C1095 H1081 0.931 . S
C1095 C1094 1.385 . S
C1095 C1096 1.389 . S
C1096 C1095 1.389 . S
C1096 C1097 1.387 . S
C1097 H1082 0.930 . S
C1097 C1092 1.390 . S
C1097 C1096 1.387 . S
H1098 C1110 0.930 . S
H1099 C1112 0.930 . S
H1100 C1113 0.930 . S
H1101 C1117 0.959 . S
H1102 C1117 0.959 . S
H1103 C1117 0.961 . S
H1104 C1118 0.960 . S
H1105 C1118 0.961 . S
H1106 C1118 0.959 . S
H1107 C1121 0.929 . S
H1108 C1122 0.931 . S
H1109 C1124 0.930 . S
C1110 H1098 0.930 . S
C1110 C1111 1.399 . S
C1110 C1115 1.399 . S
C1111 C1110 1.399 . S
C1111 C1112 1.376 . S
C1112 H1099 0.930 . S
C1112 C1111 1.376 . S
C1112 C1113 1.388 . S
C1113 H1100 0.930 . S
C1113 C1112 1.388 . S
C1113 C1114 1.390 . S
C1114 C1113 1.390 . S
C1114 C1115 1.394 . S
C1114 C1120 1.465 . S
C1115 C1110 1.399 . S
C1115 C1114 1.394 . S
C1115 C1116 1.516 . S
C1116 C1115 1.516 . S
C1116 C1117 1.502 . S
C1116 C1118 1.561 . S
C1116 C1119 1.526 . S
C1117 H1101 0.959 . S
C1117 H1102 0.959 . S
C1117 H1103 0.961 . S
C1117 C1116 1.502 . S
C1118 H1104 0.960 . S
C1118 H1105 0.961 . S
C1118 H1106 0.959 . S
C1118 C1116 1.561 . S
C1119 C1116 1.526 . S
C1119 C1120 1.396 . S
C1119 C1124 1.390 . S
C1120 C1114 1.465 . S
C1120 C1119 1.396 . S
C1120 C1121 1.399 . S
C1121 H1107 0.929 . S
C1121 C1120 1.399 . S
C1121 C1122 1.385 . S
C1122 H1108 0.931 . S
C1122 C1121 1.385 . S
C1122 C1123 1.389 . S
C1123 C1122 1.389 . S
C1123 C1124 1.387 . S
C1124 H1109 0.930 . S
C1124 C1119 1.390 . S
C1124 C1123 1.387 . S
H1125 C1137 0.930 . S
H1126 C1139 0.930 . S
H1127 C1140 0.930 . S
H1128 C1144 0.959 . S
H1129 C1144 0.959 . S
H1130 C1144 0.961 . S
H1131 C1145 0.960 . S
H1132 C1145 0.961 . S
H1133 C1145 0.959 . S
H1134 C1148 0.929 . S
H1135 C1149 0.931 . S
H1136 C1151 0.930 . S
C1137 H1125 0.930 . S
C1137 C1138 1.399 . S
C1137 C1142 1.406 . S
C1138 C1137 1.399 . S
C1138 C1139 1.376 . S
C1139 H1126 0.930 . S
C1139 C1138 1.376 . S
C1139 C1140 1.388 . S
C1140 H1127 0.930 . S
C1140 C1139 1.388 . S
C1140 C1141 1.390 1_545 S
C1141 C1140 1.390 1_565 S
C1141 C1142 1.390 1_565 S
C1141 C1147 1.465 . S
C1142 C1137 1.406 . S
C1142 C1141 1.390 1_545 S
C1142 C1143 1.512 1_545 S
C1143 C1142 1.512 1_565 S
C1143 C1144 1.502 . S
C1143 C1145 1.561 . S
C1143 C1146 1.526 . S
C1144 H1128 0.959 . S
C1144 H1129 0.959 . S
C1144 H1130 0.961 . S
C1144 C1143 1.502 . S
C1145 H1131 0.960 . S
C1145 H1132 0.961 . S
C1145 H1133 0.959 . S
C1145 C1143 1.561 . S
C1146 C1143 1.526 . S
C1146 C1147 1.396 . S
C1146 C1151 1.390 . S
C1147 C1141 1.465 . S
C1147 C1146 1.396 . S
C1147 C1148 1.399 . S
C1148 H1134 0.929 . S
C1148 C1147 1.399 . S
C1148 C1149 1.385 . S
C1149 H1135 0.931 . S
C1149 C1148 1.385 . S
C1149 C1150 1.389 . S
C1150 C1149 1.389 . S
C1150 C1151 1.387 . S
C1151 H1136 0.930 . S
C1151 C1146 1.390 . S
C1151 C1150 1.387 . S
H1152 C1164 0.930 . S
H1153 C1166 0.930 . S
H1154 C1167 0.930 . S
H1155 C1171 0.959 . S
H1156 C1171 0.959 . S
H1157 C1171 0.961 . S
H1158 C1172 0.960 1_655 S
H1159 C1172 0.961 . S
H1160 C1172 0.959 . S
H1161 C1175 0.929 . S
H1162 C1176 0.931 . S
H1163 C1178 0.930 . S
C1164 H1152 0.930 . S
C1164 C1165 1.399 . S
C1164 C1169 1.399 1_655 S
C1165 C1164 1.399 . S
C1165 C1166 1.376 . S
C1166 H1153 0.930 . S
C1166 C1165 1.376 . S
C1166 C1167 1.388 1_655 S
C1167 H1154 0.930 . S
C1167 C1166 1.388 1_455 S
C1167 C1168 1.390 . S
C1168 C1167 1.390 . S
C1168 C1169 1.394 . S
C1168 C1174 1.465 . S
C1169 C1164 1.399 1_455 S
C1169 C1168 1.394 . S
C1169 C1170 1.516 . S
C1170 C1169 1.516 . S
C1170 C1171 1.502 . S
C1170 C1172 1.561 . S
C1170 C1173 1.526 . S
C1171 H1155 0.959 . S
C1171 H1156 0.959 . S
C1171 H1157 0.961 . S
C1171 C1170 1.502 . S
C1172 H1158 0.960 1_455 S
C1172 H1159 0.961 . S
C1172 H1160 0.959 . S
C1172 C1170 1.561 . S
C1173 C1170 1.526 . S
C1173 C1174 1.396 . S
C1173 C1178 1.390 . S
C1174 C1168 1.465 . S
C1174 C1173 1.396 . S
C1174 C1175 1.399 . S
C1175 H1161 0.929 . S
C1175 C1174 1.399 . S
C1175 C1176 1.385 . S
C1176 H1162 0.931 . S
C1176 C1175 1.385 . S
C1176 C1177 1.389 . S
C1177 C1176 1.389 . S
C1177 C1178 1.387 . S
C1178 H1163 0.930 . S
C1178 C1173 1.390 . S
C1178 C1177 1.387 . S
H1179 C1191 0.930 . S
H1180 C1193 0.930 . S
H1181 C1194 0.930 . S
H1182 C1198 0.959 . S
H1183 C1198 0.959 . S
H1184 C1198 0.961 . S
H1185 C1199 0.960 . S
H1186 C1199 0.961 . S
H1187 C1199 0.959 . S
H1188 C1202 0.929 . S
H1189 C1203 0.931 . S
H1190 C1205 0.930 . S
C1191 H1179 0.930 . S
C1191 C1192 1.399 . S
C1191 C1196 1.399 . S
C1192 C1191 1.399 . S
C1192 C1193 1.376 . S
C1193 H1180 0.930 . S
C1193 C1192 1.376 . S
C1193 C1194 1.388 . S
C1194 H1181 0.930 . S
C1194 C1193 1.388 . S
C1194 C1195 1.390 . S
C1195 C1194 1.390 . S
C1195 C1196 1.394 . S
C1195 C1201 1.465 . S
C1196 C1191 1.399 . S
C1196 C1195 1.394 . S
C1196 C1197 1.516 . S
C1197 C1196 1.516 . S
C1197 C1198 1.502 . S
C1197 C1199 1.561 . S
C1197 C1200 1.526 . S
C1198 H1182 0.959 . S
C1198 H1183 0.959 . S
C1198 H1184 0.961 . S
C1198 C1197 1.502 . S
C1199 H1185 0.960 . S
C1199 H1186 0.961 . S
C1199 H1187 0.959 . S
C1199 C1197 1.561 . S
C1200 C1197 1.526 . S
C1200 C1201 1.396 . S
C1200 C1205 1.390 . S
C1201 C1195 1.465 . S
C1201 C1200 1.396 . S
C1201 C1202 1.399 . S
C1202 H1188 0.929 . S
C1202 C1201 1.399 . S
C1202 C1203 1.385 . S
C1203 H1189 0.931 . S
C1203 C1202 1.385 . S
C1203 C1204 1.389 . S
C1204 C1203 1.389 . S
C1204 C1205 1.387 . S
C1205 H1190 0.930 . S
C1205 C1200 1.390 . S
C1205 C1204 1.387 . S
H1206 C1218 0.930 . S
H1207 C1220 0.930 . S
H1208 C1221 0.930 . S
H1209 C1225 0.959 . S
H1210 C1225 0.959 . S
H1211 C1225 0.961 . S
H1212 C1226 0.960 . S
H1213 C1226 0.961 . S
H1214 C1226 0.959 . S
H1215 C1229 0.929 . S
H1216 C1230 0.931 . S
H1217 C1232 0.930 . S
C1218 H1206 0.930 . S
C1218 C1219 1.399 . S
C1218 C1223 1.399 . S
C1219 C1218 1.399 . S
C1219 C1220 1.376 . S
C1220 H1207 0.930 . S
C1220 C1219 1.376 . S
C1220 C1221 1.388 . S
C1221 H1208 0.930 . S
C1221 C1220 1.388 . S
C1221 C1222 1.390 . S
C1222 C1221 1.390 . S
C1222 C1223 1.394 . S
C1222 C1228 1.465 . S
C1223 C1218 1.399 . S
C1223 C1222 1.394 . S
C1223 C1224 1.516 . S
C1224 C1223 1.516 . S
C1224 C1225 1.502 . S
C1224 C1226 1.561 . S
C1224 C1227 1.526 . S
C1225 H1209 0.959 . S
C1225 H1210 0.959 . S
C1225 H1211 0.961 . S
C1225 C1224 1.502 . S
C1226 H1212 0.960 . S
C1226 H1213 0.961 . S
C1226 H1214 0.959 . S
C1226 C1224 1.561 . S
C1227 C1224 1.526 . S
C1227 C1228 1.396 . S
C1227 C1232 1.390 . S
C1228 C1222 1.465 . S
C1228 C1227 1.396 . S
C1228 C1229 1.399 . S
C1229 H1215 0.929 . S
C1229 C1228 1.399 . S
C1229 C1230 1.385 . S
C1230 H1216 0.931 . S
C1230 C1229 1.385 . S
C1230 C1231 1.389 . S
C1231 C1230 1.389 . S
C1231 C1232 1.387 . S
C1232 H1217 0.930 . S
C1232 C1227 1.390 . S
C1232 C1231 1.387 . S
H1233 C1245 0.930 . S
H1234 C1247 0.930 . S
H1235 C1248 0.930 . S
H1236 C1252 0.959 . S
H1237 C1252 0.959 . S
H1238 C1252 0.961 . S
H1239 C1253 0.960 . S
H1240 C1253 0.961 . S
H1241 C1253 0.959 . S
H1242 C1256 0.929 . S
H1243 C1257 0.931 . S
H1244 C1259 0.930 . S
C1245 H1233 0.930 . S
C1245 C1246 1.399 . S
C1245 C1250 1.399 . S
C1246 C1245 1.399 . S
C1246 C1247 1.376 . S
C1247 H1234 0.930 . S
C1247 C1246 1.376 . S
C1247 C1248 1.388 . S
C1248 H1235 0.930 . S
C1248 C1247 1.388 . S
C1248 C1249 1.390 . S
C1249 C1248 1.390 . S
C1249 C1250 1.394 . S
C1249 C1255 1.465 . S
C1250 C1245 1.399 . S
C1250 C1249 1.394 . S
C1250 C1251 1.516 . S
C1251 C1250 1.516 . S
C1251 C1252 1.502 . S
C1251 C1253 1.561 . S
C1251 C1254 1.526 . S
C1252 H1236 0.959 . S
C1252 H1237 0.959 . S
C1252 H1238 0.961 . S
C1252 C1251 1.502 . S
C1253 H1239 0.960 . S
C1253 H1240 0.961 . S
C1253 H1241 0.959 . S
C1253 C1251 1.561 . S
C1254 C1251 1.526 . S
C1254 C1255 1.396 . S
C1254 C1259 1.390 . S
C1255 C1249 1.465 . S
C1255 C1254 1.396 . S
C1255 C1256 1.399 . S
C1256 H1242 0.929 . S
C1256 C1255 1.399 . S
C1256 C1257 1.385 . S
C1257 H1243 0.931 . S
C1257 C1256 1.385 . S
C1257 C1258 1.389 . S
C1258 C1257 1.389 . S
C1258 C1259 1.387 . S
C1259 H1244 0.930 . S
C1259 C1254 1.390 . S
C1259 C1258 1.387 . S
H1260 C1272 0.930 . S
H1261 C1274 0.930 . S
H1262 C1275 0.930 . S
H1263 C1279 0.959 . S
H1264 C1279 0.959 . S
H1265 C1279 0.961 . S
H1266 C1280 0.960 . S
H1267 C1280 0.961 . S
H1268 C1280 0.959 . S
H1269 C1283 0.929 . S
H1270 C1284 0.931 . S
H1271 C1286 0.930 . S
C1272 H1260 0.930 . S
C1272 C1273 1.399 . S
C1272 C1277 1.399 . S
C1273 C1272 1.399 . S
C1273 C1274 1.376 . S
C1274 H1261 0.930 . S
C1274 C1273 1.376 . S
C1274 C1275 1.388 . S
C1275 H1262 0.930 . S
C1275 C1274 1.388 . S
C1275 C1276 1.390 . S
C1276 C1275 1.390 . S
C1276 C1277 1.394 . S
C1276 C1282 1.465 . S
C1277 C1272 1.399 . S
C1277 C1276 1.394 . S
C1277 C1278 1.516 . S
C1278 C1277 1.516 . S
C1278 C1279 1.502 . S
C1278 C1280 1.561 . S
C1278 C1281 1.526 . S
C1279 H1263 0.959 . S
C1279 H1264 0.959 . S
C1279 H1265 0.961 . S
C1279 C1278 1.502 . S
C1280 H1266 0.960 . S
C1280 H1267 0.961 . S
C1280 H1268 0.959 . S
C1280 C1278 1.561 . S
C1281 C1278 1.526 . S
C1281 C1282 1.396 . S
C1281 C1286 1.390 . S
C1282 C1276 1.465 . S
C1282 C1281 1.396 . S
C1282 C1283 1.399 . S
C1283 H1269 0.929 . S
C1283 C1282 1.399 . S
C1283 C1284 1.385 . S
C1284 H1270 0.931 . S
C1284 C1283 1.385 . S
C1284 C1285 1.389 . S
C1285 C1284 1.389 . S
C1285 C1286 1.387 . S
C1286 H1271 0.930 . S
C1286 C1281 1.390 . S
C1286 C1285 1.387 . S
H1287 C1299 0.930 . S
H1288 C1301 0.930 . S
H1289 C1302 0.930 . S
H1290 C1306 0.959 . S
H1291 C1306 0.959 . S
H1292 C1306 0.932 1_565 S
H1293 C1307 0.960 . S
H1294 C1307 0.961 . S
H1295 C1307 0.959 . S
H1296 C1310 0.929 . S
H1297 C1311 0.931 . S
H1298 C1313 0.930 . S
C1299 H1287 0.930 . S
C1299 C1300 1.399 . S
C1299 C1304 1.399 . S
C1300 C1299 1.399 . S
C1300 C1301 1.376 . S
C1301 H1288 0.930 . S
C1301 C1300 1.376 . S
C1301 C1302 1.388 . S
C1302 H1289 0.930 . S
C1302 C1301 1.388 . S
C1302 C1303 1.390 1_565 S
C1303 C1302 1.390 1_545 S
C1303 C1304 1.394 1_545 S
C1303 C1309 1.465 . S
C1304 C1299 1.399 . S
C1304 C1303 1.394 1_565 S
C1304 C1305 1.516 1_565 S
C1305 C1304 1.516 1_545 S
C1305 C1306 1.502 . S
C1305 C1307 1.561 . S
C1305 C1308 1.526 . S
C1306 H1290 0.959 . S
C1306 H1291 0.959 . S
C1306 H1292 0.932 1_545 S
C1306 C1305 1.502 . S
C1307 H1293 0.960 . S
C1307 H1294 0.961 . S
C1307 H1295 0.959 . S
C1307 C1305 1.561 . S
C1308 C1305 1.526 . S
C1308 C1309 1.396 . S
C1308 C1313 1.390 . S
C1309 C1303 1.465 . S
C1309 C1308 1.396 . S
C1309 C1310 1.399 . S
C1310 H1296 0.929 . S
C1310 C1309 1.399 . S
C1310 C1311 1.385 . S
C1311 H1297 0.931 . S
C1311 C1310 1.385 . S
C1311 C1312 1.389 . S
C1312 C1311 1.389 . S
C1312 C1313 1.387 . S
C1313 H1298 0.930 . S
C1313 C1308 1.390 . S
C1313 C1312 1.387 . S
H1314 C1326 0.930 . S
H1315 C1328 0.930 . S
H1316 C1329 0.930 . S
H1317 C1333 0.959 . S
H1318 C1333 0.959 . S
H1319 C1333 0.961 . S
H1320 C1334 0.960 . S
H1321 C1334 0.961 . S
H1322 C1334 0.959 . S
H1323 C1337 0.929 . S
H1324 C1338 0.931 . S
H1325 C1340 0.930 . S
C1326 H1314 0.930 . S
C1326 C1327 1.399 . S
C1326 C1331 1.399 1_455 S
C1327 C1326 1.399 . S
C1327 C1328 1.376 . S
C1328 H1315 0.930 . S
C1328 C1327 1.376 . S
C1328 C1329 1.388 . S
C1329 H1316 0.930 . S
C1329 C1328 1.388 . S
C1329 C1330 1.390 1_455 S
C1330 C1329 1.390 1_655 S
C1330 C1331 1.394 . S
C1330 C1336 1.465 . S
C1331 C1326 1.399 1_655 S
C1331 C1330 1.394 . S
C1331 C1332 1.516 . S
C1332 C1331 1.516 . S
C1332 C1333 1.502 . S
C1332 C1334 1.561 . S
C1332 C1335 1.526 . S
C1333 H1317 0.959 . S
C1333 H1318 0.959 . S
C1333 H1319 0.961 . S
C1333 C1332 1.502 . S
C1334 H1320 0.960 . S
C1334 H1321 0.961 . S
C1334 H1322 0.959 . S
C1334 C1332 1.561 . S
C1335 C1332 1.526 . S
C1335 C1336 1.396 . S
C1335 C1340 1.390 . S
C1336 C1330 1.465 . S
C1336 C1335 1.396 . S
C1336 C1337 1.399 . S
C1337 H1323 0.929 . S
C1337 C1336 1.399 . S
C1337 C1338 1.385 . S
C1338 H1324 0.931 . S
C1338 C1337 1.385 . S
C1338 C1339 1.389 . S
C1339 C1338 1.389 . S
C1339 C1340 1.387 . S
C1340 H1325 0.930 . S
C1340 C1335 1.390 . S
C1340 C1339 1.387 . S
H1341 C1353 0.930 . S
H1342 C1355 0.930 . S
H1343 C1356 0.930 . S
H1344 C1360 0.959 . S
H1345 C1360 0.959 . S
H1346 C1360 0.961 . S
H1347 C1361 0.960 . S
H1348 C1361 0.961 . S
H1349 C1361 0.959 . S
H1350 C1364 0.929 . S
H1351 C1365 0.931 . S
H1352 C1367 0.930 . S
C1353 H1341 0.930 . S
C1353 C1354 1.399 . S
C1353 C1358 1.399 . S
C1354 C1353 1.399 . S
C1354 C1355 1.376 . S
C1355 H1342 0.930 . S
C1355 C1354 1.376 . S
C1355 C1356 1.388 . S
C1356 H1343 0.930 . S
C1356 C1355 1.388 . S
C1356 C1357 1.390 . S
C1357 C1356 1.390 . S
C1357 C1358 1.394 . S
C1357 C1363 1.465 . S
C1358 C1353 1.399 . S
C1358 C1357 1.394 . S
C1358 C1359 1.516 . S
C1359 C1358 1.516 . S
C1359 C1360 1.502 . S
C1359 C1361 1.561 . S
C1359 C1362 1.526 . S
C1360 H1344 0.959 . S
C1360 H1345 0.959 . S
C1360 H1346 0.961 . S
C1360 C1359 1.502 . S
C1361 H1347 0.960 . S
C1361 H1348 0.961 . S
C1361 H1349 0.959 . S
C1361 C1359 1.561 . S
C1362 C1359 1.526 . S
C1362 C1363 1.396 . S
C1362 C1367 1.390 . S
C1363 C1357 1.465 . S
C1363 C1362 1.396 . S
C1363 C1364 1.399 . S
C1364 H1350 0.929 . S
C1364 C1363 1.399 . S
C1364 C1365 1.385 . S
C1365 H1351 0.931 . S
C1365 C1364 1.385 . S
C1365 C1366 1.389 . S
C1366 C1365 1.389 . S
C1366 C1367 1.387 . S
C1367 H1352 0.930 . S
C1367 C1362 1.390 . S
C1367 C1366 1.387 . S
H1368 C1380 0.930 . S
H1369 C1382 0.930 . S
H1370 C1383 0.930 . S
H1371 C1387 0.959 . S
H1372 C1387 0.959 . S
H1373 C1387 0.961 . S
H1374 C1388 0.960 . S
H1375 C1388 0.961 . S
H1376 C1388 0.959 . S
H1377 C1391 0.929 . S
H1378 C1392 0.931 . S
H1379 C1394 0.930 . S
C1380 H1368 0.930 . S
C1380 C1381 1.399 . S
C1380 C1385 1.399 1_455 S
C1381 C1380 1.399 . S
C1381 C1382 1.376 . S
C1382 H1369 0.930 . S
C1382 C1381 1.376 . S
C1382 C1383 1.388 1_455 S
C1383 H1370 0.930 . S
C1383 C1382 1.388 1_655 S
C1383 C1384 1.390 . S
C1384 C1383 1.390 . S
C1384 C1385 1.394 . S
C1384 C1390 1.465 . S
C1385 C1380 1.399 1_655 S
C1385 C1384 1.394 . S
C1385 C1386 1.516 . S
C1386 C1385 1.516 . S
C1386 C1387 1.502 . S
C1386 C1388 1.561 . S
C1386 C1389 1.526 . S
C1387 H1371 0.959 . S
C1387 H1372 0.959 . S
C1387 H1373 0.961 . S
C1387 C1386 1.502 . S
C1388 H1374 0.960 . S
C1388 H1375 0.961 . S
C1388 H1376 0.959 . S
C1388 C1386 1.561 . S
C1389 C1386 1.526 . S
C1389 C1390 1.396 . S
C1389 C1394 1.390 . S
C1390 C1384 1.465 . S
C1390 C1389 1.396 . S
C1390 C1391 1.399 . S
C1391 H1377 0.929 . S
C1391 C1390 1.399 . S
C1391 C1392 1.385 . S
C1392 H1378 0.931 . S
C1392 C1391 1.385 . S
C1392 C1393 1.389 . S
C1393 C1392 1.389 . S
C1393 C1394 1.387 . S
C1394 H1379 0.930 . S
C1394 C1389 1.390 . S
C1394 C1393 1.387 . S
H1395 C1407 0.930 . S
H1396 C1409 0.930 . S
H1397 C1410 0.930 . S
H1398 C1414 0.959 . S
H1399 C1414 0.959 . S
H1400 C1414 0.961 . S
H1401 C1415 0.960 . S
H1402 C1415 0.961 . S
H1403 C1415 0.959 . S
H1404 C1418 0.929 . S
H1405 C1419 0.931 . S
H1406 C1421 0.930 . S
C1407 H1395 0.930 . S
C1407 C1408 1.399 . S
C1407 C1412 1.399 . S
C1408 C1407 1.399 . S
C1408 C1409 1.376 . S
C1409 H1396 0.930 . S
C1409 C1408 1.376 . S
C1409 C1410 1.388 . S
C1410 H1397 0.930 . S
C1410 C1409 1.388 . S
C1410 C1411 1.390 . S
C1411 C1410 1.390 . S
C1411 C1412 1.394 . S
C1411 C1417 1.465 . S
C1412 C1407 1.399 . S
C1412 C1411 1.394 . S
C1412 C1413 1.516 . S
C1413 C1412 1.516 . S
C1413 C1414 1.502 . S
C1413 C1415 1.561 . S
C1413 C1416 1.526 . S
C1414 H1398 0.959 . S
C1414 H1399 0.959 . S
C1414 H1400 0.961 . S
C1414 C1413 1.502 . S
C1415 H1401 0.960 . S
C1415 H1402 0.961 . S
C1415 H1403 0.959 . S
C1415 C1413 1.561 . S
C1416 C1413 1.526 . S
C1416 C1417 1.396 . S
C1416 C1421 1.390 . S
C1417 C1411 1.465 . S
C1417 C1416 1.396 . S
C1417 C1418 1.399 . S
C1418 H1404 0.929 . S
C1418 C1417 1.399 . S
C1418 C1419 1.385 . S
C1419 H1405 0.931 . S
C1419 C1418 1.385 . S
C1419 C1420 1.389 . S
C1420 C1419 1.389 . S
C1420 C1421 1.387 . S
C1421 H1406 0.930 . S
C1421 C1416 1.390 . S
C1421 C1420 1.387 . S
H1422 C1434 0.930 . S
H1423 C1436 0.930 . S
H1424 C1437 0.930 . S
H1425 C1441 0.959 . S
H1426 C1441 0.959 . S
H1427 C1441 0.961 . S
H1428 C1442 0.960 . S
H1429 C1442 0.961 . S
H1430 C1442 0.959 . S
H1431 C1445 0.929 . S
H1432 C1446 0.931 . S
H1433 C1448 0.930 . S
C1434 H1422 0.930 . S
C1434 C1435 1.399 . S
C1434 C1439 1.378 1_565 S
C1435 C1434 1.399 . S
C1435 C1436 1.376 . S
C1436 H1423 0.930 . S
C1436 C1435 1.376 . S
C1436 C1437 1.388 . S
C1437 H1424 0.930 . S
C1437 C1436 1.388 . S
C1437 C1438 1.390 1_565 S
C1438 C1437 1.390 1_545 S
C1438 C1439 1.396 . S
C1438 C1444 1.465 . S
C1439 C1434 1.378 1_545 S
C1439 C1438 1.396 . S
C1439 C1440 1.536 . S
C1440 C1439 1.536 . S
C1440 C1441 1.502 . S
C1440 C1442 1.561 . S
C1440 C1443 1.526 . S
C1441 H1425 0.959 . S
C1441 H1426 0.959 . S
C1441 H1427 0.961 . S
C1441 C1440 1.502 . S
C1442 H1428 0.960 . S
C1442 H1429 0.961 . S
C1442 H1430 0.959 . S
C1442 C1440 1.561 . S
C1443 C1440 1.526 . S
C1443 C1444 1.396 . S
C1443 C1448 1.390 . S
C1444 C1438 1.465 . S
C1444 C1443 1.396 . S
C1444 C1445 1.399 . S
C1445 H1431 0.929 . S
C1445 C1444 1.399 . S
C1445 C1446 1.385 . S
C1446 H1432 0.931 . S
C1446 C1445 1.385 . S
C1446 C1447 1.389 . S
C1447 C1446 1.389 . S
C1447 C1448 1.387 . S
C1448 H1433 0.930 . S
C1448 C1443 1.390 . S
C1448 C1447 1.387 . S
H1449 C1461 0.930 . S
H1450 C1463 0.930 . S
H1451 C1464 0.930 . S
H1452 C1468 0.959 . S
H1453 C1468 0.959 . S
H1454 C1468 0.961 . S
H1455 C1469 0.960 . S
H1456 C1469 0.961 . S
H1457 C1469 0.959 . S
H1458 C1472 0.929 . S
H1459 C1473 0.931 . S
H1460 C1475 0.930 . S
C1461 H1449 0.930 . S
C1461 C1462 1.399 . S
C1461 C1466 1.399 . S
C1462 C1461 1.399 . S
C1462 C1463 1.376 . S
C1463 H1450 0.930 . S
C1463 C1462 1.376 . S
C1463 C1464 1.388 . S
C1464 H1451 0.930 . S
C1464 C1463 1.388 . S
C1464 C1465 1.390 . S
C1465 C1464 1.390 . S
C1465 C1466 1.394 . S
C1465 C1471 1.465 . S
C1466 C1461 1.399 . S
C1466 C1465 1.394 . S
C1466 C1467 1.516 . S
C1467 C1466 1.516 . S
C1467 C1468 1.502 . S
C1467 C1469 1.561 . S
C1467 C1470 1.526 . S
C1468 H1452 0.959 . S
C1468 H1453 0.959 . S
C1468 H1454 0.961 . S
C1468 C1467 1.502 . S
C1469 H1455 0.960 . S
C1469 H1456 0.961 . S
C1469 H1457 0.959 . S
C1469 C1467 1.561 . S
C1470 C1467 1.526 . S
C1470 C1471 1.396 . S
C1470 C1475 1.390 . S
C1471 C1465 1.465 . S
C1471 C1470 1.396 . S
C1471 C1472 1.399 . S
C1472 H1458 0.929 . S
C1472 C1471 1.399 . S
C1472 C1473 1.385 . S
C1473 H1459 0.931 . S
C1473 C1472 1.385 . S
C1473 C1474 1.389 . S
C1474 C1473 1.389 . S
C1474 C1475 1.387 . S
C1475 H1460 0.930 . S
C1475 C1470 1.390 . S
C1475 C1474 1.387 . S
H1476 C1488 0.930 . S
H1477 C1490 0.930 . S
H1478 C1491 0.930 . S
H1479 C1495 0.959 . S
H1480 C1495 0.959 . S
H1481 C1495 0.961 . S
H1482 C1496 0.960 . S
H1483 C1496 0.961 . S
H1484 C1496 0.959 . S
H1485 C1499 0.929 . S
H1486 C1500 0.931 . S
H1487 C1502 0.930 . S
C1488 H1476 0.930 . S
C1488 C1489 1.399 . S
C1488 C1493 1.399 . S
C1489 C1488 1.399 . S
C1489 C1490 1.376 . S
C1490 H1477 0.930 . S
C1490 C1489 1.376 . S
C1490 C1491 1.388 . S
C1491 H1478 0.930 . S
C1491 C1490 1.388 . S
C1491 C1492 1.390 . S
C1492 C1491 1.390 . S
C1492 C1493 1.394 . S
C1492 C1498 1.465 . S
C1493 C1488 1.399 . S
C1493 C1492 1.394 . S
C1493 C1494 1.516 . S
C1494 C1493 1.516 . S
C1494 C1495 1.502 . S
C1494 C1496 1.561 . S
C1494 C1497 1.526 . S
C1495 H1479 0.959 . S
C1495 H1480 0.959 . S
C1495 H1481 0.961 . S
C1495 C1494 1.502 . S
C1496 H1482 0.960 . S
C1496 H1483 0.961 . S
C1496 H1484 0.959 . S
C1496 C1494 1.561 . S
C1497 C1494 1.526 . S
C1497 C1498 1.396 . S
C1497 C1502 1.390 . S
C1498 C1492 1.465 . S
C1498 C1497 1.396 . S
C1498 C1499 1.399 . S
C1499 H1485 0.929 . S
C1499 C1498 1.399 . S
C1499 C1500 1.385 . S
C1500 H1486 0.931 . S
C1500 C1499 1.385 . S
C1500 C1501 1.389 . S
C1501 C1500 1.389 . S
C1501 C1502 1.387 . S
C1502 H1487 0.930 . S
C1502 C1497 1.390 . S
C1502 C1501 1.387 . S
H1503 C1515 0.930 . S
H1504 C1517 0.930 . S
H1505 C1518 0.930 . S
H1506 C1522 0.959 . S
H1507 C1522 0.959 . S
H1508 C1522 0.961 . S
H1509 C1523 0.960 . S
H1510 C1523 0.961 . S
H1511 C1523 0.959 . S
H1512 C1526 0.929 . S
H1513 C1527 0.931 . S
H1514 C1529 0.930 . S
C1515 H1503 0.930 . S
C1515 C1516 1.399 . S
C1515 C1520 1.399 . S
C1516 C1515 1.399 . S
C1516 C1517 1.376 . S
C1517 H1504 0.930 . S
C1517 C1516 1.376 . S
C1517 C1518 1.388 . S
C1518 H1505 0.930 . S
C1518 C1517 1.388 . S
C1518 C1519 1.390 . S
C1519 C1518 1.390 . S
C1519 C1520 1.394 . S
C1519 C1525 1.465 . S
C1520 C1515 1.399 . S
C1520 C1519 1.394 . S
C1520 C1521 1.516 . S
C1521 C1520 1.516 . S
C1521 C1522 1.502 . S
C1521 C1523 1.561 . S
C1521 C1524 1.526 . S
C1522 H1506 0.959 . S
C1522 H1507 0.959 . S
C1522 H1508 0.961 . S
C1522 C1521 1.502 . S
C1523 H1509 0.960 . S
C1523 H1510 0.961 . S
C1523 H1511 0.959 . S
C1523 C1521 1.561 . S
C1524 C1521 1.526 . S
C1524 C1525 1.396 . S
C1524 C1529 1.390 . S
C1525 C1519 1.465 . S
C1525 C1524 1.396 . S
C1525 C1526 1.399 . S
C1526 H1512 0.929 . S
C1526 C1525 1.399 . S
C1526 C1527 1.385 . S
C1527 H1513 0.931 . S
C1527 C1526 1.385 . S
C1527 C1528 1.389 . S
C1528 C1527 1.389 . S
C1528 C1529 1.387 . S
C1529 H1514 0.930 . S
C1529 C1524 1.390 . S
C1529 C1528 1.387 . S
H1530 C1542 0.930 . S
H1531 C1544 0.930 . S
H1532 C1545 0.930 . S
H1533 C1549 0.959 . S
H1534 C1549 0.959 . S
H1535 C1549 0.961 . S
H1536 C1550 0.960 . S
H1537 C1550 0.961 . S
H1538 C1550 0.959 . S
H1539 C1553 0.948 . S
H1540 C1554 0.931 1_545 S
H1541 C1556 0.930 . S
C1542 H1530 0.930 . S
C1542 C1543 1.399 . S
C1542 C1547 1.399 . S
C1543 C1542 1.399 . S
C1543 C1544 1.376 . S
C1544 H1531 0.930 . S
C1544 C1543 1.376 . S
C1544 C1545 1.388 . S
C1545 H1532 0.930 . S
C1545 C1544 1.388 . S
C1545 C1546 1.390 . S
C1546 C1545 1.390 . S
C1546 C1547 1.394 . S
C1546 C1552 1.465 . S
C1547 C1542 1.399 . S
C1547 C1546 1.394 . S
C1547 C1548 1.516 . S
C1548 C1547 1.516 . S
C1548 C1549 1.502 . S
C1548 C1550 1.561 . S
C1548 C1551 1.526 . S
C1549 H1533 0.959 . S
C1549 H1534 0.959 . S
C1549 H1535 0.961 . S
C1549 C1548 1.502 . S
C1550 H1536 0.960 . S
C1550 H1537 0.961 . S
C1550 H1538 0.959 . S
C1550 C1548 1.561 . S
C1551 C1548 1.526 . S
C1551 C1552 1.396 . S
C1551 C1556 1.390 . S
C1552 C1546 1.465 . S
C1552 C1551 1.396 . S
C1552 C1553 1.399 . S
C1553 H1539 0.948 . S
C1553 C1552 1.399 . S
C1553 C1554 1.385 . S
C1554 H1540 0.931 1_565 S
C1554 C1553 1.385 . S
C1554 C1555 1.389 . S
C1555 C1554 1.389 . S
C1555 C1556 1.387 . S
C1556 H1541 0.930 . S
C1556 C1551 1.390 . S
C1556 C1555 1.387 . S
H1557 C1569 0.930 . S
H1558 C1571 0.930 . S
H1559 C1572 0.930 . S
H1560 C1576 0.959 . S
H1561 C1576 0.959 . S
H1562 C1576 0.961 . S
H1563 C1577 0.960 . S
H1564 C1577 0.961 . S
H1565 C1577 0.959 . S
H1566 C1580 0.929 . S
H1567 C1581 0.931 . S
H1568 C1583 0.930 . S
C1569 H1557 0.930 . S
C1569 C1570 1.399 . S
C1569 C1574 1.399 . S
C1570 C1569 1.399 . S
C1570 C1571 1.376 . S
C1571 H1558 0.930 . S
C1571 C1570 1.376 . S
C1571 C1572 1.388 . S
C1572 H1559 0.930 . S
C1572 C1571 1.388 . S
C1572 C1573 1.390 . S
C1573 C1572 1.390 . S
C1573 C1574 1.394 . S
C1573 C1579 1.465 . S
C1574 C1569 1.399 . S
C1574 C1573 1.394 . S
C1574 C1575 1.516 . S
C1575 C1574 1.516 . S
C1575 C1576 1.502 . S
C1575 C1577 1.561 . S
C1575 C1578 1.526 . S
C1576 H1560 0.959 . S
C1576 H1561 0.959 . S
C1576 H1562 0.961 . S
C1576 C1575 1.502 . S
C1577 H1563 0.960 . S
C1577 H1564 0.961 . S
C1577 H1565 0.959 . S
C1577 C1575 1.561 . S
C1578 C1575 1.526 . S
C1578 C1579 1.396 . S
C1578 C1583 1.390 . S
C1579 C1573 1.465 . S
C1579 C1578 1.396 . S
C1579 C1580 1.399 . S
C1580 H1566 0.929 . S
C1580 C1579 1.399 . S
C1580 C1581 1.385 . S
C1581 H1567 0.931 . S
C1581 C1580 1.385 . S
C1581 C1582 1.389 . S
C1582 C1581 1.389 . S
C1582 C1583 1.387 . S
C1583 H1568 0.930 . S
C1583 C1578 1.390 . S
C1583 C1582 1.387 . S
H1584 C1596 0.930 . S
H1585 C1598 0.930 . S
H1586 C1599 0.930 . S
H1587 C1603 0.959 . S
H1588 C1603 0.959 . S
H1589 C1603 0.961 . S
H1590 C1604 0.960 . S
H1591 C1604 0.961 . S
H1592 C1604 0.959 . S
H1593 C1607 0.929 . S
H1594 C1608 0.931 . S
H1595 C1610 0.930 . S
C1596 H1584 0.930 . S
C1596 C1597 1.399 . S
C1596 C1601 1.399 . S
C1597 C1596 1.399 . S
C1597 C1598 1.376 . S
C1598 H1585 0.930 . S
C1598 C1597 1.376 . S
C1598 C1599 1.388 . S
C1599 H1586 0.930 . S
C1599 C1598 1.388 . S
C1599 C1600 1.390 . S
C1600 C1599 1.390 . S
C1600 C1601 1.394 . S
C1600 C1606 1.465 . S
C1601 C1596 1.399 . S
C1601 C1600 1.394 . S
C1601 C1602 1.516 . S
C1602 C1601 1.516 . S
C1602 C1603 1.502 . S
C1602 C1604 1.561 . S
C1602 C1605 1.526 . S
C1603 H1587 0.959 . S
C1603 H1588 0.959 . S
C1603 H1589 0.961 . S
C1603 C1602 1.502 . S
C1604 H1590 0.960 . S
C1604 H1591 0.961 . S
C1604 H1592 0.959 . S
C1604 C1602 1.561 . S
C1605 C1602 1.526 . S
C1605 C1606 1.396 . S
C1605 C1610 1.390 . S
C1606 C1600 1.465 . S
C1606 C1605 1.396 . S
C1606 C1607 1.399 . S
C1607 H1593 0.929 . S
C1607 C1606 1.399 . S
C1607 C1608 1.385 . S
C1608 H1594 0.931 . S
C1608 C1607 1.385 . S
C1608 C1609 1.389 . S
C1609 C1608 1.389 . S
C1609 C1610 1.387 . S
C1610 H1595 0.930 . S
C1610 C1605 1.390 . S
C1610 C1609 1.387 . S
H1611 C1623 0.930 . S
H1612 C1625 0.930 . S
H1613 C1626 0.930 . S
H1614 C1630 0.959 . S
H1615 C1630 0.959 . S
H1616 C1630 0.961 . S
H1617 C1631 0.960 . S
H1618 C1631 0.961 . S
H1619 C1631 0.959 . S
H1620 C1634 0.929 . S
H1621 C1635 0.931 . S
H1622 C1637 0.930 . S
C1623 H1611 0.930 . S
C1623 C1624 1.399 . S
C1623 C1628 1.399 . S
C1624 C1623 1.399 . S
C1624 C1625 1.376 . S
C1625 H1612 0.930 . S
C1625 C1624 1.376 . S
C1625 C1626 1.388 . S
C1626 H1613 0.930 . S
C1626 C1625 1.388 . S
C1626 C1627 1.390 . S
C1627 C1626 1.390 . S
C1627 C1628 1.394 . S
C1627 C1633 1.465 . S
C1628 C1623 1.399 . S
C1628 C1627 1.394 . S
C1628 C1629 1.516 . S
C1629 C1628 1.516 . S
C1629 C1630 1.502 1_655 S
C1629 C1631 1.561 . S
C1629 C1632 1.526 . S
C1630 H1614 0.959 . S
C1630 H1615 0.959 . S
C1630 H1616 0.961 . S
C1630 C1629 1.502 1_455 S
C1631 H1617 0.960 . S
C1631 H1618 0.961 . S
C1631 H1619 0.959 . S
C1631 C1629 1.561 . S
C1632 C1629 1.526 . S
C1632 C1633 1.396 . S
C1632 C1637 1.390 . S
C1633 C1627 1.465 . S
C1633 C1632 1.396 . S
C1633 C1634 1.399 . S
C1634 H1620 0.929 . S
C1634 C1633 1.399 . S
C1634 C1635 1.385 . S
C1635 H1621 0.931 . S
C1635 C1634 1.385 . S
C1635 C1636 1.389 . S
C1636 C1635 1.389 . S
C1636 C1637 1.387 . S
C1637 H1622 0.930 . S
C1637 C1632 1.390 . S
C1637 C1636 1.387 . S
H1638 C1650 0.930 . S
H1639 C1652 0.930 . S
H1640 C1653 0.930 . S
H1641 C1657 0.959 . S
H1642 C1657 0.959 . S
H1643 C1657 0.961 . S
H1644 C1658 0.960 . S
H1645 C1658 0.961 . S
H1646 C1658 0.959 . S
H1647 C1661 0.929 . S
H1648 C1662 0.931 . S
H1649 C1664 0.930 . S
C1650 H1638 0.930 . S
C1650 C1651 1.399 . S
C1650 C1655 1.399 . S
C1651 C1650 1.399 . S
C1651 C1652 1.376 . S
C1652 H1639 0.930 . S
C1652 C1651 1.376 . S
C1652 C1653 1.388 . S
C1653 H1640 0.930 . S
C1653 C1652 1.388 . S
C1653 C1654 1.390 . S
C1654 C1653 1.390 . S
C1654 C1655 1.394 . S
C1654 C1660 1.465 . S
C1655 C1650 1.399 . S
C1655 C1654 1.394 . S
C1655 C1656 1.516 . S
C1656 C1655 1.516 . S
C1656 C1657 1.502 . S
C1656 C1658 1.561 . S
C1656 C1659 1.526 . S
C1657 H1641 0.959 . S
C1657 H1642 0.959 . S
C1657 H1643 0.961 . S
C1657 C1656 1.502 . S
C1658 H1644 0.960 . S
C1658 H1645 0.961 . S
C1658 H1646 0.959 . S
C1658 C1656 1.561 . S
C1659 C1656 1.526 . S
C1659 C1660 1.396 . S
C1659 C1664 1.390 . S
C1660 C1654 1.465 . S
C1660 C1659 1.396 . S
C1660 C1661 1.399 . S
C1661 H1647 0.929 . S
C1661 C1660 1.399 . S
C1661 C1662 1.385 . S
C1662 H1648 0.931 . S
C1662 C1661 1.385 . S
C1662 C1663 1.389 . S
C1663 C1662 1.389 . S
C1663 C1664 1.387 . S
C1664 H1649 0.930 . S
C1664 C1659 1.390 . S
C1664 C1663 1.387 . S
H1665 C1677 0.930 . S
H1666 C1679 0.930 . S
H1667 C1680 0.930 . S
H1668 C1684 0.959 . S
H1669 C1684 0.959 . S
H1670 C1684 0.961 . S
H1671 C1685 0.960 . S
H1672 C1685 0.961 . S
H1673 C1685 0.959 . S
H1674 C1688 0.925 1_565 S
H1675 C1689 0.931 1_565 S
H1676 C1691 0.930 . S
C1677 H1665 0.930 . S
C1677 C1678 1.399 . S
C1677 C1682 1.399 . S
C1678 C1677 1.399 . S
C1678 C1679 1.376 . S
C1679 H1666 0.930 . S
C1679 C1678 1.376 . S
C1679 C1680 1.388 . S
C1680 H1667 0.930 . S
C1680 C1679 1.388 . S
C1680 C1681 1.390 . S
C1681 C1680 1.390 . S
C1681 C1682 1.394 . S
C1681 C1687 1.465 . S
C1682 C1677 1.399 . S
C1682 C1681 1.394 . S
C1682 C1683 1.516 . S
C1683 C1682 1.516 . S
C1683 C1684 1.502 . S
C1683 C1685 1.561 . S
C1683 C1686 1.526 . S
C1684 H1668 0.959 . S
C1684 H1669 0.959 . S
C1684 H1670 0.961 . S
C1684 C1683 1.502 . S
C1685 H1671 0.960 . S
C1685 H1672 0.961 . S
C1685 H1673 0.959 . S
C1685 C1683 1.561 . S
C1686 C1683 1.526 . S
C1686 C1687 1.396 . S
C1686 C1691 1.390 . S
C1687 C1681 1.465 . S
C1687 C1686 1.396 . S
C1687 C1688 1.399 . S
C1688 H1674 0.925 1_545 S
C1688 C1687 1.399 . S
C1688 C1689 1.385 . S
C1689 H1675 0.931 1_545 S
C1689 C1688 1.385 . S
C1689 C1690 1.389 . S
C1690 C1689 1.389 . S
C1690 C1691 1.387 . S
C1691 H1676 0.930 . S
C1691 C1686 1.390 . S
C1691 C1690 1.387 . S
H1692 C1704 0.930 . S
H1693 C1706 0.930 . S
H1694 C1707 0.930 . S
H1695 C1711 0.959 . S
H1696 C1711 0.959 . S
H1697 C1711 0.961 . S
H1698 C1712 0.960 . S
H1699 C1712 0.961 . S
H1700 C1712 0.959 . S
H1701 C1715 0.929 . S
H1702 C1716 0.931 . S
H1703 C1718 0.930 . S
C1704 H1692 0.930 . S
C1704 C1705 1.399 . S
C1704 C1709 1.399 . S
C1705 C1704 1.399 . S
C1705 C1706 1.376 . S
C1706 H1693 0.930 . S
C1706 C1705 1.376 . S
C1706 C1707 1.388 . S
C1707 H1694 0.930 . S
C1707 C1706 1.388 . S
C1707 C1708 1.390 . S
C1708 C1707 1.390 . S
C1708 C1709 1.394 . S
C1708 C1714 1.465 . S
C1709 C1704 1.399 . S
C1709 C1708 1.394 . S
C1709 C1710 1.516 . S
C1710 C1709 1.516 . S
C1710 C1711 1.502 . S
C1710 C1712 1.561 . S
C1710 C1713 1.526 . S
C1711 H1695 0.959 . S
C1711 H1696 0.959 . S
C1711 H1697 0.961 . S
C1711 C1710 1.502 . S
C1712 H1698 0.960 . S
C1712 H1699 0.961 . S
C1712 H1700 0.959 . S
C1712 C1710 1.561 . S
C1713 C1710 1.526 . S
C1713 C1714 1.396 . S
C1713 C1718 1.390 . S
C1714 C1708 1.465 . S
C1714 C1713 1.396 . S
C1714 C1715 1.399 . S
C1715 H1701 0.929 . S
C1715 C1714 1.399 . S
C1715 C1716 1.385 . S
C1716 H1702 0.931 . S
C1716 C1715 1.385 . S
C1716 C1717 1.389 . S
C1717 C1716 1.389 . S
C1717 C1718 1.387 . S
C1718 H1703 0.930 . S
C1718 C1713 1.390 . S
C1718 C1717 1.387 . S
H1719 C1731 0.930 . S
H1720 C1733 0.930 . S
H1721 C1734 0.930 . S
H1722 C1738 0.959 . S
H1723 C1738 0.959 . S
H1724 C1738 0.961 . S
H1725 C1739 0.960 . S
H1726 C1739 0.961 . S
H1727 C1739 0.959 . S
H1728 C1742 0.929 . S
H1729 C1743 0.931 . S
H1730 C1745 0.930 . S
C1731 H1719 0.930 . S
C1731 C1732 1.399 . S
C1731 C1736 1.399 . S
C1732 C1731 1.399 . S
C1732 C1733 1.376 . S
C1733 H1720 0.930 . S
C1733 C1732 1.376 . S
C1733 C1734 1.388 . S
C1734 H1721 0.930 . S
C1734 C1733 1.388 . S
C1734 C1735 1.390 . S
C1735 C1734 1.390 . S
C1735 C1736 1.394 . S
C1735 C1741 1.465 . S
C1736 C1731 1.399 . S
C1736 C1735 1.394 . S
C1736 C1737 1.516 . S
C1737 C1736 1.516 . S
C1737 C1738 1.502 . S
C1737 C1739 1.561 . S
C1737 C1740 1.526 . S
C1738 H1722 0.959 . S
C1738 H1723 0.959 . S
C1738 H1724 0.961 . S
C1738 C1737 1.502 . S
C1739 H1725 0.960 . S
C1739 H1726 0.961 . S
C1739 H1727 0.959 . S
C1739 C1737 1.561 . S
C1740 C1737 1.526 . S
C1740 C1741 1.396 . S
C1740 C1745 1.390 . S
C1741 C1735 1.465 . S
C1741 C1740 1.396 . S
C1741 C1742 1.399 . S
C1742 H1728 0.929 . S
C1742 C1741 1.399 . S
C1742 C1743 1.385 . S
C1743 H1729 0.931 . S
C1743 C1742 1.385 . S
C1743 C1744 1.389 . S
C1744 C1743 1.389 . S
C1744 C1745 1.387 . S
C1745 H1730 0.930 . S
C1745 C1740 1.390 . S
C1745 C1744 1.387 . S
H1746 C1758 0.930 . S
H1747 C1760 0.930 . S
H1748 C1761 0.930 . S
H1749 C1765 0.959 . S
H1750 C1765 0.959 . S
H1751 C1765 0.961 . S
H1752 C1766 0.960 . S
H1753 C1766 0.961 . S
H1754 C1766 0.959 . S
H1755 C1769 0.929 . S
H1756 C1770 0.931 . S
H1757 C1772 0.930 . S
C1758 H1746 0.930 . S
C1758 C1759 1.399 . S
C1758 C1763 1.399 . S
C1759 C1758 1.399 . S
C1759 C1760 1.376 . S
C1760 H1747 0.930 . S
C1760 C1759 1.376 . S
C1760 C1761 1.388 . S
C1761 H1748 0.930 . S
C1761 C1760 1.388 . S
C1761 C1762 1.390 . S
C1762 C1761 1.390 . S
C1762 C1763 1.394 . S
C1762 C1768 1.465 . S
C1763 C1758 1.399 . S
C1763 C1762 1.394 . S
C1763 C1764 1.516 . S
C1764 C1763 1.516 . S
C1764 C1765 1.502 . S
C1764 C1766 1.561 . S
C1764 C1767 1.526 . S
C1765 H1749 0.959 . S
C1765 H1750 0.959 . S
C1765 H1751 0.961 . S
C1765 C1764 1.502 . S
C1766 H1752 0.960 . S
C1766 H1753 0.961 . S
C1766 H1754 0.959 . S
C1766 C1764 1.561 . S
C1767 C1764 1.526 . S
C1767 C1768 1.396 . S
C1767 C1772 1.390 . S
C1768 C1762 1.465 . S
C1768 C1767 1.396 . S
C1768 C1769 1.399 . S
C1769 H1755 0.929 . S
C1769 C1768 1.399 . S
C1769 C1770 1.385 . S
C1770 H1756 0.931 . S
C1770 C1769 1.385 . S
C1770 C1771 1.389 . S
C1771 C1770 1.389 . S
C1771 C1772 1.387 . S
C1772 H1757 0.930 . S
C1772 C1767 1.390 . S
C1772 C1771 1.387 . S
H1773 C1785 0.930 . S
H1774 C1787 0.930 . S
H1775 C1788 0.930 . S
H1776 C1792 0.959 . S
H1777 C1792 0.959 . S
H1778 C1792 0.961 . S
H1779 C1793 0.960 . S
H1780 C1793 0.961 . S
H1781 C1793 0.959 . S
H1782 C1796 0.929 . S
H1783 C1797 0.931 . S
H1784 C1799 0.930 . S
C1785 H1773 0.930 . S
C1785 C1786 1.399 . S
C1785 C1790 1.399 . S
C1786 C1785 1.399 . S
C1786 C1787 1.376 . S
C1787 H1774 0.930 . S
C1787 C1786 1.376 . S
C1787 C1788 1.388 . S
C1788 H1775 0.930 . S
C1788 C1787 1.388 . S
C1788 C1789 1.390 . S
C1789 C1788 1.390 . S
C1789 C1790 1.394 . S
C1789 C1795 1.465 . S
C1790 C1785 1.399 . S
C1790 C1789 1.394 . S
C1790 C1791 1.516 . S
C1791 C1790 1.516 . S
C1791 C1792 1.502 . S
C1791 C1793 1.561 . S
C1791 C1794 1.526 . S
C1792 H1776 0.959 . S
C1792 H1777 0.959 . S
C1792 H1778 0.961 . S
C1792 C1791 1.502 . S
C1793 H1779 0.960 . S
C1793 H1780 0.961 . S
C1793 H1781 0.959 . S
C1793 C1791 1.561 . S
C1794 C1791 1.526 . S
C1794 C1795 1.396 . S
C1794 C1799 1.390 . S
C1795 C1789 1.465 . S
C1795 C1794 1.396 . S
C1795 C1796 1.399 . S
C1796 H1782 0.929 . S
C1796 C1795 1.399 . S
C1796 C1797 1.385 . S
C1797 H1783 0.931 . S
C1797 C1796 1.385 . S
C1797 C1798 1.389 . S
C1798 C1797 1.389 . S
C1798 C1799 1.387 . S
C1799 H1784 0.930 . S
C1799 C1794 1.390 . S
C1799 C1798 1.387 . S
H1800 C1812 0.930 . S
H1801 C1814 0.930 . S
H1802 C1815 0.930 . S
H1803 C1819 0.959 . S
H1804 C1819 0.959 . S
H1805 C1819 0.961 . S
H1806 C1820 0.960 . S
H1807 C1820 0.961 . S
H1808 C1820 0.959 . S
H1809 C1823 0.929 . S
H1810 C1824 0.931 . S
H1811 C1826 0.930 . S
C1812 H1800 0.930 . S
C1812 C1813 1.399 . S
C1812 C1817 1.399 . S
C1813 C1812 1.399 . S
C1813 C1814 1.376 . S
C1814 H1801 0.930 . S
C1814 C1813 1.376 . S
C1814 C1815 1.388 . S
C1815 H1802 0.930 . S
C1815 C1814 1.388 . S
C1815 C1816 1.390 . S
C1816 C1815 1.390 . S
C1816 C1817 1.394 . S
C1816 C1822 1.465 . S
C1817 C1812 1.399 . S
C1817 C1816 1.394 . S
C1817 C1818 1.516 . S
C1818 C1817 1.516 . S
C1818 C1819 1.502 . S
C1818 C1820 1.561 . S
C1818 C1821 1.526 . S
C1819 H1803 0.959 . S
C1819 H1804 0.959 . S
C1819 H1805 0.961 . S
C1819 C1818 1.502 . S
C1820 H1806 0.960 . S
C1820 H1807 0.961 . S
C1820 H1808 0.959 . S
C1820 C1818 1.561 . S
C1821 C1818 1.526 . S
C1821 C1822 1.396 . S
C1821 C1826 1.390 . S
C1822 C1816 1.465 . S
C1822 C1821 1.396 . S
C1822 C1823 1.399 . S
C1823 H1809 0.929 . S
C1823 C1822 1.399 . S
C1823 C1824 1.385 . S
C1824 H1810 0.931 . S
C1824 C1823 1.385 . S
C1824 C1825 1.389 . S
C1825 C1824 1.389 . S
C1825 C1826 1.387 . S
C1826 H1811 0.930 . S
C1826 C1821 1.390 . S
C1826 C1825 1.387 . S
H1827 C1839 0.930 . S
H1828 C1841 0.930 . S
H1829 C1842 0.930 . S
H1830 C1846 0.959 . S
H1831 C1846 0.959 . S
H1832 C1846 0.961 . S
H1833 C1847 0.960 . S
H1834 C1847 0.961 . S
H1835 C1847 0.959 . S
H1836 C1850 0.929 . S
H1837 C1851 0.931 . S
H1838 C1853 0.930 . S
C1839 H1827 0.930 . S
C1839 C1840 1.399 . S
C1839 C1844 1.399 . S
C1840 C1839 1.399 . S
C1840 C1841 1.376 . S
C1841 H1828 0.930 . S
C1841 C1840 1.376 . S
C1841 C1842 1.388 . S
C1842 H1829 0.930 . S
C1842 C1841 1.388 . S
C1842 C1843 1.390 . S
C1843 C1842 1.390 . S
C1843 C1844 1.394 . S
C1843 C1849 1.465 . S
C1844 C1839 1.399 . S
C1844 C1843 1.394 . S
C1844 C1845 1.516 . S
C1845 C1844 1.516 . S
C1845 C1846 1.502 . S
C1845 C1847 1.561 . S
C1845 C1848 1.526 . S
C1846 H1830 0.959 . S
C1846 H1831 0.959 . S
C1846 H1832 0.961 . S
C1846 C1845 1.502 . S
C1847 H1833 0.960 . S
C1847 H1834 0.961 . S
C1847 H1835 0.959 . S
C1847 C1845 1.561 . S
C1848 C1845 1.526 . S
C1848 C1849 1.396 . S
C1848 C1853 1.390 . S
C1849 C1843 1.465 . S
C1849 C1848 1.396 . S
C1849 C1850 1.399 . S
C1850 H1836 0.929 . S
C1850 C1849 1.399 . S
C1850 C1851 1.385 . S
C1851 H1837 0.931 . S
C1851 C1850 1.385 . S
C1851 C1852 1.389 . S
C1852 C1851 1.389 . S
C1852 C1853 1.387 . S
C1853 H1838 0.930 . S
C1853 C1848 1.390 . S
C1853 C1852 1.387 . S
H1854 C1866 0.930 . S
H1855 C1868 0.930 . S
H1856 C1869 0.930 . S
H1857 C1873 0.959 . S
H1858 C1873 0.959 . S
H1859 C1873 0.961 . S
H1860 C1874 0.960 . S
H1861 C1874 0.961 . S
H1862 C1874 0.959 . S
H1863 C1877 0.929 . S
H1864 C1878 0.931 . S
H1865 C1880 0.930 . S
C1866 H1854 0.930 . S
C1866 C1867 1.399 . S
C1866 C1871 1.399 . S
C1867 C1866 1.399 . S
C1867 C1868 1.376 . S
C1868 H1855 0.930 . S
C1868 C1867 1.376 . S
C1868 C1869 1.388 . S
C1869 H1856 0.930 . S
C1869 C1868 1.388 . S
C1869 C1870 1.390 . S
C1870 C1869 1.390 . S
C1870 C1871 1.394 . S
C1870 C1876 1.465 . S
C1871 C1866 1.399 . S
C1871 C1870 1.394 . S
C1871 C1872 1.516 . S
C1872 C1871 1.516 . S
C1872 C1873 1.502 . S
C1872 C1874 1.561 . S
C1872 C1875 1.526 . S
C1873 H1857 0.959 . S
C1873 H1858 0.959 . S
C1873 H1859 0.961 . S
C1873 C1872 1.502 . S
C1874 H1860 0.960 . S
C1874 H1861 0.961 . S
C1874 H1862 0.959 . S
C1874 C1872 1.561 . S
C1875 C1872 1.526 . S
C1875 C1876 1.396 . S
C1875 C1880 1.390 . S
C1876 C1870 1.465 . S
C1876 C1875 1.396 . S
C1876 C1877 1.399 . S
C1877 H1863 0.929 . S
C1877 C1876 1.399 . S
C1877 C1878 1.385 . S
C1878 H1864 0.931 . S
C1878 C1877 1.385 . S
C1878 C1879 1.389 . S
C1879 C1878 1.389 . S
C1879 C1880 1.387 . S
C1880 H1865 0.930 . S
C1880 C1875 1.390 . S
C1880 C1879 1.387 . S
H1881 C1893 0.930 . S
H1882 C1895 0.930 . S
H1883 C1896 0.930 . S
H1884 C1900 0.959 . S
H1885 C1900 0.959 . S
H1886 C1900 0.961 . S
H1887 C1901 0.960 . S
H1888 C1901 0.961 . S
H1889 C1901 0.959 . S
H1890 C1904 0.929 . S
H1891 C1905 0.931 . S
H1892 C1907 0.930 . S
C1893 H1881 0.930 . S
C1893 C1894 1.399 . S
C1893 C1898 1.399 . S
C1894 C1893 1.399 . S
C1894 C1895 1.376 . S
C1895 H1882 0.930 . S
C1895 C1894 1.376 . S
C1895 C1896 1.388 . S
C1896 H1883 0.930 . S
C1896 C1895 1.388 . S
C1896 C1897 1.390 . S
C1897 C1896 1.390 . S
C1897 C1898 1.394 . S
C1897 C1903 1.465 . S
C1898 C1893 1.399 . S
C1898 C1897 1.394 . S
C1898 C1899 1.516 . S
C1899 C1898 1.516 . S
C1899 C1900 1.502 . S
C1899 C1901 1.561 . S
C1899 C1902 1.526 . S
C1900 H1884 0.959 . S
C1900 H1885 0.959 . S
C1900 H1886 0.961 . S
C1900 C1899 1.502 . S
C1901 H1887 0.960 . S
C1901 H1888 0.961 . S
C1901 H1889 0.959 . S
C1901 C1899 1.561 . S
C1902 C1899 1.526 . S
C1902 C1903 1.396 . S
C1902 C1907 1.390 . S
C1903 C1897 1.465 . S
C1903 C1902 1.396 . S
C1903 C1904 1.399 . S
C1904 H1890 0.929 . S
C1904 C1903 1.399 . S
C1904 C1905 1.385 . S
C1905 H1891 0.931 . S
C1905 C1904 1.385 . S
C1905 C1906 1.389 . S
C1906 C1905 1.389 . S
C1906 C1907 1.387 . S
C1907 H1892 0.930 . S
C1907 C1902 1.390 . S
C1907 C1906 1.387 . S
H1908 C1920 0.930 . S
H1909 C1922 0.930 . S
H1910 C1923 0.930 . S
H1911 C1927 0.959 . S
H1912 C1927 0.959 . S
H1913 C1927 0.961 . S
H1914 C1928 0.960 . S
H1915 C1928 0.961 . S
H1916 C1928 0.959 . S
H1917 C1931 0.929 . S
H1918 C1932 0.931 . S
H1919 C1934 0.930 . S
C1920 H1908 0.930 . S
C1920 C1921 1.399 . S
C1920 C1925 1.399 . S
C1921 C1920 1.399 . S
C1921 C1922 1.376 . S
C1922 H1909 0.930 . S
C1922 C1921 1.376 . S
C1922 C1923 1.388 . S
C1923 H1910 0.930 . S
C1923 C1922 1.388 . S
C1923 C1924 1.390 . S
C1924 C1923 1.390 . S
C1924 C1925 1.394 . S
C1924 C1930 1.465 . S
C1925 C1920 1.399 . S
C1925 C1924 1.394 . S
C1925 C1926 1.516 . S
C1926 C1925 1.516 . S
C1926 C1927 1.502 . S
C1926 C1928 1.561 . S
C1926 C1929 1.526 . S
C1927 H1911 0.959 . S
C1927 H1912 0.959 . S
C1927 H1913 0.961 . S
C1927 C1926 1.502 . S
C1928 H1914 0.960 . S
C1928 H1915 0.961 . S
C1928 H1916 0.959 . S
C1928 C1926 1.561 . S
C1929 C1926 1.526 . S
C1929 C1930 1.396 . S
C1929 C1934 1.390 . S
C1930 C1924 1.465 . S
C1930 C1929 1.396 . S
C1930 C1931 1.399 . S
C1931 H1917 0.929 . S
C1931 C1930 1.399 . S
C1931 C1932 1.385 . S
C1932 H1918 0.931 . S
C1932 C1931 1.385 . S
C1932 C1933 1.389 . S
C1933 C1932 1.389 . S
C1933 C1934 1.387 . S
C1934 H1919 0.930 . S
C1934 C1929 1.390 . S
C1934 C1933 1.387 . S
H1935 C1947 0.930 . S
H1936 C1949 0.930 . S
H1937 C1950 0.930 . S
H1938 C1954 0.959 . S
H1939 C1954 0.959 . S
H1940 C1954 0.961 . S
H1941 C1955 0.960 . S
H1942 C1955 0.961 . S
H1943 C1955 0.959 . S
H1944 C1958 0.929 . S
H1945 C1959 0.931 . S
H1946 C1961 0.930 . S
C1947 H1935 0.930 . S
C1947 C1948 1.399 . S
C1947 C1952 1.399 . S
C1948 C1947 1.399 . S
C1948 C1949 1.376 . S
C1949 H1936 0.930 . S
C1949 C1948 1.376 . S
C1949 C1950 1.388 . S
C1950 H1937 0.930 . S
C1950 C1949 1.388 . S
C1950 C1951 1.390 . S
C1951 C1950 1.390 . S
C1951 C1952 1.394 . S
C1951 C1957 1.465 . S
C1952 C1947 1.399 . S
C1952 C1951 1.394 . S
C1952 C1953 1.516 . S
C1953 C1952 1.516 . S
C1953 C1954 1.502 . S
C1953 C1955 1.561 . S
C1953 C1956 1.526 . S
C1954 H1938 0.959 . S
C1954 H1939 0.959 . S
C1954 H1940 0.961 . S
C1954 C1953 1.502 . S
C1955 H1941 0.960 . S
C1955 H1942 0.961 . S
C1955 H1943 0.959 . S
C1955 C1953 1.561 . S
C1956 C1953 1.526 . S
C1956 C1957 1.396 . S
C1956 C1961 1.390 . S
C1957 C1951 1.465 . S
C1957 C1956 1.396 . S
C1957 C1958 1.399 . S
C1958 H1944 0.929 . S
C1958 C1957 1.399 . S
C1958 C1959 1.385 . S
C1959 H1945 0.931 . S
C1959 C1958 1.385 . S
C1959 C1960 1.389 . S
C1960 C1959 1.389 . S
C1960 C1961 1.387 . S
C1961 H1946 0.930 . S
C1961 C1956 1.390 . S
C1961 C1960 1.387 . S
H1962 C1974 0.930 . S
H1963 C1976 0.930 . S
H1964 C1977 0.930 . S
H1965 C1981 0.959 . S
H1966 C1981 0.959 . S
H1967 C1981 0.961 . S
H1968 C1982 0.960 . S
H1969 C1982 0.961 . S
H1970 C1982 0.959 . S
H1971 C1985 0.929 . S
H1972 C1986 0.931 . S
H1973 C1988 0.930 . S
C1974 H1962 0.930 . S
C1974 C1975 1.399 . S
C1974 C1979 1.399 . S
C1975 C1974 1.399 . S
C1975 C1976 1.376 . S
C1976 H1963 0.930 . S
C1976 C1975 1.376 . S
C1976 C1977 1.388 . S
C1977 H1964 0.930 . S
C1977 C1976 1.388 . S
C1977 C1978 1.390 . S
C1978 C1977 1.390 . S
C1978 C1979 1.394 . S
C1978 C1984 1.465 . S
C1979 C1974 1.399 . S
C1979 C1978 1.394 . S
C1979 C1980 1.516 . S
C1980 C1979 1.516 . S
C1980 C1981 1.502 . S
C1980 C1982 1.561 . S
C1980 C1983 1.526 . S
C1981 H1965 0.959 . S
C1981 H1966 0.959 . S
C1981 H1967 0.961 . S
C1981 C1980 1.502 . S
C1982 H1968 0.960 . S
C1982 H1969 0.961 . S
C1982 H1970 0.959 . S
C1982 C1980 1.561 . S
C1983 C1980 1.526 . S
C1983 C1984 1.396 . S
C1983 C1988 1.390 . S
C1984 C1978 1.465 . S
C1984 C1983 1.396 . S
C1984 C1985 1.399 . S
C1985 H1971 0.929 . S
C1985 C1984 1.399 . S
C1985 C1986 1.385 . S
C1986 H1972 0.931 . S
C1986 C1985 1.385 . S
C1986 C1987 1.389 . S
C1987 C1986 1.389 . S
C1987 C1988 1.387 . S
C1988 H1973 0.930 . S
C1988 C1983 1.390 . S
C1988 C1987 1.387 . S
H1989 C2001 0.930 . S
H1990 C2003 0.930 . S
H1991 C2004 0.930 . S
H1992 C2008 0.959 . S
H1993 C2008 0.959 . S
H1994 C2008 0.961 . S
H1995 C2009 0.960 . S
H1996 C2009 0.961 . S
H1997 C2009 0.959 . S
H1998 C2012 0.929 . S
H1999 C2013 0.931 . S
H2000 C2015 0.930 . S
C2001 H1989 0.930 . S
C2001 C2002 1.399 . S
C2001 C2006 1.399 . S
C2002 C2001 1.399 . S
C2002 C2003 1.376 . S
C2003 H1990 0.930 . S
C2003 C2002 1.376 . S
C2003 C2004 1.388 . S
C2004 H1991 0.930 . S
C2004 C2003 1.388 . S
C2004 C2005 1.390 . S
C2005 C2004 1.390 . S
C2005 C2006 1.394 . S
C2005 C2011 1.465 . S
C2006 C2001 1.399 . S
C2006 C2005 1.394 . S
C2006 C2007 1.516 . S
C2007 C2006 1.516 . S
C2007 C2008 1.502 . S
C2007 C2009 1.561 . S
C2007 C2010 1.526 . S
C2008 H1992 0.959 . S
C2008 H1993 0.959 . S
C2008 H1994 0.961 . S
C2008 C2007 1.502 . S
C2009 H1995 0.960 . S
C2009 H1996 0.961 . S
C2009 H1997 0.959 . S
C2009 C2007 1.561 . S
C2010 C2007 1.526 . S
C2010 C2011 1.396 . S
C2010 C2015 1.390 . S
C2011 C2005 1.465 . S
C2011 C2010 1.396 . S
C2011 C2012 1.399 . S
C2012 H1998 0.929 . S
C2012 C2011 1.399 . S
C2012 C2013 1.385 . S
C2013 H1999 0.931 . S
C2013 C2012 1.385 . S
C2013 C2014 1.389 . S
C2014 C2013 1.389 . S
C2014 C2015 1.387 . S
C2015 H2000 0.930 . S
C2015 C2010 1.390 . S
C2015 C2014 1.387 . S
C571 C151 1.344 . S
C583 C207 1.302 . S
C598 C159 1.882 . S
C610 C247 2.044 . S
C625 C137 1.576 . S
C637 C286 1.625 . S
C652 C126 1.329 . S
C664 C246 1.494 1_556 S
C691 C287 1.822 . S
C679 C104 1.727 . S
C706 C118 1.119 . S
C718 C206 1.080 . S
C745 C217 1.570 . S
C733 C129 1.631 . S
C772 C257 1.793 . S
C760 C107 1.775 . S
C787 C115 1.374 . S
C799 C296 1.606 1_556 S
C814 C148 1.238 . S
C826 C256 1.410 . S
C841 C162 1.557 . S
C853 C297 1.508 . S
C880 C216 1.383 . S
C868 C140 1.443 . S
C907 C327 1.331 . S
C895 C19 1.297 . S
C922 C27 1.934 . S
C934 C367 2.035 . S
C949 C5 1.590 . S
C961 C406 1.590 . S
C976 C192 1.343 . S
C988 C366 1.495 . S
C1003 C170 1.704 . S
C1015 C407 1.813 . S
C1030 C184 1.103 . S
C1042 C326 1.159 . S
C1057 C195 1.626 . S
C1069 C337 1.566 . S
C1084 C173 1.778 . S
C1096 C377 1.770 . S
C1123 C416 1.646 . S
C1111 C181 1.206 . S
C1138 C16 1.095 . S
C1150 C376 1.477 . S
C1177 C417 1.554 . S
C1165 C30 1.556 . S
C1192 C8 1.439 . S
C1204 C336 1.382 . S
C1231 C447 1.324 . S
C1219 C85 1.307 . S
C1246 C93 1.897 . S
C1258 C487 2.019 . S
C1285 C526 1.592 . S
C1273 C71 1.571 . S
C1312 C486 1.427 . S
C1300 C60 1.428 . S
C1339 C527 1.806 . S
C1327 C38 1.664 . S
C1354 C52 1.106 . S
C1366 C446 1.159 . S
C1381 C63 1.621 . S
C1393 C457 1.584 . S
C1408 C41 1.777 . S
C1420 C497 1.772 . S
C1447 C536 1.642 . S
C1435 C49 1.208 . S
C1462 C82 1.103 . S
C1474 C496 1.453 . S
C1489 C96 1.557 . S
C1501 C537 1.510 . S
C1516 C74 1.442 . S
C1528 C456 1.384 . S
C1543 C172 1.513 . S
C1555 C203 1.542 . S
C1582 C243 1.654 . S
C1570 C183 1.487 . S
C1597 C194 1.536 . S
C1609 C293 1.553 . S
C1624 C73 1.787 . S
C1636 C253 1.815 . S
C1651 C84 1.326 . S
C1663 C283 1.350 . S
C1690 C213 1.466 . S
C1678 C95 1.438 . S
C1705 C40 1.489 . S
C1717 C323 1.535 . S
C1732 C51 1.570 . S
C1744 C363 1.635 . S
C1759 C62 1.516 . S
C1771 C413 1.538 . S
C1786 C139 1.787 . S
C1798 C373 1.814 . S
C1825 C403 1.359 . S
C1813 C150 1.235 . S
C1840 C161 1.423 . S
C1852 C333 1.471 . S
C1867 C106 1.481 . S
C1879 C443 1.532 . S
C1894 C117 1.576 . S
C1906 C483 1.631 . S
C1933 C533 1.553 . S
C1921 C128 1.535 . S
C1948 C7 1.786 . S
C1960 C493 1.815 . S
C1975 C18 1.291 . S
C1987 C523 1.349 . S
C2002 C29 1.425 . S
C2014 C453 1.470 . S
