# Generated by pormake.
# Topology gar, (4,6)-cn, num edge types: 1
# Building blocks:
#     Node 0, Type 0, BuildingBlock: QUQFOY_clean_sbu_1, # of connection points: 4
#     Node 1, Type 0, BuildingBlock: QUQFOY_clean_sbu_1, # of connection points: 4
#     Node 2, Type 0, BuildingBlock: QUQFOY_clean_sbu_1, # of connection points: 4
#     Node 3, Type 0, BuildingBlock: QUQFOY_clean_sbu_1, # of connection points: 4
#     Node 4, Type 0, BuildingBlock: QUQFOY_clean_sbu_1, # of connection points: 4
#     Node 5, Type 0, BuildingBlock: QUQFOY_clean_sbu_1, # of connection points: 4
#     Node 6, Type 0, BuildingBlock: QUQFOY_clean_sbu_1, # of connection points: 4
#     Node 7, Type 0, BuildingBlock: QUQFOY_clean_sbu_1, # of connection points: 4
#     Node 8, Type 0, BuildingBlock: QUQFOY_clean_sbu_1, # of connection points: 4
#     Node 9, Type 0, BuildingBlock: QUQFOY_clean_sbu_1, # of connection points: 4
#     Node 10, Type 0, BuildingBlock: QUQFOY_clean_sbu_1, # of connection points: 4
#     Node 11, Type 0, BuildingBlock: QUQFOY_clean_sbu_1, # of connection points: 4
#     Node 12, Type 0, BuildingBlock: QUQFOY_clean_sbu_1, # of connection points: 4
#     Node 13, Type 0, BuildingBlock: QUQFOY_clean_sbu_1, # of connection points: 4
#     Node 14, Type 0, BuildingBlock: QUQFOY_clean_sbu_1, # of connection points: 4
#     Node 15, Type 0, BuildingBlock: QUQFOY_clean_sbu_1, # of connection points: 4
#     Node 16, Type 0, BuildingBlock: QUQFOY_clean_sbu_1, # of connection points: 4
#     Node 17, Type 0, BuildingBlock: QUQFOY_clean_sbu_1, # of connection points: 4
#     Node 18, Type 0, BuildingBlock: QUQFOY_clean_sbu_1, # of connection points: 4
#     Node 19, Type 0, BuildingBlock: QUQFOY_clean_sbu_1, # of connection points: 4
#     Node 20, Type 0, BuildingBlock: QUQFOY_clean_sbu_1, # of connection points: 4
#     Node 21, Type 0, BuildingBlock: QUQFOY_clean_sbu_1, # of connection points: 4
#     Node 22, Type 0, BuildingBlock: QUQFOY_clean_sbu_1, # of connection points: 4
#     Node 23, Type 0, BuildingBlock: QUQFOY_clean_sbu_1, # of connection points: 4
#     Node 24, Type 1, BuildingBlock: MIFKUJ_clean_sbu_0, # of connection points: 6
#     Node 25, Type 1, BuildingBlock: MIFKUJ_clean_sbu_0, # of connection points: 6
#     Node 26, Type 1, BuildingBlock: MIFKUJ_clean_sbu_0, # of connection points: 6
#     Node 27, Type 1, BuildingBlock: MIFKUJ_clean_sbu_0, # of connection points: 6
#     Node 28, Type 1, BuildingBlock: MIFKUJ_clean_sbu_0, # of connection points: 6
#     Node 29, Type 1, BuildingBlock: MIFKUJ_clean_sbu_0, # of connection points: 6
#     Node 30, Type 1, BuildingBlock: MIFKUJ_clean_sbu_0, # of connection points: 6
#     Node 31, Type 1, BuildingBlock: MIFKUJ_clean_sbu_0, # of connection points: 6
#     Node 32, Type 1, BuildingBlock: MIFKUJ_clean_sbu_0, # of connection points: 6
#     Node 33, Type 1, BuildingBlock: MIFKUJ_clean_sbu_0, # of connection points: 6
#     Node 34, Type 1, BuildingBlock: MIFKUJ_clean_sbu_0, # of connection points: 6
#     Node 35, Type 1, BuildingBlock: MIFKUJ_clean_sbu_0, # of connection points: 6
#     Node 36, Type 1, BuildingBlock: MIFKUJ_clean_sbu_0, # of connection points: 6
#     Node 37, Type 1, BuildingBlock: MIFKUJ_clean_sbu_0, # of connection points: 6
#     Node 38, Type 1, BuildingBlock: MIFKUJ_clean_sbu_0, # of connection points: 6
#     Node 39, Type 1, BuildingBlock: MIFKUJ_clean_sbu_0, # of connection points: 6
#     Edge 40, Type (0, 1), BuildingBlock: UVAHIK_clean_linker_0, # of connection points: 2
#     Edge 41, Type (0, 1), BuildingBlock: UVAHIK_clean_linker_0, # of connection points: 2
#     Edge 42, Type (0, 1), BuildingBlock: UVAHIK_clean_linker_0, # of connection points: 2
#     Edge 43, Type (0, 1), BuildingBlock: UVAHIK_clean_linker_0, # of connection points: 2
#     Edge 44, Type (0, 1), BuildingBlock: UVAHIK_clean_linker_0, # of connection points: 2
#     Edge 45, Type (0, 1), BuildingBlock: UVAHIK_clean_linker_0, # of connection points: 2
#     Edge 46, Type (0, 1), BuildingBlock: UVAHIK_clean_linker_0, # of connection points: 2
#     Edge 47, Type (0, 1), BuildingBlock: UVAHIK_clean_linker_0, # of connection points: 2
#     Edge 48, Type (0, 1), BuildingBlock: UVAHIK_clean_linker_0, # of connection points: 2
#     Edge 49, Type (0, 1), BuildingBlock: UVAHIK_clean_linker_0, # of connection points: 2
#     Edge 50, Type (0, 1), BuildingBlock: UVAHIK_clean_linker_0, # of connection points: 2
#     Edge 51, Type (0, 1), BuildingBlock: UVAHIK_clean_linker_0, # of connection points: 2
#     Edge 52, Type (0, 1), BuildingBlock: UVAHIK_clean_linker_0, # of connection points: 2
#     Edge 53, Type (0, 1), BuildingBlock: UVAHIK_clean_linker_0, # of connection points: 2
#     Edge 54, Type (0, 1), BuildingBlock: UVAHIK_clean_linker_0, # of connection points: 2
#     Edge 55, Type (0, 1), BuildingBlock: UVAHIK_clean_linker_0, # of connection points: 2
#     Edge 56, Type (0, 1), BuildingBlock: UVAHIK_clean_linker_0, # of connection points: 2
#     Edge 57, Type (0, 1), BuildingBlock: UVAHIK_clean_linker_0, # of connection points: 2
#     Edge 58, Type (0, 1), BuildingBlock: UVAHIK_clean_linker_0, # of connection points: 2
#     Edge 59, Type (0, 1), BuildingBlock: UVAHIK_clean_linker_0, # of connection points: 2
#     Edge 60, Type (0, 1), BuildingBlock: UVAHIK_clean_linker_0, # of connection points: 2
#     Edge 61, Type (0, 1), BuildingBlock: UVAHIK_clean_linker_0, # of connection points: 2
#     Edge 62, Type (0, 1), BuildingBlock: UVAHIK_clean_linker_0, # of connection points: 2
#     Edge 63, Type (0, 1), BuildingBlock: UVAHIK_clean_linker_0, # of connection points: 2
#     Edge 64, Type (0, 1), BuildingBlock: UVAHIK_clean_linker_0, # of connection points: 2
#     Edge 65, Type (0, 1), BuildingBlock: UVAHIK_clean_linker_0, # of connection points: 2
#     Edge 66, Type (0, 1), BuildingBlock: UVAHIK_clean_linker_0, # of connection points: 2
#     Edge 67, Type (0, 1), BuildingBlock: UVAHIK_clean_linker_0, # of connection points: 2
#     Edge 68, Type (0, 1), BuildingBlock: UVAHIK_clean_linker_0, # of connection points: 2
#     Edge 69, Type (0, 1), BuildingBlock: UVAHIK_clean_linker_0, # of connection points: 2
#     Edge 70, Type (0, 1), BuildingBlock: UVAHIK_clean_linker_0, # of connection points: 2
#     Edge 71, Type (0, 1), BuildingBlock: UVAHIK_clean_linker_0, # of connection points: 2
#     Edge 72, Type (0, 1), BuildingBlock: UVAHIK_clean_linker_0, # of connection points: 2
#     Edge 73, Type (0, 1), BuildingBlock: UVAHIK_clean_linker_0, # of connection points: 2
#     Edge 74, Type (0, 1), BuildingBlock: UVAHIK_clean_linker_0, # of connection points: 2
#     Edge 75, Type (0, 1), BuildingBlock: UVAHIK_clean_linker_0, # of connection points: 2
#     Edge 76, Type (0, 1), BuildingBlock: UVAHIK_clean_linker_0, # of connection points: 2
#     Edge 77, Type (0, 1), BuildingBlock: UVAHIK_clean_linker_0, # of connection points: 2
#     Edge 78, Type (0, 1), BuildingBlock: UVAHIK_clean_linker_0, # of connection points: 2
#     Edge 79, Type (0, 1), BuildingBlock: UVAHIK_clean_linker_0, # of connection points: 2
#     Edge 80, Type (0, 1), BuildingBlock: UVAHIK_clean_linker_0, # of connection points: 2
#     Edge 81, Type (0, 1), BuildingBlock: UVAHIK_clean_linker_0, # of connection points: 2
#     Edge 82, Type (0, 1), BuildingBlock: UVAHIK_clean_linker_0, # of connection points: 2
#     Edge 83, Type (0, 1), BuildingBlock: UVAHIK_clean_linker_0, # of connection points: 2
#     Edge 84, Type (0, 1), BuildingBlock: UVAHIK_clean_linker_0, # of connection points: 2
#     Edge 85, Type (0, 1), BuildingBlock: UVAHIK_clean_linker_0, # of connection points: 2
#     Edge 86, Type (0, 1), BuildingBlock: UVAHIK_clean_linker_0, # of connection points: 2
#     Edge 87, Type (0, 1), BuildingBlock: UVAHIK_clean_linker_0, # of connection points: 2
#     Edge 88, Type (0, 1), BuildingBlock: UVAHIK_clean_linker_0, # of connection points: 2
#     Edge 89, Type (0, 1), BuildingBlock: UVAHIK_clean_linker_0, # of connection points: 2
#     Edge 90, Type (0, 1), BuildingBlock: UVAHIK_clean_linker_0, # of connection points: 2
#     Edge 91, Type (0, 1), BuildingBlock: UVAHIK_clean_linker_0, # of connection points: 2
#     Edge 92, Type (0, 1), BuildingBlock: UVAHIK_clean_linker_0, # of connection points: 2
#     Edge 93, Type (0, 1), BuildingBlock: UVAHIK_clean_linker_0, # of connection points: 2
#     Edge 94, Type (0, 1), BuildingBlock: UVAHIK_clean_linker_0, # of connection points: 2
#     Edge 95, Type (0, 1), BuildingBlock: UVAHIK_clean_linker_0, # of connection points: 2
#     Edge 96, Type (0, 1), BuildingBlock: UVAHIK_clean_linker_0, # of connection points: 2
#     Edge 97, Type (0, 1), BuildingBlock: UVAHIK_clean_linker_0, # of connection points: 2
#     Edge 98, Type (0, 1), BuildingBlock: UVAHIK_clean_linker_0, # of connection points: 2
#     Edge 99, Type (0, 1), BuildingBlock: UVAHIK_clean_linker_0, # of connection points: 2
#     Edge 100, Type (0, 1), BuildingBlock: UVAHIK_clean_linker_0, # of connection points: 2
#     Edge 101, Type (0, 1), BuildingBlock: UVAHIK_clean_linker_0, # of connection points: 2
#     Edge 102, Type (0, 1), BuildingBlock: UVAHIK_clean_linker_0, # of connection points: 2
#     Edge 103, Type (0, 1), BuildingBlock: UVAHIK_clean_linker_0, # of connection points: 2
#     Edge 104, Type (0, 1), BuildingBlock: UVAHIK_clean_linker_0, # of connection points: 2
#     Edge 105, Type (0, 1), BuildingBlock: UVAHIK_clean_linker_0, # of connection points: 2
#     Edge 106, Type (0, 1), BuildingBlock: UVAHIK_clean_linker_0, # of connection points: 2
#     Edge 107, Type (0, 1), BuildingBlock: UVAHIK_clean_linker_0, # of connection points: 2
#     Edge 108, Type (0, 1), BuildingBlock: UVAHIK_clean_linker_0, # of connection points: 2
#     Edge 109, Type (0, 1), BuildingBlock: UVAHIK_clean_linker_0, # of connection points: 2
#     Edge 110, Type (0, 1), BuildingBlock: UVAHIK_clean_linker_0, # of connection points: 2
#     Edge 111, Type (0, 1), BuildingBlock: UVAHIK_clean_linker_0, # of connection points: 2
#     Edge 112, Type (0, 1), BuildingBlock: UVAHIK_clean_linker_0, # of connection points: 2
#     Edge 113, Type (0, 1), BuildingBlock: UVAHIK_clean_linker_0, # of connection points: 2
#     Edge 114, Type (0, 1), BuildingBlock: UVAHIK_clean_linker_0, # of connection points: 2
#     Edge 115, Type (0, 1), BuildingBlock: UVAHIK_clean_linker_0, # of connection points: 2
#     Edge 116, Type (0, 1), BuildingBlock: UVAHIK_clean_linker_0, # of connection points: 2
#     Edge 117, Type (0, 1), BuildingBlock: UVAHIK_clean_linker_0, # of connection points: 2
#     Edge 118, Type (0, 1), BuildingBlock: UVAHIK_clean_linker_0, # of connection points: 2
#     Edge 119, Type (0, 1), BuildingBlock: UVAHIK_clean_linker_0, # of connection points: 2
#     Edge 120, Type (0, 1), BuildingBlock: UVAHIK_clean_linker_0, # of connection points: 2
#     Edge 121, Type (0, 1), BuildingBlock: UVAHIK_clean_linker_0, # of connection points: 2
#     Edge 122, Type (0, 1), BuildingBlock: UVAHIK_clean_linker_0, # of connection points: 2
#     Edge 123, Type (0, 1), BuildingBlock: UVAHIK_clean_linker_0, # of connection points: 2
#     Edge 124, Type (0, 1), BuildingBlock: UVAHIK_clean_linker_0, # of connection points: 2
#     Edge 125, Type (0, 1), BuildingBlock: UVAHIK_clean_linker_0, # of connection points: 2
#     Edge 126, Type (0, 1), BuildingBlock: UVAHIK_clean_linker_0, # of connection points: 2
#     Edge 127, Type (0, 1), BuildingBlock: UVAHIK_clean_linker_0, # of connection points: 2
#     Edge 128, Type (0, 1), BuildingBlock: UVAHIK_clean_linker_0, # of connection points: 2
#     Edge 129, Type (0, 1), BuildingBlock: UVAHIK_clean_linker_0, # of connection points: 2
#     Edge 130, Type (0, 1), BuildingBlock: UVAHIK_clean_linker_0, # of connection points: 2
#     Edge 131, Type (0, 1), BuildingBlock: UVAHIK_clean_linker_0, # of connection points: 2
#     Edge 132, Type (0, 1), BuildingBlock: UVAHIK_clean_linker_0, # of connection points: 2
#     Edge 133, Type (0, 1), BuildingBlock: UVAHIK_clean_linker_0, # of connection points: 2
#     Edge 134, Type (0, 1), BuildingBlock: UVAHIK_clean_linker_0, # of connection points: 2
#     Edge 135, Type (0, 1), BuildingBlock: UVAHIK_clean_linker_0, # of connection points: 2
# Relax obj value: 0.111
# Max RMSD: 0.274
# Mean RMSD: 0.168
data_MOF--net-gar--node1-QUQFOY_clean_sbu_1--node2-MIFKUJ_clean_sbu_0--edge1-UVAHIK_clean_linker_0
_symmetry_space_group_name_H-M    P1
_symmetry_Int_Tables_number       1
_symmetry_cell_setting            triclinic
loop_
_symmetry_equiv_pos_as_xyz
'x, y, z'
_cell_length_a     72.949349
_cell_length_b     72.960782
_cell_length_c     70.534862
_cell_angle_alpha  94.875462
_cell_angle_beta   94.874726
_cell_angle_gamma 101.20563
loop_
_atom_site_label
_atom_site_type_symbol
_atom_site_fract_x
_atom_site_fract_y
_atom_site_fract_z
_atom_type_partial_charge
O0 O 0.01023 0.22929 0.39622 0.0
Cd1 Cd 0.01376 0.25175 0.38003 0.0
Cd2 Cd 0.00831 0.27094 0.41324 0.0
O3 O 0.01021 0.24592 0.42376 0.0
O4 O 0.02704 0.244 0.35817 0.0
O5 O 0.03955 0.26757 0.38024 0.0
C6 C 0.04121 0.25706 0.36502 0.0
C7 C 0.02333 0.29807 0.43255 0.0
C8 C 0.00993 0.2303 0.41425 0.0
C9 C 0.97962 0.26851 0.37919 0.0
O10 O 0.98393 0.27283 0.39707 0.0
O11 O 0.99026 0.26072 0.36923 0.0
O12 O 0.00848 0.28744 0.43714 0.0
O13 O 0.02988 0.29331 0.41683 0.0
O14 O 0.98536 0.7116 0.63395 0.0
Cd15 Cd 0.99346 0.7361 0.65218 0.0
Cd16 Cd 0.00728 0.75086 0.62114 0.0
O17 O 0.9945 0.72453 0.60829 0.0
O18 O 0.97724 0.73485 0.67355 0.0
O19 O 0.97722 0.75535 0.65211 0.0
C20 C 0.97069 0.7486 0.66711 0.0
C21 C 0.00354 0.77622 0.60419 0.0
C22 C 0.98689 0.7103 0.61609 0.0
C23 C 0.03501 0.74973 0.65517 0.0
O24 O 0.03244 0.75363 0.63804 0.0
O25 O 0.0211 0.74294 0.66388 0.0
O26 O 0.01401 0.76483 0.59885 0.0
O27 O 0.99507 0.77325 0.61932 0.0
O28 O 0.55353 0.75512 0.88714 0.0
Cd29 Cd 0.53343 0.75984 0.90475 0.0
Cd30 Cd 0.5189 0.7727 0.87312 0.0
O31 O 0.54059 0.76349 0.86069 0.0
O32 O 0.53703 0.7452 0.92674 0.0
O33 O 0.51107 0.73934 0.90666 0.0
C34 C 0.52044 0.73527 0.92156 0.0
C35 C 0.4881 0.76377 0.85883 0.0
C36 C 0.55362 0.75716 0.86943 0.0
C37 C 0.53047 0.80017 0.90835 0.0
O38 O 0.52461 0.79767 0.89065 0.0
O39 O 0.53449 0.78664 0.91693 0.0
O40 O 0.50028 0.77613 0.85208 0.0
O41 O 0.49364 0.7559 0.87342 0.0
O42 O 0.48294 0.21224 0.13176 0.0
Cd43 Cd 0.49081 0.2365 0.15031 0.0
Cd44 Cd 0.50578 0.25126 0.12009 0.0
O45 O 0.49316 0.2252 0.10649 0.0
O46 O 0.4737 0.23561 0.1709 0.0
O47 O 0.47515 0.25618 0.1494 0.0
C48 C 0.46784 0.24957 0.16409 0.0
C49 C 0.50251 0.27747 0.10433 0.0
C50 C 0.48506 0.211 0.11402 0.0
C51 C 0.53235 0.24921 0.15476 0.0
O52 O 0.53037 0.25334 0.13766 0.0
O53 O 0.51806 0.24268 0.16304 0.0
O54 O 0.5135 0.26661 0.09899 0.0
O55 O 0.49319 0.27337 0.11868 0.0
O56 O 0.01922 0.73758 0.14281 0.0
Cd57 Cd 0.0202 0.76112 0.16156 0.0
Cd58 Cd 0.03845 0.77826 0.13434 0.0
O59 O 0.03442 0.75147 0.1205 0.0
O60 O 0.00238 0.75252 0.18039 0.0
O61 O 0.99879 0.77484 0.16192 0.0
C62 C 0.99285 0.76468 0.17515 0.0
C63 C 0.02719 0.80131 0.11865 0.0
C64 C 0.02613 0.73663 0.12688 0.0
C65 C 0.06009 0.78149 0.17289 0.0
O66 O 0.06044 0.78594 0.15586 0.0
O67 O 0.04525 0.77182 0.17803 0.0
O68 O 0.04265 0.7964 0.11483 0.0
O69 O 0.01807 0.79309 0.13155 0.0
O70 O 0.54787 0.75411 0.38931 0.0
Cd71 Cd 0.52699 0.75254 0.40756 0.0
Cd72 Cd 0.50562 0.75809 0.37583 0.0
O73 O 0.52934 0.75503 0.36321 0.0
O74 O 0.53376 0.73786 0.4287 0.0
O75 O 0.50924 0.72777 0.40702 0.0
C76 C 0.51957 0.72481 0.42182 0.0
C77 C 0.47688 0.74462 0.35823 0.0
C78 C 0.54538 0.75434 0.37128 0.0
C79 C 0.51199 0.78774 0.40976 0.0
O80 O 0.50584 0.78288 0.3923 0.0
O81 O 0.52036 0.77713 0.41918 0.0
O82 O 0.48767 0.75925 0.3534 0.0
O83 O 0.48252 0.73729 0.37314 0.0
O84 O 0.51595 0.24012 0.63895 0.0
Cd85 Cd 0.51881 0.26354 0.65837 0.0
Cd86 Cd 0.54028 0.27939 0.63141 0.0
O87 O 0.5334 0.25251 0.61741 0.0
O88 O 0.50106 0.2547 0.67716 0.0
O89 O 0.4981 0.27819 0.66013 0.0
C90 C 0.49197 0.26749 0.67287 0.0
C91 C 0.5343 0.3043 0.61476 0.0
C92 C 0.52315 0.2384 0.62327 0.0
C93 C 0.55975 0.28038 0.67075 0.0
O94 O 0.56145 0.28466 0.65379 0.0
O95 O 0.54395 0.2722 0.67528 0.0
O96 O 0.54841 0.29654 0.61184 0.0
O97 O 0.52347 0.29788 0.62731 0.0
O98 O 0.01476 0.20908 0.88078 0.0
Cd99 Cd 0.00908 0.22809 0.8621 0.0
Cd100 Cd 0.99371 0.24111 0.89363 0.0
O101 O 0.00464 0.22089 0.9068 0.0
O102 O 0.02291 0.22217 0.84008 0.0
O103 O 0.0297 0.2496 0.85771 0.0
C104 C 0.03318 0.23879 0.84356 0.0
C105 C -0.00031 0.27196 0.90775 0.0
C106 C 0.0124 0.20877 0.89841 0.0
C107 C 0.96773 0.22825 0.85772 0.0
O108 O 0.9692 0.23314 0.87559 0.0
O109 O 0.98213 0.22621 0.84949 0.0
O110 O 0.98797 0.25889 0.91412 0.0
O111 O 0.00861 0.26734 0.8936 0.0
O112 O 0.39278 0.01973 0.2273 0.0
Cd113 Cd 0.37295 0.02112 0.24608 0.0
Cd114 Cd 0.40196 0.02051 0.27383 0.0
O115 O 0.41619 0.02181 0.24982 0.0
O116 O 0.35361 0.03357 0.23422 0.0
O117 O 0.37209 0.04551 0.26081 0.0
C118 C 0.35883 0.04694 0.24796 0.0
C119 C 0.42122 0.03472 0.3015 0.0
C120 C 0.4101 0.02072 0.23228 0.0
C121 C 0.36743 0.98849 0.26871 0.0
O122 O 0.38348 0.9959 0.27743 0.0
O123 O 0.36024 0.99644 0.25546 0.0
O124 O 0.4233 0.01923 0.29269 0.0
O125 O 0.40779 0.0423 0.29479 0.0
O126 O 0.27021 0.13756 0.53834 0.0
Cd127 Cd 0.26688 0.11935 0.51362 0.0
Cd128 Cd 0.25436 0.14878 0.4983 0.0
O129 O 0.26166 0.16166 0.52578 0.0
O130 O 0.2804 0.09934 0.52089 0.0
O131 O 0.28882 0.11773 0.49846 0.0
C132 C 0.2917 0.10421 0.50829 0.0
C133 C 0.26401 0.16591 0.47313 0.0
C134 C 0.26744 0.15427 0.54021 0.0
C135 C 0.22672 0.11199 0.49634 0.0
O136 O 0.22947 0.1292 0.49333 0.0
O137 O 0.24005 0.10511 0.5037 0.0
O138 O 0.25074 0.16963 0.48282 0.0
O139 O 0.27196 0.15233 0.47775 0.0
O140 O 0.13563 0.00286 0.74838 0.0
Cd141 Cd 0.15615 0.00565 0.77111 0.0
Cd142 Cd 0.13017 0.02232 0.78942 0.0
O143 O 0.1164 0.01848 0.76214 0.0
O144 O 0.17415 0.99064 0.76134 0.0
O145 O 0.15867 0.9838 0.78623 0.0
C146 C 0.17055 0.9799 0.7747 0.0
C147 C 0.1122 0.01305 0.8142 0.0
C148 C 0.12086 0.0097 0.74746 0.0
C149 C 0.16878 0.0459 0.78902 0.0
O150 O 0.15278 0.04459 0.79528 0.0
O151 O 0.17267 0.03209 0.77902 0.0
O152 O 0.11125 0.02828 0.80649 0.0
O153 O 0.1236 0.003 0.80791 0.0
O154 O 0.24797 0.86902 0.05561 0.0
Cd155 Cd 0.24615 0.88801 0.03603 0.0
Cd156 Cd 0.24769 0.85793 0.00907 0.0
O157 O 0.2451 0.84484 0.0338 0.0
O158 O 0.23423 0.90794 0.04752 0.0
O159 O 0.22123 0.88829 0.02206 0.0
C160 C 0.22033 0.90215 0.03443 0.0
C161 C 0.23548 0.83742 0.98163 0.0
C162 C 0.24641 0.85153 0.05118 0.0
C163 C 0.27909 0.89302 0.01362 0.0
O164 O 0.27239 0.87645 0.00577 0.0
O165 O 0.2705 0.90061 0.02603 0.0
O166 O 0.25023 0.83569 0.99206 0.0
O167 O 0.22743 0.85108 0.98657 0.0
O168 O 0.24202 0.37778 0.07331 0.0
Cd169 Cd 0.24852 0.39794 0.05472 0.0
Cd170 Cd 0.25949 0.36856 0.03452 0.0
O171 O 0.24844 0.35365 0.05597 0.0
O172 O 0.23546 0.41835 0.06294 0.0
O173 O 0.22914 0.40219 0.03436 0.0
C174 C 0.2259 0.4153 0.04635 0.0
C175 C 0.25296 0.35546 0.00269 0.0
C176 C 0.24265 0.36044 0.071 0.0
C177 C 0.28915 0.40328 0.04848 0.0
O178 O 0.28534 0.38646 0.04063 0.0
O179 O 0.27626 0.41085 0.0547 0.0
O180 O 0.26397 0.34925 0.01471 0.0
O181 O 0.24504 0.36884 0.00892 0.0
O182 O 0.79579 0.1449 0.06774 0.0
Cd183 Cd 0.78543 0.12519 0.04458 0.0
Cd184 Cd 0.77431 0.15417 0.02893 0.0
O185 O 0.78656 0.1684 0.05466 0.0
O186 O 0.7997 0.10465 0.04538 0.0
O187 O 0.80028 0.12328 0.02211 0.0
C188 C 0.80578 0.10937 0.02947 0.0
C189 C 0.77929 0.17003 0.00187 0.0
C190 C 0.79449 0.16207 0.0687 0.0
C191 C 0.74429 0.12069 0.03445 0.0
O192 O 0.7484 0.13678 0.02848 0.0
O193 O 0.75716 0.1131 0.04163 0.0
O194 O 0.76845 0.17465 0.01413 0.0
O195 O 0.78755 0.15628 0.00502 0.0
O196 O 0.11884 0.47782 0.21339 0.0
Cd197 Cd 0.14029 0.48899 0.23474 0.0
Cd198 Cd 0.11254 0.50057 0.25241 0.0
O199 O 0.09614 0.48604 0.22873 0.0
O200 O 0.16093 0.4753 0.23107 0.0
O201 O 0.14568 0.47462 0.25694 0.0
C202 C 0.15864 0.46943 0.24762 0.0
C203 C 0.10077 0.49758 0.2819 0.0
C204 C 0.10154 0.47809 0.21411 0.0
C205 C 0.14438 0.53033 0.24291 0.0
O206 O 0.12867 0.52649 0.24969 0.0
O207 O 0.15196 0.51724 0.23624 0.0
O208 O 0.09383 0.50688 0.26937 0.0
O209 O 0.11439 0.48958 0.27755 0.0
O210 O 0.74087 0.88172 0.57249 0.0
Cd211 Cd 0.74584 0.90082 0.55252 0.0
Cd212 Cd 0.75491 0.87016 0.532 0.0
O213 O 0.74562 0.8568 0.55508 0.0
O214 O 0.73328 0.92173 0.56043 0.0
O215 O 0.72512 0.90378 0.53296 0.0
C216 C 0.72265 0.91765 0.54447 0.0
C217 C 0.74722 0.85444 0.50122 0.0
C218 C 0.74119 0.8643 0.57052 0.0
C219 C 0.78534 0.90518 0.54253 0.0
O220 O 0.78078 0.88814 0.53542 0.0
O221 O 0.77328 0.91326 0.54982 0.0
O222 O 0.75889 0.84946 0.51353 0.0
O223 O 0.73922 0.86804 0.50663 0.0
O224 O 0.88963 0.02799 0.20998 0.0
Cd225 Cd 0.87023 0.02252 0.22962 0.0
Cd226 Cd 0.90014 0.01128 0.24904 0.0
O227 O 0.91408 0.02128 0.22657 0.0
O228 O 0.84958 0.03545 0.22174 0.0
O229 O 0.86704 0.04291 0.24953 0.0
C230 C 0.85341 0.04572 0.23792 0.0
C231 C 0.91476 0.01789 0.28032 0.0
C232 C 0.90687 0.02686 0.21162 0.0
C233 C 0.86461 0.98207 0.23702 0.0
O234 O 0.88167 0.98573 0.24413 0.0
O235 O 0.85703 0.99497 0.23082 0.0
O236 O 0.92014 0.00657 0.26795 0.0
O237 O 0.90142 0.02615 0.27471 0.0
O238 O 0.30287 0.64658 0.5681 0.0
Cd239 Cd 0.29309 0.62405 0.54759 0.0
Cd240 Cd 0.28229 0.65144 0.52587 0.0
O241 O 0.29452 0.66783 0.55057 0.0
O242 O 0.30654 0.60357 0.55297 0.0
O243 O 0.30851 0.61796 0.52656 0.0
C244 C 0.31306 0.60519 0.53662 0.0
C245 C 0.28316 0.6675 0.4985 0.0
C246 C 0.30187 0.66353 0.56612 0.0
C247 C 0.2524 0.61871 0.53515 0.0
O248 O 0.25698 0.6333 0.52661 0.0
O249 O 0.26481 0.61241 0.54487 0.0
O250 O 0.27257 0.67046 0.51158 0.0
O251 O 0.2937 0.65542 0.50091 0.0
O252 O 0.39321 0.53063 0.70743 0.0
Cd253 Cd 0.37174 0.52446 0.72477 0.0
Cd254 Cd 0.40024 0.51399 0.7477 0.0
O255 O 0.41606 0.52398 0.72651 0.0
O256 O 0.35182 0.53753 0.71512 0.0
O257 O 0.36664 0.54415 0.74432 0.0
C258 C 0.35413 0.5473 0.73157 0.0
C259 C 0.41346 0.51985 0.77955 0.0
C260 C 0.41036 0.52962 0.71094 0.0
C261 C 0.36579 0.48419 0.73269 0.0
O262 O 0.38211 0.48839 0.74172 0.0
O263 O 0.35865 0.49668 0.72503 0.0
O264 O 0.41922 0.50866 0.76736 0.0
O265 O 0.4005 0.52838 0.7735 0.0
O266 O 0.62328 0.97393 0.71087 0.0
Cd267 Cd 0.64537 0.98396 0.73179 0.0
Cd268 Cd 0.61814 0.9953 0.7521 0.0
O269 O 0.60159 0.98201 0.72792 0.0
O270 O 0.66606 0.97077 0.72668 0.0
O271 O 0.65117 0.96835 0.75276 0.0
C272 C 0.66417 0.96403 0.7429 0.0
C273 C 0.60418 0.99327 0.78064 0.0
C274 C 0.6062 0.97458 0.71257 0.0
C275 C 0.65043 0.02504 0.74278 0.0
O276 O 0.63526 0.02098 0.75049 0.0
O277 O 0.6572 0.01218 0.73438 0.0
O278 O 0.59893 0.00301 0.76762 0.0
O279 O 0.61736 0.98426 0.77739 0.0
O280 O 0.76647 0.63752 0.03803 0.0
Cd281 Cd 0.76456 0.61992 0.0131 0.0
Cd282 Cd 0.75224 0.64943 0.99776 0.0
O283 O 0.75794 0.66172 0.02563 0.0
O284 O 0.77872 0.60035 0.02027 0.0
O285 O 0.78734 0.61985 0.99882 0.0
C286 C 0.79045 0.60621 0.00837 0.0
C287 C 0.76223 0.66771 0.97343 0.0
C288 C 0.76327 0.65406 0.04007 0.0
C289 C 0.72506 0.61197 0.99425 0.0
O290 O 0.72788 0.62921 0.99138 0.0
O291 O 0.73818 0.60517 0.00219 0.0
O292 O 0.74805 0.67016 0.98234 0.0
O293 O 0.77097 0.6548 0.97843 0.0
O294 O 0.88107 0.51553 0.73955 0.0
Cd295 Cd 0.86532 0.51901 0.7619 0.0
Cd296 Cd 0.89649 0.51608 0.78378 0.0
O297 O 0.90709 0.51524 0.75768 0.0
O298 O 0.84462 0.53074 0.7519 0.0
O299 O 0.86692 0.54486 0.7747 0.0
C300 C 0.85205 0.5454 0.76356 0.0
C301 C 0.91598 0.53436 0.80904 0.0
C302 C 0.89832 0.51461 0.74124 0.0
C303 C 0.8619 0.48635 0.78506 0.0
O304 O 0.8793 0.49206 0.79048 0.0
O305 O 0.85337 0.49548 0.77392 0.0
O306 O 0.91977 0.51906 0.8014 0.0
O307 O 0.90095 0.5395 0.80238 0.0
O308 O 0.74366 0.38824 0.54971 0.0
Cd309 Cd 0.74675 0.40683 0.52922 0.0
Cd310 Cd 0.74953 0.37484 0.50568 0.0
O311 O 0.74725 0.36352 0.53128 0.0
O312 O 0.73777 0.42901 0.54041 0.0
O313 O 0.72424 0.41188 0.51362 0.0
C314 C 0.7247 0.42585 0.52634 0.0
C315 C 0.73433 0.35447 0.47935 0.0
C316 C 0.74473 0.37105 0.54747 0.0
C317 C 0.78192 0.40823 0.50958 0.0
O318 O 0.77457 0.39191 0.5015 0.0
O319 O 0.77332 0.41653 0.5215 0.0
O320 O 0.7491 0.35151 0.48888 0.0
O321 O 0.72811 0.36933 0.48449 0.0
O322 O 0.6372 0.5037 0.24476 0.0
Cd323 Cd 0.65578 0.5051 0.26883 0.0
Cd324 Cd 0.62846 0.52079 0.28543 0.0
O325 O 0.61533 0.51601 0.25782 0.0
O326 O 0.67428 0.49027 0.26004 0.0
O327 O 0.6563 0.48223 0.28289 0.0
C328 C 0.66911 0.47874 0.27234 0.0
C329 C 0.61051 0.51098 0.31001 0.0
C330 C 0.62155 0.50892 0.24321 0.0
C331 C 0.66731 0.54484 0.28778 0.0
O332 O 0.65048 0.54369 0.29181 0.0
O333 O 0.67219 0.53092 0.27898 0.0
O334 O 0.60874 0.5258 0.30189 0.0
O335 O 0.62263 0.50159 0.30416 0.0
Zn336 Zn 0.02445 0.99767 0.02268 0.0
Zn337 Zn 0.99078 0.01149 -0.00063 0.0
C338 C 0.00806 0.96947 0.04339 0.0
O339 O 0.01731 0.98267 0.0565 0.0
C340 C 0.01092 0.03922 0.97962 0.0
O341 O 0.00259 0.02658 0.96558 0.0
O342 O 0.05013 0.99328 0.03168 0.0
O343 O 0.02706 0.00169 0.99508 0.0
O344 O 0.99809 0.99097 0.98218 0.0
C345 C 0.05336 0.97911 0.02165 0.0
O346 O 0.04041 0.97028 0.00809 0.0
O347 O 0.00759 0.97281 0.02595 0.0
C348 C 0.96302 0.03213 0.99738 0.0
O349 O 0.97614 0.04195 0.01024 0.0
O350 O 0.96565 0.01667 0.98939 0.0
O351 O 0.98767 0.00817 0.02705 0.0
O352 O 0.01687 0.01768 0.04014 0.0
O353 O 0.00885 0.0358 0.99677 0.0
C354 C 0.01567 0.99347 0.98092 0.0
C355 C 0.99932 0.01599 0.04121 0.0
Zn356 Zn 0.26185 0.75708 0.2917 0.0
Zn357 Zn 0.27006 0.75785 0.25228 0.0
C358 C 0.23413 0.72332 0.28417 0.0
O359 O 0.22447 0.7339 0.29348 0.0
C360 C 0.29663 0.7925 0.25979 0.0
O361 O 0.30647 0.7827 0.24975 0.0
O362 O 0.25943 0.75788 0.31995 0.0
O363 O 0.28966 0.76128 0.28951 0.0
O364 O 0.28582 0.74107 0.26403 0.0
C365 C 0.27322 0.76589 0.33199 0.0
O366 O 0.28802 0.77611 0.32593 0.0
O367 O 0.25099 0.73021 0.28157 0.0
C368 C 0.26276 0.74855 0.21099 0.0
O369 O 0.24862 0.73579 0.21492 0.0
O370 O 0.27386 0.75831 0.2246 0.0
O371 O 0.24217 0.75283 0.25348 0.0
O372 O 0.2454 0.77298 0.27909 0.0
O373 O 0.28033 0.78464 0.26328 0.0
C374 C 0.29549 0.74872 0.2795 0.0
C375 C 0.23576 0.76481 0.26374 0.0
Zn376 Zn 0.49098 0.01574 0.51278 0.0
Zn377 Zn 0.53119 0.01164 0.50674 0.0
C378 C 0.49853 0.04782 0.53894 0.0
O379 O 0.48742 0.03557 0.54763 0.0
C380 C 0.51974 0.97815 0.48088 0.0
O381 O 0.52799 0.98933 0.46911 0.0
O382 O 0.46329 0.01638 0.51213 0.0
O383 O 0.49526 0.01037 0.48543 0.0
O384 O 0.52297 0.02896 0.48816 0.0
C385 C 0.45902 0.02861 0.50162 0.0
O386 O 0.47224 0.03823 0.49277 0.0
O387 O 0.50349 0.04244 0.52288 0.0
C388 C 0.57082 0.01441 0.5199 0.0
O389 O 0.56614 0.02125 0.53622 0.0
O390 O 0.55863 0.01077 0.50537 0.0
O391 O 0.52708 0.01635 0.53451 0.0
O392 O 0.49874 0.99848 0.53136 0.0
O393 O 0.51851 0.9848 0.49786 0.0
C394 C 0.50704 0.02266 0.47872 0.0
C395 C 0.51446 0.00483 0.54122 0.0
Zn396 Zn 0.28434 0.2645 0.766 0.0
Zn397 Zn 0.24425 0.27054 0.76838 0.0
C398 C 0.27814 0.23931 0.73332 0.0
O399 O 0.28635 0.23068 0.74616 0.0
C400 C 0.24785 0.29535 0.80201 0.0
O401 O 0.24007 0.30461 0.78947 0.0
O402 O 0.31216 0.26493 0.76566 0.0
O403 O 0.28281 0.29152 0.77228 0.0
O404 O 0.25779 0.28911 0.75208 0.0
C405 C 0.31925 0.27585 0.75384 0.0
O406 O 0.30841 0.28533 0.74465 0.0
O407 O 0.27446 0.25523 0.73845 0.0
C408 C 0.20329 0.25906 0.75931 0.0
O409 O 0.20659 0.24283 0.75249 0.0
O410 O 0.21702 0.27234 0.76558 0.0
O411 O 0.24546 0.24307 0.76431 0.0
O412 O 0.27211 0.24507 0.7823 0.0
O413 O 0.25216 0.27988 0.79624 0.0
C414 C 0.27333 0.2987 0.76007 0.0
C415 C 0.25616 0.23558 0.77508 0.0
Zn416 Zn 0.01214 0.98731 0.52214 0.0
Zn417 Zn 0.00182 0.02532 0.51301 0.0
C418 C 0.03647 0.00154 0.5553 0.0
O419 O 0.04793 0.99575 0.54384 0.0
C420 C 0.97755 0.0186 0.47949 0.0
O421 O 0.96798 0.02609 0.49194 0.0
O422 O 0.01472 0.96105 0.52614 0.0
O423 O 0.98464 0.9853 0.51426 0.0
O424 O 0.98282 0.01244 0.52924 0.0
C425 C 0.01028 0.94628 0.51448 0.0
O426 O 0.00446 0.94744 0.49656 0.0
O427 O 0.01934 0.00025 0.54902 0.0
C428 C 0.01155 0.06059 0.50182 0.0
O429 O 0.02204 0.05072 0.49283 0.0
O430 O 0.00034 0.0526 0.51287 0.0
O431 O 0.02939 0.0261 0.51951 0.0
O432 O 0.03112 0.99876 0.50499 0.0
O433 O 0.99346 0.0153 0.48534 0.0
C434 C 0.97524 0.99555 0.52315 0.0
C435 C 0.03842 0.01594 0.51002 0.0
Zn436 Zn 0.25841 0.78008 0.76445 0.0
Zn437 Zn 0.25971 0.73871 0.76645 0.0
C438 C 0.22656 0.77428 0.73795 0.0
O439 O 0.23906 0.78558 0.72973 0.0
C440 C 0.29224 0.74202 0.79198 0.0
O441 O 0.2798 0.73069 0.80025 0.0
O442 O 0.25833 0.80798 0.76667 0.0
O443 O 0.26333 0.77364 0.79123 0.0
O444 O 0.24334 0.7466 0.78614 0.0
C445 C 0.2471 0.8125 0.77827 0.0
O446 O 0.23823 0.79946 0.78787 0.0
O447 O 0.2316 0.76871 0.75381 0.0
C448 C 0.25976 0.70098 0.74955 0.0
O449 O 0.26004 0.70902 0.73358 0.0
O450 O 0.25813 0.71054 0.76504 0.0
O451 O 0.25597 0.74578 0.73957 0.0
O452 O 0.27562 0.77306 0.74534 0.0
O453 O 0.28684 0.74859 0.77681 0.0
C454 C 0.2512 0.76114 0.79726 0.0
C455 C 0.26855 0.75831 0.73416 0.0
Zn456 Zn 0.5149 0.01304 0.99548 0.0
Zn457 Zn 0.50633 5e-05 0.03333 0.0
C458 C 0.54758 0.03879 0.00928 0.0
O459 O 0.53764 0.04884 -0.0003 0.0
C460 C 0.47278 0.97302 0.02375 0.0
O461 O 0.48311 0.96327 0.03324 0.0
O462 O 0.52048 0.01608 0.96826 0.0
O463 O 0.5057 0.98541 0.99485 0.0
O464 O 0.52303 0.98416 0.02134 0.0
C465 C 0.53319 0.00712 0.96412 0.0
O466 O 0.54048 0.99826 0.97737 0.0
O467 O 0.54032 0.02172 0.01072 0.0
C468 C 0.51526 0.0051 0.07463 0.0
O469 O 0.52871 0.01892 0.07135 0.0
O470 O 0.50512 0.99497 0.0606 0.0
O471 O 0.51089 0.02826 0.03384 0.0
O472 O 0.49793 0.02965 0.00477 0.0
O473 O 0.47987 0.98989 0.02134 0.0
C474 C 0.51578 0.97672 0.0048 0.0
C475 C 0.50176 0.03643 0.02219 0.0
Zn476 Zn 0.2714 0.24801 0.25979 0.0
Zn477 Zn 0.25575 0.28444 0.28266 0.0
C478 C 0.29808 0.26679 0.237 0.0
O479 O 0.28449 0.25924 0.22355 0.0
C480 C 0.22458 0.26927 0.30139 0.0
O481 O 0.23767 0.27443 0.31585 0.0
O482 O 0.27458 0.22201 0.25022 0.0
O483 O 0.27106 0.24651 0.28801 0.0
O484 O 0.2728 0.27517 0.3022 0.0
C485 C 0.29088 0.21914 0.25526 0.0
O486 O 0.30322 0.23266 0.26544 0.0
O487 O 0.2954 0.26505 0.2544 0.0
C488 C 0.24351 0.31733 0.27885 0.0
O489 O 0.23413 0.30565 0.26453 0.0
O490 O 0.25487 0.31152 0.29046 0.0
O491 O 0.26131 0.28437 0.25502 0.0
O492 O 0.24963 0.25491 0.24436 0.0
O493 O 0.22905 0.27109 0.28451 0.0
C494 C 0.27428 0.25815 0.30294 0.0
C495 C 0.25193 0.27224 0.242 0.0
Zn496 Zn 0.50946 0.48903 0.01828 0.0
Zn497 Zn 0.4994 0.5277 0.01148 0.0
C498 C 0.53526 0.49724 0.05054 0.0
O499 O 0.5442 0.48939 0.03774 0.0
C500 C 0.47312 0.51886 0.97907 0.0
O501 O 0.46382 0.52667 0.99156 0.0
O502 O 0.51007 0.46154 0.01889 0.0
O503 O 0.48198 0.48909 0.01253 0.0
O504 O 0.48247 0.51555 0.02993 0.0
C505 C 0.50003 0.45427 0.0313 0.0
O506 O 0.49095 0.46492 0.04131 0.0
O507 O 0.51891 0.49992 0.04547 0.0
C508 C 0.50455 0.56169 0.99658 0.0
O509 O 0.51387 0.55161 0.9862 0.0
O510 O 0.4967 0.55458 0.01044 0.0
O511 O 0.52724 0.52899 0.01566 0.0
O512 O 0.52815 0.50121 0.00126 0.0
O513 O 0.48935 0.51614 0.98459 0.0
C514 C 0.47419 0.49887 0.02389 0.0
C515 C 0.53582 0.51835 0.00615 0.0
Zn516 Zn 0.75134 0.27464 0.26808 0.0
Zn517 Zn 0.75823 0.2361 0.27953 0.0
C518 C 0.72139 0.2638 0.23945 0.0
O519 O 0.73441 0.27357 0.23047 0.0
C520 C 0.79028 0.25296 0.30574 0.0
O521 O 0.77938 0.2451 0.31795 0.0
O522 O 0.7501 0.30195 0.26602 0.0
O523 O 0.75409 0.27301 0.29644 0.0
O524 O 0.73972 0.24363 0.29677 0.0
C525 C 0.7363 0.30596 0.27429 0.0
O526 O 0.72559 0.29266 0.2821 0.0
O527 O 0.72553 0.26092 0.25667 0.0
C528 C 0.7545 0.19594 0.26994 0.0
O529 O 0.74273 0.19863 0.25578 0.0
O530 O 0.76161 0.20959 0.28251 0.0
O531 O 0.75311 0.23759 0.25139 0.0
O532 O 0.77035 0.26591 0.25198 0.0
O533 O 0.78394 0.25169 0.28824 0.0
C534 C 0.74343 0.26058 0.30423 0.0
C535 C 0.76497 0.24923 0.24392 0.0
Zn536 Zn 0.02292 0.51337 0.50263 0.0
Zn537 Zn 0.01004 0.50165 0.53968 0.0
C538 C 0.0547 0.54149 0.51509 0.0
O539 O 0.04448 0.5506 0.50462 0.0
C540 C 0.97805 0.47488 0.52361 0.0
O541 O 0.98642 0.46485 0.53486 0.0
O542 O 0.02777 0.5159 0.47523 0.0
O543 O 0.01775 0.48537 0.50354 0.0
O544 O 0.02893 0.48596 0.53353 0.0
C545 C 0.04165 0.50872 0.471 0.0
O546 O 0.05077 0.5015 0.48439 0.0
O547 O 0.0479 0.52458 0.51758 0.0
C548 C 0.98752 0.50416 0.56878 0.0
O549 O 0.97973 0.51217 0.5551 0.0
O550 O 0.00224 0.49787 0.56594 0.0
O551 O 0.017 0.52955 0.53993 0.0
O552 O 0.00422 0.52902 0.51057 0.0
O553 O 0.98615 0.4917 0.52217 0.0
C554 C 0.02624 0.47809 0.51649 0.0
C555 C 0.00772 0.53684 0.52765 0.0
Zn556 Zn 0.7855 0.76252 0.26751 0.0
Zn557 Zn 0.74452 0.76515 0.269 0.0
C558 C 0.78014 0.73824 0.23392 0.0
O559 O 0.78959 0.72985 0.24599 0.0
C560 C 0.74496 0.78833 0.30277 0.0
O561 O 0.73656 0.79685 0.28996 0.0
O562 O 0.81344 0.76426 0.26719 0.0
O563 O 0.78227 0.78883 0.27443 0.0
O564 O 0.75705 0.78594 0.25427 0.0
C565 C 0.82041 0.77553 0.25564 0.0
O566 O 0.80942 0.785 0.24665 0.0
O567 O 0.77571 0.7536 0.23984 0.0
C568 C 0.70592 0.7484 0.2699 0.0
O569 O 0.71346 0.73393 0.27337 0.0
O570 O 0.71642 0.76337 0.26597 0.0
O571 O 0.74893 0.73876 0.26361 0.0
O572 O 0.77444 0.74243 0.28364 0.0
O573 O 0.751 0.77376 0.29719 0.0
C574 C 0.77232 0.79592 0.26258 0.0
C575 C 0.75938 0.73204 0.27536 0.0
Zn576 Zn 0.76295 0.25419 0.78672 0.0
Zn577 Zn 0.76196 0.25809 0.74622 0.0
C578 C 0.73943 0.21844 0.78313 0.0
O579 O 0.7314 0.22768 0.79572 0.0
C580 C 0.7849 0.29453 0.75282 0.0
O581 O 0.79298 0.28711 0.73896 0.0
O582 O 0.76665 0.25375 0.8152 0.0
O583 O 0.78877 0.26309 0.77888 0.0
O584 O 0.78283 0.24408 0.75226 0.0
C585 C 0.77851 0.24406 0.82055 0.0
O586 O 0.7873 0.23627 0.80756 0.0
O587 O 0.75408 0.22697 0.77663 0.0
C588 C 0.74731 0.27252 0.71495 0.0
O589 O 0.73895 0.27875 0.72921 0.0
O590 O 0.75862 0.26162 0.7182 0.0
O591 O 0.73611 0.24802 0.75334 0.0
O592 O 0.74184 0.2676 0.77949 0.0
O593 O 0.77065 0.28464 0.75878 0.0
C594 C 0.79439 0.25272 0.76616 0.0
C595 C 0.73035 0.25872 0.76564 0.0
Zn596 Zn 0.77173 0.74943 0.76147 0.0
Zn597 Zn 0.76208 0.78543 0.78309 0.0
C598 C 0.80131 0.76707 0.74191 0.0
O599 O 0.78826 0.76023 0.72772 0.0
C600 C 0.73139 0.76923 0.80232 0.0
O601 O 0.74376 0.7765 0.81698 0.0
O602 O 0.77507 0.7233 0.75298 0.0
O603 O 0.76646 0.74731 0.78876 0.0
O604 O 0.78069 0.77573 0.80067 0.0
C605 C 0.78894 0.7197 0.76318 0.0
O606 O 0.79822 0.73268 0.77649 0.0
O607 O 0.79741 0.76532 0.759 0.0
C608 C 0.77011 0.82574 0.78607 0.0
O609 O 0.78289 0.82292 0.77471 0.0
O610 O 0.76066 0.81175 0.79288 0.0
O611 O 0.76499 0.78693 0.75501 0.0
O612 O 0.75254 0.7577 0.74369 0.0
O613 O 0.73613 0.77066 0.7855 0.0
C614 C 0.77589 0.75834 0.80258 0.0
C615 C 0.75559 0.77515 0.74168 0.0
Zn616 Zn 0.53181 0.50953 0.52139 0.0
Zn617 Zn 0.49194 0.50759 0.50212 0.0
C618 C 0.531 0.46998 0.52056 0.0
O619 O 0.54522 0.47462 0.51048 0.0
C620 C 0.49716 0.53892 0.48176 0.0
O621 O 0.48809 0.52536 0.46892 0.0
O622 O 0.55948 0.51373 0.53041 0.0
O623 O 0.53074 0.51166 0.49307 0.0
O624 O 0.50408 0.49183 0.48389 0.0
C625 C 0.5718 0.52191 0.52055 0.0
O626 O 0.56647 0.53057 0.50612 0.0
O627 O 0.52216 0.48253 0.52607 0.0
C628 C 0.45136 0.49821 0.5037 0.0
O629 O 0.45573 0.49015 0.51895 0.0
O630 O 0.46426 0.50469 0.4936 0.0
O631 O 0.49358 0.50403 0.53028 0.0
O632 O 0.51903 0.52578 0.53832 0.0
O633 O 0.50177 0.53485 0.49846 0.0
C634 C 0.52053 0.49952 0.4806 0.0
C635 C 0.50338 0.5168 0.54242 0.0
Zn636 Zn 0.99135 0.51779 0.01583 0.0
Zn637 Zn 0.03177 0.49955 -0.00075 0.0
C638 C 0.00667 0.54857 0.04222 0.0
O639 O 0.99652 0.53702 0.05242 0.0
C640 C 0.00891 0.46293 0.98455 0.0
O641 O 0.99851 0.46624 0.99825 0.0
O642 O 0.96481 0.52231 0.01579 0.0
O643 O 0.9945 0.50925 0.98881 0.0
O644 O 0.02404 0.52064 0.98585 0.0
C645 C 0.96223 0.53684 0.00799 0.0
O646 O 0.97647 0.54715 0.00109 0.0
O647 O 0.00789 0.5431 0.02485 0.0
C648 C 0.07034 0.50541 0.01723 0.0
O649 O 0.06301 0.50951 0.03304 0.0
O650 O 0.05991 0.50219 0.00144 0.0
O651 O 0.02309 0.49408 0.02508 0.0
O652 O 0.99661 0.50022 0.03493 0.0
O653 O 0.0229 0.47549 0.98187 0.0
C654 C 0.00676 0.52005 0.98103 0.0
C655 C 0.01128 0.49337 0.03742 0.0
C656 C 0.01402 0.19186 0.92792 0.0
C657 C 0.01803 0.19367 0.90893 0.0
C658 C 0.01793 0.17662 0.93717 0.0
C659 C 0.02216 0.12801 0.92535 0.0
H660 H 0.04033 0.13011 0.97894 0.0
C661 C 0.02712 0.06016 0.95757 0.0
C662 C 0.01954 0.05809 0.97507 0.0
C663 C 0.03163 0.07785 0.95109 0.0
C664 C 0.03518 0.1293 0.96398 0.0
H665 H 0.03027 0.18143 0.88517 0.0
H666 H 0.03711 0.15499 0.9013 0.0
H667 H 0.03906 0.15928 0.96453 0.0
H668 H 0.01184 0.07291 0.00014 0.0
H669 H 0.01912 0.10384 0.98856 0.0
H670 H 0.0175 0.09823 0.92475 0.0
C671 C 0.03068 0.16518 0.90893 0.0
C672 C 0.03447 0.14599 0.95574 0.0
C673 C 0.02678 0.18037 0.8997 0.0
C674 C 0.01778 0.07417 0.98662 0.0
C675 C 0.02198 0.09189 0.97997 0.0
C676 C 0.02275 0.11141 0.93356 0.0
C677 C 0.02591 0.16289 0.92759 0.0
C678 C 0.02784 0.14548 0.93635 0.0
C679 C 0.02824 0.09382 0.96177 0.0
C680 C 0.02917 0.11178 0.95299 0.0
H681 H 0.00734 0.2019 0.93547 0.0
H682 H 0.01398 0.17517 0.9515 0.0
H683 H 0.01659 0.12711 0.91049 0.0
H684 H 0.02881 0.04797 0.9485 0.0
H685 H 0.03697 0.07888 0.93727 0.0
C686 C 0.07722 0.78006 0.20484 0.0
C687 C 0.0775 0.78577 0.1863 0.0
C688 C 0.09395 0.78116 0.21646 0.0
C689 C 0.13024 0.76908 0.22824 0.0
H690 H 0.17466 0.80882 0.23199 0.0
C691 C 0.20467 0.75619 0.24418 0.0
C692 C 0.21714 0.76879 0.25781 0.0
C693 C 0.18724 0.75994 0.23801 0.0
C694 C 0.16229 0.79772 0.23125 0.0
H695 H 0.09556 0.79842 0.166 0.0
H696 H 0.12479 0.80025 0.18631 0.0
H697 H 0.14468 0.81379 0.21696 0.0
H698 H 0.22115 0.79525 0.27566 0.0
H699 H 0.19056 0.80197 0.26454 0.0
H700 H 0.14787 0.7528 0.24196 0.0
C701 C 0.1116 0.79496 0.19184 0.0
C702 C 0.14521 0.80051 0.22254 0.0
C703 C 0.09484 0.79382 0.18017 0.0
C704 C 0.21178 0.78525 0.26519 0.0
C705 C 0.19437 0.78915 0.25878 0.0
C706 C 0.1473 0.76624 0.23673 0.0
C707 C 0.11134 0.78804 0.20984 0.0
C708 C 0.12907 0.7861 0.22073 0.0
C709 C 0.18194 0.77647 0.24516 0.0
C710 C 0.16355 0.78039 0.23802 0.0
H711 H 0.06412 0.77398 0.21013 0.0
H712 H 0.09331 0.77602 0.2304 0.0
H713 H 0.11813 0.75763 0.22686 0.0
H714 H 0.20837 0.74337 0.23824 0.0
H715 H 0.17802 0.75002 0.22735 0.0
C716 C 0.50441 0.81949 0.40746 0.0
C717 C 0.50972 0.80612 0.41884 0.0
C718 C 0.5028 0.8371 0.41572 0.0
C719 C 0.5182 0.87005 0.45964 0.0
H720 H 0.48225 0.89649 0.43644 0.0
C721 C 0.51207 0.9449 0.48888 0.0
C722 C 0.51399 0.95775 0.47506 0.0
C723 C 0.50891 0.92558 0.48338 0.0
C724 C 0.49231 0.88923 0.44308 0.0
H725 H 0.51705 0.80059 0.44794 0.0
H726 H 0.51371 0.83119 0.46249 0.0
H727 H 0.4815 0.86389 0.42476 0.0
H728 H 0.51317 0.96045 0.44464 0.0
H729 H 0.50723 0.9267 0.43503 0.0
H730 H 0.52888 0.8955 0.47801 0.0
C731 C 0.51123 0.82823 0.44709 0.0
C732 C 0.492 0.8706 0.43633 0.0
C733 C 0.51306 0.81064 0.43876 0.0
C734 C 0.5118 0.95089 0.45561 0.0
C735 C 0.50832 0.93158 0.45011 0.0
C736 C 0.51832 0.88861 0.46656 0.0
C737 C 0.50621 0.84175 0.43564 0.0
C738 C 0.50523 0.86089 0.4442 0.0
C739 C 0.50725 0.91877 0.46395 0.0
C740 C 0.50564 0.89849 0.45807 0.0
H741 H 0.50186 0.81654 0.39204 0.0
H742 H 0.49933 0.84721 0.40636 0.0
H743 H 0.52877 0.86318 0.46591 0.0
H744 H 0.51374 0.94978 0.50399 0.0
H745 H 0.50803 0.91597 0.49432 0.0
C746 C 0.4652 0.28374 0.67819 0.0
C747 C 0.47506 0.2696 0.68236 0.0
C748 C 0.44913 0.28545 0.68716 0.0
C749 C 0.42401 0.27162 0.72901 0.0
H750 H 0.38096 0.2814 0.69838 0.0
C751 C 0.34917 0.26351 0.75413 0.0
C752 C 0.33869 0.27687 0.74889 0.0
C753 C 0.36669 0.26352 0.74737 0.0
C754 C 0.39294 0.27889 0.70721 0.0
H755 H 0.47583 0.24621 0.69928 0.0
H756 H 0.44777 0.24902 0.71464 0.0
H757 H 0.40975 0.27992 0.68378 0.0
H758 H 0.33882 0.30135 0.73339 0.0
H759 H 0.36928 0.30148 0.72187 0.0
H760 H 0.407 0.27038 0.7524 0.0
C761 C 0.45256 0.25899 0.70469 0.0
C762 C 0.40946 0.27807 0.69883 0.0
C763 C 0.46859 0.2573 0.69576 0.0
C764 C 0.34642 0.2907 0.7375 0.0
C765 C 0.36385 0.29073 0.7308 0.0
C766 C 0.40744 0.27241 0.73739 0.0
C767 C 0.44259 0.27304 0.70047 0.0
C768 C 0.4252 0.27441 0.70961 0.0
C769 C 0.37401 0.2769 0.73527 0.0
C770 C 0.39172 0.27608 0.72658 0.0
H771 H 0.46987 0.29349 0.66799 0.0
H772 H 0.44191 0.29658 0.68375 0.0
H773 H 0.43596 0.269 0.73778 0.0
H774 H 0.34356 0.25266 0.76286 0.0
H775 H 0.37417 0.25264 0.75101 0.0
C776 C 0.99633 0.8082 0.60199 0.0
C777 C 0.00174 0.79232 0.59334 0.0
C778 C 0.99597 0.82391 0.59201 0.0
C779 C 0.01481 0.84588 0.54997 0.0
H780 H 0.97999 0.87858 0.56008 0.0
C781 C 0.00769 0.91126 0.50957 0.0
C782 C 0.00948 0.92782 0.52192 0.0
C783 C 0.00606 0.89384 0.51693 0.0
C784 C 0.98975 0.86951 0.55711 0.0
H785 H 0.01017 0.78003 0.56724 0.0
H786 H 0.00872 0.80699 0.54955 0.0
H787 H 0.97751 0.84946 0.57518 0.0
H788 H 0.01094 0.93906 0.55168 0.0
H789 H 0.0077 0.90873 0.56432 0.0
H790 H 0.02676 0.86597 0.53159 0.0
C791 C 0.00545 0.80772 0.56425 0.0
C792 C 0.98846 0.8529 0.56586 0.0
C793 C 0.00615 0.79218 0.57435 0.0
C794 C 0.00966 0.92661 0.54174 0.0
C795 C 0.00767 0.90924 0.54901 0.0
C796 C 0.01587 0.86234 0.54095 0.0
C797 C 0.00067 0.82395 0.57303 0.0
C798 C 0.00119 0.84101 0.56269 0.0
C799 C 0.00578 0.89271 0.5367 0.0
C800 C 0.00356 0.87444 0.54472 0.0
H801 H 0.99297 0.80872 0.61667 0.0
H802 H 0.99252 0.83621 0.59941 0.0
H803 H 0.02509 0.83731 0.54738 0.0
H804 H 0.00751 0.91177 0.49425 0.0
H805 H 0.00463 0.88122 0.50719 0.0
C806 C 0.45434 0.74831 0.85965 0.0
C807 C 0.46816 0.7597 0.85074 0.0
C808 C 0.43533 0.74596 0.85295 0.0
C809 C 0.40312 0.75103 0.81112 0.0
H810 H 0.36806 0.75515 0.84886 0.0
C811 C 0.32614 0.75627 0.78978 0.0
C812 C 0.31236 0.74557 0.79935 0.0
C813 C 0.34521 0.75838 0.79612 0.0
C814 C 0.37762 0.75377 0.83813 0.0
H815 H 0.47292 0.7771 0.82745 0.0
H816 H 0.43984 0.77301 0.81583 0.0
H817 H 0.40111 0.75688 0.85933 0.0
H818 H 0.30781 0.72901 0.82331 0.0
H819 H 0.34093 0.73254 0.83419 0.0
H820 H 0.37961 0.74787 0.78992 0.0
C821 C 0.44365 0.76581 0.82791 0.0
C822 C 0.39656 0.75473 0.84414 0.0
C823 C 0.46262 0.76821 0.83464 0.0
C824 C 0.31804 0.73739 0.81561 0.0
C825 C 0.33706 0.73949 0.82193 0.0
C826 C 0.38415 0.75004 0.8051 0.0
C827 C 0.42976 0.75488 0.83716 0.0
C828 C 0.40953 0.75337 0.83071 0.0
C829 C 0.3509 0.74986 0.81217 0.0
C830 C 0.37117 0.75139 0.81854 0.0
H831 H 0.45814 0.74154 0.87206 0.0
H832 H 0.42497 0.73724 0.86022 0.0
H833 H 0.41272 0.74973 0.80042 0.0
H834 H 0.32222 0.76278 0.77722 0.0
H835 H 0.35551 0.76669 0.78844 0.0
C836 C 0.47899 0.19157 0.08231 0.0
C837 C 0.47974 0.1926 0.10235 0.0
C838 C 0.47663 0.17424 0.07138 0.0
C839 C 0.46568 0.12233 0.07403 0.0
H840 H 0.49927 0.1221 0.03426 0.0
C841 C 0.49524 0.05809 0.04889 0.0
C842 C 0.49576 0.05377 0.02916 0.0
C843 C 0.48974 0.07445 0.05578 0.0
C844 C 0.48958 0.12197 0.04509 0.0
H845 H 0.47769 0.17619 0.12659 0.0
H846 H 0.47417 0.14606 0.10767 0.0
H847 H 0.4955 0.15188 0.05011 0.0
H848 H 0.49079 0.06313 0.00116 0.0
H849 H 0.48156 0.09214 0.01336 0.0
H850 H 0.46067 0.09227 0.06961 0.0
C851 C 0.475 0.15855 0.10027 0.0
C852 C 0.48734 0.13904 0.05416 0.0
C853 C 0.47712 0.17587 0.11117 0.0
C854 C 0.49052 0.06611 0.01643 0.0
C855 C 0.48528 0.08269 0.02339 0.0
C856 C 0.46811 0.10525 0.0651 0.0
C857 C 0.47522 0.15755 0.08027 0.0
C858 C 0.47566 0.13945 0.06904 0.0
C859 C 0.48485 0.08698 0.04313 0.0
C860 C 0.48038 0.10493 0.05083 0.0
H861 H 0.48074 0.20422 0.07507 0.0
H862 H 0.47641 0.17398 0.05599 0.0
H863 H 0.45628 0.12209 0.08513 0.0
H864 H 0.49908 0.04881 0.05906 0.0
H865 H 0.48977 0.07754 0.07108 0.0
C866 C 0.06171 0.24536 0.3421 0.0
C867 C 0.05909 0.25916 0.35619 0.0
C868 C 0.07903 0.24641 0.33476 0.0
C869 C 0.12936 0.26807 0.34695 0.0
H870 H 0.13316 0.24979 0.29446 0.0
C871 C 0.19029 0.26746 0.29211 0.0
C872 C 0.20472 0.26442 0.30521 0.0
C873 C 0.17196 0.26589 0.29724 0.0
C874 C 0.13237 0.2551 0.30912 0.0
H875 H 0.07236 0.28531 0.37309 0.0
H876 H 0.10245 0.2875 0.35987 0.0
H877 H 0.10237 0.25071 0.30504 0.0
H878 H 0.21111 0.25605 0.33338 0.0
H879 H 0.17913 0.25256 0.34203 0.0
H880 H 0.15931 0.27311 0.35091 0.0
C881 C 0.09128 0.27555 0.35485 0.0
C882 C 0.11468 0.25543 0.31526 0.0
C883 C 0.07399 0.27438 0.36234 0.0
C884 C 0.20029 0.25868 0.32306 0.0
C885 C 0.18198 0.25687 0.32808 0.0
C886 C 0.14701 0.26789 0.34078 0.0
C887 C 0.09412 0.26141 0.34119 0.0
C888 C 0.11294 0.26182 0.3343 0.0
C889 C 0.1677 0.26104 0.3155 0.0
C890 C 0.14876 0.26124 0.32184 0.0
H891 H 0.05053 0.23339 0.33711 0.0
H892 H 0.08072 0.23512 0.32449 0.0
H893 H 0.12862 0.27284 0.36177 0.0
H894 H 0.19333 0.27203 0.27829 0.0
H895 H 0.16137 0.26931 0.2872 0.0
C896 C 0.93713 0.02877 0.19656 0.0
C897 C 0.91821 0.03057 0.19534 0.0
C898 C 0.94713 0.03011 0.18048 0.0
C899 C 0.93855 0.02203 0.12834 0.0
H900 H 0.99059 0.04717 0.12876 0.0
C901 C 0.97354 0.02453 0.05888 0.0
C902 C 0.99198 0.02146 0.05932 0.0
C903 C 0.96561 0.02793 0.0758 0.0
C904 C 0.97611 0.03993 0.12846 0.0
H905 H 0.89531 0.03615 0.17643 0.0
H906 H 0.91276 0.03848 0.14849 0.0
H907 H 0.97481 0.04927 0.15793 0.0
H908 H 0.01686 0.02024 0.07788 0.0
H909 H 0.0028 0.02567 0.10763 0.0
H910 H 0.9398 0.01223 0.09921 0.0
C911 C 0.91977 0.03581 0.16183 0.0
C912 C 0.96707 0.04118 0.14514 0.0
C913 C 0.90981 0.03456 0.17789 0.0
C914 C 0.00261 0.02257 0.0771 0.0
C915 C 0.99456 0.02575 0.09414 0.0
C916 C 0.94758 0.02067 0.11177 0.0
C917 C 0.9384 0.03316 0.16283 0.0
C918 C 0.94815 0.03231 0.14521 0.0
C919 C 0.9758 0.02807 0.09366 0.0
C920 C 0.96644 0.02968 0.11154 0.0
H921 H 0.94407 0.02574 0.20978 0.0
H922 H 0.96144 0.02793 0.18168 0.0
H923 H 0.92411 0.01467 0.12803 0.0
H924 H 0.96507 0.02406 0.04539 0.0
H925 H 0.95134 0.03019 0.07484 0.0
C926 C 0.2668 0.68482 0.47589 0.0
C927 C 0.28276 0.67762 0.4813 0.0
C928 C 0.26621 0.69487 0.45999 0.0
C929 C 0.2945 0.7256 0.43199 0.0
H930 H 0.25346 0.70977 0.39167 0.0
C931 C 0.29195 0.76012 0.3613 0.0
C932 C 0.27435 0.76001 0.35147 0.0
C933 C 0.2932 0.75131 0.37805 0.0
C934 C 0.26482 0.71467 0.40296 0.0
H935 H 0.31067 0.67532 0.47444 0.0
H936 H 0.30982 0.69354 0.44669 0.0
H937 H 0.25555 0.69127 0.41861 0.0
H938 H 0.24426 0.7519 0.35214 0.0
H939 H 0.24635 0.73746 0.38195 0.0
H940 H 0.30345 0.7494 0.41687 0.0
C941 C 0.29774 0.69113 0.45476 0.0
C942 C 0.2661 0.70391 0.41826 0.0
C943 C 0.29818 0.68067 0.4705 0.0
C944 C 0.25801 0.75205 0.35937 0.0
C945 C 0.25925 0.74357 0.37633 0.0
C946 C 0.29304 0.7366 0.41685 0.0
C947 C 0.28171 0.69824 0.4494 0.0
C948 C 0.28095 0.70926 0.43286 0.0
C949 C 0.27686 0.74249 0.38553 0.0
C950 C 0.27817 0.73127 0.40211 0.0
H951 H 0.25467 0.68262 0.48391 0.0
H952 H 0.25374 0.7003 0.45615 0.0
H953 H 0.30595 0.73009 0.44327 0.0
H954 H 0.30482 0.76599 0.35546 0.0
H955 H 0.30701 0.75064 0.38453 0.0
C956 C 0.57301 0.97002 0.69793 0.0
C957 C 0.5918 0.96889 0.69594 0.0
C958 C 0.56014 0.96864 0.68182 0.0
C959 C 0.54542 0.98499 0.64711 0.0
H960 H 0.5422 0.95361 0.59923 0.0
C961 C 0.53212 0.01004 0.57359 0.0
C962 C 0.51856 0.99852 0.56012 0.0
C963 C 0.53713 0.00373 0.59101 0.0
C964 C 0.54274 0.96227 0.61261 0.0
H965 H 0.61131 0.96359 0.67556 0.0
H966 H 0.5888 0.96129 0.64741 0.0
H967 H 0.55805 0.94516 0.62835 0.0
H968 H 0.49948 0.97146 0.55424 0.0
H969 H 0.50874 0.96017 0.58476 0.0
H970 H 0.53104 0.00263 0.63122 0.0
C971 C 0.58406 0.96323 0.66145 0.0
C972 C 0.55187 0.95752 0.62918 0.0
C973 C 0.59698 0.96464 0.67758 0.0
C974 C 0.50989 0.98065 0.56447 0.0
C975 C 0.51522 0.97416 0.58181 0.0
C976 C 0.53654 0.98985 0.63054 0.0
C977 C 0.56576 0.96605 0.66341 0.0
C978 C 0.55365 0.96908 0.6465 0.0
C979 C 0.52893 0.98566 0.59516 0.0
C980 C 0.53553 0.97879 0.61308 0.0
H981 H 0.56846 0.973 0.71188 0.0
H982 H 0.54603 0.97057 0.68373 0.0
H983 H 0.54676 0.99431 0.66018 0.0
H984 H 0.53899 0.02388 0.5706 0.0
H985 H 0.54787 0.01278 0.60103 0.0
C986 C 0.2417 0.35711 0.96833 0.0
C987 C 0.2505 0.34807 0.98222 0.0
C988 C 0.24103 0.35104 0.94887 0.0
C989 C 0.26523 0.32428 0.91544 0.0
H990 H 0.22189 0.32455 0.87972 0.0
C991 C 0.25715 0.29185 0.83645 0.0
C992 C 0.24973 0.30199 0.82266 0.0
C993 C 0.25755 0.29751 0.85598 0.0
C994 C 0.23418 0.32457 0.8895 0.0
H995 H 0.26484 0.32511 0.98661 0.0
H996 H 0.26329 0.31431 0.95282 0.0
H997 H 0.22122 0.33386 0.91365 0.0
H998 H 0.23736 0.32632 0.81858 0.0
H999 H 0.23815 0.33618 0.85254 0.0
H1000 H 0.27812 0.31486 0.89126 0.0
C1001 C 0.25732 0.32637 0.95686 0.0
C1002 C 0.23379 0.32992 0.90895 0.0
C1003 C 0.25807 0.33248 0.97627 0.0
C1004 C 0.24311 0.31813 0.82881 0.0
C1005 C 0.24343 0.32372 0.84829 0.0
C1006 C 0.26557 0.31885 0.896 0.0
C1007 C 0.24908 0.33575 0.94288 0.0
C1008 C 0.24933 0.32987 0.92217 0.0
C1009 C 0.25046 0.31337 0.8621 0.0
C1010 C 0.25008 0.31898 0.8828 0.0
H1011 H 0.23582 0.36921 0.97246 0.0
H1012 H 0.23472 0.35871 0.93849 0.0
H1013 H 0.27759 0.3244 0.92515 0.0
H1014 H 0.26234 0.27934 0.83219 0.0
H1015 H 0.26296 0.28918 0.86628 0.0
C1016 C 0.91402 0.02844 0.315 0.0
C1017 C 0.92283 0.02014 0.30056 0.0
C1018 C 0.92046 0.02853 0.33428 0.0
C1019 C 0.96111 0.02353 0.36691 0.0
H1020 H 0.92345 0.00725 0.40088 0.0
C1021 C 0.98146 0.01006 0.44494 0.0
C1022 C 0.97081 0.01643 0.45885 0.0
C1023 C 0.97565 0.00973 0.42543 0.0
C1024 C 0.93416 0.01203 0.39167 0.0
H1025 H 0.94579 0.00615 0.295 0.0
H1026 H 0.9571 0.0065 0.32858 0.0
H1027 H 0.91376 0.00983 0.36748 0.0
H1028 H 0.94552 0.02709 0.46316 0.0
H1029 H 0.93567 0.02683 0.42944 0.0
H1030 H 0.98152 0.02601 0.39115 0.0
C1031 C 0.9452 0.01289 0.32502 0.0
C1032 C 0.92858 0.01353 0.37252 0.0
C1033 C 0.93866 0.01263 0.30578 0.0
C1034 C 0.95405 0.02202 0.45285 0.0
C1035 C 0.94832 0.02178 0.43344 0.0
C1036 C 0.9667 0.02218 0.38613 0.0
C1037 C 0.93595 0.0205 0.33949 0.0
C1038 C 0.94198 0.01933 0.35994 0.0
C1039 C 0.95911 0.01581 0.41945 0.0
C1040 C 0.95329 0.01647 0.39879 0.0
H1041 H 0.90178 0.03432 0.31145 0.0
H1042 H 0.91319 0.03471 0.34513 0.0
H1043 H 0.97175 0.02816 0.35757 0.0
H1044 H 0.99443 0.00565 0.44909 0.0
H1045 H 0.98417 0.00478 0.41505 0.0
C1046 C 0.31046 0.67324 0.60124 0.0
C1047 C 0.30715 0.67816 0.5826 0.0
C1048 C 0.31163 0.68652 0.61704 0.0
C1049 C 0.2915 0.72713 0.62938 0.0
H1050 H 0.32022 0.7289 0.67859 0.0
C1051 C 0.2941 0.7621 0.71235 0.0
C1052 C 0.27539 0.7549 0.71539 0.0
C1053 C 0.30104 0.75672 0.69527 0.0
C1054 C 0.31233 0.72881 0.66485 0.0
H1055 H 0.3044 0.70132 0.56588 0.0
H1056 H 0.30654 0.7244 0.59342 0.0
H1057 H 0.32896 0.71199 0.65033 0.0
H1058 H 0.24904 0.73725 0.70277 0.0
H1059 H 0.26098 0.72825 0.67288 0.0
H1060 H 0.27436 0.74317 0.64401 0.0
C1061 C 0.30784 0.71022 0.59582 0.0
C1062 C 0.31723 0.71902 0.64874 0.0
C1063 C 0.30666 0.69698 0.58006 0.0
C1064 C 0.26353 0.74298 0.70079 0.0
C1065 C 0.27033 0.7379 0.68367 0.0
C1066 C 0.28653 0.73673 0.64547 0.0
C1067 C 0.30955 0.70494 0.61447 0.0
C1068 C 0.30655 0.7177 0.63094 0.0
C1069 C 0.28922 0.74442 0.68087 0.0
C1070 C 0.29657 0.73722 0.66344 0.0
H1071 H 0.31098 0.65889 0.60369 0.0
H1072 H 0.31287 0.682 0.63125 0.0
H1073 H 0.28285 0.72621 0.61593 0.0
H1074 H 0.30355 0.77122 0.72345 0.0
H1075 H 0.31565 0.76192 0.6934 0.0
C1076 C 0.60238 0.98412 0.81403 0.0
C1077 C 0.59567 0.99318 0.79891 0.0
C1078 C 0.59495 0.9852 0.83163 0.0
C1079 C 0.55411 0.9962 0.85474 0.0
H1080 H 0.58919 0.00629 0.90064 0.0
C1081 C 0.53234 0.01513 0.93009 0.0
C1082 C 0.53977 0.00615 0.9449 0.0
C1083 C 0.53879 0.01379 0.91197 0.0
C1084 C 0.5792 0.00332 0.88796 0.0
H1085 H 0.57562 0.0101 0.79022 0.0
H1086 H 0.56284 0.01207 0.82086 0.0
H1087 H 0.60087 0.00242 0.86952 0.0
H1088 H 0.55968 0.98862 0.95229 0.0
H1089 H 0.5707 0.98623 0.92092 0.0
H1090 H 0.53243 0.99712 0.87326 0.0
C1091 C 0.57369 0.004 0.81913 0.0
C1092 C 0.58588 0.00104 0.87014 0.0
C1093 C 0.58111 0.00295 0.80159 0.0
C1094 C 0.55371 0.99582 0.94125 0.0
C1095 C 0.56013 0.99452 0.92327 0.0
C1096 C 0.54741 0.99849 0.87259 0.0
C1097 C 0.58065 0.99532 0.83441 0.0
C1098 C 0.57342 0.99738 0.85334 0.0
C1099 C 0.55282 0.00351 0.90844 0.0
C1100 C 0.55988 0.00196 0.88939 0.0
H1101 H 0.61355 0.97645 0.81238 0.0
H1102 H 0.60043 0.97815 0.84309 0.0
H1103 H 0.54414 0.99323 0.84204 0.0
H1104 H 0.52158 0.02317 0.93248 0.0
H1105 H 0.53298 0.02097 0.90081 0.0
C1106 C 0.23717 0.32898 0.08392 0.0
C1107 C 0.23795 0.34845 0.08656 0.0
C1108 C 0.2345 0.31804 0.09921 0.0
C1109 C 0.2213 0.31941 0.14939 0.0
H1110 H 0.25287 0.28267 0.1545 0.0
C1111 C 0.24744 0.29753 0.22136 0.0
C1112 C 0.24633 0.27832 0.22321 0.0
C1113 C 0.2429 0.30364 0.20369 0.0
C1114 C 0.24374 0.29265 0.15311 0.0
H1115 H 0.23598 0.37158 0.10725 0.0
H1116 H 0.2319 0.35276 0.13387 0.0
H1117 H 0.25121 0.29796 0.12515 0.0
H1118 H 0.23965 0.25043 0.20779 0.0
H1119 H 0.23225 0.2613 0.17658 0.0
H1120 H 0.21478 0.31483 0.17789 0.0
C1121 C 0.2329 0.34574 0.11996 0.0
C1122 C 0.24272 0.30141 0.13627 0.0
C1123 C 0.23539 0.35661 0.10466 0.0
C1124 C 0.24054 0.26532 0.20688 0.0
C1125 C 0.23636 0.27151 0.18903 0.0
C1126 C 0.22254 0.31085 0.16631 0.0
C1127 C 0.2327 0.32635 0.11754 0.0
C1128 C 0.23184 0.31525 0.13437 0.0
C1129 C 0.23749 0.29073 0.18732 0.0
C1130 C 0.23409 0.29771 0.16848 0.0
H1131 H 0.23895 0.32222 0.07012 0.0
H1132 H 0.23409 0.30311 0.09671 0.0
H1133 H 0.2124 0.32963 0.1483 0.0
H1134 H 0.25207 0.30798 0.23353 0.0
H1135 H 0.24417 0.31857 0.20271 0.0
C1136 C 0.20331 0.92649 0.04707 0.0
C1137 C 0.20372 0.91099 0.03393 0.0
C1138 C 0.18741 0.93453 0.04703 0.0
C1139 C 0.13663 0.92344 0.03217 0.0
H1140 H 0.14088 0.97751 0.03634 0.0
C1141 C 0.07364 0.95656 0.01319 0.0
C1142 C 0.07105 0.97227 0.02483 0.0
C1143 C 0.09004 0.94964 0.01586 0.0
C1144 C 0.13949 0.9624 0.03547 0.0
H1145 H 0.18789 0.89195 0.01027 0.0
H1146 H 0.16018 0.90603 0.01016 0.0
H1147 H 0.16931 0.96437 0.03761 0.0
H1148 H 0.08378 0.99317 0.04836 0.0
H1149 H 0.1127 0.98092 0.05312 0.0
H1150 H 0.10689 0.92139 0.02989 0.0
C1151 C 0.17208 0.91182 0.02063 0.0
C1152 C 0.15575 0.95488 0.03614 0.0
C1153 C 0.18799 0.90383 0.02061 0.0
C1154 C 0.08538 0.98103 0.03918 0.0
C1155 C 0.10193 0.97407 0.04185 0.0
C1156 C 0.12043 0.93094 0.03154 0.0
C1157 C 0.17157 0.92718 0.03392 0.0
C1158 C 0.15446 0.9353 0.03418 0.0
C1159 C 0.10434 0.9582 0.03026 0.0
C1160 C 0.12166 0.95048 0.03283 0.0
H1161 H 0.21521 0.93235 0.05752 0.0
H1162 H 0.18739 0.94625 0.05753 0.0
H1163 H 0.13518 0.90832 0.03107 0.0
H1164 H 0.06298 0.94951 0.0019 0.0
H1165 H 0.09161 0.93764 0.00644 0.0
C1166 C 0.7024 0.581 0.99264 0.0
C1167 C 0.70586 0.60027 0.99019 0.0
C1168 C 0.68396 0.57066 0.99147 0.0
C1169 C 0.63818 0.57799 0.00176 0.0
H1170 H 0.61766 0.52933 0.97354 0.0
C1171 C 0.56037 0.54561 0.00063 0.0
C1172 C 0.55493 0.52618 0.00142 0.0
C1173 C 0.57863 0.55356 0.99736 0.0
C1174 C 0.62325 0.5428 0.98171 0.0
H1175 H 0.69265 0.62349 0.98349 0.0
H1176 H 0.66061 0.60551 0.98175 0.0
H1177 H 0.65011 0.54496 0.9707 0.0
H1178 H 0.56425 0.49972 0.99902 0.0
H1179 H 0.5966 0.51374 0.99404 0.0
H1180 H 0.61195 0.57581 0.01342 0.0
C1181 C 0.67216 0.59845 0.98462 0.0
C1182 C 0.64178 0.55176 0.97998 0.0
C1183 C 0.69053 0.60872 0.98555 0.0
C1184 C 0.56807 0.51475 0.99843 0.0
C1185 C 0.58657 0.52279 0.9955 0.0
C1186 C 0.61988 0.56898 0.00372 0.0
C1187 C 0.6687 0.57948 0.98806 0.0
C1188 C 0.64928 0.56956 0.98981 0.0
C1189 C 0.59214 0.54237 0.99524 0.0
C1190 C 0.61202 0.55139 0.9935 0.0
H1191 H 0.7139 0.57404 0.99614 0.0
H1192 H 0.68164 0.55604 0.99421 0.0
H1193 H 0.64378 0.59152 0.00985 0.0
H1194 H 0.5505 0.55478 0.00263 0.0
H1195 H 0.58216 0.56859 0.99665 0.0
C1196 C 0.6917 0.45885 0.26244 0.0
C1197 C 0.67747 0.46191 0.27386 0.0
C1198 C 0.69918 0.44267 0.26319 0.0
C1199 C 0.68751 0.3942 0.27578 0.0
H1200 H 0.7408 0.39554 0.27433 0.0
C1201 C 0.71842 0.32918 0.28712 0.0
C1202 C 0.73173 0.32488 0.27508 0.0
C1203 C 0.7129 0.34642 0.28736 0.0
C1204 C 0.72586 0.39492 0.27453 0.0
H1205 H 0.66021 0.45055 0.29534 0.0
H1206 H 0.67335 0.42228 0.29673 0.0
H1207 H 0.72907 0.42475 0.27453 0.0
H1208 H 0.75011 0.33557 0.25422 0.0
H1209 H 0.74023 0.36586 0.25446 0.0
H1210 H 0.68419 0.36444 0.27564 0.0
C1211 C 0.67856 0.43233 0.28702 0.0
C1212 C 0.71914 0.41164 0.27468 0.0
C1213 C 0.6711 0.44857 0.2863 0.0
C1214 C 0.73982 0.33849 0.26364 0.0
C1215 C 0.7342 0.35583 0.26383 0.0
C1216 C 0.6942 0.37752 0.2756 0.0
C1217 C 0.69259 0.42913 0.27535 0.0
C1218 C 0.69989 0.41147 0.2754 0.0
C1219 C 0.72043 0.35984 0.27549 0.0
C1220 C 0.71346 0.37767 0.2751 0.0
H1221 H 0.69694 0.46886 0.25269 0.0
H1222 H 0.70981 0.44055 0.25387 0.0
H1223 H 0.67255 0.39351 0.27591 0.0
H1224 H 0.7121 0.31914 0.29635 0.0
H1225 H 0.70262 0.3492 0.29686 0.0
C1226 C 0.80946 0.40967 0.49044 0.0
C1227 C 0.80105 0.41718 0.50569 0.0
C1228 C 0.82808 0.41709 0.48771 0.0
C1229 C 0.8679 0.45758 0.50318 0.0
H1230 H 0.89818 0.42063 0.4919 0.0
C1231 C 0.94841 0.47908 0.50524 0.0
C1232 C 0.95842 0.46766 0.51527 0.0
C1233 C 0.92915 0.47308 0.49968 0.0
C1234 C 0.88994 0.43114 0.49506 0.0
H1235 H 0.8054 0.43878 0.52965 0.0
H1236 H 0.83799 0.45136 0.52527 0.0
H1237 H 0.86433 0.41066 0.49106 0.0
H1238 H 0.95627 0.44062 0.52647 0.0
H1239 H 0.92282 0.43035 0.51716 0.0
H1240 H 0.89367 0.47787 0.50839 0.0
C1241 C 0.83014 0.43999 0.51513 0.0
C1242 C 0.87046 0.42547 0.49434 0.0
C1243 C 0.81145 0.43269 0.51774 0.0
C1244 C 0.94899 0.44978 0.51879 0.0
C1245 C 0.92978 0.44382 0.51331 0.0
C1246 C 0.88741 0.46324 0.50405 0.0
C1247 C 0.83879 0.43207 0.50028 0.0
C1248 C 0.85922 0.43854 0.49882 0.0
C1249 C 0.91952 0.45555 0.50406 0.0
C1250 C 0.89871 0.45001 0.50047 0.0
H1251 H 0.80176 0.39784 0.48075 0.0
H1252 H 0.83416 0.41088 0.4759 0.0
H1253 H 0.85966 0.46809 0.50638 0.0
H1254 H 0.95531 0.49291 0.50222 0.0
H1255 H 0.92174 0.48233 0.49231 0.0
C1256 C 0.35256 0.07608 0.26536 0.0
C1257 C 0.35006 0.06358 0.24866 0.0
C1258 C 0.34464 0.09207 0.26578 0.0
C1259 C 0.3097 0.11424 0.23907 0.0
H1260 H 0.33929 0.15966 0.26744 0.0
C1261 C 0.28257 0.18396 0.24962 0.0
C1262 C 0.29598 0.20077 0.25093 0.0
C1263 C 0.28823 0.16665 0.24833 0.0
C1264 C 0.33091 0.14719 0.25921 0.0
H1265 H 0.33723 0.05791 0.21933 0.0
H1266 H 0.32405 0.08609 0.21979 0.0
H1267 H 0.35088 0.13076 0.26743 0.0
H1268 H 0.32552 0.21278 0.25049 0.0
H1269 H 0.33528 0.18279 0.24734 0.0
H1270 H 0.29014 0.13102 0.23017 0.0
C1271 C 0.33164 0.08337 0.23277 0.0
C1272 C 0.33742 0.13046 0.25951 0.0
C1273 C 0.33933 0.06726 0.23245 0.0
C1274 C 0.31492 0.20001 0.24979 0.0
C1275 C 0.32052 0.18279 0.24817 0.0
C1276 C 0.30327 0.13108 0.23859 0.0
C1277 C 0.3343 0.09607 0.2494 0.0
C1278 C 0.32694 0.11374 0.24943 0.0
C1279 C 0.30737 0.1659 0.24806 0.0
C1280 C 0.31387 0.1478 0.24856 0.0
H1281 H 0.3606 0.07351 0.27814 0.0
H1282 H 0.34666 0.10128 0.27897 0.0
H1283 H 0.3011 0.1016 0.23135 0.0
H1284 H 0.26787 0.18421 0.25056 0.0
H1285 H 0.27772 0.15394 0.24836 0.0
C1286 C 0.32018 0.09999 0.49209 0.0
C1287 C 0.30766 0.09475 0.50567 0.0
C1288 C 0.33563 0.09145 0.49028 0.0
C1289 C 0.35492 0.04988 0.50259 0.0
H1290 H 0.40263 0.08204 0.49674 0.0
C1291 C 0.4269 0.02686 0.51278 0.0
C1292 C 0.44013 0.03325 0.50022 0.0
C1293 C 0.40984 0.03303 0.51238 0.0
C1294 C 0.38937 0.0728 0.49813 0.0
H1295 H 0.30139 0.07624 0.52781 0.0
H1296 H 0.3284 0.06161 0.52485 0.0
H1297 H 0.37462 0.09539 0.49769 0.0
H1298 H 0.44541 0.05026 0.47669 0.0
H1299 H 0.41577 0.06075 0.47588 0.0
H1300 H 0.36986 0.02732 0.50329 0.0
C1301 C 0.32618 0.0721 0.51539 0.0
C1302 C 0.37329 0.08046 0.49864 0.0
C1303 C 0.31075 0.0806 0.51717 0.0
C1304 C 0.43564 0.04526 0.48676 0.0
C1305 C 0.41867 0.05137 0.48634 0.0
C1306 C 0.37106 0.04221 0.50212 0.0
C1307 C 0.33891 0.07752 0.50204 0.0
C1308 C 0.35586 0.06912 0.50089 0.0
C1309 C 0.40573 0.04567 0.49939 0.0
C1310 C 0.38846 0.05359 0.49986 0.0
H1311 H 0.31814 0.11078 0.48295 0.0
H1312 H 0.34501 0.09577 0.47966 0.0
H1313 H 0.34168 0.0407 0.50412 0.0
H1314 H 0.42997 0.01762 0.52332 0.0
H1315 H 0.40018 0.02844 0.52267 0.0
C1316 C 0.67552 0.57903 0.3002 0.0
C1317 C 0.68094 0.56298 0.29183 0.0
C1318 C 0.68757 0.59663 0.30161 0.0
C1319 C 0.71875 0.63194 0.30831 0.0
H1320 H 0.73895 0.64268 0.26041 0.0
C1321 C 0.76124 0.70527 0.29517 0.0
C1322 C 0.75413 0.71203 0.27858 0.0
C1323 C 0.75513 0.6865 0.2985 0.0
C1324 C 0.73352 0.63985 0.27393 0.0
H1325 H 0.70381 0.5527 0.27955 0.0
H1326 H 0.72475 0.58337 0.28204 0.0
H1327 H 0.72314 0.61082 0.26435 0.0
H1328 H 0.73554 0.70436 0.25222 0.0
H1329 H 0.72518 0.67173 0.25788 0.0
H1330 H 0.72862 0.66127 0.31755 0.0
C1331 C 0.71109 0.58236 0.28726 0.0
C1332 C 0.72461 0.62158 0.27626 0.0
C1333 C 0.69908 0.56477 0.28591 0.0
C1334 C 0.74123 0.6996 0.26518 0.0
C1335 C 0.73538 0.68087 0.26835 0.0
C1336 C 0.72785 0.65025 0.30603 0.0
C1337 C 0.70527 0.59855 0.29464 0.0
C1338 C 0.71675 0.61749 0.29331 0.0
C1339 C 0.74211 0.67415 0.2851 0.0
C1340 C 0.73489 0.65444 0.28862 0.0
H1341 H 0.66169 0.57815 0.30498 0.0
H1342 H 0.68263 0.60886 0.30724 0.0
H1343 H 0.71295 0.62917 0.32166 0.0
H1344 H 0.77114 0.71457 0.30577 0.0
H1345 H 0.76056 0.68163 0.3115 0.0
C1346 C 0.86116 0.45764 0.80235 0.0
C1347 C 0.85198 0.46805 0.79015 0.0
C1348 C 0.85291 0.43912 0.80466 0.0
C1349 C 0.84072 0.39768 0.79195 0.0
H1350 H 0.78701 0.37795 0.78682 0.0
C1351 C 0.80838 0.32461 0.75484 0.0
C1352 C 0.7926 0.31389 0.76158 0.0
C1353 C 0.81561 0.343 0.76283 0.0
C1354 C 0.80206 0.38319 0.78859 0.0
H1355 H 0.82633 0.46766 0.77197 0.0
H1356 H 0.81222 0.43537 0.77558 0.0
H1357 H 0.79893 0.4116 0.79465 0.0
H1358 H 0.77215 0.31392 0.78221 0.0
H1359 H 0.7849 0.34616 0.79625 0.0
H1360 H 0.84387 0.36935 0.78572 0.0
C1361 C 0.82566 0.44148 0.7836 0.0
C1362 C 0.80888 0.4025 0.79289 0.0
C1363 C 0.83384 0.46001 0.78139 0.0
C1364 C 0.7843 0.32188 0.77665 0.0
C1365 C 0.79156 0.34034 0.78467 0.0
C1366 C 0.83392 0.37841 0.78777 0.0
C1367 C 0.83537 0.43061 0.79473 0.0
C1368 C 0.82826 0.41003 0.79395 0.0
C1369 C 0.80726 0.35111 0.77778 0.0
C1370 C 0.8145 0.37104 0.78535 0.0
H1371 H 0.87505 0.46351 0.80951 0.0
H1372 H 0.86059 0.43125 0.81365 0.0
H1373 H 0.85572 0.40295 0.79251 0.0
H1374 H 0.81509 0.31889 0.74324 0.0
H1375 H 0.8275 0.35103 0.75693 0.0
C1376 C 0.03181 0.82656 0.09666 0.0
C1377 C 0.02035 0.81609 0.1086 0.0
C1378 C 0.02575 0.84087 0.0875 0.0
C1379 C 0.00753 0.8654 0.06283 0.0
H1380 H 0.98209 0.89848 0.09187 0.0
C1381 C 0.99632 0.9347 0.03503 0.0
C1382 C 0.00144 0.95034 0.04885 0.0
C1383 C 0.9934 0.91645 0.04059 0.0
C1384 C 0.98919 0.88939 0.08354 0.0
H1385 H 0.99329 0.81211 0.1199 0.0
H1386 H 0.98249 0.83688 0.10355 0.0
H1387 H 0.9881 0.87013 0.10481 0.0
H1388 H 0.00613 0.9591 0.07935 0.0
H1389 H 0.00152 0.92763 0.08895 0.0
H1390 H 0.00984 0.88532 0.04221 0.0
C1391 C 0.99635 0.83427 0.10157 0.0
C1392 C 0.99244 0.87296 0.09087 0.0
C1393 C 0.00251 0.82002 0.11089 0.0
C1394 C 0.00233 0.94737 0.0683 0.0
C1395 C -0.0005 0.92923 0.07384 0.0
C1396 C 0.00447 0.88193 0.0556 0.0
C1397 C 0.00797 0.84498 0.08985 0.0
C1398 C 0.00217 0.86104 0.08088 0.0
C1399 C 0.99556 0.9135 0.06007 0.0
C1400 C 0.99577 0.89444 0.06613 0.0
H1401 H 0.04567 0.82396 0.09465 0.0
H1402 H 0.03529 0.84903 0.07897 0.0
H1403 H 0.01465 0.85633 0.0545 0.0
H1404 H 0.99543 0.93652 0.01992 0.0
H1405 H 0.99004 0.90467 0.02961 0.0
C1406 C 0.94834 0.22611 0.82622 0.0
C1407 C 0.9494 0.22632 0.84625 0.0
C1408 C 0.93141 0.22668 0.81563 0.0
C1409 C 0.89174 0.22177 0.79541 0.0
H1410 H 0.86392 0.256 0.81927 0.0
C1411 C 0.81756 0.23156 0.7656 0.0
C1412 C 0.81367 0.24956 0.7692 0.0
C1413 C 0.83491 0.22791 0.77262 0.0
C1414 C 0.87162 0.24656 0.81226 0.0
H1415 H 0.93324 0.22593 0.87069 0.0
H1416 H 0.90365 0.22642 0.8522 0.0
H1417 H 0.89193 0.25008 0.83654 0.0
H1418 H 0.82517 0.27822 0.78119 0.0
H1419 H 0.85558 0.27212 0.79271 0.0
H1420 H 0.87149 0.21877 0.77084 0.0
C1421 C 0.91601 0.22641 0.84472 0.0
C1422 C 0.88753 0.24288 0.82234 0.0
C1423 C 0.93295 0.22602 0.85532 0.0
C1424 C 0.82781 0.26416 0.77846 0.0
C1425 C 0.84514 0.26061 0.78518 0.0
C1426 C 0.87576 0.22551 0.78525 0.0
C1427 C 0.91516 0.22733 0.82483 0.0
C1428 C 0.89781 0.23046 0.81408 0.0
C1429 C 0.84859 0.24229 0.78315 0.0
C1430 C 0.86562 0.23809 0.79354 0.0
H1431 H 0.96077 0.22634 0.8188 0.0
H1432 H 0.93128 0.2275 0.80036 0.0
H1433 H 0.89929 0.21203 0.78869 0.0
H1434 H 0.80678 0.22006 0.7586 0.0
H1435 H 0.83713 0.21365 0.77083 0.0
C1436 C 0.50915 0.20399 0.6191 0.0
C1437 C 0.52015 0.21961 0.61231 0.0
C1438 C 0.507 0.18606 0.60948 0.0
C1439 C 0.52923 0.15785 0.5759 0.0
H1440 H 0.4813 0.12314 0.57315 0.0
C1441 C 0.51335 0.08167 0.53687 0.0
C1442 C 0.50327 0.06781 0.54685 0.0
C1443 C 0.51613 0.10071 0.54373 0.0
C1444 C 0.49481 0.13264 0.57391 0.0
H1445 H 0.53732 0.22862 0.58983 0.0
H1446 H 0.53335 0.19723 0.57286 0.0
H1447 H 0.48412 0.15557 0.58647 0.0
H1448 H 0.48888 0.06305 0.57225 0.0
H1449 H 0.49377 0.09605 0.58412 0.0
H1450 H 0.53985 0.13471 0.56331 0.0
C1451 C 0.52659 0.19889 0.58581 0.0
C1452 C 0.49643 0.15122 0.58155 0.0
C1453 C 0.52875 0.21689 0.59547 0.0
C1454 C 0.49658 0.07333 0.5641 0.0
C1455 C 0.49927 0.09228 0.57087 0.0
C1456 C 0.52757 0.1392 0.56814 0.0
C1457 C 0.51574 0.18326 0.59276 0.0
C1458 C 0.51374 0.16397 0.583 0.0
C1459 C 0.50877 0.1062 0.56061 0.0
C1460 C 0.51042 0.12633 0.56743 0.0
H1461 H 0.50238 0.20551 0.63207 0.0
H1462 H 0.4988 0.17432 0.61543 0.0
H1463 H 0.5428 0.16727 0.57694 0.0
H1464 H 0.51867 0.07785 0.52353 0.0
H1465 H 0.5235 0.11115 0.53553 0.0
C1466 C 0.57908 0.75299 0.36787 0.0
C1467 C 0.56112 0.75376 0.35945 0.0
C1468 C 0.59381 0.75229 0.35655 0.0
C1469 C 0.60909 0.76237 0.30921 0.0
H1470 H 0.64294 0.72894 0.32057 0.0
C1471 C 0.68045 0.7654 0.27803 0.0
C1472 C 0.68655 0.74842 0.27451 0.0
C1473 C 0.66362 0.76564 0.28608 0.0
C1474 C 0.63347 0.73817 0.31703 0.0
H1475 H 0.54459 0.75446 0.33251 0.0
H1476 H 0.5702 0.75305 0.31284 0.0
H1477 H 0.61696 0.73024 0.33976 0.0
H1478 H 0.67907 0.71823 0.27514 0.0
H1479 H 0.64956 0.71861 0.28877 0.0
H1480 H 0.62557 0.77016 0.28634 0.0
C1481 C 0.57297 0.75322 0.3282 0.0
C1482 C 0.61875 0.73912 0.32823 0.0
C1483 C 0.55826 0.75391 0.33949 0.0
C1484 C 0.67485 0.73157 0.2779 0.0
C1485 C 0.65801 0.73179 0.28584 0.0
C1486 C 0.62386 0.76143 0.298 0.0
C1487 C 0.5909 0.75235 0.33658 0.0
C1488 C 0.60644 0.75129 0.32452 0.0
C1489 C 0.65254 0.74889 0.29067 0.0
C1490 C 0.63624 0.74935 0.30182 0.0
H1491 H 0.58179 0.75293 0.3832 0.0
H1492 H 0.60754 0.75188 0.36347 0.0
H1493 H 0.59992 0.77199 0.30608 0.0
H1494 H 0.68918 0.77863 0.27563 0.0
H1495 H 0.65984 0.77905 0.28969 0.0
C1496 C 0.01139 0.21466 0.44443 0.0
C1497 C 0.00928 0.21326 0.42432 0.0
C1498 C 0.01106 0.19864 0.454 0.0
C1499 C 0.01812 0.14999 0.44655 0.0
H1500 H 0.99477 0.14432 0.49369 0.0
C1501 C 0.02797 0.09007 0.49058 0.0
C1502 C 0.01192 0.08002 0.49747 0.0
C1503 C 0.02775 0.10733 0.48362 0.0
C1504 C 0.00125 0.14565 0.48049 0.0
H1505 H 0.00474 0.19387 0.39851 0.0
H1506 H 0.00382 0.16587 0.41519 0.0
H1507 H 0.99313 0.1719 0.47676 0.0
H1508 H 0.98335 0.08042 0.50342 0.0
H1509 H 0.98276 0.11056 0.49077 0.0
H1510 H 0.02574 0.12358 0.44984 0.0
C1511 C 0.00612 0.17942 0.42357 0.0
C1512 C 0.00048 0.16154 0.47089 0.0
C1513 C 0.00657 0.19545 0.41399 0.0
C1514 C 0.99593 0.08797 0.49823 0.0
C1515 C 0.99562 0.10522 0.49101 0.0
C1516 C 0.01881 0.13413 0.45607 0.0
C1517 C 0.00852 0.18084 0.44368 0.0
C1518 C 0.00895 0.16388 0.45382 0.0
C1519 C 0.01137 0.11479 0.48311 0.0
C1520 C 0.0105 0.13181 0.47321 0.0
H1521 H 0.01355 0.22819 0.45283 0.0
H1522 H 0.01322 0.20027 0.46948 0.0
H1523 H 0.025 0.15145 0.43359 0.0
H1524 H 0.04058 0.08436 0.49009 0.0
H1525 H 0.0403 0.1146 0.47817 0.0
C1526 C 0.56732 0.25769 0.15522 0.0
C1527 C 0.55147 0.2512 0.16466 0.0
C1528 C 0.58538 0.25862 0.16404 0.0
C1529 C 0.61141 0.23908 0.20188 0.0
H1530 H 0.65125 0.28104 0.19542 0.0
C1531 C 0.68692 0.25221 0.24131 0.0
C1532 C 0.70175 0.25887 0.23056 0.0
C1533 C 0.66825 0.25009 0.23351 0.0
C1534 C 0.64031 0.26912 0.19718 0.0
H1535 H 0.54223 0.24087 0.19094 0.0
H1536 H 0.57385 0.24274 0.20644 0.0
H1537 H 0.61929 0.28058 0.18202 0.0
H1538 H 0.70861 0.26743 0.20287 0.0
H1539 H 0.67615 0.26355 0.18929 0.0
H1540 H 0.63258 0.22771 0.21714 0.0
C1541 C 0.57224 0.24685 0.19209 0.0
C1542 C 0.62199 0.26887 0.18952 0.0
C1543 C 0.55413 0.24591 0.18325 0.0
C1544 C 0.69753 0.26245 0.2116 0.0
C1545 C 0.67892 0.26035 0.20385 0.0
C1546 C 0.62978 0.23936 0.20961 0.0
C1547 C 0.58807 0.25312 0.18253 0.0
C1548 C 0.60735 0.25376 0.19159 0.0
C1549 C 0.66409 0.25462 0.21487 0.0
C1550 C 0.64446 0.2543 0.20714 0.0
H1551 H 0.56581 0.2618 0.14087 0.0
H1552 H 0.59725 0.26326 0.15616 0.0
H1553 H 0.60047 0.22713 0.20355 0.0
H1554 H 0.68972 0.24934 0.25597 0.0
H1555 H 0.6571 0.24567 0.24236 0.0
C1556 C 0.5385 0.82185 0.93876 0.0
C1557 C 0.53155 0.81863 0.91928 0.0
C1558 C 0.53802 0.83876 0.94943 0.0
C1559 C 0.51149 0.87635 0.95008 0.0
H1560 H 0.55345 0.90561 0.98419 0.0
C1561 C 0.51265 0.9521 0.97748 0.0
C1562 C 0.51887 0.95834 0.99677 0.0
C1563 C 0.51486 0.93466 0.96958 0.0
C1564 C 0.54154 0.89742 0.97494 0.0
H1565 H 0.5193 0.83094 0.89558 0.0
H1566 H 0.51848 0.86038 0.91419 0.0
H1567 H 0.55655 0.87585 0.96709 0.0
H1568 H 0.53267 0.95132 0.02283 0.0
H1569 H 0.53642 0.92042 0.0089 0.0
H1570 H 0.49645 0.89773 0.95775 0.0
C1571 C 0.5241 0.84973 0.92124 0.0
C1572 C 0.54333 0.88046 0.96514 0.0
C1573 C 0.52468 0.83291 0.91056 0.0
C1574 C 0.52771 0.94684 0.00793 0.0
C1575 C 0.5299 0.92923 -4e-05 0.0
C1576 C 0.50967 0.89316 0.9599 0.0
C1577 C 0.53046 0.85269 0.94084 0.0
C1578 C 0.52844 0.87 0.95229 0.0
C1579 C 0.52326 0.9229 0.98075 0.0
C1580 C 0.5248 0.90411 0.97208 0.0
H1581 H 0.54394 0.81115 0.94589 0.0
H1582 H 0.54297 0.84069 0.96453 0.0
H1583 H 0.49963 0.86833 0.94063 0.0
H1584 H 0.50603 0.96071 0.96837 0.0
H1585 H 0.51002 0.9304 0.95461 0.0
C1586 C 0.9456 0.76774 0.6672 0.0
C1587 C 0.95576 0.75593 0.6764 0.0
C1588 C 0.93055 0.77345 0.67543 0.0
C1589 C 0.90875 0.77802 0.72058 0.0
H1590 H 0.86205 0.76846 0.68742 0.0
C1591 C 0.83591 0.76951 0.74919 0.0
C1592 C 0.82083 0.77337 0.73755 0.0
C1593 C 0.85379 0.77161 0.74281 0.0
C1594 C 0.875 0.7717 0.69687 0.0
H1595 H 0.95863 0.7415 0.70182 0.0
H1596 H 0.9325 0.75159 0.71619 0.0
H1597 H 0.89083 0.76452 0.67418 0.0
H1598 H 0.81284 0.78401 0.711 0.0
H1599 H 0.84413 0.78864 0.7003 0.0
H1600 H 0.89291 0.78512 0.74333 0.0
C1601 C 0.93614 0.75642 0.70263 0.0
C1602 C 0.89152 0.76934 0.68923 0.0
C1603 C 0.95102 0.75054 0.69432 0.0
C1604 C 0.82422 0.78076 0.72016 0.0
C1605 C 0.84213 0.78322 0.71396 0.0
C1606 C 0.89223 0.78062 0.72822 0.0
C1607 C 0.92553 0.76766 0.69313 0.0
C1608 C 0.90851 0.77214 0.70104 0.0
C1609 C 0.85698 0.77789 0.72478 0.0
C1610 C 0.87504 0.77716 0.71652 0.0
H1611 H 0.94892 0.77217 0.65341 0.0
H1612 H 0.92268 0.78222 0.66784 0.0
H1613 H 0.92171 0.78046 0.72999 0.0
H1614 H 0.83363 0.76362 0.76259 0.0
H1615 H 0.86477 0.76722 0.75152 0.0
C1616 C 0.08988 0.01981 0.8376 0.0
C1617 C 0.10047 0.00747 0.82972 0.0
C1618 C 0.07883 0.01484 0.8523 0.0
C1619 C 0.0735 0.98299 0.89042 0.0
H1620 H 0.0274 0.00133 0.89459 0.0
C1621 C 0.01142 0.98532 0.94509 0.0
C1622 C 0.02317 0.98977 0.96239 0.0
C1623 C 0.01915 0.98384 0.92761 0.0
C1624 C 0.04004 0.99578 0.89353 0.0
H1625 H 0.10751 0.98004 0.83093 0.0
H1626 H 0.08792 0.97116 0.85644 0.0
H1627 H 0.04362 0.00541 0.86602 0.0
H1628 H 0.0522 0.99527 0.9749 0.0
H1629 H 0.06553 0.99306 0.94475 0.0
H1630 H 0.06983 0.97318 0.91785 0.0
C1631 C 0.08841 0.98486 0.85145 0.0
C1632 C 0.04953 0.99839 0.87724 0.0
C1633 C 0.09961 0.98991 0.83678 0.0
C1634 C 0.0427 0.99193 0.96186 0.0
C1635 C 0.05037 0.99047 0.9445 0.0
C1636 C 0.06394 0.98025 0.90664 0.0
C1637 C 0.07792 0.9973 0.85945 0.0
C1638 C 0.06667 0.9925 0.8757 0.0
C1639 C 0.03877 0.9867 0.9271 0.0
C1640 C 0.04737 0.98709 0.90866 0.0
H1641 H 0.09027 0.03349 0.83257 0.0
H1642 H 0.07131 0.02497 0.85833 0.0
H1643 H 0.08666 0.9783 0.88983 0.0
H1644 H 0.99632 0.98353 0.945 0.0
H1645 H 0.00977 0.9807 0.91448 0.0
C1646 C 0.73695 0.36614 0.58081 0.0
C1647 C 0.7436 0.35973 0.5639 0.0
C1648 C 0.73637 0.35559 0.59645 0.0
C1649 C 0.73878 0.30795 0.61048 0.0
H1650 H 0.75125 0.33496 0.66113 0.0
C1651 C 0.75426 0.27421 0.68074 0.0
C1652 C 0.74505 0.27994 0.69623 0.0
C1653 C 0.75325 0.28272 0.66372 0.0
C1654 C 0.74764 0.32725 0.64706 0.0
H1655 H 0.75483 0.3372 0.55007 0.0
H1656 H 0.75442 0.31915 0.5775 0.0
H1657 H 0.75124 0.35243 0.63325 0.0
H1658 H 0.72697 0.29854 0.70575 0.0
H1659 H 0.72547 0.31341 0.67627 0.0
H1660 H 0.73572 0.28273 0.62455 0.0
C1661 C 0.74918 0.33206 0.57859 0.0
C1662 C 0.74751 0.33724 0.63108 0.0
C1663 C 0.74952 0.34249 0.56288 0.0
C1664 C 0.73435 0.29386 0.69416 0.0
C1665 C 0.73352 0.30245 0.67731 0.0
C1666 C 0.73915 0.29794 0.62651 0.0
C1667 C 0.74269 0.33852 0.59562 0.0
C1668 C 0.74292 0.32774 0.61258 0.0
C1669 C 0.74321 0.2972 0.66207 0.0
C1670 C 0.74341 0.30754 0.64493 0.0
H1671 H 0.73212 0.37929 0.58197 0.0
H1672 H 0.73092 0.36082 0.60919 0.0
H1673 H 0.73496 0.30017 0.59647 0.0
H1674 H 0.76258 0.26349 0.68191 0.0
H1675 H 0.76086 0.27847 0.65213 0.0
C1676 C 0.44988 0.03576 0.3236 0.0
C1677 C 0.43373 0.04292 0.31897 0.0
C1678 C 0.4608 0.04162 0.341 0.0
C1679 C 0.45466 0.05746 0.38971 0.0
H1680 H 0.50725 0.05446 0.39739 0.0
C1681 C 0.51288 0.04544 0.4539 0.0
C1682 C 0.5012 0.03045 0.46103 0.0
C1683 C 0.50651 0.05315 0.43765 0.0
C1684 C 0.49269 0.05578 0.39559 0.0
H1685 H 0.41701 0.0628 0.32838 0.0
H1686 H 0.43616 0.07309 0.35911 0.0
H1687 H 0.4935 0.05882 0.36575 0.0
H1688 H 0.4738 0.01171 0.45655 0.0
H1689 H 0.46294 0.02491 0.42845 0.0
H1690 H 0.45369 0.05382 0.41939 0.0
C1691 C 0.44025 0.06279 0.34923 0.0
C1692 C 0.48475 0.0581 0.37743 0.0
C1693 C 0.42931 0.05694 0.33166 0.0
C1694 C 0.48318 0.02329 0.45154 0.0
C1695 C 0.47682 0.03102 0.43552 0.0
C1696 C 0.46261 0.05524 0.40785 0.0
C1697 C 0.45585 0.05481 0.35428 0.0
C1698 C 0.4654 0.05791 0.37408 0.0
C1699 C 0.48833 0.0461 0.42843 0.0
C1700 C 0.48142 0.05332 0.41073 0.0
H1701 H 0.45379 0.02507 0.31404 0.0
H1702 H 0.47249 0.03492 0.34446 0.0
H1703 H 0.43973 0.05727 0.3877 0.0
H1704 H 0.52682 0.0513 0.46094 0.0
H1705 H 0.51571 0.06471 0.43242 0.0
C1706 C 0.76036 0.6819 0.06233 0.0
C1707 C 0.76483 0.66402 0.05954 0.0
C1708 C 0.76071 0.69071 0.08081 0.0
C1709 C 0.75797 0.67978 0.13075 0.0
H1710 H 0.77976 0.73268 0.14392 0.0
C1711 C 0.77868 0.71206 0.20838 0.0
C1712 C 0.77555 0.73009 0.21376 0.0
C1713 C 0.77548 0.70451 0.18929 0.0
C1714 C 0.77335 0.71797 0.14039 0.0
H1715 H 0.77368 0.64163 0.07403 0.0
H1716 H 0.77448 0.65704 0.10613 0.0
H1717 H 0.77845 0.71871 0.11096 0.0
H1718 H 0.76627 0.75425 0.20334 0.0
H1719 H 0.76064 0.74095 0.16977 0.0
H1720 H 0.7531 0.67892 0.16016 0.0
C1721 C 0.77037 0.66412 0.09406 0.0
C1722 C 0.77264 0.70996 0.12152 0.0
C1723 C 0.77005 0.65535 0.07563 0.0
C1724 C 0.76881 0.7403 0.19963 0.0
C1725 C 0.7657 0.73275 0.18041 0.0
C1726 C 0.75868 0.68777 0.14956 0.0
C1727 C 0.76549 0.6818 0.09689 0.0
C1728 C 0.76525 0.69069 0.11658 0.0
C1729 C 0.7691 0.7148 0.17505 0.0
C1730 C 0.76668 0.70687 0.15468 0.0
H1731 H 0.75626 0.68898 0.05026 0.0
H1732 H 0.75679 0.70428 0.08252 0.0
H1733 H 0.75179 0.665 0.12732 0.0
H1734 H 0.78385 0.7038 0.2189 0.0
H1735 H 0.7785 0.69076 0.18562 0.0
C1736 C 0.11121 0.99513 0.7138 0.0
C1737 C 0.10947 0.00839 0.72882 0.0
C1738 C 0.10172 0.99491 0.69571 0.0
C1739 C 0.06419 0.01374 0.66899 0.0
H1740 H 0.0916 0.00267 0.62618 0.0
C1741 C 0.03113 0.00265 0.58994 0.0
C1742 C 0.04313 0.007 0.5757 0.0
C1743 C 0.03842 0.00458 0.60919 0.0
C1744 C 0.08381 0.00612 0.63792 0.0
H1745 H 0.09605 0.03154 0.73678 0.0
H1746 H 0.08001 0.03161 0.70505 0.0
H1747 H 0.10549 0.00205 0.6584 0.0
H1748 H 0.07173 0.01824 0.57038 0.0
H1749 H 0.08429 0.02258 0.60389 0.0
H1750 H 0.04282 0.01857 0.64834 0.0
C1751 C 0.08833 0.02106 0.7073 0.0
C1752 C 0.09165 0.00537 0.65649 0.0
C1753 C 0.09761 0.02109 0.72551 0.0
C1754 C 0.06223 0.01456 0.58109 0.0
C1755 C 0.06944 0.01685 0.6003 0.0
C1756 C 0.05641 0.01472 0.65034 0.0
C1757 C 0.09052 0.00817 0.69207 0.0
C1758 C 0.08192 0.00903 0.6723 0.0
C1759 C 0.05779 0.01118 0.61454 0.0
C1760 C 0.06612 0.01088 0.63455 0.0
H1761 H 0.12006 0.98501 0.71597 0.0
H1762 H 0.10335 0.98442 0.68452 0.0
H1763 H 0.05619 0.01649 0.68078 0.0
H1764 H 0.01635 0.99667 0.58612 0.0
H1765 H 0.02901 -3e-05 0.61969 0.0
C1766 C 0.72465 0.32202 0.46331 0.0
C1767 C 0.72551 0.34132 0.46268 0.0
C1768 C 0.71942 0.30961 0.44672 0.0
C1769 C 0.7035 0.30686 0.39424 0.0
H1770 H 0.73632 0.27102 0.3909 0.0
C1771 C 0.73576 0.2853 0.32699 0.0
C1772 C 0.73562 0.2662 0.32196 0.0
C1773 C 0.72882 0.29105 0.34379 0.0
C1774 C 0.72675 0.28064 0.39171 0.0
H1775 H 0.72069 0.36282 0.44467 0.0
H1776 H 0.71265 0.34144 0.41537 0.0
H1777 H 0.73426 0.28769 0.42161 0.0
H1778 H 0.72802 0.23813 0.3306 0.0
H1779 H 0.71662 0.24845 0.36073 0.0
H1780 H 0.69746 0.3008 0.3638 0.0
C1781 C 0.71531 0.3356 0.42869 0.0
C1782 C 0.72546 0.29022 0.40937 0.0
C1783 C 0.72002 0.34795 0.44546 0.0
C1784 C 0.72825 0.25293 0.33409 0.0
C1785 C 0.7217 0.25879 0.35124 0.0
C1786 C 0.70509 0.29751 0.37651 0.0
C1787 C 0.7156 0.31634 0.42899 0.0
C1788 C 0.71427 0.30391 0.41081 0.0
C1789 C 0.72198 0.27792 0.35619 0.0
C1790 C 0.71714 0.28473 0.37506 0.0
H1791 H 0.72859 0.3166 0.47656 0.0
H1792 H 0.71918 0.29484 0.4477 0.0
H1793 H 0.69438 0.31692 0.39481 0.0
H1794 H 0.74142 0.29592 0.31805 0.0
H1795 H 0.72951 0.30591 0.34747 0.0
C1796 C 0.44265 0.02649 0.2224 0.0
C1797 C 0.42327 0.01957 0.21769 0.0
C1798 C 0.45528 0.02435 0.20897 0.0
C1799 C 0.46189 0.99392 0.16821 0.0
H1800 H 0.49396 0.03718 0.15161 0.0
C1801 C 0.49293 0.99086 0.09672 0.0
C1802 C 0.50949 0.00346 0.0941 0.0
C1803 C 0.48544 0.99142 0.11423 0.0
C1804 C 0.48551 0.02487 0.15639 0.0
H1805 H 0.4019 0.00507 0.19529 0.0
H1806 H 0.42411 0.00095 0.17194 0.0
H1807 H 0.47461 0.04153 0.17753 0.0
H1808 H 0.53203 0.02546 0.10826 0.0
H1809 H 0.51925 0.02601 0.13915 0.0
H1810 H 0.47277 0.97715 0.14737 0.0
C1811 C 0.42941 0.00813 0.18599 0.0
C1812 C 0.47432 0.02743 0.17113 0.0
C1813 C 0.41674 0.01062 0.19927 0.0
C1814 C 0.51914 0.0157 0.10979 0.0
C1815 C 0.51173 0.01611 0.12744 0.0
C1816 C 0.47332 0.9913 0.15375 0.0
C1817 C 0.44876 0.0149 0.19078 0.0
C1818 C 0.46205 0.01203 0.17673 0.0
C1819 C 0.49445 0.0044 0.12967 0.0
C1820 C 0.48483 0.0068 0.14721 0.0
H1821 H 0.44806 0.03348 0.2365 0.0
H1822 H 0.47017 0.02969 0.21291 0.0
H1823 H 0.45271 0.98182 0.17258 0.0
H1824 H 0.48513 0.98119 0.08496 0.0
H1825 H 0.472 0.98233 0.11522 0.0
C1826 C 0.75684 0.69175 0.95151 0.0
C1827 C 0.76785 0.67917 0.95772 0.0
C1828 C 0.76147 0.7021 0.93622 0.0
C1829 C 0.77787 0.72867 0.90865 0.0
H1830 H 0.7937 0.70277 0.86461 0.0
C1831 C 0.78715 0.7628 0.83783 0.0
C1832 C 0.77949 0.75089 0.82116 0.0
C1833 C 0.7893 0.75542 0.85542 0.0
C1834 C 0.78926 0.71022 0.87677 0.0
H1835 H 0.79271 0.66796 0.95303 0.0
H1836 H 0.80104 0.68632 0.92646 0.0
H1837 H 0.7903 0.68749 0.89379 0.0
H1838 H 0.76861 0.72181 0.80985 0.0
H1839 H 0.77198 0.70914 0.84026 0.0
H1840 H 0.77576 0.75093 0.89122 0.0
C1841 C 0.78859 0.68793 0.93324 0.0
C1842 C 0.78755 0.70154 0.89364 0.0
C1843 C 0.78387 0.67746 0.94852 0.0
C1844 C 0.77451 0.73145 0.82239 0.0
C1845 C 0.77663 0.72411 0.83987 0.0
C1846 C 0.77945 0.7373 0.89173 0.0
C1847 C 0.77734 0.70027 0.92678 0.0
C1848 C 0.78138 0.71045 0.90966 0.0
C1849 C 0.78389 0.73597 0.85667 0.0
C1850 C 0.7847 0.72798 0.87541 0.0
H1851 H 0.74435 0.69337 0.95822 0.0
H1852 H 0.75224 0.71113 0.93147 0.0
H1853 H 0.77346 0.73613 0.92082 0.0
H1854 H 0.79117 0.77784 0.83736 0.0
H1855 H 0.79512 0.76494 0.86805 0.0
C1856 C 0.82516 0.08467 0.02899 0.0
C1857 C 0.81894 0.09926 0.02024 0.0
C1858 C 0.83831 0.07565 0.02097 0.0
C1859 C 0.87645 0.08403 0.99012 0.0
H1860 H 0.87744 0.03197 0.99669 0.0
C1861 C 0.94466 0.05743 2e-05 0.0
C1862 C 0.94545 0.03896 0.99325 0.0
C1863 C 0.92788 0.06379 0.99793 0.0
C1864 C 0.87725 0.04642 0.99436 0.0
H1865 H 0.82113 0.1154 0.99579 0.0
H1866 H 0.84407 0.09951 0.98166 0.0
H1867 H 0.84945 0.0442 0.00272 0.0
H1868 H 0.92939 0.01286 0.97826 0.0
H1869 H 0.89978 0.02403 0.97462 0.0
H1870 H 0.90434 0.08631 0.98202 0.0
C1871 C 0.83893 0.09522 0.99489 0.0
C1872 C 0.86129 0.0535 0.99806 0.0
C1873 C 0.82576 0.10429 0.00295 0.0
C1874 C 0.92918 0.02715 0.98366 0.0
C1875 C 0.91224 0.03353 0.98165 0.0
C1876 C 0.89237 0.07692 0.98634 0.0
C1877 C 0.84554 0.08095 0.00395 0.0
C1878 C 0.86098 0.07257 0.9967 0.0
C1879 C 0.91137 0.05185 0.98903 0.0
C1880 C 0.89323 0.05824 0.98914 0.0
H1881 H 0.8202 0.08043 0.04231 0.0
H1882 H 0.84331 0.06499 0.02855 0.0
H1883 H 0.87676 0.09878 0.98895 0.0
H1884 H 0.95696 0.06694 0.00738 0.0
H1885 H 0.9277 0.07787 0.00406 0.0
C1886 C 0.31312 0.43319 0.05739 0.0
C1887 C 0.30867 0.41418 0.04991 0.0
C1888 C 0.33145 0.4436 0.05794 0.0
C1889 C 0.38068 0.43829 0.05521 0.0
H1890 H 0.38768 0.48743 0.03658 0.0
C1891 C 0.44813 0.47137 0.025 0.0
C1892 C 0.45563 0.49063 0.02976 0.0
C1893 C 0.43072 0.46328 0.03043 0.0
C1894 C 0.38596 0.47387 0.04213 0.0
H1895 H 0.3201 0.39115 0.03742 0.0
H1896 H 0.35187 0.40927 0.03822 0.0
H1897 H 0.35608 0.47083 0.04087 0.0
H1898 H 0.45068 0.51652 0.04393 0.0
H1899 H 0.41991 0.50228 0.05328 0.0
H1900 H 0.41047 0.44106 0.05589 0.0
C1901 C 0.34129 0.41611 0.0439 0.0
C1902 C 0.36788 0.46436 0.0446 0.0
C1903 C 0.32301 0.40574 0.04331 0.0
C1904 C 0.44527 0.50164 0.04008 0.0
C1905 C 0.42766 0.49353 0.04537 0.0
C1906 C 0.3987 0.44775 0.0527 0.0
C1907 C 0.34571 0.43518 0.05111 0.0
C1908 C 0.365 0.44626 0.05071 0.0
C1909 C 0.42027 0.47424 0.04064 0.0
C1910 C 0.40149 0.46543 0.04568 0.0
H1911 H 0.30241 0.44012 0.06263 0.0
H1912 H 0.33446 0.45822 0.06372 0.0
H1913 H 0.37897 0.42454 0.06034 0.0
H1914 H 0.45572 0.46246 0.01706 0.0
H1915 H 0.42526 0.44845 0.0263 0.0
C1916 C 0.34349 0.57098 0.75389 0.0
C1917 C 0.34269 0.56164 0.73548 0.0
C1918 C 0.33254 0.58446 0.75734 0.0
C1919 C 0.29122 0.60172 0.73613 0.0
H1920 H 0.31333 0.64758 0.76865 0.0
C1921 C 0.26471 0.671 0.73276 0.0
C1922 C 0.26466 0.68224 0.74995 0.0
C1923 C 0.27191 0.65459 0.73276 0.0
C1924 C 0.30683 0.63472 0.75977 0.0
H1925 H 0.32984 0.55923 0.70624 0.0
H1926 H 0.31123 0.58293 0.71211 0.0
H1927 H 0.33083 0.62242 0.76534 0.0
H1928 H 0.27151 0.68468 0.78072 0.0
H1929 H 0.28421 0.65604 0.78067 0.0
H1930 H 0.26752 0.6144 0.73004 0.0
C1931 C 0.31991 0.57959 0.72404 0.0
C1932 C 0.31686 0.62027 0.75787 0.0
C1933 C 0.33073 0.56607 0.72063 0.0
C1934 C 0.27128 0.6763 0.76724 0.0
C1935 C 0.27869 0.65998 0.76721 0.0
C1936 C 0.28128 0.61623 0.73791 0.0
C1937 C 0.32061 0.58896 0.74244 0.0
C1938 C 0.30932 0.6037 0.74577 0.0
C1939 C 0.27941 0.64916 0.74992 0.0
C1940 C 0.28909 0.633 0.74952 0.0
H1941 H 0.3525 0.56781 0.76566 0.0
H1942 H 0.3333 0.59124 0.77174 0.0
H1943 H 0.28477 0.589 0.72703 0.0
H1944 H 0.25971 0.67518 0.7192 0.0
H1945 H 0.27239 0.64663 0.7192 0.0
C1946 C 0.21865 0.61776 0.52474 0.0
C1947 C 0.23232 0.60952 0.53402 0.0
C1948 C 0.19965 0.60955 0.52384 0.0
C1949 C 0.1654 0.57656 0.54654 0.0
H1950 H 0.13392 0.57787 0.49971 0.0
C1951 C 0.08652 0.5393 0.53017 0.0
C1952 C 0.07468 0.54979 0.52119 0.0
C1953 C 0.10591 0.5463 0.53343 0.0
C1954 C 0.14251 0.57754 0.51294 0.0
H1955 H 0.23672 0.58611 0.54964 0.0
H1956 H 0.20336 0.57152 0.54775 0.0
H1957 H 0.16762 0.58966 0.50135 0.0
H1958 H 0.07374 0.5763 0.50969 0.0
H1959 H 0.10746 0.58842 0.51538 0.0
H1960 H 0.14006 0.56417 0.55796 0.0
C1961 C 0.20742 0.58451 0.5414 0.0
C1962 C 0.16182 0.5843 0.51389 0.0
C1963 C 0.22653 0.5928 0.54238 0.0
C1964 C 0.08247 0.56778 0.51647 0.0
C1965 C 0.10179 0.5747 0.51963 0.0
C1966 C 0.14601 0.56963 0.54553 0.0
C1967 C 0.19379 0.5928 0.53206 0.0
C1968 C 0.17347 0.58421 0.5308 0.0
C1969 C 0.11375 0.56383 0.52766 0.0
C1970 C 0.13437 0.57038 0.52881 0.0
H1971 H 0.22255 0.63072 0.51828 0.0
H1972 H 0.18952 0.61653 0.51688 0.0
H1973 H 0.17398 0.57641 0.55982 0.0
H1974 H 0.08093 0.5254 0.53401 0.0
H1975 H 0.11484 0.53764 0.53964 0.0
C1976 C 0.67291 0.94157 0.76552 0.0
C1977 C 0.67679 0.95191 0.7499 0.0
C1978 C 0.68477 0.9298 0.77163 0.0
C1979 C 0.72062 0.90484 0.75394 0.0
H1980 H 0.73089 0.89763 0.80735 0.0
C1981 C 0.77124 0.85798 0.77608 0.0
C1982 C 0.76379 0.84385 0.78727 0.0
C1983 C 0.76274 0.87337 0.77401 0.0
C1984 C 0.72812 0.89953 0.79239 0.0
H1985 H 0.69651 0.9586 0.72893 0.0
H1986 H 0.71734 0.93858 0.73984 0.0
H1987 H 0.71149 0.92007 0.79856 0.0
H1988 H 0.74252 0.83564 0.80637 0.0
H1989 H 0.72772 0.86255 0.80275 0.0
H1990 H 0.73714 0.88433 0.74773 0.0
C1991 C 0.70489 0.93905 0.74706 0.0
C1992 C 0.71694 0.91229 0.78733 0.0
C1993 C 0.69297 0.95061 0.74085 0.0
C1994 C 0.74856 0.84622 0.79755 0.0
C1995 C 0.7401 0.86168 0.79554 0.0
C1996 C 0.73188 0.89226 0.759 0.0
C1997 C 0.70083 0.92827 0.76234 0.0
C1998 C 0.713 0.91504 0.76802 0.0
C1999 C 0.74667 0.87502 0.78316 0.0
C2000 C 0.73571 0.8894 0.77825 0.0
H2001 H 0.66054 0.9423 0.77279 0.0
H2002 H 0.6811 0.92156 0.78332 0.0
H2003 H 0.71755 0.90622 0.7389 0.0
H2004 H 0.78304 0.85669 0.76807 0.0
H2005 H 0.7683 0.88364 0.76464 0.0
C2006 C 0.70538 0.94316 0.55291 0.0
C2007 C 0.70817 0.9287 0.53966 0.0
C2008 C 0.69177 0.95366 0.54863 0.0
C2009 C 0.64806 0.95211 0.51749 0.0
H2010 H 0.65744 0.00525 0.53513 0.0
C2011 C 0.59226 0.99693 0.50317 0.0
C2012 C 0.58889 0.00807 0.51927 0.0
C2013 C 0.60809 0.98872 0.50361 0.0
C2014 C 0.65459 0.99041 0.53016 0.0
H2015 H 0.69889 0.91403 0.51141 0.0
H2016 H 0.67517 0.93254 0.50382 0.0
H2017 H 0.68253 0.98778 0.5396 0.0
H2018 H 0.60004 0.02008 0.54811 0.0
H2019 H 0.62762 0.00583 0.54885 0.0
H2020 H 0.62005 0.95472 0.50825 0.0
C2021 C 0.68341 0.93559 0.51765 0.0
C2022 C 0.66895 0.98038 0.53276 0.0
C2023 C 0.69705 0.92503 0.52196 0.0
C2024 C 0.60219 0.01157 0.53546 0.0
C2025 C 0.61806 0.00345 0.53586 0.0
C2026 C 0.63372 0.96217 0.51482 0.0
C2027 C 0.68059 0.95004 0.53095 0.0
C2028 C 0.66578 0.96102 0.52676 0.0
C2029 C 0.62097 0.99159 0.52011 0.0
C2030 C 0.63673 0.98137 0.5214 0.0
H2031 H 0.71365 0.94633 0.56672 0.0
H2032 H 0.68978 0.96442 0.55937 0.0
H2033 H 0.64503 0.9372 0.5129 0.0
H2034 H 0.58233 0.99395 0.49044 0.0
H2035 H 0.61008 0.97986 0.49115 0.0
C2036 C 0.36335 0.45085 0.73966 0.0
C2037 C 0.35503 0.46463 0.73161 0.0
C2038 C 0.35323 0.43254 0.73941 0.0
C2039 C 0.30521 0.40487 0.73668 0.0
H2040 H 0.33075 0.36318 0.73015 0.0
C2041 C 0.27024 0.32681 0.74266 0.0
C2042 C 0.28106 0.31756 0.7546 0.0
C2043 C 0.27798 0.34448 0.73727 0.0
C2044 C 0.32343 0.37469 0.73199 0.0
H2045 H 0.32955 0.46982 0.71674 0.0
H2046 H 0.31184 0.43761 0.71624 0.0
H2047 H 0.34667 0.39457 0.72467 0.0
H2048 H 0.30845 0.31967 0.77031 0.0
H2049 H 0.32186 0.35024 0.76082 0.0
H2050 H 0.28205 0.38486 0.7443 0.0
C2051 C 0.3262 0.44114 0.72286 0.0
C2052 C 0.33255 0.39266 0.72889 0.0
C2053 C 0.33637 0.45955 0.72308 0.0
C2054 C 0.2997 0.32636 0.76108 0.0
C2055 C 0.30746 0.34383 0.75553 0.0
C2056 C 0.29602 0.38681 0.73968 0.0
C2057 C 0.33453 0.42745 0.73109 0.0
C2058 C 0.32377 0.40806 0.73176 0.0
C2059 C 0.29673 0.35305 0.74352 0.0
C2060 C 0.30528 0.37166 0.7379 0.0
H2061 H 0.37767 0.45423 0.7464 0.0
H2062 H 0.35998 0.42245 0.74619 0.0
H2063 H 0.2981 0.41645 0.73911 0.0
H2064 H 0.25582 0.3204 0.73747 0.0
H2065 H 0.26942 0.35131 0.72799 0.0
C2066 C 0.17218 0.555 0.23765 0.0
C2067 C 0.15396 0.55021 0.24326 0.0
C2068 C 0.18141 0.57382 0.23889 0.0
C2069 C 0.17304 0.6224 0.24348 0.0
H2070 H 0.22424 0.63541 0.26773 0.0
C2071 C 0.20648 0.69655 0.27868 0.0
C2072 C 0.22543 0.70377 0.27666 0.0
C2073 C 0.19828 0.67799 0.27191 0.0
C2074 C 0.21006 0.632 0.26064 0.0
H2075 H 0.13101 0.56147 0.25417 0.0
H2076 H 0.14711 0.59411 0.25645 0.0
H2077 H 0.20893 0.60244 0.26034 0.0
H2078 H 0.25058 0.69728 0.26565 0.0
H2079 H 0.2362 0.66479 0.25382 0.0
H2080 H 0.17401 0.65195 0.24421 0.0
C2081 C 0.15422 0.58339 0.25091 0.0
C2082 C 0.20129 0.61311 0.25639 0.0
C2083 C 0.14504 0.56464 0.24973 0.0
C2084 C 0.23596 0.6921 0.2675 0.0
C2085 C 0.22776 0.67349 0.26079 0.0
C2086 C 0.18179 0.64126 0.24773 0.0
C2087 C 0.17255 0.5882 0.24565 0.0
C2088 C 0.18255 0.60813 0.24814 0.0
C2089 C 0.20885 0.66622 0.263 0.0
C2090 C 0.20025 0.64626 0.25672 0.0
H2091 H 0.17943 0.54422 0.23256 0.0
H2092 H 0.19549 0.57713 0.2346 0.0
H2093 H 0.1587 0.61899 0.23679 0.0
H2094 H 0.19797 0.70518 0.28563 0.0
H2095 H 0.18375 0.67273 0.27407 0.0
C2096 C 0.52608 0.7044 0.44737 0.0
C2097 C 0.51588 0.70668 0.4302 0.0
C2098 C 0.52358 0.68695 0.45465 0.0
C2099 C 0.49149 0.64004 0.45021 0.0
H2100 H 0.53581 0.62395 0.47156 0.0
C2101 C 0.49213 0.56278 0.45957 0.0
C2102 C 0.50032 0.55862 0.47705 0.0
C2103 C 0.494 0.58131 0.45526 0.0
C2104 C 0.52329 0.62834 0.46585 0.0
H2105 H 0.49484 0.6925 0.40737 0.0
H2106 H 0.49077 0.66199 0.41979 0.0
H2107 H 0.53871 0.65546 0.46144 0.0
H2108 H 0.51725 0.57069 0.50355 0.0
H2109 H 0.52076 0.60326 0.49582 0.0
H2110 H 0.47621 0.61268 0.45411 0.0
C2111 C 0.50045 0.67374 0.42788 0.0
C2112 C 0.52491 0.64642 0.46008 0.0
C2113 C 0.50284 0.69123 0.42068 0.0
C2114 C 0.51078 0.57345 0.48998 0.0
C2115 C 0.51282 0.59206 0.48554 0.0
C2116 C 0.48992 0.62194 0.45581 0.0
C2117 C 0.51092 0.67131 0.44487 0.0
C2118 C 0.50905 0.65244 0.45199 0.0
C2119 C 0.50424 0.59617 0.46822 0.0
C2120 C 0.50583 0.61582 0.46349 0.0
H2121 H 0.53615 0.71606 0.45512 0.0
H2122 H 0.53163 0.68572 0.46794 0.0
H2123 H 0.47891 0.6443 0.44444 0.0
H2124 H 0.484 0.55173 0.44925 0.0
H2125 H 0.48748 0.58401 0.44168 0.0
C2126 C 0.59458 0.29003 0.67977 0.0
C2127 C 0.57648 0.28347 0.68501 0.0
C2128 C 0.61046 0.29052 0.69254 0.0
C2129 C 0.64214 0.29574 0.72497 0.0
H2130 H 0.64065 0.24926 0.74828 0.0
C2131 C 0.70695 0.27955 0.76881 0.0
C2132 C 0.7112 0.2623 0.76218 0.0
C2133 C 0.68953 0.28377 0.76303 0.0
C2134 C 0.64123 0.26239 0.742 0.0
H2135 H 0.56087 0.2735 0.70827 0.0
H2136 H 0.58854 0.27446 0.73049 0.0
H2137 H 0.61227 0.25494 0.73101 0.0
H2138 H 0.70033 0.2356 0.7452 0.0
H2139 H 0.66995 0.24281 0.73541 0.0
H2140 H 0.67139 0.30274 0.73533 0.0
C2141 C 0.59045 0.27892 0.71641 0.0
C2142 C 0.62495 0.26573 0.73224 0.0
C2143 C 0.5746 0.27844 0.70367 0.0
C2144 C 0.69744 0.24902 0.7505 0.0
C2145 C 0.68001 0.25311 0.74498 0.0
C2146 C 0.65844 0.29244 0.73487 0.0
C2147 C 0.60856 0.28447 0.71081 0.0
C2148 C 0.62531 0.28223 0.72321 0.0
C2149 C 0.676 0.27067 0.75084 0.0
C2150 C 0.65823 0.2755 0.74304 0.0
H2151 H 0.59654 0.29406 0.66553 0.0
H2152 H 0.62422 0.29474 0.68774 0.0
H2153 H 0.64281 0.30866 0.7183 0.0
H2154 H 0.71737 0.29008 0.77773 0.0
H2155 H 0.68674 0.29737 0.76782 0.0
C2156 C 0.01415 0.30627 0.90869 0.0
C2157 C 0.002 0.29174 0.91594 0.0
C2158 C 0.01527 0.32502 0.91574 0.0
C2159 C 0.00398 0.35464 0.95683 0.0
H2160 H 0.00581 0.3924 0.92113 0.0
C2161 C 0.99309 0.42896 0.97968 0.0
C2162 C 0.00618 0.44389 0.97427 0.0
C2163 C 0.99216 0.41057 0.97169 0.0
C2164 C 0.00543 0.38203 0.93128 0.0
H2165 H 0.98166 0.28549 0.93643 0.0
H2166 H 0.98342 0.31803 0.94848 0.0
H2167 H 0.00599 0.35996 0.90943 0.0
H2168 H 0.02797 0.45133 0.95553 0.0
H2169 H 0.02628 0.41923 0.94155 0.0
H2170 H 0.00326 0.37665 0.97865 0.0
C2171 C 0.99232 0.31502 0.93757 0.0
C2172 C 0.00562 0.36346 0.9246 0.0
C2173 C 0.99124 0.29633 0.93058 0.0
C2174 C 0.01774 0.44014 0.96005 0.0
C2175 C 0.01674 0.42175 0.95198 0.0
C2176 C 0.0037 0.37315 0.96348 0.0
C2177 C 0.00424 0.32962 0.93017 0.0
C2178 C 0.0048 0.34952 0.9373 0.0
C2179 C 0.00422 0.40672 0.95803 0.0
C2180 C 0.00434 0.38704 0.95078 0.0
H2181 H 0.02264 0.30318 0.89742 0.0
H2182 H 0.02478 0.33591 0.9099 0.0
H2183 H 0.00369 0.34436 0.96706 0.0
H2184 H 0.98393 0.43136 0.99055 0.0
H2185 H 0.98215 0.3993 0.9764 0.0
C2186 C 0.96936 0.75518 0.19815 0.0
C2187 C 0.97575 0.76689 0.18423 0.0
C2188 C 0.9533 0.75719 0.2069 0.0
C2189 C 0.91013 0.77609 0.20013 0.0
H2190 H 0.90826 0.77086 0.25425 0.0
C2191 C 0.84724 0.79001 0.23855 0.0
C2192 C 0.83982 0.77662 0.25054 0.0
C2193 C 0.86464 0.78994 0.23177 0.0
C2194 C 0.90854 0.77221 0.2391 0.0
H2195 H 0.97035 0.78999 0.16867 0.0
H2196 H 0.94236 0.79364 0.1841 0.0
H2197 H 0.93703 0.76872 0.2396 0.0
H2198 H 0.84519 0.75312 0.26548 0.0
H2199 H 0.87567 0.75294 0.25352 0.0
H2200 H 0.88164 0.77949 0.19958 0.0
C2201 C 0.94966 0.78273 0.18806 0.0
C2202 C 0.925 0.77097 0.23069 0.0
C2203 C 0.96574 0.7807 0.17928 0.0
C2204 C 0.85055 0.76364 0.25628 0.0
C2205 C 0.86802 0.76356 0.24946 0.0
C2206 C 0.89371 0.77736 0.20853 0.0
C2207 C 0.94325 0.77098 0.20197 0.0
C2208 C 0.92596 0.77283 0.21108 0.0
C2209 C 0.87505 0.77646 0.2368 0.0
C2210 C 0.89271 0.77541 0.2281 0.0
H2211 H 0.97672 0.74435 0.20227 0.0
H2212 H 0.9486 0.74771 0.21732 0.0
H2213 H 0.91026 0.77724 0.18493 0.0
H2214 H 0.83943 0.80035 0.23401 0.0
H2215 H 0.86984 0.80031 0.22236 0.0
C2216 C 0.48888 0.30603 0.09998 0.0
C2217 C 0.501 0.29425 0.0944 0.0
C2218 C 0.48794 0.32215 0.09085 0.0
C2219 C 0.51553 0.35601 0.06317 0.0
H2220 H 0.46792 0.37073 0.0513 0.0
C2221 C 0.51051 0.42343 0.02699 0.0
C2222 C 0.49899 0.43455 0.03529 0.0
C2223 C 0.51005 0.40516 0.03192 0.0
C2224 C 0.48134 0.36686 0.05461 0.0
H2225 H 0.52145 0.28999 0.07469 0.0
H2226 H 0.51975 0.31806 0.05879 0.0
H2227 H 0.46843 0.34104 0.06464 0.0
H2228 H 0.47761 0.43504 0.05485 0.0
H2229 H 0.47699 0.4035 0.06352 0.0
H2230 H 0.52849 0.382 0.05355 0.0
C2231 C 0.51111 0.31494 0.07032 0.0
C2232 C 0.48162 0.34987 0.06227 0.0
C2233 C 0.512 0.29881 0.07938 0.0
C2234 C 0.48671 0.42689 0.0482 0.0
C2235 C 0.48623 0.4087 0.05307 0.0
C2236 C 0.51526 0.37303 0.05556 0.0
C2237 C 0.49915 0.32685 0.07602 0.0
C2238 C 0.49874 0.34437 0.06687 0.0
C2239 C 0.498 0.39767 0.04515 0.0
C2240 C 0.49817 0.37878 0.05146 0.0
H2241 H 0.48023 0.30291 0.1115 0.0
H2242 H 0.47874 0.33117 0.09571 0.0
H2243 H 0.52897 0.35226 0.06676 0.0
H2244 H 0.52009 0.42894 0.01697 0.0
H2245 H 0.51917 0.39693 0.02543 0.0
C2246 C 0.9579 0.2701 0.3501 0.0
C2247 C 0.9617 0.2719 0.37011 0.0
C2248 C 0.94051 0.27223 0.34163 0.0
C2249 C 0.89664 0.28862 0.35225 0.0
H2250 H 0.8742 0.25226 0.30921 0.0
C2251 C 0.81692 0.2641 0.33139 0.0
C2252 C 0.81032 0.26098 0.31186 0.0
C2253 C 0.83616 0.26938 0.33718 0.0
C2254 C 0.88039 0.26273 0.32101 0.0
H2255 H 0.95037 0.27776 0.39692 0.0
H2256 H 0.91994 0.28084 0.38224 0.0
H2257 H 0.90663 0.25387 0.32174 0.0
H2258 H 0.81863 0.26186 0.28307 0.0
H2259 H 0.85229 0.27085 0.29325 0.0
H2260 H 0.86989 0.29671 0.35202 0.0
C2261 C 0.93048 0.27825 0.373 0.0
C2262 C 0.89902 0.2637 0.32819 0.0
C2263 C 0.94792 0.27634 0.38145 0.0
C2264 C 0.82328 0.2641 0.29824 0.0
C2265 C 0.84254 0.26917 0.30403 0.0
C2266 C 0.87791 0.28748 0.34519 0.0
C2267 C 0.92645 0.27601 0.35298 0.0
C2268 C 0.90729 0.27642 0.34413 0.0
C2269 C 0.84917 0.27147 0.32355 0.0
C2270 C 0.86953 0.27431 0.3297 0.0
H2271 H 0.9683 0.26688 0.34096 0.0
H2272 H 0.93804 0.27074 0.32617 0.0
H2273 H 0.90265 0.29886 0.36429 0.0
H2274 H 0.80727 0.26189 0.34222 0.0
H2275 H 0.84088 0.27093 0.35232 0.0
C2276 C 0.97907 0.67514 0.61333 0.0
C2277 C 0.98146 0.69185 0.60448 0.0
C2278 C 0.97688 0.65781 0.60242 0.0
C2279 C 0.9889 0.63833 0.55618 0.0
H2280 H 0.96302 0.59149 0.57218 0.0
C2281 C 0.99485 0.56535 0.5204 0.0
C2282 C 0.00055 0.55377 0.53373 0.0
C2283 C 0.98868 0.58166 0.52663 0.0
C2284 C 0.97021 0.60448 0.56748 0.0
H2285 H 0.98193 0.7034 0.57714 0.0
H2286 H 0.97755 0.67314 0.55807 0.0
H2287 H 0.95816 0.62125 0.58738 0.0
H2288 H 0.00367 0.54984 0.56392 0.0
H2289 H 0.99274 0.578 0.57464 0.0
H2290 H 0.00117 0.62147 0.53651 0.0
C2291 C 0.97797 0.67343 0.57348 0.0
C2292 C 0.96752 0.62153 0.57624 0.0
C2293 C 0.98038 0.69078 0.58441 0.0
C2294 C -0.00052 0.55852 0.55328 0.0
C2295 C 0.99305 0.57456 0.55943 0.0
C2296 C 0.99142 0.62127 0.54729 0.0
C2297 C 0.97681 0.65677 0.58238 0.0
C2298 C 0.97729 0.63868 0.57113 0.0
C2299 C 0.98776 0.5864 0.54622 0.0
C2300 C 0.98256 0.60421 0.55327 0.0
H2301 H 0.97988 0.67549 0.62877 0.0
H2302 H 0.97625 0.64534 0.60983 0.0
H2303 H 0.99688 0.65121 0.55201 0.0
H2304 H 0.99552 0.56202 0.50525 0.0
H2305 H 0.98469 0.5906 0.51617 0.0
C2306 C 0.585 0.74812 0.8694 0.0
C2307 C 0.56951 0.75296 0.85924 0.0
C2308 C 0.60068 0.74556 0.86024 0.0
C2309 C 0.62508 0.75967 0.8186 0.0
H2310 H 0.65619 0.7252 0.83478 0.0
C2311 C 0.69711 0.75952 0.79075 0.0
C2312 C 0.71177 0.76145 0.80552 0.0
C2313 C 0.67837 0.75457 0.79456 0.0
C2314 C 0.6476 0.73484 0.83007 0.0
H2315 H 0.55803 0.75811 0.83125 0.0
H2316 H 0.58531 0.75333 0.81517 0.0
H2317 H 0.62534 0.72357 0.84628 0.0
H2318 H 0.71836 0.75858 0.83555 0.0
H2319 H 0.68575 0.74981 0.84214 0.0
H2320 H 0.64752 0.77116 0.80269 0.0
C2321 C 0.58547 0.75187 0.83033 0.0
C2322 C 0.62997 0.73397 0.8367 0.0
C2323 C 0.56979 0.75453 0.83954 0.0
C2324 C 0.70737 0.75731 0.8239 0.0
C2325 C 0.68869 0.75216 0.82764 0.0
C2326 C 0.64265 0.76043 0.81185 0.0
C2327 C 0.60124 0.74766 0.84065 0.0
C2328 C 0.61872 0.74674 0.83149 0.0
C2329 C 0.67398 0.7512 0.81314 0.0
C2330 C 0.65429 0.74837 0.81793 0.0
H2331 H 0.58529 0.74681 0.8846 0.0
H2332 H 0.61265 0.74264 0.86873 0.0
H2333 H 0.61694 0.76988 0.81446 0.0
H2334 H 0.70007 0.7626 0.77643 0.0
H2335 H 0.66731 0.75379 0.78308 0.0
C2336 C 0.41762 0.53995 0.67883 0.0
C2337 C 0.42344 0.53342 0.69609 0.0
C2338 C 0.42914 0.54124 0.66392 0.0
C2339 C 0.46011 0.54899 0.63699 0.0
H2340 H 0.47832 0.50329 0.6248 0.0
C2341 C 0.5041 0.53715 0.57323 0.0
C2342 C 0.49675 0.52039 0.56137 0.0
C2343 C 0.49718 0.54051 0.59087 0.0
C2344 C 0.47343 0.51618 0.6281 0.0
H2345 H 0.44642 0.52409 0.71153 0.0
H2346 H 0.46637 0.52624 0.68546 0.0
H2347 H 0.46281 0.507 0.65377 0.0
H2348 H 0.47664 0.49391 0.55884 0.0
H2349 H 0.46491 0.49964 0.58962 0.0
H2350 H 0.47044 0.55792 0.61096 0.0
C2351 C 0.45285 0.53023 0.68345 0.0
C2352 C 0.46468 0.51838 0.64475 0.0
C2353 C 0.44142 0.52908 0.69841 0.0
C2354 C 0.48258 0.50699 0.56761 0.0
C2355 C 0.47592 0.5102 0.58529 0.0
C2356 C 0.46911 0.54689 0.6204 0.0
C2357 C 0.44665 0.5359 0.6659 0.0
C2358 C 0.45762 0.53465 0.64921 0.0
C2359 C 0.48308 0.527 0.59707 0.0
C2360 C 0.47549 0.53028 0.61562 0.0
H2361 H 0.4039 0.54348 0.67658 0.0
H2362 H 0.42394 0.54556 0.65051 0.0
H2363 H 0.45489 0.56172 0.64013 0.0
H2364 H 0.51497 0.54777 0.56877 0.0
H2365 H 0.50294 0.55356 0.59974 0.0
C2366 C 0.77211 0.1947 0.98166 0.0
C2367 C 0.78164 0.18002 0.9846 0.0
C2368 C 0.7734 0.20365 0.96499 0.0
C2369 C 0.80143 0.21203 0.92438 0.0
H2370 H 0.75456 0.21923 0.89871 0.0
C2371 C 0.79354 0.22831 0.84592 0.0
C2372 C 0.78127 0.2401 0.84068 0.0
C2373 C 0.79502 0.22309 0.86447 0.0
C2374 C 0.76783 0.21766 0.90585 0.0
H2375 H 0.80041 0.16354 0.97258 0.0
H2376 H 0.80259 0.17919 0.94328 0.0
H2377 H 0.75455 0.20588 0.92915 0.0
H2378 H 0.76156 0.25637 0.85102 0.0
H2379 H 0.76437 0.24747 0.88358 0.0
H2380 H 0.81468 0.22371 0.90095 0.0
C2381 C 0.79422 0.18381 0.95399 0.0
C2382 C 0.76781 0.20995 0.92327 0.0
C2383 C 0.79289 0.17479 0.9707 0.0
C2384 C 0.77104 0.24716 0.85459 0.0
C2385 C 0.77257 0.24197 0.8732 0.0
C2386 C 0.80147 0.21984 0.90695 0.0
C2387 C 0.78427 0.19816 0.95087 0.0
C2388 C 0.78457 0.20692 0.93266 0.0
C2389 C 0.78433 0.2296 0.87825 0.0
C2390 C 0.78463 0.22259 0.89741 0.0
H2391 H 0.76342 0.19916 0.99213 0.0
H2392 H 0.76581 0.21485 0.96312 0.0
H2393 H 0.81459 0.21008 0.93142 0.0
H2394 H 0.80166 0.22265 0.83555 0.0
H2395 H 0.80405 0.21338 0.86779 0.0
C2396 C 0.06871 0.47138 0.19797 0.0
C2397 C 0.08782 0.47093 0.19717 0.0
C2398 C 0.05624 0.46778 0.18132 0.0
C2399 C 0.03996 0.47765 0.14363 0.0
H2400 H 0.04241 0.44285 0.09966 0.0
C2401 C 0.03119 0.47679 0.05775 0.0
C2402 C 0.01512 0.48465 0.05516 0.0
C2403 C 0.03612 0.4704 0.07516 0.0
C2404 C 0.04155 0.45264 0.11183 0.0
H2405 H 0.10849 0.46488 0.17847 0.0
H2406 H 0.08679 0.45883 0.14939 0.0
H2407 H 0.05851 0.43957 0.13064 0.0
H2408 H 0.99103 0.49092 0.06853 0.0
H2409 H -0.00044 0.47952 0.09895 0.0
H2410 H 0.02387 0.49133 0.12479 0.0
C2411 C 0.08141 0.46185 0.1629 0.0
C2412 C 0.05074 0.45074 0.12955 0.0
C2413 C 0.09389 0.46544 0.17957 0.0
C2414 C 0.00357 0.48507 0.07009 0.0
C2415 C 0.0085 0.47861 0.08754 0.0
C2416 C 0.03085 0.47959 0.12593 0.0
C2417 C 0.06261 0.46366 0.16351 0.0
C2418 C 0.05046 0.46355 0.14551 0.0
C2419 C 0.02509 0.47163 0.09043 0.0
C2420 C 0.03199 0.46746 0.1097 0.0
H2421 H 0.0635 0.47532 0.21133 0.0
H2422 H 0.04176 0.46894 0.18228 0.0
H2423 H 0.03968 0.48792 0.15556 0.0
H2424 H 0.04037 0.47612 0.04653 0.0
H2425 H 0.04911 0.46536 0.07692 0.0
C2426 C 0.75223 0.82998 0.47627 0.0
C2427 C 0.74428 0.84557 0.48124 0.0
C2428 C 0.75134 0.82271 0.45718 0.0
C2429 C 0.72726 0.82285 0.40873 0.0
H2430 H 0.7728 0.80963 0.39211 0.0
C2431 C 0.73787 0.81023 0.32907 0.0
C2432 C 0.74582 0.79483 0.32335 0.0
C2433 C 0.73749 0.81582 0.34843 0.0
C2434 C 0.75991 0.81305 0.39656 0.0
H2435 H 0.72862 0.86539 0.47009 0.0
H2436 H 0.72724 0.85285 0.43666 0.0
H2437 H 0.77176 0.82014 0.42566 0.0
H2438 H 0.75992 0.77343 0.33353 0.0
H2439 H 0.7593 0.78326 0.36746 0.0
H2440 H 0.71552 0.81598 0.37953 0.0
C2441 C 0.734 0.8461 0.44758 0.0
C2442 C 0.75928 0.81904 0.4158 0.0
C2443 C 0.73483 0.85333 0.46673 0.0
C2444 C 0.75373 0.78537 0.33747 0.0
C2445 C 0.75341 0.79103 0.35689 0.0
C2446 C 0.72791 0.8169 0.38947 0.0
C2447 C 0.74255 0.83091 0.44255 0.0
C2448 C 0.74297 0.82407 0.42212 0.0
C2449 C 0.74511 0.8062 0.36257 0.0
C2450 C 0.74428 0.81202 0.38315 0.0
H2451 H 0.7595 0.82357 0.48712 0.0
H2452 H 0.75772 0.81076 0.45387 0.0
H2453 H 0.71439 0.82634 0.41314 0.0
H2454 H 0.7317 0.81789 0.31859 0.0
H2455 H 0.73129 0.82777 0.35233 0.0
C2456 C 0.41145 0.52972 0.81415 0.0
C2457 C 0.42078 0.52171 0.79999 0.0
C2458 C 0.41729 0.52953 0.83355 0.0
C2459 C 0.45727 0.5244 0.867 0.0
H2460 H 0.4189 0.50751 0.90002 0.0
C2461 C 0.47665 0.50984 0.94459 0.0
C2462 C 0.46603 0.51624 0.95852 0.0
C2463 C 0.47085 0.50955 0.92511 0.0
C2464 C 0.4298 0.51245 0.89107 0.0
H2465 H 0.44396 0.50785 0.79504 0.0
H2466 H 0.45422 0.50771 0.82879 0.0
H2467 H 0.40982 0.51055 0.86655 0.0
H2468 H 0.44069 0.52677 0.96288 0.0
H2469 H 0.43082 0.52655 0.92913 0.0
H2470 H 0.47725 0.52658 0.89151 0.0
C2471 C 0.4424 0.51411 0.82494 0.0
C2472 C 0.42457 0.51421 0.87189 0.0
C2473 C 0.43646 0.51413 0.8056 0.0
C2474 C 0.4492 0.52171 0.95255 0.0
C2475 C 0.44347 0.5215 0.93313 0.0
C2476 C 0.4625 0.52277 0.88622 0.0
C2477 C 0.43269 0.52151 0.83913 0.0
C2478 C 0.43825 0.52021 0.85965 0.0
C2479 C 0.45436 0.5157 0.91914 0.0
C2480 C 0.44883 0.51678 0.89851 0.0
H2481 H 0.3993 0.53563 0.81028 0.0
H2482 H 0.40967 0.53553 0.84419 0.0
H2483 H 0.46812 0.52921 0.85794 0.0
H2484 H 0.48967 0.5055 0.94872 0.0
H2485 H 0.47941 0.50466 0.91472 0.0
C2486 C 0.79515 0.19191 0.08913 0.0
C2487 C 0.80042 0.17439 0.08683 0.0
C2488 C 0.79782 0.2023 0.10702 0.0
C2489 C 0.8068 0.2243 0.14591 0.0
H2490 H 0.79263 0.19264 0.18584 0.0
C2491 C 0.7887 0.25356 0.21993 0.0
C2492 C 0.77281 0.24277 0.2265 0.0
C2493 C 0.79652 0.24658 0.20405 0.0
C2494 C 0.7966 0.20171 0.17485 0.0
H2495 H 0.81429 0.15488 0.10115 0.0
H2496 H 0.81951 0.17331 0.13235 0.0
H2497 H 0.79948 0.17856 0.15561 0.0
H2498 H 0.75236 0.21648 0.22125 0.0
H2499 H 0.76561 0.20464 0.19357 0.0
H2500 H 0.80244 0.24725 0.16484 0.0
C2501 C 0.8127 0.17873 0.12042 0.0
C2502 C 0.80087 0.19366 0.15756 0.0
C2503 C 0.8098 0.16819 0.10251 0.0
C2504 C 0.76472 0.2251 0.21671 0.0
C2505 C 0.77244 0.2182 0.2009 0.0
C2506 C 0.80232 0.23234 0.16318 0.0
C2507 C 0.80606 0.19555 0.12306 0.0
C2508 C 0.80537 0.20473 0.14259 0.0
C2509 C 0.78857 0.22871 0.1945 0.0
C2510 C 0.79646 0.22099 0.17755 0.0
H2511 H 0.78795 0.19718 0.07733 0.0
H2512 H 0.7923 0.21504 0.10843 0.0
H2513 H 0.81064 0.23333 0.13486 0.0
H2514 H 0.79527 0.26721 0.22724 0.0
H2515 H 0.80896 0.25501 0.19946 0.0
C2516 C 0.10245 0.48868 0.31547 0.0
C2517 C 0.09365 0.49685 0.30085 0.0
C2518 C 0.09631 0.48922 0.33372 0.0
C2519 C 0.05611 0.49642 0.36002 0.0
H2520 H 0.09398 0.51059 0.40354 0.0
C2521 C 0.03783 0.51517 0.43661 0.0
C2522 C 0.04733 0.50782 0.4514 0.0
C2523 C 0.04324 0.5138 0.41806 0.0
C2524 C 0.08323 0.50644 0.39155 0.0
H2525 H 0.07122 0.51157 0.29374 0.0
H2526 H 0.06064 0.51257 0.3255 0.0
H2527 H 0.10363 0.50716 0.37142 0.0
H2528 H 0.06993 0.49326 0.45834 0.0
H2529 H 0.07917 0.49075 0.42614 0.0
H2530 H 0.03571 0.49572 0.38019 0.0
C2531 C 0.07216 0.50563 0.32288 0.0
C2532 C 0.08877 0.50442 0.37317 0.0
C2533 C 0.07832 0.50514 0.3047 0.0
C2534 C 0.06236 0.49916 0.44731 0.0
C2535 C 0.06774 0.4978 0.42885 0.0
C2536 C 0.05057 0.49841 0.37843 0.0
C2537 C 0.08121 0.49787 0.33764 0.0
C2538 C 0.07527 0.49939 0.3572 0.0
C2539 C 0.05827 0.50509 0.41401 0.0
C2540 C 0.06407 0.50342 0.3944 0.0
H2541 H 0.11427 0.48217 0.31293 0.0
H2542 H 0.10341 0.48292 0.34478 0.0
H2543 H 0.04539 0.49234 0.348 0.0
H2544 H 0.02621 0.52193 0.43934 0.0
H2545 H 0.03579 0.51971 0.40694 0.0
C2546 C 0.73671 0.83341 0.58451 0.0
C2547 C 0.73765 0.85292 0.58678 0.0
C2548 C 0.73508 0.82297 0.60024 0.0
C2549 C 0.72455 0.82534 0.65117 0.0
H2550 H 0.75615 0.78848 0.65494 0.0
C2551 C 0.74966 0.80103 0.72254 0.0
C2552 C 0.74985 0.78188 0.72332 0.0
C2553 C 0.7452 0.80783 0.7052 0.0
C2554 C 0.74702 0.7985 0.65397 0.0
H2555 H 0.73707 0.87664 0.60731 0.0
H2556 H 0.73468 0.85858 0.63472 0.0
H2557 H 0.75366 0.80386 0.62576 0.0
H2558 H 0.74523 0.75477 0.70653 0.0
H2559 H 0.73766 0.76678 0.67603 0.0
H2560 H 0.71858 0.82047 0.67975 0.0
C2561 C 0.73483 0.85122 0.62076 0.0
C2562 C 0.74554 0.80732 0.63722 0.0
C2563 C 0.73632 0.86163 0.60502 0.0
C2564 C 0.74517 0.76959 0.70639 0.0
C2565 C 0.74093 0.77647 0.68894 0.0
C2566 C 0.72616 0.81664 0.66797 0.0
C2567 C 0.73448 0.83179 0.61864 0.0
C2568 C 0.73455 0.8211 0.63572 0.0
C2569 C 0.741 0.79568 0.68817 0.0
C2570 C 0.73766 0.80337 0.66966 0.0
H2571 H 0.73755 0.82621 0.57063 0.0
H2572 H 0.7345 0.80799 0.598 0.0
H2573 H 0.71564 0.83557 0.65039 0.0
H2574 H 0.75313 0.81086 0.73534 0.0
H2575 H 0.74558 0.82273 0.70504 0.0
C2576 C 0.7006 0.43928 0.50766 0.0
C2577 C 0.71051 0.43777 0.5252 0.0
C2578 C 0.68726 0.4507 0.50678 0.0
C2579 C 0.66993 0.48822 0.53582 0.0
H2580 H 0.62582 0.47261 0.49907 0.0
C2581 C 0.59789 0.51119 0.53909 0.0
C2582 C 0.59082 0.51763 0.5223 0.0
C2583 C 0.6144 0.5041 0.53954 0.0
C2584 C 0.63817 0.4772 0.50928 0.0
H2585 H 0.71408 0.44669 0.55561 0.0
H2586 H 0.69021 0.46567 0.55434 0.0
H2587 H 0.65037 0.45428 0.4995 0.0
H2588 H 0.59583 0.52231 0.49302 0.0
H2589 H 0.62436 0.50943 0.49373 0.0
H2590 H 0.65688 0.51054 0.54623 0.0
C2591 C 0.69315 0.45879 0.54106 0.0
C2592 C 0.65234 0.46678 0.50949 0.0
C2593 C 0.70677 0.44774 0.54184 0.0
C2594 C 0.60099 0.51759 0.50623 0.0
C2595 C 0.61724 0.51013 0.50656 0.0
C2596 C 0.65552 0.49838 0.53589 0.0
C2597 C 0.68321 0.46051 0.52351 0.0
C2598 C 0.66842 0.47208 0.52281 0.0
C2599 C 0.62385 0.50299 0.52308 0.0
C2600 C 0.63954 0.49292 0.52262 0.0
H2601 H 0.70334 0.43186 0.49458 0.0
H2602 H 0.68024 0.4519 0.49293 0.0
H2603 H 0.68223 0.49308 0.54602 0.0
H2604 H 0.59032 0.51102 0.55166 0.0
H2605 H 0.61925 0.49859 0.55241 0.0
C2606 C 0.19191 0.10897 0.49077 0.0
C2607 C 0.20749 0.10035 0.49299 0.0
C2608 C 0.17372 0.09844 0.49042 0.0
C2609 C 0.14327 0.05222 0.48229 0.0
H2610 H 0.1168 0.07108 0.52266 0.0
C2611 C 0.07025 0.01286 0.50027 0.0
C2612 C 0.05778 0.02414 0.50618 0.0
C2613 C 0.08879 0.02106 0.49762 0.0
C2614 C 0.12379 0.06574 0.51108 0.0
H2615 H 0.21613 0.07371 0.49525 0.0
H2616 H 0.18412 0.05524 0.49422 0.0
H2617 H 0.14822 0.08752 0.51841 0.0
H2618 H 0.05486 0.05289 0.51337 0.0
H2619 H 0.08642 0.06706 0.50783 0.0
H2620 H 0.11854 0.03073 0.47455 0.0
C2621 C 0.18614 0.07018 0.49297 0.0
C2622 C 0.14185 0.07514 0.50874 0.0
C2623 C 0.20441 0.08077 0.49365 0.0
C2624 C 0.06406 0.04373 0.50889 0.0
C2625 C 0.08233 0.05188 0.50592 0.0
C2626 C 0.12495 0.04293 0.4844 0.0
C2627 C 0.17071 0.07905 0.49194 0.0
C2628 C 0.15168 0.0686 0.49425 0.0
C2629 C 0.09509 0.0407 0.50062 0.0
C2630 C 0.1149 0.04974 0.49871 0.0
H2631 H 0.19377 0.124 0.49021 0.0
H2632 H 0.16198 0.10554 0.48948 0.0
H2633 H 0.15067 0.04691 0.47104 0.0
H2634 H 0.06584 0.99771 0.49814 0.0
H2635 H 0.09826 0.01199 0.49367 0.0
C2636 C 0.17576 0.95161 0.79079 0.0
C2637 C 0.17972 0.9636 0.77645 0.0
C2638 C 0.18424 0.93604 0.79202 0.0
C2639 C 0.22433 0.91604 0.77645 0.0
H2640 H 0.19361 0.8689 0.78638 0.0
C2641 C 0.24765 0.84423 0.76648 0.0
C2642 C 0.24238 0.83139 0.77979 0.0
C2643 C 0.24125 0.86117 0.76696 0.0
C2644 C 0.20248 0.88201 0.78384 0.0
H2645 H 0.19582 0.9687 0.75225 0.0
H2646 H 0.21037 0.94153 0.75427 0.0
H2647 H 0.17997 0.89677 0.78578 0.0
H2648 H 0.22707 0.82672 0.8046 0.0
H2649 H 0.21623 0.8562 0.80557 0.0
H2650 H 0.2468 0.90113 0.77433 0.0
C2651 C 0.20093 0.94425 0.76474 0.0
C2652 C 0.19464 0.89801 0.78352 0.0
C2653 C 0.19247 0.95978 0.7635 0.0
C2654 C 0.23124 0.83618 0.79399 0.0
C2655 C 0.22491 0.85306 0.79449 0.0
C2656 C 0.23218 0.89999 0.77676 0.0
C2657 C 0.19687 0.93212 0.77895 0.0
C2658 C 0.20545 0.91523 0.77979 0.0
C2659 C 0.22948 0.86559 0.78075 0.0
C2660 C 0.22134 0.88278 0.78048 0.0
H2661 H 0.16606 0.95419 0.80102 0.0
H2662 H 0.18097 0.92711 0.8033 0.0
H2663 H 0.23312 0.92913 0.77377 0.0
H2664 H 0.25617 0.84091 0.75533 0.0
H2665 H 0.24496 0.87047 0.7561 0.0
C2666 C 0.30691 0.91962 0.02037 0.0
C2667 C 0.29757 0.9031 0.0091 0.0
C2668 C 0.32513 0.92815 0.01737 0.0
C2669 C 0.36703 0.91631 0.99779 0.0
H2670 H 0.38615 0.96986 0.00943 0.0
C2671 C 0.44467 0.94699 0.02191 0.0
C2672 C 0.45288 0.96481 0.0171 0.0
C2673 C 0.42557 0.93969 0.01695 0.0
C2674 C 0.38104 0.95491 0.00578 0.0
H2675 H 0.29964 0.88321 0.98509 0.0
H2676 H 0.33131 0.89836 0.97957 0.0
H2677 H 0.35247 0.95752 0.00716 0.0
H2678 H 0.44768 0.98865 0.00262 0.0
H2679 H 0.41429 0.97572 0.99365 0.0
H2680 H 0.39556 0.9137 0.99629 0.0
C2681 C 0.32472 0.90445 0.99106 0.0
C2682 C 0.36173 0.9478 0.00474 0.0
C2683 C 0.30653 0.89581 0.99417 0.0
C2684 C 0.44171 0.97492 0.00665 0.0
C2685 C 0.42258 0.96755 0.00159 0.0
C2686 C 0.38631 0.92343 0.99868 0.0
C2687 C 0.3344 0.92049 0.00291 0.0
C2688 C 0.35453 0.92836 0.00128 0.0
C2689 C 0.41422 0.94996 0.00694 0.0
C2690 C 0.39361 0.94275 0.00325 0.0
H2691 H 0.30043 0.92561 0.03201 0.0
H2692 H 0.33221 0.94031 0.02697 0.0
H2693 H 0.36206 0.90124 0.99522 0.0
H2694 H 0.45286 0.93884 0.02998 0.0
H2695 H 0.41959 0.92624 0.02161 0.0
C2696 C 0.85335 0.57919 0.77461 0.0
C2697 C 0.84415 0.56257 0.76346 0.0
C2698 C 0.8466 0.59574 0.7734 0.0
C2699 C 0.80469 0.61432 0.75864 0.0
H2700 H 0.84132 0.66004 0.75594 0.0
C2701 C 0.78403 0.68622 0.74842 0.0
C2702 C 0.79469 0.70139 0.76077 0.0
C2703 C 0.78955 0.66883 0.74702 0.0
C2704 C 0.83092 0.64741 0.75677 0.0
H2705 H 0.82035 0.55013 0.7427 0.0
H2706 H 0.8086 0.57905 0.74061 0.0
H2707 H 0.85172 0.63043 0.75777 0.0
H2708 H 0.81957 0.71029 0.78114 0.0
H2709 H 0.82901 0.68023 0.77876 0.0
H2710 H 0.78391 0.63145 0.75792 0.0
C2711 C 0.82098 0.57925 0.75032 0.0
C2712 C 0.83689 0.63047 0.75788 0.0
C2713 C 0.82778 0.56272 0.75147 0.0
C2714 C 0.81102 0.69892 0.77145 0.0
C2715 C 0.81654 0.68169 0.77 0.0
C2716 C 0.7987 0.63132 0.75757 0.0
C2717 C 0.83047 0.596 0.76107 0.0
C2718 C 0.82389 0.61379 0.75913 0.0
C2719 C 0.80589 0.66644 0.75782 0.0
C2720 C 0.81182 0.64809 0.75695 0.0
H2721 H 0.86597 0.57952 0.78403 0.0
H2722 H 0.85404 0.60838 0.7821 0.0
H2723 H 0.79436 0.60169 0.75967 0.0
H2724 H 0.77136 0.68771 0.74003 0.0
H2725 H 0.78113 0.65732 0.73743 0.0
C2726 C 0.80972 0.58252 0.01641 0.0
C2727 C 0.80718 0.5978 0.00631 0.0
C2728 C 0.82589 0.57507 0.01537 0.0
C2729 C 0.87507 0.5879 0.00522 0.0
H2730 H 0.87311 0.53422 0.0025 0.0
C2731 C 0.94094 0.55716 0.9959 0.0
C2732 C 0.94376 0.54245 0.00672 0.0
C2733 C 0.92389 0.56317 0.99506 0.0
C2734 C 0.87392 0.54926 0.00347 0.0
H2735 H 0.8195 0.61699 0.98684 0.0
H2736 H 0.84778 0.60392 0.98495 0.0
H2737 H 0.84399 0.54605 0.00197 0.0
H2738 H 0.93075 0.52226 0.02489 0.0
H2739 H 0.90093 0.53295 0.02365 0.0
H2740 H 0.90494 0.59119 0.00695 0.0
C2741 C 0.8373 0.59783 0.99384 0.0
C2742 C 0.85723 0.55603 0.00312 0.0
C2743 C 0.82105 0.60525 0.99484 0.0
C2744 C 0.929 0.53362 0.01642 0.0
C2745 C 0.91189 0.5397 0.01563 0.0
C2746 C 0.89174 0.58115 0.00561 0.0
C2747 C 0.83997 0.58275 0.00423 0.0
C2748 C 0.85762 0.57544 0.004 0.0
C2749 C 0.90921 0.55468 0.00508 0.0
C2750 C 0.89138 0.56174 0.00473 0.0
H2751 H 0.79931 0.57644 0.02539 0.0
H2752 H 0.8276 0.56361 0.02371 0.0
H2753 H 0.8759 0.60295 0.00629 0.0
H2754 H 0.95194 0.56414 0.98806 0.0
H2755 H 0.92219 0.57446 0.98647 0.0
C2756 C 0.17817 0.07968 0.80273 0.0
C2757 C 0.18227 0.0642 0.79183 0.0
C2758 C 0.18957 0.09754 0.80321 0.0
C2759 C 0.22022 0.13325 0.80687 0.0
H2760 H 0.23054 0.14723 0.75641 0.0
C2761 C 0.25957 0.20761 0.79266 0.0
C2762 C 0.25032 0.21553 0.7781 0.0
C2763 C 0.25361 0.18868 0.79547 0.0
C2764 C 0.22784 0.14351 0.77061 0.0
H2765 H 0.20223 0.05521 0.77379 0.0
H2766 H 0.22204 0.08637 0.77464 0.0
H2767 H 0.21636 0.11483 0.76026 0.0
H2768 H 0.22776 0.20971 0.75492 0.0
H2769 H 0.21759 0.17682 0.75971 0.0
H2770 H 0.23127 0.16219 0.81705 0.0
C2771 C 0.2099 0.08469 0.78264 0.0
C2772 C 0.21988 0.12492 0.77285 0.0
C2773 C 0.19858 0.06682 0.78225 0.0
C2774 C 0.23518 0.20409 0.7663 0.0
C2775 C 0.22941 0.18519 0.76895 0.0
C2776 C 0.22837 0.15187 0.80464 0.0
C2777 C 0.20525 0.10032 0.79274 0.0
C2778 C 0.21564 0.11964 0.79094 0.0
C2779 C 0.23851 0.17728 0.78358 0.0
C2780 C 0.23187 0.15725 0.78641 0.0
H2781 H 0.16577 0.07817 0.81034 0.0
H2782 H 0.18554 0.10931 0.81102 0.0
H2783 H 0.21722 0.12957 0.821 0.0
H2784 H 0.27126 0.21608 0.80199 0.0
H2785 H 0.2609 0.1829 0.80682 0.0
C2786 C 0.36509 0.96118 0.28828 0.0
C2787 C 0.35775 0.96978 0.27308 0.0
C2788 C 0.35725 0.94268 0.29106 0.0
C2789 C 0.31594 0.90372 0.27621 0.0
H2790 H 0.35234 0.87229 0.28512 0.0
C2791 C 0.29335 0.82336 0.27624 0.0
C2792 C 0.30393 0.81269 0.26579 0.0
C2793 C 0.2997 0.84272 0.28068 0.0
C2794 C 0.34199 0.88087 0.28262 0.0
H2795 H 0.33585 0.96595 0.24943 0.0
H2796 H 0.32245 0.93363 0.25401 0.0
H2797 H 0.36298 0.90611 0.28626 0.0
H2798 H 0.3297 0.81389 0.25229 0.0
H2799 H 0.34061 0.84759 0.25973 0.0
H2800 H 0.29508 0.87832 0.27152 0.0
C2801 C 0.33409 0.94123 0.26398 0.0
C2802 C 0.34806 0.90031 0.28352 0.0
C2803 C 0.34186 0.95976 0.26127 0.0
C2804 C 0.32122 0.82168 0.26037 0.0
C2805 C 0.32754 0.84102 0.26476 0.0
C2806 C 0.30988 0.88425 0.27522 0.0
C2807 C 0.34195 0.93233 0.27864 0.0
C2808 C 0.33515 0.91195 0.27993 0.0
C2809 C 0.31676 0.85181 0.27476 0.0
C2810 C 0.3229 0.87257 0.278 0.0
H2811 H 0.37721 0.96856 0.29777 0.0
H2812 H 0.36342 0.93635 0.3027 0.0
H2813 H 0.30561 0.91231 0.27364 0.0
H2814 H 0.28 0.81681 0.28073 0.0
H2815 H 0.29119 0.8506 0.28861 0.0
C2816 C 0.51662 0.32986 0.60821 0.0
C2817 C 0.53084 0.32009 0.60398 0.0
C2818 C 0.51378 0.345 0.59814 0.0
C2819 C 0.52369 0.36635 0.55328 0.0
H2820 H 0.51818 0.41249 0.58169 0.0
C2821 C 0.53778 0.4378 0.52252 0.0
C2822 C 0.52698 0.45112 0.5275 0.0
C2823 C 0.5355 0.42078 0.53063 0.0
C2824 C 0.51936 0.39963 0.57346 0.0
H2825 H 0.55308 0.31844 0.58573 0.0
H2826 H 0.54818 0.34474 0.56831 0.0
H2827 H 0.51926 0.3847 0.59835 0.0
H2828 H 0.50475 0.45665 0.54436 0.0
H2829 H 0.50063 0.42682 0.55835 0.0
H2830 H 0.52407 0.3813 0.52845 0.0
C2831 C 0.53909 0.34066 0.57925 0.0
C2832 C 0.52 0.38369 0.58303 0.0
C2833 C 0.54199 0.32564 0.58936 0.0
C2834 C 0.51335 0.44673 0.54026 0.0
C2835 C 0.51108 0.42968 0.54839 0.0
C2836 C 0.523 0.38225 0.54371 0.0
C2837 C 0.525 0.35057 0.58355 0.0
C2838 C 0.52254 0.36697 0.57312 0.0
C2839 C 0.52234 0.41663 0.54391 0.0
C2840 C 0.52118 0.3992 0.55373 0.0
H2841 H 0.50777 0.32592 0.61938 0.0
H2842 H 0.50273 0.35228 0.6017 0.0
H2843 H 0.5253 0.35358 0.54516 0.0
H2844 H 0.54842 0.44072 0.51276 0.0
H2845 H 0.54458 0.41119 0.52701 0.0
C2846 C 0.44476 0.72376 0.35441 0.0
C2847 C 0.45823 0.73735 0.34746 0.0
C2848 C 0.42641 0.71885 0.3453 0.0
C2849 C 0.38718 0.72494 0.33346 0.0
H2850 H 0.37537 0.72661 0.27905 0.0
C2851 C 0.32305 0.75128 0.30376 0.0
C2852 C 0.31308 0.74297 0.28623 0.0
C2853 C 0.33953 0.74592 0.31046 0.0
C2854 C 0.37832 0.72576 0.29422 0.0
H2855 H 0.46337 0.75556 0.32488 0.0
H2856 H 0.43156 0.74728 0.3093 0.0
H2857 H 0.40692 0.72401 0.29136 0.0
H2858 H 0.31255 0.72237 0.26203 0.0
H2859 H 0.34155 0.71299 0.27379 0.0
H2860 H 0.35869 0.72699 0.33637 0.0
C2861 C 0.43505 0.74022 0.3216 0.0
C2862 C 0.39645 0.72445 0.3013 0.0
C2863 C 0.4533 0.74512 0.33068 0.0
C2864 C 0.31995 0.72908 0.27556 0.0
C2865 C 0.33656 0.72372 0.28228 0.0
C2866 C 0.36905 0.72618 0.32637 0.0
C2867 C 0.42124 0.7274 0.32906 0.0
C2868 C 0.40128 0.72476 0.32109 0.0
C2869 C 0.3465 0.73209 0.29983 0.0
C2870 C 0.36463 0.72735 0.30678 0.0
H2871 H 0.44818 0.71746 0.36726 0.0
H2872 H 0.41613 0.70877 0.35128 0.0
H2873 H 0.39039 0.7253 0.34878 0.0
H2874 H 0.31821 0.76204 0.31235 0.0
H2875 H 0.34705 0.75295 0.32382 0.0
C2876 C 0.01955 0.70156 0.12516 0.0
C2877 C 0.02554 0.71799 0.11643 0.0
C2878 C 0.02025 0.684 0.11608 0.0
C2879 C 0.02062 0.65805 0.06958 0.0
H2880 H 0.04048 0.62313 0.10007 0.0
C2881 C 0.02092 0.58214 0.03843 0.0
C2882 C 0.01415 0.56827 0.05021 0.0
C2883 C 0.0256 0.6011 0.04575 0.0
C2884 C 0.03482 0.63267 0.09137 0.0
H2885 H 0.03649 0.72879 0.09102 0.0
H2886 H 0.03743 0.69792 0.07499 0.0
H2887 H 0.04135 0.65504 0.11408 0.0
H2888 H 0.00785 0.56332 0.07908 0.0
H2889 H 0.01575 0.59614 0.09169 0.0
H2890 H 0.01343 0.63548 0.04708 0.0
C2891 C 0.03231 0.69876 0.08895 0.0
C2892 C 0.03534 0.65094 0.0994 0.0
C2893 C 0.03179 0.7164 0.09814 0.0
C2894 C 0.01298 0.57364 0.0696 0.0
C2895 C 0.01766 0.59251 0.07688 0.0
C2896 C 0.01998 0.63969 0.06157 0.0
C2897 C 0.02681 0.68242 0.09798 0.0
C2898 C 0.02786 0.66368 0.08874 0.0
C2899 C 0.02368 0.60652 0.06499 0.0
C2900 C 0.02668 0.62666 0.07253 0.0
H2901 H 0.01464 0.70223 0.13922 0.0
H2902 H 0.01562 0.67161 0.12323 0.0
H2903 H 0.01471 0.66757 0.06107 0.0
H2904 H 0.02198 0.57843 0.02342 0.0
H2905 H 0.03041 0.61154 0.03627 0.0
C2906 C 0.06059 0.26263 0.83581 0.0
C2907 C 0.04873 0.24483 0.83188 0.0
C2908 C 0.07591 0.26764 0.8253 0.0
C2909 C 0.09645 0.25333 0.78106 0.0
H2910 H 0.14386 0.27608 0.81062 0.0
C2911 C 0.16876 0.24584 0.75791 0.0
C2912 C 0.18399 0.26107 0.76262 0.0
C2913 C 0.15108 0.24689 0.76364 0.0
C2914 C 0.13069 0.27005 0.80206 0.0
H2915 H 0.04333 0.21853 0.8135 0.0
H2916 H 0.07007 0.22707 0.79557 0.0
H2917 H 0.11497 0.27262 0.82603 0.0
H2918 H 0.19229 0.28979 0.77597 0.0
H2919 H 0.16145 0.29156 0.7859 0.0
H2920 H 0.11239 0.25005 0.75729 0.0
C2921 C 0.06746 0.23734 0.80649 0.0
C2922 C 0.1141 0.26809 0.8109 0.0
C2923 C 0.05219 0.23237 0.81692 0.0
C2924 C 0.1809 0.27773 0.77223 0.0
C2925 C 0.16326 0.27874 0.77801 0.0
C2926 C 0.11306 0.2552 0.77225 0.0
C2927 C 0.07965 0.25494 0.81067 0.0
C2928 C 0.09683 0.25931 0.80062 0.0
C2929 C 0.1483 0.26316 0.77423 0.0
C2930 C 0.1304 0.26322 0.78276 0.0
H2931 H 0.05822 0.27258 0.84718 0.0
H2932 H 0.08493 0.28139 0.82875 0.0
H2933 H 0.08332 0.24683 0.77264 0.0
H2934 H 0.17065 0.23283 0.7505 0.0
H2935 H 0.13985 0.23459 0.76063 0.0
C2936 C 0.5233 0.71565 0.94853 0.0
C2937 C 0.51289 0.71926 0.93207 0.0
C2938 C 0.51731 0.69958 0.95753 0.0
C2939 C 0.49931 0.66694 0.97787 0.0
H2940 H 0.48639 0.62173 0.94238 0.0
C2941 C 0.49221 0.59148 0.00159 0.0
C2942 C 0.50214 0.58021 0.99099 0.0
C2943 C 0.48957 0.60867 0.99552 0.0
C2944 C 0.48986 0.63424 0.95249 0.0
H2945 H 0.48746 0.70939 0.91275 0.0
H2946 H 0.47693 0.68121 0.92855 0.0
H2947 H 0.48841 0.65222 0.9303 0.0
H2948 H 0.51716 0.57819 0.96584 0.0
H2949 H 0.51263 0.60795 0.95545 0.0
H2950 H 0.50184 0.64883 -8e-05 0.0
C2951 C 0.48986 0.69076 0.93434 0.0
C2952 C 0.4908 0.65171 0.94559 0.0
C2953 C 0.49586 0.70691 0.92532 0.0
C2954 C 0.5094 0.58648 0.97434 0.0
C2955 C 0.50666 0.60348 0.96825 0.0
C2956 C 0.49836 0.64941 0.98478 0.0
C2957 C 0.50075 0.68672 0.95029 0.0
C2958 C 0.49619 0.6683 0.95812 0.0
C2959 C 0.49663 0.61472 0.97867 0.0
C2960 C 0.49431 0.63294 0.97204 0.0
H2961 H 0.53644 0.72494 0.95416 0.0
H2962 H 0.52618 0.6968 0.96961 0.0
H2963 H 0.50323 0.67948 0.98791 0.0
H2964 H 0.48643 0.58699 0.01447 0.0
H2965 H 0.48181 0.6171 0.00384 0.0
C2966 C 0.05773 0.74683 0.68306 0.0
C2967 C 0.05438 0.75256 0.66475 0.0
C2968 C 0.07609 0.74888 0.69172 0.0
C2969 C 0.12444 0.77523 0.69007 0.0
H2970 H 0.13921 0.73433 0.71524 0.0
C2971 C 0.20189 0.77496 0.71141 0.0
C2972 C 0.20674 0.76958 0.72952 0.0
C2973 C 0.18312 0.77216 0.70395 0.0
C2974 C 0.13525 0.74595 0.70846 0.0
H2975 H 0.06776 0.76508 0.64129 0.0
H2976 H 0.09968 0.76859 0.65635 0.0
H2977 H 0.10665 0.73136 0.70176 0.0
H2978 H 0.19569 0.75649 0.75378 0.0
H2979 H 0.16275 0.75171 0.74076 0.0
H2980 H 0.15293 0.78984 0.69669 0.0
C2981 C 0.08812 0.76266 0.66409 0.0
C2982 C 0.1166 0.74426 0.70075 0.0
C2983 C 0.0698 0.76056 0.65541 0.0
C2984 C 0.1924 0.76076 0.73977 0.0
C2985 C 0.17354 0.75799 0.73229 0.0
C2986 C 0.14302 0.77693 0.69777 0.0
C2987 C 0.09149 0.75679 0.68231 0.0
C2988 C 0.11104 0.75882 0.69129 0.0
C2989 C 0.16869 0.76398 0.71444 0.0
C2990 C 0.14871 0.76224 0.70687 0.0
H2991 H 0.04618 0.74061 0.69066 0.0
H2992 H 0.07822 0.7444 0.70585 0.0
H2993 H 0.12053 0.78685 0.6832 0.0
H2994 H 0.2126 0.78163 0.70305 0.0
H2995 H 0.1799 0.77654 0.68997 0.0
C2996 C 0.02983 0.31699 0.46428 0.0
C2997 C 0.03169 0.31567 0.44461 0.0
C2998 C 0.03503 0.33428 0.47539 0.0
C2999 C 0.05714 0.38504 0.474 0.0
H3000 H 0.02044 0.39247 0.50909 0.0
C3001 C 0.0346 0.45494 0.49242 0.0
C3002 C 0.03226 0.46027 0.51154 0.0
C3003 C 0.03927 0.4377 0.48725 0.0
C3004 C 0.03104 0.39055 0.49965 0.0
H3005 H 0.04126 0.33108 0.4212 0.0
H3006 H 0.04945 0.36151 0.44028 0.0
H3007 H 0.0201 0.36113 0.49435 0.0
H3008 H 0.03336 0.45193 0.54032 0.0
H3009 H 0.04092 0.42128 0.53107 0.0
H3010 H 0.06702 0.41491 0.47839 0.0
C3011 C 0.04455 0.34918 0.4474 0.0
C3012 C 0.03093 0.37253 0.49119 0.0
C3013 C 0.03977 0.33175 0.43638 0.0
C3014 C 0.0351 0.44817 0.52549 0.0
C3015 C 0.03941 0.43069 0.52022 0.0
C3016 C 0.05702 0.40313 0.48223 0.0
C3017 C 0.04169 0.35076 0.46695 0.0
C3018 C 0.04369 0.36956 0.47789 0.0
C3019 C 0.04137 0.42527 0.50101 0.0
C3020 C 0.04369 0.40606 0.4948 0.0
H3021 H 0.02388 0.30469 0.471 0.0
H3022 H 0.03317 0.33479 0.49048 0.0
H3023 H 0.06744 0.38329 0.46417 0.0
H3024 H 0.03256 0.46398 0.48135 0.0
H3025 H 0.04045 0.43374 0.47231 0.0
C3026 C 0.44786 0.25289 0.19077 0.0
C3027 C 0.45276 0.25731 0.17262 0.0
C3028 C 0.43284 0.25913 0.1984 0.0
C3029 C 0.38797 0.27002 0.18331 0.0
H3030 H 0.38908 0.29001 0.23622 0.0
C3031 C 0.31957 0.27945 0.21339 0.0
C3032 C 0.31716 0.27356 0.2316 0.0
C3033 C 0.33734 0.2825 0.20681 0.0
C3034 C 0.38846 0.28432 0.22144 0.0
H3035 H 0.44607 0.27214 0.14841 0.0
H3036 H 0.41945 0.28269 0.1616 0.0
H3037 H 0.41819 0.28546 0.22353 0.0
H3038 H 0.33153 0.26714 0.25762 0.0
H3039 H 0.36232 0.27166 0.24595 0.0
H3040 H 0.35827 0.26767 0.18132 0.0
C3041 C 0.42737 0.2745 0.16994 0.0
C3042 C 0.40517 0.28182 0.21418 0.0
C3043 C 0.44262 0.2685 0.16243 0.0
C3044 C 0.33299 0.2718 0.24355 0.0
C3045 C 0.35071 0.27448 0.23683 0.0
C3046 C 0.37124 0.27223 0.19062 0.0
C3047 C 0.42223 0.2697 0.18791 0.0
C3048 C 0.40502 0.27437 0.19512 0.0
C3049 C 0.35303 0.27929 0.21813 0.0
C3050 C 0.37118 0.27911 0.20989 0.0
H3051 H 0.45547 0.24436 0.19901 0.0
H3052 H 0.42906 0.25508 0.2122 0.0
H3053 H 0.38741 0.26402 0.16864 0.0
H3054 H 0.3076 0.28109 0.20396 0.0
H3055 H 0.33862 0.28674 0.19256 0.0
C3056 C 0.58642 0.51616 0.33197 0.0
C3057 C 0.59908 0.50525 0.32571 0.0
C3058 C 0.57603 0.51135 0.34719 0.0
C3059 C 0.57701 0.48571 0.38984 0.0
H3060 H 0.52704 0.49618 0.39191 0.0
C3061 C 0.51607 0.48613 0.44595 0.0
C3062 C 0.52793 0.49522 0.46216 0.0
C3063 C 0.52336 0.48341 0.42837 0.0
C3064 C 0.54084 0.49285 0.39149 0.0
H3065 H 0.61038 0.48042 0.33026 0.0
H3066 H 0.59207 0.4719 0.35682 0.0
H3067 H 0.54179 0.49836 0.36222 0.0
H3068 H 0.55683 0.50782 0.4728 0.0
H3069 H 0.56933 0.50337 0.44244 0.0
H3070 H 0.5761 0.48029 0.41912 0.0
C3071 C 0.59037 0.48433 0.35006 0.0
C3072 C 0.54942 0.49434 0.37453 0.0
C3073 C 0.60082 0.48917 0.33481 0.0
C3074 C 0.54723 0.50094 0.46058 0.0
C3075 C 0.55448 0.49817 0.44316 0.0
C3076 C 0.56842 0.48416 0.40677 0.0
C3077 C 0.57795 0.49546 0.35654 0.0
C3078 C 0.56783 0.49133 0.37366 0.0
C3079 C 0.54264 0.48958 0.42676 0.0
C3080 C 0.55046 0.48827 0.40798 0.0
H3081 H 0.58473 0.52866 0.32532 0.0
H3082 H 0.56689 0.52046 0.35197 0.0
H3083 H 0.59121 0.48334 0.38975 0.0
H3084 H 0.50114 0.48153 0.44673 0.0
H3085 H 0.51388 0.47662 0.41603 0.0
C3086 C 0.23964 0.81946 0.06218 0.0
C3087 C 0.24721 0.8388 0.06625 0.0
C3088 C 0.24153 0.80717 0.07602 0.0
C3089 C 0.27233 0.80068 0.1164 0.0
H3090 H 0.22897 0.77043 0.13479 0.0
C3091 C 0.27669 0.77034 0.18826 0.0
C3092 C 0.26381 0.75416 0.1914 0.0
C3093 C 0.27574 0.77774 0.17073 0.0
C3094 C 0.24128 0.77837 0.12952 0.0
H3095 H 0.26257 0.86045 0.08794 0.0
H3096 H 0.26627 0.8388 0.112 0.0
H3097 H 0.22454 0.78945 0.10859 0.0
H3098 H 0.24077 0.7322 0.17809 0.0
H3099 H 0.23952 0.7448 0.14713 0.0
H3100 H 0.28918 0.78957 0.13698 0.0
C3101 C 0.25876 0.83329 0.09814 0.0
C3102 C 0.23869 0.78937 0.11463 0.0
C3103 C 0.25652 0.84564 0.08446 0.0
C3104 C 0.25079 0.7448 0.17617 0.0
C3105 C 0.24997 0.75211 0.15848 0.0
C3106 C 0.27497 0.78942 0.13101 0.0
C3107 C 0.25138 0.81397 0.09397 0.0
C3108 C 0.25416 0.80098 0.10835 0.0
C3109 C 0.26205 0.76902 0.15575 0.0
C3110 C 0.25945 0.77856 0.13818 0.0
H3111 H 0.23235 0.81383 0.04826 0.0
H3112 H 0.23573 0.79231 0.07256 0.0
H3113 H 0.28448 0.80933 0.11151 0.0
H3114 H 0.28695 0.77792 0.19966 0.0
H3115 H 0.28513 0.7909 0.16936 0.0
C3116 C 0.92044 0.54885 0.84271 0.0
C3117 C 0.92812 0.54472 0.82572 0.0
C3118 C 0.93214 0.55413 0.85985 0.0
C3119 C 0.97853 0.54706 0.87982 0.0
H3120 H 0.9636 0.56957 0.9263 0.0
C3121 C 0.01401 0.53957 0.9539 0.0
C3122 C 0.00082 0.53023 0.96508 0.0
C3123 C 0.00802 0.54769 0.93783 0.0
C3124 C 0.96807 0.56349 0.91337 0.0
H3125 H 0.95384 0.54475 0.81258 0.0
H3126 H 0.97443 0.55537 0.8421 0.0
H3127 H 0.94818 0.57386 0.89532 0.0
H3128 H 0.97108 0.52273 0.96855 0.0
H3129 H 0.96079 0.5373 0.94092 0.0
H3130 H 0.9982 0.53651 0.89793 0.0
C3131 C 0.9594 0.55358 0.84262 0.0
C3132 C 0.95915 0.56578 0.89563 0.0
C3133 C 0.94767 0.54772 0.82565 0.0
C3134 C 0.98164 0.52992 0.96036 0.0
C3135 C 0.97571 0.53836 0.94458 0.0
C3136 C 0.98765 0.54512 0.89748 0.0
C3137 C 0.95176 0.55577 0.86015 0.0
C3138 C 0.96372 0.55692 0.87864 0.0
C3139 C 0.9888 0.54693 0.93292 0.0
C3140 C 0.98201 0.55268 0.91443 0.0
H3141 H 0.90534 0.54646 0.84305 0.0
H3142 H 0.9256 0.5555 0.87296 0.0
H3143 H 0.98233 0.53969 0.86725 0.0
H3144 H 0.02888 0.54006 0.95716 0.0
H3145 H 0.01835 0.55417 0.92897 0.0
C3146 C 0.27589 0.15659 0.57564 0.0
C3147 C 0.27002 0.16481 0.55948 0.0
C3148 C 0.27718 0.16599 0.59395 0.0
C3149 C 0.25905 0.20276 0.62124 0.0
H3150 H 0.29962 0.19968 0.65931 0.0
C3151 C 0.26983 0.24162 0.69835 0.0
C3152 C 0.27511 0.23125 0.71307 0.0
C3153 C 0.26889 0.23442 0.67915 0.0
C3154 C 0.28811 0.20055 0.64888 0.0
H3155 H 0.26129 0.1896 0.54991 0.0
H3156 H 0.26373 0.20606 0.5819 0.0
H3157 H 0.29944 0.1859 0.62661 0.0
H3158 H 0.28266 0.20485 0.71919 0.0
H3159 H 0.28085 0.19234 0.68592 0.0
H3160 H 0.2477 0.21735 0.64367 0.0
C3161 C 0.26709 0.19223 0.58039 0.0
C3162 C 0.28802 0.19265 0.63014 0.0
C3163 C 0.26582 0.18283 0.56205 0.0
C3164 C 0.27875 0.21331 0.70822 0.0
C3165 C 0.27783 0.20617 0.68913 0.0
C3166 C 0.25917 0.21071 0.64003 0.0
C3167 C 0.27265 0.18385 0.59656 0.0
C3168 C 0.27335 0.19341 0.61615 0.0
C3169 C 0.27326 0.21676 0.67436 0.0
C3170 C 0.27355 0.20941 0.65412 0.0
H3171 H 0.27919 0.14272 0.57422 0.0
H3172 H 0.28128 0.15902 0.60611 0.0
H3173 H 0.24745 0.20343 0.61084 0.0
H3174 H 0.26696 0.2555 0.70164 0.0
H3175 H 0.26535 0.24292 0.66807 0.0
C3176 C 0.59359 0.51309 0.22178 0.0
C3177 C 0.61086 0.50724 0.22409 0.0
C3178 C 0.58393 0.51202 0.20357 0.0
C3179 C 0.58101 0.48874 0.1543 0.0
H3180 H 0.55887 0.53032 0.13952 0.0
C3181 C 0.56117 0.49685 0.07583 0.0
C3182 C 0.54337 0.50074 0.07079 0.0
C3183 C 0.56829 0.49814 0.09497 0.0
C3184 C 0.56481 0.51853 0.14353 0.0
H3185 H 0.63143 0.49564 0.20901 0.0
H3186 H 0.61479 0.49401 0.17743 0.0
H3187 H 0.5731 0.53105 0.17235 0.0
H3188 H 0.5194 0.5098 0.08191 0.0
H3189 H 0.53202 0.5122 0.11558 0.0
H3190 H 0.57309 0.47639 0.12546 0.0
C3191 C 0.60852 0.49914 0.18967 0.0
C3192 C 0.57292 0.51891 0.16232 0.0
C3193 C 0.61814 0.50018 0.20781 0.0
C3194 C 0.53316 0.5067 0.08534 0.0
C3195 C 0.54037 0.50809 0.10459 0.0
C3196 C 0.57302 0.48841 0.13556 0.0
C3197 C 0.59132 0.50506 0.1873 0.0
C3198 C 0.58139 0.50415 0.16782 0.0
C3199 C 0.55785 0.50342 0.10958 0.0
C3200 C 0.56512 0.50343 0.12988 0.0
H3201 H 0.58757 0.51858 0.23402 0.0
H3202 H 0.57063 0.51652 0.20225 0.0
H3203 H 0.587 0.47694 0.15815 0.0
H3204 H 0.5695 0.49237 0.065 0.0
H3205 H 0.58197 0.49483 0.09836 0.0
C3206 C 0.23294 0.80635 0.96327 0.0
C3207 C 0.22893 0.82443 0.96417 0.0
C3208 C 0.23023 0.79504 0.94594 0.0
C3209 C 0.21188 0.79071 0.89448 0.0
H3210 H 0.2576 0.77234 0.88765 0.0
C3211 C 0.22881 0.75522 0.82227 0.0
C3212 C 0.24624 0.76407 0.81696 0.0
C3213 C 0.22388 0.75935 0.8407 0.0
C3214 C 0.24467 0.77721 0.88939 0.0
H3215 H 0.21759 0.84439 0.94806 0.0
H3216 H 0.21343 0.82484 0.91741 0.0
H3217 H 0.2525 0.78529 0.91913 0.0
H3218 H 0.27232 0.78375 0.8268 0.0
H3219 H 0.2639 0.79061 0.85885 0.0
H3220 H 0.20467 0.78334 0.86426 0.0
C3221 C 0.21835 0.81924 0.93019 0.0
C3222 C 0.24163 0.78449 0.90747 0.0
C3223 C 0.22079 0.83049 0.9477 0.0
C3224 C 0.25878 0.77672 0.83046 0.0
C3225 C 0.25401 0.78059 0.84884 0.0
C3226 C 0.21491 0.78329 0.8763 0.0
C3227 C 0.22381 0.80173 0.92902 0.0
C3228 C 0.22542 0.79173 0.91019 0.0
C3229 C 0.23649 0.77206 0.85412 0.0
C3230 C 0.23161 0.77699 0.87356 0.0
H3231 H 0.23893 0.80123 0.97587 0.0
H3232 H 0.2341 0.78143 0.94561 0.0
H3233 H 0.1992 0.79607 0.89616 0.0
H3234 H 0.21883 0.74551 0.81207 0.0
H3235 H 0.2103 0.75259 0.84449 0.0
C3236 C 0.92658 0.509 0.72563 0.0
C3237 C 0.90818 0.51231 0.724 0.0
C3238 C 0.93572 0.50629 0.70932 0.0
C3239 C 0.92636 0.49378 0.65701 0.0
H3240 H 0.97876 0.51749 0.65672 0.0
C3241 C 0.96089 0.50623 0.5881 0.0
C3242 C 0.97899 0.50257 0.58694 0.0
C3243 C 0.95273 0.5053 0.60522 0.0
C3244 C 0.96421 0.51054 0.65671 0.0
H3245 H 0.88505 0.51563 0.70401 0.0
H3246 H 0.90113 0.51131 0.67562 0.0
H3247 H 0.96351 0.52043 0.68602 0.0
H3248 H 0.00272 0.49494 0.60274 0.0
H3249 H 0.98842 0.49354 0.63296 0.0
H3250 H 0.92694 0.4844 0.62753 0.0
C3251 C 0.90835 0.51039 0.68946 0.0
C3252 C 0.95547 0.51223 0.67346 0.0
C3253 C 0.89918 0.51301 0.70575 0.0
C3254 C 0.98874 0.49781 0.60324 0.0
C3255 C 0.98062 0.49708 0.62051 0.0
C3256 C 0.93507 0.4922 0.64026 0.0
C3257 C 0.92669 0.50691 0.69106 0.0
C3258 C 0.93636 0.50412 0.67369 0.0
C3259 C 0.96254 0.50084 0.62161 0.0
C3260 C 0.95397 0.50083 0.63987 0.0
H3261 H 0.93388 0.50828 0.73948 0.0
H3262 H 0.94976 0.50345 0.71102 0.0
H3263 H 0.91175 0.48701 0.65683 0.0
H3264 H 0.95298 0.50989 0.57578 0.0
H3265 H 0.93888 0.5085 0.60573 0.0
C3266 C 0.26364 0.19381 0.45498 0.0
C3267 C 0.26951 0.17677 0.457 0.0
C3268 C 0.26779 0.20367 0.43924 0.0
C3269 C 0.27601 0.19604 0.38941 0.0
H3270 H 0.29255 0.2502 0.39355 0.0
C3271 C 0.28511 0.23417 0.32194 0.0
C3272 C 0.27871 0.25112 0.32153 0.0
C3273 C 0.28722 0.22615 0.33906 0.0
C3274 C 0.28775 0.23509 0.39211 0.0
H3275 H 0.28468 0.15689 0.44432 0.0
H3276 H 0.29164 0.17403 0.41652 0.0
H3277 H 0.29023 0.23411 0.42251 0.0
H3278 H 0.27032 0.27337 0.33894 0.0
H3279 H 0.27328 0.25904 0.36875 0.0
H3280 H 0.27264 0.1969 0.35918 0.0
C3281 C 0.28389 0.17974 0.42721 0.0
C3282 C 0.28653 0.22589 0.40871 0.0
C3283 C 0.27996 0.16998 0.44314 0.0
C3284 C 0.27524 0.26029 0.33878 0.0
C3285 C 0.27706 0.25209 0.35591 0.0
C3286 C 0.277 0.20524 0.37284 0.0
C3287 C 0.27769 0.1966 0.42504 0.0
C3288 C 0.28049 0.20628 0.40752 0.0
C3289 C 0.28268 0.23468 0.35619 0.0
C3290 C 0.28275 0.22491 0.37394 0.0
H3291 H 0.25562 0.19945 0.46546 0.0
H3292 H 0.26267 0.21653 0.43785 0.0
H3293 H 0.27103 0.18095 0.38806 0.0
H3294 H 0.2882 0.22689 0.30893 0.0
H3295 H 0.29211 0.21305 0.33876 0.0
C3296 C 0.32863 0.57787 0.54025 0.0
C3297 C 0.32512 0.59248 0.5296 0.0
C3298 C 0.33987 0.5657 0.53377 0.0
C3299 C 0.37769 0.56283 0.50335 0.0
H3300 H 0.36543 0.50982 0.51025 0.0
C3301 C 0.42913 0.51484 0.48633 0.0
C3302 C 0.43289 0.50373 0.50097 0.0
C3303 C 0.41348 0.52329 0.48608 0.0
C3304 C 0.36907 0.52459 0.50826 0.0
H3305 H 0.33056 0.60567 0.50367 0.0
H3306 H 0.35035 0.58438 0.49236 0.0
H3307 H 0.34304 0.52974 0.51719 0.0
H3308 H 0.42236 0.49165 0.52596 0.0
H3309 H 0.39526 0.50648 0.52563 0.0
H3310 H 0.40396 0.55789 0.49506 0.0
C3311 C 0.34441 0.58244 0.50578 0.0
C3312 C 0.35625 0.536 0.51224 0.0
C3313 C 0.33306 0.59459 0.51224 0.0
C3314 C 0.41992 0.50015 0.5145 0.0
C3315 C 0.4043 0.50863 0.51427 0.0
C3316 C 0.39053 0.55144 0.49941 0.0
C3317 C 0.34794 0.56785 0.5165 0.0
C3318 C 0.3606 0.55534 0.51023 0.0
C3319 C 0.40126 0.52082 0.50044 0.0
C3320 C 0.38655 0.53225 0.5022 0.0
H3321 H 0.32273 0.57582 0.55368 0.0
H3322 H 0.34257 0.55482 0.54253 0.0
H3323 H 0.38156 0.5777 0.50184 0.0
H3324 H 0.43875 0.51778 0.47558 0.0
H3325 H 0.41133 0.5323 0.475 0.0
C3326 C 0.81778 0.90694 0.53286 0.0
C3327 C 0.80472 0.91573 0.54167 0.0
C3328 C 0.8358 0.91694 0.53118 0.0
C3329 C 0.87121 0.9587 0.55098 0.0
H3330 H 0.89174 0.95069 0.50272 0.0
C3331 C 0.94429 0.99891 0.5348 0.0
C3332 C 0.95538 0.98784 0.52564 0.0
C3333 C 0.92548 0.99141 0.53687 0.0
C3334 C 0.88626 0.95298 0.51633 0.0
H3335 H 0.80055 0.94192 0.55598 0.0
H3336 H 0.83218 0.95942 0.553 0.0
H3337 H 0.85974 0.93515 0.50635 0.0
H3338 H 0.95544 0.96015 0.51169 0.0
H3339 H 0.92287 0.94714 0.51541 0.0
H3340 H 0.89793 0.97639 0.561 0.0
C3341 C 0.82839 0.94473 0.54747 0.0
C3342 C 0.86793 0.94408 0.51841 0.0
C3343 C 0.81026 0.93472 0.5491 0.0
C3344 C 0.9473 0.96913 0.51871 0.0
C3345 C 0.92856 0.96168 0.52074 0.0
C3346 C 0.88962 0.96763 0.5489 0.0
C3347 C 0.84126 0.93598 0.53829 0.0
C3348 C 0.86031 0.94656 0.53585 0.0
C3349 C 0.9174 0.97274 0.52975 0.0
C3350 C 0.89744 0.96458 0.53164 0.0
H3351 H 0.81405 0.89232 0.52705 0.0
H3352 H 0.84552 0.9097 0.52435 0.0
H3353 H 0.86573 0.9608 0.56462 0.0
H3354 H 0.95011 0.01339 0.54028 0.0
H3355 H 0.91718 0.00029 0.54378 0.0
C3356 C 0.84721 0.07254 0.25967 0.0
C3357 C 0.8424 0.06021 0.24277 0.0
C3358 C 0.83687 0.08642 0.26382 0.0
C3359 C 0.8047 0.11294 0.23998 0.0
H3360 H 0.79298 0.1258 0.29142 0.0
C3361 C 0.75563 0.16412 0.25424 0.0
C3362 C 0.76182 0.17833 0.26945 0.0
C3363 C 0.76436 0.14872 0.2522 0.0
C3364 C 0.79625 0.12243 0.277 0.0
H3365 H 0.82265 0.05253 0.21723 0.0
H3366 H 0.80456 0.0764 0.22455 0.0
H3367 H 0.81077 0.10109 0.28548 0.0
H3368 H 0.78143 0.18697 0.295 0.0
H3369 H 0.79667 0.1601 0.29137 0.0
H3370 H 0.79029 0.13424 0.23146 0.0
C3371 C 0.81653 0.07567 0.23445 0.0
C3372 C 0.80648 0.10832 0.2736 0.0
C3373 C 0.82687 0.06188 0.23029 0.0
C3374 C 0.77631 0.17628 0.28311 0.0
C3375 C 0.78503 0.16085 0.28106 0.0
C3376 C 0.79445 0.12697 0.24336 0.0
C3377 C 0.82148 0.08824 0.25116 0.0
C3378 C 0.81079 0.10336 0.25502 0.0
C3379 C 0.77946 0.14714 0.26531 0.0
C3380 C 0.79004 0.13187 0.26189 0.0
H3381 H 0.8591 0.07162 0.26958 0.0
H3382 H 0.84117 0.09597 0.27673 0.0
H3383 H 0.80809 0.10981 0.22557 0.0
H3384 H 0.74445 0.16517 0.24352 0.0
H3385 H 0.75949 0.13821 0.2401 0.0
C3386 C 0.71916 0.09274 0.03848 0.0
C3387 C 0.72434 0.11102 0.03311 0.0
C3388 C 0.70021 0.08378 0.037 0.0
C3389 C 0.65417 0.08577 0.01193 0.0
H3390 H 0.6332 0.05738 0.05185 0.0
C3391 C 0.57506 0.06555 0.01397 0.0
C3392 C 0.56755 0.04664 0.01588 0.0
C3393 C 0.59432 0.07259 0.01758 0.0
C3394 C 0.63894 0.06514 0.04054 0.0
H3395 H 0.71362 0.13432 0.02233 0.0
H3396 H 0.68082 0.1189 0.02004 0.0
H3397 H 0.66694 0.07098 0.05478 0.0
H3398 H 0.57423 0.02054 0.02417 0.0
H3399 H 0.60811 0.03298 0.03056 0.0
H3400 H 0.62628 0.08024 0.99782 0.0
C3401 C 0.69134 0.11129 0.02502 0.0
C3402 C 0.65822 0.07287 0.04218 0.0
C3403 C 0.71018 0.12018 0.02644 0.0
C3404 C 0.57962 0.03517 0.02253 0.0
C3405 C 0.59898 0.04227 0.02621 0.0
C3406 C 0.63499 0.07817 0.01036 0.0
C3407 C 0.68611 0.09294 0.03012 0.0
C3408 C 0.66597 0.08354 0.02801 0.0
C3409 C 0.60654 0.06091 0.02322 0.0
C3410 C 0.62712 0.06805 0.02478 0.0
H3411 H 0.72973 0.08529 0.04369 0.0
H3412 H 0.69663 0.06959 0.04093 0.0
H3413 H 0.65976 0.09349 0.00053 0.0
H3414 H 0.56614 0.07483 0.00909 0.0
H3415 H 0.59973 0.08713 0.01555 0.0
C3416 C 0.18309 0.45012 0.24404 0.0
C3417 C 0.17057 0.45702 0.25545 0.0
C3418 C 0.19419 0.43814 0.251 0.0
C3419 C 0.19643 0.40463 0.28696 0.0
H3420 H 0.24498 0.40459 0.26841 0.0
C3421 C 0.23903 0.34603 0.29865 0.0
C3422 C 0.24074 0.3368 0.28079 0.0
C3423 C 0.2337 0.36352 0.29972 0.0
C3424 C 0.23157 0.40461 0.27393 0.0
H3425 H 0.16013 0.45704 0.28333 0.0
H3426 H 0.17981 0.43623 0.29568 0.0
H3427 H 0.22922 0.43055 0.26294 0.0
H3428 H 0.23931 0.3388 0.25025 0.0
H3429 H 0.23076 0.36954 0.25218 0.0
H3430 H 0.19879 0.37841 0.29762 0.0
C3431 C 0.18083 0.43991 0.2812 0.0
C3432 C 0.22244 0.41935 0.27065 0.0
C3433 C 0.16958 0.45187 0.27415 0.0
C3434 C 0.23806 0.34567 0.26419 0.0
C3435 C 0.23326 0.36326 0.2653 0.0
C3436 C 0.20572 0.39 0.29048 0.0
C3437 C 0.19322 0.43283 0.26966 0.0
C3438 C 0.20438 0.41913 0.27638 0.0
C3439 C 0.23061 0.37216 0.28299 0.0
C3440 C 0.22302 0.38953 0.28333 0.0
H3441 H 0.18415 0.45373 0.22953 0.0
H3442 H 0.20319 0.43264 0.2415 0.0
H3443 H 0.18252 0.40392 0.2915 0.0
H3444 H 0.24089 0.33933 0.31161 0.0
H3445 H 0.23164 0.37014 0.31351 0.0
C3446 C 0.20709 0.43926 0.05553 0.0
C3447 C 0.21164 0.42654 0.04146 0.0
C3448 C 0.19351 0.44978 0.05121 0.0
C3449 C 0.15275 0.45026 0.0165 0.0
H3450 H 0.15759 0.50088 0.04098 0.0
C3451 C 0.09591 0.49337 0.00166 0.0
C3452 C 0.08943 0.50116 0.01812 0.0
C3453 C 0.11254 0.48653 0.00297 0.0
C3454 C 0.15604 0.48675 0.03407 0.0
H3455 H 0.20572 0.41516 0.01168 0.0
H3456 H 0.18218 0.4338 0.00399 0.0
H3457 H 0.18339 0.48433 0.04582 0.0
H3458 H 0.096 0.50893 0.04867 0.0
H3459 H 0.12509 0.49709 0.05092 0.0
H3460 H 0.12536 0.45267 0.00485 0.0
C3461 C 0.1889 0.43539 0.0185 0.0
C3462 C 0.17078 0.47722 0.03687 0.0
C3463 C 0.20244 0.42475 0.02287 0.0
C3464 C 0.10055 0.50298 0.03572 0.0
C3465 C 0.11726 0.49625 0.03701 0.0
C3466 C 0.13808 0.45984 0.01358 0.0
C3467 C 0.18419 0.44798 0.03265 0.0
C3468 C 0.16919 0.45873 0.02839 0.0
C3469 C 0.12315 0.48747 0.02073 0.0
C3470 C 0.13945 0.47808 0.02256 0.0
H3471 H 0.21386 0.44094 0.07002 0.0
H3472 H 0.19003 0.45904 0.06258 0.0
H3473 H 0.15088 0.43596 0.00996 0.0
H3474 H 0.08775 0.49182 0.98784 0.0
H3475 H 0.11687 0.4801 0.99014 0.0
C3476 C 0.86189 0.94857 0.24358 0.0
C3477 C 0.85353 0.96267 0.2363 0.0
C3478 C 0.85153 0.93035 0.24341 0.0
C3479 C 0.80323 0.90319 0.24178 0.0
H3480 H 0.82796 0.8612 0.23291 0.0
C3481 C 0.76842 0.82437 0.24595 0.0
C3482 C 0.77948 0.81515 0.25766 0.0
C3483 C 0.77585 0.84231 0.24092 0.0
C3484 C 0.82086 0.87279 0.23536 0.0
H3485 H 0.82769 0.96859 0.22295 0.0
H3486 H 0.80959 0.93658 0.22251 0.0
H3487 H 0.84401 0.89268 0.22791 0.0
H3488 H 0.80692 0.81763 0.27344 0.0
H3489 H 0.81976 0.84854 0.2645 0.0
H3490 H 0.78014 0.88309 0.24947 0.0
C3491 C 0.82415 0.93975 0.22852 0.0
C3492 C 0.83006 0.89082 0.23258 0.0
C3493 C 0.83455 0.95806 0.2287 0.0
C3494 C 0.79798 0.82426 0.26436 0.0
C3495 C 0.80543 0.84194 0.25914 0.0
C3496 C 0.79394 0.88505 0.24444 0.0
C3497 C 0.83254 0.9257 0.23588 0.0
C3498 C 0.82162 0.90632 0.23634 0.0
C3499 C 0.79452 0.8511 0.24727 0.0
C3500 C 0.80293 0.86979 0.2418 0.0
H3501 H 0.87643 0.9516 0.24964 0.0
H3502 H 0.85834 0.91998 0.24955 0.0
H3503 H 0.79638 0.91483 0.24488 0.0
H3504 H 0.7541 0.81773 0.24061 0.0
H3505 H 0.76716 0.84913 0.23177 0.0
C3506 C 0.6523 0.05909 0.75267 0.0
C3507 C 0.66018 0.04492 0.74379 0.0
C3508 C 0.66144 0.07785 0.75398 0.0
C3509 C 0.70789 0.10804 0.75424 0.0
H3510 H 0.67856 0.14661 0.74839 0.0
C3511 C 0.74054 0.18792 0.76445 0.0
C3512 C 0.73108 0.19868 0.7762 0.0
C3513 C 0.73248 0.16918 0.75804 0.0
C3514 C 0.68693 0.13599 0.75009 0.0
H3515 H 0.68386 0.03941 0.72917 0.0
H3516 H 0.69985 0.07237 0.73143 0.0
H3517 H 0.66333 0.11362 0.74121 0.0
H3518 H 0.70573 0.19831 0.79032 0.0
H3519 H 0.69173 0.16575 0.77915 0.0
H3520 H 0.73142 0.13052 0.76344 0.0
C3521 C 0.68662 0.06883 0.73748 0.0
C3522 C 0.67822 0.11712 0.74601 0.0
C3523 C 0.67742 0.04999 0.73612 0.0
C3524 C 0.71339 0.19041 0.7813 0.0
C3525 C 0.7053 0.17179 0.77478 0.0
C3526 C 0.71663 0.12697 0.75827 0.0
C3527 C 0.67869 0.08295 0.74642 0.0
C3528 C 0.68849 0.10293 0.74851 0.0
C3529 C 0.71474 0.16098 0.7631 0.0
C3530 C 0.70611 0.14109 0.75669 0.0
H3531 H 0.63907 0.05571 0.75878 0.0
H3532 H 0.65513 0.08834 0.76127 0.0
H3533 H 0.71614 0.09742 0.75643 0.0
H3534 H 0.75421 0.19393 0.76029 0.0
H3535 H 0.74002 0.16117 0.74899 0.0
loop_
_geom_bond_atom_site_label_1
_geom_bond_atom_site_label_2
_geom_bond_distance
_geom_bond_site_symmetry_2
_ccdc_geom_bond_type
O0 Cd1 2.223 . S
O0 C8 1.315 . S
Cd1 O0 2.223 . S
Cd1 O4 2.297 . S
Cd1 O5 2.439 . S
Cd1 O11 2.209 1_455 S
Cd2 O3 2.240 . S
Cd2 O10 2.223 1_455 S
Cd2 O12 2.297 . S
Cd2 O13 2.439 . S
O3 Cd2 2.240 . S
O3 C8 1.279 . S
O4 Cd1 2.297 . S
O4 C6 1.247 . S
O5 Cd1 2.439 . S
O5 C6 1.208 . S
C6 O4 1.247 . S
C6 O5 1.208 . S
C7 O12 1.247 . S
C7 O13 1.208 . S
C8 O0 1.315 . S
C8 O3 1.279 . S
C9 O10 1.315 . S
C9 O11 1.310 . S
O10 Cd2 2.223 1_655 S
O10 C9 1.315 . S
O11 Cd1 2.209 1_655 S
O11 C9 1.310 . S
O12 Cd2 2.297 . S
O12 C7 1.247 . S
O13 Cd2 2.439 . S
O13 C7 1.208 . S
O14 Cd15 2.221 1_455 S
O14 C22 1.315 1_455 S
Cd15 O14 2.221 1_655 S
Cd15 O18 2.297 . S
Cd15 O19 2.439 . S
Cd15 O25 2.240 1_655 S
Cd16 O17 2.240 1_455 S
Cd16 O24 2.223 . S
Cd16 O26 2.297 . S
Cd16 O27 2.419 1_455 S
O17 Cd16 2.240 1_655 S
O17 C22 1.279 . S
O18 Cd15 2.297 . S
O18 C20 1.247 . S
O19 Cd15 2.439 . S
O19 C20 1.208 . S
C20 O18 1.247 . S
C20 O19 1.208 . S
C21 O26 1.247 . S
C21 O27 1.184 1_455 S
C22 O14 1.315 1_655 S
C22 O17 1.279 . S
C23 O24 1.315 . S
C23 O25 1.279 . S
O24 Cd16 2.223 . S
O24 C23 1.315 . S
O25 Cd15 2.240 1_455 S
O25 C23 1.279 . S
O26 Cd16 2.297 . S
O26 C21 1.247 . S
O27 Cd16 2.419 1_655 S
O27 C21 1.184 1_655 S
O28 Cd29 2.223 . S
O28 C36 1.315 . S
Cd29 O28 2.223 . S
Cd29 O32 2.297 . S
Cd29 O33 2.439 . S
Cd29 O39 2.240 . S
Cd30 O31 2.240 . S
Cd30 O38 2.223 . S
Cd30 O40 2.297 . S
Cd30 O41 2.439 . S
O31 Cd30 2.240 . S
O31 C36 1.279 . S
O32 Cd29 2.297 . S
O32 C34 1.247 . S
O33 Cd29 2.439 . S
O33 C34 1.208 . S
C34 O32 1.247 . S
C34 O33 1.208 . S
C35 O40 1.247 . S
C35 O41 1.208 . S
C36 O28 1.315 . S
C36 O31 1.279 . S
C37 O38 1.315 . S
C37 O39 1.279 . S
O38 Cd30 2.223 . S
O38 C37 1.315 . S
O39 Cd29 2.240 . S
O39 C37 1.279 . S
O40 Cd30 2.297 . S
O40 C35 1.247 . S
O41 Cd30 2.439 . S
O41 C35 1.208 . S
O42 Cd43 2.223 . S
O42 C50 1.315 . S
Cd43 O42 2.223 . S
Cd43 O46 2.297 . S
Cd43 O47 2.439 . S
Cd43 O53 2.240 . S
Cd44 O45 2.240 . S
Cd44 O52 2.223 . S
Cd44 O54 2.297 . S
Cd44 O55 2.439 . S
O45 Cd44 2.240 . S
O45 C50 1.279 . S
O46 Cd43 2.297 . S
O46 C48 1.247 . S
O47 Cd43 2.439 . S
O47 C48 1.208 . S
C48 O46 1.247 . S
C48 O47 1.208 . S
C49 O54 1.247 . S
C49 O55 1.208 . S
C50 O42 1.315 . S
C50 O45 1.279 . S
C51 O52 1.315 . S
C51 O53 1.279 . S
O52 Cd44 2.223 . S
O52 C51 1.315 . S
O53 Cd43 2.240 . S
O53 C51 1.279 . S
O54 Cd44 2.297 . S
O54 C49 1.247 . S
O55 Cd44 2.439 . S
O55 C49 1.208 . S
O56 Cd57 2.223 . S
O56 C64 1.315 . S
Cd57 O56 2.223 . S
Cd57 O60 2.297 1_455 S
Cd57 O61 2.439 1_455 S
Cd57 O67 2.240 . S
Cd58 O59 2.240 . S
Cd58 O66 2.223 . S
Cd58 O68 2.297 . S
Cd58 O69 2.439 . S
O59 Cd58 2.240 . S
O59 C64 1.279 . S
O60 Cd57 2.297 1_655 S
O60 C62 1.247 . S
O61 Cd57 2.439 1_655 S
O61 C62 1.208 . S
C62 O60 1.247 . S
C62 O61 1.208 . S
C63 O68 1.247 . S
C63 O69 1.208 . S
C64 O56 1.315 . S
C64 O59 1.279 . S
C65 O66 1.315 . S
C65 O67 1.279 . S
O66 Cd58 2.223 . S
O66 C65 1.315 . S
O67 Cd57 2.240 . S
O67 C65 1.279 . S
O68 Cd58 2.297 . S
O68 C63 1.247 . S
O69 Cd58 2.439 . S
O69 C63 1.208 . S
O70 Cd71 2.223 . S
O70 C78 1.315 . S
Cd71 O70 2.223 . S
Cd71 O74 2.297 . S
Cd71 O75 2.439 . S
Cd71 O81 2.240 . S
Cd72 O73 2.240 . S
Cd72 O80 2.223 . S
Cd72 O82 2.297 . S
Cd72 O83 2.439 . S
O73 Cd72 2.240 . S
O73 C78 1.279 . S
O74 Cd71 2.297 . S
O74 C76 1.247 . S
O75 Cd71 2.439 . S
O75 C76 1.208 . S
C76 O74 1.247 . S
C76 O75 1.208 . S
C77 O82 1.247 . S
C77 O83 1.208 . S
C78 O70 1.315 . S
C78 O73 1.279 . S
C79 O80 1.315 . S
C79 O81 1.279 . S
O80 Cd72 2.223 . S
O80 C79 1.315 . S
O81 Cd71 2.240 . S
O81 C79 1.279 . S
O82 Cd72 2.297 . S
O82 C77 1.247 . S
O83 Cd72 2.439 . S
O83 C77 1.208 . S
O84 Cd85 2.223 . S
O84 C92 1.315 . S
Cd85 O84 2.223 . S
Cd85 O88 2.297 . S
Cd85 O89 2.439 . S
Cd85 O95 2.240 . S
Cd86 O87 2.240 . S
Cd86 O94 2.223 . S
Cd86 O96 2.297 . S
Cd86 O97 2.439 . S
O87 Cd86 2.240 . S
O87 C92 1.279 . S
O88 Cd85 2.297 . S
O88 C90 1.247 . S
O89 Cd85 2.439 . S
O89 C90 1.208 . S
C90 O88 1.247 . S
C90 O89 1.208 . S
C91 O96 1.247 . S
C91 O97 1.208 . S
C92 O84 1.315 . S
C92 O87 1.279 . S
C93 O94 1.315 . S
C93 O95 1.279 . S
O94 Cd86 2.223 . S
O94 C93 1.315 . S
O95 Cd85 2.240 . S
O95 C93 1.279 . S
O96 Cd86 2.297 . S
O96 C91 1.247 . S
O97 Cd86 2.439 . S
O97 C91 1.208 . S
O98 Cd99 2.223 1_655 S
O98 C106 1.319 . S
Cd99 O98 2.223 1_455 S
Cd99 O102 2.297 . S
Cd99 O103 2.439 . S
Cd99 O109 2.240 1_455 S
Cd100 O101 2.240 1_655 S
Cd100 O108 2.223 . S
Cd100 O110 2.297 . S
Cd100 O111 2.439 1_655 S
O101 Cd100 2.240 1_455 S
O101 C106 1.264 1_455 S
O102 Cd99 2.297 . S
O102 C104 1.247 . S
O103 Cd99 2.439 . S
O103 C104 1.208 . S
C104 O102 1.247 . S
C104 O103 1.208 . S
C105 O110 1.247 1_455 S
C105 O111 1.208 . S
C106 O98 1.319 . S
C106 O101 1.264 1_655 S
C107 O108 1.315 . S
C107 O109 1.279 . S
O108 Cd100 2.223 . S
O108 C107 1.315 . S
O109 Cd99 2.240 1_655 S
O109 C107 1.279 . S
O110 Cd100 2.297 . S
O110 C105 1.247 1_655 S
O111 Cd100 2.439 1_455 S
O111 C105 1.208 . S
O112 Cd113 2.223 . S
O112 C120 1.315 . S
Cd113 O112 2.223 . S
Cd113 O116 2.297 . S
Cd113 O117 2.439 . S
Cd113 O123 2.240 . S
Cd114 O115 2.240 . S
Cd114 O122 2.223 1_545 S
Cd114 O124 2.297 . S
Cd114 O125 2.439 . S
O115 Cd114 2.240 . S
O115 C120 1.279 . S
O116 Cd113 2.297 . S
O116 C118 1.247 . S
O117 Cd113 2.439 . S
O117 C118 1.208 . S
C118 O116 1.247 . S
C118 O117 1.208 . S
C119 O124 1.247 . S
C119 O125 1.208 . S
C120 O112 1.315 . S
C120 O115 1.279 . S
C121 O122 1.315 . S
C121 O123 1.279 1_565 S
O122 Cd114 2.223 1_565 S
O122 C121 1.315 . S
O123 Cd113 2.240 . S
O123 C121 1.279 1_545 S
O124 Cd114 2.297 . S
O124 C119 1.247 . S
O125 Cd114 2.439 . S
O125 C119 1.208 . S
O126 Cd127 2.223 . S
O126 C134 1.315 . S
Cd127 O126 2.223 . S
Cd127 O130 2.297 . S
Cd127 O131 2.439 . S
Cd127 O137 2.240 . S
Cd128 O129 2.240 . S
Cd128 O136 2.223 . S
Cd128 O138 2.297 . S
Cd128 O139 2.439 . S
O129 Cd128 2.240 . S
O129 C134 1.279 . S
O130 Cd127 2.297 . S
O130 C132 1.247 . S
O131 Cd127 2.439 . S
O131 C132 1.208 . S
C132 O130 1.247 . S
C132 O131 1.208 . S
C133 O138 1.247 . S
C133 O139 1.208 . S
C134 O126 1.315 . S
C134 O129 1.279 . S
C135 O136 1.315 . S
C135 O137 1.279 . S
O136 Cd128 2.223 . S
O136 C135 1.315 . S
O137 Cd127 2.240 . S
O137 C135 1.279 . S
O138 Cd128 2.297 . S
O138 C133 1.247 . S
O139 Cd128 2.439 . S
O139 C133 1.208 . S
O140 Cd141 2.212 1_545 S
O140 C148 1.315 . S
Cd141 O140 2.212 1_565 S
Cd141 O144 2.325 . S
Cd141 O145 2.464 . S
Cd141 O151 2.217 1_565 S
Cd142 O143 2.240 1_545 S
Cd142 O150 2.223 . S
Cd142 O152 2.297 . S
Cd142 O153 2.411 1_545 S
O143 Cd142 2.240 1_565 S
O143 C148 1.279 1_565 S
O144 Cd141 2.325 . S
O144 C146 1.247 . S
O145 Cd141 2.464 . S
O145 C146 1.208 . S
C146 O144 1.247 . S
C146 O145 1.208 . S
C147 O152 1.247 . S
C147 O153 1.170 1_545 S
C148 O140 1.315 . S
C148 O143 1.279 1_545 S
C149 O150 1.315 . S
C149 O151 1.279 . S
O150 Cd142 2.223 . S
O150 C149 1.315 . S
O151 Cd141 2.217 1_545 S
O151 C149 1.279 . S
O152 Cd142 2.297 . S
O152 C147 1.247 . S
O153 Cd142 2.411 1_565 S
O153 C147 1.170 1_565 S
O154 Cd155 2.223 . S
O154 C162 1.315 . S
Cd155 O154 2.223 . S
Cd155 O158 2.297 . S
Cd155 O159 2.460 . S
Cd155 O165 2.240 . S
Cd156 O157 2.240 1_556 S
Cd156 O164 2.223 1_556 S
Cd156 O166 2.297 . S
Cd156 O167 2.439 . S
O157 Cd156 2.240 1_554 S
O157 C162 1.279 . S
O158 Cd155 2.297 . S
O158 C160 1.247 . S
O159 Cd155 2.460 . S
O159 C160 1.247 . S
C160 O158 1.247 . S
C160 O159 1.247 . S
C161 O166 1.247 . S
C161 O167 1.208 . S
C162 O154 1.315 . S
C162 O157 1.279 . S
C163 O164 1.315 . S
C163 O165 1.279 . S
O164 Cd156 2.223 1_554 S
O164 C163 1.315 . S
O165 Cd155 2.240 . S
O165 C163 1.279 . S
O166 Cd156 2.297 . S
O166 C161 1.247 . S
O167 Cd156 2.439 . S
O167 C161 1.208 . S
O168 Cd169 2.223 . S
O168 C176 1.315 . S
Cd169 O168 2.223 . S
Cd169 O172 2.297 . S
Cd169 O173 2.439 . S
Cd169 O179 2.240 . S
Cd170 O171 2.240 . S
Cd170 O178 2.223 . S
Cd170 O180 2.297 1_554 S
Cd170 O181 2.439 1_554 S
O171 Cd170 2.240 . S
O171 C176 1.279 . S
O172 Cd169 2.297 . S
O172 C174 1.247 . S
O173 Cd169 2.439 . S
O173 C174 1.208 . S
C174 O172 1.247 . S
C174 O173 1.208 . S
C175 O180 1.247 . S
C175 O181 1.208 . S
C176 O168 1.315 . S
C176 O171 1.279 . S
C177 O178 1.315 . S
C177 O179 1.279 . S
O178 Cd170 2.223 . S
O178 C177 1.315 . S
O179 Cd169 2.240 . S
O179 C177 1.279 . S
O180 Cd170 2.297 1_556 S
O180 C175 1.247 . S
O181 Cd170 2.439 1_556 S
O181 C175 1.208 . S
O182 Cd183 2.223 . S
O182 C190 1.315 . S
Cd183 O182 2.223 . S
Cd183 O186 2.297 . S
Cd183 O187 2.439 . S
Cd183 O193 2.240 . S
Cd184 O185 2.240 . S
Cd184 O192 2.223 . S
Cd184 O194 2.297 1_554 S
Cd184 O195 2.439 1_554 S
O185 Cd184 2.240 . S
O185 C190 1.279 . S
O186 Cd183 2.297 . S
O186 C188 1.247 . S
O187 Cd183 2.439 . S
O187 C188 1.208 . S
C188 O186 1.247 . S
C188 O187 1.208 . S
C189 O194 1.247 . S
C189 O195 1.208 . S
C190 O182 1.315 . S
C190 O185 1.279 . S
C191 O192 1.315 . S
C191 O193 1.279 . S
O192 Cd184 2.223 . S
O192 C191 1.315 . S
O193 Cd183 2.240 . S
O193 C191 1.279 . S
O194 Cd184 2.297 1_556 S
O194 C189 1.247 . S
O195 Cd184 2.439 1_556 S
O195 C189 1.208 . S
O196 Cd197 2.223 . S
O196 C204 1.315 . S
Cd197 O196 2.223 . S
Cd197 O200 2.297 . S
Cd197 O201 2.439 . S
Cd197 O207 2.240 . S
Cd198 O199 2.240 . S
Cd198 O206 2.223 . S
Cd198 O208 2.297 . S
Cd198 O209 2.439 . S
O199 Cd198 2.240 . S
O199 C204 1.279 . S
O200 Cd197 2.297 . S
O200 C202 1.247 . S
O201 Cd197 2.439 . S
O201 C202 1.208 . S
C202 O200 1.247 . S
C202 O201 1.208 . S
C203 O208 1.247 . S
C203 O209 1.208 . S
C204 O196 1.315 . S
C204 O199 1.279 . S
C205 O206 1.315 . S
C205 O207 1.279 . S
O206 Cd198 2.223 . S
O206 C205 1.315 . S
O207 Cd197 2.240 . S
O207 C205 1.279 . S
O208 Cd198 2.297 . S
O208 C203 1.247 . S
O209 Cd198 2.439 . S
O209 C203 1.208 . S
O210 Cd211 2.223 . S
O210 C218 1.315 . S
Cd211 O210 2.223 . S
Cd211 O214 2.297 . S
Cd211 O215 2.439 . S
Cd211 O221 2.240 . S
Cd212 O213 2.240 . S
Cd212 O220 2.223 . S
Cd212 O222 2.297 . S
Cd212 O223 2.439 . S
O213 Cd212 2.240 . S
O213 C218 1.279 . S
O214 Cd211 2.297 . S
O214 C216 1.247 . S
O215 Cd211 2.439 . S
O215 C216 1.208 . S
C216 O214 1.247 . S
C216 O215 1.208 . S
C217 O222 1.247 . S
C217 O223 1.208 . S
C218 O210 1.315 . S
C218 O213 1.279 . S
C219 O220 1.315 . S
C219 O221 1.279 . S
O220 Cd212 2.223 . S
O220 C219 1.315 . S
O221 Cd211 2.240 . S
O221 C219 1.279 . S
O222 Cd212 2.297 . S
O222 C217 1.247 . S
O223 Cd212 2.439 . S
O223 C217 1.208 . S
O224 Cd225 2.223 . S
O224 C232 1.315 . S
Cd225 O224 2.223 . S
Cd225 O228 2.297 . S
Cd225 O229 2.439 . S
Cd225 O235 2.240 1_545 S
Cd226 O227 2.240 . S
Cd226 O234 2.223 1_545 S
Cd226 O236 2.297 1_545 S
Cd226 O237 2.439 . S
O227 Cd226 2.240 . S
O227 C232 1.279 . S
O228 Cd225 2.297 . S
O228 C230 1.247 . S
O229 Cd225 2.439 . S
O229 C230 1.208 . S
C230 O228 1.247 . S
C230 O229 1.208 . S
C231 O236 1.247 1_545 S
C231 O237 1.208 . S
C232 O224 1.315 . S
C232 O227 1.279 . S
C233 O234 1.315 . S
C233 O235 1.279 . S
O234 Cd226 2.223 1_565 S
O234 C233 1.315 . S
O235 Cd225 2.240 1_565 S
O235 C233 1.279 . S
O236 Cd226 2.297 1_565 S
O236 C231 1.247 1_565 S
O237 Cd226 2.439 . S
O237 C231 1.208 . S
O238 Cd239 2.223 . S
O238 C246 1.315 . S
Cd239 O238 2.223 . S
Cd239 O242 2.297 . S
Cd239 O243 2.439 . S
Cd239 O249 2.240 . S
Cd240 O241 2.240 . S
Cd240 O248 2.223 . S
Cd240 O250 2.297 . S
Cd240 O251 2.439 . S
O241 Cd240 2.240 . S
O241 C246 1.279 . S
O242 Cd239 2.297 . S
O242 C244 1.247 . S
O243 Cd239 2.439 . S
O243 C244 1.208 . S
C244 O242 1.247 . S
C244 O243 1.208 . S
C245 O250 1.247 . S
C245 O251 1.208 . S
C246 O238 1.315 . S
C246 O241 1.279 . S
C247 O248 1.315 . S
C247 O249 1.279 . S
O248 Cd240 2.223 . S
O248 C247 1.315 . S
O249 Cd239 2.240 . S
O249 C247 1.279 . S
O250 Cd240 2.297 . S
O250 C245 1.247 . S
O251 Cd240 2.439 . S
O251 C245 1.208 . S
O252 Cd253 2.223 . S
O252 C260 1.315 . S
Cd253 O252 2.223 . S
Cd253 O256 2.297 . S
Cd253 O257 2.439 . S
Cd253 O263 2.240 . S
Cd254 O255 2.240 . S
Cd254 O262 2.223 . S
Cd254 O264 2.297 . S
Cd254 O265 2.439 . S
O255 Cd254 2.240 . S
O255 C260 1.279 . S
O256 Cd253 2.297 . S
O256 C258 1.247 . S
O257 Cd253 2.439 . S
O257 C258 1.208 . S
C258 O256 1.247 . S
C258 O257 1.208 . S
C259 O264 1.247 . S
C259 O265 1.208 . S
C260 O252 1.315 . S
C260 O255 1.279 . S
C261 O262 1.315 . S
C261 O263 1.279 . S
O262 Cd254 2.223 . S
O262 C261 1.315 . S
O263 Cd253 2.240 . S
O263 C261 1.279 . S
O264 Cd254 2.297 . S
O264 C259 1.247 . S
O265 Cd254 2.439 . S
O265 C259 1.208 . S
O266 Cd267 2.223 1_545 S
O266 C274 1.315 1_545 S
Cd267 O266 2.223 1_565 S
Cd267 O270 2.297 . S
Cd267 O271 2.439 . S
Cd267 O277 2.240 1_565 S
Cd268 O269 2.240 1_545 S
Cd268 O276 2.223 . S
Cd268 O278 2.297 . S
Cd268 O279 2.439 1_545 S
O269 Cd268 2.240 1_565 S
O269 C274 1.279 . S
O270 Cd267 2.297 . S
O270 C272 1.247 . S
O271 Cd267 2.439 . S
O271 C272 1.208 . S
C272 O270 1.247 . S
C272 O271 1.208 . S
C273 O278 1.247 . S
C273 O279 1.208 1_545 S
C274 O266 1.315 1_565 S
C274 O269 1.279 . S
C275 O276 1.315 . S
C275 O277 1.279 . S
O276 Cd268 2.223 . S
O276 C275 1.315 . S
O277 Cd267 2.240 1_545 S
O277 C275 1.279 . S
O278 Cd268 2.297 . S
O278 C273 1.247 . S
O279 Cd268 2.439 1_565 S
O279 C273 1.208 1_565 S
O280 Cd281 2.223 . S
O280 C288 1.315 . S
Cd281 O280 2.223 . S
Cd281 O284 2.297 . S
Cd281 O285 2.439 1_554 S
Cd281 O291 2.240 1_554 S
Cd282 O283 2.240 1_556 S
Cd282 O290 2.223 1_556 S
Cd282 O292 2.297 . S
Cd282 O293 2.439 . S
O283 Cd282 2.240 1_554 S
O283 C288 1.279 . S
O284 Cd281 2.297 . S
O284 C286 1.247 . S
O285 Cd281 2.439 1_556 S
O285 C286 1.208 1_556 S
C286 O284 1.247 . S
C286 O285 1.208 1_554 S
C287 O292 1.247 . S
C287 O293 1.208 . S
C288 O280 1.315 . S
C288 O283 1.279 . S
C289 O290 1.313 1_556 S
C289 O291 1.295 . S
O290 Cd282 2.223 1_554 S
O290 C289 1.313 1_554 S
O291 Cd281 2.240 1_556 S
O291 C289 1.295 . S
O292 Cd282 2.297 . S
O292 C287 1.247 . S
O293 Cd282 2.439 . S
O293 C287 1.208 . S
O294 Cd295 2.223 . S
O294 C302 1.315 . S
Cd295 O294 2.223 . S
Cd295 O298 2.297 . S
Cd295 O299 2.439 . S
Cd295 O305 2.240 . S
Cd296 O297 2.240 . S
Cd296 O304 2.223 . S
Cd296 O306 2.297 . S
Cd296 O307 2.439 . S
O297 Cd296 2.240 . S
O297 C302 1.279 . S
O298 Cd295 2.297 . S
O298 C300 1.247 . S
O299 Cd295 2.439 . S
O299 C300 1.208 . S
C300 O298 1.247 . S
C300 O299 1.208 . S
C301 O306 1.247 . S
C301 O307 1.208 . S
C302 O294 1.315 . S
C302 O297 1.279 . S
C303 O304 1.315 . S
C303 O305 1.279 . S
O304 Cd296 2.223 . S
O304 C303 1.315 . S
O305 Cd295 2.240 . S
O305 C303 1.279 . S
O306 Cd296 2.297 . S
O306 C301 1.247 . S
O307 Cd296 2.439 . S
O307 C301 1.208 . S
O308 Cd309 2.223 . S
O308 C316 1.315 . S
Cd309 O308 2.223 . S
Cd309 O312 2.297 . S
Cd309 O313 2.439 . S
Cd309 O319 2.240 . S
Cd310 O311 2.240 . S
Cd310 O318 2.223 . S
Cd310 O320 2.297 . S
Cd310 O321 2.439 . S
O311 Cd310 2.240 . S
O311 C316 1.279 . S
O312 Cd309 2.297 . S
O312 C314 1.247 . S
O313 Cd309 2.439 . S
O313 C314 1.208 . S
C314 O312 1.247 . S
C314 O313 1.208 . S
C315 O320 1.247 . S
C315 O321 1.208 . S
C316 O308 1.315 . S
C316 O311 1.279 . S
C317 O318 1.315 . S
C317 O319 1.279 . S
O318 Cd310 2.223 . S
O318 C317 1.315 . S
O319 Cd309 2.240 . S
O319 C317 1.279 . S
O320 Cd310 2.297 . S
O320 C315 1.247 . S
O321 Cd310 2.439 . S
O321 C315 1.208 . S
O322 Cd323 2.223 . S
O322 C330 1.315 . S
Cd323 O322 2.223 . S
Cd323 O326 2.297 . S
Cd323 O327 2.439 . S
Cd323 O333 2.240 . S
Cd324 O325 2.240 . S
Cd324 O332 2.223 . S
Cd324 O334 2.297 . S
Cd324 O335 2.439 . S
O325 Cd324 2.240 . S
O325 C330 1.279 . S
O326 Cd323 2.297 . S
O326 C328 1.247 . S
O327 Cd323 2.439 . S
O327 C328 1.208 . S
C328 O326 1.247 . S
C328 O327 1.208 . S
C329 O334 1.247 . S
C329 O335 1.208 . S
C330 O322 1.315 . S
C330 O325 1.279 . S
C331 O332 1.315 . S
C331 O333 1.279 . S
O332 Cd324 2.223 . S
O332 C331 1.315 . S
O333 Cd323 2.240 . S
O333 C331 1.279 . S
O334 Cd324 2.297 . S
O334 C329 1.247 . S
O335 Cd324 2.439 . S
O335 C329 1.208 . S
Zn336 O342 1.969 1_565 S
Zn336 O343 1.965 1_565 S
Zn336 O347 2.023 . S
Zn336 O352 1.970 1_565 S
Zn337 O344 1.969 1_654 S
Zn337 O350 1.969 . S
Zn337 O351 1.965 . S
Zn337 O353 2.024 1_655 S
C338 O339 1.229 . S
C338 O347 1.058 . S
O339 C338 1.229 . S
C340 O341 1.251 1_554 S
C340 O353 1.058 . S
O341 C340 1.251 1_556 S
O342 Zn336 1.969 1_545 S
O342 C345 1.267 1_545 S
O343 Zn336 1.965 1_545 S
O343 C354 1.260 1_554 S
O344 Zn337 1.969 1_456 S
O344 C354 1.258 . S
C345 O342 1.267 1_565 S
C345 O346 1.228 . S
O346 C345 1.228 . S
O347 Zn336 2.023 . S
O347 C338 1.058 . S
C348 O349 1.228 . S
C348 O350 1.267 . S
O349 C348 1.228 . S
O350 Zn337 1.969 . S
O350 C348 1.267 . S
O351 Zn337 1.965 . S
O351 C355 1.260 1_655 S
O352 Zn336 1.970 1_545 S
O352 C355 1.258 . S
O353 Zn337 2.024 1_455 S
O353 C340 1.058 . S
C354 O343 1.260 1_556 S
C354 O344 1.258 . S
C355 O351 1.260 1_455 S
C355 O352 1.258 . S
Zn356 O362 1.969 . S
Zn356 O363 1.965 . S
Zn356 O367 2.024 . S
Zn356 O372 1.969 . S
Zn357 O364 1.969 . S
Zn357 O370 1.969 . S
Zn357 O371 1.965 . S
Zn357 O373 2.024 . S
C358 O359 1.229 . S
C358 O367 1.058 . S
O359 C358 1.229 . S
C360 O361 1.229 . S
C360 O373 1.058 . S
O361 C360 1.229 . S
O362 Zn356 1.969 . S
O362 C365 1.267 . S
O363 Zn356 1.965 . S
O363 C374 1.260 . S
O364 Zn357 1.969 . S
O364 C374 1.258 . S
C365 O362 1.267 . S
C365 O366 1.228 . S
O366 C365 1.228 . S
O367 Zn356 2.024 . S
O367 C358 1.058 . S
C368 O369 1.228 . S
C368 O370 1.267 . S
O369 C368 1.228 . S
O370 Zn357 1.969 . S
O370 C368 1.267 . S
O371 Zn357 1.965 . S
O371 C375 1.260 . S
O372 Zn356 1.969 . S
O372 C375 1.258 . S
O373 Zn357 2.024 . S
O373 C360 1.058 . S
C374 O363 1.260 . S
C374 O364 1.258 . S
C375 O371 1.260 . S
C375 O372 1.258 . S
Zn376 O382 1.969 . S
Zn376 O383 1.965 . S
Zn376 O387 2.024 . S
Zn376 O392 1.969 . S
Zn377 O384 1.969 1_565 S
Zn377 O390 1.969 . S
Zn377 O391 1.965 1_565 S
Zn377 O393 2.024 . S
C378 O379 1.229 . S
C378 O387 1.058 . S
O379 C378 1.229 . S
C380 O381 1.229 . S
C380 O393 1.058 . S
O381 C380 1.229 . S
O382 Zn376 1.969 . S
O382 C385 1.267 . S
O383 Zn376 1.965 . S
O383 C394 1.260 . S
O384 Zn377 1.969 1_545 S
O384 C394 1.258 . S
C385 O382 1.267 . S
C385 O386 1.228 . S
O386 C385 1.228 . S
O387 Zn376 2.024 . S
O387 C378 1.058 . S
C388 O389 1.228 . S
C388 O390 1.267 . S
O389 C388 1.228 . S
O390 Zn377 1.969 . S
O390 C388 1.267 . S
O391 Zn377 1.965 1_545 S
O391 C395 1.260 . S
O392 Zn376 1.969 . S
O392 C395 1.258 . S
O393 Zn377 2.024 . S
O393 C380 1.058 . S
C394 O383 1.260 . S
C394 O384 1.258 . S
C395 O391 1.260 . S
C395 O392 1.258 . S
Zn396 O402 1.969 . S
Zn396 O403 1.965 . S
Zn396 O407 2.024 . S
Zn396 O412 1.969 . S
Zn397 O404 1.969 . S
Zn397 O410 1.969 . S
Zn397 O411 1.965 . S
Zn397 O413 2.024 . S
C398 O399 1.229 . S
C398 O407 1.058 . S
O399 C398 1.229 . S
C400 O401 1.229 . S
C400 O413 1.058 . S
O401 C400 1.229 . S
O402 Zn396 1.969 . S
O402 C405 1.267 . S
O403 Zn396 1.965 . S
O403 C414 1.260 . S
O404 Zn397 1.969 . S
O404 C414 1.258 . S
C405 O402 1.267 . S
C405 O406 1.228 . S
O406 C405 1.228 . S
O407 Zn396 2.024 . S
O407 C398 1.058 . S
C408 O409 1.228 . S
C408 O410 1.267 . S
O409 C408 1.228 . S
O410 Zn397 1.969 . S
O410 C408 1.267 . S
O411 Zn397 1.965 . S
O411 C415 1.260 . S
O412 Zn396 1.969 . S
O412 C415 1.258 . S
O413 Zn397 2.024 . S
O413 C400 1.058 . S
C414 O403 1.260 . S
C414 O404 1.258 . S
C415 O411 1.260 . S
C415 O412 1.258 . S
Zn416 O422 1.969 . S
Zn416 O423 1.965 . S
Zn416 O427 2.024 1_565 S
Zn416 O432 1.969 1_565 S
Zn417 O424 1.969 1_455 S
Zn417 O430 1.969 . S
Zn417 O431 1.965 . S
Zn417 O433 2.024 . S
C418 O419 1.229 1_545 S
C418 O427 1.058 . S
O419 C418 1.229 1_565 S
C420 O421 1.229 . S
C420 O433 1.058 1_655 S
O421 C420 1.229 . S
O422 Zn416 1.969 . S
O422 C425 1.267 . S
O423 Zn416 1.965 . S
O423 C434 1.260 1_465 S
O424 Zn417 1.969 1_655 S
O424 C434 1.258 . S
C425 O422 1.267 . S
C425 O426 1.228 . S
O426 C425 1.228 . S
O427 Zn416 2.024 1_545 S
O427 C418 1.058 . S
C428 O429 1.228 . S
C428 O430 1.267 . S
O429 C428 1.228 . S
O430 Zn417 1.969 . S
O430 C428 1.267 . S
O431 Zn417 1.965 . S
O431 C435 1.260 . S
O432 Zn416 1.969 1_545 S
O432 C435 1.258 . S
O433 Zn417 2.024 . S
O433 C420 1.058 1_455 S
C434 O423 1.260 1_645 S
C434 O424 1.258 . S
C435 O431 1.260 . S
C435 O432 1.258 . S
Zn436 O442 1.969 . S
Zn436 O443 1.965 . S
Zn436 O447 2.024 . S
Zn436 O452 1.969 . S
Zn437 O444 1.969 . S
Zn437 O450 1.969 . S
Zn437 O451 1.965 . S
Zn437 O453 2.024 . S
C438 O439 1.229 . S
C438 O447 1.058 . S
O439 C438 1.229 . S
C440 O441 1.229 . S
C440 O453 1.058 . S
O441 C440 1.229 . S
O442 Zn436 1.969 . S
O442 C445 1.267 . S
O443 Zn436 1.965 . S
O443 C454 1.260 . S
O444 Zn437 1.969 . S
O444 C454 1.258 . S
C445 O442 1.267 . S
C445 O446 1.228 . S
O446 C445 1.228 . S
O447 Zn436 2.024 . S
O447 C438 1.058 . S
C448 O449 1.228 . S
C448 O450 1.267 . S
O449 C448 1.228 . S
O450 Zn437 1.969 . S
O450 C448 1.267 . S
O451 Zn437 1.965 . S
O451 C455 1.260 . S
O452 Zn436 1.969 . S
O452 C455 1.258 . S
O453 Zn437 2.024 . S
O453 C440 1.058 . S
C454 O443 1.260 . S
C454 O444 1.258 . S
C455 O451 1.260 . S
C455 O452 1.258 . S
Zn456 O462 1.969 1_554 S
Zn456 O463 1.965 1_545 S
Zn456 O467 2.024 . S
Zn456 O472 1.969 . S
Zn457 O464 2.000 . S
Zn457 O470 1.984 . S
Zn457 O471 1.935 1_565 S
Zn457 O473 2.013 1_565 S
C458 O459 1.229 . S
C458 O467 1.058 . S
O459 C458 1.229 . S
C460 O461 1.229 . S
C460 O473 1.058 1_565 S
O461 C460 1.229 . S
O462 Zn456 1.969 1_556 S
O462 C465 1.267 . S
O463 Zn456 1.965 1_565 S
O463 C474 1.260 . S
O464 Zn457 2.000 . S
O464 C474 1.258 . S
C465 O462 1.267 . S
C465 O466 1.228 . S
O466 C465 1.228 . S
O467 Zn456 2.024 . S
O467 C458 1.058 . S
C468 O469 1.228 . S
C468 O470 1.267 1_545 S
O469 C468 1.228 . S
O470 Zn457 1.984 . S
O470 C468 1.267 1_565 S
O471 Zn457 1.935 1_545 S
O471 C475 1.260 . S
O472 Zn456 1.969 . S
O472 C475 1.258 . S
O473 Zn457 2.013 1_545 S
O473 C460 1.058 1_545 S
C474 O463 1.260 . S
C474 O464 1.258 . S
C475 O471 1.260 . S
C475 O472 1.258 . S
Zn476 O482 1.969 . S
Zn476 O483 1.965 . S
Zn476 O487 2.024 . S
Zn476 O492 1.969 . S
Zn477 O484 1.969 . S
Zn477 O490 1.969 . S
Zn477 O491 1.965 . S
Zn477 O493 2.024 . S
C478 O479 1.229 . S
C478 O487 1.058 . S
O479 C478 1.229 . S
C480 O481 1.229 . S
C480 O493 1.058 . S
O481 C480 1.229 . S
O482 Zn476 1.969 . S
O482 C485 1.267 . S
O483 Zn476 1.965 . S
O483 C494 1.260 . S
O484 Zn477 1.969 . S
O484 C494 1.258 . S
C485 O482 1.267 . S
C485 O486 1.228 . S
O486 C485 1.228 . S
O487 Zn476 2.024 . S
O487 C478 1.058 . S
C488 O489 1.228 . S
C488 O490 1.267 . S
O489 C488 1.228 . S
O490 Zn477 1.969 . S
O490 C488 1.267 . S
O491 Zn477 1.965 . S
O491 C495 1.260 . S
O492 Zn476 1.969 . S
O492 C495 1.258 . S
O493 Zn477 2.024 . S
O493 C480 1.058 . S
C494 O483 1.260 . S
C494 O484 1.258 . S
C495 O491 1.260 . S
C495 O492 1.258 . S
Zn496 O502 1.969 . S
Zn496 O503 1.965 . S
Zn496 O507 2.024 . S
Zn496 O512 1.969 . S
Zn497 O504 1.969 . S
Zn497 O510 1.969 . S
Zn497 O511 1.964 . S
Zn497 O513 2.024 1_554 S
C498 O499 1.229 . S
C498 O507 1.058 . S
O499 C498 1.229 . S
C500 O501 1.229 . S
C500 O513 1.058 . S
O501 C500 1.229 . S
O502 Zn496 1.969 . S
O502 C505 1.267 . S
O503 Zn496 1.965 . S
O503 C514 1.260 . S
O504 Zn497 1.969 . S
O504 C514 1.258 . S
C505 O502 1.267 . S
C505 O506 1.228 . S
O506 C505 1.228 . S
O507 Zn496 2.024 . S
O507 C498 1.058 . S
C508 O509 1.228 . S
C508 O510 1.267 1_556 S
O509 C508 1.228 . S
O510 Zn497 1.969 . S
O510 C508 1.267 1_554 S
O511 Zn497 1.964 . S
O511 C515 1.260 . S
O512 Zn496 1.969 . S
O512 C515 1.258 . S
O513 Zn497 2.024 1_556 S
O513 C500 1.058 . S
C514 O503 1.260 . S
C514 O504 1.258 . S
C515 O511 1.260 . S
C515 O512 1.258 . S
Zn516 O522 1.969 . S
Zn516 O523 1.965 . S
Zn516 O527 2.024 . S
Zn516 O532 1.969 . S
Zn517 O524 1.969 . S
Zn517 O530 1.969 . S
Zn517 O531 1.965 . S
Zn517 O533 2.024 . S
C518 O519 1.229 . S
C518 O527 1.058 . S
O519 C518 1.229 . S
C520 O521 1.229 . S
C520 O533 1.058 . S
O521 C520 1.229 . S
O522 Zn516 1.969 . S
O522 C525 1.267 . S
O523 Zn516 1.965 . S
O523 C534 1.260 . S
O524 Zn517 1.969 . S
O524 C534 1.258 . S
C525 O522 1.267 . S
C525 O526 1.228 . S
O526 C525 1.228 . S
O527 Zn516 2.024 . S
O527 C518 1.058 . S
C528 O529 1.228 . S
C528 O530 1.267 . S
O529 C528 1.228 . S
O530 Zn517 1.969 . S
O530 C528 1.267 . S
O531 Zn517 1.965 . S
O531 C535 1.260 . S
O532 Zn516 1.969 . S
O532 C535 1.258 . S
O533 Zn517 2.024 . S
O533 C520 1.058 . S
C534 O523 1.260 . S
C534 O524 1.258 . S
C535 O531 1.260 . S
C535 O532 1.258 . S
Zn536 O542 1.969 . S
Zn536 O543 1.965 . S
Zn536 O547 2.024 . S
Zn536 O552 1.969 . S
Zn537 O544 1.969 . S
Zn537 O550 1.969 . S
Zn537 O551 1.965 1_655 S
Zn537 O553 2.024 . S
C538 O539 1.229 . S
C538 O547 1.058 . S
O539 C538 1.229 . S
C540 O541 1.229 . S
C540 O553 1.058 . S
O541 C540 1.229 . S
O542 Zn536 1.969 . S
O542 C545 1.267 . S
O543 Zn536 1.965 . S
O543 C554 1.260 . S
O544 Zn537 1.969 . S
O544 C554 1.258 1_655 S
C545 O542 1.267 . S
C545 O546 1.228 . S
O546 C545 1.228 . S
O547 Zn536 2.024 . S
O547 C538 1.058 . S
C548 O549 1.228 . S
C548 O550 1.267 . S
O549 C548 1.228 . S
O550 Zn537 1.969 . S
O550 C548 1.267 . S
O551 Zn537 1.965 1_455 S
O551 C555 1.260 . S
O552 Zn536 1.969 . S
O552 C555 1.258 . S
O553 Zn537 2.024 . S
O553 C540 1.058 . S
C554 O543 1.260 . S
C554 O544 1.258 1_455 S
C555 O551 1.260 . S
C555 O552 1.258 . S
Zn556 O562 1.969 . S
Zn556 O563 1.965 . S
Zn556 O567 2.024 . S
Zn556 O572 1.969 . S
Zn557 O564 1.969 . S
Zn557 O570 1.969 . S
Zn557 O571 1.965 . S
Zn557 O573 2.024 . S
C558 O559 1.229 . S
C558 O567 1.058 . S
O559 C558 1.229 . S
C560 O561 1.229 . S
C560 O573 1.058 . S
O561 C560 1.229 . S
O562 Zn556 1.969 . S
O562 C565 1.267 . S
O563 Zn556 1.965 . S
O563 C574 1.260 . S
O564 Zn557 1.969 . S
O564 C574 1.258 . S
C565 O562 1.267 . S
C565 O566 1.228 . S
O566 C565 1.228 . S
O567 Zn556 2.024 . S
O567 C558 1.058 . S
C568 O569 1.228 . S
C568 O570 1.267 . S
O569 C568 1.228 . S
O570 Zn557 1.969 . S
O570 C568 1.267 . S
O571 Zn557 1.965 . S
O571 C575 1.260 . S
O572 Zn556 1.969 . S
O572 C575 1.258 . S
O573 Zn557 2.024 . S
O573 C560 1.058 . S
C574 O563 1.260 . S
C574 O564 1.258 . S
C575 O571 1.260 . S
C575 O572 1.258 . S
Zn576 O582 1.969 . S
Zn576 O583 1.965 . S
Zn576 O587 2.024 . S
Zn576 O592 1.969 . S
Zn577 O584 1.969 . S
Zn577 O590 1.969 . S
Zn577 O591 1.965 . S
Zn577 O593 2.024 . S
C578 O579 1.229 . S
C578 O587 1.058 . S
O579 C578 1.229 . S
C580 O581 1.229 . S
C580 O593 1.058 . S
O581 C580 1.229 . S
O582 Zn576 1.969 . S
O582 C585 1.267 . S
O583 Zn576 1.965 . S
O583 C594 1.260 . S
O584 Zn577 1.969 . S
O584 C594 1.258 . S
C585 O582 1.267 . S
C585 O586 1.228 . S
O586 C585 1.228 . S
O587 Zn576 2.024 . S
O587 C578 1.058 . S
C588 O589 1.228 . S
C588 O590 1.267 . S
O589 C588 1.228 . S
O590 Zn577 1.969 . S
O590 C588 1.267 . S
O591 Zn577 1.965 . S
O591 C595 1.260 . S
O592 Zn576 1.969 . S
O592 C595 1.258 . S
O593 Zn577 2.024 . S
O593 C580 1.058 . S
C594 O583 1.260 . S
C594 O584 1.258 . S
C595 O591 1.260 . S
C595 O592 1.258 . S
Zn596 O602 1.969 . S
Zn596 O603 1.965 . S
Zn596 O607 2.024 . S
Zn596 O612 1.969 . S
Zn597 O604 1.969 . S
Zn597 O610 1.969 . S
Zn597 O611 1.965 . S
Zn597 O613 2.024 . S
C598 O599 1.229 . S
C598 O607 1.058 . S
O599 C598 1.229 . S
C600 O601 1.229 . S
C600 O613 1.058 . S
O601 C600 1.229 . S
O602 Zn596 1.969 . S
O602 C605 1.267 . S
O603 Zn596 1.965 . S
O603 C614 1.260 . S
O604 Zn597 1.969 . S
O604 C614 1.258 . S
C605 O602 1.267 . S
C605 O606 1.228 . S
O606 C605 1.228 . S
O607 Zn596 2.024 . S
O607 C598 1.058 . S
C608 O609 1.228 . S
C608 O610 1.267 . S
O609 C608 1.228 . S
O610 Zn597 1.969 . S
O610 C608 1.267 . S
O611 Zn597 1.965 . S
O611 C615 1.260 . S
O612 Zn596 1.969 . S
O612 C615 1.258 . S
O613 Zn597 2.024 . S
O613 C600 1.058 . S
C614 O603 1.260 . S
C614 O604 1.258 . S
C615 O611 1.260 . S
C615 O612 1.258 . S
Zn616 O622 1.969 . S
Zn616 O623 1.965 . S
Zn616 O627 2.024 . S
Zn616 O632 1.969 . S
Zn617 O624 1.969 . S
Zn617 O630 1.969 . S
Zn617 O631 1.965 . S
Zn617 O633 2.024 . S
C618 O619 1.229 . S
C618 O627 1.058 . S
O619 C618 1.229 . S
C620 O621 1.229 . S
C620 O633 1.058 . S
O621 C620 1.229 . S
O622 Zn616 1.969 . S
O622 C625 1.267 . S
O623 Zn616 1.965 . S
O623 C634 1.260 . S
O624 Zn617 1.969 . S
O624 C634 1.258 . S
C625 O622 1.267 . S
C625 O626 1.228 . S
O626 C625 1.228 . S
O627 Zn616 2.024 . S
O627 C618 1.058 . S
C628 O629 1.228 . S
C628 O630 1.267 . S
O629 C628 1.228 . S
O630 Zn617 1.969 . S
O630 C628 1.267 . S
O631 Zn617 1.965 . S
O631 C635 1.260 . S
O632 Zn616 1.969 . S
O632 C635 1.258 . S
O633 Zn617 2.024 . S
O633 C620 1.058 . S
C634 O623 1.260 . S
C634 O624 1.258 . S
C635 O631 1.260 . S
C635 O632 1.258 . S
Zn636 O642 1.969 . S
Zn636 O643 1.965 . S
Zn636 O647 2.024 1_655 S
Zn636 O652 1.969 1_655 S
Zn637 O644 1.969 . S
Zn637 O650 1.969 . S
Zn637 O651 1.965 . S
Zn637 O653 2.024 . S
C638 O639 1.229 . S
C638 O647 1.058 . S
O639 C638 1.229 . S
C640 O641 1.229 . S
C640 O653 1.058 . S
O641 C640 1.229 . S
O642 Zn636 1.969 . S
O642 C645 1.267 . S
O643 Zn636 1.965 . S
O643 C654 1.260 1_655 S
O644 Zn637 1.969 . S
O644 C654 1.258 . S
C645 O642 1.267 . S
C645 O646 1.228 . S
O646 C645 1.228 . S
O647 Zn636 2.024 1_455 S
O647 C638 1.058 . S
C648 O649 1.228 . S
C648 O650 1.267 . S
O649 C648 1.228 . S
O650 Zn637 1.969 . S
O650 C648 1.267 . S
O651 Zn637 1.965 . S
O651 C655 1.260 . S
O652 Zn636 1.969 1_455 S
O652 C655 1.258 . S
O653 Zn637 2.024 . S
O653 C640 1.058 . S
C654 O643 1.260 1_455 S
C654 O644 1.258 . S
C655 O651 1.260 . S
C655 O652 1.258 . S
C656 C657 1.349 . S
C656 C658 1.327 . S
C656 H681 0.950 . S
C657 C656 1.349 . S
C657 C673 1.349 1_655 S
C658 C656 1.327 . S
C658 C677 1.429 1_655 S
C658 H682 0.950 . S
C659 C676 1.574 . S
C659 C678 1.368 . S
C659 H683 0.949 . S
H660 C664 0.947 1_655 S
C661 C662 1.349 1_556 S
C661 C663 1.327 . S
C661 H684 0.950 . S
C662 C661 1.349 1_554 S
C662 C674 1.349 . S
C663 C661 1.327 . S
C663 C679 1.429 . S
C663 H685 0.950 . S
C664 H660 0.947 1_455 S
C664 C672 1.573 . S
C664 C680 1.368 . S
H665 C673 0.950 . S
H666 C671 0.950 . S
H667 C672 0.951 1_655 S
H668 C674 0.950 . S
H669 C675 0.933 1_554 S
H670 C676 0.949 . S
C671 H666 0.950 . S
C671 C673 1.327 . S
C671 C677 1.429 . S
C672 C664 1.573 . S
C672 H667 0.951 1_455 S
C672 C678 1.367 . S
C673 C657 1.349 1_455 S
C673 H665 0.950 . S
C673 C671 1.327 . S
C674 C662 1.349 . S
C674 H668 0.950 . S
C674 C675 1.298 1_554 S
C675 H669 0.933 1_556 S
C675 C674 1.298 1_556 S
C675 C679 1.475 . S
C676 C659 1.574 . S
C676 H670 0.949 . S
C676 C680 1.368 . S
C677 C658 1.429 1_455 S
C677 C671 1.429 . S
C677 C678 1.523 . S
C678 C659 1.368 . S
C678 C672 1.367 . S
C678 C677 1.523 . S
C679 C663 1.429 . S
C679 C675 1.475 . S
C679 C680 1.523 . S
C680 C664 1.368 . S
C680 C676 1.368 . S
C680 C679 1.523 . S
H681 C656 0.950 . S
H682 C658 0.950 . S
H683 C659 0.949 . S
H684 C661 0.950 . S
H685 C663 0.950 . S
C686 C687 1.349 . S
C686 C688 1.327 . S
C686 H711 0.950 . S
C687 C686 1.349 . S
C687 C703 1.349 . S
C688 C686 1.327 . S
C688 C707 1.429 . S
C688 H712 0.950 . S
C689 C706 1.574 . S
C689 C708 1.368 . S
C689 H713 0.949 . S
H690 C694 0.949 . S
C691 C692 1.349 . S
C691 C693 1.327 . S
C691 H714 0.950 . S
C692 C691 1.349 . S
C692 C704 1.349 . S
C693 C691 1.327 . S
C693 C709 1.429 . S
C693 H715 0.950 . S
C694 H690 0.949 . S
C694 C702 1.574 . S
C694 C710 1.368 . S
H695 C703 0.950 . S
H696 C701 0.950 . S
H697 C702 0.949 . S
H698 C704 0.950 . S
H699 C705 0.950 . S
H700 C706 0.949 . S
C701 H696 0.950 . S
C701 C703 1.327 . S
C701 C707 1.429 . S
C702 C694 1.574 . S
C702 H697 0.949 . S
C702 C708 1.368 . S
C703 C687 1.349 . S
C703 H695 0.950 . S
C703 C701 1.327 . S
C704 C692 1.349 . S
C704 H698 0.950 . S
C704 C705 1.327 . S
C705 H699 0.950 . S
C705 C704 1.327 . S
C705 C709 1.429 . S
C706 C689 1.574 . S
C706 H700 0.949 . S
C706 C710 1.368 . S
C707 C688 1.429 . S
C707 C701 1.429 . S
C707 C708 1.523 . S
C708 C689 1.368 . S
C708 C702 1.368 . S
C708 C707 1.523 . S
C709 C693 1.429 . S
C709 C705 1.429 . S
C709 C710 1.523 . S
C710 C694 1.368 . S
C710 C706 1.368 . S
C710 C709 1.523 . S
H711 C686 0.950 . S
H712 C688 0.950 . S
H713 C689 0.949 . S
H714 C691 0.950 . S
H715 C693 0.950 . S
C716 C717 1.349 . S
C716 C718 1.327 . S
C716 H741 0.950 . S
C717 C716 1.349 . S
C717 C733 1.349 . S
C718 C716 1.327 . S
C718 C737 1.429 . S
C718 H742 0.950 . S
C719 C736 1.574 . S
C719 C738 1.368 . S
C719 H743 0.949 . S
H720 C724 0.949 . S
C721 C722 1.349 . S
C721 C723 1.327 . S
C721 H744 0.950 . S
C722 C721 1.349 . S
C722 C734 1.349 . S
C723 C721 1.327 . S
C723 C739 1.429 . S
C723 H745 0.950 . S
C724 H720 0.949 . S
C724 C732 1.574 . S
C724 C740 1.368 . S
H725 C733 0.950 . S
H726 C731 0.950 . S
H727 C732 0.949 . S
H728 C734 0.950 . S
H729 C735 0.950 . S
H730 C736 0.949 . S
C731 H726 0.950 . S
C731 C733 1.327 . S
C731 C737 1.429 . S
C732 C724 1.574 . S
C732 H727 0.949 . S
C732 C738 1.368 . S
C733 C717 1.349 . S
C733 H725 0.950 . S
C733 C731 1.327 . S
C734 C722 1.349 . S
C734 H728 0.950 . S
C734 C735 1.327 . S
C735 H729 0.950 . S
C735 C734 1.327 . S
C735 C739 1.429 . S
C736 C719 1.574 . S
C736 H730 0.949 . S
C736 C740 1.368 . S
C737 C718 1.429 . S
C737 C731 1.429 . S
C737 C738 1.523 . S
C738 C719 1.368 . S
C738 C732 1.368 . S
C738 C737 1.523 . S
C739 C723 1.429 . S
C739 C735 1.429 . S
C739 C740 1.523 . S
C740 C724 1.368 . S
C740 C736 1.368 . S
C740 C739 1.523 . S
H741 C716 0.950 . S
H742 C718 0.950 . S
H743 C719 0.949 . S
H744 C721 0.950 . S
H745 C723 0.950 . S
C746 C747 1.349 . S
C746 C748 1.327 . S
C746 H771 0.950 . S
C747 C746 1.349 . S
C747 C763 1.349 . S
C748 C746 1.327 . S
C748 C767 1.429 . S
C748 H772 0.950 . S
C749 C766 1.574 . S
C749 C768 1.368 . S
C749 H773 0.949 . S
H750 C754 0.949 . S
C751 C752 1.349 . S
C751 C753 1.327 . S
C751 H774 0.950 . S
C752 C751 1.349 . S
C752 C764 1.349 . S
C753 C751 1.327 . S
C753 C769 1.429 . S
C753 H775 0.950 . S
C754 H750 0.949 . S
C754 C762 1.574 . S
C754 C770 1.368 . S
H755 C763 0.950 . S
H756 C761 0.950 . S
H757 C762 0.949 . S
H758 C764 0.950 . S
H759 C765 0.950 . S
H760 C766 0.949 . S
C761 H756 0.950 . S
C761 C763 1.327 . S
C761 C767 1.429 . S
C762 C754 1.574 . S
C762 H757 0.949 . S
C762 C768 1.368 . S
C763 C747 1.349 . S
C763 H755 0.950 . S
C763 C761 1.327 . S
C764 C752 1.349 . S
C764 H758 0.950 . S
C764 C765 1.327 . S
C765 H759 0.950 . S
C765 C764 1.327 . S
C765 C769 1.429 . S
C766 C749 1.574 . S
C766 H760 0.949 . S
C766 C770 1.368 . S
C767 C748 1.429 . S
C767 C761 1.429 . S
C767 C768 1.523 . S
C768 C749 1.368 . S
C768 C762 1.368 . S
C768 C767 1.523 . S
C769 C753 1.429 . S
C769 C765 1.429 . S
C769 C770 1.523 . S
C770 C754 1.368 . S
C770 C766 1.368 . S
C770 C769 1.523 . S
H771 C746 0.950 . S
H772 C748 0.950 . S
H773 C749 0.949 . S
H774 C751 0.950 . S
H775 C753 0.950 . S
C776 C777 1.349 . S
C776 C778 1.327 . S
C776 H801 0.950 . S
C777 C776 1.349 . S
C777 C793 1.349 . S
C778 C776 1.327 . S
C778 C797 1.429 . S
C778 H802 0.950 . S
C779 C796 1.574 . S
C779 C798 1.368 . S
C779 H803 0.938 1_455 S
H780 C784 0.949 . S
C781 C782 1.349 . S
C781 C783 1.327 . S
C781 H804 0.950 . S
C782 C781 1.349 . S
C782 C794 1.349 . S
C783 C781 1.327 . S
C783 C799 1.429 . S
C783 H805 0.950 . S
C784 H780 0.949 . S
C784 C792 1.574 . S
C784 C800 1.368 . S
H785 C793 0.950 1_655 S
H786 C791 0.950 1_655 S
H787 C792 0.949 . S
H788 C794 0.950 . S
H789 C795 0.950 . S
H790 C796 0.949 . S
C791 H786 0.950 1_455 S
C791 C793 1.327 . S
C791 C797 1.429 . S
C792 C784 1.574 . S
C792 H787 0.949 . S
C792 C798 1.368 . S
C793 C777 1.349 . S
C793 H785 0.950 1_455 S
C793 C791 1.327 . S
C794 C782 1.349 . S
C794 H788 0.950 . S
C794 C795 1.327 . S
C795 H789 0.950 . S
C795 C794 1.327 . S
C795 C799 1.429 . S
C796 C779 1.574 . S
C796 H790 0.949 . S
C796 C800 1.368 . S
C797 C778 1.429 . S
C797 C791 1.429 . S
C797 C798 1.523 . S
C798 C779 1.368 . S
C798 C792 1.368 . S
C798 C797 1.523 . S
C799 C783 1.429 . S
C799 C795 1.429 . S
C799 C800 1.523 . S
C800 C784 1.368 . S
C800 C796 1.368 . S
C800 C799 1.523 . S
H801 C776 0.950 . S
H802 C778 0.950 . S
H803 C779 0.938 1_655 S
H804 C781 0.950 . S
H805 C783 0.950 . S
C806 C807 1.349 . S
C806 C808 1.327 . S
C806 H831 0.950 . S
C807 C806 1.349 . S
C807 C823 1.349 . S
C808 C806 1.327 . S
C808 C827 1.429 . S
C808 H832 0.950 . S
C809 C826 1.574 . S
C809 C828 1.368 . S
C809 H833 0.949 . S
H810 C814 0.949 . S
C811 C812 1.349 . S
C811 C813 1.327 . S
C811 H834 0.950 . S
C812 C811 1.349 . S
C812 C824 1.349 . S
C813 C811 1.327 . S
C813 C829 1.429 . S
C813 H835 0.950 . S
C814 H810 0.949 . S
C814 C822 1.574 . S
C814 C830 1.368 . S
H815 C823 0.950 . S
H816 C821 0.950 . S
H817 C822 0.949 . S
H818 C824 0.950 . S
H819 C825 0.950 . S
H820 C826 0.949 . S
C821 H816 0.950 . S
C821 C823 1.327 . S
C821 C827 1.429 . S
C822 C814 1.574 . S
C822 H817 0.949 . S
C822 C828 1.368 . S
C823 C807 1.349 . S
C823 H815 0.950 . S
C823 C821 1.327 . S
C824 C812 1.349 . S
C824 H818 0.950 . S
C824 C825 1.327 . S
C825 H819 0.950 . S
C825 C824 1.327 . S
C825 C829 1.429 . S
C826 C809 1.574 . S
C826 H820 0.949 . S
C826 C830 1.368 . S
C827 C808 1.429 . S
C827 C821 1.429 . S
C827 C828 1.523 . S
C828 C809 1.368 . S
C828 C822 1.368 . S
C828 C827 1.523 . S
C829 C813 1.429 . S
C829 C825 1.429 . S
C829 C830 1.523 . S
C830 C814 1.368 . S
C830 C826 1.368 . S
C830 C829 1.523 . S
H831 C806 0.950 . S
H832 C808 0.950 . S
H833 C809 0.949 . S
H834 C811 0.950 . S
H835 C813 0.950 . S
C836 C837 1.349 . S
C836 C838 1.327 . S
C836 H861 0.950 . S
C837 C836 1.349 . S
C837 C853 1.349 . S
C838 C836 1.327 . S
C838 C857 1.429 . S
C838 H862 0.950 . S
C839 C856 1.574 . S
C839 C858 1.368 . S
C839 H863 0.949 . S
H840 C844 0.949 . S
C841 C842 1.349 . S
C841 C843 1.327 . S
C841 H864 0.950 . S
C842 C841 1.349 . S
C842 C854 1.349 . S
C843 C841 1.327 . S
C843 C859 1.429 . S
C843 H865 0.950 . S
C844 H840 0.949 . S
C844 C852 1.574 . S
C844 C860 1.368 . S
H845 C853 0.950 . S
H846 C851 0.950 . S
H847 C852 0.949 . S
H848 C854 0.950 . S
H849 C855 0.950 . S
H850 C856 0.949 . S
C851 H846 0.950 . S
C851 C853 1.327 . S
C851 C857 1.429 . S
C852 C844 1.574 . S
C852 H847 0.949 . S
C852 C858 1.368 . S
C853 C837 1.349 . S
C853 H845 0.950 . S
C853 C851 1.327 . S
C854 C842 1.349 . S
C854 H848 0.950 . S
C854 C855 1.327 . S
C855 H849 0.950 . S
C855 C854 1.327 . S
C855 C859 1.429 . S
C856 C839 1.574 . S
C856 H850 0.949 . S
C856 C860 1.368 . S
C857 C838 1.429 . S
C857 C851 1.429 . S
C857 C858 1.523 . S
C858 C839 1.368 . S
C858 C852 1.368 . S
C858 C857 1.523 . S
C859 C843 1.429 . S
C859 C855 1.429 . S
C859 C860 1.523 . S
C860 C844 1.368 . S
C860 C856 1.368 . S
C860 C859 1.523 . S
H861 C836 0.950 . S
H862 C838 0.950 . S
H863 C839 0.949 . S
H864 C841 0.950 . S
H865 C843 0.950 . S
C866 C867 1.349 . S
C866 C868 1.327 . S
C866 H891 0.950 . S
C867 C866 1.349 . S
C867 C883 1.349 . S
C868 C866 1.327 . S
C868 C887 1.429 . S
C868 H892 0.950 . S
C869 C886 1.574 . S
C869 C888 1.368 . S
C869 H893 0.949 . S
H870 C874 0.949 . S
C871 C872 1.349 . S
C871 C873 1.327 . S
C871 H894 0.950 . S
C872 C871 1.349 . S
C872 C884 1.349 . S
C873 C871 1.327 . S
C873 C889 1.429 . S
C873 H895 0.950 . S
C874 H870 0.949 . S
C874 C882 1.574 . S
C874 C890 1.368 . S
H875 C883 0.950 . S
H876 C881 0.950 . S
H877 C882 0.949 . S
H878 C884 0.950 . S
H879 C885 0.950 . S
H880 C886 0.949 . S
C881 H876 0.950 . S
C881 C883 1.327 . S
C881 C887 1.429 . S
C882 C874 1.574 . S
C882 H877 0.949 . S
C882 C888 1.368 . S
C883 C867 1.349 . S
C883 H875 0.950 . S
C883 C881 1.327 . S
C884 C872 1.349 . S
C884 H878 0.950 . S
C884 C885 1.327 . S
C885 H879 0.950 . S
C885 C884 1.327 . S
C885 C889 1.429 . S
C886 C869 1.574 . S
C886 H880 0.949 . S
C886 C890 1.368 . S
C887 C868 1.429 . S
C887 C881 1.429 . S
C887 C888 1.523 . S
C888 C869 1.368 . S
C888 C882 1.368 . S
C888 C887 1.523 . S
C889 C873 1.429 . S
C889 C885 1.429 . S
C889 C890 1.523 . S
C890 C874 1.368 . S
C890 C886 1.368 . S
C890 C889 1.523 . S
H891 C866 0.950 . S
H892 C868 0.950 . S
H893 C869 0.949 . S
H894 C871 0.950 . S
H895 C873 0.950 . S
C896 C897 1.349 . S
C896 C898 1.327 . S
C896 H921 0.950 . S
C897 C896 1.349 . S
C897 C913 1.349 . S
C898 C896 1.327 . S
C898 C917 1.429 . S
C898 H922 0.950 . S
C899 C916 1.574 . S
C899 C918 1.368 . S
C899 H923 0.949 . S
H900 C904 0.949 . S
C901 C902 1.349 . S
C901 C903 1.327 . S
C901 H924 0.950 . S
C902 C901 1.349 . S
C902 C914 1.349 1_655 S
C903 C901 1.327 . S
C903 C919 1.429 . S
C903 H925 0.950 . S
C904 H900 0.949 . S
C904 C912 1.574 . S
C904 C920 1.368 . S
H905 C913 0.954 . S
H906 C911 0.950 . S
H907 C912 0.949 . S
H908 C914 0.950 . S
H909 C915 0.950 1_455 S
H910 C916 0.949 . S
C911 H906 0.950 . S
C911 C913 1.327 . S
C911 C917 1.429 . S
C912 C904 1.574 . S
C912 H907 0.949 . S
C912 C918 1.368 . S
C913 C897 1.349 . S
C913 H905 0.954 . S
C913 C911 1.327 . S
C914 C902 1.349 1_455 S
C914 H908 0.950 . S
C914 C915 1.327 1_455 S
C915 H909 0.950 1_655 S
C915 C914 1.327 1_655 S
C915 C919 1.429 . S
C916 C899 1.574 . S
C916 H910 0.949 . S
C916 C920 1.368 . S
C917 C898 1.429 . S
C917 C911 1.429 . S
C917 C918 1.523 . S
C918 C899 1.368 . S
C918 C912 1.368 . S
C918 C917 1.523 . S
C919 C903 1.429 . S
C919 C915 1.429 . S
C919 C920 1.523 . S
C920 C904 1.368 . S
C920 C916 1.368 . S
C920 C919 1.523 . S
H921 C896 0.950 . S
H922 C898 0.950 . S
H923 C899 0.949 . S
H924 C901 0.950 . S
H925 C903 0.950 . S
C926 C927 1.349 . S
C926 C928 1.327 . S
C926 H951 0.950 . S
C927 C926 1.349 . S
C927 C943 1.349 . S
C928 C926 1.327 . S
C928 C947 1.429 . S
C928 H952 0.950 . S
C929 C946 1.574 . S
C929 C948 1.368 . S
C929 H953 0.949 . S
H930 C934 0.949 . S
C931 C932 1.349 . S
C931 C933 1.327 . S
C931 H954 0.950 . S
C932 C931 1.349 . S
C932 C944 1.349 . S
C933 C931 1.327 . S
C933 C949 1.429 . S
C933 H955 0.950 . S
C934 H930 0.949 . S
C934 C942 1.574 . S
C934 C950 1.368 . S
H935 C943 0.950 . S
H936 C941 0.950 . S
H937 C942 0.949 . S
H938 C944 0.950 . S
H939 C945 0.950 . S
H940 C946 0.949 . S
C941 H936 0.950 . S
C941 C943 1.327 . S
C941 C947 1.429 . S
C942 C934 1.574 . S
C942 H937 0.949 . S
C942 C948 1.368 . S
C943 C927 1.349 . S
C943 H935 0.950 . S
C943 C941 1.327 . S
C944 C932 1.349 . S
C944 H938 0.950 . S
C944 C945 1.327 . S
C945 H939 0.950 . S
C945 C944 1.327 . S
C945 C949 1.429 . S
C946 C929 1.574 . S
C946 H940 0.949 . S
C946 C950 1.368 . S
C947 C928 1.429 . S
C947 C941 1.429 . S
C947 C948 1.523 . S
C948 C929 1.368 . S
C948 C942 1.368 . S
C948 C947 1.523 . S
C949 C933 1.429 . S
C949 C945 1.429 . S
C949 C950 1.523 . S
C950 C934 1.368 . S
C950 C946 1.368 . S
C950 C949 1.523 . S
H951 C926 0.950 . S
H952 C928 0.950 . S
H953 C929 0.949 . S
H954 C931 0.950 . S
H955 C933 0.950 . S
C956 C957 1.351 1_565 S
C956 C958 1.327 . S
C956 H981 0.950 . S
C957 C956 1.351 1_545 S
C957 C973 1.345 . S
C958 C956 1.327 . S
C958 C977 1.429 1_565 S
C958 H982 0.950 . S
C959 C976 1.574 . S
C959 C978 1.368 . S
C959 H983 0.949 . S
H960 C964 0.949 . S
C961 C962 1.349 . S
C961 C963 1.327 . S
C961 H984 0.950 . S
C962 C961 1.349 . S
C962 C974 1.349 1_545 S
C963 C961 1.327 . S
C963 C979 1.429 . S
C963 H985 0.950 . S
C964 H960 0.949 . S
C964 C972 1.574 . S
C964 C980 1.368 1_565 S
H965 C973 0.950 . S
H966 C971 0.950 . S
H967 C972 0.949 . S
H968 C974 0.950 . S
H969 C975 0.950 . S
H970 C976 0.949 . S
C971 H966 0.950 . S
C971 C973 1.327 . S
C971 C977 1.429 . S
C972 C964 1.574 . S
C972 H967 0.949 . S
C972 C978 1.368 1_565 S
C973 C957 1.345 . S
C973 H965 0.950 . S
C973 C971 1.327 . S
C974 C962 1.349 1_565 S
C974 H968 0.950 . S
C974 C975 1.327 . S
C975 H969 0.950 . S
C975 C974 1.327 . S
C975 C979 1.429 1_565 S
C976 C959 1.574 . S
C976 H970 0.949 . S
C976 C980 1.368 . S
C977 C958 1.429 1_545 S
C977 C971 1.429 . S
C977 C978 1.523 . S
C978 C959 1.368 . S
C978 C972 1.368 1_545 S
C978 C977 1.523 . S
C979 C963 1.429 . S
C979 C975 1.429 1_545 S
C979 C980 1.523 . S
C980 C964 1.368 1_545 S
C980 C976 1.368 . S
C980 C979 1.523 . S
H981 C956 0.950 . S
H982 C958 0.950 . S
H983 C959 0.949 . S
H984 C961 0.950 . S
H985 C963 0.950 . S
C986 C987 1.349 . S
C986 C988 1.327 . S
C986 H1011 0.950 . S
C987 C986 1.349 . S
C987 C1003 1.349 . S
C988 C986 1.327 . S
C988 C1007 1.429 . S
C988 H1012 0.950 . S
C989 C1006 1.574 . S
C989 C1008 1.368 . S
C989 H1013 0.949 . S
H990 C994 0.949 . S
C991 C992 1.349 . S
C991 C993 1.327 . S
C991 H1014 0.950 . S
C992 C991 1.349 . S
C992 C1004 1.349 . S
C993 C991 1.327 . S
C993 C1009 1.429 . S
C993 H1015 0.950 . S
C994 H990 0.949 . S
C994 C1002 1.574 . S
C994 C1010 1.368 . S
H995 C1003 0.950 . S
H996 C1001 0.950 . S
H997 C1002 0.949 . S
H998 C1004 0.950 . S
H999 C1005 0.950 . S
H1000 C1006 0.949 . S
C1001 H996 0.950 . S
C1001 C1003 1.327 . S
C1001 C1007 1.429 . S
C1002 C994 1.574 . S
C1002 H997 0.949 . S
C1002 C1008 1.368 . S
C1003 C987 1.349 . S
C1003 H995 0.950 . S
C1003 C1001 1.327 . S
C1004 C992 1.349 . S
C1004 H998 0.950 . S
C1004 C1005 1.327 . S
C1005 H999 0.950 . S
C1005 C1004 1.327 . S
C1005 C1009 1.429 . S
C1006 C989 1.574 . S
C1006 H1000 0.949 . S
C1006 C1010 1.368 . S
C1007 C988 1.429 . S
C1007 C1001 1.429 . S
C1007 C1008 1.523 . S
C1008 C989 1.368 . S
C1008 C1002 1.368 . S
C1008 C1007 1.523 . S
C1009 C993 1.429 . S
C1009 C1005 1.429 . S
C1009 C1010 1.523 . S
C1010 C994 1.368 . S
C1010 C1006 1.368 . S
C1010 C1009 1.523 . S
H1011 C986 0.950 . S
H1012 C988 0.950 . S
H1013 C989 0.949 . S
H1014 C991 0.950 . S
H1015 C993 0.950 . S
C1016 C1017 1.349 . S
C1016 C1018 1.327 . S
C1016 H1041 0.950 . S
C1017 C1016 1.349 . S
C1017 C1033 1.349 1_545 S
C1018 C1016 1.327 . S
C1018 C1037 1.429 . S
C1018 H1042 0.950 . S
C1019 C1036 1.574 . S
C1019 C1038 1.368 1_565 S
C1019 H1043 0.949 . S
H1020 C1024 0.949 . S
C1021 C1022 1.349 1_565 S
C1021 C1023 1.327 . S
C1021 H1044 0.950 . S
C1022 C1021 1.349 1_545 S
C1022 C1034 1.349 . S
C1023 C1021 1.327 . S
C1023 C1039 1.429 1_565 S
C1023 H1045 0.950 . S
C1024 H1020 0.949 . S
C1024 C1032 1.574 . S
C1024 C1040 1.368 . S
H1025 C1033 0.950 . S
H1026 C1031 0.950 . S
H1027 C1032 0.949 . S
H1028 C1034 0.950 . S
H1029 C1035 0.950 . S
H1030 C1036 0.949 . S
C1031 H1026 0.950 . S
C1031 C1033 1.327 . S
C1031 C1037 1.429 1_565 S
C1032 C1024 1.574 . S
C1032 H1027 0.949 . S
C1032 C1038 1.368 . S
C1033 C1017 1.349 1_565 S
C1033 H1025 0.950 . S
C1033 C1031 1.327 . S
C1034 C1022 1.349 . S
C1034 H1028 0.950 . S
C1034 C1035 1.327 . S
C1035 H1029 0.950 . S
C1035 C1034 1.327 . S
C1035 C1039 1.429 . S
C1036 C1019 1.574 . S
C1036 H1030 0.949 . S
C1036 C1040 1.368 1_565 S
C1037 C1018 1.429 . S
C1037 C1031 1.429 1_545 S
C1037 C1038 1.523 . S
C1038 C1019 1.368 1_545 S
C1038 C1032 1.368 . S
C1038 C1037 1.523 . S
C1039 C1023 1.429 1_545 S
C1039 C1035 1.429 . S
C1039 C1040 1.523 . S
C1040 C1024 1.368 . S
C1040 C1036 1.368 1_545 S
C1040 C1039 1.523 . S
H1041 C1016 0.950 . S
H1042 C1018 0.950 . S
H1043 C1019 0.949 . S
H1044 C1021 0.950 . S
H1045 C1023 0.950 . S
C1046 C1047 1.349 . S
C1046 C1048 1.327 . S
C1046 H1071 0.950 . S
C1047 C1046 1.349 . S
C1047 C1063 1.349 . S
C1048 C1046 1.327 . S
C1048 C1067 1.429 . S
C1048 H1072 0.950 . S
C1049 C1066 1.574 . S
C1049 C1068 1.368 . S
C1049 H1073 0.949 . S
H1050 C1054 0.949 . S
C1051 C1052 1.349 . S
C1051 C1053 1.327 . S
C1051 H1074 0.950 . S
C1052 C1051 1.349 . S
C1052 C1064 1.349 . S
C1053 C1051 1.327 . S
C1053 C1069 1.429 . S
C1053 H1075 0.950 . S
C1054 H1050 0.949 . S
C1054 C1062 1.574 . S
C1054 C1070 1.368 . S
H1055 C1063 0.950 . S
H1056 C1061 0.950 . S
H1057 C1062 0.949 . S
H1058 C1064 0.950 . S
H1059 C1065 0.950 . S
H1060 C1066 0.949 . S
C1061 H1056 0.950 . S
C1061 C1063 1.327 . S
C1061 C1067 1.429 . S
C1062 C1054 1.574 . S
C1062 H1057 0.949 . S
C1062 C1068 1.368 . S
C1063 C1047 1.349 . S
C1063 H1055 0.950 . S
C1063 C1061 1.327 . S
C1064 C1052 1.349 . S
C1064 H1058 0.950 . S
C1064 C1065 1.327 . S
C1065 H1059 0.950 . S
C1065 C1064 1.327 . S
C1065 C1069 1.429 . S
C1066 C1049 1.574 . S
C1066 H1060 0.949 . S
C1066 C1070 1.368 . S
C1067 C1048 1.429 . S
C1067 C1061 1.429 . S
C1067 C1068 1.523 . S
C1068 C1049 1.368 . S
C1068 C1062 1.368 . S
C1068 C1067 1.523 . S
C1069 C1053 1.429 . S
C1069 C1065 1.429 . S
C1069 C1070 1.523 . S
C1070 C1054 1.368 . S
C1070 C1066 1.368 . S
C1070 C1069 1.523 . S
H1071 C1046 0.950 . S
H1072 C1048 0.950 . S
H1073 C1049 0.949 . S
H1074 C1051 0.950 . S
H1075 C1053 0.950 . S
C1076 C1077 1.349 1_565 S
C1076 C1078 1.327 . S
C1076 H1101 0.950 . S
C1077 C1076 1.349 1_545 S
C1077 C1093 1.349 . S
C1078 C1076 1.327 . S
C1078 C1097 1.429 1_565 S
C1078 H1102 0.950 . S
C1079 C1096 1.574 . S
C1079 C1098 1.368 . S
C1079 H1103 0.949 . S
H1080 C1084 0.991 . S
C1081 C1082 1.349 . S
C1081 C1083 1.327 . S
C1081 H1104 0.950 . S
C1082 C1081 1.349 . S
C1082 C1094 1.349 . S
C1083 C1081 1.327 . S
C1083 C1099 1.429 . S
C1083 H1105 0.950 . S
C1084 H1080 0.991 . S
C1084 C1092 1.581 . S
C1084 C1100 1.317 1_565 S
H1085 C1093 0.950 . S
H1086 C1091 0.950 . S
H1087 C1092 0.949 . S
H1088 C1094 0.950 1_565 S
H1089 C1095 0.950 1_565 S
H1090 C1096 0.949 . S
C1091 H1086 0.950 . S
C1091 C1093 1.327 . S
C1091 C1097 1.429 . S
C1092 C1084 1.581 . S
C1092 H1087 0.949 . S
C1092 C1098 1.368 1_565 S
C1093 C1077 1.349 . S
C1093 H1085 0.950 . S
C1093 C1091 1.327 . S
C1094 C1082 1.349 . S
C1094 H1088 0.950 1_545 S
C1094 C1095 1.327 . S
C1095 H1089 0.950 1_545 S
C1095 C1094 1.327 . S
C1095 C1099 1.429 . S
C1096 C1079 1.574 . S
C1096 H1090 0.949 . S
C1096 C1100 1.368 . S
C1097 C1078 1.429 1_545 S
C1097 C1091 1.429 . S
C1097 C1098 1.523 . S
C1098 C1079 1.368 . S
C1098 C1092 1.368 1_545 S
C1098 C1097 1.523 . S
C1099 C1083 1.429 . S
C1099 C1095 1.429 . S
C1099 C1100 1.523 . S
C1100 C1084 1.317 1_545 S
C1100 C1096 1.368 . S
C1100 C1099 1.523 . S
H1101 C1076 0.950 . S
H1102 C1078 0.950 . S
H1103 C1079 0.949 . S
H1104 C1081 0.950 . S
H1105 C1083 0.950 . S
C1106 C1107 1.349 . S
C1106 C1108 1.327 . S
C1106 H1131 0.950 . S
C1107 C1106 1.349 . S
C1107 C1123 1.349 . S
C1108 C1106 1.327 . S
C1108 C1127 1.429 . S
C1108 H1132 0.950 . S
C1109 C1126 1.574 . S
C1109 C1128 1.368 . S
C1109 H1133 0.949 . S
H1110 C1114 0.949 . S
C1111 C1112 1.349 . S
C1111 C1113 1.327 . S
C1111 H1134 0.950 . S
C1112 C1111 1.349 . S
C1112 C1124 1.349 . S
C1113 C1111 1.327 . S
C1113 C1129 1.429 . S
C1113 H1135 0.950 . S
C1114 H1110 0.949 . S
C1114 C1122 1.574 . S
C1114 C1130 1.368 . S
H1115 C1123 0.950 . S
H1116 C1121 0.950 . S
H1117 C1122 0.949 . S
H1118 C1124 0.950 . S
H1119 C1125 0.950 . S
H1120 C1126 0.949 . S
C1121 H1116 0.950 . S
C1121 C1123 1.327 . S
C1121 C1127 1.429 . S
C1122 C1114 1.574 . S
C1122 H1117 0.949 . S
C1122 C1128 1.368 . S
C1123 C1107 1.349 . S
C1123 H1115 0.950 . S
C1123 C1121 1.327 . S
C1124 C1112 1.349 . S
C1124 H1118 0.950 . S
C1124 C1125 1.327 . S
C1125 H1119 0.950 . S
C1125 C1124 1.327 . S
C1125 C1129 1.429 . S
C1126 C1109 1.574 . S
C1126 H1120 0.949 . S
C1126 C1130 1.368 . S
C1127 C1108 1.429 . S
C1127 C1121 1.429 . S
C1127 C1128 1.523 . S
C1128 C1109 1.368 . S
C1128 C1122 1.368 . S
C1128 C1127 1.523 . S
C1129 C1113 1.429 . S
C1129 C1125 1.429 . S
C1129 C1130 1.523 . S
C1130 C1114 1.368 . S
C1130 C1126 1.368 . S
C1130 C1129 1.523 . S
H1131 C1106 0.950 . S
H1132 C1108 0.950 . S
H1133 C1109 0.949 . S
H1134 C1111 0.950 . S
H1135 C1113 0.950 . S
C1136 C1137 1.349 . S
C1136 C1138 1.327 . S
C1136 H1161 0.950 . S
C1137 C1136 1.349 . S
C1137 C1153 1.349 . S
C1138 C1136 1.327 . S
C1138 C1157 1.429 . S
C1138 H1162 0.950 . S
C1139 C1156 1.574 . S
C1139 C1158 1.368 . S
C1139 H1163 0.919 1_554 S
H1140 C1144 0.949 . S
C1141 C1142 1.349 . S
C1141 C1143 1.327 . S
C1141 H1164 0.950 . S
C1142 C1141 1.349 . S
C1142 C1154 1.349 . S
C1143 C1141 1.327 . S
C1143 C1159 1.429 . S
C1143 H1165 0.950 . S
C1144 H1140 0.949 . S
C1144 C1152 1.574 . S
C1144 C1160 1.368 . S
H1145 C1153 0.950 1_556 S
H1146 C1151 0.950 1_556 S
H1147 C1152 0.949 . S
H1148 C1154 0.950 1_545 S
H1149 C1155 0.950 . S
H1150 C1156 0.949 . S
C1151 H1146 0.950 1_554 S
C1151 C1153 1.327 . S
C1151 C1157 1.429 . S
C1152 C1144 1.574 . S
C1152 H1147 0.949 . S
C1152 C1158 1.368 . S
C1153 C1137 1.349 . S
C1153 H1145 0.950 1_554 S
C1153 C1151 1.327 . S
C1154 C1142 1.349 . S
C1154 H1148 0.950 1_565 S
C1154 C1155 1.327 . S
C1155 H1149 0.950 . S
C1155 C1154 1.327 . S
C1155 C1159 1.429 . S
C1156 C1139 1.574 . S
C1156 H1150 0.949 . S
C1156 C1160 1.368 . S
C1157 C1138 1.429 . S
C1157 C1151 1.429 . S
C1157 C1158 1.523 . S
C1158 C1139 1.368 . S
C1158 C1152 1.368 . S
C1158 C1157 1.523 . S
C1159 C1143 1.429 . S
C1159 C1155 1.429 . S
C1159 C1160 1.523 . S
C1160 C1144 1.368 . S
C1160 C1156 1.368 . S
C1160 C1159 1.523 . S
H1161 C1136 0.950 . S
H1162 C1138 0.950 . S
H1163 C1139 0.919 1_556 S
H1164 C1141 0.950 . S
H1165 C1143 0.950 . S
C1166 C1167 1.349 1_556 S
C1166 C1168 1.327 . S
C1166 H1191 0.950 . S
C1167 C1166 1.349 1_554 S
C1167 C1183 1.349 . S
C1168 C1166 1.327 . S
C1168 C1187 1.429 1_556 S
C1168 H1192 0.950 . S
C1169 C1186 1.574 . S
C1169 C1188 1.368 . S
C1169 H1193 0.949 . S
H1170 C1174 0.949 . S
C1171 C1172 1.349 . S
C1171 C1173 1.327 . S
C1171 H1194 0.950 . S
C1172 C1171 1.349 . S
C1172 C1184 1.353 . S
C1173 C1171 1.327 . S
C1173 C1189 1.429 . S
C1173 H1195 0.950 . S
C1174 H1170 0.949 . S
C1174 C1182 1.574 . S
C1174 C1190 1.368 1_556 S
H1175 C1183 0.950 . S
H1176 C1181 0.950 . S
H1177 C1182 0.949 . S
H1178 C1184 0.947 1_556 S
H1179 C1185 0.950 . S
H1180 C1186 0.949 . S
C1181 H1176 0.950 . S
C1181 C1183 1.327 . S
C1181 C1187 1.429 . S
C1182 C1174 1.574 . S
C1182 H1177 0.949 . S
C1182 C1188 1.368 1_556 S
C1183 C1167 1.349 . S
C1183 H1175 0.950 . S
C1183 C1181 1.327 . S
C1184 C1172 1.353 . S
C1184 H1178 0.947 1_554 S
C1184 C1185 1.326 1_554 S
C1185 H1179 0.950 . S
C1185 C1184 1.326 1_556 S
C1185 C1189 1.429 1_556 S
C1186 C1169 1.574 . S
C1186 H1180 0.949 . S
C1186 C1190 1.368 . S
C1187 C1168 1.429 1_554 S
C1187 C1181 1.429 . S
C1187 C1188 1.523 . S
C1188 C1169 1.368 . S
C1188 C1182 1.368 1_554 S
C1188 C1187 1.523 . S
C1189 C1173 1.429 . S
C1189 C1185 1.429 1_554 S
C1189 C1190 1.523 . S
C1190 C1174 1.368 1_554 S
C1190 C1186 1.368 . S
C1190 C1189 1.523 . S
H1191 C1166 0.950 . S
H1192 C1168 0.950 . S
H1193 C1169 0.949 . S
H1194 C1171 0.950 . S
H1195 C1173 0.950 . S
C1196 C1197 1.349 . S
C1196 C1198 1.327 . S
C1196 H1221 0.950 . S
C1197 C1196 1.349 . S
C1197 C1213 1.349 . S
C1198 C1196 1.327 . S
C1198 C1217 1.429 . S
C1198 H1222 0.950 . S
C1199 C1216 1.574 . S
C1199 C1218 1.368 . S
C1199 H1223 0.949 . S
H1200 C1204 0.949 . S
C1201 C1202 1.349 . S
C1201 C1203 1.327 . S
C1201 H1224 0.950 . S
C1202 C1201 1.349 . S
C1202 C1214 1.349 . S
C1203 C1201 1.327 . S
C1203 C1219 1.429 . S
C1203 H1225 0.950 . S
C1204 H1200 0.949 . S
C1204 C1212 1.574 . S
C1204 C1220 1.368 . S
H1205 C1213 0.950 . S
H1206 C1211 0.950 . S
H1207 C1212 0.949 . S
H1208 C1214 0.950 . S
H1209 C1215 0.950 . S
H1210 C1216 0.949 . S
C1211 H1206 0.950 . S
C1211 C1213 1.327 . S
C1211 C1217 1.429 . S
C1212 C1204 1.574 . S
C1212 H1207 0.949 . S
C1212 C1218 1.368 . S
C1213 C1197 1.349 . S
C1213 H1205 0.950 . S
C1213 C1211 1.327 . S
C1214 C1202 1.349 . S
C1214 H1208 0.950 . S
C1214 C1215 1.327 . S
C1215 H1209 0.950 . S
C1215 C1214 1.327 . S
C1215 C1219 1.429 . S
C1216 C1199 1.574 . S
C1216 H1210 0.949 . S
C1216 C1220 1.368 . S
C1217 C1198 1.429 . S
C1217 C1211 1.429 . S
C1217 C1218 1.523 . S
C1218 C1199 1.368 . S
C1218 C1212 1.368 . S
C1218 C1217 1.523 . S
C1219 C1203 1.429 . S
C1219 C1215 1.429 . S
C1219 C1220 1.523 . S
C1220 C1204 1.368 . S
C1220 C1216 1.368 . S
C1220 C1219 1.523 . S
H1221 C1196 0.950 . S
H1222 C1198 0.950 . S
H1223 C1199 0.949 . S
H1224 C1201 0.950 . S
H1225 C1203 0.950 . S
C1226 C1227 1.349 . S
C1226 C1228 1.327 . S
C1226 H1251 0.950 . S
C1227 C1226 1.349 . S
C1227 C1243 1.349 . S
C1228 C1226 1.327 . S
C1228 C1247 1.429 . S
C1228 H1252 0.950 . S
C1229 C1246 1.574 . S
C1229 C1248 1.368 . S
C1229 H1253 0.949 . S
H1230 C1234 0.949 . S
C1231 C1232 1.349 . S
C1231 C1233 1.327 . S
C1231 H1254 0.950 . S
C1232 C1231 1.349 . S
C1232 C1244 1.349 . S
C1233 C1231 1.327 . S
C1233 C1249 1.429 . S
C1233 H1255 0.950 . S
C1234 H1230 0.949 . S
C1234 C1242 1.574 . S
C1234 C1250 1.368 . S
H1235 C1243 0.950 . S
H1236 C1241 0.950 . S
H1237 C1242 0.949 . S
H1238 C1244 0.950 . S
H1239 C1245 0.950 . S
H1240 C1246 0.949 . S
C1241 H1236 0.950 . S
C1241 C1243 1.327 . S
C1241 C1247 1.429 . S
C1242 C1234 1.574 . S
C1242 H1237 0.949 . S
C1242 C1248 1.368 . S
C1243 C1227 1.349 . S
C1243 H1235 0.950 . S
C1243 C1241 1.327 . S
C1244 C1232 1.349 . S
C1244 H1238 0.950 . S
C1244 C1245 1.327 . S
C1245 H1239 0.950 . S
C1245 C1244 1.327 . S
C1245 C1249 1.429 . S
C1246 C1229 1.574 . S
C1246 H1240 0.949 . S
C1246 C1250 1.368 . S
C1247 C1228 1.429 . S
C1247 C1241 1.429 . S
C1247 C1248 1.523 . S
C1248 C1229 1.368 . S
C1248 C1242 1.368 . S
C1248 C1247 1.523 . S
C1249 C1233 1.429 . S
C1249 C1245 1.429 . S
C1249 C1250 1.523 . S
C1250 C1234 1.368 . S
C1250 C1246 1.368 . S
C1250 C1249 1.523 . S
H1251 C1226 0.950 . S
H1252 C1228 0.950 . S
H1253 C1229 0.949 . S
H1254 C1231 0.950 . S
H1255 C1233 0.950 . S
C1256 C1257 1.349 . S
C1256 C1258 1.327 . S
C1256 H1281 0.950 . S
C1257 C1256 1.349 . S
C1257 C1273 1.349 . S
C1258 C1256 1.327 . S
C1258 C1277 1.429 . S
C1258 H1282 0.950 . S
C1259 C1276 1.574 . S
C1259 C1278 1.368 . S
C1259 H1283 0.949 . S
H1260 C1264 0.949 . S
C1261 C1262 1.349 . S
C1261 C1263 1.327 . S
C1261 H1284 0.950 . S
C1262 C1261 1.349 . S
C1262 C1274 1.349 . S
C1263 C1261 1.327 . S
C1263 C1279 1.429 . S
C1263 H1285 0.950 . S
C1264 H1260 0.949 . S
C1264 C1272 1.574 . S
C1264 C1280 1.368 . S
H1265 C1273 0.950 . S
H1266 C1271 0.950 . S
H1267 C1272 0.949 . S
H1268 C1274 0.950 . S
H1269 C1275 0.950 . S
H1270 C1276 0.949 . S
C1271 H1266 0.950 . S
C1271 C1273 1.327 . S
C1271 C1277 1.429 . S
C1272 C1264 1.574 . S
C1272 H1267 0.949 . S
C1272 C1278 1.368 . S
C1273 C1257 1.349 . S
C1273 H1265 0.950 . S
C1273 C1271 1.327 . S
C1274 C1262 1.349 . S
C1274 H1268 0.950 . S
C1274 C1275 1.327 . S
C1275 H1269 0.950 . S
C1275 C1274 1.327 . S
C1275 C1279 1.429 . S
C1276 C1259 1.574 . S
C1276 H1270 0.949 . S
C1276 C1280 1.368 . S
C1277 C1258 1.429 . S
C1277 C1271 1.429 . S
C1277 C1278 1.523 . S
C1278 C1259 1.368 . S
C1278 C1272 1.368 . S
C1278 C1277 1.523 . S
C1279 C1263 1.429 . S
C1279 C1275 1.429 . S
C1279 C1280 1.523 . S
C1280 C1264 1.368 . S
C1280 C1276 1.368 . S
C1280 C1279 1.523 . S
H1281 C1256 0.950 . S
H1282 C1258 0.950 . S
H1283 C1259 0.949 . S
H1284 C1261 0.950 . S
H1285 C1263 0.950 . S
C1286 C1287 1.349 . S
C1286 C1288 1.327 . S
C1286 H1311 0.950 . S
C1287 C1286 1.349 . S
C1287 C1303 1.349 . S
C1288 C1286 1.327 . S
C1288 C1307 1.429 . S
C1288 H1312 0.950 . S
C1289 C1306 1.574 . S
C1289 C1308 1.368 . S
C1289 H1313 0.949 . S
H1290 C1294 0.949 . S
C1291 C1292 1.349 . S
C1291 C1293 1.327 . S
C1291 H1314 0.950 . S
C1292 C1291 1.349 . S
C1292 C1304 1.349 . S
C1293 C1291 1.327 . S
C1293 C1309 1.429 . S
C1293 H1315 0.950 . S
C1294 H1290 0.949 . S
C1294 C1302 1.574 . S
C1294 C1310 1.368 . S
H1295 C1303 0.950 . S
H1296 C1301 0.950 . S
H1297 C1302 0.949 . S
H1298 C1304 0.950 . S
H1299 C1305 0.950 . S
H1300 C1306 0.949 . S
C1301 H1296 0.950 . S
C1301 C1303 1.327 . S
C1301 C1307 1.429 . S
C1302 C1294 1.574 . S
C1302 H1297 0.949 . S
C1302 C1308 1.368 . S
C1303 C1287 1.349 . S
C1303 H1295 0.950 . S
C1303 C1301 1.327 . S
C1304 C1292 1.349 . S
C1304 H1298 0.950 . S
C1304 C1305 1.327 . S
C1305 H1299 0.950 . S
C1305 C1304 1.327 . S
C1305 C1309 1.429 . S
C1306 C1289 1.574 . S
C1306 H1300 0.949 . S
C1306 C1310 1.368 . S
C1307 C1288 1.429 . S
C1307 C1301 1.429 . S
C1307 C1308 1.523 . S
C1308 C1289 1.368 . S
C1308 C1302 1.368 . S
C1308 C1307 1.523 . S
C1309 C1293 1.429 . S
C1309 C1305 1.429 . S
C1309 C1310 1.523 . S
C1310 C1294 1.368 . S
C1310 C1306 1.368 . S
C1310 C1309 1.523 . S
H1311 C1286 0.950 . S
H1312 C1288 0.950 . S
H1313 C1289 0.949 . S
H1314 C1291 0.950 . S
H1315 C1293 0.950 . S
C1316 C1317 1.349 . S
C1316 C1318 1.327 . S
C1316 H1341 0.950 . S
C1317 C1316 1.349 . S
C1317 C1333 1.349 . S
C1318 C1316 1.327 . S
C1318 C1337 1.429 . S
C1318 H1342 0.950 . S
C1319 C1336 1.574 . S
C1319 C1338 1.368 . S
C1319 H1343 0.949 . S
H1320 C1324 0.949 . S
C1321 C1322 1.349 . S
C1321 C1323 1.327 . S
C1321 H1344 0.950 . S
C1322 C1321 1.349 . S
C1322 C1334 1.349 . S
C1323 C1321 1.327 . S
C1323 C1339 1.429 . S
C1323 H1345 0.950 . S
C1324 H1320 0.949 . S
C1324 C1332 1.574 . S
C1324 C1340 1.368 . S
H1325 C1333 0.950 . S
H1326 C1331 0.950 . S
H1327 C1332 0.949 . S
H1328 C1334 0.950 . S
H1329 C1335 0.950 . S
H1330 C1336 0.949 . S
C1331 H1326 0.950 . S
C1331 C1333 1.327 . S
C1331 C1337 1.429 . S
C1332 C1324 1.574 . S
C1332 H1327 0.949 . S
C1332 C1338 1.368 . S
C1333 C1317 1.349 . S
C1333 H1325 0.950 . S
C1333 C1331 1.327 . S
C1334 C1322 1.349 . S
C1334 H1328 0.950 . S
C1334 C1335 1.327 . S
C1335 H1329 0.950 . S
C1335 C1334 1.327 . S
C1335 C1339 1.429 . S
C1336 C1319 1.574 . S
C1336 H1330 0.949 . S
C1336 C1340 1.368 . S
C1337 C1318 1.429 . S
C1337 C1331 1.429 . S
C1337 C1338 1.523 . S
C1338 C1319 1.368 . S
C1338 C1332 1.368 . S
C1338 C1337 1.523 . S
C1339 C1323 1.429 . S
C1339 C1335 1.429 . S
C1339 C1340 1.523 . S
C1340 C1324 1.368 . S
C1340 C1336 1.368 . S
C1340 C1339 1.523 . S
H1341 C1316 0.950 . S
H1342 C1318 0.950 . S
H1343 C1319 0.949 . S
H1344 C1321 0.950 . S
H1345 C1323 0.950 . S
C1346 C1347 1.349 . S
C1346 C1348 1.327 . S
C1346 H1371 0.950 . S
C1347 C1346 1.349 . S
C1347 C1363 1.349 . S
C1348 C1346 1.327 . S
C1348 C1367 1.429 . S
C1348 H1372 0.950 . S
C1349 C1366 1.574 . S
C1349 C1368 1.368 . S
C1349 H1373 0.949 . S
H1350 C1354 0.949 . S
C1351 C1352 1.349 . S
C1351 C1353 1.327 . S
C1351 H1374 0.950 . S
C1352 C1351 1.349 . S
C1352 C1364 1.349 . S
C1353 C1351 1.327 . S
C1353 C1369 1.429 . S
C1353 H1375 0.950 . S
C1354 H1350 0.949 . S
C1354 C1362 1.574 . S
C1354 C1370 1.368 . S
H1355 C1363 0.950 . S
H1356 C1361 0.950 . S
H1357 C1362 0.949 . S
H1358 C1364 0.950 . S
H1359 C1365 0.950 . S
H1360 C1366 0.949 . S
C1361 H1356 0.950 . S
C1361 C1363 1.327 . S
C1361 C1367 1.429 . S
C1362 C1354 1.574 . S
C1362 H1357 0.949 . S
C1362 C1368 1.368 . S
C1363 C1347 1.349 . S
C1363 H1355 0.950 . S
C1363 C1361 1.327 . S
C1364 C1352 1.349 . S
C1364 H1358 0.950 . S
C1364 C1365 1.327 . S
C1365 H1359 0.950 . S
C1365 C1364 1.327 . S
C1365 C1369 1.429 . S
C1366 C1349 1.574 . S
C1366 H1360 0.949 . S
C1366 C1370 1.368 . S
C1367 C1348 1.429 . S
C1367 C1361 1.429 . S
C1367 C1368 1.523 . S
C1368 C1349 1.368 . S
C1368 C1362 1.368 . S
C1368 C1367 1.523 . S
C1369 C1353 1.429 . S
C1369 C1365 1.429 . S
C1369 C1370 1.523 . S
C1370 C1354 1.368 . S
C1370 C1366 1.368 . S
C1370 C1369 1.523 . S
H1371 C1346 0.950 . S
H1372 C1348 0.950 . S
H1373 C1349 0.949 . S
H1374 C1351 0.950 . S
H1375 C1353 0.950 . S
C1376 C1377 1.349 . S
C1376 C1378 1.327 . S
C1376 H1401 0.950 . S
C1377 C1376 1.349 . S
C1377 C1393 1.349 . S
C1378 C1376 1.327 . S
C1378 C1397 1.429 . S
C1378 H1402 0.950 . S
C1379 C1396 1.574 . S
C1379 C1398 1.368 . S
C1379 H1403 0.949 . S
H1380 C1384 0.949 . S
C1381 C1382 1.353 . S
C1381 C1383 1.330 . S
C1381 H1404 0.942 1_455 S
C1382 C1381 1.353 . S
C1382 C1394 1.349 . S
C1383 C1381 1.330 . S
C1383 C1399 1.429 . S
C1383 H1405 0.950 1_455 S
C1384 H1380 0.949 . S
C1384 C1392 1.574 . S
C1384 C1400 1.368 . S
H1385 C1393 0.950 . S
H1386 C1391 0.950 . S
H1387 C1392 0.949 . S
H1388 C1394 0.950 . S
H1389 C1395 0.950 . S
H1390 C1396 0.949 1_655 S
C1391 H1386 0.950 . S
C1391 C1393 1.327 . S
C1391 C1397 1.429 . S
C1392 C1384 1.574 . S
C1392 H1387 0.949 . S
C1392 C1398 1.368 . S
C1393 C1377 1.349 . S
C1393 H1385 0.950 . S
C1393 C1391 1.327 . S
C1394 C1382 1.349 . S
C1394 H1388 0.950 . S
C1394 C1395 1.327 . S
C1395 H1389 0.950 . S
C1395 C1394 1.327 . S
C1395 C1399 1.429 . S
C1396 C1379 1.574 . S
C1396 H1390 0.949 1_455 S
C1396 C1400 1.368 . S
C1397 C1378 1.429 . S
C1397 C1391 1.429 . S
C1397 C1398 1.523 . S
C1398 C1379 1.368 . S
C1398 C1392 1.368 . S
C1398 C1397 1.523 . S
C1399 C1383 1.429 . S
C1399 C1395 1.429 . S
C1399 C1400 1.523 . S
C1400 C1384 1.368 . S
C1400 C1396 1.368 . S
C1400 C1399 1.523 . S
H1401 C1376 0.950 . S
H1402 C1378 0.950 . S
H1403 C1379 0.949 . S
H1404 C1381 0.942 1_655 S
H1405 C1383 0.950 1_655 S
C1406 C1407 1.349 . S
C1406 C1408 1.327 . S
C1406 H1431 0.950 . S
C1407 C1406 1.349 . S
C1407 C1423 1.349 . S
C1408 C1406 1.327 . S
C1408 C1427 1.429 . S
C1408 H1432 0.950 . S
C1409 C1426 1.574 . S
C1409 C1428 1.368 . S
C1409 H1433 0.949 . S
H1410 C1414 0.949 . S
C1411 C1412 1.349 . S
C1411 C1413 1.327 . S
C1411 H1434 0.950 . S
C1412 C1411 1.349 . S
C1412 C1424 1.349 . S
C1413 C1411 1.327 . S
C1413 C1429 1.429 . S
C1413 H1435 0.950 . S
C1414 H1410 0.949 . S
C1414 C1422 1.574 . S
C1414 C1430 1.368 . S
H1415 C1423 0.950 . S
H1416 C1421 0.950 . S
H1417 C1422 0.949 . S
H1418 C1424 0.950 . S
H1419 C1425 0.950 . S
H1420 C1426 0.949 . S
C1421 H1416 0.950 . S
C1421 C1423 1.327 . S
C1421 C1427 1.429 . S
C1422 C1414 1.574 . S
C1422 H1417 0.949 . S
C1422 C1428 1.368 . S
C1423 C1407 1.349 . S
C1423 H1415 0.950 . S
C1423 C1421 1.327 . S
C1424 C1412 1.349 . S
C1424 H1418 0.950 . S
C1424 C1425 1.327 . S
C1425 H1419 0.950 . S
C1425 C1424 1.327 . S
C1425 C1429 1.429 . S
C1426 C1409 1.574 . S
C1426 H1420 0.949 . S
C1426 C1430 1.368 . S
C1427 C1408 1.429 . S
C1427 C1421 1.429 . S
C1427 C1428 1.523 . S
C1428 C1409 1.368 . S
C1428 C1422 1.368 . S
C1428 C1427 1.523 . S
C1429 C1413 1.429 . S
C1429 C1425 1.429 . S
C1429 C1430 1.523 . S
C1430 C1414 1.368 . S
C1430 C1426 1.368 . S
C1430 C1429 1.523 . S
H1431 C1406 0.950 . S
H1432 C1408 0.950 . S
H1433 C1409 0.949 . S
H1434 C1411 0.950 . S
H1435 C1413 0.950 . S
C1436 C1437 1.349 . S
C1436 C1438 1.327 . S
C1436 H1461 0.950 . S
C1437 C1436 1.349 . S
C1437 C1453 1.349 . S
C1438 C1436 1.327 . S
C1438 C1457 1.429 . S
C1438 H1462 0.950 . S
C1439 C1456 1.574 . S
C1439 C1458 1.368 . S
C1439 H1463 0.949 . S
H1440 C1444 0.949 . S
C1441 C1442 1.349 . S
C1441 C1443 1.327 . S
C1441 H1464 0.950 . S
C1442 C1441 1.349 . S
C1442 C1454 1.349 . S
C1443 C1441 1.327 . S
C1443 C1459 1.429 . S
C1443 H1465 0.950 . S
C1444 H1440 0.949 . S
C1444 C1452 1.574 . S
C1444 C1460 1.368 . S
H1445 C1453 0.950 . S
H1446 C1451 0.950 . S
H1447 C1452 0.949 . S
H1448 C1454 0.950 . S
H1449 C1455 0.950 . S
H1450 C1456 0.949 . S
C1451 H1446 0.950 . S
C1451 C1453 1.327 . S
C1451 C1457 1.429 . S
C1452 C1444 1.574 . S
C1452 H1447 0.949 . S
C1452 C1458 1.368 . S
C1453 C1437 1.349 . S
C1453 H1445 0.950 . S
C1453 C1451 1.327 . S
C1454 C1442 1.349 . S
C1454 H1448 0.950 . S
C1454 C1455 1.327 . S
C1455 H1449 0.950 . S
C1455 C1454 1.327 . S
C1455 C1459 1.429 . S
C1456 C1439 1.574 . S
C1456 H1450 0.949 . S
C1456 C1460 1.368 . S
C1457 C1438 1.429 . S
C1457 C1451 1.429 . S
C1457 C1458 1.523 . S
C1458 C1439 1.368 . S
C1458 C1452 1.368 . S
C1458 C1457 1.523 . S
C1459 C1443 1.429 . S
C1459 C1455 1.429 . S
C1459 C1460 1.523 . S
C1460 C1444 1.368 . S
C1460 C1456 1.368 . S
C1460 C1459 1.523 . S
H1461 C1436 0.950 . S
H1462 C1438 0.950 . S
H1463 C1439 0.949 . S
H1464 C1441 0.950 . S
H1465 C1443 0.950 . S
C1466 C1467 1.349 . S
C1466 C1468 1.327 . S
C1466 H1491 0.950 . S
C1467 C1466 1.349 . S
C1467 C1483 1.349 . S
C1468 C1466 1.327 . S
C1468 C1487 1.429 . S
C1468 H1492 0.950 . S
C1469 C1486 1.574 . S
C1469 C1488 1.368 . S
C1469 H1493 0.949 . S
H1470 C1474 0.949 . S
C1471 C1472 1.349 . S
C1471 C1473 1.327 . S
C1471 H1494 0.950 . S
C1472 C1471 1.349 . S
C1472 C1484 1.349 . S
C1473 C1471 1.327 . S
C1473 C1489 1.429 . S
C1473 H1495 0.950 . S
C1474 H1470 0.949 . S
C1474 C1482 1.574 . S
C1474 C1490 1.368 . S
H1475 C1483 0.950 . S
H1476 C1481 0.950 . S
H1477 C1482 0.949 . S
H1478 C1484 0.950 . S
H1479 C1485 0.950 . S
H1480 C1486 0.949 . S
C1481 H1476 0.950 . S
C1481 C1483 1.327 . S
C1481 C1487 1.429 . S
C1482 C1474 1.574 . S
C1482 H1477 0.949 . S
C1482 C1488 1.368 . S
C1483 C1467 1.349 . S
C1483 H1475 0.950 . S
C1483 C1481 1.327 . S
C1484 C1472 1.349 . S
C1484 H1478 0.950 . S
C1484 C1485 1.327 . S
C1485 H1479 0.950 . S
C1485 C1484 1.327 . S
C1485 C1489 1.429 . S
C1486 C1469 1.574 . S
C1486 H1480 0.949 . S
C1486 C1490 1.368 . S
C1487 C1468 1.429 . S
C1487 C1481 1.429 . S
C1487 C1488 1.523 . S
C1488 C1469 1.368 . S
C1488 C1482 1.368 . S
C1488 C1487 1.523 . S
C1489 C1473 1.429 . S
C1489 C1485 1.429 . S
C1489 C1490 1.523 . S
C1490 C1474 1.368 . S
C1490 C1486 1.368 . S
C1490 C1489 1.523 . S
H1491 C1466 0.950 . S
H1492 C1468 0.950 . S
H1493 C1469 0.949 . S
H1494 C1471 0.950 . S
H1495 C1473 0.950 . S
C1496 C1497 1.320 1_655 S
C1496 C1498 1.323 . S
C1496 H1521 0.985 . S
C1497 C1496 1.320 1_455 S
C1497 C1513 1.349 . S
C1498 C1496 1.323 . S
C1498 C1517 1.429 1_655 S
C1498 H1522 0.950 . S
C1499 C1516 1.574 . S
C1499 C1518 1.368 . S
C1499 H1523 0.949 . S
H1500 C1504 0.949 . S
C1501 C1502 1.349 . S
C1501 C1503 1.327 . S
C1501 H1524 0.950 . S
C1502 C1501 1.349 . S
C1502 C1514 1.349 1_455 S
C1503 C1501 1.327 . S
C1503 C1519 1.429 . S
C1503 H1525 0.950 . S
C1504 H1500 0.949 . S
C1504 C1512 1.574 . S
C1504 C1520 1.368 1_655 S
H1505 C1513 0.950 . S
H1506 C1511 0.950 . S
H1507 C1512 0.949 . S
H1508 C1514 0.950 . S
H1509 C1515 0.950 . S
H1510 C1516 0.949 . S
C1511 H1506 0.950 . S
C1511 C1513 1.327 . S
C1511 C1517 1.429 . S
C1512 C1504 1.574 . S
C1512 H1507 0.949 . S
C1512 C1518 1.368 1_655 S
C1513 C1497 1.349 . S
C1513 H1505 0.950 . S
C1513 C1511 1.327 . S
C1514 C1502 1.349 1_655 S
C1514 H1508 0.950 . S
C1514 C1515 1.327 . S
C1515 H1509 0.950 . S
C1515 C1514 1.327 . S
C1515 C1519 1.429 1_655 S
C1516 C1499 1.574 . S
C1516 H1510 0.949 . S
C1516 C1520 1.368 . S
C1517 C1498 1.429 1_455 S
C1517 C1511 1.429 . S
C1517 C1518 1.523 . S
C1518 C1499 1.368 . S
C1518 C1512 1.368 1_455 S
C1518 C1517 1.523 . S
C1519 C1503 1.429 . S
C1519 C1515 1.429 1_455 S
C1519 C1520 1.523 . S
C1520 C1504 1.368 1_455 S
C1520 C1516 1.368 . S
C1520 C1519 1.523 . S
H1521 C1496 0.985 . S
H1522 C1498 0.950 . S
H1523 C1499 0.949 . S
H1524 C1501 0.950 . S
H1525 C1503 0.950 . S
C1526 C1527 1.349 . S
C1526 C1528 1.327 . S
C1526 H1551 0.950 . S
C1527 C1526 1.349 . S
C1527 C1543 1.349 . S
C1528 C1526 1.327 . S
C1528 C1547 1.429 . S
C1528 H1552 0.950 . S
C1529 C1546 1.574 . S
C1529 C1548 1.368 . S
C1529 H1553 0.949 . S
H1530 C1534 0.949 . S
C1531 C1532 1.349 . S
C1531 C1533 1.327 . S
C1531 H1554 0.950 . S
C1532 C1531 1.349 . S
C1532 C1544 1.349 . S
C1533 C1531 1.327 . S
C1533 C1549 1.429 . S
C1533 H1555 0.950 . S
C1534 H1530 0.949 . S
C1534 C1542 1.574 . S
C1534 C1550 1.368 . S
H1535 C1543 0.950 . S
H1536 C1541 0.950 . S
H1537 C1542 0.949 . S
H1538 C1544 0.950 . S
H1539 C1545 0.950 . S
H1540 C1546 0.949 . S
C1541 H1536 0.950 . S
C1541 C1543 1.327 . S
C1541 C1547 1.429 . S
C1542 C1534 1.574 . S
C1542 H1537 0.949 . S
C1542 C1548 1.368 . S
C1543 C1527 1.349 . S
C1543 H1535 0.950 . S
C1543 C1541 1.327 . S
C1544 C1532 1.349 . S
C1544 H1538 0.950 . S
C1544 C1545 1.327 . S
C1545 H1539 0.950 . S
C1545 C1544 1.327 . S
C1545 C1549 1.429 . S
C1546 C1529 1.574 . S
C1546 H1540 0.949 . S
C1546 C1550 1.368 . S
C1547 C1528 1.429 . S
C1547 C1541 1.429 . S
C1547 C1548 1.523 . S
C1548 C1529 1.368 . S
C1548 C1542 1.368 . S
C1548 C1547 1.523 . S
C1549 C1533 1.429 . S
C1549 C1545 1.429 . S
C1549 C1550 1.523 . S
C1550 C1534 1.368 . S
C1550 C1546 1.368 . S
C1550 C1549 1.523 . S
H1551 C1526 0.950 . S
H1552 C1528 0.950 . S
H1553 C1529 0.949 . S
H1554 C1531 0.950 . S
H1555 C1533 0.950 . S
C1556 C1557 1.349 . S
C1556 C1558 1.327 . S
C1556 H1581 0.950 . S
C1557 C1556 1.349 . S
C1557 C1573 1.349 . S
C1558 C1556 1.327 . S
C1558 C1577 1.429 . S
C1558 H1582 0.950 . S
C1559 C1576 1.574 . S
C1559 C1578 1.368 . S
C1559 H1583 0.949 . S
H1560 C1564 0.949 . S
C1561 C1562 1.349 1_556 S
C1561 C1563 1.327 . S
C1561 H1584 0.950 . S
C1562 C1561 1.349 1_554 S
C1562 C1574 1.349 . S
C1563 C1561 1.327 . S
C1563 C1579 1.429 . S
C1563 H1585 0.950 . S
C1564 H1560 0.949 . S
C1564 C1572 1.574 . S
C1564 C1580 1.368 . S
H1565 C1573 0.950 . S
H1566 C1571 0.950 . S
H1567 C1572 0.949 . S
H1568 C1574 0.950 . S
H1569 C1575 0.941 1_554 S
H1570 C1576 0.949 . S
C1571 H1566 0.950 . S
C1571 C1573 1.327 . S
C1571 C1577 1.429 . S
C1572 C1564 1.574 . S
C1572 H1567 0.949 . S
C1572 C1578 1.368 . S
C1573 C1557 1.349 . S
C1573 H1565 0.950 . S
C1573 C1571 1.327 . S
C1574 C1562 1.349 . S
C1574 H1568 0.950 . S
C1574 C1575 1.317 1_554 S
C1575 H1569 0.941 1_556 S
C1575 C1574 1.317 1_556 S
C1575 C1579 1.448 . S
C1576 C1559 1.574 . S
C1576 H1570 0.949 . S
C1576 C1580 1.368 . S
C1577 C1558 1.429 . S
C1577 C1571 1.429 . S
C1577 C1578 1.523 . S
C1578 C1559 1.368 . S
C1578 C1572 1.368 . S
C1578 C1577 1.523 . S
C1579 C1563 1.429 . S
C1579 C1575 1.448 . S
C1579 C1580 1.523 . S
C1580 C1564 1.368 . S
C1580 C1576 1.368 . S
C1580 C1579 1.523 . S
H1581 C1556 0.950 . S
H1582 C1558 0.950 . S
H1583 C1559 0.949 . S
H1584 C1561 0.950 . S
H1585 C1563 0.950 . S
C1586 C1587 1.349 . S
C1586 C1588 1.327 . S
C1586 H1611 0.950 . S
C1587 C1586 1.349 . S
C1587 C1603 1.349 . S
C1588 C1586 1.327 . S
C1588 C1607 1.429 . S
C1588 H1612 0.950 . S
C1589 C1606 1.574 . S
C1589 C1608 1.368 . S
C1589 H1613 0.949 . S
H1590 C1594 0.949 . S
C1591 C1592 1.349 . S
C1591 C1593 1.327 . S
C1591 H1614 0.950 . S
C1592 C1591 1.349 . S
C1592 C1604 1.349 . S
C1593 C1591 1.327 . S
C1593 C1609 1.429 . S
C1593 H1615 0.950 . S
C1594 H1590 0.949 . S
C1594 C1602 1.574 . S
C1594 C1610 1.368 . S
H1595 C1603 0.950 . S
H1596 C1601 0.950 . S
H1597 C1602 0.949 . S
H1598 C1604 0.950 . S
H1599 C1605 0.950 . S
H1600 C1606 0.949 . S
C1601 H1596 0.950 . S
C1601 C1603 1.327 . S
C1601 C1607 1.429 . S
C1602 C1594 1.574 . S
C1602 H1597 0.949 . S
C1602 C1608 1.368 . S
C1603 C1587 1.349 . S
C1603 H1595 0.950 . S
C1603 C1601 1.327 . S
C1604 C1592 1.349 . S
C1604 H1598 0.950 . S
C1604 C1605 1.327 . S
C1605 H1599 0.950 . S
C1605 C1604 1.327 . S
C1605 C1609 1.429 . S
C1606 C1589 1.574 . S
C1606 H1600 0.949 . S
C1606 C1610 1.368 . S
C1607 C1588 1.429 . S
C1607 C1601 1.429 . S
C1607 C1608 1.523 . S
C1608 C1589 1.368 . S
C1608 C1602 1.368 . S
C1608 C1607 1.523 . S
C1609 C1593 1.429 . S
C1609 C1605 1.429 . S
C1609 C1610 1.523 . S
C1610 C1594 1.368 . S
C1610 C1606 1.368 . S
C1610 C1609 1.523 . S
H1611 C1586 0.950 . S
H1612 C1588 0.950 . S
H1613 C1589 0.949 . S
H1614 C1591 0.950 . S
H1615 C1593 0.950 . S
C1616 C1617 1.349 . S
C1616 C1618 1.327 . S
C1616 H1641 0.950 . S
C1617 C1616 1.349 . S
C1617 C1633 1.349 1_545 S
C1618 C1616 1.327 . S
C1618 C1637 1.429 . S
C1618 H1642 0.950 . S
C1619 C1636 1.574 . S
C1619 C1638 1.368 1_565 S
C1619 H1643 0.949 . S
H1620 C1624 0.949 . S
C1621 C1622 1.349 1_565 S
C1621 C1623 1.327 . S
C1621 H1644 0.950 . S
C1622 C1621 1.349 1_545 S
C1622 C1634 1.349 . S
C1623 C1621 1.327 . S
C1623 C1639 1.429 1_565 S
C1623 H1645 0.950 . S
C1624 H1620 0.949 . S
C1624 C1632 1.574 . S
C1624 C1640 1.368 . S
H1625 C1633 0.950 . S
H1626 C1631 0.950 . S
H1627 C1632 0.949 . S
H1628 C1634 0.950 . S
H1629 C1635 0.950 . S
H1630 C1636 0.949 . S
C1631 H1626 0.950 . S
C1631 C1633 1.327 . S
C1631 C1637 1.429 1_565 S
C1632 C1624 1.574 . S
C1632 H1627 0.949 . S
C1632 C1638 1.368 . S
C1633 C1617 1.349 1_565 S
C1633 H1625 0.950 . S
C1633 C1631 1.327 . S
C1634 C1622 1.349 . S
C1634 H1628 0.950 . S
C1634 C1635 1.327 . S
C1635 H1629 0.950 . S
C1635 C1634 1.327 . S
C1635 C1639 1.429 . S
C1636 C1619 1.574 . S
C1636 H1630 0.949 . S
C1636 C1640 1.368 1_565 S
C1637 C1618 1.429 . S
C1637 C1631 1.429 1_545 S
C1637 C1638 1.523 . S
C1638 C1619 1.368 1_545 S
C1638 C1632 1.368 . S
C1638 C1637 1.523 . S
C1639 C1623 1.429 1_545 S
C1639 C1635 1.429 . S
C1639 C1640 1.523 . S
C1640 C1624 1.368 . S
C1640 C1636 1.368 1_545 S
C1640 C1639 1.523 . S
H1641 C1616 0.950 . S
H1642 C1618 0.950 . S
H1643 C1619 0.949 . S
H1644 C1621 0.950 . S
H1645 C1623 0.950 . S
C1646 C1647 1.349 . S
C1646 C1648 1.327 . S
C1646 H1671 0.950 . S
C1647 C1646 1.349 . S
C1647 C1663 1.349 . S
C1648 C1646 1.327 . S
C1648 C1667 1.429 . S
C1648 H1672 0.950 . S
C1649 C1666 1.574 . S
C1649 C1668 1.368 . S
C1649 H1673 0.949 . S
H1650 C1654 0.949 . S
C1651 C1652 1.349 . S
C1651 C1653 1.327 . S
C1651 H1674 0.950 . S
C1652 C1651 1.349 . S
C1652 C1664 1.349 . S
C1653 C1651 1.327 . S
C1653 C1669 1.429 . S
C1653 H1675 0.950 . S
C1654 H1650 0.949 . S
C1654 C1662 1.574 . S
C1654 C1670 1.368 . S
H1655 C1663 0.950 . S
H1656 C1661 0.950 . S
H1657 C1662 0.949 . S
H1658 C1664 0.950 . S
H1659 C1665 0.950 . S
H1660 C1666 0.949 . S
C1661 H1656 0.950 . S
C1661 C1663 1.327 . S
C1661 C1667 1.429 . S
C1662 C1654 1.574 . S
C1662 H1657 0.949 . S
C1662 C1668 1.368 . S
C1663 C1647 1.349 . S
C1663 H1655 0.950 . S
C1663 C1661 1.327 . S
C1664 C1652 1.349 . S
C1664 H1658 0.950 . S
C1664 C1665 1.327 . S
C1665 H1659 0.950 . S
C1665 C1664 1.327 . S
C1665 C1669 1.429 . S
C1666 C1649 1.574 . S
C1666 H1660 0.949 . S
C1666 C1670 1.368 . S
C1667 C1648 1.429 . S
C1667 C1661 1.429 . S
C1667 C1668 1.523 . S
C1668 C1649 1.368 . S
C1668 C1662 1.368 . S
C1668 C1667 1.523 . S
C1669 C1653 1.429 . S
C1669 C1665 1.429 . S
C1669 C1670 1.523 . S
C1670 C1654 1.368 . S
C1670 C1666 1.368 . S
C1670 C1669 1.523 . S
H1671 C1646 0.950 . S
H1672 C1648 0.950 . S
H1673 C1649 0.949 . S
H1674 C1651 0.950 . S
H1675 C1653 0.950 . S
C1676 C1677 1.349 . S
C1676 C1678 1.327 . S
C1676 H1701 0.921 1_545 S
C1677 C1676 1.349 . S
C1677 C1693 1.349 . S
C1678 C1676 1.327 . S
C1678 C1697 1.429 . S
C1678 H1702 0.950 1_545 S
C1679 C1696 1.574 . S
C1679 C1698 1.368 . S
C1679 H1703 0.949 . S
H1680 C1684 0.949 1_565 S
C1681 C1682 1.349 . S
C1681 C1683 1.327 . S
C1681 H1704 0.950 . S
C1682 C1681 1.349 . S
C1682 C1694 1.349 . S
C1683 C1681 1.327 . S
C1683 C1699 1.429 . S
C1683 H1705 0.950 . S
C1684 H1680 0.949 1_545 S
C1684 C1692 1.574 . S
C1684 C1700 1.368 . S
H1685 C1693 0.950 . S
H1686 C1691 0.950 . S
H1687 C1692 0.949 1_565 S
H1688 C1694 0.950 1_565 S
H1689 C1695 0.950 1_565 S
H1690 C1696 0.949 . S
C1691 H1686 0.950 . S
C1691 C1693 1.327 . S
C1691 C1697 1.429 . S
C1692 C1684 1.574 . S
C1692 H1687 0.949 1_545 S
C1692 C1698 1.368 . S
C1693 C1677 1.349 . S
C1693 H1685 0.950 . S
C1693 C1691 1.327 . S
C1694 C1682 1.349 . S
C1694 H1688 0.950 1_545 S
C1694 C1695 1.327 . S
C1695 H1689 0.950 1_545 S
C1695 C1694 1.327 . S
C1695 C1699 1.429 . S
C1696 C1679 1.574 . S
C1696 H1690 0.949 . S
C1696 C1700 1.368 . S
C1697 C1678 1.429 . S
C1697 C1691 1.429 . S
C1697 C1698 1.523 . S
C1698 C1679 1.368 . S
C1698 C1692 1.368 . S
C1698 C1697 1.523 . S
C1699 C1683 1.429 . S
C1699 C1695 1.429 . S
C1699 C1700 1.523 . S
C1700 C1684 1.368 . S
C1700 C1696 1.368 . S
C1700 C1699 1.523 . S
H1701 C1676 0.921 1_565 S
H1702 C1678 0.950 1_565 S
H1703 C1679 0.949 . S
H1704 C1681 0.950 . S
H1705 C1683 0.950 . S
C1706 C1707 1.349 . S
C1706 C1708 1.327 . S
C1706 H1731 0.950 . S
C1707 C1706 1.349 . S
C1707 C1723 1.349 . S
C1708 C1706 1.327 . S
C1708 C1727 1.429 . S
C1708 H1732 0.950 . S
C1709 C1726 1.574 . S
C1709 C1728 1.368 . S
C1709 H1733 0.949 . S
H1710 C1714 0.949 . S
C1711 C1712 1.349 . S
C1711 C1713 1.327 . S
C1711 H1734 0.950 . S
C1712 C1711 1.349 . S
C1712 C1724 1.349 . S
C1713 C1711 1.327 . S
C1713 C1729 1.429 . S
C1713 H1735 0.950 . S
C1714 H1710 0.949 . S
C1714 C1722 1.574 . S
C1714 C1730 1.368 . S
H1715 C1723 0.950 . S
H1716 C1721 0.950 . S
H1717 C1722 0.949 . S
H1718 C1724 0.950 . S
H1719 C1725 0.950 . S
H1720 C1726 0.949 . S
C1721 H1716 0.950 . S
C1721 C1723 1.327 . S
C1721 C1727 1.429 . S
C1722 C1714 1.574 . S
C1722 H1717 0.949 . S
C1722 C1728 1.368 . S
C1723 C1707 1.349 . S
C1723 H1715 0.950 . S
C1723 C1721 1.327 . S
C1724 C1712 1.349 . S
C1724 H1718 0.950 . S
C1724 C1725 1.327 . S
C1725 H1719 0.950 . S
C1725 C1724 1.327 . S
C1725 C1729 1.429 . S
C1726 C1709 1.574 . S
C1726 H1720 0.949 . S
C1726 C1730 1.368 . S
C1727 C1708 1.429 . S
C1727 C1721 1.429 . S
C1727 C1728 1.523 . S
C1728 C1709 1.368 . S
C1728 C1722 1.368 . S
C1728 C1727 1.523 . S
C1729 C1713 1.429 . S
C1729 C1725 1.429 . S
C1729 C1730 1.523 . S
C1730 C1714 1.368 . S
C1730 C1726 1.368 . S
C1730 C1729 1.523 . S
H1731 C1706 0.950 . S
H1732 C1708 0.950 . S
H1733 C1709 0.949 . S
H1734 C1711 0.950 . S
H1735 C1713 0.950 . S
C1736 C1737 1.349 . S
C1736 C1738 1.327 . S
C1736 H1761 0.950 . S
C1737 C1736 1.349 . S
C1737 C1753 1.349 1_545 S
C1738 C1736 1.327 . S
C1738 C1757 1.429 . S
C1738 H1762 0.950 . S
C1739 C1756 1.574 . S
C1739 C1758 1.368 1_565 S
C1739 H1763 0.949 . S
H1740 C1744 0.949 . S
C1741 C1742 1.349 . S
C1741 C1743 1.327 . S
C1741 H1764 0.950 1_545 S
C1742 C1741 1.349 . S
C1742 C1754 1.349 . S
C1743 C1741 1.327 . S
C1743 C1759 1.429 . S
C1743 H1765 0.950 1_545 S
C1744 H1740 0.949 . S
C1744 C1752 1.574 . S
C1744 C1760 1.368 . S
H1745 C1753 0.950 . S
H1746 C1751 0.950 . S
H1747 C1752 0.949 . S
H1748 C1754 0.950 . S
H1749 C1755 0.950 . S
H1750 C1756 0.949 . S
C1751 H1746 0.950 . S
C1751 C1753 1.327 . S
C1751 C1757 1.429 1_565 S
C1752 C1744 1.574 . S
C1752 H1747 0.949 . S
C1752 C1758 1.368 . S
C1753 C1737 1.349 1_565 S
C1753 H1745 0.950 . S
C1753 C1751 1.327 . S
C1754 C1742 1.349 . S
C1754 H1748 0.950 . S
C1754 C1755 1.327 . S
C1755 H1749 0.950 . S
C1755 C1754 1.327 . S
C1755 C1759 1.429 . S
C1756 C1739 1.574 . S
C1756 H1750 0.949 . S
C1756 C1760 1.368 1_565 S
C1757 C1738 1.429 . S
C1757 C1751 1.429 1_545 S
C1757 C1758 1.523 . S
C1758 C1739 1.368 1_545 S
C1758 C1752 1.368 . S
C1758 C1757 1.523 . S
C1759 C1743 1.429 . S
C1759 C1755 1.429 . S
C1759 C1760 1.523 . S
C1760 C1744 1.368 . S
C1760 C1756 1.368 1_545 S
C1760 C1759 1.523 . S
H1761 C1736 0.950 . S
H1762 C1738 0.950 . S
H1763 C1739 0.949 . S
H1764 C1741 0.950 1_565 S
H1765 C1743 0.950 1_565 S
C1766 C1767 1.349 . S
C1766 C1768 1.327 . S
C1766 H1791 0.950 . S
C1767 C1766 1.349 . S
C1767 C1783 1.349 . S
C1768 C1766 1.327 . S
C1768 C1787 1.429 . S
C1768 H1792 0.950 . S
C1769 C1786 1.574 . S
C1769 C1788 1.368 . S
C1769 H1793 0.949 . S
H1770 C1774 0.949 . S
C1771 C1772 1.349 . S
C1771 C1773 1.327 . S
C1771 H1794 0.950 . S
C1772 C1771 1.349 . S
C1772 C1784 1.349 . S
C1773 C1771 1.327 . S
C1773 C1789 1.429 . S
C1773 H1795 0.950 . S
C1774 H1770 0.949 . S
C1774 C1782 1.574 . S
C1774 C1790 1.368 . S
H1775 C1783 0.950 . S
H1776 C1781 0.950 . S
H1777 C1782 0.949 . S
H1778 C1784 0.950 . S
H1779 C1785 0.950 . S
H1780 C1786 0.949 . S
C1781 H1776 0.950 . S
C1781 C1783 1.327 . S
C1781 C1787 1.429 . S
C1782 C1774 1.574 . S
C1782 H1777 0.949 . S
C1782 C1788 1.368 . S
C1783 C1767 1.349 . S
C1783 H1775 0.950 . S
C1783 C1781 1.327 . S
C1784 C1772 1.349 . S
C1784 H1778 0.950 . S
C1784 C1785 1.327 . S
C1785 H1779 0.950 . S
C1785 C1784 1.327 . S
C1785 C1789 1.429 . S
C1786 C1769 1.574 . S
C1786 H1780 0.949 . S
C1786 C1790 1.368 . S
C1787 C1768 1.429 . S
C1787 C1781 1.429 . S
C1787 C1788 1.523 . S
C1788 C1769 1.368 . S
C1788 C1782 1.368 . S
C1788 C1787 1.523 . S
C1789 C1773 1.429 . S
C1789 C1785 1.429 . S
C1789 C1790 1.523 . S
C1790 C1774 1.368 . S
C1790 C1786 1.368 . S
C1790 C1789 1.523 . S
H1791 C1766 0.950 . S
H1792 C1768 0.950 . S
H1793 C1769 0.949 . S
H1794 C1771 0.950 . S
H1795 C1773 0.950 . S
C1796 C1797 1.349 . S
C1796 C1798 1.327 . S
C1796 H1821 0.950 . S
C1797 C1796 1.349 . S
C1797 C1813 1.349 . S
C1798 C1796 1.327 . S
C1798 C1817 1.429 . S
C1798 H1822 0.950 . S
C1799 C1816 1.574 . S
C1799 C1818 1.368 1_565 S
C1799 H1823 0.949 . S
H1800 C1804 0.949 . S
C1801 C1802 1.329 1_565 S
C1801 C1803 1.327 . S
C1801 H1824 0.950 . S
C1802 C1801 1.329 1_545 S
C1802 C1814 1.374 . S
C1803 C1801 1.327 . S
C1803 C1819 1.429 1_565 S
C1803 H1825 0.950 . S
C1804 H1800 0.949 . S
C1804 C1812 1.574 . S
C1804 C1820 1.368 . S
H1805 C1813 0.950 1_565 S
H1806 C1811 0.950 1_565 S
H1807 C1812 0.949 . S
H1808 C1814 0.950 . S
H1809 C1815 0.950 . S
H1810 C1816 0.949 . S
C1811 H1806 0.950 1_545 S
C1811 C1813 1.327 . S
C1811 C1817 1.429 . S
C1812 C1804 1.574 . S
C1812 H1807 0.949 . S
C1812 C1818 1.368 . S
C1813 C1797 1.349 . S
C1813 H1805 0.950 1_545 S
C1813 C1811 1.327 . S
C1814 C1802 1.374 . S
C1814 H1808 0.950 . S
C1814 C1815 1.327 . S
C1815 H1809 0.950 . S
C1815 C1814 1.327 . S
C1815 C1819 1.429 . S
C1816 C1799 1.574 . S
C1816 H1810 0.949 . S
C1816 C1820 1.368 1_565 S
C1817 C1798 1.429 . S
C1817 C1811 1.429 . S
C1817 C1818 1.523 . S
C1818 C1799 1.368 1_545 S
C1818 C1812 1.368 . S
C1818 C1817 1.523 . S
C1819 C1803 1.429 1_545 S
C1819 C1815 1.429 . S
C1819 C1820 1.523 . S
C1820 C1804 1.368 . S
C1820 C1816 1.368 1_545 S
C1820 C1819 1.523 . S
H1821 C1796 0.950 . S
H1822 C1798 0.950 . S
H1823 C1799 0.949 . S
H1824 C1801 0.950 . S
H1825 C1803 0.950 . S
C1826 C1827 1.349 . S
C1826 C1828 1.327 . S
C1826 H1851 0.950 . S
C1827 C1826 1.349 . S
C1827 C1843 1.349 . S
C1828 C1826 1.327 . S
C1828 C1847 1.429 . S
C1828 H1852 0.950 . S
C1829 C1846 1.574 . S
C1829 C1848 1.368 . S
C1829 H1853 0.949 . S
H1830 C1834 0.949 . S
C1831 C1832 1.349 . S
C1831 C1833 1.327 . S
C1831 H1854 0.950 . S
C1832 C1831 1.349 . S
C1832 C1844 1.349 . S
C1833 C1831 1.327 . S
C1833 C1849 1.429 . S
C1833 H1855 0.950 . S
C1834 H1830 0.949 . S
C1834 C1842 1.574 . S
C1834 C1850 1.368 . S
H1835 C1843 0.950 . S
H1836 C1841 0.950 . S
H1837 C1842 0.949 . S
H1838 C1844 0.950 . S
H1839 C1845 0.950 . S
H1840 C1846 0.949 . S
C1841 H1836 0.950 . S
C1841 C1843 1.327 . S
C1841 C1847 1.429 . S
C1842 C1834 1.574 . S
C1842 H1837 0.949 . S
C1842 C1848 1.368 . S
C1843 C1827 1.349 . S
C1843 H1835 0.950 . S
C1843 C1841 1.327 . S
C1844 C1832 1.349 . S
C1844 H1838 0.950 . S
C1844 C1845 1.327 . S
C1845 H1839 0.950 . S
C1845 C1844 1.327 . S
C1845 C1849 1.429 . S
C1846 C1829 1.574 . S
C1846 H1840 0.949 . S
C1846 C1850 1.368 . S
C1847 C1828 1.429 . S
C1847 C1841 1.429 . S
C1847 C1848 1.523 . S
C1848 C1829 1.368 . S
C1848 C1842 1.368 . S
C1848 C1847 1.523 . S
C1849 C1833 1.429 . S
C1849 C1845 1.429 . S
C1849 C1850 1.523 . S
C1850 C1834 1.368 . S
C1850 C1846 1.368 . S
C1850 C1849 1.523 . S
H1851 C1826 0.950 . S
H1852 C1828 0.950 . S
H1853 C1829 0.949 . S
H1854 C1831 0.950 . S
H1855 C1833 0.950 . S
C1856 C1857 1.349 . S
C1856 C1858 1.327 . S
C1856 H1881 0.950 . S
C1857 C1856 1.349 . S
C1857 C1873 1.349 . S
C1858 C1856 1.327 . S
C1858 C1877 1.429 . S
C1858 H1882 0.950 . S
C1859 C1876 1.573 1_554 S
C1859 C1878 1.371 . S
C1859 H1883 0.947 1_554 S
H1860 C1864 0.949 . S
C1861 C1862 1.349 1_556 S
C1861 C1863 1.327 . S
C1861 H1884 0.950 . S
C1862 C1861 1.349 1_554 S
C1862 C1874 1.349 . S
C1863 C1861 1.327 . S
C1863 C1879 1.429 1_556 S
C1863 H1885 0.950 . S
C1864 H1860 0.949 . S
C1864 C1872 1.574 . S
C1864 C1880 1.368 . S
H1865 C1873 0.950 1_556 S
H1866 C1871 0.950 1_556 S
H1867 C1872 0.949 . S
H1868 C1874 0.950 . S
H1869 C1875 0.950 . S
H1870 C1876 0.949 . S
C1871 H1866 0.950 1_554 S
C1871 C1873 1.327 . S
C1871 C1877 1.429 . S
C1872 C1864 1.574 . S
C1872 H1867 0.949 . S
C1872 C1878 1.368 . S
C1873 C1857 1.349 . S
C1873 H1865 0.950 1_554 S
C1873 C1871 1.327 . S
C1874 C1862 1.349 . S
C1874 H1868 0.950 . S
C1874 C1875 1.327 . S
C1875 H1869 0.950 . S
C1875 C1874 1.327 . S
C1875 C1879 1.429 . S
C1876 C1859 1.573 1_556 S
C1876 H1870 0.949 . S
C1876 C1880 1.368 1_556 S
C1877 C1858 1.429 . S
C1877 C1871 1.429 . S
C1877 C1878 1.523 . S
C1878 C1859 1.371 . S
C1878 C1872 1.368 . S
C1878 C1877 1.523 . S
C1879 C1863 1.429 1_554 S
C1879 C1875 1.429 . S
C1879 C1880 1.523 . S
C1880 C1864 1.368 . S
C1880 C1876 1.368 1_554 S
C1880 C1879 1.523 . S
H1881 C1856 0.950 . S
H1882 C1858 0.950 . S
H1883 C1859 0.947 1_556 S
H1884 C1861 0.950 . S
H1885 C1863 0.950 . S
C1886 C1887 1.349 . S
C1886 C1888 1.327 . S
C1886 H1911 0.950 . S
C1887 C1886 1.349 . S
C1887 C1903 1.349 . S
C1888 C1886 1.327 . S
C1888 C1907 1.429 . S
C1888 H1912 0.950 . S
C1889 C1906 1.574 . S
C1889 C1908 1.368 . S
C1889 H1913 0.949 . S
H1890 C1894 0.949 . S
C1891 C1892 1.349 . S
C1891 C1893 1.327 . S
C1891 H1914 0.950 . S
C1892 C1891 1.349 . S
C1892 C1904 1.349 . S
C1893 C1891 1.327 . S
C1893 C1909 1.429 . S
C1893 H1915 0.950 . S
C1894 H1890 0.949 . S
C1894 C1902 1.574 . S
C1894 C1910 1.368 . S
H1895 C1903 0.950 . S
H1896 C1901 0.950 . S
H1897 C1902 0.949 . S
H1898 C1904 0.950 . S
H1899 C1905 0.950 . S
H1900 C1906 0.949 . S
C1901 H1896 0.950 . S
C1901 C1903 1.327 . S
C1901 C1907 1.429 . S
C1902 C1894 1.574 . S
C1902 H1897 0.949 . S
C1902 C1908 1.368 . S
C1903 C1887 1.349 . S
C1903 H1895 0.950 . S
C1903 C1901 1.327 . S
C1904 C1892 1.349 . S
C1904 H1898 0.950 . S
C1904 C1905 1.327 . S
C1905 H1899 0.950 . S
C1905 C1904 1.327 . S
C1905 C1909 1.429 . S
C1906 C1889 1.574 . S
C1906 H1900 0.949 . S
C1906 C1910 1.368 . S
C1907 C1888 1.429 . S
C1907 C1901 1.429 . S
C1907 C1908 1.523 . S
C1908 C1889 1.368 . S
C1908 C1902 1.368 . S
C1908 C1907 1.523 . S
C1909 C1893 1.429 . S
C1909 C1905 1.429 . S
C1909 C1910 1.523 . S
C1910 C1894 1.368 . S
C1910 C1906 1.368 . S
C1910 C1909 1.523 . S
H1911 C1886 0.950 . S
H1912 C1888 0.950 . S
H1913 C1889 0.949 . S
H1914 C1891 0.950 . S
H1915 C1893 0.950 . S
C1916 C1917 1.349 . S
C1916 C1918 1.327 . S
C1916 H1941 0.950 . S
C1917 C1916 1.349 . S
C1917 C1933 1.349 . S
C1918 C1916 1.327 . S
C1918 C1937 1.429 . S
C1918 H1942 0.950 . S
C1919 C1936 1.574 . S
C1919 C1938 1.368 . S
C1919 H1943 0.949 . S
H1920 C1924 0.949 . S
C1921 C1922 1.349 . S
C1921 C1923 1.327 . S
C1921 H1944 0.950 . S
C1922 C1921 1.349 . S
C1922 C1934 1.349 . S
C1923 C1921 1.327 . S
C1923 C1939 1.429 . S
C1923 H1945 0.950 . S
C1924 H1920 0.949 . S
C1924 C1932 1.574 . S
C1924 C1940 1.368 . S
H1925 C1933 0.950 . S
H1926 C1931 0.950 . S
H1927 C1932 0.949 . S
H1928 C1934 0.950 . S
H1929 C1935 0.950 . S
H1930 C1936 0.949 . S
C1931 H1926 0.950 . S
C1931 C1933 1.327 . S
C1931 C1937 1.429 . S
C1932 C1924 1.574 . S
C1932 H1927 0.949 . S
C1932 C1938 1.368 . S
C1933 C1917 1.349 . S
C1933 H1925 0.950 . S
C1933 C1931 1.327 . S
C1934 C1922 1.349 . S
C1934 H1928 0.950 . S
C1934 C1935 1.327 . S
C1935 H1929 0.950 . S
C1935 C1934 1.327 . S
C1935 C1939 1.429 . S
C1936 C1919 1.574 . S
C1936 H1930 0.949 . S
C1936 C1940 1.368 . S
C1937 C1918 1.429 . S
C1937 C1931 1.429 . S
C1937 C1938 1.523 . S
C1938 C1919 1.368 . S
C1938 C1932 1.368 . S
C1938 C1937 1.523 . S
C1939 C1923 1.429 . S
C1939 C1935 1.429 . S
C1939 C1940 1.523 . S
C1940 C1924 1.368 . S
C1940 C1936 1.368 . S
C1940 C1939 1.523 . S
H1941 C1916 0.950 . S
H1942 C1918 0.950 . S
H1943 C1919 0.949 . S
H1944 C1921 0.950 . S
H1945 C1923 0.950 . S
C1946 C1947 1.349 . S
C1946 C1948 1.327 . S
C1946 H1971 0.950 . S
C1947 C1946 1.349 . S
C1947 C1963 1.349 . S
C1948 C1946 1.327 . S
C1948 C1967 1.429 . S
C1948 H1972 0.950 . S
C1949 C1966 1.574 . S
C1949 C1968 1.368 . S
C1949 H1973 0.949 . S
H1950 C1954 0.949 . S
C1951 C1952 1.349 . S
C1951 C1953 1.327 . S
C1951 H1974 0.950 . S
C1952 C1951 1.349 . S
C1952 C1964 1.349 . S
C1953 C1951 1.327 . S
C1953 C1969 1.429 . S
C1953 H1975 0.950 . S
C1954 H1950 0.949 . S
C1954 C1962 1.574 . S
C1954 C1970 1.368 . S
H1955 C1963 0.950 . S
H1956 C1961 0.950 . S
H1957 C1962 0.949 . S
H1958 C1964 0.950 . S
H1959 C1965 0.950 . S
H1960 C1966 0.949 . S
C1961 H1956 0.950 . S
C1961 C1963 1.327 . S
C1961 C1967 1.429 . S
C1962 C1954 1.574 . S
C1962 H1957 0.949 . S
C1962 C1968 1.368 . S
C1963 C1947 1.349 . S
C1963 H1955 0.950 . S
C1963 C1961 1.327 . S
C1964 C1952 1.349 . S
C1964 H1958 0.950 . S
C1964 C1965 1.327 . S
C1965 H1959 0.950 . S
C1965 C1964 1.327 . S
C1965 C1969 1.429 . S
C1966 C1949 1.574 . S
C1966 H1960 0.949 . S
C1966 C1970 1.368 . S
C1967 C1948 1.429 . S
C1967 C1961 1.429 . S
C1967 C1968 1.523 . S
C1968 C1949 1.368 . S
C1968 C1962 1.368 . S
C1968 C1967 1.523 . S
C1969 C1953 1.429 . S
C1969 C1965 1.429 . S
C1969 C1970 1.523 . S
C1970 C1954 1.368 . S
C1970 C1966 1.368 . S
C1970 C1969 1.523 . S
H1971 C1946 0.950 . S
H1972 C1948 0.950 . S
H1973 C1949 0.949 . S
H1974 C1951 0.950 . S
H1975 C1953 0.950 . S
C1976 C1977 1.349 . S
C1976 C1978 1.327 . S
C1976 H2001 0.950 . S
C1977 C1976 1.349 . S
C1977 C1993 1.349 . S
C1978 C1976 1.327 . S
C1978 C1997 1.429 . S
C1978 H2002 0.950 . S
C1979 C1996 1.574 . S
C1979 C1998 1.368 . S
C1979 H2003 0.949 . S
H1980 C1984 0.949 . S
C1981 C1982 1.349 . S
C1981 C1983 1.327 . S
C1981 H2004 0.950 . S
C1982 C1981 1.349 . S
C1982 C1994 1.349 . S
C1983 C1981 1.327 . S
C1983 C1999 1.429 . S
C1983 H2005 0.950 . S
C1984 H1980 0.949 . S
C1984 C1992 1.574 . S
C1984 C2000 1.368 . S
H1985 C1993 0.950 . S
H1986 C1991 0.950 . S
H1987 C1992 0.949 . S
H1988 C1994 0.950 . S
H1989 C1995 0.950 . S
H1990 C1996 0.949 . S
C1991 H1986 0.950 . S
C1991 C1993 1.327 . S
C1991 C1997 1.429 . S
C1992 C1984 1.574 . S
C1992 H1987 0.949 . S
C1992 C1998 1.368 . S
C1993 C1977 1.349 . S
C1993 H1985 0.950 . S
C1993 C1991 1.327 . S
C1994 C1982 1.349 . S
C1994 H1988 0.950 . S
C1994 C1995 1.327 . S
C1995 H1989 0.950 . S
C1995 C1994 1.327 . S
C1995 C1999 1.429 . S
C1996 C1979 1.574 . S
C1996 H1990 0.949 . S
C1996 C2000 1.368 . S
C1997 C1978 1.429 . S
C1997 C1991 1.429 . S
C1997 C1998 1.523 . S
C1998 C1979 1.368 . S
C1998 C1992 1.368 . S
C1998 C1997 1.523 . S
C1999 C1983 1.429 . S
C1999 C1995 1.429 . S
C1999 C2000 1.523 . S
C2000 C1984 1.368 . S
C2000 C1996 1.368 . S
C2000 C1999 1.523 . S
H2001 C1976 0.950 . S
H2002 C1978 0.950 . S
H2003 C1979 0.949 . S
H2004 C1981 0.950 . S
H2005 C1983 0.950 . S
C2006 C2007 1.349 . S
C2006 C2008 1.327 . S
C2006 H2031 0.950 . S
C2007 C2006 1.349 . S
C2007 C2023 1.349 . S
C2008 C2006 1.327 . S
C2008 C2027 1.429 . S
C2008 H2032 0.950 . S
C2009 C2026 1.574 . S
C2009 C2028 1.368 . S
C2009 H2033 0.949 . S
H2010 C2014 0.949 . S
C2011 C2012 1.349 . S
C2011 C2013 1.327 . S
C2011 H2034 0.950 . S
C2012 C2011 1.349 . S
C2012 C2024 1.349 . S
C2013 C2011 1.327 . S
C2013 C2029 1.429 . S
C2013 H2035 0.950 . S
C2014 H2010 0.949 . S
C2014 C2022 1.574 . S
C2014 C2030 1.368 . S
H2015 C2023 0.950 . S
H2016 C2021 0.950 . S
H2017 C2022 0.949 . S
H2018 C2024 0.950 . S
H2019 C2025 0.950 . S
H2020 C2026 0.949 . S
C2021 H2016 0.950 . S
C2021 C2023 1.327 . S
C2021 C2027 1.429 . S
C2022 C2014 1.574 . S
C2022 H2017 0.949 . S
C2022 C2028 1.368 . S
C2023 C2007 1.349 . S
C2023 H2015 0.950 . S
C2023 C2021 1.327 . S
C2024 C2012 1.349 . S
C2024 H2018 0.950 . S
C2024 C2025 1.327 . S
C2025 H2019 0.950 . S
C2025 C2024 1.327 . S
C2025 C2029 1.429 . S
C2026 C2009 1.574 . S
C2026 H2020 0.949 . S
C2026 C2030 1.368 . S
C2027 C2008 1.429 . S
C2027 C2021 1.429 . S
C2027 C2028 1.523 . S
C2028 C2009 1.368 . S
C2028 C2022 1.368 . S
C2028 C2027 1.523 . S
C2029 C2013 1.429 . S
C2029 C2025 1.429 . S
C2029 C2030 1.523 . S
C2030 C2014 1.368 . S
C2030 C2026 1.368 . S
C2030 C2029 1.523 . S
H2031 C2006 0.950 . S
H2032 C2008 0.950 . S
H2033 C2009 0.949 . S
H2034 C2011 0.950 . S
H2035 C2013 0.950 . S
C2036 C2037 1.349 . S
C2036 C2038 1.327 . S
C2036 H2061 0.950 . S
C2037 C2036 1.349 . S
C2037 C2053 1.349 . S
C2038 C2036 1.327 . S
C2038 C2057 1.429 . S
C2038 H2062 0.950 . S
C2039 C2056 1.574 . S
C2039 C2058 1.368 . S
C2039 H2063 0.949 . S
H2040 C2044 0.949 . S
C2041 C2042 1.349 . S
C2041 C2043 1.327 . S
C2041 H2064 0.950 . S
C2042 C2041 1.349 . S
C2042 C2054 1.349 . S
C2043 C2041 1.327 . S
C2043 C2059 1.429 . S
C2043 H2065 0.950 . S
C2044 H2040 0.949 . S
C2044 C2052 1.574 . S
C2044 C2060 1.368 . S
H2045 C2053 0.950 . S
H2046 C2051 0.950 . S
H2047 C2052 0.949 . S
H2048 C2054 0.950 . S
H2049 C2055 0.950 . S
H2050 C2056 0.949 . S
C2051 H2046 0.950 . S
C2051 C2053 1.327 . S
C2051 C2057 1.429 . S
C2052 C2044 1.574 . S
C2052 H2047 0.949 . S
C2052 C2058 1.368 . S
C2053 C2037 1.349 . S
C2053 H2045 0.950 . S
C2053 C2051 1.327 . S
C2054 C2042 1.349 . S
C2054 H2048 0.950 . S
C2054 C2055 1.327 . S
C2055 H2049 0.950 . S
C2055 C2054 1.327 . S
C2055 C2059 1.429 . S
C2056 C2039 1.574 . S
C2056 H2050 0.949 . S
C2056 C2060 1.368 . S
C2057 C2038 1.429 . S
C2057 C2051 1.429 . S
C2057 C2058 1.523 . S
C2058 C2039 1.368 . S
C2058 C2052 1.368 . S
C2058 C2057 1.523 . S
C2059 C2043 1.429 . S
C2059 C2055 1.429 . S
C2059 C2060 1.523 . S
C2060 C2044 1.368 . S
C2060 C2056 1.368 . S
C2060 C2059 1.523 . S
H2061 C2036 0.950 . S
H2062 C2038 0.950 . S
H2063 C2039 0.949 . S
H2064 C2041 0.950 . S
H2065 C2043 0.950 . S
C2066 C2067 1.349 . S
C2066 C2068 1.327 . S
C2066 H2091 0.950 . S
C2067 C2066 1.349 . S
C2067 C2083 1.349 . S
C2068 C2066 1.327 . S
C2068 C2087 1.429 . S
C2068 H2092 0.950 . S
C2069 C2086 1.574 . S
C2069 C2088 1.368 . S
C2069 H2093 0.949 . S
H2070 C2074 0.949 . S
C2071 C2072 1.349 . S
C2071 C2073 1.327 . S
C2071 H2094 0.950 . S
C2072 C2071 1.349 . S
C2072 C2084 1.349 . S
C2073 C2071 1.327 . S
C2073 C2089 1.429 . S
C2073 H2095 0.950 . S
C2074 H2070 0.949 . S
C2074 C2082 1.574 . S
C2074 C2090 1.368 . S
H2075 C2083 0.950 . S
H2076 C2081 0.950 . S
H2077 C2082 0.949 . S
H2078 C2084 0.950 . S
H2079 C2085 0.950 . S
H2080 C2086 0.949 . S
C2081 H2076 0.950 . S
C2081 C2083 1.327 . S
C2081 C2087 1.429 . S
C2082 C2074 1.574 . S
C2082 H2077 0.949 . S
C2082 C2088 1.368 . S
C2083 C2067 1.349 . S
C2083 H2075 0.950 . S
C2083 C2081 1.327 . S
C2084 C2072 1.349 . S
C2084 H2078 0.950 . S
C2084 C2085 1.327 . S
C2085 H2079 0.950 . S
C2085 C2084 1.327 . S
C2085 C2089 1.429 . S
C2086 C2069 1.574 . S
C2086 H2080 0.949 . S
C2086 C2090 1.368 . S
C2087 C2068 1.429 . S
C2087 C2081 1.429 . S
C2087 C2088 1.523 . S
C2088 C2069 1.368 . S
C2088 C2082 1.368 . S
C2088 C2087 1.523 . S
C2089 C2073 1.429 . S
C2089 C2085 1.429 . S
C2089 C2090 1.523 . S
C2090 C2074 1.368 . S
C2090 C2086 1.368 . S
C2090 C2089 1.523 . S
H2091 C2066 0.950 . S
H2092 C2068 0.950 . S
H2093 C2069 0.949 . S
H2094 C2071 0.950 . S
H2095 C2073 0.950 . S
C2096 C2097 1.349 . S
C2096 C2098 1.327 . S
C2096 H2121 0.950 . S
C2097 C2096 1.349 . S
C2097 C2113 1.349 . S
C2098 C2096 1.327 . S
C2098 C2117 1.429 . S
C2098 H2122 0.950 . S
C2099 C2116 1.574 . S
C2099 C2118 1.368 . S
C2099 H2123 0.949 . S
H2100 C2104 0.949 . S
C2101 C2102 1.349 . S
C2101 C2103 1.327 . S
C2101 H2124 0.950 . S
C2102 C2101 1.349 . S
C2102 C2114 1.349 . S
C2103 C2101 1.327 . S
C2103 C2119 1.429 . S
C2103 H2125 0.950 . S
C2104 H2100 0.949 . S
C2104 C2112 1.574 . S
C2104 C2120 1.368 . S
H2105 C2113 0.950 . S
H2106 C2111 0.950 . S
H2107 C2112 0.949 . S
H2108 C2114 0.950 . S
H2109 C2115 0.950 . S
H2110 C2116 0.949 . S
C2111 H2106 0.950 . S
C2111 C2113 1.327 . S
C2111 C2117 1.429 . S
C2112 C2104 1.574 . S
C2112 H2107 0.949 . S
C2112 C2118 1.368 . S
C2113 C2097 1.349 . S
C2113 H2105 0.950 . S
C2113 C2111 1.327 . S
C2114 C2102 1.349 . S
C2114 H2108 0.950 . S
C2114 C2115 1.327 . S
C2115 H2109 0.950 . S
C2115 C2114 1.327 . S
C2115 C2119 1.429 . S
C2116 C2099 1.574 . S
C2116 H2110 0.949 . S
C2116 C2120 1.368 . S
C2117 C2098 1.429 . S
C2117 C2111 1.429 . S
C2117 C2118 1.523 . S
C2118 C2099 1.368 . S
C2118 C2112 1.368 . S
C2118 C2117 1.523 . S
C2119 C2103 1.429 . S
C2119 C2115 1.429 . S
C2119 C2120 1.523 . S
C2120 C2104 1.368 . S
C2120 C2116 1.368 . S
C2120 C2119 1.523 . S
H2121 C2096 0.950 . S
H2122 C2098 0.950 . S
H2123 C2099 0.949 . S
H2124 C2101 0.950 . S
H2125 C2103 0.950 . S
C2126 C2127 1.349 . S
C2126 C2128 1.327 . S
C2126 H2151 0.950 . S
C2127 C2126 1.349 . S
C2127 C2143 1.349 . S
C2128 C2126 1.327 . S
C2128 C2147 1.429 . S
C2128 H2152 0.950 . S
C2129 C2146 1.574 . S
C2129 C2148 1.368 . S
C2129 H2153 0.949 . S
H2130 C2134 0.949 . S
C2131 C2132 1.349 . S
C2131 C2133 1.327 . S
C2131 H2154 0.950 . S
C2132 C2131 1.349 . S
C2132 C2144 1.349 . S
C2133 C2131 1.327 . S
C2133 C2149 1.429 . S
C2133 H2155 0.950 . S
C2134 H2130 0.949 . S
C2134 C2142 1.574 . S
C2134 C2150 1.368 . S
H2135 C2143 0.950 . S
H2136 C2141 0.950 . S
H2137 C2142 0.949 . S
H2138 C2144 0.950 . S
H2139 C2145 0.950 . S
H2140 C2146 0.949 . S
C2141 H2136 0.950 . S
C2141 C2143 1.327 . S
C2141 C2147 1.429 . S
C2142 C2134 1.574 . S
C2142 H2137 0.949 . S
C2142 C2148 1.368 . S
C2143 C2127 1.349 . S
C2143 H2135 0.950 . S
C2143 C2141 1.327 . S
C2144 C2132 1.349 . S
C2144 H2138 0.950 . S
C2144 C2145 1.327 . S
C2145 H2139 0.950 . S
C2145 C2144 1.327 . S
C2145 C2149 1.429 . S
C2146 C2129 1.574 . S
C2146 H2140 0.949 . S
C2146 C2150 1.368 . S
C2147 C2128 1.429 . S
C2147 C2141 1.429 . S
C2147 C2148 1.523 . S
C2148 C2129 1.368 . S
C2148 C2142 1.368 . S
C2148 C2147 1.523 . S
C2149 C2133 1.429 . S
C2149 C2145 1.429 . S
C2149 C2150 1.523 . S
C2150 C2134 1.368 . S
C2150 C2146 1.368 . S
C2150 C2149 1.523 . S
H2151 C2126 0.950 . S
H2152 C2128 0.950 . S
H2153 C2129 0.949 . S
H2154 C2131 0.950 . S
H2155 C2133 0.950 . S
C2156 C2157 1.349 . S
C2156 C2158 1.327 . S
C2156 H2181 0.950 . S
C2157 C2156 1.349 . S
C2157 C2173 1.349 1_455 S
C2158 C2156 1.327 . S
C2158 C2177 1.429 . S
C2158 H2182 0.950 . S
C2159 C2176 1.574 . S
C2159 C2178 1.368 1_655 S
C2159 H2183 0.949 . S
H2160 C2164 0.949 . S
C2161 C2162 1.349 1_655 S
C2161 C2163 1.338 . S
C2161 H2184 0.950 . S
C2162 C2161 1.349 1_455 S
C2162 C2174 1.349 . S
C2163 C2161 1.338 . S
C2163 C2179 1.416 1_654 S
C2163 H2185 0.953 1_554 S
C2164 H2160 0.949 . S
C2164 C2172 1.574 . S
C2164 C2180 1.368 . S
H2165 C2173 0.950 . S
H2166 C2171 0.950 . S
H2167 C2172 0.949 . S
H2168 C2174 0.950 . S
H2169 C2175 0.950 . S
H2170 C2176 0.949 . S
C2171 H2166 0.950 . S
C2171 C2173 1.327 . S
C2171 C2177 1.429 1_655 S
C2172 C2164 1.574 . S
C2172 H2167 0.949 . S
C2172 C2178 1.368 . S
C2173 C2157 1.349 1_655 S
C2173 H2165 0.950 . S
C2173 C2171 1.327 . S
C2174 C2162 1.349 . S
C2174 H2168 0.950 . S
C2174 C2175 1.327 1_554 S
C2175 H2169 0.950 . S
C2175 C2174 1.327 1_556 S
C2175 C2179 1.429 . S
C2176 C2159 1.574 . S
C2176 H2170 0.949 . S
C2176 C2180 1.368 1_655 S
C2177 C2158 1.429 . S
C2177 C2171 1.429 1_455 S
C2177 C2178 1.523 . S
C2178 C2159 1.368 1_455 S
C2178 C2172 1.368 . S
C2178 C2177 1.523 . S
C2179 C2163 1.416 1_456 S
C2179 C2175 1.429 . S
C2179 C2180 1.523 . S
C2180 C2164 1.368 . S
C2180 C2176 1.368 1_455 S
C2180 C2179 1.523 . S
H2181 C2156 0.950 . S
H2182 C2158 0.950 . S
H2183 C2159 0.949 . S
H2184 C2161 0.950 . S
H2185 C2163 0.953 1_556 S
C2186 C2187 1.349 . S
C2186 C2188 1.327 . S
C2186 H2211 0.950 . S
C2187 C2186 1.349 . S
C2187 C2203 1.349 . S
C2188 C2186 1.327 . S
C2188 C2207 1.429 . S
C2188 H2212 0.950 . S
C2189 C2206 1.574 . S
C2189 C2208 1.368 . S
C2189 H2213 0.949 . S
H2190 C2194 0.949 . S
C2191 C2192 1.349 . S
C2191 C2193 1.327 . S
C2191 H2214 0.950 . S
C2192 C2191 1.349 . S
C2192 C2204 1.349 . S
C2193 C2191 1.327 . S
C2193 C2209 1.429 . S
C2193 H2215 0.950 . S
C2194 H2190 0.949 . S
C2194 C2202 1.574 . S
C2194 C2210 1.368 . S
H2195 C2203 0.950 . S
H2196 C2201 0.950 . S
H2197 C2202 0.949 . S
H2198 C2204 0.950 . S
H2199 C2205 0.950 . S
H2200 C2206 0.949 . S
C2201 H2196 0.950 . S
C2201 C2203 1.327 . S
C2201 C2207 1.429 . S
C2202 C2194 1.574 . S
C2202 H2197 0.949 . S
C2202 C2208 1.368 . S
C2203 C2187 1.349 . S
C2203 H2195 0.950 . S
C2203 C2201 1.327 . S
C2204 C2192 1.349 . S
C2204 H2198 0.950 . S
C2204 C2205 1.327 . S
C2205 H2199 0.950 . S
C2205 C2204 1.327 . S
C2205 C2209 1.429 . S
C2206 C2189 1.574 . S
C2206 H2200 0.949 . S
C2206 C2210 1.368 . S
C2207 C2188 1.429 . S
C2207 C2201 1.429 . S
C2207 C2208 1.523 . S
C2208 C2189 1.368 . S
C2208 C2202 1.368 . S
C2208 C2207 1.523 . S
C2209 C2193 1.429 . S
C2209 C2205 1.429 . S
C2209 C2210 1.523 . S
C2210 C2194 1.368 . S
C2210 C2206 1.368 . S
C2210 C2209 1.523 . S
H2211 C2186 0.950 . S
H2212 C2188 0.950 . S
H2213 C2189 0.949 . S
H2214 C2191 0.950 . S
H2215 C2193 0.950 . S
C2216 C2217 1.349 . S
C2216 C2218 1.327 . S
C2216 H2241 0.950 . S
C2217 C2216 1.349 . S
C2217 C2233 1.349 . S
C2218 C2216 1.327 . S
C2218 C2237 1.429 . S
C2218 H2242 0.950 . S
C2219 C2236 1.574 . S
C2219 C2238 1.368 . S
C2219 H2243 0.949 . S
H2220 C2224 0.949 . S
C2221 C2222 1.349 . S
C2221 C2223 1.327 . S
C2221 H2244 0.950 . S
C2222 C2221 1.349 . S
C2222 C2234 1.349 . S
C2223 C2221 1.327 . S
C2223 C2239 1.429 . S
C2223 H2245 0.950 . S
C2224 H2220 0.949 . S
C2224 C2232 1.574 . S
C2224 C2240 1.368 . S
H2225 C2233 0.950 . S
H2226 C2231 0.950 . S
H2227 C2232 0.949 . S
H2228 C2234 0.950 . S
H2229 C2235 0.950 . S
H2230 C2236 0.949 . S
C2231 H2226 0.950 . S
C2231 C2233 1.327 . S
C2231 C2237 1.429 . S
C2232 C2224 1.574 . S
C2232 H2227 0.949 . S
C2232 C2238 1.368 . S
C2233 C2217 1.349 . S
C2233 H2225 0.950 . S
C2233 C2231 1.327 . S
C2234 C2222 1.349 . S
C2234 H2228 0.950 . S
C2234 C2235 1.327 . S
C2235 H2229 0.950 . S
C2235 C2234 1.327 . S
C2235 C2239 1.429 . S
C2236 C2219 1.574 . S
C2236 H2230 0.949 . S
C2236 C2240 1.368 . S
C2237 C2218 1.429 . S
C2237 C2231 1.429 . S
C2237 C2238 1.523 . S
C2238 C2219 1.368 . S
C2238 C2232 1.368 . S
C2238 C2237 1.523 . S
C2239 C2223 1.429 . S
C2239 C2235 1.429 . S
C2239 C2240 1.523 . S
C2240 C2224 1.368 . S
C2240 C2236 1.368 . S
C2240 C2239 1.523 . S
H2241 C2216 0.950 . S
H2242 C2218 0.950 . S
H2243 C2219 0.949 . S
H2244 C2221 0.950 . S
H2245 C2223 0.950 . S
C2246 C2247 1.349 . S
C2246 C2248 1.327 . S
C2246 H2271 0.950 . S
C2247 C2246 1.349 . S
C2247 C2263 1.349 . S
C2248 C2246 1.327 . S
C2248 C2267 1.429 . S
C2248 H2272 0.950 . S
C2249 C2266 1.574 . S
C2249 C2268 1.368 . S
C2249 H2273 0.949 . S
H2250 C2254 0.949 . S
C2251 C2252 1.349 . S
C2251 C2253 1.327 . S
C2251 H2274 0.950 . S
C2252 C2251 1.349 . S
C2252 C2264 1.349 . S
C2253 C2251 1.327 . S
C2253 C2269 1.429 . S
C2253 H2275 0.950 . S
C2254 H2250 0.949 . S
C2254 C2262 1.574 . S
C2254 C2270 1.368 . S
H2255 C2263 0.950 . S
H2256 C2261 0.950 . S
H2257 C2262 0.949 . S
H2258 C2264 0.950 . S
H2259 C2265 0.950 . S
H2260 C2266 0.949 . S
C2261 H2256 0.950 . S
C2261 C2263 1.327 . S
C2261 C2267 1.429 . S
C2262 C2254 1.574 . S
C2262 H2257 0.949 . S
C2262 C2268 1.368 . S
C2263 C2247 1.349 . S
C2263 H2255 0.950 . S
C2263 C2261 1.327 . S
C2264 C2252 1.349 . S
C2264 H2258 0.950 . S
C2264 C2265 1.327 . S
C2265 H2259 0.950 . S
C2265 C2264 1.327 . S
C2265 C2269 1.429 . S
C2266 C2249 1.574 . S
C2266 H2260 0.949 . S
C2266 C2270 1.368 . S
C2267 C2248 1.429 . S
C2267 C2261 1.429 . S
C2267 C2268 1.523 . S
C2268 C2249 1.368 . S
C2268 C2262 1.368 . S
C2268 C2267 1.523 . S
C2269 C2253 1.429 . S
C2269 C2265 1.429 . S
C2269 C2270 1.523 . S
C2270 C2254 1.368 . S
C2270 C2266 1.368 . S
C2270 C2269 1.523 . S
H2271 C2246 0.950 . S
H2272 C2248 0.950 . S
H2273 C2249 0.949 . S
H2274 C2251 0.950 . S
H2275 C2253 0.950 . S
C2276 C2277 1.349 . S
C2276 C2278 1.327 . S
C2276 H2301 0.950 . S
C2277 C2276 1.349 . S
C2277 C2293 1.349 1_655 S
C2278 C2276 1.327 . S
C2278 C2297 1.459 . S
C2278 H2302 0.950 . S
C2279 C2296 1.574 . S
C2279 C2298 1.365 1_455 S
C2279 H2303 0.949 . S
H2280 C2284 0.949 . S
C2281 C2282 1.349 . S
C2281 C2283 1.327 . S
C2281 H2304 0.950 . S
C2282 C2281 1.349 . S
C2282 C2294 1.349 1_455 S
C2283 C2281 1.327 . S
C2283 C2299 1.429 . S
C2283 H2305 0.950 . S
C2284 H2280 0.949 . S
C2284 C2292 1.574 . S
C2284 C2300 1.334 1_655 S
H2285 C2293 0.950 . S
H2286 C2291 0.950 . S
H2287 C2292 0.949 . S
H2288 C2294 0.950 . S
H2289 C2295 0.950 . S
H2290 C2296 0.949 . S
C2291 H2286 0.950 . S
C2291 C2293 1.327 . S
C2291 C2297 1.412 1_455 S
C2292 C2284 1.574 . S
C2292 H2287 0.949 . S
C2292 C2298 1.371 . S
C2293 C2277 1.349 1_455 S
C2293 H2285 0.950 . S
C2293 C2291 1.327 . S
C2294 C2282 1.349 1_655 S
C2294 H2288 0.950 . S
C2294 C2295 1.327 . S
C2295 H2289 0.950 . S
C2295 C2294 1.327 . S
C2295 C2299 1.429 1_655 S
C2296 C2279 1.574 . S
C2296 H2290 0.949 . S
C2296 C2300 1.393 . S
C2297 C2278 1.459 . S
C2297 C2291 1.412 1_655 S
C2297 C2298 1.513 . S
C2298 C2279 1.365 1_655 S
C2298 C2292 1.371 . S
C2298 C2297 1.513 . S
C2299 C2283 1.429 . S
C2299 C2295 1.429 1_455 S
C2299 C2300 1.537 . S
C2300 C2284 1.334 1_455 S
C2300 C2296 1.393 . S
C2300 C2299 1.537 . S
H2301 C2276 0.950 . S
H2302 C2278 0.950 . S
H2303 C2279 0.949 . S
H2304 C2281 0.950 . S
H2305 C2283 0.950 . S
C2306 C2307 1.349 . S
C2306 C2308 1.327 . S
C2306 H2331 0.950 . S
C2307 C2306 1.349 . S
C2307 C2323 1.349 . S
C2308 C2306 1.327 . S
C2308 C2327 1.429 . S
C2308 H2332 0.950 . S
C2309 C2326 1.574 . S
C2309 C2328 1.368 . S
C2309 H2333 0.949 . S
H2310 C2314 0.949 . S
C2311 C2312 1.349 . S
C2311 C2313 1.327 . S
C2311 H2334 0.950 . S
C2312 C2311 1.349 . S
C2312 C2324 1.349 . S
C2313 C2311 1.327 . S
C2313 C2329 1.429 . S
C2313 H2335 0.950 . S
C2314 H2310 0.949 . S
C2314 C2322 1.574 . S
C2314 C2330 1.368 . S
H2315 C2323 0.950 . S
H2316 C2321 0.950 . S
H2317 C2322 0.949 . S
H2318 C2324 0.950 . S
H2319 C2325 0.950 . S
H2320 C2326 0.949 . S
C2321 H2316 0.950 . S
C2321 C2323 1.327 . S
C2321 C2327 1.429 . S
C2322 C2314 1.574 . S
C2322 H2317 0.949 . S
C2322 C2328 1.368 . S
C2323 C2307 1.349 . S
C2323 H2315 0.950 . S
C2323 C2321 1.327 . S
C2324 C2312 1.349 . S
C2324 H2318 0.950 . S
C2324 C2325 1.327 . S
C2325 H2319 0.950 . S
C2325 C2324 1.327 . S
C2325 C2329 1.429 . S
C2326 C2309 1.574 . S
C2326 H2320 0.949 . S
C2326 C2330 1.368 . S
C2327 C2308 1.429 . S
C2327 C2321 1.429 . S
C2327 C2328 1.523 . S
C2328 C2309 1.368 . S
C2328 C2322 1.368 . S
C2328 C2327 1.523 . S
C2329 C2313 1.429 . S
C2329 C2325 1.429 . S
C2329 C2330 1.523 . S
C2330 C2314 1.368 . S
C2330 C2326 1.368 . S
C2330 C2329 1.523 . S
H2331 C2306 0.950 . S
H2332 C2308 0.950 . S
H2333 C2309 0.949 . S
H2334 C2311 0.950 . S
H2335 C2313 0.950 . S
C2336 C2337 1.349 . S
C2336 C2338 1.327 . S
C2336 H2361 0.950 . S
C2337 C2336 1.349 . S
C2337 C2353 1.349 . S
C2338 C2336 1.327 . S
C2338 C2357 1.429 . S
C2338 H2362 0.950 . S
C2339 C2356 1.574 . S
C2339 C2358 1.368 . S
C2339 H2363 0.949 . S
H2340 C2344 0.949 . S
C2341 C2342 1.349 . S
C2341 C2343 1.327 . S
C2341 H2364 0.950 . S
C2342 C2341 1.349 . S
C2342 C2354 1.349 . S
C2343 C2341 1.327 . S
C2343 C2359 1.429 . S
C2343 H2365 0.950 . S
C2344 H2340 0.949 . S
C2344 C2352 1.574 . S
C2344 C2360 1.368 . S
H2345 C2353 0.950 . S
H2346 C2351 0.950 . S
H2347 C2352 0.949 . S
H2348 C2354 0.950 . S
H2349 C2355 0.950 . S
H2350 C2356 0.949 . S
C2351 H2346 0.950 . S
C2351 C2353 1.327 . S
C2351 C2357 1.429 . S
C2352 C2344 1.574 . S
C2352 H2347 0.949 . S
C2352 C2358 1.368 . S
C2353 C2337 1.349 . S
C2353 H2345 0.950 . S
C2353 C2351 1.327 . S
C2354 C2342 1.349 . S
C2354 H2348 0.950 . S
C2354 C2355 1.327 . S
C2355 H2349 0.950 . S
C2355 C2354 1.327 . S
C2355 C2359 1.429 . S
C2356 C2339 1.574 . S
C2356 H2350 0.949 . S
C2356 C2360 1.368 . S
C2357 C2338 1.429 . S
C2357 C2351 1.429 . S
C2357 C2358 1.523 . S
C2358 C2339 1.368 . S
C2358 C2352 1.368 . S
C2358 C2357 1.523 . S
C2359 C2343 1.429 . S
C2359 C2355 1.429 . S
C2359 C2360 1.523 . S
C2360 C2344 1.368 . S
C2360 C2356 1.368 . S
C2360 C2359 1.523 . S
H2361 C2336 0.950 . S
H2362 C2338 0.950 . S
H2363 C2339 0.949 . S
H2364 C2341 0.950 . S
H2365 C2343 0.950 . S
C2366 C2367 1.349 . S
C2366 C2368 1.327 . S
C2366 H2391 0.950 . S
C2367 C2366 1.349 . S
C2367 C2383 1.349 . S
C2368 C2366 1.327 . S
C2368 C2387 1.429 . S
C2368 H2392 0.950 . S
C2369 C2386 1.574 . S
C2369 C2388 1.368 . S
C2369 H2393 0.949 . S
H2370 C2374 0.949 . S
C2371 C2372 1.349 . S
C2371 C2373 1.327 . S
C2371 H2394 0.950 . S
C2372 C2371 1.349 . S
C2372 C2384 1.349 . S
C2373 C2371 1.327 . S
C2373 C2389 1.429 . S
C2373 H2395 0.950 . S
C2374 H2370 0.949 . S
C2374 C2382 1.574 . S
C2374 C2390 1.368 . S
H2375 C2383 0.950 . S
H2376 C2381 0.950 . S
H2377 C2382 0.949 . S
H2378 C2384 0.950 . S
H2379 C2385 0.950 . S
H2380 C2386 0.949 . S
C2381 H2376 0.950 . S
C2381 C2383 1.327 . S
C2381 C2387 1.429 . S
C2382 C2374 1.574 . S
C2382 H2377 0.949 . S
C2382 C2388 1.368 . S
C2383 C2367 1.349 . S
C2383 H2375 0.950 . S
C2383 C2381 1.327 . S
C2384 C2372 1.349 . S
C2384 H2378 0.950 . S
C2384 C2385 1.327 . S
C2385 H2379 0.950 . S
C2385 C2384 1.327 . S
C2385 C2389 1.429 . S
C2386 C2369 1.574 . S
C2386 H2380 0.949 . S
C2386 C2390 1.368 . S
C2387 C2368 1.429 . S
C2387 C2381 1.429 . S
C2387 C2388 1.523 . S
C2388 C2369 1.368 . S
C2388 C2382 1.368 . S
C2388 C2387 1.523 . S
C2389 C2373 1.429 . S
C2389 C2385 1.429 . S
C2389 C2390 1.523 . S
C2390 C2374 1.368 . S
C2390 C2386 1.368 . S
C2390 C2389 1.523 . S
H2391 C2366 0.950 . S
H2392 C2368 0.950 . S
H2393 C2369 0.949 . S
H2394 C2371 0.950 . S
H2395 C2373 0.950 . S
C2396 C2397 1.349 . S
C2396 C2398 1.327 . S
C2396 H2421 0.950 . S
C2397 C2396 1.349 . S
C2397 C2413 1.349 . S
C2398 C2396 1.327 . S
C2398 C2417 1.429 . S
C2398 H2422 0.950 . S
C2399 C2416 1.574 . S
C2399 C2418 1.368 . S
C2399 H2423 0.949 . S
H2400 C2404 0.949 . S
C2401 C2402 1.349 . S
C2401 C2403 1.327 . S
C2401 H2424 0.950 . S
C2402 C2401 1.349 . S
C2402 C2414 1.349 . S
C2403 C2401 1.327 . S
C2403 C2419 1.429 . S
C2403 H2425 0.950 . S
C2404 H2400 0.949 . S
C2404 C2412 1.574 . S
C2404 C2420 1.368 . S
H2405 C2413 0.950 . S
H2406 C2411 0.950 . S
H2407 C2412 0.949 . S
H2408 C2414 0.950 . S
H2409 C2415 0.950 . S
H2410 C2416 0.949 . S
C2411 H2406 0.950 . S
C2411 C2413 1.327 . S
C2411 C2417 1.429 . S
C2412 C2404 1.574 . S
C2412 H2407 0.949 . S
C2412 C2418 1.368 . S
C2413 C2397 1.349 . S
C2413 H2405 0.950 . S
C2413 C2411 1.327 . S
C2414 C2402 1.349 . S
C2414 H2408 0.950 . S
C2414 C2415 1.327 . S
C2415 H2409 0.950 . S
C2415 C2414 1.327 . S
C2415 C2419 1.429 . S
C2416 C2399 1.574 . S
C2416 H2410 0.949 . S
C2416 C2420 1.368 . S
C2417 C2398 1.429 . S
C2417 C2411 1.429 . S
C2417 C2418 1.523 . S
C2418 C2399 1.368 . S
C2418 C2412 1.368 . S
C2418 C2417 1.523 . S
C2419 C2403 1.429 . S
C2419 C2415 1.429 . S
C2419 C2420 1.523 . S
C2420 C2404 1.368 . S
C2420 C2416 1.368 . S
C2420 C2419 1.523 . S
H2421 C2396 0.950 . S
H2422 C2398 0.950 . S
H2423 C2399 0.949 . S
H2424 C2401 0.950 . S
H2425 C2403 0.950 . S
C2426 C2427 1.349 . S
C2426 C2428 1.327 . S
C2426 H2451 0.950 . S
C2427 C2426 1.349 . S
C2427 C2443 1.349 . S
C2428 C2426 1.327 . S
C2428 C2447 1.429 . S
C2428 H2452 0.950 . S
C2429 C2446 1.574 . S
C2429 C2448 1.368 . S
C2429 H2453 0.949 . S
H2430 C2434 0.949 . S
C2431 C2432 1.349 . S
C2431 C2433 1.327 . S
C2431 H2454 0.950 . S
C2432 C2431 1.349 . S
C2432 C2444 1.349 . S
C2433 C2431 1.327 . S
C2433 C2449 1.429 . S
C2433 H2455 0.950 . S
C2434 H2430 0.949 . S
C2434 C2442 1.574 . S
C2434 C2450 1.368 . S
H2435 C2443 0.950 . S
H2436 C2441 0.950 . S
H2437 C2442 0.949 . S
H2438 C2444 0.950 . S
H2439 C2445 0.950 . S
H2440 C2446 0.949 . S
C2441 H2436 0.950 . S
C2441 C2443 1.327 . S
C2441 C2447 1.429 . S
C2442 C2434 1.574 . S
C2442 H2437 0.949 . S
C2442 C2448 1.368 . S
C2443 C2427 1.349 . S
C2443 H2435 0.950 . S
C2443 C2441 1.327 . S
C2444 C2432 1.349 . S
C2444 H2438 0.950 . S
C2444 C2445 1.327 . S
C2445 H2439 0.950 . S
C2445 C2444 1.327 . S
C2445 C2449 1.429 . S
C2446 C2429 1.574 . S
C2446 H2440 0.949 . S
C2446 C2450 1.368 . S
C2447 C2428 1.429 . S
C2447 C2441 1.429 . S
C2447 C2448 1.523 . S
C2448 C2429 1.368 . S
C2448 C2442 1.368 . S
C2448 C2447 1.523 . S
C2449 C2433 1.429 . S
C2449 C2445 1.429 . S
C2449 C2450 1.523 . S
C2450 C2434 1.368 . S
C2450 C2446 1.368 . S
C2450 C2449 1.523 . S
H2451 C2426 0.950 . S
H2452 C2428 0.950 . S
H2453 C2429 0.949 . S
H2454 C2431 0.950 . S
H2455 C2433 0.950 . S
C2456 C2457 1.349 . S
C2456 C2458 1.327 . S
C2456 H2481 0.950 . S
C2457 C2456 1.349 . S
C2457 C2473 1.349 . S
C2458 C2456 1.327 . S
C2458 C2477 1.429 . S
C2458 H2482 0.950 . S
C2459 C2476 1.574 . S
C2459 C2478 1.368 . S
C2459 H2483 0.949 . S
H2460 C2464 0.949 . S
C2461 C2462 1.349 . S
C2461 C2463 1.327 . S
C2461 H2484 0.950 . S
C2462 C2461 1.349 . S
C2462 C2474 1.349 . S
C2463 C2461 1.327 . S
C2463 C2479 1.429 . S
C2463 H2485 0.950 . S
C2464 H2460 0.949 . S
C2464 C2472 1.574 . S
C2464 C2480 1.368 . S
H2465 C2473 0.950 . S
H2466 C2471 0.950 . S
H2467 C2472 0.949 . S
H2468 C2474 0.950 . S
H2469 C2475 0.950 . S
H2470 C2476 0.949 . S
C2471 H2466 0.950 . S
C2471 C2473 1.327 . S
C2471 C2477 1.429 . S
C2472 C2464 1.574 . S
C2472 H2467 0.949 . S
C2472 C2478 1.368 . S
C2473 C2457 1.349 . S
C2473 H2465 0.950 . S
C2473 C2471 1.327 . S
C2474 C2462 1.349 . S
C2474 H2468 0.950 . S
C2474 C2475 1.327 . S
C2475 H2469 0.950 . S
C2475 C2474 1.327 . S
C2475 C2479 1.429 . S
C2476 C2459 1.574 . S
C2476 H2470 0.949 . S
C2476 C2480 1.368 . S
C2477 C2458 1.429 . S
C2477 C2471 1.429 . S
C2477 C2478 1.523 . S
C2478 C2459 1.368 . S
C2478 C2472 1.368 . S
C2478 C2477 1.523 . S
C2479 C2463 1.429 . S
C2479 C2475 1.429 . S
C2479 C2480 1.523 . S
C2480 C2464 1.368 . S
C2480 C2476 1.368 . S
C2480 C2479 1.523 . S
H2481 C2456 0.950 . S
H2482 C2458 0.950 . S
H2483 C2459 0.949 . S
H2484 C2461 0.950 . S
H2485 C2463 0.950 . S
C2486 C2487 1.349 . S
C2486 C2488 1.327 . S
C2486 H2511 0.950 . S
C2487 C2486 1.349 . S
C2487 C2503 1.349 . S
C2488 C2486 1.327 . S
C2488 C2507 1.429 . S
C2488 H2512 0.950 . S
C2489 C2506 1.574 . S
C2489 C2508 1.368 . S
C2489 H2513 0.949 . S
H2490 C2494 0.949 . S
C2491 C2492 1.349 . S
C2491 C2493 1.327 . S
C2491 H2514 0.950 . S
C2492 C2491 1.349 . S
C2492 C2504 1.349 . S
C2493 C2491 1.327 . S
C2493 C2509 1.429 . S
C2493 H2515 0.950 . S
C2494 H2490 0.949 . S
C2494 C2502 1.574 . S
C2494 C2510 1.368 . S
H2495 C2503 0.950 . S
H2496 C2501 0.950 . S
H2497 C2502 0.949 . S
H2498 C2504 0.950 . S
H2499 C2505 0.950 . S
H2500 C2506 0.949 . S
C2501 H2496 0.950 . S
C2501 C2503 1.327 . S
C2501 C2507 1.429 . S
C2502 C2494 1.574 . S
C2502 H2497 0.949 . S
C2502 C2508 1.368 . S
C2503 C2487 1.349 . S
C2503 H2495 0.950 . S
C2503 C2501 1.327 . S
C2504 C2492 1.349 . S
C2504 H2498 0.950 . S
C2504 C2505 1.327 . S
C2505 H2499 0.950 . S
C2505 C2504 1.327 . S
C2505 C2509 1.429 . S
C2506 C2489 1.574 . S
C2506 H2500 0.949 . S
C2506 C2510 1.368 . S
C2507 C2488 1.429 . S
C2507 C2501 1.429 . S
C2507 C2508 1.523 . S
C2508 C2489 1.368 . S
C2508 C2502 1.368 . S
C2508 C2507 1.523 . S
C2509 C2493 1.429 . S
C2509 C2505 1.429 . S
C2509 C2510 1.523 . S
C2510 C2494 1.368 . S
C2510 C2506 1.368 . S
C2510 C2509 1.523 . S
H2511 C2486 0.950 . S
H2512 C2488 0.950 . S
H2513 C2489 0.949 . S
H2514 C2491 0.950 . S
H2515 C2493 0.950 . S
C2516 C2517 1.349 . S
C2516 C2518 1.327 . S
C2516 H2541 0.950 . S
C2517 C2516 1.349 . S
C2517 C2533 1.349 . S
C2518 C2516 1.327 . S
C2518 C2537 1.429 . S
C2518 H2542 0.950 . S
C2519 C2536 1.574 . S
C2519 C2538 1.368 . S
C2519 H2543 0.949 . S
H2520 C2524 0.949 . S
C2521 C2522 1.349 . S
C2521 C2523 1.327 . S
C2521 H2544 0.950 . S
C2522 C2521 1.349 . S
C2522 C2534 1.349 . S
C2523 C2521 1.327 . S
C2523 C2539 1.429 . S
C2523 H2545 0.950 . S
C2524 H2520 0.949 . S
C2524 C2532 1.574 . S
C2524 C2540 1.368 . S
H2525 C2533 0.950 . S
H2526 C2531 0.950 . S
H2527 C2532 0.949 . S
H2528 C2534 0.950 . S
H2529 C2535 0.950 . S
H2530 C2536 0.949 . S
C2531 H2526 0.950 . S
C2531 C2533 1.327 . S
C2531 C2537 1.429 . S
C2532 C2524 1.574 . S
C2532 H2527 0.949 . S
C2532 C2538 1.368 . S
C2533 C2517 1.349 . S
C2533 H2525 0.950 . S
C2533 C2531 1.327 . S
C2534 C2522 1.349 . S
C2534 H2528 0.950 . S
C2534 C2535 1.327 . S
C2535 H2529 0.950 . S
C2535 C2534 1.327 . S
C2535 C2539 1.429 . S
C2536 C2519 1.574 . S
C2536 H2530 0.949 . S
C2536 C2540 1.368 . S
C2537 C2518 1.429 . S
C2537 C2531 1.429 . S
C2537 C2538 1.523 . S
C2538 C2519 1.368 . S
C2538 C2532 1.368 . S
C2538 C2537 1.523 . S
C2539 C2523 1.429 . S
C2539 C2535 1.429 . S
C2539 C2540 1.523 . S
C2540 C2524 1.368 . S
C2540 C2536 1.368 . S
C2540 C2539 1.523 . S
H2541 C2516 0.950 . S
H2542 C2518 0.950 . S
H2543 C2519 0.949 . S
H2544 C2521 0.950 . S
H2545 C2523 0.950 . S
C2546 C2547 1.349 . S
C2546 C2548 1.327 . S
C2546 H2571 0.950 . S
C2547 C2546 1.349 . S
C2547 C2563 1.349 . S
C2548 C2546 1.327 . S
C2548 C2567 1.429 . S
C2548 H2572 0.950 . S
C2549 C2566 1.574 . S
C2549 C2568 1.368 . S
C2549 H2573 0.949 . S
H2550 C2554 0.949 . S
C2551 C2552 1.349 . S
C2551 C2553 1.327 . S
C2551 H2574 0.950 . S
C2552 C2551 1.349 . S
C2552 C2564 1.349 . S
C2553 C2551 1.327 . S
C2553 C2569 1.429 . S
C2553 H2575 0.950 . S
C2554 H2550 0.949 . S
C2554 C2562 1.574 . S
C2554 C2570 1.368 . S
H2555 C2563 0.950 . S
H2556 C2561 0.950 . S
H2557 C2562 0.949 . S
H2558 C2564 0.950 . S
H2559 C2565 0.950 . S
H2560 C2566 0.949 . S
C2561 H2556 0.950 . S
C2561 C2563 1.327 . S
C2561 C2567 1.429 . S
C2562 C2554 1.574 . S
C2562 H2557 0.949 . S
C2562 C2568 1.368 . S
C2563 C2547 1.349 . S
C2563 H2555 0.950 . S
C2563 C2561 1.327 . S
C2564 C2552 1.349 . S
C2564 H2558 0.950 . S
C2564 C2565 1.327 . S
C2565 H2559 0.950 . S
C2565 C2564 1.327 . S
C2565 C2569 1.429 . S
C2566 C2549 1.574 . S
C2566 H2560 0.949 . S
C2566 C2570 1.368 . S
C2567 C2548 1.429 . S
C2567 C2561 1.429 . S
C2567 C2568 1.523 . S
C2568 C2549 1.368 . S
C2568 C2562 1.368 . S
C2568 C2567 1.523 . S
C2569 C2553 1.429 . S
C2569 C2565 1.429 . S
C2569 C2570 1.523 . S
C2570 C2554 1.368 . S
C2570 C2566 1.368 . S
C2570 C2569 1.523 . S
H2571 C2546 0.950 . S
H2572 C2548 0.950 . S
H2573 C2549 0.949 . S
H2574 C2551 0.950 . S
H2575 C2553 0.950 . S
C2576 C2577 1.349 . S
C2576 C2578 1.327 . S
C2576 H2601 0.950 . S
C2577 C2576 1.349 . S
C2577 C2593 1.349 . S
C2578 C2576 1.327 . S
C2578 C2597 1.429 . S
C2578 H2602 0.950 . S
C2579 C2596 1.574 . S
C2579 C2598 1.368 . S
C2579 H2603 0.949 . S
H2580 C2584 0.949 . S
C2581 C2582 1.349 . S
C2581 C2583 1.327 . S
C2581 H2604 0.950 . S
C2582 C2581 1.349 . S
C2582 C2594 1.349 . S
C2583 C2581 1.327 . S
C2583 C2599 1.429 . S
C2583 H2605 0.950 . S
C2584 H2580 0.949 . S
C2584 C2592 1.574 . S
C2584 C2600 1.368 . S
H2585 C2593 0.950 . S
H2586 C2591 0.950 . S
H2587 C2592 0.949 . S
H2588 C2594 0.950 . S
H2589 C2595 0.950 . S
H2590 C2596 0.949 . S
C2591 H2586 0.950 . S
C2591 C2593 1.327 . S
C2591 C2597 1.429 . S
C2592 C2584 1.574 . S
C2592 H2587 0.949 . S
C2592 C2598 1.368 . S
C2593 C2577 1.349 . S
C2593 H2585 0.950 . S
C2593 C2591 1.327 . S
C2594 C2582 1.349 . S
C2594 H2588 0.950 . S
C2594 C2595 1.327 . S
C2595 H2589 0.950 . S
C2595 C2594 1.327 . S
C2595 C2599 1.429 . S
C2596 C2579 1.574 . S
C2596 H2590 0.949 . S
C2596 C2600 1.368 . S
C2597 C2578 1.429 . S
C2597 C2591 1.429 . S
C2597 C2598 1.523 . S
C2598 C2579 1.368 . S
C2598 C2592 1.368 . S
C2598 C2597 1.523 . S
C2599 C2583 1.429 . S
C2599 C2595 1.429 . S
C2599 C2600 1.523 . S
C2600 C2584 1.368 . S
C2600 C2596 1.368 . S
C2600 C2599 1.523 . S
H2601 C2576 0.950 . S
H2602 C2578 0.950 . S
H2603 C2579 0.949 . S
H2604 C2581 0.950 . S
H2605 C2583 0.950 . S
C2606 C2607 1.349 . S
C2606 C2608 1.327 . S
C2606 H2631 0.950 . S
C2607 C2606 1.349 . S
C2607 C2623 1.349 . S
C2608 C2606 1.327 . S
C2608 C2627 1.429 . S
C2608 H2632 0.950 . S
C2609 C2626 1.574 . S
C2609 C2628 1.368 . S
C2609 H2633 0.949 . S
H2610 C2614 0.949 . S
C2611 C2612 1.349 . S
C2611 C2613 1.327 . S
C2611 H2634 0.950 . S
C2612 C2611 1.349 . S
C2612 C2624 1.349 . S
C2613 C2611 1.327 . S
C2613 C2629 1.429 . S
C2613 H2635 0.950 . S
C2614 H2610 0.949 . S
C2614 C2622 1.574 . S
C2614 C2630 1.368 . S
H2615 C2623 0.950 . S
H2616 C2621 0.950 . S
H2617 C2622 0.949 . S
H2618 C2624 0.950 . S
H2619 C2625 0.950 . S
H2620 C2626 0.949 . S
C2621 H2616 0.950 . S
C2621 C2623 1.327 . S
C2621 C2627 1.429 . S
C2622 C2614 1.574 . S
C2622 H2617 0.949 . S
C2622 C2628 1.368 . S
C2623 C2607 1.349 . S
C2623 H2615 0.950 . S
C2623 C2621 1.327 . S
C2624 C2612 1.349 . S
C2624 H2618 0.950 . S
C2624 C2625 1.327 . S
C2625 H2619 0.950 . S
C2625 C2624 1.327 . S
C2625 C2629 1.429 . S
C2626 C2609 1.574 . S
C2626 H2620 0.949 . S
C2626 C2630 1.368 . S
C2627 C2608 1.429 . S
C2627 C2621 1.429 . S
C2627 C2628 1.523 . S
C2628 C2609 1.368 . S
C2628 C2622 1.368 . S
C2628 C2627 1.523 . S
C2629 C2613 1.429 . S
C2629 C2625 1.429 . S
C2629 C2630 1.523 . S
C2630 C2614 1.368 . S
C2630 C2626 1.368 . S
C2630 C2629 1.523 . S
H2631 C2606 0.950 . S
H2632 C2608 0.950 . S
H2633 C2609 0.949 . S
H2634 C2611 0.950 . S
H2635 C2613 0.950 . S
C2636 C2637 1.349 . S
C2636 C2638 1.327 . S
C2636 H2661 0.950 . S
C2637 C2636 1.349 . S
C2637 C2653 1.349 . S
C2638 C2636 1.327 . S
C2638 C2657 1.429 . S
C2638 H2662 0.950 . S
C2639 C2656 1.574 . S
C2639 C2658 1.368 . S
C2639 H2663 0.949 . S
H2640 C2644 0.949 . S
C2641 C2642 1.349 . S
C2641 C2643 1.327 . S
C2641 H2664 0.950 . S
C2642 C2641 1.349 . S
C2642 C2654 1.349 . S
C2643 C2641 1.327 . S
C2643 C2659 1.429 . S
C2643 H2665 0.950 . S
C2644 H2640 0.949 . S
C2644 C2652 1.574 . S
C2644 C2660 1.368 . S
H2645 C2653 0.950 . S
H2646 C2651 0.950 . S
H2647 C2652 0.949 . S
H2648 C2654 0.950 . S
H2649 C2655 0.950 . S
H2650 C2656 0.949 . S
C2651 H2646 0.950 . S
C2651 C2653 1.327 . S
C2651 C2657 1.429 . S
C2652 C2644 1.574 . S
C2652 H2647 0.949 . S
C2652 C2658 1.368 . S
C2653 C2637 1.349 . S
C2653 H2645 0.950 . S
C2653 C2651 1.327 . S
C2654 C2642 1.349 . S
C2654 H2648 0.950 . S
C2654 C2655 1.327 . S
C2655 H2649 0.950 . S
C2655 C2654 1.327 . S
C2655 C2659 1.429 . S
C2656 C2639 1.574 . S
C2656 H2650 0.949 . S
C2656 C2660 1.368 . S
C2657 C2638 1.429 . S
C2657 C2651 1.429 . S
C2657 C2658 1.523 . S
C2658 C2639 1.368 . S
C2658 C2652 1.368 . S
C2658 C2657 1.523 . S
C2659 C2643 1.429 . S
C2659 C2655 1.429 . S
C2659 C2660 1.523 . S
C2660 C2644 1.368 . S
C2660 C2656 1.368 . S
C2660 C2659 1.523 . S
H2661 C2636 0.950 . S
H2662 C2638 0.950 . S
H2663 C2639 0.949 . S
H2664 C2641 0.950 . S
H2665 C2643 0.950 . S
C2666 C2667 1.310 1_556 S
C2666 C2668 1.331 . S
C2666 H2691 0.985 . S
C2667 C2666 1.310 1_554 S
C2667 C2683 1.349 . S
C2668 C2666 1.331 . S
C2668 C2687 1.418 1_556 S
C2668 H2692 0.963 . S
C2669 C2686 1.574 . S
C2669 C2688 1.368 . S
C2669 H2693 0.949 . S
H2670 C2674 0.949 1_556 S
C2671 C2672 1.349 . S
C2671 C2673 1.327 . S
C2671 H2694 0.950 . S
C2672 C2671 1.349 . S
C2672 C2684 1.349 . S
C2673 C2671 1.327 . S
C2673 C2689 1.429 . S
C2673 H2695 0.950 . S
C2674 H2670 0.949 1_554 S
C2674 C2682 1.571 . S
C2674 C2690 1.368 . S
H2675 C2683 0.950 . S
H2676 C2681 0.950 . S
H2677 C2682 0.922 1_556 S
H2678 C2684 0.950 1_556 S
H2679 C2685 0.950 1_556 S
H2680 C2686 0.949 . S
C2681 H2676 0.950 . S
C2681 C2683 1.327 . S
C2681 C2687 1.429 . S
C2682 C2674 1.571 . S
C2682 H2677 0.922 1_554 S
C2682 C2688 1.403 . S
C2683 C2667 1.349 . S
C2683 H2675 0.950 . S
C2683 C2681 1.327 . S
C2684 C2672 1.349 . S
C2684 H2678 0.950 1_554 S
C2684 C2685 1.327 . S
C2685 H2679 0.950 1_554 S
C2685 C2684 1.327 . S
C2685 C2689 1.429 . S
C2686 C2669 1.574 . S
C2686 H2680 0.949 . S
C2686 C2690 1.368 . S
C2687 C2668 1.418 1_554 S
C2687 C2681 1.429 . S
C2687 C2688 1.523 . S
C2688 C2669 1.368 . S
C2688 C2682 1.403 . S
C2688 C2687 1.523 . S
C2689 C2673 1.429 . S
C2689 C2685 1.429 . S
C2689 C2690 1.523 . S
C2690 C2674 1.368 . S
C2690 C2686 1.368 . S
C2690 C2689 1.523 . S
H2691 C2666 0.985 . S
H2692 C2668 0.963 . S
H2693 C2669 0.949 . S
H2694 C2671 0.950 . S
H2695 C2673 0.950 . S
C2696 C2697 1.349 . S
C2696 C2698 1.327 . S
C2696 H2721 0.950 . S
C2697 C2696 1.349 . S
C2697 C2713 1.349 . S
C2698 C2696 1.327 . S
C2698 C2717 1.429 . S
C2698 H2722 0.950 . S
C2699 C2716 1.574 . S
C2699 C2718 1.368 . S
C2699 H2723 0.949 . S
H2700 C2704 0.949 . S
C2701 C2702 1.349 . S
C2701 C2703 1.327 . S
C2701 H2724 0.950 . S
C2702 C2701 1.349 . S
C2702 C2714 1.349 . S
C2703 C2701 1.327 . S
C2703 C2719 1.429 . S
C2703 H2725 0.950 . S
C2704 H2700 0.949 . S
C2704 C2712 1.574 . S
C2704 C2720 1.368 . S
H2705 C2713 0.950 . S
H2706 C2711 0.950 . S
H2707 C2712 0.949 . S
H2708 C2714 0.950 . S
H2709 C2715 0.950 . S
H2710 C2716 0.949 . S
C2711 H2706 0.950 . S
C2711 C2713 1.327 . S
C2711 C2717 1.429 . S
C2712 C2704 1.574 . S
C2712 H2707 0.949 . S
C2712 C2718 1.368 . S
C2713 C2697 1.349 . S
C2713 H2705 0.950 . S
C2713 C2711 1.327 . S
C2714 C2702 1.349 . S
C2714 H2708 0.950 . S
C2714 C2715 1.327 . S
C2715 H2709 0.950 . S
C2715 C2714 1.327 . S
C2715 C2719 1.429 . S
C2716 C2699 1.574 . S
C2716 H2710 0.949 . S
C2716 C2720 1.368 . S
C2717 C2698 1.429 . S
C2717 C2711 1.429 . S
C2717 C2718 1.523 . S
C2718 C2699 1.368 . S
C2718 C2712 1.368 . S
C2718 C2717 1.523 . S
C2719 C2703 1.429 . S
C2719 C2715 1.429 . S
C2719 C2720 1.523 . S
C2720 C2704 1.368 . S
C2720 C2716 1.368 . S
C2720 C2719 1.523 . S
H2721 C2696 0.950 . S
H2722 C2698 0.950 . S
H2723 C2699 0.949 . S
H2724 C2701 0.950 . S
H2725 C2703 0.950 . S
C2726 C2727 1.349 . S
C2726 C2728 1.327 . S
C2726 H2751 0.950 . S
C2727 C2726 1.349 . S
C2727 C2743 1.317 1_554 S
C2728 C2726 1.327 . S
C2728 C2747 1.429 . S
C2728 H2752 0.950 . S
C2729 C2746 1.574 . S
C2729 C2748 1.368 . S
C2729 H2753 0.949 1_554 S
H2730 C2734 0.949 . S
C2731 C2732 1.349 . S
C2731 C2733 1.327 . S
C2731 H2754 0.950 . S
C2732 C2731 1.349 . S
C2732 C2744 1.349 . S
C2733 C2731 1.327 . S
C2733 C2749 1.429 . S
C2733 H2755 0.950 . S
C2734 H2730 0.949 . S
C2734 C2742 1.574 . S
C2734 C2750 1.368 . S
H2735 C2743 0.990 . S
H2736 C2741 0.950 1_556 S
H2737 C2742 0.949 . S
H2738 C2744 0.950 . S
H2739 C2745 0.950 . S
H2740 C2746 0.949 . S
C2741 H2736 0.950 1_554 S
C2741 C2743 1.321 1_554 S
C2741 C2747 1.429 . S
C2742 C2734 1.574 . S
C2742 H2737 0.949 . S
C2742 C2748 1.368 . S
C2743 C2727 1.317 1_556 S
C2743 H2735 0.990 . S
C2743 C2741 1.321 1_556 S
C2744 C2732 1.349 . S
C2744 H2738 0.950 . S
C2744 C2745 1.327 . S
C2745 H2739 0.950 . S
C2745 C2744 1.327 . S
C2745 C2749 1.429 . S
C2746 C2729 1.574 . S
C2746 H2740 0.949 . S
C2746 C2750 1.368 . S
C2747 C2728 1.429 . S
C2747 C2741 1.429 . S
C2747 C2748 1.523 . S
C2748 C2729 1.368 . S
C2748 C2742 1.368 . S
C2748 C2747 1.523 . S
C2749 C2733 1.429 . S
C2749 C2745 1.429 . S
C2749 C2750 1.523 . S
C2750 C2734 1.368 . S
C2750 C2746 1.368 . S
C2750 C2749 1.523 . S
H2751 C2726 0.950 . S
H2752 C2728 0.950 . S
H2753 C2729 0.949 1_556 S
H2754 C2731 0.950 . S
H2755 C2733 0.950 . S
C2756 C2757 1.349 . S
C2756 C2758 1.327 . S
C2756 H2781 0.950 . S
C2757 C2756 1.349 . S
C2757 C2773 1.349 . S
C2758 C2756 1.327 . S
C2758 C2777 1.429 . S
C2758 H2782 0.950 . S
C2759 C2776 1.574 . S
C2759 C2778 1.368 . S
C2759 H2783 0.949 . S
H2760 C2764 0.949 . S
C2761 C2762 1.349 . S
C2761 C2763 1.327 . S
C2761 H2784 0.950 . S
C2762 C2761 1.349 . S
C2762 C2774 1.349 . S
C2763 C2761 1.327 . S
C2763 C2779 1.429 . S
C2763 H2785 0.950 . S
C2764 H2760 0.949 . S
C2764 C2772 1.574 . S
C2764 C2780 1.368 . S
H2765 C2773 0.950 . S
H2766 C2771 0.950 . S
H2767 C2772 0.949 . S
H2768 C2774 0.950 . S
H2769 C2775 0.950 . S
H2770 C2776 0.949 . S
C2771 H2766 0.950 . S
C2771 C2773 1.327 . S
C2771 C2777 1.429 . S
C2772 C2764 1.574 . S
C2772 H2767 0.949 . S
C2772 C2778 1.368 . S
C2773 C2757 1.349 . S
C2773 H2765 0.950 . S
C2773 C2771 1.327 . S
C2774 C2762 1.349 . S
C2774 H2768 0.950 . S
C2774 C2775 1.327 . S
C2775 H2769 0.950 . S
C2775 C2774 1.327 . S
C2775 C2779 1.429 . S
C2776 C2759 1.574 . S
C2776 H2770 0.949 . S
C2776 C2780 1.368 . S
C2777 C2758 1.429 . S
C2777 C2771 1.429 . S
C2777 C2778 1.523 . S
C2778 C2759 1.368 . S
C2778 C2772 1.368 . S
C2778 C2777 1.523 . S
C2779 C2763 1.429 . S
C2779 C2775 1.429 . S
C2779 C2780 1.523 . S
C2780 C2764 1.368 . S
C2780 C2776 1.368 . S
C2780 C2779 1.523 . S
H2781 C2756 0.950 . S
H2782 C2758 0.950 . S
H2783 C2759 0.949 . S
H2784 C2761 0.950 . S
H2785 C2763 0.950 . S
C2786 C2787 1.349 . S
C2786 C2788 1.327 . S
C2786 H2811 0.950 . S
C2787 C2786 1.349 . S
C2787 C2803 1.349 . S
C2788 C2786 1.327 . S
C2788 C2807 1.429 . S
C2788 H2812 0.950 . S
C2789 C2806 1.574 . S
C2789 C2808 1.368 . S
C2789 H2813 0.949 . S
H2790 C2794 0.949 . S
C2791 C2792 1.349 . S
C2791 C2793 1.327 . S
C2791 H2814 0.950 . S
C2792 C2791 1.349 . S
C2792 C2804 1.349 . S
C2793 C2791 1.327 . S
C2793 C2809 1.429 . S
C2793 H2815 0.950 . S
C2794 H2790 0.949 . S
C2794 C2802 1.574 . S
C2794 C2810 1.368 . S
H2795 C2803 0.950 . S
H2796 C2801 0.950 . S
H2797 C2802 0.949 . S
H2798 C2804 0.950 . S
H2799 C2805 0.950 . S
H2800 C2806 0.949 . S
C2801 H2796 0.950 . S
C2801 C2803 1.327 . S
C2801 C2807 1.429 . S
C2802 C2794 1.574 . S
C2802 H2797 0.949 . S
C2802 C2808 1.368 . S
C2803 C2787 1.349 . S
C2803 H2795 0.950 . S
C2803 C2801 1.327 . S
C2804 C2792 1.349 . S
C2804 H2798 0.950 . S
C2804 C2805 1.327 . S
C2805 H2799 0.950 . S
C2805 C2804 1.327 . S
C2805 C2809 1.429 . S
C2806 C2789 1.574 . S
C2806 H2800 0.949 . S
C2806 C2810 1.368 . S
C2807 C2788 1.429 . S
C2807 C2801 1.429 . S
C2807 C2808 1.523 . S
C2808 C2789 1.368 . S
C2808 C2802 1.368 . S
C2808 C2807 1.523 . S
C2809 C2793 1.429 . S
C2809 C2805 1.429 . S
C2809 C2810 1.523 . S
C2810 C2794 1.368 . S
C2810 C2806 1.368 . S
C2810 C2809 1.523 . S
H2811 C2786 0.950 . S
H2812 C2788 0.950 . S
H2813 C2789 0.949 . S
H2814 C2791 0.950 . S
H2815 C2793 0.950 . S
C2816 C2817 1.349 . S
C2816 C2818 1.327 . S
C2816 H2841 0.950 . S
C2817 C2816 1.349 . S
C2817 C2833 1.349 . S
C2818 C2816 1.327 . S
C2818 C2837 1.429 . S
C2818 H2842 0.950 . S
C2819 C2836 1.574 . S
C2819 C2838 1.368 . S
C2819 H2843 0.949 . S
H2820 C2824 0.949 . S
C2821 C2822 1.349 . S
C2821 C2823 1.327 . S
C2821 H2844 0.950 . S
C2822 C2821 1.349 . S
C2822 C2834 1.349 . S
C2823 C2821 1.327 . S
C2823 C2839 1.429 . S
C2823 H2845 0.950 . S
C2824 H2820 0.949 . S
C2824 C2832 1.574 . S
C2824 C2840 1.368 . S
H2825 C2833 0.950 . S
H2826 C2831 0.950 . S
H2827 C2832 0.949 . S
H2828 C2834 0.950 . S
H2829 C2835 0.950 . S
H2830 C2836 0.949 . S
C2831 H2826 0.950 . S
C2831 C2833 1.327 . S
C2831 C2837 1.429 . S
C2832 C2824 1.574 . S
C2832 H2827 0.949 . S
C2832 C2838 1.368 . S
C2833 C2817 1.349 . S
C2833 H2825 0.950 . S
C2833 C2831 1.327 . S
C2834 C2822 1.349 . S
C2834 H2828 0.950 . S
C2834 C2835 1.327 . S
C2835 H2829 0.950 . S
C2835 C2834 1.327 . S
C2835 C2839 1.429 . S
C2836 C2819 1.574 . S
C2836 H2830 0.949 . S
C2836 C2840 1.368 . S
C2837 C2818 1.429 . S
C2837 C2831 1.429 . S
C2837 C2838 1.523 . S
C2838 C2819 1.368 . S
C2838 C2832 1.368 . S
C2838 C2837 1.523 . S
C2839 C2823 1.429 . S
C2839 C2835 1.429 . S
C2839 C2840 1.523 . S
C2840 C2824 1.368 . S
C2840 C2836 1.368 . S
C2840 C2839 1.523 . S
H2841 C2816 0.950 . S
H2842 C2818 0.950 . S
H2843 C2819 0.949 . S
H2844 C2821 0.950 . S
H2845 C2823 0.950 . S
C2846 C2847 1.349 . S
C2846 C2848 1.327 . S
C2846 H2871 0.950 . S
C2847 C2846 1.349 . S
C2847 C2863 1.349 . S
C2848 C2846 1.327 . S
C2848 C2867 1.429 . S
C2848 H2872 0.950 . S
C2849 C2866 1.574 . S
C2849 C2868 1.368 . S
C2849 H2873 0.949 . S
H2850 C2854 0.949 . S
C2851 C2852 1.349 . S
C2851 C2853 1.327 . S
C2851 H2874 0.950 . S
C2852 C2851 1.349 . S
C2852 C2864 1.349 . S
C2853 C2851 1.327 . S
C2853 C2869 1.429 . S
C2853 H2875 0.950 . S
C2854 H2850 0.949 . S
C2854 C2862 1.574 . S
C2854 C2870 1.368 . S
H2855 C2863 0.950 . S
H2856 C2861 0.950 . S
H2857 C2862 0.949 . S
H2858 C2864 0.950 . S
H2859 C2865 0.950 . S
H2860 C2866 0.949 . S
C2861 H2856 0.950 . S
C2861 C2863 1.327 . S
C2861 C2867 1.429 . S
C2862 C2854 1.574 . S
C2862 H2857 0.949 . S
C2862 C2868 1.368 . S
C2863 C2847 1.349 . S
C2863 H2855 0.950 . S
C2863 C2861 1.327 . S
C2864 C2852 1.349 . S
C2864 H2858 0.950 . S
C2864 C2865 1.327 . S
C2865 H2859 0.950 . S
C2865 C2864 1.327 . S
C2865 C2869 1.429 . S
C2866 C2849 1.574 . S
C2866 H2860 0.949 . S
C2866 C2870 1.368 . S
C2867 C2848 1.429 . S
C2867 C2861 1.429 . S
C2867 C2868 1.523 . S
C2868 C2849 1.368 . S
C2868 C2862 1.368 . S
C2868 C2867 1.523 . S
C2869 C2853 1.429 . S
C2869 C2865 1.429 . S
C2869 C2870 1.523 . S
C2870 C2854 1.368 . S
C2870 C2866 1.368 . S
C2870 C2869 1.523 . S
H2871 C2846 0.950 . S
H2872 C2848 0.950 . S
H2873 C2849 0.949 . S
H2874 C2851 0.950 . S
H2875 C2853 0.950 . S
C2876 C2877 1.349 . S
C2876 C2878 1.327 . S
C2876 H2901 0.950 1_455 S
C2877 C2876 1.349 . S
C2877 C2893 1.349 . S
C2878 C2876 1.327 . S
C2878 C2897 1.429 . S
C2878 H2902 0.950 1_455 S
C2879 C2896 1.574 . S
C2879 C2898 1.368 . S
C2879 H2903 0.949 . S
H2880 C2884 0.949 1_655 S
C2881 C2882 1.349 . S
C2881 C2883 1.327 . S
C2881 H2904 0.950 . S
C2882 C2881 1.349 . S
C2882 C2894 1.349 . S
C2883 C2881 1.327 . S
C2883 C2899 1.429 . S
C2883 H2905 0.950 . S
C2884 H2880 0.949 1_455 S
C2884 C2892 1.574 . S
C2884 C2900 1.368 . S
H2885 C2893 0.950 . S
H2886 C2891 0.950 . S
H2887 C2892 0.949 1_655 S
H2888 C2894 0.950 1_655 S
H2889 C2895 0.950 1_655 S
H2890 C2896 0.949 . S
C2891 H2886 0.950 . S
C2891 C2893 1.327 . S
C2891 C2897 1.429 . S
C2892 C2884 1.574 . S
C2892 H2887 0.949 1_455 S
C2892 C2898 1.368 . S
C2893 C2877 1.349 . S
C2893 H2885 0.950 . S
C2893 C2891 1.327 . S
C2894 C2882 1.349 . S
C2894 H2888 0.950 1_455 S
C2894 C2895 1.327 . S
C2895 H2889 0.950 1_455 S
C2895 C2894 1.327 . S
C2895 C2899 1.429 . S
C2896 C2879 1.574 . S
C2896 H2890 0.949 . S
C2896 C2900 1.368 . S
C2897 C2878 1.429 . S
C2897 C2891 1.429 . S
C2897 C2898 1.523 . S
C2898 C2879 1.368 . S
C2898 C2892 1.368 . S
C2898 C2897 1.523 . S
C2899 C2883 1.429 . S
C2899 C2895 1.429 . S
C2899 C2900 1.523 . S
C2900 C2884 1.368 . S
C2900 C2896 1.368 . S
C2900 C2899 1.523 . S
H2901 C2876 0.950 1_655 S
H2902 C2878 0.950 1_655 S
H2903 C2879 0.949 . S
H2904 C2881 0.950 . S
H2905 C2883 0.950 . S
C2906 C2907 1.349 . S
C2906 C2908 1.327 . S
C2906 H2931 0.950 . S
C2907 C2906 1.349 . S
C2907 C2923 1.349 . S
C2908 C2906 1.327 . S
C2908 C2927 1.429 . S
C2908 H2932 0.950 . S
C2909 C2926 1.574 . S
C2909 C2928 1.368 . S
C2909 H2933 0.949 . S
H2910 C2914 0.949 . S
C2911 C2912 1.349 . S
C2911 C2913 1.327 . S
C2911 H2934 0.950 . S
C2912 C2911 1.349 . S
C2912 C2924 1.349 . S
C2913 C2911 1.327 . S
C2913 C2929 1.429 . S
C2913 H2935 0.950 . S
C2914 H2910 0.949 . S
C2914 C2922 1.574 . S
C2914 C2930 1.368 . S
H2915 C2923 0.950 . S
H2916 C2921 0.950 . S
H2917 C2922 0.949 . S
H2918 C2924 0.950 . S
H2919 C2925 0.950 . S
H2920 C2926 0.949 . S
C2921 H2916 0.950 . S
C2921 C2923 1.327 . S
C2921 C2927 1.429 . S
C2922 C2914 1.574 . S
C2922 H2917 0.949 . S
C2922 C2928 1.368 . S
C2923 C2907 1.349 . S
C2923 H2915 0.950 . S
C2923 C2921 1.327 . S
C2924 C2912 1.349 . S
C2924 H2918 0.950 . S
C2924 C2925 1.327 . S
C2925 H2919 0.950 . S
C2925 C2924 1.327 . S
C2925 C2929 1.429 . S
C2926 C2909 1.574 . S
C2926 H2920 0.949 . S
C2926 C2930 1.368 . S
C2927 C2908 1.429 . S
C2927 C2921 1.429 . S
C2927 C2928 1.523 . S
C2928 C2909 1.368 . S
C2928 C2922 1.368 . S
C2928 C2927 1.523 . S
C2929 C2913 1.429 . S
C2929 C2925 1.429 . S
C2929 C2930 1.523 . S
C2930 C2914 1.368 . S
C2930 C2926 1.368 . S
C2930 C2929 1.523 . S
H2931 C2906 0.950 . S
H2932 C2908 0.950 . S
H2933 C2909 0.949 . S
H2934 C2911 0.950 . S
H2935 C2913 0.950 . S
C2936 C2937 1.349 . S
C2936 C2938 1.327 . S
C2936 H2961 0.950 . S
C2937 C2936 1.349 . S
C2937 C2953 1.349 . S
C2938 C2936 1.327 . S
C2938 C2957 1.429 . S
C2938 H2962 0.950 . S
C2939 C2956 1.574 . S
C2939 C2958 1.368 . S
C2939 H2963 0.949 . S
H2940 C2944 0.949 . S
C2941 C2942 1.349 . S
C2941 C2943 1.327 . S
C2941 H2964 0.950 1_556 S
C2942 C2941 1.349 . S
C2942 C2954 1.349 . S
C2943 C2941 1.327 . S
C2943 C2959 1.429 . S
C2943 H2965 0.950 . S
C2944 H2940 0.949 . S
C2944 C2952 1.574 . S
C2944 C2960 1.368 . S
H2945 C2953 0.950 . S
H2946 C2951 0.950 . S
H2947 C2952 0.949 . S
H2948 C2954 0.950 . S
H2949 C2955 0.950 . S
H2950 C2956 0.949 . S
C2951 H2946 0.950 . S
C2951 C2953 1.327 . S
C2951 C2957 1.429 . S
C2952 C2944 1.574 . S
C2952 H2947 0.949 . S
C2952 C2958 1.368 . S
C2953 C2937 1.349 . S
C2953 H2945 0.950 . S
C2953 C2951 1.327 . S
C2954 C2942 1.349 . S
C2954 H2948 0.950 . S
C2954 C2955 1.327 . S
C2955 H2949 0.950 . S
C2955 C2954 1.327 . S
C2955 C2959 1.429 . S
C2956 C2939 1.574 . S
C2956 H2950 0.949 . S
C2956 C2960 1.368 . S
C2957 C2938 1.429 . S
C2957 C2951 1.429 . S
C2957 C2958 1.523 . S
C2958 C2939 1.368 . S
C2958 C2952 1.368 . S
C2958 C2957 1.523 . S
C2959 C2943 1.429 . S
C2959 C2955 1.429 . S
C2959 C2960 1.523 . S
C2960 C2944 1.368 . S
C2960 C2956 1.368 . S
C2960 C2959 1.523 . S
H2961 C2936 0.950 . S
H2962 C2938 0.950 . S
H2963 C2939 0.949 . S
H2964 C2941 0.950 1_554 S
H2965 C2943 0.950 . S
C2966 C2967 1.349 . S
C2966 C2968 1.327 . S
C2966 H2991 0.950 . S
C2967 C2966 1.349 . S
C2967 C2983 1.349 . S
C2968 C2966 1.327 . S
C2968 C2987 1.429 . S
C2968 H2992 0.950 . S
C2969 C2986 1.574 . S
C2969 C2988 1.368 . S
C2969 H2993 0.949 . S
H2970 C2974 0.949 . S
C2971 C2972 1.349 . S
C2971 C2973 1.327 . S
C2971 H2994 0.950 . S
C2972 C2971 1.349 . S
C2972 C2984 1.349 . S
C2973 C2971 1.327 . S
C2973 C2989 1.429 . S
C2973 H2995 0.950 . S
C2974 H2970 0.949 . S
C2974 C2982 1.574 . S
C2974 C2990 1.368 . S
H2975 C2983 0.950 . S
H2976 C2981 0.950 . S
H2977 C2982 0.949 . S
H2978 C2984 0.950 . S
H2979 C2985 0.950 . S
H2980 C2986 0.949 . S
C2981 H2976 0.950 . S
C2981 C2983 1.327 . S
C2981 C2987 1.429 . S
C2982 C2974 1.574 . S
C2982 H2977 0.949 . S
C2982 C2988 1.368 . S
C2983 C2967 1.349 . S
C2983 H2975 0.950 . S
C2983 C2981 1.327 . S
C2984 C2972 1.349 . S
C2984 H2978 0.950 . S
C2984 C2985 1.327 . S
C2985 H2979 0.950 . S
C2985 C2984 1.327 . S
C2985 C2989 1.429 . S
C2986 C2969 1.574 . S
C2986 H2980 0.949 . S
C2986 C2990 1.368 . S
C2987 C2968 1.429 . S
C2987 C2981 1.429 . S
C2987 C2988 1.523 . S
C2988 C2969 1.368 . S
C2988 C2982 1.368 . S
C2988 C2987 1.523 . S
C2989 C2973 1.429 . S
C2989 C2985 1.429 . S
C2989 C2990 1.523 . S
C2990 C2974 1.368 . S
C2990 C2986 1.368 . S
C2990 C2989 1.523 . S
H2991 C2966 0.950 . S
H2992 C2968 0.950 . S
H2993 C2969 0.949 . S
H2994 C2971 0.950 . S
H2995 C2973 0.950 . S
C2996 C2997 1.349 . S
C2996 C2998 1.327 . S
C2996 H3021 0.950 . S
C2997 C2996 1.349 . S
C2997 C3013 1.349 . S
C2998 C2996 1.327 . S
C2998 C3017 1.429 . S
C2998 H3022 0.950 . S
C2999 C3016 1.574 . S
C2999 C3018 1.368 . S
C2999 H3023 0.949 . S
H3000 C3004 0.949 . S
C3001 C3002 1.349 . S
C3001 C3003 1.327 . S
C3001 H3024 0.920 1_455 S
C3002 C3001 1.349 . S
C3002 C3014 1.349 . S
C3003 C3001 1.327 . S
C3003 C3019 1.429 . S
C3003 H3025 0.949 1_455 S
C3004 H3000 0.949 . S
C3004 C3012 1.574 . S
C3004 C3020 1.368 . S
H3005 C3013 0.950 . S
H3006 C3011 0.950 . S
H3007 C3012 0.949 . S
H3008 C3014 0.950 . S
H3009 C3015 0.950 . S
H3010 C3016 0.973 . S
C3011 H3006 0.950 . S
C3011 C3013 1.327 . S
C3011 C3017 1.429 . S
C3012 C3004 1.574 . S
C3012 H3007 0.949 . S
C3012 C3018 1.368 . S
C3013 C2997 1.349 . S
C3013 H3005 0.950 . S
C3013 C3011 1.327 . S
C3014 C3002 1.349 . S
C3014 H3008 0.950 . S
C3014 C3015 1.327 . S
C3015 H3009 0.950 . S
C3015 C3014 1.327 . S
C3015 C3019 1.429 . S
C3016 C2999 1.574 . S
C3016 H3010 0.973 . S
C3016 C3020 1.368 . S
C3017 C2998 1.429 . S
C3017 C3011 1.429 . S
C3017 C3018 1.523 . S
C3018 C2999 1.368 . S
C3018 C3012 1.368 . S
C3018 C3017 1.523 . S
C3019 C3003 1.429 . S
C3019 C3015 1.429 . S
C3019 C3020 1.523 . S
C3020 C3004 1.368 . S
C3020 C3016 1.368 . S
C3020 C3019 1.523 . S
H3021 C2996 0.950 . S
H3022 C2998 0.950 . S
H3023 C2999 0.949 . S
H3024 C3001 0.920 1_655 S
H3025 C3003 0.949 1_655 S
C3026 C3027 1.349 . S
C3026 C3028 1.327 . S
C3026 H3051 0.950 . S
C3027 C3026 1.349 . S
C3027 C3043 1.349 . S
C3028 C3026 1.327 . S
C3028 C3047 1.429 . S
C3028 H3052 0.950 . S
C3029 C3046 1.574 . S
C3029 C3048 1.368 . S
C3029 H3053 0.949 . S
H3030 C3034 0.949 . S
C3031 C3032 1.349 . S
C3031 C3033 1.327 . S
C3031 H3054 0.950 . S
C3032 C3031 1.349 . S
C3032 C3044 1.349 . S
C3033 C3031 1.327 . S
C3033 C3049 1.429 . S
C3033 H3055 0.950 . S
C3034 H3030 0.949 . S
C3034 C3042 1.574 . S
C3034 C3050 1.368 . S
H3035 C3043 0.950 . S
H3036 C3041 0.950 . S
H3037 C3042 0.949 . S
H3038 C3044 0.950 . S
H3039 C3045 0.950 . S
H3040 C3046 0.949 . S
C3041 H3036 0.950 . S
C3041 C3043 1.327 . S
C3041 C3047 1.429 . S
C3042 C3034 1.574 . S
C3042 H3037 0.949 . S
C3042 C3048 1.368 . S
C3043 C3027 1.349 . S
C3043 H3035 0.950 . S
C3043 C3041 1.327 . S
C3044 C3032 1.349 . S
C3044 H3038 0.950 . S
C3044 C3045 1.327 . S
C3045 H3039 0.950 . S
C3045 C3044 1.327 . S
C3045 C3049 1.429 . S
C3046 C3029 1.574 . S
C3046 H3040 0.949 . S
C3046 C3050 1.368 . S
C3047 C3028 1.429 . S
C3047 C3041 1.429 . S
C3047 C3048 1.523 . S
C3048 C3029 1.368 . S
C3048 C3042 1.368 . S
C3048 C3047 1.523 . S
C3049 C3033 1.429 . S
C3049 C3045 1.429 . S
C3049 C3050 1.523 . S
C3050 C3034 1.368 . S
C3050 C3046 1.368 . S
C3050 C3049 1.523 . S
H3051 C3026 0.950 . S
H3052 C3028 0.950 . S
H3053 C3029 0.949 . S
H3054 C3031 0.950 . S
H3055 C3033 0.950 . S
C3056 C3057 1.349 . S
C3056 C3058 1.327 . S
C3056 H3081 0.950 . S
C3057 C3056 1.349 . S
C3057 C3073 1.349 . S
C3058 C3056 1.327 . S
C3058 C3077 1.429 . S
C3058 H3082 0.950 . S
C3059 C3076 1.574 . S
C3059 C3078 1.368 . S
C3059 H3083 0.949 . S
H3060 C3064 0.949 . S
C3061 C3062 1.349 . S
C3061 C3063 1.327 . S
C3061 H3084 0.950 . S
C3062 C3061 1.349 . S
C3062 C3074 1.349 . S
C3063 C3061 1.327 . S
C3063 C3079 1.429 . S
C3063 H3085 0.950 . S
C3064 H3060 0.949 . S
C3064 C3072 1.574 . S
C3064 C3080 1.368 . S
H3065 C3073 0.950 . S
H3066 C3071 0.950 . S
H3067 C3072 0.949 . S
H3068 C3074 0.950 . S
H3069 C3075 0.950 . S
H3070 C3076 0.949 . S
C3071 H3066 0.950 . S
C3071 C3073 1.327 . S
C3071 C3077 1.429 . S
C3072 C3064 1.574 . S
C3072 H3067 0.949 . S
C3072 C3078 1.368 . S
C3073 C3057 1.349 . S
C3073 H3065 0.950 . S
C3073 C3071 1.327 . S
C3074 C3062 1.349 . S
C3074 H3068 0.950 . S
C3074 C3075 1.327 . S
C3075 H3069 0.950 . S
C3075 C3074 1.327 . S
C3075 C3079 1.429 . S
C3076 C3059 1.574 . S
C3076 H3070 0.949 . S
C3076 C3080 1.368 . S
C3077 C3058 1.429 . S
C3077 C3071 1.429 . S
C3077 C3078 1.523 . S
C3078 C3059 1.368 . S
C3078 C3072 1.368 . S
C3078 C3077 1.523 . S
C3079 C3063 1.429 . S
C3079 C3075 1.429 . S
C3079 C3080 1.523 . S
C3080 C3064 1.368 . S
C3080 C3076 1.368 . S
C3080 C3079 1.523 . S
H3081 C3056 0.950 . S
H3082 C3058 0.950 . S
H3083 C3059 0.949 . S
H3084 C3061 0.950 . S
H3085 C3063 0.950 . S
C3086 C3087 1.349 . S
C3086 C3088 1.327 . S
C3086 H3111 0.950 . S
C3087 C3086 1.349 . S
C3087 C3103 1.349 . S
C3088 C3086 1.327 . S
C3088 C3107 1.429 . S
C3088 H3112 0.950 . S
C3089 C3106 1.574 . S
C3089 C3108 1.368 . S
C3089 H3113 0.949 . S
H3090 C3094 0.949 . S
C3091 C3092 1.349 . S
C3091 C3093 1.327 . S
C3091 H3114 0.950 . S
C3092 C3091 1.349 . S
C3092 C3104 1.349 . S
C3093 C3091 1.327 . S
C3093 C3109 1.429 . S
C3093 H3115 0.950 . S
C3094 H3090 0.949 . S
C3094 C3102 1.574 . S
C3094 C3110 1.368 . S
H3095 C3103 0.950 . S
H3096 C3101 0.950 . S
H3097 C3102 0.949 . S
H3098 C3104 0.950 . S
H3099 C3105 0.950 . S
H3100 C3106 0.949 . S
C3101 H3096 0.950 . S
C3101 C3103 1.327 . S
C3101 C3107 1.429 . S
C3102 C3094 1.574 . S
C3102 H3097 0.949 . S
C3102 C3108 1.368 . S
C3103 C3087 1.349 . S
C3103 H3095 0.950 . S
C3103 C3101 1.327 . S
C3104 C3092 1.349 . S
C3104 H3098 0.950 . S
C3104 C3105 1.327 . S
C3105 H3099 0.950 . S
C3105 C3104 1.327 . S
C3105 C3109 1.429 . S
C3106 C3089 1.574 . S
C3106 H3100 0.949 . S
C3106 C3110 1.368 . S
C3107 C3088 1.429 . S
C3107 C3101 1.429 . S
C3107 C3108 1.523 . S
C3108 C3089 1.368 . S
C3108 C3102 1.368 . S
C3108 C3107 1.523 . S
C3109 C3093 1.429 . S
C3109 C3105 1.429 . S
C3109 C3110 1.523 . S
C3110 C3094 1.368 . S
C3110 C3106 1.368 . S
C3110 C3109 1.523 . S
H3111 C3086 0.950 . S
H3112 C3088 0.950 . S
H3113 C3089 0.949 . S
H3114 C3091 0.950 . S
H3115 C3093 0.950 . S
C3116 C3117 1.349 . S
C3116 C3118 1.327 . S
C3116 H3141 0.950 . S
C3117 C3116 1.349 . S
C3117 C3133 1.349 . S
C3118 C3116 1.327 . S
C3118 C3137 1.429 . S
C3118 H3142 0.950 . S
C3119 C3136 1.574 . S
C3119 C3138 1.368 . S
C3119 H3143 0.949 . S
H3120 C3124 0.949 . S
C3121 C3122 1.349 . S
C3121 C3123 1.327 . S
C3121 H3144 0.950 1_655 S
C3122 C3121 1.349 . S
C3122 C3134 1.349 . S
C3123 C3121 1.327 . S
C3123 C3139 1.429 . S
C3123 H3145 0.950 . S
C3124 H3120 0.949 . S
C3124 C3132 1.574 . S
C3124 C3140 1.368 . S
H3125 C3133 0.950 . S
H3126 C3131 0.950 . S
H3127 C3132 0.949 . S
H3128 C3134 0.950 . S
H3129 C3135 0.950 . S
H3130 C3136 0.949 . S
C3131 H3126 0.950 . S
C3131 C3133 1.327 . S
C3131 C3137 1.429 . S
C3132 C3124 1.574 . S
C3132 H3127 0.949 . S
C3132 C3138 1.368 . S
C3133 C3117 1.349 . S
C3133 H3125 0.950 . S
C3133 C3131 1.327 . S
C3134 C3122 1.349 . S
C3134 H3128 0.950 . S
C3134 C3135 1.327 . S
C3135 H3129 0.950 . S
C3135 C3134 1.327 . S
C3135 C3139 1.429 . S
C3136 C3119 1.574 . S
C3136 H3130 0.949 . S
C3136 C3140 1.368 . S
C3137 C3118 1.429 . S
C3137 C3131 1.429 . S
C3137 C3138 1.523 . S
C3138 C3119 1.368 . S
C3138 C3132 1.368 . S
C3138 C3137 1.523 . S
C3139 C3123 1.429 . S
C3139 C3135 1.429 . S
C3139 C3140 1.523 . S
C3140 C3124 1.368 . S
C3140 C3136 1.368 . S
C3140 C3139 1.523 . S
H3141 C3116 0.950 . S
H3142 C3118 0.950 . S
H3143 C3119 0.949 . S
H3144 C3121 0.950 1_455 S
H3145 C3123 0.950 . S
C3146 C3147 1.349 . S
C3146 C3148 1.327 . S
C3146 H3171 0.950 . S
C3147 C3146 1.349 . S
C3147 C3163 1.349 . S
C3148 C3146 1.327 . S
C3148 C3167 1.429 . S
C3148 H3172 0.950 . S
C3149 C3166 1.574 . S
C3149 C3168 1.368 . S
C3149 H3173 0.949 . S
H3150 C3154 0.949 . S
C3151 C3152 1.349 . S
C3151 C3153 1.327 . S
C3151 H3174 0.950 . S
C3152 C3151 1.349 . S
C3152 C3164 1.349 . S
C3153 C3151 1.327 . S
C3153 C3169 1.429 . S
C3153 H3175 0.950 . S
C3154 H3150 0.949 . S
C3154 C3162 1.574 . S
C3154 C3170 1.368 . S
H3155 C3163 0.950 . S
H3156 C3161 0.950 . S
H3157 C3162 0.949 . S
H3158 C3164 0.950 . S
H3159 C3165 0.950 . S
H3160 C3166 0.949 . S
C3161 H3156 0.950 . S
C3161 C3163 1.327 . S
C3161 C3167 1.429 . S
C3162 C3154 1.574 . S
C3162 H3157 0.949 . S
C3162 C3168 1.368 . S
C3163 C3147 1.349 . S
C3163 H3155 0.950 . S
C3163 C3161 1.327 . S
C3164 C3152 1.349 . S
C3164 H3158 0.950 . S
C3164 C3165 1.327 . S
C3165 H3159 0.950 . S
C3165 C3164 1.327 . S
C3165 C3169 1.429 . S
C3166 C3149 1.574 . S
C3166 H3160 0.949 . S
C3166 C3170 1.368 . S
C3167 C3148 1.429 . S
C3167 C3161 1.429 . S
C3167 C3168 1.523 . S
C3168 C3149 1.368 . S
C3168 C3162 1.368 . S
C3168 C3167 1.523 . S
C3169 C3153 1.429 . S
C3169 C3165 1.429 . S
C3169 C3170 1.523 . S
C3170 C3154 1.368 . S
C3170 C3166 1.368 . S
C3170 C3169 1.523 . S
H3171 C3146 0.950 . S
H3172 C3148 0.950 . S
H3173 C3149 0.949 . S
H3174 C3151 0.950 . S
H3175 C3153 0.950 . S
C3176 C3177 1.349 . S
C3176 C3178 1.327 . S
C3176 H3201 0.950 . S
C3177 C3176 1.349 . S
C3177 C3193 1.349 . S
C3178 C3176 1.327 . S
C3178 C3197 1.429 . S
C3178 H3202 0.950 . S
C3179 C3196 1.574 . S
C3179 C3198 1.368 . S
C3179 H3203 0.949 . S
H3180 C3184 0.949 . S
C3181 C3182 1.349 . S
C3181 C3183 1.327 . S
C3181 H3204 0.950 . S
C3182 C3181 1.349 . S
C3182 C3194 1.349 . S
C3183 C3181 1.327 . S
C3183 C3199 1.429 . S
C3183 H3205 0.950 . S
C3184 H3180 0.949 . S
C3184 C3192 1.574 . S
C3184 C3200 1.368 . S
H3185 C3193 0.950 . S
H3186 C3191 0.950 . S
H3187 C3192 0.949 . S
H3188 C3194 0.950 . S
H3189 C3195 0.950 . S
H3190 C3196 0.949 . S
C3191 H3186 0.950 . S
C3191 C3193 1.327 . S
C3191 C3197 1.429 . S
C3192 C3184 1.574 . S
C3192 H3187 0.949 . S
C3192 C3198 1.368 . S
C3193 C3177 1.349 . S
C3193 H3185 0.950 . S
C3193 C3191 1.327 . S
C3194 C3182 1.349 . S
C3194 H3188 0.950 . S
C3194 C3195 1.327 . S
C3195 H3189 0.950 . S
C3195 C3194 1.327 . S
C3195 C3199 1.429 . S
C3196 C3179 1.574 . S
C3196 H3190 0.949 . S
C3196 C3200 1.368 . S
C3197 C3178 1.429 . S
C3197 C3191 1.429 . S
C3197 C3198 1.523 . S
C3198 C3179 1.368 . S
C3198 C3192 1.368 . S
C3198 C3197 1.523 . S
C3199 C3183 1.429 . S
C3199 C3195 1.429 . S
C3199 C3200 1.523 . S
C3200 C3184 1.368 . S
C3200 C3196 1.368 . S
C3200 C3199 1.523 . S
H3201 C3176 0.950 . S
H3202 C3178 0.950 . S
H3203 C3179 0.949 . S
H3204 C3181 0.950 . S
H3205 C3183 0.950 . S
C3206 C3207 1.349 . S
C3206 C3208 1.327 . S
C3206 H3231 0.950 . S
C3207 C3206 1.349 . S
C3207 C3223 1.349 . S
C3208 C3206 1.327 . S
C3208 C3227 1.429 . S
C3208 H3232 0.950 . S
C3209 C3226 1.574 . S
C3209 C3228 1.368 . S
C3209 H3233 0.949 . S
H3210 C3214 0.949 . S
C3211 C3212 1.349 . S
C3211 C3213 1.327 . S
C3211 H3234 0.950 . S
C3212 C3211 1.349 . S
C3212 C3224 1.349 . S
C3213 C3211 1.327 . S
C3213 C3229 1.429 . S
C3213 H3235 0.950 . S
C3214 H3210 0.949 . S
C3214 C3222 1.574 . S
C3214 C3230 1.368 . S
H3215 C3223 0.950 . S
H3216 C3221 0.950 . S
H3217 C3222 0.949 . S
H3218 C3224 0.950 . S
H3219 C3225 0.950 . S
H3220 C3226 0.949 . S
C3221 H3216 0.950 . S
C3221 C3223 1.327 . S
C3221 C3227 1.429 . S
C3222 C3214 1.574 . S
C3222 H3217 0.949 . S
C3222 C3228 1.368 . S
C3223 C3207 1.349 . S
C3223 H3215 0.950 . S
C3223 C3221 1.327 . S
C3224 C3212 1.349 . S
C3224 H3218 0.950 . S
C3224 C3225 1.327 . S
C3225 H3219 0.950 . S
C3225 C3224 1.327 . S
C3225 C3229 1.429 . S
C3226 C3209 1.574 . S
C3226 H3220 0.949 . S
C3226 C3230 1.368 . S
C3227 C3208 1.429 . S
C3227 C3221 1.429 . S
C3227 C3228 1.523 . S
C3228 C3209 1.368 . S
C3228 C3222 1.368 . S
C3228 C3227 1.523 . S
C3229 C3213 1.429 . S
C3229 C3225 1.429 . S
C3229 C3230 1.523 . S
C3230 C3214 1.368 . S
C3230 C3226 1.368 . S
C3230 C3229 1.523 . S
H3231 C3206 0.950 . S
H3232 C3208 0.950 . S
H3233 C3209 0.949 . S
H3234 C3211 0.950 . S
H3235 C3213 0.950 . S
C3236 C3237 1.349 . S
C3236 C3238 1.327 . S
C3236 H3261 0.950 . S
C3237 C3236 1.349 . S
C3237 C3253 1.349 . S
C3238 C3236 1.327 . S
C3238 C3257 1.429 . S
C3238 H3262 0.950 . S
C3239 C3256 1.574 . S
C3239 C3258 1.368 . S
C3239 H3263 0.949 . S
H3240 C3244 0.949 . S
C3241 C3242 1.349 . S
C3241 C3243 1.327 . S
C3241 H3264 0.950 . S
C3242 C3241 1.349 . S
C3242 C3254 1.349 . S
C3243 C3241 1.327 . S
C3243 C3259 1.429 . S
C3243 H3265 0.950 . S
C3244 H3240 0.949 . S
C3244 C3252 1.574 . S
C3244 C3260 1.368 . S
H3245 C3253 0.950 . S
H3246 C3251 0.950 . S
H3247 C3252 0.949 . S
H3248 C3254 0.950 . S
H3249 C3255 0.950 . S
H3250 C3256 0.949 . S
C3251 H3246 0.950 . S
C3251 C3253 1.327 . S
C3251 C3257 1.429 . S
C3252 C3244 1.574 . S
C3252 H3247 0.949 . S
C3252 C3258 1.368 . S
C3253 C3237 1.349 . S
C3253 H3245 0.950 . S
C3253 C3251 1.327 . S
C3254 C3242 1.349 . S
C3254 H3248 0.950 . S
C3254 C3255 1.327 . S
C3255 H3249 0.950 . S
C3255 C3254 1.327 . S
C3255 C3259 1.429 . S
C3256 C3239 1.574 . S
C3256 H3250 0.949 . S
C3256 C3260 1.368 . S
C3257 C3238 1.429 . S
C3257 C3251 1.429 . S
C3257 C3258 1.523 . S
C3258 C3239 1.368 . S
C3258 C3252 1.368 . S
C3258 C3257 1.523 . S
C3259 C3243 1.429 . S
C3259 C3255 1.429 . S
C3259 C3260 1.523 . S
C3260 C3244 1.368 . S
C3260 C3256 1.368 . S
C3260 C3259 1.523 . S
H3261 C3236 0.950 . S
H3262 C3238 0.950 . S
H3263 C3239 0.949 . S
H3264 C3241 0.950 . S
H3265 C3243 0.950 . S
C3266 C3267 1.349 . S
C3266 C3268 1.327 . S
C3266 H3291 0.950 . S
C3267 C3266 1.349 . S
C3267 C3283 1.349 . S
C3268 C3266 1.327 . S
C3268 C3287 1.429 . S
C3268 H3292 0.950 . S
C3269 C3286 1.574 . S
C3269 C3288 1.368 . S
C3269 H3293 0.949 . S
H3270 C3274 0.949 . S
C3271 C3272 1.349 . S
C3271 C3273 1.327 . S
C3271 H3294 0.950 . S
C3272 C3271 1.349 . S
C3272 C3284 1.349 . S
C3273 C3271 1.327 . S
C3273 C3289 1.429 . S
C3273 H3295 0.950 . S
C3274 H3270 0.949 . S
C3274 C3282 1.574 . S
C3274 C3290 1.368 . S
H3275 C3283 0.950 . S
H3276 C3281 0.950 . S
H3277 C3282 0.949 . S
H3278 C3284 0.950 . S
H3279 C3285 0.950 . S
H3280 C3286 0.949 . S
C3281 H3276 0.950 . S
C3281 C3283 1.327 . S
C3281 C3287 1.429 . S
C3282 C3274 1.574 . S
C3282 H3277 0.949 . S
C3282 C3288 1.368 . S
C3283 C3267 1.349 . S
C3283 H3275 0.950 . S
C3283 C3281 1.327 . S
C3284 C3272 1.349 . S
C3284 H3278 0.950 . S
C3284 C3285 1.327 . S
C3285 H3279 0.950 . S
C3285 C3284 1.327 . S
C3285 C3289 1.429 . S
C3286 C3269 1.574 . S
C3286 H3280 0.949 . S
C3286 C3290 1.368 . S
C3287 C3268 1.429 . S
C3287 C3281 1.429 . S
C3287 C3288 1.523 . S
C3288 C3269 1.368 . S
C3288 C3282 1.368 . S
C3288 C3287 1.523 . S
C3289 C3273 1.429 . S
C3289 C3285 1.429 . S
C3289 C3290 1.523 . S
C3290 C3274 1.368 . S
C3290 C3286 1.368 . S
C3290 C3289 1.523 . S
H3291 C3266 0.950 . S
H3292 C3268 0.950 . S
H3293 C3269 0.949 . S
H3294 C3271 0.950 . S
H3295 C3273 0.950 . S
C3296 C3297 1.349 . S
C3296 C3298 1.327 . S
C3296 H3321 0.950 . S
C3297 C3296 1.349 . S
C3297 C3313 1.349 . S
C3298 C3296 1.327 . S
C3298 C3317 1.429 . S
C3298 H3322 0.950 . S
C3299 C3316 1.574 . S
C3299 C3318 1.368 . S
C3299 H3323 0.949 . S
H3300 C3304 0.949 . S
C3301 C3302 1.349 . S
C3301 C3303 1.327 . S
C3301 H3324 0.950 . S
C3302 C3301 1.349 . S
C3302 C3314 1.349 . S
C3303 C3301 1.327 . S
C3303 C3319 1.429 . S
C3303 H3325 0.950 . S
C3304 H3300 0.949 . S
C3304 C3312 1.574 . S
C3304 C3320 1.368 . S
H3305 C3313 0.950 . S
H3306 C3311 0.950 . S
H3307 C3312 0.949 . S
H3308 C3314 0.950 . S
H3309 C3315 0.950 . S
H3310 C3316 0.949 . S
C3311 H3306 0.950 . S
C3311 C3313 1.327 . S
C3311 C3317 1.429 . S
C3312 C3304 1.574 . S
C3312 H3307 0.949 . S
C3312 C3318 1.368 . S
C3313 C3297 1.349 . S
C3313 H3305 0.950 . S
C3313 C3311 1.327 . S
C3314 C3302 1.349 . S
C3314 H3308 0.950 . S
C3314 C3315 1.327 . S
C3315 H3309 0.950 . S
C3315 C3314 1.327 . S
C3315 C3319 1.429 . S
C3316 C3299 1.574 . S
C3316 H3310 0.949 . S
C3316 C3320 1.368 . S
C3317 C3298 1.429 . S
C3317 C3311 1.429 . S
C3317 C3318 1.523 . S
C3318 C3299 1.368 . S
C3318 C3312 1.368 . S
C3318 C3317 1.523 . S
C3319 C3303 1.429 . S
C3319 C3315 1.429 . S
C3319 C3320 1.523 . S
C3320 C3304 1.368 . S
C3320 C3316 1.368 . S
C3320 C3319 1.523 . S
H3321 C3296 0.950 . S
H3322 C3298 0.950 . S
H3323 C3299 0.949 . S
H3324 C3301 0.950 . S
H3325 C3303 0.950 . S
C3326 C3327 1.349 . S
C3326 C3328 1.327 . S
C3326 H3351 0.950 . S
C3327 C3326 1.349 . S
C3327 C3343 1.349 . S
C3328 C3326 1.327 . S
C3328 C3347 1.429 . S
C3328 H3352 0.950 . S
C3329 C3346 1.574 . S
C3329 C3348 1.368 . S
C3329 H3353 0.949 . S
H3330 C3334 0.949 . S
C3331 C3332 1.349 . S
C3331 C3333 1.327 . S
C3331 H3354 0.950 . S
C3332 C3331 1.349 . S
C3332 C3344 1.349 . S
C3333 C3331 1.327 . S
C3333 C3349 1.429 . S
C3333 H3355 0.950 . S
C3334 H3330 0.949 . S
C3334 C3342 1.574 . S
C3334 C3350 1.368 . S
H3335 C3343 0.950 . S
H3336 C3341 0.950 . S
H3337 C3342 0.949 . S
H3338 C3344 0.950 . S
H3339 C3345 0.950 . S
H3340 C3346 0.949 . S
C3341 H3336 0.950 . S
C3341 C3343 1.327 . S
C3341 C3347 1.429 . S
C3342 C3334 1.574 . S
C3342 H3337 0.949 . S
C3342 C3348 1.368 . S
C3343 C3327 1.349 . S
C3343 H3335 0.950 . S
C3343 C3341 1.327 . S
C3344 C3332 1.349 . S
C3344 H3338 0.950 . S
C3344 C3345 1.327 . S
C3345 H3339 0.950 . S
C3345 C3344 1.327 . S
C3345 C3349 1.429 . S
C3346 C3329 1.574 . S
C3346 H3340 0.949 . S
C3346 C3350 1.368 . S
C3347 C3328 1.429 . S
C3347 C3341 1.429 . S
C3347 C3348 1.523 . S
C3348 C3329 1.368 . S
C3348 C3342 1.368 . S
C3348 C3347 1.523 . S
C3349 C3333 1.429 . S
C3349 C3345 1.429 . S
C3349 C3350 1.523 . S
C3350 C3334 1.368 . S
C3350 C3346 1.368 . S
C3350 C3349 1.523 . S
H3351 C3326 0.950 . S
H3352 C3328 0.950 . S
H3353 C3329 0.949 . S
H3354 C3331 0.950 . S
H3355 C3333 0.950 . S
C3356 C3357 1.349 . S
C3356 C3358 1.327 . S
C3356 H3381 0.950 . S
C3357 C3356 1.349 . S
C3357 C3373 1.349 . S
C3358 C3356 1.327 . S
C3358 C3377 1.429 . S
C3358 H3382 0.950 . S
C3359 C3376 1.574 . S
C3359 C3378 1.368 . S
C3359 H3383 0.949 . S
H3360 C3364 0.949 . S
C3361 C3362 1.349 . S
C3361 C3363 1.327 . S
C3361 H3384 0.950 . S
C3362 C3361 1.349 . S
C3362 C3374 1.349 . S
C3363 C3361 1.327 . S
C3363 C3379 1.429 . S
C3363 H3385 0.950 . S
C3364 H3360 0.949 . S
C3364 C3372 1.574 . S
C3364 C3380 1.368 . S
H3365 C3373 0.950 . S
H3366 C3371 0.950 . S
H3367 C3372 0.949 . S
H3368 C3374 0.950 . S
H3369 C3375 0.950 . S
H3370 C3376 0.949 . S
C3371 H3366 0.950 . S
C3371 C3373 1.327 . S
C3371 C3377 1.429 . S
C3372 C3364 1.574 . S
C3372 H3367 0.949 . S
C3372 C3378 1.368 . S
C3373 C3357 1.349 . S
C3373 H3365 0.950 . S
C3373 C3371 1.327 . S
C3374 C3362 1.349 . S
C3374 H3368 0.950 . S
C3374 C3375 1.327 . S
C3375 H3369 0.950 . S
C3375 C3374 1.327 . S
C3375 C3379 1.429 . S
C3376 C3359 1.574 . S
C3376 H3370 0.949 . S
C3376 C3380 1.368 . S
C3377 C3358 1.429 . S
C3377 C3371 1.429 . S
C3377 C3378 1.523 . S
C3378 C3359 1.368 . S
C3378 C3372 1.368 . S
C3378 C3377 1.523 . S
C3379 C3363 1.429 . S
C3379 C3375 1.429 . S
C3379 C3380 1.523 . S
C3380 C3364 1.368 . S
C3380 C3376 1.368 . S
C3380 C3379 1.523 . S
H3381 C3356 0.950 . S
H3382 C3358 0.950 . S
H3383 C3359 0.949 . S
H3384 C3361 0.950 . S
H3385 C3363 0.950 . S
C3386 C3387 1.349 . S
C3386 C3388 1.327 . S
C3386 H3411 0.950 1_554 S
C3387 C3386 1.349 . S
C3387 C3403 1.349 . S
C3388 C3386 1.327 . S
C3388 C3407 1.429 . S
C3388 H3412 0.950 1_554 S
C3389 C3406 1.574 . S
C3389 C3408 1.368 . S
C3389 H3413 0.949 . S
H3390 C3394 0.949 1_556 S
C3391 C3392 1.349 . S
C3391 C3393 1.327 . S
C3391 H3414 0.950 . S
C3392 C3391 1.349 . S
C3392 C3404 1.349 . S
C3393 C3391 1.327 . S
C3393 C3409 1.429 . S
C3393 H3415 0.950 . S
C3394 H3390 0.949 1_554 S
C3394 C3402 1.574 . S
C3394 C3410 1.368 . S
H3395 C3403 0.950 . S
H3396 C3401 0.950 . S
H3397 C3402 0.949 1_556 S
H3398 C3404 0.950 . S
H3399 C3405 0.971 . S
H3400 C3406 0.949 . S
C3401 H3396 0.950 . S
C3401 C3403 1.327 . S
C3401 C3407 1.429 . S
C3402 C3394 1.574 . S
C3402 H3397 0.949 1_554 S
C3402 C3408 1.368 . S
C3403 C3387 1.349 . S
C3403 H3395 0.950 . S
C3403 C3401 1.327 . S
C3404 C3392 1.349 . S
C3404 H3398 0.950 . S
C3404 C3405 1.327 . S
C3405 H3399 0.971 . S
C3405 C3404 1.327 . S
C3405 C3409 1.429 . S
C3406 C3389 1.574 . S
C3406 H3400 0.949 . S
C3406 C3410 1.368 . S
C3407 C3388 1.429 . S
C3407 C3401 1.429 . S
C3407 C3408 1.523 . S
C3408 C3389 1.368 . S
C3408 C3402 1.368 . S
C3408 C3407 1.523 . S
C3409 C3393 1.429 . S
C3409 C3405 1.429 . S
C3409 C3410 1.523 . S
C3410 C3394 1.368 . S
C3410 C3406 1.368 . S
C3410 C3409 1.523 . S
H3411 C3386 0.950 1_556 S
H3412 C3388 0.950 1_556 S
H3413 C3389 0.949 . S
H3414 C3391 0.950 . S
H3415 C3393 0.950 . S
C3416 C3417 1.349 . S
C3416 C3418 1.327 . S
C3416 H3441 0.950 . S
C3417 C3416 1.349 . S
C3417 C3433 1.349 . S
C3418 C3416 1.327 . S
C3418 C3437 1.429 . S
C3418 H3442 0.950 . S
C3419 C3436 1.574 . S
C3419 C3438 1.368 . S
C3419 H3443 0.949 . S
H3420 C3424 0.949 . S
C3421 C3422 1.349 . S
C3421 C3423 1.327 . S
C3421 H3444 0.950 . S
C3422 C3421 1.349 . S
C3422 C3434 1.349 . S
C3423 C3421 1.327 . S
C3423 C3439 1.429 . S
C3423 H3445 0.950 . S
C3424 H3420 0.949 . S
C3424 C3432 1.574 . S
C3424 C3440 1.368 . S
H3425 C3433 0.950 . S
H3426 C3431 0.950 . S
H3427 C3432 0.949 . S
H3428 C3434 0.950 . S
H3429 C3435 0.950 . S
H3430 C3436 0.949 . S
C3431 H3426 0.950 . S
C3431 C3433 1.327 . S
C3431 C3437 1.429 . S
C3432 C3424 1.574 . S
C3432 H3427 0.949 . S
C3432 C3438 1.368 . S
C3433 C3417 1.349 . S
C3433 H3425 0.950 . S
C3433 C3431 1.327 . S
C3434 C3422 1.349 . S
C3434 H3428 0.950 . S
C3434 C3435 1.327 . S
C3435 H3429 0.950 . S
C3435 C3434 1.327 . S
C3435 C3439 1.429 . S
C3436 C3419 1.574 . S
C3436 H3430 0.949 . S
C3436 C3440 1.368 . S
C3437 C3418 1.429 . S
C3437 C3431 1.429 . S
C3437 C3438 1.523 . S
C3438 C3419 1.368 . S
C3438 C3432 1.368 . S
C3438 C3437 1.523 . S
C3439 C3423 1.429 . S
C3439 C3435 1.429 . S
C3439 C3440 1.523 . S
C3440 C3424 1.368 . S
C3440 C3436 1.368 . S
C3440 C3439 1.523 . S
H3441 C3416 0.950 . S
H3442 C3418 0.950 . S
H3443 C3419 0.949 . S
H3444 C3421 0.950 . S
H3445 C3423 0.950 . S
C3446 C3447 1.349 . S
C3446 C3448 1.327 . S
C3446 H3471 0.950 . S
C3447 C3446 1.349 . S
C3447 C3463 1.349 . S
C3448 C3446 1.327 . S
C3448 C3467 1.429 . S
C3448 H3472 0.950 . S
C3449 C3466 1.574 . S
C3449 C3468 1.368 . S
C3449 H3473 0.949 . S
H3450 C3454 0.949 . S
C3451 C3452 1.349 . S
C3451 C3453 1.327 . S
C3451 H3474 0.950 . S
C3452 C3451 1.349 . S
C3452 C3464 1.349 . S
C3453 C3451 1.327 . S
C3453 C3469 1.429 . S
C3453 H3475 0.950 . S
C3454 H3450 0.949 . S
C3454 C3462 1.574 . S
C3454 C3470 1.368 . S
H3455 C3463 0.950 . S
H3456 C3461 0.950 . S
H3457 C3462 0.949 . S
H3458 C3464 0.950 . S
H3459 C3465 0.950 . S
H3460 C3466 0.949 . S
C3461 H3456 0.950 . S
C3461 C3463 1.327 . S
C3461 C3467 1.429 . S
C3462 C3454 1.574 . S
C3462 H3457 0.949 . S
C3462 C3468 1.368 . S
C3463 C3447 1.349 . S
C3463 H3455 0.950 . S
C3463 C3461 1.327 . S
C3464 C3452 1.349 . S
C3464 H3458 0.950 . S
C3464 C3465 1.327 . S
C3465 H3459 0.950 . S
C3465 C3464 1.327 . S
C3465 C3469 1.429 . S
C3466 C3449 1.574 . S
C3466 H3460 0.949 . S
C3466 C3470 1.368 . S
C3467 C3448 1.429 . S
C3467 C3461 1.429 . S
C3467 C3468 1.523 . S
C3468 C3449 1.368 . S
C3468 C3462 1.368 . S
C3468 C3467 1.523 . S
C3469 C3453 1.429 . S
C3469 C3465 1.429 . S
C3469 C3470 1.523 . S
C3470 C3454 1.368 . S
C3470 C3466 1.368 . S
C3470 C3469 1.523 . S
H3471 C3446 0.950 . S
H3472 C3448 0.950 . S
H3473 C3449 0.949 . S
H3474 C3451 0.950 . S
H3475 C3453 0.950 . S
C3476 C3477 1.349 . S
C3476 C3478 1.327 . S
C3476 H3501 0.950 . S
C3477 C3476 1.349 . S
C3477 C3493 1.349 . S
C3478 C3476 1.327 . S
C3478 C3497 1.429 . S
C3478 H3502 0.950 . S
C3479 C3496 1.574 . S
C3479 C3498 1.368 . S
C3479 H3503 0.949 . S
H3480 C3484 0.949 . S
C3481 C3482 1.349 . S
C3481 C3483 1.327 . S
C3481 H3504 0.950 . S
C3482 C3481 1.349 . S
C3482 C3494 1.349 . S
C3483 C3481 1.327 . S
C3483 C3499 1.429 . S
C3483 H3505 0.950 . S
C3484 H3480 0.949 . S
C3484 C3492 1.574 . S
C3484 C3500 1.368 . S
H3485 C3493 0.950 . S
H3486 C3491 0.950 . S
H3487 C3492 0.949 . S
H3488 C3494 0.950 . S
H3489 C3495 0.950 . S
H3490 C3496 0.949 . S
C3491 H3486 0.950 . S
C3491 C3493 1.327 . S
C3491 C3497 1.429 . S
C3492 C3484 1.574 . S
C3492 H3487 0.949 . S
C3492 C3498 1.368 . S
C3493 C3477 1.349 . S
C3493 H3485 0.950 . S
C3493 C3491 1.327 . S
C3494 C3482 1.349 . S
C3494 H3488 0.950 . S
C3494 C3495 1.327 . S
C3495 H3489 0.950 . S
C3495 C3494 1.327 . S
C3495 C3499 1.429 . S
C3496 C3479 1.574 . S
C3496 H3490 0.949 . S
C3496 C3500 1.368 . S
C3497 C3478 1.429 . S
C3497 C3491 1.429 . S
C3497 C3498 1.523 . S
C3498 C3479 1.368 . S
C3498 C3492 1.368 . S
C3498 C3497 1.523 . S
C3499 C3483 1.429 . S
C3499 C3495 1.429 . S
C3499 C3500 1.523 . S
C3500 C3484 1.368 . S
C3500 C3496 1.368 . S
C3500 C3499 1.523 . S
H3501 C3476 0.950 . S
H3502 C3478 0.950 . S
H3503 C3479 0.949 . S
H3504 C3481 0.950 . S
H3505 C3483 0.950 . S
C3506 C3507 1.349 . S
C3506 C3508 1.327 . S
C3506 H3531 0.950 . S
C3507 C3506 1.349 . S
C3507 C3523 1.349 . S
C3508 C3506 1.327 . S
C3508 C3527 1.429 . S
C3508 H3532 0.950 . S
C3509 C3526 1.574 . S
C3509 C3528 1.368 . S
C3509 H3533 0.949 . S
H3510 C3514 0.949 . S
C3511 C3512 1.349 . S
C3511 C3513 1.327 . S
C3511 H3534 0.950 . S
C3512 C3511 1.349 . S
C3512 C3524 1.349 . S
C3513 C3511 1.327 . S
C3513 C3529 1.429 . S
C3513 H3535 0.950 . S
C3514 H3510 0.949 . S
C3514 C3522 1.574 . S
C3514 C3530 1.368 . S
H3515 C3523 0.950 . S
H3516 C3521 0.950 . S
H3517 C3522 0.949 . S
H3518 C3524 0.950 . S
H3519 C3525 0.950 . S
H3520 C3526 0.949 . S
C3521 H3516 0.950 . S
C3521 C3523 1.327 . S
C3521 C3527 1.429 . S
C3522 C3514 1.574 . S
C3522 H3517 0.949 . S
C3522 C3528 1.368 . S
C3523 C3507 1.349 . S
C3523 H3515 0.950 . S
C3523 C3521 1.327 . S
C3524 C3512 1.349 . S
C3524 H3518 0.950 . S
C3524 C3525 1.327 . S
C3525 H3519 0.950 . S
C3525 C3524 1.327 . S
C3525 C3529 1.429 . S
C3526 C3509 1.574 . S
C3526 H3520 0.949 . S
C3526 C3530 1.368 . S
C3527 C3508 1.429 . S
C3527 C3521 1.429 . S
C3527 C3528 1.523 . S
C3528 C3509 1.368 . S
C3528 C3522 1.368 . S
C3528 C3527 1.523 . S
C3529 C3513 1.429 . S
C3529 C3525 1.429 . S
C3529 C3530 1.523 . S
C3530 C3514 1.368 . S
C3530 C3526 1.368 . S
C3530 C3529 1.523 . S
H3531 C3506 0.950 . S
H3532 C3508 0.950 . S
H3533 C3509 0.949 . S
H3534 C3511 0.950 . S
H3535 C3513 0.950 . S
C657 C106 1.701 . S
C662 C340 1.510 . S
C687 C65 1.414 . S
C692 C375 1.382 . S
C717 C79 1.396 . S
C722 C380 1.272 . S
C752 C405 1.122 . S
C747 C90 1.161 . S
C777 C21 1.197 . S
C782 C425 1.156 . S
C812 C440 0.930 . S
C807 C35 0.980 . S
C842 C475 1.451 . S
C837 C50 1.486 . S
C867 C6 1.302 . S
C872 C480 1.184 . S
C902 C355 1.655 1_655 S
C897 C232 1.737 . S
C927 C245 0.923 . S
C932 C365 0.903 . S
C962 C395 1.450 . S
C957 C274 1.490 1_545 S
C992 C400 1.046 . S
C987 C175 1.106 . S
C1017 C231 0.935 . S
C1022 C420 0.899 . S
C1052 C455 1.346 . S
C1047 C246 1.384 . S
C1082 C465 0.774 . S
C1077 C273 0.779 . S
C1112 C495 1.572 . S
C1107 C176 1.654 . S
C1142 C345 1.283 . S
C1137 C160 1.361 . S
C1167 C289 1.719 1_554 S
C1172 C515 1.688 . S
C1202 C525 1.414 . S
C1197 C328 1.468 . S
C1232 C540 1.074 . S
C1227 C317 1.151 . S
C1257 C118 1.306 . S
C1262 C485 1.227 . S
C1287 C132 1.468 . S
C1292 C385 1.414 . S
C1317 C331 1.808 . S
C1322 C575 1.774 . S
C1352 C580 1.121 . S
C1347 C303 1.198 . S
C1382 C338 1.121 . S
C1377 C63 1.237 . S
C1412 C594 1.778 . S
C1407 C107 1.792 . S
C1437 C92 1.156 . S
C1442 C378 1.064 . S
C1467 C78 1.790 . S
C1472 C568 1.715 . S
C1502 C428 1.715 . S
C1497 C8 1.790 . S
C1527 C51 1.156 . S
C1532 C518 1.064 . S
C1562 C474 1.778 . S
C1557 C37 1.792 . S
C1592 C598 1.121 . S
C1587 C20 1.242 . S
C1622 C354 1.439 . S
C1617 C147 1.455 . S
C1652 C588 1.075 . S
C1647 C316 1.138 . S
C1677 C119 1.386 . S
C1682 C394 1.386 . S
C1707 C288 1.278 . S
C1712 C558 1.169 . S
C1737 C148 1.278 . S
C1742 C418 1.176 . S
C1772 C534 1.386 . S
C1767 C315 1.386 . S
C1797 C120 1.138 . S
C1802 C468 1.080 . S
C1827 C287 1.455 . S
C1832 C614 1.445 . S
C1857 C188 1.207 . S
C1862 C348 1.151 . S
C1887 C177 2.044 . S
C1892 C514 2.037 . S
C1917 C258 1.572 . S
C1922 C448 1.507 . S
C1947 C247 1.212 . S
C1952 C538 1.107 . S
C1982 C608 1.151 . S
C1977 C272 1.214 . S
C2007 C216 1.316 . S
C2012 C388 1.259 . S
C2042 C414 2.037 . S
C2037 C261 2.044 . S
C2072 C358 1.107 . S
C2067 C205 1.212 . S
C2097 C76 1.303 . S
C2102 C620 1.184 . S
C2132 C595 1.451 . S
C2127 C93 1.486 . S
C2157 C105 0.980 . S
C2162 C640 0.930 . S
C2187 C62 1.197 . S
C2192 C565 1.155 . S
C2217 C49 1.161 . S
C2222 C505 1.122 . S
C2252 C520 1.272 . S
C2247 C9 1.396 . S
C2282 C555 1.382 . S
C2277 C22 1.413 . S
C2312 C600 1.510 . S
C2307 C36 1.703 . S
C2342 C635 1.572 . S
C2337 C260 1.654 . S
C2367 C189 0.778 . S
C2372 C585 0.774 . S
C2402 C655 1.346 . S
C2397 C204 1.384 . S
C2432 C560 0.899 . S
C2427 C217 0.935 . S
C2462 C500 1.046 . S
C2457 C259 1.106 . S
C2487 C190 1.491 . S
C2492 C535 1.450 . S
C2522 C545 0.903 . S
C2517 C203 0.923 . S
C2547 C218 1.737 . S
C2552 C615 1.655 . S
C2582 C625 1.227 . S
C2577 C314 1.306 . S
C2607 C135 1.808 . S
C2612 C435 1.774 . S
C2642 C445 1.332 . S
C2637 C146 1.387 . S
C2672 C460 1.121 . S
C2667 C163 1.198 . S
C2702 C605 1.283 . S
C2697 C300 1.361 . S
C2727 C286 1.387 . S
C2732 C645 1.333 . S
C2762 C415 1.691 . S
C2757 C149 1.728 . S
C2792 C360 1.074 . S
C2787 C121 1.151 . S
C2817 C91 1.201 . S
C2822 C618 1.098 . S
C2852 C374 1.373 . S
C2847 C77 1.368 . S
C2877 C64 1.121 . S
C2882 C638 1.041 . S
C2907 C104 1.409 . S
C2912 C408 1.361 . S
C2937 C34 1.409 . S
C2942 C508 1.361 . S
C2972 C438 1.041 . S
C2967 C23 1.117 . S
C2997 C7 1.368 . S
C3002 C554 1.373 . S
C3027 C48 1.201 . S
C3032 C478 1.098 . S
C3062 C634 1.440 . S
C3057 C329 1.455 . S
C3087 C162 1.144 . S
C3092 C368 1.084 . S
C3122 C654 1.400 1_656 S
C3117 C301 1.400 . S
C3147 C134 1.281 . S
C3152 C398 1.183 . S
C3177 C330 1.281 . S
C3182 C498 1.183 . S
C3212 C454 1.400 . S
C3207 C161 1.400 . S
C3237 C302 1.144 . S
C3242 C548 1.084 . S
C3272 C494 1.440 . S
C3267 C133 1.455 . S
C3302 C628 1.384 . S
C3297 C244 1.451 . S
C3332 C434 2.004 1_565 S
C3327 C219 2.007 . S
C3357 C230 1.316 . S
C3362 C528 1.259 . S
C3392 C458 1.085 . S
C3387 C191 1.189 . S
C3417 C202 1.451 . S
C3422 C488 1.384 . S
C3447 C174 1.572 . S
C3452 C648 1.507 . S
C3482 C574 2.004 . S
C3477 C233 2.007 . S
C3512 C578 1.085 . S
C3507 C275 1.184 . S
