# Generated by pormake.
# Topology gar, (4,6)-cn, num edge types: 1
# Building blocks:
#     Node 0, Type 0, BuildingBlock: KUFVIS_clean_sbu_0, # of connection points: 4
#     Node 1, Type 0, BuildingBlock: KUFVIS_clean_sbu_0, # of connection points: 4
#     Node 2, Type 0, BuildingBlock: KUFVIS_clean_sbu_0, # of connection points: 4
#     Node 3, Type 0, BuildingBlock: KUFVIS_clean_sbu_0, # of connection points: 4
#     Node 4, Type 0, BuildingBlock: KUFVIS_clean_sbu_0, # of connection points: 4
#     Node 5, Type 0, BuildingBlock: KUFVIS_clean_sbu_0, # of connection points: 4
#     Node 6, Type 0, BuildingBlock: KUFVIS_clean_sbu_0, # of connection points: 4
#     Node 7, Type 0, BuildingBlock: KUFVIS_clean_sbu_0, # of connection points: 4
#     Node 8, Type 0, BuildingBlock: KUFVIS_clean_sbu_0, # of connection points: 4
#     Node 9, Type 0, BuildingBlock: KUFVIS_clean_sbu_0, # of connection points: 4
#     Node 10, Type 0, BuildingBlock: KUFVIS_clean_sbu_0, # of connection points: 4
#     Node 11, Type 0, BuildingBlock: KUFVIS_clean_sbu_0, # of connection points: 4
#     Node 12, Type 0, BuildingBlock: KUFVIS_clean_sbu_0, # of connection points: 4
#     Node 13, Type 0, BuildingBlock: KUFVIS_clean_sbu_0, # of connection points: 4
#     Node 14, Type 0, BuildingBlock: KUFVIS_clean_sbu_0, # of connection points: 4
#     Node 15, Type 0, BuildingBlock: KUFVIS_clean_sbu_0, # of connection points: 4
#     Node 16, Type 0, BuildingBlock: KUFVIS_clean_sbu_0, # of connection points: 4
#     Node 17, Type 0, BuildingBlock: KUFVIS_clean_sbu_0, # of connection points: 4
#     Node 18, Type 0, BuildingBlock: KUFVIS_clean_sbu_0, # of connection points: 4
#     Node 19, Type 0, BuildingBlock: KUFVIS_clean_sbu_0, # of connection points: 4
#     Node 20, Type 0, BuildingBlock: KUFVIS_clean_sbu_0, # of connection points: 4
#     Node 21, Type 0, BuildingBlock: KUFVIS_clean_sbu_0, # of connection points: 4
#     Node 22, Type 0, BuildingBlock: KUFVIS_clean_sbu_0, # of connection points: 4
#     Node 23, Type 0, BuildingBlock: KUFVIS_clean_sbu_0, # of connection points: 4
#     Node 24, Type 1, BuildingBlock: KUMBUR_clean_sbu_1, # of connection points: 6
#     Node 25, Type 1, BuildingBlock: KUMBUR_clean_sbu_1, # of connection points: 6
#     Node 26, Type 1, BuildingBlock: KUMBUR_clean_sbu_1, # of connection points: 6
#     Node 27, Type 1, BuildingBlock: KUMBUR_clean_sbu_1, # of connection points: 6
#     Node 28, Type 1, BuildingBlock: KUMBUR_clean_sbu_1, # of connection points: 6
#     Node 29, Type 1, BuildingBlock: KUMBUR_clean_sbu_1, # of connection points: 6
#     Node 30, Type 1, BuildingBlock: KUMBUR_clean_sbu_1, # of connection points: 6
#     Node 31, Type 1, BuildingBlock: KUMBUR_clean_sbu_1, # of connection points: 6
#     Node 32, Type 1, BuildingBlock: KUMBUR_clean_sbu_1, # of connection points: 6
#     Node 33, Type 1, BuildingBlock: KUMBUR_clean_sbu_1, # of connection points: 6
#     Node 34, Type 1, BuildingBlock: KUMBUR_clean_sbu_1, # of connection points: 6
#     Node 35, Type 1, BuildingBlock: KUMBUR_clean_sbu_1, # of connection points: 6
#     Node 36, Type 1, BuildingBlock: KUMBUR_clean_sbu_1, # of connection points: 6
#     Node 37, Type 1, BuildingBlock: KUMBUR_clean_sbu_1, # of connection points: 6
#     Node 38, Type 1, BuildingBlock: KUMBUR_clean_sbu_1, # of connection points: 6
#     Node 39, Type 1, BuildingBlock: KUMBUR_clean_sbu_1, # of connection points: 6
#     Edge 40, Type (0, 1), BuildingBlock: TEMPAE_clean_linker_10, # of connection points: 2
#     Edge 41, Type (0, 1), BuildingBlock: TEMPAE_clean_linker_10, # of connection points: 2
#     Edge 42, Type (0, 1), BuildingBlock: TEMPAE_clean_linker_10, # of connection points: 2
#     Edge 43, Type (0, 1), BuildingBlock: TEMPAE_clean_linker_10, # of connection points: 2
#     Edge 44, Type (0, 1), BuildingBlock: TEMPAE_clean_linker_10, # of connection points: 2
#     Edge 45, Type (0, 1), BuildingBlock: TEMPAE_clean_linker_10, # of connection points: 2
#     Edge 46, Type (0, 1), BuildingBlock: TEMPAE_clean_linker_10, # of connection points: 2
#     Edge 47, Type (0, 1), BuildingBlock: TEMPAE_clean_linker_10, # of connection points: 2
#     Edge 48, Type (0, 1), BuildingBlock: TEMPAE_clean_linker_10, # of connection points: 2
#     Edge 49, Type (0, 1), BuildingBlock: TEMPAE_clean_linker_10, # of connection points: 2
#     Edge 50, Type (0, 1), BuildingBlock: TEMPAE_clean_linker_10, # of connection points: 2
#     Edge 51, Type (0, 1), BuildingBlock: TEMPAE_clean_linker_10, # of connection points: 2
#     Edge 52, Type (0, 1), BuildingBlock: TEMPAE_clean_linker_10, # of connection points: 2
#     Edge 53, Type (0, 1), BuildingBlock: TEMPAE_clean_linker_10, # of connection points: 2
#     Edge 54, Type (0, 1), BuildingBlock: TEMPAE_clean_linker_10, # of connection points: 2
#     Edge 55, Type (0, 1), BuildingBlock: TEMPAE_clean_linker_10, # of connection points: 2
#     Edge 56, Type (0, 1), BuildingBlock: TEMPAE_clean_linker_10, # of connection points: 2
#     Edge 57, Type (0, 1), BuildingBlock: TEMPAE_clean_linker_10, # of connection points: 2
#     Edge 58, Type (0, 1), BuildingBlock: TEMPAE_clean_linker_10, # of connection points: 2
#     Edge 59, Type (0, 1), BuildingBlock: TEMPAE_clean_linker_10, # of connection points: 2
#     Edge 60, Type (0, 1), BuildingBlock: TEMPAE_clean_linker_10, # of connection points: 2
#     Edge 61, Type (0, 1), BuildingBlock: TEMPAE_clean_linker_10, # of connection points: 2
#     Edge 62, Type (0, 1), BuildingBlock: TEMPAE_clean_linker_10, # of connection points: 2
#     Edge 63, Type (0, 1), BuildingBlock: TEMPAE_clean_linker_10, # of connection points: 2
#     Edge 64, Type (0, 1), BuildingBlock: TEMPAE_clean_linker_10, # of connection points: 2
#     Edge 65, Type (0, 1), BuildingBlock: TEMPAE_clean_linker_10, # of connection points: 2
#     Edge 66, Type (0, 1), BuildingBlock: TEMPAE_clean_linker_10, # of connection points: 2
#     Edge 67, Type (0, 1), BuildingBlock: TEMPAE_clean_linker_10, # of connection points: 2
#     Edge 68, Type (0, 1), BuildingBlock: TEMPAE_clean_linker_10, # of connection points: 2
#     Edge 69, Type (0, 1), BuildingBlock: TEMPAE_clean_linker_10, # of connection points: 2
#     Edge 70, Type (0, 1), BuildingBlock: TEMPAE_clean_linker_10, # of connection points: 2
#     Edge 71, Type (0, 1), BuildingBlock: TEMPAE_clean_linker_10, # of connection points: 2
#     Edge 72, Type (0, 1), BuildingBlock: TEMPAE_clean_linker_10, # of connection points: 2
#     Edge 73, Type (0, 1), BuildingBlock: TEMPAE_clean_linker_10, # of connection points: 2
#     Edge 74, Type (0, 1), BuildingBlock: TEMPAE_clean_linker_10, # of connection points: 2
#     Edge 75, Type (0, 1), BuildingBlock: TEMPAE_clean_linker_10, # of connection points: 2
#     Edge 76, Type (0, 1), BuildingBlock: TEMPAE_clean_linker_10, # of connection points: 2
#     Edge 77, Type (0, 1), BuildingBlock: TEMPAE_clean_linker_10, # of connection points: 2
#     Edge 78, Type (0, 1), BuildingBlock: TEMPAE_clean_linker_10, # of connection points: 2
#     Edge 79, Type (0, 1), BuildingBlock: TEMPAE_clean_linker_10, # of connection points: 2
#     Edge 80, Type (0, 1), BuildingBlock: TEMPAE_clean_linker_10, # of connection points: 2
#     Edge 81, Type (0, 1), BuildingBlock: TEMPAE_clean_linker_10, # of connection points: 2
#     Edge 82, Type (0, 1), BuildingBlock: TEMPAE_clean_linker_10, # of connection points: 2
#     Edge 83, Type (0, 1), BuildingBlock: TEMPAE_clean_linker_10, # of connection points: 2
#     Edge 84, Type (0, 1), BuildingBlock: TEMPAE_clean_linker_10, # of connection points: 2
#     Edge 85, Type (0, 1), BuildingBlock: TEMPAE_clean_linker_10, # of connection points: 2
#     Edge 86, Type (0, 1), BuildingBlock: TEMPAE_clean_linker_10, # of connection points: 2
#     Edge 87, Type (0, 1), BuildingBlock: TEMPAE_clean_linker_10, # of connection points: 2
#     Edge 88, Type (0, 1), BuildingBlock: TEMPAE_clean_linker_10, # of connection points: 2
#     Edge 89, Type (0, 1), BuildingBlock: TEMPAE_clean_linker_10, # of connection points: 2
#     Edge 90, Type (0, 1), BuildingBlock: TEMPAE_clean_linker_10, # of connection points: 2
#     Edge 91, Type (0, 1), BuildingBlock: TEMPAE_clean_linker_10, # of connection points: 2
#     Edge 92, Type (0, 1), BuildingBlock: TEMPAE_clean_linker_10, # of connection points: 2
#     Edge 93, Type (0, 1), BuildingBlock: TEMPAE_clean_linker_10, # of connection points: 2
#     Edge 94, Type (0, 1), BuildingBlock: TEMPAE_clean_linker_10, # of connection points: 2
#     Edge 95, Type (0, 1), BuildingBlock: TEMPAE_clean_linker_10, # of connection points: 2
#     Edge 96, Type (0, 1), BuildingBlock: TEMPAE_clean_linker_10, # of connection points: 2
#     Edge 97, Type (0, 1), BuildingBlock: TEMPAE_clean_linker_10, # of connection points: 2
#     Edge 98, Type (0, 1), BuildingBlock: TEMPAE_clean_linker_10, # of connection points: 2
#     Edge 99, Type (0, 1), BuildingBlock: TEMPAE_clean_linker_10, # of connection points: 2
#     Edge 100, Type (0, 1), BuildingBlock: TEMPAE_clean_linker_10, # of connection points: 2
#     Edge 101, Type (0, 1), BuildingBlock: TEMPAE_clean_linker_10, # of connection points: 2
#     Edge 102, Type (0, 1), BuildingBlock: TEMPAE_clean_linker_10, # of connection points: 2
#     Edge 103, Type (0, 1), BuildingBlock: TEMPAE_clean_linker_10, # of connection points: 2
#     Edge 104, Type (0, 1), BuildingBlock: TEMPAE_clean_linker_10, # of connection points: 2
#     Edge 105, Type (0, 1), BuildingBlock: TEMPAE_clean_linker_10, # of connection points: 2
#     Edge 106, Type (0, 1), BuildingBlock: TEMPAE_clean_linker_10, # of connection points: 2
#     Edge 107, Type (0, 1), BuildingBlock: TEMPAE_clean_linker_10, # of connection points: 2
#     Edge 108, Type (0, 1), BuildingBlock: TEMPAE_clean_linker_10, # of connection points: 2
#     Edge 109, Type (0, 1), BuildingBlock: TEMPAE_clean_linker_10, # of connection points: 2
#     Edge 110, Type (0, 1), BuildingBlock: TEMPAE_clean_linker_10, # of connection points: 2
#     Edge 111, Type (0, 1), BuildingBlock: TEMPAE_clean_linker_10, # of connection points: 2
#     Edge 112, Type (0, 1), BuildingBlock: TEMPAE_clean_linker_10, # of connection points: 2
#     Edge 113, Type (0, 1), BuildingBlock: TEMPAE_clean_linker_10, # of connection points: 2
#     Edge 114, Type (0, 1), BuildingBlock: TEMPAE_clean_linker_10, # of connection points: 2
#     Edge 115, Type (0, 1), BuildingBlock: TEMPAE_clean_linker_10, # of connection points: 2
#     Edge 116, Type (0, 1), BuildingBlock: TEMPAE_clean_linker_10, # of connection points: 2
#     Edge 117, Type (0, 1), BuildingBlock: TEMPAE_clean_linker_10, # of connection points: 2
#     Edge 118, Type (0, 1), BuildingBlock: TEMPAE_clean_linker_10, # of connection points: 2
#     Edge 119, Type (0, 1), BuildingBlock: TEMPAE_clean_linker_10, # of connection points: 2
#     Edge 120, Type (0, 1), BuildingBlock: TEMPAE_clean_linker_10, # of connection points: 2
#     Edge 121, Type (0, 1), BuildingBlock: TEMPAE_clean_linker_10, # of connection points: 2
#     Edge 122, Type (0, 1), BuildingBlock: TEMPAE_clean_linker_10, # of connection points: 2
#     Edge 123, Type (0, 1), BuildingBlock: TEMPAE_clean_linker_10, # of connection points: 2
#     Edge 124, Type (0, 1), BuildingBlock: TEMPAE_clean_linker_10, # of connection points: 2
#     Edge 125, Type (0, 1), BuildingBlock: TEMPAE_clean_linker_10, # of connection points: 2
#     Edge 126, Type (0, 1), BuildingBlock: TEMPAE_clean_linker_10, # of connection points: 2
#     Edge 127, Type (0, 1), BuildingBlock: TEMPAE_clean_linker_10, # of connection points: 2
#     Edge 128, Type (0, 1), BuildingBlock: TEMPAE_clean_linker_10, # of connection points: 2
#     Edge 129, Type (0, 1), BuildingBlock: TEMPAE_clean_linker_10, # of connection points: 2
#     Edge 130, Type (0, 1), BuildingBlock: TEMPAE_clean_linker_10, # of connection points: 2
#     Edge 131, Type (0, 1), BuildingBlock: TEMPAE_clean_linker_10, # of connection points: 2
#     Edge 132, Type (0, 1), BuildingBlock: TEMPAE_clean_linker_10, # of connection points: 2
#     Edge 133, Type (0, 1), BuildingBlock: TEMPAE_clean_linker_10, # of connection points: 2
#     Edge 134, Type (0, 1), BuildingBlock: TEMPAE_clean_linker_10, # of connection points: 2
#     Edge 135, Type (0, 1), BuildingBlock: TEMPAE_clean_linker_10, # of connection points: 2
# Relax obj value: 0.065
# Max RMSD: 0.180
# Mean RMSD: 0.107
data_MOF--net-gar--node1-KUFVIS_clean_sbu_0--node2-KUMBUR_clean_sbu_1--edge1-TEMPAE_clean_linker_10
_symmetry_space_group_name_H-M    P1
_symmetry_Int_Tables_number       1
_symmetry_cell_setting            triclinic
loop_
_symmetry_equiv_pos_as_xyz
'x, y, z'
_cell_length_a     60.166832
_cell_length_b     60.391748
_cell_length_c     57.655242
_cell_angle_alpha  96.033228
_cell_angle_beta   96.198894
_cell_angle_gamma 101.47819
loop_
_atom_site_label
_atom_site_type_symbol
_atom_site_fract_x
_atom_site_fract_y
_atom_site_fract_z
_atom_type_partial_charge
Mn0 Mn 0.04817 0.31427 0.37492 0.0
Mn1 Mn 0.04944 0.35152 0.33555 0.0
C2 C 0.01144 0.31913 0.35689 0.0
C3 C 0.04952 0.2786 0.38788 0.0
C4 C 0.05761 0.36649 0.38895 0.0
O5 O 0.08166 0.31742 0.36577 0.0
O6 O 0.07923 0.3398 0.33767 0.0
C7 C 0.05023 0.32077 0.29217 0.0
N8 N 0.04142 0.33713 0.30382 0.0
C9 C 0.01873 0.34173 0.26836 0.0
C10 C 0.02779 0.32515 0.25589 0.0
C11 C 0.04346 0.31449 0.26789 0.0
C12 C 0.02608 0.34723 0.29252 0.0
H13 H 0.06239 0.31268 0.30133 0.0
C14 C 0.09028 0.32726 0.3491 0.0
O15 O 0.05671 0.29765 0.40148 0.0
O16 O 0.04187 0.27998 0.3662 0.0
N17 N 0.02339 0.36478 0.32965 0.0
C18 C 0.01398 0.37797 0.34474 0.0
C19 C 0.99696 0.38888 0.3359 0.0
C20 C 0.98998 0.38635 0.31156 0.0
C21 C 0.99987 0.37264 0.29633 0.0
C22 C 0.01684 0.36229 0.30619 0.0
H23 H 0.01959 0.38034 0.3633 0.0
O24 O 0.01477 0.31189 0.3771 0.0
O25 O 0.03057 0.32393 0.34706 0.0
O26 O 0.05471 0.34635 0.39444 0.0
O27 O 0.0575 0.37022 0.36753 0.0
C28 C 0.99301 0.36821 0.27185 0.0
C29 C 1.00236 0.35269 0.25788 0.0
H30 H 0.02261 0.32026 0.23717 0.0
H31 H 0.05038 0.30155 0.25843 0.0
H32 H 0.98937 0.39935 0.34781 0.0
H33 H 0.97676 0.3947 0.3048 0.0
H34 H 0.98003 0.3761 0.26369 0.0
H35 H 0.99649 0.34895 0.23918 0.0
Mn36 Mn 0.02813 0.75142 0.69856 0.0
Mn37 Mn 0.04221 0.79675 0.74133 0.0
C38 C 0.06798 0.76482 0.71553 0.0
C39 C 0.01947 0.71216 0.67978 0.0
C40 C 0.03166 0.80174 0.69002 0.0
O41 O 0.99574 0.75268 0.71103 0.0
O42 O 1.008 0.78352 0.7383 0.0
C43 C 0.03308 0.77437 0.78359 0.0
N44 N 0.04768 0.78784 0.77186 0.0
C45 C 0.07594 0.79842 0.8062 0.0
C46 C 0.06122 0.78461 0.81868 0.0
C47 C 0.03975 0.77246 0.80729 0.0
C48 C 0.0684 0.79957 0.78263 0.0
H49 H 0.01639 0.76539 0.77498 0.0
C50 C 0.99155 0.76778 0.72694 0.0
O51 O 0.01401 0.7287 0.66958 0.0
O52 O 0.02762 0.71772 0.70194 0.0
N53 N 0.07373 0.81188 0.74641 0.0
C54 C 0.08646 0.823 0.73131 0.0
C55 C 0.10886 0.83511 0.73953 0.0
C56 C 0.11775 0.83596 0.76324 0.0
C57 C 0.10428 0.82437 0.77841 0.0
C58 C 0.0822 0.81234 0.76913 0.0
H59 H 0.07957 0.82263 0.71315 0.0
O60 O 0.06154 0.75423 0.69441 0.0
O61 O 0.05054 0.7682 0.72658 0.0
O62 O 0.02744 0.78052 0.68266 0.0
O63 O 0.03748 0.80958 0.71159 0.0
C64 C 0.11199 0.82398 0.80229 0.0
C65 C 0.09783 0.81102 0.81618 0.0
H66 H 0.06625 0.78318 0.83698 0.0
H67 H 0.02828 0.76183 0.81683 0.0
H68 H 0.11917 0.84391 0.72768 0.0
H69 H 0.13498 0.84543 0.76956 0.0
H70 H 0.12892 0.83326 0.81004 0.0
H71 H 0.10407 0.81061 0.83444 0.0
Mn72 Mn 0.54761 0.81453 0.87511 0.0
Mn73 Mn 0.54696 0.84932 0.83372 0.0
C74 C 0.5108 0.81816 0.85641 0.0
C75 C 0.55007 0.77973 0.88972 0.0
C76 C 0.55629 0.86696 0.88654 0.0
O77 O 0.58135 0.81878 0.86555 0.0
O78 O 0.57732 0.83822 0.8349 0.0
C79 C 0.54629 0.81756 0.79067 0.0
N80 N 0.53671 0.83288 0.80297 0.0
C81 C 0.5071 0.83034 0.77059 0.0
C82 C 0.51694 0.81488 0.75743 0.0
C83 C 0.53656 0.80839 0.76757 0.0
C84 C 0.5177 0.83909 0.79345 0.0
H85 H 0.56119 0.81232 0.79845 0.0
C86 C 0.58924 0.8272 0.84764 0.0
O87 O 0.55668 0.79928 0.9026 0.0
O88 O 0.54264 0.78019 0.86775 0.0
N89 N 0.51931 0.86055 0.82978 0.0
C90 C 0.51061 0.87387 0.84552 0.0
C91 C 0.49015 0.88064 0.83866 0.0
C92 C 0.4789 0.87384 0.81565 0.0
C93 C 0.48803 0.86002 0.7998 0.0
C94 C 0.50845 0.8537 0.80767 0.0
H95 H 0.51905 0.8792 0.86325 0.0
O96 O 0.51358 0.81121 0.87685 0.0
O97 O 0.53008 0.8226 0.84708 0.0
O98 O 0.55273 0.84715 0.89294 0.0
O99 O 0.55703 0.86971 0.86487 0.0
C100 C 0.47739 0.85185 0.77667 0.0
C101 C 0.48695 0.83707 0.76205 0.0
H102 H 0.50941 0.80767 0.73965 0.0
H103 H 0.54414 0.7963 0.75761 0.0
H104 H 0.48309 0.89111 0.85109 0.0
H105 H 0.46315 0.87917 0.81042 0.0
H106 H 0.46164 0.8565 0.77008 0.0
H107 H 0.47841 0.8306 0.74443 0.0
Mn108 Mn 0.52913 0.25135 0.20025 0.0
Mn109 Mn 0.48399 0.24307 0.15674 0.0
C110 C 0.51631 0.21434 0.17687 0.0
C111 C 0.5708 0.25939 0.21444 0.0
C112 C 0.47729 0.25166 0.20859 0.0
O113 O 0.53015 0.28375 0.19105 0.0
O114 O 0.50056 0.27563 0.16144 0.0
C115 C 0.50488 0.2532 0.11382 0.0
N116 N 0.491 0.23875 0.12535 0.0
C117 C 0.47499 0.21414 0.08932 0.0
C118 C 0.48918 0.22872 0.07704 0.0
C119 C 0.5043 0.24823 0.08937 0.0
C120 C 0.47636 0.21994 0.11363 0.0
H121 H 0.51605 0.26851 0.12317 0.0
C122 C 0.51741 0.28952 0.1743 0.0
O123 O 0.55541 0.26185 0.22807 0.0
O124 O 0.56223 0.2529 0.19263 0.0
N125 N 0.46693 0.21245 0.15044 0.0
C126 C 0.45673 0.19899 0.16548 0.0
C127 C 0.44256 0.17777 0.15641 0.0
C128 C 0.43889 0.17079 0.132 0.0
C129 C 0.44981 0.18494 0.11694 0.0
C130 C 0.46396 0.20572 0.12706 0.0
H131 H 0.45937 0.2045 0.18419 0.0
O132 O 0.5255 0.21698 0.19872 0.0
O133 O 0.51231 0.23335 0.16994 0.0
O134 O 0.49845 0.25291 0.21719 0.0
O135 O 0.47133 0.24758 0.18656 0.0
C136 C 0.44745 0.17916 0.09235 0.0
C137 C 0.45995 0.19381 0.07853 0.0
H138 H 0.4888 0.22496 0.0582 0.0
H139 H 0.51528 0.25955 0.07999 0.0
H140 H 0.43431 0.16691 0.16816 0.0
H141 H 0.42783 0.15448 0.12504 0.0
H142 H 0.43641 0.1633 0.08394 0.0
H143 H 0.45838 0.18894 0.0597 0.0
Mn144 Mn 0.0772 0.79916 0.12354 0.0
Mn145 Mn 0.0332 0.78499 0.07905 0.0
C146 C 0.06507 0.75998 0.10541 0.0
C147 C 0.11593 0.80769 0.14389 0.0
C148 C 0.02605 0.79395 0.13009 0.0
O149 O 0.07582 0.83143 0.11149 0.0
O150 O 0.04587 0.81919 0.08278 0.0
C151 C 0.05666 0.79544 0.03773 0.0
N152 N 0.04317 0.78035 0.04895 0.0
C153 C 0.03415 0.7525 0.01435 0.0
C154 C 0.048 0.76774 1.00242 0.0
C155 C 0.05938 0.78925 0.01419 0.0
C156 C 0.03219 0.75958 0.0378 0.0
H157 H 0.06502 0.81215 0.04661 0.0
C158 C 0.06124 0.83548 0.09488 0.0
O159 O 0.09864 0.81204 0.15354 0.0
O160 O 0.11151 0.80099 0.12134 0.0
N161 N 0.01877 0.75339 0.07335 0.0
C162 C 1.00724 0.74026 0.08789 0.0
C163 C 0.99558 0.71791 0.07917 0.0
C164 C 0.99559 0.70947 0.05553 0.0
C165 C 1.00773 0.72326 0.04098 0.0
C166 C 0.01922 0.74531 0.05073 0.0
H167 H 1.00692 0.74678 0.106 0.0
O168 O 0.07479 0.76582 0.12694 0.0
O169 O 0.06181 0.77752 0.09463 0.0
O170 O 0.04719 0.79889 0.1383 0.0
O171 O 0.01932 0.78856 0.10821 0.0
C172 C 1.00904 0.71597 0.01725 0.0
C173 C 0.02223 0.73058 1.00394 0.0
H174 H 0.05004 0.76309 0.98423 0.0
H175 H 0.07002 0.80112 1.00505 0.0
H176 H 0.98641 0.70732 0.09057 0.0
H177 H 0.9863 0.69234 0.04877 0.0
H178 H 1.00023 0.69905 0.00916 0.0
H179 H 0.0233 0.72469 0.98577 0.0
Mn180 Mn 0.50282 0.7699 0.45121 0.0
Mn181 Mn 0.50096 0.80698 0.40975 0.0
C182 C 0.46682 0.77348 0.42904 0.0
C183 C 0.50695 0.73184 0.46365 0.0
C184 C 0.51105 0.82431 0.46229 0.0
O185 O 0.5359 0.77541 0.44151 0.0
O186 O 0.53003 0.79707 0.41293 0.0
C187 C 0.5033 0.77708 0.3663 0.0
N188 N 0.49309 0.79203 0.37827 0.0
C189 C 0.47574 0.80197 0.34238 0.0
C190 C 0.48593 0.78658 0.32954 0.0
C191 C 0.49938 0.77372 0.34157 0.0
C192 C 0.4789 0.80328 0.36688 0.0
H193 H 0.51476 0.76831 0.37556 0.0
C194 C 0.54234 0.78575 0.42415 0.0
O195 O 0.51207 0.75092 0.47762 0.0
O196 O 0.49907 0.73456 0.44247 0.0
N197 N 0.47371 0.81821 0.40413 0.0
C198 C 0.46414 0.83114 0.41925 0.0
C199 C 0.44903 0.8441 0.41032 0.0
C200 C 0.44498 0.84455 0.38592 0.0
C201 C 0.4553 0.83122 0.37072 0.0
C202 C 0.46875 0.81736 0.38065 0.0
H203 H 0.46803 0.83137 0.43788 0.0
O204 O 0.46742 0.76547 0.44915 0.0
O205 O 0.48679 0.77938 0.42269 0.0
O206 O 0.50861 0.8044 0.46958 0.0
O207 O 0.50927 0.82627 0.4405 0.0
C208 C 0.45343 0.83163 0.3462 0.0
C209 C 0.4634 0.81677 0.33198 0.0
H210 H 0.48376 0.78469 0.31049 0.0
H211 H 0.50745 0.76194 0.33179 0.0
H212 H 0.44118 0.8543 0.42224 0.0
H213 H 0.43405 0.85526 0.37908 0.0
H214 H 0.44374 0.84272 0.33802 0.0
H215 H 0.46122 0.8167 0.31307 0.0
Mn216 Mn 0.57603 0.29849 0.62232 0.0
Mn217 Mn 0.53265 0.28418 0.57717 0.0
C218 C 0.56328 0.25922 0.60436 0.0
C219 C 0.61471 0.30657 0.6429 0.0
C220 C 0.52475 0.29435 0.62779 0.0
O221 O 0.57515 0.3308 0.60993 0.0
O222 O 0.54576 0.31817 0.58073 0.0
C223 C 0.55756 0.29366 0.53656 0.0
N224 N 0.54364 0.27885 0.54769 0.0
C225 C 0.53685 0.24981 0.51423 0.0
C226 C 0.55119 0.26473 0.50241 0.0
C227 C 0.56162 0.28672 0.51365 0.0
C228 C 0.53352 0.25764 0.53704 0.0
H229 H 0.56528 0.31068 0.54503 0.0
C230 C 0.56078 0.33468 0.59299 0.0
O231 O 0.59747 0.3114 0.65236 0.0
O232 O 0.61028 0.29966 0.62039 0.0
N233 N 0.51804 0.25261 0.57178 0.0
C234 C 0.50554 0.24 0.58605 0.0
C235 C 0.49405 0.21756 0.57759 0.0
C236 C 0.49539 0.2084 0.55451 0.0
C237 C 0.50877 0.22153 0.54034 0.0
C238 C 0.51984 0.2438 0.54975 0.0
H239 H 0.50441 0.24697 0.60379 0.0
O240 O 0.57288 0.26488 0.62595 0.0
O241 O 0.56068 0.27685 0.5936 0.0
O242 O 0.54581 0.29908 0.63636 0.0
O243 O 0.5182 0.28845 0.60592 0.0
C244 C 0.51161 0.21341 0.51728 0.0
C245 C 0.52569 0.22751 0.50425 0.0
H246 H 0.55427 0.2595 0.4847 0.0
H247 H 0.57261 0.29836 0.50459 0.0
H248 H 0.48403 0.20744 0.58875 0.0
H249 H 0.48611 0.19124 0.54788 0.0
H250 H 0.5032 0.19628 0.50946 0.0
H251 H 0.52787 0.22101 0.4866 0.0
Mn252 Mn 1.00294 0.27087 0.95234 0.0
Mn253 Mn 1.00486 0.30683 0.91006 0.0
C254 C 0.96765 0.27525 0.92953 0.0
C255 C 1.00684 0.23282 0.9651 0.0
C256 C 0.01531 0.32463 0.96224 0.0
O257 O 0.03653 0.27652 0.94403 0.0
O258 O 0.03132 0.29215 0.91042 0.0
C259 C 0.9995 0.2752 0.86612 0.0
N260 N 0.99251 0.29196 0.87925 0.0
C261 C 0.96991 0.30007 0.84549 0.0
C262 C 0.97675 0.28282 0.83156 0.0
C263 C 0.99132 0.27007 0.842 0.0
C264 C 0.97755 0.30348 0.86963 0.0
H265 H 0.01155 0.26616 0.87394 0.0
C266 C 0.04307 0.28276 0.92469 0.0
O267 O 0.01122 0.25186 0.97911 0.0
O268 O 0.99973 0.23556 0.94369 0.0
N269 N 0.98025 0.32264 0.90734 0.0
C270 C 0.97568 0.3392 0.92299 0.0
C271 C 0.96095 0.35309 0.91547 0.0
C272 C 0.95163 0.35044 0.89173 0.0
C273 C 0.95684 0.33363 0.87582 0.0
C274 C 0.97112 0.31981 0.88448 0.0
H275 H 0.98327 0.34204 0.94105 0.0
O276 O 0.96755 0.2664 0.94916 0.0
O277 O 0.98805 0.28092 0.92386 0.0
O278 O 1.00781 0.30535 0.96976 0.0
O279 O 0.01825 0.32546 0.94074 0.0
C280 C 0.94927 0.33076 0.85151 0.0
C281 C 0.95613 0.31428 0.83632 0.0
H282 H 0.971 0.27929 0.81283 0.0
H283 H 0.99675 0.25679 0.83136 0.0
H284 H 0.95721 0.36617 0.92787 0.0
H285 H 0.94068 0.36155 0.88588 0.0
H286 H 0.93847 0.3414 0.84427 0.0
H287 H 0.95055 0.31252 0.8176 0.0
Mn288 Mn 0.3948 0.02054 0.30906 0.0
Mn289 Mn 0.35512 0.0101 0.34587 0.0
C290 C 0.37933 0.98417 0.3141 0.0
C291 C 0.40575 0.02823 0.27329 0.0
C292 C 0.4055 0.02668 0.36175 0.0
O293 O 0.38465 0.04998 0.31434 0.0
O294 O 0.35568 0.04034 0.33557 0.0
C295 C 0.31276 1.00763 0.31352 0.0
N296 N 0.32537 0.99796 0.32899 0.0
C297 C 0.29321 0.96762 0.33072 0.0
C298 C 0.27984 0.97719 0.31474 0.0
C299 C 0.28975 0.99713 0.30587 0.0
C300 C 0.31627 0.97829 0.33688 0.0
H301 H 0.32014 0.02339 0.30734 0.0
C302 C 0.36787 0.05427 0.32434 0.0
O303 O 0.41974 0.03473 0.29263 0.0
O304 O 0.38501 0.01754 0.27472 0.0
N305 N 0.35252 0.9811 0.35707 0.0
C306 C 0.36803 0.9735 0.37151 0.0
C307 C 0.36116 0.95318 0.38108 0.0
C308 C 0.33822 0.94137 0.37646 0.0
C309 C 0.32251 0.94972 0.36183 0.0
C310 C 0.33061 0.96945 0.35189 0.0
H311 H 0.38554 0.98279 0.37555 0.0
O312 O 0.3988 0.98867 0.3059 0.0
O313 O 0.36921 1.00088 0.31837 0.0
O314 O 0.41169 0.02618 0.3415 0.0
O315 O 0.38474 0.02191 0.36552 0.0
C316 C 0.29902 0.93955 0.3571 0.0
C317 C 0.28444 0.94827 0.34127 0.0
H318 H 0.26194 0.96946 0.30928 0.0
H319 H 0.27953 1.00467 0.29361 0.0
H320 H 0.37342 0.94686 0.39234 0.0
H321 H 0.33286 0.92596 0.38428 0.0
H322 H 0.2921 0.92464 0.36506 0.0
H323 H 0.26655 0.93991 0.33726 0.0
Mn324 Mn 0.26393 0.18924 0.5246 0.0
Mn325 Mn 0.25377 0.14711 0.4784 0.0
C326 C 0.22659 0.16764 0.51195 0.0
C327 C 0.27077 0.20353 0.56584 0.0
C328 C 0.26559 0.19729 0.47195 0.0
O329 O 0.2951 0.18016 0.5243 0.0
O330 O 0.28642 0.15251 0.49289 0.0
C331 C 0.26099 0.10694 0.50131 0.0
N332 N 0.24723 0.11732 0.4878 0.0
C333 C 0.21866 0.08251 0.47785 0.0
C334 C 0.23255 0.07144 0.49162 0.0
C335 C 0.25372 0.08376 0.50353 0.0
C336 C 0.22676 0.10563 0.47634 0.0
H337 H 0.27746 0.1162 0.51015 0.0
C338 C 0.3003 0.16463 0.51018 0.0
O339 O 0.27627 0.21637 0.54979 0.0
O340 O 0.26225 0.18224 0.55813 0.0
N341 N 0.22272 0.14006 0.4637 0.0
C342 C 0.21033 0.15393 0.45359 0.0
C343 C 0.18799 0.14474 0.44242 0.0
C344 C 0.17868 0.12138 0.44169 0.0
C345 C 0.19164 0.10754 0.45262 0.0
C346 C 0.21367 0.11775 0.46379 0.0
H347 H 0.21738 0.17188 0.45436 0.0
O348 O 0.23002 0.18862 0.52186 0.0
O349 O 0.24505 0.16064 0.50789 0.0
O350 O 0.26802 0.20509 0.49388 0.0
O351 O 0.25987 0.17606 0.46476 0.0
C352 C 0.18346 0.08409 0.45322 0.0
C353 C 0.19694 0.07159 0.46584 0.0
H354 H 0.22701 0.05357 0.49338 0.0
H355 H 0.26451 0.07535 0.51424 0.0
H356 H 0.17799 0.15563 0.43436 0.0
H357 H 0.16146 0.11432 0.43301 0.0
H358 H 0.16664 0.0756 0.4444 0.0
H359 H 0.19026 0.05368 0.46658 0.0
Mn360 Mn 0.13701 0.06011 0.7934 0.0
Mn361 Mn 0.18102 0.06982 0.83772 0.0
C362 C 0.15965 0.09712 0.80528 0.0
C363 C 0.12142 0.05254 0.75268 0.0
C364 C 0.13098 0.05736 0.84588 0.0
O365 O 0.14511 0.02851 0.7943 0.0
O366 O 0.17674 0.03811 0.8217 0.0
C367 C 0.22137 0.06654 0.81324 0.0
N368 N 0.21042 0.07871 0.8277 0.0
C369 C 0.2442 0.10859 0.83818 0.0
C370 C 0.25575 0.09647 0.82321 0.0
C371 C 0.24423 0.07541 0.81057 0.0
C372 C 0.22132 0.09908 0.8398 0.0
H373 H 0.21279 0.05012 0.80405 0.0
C374 C 0.16265 0.02386 0.80609 0.0
O375 O 0.10892 0.04857 0.76935 0.0
O376 O 0.14314 0.06005 0.75946 0.0
N377 N 0.18666 0.10022 0.85354 0.0
C378 C 0.1721 0.11122 0.86424 0.0
C379 C 0.18043 0.13313 0.87658 0.0
C380 C 0.20368 0.14345 0.87779 0.0
C381 C 0.21815 0.13205 0.86592 0.0
C382 C 0.20869 0.11049 0.85346 0.0
H383 H 0.15424 0.10345 0.86293 0.0
O384 O 0.13863 0.0942 0.79544 0.0
O385 O 0.16617 0.07849 0.80909 0.0
O386 O 0.12223 0.05739 0.82462 0.0
O387 O 0.1525 0.06127 0.85199 0.0
C388 C 0.2415 0.14131 0.8657 0.0
C389 C 0.25448 0.12971 0.85164 0.0
H390 H 0.27344 0.10317 0.82126 0.0
H391 H 0.25305 0.0659 0.79904 0.0
H392 H 0.16899 0.142 0.88517 0.0
H393 H 0.21013 0.16031 0.88744 0.0
H394 H 0.2495 0.15764 0.87578 0.0
H395 H 0.27226 0.13734 0.85106 0.0
Mn396 Mn 0.3069 0.9316 0.00635 0.0
Mn397 Mn 0.31439 0.96973 0.96754 0.0
C398 C 0.34272 0.94743 0.99955 0.0
C399 C 0.3024 0.92076 0.0426 0.0
C400 C 0.29843 0.91939 0.95375 0.0
O401 O 0.27714 0.94139 1.00294 0.0
O402 O 0.28422 0.96813 0.97841 0.0
C403 C 0.31606 0.01215 0.99915 0.0
N404 N 0.3257 0.99991 0.98336 0.0
C405 C 0.35601 0.03218 0.98192 0.0
C406 C 0.34643 0.04518 0.99816 0.0
C407 C 0.32649 0.03506 0.00697 0.0
C408 C 0.34518 0.00931 0.97524 0.0
H409 H 0.30051 1.00449 0.0056 0.0
C410 C 0.27156 0.9566 0.99125 0.0
O411 O 0.29467 0.90675 0.02356 0.0
O412 O 0.31203 0.94166 0.04074 0.0
N413 N 0.34315 0.97314 0.95566 0.0
C414 C 0.35109 0.95776 0.94153 0.0
C415 C 0.37107 0.965 0.93143 0.0
C416 C 0.38235 0.98805 0.93555 0.0
C417 C 0.37395 1.0035 0.95038 0.0
C418 C 0.35424 0.99519 0.96029 0.0
H419 H 0.34207 0.94017 0.93773 0.0
O420 O 0.33883 0.92788 0.00755 0.0
O421 O 0.32547 0.95707 0.99559 0.0
O422 O 0.29936 0.91415 0.97437 0.0
O423 O 0.30322 0.93972 0.94896 0.0
C424 C 0.38455 0.02677 0.95598 0.0
C425 C 0.37581 0.041 0.97205 0.0
H426 H 0.35427 0.06292 1.00402 0.0
H427 H 0.31902 0.04497 0.01953 0.0
H428 H 0.37754 0.95294 0.92018 0.0
H429 H 0.39765 0.99362 0.92757 0.0
H430 H 0.39968 0.03379 0.94836 0.0
H431 H 0.38444 0.05871 0.97665 0.0
Mn432 Mn 0.31087 0.38459 0.04849 0.0
Mn433 Mn 0.31704 0.42543 0.01163 0.0
C434 C 0.34799 0.40552 0.04301 0.0
C435 C 0.30498 0.37152 0.08642 0.0
C436 C 0.30236 0.37485 0.99377 0.0
O437 O 0.27886 0.3935 0.04501 0.0
O438 O 0.28831 0.42297 0.02459 0.0
C439 C 0.31911 0.46747 0.04382 0.0
N440 N 0.32826 0.45558 0.02731 0.0
C441 C 0.35048 0.48995 0.01706 0.0
C442 C 0.34157 0.50265 0.03418 0.0
C443 C 0.32613 0.49132 0.04792 0.0
C444 C 0.34414 0.4662 0.01502 0.0
H445 H 0.30613 0.45882 0.05326 0.0
C446 C 0.27454 0.4111 0.03607 0.0
O447 O 0.29928 0.3583 0.06659 0.0
O448 O 0.31423 0.3925 0.08447 0.0
N449 N 0.34441 0.42986 0.99735 0.0
C450 C 0.35154 0.41496 0.98189 0.0
C451 C 0.36789 0.42334 0.96757 0.0
C452 C 0.37555 0.44698 0.96821 0.0
C453 C 0.36741 0.46196 0.98382 0.0
C454 C 0.3526 0.45254 0.99898 0.0
H455 H 0.34449 0.39688 0.98024 0.0
O456 O 0.34549 0.3858 0.05073 0.0
O457 O 0.32915 0.41226 0.03873 0.0
O458 O 0.30506 0.36741 0.01374 0.0
O459 O 0.30524 0.39598 0.99208 0.0
C460 C 0.37263 0.48583 0.98429 0.0
C461 C 0.36447 0.49985 1.00116 0.0
H462 H 0.34617 0.5211 0.03665 0.0
H463 H 0.31896 0.50101 0.06095 0.0
H464 H 0.37383 0.41165 0.95537 0.0
H465 H 0.38739 0.45343 0.9564 0.0
H466 H 0.38344 0.49362 0.97222 0.0
H467 H 0.36914 0.51819 1.00179 0.0
Mn468 Mn 0.77051 0.14676 0.06587 0.0
Mn469 Mn 0.75685 0.10349 0.0212 0.0
C470 C 0.73306 0.13125 0.05265 0.0
C471 C 0.7804 0.16127 0.10458 0.0
C472 C 0.77419 0.15246 0.0149 0.0
O473 O 0.79967 0.13564 0.06527 0.0
O474 O 0.78801 0.10534 0.03699 0.0
C475 C 0.75652 0.06301 0.04606 0.0
N476 N 0.74561 0.0747 0.03121 0.0
C477 C 0.71435 0.04238 0.01944 0.0
C478 C 0.72519 0.02999 0.0347 0.0
C479 C 0.7463 0.0404 0.04817 0.0
C480 C 0.72522 0.0649 0.01831 0.0
H481 H 0.77302 0.07079 0.05594 0.0
C482 C 0.80278 0.11816 0.05294 0.0
O483 O 0.78631 0.17324 0.088 0.0
O484 O 0.76889 0.14042 0.09875 0.0
N485 N 0.72692 0.09991 1.00445 0.0
C486 C 0.71827 0.11466 0.99157 0.0
C487 C 0.69699 0.10717 0.97748 0.0
C488 C 0.68508 0.08452 0.9765 0.0
C489 C 0.69418 0.06977 0.99024 0.0
C490 C 0.71532 0.07828 1.00413 0.0
H491 H 0.72768 0.13191 0.99182 0.0
O492 O 0.73912 0.15184 0.06372 0.0
O493 O 0.74918 0.12011 0.04959 0.0
O494 O 0.77507 0.16089 0.03609 0.0
O495 O 0.76801 0.13132 0.0076 0.0
C496 C 0.6831 0.04698 0.99077 0.0
C497 C 0.69316 0.03331 0.00539 0.0
H498 H 0.71746 0.0125 0.03624 0.0
H499 H 0.75481 0.03091 0.05989 0.0
H500 H 0.68996 0.11871 0.96712 0.0
H501 H 0.6688 0.07871 0.96537 0.0
H502 H 0.66673 0.03988 0.98019 0.0
H503 H 0.68437 0.0159 0.00582 0.0
Mn504 Mn 0.18398 0.55837 0.2544 0.0
Mn505 Mn 0.22959 0.5722 0.29693 0.0
C506 C 0.19995 0.59568 0.2682 0.0
C507 C 0.16568 0.54946 0.21643 0.0
C508 C 0.1814 0.55471 0.30602 0.0
O509 O 0.19587 0.52923 0.25367 0.0
O510 O 0.22753 0.54177 0.28017 0.0
C511 C 0.26786 0.57431 0.26842 0.0
N512 N 0.25721 0.58429 0.28499 0.0
C513 C 0.28985 0.6153 0.29609 0.0
C514 C 0.30116 0.60545 0.27904 0.0
C515 C 0.29002 0.58497 0.26499 0.0
C516 C 0.26754 0.60428 0.29818 0.0
H517 H 0.2596 0.55818 0.25817 0.0
C518 C 0.21443 0.52657 0.26487 0.0
O519 O 0.15586 0.54306 0.2342 0.0
O520 O 0.18707 0.56012 0.22044 0.0
N521 N 0.23366 0.6016 0.31467 0.0
C522 C 0.21993 0.60935 0.32953 0.0
C523 C 0.22832 0.62981 0.34464 0.0
C524 C 0.25095 0.64165 0.34484 0.0
C525 C 0.26467 0.63341 0.32922 0.0
C526 C 0.25513 0.61332 0.31409 0.0
H527 H 0.20282 0.59985 0.33007 0.0
O528 O 0.17897 0.59002 0.2579 0.0
O529 O 0.21121 0.5796 0.26965 0.0
O530 O 0.17207 0.55372 0.28513 0.0
O531 O 0.20285 0.56041 0.31231 0.0
C532 C 0.28756 0.64411 0.32833 0.0
C533 C 0.29999 0.63534 0.31147 0.0
H534 H 0.31843 0.61337 0.27669 0.0
H535 H 0.2987 0.57719 0.2519 0.0
H536 H 0.21757 0.63615 0.3565 0.0
H537 H 0.25756 0.65713 0.35694 0.0
H538 H 0.29567 0.65931 0.34031 0.0
H539 H 0.31741 0.64403 0.31062 0.0
Mn540 Mn 0.81315 0.88481 0.55001 0.0
Mn541 Mn 0.81561 0.92607 0.51413 0.0
C542 C 0.84909 0.90745 0.54452 0.0
C543 C 0.80809 0.87107 0.58769 0.0
C544 C 0.80316 0.87546 0.49582 0.0
O545 O 0.78032 0.89151 0.54633 0.0
O546 O 0.78761 0.92375 0.52911 0.0
C547 C 0.8194 0.9684 0.54659 0.0
N548 N 0.8275 0.95635 0.52935 0.0
C549 C 0.85033 0.99045 0.51916 0.0
C550 C 0.84242 1.0033 0.53696 0.0
C551 C 0.82717 0.99217 0.55101 0.0
C552 C 0.84306 0.96675 0.51659 0.0
H553 H 0.80681 0.95995 0.55652 0.0
C554 C 0.77485 0.90961 0.53958 0.0
O555 O 0.80351 0.85786 0.56781 0.0
O556 O 0.81571 0.89247 0.5859 0.0
N557 N 0.84218 0.93034 0.4984 0.0
C558 C 0.84931 0.91524 0.48316 0.0
C559 C 0.86554 0.92339 0.46862 0.0
C560 C 0.87334 0.94699 0.46907 0.0
C561 C 0.8656 0.96216 0.48485 0.0
C562 C 0.8507 0.95295 0.50003 0.0
H563 H 0.84242 0.89718 0.48183 0.0
O564 O 0.84783 0.88782 0.55226 0.0
O565 O 0.82963 0.91326 0.54055 0.0
O566 O 0.80861 0.86825 0.51534 0.0
O567 O 0.80291 0.89634 0.49469 0.0
C568 C 0.87166 0.98605 0.4858 0.0
C569 C 0.8644 1.0002 0.50325 0.0
H570 H 0.84772 0.0217 0.53982 0.0
H571 H 0.82082 1.00197 0.56464 0.0
H572 H 0.87139 0.91156 0.4565 0.0
H573 H 0.88523 0.95327 0.45723 0.0
H574 H 0.8826 0.99371 0.47377 0.0
H575 H 0.86982 0.01853 0.50433 0.0
Mn576 Mn 0.94014 0.0112 0.26691 0.0
Mn577 Mn 0.89986 0.00804 0.30475 0.0
C578 C 0.9168 0.9756 0.27207 0.0
C579 C 0.9536 0.01604 0.22907 0.0
C580 C 0.95087 0.01625 0.32179 0.0
O581 O 0.9345 0.04408 0.27099 0.0
O582 O 0.90698 0.03846 0.29472 0.0
C583 C 0.85985 0.01417 0.27319 0.0
N584 N 0.86939 1.00216 0.28875 0.0
C585 C 0.83239 0.98194 0.29533 0.0
C586 C 0.8221 0.99381 0.27909 0.0
C587 C 0.8359 0.00979 0.26774 0.0
C588 C 0.85628 0.9861 0.29898 0.0
H589 H 0.87042 0.0273 0.26544 0.0
C590 C 0.91955 0.05096 0.2826 0.0
O591 O 0.96705 0.02014 0.24882 0.0
O592 O 0.93206 0.0091 0.23104 0.0
N593 N 0.89064 0.97971 0.31639 0.0
C594 C 0.90334 0.96893 0.33051 0.0
C595 C 0.8924 0.95301 0.3439 0.0
C596 C 0.8685 0.94891 0.34309 0.0
C597 C 0.8557 0.95961 0.32769 0.0
C598 C 0.86759 0.97464 0.31418 0.0
H599 H 0.92161 0.97269 0.33158 0.0
O600 O 0.93645 0.9767 0.26431 0.0
O601 O 0.91124 0.99507 0.27664 0.0
O602 O 0.95763 0.01554 0.3014 0.0
O603 O 0.92986 0.0139 0.32449 0.0
C604 C 0.83165 0.9562 0.32539 0.0
C605 C 0.81996 0.96685 0.30874 0.0
H606 H 0.80364 0.99107 0.27548 0.0
H607 H 0.82808 0.01923 0.25542 0.0
H608 H 0.9024 0.94444 0.3553 0.0
H609 H 0.86012 0.93715 0.35399 0.0
H610 H 0.82195 0.94488 0.33583 0.0
H611 H 0.80145 0.96363 0.30669 0.0
Mn612 Mn 0.26952 0.64576 0.56376 0.0
Mn613 Mn 0.25953 0.60096 0.52109 0.0
C614 C 0.23293 0.62758 0.54929 0.0
C615 C 0.27777 0.66243 0.60202 0.0
C616 C 0.27508 0.64968 0.51289 0.0
O617 O 0.29995 0.6365 0.56473 0.0
O618 O 0.28989 0.60407 0.53898 0.0
C619 C 0.25767 0.56243 0.54911 0.0
N620 N 0.24779 0.57289 0.53224 0.0
C621 C 0.2171 0.54006 0.52058 0.0
C622 C 0.22689 0.5289 0.53786 0.0
C623 C 0.24714 0.54023 0.55234 0.0
C624 C 0.22801 0.56237 0.51862 0.0
H625 H 0.27356 0.57091 0.55979 0.0
C626 C 0.30402 0.61842 0.55427 0.0
O627 O 0.28327 0.67364 0.58481 0.0
O628 O 0.26768 0.64101 0.59712 0.0
N629 N 0.23038 0.59626 0.50237 0.0
C630 C 0.22239 0.61003 0.48768 0.0
C631 C 0.2019 0.6016 0.47246 0.0
C632 C 0.19022 0.57895 0.47206 0.0
C633 C 0.19875 0.56517 0.48746 0.0
C634 C 0.21888 0.57471 0.50267 0.0
H635 H 0.23168 0.62723 0.48743 0.0
O636 O 0.23698 0.64834 0.55988 0.0
O637 O 0.25022 0.61798 0.54791 0.0
O638 O 0.27387 0.65857 0.53344 0.0
O639 O 0.2712 0.6283 0.50664 0.0
C640 C 0.18819 0.54229 0.4882 0.0
C641 C 0.19712 0.52986 0.50501 0.0
H642 H 0.21904 0.51165 0.54015 0.0
H643 H 0.25482 0.5317 0.56568 0.0
H644 H 0.19537 0.61239 0.46075 0.0
H645 H 0.17465 0.57237 0.45997 0.0
H646 H 0.17297 0.5342 0.47615 0.0
H647 H 0.18852 0.51245 0.50575 0.0
Mn648 Mn 0.43688 0.51156 0.76582 0.0
Mn649 Mn 0.39539 0.50744 0.80183 0.0
C650 C 0.41515 0.47522 0.77175 0.0
C651 C 0.44924 0.51611 0.72752 0.0
C652 C 0.44619 0.52029 0.82048 0.0
O653 O 0.42914 0.54392 0.7687 0.0
O654 O 0.39833 0.53555 0.78766 0.0
C655 C 0.35341 0.50441 0.76858 0.0
N656 N 0.36503 0.49634 0.78626 0.0
C657 C 0.33029 0.47437 0.79622 0.0
C658 C 0.31784 0.48231 0.77803 0.0
C659 C 0.3295 0.49709 0.76389 0.0
C660 C 0.35411 0.48121 0.7991 0.0
H661 H 0.36234 0.51653 0.75845 0.0
C662 C 0.4111 0.54872 0.77633 0.0
O663 O 0.4632 0.5214 0.74697 0.0
O664 O 0.42809 0.50812 0.73008 0.0
N665 N 0.3904 0.48077 0.81715 0.0
C666 C 0.40522 0.47335 0.83254 0.0
C667 C 0.39653 0.45811 0.84779 0.0
C668 C 0.37276 0.45144 0.84765 0.0
C669 C 0.35789 0.45918 0.83143 0.0
C670 C 0.36758 0.47329 0.81584 0.0
H671 H 0.42345 0.47941 0.83353 0.0
O672 O 0.43494 0.4771 0.76416 0.0
O673 O 0.4087 0.49425 0.77553 0.0
O674 O 0.45406 0.51712 0.80079 0.0
O675 O 0.42497 0.51898 0.82133 0.0
C676 C 0.33384 0.4536 0.83016 0.0
C677 C 0.32004 0.4606 0.81211 0.0
H678 H 0.29935 0.47732 0.7749 0.0
H679 H 0.32001 0.50338 0.74992 0.0
H680 H 0.40813 0.45214 0.86015 0.0
H681 H 0.3661 0.44023 0.85992 0.0
H682 H 0.32579 0.44305 0.84229 0.0
H683 H 0.3016 0.45546 0.81073 0.0
Mn684 Mn 0.68251 0.05836 0.75413 0.0
Mn685 Mn 0.72785 0.07376 0.79652 0.0
C686 C 0.69819 0.09605 0.76675 0.0
C687 C 0.66461 0.04888 0.71639 0.0
C688 C 0.67957 0.05683 0.80608 0.0
O689 O 0.69424 0.02925 0.75447 0.0
O690 O 0.72525 0.0425 0.78157 0.0
C691 C 0.76554 0.07361 0.76751 0.0
N692 N 0.75541 0.08454 0.78388 0.0
C693 C 0.78914 0.11431 0.79472 0.0
C694 C 0.79994 0.10352 0.77782 0.0
C695 C 0.78798 0.08323 0.76394 0.0
C696 C 0.7664 0.10454 0.79659 0.0
H697 H 0.75669 0.0575 0.7576 0.0
C698 C 0.71225 0.02675 0.76678 0.0
O699 O 0.65459 0.04262 0.73412 0.0
O700 O 0.68602 0.0594 0.7203 0.0
N701 N 0.73265 0.1038 0.81293 0.0
C702 C 0.71947 0.11231 0.82794 0.0
C703 C 0.72883 0.13246 0.84324 0.0
C704 C 0.75189 0.14304 0.84365 0.0
C705 C 0.76507 0.13401 0.82794 0.0
C706 C 0.75448 0.11451 0.81236 0.0
H707 H 0.70206 0.10361 0.82845 0.0
O708 O 0.67721 0.08994 0.75657 0.0
O709 O 0.70963 0.08019 0.76879 0.0
O710 O 0.67038 0.05425 0.78493 0.0
O711 O 0.70099 0.06358 0.81229 0.0
C712 C 0.78841 0.14333 0.82738 0.0
C713 C 0.80026 0.13386 0.81036 0.0
H714 H 0.81749 0.1105 0.77556 0.0
H715 H 0.79626 0.0747 0.75102 0.0
H716 H 0.7185 0.13942 0.85517 0.0
H717 H 0.75927 0.15819 0.856 0.0
H718 H 0.7972 0.1582 0.83949 0.0
H719 H 0.81801 0.14156 0.8097 0.0
Mn720 Mn 0.76345 0.68946 0.02505 0.0
Mn721 Mn 0.75654 0.64789 0.97875 0.0
C722 C 0.72658 0.66638 0.01228 0.0
C723 C 0.77051 0.70402 0.06617 0.0
C724 C 0.76798 0.69863 0.9739 0.0
O725 O 0.7958 0.68285 0.02427 0.0
O726 O 0.78744 0.65143 0.99693 0.0
C727 C 0.75957 0.60452 0.99737 0.0
N728 N 0.74756 0.61696 0.98453 0.0
C729 C 0.7196 0.58317 0.9675 0.0
C730 C 0.73161 0.5701 0.98077 0.0
C731 C 0.7516 0.58086 0.99589 0.0
C732 C 0.72833 0.6067 0.9698 0.0
H733 H 0.77532 0.61253 0.00828 0.0
C734 C 0.80109 0.66546 0.0131 0.0
O735 O 0.77407 0.71695 0.04982 0.0
O736 O 0.76368 0.68238 0.05888 0.0
N737 N 0.72693 0.64303 0.96085 0.0
C738 C 0.71642 0.65836 0.95088 0.0
C739 C 0.69525 0.65068 0.93664 0.0
C740 C 0.6852 0.6273 0.93267 0.0
C741 C 0.69624 0.61188 0.94337 0.0
C742 C 0.71712 0.62062 0.95769 0.0
H743 H 0.72412 0.67628 0.95382 0.0
O744 O 0.72955 0.68707 0.02281 0.0
O745 O 0.74547 0.66006 0.00798 0.0
O746 O 0.7655 0.70598 0.99487 0.0
O747 O 0.76614 0.67759 0.96722 0.0
C748 C 0.6873 0.58821 0.94051 0.0
C749 C 0.6991 0.57383 0.95237 0.0
H750 H 0.72553 0.55184 0.97962 0.0
H751 H 0.76103 0.57088 0.00611 0.0
H752 H 0.68678 0.66273 0.9286 0.0
H753 H 0.66895 0.6214 0.92153 0.0
H754 H 0.67129 0.58092 0.92935 0.0
H755 H 0.69197 0.55569 0.95018 0.0
Mn756 Mn 0.89406 0.52165 0.81016 0.0
Mn757 Mn 0.8544 0.50986 0.8467 0.0
C758 C 0.88042 0.48502 0.81535 0.0
C759 C 0.90387 0.52777 0.7737 0.0
C760 C 0.90441 0.52822 0.86316 0.0
O761 O 0.88241 0.55006 0.81425 0.0
O762 O 0.85522 0.54075 0.8376 0.0
C763 C 0.81239 0.50812 0.81403 0.0
N764 N 0.8247 0.49818 0.82951 0.0
C765 C 0.79283 0.46685 0.82898 0.0
C766 C 0.77978 0.47671 0.81297 0.0
C767 C 0.78966 0.49735 0.80534 0.0
C768 C 0.81549 0.47814 0.83663 0.0
H769 H 0.81984 0.52421 0.80853 0.0
C770 C 0.86678 0.55466 0.82585 0.0
O771 O 0.91815 0.53611 0.79257 0.0
O772 O 0.88362 0.51666 0.77605 0.0
N773 N 0.85156 0.48051 0.85699 0.0
C774 C 0.86716 0.47225 0.8706 0.0
C775 C 0.86014 0.45178 0.87984 0.0
C776 C 0.83714 0.44017 0.87514 0.0
C777 C 0.82159 0.4486 0.86034 0.0
C778 C 0.82965 0.46897 0.85152 0.0
H779 H 0.88476 0.48128 0.87444 0.0
O780 O 0.90025 0.49086 0.80819 0.0
O781 O 0.8691 0.50096 0.81942 0.0
O782 O 0.91095 0.52932 0.84305 0.0
O783 O 0.88379 0.52118 0.86649 0.0
C784 C 0.79856 0.43732 0.85355 0.0
C785 C 0.78427 0.4463 0.83765 0.0
H786 H 0.76218 0.46858 0.80642 0.0
H787 H 0.77969 0.50507 0.79302 0.0
H788 H 0.87235 0.44511 0.89077 0.0
H789 H 0.83174 0.42446 0.88243 0.0
H790 H 0.79184 0.42145 0.86 0.0
H791 H 0.76674 0.43723 0.83218 0.0
Mn792 Mn 0.80437 0.43151 0.50638 0.0
Mn793 Mn 0.81614 0.47048 0.46907 0.0
C794 C 0.84134 0.44697 0.50303 0.0
C795 C 0.79631 0.41914 0.54139 0.0
C796 C 0.79948 0.42028 0.45408 0.0
O797 O 0.77464 0.44117 0.49901 0.0
O798 O 0.78584 0.47081 0.47888 0.0
C799 C 0.82021 0.51322 0.5011 0.0
N800 N 0.82896 0.50031 0.48513 0.0
C801 C 0.86044 0.53133 0.48325 0.0
C802 C 0.8516 0.54513 0.49942 0.0
C803 C 0.83156 0.53593 0.50863 0.0
C804 C 0.8487 0.5087 0.4769 0.0
H805 H 0.80478 0.50616 0.50803 0.0
C806 C 0.771 0.45788 0.48849 0.0
O807 O 0.7898 0.40616 0.52152 0.0
O808 O 0.8059 0.4404 0.54093 0.0
N809 N 0.84513 0.472 0.45797 0.0
C810 C 0.85221 0.45593 0.44387 0.0
C811 C 0.87214 0.46215 0.43338 0.0
C812 C 0.88429 0.4849 0.43709 0.0
C813 C 0.87688 0.50105 0.45201 0.0
C814 C 0.85709 0.49377 0.46221 0.0
H815 H 0.84248 0.4386 0.44025 0.0
O816 O 0.83626 0.42762 0.51121 0.0
O817 O 0.82473 0.45707 0.49758 0.0
O818 O 0.80032 0.41461 0.47447 0.0
O819 O 0.80355 0.44082 0.44981 0.0
C820 C 0.88839 0.52408 0.45723 0.0
C821 C 0.8804 0.53912 0.47315 0.0
H822 H 0.86014 0.56273 0.50504 0.0
H823 H 0.82475 0.5464 0.52129 0.0
H824 H 0.87787 0.44954 0.42208 0.0
H825 H 0.89952 0.4897 0.42875 0.0
H826 H 0.90359 0.53033 0.44936 0.0
H827 H 0.88971 0.55663 0.47745 0.0
Mn828 Mn 0.63794 0.55957 0.29136 0.0
Mn829 Mn 0.6809 0.57054 0.33649 0.0
C830 C 0.65938 0.59733 0.30254 0.0
C831 C 0.6228 0.55099 0.25041 0.0
C832 C 0.63067 0.55458 0.34281 0.0
O833 O 0.6477 0.52848 0.29337 0.0
O834 O 0.68057 0.54031 0.3189 0.0
C835 C 0.72473 0.57353 0.31673 0.0
N836 N 0.7109 0.58333 0.32984 0.0
C837 C 0.74167 0.61544 0.34476 0.0
C838 C 0.75638 0.6053 0.33197 0.0
C839 C 0.7478 0.58436 0.31768 0.0
C840 C 0.71895 0.60363 0.34342 0.0
H841 H 0.71811 0.55775 0.30547 0.0
C842 C 0.66677 0.52528 0.30368 0.0
O843 O 0.61027 0.54687 0.267 0.0
O844 O 0.64442 0.55907 0.25737 0.0
N845 N 0.68219 0.59981 0.35359 0.0
C846 C 0.66538 0.6079 0.36357 0.0
C847 C 0.67047 0.62974 0.37647 0.0
C848 C 0.69286 0.64291 0.37922 0.0
C849 C 0.70983 0.63426 0.36865 0.0
C850 C 0.70358 0.61261 0.35552 0.0
H851 H 0.64819 0.59786 0.36166 0.0
O852 O 0.63838 0.59332 0.29236 0.0
O853 O 0.66658 0.57918 0.30729 0.0
O854 O 0.62221 0.55729 0.32221 0.0
O855 O 0.65215 0.55745 0.34839 0.0
C856 C 0.73265 0.64634 0.37047 0.0
C857 C 0.7486 0.63689 0.35862 0.0
H858 H 0.77414 0.61369 0.33254 0.0
H859 H 0.75893 0.57662 0.30739 0.0
H860 H 0.65722 0.63634 0.3844 0.0
H861 H 0.69678 0.65969 0.38933 0.0
H862 H 0.73806 0.66303 0.38071 0.0
H863 H 0.76605 0.64644 0.35997 0.0
Tb864 Tb 0.06489 0.04885 0.04874 0.0
C865 C 0.99097 0.96963 0.99085 0.0
N866 N 1.00362 0.98973 0.98645 0.0
C867 C 1.0093 0.97171 0.94898 0.0
C868 C 0.98776 0.94961 0.97475 0.0
C869 C 0.01197 0.9911 0.96539 0.0
C870 C 0.99744 0.95079 0.95382 0.0
C871 C 0.96556 0.94917 0.01513 0.0
C872 C 0.97997 0.96942 0.01085 0.0
C873 C 0.96327 0.92901 0.99972 0.0
C874 C 0.97429 0.92924 0.97956 0.0
Tb875 Tb 1.00641 0.02004 0.01495 0.0
N876 N 0.98205 0.98932 0.02513 0.0
C877 C 0.95306 0.94998 0.03418 0.0
C878 C 0.96815 0.99049 0.04239 0.0
C879 C 0.95406 0.97082 0.04761 0.0
H880 H 0.01972 1.00714 0.96045 0.0
H881 H 0.94373 0.97182 0.06178 0.0
H882 H 0.05962 0.05955 0.10614 0.0
H883 H 0.11694 0.09823 0.99382 0.0
H884 H 0.96794 1.0066 0.05241 0.0
H885 H 0.94185 0.9348 0.03804 0.0
H886 H 0.09383 0.06363 1.00505 0.0
H887 H 0.016 0.97303 0.93238 0.0
H888 H 0.95238 0.91331 1.00283 0.0
H889 H 0.97175 0.9137 0.96744 0.0
H890 H 0.06981 0.09242 0.13715 0.0
H891 H 0.99516 0.93585 0.94092 0.0
H892 H 0.12551 0.13415 0.0212 0.0
N893 N 0.0727 0.07825 0.07932 0.0
C894 C 0.08514 0.09831 0.07469 0.0
C895 C 0.07391 0.09444 0.11956 0.0
C896 C 0.09192 0.1174 0.09217 0.0
C897 C 0.06775 0.07594 0.10175 0.0
C898 C 0.08582 0.11534 0.1147 0.0
N899 N 0.08704 0.08002 0.03708 0.0
C900 C 0.09653 0.07928 0.01659 0.0
C901 C 0.10654 0.11929 0.04767 0.0
C902 C 0.09256 0.09922 0.05285 0.0
C903 C 0.11479 0.11907 0.02587 0.0
C904 C 0.10998 0.09886 0.01038 0.0
H905 H 0.09087 0.12956 0.12864 0.0
H906 H 0.1106 0.15249 0.1001 0.0
H907 H 0.12322 0.1542 0.06102 0.0
O908 O 0.09364 0.03589 0.04146 0.0
O909 O 0.05184 0.07267 0.02616 0.0
O910 O 0.0131 0.05877 0.02304 0.0
O911 O 0.08888 0.04713 0.07752 0.0
O912 O 0.06343 0.03051 0.01285 0.0
O913 O 0.03078 0.03638 0.9932 0.0
O914 O 0.97736 0.03246 0.0201 0.0
O915 O 0.02917 0.99549 0.02286 0.0
O916 O 0.05108 0.01367 0.05714 0.0
O917 O 0.982 0.01761 0.98488 0.0
O918 O 1.00861 0.01904 0.05311 0.0
O919 O 0.03515 0.05107 0.0683 0.0
C920 C 0.03072 0.0756 0.02122 0.0
C921 C 0.12293 0.03278 0.07251 0.0
C922 C 0.15541 0.01707 0.06425 0.0
C923 C 0.1623 0.01786 0.08837 0.0
C924 C 0.12983 0.03389 0.09676 0.0
C925 C 0.14956 0.02648 0.10464 0.0
C926 C 0.13598 0.02465 0.05637 0.0
C927 C 0.05199 0.03417 0.9933 0.0
C928 C 0.10155 0.0387 0.06374 0.0
C929 C 0.10529 0.13765 0.08691 0.0
C930 C 0.1125 0.13862 0.06467 0.0
C931 C 0.04208 0.99453 0.04283 0.0
C932 C 0.94693 0.0311 0.98905 0.0
C933 C 0.91284 0.04386 0.99777 0.0
C934 C 0.90503 0.04149 0.9736 0.0
C935 C 0.93928 0.02876 0.96488 0.0
C936 C 0.93353 0.03838 0.00531 0.0
C937 C 0.91827 0.0339 0.95721 0.0
C938 C 0.01764 0.03489 0.07071 0.0
C939 C 0.96904 0.02684 0.99792 0.0
H940 H 0.17744 0.01188 0.09452 0.0
H941 H 0.11985 0.04011 0.10955 0.0
H942 H 0.15481 0.02717 0.1233 0.0
H943 H 0.13079 0.02363 0.03759 0.0
H944 H 0.88904 0.04595 0.96745 0.0
H945 H 0.94957 0.02323 0.95203 0.0
H946 H 0.93926 0.04002 0.02404 0.0
H947 H 0.91239 0.03228 0.93857 0.0
Tb948 Tb 0.27396 0.78421 0.30812 0.0
C949 C 0.33241 0.74576 0.22514 0.0
N950 N 0.33899 0.76196 0.24419 0.0
C951 C 0.37323 0.74799 0.25306 0.0
C952 C 0.3453 0.72918 0.22009 0.0
C953 C 0.35975 0.76397 0.25734 0.0
C954 C 0.36575 0.73021 0.23464 0.0
C955 C 0.30538 0.7299 0.19028 0.0
C956 C 0.31297 0.74626 0.21029 0.0
C957 C 0.3176 0.71273 0.18566 0.0
C958 C 0.33757 0.71241 0.2005 0.0
Tb959 Tb 0.31439 0.7859 0.25078 0.0
N960 N 0.30119 0.76264 0.21592 0.0
C961 C 0.28578 0.73135 0.17557 0.0
C962 C 0.28303 0.76508 0.20074 0.0
C963 C 0.2748 0.74927 0.18062 0.0
H964 H 0.36637 0.77828 0.27064 0.0
H965 H 0.26002 0.75095 0.16899 0.0
H966 H 0.22173 0.79102 0.29248 0.0
H967 H 0.3408 0.83085 0.3775 0.0
H968 H 0.27482 0.77921 0.20392 0.0
H969 H 0.2793 0.71906 0.16005 0.0
H970 H 0.32225 0.79869 0.34849 0.0
H971 H 0.38951 0.74956 0.26381 0.0
H972 H 0.31192 0.69982 0.17051 0.0
H973 H 0.34707 0.69933 0.19651 0.0
H974 H 0.19826 0.81908 0.30166 0.0
H975 H 0.37622 0.71784 0.23134 0.0
H976 H 0.32121 0.86229 0.38694 0.0
N977 N 0.25035 0.80817 0.3173 0.0
C978 C 0.25899 0.82617 0.33412 0.0
C979 C 0.21535 0.82132 0.31091 0.0
C980 C 0.24637 0.84289 0.33962 0.0
C981 C 0.22875 0.80543 0.30576 0.0
C982 C 0.22425 0.84021 0.32782 0.0
N983 N 0.29228 0.81151 0.33921 0.0
C984 C 0.31334 0.81214 0.3513 0.0
C985 C 0.29085 0.84688 0.36245 0.0
C986 C 0.28083 0.82805 0.34532 0.0
C987 C 0.31286 0.84809 0.37375 0.0
C988 C 0.32399 0.83045 0.36839 0.0
H989 H 0.21395 0.85264 0.33159 0.0
H990 H 0.24701 0.87498 0.36074 0.0
H991 H 0.28609 0.87854 0.38068 0.0
O992 O 0.27367 0.76077 0.33204 0.0
O993 O 0.28351 0.81667 0.29624 0.0
O994 O 0.31509 0.80791 0.28348 0.0
O995 O 0.24268 0.76157 0.30983 0.0
O996 O 0.30736 0.77364 0.31506 0.0
O997 O 0.33248 0.78373 0.28693 0.0
O998 O 0.31387 0.8132 0.2311 0.0
O999 O 0.29358 0.75184 0.24888 0.0
O1000 O 0.28808 0.77086 0.27992 0.0
O1001 O 0.34546 0.80347 0.24225 0.0
O1002 O 0.27875 0.79327 0.24455 0.0
O1003 O 0.25387 0.78116 0.27255 0.0
C1004 C 0.30158 0.82224 0.28577 0.0
C1005 C 0.24028 0.75177 0.34855 0.0
C1006 C 0.23993 0.73853 0.38664 0.0
C1007 C 0.22332 0.75092 0.39185 0.0
C1008 C 0.22385 0.76447 0.35372 0.0
C1009 C 0.21531 0.76389 0.37535 0.0
C1010 C 0.24808 0.73879 0.36502 0.0
C1011 C 0.32793 0.77654 0.30762 0.0
C1012 C 0.25169 0.75316 0.32752 0.0
C1013 C 0.25633 0.86181 0.35643 0.0
C1014 C 0.27858 0.86385 0.36776 0.0
C1015 C 0.28346 0.75139 0.26713 0.0
C1016 C 0.34223 0.81756 0.20576 0.0
C1017 C 0.33863 0.83382 0.16938 0.0
C1018 C 0.35571 0.82337 0.16144 0.0
C1019 C 0.35935 0.80698 0.1978 0.0
C1020 C 0.33197 0.83098 0.19144 0.0
C1021 C 0.36603 0.80993 0.17568 0.0
C1022 C 0.25807 0.78869 0.25206 0.0
C1023 C 0.33561 0.81596 0.22931 0.0
H1024 H 0.21688 0.75079 0.40868 0.0
H1025 H 0.21792 0.77501 0.34137 0.0
H1026 H 0.20272 0.77373 0.37945 0.0
H1027 H 0.26112 0.7293 0.36132 0.0
H1028 H 0.36115 0.8258 0.1444 0.0
H1029 H 0.36771 0.79666 0.20867 0.0
H1030 H 0.31901 0.83951 0.19754 0.0
H1031 H 0.37934 0.80197 0.16966 0.0
Tb1032 Tb 0.511 0.03992 0.54494 0.0
C1033 C 0.59093 0.08975 0.49869 0.0
N1034 N 0.57769 0.06842 0.49203 0.0
C1035 C 0.57248 0.07665 0.45209 0.0
C1036 C 0.59443 0.10565 0.48247 0.0
C1037 C 0.57001 0.06129 0.46862 0.0
C1038 C 0.58431 0.09907 0.45912 0.0
C1039 C 0.61825 0.11611 0.52826 0.0
C1040 C 0.60274 0.09507 0.52135 0.0
C1041 C 0.62075 0.13238 0.51253 0.0
C1042 C 0.60881 0.1272 0.48972 0.0
Tb1043 Tb 0.57476 0.046 0.52202 0.0
N1044 N 0.59963 0.07919 0.53641 0.0
C1045 C 0.6313 0.11981 0.55051 0.0
C1046 C 0.61358 0.08188 0.55725 0.0
C1047 C 0.62926 0.10244 0.56489 0.0
H1048 H 0.56229 0.04369 0.46222 0.0
H1049 H 0.63989 0.1048 0.58172 0.0
H1050 H 0.52361 0.03952 0.60401 0.0
H1051 H 0.45218 0.98091 0.47838 0.0
H1052 H 0.61258 0.06808 0.5678 0.0
H1053 H 0.64348 0.13572 0.55644 0.0
H1054 H 0.47878 0.01735 0.49424 0.0
H1055 H 0.56572 0.07102 0.43378 0.0
H1056 H 0.63237 0.14877 0.5176 0.0
H1057 H 0.6115 0.13966 0.47753 0.0
H1058 H 0.51565 0.01196 0.63168 0.0
H1059 H 0.58657 0.11079 0.44615 0.0
H1060 H 0.44271 0.95128 0.50431 0.0
N1061 N 0.50544 0.01682 0.5738 0.0
C1062 C 0.49031 0.99661 0.5664 0.0
C1063 C 0.50873 1.00728 0.61329 0.0
C1064 C 0.48474 0.98056 0.5821 0.0
C1065 C 0.51367 0.02275 0.59721 0.0
C1066 C 0.49447 0.986 0.60567 0.0
N1067 N 0.48582 1.00759 0.52804 0.0
C1068 C 0.47554 1.00416 0.50532 0.0
C1069 C 0.46451 0.97114 0.53485 0.0
C1070 C 0.48 0.99198 0.543 0.0
C1071 C 0.45469 0.96708 0.51124 0.0
C1072 C 0.46009 0.98374 0.49649 0.0
H1073 H 0.49058 0.97413 0.61826 0.0
H1074 H 0.46503 0.94723 0.58577 0.0
H1075 H 0.44752 0.93893 0.54443 0.0
O1076 O 0.47883 0.04809 0.53284 0.0
O1077 O 0.52162 1.00681 0.5325 0.0
O1078 O 0.55338 0.01077 0.51138 0.0
O1079 O 0.49489 0.05653 0.56939 0.0
O1080 O 0.52326 0.05285 0.51416 0.0
O1081 O 0.54581 0.03396 0.49497 0.0
O1082 O 0.59906 0.02903 0.5376 0.0
O1083 O 0.56739 0.0775 0.54289 0.0
O1084 O 0.52801 0.0743 0.53747 0.0
O1085 O 0.60202 0.04072 0.50403 0.0
O1086 O 0.56194 0.03244 0.55241 0.0
O1087 O 0.54 0.05193 0.57197 0.0
C1088 C 0.53578 0.99799 0.5195 0.0
C1089 C 0.45799 0.06607 0.56195 0.0
C1090 C 0.42761 0.08762 0.55718 0.0
C1091 C 0.42333 0.08474 0.58026 0.0
C1092 C 0.45306 0.06338 0.58489 0.0
C1093 C 0.43585 0.0726 0.5939 0.0
C1094 C 0.4449 0.078 0.54784 0.0
C1095 C 0.52632 0.04007 0.49581 0.0
C1096 C 0.47771 0.05748 0.55397 0.0
C1097 C 0.4694 0.95975 0.57394 0.0
C1098 C 0.45936 0.95505 0.5504 0.0
C1099 C 0.54905 0.08681 0.54377 0.0
C1100 C 0.61595 0.00782 0.50983 0.0
C1101 C 0.64274 0.98225 0.50879 0.0
C1102 C 0.63001 0.97019 0.48783 0.0
C1103 C 0.60314 0.99507 0.48919 0.0
C1104 C 0.63559 1.00108 0.51986 0.0
C1105 C 0.61021 0.97643 0.47826 0.0
C1106 C 0.55919 0.04526 0.57093 0.0
C1107 C 0.61023 0.02931 0.51949 0.0
H1108 H 0.41015 0.09193 0.58775 0.0
H1109 H 0.46273 0.05427 0.59603 0.0
H1110 H 0.43234 0.07052 0.61165 0.0
H1111 H 0.44859 0.08039 0.53018 0.0
H1112 H 0.63528 0.95572 0.47901 0.0
H1113 H 0.58797 0.99988 0.48116 0.0
H1114 H 0.64562 0.01081 0.53576 0.0
H1115 H 0.60044 0.96692 0.46217 0.0
Tb1116 Tb 0.31715 0.27827 0.78516 0.0
C1117 C 0.23558 0.31151 0.7338 0.0
N1118 N 0.25026 0.32064 0.75364 0.0
C1119 C 0.25565 0.3574 0.74013 0.0
C1120 C 0.23135 0.32476 0.71573 0.0
C1121 C 0.25924 0.34359 0.75757 0.0
C1122 C 0.24197 0.34788 0.71894 0.0
C1123 C 0.20872 0.27882 0.7117 0.0
C1124 C 0.22425 0.28889 0.73187 0.0
C1125 C 0.20507 0.29172 0.6933 0.0
C1126 C 0.21633 0.31465 0.69532 0.0
Tb1127 Tb 0.25537 0.29575 0.78012 0.0
N1128 N 0.22849 0.27681 0.74985 0.0
C1129 C 0.19721 0.25613 0.71075 0.0
C1130 C 0.21639 0.25511 0.74957 0.0
C1131 C 0.20083 0.24433 0.72992 0.0
H1132 H 0.26897 0.35157 0.7742 0.0
H1133 H 0.19147 0.22702 0.72968 0.0
H1134 H 0.30931 0.2227 0.79262 0.0
H1135 H 0.37627 0.35114 0.83422 0.0
H1136 H 0.21824 0.24625 0.76467 0.0
H1137 H 0.18513 0.24775 0.69556 0.0
H1138 H 0.35052 0.32927 0.79942 0.0
H1139 H 0.26323 0.37545 0.74317 0.0
H1140 H 0.19334 0.28423 0.67756 0.0
H1141 H 0.21305 0.3245 0.68116 0.0
H1142 H 0.3161 0.20067 0.82513 0.0
H1143 H 0.23915 0.35865 0.7055 0.0
H1144 H 0.38242 0.33289 0.87023 0.0
N1145 N 0.32327 0.25506 0.81316 0.0
C1146 C 0.33599 0.26591 0.83366 0.0
C1147 C 0.32144 0.21906 0.8279 0.0
C1148 C 0.3411 0.2538 0.85245 0.0
C1149 C 0.31717 0.23175 0.80962 0.0
C1150 C 0.3331 0.23016 0.84956 0.0
N1151 N 0.34078 0.29996 0.81639 0.0
C1152 C 0.35264 0.32155 0.81531 0.0
C1153 C 0.36023 0.30058 0.85527 0.0
C1154 C 0.34546 0.289 0.83515 0.0
C1155 C 0.37092 0.3234 0.85512 0.0
C1156 C 0.36745 0.33379 0.83485 0.0
H1157 H 0.33669 0.22022 0.86356 0.0
H1158 H 0.35875 0.25649 0.8878 0.0
H1159 H 0.37547 0.29747 0.89026 0.0
O1160 O 0.34108 0.29111 0.76283 0.0
O1161 O 0.30823 0.30082 0.81422 0.0
O1162 O 0.27043 0.28589 0.81288 0.0
O1163 O 0.34446 0.26211 0.7801 0.0
O1164 O 0.31036 0.3058 0.76565 0.0
O1165 O 0.28695 0.32273 0.7868 0.0
O1166 O 0.22157 0.29097 0.79001 0.0
O1167 O 0.26823 0.28462 0.74642 0.0
O1168 O 0.29287 0.26035 0.75469 0.0
O1169 O 0.2473 0.32198 0.8023 0.0
O1170 O 0.25429 0.2615 0.78991 0.0
O1171 O 0.28736 0.24881 0.7811 0.0
C1172 C 0.28984 0.29705 0.82488 0.0
C1173 C 0.36187 0.26556 0.74529 0.0
C1174 C 0.39249 0.26568 0.72036 0.0
C1175 C 0.38131 0.24372 0.70967 0.0
C1176 C 0.35104 0.24371 0.73414 0.0
C1177 C 0.3607 0.23295 0.71639 0.0
C1178 C 0.38251 0.27671 0.73807 0.0
C1179 C 0.30456 0.32416 0.77485 0.0
C1180 C 0.35314 0.27583 0.76597 0.0
C1181 C 0.35482 0.26549 0.8731 0.0
C1182 C 0.36438 0.28883 0.8745 0.0
C1183 C 0.27938 0.26855 0.73969 0.0
C1184 C 0.21035 0.32081 0.81635 0.0
C1185 C 0.17712 0.31845 0.83842 0.0
C1186 C 0.18246 0.34241 0.84313 0.0
C1187 C 0.21469 0.34465 0.82134 0.0
C1188 C 0.19141 0.30757 0.82501 0.0
C1189 C 0.20091 0.35528 0.83461 0.0
C1190 C 0.26598 0.24541 0.78624 0.0
C1191 C 0.22658 0.31069 0.80296 0.0
H1192 H 0.38862 0.23486 0.69608 0.0
H1193 H 0.33545 0.23471 0.73961 0.0
H1194 H 0.3524 0.21597 0.70809 0.0
H1195 H 0.39119 0.29347 0.74679 0.0
H1196 H 0.1724 0.35135 0.85375 0.0
H1197 H 0.22895 0.35522 0.81503 0.0
H1198 H 0.18785 0.28915 0.82139 0.0
H1199 H 0.20464 0.37367 0.83844 0.0
Tb1200 Tb 0.05056 0.00904 0.5329 0.0
C1201 C 0.01437 0.08877 0.58495 0.0
N1202 N 1.00449 0.07408 0.56532 0.0
C1203 C 0.96789 0.07041 0.57917 0.0
C1204 C 1.00136 0.09462 0.60264 0.0
C1205 C 0.98143 0.06537 0.56191 0.0
C1206 C 0.97791 0.08497 0.59968 0.0
C1207 C 0.0482 0.1148 0.6063 0.0
C1208 C 0.03755 0.09862 0.58691 0.0
C1209 C 0.03539 0.12032 0.62421 0.0
C1210 C 0.01206 0.11021 0.62242 0.0
Tb1211 Tb 0.02879 0.06773 0.53876 0.0
N1212 N 0.04958 0.09244 0.56952 0.0
C1213 C 0.07121 0.12536 0.60675 0.0
C1214 C 0.07138 0.10392 0.56895 0.0
C1215 C 0.08272 0.12021 0.58774 0.0
H1216 H 0.97322 0.05502 0.54569 0.0
H1217 H 0.10019 0.12899 0.58739 0.0
H1218 H 0.10517 0.02211 0.52302 0.0
H1219 H 0.97534 0.95374 0.48248 0.0
H1220 H 0.07971 0.10118 0.55368 0.0
H1221 H 0.08002 0.13798 0.62129 0.0
H1222 H 0.99742 0.97878 0.51715 0.0
H1223 H 0.94967 0.06335 0.57646 0.0
H1224 H 0.04329 0.13264 0.63934 0.0
H1225 H 1.00234 0.11489 0.63622 0.0
H1226 H 0.12728 0.0137 0.49099 0.0
H1227 H 0.96731 0.08902 0.61288 0.0
H1228 H 0.99459 0.94423 0.44807 0.0
N1229 N 0.07337 1.00271 0.5048 0.0
C1230 C 0.06269 0.98833 0.48527 0.0
C1231 C 0.10909 1.00659 0.48908 0.0
C1232 C 0.07482 0.9828 0.46666 0.0
C1233 C 0.09636 0.0116 0.5071 0.0
C1234 C 0.09828 0.9922 0.46874 0.0
N1235 N 0.02816 0.98553 0.50191 0.0
C1236 C 1.00569 0.97585 0.50194 0.0
C1237 C 0.02766 0.96456 0.46379 0.0
C1238 C 0.03938 0.97934 0.48382 0.0
C1239 C 1.00423 0.95567 0.46314 0.0
C1240 C 0.99327 0.96113 0.48244 0.0
H1241 H 0.10821 0.98834 0.45484 0.0
H1242 H 0.07221 0.96371 0.43211 0.0
H1243 H 0.03094 0.94776 0.4296 0.0
O1244 O 0.03899 0.97969 0.55002 0.0
O1245 O 0.04025 0.02355 0.50006 0.0
O1246 O 0.01224 0.04331 0.50799 0.0
O1247 O 0.07376 0.98877 0.54162 0.0
O1248 O 0.02031 0.01128 0.55081 0.0
O1249 O 1.00204 0.03619 0.53264 0.0
O1250 O 0.03994 0.09274 0.51662 0.0
O1251 O 0.04216 0.05657 0.57232 0.0
O1252 O 0.06565 0.03095 0.56559 0.0
O1253 O 1.00948 0.09233 0.53294 0.0
O1254 O 0.06007 0.06553 0.5228 0.0
O1255 O 0.07782 0.04012 0.54075 0.0
C1256 C 0.02285 0.03274 0.49291 0.0
C1257 C 0.06574 0.95462 0.56068 0.0
C1258 C 0.06079 0.92338 0.58515 0.0
C1259 C 0.08158 0.91856 0.57952 0.0
C1260 C 0.08643 0.94907 0.55546 0.0
C1261 C 0.09421 0.93124 0.56477 0.0
C1262 C 0.05269 0.94149 0.57558 0.0
C1263 C 1.00153 0.01801 0.54366 0.0
C1264 C 0.05914 0.97466 0.55091 0.0
C1265 C 0.06318 0.96815 0.4466 0.0
C1266 C 0.03966 0.95906 0.44517 0.0
C1267 C 0.05676 0.04427 0.57974 0.0
C1268 C 0.01221 0.11263 0.49975 0.0
C1269 C 0.01386 0.14346 0.47486 0.0
C1270 C 0.98999 0.13718 0.46916 0.0
C1271 C 0.98838 0.10648 0.49314 0.0
C1272 C 0.02501 0.13104 0.49017 0.0
C1273 C 0.97743 0.11874 0.47804 0.0
C1274 C 0.07862 0.05917 0.53131 0.0
C1275 C 0.02296 0.10273 0.51953 0.0
H1276 H 0.0881 0.90484 0.58665 0.0
H1277 H 0.09683 0.95863 0.54414 0.0
H1278 H 0.11023 0.9273 0.56062 0.0
H1279 H 0.03678 0.94553 0.58001 0.0
H1280 H 0.98103 0.14664 0.45774 0.0
H1281 H 0.97803 0.0927 0.50032 0.0
H1282 H 0.04332 0.1363 0.49539 0.0
H1283 H 0.95902 0.11418 0.47356 0.0
Tb1284 Tb 0.29232 0.81943 0.7689 0.0
C1285 C 0.24599 0.73495 0.81998 0.0
N1286 N 0.26629 0.75033 0.82578 0.0
C1287 C 0.25923 0.75489 0.86611 0.0
C1288 C 0.23116 0.72973 0.83695 0.0
C1289 C 0.27358 0.75921 0.84886 0.0
C1290 C 0.23779 0.74037 0.86008 0.0
C1291 C 0.21979 0.70709 0.79078 0.0
C1292 C 0.24028 0.72368 0.79711 0.0
C1293 C 0.20481 0.70236 0.80751 0.0
C1294 C 0.21044 0.7137 0.8305 0.0
Tb1295 Tb 0.28704 0.75592 0.79489 0.0
N1296 N 0.25469 0.72918 0.78097 0.0
C1297 C 0.21487 0.69584 0.76772 0.0
C1298 C 0.25027 0.71781 0.75867 0.0
C1299 C 0.23026 0.70115 0.75165 0.0
H1300 H 0.29057 0.76937 0.85446 0.0
H1301 H 0.22678 0.69236 0.73387 0.0
H1302 H 0.29578 0.80243 0.71078 0.0
H1303 H 0.34489 0.8866 0.83168 0.0
H1304 H 0.2622 0.72135 0.74637 0.0
H1305 H 0.19931 0.68301 0.76219 0.0
H1306 H 0.31078 0.85614 0.81676 0.0
H1307 H 0.26491 0.76246 0.88418 0.0
H1308 H 0.18888 0.68986 0.80289 0.0
H1309 H 0.19881 0.70964 0.84329 0.0
H1310 H 0.3244 0.80954 0.68429 0.0
H1311 H 0.22684 0.73688 0.87358 0.0
H1312 H 0.37539 0.89598 0.8065 0.0
N1313 N 0.3165 0.82378 0.74069 0.0
C1314 C 0.33582 0.84037 0.74766 0.0
C1315 C 0.32802 0.81801 0.70221 0.0
C1316 C 0.35235 0.84564 0.73234 0.0
C1317 C 0.31194 0.81355 0.7178 0.0
C1318 C 0.34845 0.83385 0.70959 0.0
N1319 N 0.32301 0.84707 0.78477 0.0
C1320 C 0.32454 0.85944 0.80626 0.0
C1321 C 0.35831 0.87039 0.7775 0.0
C1322 C 0.33886 0.85273 0.77005 0.0
C1323 C 0.36063 0.88239 0.80009 0.0
C1324 C 0.34355 0.87702 0.81445 0.0
H1325 H 0.36073 0.83741 0.69733 0.0
H1326 H 0.38491 0.86694 0.72844 0.0
H1327 H 0.39014 0.88851 0.76794 0.0
O1328 O 0.27817 0.84765 0.78196 0.0
O1329 O 0.32609 0.81253 0.78602 0.0
O1330 O 0.32286 0.77644 0.79895 0.0
O1331 O 0.28054 0.83887 0.74469 0.0
O1332 O 0.27973 0.80724 0.79994 0.0
O1333 O 0.29803 0.7853 0.8207 0.0
O1334 O 0.29831 0.72715 0.77966 0.0
O1335 O 0.253 0.76386 0.7797 0.0
O1336 O 0.25658 0.79949 0.76552 0.0
O1337 O 0.30448 0.73835 0.81717 0.0
O1338 O 0.29968 0.77042 0.76517 0.0
O1339 O 0.28062 0.78985 0.74273 0.0
C1340 C 0.33533 0.79644 0.79551 0.0
C1341 C 0.26585 0.87253 0.75356 0.0
C1342 C 0.24198 0.90081 0.75776 0.0
C1343 C 0.24846 0.90849 0.7368 0.0
C1344 C 0.27204 0.88078 0.73274 0.0
C1345 C 0.26343 0.89863 0.7245 0.0
C1346 C 0.251 0.88289 0.76639 0.0
C1347 C 0.29304 0.80492 0.81837 0.0
C1348 C 0.27446 0.85258 0.76059 0.0
C1349 C 0.37201 0.86284 0.73996 0.0
C1350 C 0.37495 0.8752 0.76242 0.0
C1351 C 0.24397 0.78004 0.77007 0.0
C1352 C 0.30941 0.70118 0.80557 0.0
C1353 C 0.33182 0.67163 0.8049 0.0
C1354 C 0.32072 0.66278 0.82324 0.0
C1355 C 0.29828 0.69189 0.82364 0.0
C1356 C 0.32583 0.69069 0.79591 0.0
C1357 C 0.30392 0.67274 0.83235 0.0
C1358 C 0.28668 0.77081 0.74592 0.0
C1359 C 0.30793 0.72408 0.8001 0.0
H1360 H 0.24196 0.92235 0.72995 0.0
H1361 H 0.28352 0.87332 0.72265 0.0
H1362 H 0.26828 0.90474 0.70839 0.0
H1363 H 0.24599 0.87667 0.78243 0.0
H1364 H 0.32499 0.64808 0.83046 0.0
H1365 H 0.28594 0.69999 0.83165 0.0
H1366 H 0.33489 0.69816 0.78238 0.0
H1367 H 0.29561 0.66589 0.84658 0.0
Tb1368 Tb 0.54156 0.05967 0.00808 0.0
C1369 C 0.57446 1.0002 0.09379 0.0
N1370 N 0.55822 0.99311 0.07471 0.0
C1371 C 0.57027 0.95758 0.06904 0.0
C1372 C 0.59025 0.98686 0.1003 0.0
C1373 C 0.55534 0.9717 0.06294 0.0
C1374 C 0.58807 0.96535 0.08753 0.0
C1375 C 0.59301 0.02997 0.12545 0.0
C1376 C 0.57559 0.02126 0.10643 0.0
C1377 C 0.60923 0.01706 0.13158 0.0
C1378 C 0.60778 0.99549 0.11912 0.0
Tb1379 Tb 0.53659 0.0186 0.06424 0.0
N1380 N 0.56049 0.03387 0.09885 0.0
C1381 C 0.59382 0.05154 0.13744 0.0
C1382 C 0.56017 0.05413 0.11182 0.0
C1383 C 0.57702 0.06343 0.1309 0.0
H1384 H 0.54142 0.96538 0.04888 0.0
H1385 H 0.57701 0.07981 0.14055 0.0
H1386 H 0.5396 0.11295 0.02435 0.0
H1387 H 0.48242 0.99372 0.94663 0.0
H1388 H 0.54703 0.06336 0.10802 0.0
H1389 H 0.60705 0.05895 0.15201 0.0
H1390 H 0.51125 0.00792 0.98052 0.0
H1391 H 0.56811 0.94077 0.05938 0.0
H1392 H 0.62293 0.02359 0.14593 0.0
H1393 H 0.62032 0.98565 0.12412 0.0
H1394 H 0.51803 0.14113 0.01116 0.0
H1395 H 0.59982 0.95452 0.09198 0.0
H1396 H 0.4632 0.02037 0.92669 0.0
N1397 N 0.52199 0.08643 0.99758 0.0
C1398 C 0.50583 0.08024 0.97846 0.0
C1399 C 0.51442 0.12405 1.00179 0.0
C1400 C 0.49306 0.09573 0.9703 0.0
C1401 C 0.52653 0.108 0.00929 0.0
C1402 C 0.49764 0.11791 0.98218 0.0
N1403 N 0.51239 0.04317 0.97809 0.0
C1404 C 0.5051 0.02024 0.97102 0.0
C1405 C 0.48303 0.05019 0.94937 0.0
C1406 C 0.50104 0.05786 0.96811 0.0
C1407 C 0.47701 0.02697 0.94092 0.0
C1408 C 0.48787 0.01189 0.95207 0.0
H1409 H 0.48814 0.13031 0.97654 0.0
H1410 H 0.46574 0.10008 0.94454 0.0
H1411 H 0.45689 0.06011 0.92626 0.0
O1412 O 0.56234 0.05977 0.98141 0.0
O1413 O 0.50805 0.05365 0.0191 0.0
O1414 O 0.51542 0.02177 0.03185 0.0
O1415 O 0.56819 0.08842 0.00885 0.0
O1416 O 0.54823 0.02446 0.99951 0.0
O1417 O 0.54076 0.99989 0.02899 0.0
O1418 O 0.51259 0.01977 0.08752 0.0
O1419 O 0.57216 0.03381 0.06479 0.0
O1420 O 0.55496 0.04401 0.03525 0.0
O1421 O 0.51426 0.98792 0.06795 0.0
O1422 O 0.52948 0.05417 0.06967 0.0
O1423 O 0.54636 0.07908 0.04417 0.0
C1424 C 0.50171 0.03609 0.03011 0.0
C1425 C 0.58068 0.09553 0.9718 0.0
C1426 C 0.59501 0.09889 0.93406 0.0
C1427 C 0.60387 0.12228 0.94148 0.0
C1428 C 0.58952 0.11886 0.97884 0.0
C1429 C 0.60068 0.13222 0.96352 0.0
C1430 C 0.58258 0.08597 0.94907 0.0
C1431 C 0.54633 1.00407 0.00752 0.0
C1432 C 0.57413 0.08022 0.98922 0.0
C1433 C 0.47575 0.08843 0.95107 0.0
C1434 C 0.47076 0.0657 0.9406 0.0
C1435 C 0.57433 0.04579 0.04807 0.0
C1436 C 0.50193 0.98689 0.10568 0.0
C1437 C 0.48758 0.98803 0.14357 0.0
C1438 C 0.48978 0.96535 0.14452 0.0
C1439 C 0.50414 0.96432 0.10686 0.0
C1440 C 0.49419 0.99872 0.12428 0.0
C1441 C 0.49828 0.95372 0.12638 0.0
C1442 C 0.53694 0.07506 0.06374 0.0
C1443 C 0.50511 0.9978 0.08439 0.0
H1444 H 0.6141 0.1328 0.93078 0.0
H1445 H 0.58867 0.12655 0.99647 0.0
H1446 H 0.60789 0.15012 0.96918 0.0
H1447 H 0.5755 0.06802 0.94359 0.0
H1448 H 0.48438 0.95633 0.1589 0.0
H1449 H 0.50991 0.95476 0.09259 0.0
H1450 H 0.4928 0.01624 0.12339 0.0
H1451 H 0.49973 0.93623 0.12715 0.0
Tb1452 Tb 0.27263 0.26037 0.26801 0.0
C1453 C 0.35396 0.33164 0.32119 0.0
N1454 N 0.33336 0.3218 0.32726 0.0
C1455 C 0.35113 0.32123 0.36653 0.0
C1456 C 0.37398 0.33648 0.33764 0.0
C1457 C 0.33172 0.31687 0.34974 0.0
C1458 C 0.37235 0.33107 0.36049 0.0
C1459 C 0.37604 0.34761 0.29169 0.0
C1460 C 0.35495 0.33728 0.29843 0.0
C1461 C 0.39595 0.35238 0.30806 0.0
C1462 C 0.39491 0.34692 0.33098 0.0
Tb1463 Tb 0.3028 0.31995 0.29928 0.0
N1464 N 0.33523 0.333 0.2831 0.0
C1465 C 0.37643 0.35339 0.26886 0.0
C1466 C 0.33546 0.33999 0.26133 0.0
C1467 C 0.35601 0.34969 0.25368 0.0
H1468 H 0.3154 0.31086 0.35538 0.0
H1469 H 0.35599 0.35496 0.2363 0.0
H1470 H 0.2646 0.26535 0.21003 0.0
H1471 H 0.21659 0.21838 0.32418 0.0
H1472 H 0.31991 0.33944 0.25023 0.0
H1473 H 0.39228 0.36133 0.26303 0.0
H1474 H 0.25303 0.23884 0.31401 0.0
H1475 H 0.3496 0.31752 0.38433 0.0
H1476 H 0.41222 0.36054 0.30324 0.0
H1477 H 0.4104 0.35097 0.34347 0.0
H1478 H 0.23255 0.25702 0.17836 0.0
H1479 H 0.3873 0.33475 0.37368 0.0
H1480 H 0.18203 0.20942 0.29458 0.0
N1481 N 0.24412 0.25526 0.23678 0.0
C1482 C 0.22303 0.24456 0.24101 0.0
C1483 C 0.22955 0.25383 0.196 0.0
C1484 C 0.20434 0.23842 0.22291 0.0
C1485 C 0.24769 0.25918 0.21436 0.0
C1486 C 0.20775 0.24358 0.20031 0.0
N1487 N 0.23906 0.24394 0.28009 0.0
C1488 C 0.23798 0.23624 0.30146 0.0
C1489 C 0.19943 0.22582 0.26792 0.0
C1490 C 0.22055 0.23826 0.26321 0.0
C1491 C 0.19794 0.21901 0.29028 0.0
C1492 C 0.21736 0.22414 0.30707 0.0
H1493 H 0.19386 0.23903 0.18591 0.0
H1494 H 0.16859 0.22167 0.21396 0.0
H1495 H 0.16429 0.21074 0.25341 0.0
O1496 O 0.28469 0.23235 0.27905 0.0
O1497 O 0.24736 0.27917 0.28308 0.0
O1498 O 0.2654 0.31503 0.30207 0.0
O1499 O 0.26634 0.23044 0.24436 0.0
O1500 O 0.28992 0.26313 0.30454 0.0
O1501 O 0.28615 0.29732 0.32275 0.0
O1502 O 0.30487 0.35397 0.29363 0.0
O1503 O 0.32531 0.29474 0.29165 0.0
O1504 O 0.3074 0.27242 0.25765 0.0
O1505 O 0.30597 0.34464 0.32858 0.0
O1506 O 0.28427 0.31914 0.26337 0.0
O1507 O 0.28688 0.28463 0.24468 0.0
C1508 C 0.24658 0.29898 0.29516 0.0
C1509 C 0.29357 0.20788 0.24864 0.0
C1510 C 0.31337 0.17704 0.25108 0.0
C1511 C 0.32129 0.18062 0.2295 0.0
C1512 C 0.30185 0.21195 0.22725 0.0
C1513 C 0.31566 0.19824 0.21771 0.0
C1514 C 0.29952 0.19062 0.26048 0.0
C1515 C 0.28697 0.27583 0.32353 0.0
C1516 C 0.27758 0.22015 0.25862 0.0
C1517 C 0.1831 0.22653 0.22767 0.0
C1518 C 0.18066 0.22025 0.25011 0.0
C1519 C 0.32651 0.28192 0.27182 0.0
C1520 C 0.28715 0.37402 0.32102 0.0
C1521 C 0.25883 0.39523 0.30794 0.0
C1522 C 0.25551 0.40059 0.33152 0.0
C1523 C 0.28359 0.37943 0.34443 0.0
C1524 C 0.27444 0.38166 0.30286 0.0
C1525 C 0.26766 0.39249 0.34958 0.0
C1526 C 0.28469 0.30576 0.24384 0.0
C1527 C 0.30434 0.36073 0.31571 0.0
H1528 H 0.33202 0.17008 0.22203 0.0
H1529 H 0.29742 0.2254 0.21783 0.0
H1530 H 0.32191 0.20119 0.20115 0.0
H1531 H 0.293 0.18744 0.27695 0.0
H1532 H 0.24402 0.41157 0.33611 0.0
H1533 H 0.29322 0.37369 0.35874 0.0
H1534 H 0.27689 0.37735 0.28472 0.0
H1535 H 0.26508 0.39675 0.36766 0.0
Tb1536 Tb 0.54976 0.50738 0.03155 0.0
C1537 C 0.514 0.58681 0.08427 0.0
N1538 N 0.50387 0.57309 0.06411 0.0
C1539 C 0.46712 0.57059 0.07737 0.0
C1540 C 0.50103 0.59266 0.102 0.0
C1541 C 0.48067 0.5654 0.0602 0.0
C1542 C 0.47734 0.58414 0.09843 0.0
C1543 C 0.5485 0.61029 0.10718 0.0
C1544 C 0.53748 0.59546 0.08691 0.0
C1545 C 0.53569 0.61583 0.12508 0.0
C1546 C 0.51203 0.60702 0.1225 0.0
Tb1547 Tb 0.52813 0.56626 0.03771 0.0
N1548 N 0.5495 0.58921 0.06952 0.0
C1549 C 0.57197 0.61944 0.1086 0.0
C1550 C 0.57195 0.59929 0.07007 0.0
C1551 C 0.58363 0.61428 0.08973 0.0
H1552 H 0.47247 0.55589 0.04357 0.0
H1553 H 0.60158 0.62193 0.09026 0.0
H1554 H 0.6045 0.52156 0.02176 0.0
H1555 H 0.47654 0.44745 0.98345 0.0
H1556 H 0.58074 0.59632 0.05522 0.0
H1557 H 0.58108 0.63097 0.12385 0.0
H1558 H 0.49723 0.47608 0.0161 0.0
H1559 H 0.44875 0.5644 0.07422 0.0
H1560 H 0.54386 0.62713 0.14085 0.0
H1561 H 0.50234 0.61167 0.13635 0.0
H1562 H 0.62716 0.51235 0.99058 0.0
H1563 H 0.46676 0.58827 0.11162 0.0
H1564 H 0.4969 0.43545 0.95083 0.0
N1565 N 0.57314 0.50064 1.00408 0.0
C1566 C 0.56311 0.48486 0.98537 0.0
C1567 C 0.6091 0.50466 0.98879 0.0
C1568 C 0.57569 0.47858 0.96743 0.0
C1569 C 0.596 0.51018 0.00628 0.0
C1570 C 0.5989 0.48889 0.96922 0.0
N1571 N 0.52834 0.48197 1.00145 0.0
C1572 C 0.506 0.47187 1.00163 0.0
C1573 C 0.52918 0.45805 0.96544 0.0
C1574 C 0.54011 0.47483 0.98428 0.0
C1575 C 0.50596 0.44832 0.96504 0.0
C1576 C 0.49437 0.4552 0.98331 0.0
H1577 H 0.60915 0.48455 0.95579 0.0
H1578 H 0.57417 0.45712 0.93445 0.0
H1579 H 0.53346 0.43913 0.93274 0.0
O1580 O 0.53867 0.48 0.05164 0.0
O1581 O 0.53664 0.51906 0.99789 0.0
O1582 O 0.51223 0.54373 0.00539 0.0
O1583 O 0.57243 0.48674 0.04044 0.0
O1584 O 0.51919 0.50991 0.04871 0.0
O1585 O 0.50079 0.53506 0.03105 0.0
O1586 O 0.54122 0.59347 0.01903 0.0
O1587 O 0.53977 0.55296 0.07083 0.0
O1588 O 0.56625 0.53134 0.06259 0.0
O1589 O 0.50844 0.5905 0.03109 0.0
O1590 O 0.55819 0.56345 0.01983 0.0
O1591 O 0.5766 0.53889 0.03811 0.0
C1592 C 0.52159 0.53117 0.9907 0.0
C1593 C 0.56519 0.45457 0.0625 0.0
C1594 C 0.55946 0.42273 0.08623 0.0
C1595 C 0.58099 0.41882 0.08212 0.0
C1596 C 0.58665 0.4499 0.05886 0.0
C1597 C 0.59442 0.43227 0.06859 0.0
C1598 C 0.55142 0.44077 0.07637 0.0
C1599 C 0.50032 0.51621 0.04099 0.0
C1600 C 0.55831 0.47398 0.05153 0.0
C1601 C 0.56479 0.46212 0.94843 0.0
C1602 C 0.54162 0.45183 0.94748 0.0
C1603 C 0.55608 0.54233 0.07764 0.0
C1604 C 0.5136 0.61024 0.99787 0.0
C1605 C 0.51457 0.63976 0.97141 0.0
C1606 C 0.49262 0.62858 0.96055 0.0
C1607 C 0.49174 0.5994 0.98636 0.0
C1608 C 0.52517 0.63041 0.99007 0.0
C1609 C 0.48141 0.60852 0.96786 0.0
C1610 C 0.57705 0.55732 0.02765 0.0
C1611 C 0.52307 0.6021 0.01955 0.0
H1612 H 0.58746 0.40517 0.08945 0.0
H1613 H 0.59765 0.45992 0.04839 0.0
H1614 H 0.61098 0.42899 0.06557 0.0
H1615 H 0.53481 0.44395 0.07941 0.0
H1616 H 0.4841 0.63544 0.9463 0.0
H1617 H 0.48242 0.58402 0.99191 0.0
H1618 H 0.54186 0.6392 0.999 0.0
H1619 H 0.4645 0.6001 0.95927 0.0
Tb1620 Tb 0.79483 0.31955 0.27163 0.0
C1621 C 0.7455 0.23645 0.31835 0.0
N1622 N 0.76614 0.25118 0.32504 0.0
C1623 C 0.75789 0.25502 0.36505 0.0
C1624 C 0.72988 0.2315 0.33468 0.0
C1625 C 0.77298 0.25913 0.34846 0.0
C1626 C 0.7361 0.24149 0.35808 0.0
C1627 C 0.71941 0.2094 0.28824 0.0
C1628 C 0.7403 0.22523 0.29533 0.0
C1629 C 0.70363 0.20517 0.30431 0.0
C1630 C 0.70884 0.21618 0.32743 0.0
Tb1631 Tb 0.78856 0.2553 0.29521 0.0
N1632 N 0.75563 0.23 0.27981 0.0
C1633 C 0.71508 0.19802 0.26524 0.0
C1634 C 0.75181 0.21838 0.25763 0.0
C1635 C 0.73148 0.20233 0.24998 0.0
H1636 H 0.79024 0.26824 0.3549 0.0
H1637 H 0.72841 0.19339 0.23228 0.0
H1638 H 0.79324 0.30904 0.212 0.0
H1639 H 0.85327 0.38386 0.33294 0.0
H1640 H 0.76437 0.22141 0.24588 0.0
H1641 H 0.69924 0.18572 0.25918 0.0
H1642 H 0.81613 0.35757 0.31783 0.0
H1643 H 0.76329 0.26187 0.38336 0.0
H1644 H 0.68745 0.19315 0.29912 0.0
H1645 H 0.69666 0.21234 0.33974 0.0
H1646 H 0.82121 0.31298 0.18406 0.0
H1647 H 0.72458 0.23808 0.3711 0.0
H1648 H 0.88517 0.38679 0.30887 0.0
N1649 N 0.81785 0.32319 0.24226 0.0
C1650 C 0.83929 0.33609 0.24954 0.0
C1651 C 0.82667 0.3191 0.20253 0.0
C1652 C 0.85563 0.33974 0.23377 0.0
C1653 C 0.81094 0.31635 0.2187 0.0
C1654 C 0.84926 0.33036 0.21018 0.0
N1655 N 0.82787 0.34452 0.28689 0.0
C1656 C 0.83027 0.35836 0.30771 0.0
C1657 C 0.86559 0.36245 0.27998 0.0
C1658 C 0.8443 0.3475 0.27236 0.0
C1659 C 0.86905 0.37508 0.30238 0.0
C1660 C 0.85111 0.37343 0.31607 0.0
H1661 H 0.8613 0.3328 0.19751 0.0
H1662 H 0.8902 0.35635 0.22987 0.0
H1663 H 0.89893 0.37613 0.27035 0.0
O1664 O 0.77864 0.34452 0.28697 0.0
O1665 O 0.82602 0.31291 0.29392 0.0
O1666 O 0.82438 0.27362 0.29208 0.0
O1667 O 0.78791 0.34544 0.25224 0.0
O1668 O 0.78011 0.30549 0.30099 0.0
O1669 O 0.7993 0.28415 0.32176 0.0
O1670 O 0.79797 0.22407 0.28286 0.0
O1671 O 0.75559 0.26381 0.27825 0.0
O1672 O 0.75918 0.29919 0.26333 0.0
O1673 O 0.80393 0.23851 0.31993 0.0
O1674 O 0.80307 0.26974 0.26634 0.0
O1675 O 0.78491 0.29033 0.24421 0.0
C1676 C 0.83608 0.29525 0.29634 0.0
C1677 C 0.75473 0.35867 0.25913 0.0
C1678 C 0.72776 0.38416 0.2567 0.0
C1679 C 0.71373 0.3683 0.2388 0.0
C1680 C 0.74022 0.34309 0.24137 0.0
C1681 C 0.71985 0.34789 0.23136 0.0
C1682 C 0.74827 0.37912 0.26702 0.0
C1683 C 0.79246 0.30299 0.32001 0.0
C1684 C 0.77728 0.35436 0.26802 0.0
C1685 C 0.87738 0.35359 0.2417 0.0
C1686 C 0.88235 0.36492 0.26474 0.0
C1687 C 0.74672 0.27958 0.26776 0.0
C1688 C 0.81555 0.20293 0.31188 0.0
C1689 C 0.83639 0.17248 0.30547 0.0
C1690 C 0.83536 0.16849 0.32891 0.0
C1691 C 0.81476 0.19851 0.33529 0.0
C1692 C 0.82642 0.18977 0.29684 0.0
C1693 C 0.82461 0.18142 0.34369 0.0
C1694 C 0.79117 0.27117 0.24677 0.0
C1695 C 0.80601 0.22215 0.30431 0.0
H1696 H 0.69784 0.37164 0.23068 0.0
H1697 H 0.74483 0.32735 0.23489 0.0
H1698 H 0.70886 0.33582 0.2176 0.0
H1699 H 0.75946 0.39133 0.28058 0.0
H1700 H 0.8431 0.15539 0.33584 0.0
H1701 H 0.80661 0.20839 0.34724 0.0
H1702 H 0.82743 0.19314 0.27885 0.0
H1703 H 0.82402 0.17829 0.36178 0.0
Tb1704 Tb 0.04106 0.55727 0.50971 0.0
C1705 C 0.08087 0.50058 0.59445 0.0
N1706 N 0.06305 0.49265 0.57704 0.0
C1707 C 0.07529 0.45725 0.5708 0.0
C1708 C 0.09743 0.48766 0.59971 0.0
C1709 C 0.05965 0.47096 0.56584 0.0
C1710 C 0.09449 0.46577 0.58754 0.0
C1711 C 0.10229 0.53191 0.62306 0.0
C1712 C 0.08305 0.52219 0.60627 0.0
C1713 C 0.11907 0.5193 0.62807 0.0
C1714 C 0.11659 0.49718 0.6165 0.0
Tb1715 Tb 0.04041 0.5176 0.5674 0.0
N1716 N 0.06746 0.53456 0.59931 0.0
C1717 C 0.10449 0.55428 0.63367 0.0
C1718 C 0.06899 0.55596 0.61073 0.0
C1719 C 0.08756 0.5662 0.62774 0.0
H1720 H 0.0446 0.46405 0.55338 0.0
H1721 H 0.08889 0.58341 0.6361 0.0
H1722 H 0.03668 0.60995 0.52557 0.0
H1723 H 0.99077 0.49192 0.44081 0.0
H1724 H 0.0563 0.56558 0.60686 0.0
H1725 H 0.11913 0.56246 0.64646 0.0
H1726 H 0.01992 0.50653 0.47387 0.0
H1727 H 0.07257 0.44016 0.56162 0.0
H1728 H 0.13413 0.52659 0.64066 0.0
H1729 H 0.12971 0.48768 0.62046 0.0
H1730 H 0.01227 0.63624 0.514 0.0
H1731 H 0.10682 0.45528 0.59104 0.0
H1732 H 0.96592 0.51641 0.42537 0.0
N1733 N 0.0194 0.58265 0.49965 0.0
C1734 C 1.00288 0.57576 0.48094 0.0
C1735 C 1.00931 0.61921 0.50462 0.0
C1736 C 0.98858 0.59026 0.47348 0.0
C1737 C 0.02294 0.60414 0.51138 0.0
C1738 C 0.99199 0.61222 0.48561 0.0
N1739 N 0.01374 0.54037 0.47796 0.0
C1740 C 0.01031 0.51821 0.46765 0.0
C1741 C 0.98244 0.5458 0.4505 0.0
C1742 C 1.00003 0.55394 0.46959 0.0
C1743 C 0.97929 0.52333 0.43994 0.0
C1744 C 0.99327 0.50949 0.44861 0.0
H1745 H 0.98139 0.62389 0.48043 0.0
H1746 H 0.96009 0.59322 0.44842 0.0
H1747 H 0.95459 0.55414 0.42837 0.0
O1748 O 0.06581 0.55561 0.48739 0.0
O1749 O 1.00781 0.54744 0.52045 0.0
O1750 O 0.01763 0.51709 0.53496 0.0
O1751 O 0.0644 0.58767 0.50679 0.0
O1752 O 0.04959 0.52275 0.50238 0.0
O1753 O 0.04217 0.49838 0.5319 0.0
O1754 O 0.01677 0.51963 0.59114 0.0
O1755 O 0.07533 0.53357 0.56478 0.0
O1756 O 0.05454 0.54408 0.5382 0.0
O1757 O 0.02039 0.48707 0.57466 0.0
O1758 O 0.03074 0.55203 0.57255 0.0
O1759 O 0.04455 0.57716 0.54574 0.0
C1760 C 1.00281 0.53012 0.53218 0.0
C1761 C 0.07406 0.58708 0.46792 0.0
C1762 C 0.08664 0.5844 0.42951 0.0
C1763 C 0.07137 0.59762 0.4217 0.0
C1764 C 0.05884 0.6005 0.46021 0.0
C1765 C 0.05763 0.60583 0.43715 0.0
C1766 C 0.0882 0.57946 0.4526 0.0
C1767 C 0.04787 0.50247 0.51051 0.0
C1768 C 0.07321 0.57756 0.49014 0.0
C1769 C 0.97128 0.58236 0.45436 0.0
C1770 C 0.96819 0.56014 0.44292 0.0
C1771 C 0.07501 0.54531 0.54789 0.0
C1772 C 1.00941 0.48891 0.61281 0.0
C1773 C 0.99382 0.49066 0.64977 0.0
C1774 C 1.00456 0.47318 0.65626 0.0
C1775 C 0.0201 0.47139 0.61924 0.0
C1776 C 0.99629 0.49834 0.62804 0.0
C1777 C 0.0176 0.46355 0.64096 0.0
C1778 C 0.03587 0.57288 0.56576 0.0
C1779 C 0.01085 0.49759 0.59024 0.0
H1780 H 0.07013 0.60156 0.40376 0.0
H1781 H 0.04757 0.60639 0.47166 0.0
H1782 H 0.04577 0.61598 0.43114 0.0
H1783 H 0.09975 0.56879 0.45833 0.0
H1784 H 1.00263 0.4668 0.67296 0.0
H1785 H 0.03024 0.46375 0.60758 0.0
H1786 H 0.98812 0.51193 0.623 0.0
H1787 H 0.02572 0.44998 0.64592 0.0
Tb1788 Tb 0.81793 0.77532 0.28612 0.0
C1789 C 0.73496 0.81106 0.23648 0.0
N1790 N 0.74986 0.8208 0.25596 0.0
C1791 C 0.75327 0.85729 0.24213 0.0
C1792 C 0.72906 0.82394 0.21867 0.0
C1793 C 0.75864 0.84374 0.25928 0.0
C1794 C 0.73859 0.84733 0.22163 0.0
C1795 C 0.70988 0.77707 0.21474 0.0
C1796 C 0.72548 0.78804 0.23452 0.0
C1797 C 0.70429 0.78968 0.19665 0.0
C1798 C 0.71384 0.81308 0.19863 0.0
Tb1799 Tb 0.75865 0.79662 0.28186 0.0
N1800 N 0.73191 0.77635 0.25205 0.0
C1801 C 0.70029 0.75384 0.21392 0.0
C1802 C 0.72138 0.7542 0.25217 0.0
C1803 C 0.70575 0.74246 0.23295 0.0
H1804 H 0.76959 0.85174 0.27527 0.0
H1805 H 0.69784 0.72471 0.2329 0.0
H1806 H 0.8061 0.72049 0.29463 0.0
H1807 H 0.87116 0.85059 0.33803 0.0
H1808 H 0.72461 0.74571 0.26722 0.0
H1809 H 0.68827 0.74472 0.199 0.0
H1810 H 0.84585 0.82894 0.30322 0.0
H1811 H 0.76042 0.87543 0.24477 0.0
H1812 H 0.69246 0.78155 0.18119 0.0
H1813 H 0.70922 0.82265 0.18465 0.0
H1814 H 0.81507 0.69804 0.32627 0.0
H1815 H 0.7345 0.85786 0.20837 0.0
H1816 H 0.88146 0.83088 0.37186 0.0
N1817 N 0.82477 0.75215 0.31354 0.0
C1818 C 0.83887 0.76279 0.33333 0.0
C1819 C 0.82174 0.71626 0.32853 0.0
C1820 C 0.84473 0.7505 0.35168 0.0
C1821 C 0.81643 0.72913 0.31074 0.0
C1822 C 0.83589 0.72698 0.34911 0.0
N1823 N 0.84044 0.79772 0.31764 0.0
C1824 C 0.84949 0.82034 0.31806 0.0
C1825 C 0.8618 0.79784 0.35555 0.0
C1826 C 0.84721 0.78624 0.33533 0.0
C1827 C 0.87016 0.82134 0.35664 0.0
C1828 C 0.86427 0.83255 0.33764 0.0
H1829 H 0.83999 0.71692 0.36282 0.0
H1830 H 0.86382 0.75288 0.38627 0.0
H1831 H 0.87881 0.79425 0.38961 0.0
O1832 O 0.84731 0.7888 0.27085 0.0
O1833 O 0.80324 0.78418 0.31926 0.0
O1834 O 0.78528 0.81282 0.31091 0.0
O1835 O 0.84059 0.75413 0.27797 0.0
O1836 O 0.81539 0.80515 0.26774 0.0
O1837 O 0.79038 0.82275 0.28625 0.0
O1838 O 0.73313 0.78443 0.303 0.0
O1839 O 0.76865 0.78362 0.24748 0.0
O1840 O 0.79607 0.76135 0.25282 0.0
O1841 O 0.74054 0.81945 0.29668 0.0
O1842 O 0.76215 0.76506 0.29669 0.0
O1843 O 0.78712 0.74768 0.27763 0.0
C1844 C 0.79418 0.80152 0.32628 0.0
C1845 C 0.8615 0.76229 0.24609 0.0
C1846 C 0.89154 0.76321 0.22024 0.0
C1847 C 0.877 0.74524 0.20495 0.0
C1848 C 0.84724 0.74472 0.23011 0.0
C1849 C 0.85501 0.73626 0.20975 0.0
C1850 C 0.88361 0.77186 0.24084 0.0
C1851 C 0.80769 0.82346 0.27398 0.0
C1852 C 0.85401 0.76958 0.26884 0.0
C1853 C 0.85913 0.76205 0.37197 0.0
C1854 C 0.86766 0.78563 0.37388 0.0
C1855 C 0.7812 0.76948 0.23941 0.0
C1856 C 0.70394 0.80605 0.30802 0.0
C1857 C 0.67123 0.80328 0.33038 0.0
C1858 C 0.66155 0.81662 0.31527 0.0
C1859 C 0.69355 0.81894 0.29288 0.0
C1860 C 0.69245 0.7979 0.32663 0.0
C1861 C 0.67254 0.8242 0.29657 0.0
C1862 C 0.76779 0.7467 0.28674 0.0
C1863 C 0.72808 0.80437 0.30705 0.0
H1864 H 0.88268 0.73823 0.1891 0.0
H1865 H 0.83022 0.7372 0.23359 0.0
H1866 H 0.84401 0.72247 0.19774 0.0
H1867 H 0.89477 0.78545 0.253 0.0
H1868 H 0.64542 0.8212 0.318 0.0
H1869 H 0.70202 0.82565 0.27866 0.0
H1870 H 0.70043 0.7883 0.33871 0.0
H1871 H 0.66494 0.83456 0.28513 0.0
Tb1872 Tb 0.77374 0.28577 0.80715 0.0
C1873 C 0.83262 0.24603 0.72399 0.0
N1874 N 0.83956 0.26338 0.74189 0.0
C1875 C 0.87574 0.25252 0.74887 0.0
C1876 C 0.84649 0.23044 0.71862 0.0
C1877 C 0.86127 0.26748 0.75348 0.0
C1878 C 0.86815 0.23364 0.73166 0.0
C1879 C 0.80362 0.2265 0.69199 0.0
C1880 C 0.8117 0.24423 0.7107 0.0
C1881 C 0.81698 0.21043 0.68701 0.0
C1882 C 0.83841 0.21242 0.70028 0.0
Tb1883 Tb 0.81368 0.28542 0.7498 0.0
N1884 N 0.79888 0.25956 0.71682 0.0
C1885 C 0.78233 0.22544 0.67897 0.0
C1886 C 0.7787 0.25935 0.70325 0.0
C1887 C 0.76998 0.24214 0.68443 0.0
H1888 H 0.86768 0.28272 0.76575 0.0
H1889 H 0.75373 0.24177 0.67415 0.0
H1890 H 0.72127 0.29111 0.78969 0.0
H1891 H 0.83971 0.33669 0.87511 0.0
H1892 H 0.76908 0.27225 0.70679 0.0
H1893 H 0.77544 0.21203 0.66449 0.0
H1894 H 0.82496 0.30767 0.84198 0.0
H1895 H 0.8928 0.2557 0.75843 0.0
H1896 H 0.811 0.19652 0.67284 0.0
H1897 H 0.84869 0.20009 0.69606 0.0
H1898 H 0.69506 0.31563 0.80106 0.0
H1899 H 0.87936 0.22206 0.7281 0.0
H1900 H 0.81509 0.36139 0.89048 0.0
N1901 N 0.74837 0.30765 0.81656 0.0
C1902 C 0.75531 0.32419 0.83518 0.0
C1903 C 0.71199 0.31828 0.81078 0.0
C1904 C 0.74088 0.33868 0.84225 0.0
C1905 C 0.727 0.30448 0.80431 0.0
C1906 C 0.71896 0.33547 0.82983 0.0
N1907 N 0.79081 0.31332 0.83847 0.0
C1908 C 0.81317 0.31697 0.84853 0.0
C1909 C 0.78549 0.34478 0.86547 0.0
C1910 C 0.77723 0.32707 0.84662 0.0
C1911 C 0.80808 0.34794 0.87606 0.0
C1912 C 0.82199 0.33403 0.86746 0.0
H1913 H 0.70735 0.34623 0.83472 0.0
H1914 H 0.73809 0.36744 0.86682 0.0
H1915 H 0.77727 0.37287 0.8871 0.0
O1916 O 0.77478 0.26146 0.8301 0.0
O1917 O 0.78422 0.31866 0.79591 0.0
O1918 O 0.81472 0.30841 0.78201 0.0
O1919 O 0.74305 0.26258 0.80939 0.0
O1920 O 0.80772 0.27659 0.81526 0.0
O1921 O 0.83227 0.28208 0.7856 0.0
O1922 O 0.81125 0.30941 0.72651 0.0
O1923 O 0.79385 0.2513 0.74981 0.0
O1924 O 0.78748 0.27207 0.77911 0.0
O1925 O 0.84411 0.30533 0.74205 0.0
O1926 O 0.77886 0.29474 0.74397 0.0
O1927 O 0.75378 0.28196 0.77136 0.0
C1928 C 0.80167 0.32324 0.78421 0.0
C1929 C 0.74209 0.25236 0.84797 0.0
C1930 C 0.74285 0.23945 0.88626 0.0
C1931 C 0.72625 0.25171 0.89184 0.0
C1932 C 0.72556 0.26483 0.85354 0.0
C1933 C 0.71759 0.26434 0.87542 0.0
C1934 C 0.75049 0.23955 0.86434 0.0
C1935 C 0.82794 0.27722 0.80727 0.0
C1936 C 0.75275 0.25387 0.82645 0.0
C1937 C 0.74889 0.35609 0.86118 0.0
C1938 C 0.77117 0.35915 0.87275 0.0
C1939 C 0.78325 0.25202 0.76764 0.0
C1940 C 0.84141 0.31644 0.70399 0.0
C1941 C 0.8411 0.33419 0.66829 0.0
C1942 C 0.85728 0.32216 0.66072 0.0
C1943 C 0.85732 0.3041 0.6963 0.0
C1944 C 0.83331 0.33127 0.68989 0.0
C1945 C 0.86524 0.30704 0.67467 0.0
C1946 C 0.75806 0.28983 0.75107 0.0
C1947 C 0.8333 0.31508 0.72685 0.0
H1948 H 0.72019 0.25162 0.90886 0.0
H1949 H 0.71907 0.27512 0.84126 0.0
H1950 H 0.70491 0.27399 0.87977 0.0
H1951 H 0.76347 0.2301 0.86026 0.0
H1952 H 0.86349 0.32426 0.64397 0.0
H1953 H 0.86373 0.29242 0.70696 0.0
H1954 H 0.82111 0.3409 0.69592 0.0
H1955 H 0.87758 0.29765 0.66875 0.0
Tb1956 Tb 0.7746 0.76202 0.76991 0.0
C1957 C 0.85611 0.83284 0.82069 0.0
N1958 N 0.83593 0.82251 0.82729 0.0
C1959 C 0.85529 0.8203 0.86542 0.0
C1960 C 0.87675 0.83681 0.83616 0.0
C1961 C 0.83528 0.8167 0.84954 0.0
C1962 C 0.87613 0.83032 0.8587 0.0
C1963 C 0.87663 0.85067 0.79114 0.0
C1964 C 0.856 0.83982 0.79841 0.0
C1965 C 0.89722 0.85433 0.8064 0.0
C1966 C 0.89725 0.84754 0.82888 0.0
Tb1967 Tb 0.80417 0.82182 0.80128 0.0
N1968 N 0.83562 0.83673 0.78429 0.0
C1969 C 0.87589 0.85828 0.76905 0.0
C1970 C 0.83478 0.846 0.76367 0.0
C1971 C 0.85483 0.85616 0.75538 0.0
H1972 H 0.81936 0.81045 0.8557 0.0
H1973 H 0.85394 0.86312 0.73884 0.0
H1974 H 0.769 0.76662 0.71175 0.0
H1975 H 0.71592 0.71866 0.82268 0.0
H1976 H 0.81873 0.84705 0.75424 0.0
H1977 H 0.89136 0.86667 0.76284 0.0
H1978 H 0.75307 0.73933 0.81407 0.0
H1979 H 0.85451 0.81583 0.88306 0.0
H1980 H 0.91316 0.86281 0.80115 0.0
H1981 H 0.91322 0.85087 0.8406 0.0
H1982 H 0.73806 0.75902 0.67902 0.0
H1983 H 0.89157 0.83336 0.87118 0.0
H1984 H 0.68199 0.71159 0.79242 0.0
N1985 N 0.74712 0.75765 0.73776 0.0
C1986 C 0.72556 0.74753 0.74118 0.0
C1987 C 0.73422 0.75613 0.69651 0.0
C1988 C 0.70748 0.74165 0.72241 0.0
C1989 C 0.75174 0.7611 0.71548 0.0
C1990 C 0.71196 0.74655 0.70001 0.0
N1991 N 0.74017 0.74581 0.78039 0.0
C1992 C 0.73834 0.73711 0.8012 0.0
C1993 C 0.70053 0.72878 0.76692 0.0
C1994 C 0.72206 0.74108 0.76311 0.0
C1995 C 0.69822 0.72113 0.78882 0.0
C1996 C 0.71731 0.72508 0.80594 0.0
H1997 H 0.69857 0.74217 0.68512 0.0
H1998 H 0.67174 0.72539 0.71207 0.0
H1999 H 0.66567 0.7142 0.75108 0.0
O2000 O 0.78678 0.73432 0.78151 0.0
O2001 O 0.74987 0.77998 0.78733 0.0
O2002 O 0.76602 0.81817 0.79914 0.0
O2003 O 0.76826 0.73168 0.74681 0.0
O2004 O 0.79156 0.76462 0.80642 0.0
O2005 O 0.7877 0.79876 0.82474 0.0
O2006 O 0.80882 0.8569 0.79957 0.0
O2007 O 0.8268 0.79649 0.79403 0.0
O2008 O 0.8096 0.77423 0.75985 0.0
O2009 O 0.80489 0.84373 0.83235 0.0
O2010 O 0.78652 0.8211 0.765 0.0
O2011 O 0.78937 0.78636 0.74693 0.0
C2012 C 0.74801 0.8008 0.79584 0.0
C2013 C 0.79553 0.70914 0.75174 0.0
C2014 C 0.81629 0.67926 0.75614 0.0
C2015 C 0.82286 0.68089 0.73366 0.0
C2016 C 0.80242 0.71126 0.72939 0.0
C2017 C 0.81609 0.69709 0.72042 0.0
C2018 C 0.80271 0.69336 0.76503 0.0
C2019 C 0.78831 0.77715 0.82536 0.0
C2020 C 0.77958 0.72171 0.76133 0.0
C2021 C 0.68578 0.73008 0.72631 0.0
C2022 C 0.68232 0.72367 0.74851 0.0
C2023 C 0.82862 0.78423 0.77402 0.0
C2024 C 0.7913 0.8769 0.8271 0.0
C2025 C 0.76393 0.8994 0.81484 0.0
C2026 C 0.76352 0.90737 0.83857 0.0
C2027 C 0.79082 0.88508 0.85068 0.0
C2028 C 0.77776 0.88408 0.80918 0.0
C2029 C 0.77689 0.90019 0.85637 0.0
C2030 C 0.78716 0.80741 0.74574 0.0
C2031 C 0.80672 0.86168 0.82159 0.0
H2032 H 0.83327 0.66981 0.72652 0.0
H2033 H 0.797 0.72349 0.7188 0.0
H2034 H 0.82123 0.69848 0.70312 0.0
H2035 H 0.79712 0.69156 0.78217 0.0
H2036 H 0.75337 0.91968 0.8433 0.0
H2037 H 0.80138 0.87992 0.86469 0.0
H2038 H 0.7781 0.87806 0.79086 0.0
H2039 H 0.77673 0.90661 0.87458 0.0
Tb2040 Tb 0.56473 0.54774 0.54895 0.0
C2041 C 0.49296 0.46831 0.48713 0.0
N2042 N 0.50238 0.48962 0.48267 0.0
C2043 C 0.49974 0.47564 0.4416 0.0
C2044 C 0.48637 0.44989 0.46886 0.0
C2045 C 0.50565 0.49347 0.46014 0.0
C2046 C 0.48999 0.45378 0.44594 0.0
C2047 C 0.47916 0.44323 0.51518 0.0
C2048 C 0.4892 0.46503 0.51002 0.0
C2049 C 0.47242 0.42495 0.49699 0.0
C2050 C 0.47595 0.42829 0.47389 0.0
Tb2051 Tb 0.5063 0.51767 0.51391 0.0
N2052 N 0.49539 0.4832 0.52719 0.0
C2053 C 0.47594 0.44045 0.53845 0.0
C2054 C 0.49197 0.48052 0.54987 0.0
C2055 C 0.48253 0.45917 0.55588 0.0
H2056 H 0.51138 0.51051 0.456 0.0
H2057 H 0.48014 0.45723 0.57396 0.0
H2058 H 0.56685 0.55838 0.60689 0.0
H2059 H 0.62018 0.5964 0.49646 0.0
H2060 H 0.49675 0.49456 0.56356 0.0
H2061 H 0.46835 0.42397 0.54313 0.0
H2062 H 0.5981 0.56156 0.50841 0.0
H2063 H 0.50211 0.47893 0.42384 0.0
H2064 H 0.46438 0.40818 0.50059 0.0
H2065 H 0.47051 0.41404 0.46002 0.0
H2066 H 0.57211 0.59194 0.63704 0.0
H2067 H 0.485 0.4401 0.43143 0.0
H2068 H 0.62336 0.63367 0.52037 0.0
N2069 N 0.57181 0.57771 0.57871 0.0
C2070 C 0.5818 0.59833 0.57311 0.0
C2071 C 0.57407 0.59415 0.61893 0.0
C2072 C 0.58708 0.61797 0.58992 0.0
C2073 C 0.56975 0.57519 0.60168 0.0
C2074 C 0.58216 0.61579 0.61286 0.0
N2075 N 0.5862 0.57909 0.5369 0.0
C2076 C 0.59814 0.57779 0.51818 0.0
C2077 C 0.60276 0.61932 0.5459 0.0
C2078 C 0.58961 0.599 0.55148 0.0
C2079 C 0.61298 0.61849 0.52524 0.0
C2080 C 0.61117 0.5975 0.51167 0.0
H2081 H 0.58613 0.63041 0.62636 0.0
H2082 H 0.6027 0.65401 0.59643 0.0
H2083 H 0.6164 0.6552 0.55778 0.0
O2084 O 0.58984 0.52866 0.54194 0.0
O2085 O 0.54715 0.57346 0.53342 0.0
O2086 O 0.51354 0.555 0.50944 0.0
O2087 O 0.59335 0.55227 0.57417 0.0
O2088 O 0.56421 0.53368 0.51127 0.0
O2089 O 0.52941 0.5347 0.49115 0.0
O2090 O 0.4734 0.51831 0.5225 0.0
O2091 O 0.53187 0.49593 0.52275 0.0
O2092 O 0.54897 0.51389 0.55862 0.0
O2093 O 0.47928 0.51281 0.48656 0.0
O2094 O 0.50322 0.53299 0.55007 0.0
O2095 O 0.53855 0.53906 0.57274 0.0
C2096 C 0.52872 0.57399 0.51868 0.0
C2097 C 0.62345 0.53208 0.57109 0.0
C2098 C 0.65453 0.51332 0.56438 0.0
C2099 C 0.6659 0.52313 0.58685 0.0
C2100 C 0.63475 0.54167 0.59359 0.0
C2101 C 0.65585 0.53702 0.60147 0.0
C2102 C 0.63305 0.51747 0.55692 0.0
C2103 C 0.55146 0.5357 0.49171 0.0
C2104 C 0.60179 0.53743 0.56225 0.0
C2105 C 0.59866 0.6387 0.58382 0.0
C2106 C 0.6065 0.63937 0.56182 0.0
C2107 C 0.54302 0.49499 0.54365 0.0
C2108 C 0.45056 0.53241 0.49418 0.0
C2109 C 0.42426 0.55572 0.50517 0.0
C2110 C 0.42297 0.56298 0.48286 0.0
C2111 C 0.44926 0.53958 0.47168 0.0
C2112 C 0.4378 0.54042 0.51074 0.0
C2113 C 0.43547 0.55484 0.4661 0.0
C2114 C 0.51607 0.53678 0.57083 0.0
C2115 C 0.46458 0.51621 0.50052 0.0
H2116 H 0.68276 0.52058 0.59293 0.0
H2117 H 0.62739 0.55285 0.605 0.0
H2118 H 0.66463 0.54455 0.61872 0.0
H2119 H 0.62392 0.50962 0.53986 0.0
H2120 H 0.4122 0.57474 0.47843 0.0
H2121 H 0.45878 0.53339 0.45841 0.0
H2122 H 0.43833 0.53479 0.52803 0.0
H2123 H 0.43444 0.5603 0.4488 0.0
Tb2124 Tb 1.00954 0.54039 0.04819 0.0
C2125 C 0.09459 0.58525 0.99764 0.0
N2126 N 0.07851 0.56558 0.99113 0.0
C2127 C 0.07324 0.57517 0.95175 0.0
C2128 C 0.09977 0.60111 0.98166 0.0
C2129 C 0.06888 0.55982 0.96808 0.0
C2130 C 0.08844 0.59607 0.95865 0.0
C2131 C 0.12381 0.60907 0.02737 0.0
C2132 C 0.1066 0.58923 0.02022 0.0
C2133 C 0.12843 0.62518 0.01172 0.0
C2134 C 0.11643 0.62123 0.98895 0.0
Tb2135 Tb 0.07255 0.54324 0.02075 0.0
N2136 N 0.10115 0.57375 0.03531 0.0
C2137 C 0.13579 0.61211 0.0501 0.0
C2138 C 0.11348 0.57605 0.05702 0.0
C2139 C 0.13075 0.5954 0.06489 0.0
H2140 H 0.05814 0.54329 0.96176 0.0
H2141 H 0.14026 0.59733 0.08229 0.0
H2142 H 0.02127 0.54275 0.10739 0.0
H2143 H 0.94798 0.48153 0.98387 0.0
H2144 H 0.11025 0.5628 0.06807 0.0
H2145 H 0.1491 0.62714 0.05627 0.0
H2146 H 0.97638 0.5171 0.99821 0.0
H2147 H 0.06513 0.57069 0.93371 0.0
H2148 H 0.14142 0.64066 0.01698 0.0
H2149 H 0.12045 0.63367 0.97695 0.0
H2150 H 0.0124 0.51678 0.13661 0.0
H2151 H 0.09189 0.60783 0.94588 0.0
H2152 H 0.93748 0.4533 0.01112 0.0
N2153 N 1.00224 0.51928 0.07825 0.0
C2154 C 0.98669 0.49924 0.07165 0.0
C2155 C 1.00531 0.51151 0.11834 0.0
C2156 C 0.98063 0.48415 0.08812 0.0
C2157 C 0.01067 0.52604 0.10148 0.0
C2158 C 0.99049 0.49036 0.1116 0.0
N2159 N 0.98269 0.50867 0.03276 0.0
C2160 C 0.97226 0.50477 0.01005 0.0
C2161 C 0.96011 0.47344 0.04099 0.0
C2162 C 0.97634 0.49395 0.04836 0.0
C2163 C 0.95004 0.46887 0.01745 0.0
C2164 C 0.95599 0.48471 1.00198 0.0
H2165 H 0.9863 0.47921 0.12476 0.0
H2166 H 0.95995 0.45171 0.09316 0.0
H2167 H 0.9421 0.44232 0.05194 0.0
O2168 O 0.98115 0.55234 0.03283 0.0
O2169 O 0.0169 0.5064 0.03355 0.0
O2170 O 0.05015 0.50844 0.01493 0.0
O2171 O 0.99223 0.55844 0.07028 0.0
O2172 O 0.02344 0.55307 0.01807 0.0
O2173 O 0.04248 0.53387 0.99518 0.0
O2174 O 0.09952 0.52853 0.03492 0.0
O2175 O 0.06678 0.57755 0.03737 0.0
O2176 O 0.03129 0.57496 0.05174 0.0
O2177 O 0.08977 0.52685 0.99732 0.0
O2178 O 0.05922 0.53121 0.05144 0.0
O2179 O 0.03961 0.54978 0.07442 0.0
C2180 C 0.03119 0.49678 0.02154 0.0
C2181 C 0.95445 0.56203 0.05836 0.0
C2182 C 0.92312 0.5824 0.05871 0.0
C2183 C 0.91413 0.56907 0.07544 0.0
C2184 C 0.94487 0.5486 0.07471 0.0
C2185 C 0.9248 0.55214 0.08315 0.0
C2186 C 0.94324 0.57863 0.05001 0.0
C2187 C 0.02374 0.54048 0.99857 0.0
C2188 C 0.97786 0.5619 0.05317 0.0
C2189 C 0.96468 0.46355 0.08076 0.0
C2190 C 0.95446 0.45821 0.05728 0.0
C2191 C 0.05107 0.58696 0.04739 0.0
C2192 C 0.12585 0.51862 0.0088 0.0
C2193 C 0.15422 0.49489 0.00961 0.0
C2194 C 0.1638 0.50571 0.99149 0.0
C2195 C 0.13591 0.52959 0.99101 0.0
C2196 C 0.13542 0.50163 0.01844 0.0
C2197 C 0.15484 0.52315 0.98247 0.0
C2198 C 0.05888 0.54434 0.07061 0.0
C2199 C 0.10296 0.52089 0.01388 0.0
H2200 H 0.8987 0.57167 0.08242 0.0
H2201 H 0.95335 0.53598 0.0816 0.0
H2202 H 0.91772 0.54202 0.09608 0.0
H2203 H 0.95074 0.58934 0.03769 0.0
H2204 H 0.17829 0.50072 0.98439 0.0
H2205 H 0.12858 0.54243 0.98304 0.0
H2206 H 0.12743 0.49273 0.03179 0.0
H2207 H 0.16226 0.53131 0.96843 0.0
C2208 C 1.0008 0.18822 0.95937 0.0
C2209 C 0.01023 0.20957 0.97315 0.0
C2210 C 1.00376 0.16678 0.96682 0.0
C2211 C 0.0169 0.16567 0.98875 0.0
C2212 C 0.02671 0.1872 1.00257 0.0
C2213 C 0.02318 0.20835 0.99488 0.0
C2214 C 0.99262 0.14506 0.95099 0.0
C2215 C 0.04127 0.188 0.02574 0.0
C2216 C 1.00783 0.10803 0.01745 0.0
C2217 C 0.02693 0.09858 0.01296 0.0
C2218 C 1.00469 0.1295 0.01027 0.0
C2219 C 0.02037 0.14236 0.99713 0.0
C2220 C 0.03947 0.13263 0.99221 0.0
C2221 C 0.04264 0.11158 1.00036 0.0
C2222 C 0.98444 0.13862 0.01712 0.0
C2223 C 0.05662 0.14434 0.97782 0.0
H2224 H 0.99074 0.18816 0.9426 0.0
H2225 H 0.03095 0.22419 0.006 0.0
H2226 H 1.00576 0.13532 0.9466 0.0
H2227 H 0.98037 0.13416 0.96029 0.0
H2228 H 0.98332 0.14828 0.93439 0.0
H2229 H 0.04681 0.20556 0.03524 0.0
H2230 H 0.03169 0.17693 0.03714 0.0
H2231 H 0.05673 0.18128 0.02268 0.0
H2232 H 0.99541 0.09882 0.02719 0.0
H2233 H 0.05746 0.10498 0.9963 0.0
H2234 H 0.97323 0.14027 1.00109 0.0
H2235 H 0.99039 0.15591 0.02715 0.0
H2236 H 0.97419 0.12751 0.02802 0.0
H2237 H 0.04794 0.14519 0.96004 0.0
H2238 H 0.07087 0.13537 0.97586 0.0
H2239 H 0.06387 0.16212 0.98607 0.0
C2240 C 0.15975 0.81416 0.15388 0.0
C2241 C 0.13756 0.8057 0.15906 0.0
C2242 C 0.17961 0.81232 0.16891 0.0
C2243 C 0.17756 0.80078 0.18919 0.0
C2244 C 0.15512 0.79173 0.19403 0.0
C2245 C 0.13568 0.79472 0.17938 0.0
C2246 C 0.2029 0.82301 0.16321 0.0
C2247 C 0.15152 0.77862 0.21469 0.0
C2248 C 0.22843 0.77639 0.21557 0.0
C2249 C 0.23769 0.79185 0.2359 0.0
C2250 C 0.20922 0.77914 0.20033 0.0
C2251 C 0.19864 0.79792 0.2052 0.0
C2252 C 0.20786 0.81345 0.22594 0.0
C2253 C 0.22702 0.81019 0.24093 0.0
C2254 C 0.19996 0.76159 0.17913 0.0
C2255 C 0.19767 0.83382 0.23223 0.0
H2256 H 0.16163 0.82275 0.1384 0.0
H2257 H 0.11875 0.78784 0.18358 0.0
H2258 H 0.21268 0.83481 0.17864 0.0
H2259 H 0.21269 0.80963 0.15937 0.0
H2260 H 0.20183 0.8326 0.14785 0.0
H2261 H 0.13317 0.77109 0.21512 0.0
H2262 H 0.16111 0.7647 0.21402 0.0
H2263 H 0.15824 0.79005 0.23137 0.0
H2264 H 0.23601 0.7618 0.21176 0.0
H2265 H 0.23384 0.8222 0.25662 0.0
H2266 H 0.20022 0.76987 0.16285 0.0
H2267 H 0.18187 0.75362 0.18017 0.0
H2268 H 0.20993 0.74798 0.17764 0.0
H2269 H 0.19987 0.84531 0.21846 0.0
H2270 H 0.20577 0.84357 0.24951 0.0
H2271 H 0.17904 0.82838 0.23279 0.0
C2272 C 0.53643 0.86073 0.48654 0.0
C2273 C 0.51444 0.84712 0.47837 0.0
C2274 C 0.54002 0.88454 0.49518 0.0
C2275 C 0.52148 0.89615 0.49449 0.0
C2276 C 0.49929 0.88244 0.48636 0.0
C2277 C 0.4961 0.85848 0.47932 0.0
C2278 C 0.56399 0.89745 0.50441 0.0
C2279 C 0.47886 0.89336 0.48322 0.0
C2280 C 0.5237 0.95662 0.52873 0.0
C2281 C 0.53148 0.97194 0.51299 0.0
C2282 C 0.5211 0.93245 0.52336 0.0
C2283 C 0.5252 0.92246 0.50104 0.0
C2284 C 0.53246 0.93793 0.48486 0.0
C2285 C 0.53604 0.96205 0.49118 0.0
C2286 C 0.51475 0.91762 0.54211 0.0
C2287 C 0.53666 0.92924 0.46058 0.0
H2288 H 0.55109 0.85293 0.48545 0.0
H2289 H 0.47896 0.84878 0.4734 0.0
H2290 H 0.57062 0.90844 0.49138 0.0
H2291 H 0.56406 0.90869 0.52096 0.0
H2292 H 0.5758 0.88582 0.50779 0.0
H2293 H 0.4627 0.88066 0.47692 0.0
H2294 H 0.47686 0.90312 0.49996 0.0
H2295 H 0.48159 0.90565 0.47023 0.0
H2296 H 0.52038 0.96362 0.54579 0.0
H2297 H 0.54207 0.97326 0.47864 0.0
H2298 H 0.52792 0.90742 0.54552 0.0
H2299 H 0.49826 0.90545 0.53608 0.0
H2300 H 0.51322 0.92775 0.55888 0.0
H2301 H 0.55448 0.92676 0.46133 0.0
H2302 H 0.53458 0.94167 0.44802 0.0
H2303 H 0.52491 0.91272 0.45359 0.0
C2304 C 0.51124 0.30702 0.6663 0.0
C2305 C 0.5067 0.29442 0.64375 0.0
C2306 C 0.49405 0.30652 0.68127 0.0
C2307 C 0.47201 0.29241 0.67394 0.0
C2308 C 0.46737 0.27985 0.65113 0.0
C2309 C 0.48452 0.28132 0.6363 0.0
C2310 C 0.49967 0.32078 0.70508 0.0
C2311 C 0.44435 0.26427 0.64254 0.0
C2312 C 0.43307 0.26483 0.71538 0.0
C2313 C 0.41485 0.27609 0.71304 0.0
C2314 C 0.45268 0.27126 0.70433 0.0
C2315 C 0.45406 0.28924 0.69024 0.0
C2316 C 0.4364 0.30175 0.68924 0.0
C2317 C 0.41701 0.29505 0.70071 0.0
C2318 C 0.47114 0.25766 0.70632 0.0
C2319 C 0.43738 0.32135 0.67492 0.0
H2320 H 0.52819 0.31741 0.6722 0.0
H2321 H 0.48063 0.27158 0.61894 0.0
H2322 H 0.4852 0.32867 0.70934 0.0
H2323 H 0.50278 0.30975 0.71878 0.0
H2324 H 0.51523 0.33446 0.70601 0.0
H2325 H 0.44346 0.25558 0.6244 0.0
H2326 H 0.44072 0.25108 0.65445 0.0
H2327 H 0.43064 0.27413 0.64282 0.0
H2328 H 0.43149 0.25024 0.72502 0.0
H2329 H 0.40294 0.30377 0.69883 0.0
H2330 H 0.48819 0.2692 0.71119 0.0
H2331 H 0.47124 0.24773 0.68902 0.0
H2332 H 0.46858 0.24565 0.71961 0.0
H2333 H 0.45414 0.33347 0.67957 0.0
H2334 H 0.42351 0.33067 0.67764 0.0
H2335 H 0.43579 0.31489 0.65594 0.0
C2336 C 0.01642 0.83366 0.67406 0.0
C2337 C 0.03124 0.81847 0.6729 0.0
C2338 C 0.01746 0.85116 0.65953 0.0
C2339 C 0.03433 0.85413 0.64407 0.0
C2340 C 0.04927 0.83867 0.64283 0.0
C2341 C 0.04733 0.82088 0.657 0.0
C2342 C 1.00072 0.86667 0.66095 0.0
C2343 C 0.06794 0.84146 0.62719 0.0
C2344 C 0.03285 0.8889 0.59227 0.0
C2345 C 0.04875 0.90905 0.6014 0.0
C2346 C 0.02687 0.8714 0.60633 0.0
C2347 C 0.03726 0.87396 0.63004 0.0
C2348 C 0.05223 0.89493 0.63968 0.0
C2349 C 0.05779 0.91214 0.62526 0.0
C2350 C 0.01062 0.84956 0.59532 0.0
C2351 C 0.06374 0.89858 0.66478 0.0
H2352 H 1.00405 0.83189 0.68645 0.0
H2353 H 0.0591 0.80943 0.65641 0.0
H2354 H 0.01002 0.88451 0.66677 0.0
H2355 H 0.99121 0.86629 0.64326 0.0
H2356 H 0.98821 0.86175 0.67331 0.0
H2357 H 0.07784 0.8278 0.62781 0.0
H2358 H 0.06051 0.84137 0.60871 0.0
H2359 H 0.07992 0.85816 0.63274 0.0
H2360 H 0.02627 0.88618 0.5737 0.0
H2361 H 0.07048 0.92747 0.63223 0.0
H2362 H 0.99767 0.84414 0.60705 0.0
H2363 H 0.02028 0.83581 0.59285 0.0
H2364 H 1.00168 0.8513 0.57793 0.0
H2365 H 0.05082 0.89494 0.67698 0.0
H2366 H 0.07384 0.91625 0.67005 0.0
H2367 H 0.07538 0.88659 0.66692 0.0
C2368 C 0.47749 0.80903 0.82135 0.0
C2369 C 0.48615 0.81774 0.84503 0.0
C2370 C 0.45373 0.80624 0.81221 0.0
C2371 C 0.4373 0.81137 0.827 0.0
C2372 C 0.44598 0.81976 0.85098 0.0
C2373 C 0.46976 0.82281 0.85946 0.0
C2374 C 0.44612 0.79745 0.78657 0.0
C2375 C 0.42987 0.8249 0.86811 0.0
C2376 C 0.37682 0.82151 0.8028 0.0
C2377 C 0.36158 0.80052 0.80317 0.0
C2378 C 0.40102 0.8251 0.80987 0.0
C2379 C 0.4112 0.80739 0.81797 0.0
C2380 C 0.39593 0.78611 0.81839 0.0
C2381 C 0.37185 0.78299 0.81107 0.0
C2382 C 0.41582 0.84806 0.8085 0.0
C2383 C 0.40502 0.76636 0.82669 0.0
H2384 H 0.48916 0.80371 0.80998 0.0
H2385 H 0.47555 0.82887 0.87791 0.0
H2386 H 0.43311 0.78133 0.78476 0.0
H2387 H 0.43792 0.80993 0.77796 0.0
H2388 H 0.46057 0.79433 0.77713 0.0
H2389 H 0.43894 0.83162 0.88605 0.0
H2390 H 0.42035 0.83755 0.86184 0.0
H2391 H 0.41707 0.80916 0.86918 0.0
H2392 H 0.36985 0.8354 0.79712 0.0
H2393 H 0.36098 0.76649 0.8116 0.0
H2394 H 0.42817 0.84609 0.79588 0.0
H2395 H 0.42588 0.85514 0.82589 0.0
H2396 H 0.40567 0.86045 0.80275 0.0
H2397 H 0.41633 0.76083 0.81429 0.0
H2398 H 0.39112 0.75154 0.82792 0.0
H2399 H 0.41548 0.77164 0.84419 0.0
C2400 C 0.52755 0.17549 0.16896 0.0
C2401 C 0.5186 0.1934 0.16022 0.0
C2402 C 0.53213 0.15706 0.15385 0.0
C2403 C 0.52584 0.1548 0.12902 0.0
C2404 C 0.51684 0.17277 0.12013 0.0
C2405 C 0.51488 0.19211 0.13557 0.0
C2406 C 0.54487 0.14065 0.16447 0.0
C2407 C 0.50833 0.1716 0.09434 0.0
C2408 C 0.54913 0.117 0.08218 0.0
C2409 C 0.5342 0.09552 0.08038 0.0
C2410 C 0.54712 0.13592 0.09825 0.0
C2411 C 0.52901 0.13413 0.11251 0.0
C2412 C 0.51359 0.11255 0.11031 0.0
C2413 C 0.51668 0.09367 0.09491 0.0
C2414 C 0.56454 0.15797 0.09984 0.0
C2415 C 0.49343 0.10913 0.124 0.0
H2416 H 0.53206 0.17635 0.18779 0.0
H2417 H 0.51127 0.20661 0.12809 0.0
H2418 H 0.53338 0.12369 0.16326 0.0
H2419 H 0.55932 0.13855 0.15457 0.0
H2420 H 0.55175 0.14652 0.18325 0.0
H2421 H 0.51096 0.18885 0.08873 0.0
H2422 H 0.51638 0.16072 0.08268 0.0
H2423 H 0.48972 0.1641 0.09156 0.0
H2424 H 0.56284 0.11896 0.07133 0.0
H2425 H 0.50488 0.07739 0.09389 0.0
H2426 H 0.57017 0.16541 0.1185 0.0
H2427 H 0.55678 0.17049 0.09084 0.0
H2428 H 0.57979 0.15557 0.09141 0.0
H2429 H 0.49894 0.10487 0.14165 0.0
H2430 H 0.47956 0.09479 0.11517 0.0
H2431 H 0.48634 0.12472 0.12633 0.0
C2432 C 0.11891 0.32572 0.31855 0.0
C2433 C 0.11346 0.32325 0.34158 0.0
C2434 C 0.13975 0.32145 0.31079 0.0
C2435 C 0.15681 0.31497 0.32629 0.0
C2436 C 0.15151 0.31259 0.34964 0.0
C2437 C 0.1302 0.31635 0.35676 0.0
C2438 C 0.14332 0.32354 0.28557 0.0
C2439 C 0.16861 0.30617 0.36738 0.0
C2440 C 0.20371 0.28541 0.30096 0.0
C2441 C 0.22343 0.30311 0.30275 0.0
C2442 C 0.18249 0.28886 0.30846 0.0
C2443 C 0.17991 0.31082 0.31818 0.0
C2444 C 0.19968 0.32884 0.31988 0.0
C2445 C 0.22076 0.32484 0.31245 0.0
C2446 C 0.16266 0.26871 0.30589 0.0
C2447 C 0.19855 0.35271 0.32953 0.0
H2448 H 0.10651 0.33064 0.30615 0.0
H2449 H 0.12681 0.31417 0.37455 0.0
H2450 H 0.15953 0.33583 0.28485 0.0
H2451 H 0.14487 0.30682 0.27664 0.0
H2452 H 0.12904 0.32919 0.27564 0.0
H2453 H 0.16245 0.30503 0.38479 0.0
H2454 H 0.17234 0.28952 0.36089 0.0
H2455 H 0.18496 0.319 0.36968 0.0
H2456 H 0.20484 0.26852 0.29388 0.0
H2457 H 0.23529 0.33903 0.31416 0.0
H2458 H 0.14789 0.27201 0.29452 0.0
H2459 H 0.1571 0.26619 0.32333 0.0
H2460 H 0.16699 0.25273 0.29816 0.0
H2461 H 0.18598 0.35895 0.31777 0.0
H2462 H 0.21536 0.36473 0.33115 0.0
H2463 H 0.19259 0.35281 0.34709 0.0
C2464 C 0.98594 0.01929 0.2037 0.0
C2465 C 0.96276 0.01907 0.20574 0.0
C2466 C 0.99511 0.02198 0.18221 0.0
C2467 C 0.98115 0.02534 0.16191 0.0
C2468 C 0.95779 0.02551 0.16394 0.0
C2469 C 0.94887 0.02206 0.18552 0.0
C2470 C 0.01986 0.02098 0.18123 0.0
C2471 C 0.94213 0.02943 0.14323 0.0
C2472 C 0.01065 0.05187 0.11139 0.0
C2473 C 1.00882 0.03288 0.09433 0.0
C2474 C 1.0018 0.04974 0.13319 0.0
C2475 C 0.9908 0.02806 0.13855 0.0
C2476 C 0.98922 0.00884 0.12148 0.0
C2477 C 0.99811 0.01147 0.09987 0.0
C2478 C 1.00398 0.07088 0.15042 0.0
C2479 C 0.97834 0.98525 0.12612 0.0
H2480 H 0.997 0.01695 0.21897 0.0
H2481 H 0.93102 0.02212 0.18664 0.0
H2482 H 0.0212 0.00798 0.16664 0.0
H2483 H 0.02952 0.03763 0.17762 0.0
H2484 H 0.02813 0.01679 0.19791 0.0
H2485 H 0.92494 0.03073 0.14786 0.0
H2486 H 0.94978 0.04532 0.13639 0.0
H2487 H 0.94005 0.01522 0.12879 0.0
H2488 H 0.01867 0.06855 0.10753 0.0
H2489 H 0.9969 0.99649 0.0873 0.0
H2490 H 0.01372 0.06916 0.16736 0.0
H2491 H 0.98674 0.07299 0.15411 0.0
H2492 H 0.01275 0.08649 0.14379 0.0
H2493 H 0.98792 0.98088 0.14194 0.0
H2494 H 0.97801 0.97206 0.11105 0.0
H2495 H 0.96054 0.98471 0.12981 0.0
C2496 C 0.28631 0.65858 0.47405 0.0
C2497 C 0.27742 0.66474 0.49465 0.0
C2498 C 0.28483 0.6711 0.45504 0.0
C2499 C 0.27366 0.6896 0.45676 0.0
C2500 C 0.26581 0.69656 0.47803 0.0
C2501 C 0.26809 0.68419 0.49686 0.0
C2502 C 0.29431 0.66403 0.43289 0.0
C2503 C 0.2533 0.71592 0.48033 0.0
C2504 C 0.2714 0.73356 0.41563 0.0
C2505 C 0.24931 0.7254 0.40361 0.0
C2506 C 0.28061 0.72104 0.43186 0.0
C2507 C 0.26729 0.70005 0.4358 0.0
C2508 C 0.24565 0.69104 0.4223 0.0
C2509 C 0.23684 0.70399 0.40635 0.0
C2510 C 0.3039 0.73086 0.44572 0.0
C2511 C 0.2312 0.66841 0.42573 0.0
H2512 H 0.2938 0.64366 0.47261 0.0
H2513 H 0.26106 0.68884 0.51277 0.0
H2514 H 0.28065 0.66014 0.41761 0.0
H2515 H 0.30763 0.67831 0.4292 0.0
H2516 H 0.302 0.64887 0.43429 0.0
H2517 H 0.2493 0.71978 0.49849 0.0
H2518 H 0.26366 0.73158 0.47532 0.0
H2519 H 0.23699 0.71142 0.46819 0.0
H2520 H 0.28118 0.74993 0.41272 0.0
H2521 H 0.2201 0.69756 0.39621 0.0
H2522 H 0.31405 0.71749 0.44712 0.0
H2523 H 0.30185 0.73753 0.46386 0.0
H2524 H 0.31365 0.74501 0.43765 0.0
H2525 H 0.24141 0.65502 0.42515 0.0
H2526 H 0.21595 0.66286 0.41214 0.0
H2527 H 0.22529 0.6698 0.44331 0.0
C2528 C 0.65917 0.04512 0.67247 0.0
C2529 C 0.65056 0.04782 0.69391 0.0
C2530 C 0.64507 0.04465 0.65131 0.0
C2531 C 0.62239 0.04762 0.65214 0.0
C2532 C 0.6139 0.05076 0.67383 0.0
C2533 C 0.62807 0.05061 0.69445 0.0
C2534 C 0.65426 0.04097 0.62819 0.0
C2535 C 0.58984 0.05422 0.67531 0.0
C2536 C 0.58744 0.067 0.60333 0.0
C2537 C 0.57427 0.04616 0.59235 0.0
C2538 C 0.60454 0.06759 0.62192 0.0
C2539 C 0.60699 0.04696 0.63047 0.0
C2540 C 0.59279 0.02597 0.61999 0.0
C2541 C 0.57687 0.02579 0.60053 0.0
C2542 C 0.61996 0.09013 0.63231 0.0
C2543 C 0.5941 1.00385 0.62955 0.0
H2544 H 0.67665 0.04308 0.67225 0.0
H2545 H 0.62163 0.0532 0.71117 0.0
H2546 H 0.64343 0.02572 0.61705 0.0
H2547 H 0.65356 0.05575 0.61842 0.0
H2548 H 0.67218 0.03862 0.63061 0.0
H2549 H 0.58601 0.05641 0.69373 0.0
H2550 H 0.58733 0.06954 0.66716 0.0
H2551 H 0.57723 0.03942 0.66538 0.0
H2552 H 0.58517 0.08262 0.59656 0.0
H2553 H 0.56624 0.00979 0.59181 0.0
H2554 H 0.63814 0.089 0.6322 0.0
H2555 H 0.61743 0.0943 0.65091 0.0
H2556 H 0.61672 0.1043 0.62249 0.0
H2557 H 0.6115 1.00043 0.62912 0.0
H2558 H 0.58146 0.98913 0.61943 0.0
H2559 H 0.59089 1.00512 0.64819 0.0
C2560 C 0.30469 0.33907 0.96673 0.0
C2561 C 0.29686 0.35942 0.97058 0.0
C2562 C 0.30284 0.32724 0.94367 0.0
C2563 C 0.29291 0.3358 0.92385 0.0
C2564 C 0.28412 0.35576 0.92788 0.0
C2565 C 0.28616 0.36714 0.95092 0.0
C2566 C 0.31236 0.30601 0.94041 0.0
C2567 C 0.27323 0.36568 0.90768 0.0
C2568 C 0.30966 0.32302 0.86195 0.0
C2569 C 0.29078 0.3065 0.85037 0.0
C2570 C 0.31084 0.3321 0.88581 0.0
C2571 C 0.29257 0.32479 0.89881 0.0
C2572 C 0.27335 0.30819 0.88719 0.0
C2573 C 0.2727 0.2993 0.8633 0.0
C2574 C 0.33155 0.34997 0.897 0.0
C2575 C 0.25335 0.29984 0.89998 0.0
H2576 H 0.3132 0.33296 0.98153 0.0
H2577 H 0.27987 0.38273 0.95345 0.0
H2578 H 0.29949 0.29201 0.92953 0.0
H2579 H 0.3275 0.30935 0.93086 0.0
H2580 H 0.31759 0.30026 0.95746 0.0
H2581 H 0.26661 0.38091 0.91371 0.0
H2582 H 0.28594 0.37062 0.89556 0.0
H2583 H 0.25888 0.35272 0.89743 0.0
H2584 H 0.32345 0.32928 0.8522 0.0
H2585 H 0.25793 0.28664 0.85472 0.0
H2586 H 0.33957 0.34436 0.91297 0.0
H2587 H 0.3263 0.36609 0.90262 0.0
H2588 H 0.34457 0.35349 0.88484 0.0
H2589 H 0.25914 0.29146 0.91506 0.0
H2590 H 0.23933 0.28754 0.88839 0.0
H2591 H 0.24642 0.31442 0.90725 0.0
C2592 C 0.98077 0.03973 0.35437 0.0
C2593 C 0.96724 0.01855 0.344 0.0
C2594 C 0.99197 0.04282 0.37786 0.0
C2595 C 0.989 0.02456 0.39176 0.0
C2596 C 0.97583 1.00307 0.38105 0.0
C2597 C 0.96568 1.00029 0.3574 0.0
C2598 C 1.00647 0.06584 0.38805 0.0
C2599 C 0.9713 0.98318 0.39499 0.0
C2600 C 0.02735 0.02367 0.44971 0.0
C2601 C 0.01458 0.03095 0.46696 0.0
C2602 C 0.01967 0.02218 0.42535 0.0
C2603 C 0.9985 0.02789 0.41769 0.0
C2604 C 0.9856 0.03533 0.43506 0.0
C2605 C 0.99382 0.03694 0.45924 0.0
C2606 C 0.03429 0.01448 0.40776 0.0
C2607 C 0.96282 0.04132 0.42813 0.0
H2608 H 0.98191 0.05409 0.34443 0.0
H2609 H 0.95587 0.98374 0.34963 0.0
H2610 H 0.99874 0.07333 0.40277 0.0
H2611 H 0.02374 0.06397 0.39536 0.0
H2612 H 1.00831 0.07789 0.37474 0.0
H2613 H 0.96083 0.96754 0.38415 0.0
H2614 H 0.98766 0.97936 0.40253 0.0
H2615 H 0.96214 0.98764 0.40994 0.0
H2616 H 0.04354 0.01929 0.4552 0.0
H2617 H 0.9837 0.04267 0.47218 0.0
H2618 H 0.03791 0.02736 0.39552 0.0
H2619 H 0.02498 0.99832 0.39703 0.0
H2620 H 0.05078 0.01172 0.41637 0.0
H2621 H 0.96531 0.05634 0.41841 0.0
H2622 H 0.95413 0.04533 0.44361 0.0
H2623 H 0.95137 0.027 0.41619 0.0
C2624 C 0.29736 0.69526 0.63085 0.0
C2625 C 0.2812 0.67467 0.62577 0.0
C2626 C 0.29809 0.70982 0.65144 0.0
C2627 C 0.28234 0.70342 0.66725 0.0
C2628 C 0.26677 0.6821 0.66288 0.0
C2629 C 0.26641 0.6678 0.64202 0.0
C2630 C 0.31497 0.73249 0.65569 0.0
C2631 C 0.24987 0.67494 0.67964 0.0
C2632 C 0.29928 0.7376 0.7269 0.0
C2633 C 0.28509 0.75337 0.72589 0.0
C2634 C 0.2973 0.72012 0.70853 0.0
C2635 C 0.28197 0.71953 0.68804 0.0
C2636 C 0.26802 0.73578 0.68658 0.0
C2637 C 0.26949 0.75238 0.70581 0.0
C2638 C 0.31195 0.70264 0.71084 0.0
C2639 C 0.25224 0.73616 0.66447 0.0
H2640 H 0.30889 0.70042 0.61825 0.0
H2641 H 0.25379 0.65193 0.63788 0.0
H2642 H 0.30566 0.74661 0.6568 0.0
H2643 H 0.32605 0.73407 0.67271 0.0
H2644 H 0.32609 0.73473 0.64156 0.0
H2645 H 0.24026 0.65705 0.67464 0.0
H2646 H 0.25882 0.67675 0.69783 0.0
H2647 H 0.23742 0.68624 0.67985 0.0
H2648 H 0.31192 0.73881 0.74209 0.0
H2649 H 0.25869 0.76474 0.70501 0.0
H2650 H 0.32503 0.705 0.69864 0.0
H2651 H 0.30131 0.68518 0.7059 0.0
H2652 H 0.32082 0.70394 0.72901 0.0
H2653 H 0.26255 0.74053 0.65011 0.0
H2654 H 0.2413 0.74881 0.66693 0.0
H2655 H 0.24107 0.7191 0.65865 0.0
C2656 C 0.67312 0.06405 0.84773 0.0
C2657 C 0.66432 0.05514 0.8244 0.0
C2658 C 0.65851 0.06756 0.86432 0.0
C2659 C 0.63455 0.06145 0.85748 0.0
C2660 C 0.62553 0.0505 0.83458 0.0
C2661 C 0.64057 0.04762 0.81817 0.0
C2662 C 0.66877 0.0792 0.88872 0.0
C2663 C 0.60007 0.04304 0.82701 0.0
C2664 C 0.6048 0.06514 0.91113 0.0
C2665 C 0.60091 0.08746 0.91211 0.0
C2666 C 0.61336 0.05533 0.89188 0.0
C2667 C 0.61936 0.06856 0.87388 0.0
C2668 C 0.61418 0.09041 0.87389 0.0
C2669 C 0.60454 0.09939 0.8928 0.0
C2670 C 0.61762 0.03149 0.89175 0.0
C2671 C 0.62071 0.10518 0.85507 0.0
H2672 H 0.69144 0.06967 0.85273 0.0
H2673 H 0.63365 0.0404 0.80021 0.0
H2674 H 0.66286 0.09535 0.89237 0.0
H2675 H 0.66299 0.06819 0.90208 0.0
H2676 H 0.68777 0.08317 0.89099 0.0
H2677 H 0.59602 0.0315 0.8101 0.0
H2678 H 0.59157 0.03423 0.84066 0.0
H2679 H 0.59264 0.0582 0.82473 0.0
H2680 H 0.60243 0.05562 0.92589 0.0
H2681 H 0.60087 0.11624 0.89292 0.0
H2682 H 0.63596 0.03238 0.89774 0.0
H2683 H 0.61353 0.02199 0.87374 0.0
H2684 H 0.60731 0.02174 0.90367 0.0
H2685 H 0.63963 0.11068 0.85696 0.0
H2686 H 0.61329 0.12063 0.85625 0.0
H2687 H 0.61502 0.09548 0.8373 0.0
C2688 C 0.31466 0.37314 0.13112 0.0
C2689 C 0.30105 0.36278 0.10983 0.0
C2690 C 0.31175 0.3642 0.15278 0.0
C2691 C 0.29424 0.34474 0.15381 0.0
C2692 C 0.28001 0.33468 0.13246 0.0
C2693 C 0.28381 0.34347 0.11094 0.0
C2694 C 0.32789 0.37533 0.17459 0.0
C2695 C 0.26051 0.31462 0.13235 0.0
C2696 C 0.29891 0.30692 0.20383 0.0
C2697 C 0.28622 0.31544 0.22055 0.0
C2698 C 0.30183 0.31637 0.18253 0.0
C2699 C 0.29125 0.33455 0.17689 0.0
C2700 C 0.27793 0.34286 0.19349 0.0
C2701 C 0.27601 0.33362 0.21512 0.0
C2702 C 0.31675 0.30709 0.16621 0.0
C2703 C 0.26567 0.36167 0.18851 0.0
H2704 H 0.32811 0.38793 0.13075 0.0
H2705 H 0.27295 0.3353 0.09486 0.0
H2706 H 0.31815 0.38135 0.18834 0.0
H2707 H 0.33687 0.36267 0.18182 0.0
H2708 H 0.34086 0.39002 0.17107 0.0
H2709 H 0.25039 0.30916 0.11467 0.0
H2710 H 0.26716 0.29998 0.13819 0.0
H2711 H 0.24893 0.31909 0.145 0.0
H2712 H 0.30724 0.29314 0.20773 0.0
H2713 H 0.2662 0.34051 0.22771 0.0
H2714 H 0.33069 0.32108 0.16309 0.0
H2715 H 0.30656 0.29994 0.1489 0.0
H2716 H 0.3245 0.29357 0.17334 0.0
H2717 H 0.27827 0.37809 0.19051 0.0
H2718 H 0.25286 0.3634 0.20073 0.0
H2719 H 0.25687 0.35852 0.17017 0.0
C2720 C 0.25106 0.97256 0.02032 0.0
C2721 C 0.2516 0.96464 0.99686 0.0
C2722 C 0.23293 0.98171 0.02676 0.0
C2723 C 0.2147 0.98216 0.00923 0.0
C2724 C 0.21518 0.97413 0.98539 0.0
C2725 C 0.23412 0.96577 0.97933 0.0
C2726 C 0.23329 0.9907 0.05235 0.0
C2727 C 0.19579 0.97424 0.96652 0.0
C2728 C 0.1656 0.98425 0.04224 0.0
C2729 C 0.16801 0.00779 0.04691 0.0
C2730 C 0.17883 0.97519 0.02689 0.0
C2731 C 0.19497 0.99027 0.01673 0.0
C2732 C 0.19579 0.01397 0.01968 0.0
C2733 C 0.18205 0.02251 0.03482 0.0
C2734 C 0.17741 0.94978 0.02372 0.0
C2735 C 0.21306 0.0305 0.0093 0.0
H2736 H 0.26514 0.972 0.03356 0.0
H2737 H 0.23513 0.95977 0.96116 0.0
H2738 H 0.23088 0.00851 0.05399 0.0
H2739 H 0.21905 0.98028 0.05971 0.0
H2740 H 0.24959 0.99035 0.06325 0.0
H2741 H 0.19813 0.96571 0.94919 0.0
H2742 H 0.1793 0.96555 0.97156 0.0
H2743 H 0.19452 0.99205 0.96461 0.0
H2744 H 0.15402 0.97307 0.05126 0.0
H2745 H 0.18319 0.04074 0.03825 0.0
H2746 H 0.19172 0.94585 0.03529 0.0
H2747 H 0.17904 0.94357 0.00531 0.0
H2748 H 0.16108 0.94028 0.02844 0.0
H2749 H 0.22983 0.03368 0.02056 0.0
H2750 H 0.20789 0.04708 0.0084 0.0
H2751 H 0.21548 0.02348 0.99142 0.0
C2752 C 0.68506 0.65814 0.01907 0.0
C2753 C 0.70432 0.64993 0.01312 0.0
C2754 C 0.66489 0.64328 0.02306 0.0
C2755 C 0.66293 0.61934 0.01906 0.0
C2756 C 0.68224 0.61095 0.01313 0.0
C2757 C 0.70289 0.62635 0.01176 0.0
C2758 C 0.64617 0.65323 0.03275 0.0
C2759 C 0.68107 0.58571 0.00759 0.0
C2760 C 0.61795 0.57619 0.04293 0.0
C2761 C 0.59944 0.57203 0.0249 0.0
C2762 C 0.63832 0.59209 0.04169 0.0
C2763 C 0.64089 0.60315 0.02125 0.0
C2764 C 0.62245 0.59831 1.00264 0.0
C2765 C 0.60181 0.58337 1.00499 0.0
C2766 C 0.65695 0.59723 0.06246 0.0
C2767 C 0.62448 0.60879 0.9801 0.0
H2768 H 0.68608 0.67637 0.02172 0.0
H2769 H 0.71812 0.61986 0.01058 0.0
H2770 H 0.63043 0.64897 0.01986 0.0
H2771 H 0.64186 0.64571 0.0489 0.0
H2772 H 0.65118 0.67205 0.03717 0.0
H2773 H 0.69833 0.58171 0.00932 0.0
H2774 H 0.67065 0.57548 0.01894 0.0
H2775 H 0.6727 0.58006 0.98924 0.0
H2776 H 0.61609 0.56779 0.05855 0.0
H2777 H 0.58755 0.58031 0.99102 0.0
H2778 H 0.66336 0.61591 0.06692 0.0
H2779 H 0.6716 0.58976 0.05805 0.0
H2780 H 0.65092 0.59016 0.07826 0.0
H2781 H 0.62418 0.62714 0.98333 0.0
H2782 H 0.61025 0.60053 0.96604 0.0
H2783 H 0.64097 0.60745 0.97367 0.0
C2784 C 0.65996 0.48287 0.2894 0.0
C2785 C 0.67494 0.50402 0.29672 0.0
C2786 C 0.66848 0.46306 0.28354 0.0
C2787 C 0.69243 0.46462 0.28416 0.0
C2788 C 0.70747 0.48599 0.29102 0.0
C2789 C 0.6986 0.50512 0.29769 0.0
C2790 C 0.65194 0.44039 0.27711 0.0
C2791 C 0.73301 0.48884 0.29094 0.0
C2792 C 0.71896 0.41236 0.28785 0.0
C2793 C 0.72058 0.40577 0.26416 0.0
C2794 C 0.70959 0.4313 0.2946 0.0
C2795 C 0.70196 0.44414 0.27728 0.0
C2796 C 0.70448 0.43805 0.25345 0.0
C2797 C 0.71355 0.41887 0.24718 0.0
C2798 C 0.7074 0.43727 0.32022 0.0
C2799 C 0.69737 0.45164 0.23448 0.0
H2800 H 0.6417 0.48169 0.28883 0.0
H2801 H 0.71047 0.5211 0.3034 0.0
H2802 H 0.65443 0.43217 0.25973 0.0
H2803 H 0.65537 0.42887 0.29023 0.0
H2804 H 0.63384 0.44204 0.27652 0.0
H2805 H 0.74244 0.50659 0.29727 0.0
H2806 H 0.73979 0.47725 0.30219 0.0
H2807 H 0.73665 0.48418 0.27282 0.0
H2808 H 0.72427 0.40222 0.30101 0.0
H2809 H 0.71503 0.41398 0.22886 0.0
H2810 H 0.68907 0.43564 0.32239 0.0
H2811 H 0.71608 0.45523 0.32643 0.0
H2812 H 0.71484 0.42611 0.33161 0.0
H2813 H 0.67852 0.44986 0.23243 0.0
H2814 H 0.70237 0.44596 0.21721 0.0
H2815 H 0.70517 0.47002 0.23948 0.0
C2816 C 0.88216 0.44726 0.50212 0.0
C2817 C 0.86496 0.45909 0.50618 0.0
C2818 C 0.9051 0.45824 0.50784 0.0
C2819 C 0.91048 0.48143 0.51759 0.0
C2820 C 0.89309 0.49343 0.52155 0.0
C2821 C 0.8704 0.48184 0.5163 0.0
C2822 C 0.92351 0.44532 0.50302 0.0
C2823 C 0.89842 0.51855 0.53071 0.0
C2824 C 0.96912 0.50981 0.54808 0.0
C2825 C 0.97885 0.51921 0.52952 0.0
C2826 C 0.9468 0.49684 0.54438 0.0
C2827 C 0.93426 0.49381 0.52167 0.0
C2828 C 0.94417 0.5035 0.50299 0.0
C2829 C 0.96628 0.5163 0.50729 0.0
C2830 C 0.93685 0.48607 0.5645 0.0
C2831 C 0.93232 0.50003 0.47811 0.0
H2832 H 0.87764 0.42945 0.49468 0.0
H2833 H 0.85692 0.49047 0.52053 0.0
H2834 H 0.93256 0.45225 0.48871 0.0
H2835 H 0.93635 0.44755 0.51889 0.0
H2836 H 0.91644 0.42682 0.49765 0.0
H2837 H 0.88276 0.52503 0.53356 0.0
H2838 H 0.91005 0.52195 0.54756 0.0
H2839 H 0.90737 0.52831 0.51792 0.0
H2840 H 0.97879 0.51269 0.56535 0.0
H2841 H 0.97388 0.52341 0.4929 0.0
H2842 H 0.93076 0.46743 0.55933 0.0
H2843 H 0.92185 0.49307 0.56868 0.0
H2844 H 0.94949 0.48901 0.58066 0.0
H2845 H 0.9411 0.48949 0.46676 0.0
H2846 H 0.93383 0.51669 0.47126 0.0
H2847 H 0.91417 0.49146 0.47649 0.0
C2848 C 0.37263 0.09002 0.30641 0.0
C2849 C 0.36017 0.07506 0.31967 0.0
C2850 C 0.36331 0.10702 0.29719 0.0
C2851 C 0.34126 0.10933 0.30183 0.0
C2852 C 0.32921 0.09542 0.31656 0.0
C2853 C 0.33886 0.07831 0.32536 0.0
C2854 C 0.37657 0.12166 0.28143 0.0
C2855 C 0.30568 0.0977 0.32187 0.0
C2856 C 0.32978 0.16532 0.28771 0.0
C2857 C 0.31942 0.15934 0.26436 0.0
C2858 C 0.3356 0.14876 0.30088 0.0
C2859 C 0.33077 0.12589 0.29029 0.0
C2860 C 0.3191 0.11958 0.26715 0.0
C2861 C 0.3137 0.13656 0.25428 0.0
C2862 C 0.34809 0.15589 0.32554 0.0
C2863 C 0.31346 0.09515 0.25556 0.0
H2864 H 0.38921 0.08773 0.30214 0.0
H2865 H 0.32917 0.0668 0.33565 0.0
H2866 H 0.36702 0.11865 0.26341 0.0
H2867 H 0.37854 0.13997 0.28802 0.0
H2868 H 0.39384 0.11805 0.28027 0.0
H2869 H 0.3 0.0876 0.33601 0.0
H2870 H 0.30533 0.1158 0.32721 0.0
H2871 H 0.29316 0.09163 0.30576 0.0
H2872 H 0.33383 0.18305 0.29543 0.0
H2873 H 0.30509 0.13212 0.23638 0.0
H2874 H 0.3662 0.1544 0.32569 0.0
H2875 H 0.34046 0.1445 0.33781 0.0
H2876 H 0.3478 0.17375 0.33222 0.0
H2877 H 0.32937 0.09017 0.25092 0.0
H2878 H 0.30111 0.09267 0.23925 0.0
H2879 H 0.3062 0.08349 0.26778 0.0
C2880 C 0.32433 0.14516 0.53538 0.0
C2881 C 0.32201 0.15716 0.51606 0.0
C2882 C 0.34272 0.13421 0.5393 0.0
C2883 C 0.35969 0.13584 0.52391 0.0
C2884 C 0.35765 0.14842 0.50461 0.0
C2885 C 0.33856 0.15849 0.50062 0.0
C2886 C 0.34364 0.12037 0.55959 0.0
C2887 C 0.37545 0.15091 0.488 0.0
C2888 C 0.41567 0.12424 0.55223 0.0
C2889 C 0.41377 0.10118 0.54393 0.0
C2890 C 0.39896 0.13615 0.54462 0.0
C2891 C 0.37963 0.12467 0.5285 0.0
C2892 C 0.37842 0.10175 0.51887 0.0
C2893 C 0.39553 0.09028 0.5267 0.0
C2894 C 0.40123 0.16059 0.55513 0.0
C2895 C 0.35815 0.0887 0.50174 0.0
H2896 H 0.31111 0.14346 0.54687 0.0
H2897 H 0.33646 0.16729 0.48534 0.0
H2898 H 0.34408 0.10254 0.55298 0.0
H2899 H 0.35952 0.12741 0.57196 0.0
H2900 H 0.32873 0.12014 0.56944 0.0
H2901 H 0.37236 0.16263 0.47497 0.0
H2902 H 0.39275 0.15743 0.49802 0.0
H2903 H 0.37542 0.134 0.47836 0.0
H2904 H 0.42963 0.13262 0.56576 0.0
H2905 H 0.39381 0.07235 0.52057 0.0
H2906 H 0.38827 0.16154 0.5673 0.0
H2907 H 0.39795 0.17125 0.54112 0.0
H2908 H 0.41845 0.1679 0.56508 0.0
H2909 H 0.34324 0.08413 0.51138 0.0
H2910 H 0.36162 0.07276 0.49281 0.0
H2911 H 0.35333 0.09926 0.4882 0.0
C2912 C 0.69817 0.61992 0.29715 0.0
C2913 C 0.67545 0.6195 0.30104 0.0
C2914 C 0.71349 0.64033 0.29494 0.0
C2915 C 0.70555 0.66086 0.29454 0.0
C2916 C 0.68203 0.66019 0.29614 0.0
C2917 C 0.66747 0.63976 0.29998 0.0
C2918 C 0.73822 0.63985 0.29304 0.0
C2919 C 0.67195 0.6807 0.29242 0.0
C2920 C 0.74599 0.71954 0.31051 0.0
C2921 C 0.75339 0.72408 0.28892 0.0
C2922 C 0.73095 0.69892 0.3126 0.0
C2923 C 0.72184 0.68286 0.29233 0.0
C2924 C 0.72894 0.68774 0.2703 0.0
C2925 C 0.74517 0.70786 0.26906 0.0
C2926 C 0.72509 0.69426 0.33665 0.0
C2927 C 0.71954 0.67212 0.24769 0.0
H2928 H 0.70391 0.60411 0.29509 0.0
H2929 H 0.64961 0.63949 0.30144 0.0
H2930 H 0.74378 0.64757 0.27749 0.0
H2931 H 0.74915 0.65009 0.30881 0.0
H2932 H 0.74126 0.62228 0.29147 0.0
H2933 H 0.65314 0.67709 0.29262 0.0
H2934 H 0.67993 0.69513 0.3062 0.0
H2935 H 0.67565 0.68629 0.27522 0.0
H2936 H 0.75225 0.73206 0.32592 0.0
H2937 H 0.75049 0.71147 0.25222 0.0
H2938 H 0.72692 0.67683 0.33949 0.0
H2939 H 0.70704 0.69516 0.33793 0.0
H2940 H 0.73615 0.70662 0.35094 0.0
H2941 H 0.73272 0.66282 0.24239 0.0
H2942 H 0.7158 0.68227 0.23331 0.0
H2943 H 0.70374 0.65956 0.24911 0.0
C2944 C 0.84612 0.45555 0.80008 0.0
C2945 C 0.86892 0.46123 0.81049 0.0
C2946 C 0.83535 0.43292 0.79281 0.0
C2947 C 0.84822 0.41591 0.79501 0.0
C2948 C 0.87166 0.42166 0.80417 0.0
C2949 C 0.88173 0.44441 0.81216 0.0
C2950 C 0.81008 0.42717 0.7838 0.0
C2951 C 0.88587 0.40377 0.80592 0.0
C2952 C 0.81642 0.35999 0.80799 0.0
C2953 C 0.81249 0.34707 0.78595 0.0
C2954 C 0.82823 0.3824 0.81104 0.0
C2955 C 0.83632 0.39203 0.7915 0.0
C2956 C 0.83235 0.37912 0.76901 0.0
C2957 C 0.81996 0.35666 0.76644 0.0
C2958 C 0.83178 0.39579 0.83513 0.0
C2959 C 0.841 0.38889 0.74781 0.0
H2960 H 0.8368 0.46883 0.79721 0.0
H2961 H 0.89968 0.44912 0.81939 0.0
H2962 H 0.80673 0.41599 0.76673 0.0
H2963 H 0.80061 0.41768 0.79644 0.0
H2964 H 0.80311 0.44262 0.78149 0.0
H2965 H 0.90441 0.41141 0.81063 0.0
H2966 H 0.88031 0.39295 0.81951 0.0
H2967 H 0.8833 0.39246 0.78895 0.0
H2968 H 0.81045 0.35255 0.82298 0.0
H2969 H 0.81585 0.34691 0.74925 0.0
H2970 H 0.82624 0.41193 0.83351 0.0
H2971 H 0.8502 0.39995 0.84226 0.0
H2972 H 0.82199 0.38664 0.8478 0.0
H2973 H 0.83007 0.40041 0.74157 0.0
H2974 H 0.84065 0.37533 0.73308 0.0
H2975 H 0.85875 0.39908 0.75238 0.0
C2976 C 0.0778 0.87393 0.07962 0.0
C2977 C 0.06033 0.85996 0.08933 0.0
C2978 C 0.07523 0.89519 0.0715 0.0
C2979 C 0.05486 0.90381 0.07341 0.0
C2980 C 0.03738 0.88986 0.08354 0.0
C2981 C 0.0401 0.8684 0.09074 0.0
C2982 C 0.0943 0.90825 0.06024 0.0
C2983 C 0.01541 0.89753 0.08668 0.0
C2984 C 0.0566 0.96953 0.0728 0.0
C2985 C 0.04538 0.9712 0.05034 0.0
C2986 C 0.05968 0.94825 0.08029 0.0
C2987 C 0.05183 0.92717 0.06517 0.0
C2988 C 0.04058 0.92873 0.04238 0.0
C2989 C 0.03746 0.95025 0.03544 0.0
C2990 C 0.07124 0.94837 0.10484 0.0
C2991 C 0.03212 0.90756 0.02488 0.0
H2992 H 0.09332 0.86784 0.07753 0.0
H2993 H 0.02609 0.85802 0.09761 0.0
H2994 H 0.08748 0.91216 0.04282 0.0
H2995 H 0.10189 0.92474 0.07131 0.0
H2996 H 0.10805 0.8987 0.05785 0.0
H2997 H 1.00433 0.88624 0.09676 0.0
H2998 H 0.01917 0.91518 0.09596 0.0
H2999 H 1.00574 0.89768 0.06921 0.0
H3000 H 0.06293 0.98506 0.0849 0.0
H3001 H 0.02886 0.95061 0.01802 0.0
H3002 H 0.08718 0.9419 0.10405 0.0
H3003 H 0.05991 0.93679 0.11443 0.0
H3004 H 0.0756 0.96567 0.11503 0.0
H3005 H 0.047 0.90091 0.01958 0.0
H3006 H 0.02192 0.91086 0.00885 0.0
H3007 H 0.02148 0.89403 0.03293 0.0
C3008 C 0.93724 0.25494 0.89574 0.0
C3009 C 0.94597 0.27407 0.91274 0.0
C3010 C 0.91706 0.25326 0.87971 0.0
C3011 C 0.90571 0.27185 0.87916 0.0
C3012 C 0.91437 0.29111 0.89663 0.0
C3013 C 0.93359 0.29153 0.91358 0.0
C3014 C 0.90813 0.23135 0.86337 0.0
C3015 C 0.90368 0.31169 0.89713 0.0
C3016 C 0.86988 0.27532 0.81964 0.0
C3017 C 0.84756 0.27411 0.82518 0.0
C3018 C 0.88839 0.27366 0.8364 0.0
C3019 C 0.88532 0.27145 0.86031 0.0
C3020 C 0.86245 0.26898 0.86583 0.0
C3021 C 0.84421 0.27037 0.84848 0.0
C3022 C 0.91093 0.27352 0.82747 0.0
C3023 C 0.85647 0.26423 0.88983 0.0
H3024 H 0.94607 0.24093 0.89517 0.0
H3025 H 0.93929 0.3059 0.92722 0.0
H3026 H 0.88939 0.22835 0.85798 0.0
H3027 H 0.91685 0.23202 0.8474 0.0
H3028 H 0.91192 0.21657 0.87183 0.0
H3029 H 0.903 0.31775 0.87958 0.0
H3030 H 0.8859 0.30717 0.90119 0.0
H3031 H 0.91318 0.32587 0.91059 0.0
H3032 H 0.87322 0.27759 0.80204 0.0
H3033 H 0.82716 0.26867 0.85349 0.0
H3034 H 0.90987 0.2568 0.81689 0.0
H3035 H 0.92537 0.27623 0.84172 0.0
H3036 H 0.91432 0.28661 0.81541 0.0
H3037 H 0.84167 0.24956 0.88795 0.0
H3038 H 0.85092 0.27913 0.89851 0.0
H3039 H 0.87076 0.2604 0.90145 0.0
C3040 C 0.55311 0.21641 0.60679 0.0
C3041 C 0.55917 0.23423 0.59314 0.0
C3042 C 0.55147 0.19304 0.59815 0.0
C3043 C 0.55611 0.18648 0.57501 0.0
C3044 C 0.56208 0.20438 0.56101 0.0
C3045 C 0.56388 0.22774 0.57025 0.0
C3046 C 0.54505 0.17525 0.61415 0.0
C3047 C 0.56685 0.19889 0.53617 0.0
C3048 C 0.57228 0.12701 0.56185 0.0
C3049 C 0.55156 0.11257 0.55099 0.0
C3050 C 0.57415 0.1508 0.56909 0.0
C3051 C 0.55482 0.16109 0.56583 0.0
C3052 C 0.53392 0.14657 0.55474 0.0
C3053 C 0.53257 0.12295 0.54759 0.0
C3054 C 0.59694 0.16494 0.58066 0.0
C3055 C 0.51271 0.15599 0.55034 0.0
H3056 H 0.5498 0.22081 0.62461 0.0
H3057 H 0.5695 0.24101 0.55963 0.0
H3058 H 0.52961 0.1625 0.60572 0.0
H3059 H 0.55911 0.16602 0.61711 0.0
H3060 H 0.54157 0.18274 0.63147 0.0
H3061 H 0.5712 0.2144 0.52737 0.0
H3062 H 0.5812 0.18986 0.53615 0.0
H3063 H 0.55163 0.18728 0.52569 0.0
H3064 H 0.58707 0.11963 0.56522 0.0
H3065 H 0.51632 0.1125 0.53927 0.0
H3066 H 0.59543 0.17192 0.59887 0.0
H3067 H 0.60219 0.17964 0.57097 0.0
H3068 H 0.61058 0.15495 0.58132 0.0
H3069 H 0.5087 0.16405 0.56714 0.0
H3070 H 0.49759 0.14271 0.54205 0.0
H3071 H 0.51584 0.16936 0.53859 0.0
C3072 C 0.58215 0.77603 0.4254 0.0
C3073 C 0.56394 0.78382 0.41393 0.0
C3074 C 0.60238 0.7756 0.41484 0.0
C3075 C 0.6043 0.78296 0.39234 0.0
C3076 C 0.58555 0.78978 0.3804 0.0
C3077 C 0.56597 0.79023 0.39127 0.0
C3078 C 0.62188 0.7679 0.42801 0.0
C3079 C 0.5863 0.79739 0.35624 0.0
C3080 C 0.65719 0.81225 0.36874 0.0
C3081 C 0.65893 0.79594 0.35023 0.0
C3082 C 0.64114 0.80727 0.3845 0.0
C3083 C 0.62611 0.78557 0.38147 0.0
C3084 C 0.62912 0.76848 0.36391 0.0
C3085 C 0.64553 0.77388 0.34851 0.0
C3086 C 0.63863 0.82608 0.40282 0.0
C3087 C 0.61356 0.74514 0.35995 0.0
H3088 H 0.58084 0.77079 0.44269 0.0
H3089 H 0.55215 0.79596 0.38169 0.0
H3090 H 0.62898 0.75621 0.41613 0.0
H3091 H 0.63583 0.78292 0.43473 0.0
H3092 H 0.61653 0.75917 0.44315 0.0
H3093 H 0.5698 0.80113 0.34887 0.0
H3094 H 0.59986 0.81299 0.35715 0.0
H3095 H 0.59052 0.78403 0.34379 0.0
H3096 H 0.66745 0.82937 0.36999 0.0
H3097 H 0.64672 0.76133 0.33405 0.0
H3098 H 0.63638 0.81957 0.41989 0.0
H3099 H 0.62315 0.83252 0.39712 0.0
H3100 H 0.65366 0.84058 0.4055 0.0
H3101 H 0.61223 0.73811 0.37688 0.0
H3102 H 0.61967 0.73305 0.34753 0.0
H3103 H 0.5961 0.74642 0.35263 0.0
C3104 C 0.02945 0.23883 0.39212 0.0
C3105 C 0.04875 0.25668 0.39772 0.0
C3106 C 0.02674 0.2199 0.40479 0.0
C3107 C 0.04402 0.21844 0.42307 0.0
C3108 C 0.06424 0.23575 0.42762 0.0
C3109 C 0.06615 0.25481 0.41523 0.0
C3110 C 1.00476 0.20208 0.39951 0.0
C3111 C 0.08353 0.23454 0.44616 0.0
C3112 C 0.02235 0.18521 0.47182 0.0
C3113 C 0.02621 0.16347 0.46492 0.0
C3114 C 0.0292 0.2035 0.45908 0.0
C3115 C 0.03994 0.19998 0.43868 0.0
C3116 C 0.04512 0.17836 0.43251 0.0
C3117 C 0.03814 0.16036 0.44567 0.0
C3118 C 0.0237 0.22628 0.46671 0.0
C3119 C 0.05678 0.17376 0.41117 0.0
H3120 H 0.01582 0.24032 0.37884 0.0
H3121 H 0.08116 0.26855 0.41958 0.0
H3122 H 1.00851 0.18485 0.39624 0.0
H3123 H 0.99527 0.20232 0.41498 0.0
H3124 H 0.99353 0.20492 0.38399 0.0
H3125 H 0.09889 0.24824 0.44613 0.0
H3126 H 0.07784 0.23607 0.46382 0.0
H3127 H 0.08843 0.21779 0.44329 0.0
H3128 H 0.01298 0.18761 0.4866 0.0
H3129 H 0.04086 0.1435 0.4401 0.0
H3130 H 0.01095 0.23008 0.45314 0.0
H3131 H 0.03926 0.24004 0.46841 0.0
H3132 H 0.01672 0.22671 0.48378 0.0
H3133 H 0.0442 0.17143 0.39509 0.0
H3134 H 0.06382 0.15811 0.41155 0.0
H3135 H 0.07085 0.18835 0.40981 0.0
C3136 C 0.61341 0.27053 0.20887 0.0
C3137 C 0.59656 0.26299 0.22321 0.0
C3138 C 0.63738 0.27364 0.21658 0.0
C3139 C 0.64549 0.26831 0.23907 0.0
C3140 C 0.62851 0.26055 0.25358 0.0
C3141 C 0.60466 0.2584 0.24576 0.0
C3142 C 0.65419 0.2828 0.20053 0.0
C3143 C 0.63558 0.25441 0.27755 0.0
C3144 C 0.70695 0.25531 0.24947 0.0
C3145 C 0.72067 0.27599 0.26112 0.0
C3146 C 0.68289 0.25259 0.24241 0.0
C3147 C 0.67146 0.27083 0.24723 0.0
C3148 C 0.68525 0.29163 0.25945 0.0
C3149 C 0.70931 0.29399 0.2658 0.0
C3150 C 0.66971 0.23011 0.2293 0.0
C3151 C 0.67471 0.31177 0.26563 0.0
H3152 H 0.60784 0.2744 0.19153 0.0
H3153 H 0.59222 0.25248 0.25721 0.0
H3154 H 0.66609 0.2985 0.20964 0.0
H3155 H 0.66468 0.27015 0.19612 0.0
H3156 H 0.64559 0.28683 0.18395 0.0
H3157 H 0.62064 0.24754 0.28638 0.0
H3158 H 0.64634 0.24152 0.27603 0.0
H3159 H 0.6461 0.26972 0.28886 0.0
H3160 H 0.71517 0.24138 0.24507 0.0
H3161 H 0.71932 0.31015 0.27477 0.0
H3162 H 0.66217 0.2327 0.21162 0.0
H3163 H 0.65535 0.22306 0.23878 0.0
H3164 H 0.68062 0.2174 0.22715 0.0
H3165 H 0.67062 0.31944 0.24946 0.0
H3166 H 0.68642 0.3251 0.27856 0.0
H3167 H 0.65849 0.30638 0.273 0.0
C3168 C 0.57413 0.90638 0.90985 0.0
C3169 C 0.55598 0.88718 0.90456 0.0
C3170 C 0.57343 0.92508 0.92691 0.0
C3171 C 0.55369 0.92541 0.93852 0.0
C3172 C 0.53511 0.90623 0.93267 0.0
C3173 C 0.53668 0.8874 0.91636 0.0
C3174 C 0.59403 0.94449 0.93271 0.0
C3175 C 0.51309 0.90589 0.94306 0.0
C3176 C 0.55543 0.96445 0.99731 0.0
C3177 C 0.54895 0.98407 0.98999 0.0
C3178 C 0.55747 0.94572 0.98102 0.0
C3179 C 0.55227 0.94578 0.95632 0.0
C3180 C 0.5456 0.96549 0.9488 0.0
C3181 C 0.54481 0.98438 0.96544 0.0
C3182 C 0.56556 0.92587 0.99035 0.0
C3183 C 0.53909 0.96676 0.92303 0.0
H3184 H 0.58915 0.9066 0.90099 0.0
H3185 H 0.52233 0.87294 0.91226 0.0
H3186 H 0.58958 0.9603 0.92725 0.0
H3187 H 0.5994 0.94767 0.95201 0.0
H3188 H 0.60871 0.94107 0.92382 0.0
H3189 H 0.50019 0.88987 0.93691 0.0
H3190 H 0.51641 0.90793 0.96253 0.0
H3191 H 0.50575 0.92048 0.93812 0.0
H3192 H 0.55964 0.96392 0.01587 0.0
H3193 H 0.54046 0.99936 0.95896 0.0
H3194 H 0.58077 0.92289 0.98218 0.0
H3195 H 0.55204 0.91014 0.98555 0.0
H3196 H 0.57009 0.9287 0.00978 0.0
H3197 H 0.55481 0.9708 0.9145 0.0
H3198 H 0.52922 0.98021 0.92036 0.0
H3199 H 0.52872 0.95022 0.91396 0.0
C3200 C 0.94871 0.7496 0.7317 0.0
C3201 C 0.96685 0.76881 0.73266 0.0
C3202 C 0.92668 0.75132 0.73876 0.0
C3203 C 0.92139 0.7729 0.74633 0.0
C3204 C 0.93949 0.7923 0.74669 0.0
C3205 C 0.96151 0.79001 0.7405 0.0
C3206 C 0.90906 0.7297 0.73841 0.0
C3207 C 0.93562 0.8159 0.75355 0.0
C3208 C 0.85646 0.77821 0.74339 0.0
C3209 C 0.85243 0.78136 0.76716 0.0
C3210 C 0.87831 0.77589 0.73658 0.0
C3211 C 0.89734 0.77541 0.75359 0.0
C3212 C 0.89322 0.77819 0.77765 0.0
C3213 C 0.87146 0.78153 0.78401 0.0
C3214 C 0.88107 0.77435 0.71083 0.0
C3215 C 0.91164 0.77674 0.79698 0.0
H3216 H 0.95189 0.73297 0.72605 0.0
H3217 H 0.97473 0.80529 0.74152 0.0
H3218 H 0.90055 0.73023 0.75456 0.0
H3219 H 0.89569 0.7279 0.72311 0.0
H3220 H 0.9167 0.71439 0.73698 0.0
H3221 H 0.94979 0.8294 0.74991 0.0
H3222 H 0.91935 0.81806 0.74391 0.0
H3223 H 0.93416 0.81844 0.77261 0.0
H3224 H 0.84249 0.7781 0.72982 0.0
H3225 H 0.86919 0.7837 0.80244 0.0
H3226 H 0.88295 0.75696 0.7044 0.0
H3227 H 0.89678 0.78646 0.70814 0.0
H3228 H 0.86618 0.77811 0.69999 0.0
H3229 H 0.91436 0.75903 0.79569 0.0
H3230 H 0.90709 0.78143 0.81474 0.0
H3231 H 0.92812 0.78797 0.79505 0.0
C3232 C 0.1032 0.03145 0.86663 0.0
C3233 C 0.11616 0.05322 0.86509 0.0
C3234 C 0.09226 0.02674 0.88677 0.0
C3235 C 0.09411 0.04421 0.90593 0.0
C3236 C 0.1068 0.06628 0.90411 0.0
C3237 C 0.1177 0.0704 0.88399 0.0
C3238 C 0.07902 1.00294 0.88771 0.0
C3239 C 0.10932 0.0856 0.92374 0.0
C3240 C 0.05117 0.04242 0.95093 0.0
C3241 C 0.06267 0.03557 0.97067 0.0
C3242 C 0.06062 0.04408 0.92959 0.0
C3243 C 0.08275 0.03979 0.9278 0.0
C3244 C 0.09453 0.03289 0.94763 0.0
C3245 C 0.08422 0.03043 0.9685 0.0
C3246 C 0.04696 0.05085 0.90899 0.0
C3247 C 0.11829 0.02851 0.94698 0.0
H3248 H 0.10228 0.01788 0.85245 0.0
H3249 H 0.1277 0.08721 0.88328 0.0
H3250 H 0.08616 0.99609 0.90331 0.0
H3251 H 0.06094 1.0033 0.88965 0.0
H3252 H 0.07941 0.99113 0.8717 0.0
H3253 H 0.11962 0.10181 0.9197 0.0
H3254 H 0.09222 0.08841 0.92709 0.0
H3255 H 0.11765 0.08115 0.94023 0.0
H3256 H 0.03456 0.04653 0.95208 0.0
H3257 H 0.09336 0.02498 0.98336 0.0
H3258 H 0.04611 0.03861 0.89299 0.0
H3259 H 0.05554 0.06788 0.90522 0.0
H3260 H 0.02924 0.05151 0.91231 0.0
H3261 H 0.11785 0.01411 0.93319 0.0
H3262 H 0.1257 0.02442 0.9641 0.0
H3263 H 0.12979 0.04369 0.9423 0.0
C3264 C 0.79763 0.42014 0.58511 0.0
C3265 C 0.79782 0.40837 0.56293 0.0
C3266 C 0.80178 0.40991 0.6055 0.0
C3267 C 0.80731 0.38812 0.60333 0.0
C3268 C 0.80711 0.37614 0.58088 0.0
C3269 C 0.80192 0.38626 0.56099 0.0
C3270 C 0.80094 0.42259 0.62925 0.0
C3271 C 0.81357 0.35312 0.57777 0.0
C3272 C 0.84723 0.36763 0.64645 0.0
C3273 C 0.83216 0.34987 0.65387 0.0
C3274 C 0.839 0.382 0.63175 0.0
C3275 C 0.81521 0.37813 0.62414 0.0
C3276 C 0.7998 0.36113 0.63288 0.0
C3277 C 0.80851 0.34715 0.64777 0.0
C3278 C 0.85595 0.40002 0.62279 0.0
C3279 C 0.77434 0.35655 0.6251 0.0
H3280 H 0.79445 0.43725 0.5865 0.0
H3281 H 0.80245 0.37727 0.54382 0.0
H3282 H 0.79113 0.41112 0.64016 0.0
H3283 H 0.81853 0.4286 0.63869 0.0
H3284 H 0.793 0.43757 0.62773 0.0
H3285 H 0.81269 0.34628 0.55896 0.0
H3286 H 0.83126 0.35448 0.58645 0.0
H3287 H 0.80203 0.34064 0.58621 0.0
H3288 H 0.86548 0.36994 0.65178 0.0
H3289 H 0.79692 0.33347 0.65385 0.0
H3290 H 0.85017 0.41637 0.62367 0.0
H3291 H 0.85719 0.39456 0.60406 0.0
H3292 H 0.87328 0.40297 0.63294 0.0
H3293 H 0.76831 0.37276 0.62513 0.0
H3294 H 0.76451 0.34568 0.63652 0.0
H3295 H 0.77049 0.34767 0.60681 0.0
C3296 C 0.41902 0.02256 0.40282 0.0
C3297 C 0.42361 0.03055 0.38156 0.0
C3298 C 0.43687 0.02298 0.42049 0.0
C3299 C 0.45951 0.03211 0.41678 0.0
C3300 C 0.46423 0.04072 0.39564 0.0
C3301 C 0.44613 0.03985 0.37819 0.0
C3302 C 0.43157 0.01344 0.44294 0.0
C3303 C 0.48834 0.05087 0.39154 0.0
C3304 C 0.49973 0.05655 0.47135 0.0
C3305 C 0.51155 0.03909 0.47407 0.0
C3306 C 0.48298 0.05461 0.45232 0.0
C3307 C 0.4781 0.03468 0.43591 0.0
C3308 C 0.49061 0.01734 0.43804 0.0
C3309 C 0.50753 0.01987 0.45725 0.0
C3310 C 0.46996 0.07347 0.45025 0.0
C3311 C 0.48541 0.99578 0.42079 0.0
H3312 H 0.40162 0.0153 0.40538 0.0
H3313 H 0.44967 0.04616 0.36176 0.0
H3314 H 0.44069 0.99946 0.44542 0.0
H3315 H 0.43774 0.02679 0.45829 0.0
H3316 H 0.41297 1.00669 0.44283 0.0
H3317 H 0.48903 0.05629 0.37375 0.0
H3318 H 0.49577 0.06589 0.40487 0.0
H3319 H 0.49933 0.03829 0.3936 0.0
H3320 H 0.50319 0.07152 0.48442 0.0
H3321 H 0.51671 1.00638 0.45979 0.0
H3322 H 0.45165 0.06692 0.45172 0.0
H3323 H 0.47082 0.07949 0.43277 0.0
H3324 H 0.47671 0.08826 0.46408 0.0
H3325 H 0.46844 0.98548 0.42281 0.0
H3326 H 0.4984 0.98525 0.42358 0.0
H3327 H 0.48453 0.99985 0.40244 0.0
C3328 C 0.78314 0.70449 0.10981 0.0
C3329 C 0.77236 0.71387 0.09156 0.0
C3330 C 0.78507 0.71414 0.13368 0.0
C3331 C 0.77507 0.73305 0.13976 0.0
C3332 C 0.76389 0.74232 0.12132 0.0
C3333 C 0.7631 0.73297 0.0976 0.0
C3334 C 0.79803 0.70422 0.15241 0.0
C3335 C 0.7526 0.76212 0.12665 0.0
C3336 C 0.76034 0.74362 0.203 0.0
C3337 C 0.77839 0.76147 0.21359 0.0
C3338 C 0.759 0.73435 0.17913 0.0
C3339 C 0.77614 0.74305 0.1653 0.0
C3340 C 0.79427 0.76133 0.17601 0.0
C3341 C 0.79528 0.77008 0.19995 0.0
C3342 C 0.73939 0.71492 0.16882 0.0
C3343 C 0.81306 0.77131 0.16241 0.0
H3344 H 0.79056 0.6899 0.10539 0.0
H3345 H 0.75465 0.74032 0.08368 0.0
H3346 H 0.81176 0.71777 0.16278 0.0
H3347 H 0.78636 0.69731 0.16479 0.0
H3348 H 0.8059 0.6904 0.14489 0.0
H3349 H 0.74363 0.76671 0.11056 0.0
H3350 H 0.74005 0.75794 0.13913 0.0
H3351 H 0.76565 0.77724 0.13526 0.0
H3352 H 0.74758 0.73646 0.21357 0.0
H3353 H 0.80952 0.78358 0.20816 0.0
H3354 H 0.74606 0.69961 0.1633 0.0
H3355 H 0.73011 0.71941 0.15287 0.0
H3356 H 0.72708 0.71051 0.18151 0.0
H3357 H 0.82392 0.75877 0.15906 0.0
H3358 H 0.82412 0.78727 0.17211 0.0
H3359 H 0.80579 0.775 0.14508 0.0
C3360 C 0.12306 0.04402 0.70894 0.0
C3361 C 0.11113 0.05023 0.72738 0.0
C3362 C 0.11357 0.04237 0.68508 0.0
C3363 C 0.09196 0.04796 0.67927 0.0
C3364 C 0.07995 0.05439 0.69788 0.0
C3365 C 0.08944 0.05504 0.72155 0.0
C3366 C 0.12671 0.03466 0.66602 0.0
C3367 C 0.05713 0.06089 0.69278 0.0
C3368 C 0.07851 0.06586 0.618 0.0
C3369 C 0.06453 0.04592 0.60547 0.0
C3370 C 0.08737 0.06681 0.64192 0.0
C3371 C 0.08208 0.04735 0.65383 0.0
C3372 C 0.06758 0.02726 0.64122 0.0
C3373 C 0.05927 0.02672 0.61722 0.0
C3374 C 0.10278 0.08859 0.65433 0.0
C3375 C 0.0612 1.00607 0.65286 0.0
H3376 H 0.13974 0.04013 0.71318 0.0
H3377 H 0.08014 0.06004 0.7356 0.0
H3378 H 0.11587 0.01984 0.65423 0.0
H3379 H 0.13128 0.04851 0.65507 0.0
H3380 H 0.14264 0.02975 0.67328 0.0
H3381 H 0.05024 0.06621 0.7091 0.0
H3382 H 0.05882 0.0751 0.6819 0.0
H3383 H 0.04457 0.04627 0.6825 0.0
H3384 H 0.08317 0.08048 0.60888 0.0
H3385 H 0.04864 0.01116 0.60755 0.0
H3386 H 0.12002 0.08548 0.65985 0.0
H3387 H 0.09595 0.09441 0.67048 0.0
H3388 H 0.10458 0.10246 0.64298 0.0
H3389 H 0.07651 0.9987 0.65645 0.0
H3390 H 0.0476 0.99291 0.64169 0.0
H3391 H 0.05518 0.01023 0.66999 0.0
C3392 C 0.79955 0.38049 0.43982 0.0
C3393 C 0.79573 0.40179 0.43483 0.0
C3394 C 0.79786 0.36284 0.42188 0.0
C3395 C 0.79227 0.36674 0.39854 0.0
C3396 C 0.7877 0.38788 0.3933 0.0
C3397 C 0.78957 0.40537 0.41169 0.0
C3398 C 0.80297 0.34039 0.42784 0.0
C3399 C 0.78154 0.39216 0.3683 0.0
C3400 C 0.81334 0.33126 0.35219 0.0
C3401 C 0.7927 0.31763 0.34125 0.0
C3402 C 0.81341 0.3479 0.37077 0.0
C3403 C 0.79254 0.34907 0.37949 0.0
C3404 C 0.772 0.33359 0.36989 0.0
C3405 C 0.7722 0.31832 0.35016 0.0
C3406 C 0.83543 0.36484 0.38018 0.0
C3407 C 0.74995 0.33337 0.38025 0.0
H3408 H 0.8046 0.37773 0.45773 0.0
H3409 H 0.78653 0.42182 0.40797 0.0
H3410 H 0.78941 0.32593 0.41874 0.0
H3411 H 0.81933 0.33818 0.42168 0.0
H3412 H 0.80445 0.3394 0.44706 0.0
H3413 H 0.77834 0.40956 0.36735 0.0
H3414 H 0.79558 0.38992 0.35787 0.0
H3415 H 0.76598 0.37957 0.3599 0.0
H3416 H 0.8291 0.3299 0.34519 0.0
H3417 H 0.75647 0.30688 0.34174 0.0
H3418 H 0.83942 0.36506 0.39944 0.0
H3419 H 0.83344 0.38222 0.37709 0.0
H3420 H 0.85018 0.36104 0.37163 0.0
H3421 H 0.75252 0.33114 0.39915 0.0
H3422 H 0.73577 0.31948 0.37109 0.0
H3423 H 0.74479 0.34991 0.3792 0.0
C3424 C 0.40532 0.01317 0.23168 0.0
C3425 C 0.41439 0.03009 0.25066 0.0
C3426 C 0.41734 0.01069 0.21246 0.0
C3427 C 0.43852 0.02587 0.21222 0.0
C3428 C 0.44629 0.04461 0.23002 0.0
C3429 C 0.4342 0.04635 0.24931 0.0
C3430 C 0.40854 0.99048 0.1937 0.0
C3431 C 0.46815 0.0618 0.22951 0.0
C3432 C 0.48091 0.99637 0.18534 0.0
C3433 C 0.47721 1.00019 0.16185 0.0
C3434 C 0.4692 1.00565 0.20226 0.0
C3435 C 0.45401 0.01973 0.19563 0.0
C3436 C 0.45173 0.02536 0.17249 0.0
C3437 C 0.46291 0.01507 0.1557 0.0
C3438 C 0.47208 0.99927 0.2269 0.0
C3439 C 0.43652 0.04116 0.16504 0.0
H3440 H 0.38997 1.00063 0.2328 0.0
H3441 H 0.44094 0.05969 0.26392 0.0
H3442 H 0.40826 0.99602 0.17596 0.0
H3443 H 0.4202 0.97838 0.19473 0.0
H3444 H 0.39105 0.98127 0.19562 0.0
H3445 H 0.47086 0.07629 0.24381 0.0
H3446 H 0.483 0.0535 0.23137 0.0
H3447 H 0.4678 0.06855 0.21233 0.0
H3448 H 0.49251 0.98557 0.19042 0.0
H3449 H 0.45964 0.0181 0.13758 0.0
H3450 H 0.45556 0.98942 0.23076 0.0
H3451 H 0.47708 0.0148 0.23998 0.0
H3452 H 0.48522 0.98883 0.22935 0.0
H3453 H 0.41864 0.03137 0.16038 0.0
H3454 H 0.44182 0.04899 0.14935 0.0
H3455 H 0.43674 0.05496 0.17943 0.0
C3456 C 0.75376 0.7197 0.94168 0.0
C3457 C 0.77219 0.71437 0.95551 0.0
C3458 C 0.75679 0.73035 0.92111 0.0
C3459 C 0.77895 0.73646 0.91416 0.0
C3460 C 0.79775 0.73183 0.92863 0.0
C3461 C 0.7941 0.72054 0.94872 0.0
C3462 C 0.73605 0.73431 0.90632 0.0
C3463 C 0.82184 0.73892 0.92296 0.0
C3464 C 0.78656 0.74371 0.84939 0.0
C3465 C 0.7867 0.76696 0.84837 0.0
C3466 C 0.78344 0.73358 0.87025 0.0
C3467 C 0.78228 0.74717 0.8916 0.0
C3468 C 0.78368 0.77089 0.89102 0.0
C3469 C 0.78486 0.78019 0.86946 0.0
C3470 C 0.78067 0.70808 0.86918 0.0
C3471 C 0.78378 0.78671 0.91312 0.0
H3472 H 0.73671 0.71471 0.94643 0.0
H3473 H 0.80842 0.71615 0.95897 0.0
H3474 H 0.73726 0.75285 0.90618 0.0
H3475 H 0.73533 0.72656 0.88785 0.0
H3476 H 0.71985 0.72708 0.91298 0.0
H3477 H 0.8346 0.73386 0.93561 0.0
H3478 H 0.82325 0.73126 0.90498 0.0
H3479 H 0.82622 0.75771 0.92328 0.0
H3480 H 0.78807 0.73307 0.83354 0.0
H3481 H 0.7846 0.79806 0.86933 0.0
H3482 H 0.76478 0.70077 0.8763 0.0
H3483 H 0.79518 0.70398 0.88023 0.0
H3484 H 0.77986 0.69962 0.85095 0.0
H3485 H 0.76591 0.78709 0.91592 0.0
H3486 H 0.79268 0.80438 0.91166 0.0
H3487 H 0.79225 0.78106 0.92884 0.0
C3488 C 0.83173 0.10093 0.07326 0.0
C3489 C 0.82522 0.11314 0.05538 0.0
C3490 C 0.85001 0.09001 0.07147 0.0
C3491 C 0.86132 0.09147 0.05125 0.0
C3492 C 0.85609 0.10588 0.03448 0.0
C3493 C 0.83794 0.11659 0.03684 0.0
C3494 C 0.85589 0.07542 0.08995 0.0
C3495 C 0.86771 0.10784 0.01256 0.0
C3496 C 0.9115 0.07126 0.03257 0.0
C3497 C 0.9002 0.05314 0.0154 0.0
C3498 C 0.89915 0.08225 0.04748 0.0
C3499 C 0.87515 0.07501 0.04467 0.0
C3500 C 0.8641 0.05498 0.0294 0.0
C3501 C 0.87686 0.04433 0.01472 0.0
C3502 C 0.91139 0.10325 0.064 0.0
C3503 C 0.83844 0.04655 0.02623 0.0
H3504 H 0.82148 0.09848 0.08752 0.0
H3505 H 0.83245 0.12614 0.02316 0.0
H3506 H 0.85206 0.05725 0.08222 0.0
H3507 H 0.87446 0.08019 0.0964 0.0
H3508 H 0.8462 0.07713 0.10515 0.0
H3509 H 0.86277 0.12121 1.00247 0.0
H3510 H 0.88656 0.11192 0.01714 0.0
H3511 H 0.86292 0.09134 1.00088 0.0
H3512 H 0.92974 0.0778 0.03329 0.0
H3513 H 0.86844 0.02981 1.00193 0.0
H3514 H 0.90349 0.10457 0.08047 0.0
H3515 H 0.91007 0.11865 0.05545 0.0
H3516 H 0.92982 0.10327 0.06847 0.0
H3517 H 0.83178 0.0471 0.04342 0.0
H3518 H 0.8332 0.02884 0.01703 0.0
H3519 H 0.83026 0.05775 0.01557 0.0
C3520 C 0.38702 0.417 0.02979 0.0
C3521 C 0.37074 0.42144 0.04428 0.0
C3522 C 0.40762 0.43316 0.02974 0.0
C3523 C 0.41306 0.45357 0.04589 0.0
C3524 C 0.39681 0.45772 0.06106 0.0
C3525 C 0.37574 0.44198 0.0596 0.0
C3526 C 0.42305 0.42889 0.01156 0.0
C3527 C 0.40127 0.47913 0.07838 0.0
C3528 C 0.47692 0.48282 0.05702 0.0
C3529 C 0.47782 0.50146 0.04407 0.0
C3530 C 0.45605 0.4676 0.05829 0.0
C3531 C 0.43529 0.47081 0.04629 0.0
C3532 C 0.43613 0.49041 0.03448 0.0
C3533 C 0.45718 0.5051 0.03316 0.0
C3534 C 0.45617 0.44828 0.07287 0.0
C3535 C 0.41509 0.49654 0.02302 0.0
H3536 H 0.38315 0.40135 0.01766 0.0
H3537 H 0.36315 0.44567 0.07071 0.0
H3538 H 0.42607 0.44358 1.00136 0.0
H3539 H 0.43991 0.42734 0.02027 0.0
H3540 H 0.41565 0.41317 0.99911 0.0
H3541 H 0.3899 0.47743 0.09234 0.0
H3542 H 0.41934 0.48352 0.08681 0.0
H3543 H 0.39802 0.4935 0.06894 0.0
H3544 H 0.49265 0.47985 0.06594 0.0
H3545 H 0.45735 0.51928 0.02307 0.0
H3546 H 0.45122 0.43173 0.06133 0.0
H3547 H 0.44339 0.44842 0.08538 0.0
H3548 H 0.47323 0.44932 0.08297 0.0
H3549 H 0.41706 0.49858 1.00439 0.0
H3550 H 0.41331 0.51326 0.03179 0.0
H3551 H 0.39942 0.48378 0.02395 0.0
C3552 C 0.41694 0.59011 0.76788 0.0
C3553 C 0.40288 0.56996 0.77238 0.0
C3554 C 0.40869 0.61054 0.76817 0.0
C3555 C 0.38625 0.61075 0.77369 0.0
C3556 C 0.37166 0.59009 0.77656 0.0
C3557 C 0.37998 0.57014 0.77538 0.0
C3558 C 0.42433 0.63198 0.76365 0.0
C3559 C 0.34762 0.58913 0.78262 0.0
C3560 C 0.36717 0.65609 0.81128 0.0
C3561 C 0.34981 0.66092 0.79563 0.0
C3562 C 0.38153 0.64197 0.80359 0.0
C3563 C 0.37832 0.63228 0.77968 0.0
C3564 C 0.36253 0.63921 0.76336 0.0
C3565 C 0.34841 0.6535 0.77155 0.0
C3566 C 0.39827 0.63532 0.82162 0.0
C3567 C 0.35911 0.62985 0.73762 0.0
H3568 H 0.43448 0.59018 0.7651 0.0
H3569 H 0.36851 0.55469 0.77815 0.0
H3570 H 0.41456 0.64335 0.75504 0.0
H3571 H 0.43357 0.64138 0.78063 0.0
H3572 H 0.43726 0.62799 0.75241 0.0
H3573 H 0.33851 0.57155 0.78418 0.0
H3574 H 0.34823 0.59989 0.79962 0.0
H3575 H 0.33736 0.59587 0.76898 0.0
H3576 H 0.36867 0.66236 0.82984 0.0
H3577 H 0.33521 0.65752 0.75936 0.0
H3578 H 0.41507 0.63617 0.81515 0.0
H3579 H 0.39177 0.61746 0.82466 0.0
H3580 H 0.40082 0.64645 0.83872 0.0
H3581 H 0.3759 0.63152 0.73091 0.0
H3582 H 0.34805 0.63868 0.72685 0.0
H3583 H 0.35104 0.61143 0.73525 0.0
C3584 C 0.19248 0.62317 0.53305 0.0
C3585 C 0.20971 0.61428 0.54444 0.0
C3586 C 0.16981 0.61114 0.53012 0.0
C3587 C 0.1646 0.5902 0.53932 0.0
C3588 C 0.18212 0.58092 0.55037 0.0
C3589 C 0.20459 0.59331 0.55302 0.0
C3590 C 0.1513 0.62116 0.51808 0.0
C3591 C 0.17708 0.55849 0.5602 0.0
C3592 C 0.10733 0.57646 0.56045 0.0
C3593 C 0.09548 0.55946 0.54273 0.0
C3594 C 0.13004 0.58653 0.55957 0.0
C3595 C 0.14062 0.57966 0.54009 0.0
C3596 C 0.12831 0.56284 0.52179 0.0
C3597 C 0.10586 0.55243 0.52366 0.0
C3598 C 0.14294 0.60364 0.57999 0.0
C3599 C 0.13908 0.5546 0.50113 0.0
H3600 H 0.19674 0.63956 0.5267 0.0
H3601 H 0.21811 0.58696 0.56244 0.0
H3602 H 0.14066 0.60841 0.50387 0.0
H3603 H 0.13987 0.62553 0.53093 0.0
H3604 H 0.1584 0.63676 0.51043 0.0
H3605 H 0.19284 0.55383 0.5683 0.0
H3606 H 0.16533 0.55932 0.57369 0.0
H3607 H 0.16837 0.54473 0.54596 0.0
H3608 H 0.09917 0.5809 0.57567 0.0
H3609 H 0.09688 0.53812 0.51088 0.0
H3610 H 0.14966 0.6201 0.5737 0.0
H3611 H 0.15781 0.59748 0.588 0.0
H3612 H 0.13206 0.6067 0.5939 0.0
H3613 H 0.15159 0.5686 0.49583 0.0
H3614 H 0.12603 0.54702 0.48573 0.0
H3615 H 0.14797 0.54113 0.50629 0.0
C3616 C 0.73188 0.99985 0.78524 0.0
C3617 C 0.71785 1.00419 0.76601 0.0
C3618 C 0.73685 0.97851 0.78633 0.0
C3619 C 0.72776 0.96096 0.76747 0.0
C3620 C 0.71406 0.96524 0.7476 0.0
C3621 C 0.709 0.98693 0.7472 0.0
C3622 C 0.7514 0.97478 0.80814 0.0
C3623 C 0.7044 0.94692 0.72715 0.0
C3624 C 0.76327 0.91914 0.7791 0.0
C3625 C 0.75148 0.9088 0.79616 0.0
C3626 C 0.75378 0.93395 0.76587 0.0
C3627 C 0.73213 0.93813 0.76995 0.0
C3628 C 0.71873 0.92471 0.78414 0.0
C3629 C 0.72884 0.91055 0.79759 0.0
C3630 C 0.76849 0.94798 0.75079 0.0
C3631 C 0.69536 0.92831 0.78854 0.0
H3632 H 0.73856 0.01303 0.80001 0.0
H3633 H 0.69817 0.99034 0.73229 0.0
H3634 H 0.74152 0.96153 0.81717 0.0
H3635 H 0.76676 0.96883 0.80326 0.0
H3636 H 0.75724 0.99051 0.82094 0.0
H3637 H 0.69766 0.95404 0.7115 0.0
H3638 H 0.71761 0.93751 0.7222 0.0
H3639 H 0.69022 0.93444 0.73228 0.0
H3640 H 0.7808 0.91769 0.7779 0.0
H3641 H 0.71976 0.90252 0.81077 0.0
H3642 H 0.77723 0.96451 0.76126 0.0
H3643 H 0.75798 0.95171 0.73524 0.0
H3644 H 0.78182 0.93923 0.74476 0.0
H3645 H 0.69733 0.94286 0.80261 0.0
H3646 H 0.6851 0.913 0.79444 0.0
H3647 H 0.68584 0.93236 0.77254 0.0
C3648 C 0.75481 0.93786 0.55684 0.0
C3649 C 0.75323 0.9163 0.5442 0.0
C3650 C 0.73698 0.94964 0.55418 0.0
C3651 C 0.71666 0.93932 0.53899 0.0
C3652 C 0.71417 0.91669 0.52779 0.0
C3653 C 0.73262 0.90553 0.53029 0.0
C3654 C 0.74073 0.97387 0.56601 0.0
C3655 C 0.69266 0.90496 0.51169 0.0
C3656 C 0.66324 0.96444 0.5394 0.0
C3657 C 0.66332 0.97468 0.51871 0.0
C3658 C 0.68079 0.95334 0.54663 0.0
C3659 C 0.69899 0.95283 0.53301 0.0
C3660 C 0.69981 0.9645 0.51291 0.0
C3661 C 0.68181 0.97502 0.50584 0.0
C3662 C 0.67919 0.94113 0.5681 0.0
C3663 C 0.71934 0.96525 0.49839 0.0
H3664 H 0.77083 0.94632 0.56742 0.0
H3665 H 0.73154 0.88918 0.51997 0.0
H3666 H 0.74115 0.98566 0.55247 0.0
H3667 H 0.7264 0.97602 0.576 0.0
H3668 H 0.75702 0.97902 0.57819 0.0
H3669 H 0.69214 0.88656 0.50677 0.0
H3670 H 0.67731 0.90674 0.5202 0.0
H3671 H 0.6917 0.91314 0.49536 0.0
H3672 H 0.64881 0.96408 0.54922 0.0
H3673 H 0.68186 0.98304 0.48987 0.0
H3674 H 0.69544 0.94627 0.58027 0.0
H3675 H 0.67639 0.9225 0.56268 0.0
H3676 H 0.66498 0.94458 0.57776 0.0
H3677 H 0.73593 0.97175 0.5098 0.0
H3678 H 0.71815 0.97624 0.4842 0.0
H3679 H 0.71941 0.9478 0.49023 0.0
C3680 C 0.40686 0.43471 0.78146 0.0
C3681 C 0.39934 0.45276 0.7719 0.0
C3682 C 0.39158 0.41366 0.78182 0.0
C3683 C 0.36827 0.41034 0.77198 0.0
C3684 C 0.36079 0.4285 0.76194 0.0
C3685 C 0.37639 0.44929 0.76191 0.0
C3686 C 0.40036 0.39499 0.7929 0.0
C3687 C 0.33622 0.42608 0.75136 0.0
C3688 C 0.33252 0.3495 0.7545 0.0
C3689 C 0.31966 0.34657 0.77334 0.0
C3690 C 0.34822 0.37009 0.75369 0.0
C3691 C 0.35163 0.38809 0.77243 0.0
C3692 C 0.33876 0.38491 0.7915 0.0
C3693 C 0.32274 0.36449 0.7916 0.0
C3694 C 0.36119 0.37253 0.73281 0.0
C3695 C 0.34177 0.40331 0.81174 0.0
H3696 H 0.42459 0.43721 0.78907 0.0
H3697 H 0.37062 0.46287 0.75377 0.0
H3698 H 0.3905 0.39004 0.80742 0.0
H3699 H 0.39783 0.37965 0.77971 0.0
H3700 H 0.4188 0.40023 0.80001 0.0
H3701 H 0.33337 0.44134 0.74324 0.0
H3702 H 0.33104 0.41093 0.73777 0.0
H3703 H 0.32483 0.42342 0.76517 0.0
H3704 H 0.33028 0.33565 0.74031 0.0
H3705 H 0.31319 0.36226 0.80639 0.0
H3706 H 0.37986 0.37598 0.73875 0.0
H3707 H 0.35768 0.38728 0.72418 0.0
H3708 H 0.35654 0.35704 0.7196 0.0
H3709 H 0.35953 0.40672 0.82087 0.0
H3710 H 0.32961 0.39918 0.82463 0.0
H3711 H 0.33906 0.41879 0.80437 0.0
C3712 C 0.20117 0.63564 0.28385 0.0
C3713 C 0.21159 0.61942 0.27295 0.0
C3714 C 0.21185 0.6587 0.28683 0.0
C3715 C 0.23293 0.66524 0.27816 0.0
C3716 C 0.2438 0.64873 0.2678 0.0
C3717 C 0.23273 0.62592 0.26499 0.0
C3718 C 0.2004 0.67611 0.29856 0.0
C3719 C 0.26669 0.65517 0.25897 0.0
C3720 C 0.25004 0.7205 0.25435 0.0
C3721 C 0.26778 0.73166 0.27173 0.0
C3722 C 0.23725 0.69923 0.25704 0.0
C3723 C 0.24266 0.68936 0.27757 0.0
C3724 C 0.25979 0.70143 0.29567 0.0
C3725 C 0.27264 0.7223 0.29219 0.0
C3726 C 0.21932 0.68659 0.23716 0.0
C3727 C 0.26639 0.6916 0.31759 0.0
H3728 H 0.18472 0.63027 0.28987 0.0
H3729 H 0.24033 0.61319 0.25602 0.0
H3730 H 0.21256 0.68729 0.31293 0.0
H3731 H 0.19535 0.68715 0.28559 0.0
H3732 H 0.18494 0.66805 0.30596 0.0
H3733 H 0.27284 0.64003 0.25172 0.0
H3734 H 0.26546 0.66638 0.24502 0.0
H3735 H 0.27968 0.66484 0.27353 0.0
H3736 H 0.24689 0.72797 0.23832 0.0
H3737 H 0.28726 0.73065 0.30492 0.0
H3738 H 0.20325 0.67943 0.24401 0.0
H3739 H 0.22548 0.67212 0.2284 0.0
H3740 H 0.21549 0.69771 0.22374 0.0
H3741 H 0.25165 0.67994 0.32275 0.0
H3742 H 0.27374 0.70519 0.33248 0.0
H3743 H 0.27991 0.68222 0.31402 0.0
C3744 C 0.4952 0.68754 0.46253 0.0
C3745 C 0.51035 0.70856 0.47146 0.0
C3746 C 0.49789 0.66614 0.47023 0.0
C3747 C 0.51685 0.6646 0.48683 0.0
C3748 C 0.53252 0.68573 0.49542 0.0
C3749 C 0.52888 0.70701 0.48818 0.0
C3750 C 0.47997 0.64499 0.46076 0.0
C3751 C 0.55369 0.68586 0.51204 0.0
C3752 C 0.51496 0.61229 0.52341 0.0
C3753 C 0.52579 0.59718 0.51061 0.0
C3754 C 0.51197 0.63369 0.51603 0.0
C3755 C 0.52017 0.64126 0.49517 0.0
C3756 C 0.53148 0.62614 0.4824 0.0
C3757 C 0.53392 0.60468 0.49002 0.0
C3758 C 0.49966 0.64823 0.53066 0.0
C3759 C 0.54117 0.63263 0.46043 0.0
H3760 H 0.48067 0.68783 0.4498 0.0
H3761 H 0.5411 0.7226 0.49534 0.0
H3762 H 0.48785 0.63235 0.4511 0.0
H3763 H 0.47274 0.63702 0.47556 0.0
H3764 H 0.4658 0.64863 0.44876 0.0
H3765 H 0.5641 0.70334 0.51773 0.0
H3766 H 0.54897 0.67801 0.52785 0.0
H3767 H 0.5644 0.67543 0.50328 0.0
H3768 H 0.50855 0.60726 0.53935 0.0
H3769 H 0.5424 0.59367 0.4797 0.0
H3770 H 0.4845 0.65126 0.51969 0.0
H3771 H 0.51103 0.66511 0.537 0.0
H3772 H 0.49395 0.64026 0.54611 0.0
H3773 H 0.52699 0.6324 0.44636 0.0
H3774 H 0.55179 0.62081 0.45393 0.0
H3775 H 0.55177 0.65021 0.46377 0.0
C3776 C 0.63615 0.30182 0.68189 0.0
C3777 C 0.6367 0.30539 0.65813 0.0
C3778 C 0.6557 0.29904 0.69652 0.0
C3779 C 0.67711 0.3006 0.68783 0.0
C3780 C 0.67791 0.30454 0.66394 0.0
C3781 C 0.65779 0.30643 0.64937 0.0
C3782 C 0.65329 0.29406 0.72135 0.0
C3783 C 0.70015 0.30674 0.65369 0.0
C3784 C 0.73205 0.31411 0.73361 0.0
C3785 C 0.73771 0.2927 0.73459 0.0
C3786 C 0.71273 0.31693 0.71853 0.0
C3787 C 0.69839 0.29795 0.70368 0.0
C3788 C 0.70417 0.27629 0.70464 0.0
C3789 C 0.72351 0.27397 0.71996 0.0
C3790 C 0.70758 0.34037 0.71858 0.0
C3791 C 0.68964 0.25531 0.68974 0.0
H3792 H 0.62006 0.30051 0.68901 0.0
H3793 H 0.65867 0.30899 0.63114 0.0
H3794 H 0.65939 0.27831 0.72441 0.0
H3795 H 0.66409 0.30816 0.73406 0.0
H3796 H 0.63532 0.2919 0.72513 0.0
H3797 H 0.69852 0.31119 0.63546 0.0
H3798 H 0.71356 0.32005 0.66484 0.0
H3799 H 0.70604 0.29046 0.65352 0.0
H3800 H 0.74269 0.32872 0.74488 0.0
H3801 H 0.72757 0.25736 0.72033 0.0
H3802 H 0.69063 0.34038 0.72447 0.0
H3803 H 0.70669 0.34508 0.70046 0.0
H3804 H 0.72065 0.35356 0.73032 0.0
H3805 H 0.67233 0.25183 0.69531 0.0
H3806 H 0.69711 0.24002 0.69118 0.0
H3807 H 0.68751 0.25811 0.671 0.0
C3808 C 1.00272 0.35489 0.99046 0.0
C3809 C 0.01924 0.34815 0.97721 0.0
C3810 C 1.00376 0.37833 0.99912 0.0
C3811 C 0.02189 0.39612 0.99492 0.0
C3812 C 0.03909 0.38919 0.98251 0.0
C3813 C 0.03741 0.36583 0.97372 0.0
C3814 C 0.98473 0.38419 0.01191 0.0
C3815 C 0.0592 0.40669 0.97782 0.0
C3816 C 0.01517 0.45939 0.9937 0.0
C3817 C 0.02659 0.47075 0.01567 0.0
C3818 C 0.01301 0.43543 0.98713 0.0
C3819 C 0.02264 0.4218 1.0026 0.0
C3820 C 0.03402 0.43327 0.02493 0.0
C3821 C 0.03579 0.45722 0.03109 0.0
C3822 C 1.00071 0.42473 0.96319 0.0
C3823 C 0.04476 0.42028 0.04237 0.0
H3824 H 0.98813 0.34199 0.99286 0.0
H3825 H 0.05023 0.36141 0.96331 0.0
H3826 H 0.99188 0.39501 0.02887 0.0
H3827 H 0.97498 0.3942 1.00121 0.0
H3828 H 0.97274 0.36877 0.01543 0.0
H3829 H 0.07181 0.3988 0.96906 0.0
H3830 H 0.05312 0.41859 0.96646 0.0
H3831 H 0.068 0.41696 0.99458 0.0
H3832 H 1.00819 0.46939 0.98134 0.0
H3833 H 0.04494 0.46553 0.04798 0.0
H3834 H 0.98695 0.40999 0.96495 0.0
H3835 H 0.01284 0.41815 0.9525 0.0
H3836 H 0.99307 0.43699 0.95356 0.0
H3837 H 0.03129 0.40721 0.0478 0.0
H3838 H 0.05416 0.43156 0.05833 0.0
H3839 H 0.0568 0.41119 0.03409 0.0
C3840 C 0.98504 0.78366 0.13751 0.0
C3841 C 1.00808 0.79313 0.14635 0.0
C3842 C 0.96779 0.78135 0.15226 0.0
C3843 C 0.97338 0.78889 0.1767 0.0
C3844 C 0.99646 0.79911 0.18576 0.0
C3845 C 0.01354 0.80094 0.17056 0.0
C3846 C 0.94353 0.77027 0.14167 0.0
C3847 C 1.0032 0.80768 0.21159 0.0
C3848 C 0.92066 0.79375 0.20705 0.0
C3849 C 0.9149 0.77207 0.21418 0.0
C3850 C 0.94055 0.80018 0.19623 0.0
C3851 C 0.95508 0.7846 0.19256 0.0
C3852 C 0.95012 0.76338 0.20141 0.0
C3853 C 0.93006 0.75733 0.21189 0.0
C3854 C 0.9451 0.82302 0.18726 0.0
C3855 C 0.9651 0.74628 0.19828 0.0
H3856 H 0.9804 0.77749 0.11893 0.0
H3857 H 0.03118 0.80837 0.1777 0.0
H3858 H 0.93756 0.75466 0.14979 0.0
H3859 H 0.93196 0.78201 0.14539 0.0
H3860 H 0.9419 0.76552 0.12232 0.0
H3861 H 0.02109 0.81767 0.21544 0.0
H3862 H 0.99158 0.8185 0.21783 0.0
H3863 H 1.00155 0.79301 0.22183 0.0
H3864 H 0.9089 0.80513 0.20859 0.0
H3865 H 0.92565 0.74054 0.21737 0.0
H3866 H 0.94074 0.82054 0.16784 0.0
H3867 H 0.96349 0.83138 0.1914 0.0
H3868 H 0.93476 0.83458 0.19487 0.0
H3869 H 0.96297 0.73912 0.17944 0.0
H3870 H 0.96074 0.73201 0.2088 0.0
H3871 H 0.98339 0.75461 0.20344 0.0
C3872 C 0.50576 0.32475 0.16242 0.0
C3873 C 0.52316 0.31282 0.16723 0.0
C3874 C 0.50962 0.34463 0.15128 0.0
C3875 C 0.53119 0.35238 0.1438 0.0
C3876 C 0.549 0.34066 0.14913 0.0
C3877 C 0.54487 0.32125 0.16105 0.0
C3878 C 0.49026 0.35673 0.1466 0.0
C3879 C 0.57211 0.34786 0.14108 0.0
C3880 C 0.53566 0.38489 0.09036 0.0
C3881 C 0.54635 0.40705 0.10068 0.0
C3882 C 0.52977 0.36721 0.10419 0.0
C3883 C 0.53473 0.3717 0.12908 0.0
C3884 C 0.54432 0.3944 0.13962 0.0
C3885 C 0.55015 0.41173 0.12531 0.0
C3886 C 0.51968 0.34339 0.09203 0.0
C3887 C 0.54956 0.40013 0.166 0.0
H3888 H 0.48885 0.31816 0.16687 0.0
H3889 H 0.55822 0.3118 0.16415 0.0
H3890 H 0.49634 0.3754 0.15148 0.0
H3891 H 0.48376 0.35366 0.12754 0.0
H3892 H 0.47583 0.35073 0.15648 0.0
H3893 H 0.58433 0.33741 0.14707 0.0
H3894 H 0.57015 0.34627 0.12157 0.0
H3895 H 0.57954 0.36602 0.14778 0.0
H3896 H 0.5333 0.38104 0.07134 0.0
H3897 H 0.559 0.42867 0.13337 0.0
H3898 H 0.50389 0.33604 0.09926 0.0
H3899 H 0.53203 0.33229 0.09531 0.0
H3900 H 0.51549 0.34294 0.07272 0.0
H3901 H 0.53417 0.39376 0.17437 0.0
H3902 H 0.55537 0.41876 0.17155 0.0
H3903 H 0.56315 0.39154 0.17271 0.0
C3904 C 0.96832 0.30563 0.35794 0.0
C3905 C 0.98606 0.31603 0.34571 0.0
C3906 C 0.94459 0.30144 0.34896 0.0
C3907 C 0.93715 0.30936 0.3277 0.0
C3908 C 0.95475 0.31952 0.31496 0.0
C3909 C 0.9785 0.32143 0.32341 0.0
C3910 C 0.92743 0.28772 0.36201 0.0
C3911 C 0.94884 0.32906 0.29252 0.0
C3912 C 0.87512 0.28416 0.2953 0.0
C3913 C 0.86208 0.29954 0.30377 0.0
C3914 C 0.8992 0.28742 0.3023 0.0
C3915 C 0.91126 0.30634 0.31886 0.0
C3916 C 0.89813 0.32196 0.32744 0.0
C3917 C 0.87413 0.31853 0.31975 0.0
C3918 C 0.91179 0.27037 0.29187 0.0
C3919 C 0.90949 0.34241 0.34502 0.0
H3920 H 0.97294 0.29988 0.37462 0.0
H3921 H 0.99094 0.32657 0.31213 0.0
H3922 H 0.91588 0.29838 0.36868 0.0
H3923 H 0.91663 0.27314 0.34984 0.0
H3924 H 0.93575 0.28095 0.37707 0.0
H3925 H 0.96163 0.32747 0.28029 0.0
H3926 H 0.93161 0.32075 0.28329 0.0
H3927 H 0.94906 0.34745 0.29692 0.0
H3928 H 0.86646 0.26949 0.28285 0.0
H3929 H 0.86465 0.33056 0.3268 0.0
H3930 H 0.9204 0.26283 0.30611 0.0
H3931 H 0.92529 0.27907 0.28226 0.0
H3932 H 0.90024 0.25645 0.27948 0.0
H3933 H 0.9159 0.33673 0.36168 0.0
H3934 H 0.89763 0.35381 0.34899 0.0
H3935 H 0.9245 0.35225 0.33824 0.0
C3936 C 0.03941 0.67996 0.66785 0.0
C3937 C 0.01997 0.68965 0.66544 0.0
C3938 C 0.04179 0.66105 0.652 0.0
C3939 C 0.02405 0.65072 0.63335 0.0
C3940 C 1.00403 0.65999 0.6314 0.0
C3941 C 1.00248 0.67942 0.64695 0.0
C3942 C 0.06375 0.65258 0.65479 0.0
C3943 C 0.98425 0.64955 0.61254 0.0
C3944 C 0.03971 0.61586 0.57899 0.0
C3945 C 0.03238 0.59296 0.5827 0.0
C3946 C 0.03651 0.63448 0.59471 0.0
C3947 C 0.02664 0.63071 0.6157 0.0
C3948 C 0.0195 0.6077 0.61978 0.0
C3949 C 0.02203 0.58938 0.60327 0.0
C3950 C 0.04393 0.65837 0.58884 0.0
C3951 C 1.00943 0.60234 0.6419 0.0
H3952 H 0.05339 0.68791 0.68152 0.0
H3953 H 0.98746 0.68673 0.64456 0.0
H3954 H 0.06004 0.63404 0.65606 0.0
H3955 H 0.07257 0.65511 0.63903 0.0
H3956 H 0.07557 0.66158 0.6706 0.0
H3957 H 0.96961 0.65813 0.6136 0.0
H3958 H 0.98989 0.65058 0.59492 0.0
H3959 H 0.97827 0.63124 0.61411 0.0
H3960 H 0.04833 0.61944 0.5639 0.0
H3961 H 0.01617 0.57207 0.60683 0.0
H3962 H 0.05816 0.66802 0.6022 0.0
H3963 H 0.02961 0.66743 0.58935 0.0
H3964 H 0.04967 0.6586 0.57118 0.0
H3965 H 0.02228 0.60966 0.65749 0.0
H3966 H 1.00397 0.58371 0.64234 0.0
H3967 H 0.99447 0.6103 0.64351 0.0
C3968 C 0.61552 0.81727 0.81657 0.0
C3969 C 0.6127 0.82328 0.84038 0.0
C3970 C 0.63665 0.81304 0.80933 0.0
C3971 C 0.65683 0.81561 0.82582 0.0
C3972 C 0.65422 0.82205 0.84986 0.0
C3973 C 0.63257 0.82525 0.85676 0.0
C3974 C 0.6372 0.80538 0.7837 0.0
C3975 C 0.67461 0.82587 0.86853 0.0
C3976 C 0.70803 0.78684 0.80964 0.0
C3977 C 0.72454 0.8046 0.80321 0.0
C3978 C 0.68664 0.79009 0.81707 0.0
C3979 C 0.6803 0.81175 0.81797 0.0
C3980 C 0.6967 0.82965 0.81106 0.0
C3981 C 0.71828 0.82607 0.80438 0.0
C3982 C 0.6707 0.77003 0.82402 0.0
C3983 C 0.69142 0.85293 0.81058 0.0
H3984 H 0.60086 0.81531 0.80333 0.0
H3985 H 0.6314 0.82992 0.87518 0.0
H3986 H 0.65113 0.81688 0.77695 0.0
H3987 H 0.64093 0.78806 0.78169 0.0
H3988 H 0.62075 0.80494 0.77268 0.0
H3989 H 0.6704 0.83098 0.88633 0.0
H3990 H 0.6814 0.81009 0.86878 0.0
H3991 H 0.68846 0.83938 0.86434 0.0
H3992 H 0.71201 0.77019 0.80941 0.0
H3993 H 0.73023 0.84028 0.79964 0.0
H3994 H 0.65427 0.76621 0.81211 0.0
H3995 H 0.66677 0.77422 0.84213 0.0
H3996 H 0.678 0.7545 0.82333 0.0
H3997 H 0.67416 0.85167 0.80089 0.0
H3998 H 0.70407 0.86411 0.802 0.0
H3999 H 0.69144 0.86089 0.82883 0.0
C4000 C 0.4675 0.50279 0.69225 0.0
C4001 C 0.45715 0.519 0.70372 0.0
C4002 C 0.47551 0.50549 0.67016 0.0
C4003 C 0.47369 0.52516 0.65906 0.0
C4004 C 0.46329 0.54162 0.67072 0.0
C4005 C 0.45503 0.53827 0.69259 0.0
C4006 C 0.48632 0.48733 0.65887 0.0
C4007 C 0.46137 0.56316 0.6603 0.0
C4008 C 0.51706 0.54215 0.61584 0.0
C4009 C 0.50444 0.53537 0.59328 0.0
C4010 C 0.50729 0.5396 0.63694 0.0
C4011 C 0.48391 0.52914 0.63621 0.0
C4012 C 0.47073 0.5223 0.6136 0.0
C4013 C 0.48092 0.5258 0.59266 0.0
C4014 C 0.52232 0.54799 0.66018 0.0
C4015 C 0.44592 0.51051 0.61146 0.0
H4016 H 0.46936 0.48789 0.70061 0.0
H4017 H 0.44725 0.55102 0.70126 0.0
H4018 H 0.47906 0.4825 0.64007 0.0
H4019 H 0.50496 0.49405 0.65953 0.0
H4020 H 0.48383 0.4718 0.66787 0.0
H4021 H 0.45311 0.57446 0.67141 0.0
H4022 H 0.47865 0.57271 0.65816 0.0
H4023 H 0.4513 0.55888 0.64255 0.0
H4024 H 0.53483 0.54952 0.6174 0.0
H4025 H 0.47053 0.52023 0.57572 0.0
H4026 H 0.52452 0.53329 0.66956 0.0
H4027 H 0.51414 0.5591 0.67156 0.0
H4028 H 0.53953 0.55769 0.65796 0.0
H4029 H 0.44463 0.49386 0.61831 0.0
H4030 H 0.43747 0.50748 0.59296 0.0
H4031 H 0.43648 0.52075 0.62229 0.0
C4032 C 0.78832 0.16291 0.97793 0.0
C4033 C 0.77721 0.16797 0.99728 0.0
C4034 C 0.7876 0.17545 0.9589 0.0
C4035 C 0.77483 0.19273 0.95921 0.0
C4036 C 0.76457 0.19858 0.97931 0.0
C4037 C 0.76622 0.18629 0.99834 0.0
C4038 C 0.7996 0.16959 0.93813 0.0
C4039 C 0.75027 0.21652 0.97999 0.0
C4040 C 0.7733 0.23626 0.91741 0.0
C4041 C 0.75253 0.22658 0.9033 0.0
C4042 C 0.78203 0.22451 0.93471 0.0
C4043 C 0.76946 0.20283 0.93771 0.0
C4044 C 0.74935 0.19236 0.92219 0.0
C4045 C 0.74107 0.2045 0.90509 0.0
C4046 C 0.80381 0.23581 0.95065 0.0
C4047 C 0.73573 0.16903 0.92465 0.0
H4048 H 0.79697 0.14877 0.97746 0.0
H4049 H 0.75744 0.18989 0.01332 0.0
H4050 H 0.78716 0.16468 0.92185 0.0
H4051 H 0.81232 0.18479 0.93537 0.0
H4052 H 0.80856 0.15544 0.94064 0.0
H4053 H 0.7444 0.21969 0.99742 0.0
H4054 H 0.76014 0.23282 0.97578 0.0
H4055 H 0.73497 0.21098 0.9665 0.0
H4056 H 0.78229 0.25324 0.91536 0.0
H4057 H 0.72532 0.19703 0.89352 0.0
H4058 H 0.81494 0.22347 0.95346 0.0
H4059 H 0.79959 0.24199 0.96811 0.0
H4060 H 0.81355 0.25057 0.94341 0.0
H4061 H 0.74702 0.15662 0.92555 0.0
H4062 H 0.72179 0.16255 0.90978 0.0
H4063 H 0.72802 0.16982 0.94128 0.0
C4064 C 0.16157 0.54903 0.17264 0.0
C4065 C 0.15173 0.54717 0.19346 0.0
C4066 C 0.14774 0.54813 0.15117 0.0
C4067 C 0.12383 0.54588 0.15093 0.0
C4068 C 0.11391 0.5439 0.17191 0.0
C4069 C 0.12796 0.54436 0.19285 0.0
C4070 C 0.15863 0.54991 0.12885 0.0
C4071 C 0.08846 0.54169 0.17234 0.0
C4072 C 0.08588 0.56556 0.1046 0.0
C4073 C 0.07581 0.54491 0.09075 0.0
C4074 C 0.10299 0.56637 0.12332 0.0
C4075 C 0.10886 0.5458 0.12894 0.0
C4076 C 0.09829 0.52483 0.11514 0.0
C4077 C 0.08216 0.52472 0.0958 0.0
C4078 C 0.11444 0.58908 0.13732 0.0
C4079 C 0.10336 0.50249 0.1213 0.0
H4080 H 0.17995 0.5512 0.17316 0.0
H4081 H 0.12029 0.5432 0.20897 0.0
H4082 H 0.15047 0.53514 0.11547 0.0
H4083 H 0.15581 0.56548 0.12138 0.0
H4084 H 0.17731 0.55056 0.13187 0.0
H4085 H 0.08349 0.5399 0.19017 0.0
H4086 H 0.08309 0.55693 0.16637 0.0
H4087 H 0.0788 0.52665 0.16004 0.0
H4088 H 0.08092 0.5811 0.10027 0.0
H4089 H 0.07397 0.50876 0.08501 0.0
H4090 H 0.13331 0.59118 0.13905 0.0
H4091 H 0.10952 0.5898 0.15534 0.0
H4092 H 0.10966 0.60358 0.12908 0.0
H4093 H 0.12194 0.50296 0.12199 0.0
H4094 H 0.09384 0.48776 0.10846 0.0
H4095 H 0.09866 0.49968 0.13901 0.0
C4096 C 0.8103 0.84242 0.46814 0.0
C4097 C 0.79878 0.86022 0.47255 0.0
C4098 C 0.8093 0.83111 0.44501 0.0
C4099 C 0.79625 0.83741 0.42564 0.0
C4100 C 0.78372 0.85459 0.43027 0.0
C4101 C 0.78527 0.86577 0.45338 0.0
C4102 C 0.82313 0.81311 0.44112 0.0
C4103 C 0.7691 0.86172 0.41063 0.0
C4104 C 0.81115 0.82972 0.36231 0.0
C4105 C 0.79565 0.80969 0.352 0.0
C4106 C 0.81222 0.83821 0.38634 0.0
C4107 C 0.79658 0.82714 0.40044 0.0
C4108 C 0.7805 0.80709 0.38987 0.0
C4109 C 0.78051 0.79843 0.36601 0.0
C4110 C 0.82996 0.85933 0.39655 0.0
C4111 C 0.76289 0.79504 0.4036 0.0
H4112 H 0.82106 0.8381 0.48255 0.0
H4113 H 0.77621 0.87942 0.45637 0.0
H4114 H 0.81214 0.79729 0.43118 0.0
H4115 H 0.83679 0.81914 0.43035 0.0
H4116 H 0.83119 0.80899 0.45793 0.0
H4117 H 0.75934 0.87434 0.4172 0.0
H4118 H 0.78004 0.86935 0.39799 0.0
H4119 H 0.75682 0.84661 0.4008 0.0
H4120 H 0.82243 0.83891 0.35151 0.0
H4121 H 0.76815 0.78319 0.35807 0.0
H4122 H 0.83982 0.85621 0.41285 0.0
H4123 H 0.82142 0.87349 0.40141 0.0
H4124 H 0.8421 0.8648 0.384 0.0
H4125 H 0.77154 0.78827 0.41841 0.0
H4126 H 0.75055 0.7807 0.39251 0.0
H4127 H 0.75323 0.8072 0.41128 0.0
C4128 C 0.48476 0.52795 0.84786 0.0
C4129 C 0.46069 0.52353 0.84437 0.0
C4130 C 0.49717 0.53027 0.87084 0.0
C4131 C 0.48538 0.52749 0.89088 0.0
C4132 C 0.4612 0.52296 0.88733 0.0
C4133 C 0.4494 0.52137 0.86457 0.0
C4134 C 0.52294 0.53565 0.87369 0.0
C4135 C 0.44753 0.51951 0.90767 0.0
C4136 C 0.51076 0.51032 0.94892 0.0
C4137 C 0.51412 0.53041 0.96468 0.0
C4138 C 0.50253 0.50934 0.92477 0.0
C4139 C 0.49775 0.52911 0.91566 0.0
C4140 C 0.5021 0.54975 0.93132 0.0
C4141 C 0.50991 0.55006 0.95547 0.0
C4142 C 0.49795 0.48679 0.90921 0.0
C4143 C 0.49786 0.57151 0.92279 0.0
H4144 H 0.4939 0.52973 0.83274 0.0
H4145 H 0.43088 0.51792 0.86271 0.0
H4146 H 0.52987 0.54993 0.88802 0.0
H4147 H 0.52937 0.52061 0.87874 0.0
H4148 H 0.52966 0.54025 0.85724 0.0
H4149 H 0.42878 0.51508 0.90192 0.0
H4150 H 0.4523 0.50567 0.91707 0.0
H4151 H 0.45149 0.53527 0.92045 0.0
H4152 H 0.51361 0.49505 0.95562 0.0
H4153 H 0.51288 0.56586 0.96721 0.0
H4154 H 0.50661 0.48866 0.89328 0.0
H4155 H 0.47931 0.48112 0.90324 0.0
H4156 H 0.50386 0.47332 0.9184 0.0
H4157 H 0.50338 0.57318 0.90519 0.0
H4158 H 0.50704 0.58674 0.93514 0.0
H4159 H 0.47927 0.57128 0.9212 0.0
C4160 C 0.76766 0.16836 0.14347 0.0
C4161 C 0.78465 0.17232 0.12875 0.0
C4162 C 0.76886 0.18324 0.16408 0.0
C4163 C 0.78752 0.20212 0.16975 0.0
C4164 C 0.80557 0.20504 0.15583 0.0
C4165 C 0.80387 0.19001 0.13538 0.0
C4166 C 0.74955 0.17964 0.17892 0.0
C4167 C 0.82588 0.22489 0.16165 0.0
C4168 C 0.77808 0.25495 0.20488 0.0
C4169 C 0.79049 0.25412 0.22658 0.0
C4170 C 0.77716 0.23813 0.18597 0.0
C4171 C 0.7878 0.21961 0.1895 0.0
C4172 C 0.80006 0.21858 0.21145 0.0
C4173 C 0.80221 0.23647 0.22936 0.0
C4174 C 0.76511 0.24031 0.16221 0.0
C4175 C 0.81054 0.19844 0.21614 0.0
H4176 H 0.75271 0.15472 0.13804 0.0
H4177 H 0.817 0.19281 0.12386 0.0
H4178 H 0.75638 0.18139 0.19784 0.0
H4179 H 0.73934 0.19287 0.1768 0.0
H4180 H 0.73796 0.16264 0.17384 0.0
H4181 H 0.83864 0.22431 0.14917 0.0
H4182 H 0.81998 0.24115 0.16123 0.0
H4183 H 0.83451 0.22507 0.17968 0.0
H4184 H 0.76929 0.26875 0.20264 0.0
H4185 H 0.81248 0.23613 0.24587 0.0
H4186 H 0.75037 0.22574 0.15683 0.0
H4187 H 0.77693 0.23981 0.14875 0.0
H4188 H 0.75879 0.25639 0.16223 0.0
H4189 H 0.79696 0.18265 0.21318 0.0
H4190 H 0.81933 0.2003 0.23442 0.0
H4191 H 0.82302 0.19617 0.20376 0.0
C4192 C 0.17095 0.54269 0.34408 0.0
C4193 C 0.16642 0.55341 0.32429 0.0
C4194 C 0.15776 0.54378 0.36261 0.0
C4195 C 0.14049 0.55662 0.3614 0.0
C4196 C 0.13574 0.56718 0.34121 0.0
C4197 C 0.14856 0.5651 0.3227 0.0
C4198 C 0.16248 0.53156 0.38353 0.0
C4199 C 0.11797 0.58169 0.33962 0.0
C4200 C 0.09254 0.55568 0.39814 0.0
C4201 C 0.10115 0.57566 0.4137 0.0
C4202 C 0.1061 0.5479 0.38217 0.0
C4203 C 0.12839 0.5608 0.38174 0.0
C4204 C 0.13754 0.58023 0.39853 0.0
C4205 C 0.12373 0.58734 0.41452 0.0
C4206 C 0.09613 0.52679 0.36486 0.0
C4207 C 0.16119 0.59452 0.39844 0.0
H4208 H 0.18482 0.53365 0.34506 0.0
H4209 H 0.14544 0.57373 0.30747 0.0
H4210 H 0.16681 0.54379 0.39992 0.0
H4211 H 0.14686 0.51897 0.38549 0.0
H4212 H 0.17671 0.52252 0.38179 0.0
H4213 H 0.11646 0.58867 0.32257 0.0
H4214 H 0.10098 0.57157 0.34178 0.0
H4215 H 0.12249 0.59617 0.35402 0.0
H4216 H 0.07511 0.54649 0.39815 0.0
H4217 H 0.13025 0.60255 0.42708 0.0
H4218 H 0.10897 0.5161 0.36268 0.0
H4219 H 0.09115 0.5318 0.34739 0.0
H4220 H 0.08071 0.51638 0.37045 0.0
H4221 H 0.174 0.58365 0.39784 0.0
H4222 H 0.1665 0.60761 0.41417 0.0
H4223 H 0.16144 0.6033 0.38247 0.0
C4224 C 0.79879 0.83824 0.61196 0.0
C4225 C 0.80473 0.8619 0.61099 0.0
C4226 C 0.79559 0.82912 0.6334 0.0
C4227 C 0.79819 0.8438 0.65494 0.0
C4228 C 0.80409 0.86771 0.65408 0.0
C4229 C 0.80731 0.87639 0.63236 0.0
C4230 C 0.78926 0.8036 0.63293 0.0
C4231 C 0.80729 0.88423 0.6763 0.0
C4232 C 0.7714 0.82309 0.70939 0.0
C4233 C 0.78964 0.81672 0.72252 0.0
C4234 C 0.77368 0.83113 0.68723 0.0
C4235 C 0.7951 0.83418 0.67824 0.0
C4236 C 0.81357 0.82783 0.69164 0.0
C4237 C 0.81033 0.81838 0.71286 0.0
C4238 C 0.75299 0.83606 0.67324 0.0
C4239 C 0.83698 0.83129 0.68376 0.0
H4240 H 0.79671 0.82667 0.59581 0.0
H4241 H 0.81182 0.89465 0.63215 0.0
H4242 H 0.80236 0.79779 0.64443 0.0
H4243 H 0.77276 0.79877 0.63994 0.0
H4244 H 0.78772 0.79439 0.61491 0.0
H4245 H 0.81141 0.90226 0.67291 0.0
H4246 H 0.79153 0.88147 0.68492 0.0
H4247 H 0.82132 0.88114 0.68888 0.0
H4248 H 0.75511 0.8212 0.71617 0.0
H4249 H 0.82441 0.81299 0.72243 0.0
H4250 H 0.75014 0.82644 0.65531 0.0
H4251 H 0.75591 0.85444 0.67123 0.0
H4252 H 0.73725 0.83142 0.68169 0.0
H4253 H 0.8364 0.82004 0.66712 0.0
H4254 H 0.85004 0.82757 0.6971 0.0
H4255 H 0.84251 0.84914 0.68022 0.0
C4256 C 0.7497 0.48706 0.49885 0.0
C4257 C 0.74941 0.4645 0.49042 0.0
C4258 C 0.7304 0.49286 0.50685 0.0
C4259 C 0.71023 0.47575 0.50506 0.0
C4260 C 0.70914 0.45353 0.49389 0.0
C4261 C 0.72912 0.44794 0.48715 0.0
C4262 C 0.73246 0.51659 0.51948 0.0
C4263 C 0.68734 0.43548 0.49047 0.0
C4264 C 0.6794 0.48586 0.5566 0.0
C4265 C 0.66563 0.50009 0.54803 0.0
C4266 C 0.69302 0.47628 0.54211 0.0
C4267 C 0.69196 0.48039 0.51833 0.0
C4268 C 0.67629 0.49264 0.5089 0.0
C4269 C 0.66362 0.50286 0.52404 0.0
C4270 C 0.71004 0.46364 0.55283 0.0
C4271 C 0.67436 0.49661 0.48338 0.0
H4272 H 0.76553 0.49972 0.5012 0.0
H4273 H 0.72915 0.43055 0.4802 0.0
H4274 H 0.71856 0.52443 0.51212 0.0
H4275 H 0.73081 0.51563 0.53837 0.0
H4276 H 0.74912 0.52802 0.5183 0.0
H4277 H 0.68915 0.41943 0.48026 0.0
H4278 H 0.68224 0.43163 0.50778 0.0
H4279 H 0.67326 0.44186 0.48113 0.0
H4280 H 0.68038 0.48312 0.57493 0.0
H4281 H 0.65313 0.51398 0.51723 0.0
H4282 H 0.72769 0.47352 0.55282 0.0
H4283 H 0.70853 0.44684 0.5423 0.0
H4284 H 0.70767 0.46088 0.57124 0.0
H4285 H 0.68865 0.5105 0.48084 0.0
H4286 H 0.65804 0.50162 0.47767 0.0
H4287 H 0.67553 0.48111 0.4718 0.0
C4288 C 0.20477 0.12895 0.51792 0.0
C4289 C 0.20457 0.15127 0.51321 0.0
C4290 C 0.18455 0.11343 0.52032 0.0
C4291 C 0.16354 0.1207 0.51965 0.0
C4292 C 0.16342 0.14368 0.51642 0.0
C4293 C 0.18378 0.15852 0.51284 0.0
C4294 C 0.18571 0.0892 0.52364 0.0
C4295 C 0.14201 0.1529 0.51789 0.0
C4296 C 0.10578 0.07826 0.50588 0.0
C4297 C 0.10115 0.07319 0.52825 0.0
C4298 C 0.1262 0.09313 0.50283 0.0
C4299 C 0.14189 0.10436 0.52275 0.0
C4300 C 0.13696 0.09952 0.5455 0.0
C4301 C 0.11714 0.08335 0.54785 0.0
C4302 C 0.13108 0.09662 0.47822 0.0
C4303 C 0.1522 0.11154 0.5676 0.0
H4304 H 0.22091 0.12367 0.52032 0.0
H4305 H 0.18355 0.17601 0.51033 0.0
H4306 H 0.17928 0.08484 0.54022 0.0
H4307 H 0.17453 0.07734 0.50905 0.0
H4308 H 0.20338 0.08628 0.52422 0.0
H4309 H 0.14486 0.17132 0.51596 0.0
H4310 H 0.12818 0.14346 0.50403 0.0
H4311 H 0.1359 0.15038 0.53512 0.0
H4312 H 0.09345 0.07036 0.49068 0.0
H4313 H 0.11347 0.07967 0.56523 0.0
H4314 H 0.14845 0.09399 0.47612 0.0
H4315 H 0.13071 0.11436 0.47514 0.0
H4316 H 0.11856 0.08481 0.4646 0.0
H4317 H 0.16508 0.10145 0.57253 0.0
H4318 H 0.14215 0.11305 0.58254 0.0
H4319 H 0.16136 0.12885 0.56526 0.0
C4320 C 0.18785 1.00306 0.78563 0.0
C4321 C 0.16979 1.00235 0.79913 0.0
C4322 C 0.19821 0.98436 0.78191 0.0
C4323 C 0.18986 0.96403 0.79132 0.0
C4324 C 0.17117 0.963 0.80453 0.0
C4325 C 0.16151 0.98233 0.80855 0.0
C4326 C 0.21833 0.98651 0.76809 0.0
C4327 C 0.16172 0.94165 0.81477 0.0
C4328 C 0.20505 0.91352 0.75675 0.0
C4329 C 0.22568 0.91204 0.76973 0.0
C4330 C 0.19221 0.92916 0.76457 0.0
C4331 C 0.20012 0.94372 0.786 0.0
C4332 C 0.21985 0.94082 0.80025 0.0
C4333 C 0.23246 0.92499 0.79191 0.0
C4334 C 0.17131 0.9315 0.7488 0.0
C4335 C 0.22887 0.95579 0.82331 0.0
H4336 H 0.19423 0.01853 0.77832 0.0
H4337 H 0.14784 0.98196 0.81941 0.0
H4338 H 0.23331 0.98278 0.77874 0.0
H4339 H 0.2141 0.97388 0.75199 0.0
H4340 H 0.22332 1.0038 0.76281 0.0
H4341 H 0.14633 0.94308 0.82338 0.0
H4342 H 0.15719 0.92681 0.80079 0.0
H4343 H 0.17499 0.93815 0.82797 0.0
H4344 H 0.19977 0.90345 0.7396 0.0
H4345 H 0.24848 0.924 0.80192 0.0
H4346 H 0.17517 0.94759 0.7409 0.0
H4347 H 0.1569 0.93239 0.7591 0.0
H4348 H 0.16576 0.91712 0.73433 0.0
H4349 H 0.23833 0.97257 0.81976 0.0
H4350 H 0.24075 0.9482 0.83455 0.0
H4351 H 0.2147 0.95885 0.83317 0.0
C4352 C 0.38426 0.95058 0.99992 0.0
C4353 C 0.36588 0.9609 1.00342 0.0
C4354 C 0.40667 0.96293 0.00654 0.0
C4355 C 0.41032 0.98593 0.01665 0.0
C4356 C 0.39174 0.99632 0.0203 0.0
C4357 C 0.36966 0.98342 0.0141 0.0
C4358 C 0.42637 0.95163 1.00235 0.0
C4359 C 0.39517 0.02117 0.03002 0.0
C4360 C 0.46796 0.01745 0.04715 0.0
C4361 C 0.47732 0.02705 0.02852 0.0
C4362 C 0.44609 1.00354 0.04359 0.0
C4363 C 0.43343 1.00002 0.02093 0.0
C4364 C 0.44242 0.01098 1.00248 0.0
C4365 C 0.46405 0.0249 0.00678 0.0
C4366 C 0.43697 0.99195 0.06364 0.0
C4367 C 0.43033 1.00709 0.97768 0.0
H4368 H 0.38106 0.93288 0.99222 0.0
H4369 H 0.35532 0.99087 0.01803 0.0
H4370 H 0.43558 0.95951 0.98859 0.0
H4371 H 0.43875 0.95432 0.01864 0.0
H4372 H 0.42059 0.93304 0.99654 0.0
H4373 H 0.3788 0.02618 0.03295 0.0
H4374 H 0.40675 0.025 0.04691 0.0
H4375 H 0.4034 0.03188 0.01749 0.0
H4376 H 0.4776 0.02082 0.06436 0.0
H4377 H 0.47091 0.03312 0.99264 0.0
H4378 H 0.43286 0.9732 0.0586 0.0
H4379 H 0.42088 0.99706 0.06741 0.0
H4380 H 0.44941 0.99611 0.08 0.0
H4381 H 0.43799 0.99507 0.96683 0.0
H4382 H 0.43273 0.02327 0.96981 0.0
H4383 H 0.41193 0.99974 0.97674 0.0
C4384 C 0.84055 0.58129 0.83144 0.0
C4385 C 0.86059 0.57662 0.82364 0.0
C4386 C 0.83236 0.60017 0.82505 0.0
C4387 C 0.84442 0.61411 0.81033 0.0
C4388 C 0.86565 0.61059 0.80418 0.0
C4389 C 0.87365 0.59201 0.81124 0.0
C4390 C 0.80997 0.60401 0.83244 0.0
C4391 C 0.87892 0.62511 0.78832 0.0
C4392 C 0.81591 0.6393 0.76193 0.0
C4393 C 0.82267 0.66243 0.77046 0.0
C4394 C 0.82121 0.62302 0.77581 0.0
C4395 C 0.83379 0.63036 0.79845 0.0
C4396 C 0.83963 0.65367 0.80759 0.0
C4397 C 0.83392 0.66955 0.79339 0.0
C4398 C 0.81455 0.59813 0.76574 0.0
C4399 C 0.85299 0.66183 0.83172 0.0
H4400 H 0.8306 0.5696 0.84138 0.0
H4401 H 0.88949 0.5888 0.80566 0.0
H4402 H 0.81029 0.62246 0.83639 0.0
H4403 H 0.79599 0.59677 0.81784 0.0
H4404 H 0.80591 0.59557 0.84815 0.0
H4405 H 0.89592 0.62099 0.78667 0.0
H4406 H 0.86906 0.62239 0.77047 0.0
H4407 H 0.88151 0.64344 0.79507 0.0
H4408 H 0.80655 0.63401 0.74442 0.0
H4409 H 0.83866 0.68758 0.79995 0.0
H4410 H 0.80632 0.58783 0.77855 0.0
H4411 H 0.83012 0.59182 0.76219 0.0
H4412 H 0.80263 0.59519 0.74907 0.0
H4413 H 0.84569 0.65136 0.84489 0.0
H4414 H 0.8532 0.68002 0.8375 0.0
H4415 H 0.87092 0.6599 0.83147 0.0
C4416 C 0.84402 0.66968 0.01748 0.0
C4417 C 0.8224 0.65836 0.02159 0.0
C4418 C 0.86358 0.66057 0.023 0.0
C4419 C 0.86121 0.63945 0.03226 0.0
C4420 C 0.83936 0.62833 0.03676 0.0
C4421 C 0.82046 0.63818 0.03186 0.0
C4422 C 0.88662 0.67324 0.01847 0.0
C4423 C 0.83579 0.6057 0.04634 0.0
C4424 C 0.90168 0.5986 0.02726 0.0
C4425 C 0.91126 0.60018 0.05078 0.0
C4426 C 0.88653 0.61251 0.02049 0.0
C4427 C 0.88122 0.62866 0.0376 0.0
C4428 C 0.89251 0.63162 0.06094 0.0
C4429 C 0.90717 0.61717 0.0673 0.0
C4430 C 0.87475 0.60851 0.9955 0.0
C4431 C 0.88791 0.64901 0.07958 0.0
H4432 H 0.84555 0.68528 0.00947 0.0
H4433 H 0.80392 0.62985 0.03584 0.0
H4434 H 0.89946 0.67493 0.03424 0.0
H4435 H 0.89256 0.66347 1.00386 0.0
H4436 H 0.88604 0.69049 0.01372 0.0
H4437 H 0.81751 0.59878 0.04778 0.0
H4438 H 0.84201 0.59305 0.03474 0.0
H4439 H 0.8458 0.6076 0.06402 0.0
H4440 H 0.90482 0.58545 0.01449 0.0
H4441 H 0.91479 0.61856 0.08546 0.0
H4442 H 0.87468 0.62491 0.98851 0.0
H4443 H 0.85665 0.59967 0.99513 0.0
H4444 H 0.88303 0.59787 0.98368 0.0
H4445 H 0.88907 0.66575 0.07296 0.0
H4446 H 0.90007 0.65118 0.09599 0.0
H4447 H 0.87028 0.64358 0.08391 0.0
C4448 C 0.19737 0.11801 0.796 0.0
C4449 C 0.17653 0.11879 0.8046 0.0
C4450 C 0.21312 0.13803 0.79358 0.0
C4451 C 0.20777 0.1596 0.79925 0.0
C4452 C 0.18667 0.1605 0.80789 0.0
C4453 C 0.17128 0.14013 0.81032 0.0
C4454 C 0.23545 0.13607 0.78476 0.0
C4455 C 0.18024 0.18303 0.8143 0.0
C4456 C 0.25538 0.21383 0.81013 0.0
C4457 C 0.25378 0.222 0.78836 0.0
C4458 C 0.2408 0.19354 0.81385 0.0
C4459 C 0.2239 0.1811 0.79545 0.0
C4460 C 0.22252 0.18928 0.77324 0.0
C4461 C 0.23771 0.20937 0.76988 0.0
C4462 C 0.24397 0.18544 0.83749 0.0
C4463 C 0.20455 0.17717 0.75319 0.0
H4464 H 0.20119 0.10161 0.7906 0.0
H4465 H 0.15507 0.14087 0.81661 0.0
H4466 H 0.23706 0.14422 0.76848 0.0
H4467 H 0.24993 0.14522 0.79811 0.0
H4468 H 0.23703 0.11807 0.78096 0.0
H4469 H 0.1636 0.18099 0.82139 0.0
H4470 H 0.19368 0.194 0.82767 0.0
H4471 H 0.17915 0.19205 0.79854 0.0
H4472 H 0.26771 0.22365 0.82448 0.0
H4473 H 0.23652 0.21565 0.75296 0.0
H4474 H 0.25514 0.17296 0.83628 0.0
H4475 H 0.22746 0.1771 0.84271 0.0
H4476 H 0.25255 0.19959 0.85144 0.0
H4477 H 0.20733 0.15982 0.74797 0.0
H4478 H 0.20479 0.18645 0.73754 0.0
H4479 H 0.1873 0.17519 0.75888 0.0
C4480 C 0.37297 0.94448 0.32245 0.0
C4481 C 0.36621 0.96115 0.31011 0.0
C4482 C 0.36052 0.92207 0.31767 0.0
C4483 C 0.34254 0.91635 0.29868 0.0
C4484 C 0.33617 0.93319 0.28574 0.0
C4485 C 0.34774 0.9557 0.29217 0.0
C4486 C 0.36646 0.90468 0.33294 0.0
C4487 C 0.31744 0.92742 0.26502 0.0
C4488 C 0.33101 0.85409 0.27689 0.0
C4489 C 0.31042 0.84644 0.28554 0.0
C4490 C 0.34063 0.8773 0.2791 0.0
C4491 C 0.33045 0.89265 0.2923 0.0
C4492 C 0.30951 0.88502 0.30075 0.0
C4493 C 0.29926 0.86208 0.29642 0.0
C4494 C 0.36206 0.8852 0.26817 0.0
C4495 C 0.29905 0.90028 0.31658 0.0
H4496 H 0.38759 0.94909 0.33609 0.0
H4497 H 0.34303 0.96894 0.28254 0.0
H4498 H 0.35076 0.89517 0.33886 0.0
H4499 H 0.37401 0.89214 0.32272 0.0
H4500 H 0.37887 0.91268 0.34871 0.0
H4501 H 0.31655 0.9422 0.25526 0.0
H4502 H 0.32023 0.91313 0.2527 0.0
H4503 H 0.30064 0.9218 0.2712 0.0
H4504 H 0.34006 0.84207 0.26921 0.0
H4505 H 0.2833 0.85633 0.30323 0.0
H4506 H 0.37713 0.88935 0.28196 0.0
H4507 H 0.36112 0.90085 0.25992 0.0
H4508 H 0.36483 0.87189 0.2546 0.0
H4509 H 0.30756 0.90095 0.33477 0.0
H4510 H 0.28043 0.89359 0.31638 0.0
H4511 H 0.30167 0.91778 0.3118 0.0
C4512 C 0.57782 0.37846 0.59256 0.0
C4513 C 0.55968 0.35906 0.58684 0.0
C4514 C 0.57612 0.4004 0.58555 0.0
C4515 C 0.55553 0.40403 0.57293 0.0
C4516 C 0.53714 0.38458 0.56753 0.0
C4517 C 0.53951 0.36286 0.57409 0.0
C4518 C 0.59669 0.41979 0.59145 0.0
C4519 C 0.51456 0.38665 0.55469 0.0
C4520 C 0.54386 0.46623 0.57407 0.0
C4521 C 0.5465 0.47182 0.55117 0.0
C4522 C 0.54637 0.44462 0.5811 0.0
C4523 C 0.55295 0.42776 0.56552 0.0
C4524 C 0.55602 0.43353 0.54246 0.0
C4525 C 0.55234 0.45486 0.53555 0.0
C4526 C 0.54134 0.43963 0.60528 0.0
C4527 C 0.56391 0.41734 0.52503 0.0
H4528 H 0.59364 0.37646 0.60215 0.0
H4529 H 0.52504 0.34863 0.56932 0.0
H4530 H 0.60043 0.42784 0.57546 0.0
H4531 H 0.59306 0.43303 0.60446 0.0
H4532 H 0.61213 0.41413 0.59887 0.0
H4533 H 0.50111 0.37094 0.55384 0.0
H4534 H 0.50855 0.40121 0.56345 0.0
H4535 H 0.51672 0.39008 0.53645 0.0
H4536 H 0.53904 0.47861 0.58649 0.0
H4537 H 0.55464 0.45849 0.51785 0.0
H4538 H 0.55705 0.43724 0.61577 0.0
H4539 H 0.52834 0.42352 0.60389 0.0
H4540 H 0.53495 0.4535 0.6149 0.0
H4541 H 0.58161 0.41604 0.53151 0.0
H4542 H 0.56378 0.42305 0.50733 0.0
H4543 H 0.55299 0.4 0.52336 0.0
C4544 C 0.44143 0.75754 0.39052 0.0
C4545 C 0.44506 0.77152 0.41228 0.0
C4546 C 0.42171 0.75576 0.37392 0.0
C4547 C 0.40552 0.76957 0.37806 0.0
C4548 C 0.40941 0.78406 0.39998 0.0
C4549 C 0.4284 0.78409 0.41705 0.0
C4550 C 0.41889 0.73928 0.35172 0.0
C4551 C 0.39395 0.80026 0.40519 0.0
C4552 C 0.37039 0.78256 0.32239 0.0
C4553 C 0.34766 0.7733 0.32489 0.0
C4554 C 0.38899 0.78038 0.33858 0.0
C4555 C 0.38539 0.76986 0.35926 0.0
C4556 C 0.36228 0.76003 0.36173 0.0
C4557 C 0.34397 0.7618 0.34468 0.0
C4558 C 0.41242 0.7891 0.3325 0.0
C4559 C 0.35626 0.74687 0.38183 0.0
H4560 H 0.45402 0.74762 0.38649 0.0
H4561 H 0.43087 0.79496 0.43372 0.0
H4562 H 0.40096 0.73449 0.34293 0.0
H4563 H 0.43001 0.74713 0.33932 0.0
H4564 H 0.42458 0.72351 0.35563 0.0
H4565 H 0.40122 0.81292 0.42093 0.0
H4566 H 0.39095 0.80955 0.38991 0.0
H4567 H 0.37715 0.79053 0.40841 0.0
H4568 H 0.3739 0.79214 0.30792 0.0
H4569 H 0.3266 0.75421 0.34708 0.0
H4570 H 0.41606 0.77687 0.31838 0.0
H4571 H 0.42579 0.79115 0.3477 0.0
H4572 H 0.41307 0.80552 0.32531 0.0
H4573 H 0.34682 0.72933 0.37465 0.0
H4574 H 0.34449 0.75494 0.39177 0.0
H4575 H 0.37129 0.74564 0.39416 0.0
C4576 C 0.0626 0.72794 0.07044 0.0
C4577 C 0.062 0.73494 0.09447 0.0
C4578 C 0.061 0.70456 0.06132 0.0
C4579 C 0.06044 0.68735 0.07659 0.0
C4580 C 0.0611 0.69459 0.10099 0.0
C4581 C 0.06141 0.71773 0.10938 0.0
C4582 C 0.05971 0.69823 0.03516 0.0
C4583 C 0.06198 0.67784 0.11855 0.0
C4584 C 0.03512 0.62265 0.05694 0.0
C4585 C 0.05434 0.61297 0.05368 0.0
C4586 C 0.03687 0.6464 0.06346 0.0
C4587 C 0.05849 0.66185 0.06743 0.0
C4588 C 0.07803 0.65233 0.06391 0.0
C4589 C 0.07571 0.62837 0.05696 0.0
C4590 C 0.01525 0.65502 0.06583 0.0
C4591 C 0.10163 0.66742 0.06761 0.0
H4592 H 0.06477 0.7408 0.05871 0.0
H4593 H 0.06171 0.72247 0.12808 0.0
H4594 H 0.07338 0.6891 0.0312 0.0
H4595 H 0.0431 0.68643 0.02842 0.0
H4596 H 0.06133 0.71337 0.02557 0.0
H4597 H 0.06419 0.68616 0.13701 0.0
H4598 H 0.046 0.6645 0.11545 0.0
H4599 H 0.07638 0.66918 0.11624 0.0
H4600 H 0.01828 0.61155 0.05424 0.0
H4601 H 0.0908 0.62167 0.0547 0.0
H4602 H 0.01372 0.66752 0.05329 0.0
H4603 H 0.01597 0.66399 0.08379 0.0
H4604 H 0.99967 0.64113 0.06223 0.0
H4605 H 0.10382 0.67725 0.05251 0.0
H4606 H 0.11522 0.65739 0.0689 0.0
H4607 H 0.10403 0.67982 0.08378 0.0
C4608 C 0.0637 0.26532 0.89509 0.0
C4609 C 0.06486 0.27889 0.91672 0.0
C4610 C 0.08238 0.26732 0.88208 0.0
C4611 C 0.10292 0.28341 0.89078 0.0
C4612 C 0.10476 0.29591 0.91348 0.0
C4613 C 0.08571 0.29358 0.92612 0.0
C4614 C 0.07943 0.25351 0.85814 0.0
C4615 C 0.12621 0.3133 0.92353 0.0
C4616 C 0.158 0.28789 0.86147 0.0
C4617 C 0.15671 0.30595 0.84822 0.0
C4618 C 0.14023 0.27959 0.87463 0.0
C4619 C 0.12087 0.28977 0.87485 0.0
C4620 C 0.11896 0.30702 0.86035 0.0
C4621 C 0.13662 0.31459 0.84709 0.0
C4622 C 0.14261 0.26059 0.8891 0.0
C4623 C 0.0987 0.31836 0.85962 0.0
H4624 H 0.04751 0.25425 0.8875 0.0
H4625 H 0.08657 0.30462 0.94244 0.0
H4626 H 0.07893 0.26489 0.84428 0.0
H4627 H 0.09418 0.24527 0.8563 0.0
H4628 H 0.06342 0.24014 0.85491 0.0
H4629 H 0.12615 0.3195 0.94236 0.0
H4630 H 0.14156 0.30598 0.92185 0.0
H4631 H 0.12771 0.32809 0.91346 0.0
H4632 H 0.17334 0.28101 0.86249 0.0
H4633 H 0.13515 0.32818 0.83651 0.0
H4634 H 0.12666 0.24719 0.88595 0.0
H4635 H 0.14537 0.26735 0.90807 0.0
H4636 H 0.15716 0.25271 0.88505 0.0
H4637 H 0.08258 0.30545 0.85413 0.0
H4638 H 0.0997 0.3314 0.84731 0.0
H4639 H 0.09773 0.32673 0.87745 0.0
C4640 C 0.53462 0.73777 0.8905 0.0
C4641 C 0.54952 0.75826 0.90058 0.0
C4642 C 0.53168 0.71843 0.90259 0.0
C4643 C 0.54414 0.71943 0.92519 0.0
C4644 C 0.56014 0.7397 0.9348 0.0
C4645 C 0.56248 0.75884 0.92252 0.0
C4646 C 0.51442 0.69723 0.89163 0.0
C4647 C 0.57426 0.74146 0.95848 0.0
C4648 C 0.51471 0.68025 0.96574 0.0
C4649 C 0.52527 0.66158 0.96328 0.0
C4650 C 0.52137 0.69949 0.95425 0.0
C4651 C 0.53888 0.70006 0.93957 0.0
C4652 C 0.55039 0.68168 0.93795 0.0
C4653 C 0.54344 0.66265 0.94982 0.0
C4654 C 0.50892 0.71879 0.95702 0.0
C4655 C 0.56921 0.68148 0.92269 0.0
H4656 H 0.52445 0.73715 0.87365 0.0
H4657 H 0.5742 0.77452 0.93041 0.0
H4658 H 0.52241 0.68218 0.89138 0.0
H4659 H 0.50015 0.69419 0.9024 0.0
H4660 H 0.50723 0.69854 0.87338 0.0
H4661 H 0.58692 0.7579 0.9629 0.0
H4662 H 0.56288 0.73983 0.97239 0.0
H4663 H 0.58352 0.72732 0.95874 0.0
H4664 H 0.50058 0.67941 0.97603 0.0
H4665 H 0.55143 0.64812 0.9476 0.0
H4666 H 0.49942 0.72019 0.93982 0.0
H4667 H 0.52133 0.73519 0.96271 0.0
H4668 H 0.49661 0.71634 0.97005 0.0
H4669 H 0.56156 0.67759 0.90394 0.0
H4670 H 0.57922 0.66844 0.9267 0.0
H4671 H 0.58104 0.69841 0.9249 0.0
C4672 C 0.1102 0.76731 0.71029 0.0
C4673 C 0.09361 0.76845 0.72581 0.0
C4674 C 0.13373 0.76804 0.71812 0.0
C4675 C 0.14223 0.77108 0.74252 0.0
C4676 C 0.1257 0.77233 0.75842 0.0
C4677 C 0.10186 0.7701 0.74997 0.0
C4678 C 0.14951 0.76489 0.69998 0.0
C4679 C 0.13326 0.77645 0.78456 0.0
C4680 C 0.20177 0.7564 0.76298 0.0
C4681 C 0.21769 0.77721 0.76389 0.0
C4682 C 0.17759 0.75417 0.75655 0.0
C4683 C 0.1682 0.77326 0.75099 0.0
C4684 C 0.18414 0.7944 0.75244 0.0
C4685 C 0.20815 0.79603 0.75852 0.0
C4686 C 0.16209 0.73103 0.75517 0.0
C4687 C 0.17584 0.81563 0.74749 0.0
H4688 H 0.10462 0.76522 0.69153 0.0
H4689 H 0.08964 0.76916 0.76241 0.0
H4690 H 0.16293 0.78059 0.70093 0.0
H4691 H 0.15829 0.75087 0.70366 0.0
H4692 H 0.14027 0.76086 0.6818 0.0
H4693 H 0.11854 0.77455 0.79479 0.0
H4694 H 0.14419 0.76459 0.78985 0.0
H4695 H 0.1438 0.79398 0.7893 0.0
H4696 H 0.20822 0.74158 0.76679 0.0
H4697 H 0.21957 0.81246 0.75915 0.0
H4698 H 0.15351 0.72549 0.73687 0.0
H4699 H 0.14848 0.73185 0.76655 0.0
H4700 H 0.17153 0.71797 0.76061 0.0
H4701 H 0.16906 0.81412 0.7286 0.0
H4702 H 0.18964 0.83123 0.75187 0.0
H4703 H 0.16163 0.81765 0.75776 0.0
C4704 C 0.03643 0.39171 0.41198 0.0
C4705 C 0.05734 0.38603 0.40767 0.0
C4706 C 0.03533 0.4106 0.42835 0.0
C4707 C 0.05555 0.42389 0.44208 0.0
C4708 C 0.07667 0.41753 0.43864 0.0
C4709 C 0.07736 0.39905 0.42135 0.0
C4710 C 0.01235 0.4164 0.43076 0.0
C4711 C 0.09854 0.42996 0.4537 0.0
C4712 C 0.05683 0.4854 0.47071 0.0
C4713 C 0.05074 0.48238 0.49334 0.0
C4714 C 0.05821 0.46676 0.45403 0.0
C4715 C 0.05449 0.44417 0.46002 0.0
C4716 C 0.04894 0.44105 0.48299 0.0
C4717 C 0.04656 0.45985 0.49884 0.0
C4718 C 0.06307 0.47125 0.42963 0.0
C4719 C 0.04506 0.41775 0.491 0.0
H4720 H 0.0207 0.38132 0.40244 0.0
H4721 H 0.09359 0.39466 0.41868 0.0
H4722 H 1.00756 0.41334 0.44836 0.0
H4723 H 0.01322 0.43472 0.42927 0.0
H4724 H 0.99863 0.40607 0.41721 0.0
H4725 H 0.11357 0.42316 0.44908 0.0
H4726 H 0.10173 0.44837 0.45184 0.0
H4727 H 0.09688 0.42842 0.47249 0.0
H4728 H 0.06001 0.50242 0.46567 0.0
H4729 H 0.04102 0.45659 0.51551 0.0
H4730 H 0.04909 0.46088 0.4164 0.0
H4731 H 0.07913 0.46603 0.42598 0.0
H4732 H 0.06469 0.48949 0.42724 0.0
H4733 H 0.02716 0.40864 0.48485 0.0
H4734 H 0.04778 0.41893 0.5105 0.0
H4735 H 0.0566 0.40738 0.4837 0.0
C4736 C 0.43488 0.24216 0.21452 0.0
C4737 C 0.45735 0.2548 0.22298 0.0
C4738 C 0.41479 0.2466 0.22368 0.0
C4739 C 0.41604 0.26474 0.24201 0.0
C4740 C 0.43867 0.27746 0.2511 0.0
C4741 C 0.45873 0.27239 0.24174 0.0
C4742 C 0.39187 0.23195 0.21312 0.0
C4743 C 0.44168 0.297 0.27048 0.0
C4744 C 0.35951 0.28809 0.24613 0.0
C4745 C 0.34992 0.27833 0.265 0.0
C4746 C 0.38102 0.28471 0.23934 0.0
C4747 C 0.39374 0.2704 0.25087 0.0
C4748 C 0.38399 0.26042 0.2699 0.0
C4749 C 0.36278 0.26468 0.2768 0.0
C4750 C 0.39012 0.29655 0.2195 0.0
C4751 C 0.39565 0.24448 0.28269 0.0
H4752 H 0.43282 0.22871 0.19997 0.0
H4753 H 0.4754 0.28295 0.24846 0.0
H4754 H 0.38249 0.22491 0.22718 0.0
H4755 H 0.38132 0.24246 0.20416 0.0
H4756 H 0.39349 0.21758 0.20016 0.0
H4757 H 0.45984 0.30606 0.27516 0.0
H4758 H 0.43133 0.30935 0.26507 0.0
H4759 H 0.43532 0.29059 0.2864 0.0
H4760 H 0.35017 0.29865 0.2366 0.0
H4761 H 0.3559 0.25671 0.29123 0.0
H4762 H 0.39054 0.28371 0.2044 0.0
H4763 H 0.40795 0.30618 0.22519 0.0
H4764 H 0.37956 0.3085 0.21346 0.0
H4765 H 0.39477 0.22866 0.27061 0.0
H4766 H 0.38759 0.23979 0.29844 0.0
H4767 H 0.41401 0.25232 0.28824 0.0
C4768 C 0.59419 0.55415 0.36262 0.0
C4769 C 0.61603 0.54911 0.36222 0.0
C4770 C 0.58209 0.55113 0.38242 0.0
C4771 C 0.59189 0.54291 0.40258 0.0
C4772 C 0.61354 0.53708 0.40181 0.0
C4773 C 0.62514 0.54019 0.38192 0.0
C4774 C 0.55892 0.55714 0.38187 0.0
C4775 C 0.6249 0.52804 0.42238 0.0
C4776 C 0.57337 0.55847 0.46345 0.0
C4777 C 0.56175 0.53744 0.46886 0.0
C4778 C 0.58353 0.56039 0.44243 0.0
C4779 C 0.5803 0.54123 0.42488 0.0
C4780 C 0.5672 0.52021 0.42956 0.0
C4781 C 0.55899 0.51839 0.45166 0.0
C4782 C 0.59838 0.58288 0.43938 0.0
C4783 C 0.56136 0.49967 0.41097 0.0
H4784 H 0.58682 0.56109 0.34777 0.0
H4785 H 0.64179 0.53588 0.38202 0.0
H4786 H 0.54642 0.54309 0.38721 0.0
H4787 H 0.55999 0.57252 0.39463 0.0
H4788 H 0.55237 0.56065 0.36416 0.0
H4789 H 0.642 0.52485 0.41944 0.0
H4790 H 0.62688 0.54035 0.43856 0.0
H4791 H 0.61403 0.51184 0.42563 0.0
H4792 H 0.57469 0.57359 0.47574 0.0
H4793 H 0.55024 0.50197 0.45538 0.0
H4794 H 0.59203 0.58888 0.42291 0.0
H4795 H 0.61606 0.58064 0.43788 0.0
H4796 H 0.59901 0.59628 0.45434 0.0
H4797 H 0.55143 0.50375 0.3952 0.0
H4798 H 0.55109 0.48456 0.41716 0.0
H4799 H 0.57715 0.49524 0.40534 0.0
C4800 C 0.29186 0.91437 0.08225 0.0
C4801 C 0.30546 0.91137 0.06451 0.0
C4802 C 0.2936 0.90276 0.10199 0.0
C4803 C 0.30944 0.88833 0.10369 0.0
C4804 C 0.3233 0.88559 0.08572 0.0
C4805 C 0.32101 0.89713 0.06626 0.0
C4806 C 0.27841 0.90564 0.12078 0.0
C4807 C 0.34037 0.87028 0.08683 0.0
C4808 C 0.33795 0.87188 0.15805 0.0
C4809 C 0.32835 0.84859 0.1551 0.0
C4810 C 0.33007 0.8859 0.14272 0.0
C4811 C 0.31228 0.87611 0.12421 0.0
C4812 C 0.30114 0.85293 0.12266 0.0
C4813 C 0.30948 0.8393 0.13819 0.0
C4814 C 0.34239 0.91052 0.14479 0.0
C4815 C 0.28196 0.84203 0.10326 0.0
H4816 H 0.27959 0.9252 0.08034 0.0
H4817 H 0.33123 0.89482 0.05214 0.0
H4818 H 0.26897 0.88875 0.12405 0.0
H4819 H 0.28903 0.9139 0.13754 0.0
H4820 H 0.26585 0.91615 0.11591 0.0
H4821 H 0.35004 0.87048 0.07145 0.0
H4822 H 0.35281 0.87568 0.10307 0.0
H4823 H 0.3314 0.85247 0.08744 0.0
H4824 H 0.35235 0.87885 0.17158 0.0
H4825 H 0.30195 0.82123 0.13649 0.0
H4826 H 0.33008 0.92172 0.14193 0.0
H4827 H 0.35394 0.9125 0.13104 0.0
H4828 H 0.35285 0.91639 0.16225 0.0
H4829 H 0.26988 0.85345 0.10034 0.0
H4830 H 0.27234 0.82546 0.10724 0.0
H4831 H 0.28919 0.83891 0.08661 0.0
C4832 C 0.94286 0.54821 0.88265 0.0
C4833 C 0.92192 0.53351 0.88358 0.0
C4834 C 0.96056 0.55151 0.9012 0.0
C4835 C 0.95715 0.53929 0.92054 0.0
C4836 C 0.93593 0.52474 0.92177 0.0
C4837 C 0.91832 0.5224 0.90339 0.0
C4838 C 0.983 0.56751 0.89988 0.0
C4839 C 0.93209 0.51109 0.94207 0.0
C4840 C 1.00643 0.52588 0.95777 0.0
C4841 C 1.00782 0.54126 0.97802 0.0
C4842 C 0.99059 0.52578 0.93826 0.0
C4843 C 0.97584 0.54126 0.93947 0.0
C4844 C 0.97762 0.55726 0.95961 0.0
C4845 C 0.99383 0.5572 0.9787 0.0
C4846 C 0.98895 0.5085 0.91686 0.0
C4847 C 0.96186 0.57382 0.96131 0.0
H4848 H 0.94546 0.55694 0.86734 0.0
H4849 H 0.90205 0.51114 0.90415 0.0
H4850 H 0.98798 0.58 0.91607 0.0
H4851 H 0.99671 0.55773 0.89877 0.0
H4852 H 0.98219 0.57697 0.88439 0.0
H4853 H 0.91447 0.50052 0.94019 0.0
H4854 H 0.94438 0.49964 0.94327 0.0
H4855 H 0.93523 0.52263 0.95891 0.0
H4856 H 0.01734 0.51358 0.95739 0.0
H4857 H 0.99527 0.5694 0.99427 0.0
H4858 H 0.98943 0.517 0.90072 0.0
H4859 H 0.97239 0.49603 0.91483 0.0
H4860 H 1.00302 0.49905 0.9181 0.0
H4861 H 0.96247 0.5837 0.94613 0.0
H4862 H 0.96634 0.5859 0.97785 0.0
H4863 H 0.94395 0.56431 0.96059 0.0
C4864 C 0.25696 0.20308 0.60579 0.0
C4865 C 0.27256 0.213 0.5914 0.0
C4866 C 0.25743 0.21249 0.62946 0.0
C4867 C 0.2744 0.232 0.63958 0.0
C4868 C 0.29054 0.24178 0.62524 0.0
C4869 C 0.28917 0.23247 0.60136 0.0
C4870 C 0.2395 0.20166 0.6436 0.0
C4871 C 0.30953 0.26193 0.63525 0.0
C4872 C 0.2655 0.2681 0.69603 0.0
C4873 C 0.27748 0.25926 0.71395 0.0
C4874 C 0.26426 0.25944 0.67194 0.0
C4875 C 0.27559 0.24168 0.66523 0.0
C4876 C 0.28788 0.2329 0.68323 0.0
C4877 C 0.28847 0.24154 0.7071 0.0
C4878 C 0.25072 0.26931 0.65363 0.0
C4879 C 0.3006 0.21431 0.67732 0.0
H4880 H 0.24389 0.18821 0.59833 0.0
H4881 H 0.3014 0.24026 0.59054 0.0
H4882 H 0.24778 0.19568 0.65919 0.0
H4883 H 0.22999 0.21448 0.65019 0.0
H4884 H 0.22708 0.18699 0.63315 0.0
H4885 H 0.32051 0.26788 0.62188 0.0
H4886 H 0.30229 0.27627 0.64255 0.0
H4887 H 0.32041 0.25727 0.64997 0.0
H4888 H 0.25719 0.28194 0.70075 0.0
H4889 H 0.29771 0.2343 0.72047 0.0
H4890 H 0.23703 0.25563 0.64338 0.0
H4891 H 0.26199 0.27654 0.64106 0.0
H4892 H 0.24276 0.28289 0.66152 0.0
H4893 H 0.28848 0.19885 0.66804 0.0
H4894 H 0.30978 0.20962 0.69322 0.0
H4895 H 0.31319 0.2199 0.66528 0.0
C4896 C 0.62189 0.5383 0.20678 0.0
C4897 C 0.61245 0.54879 0.22512 0.0
C4898 C 0.61201 0.53635 0.18297 0.0
C4899 C 0.59284 0.54613 0.17701 0.0
C4900 C 0.58353 0.55705 0.19552 0.0
C4901 C 0.59306 0.55777 0.21921 0.0
C4902 C 0.622 0.52366 0.16415 0.0
C4903 C 0.56365 0.56837 0.19029 0.0
C4904 C 0.58337 0.5611 0.11383 0.0
C4905 C 0.5646 0.54403 0.10326 0.0
C4906 C 0.59228 0.5623 0.13777 0.0
C4907 C 0.58289 0.54542 0.1515 0.0
C4908 C 0.56405 0.52791 0.14069 0.0
C4909 C 0.55509 0.52753 0.11685 0.0
C4910 C 0.61187 0.58167 0.14834 0.0
C4911 C 0.55374 0.50909 0.15404 0.0
H4912 H 0.63675 0.53117 0.21111 0.0
H4913 H 0.58573 0.56608 0.23319 0.0
H4914 H 0.60835 0.51032 0.15335 0.0
H4915 H 0.62933 0.53554 0.15218 0.0
H4916 H 0.63563 0.51547 0.17165 0.0
H4917 H 0.55914 0.57723 0.20643 0.0
H4918 H 0.56784 0.58095 0.17785 0.0
H4919 H 0.54842 0.55547 0.18168 0.0
H4920 H 0.59131 0.57341 0.10326 0.0
H4921 H 0.5409 0.51398 0.10864 0.0
H4922 H 0.62726 0.57492 0.15355 0.0
H4923 H 0.60748 0.59061 0.16448 0.0
H4924 H 0.61622 0.59424 0.1359 0.0
H4925 H 0.56633 0.49833 0.15772 0.0
H4926 H 0.53786 0.49808 0.14405 0.0
H4927 H 0.54973 0.51623 0.17123 0.0
C4928 C 0.29688 0.87912 0.93984 0.0
C4929 C 0.29393 0.90064 0.93473 0.0
C4930 C 0.29548 0.86152 0.92189 0.0
C4931 C 0.29092 0.86572 0.89849 0.0
C4932 C 0.28688 0.88701 0.89314 0.0
C4933 C 0.2885 0.9044 0.9115 0.0
C4934 C 0.30001 0.83889 0.9279 0.0
C4935 C 0.28179 0.89162 0.86806 0.0
C4936 C 0.31333 0.83191 0.85188 0.0
C4937 C 0.29282 0.81883 0.83995 0.0
C4938 C 0.313 0.84758 0.87121 0.0
C4939 C 0.29182 0.84832 0.87945 0.0
C4940 C 0.27141 0.83323 0.86882 0.0
C4941 C 0.27206 0.81888 0.84856 0.0
C4942 C 0.3349 0.86414 0.88183 0.0
C4943 C 0.24895 0.83274 0.87841 0.0
H4944 H 0.30127 0.8762 0.95785 0.0
H4945 H 0.28607 0.92102 0.90767 0.0
H4946 H 0.28663 0.82461 0.91819 0.0
H4947 H 0.31664 0.83663 0.92249 0.0
H4948 H 0.30063 0.83767 0.94704 0.0
H4949 H 0.27872 0.90906 0.86706 0.0
H4950 H 0.29633 0.88954 0.85831 0.0
H4951 H 0.26647 0.87911 0.85895 0.0
H4952 H 0.32929 0.83102 0.84505 0.0
H4953 H 0.25647 0.80775 0.83941 0.0
H4954 H 0.33836 0.86324 0.90095 0.0
H4955 H 0.33312 0.88179 0.87975 0.0
H4956 H 0.34989 0.86084 0.8734 0.0
H4957 H 0.25092 0.83046 0.89732 0.0
H4958 H 0.23506 0.8188 0.86883 0.0
H4959 H 0.24371 0.84921 0.8771 0.0
C4960 C 0.91141 0.50456 0.73942 0.0
C4961 C 0.9121 0.52625 0.75094 0.0
C4962 C 0.92376 0.50183 0.7206 0.0
C4963 C 0.93621 0.52141 0.71267 0.0
C4964 C 0.93519 0.54346 0.72294 0.0
C4965 C 0.92358 0.54565 0.74258 0.0
C4966 C 0.92503 0.47801 0.71058 0.0
C4967 C 0.94722 0.56459 0.71389 0.0
C4968 C 0.98833 0.50786 0.6892 0.0
C4969 C 0.97992 0.50105 0.66544 0.0
C4970 C 0.97483 0.51654 0.70458 0.0
C4971 C 0.95243 0.51836 0.69583 0.0
C4972 C 0.9445 0.51314 0.67152 0.0
C4973 C 0.95834 0.50435 0.65656 0.0
C4974 C 0.98394 0.52211 0.73044 0.0
C4975 C 0.92087 0.51527 0.66155 0.0
H4976 H 0.90271 0.48965 0.74636 0.0
H4977 H 0.92391 0.56237 0.75172 0.0
H4978 H 0.9202 0.47535 0.69123 0.0
H4979 H 0.94287 0.47567 0.71412 0.0
H4980 H 0.91368 0.46466 0.71827 0.0
H4981 H 0.94288 0.58029 0.72237 0.0
H4982 H 0.96601 0.56623 0.71725 0.0
H4983 H 0.94251 0.56326 0.69457 0.0
H4984 H 1.00531 0.50591 0.69582 0.0
H4985 H 0.9519 0.49924 0.63806 0.0
H4986 H 0.9747 0.5091 0.74023 0.0
H4987 H 0.98099 0.53889 0.73762 0.0
H4988 H 1.00254 0.52242 0.73383 0.0
H4989 H 0.90818 0.50004 0.66429 0.0
H4990 H 0.91963 0.51638 0.64235 0.0
H4991 H 0.9161 0.53048 0.67053 0.0
C4992 C 0.25165 0.21097 0.43425 0.0
C4993 C 0.26907 0.21284 0.45316 0.0
C4994 C 0.25521 0.22236 0.41429 0.0
C4995 C 0.27704 0.23574 0.41244 0.0
C4996 C 0.29472 0.23796 0.43163 0.0
C4997 C 0.2905 0.22671 0.45173 0.0
C4998 C 0.23558 0.21956 0.39482 0.0
C4999 C 0.31835 0.25173 0.43062 0.0
C5000 C 0.29009 0.24432 0.3493 0.0
C5001 C 0.28563 0.26604 0.34672 0.0
C5002 C 0.28788 0.23459 0.37052 0.0
C5003 C 0.28124 0.24675 0.39019 0.0
C5004 C 0.27727 0.26889 0.3879 0.0
C5005 C 0.2793 0.27809 0.36637 0.0
C5006 C 0.29227 0.21097 0.37173 0.0
C5007 C 0.27024 0.28274 0.40808 0.0
H5008 H 0.2351 0.20022 0.43486 0.0
H5009 H 0.3043 0.22792 0.46585 0.0
H5010 H 0.23279 0.23651 0.39101 0.0
H5011 H 0.23976 0.21082 0.37846 0.0
H5012 H 0.21938 0.20954 0.39928 0.0
H5013 H 0.33038 0.25165 0.44663 0.0
H5014 H 0.32533 0.24485 0.41502 0.0
H5015 H 0.31748 0.26962 0.42861 0.0
H5016 H 0.29501 0.23467 0.33449 0.0
H5017 H 0.27561 0.29477 0.36487 0.0
H5018 H 0.27632 0.19923 0.37439 0.0
H5019 H 0.30525 0.21114 0.387 0.0
H5020 H 0.29833 0.20408 0.35549 0.0
H5021 H 0.25271 0.27467 0.41106 0.0
H5022 H 0.27038 0.30054 0.40469 0.0
H5023 H 0.28181 0.28314 0.42454 0.0
C5024 C 0.33612 0.6063 0.5761 0.0
C5025 C 0.32715 0.61507 0.55657 0.0
C5026 C 0.35545 0.59678 0.57497 0.0
C5027 C 0.36522 0.59597 0.55374 0.0
C5028 C 0.35685 0.60628 0.53459 0.0
C5029 C 0.33797 0.61596 0.53645 0.0
C5030 C 0.36444 0.58632 0.59571 0.0
C5031 C 0.36635 0.60527 0.51132 0.0
C5032 C 0.41954 0.58447 0.53674 0.0
C5033 C 0.41102 0.56364 0.52264 0.0
C5034 C 0.40544 0.59399 0.55074 0.0
C5035 C 0.38245 0.58242 0.54984 0.0
C5036 C 0.37485 0.55997 0.53794 0.0
C5037 C 0.38941 0.55079 0.5243 0.0
C5038 C 0.41407 0.61776 0.56358 0.0
C5039 C 0.35039 0.54708 0.53656 0.0
H5040 H 0.32722 0.60554 0.59147 0.0
H5041 H 0.33049 0.62266 0.52141 0.0
H5042 H 0.36214 0.56765 0.59098 0.0
H5043 H 0.38306 0.59331 0.60054 0.0
H5044 H 0.35563 0.58951 0.61131 0.0
H5045 H 0.35827 0.61498 0.49872 0.0
H5046 H 0.38506 0.61222 0.51401 0.0
H5047 H 0.36336 0.58729 0.50308 0.0
H5048 H 0.43665 0.59391 0.53564 0.0
H5049 H 0.38334 0.53436 0.5136 0.0
H5050 H 0.40666 0.61982 0.58027 0.0
H5051 H 0.40882 0.63021 0.55242 0.0
H5052 H 0.43304 0.62194 0.56747 0.0
H5053 H 0.34386 0.5494 0.55371 0.0
H5054 H 0.34864 0.52856 0.53102 0.0
H5055 H 0.3394 0.55373 0.52344 0.0
C5056 C 0.87565 0.94543 0.55792 0.0
C5057 C 0.87141 0.92376 0.54476 0.0
C5058 C 0.89689 0.96089 0.55942 0.0
C5059 C 0.9143 0.955 0.5467 0.0
C5060 C 0.90986 0.93321 0.533 0.0
C5061 C 0.88877 0.9177 0.53268 0.0
C5062 C 0.90053 0.98362 0.57451 0.0
C5063 C 0.9273 0.92637 0.51836 0.0
C5064 C 0.95942 1.00373 0.53087 0.0
C5065 C 0.97898 1.00321 0.54612 0.0
C5066 C 0.93859 0.98828 0.53103 0.0
C5067 C 0.9367 0.97188 0.54698 0.0
C5068 C 0.95632 0.97166 0.56294 0.0
C5069 C 0.97721 0.98711 0.56218 0.0
C5070 C 0.91866 0.98916 0.51357 0.0
C5071 C 0.95521 0.95518 0.58091 0.0
H5072 H 0.8624 0.95016 0.56753 0.0
H5073 H 0.88561 0.901 0.52245 0.0
H5074 H 0.91787 0.98813 0.58477 0.0
H5075 H 0.89908 0.99709 0.56311 0.0
H5076 H 0.88763 0.98371 0.58692 0.0
H5077 H 0.92092 0.90935 0.50782 0.0
H5078 H 0.93194 0.93913 0.50622 0.0
H5079 H 0.94316 0.926 0.52994 0.0
H5080 H 0.96056 0.01574 0.5181 0.0
H5081 H 0.99222 0.98648 0.5741 0.0
H5082 H 0.9038 0.99021 0.52303 0.0
H5083 H 0.91438 0.97322 0.50105 0.0
H5084 H 0.92203 1.00394 0.50353 0.0
H5085 H 0.9425 0.95837 0.59275 0.0
H5086 H 0.97201 0.9567 0.59173 0.0
H5087 H 0.94937 0.93742 0.57206 0.0
C5088 C 0.90906 0.08168 0.26 0.0
C5089 C 0.91426 0.07382 0.28156 0.0
C5090 C 0.89719 0.09961 0.25868 0.0
C5091 C 0.89033 0.10967 0.27936 0.0
C5092 C 0.89659 0.10244 0.30126 0.0
C5093 C 0.90859 0.08485 0.30207 0.0
C5094 C 0.89095 0.10698 0.23509 0.0
C5095 C 0.88932 0.11223 0.32376 0.0
C5096 C 0.872 0.16593 0.29028 0.0
C5097 C 0.84856 0.1584 0.291 0.0
C5098 C 0.88565 0.15043 0.28402 0.0
C5099 C 0.87558 0.12688 0.27856 0.0
C5100 C 0.85148 0.11963 0.27711 0.0
C5101 C 0.83829 0.13551 0.28345 0.0
C5102 C 0.91118 0.15891 0.28574 0.0
C5103 C 0.83989 0.09477 0.27139 0.0
H5104 H 0.91284 0.07285 0.24402 0.0
H5105 H 0.91229 0.07861 0.31873 0.0
H5106 H 0.87207 0.10326 0.23056 0.0
H5107 H 0.89705 0.12567 0.23585 0.0
H5108 H 0.89835 0.09824 0.22083 0.0
H5109 H 0.89621 0.10524 0.33942 0.0
H5110 H 0.89516 0.13104 0.32661 0.0
H5111 H 0.87036 0.10836 0.32241 0.0
H5112 H 0.87998 0.1836 0.29652 0.0
H5113 H 0.82018 0.1297 0.28435 0.0
H5114 H 0.91802 0.15065 0.27077 0.0
H5115 H 0.9196 0.15444 0.30216 0.0
H5116 H 0.91588 0.1777 0.28605 0.0
H5117 H 0.84599 0.08685 0.25572 0.0
H5118 H 0.82097 0.09232 0.26803 0.0
H5119 H 0.84426 0.08558 0.28636 0.0
C5120 C 0.70347 0.09694 0.05401 0.0
C5121 C 0.70911 0.11974 0.05025 0.0
C5122 C 0.68071 0.08591 0.05315 0.0
C5123 C 0.66354 0.09865 0.05029 0.0
C5124 C 0.66925 0.12218 0.04864 0.0
C5125 C 0.69208 0.13242 0.04802 0.0
C5126 C 0.67507 0.06081 0.0556 0.0
C5127 C 0.65139 0.13654 0.04844 0.0
C5128 C 0.60511 0.06371 0.02702 0.0
C5129 C 0.59544 0.06185 0.04769 0.0
C5130 C 0.62673 0.07745 0.02746 0.0
C5131 C 0.63957 0.0873 0.04943 0.0
C5132 C 0.63005 0.08469 0.07056 0.0
C5133 C 0.60777 0.07237 0.06931 0.0
C5134 C 0.63624 0.08056 1.00464 0.0
C5135 C 0.64347 0.0933 0.09462 0.0
H5136 H 0.71686 0.08788 0.05821 0.0
H5137 H 0.69671 0.15045 0.04651 0.0
H5138 H 0.66532 0.05789 0.07065 0.0
H5139 H 0.66406 0.0513 0.03952 0.0
H5140 H 0.69062 0.05363 0.05841 0.0
H5141 H 0.65892 0.15491 0.04856 0.0
H5142 H 0.63844 0.13062 0.03265 0.0
H5143 H 0.6423 0.13456 0.06412 0.0
H5144 H 0.59628 0.05363 0.01083 0.0
H5145 H 0.60039 0.06998 0.08547 0.0
H5146 H 0.65277 0.07521 0.00547 0.0
H5147 H 0.63944 0.09885 1.00219 0.0
H5148 H 0.62459 0.07058 0.98916 0.0
H5149 H 0.65009 0.07908 0.10164 0.0
H5150 H 0.63222 0.09888 0.1071 0.0
H5151 H 0.65818 0.10758 0.09435 0.0
C5152 C 0.21061 0.48763 0.2429 0.0
C5153 C 0.22088 0.5044 0.26175 0.0
C5154 C 0.21565 0.46587 0.24169 0.0
C5155 C 0.23052 0.46088 0.26021 0.0
C5156 C 0.2419 0.47822 0.27851 0.0
C5157 C 0.23714 0.49977 0.27882 0.0
C5158 C 0.20437 0.44816 0.22119 0.0
C5159 C 0.25808 0.47384 0.29872 0.0
C5160 C 0.22569 0.40943 0.29 0.0
C5161 C 0.24785 0.40581 0.28908 0.0
C5162 C 0.21781 0.42535 0.27719 0.0
C5163 C 0.23236 0.43732 0.26286 0.0
C5164 C 0.2528 0.43054 0.25847 0.0
C5165 C 0.26064 0.41511 0.27207 0.0
C5166 C 0.19575 0.43204 0.28222 0.0
C5167 C 0.26808 0.44219 0.24225 0.0
H5168 H 0.19843 0.49135 0.22937 0.0
H5169 H 0.24542 0.51272 0.29331 0.0
H5170 H 0.21553 0.43616 0.21682 0.0
H5171 H 0.18825 0.43818 0.22574 0.0
H5172 H 0.20001 0.45623 0.20534 0.0
H5173 H 0.265 0.4893 0.31169 0.0
H5174 H 0.24915 0.46034 0.30814 0.0
H5175 H 0.27276 0.46793 0.29199 0.0
H5176 H 0.21537 0.40145 0.30237 0.0
H5177 H 0.2777 0.41218 0.27089 0.0
H5178 H 0.18592 0.43497 0.26586 0.0
H5179 H 0.19975 0.44821 0.29445 0.0
H5180 H 0.18482 0.41885 0.29049 0.0
H5181 H 0.25778 0.44643 0.22683 0.0
H5182 H 0.2797 0.43136 0.236 0.0
H5183 H 0.27878 0.45836 0.25181 0.0
C5184 C 0.25278 0.44164 0.03184 0.0
C5185 C 0.25324 0.4199 0.03852 0.0
C5186 C 0.2331 0.45047 0.03082 0.0
C5187 C 0.21298 0.43772 0.03738 0.0
C5188 C 0.2134 0.41647 0.04575 0.0
C5189 C 0.23355 0.40761 0.04601 0.0
C5190 C 0.23377 0.4732 0.02166 0.0
C5191 C 0.19244 0.40288 0.05375 0.0
C5192 C 0.17395 0.47897 0.0423 0.0
C5193 C 0.16393 0.47639 0.01884 0.0
C5194 C 0.18785 0.46425 0.04982 0.0
C5195 C 0.19163 0.44658 0.03345 0.0
C5196 C 0.17915 0.44232 0.01056 0.0
C5197 C 0.16562 0.45745 1.00346 0.0
C5198 C 0.20066 0.46944 0.07439 0.0
C5199 C 0.18242 0.42365 0.99253 0.0
H5200 H 0.26785 0.4519 0.02658 0.0
H5201 H 0.23369 0.39102 0.05153 0.0
H5202 H 0.22123 0.47106 0.00557 0.0
H5203 H 0.22903 0.48546 0.03496 0.0
H5204 H 0.25091 0.48088 0.01725 0.0
H5205 H 0.19663 0.38929 0.06395 0.0
H5206 H 0.18409 0.41414 0.06474 0.0
H5207 H 0.17989 0.39476 0.03818 0.0
H5208 H 0.17245 0.49356 0.05425 0.0
H5209 H 0.15747 0.45527 0.9854 0.0
H5210 H 0.21781 0.48026 0.07401 0.0
H5211 H 0.20315 0.4536 0.08149 0.0
H5212 H 0.19156 0.47887 0.0865 0.0
H5213 H 0.1988 0.42925 0.9855 0.0
H5214 H 0.16837 0.41959 0.97757 0.0
H5215 H 0.18335 0.40791 1.00056 0.0
C5216 C 0.90696 0.93536 0.28203 0.0
C5217 C 0.90032 0.95346 0.27175 0.0
C5218 C 0.89123 0.91455 0.28197 0.0
C5219 C 0.8686 0.9111 0.27009 0.0
C5220 C 0.86205 0.92928 0.25918 0.0
C5221 C 0.87779 0.95027 0.26058 0.0
C5222 C 0.89869 0.89642 0.29517 0.0
C5223 C 0.83833 0.92698 0.24629 0.0
C5224 C 0.83667 0.84855 0.25404 0.0
C5225 C 0.82173 0.8461 0.27118 0.0
C5226 C 0.85138 0.86972 0.25288 0.0
C5227 C 0.85178 0.88876 0.26973 0.0
C5228 C 0.83633 0.88621 0.28664 0.0
C5229 C 0.82147 0.86519 0.28705 0.0
C5230 C 0.86645 0.87174 0.23363 0.0
C5231 C 0.83614 0.90544 0.30509 0.0
H5232 H 0.92429 0.93778 0.29083 0.0
H5233 H 0.87254 0.96414 0.25246 0.0
H5234 H 0.8868 0.89159 0.30812 0.0
H5235 H 0.89802 0.88089 0.28278 0.0
H5236 H 0.91632 0.90216 0.30467 0.0
H5237 H 0.83849 0.93828 0.23227 0.0
H5238 H 0.83076 0.90921 0.23822 0.0
H5239 H 0.82705 0.93225 0.25887 0.0
H5240 H 0.83691 0.8339 0.24155 0.0
H5241 H 0.81029 0.86351 0.3006 0.0
H5242 H 0.88469 0.87529 0.24137 0.0
H5243 H 0.86389 0.88628 0.2241 0.0
H5244 H 0.86288 0.85599 0.2208 0.0
H5245 H 0.85232 0.9086 0.31722 0.0
H5246 H 0.82155 0.90184 0.3154 0.0
H5247 H 0.83525 0.92083 0.29658 0.0
C5248 C 0.72863 0.12647 0.75857 0.0
C5249 C 0.70966 0.11985 0.77016 0.0
C5250 C 0.7389 0.14944 0.75974 0.0
C5251 C 0.73044 0.16579 0.77371 0.0
C5252 C 0.71167 0.15902 0.78602 0.0
C5253 C 0.70096 0.13598 0.78348 0.0
C5254 C 0.75869 0.15611 0.74598 0.0
C5255 C 0.70298 0.1761 0.80172 0.0
C5256 C 0.7737 0.22073 0.79021 0.0
C5257 C 0.76705 0.2329 0.77258 0.0
C5258 C 0.76097 0.19919 0.79168 0.0
C5259 C 0.7413 0.18999 0.77519 0.0
C5260 C 0.73379 0.20308 0.75821 0.0
C5261 C 0.74712 0.22448 0.75692 0.0
C5262 C 0.76967 0.18556 0.80946 0.0
C5263 C 0.71303 0.19376 0.74013 0.0
H5264 H 0.73494 0.11371 0.74799 0.0
H5265 H 0.68614 0.13049 0.79225 0.0
H5266 H 0.7562 0.1703 0.7359 0.0
H5267 H 0.77477 0.16211 0.7583 0.0
H5268 H 0.76086 0.14163 0.73347 0.0
H5269 H 0.68865 0.16787 0.81063 0.0
H5270 H 0.71704 0.18563 0.81533 0.0
H5271 H 0.69709 0.18872 0.79122 0.0
H5272 H 0.78963 0.22741 0.80179 0.0
H5273 H 0.74272 0.23407 0.74294 0.0
H5274 H 0.77346 0.1702 0.79989 0.0
H5275 H 0.75619 0.18021 0.82057 0.0
H5276 H 0.78542 0.19509 0.82094 0.0
H5277 H 0.71704 0.18074 0.72709 0.0
H5278 H 0.70771 0.20732 0.7306 0.0
H5279 H 0.69844 0.18532 0.74853 0.0
loop_
_geom_bond_atom_site_label_1
_geom_bond_atom_site_label_2
_geom_bond_distance
_geom_bond_site_symmetry_2
_ccdc_geom_bond_type
Mn0 O5 2.095 . S
Mn0 O15 2.162 . S
Mn0 O16 2.297 . S
Mn0 O24 2.365 1_455 S
Mn0 O25 2.209 . S
Mn0 O26 2.094 . S
Mn1 O6 2.121 . S
Mn1 N8 2.257 . S
Mn1 N17 2.282 . S
Mn1 O25 2.215 . S
Mn1 O27 2.117 . S
C2 O24 1.230 1_455 S
C2 O25 1.283 . S
C3 O15 1.281 . S
C3 O16 1.236 . S
C4 O26 1.240 . S
C4 O27 1.264 . S
O5 Mn0 2.095 . S
O5 C14 1.250 . S
O6 Mn1 2.121 . S
O6 C14 1.258 . S
C7 N8 1.326 . S
C7 C11 1.460 . S
C7 H13 0.929 . S
N8 Mn1 2.257 . S
N8 C7 1.326 . S
N8 C12 1.362 . S
C9 C10 1.258 1_655 S
C9 C12 1.431 1_655 S
C9 C29 1.449 . S
C10 C9 1.258 1_455 S
C10 C11 1.477 . S
C10 H30 0.930 1_455 S
C11 C7 1.460 . S
C11 C10 1.477 . S
C11 H31 0.930 . S
C12 N8 1.362 . S
C12 C9 1.431 1_455 S
C12 C22 1.476 1_455 S
H13 C7 0.929 . S
C14 O5 1.250 . S
C14 O6 1.258 . S
O15 Mn0 2.162 . S
O15 C3 1.281 . S
O16 Mn0 2.297 . S
O16 C3 1.236 . S
N17 Mn1 2.282 . S
N17 C18 1.328 1_455 S
N17 C22 1.318 1_455 S
C18 N17 1.328 1_655 S
C18 C19 1.457 . S
C18 H23 0.929 1_655 S
C19 C18 1.457 . S
C19 C20 1.291 . S
C19 H32 0.931 . S
C20 C19 1.291 . S
C20 C21 1.373 . S
C20 H33 0.929 . S
C21 C20 1.373 . S
C21 C22 1.396 . S
C21 C28 1.403 . S
C22 C12 1.476 1_655 S
C22 N17 1.318 1_655 S
C22 C21 1.396 . S
H23 C18 0.929 1_455 S
O24 Mn0 2.365 1_655 S
O24 C2 1.230 1_655 S
O25 Mn0 2.209 . S
O25 Mn1 2.215 . S
O25 C2 1.283 . S
O26 Mn0 2.094 . S
O26 C4 1.240 . S
O27 Mn1 2.117 . S
O27 C4 1.264 . S
C28 C21 1.403 . S
C28 C29 1.399 . S
C28 H34 0.929 . S
C29 C9 1.449 . S
C29 C28 1.399 . S
C29 H35 0.930 . S
H30 C10 0.930 1_655 S
H31 C11 0.930 . S
H32 C19 0.931 . S
H33 C20 0.929 . S
H34 C28 0.929 . S
H35 C29 0.930 . S
Mn36 O41 2.095 1_455 S
Mn36 O51 2.162 . S
Mn36 O52 2.297 . S
Mn36 O60 2.385 . S
Mn36 O61 2.209 . S
Mn36 O62 2.094 . S
Mn37 O42 2.121 1_455 S
Mn37 N44 2.257 . S
Mn37 N53 2.282 . S
Mn37 O61 2.215 . S
Mn37 O63 2.117 . S
C38 O60 1.234 . S
C38 O61 1.283 . S
C39 O51 1.281 . S
C39 O52 1.236 . S
C40 O62 1.240 . S
C40 O63 1.264 . S
O41 Mn36 2.095 1_655 S
O41 C50 1.250 . S
O42 Mn37 2.121 1_655 S
O42 C50 1.258 . S
C43 N44 1.326 . S
C43 C47 1.460 . S
C43 H49 0.929 . S
N44 Mn37 2.257 . S
N44 C43 1.326 . S
N44 C48 1.362 . S
C45 C46 1.258 . S
C45 C48 1.431 . S
C45 C65 1.449 . S
C46 C45 1.258 . S
C46 C47 1.477 . S
C46 H66 0.931 . S
C47 C43 1.460 . S
C47 C46 1.477 . S
C47 H67 0.930 . S
C48 N44 1.362 . S
C48 C45 1.431 . S
C48 C58 1.476 . S
H49 C43 0.929 . S
C50 O41 1.250 . S
C50 O42 1.258 . S
O51 Mn36 2.162 . S
O51 C39 1.281 . S
O52 Mn36 2.297 . S
O52 C39 1.236 . S
N53 Mn37 2.282 . S
N53 C54 1.328 . S
N53 C58 1.318 . S
C54 N53 1.328 . S
C54 C55 1.457 . S
C54 H59 0.929 . S
C55 C54 1.457 . S
C55 C56 1.291 . S
C55 H68 0.931 . S
C56 C55 1.291 . S
C56 C57 1.373 . S
C56 H69 0.929 . S
C57 C56 1.373 . S
C57 C58 1.396 . S
C57 C64 1.403 . S
C58 C48 1.476 . S
C58 N53 1.318 . S
C58 C57 1.396 . S
H59 C54 0.929 . S
O60 Mn36 2.385 . S
O60 C38 1.234 . S
O61 Mn36 2.209 . S
O61 Mn37 2.215 . S
O61 C38 1.283 . S
O62 Mn36 2.094 . S
O62 C40 1.240 . S
O63 Mn37 2.117 . S
O63 C40 1.264 . S
C64 C57 1.403 . S
C64 C65 1.399 . S
C64 H70 0.929 . S
C65 C45 1.449 . S
C65 C64 1.399 . S
C65 H71 0.930 . S
H66 C46 0.931 . S
H67 C47 0.930 . S
H68 C55 0.931 . S
H69 C56 0.929 . S
H70 C64 0.929 . S
H71 C65 0.930 . S
Mn72 O77 2.095 . S
Mn72 O87 2.162 . S
Mn72 O88 2.297 . S
Mn72 O96 2.385 . S
Mn72 O97 2.209 . S
Mn72 O98 2.094 . S
Mn73 O78 2.121 . S
Mn73 N80 2.257 . S
Mn73 N89 2.282 . S
Mn73 O97 2.215 . S
Mn73 O99 2.117 . S
C74 O96 1.234 . S
C74 O97 1.283 . S
C75 O87 1.281 . S
C75 O88 1.236 . S
C76 O98 1.240 . S
C76 O99 1.264 . S
O77 Mn72 2.095 . S
O77 C86 1.250 . S
O78 Mn73 2.121 . S
O78 C86 1.258 . S
C79 N80 1.326 . S
C79 C83 1.460 . S
C79 H85 0.929 . S
N80 Mn73 2.257 . S
N80 C79 1.326 . S
N80 C84 1.362 . S
C81 C82 1.258 . S
C81 C84 1.431 . S
C81 C101 1.449 . S
C82 C81 1.258 . S
C82 C83 1.477 . S
C82 H102 0.931 . S
C83 C79 1.460 . S
C83 C82 1.477 . S
C83 H103 0.930 . S
C84 N80 1.362 . S
C84 C81 1.431 . S
C84 C94 1.476 . S
H85 C79 0.929 . S
C86 O77 1.250 . S
C86 O78 1.258 . S
O87 Mn72 2.162 . S
O87 C75 1.281 . S
O88 Mn72 2.297 . S
O88 C75 1.236 . S
N89 Mn73 2.282 . S
N89 C90 1.328 . S
N89 C94 1.318 . S
C90 N89 1.328 . S
C90 C91 1.457 . S
C90 H95 0.929 . S
C91 C90 1.457 . S
C91 C92 1.291 . S
C91 H104 0.931 . S
C92 C91 1.291 . S
C92 C93 1.373 . S
C92 H105 0.929 . S
C93 C92 1.373 . S
C93 C94 1.396 . S
C93 C100 1.403 . S
C94 C84 1.476 . S
C94 N89 1.318 . S
C94 C93 1.396 . S
H95 C90 0.929 . S
O96 Mn72 2.385 . S
O96 C74 1.234 . S
O97 Mn72 2.209 . S
O97 Mn73 2.215 . S
O97 C74 1.283 . S
O98 Mn72 2.094 . S
O98 C76 1.240 . S
O99 Mn73 2.117 . S
O99 C76 1.264 . S
C100 C93 1.403 . S
C100 C101 1.399 . S
C100 H106 0.929 . S
C101 C81 1.449 . S
C101 C100 1.399 . S
C101 H107 0.930 . S
H102 C82 0.931 . S
H103 C83 0.930 . S
H104 C91 0.931 . S
H105 C92 0.929 . S
H106 C100 0.929 . S
H107 C101 0.930 . S
Mn108 O113 2.095 . S
Mn108 O123 2.162 . S
Mn108 O124 2.297 . S
Mn108 O132 2.385 . S
Mn108 O133 2.209 . S
Mn108 O134 2.094 . S
Mn109 O114 2.121 . S
Mn109 N116 2.257 . S
Mn109 N125 2.282 . S
Mn109 O133 2.215 . S
Mn109 O135 2.117 . S
C110 O132 1.234 . S
C110 O133 1.283 . S
C111 O123 1.281 . S
C111 O124 1.236 . S
C112 O134 1.240 . S
C112 O135 1.264 . S
O113 Mn108 2.095 . S
O113 C122 1.250 . S
O114 Mn109 2.121 . S
O114 C122 1.258 . S
C115 N116 1.326 . S
C115 C119 1.460 . S
C115 H121 0.929 . S
N116 Mn109 2.257 . S
N116 C115 1.326 . S
N116 C120 1.362 . S
C117 C118 1.258 . S
C117 C120 1.431 . S
C117 C137 1.449 . S
C118 C117 1.258 . S
C118 C119 1.477 . S
C118 H138 0.931 . S
C119 C115 1.460 . S
C119 C118 1.477 . S
C119 H139 0.930 . S
C120 N116 1.362 . S
C120 C117 1.431 . S
C120 C130 1.476 . S
H121 C115 0.929 . S
C122 O113 1.250 . S
C122 O114 1.258 . S
O123 Mn108 2.162 . S
O123 C111 1.281 . S
O124 Mn108 2.297 . S
O124 C111 1.236 . S
N125 Mn109 2.282 . S
N125 C126 1.328 . S
N125 C130 1.318 . S
C126 N125 1.328 . S
C126 C127 1.457 . S
C126 H131 0.929 . S
C127 C126 1.457 . S
C127 C128 1.291 . S
C127 H140 0.931 . S
C128 C127 1.291 . S
C128 C129 1.373 . S
C128 H141 0.929 . S
C129 C128 1.373 . S
C129 C130 1.396 . S
C129 C136 1.403 . S
C130 C120 1.476 . S
C130 N125 1.318 . S
C130 C129 1.396 . S
H131 C126 0.929 . S
O132 Mn108 2.385 . S
O132 C110 1.234 . S
O133 Mn108 2.209 . S
O133 Mn109 2.215 . S
O133 C110 1.283 . S
O134 Mn108 2.094 . S
O134 C112 1.240 . S
O135 Mn109 2.117 . S
O135 C112 1.264 . S
C136 C129 1.403 . S
C136 C137 1.399 . S
C136 H142 0.929 . S
C137 C117 1.449 . S
C137 C136 1.399 . S
C137 H143 0.930 . S
H138 C118 0.931 . S
H139 C119 0.930 . S
H140 C127 0.931 . S
H141 C128 0.929 . S
H142 C136 0.929 . S
H143 C137 0.930 . S
Mn144 O149 2.095 . S
Mn144 O159 2.162 . S
Mn144 O160 2.297 . S
Mn144 O168 2.385 . S
Mn144 O169 2.209 . S
Mn144 O170 2.094 . S
Mn145 O150 2.121 . S
Mn145 N152 2.257 . S
Mn145 N161 2.296 . S
Mn145 O169 2.215 . S
Mn145 O171 2.117 . S
C146 O168 1.234 . S
C146 O169 1.283 . S
C147 O159 1.281 . S
C147 O160 1.236 . S
C148 O170 1.240 . S
C148 O171 1.264 . S
O149 Mn144 2.095 . S
O149 C158 1.250 . S
O150 Mn145 2.121 . S
O150 C158 1.258 . S
C151 N152 1.326 . S
C151 C155 1.460 1_554 S
C151 H157 0.929 . S
N152 Mn145 2.257 . S
N152 C151 1.326 . S
N152 C156 1.362 . S
C153 C154 1.258 1_554 S
C153 C156 1.431 . S
C153 C173 1.449 1_454 S
C154 C153 1.258 1_556 S
C154 C155 1.477 . S
C154 H174 0.931 . S
C155 C151 1.460 1_556 S
C155 C154 1.477 . S
C155 H175 0.930 . S
C156 N152 1.362 . S
C156 C153 1.431 . S
C156 C166 1.476 1_455 S
H157 C151 0.929 . S
C158 O149 1.250 . S
C158 O150 1.258 . S
O159 Mn144 2.162 . S
O159 C147 1.281 . S
O160 Mn144 2.297 . S
O160 C147 1.236 . S
N161 Mn145 2.296 . S
N161 C162 1.312 1_455 S
N161 C166 1.324 1_455 S
C162 N161 1.312 1_655 S
C162 C163 1.457 . S
C162 H167 0.929 . S
C163 C162 1.457 . S
C163 C164 1.291 . S
C163 H176 0.931 . S
C164 C163 1.291 . S
C164 C165 1.373 . S
C164 H177 0.929 . S
C165 C164 1.373 . S
C165 C166 1.396 . S
C165 C172 1.403 . S
C166 C156 1.476 1_655 S
C166 N161 1.324 1_655 S
C166 C165 1.396 . S
H167 C162 0.929 . S
O168 Mn144 2.385 . S
O168 C146 1.234 . S
O169 Mn144 2.209 . S
O169 Mn145 2.215 . S
O169 C146 1.283 . S
O170 Mn144 2.094 . S
O170 C148 1.240 . S
O171 Mn145 2.117 . S
O171 C148 1.264 . S
C172 C165 1.403 . S
C172 C173 1.399 1_554 S
C172 H178 0.929 . S
C173 C153 1.449 1_656 S
C173 C172 1.399 1_556 S
C173 H179 0.930 . S
H174 C154 0.931 . S
H175 C155 0.930 . S
H176 C163 0.931 . S
H177 C164 0.929 . S
H178 C172 0.929 . S
H179 C173 0.930 . S
Mn180 O185 2.095 . S
Mn180 O195 2.162 . S
Mn180 O196 2.297 . S
Mn180 O204 2.385 . S
Mn180 O205 2.209 . S
Mn180 O206 2.094 . S
Mn181 O186 2.121 . S
Mn181 N188 2.257 . S
Mn181 N197 2.282 . S
Mn181 O205 2.215 . S
Mn181 O207 2.117 . S
C182 O204 1.234 . S
C182 O205 1.283 . S
C183 O195 1.281 . S
C183 O196 1.236 . S
C184 O206 1.240 . S
C184 O207 1.264 . S
O185 Mn180 2.095 . S
O185 C194 1.250 . S
O186 Mn181 2.121 . S
O186 C194 1.258 . S
C187 N188 1.326 . S
C187 C191 1.460 . S
C187 H193 0.929 . S
N188 Mn181 2.257 . S
N188 C187 1.326 . S
N188 C192 1.362 . S
C189 C190 1.258 . S
C189 C192 1.431 . S
C189 C209 1.449 . S
C190 C189 1.258 . S
C190 C191 1.477 . S
C190 H210 0.931 . S
C191 C187 1.460 . S
C191 C190 1.477 . S
C191 H211 0.930 . S
C192 N188 1.362 . S
C192 C189 1.431 . S
C192 C202 1.476 . S
H193 C187 0.929 . S
C194 O185 1.250 . S
C194 O186 1.258 . S
O195 Mn180 2.162 . S
O195 C183 1.281 . S
O196 Mn180 2.297 . S
O196 C183 1.236 . S
N197 Mn181 2.282 . S
N197 C198 1.328 . S
N197 C202 1.318 . S
C198 N197 1.328 . S
C198 C199 1.457 . S
C198 H203 0.929 . S
C199 C198 1.457 . S
C199 C200 1.291 . S
C199 H212 0.931 . S
C200 C199 1.291 . S
C200 C201 1.373 . S
C200 H213 0.929 . S
C201 C200 1.373 . S
C201 C202 1.396 . S
C201 C208 1.403 . S
C202 C192 1.476 . S
C202 N197 1.318 . S
C202 C201 1.396 . S
H203 C198 0.929 . S
O204 Mn180 2.385 . S
O204 C182 1.234 . S
O205 Mn180 2.209 . S
O205 Mn181 2.215 . S
O205 C182 1.283 . S
O206 Mn180 2.094 . S
O206 C184 1.240 . S
O207 Mn181 2.117 . S
O207 C184 1.264 . S
C208 C201 1.403 . S
C208 C209 1.399 . S
C208 H214 0.929 . S
C209 C189 1.449 . S
C209 C208 1.399 . S
C209 H215 0.930 . S
H210 C190 0.931 . S
H211 C191 0.930 . S
H212 C199 0.931 . S
H213 C200 0.929 . S
H214 C208 0.929 . S
H215 C209 0.930 . S
Mn216 O221 2.095 . S
Mn216 O231 2.162 . S
Mn216 O232 2.297 . S
Mn216 O240 2.385 . S
Mn216 O241 2.209 . S
Mn216 O242 2.094 . S
Mn217 O222 2.121 . S
Mn217 N224 2.257 . S
Mn217 N233 2.282 . S
Mn217 O241 2.215 . S
Mn217 O243 2.117 . S
C218 O240 1.234 . S
C218 O241 1.283 . S
C219 O231 1.281 . S
C219 O232 1.236 . S
C220 O242 1.240 . S
C220 O243 1.264 . S
O221 Mn216 2.095 . S
O221 C230 1.250 . S
O222 Mn217 2.121 . S
O222 C230 1.258 . S
C223 N224 1.326 . S
C223 C227 1.460 . S
C223 H229 0.929 . S
N224 Mn217 2.257 . S
N224 C223 1.326 . S
N224 C228 1.362 . S
C225 C226 1.258 . S
C225 C228 1.431 . S
C225 C245 1.449 . S
C226 C225 1.258 . S
C226 C227 1.477 . S
C226 H246 0.931 . S
C227 C223 1.460 . S
C227 C226 1.477 . S
C227 H247 0.930 . S
C228 N224 1.362 . S
C228 C225 1.431 . S
C228 C238 1.476 . S
H229 C223 0.929 . S
C230 O221 1.250 . S
C230 O222 1.258 . S
O231 Mn216 2.162 . S
O231 C219 1.281 . S
O232 Mn216 2.297 . S
O232 C219 1.236 . S
N233 Mn217 2.282 . S
N233 C234 1.328 . S
N233 C238 1.318 . S
C234 N233 1.328 . S
C234 C235 1.457 . S
C234 H239 0.929 . S
C235 C234 1.457 . S
C235 C236 1.291 . S
C235 H248 0.931 . S
C236 C235 1.291 . S
C236 C237 1.373 . S
C236 H249 0.929 . S
C237 C236 1.373 . S
C237 C238 1.396 . S
C237 C244 1.403 . S
C238 C228 1.476 . S
C238 N233 1.318 . S
C238 C237 1.396 . S
H239 C234 0.929 . S
O240 Mn216 2.385 . S
O240 C218 1.234 . S
O241 Mn216 2.209 . S
O241 Mn217 2.215 . S
O241 C218 1.283 . S
O242 Mn216 2.094 . S
O242 C220 1.240 . S
O243 Mn217 2.117 . S
O243 C220 1.264 . S
C244 C237 1.403 . S
C244 C245 1.399 . S
C244 H250 0.929 . S
C245 C225 1.449 . S
C245 C244 1.399 . S
C245 H251 0.930 . S
H246 C226 0.931 . S
H247 C227 0.930 . S
H248 C235 0.931 . S
H249 C236 0.929 . S
H250 C244 0.929 . S
H251 C245 0.930 . S
Mn252 O257 2.072 1_655 S
Mn252 O267 2.159 1_655 S
Mn252 O268 2.294 . S
Mn252 O276 2.410 . S
Mn252 O277 2.219 . S
Mn252 O278 2.097 1_655 S
Mn253 O258 2.121 1_655 S
Mn253 N260 2.257 . S
Mn253 N269 2.282 . S
Mn253 O277 2.215 . S
Mn253 O279 2.117 1_655 S
C254 O276 1.234 . S
C254 O277 1.283 . S
C255 O267 1.281 1_655 S
C255 O268 1.236 . S
C256 O278 1.240 . S
C256 O279 1.264 . S
O257 Mn252 2.072 1_455 S
O257 C266 1.250 . S
O258 Mn253 2.121 1_455 S
O258 C266 1.258 . S
C259 N260 1.326 . S
C259 C263 1.460 . S
C259 H265 0.929 1_655 S
N260 Mn253 2.257 . S
N260 C259 1.326 . S
N260 C264 1.362 . S
C261 C262 1.258 . S
C261 C264 1.431 . S
C261 C281 1.449 . S
C262 C261 1.258 . S
C262 C263 1.477 . S
C262 H282 0.931 . S
C263 C259 1.460 . S
C263 C262 1.477 . S
C263 H283 0.930 . S
C264 N260 1.362 . S
C264 C261 1.431 . S
C264 C274 1.476 . S
H265 C259 0.929 1_455 S
C266 O257 1.250 . S
C266 O258 1.258 . S
O267 Mn252 2.159 1_455 S
O267 C255 1.281 1_455 S
O268 Mn252 2.294 . S
O268 C255 1.236 . S
N269 Mn253 2.282 . S
N269 C270 1.328 . S
N269 C274 1.318 . S
C270 N269 1.328 . S
C270 C271 1.457 . S
C270 H275 0.929 . S
C271 C270 1.457 . S
C271 C272 1.291 . S
C271 H284 0.931 . S
C272 C271 1.291 . S
C272 C273 1.373 . S
C272 H285 0.929 . S
C273 C272 1.373 . S
C273 C274 1.396 . S
C273 C280 1.403 . S
C274 C264 1.476 . S
C274 N269 1.318 . S
C274 C273 1.396 . S
H275 C270 0.929 . S
O276 Mn252 2.410 . S
O276 C254 1.234 . S
O277 Mn252 2.219 . S
O277 Mn253 2.215 . S
O277 C254 1.283 . S
O278 Mn252 2.097 1_455 S
O278 C256 1.240 . S
O279 Mn253 2.117 1_455 S
O279 C256 1.264 . S
C280 C273 1.403 . S
C280 C281 1.399 . S
C280 H286 0.929 . S
C281 C261 1.449 . S
C281 C280 1.399 . S
C281 H287 0.930 . S
H282 C262 0.931 . S
H283 C263 0.930 . S
H284 C271 0.931 . S
H285 C272 0.929 . S
H286 C280 0.929 . S
H287 C281 0.930 . S
Mn288 O293 2.095 . S
Mn288 O303 2.162 . S
Mn288 O304 2.297 . S
Mn288 O312 2.385 1_545 S
Mn288 O313 2.209 1_545 S
Mn288 O314 2.094 . S
Mn289 O294 2.121 . S
Mn289 N296 2.257 1_545 S
Mn289 N305 2.282 1_545 S
Mn289 O313 2.215 1_545 S
Mn289 O315 2.117 . S
C290 O312 1.234 . S
C290 O313 1.283 . S
C291 O303 1.281 . S
C291 O304 1.236 . S
C292 O314 1.240 . S
C292 O315 1.264 . S
O293 Mn288 2.095 . S
O293 C302 1.250 . S
O294 Mn289 2.121 . S
O294 C302 1.258 . S
C295 N296 1.326 . S
C295 C299 1.460 . S
C295 H301 0.929 1_565 S
N296 Mn289 2.257 1_565 S
N296 C295 1.326 . S
N296 C300 1.362 . S
C297 C298 1.258 . S
C297 C300 1.431 . S
C297 C317 1.449 . S
C298 C297 1.258 . S
C298 C299 1.477 . S
C298 H318 0.931 . S
C299 C295 1.460 . S
C299 C298 1.477 . S
C299 H319 0.930 . S
C300 N296 1.362 . S
C300 C297 1.431 . S
C300 C310 1.476 . S
H301 C295 0.929 1_545 S
C302 O293 1.250 . S
C302 O294 1.258 . S
O303 Mn288 2.162 . S
O303 C291 1.281 . S
O304 Mn288 2.297 . S
O304 C291 1.236 . S
N305 Mn289 2.282 1_565 S
N305 C306 1.328 . S
N305 C310 1.318 . S
C306 N305 1.328 . S
C306 C307 1.457 . S
C306 H311 0.929 . S
C307 C306 1.457 . S
C307 C308 1.291 . S
C307 H320 0.931 . S
C308 C307 1.291 . S
C308 C309 1.373 . S
C308 H321 0.929 . S
C309 C308 1.373 . S
C309 C310 1.396 . S
C309 C316 1.403 . S
C310 C300 1.476 . S
C310 N305 1.318 . S
C310 C309 1.396 . S
H311 C306 0.929 . S
O312 Mn288 2.385 1_565 S
O312 C290 1.234 . S
O313 Mn288 2.209 1_565 S
O313 Mn289 2.215 1_565 S
O313 C290 1.283 . S
O314 Mn288 2.094 . S
O314 C292 1.240 . S
O315 Mn289 2.117 . S
O315 C292 1.264 . S
C316 C309 1.403 . S
C316 C317 1.399 . S
C316 H322 0.929 . S
C317 C297 1.449 . S
C317 C316 1.399 . S
C317 H323 0.930 . S
H318 C298 0.931 . S
H319 C299 0.930 . S
H320 C307 0.931 . S
H321 C308 0.929 . S
H322 C316 0.929 . S
H323 C317 0.930 . S
Mn324 O329 2.095 . S
Mn324 O339 2.162 . S
Mn324 O340 2.297 . S
Mn324 O348 2.385 . S
Mn324 O349 2.209 . S
Mn324 O350 2.094 . S
Mn325 O330 2.121 . S
Mn325 N332 2.257 . S
Mn325 N341 2.282 . S
Mn325 O349 2.215 . S
Mn325 O351 2.117 . S
C326 O348 1.234 . S
C326 O349 1.283 . S
C327 O339 1.281 . S
C327 O340 1.236 . S
C328 O350 1.240 . S
C328 O351 1.264 . S
O329 Mn324 2.095 . S
O329 C338 1.250 . S
O330 Mn325 2.121 . S
O330 C338 1.258 . S
C331 N332 1.326 . S
C331 C335 1.460 . S
C331 H337 0.929 . S
N332 Mn325 2.257 . S
N332 C331 1.326 . S
N332 C336 1.362 . S
C333 C334 1.258 . S
C333 C336 1.431 . S
C333 C353 1.449 . S
C334 C333 1.258 . S
C334 C335 1.477 . S
C334 H354 0.931 . S
C335 C331 1.460 . S
C335 C334 1.477 . S
C335 H355 0.930 . S
C336 N332 1.362 . S
C336 C333 1.431 . S
C336 C346 1.476 . S
H337 C331 0.929 . S
C338 O329 1.250 . S
C338 O330 1.258 . S
O339 Mn324 2.162 . S
O339 C327 1.281 . S
O340 Mn324 2.297 . S
O340 C327 1.236 . S
N341 Mn325 2.282 . S
N341 C342 1.328 . S
N341 C346 1.318 . S
C342 N341 1.328 . S
C342 C343 1.457 . S
C342 H347 0.929 . S
C343 C342 1.457 . S
C343 C344 1.291 . S
C343 H356 0.931 . S
C344 C343 1.291 . S
C344 C345 1.373 . S
C344 H357 0.929 . S
C345 C344 1.373 . S
C345 C346 1.396 . S
C345 C352 1.403 . S
C346 C336 1.476 . S
C346 N341 1.318 . S
C346 C345 1.396 . S
H347 C342 0.929 . S
O348 Mn324 2.385 . S
O348 C326 1.234 . S
O349 Mn324 2.209 . S
O349 Mn325 2.215 . S
O349 C326 1.283 . S
O350 Mn324 2.094 . S
O350 C328 1.240 . S
O351 Mn325 2.117 . S
O351 C328 1.264 . S
C352 C345 1.403 . S
C352 C353 1.399 . S
C352 H358 0.929 . S
C353 C333 1.449 . S
C353 C352 1.399 . S
C353 H359 0.930 . S
H354 C334 0.931 . S
H355 C335 0.930 . S
H356 C343 0.931 . S
H357 C344 0.929 . S
H358 C352 0.929 . S
H359 C353 0.930 . S
Mn360 O365 2.095 . S
Mn360 O375 2.162 . S
Mn360 O376 2.297 . S
Mn360 O384 2.385 . S
Mn360 O385 2.209 . S
Mn360 O386 2.094 . S
Mn361 O366 2.121 . S
Mn361 N368 2.257 . S
Mn361 N377 2.282 . S
Mn361 O385 2.215 . S
Mn361 O387 2.117 . S
C362 O384 1.234 . S
C362 O385 1.283 . S
C363 O375 1.281 . S
C363 O376 1.236 . S
C364 O386 1.240 . S
C364 O387 1.264 . S
O365 Mn360 2.095 . S
O365 C374 1.250 . S
O366 Mn361 2.121 . S
O366 C374 1.258 . S
C367 N368 1.326 . S
C367 C371 1.460 . S
C367 H373 0.929 . S
N368 Mn361 2.257 . S
N368 C367 1.326 . S
N368 C372 1.362 . S
C369 C370 1.258 . S
C369 C372 1.431 . S
C369 C389 1.449 . S
C370 C369 1.258 . S
C370 C371 1.477 . S
C370 H390 0.931 . S
C371 C367 1.460 . S
C371 C370 1.477 . S
C371 H391 0.930 . S
C372 N368 1.362 . S
C372 C369 1.431 . S
C372 C382 1.476 . S
H373 C367 0.929 . S
C374 O365 1.250 . S
C374 O366 1.258 . S
O375 Mn360 2.162 . S
O375 C363 1.281 . S
O376 Mn360 2.297 . S
O376 C363 1.236 . S
N377 Mn361 2.282 . S
N377 C378 1.328 . S
N377 C382 1.318 . S
C378 N377 1.328 . S
C378 C379 1.457 . S
C378 H383 0.929 . S
C379 C378 1.457 . S
C379 C380 1.291 . S
C379 H392 0.931 . S
C380 C379 1.291 . S
C380 C381 1.373 . S
C380 H393 0.929 . S
C381 C380 1.373 . S
C381 C382 1.396 . S
C381 C388 1.403 . S
C382 C372 1.476 . S
C382 N377 1.318 . S
C382 C381 1.396 . S
H383 C378 0.929 . S
O384 Mn360 2.385 . S
O384 C362 1.234 . S
O385 Mn360 2.209 . S
O385 Mn361 2.215 . S
O385 C362 1.283 . S
O386 Mn360 2.094 . S
O386 C364 1.240 . S
O387 Mn361 2.117 . S
O387 C364 1.264 . S
C388 C381 1.403 . S
C388 C389 1.399 . S
C388 H394 0.929 . S
C389 C369 1.449 . S
C389 C388 1.399 . S
C389 H395 0.930 . S
H390 C370 0.931 . S
H391 C371 0.930 . S
H392 C379 0.931 . S
H393 C380 0.929 . S
H394 C388 0.929 . S
H395 C389 0.930 . S
Mn396 O401 2.095 1_554 S
Mn396 O411 2.162 . S
Mn396 O412 2.297 . S
Mn396 O420 2.385 . S
Mn396 O421 2.207 1_554 S
Mn396 O422 2.094 1_554 S
Mn397 O402 2.121 . S
Mn397 N404 2.274 . S
Mn397 N413 2.282 . S
Mn397 O421 2.221 . S
Mn397 O423 2.117 . S
C398 O420 1.234 . S
C398 O421 1.282 1_554 S
C399 O411 1.281 . S
C399 O412 1.236 . S
C400 O422 1.240 . S
C400 O423 1.264 . S
O401 Mn396 2.095 1_556 S
O401 C410 1.250 . S
O402 Mn397 2.121 . S
O402 C410 1.258 . S
C403 N404 1.313 1_545 S
C403 C407 1.460 . S
C403 H409 0.929 . S
N404 Mn397 2.274 . S
N404 C403 1.313 1_565 S
N404 C408 1.359 1_565 S
C405 C406 1.258 . S
C405 C408 1.431 . S
C405 C425 1.449 . S
C406 C405 1.258 . S
C406 C407 1.477 . S
C406 H426 0.931 . S
C407 C403 1.460 . S
C407 C406 1.477 . S
C407 H427 0.930 . S
C408 N404 1.359 1_545 S
C408 C405 1.431 . S
C408 C418 1.476 1_545 S
H409 C403 0.929 . S
C410 O401 1.250 . S
C410 O402 1.258 . S
O411 Mn396 2.162 . S
O411 C399 1.281 . S
O412 Mn396 2.297 . S
O412 C399 1.236 . S
N413 Mn397 2.282 . S
N413 C414 1.328 . S
N413 C418 1.318 . S
C414 N413 1.328 . S
C414 C415 1.457 . S
C414 H419 0.929 . S
C415 C414 1.457 . S
C415 C416 1.291 . S
C415 H428 0.931 . S
C416 C415 1.291 . S
C416 C417 1.373 . S
C416 H429 0.929 . S
C417 C416 1.373 . S
C417 C418 1.396 . S
C417 C424 1.403 1_565 S
C418 C408 1.476 1_565 S
C418 N413 1.318 . S
C418 C417 1.396 . S
H419 C414 0.929 . S
O420 Mn396 2.385 . S
O420 C398 1.234 . S
O421 Mn396 2.207 1_556 S
O421 Mn397 2.221 . S
O421 C398 1.282 1_556 S
O422 Mn396 2.094 1_556 S
O422 C400 1.240 . S
O423 Mn397 2.117 . S
O423 C400 1.264 . S
C424 C417 1.403 1_545 S
C424 C425 1.399 . S
C424 H430 0.929 . S
C425 C405 1.449 . S
C425 C424 1.399 . S
C425 H431 0.930 . S
H426 C406 0.931 . S
H427 C407 0.930 . S
H428 C415 0.931 . S
H429 C416 0.929 . S
H430 C424 0.929 . S
H431 C425 0.930 . S
Mn432 O437 2.095 . S
Mn432 O447 2.162 . S
Mn432 O448 2.297 . S
Mn432 O456 2.385 . S
Mn432 O457 2.209 . S
Mn432 O458 2.094 . S
Mn433 O438 2.121 . S
Mn433 N440 2.257 . S
Mn433 N449 2.282 1_554 S
Mn433 O457 2.215 . S
Mn433 O459 2.117 1_554 S
C434 O456 1.234 . S
C434 O457 1.283 . S
C435 O447 1.281 . S
C435 O448 1.236 . S
C436 O458 1.240 1_556 S
C436 O459 1.264 . S
O437 Mn432 2.095 . S
O437 C446 1.250 . S
O438 Mn433 2.121 . S
O438 C446 1.258 . S
C439 N440 1.326 . S
C439 C443 1.460 . S
C439 H445 0.929 . S
N440 Mn433 2.257 . S
N440 C439 1.326 . S
N440 C444 1.362 . S
C441 C442 1.258 . S
C441 C444 1.431 . S
C441 C461 1.449 . S
C442 C441 1.258 . S
C442 C443 1.477 . S
C442 H462 0.931 . S
C443 C439 1.460 . S
C443 C442 1.477 . S
C443 H463 0.930 . S
C444 N440 1.362 . S
C444 C441 1.431 . S
C444 C454 1.476 1_554 S
H445 C439 0.929 . S
C446 O437 1.250 . S
C446 O438 1.258 . S
O447 Mn432 2.162 . S
O447 C435 1.281 . S
O448 Mn432 2.297 . S
O448 C435 1.236 . S
N449 Mn433 2.282 1_556 S
N449 C450 1.328 . S
N449 C454 1.318 . S
C450 N449 1.328 . S
C450 C451 1.457 . S
C450 H455 0.929 . S
C451 C450 1.457 . S
C451 C452 1.291 . S
C451 H464 0.931 . S
C452 C451 1.291 . S
C452 C453 1.373 . S
C452 H465 0.929 . S
C453 C452 1.373 . S
C453 C454 1.396 . S
C453 C460 1.403 . S
C454 C444 1.476 1_556 S
C454 N449 1.318 . S
C454 C453 1.396 . S
H455 C450 0.929 . S
O456 Mn432 2.385 . S
O456 C434 1.234 . S
O457 Mn432 2.209 . S
O457 Mn433 2.215 . S
O457 C434 1.283 . S
O458 Mn432 2.094 . S
O458 C436 1.240 1_554 S
O459 Mn433 2.117 1_556 S
O459 C436 1.264 . S
C460 C453 1.403 . S
C460 C461 1.399 1_556 S
C460 H466 0.929 . S
C461 C441 1.449 . S
C461 C460 1.399 1_554 S
C461 H467 0.930 . S
H462 C442 0.931 . S
H463 C443 0.930 . S
H464 C451 0.931 . S
H465 C452 0.929 . S
H466 C460 0.929 . S
H467 C461 0.930 . S
Mn468 O473 2.095 . S
Mn468 O483 2.162 . S
Mn468 O484 2.297 . S
Mn468 O492 2.385 . S
Mn468 O493 2.209 . S
Mn468 O494 2.094 . S
Mn469 O474 2.121 . S
Mn469 N476 2.257 . S
Mn469 N485 2.282 1_554 S
Mn469 O493 2.215 . S
Mn469 O495 2.117 . S
C470 O492 1.234 . S
C470 O493 1.283 . S
C471 O483 1.281 . S
C471 O484 1.236 . S
C472 O494 1.240 . S
C472 O495 1.264 . S
O473 Mn468 2.095 . S
O473 C482 1.250 . S
O474 Mn469 2.121 . S
O474 C482 1.258 . S
C475 N476 1.326 . S
C475 C479 1.460 . S
C475 H481 0.929 . S
N476 Mn469 2.257 . S
N476 C475 1.326 . S
N476 C480 1.362 . S
C477 C478 1.258 . S
C477 C480 1.431 . S
C477 C497 1.449 1_554 S
C478 C477 1.258 . S
C478 C479 1.477 . S
C478 H498 0.931 1_545 S
C479 C475 1.460 . S
C479 C478 1.477 . S
C479 H499 0.930 . S
C480 N476 1.362 . S
C480 C477 1.431 . S
C480 C490 1.476 1_554 S
H481 C475 0.929 . S
C482 O473 1.250 . S
C482 O474 1.258 . S
O483 Mn468 2.162 . S
O483 C471 1.281 . S
O484 Mn468 2.297 . S
O484 C471 1.236 . S
N485 Mn469 2.282 1_556 S
N485 C486 1.328 . S
N485 C490 1.318 . S
C486 N485 1.328 . S
C486 C487 1.457 . S
C486 H491 0.929 . S
C487 C486 1.457 . S
C487 C488 1.291 . S
C487 H500 0.931 . S
C488 C487 1.291 . S
C488 C489 1.373 . S
C488 H501 0.929 . S
C489 C488 1.373 . S
C489 C490 1.396 . S
C489 C496 1.403 . S
C490 C480 1.476 1_556 S
C490 N485 1.318 . S
C490 C489 1.396 . S
H491 C486 0.929 . S
O492 Mn468 2.385 . S
O492 C470 1.234 . S
O493 Mn468 2.209 . S
O493 Mn469 2.215 . S
O493 C470 1.283 . S
O494 Mn468 2.094 . S
O494 C472 1.240 . S
O495 Mn469 2.117 . S
O495 C472 1.264 . S
C496 C489 1.403 . S
C496 C497 1.399 . S
C496 H502 0.929 . S
C497 C477 1.449 1_556 S
C497 C496 1.399 . S
C497 H503 0.930 . S
H498 C478 0.931 1_565 S
H499 C479 0.930 . S
H500 C487 0.931 . S
H501 C488 0.929 . S
H502 C496 0.929 . S
H503 C497 0.930 . S
Mn504 O509 2.095 . S
Mn504 O519 2.162 . S
Mn504 O520 2.297 . S
Mn504 O528 2.385 . S
Mn504 O529 2.209 . S
Mn504 O530 2.094 . S
Mn505 O510 2.121 . S
Mn505 N512 2.257 . S
Mn505 N521 2.282 . S
Mn505 O529 2.215 . S
Mn505 O531 2.117 . S
C506 O528 1.234 . S
C506 O529 1.283 . S
C507 O519 1.281 . S
C507 O520 1.236 . S
C508 O530 1.240 . S
C508 O531 1.264 . S
O509 Mn504 2.095 . S
O509 C518 1.250 . S
O510 Mn505 2.121 . S
O510 C518 1.258 . S
C511 N512 1.326 . S
C511 C515 1.460 . S
C511 H517 0.929 . S
N512 Mn505 2.257 . S
N512 C511 1.326 . S
N512 C516 1.362 . S
C513 C514 1.258 . S
C513 C516 1.431 . S
C513 C533 1.449 . S
C514 C513 1.258 . S
C514 C515 1.477 . S
C514 H534 0.931 . S
C515 C511 1.460 . S
C515 C514 1.477 . S
C515 H535 0.930 . S
C516 N512 1.362 . S
C516 C513 1.431 . S
C516 C526 1.476 . S
H517 C511 0.929 . S
C518 O509 1.250 . S
C518 O510 1.258 . S
O519 Mn504 2.162 . S
O519 C507 1.281 . S
O520 Mn504 2.297 . S
O520 C507 1.236 . S
N521 Mn505 2.282 . S
N521 C522 1.328 . S
N521 C526 1.318 . S
C522 N521 1.328 . S
C522 C523 1.457 . S
C522 H527 0.929 . S
C523 C522 1.457 . S
C523 C524 1.291 . S
C523 H536 0.931 . S
C524 C523 1.291 . S
C524 C525 1.373 . S
C524 H537 0.929 . S
C525 C524 1.373 . S
C525 C526 1.396 . S
C525 C532 1.403 . S
C526 C516 1.476 . S
C526 N521 1.318 . S
C526 C525 1.396 . S
H527 C522 0.929 . S
O528 Mn504 2.385 . S
O528 C506 1.234 . S
O529 Mn504 2.209 . S
O529 Mn505 2.215 . S
O529 C506 1.283 . S
O530 Mn504 2.094 . S
O530 C508 1.240 . S
O531 Mn505 2.117 . S
O531 C508 1.264 . S
C532 C525 1.403 . S
C532 C533 1.399 . S
C532 H538 0.929 . S
C533 C513 1.449 . S
C533 C532 1.399 . S
C533 H539 0.930 . S
H534 C514 0.931 . S
H535 C515 0.930 . S
H536 C523 0.931 . S
H537 C524 0.929 . S
H538 C532 0.929 . S
H539 C533 0.930 . S
Mn540 O545 2.095 . S
Mn540 O555 2.162 . S
Mn540 O556 2.297 . S
Mn540 O564 2.385 . S
Mn540 O565 2.209 . S
Mn540 O566 2.094 . S
Mn541 O546 2.121 . S
Mn541 N548 2.257 . S
Mn541 N557 2.282 . S
Mn541 O565 2.215 . S
Mn541 O567 2.117 . S
C542 O564 1.234 . S
C542 O565 1.283 . S
C543 O555 1.281 . S
C543 O556 1.236 . S
C544 O566 1.240 . S
C544 O567 1.264 . S
O545 Mn540 2.095 . S
O545 C554 1.250 . S
O546 Mn541 2.121 . S
O546 C554 1.258 . S
C547 N548 1.326 . S
C547 C551 1.460 . S
C547 H553 0.929 . S
N548 Mn541 2.257 . S
N548 C547 1.326 . S
N548 C552 1.362 . S
C549 C550 1.223 1_565 S
C549 C552 1.431 . S
C549 C569 1.449 . S
C550 C549 1.223 1_545 S
C550 C551 1.472 1_545 S
C550 H570 0.971 . S
C551 C547 1.460 . S
C551 C550 1.472 1_565 S
C551 H571 0.930 1_565 S
C552 N548 1.362 . S
C552 C549 1.431 . S
C552 C562 1.476 . S
H553 C547 0.929 . S
C554 O545 1.250 . S
C554 O546 1.258 . S
O555 Mn540 2.162 . S
O555 C543 1.281 . S
O556 Mn540 2.297 . S
O556 C543 1.236 . S
N557 Mn541 2.282 . S
N557 C558 1.328 . S
N557 C562 1.318 . S
C558 N557 1.328 . S
C558 C559 1.457 . S
C558 H563 0.929 . S
C559 C558 1.457 . S
C559 C560 1.291 . S
C559 H572 0.931 . S
C560 C559 1.291 . S
C560 C561 1.373 . S
C560 H573 0.929 . S
C561 C560 1.373 . S
C561 C562 1.396 . S
C561 C568 1.403 . S
C562 C552 1.476 . S
C562 N557 1.318 . S
C562 C561 1.396 . S
H563 C558 0.929 . S
O564 Mn540 2.385 . S
O564 C542 1.234 . S
O565 Mn540 2.209 . S
O565 Mn541 2.215 . S
O565 C542 1.283 . S
O566 Mn540 2.094 . S
O566 C544 1.240 . S
O567 Mn541 2.117 . S
O567 C544 1.264 . S
C568 C561 1.403 . S
C568 C569 1.399 . S
C568 H574 0.929 . S
C569 C549 1.449 . S
C569 C568 1.399 . S
C569 H575 0.930 1_565 S
H570 C550 0.971 . S
H571 C551 0.930 1_545 S
H572 C559 0.931 . S
H573 C560 0.929 . S
H574 C568 0.929 . S
H575 C569 0.930 1_545 S
Mn576 O581 2.095 . S
Mn576 O591 2.162 . S
Mn576 O592 2.297 . S
Mn576 O600 2.385 1_545 S
Mn576 O601 2.209 1_545 S
Mn576 O602 2.094 . S
Mn577 O582 2.121 . S
Mn577 N584 2.257 1_545 S
Mn577 N593 2.282 1_545 S
Mn577 O601 2.215 1_545 S
Mn577 O603 2.117 . S
C578 O600 1.234 . S
C578 O601 1.283 . S
C579 O591 1.281 . S
C579 O592 1.236 . S
C580 O602 1.240 . S
C580 O603 1.264 . S
O581 Mn576 2.095 . S
O581 C590 1.250 . S
O582 Mn577 2.121 . S
O582 C590 1.258 . S
C583 N584 1.326 1_545 S
C583 C587 1.460 1_545 S
C583 H589 0.929 . S
N584 Mn577 2.257 1_565 S
N584 C583 1.326 1_565 S
N584 C588 1.362 . S
C585 C586 1.258 . S
C585 C588 1.431 . S
C585 C605 1.449 . S
C586 C585 1.258 . S
C586 C587 1.477 . S
C586 H606 0.931 . S
C587 C583 1.460 1_565 S
C587 C586 1.477 . S
C587 H607 0.909 1_565 S
C588 N584 1.362 . S
C588 C585 1.431 . S
C588 C598 1.476 . S
H589 C583 0.929 . S
C590 O581 1.250 . S
C590 O582 1.258 . S
O591 Mn576 2.162 . S
O591 C579 1.281 . S
O592 Mn576 2.297 . S
O592 C579 1.236 . S
N593 Mn577 2.282 1_565 S
N593 C594 1.328 . S
N593 C598 1.318 . S
C594 N593 1.328 . S
C594 C595 1.457 . S
C594 H599 0.929 . S
C595 C594 1.457 . S
C595 C596 1.291 . S
C595 H608 0.931 . S
C596 C595 1.291 . S
C596 C597 1.373 . S
C596 H609 0.929 . S
C597 C596 1.373 . S
C597 C598 1.396 . S
C597 C604 1.403 . S
C598 C588 1.476 . S
C598 N593 1.318 . S
C598 C597 1.396 . S
H599 C594 0.929 . S
O600 Mn576 2.385 1_565 S
O600 C578 1.234 . S
O601 Mn576 2.209 1_565 S
O601 Mn577 2.215 1_565 S
O601 C578 1.283 . S
O602 Mn576 2.094 . S
O602 C580 1.240 . S
O603 Mn577 2.117 . S
O603 C580 1.264 . S
C604 C597 1.403 . S
C604 C605 1.399 . S
C604 H610 0.929 . S
C605 C585 1.449 . S
C605 C604 1.399 . S
C605 H611 0.930 . S
H606 C586 0.931 . S
H607 C587 0.909 1_545 S
H608 C595 0.931 . S
H609 C596 0.929 . S
H610 C604 0.929 . S
H611 C605 0.930 . S
Mn612 O617 2.095 . S
Mn612 O627 2.162 . S
Mn612 O628 2.297 . S
Mn612 O636 2.385 . S
Mn612 O637 2.209 . S
Mn612 O638 2.094 . S
Mn613 O618 2.121 . S
Mn613 N620 2.257 . S
Mn613 N629 2.282 . S
Mn613 O637 2.215 . S
Mn613 O639 2.117 . S
C614 O636 1.234 . S
C614 O637 1.283 . S
C615 O627 1.281 . S
C615 O628 1.236 . S
C616 O638 1.240 . S
C616 O639 1.264 . S
O617 Mn612 2.095 . S
O617 C626 1.250 . S
O618 Mn613 2.121 . S
O618 C626 1.258 . S
C619 N620 1.326 . S
C619 C623 1.460 . S
C619 H625 0.929 . S
N620 Mn613 2.257 . S
N620 C619 1.326 . S
N620 C624 1.362 . S
C621 C622 1.258 . S
C621 C624 1.431 . S
C621 C641 1.449 . S
C622 C621 1.258 . S
C622 C623 1.477 . S
C622 H642 0.931 . S
C623 C619 1.460 . S
C623 C622 1.477 . S
C623 H643 0.930 . S
C624 N620 1.362 . S
C624 C621 1.431 . S
C624 C634 1.476 . S
H625 C619 0.929 . S
C626 O617 1.250 . S
C626 O618 1.258 . S
O627 Mn612 2.162 . S
O627 C615 1.281 . S
O628 Mn612 2.297 . S
O628 C615 1.236 . S
N629 Mn613 2.282 . S
N629 C630 1.328 . S
N629 C634 1.318 . S
C630 N629 1.328 . S
C630 C631 1.457 . S
C630 H635 0.929 . S
C631 C630 1.457 . S
C631 C632 1.291 . S
C631 H644 0.931 . S
C632 C631 1.291 . S
C632 C633 1.373 . S
C632 H645 0.929 . S
C633 C632 1.373 . S
C633 C634 1.396 . S
C633 C640 1.403 . S
C634 C624 1.476 . S
C634 N629 1.318 . S
C634 C633 1.396 . S
H635 C630 0.929 . S
O636 Mn612 2.385 . S
O636 C614 1.234 . S
O637 Mn612 2.209 . S
O637 Mn613 2.215 . S
O637 C614 1.283 . S
O638 Mn612 2.094 . S
O638 C616 1.240 . S
O639 Mn613 2.117 . S
O639 C616 1.264 . S
C640 C633 1.403 . S
C640 C641 1.399 . S
C640 H646 0.929 . S
C641 C621 1.449 . S
C641 C640 1.399 . S
C641 H647 0.930 . S
H642 C622 0.931 . S
H643 C623 0.930 . S
H644 C631 0.931 . S
H645 C632 0.929 . S
H646 C640 0.929 . S
H647 C641 0.930 . S
Mn648 O653 2.095 . S
Mn648 O663 2.162 . S
Mn648 O664 2.297 . S
Mn648 O672 2.385 . S
Mn648 O673 2.209 . S
Mn648 O674 2.094 . S
Mn649 O654 2.121 . S
Mn649 N656 2.257 . S
Mn649 N665 2.282 . S
Mn649 O673 2.215 . S
Mn649 O675 2.117 . S
C650 O672 1.234 . S
C650 O673 1.283 . S
C651 O663 1.281 . S
C651 O664 1.236 . S
C652 O674 1.240 . S
C652 O675 1.264 . S
O653 Mn648 2.095 . S
O653 C662 1.250 . S
O654 Mn649 2.121 . S
O654 C662 1.258 . S
C655 N656 1.326 . S
C655 C659 1.460 . S
C655 H661 0.929 . S
N656 Mn649 2.257 . S
N656 C655 1.326 . S
N656 C660 1.362 . S
C657 C658 1.258 . S
C657 C660 1.431 . S
C657 C677 1.449 . S
C658 C657 1.258 . S
C658 C659 1.477 . S
C658 H678 0.931 . S
C659 C655 1.460 . S
C659 C658 1.477 . S
C659 H679 0.930 . S
C660 N656 1.362 . S
C660 C657 1.431 . S
C660 C670 1.476 . S
H661 C655 0.929 . S
C662 O653 1.250 . S
C662 O654 1.258 . S
O663 Mn648 2.162 . S
O663 C651 1.281 . S
O664 Mn648 2.297 . S
O664 C651 1.236 . S
N665 Mn649 2.282 . S
N665 C666 1.328 . S
N665 C670 1.318 . S
C666 N665 1.328 . S
C666 C667 1.457 . S
C666 H671 0.929 . S
C667 C666 1.457 . S
C667 C668 1.291 . S
C667 H680 0.931 . S
C668 C667 1.291 . S
C668 C669 1.373 . S
C668 H681 0.929 . S
C669 C668 1.373 . S
C669 C670 1.396 . S
C669 C676 1.403 . S
C670 C660 1.476 . S
C670 N665 1.318 . S
C670 C669 1.396 . S
H671 C666 0.929 . S
O672 Mn648 2.385 . S
O672 C650 1.234 . S
O673 Mn648 2.209 . S
O673 Mn649 2.215 . S
O673 C650 1.283 . S
O674 Mn648 2.094 . S
O674 C652 1.240 . S
O675 Mn649 2.117 . S
O675 C652 1.264 . S
C676 C669 1.403 . S
C676 C677 1.399 . S
C676 H682 0.929 . S
C677 C657 1.449 . S
C677 C676 1.399 . S
C677 H683 0.930 . S
H678 C658 0.931 . S
H679 C659 0.930 . S
H680 C667 0.931 . S
H681 C668 0.929 . S
H682 C676 0.929 . S
H683 C677 0.930 . S
Mn684 O689 2.095 . S
Mn684 O699 2.162 . S
Mn684 O700 2.297 . S
Mn684 O708 2.385 . S
Mn684 O709 2.209 . S
Mn684 O710 2.094 . S
Mn685 O690 2.121 . S
Mn685 N692 2.257 . S
Mn685 N701 2.282 . S
Mn685 O709 2.215 . S
Mn685 O711 2.117 . S
C686 O708 1.234 . S
C686 O709 1.283 . S
C687 O699 1.281 . S
C687 O700 1.236 . S
C688 O710 1.240 . S
C688 O711 1.264 . S
O689 Mn684 2.095 . S
O689 C698 1.250 . S
O690 Mn685 2.121 . S
O690 C698 1.258 . S
C691 N692 1.326 . S
C691 C695 1.460 . S
C691 H697 0.929 . S
N692 Mn685 2.257 . S
N692 C691 1.326 . S
N692 C696 1.362 . S
C693 C694 1.258 . S
C693 C696 1.431 . S
C693 C713 1.449 . S
C694 C693 1.258 . S
C694 C695 1.477 . S
C694 H714 0.931 . S
C695 C691 1.460 . S
C695 C694 1.477 . S
C695 H715 0.930 . S
C696 N692 1.362 . S
C696 C693 1.431 . S
C696 C706 1.476 . S
H697 C691 0.929 . S
C698 O689 1.250 . S
C698 O690 1.258 . S
O699 Mn684 2.162 . S
O699 C687 1.281 . S
O700 Mn684 2.297 . S
O700 C687 1.236 . S
N701 Mn685 2.282 . S
N701 C702 1.328 . S
N701 C706 1.318 . S
C702 N701 1.328 . S
C702 C703 1.457 . S
C702 H707 0.929 . S
C703 C702 1.457 . S
C703 C704 1.291 . S
C703 H716 0.931 . S
C704 C703 1.291 . S
C704 C705 1.373 . S
C704 H717 0.929 . S
C705 C704 1.373 . S
C705 C706 1.396 . S
C705 C712 1.403 . S
C706 C696 1.476 . S
C706 N701 1.318 . S
C706 C705 1.396 . S
H707 C702 0.929 . S
O708 Mn684 2.385 . S
O708 C686 1.234 . S
O709 Mn684 2.209 . S
O709 Mn685 2.215 . S
O709 C686 1.283 . S
O710 Mn684 2.094 . S
O710 C688 1.240 . S
O711 Mn685 2.117 . S
O711 C688 1.264 . S
C712 C705 1.403 . S
C712 C713 1.399 . S
C712 H718 0.929 . S
C713 C693 1.449 . S
C713 C712 1.399 . S
C713 H719 0.930 . S
H714 C694 0.931 . S
H715 C695 0.930 . S
H716 C703 0.931 . S
H717 C704 0.929 . S
H718 C712 0.929 . S
H719 C713 0.930 . S
Mn720 O725 2.095 . S
Mn720 O735 2.162 . S
Mn720 O736 2.297 . S
Mn720 O744 2.385 . S
Mn720 O745 2.209 . S
Mn720 O746 2.094 1_554 S
Mn721 O726 2.121 . S
Mn721 N728 2.257 . S
Mn721 N737 2.282 . S
Mn721 O745 2.215 1_556 S
Mn721 O747 2.117 . S
C722 O744 1.234 . S
C722 O745 1.283 . S
C723 O735 1.281 . S
C723 O736 1.236 . S
C724 O746 1.240 . S
C724 O747 1.264 . S
O725 Mn720 2.095 . S
O725 C734 1.250 . S
O726 Mn721 2.121 . S
O726 C734 1.258 1_556 S
C727 N728 1.326 . S
C727 C731 1.460 . S
C727 H733 0.929 . S
N728 Mn721 2.257 . S
N728 C727 1.326 . S
N728 C732 1.362 . S
C729 C730 1.258 . S
C729 C732 1.431 . S
C729 C749 1.449 . S
C730 C729 1.258 . S
C730 C731 1.477 . S
C730 H750 0.931 . S
C731 C727 1.460 . S
C731 C730 1.477 . S
C731 H751 0.930 . S
C732 N728 1.362 . S
C732 C729 1.431 . S
C732 C742 1.476 . S
H733 C727 0.929 . S
C734 O725 1.250 . S
C734 O726 1.258 1_554 S
O735 Mn720 2.162 . S
O735 C723 1.281 . S
O736 Mn720 2.297 . S
O736 C723 1.236 . S
N737 Mn721 2.282 . S
N737 C738 1.328 . S
N737 C742 1.318 . S
C738 N737 1.328 . S
C738 C739 1.457 . S
C738 H743 0.929 . S
C739 C738 1.457 . S
C739 C740 1.291 . S
C739 H752 0.931 . S
C740 C739 1.291 . S
C740 C741 1.373 . S
C740 H753 0.929 . S
C741 C740 1.373 . S
C741 C742 1.396 . S
C741 C748 1.403 . S
C742 C732 1.476 . S
C742 N737 1.318 . S
C742 C741 1.396 . S
H743 C738 0.929 . S
O744 Mn720 2.385 . S
O744 C722 1.234 . S
O745 Mn720 2.209 . S
O745 Mn721 2.215 1_554 S
O745 C722 1.283 . S
O746 Mn720 2.094 1_556 S
O746 C724 1.240 . S
O747 Mn721 2.117 . S
O747 C724 1.264 . S
C748 C741 1.403 . S
C748 C749 1.399 . S
C748 H754 0.929 . S
C749 C729 1.449 . S
C749 C748 1.399 . S
C749 H755 0.930 . S
H750 C730 0.931 . S
H751 C731 0.930 . S
H752 C739 0.931 . S
H753 C740 0.929 . S
H754 C748 0.929 . S
H755 C749 0.930 . S
Mn756 O761 2.095 . S
Mn756 O771 2.162 . S
Mn756 O772 2.297 . S
Mn756 O780 2.385 . S
Mn756 O781 2.209 . S
Mn756 O782 2.094 . S
Mn757 O762 2.121 . S
Mn757 N764 2.257 . S
Mn757 N773 2.282 . S
Mn757 O781 2.215 . S
Mn757 O783 2.117 . S
C758 O780 1.234 . S
C758 O781 1.283 . S
C759 O771 1.281 . S
C759 O772 1.236 . S
C760 O782 1.240 . S
C760 O783 1.264 . S
O761 Mn756 2.095 . S
O761 C770 1.250 . S
O762 Mn757 2.121 . S
O762 C770 1.258 . S
C763 N764 1.326 . S
C763 C767 1.460 . S
C763 H769 0.929 . S
N764 Mn757 2.257 . S
N764 C763 1.326 . S
N764 C768 1.362 . S
C765 C766 1.258 . S
C765 C768 1.431 . S
C765 C785 1.449 . S
C766 C765 1.258 . S
C766 C767 1.477 . S
C766 H786 0.931 . S
C767 C763 1.460 . S
C767 C766 1.477 . S
C767 H787 0.930 . S
C768 N764 1.362 . S
C768 C765 1.431 . S
C768 C778 1.476 . S
H769 C763 0.929 . S
C770 O761 1.250 . S
C770 O762 1.258 . S
O771 Mn756 2.162 . S
O771 C759 1.281 . S
O772 Mn756 2.297 . S
O772 C759 1.236 . S
N773 Mn757 2.282 . S
N773 C774 1.328 . S
N773 C778 1.318 . S
C774 N773 1.328 . S
C774 C775 1.457 . S
C774 H779 0.929 . S
C775 C774 1.457 . S
C775 C776 1.291 . S
C775 H788 0.931 . S
C776 C775 1.291 . S
C776 C777 1.373 . S
C776 H789 0.929 . S
C777 C776 1.373 . S
C777 C778 1.396 . S
C777 C784 1.403 . S
C778 C768 1.476 . S
C778 N773 1.318 . S
C778 C777 1.396 . S
H779 C774 0.929 . S
O780 Mn756 2.385 . S
O780 C758 1.234 . S
O781 Mn756 2.209 . S
O781 Mn757 2.215 . S
O781 C758 1.283 . S
O782 Mn756 2.094 . S
O782 C760 1.240 . S
O783 Mn757 2.117 . S
O783 C760 1.264 . S
C784 C777 1.403 . S
C784 C785 1.399 . S
C784 H790 0.929 . S
C785 C765 1.449 . S
C785 C784 1.399 . S
C785 H791 0.930 . S
H786 C766 0.931 . S
H787 C767 0.930 . S
H788 C775 0.931 . S
H789 C776 0.929 . S
H790 C784 0.929 . S
H791 C785 0.930 . S
Mn792 O797 2.095 . S
Mn792 O807 2.162 . S
Mn792 O808 2.297 . S
Mn792 O816 2.385 . S
Mn792 O817 2.209 . S
Mn792 O818 2.094 . S
Mn793 O798 2.121 . S
Mn793 N800 2.257 . S
Mn793 N809 2.282 . S
Mn793 O817 2.215 . S
Mn793 O819 2.117 . S
C794 O816 1.234 . S
C794 O817 1.283 . S
C795 O807 1.281 . S
C795 O808 1.236 . S
C796 O818 1.240 . S
C796 O819 1.264 . S
O797 Mn792 2.095 . S
O797 C806 1.250 . S
O798 Mn793 2.121 . S
O798 C806 1.258 . S
C799 N800 1.326 . S
C799 C803 1.460 . S
C799 H805 0.929 . S
N800 Mn793 2.257 . S
N800 C799 1.326 . S
N800 C804 1.362 . S
C801 C802 1.258 . S
C801 C804 1.431 . S
C801 C821 1.449 . S
C802 C801 1.258 . S
C802 C803 1.477 . S
C802 H822 0.931 . S
C803 C799 1.460 . S
C803 C802 1.477 . S
C803 H823 0.930 . S
C804 N800 1.362 . S
C804 C801 1.431 . S
C804 C814 1.476 . S
H805 C799 0.929 . S
C806 O797 1.250 . S
C806 O798 1.258 . S
O807 Mn792 2.162 . S
O807 C795 1.281 . S
O808 Mn792 2.297 . S
O808 C795 1.236 . S
N809 Mn793 2.282 . S
N809 C810 1.328 . S
N809 C814 1.318 . S
C810 N809 1.328 . S
C810 C811 1.457 . S
C810 H815 0.929 . S
C811 C810 1.457 . S
C811 C812 1.291 . S
C811 H824 0.931 . S
C812 C811 1.291 . S
C812 C813 1.373 . S
C812 H825 0.929 . S
C813 C812 1.373 . S
C813 C814 1.396 . S
C813 C820 1.403 . S
C814 C804 1.476 . S
C814 N809 1.318 . S
C814 C813 1.396 . S
H815 C810 0.929 . S
O816 Mn792 2.385 . S
O816 C794 1.234 . S
O817 Mn792 2.209 . S
O817 Mn793 2.215 . S
O817 C794 1.283 . S
O818 Mn792 2.094 . S
O818 C796 1.240 . S
O819 Mn793 2.117 . S
O819 C796 1.264 . S
C820 C813 1.403 . S
C820 C821 1.399 . S
C820 H826 0.929 . S
C821 C801 1.449 . S
C821 C820 1.399 . S
C821 H827 0.930 . S
H822 C802 0.931 . S
H823 C803 0.930 . S
H824 C811 0.931 . S
H825 C812 0.929 . S
H826 C820 0.929 . S
H827 C821 0.930 . S
Mn828 O833 2.095 . S
Mn828 O843 2.162 . S
Mn828 O844 2.297 . S
Mn828 O852 2.385 . S
Mn828 O853 2.209 . S
Mn828 O854 2.094 . S
Mn829 O834 2.121 . S
Mn829 N836 2.257 . S
Mn829 N845 2.282 . S
Mn829 O853 2.215 . S
Mn829 O855 2.117 . S
C830 O852 1.234 . S
C830 O853 1.283 . S
C831 O843 1.281 . S
C831 O844 1.236 . S
C832 O854 1.240 . S
C832 O855 1.264 . S
O833 Mn828 2.095 . S
O833 C842 1.250 . S
O834 Mn829 2.121 . S
O834 C842 1.258 . S
C835 N836 1.326 . S
C835 C839 1.460 . S
C835 H841 0.929 . S
N836 Mn829 2.257 . S
N836 C835 1.326 . S
N836 C840 1.362 . S
C837 C838 1.258 . S
C837 C840 1.431 . S
C837 C857 1.449 . S
C838 C837 1.258 . S
C838 C839 1.477 . S
C838 H858 0.931 . S
C839 C835 1.460 . S
C839 C838 1.477 . S
C839 H859 0.930 . S
C840 N836 1.362 . S
C840 C837 1.431 . S
C840 C850 1.476 . S
H841 C835 0.929 . S
C842 O833 1.250 . S
C842 O834 1.258 . S
O843 Mn828 2.162 . S
O843 C831 1.281 . S
O844 Mn828 2.297 . S
O844 C831 1.236 . S
N845 Mn829 2.282 . S
N845 C846 1.328 . S
N845 C850 1.318 . S
C846 N845 1.328 . S
C846 C847 1.457 . S
C846 H851 0.929 . S
C847 C846 1.457 . S
C847 C848 1.291 . S
C847 H860 0.931 . S
C848 C847 1.291 . S
C848 C849 1.373 . S
C848 H861 0.929 . S
C849 C848 1.373 . S
C849 C850 1.396 . S
C849 C856 1.403 . S
C850 C840 1.476 . S
C850 N845 1.318 . S
C850 C849 1.396 . S
H851 C846 0.929 . S
O852 Mn828 2.385 . S
O852 C830 1.234 . S
O853 Mn828 2.209 . S
O853 Mn829 2.215 . S
O853 C830 1.283 . S
O854 Mn828 2.094 . S
O854 C832 1.240 . S
O855 Mn829 2.117 . S
O855 C832 1.264 . S
C856 C849 1.403 . S
C856 C857 1.399 . S
C856 H862 0.929 . S
C857 C837 1.449 . S
C857 C856 1.399 . S
C857 H863 0.930 . S
H858 C838 0.931 . S
H859 C839 0.930 . S
H860 C847 0.931 . S
H861 C848 0.929 . S
H862 C856 0.929 . S
H863 C857 0.930 . S
Tb864 N893 2.617 . S
Tb864 N899 2.572 . S
Tb864 O908 2.465 . S
Tb864 O909 2.387 . S
Tb864 O911 2.428 . S
Tb864 O912 2.308 . S
Tb864 O916 2.349 1_545 S
Tb864 O919 2.393 . S
Tb864 C928 2.802 . S
C865 N866 1.379 . S
C865 C868 1.416 . S
C865 C872 1.424 1_556 S
N866 C865 1.379 . S
N866 C869 1.334 . S
N866 Tb875 2.617 1_566 S
C867 C869 1.390 . S
C867 C870 1.339 . S
C867 H887 0.930 . S
C868 C865 1.416 . S
C868 C870 1.416 . S
C868 C874 1.448 . S
C869 N866 1.334 . S
C869 C867 1.390 . S
C869 H880 0.930 . S
C870 C867 1.339 . S
C870 C868 1.416 . S
C870 H891 0.930 . S
C871 C872 1.413 . S
C871 C873 1.427 1_554 S
C871 C877 1.416 . S
C872 C865 1.424 1_554 S
C872 C871 1.413 . S
C872 N876 1.361 . S
C873 C871 1.427 1_556 S
C873 C874 1.328 . S
C873 H888 0.929 . S
C874 C868 1.448 . S
C874 C873 1.328 . S
C874 H889 0.930 . S
Tb875 N866 2.617 1_544 S
Tb875 N876 2.572 1_545 S
Tb875 O910 2.349 1_655 S
Tb875 O913 2.393 1_654 S
Tb875 O914 2.465 . S
Tb875 O915 2.387 1_645 S
Tb875 O917 2.428 1_554 S
Tb875 O918 2.308 1_655 S
Tb875 C939 2.802 . S
N876 C872 1.361 . S
N876 Tb875 2.572 1_565 S
N876 C878 1.340 . S
C877 C871 1.416 . S
C877 C879 1.332 . S
C877 H885 0.931 . S
C878 N876 1.340 . S
C878 C879 1.407 . S
C878 H884 0.930 . S
C879 C877 1.332 . S
C879 C878 1.407 . S
C879 H881 0.929 . S
H880 C869 0.930 . S
H881 C879 0.929 . S
H882 C897 0.930 . S
H883 C904 0.929 1_556 S
H884 C878 0.930 . S
H885 C877 0.931 . S
H886 C900 0.930 1_556 S
H887 C867 0.930 . S
H888 C873 0.929 . S
H889 C874 0.930 . S
H890 C895 0.930 . S
H891 C870 0.930 . S
H892 C903 0.931 . S
N893 Tb864 2.617 . S
N893 C894 1.379 . S
N893 C897 1.334 . S
C894 N893 1.379 . S
C894 C896 1.416 . S
C894 C902 1.424 . S
C895 H890 0.930 . S
C895 C897 1.390 . S
C895 C898 1.339 . S
C896 C894 1.416 . S
C896 C898 1.416 . S
C896 C929 1.448 . S
C897 H882 0.930 . S
C897 N893 1.334 . S
C897 C895 1.390 . S
C898 C895 1.339 . S
C898 C896 1.416 . S
C898 H905 0.930 . S
N899 Tb864 2.572 . S
N899 C900 1.340 . S
N899 C902 1.361 . S
C900 H886 0.930 1_554 S
C900 N899 1.340 . S
C900 C904 1.407 . S
C901 C902 1.413 . S
C901 C903 1.416 . S
C901 C930 1.427 . S
C902 C894 1.424 . S
C902 N899 1.361 . S
C902 C901 1.413 . S
C903 H892 0.931 . S
C903 C901 1.416 . S
C903 C904 1.332 . S
C904 H883 0.929 1_554 S
C904 C900 1.407 . S
C904 C903 1.332 . S
H905 C898 0.930 . S
H906 C929 0.930 . S
H907 C930 0.929 . S
O908 Tb864 2.465 . S
O908 C928 1.264 . S
O909 Tb864 2.387 . S
O909 C920 1.264 . S
O910 Tb875 2.349 1_455 S
O910 C920 1.243 . S
O911 Tb864 2.428 . S
O911 C928 1.256 . S
O912 Tb864 2.308 . S
O912 C927 1.266 1_554 S
O913 Tb875 2.393 1_456 S
O913 C927 1.248 . S
O914 Tb875 2.465 . S
O914 C939 1.264 . S
O915 Tb875 2.387 1_465 S
O915 C931 1.264 . S
O916 Tb864 2.349 1_565 S
O916 C931 1.243 . S
O917 Tb875 2.428 1_556 S
O917 C939 1.256 1_556 S
O918 Tb875 2.308 1_455 S
O918 C938 1.266 . S
O919 Tb864 2.393 . S
O919 C938 1.248 . S
C920 O909 1.264 . S
C920 O910 1.243 . S
C921 C924 1.399 . S
C921 C926 1.383 . S
C921 C928 1.496 . S
C922 C923 1.404 1_565 S
C922 C926 1.383 1_565 S
C923 C922 1.404 1_545 S
C923 C925 1.384 . S
C923 H940 0.922 1_545 S
C924 C921 1.399 . S
C924 C925 1.392 . S
C924 H941 0.929 . S
C925 C923 1.384 . S
C925 C924 1.392 . S
C925 H942 0.929 . S
C926 C921 1.383 . S
C926 C922 1.383 1_545 S
C926 H943 0.931 . S
C927 O912 1.266 1_556 S
C927 O913 1.248 . S
C928 Tb864 2.802 . S
C928 O908 1.264 . S
C928 O911 1.256 . S
C928 C921 1.496 . S
C929 C896 1.448 . S
C929 H906 0.930 . S
C929 C930 1.328 . S
C930 C901 1.427 . S
C930 H907 0.929 . S
C930 C929 1.328 . S
C931 O915 1.264 . S
C931 O916 1.243 . S
C932 C935 1.399 . S
C932 C936 1.383 1_556 S
C932 C939 1.496 1_556 S
C933 C934 1.399 1_554 S
C933 C936 1.389 . S
C934 C933 1.399 1_556 S
C934 C937 1.380 . S
C934 H944 0.929 . S
C935 C932 1.399 . S
C935 C937 1.392 . S
C935 H945 0.929 . S
C936 C932 1.383 1_554 S
C936 C933 1.389 . S
C936 H946 0.931 . S
C937 C934 1.380 . S
C937 C935 1.392 . S
C937 H947 0.929 . S
C938 O918 1.266 . S
C938 O919 1.248 . S
C939 Tb875 2.802 . S
C939 O914 1.264 . S
C939 O917 1.256 1_554 S
C939 C932 1.496 1_554 S
H940 C923 0.922 1_565 S
H941 C924 0.929 . S
H942 C925 0.929 . S
H943 C926 0.931 . S
H944 C934 0.929 . S
H945 C935 0.929 . S
H946 C936 0.931 . S
H947 C937 0.929 . S
Tb948 N977 2.617 . S
Tb948 N983 2.572 . S
Tb948 O992 2.465 . S
Tb948 O993 2.387 . S
Tb948 O995 2.428 . S
Tb948 O996 2.308 . S
Tb948 O1000 2.349 . S
Tb948 O1003 2.393 . S
Tb948 C1012 2.802 . S
C949 N950 1.379 . S
C949 C952 1.416 . S
C949 C956 1.424 . S
N950 C949 1.379 . S
N950 C953 1.334 . S
N950 Tb959 2.617 . S
C951 C953 1.390 . S
C951 C954 1.339 . S
C951 H971 0.930 . S
C952 C949 1.416 . S
C952 C954 1.416 . S
C952 C958 1.448 . S
C953 N950 1.334 . S
C953 C951 1.390 . S
C953 H964 0.930 . S
C954 C951 1.339 . S
C954 C952 1.416 . S
C954 H975 0.930 . S
C955 C956 1.413 . S
C955 C957 1.427 . S
C955 C961 1.416 . S
C956 C949 1.424 . S
C956 C955 1.413 . S
C956 N960 1.361 . S
C957 C955 1.427 . S
C957 C958 1.328 . S
C957 H972 0.929 . S
C958 C952 1.448 . S
C958 C957 1.328 . S
C958 H973 0.930 . S
Tb959 N950 2.617 . S
Tb959 N960 2.572 . S
Tb959 O994 2.349 . S
Tb959 O997 2.393 . S
Tb959 O998 2.465 . S
Tb959 O999 2.387 . S
Tb959 O1001 2.428 . S
Tb959 O1002 2.308 . S
Tb959 C1023 2.802 . S
N960 C956 1.361 . S
N960 Tb959 2.572 . S
N960 C962 1.340 . S
C961 C955 1.416 . S
C961 C963 1.332 . S
C961 H969 0.931 . S
C962 N960 1.340 . S
C962 C963 1.407 . S
C962 H968 0.930 . S
C963 C961 1.332 . S
C963 C962 1.407 . S
C963 H965 0.929 . S
H964 C953 0.930 . S
H965 C963 0.929 . S
H966 C981 0.930 . S
H967 C988 0.929 . S
H968 C962 0.930 . S
H969 C961 0.931 . S
H970 C984 0.930 . S
H971 C951 0.930 . S
H972 C957 0.929 . S
H973 C958 0.930 . S
H974 C979 0.930 . S
H975 C954 0.930 . S
H976 C987 0.931 . S
N977 Tb948 2.617 . S
N977 C978 1.379 . S
N977 C981 1.334 . S
C978 N977 1.379 . S
C978 C980 1.416 . S
C978 C986 1.424 . S
C979 H974 0.930 . S
C979 C981 1.390 . S
C979 C982 1.339 . S
C980 C978 1.416 . S
C980 C982 1.416 . S
C980 C1013 1.448 . S
C981 H966 0.930 . S
C981 N977 1.334 . S
C981 C979 1.390 . S
C982 C979 1.339 . S
C982 C980 1.416 . S
C982 H989 0.930 . S
N983 Tb948 2.572 . S
N983 C984 1.340 . S
N983 C986 1.361 . S
C984 H970 0.930 . S
C984 N983 1.340 . S
C984 C988 1.407 . S
C985 C986 1.413 . S
C985 C987 1.416 . S
C985 C1014 1.427 . S
C986 C978 1.424 . S
C986 N983 1.361 . S
C986 C985 1.413 . S
C987 H976 0.931 . S
C987 C985 1.416 . S
C987 C988 1.332 . S
C988 H967 0.929 . S
C988 C984 1.407 . S
C988 C987 1.332 . S
H989 C982 0.930 . S
H990 C1013 0.930 . S
H991 C1014 0.929 . S
O992 Tb948 2.465 . S
O992 C1012 1.264 . S
O993 Tb948 2.387 . S
O993 C1004 1.264 . S
O994 Tb959 2.349 . S
O994 C1004 1.243 . S
O995 Tb948 2.428 . S
O995 C1012 1.256 . S
O996 Tb948 2.308 . S
O996 C1011 1.266 . S
O997 Tb959 2.393 . S
O997 C1011 1.248 . S
O998 Tb959 2.465 . S
O998 C1023 1.264 . S
O999 Tb959 2.387 . S
O999 C1015 1.264 . S
O1000 Tb948 2.349 . S
O1000 C1015 1.243 . S
O1001 Tb959 2.428 . S
O1001 C1023 1.256 . S
O1002 Tb959 2.308 . S
O1002 C1022 1.266 . S
O1003 Tb948 2.393 . S
O1003 C1022 1.248 . S
C1004 O993 1.264 . S
C1004 O994 1.243 . S
C1005 C1008 1.399 . S
C1005 C1010 1.383 . S
C1005 C1012 1.496 . S
C1006 C1007 1.399 . S
C1006 C1010 1.389 . S
C1007 C1006 1.399 . S
C1007 C1009 1.380 . S
C1007 H1024 0.929 . S
C1008 C1005 1.399 . S
C1008 C1009 1.392 . S
C1008 H1025 0.929 . S
C1009 C1007 1.380 . S
C1009 C1008 1.392 . S
C1009 H1026 0.929 . S
C1010 C1005 1.383 . S
C1010 C1006 1.389 . S
C1010 H1027 0.931 . S
C1011 O996 1.266 . S
C1011 O997 1.248 . S
C1012 Tb948 2.802 . S
C1012 O992 1.264 . S
C1012 O995 1.256 . S
C1012 C1005 1.496 . S
C1013 C980 1.448 . S
C1013 H990 0.930 . S
C1013 C1014 1.328 . S
C1014 C985 1.427 . S
C1014 H991 0.929 . S
C1014 C1013 1.328 . S
C1015 O999 1.264 . S
C1015 O1000 1.243 . S
C1016 C1019 1.399 . S
C1016 C1020 1.383 . S
C1016 C1023 1.496 . S
C1017 C1018 1.399 . S
C1017 C1020 1.389 . S
C1018 C1017 1.399 . S
C1018 C1021 1.380 . S
C1018 H1028 0.929 . S
C1019 C1016 1.399 . S
C1019 C1021 1.392 . S
C1019 H1029 0.929 . S
C1020 C1016 1.383 . S
C1020 C1017 1.389 . S
C1020 H1030 0.931 . S
C1021 C1018 1.380 . S
C1021 C1019 1.392 . S
C1021 H1031 0.929 . S
C1022 O1002 1.266 . S
C1022 O1003 1.248 . S
C1023 Tb959 2.802 . S
C1023 O998 1.264 . S
C1023 O1001 1.256 . S
C1023 C1016 1.496 . S
H1024 C1007 0.929 . S
H1025 C1008 0.929 . S
H1026 C1009 0.929 . S
H1027 C1010 0.931 . S
H1028 C1018 0.929 . S
H1029 C1019 0.929 . S
H1030 C1020 0.931 . S
H1031 C1021 0.929 . S
Tb1032 N1061 2.617 . S
Tb1032 N1067 2.572 1_545 S
Tb1032 O1076 2.465 . S
Tb1032 O1077 2.387 1_545 S
Tb1032 O1079 2.428 . S
Tb1032 O1080 2.308 . S
Tb1032 O1084 2.349 . S
Tb1032 O1087 2.393 . S
Tb1032 C1096 2.802 . S
C1033 N1034 1.379 . S
C1033 C1036 1.416 . S
C1033 C1040 1.424 . S
N1034 C1033 1.379 . S
N1034 C1037 1.334 . S
N1034 Tb1043 2.617 . S
C1035 C1037 1.390 . S
C1035 C1038 1.339 . S
C1035 H1055 0.930 . S
C1036 C1033 1.416 . S
C1036 C1038 1.416 . S
C1036 C1042 1.448 . S
C1037 N1034 1.334 . S
C1037 C1035 1.390 . S
C1037 H1048 0.930 . S
C1038 C1035 1.339 . S
C1038 C1036 1.416 . S
C1038 H1059 0.930 . S
C1039 C1040 1.413 . S
C1039 C1041 1.427 . S
C1039 C1045 1.416 . S
C1040 C1033 1.424 . S
C1040 C1039 1.413 . S
C1040 N1044 1.361 . S
C1041 C1039 1.427 . S
C1041 C1042 1.328 . S
C1041 H1056 0.929 . S
C1042 C1036 1.448 . S
C1042 C1041 1.328 . S
C1042 H1057 0.930 . S
Tb1043 N1034 2.617 . S
Tb1043 N1044 2.572 . S
Tb1043 O1078 2.349 . S
Tb1043 O1081 2.393 . S
Tb1043 O1082 2.465 . S
Tb1043 O1083 2.387 . S
Tb1043 O1085 2.428 . S
Tb1043 O1086 2.308 . S
Tb1043 C1107 2.802 . S
N1044 C1040 1.361 . S
N1044 Tb1043 2.572 . S
N1044 C1046 1.340 . S
C1045 C1039 1.416 . S
C1045 C1047 1.332 . S
C1045 H1053 0.931 . S
C1046 N1044 1.340 . S
C1046 C1047 1.407 . S
C1046 H1052 0.930 . S
C1047 C1045 1.332 . S
C1047 C1046 1.407 . S
C1047 H1049 0.929 . S
H1048 C1037 0.930 . S
H1049 C1047 0.929 . S
H1050 C1065 0.930 . S
H1051 C1072 0.929 . S
H1052 C1046 0.930 . S
H1053 C1045 0.931 . S
H1054 C1068 0.930 1_545 S
H1055 C1035 0.930 . S
H1056 C1041 0.929 . S
H1057 C1042 0.930 . S
H1058 C1063 0.930 . S
H1059 C1038 0.930 . S
H1060 C1071 0.931 . S
N1061 Tb1032 2.617 . S
N1061 C1062 1.379 1_545 S
N1061 C1065 1.334 . S
C1062 N1061 1.379 1_565 S
C1062 C1064 1.416 . S
C1062 C1070 1.424 . S
C1063 H1058 0.930 . S
C1063 C1065 1.390 1_565 S
C1063 C1066 1.339 . S
C1064 C1062 1.416 . S
C1064 C1066 1.416 . S
C1064 C1097 1.448 . S
C1065 H1050 0.930 . S
C1065 N1061 1.334 . S
C1065 C1063 1.390 1_545 S
C1066 C1063 1.339 . S
C1066 C1064 1.416 . S
C1066 H1073 0.930 . S
N1067 Tb1032 2.572 1_565 S
N1067 C1068 1.340 . S
N1067 C1070 1.361 . S
C1068 H1054 0.930 1_565 S
C1068 N1067 1.340 . S
C1068 C1072 1.407 . S
C1069 C1070 1.413 . S
C1069 C1071 1.416 . S
C1069 C1098 1.427 . S
C1070 C1062 1.424 . S
C1070 N1067 1.361 . S
C1070 C1069 1.413 . S
C1071 H1060 0.931 . S
C1071 C1069 1.416 . S
C1071 C1072 1.332 . S
C1072 H1051 0.929 . S
C1072 C1068 1.407 . S
C1072 C1071 1.332 . S
H1073 C1066 0.930 . S
H1074 C1097 0.930 . S
H1075 C1098 0.929 . S
O1076 Tb1032 2.465 . S
O1076 C1096 1.264 . S
O1077 Tb1032 2.387 1_565 S
O1077 C1088 1.264 . S
O1078 Tb1043 2.349 . S
O1078 C1088 1.243 1_545 S
O1079 Tb1032 2.428 . S
O1079 C1096 1.256 . S
O1080 Tb1032 2.308 . S
O1080 C1095 1.266 . S
O1081 Tb1043 2.393 . S
O1081 C1095 1.248 . S
O1082 Tb1043 2.465 . S
O1082 C1107 1.264 . S
O1083 Tb1043 2.387 . S
O1083 C1099 1.264 . S
O1084 Tb1032 2.349 . S
O1084 C1099 1.243 . S
O1085 Tb1043 2.428 . S
O1085 C1107 1.256 . S
O1086 Tb1043 2.308 . S
O1086 C1106 1.266 . S
O1087 Tb1032 2.393 . S
O1087 C1106 1.248 . S
C1088 O1077 1.264 . S
C1088 O1078 1.243 1_565 S
C1089 C1092 1.399 . S
C1089 C1094 1.383 . S
C1089 C1096 1.496 . S
C1090 C1091 1.399 . S
C1090 C1094 1.389 . S
C1091 C1090 1.399 . S
C1091 C1093 1.380 . S
C1091 H1108 0.929 . S
C1092 C1089 1.399 . S
C1092 C1093 1.392 . S
C1092 H1109 0.929 . S
C1093 C1091 1.380 . S
C1093 C1092 1.392 . S
C1093 H1110 0.929 . S
C1094 C1089 1.383 . S
C1094 C1090 1.389 . S
C1094 H1111 0.931 . S
C1095 O1080 1.266 . S
C1095 O1081 1.248 . S
C1096 Tb1032 2.802 . S
C1096 O1076 1.264 . S
C1096 O1079 1.256 . S
C1096 C1089 1.496 . S
C1097 C1064 1.448 . S
C1097 H1074 0.930 . S
C1097 C1098 1.328 . S
C1098 C1069 1.427 . S
C1098 H1075 0.929 . S
C1098 C1097 1.328 . S
C1099 O1083 1.264 . S
C1099 O1084 1.243 . S
C1100 C1103 1.399 1_545 S
C1100 C1104 1.383 1_545 S
C1100 C1107 1.496 . S
C1101 C1102 1.399 . S
C1101 C1104 1.389 . S
C1102 C1101 1.399 . S
C1102 C1105 1.380 . S
C1102 H1112 0.929 . S
C1103 C1100 1.399 1_565 S
C1103 C1105 1.392 . S
C1103 H1113 0.929 1_565 S
C1104 C1100 1.383 1_565 S
C1104 C1101 1.389 . S
C1104 H1114 0.930 . S
C1105 C1102 1.380 . S
C1105 C1103 1.392 . S
C1105 H1115 0.929 . S
C1106 O1086 1.266 . S
C1106 O1087 1.248 . S
C1107 Tb1043 2.802 . S
C1107 O1082 1.264 . S
C1107 O1085 1.256 . S
C1107 C1100 1.496 . S
H1108 C1091 0.929 . S
H1109 C1092 0.929 . S
H1110 C1093 0.929 . S
H1111 C1094 0.931 . S
H1112 C1102 0.929 . S
H1113 C1103 0.929 1_545 S
H1114 C1104 0.930 . S
H1115 C1105 0.929 . S
Tb1116 N1145 2.617 . S
Tb1116 N1151 2.572 . S
Tb1116 O1160 2.465 . S
Tb1116 O1161 2.387 . S
Tb1116 O1163 2.428 . S
Tb1116 O1164 2.308 . S
Tb1116 O1168 2.349 . S
Tb1116 O1171 2.393 . S
Tb1116 C1180 2.802 . S
C1117 N1118 1.379 . S
C1117 C1120 1.416 . S
C1117 C1124 1.424 . S
N1118 C1117 1.379 . S
N1118 C1121 1.334 . S
N1118 Tb1127 2.617 . S
C1119 C1121 1.390 . S
C1119 C1122 1.339 . S
C1119 H1139 0.930 . S
C1120 C1117 1.416 . S
C1120 C1122 1.416 . S
C1120 C1126 1.448 . S
C1121 N1118 1.334 . S
C1121 C1119 1.390 . S
C1121 H1132 0.930 . S
C1122 C1119 1.339 . S
C1122 C1120 1.416 . S
C1122 H1143 0.930 . S
C1123 C1124 1.413 . S
C1123 C1125 1.427 . S
C1123 C1129 1.416 . S
C1124 C1117 1.424 . S
C1124 C1123 1.413 . S
C1124 N1128 1.361 . S
C1125 C1123 1.427 . S
C1125 C1126 1.328 . S
C1125 H1140 0.929 . S
C1126 C1120 1.448 . S
C1126 C1125 1.328 . S
C1126 H1141 0.930 . S
Tb1127 N1118 2.617 . S
Tb1127 N1128 2.572 . S
Tb1127 O1162 2.349 . S
Tb1127 O1165 2.393 . S
Tb1127 O1166 2.465 . S
Tb1127 O1167 2.387 . S
Tb1127 O1169 2.428 . S
Tb1127 O1170 2.308 . S
Tb1127 C1191 2.802 . S
N1128 C1124 1.361 . S
N1128 Tb1127 2.572 . S
N1128 C1130 1.340 . S
C1129 C1123 1.416 . S
C1129 C1131 1.332 . S
C1129 H1137 0.931 . S
C1130 N1128 1.340 . S
C1130 C1131 1.407 . S
C1130 H1136 0.930 . S
C1131 C1129 1.332 . S
C1131 C1130 1.407 . S
C1131 H1133 0.929 . S
H1132 C1121 0.930 . S
H1133 C1131 0.929 . S
H1134 C1149 0.930 . S
H1135 C1156 0.929 . S
H1136 C1130 0.930 . S
H1137 C1129 0.931 . S
H1138 C1152 0.930 . S
H1139 C1119 0.930 . S
H1140 C1125 0.929 . S
H1141 C1126 0.930 . S
H1142 C1147 0.930 . S
H1143 C1122 0.930 . S
H1144 C1155 0.931 . S
N1145 Tb1116 2.617 . S
N1145 C1146 1.379 . S
N1145 C1149 1.334 . S
C1146 N1145 1.379 . S
C1146 C1148 1.416 . S
C1146 C1154 1.424 . S
C1147 H1142 0.930 . S
C1147 C1149 1.390 . S
C1147 C1150 1.339 . S
C1148 C1146 1.416 . S
C1148 C1150 1.416 . S
C1148 C1181 1.448 . S
C1149 H1134 0.930 . S
C1149 N1145 1.334 . S
C1149 C1147 1.390 . S
C1150 C1147 1.339 . S
C1150 C1148 1.416 . S
C1150 H1157 0.930 . S
N1151 Tb1116 2.572 . S
N1151 C1152 1.340 . S
N1151 C1154 1.361 . S
C1152 H1138 0.930 . S
C1152 N1151 1.340 . S
C1152 C1156 1.407 . S
C1153 C1154 1.413 . S
C1153 C1155 1.416 . S
C1153 C1182 1.427 . S
C1154 C1146 1.424 . S
C1154 N1151 1.361 . S
C1154 C1153 1.413 . S
C1155 H1144 0.931 . S
C1155 C1153 1.416 . S
C1155 C1156 1.332 . S
C1156 H1135 0.929 . S
C1156 C1152 1.407 . S
C1156 C1155 1.332 . S
H1157 C1150 0.930 . S
H1158 C1181 0.930 . S
H1159 C1182 0.929 . S
O1160 Tb1116 2.465 . S
O1160 C1180 1.264 . S
O1161 Tb1116 2.387 . S
O1161 C1172 1.264 . S
O1162 Tb1127 2.349 . S
O1162 C1172 1.243 . S
O1163 Tb1116 2.428 . S
O1163 C1180 1.256 . S
O1164 Tb1116 2.308 . S
O1164 C1179 1.266 . S
O1165 Tb1127 2.393 . S
O1165 C1179 1.248 . S
O1166 Tb1127 2.465 . S
O1166 C1191 1.264 . S
O1167 Tb1127 2.387 . S
O1167 C1183 1.264 . S
O1168 Tb1116 2.349 . S
O1168 C1183 1.243 . S
O1169 Tb1127 2.428 . S
O1169 C1191 1.256 . S
O1170 Tb1127 2.308 . S
O1170 C1190 1.266 . S
O1171 Tb1116 2.393 . S
O1171 C1190 1.248 . S
C1172 O1161 1.264 . S
C1172 O1162 1.243 . S
C1173 C1176 1.399 . S
C1173 C1178 1.383 . S
C1173 C1180 1.496 . S
C1174 C1175 1.399 . S
C1174 C1178 1.389 . S
C1175 C1174 1.399 . S
C1175 C1177 1.380 . S
C1175 H1192 0.929 . S
C1176 C1173 1.399 . S
C1176 C1177 1.392 . S
C1176 H1193 0.929 . S
C1177 C1175 1.380 . S
C1177 C1176 1.392 . S
C1177 H1194 0.929 . S
C1178 C1173 1.383 . S
C1178 C1174 1.389 . S
C1178 H1195 0.931 . S
C1179 O1164 1.266 . S
C1179 O1165 1.248 . S
C1180 Tb1116 2.802 . S
C1180 O1160 1.264 . S
C1180 O1163 1.256 . S
C1180 C1173 1.496 . S
C1181 C1148 1.448 . S
C1181 H1158 0.930 . S
C1181 C1182 1.328 . S
C1182 C1153 1.427 . S
C1182 H1159 0.929 . S
C1182 C1181 1.328 . S
C1183 O1167 1.264 . S
C1183 O1168 1.243 . S
C1184 C1187 1.399 . S
C1184 C1188 1.383 . S
C1184 C1191 1.496 . S
C1185 C1186 1.399 . S
C1185 C1188 1.389 . S
C1186 C1185 1.399 . S
C1186 C1189 1.380 . S
C1186 H1196 0.929 . S
C1187 C1184 1.399 . S
C1187 C1189 1.392 . S
C1187 H1197 0.929 . S
C1188 C1184 1.383 . S
C1188 C1185 1.389 . S
C1188 H1198 0.931 . S
C1189 C1186 1.380 . S
C1189 C1187 1.392 . S
C1189 H1199 0.929 . S
C1190 O1170 1.266 . S
C1190 O1171 1.248 . S
C1191 Tb1127 2.802 . S
C1191 O1166 1.264 . S
C1191 O1169 1.256 . S
C1191 C1184 1.496 . S
H1192 C1175 0.929 . S
H1193 C1176 0.929 . S
H1194 C1177 0.929 . S
H1195 C1178 0.931 . S
H1196 C1186 0.929 . S
H1197 C1187 0.929 . S
H1198 C1188 0.931 . S
H1199 C1189 0.929 . S
Tb1200 N1229 2.617 1_545 S
Tb1200 N1235 2.571 1_545 S
Tb1200 O1244 2.464 1_545 S
Tb1200 O1245 2.387 . S
Tb1200 O1247 2.427 1_545 S
Tb1200 O1248 2.308 . S
Tb1200 O1252 2.349 . S
Tb1200 O1255 2.393 . S
Tb1200 C1264 2.801 1_545 S
C1201 N1202 1.368 1_455 S
C1201 C1204 1.381 1_455 S
C1201 C1208 1.472 . S
N1202 C1201 1.368 1_655 S
N1202 C1205 1.334 . S
N1202 Tb1211 2.617 1_655 S
C1203 C1205 1.390 . S
C1203 C1206 1.339 . S
C1203 H1223 0.930 . S
C1204 C1201 1.381 1_655 S
C1204 C1206 1.416 . S
C1204 C1210 1.448 1_655 S
C1205 N1202 1.334 . S
C1205 C1203 1.390 . S
C1205 H1216 0.930 . S
C1206 C1203 1.339 . S
C1206 C1204 1.416 . S
C1206 H1227 0.930 . S
C1207 C1208 1.413 . S
C1207 C1209 1.427 . S
C1207 C1213 1.416 . S
C1208 C1201 1.472 . S
C1208 C1207 1.413 . S
C1208 N1212 1.361 . S
C1209 C1207 1.427 . S
C1209 C1210 1.328 . S
C1209 H1224 0.929 . S
C1210 C1204 1.448 1_455 S
C1210 C1209 1.328 . S
C1210 H1225 0.930 1_455 S
Tb1211 N1202 2.617 1_455 S
Tb1211 N1212 2.572 . S
Tb1211 O1246 2.349 . S
Tb1211 O1249 2.393 1_455 S
Tb1211 O1250 2.465 . S
Tb1211 O1251 2.387 . S
Tb1211 O1253 2.428 1_455 S
Tb1211 O1254 2.308 . S
Tb1211 C1275 2.802 . S
N1212 C1208 1.361 . S
N1212 Tb1211 2.572 . S
N1212 C1214 1.340 . S
C1213 C1207 1.416 . S
C1213 C1215 1.332 . S
C1213 H1221 0.931 . S
C1214 N1212 1.340 . S
C1214 C1215 1.407 . S
C1214 H1220 0.930 . S
C1215 C1213 1.332 . S
C1215 C1214 1.407 . S
C1215 H1217 0.929 . S
H1216 C1205 0.930 . S
H1217 C1215 0.929 . S
H1218 C1233 0.930 1_545 S
H1219 C1240 0.929 . S
H1220 C1214 0.930 . S
H1221 C1213 0.931 . S
H1222 C1236 0.930 . S
H1223 C1203 0.930 . S
H1224 C1209 0.929 . S
H1225 C1210 0.930 1_655 S
H1226 C1231 0.944 . S
H1227 C1206 0.930 . S
H1228 C1239 0.931 . S
N1229 Tb1200 2.617 1_565 S
N1229 C1230 1.379 . S
N1229 C1233 1.334 . S
C1230 N1229 1.379 . S
C1230 C1232 1.416 . S
C1230 C1238 1.424 . S
C1231 H1226 0.944 . S
C1231 C1233 1.390 . S
C1231 C1234 1.339 . S
C1232 C1230 1.416 . S
C1232 C1234 1.416 . S
C1232 C1265 1.448 . S
C1233 H1218 0.930 1_565 S
C1233 N1229 1.334 . S
C1233 C1231 1.390 . S
C1234 C1231 1.339 . S
C1234 C1232 1.416 . S
C1234 H1241 0.930 . S
N1235 Tb1200 2.571 1_565 S
N1235 C1236 1.340 1_455 S
N1235 C1238 1.361 . S
C1236 H1222 0.930 . S
C1236 N1235 1.340 1_655 S
C1236 C1240 1.407 . S
C1237 C1238 1.413 . S
C1237 C1239 1.416 1_455 S
C1237 C1266 1.427 . S
C1238 C1230 1.424 . S
C1238 N1235 1.361 . S
C1238 C1237 1.413 . S
C1239 H1228 0.931 . S
C1239 C1237 1.416 1_655 S
C1239 C1240 1.332 . S
C1240 H1219 0.929 . S
C1240 C1236 1.407 . S
C1240 C1239 1.332 . S
H1241 C1234 0.930 . S
H1242 C1265 0.930 . S
H1243 C1266 0.929 . S
O1244 Tb1200 2.464 1_565 S
O1244 C1264 1.264 . S
O1245 Tb1200 2.387 . S
O1245 C1256 1.264 . S
O1246 Tb1211 2.349 . S
O1246 C1256 1.243 . S
O1247 Tb1200 2.427 1_565 S
O1247 C1264 1.256 . S
O1248 Tb1200 2.308 . S
O1248 C1263 1.266 1_455 S
O1249 Tb1211 2.393 1_655 S
O1249 C1263 1.248 . S
O1250 Tb1211 2.465 . S
O1250 C1275 1.264 . S
O1251 Tb1211 2.387 . S
O1251 C1267 1.264 . S
O1252 Tb1200 2.349 . S
O1252 C1267 1.243 . S
O1253 Tb1211 2.428 1_655 S
O1253 C1275 1.256 1_655 S
O1254 Tb1211 2.308 . S
O1254 C1274 1.266 . S
O1255 Tb1200 2.393 . S
O1255 C1274 1.248 . S
C1256 O1245 1.264 . S
C1256 O1246 1.243 . S
C1257 C1260 1.399 . S
C1257 C1262 1.383 . S
C1257 C1264 1.496 . S
C1258 C1259 1.399 . S
C1258 C1262 1.389 . S
C1259 C1258 1.399 . S
C1259 C1261 1.380 . S
C1259 H1276 0.929 . S
C1260 C1257 1.399 . S
C1260 C1261 1.392 . S
C1260 H1277 0.929 . S
C1261 C1259 1.380 . S
C1261 C1260 1.392 . S
C1261 H1278 0.929 . S
C1262 C1257 1.383 . S
C1262 C1258 1.389 . S
C1262 H1279 0.931 . S
C1263 O1248 1.266 1_655 S
C1263 O1249 1.248 . S
C1264 Tb1200 2.801 1_565 S
C1264 O1244 1.264 . S
C1264 O1247 1.256 . S
C1264 C1257 1.496 . S
C1265 C1232 1.448 . S
C1265 H1242 0.930 . S
C1265 C1266 1.328 . S
C1266 C1237 1.427 . S
C1266 H1243 0.929 . S
C1266 C1265 1.328 . S
C1267 O1251 1.264 . S
C1267 O1252 1.243 . S
C1268 C1271 1.399 1_455 S
C1268 C1272 1.383 . S
C1268 C1275 1.496 . S
C1269 C1270 1.399 1_455 S
C1269 C1272 1.389 . S
C1270 C1269 1.399 1_655 S
C1270 C1273 1.380 . S
C1270 H1280 0.929 . S
C1271 C1268 1.399 1_655 S
C1271 C1273 1.392 . S
C1271 H1281 0.929 . S
C1272 C1268 1.383 . S
C1272 C1269 1.389 . S
C1272 H1282 0.931 . S
C1273 C1270 1.380 . S
C1273 C1271 1.392 . S
C1273 H1283 0.929 . S
C1274 O1254 1.266 . S
C1274 O1255 1.248 . S
C1275 Tb1211 2.802 . S
C1275 O1250 1.264 . S
C1275 O1253 1.256 1_455 S
C1275 C1268 1.496 . S
H1276 C1259 0.929 . S
H1277 C1260 0.929 . S
H1278 C1261 0.929 . S
H1279 C1262 0.931 . S
H1280 C1270 0.929 . S
H1281 C1271 0.929 . S
H1282 C1272 0.931 . S
H1283 C1273 0.929 . S
Tb1284 N1313 2.617 . S
Tb1284 N1319 2.572 . S
Tb1284 O1328 2.465 . S
Tb1284 O1329 2.387 . S
Tb1284 O1331 2.428 . S
Tb1284 O1332 2.308 . S
Tb1284 O1336 2.349 . S
Tb1284 O1339 2.393 . S
Tb1284 C1348 2.802 . S
C1285 N1286 1.379 . S
C1285 C1288 1.416 . S
C1285 C1292 1.424 . S
N1286 C1285 1.379 . S
N1286 C1289 1.334 . S
N1286 Tb1295 2.617 . S
C1287 C1289 1.390 . S
C1287 C1290 1.339 . S
C1287 H1307 0.930 . S
C1288 C1285 1.416 . S
C1288 C1290 1.416 . S
C1288 C1294 1.448 . S
C1289 N1286 1.334 . S
C1289 C1287 1.390 . S
C1289 H1300 0.930 . S
C1290 C1287 1.339 . S
C1290 C1288 1.416 . S
C1290 H1311 0.930 . S
C1291 C1292 1.413 . S
C1291 C1293 1.427 . S
C1291 C1297 1.416 . S
C1292 C1285 1.424 . S
C1292 C1291 1.413 . S
C1292 N1296 1.361 . S
C1293 C1291 1.427 . S
C1293 C1294 1.328 . S
C1293 H1308 0.929 . S
C1294 C1288 1.448 . S
C1294 C1293 1.328 . S
C1294 H1309 0.930 . S
Tb1295 N1286 2.617 . S
Tb1295 N1296 2.572 . S
Tb1295 O1330 2.349 . S
Tb1295 O1333 2.393 . S
Tb1295 O1334 2.465 . S
Tb1295 O1335 2.387 . S
Tb1295 O1337 2.428 . S
Tb1295 O1338 2.308 . S
Tb1295 C1359 2.802 . S
N1296 C1292 1.361 . S
N1296 Tb1295 2.572 . S
N1296 C1298 1.340 . S
C1297 C1291 1.416 . S
C1297 C1299 1.332 . S
C1297 H1305 0.931 . S
C1298 N1296 1.340 . S
C1298 C1299 1.407 . S
C1298 H1304 0.930 . S
C1299 C1297 1.332 . S
C1299 C1298 1.407 . S
C1299 H1301 0.929 . S
H1300 C1289 0.930 . S
H1301 C1299 0.929 . S
H1302 C1317 0.930 . S
H1303 C1324 0.929 . S
H1304 C1298 0.930 . S
H1305 C1297 0.931 . S
H1306 C1320 0.930 . S
H1307 C1287 0.930 . S
H1308 C1293 0.929 . S
H1309 C1294 0.930 . S
H1310 C1315 0.930 . S
H1311 C1290 0.930 . S
H1312 C1323 0.931 . S
N1313 Tb1284 2.617 . S
N1313 C1314 1.379 . S
N1313 C1317 1.334 . S
C1314 N1313 1.379 . S
C1314 C1316 1.416 . S
C1314 C1322 1.424 . S
C1315 H1310 0.930 . S
C1315 C1317 1.390 . S
C1315 C1318 1.339 . S
C1316 C1314 1.416 . S
C1316 C1318 1.416 . S
C1316 C1349 1.448 . S
C1317 H1302 0.930 . S
C1317 N1313 1.334 . S
C1317 C1315 1.390 . S
C1318 C1315 1.339 . S
C1318 C1316 1.416 . S
C1318 H1325 0.930 . S
N1319 Tb1284 2.572 . S
N1319 C1320 1.340 . S
N1319 C1322 1.361 . S
C1320 H1306 0.930 . S
C1320 N1319 1.340 . S
C1320 C1324 1.407 . S
C1321 C1322 1.413 . S
C1321 C1323 1.416 . S
C1321 C1350 1.427 . S
C1322 C1314 1.424 . S
C1322 N1319 1.361 . S
C1322 C1321 1.413 . S
C1323 H1312 0.931 . S
C1323 C1321 1.416 . S
C1323 C1324 1.332 . S
C1324 H1303 0.929 . S
C1324 C1320 1.407 . S
C1324 C1323 1.332 . S
H1325 C1318 0.930 . S
H1326 C1349 0.930 . S
H1327 C1350 0.929 . S
O1328 Tb1284 2.465 . S
O1328 C1348 1.264 . S
O1329 Tb1284 2.387 . S
O1329 C1340 1.264 . S
O1330 Tb1295 2.349 . S
O1330 C1340 1.243 . S
O1331 Tb1284 2.428 . S
O1331 C1348 1.256 . S
O1332 Tb1284 2.308 . S
O1332 C1347 1.266 . S
O1333 Tb1295 2.393 . S
O1333 C1347 1.248 . S
O1334 Tb1295 2.465 . S
O1334 C1359 1.264 . S
O1335 Tb1295 2.387 . S
O1335 C1351 1.264 . S
O1336 Tb1284 2.349 . S
O1336 C1351 1.243 . S
O1337 Tb1295 2.428 . S
O1337 C1359 1.256 . S
O1338 Tb1295 2.308 . S
O1338 C1358 1.266 . S
O1339 Tb1284 2.393 . S
O1339 C1358 1.248 . S
C1340 O1329 1.264 . S
C1340 O1330 1.243 . S
C1341 C1344 1.399 . S
C1341 C1346 1.383 . S
C1341 C1348 1.496 . S
C1342 C1343 1.399 . S
C1342 C1346 1.389 . S
C1343 C1342 1.399 . S
C1343 C1345 1.380 . S
C1343 H1360 0.929 . S
C1344 C1341 1.399 . S
C1344 C1345 1.392 . S
C1344 H1361 0.929 . S
C1345 C1343 1.380 . S
C1345 C1344 1.392 . S
C1345 H1362 0.929 . S
C1346 C1341 1.383 . S
C1346 C1342 1.389 . S
C1346 H1363 0.931 . S
C1347 O1332 1.266 . S
C1347 O1333 1.248 . S
C1348 Tb1284 2.802 . S
C1348 O1328 1.264 . S
C1348 O1331 1.256 . S
C1348 C1341 1.496 . S
C1349 C1316 1.448 . S
C1349 H1326 0.930 . S
C1349 C1350 1.328 . S
C1350 C1321 1.427 . S
C1350 H1327 0.929 . S
C1350 C1349 1.328 . S
C1351 O1335 1.264 . S
C1351 O1336 1.243 . S
C1352 C1355 1.399 . S
C1352 C1356 1.383 . S
C1352 C1359 1.496 . S
C1353 C1354 1.399 . S
C1353 C1356 1.389 . S
C1354 C1353 1.399 . S
C1354 C1357 1.380 . S
C1354 H1364 0.929 . S
C1355 C1352 1.399 . S
C1355 C1357 1.392 . S
C1355 H1365 0.929 . S
C1356 C1352 1.383 . S
C1356 C1353 1.389 . S
C1356 H1366 0.931 . S
C1357 C1354 1.380 . S
C1357 C1355 1.392 . S
C1357 H1367 0.929 . S
C1358 O1338 1.266 . S
C1358 O1339 1.248 . S
C1359 Tb1295 2.802 . S
C1359 O1334 1.264 . S
C1359 O1337 1.256 . S
C1359 C1352 1.496 . S
H1360 C1343 0.929 . S
H1361 C1344 0.929 . S
H1362 C1345 0.929 . S
H1363 C1346 0.931 . S
H1364 C1354 0.929 . S
H1365 C1355 0.929 . S
H1366 C1356 0.931 . S
H1367 C1357 0.929 . S
Tb1368 N1397 2.617 . S
Tb1368 N1403 2.572 . S
Tb1368 O1412 2.465 . S
Tb1368 O1413 2.387 1_556 S
Tb1368 O1415 2.428 . S
Tb1368 O1416 2.308 1_556 S
Tb1368 O1420 2.349 1_556 S
Tb1368 O1423 2.393 1_556 S
Tb1368 C1432 2.802 . S
C1369 N1370 1.379 1_545 S
C1369 C1372 1.416 1_545 S
C1369 C1376 1.424 . S
N1370 C1369 1.379 1_565 S
N1370 C1373 1.334 . S
N1370 Tb1379 2.617 1_565 S
C1371 C1373 1.390 . S
C1371 C1374 1.339 . S
C1371 H1391 0.930 . S
C1372 C1369 1.416 1_565 S
C1372 C1374 1.416 . S
C1372 C1378 1.448 1_565 S
C1373 N1370 1.334 . S
C1373 C1371 1.390 . S
C1373 H1384 0.930 . S
C1374 C1371 1.339 . S
C1374 C1372 1.416 . S
C1374 H1395 0.930 . S
C1375 C1376 1.413 . S
C1375 C1377 1.427 . S
C1375 C1381 1.416 . S
C1376 C1369 1.424 . S
C1376 C1375 1.413 . S
C1376 N1380 1.361 . S
C1377 C1375 1.427 . S
C1377 C1378 1.328 . S
C1377 H1392 0.929 . S
C1378 C1372 1.448 1_545 S
C1378 C1377 1.328 . S
C1378 H1393 0.930 1_545 S
Tb1379 N1370 2.617 1_545 S
Tb1379 N1380 2.572 . S
Tb1379 O1414 2.349 . S
Tb1379 O1417 2.393 1_545 S
Tb1379 O1418 2.465 . S
Tb1379 O1419 2.387 . S
Tb1379 O1421 2.428 1_545 S
Tb1379 O1422 2.308 . S
Tb1379 C1443 2.802 . S
N1380 C1376 1.361 . S
N1380 Tb1379 2.572 . S
N1380 C1382 1.340 . S
C1381 C1375 1.416 . S
C1381 C1383 1.332 . S
C1381 H1389 0.931 . S
C1382 N1380 1.340 . S
C1382 C1383 1.407 . S
C1382 H1388 0.930 . S
C1383 C1381 1.332 . S
C1383 C1382 1.407 . S
C1383 H1385 0.929 . S
H1384 C1373 0.930 . S
H1385 C1383 0.929 . S
H1386 C1401 0.930 1_554 S
H1387 C1408 0.908 1_565 S
H1388 C1382 0.930 . S
H1389 C1381 0.931 . S
H1390 C1404 0.930 . S
H1391 C1371 0.930 . S
H1392 C1377 0.929 . S
H1393 C1378 0.930 1_565 S
H1394 C1399 0.930 . S
H1395 C1374 0.930 . S
H1396 C1407 0.931 . S
N1397 Tb1368 2.617 . S
N1397 C1398 1.379 . S
N1397 C1401 1.334 . S
C1398 N1397 1.379 . S
C1398 C1400 1.416 . S
C1398 C1406 1.424 . S
C1399 H1394 0.930 . S
C1399 C1401 1.390 . S
C1399 C1402 1.339 . S
C1400 C1398 1.416 . S
C1400 C1402 1.416 . S
C1400 C1433 1.448 . S
C1401 H1386 0.930 1_556 S
C1401 N1397 1.334 . S
C1401 C1399 1.390 . S
C1402 C1399 1.339 . S
C1402 C1400 1.416 . S
C1402 H1409 0.930 . S
N1403 Tb1368 2.572 . S
N1403 C1404 1.340 . S
N1403 C1406 1.361 . S
C1404 H1390 0.930 . S
C1404 N1403 1.340 . S
C1404 C1408 1.414 . S
C1405 C1406 1.413 . S
C1405 C1407 1.416 . S
C1405 C1434 1.427 . S
C1406 C1398 1.424 . S
C1406 N1403 1.361 . S
C1406 C1405 1.413 . S
C1407 H1396 0.931 . S
C1407 C1405 1.416 . S
C1407 C1408 1.348 . S
C1408 H1387 0.908 1_545 S
C1408 C1404 1.414 . S
C1408 C1407 1.348 . S
H1409 C1402 0.930 . S
H1410 C1433 0.930 . S
H1411 C1434 0.929 . S
O1412 Tb1368 2.465 . S
O1412 C1432 1.264 . S
O1413 Tb1368 2.387 1_554 S
O1413 C1424 1.264 . S
O1414 Tb1379 2.349 . S
O1414 C1424 1.243 . S
O1415 Tb1368 2.428 . S
O1415 C1432 1.256 . S
O1416 Tb1368 2.308 1_554 S
O1416 C1431 1.266 1_545 S
O1417 Tb1379 2.393 1_565 S
O1417 C1431 1.248 . S
O1418 Tb1379 2.465 . S
O1418 C1443 1.264 . S
O1419 Tb1379 2.387 . S
O1419 C1435 1.264 . S
O1420 Tb1368 2.349 1_554 S
O1420 C1435 1.243 . S
O1421 Tb1379 2.428 1_565 S
O1421 C1443 1.256 1_565 S
O1422 Tb1379 2.308 . S
O1422 C1442 1.266 . S
O1423 Tb1368 2.393 1_554 S
O1423 C1442 1.248 . S
C1424 O1413 1.264 . S
C1424 O1414 1.243 . S
C1425 C1428 1.399 . S
C1425 C1430 1.383 . S
C1425 C1432 1.496 . S
C1426 C1427 1.399 . S
C1426 C1430 1.389 . S
C1427 C1426 1.399 . S
C1427 C1429 1.380 . S
C1427 H1444 0.929 . S
C1428 C1425 1.399 . S
C1428 C1429 1.392 . S
C1428 H1445 0.929 . S
C1429 C1427 1.380 . S
C1429 C1428 1.392 . S
C1429 H1446 0.929 . S
C1430 C1425 1.383 . S
C1430 C1426 1.389 . S
C1430 H1447 0.931 . S
C1431 O1416 1.266 1_565 S
C1431 O1417 1.248 . S
C1432 Tb1368 2.802 . S
C1432 O1412 1.264 . S
C1432 O1415 1.256 . S
C1432 C1425 1.496 . S
C1433 C1400 1.448 . S
C1433 H1410 0.930 . S
C1433 C1434 1.328 . S
C1434 C1405 1.427 . S
C1434 H1411 0.929 . S
C1434 C1433 1.328 . S
C1435 O1419 1.264 . S
C1435 O1420 1.243 . S
C1436 C1439 1.399 . S
C1436 C1440 1.383 1_565 S
C1436 C1443 1.496 1_565 S
C1437 C1438 1.399 1_545 S
C1437 C1440 1.389 . S
C1438 C1437 1.399 1_565 S
C1438 C1441 1.380 . S
C1438 H1448 0.929 . S
C1439 C1436 1.399 . S
C1439 C1441 1.392 . S
C1439 H1449 0.929 . S
C1440 C1436 1.383 1_545 S
C1440 C1437 1.389 . S
C1440 H1450 0.931 . S
C1441 C1438 1.380 . S
C1441 C1439 1.392 . S
C1441 H1451 0.929 . S
C1442 O1422 1.266 . S
C1442 O1423 1.248 . S
C1443 Tb1379 2.802 . S
C1443 O1418 1.264 . S
C1443 O1421 1.256 1_545 S
C1443 C1436 1.496 1_545 S
H1444 C1427 0.929 . S
H1445 C1428 0.929 . S
H1446 C1429 0.929 . S
H1447 C1430 0.931 . S
H1448 C1438 0.929 . S
H1449 C1439 0.929 . S
H1450 C1440 0.931 . S
H1451 C1441 0.929 . S
Tb1452 N1481 2.617 . S
Tb1452 N1487 2.572 . S
Tb1452 O1496 2.465 . S
Tb1452 O1497 2.387 . S
Tb1452 O1499 2.428 . S
Tb1452 O1500 2.308 . S
Tb1452 O1504 2.349 . S
Tb1452 O1507 2.393 . S
Tb1452 C1516 2.802 . S
C1453 N1454 1.379 . S
C1453 C1456 1.416 . S
C1453 C1460 1.424 . S
N1454 C1453 1.379 . S
N1454 C1457 1.334 . S
N1454 Tb1463 2.617 . S
C1455 C1457 1.390 . S
C1455 C1458 1.339 . S
C1455 H1475 0.930 . S
C1456 C1453 1.416 . S
C1456 C1458 1.416 . S
C1456 C1462 1.448 . S
C1457 N1454 1.334 . S
C1457 C1455 1.390 . S
C1457 H1468 0.930 . S
C1458 C1455 1.339 . S
C1458 C1456 1.416 . S
C1458 H1479 0.930 . S
C1459 C1460 1.413 . S
C1459 C1461 1.427 . S
C1459 C1465 1.416 . S
C1460 C1453 1.424 . S
C1460 C1459 1.413 . S
C1460 N1464 1.361 . S
C1461 C1459 1.427 . S
C1461 C1462 1.328 . S
C1461 H1476 0.929 . S
C1462 C1456 1.448 . S
C1462 C1461 1.328 . S
C1462 H1477 0.930 . S
Tb1463 N1454 2.617 . S
Tb1463 N1464 2.572 . S
Tb1463 O1498 2.349 . S
Tb1463 O1501 2.393 . S
Tb1463 O1502 2.465 . S
Tb1463 O1503 2.387 . S
Tb1463 O1505 2.428 . S
Tb1463 O1506 2.308 . S
Tb1463 C1527 2.802 . S
N1464 C1460 1.361 . S
N1464 Tb1463 2.572 . S
N1464 C1466 1.340 . S
C1465 C1459 1.416 . S
C1465 C1467 1.332 . S
C1465 H1473 0.931 . S
C1466 N1464 1.340 . S
C1466 C1467 1.407 . S
C1466 H1472 0.930 . S
C1467 C1465 1.332 . S
C1467 C1466 1.407 . S
C1467 H1469 0.929 . S
H1468 C1457 0.930 . S
H1469 C1467 0.929 . S
H1470 C1485 0.930 . S
H1471 C1492 0.929 . S
H1472 C1466 0.930 . S
H1473 C1465 0.931 . S
H1474 C1488 0.930 . S
H1475 C1455 0.930 . S
H1476 C1461 0.929 . S
H1477 C1462 0.930 . S
H1478 C1483 0.930 . S
H1479 C1458 0.930 . S
H1480 C1491 0.931 . S
N1481 Tb1452 2.617 . S
N1481 C1482 1.379 . S
N1481 C1485 1.334 . S
C1482 N1481 1.379 . S
C1482 C1484 1.416 . S
C1482 C1490 1.424 . S
C1483 H1478 0.930 . S
C1483 C1485 1.390 . S
C1483 C1486 1.339 . S
C1484 C1482 1.416 . S
C1484 C1486 1.416 . S
C1484 C1517 1.448 . S
C1485 H1470 0.930 . S
C1485 N1481 1.334 . S
C1485 C1483 1.390 . S
C1486 C1483 1.339 . S
C1486 C1484 1.416 . S
C1486 H1493 0.930 . S
N1487 Tb1452 2.572 . S
N1487 C1488 1.340 . S
N1487 C1490 1.361 . S
C1488 H1474 0.930 . S
C1488 N1487 1.340 . S
C1488 C1492 1.407 . S
C1489 C1490 1.413 . S
C1489 C1491 1.416 . S
C1489 C1518 1.427 . S
C1490 C1482 1.424 . S
C1490 N1487 1.361 . S
C1490 C1489 1.413 . S
C1491 H1480 0.931 . S
C1491 C1489 1.416 . S
C1491 C1492 1.332 . S
C1492 H1471 0.929 . S
C1492 C1488 1.407 . S
C1492 C1491 1.332 . S
H1493 C1486 0.930 . S
H1494 C1517 0.930 . S
H1495 C1518 0.929 . S
O1496 Tb1452 2.465 . S
O1496 C1516 1.264 . S
O1497 Tb1452 2.387 . S
O1497 C1508 1.264 . S
O1498 Tb1463 2.349 . S
O1498 C1508 1.243 . S
O1499 Tb1452 2.428 . S
O1499 C1516 1.256 . S
O1500 Tb1452 2.308 . S
O1500 C1515 1.266 . S
O1501 Tb1463 2.393 . S
O1501 C1515 1.248 . S
O1502 Tb1463 2.465 . S
O1502 C1527 1.264 . S
O1503 Tb1463 2.387 . S
O1503 C1519 1.264 . S
O1504 Tb1452 2.349 . S
O1504 C1519 1.243 . S
O1505 Tb1463 2.428 . S
O1505 C1527 1.256 . S
O1506 Tb1463 2.308 . S
O1506 C1526 1.266 . S
O1507 Tb1452 2.393 . S
O1507 C1526 1.248 . S
C1508 O1497 1.264 . S
C1508 O1498 1.243 . S
C1509 C1512 1.399 . S
C1509 C1514 1.383 . S
C1509 C1516 1.496 . S
C1510 C1511 1.399 . S
C1510 C1514 1.389 . S
C1511 C1510 1.399 . S
C1511 C1513 1.380 . S
C1511 H1528 0.929 . S
C1512 C1509 1.399 . S
C1512 C1513 1.392 . S
C1512 H1529 0.929 . S
C1513 C1511 1.380 . S
C1513 C1512 1.392 . S
C1513 H1530 0.929 . S
C1514 C1509 1.383 . S
C1514 C1510 1.389 . S
C1514 H1531 0.931 . S
C1515 O1500 1.266 . S
C1515 O1501 1.248 . S
C1516 Tb1452 2.802 . S
C1516 O1496 1.264 . S
C1516 O1499 1.256 . S
C1516 C1509 1.496 . S
C1517 C1484 1.448 . S
C1517 H1494 0.930 . S
C1517 C1518 1.328 . S
C1518 C1489 1.427 . S
C1518 H1495 0.929 . S
C1518 C1517 1.328 . S
C1519 O1503 1.264 . S
C1519 O1504 1.243 . S
C1520 C1523 1.399 . S
C1520 C1524 1.383 . S
C1520 C1527 1.496 . S
C1521 C1522 1.399 . S
C1521 C1524 1.389 . S
C1522 C1521 1.399 . S
C1522 C1525 1.380 . S
C1522 H1532 0.929 . S
C1523 C1520 1.399 . S
C1523 C1525 1.392 . S
C1523 H1533 0.929 . S
C1524 C1520 1.383 . S
C1524 C1521 1.389 . S
C1524 H1534 0.931 . S
C1525 C1522 1.380 . S
C1525 C1523 1.392 . S
C1525 H1535 0.929 . S
C1526 O1506 1.266 . S
C1526 O1507 1.248 . S
C1527 Tb1463 2.802 . S
C1527 O1502 1.264 . S
C1527 O1505 1.256 . S
C1527 C1520 1.496 . S
H1528 C1511 0.929 . S
H1529 C1512 0.929 . S
H1530 C1513 0.929 . S
H1531 C1514 0.931 . S
H1532 C1522 0.929 . S
H1533 C1523 0.929 . S
H1534 C1524 0.931 . S
H1535 C1525 0.929 . S
Tb1536 N1565 2.617 1_554 S
Tb1536 N1571 2.572 1_554 S
Tb1536 O1580 2.465 . S
Tb1536 O1581 2.387 1_554 S
Tb1536 O1583 2.428 . S
Tb1536 O1584 2.308 . S
Tb1536 O1588 2.349 . S
Tb1536 O1591 2.393 . S
Tb1536 C1600 2.802 . S
C1537 N1538 1.379 . S
C1537 C1540 1.416 . S
C1537 C1544 1.424 . S
N1538 C1537 1.379 . S
N1538 C1541 1.334 . S
N1538 Tb1547 2.617 . S
C1539 C1541 1.390 . S
C1539 C1542 1.339 . S
C1539 H1559 0.930 . S
C1540 C1537 1.416 . S
C1540 C1542 1.416 . S
C1540 C1546 1.448 . S
C1541 N1538 1.334 . S
C1541 C1539 1.390 . S
C1541 H1552 0.930 . S
C1542 C1539 1.339 . S
C1542 C1540 1.416 . S
C1542 H1563 0.930 . S
C1543 C1544 1.413 . S
C1543 C1545 1.427 . S
C1543 C1549 1.416 . S
C1544 C1537 1.424 . S
C1544 C1543 1.413 . S
C1544 N1548 1.361 . S
C1545 C1543 1.427 . S
C1545 C1546 1.328 . S
C1545 H1560 0.929 . S
C1546 C1540 1.448 . S
C1546 C1545 1.328 . S
C1546 H1561 0.930 . S
Tb1547 N1538 2.617 . S
Tb1547 N1548 2.572 . S
Tb1547 O1582 2.349 1_554 S
Tb1547 O1585 2.393 . S
Tb1547 O1586 2.465 . S
Tb1547 O1587 2.387 . S
Tb1547 O1589 2.428 . S
Tb1547 O1590 2.308 . S
Tb1547 C1611 2.802 . S
N1548 C1544 1.361 . S
N1548 Tb1547 2.572 . S
N1548 C1550 1.340 . S
C1549 C1543 1.416 . S
C1549 C1551 1.332 . S
C1549 H1557 0.931 . S
C1550 N1548 1.340 . S
C1550 C1551 1.407 . S
C1550 H1556 0.930 . S
C1551 C1549 1.332 . S
C1551 C1550 1.407 . S
C1551 H1553 0.929 . S
H1552 C1541 0.930 . S
H1553 C1551 0.929 . S
H1554 C1569 0.930 1_554 S
H1555 C1576 0.929 . S
H1556 C1550 0.930 . S
H1557 C1549 0.931 . S
H1558 C1572 0.930 1_554 S
H1559 C1539 0.930 . S
H1560 C1545 0.929 . S
H1561 C1546 0.930 . S
H1562 C1567 0.930 . S
H1563 C1542 0.930 . S
H1564 C1575 0.931 . S
N1565 Tb1536 2.617 1_556 S
N1565 C1566 1.379 . S
N1565 C1569 1.334 . S
C1566 N1565 1.379 . S
C1566 C1568 1.416 . S
C1566 C1574 1.424 . S
C1567 H1562 0.930 . S
C1567 C1569 1.390 . S
C1567 C1570 1.339 . S
C1568 C1566 1.416 . S
C1568 C1570 1.416 . S
C1568 C1601 1.448 . S
C1569 H1554 0.930 1_556 S
C1569 N1565 1.334 . S
C1569 C1567 1.390 . S
C1570 C1567 1.339 . S
C1570 C1568 1.416 . S
C1570 H1577 0.930 . S
N1571 Tb1536 2.572 1_556 S
N1571 C1572 1.340 . S
N1571 C1574 1.361 . S
C1572 H1558 0.930 1_556 S
C1572 N1571 1.340 . S
C1572 C1576 1.407 . S
C1573 C1574 1.413 . S
C1573 C1575 1.416 . S
C1573 C1602 1.427 . S
C1574 C1566 1.424 . S
C1574 N1571 1.361 . S
C1574 C1573 1.413 . S
C1575 H1564 0.931 . S
C1575 C1573 1.416 . S
C1575 C1576 1.332 . S
C1576 H1555 0.929 . S
C1576 C1572 1.407 . S
C1576 C1575 1.332 . S
H1577 C1570 0.930 . S
H1578 C1601 0.930 . S
H1579 C1602 0.929 . S
O1580 Tb1536 2.465 . S
O1580 C1600 1.264 . S
O1581 Tb1536 2.387 1_556 S
O1581 C1592 1.264 . S
O1582 Tb1547 2.349 1_556 S
O1582 C1592 1.243 . S
O1583 Tb1536 2.428 . S
O1583 C1600 1.256 . S
O1584 Tb1536 2.308 . S
O1584 C1599 1.266 . S
O1585 Tb1547 2.393 . S
O1585 C1599 1.248 . S
O1586 Tb1547 2.465 . S
O1586 C1611 1.264 . S
O1587 Tb1547 2.387 . S
O1587 C1603 1.264 . S
O1588 Tb1536 2.349 . S
O1588 C1603 1.243 . S
O1589 Tb1547 2.428 . S
O1589 C1611 1.256 . S
O1590 Tb1547 2.308 . S
O1590 C1610 1.266 . S
O1591 Tb1536 2.393 . S
O1591 C1610 1.248 . S
C1592 O1581 1.264 . S
C1592 O1582 1.243 . S
C1593 C1596 1.399 . S
C1593 C1598 1.383 . S
C1593 C1600 1.496 . S
C1594 C1595 1.399 . S
C1594 C1598 1.389 . S
C1595 C1594 1.399 . S
C1595 C1597 1.380 . S
C1595 H1612 0.929 . S
C1596 C1593 1.399 . S
C1596 C1597 1.392 . S
C1596 H1613 0.929 . S
C1597 C1595 1.380 . S
C1597 C1596 1.392 . S
C1597 H1614 0.929 . S
C1598 C1593 1.383 . S
C1598 C1594 1.389 . S
C1598 H1615 0.931 . S
C1599 O1584 1.266 . S
C1599 O1585 1.248 . S
C1600 Tb1536 2.802 . S
C1600 O1580 1.264 . S
C1600 O1583 1.256 . S
C1600 C1593 1.496 . S
C1601 C1568 1.448 . S
C1601 H1578 0.930 . S
C1601 C1602 1.328 . S
C1602 C1573 1.427 . S
C1602 H1579 0.929 . S
C1602 C1601 1.328 . S
C1603 O1587 1.264 . S
C1603 O1588 1.243 . S
C1604 C1607 1.399 . S
C1604 C1608 1.383 . S
C1604 C1611 1.496 1_556 S
C1605 C1606 1.399 . S
C1605 C1608 1.389 . S
C1606 C1605 1.399 . S
C1606 C1609 1.380 . S
C1606 H1616 0.929 . S
C1607 C1604 1.399 . S
C1607 C1609 1.392 . S
C1607 H1617 0.929 . S
C1608 C1604 1.383 . S
C1608 C1605 1.389 . S
C1608 H1618 0.931 . S
C1609 C1606 1.380 . S
C1609 C1607 1.392 . S
C1609 H1619 0.929 . S
C1610 O1590 1.266 . S
C1610 O1591 1.248 . S
C1611 Tb1547 2.802 . S
C1611 O1586 1.264 . S
C1611 O1589 1.256 . S
C1611 C1604 1.496 1_554 S
H1612 C1595 0.929 . S
H1613 C1596 0.929 . S
H1614 C1597 0.929 . S
H1615 C1598 0.931 . S
H1616 C1606 0.929 . S
H1617 C1607 0.929 . S
H1618 C1608 0.931 . S
H1619 C1609 0.929 . S
Tb1620 N1649 2.617 . S
Tb1620 N1655 2.572 . S
Tb1620 O1664 2.465 . S
Tb1620 O1665 2.387 . S
Tb1620 O1667 2.428 . S
Tb1620 O1668 2.308 . S
Tb1620 O1672 2.349 . S
Tb1620 O1675 2.393 . S
Tb1620 C1684 2.802 . S
C1621 N1622 1.379 . S
C1621 C1624 1.416 . S
C1621 C1628 1.424 . S
N1622 C1621 1.379 . S
N1622 C1625 1.334 . S
N1622 Tb1631 2.617 . S
C1623 C1625 1.390 . S
C1623 C1626 1.339 . S
C1623 H1643 0.930 . S
C1624 C1621 1.416 . S
C1624 C1626 1.416 . S
C1624 C1630 1.448 . S
C1625 N1622 1.334 . S
C1625 C1623 1.390 . S
C1625 H1636 0.930 . S
C1626 C1623 1.339 . S
C1626 C1624 1.416 . S
C1626 H1647 0.930 . S
C1627 C1628 1.413 . S
C1627 C1629 1.427 . S
C1627 C1633 1.416 . S
C1628 C1621 1.424 . S
C1628 C1627 1.413 . S
C1628 N1632 1.361 . S
C1629 C1627 1.427 . S
C1629 C1630 1.328 . S
C1629 H1644 0.929 . S
C1630 C1624 1.448 . S
C1630 C1629 1.328 . S
C1630 H1645 0.930 . S
Tb1631 N1622 2.617 . S
Tb1631 N1632 2.572 . S
Tb1631 O1666 2.349 . S
Tb1631 O1669 2.393 . S
Tb1631 O1670 2.465 . S
Tb1631 O1671 2.387 . S
Tb1631 O1673 2.428 . S
Tb1631 O1674 2.308 . S
Tb1631 C1695 2.802 . S
N1632 C1628 1.361 . S
N1632 Tb1631 2.572 . S
N1632 C1634 1.340 . S
C1633 C1627 1.416 . S
C1633 C1635 1.332 . S
C1633 H1641 0.931 . S
C1634 N1632 1.340 . S
C1634 C1635 1.407 . S
C1634 H1640 0.930 . S
C1635 C1633 1.332 . S
C1635 C1634 1.407 . S
C1635 H1637 0.929 . S
H1636 C1625 0.930 . S
H1637 C1635 0.929 . S
H1638 C1653 0.930 . S
H1639 C1660 0.929 . S
H1640 C1634 0.930 . S
H1641 C1633 0.931 . S
H1642 C1656 0.930 . S
H1643 C1623 0.930 . S
H1644 C1629 0.929 . S
H1645 C1630 0.930 . S
H1646 C1651 0.930 . S
H1647 C1626 0.930 . S
H1648 C1659 0.931 . S
N1649 Tb1620 2.617 . S
N1649 C1650 1.379 . S
N1649 C1653 1.334 . S
C1650 N1649 1.379 . S
C1650 C1652 1.416 . S
C1650 C1658 1.424 . S
C1651 H1646 0.930 . S
C1651 C1653 1.390 . S
C1651 C1654 1.339 . S
C1652 C1650 1.416 . S
C1652 C1654 1.416 . S
C1652 C1685 1.448 . S
C1653 H1638 0.930 . S
C1653 N1649 1.334 . S
C1653 C1651 1.390 . S
C1654 C1651 1.339 . S
C1654 C1652 1.416 . S
C1654 H1661 0.930 . S
N1655 Tb1620 2.572 . S
N1655 C1656 1.340 . S
N1655 C1658 1.361 . S
C1656 H1642 0.930 . S
C1656 N1655 1.340 . S
C1656 C1660 1.407 . S
C1657 C1658 1.413 . S
C1657 C1659 1.416 . S
C1657 C1686 1.427 . S
C1658 C1650 1.424 . S
C1658 N1655 1.361 . S
C1658 C1657 1.413 . S
C1659 H1648 0.931 . S
C1659 C1657 1.416 . S
C1659 C1660 1.332 . S
C1660 H1639 0.929 . S
C1660 C1656 1.407 . S
C1660 C1659 1.332 . S
H1661 C1654 0.930 . S
H1662 C1685 0.930 . S
H1663 C1686 0.929 . S
O1664 Tb1620 2.465 . S
O1664 C1684 1.264 . S
O1665 Tb1620 2.387 . S
O1665 C1676 1.264 . S
O1666 Tb1631 2.349 . S
O1666 C1676 1.243 . S
O1667 Tb1620 2.428 . S
O1667 C1684 1.256 . S
O1668 Tb1620 2.308 . S
O1668 C1683 1.266 . S
O1669 Tb1631 2.393 . S
O1669 C1683 1.248 . S
O1670 Tb1631 2.465 . S
O1670 C1695 1.264 . S
O1671 Tb1631 2.387 . S
O1671 C1687 1.264 . S
O1672 Tb1620 2.349 . S
O1672 C1687 1.243 . S
O1673 Tb1631 2.428 . S
O1673 C1695 1.256 . S
O1674 Tb1631 2.308 . S
O1674 C1694 1.266 . S
O1675 Tb1620 2.393 . S
O1675 C1694 1.248 . S
C1676 O1665 1.264 . S
C1676 O1666 1.243 . S
C1677 C1680 1.399 . S
C1677 C1682 1.383 . S
C1677 C1684 1.496 . S
C1678 C1679 1.399 . S
C1678 C1682 1.389 . S
C1679 C1678 1.399 . S
C1679 C1681 1.380 . S
C1679 H1696 0.929 . S
C1680 C1677 1.399 . S
C1680 C1681 1.392 . S
C1680 H1697 0.929 . S
C1681 C1679 1.380 . S
C1681 C1680 1.392 . S
C1681 H1698 0.929 . S
C1682 C1677 1.383 . S
C1682 C1678 1.389 . S
C1682 H1699 0.931 . S
C1683 O1668 1.266 . S
C1683 O1669 1.248 . S
C1684 Tb1620 2.802 . S
C1684 O1664 1.264 . S
C1684 O1667 1.256 . S
C1684 C1677 1.496 . S
C1685 C1652 1.448 . S
C1685 H1662 0.930 . S
C1685 C1686 1.328 . S
C1686 C1657 1.427 . S
C1686 H1663 0.929 . S
C1686 C1685 1.328 . S
C1687 O1671 1.264 . S
C1687 O1672 1.243 . S
C1688 C1691 1.399 . S
C1688 C1692 1.383 . S
C1688 C1695 1.496 . S
C1689 C1690 1.399 . S
C1689 C1692 1.389 . S
C1690 C1689 1.399 . S
C1690 C1693 1.380 . S
C1690 H1700 0.929 . S
C1691 C1688 1.399 . S
C1691 C1693 1.392 . S
C1691 H1701 0.929 . S
C1692 C1688 1.383 . S
C1692 C1689 1.389 . S
C1692 H1702 0.931 . S
C1693 C1690 1.380 . S
C1693 C1691 1.392 . S
C1693 H1703 0.929 . S
C1694 O1674 1.266 . S
C1694 O1675 1.248 . S
C1695 Tb1631 2.802 . S
C1695 O1670 1.264 . S
C1695 O1673 1.256 . S
C1695 C1688 1.496 . S
H1696 C1679 0.929 . S
H1697 C1680 0.929 . S
H1698 C1681 0.929 . S
H1699 C1682 0.931 . S
H1700 C1690 0.929 . S
H1701 C1691 0.929 . S
H1702 C1692 0.931 . S
H1703 C1693 0.929 . S
Tb1704 N1733 2.614 . S
Tb1704 N1739 2.572 1_455 S
Tb1704 O1748 2.465 . S
Tb1704 O1749 2.387 1_455 S
Tb1704 O1751 2.428 . S
Tb1704 O1752 2.308 . S
Tb1704 O1756 2.349 . S
Tb1704 O1759 2.393 . S
Tb1704 C1768 2.802 . S
C1705 N1706 1.379 . S
C1705 C1708 1.416 . S
C1705 C1712 1.424 . S
N1706 C1705 1.379 . S
N1706 C1709 1.334 . S
N1706 Tb1715 2.617 . S
C1707 C1709 1.390 . S
C1707 C1710 1.339 . S
C1707 H1727 0.930 . S
C1708 C1705 1.416 . S
C1708 C1710 1.416 . S
C1708 C1714 1.448 . S
C1709 N1706 1.334 . S
C1709 C1707 1.390 . S
C1709 H1720 0.930 . S
C1710 C1707 1.339 . S
C1710 C1708 1.416 . S
C1710 H1731 0.930 . S
C1711 C1712 1.413 . S
C1711 C1713 1.427 . S
C1711 C1717 1.416 . S
C1712 C1705 1.424 . S
C1712 C1711 1.413 . S
C1712 N1716 1.361 . S
C1713 C1711 1.427 . S
C1713 C1714 1.328 . S
C1713 H1728 0.929 . S
C1714 C1708 1.448 . S
C1714 C1713 1.328 . S
C1714 H1729 0.930 . S
Tb1715 N1706 2.617 . S
Tb1715 N1716 2.572 . S
Tb1715 O1750 2.349 1_455 S
Tb1715 O1753 2.393 . S
Tb1715 O1754 2.465 . S
Tb1715 O1755 2.387 . S
Tb1715 O1757 2.428 . S
Tb1715 O1758 2.308 . S
Tb1715 C1779 2.802 . S
N1716 C1712 1.361 . S
N1716 Tb1715 2.572 . S
N1716 C1718 1.340 . S
C1717 C1711 1.416 . S
C1717 C1719 1.332 . S
C1717 H1725 0.931 . S
C1718 N1716 1.340 . S
C1718 C1719 1.407 . S
C1718 H1724 0.930 . S
C1719 C1717 1.332 . S
C1719 C1718 1.407 . S
C1719 H1721 0.929 . S
H1720 C1709 0.930 . S
H1721 C1719 0.929 . S
H1722 C1737 0.930 . S
H1723 C1744 0.929 . S
H1724 C1718 0.930 . S
H1725 C1717 0.931 . S
H1726 C1740 0.930 1_455 S
H1727 C1707 0.930 . S
H1728 C1713 0.929 . S
H1729 C1714 0.930 . S
H1730 C1735 0.930 . S
H1731 C1710 0.930 . S
H1732 C1743 0.931 . S
N1733 Tb1704 2.614 . S
N1733 C1734 1.382 1_455 S
N1733 C1737 1.335 . S
C1734 N1733 1.382 1_655 S
C1734 C1736 1.416 . S
C1734 C1742 1.424 . S
C1735 H1730 0.930 . S
C1735 C1737 1.390 1_655 S
C1735 C1738 1.339 . S
C1736 C1734 1.416 . S
C1736 C1738 1.416 . S
C1736 C1769 1.448 . S
C1737 H1722 0.930 . S
C1737 N1733 1.335 . S
C1737 C1735 1.390 1_455 S
C1738 C1735 1.339 . S
C1738 C1736 1.416 . S
C1738 H1745 0.930 . S
N1739 Tb1704 2.572 1_655 S
N1739 C1740 1.340 . S
N1739 C1742 1.361 . S
C1740 H1726 0.930 1_655 S
C1740 N1739 1.340 . S
C1740 C1744 1.407 . S
C1741 C1742 1.413 . S
C1741 C1743 1.416 . S
C1741 C1770 1.427 . S
C1742 C1734 1.424 . S
C1742 N1739 1.361 . S
C1742 C1741 1.413 . S
C1743 H1732 0.931 . S
C1743 C1741 1.416 . S
C1743 C1744 1.332 . S
C1744 H1723 0.929 . S
C1744 C1740 1.407 . S
C1744 C1743 1.332 . S
H1745 C1738 0.930 . S
H1746 C1769 0.930 . S
H1747 C1770 0.929 . S
O1748 Tb1704 2.465 . S
O1748 C1768 1.264 . S
O1749 Tb1704 2.387 1_655 S
O1749 C1760 1.264 . S
O1750 Tb1715 2.349 1_655 S
O1750 C1760 1.243 . S
O1751 Tb1704 2.428 . S
O1751 C1768 1.256 . S
O1752 Tb1704 2.308 . S
O1752 C1767 1.266 . S
O1753 Tb1715 2.393 . S
O1753 C1767 1.248 . S
O1754 Tb1715 2.465 . S
O1754 C1779 1.264 . S
O1755 Tb1715 2.387 . S
O1755 C1771 1.264 . S
O1756 Tb1704 2.349 . S
O1756 C1771 1.243 . S
O1757 Tb1715 2.428 . S
O1757 C1779 1.256 . S
O1758 Tb1715 2.308 . S
O1758 C1778 1.266 . S
O1759 Tb1704 2.393 . S
O1759 C1778 1.248 . S
C1760 O1749 1.264 . S
C1760 O1750 1.243 . S
C1761 C1764 1.399 . S
C1761 C1766 1.383 . S
C1761 C1768 1.496 . S
C1762 C1763 1.399 . S
C1762 C1766 1.389 . S
C1763 C1762 1.399 . S
C1763 C1765 1.380 . S
C1763 H1780 0.929 . S
C1764 C1761 1.399 . S
C1764 C1765 1.392 . S
C1764 H1781 0.929 . S
C1765 C1763 1.380 . S
C1765 C1764 1.392 . S
C1765 H1782 0.929 . S
C1766 C1761 1.383 . S
C1766 C1762 1.389 . S
C1766 H1783 0.931 . S
C1767 O1752 1.266 . S
C1767 O1753 1.248 . S
C1768 Tb1704 2.802 . S
C1768 O1748 1.264 . S
C1768 O1751 1.256 . S
C1768 C1761 1.496 . S
C1769 C1736 1.448 . S
C1769 H1746 0.930 . S
C1769 C1770 1.328 . S
C1770 C1741 1.427 . S
C1770 H1747 0.929 . S
C1770 C1769 1.328 . S
C1771 O1755 1.264 . S
C1771 O1756 1.243 . S
C1772 C1775 1.399 . S
C1772 C1776 1.383 . S
C1772 C1779 1.496 1_655 S
C1773 C1774 1.399 . S
C1773 C1776 1.389 . S
C1774 C1773 1.399 . S
C1774 C1777 1.380 . S
C1774 H1784 0.929 . S
C1775 C1772 1.399 . S
C1775 C1777 1.392 . S
C1775 H1785 0.929 . S
C1776 C1772 1.383 . S
C1776 C1773 1.389 . S
C1776 H1786 0.931 . S
C1777 C1774 1.380 . S
C1777 C1775 1.392 . S
C1777 H1787 0.929 . S
C1778 O1758 1.266 . S
C1778 O1759 1.248 . S
C1779 Tb1715 2.802 . S
C1779 O1754 1.264 . S
C1779 O1757 1.256 . S
C1779 C1772 1.496 1_455 S
H1780 C1763 0.929 . S
H1781 C1764 0.929 . S
H1782 C1765 0.929 . S
H1783 C1766 0.931 . S
H1784 C1774 0.929 . S
H1785 C1775 0.929 . S
H1786 C1776 0.931 . S
H1787 C1777 0.929 . S
Tb1788 N1817 2.617 . S
Tb1788 N1823 2.572 . S
Tb1788 O1832 2.465 . S
Tb1788 O1833 2.387 . S
Tb1788 O1835 2.428 . S
Tb1788 O1836 2.308 . S
Tb1788 O1840 2.349 . S
Tb1788 O1843 2.393 . S
Tb1788 C1852 2.802 . S
C1789 N1790 1.379 . S
C1789 C1792 1.416 . S
C1789 C1796 1.424 . S
N1790 C1789 1.379 . S
N1790 C1793 1.334 . S
N1790 Tb1799 2.617 . S
C1791 C1793 1.390 . S
C1791 C1794 1.339 . S
C1791 H1811 0.930 . S
C1792 C1789 1.416 . S
C1792 C1794 1.416 . S
C1792 C1798 1.448 . S
C1793 N1790 1.334 . S
C1793 C1791 1.390 . S
C1793 H1804 0.930 . S
C1794 C1791 1.339 . S
C1794 C1792 1.416 . S
C1794 H1815 0.930 . S
C1795 C1796 1.413 . S
C1795 C1797 1.427 . S
C1795 C1801 1.416 . S
C1796 C1789 1.424 . S
C1796 C1795 1.413 . S
C1796 N1800 1.361 . S
C1797 C1795 1.427 . S
C1797 C1798 1.328 . S
C1797 H1812 0.929 . S
C1798 C1792 1.448 . S
C1798 C1797 1.328 . S
C1798 H1813 0.930 . S
Tb1799 N1790 2.617 . S
Tb1799 N1800 2.572 . S
Tb1799 O1834 2.349 . S
Tb1799 O1837 2.393 . S
Tb1799 O1838 2.465 . S
Tb1799 O1839 2.387 . S
Tb1799 O1841 2.428 . S
Tb1799 O1842 2.308 . S
Tb1799 C1863 2.802 . S
N1800 C1796 1.361 . S
N1800 Tb1799 2.572 . S
N1800 C1802 1.340 . S
C1801 C1795 1.416 . S
C1801 C1803 1.332 . S
C1801 H1809 0.931 . S
C1802 N1800 1.340 . S
C1802 C1803 1.407 . S
C1802 H1808 0.930 . S
C1803 C1801 1.332 . S
C1803 C1802 1.407 . S
C1803 H1805 0.929 . S
H1804 C1793 0.930 . S
H1805 C1803 0.929 . S
H1806 C1821 0.930 . S
H1807 C1828 0.929 . S
H1808 C1802 0.930 . S
H1809 C1801 0.931 . S
H1810 C1824 0.930 . S
H1811 C1791 0.930 . S
H1812 C1797 0.929 . S
H1813 C1798 0.930 . S
H1814 C1819 0.930 . S
H1815 C1794 0.930 . S
H1816 C1827 0.931 . S
N1817 Tb1788 2.617 . S
N1817 C1818 1.379 . S
N1817 C1821 1.334 . S
C1818 N1817 1.379 . S
C1818 C1820 1.416 . S
C1818 C1826 1.424 . S
C1819 H1814 0.930 . S
C1819 C1821 1.390 . S
C1819 C1822 1.339 . S
C1820 C1818 1.416 . S
C1820 C1822 1.416 . S
C1820 C1853 1.448 . S
C1821 H1806 0.930 . S
C1821 N1817 1.334 . S
C1821 C1819 1.390 . S
C1822 C1819 1.339 . S
C1822 C1820 1.416 . S
C1822 H1829 0.930 . S
N1823 Tb1788 2.572 . S
N1823 C1824 1.340 . S
N1823 C1826 1.361 . S
C1824 H1810 0.930 . S
C1824 N1823 1.340 . S
C1824 C1828 1.407 . S
C1825 C1826 1.413 . S
C1825 C1827 1.416 . S
C1825 C1854 1.427 . S
C1826 C1818 1.424 . S
C1826 N1823 1.361 . S
C1826 C1825 1.413 . S
C1827 H1816 0.931 . S
C1827 C1825 1.416 . S
C1827 C1828 1.332 . S
C1828 H1807 0.929 . S
C1828 C1824 1.407 . S
C1828 C1827 1.332 . S
H1829 C1822 0.930 . S
H1830 C1853 0.930 . S
H1831 C1854 0.929 . S
O1832 Tb1788 2.465 . S
O1832 C1852 1.264 . S
O1833 Tb1788 2.387 . S
O1833 C1844 1.264 . S
O1834 Tb1799 2.349 . S
O1834 C1844 1.243 . S
O1835 Tb1788 2.428 . S
O1835 C1852 1.256 . S
O1836 Tb1788 2.308 . S
O1836 C1851 1.266 . S
O1837 Tb1799 2.393 . S
O1837 C1851 1.248 . S
O1838 Tb1799 2.465 . S
O1838 C1863 1.264 . S
O1839 Tb1799 2.387 . S
O1839 C1855 1.264 . S
O1840 Tb1788 2.349 . S
O1840 C1855 1.243 . S
O1841 Tb1799 2.428 . S
O1841 C1863 1.256 . S
O1842 Tb1799 2.308 . S
O1842 C1862 1.266 . S
O1843 Tb1788 2.393 . S
O1843 C1862 1.248 . S
C1844 O1833 1.264 . S
C1844 O1834 1.243 . S
C1845 C1848 1.399 . S
C1845 C1850 1.383 . S
C1845 C1852 1.496 . S
C1846 C1847 1.399 . S
C1846 C1850 1.389 . S
C1847 C1846 1.399 . S
C1847 C1849 1.380 . S
C1847 H1864 0.929 . S
C1848 C1845 1.399 . S
C1848 C1849 1.392 . S
C1848 H1865 0.929 . S
C1849 C1847 1.380 . S
C1849 C1848 1.392 . S
C1849 H1866 0.929 . S
C1850 C1845 1.383 . S
C1850 C1846 1.389 . S
C1850 H1867 0.931 . S
C1851 O1836 1.266 . S
C1851 O1837 1.248 . S
C1852 Tb1788 2.802 . S
C1852 O1832 1.264 . S
C1852 O1835 1.256 . S
C1852 C1845 1.496 . S
C1853 C1820 1.448 . S
C1853 H1830 0.930 . S
C1853 C1854 1.328 . S
C1854 C1825 1.427 . S
C1854 H1831 0.929 . S
C1854 C1853 1.328 . S
C1855 O1839 1.264 . S
C1855 O1840 1.243 . S
C1856 C1859 1.399 . S
C1856 C1860 1.383 . S
C1856 C1863 1.496 . S
C1857 C1858 1.399 . S
C1857 C1860 1.389 . S
C1858 C1857 1.399 . S
C1858 C1861 1.380 . S
C1858 H1868 0.929 . S
C1859 C1856 1.399 . S
C1859 C1861 1.392 . S
C1859 H1869 0.929 . S
C1860 C1856 1.383 . S
C1860 C1857 1.389 . S
C1860 H1870 0.931 . S
C1861 C1858 1.380 . S
C1861 C1859 1.392 . S
C1861 H1871 0.929 . S
C1862 O1842 1.266 . S
C1862 O1843 1.248 . S
C1863 Tb1799 2.802 . S
C1863 O1838 1.264 . S
C1863 O1841 1.256 . S
C1863 C1856 1.496 . S
H1864 C1847 0.929 . S
H1865 C1848 0.929 . S
H1866 C1849 0.929 . S
H1867 C1850 0.931 . S
H1868 C1858 0.929 . S
H1869 C1859 0.929 . S
H1870 C1860 0.931 . S
H1871 C1861 0.929 . S
Tb1872 N1901 2.617 . S
Tb1872 N1907 2.572 . S
Tb1872 O1916 2.465 . S
Tb1872 O1917 2.387 . S
Tb1872 O1919 2.428 . S
Tb1872 O1920 2.308 . S
Tb1872 O1924 2.349 . S
Tb1872 O1927 2.393 . S
Tb1872 C1936 2.802 . S
C1873 N1874 1.379 . S
C1873 C1876 1.416 . S
C1873 C1880 1.424 . S
N1874 C1873 1.379 . S
N1874 C1877 1.334 . S
N1874 Tb1883 2.617 . S
C1875 C1877 1.390 . S
C1875 C1878 1.339 . S
C1875 H1895 0.930 . S
C1876 C1873 1.416 . S
C1876 C1878 1.416 . S
C1876 C1882 1.448 . S
C1877 N1874 1.334 . S
C1877 C1875 1.390 . S
C1877 H1888 0.930 . S
C1878 C1875 1.339 . S
C1878 C1876 1.416 . S
C1878 H1899 0.930 . S
C1879 C1880 1.413 . S
C1879 C1881 1.427 . S
C1879 C1885 1.416 . S
C1880 C1873 1.424 . S
C1880 C1879 1.413 . S
C1880 N1884 1.361 . S
C1881 C1879 1.427 . S
C1881 C1882 1.328 . S
C1881 H1896 0.929 . S
C1882 C1876 1.448 . S
C1882 C1881 1.328 . S
C1882 H1897 0.930 . S
Tb1883 N1874 2.617 . S
Tb1883 N1884 2.572 . S
Tb1883 O1918 2.349 . S
Tb1883 O1921 2.393 . S
Tb1883 O1922 2.465 . S
Tb1883 O1923 2.387 . S
Tb1883 O1925 2.428 . S
Tb1883 O1926 2.308 . S
Tb1883 C1947 2.802 . S
N1884 C1880 1.361 . S
N1884 Tb1883 2.572 . S
N1884 C1886 1.340 . S
C1885 C1879 1.416 . S
C1885 C1887 1.332 . S
C1885 H1893 0.931 . S
C1886 N1884 1.340 . S
C1886 C1887 1.407 . S
C1886 H1892 0.930 . S
C1887 C1885 1.332 . S
C1887 C1886 1.407 . S
C1887 H1889 0.929 . S
H1888 C1877 0.930 . S
H1889 C1887 0.929 . S
H1890 C1905 0.930 . S
H1891 C1912 0.929 . S
H1892 C1886 0.930 . S
H1893 C1885 0.931 . S
H1894 C1908 0.930 . S
H1895 C1875 0.930 . S
H1896 C1881 0.929 . S
H1897 C1882 0.930 . S
H1898 C1903 0.930 . S
H1899 C1878 0.930 . S
H1900 C1911 0.931 . S
N1901 Tb1872 2.617 . S
N1901 C1902 1.379 . S
N1901 C1905 1.334 . S
C1902 N1901 1.379 . S
C1902 C1904 1.416 . S
C1902 C1910 1.424 . S
C1903 H1898 0.930 . S
C1903 C1905 1.390 . S
C1903 C1906 1.339 . S
C1904 C1902 1.416 . S
C1904 C1906 1.416 . S
C1904 C1937 1.448 . S
C1905 H1890 0.930 . S
C1905 N1901 1.334 . S
C1905 C1903 1.390 . S
C1906 C1903 1.339 . S
C1906 C1904 1.416 . S
C1906 H1913 0.930 . S
N1907 Tb1872 2.572 . S
N1907 C1908 1.340 . S
N1907 C1910 1.361 . S
C1908 H1894 0.930 . S
C1908 N1907 1.340 . S
C1908 C1912 1.407 . S
C1909 C1910 1.413 . S
C1909 C1911 1.416 . S
C1909 C1938 1.427 . S
C1910 C1902 1.424 . S
C1910 N1907 1.361 . S
C1910 C1909 1.413 . S
C1911 H1900 0.931 . S
C1911 C1909 1.416 . S
C1911 C1912 1.332 . S
C1912 H1891 0.929 . S
C1912 C1908 1.407 . S
C1912 C1911 1.332 . S
H1913 C1906 0.930 . S
H1914 C1937 0.930 . S
H1915 C1938 0.929 . S
O1916 Tb1872 2.465 . S
O1916 C1936 1.264 . S
O1917 Tb1872 2.387 . S
O1917 C1928 1.264 . S
O1918 Tb1883 2.349 . S
O1918 C1928 1.243 . S
O1919 Tb1872 2.428 . S
O1919 C1936 1.256 . S
O1920 Tb1872 2.308 . S
O1920 C1935 1.266 . S
O1921 Tb1883 2.393 . S
O1921 C1935 1.248 . S
O1922 Tb1883 2.465 . S
O1922 C1947 1.264 . S
O1923 Tb1883 2.387 . S
O1923 C1939 1.264 . S
O1924 Tb1872 2.349 . S
O1924 C1939 1.243 . S
O1925 Tb1883 2.428 . S
O1925 C1947 1.256 . S
O1926 Tb1883 2.308 . S
O1926 C1946 1.266 . S
O1927 Tb1872 2.393 . S
O1927 C1946 1.248 . S
C1928 O1917 1.264 . S
C1928 O1918 1.243 . S
C1929 C1932 1.399 . S
C1929 C1934 1.383 . S
C1929 C1936 1.496 . S
C1930 C1931 1.399 . S
C1930 C1934 1.389 . S
C1931 C1930 1.399 . S
C1931 C1933 1.380 . S
C1931 H1948 0.929 . S
C1932 C1929 1.399 . S
C1932 C1933 1.392 . S
C1932 H1949 0.929 . S
C1933 C1931 1.380 . S
C1933 C1932 1.392 . S
C1933 H1950 0.929 . S
C1934 C1929 1.383 . S
C1934 C1930 1.389 . S
C1934 H1951 0.931 . S
C1935 O1920 1.266 . S
C1935 O1921 1.248 . S
C1936 Tb1872 2.802 . S
C1936 O1916 1.264 . S
C1936 O1919 1.256 . S
C1936 C1929 1.496 . S
C1937 C1904 1.448 . S
C1937 H1914 0.930 . S
C1937 C1938 1.328 . S
C1938 C1909 1.427 . S
C1938 H1915 0.929 . S
C1938 C1937 1.328 . S
C1939 O1923 1.264 . S
C1939 O1924 1.243 . S
C1940 C1943 1.399 . S
C1940 C1944 1.383 . S
C1940 C1947 1.496 . S
C1941 C1942 1.399 . S
C1941 C1944 1.389 . S
C1942 C1941 1.399 . S
C1942 C1945 1.380 . S
C1942 H1952 0.929 . S
C1943 C1940 1.399 . S
C1943 C1945 1.392 . S
C1943 H1953 0.929 . S
C1944 C1940 1.383 . S
C1944 C1941 1.389 . S
C1944 H1954 0.931 . S
C1945 C1942 1.380 . S
C1945 C1943 1.392 . S
C1945 H1955 0.929 . S
C1946 O1926 1.266 . S
C1946 O1927 1.248 . S
C1947 Tb1883 2.802 . S
C1947 O1922 1.264 . S
C1947 O1925 1.256 . S
C1947 C1940 1.496 . S
H1948 C1931 0.929 . S
H1949 C1932 0.929 . S
H1950 C1933 0.929 . S
H1951 C1934 0.931 . S
H1952 C1942 0.929 . S
H1953 C1943 0.929 . S
H1954 C1944 0.931 . S
H1955 C1945 0.929 . S
Tb1956 N1985 2.617 . S
Tb1956 N1991 2.572 . S
Tb1956 O2000 2.465 . S
Tb1956 O2001 2.387 . S
Tb1956 O2003 2.428 . S
Tb1956 O2004 2.308 . S
Tb1956 O2008 2.349 . S
Tb1956 O2011 2.393 . S
Tb1956 C2020 2.802 . S
C1957 N1958 1.379 . S
C1957 C1960 1.416 . S
C1957 C1964 1.424 . S
N1958 C1957 1.379 . S
N1958 C1961 1.334 . S
N1958 Tb1967 2.617 . S
C1959 C1961 1.390 . S
C1959 C1962 1.339 . S
C1959 H1979 0.930 . S
C1960 C1957 1.416 . S
C1960 C1962 1.416 . S
C1960 C1966 1.448 . S
C1961 N1958 1.334 . S
C1961 C1959 1.390 . S
C1961 H1972 0.930 . S
C1962 C1959 1.339 . S
C1962 C1960 1.416 . S
C1962 H1983 0.930 . S
C1963 C1964 1.413 . S
C1963 C1965 1.427 . S
C1963 C1969 1.416 . S
C1964 C1957 1.424 . S
C1964 C1963 1.413 . S
C1964 N1968 1.361 . S
C1965 C1963 1.427 . S
C1965 C1966 1.328 . S
C1965 H1980 0.929 . S
C1966 C1960 1.448 . S
C1966 C1965 1.328 . S
C1966 H1981 0.930 . S
Tb1967 N1958 2.617 . S
Tb1967 N1968 2.572 . S
Tb1967 O2002 2.349 . S
Tb1967 O2005 2.393 . S
Tb1967 O2006 2.465 . S
Tb1967 O2007 2.387 . S
Tb1967 O2009 2.428 . S
Tb1967 O2010 2.308 . S
Tb1967 C2031 2.802 . S
N1968 C1964 1.361 . S
N1968 Tb1967 2.572 . S
N1968 C1970 1.340 . S
C1969 C1963 1.416 . S
C1969 C1971 1.332 . S
C1969 H1977 0.931 . S
C1970 N1968 1.340 . S
C1970 C1971 1.407 . S
C1970 H1976 0.930 . S
C1971 C1969 1.332 . S
C1971 C1970 1.407 . S
C1971 H1973 0.929 . S
H1972 C1961 0.930 . S
H1973 C1971 0.929 . S
H1974 C1989 0.930 . S
H1975 C1996 0.929 . S
H1976 C1970 0.930 . S
H1977 C1969 0.931 . S
H1978 C1992 0.930 . S
H1979 C1959 0.930 . S
H1980 C1965 0.929 . S
H1981 C1966 0.930 . S
H1982 C1987 0.930 . S
H1983 C1962 0.930 . S
H1984 C1995 0.931 . S
N1985 Tb1956 2.617 . S
N1985 C1986 1.379 . S
N1985 C1989 1.334 . S
C1986 N1985 1.379 . S
C1986 C1988 1.416 . S
C1986 C1994 1.424 . S
C1987 H1982 0.930 . S
C1987 C1989 1.390 . S
C1987 C1990 1.339 . S
C1988 C1986 1.416 . S
C1988 C1990 1.416 . S
C1988 C2021 1.448 . S
C1989 H1974 0.930 . S
C1989 N1985 1.334 . S
C1989 C1987 1.390 . S
C1990 C1987 1.339 . S
C1990 C1988 1.416 . S
C1990 H1997 0.930 . S
N1991 Tb1956 2.572 . S
N1991 C1992 1.340 . S
N1991 C1994 1.361 . S
C1992 H1978 0.930 . S
C1992 N1991 1.340 . S
C1992 C1996 1.407 . S
C1993 C1994 1.413 . S
C1993 C1995 1.416 . S
C1993 C2022 1.427 . S
C1994 C1986 1.424 . S
C1994 N1991 1.361 . S
C1994 C1993 1.413 . S
C1995 H1984 0.931 . S
C1995 C1993 1.416 . S
C1995 C1996 1.332 . S
C1996 H1975 0.929 . S
C1996 C1992 1.407 . S
C1996 C1995 1.332 . S
H1997 C1990 0.930 . S
H1998 C2021 0.930 . S
H1999 C2022 0.929 . S
O2000 Tb1956 2.465 . S
O2000 C2020 1.264 . S
O2001 Tb1956 2.387 . S
O2001 C2012 1.264 . S
O2002 Tb1967 2.349 . S
O2002 C2012 1.243 . S
O2003 Tb1956 2.428 . S
O2003 C2020 1.256 . S
O2004 Tb1956 2.308 . S
O2004 C2019 1.266 . S
O2005 Tb1967 2.393 . S
O2005 C2019 1.248 . S
O2006 Tb1967 2.465 . S
O2006 C2031 1.264 . S
O2007 Tb1967 2.387 . S
O2007 C2023 1.264 . S
O2008 Tb1956 2.349 . S
O2008 C2023 1.243 . S
O2009 Tb1967 2.428 . S
O2009 C2031 1.256 . S
O2010 Tb1967 2.308 . S
O2010 C2030 1.266 . S
O2011 Tb1956 2.393 . S
O2011 C2030 1.248 . S
C2012 O2001 1.264 . S
C2012 O2002 1.243 . S
C2013 C2016 1.399 . S
C2013 C2018 1.383 . S
C2013 C2020 1.496 . S
C2014 C2015 1.399 . S
C2014 C2018 1.389 . S
C2015 C2014 1.399 . S
C2015 C2017 1.380 . S
C2015 H2032 0.929 . S
C2016 C2013 1.399 . S
C2016 C2017 1.392 . S
C2016 H2033 0.929 . S
C2017 C2015 1.380 . S
C2017 C2016 1.392 . S
C2017 H2034 0.929 . S
C2018 C2013 1.383 . S
C2018 C2014 1.389 . S
C2018 H2035 0.931 . S
C2019 O2004 1.266 . S
C2019 O2005 1.248 . S
C2020 Tb1956 2.802 . S
C2020 O2000 1.264 . S
C2020 O2003 1.256 . S
C2020 C2013 1.496 . S
C2021 C1988 1.448 . S
C2021 H1998 0.930 . S
C2021 C2022 1.328 . S
C2022 C1993 1.427 . S
C2022 H1999 0.929 . S
C2022 C2021 1.328 . S
C2023 O2007 1.264 . S
C2023 O2008 1.243 . S
C2024 C2027 1.399 . S
C2024 C2028 1.383 . S
C2024 C2031 1.496 . S
C2025 C2026 1.399 . S
C2025 C2028 1.389 . S
C2026 C2025 1.399 . S
C2026 C2029 1.380 . S
C2026 H2036 0.929 . S
C2027 C2024 1.399 . S
C2027 C2029 1.392 . S
C2027 H2037 0.929 . S
C2028 C2024 1.383 . S
C2028 C2025 1.389 . S
C2028 H2038 0.931 . S
C2029 C2026 1.380 . S
C2029 C2027 1.392 . S
C2029 H2039 0.929 . S
C2030 O2010 1.266 . S
C2030 O2011 1.248 . S
C2031 Tb1967 2.802 . S
C2031 O2006 1.264 . S
C2031 O2009 1.256 . S
C2031 C2024 1.496 . S
H2032 C2015 0.929 . S
H2033 C2016 0.929 . S
H2034 C2017 0.929 . S
H2035 C2018 0.931 . S
H2036 C2026 0.929 . S
H2037 C2027 0.929 . S
H2038 C2028 0.931 . S
H2039 C2029 0.929 . S
Tb2040 N2069 2.617 . S
Tb2040 N2075 2.572 . S
Tb2040 O2084 2.465 . S
Tb2040 O2085 2.387 . S
Tb2040 O2087 2.428 . S
Tb2040 O2088 2.308 . S
Tb2040 O2092 2.349 . S
Tb2040 O2095 2.393 . S
Tb2040 C2104 2.802 . S
C2041 N2042 1.379 . S
C2041 C2044 1.416 . S
C2041 C2048 1.424 . S
N2042 C2041 1.379 . S
N2042 C2045 1.334 . S
N2042 Tb2051 2.617 . S
C2043 C2045 1.390 . S
C2043 C2046 1.339 . S
C2043 H2063 0.930 . S
C2044 C2041 1.416 . S
C2044 C2046 1.416 . S
C2044 C2050 1.448 . S
C2045 N2042 1.334 . S
C2045 C2043 1.390 . S
C2045 H2056 0.930 . S
C2046 C2043 1.339 . S
C2046 C2044 1.416 . S
C2046 H2067 0.930 . S
C2047 C2048 1.413 . S
C2047 C2049 1.427 . S
C2047 C2053 1.416 . S
C2048 C2041 1.424 . S
C2048 C2047 1.413 . S
C2048 N2052 1.361 . S
C2049 C2047 1.427 . S
C2049 C2050 1.328 . S
C2049 H2064 0.929 . S
C2050 C2044 1.448 . S
C2050 C2049 1.328 . S
C2050 H2065 0.930 . S
Tb2051 N2042 2.617 . S
Tb2051 N2052 2.572 . S
Tb2051 O2086 2.349 . S
Tb2051 O2089 2.393 . S
Tb2051 O2090 2.465 . S
Tb2051 O2091 2.387 . S
Tb2051 O2093 2.428 . S
Tb2051 O2094 2.308 . S
Tb2051 C2115 2.802 . S
N2052 C2048 1.361 . S
N2052 Tb2051 2.572 . S
N2052 C2054 1.340 . S
C2053 C2047 1.416 . S
C2053 C2055 1.332 . S
C2053 H2061 0.931 . S
C2054 N2052 1.340 . S
C2054 C2055 1.407 . S
C2054 H2060 0.930 . S
C2055 C2053 1.332 . S
C2055 C2054 1.407 . S
C2055 H2057 0.929 . S
H2056 C2045 0.930 . S
H2057 C2055 0.929 . S
H2058 C2073 0.930 . S
H2059 C2080 0.929 . S
H2060 C2054 0.930 . S
H2061 C2053 0.931 . S
H2062 C2076 0.930 . S
H2063 C2043 0.930 . S
H2064 C2049 0.929 . S
H2065 C2050 0.930 . S
H2066 C2071 0.930 . S
H2067 C2046 0.930 . S
H2068 C2079 0.931 . S
N2069 Tb2040 2.617 . S
N2069 C2070 1.379 . S
N2069 C2073 1.334 . S
C2070 N2069 1.379 . S
C2070 C2072 1.416 . S
C2070 C2078 1.424 . S
C2071 H2066 0.930 . S
C2071 C2073 1.390 . S
C2071 C2074 1.339 . S
C2072 C2070 1.416 . S
C2072 C2074 1.416 . S
C2072 C2105 1.448 . S
C2073 H2058 0.930 . S
C2073 N2069 1.334 . S
C2073 C2071 1.390 . S
C2074 C2071 1.339 . S
C2074 C2072 1.416 . S
C2074 H2081 0.930 . S
N2075 Tb2040 2.572 . S
N2075 C2076 1.340 . S
N2075 C2078 1.361 . S
C2076 H2062 0.930 . S
C2076 N2075 1.340 . S
C2076 C2080 1.407 . S
C2077 C2078 1.413 . S
C2077 C2079 1.416 . S
C2077 C2106 1.427 . S
C2078 C2070 1.424 . S
C2078 N2075 1.361 . S
C2078 C2077 1.413 . S
C2079 H2068 0.931 . S
C2079 C2077 1.416 . S
C2079 C2080 1.332 . S
C2080 H2059 0.929 . S
C2080 C2076 1.407 . S
C2080 C2079 1.332 . S
H2081 C2074 0.930 . S
H2082 C2105 0.930 . S
H2083 C2106 0.929 . S
O2084 Tb2040 2.465 . S
O2084 C2104 1.264 . S
O2085 Tb2040 2.387 . S
O2085 C2096 1.264 . S
O2086 Tb2051 2.349 . S
O2086 C2096 1.243 . S
O2087 Tb2040 2.428 . S
O2087 C2104 1.256 . S
O2088 Tb2040 2.308 . S
O2088 C2103 1.266 . S
O2089 Tb2051 2.393 . S
O2089 C2103 1.248 . S
O2090 Tb2051 2.465 . S
O2090 C2115 1.264 . S
O2091 Tb2051 2.387 . S
O2091 C2107 1.264 . S
O2092 Tb2040 2.349 . S
O2092 C2107 1.243 . S
O2093 Tb2051 2.428 . S
O2093 C2115 1.256 . S
O2094 Tb2051 2.308 . S
O2094 C2114 1.266 . S
O2095 Tb2040 2.393 . S
O2095 C2114 1.248 . S
C2096 O2085 1.264 . S
C2096 O2086 1.243 . S
C2097 C2100 1.399 . S
C2097 C2102 1.383 . S
C2097 C2104 1.496 . S
C2098 C2099 1.399 . S
C2098 C2102 1.389 . S
C2099 C2098 1.399 . S
C2099 C2101 1.380 . S
C2099 H2116 0.929 . S
C2100 C2097 1.399 . S
C2100 C2101 1.392 . S
C2100 H2117 0.929 . S
C2101 C2099 1.380 . S
C2101 C2100 1.392 . S
C2101 H2118 0.929 . S
C2102 C2097 1.383 . S
C2102 C2098 1.389 . S
C2102 H2119 0.931 . S
C2103 O2088 1.266 . S
C2103 O2089 1.248 . S
C2104 Tb2040 2.802 . S
C2104 O2084 1.264 . S
C2104 O2087 1.256 . S
C2104 C2097 1.496 . S
C2105 C2072 1.448 . S
C2105 H2082 0.930 . S
C2105 C2106 1.328 . S
C2106 C2077 1.427 . S
C2106 H2083 0.929 . S
C2106 C2105 1.328 . S
C2107 O2091 1.264 . S
C2107 O2092 1.243 . S
C2108 C2111 1.399 . S
C2108 C2112 1.383 . S
C2108 C2115 1.496 . S
C2109 C2110 1.399 . S
C2109 C2112 1.389 . S
C2110 C2109 1.399 . S
C2110 C2113 1.380 . S
C2110 H2120 0.929 . S
C2111 C2108 1.399 . S
C2111 C2113 1.392 . S
C2111 H2121 0.929 . S
C2112 C2108 1.383 . S
C2112 C2109 1.389 . S
C2112 H2122 0.931 . S
C2113 C2110 1.380 . S
C2113 C2111 1.392 . S
C2113 H2123 0.929 . S
C2114 O2094 1.266 . S
C2114 O2095 1.248 . S
C2115 Tb2051 2.802 . S
C2115 O2090 1.264 . S
C2115 O2093 1.256 . S
C2115 C2108 1.496 . S
H2116 C2099 0.929 . S
H2117 C2100 0.929 . S
H2118 C2101 0.929 . S
H2119 C2102 0.931 . S
H2120 C2110 0.929 . S
H2121 C2111 0.929 . S
H2122 C2112 0.931 . S
H2123 C2113 0.929 . S
Tb2124 N2153 2.608 1_455 S
Tb2124 N2159 2.549 1_455 S
Tb2124 O2168 2.435 1_455 S
Tb2124 O2169 2.406 . S
Tb2124 O2171 2.403 1_455 S
Tb2124 O2172 2.315 . S
Tb2124 O2176 2.360 . S
Tb2124 O2179 2.417 . S
Tb2124 C2188 2.771 1_455 S
C2125 N2126 1.379 . S
C2125 C2128 1.416 . S
C2125 C2132 1.424 1_556 S
N2126 C2125 1.379 . S
N2126 C2129 1.334 . S
N2126 Tb2135 2.617 1_556 S
C2127 C2129 1.390 . S
C2127 C2130 1.339 . S
C2127 H2147 0.930 . S
C2128 C2125 1.416 . S
C2128 C2130 1.416 . S
C2128 C2134 1.448 . S
C2129 N2126 1.334 . S
C2129 C2127 1.390 . S
C2129 H2140 0.930 . S
C2130 C2127 1.339 . S
C2130 C2128 1.416 . S
C2130 H2151 0.930 . S
C2131 C2132 1.413 . S
C2131 C2133 1.427 . S
C2131 C2137 1.416 . S
C2132 C2125 1.424 1_554 S
C2132 C2131 1.413 . S
C2132 N2136 1.361 . S
C2133 C2131 1.427 . S
C2133 C2134 1.328 1_554 S
C2133 H2148 0.929 . S
C2134 C2128 1.448 . S
C2134 C2133 1.328 1_556 S
C2134 H2149 0.930 . S
Tb2135 N2126 2.617 1_554 S
Tb2135 N2136 2.572 . S
Tb2135 O2170 2.349 . S
Tb2135 O2173 2.393 1_554 S
Tb2135 O2174 2.465 . S
Tb2135 O2175 2.387 . S
Tb2135 O2177 2.428 1_554 S
Tb2135 O2178 2.308 . S
Tb2135 C2199 2.802 . S
N2136 C2132 1.361 . S
N2136 Tb2135 2.572 . S
N2136 C2138 1.340 . S
C2137 C2131 1.416 . S
C2137 C2139 1.332 . S
C2137 H2145 0.931 . S
C2138 N2136 1.340 . S
C2138 C2139 1.407 . S
C2138 H2144 0.930 . S
C2139 C2137 1.332 . S
C2139 C2138 1.407 . S
C2139 H2141 0.929 . S
H2140 C2129 0.930 . S
H2141 C2139 0.929 . S
H2142 C2157 0.930 1_455 S
H2143 C2164 0.959 . S
H2144 C2138 0.930 . S
H2145 C2137 0.931 . S
H2146 C2160 0.930 1_556 S
H2147 C2127 0.930 . S
H2148 C2133 0.929 . S
H2149 C2134 0.930 . S
H2150 C2155 0.937 . S
H2151 C2130 0.930 . S
H2152 C2163 0.931 . S
N2153 Tb2124 2.608 1_655 S
N2153 C2154 1.379 . S
N2153 C2157 1.334 . S
C2154 N2153 1.379 . S
C2154 C2156 1.416 . S
C2154 C2162 1.424 . S
C2155 H2150 0.937 . S
C2155 C2157 1.390 . S
C2155 C2158 1.339 . S
C2156 C2154 1.416 . S
C2156 C2158 1.416 . S
C2156 C2189 1.448 . S
C2157 H2142 0.930 1_655 S
C2157 N2153 1.334 . S
C2157 C2155 1.390 . S
C2158 C2155 1.339 . S
C2158 C2156 1.416 . S
C2158 H2165 0.930 . S
N2159 Tb2124 2.549 1_655 S
N2159 C2160 1.340 . S
N2159 C2162 1.361 . S
C2160 H2146 0.930 1_554 S
C2160 N2159 1.340 . S
C2160 C2164 1.401 1_554 S
C2161 C2162 1.413 . S
C2161 C2163 1.416 . S
C2161 C2190 1.427 . S
C2162 C2154 1.424 . S
C2162 N2159 1.361 . S
C2162 C2161 1.413 . S
C2163 H2152 0.931 . S
C2163 C2161 1.416 . S
C2163 C2164 1.309 1_554 S
C2164 H2143 0.959 . S
C2164 C2160 1.401 1_556 S
C2164 C2163 1.309 1_556 S
H2165 C2158 0.930 . S
H2166 C2189 0.930 . S
H2167 C2190 0.929 . S
O2168 Tb2124 2.435 1_655 S
O2168 C2188 1.264 . S
O2169 Tb2124 2.406 . S
O2169 C2180 1.264 . S
O2170 Tb2135 2.349 . S
O2170 C2180 1.243 . S
O2171 Tb2124 2.403 1_655 S
O2171 C2188 1.256 . S
O2172 Tb2124 2.315 . S
O2172 C2187 1.266 1_554 S
O2173 Tb2135 2.393 1_556 S
O2173 C2187 1.248 . S
O2174 Tb2135 2.465 . S
O2174 C2199 1.264 . S
O2175 Tb2135 2.387 . S
O2175 C2191 1.264 . S
O2176 Tb2124 2.360 . S
O2176 C2191 1.243 . S
O2177 Tb2135 2.428 1_556 S
O2177 C2199 1.256 1_556 S
O2178 Tb2135 2.308 . S
O2178 C2198 1.266 . S
O2179 Tb2124 2.417 . S
O2179 C2198 1.248 . S
C2180 O2169 1.264 . S
C2180 O2170 1.243 . S
C2181 C2184 1.399 . S
C2181 C2186 1.383 . S
C2181 C2188 1.496 . S
C2182 C2183 1.399 . S
C2182 C2186 1.389 . S
C2183 C2182 1.399 . S
C2183 C2185 1.380 . S
C2183 H2200 0.929 . S
C2184 C2181 1.399 . S
C2184 C2185 1.392 . S
C2184 H2201 0.929 . S
C2185 C2183 1.380 . S
C2185 C2184 1.392 . S
C2185 H2202 0.929 . S
C2186 C2181 1.383 . S
C2186 C2182 1.389 . S
C2186 H2203 0.931 . S
C2187 O2172 1.266 1_556 S
C2187 O2173 1.248 . S
C2188 Tb2124 2.771 1_655 S
C2188 O2168 1.264 . S
C2188 O2171 1.256 . S
C2188 C2181 1.496 . S
C2189 C2156 1.448 . S
C2189 H2166 0.930 . S
C2189 C2190 1.328 . S
C2190 C2161 1.427 . S
C2190 H2167 0.929 . S
C2190 C2189 1.328 . S
C2191 O2175 1.264 . S
C2191 O2176 1.243 . S
C2192 C2195 1.399 . S
C2192 C2196 1.383 1_556 S
C2192 C2199 1.496 1_556 S
C2193 C2194 1.399 1_554 S
C2193 C2196 1.389 . S
C2194 C2193 1.399 1_556 S
C2194 C2197 1.380 . S
C2194 H2204 0.929 . S
C2195 C2192 1.399 . S
C2195 C2197 1.392 . S
C2195 H2205 0.929 . S
C2196 C2192 1.383 1_554 S
C2196 C2193 1.389 . S
C2196 H2206 0.931 . S
C2197 C2194 1.380 . S
C2197 C2195 1.392 . S
C2197 H2207 0.929 . S
C2198 O2178 1.266 . S
C2198 O2179 1.248 . S
C2199 Tb2135 2.802 . S
C2199 O2174 1.264 . S
C2199 O2177 1.256 1_554 S
C2199 C2192 1.496 1_554 S
H2200 C2183 0.929 . S
H2201 C2184 0.929 . S
H2202 C2185 0.929 . S
H2203 C2186 0.931 . S
H2204 C2194 0.929 . S
H2205 C2195 0.929 . S
H2206 C2196 0.931 . S
H2207 C2197 0.929 . S
C2208 C2209 1.391 1_655 S
C2208 C2210 1.394 . S
C2208 H2224 0.931 . S
C2209 C2208 1.391 1_455 S
C2209 C2213 1.375 . S
C2210 C2208 1.394 . S
C2210 C2211 1.369 1_655 S
C2210 C2214 1.531 . S
C2211 C2210 1.369 1_455 S
C2211 C2212 1.410 . S
C2211 C2219 1.503 . S
C2212 C2211 1.410 . S
C2212 C2213 1.392 . S
C2212 C2215 1.511 1_556 S
C2213 C2209 1.375 . S
C2213 C2212 1.392 . S
C2213 H2225 0.942 . S
C2214 C2210 1.531 . S
C2214 H2226 0.960 . S
C2214 H2227 0.962 . S
C2214 H2228 0.960 . S
C2215 C2212 1.511 1_554 S
C2215 H2229 0.961 . S
C2215 H2230 0.961 . S
C2215 H2231 0.961 . S
C2216 C2217 1.370 . S
C2216 C2218 1.363 . S
C2216 H2232 0.931 1_455 S
C2217 C2216 1.370 . S
C2217 C2221 1.408 1_554 S
C2218 C2216 1.363 . S
C2218 C2219 1.370 1_554 S
C2218 C2222 1.524 1_455 S
C2219 C2211 1.503 . S
C2219 C2218 1.370 1_556 S
C2219 C2220 1.403 . S
C2220 C2219 1.403 . S
C2220 C2221 1.404 . S
C2220 C2223 1.539 . S
C2221 C2217 1.408 1_556 S
C2221 C2220 1.404 . S
C2221 H2233 0.930 . S
C2222 C2218 1.524 1_655 S
C2222 H2234 0.956 . S
C2222 H2235 0.961 . S
C2222 H2236 0.961 . S
C2223 C2220 1.539 . S
C2223 H2237 0.958 . S
C2223 H2238 0.961 . S
C2223 H2239 0.960 . S
H2224 C2208 0.931 . S
H2225 C2213 0.942 . S
H2226 C2214 0.960 . S
H2227 C2214 0.962 . S
H2228 C2214 0.960 . S
H2229 C2215 0.961 . S
H2230 C2215 0.961 . S
H2231 C2215 0.961 . S
H2232 C2216 0.931 1_655 S
H2233 C2221 0.930 . S
H2234 C2222 0.956 . S
H2235 C2222 0.961 . S
H2236 C2222 0.961 . S
H2237 C2223 0.958 . S
H2238 C2223 0.961 . S
H2239 C2223 0.960 . S
C2240 C2241 1.391 . S
C2240 C2242 1.394 . S
C2240 H2256 0.931 . S
C2241 C2240 1.391 . S
C2241 C2245 1.376 . S
C2242 C2240 1.394 . S
C2242 C2243 1.369 . S
C2242 C2246 1.531 . S
C2243 C2242 1.369 . S
C2243 C2244 1.410 . S
C2243 C2251 1.503 . S
C2244 C2243 1.410 . S
C2244 C2245 1.392 . S
C2244 C2247 1.511 . S
C2245 C2241 1.376 . S
C2245 C2244 1.392 . S
C2245 H2257 0.929 . S
C2246 C2242 1.531 . S
C2246 H2258 0.960 . S
C2246 H2259 0.962 . S
C2246 H2260 0.960 . S
C2247 C2244 1.511 . S
C2247 H2261 0.961 . S
C2247 H2262 0.961 . S
C2247 H2263 0.961 . S
C2248 C2249 1.370 . S
C2248 C2250 1.363 . S
C2248 H2264 0.931 . S
C2249 C2248 1.370 . S
C2249 C2253 1.408 . S
C2250 C2248 1.363 . S
C2250 C2251 1.370 . S
C2250 C2254 1.524 . S
C2251 C2243 1.503 . S
C2251 C2250 1.370 . S
C2251 C2252 1.403 . S
C2252 C2251 1.403 . S
C2252 C2253 1.404 . S
C2252 C2255 1.539 . S
C2253 C2249 1.408 . S
C2253 C2252 1.404 . S
C2253 H2265 0.930 . S
C2254 C2250 1.524 . S
C2254 H2266 0.956 . S
C2254 H2267 0.961 . S
C2254 H2268 0.961 . S
C2255 C2252 1.539 . S
C2255 H2269 0.958 . S
C2255 H2270 0.961 . S
C2255 H2271 0.960 . S
H2256 C2240 0.931 . S
H2257 C2245 0.929 . S
H2258 C2246 0.960 . S
H2259 C2246 0.962 . S
H2260 C2246 0.960 . S
H2261 C2247 0.961 . S
H2262 C2247 0.961 . S
H2263 C2247 0.961 . S
H2264 C2248 0.931 . S
H2265 C2253 0.930 . S
H2266 C2254 0.956 . S
H2267 C2254 0.961 . S
H2268 C2254 0.961 . S
H2269 C2255 0.958 . S
H2270 C2255 0.961 . S
H2271 C2255 0.960 . S
C2272 C2273 1.391 . S
C2272 C2274 1.394 . S
C2272 H2288 0.931 . S
C2273 C2272 1.391 . S
C2273 C2277 1.376 . S
C2274 C2272 1.394 . S
C2274 C2275 1.369 . S
C2274 C2278 1.531 . S
C2275 C2274 1.369 . S
C2275 C2276 1.410 . S
C2275 C2283 1.503 . S
C2276 C2275 1.410 . S
C2276 C2277 1.392 . S
C2276 C2279 1.511 . S
C2277 C2273 1.376 . S
C2277 C2276 1.392 . S
C2277 H2289 0.929 . S
C2278 C2274 1.531 . S
C2278 H2290 0.960 . S
C2278 H2291 0.962 . S
C2278 H2292 0.960 . S
C2279 C2276 1.511 . S
C2279 H2293 0.961 . S
C2279 H2294 0.961 . S
C2279 H2295 0.961 . S
C2280 C2281 1.370 . S
C2280 C2282 1.363 . S
C2280 H2296 0.931 . S
C2281 C2280 1.370 . S
C2281 C2285 1.408 . S
C2282 C2280 1.363 . S
C2282 C2283 1.370 . S
C2282 C2286 1.524 . S
C2283 C2275 1.503 . S
C2283 C2282 1.370 . S
C2283 C2284 1.403 . S
C2284 C2283 1.403 . S
C2284 C2285 1.404 . S
C2284 C2287 1.539 . S
C2285 C2281 1.408 . S
C2285 C2284 1.404 . S
C2285 H2297 0.930 . S
C2286 C2282 1.524 . S
C2286 H2298 0.956 . S
C2286 H2299 0.961 . S
C2286 H2300 0.961 . S
C2287 C2284 1.539 . S
C2287 H2301 0.958 . S
C2287 H2302 0.961 . S
C2287 H2303 0.960 . S
H2288 C2272 0.931 . S
H2289 C2277 0.929 . S
H2290 C2278 0.960 . S
H2291 C2278 0.962 . S
H2292 C2278 0.960 . S
H2293 C2279 0.961 . S
H2294 C2279 0.961 . S
H2295 C2279 0.961 . S
H2296 C2280 0.931 . S
H2297 C2285 0.930 . S
H2298 C2286 0.956 . S
H2299 C2286 0.961 . S
H2300 C2286 0.961 . S
H2301 C2287 0.958 . S
H2302 C2287 0.961 . S
H2303 C2287 0.960 . S
C2304 C2305 1.391 . S
C2304 C2306 1.394 . S
C2304 H2320 0.931 . S
C2305 C2304 1.391 . S
C2305 C2309 1.376 . S
C2306 C2304 1.394 . S
C2306 C2307 1.369 . S
C2306 C2310 1.531 . S
C2307 C2306 1.369 . S
C2307 C2308 1.410 . S
C2307 C2315 1.503 . S
C2308 C2307 1.410 . S
C2308 C2309 1.392 . S
C2308 C2311 1.511 . S
C2309 C2305 1.376 . S
C2309 C2308 1.392 . S
C2309 H2321 0.929 . S
C2310 C2306 1.531 . S
C2310 H2322 0.960 . S
C2310 H2323 0.962 . S
C2310 H2324 0.960 . S
C2311 C2308 1.511 . S
C2311 H2325 0.961 . S
C2311 H2326 0.961 . S
C2311 H2327 0.961 . S
C2312 C2313 1.370 . S
C2312 C2314 1.363 . S
C2312 H2328 0.931 . S
C2313 C2312 1.370 . S
C2313 C2317 1.408 . S
C2314 C2312 1.363 . S
C2314 C2315 1.370 . S
C2314 C2318 1.524 . S
C2315 C2307 1.503 . S
C2315 C2314 1.370 . S
C2315 C2316 1.403 . S
C2316 C2315 1.403 . S
C2316 C2317 1.404 . S
C2316 C2319 1.539 . S
C2317 C2313 1.408 . S
C2317 C2316 1.404 . S
C2317 H2329 0.930 . S
C2318 C2314 1.524 . S
C2318 H2330 0.956 . S
C2318 H2331 0.961 . S
C2318 H2332 0.961 . S
C2319 C2316 1.539 . S
C2319 H2333 0.958 . S
C2319 H2334 0.961 . S
C2319 H2335 0.960 . S
H2320 C2304 0.931 . S
H2321 C2309 0.929 . S
H2322 C2310 0.960 . S
H2323 C2310 0.962 . S
H2324 C2310 0.960 . S
H2325 C2311 0.961 . S
H2326 C2311 0.961 . S
H2327 C2311 0.961 . S
H2328 C2312 0.931 . S
H2329 C2317 0.930 . S
H2330 C2318 0.956 . S
H2331 C2318 0.961 . S
H2332 C2318 0.961 . S
H2333 C2319 0.958 . S
H2334 C2319 0.961 . S
H2335 C2319 0.960 . S
C2336 C2337 1.391 . S
C2336 C2338 1.394 . S
C2336 H2352 0.931 1_455 S
C2337 C2336 1.391 . S
C2337 C2341 1.376 . S
C2338 C2336 1.394 . S
C2338 C2339 1.369 . S
C2338 C2342 1.531 1_455 S
C2339 C2338 1.369 . S
C2339 C2340 1.410 . S
C2339 C2347 1.503 . S
C2340 C2339 1.410 . S
C2340 C2341 1.392 . S
C2340 C2343 1.511 . S
C2341 C2337 1.376 . S
C2341 C2340 1.392 . S
C2341 H2353 0.929 . S
C2342 C2338 1.531 1_655 S
C2342 H2354 0.947 1_655 S
C2342 H2355 0.962 . S
C2342 H2356 0.960 . S
C2343 C2340 1.511 . S
C2343 H2357 0.961 . S
C2343 H2358 0.961 . S
C2343 H2359 0.961 . S
C2344 C2345 1.370 . S
C2344 C2346 1.363 . S
C2344 H2360 0.931 . S
C2345 C2344 1.370 . S
C2345 C2349 1.408 . S
C2346 C2344 1.363 . S
C2346 C2347 1.370 . S
C2346 C2350 1.524 . S
C2347 C2339 1.503 . S
C2347 C2346 1.370 . S
C2347 C2348 1.403 . S
C2348 C2347 1.403 . S
C2348 C2349 1.404 . S
C2348 C2351 1.539 . S
C2349 C2345 1.408 . S
C2349 C2348 1.404 . S
C2349 H2361 0.930 . S
C2350 C2346 1.524 . S
C2350 H2362 0.956 1_455 S
C2350 H2363 0.961 . S
C2350 H2364 0.961 1_455 S
C2351 C2348 1.539 . S
C2351 H2365 0.958 . S
C2351 H2366 0.961 . S
C2351 H2367 0.960 . S
H2352 C2336 0.931 1_655 S
H2353 C2341 0.929 . S
H2354 C2342 0.947 1_455 S
H2355 C2342 0.962 . S
H2356 C2342 0.960 . S
H2357 C2343 0.961 . S
H2358 C2343 0.961 . S
H2359 C2343 0.961 . S
H2360 C2344 0.931 . S
H2361 C2349 0.930 . S
H2362 C2350 0.956 1_655 S
H2363 C2350 0.961 . S
H2364 C2350 0.961 1_655 S
H2365 C2351 0.958 . S
H2366 C2351 0.961 . S
H2367 C2351 0.960 . S
C2368 C2369 1.391 . S
C2368 C2370 1.394 . S
C2368 H2384 0.931 . S
C2369 C2368 1.391 . S
C2369 C2373 1.376 . S
C2370 C2368 1.394 . S
C2370 C2371 1.369 . S
C2370 C2374 1.531 . S
C2371 C2370 1.369 . S
C2371 C2372 1.410 . S
C2371 C2379 1.503 . S
C2372 C2371 1.410 . S
C2372 C2373 1.392 . S
C2372 C2375 1.511 . S
C2373 C2369 1.376 . S
C2373 C2372 1.392 . S
C2373 H2385 0.929 . S
C2374 C2370 1.531 . S
C2374 H2386 0.960 . S
C2374 H2387 0.962 . S
C2374 H2388 0.960 . S
C2375 C2372 1.511 . S
C2375 H2389 0.961 . S
C2375 H2390 0.961 . S
C2375 H2391 0.961 . S
C2376 C2377 1.370 . S
C2376 C2378 1.363 . S
C2376 H2392 0.931 . S
C2377 C2376 1.370 . S
C2377 C2381 1.408 . S
C2378 C2376 1.363 . S
C2378 C2379 1.370 . S
C2378 C2382 1.524 . S
C2379 C2371 1.503 . S
C2379 C2378 1.370 . S
C2379 C2380 1.403 . S
C2380 C2379 1.403 . S
C2380 C2381 1.404 . S
C2380 C2383 1.539 . S
C2381 C2377 1.408 . S
C2381 C2380 1.404 . S
C2381 H2393 0.930 . S
C2382 C2378 1.524 . S
C2382 H2394 0.956 . S
C2382 H2395 0.961 . S
C2382 H2396 0.961 . S
C2383 C2380 1.539 . S
C2383 H2397 0.958 . S
C2383 H2398 0.961 . S
C2383 H2399 0.960 . S
H2384 C2368 0.931 . S
H2385 C2373 0.929 . S
H2386 C2374 0.960 . S
H2387 C2374 0.962 . S
H2388 C2374 0.960 . S
H2389 C2375 0.961 . S
H2390 C2375 0.961 . S
H2391 C2375 0.961 . S
H2392 C2376 0.931 . S
H2393 C2381 0.930 . S
H2394 C2382 0.956 . S
H2395 C2382 0.961 . S
H2396 C2382 0.961 . S
H2397 C2383 0.958 . S
H2398 C2383 0.961 . S
H2399 C2383 0.960 . S
C2400 C2401 1.391 . S
C2400 C2402 1.394 . S
C2400 H2416 0.931 . S
C2401 C2400 1.391 . S
C2401 C2405 1.376 . S
C2402 C2400 1.394 . S
C2402 C2403 1.369 . S
C2402 C2406 1.531 . S
C2403 C2402 1.369 . S
C2403 C2404 1.410 . S
C2403 C2411 1.503 . S
C2404 C2403 1.410 . S
C2404 C2405 1.392 . S
C2404 C2407 1.511 . S
C2405 C2401 1.376 . S
C2405 C2404 1.392 . S
C2405 H2417 0.929 . S
C2406 C2402 1.531 . S
C2406 H2418 0.960 . S
C2406 H2419 0.962 . S
C2406 H2420 0.960 . S
C2407 C2404 1.511 . S
C2407 H2421 0.961 . S
C2407 H2422 0.961 . S
C2407 H2423 0.961 . S
C2408 C2409 1.370 . S
C2408 C2410 1.363 . S
C2408 H2424 0.931 . S
C2409 C2408 1.370 . S
C2409 C2413 1.408 . S
C2410 C2408 1.363 . S
C2410 C2411 1.370 . S
C2410 C2414 1.524 . S
C2411 C2403 1.503 . S
C2411 C2410 1.370 . S
C2411 C2412 1.403 . S
C2412 C2411 1.403 . S
C2412 C2413 1.404 . S
C2412 C2415 1.539 . S
C2413 C2409 1.408 . S
C2413 C2412 1.404 . S
C2413 H2425 0.930 . S
C2414 C2410 1.524 . S
C2414 H2426 0.956 . S
C2414 H2427 0.961 . S
C2414 H2428 0.961 . S
C2415 C2412 1.539 . S
C2415 H2429 0.958 . S
C2415 H2430 0.961 . S
C2415 H2431 0.960 . S
H2416 C2400 0.931 . S
H2417 C2405 0.929 . S
H2418 C2406 0.960 . S
H2419 C2406 0.962 . S
H2420 C2406 0.960 . S
H2421 C2407 0.961 . S
H2422 C2407 0.961 . S
H2423 C2407 0.961 . S
H2424 C2408 0.931 . S
H2425 C2413 0.930 . S
H2426 C2414 0.956 . S
H2427 C2414 0.961 . S
H2428 C2414 0.961 . S
H2429 C2415 0.958 . S
H2430 C2415 0.961 . S
H2431 C2415 0.960 . S
C2432 C2433 1.391 . S
C2432 C2434 1.394 . S
C2432 H2448 0.931 . S
C2433 C2432 1.391 . S
C2433 C2437 1.376 . S
C2434 C2432 1.394 . S
C2434 C2435 1.369 . S
C2434 C2438 1.531 . S
C2435 C2434 1.369 . S
C2435 C2436 1.410 . S
C2435 C2443 1.503 . S
C2436 C2435 1.410 . S
C2436 C2437 1.392 . S
C2436 C2439 1.511 . S
C2437 C2433 1.376 . S
C2437 C2436 1.392 . S
C2437 H2449 0.929 . S
C2438 C2434 1.531 . S
C2438 H2450 0.960 . S
C2438 H2451 0.962 . S
C2438 H2452 0.960 . S
C2439 C2436 1.511 . S
C2439 H2453 0.961 . S
C2439 H2454 0.961 . S
C2439 H2455 0.961 . S
C2440 C2441 1.370 . S
C2440 C2442 1.363 . S
C2440 H2456 0.931 . S
C2441 C2440 1.370 . S
C2441 C2445 1.408 . S
C2442 C2440 1.363 . S
C2442 C2443 1.370 . S
C2442 C2446 1.524 . S
C2443 C2435 1.503 . S
C2443 C2442 1.370 . S
C2443 C2444 1.403 . S
C2444 C2443 1.403 . S
C2444 C2445 1.404 . S
C2444 C2447 1.539 . S
C2445 C2441 1.408 . S
C2445 C2444 1.404 . S
C2445 H2457 0.930 . S
C2446 C2442 1.524 . S
C2446 H2458 0.956 . S
C2446 H2459 0.961 . S
C2446 H2460 0.961 . S
C2447 C2444 1.539 . S
C2447 H2461 0.958 . S
C2447 H2462 0.961 . S
C2447 H2463 0.960 . S
H2448 C2432 0.931 . S
H2449 C2437 0.929 . S
H2450 C2438 0.960 . S
H2451 C2438 0.962 . S
H2452 C2438 0.960 . S
H2453 C2439 0.961 . S
H2454 C2439 0.961 . S
H2455 C2439 0.961 . S
H2456 C2440 0.931 . S
H2457 C2445 0.930 . S
H2458 C2446 0.956 . S
H2459 C2446 0.961 . S
H2460 C2446 0.961 . S
H2461 C2447 0.958 . S
H2462 C2447 0.961 . S
H2463 C2447 0.960 . S
C2464 C2465 1.391 . S
C2464 C2466 1.394 . S
C2464 H2480 0.931 . S
C2465 C2464 1.391 . S
C2465 C2469 1.376 . S
C2466 C2464 1.394 . S
C2466 C2467 1.369 . S
C2466 C2470 1.531 1_655 S
C2467 C2466 1.369 . S
C2467 C2468 1.410 . S
C2467 C2475 1.503 . S
C2468 C2467 1.410 . S
C2468 C2469 1.392 . S
C2468 C2471 1.511 . S
C2469 C2465 1.376 . S
C2469 C2468 1.392 . S
C2469 H2481 0.929 . S
C2470 C2466 1.531 1_455 S
C2470 H2482 0.960 . S
C2470 H2483 0.962 . S
C2470 H2484 0.960 1_545 S
C2471 C2468 1.511 . S
C2471 H2485 0.961 . S
C2471 H2486 0.961 . S
C2471 H2487 0.961 . S
C2472 C2473 1.370 . S
C2472 C2474 1.363 1_455 S
C2472 H2488 0.931 . S
C2473 C2472 1.370 . S
C2473 C2477 1.408 1_455 S
C2474 C2472 1.363 1_655 S
C2474 C2475 1.370 . S
C2474 C2478 1.524 . S
C2475 C2467 1.503 . S
C2475 C2474 1.370 . S
C2475 C2476 1.403 . S
C2476 C2475 1.403 . S
C2476 C2477 1.404 . S
C2476 C2479 1.539 1_545 S
C2477 C2473 1.408 1_655 S
C2477 C2476 1.404 . S
C2477 H2489 0.930 1_545 S
C2478 C2474 1.524 . S
C2478 H2490 0.956 1_655 S
C2478 H2491 0.961 . S
C2478 H2492 0.961 1_655 S
C2479 C2476 1.539 1_565 S
C2479 H2493 0.958 . S
C2479 H2494 0.961 . S
C2479 H2495 0.960 . S
H2480 C2464 0.931 . S
H2481 C2469 0.929 . S
H2482 C2470 0.960 . S
H2483 C2470 0.962 . S
H2484 C2470 0.960 1_565 S
H2485 C2471 0.961 . S
H2486 C2471 0.961 . S
H2487 C2471 0.961 . S
H2488 C2472 0.931 . S
H2489 C2477 0.930 1_565 S
H2490 C2478 0.956 1_455 S
H2491 C2478 0.961 . S
H2492 C2478 0.961 1_455 S
H2493 C2479 0.958 . S
H2494 C2479 0.961 . S
H2495 C2479 0.960 . S
C2496 C2497 1.391 . S
C2496 C2498 1.394 . S
C2496 H2512 0.931 . S
C2497 C2496 1.391 . S
C2497 C2501 1.376 . S
C2498 C2496 1.394 . S
C2498 C2499 1.369 . S
C2498 C2502 1.531 . S
C2499 C2498 1.369 . S
C2499 C2500 1.410 . S
C2499 C2507 1.503 . S
C2500 C2499 1.410 . S
C2500 C2501 1.392 . S
C2500 C2503 1.511 . S
C2501 C2497 1.376 . S
C2501 C2500 1.392 . S
C2501 H2513 0.929 . S
C2502 C2498 1.531 . S
C2502 H2514 0.960 . S
C2502 H2515 0.962 . S
C2502 H2516 0.960 . S
C2503 C2500 1.511 . S
C2503 H2517 0.961 . S
C2503 H2518 0.961 . S
C2503 H2519 0.961 . S
C2504 C2505 1.370 . S
C2504 C2506 1.363 . S
C2504 H2520 0.931 . S
C2505 C2504 1.370 . S
C2505 C2509 1.408 . S
C2506 C2504 1.363 . S
C2506 C2507 1.370 . S
C2506 C2510 1.524 . S
C2507 C2499 1.503 . S
C2507 C2506 1.370 . S
C2507 C2508 1.403 . S
C2508 C2507 1.403 . S
C2508 C2509 1.404 . S
C2508 C2511 1.539 . S
C2509 C2505 1.408 . S
C2509 C2508 1.404 . S
C2509 H2521 0.930 . S
C2510 C2506 1.524 . S
C2510 H2522 0.956 . S
C2510 H2523 0.961 . S
C2510 H2524 0.961 . S
C2511 C2508 1.539 . S
C2511 H2525 0.958 . S
C2511 H2526 0.961 . S
C2511 H2527 0.960 . S
H2512 C2496 0.931 . S
H2513 C2501 0.929 . S
H2514 C2502 0.960 . S
H2515 C2502 0.962 . S
H2516 C2502 0.960 . S
H2517 C2503 0.961 . S
H2518 C2503 0.961 . S
H2519 C2503 0.961 . S
H2520 C2504 0.931 . S
H2521 C2509 0.930 . S
H2522 C2510 0.956 . S
H2523 C2510 0.961 . S
H2524 C2510 0.961 . S
H2525 C2511 0.958 . S
H2526 C2511 0.961 . S
H2527 C2511 0.960 . S
C2528 C2529 1.391 . S
C2528 C2530 1.394 . S
C2528 H2544 0.931 . S
C2529 C2528 1.391 . S
C2529 C2533 1.376 . S
C2530 C2528 1.394 . S
C2530 C2531 1.369 . S
C2530 C2534 1.531 . S
C2531 C2530 1.369 . S
C2531 C2532 1.410 . S
C2531 C2539 1.503 . S
C2532 C2531 1.410 . S
C2532 C2533 1.392 . S
C2532 C2535 1.511 . S
C2533 C2529 1.376 . S
C2533 C2532 1.392 . S
C2533 H2545 0.929 . S
C2534 C2530 1.531 . S
C2534 H2546 0.960 . S
C2534 H2547 0.962 . S
C2534 H2548 0.960 . S
C2535 C2532 1.511 . S
C2535 H2549 0.961 . S
C2535 H2550 0.961 . S
C2535 H2551 0.961 . S
C2536 C2537 1.370 . S
C2536 C2538 1.363 . S
C2536 H2552 0.931 . S
C2537 C2536 1.370 . S
C2537 C2541 1.408 . S
C2538 C2536 1.363 . S
C2538 C2539 1.370 . S
C2538 C2542 1.524 . S
C2539 C2531 1.503 . S
C2539 C2538 1.370 . S
C2539 C2540 1.403 . S
C2540 C2539 1.403 . S
C2540 C2541 1.404 . S
C2540 C2543 1.539 1_545 S
C2541 C2537 1.408 . S
C2541 C2540 1.404 . S
C2541 H2553 0.930 . S
C2542 C2538 1.524 . S
C2542 H2554 0.956 . S
C2542 H2555 0.961 . S
C2542 H2556 0.961 . S
C2543 C2540 1.539 1_565 S
C2543 H2557 0.958 . S
C2543 H2558 0.961 . S
C2543 H2559 0.960 1_565 S
H2544 C2528 0.931 . S
H2545 C2533 0.929 . S
H2546 C2534 0.960 . S
H2547 C2534 0.962 . S
H2548 C2534 0.960 . S
H2549 C2535 0.961 . S
H2550 C2535 0.961 . S
H2551 C2535 0.961 . S
H2552 C2536 0.931 . S
H2553 C2541 0.930 . S
H2554 C2542 0.956 . S
H2555 C2542 0.961 . S
H2556 C2542 0.961 . S
H2557 C2543 0.958 . S
H2558 C2543 0.961 . S
H2559 C2543 0.960 1_545 S
C2560 C2561 1.391 . S
C2560 C2562 1.394 . S
C2560 H2576 0.931 . S
C2561 C2560 1.391 . S
C2561 C2565 1.376 . S
C2562 C2560 1.394 . S
C2562 C2563 1.369 . S
C2562 C2566 1.531 . S
C2563 C2562 1.369 . S
C2563 C2564 1.410 . S
C2563 C2571 1.503 . S
C2564 C2563 1.410 . S
C2564 C2565 1.392 . S
C2564 C2567 1.511 . S
C2565 C2561 1.376 . S
C2565 C2564 1.392 . S
C2565 H2577 0.929 . S
C2566 C2562 1.531 . S
C2566 H2578 0.960 . S
C2566 H2579 0.962 . S
C2566 H2580 0.960 . S
C2567 C2564 1.511 . S
C2567 H2581 0.961 . S
C2567 H2582 0.961 . S
C2567 H2583 0.961 . S
C2568 C2569 1.370 . S
C2568 C2570 1.363 . S
C2568 H2584 0.931 . S
C2569 C2568 1.370 . S
C2569 C2573 1.408 . S
C2570 C2568 1.363 . S
C2570 C2571 1.370 . S
C2570 C2574 1.524 . S
C2571 C2563 1.503 . S
C2571 C2570 1.370 . S
C2571 C2572 1.403 . S
C2572 C2571 1.403 . S
C2572 C2573 1.404 . S
C2572 C2575 1.539 . S
C2573 C2569 1.408 . S
C2573 C2572 1.404 . S
C2573 H2585 0.930 . S
C2574 C2570 1.524 . S
C2574 H2586 0.956 . S
C2574 H2587 0.961 . S
C2574 H2588 0.961 . S
C2575 C2572 1.539 . S
C2575 H2589 0.958 . S
C2575 H2590 0.961 . S
C2575 H2591 0.960 . S
H2576 C2560 0.931 . S
H2577 C2565 0.929 . S
H2578 C2566 0.960 . S
H2579 C2566 0.962 . S
H2580 C2566 0.960 . S
H2581 C2567 0.961 . S
H2582 C2567 0.961 . S
H2583 C2567 0.961 . S
H2584 C2568 0.931 . S
H2585 C2573 0.930 . S
H2586 C2574 0.956 . S
H2587 C2574 0.961 . S
H2588 C2574 0.961 . S
H2589 C2575 0.958 . S
H2590 C2575 0.961 . S
H2591 C2575 0.960 . S
C2592 C2593 1.391 . S
C2592 C2594 1.394 . S
C2592 H2608 0.931 . S
C2593 C2592 1.391 . S
C2593 C2597 1.376 . S
C2594 C2592 1.394 . S
C2594 C2595 1.369 . S
C2594 C2598 1.531 . S
C2595 C2594 1.369 . S
C2595 C2596 1.410 . S
C2595 C2603 1.503 . S
C2596 C2595 1.410 . S
C2596 C2597 1.392 . S
C2596 C2599 1.511 1_545 S
C2597 C2593 1.376 . S
C2597 C2596 1.392 . S
C2597 H2609 0.929 1_545 S
C2598 C2594 1.531 . S
C2598 H2610 0.960 . S
C2598 H2611 0.962 1_655 S
C2598 H2612 0.960 . S
C2599 C2596 1.511 1_565 S
C2599 H2613 0.961 . S
C2599 H2614 0.961 . S
C2599 H2615 0.961 . S
C2600 C2601 1.370 . S
C2600 C2602 1.363 . S
C2600 H2616 0.931 . S
C2601 C2600 1.370 . S
C2601 C2605 1.408 1_455 S
C2602 C2600 1.363 . S
C2602 C2603 1.370 1_455 S
C2602 C2606 1.524 . S
C2603 C2595 1.503 . S
C2603 C2602 1.370 1_655 S
C2603 C2604 1.403 . S
C2604 C2603 1.403 . S
C2604 C2605 1.404 . S
C2604 C2607 1.539 . S
C2605 C2601 1.408 1_655 S
C2605 C2604 1.404 . S
C2605 H2617 0.930 . S
C2606 C2602 1.524 . S
C2606 H2618 0.956 . S
C2606 H2619 0.961 1_545 S
C2606 H2620 0.961 . S
C2607 C2604 1.539 . S
C2607 H2621 0.958 . S
C2607 H2622 0.961 . S
C2607 H2623 0.960 . S
H2608 C2592 0.931 . S
H2609 C2597 0.929 1_565 S
H2610 C2598 0.960 . S
H2611 C2598 0.962 1_455 S
H2612 C2598 0.960 . S
H2613 C2599 0.961 . S
H2614 C2599 0.961 . S
H2615 C2599 0.961 . S
H2616 C2600 0.931 . S
H2617 C2605 0.930 . S
H2618 C2606 0.956 . S
H2619 C2606 0.961 1_565 S
H2620 C2606 0.961 . S
H2621 C2607 0.958 . S
H2622 C2607 0.961 . S
H2623 C2607 0.960 . S
C2624 C2625 1.391 . S
C2624 C2626 1.394 . S
C2624 H2640 0.931 . S
C2625 C2624 1.391 . S
C2625 C2629 1.376 . S
C2626 C2624 1.394 . S
C2626 C2627 1.369 . S
C2626 C2630 1.531 . S
C2627 C2626 1.369 . S
C2627 C2628 1.410 . S
C2627 C2635 1.503 . S
C2628 C2627 1.410 . S
C2628 C2629 1.392 . S
C2628 C2631 1.511 . S
C2629 C2625 1.376 . S
C2629 C2628 1.392 . S
C2629 H2641 0.929 . S
C2630 C2626 1.531 . S
C2630 H2642 0.960 . S
C2630 H2643 0.962 . S
C2630 H2644 0.960 . S
C2631 C2628 1.511 . S
C2631 H2645 0.961 . S
C2631 H2646 0.961 . S
C2631 H2647 0.961 . S
C2632 C2633 1.370 . S
C2632 C2634 1.363 . S
C2632 H2648 0.931 . S
C2633 C2632 1.370 . S
C2633 C2637 1.408 . S
C2634 C2632 1.363 . S
C2634 C2635 1.370 . S
C2634 C2638 1.524 . S
C2635 C2627 1.503 . S
C2635 C2634 1.370 . S
C2635 C2636 1.403 . S
C2636 C2635 1.403 . S
C2636 C2637 1.404 . S
C2636 C2639 1.539 . S
C2637 C2633 1.408 . S
C2637 C2636 1.404 . S
C2637 H2649 0.930 . S
C2638 C2634 1.524 . S
C2638 H2650 0.956 . S
C2638 H2651 0.961 . S
C2638 H2652 0.961 . S
C2639 C2636 1.539 . S
C2639 H2653 0.958 . S
C2639 H2654 0.961 . S
C2639 H2655 0.960 . S
H2640 C2624 0.931 . S
H2641 C2629 0.929 . S
H2642 C2630 0.960 . S
H2643 C2630 0.962 . S
H2644 C2630 0.960 . S
H2645 C2631 0.961 . S
H2646 C2631 0.961 . S
H2647 C2631 0.961 . S
H2648 C2632 0.931 . S
H2649 C2637 0.930 . S
H2650 C2638 0.956 . S
H2651 C2638 0.961 . S
H2652 C2638 0.961 . S
H2653 C2639 0.958 . S
H2654 C2639 0.961 . S
H2655 C2639 0.960 . S
C2656 C2657 1.391 . S
C2656 C2658 1.394 . S
C2656 H2672 0.931 . S
C2657 C2656 1.391 . S
C2657 C2661 1.376 . S
C2658 C2656 1.394 . S
C2658 C2659 1.369 . S
C2658 C2662 1.531 . S
C2659 C2658 1.369 . S
C2659 C2660 1.410 . S
C2659 C2667 1.503 . S
C2660 C2659 1.410 . S
C2660 C2661 1.392 . S
C2660 C2663 1.511 . S
C2661 C2657 1.376 . S
C2661 C2660 1.392 . S
C2661 H2673 0.929 . S
C2662 C2658 1.531 . S
C2662 H2674 0.960 . S
C2662 H2675 0.962 . S
C2662 H2676 0.960 . S
C2663 C2660 1.511 . S
C2663 H2677 0.961 . S
C2663 H2678 0.961 . S
C2663 H2679 0.961 . S
C2664 C2665 1.370 . S
C2664 C2666 1.363 . S
C2664 H2680 0.931 . S
C2665 C2664 1.370 . S
C2665 C2669 1.408 . S
C2666 C2664 1.363 . S
C2666 C2667 1.370 . S
C2666 C2670 1.524 . S
C2667 C2659 1.503 . S
C2667 C2666 1.370 . S
C2667 C2668 1.403 . S
C2668 C2667 1.403 . S
C2668 C2669 1.404 . S
C2668 C2671 1.539 . S
C2669 C2665 1.408 . S
C2669 C2668 1.404 . S
C2669 H2681 0.930 . S
C2670 C2666 1.524 . S
C2670 H2682 0.956 . S
C2670 H2683 0.961 . S
C2670 H2684 0.961 . S
C2671 C2668 1.539 . S
C2671 H2685 0.958 . S
C2671 H2686 0.961 . S
C2671 H2687 0.960 . S
H2672 C2656 0.931 . S
H2673 C2661 0.929 . S
H2674 C2662 0.960 . S
H2675 C2662 0.962 . S
H2676 C2662 0.960 . S
H2677 C2663 0.961 . S
H2678 C2663 0.961 . S
H2679 C2663 0.961 . S
H2680 C2664 0.931 . S
H2681 C2669 0.930 . S
H2682 C2670 0.956 . S
H2683 C2670 0.961 . S
H2684 C2670 0.961 . S
H2685 C2671 0.958 . S
H2686 C2671 0.961 . S
H2687 C2671 0.960 . S
C2688 C2689 1.391 . S
C2688 C2690 1.394 . S
C2688 H2704 0.931 . S
C2689 C2688 1.391 . S
C2689 C2693 1.376 . S
C2690 C2688 1.394 . S
C2690 C2691 1.369 . S
C2690 C2694 1.531 . S
C2691 C2690 1.369 . S
C2691 C2692 1.410 . S
C2691 C2699 1.503 . S
C2692 C2691 1.410 . S
C2692 C2693 1.392 . S
C2692 C2695 1.511 . S
C2693 C2689 1.376 . S
C2693 C2692 1.392 . S
C2693 H2705 0.929 . S
C2694 C2690 1.531 . S
C2694 H2706 0.960 . S
C2694 H2707 0.962 . S
C2694 H2708 0.960 . S
C2695 C2692 1.511 . S
C2695 H2709 0.961 . S
C2695 H2710 0.961 . S
C2695 H2711 0.961 . S
C2696 C2697 1.370 . S
C2696 C2698 1.363 . S
C2696 H2712 0.931 . S
C2697 C2696 1.370 . S
C2697 C2701 1.408 . S
C2698 C2696 1.363 . S
C2698 C2699 1.370 . S
C2698 C2702 1.524 . S
C2699 C2691 1.503 . S
C2699 C2698 1.370 . S
C2699 C2700 1.403 . S
C2700 C2699 1.403 . S
C2700 C2701 1.404 . S
C2700 C2703 1.539 . S
C2701 C2697 1.408 . S
C2701 C2700 1.404 . S
C2701 H2713 0.930 . S
C2702 C2698 1.524 . S
C2702 H2714 0.956 . S
C2702 H2715 0.961 . S
C2702 H2716 0.961 . S
C2703 C2700 1.539 . S
C2703 H2717 0.958 . S
C2703 H2718 0.961 . S
C2703 H2719 0.960 . S
H2704 C2688 0.931 . S
H2705 C2693 0.929 . S
H2706 C2694 0.960 . S
H2707 C2694 0.962 . S
H2708 C2694 0.960 . S
H2709 C2695 0.961 . S
H2710 C2695 0.961 . S
H2711 C2695 0.961 . S
H2712 C2696 0.931 . S
H2713 C2701 0.930 . S
H2714 C2702 0.956 . S
H2715 C2702 0.961 . S
H2716 C2702 0.961 . S
H2717 C2703 0.958 . S
H2718 C2703 0.961 . S
H2719 C2703 0.960 . S
C2720 C2721 1.352 1_554 S
C2720 C2722 1.394 . S
C2720 H2736 0.931 . S
C2721 C2720 1.352 1_556 S
C2721 C2725 1.405 . S
C2722 C2720 1.394 . S
C2722 C2723 1.369 . S
C2722 C2726 1.531 . S
C2723 C2722 1.369 . S
C2723 C2724 1.410 1_554 S
C2723 C2731 1.503 . S
C2724 C2723 1.410 1_556 S
C2724 C2725 1.392 . S
C2724 C2727 1.511 . S
C2725 C2721 1.405 . S
C2725 C2724 1.392 . S
C2725 H2737 0.929 . S
C2726 C2722 1.531 . S
C2726 H2738 0.960 . S
C2726 H2739 0.962 . S
C2726 H2740 0.960 . S
C2727 C2724 1.511 . S
C2727 H2741 0.961 . S
C2727 H2742 0.961 . S
C2727 H2743 0.961 . S
C2728 C2729 1.370 . S
C2728 C2730 1.363 . S
C2728 H2744 0.931 . S
C2729 C2728 1.370 . S
C2729 C2733 1.408 1_565 S
C2730 C2728 1.363 . S
C2730 C2731 1.370 . S
C2730 C2734 1.524 . S
C2731 C2723 1.503 . S
C2731 C2730 1.370 . S
C2731 C2732 1.403 1_565 S
C2732 C2731 1.403 1_545 S
C2732 C2733 1.404 . S
C2732 C2735 1.539 . S
C2733 C2729 1.408 1_545 S
C2733 C2732 1.404 . S
C2733 H2745 0.930 . S
C2734 C2730 1.524 . S
C2734 H2746 0.956 . S
C2734 H2747 0.961 . S
C2734 H2748 0.961 . S
C2735 C2732 1.539 . S
C2735 H2749 0.958 . S
C2735 H2750 0.961 1_554 S
C2735 H2751 0.960 1_554 S
H2736 C2720 0.931 . S
H2737 C2725 0.929 . S
H2738 C2726 0.960 . S
H2739 C2726 0.962 . S
H2740 C2726 0.960 . S
H2741 C2727 0.961 . S
H2742 C2727 0.961 . S
H2743 C2727 0.961 . S
H2744 C2728 0.931 . S
H2745 C2733 0.930 . S
H2746 C2734 0.956 . S
H2747 C2734 0.961 . S
H2748 C2734 0.961 . S
H2749 C2735 0.958 . S
H2750 C2735 0.961 1_556 S
H2751 C2735 0.960 1_556 S
C2752 C2753 1.391 . S
C2752 C2754 1.394 . S
C2752 H2768 0.931 . S
C2753 C2752 1.391 . S
C2753 C2757 1.376 1_554 S
C2754 C2752 1.394 . S
C2754 C2755 1.369 . S
C2754 C2758 1.531 . S
C2755 C2754 1.369 . S
C2755 C2756 1.410 1_554 S
C2755 C2763 1.503 . S
C2756 C2755 1.410 1_556 S
C2756 C2757 1.392 . S
C2756 C2759 1.511 . S
C2757 C2753 1.376 1_556 S
C2757 C2756 1.392 . S
C2757 H2769 0.929 . S
C2758 C2754 1.531 . S
C2758 H2770 0.960 . S
C2758 H2771 0.962 . S
C2758 H2772 0.960 . S
C2759 C2756 1.511 . S
C2759 H2773 0.961 . S
C2759 H2774 0.961 . S
C2759 H2775 0.961 . S
C2760 C2761 1.370 . S
C2760 C2762 1.363 . S
C2760 H2776 0.931 . S
C2761 C2760 1.370 . S
C2761 C2765 1.425 . S
C2762 C2760 1.363 . S
C2762 C2763 1.370 . S
C2762 C2766 1.524 . S
C2763 C2755 1.503 . S
C2763 C2762 1.370 . S
C2763 C2764 1.403 1_554 S
C2764 C2763 1.403 1_556 S
C2764 C2765 1.398 1_556 S
C2764 C2767 1.539 . S
C2765 C2761 1.425 . S
C2765 C2764 1.398 1_554 S
C2765 H2777 0.919 1_554 S
C2766 C2762 1.524 . S
C2766 H2778 0.956 . S
C2766 H2779 0.961 . S
C2766 H2780 0.961 . S
C2767 C2764 1.539 . S
C2767 H2781 0.958 . S
C2767 H2782 0.961 . S
C2767 H2783 0.960 . S
H2768 C2752 0.931 . S
H2769 C2757 0.929 . S
H2770 C2758 0.960 . S
H2771 C2758 0.962 . S
H2772 C2758 0.960 . S
H2773 C2759 0.961 . S
H2774 C2759 0.961 . S
H2775 C2759 0.961 . S
H2776 C2760 0.931 . S
H2777 C2765 0.919 1_556 S
H2778 C2766 0.956 . S
H2779 C2766 0.961 . S
H2780 C2766 0.961 . S
H2781 C2767 0.958 . S
H2782 C2767 0.961 . S
H2783 C2767 0.960 . S
C2784 C2785 1.391 . S
C2784 C2786 1.394 . S
C2784 H2800 0.931 . S
C2785 C2784 1.391 . S
C2785 C2789 1.376 . S
C2786 C2784 1.394 . S
C2786 C2787 1.369 . S
C2786 C2790 1.531 . S
C2787 C2786 1.369 . S
C2787 C2788 1.410 . S
C2787 C2795 1.503 . S
C2788 C2787 1.410 . S
C2788 C2789 1.392 . S
C2788 C2791 1.511 . S
C2789 C2785 1.376 . S
C2789 C2788 1.392 . S
C2789 H2801 0.929 . S
C2790 C2786 1.531 . S
C2790 H2802 0.960 . S
C2790 H2803 0.962 . S
C2790 H2804 0.960 . S
C2791 C2788 1.511 . S
C2791 H2805 0.961 . S
C2791 H2806 0.961 . S
C2791 H2807 0.961 . S
C2792 C2793 1.370 . S
C2792 C2794 1.363 . S
C2792 H2808 0.931 . S
C2793 C2792 1.370 . S
C2793 C2797 1.408 . S
C2794 C2792 1.363 . S
C2794 C2795 1.370 . S
C2794 C2798 1.524 . S
C2795 C2787 1.503 . S
C2795 C2794 1.370 . S
C2795 C2796 1.403 . S
C2796 C2795 1.403 . S
C2796 C2797 1.404 . S
C2796 C2799 1.539 . S
C2797 C2793 1.408 . S
C2797 C2796 1.404 . S
C2797 H2809 0.930 . S
C2798 C2794 1.524 . S
C2798 H2810 0.956 . S
C2798 H2811 0.961 . S
C2798 H2812 0.961 . S
C2799 C2796 1.539 . S
C2799 H2813 0.958 . S
C2799 H2814 0.961 . S
C2799 H2815 0.960 . S
H2800 C2784 0.931 . S
H2801 C2789 0.929 . S
H2802 C2790 0.960 . S
H2803 C2790 0.962 . S
H2804 C2790 0.960 . S
H2805 C2791 0.961 . S
H2806 C2791 0.961 . S
H2807 C2791 0.961 . S
H2808 C2792 0.931 . S
H2809 C2797 0.930 . S
H2810 C2798 0.956 . S
H2811 C2798 0.961 . S
H2812 C2798 0.961 . S
H2813 C2799 0.958 . S
H2814 C2799 0.961 . S
H2815 C2799 0.960 . S
C2816 C2817 1.391 . S
C2816 C2818 1.394 . S
C2816 H2832 0.931 . S
C2817 C2816 1.391 . S
C2817 C2821 1.376 . S
C2818 C2816 1.394 . S
C2818 C2819 1.369 . S
C2818 C2822 1.531 . S
C2819 C2818 1.369 . S
C2819 C2820 1.410 . S
C2819 C2827 1.503 . S
C2820 C2819 1.410 . S
C2820 C2821 1.392 . S
C2820 C2823 1.511 . S
C2821 C2817 1.376 . S
C2821 C2820 1.392 . S
C2821 H2833 0.929 . S
C2822 C2818 1.531 . S
C2822 H2834 0.960 . S
C2822 H2835 0.962 . S
C2822 H2836 0.960 . S
C2823 C2820 1.511 . S
C2823 H2837 0.961 . S
C2823 H2838 0.961 . S
C2823 H2839 0.961 . S
C2824 C2825 1.370 . S
C2824 C2826 1.363 . S
C2824 H2840 0.931 . S
C2825 C2824 1.370 . S
C2825 C2829 1.408 . S
C2826 C2824 1.363 . S
C2826 C2827 1.370 . S
C2826 C2830 1.524 . S
C2827 C2819 1.503 . S
C2827 C2826 1.370 . S
C2827 C2828 1.403 . S
C2828 C2827 1.403 . S
C2828 C2829 1.404 . S
C2828 C2831 1.539 . S
C2829 C2825 1.408 . S
C2829 C2828 1.404 . S
C2829 H2841 0.930 . S
C2830 C2826 1.524 . S
C2830 H2842 0.956 . S
C2830 H2843 0.961 . S
C2830 H2844 0.961 . S
C2831 C2828 1.539 . S
C2831 H2845 0.958 . S
C2831 H2846 0.961 . S
C2831 H2847 0.960 . S
H2832 C2816 0.931 . S
H2833 C2821 0.929 . S
H2834 C2822 0.960 . S
H2835 C2822 0.962 . S
H2836 C2822 0.960 . S
H2837 C2823 0.961 . S
H2838 C2823 0.961 . S
H2839 C2823 0.961 . S
H2840 C2824 0.931 . S
H2841 C2829 0.930 . S
H2842 C2830 0.956 . S
H2843 C2830 0.961 . S
H2844 C2830 0.961 . S
H2845 C2831 0.958 . S
H2846 C2831 0.961 . S
H2847 C2831 0.960 . S
C2848 C2849 1.391 . S
C2848 C2850 1.394 . S
C2848 H2864 0.931 . S
C2849 C2848 1.391 . S
C2849 C2853 1.376 . S
C2850 C2848 1.394 . S
C2850 C2851 1.369 . S
C2850 C2854 1.531 . S
C2851 C2850 1.369 . S
C2851 C2852 1.410 . S
C2851 C2859 1.503 . S
C2852 C2851 1.410 . S
C2852 C2853 1.392 . S
C2852 C2855 1.511 . S
C2853 C2849 1.376 . S
C2853 C2852 1.392 . S
C2853 H2865 0.929 . S
C2854 C2850 1.531 . S
C2854 H2866 0.960 . S
C2854 H2867 0.962 . S
C2854 H2868 0.960 . S
C2855 C2852 1.511 . S
C2855 H2869 0.961 . S
C2855 H2870 0.961 . S
C2855 H2871 0.961 . S
C2856 C2857 1.370 . S
C2856 C2858 1.363 . S
C2856 H2872 0.931 . S
C2857 C2856 1.370 . S
C2857 C2861 1.408 . S
C2858 C2856 1.363 . S
C2858 C2859 1.370 . S
C2858 C2862 1.524 . S
C2859 C2851 1.503 . S
C2859 C2858 1.370 . S
C2859 C2860 1.403 . S
C2860 C2859 1.403 . S
C2860 C2861 1.404 . S
C2860 C2863 1.539 . S
C2861 C2857 1.408 . S
C2861 C2860 1.404 . S
C2861 H2873 0.930 . S
C2862 C2858 1.524 . S
C2862 H2874 0.956 . S
C2862 H2875 0.961 . S
C2862 H2876 0.961 . S
C2863 C2860 1.539 . S
C2863 H2877 0.958 . S
C2863 H2878 0.961 . S
C2863 H2879 0.960 . S
H2864 C2848 0.931 . S
H2865 C2853 0.929 . S
H2866 C2854 0.960 . S
H2867 C2854 0.962 . S
H2868 C2854 0.960 . S
H2869 C2855 0.961 . S
H2870 C2855 0.961 . S
H2871 C2855 0.961 . S
H2872 C2856 0.931 . S
H2873 C2861 0.930 . S
H2874 C2862 0.956 . S
H2875 C2862 0.961 . S
H2876 C2862 0.961 . S
H2877 C2863 0.958 . S
H2878 C2863 0.961 . S
H2879 C2863 0.960 . S
C2880 C2881 1.391 . S
C2880 C2882 1.394 . S
C2880 H2896 0.931 . S
C2881 C2880 1.391 . S
C2881 C2885 1.376 . S
C2882 C2880 1.394 . S
C2882 C2883 1.369 . S
C2882 C2886 1.531 . S
C2883 C2882 1.369 . S
C2883 C2884 1.410 . S
C2883 C2891 1.503 . S
C2884 C2883 1.410 . S
C2884 C2885 1.392 . S
C2884 C2887 1.511 . S
C2885 C2881 1.376 . S
C2885 C2884 1.392 . S
C2885 H2897 0.929 . S
C2886 C2882 1.531 . S
C2886 H2898 0.960 . S
C2886 H2899 0.962 . S
C2886 H2900 0.960 . S
C2887 C2884 1.511 . S
C2887 H2901 0.961 . S
C2887 H2902 0.961 . S
C2887 H2903 0.961 . S
C2888 C2889 1.370 . S
C2888 C2890 1.363 . S
C2888 H2904 0.931 . S
C2889 C2888 1.370 . S
C2889 C2893 1.408 . S
C2890 C2888 1.363 . S
C2890 C2891 1.370 . S
C2890 C2894 1.524 . S
C2891 C2883 1.503 . S
C2891 C2890 1.370 . S
C2891 C2892 1.403 . S
C2892 C2891 1.403 . S
C2892 C2893 1.404 . S
C2892 C2895 1.539 . S
C2893 C2889 1.408 . S
C2893 C2892 1.404 . S
C2893 H2905 0.930 . S
C2894 C2890 1.524 . S
C2894 H2906 0.956 . S
C2894 H2907 0.961 . S
C2894 H2908 0.961 . S
C2895 C2892 1.539 . S
C2895 H2909 0.958 . S
C2895 H2910 0.961 . S
C2895 H2911 0.960 . S
H2896 C2880 0.931 . S
H2897 C2885 0.929 . S
H2898 C2886 0.960 . S
H2899 C2886 0.962 . S
H2900 C2886 0.960 . S
H2901 C2887 0.961 . S
H2902 C2887 0.961 . S
H2903 C2887 0.961 . S
H2904 C2888 0.931 . S
H2905 C2893 0.930 . S
H2906 C2894 0.956 . S
H2907 C2894 0.961 . S
H2908 C2894 0.961 . S
H2909 C2895 0.958 . S
H2910 C2895 0.961 . S
H2911 C2895 0.960 . S
C2912 C2913 1.391 . S
C2912 C2914 1.394 . S
C2912 H2928 0.931 . S
C2913 C2912 1.391 . S
C2913 C2917 1.376 . S
C2914 C2912 1.394 . S
C2914 C2915 1.369 . S
C2914 C2918 1.531 . S
C2915 C2914 1.369 . S
C2915 C2916 1.410 . S
C2915 C2923 1.503 . S
C2916 C2915 1.410 . S
C2916 C2917 1.392 . S
C2916 C2919 1.511 . S
C2917 C2913 1.376 . S
C2917 C2916 1.392 . S
C2917 H2929 0.929 . S
C2918 C2914 1.531 . S
C2918 H2930 0.960 . S
C2918 H2931 0.962 . S
C2918 H2932 0.960 . S
C2919 C2916 1.511 . S
C2919 H2933 0.961 . S
C2919 H2934 0.961 . S
C2919 H2935 0.961 . S
C2920 C2921 1.370 . S
C2920 C2922 1.363 . S
C2920 H2936 0.931 . S
C2921 C2920 1.370 . S
C2921 C2925 1.408 . S
C2922 C2920 1.363 . S
C2922 C2923 1.370 . S
C2922 C2926 1.524 . S
C2923 C2915 1.503 . S
C2923 C2922 1.370 . S
C2923 C2924 1.403 . S
C2924 C2923 1.403 . S
C2924 C2925 1.404 . S
C2924 C2927 1.539 . S
C2925 C2921 1.408 . S
C2925 C2924 1.404 . S
C2925 H2937 0.930 . S
C2926 C2922 1.524 . S
C2926 H2938 0.956 . S
C2926 H2939 0.961 . S
C2926 H2940 0.961 . S
C2927 C2924 1.539 . S
C2927 H2941 0.958 . S
C2927 H2942 0.961 . S
C2927 H2943 0.960 . S
H2928 C2912 0.931 . S
H2929 C2917 0.929 . S
H2930 C2918 0.960 . S
H2931 C2918 0.962 . S
H2932 C2918 0.960 . S
H2933 C2919 0.961 . S
H2934 C2919 0.961 . S
H2935 C2919 0.961 . S
H2936 C2920 0.931 . S
H2937 C2925 0.930 . S
H2938 C2926 0.956 . S
H2939 C2926 0.961 . S
H2940 C2926 0.961 . S
H2941 C2927 0.958 . S
H2942 C2927 0.961 . S
H2943 C2927 0.960 . S
C2944 C2945 1.391 . S
C2944 C2946 1.394 . S
C2944 H2960 0.931 . S
C2945 C2944 1.391 . S
C2945 C2949 1.376 . S
C2946 C2944 1.394 . S
C2946 C2947 1.369 . S
C2946 C2950 1.531 . S
C2947 C2946 1.369 . S
C2947 C2948 1.410 . S
C2947 C2955 1.503 . S
C2948 C2947 1.410 . S
C2948 C2949 1.392 . S
C2948 C2951 1.511 . S
C2949 C2945 1.376 . S
C2949 C2948 1.392 . S
C2949 H2961 0.929 . S
C2950 C2946 1.531 . S
C2950 H2962 0.960 . S
C2950 H2963 0.962 . S
C2950 H2964 0.960 . S
C2951 C2948 1.511 . S
C2951 H2965 0.961 . S
C2951 H2966 0.961 . S
C2951 H2967 0.961 . S
C2952 C2953 1.370 . S
C2952 C2954 1.363 . S
C2952 H2968 0.931 . S
C2953 C2952 1.370 . S
C2953 C2957 1.408 . S
C2954 C2952 1.363 . S
C2954 C2955 1.370 . S
C2954 C2958 1.524 . S
C2955 C2947 1.503 . S
C2955 C2954 1.370 . S
C2955 C2956 1.403 . S
C2956 C2955 1.403 . S
C2956 C2957 1.404 . S
C2956 C2959 1.539 . S
C2957 C2953 1.408 . S
C2957 C2956 1.404 . S
C2957 H2969 0.930 . S
C2958 C2954 1.524 . S
C2958 H2970 0.956 . S
C2958 H2971 0.961 . S
C2958 H2972 0.961 . S
C2959 C2956 1.539 . S
C2959 H2973 0.958 . S
C2959 H2974 0.961 . S
C2959 H2975 0.960 . S
H2960 C2944 0.931 . S
H2961 C2949 0.929 . S
H2962 C2950 0.960 . S
H2963 C2950 0.962 . S
H2964 C2950 0.960 . S
H2965 C2951 0.961 . S
H2966 C2951 0.961 . S
H2967 C2951 0.961 . S
H2968 C2952 0.931 . S
H2969 C2957 0.930 . S
H2970 C2958 0.956 . S
H2971 C2958 0.961 . S
H2972 C2958 0.961 . S
H2973 C2959 0.958 . S
H2974 C2959 0.961 . S
H2975 C2959 0.960 . S
C2976 C2977 1.391 . S
C2976 C2978 1.394 . S
C2976 H2992 0.931 . S
C2977 C2976 1.391 . S
C2977 C2981 1.376 . S
C2978 C2976 1.394 . S
C2978 C2979 1.369 . S
C2978 C2982 1.531 . S
C2979 C2978 1.369 . S
C2979 C2980 1.410 . S
C2979 C2987 1.503 . S
C2980 C2979 1.410 . S
C2980 C2981 1.392 . S
C2980 C2983 1.511 . S
C2981 C2977 1.376 . S
C2981 C2980 1.392 . S
C2981 H2993 0.929 . S
C2982 C2978 1.531 . S
C2982 H2994 0.960 . S
C2982 H2995 0.962 . S
C2982 H2996 0.960 . S
C2983 C2980 1.511 . S
C2983 H2997 0.961 . S
C2983 H2998 0.961 . S
C2983 H2999 0.961 1_455 S
C2984 C2985 1.370 . S
C2984 C2986 1.363 . S
C2984 H3000 0.931 . S
C2985 C2984 1.370 . S
C2985 C2989 1.408 . S
C2986 C2984 1.363 . S
C2986 C2987 1.370 . S
C2986 C2990 1.524 . S
C2987 C2979 1.503 . S
C2987 C2986 1.370 . S
C2987 C2988 1.403 . S
C2988 C2987 1.403 . S
C2988 C2989 1.404 . S
C2988 C2991 1.539 . S
C2989 C2985 1.408 . S
C2989 C2988 1.404 . S
C2989 H3001 0.930 . S
C2990 C2986 1.524 . S
C2990 H3002 0.956 . S
C2990 H3003 0.961 . S
C2990 H3004 0.961 . S
C2991 C2988 1.539 . S
C2991 H3005 0.958 . S
C2991 H3006 0.961 . S
C2991 H3007 0.960 . S
H2992 C2976 0.931 . S
H2993 C2981 0.929 . S
H2994 C2982 0.960 . S
H2995 C2982 0.962 . S
H2996 C2982 0.960 . S
H2997 C2983 0.961 . S
H2998 C2983 0.961 . S
H2999 C2983 0.961 1_655 S
H3000 C2984 0.931 . S
H3001 C2989 0.930 . S
H3002 C2990 0.956 . S
H3003 C2990 0.961 . S
H3004 C2990 0.961 . S
H3005 C2991 0.958 . S
H3006 C2991 0.961 . S
H3007 C2991 0.960 . S
C3008 C3009 1.391 . S
C3008 C3010 1.394 . S
C3008 H3024 0.931 . S
C3009 C3008 1.391 . S
C3009 C3013 1.376 . S
C3010 C3008 1.394 . S
C3010 C3011 1.369 . S
C3010 C3014 1.531 . S
C3011 C3010 1.369 . S
C3011 C3012 1.410 . S
C3011 C3019 1.503 . S
C3012 C3011 1.410 . S
C3012 C3013 1.392 . S
C3012 C3015 1.511 . S
C3013 C3009 1.376 . S
C3013 C3012 1.392 . S
C3013 H3025 0.929 . S
C3014 C3010 1.531 . S
C3014 H3026 0.960 . S
C3014 H3027 0.962 . S
C3014 H3028 0.960 . S
C3015 C3012 1.511 . S
C3015 H3029 0.961 . S
C3015 H3030 0.961 . S
C3015 H3031 0.961 . S
C3016 C3017 1.370 . S
C3016 C3018 1.363 . S
C3016 H3032 0.931 . S
C3017 C3016 1.370 . S
C3017 C3021 1.408 . S
C3018 C3016 1.363 . S
C3018 C3019 1.370 . S
C3018 C3022 1.524 . S
C3019 C3011 1.503 . S
C3019 C3018 1.370 . S
C3019 C3020 1.403 . S
C3020 C3019 1.403 . S
C3020 C3021 1.404 . S
C3020 C3023 1.539 . S
C3021 C3017 1.408 . S
C3021 C3020 1.404 . S
C3021 H3033 0.930 . S
C3022 C3018 1.524 . S
C3022 H3034 0.956 . S
C3022 H3035 0.961 . S
C3022 H3036 0.961 . S
C3023 C3020 1.539 . S
C3023 H3037 0.958 . S
C3023 H3038 0.961 . S
C3023 H3039 0.960 . S
H3024 C3008 0.931 . S
H3025 C3013 0.929 . S
H3026 C3014 0.960 . S
H3027 C3014 0.962 . S
H3028 C3014 0.960 . S
H3029 C3015 0.961 . S
H3030 C3015 0.961 . S
H3031 C3015 0.961 . S
H3032 C3016 0.931 . S
H3033 C3021 0.930 . S
H3034 C3022 0.956 . S
H3035 C3022 0.961 . S
H3036 C3022 0.961 . S
H3037 C3023 0.958 . S
H3038 C3023 0.961 . S
H3039 C3023 0.960 . S
C3040 C3041 1.391 . S
C3040 C3042 1.394 . S
C3040 H3056 0.931 . S
C3041 C3040 1.391 . S
C3041 C3045 1.376 . S
C3042 C3040 1.394 . S
C3042 C3043 1.369 . S
C3042 C3046 1.531 . S
C3043 C3042 1.369 . S
C3043 C3044 1.410 . S
C3043 C3051 1.503 . S
C3044 C3043 1.410 . S
C3044 C3045 1.392 . S
C3044 C3047 1.511 . S
C3045 C3041 1.376 . S
C3045 C3044 1.392 . S
C3045 H3057 0.929 . S
C3046 C3042 1.531 . S
C3046 H3058 0.960 . S
C3046 H3059 0.962 . S
C3046 H3060 0.960 . S
C3047 C3044 1.511 . S
C3047 H3061 0.961 . S
C3047 H3062 0.961 . S
C3047 H3063 0.961 . S
C3048 C3049 1.370 . S
C3048 C3050 1.363 . S
C3048 H3064 0.931 . S
C3049 C3048 1.370 . S
C3049 C3053 1.408 . S
C3050 C3048 1.363 . S
C3050 C3051 1.370 . S
C3050 C3054 1.524 . S
C3051 C3043 1.503 . S
C3051 C3050 1.370 . S
C3051 C3052 1.403 . S
C3052 C3051 1.403 . S
C3052 C3053 1.404 . S
C3052 C3055 1.539 . S
C3053 C3049 1.408 . S
C3053 C3052 1.404 . S
C3053 H3065 0.930 . S
C3054 C3050 1.524 . S
C3054 H3066 0.956 . S
C3054 H3067 0.961 . S
C3054 H3068 0.961 . S
C3055 C3052 1.539 . S
C3055 H3069 0.958 . S
C3055 H3070 0.961 . S
C3055 H3071 0.960 . S
H3056 C3040 0.931 . S
H3057 C3045 0.929 . S
H3058 C3046 0.960 . S
H3059 C3046 0.962 . S
H3060 C3046 0.960 . S
H3061 C3047 0.961 . S
H3062 C3047 0.961 . S
H3063 C3047 0.961 . S
H3064 C3048 0.931 . S
H3065 C3053 0.930 . S
H3066 C3054 0.956 . S
H3067 C3054 0.961 . S
H3068 C3054 0.961 . S
H3069 C3055 0.958 . S
H3070 C3055 0.961 . S
H3071 C3055 0.960 . S
C3072 C3073 1.391 . S
C3072 C3074 1.394 . S
C3072 H3088 0.931 . S
C3073 C3072 1.391 . S
C3073 C3077 1.376 . S
C3074 C3072 1.394 . S
C3074 C3075 1.369 . S
C3074 C3078 1.531 . S
C3075 C3074 1.369 . S
C3075 C3076 1.410 . S
C3075 C3083 1.503 . S
C3076 C3075 1.410 . S
C3076 C3077 1.392 . S
C3076 C3079 1.511 . S
C3077 C3073 1.376 . S
C3077 C3076 1.392 . S
C3077 H3089 0.929 . S
C3078 C3074 1.531 . S
C3078 H3090 0.960 . S
C3078 H3091 0.962 . S
C3078 H3092 0.960 . S
C3079 C3076 1.511 . S
C3079 H3093 0.961 . S
C3079 H3094 0.961 . S
C3079 H3095 0.961 . S
C3080 C3081 1.370 . S
C3080 C3082 1.363 . S
C3080 H3096 0.931 . S
C3081 C3080 1.370 . S
C3081 C3085 1.408 . S
C3082 C3080 1.363 . S
C3082 C3083 1.370 . S
C3082 C3086 1.524 . S
C3083 C3075 1.503 . S
C3083 C3082 1.370 . S
C3083 C3084 1.403 . S
C3084 C3083 1.403 . S
C3084 C3085 1.404 . S
C3084 C3087 1.539 . S
C3085 C3081 1.408 . S
C3085 C3084 1.404 . S
C3085 H3097 0.930 . S
C3086 C3082 1.524 . S
C3086 H3098 0.956 . S
C3086 H3099 0.961 . S
C3086 H3100 0.961 . S
C3087 C3084 1.539 . S
C3087 H3101 0.958 . S
C3087 H3102 0.961 . S
C3087 H3103 0.960 . S
H3088 C3072 0.931 . S
H3089 C3077 0.929 . S
H3090 C3078 0.960 . S
H3091 C3078 0.962 . S
H3092 C3078 0.960 . S
H3093 C3079 0.961 . S
H3094 C3079 0.961 . S
H3095 C3079 0.961 . S
H3096 C3080 0.931 . S
H3097 C3085 0.930 . S
H3098 C3086 0.956 . S
H3099 C3086 0.961 . S
H3100 C3086 0.961 . S
H3101 C3087 0.958 . S
H3102 C3087 0.961 . S
H3103 C3087 0.960 . S
C3104 C3105 1.391 . S
C3104 C3106 1.394 . S
C3104 H3120 0.931 . S
C3105 C3104 1.391 . S
C3105 C3109 1.376 . S
C3106 C3104 1.394 . S
C3106 C3107 1.369 . S
C3106 C3110 1.531 1_455 S
C3107 C3106 1.369 . S
C3107 C3108 1.410 . S
C3107 C3115 1.503 . S
C3108 C3107 1.410 . S
C3108 C3109 1.392 . S
C3108 C3111 1.511 . S
C3109 C3105 1.376 . S
C3109 C3108 1.392 . S
C3109 H3121 0.929 . S
C3110 C3106 1.531 1_655 S
C3110 H3122 0.960 . S
C3110 H3123 0.962 . S
C3110 H3124 0.960 . S
C3111 C3108 1.511 . S
C3111 H3125 0.961 . S
C3111 H3126 0.961 . S
C3111 H3127 0.961 . S
C3112 C3113 1.370 . S
C3112 C3114 1.363 . S
C3112 H3128 0.931 . S
C3113 C3112 1.370 . S
C3113 C3117 1.408 . S
C3114 C3112 1.363 . S
C3114 C3115 1.370 . S
C3114 C3118 1.524 . S
C3115 C3107 1.503 . S
C3115 C3114 1.370 . S
C3115 C3116 1.403 . S
C3116 C3115 1.403 . S
C3116 C3117 1.404 . S
C3116 C3119 1.539 . S
C3117 C3113 1.408 . S
C3117 C3116 1.404 . S
C3117 H3129 0.930 . S
C3118 C3114 1.524 . S
C3118 H3130 0.956 . S
C3118 H3131 0.961 . S
C3118 H3132 0.961 . S
C3119 C3116 1.539 . S
C3119 H3133 0.958 . S
C3119 H3134 0.961 . S
C3119 H3135 0.960 . S
H3120 C3104 0.931 . S
H3121 C3109 0.929 . S
H3122 C3110 0.960 . S
H3123 C3110 0.962 . S
H3124 C3110 0.960 . S
H3125 C3111 0.961 . S
H3126 C3111 0.961 . S
H3127 C3111 0.961 . S
H3128 C3112 0.931 . S
H3129 C3117 0.930 . S
H3130 C3118 0.956 . S
H3131 C3118 0.961 . S
H3132 C3118 0.961 . S
H3133 C3119 0.958 . S
H3134 C3119 0.961 . S
H3135 C3119 0.960 . S
C3136 C3137 1.391 . S
C3136 C3138 1.394 . S
C3136 H3152 0.931 . S
C3137 C3136 1.391 . S
C3137 C3141 1.376 . S
C3138 C3136 1.394 . S
C3138 C3139 1.369 . S
C3138 C3142 1.531 . S
C3139 C3138 1.369 . S
C3139 C3140 1.410 . S
C3139 C3147 1.503 . S
C3140 C3139 1.410 . S
C3140 C3141 1.392 . S
C3140 C3143 1.511 . S
C3141 C3137 1.376 . S
C3141 C3140 1.392 . S
C3141 H3153 0.929 . S
C3142 C3138 1.531 . S
C3142 H3154 0.960 . S
C3142 H3155 0.962 . S
C3142 H3156 0.960 . S
C3143 C3140 1.511 . S
C3143 H3157 0.961 . S
C3143 H3158 0.961 . S
C3143 H3159 0.961 . S
C3144 C3145 1.370 . S
C3144 C3146 1.363 . S
C3144 H3160 0.931 . S
C3145 C3144 1.370 . S
C3145 C3149 1.408 . S
C3146 C3144 1.363 . S
C3146 C3147 1.370 . S
C3146 C3150 1.524 . S
C3147 C3139 1.503 . S
C3147 C3146 1.370 . S
C3147 C3148 1.403 . S
C3148 C3147 1.403 . S
C3148 C3149 1.404 . S
C3148 C3151 1.539 . S
C3149 C3145 1.408 . S
C3149 C3148 1.404 . S
C3149 H3161 0.930 . S
C3150 C3146 1.524 . S
C3150 H3162 0.956 . S
C3150 H3163 0.961 . S
C3150 H3164 0.961 . S
C3151 C3148 1.539 . S
C3151 H3165 0.958 . S
C3151 H3166 0.961 . S
C3151 H3167 0.960 . S
H3152 C3136 0.931 . S
H3153 C3141 0.929 . S
H3154 C3142 0.960 . S
H3155 C3142 0.962 . S
H3156 C3142 0.960 . S
H3157 C3143 0.961 . S
H3158 C3143 0.961 . S
H3159 C3143 0.961 . S
H3160 C3144 0.931 . S
H3161 C3149 0.930 . S
H3162 C3150 0.956 . S
H3163 C3150 0.961 . S
H3164 C3150 0.961 . S
H3165 C3151 0.958 . S
H3166 C3151 0.961 . S
H3167 C3151 0.960 . S
C3168 C3169 1.391 . S
C3168 C3170 1.394 . S
C3168 H3184 0.931 . S
C3169 C3168 1.391 . S
C3169 C3173 1.376 . S
C3170 C3168 1.394 . S
C3170 C3171 1.369 . S
C3170 C3174 1.531 . S
C3171 C3170 1.369 . S
C3171 C3172 1.410 . S
C3171 C3179 1.503 . S
C3172 C3171 1.410 . S
C3172 C3173 1.392 . S
C3172 C3175 1.511 . S
C3173 C3169 1.376 . S
C3173 C3172 1.392 . S
C3173 H3185 0.929 . S
C3174 C3170 1.531 . S
C3174 H3186 0.960 . S
C3174 H3187 0.962 . S
C3174 H3188 0.960 . S
C3175 C3172 1.511 . S
C3175 H3189 0.961 . S
C3175 H3190 0.961 . S
C3175 H3191 0.961 . S
C3176 C3177 1.370 . S
C3176 C3178 1.363 . S
C3176 H3192 0.931 1_556 S
C3177 C3176 1.370 . S
C3177 C3181 1.408 . S
C3178 C3176 1.363 . S
C3178 C3179 1.370 . S
C3178 C3182 1.524 . S
C3179 C3171 1.503 . S
C3179 C3178 1.370 . S
C3179 C3180 1.403 . S
C3180 C3179 1.403 . S
C3180 C3181 1.404 . S
C3180 C3183 1.539 . S
C3181 C3177 1.408 . S
C3181 C3180 1.404 . S
C3181 H3193 0.930 . S
C3182 C3178 1.524 . S
C3182 H3194 0.956 . S
C3182 H3195 0.961 . S
C3182 H3196 0.961 . S
C3183 C3180 1.539 . S
C3183 H3197 0.958 . S
C3183 H3198 0.961 . S
C3183 H3199 0.960 . S
H3184 C3168 0.931 . S
H3185 C3173 0.929 . S
H3186 C3174 0.960 . S
H3187 C3174 0.962 . S
H3188 C3174 0.960 . S
H3189 C3175 0.961 . S
H3190 C3175 0.961 . S
H3191 C3175 0.961 . S
H3192 C3176 0.931 1_554 S
H3193 C3181 0.930 . S
H3194 C3182 0.956 . S
H3195 C3182 0.961 . S
H3196 C3182 0.961 . S
H3197 C3183 0.958 . S
H3198 C3183 0.961 . S
H3199 C3183 0.960 . S
C3200 C3201 1.391 . S
C3200 C3202 1.394 . S
C3200 H3216 0.931 . S
C3201 C3200 1.391 . S
C3201 C3205 1.376 . S
C3202 C3200 1.394 . S
C3202 C3203 1.369 . S
C3202 C3206 1.531 . S
C3203 C3202 1.369 . S
C3203 C3204 1.410 . S
C3203 C3211 1.503 . S
C3204 C3203 1.410 . S
C3204 C3205 1.392 . S
C3204 C3207 1.511 . S
C3205 C3201 1.376 . S
C3205 C3204 1.392 . S
C3205 H3217 0.929 . S
C3206 C3202 1.531 . S
C3206 H3218 0.960 . S
C3206 H3219 0.962 . S
C3206 H3220 0.960 . S
C3207 C3204 1.511 . S
C3207 H3221 0.961 . S
C3207 H3222 0.961 . S
C3207 H3223 0.961 . S
C3208 C3209 1.370 . S
C3208 C3210 1.363 . S
C3208 H3224 0.931 . S
C3209 C3208 1.370 . S
C3209 C3213 1.408 . S
C3210 C3208 1.363 . S
C3210 C3211 1.370 . S
C3210 C3214 1.524 . S
C3211 C3203 1.503 . S
C3211 C3210 1.370 . S
C3211 C3212 1.403 . S
C3212 C3211 1.403 . S
C3212 C3213 1.404 . S
C3212 C3215 1.539 . S
C3213 C3209 1.408 . S
C3213 C3212 1.404 . S
C3213 H3225 0.930 . S
C3214 C3210 1.524 . S
C3214 H3226 0.956 . S
C3214 H3227 0.961 . S
C3214 H3228 0.961 . S
C3215 C3212 1.539 . S
C3215 H3229 0.958 . S
C3215 H3230 0.961 . S
C3215 H3231 0.960 . S
H3216 C3200 0.931 . S
H3217 C3205 0.929 . S
H3218 C3206 0.960 . S
H3219 C3206 0.962 . S
H3220 C3206 0.960 . S
H3221 C3207 0.961 . S
H3222 C3207 0.961 . S
H3223 C3207 0.961 . S
H3224 C3208 0.931 . S
H3225 C3213 0.930 . S
H3226 C3214 0.956 . S
H3227 C3214 0.961 . S
H3228 C3214 0.961 . S
H3229 C3215 0.958 . S
H3230 C3215 0.961 . S
H3231 C3215 0.960 . S
C3232 C3233 1.391 . S
C3232 C3234 1.394 . S
C3232 H3248 0.931 . S
C3233 C3232 1.391 . S
C3233 C3237 1.376 . S
C3234 C3232 1.394 . S
C3234 C3235 1.369 . S
C3234 C3238 1.531 1_545 S
C3235 C3234 1.369 . S
C3235 C3236 1.410 . S
C3235 C3243 1.503 . S
C3236 C3235 1.410 . S
C3236 C3237 1.392 . S
C3236 C3239 1.511 . S
C3237 C3233 1.376 . S
C3237 C3236 1.392 . S
C3237 H3249 0.929 . S
C3238 C3234 1.531 1_565 S
C3238 H3250 0.960 . S
C3238 H3251 0.962 . S
C3238 H3252 0.960 . S
C3239 C3236 1.511 . S
C3239 H3253 0.961 . S
C3239 H3254 0.961 . S
C3239 H3255 0.961 . S
C3240 C3241 1.370 . S
C3240 C3242 1.363 . S
C3240 H3256 0.931 . S
C3241 C3240 1.370 . S
C3241 C3245 1.408 . S
C3242 C3240 1.363 . S
C3242 C3243 1.370 . S
C3242 C3246 1.524 . S
C3243 C3235 1.503 . S
C3243 C3242 1.370 . S
C3243 C3244 1.403 . S
C3244 C3243 1.403 . S
C3244 C3245 1.404 . S
C3244 C3247 1.539 . S
C3245 C3241 1.408 . S
C3245 C3244 1.404 . S
C3245 H3257 0.930 . S
C3246 C3242 1.524 . S
C3246 H3258 0.956 . S
C3246 H3259 0.961 . S
C3246 H3260 0.961 . S
C3247 C3244 1.539 . S
C3247 H3261 0.958 . S
C3247 H3262 0.961 . S
C3247 H3263 0.960 . S
H3248 C3232 0.931 . S
H3249 C3237 0.929 . S
H3250 C3238 0.960 . S
H3251 C3238 0.962 . S
H3252 C3238 0.960 . S
H3253 C3239 0.961 . S
H3254 C3239 0.961 . S
H3255 C3239 0.961 . S
H3256 C3240 0.931 . S
H3257 C3245 0.930 . S
H3258 C3246 0.956 . S
H3259 C3246 0.961 . S
H3260 C3246 0.961 . S
H3261 C3247 0.958 . S
H3262 C3247 0.961 . S
H3263 C3247 0.960 . S
C3264 C3265 1.391 . S
C3264 C3266 1.394 . S
C3264 H3280 0.931 . S
C3265 C3264 1.391 . S
C3265 C3269 1.376 . S
C3266 C3264 1.394 . S
C3266 C3267 1.369 . S
C3266 C3270 1.531 . S
C3267 C3266 1.369 . S
C3267 C3268 1.410 . S
C3267 C3275 1.503 . S
C3268 C3267 1.410 . S
C3268 C3269 1.392 . S
C3268 C3271 1.511 . S
C3269 C3265 1.376 . S
C3269 C3268 1.392 . S
C3269 H3281 0.929 . S
C3270 C3266 1.531 . S
C3270 H3282 0.960 . S
C3270 H3283 0.962 . S
C3270 H3284 0.960 . S
C3271 C3268 1.511 . S
C3271 H3285 0.961 . S
C3271 H3286 0.961 . S
C3271 H3287 0.961 . S
C3272 C3273 1.370 . S
C3272 C3274 1.363 . S
C3272 H3288 0.931 . S
C3273 C3272 1.370 . S
C3273 C3277 1.408 . S
C3274 C3272 1.363 . S
C3274 C3275 1.370 . S
C3274 C3278 1.524 . S
C3275 C3267 1.503 . S
C3275 C3274 1.370 . S
C3275 C3276 1.403 . S
C3276 C3275 1.403 . S
C3276 C3277 1.404 . S
C3276 C3279 1.539 . S
C3277 C3273 1.408 . S
C3277 C3276 1.404 . S
C3277 H3289 0.930 . S
C3278 C3274 1.524 . S
C3278 H3290 0.956 . S
C3278 H3291 0.961 . S
C3278 H3292 0.961 . S
C3279 C3276 1.539 . S
C3279 H3293 0.958 . S
C3279 H3294 0.961 . S
C3279 H3295 0.960 . S
H3280 C3264 0.931 . S
H3281 C3269 0.929 . S
H3282 C3270 0.960 . S
H3283 C3270 0.962 . S
H3284 C3270 0.960 . S
H3285 C3271 0.961 . S
H3286 C3271 0.961 . S
H3287 C3271 0.961 . S
H3288 C3272 0.931 . S
H3289 C3277 0.930 . S
H3290 C3278 0.956 . S
H3291 C3278 0.961 . S
H3292 C3278 0.961 . S
H3293 C3279 0.958 . S
H3294 C3279 0.961 . S
H3295 C3279 0.960 . S
C3296 C3297 1.391 . S
C3296 C3298 1.394 . S
C3296 H3312 0.929 1_545 S
C3297 C3296 1.391 . S
C3297 C3301 1.376 . S
C3298 C3296 1.394 . S
C3298 C3299 1.369 . S
C3298 C3302 1.531 . S
C3299 C3298 1.369 . S
C3299 C3300 1.410 . S
C3299 C3307 1.503 . S
C3300 C3299 1.410 . S
C3300 C3301 1.392 . S
C3300 C3303 1.511 . S
C3301 C3297 1.376 . S
C3301 C3300 1.392 . S
C3301 H3313 0.929 . S
C3302 C3298 1.531 . S
C3302 H3314 0.960 1_545 S
C3302 H3315 0.962 . S
C3302 H3316 0.960 1_545 S
C3303 C3300 1.511 . S
C3303 H3317 0.961 . S
C3303 H3318 0.961 . S
C3303 H3319 0.961 . S
C3304 C3305 1.370 . S
C3304 C3306 1.363 . S
C3304 H3320 0.931 . S
C3305 C3304 1.370 . S
C3305 C3309 1.408 . S
C3306 C3304 1.363 . S
C3306 C3307 1.370 . S
C3306 C3310 1.524 . S
C3307 C3299 1.503 . S
C3307 C3306 1.370 . S
C3307 C3308 1.403 . S
C3308 C3307 1.403 . S
C3308 C3309 1.404 . S
C3308 C3311 1.539 1_545 S
C3309 C3305 1.408 . S
C3309 C3308 1.404 . S
C3309 H3321 0.930 . S
C3310 C3306 1.524 . S
C3310 H3322 0.956 . S
C3310 H3323 0.961 . S
C3310 H3324 0.961 . S
C3311 C3308 1.539 1_565 S
C3311 H3325 0.958 . S
C3311 H3326 0.961 . S
C3311 H3327 0.960 . S
H3312 C3296 0.929 1_565 S
H3313 C3301 0.929 . S
H3314 C3302 0.960 1_565 S
H3315 C3302 0.962 . S
H3316 C3302 0.960 1_565 S
H3317 C3303 0.961 . S
H3318 C3303 0.961 . S
H3319 C3303 0.961 . S
H3320 C3304 0.931 . S
H3321 C3309 0.930 . S
H3322 C3310 0.956 . S
H3323 C3310 0.961 . S
H3324 C3310 0.961 . S
H3325 C3311 0.958 . S
H3326 C3311 0.961 . S
H3327 C3311 0.960 . S
C3328 C3329 1.391 . S
C3328 C3330 1.394 . S
C3328 H3344 0.931 . S
C3329 C3328 1.391 . S
C3329 C3333 1.376 . S
C3330 C3328 1.394 . S
C3330 C3331 1.369 . S
C3330 C3334 1.531 . S
C3331 C3330 1.369 . S
C3331 C3332 1.410 . S
C3331 C3339 1.503 . S
C3332 C3331 1.410 . S
C3332 C3333 1.392 . S
C3332 C3335 1.511 . S
C3333 C3329 1.376 . S
C3333 C3332 1.392 . S
C3333 H3345 0.929 . S
C3334 C3330 1.531 . S
C3334 H3346 0.960 . S
C3334 H3347 0.962 . S
C3334 H3348 0.960 . S
C3335 C3332 1.511 . S
C3335 H3349 0.961 . S
C3335 H3350 0.961 . S
C3335 H3351 0.961 . S
C3336 C3337 1.370 . S
C3336 C3338 1.363 . S
C3336 H3352 0.931 . S
C3337 C3336 1.370 . S
C3337 C3341 1.408 . S
C3338 C3336 1.363 . S
C3338 C3339 1.370 . S
C3338 C3342 1.524 . S
C3339 C3331 1.503 . S
C3339 C3338 1.370 . S
C3339 C3340 1.403 . S
C3340 C3339 1.403 . S
C3340 C3341 1.404 . S
C3340 C3343 1.539 . S
C3341 C3337 1.408 . S
C3341 C3340 1.404 . S
C3341 H3353 0.930 . S
C3342 C3338 1.524 . S
C3342 H3354 0.956 . S
C3342 H3355 0.961 . S
C3342 H3356 0.961 . S
C3343 C3340 1.539 . S
C3343 H3357 0.958 . S
C3343 H3358 0.961 . S
C3343 H3359 0.960 . S
H3344 C3328 0.931 . S
H3345 C3333 0.929 . S
H3346 C3334 0.960 . S
H3347 C3334 0.962 . S
H3348 C3334 0.960 . S
H3349 C3335 0.961 . S
H3350 C3335 0.961 . S
H3351 C3335 0.961 . S
H3352 C3336 0.931 . S
H3353 C3341 0.930 . S
H3354 C3342 0.956 . S
H3355 C3342 0.961 . S
H3356 C3342 0.961 . S
H3357 C3343 0.958 . S
H3358 C3343 0.961 . S
H3359 C3343 0.960 . S
C3360 C3361 1.391 . S
C3360 C3362 1.394 . S
C3360 H3376 0.931 . S
C3361 C3360 1.391 . S
C3361 C3365 1.376 . S
C3362 C3360 1.394 . S
C3362 C3363 1.369 . S
C3362 C3366 1.531 . S
C3363 C3362 1.369 . S
C3363 C3364 1.410 . S
C3363 C3371 1.503 . S
C3364 C3363 1.410 . S
C3364 C3365 1.392 . S
C3364 C3367 1.511 . S
C3365 C3361 1.376 . S
C3365 C3364 1.392 . S
C3365 H3377 0.929 . S
C3366 C3362 1.531 . S
C3366 H3378 0.960 . S
C3366 H3379 0.962 . S
C3366 H3380 0.960 . S
C3367 C3364 1.511 . S
C3367 H3381 0.961 . S
C3367 H3382 0.961 . S
C3367 H3383 0.961 . S
C3368 C3369 1.370 . S
C3368 C3370 1.363 . S
C3368 H3384 0.931 . S
C3369 C3368 1.370 . S
C3369 C3373 1.408 . S
C3370 C3368 1.363 . S
C3370 C3371 1.370 . S
C3370 C3374 1.524 . S
C3371 C3363 1.503 . S
C3371 C3370 1.370 . S
C3371 C3372 1.403 . S
C3372 C3371 1.403 . S
C3372 C3373 1.404 . S
C3372 C3375 1.539 1_545 S
C3373 C3369 1.408 . S
C3373 C3372 1.404 . S
C3373 H3385 0.930 . S
C3374 C3370 1.524 . S
C3374 H3386 0.956 . S
C3374 H3387 0.961 . S
C3374 H3388 0.961 . S
C3375 C3372 1.539 1_565 S
C3375 H3389 0.958 . S
C3375 H3390 0.961 . S
C3375 H3391 0.960 1_565 S
H3376 C3360 0.931 . S
H3377 C3365 0.929 . S
H3378 C3366 0.960 . S
H3379 C3366 0.962 . S
H3380 C3366 0.960 . S
H3381 C3367 0.961 . S
H3382 C3367 0.961 . S
H3383 C3367 0.961 . S
H3384 C3368 0.931 . S
H3385 C3373 0.930 . S
H3386 C3374 0.956 . S
H3387 C3374 0.961 . S
H3388 C3374 0.961 . S
H3389 C3375 0.958 . S
H3390 C3375 0.961 . S
H3391 C3375 0.960 1_545 S
C3392 C3393 1.391 . S
C3392 C3394 1.394 . S
C3392 H3408 0.931 . S
C3393 C3392 1.391 . S
C3393 C3397 1.376 . S
C3394 C3392 1.394 . S
C3394 C3395 1.369 . S
C3394 C3398 1.531 . S
C3395 C3394 1.369 . S
C3395 C3396 1.410 . S
C3395 C3403 1.503 . S
C3396 C3395 1.410 . S
C3396 C3397 1.392 . S
C3396 C3399 1.511 . S
C3397 C3393 1.376 . S
C3397 C3396 1.392 . S
C3397 H3409 0.929 . S
C3398 C3394 1.531 . S
C3398 H3410 0.960 . S
C3398 H3411 0.962 . S
C3398 H3412 0.960 . S
C3399 C3396 1.511 . S
C3399 H3413 0.961 . S
C3399 H3414 0.961 . S
C3399 H3415 0.961 . S
C3400 C3401 1.370 . S
C3400 C3402 1.363 . S
C3400 H3416 0.931 . S
C3401 C3400 1.370 . S
C3401 C3405 1.408 . S
C3402 C3400 1.363 . S
C3402 C3403 1.370 . S
C3402 C3406 1.524 . S
C3403 C3395 1.503 . S
C3403 C3402 1.370 . S
C3403 C3404 1.403 . S
C3404 C3403 1.403 . S
C3404 C3405 1.404 . S
C3404 C3407 1.539 . S
C3405 C3401 1.408 . S
C3405 C3404 1.404 . S
C3405 H3417 0.930 . S
C3406 C3402 1.524 . S
C3406 H3418 0.956 . S
C3406 H3419 0.961 . S
C3406 H3420 0.961 . S
C3407 C3404 1.539 . S
C3407 H3421 0.958 . S
C3407 H3422 0.961 . S
C3407 H3423 0.960 . S
H3408 C3392 0.931 . S
H3409 C3397 0.929 . S
H3410 C3398 0.960 . S
H3411 C3398 0.962 . S
H3412 C3398 0.960 . S
H3413 C3399 0.961 . S
H3414 C3399 0.961 . S
H3415 C3399 0.961 . S
H3416 C3400 0.931 . S
H3417 C3405 0.930 . S
H3418 C3406 0.956 . S
H3419 C3406 0.961 . S
H3420 C3406 0.961 . S
H3421 C3407 0.958 . S
H3422 C3407 0.961 . S
H3423 C3407 0.960 . S
C3424 C3425 1.391 1_565 S
C3424 C3426 1.394 . S
C3424 H3440 0.931 . S
C3425 C3424 1.391 1_545 S
C3425 C3429 1.376 . S
C3426 C3424 1.394 . S
C3426 C3427 1.369 1_565 S
C3426 C3430 1.531 . S
C3427 C3426 1.369 1_545 S
C3427 C3428 1.410 . S
C3427 C3435 1.503 . S
C3428 C3427 1.410 . S
C3428 C3429 1.392 . S
C3428 C3431 1.511 . S
C3429 C3425 1.376 . S
C3429 C3428 1.392 . S
C3429 H3441 0.929 . S
C3430 C3426 1.531 . S
C3430 H3442 0.960 . S
C3430 H3443 0.962 . S
C3430 H3444 0.960 . S
C3431 C3428 1.511 . S
C3431 H3445 0.961 . S
C3431 H3446 0.961 . S
C3431 H3447 0.961 . S
C3432 C3433 1.370 . S
C3432 C3434 1.363 . S
C3432 H3448 0.931 1_545 S
C3433 C3432 1.370 . S
C3433 C3437 1.408 . S
C3434 C3432 1.363 . S
C3434 C3435 1.370 . S
C3434 C3438 1.524 1_545 S
C3435 C3427 1.503 . S
C3435 C3434 1.370 . S
C3435 C3436 1.403 . S
C3436 C3435 1.403 . S
C3436 C3437 1.404 . S
C3436 C3439 1.539 . S
C3437 C3433 1.408 . S
C3437 C3436 1.404 . S
C3437 H3449 0.930 . S
C3438 C3434 1.524 1_565 S
C3438 H3450 0.956 . S
C3438 H3451 0.961 . S
C3438 H3452 0.961 . S
C3439 C3436 1.539 . S
C3439 H3453 0.958 . S
C3439 H3454 0.961 . S
C3439 H3455 0.960 . S
H3440 C3424 0.931 . S
H3441 C3429 0.929 . S
H3442 C3430 0.960 . S
H3443 C3430 0.962 . S
H3444 C3430 0.960 . S
H3445 C3431 0.961 . S
H3446 C3431 0.961 . S
H3447 C3431 0.961 . S
H3448 C3432 0.931 1_565 S
H3449 C3437 0.930 . S
H3450 C3438 0.956 . S
H3451 C3438 0.961 . S
H3452 C3438 0.961 . S
H3453 C3439 0.958 . S
H3454 C3439 0.961 . S
H3455 C3439 0.960 . S
C3456 C3457 1.391 . S
C3456 C3458 1.394 . S
C3456 H3472 0.931 . S
C3457 C3456 1.391 . S
C3457 C3461 1.376 . S
C3458 C3456 1.394 . S
C3458 C3459 1.369 . S
C3458 C3462 1.531 . S
C3459 C3458 1.369 . S
C3459 C3460 1.410 . S
C3459 C3467 1.503 . S
C3460 C3459 1.410 . S
C3460 C3461 1.392 . S
C3460 C3463 1.511 . S
C3461 C3457 1.376 . S
C3461 C3460 1.392 . S
C3461 H3473 0.929 . S
C3462 C3458 1.531 . S
C3462 H3474 0.960 . S
C3462 H3475 0.962 . S
C3462 H3476 0.960 . S
C3463 C3460 1.511 . S
C3463 H3477 0.961 . S
C3463 H3478 0.961 . S
C3463 H3479 0.961 . S
C3464 C3465 1.370 . S
C3464 C3466 1.363 . S
C3464 H3480 0.931 . S
C3465 C3464 1.370 . S
C3465 C3469 1.408 . S
C3466 C3464 1.363 . S
C3466 C3467 1.370 . S
C3466 C3470 1.524 . S
C3467 C3459 1.503 . S
C3467 C3466 1.370 . S
C3467 C3468 1.403 . S
C3468 C3467 1.403 . S
C3468 C3469 1.404 . S
C3468 C3471 1.539 . S
C3469 C3465 1.408 . S
C3469 C3468 1.404 . S
C3469 H3481 0.930 . S
C3470 C3466 1.524 . S
C3470 H3482 0.956 . S
C3470 H3483 0.961 . S
C3470 H3484 0.961 . S
C3471 C3468 1.539 . S
C3471 H3485 0.958 . S
C3471 H3486 0.961 . S
C3471 H3487 0.960 . S
H3472 C3456 0.931 . S
H3473 C3461 0.929 . S
H3474 C3462 0.960 . S
H3475 C3462 0.962 . S
H3476 C3462 0.960 . S
H3477 C3463 0.961 . S
H3478 C3463 0.961 . S
H3479 C3463 0.961 . S
H3480 C3464 0.931 . S
H3481 C3469 0.930 . S
H3482 C3470 0.956 . S
H3483 C3470 0.961 . S
H3484 C3470 0.961 . S
H3485 C3471 0.958 . S
H3486 C3471 0.961 . S
H3487 C3471 0.960 . S
C3488 C3489 1.391 . S
C3488 C3490 1.394 . S
C3488 H3504 0.931 . S
C3489 C3488 1.391 . S
C3489 C3493 1.376 . S
C3490 C3488 1.394 . S
C3490 C3491 1.369 . S
C3490 C3494 1.531 . S
C3491 C3490 1.369 . S
C3491 C3492 1.410 . S
C3491 C3499 1.503 . S
C3492 C3491 1.410 . S
C3492 C3493 1.392 . S
C3492 C3495 1.511 . S
C3493 C3489 1.376 . S
C3493 C3492 1.392 . S
C3493 H3505 0.929 . S
C3494 C3490 1.531 . S
C3494 H3506 0.960 . S
C3494 H3507 0.962 . S
C3494 H3508 0.960 . S
C3495 C3492 1.511 . S
C3495 H3509 0.947 1_554 S
C3495 H3510 0.961 . S
C3495 H3511 0.961 1_554 S
C3496 C3497 1.370 . S
C3496 C3498 1.363 . S
C3496 H3512 0.931 . S
C3497 C3496 1.370 . S
C3497 C3501 1.408 . S
C3498 C3496 1.363 . S
C3498 C3499 1.370 . S
C3498 C3502 1.524 . S
C3499 C3491 1.503 . S
C3499 C3498 1.370 . S
C3499 C3500 1.403 . S
C3500 C3499 1.403 . S
C3500 C3501 1.404 . S
C3500 C3503 1.539 . S
C3501 C3497 1.408 . S
C3501 C3500 1.404 . S
C3501 H3513 0.930 . S
C3502 C3498 1.524 . S
C3502 H3514 0.956 . S
C3502 H3515 0.961 . S
C3502 H3516 0.961 . S
C3503 C3500 1.539 . S
C3503 H3517 0.958 . S
C3503 H3518 0.961 1_554 S
C3503 H3519 0.960 . S
H3504 C3488 0.931 . S
H3505 C3493 0.929 . S
H3506 C3494 0.960 . S
H3507 C3494 0.962 . S
H3508 C3494 0.960 . S
H3509 C3495 0.947 1_556 S
H3510 C3495 0.961 . S
H3511 C3495 0.961 1_556 S
H3512 C3496 0.931 . S
H3513 C3501 0.930 . S
H3514 C3502 0.956 . S
H3515 C3502 0.961 . S
H3516 C3502 0.961 . S
H3517 C3503 0.958 . S
H3518 C3503 0.961 1_556 S
H3519 C3503 0.960 . S
C3520 C3521 1.391 . S
C3520 C3522 1.394 . S
C3520 H3536 0.931 . S
C3521 C3520 1.391 . S
C3521 C3525 1.376 . S
C3522 C3520 1.394 . S
C3522 C3523 1.369 . S
C3522 C3526 1.531 . S
C3523 C3522 1.369 . S
C3523 C3524 1.410 . S
C3523 C3531 1.503 . S
C3524 C3523 1.410 . S
C3524 C3525 1.392 . S
C3524 C3527 1.511 . S
C3525 C3521 1.376 . S
C3525 C3524 1.392 . S
C3525 H3537 0.929 . S
C3526 C3522 1.531 . S
C3526 H3538 0.960 1_554 S
C3526 H3539 0.962 . S
C3526 H3540 0.960 1_554 S
C3527 C3524 1.511 . S
C3527 H3541 0.961 . S
C3527 H3542 0.961 . S
C3527 H3543 0.961 . S
C3528 C3529 1.370 . S
C3528 C3530 1.363 . S
C3528 H3544 0.931 . S
C3529 C3528 1.370 . S
C3529 C3533 1.408 . S
C3530 C3528 1.363 . S
C3530 C3531 1.370 . S
C3530 C3534 1.524 . S
C3531 C3523 1.503 . S
C3531 C3530 1.370 . S
C3531 C3532 1.403 . S
C3532 C3531 1.403 . S
C3532 C3533 1.404 . S
C3532 C3535 1.539 . S
C3533 C3529 1.408 . S
C3533 C3532 1.404 . S
C3533 H3545 0.930 . S
C3534 C3530 1.524 . S
C3534 H3546 0.956 . S
C3534 H3547 0.961 . S
C3534 H3548 0.961 . S
C3535 C3532 1.539 . S
C3535 H3549 0.958 1_554 S
C3535 H3550 0.961 . S
C3535 H3551 0.960 . S
H3536 C3520 0.931 . S
H3537 C3525 0.929 . S
H3538 C3526 0.960 1_556 S
H3539 C3526 0.962 . S
H3540 C3526 0.960 1_556 S
H3541 C3527 0.961 . S
H3542 C3527 0.961 . S
H3543 C3527 0.961 . S
H3544 C3528 0.931 . S
H3545 C3533 0.930 . S
H3546 C3534 0.956 . S
H3547 C3534 0.961 . S
H3548 C3534 0.961 . S
H3549 C3535 0.958 1_556 S
H3550 C3535 0.961 . S
H3551 C3535 0.960 . S
C3552 C3553 1.391 . S
C3552 C3554 1.394 . S
C3552 H3568 0.931 . S
C3553 C3552 1.391 . S
C3553 C3557 1.376 . S
C3554 C3552 1.394 . S
C3554 C3555 1.369 . S
C3554 C3558 1.531 . S
C3555 C3554 1.369 . S
C3555 C3556 1.410 . S
C3555 C3563 1.503 . S
C3556 C3555 1.410 . S
C3556 C3557 1.392 . S
C3556 C3559 1.511 . S
C3557 C3553 1.376 . S
C3557 C3556 1.392 . S
C3557 H3569 0.929 . S
C3558 C3554 1.531 . S
C3558 H3570 0.960 . S
C3558 H3571 0.962 . S
C3558 H3572 0.960 . S
C3559 C3556 1.511 . S
C3559 H3573 0.961 . S
C3559 H3574 0.961 . S
C3559 H3575 0.961 . S
C3560 C3561 1.370 . S
C3560 C3562 1.363 . S
C3560 H3576 0.931 . S
C3561 C3560 1.370 . S
C3561 C3565 1.408 . S
C3562 C3560 1.363 . S
C3562 C3563 1.370 . S
C3562 C3566 1.524 . S
C3563 C3555 1.503 . S
C3563 C3562 1.370 . S
C3563 C3564 1.403 . S
C3564 C3563 1.403 . S
C3564 C3565 1.404 . S
C3564 C3567 1.539 . S
C3565 C3561 1.408 . S
C3565 C3564 1.404 . S
C3565 H3577 0.930 . S
C3566 C3562 1.524 . S
C3566 H3578 0.956 . S
C3566 H3579 0.961 . S
C3566 H3580 0.961 . S
C3567 C3564 1.539 . S
C3567 H3581 0.958 . S
C3567 H3582 0.961 . S
C3567 H3583 0.960 . S
H3568 C3552 0.931 . S
H3569 C3557 0.929 . S
H3570 C3558 0.960 . S
H3571 C3558 0.962 . S
H3572 C3558 0.960 . S
H3573 C3559 0.961 . S
H3574 C3559 0.961 . S
H3575 C3559 0.961 . S
H3576 C3560 0.931 . S
H3577 C3565 0.930 . S
H3578 C3566 0.956 . S
H3579 C3566 0.961 . S
H3580 C3566 0.961 . S
H3581 C3567 0.958 . S
H3582 C3567 0.961 . S
H3583 C3567 0.960 . S
C3584 C3585 1.391 . S
C3584 C3586 1.394 . S
C3584 H3600 0.931 . S
C3585 C3584 1.391 . S
C3585 C3589 1.376 . S
C3586 C3584 1.394 . S
C3586 C3587 1.369 . S
C3586 C3590 1.531 . S
C3587 C3586 1.369 . S
C3587 C3588 1.410 . S
C3587 C3595 1.503 . S
C3588 C3587 1.410 . S
C3588 C3589 1.392 . S
C3588 C3591 1.511 . S
C3589 C3585 1.376 . S
C3589 C3588 1.392 . S
C3589 H3601 0.929 . S
C3590 C3586 1.531 . S
C3590 H3602 0.960 . S
C3590 H3603 0.962 . S
C3590 H3604 0.960 . S
C3591 C3588 1.511 . S
C3591 H3605 0.961 . S
C3591 H3606 0.961 . S
C3591 H3607 0.961 . S
C3592 C3593 1.370 . S
C3592 C3594 1.363 . S
C3592 H3608 0.931 . S
C3593 C3592 1.370 . S
C3593 C3597 1.408 . S
C3594 C3592 1.363 . S
C3594 C3595 1.370 . S
C3594 C3598 1.524 . S
C3595 C3587 1.503 . S
C3595 C3594 1.370 . S
C3595 C3596 1.403 . S
C3596 C3595 1.403 . S
C3596 C3597 1.404 . S
C3596 C3599 1.539 . S
C3597 C3593 1.408 . S
C3597 C3596 1.404 . S
C3597 H3609 0.930 . S
C3598 C3594 1.524 . S
C3598 H3610 0.956 . S
C3598 H3611 0.961 . S
C3598 H3612 0.961 . S
C3599 C3596 1.539 . S
C3599 H3613 0.958 . S
C3599 H3614 0.961 . S
C3599 H3615 0.960 . S
H3600 C3584 0.931 . S
H3601 C3589 0.929 . S
H3602 C3590 0.960 . S
H3603 C3590 0.962 . S
H3604 C3590 0.960 . S
H3605 C3591 0.961 . S
H3606 C3591 0.961 . S
H3607 C3591 0.961 . S
H3608 C3592 0.931 . S
H3609 C3597 0.930 . S
H3610 C3598 0.956 . S
H3611 C3598 0.961 . S
H3612 C3598 0.961 . S
H3613 C3599 0.958 . S
H3614 C3599 0.961 . S
H3615 C3599 0.960 . S
C3616 C3617 1.391 . S
C3616 C3618 1.394 1_545 S
C3616 H3632 0.931 . S
C3617 C3616 1.391 . S
C3617 C3621 1.376 1_545 S
C3618 C3616 1.394 1_565 S
C3618 C3619 1.369 . S
C3618 C3622 1.531 . S
C3619 C3618 1.369 . S
C3619 C3620 1.410 . S
C3619 C3627 1.503 . S
C3620 C3619 1.410 . S
C3620 C3621 1.392 . S
C3620 C3623 1.511 . S
C3621 C3617 1.376 1_565 S
C3621 C3620 1.392 . S
C3621 H3633 0.929 . S
C3622 C3618 1.531 . S
C3622 H3634 0.960 . S
C3622 H3635 0.962 . S
C3622 H3636 0.960 1_565 S
C3623 C3620 1.511 . S
C3623 H3637 0.961 . S
C3623 H3638 0.961 . S
C3623 H3639 0.961 . S
C3624 C3625 1.370 . S
C3624 C3626 1.363 . S
C3624 H3640 0.931 . S
C3625 C3624 1.370 . S
C3625 C3629 1.408 . S
C3626 C3624 1.363 . S
C3626 C3627 1.370 . S
C3626 C3630 1.524 . S
C3627 C3619 1.503 . S
C3627 C3626 1.370 . S
C3627 C3628 1.403 . S
C3628 C3627 1.403 . S
C3628 C3629 1.404 . S
C3628 C3631 1.539 . S
C3629 C3625 1.408 . S
C3629 C3628 1.404 . S
C3629 H3641 0.930 . S
C3630 C3626 1.524 . S
C3630 H3642 0.956 . S
C3630 H3643 0.961 . S
C3630 H3644 0.961 . S
C3631 C3628 1.539 . S
C3631 H3645 0.958 . S
C3631 H3646 0.961 . S
C3631 H3647 0.960 . S
H3632 C3616 0.931 . S
H3633 C3621 0.929 . S
H3634 C3622 0.960 . S
H3635 C3622 0.962 . S
H3636 C3622 0.960 1_545 S
H3637 C3623 0.961 . S
H3638 C3623 0.961 . S
H3639 C3623 0.961 . S
H3640 C3624 0.931 . S
H3641 C3629 0.930 . S
H3642 C3630 0.956 . S
H3643 C3630 0.961 . S
H3644 C3630 0.961 . S
H3645 C3631 0.958 . S
H3646 C3631 0.961 . S
H3647 C3631 0.960 . S
C3648 C3649 1.391 . S
C3648 C3650 1.394 . S
C3648 H3664 0.931 . S
C3649 C3648 1.391 . S
C3649 C3653 1.376 . S
C3650 C3648 1.394 . S
C3650 C3651 1.369 . S
C3650 C3654 1.531 . S
C3651 C3650 1.369 . S
C3651 C3652 1.410 . S
C3651 C3659 1.503 . S
C3652 C3651 1.410 . S
C3652 C3653 1.392 . S
C3652 C3655 1.511 . S
C3653 C3649 1.376 . S
C3653 C3652 1.392 . S
C3653 H3665 0.929 . S
C3654 C3650 1.531 . S
C3654 H3666 0.960 . S
C3654 H3667 0.962 . S
C3654 H3668 0.960 . S
C3655 C3652 1.511 . S
C3655 H3669 0.961 . S
C3655 H3670 0.961 . S
C3655 H3671 0.961 . S
C3656 C3657 1.370 . S
C3656 C3658 1.363 . S
C3656 H3672 0.931 . S
C3657 C3656 1.370 . S
C3657 C3661 1.408 . S
C3658 C3656 1.363 . S
C3658 C3659 1.370 . S
C3658 C3662 1.524 . S
C3659 C3651 1.503 . S
C3659 C3658 1.370 . S
C3659 C3660 1.403 . S
C3660 C3659 1.403 . S
C3660 C3661 1.404 . S
C3660 C3663 1.539 . S
C3661 C3657 1.408 . S
C3661 C3660 1.404 . S
C3661 H3673 0.930 . S
C3662 C3658 1.524 . S
C3662 H3674 0.956 . S
C3662 H3675 0.961 . S
C3662 H3676 0.961 . S
C3663 C3660 1.539 . S
C3663 H3677 0.958 . S
C3663 H3678 0.961 . S
C3663 H3679 0.960 . S
H3664 C3648 0.931 . S
H3665 C3653 0.929 . S
H3666 C3654 0.960 . S
H3667 C3654 0.962 . S
H3668 C3654 0.960 . S
H3669 C3655 0.961 . S
H3670 C3655 0.961 . S
H3671 C3655 0.961 . S
H3672 C3656 0.931 . S
H3673 C3661 0.930 . S
H3674 C3662 0.956 . S
H3675 C3662 0.961 . S
H3676 C3662 0.961 . S
H3677 C3663 0.958 . S
H3678 C3663 0.961 . S
H3679 C3663 0.960 . S
C3680 C3681 1.391 . S
C3680 C3682 1.394 . S
C3680 H3696 0.931 . S
C3681 C3680 1.391 . S
C3681 C3685 1.376 . S
C3682 C3680 1.394 . S
C3682 C3683 1.369 . S
C3682 C3686 1.531 . S
C3683 C3682 1.369 . S
C3683 C3684 1.410 . S
C3683 C3691 1.503 . S
C3684 C3683 1.410 . S
C3684 C3685 1.392 . S
C3684 C3687 1.511 . S
C3685 C3681 1.376 . S
C3685 C3684 1.392 . S
C3685 H3697 0.929 . S
C3686 C3682 1.531 . S
C3686 H3698 0.960 . S
C3686 H3699 0.962 . S
C3686 H3700 0.960 . S
C3687 C3684 1.511 . S
C3687 H3701 0.961 . S
C3687 H3702 0.961 . S
C3687 H3703 0.961 . S
C3688 C3689 1.370 . S
C3688 C3690 1.363 . S
C3688 H3704 0.931 . S
C3689 C3688 1.370 . S
C3689 C3693 1.408 . S
C3690 C3688 1.363 . S
C3690 C3691 1.370 . S
C3690 C3694 1.524 . S
C3691 C3683 1.503 . S
C3691 C3690 1.370 . S
C3691 C3692 1.403 . S
C3692 C3691 1.403 . S
C3692 C3693 1.404 . S
C3692 C3695 1.539 . S
C3693 C3689 1.408 . S
C3693 C3692 1.404 . S
C3693 H3705 0.930 . S
C3694 C3690 1.524 . S
C3694 H3706 0.956 . S
C3694 H3707 0.961 . S
C3694 H3708 0.961 . S
C3695 C3692 1.539 . S
C3695 H3709 0.958 . S
C3695 H3710 0.961 . S
C3695 H3711 0.960 . S
H3696 C3680 0.931 . S
H3697 C3685 0.929 . S
H3698 C3686 0.960 . S
H3699 C3686 0.962 . S
H3700 C3686 0.960 . S
H3701 C3687 0.961 . S
H3702 C3687 0.961 . S
H3703 C3687 0.961 . S
H3704 C3688 0.931 . S
H3705 C3693 0.930 . S
H3706 C3694 0.956 . S
H3707 C3694 0.961 . S
H3708 C3694 0.961 . S
H3709 C3695 0.958 . S
H3710 C3695 0.961 . S
H3711 C3695 0.960 . S
C3712 C3713 1.391 . S
C3712 C3714 1.394 . S
C3712 H3728 0.931 . S
C3713 C3712 1.391 . S
C3713 C3717 1.376 . S
C3714 C3712 1.394 . S
C3714 C3715 1.369 . S
C3714 C3718 1.531 . S
C3715 C3714 1.369 . S
C3715 C3716 1.410 . S
C3715 C3723 1.503 . S
C3716 C3715 1.410 . S
C3716 C3717 1.392 . S
C3716 C3719 1.511 . S
C3717 C3713 1.376 . S
C3717 C3716 1.392 . S
C3717 H3729 0.929 . S
C3718 C3714 1.531 . S
C3718 H3730 0.960 . S
C3718 H3731 0.962 . S
C3718 H3732 0.960 . S
C3719 C3716 1.511 . S
C3719 H3733 0.961 . S
C3719 H3734 0.961 . S
C3719 H3735 0.961 . S
C3720 C3721 1.370 . S
C3720 C3722 1.363 . S
C3720 H3736 0.931 . S
C3721 C3720 1.370 . S
C3721 C3725 1.408 . S
C3722 C3720 1.363 . S
C3722 C3723 1.370 . S
C3722 C3726 1.524 . S
C3723 C3715 1.503 . S
C3723 C3722 1.370 . S
C3723 C3724 1.403 . S
C3724 C3723 1.403 . S
C3724 C3725 1.404 . S
C3724 C3727 1.539 . S
C3725 C3721 1.408 . S
C3725 C3724 1.404 . S
C3725 H3737 0.930 . S
C3726 C3722 1.524 . S
C3726 H3738 0.956 . S
C3726 H3739 0.961 . S
C3726 H3740 0.961 . S
C3727 C3724 1.539 . S
C3727 H3741 0.958 . S
C3727 H3742 0.961 . S
C3727 H3743 0.960 . S
H3728 C3712 0.931 . S
H3729 C3717 0.929 . S
H3730 C3718 0.960 . S
H3731 C3718 0.962 . S
H3732 C3718 0.960 . S
H3733 C3719 0.961 . S
H3734 C3719 0.961 . S
H3735 C3719 0.961 . S
H3736 C3720 0.931 . S
H3737 C3725 0.930 . S
H3738 C3726 0.956 . S
H3739 C3726 0.961 . S
H3740 C3726 0.961 . S
H3741 C3727 0.958 . S
H3742 C3727 0.961 . S
H3743 C3727 0.960 . S
C3744 C3745 1.391 . S
C3744 C3746 1.394 . S
C3744 H3760 0.931 . S
C3745 C3744 1.391 . S
C3745 C3749 1.376 . S
C3746 C3744 1.394 . S
C3746 C3747 1.369 . S
C3746 C3750 1.531 . S
C3747 C3746 1.369 . S
C3747 C3748 1.410 . S
C3747 C3755 1.503 . S
C3748 C3747 1.410 . S
C3748 C3749 1.392 . S
C3748 C3751 1.511 . S
C3749 C3745 1.376 . S
C3749 C3748 1.392 . S
C3749 H3761 0.929 . S
C3750 C3746 1.531 . S
C3750 H3762 0.960 . S
C3750 H3763 0.962 . S
C3750 H3764 0.960 . S
C3751 C3748 1.511 . S
C3751 H3765 0.961 . S
C3751 H3766 0.961 . S
C3751 H3767 0.961 . S
C3752 C3753 1.370 . S
C3752 C3754 1.363 . S
C3752 H3768 0.931 . S
C3753 C3752 1.370 . S
C3753 C3757 1.408 . S
C3754 C3752 1.363 . S
C3754 C3755 1.370 . S
C3754 C3758 1.524 . S
C3755 C3747 1.503 . S
C3755 C3754 1.370 . S
C3755 C3756 1.403 . S
C3756 C3755 1.403 . S
C3756 C3757 1.404 . S
C3756 C3759 1.539 . S
C3757 C3753 1.408 . S
C3757 C3756 1.404 . S
C3757 H3769 0.930 . S
C3758 C3754 1.524 . S
C3758 H3770 0.956 . S
C3758 H3771 0.961 . S
C3758 H3772 0.961 . S
C3759 C3756 1.539 . S
C3759 H3773 0.958 . S
C3759 H3774 0.961 . S
C3759 H3775 0.960 . S
H3760 C3744 0.931 . S
H3761 C3749 0.929 . S
H3762 C3750 0.960 . S
H3763 C3750 0.962 . S
H3764 C3750 0.960 . S
H3765 C3751 0.961 . S
H3766 C3751 0.961 . S
H3767 C3751 0.961 . S
H3768 C3752 0.931 . S
H3769 C3757 0.930 . S
H3770 C3758 0.956 . S
H3771 C3758 0.961 . S
H3772 C3758 0.961 . S
H3773 C3759 0.958 . S
H3774 C3759 0.961 . S
H3775 C3759 0.960 . S
C3776 C3777 1.391 . S
C3776 C3778 1.394 . S
C3776 H3792 0.931 . S
C3777 C3776 1.391 . S
C3777 C3781 1.376 . S
C3778 C3776 1.394 . S
C3778 C3779 1.369 . S
C3778 C3782 1.531 . S
C3779 C3778 1.369 . S
C3779 C3780 1.410 . S
C3779 C3787 1.503 . S
C3780 C3779 1.410 . S
C3780 C3781 1.392 . S
C3780 C3783 1.511 . S
C3781 C3777 1.376 . S
C3781 C3780 1.392 . S
C3781 H3793 0.929 . S
C3782 C3778 1.531 . S
C3782 H3794 0.960 . S
C3782 H3795 0.962 . S
C3782 H3796 0.960 . S
C3783 C3780 1.511 . S
C3783 H3797 0.961 . S
C3783 H3798 0.961 . S
C3783 H3799 0.961 . S
C3784 C3785 1.370 . S
C3784 C3786 1.363 . S
C3784 H3800 0.931 . S
C3785 C3784 1.370 . S
C3785 C3789 1.408 . S
C3786 C3784 1.363 . S
C3786 C3787 1.370 . S
C3786 C3790 1.524 . S
C3787 C3779 1.503 . S
C3787 C3786 1.370 . S
C3787 C3788 1.403 . S
C3788 C3787 1.403 . S
C3788 C3789 1.404 . S
C3788 C3791 1.539 . S
C3789 C3785 1.408 . S
C3789 C3788 1.404 . S
C3789 H3801 0.930 . S
C3790 C3786 1.524 . S
C3790 H3802 0.956 . S
C3790 H3803 0.961 . S
C3790 H3804 0.961 . S
C3791 C3788 1.539 . S
C3791 H3805 0.958 . S
C3791 H3806 0.961 . S
C3791 H3807 0.960 . S
H3792 C3776 0.931 . S
H3793 C3781 0.929 . S
H3794 C3782 0.960 . S
H3795 C3782 0.962 . S
H3796 C3782 0.960 . S
H3797 C3783 0.961 . S
H3798 C3783 0.961 . S
H3799 C3783 0.961 . S
H3800 C3784 0.931 . S
H3801 C3789 0.930 . S
H3802 C3790 0.956 . S
H3803 C3790 0.961 . S
H3804 C3790 0.961 . S
H3805 C3791 0.958 . S
H3806 C3791 0.961 . S
H3807 C3791 0.960 . S
C3808 C3809 1.391 1_655 S
C3808 C3810 1.392 1_556 S
C3808 H3824 0.931 . S
C3809 C3808 1.391 1_455 S
C3809 C3813 1.376 . S
C3810 C3808 1.392 1_554 S
C3810 C3811 1.366 1_654 S
C3810 C3814 1.536 . S
C3811 C3810 1.366 1_456 S
C3811 C3812 1.410 . S
C3811 C3819 1.503 1_556 S
C3812 C3811 1.410 . S
C3812 C3813 1.392 . S
C3812 C3815 1.511 . S
C3813 C3809 1.376 . S
C3813 C3812 1.392 . S
C3813 H3825 0.929 . S
C3814 C3810 1.536 . S
C3814 H3826 0.960 . S
C3814 H3827 0.962 . S
C3814 H3828 0.960 . S
C3815 C3812 1.511 . S
C3815 H3829 0.961 . S
C3815 H3830 0.961 . S
C3815 H3831 0.961 . S
C3816 C3817 1.370 1_556 S
C3816 C3818 1.363 . S
C3816 H3832 0.931 . S
C3817 C3816 1.370 1_554 S
C3817 C3821 1.408 . S
C3818 C3816 1.363 . S
C3818 C3819 1.370 1_556 S
C3818 C3822 1.524 1_455 S
C3819 C3811 1.503 1_554 S
C3819 C3818 1.370 1_554 S
C3819 C3820 1.403 . S
C3820 C3819 1.403 . S
C3820 C3821 1.404 . S
C3820 C3823 1.539 . S
C3821 C3817 1.408 . S
C3821 C3820 1.404 . S
C3821 H3833 0.930 . S
C3822 C3818 1.524 1_655 S
C3822 H3834 0.956 . S
C3822 H3835 0.961 1_655 S
C3822 H3836 0.961 . S
C3823 C3820 1.539 . S
C3823 H3837 0.958 . S
C3823 H3838 0.961 . S
C3823 H3839 0.960 . S
H3824 C3808 0.931 . S
H3825 C3813 0.929 . S
H3826 C3814 0.960 . S
H3827 C3814 0.962 . S
H3828 C3814 0.960 . S
H3829 C3815 0.961 . S
H3830 C3815 0.961 . S
H3831 C3815 0.961 . S
H3832 C3816 0.931 . S
H3833 C3821 0.930 . S
H3834 C3822 0.956 . S
H3835 C3822 0.961 1_455 S
H3836 C3822 0.961 . S
H3837 C3823 0.958 . S
H3838 C3823 0.961 . S
H3839 C3823 0.960 . S
C3840 C3841 1.391 . S
C3840 C3842 1.394 . S
C3840 H3856 0.931 . S
C3841 C3840 1.391 . S
C3841 C3845 1.376 1_655 S
C3842 C3840 1.394 . S
C3842 C3843 1.369 . S
C3842 C3846 1.531 . S
C3843 C3842 1.369 . S
C3843 C3844 1.410 . S
C3843 C3851 1.503 . S
C3844 C3843 1.410 . S
C3844 C3845 1.392 1_655 S
C3844 C3847 1.511 . S
C3845 C3841 1.376 1_455 S
C3845 C3844 1.392 1_455 S
C3845 H3857 0.929 . S
C3846 C3842 1.531 . S
C3846 H3858 0.960 . S
C3846 H3859 0.962 . S
C3846 H3860 0.960 . S
C3847 C3844 1.511 . S
C3847 H3861 0.961 1_655 S
C3847 H3862 0.961 . S
C3847 H3863 0.961 . S
C3848 C3849 1.370 . S
C3848 C3850 1.363 . S
C3848 H3864 0.931 . S
C3849 C3848 1.370 . S
C3849 C3853 1.408 . S
C3850 C3848 1.363 . S
C3850 C3851 1.370 . S
C3850 C3854 1.524 . S
C3851 C3843 1.503 . S
C3851 C3850 1.370 . S
C3851 C3852 1.403 . S
C3852 C3851 1.403 . S
C3852 C3853 1.404 . S
C3852 C3855 1.539 . S
C3853 C3849 1.408 . S
C3853 C3852 1.404 . S
C3853 H3865 0.930 . S
C3854 C3850 1.524 . S
C3854 H3866 0.956 . S
C3854 H3867 0.961 . S
C3854 H3868 0.961 . S
C3855 C3852 1.539 . S
C3855 H3869 0.958 . S
C3855 H3870 0.961 . S
C3855 H3871 0.960 . S
H3856 C3840 0.931 . S
H3857 C3845 0.929 . S
H3858 C3846 0.960 . S
H3859 C3846 0.962 . S
H3860 C3846 0.960 . S
H3861 C3847 0.961 1_455 S
H3862 C3847 0.961 . S
H3863 C3847 0.961 . S
H3864 C3848 0.931 . S
H3865 C3853 0.930 . S
H3866 C3854 0.956 . S
H3867 C3854 0.961 . S
H3868 C3854 0.961 . S
H3869 C3855 0.958 . S
H3870 C3855 0.961 . S
H3871 C3855 0.960 . S
C3872 C3873 1.391 . S
C3872 C3874 1.394 . S
C3872 H3888 0.931 . S
C3873 C3872 1.391 . S
C3873 C3877 1.376 . S
C3874 C3872 1.394 . S
C3874 C3875 1.369 . S
C3874 C3878 1.531 . S
C3875 C3874 1.369 . S
C3875 C3876 1.410 . S
C3875 C3883 1.503 . S
C3876 C3875 1.410 . S
C3876 C3877 1.392 . S
C3876 C3879 1.511 . S
C3877 C3873 1.376 . S
C3877 C3876 1.392 . S
C3877 H3889 0.929 . S
C3878 C3874 1.531 . S
C3878 H3890 0.960 . S
C3878 H3891 0.962 . S
C3878 H3892 0.960 . S
C3879 C3876 1.511 . S
C3879 H3893 0.961 . S
C3879 H3894 0.961 . S
C3879 H3895 0.961 . S
C3880 C3881 1.370 . S
C3880 C3882 1.363 . S
C3880 H3896 0.931 . S
C3881 C3880 1.370 . S
C3881 C3885 1.408 . S
C3882 C3880 1.363 . S
C3882 C3883 1.370 . S
C3882 C3886 1.524 . S
C3883 C3875 1.503 . S
C3883 C3882 1.370 . S
C3883 C3884 1.403 . S
C3884 C3883 1.403 . S
C3884 C3885 1.404 . S
C3884 C3887 1.539 . S
C3885 C3881 1.408 . S
C3885 C3884 1.404 . S
C3885 H3897 0.930 . S
C3886 C3882 1.524 . S
C3886 H3898 0.956 . S
C3886 H3899 0.961 . S
C3886 H3900 0.961 . S
C3887 C3884 1.539 . S
C3887 H3901 0.958 . S
C3887 H3902 0.961 . S
C3887 H3903 0.960 . S
H3888 C3872 0.931 . S
H3889 C3877 0.929 . S
H3890 C3878 0.960 . S
H3891 C3878 0.962 . S
H3892 C3878 0.960 . S
H3893 C3879 0.961 . S
H3894 C3879 0.961 . S
H3895 C3879 0.961 . S
H3896 C3880 0.931 . S
H3897 C3885 0.930 . S
H3898 C3886 0.956 . S
H3899 C3886 0.961 . S
H3900 C3886 0.961 . S
H3901 C3887 0.958 . S
H3902 C3887 0.961 . S
H3903 C3887 0.960 . S
C3904 C3905 1.391 . S
C3904 C3906 1.394 . S
C3904 H3920 0.931 . S
C3905 C3904 1.391 . S
C3905 C3909 1.376 . S
C3906 C3904 1.394 . S
C3906 C3907 1.369 . S
C3906 C3910 1.531 . S
C3907 C3906 1.369 . S
C3907 C3908 1.410 . S
C3907 C3915 1.503 . S
C3908 C3907 1.410 . S
C3908 C3909 1.392 . S
C3908 C3911 1.511 . S
C3909 C3905 1.376 . S
C3909 C3908 1.392 . S
C3909 H3921 0.929 . S
C3910 C3906 1.531 . S
C3910 H3922 0.960 . S
C3910 H3923 0.962 . S
C3910 H3924 0.960 . S
C3911 C3908 1.511 . S
C3911 H3925 0.961 . S
C3911 H3926 0.961 . S
C3911 H3927 0.961 . S
C3912 C3913 1.370 . S
C3912 C3914 1.363 . S
C3912 H3928 0.931 . S
C3913 C3912 1.370 . S
C3913 C3917 1.408 . S
C3914 C3912 1.363 . S
C3914 C3915 1.370 . S
C3914 C3918 1.524 . S
C3915 C3907 1.503 . S
C3915 C3914 1.370 . S
C3915 C3916 1.403 . S
C3916 C3915 1.403 . S
C3916 C3917 1.404 . S
C3916 C3919 1.539 . S
C3917 C3913 1.408 . S
C3917 C3916 1.404 . S
C3917 H3929 0.930 . S
C3918 C3914 1.524 . S
C3918 H3930 0.956 . S
C3918 H3931 0.961 . S
C3918 H3932 0.961 . S
C3919 C3916 1.539 . S
C3919 H3933 0.958 . S
C3919 H3934 0.961 . S
C3919 H3935 0.960 . S
H3920 C3904 0.931 . S
H3921 C3909 0.929 . S
H3922 C3910 0.960 . S
H3923 C3910 0.962 . S
H3924 C3910 0.960 . S
H3925 C3911 0.961 . S
H3926 C3911 0.961 . S
H3927 C3911 0.961 . S
H3928 C3912 0.931 . S
H3929 C3917 0.930 . S
H3930 C3918 0.956 . S
H3931 C3918 0.961 . S
H3932 C3918 0.961 . S
H3933 C3919 0.958 . S
H3934 C3919 0.961 . S
H3935 C3919 0.960 . S
C3936 C3937 1.391 . S
C3936 C3938 1.394 . S
C3936 H3952 0.931 . S
C3937 C3936 1.391 . S
C3937 C3941 1.376 1_455 S
C3938 C3936 1.394 . S
C3938 C3939 1.369 . S
C3938 C3942 1.531 . S
C3939 C3938 1.369 . S
C3939 C3940 1.410 1_455 S
C3939 C3947 1.503 . S
C3940 C3939 1.410 1_655 S
C3940 C3941 1.392 . S
C3940 C3943 1.511 . S
C3941 C3937 1.376 1_655 S
C3941 C3940 1.392 . S
C3941 H3953 0.929 . S
C3942 C3938 1.531 . S
C3942 H3954 0.960 . S
C3942 H3955 0.962 . S
C3942 H3956 0.960 . S
C3943 C3940 1.511 . S
C3943 H3957 0.961 . S
C3943 H3958 0.961 . S
C3943 H3959 0.961 . S
C3944 C3945 1.370 . S
C3944 C3946 1.363 . S
C3944 H3960 0.931 . S
C3945 C3944 1.370 . S
C3945 C3949 1.408 . S
C3946 C3944 1.363 . S
C3946 C3947 1.370 . S
C3946 C3950 1.524 . S
C3947 C3939 1.503 . S
C3947 C3946 1.370 . S
C3947 C3948 1.403 . S
C3948 C3947 1.403 . S
C3948 C3949 1.404 . S
C3948 C3951 1.539 . S
C3949 C3945 1.408 . S
C3949 C3948 1.404 . S
C3949 H3961 0.930 . S
C3950 C3946 1.524 . S
C3950 H3962 0.956 . S
C3950 H3963 0.961 . S
C3950 H3964 0.961 . S
C3951 C3948 1.539 . S
C3951 H3965 0.958 . S
C3951 H3966 0.961 . S
C3951 H3967 0.960 . S
H3952 C3936 0.931 . S
H3953 C3941 0.929 . S
H3954 C3942 0.960 . S
H3955 C3942 0.962 . S
H3956 C3942 0.960 . S
H3957 C3943 0.961 . S
H3958 C3943 0.961 . S
H3959 C3943 0.961 . S
H3960 C3944 0.931 . S
H3961 C3949 0.930 . S
H3962 C3950 0.956 . S
H3963 C3950 0.961 . S
H3964 C3950 0.961 . S
H3965 C3951 0.958 . S
H3966 C3951 0.961 . S
H3967 C3951 0.960 . S
C3968 C3969 1.391 . S
C3968 C3970 1.394 . S
C3968 H3984 0.931 . S
C3969 C3968 1.391 . S
C3969 C3973 1.376 . S
C3970 C3968 1.394 . S
C3970 C3971 1.369 . S
C3970 C3974 1.531 . S
C3971 C3970 1.369 . S
C3971 C3972 1.410 . S
C3971 C3979 1.503 . S
C3972 C3971 1.410 . S
C3972 C3973 1.392 . S
C3972 C3975 1.511 . S
C3973 C3969 1.376 . S
C3973 C3972 1.392 . S
C3973 H3985 0.929 . S
C3974 C3970 1.531 . S
C3974 H3986 0.960 . S
C3974 H3987 0.962 . S
C3974 H3988 0.960 . S
C3975 C3972 1.511 . S
C3975 H3989 0.961 . S
C3975 H3990 0.961 . S
C3975 H3991 0.961 . S
C3976 C3977 1.370 . S
C3976 C3978 1.363 . S
C3976 H3992 0.931 . S
C3977 C3976 1.370 . S
C3977 C3981 1.408 . S
C3978 C3976 1.363 . S
C3978 C3979 1.370 . S
C3978 C3982 1.524 . S
C3979 C3971 1.503 . S
C3979 C3978 1.370 . S
C3979 C3980 1.403 . S
C3980 C3979 1.403 . S
C3980 C3981 1.404 . S
C3980 C3983 1.539 . S
C3981 C3977 1.408 . S
C3981 C3980 1.404 . S
C3981 H3993 0.930 . S
C3982 C3978 1.524 . S
C3982 H3994 0.956 . S
C3982 H3995 0.961 . S
C3982 H3996 0.961 . S
C3983 C3980 1.539 . S
C3983 H3997 0.958 . S
C3983 H3998 0.961 . S
C3983 H3999 0.960 . S
H3984 C3968 0.931 . S
H3985 C3973 0.929 . S
H3986 C3974 0.960 . S
H3987 C3974 0.962 . S
H3988 C3974 0.960 . S
H3989 C3975 0.961 . S
H3990 C3975 0.961 . S
H3991 C3975 0.961 . S
H3992 C3976 0.931 . S
H3993 C3981 0.930 . S
H3994 C3982 0.956 . S
H3995 C3982 0.961 . S
H3996 C3982 0.961 . S
H3997 C3983 0.958 . S
H3998 C3983 0.961 . S
H3999 C3983 0.960 . S
C4000 C4001 1.391 . S
C4000 C4002 1.394 . S
C4000 H4016 0.931 . S
C4001 C4000 1.391 . S
C4001 C4005 1.376 . S
C4002 C4000 1.394 . S
C4002 C4003 1.369 . S
C4002 C4006 1.531 . S
C4003 C4002 1.369 . S
C4003 C4004 1.410 . S
C4003 C4011 1.503 . S
C4004 C4003 1.410 . S
C4004 C4005 1.392 . S
C4004 C4007 1.511 . S
C4005 C4001 1.376 . S
C4005 C4004 1.392 . S
C4005 H4017 0.929 . S
C4006 C4002 1.531 . S
C4006 H4018 0.960 . S
C4006 H4019 0.962 . S
C4006 H4020 0.960 . S
C4007 C4004 1.511 . S
C4007 H4021 0.961 . S
C4007 H4022 0.961 . S
C4007 H4023 0.961 . S
C4008 C4009 1.370 . S
C4008 C4010 1.363 . S
C4008 H4024 0.931 . S
C4009 C4008 1.370 . S
C4009 C4013 1.408 . S
C4010 C4008 1.363 . S
C4010 C4011 1.370 . S
C4010 C4014 1.524 . S
C4011 C4003 1.503 . S
C4011 C4010 1.370 . S
C4011 C4012 1.403 . S
C4012 C4011 1.403 . S
C4012 C4013 1.404 . S
C4012 C4015 1.539 . S
C4013 C4009 1.408 . S
C4013 C4012 1.404 . S
C4013 H4025 0.930 . S
C4014 C4010 1.524 . S
C4014 H4026 0.956 . S
C4014 H4027 0.961 . S
C4014 H4028 0.961 . S
C4015 C4012 1.539 . S
C4015 H4029 0.958 . S
C4015 H4030 0.961 . S
C4015 H4031 0.960 . S
H4016 C4000 0.931 . S
H4017 C4005 0.929 . S
H4018 C4006 0.960 . S
H4019 C4006 0.962 . S
H4020 C4006 0.960 . S
H4021 C4007 0.961 . S
H4022 C4007 0.961 . S
H4023 C4007 0.961 . S
H4024 C4008 0.931 . S
H4025 C4013 0.930 . S
H4026 C4014 0.956 . S
H4027 C4014 0.961 . S
H4028 C4014 0.961 . S
H4029 C4015 0.958 . S
H4030 C4015 0.961 . S
H4031 C4015 0.960 . S
C4032 C4033 1.419 . S
C4032 C4034 1.394 . S
C4032 H4048 0.931 . S
C4033 C4032 1.419 . S
C4033 C4037 1.380 . S
C4034 C4032 1.394 . S
C4034 C4035 1.369 . S
C4034 C4038 1.531 . S
C4035 C4034 1.369 . S
C4035 C4036 1.410 . S
C4035 C4043 1.503 . S
C4036 C4035 1.410 . S
C4036 C4037 1.392 . S
C4036 C4039 1.511 . S
C4037 C4033 1.380 . S
C4037 C4036 1.392 . S
C4037 H4049 0.929 1_556 S
C4038 C4034 1.531 . S
C4038 H4050 0.960 . S
C4038 H4051 0.962 . S
C4038 H4052 0.960 . S
C4039 C4036 1.511 . S
C4039 H4053 0.961 . S
C4039 H4054 0.961 . S
C4039 H4055 0.961 . S
C4040 C4041 1.370 . S
C4040 C4042 1.363 . S
C4040 H4056 0.931 . S
C4041 C4040 1.370 . S
C4041 C4045 1.408 . S
C4042 C4040 1.363 . S
C4042 C4043 1.370 . S
C4042 C4046 1.524 . S
C4043 C4035 1.503 . S
C4043 C4042 1.370 . S
C4043 C4044 1.403 . S
C4044 C4043 1.403 . S
C4044 C4045 1.404 . S
C4044 C4047 1.539 . S
C4045 C4041 1.408 . S
C4045 C4044 1.404 . S
C4045 H4057 0.930 . S
C4046 C4042 1.524 . S
C4046 H4058 0.956 . S
C4046 H4059 0.961 . S
C4046 H4060 0.961 . S
C4047 C4044 1.539 . S
C4047 H4061 0.958 . S
C4047 H4062 0.961 . S
C4047 H4063 0.960 . S
H4048 C4032 0.931 . S
H4049 C4037 0.929 1_554 S
H4050 C4038 0.960 . S
H4051 C4038 0.962 . S
H4052 C4038 0.960 . S
H4053 C4039 0.961 . S
H4054 C4039 0.961 . S
H4055 C4039 0.961 . S
H4056 C4040 0.931 . S
H4057 C4045 0.930 . S
H4058 C4046 0.956 . S
H4059 C4046 0.961 . S
H4060 C4046 0.961 . S
H4061 C4047 0.958 . S
H4062 C4047 0.961 . S
H4063 C4047 0.960 . S
C4064 C4065 1.391 . S
C4064 C4066 1.394 . S
C4064 H4080 0.931 . S
C4065 C4064 1.391 . S
C4065 C4069 1.376 . S
C4066 C4064 1.394 . S
C4066 C4067 1.369 . S
C4066 C4070 1.531 . S
C4067 C4066 1.369 . S
C4067 C4068 1.410 . S
C4067 C4075 1.503 . S
C4068 C4067 1.410 . S
C4068 C4069 1.392 . S
C4068 C4071 1.511 . S
C4069 C4065 1.376 . S
C4069 C4068 1.392 . S
C4069 H4081 0.929 . S
C4070 C4066 1.531 . S
C4070 H4082 0.960 . S
C4070 H4083 0.962 . S
C4070 H4084 0.960 . S
C4071 C4068 1.511 . S
C4071 H4085 0.961 . S
C4071 H4086 0.961 . S
C4071 H4087 0.961 . S
C4072 C4073 1.370 . S
C4072 C4074 1.363 . S
C4072 H4088 0.931 . S
C4073 C4072 1.370 . S
C4073 C4077 1.408 . S
C4074 C4072 1.363 . S
C4074 C4075 1.370 . S
C4074 C4078 1.524 . S
C4075 C4067 1.503 . S
C4075 C4074 1.370 . S
C4075 C4076 1.403 . S
C4076 C4075 1.403 . S
C4076 C4077 1.404 . S
C4076 C4079 1.539 . S
C4077 C4073 1.408 . S
C4077 C4076 1.404 . S
C4077 H4089 0.930 . S
C4078 C4074 1.524 . S
C4078 H4090 0.956 . S
C4078 H4091 0.961 . S
C4078 H4092 0.961 . S
C4079 C4076 1.539 . S
C4079 H4093 0.958 . S
C4079 H4094 0.961 . S
C4079 H4095 0.960 . S
H4080 C4064 0.931 . S
H4081 C4069 0.929 . S
H4082 C4070 0.960 . S
H4083 C4070 0.962 . S
H4084 C4070 0.960 . S
H4085 C4071 0.961 . S
H4086 C4071 0.961 . S
H4087 C4071 0.961 . S
H4088 C4072 0.931 . S
H4089 C4077 0.930 . S
H4090 C4078 0.956 . S
H4091 C4078 0.961 . S
H4092 C4078 0.961 . S
H4093 C4079 0.958 . S
H4094 C4079 0.961 . S
H4095 C4079 0.960 . S
C4096 C4097 1.391 . S
C4096 C4098 1.394 . S
C4096 H4112 0.931 . S
C4097 C4096 1.391 . S
C4097 C4101 1.376 . S
C4098 C4096 1.394 . S
C4098 C4099 1.369 . S
C4098 C4102 1.531 . S
C4099 C4098 1.369 . S
C4099 C4100 1.410 . S
C4099 C4107 1.503 . S
C4100 C4099 1.410 . S
C4100 C4101 1.392 . S
C4100 C4103 1.511 . S
C4101 C4097 1.376 . S
C4101 C4100 1.392 . S
C4101 H4113 0.929 . S
C4102 C4098 1.531 . S
C4102 H4114 0.960 . S
C4102 H4115 0.962 . S
C4102 H4116 0.960 . S
C4103 C4100 1.511 . S
C4103 H4117 0.961 . S
C4103 H4118 0.961 . S
C4103 H4119 0.961 . S
C4104 C4105 1.370 . S
C4104 C4106 1.363 . S
C4104 H4120 0.931 . S
C4105 C4104 1.370 . S
C4105 C4109 1.408 . S
C4106 C4104 1.363 . S
C4106 C4107 1.370 . S
C4106 C4110 1.524 . S
C4107 C4099 1.503 . S
C4107 C4106 1.370 . S
C4107 C4108 1.403 . S
C4108 C4107 1.403 . S
C4108 C4109 1.404 . S
C4108 C4111 1.539 . S
C4109 C4105 1.408 . S
C4109 C4108 1.404 . S
C4109 H4121 0.930 . S
C4110 C4106 1.524 . S
C4110 H4122 0.956 . S
C4110 H4123 0.961 . S
C4110 H4124 0.961 . S
C4111 C4108 1.539 . S
C4111 H4125 0.958 . S
C4111 H4126 0.961 . S
C4111 H4127 0.960 . S
H4112 C4096 0.931 . S
H4113 C4101 0.929 . S
H4114 C4102 0.960 . S
H4115 C4102 0.962 . S
H4116 C4102 0.960 . S
H4117 C4103 0.961 . S
H4118 C4103 0.961 . S
H4119 C4103 0.961 . S
H4120 C4104 0.931 . S
H4121 C4109 0.930 . S
H4122 C4110 0.956 . S
H4123 C4110 0.961 . S
H4124 C4110 0.961 . S
H4125 C4111 0.958 . S
H4126 C4111 0.961 . S
H4127 C4111 0.960 . S
C4128 C4129 1.391 . S
C4128 C4130 1.394 . S
C4128 H4144 0.931 . S
C4129 C4128 1.391 . S
C4129 C4133 1.376 . S
C4130 C4128 1.394 . S
C4130 C4131 1.369 . S
C4130 C4134 1.531 . S
C4131 C4130 1.369 . S
C4131 C4132 1.410 . S
C4131 C4139 1.503 . S
C4132 C4131 1.410 . S
C4132 C4133 1.392 . S
C4132 C4135 1.511 . S
C4133 C4129 1.376 . S
C4133 C4132 1.392 . S
C4133 H4145 0.929 . S
C4134 C4130 1.531 . S
C4134 H4146 0.960 . S
C4134 H4147 0.962 . S
C4134 H4148 0.960 . S
C4135 C4132 1.511 . S
C4135 H4149 0.961 . S
C4135 H4150 0.961 . S
C4135 H4151 0.961 . S
C4136 C4137 1.370 . S
C4136 C4138 1.363 . S
C4136 H4152 0.931 . S
C4137 C4136 1.370 . S
C4137 C4141 1.408 . S
C4138 C4136 1.363 . S
C4138 C4139 1.370 . S
C4138 C4142 1.524 . S
C4139 C4131 1.503 . S
C4139 C4138 1.370 . S
C4139 C4140 1.403 . S
C4140 C4139 1.403 . S
C4140 C4141 1.404 . S
C4140 C4143 1.539 . S
C4141 C4137 1.408 . S
C4141 C4140 1.404 . S
C4141 H4153 0.930 . S
C4142 C4138 1.524 . S
C4142 H4154 0.956 . S
C4142 H4155 0.961 . S
C4142 H4156 0.961 . S
C4143 C4140 1.539 . S
C4143 H4157 0.958 . S
C4143 H4158 0.961 . S
C4143 H4159 0.960 . S
H4144 C4128 0.931 . S
H4145 C4133 0.929 . S
H4146 C4134 0.960 . S
H4147 C4134 0.962 . S
H4148 C4134 0.960 . S
H4149 C4135 0.961 . S
H4150 C4135 0.961 . S
H4151 C4135 0.961 . S
H4152 C4136 0.931 . S
H4153 C4141 0.930 . S
H4154 C4142 0.956 . S
H4155 C4142 0.961 . S
H4156 C4142 0.961 . S
H4157 C4143 0.958 . S
H4158 C4143 0.961 . S
H4159 C4143 0.960 . S
C4160 C4161 1.391 . S
C4160 C4162 1.394 . S
C4160 H4176 0.931 . S
C4161 C4160 1.391 . S
C4161 C4165 1.376 . S
C4162 C4160 1.394 . S
C4162 C4163 1.369 . S
C4162 C4166 1.531 . S
C4163 C4162 1.369 . S
C4163 C4164 1.410 . S
C4163 C4171 1.503 . S
C4164 C4163 1.410 . S
C4164 C4165 1.392 . S
C4164 C4167 1.511 . S
C4165 C4161 1.376 . S
C4165 C4164 1.392 . S
C4165 H4177 0.929 . S
C4166 C4162 1.531 . S
C4166 H4178 0.960 . S
C4166 H4179 0.962 . S
C4166 H4180 0.960 . S
C4167 C4164 1.511 . S
C4167 H4181 0.961 . S
C4167 H4182 0.961 . S
C4167 H4183 0.961 . S
C4168 C4169 1.370 . S
C4168 C4170 1.363 . S
C4168 H4184 0.931 . S
C4169 C4168 1.370 . S
C4169 C4173 1.408 . S
C4170 C4168 1.363 . S
C4170 C4171 1.370 . S
C4170 C4174 1.524 . S
C4171 C4163 1.503 . S
C4171 C4170 1.370 . S
C4171 C4172 1.403 . S
C4172 C4171 1.403 . S
C4172 C4173 1.404 . S
C4172 C4175 1.539 . S
C4173 C4169 1.408 . S
C4173 C4172 1.404 . S
C4173 H4185 0.930 . S
C4174 C4170 1.524 . S
C4174 H4186 0.956 . S
C4174 H4187 0.961 . S
C4174 H4188 0.961 . S
C4175 C4172 1.539 . S
C4175 H4189 0.958 . S
C4175 H4190 0.961 . S
C4175 H4191 0.960 . S
H4176 C4160 0.931 . S
H4177 C4165 0.929 . S
H4178 C4166 0.960 . S
H4179 C4166 0.962 . S
H4180 C4166 0.960 . S
H4181 C4167 0.961 . S
H4182 C4167 0.961 . S
H4183 C4167 0.961 . S
H4184 C4168 0.931 . S
H4185 C4173 0.930 . S
H4186 C4174 0.956 . S
H4187 C4174 0.961 . S
H4188 C4174 0.961 . S
H4189 C4175 0.958 . S
H4190 C4175 0.961 . S
H4191 C4175 0.960 . S
C4192 C4193 1.391 . S
C4192 C4194 1.394 . S
C4192 H4208 0.931 . S
C4193 C4192 1.391 . S
C4193 C4197 1.376 . S
C4194 C4192 1.394 . S
C4194 C4195 1.369 . S
C4194 C4198 1.531 . S
C4195 C4194 1.369 . S
C4195 C4196 1.410 . S
C4195 C4203 1.503 . S
C4196 C4195 1.410 . S
C4196 C4197 1.392 . S
C4196 C4199 1.511 . S
C4197 C4193 1.376 . S
C4197 C4196 1.392 . S
C4197 H4209 0.929 . S
C4198 C4194 1.531 . S
C4198 H4210 0.960 . S
C4198 H4211 0.962 . S
C4198 H4212 0.960 . S
C4199 C4196 1.511 . S
C4199 H4213 0.961 . S
C4199 H4214 0.961 . S
C4199 H4215 0.961 . S
C4200 C4201 1.370 . S
C4200 C4202 1.363 . S
C4200 H4216 0.931 . S
C4201 C4200 1.370 . S
C4201 C4205 1.408 . S
C4202 C4200 1.363 . S
C4202 C4203 1.370 . S
C4202 C4206 1.524 . S
C4203 C4195 1.503 . S
C4203 C4202 1.370 . S
C4203 C4204 1.403 . S
C4204 C4203 1.403 . S
C4204 C4205 1.404 . S
C4204 C4207 1.539 . S
C4205 C4201 1.408 . S
C4205 C4204 1.404 . S
C4205 H4217 0.930 . S
C4206 C4202 1.524 . S
C4206 H4218 0.956 . S
C4206 H4219 0.961 . S
C4206 H4220 0.961 . S
C4207 C4204 1.539 . S
C4207 H4221 0.958 . S
C4207 H4222 0.961 . S
C4207 H4223 0.960 . S
H4208 C4192 0.931 . S
H4209 C4197 0.929 . S
H4210 C4198 0.960 . S
H4211 C4198 0.962 . S
H4212 C4198 0.960 . S
H4213 C4199 0.961 . S
H4214 C4199 0.961 . S
H4215 C4199 0.961 . S
H4216 C4200 0.931 . S
H4217 C4205 0.930 . S
H4218 C4206 0.956 . S
H4219 C4206 0.961 . S
H4220 C4206 0.961 . S
H4221 C4207 0.958 . S
H4222 C4207 0.961 . S
H4223 C4207 0.960 . S
C4224 C4225 1.391 . S
C4224 C4226 1.394 . S
C4224 H4240 0.931 . S
C4225 C4224 1.391 . S
C4225 C4229 1.376 . S
C4226 C4224 1.394 . S
C4226 C4227 1.369 . S
C4226 C4230 1.531 . S
C4227 C4226 1.369 . S
C4227 C4228 1.410 . S
C4227 C4235 1.503 . S
C4228 C4227 1.410 . S
C4228 C4229 1.392 . S
C4228 C4231 1.511 . S
C4229 C4225 1.376 . S
C4229 C4228 1.392 . S
C4229 H4241 0.929 . S
C4230 C4226 1.531 . S
C4230 H4242 0.960 . S
C4230 H4243 0.962 . S
C4230 H4244 0.960 . S
C4231 C4228 1.511 . S
C4231 H4245 0.961 . S
C4231 H4246 0.961 . S
C4231 H4247 0.961 . S
C4232 C4233 1.370 . S
C4232 C4234 1.363 . S
C4232 H4248 0.931 . S
C4233 C4232 1.370 . S
C4233 C4237 1.408 . S
C4234 C4232 1.363 . S
C4234 C4235 1.370 . S
C4234 C4238 1.524 . S
C4235 C4227 1.503 . S
C4235 C4234 1.370 . S
C4235 C4236 1.403 . S
C4236 C4235 1.403 . S
C4236 C4237 1.404 . S
C4236 C4239 1.539 . S
C4237 C4233 1.408 . S
C4237 C4236 1.404 . S
C4237 H4249 0.930 . S
C4238 C4234 1.524 . S
C4238 H4250 0.956 . S
C4238 H4251 0.961 . S
C4238 H4252 0.961 . S
C4239 C4236 1.539 . S
C4239 H4253 0.958 . S
C4239 H4254 0.961 . S
C4239 H4255 0.960 . S
H4240 C4224 0.931 . S
H4241 C4229 0.929 . S
H4242 C4230 0.960 . S
H4243 C4230 0.962 . S
H4244 C4230 0.960 . S
H4245 C4231 0.961 . S
H4246 C4231 0.961 . S
H4247 C4231 0.961 . S
H4248 C4232 0.931 . S
H4249 C4237 0.930 . S
H4250 C4238 0.956 . S
H4251 C4238 0.961 . S
H4252 C4238 0.961 . S
H4253 C4239 0.958 . S
H4254 C4239 0.961 . S
H4255 C4239 0.960 . S
C4256 C4257 1.391 . S
C4256 C4258 1.394 . S
C4256 H4272 0.931 . S
C4257 C4256 1.391 . S
C4257 C4261 1.376 . S
C4258 C4256 1.394 . S
C4258 C4259 1.369 . S
C4258 C4262 1.531 . S
C4259 C4258 1.369 . S
C4259 C4260 1.410 . S
C4259 C4267 1.503 . S
C4260 C4259 1.410 . S
C4260 C4261 1.392 . S
C4260 C4263 1.511 . S
C4261 C4257 1.376 . S
C4261 C4260 1.392 . S
C4261 H4273 0.929 . S
C4262 C4258 1.531 . S
C4262 H4274 0.960 . S
C4262 H4275 0.962 . S
C4262 H4276 0.960 . S
C4263 C4260 1.511 . S
C4263 H4277 0.961 . S
C4263 H4278 0.961 . S
C4263 H4279 0.961 . S
C4264 C4265 1.370 . S
C4264 C4266 1.363 . S
C4264 H4280 0.931 . S
C4265 C4264 1.370 . S
C4265 C4269 1.408 . S
C4266 C4264 1.363 . S
C4266 C4267 1.370 . S
C4266 C4270 1.524 . S
C4267 C4259 1.503 . S
C4267 C4266 1.370 . S
C4267 C4268 1.403 . S
C4268 C4267 1.403 . S
C4268 C4269 1.404 . S
C4268 C4271 1.539 . S
C4269 C4265 1.408 . S
C4269 C4268 1.404 . S
C4269 H4281 0.930 . S
C4270 C4266 1.524 . S
C4270 H4282 0.956 . S
C4270 H4283 0.961 . S
C4270 H4284 0.961 . S
C4271 C4268 1.539 . S
C4271 H4285 0.958 . S
C4271 H4286 0.961 . S
C4271 H4287 0.960 . S
H4272 C4256 0.931 . S
H4273 C4261 0.929 . S
H4274 C4262 0.960 . S
H4275 C4262 0.962 . S
H4276 C4262 0.960 . S
H4277 C4263 0.961 . S
H4278 C4263 0.961 . S
H4279 C4263 0.961 . S
H4280 C4264 0.931 . S
H4281 C4269 0.930 . S
H4282 C4270 0.956 . S
H4283 C4270 0.961 . S
H4284 C4270 0.961 . S
H4285 C4271 0.958 . S
H4286 C4271 0.961 . S
H4287 C4271 0.960 . S
C4288 C4289 1.391 . S
C4288 C4290 1.394 . S
C4288 H4304 0.931 . S
C4289 C4288 1.391 . S
C4289 C4293 1.376 . S
C4290 C4288 1.394 . S
C4290 C4291 1.369 . S
C4290 C4294 1.531 . S
C4291 C4290 1.369 . S
C4291 C4292 1.410 . S
C4291 C4299 1.503 . S
C4292 C4291 1.410 . S
C4292 C4293 1.392 . S
C4292 C4295 1.511 . S
C4293 C4289 1.376 . S
C4293 C4292 1.392 . S
C4293 H4305 0.929 . S
C4294 C4290 1.531 . S
C4294 H4306 0.960 . S
C4294 H4307 0.962 . S
C4294 H4308 0.960 . S
C4295 C4292 1.511 . S
C4295 H4309 0.961 . S
C4295 H4310 0.961 . S
C4295 H4311 0.961 . S
C4296 C4297 1.370 . S
C4296 C4298 1.363 . S
C4296 H4312 0.931 . S
C4297 C4296 1.370 . S
C4297 C4301 1.408 . S
C4298 C4296 1.363 . S
C4298 C4299 1.370 . S
C4298 C4302 1.524 . S
C4299 C4291 1.503 . S
C4299 C4298 1.370 . S
C4299 C4300 1.403 . S
C4300 C4299 1.403 . S
C4300 C4301 1.404 . S
C4300 C4303 1.539 . S
C4301 C4297 1.408 . S
C4301 C4300 1.404 . S
C4301 H4313 0.930 . S
C4302 C4298 1.524 . S
C4302 H4314 0.956 . S
C4302 H4315 0.961 . S
C4302 H4316 0.961 . S
C4303 C4300 1.539 . S
C4303 H4317 0.958 . S
C4303 H4318 0.961 . S
C4303 H4319 0.960 . S
H4304 C4288 0.931 . S
H4305 C4293 0.929 . S
H4306 C4294 0.960 . S
H4307 C4294 0.962 . S
H4308 C4294 0.960 . S
H4309 C4295 0.961 . S
H4310 C4295 0.961 . S
H4311 C4295 0.961 . S
H4312 C4296 0.931 . S
H4313 C4301 0.930 . S
H4314 C4302 0.956 . S
H4315 C4302 0.961 . S
H4316 C4302 0.961 . S
H4317 C4303 0.958 . S
H4318 C4303 0.961 . S
H4319 C4303 0.960 . S
C4320 C4321 1.391 . S
C4320 C4322 1.394 . S
C4320 H4336 0.931 1_565 S
C4321 C4320 1.391 . S
C4321 C4325 1.376 . S
C4322 C4320 1.394 . S
C4322 C4323 1.369 . S
C4322 C4326 1.531 . S
C4323 C4322 1.369 . S
C4323 C4324 1.410 . S
C4323 C4331 1.503 . S
C4324 C4323 1.410 . S
C4324 C4325 1.392 . S
C4324 C4327 1.511 . S
C4325 C4321 1.376 . S
C4325 C4324 1.392 . S
C4325 H4337 0.929 . S
C4326 C4322 1.531 . S
C4326 H4338 0.960 . S
C4326 H4339 0.962 . S
C4326 H4340 0.960 1_565 S
C4327 C4324 1.511 . S
C4327 H4341 0.961 . S
C4327 H4342 0.961 . S
C4327 H4343 0.961 . S
C4328 C4329 1.370 . S
C4328 C4330 1.363 . S
C4328 H4344 0.931 . S
C4329 C4328 1.370 . S
C4329 C4333 1.408 . S
C4330 C4328 1.363 . S
C4330 C4331 1.370 . S
C4330 C4334 1.524 . S
C4331 C4323 1.503 . S
C4331 C4330 1.370 . S
C4331 C4332 1.403 . S
C4332 C4331 1.403 . S
C4332 C4333 1.404 . S
C4332 C4335 1.539 . S
C4333 C4329 1.408 . S
C4333 C4332 1.404 . S
C4333 H4345 0.930 . S
C4334 C4330 1.524 . S
C4334 H4346 0.956 . S
C4334 H4347 0.961 . S
C4334 H4348 0.961 . S
C4335 C4332 1.539 . S
C4335 H4349 0.958 . S
C4335 H4350 0.961 . S
C4335 H4351 0.960 . S
H4336 C4320 0.931 1_545 S
H4337 C4325 0.929 . S
H4338 C4326 0.960 . S
H4339 C4326 0.962 . S
H4340 C4326 0.960 1_545 S
H4341 C4327 0.961 . S
H4342 C4327 0.961 . S
H4343 C4327 0.961 . S
H4344 C4328 0.931 . S
H4345 C4333 0.930 . S
H4346 C4334 0.956 . S
H4347 C4334 0.961 . S
H4348 C4334 0.961 . S
H4349 C4335 0.958 . S
H4350 C4335 0.961 . S
H4351 C4335 0.960 . S
C4352 C4353 1.391 1_556 S
C4352 C4354 1.391 . S
C4352 H4368 0.931 . S
C4353 C4352 1.391 1_554 S
C4353 C4357 1.376 . S
C4354 C4352 1.391 . S
C4354 C4355 1.362 1_556 S
C4354 C4358 1.543 . S
C4355 C4354 1.362 1_554 S
C4355 C4356 1.410 . S
C4355 C4363 1.503 . S
C4356 C4355 1.410 . S
C4356 C4357 1.392 . S
C4356 C4359 1.511 1_565 S
C4357 C4353 1.376 . S
C4357 C4356 1.392 . S
C4357 H4369 0.929 . S
C4358 C4354 1.543 . S
C4358 H4370 0.960 . S
C4358 H4371 0.962 1_556 S
C4358 H4372 0.960 . S
C4359 C4356 1.511 1_545 S
C4359 H4373 0.961 . S
C4359 H4374 0.961 . S
C4359 H4375 0.961 . S
C4360 C4361 1.370 . S
C4360 C4362 1.363 1_545 S
C4360 H4376 0.931 . S
C4361 C4360 1.370 . S
C4361 C4365 1.370 1_554 S
C4362 C4360 1.363 1_565 S
C4362 C4363 1.370 . S
C4362 C4366 1.524 . S
C4363 C4355 1.503 . S
C4363 C4362 1.370 . S
C4363 C4364 1.403 1_564 S
C4364 C4363 1.403 1_546 S
C4364 C4365 1.406 . S
C4364 C4367 1.539 . S
C4365 C4361 1.370 1_556 S
C4365 C4364 1.406 . S
C4365 H4377 0.966 . S
C4366 C4362 1.524 . S
C4366 H4378 0.956 . S
C4366 H4379 0.961 . S
C4366 H4380 0.961 . S
C4367 C4364 1.539 . S
C4367 H4381 0.958 1_545 S
C4367 H4382 0.961 . S
C4367 H4383 0.960 . S
H4368 C4352 0.931 . S
H4369 C4357 0.929 . S
H4370 C4358 0.960 . S
H4371 C4358 0.962 1_554 S
H4372 C4358 0.960 . S
H4373 C4359 0.961 . S
H4374 C4359 0.961 . S
H4375 C4359 0.961 . S
H4376 C4360 0.931 . S
H4377 C4365 0.966 . S
H4378 C4366 0.956 . S
H4379 C4366 0.961 . S
H4380 C4366 0.961 . S
H4381 C4367 0.958 1_565 S
H4382 C4367 0.961 . S
H4383 C4367 0.960 . S
C4384 C4385 1.391 . S
C4384 C4386 1.394 . S
C4384 H4400 0.931 . S
C4385 C4384 1.391 . S
C4385 C4389 1.376 . S
C4386 C4384 1.394 . S
C4386 C4387 1.369 . S
C4386 C4390 1.531 . S
C4387 C4386 1.369 . S
C4387 C4388 1.410 . S
C4387 C4395 1.503 . S
C4388 C4387 1.410 . S
C4388 C4389 1.392 . S
C4388 C4391 1.511 . S
C4389 C4385 1.376 . S
C4389 C4388 1.392 . S
C4389 H4401 0.929 . S
C4390 C4386 1.531 . S
C4390 H4402 0.960 . S
C4390 H4403 0.962 . S
C4390 H4404 0.960 . S
C4391 C4388 1.511 . S
C4391 H4405 0.961 . S
C4391 H4406 0.961 . S
C4391 H4407 0.961 . S
C4392 C4393 1.370 . S
C4392 C4394 1.363 . S
C4392 H4408 0.931 . S
C4393 C4392 1.370 . S
C4393 C4397 1.408 . S
C4394 C4392 1.363 . S
C4394 C4395 1.370 . S
C4394 C4398 1.524 . S
C4395 C4387 1.503 . S
C4395 C4394 1.370 . S
C4395 C4396 1.403 . S
C4396 C4395 1.403 . S
C4396 C4397 1.404 . S
C4396 C4399 1.539 . S
C4397 C4393 1.408 . S
C4397 C4396 1.404 . S
C4397 H4409 0.930 . S
C4398 C4394 1.524 . S
C4398 H4410 0.956 . S
C4398 H4411 0.961 . S
C4398 H4412 0.961 . S
C4399 C4396 1.539 . S
C4399 H4413 0.958 . S
C4399 H4414 0.961 . S
C4399 H4415 0.960 . S
H4400 C4384 0.931 . S
H4401 C4389 0.929 . S
H4402 C4390 0.960 . S
H4403 C4390 0.962 . S
H4404 C4390 0.960 . S
H4405 C4391 0.961 . S
H4406 C4391 0.961 . S
H4407 C4391 0.961 . S
H4408 C4392 0.931 . S
H4409 C4397 0.930 . S
H4410 C4398 0.956 . S
H4411 C4398 0.961 . S
H4412 C4398 0.961 . S
H4413 C4399 0.958 . S
H4414 C4399 0.961 . S
H4415 C4399 0.960 . S
C4416 C4417 1.391 . S
C4416 C4418 1.394 . S
C4416 H4432 0.931 . S
C4417 C4416 1.391 . S
C4417 C4421 1.376 . S
C4418 C4416 1.394 . S
C4418 C4419 1.369 . S
C4418 C4422 1.531 . S
C4419 C4418 1.369 . S
C4419 C4420 1.410 . S
C4419 C4427 1.503 . S
C4420 C4419 1.410 . S
C4420 C4421 1.392 . S
C4420 C4423 1.511 . S
C4421 C4417 1.376 . S
C4421 C4420 1.392 . S
C4421 H4433 0.929 . S
C4422 C4418 1.531 . S
C4422 H4434 0.960 . S
C4422 H4435 0.962 . S
C4422 H4436 0.960 . S
C4423 C4420 1.511 . S
C4423 H4437 0.961 . S
C4423 H4438 0.961 . S
C4423 H4439 0.961 . S
C4424 C4425 1.370 . S
C4424 C4426 1.363 . S
C4424 H4440 0.931 1_554 S
C4425 C4424 1.370 . S
C4425 C4429 1.408 . S
C4426 C4424 1.363 . S
C4426 C4427 1.370 . S
C4426 C4430 1.524 1_554 S
C4427 C4419 1.503 . S
C4427 C4426 1.370 . S
C4427 C4428 1.403 . S
C4428 C4427 1.403 . S
C4428 C4429 1.404 . S
C4428 C4431 1.539 . S
C4429 C4425 1.408 . S
C4429 C4428 1.404 . S
C4429 H4441 0.930 . S
C4430 C4426 1.524 1_556 S
C4430 H4442 0.956 . S
C4430 H4443 0.961 . S
C4430 H4444 0.961 . S
C4431 C4428 1.539 . S
C4431 H4445 0.958 . S
C4431 H4446 0.961 . S
C4431 H4447 0.960 . S
H4432 C4416 0.931 . S
H4433 C4421 0.929 . S
H4434 C4422 0.960 . S
H4435 C4422 0.962 . S
H4436 C4422 0.960 . S
H4437 C4423 0.961 . S
H4438 C4423 0.961 . S
H4439 C4423 0.961 . S
H4440 C4424 0.931 1_556 S
H4441 C4429 0.930 . S
H4442 C4430 0.956 . S
H4443 C4430 0.961 . S
H4444 C4430 0.961 . S
H4445 C4431 0.958 . S
H4446 C4431 0.961 . S
H4447 C4431 0.960 . S
C4448 C4449 1.391 . S
C4448 C4450 1.394 . S
C4448 H4464 0.931 . S
C4449 C4448 1.391 . S
C4449 C4453 1.376 . S
C4450 C4448 1.394 . S
C4450 C4451 1.369 . S
C4450 C4454 1.531 . S
C4451 C4450 1.369 . S
C4451 C4452 1.410 . S
C4451 C4459 1.503 . S
C4452 C4451 1.410 . S
C4452 C4453 1.392 . S
C4452 C4455 1.511 . S
C4453 C4449 1.376 . S
C4453 C4452 1.392 . S
C4453 H4465 0.929 . S
C4454 C4450 1.531 . S
C4454 H4466 0.960 . S
C4454 H4467 0.962 . S
C4454 H4468 0.960 . S
C4455 C4452 1.511 . S
C4455 H4469 0.961 . S
C4455 H4470 0.961 . S
C4455 H4471 0.961 . S
C4456 C4457 1.370 . S
C4456 C4458 1.363 . S
C4456 H4472 0.931 . S
C4457 C4456 1.370 . S
C4457 C4461 1.408 . S
C4458 C4456 1.363 . S
C4458 C4459 1.370 . S
C4458 C4462 1.524 . S
C4459 C4451 1.503 . S
C4459 C4458 1.370 . S
C4459 C4460 1.403 . S
C4460 C4459 1.403 . S
C4460 C4461 1.404 . S
C4460 C4463 1.539 . S
C4461 C4457 1.408 . S
C4461 C4460 1.404 . S
C4461 H4473 0.930 . S
C4462 C4458 1.524 . S
C4462 H4474 0.956 . S
C4462 H4475 0.961 . S
C4462 H4476 0.961 . S
C4463 C4460 1.539 . S
C4463 H4477 0.958 . S
C4463 H4478 0.961 . S
C4463 H4479 0.960 . S
H4464 C4448 0.931 . S
H4465 C4453 0.929 . S
H4466 C4454 0.960 . S
H4467 C4454 0.962 . S
H4468 C4454 0.960 . S
H4469 C4455 0.961 . S
H4470 C4455 0.961 . S
H4471 C4455 0.961 . S
H4472 C4456 0.931 . S
H4473 C4461 0.930 . S
H4474 C4462 0.956 . S
H4475 C4462 0.961 . S
H4476 C4462 0.961 . S
H4477 C4463 0.958 . S
H4478 C4463 0.961 . S
H4479 C4463 0.960 . S
C4480 C4481 1.391 . S
C4480 C4482 1.394 . S
C4480 H4496 0.931 . S
C4481 C4480 1.391 . S
C4481 C4485 1.376 . S
C4482 C4480 1.394 . S
C4482 C4483 1.369 . S
C4482 C4486 1.531 . S
C4483 C4482 1.369 . S
C4483 C4484 1.410 . S
C4483 C4491 1.503 . S
C4484 C4483 1.410 . S
C4484 C4485 1.392 . S
C4484 C4487 1.511 . S
C4485 C4481 1.376 . S
C4485 C4484 1.392 . S
C4485 H4497 0.929 . S
C4486 C4482 1.531 . S
C4486 H4498 0.960 . S
C4486 H4499 0.962 . S
C4486 H4500 0.960 . S
C4487 C4484 1.511 . S
C4487 H4501 0.961 . S
C4487 H4502 0.961 . S
C4487 H4503 0.961 . S
C4488 C4489 1.370 . S
C4488 C4490 1.363 . S
C4488 H4504 0.931 . S
C4489 C4488 1.370 . S
C4489 C4493 1.408 . S
C4490 C4488 1.363 . S
C4490 C4491 1.370 . S
C4490 C4494 1.524 . S
C4491 C4483 1.503 . S
C4491 C4490 1.370 . S
C4491 C4492 1.403 . S
C4492 C4491 1.403 . S
C4492 C4493 1.404 . S
C4492 C4495 1.539 . S
C4493 C4489 1.408 . S
C4493 C4492 1.404 . S
C4493 H4505 0.930 . S
C4494 C4490 1.524 . S
C4494 H4506 0.956 . S
C4494 H4507 0.961 . S
C4494 H4508 0.961 . S
C4495 C4492 1.539 . S
C4495 H4509 0.958 . S
C4495 H4510 0.961 . S
C4495 H4511 0.960 . S
H4496 C4480 0.931 . S
H4497 C4485 0.929 . S
H4498 C4486 0.960 . S
H4499 C4486 0.962 . S
H4500 C4486 0.960 . S
H4501 C4487 0.961 . S
H4502 C4487 0.961 . S
H4503 C4487 0.961 . S
H4504 C4488 0.931 . S
H4505 C4493 0.930 . S
H4506 C4494 0.956 . S
H4507 C4494 0.961 . S
H4508 C4494 0.961 . S
H4509 C4495 0.958 . S
H4510 C4495 0.961 . S
H4511 C4495 0.960 . S
C4512 C4513 1.391 . S
C4512 C4514 1.394 . S
C4512 H4528 0.931 . S
C4513 C4512 1.391 . S
C4513 C4517 1.376 . S
C4514 C4512 1.394 . S
C4514 C4515 1.369 . S
C4514 C4518 1.531 . S
C4515 C4514 1.369 . S
C4515 C4516 1.410 . S
C4515 C4523 1.503 . S
C4516 C4515 1.410 . S
C4516 C4517 1.392 . S
C4516 C4519 1.511 . S
C4517 C4513 1.376 . S
C4517 C4516 1.392 . S
C4517 H4529 0.929 . S
C4518 C4514 1.531 . S
C4518 H4530 0.960 . S
C4518 H4531 0.962 . S
C4518 H4532 0.960 . S
C4519 C4516 1.511 . S
C4519 H4533 0.961 . S
C4519 H4534 0.961 . S
C4519 H4535 0.961 . S
C4520 C4521 1.370 . S
C4520 C4522 1.363 . S
C4520 H4536 0.931 . S
C4521 C4520 1.370 . S
C4521 C4525 1.408 . S
C4522 C4520 1.363 . S
C4522 C4523 1.370 . S
C4522 C4526 1.524 . S
C4523 C4515 1.503 . S
C4523 C4522 1.370 . S
C4523 C4524 1.403 . S
C4524 C4523 1.403 . S
C4524 C4525 1.404 . S
C4524 C4527 1.539 . S
C4525 C4521 1.408 . S
C4525 C4524 1.404 . S
C4525 H4537 0.930 . S
C4526 C4522 1.524 . S
C4526 H4538 0.956 . S
C4526 H4539 0.961 . S
C4526 H4540 0.961 . S
C4527 C4524 1.539 . S
C4527 H4541 0.958 . S
C4527 H4542 0.961 . S
C4527 H4543 0.960 . S
H4528 C4512 0.931 . S
H4529 C4517 0.929 . S
H4530 C4518 0.960 . S
H4531 C4518 0.962 . S
H4532 C4518 0.960 . S
H4533 C4519 0.961 . S
H4534 C4519 0.961 . S
H4535 C4519 0.961 . S
H4536 C4520 0.931 . S
H4537 C4525 0.930 . S
H4538 C4526 0.956 . S
H4539 C4526 0.961 . S
H4540 C4526 0.961 . S
H4541 C4527 0.958 . S
H4542 C4527 0.961 . S
H4543 C4527 0.960 . S
C4544 C4545 1.391 . S
C4544 C4546 1.394 . S
C4544 H4560 0.931 . S
C4545 C4544 1.391 . S
C4545 C4549 1.376 . S
C4546 C4544 1.394 . S
C4546 C4547 1.369 . S
C4546 C4550 1.531 . S
C4547 C4546 1.369 . S
C4547 C4548 1.410 . S
C4547 C4555 1.503 . S
C4548 C4547 1.410 . S
C4548 C4549 1.392 . S
C4548 C4551 1.511 . S
C4549 C4545 1.376 . S
C4549 C4548 1.392 . S
C4549 H4561 0.929 . S
C4550 C4546 1.531 . S
C4550 H4562 0.960 . S
C4550 H4563 0.962 . S
C4550 H4564 0.960 . S
C4551 C4548 1.511 . S
C4551 H4565 0.961 . S
C4551 H4566 0.961 . S
C4551 H4567 0.961 . S
C4552 C4553 1.370 . S
C4552 C4554 1.363 . S
C4552 H4568 0.931 . S
C4553 C4552 1.370 . S
C4553 C4557 1.408 . S
C4554 C4552 1.363 . S
C4554 C4555 1.370 . S
C4554 C4558 1.524 . S
C4555 C4547 1.503 . S
C4555 C4554 1.370 . S
C4555 C4556 1.403 . S
C4556 C4555 1.403 . S
C4556 C4557 1.404 . S
C4556 C4559 1.539 . S
C4557 C4553 1.408 . S
C4557 C4556 1.404 . S
C4557 H4569 0.930 . S
C4558 C4554 1.524 . S
C4558 H4570 0.956 . S
C4558 H4571 0.961 . S
C4558 H4572 0.961 . S
C4559 C4556 1.539 . S
C4559 H4573 0.958 . S
C4559 H4574 0.961 . S
C4559 H4575 0.960 . S
H4560 C4544 0.931 . S
H4561 C4549 0.929 . S
H4562 C4550 0.960 . S
H4563 C4550 0.962 . S
H4564 C4550 0.960 . S
H4565 C4551 0.961 . S
H4566 C4551 0.961 . S
H4567 C4551 0.961 . S
H4568 C4552 0.931 . S
H4569 C4557 0.930 . S
H4570 C4558 0.956 . S
H4571 C4558 0.961 . S
H4572 C4558 0.961 . S
H4573 C4559 0.958 . S
H4574 C4559 0.961 . S
H4575 C4559 0.960 . S
C4576 C4577 1.391 . S
C4576 C4578 1.394 . S
C4576 H4592 0.931 . S
C4577 C4576 1.391 . S
C4577 C4581 1.376 . S
C4578 C4576 1.394 . S
C4578 C4579 1.369 . S
C4578 C4582 1.531 . S
C4579 C4578 1.369 . S
C4579 C4580 1.410 . S
C4579 C4587 1.503 . S
C4580 C4579 1.410 . S
C4580 C4581 1.392 . S
C4580 C4583 1.511 . S
C4581 C4577 1.376 . S
C4581 C4580 1.392 . S
C4581 H4593 0.929 . S
C4582 C4578 1.531 . S
C4582 H4594 0.960 . S
C4582 H4595 0.962 . S
C4582 H4596 0.960 . S
C4583 C4580 1.511 . S
C4583 H4597 0.961 . S
C4583 H4598 0.961 . S
C4583 H4599 0.961 . S
C4584 C4585 1.370 . S
C4584 C4586 1.363 . S
C4584 H4600 0.931 . S
C4585 C4584 1.370 . S
C4585 C4589 1.408 . S
C4586 C4584 1.363 . S
C4586 C4587 1.370 . S
C4586 C4590 1.524 . S
C4587 C4579 1.503 . S
C4587 C4586 1.370 . S
C4587 C4588 1.403 . S
C4588 C4587 1.403 . S
C4588 C4589 1.404 . S
C4588 C4591 1.539 . S
C4589 C4585 1.408 . S
C4589 C4588 1.404 . S
C4589 H4601 0.930 . S
C4590 C4586 1.524 . S
C4590 H4602 0.956 . S
C4590 H4603 0.961 . S
C4590 H4604 0.961 1_455 S
C4591 C4588 1.539 . S
C4591 H4605 0.958 . S
C4591 H4606 0.961 . S
C4591 H4607 0.960 . S
H4592 C4576 0.931 . S
H4593 C4581 0.929 . S
H4594 C4582 0.960 . S
H4595 C4582 0.962 . S
H4596 C4582 0.960 . S
H4597 C4583 0.961 . S
H4598 C4583 0.961 . S
H4599 C4583 0.961 . S
H4600 C4584 0.931 . S
H4601 C4589 0.930 . S
H4602 C4590 0.956 . S
H4603 C4590 0.961 . S
H4604 C4590 0.961 1_655 S
H4605 C4591 0.958 . S
H4606 C4591 0.961 . S
H4607 C4591 0.960 . S
C4608 C4609 1.391 . S
C4608 C4610 1.394 . S
C4608 H4624 0.931 . S
C4609 C4608 1.391 . S
C4609 C4613 1.376 . S
C4610 C4608 1.394 . S
C4610 C4611 1.369 . S
C4610 C4614 1.531 . S
C4611 C4610 1.369 . S
C4611 C4612 1.410 . S
C4611 C4619 1.503 . S
C4612 C4611 1.410 . S
C4612 C4613 1.392 . S
C4612 C4615 1.511 . S
C4613 C4609 1.376 . S
C4613 C4612 1.392 . S
C4613 H4625 0.929 . S
C4614 C4610 1.531 . S
C4614 H4626 0.960 . S
C4614 H4627 0.962 . S
C4614 H4628 0.960 . S
C4615 C4612 1.511 . S
C4615 H4629 0.961 . S
C4615 H4630 0.961 . S
C4615 H4631 0.961 . S
C4616 C4617 1.370 . S
C4616 C4618 1.363 . S
C4616 H4632 0.931 . S
C4617 C4616 1.370 . S
C4617 C4621 1.408 . S
C4618 C4616 1.363 . S
C4618 C4619 1.370 . S
C4618 C4622 1.524 . S
C4619 C4611 1.503 . S
C4619 C4618 1.370 . S
C4619 C4620 1.403 . S
C4620 C4619 1.403 . S
C4620 C4621 1.404 . S
C4620 C4623 1.539 . S
C4621 C4617 1.408 . S
C4621 C4620 1.404 . S
C4621 H4633 0.930 . S
C4622 C4618 1.524 . S
C4622 H4634 0.956 . S
C4622 H4635 0.961 . S
C4622 H4636 0.961 . S
C4623 C4620 1.539 . S
C4623 H4637 0.958 . S
C4623 H4638 0.961 . S
C4623 H4639 0.960 . S
H4624 C4608 0.931 . S
H4625 C4613 0.929 . S
H4626 C4614 0.960 . S
H4627 C4614 0.962 . S
H4628 C4614 0.960 . S
H4629 C4615 0.961 . S
H4630 C4615 0.961 . S
H4631 C4615 0.961 . S
H4632 C4616 0.931 . S
H4633 C4621 0.930 . S
H4634 C4622 0.956 . S
H4635 C4622 0.961 . S
H4636 C4622 0.961 . S
H4637 C4623 0.958 . S
H4638 C4623 0.961 . S
H4639 C4623 0.960 . S
C4640 C4641 1.391 . S
C4640 C4642 1.394 . S
C4640 H4656 0.931 . S
C4641 C4640 1.391 . S
C4641 C4645 1.376 . S
C4642 C4640 1.394 . S
C4642 C4643 1.369 . S
C4642 C4646 1.531 . S
C4643 C4642 1.369 . S
C4643 C4644 1.410 . S
C4643 C4651 1.503 . S
C4644 C4643 1.410 . S
C4644 C4645 1.392 . S
C4644 C4647 1.511 . S
C4645 C4641 1.376 . S
C4645 C4644 1.392 . S
C4645 H4657 0.929 . S
C4646 C4642 1.531 . S
C4646 H4658 0.960 . S
C4646 H4659 0.962 . S
C4646 H4660 0.960 . S
C4647 C4644 1.511 . S
C4647 H4661 0.961 . S
C4647 H4662 0.961 . S
C4647 H4663 0.961 . S
C4648 C4649 1.370 . S
C4648 C4650 1.363 . S
C4648 H4664 0.931 . S
C4649 C4648 1.370 . S
C4649 C4653 1.408 . S
C4650 C4648 1.363 . S
C4650 C4651 1.370 . S
C4650 C4654 1.524 . S
C4651 C4643 1.503 . S
C4651 C4650 1.370 . S
C4651 C4652 1.403 . S
C4652 C4651 1.403 . S
C4652 C4653 1.404 . S
C4652 C4655 1.539 . S
C4653 C4649 1.408 . S
C4653 C4652 1.404 . S
C4653 H4665 0.930 . S
C4654 C4650 1.524 . S
C4654 H4666 0.956 . S
C4654 H4667 0.961 . S
C4654 H4668 0.961 . S
C4655 C4652 1.539 . S
C4655 H4669 0.958 . S
C4655 H4670 0.961 . S
C4655 H4671 0.960 . S
H4656 C4640 0.931 . S
H4657 C4645 0.929 . S
H4658 C4646 0.960 . S
H4659 C4646 0.962 . S
H4660 C4646 0.960 . S
H4661 C4647 0.961 . S
H4662 C4647 0.961 . S
H4663 C4647 0.961 . S
H4664 C4648 0.931 . S
H4665 C4653 0.930 . S
H4666 C4654 0.956 . S
H4667 C4654 0.961 . S
H4668 C4654 0.961 . S
H4669 C4655 0.958 . S
H4670 C4655 0.961 . S
H4671 C4655 0.960 . S
C4672 C4673 1.391 . S
C4672 C4674 1.394 . S
C4672 H4688 0.931 . S
C4673 C4672 1.391 . S
C4673 C4677 1.376 . S
C4674 C4672 1.394 . S
C4674 C4675 1.369 . S
C4674 C4678 1.531 . S
C4675 C4674 1.369 . S
C4675 C4676 1.410 . S
C4675 C4683 1.503 . S
C4676 C4675 1.410 . S
C4676 C4677 1.392 . S
C4676 C4679 1.511 . S
C4677 C4673 1.376 . S
C4677 C4676 1.392 . S
C4677 H4689 0.929 . S
C4678 C4674 1.531 . S
C4678 H4690 0.960 . S
C4678 H4691 0.962 . S
C4678 H4692 0.960 . S
C4679 C4676 1.511 . S
C4679 H4693 0.961 . S
C4679 H4694 0.961 . S
C4679 H4695 0.961 . S
C4680 C4681 1.370 . S
C4680 C4682 1.363 . S
C4680 H4696 0.931 . S
C4681 C4680 1.370 . S
C4681 C4685 1.408 . S
C4682 C4680 1.363 . S
C4682 C4683 1.370 . S
C4682 C4686 1.524 . S
C4683 C4675 1.503 . S
C4683 C4682 1.370 . S
C4683 C4684 1.403 . S
C4684 C4683 1.403 . S
C4684 C4685 1.404 . S
C4684 C4687 1.539 . S
C4685 C4681 1.408 . S
C4685 C4684 1.404 . S
C4685 H4697 0.930 . S
C4686 C4682 1.524 . S
C4686 H4698 0.956 . S
C4686 H4699 0.961 . S
C4686 H4700 0.961 . S
C4687 C4684 1.539 . S
C4687 H4701 0.958 . S
C4687 H4702 0.961 . S
C4687 H4703 0.960 . S
H4688 C4672 0.931 . S
H4689 C4677 0.929 . S
H4690 C4678 0.960 . S
H4691 C4678 0.962 . S
H4692 C4678 0.960 . S
H4693 C4679 0.961 . S
H4694 C4679 0.961 . S
H4695 C4679 0.961 . S
H4696 C4680 0.931 . S
H4697 C4685 0.930 . S
H4698 C4686 0.956 . S
H4699 C4686 0.961 . S
H4700 C4686 0.961 . S
H4701 C4687 0.958 . S
H4702 C4687 0.961 . S
H4703 C4687 0.960 . S
C4704 C4705 1.391 . S
C4704 C4706 1.394 . S
C4704 H4720 0.931 . S
C4705 C4704 1.391 . S
C4705 C4709 1.376 . S
C4706 C4704 1.394 . S
C4706 C4707 1.369 . S
C4706 C4710 1.531 . S
C4707 C4706 1.369 . S
C4707 C4708 1.410 . S
C4707 C4715 1.503 . S
C4708 C4707 1.410 . S
C4708 C4709 1.392 . S
C4708 C4711 1.511 . S
C4709 C4705 1.376 . S
C4709 C4708 1.392 . S
C4709 H4721 0.929 . S
C4710 C4706 1.531 . S
C4710 H4722 0.969 . S
C4710 H4723 0.962 1_455 S
C4710 H4724 0.960 1_455 S
C4711 C4708 1.511 . S
C4711 H4725 0.961 . S
C4711 H4726 0.961 . S
C4711 H4727 0.961 . S
C4712 C4713 1.370 . S
C4712 C4714 1.363 . S
C4712 H4728 0.931 . S
C4713 C4712 1.370 . S
C4713 C4717 1.408 . S
C4714 C4712 1.363 . S
C4714 C4715 1.370 . S
C4714 C4718 1.524 . S
C4715 C4707 1.503 . S
C4715 C4714 1.370 . S
C4715 C4716 1.403 . S
C4716 C4715 1.403 . S
C4716 C4717 1.404 . S
C4716 C4719 1.539 . S
C4717 C4713 1.408 . S
C4717 C4716 1.404 . S
C4717 H4729 0.930 . S
C4718 C4714 1.524 . S
C4718 H4730 0.956 . S
C4718 H4731 0.961 . S
C4718 H4732 0.961 . S
C4719 C4716 1.539 . S
C4719 H4733 0.958 . S
C4719 H4734 0.961 . S
C4719 H4735 0.960 . S
H4720 C4704 0.931 . S
H4721 C4709 0.929 . S
H4722 C4710 0.969 . S
H4723 C4710 0.962 1_655 S
H4724 C4710 0.960 1_655 S
H4725 C4711 0.961 . S
H4726 C4711 0.961 . S
H4727 C4711 0.961 . S
H4728 C4712 0.931 . S
H4729 C4717 0.930 . S
H4730 C4718 0.956 . S
H4731 C4718 0.961 . S
H4732 C4718 0.961 . S
H4733 C4719 0.958 . S
H4734 C4719 0.961 . S
H4735 C4719 0.960 . S
C4736 C4737 1.391 . S
C4736 C4738 1.394 . S
C4736 H4752 0.931 . S
C4737 C4736 1.391 . S
C4737 C4741 1.376 . S
C4738 C4736 1.394 . S
C4738 C4739 1.369 . S
C4738 C4742 1.531 . S
C4739 C4738 1.369 . S
C4739 C4740 1.410 . S
C4739 C4747 1.503 . S
C4740 C4739 1.410 . S
C4740 C4741 1.392 . S
C4740 C4743 1.511 . S
C4741 C4737 1.376 . S
C4741 C4740 1.392 . S
C4741 H4753 0.929 . S
C4742 C4738 1.531 . S
C4742 H4754 0.960 . S
C4742 H4755 0.962 . S
C4742 H4756 0.960 . S
C4743 C4740 1.511 . S
C4743 H4757 0.961 . S
C4743 H4758 0.961 . S
C4743 H4759 0.961 . S
C4744 C4745 1.370 . S
C4744 C4746 1.363 . S
C4744 H4760 0.931 . S
C4745 C4744 1.370 . S
C4745 C4749 1.408 . S
C4746 C4744 1.363 . S
C4746 C4747 1.370 . S
C4746 C4750 1.524 . S
C4747 C4739 1.503 . S
C4747 C4746 1.370 . S
C4747 C4748 1.403 . S
C4748 C4747 1.403 . S
C4748 C4749 1.404 . S
C4748 C4751 1.539 . S
C4749 C4745 1.408 . S
C4749 C4748 1.404 . S
C4749 H4761 0.930 . S
C4750 C4746 1.524 . S
C4750 H4762 0.956 . S
C4750 H4763 0.961 . S
C4750 H4764 0.961 . S
C4751 C4748 1.539 . S
C4751 H4765 0.958 . S
C4751 H4766 0.961 . S
C4751 H4767 0.960 . S
H4752 C4736 0.931 . S
H4753 C4741 0.929 . S
H4754 C4742 0.960 . S
H4755 C4742 0.962 . S
H4756 C4742 0.960 . S
H4757 C4743 0.961 . S
H4758 C4743 0.961 . S
H4759 C4743 0.961 . S
H4760 C4744 0.931 . S
H4761 C4749 0.930 . S
H4762 C4750 0.956 . S
H4763 C4750 0.961 . S
H4764 C4750 0.961 . S
H4765 C4751 0.958 . S
H4766 C4751 0.961 . S
H4767 C4751 0.960 . S
C4768 C4769 1.391 . S
C4768 C4770 1.394 . S
C4768 H4784 0.931 . S
C4769 C4768 1.391 . S
C4769 C4773 1.376 . S
C4770 C4768 1.394 . S
C4770 C4771 1.369 . S
C4770 C4774 1.531 . S
C4771 C4770 1.369 . S
C4771 C4772 1.410 . S
C4771 C4779 1.503 . S
C4772 C4771 1.410 . S
C4772 C4773 1.392 . S
C4772 C4775 1.511 . S
C4773 C4769 1.376 . S
C4773 C4772 1.392 . S
C4773 H4785 0.929 . S
C4774 C4770 1.531 . S
C4774 H4786 0.960 . S
C4774 H4787 0.962 . S
C4774 H4788 0.960 . S
C4775 C4772 1.511 . S
C4775 H4789 0.961 . S
C4775 H4790 0.961 . S
C4775 H4791 0.961 . S
C4776 C4777 1.370 . S
C4776 C4778 1.363 . S
C4776 H4792 0.931 . S
C4777 C4776 1.370 . S
C4777 C4781 1.408 . S
C4778 C4776 1.363 . S
C4778 C4779 1.370 . S
C4778 C4782 1.524 . S
C4779 C4771 1.503 . S
C4779 C4778 1.370 . S
C4779 C4780 1.403 . S
C4780 C4779 1.403 . S
C4780 C4781 1.404 . S
C4780 C4783 1.539 . S
C4781 C4777 1.408 . S
C4781 C4780 1.404 . S
C4781 H4793 0.930 . S
C4782 C4778 1.524 . S
C4782 H4794 0.956 . S
C4782 H4795 0.961 . S
C4782 H4796 0.961 . S
C4783 C4780 1.539 . S
C4783 H4797 0.958 . S
C4783 H4798 0.961 . S
C4783 H4799 0.960 . S
H4784 C4768 0.931 . S
H4785 C4773 0.929 . S
H4786 C4774 0.960 . S
H4787 C4774 0.962 . S
H4788 C4774 0.960 . S
H4789 C4775 0.961 . S
H4790 C4775 0.961 . S
H4791 C4775 0.961 . S
H4792 C4776 0.931 . S
H4793 C4781 0.930 . S
H4794 C4782 0.956 . S
H4795 C4782 0.961 . S
H4796 C4782 0.961 . S
H4797 C4783 0.958 . S
H4798 C4783 0.961 . S
H4799 C4783 0.960 . S
C4800 C4801 1.391 . S
C4800 C4802 1.394 . S
C4800 H4816 0.931 . S
C4801 C4800 1.391 . S
C4801 C4805 1.376 . S
C4802 C4800 1.394 . S
C4802 C4803 1.369 . S
C4802 C4806 1.531 . S
C4803 C4802 1.369 . S
C4803 C4804 1.410 . S
C4803 C4811 1.503 . S
C4804 C4803 1.410 . S
C4804 C4805 1.392 . S
C4804 C4807 1.511 . S
C4805 C4801 1.376 . S
C4805 C4804 1.392 . S
C4805 H4817 0.929 . S
C4806 C4802 1.531 . S
C4806 H4818 0.960 . S
C4806 H4819 0.962 . S
C4806 H4820 0.960 . S
C4807 C4804 1.511 . S
C4807 H4821 0.961 . S
C4807 H4822 0.961 . S
C4807 H4823 0.961 . S
C4808 C4809 1.370 . S
C4808 C4810 1.363 . S
C4808 H4824 0.931 . S
C4809 C4808 1.370 . S
C4809 C4813 1.408 . S
C4810 C4808 1.363 . S
C4810 C4811 1.370 . S
C4810 C4814 1.524 . S
C4811 C4803 1.503 . S
C4811 C4810 1.370 . S
C4811 C4812 1.403 . S
C4812 C4811 1.403 . S
C4812 C4813 1.404 . S
C4812 C4815 1.539 . S
C4813 C4809 1.408 . S
C4813 C4812 1.404 . S
C4813 H4825 0.930 . S
C4814 C4810 1.524 . S
C4814 H4826 0.956 . S
C4814 H4827 0.961 . S
C4814 H4828 0.961 . S
C4815 C4812 1.539 . S
C4815 H4829 0.958 . S
C4815 H4830 0.961 . S
C4815 H4831 0.960 . S
H4816 C4800 0.931 . S
H4817 C4805 0.929 . S
H4818 C4806 0.960 . S
H4819 C4806 0.962 . S
H4820 C4806 0.960 . S
H4821 C4807 0.961 . S
H4822 C4807 0.961 . S
H4823 C4807 0.961 . S
H4824 C4808 0.931 . S
H4825 C4813 0.930 . S
H4826 C4814 0.956 . S
H4827 C4814 0.961 . S
H4828 C4814 0.961 . S
H4829 C4815 0.958 . S
H4830 C4815 0.961 . S
H4831 C4815 0.960 . S
C4832 C4833 1.391 . S
C4832 C4834 1.394 . S
C4832 H4848 0.931 . S
C4833 C4832 1.391 . S
C4833 C4837 1.376 . S
C4834 C4832 1.394 . S
C4834 C4835 1.369 . S
C4834 C4838 1.531 . S
C4835 C4834 1.369 . S
C4835 C4836 1.410 . S
C4835 C4843 1.503 . S
C4836 C4835 1.410 . S
C4836 C4837 1.392 . S
C4836 C4839 1.511 . S
C4837 C4833 1.376 . S
C4837 C4836 1.392 . S
C4837 H4849 0.929 . S
C4838 C4834 1.531 . S
C4838 H4850 0.960 . S
C4838 H4851 0.962 . S
C4838 H4852 0.960 . S
C4839 C4836 1.511 . S
C4839 H4853 0.961 . S
C4839 H4854 0.961 . S
C4839 H4855 0.961 . S
C4840 C4841 1.370 . S
C4840 C4842 1.363 . S
C4840 H4856 0.931 1_655 S
C4841 C4840 1.370 . S
C4841 C4845 1.408 . S
C4842 C4840 1.363 . S
C4842 C4843 1.370 . S
C4842 C4846 1.524 . S
C4843 C4835 1.503 . S
C4843 C4842 1.370 . S
C4843 C4844 1.403 . S
C4844 C4843 1.403 . S
C4844 C4845 1.404 . S
C4844 C4847 1.539 . S
C4845 C4841 1.408 . S
C4845 C4844 1.404 . S
C4845 H4857 0.930 . S
C4846 C4842 1.524 . S
C4846 H4858 0.956 . S
C4846 H4859 0.961 . S
C4846 H4860 0.961 . S
C4847 C4844 1.539 . S
C4847 H4861 0.958 . S
C4847 H4862 0.961 . S
C4847 H4863 0.960 . S
H4848 C4832 0.931 . S
H4849 C4837 0.929 . S
H4850 C4838 0.960 . S
H4851 C4838 0.962 . S
H4852 C4838 0.960 . S
H4853 C4839 0.961 . S
H4854 C4839 0.961 . S
H4855 C4839 0.961 . S
H4856 C4840 0.931 1_455 S
H4857 C4845 0.930 . S
H4858 C4846 0.956 . S
H4859 C4846 0.961 . S
H4860 C4846 0.961 . S
H4861 C4847 0.958 . S
H4862 C4847 0.961 . S
H4863 C4847 0.960 . S
C4864 C4865 1.391 . S
C4864 C4866 1.394 . S
C4864 H4880 0.931 . S
C4865 C4864 1.391 . S
C4865 C4869 1.376 . S
C4866 C4864 1.394 . S
C4866 C4867 1.369 . S
C4866 C4870 1.531 . S
C4867 C4866 1.369 . S
C4867 C4868 1.410 . S
C4867 C4875 1.503 . S
C4868 C4867 1.410 . S
C4868 C4869 1.392 . S
C4868 C4871 1.511 . S
C4869 C4865 1.376 . S
C4869 C4868 1.392 . S
C4869 H4881 0.929 . S
C4870 C4866 1.531 . S
C4870 H4882 0.960 . S
C4870 H4883 0.962 . S
C4870 H4884 0.960 . S
C4871 C4868 1.511 . S
C4871 H4885 0.961 . S
C4871 H4886 0.961 . S
C4871 H4887 0.961 . S
C4872 C4873 1.370 . S
C4872 C4874 1.363 . S
C4872 H4888 0.931 . S
C4873 C4872 1.370 . S
C4873 C4877 1.408 . S
C4874 C4872 1.363 . S
C4874 C4875 1.370 . S
C4874 C4878 1.524 . S
C4875 C4867 1.503 . S
C4875 C4874 1.370 . S
C4875 C4876 1.403 . S
C4876 C4875 1.403 . S
C4876 C4877 1.404 . S
C4876 C4879 1.539 . S
C4877 C4873 1.408 . S
C4877 C4876 1.404 . S
C4877 H4889 0.930 . S
C4878 C4874 1.524 . S
C4878 H4890 0.956 . S
C4878 H4891 0.961 . S
C4878 H4892 0.961 . S
C4879 C4876 1.539 . S
C4879 H4893 0.958 . S
C4879 H4894 0.961 . S
C4879 H4895 0.960 . S
H4880 C4864 0.931 . S
H4881 C4869 0.929 . S
H4882 C4870 0.960 . S
H4883 C4870 0.962 . S
H4884 C4870 0.960 . S
H4885 C4871 0.961 . S
H4886 C4871 0.961 . S
H4887 C4871 0.961 . S
H4888 C4872 0.931 . S
H4889 C4877 0.930 . S
H4890 C4878 0.956 . S
H4891 C4878 0.961 . S
H4892 C4878 0.961 . S
H4893 C4879 0.958 . S
H4894 C4879 0.961 . S
H4895 C4879 0.960 . S
C4896 C4897 1.391 . S
C4896 C4898 1.394 . S
C4896 H4912 0.931 . S
C4897 C4896 1.391 . S
C4897 C4901 1.376 . S
C4898 C4896 1.394 . S
C4898 C4899 1.369 . S
C4898 C4902 1.531 . S
C4899 C4898 1.369 . S
C4899 C4900 1.410 . S
C4899 C4907 1.503 . S
C4900 C4899 1.410 . S
C4900 C4901 1.392 . S
C4900 C4903 1.511 . S
C4901 C4897 1.376 . S
C4901 C4900 1.392 . S
C4901 H4913 0.929 . S
C4902 C4898 1.531 . S
C4902 H4914 0.960 . S
C4902 H4915 0.962 . S
C4902 H4916 0.960 . S
C4903 C4900 1.511 . S
C4903 H4917 0.961 . S
C4903 H4918 0.961 . S
C4903 H4919 0.961 . S
C4904 C4905 1.370 . S
C4904 C4906 1.363 . S
C4904 H4920 0.931 . S
C4905 C4904 1.370 . S
C4905 C4909 1.408 . S
C4906 C4904 1.363 . S
C4906 C4907 1.370 . S
C4906 C4910 1.524 . S
C4907 C4899 1.503 . S
C4907 C4906 1.370 . S
C4907 C4908 1.403 . S
C4908 C4907 1.403 . S
C4908 C4909 1.404 . S
C4908 C4911 1.539 . S
C4909 C4905 1.408 . S
C4909 C4908 1.404 . S
C4909 H4921 0.930 . S
C4910 C4906 1.524 . S
C4910 H4922 0.956 . S
C4910 H4923 0.961 . S
C4910 H4924 0.961 . S
C4911 C4908 1.539 . S
C4911 H4925 0.958 . S
C4911 H4926 0.961 . S
C4911 H4927 0.960 . S
H4912 C4896 0.931 . S
H4913 C4901 0.929 . S
H4914 C4902 0.960 . S
H4915 C4902 0.962 . S
H4916 C4902 0.960 . S
H4917 C4903 0.961 . S
H4918 C4903 0.961 . S
H4919 C4903 0.961 . S
H4920 C4904 0.931 . S
H4921 C4909 0.930 . S
H4922 C4910 0.956 . S
H4923 C4910 0.961 . S
H4924 C4910 0.961 . S
H4925 C4911 0.958 . S
H4926 C4911 0.961 . S
H4927 C4911 0.960 . S
C4928 C4929 1.391 . S
C4928 C4930 1.394 . S
C4928 H4944 0.931 . S
C4929 C4928 1.391 . S
C4929 C4933 1.376 . S
C4930 C4928 1.394 . S
C4930 C4931 1.369 . S
C4930 C4934 1.531 . S
C4931 C4930 1.369 . S
C4931 C4932 1.410 . S
C4931 C4939 1.503 . S
C4932 C4931 1.410 . S
C4932 C4933 1.392 . S
C4932 C4935 1.511 . S
C4933 C4929 1.376 . S
C4933 C4932 1.392 . S
C4933 H4945 0.929 . S
C4934 C4930 1.531 . S
C4934 H4946 0.960 . S
C4934 H4947 0.962 . S
C4934 H4948 0.960 . S
C4935 C4932 1.511 . S
C4935 H4949 0.961 . S
C4935 H4950 0.961 . S
C4935 H4951 0.961 . S
C4936 C4937 1.370 . S
C4936 C4938 1.363 . S
C4936 H4952 0.931 . S
C4937 C4936 1.370 . S
C4937 C4941 1.408 . S
C4938 C4936 1.363 . S
C4938 C4939 1.370 . S
C4938 C4942 1.524 . S
C4939 C4931 1.503 . S
C4939 C4938 1.370 . S
C4939 C4940 1.403 . S
C4940 C4939 1.403 . S
C4940 C4941 1.404 . S
C4940 C4943 1.539 . S
C4941 C4937 1.408 . S
C4941 C4940 1.404 . S
C4941 H4953 0.930 . S
C4942 C4938 1.524 . S
C4942 H4954 0.956 . S
C4942 H4955 0.961 . S
C4942 H4956 0.961 . S
C4943 C4940 1.539 . S
C4943 H4957 0.958 . S
C4943 H4958 0.961 . S
C4943 H4959 0.960 . S
H4944 C4928 0.931 . S
H4945 C4933 0.929 . S
H4946 C4934 0.960 . S
H4947 C4934 0.962 . S
H4948 C4934 0.960 . S
H4949 C4935 0.961 . S
H4950 C4935 0.961 . S
H4951 C4935 0.961 . S
H4952 C4936 0.931 . S
H4953 C4941 0.930 . S
H4954 C4942 0.956 . S
H4955 C4942 0.961 . S
H4956 C4942 0.961 . S
H4957 C4943 0.958 . S
H4958 C4943 0.961 . S
H4959 C4943 0.960 . S
C4960 C4961 1.391 . S
C4960 C4962 1.394 . S
C4960 H4976 0.931 . S
C4961 C4960 1.391 . S
C4961 C4965 1.376 . S
C4962 C4960 1.394 . S
C4962 C4963 1.369 . S
C4962 C4966 1.531 . S
C4963 C4962 1.369 . S
C4963 C4964 1.410 . S
C4963 C4971 1.503 . S
C4964 C4963 1.410 . S
C4964 C4965 1.392 . S
C4964 C4967 1.511 . S
C4965 C4961 1.376 . S
C4965 C4964 1.392 . S
C4965 H4977 0.929 . S
C4966 C4962 1.531 . S
C4966 H4978 0.960 . S
C4966 H4979 0.962 . S
C4966 H4980 0.960 . S
C4967 C4964 1.511 . S
C4967 H4981 0.961 . S
C4967 H4982 0.961 . S
C4967 H4983 0.961 . S
C4968 C4969 1.370 . S
C4968 C4970 1.363 . S
C4968 H4984 0.931 . S
C4969 C4968 1.370 . S
C4969 C4973 1.408 . S
C4970 C4968 1.363 . S
C4970 C4971 1.370 . S
C4970 C4974 1.524 . S
C4971 C4963 1.503 . S
C4971 C4970 1.370 . S
C4971 C4972 1.403 . S
C4972 C4971 1.403 . S
C4972 C4973 1.404 . S
C4972 C4975 1.539 . S
C4973 C4969 1.408 . S
C4973 C4972 1.404 . S
C4973 H4985 0.930 . S
C4974 C4970 1.524 . S
C4974 H4986 0.956 . S
C4974 H4987 0.961 . S
C4974 H4988 0.961 . S
C4975 C4972 1.539 . S
C4975 H4989 0.958 . S
C4975 H4990 0.961 . S
C4975 H4991 0.960 . S
H4976 C4960 0.931 . S
H4977 C4965 0.929 . S
H4978 C4966 0.960 . S
H4979 C4966 0.962 . S
H4980 C4966 0.960 . S
H4981 C4967 0.961 . S
H4982 C4967 0.961 . S
H4983 C4967 0.961 . S
H4984 C4968 0.931 . S
H4985 C4973 0.930 . S
H4986 C4974 0.956 . S
H4987 C4974 0.961 . S
H4988 C4974 0.961 . S
H4989 C4975 0.958 . S
H4990 C4975 0.961 . S
H4991 C4975 0.960 . S
C4992 C4993 1.391 . S
C4992 C4994 1.394 . S
C4992 H5008 0.931 . S
C4993 C4992 1.391 . S
C4993 C4997 1.376 . S
C4994 C4992 1.394 . S
C4994 C4995 1.369 . S
C4994 C4998 1.531 . S
C4995 C4994 1.369 . S
C4995 C4996 1.410 . S
C4995 C5003 1.503 . S
C4996 C4995 1.410 . S
C4996 C4997 1.392 . S
C4996 C4999 1.511 . S
C4997 C4993 1.376 . S
C4997 C4996 1.392 . S
C4997 H5009 0.929 . S
C4998 C4994 1.531 . S
C4998 H5010 0.960 . S
C4998 H5011 0.962 . S
C4998 H5012 0.960 . S
C4999 C4996 1.511 . S
C4999 H5013 0.961 . S
C4999 H5014 0.961 . S
C4999 H5015 0.961 . S
C5000 C5001 1.370 . S
C5000 C5002 1.363 . S
C5000 H5016 0.931 . S
C5001 C5000 1.370 . S
C5001 C5005 1.408 . S
C5002 C5000 1.363 . S
C5002 C5003 1.370 . S
C5002 C5006 1.524 . S
C5003 C4995 1.503 . S
C5003 C5002 1.370 . S
C5003 C5004 1.403 . S
C5004 C5003 1.403 . S
C5004 C5005 1.404 . S
C5004 C5007 1.539 . S
C5005 C5001 1.408 . S
C5005 C5004 1.404 . S
C5005 H5017 0.930 . S
C5006 C5002 1.524 . S
C5006 H5018 0.956 . S
C5006 H5019 0.961 . S
C5006 H5020 0.961 . S
C5007 C5004 1.539 . S
C5007 H5021 0.958 . S
C5007 H5022 0.961 . S
C5007 H5023 0.960 . S
H5008 C4992 0.931 . S
H5009 C4997 0.929 . S
H5010 C4998 0.960 . S
H5011 C4998 0.962 . S
H5012 C4998 0.960 . S
H5013 C4999 0.961 . S
H5014 C4999 0.961 . S
H5015 C4999 0.961 . S
H5016 C5000 0.931 . S
H5017 C5005 0.930 . S
H5018 C5006 0.956 . S
H5019 C5006 0.961 . S
H5020 C5006 0.961 . S
H5021 C5007 0.958 . S
H5022 C5007 0.961 . S
H5023 C5007 0.960 . S
C5024 C5025 1.391 . S
C5024 C5026 1.394 . S
C5024 H5040 0.931 . S
C5025 C5024 1.391 . S
C5025 C5029 1.376 . S
C5026 C5024 1.394 . S
C5026 C5027 1.369 . S
C5026 C5030 1.531 . S
C5027 C5026 1.369 . S
C5027 C5028 1.410 . S
C5027 C5035 1.503 . S
C5028 C5027 1.410 . S
C5028 C5029 1.392 . S
C5028 C5031 1.511 . S
C5029 C5025 1.376 . S
C5029 C5028 1.392 . S
C5029 H5041 0.929 . S
C5030 C5026 1.531 . S
C5030 H5042 0.960 . S
C5030 H5043 0.962 . S
C5030 H5044 0.960 . S
C5031 C5028 1.511 . S
C5031 H5045 0.961 . S
C5031 H5046 0.961 . S
C5031 H5047 0.961 . S
C5032 C5033 1.370 . S
C5032 C5034 1.363 . S
C5032 H5048 0.931 . S
C5033 C5032 1.370 . S
C5033 C5037 1.408 . S
C5034 C5032 1.363 . S
C5034 C5035 1.370 . S
C5034 C5038 1.524 . S
C5035 C5027 1.503 . S
C5035 C5034 1.370 . S
C5035 C5036 1.403 . S
C5036 C5035 1.403 . S
C5036 C5037 1.404 . S
C5036 C5039 1.539 . S
C5037 C5033 1.408 . S
C5037 C5036 1.404 . S
C5037 H5049 0.930 . S
C5038 C5034 1.524 . S
C5038 H5050 0.956 . S
C5038 H5051 0.961 . S
C5038 H5052 0.961 . S
C5039 C5036 1.539 . S
C5039 H5053 0.958 . S
C5039 H5054 0.961 . S
C5039 H5055 0.960 . S
H5040 C5024 0.931 . S
H5041 C5029 0.929 . S
H5042 C5030 0.960 . S
H5043 C5030 0.962 . S
H5044 C5030 0.960 . S
H5045 C5031 0.961 . S
H5046 C5031 0.961 . S
H5047 C5031 0.961 . S
H5048 C5032 0.931 . S
H5049 C5037 0.930 . S
H5050 C5038 0.956 . S
H5051 C5038 0.961 . S
H5052 C5038 0.961 . S
H5053 C5039 0.958 . S
H5054 C5039 0.961 . S
H5055 C5039 0.960 . S
C5056 C5057 1.391 . S
C5056 C5058 1.394 . S
C5056 H5072 0.931 . S
C5057 C5056 1.391 . S
C5057 C5061 1.376 . S
C5058 C5056 1.394 . S
C5058 C5059 1.369 . S
C5058 C5062 1.531 . S
C5059 C5058 1.369 . S
C5059 C5060 1.410 . S
C5059 C5067 1.503 . S
C5060 C5059 1.410 . S
C5060 C5061 1.392 . S
C5060 C5063 1.511 . S
C5061 C5057 1.376 . S
C5061 C5060 1.392 . S
C5061 H5073 0.929 . S
C5062 C5058 1.531 . S
C5062 H5074 0.960 . S
C5062 H5075 0.962 . S
C5062 H5076 0.960 . S
C5063 C5060 1.511 . S
C5063 H5077 0.961 . S
C5063 H5078 0.961 . S
C5063 H5079 0.961 . S
C5064 C5065 1.370 . S
C5064 C5066 1.363 . S
C5064 H5080 0.931 1_565 S
C5065 C5064 1.370 . S
C5065 C5069 1.408 . S
C5066 C5064 1.363 . S
C5066 C5067 1.370 . S
C5066 C5070 1.524 . S
C5067 C5059 1.503 . S
C5067 C5066 1.370 . S
C5067 C5068 1.403 . S
C5068 C5067 1.403 . S
C5068 C5069 1.404 . S
C5068 C5071 1.539 . S
C5069 C5065 1.408 . S
C5069 C5068 1.404 . S
C5069 H5081 0.930 . S
C5070 C5066 1.524 . S
C5070 H5082 0.956 . S
C5070 H5083 0.961 . S
C5070 H5084 0.961 . S
C5071 C5068 1.539 . S
C5071 H5085 0.958 . S
C5071 H5086 0.961 . S
C5071 H5087 0.960 . S
H5072 C5056 0.931 . S
H5073 C5061 0.929 . S
H5074 C5062 0.960 . S
H5075 C5062 0.962 . S
H5076 C5062 0.960 . S
H5077 C5063 0.961 . S
H5078 C5063 0.961 . S
H5079 C5063 0.961 . S
H5080 C5064 0.931 1_545 S
H5081 C5069 0.930 . S
H5082 C5070 0.956 . S
H5083 C5070 0.961 . S
H5084 C5070 0.961 . S
H5085 C5071 0.958 . S
H5086 C5071 0.961 . S
H5087 C5071 0.960 . S
C5088 C5089 1.391 . S
C5088 C5090 1.394 . S
C5088 H5104 0.931 . S
C5089 C5088 1.391 . S
C5089 C5093 1.376 . S
C5090 C5088 1.394 . S
C5090 C5091 1.369 . S
C5090 C5094 1.531 . S
C5091 C5090 1.369 . S
C5091 C5092 1.410 . S
C5091 C5099 1.503 . S
C5092 C5091 1.410 . S
C5092 C5093 1.392 . S
C5092 C5095 1.511 . S
C5093 C5089 1.376 . S
C5093 C5092 1.392 . S
C5093 H5105 0.929 . S
C5094 C5090 1.531 . S
C5094 H5106 0.960 . S
C5094 H5107 0.962 . S
C5094 H5108 0.960 . S
C5095 C5092 1.511 . S
C5095 H5109 0.961 . S
C5095 H5110 0.961 . S
C5095 H5111 0.961 . S
C5096 C5097 1.370 . S
C5096 C5098 1.363 . S
C5096 H5112 0.931 . S
C5097 C5096 1.370 . S
C5097 C5101 1.408 . S
C5098 C5096 1.363 . S
C5098 C5099 1.370 . S
C5098 C5102 1.524 . S
C5099 C5091 1.503 . S
C5099 C5098 1.370 . S
C5099 C5100 1.403 . S
C5100 C5099 1.403 . S
C5100 C5101 1.404 . S
C5100 C5103 1.539 . S
C5101 C5097 1.408 . S
C5101 C5100 1.404 . S
C5101 H5113 0.930 . S
C5102 C5098 1.524 . S
C5102 H5114 0.956 . S
C5102 H5115 0.961 . S
C5102 H5116 0.961 . S
C5103 C5100 1.539 . S
C5103 H5117 0.958 . S
C5103 H5118 0.961 . S
C5103 H5119 0.960 . S
H5104 C5088 0.931 . S
H5105 C5093 0.929 . S
H5106 C5094 0.960 . S
H5107 C5094 0.962 . S
H5108 C5094 0.960 . S
H5109 C5095 0.961 . S
H5110 C5095 0.961 . S
H5111 C5095 0.961 . S
H5112 C5096 0.931 . S
H5113 C5101 0.930 . S
H5114 C5102 0.956 . S
H5115 C5102 0.961 . S
H5116 C5102 0.961 . S
H5117 C5103 0.958 . S
H5118 C5103 0.961 . S
H5119 C5103 0.960 . S
C5120 C5121 1.391 . S
C5120 C5122 1.394 . S
C5120 H5136 0.931 . S
C5121 C5120 1.391 . S
C5121 C5125 1.376 . S
C5122 C5120 1.394 . S
C5122 C5123 1.369 . S
C5122 C5126 1.531 . S
C5123 C5122 1.369 . S
C5123 C5124 1.410 . S
C5123 C5131 1.503 . S
C5124 C5123 1.410 . S
C5124 C5125 1.392 . S
C5124 C5127 1.511 . S
C5125 C5121 1.376 . S
C5125 C5124 1.392 . S
C5125 H5137 0.929 . S
C5126 C5122 1.531 . S
C5126 H5138 0.960 . S
C5126 H5139 0.962 . S
C5126 H5140 0.960 . S
C5127 C5124 1.511 . S
C5127 H5141 0.961 . S
C5127 H5142 0.961 . S
C5127 H5143 0.961 . S
C5128 C5129 1.370 . S
C5128 C5130 1.363 . S
C5128 H5144 0.931 . S
C5129 C5128 1.370 . S
C5129 C5133 1.408 . S
C5130 C5128 1.363 . S
C5130 C5131 1.370 . S
C5130 C5134 1.524 . S
C5131 C5123 1.503 . S
C5131 C5130 1.370 . S
C5131 C5132 1.403 . S
C5132 C5131 1.403 . S
C5132 C5133 1.404 . S
C5132 C5135 1.539 . S
C5133 C5129 1.408 . S
C5133 C5132 1.404 . S
C5133 H5145 0.930 . S
C5134 C5130 1.524 . S
C5134 H5146 0.956 . S
C5134 H5147 0.961 . S
C5134 H5148 0.961 1_554 S
C5135 C5132 1.539 . S
C5135 H5149 0.958 . S
C5135 H5150 0.961 . S
C5135 H5151 0.960 . S
H5136 C5120 0.931 . S
H5137 C5125 0.929 . S
H5138 C5126 0.960 . S
H5139 C5126 0.962 . S
H5140 C5126 0.960 . S
H5141 C5127 0.961 . S
H5142 C5127 0.961 . S
H5143 C5127 0.961 . S
H5144 C5128 0.931 . S
H5145 C5133 0.930 . S
H5146 C5134 0.956 . S
H5147 C5134 0.961 . S
H5148 C5134 0.961 1_556 S
H5149 C5135 0.958 . S
H5150 C5135 0.961 . S
H5151 C5135 0.960 . S
C5152 C5153 1.391 . S
C5152 C5154 1.394 . S
C5152 H5168 0.931 . S
C5153 C5152 1.391 . S
C5153 C5157 1.376 . S
C5154 C5152 1.394 . S
C5154 C5155 1.369 . S
C5154 C5158 1.531 . S
C5155 C5154 1.369 . S
C5155 C5156 1.410 . S
C5155 C5163 1.503 . S
C5156 C5155 1.410 . S
C5156 C5157 1.392 . S
C5156 C5159 1.511 . S
C5157 C5153 1.376 . S
C5157 C5156 1.392 . S
C5157 H5169 0.929 . S
C5158 C5154 1.531 . S
C5158 H5170 0.960 . S
C5158 H5171 0.962 . S
C5158 H5172 0.960 . S
C5159 C5156 1.511 . S
C5159 H5173 0.961 . S
C5159 H5174 0.961 . S
C5159 H5175 0.961 . S
C5160 C5161 1.370 . S
C5160 C5162 1.363 . S
C5160 H5176 0.931 . S
C5161 C5160 1.370 . S
C5161 C5165 1.408 . S
C5162 C5160 1.363 . S
C5162 C5163 1.370 . S
C5162 C5166 1.524 . S
C5163 C5155 1.503 . S
C5163 C5162 1.370 . S
C5163 C5164 1.403 . S
C5164 C5163 1.403 . S
C5164 C5165 1.404 . S
C5164 C5167 1.539 . S
C5165 C5161 1.408 . S
C5165 C5164 1.404 . S
C5165 H5177 0.930 . S
C5166 C5162 1.524 . S
C5166 H5178 0.956 . S
C5166 H5179 0.961 . S
C5166 H5180 0.961 . S
C5167 C5164 1.539 . S
C5167 H5181 0.958 . S
C5167 H5182 0.961 . S
C5167 H5183 0.960 . S
H5168 C5152 0.931 . S
H5169 C5157 0.929 . S
H5170 C5158 0.960 . S
H5171 C5158 0.962 . S
H5172 C5158 0.960 . S
H5173 C5159 0.961 . S
H5174 C5159 0.961 . S
H5175 C5159 0.961 . S
H5176 C5160 0.931 . S
H5177 C5165 0.930 . S
H5178 C5166 0.956 . S
H5179 C5166 0.961 . S
H5180 C5166 0.961 . S
H5181 C5167 0.958 . S
H5182 C5167 0.961 . S
H5183 C5167 0.960 . S
C5184 C5185 1.391 . S
C5184 C5186 1.394 . S
C5184 H5200 0.931 . S
C5185 C5184 1.391 . S
C5185 C5189 1.376 . S
C5186 C5184 1.394 . S
C5186 C5187 1.369 . S
C5186 C5190 1.531 . S
C5187 C5186 1.369 . S
C5187 C5188 1.410 . S
C5187 C5195 1.503 . S
C5188 C5187 1.410 . S
C5188 C5189 1.392 . S
C5188 C5191 1.511 . S
C5189 C5185 1.376 . S
C5189 C5188 1.392 . S
C5189 H5201 0.929 . S
C5190 C5186 1.531 . S
C5190 H5202 0.960 . S
C5190 H5203 0.962 . S
C5190 H5204 0.960 . S
C5191 C5188 1.511 . S
C5191 H5205 0.961 . S
C5191 H5206 0.961 . S
C5191 H5207 0.961 . S
C5192 C5193 1.370 . S
C5192 C5194 1.363 . S
C5192 H5208 0.931 . S
C5193 C5192 1.370 . S
C5193 C5197 1.408 . S
C5194 C5192 1.363 . S
C5194 C5195 1.370 . S
C5194 C5198 1.524 . S
C5195 C5187 1.503 . S
C5195 C5194 1.370 . S
C5195 C5196 1.403 . S
C5196 C5195 1.403 . S
C5196 C5197 1.404 . S
C5196 C5199 1.539 1_554 S
C5197 C5193 1.408 . S
C5197 C5196 1.404 . S
C5197 H5209 0.930 1_554 S
C5198 C5194 1.524 . S
C5198 H5210 0.956 . S
C5198 H5211 0.961 . S
C5198 H5212 0.961 . S
C5199 C5196 1.539 1_556 S
C5199 H5213 0.958 . S
C5199 H5214 0.961 . S
C5199 H5215 0.960 . S
H5200 C5184 0.931 . S
H5201 C5189 0.929 . S
H5202 C5190 0.960 . S
H5203 C5190 0.962 . S
H5204 C5190 0.960 . S
H5205 C5191 0.961 . S
H5206 C5191 0.961 . S
H5207 C5191 0.961 . S
H5208 C5192 0.931 . S
H5209 C5197 0.930 1_556 S
H5210 C5198 0.956 . S
H5211 C5198 0.961 . S
H5212 C5198 0.961 . S
H5213 C5199 0.958 . S
H5214 C5199 0.961 . S
H5215 C5199 0.960 . S
C5216 C5217 1.391 . S
C5216 C5218 1.394 . S
C5216 H5232 0.931 . S
C5217 C5216 1.391 . S
C5217 C5221 1.376 . S
C5218 C5216 1.394 . S
C5218 C5219 1.369 . S
C5218 C5222 1.531 . S
C5219 C5218 1.369 . S
C5219 C5220 1.410 . S
C5219 C5227 1.503 . S
C5220 C5219 1.410 . S
C5220 C5221 1.392 . S
C5220 C5223 1.511 . S
C5221 C5217 1.376 . S
C5221 C5220 1.392 . S
C5221 H5233 0.929 . S
C5222 C5218 1.531 . S
C5222 H5234 0.960 . S
C5222 H5235 0.962 . S
C5222 H5236 0.960 . S
C5223 C5220 1.511 . S
C5223 H5237 0.961 . S
C5223 H5238 0.961 . S
C5223 H5239 0.961 . S
C5224 C5225 1.370 . S
C5224 C5226 1.363 . S
C5224 H5240 0.931 . S
C5225 C5224 1.370 . S
C5225 C5229 1.408 . S
C5226 C5224 1.363 . S
C5226 C5227 1.370 . S
C5226 C5230 1.524 . S
C5227 C5219 1.503 . S
C5227 C5226 1.370 . S
C5227 C5228 1.403 . S
C5228 C5227 1.403 . S
C5228 C5229 1.404 . S
C5228 C5231 1.539 . S
C5229 C5225 1.408 . S
C5229 C5228 1.404 . S
C5229 H5241 0.930 . S
C5230 C5226 1.524 . S
C5230 H5242 0.956 . S
C5230 H5243 0.961 . S
C5230 H5244 0.961 . S
C5231 C5228 1.539 . S
C5231 H5245 0.958 . S
C5231 H5246 0.961 . S
C5231 H5247 0.960 . S
H5232 C5216 0.931 . S
H5233 C5221 0.929 . S
H5234 C5222 0.960 . S
H5235 C5222 0.962 . S
H5236 C5222 0.960 . S
H5237 C5223 0.961 . S
H5238 C5223 0.961 . S
H5239 C5223 0.961 . S
H5240 C5224 0.931 . S
H5241 C5229 0.930 . S
H5242 C5230 0.956 . S
H5243 C5230 0.961 . S
H5244 C5230 0.961 . S
H5245 C5231 0.958 . S
H5246 C5231 0.961 . S
H5247 C5231 0.960 . S
C5248 C5249 1.391 . S
C5248 C5250 1.394 . S
C5248 H5264 0.931 . S
C5249 C5248 1.391 . S
C5249 C5253 1.376 . S
C5250 C5248 1.394 . S
C5250 C5251 1.369 . S
C5250 C5254 1.531 . S
C5251 C5250 1.369 . S
C5251 C5252 1.410 . S
C5251 C5259 1.503 . S
C5252 C5251 1.410 . S
C5252 C5253 1.392 . S
C5252 C5255 1.511 . S
C5253 C5249 1.376 . S
C5253 C5252 1.392 . S
C5253 H5265 0.929 . S
C5254 C5250 1.531 . S
C5254 H5266 0.960 . S
C5254 H5267 0.962 . S
C5254 H5268 0.960 . S
C5255 C5252 1.511 . S
C5255 H5269 0.961 . S
C5255 H5270 0.961 . S
C5255 H5271 0.961 . S
C5256 C5257 1.370 . S
C5256 C5258 1.363 . S
C5256 H5272 0.931 . S
C5257 C5256 1.370 . S
C5257 C5261 1.408 . S
C5258 C5256 1.363 . S
C5258 C5259 1.370 . S
C5258 C5262 1.524 . S
C5259 C5251 1.503 . S
C5259 C5258 1.370 . S
C5259 C5260 1.403 . S
C5260 C5259 1.403 . S
C5260 C5261 1.404 . S
C5260 C5263 1.539 . S
C5261 C5257 1.408 . S
C5261 C5260 1.404 . S
C5261 H5273 0.930 . S
C5262 C5258 1.524 . S
C5262 H5274 0.956 . S
C5262 H5275 0.961 . S
C5262 H5276 0.961 . S
C5263 C5260 1.539 . S
C5263 H5277 0.958 . S
C5263 H5278 0.961 . S
C5263 H5279 0.960 . S
H5264 C5248 0.931 . S
H5265 C5253 0.929 . S
H5266 C5254 0.960 . S
H5267 C5254 0.962 . S
H5268 C5254 0.960 . S
H5269 C5255 0.961 . S
H5270 C5255 0.961 . S
H5271 C5255 0.961 . S
H5272 C5256 0.931 . S
H5273 C5261 0.930 . S
H5274 C5262 0.956 . S
H5275 C5262 0.961 . S
H5276 C5262 0.961 . S
H5277 C5263 0.958 . S
H5278 C5263 0.961 . S
H5279 C5263 0.960 . S
C2209 C255 2.049 1_455 S
C2217 C920 2.086 . S
C2241 C147 1.851 . S
C2249 C1022 1.868 . S
C2273 C184 1.752 . S
C2281 C1088 1.805 . S
C2313 C1174 1.401 . S
C2305 C220 1.500 . S
C2337 C40 1.467 . S
C2345 C1258 1.349 . S
C2377 C1340 1.904 . S
C2369 C74 1.850 . S
C2409 C1442 1.901 . S
C2401 C110 1.905 . S
C2433 C14 2.038 . S
C2441 C1508 2.049 . S
C2473 C938 1.716 . S
C2465 C579 1.767 . S
C2497 C616 0.938 . S
C2505 C1006 0.874 . S
C2537 C1106 1.195 . S
C2529 C687 1.174 . S
C2569 C1172 1.670 . S
C2561 C436 1.669 . S
C2593 C580 1.618 . S
C2601 C1256 1.647 . S
C2633 C1358 1.153 . S
C2625 C615 1.149 . S
C2665 C1426 0.879 . S
C2657 C688 0.936 . S
C2697 C1526 1.713 . S
C2689 C435 1.732 . S
C2729 C922 0.988 . S
C2721 C410 0.997 . S
C2753 C722 1.723 . S
C2761 C1610 1.719 . S
C2793 C1678 1.335 . S
C2785 C842 1.415 . S
C2825 C1760 0.860 . S
C2817 C794 0.865 . S
C2849 C302 1.032 . S
C2857 C1510 0.984 . S
C2881 C338 1.339 . S
C2889 C1090 1.338 . S
C2913 C830 1.742 . S
C2921 C1862 1.731 . S
C2953 C1928 0.917 . S
C2945 C758 0.897 . S
C2985 C931 2.064 . S
C2977 C158 1.930 . S
C3017 C1935 1.841 . S
C3009 C254 1.838 . S
C3041 C218 1.787 . S
C3049 C1099 1.824 . S
C3073 C194 1.431 . S
C3081 C1857 1.389 . S
C3113 C1269 1.366 . S
C3105 C3 1.456 . S
C3137 C111 1.729 . S
C3145 C1687 1.730 . S
C3177 C1431 1.851 1_556 S
C3169 C76 1.845 . S
C3209 C2023 2.121 . S
C3201 C50 2.005 . S
C3241 C927 1.675 . S
C3233 C364 1.703 . S
C3273 C1941 0.902 . S
C3265 C795 0.892 . S
C3297 C292 1.138 . S
C3305 C1095 1.122 . S
C3329 C723 1.605 . S
C3337 C1855 1.602 . S
C3361 C363 1.618 . S
C3369 C1267 1.613 . S
C3401 C1683 1.158 . S
C3393 C796 1.161 . S
C3425 C291 0.924 . S
C3433 C1437 0.907 . S
C3457 C724 1.736 . S
C3465 C2019 1.689 . S
C3489 C482 0.912 . S
C3497 C933 0.966 . S
C3521 C434 1.684 . S
C3529 C1599 1.672 . S
C3553 C662 1.361 . S
C3561 C1353 1.352 . S
C3585 C614 0.853 . S
C3593 C1771 0.844 . S
C3625 C2025 0.982 . S
C3617 C698 0.953 . S
C3649 C554 1.288 . S
C3657 C1101 1.317 . S
C3689 C1179 1.677 . S
C3681 C650 1.685 . S
C3721 C1015 0.849 . S
C3713 C506 0.856 . S
C3745 C183 2.053 . S
C3753 C2096 2.087 . S
C3785 C1946 1.863 . S
C3777 C219 1.852 . S
C3809 C256 1.785 . S
C3817 C2180 1.800 . S
C3841 C148 1.492 1_655 S
C3849 C1846 1.370 . S
C3873 C122 1.483 . S
C3881 C1594 1.398 . S
C3913 C1676 1.841 . S
C3905 C2 1.767 1_655 S
C3945 C1778 1.810 . S
C3937 C39 1.807 . S
C3977 C2012 2.121 . S
C3969 C86 2.106 . S
C4009 C2114 1.733 . S
C4001 C651 1.771 . S
C4033 C472 0.906 1_556 S
C4041 C1930 0.876 . S
C4073 C2198 1.183 . S
C4065 C507 1.165 . S
C4105 C1844 1.677 . S
C4097 C544 1.676 . S
C4137 C1592 1.640 . S
C4129 C652 1.631 . S
C4161 C471 1.173 . S
C4169 C1694 1.157 . S
C4201 C1762 0.875 . S
C4193 C508 0.932 . S
C4225 C543 1.765 . S
C4233 C2030 1.713 . S
C4265 C2098 1.011 . S
C4257 C806 1.000 . S
C4289 C326 1.692 . S
C4297 C1274 1.685 . S
C4329 C1342 1.349 . S
C4321 C374 1.349 1_565 S
C4361 C1424 0.873 . S
C4353 C398 0.877 . S
C4393 C2014 1.005 . S
C4385 C770 1.018 . S
C4417 C734 1.382 . S
C4425 C2182 1.295 . S
C4457 C1190 1.720 . S
C4449 C362 1.720 . S
C4489 C1004 0.934 . S
C4481 C290 0.953 . S
C4513 C230 1.953 . S
C4521 C2107 2.060 . S
C4553 C1011 1.851 . S
C4545 C182 1.853 . S
C4577 C146 1.783 . S
C4585 C2191 1.829 . S
C4609 C266 1.380 . S
C4617 C1185 1.358 . S
C4641 C75 1.486 . S
C4649 C1605 1.402 . S
C4681 C1351 1.885 . S
C4673 C38 1.828 . S
C4705 C4 1.772 . S
C4713 C1767 1.785 . S
C4737 C112 2.020 . S
C4745 C1519 2.026 . S
C4777 C2103 1.679 . S
C4769 C832 1.715 . S
C4801 C399 0.894 . S
C4809 C1017 0.898 . S
C4841 C2187 1.136 1_655 S
C4833 C760 1.151 . S
C4865 C327 1.599 . S
C4873 C1183 1.597 . S
C4897 C831 1.644 . S
C4905 C1603 1.641 . S
C4937 C1347 1.162 . S
C4929 C400 1.169 . S
C4961 C759 0.947 . S
C4969 C1773 0.897 . S
C5001 C1515 1.687 . S
C4993 C328 1.739 . S
C5033 C2109 0.980 . S
C5025 C626 0.933 . S
C5065 C1263 1.693 1_565 S
C5057 C542 1.697 . S
C5089 C590 1.293 . S
C5097 C1689 1.312 . S
C5129 C1435 0.859 . S
C5121 C470 0.868 . S
C5153 C518 0.979 . S
C5161 C1521 0.980 . S
C5185 C446 1.300 . S
C5193 C2193 1.308 . S
C5225 C1851 1.691 . S
C5217 C578 1.701 . S
C5257 C1939 0.831 . S
C5249 C686 0.804 . S
