# Generated by pormake.
# Topology zzz, (3,6)-cn, num edge types: 1
# Building blocks:
#     Node 0, Type 0, BuildingBlock: OLANEW_clean_sbu_2, # of connection points: 3
#     Node 1, Type 0, BuildingBlock: OLANEW_clean_sbu_2, # of connection points: 3
#     Node 2, Type 0, BuildingBlock: OLANEW_clean_sbu_2, # of connection points: 3
#     Node 3, Type 0, BuildingBlock: OLANEW_clean_sbu_2, # of connection points: 3
#     Node 4, Type 0, BuildingBlock: OLANEW_clean_sbu_2, # of connection points: 3
#     Node 5, Type 0, BuildingBlock: OLANEW_clean_sbu_2, # of connection points: 3
#     Node 6, Type 0, BuildingBlock: OLANEW_clean_sbu_2, # of connection points: 3
#     Node 7, Type 0, BuildingBlock: OLANEW_clean_sbu_2, # of connection points: 3
#     Node 8, Type 1, BuildingBlock: HISSIN_clean_sbu_0, # of connection points: 6
#     Node 9, Type 1, BuildingBlock: HISSIN_clean_sbu_0, # of connection points: 6
#     Node 10, Type 1, BuildingBlock: HISSIN_clean_sbu_0, # of connection points: 6
#     Node 11, Type 1, BuildingBlock: HISSIN_clean_sbu_0, # of connection points: 6
#     Edge 12, Type (0, 1), BuildingBlock: EZIPEK_clean_linker_0, # of connection points: 2
#     Edge 13, Type (0, 1), BuildingBlock: EZIPEK_clean_linker_0, # of connection points: 2
#     Edge 14, Type (0, 1), BuildingBlock: EZIPEK_clean_linker_0, # of connection points: 2
#     Edge 15, Type (0, 1), BuildingBlock: EZIPEK_clean_linker_0, # of connection points: 2
#     Edge 16, Type (0, 1), BuildingBlock: EZIPEK_clean_linker_0, # of connection points: 2
#     Edge 17, Type (0, 1), BuildingBlock: EZIPEK_clean_linker_0, # of connection points: 2
#     Edge 18, Type (0, 1), BuildingBlock: EZIPEK_clean_linker_0, # of connection points: 2
#     Edge 19, Type (0, 1), BuildingBlock: EZIPEK_clean_linker_0, # of connection points: 2
#     Edge 20, Type (0, 1), BuildingBlock: EZIPEK_clean_linker_0, # of connection points: 2
#     Edge 21, Type (0, 1), BuildingBlock: EZIPEK_clean_linker_0, # of connection points: 2
#     Edge 22, Type (0, 1), BuildingBlock: EZIPEK_clean_linker_0, # of connection points: 2
#     Edge 23, Type (0, 1), BuildingBlock: EZIPEK_clean_linker_0, # of connection points: 2
#     Edge 24, Type (0, 1), BuildingBlock: EZIPEK_clean_linker_0, # of connection points: 2
#     Edge 25, Type (0, 1), BuildingBlock: EZIPEK_clean_linker_0, # of connection points: 2
#     Edge 26, Type (0, 1), BuildingBlock: EZIPEK_clean_linker_0, # of connection points: 2
#     Edge 27, Type (0, 1), BuildingBlock: EZIPEK_clean_linker_0, # of connection points: 2
#     Edge 28, Type (0, 1), BuildingBlock: EZIPEK_clean_linker_0, # of connection points: 2
#     Edge 29, Type (0, 1), BuildingBlock: EZIPEK_clean_linker_0, # of connection points: 2
#     Edge 30, Type (0, 1), BuildingBlock: EZIPEK_clean_linker_0, # of connection points: 2
#     Edge 31, Type (0, 1), BuildingBlock: EZIPEK_clean_linker_0, # of connection points: 2
#     Edge 32, Type (0, 1), BuildingBlock: EZIPEK_clean_linker_0, # of connection points: 2
#     Edge 33, Type (0, 1), BuildingBlock: EZIPEK_clean_linker_0, # of connection points: 2
#     Edge 34, Type (0, 1), BuildingBlock: EZIPEK_clean_linker_0, # of connection points: 2
#     Edge 35, Type (0, 1), BuildingBlock: EZIPEK_clean_linker_0, # of connection points: 2
# Relax obj value: 0.282
# Max RMSD: 0.203
# Mean RMSD: 0.101
data_MOF--net-zzz--node1-OLANEW_clean_sbu_2--node2-HISSIN_clean_sbu_0--edge1-EZIPEK_clean_linker_0
_symmetry_space_group_name_H-M    P1
_symmetry_Int_Tables_number       1
_symmetry_cell_setting            triclinic
loop_
_symmetry_equiv_pos_as_xyz
'x, y, z'
_cell_length_a     40.731991
_cell_length_b     40.559985
_cell_length_c     14.048531
_cell_angle_alpha  89.454883
_cell_angle_beta   93.957972
_cell_angle_gamma 90.746643
loop_
_atom_site_label
_atom_site_type_symbol
_atom_site_fract_x
_atom_site_fract_y
_atom_site_fract_z
_atom_type_partial_charge
O0 O 0.75567 0.57077 0.18273 0.0
Cd1 Cd 0.71079 0.60196 0.24211 0.0
O2 O 0.74091 0.52708 0.26444 0.0
Cd3 Cd 0.75807 0.47875 0.31186 0.0
O4 O 0.80935 0.47302 0.36234 0.0
C5 C 0.81697 0.48058 0.44853 0.0
O6 O 0.79341 0.48753 0.5042 0.0
C7 C 0.75973 0.54081 0.20712 0.0
C8 C 0.65437 0.58256 0.13481 0.0
O9 O 0.67335 0.60536 0.10538 0.0
O10 O 0.66117 0.56989 0.21764 0.0
O11 O 0.92469 0.74179 0.10713 0.0
Cd12 Cd 0.8952 0.6923 0.15262 0.0
O13 O 0.96357 0.72568 0.21292 0.0
Cd14 Cd 0.01016 0.73979 0.28703 0.0
O15 O 0.0227 0.78758 0.34828 0.0
C16 C 0.00739 0.79465 0.42092 0.0
O17 O 0.98846 0.77211 0.45781 0.0
C18 C 0.95295 0.74614 0.14939 0.0
C19 C 0.92234 0.64023 0.06018 0.0
O20 O 0.89652 0.65459 0.02381 0.0
O21 O 0.93485 0.64987 0.14153 0.0
O22 O 0.78108 0.91304 0.17157 0.0
Cd23 Cd 0.82773 0.876 0.17852 0.0
O24 O 0.75905 0.89269 0.29858 0.0
Cd25 Cd 0.71882 0.89371 0.3931 0.0
O26 O 0.67351 0.90622 0.45727 0.0
C27 C 0.67482 0.92547 0.5282 0.0
O28 O 0.70352 0.93619 0.56456 0.0
C29 C 0.75838 0.91304 0.22913 0.0
C30 C 0.87047 0.89847 0.04564 0.0
O31 O 0.84767 0.87746 0.02191 0.0
O32 O 0.87357 0.90823 0.13231 0.0
O33 O 0.39126 0.79904 0.14963 0.0
Cd34 Cd 0.38992 0.85396 0.21652 0.0
O35 O 0.42845 0.7859 0.2635 0.0
Cd36 Cd 0.46099 0.74955 0.3337 0.0
O37 O 0.48122 0.70673 0.41005 0.0
C38 C 0.51133 0.70352 0.43808 0.0
O39 O 0.53266 0.72718 0.42241 0.0
C40 C 0.41089 0.77809 0.18863 0.0
C41 C 0.43038 0.89406 0.1139 0.0
O42 O 0.44173 0.88002 0.19112 0.0
O43 O 0.39999 0.88979 0.08652 0.0
O44 O 0.27337 0.55703 0.17939 0.0
Cd45 Cd 0.32216 0.54355 0.09787 0.0
O46 O 0.26835 0.50361 0.20144 0.0
Cd47 Cd 0.23474 0.4645 0.23897 0.0
O48 O 0.18737 0.46902 0.16006 0.0
C49 C 0.17037 0.44526 0.12435 0.0
O50 O 0.18004 0.4148 0.14013 0.0
C51 C 0.25791 0.5326 0.2123 0.0
C52 C 0.36981 0.52279 0.23503 0.0
O53 O 0.36649 0.55331 0.21247 0.0
O54 O 0.35124 0.50152 0.19012 0.0
O55 O 0.07584 0.24094 0.30978 0.0
Cd56 Cd 0.10471 0.29243 0.28411 0.0
O57 O 0.04731 0.24946 0.17348 0.0
Cd58 Cd 0.01065 0.22885 0.07039 0.0
O59 O 0.99725 0.1829 0.99911 0.0
C60 C 0.02125 0.16831 0.96555 0.0
O61 O 0.05056 0.18236 0.97293 0.0
C62 C 0.05318 0.23218 0.24843 0.0
C63 C 0.08036 0.33777 0.40605 0.0
O64 O 0.06606 0.33292 0.32321 0.0
O65 O 0.10663 0.32189 0.43059 0.0
O66 O 0.23933 0.11597 0.275 0.0
Cd67 Cd 0.18194 0.13015 0.24141 0.0
O68 O 0.25072 0.12731 0.12746 0.0
Cd69 Cd 0.28554 0.12532 0.01697 0.0
O70 O 0.32734 0.10945 0.94176 0.0
C71 C 0.35109 0.12859 0.9237 0.0
O72 O 0.35033 0.15982 0.94718 0.0
C73 C 0.25949 0.11611 0.21001 0.0
C74 C 0.14424 0.09018 0.35548 0.0
O75 O 0.15598 0.07904 0.28007 0.0
O76 O 0.14994 0.1205 0.37645 0.0
O77 O 0.63099 0.24298 0.24898 0.0
Cd78 Cd 0.62196 0.18819 0.18398 0.0
O79 O 0.58578 0.25274 0.16063 0.0
Cd80 Cd 0.5473 0.28569 0.10529 0.0
O81 O 0.52919 0.32919 0.02884 0.0
C82 C 0.50405 0.32984 0.97017 0.0
O83 O 0.48582 0.30316 0.95584 0.0
C84 C 0.60805 0.26254 0.22206 0.0
C85 C 0.5896 0.15296 0.32062 0.0
O86 O 0.62052 0.14951 0.31252 0.0
O87 O 0.57375 0.17232 0.26196 0.0
Eu88 Eu 0.9813 -0.00031 0.60629 0.0
Eu89 Eu 0.03721 0.96823 0.76715 0.0
C90 C 0.0112 0.04124 0.7822 0.0
C91 C 0.94876 0.06215 0.43342 0.0
C92 C 0.95358 0.09161 0.48502 0.0
C93 C 0.97005 0.08956 0.29505 0.0
C94 C 0.96757 0.11925 0.44319 0.0
C95 C 0.95598 0.06181 0.33688 0.0
C96 C 0.97691 0.11799 0.34921 0.0
C97 C 0.94205 0.03078 0.48358 0.0
O98 O 0.99021 0.9419 0.7932 0.0
O99 O 0.9525 0.97828 0.72483 0.0
C100 C 0.96037 0.95351 0.78283 0.0
O101 O 0.98581 0.94763 0.55712 0.0
O102 O 0.0532 0.96343 0.91808 0.0
O103 O 0.08062 0.9394 0.81255 0.0
O104 O 0.02907 0.9286 0.6571 0.0
C105 C 0.00699 0.92482 0.58515 0.0
O106 O 0.02991 0.0106 0.54735 0.0
O107 O 0.06768 0.0006 0.67448 0.0
O108 O 0.01574 0.01347 0.82895 0.0
O109 O 0.95991 0.00597 0.46064 0.0
O110 O 0.93965 0.03237 0.57572 0.0
O111 O 0.00522 0.04163 0.68957 0.0
C112 C 0.06564 0.90821 0.9461 0.0
C113 C 0.04896 0.88401 0.88954 0.0
C114 C 0.05261 0.87735 0.0883 0.0
C115 C 0.03364 0.85729 0.93176 0.0
C116 C 0.06793 0.90435 0.04582 0.0
C117 C 0.03461 0.85424 0.03123 0.0
C118 C 0.07377 0.94011 0.90206 0.0
C119 C 0.05983 0.01232 0.58822 0.0
H120 H 0.9483 0.09288 0.55936 0.0
H121 H 0.97699 0.08837 0.2221 0.0
H122 H 0.97254 0.14116 0.4856 0.0
H123 H 0.95255 0.03948 0.29548 0.0
H124 H 0.0461 0.88665 0.81263 0.0
H125 H 0.05358 0.8752 0.16535 0.0
H126 H 0.01985 0.83965 0.88684 0.0
H127 H 0.08 0.92307 0.09076 0.0
Eu128 Eu 0.53996 0.04153 0.81772 0.0
Eu129 Eu 0.48821 0.01008 0.64728 0.0
C130 C 0.49706 0.97756 0.85639 0.0
C131 C 0.60956 0.04283 0.00464 0.0
C132 C 0.62556 0.01788 0.95767 0.0
C133 C 0.64145 0.02887 0.15189 0.0
C134 C 0.6493 0.9987 0.00712 0.0
C135 C 0.61765 0.04827 0.10205 0.0
C136 C 0.65732 0.00396 0.10443 0.0
C137 C 0.58253 0.0609 0.95375 0.0
O138 O 0.46404 0.05585 0.69689 0.0
O139 O 0.48963 0.05905 0.84772 0.0
C140 C 0.465 0.06587 0.78567 0.0
O141 O 0.53328 0.0813 0.70522 0.0
O142 O 0.44007 0.98984 0.59896 0.0
O143 O 0.47783 0.99539 0.49897 0.0
O144 O 0.52157 0.04656 0.57948 0.0
C145 C 0.53227 0.07498 0.61356 0.0
O146 O 0.56977 0.01257 0.71916 0.0
O147 O 0.53066 0.97506 0.66176 0.0
O148 O 0.47623 0.98547 0.7848 0.0
O149 O 0.58579 0.06696 0.8635 0.0
O150 O 0.5531 0.05007 0.96903 0.0
O151 O 0.52686 0.99022 0.86587 0.0
C152 C 0.42273 0.00687 0.44324 0.0
C153 C 0.43225 0.03369 0.38651 0.0
C154 C 0.36557 0.01708 0.39216 0.0
C155 C 0.40849 0.05253 0.33494 0.0
C156 C 0.38927 0.99823 0.44343 0.0
C157 C 0.37498 0.0448 0.33973 0.0
C158 C 0.44669 0.98977 0.5095 0.0
C159 C 0.56144 0.98484 0.67606 0.0
H160 H 0.61932 0.01285 0.88297 0.0
H161 H 0.64727 0.03301 0.22727 0.0
H162 H 0.66122 0.97944 0.96972 0.0
H163 H 0.60518 0.06705 0.13974 0.0
H164 H 0.4579 0.0408 0.38447 0.0
H165 H 0.33977 0.01075 0.39609 0.0
H166 H 0.4161 0.07376 0.2942 0.0
H167 H 0.38137 0.97764 0.48633 0.0
Eu168 Eu 0.47691 0.53401 0.76628 0.0
Eu169 Eu 0.53978 0.50366 0.65058 0.0
C170 C 0.55293 0.5381 0.8556 0.0
C171 C 0.42599 0.59226 0.90658 0.0
C172 C 0.43565 0.62222 0.86528 0.0
C173 C 0.41003 0.62196 0.04512 0.0
C174 C 0.43248 0.65182 0.91353 0.0
C175 C 0.41278 0.59241 0.99617 0.0
C176 C 0.41991 0.65185 0.00408 0.0
C177 C 0.43068 0.56063 0.85924 0.0
O178 O 0.51606 0.45896 0.71394 0.0
O179 O 0.48007 0.48143 0.81502 0.0
C180 C 0.49609 0.45643 0.78335 0.0
O181 O 0.45214 0.50839 0.63961 0.0
O182 O 0.58369 0.47379 0.64456 0.0
O183 O 0.56542 0.50096 0.51934 0.0
O184 O 0.49588 0.50523 0.54464 0.0
C185 C 0.46415 0.50524 0.55592 0.0
O186 O 0.49103 0.57226 0.65975 0.0
O187 O 0.54523 0.5592 0.64674 0.0
O188 O 0.56237 0.51614 0.79568 0.0
O189 O 0.43117 0.5613 0.76651 0.0
O190 O 0.45341 0.54175 0.89931 0.0
O191 O 0.52366 0.55163 0.84746 0.0
C192 C 0.58874 0.44913 0.49612 0.0
C193 C 0.56249 0.42635 0.48704 0.0
C194 C 0.6213 0.41334 0.4032 0.0
C195 C 0.56578 0.39705 0.43723 0.0
C196 C 0.61801 0.44268 0.45311 0.0
C197 C 0.59533 0.39022 0.39596 0.0
C198 C 0.5861 0.4789 0.5536 0.0
C199 C 0.52065 0.57985 0.63493 0.0
H200 H 0.44579 0.62274 0.79606 0.0
H201 H 0.40023 0.62156 0.11489 0.0
H202 H 0.44018 0.67469 0.88081 0.0
H203 H 0.40484 0.56959 0.02841 0.0
H204 H 0.53973 0.43097 0.52005 0.0
H205 H 0.64431 0.40832 0.3721 0.0
H206 H 0.54558 0.37936 0.43257 0.0
H207 H 0.63848 0.46001 0.45964 0.0
Eu208 Eu 0.02237 0.51232 0.68273 0.0
Eu209 Eu 0.9825 0.45899 0.81553 0.0
C210 C 0.05808 0.47651 0.86631 0.0
C211 C 0.08321 0.54987 0.51693 0.0
C212 C 0.10292 0.57783 0.50241 0.0
C213 C 0.11944 0.51726 0.42587 0.0
C214 C 0.13081 0.57552 0.45021 0.0
C215 C 0.09157 0.51957 0.47803 0.0
C216 C 0.13924 0.54521 0.4119 0.0
C217 C 0.0546 0.55242 0.57471 0.0
O218 O 0.96202 0.50933 0.83829 0.0
O219 O 0.00701 0.54111 0.8074 0.0
C220 C 0.97908 0.53687 0.84693 0.0
O221 O 0.96817 0.51583 0.63601 0.0
O222 O 0.97226 0.44112 0.9577 0.0
O223 O 0.94462 0.42121 0.83426 0.0
O224 O 0.95395 0.46284 0.67445 0.0
C225 C 0.94789 0.49038 0.6279 0.0
O226 O 0.0241 0.46346 0.61016 0.0
O227 O 0.01648 0.4274 0.73523 0.0
O228 O 0.02932 0.47178 0.90042 0.0
O229 O 0.02828 0.53586 0.54481 0.0
O230 O 0.06062 0.54991 0.66685 0.0
O231 O 0.06113 0.48617 0.77776 0.0
C232 C 0.91546 0.43621 0.96638 0.0
C233 C 0.89708 0.46127 0.91893 0.0
C234 C 0.88109 0.44037 0.10053 0.0
C235 C 0.87123 0.47597 0.96213 0.0
C236 C 0.90715 0.42564 0.05718 0.0
C237 C 0.86337 0.46599 0.05365 0.0
C238 C 0.94587 0.42503 0.92659 0.0
C239 C 0.02621 0.434 0.64932 0.0
H240 H 0.09689 0.60136 0.53217 0.0
H241 H 0.12587 0.49361 0.39779 0.0
H242 H 0.14598 0.59726 0.4404 0.0
H243 H 0.0767 0.49769 0.48864 0.0
H244 H 0.90341 0.47029 0.84959 0.0
H245 H 0.87528 0.43244 0.17135 0.0
H246 H 0.85781 0.4957 0.9251 0.0
H247 H 0.92143 0.40681 0.09561 0.0
C248 C 0.12891 0.07045 0.51773 0.0
C249 C 0.12451 0.06857 0.41664 0.0
C250 C 0.08525 0.02311 0.43373 0.0
C251 C 0.08498 0.02935 0.53294 0.0
N252 N 0.10212 0.06507 0.66505 0.0
N253 N 0.09158 0.04777 0.2793 0.0
C254 C 0.1057 0.0546 0.57427 0.0
C255 C 0.1009 0.04605 0.37454 0.0
N256 N 0.15571 0.08637 0.56037 0.0
N257 N 0.07095 0.99509 0.39584 0.0
H258 H 0.10007 0.06599 0.23402 0.0
H259 H 0.07223 0.03367 0.24798 0.0
H260 H 0.06048 0.97691 0.43759 0.0
H261 H 0.07295 0.98829 0.3251 0.0
H262 H 0.16118 0.08588 0.63398 0.0
H263 H 0.17448 0.09652 0.52214 0.0
H264 H 0.11469 0.0856 0.69402 0.0
H265 H 0.08414 0.05584 0.70758 0.0
C266 C 0.54219 0.11969 0.3805 0.0
C267 C 0.57307 0.13595 0.39856 0.0
C268 C 0.5771 0.11312 0.56069 0.0
C269 C 0.54501 0.09926 0.54533 0.0
N270 N 0.49348 0.09809 0.44968 0.0
N271 N 0.61397 0.15685 0.51664 0.0
C272 C 0.52638 0.10542 0.45808 0.0
C273 C 0.58869 0.13544 0.49209 0.0
N274 N 0.52878 0.11595 0.28933 0.0
N275 N 0.59751 0.10353 0.63687 0.0
H276 H 0.62199 0.17501 0.47024 0.0
H277 H 0.62416 0.15913 0.58645 0.0
H278 H 0.59107 0.08563 0.68592 0.0
H279 H 0.62219 0.11075 0.64508 0.0
H280 H 0.50786 0.10148 0.27274 0.0
H281 H 0.54034 0.12413 0.22944 0.0
H282 H 0.47824 0.10476 0.39014 0.0
H283 H 0.48087 0.08867 0.50637 0.0
C284 C 0.427 0.52686 0.30786 0.0
C285 C 0.3951 0.51295 0.31046 0.0
C286 C 0.41175 0.4868 0.4641 0.0
C287 C 0.44113 0.50613 0.46922 0.0
N288 N 0.47184 0.55154 0.40258 0.0
N289 N 0.35531 0.48277 0.39886 0.0
C290 C 0.44768 0.5279 0.3926 0.0
C291 C 0.38693 0.49341 0.39025 0.0
N292 N 0.43769 0.53897 0.22424 0.0
N293 N 0.40775 0.46183 0.52831 0.0
H294 H 0.33608 0.48772 0.34818 0.0
H295 H 0.3476 0.47153 0.46064 0.0
H296 H 0.42583 0.4557 0.58148 0.0
H297 H 0.38807 0.44513 0.52238 0.0
H298 H 0.46183 0.54709 0.21752 0.0
H299 H 0.4236 0.537 0.15967 0.0
H300 H 0.47532 0.56962 0.35085 0.0
H301 H 0.48544 0.55599 0.4666 0.0
C302 C 0.08413 0.39166 0.49036 0.0
C303 C 0.06705 0.36158 0.47154 0.0
C304 C 0.02251 0.37899 0.56787 0.0
C305 C 0.04091 0.40792 0.59331 0.0
N306 N 0.09191 0.43922 0.59174 0.0
N307 N 0.02295 0.32373 0.5036 0.0
C308 C 0.07251 0.41351 0.55829 0.0
C309 C 0.0371 0.35436 0.51371 0.0
N310 N 0.11069 0.40004 0.44024 0.0
N311 N 0.99049 0.37583 0.59048 0.0
H312 H 0.03277 0.30517 0.46364 0.0
H313 H 0.00309 0.31582 0.54118 0.0
H314 H 0.9786 0.39356 0.62833 0.0
H315 H 0.97477 0.35705 0.56445 0.0
H316 H 0.12162 0.42341 0.44204 0.0
H317 H 0.12013 0.38459 0.39013 0.0
H318 H 0.11652 0.44218 0.57741 0.0
H319 H 0.08443 0.45623 0.6405 0.0
C320 C 0.89335 0.94672 0.95858 0.0
C321 C 0.89206 0.91214 0.97401 0.0
C322 C 0.93151 0.90446 0.85221 0.0
C323 C 0.93561 0.9393 0.84492 0.0
N324 N 0.92604 0.99316 0.90986 0.0
N325 N 0.91338 0.85811 0.94619 0.0
C326 C 0.91795 0.96039 0.90278 0.0
C327 C 0.91194 0.89094 0.92334 0.0
N328 N 0.87048 0.96655 0.99501 0.0
N329 N 0.94572 0.88422 0.79003 0.0
H330 H 0.8998 0.84727 0.9987 0.0
H331 H 0.93039 0.84218 0.91995 0.0
H332 H 0.9607 0.89284 0.73793 0.0
H333 H 0.94049 0.85907 0.7847 0.0
H334 H 0.86824 0.99148 0.97744 0.0
H335 H 0.85157 0.95748 0.03476 0.0
H336 H 0.91624 0.00871 0.95894 0.0
H337 H 0.94511 0.0042 0.87483 0.0
C338 C 0.46311 0.90037 0.97117 0.0
C339 C 0.45197 0.91405 0.05547 0.0
C340 C 0.47845 0.96688 0.02025 0.0
C341 C 0.48565 0.95454 0.92972 0.0
N342 N 0.48537 0.91004 0.81729 0.0
N343 N 0.44718 0.96013 0.16032 0.0
C344 C 0.47832 0.9213 0.90496 0.0
C345 C 0.45955 0.94713 0.08087 0.0
N346 N 0.45967 0.86721 0.95572 0.0
N347 N 0.48934 0.99758 0.04782 0.0
H348 H 0.43396 0.94613 0.20765 0.0
H349 H 0.44814 0.98512 0.17666 0.0
H350 H 0.50158 0.01356 0.00353 0.0
H351 H 0.48815 0.00657 0.11663 0.0
H352 H 0.47 0.85497 0.90052 0.0
H353 H 0.44858 0.85125 0.00297 0.0
H354 H 0.47707 0.88748 0.78965 0.0
H355 H 0.49858 0.92399 0.76985 0.0
C356 C 0.62174 0.53637 0.05292 0.0
C357 C 0.62605 0.57057 0.07211 0.0
C358 C 0.58431 0.58337 0.9444 0.0
C359 C 0.57727 0.54927 0.93241 0.0
N360 N 0.58479 0.49341 0.99077 0.0
N361 N 0.60486 0.62575 0.05327 0.0
C362 C 0.59453 0.52577 0.99169 0.0
C363 C 0.60516 0.5938 0.02348 0.0
N364 N 0.64462 0.51411 0.08745 0.0
N365 N 0.57332 0.60567 0.87655 0.0
H366 H 0.61897 0.63405 0.11333 0.0
H367 H 0.58793 0.64287 0.02475 0.0
H368 H 0.56124 0.59852 0.81224 0.0
H369 H 0.58008 0.63055 0.8785 0.0
H370 H 0.64422 0.4895 0.06672 0.0
H371 H 0.66589 0.52064 0.1287 0.0
H372 H 0.59435 0.47606 0.04003 0.0
H373 H 0.56506 0.48453 0.94688 0.0
C374 C 0.94463 0.58288 0.05092 0.0
C375 C 0.93813 0.61406 0.00724 0.0
C376 C 0.95791 0.59435 0.85737 0.0
C377 C 0.96615 0.56389 0.9026 0.0
N378 N 0.97411 0.53136 0.04676 0.0
N379 N 0.94661 0.65215 0.87768 0.0
C380 C 0.96153 0.55879 0.00085 0.0
C381 C 0.947 0.62058 0.91284 0.0
N382 N 0.93356 0.57581 0.13857 0.0
N383 N 0.95939 0.59797 0.76089 0.0
H384 H 0.94005 0.67237 0.91723 0.0
H385 H 0.95612 0.6588 0.81318 0.0
H386 H 0.96757 0.57953 0.71743 0.0
H387 H 0.94989 0.61825 0.72273 0.0
H388 H 0.93573 0.55278 0.17132 0.0
H389 H 0.91979 0.59217 0.17588 0.0
H390 H 0.97468 0.52785 0.12034 0.0
H391 H 0.98691 0.51335 0.01251 0.0
C392 C 0.04888 0.17123 0.27693 0.0
C393 C 0.03325 0.20216 0.26498 0.0
C394 C 0.97974 0.17568 0.28571 0.0
C395 C 0.99597 0.1459 0.31096 0.0
N396 N 0.04647 0.11592 0.34225 0.0
N397 N 0.98434 0.23501 0.27111 0.0
C398 C 0.03068 0.1437 0.30911 0.0
C399 C 0.99874 0.20472 0.27204 0.0
N400 N 0.08085 0.16794 0.25497 0.0
N401 N 0.94615 0.1761 0.27413 0.0
H402 H 0.99737 0.25705 0.2633 0.0
H403 H 0.96 0.23853 0.28654 0.0
H404 H 0.93156 0.15517 0.284 0.0
H405 H 0.933 0.19625 0.24627 0.0
H406 H 0.09245 0.14525 0.25263 0.0
H407 H 0.0948 0.18751 0.22983 0.0
H408 H 0.07193 0.11468 0.35395 0.0
H409 H 0.03416 0.09494 0.36545 0.0
C410 C 0.30083 0.07213 0.18318 0.0
C411 C 0.29237 0.10139 0.23033 0.0
C412 C 0.34066 0.0957 0.34296 0.0
C413 C 0.34923 0.06666 0.29529 0.0
N414 N 0.34276 0.0318 0.15751 0.0
N415 N 0.30828 0.14555 0.33783 0.0
C416 C 0.33104 0.05646 0.21095 0.0
C417 C 0.31367 0.11463 0.30478 0.0
N418 N 0.27911 0.05807 0.11641 0.0
N419 N 0.35726 0.10432 0.42719 0.0
H420 H 0.28889 0.16013 0.31029 0.0
H421 H 0.32468 0.15794 0.38557 0.0
H422 H 0.37751 0.09145 0.45694 0.0
H423 H 0.34964 0.12289 0.47105 0.0
H424 H 0.28228 0.0348 0.08802 0.0
H425 H 0.25657 0.06845 0.0942 0.0
H426 H 0.33248 0.02552 0.09009 0.0
H427 H 0.36478 0.01979 0.17658 0.0
C428 C 0.60472 0.32437 0.20793 0.0
C429 C 0.60612 0.2955 0.26601 0.0
C430 C 0.6048 0.32942 0.40917 0.0
C431 C 0.59975 0.35781 0.3506 0.0
N432 N 0.58988 0.38203 0.194 0.0
N433 N 0.6007 0.27002 0.42058 0.0
C434 C 0.59832 0.35524 0.24976 0.0
C435 C 0.60444 0.29785 0.3664 0.0
N436 N 0.61068 0.32248 0.1136 0.0
N437 N 0.6106 0.33264 0.5057 0.0
H438 H 0.59924 0.24634 0.39226 0.0
H439 H 0.59572 0.27057 0.49228 0.0
H440 H 0.61093 0.35536 0.53998 0.0
H441 H 0.61803 0.31317 0.55068 0.0
H442 H 0.61321 0.3431 0.06987 0.0
H443 H 0.61599 0.30037 0.08091 0.0
H444 H 0.58476 0.38074 0.12044 0.0
H445 H 0.58535 0.4051 0.22221 0.0
C446 C 0.22908 0.53309 0.36343 0.0
C447 C 0.22769 0.53748 0.26293 0.0
C448 C 0.1687 0.54925 0.26071 0.0
C449 C 0.16966 0.54251 0.36021 0.0
N450 N 0.19929 0.5244 0.50544 0.0
N451 N 0.19618 0.5456 0.11322 0.0
C452 C 0.19947 0.53339 0.41136 0.0
C453 C 0.19752 0.54465 0.21075 0.0
N454 N 0.25892 0.52965 0.4133 0.0
N455 N 0.14029 0.5604 0.21439 0.0
H456 H 0.2169 0.54281 0.07449 0.0
H457 H 0.17435 0.5467 0.07028 0.0
H458 H 0.11839 0.56281 0.24793 0.0
H459 H 0.13877 0.56913 0.14435 0.0
H460 H 0.26212 0.52994 0.48743 0.0
H461 H 0.28114 0.52912 0.38058 0.0
H462 H 0.21923 0.51373 0.54392 0.0
H463 H 0.17837 0.52549 0.54405 0.0
C464 C 0.00484 0.76794 0.08554 0.0
C465 C 0.97414 0.77433 0.12349 0.0
C466 C 0.98396 0.83389 0.10734 0.0
C467 C 0.01531 0.8273 0.07373 0.0
N468 N 0.05866 0.78906 0.05057 0.0
N469 N 0.93638 0.81278 0.18484 0.0
C470 C 0.0267 0.79458 0.06922 0.0
C471 C 0.96423 0.80719 0.1387 0.0
N472 N 0.01241 0.73657 0.06049 0.0
N473 N 0.97268 0.86553 0.10627 0.0
H474 H 0.92143 0.79381 0.20877 0.0
H475 H 0.92933 0.83597 0.20636 0.0
H476 H 0.98646 0.88569 0.08427 0.0
H477 H 0.94897 0.87185 0.12175 0.0
H478 H 0.03275 0.73096 0.02292 0.0
H479 H 0.99682 0.71633 0.06927 0.0
H480 H 0.06948 0.76594 0.05609 0.0
H481 H 0.07534 0.80814 0.03842 0.0
C482 C 0.73912 0.97119 0.21039 0.0
C483 C 0.73132 0.93701 0.21403 0.0
C484 C 0.67316 0.94932 0.17557 0.0
C485 C 0.68199 0.98243 0.15547 0.0
N486 N 0.72352 0.02513 0.14832 0.0
N487 N 0.6912 0.89284 0.19123 0.0
C488 C 0.71497 0.99359 0.17246 0.0
C489 C 0.69831 0.92585 0.19571 0.0
N490 N 0.76943 0.98225 0.245 0.0
N491 N 0.64067 0.94043 0.17541 0.0
H492 H 0.70889 0.87469 0.20387 0.0
H493 H 0.66823 0.88338 0.16745 0.0
H494 H 0.62172 0.9572 0.1609 0.0
H495 H 0.63262 0.91747 0.19888 0.0
H496 H 0.77555 0.00714 0.2527 0.0
H497 H 0.78747 0.96651 0.27494 0.0
H498 H 0.7478 0.03348 0.14815 0.0
H499 H 0.7064 0.04248 0.12232 0.0
C500 C 0.38453 0.72547 0.12699 0.0
C501 C 0.41339 0.74494 0.14628 0.0
C502 C 0.44671 0.70063 0.08755 0.0
C503 C 0.41754 0.68331 0.05619 0.0
N504 N 0.35827 0.68185 0.03189 0.0
N505 N 0.47144 0.75364 0.1271 0.0
C506 C 0.38627 0.6964 0.07211 0.0
C507 C 0.44443 0.73321 0.12208 0.0
N508 N 0.35569 0.73405 0.16395 0.0
N509 N 0.47657 0.68568 0.08651 0.0
H510 H 0.47076 0.77812 0.14876 0.0
H511 H 0.49379 0.74728 0.10084 0.0
H512 H 0.47921 0.66161 0.06296 0.0
H513 H 0.49823 0.69596 0.11781 0.0
H514 H 0.33476 0.71895 0.16005 0.0
H515 H 0.35364 0.7546 0.2071 0.0
H516 H 0.33511 0.69241 0.03278 0.0
H517 H 0.35846 0.66077 0.99005 0.0
C518 C 0.7785 0.49728 0.09932 0.0
C519 C 0.78651 0.52158 0.16943 0.0
C520 C 0.84506 0.5083 0.16801 0.0
C521 C 0.83686 0.48327 0.10004 0.0
N522 N 0.79598 0.44944 0.01447 0.0
N523 N 0.82598 0.54746 0.28135 0.0
C524 C 0.80358 0.47643 0.06972 0.0
C525 C 0.81945 0.52636 0.20685 0.0
N526 N 0.74705 0.49494 0.05866 0.0
N527 N 0.87739 0.51533 0.19335 0.0
H528 H 0.80785 0.56145 0.31017 0.0
H529 H 0.84873 0.54955 0.31938 0.0
H530 H 0.89678 0.50233 0.16755 0.0
H531 H 0.88526 0.53506 0.23614 0.0
H532 H 0.74031 0.48031 0.99987 0.0
H533 H 0.72794 0.50964 0.07888 0.0
H534 H 0.77205 0.44098 0.99801 0.0
H535 H 0.81381 0.43366 0.99161 0.0
C536 C 0.03874 0.10959 0.95503 0.0
C537 C 0.01698 0.13508 0.92336 0.0
C538 C 0.98734 0.09632 0.81525 0.0
C539 C 0.01252 0.07283 0.83457 0.0
N540 N 0.0659 0.05995 0.91175 0.0
N541 N 0.9737 0.15411 0.81031 0.0
C542 C 0.03924 0.08011 0.90175 0.0
C543 C 0.99201 0.12887 0.85003 0.0
N544 N 0.05813 0.11295 0.03783 0.0
N545 N 0.95837 0.08726 0.7672 0.0
H546 H 0.97696 0.17858 0.83125 0.0
H547 H 0.95758 0.15116 0.74998 0.0
H548 H 0.95318 0.06309 0.74584 0.0
H549 H 0.93817 0.10278 0.75863 0.0
H550 H 0.07206 0.09374 0.06854 0.0
H551 H 0.05736 0.13355 0.08141 0.0
H552 H 0.08729 0.06616 0.95303 0.0
H553 H 0.06823 0.03878 0.87147 0.0
C554 C 0.39686 0.08844 0.9428 0.0
C555 C 0.38133 0.11439 0.8895 0.0
C556 C 0.42335 0.1115 0.77296 0.0
C557 C 0.43606 0.08274 0.81992 0.0
N558 N 0.42891 0.03918 0.93584 0.0
N559 N 0.37678 0.14792 0.74649 0.0
C560 C 0.42122 0.06992 0.90124 0.0
C561 C 0.39377 0.12531 0.80251 0.0
N562 N 0.38913 0.08204 0.0344 0.0
N563 N 0.44005 0.12627 0.70266 0.0
H564 H 0.35506 0.15855 0.7658 0.0
H565 H 0.38272 0.15405 0.67753 0.0
H566 H 0.46214 0.11729 0.68055 0.0
H567 H 0.43364 0.14904 0.67248 0.0
H568 H 0.40221 0.06549 0.07929 0.0
H569 H 0.37216 0.09583 0.06901 0.0
H570 H 0.41647 0.02759 0.98954 0.0
H571 H 0.44491 0.02369 0.90349 0.0
C572 C 0.49365 0.38998 0.97664 0.0
C573 C 0.49549 0.36128 0.92091 0.0
C574 C 0.488 0.39499 0.77564 0.0
C575 C 0.49277 0.42391 0.83133 0.0
N576 N 0.50542 0.44816 0.98742 0.0
N577 N 0.49799 0.33652 0.76571 0.0
C578 C 0.49662 0.42134 0.93269 0.0
C579 C 0.49323 0.36365 0.81979 0.0
N580 N 0.48878 0.38728 0.07173 0.0
N581 N 0.47781 0.3974 0.68113 0.0
H582 H 0.50236 0.31312 0.79474 0.0
H583 H 0.50035 0.33778 0.69238 0.0
H584 H 0.47267 0.41991 0.64719 0.0
H585 H 0.47107 0.37701 0.6393 0.0
H586 H 0.48412 0.40747 0.11388 0.0
H587 H 0.48574 0.36458 0.10582 0.0
H588 H 0.51223 0.44639 0.06016 0.0
H589 H 0.50932 0.47167 0.96 0.0
C590 C 0.11693 0.4743 0.08763 0.0
C591 C 0.14135 0.4526 0.05861 0.0
C592 C 0.10992 0.44478 0.90563 0.0
C593 C 0.08764 0.4694 0.9301 0.0
N594 N 0.07353 0.51223 0.03768 0.0
N595 N 0.16505 0.42377 0.93033 0.0
C596 C 0.09219 0.48555 0.01927 0.0
C597 C 0.13903 0.43967 0.96484 0.0
N598 N 0.11652 0.48309 0.18121 0.0
N599 N 0.10259 0.42499 0.82883 0.0
H600 H 0.18745 0.42057 0.96959 0.0
H601 H 0.16557 0.41693 0.85913 0.0
H602 H 0.08063 0.42665 0.78684 0.0
H603 H 0.11656 0.40461 0.81348 0.0
H604 H 0.09741 0.49621 0.20796 0.0
H605 H 0.1336 0.47448 0.23405 0.0
H606 H 0.07805 0.52693 0.0977 0.0
H607 H 0.05561 0.52165 0.9885 0.0
C608 C 0.97694 0.845 0.46381 0.0
C609 C 0.00737 0.82893 0.45612 0.0
C610 C 0.03665 0.87921 0.50928 0.0
C611 C 0.00643 0.89299 0.53351 0.0
N612 N 0.94746 0.88633 0.54432 0.0
N613 N 0.06655 0.8293 0.48377 0.0
C614 C 0.9764 0.87532 0.51309 0.0
C615 C 0.03739 0.84567 0.48171 0.0
N616 N 0.94857 0.83196 0.42109 0.0
N617 N 0.06443 0.89847 0.50892 0.0
H618 H 0.06818 0.8045 0.46607 0.0
H619 H 0.08872 0.8395 0.51177 0.0
H620 H 0.06461 0.92359 0.52397 0.0
H621 H 0.08629 0.89042 0.48308 0.0
H622 H 0.92638 0.84458 0.41544 0.0
H623 H 0.94787 0.8102 0.38213 0.0
H624 H 0.92593 0.87209 0.54115 0.0
H625 H 0.94525 0.90812 0.58157 0.0
C626 C 0.63743 0.93221 0.66097 0.0
C627 C 0.64417 0.93808 0.56444 0.0
C628 C 0.59254 0.96824 0.53749 0.0
C629 C 0.5878 0.96566 0.63642 0.0
N630 N 0.6062 0.94733 0.79463 0.0
N631 N 0.63105 0.96587 0.41395 0.0
C632 C 0.61038 0.94819 0.69888 0.0
C633 C 0.62233 0.95691 0.50305 0.0
N634 N 0.65625 0.91051 0.71534 0.0
N635 N 0.56872 0.98184 0.47649 0.0
H636 H 0.65308 0.95897 0.38663 0.0
H637 H 0.61798 0.98264 0.36998 0.0
H638 H 0.54712 0.99164 0.49924 0.0
H639 H 0.56908 0.98102 0.4025 0.0
H640 H 0.65071 0.90261 0.78315 0.0
H641 H 0.67604 0.89811 0.6895 0.0
H642 H 0.62388 0.93866 0.84551 0.0
H643 H 0.58561 0.95702 0.82407 0.0
C644 C 0.50974 0.67122 0.58959 0.0
C645 C 0.52108 0.67443 0.49686 0.0
C646 C 0.5376 0.61657 0.49996 0.0
C647 C 0.52555 0.61303 0.59236 0.0
N648 N 0.50773 0.63862 0.73429 0.0
N649 N 0.55303 0.65363 0.37324 0.0
C650 C 0.51408 0.64095 0.64011 0.0
C651 C 0.5377 0.64827 0.45565 0.0
N652 N 0.49384 0.69688 0.6281 0.0
N653 N 0.54648 0.58945 0.45115 0.0
H654 H 0.55261 0.6763 0.33757 0.0
H655 H 0.5685 0.63662 0.34475 0.0
H656 H 0.54644 0.56564 0.4793 0.0
H657 H 0.55139 0.58999 0.37941 0.0
H658 H 0.48087 0.69477 0.68922 0.0
H659 H 0.49232 0.7202 0.59619 0.0
H660 H 0.50302 0.65884 0.77613 0.0
H661 H 0.5096 0.61671 0.7734 0.0
C662 C 0.8757 0.46091 0.46791 0.0
C663 C 0.85196 0.4853 0.48324 0.0
C664 C 0.89252 0.51566 0.58661 0.0
C665 C 0.9166 0.49208 0.56798 0.0
N666 N 0.93364 0.44787 0.46986 0.0
N667 N 0.84152 0.54121 0.53026 0.0
C668 C 0.90898 0.46656 0.50139 0.0
C669 C 0.86153 0.51438 0.53414 0.0
N670 N 0.86634 0.43151 0.427 0.0
N671 N 0.89819 0.53803 0.65815 0.0
H672 H 0.81926 0.54196 0.48897 0.0
H673 H 0.84884 0.56398 0.5589 0.0
H674 H 0.92018 0.53951 0.70029 0.0
H675 H 0.87991 0.55315 0.68133 0.0
H676 H 0.88221 0.41169 0.42335 0.0
H677 H 0.84206 0.42557 0.40503 0.0
H678 H 0.92996 0.43093 0.41474 0.0
H679 H 0.95837 0.45185 0.49189 0.0
loop_
_geom_bond_atom_site_label_1
_geom_bond_atom_site_label_2
_geom_bond_distance
_geom_bond_site_symmetry_2
_ccdc_geom_bond_type
O0 Cd1 2.300 . S
O0 C7 1.275 . S
Cd1 O0 2.300 . S
Cd1 O9 2.381 . S
Cd1 O10 2.378 . S
O2 Cd3 2.385 . S
O2 C7 1.255 . S
Cd3 O2 2.385 . S
Cd3 O4 2.317 . S
O4 Cd3 2.317 . S
O4 C5 1.232 . S
C5 O4 1.232 . S
C5 O6 1.218 . S
O6 C5 1.218 . S
C7 O0 1.275 . S
C7 O2 1.255 . S
C8 O9 1.258 . S
C8 O10 1.256 . S
O9 Cd1 2.381 . S
O9 C8 1.258 . S
O10 Cd1 2.378 . S
O10 C8 1.256 . S
O11 Cd12 2.300 . S
O11 C18 1.275 . S
Cd12 O11 2.300 . S
Cd12 O20 2.381 . S
Cd12 O21 2.378 . S
O13 Cd14 2.385 1_655 S
O13 C18 1.255 . S
Cd14 O13 2.385 1_455 S
Cd14 O15 2.317 1_455 S
O15 Cd14 2.317 1_655 S
O15 C16 1.232 . S
C16 O15 1.232 . S
C16 O17 1.218 . S
O17 C16 1.218 . S
C18 O11 1.275 . S
C18 O13 1.255 . S
C19 O20 1.258 . S
C19 O21 1.256 . S
O20 Cd12 2.381 . S
O20 C19 1.258 . S
O21 Cd12 2.378 . S
O21 C19 1.256 . S
O22 Cd23 2.300 . S
O22 C29 1.275 . S
Cd23 O22 2.300 . S
Cd23 O31 2.381 . S
Cd23 O32 2.378 1_565 S
O24 Cd25 2.385 . S
O24 C29 1.255 1_545 S
Cd25 O24 2.385 . S
Cd25 O26 2.317 . S
O26 Cd25 2.317 . S
O26 C27 1.232 1_545 S
C27 O26 1.232 1_565 S
C27 O28 1.218 1_565 S
O28 C27 1.218 1_545 S
C29 O22 1.275 . S
C29 O24 1.255 1_565 S
C30 O31 1.258 . S
C30 O32 1.256 1_565 S
O31 Cd23 2.381 . S
O31 C30 1.258 . S
O32 Cd23 2.378 1_545 S
O32 C30 1.256 1_545 S
O33 Cd34 2.300 . S
O33 C40 1.275 . S
Cd34 O33 2.300 . S
Cd34 O42 2.381 . S
Cd34 O43 2.378 . S
O35 Cd36 2.385 . S
O35 C40 1.255 . S
Cd36 O35 2.385 . S
Cd36 O37 2.317 . S
O37 Cd36 2.317 . S
O37 C38 1.232 . S
C38 O37 1.232 . S
C38 O39 1.218 . S
O39 C38 1.218 . S
C40 O33 1.275 . S
C40 O35 1.255 . S
C41 O42 1.258 . S
C41 O43 1.256 . S
O42 Cd34 2.381 . S
O42 C41 1.258 . S
O43 Cd34 2.378 . S
O43 C41 1.256 . S
O44 Cd45 2.300 . S
O44 C51 1.275 . S
Cd45 O44 2.300 . S
Cd45 O53 2.381 . S
Cd45 O54 2.378 . S
O46 Cd47 2.385 . S
O46 C51 1.255 . S
Cd47 O46 2.385 . S
Cd47 O48 2.317 1_554 S
O48 Cd47 2.317 1_556 S
O48 C49 1.232 . S
C49 O48 1.232 . S
C49 O50 1.218 . S
O50 C49 1.218 . S
C51 O44 1.275 . S
C51 O46 1.255 . S
C52 O53 1.258 . S
C52 O54 1.256 . S
O53 Cd45 2.381 . S
O53 C52 1.258 . S
O54 Cd45 2.378 . S
O54 C52 1.256 . S
O55 Cd56 2.300 . S
O55 C62 1.275 . S
Cd56 O55 2.300 . S
Cd56 O64 2.381 . S
Cd56 O65 2.378 . S
O57 Cd58 2.385 1_554 S
O57 C62 1.255 . S
Cd58 O57 2.385 1_556 S
Cd58 O59 2.317 . S
O59 Cd58 2.317 . S
O59 C60 1.232 . S
C60 O59 1.232 . S
C60 O61 1.218 . S
O61 C60 1.218 . S
C62 O55 1.275 . S
C62 O57 1.255 . S
C63 O64 1.258 . S
C63 O65 1.256 . S
O64 Cd56 2.381 . S
O64 C63 1.258 . S
O65 Cd56 2.378 . S
O65 C63 1.256 . S
O66 Cd67 2.300 . S
O66 C73 1.275 . S
Cd67 O66 2.300 . S
Cd67 O75 2.381 . S
Cd67 O76 2.378 . S
O68 Cd69 2.385 1_554 S
O68 C73 1.255 . S
Cd69 O68 2.385 1_556 S
Cd69 O70 2.317 . S
O70 Cd69 2.317 . S
O70 C71 1.232 . S
C71 O70 1.232 . S
C71 O72 1.218 . S
O72 C71 1.218 . S
C73 O66 1.275 . S
C73 O68 1.255 . S
C74 O75 1.258 . S
C74 O76 1.256 . S
O75 Cd67 2.381 . S
O75 C74 1.258 . S
O76 Cd67 2.378 . S
O76 C74 1.256 . S
O77 Cd78 2.300 . S
O77 C84 1.275 . S
Cd78 O77 2.300 . S
Cd78 O86 2.381 . S
Cd78 O87 2.378 . S
O79 Cd80 2.393 . S
O79 C84 1.255 . S
Cd80 O79 2.393 . S
Cd80 O81 2.311 1_554 S
O81 Cd80 2.311 1_556 S
O81 C82 1.232 . S
C82 O81 1.232 . S
C82 O83 1.218 . S
O83 C82 1.218 . S
C84 O77 1.275 . S
C84 O79 1.255 . S
C85 O86 1.258 . S
C85 O87 1.256 . S
O86 Cd78 2.381 . S
O86 C85 1.258 . S
O87 Cd78 2.378 . S
O87 C85 1.256 . S
Eu88 C97 2.828 . S
Eu88 O99 2.392 . S
Eu88 O101 2.418 1_545 S
Eu88 O106 2.373 1_655 S
Eu88 O109 2.488 . S
Eu88 O110 2.471 . S
Eu88 O111 2.349 1_655 S
Eu89 O98 2.373 1_455 S
Eu89 O102 2.488 . S
Eu89 O103 2.471 . S
Eu89 O104 2.349 . S
Eu89 O107 2.392 1_565 S
Eu89 O108 2.418 1_565 S
Eu89 C118 2.828 . S
C90 O108 1.244 . S
C90 O111 1.265 . S
C91 C92 1.379 1_655 S
C91 C95 1.373 . S
C91 C97 1.505 . S
C92 C91 1.379 1_455 S
C92 C94 1.369 . S
C92 H120 0.930 . S
C93 C95 1.383 . S
C93 C96 1.382 . S
C93 H121 0.930 . S
C94 C92 1.369 . S
C94 C96 1.392 1_455 S
C94 H122 0.930 . S
C95 C91 1.373 . S
C95 C93 1.383 . S
C95 H123 0.931 . S
C96 C93 1.382 . S
C96 C94 1.392 1_655 S
C97 Eu88 2.828 . S
C97 C91 1.505 . S
C97 O109 1.249 . S
C97 O110 1.244 . S
O98 Eu89 2.373 1_655 S
O98 C100 1.258 . S
O99 Eu88 2.392 . S
O99 C100 1.242 1_545 S
C100 O98 1.258 . S
C100 O99 1.242 1_565 S
O101 Eu88 2.418 1_565 S
O101 C105 1.244 . S
O102 Eu89 2.488 . S
O102 C118 1.249 . S
O103 Eu89 2.471 . S
O103 C118 1.244 . S
O104 Eu89 2.349 . S
O104 C105 1.265 1_455 S
C105 O101 1.244 . S
C105 O104 1.265 1_655 S
O106 Eu88 2.373 1_455 S
O106 C119 1.258 . S
O107 Eu89 2.392 1_545 S
O107 C119 1.242 . S
O108 Eu89 2.418 1_545 S
O108 C90 1.244 . S
O109 Eu88 2.488 . S
O109 C97 1.249 . S
O110 Eu88 2.471 . S
O110 C97 1.244 . S
O111 Eu88 2.349 1_455 S
O111 C90 1.265 . S
C112 C113 1.379 . S
C112 C116 1.373 . S
C112 C118 1.505 1_554 S
C113 C112 1.379 . S
C113 C115 1.369 . S
C113 H124 0.930 1_454 S
C114 C116 1.383 . S
C114 C117 1.382 . S
C114 H125 0.930 . S
C115 C113 1.369 . S
C115 C117 1.392 . S
C115 H126 0.930 1_455 S
C116 C112 1.373 . S
C116 C114 1.383 . S
C116 H127 0.931 . S
C117 C114 1.382 . S
C117 C115 1.392 . S
C118 Eu89 2.828 . S
C118 O102 1.249 . S
C118 O103 1.244 . S
C118 C112 1.505 1_556 S
C119 O106 1.258 . S
C119 O107 1.242 . S
H120 C92 0.930 . S
H121 C93 0.930 . S
H122 C94 0.930 . S
H123 C95 0.931 . S
H124 C113 0.930 1_656 S
H125 C114 0.930 . S
H126 C115 0.930 1_655 S
H127 C116 0.931 . S
Eu128 C137 2.828 . S
Eu128 O139 2.392 . S
Eu128 O141 2.418 . S
Eu128 O146 2.373 . S
Eu128 O149 2.488 . S
Eu128 O150 2.471 . S
Eu128 O151 2.349 1_545 S
Eu129 O138 2.373 1_565 S
Eu129 O142 2.488 . S
Eu129 O143 2.471 1_565 S
Eu129 O144 2.349 1_565 S
Eu129 O147 2.392 . S
Eu129 O148 2.418 . S
Eu129 C158 2.828 . S
C130 O148 1.244 . S
C130 O151 1.265 . S
C131 C132 1.379 1_556 S
C131 C135 1.373 . S
C131 C137 1.505 . S
C132 C131 1.379 1_554 S
C132 C134 1.369 . S
C132 H160 0.930 1_544 S
C133 C135 1.383 1_554 S
C133 C136 1.382 . S
C133 H161 0.930 . S
C134 C132 1.369 . S
C134 C136 1.392 . S
C134 H162 0.930 1_545 S
C135 C131 1.373 . S
C135 C133 1.383 1_556 S
C135 H163 0.931 . S
C136 C133 1.382 . S
C136 C134 1.392 . S
C137 Eu128 2.828 . S
C137 C131 1.505 . S
C137 O149 1.249 . S
C137 O150 1.244 . S
O138 Eu129 2.373 1_545 S
O138 C140 1.258 . S
O139 Eu128 2.392 . S
O139 C140 1.242 . S
C140 O138 1.258 . S
C140 O139 1.242 . S
O141 Eu128 2.418 . S
O141 C145 1.244 . S
O142 Eu129 2.488 . S
O142 C158 1.249 . S
O143 Eu129 2.471 1_545 S
O143 C158 1.244 1_545 S
O144 Eu129 2.349 1_545 S
O144 C145 1.265 . S
C145 O141 1.244 . S
C145 O144 1.265 . S
O146 Eu128 2.373 . S
O146 C159 1.258 1_545 S
O147 Eu129 2.392 . S
O147 C159 1.242 . S
O148 Eu129 2.418 . S
O148 C130 1.244 . S
O149 Eu128 2.488 . S
O149 C137 1.249 . S
O150 Eu128 2.471 . S
O150 C137 1.244 . S
O151 Eu128 2.349 1_565 S
O151 C130 1.265 . S
C152 C153 1.379 1_565 S
C152 C156 1.373 . S
C152 C158 1.505 . S
C153 C152 1.379 1_545 S
C153 C155 1.369 . S
C153 H164 0.930 . S
C154 C156 1.383 . S
C154 C157 1.382 . S
C154 H165 0.930 . S
C155 C153 1.369 . S
C155 C157 1.392 1_545 S
C155 H166 0.930 . S
C156 C152 1.373 . S
C156 C154 1.383 . S
C156 H167 0.931 . S
C157 C154 1.382 . S
C157 C155 1.392 1_565 S
C158 Eu129 2.828 . S
C158 O142 1.249 . S
C158 O143 1.244 1_565 S
C158 C152 1.505 . S
C159 O146 1.258 1_565 S
C159 O147 1.242 . S
H160 C132 0.930 1_566 S
H161 C133 0.930 . S
H162 C134 0.930 1_565 S
H163 C135 0.931 . S
H164 C153 0.930 . S
H165 C154 0.930 . S
H166 C155 0.930 . S
H167 C156 0.931 . S
Eu168 C177 2.828 . S
Eu168 O179 2.392 . S
Eu168 O181 2.418 . S
Eu168 O186 2.373 . S
Eu168 O189 2.488 . S
Eu168 O190 2.471 . S
Eu168 O191 2.349 . S
Eu169 O178 2.373 . S
Eu169 O182 2.488 . S
Eu169 O183 2.471 . S
Eu169 O184 2.349 . S
Eu169 O187 2.392 . S
Eu169 O188 2.418 . S
Eu169 C198 2.828 . S
C170 O188 1.244 . S
C170 O191 1.265 . S
C171 C172 1.379 . S
C171 C175 1.373 . S
C171 C177 1.505 . S
C172 C171 1.379 . S
C172 C174 1.369 1_556 S
C172 H200 0.930 . S
C173 C175 1.383 1_554 S
C173 C176 1.382 . S
C173 H201 0.930 . S
C174 C172 1.369 1_554 S
C174 C176 1.392 . S
C174 H202 0.930 . S
C175 C171 1.373 . S
C175 C173 1.383 1_556 S
C175 H203 0.931 . S
C176 C173 1.382 . S
C176 C174 1.392 . S
C177 Eu168 2.828 . S
C177 C171 1.505 . S
C177 O189 1.249 . S
C177 O190 1.244 . S
O178 Eu169 2.373 . S
O178 C180 1.258 . S
O179 Eu168 2.392 . S
O179 C180 1.242 . S
C180 O178 1.258 . S
C180 O179 1.242 . S
O181 Eu168 2.418 . S
O181 C185 1.244 . S
O182 Eu169 2.488 . S
O182 C198 1.249 . S
O183 Eu169 2.471 . S
O183 C198 1.244 . S
O184 Eu169 2.349 . S
O184 C185 1.265 . S
C185 O181 1.244 . S
C185 O184 1.265 . S
O186 Eu168 2.373 . S
O186 C199 1.258 . S
O187 Eu169 2.392 . S
O187 C199 1.242 . S
O188 Eu169 2.418 . S
O188 C170 1.244 . S
O189 Eu168 2.488 . S
O189 C177 1.249 . S
O190 Eu168 2.471 . S
O190 C177 1.244 . S
O191 Eu168 2.349 . S
O191 C170 1.265 . S
C192 C193 1.379 . S
C192 C196 1.373 . S
C192 C198 1.505 . S
C193 C192 1.379 . S
C193 C195 1.369 . S
C193 H204 0.930 . S
C194 C196 1.383 . S
C194 C197 1.382 . S
C194 H205 0.930 . S
C195 C193 1.369 . S
C195 C197 1.392 . S
C195 H206 0.930 . S
C196 C192 1.373 . S
C196 C194 1.383 . S
C196 H207 0.931 . S
C197 C194 1.382 . S
C197 C195 1.392 . S
C198 Eu169 2.828 . S
C198 O182 1.249 . S
C198 O183 1.244 . S
C198 C192 1.505 . S
C199 O186 1.258 . S
C199 O187 1.242 . S
H200 C172 0.930 . S
H201 C173 0.930 . S
H202 C174 0.930 . S
H203 C175 0.931 . S
H204 C193 0.930 . S
H205 C194 0.930 . S
H206 C195 0.930 . S
H207 C196 0.931 . S
Eu208 C217 2.828 . S
Eu208 O219 2.392 . S
Eu208 O221 2.418 1_455 S
Eu208 O226 2.373 . S
Eu208 O229 2.488 . S
Eu208 O230 2.471 . S
Eu208 O231 2.349 . S
Eu209 O218 2.373 . S
Eu209 O222 2.488 . S
Eu209 O223 2.471 . S
Eu209 O224 2.349 . S
Eu209 O227 2.392 1_655 S
Eu209 O228 2.418 1_655 S
Eu209 C238 2.828 . S
C210 O228 1.244 . S
C210 O231 1.265 . S
C211 C212 1.379 . S
C211 C215 1.373 . S
C211 C217 1.505 . S
C212 C211 1.379 . S
C212 C214 1.369 . S
C212 H240 0.930 . S
C213 C215 1.383 . S
C213 C216 1.382 . S
C213 H241 0.930 . S
C214 C212 1.369 . S
C214 C216 1.392 . S
C214 H242 0.930 . S
C215 C211 1.373 . S
C215 C213 1.383 . S
C215 H243 0.931 . S
C216 C213 1.382 . S
C216 C214 1.392 . S
C217 Eu208 2.828 . S
C217 C211 1.505 . S
C217 O229 1.249 . S
C217 O230 1.244 . S
O218 Eu209 2.373 . S
O218 C220 1.258 . S
O219 Eu208 2.392 . S
O219 C220 1.242 1_455 S
C220 O218 1.258 . S
C220 O219 1.242 1_655 S
O221 Eu208 2.418 1_655 S
O221 C225 1.244 . S
O222 Eu209 2.488 . S
O222 C238 1.249 . S
O223 Eu209 2.471 . S
O223 C238 1.244 . S
O224 Eu209 2.349 . S
O224 C225 1.265 . S
C225 O221 1.244 . S
C225 O224 1.265 . S
O226 Eu208 2.373 . S
O226 C239 1.258 . S
O227 Eu209 2.392 1_455 S
O227 C239 1.242 . S
O228 Eu209 2.418 1_455 S
O228 C210 1.244 . S
O229 Eu208 2.488 . S
O229 C217 1.249 . S
O230 Eu208 2.471 . S
O230 C217 1.244 . S
O231 Eu208 2.349 . S
O231 C210 1.265 . S
C232 C233 1.379 . S
C232 C236 1.373 . S
C232 C238 1.505 1_554 S
C233 C232 1.379 . S
C233 C235 1.369 . S
C233 H244 0.930 1_554 S
C234 C236 1.383 . S
C234 C237 1.382 . S
C234 H245 0.930 . S
C235 C233 1.369 . S
C235 C237 1.392 . S
C235 H246 0.930 . S
C236 C232 1.373 . S
C236 C234 1.383 . S
C236 H247 0.931 . S
C237 C234 1.382 . S
C237 C235 1.392 . S
C238 Eu209 2.828 . S
C238 O222 1.249 . S
C238 O223 1.244 . S
C238 C232 1.505 1_556 S
C239 O226 1.258 . S
C239 O227 1.242 . S
H240 C212 0.930 . S
H241 C213 0.930 . S
H242 C214 0.930 . S
H243 C215 0.931 . S
H244 C233 0.930 1_556 S
H245 C234 0.930 . S
H246 C235 0.930 . S
H247 C236 0.931 . S
C248 C249 1.363 . S
C248 C254 1.379 . S
C248 N256 1.356 . S
C249 C248 1.363 . S
C249 C255 1.363 . S
C250 C251 1.363 . S
C250 C255 1.379 . S
C250 N257 1.356 1_545 S
C251 C250 1.363 . S
C251 C254 1.363 . S
N252 C254 1.356 . S
N252 H264 0.984 . S
N252 H265 0.985 . S
N253 C255 1.356 1_565 S
N253 H258 0.984 1_565 S
N253 H259 0.985 . S
C254 C248 1.379 . S
C254 C251 1.363 . S
C254 N252 1.356 . S
C255 C249 1.363 . S
C255 C250 1.379 . S
C255 N253 1.356 1_545 S
N256 C248 1.356 . S
N256 H262 0.984 . S
N256 H263 0.984 . S
N257 C250 1.356 1_565 S
N257 H260 0.984 . S
N257 H261 0.985 . S
H258 N253 0.984 1_545 S
H259 N253 0.985 . S
H260 N257 0.984 . S
H261 N257 0.985 . S
H262 N256 0.984 . S
H263 N256 0.984 . S
H264 N252 0.984 . S
H265 N252 0.985 . S
C266 C267 1.363 . S
C266 C272 1.379 . S
C266 N274 1.356 . S
C267 C266 1.363 . S
C267 C273 1.363 . S
C268 C269 1.363 . S
C268 C273 1.379 . S
C268 N275 1.356 . S
C269 C268 1.363 . S
C269 C272 1.363 . S
N270 C272 1.356 . S
N270 H282 0.984 . S
N270 H283 0.985 . S
N271 C273 1.356 . S
N271 H276 0.984 . S
N271 H277 0.985 . S
C272 C266 1.379 . S
C272 C269 1.363 . S
C272 N270 1.356 . S
C273 C267 1.363 . S
C273 C268 1.379 . S
C273 N271 1.356 . S
N274 C266 1.356 . S
N274 H280 0.984 . S
N274 H281 0.984 . S
N275 C268 1.356 . S
N275 H278 0.984 . S
N275 H279 0.985 . S
H276 N271 0.984 . S
H277 N271 0.985 . S
H278 N275 0.984 . S
H279 N275 0.985 . S
H280 N274 0.984 . S
H281 N274 0.984 . S
H282 N270 0.984 . S
H283 N270 0.985 . S
C284 C285 1.363 . S
C284 C290 1.379 . S
C284 N292 1.356 . S
C285 C284 1.363 . S
C285 C291 1.363 . S
C286 C287 1.363 . S
C286 C291 1.379 . S
C286 N293 1.356 . S
C287 C286 1.363 . S
C287 C290 1.363 . S
N288 C290 1.356 . S
N288 H300 0.984 . S
N288 H301 0.985 . S
N289 C291 1.356 . S
N289 H294 0.984 . S
N289 H295 0.985 . S
C290 C284 1.379 . S
C290 C287 1.363 . S
C290 N288 1.356 . S
C291 C285 1.363 . S
C291 C286 1.379 . S
C291 N289 1.356 . S
N292 C284 1.356 . S
N292 H298 0.984 . S
N292 H299 0.984 . S
N293 C286 1.356 . S
N293 H296 0.984 . S
N293 H297 0.985 . S
H294 N289 0.984 . S
H295 N289 0.985 . S
H296 N293 0.984 . S
H297 N293 0.985 . S
H298 N292 0.984 . S
H299 N292 0.984 . S
H300 N288 0.984 . S
H301 N288 0.985 . S
C302 C303 1.363 . S
C302 C308 1.379 . S
C302 N310 1.356 . S
C303 C302 1.363 . S
C303 C309 1.363 . S
C304 C305 1.363 . S
C304 C309 1.379 . S
C304 N311 1.356 . S
C305 C304 1.363 . S
C305 C308 1.363 . S
N306 C308 1.356 . S
N306 H318 0.984 . S
N306 H319 0.985 . S
N307 C309 1.356 . S
N307 H312 0.984 . S
N307 H313 0.985 . S
C308 C302 1.379 . S
C308 C305 1.363 . S
C308 N306 1.356 . S
C309 C303 1.363 . S
C309 C304 1.379 . S
C309 N307 1.356 . S
N310 C302 1.356 . S
N310 H316 0.984 . S
N310 H317 0.984 . S
N311 C304 1.356 . S
N311 H314 0.984 . S
N311 H315 0.985 . S
H312 N307 0.984 . S
H313 N307 0.985 . S
H314 N311 0.984 . S
H315 N311 0.985 . S
H316 N310 0.984 . S
H317 N310 0.984 . S
H318 N306 0.984 . S
H319 N306 0.985 . S
C320 C321 1.363 1_545 S
C320 C326 1.379 . S
C320 N328 1.356 . S
C321 C320 1.363 1_565 S
C321 C327 1.363 . S
C322 C323 1.363 1_554 S
C322 C327 1.379 . S
C322 N329 1.356 1_554 S
C323 C322 1.363 1_556 S
C323 C326 1.363 1_566 S
N324 C326 1.356 1_556 S
N324 H336 0.984 . S
N324 H337 0.985 . S
N325 C327 1.356 . S
N325 H330 0.984 . S
N325 H331 0.985 . S
C326 C320 1.379 . S
C326 C323 1.363 1_544 S
C326 N324 1.356 1_554 S
C327 C321 1.363 . S
C327 C322 1.379 . S
C327 N325 1.356 . S
N328 C320 1.356 . S
N328 H334 0.984 . S
N328 H335 0.984 . S
N329 C322 1.356 1_556 S
N329 H332 0.984 . S
N329 H333 0.985 . S
H330 N325 0.984 . S
H331 N325 0.985 . S
H332 N329 0.984 . S
H333 N329 0.985 . S
H334 N328 0.984 . S
H335 N328 0.984 . S
H336 N324 0.984 . S
H337 N324 0.985 . S
C338 C339 1.363 . S
C338 C344 1.379 1_554 S
C338 N346 1.356 . S
C339 C338 1.363 . S
C339 C345 1.363 . S
C340 C341 1.363 1_554 S
C340 C345 1.379 . S
C340 N347 1.356 1_554 S
C341 C340 1.363 1_556 S
C341 C344 1.363 . S
N342 C344 1.356 . S
N342 H354 0.984 . S
N342 H355 0.985 . S
N343 C345 1.356 . S
N343 H348 0.984 . S
N343 H349 0.985 . S
C344 C338 1.379 1_556 S
C344 C341 1.363 . S
C344 N342 1.356 . S
C345 C339 1.363 . S
C345 C340 1.379 . S
C345 N343 1.356 . S
N346 C338 1.356 . S
N346 H352 0.984 . S
N346 H353 0.984 . S
N347 C340 1.356 1_556 S
N347 H350 0.984 . S
N347 H351 0.963 1_565 S
H348 N343 0.984 . S
H349 N343 0.985 . S
H350 N347 0.984 . S
H351 N347 0.963 1_545 S
H352 N346 0.984 . S
H353 N346 0.984 . S
H354 N342 0.984 . S
H355 N342 0.985 . S
C356 C357 1.363 . S
C356 C362 1.379 1_554 S
C356 N364 1.356 . S
C357 C356 1.363 . S
C357 C363 1.363 . S
C358 C359 1.363 . S
C358 C363 1.379 1_556 S
C358 N365 1.356 . S
C359 C358 1.363 . S
C359 C362 1.363 . S
N360 C362 1.356 . S
N360 H372 0.984 . S
N360 H373 0.985 . S
N361 C363 1.356 . S
N361 H366 0.984 . S
N361 H367 0.985 . S
C362 C356 1.379 1_556 S
C362 C359 1.363 . S
C362 N360 1.356 . S
C363 C357 1.363 . S
C363 C358 1.379 1_554 S
C363 N361 1.356 . S
N364 C356 1.356 . S
N364 H370 0.984 . S
N364 H371 0.984 . S
N365 C358 1.356 . S
N365 H368 0.984 . S
N365 H369 0.985 . S
H366 N361 0.984 . S
H367 N361 0.985 . S
H368 N365 0.984 . S
H369 N365 0.985 . S
H370 N364 0.984 . S
H371 N364 0.984 . S
H372 N360 0.984 . S
H373 N360 0.985 . S
C374 C375 1.363 . S
C374 C380 1.379 . S
C374 N382 1.356 1_655 S
C375 C374 1.363 . S
C375 C381 1.363 . S
C376 C377 1.363 . S
C376 C381 1.379 1_556 S
C376 N383 1.356 . S
C377 C376 1.363 . S
C377 C380 1.363 1_556 S
N378 C380 1.356 1_455 S
N378 H390 0.984 . S
N378 H391 0.985 1_554 S
N379 C381 1.356 . S
N379 H384 0.984 . S
N379 H385 0.985 . S
C380 C374 1.379 . S
C380 C377 1.363 1_554 S
C380 N378 1.356 1_655 S
C381 C375 1.363 . S
C381 C376 1.379 1_554 S
C381 N379 1.356 . S
N382 C374 1.356 1_455 S
N382 H388 0.986 . S
N382 H389 0.983 1_455 S
N383 C376 1.356 . S
N383 H386 0.984 . S
N383 H387 0.985 . S
H384 N379 0.984 . S
H385 N379 0.985 . S
H386 N383 0.984 . S
H387 N383 0.985 . S
H388 N382 0.986 . S
H389 N382 0.983 1_655 S
H390 N378 0.984 . S
H391 N378 0.985 1_556 S
C392 C393 1.363 . S
C392 C398 1.379 . S
C392 N400 1.356 . S
C393 C392 1.363 . S
C393 C399 1.363 . S
C394 C395 1.363 1_655 S
C394 C399 1.376 1_655 S
C394 N401 1.359 . S
C395 C394 1.363 1_455 S
C395 C398 1.363 . S
N396 C398 1.356 . S
N396 H408 0.984 . S
N396 H409 0.985 . S
N397 C399 1.356 . S
N397 H402 0.984 . S
N397 H403 0.985 . S
C398 C392 1.379 . S
C398 C395 1.363 . S
C398 N396 1.356 . S
C399 C393 1.363 . S
C399 C394 1.376 1_455 S
C399 N397 1.356 . S
N400 C392 1.356 . S
N400 H406 0.984 . S
N400 H407 0.984 . S
N401 C394 1.359 . S
N401 H404 0.984 . S
N401 H405 0.985 . S
H402 N397 0.984 . S
H403 N397 0.985 . S
H404 N401 0.984 . S
H405 N401 0.985 . S
H406 N400 0.984 . S
H407 N400 0.984 . S
H408 N396 0.984 . S
H409 N396 0.985 . S
C410 C411 1.363 . S
C410 C416 1.379 1_545 S
C410 N418 1.357 . S
C411 C410 1.363 . S
C411 C417 1.363 . S
C412 C413 1.363 1_545 S
C412 C417 1.379 . S
C412 N419 1.356 . S
C413 C412 1.363 1_565 S
C413 C416 1.363 . S
N414 C416 1.356 . S
N414 H426 0.984 . S
N414 H427 0.985 . S
N415 C417 1.356 . S
N415 H420 0.984 . S
N415 H421 0.985 . S
C416 C410 1.379 1_565 S
C416 C413 1.363 . S
C416 N414 1.356 . S
C417 C411 1.363 . S
C417 C412 1.379 . S
C417 N415 1.356 . S
N418 C410 1.357 . S
N418 H424 0.957 1_545 S
N418 H425 1.012 . S
N419 C412 1.356 . S
N419 H422 1.011 . S
N419 H423 0.985 . S
H420 N415 0.984 . S
H421 N415 0.985 . S
H422 N419 1.011 . S
H423 N419 0.985 . S
H424 N418 0.957 1_565 S
H425 N418 1.012 . S
H426 N414 0.984 . S
H427 N414 0.985 . S
C428 C429 1.363 . S
C428 C434 1.379 . S
C428 N436 1.356 . S
C429 C428 1.363 . S
C429 C435 1.363 . S
C430 C431 1.363 . S
C430 C435 1.379 . S
C430 N437 1.356 . S
C431 C430 1.363 . S
C431 C434 1.363 . S
N432 C434 1.356 . S
N432 H444 0.984 . S
N432 H445 0.985 . S
N433 C435 1.356 . S
N433 H438 0.984 . S
N433 H439 0.985 . S
C434 C428 1.379 . S
C434 C431 1.363 . S
C434 N432 1.356 . S
C435 C429 1.363 . S
C435 C430 1.379 . S
C435 N433 1.356 . S
N436 C428 1.356 . S
N436 H442 0.984 . S
N436 H443 0.984 . S
N437 C430 1.356 . S
N437 H440 0.984 . S
N437 H441 0.985 . S
H438 N433 0.984 . S
H439 N433 0.985 . S
H440 N437 0.984 . S
H441 N437 0.985 . S
H442 N436 0.984 . S
H443 N436 0.984 . S
H444 N432 0.984 . S
H445 N432 0.985 . S
C446 C447 1.363 . S
C446 C452 1.379 . S
C446 N454 1.356 . S
C447 C446 1.363 . S
C447 C453 1.363 . S
C448 C449 1.363 . S
C448 C453 1.379 . S
C448 N455 1.356 . S
C449 C448 1.363 . S
C449 C452 1.363 . S
N450 C452 1.356 . S
N450 H462 0.984 . S
N450 H463 0.985 . S
N451 C453 1.356 . S
N451 H456 0.984 . S
N451 H457 0.985 . S
C452 C446 1.379 . S
C452 C449 1.363 . S
C452 N450 1.356 . S
C453 C447 1.363 . S
C453 C448 1.379 . S
C453 N451 1.356 . S
N454 C446 1.356 . S
N454 H460 0.984 . S
N454 H461 0.984 . S
N455 C448 1.356 . S
N455 H458 0.984 . S
N455 H459 0.985 . S
H456 N451 0.984 . S
H457 N451 0.985 . S
H458 N455 0.984 . S
H459 N455 0.985 . S
H460 N454 0.984 . S
H461 N454 0.984 . S
H462 N450 0.984 . S
H463 N450 0.985 . S
C464 C465 1.363 . S
C464 C470 1.379 1_655 S
C464 N472 1.356 . S
C465 C464 1.363 . S
C465 C471 1.363 . S
C466 C467 1.363 1_655 S
C466 C471 1.379 . S
C466 N473 1.356 . S
C467 C466 1.363 1_455 S
C467 C470 1.363 . S
N468 C470 1.356 . S
N468 H480 0.984 . S
N468 H481 0.985 . S
N469 C471 1.356 . S
N469 H474 0.984 . S
N469 H475 0.985 . S
C470 C464 1.379 1_455 S
C470 C467 1.363 . S
C470 N468 1.356 . S
C471 C465 1.363 . S
C471 C466 1.379 . S
C471 N469 1.356 . S
N472 C464 1.356 . S
N472 H478 0.984 1_655 S
N472 H479 0.984 . S
N473 C466 1.356 . S
N473 H476 0.984 1_655 S
N473 H477 0.985 . S
H474 N469 0.984 . S
H475 N469 0.985 . S
H476 N473 0.984 1_455 S
H477 N473 0.985 . S
H478 N472 0.984 1_455 S
H479 N472 0.984 . S
H480 N468 0.984 . S
H481 N468 0.985 . S
C482 C483 1.363 1_545 S
C482 C488 1.379 . S
C482 N490 1.356 1_545 S
C483 C482 1.363 1_565 S
C483 C489 1.363 . S
C484 C485 1.363 . S
C484 C489 1.379 1_545 S
C484 N491 1.356 . S
C485 C484 1.363 . S
C485 C488 1.363 . S
N486 C488 1.356 . S
N486 H498 0.984 . S
N486 H499 0.985 . S
N487 C489 1.356 . S
N487 H492 0.984 . S
N487 H493 0.985 . S
C488 C482 1.379 . S
C488 C485 1.363 . S
C488 N486 1.356 . S
C489 C483 1.363 . S
C489 C484 1.379 1_565 S
C489 N487 1.356 . S
N490 C482 1.356 1_565 S
N490 H496 0.984 1_565 S
N490 H497 0.984 . S
N491 C484 1.356 . S
N491 H494 0.984 . S
N491 H495 0.985 . S
H492 N487 0.984 . S
H493 N487 0.985 . S
H494 N491 0.984 . S
H495 N491 0.985 . S
H496 N490 0.984 1_545 S
H497 N490 0.984 . S
H498 N486 0.984 . S
H499 N486 0.985 . S
C500 C501 1.363 . S
C500 C506 1.379 . S
C500 N508 1.356 . S
C501 C500 1.363 . S
C501 C507 1.363 . S
C502 C503 1.363 . S
C502 C507 1.379 . S
C502 N509 1.356 . S
C503 C502 1.363 . S
C503 C506 1.363 . S
N504 C506 1.356 1_556 S
N504 H516 0.984 . S
N504 H517 0.985 . S
N505 C507 1.356 . S
N505 H510 0.984 . S
N505 H511 0.985 . S
C506 C500 1.379 . S
C506 C503 1.363 . S
C506 N504 1.356 1_554 S
C507 C501 1.363 . S
C507 C502 1.379 . S
C507 N505 1.356 . S
N508 C500 1.356 . S
N508 H514 0.984 . S
N508 H515 0.984 . S
N509 C502 1.356 . S
N509 H512 0.984 . S
N509 H513 0.985 . S
H510 N505 0.984 . S
H511 N505 0.985 . S
H512 N509 0.984 . S
H513 N509 0.985 . S
H514 N508 0.984 . S
H515 N508 0.984 . S
H516 N504 0.984 . S
H517 N504 0.985 . S
C518 C519 1.363 . S
C518 C524 1.379 . S
C518 N526 1.356 . S
C519 C518 1.363 . S
C519 C525 1.363 . S
C520 C521 1.363 . S
C520 C525 1.379 . S
C520 N527 1.356 . S
C521 C520 1.363 . S
C521 C524 1.363 . S
N522 C524 1.356 . S
N522 H534 0.984 . S
N522 H535 0.985 . S
N523 C525 1.356 . S
N523 H528 0.984 . S
N523 H529 0.985 . S
C524 C518 1.379 . S
C524 C521 1.363 . S
C524 N522 1.356 . S
C525 C519 1.363 . S
C525 C520 1.379 . S
C525 N523 1.356 . S
N526 C518 1.356 . S
N526 H532 0.984 . S
N526 H533 0.984 . S
N527 C520 1.356 . S
N527 H530 0.984 . S
N527 H531 0.985 . S
H528 N523 0.984 . S
H529 N523 0.985 . S
H530 N527 0.984 . S
H531 N527 0.985 . S
H532 N526 0.984 . S
H533 N526 0.984 . S
H534 N522 0.984 . S
H535 N522 0.985 . S
C536 C537 1.363 . S
C536 C542 1.379 . S
C536 N544 1.356 . S
C537 C536 1.363 . S
C537 C543 1.363 . S
C538 C539 1.363 . S
C538 C543 1.379 . S
C538 N545 1.356 . S
C539 C538 1.363 . S
C539 C542 1.363 . S
N540 C542 1.356 . S
N540 H552 0.984 1_556 S
N540 H553 0.985 . S
N541 C543 1.356 . S
N541 H546 0.984 . S
N541 H547 0.985 1_455 S
C542 C536 1.379 . S
C542 C539 1.363 . S
C542 N540 1.356 . S
C543 C537 1.363 . S
C543 C538 1.379 . S
C543 N541 1.356 . S
N544 C536 1.356 . S
N544 H550 0.984 1_556 S
N544 H551 0.984 . S
N545 C538 1.356 . S
N545 H548 0.984 . S
N545 H549 0.985 1_455 S
H546 N541 0.984 . S
H547 N541 0.985 1_655 S
H548 N545 0.984 . S
H549 N545 0.985 1_655 S
H550 N544 0.984 1_554 S
H551 N544 0.984 . S
H552 N540 0.984 1_554 S
H553 N540 0.985 . S
C554 C555 1.363 . S
C554 C560 1.379 . S
C554 N562 1.356 . S
C555 C554 1.363 . S
C555 C561 1.363 . S
C556 C557 1.363 . S
C556 C561 1.379 . S
C556 N563 1.356 . S
C557 C556 1.363 . S
C557 C560 1.363 . S
N558 C560 1.356 . S
N558 H570 0.984 . S
N558 H571 0.985 . S
N559 C561 1.356 . S
N559 H564 0.984 . S
N559 H565 0.985 . S
C560 C554 1.379 . S
C560 C557 1.363 . S
C560 N558 1.356 . S
C561 C555 1.363 . S
C561 C556 1.379 . S
C561 N559 1.356 . S
N562 C554 1.356 . S
N562 H568 0.984 . S
N562 H569 0.984 . S
N563 C556 1.356 . S
N563 H566 0.984 . S
N563 H567 0.985 . S
H564 N559 0.984 . S
H565 N559 0.985 . S
H566 N563 0.984 . S
H567 N563 0.985 . S
H568 N562 0.984 . S
H569 N562 0.984 . S
H570 N558 0.984 . S
H571 N558 0.985 . S
C572 C573 1.363 . S
C572 C578 1.379 . S
C572 N580 1.356 . S
C573 C572 1.363 . S
C573 C579 1.363 . S
C574 C575 1.363 . S
C574 C579 1.379 . S
C574 N581 1.356 . S
C575 C574 1.363 . S
C575 C578 1.363 . S
N576 C578 1.356 . S
N576 H588 0.984 . S
N576 H589 0.985 . S
N577 C579 1.356 . S
N577 H582 0.984 . S
N577 H583 0.985 . S
C578 C572 1.379 . S
C578 C575 1.363 . S
C578 N576 1.356 . S
C579 C573 1.363 . S
C579 C574 1.379 . S
C579 N577 1.356 . S
N580 C572 1.356 . S
N580 H586 0.984 1_556 S
N580 H587 0.984 . S
N581 C574 1.356 . S
N581 H584 0.984 . S
N581 H585 0.985 . S
H582 N577 0.984 . S
H583 N577 0.985 . S
H584 N581 0.984 . S
H585 N581 0.985 . S
H586 N580 0.984 1_554 S
H587 N580 0.984 . S
H588 N576 0.984 . S
H589 N576 0.985 . S
C590 C591 1.363 . S
C590 C596 1.379 . S
C590 N598 1.358 . S
C591 C590 1.363 . S
C591 C597 1.363 . S
C592 C593 1.363 . S
C592 C597 1.379 . S
C592 N599 1.356 . S
C593 C592 1.363 . S
C593 C596 1.363 . S
N594 C596 1.356 . S
N594 H606 0.984 1_556 S
N594 H607 0.985 . S
N595 C597 1.356 . S
N595 H600 0.984 . S
N595 H601 0.985 . S
C596 C590 1.379 . S
C596 C593 1.363 . S
C596 N594 1.356 . S
C597 C591 1.363 . S
C597 C592 1.379 . S
C597 N595 1.356 . S
N598 C590 1.358 . S
N598 H604 0.982 1_556 S
N598 H605 0.985 . S
N599 C592 1.356 . S
N599 H602 0.984 . S
N599 H603 0.985 . S
H600 N595 0.984 . S
H601 N595 0.985 . S
H602 N599 0.984 . S
H603 N599 0.985 . S
H604 N598 0.982 1_554 S
H605 N598 0.985 . S
H606 N594 0.984 1_554 S
H607 N594 0.985 . S
C608 C609 1.363 . S
C608 C614 1.379 . S
C608 N616 1.356 . S
C609 C608 1.363 . S
C609 C615 1.363 . S
C610 C611 1.363 . S
C610 C615 1.379 . S
C610 N617 1.356 1_655 S
C611 C610 1.363 . S
C611 C614 1.363 . S
N612 C614 1.356 . S
N612 H624 0.984 . S
N612 H625 0.985 . S
N613 C615 1.361 . S
N613 H618 0.989 . S
N613 H619 0.975 1_655 S
C614 C608 1.379 . S
C614 C611 1.363 . S
C614 N612 1.356 . S
C615 C609 1.363 . S
C615 C610 1.379 . S
C615 N613 1.361 . S
N616 C608 1.356 . S
N616 H622 0.984 . S
N616 H623 0.984 . S
N617 C610 1.356 1_455 S
N617 H620 0.984 . S
N617 H621 0.985 . S
H618 N613 0.989 . S
H619 N613 0.975 1_455 S
H620 N617 0.984 . S
H621 N617 0.985 . S
H622 N616 0.984 . S
H623 N616 0.984 . S
H624 N612 0.984 . S
H625 N612 0.985 . S
C626 C627 1.363 . S
C626 C632 1.379 . S
C626 N634 1.356 . S
C627 C626 1.363 . S
C627 C633 1.363 . S
C628 C629 1.363 . S
C628 C633 1.379 . S
C628 N635 1.356 1_565 S
C629 C628 1.363 . S
C629 C632 1.363 . S
N630 C632 1.356 . S
N630 H642 0.984 . S
N630 H643 0.985 . S
N631 C633 1.356 1_545 S
N631 H636 0.984 . S
N631 H637 0.985 . S
C632 C626 1.379 . S
C632 C629 1.363 . S
C632 N630 1.356 . S
C633 C627 1.363 . S
C633 C628 1.379 . S
C633 N631 1.356 1_565 S
N634 C626 1.356 . S
N634 H640 0.984 . S
N634 H641 0.984 . S
N635 C628 1.356 1_545 S
N635 H638 0.984 . S
N635 H639 0.985 . S
H636 N631 0.984 . S
H637 N631 0.985 . S
H638 N635 0.984 . S
H639 N635 0.985 . S
H640 N634 0.984 . S
H641 N634 0.984 . S
H642 N630 0.984 . S
H643 N630 0.985 . S
C644 C645 1.363 . S
C644 C650 1.379 . S
C644 N652 1.356 . S
C645 C644 1.363 . S
C645 C651 1.363 . S
C646 C647 1.363 . S
C646 C651 1.379 . S
C646 N653 1.356 . S
C647 C646 1.363 . S
C647 C650 1.363 . S
N648 C650 1.356 . S
N648 H660 0.984 . S
N648 H661 0.985 . S
N649 C651 1.356 . S
N649 H654 0.984 . S
N649 H655 0.985 . S
C650 C644 1.379 . S
C650 C647 1.363 . S
C650 N648 1.356 . S
C651 C645 1.363 . S
C651 C646 1.379 . S
C651 N649 1.356 . S
N652 C644 1.356 . S
N652 H658 0.984 . S
N652 H659 0.984 . S
N653 C646 1.356 . S
N653 H656 0.984 . S
N653 H657 0.985 . S
H654 N649 0.984 . S
H655 N649 0.985 . S
H656 N653 0.984 . S
H657 N653 0.985 . S
H658 N652 0.984 . S
H659 N652 0.984 . S
H660 N648 0.984 . S
H661 N648 0.985 . S
C662 C663 1.363 . S
C662 C668 1.379 . S
C662 N670 1.356 . S
C663 C662 1.363 . S
C663 C669 1.363 . S
C664 C665 1.363 . S
C664 C669 1.379 . S
C664 N671 1.356 . S
C665 C664 1.363 . S
C665 C668 1.363 . S
N666 C668 1.356 . S
N666 H678 0.984 . S
N666 H679 0.985 . S
N667 C669 1.356 . S
N667 H672 0.984 . S
N667 H673 0.985 . S
C668 C662 1.379 . S
C668 C665 1.363 . S
C668 N666 1.356 . S
C669 C663 1.363 . S
C669 C664 1.379 . S
C669 N667 1.356 . S
N670 C662 1.356 . S
N670 H676 0.984 . S
N670 H677 0.984 . S
N671 C664 1.356 . S
N671 H674 0.984 . S
N671 H675 0.985 . S
H672 N667 0.984 . S
H673 N667 0.985 . S
H674 N671 0.984 . S
H675 N671 0.985 . S
H676 N670 0.984 . S
H677 N670 0.984 . S
H678 N666 0.984 . S
H679 N666 0.985 . S
C249 C74 2.260 . S
C251 C119 2.437 . S
C269 C145 2.133 . S
C267 C85 1.889 . S
C287 C185 2.116 . S
C285 C52 1.933 . S
C305 C239 2.417 . S
C303 C63 2.267 . S
C323 C100 2.438 . S
C321 C30 2.232 . S
C339 C41 1.924 . S
C341 C130 2.133 . S
C357 C8 1.908 . S
C359 C170 2.116 . S
C375 C19 2.226 . S
C377 C220 2.417 . S
C395 C96 0.910 1_455 S
C393 C62 0.959 . S
C413 C157 1.015 . S
C411 C73 1.041 . S
C431 C197 0.840 . S
C429 C84 0.850 . S
C447 C51 0.811 . S
C449 C216 0.796 . S
C465 C18 0.888 . S
C467 C117 0.910 . S
C485 C136 1.015 . S
C483 C29 0.932 . S
C503 C176 0.840 . S
C501 C40 0.826 . S
C519 C7 0.795 . S
C521 C237 0.796 . S
C537 C60 1.877 . S
C539 C90 2.390 . S
C555 C71 2.178 . S
C557 C140 2.718 . S
C575 C180 2.530 . S
C573 C82 1.880 . S
C593 C210 2.171 . S
C591 C49 1.657 . S
C609 C16 1.730 . S
C611 C105 2.390 . S
C629 C159 2.718 . S
C627 C27 2.136 . S
C647 C199 2.530 . S
C645 C38 2.111 . S
C663 C5 1.587 . S
C665 C225 2.171 . S
