# Generated by pormake.
# Topology zzz, (3,6)-cn, num edge types: 1
# Building blocks:
#     Node 0, Type 0, BuildingBlock: OLANEW_clean_sbu_2, # of connection points: 3
#     Node 1, Type 0, BuildingBlock: OLANEW_clean_sbu_2, # of connection points: 3
#     Node 2, Type 0, BuildingBlock: OLANEW_clean_sbu_2, # of connection points: 3
#     Node 3, Type 0, BuildingBlock: OLANEW_clean_sbu_2, # of connection points: 3
#     Node 4, Type 0, BuildingBlock: OLANEW_clean_sbu_2, # of connection points: 3
#     Node 5, Type 0, BuildingBlock: OLANEW_clean_sbu_2, # of connection points: 3
#     Node 6, Type 0, BuildingBlock: OLANEW_clean_sbu_2, # of connection points: 3
#     Node 7, Type 0, BuildingBlock: OLANEW_clean_sbu_2, # of connection points: 3
#     Node 8, Type 1, BuildingBlock: VOLQOD_clean_sbu_1, # of connection points: 6
#     Node 9, Type 1, BuildingBlock: VOLQOD_clean_sbu_1, # of connection points: 6
#     Node 10, Type 1, BuildingBlock: VOLQOD_clean_sbu_1, # of connection points: 6
#     Node 11, Type 1, BuildingBlock: VOLQOD_clean_sbu_1, # of connection points: 6
#     Edge 12, Type (0, 1), BuildingBlock: MIFKUJ_clean_linker_0, # of connection points: 2
#     Edge 13, Type (0, 1), BuildingBlock: MIFKUJ_clean_linker_0, # of connection points: 2
#     Edge 14, Type (0, 1), BuildingBlock: MIFKUJ_clean_linker_0, # of connection points: 2
#     Edge 15, Type (0, 1), BuildingBlock: MIFKUJ_clean_linker_0, # of connection points: 2
#     Edge 16, Type (0, 1), BuildingBlock: MIFKUJ_clean_linker_0, # of connection points: 2
#     Edge 17, Type (0, 1), BuildingBlock: MIFKUJ_clean_linker_0, # of connection points: 2
#     Edge 18, Type (0, 1), BuildingBlock: MIFKUJ_clean_linker_0, # of connection points: 2
#     Edge 19, Type (0, 1), BuildingBlock: MIFKUJ_clean_linker_0, # of connection points: 2
#     Edge 20, Type (0, 1), BuildingBlock: MIFKUJ_clean_linker_0, # of connection points: 2
#     Edge 21, Type (0, 1), BuildingBlock: MIFKUJ_clean_linker_0, # of connection points: 2
#     Edge 22, Type (0, 1), BuildingBlock: MIFKUJ_clean_linker_0, # of connection points: 2
#     Edge 23, Type (0, 1), BuildingBlock: MIFKUJ_clean_linker_0, # of connection points: 2
#     Edge 24, Type (0, 1), BuildingBlock: MIFKUJ_clean_linker_0, # of connection points: 2
#     Edge 25, Type (0, 1), BuildingBlock: MIFKUJ_clean_linker_0, # of connection points: 2
#     Edge 26, Type (0, 1), BuildingBlock: MIFKUJ_clean_linker_0, # of connection points: 2
#     Edge 27, Type (0, 1), BuildingBlock: MIFKUJ_clean_linker_0, # of connection points: 2
#     Edge 28, Type (0, 1), BuildingBlock: MIFKUJ_clean_linker_0, # of connection points: 2
#     Edge 29, Type (0, 1), BuildingBlock: MIFKUJ_clean_linker_0, # of connection points: 2
#     Edge 30, Type (0, 1), BuildingBlock: MIFKUJ_clean_linker_0, # of connection points: 2
#     Edge 31, Type (0, 1), BuildingBlock: MIFKUJ_clean_linker_0, # of connection points: 2
#     Edge 32, Type (0, 1), BuildingBlock: MIFKUJ_clean_linker_0, # of connection points: 2
#     Edge 33, Type (0, 1), BuildingBlock: MIFKUJ_clean_linker_0, # of connection points: 2
#     Edge 34, Type (0, 1), BuildingBlock: MIFKUJ_clean_linker_0, # of connection points: 2
#     Edge 35, Type (0, 1), BuildingBlock: MIFKUJ_clean_linker_0, # of connection points: 2
# Relax obj value: 0.191
# Max RMSD: 0.236
# Mean RMSD: 0.108
data_MOF--net-zzz--node1-OLANEW_clean_sbu_2--node2-VOLQOD_clean_sbu_1--edge1-MIFKUJ_clean_linker_0
_symmetry_space_group_name_H-M    P1
_symmetry_Int_Tables_number       1
_symmetry_cell_setting            triclinic
loop_
_symmetry_equiv_pos_as_xyz
'x, y, z'
_cell_length_a     68.176701
_cell_length_b     67.725658
_cell_length_c     24.26759
_cell_angle_alpha  90.162604
_cell_angle_beta   89.870496
_cell_angle_gamma 90.985772
loop_
_atom_site_label
_atom_site_type_symbol
_atom_site_fract_x
_atom_site_fract_y
_atom_site_fract_z
_atom_type_partial_charge
O0 O 0.76736 0.57116 0.05303 0.0
Cd1 Cd 0.73593 0.58043 0.09211 0.0
O2 O 0.76456 0.54351 0.0995 0.0
Cd3 Cd 0.7786 0.5172 0.13163 0.0
O4 O 0.80253 0.50376 0.17661 0.0
C5 C 0.81937 0.51187 0.171 0.0
O6 O 0.82138 0.52683 0.13702 0.0
C7 C 0.77403 0.5544 0.06578 0.0
C8 C 0.70692 0.55741 0.04184 0.0
O9 O 0.71468 0.55191 0.08721 0.0
O10 O 0.71257 0.57397 0.02127 0.0
O11 O 0.91295 0.78277 0.04216 0.0
Cd12 Cd 0.89248 0.75308 0.04774 0.0
O13 O 0.93322 0.76996 0.10174 0.0
Cd14 Cd 0.95792 0.77245 0.15845 0.0
O15 O 0.9762 0.79099 0.21135 0.0
C16 C 0.96789 0.80674 0.22649 0.0
O17 O 0.94986 0.80988 0.20997 0.0
C18 C 0.92869 0.78409 0.06996 0.0
C19 C 0.90911 0.72421 0.98173 0.0
O20 O 0.89613 0.73575 0.96239 0.0
O21 O 0.91388 0.7261 0.03256 0.0
O22 O 0.71662 0.96548 0.9499 0.0
Cd23 Cd 0.74442 0.94346 0.94798 0.0
O24 O 0.723 0.97612 0.03371 0.0
Cd25 Cd 0.71594 0.99471 0.10425 0.0
O26 O 0.6977 0.00667 0.16939 0.0
C27 C 0.68591 0.02061 0.16009 0.0
O28 O 0.68586 0.02891 0.11124 0.0
C29 C 0.71218 0.97611 0.99112 0.0
C30 C 0.77833 0.96189 0.90834 0.0
O31 O 0.76527 0.955 0.87525 0.0
O32 O 0.77529 0.9602 0.96027 0.0
O33 O 0.55398 0.73966 0.9729 0.0
Cd34 Cd 0.55767 0.72944 0.87663 0.0
O35 O 0.54276 0.73472 0.05657 0.0
Cd36 Cd 0.53014 0.71495 0.11799 0.0
O37 O 0.52441 0.68876 0.16701 0.0
C38 C 0.53685 0.68451 0.20376 0.0
O39 O 0.55199 0.69644 0.2117 0.0
C40 C 0.54528 0.72857 0.0076 0.0
C41 C 0.55157 0.76272 0.81314 0.0
O42 O 0.56888 0.75803 0.82823 0.0
O43 O 0.53724 0.75113 0.82619 0.0
O44 O 0.21803 0.59823 0.3665 0.0
Cd45 Cd 0.25048 0.60883 0.33546 0.0
O46 O 0.2257 0.56999 0.32849 0.0
Cd47 Cd 0.21656 0.54119 0.29662 0.0
O48 O 0.19575 0.52593 0.24299 0.0
C49 C 0.18035 0.53569 0.23392 0.0
O50 O 0.17842 0.55293 0.2581 0.0
C51 C 0.21351 0.58043 0.35487 0.0
C52 C 0.27868 0.58997 0.39785 0.0
O53 O 0.27408 0.60786 0.40838 0.0
O54 O 0.27018 0.58114 0.35747 0.0
O55 O 0.11036 0.2261 0.46736 0.0
Cd56 Cd 0.12266 0.25903 0.4454 0.0
O57 O 0.11515 0.21769 0.3813 0.0
Cd58 Cd 0.1114 0.1984 0.31014 0.0
O59 O 0.10442 0.18038 0.23836 0.0
C60 C 0.0867 0.17894 0.22258 0.0
O61 O 0.07313 0.18844 0.24998 0.0
C62 C 0.10907 0.21326 0.42931 0.0
C63 C 0.09628 0.28591 0.48817 0.0
O64 O 0.09385 0.27857 0.43989 0.0
O65 O 0.11144 0.28087 0.51556 0.0
O66 O 0.28713 0.90316 0.34694 0.0
Cd67 Cd 0.25577 0.88593 0.33554 0.0
O68 O 0.27552 0.92751 0.29799 0.0
Cd69 Cd 0.28065 0.95503 0.25336 0.0
O70 O 0.299 0.97129 0.1951 0.0
C71 C 0.31303 0.96124 0.17598 0.0
O72 O 0.31499 0.94297 0.19298 0.0
C73 C 0.28935 0.92024 0.32608 0.0
C74 C 0.23057 0.89885 0.41793 0.0
O75 O 0.24039 0.88305 0.42419 0.0
O76 O 0.23236 0.90821 0.37232 0.0
O77 O 0.54859 0.27723 0.23647 0.0
Cd78 Cd 0.5443 0.24431 0.19822 0.0
O79 O 0.51679 0.27812 0.2249 0.0
Cd80 Cd 0.48769 0.29111 0.23201 0.0
O81 O 0.46813 0.31404 0.20372 0.0
C82 C 0.46427 0.32914 0.23271 0.0
O83 O 0.47032 0.32998 0.28402 0.0
C84 C 0.5326 0.2864 0.24171 0.0
C85 C 0.53392 0.22004 0.28588 0.0
O86 O 0.55141 0.22001 0.26646 0.0
O87 O 0.52124 0.23101 0.26283 0.0
O88 O 0.07255 0.97748 0.77507 0.0
Zn89 Zn 0.04447 0.98356 0.79652 0.0
O90 O 0.0283 0.98774 0.73027 0.0
Zn91 Zn 0.01438 0.01269 0.73436 0.0
Zn92 Zn 0.04467 0.98803 0.66445 0.0
Zn93 Zn 0.00927 0.96639 0.72396 0.0
O94 O 0.98487 0.00863 0.73829 0.0
O95 O 0.98197 0.97649 0.72161 0.0
O96 O 0.04474 0.0084 0.84331 0.0
O97 O 0.02371 0.02788 0.80029 0.0
O98 O 0.02107 0.0304 0.67039 0.0
O99 O 0.04364 0.01385 0.62443 0.0
O100 O 0.03769 0.96572 0.61232 0.0
O101 O 0.03401 0.9608 0.84313 0.0
O102 O 0.01416 0.94948 0.65748 0.0
O103 O 0.00972 0.94931 0.79063 0.0
C104 C 0.08148 0.97943 0.72914 0.0
C105 C 0.97428 0.99319 0.73047 0.0
C106 C 0.03344 0.02922 0.63119 0.0
C107 C 0.03574 0.02469 0.83916 0.0
C108 C 0.02567 0.95119 0.61631 0.0
C109 C 0.01987 0.94865 0.83443 0.0
O110 O 0.07251 0.98412 0.68535 0.0
O111 O 0.49363 0.06457 0.70386 0.0
Zn112 Zn 0.49695 0.03742 0.73873 0.0
O113 O 0.49848 0.01704 0.68038 0.0
Zn114 Zn 0.47962 0.99582 0.69446 0.0
Zn115 Zn 0.4928 0.02808 0.60813 0.0
Zn116 Zn 0.52465 0.00625 0.67871 0.0
O117 O 0.49273 0.96991 0.70808 0.0
O118 O 0.52404 0.97694 0.69071 0.0
O119 O 0.47369 0.03182 0.78929 0.0
O120 O 0.46235 0.00289 0.75772 0.0
O121 O 0.46149 0.99153 0.63082 0.0
O122 O 0.46954 0.01496 0.57101 0.0
O123 O 0.51606 0.02668 0.55666 0.0
O124 O 0.52168 0.0381 0.78566 0.0
O125 O 0.53831 0.01162 0.60716 0.0
O126 O 0.54112 0.01821 0.73817 0.0
C127 C 0.48892 0.06934 0.65484 0.0
C128 C 0.51047 0.96459 0.70311 0.0
C129 C 0.4588 0.00029 0.58528 0.0
C130 C 0.46143 0.0174 0.79096 0.0
C131 C 0.53319 0.01983 0.5625 0.0
C132 C 0.53822 0.03001 0.77811 0.0
O133 O 0.48732 0.05653 0.61662 0.0
O134 O 0.45012 0.5067 0.70167 0.0
Zn135 Zn 0.4757 0.50298 0.74314 0.0
O136 O 0.49649 0.49392 0.6927 0.0
Zn137 Zn 0.50718 0.46892 0.71776 0.0
Zn138 Zn 0.4861 0.49061 0.61865 0.0
Zn139 Zn 0.51775 0.5133 0.68938 0.0
O140 O 0.53514 0.47222 0.74461 0.0
O141 O 0.54295 0.50244 0.71617 0.0
O142 O 0.47106 0.48288 0.80372 0.0
O143 O 0.49159 0.45885 0.78234 0.0
O144 O 0.50688 0.44855 0.65645 0.0
O145 O 0.49032 0.46327 0.58985 0.0
O146 O 0.49883 0.50934 0.56478 0.0
O147 O 0.48324 0.5294 0.77866 0.0
O148 O 0.52182 0.52458 0.61406 0.0
O149 O 0.51193 0.5359 0.73872 0.0
C150 C 0.44541 0.50351 0.65154 0.0
C151 C 0.54757 0.48632 0.73905 0.0
C152 C 0.49931 0.44839 0.60844 0.0
C153 C 0.47828 0.46597 0.81314 0.0
C154 C 0.5129 0.52183 0.56868 0.0
C155 C 0.49827 0.54061 0.77173 0.0
O156 O 0.4577 0.4969 0.61688 0.0
O157 O 0.97484 0.51445 0.6011 0.0
Zn158 Zn 0.9955 0.52211 0.65684 0.0
O159 O 0.99626 0.50295 0.71714 0.0
Zn160 Zn 0.99488 0.51702 0.78673 0.0
Zn161 Zn 0.97407 0.4842 0.71071 0.0
Zn162 Zn 0.02092 0.48896 0.71565 0.0
O163 O 0.0172 0.51111 0.83758 0.0
O164 O 0.03559 0.49129 0.78727 0.0
O165 O 0.98966 0.54956 0.68499 0.0
O166 O 0.99431 0.54616 0.77495 0.0
O167 O 0.96969 0.51051 0.82487 0.0
O168 O 0.95465 0.48766 0.7737 0.0
O169 O 0.98349 0.45601 0.70566 0.0
O170 O 0.02158 0.52352 0.61774 0.0
O171 O 0.01593 0.4602 0.70301 0.0
O172 O 0.03879 0.49971 0.65636 0.0
C173 C 0.96148 0.50107 0.60042 0.0
C174 C 0.03235 0.50059 0.8319 0.0
C175 C 0.95508 0.49905 0.81568 0.0
C176 C 0.99096 0.55691 0.73325 0.0
C177 C 0.00069 0.44908 0.70141 0.0
C178 C 0.03724 0.51361 0.62147 0.0
O179 O 0.95946 0.48891 0.64005 0.0
H180 H 0.21467 0.93537 0.42608 0.0
H181 H 0.19396 0.94807 0.49994 0.0
H182 H 0.19685 0.8922 0.58409 0.0
H183 H 0.21786 0.87938 0.51043 0.0
H184 H 0.15822 0.9075 0.57229 0.0
H185 H 0.22137 0.92821 0.63824 0.0
H186 H 0.25437 0.9435 0.63157 0.0
H187 H 0.22896 -0.00062 0.59333 0.0
H188 H 0.19581 0.98437 0.59893 0.0
H189 H 0.10031 0.94921 0.77948 0.0
H190 H 0.13133 0.93488 0.74889 0.0
H191 H 0.1399 0.98298 0.63474 0.0
H192 H 0.10889 0.99712 0.66441 0.0
H193 H 0.17568 0.96804 0.67862 0.0
H194 H 0.11558 0.94682 0.58725 0.0
H195 H 0.08146 0.93409 0.58941 0.0
H196 H 0.10046 0.88124 0.66911 0.0
H197 H 0.13471 0.89384 0.66812 0.0
C198 C 0.21093 0.92577 0.46029 0.0
C199 C 0.21786 0.90637 0.46243 0.0
C200 C 0.19921 0.93309 0.50261 0.0
C201 C 0.19408 0.92112 0.54764 0.0
C202 C 0.20078 0.90167 0.54976 0.0
C203 C 0.21275 0.8944 0.50771 0.0
C204 C 0.18105 0.92886 0.59112 0.0
C205 C 0.16224 0.92038 0.59673 0.0
C206 C 0.18616 0.94598 0.62187 0.0
C207 C 0.20609 0.95511 0.61869 0.0
C208 C 0.22282 0.94373 0.628 0.0
C209 C 0.24155 0.95235 0.62448 0.0
C210 C 0.24376 0.97239 0.61196 0.0
C211 C 0.22723 0.98386 0.60303 0.0
C212 C 0.20846 0.9753 0.60645 0.0
C213 C 0.10924 0.9571 0.74952 0.0
C214 C 0.10221 0.9741 0.72374 0.0
C215 C 0.12689 0.9489 0.73201 0.0
C216 C 0.13772 0.95779 0.68917 0.0
C217 C 0.13175 0.97593 0.66789 0.0
C218 C 0.11401 0.98393 0.68466 0.0
C219 C 0.15293 0.94674 0.65931 0.0
C220 C 0.17199 0.95472 0.65568 0.0
C221 C 0.148 0.92935 0.62957 0.0
C222 C 0.12762 0.92135 0.62823 0.0
C223 C 0.11246 0.93252 0.60544 0.0
C224 C 0.09311 0.92535 0.60647 0.0
C225 C 0.08879 0.90694 0.62972 0.0
C226 C 0.10384 0.89555 0.65139 0.0
C227 C 0.12322 0.90269 0.65057 0.0
H228 H 0.07378 0.90147 0.6308 0.0
H229 H 0.25828 0.97904 0.60925 0.0
H230 H 0.54664 0.18337 0.31111 0.0
H231 H 0.53675 0.16292 0.38955 0.0
H232 H 0.50083 0.21021 0.45067 0.0
H233 H 0.5095 0.22996 0.36966 0.0
H234 H 0.5409 0.16335 0.4906 0.0
H235 H 0.46298 0.19315 0.526 0.0
H236 H 0.43628 0.20864 0.47393 0.0
H237 H 0.45651 0.18132 0.32485 0.0
H238 H 0.48319 0.16552 0.37615 0.0
H239 H 0.50662 0.10184 0.70279 0.0
H240 H 0.5114 0.13423 0.65915 0.0
H241 H 0.47386 0.11566 0.52497 0.0
H242 H 0.46859 0.08388 0.56888 0.0
H243 H 0.47058 0.15311 0.53715 0.0
H244 H 0.52418 0.10736 0.52358 0.0
H245 H 0.54989 0.08604 0.56112 0.0
H246 H 0.57705 0.13622 0.64044 0.0
H247 H 0.55131 0.15779 0.60386 0.0
C248 C 0.53654 0.18928 0.34123 0.0
C249 C 0.52857 0.20803 0.33417 0.0
C250 C 0.53098 0.17768 0.38628 0.0
C251 C 0.51777 0.18485 0.42592 0.0
C252 C 0.51054 0.20404 0.42 0.0
C253 C 0.51555 0.21535 0.37387 0.0
C254 C 0.51129 0.17192 0.47222 0.0
C255 C 0.52551 0.16127 0.50092 0.0
C256 C 0.49122 0.16903 0.48599 0.0
C257 C 0.47521 0.1784 0.45478 0.0
C258 C 0.4617 0.19045 0.48212 0.0
C259 C 0.44658 0.19928 0.45275 0.0
C260 C 0.44475 0.19604 0.39608 0.0
C261 C 0.45799 0.18389 0.36869 0.0
C262 C 0.47312 0.17501 0.39788 0.0
C263 C 0.49881 0.10501 0.66511 0.0
C264 C 0.48756 0.09024 0.6386 0.0
C265 C 0.50166 0.12345 0.63999 0.0
C266 C 0.49341 0.12718 0.58804 0.0
C267 C 0.4805 0.11315 0.56481 0.0
C268 C 0.47759 0.09489 0.58985 0.0
C269 C 0.50011 0.14407 0.55365 0.0
C270 C 0.48598 0.1556 0.52758 0.0
C271 C 0.52016 0.14698 0.54002 0.0
C272 C 0.53569 0.13411 0.56175 0.0
C273 C 0.53556 0.1138 0.54937 0.0
C274 C 0.55012 0.10168 0.57049 0.0
C275 C 0.56502 0.10976 0.60345 0.0
C276 C 0.56544 0.12998 0.61511 0.0
C277 C 0.55087 0.14216 0.59425 0.0
H278 H 0.57629 0.10036 0.61975 0.0
H279 H 0.43304 0.20289 0.37342 0.0
H280 H 0.31013 0.6064 0.45074 0.0
H281 H 0.33586 0.58924 0.50052 0.0
H282 H 0.30535 0.53366 0.47318 0.0
H283 H 0.28036 0.55069 0.42006 0.0
H284 H 0.33937 0.56942 0.58686 0.0
H285 H 0.33623 0.49613 0.46365 0.0
H286 H 0.32731 0.48396 0.37089 0.0
H287 H 0.33967 0.54137 0.30323 0.0
H288 H 0.34886 0.5538 0.39544 0.0
H289 H 0.41119 0.50829 0.71018 0.0
H290 H 0.37972 0.51981 0.67459 0.0
H291 H 0.40512 0.52482 0.51191 0.0
H292 H 0.43587 0.51237 0.54631 0.0
H293 H 0.37111 0.51186 0.49964 0.0
H294 H 0.39902 0.56551 0.60647 0.0
H295 H 0.41222 0.58164 0.69014 0.0
H296 H 0.3577 0.57051 0.77442 0.0
H297 H 0.34427 0.55411 0.69138 0.0
C298 C 0.30897 0.59052 0.45539 0.0
C299 C 0.29347 0.5798 0.43098 0.0
C300 C 0.32362 0.58071 0.4841 0.0
C301 C 0.3228 0.56007 0.48991 0.0
C302 C 0.30668 0.5495 0.46793 0.0
C303 C 0.29236 0.55923 0.43778 0.0
C304 C 0.33919 0.54965 0.51706 0.0
C305 C 0.34627 0.5568 0.56779 0.0
C306 C 0.3484 0.53327 0.49218 0.0
C307 C 0.34298 0.52593 0.43652 0.0
C308 C 0.33706 0.50613 0.42893 0.0
C309 C 0.33196 0.49919 0.37647 0.0
C310 C 0.33284 0.51191 0.33124 0.0
C311 C 0.33891 0.53156 0.33833 0.0
C312 C 0.34405 0.53856 0.39068 0.0
C313 C 0.4099 0.51166 0.66676 0.0
C314 C 0.42597 0.5094 0.63106 0.0
C315 C 0.39197 0.51836 0.64648 0.0
C316 C 0.39006 0.52347 0.59059 0.0
C317 C 0.40608 0.52088 0.55505 0.0
C318 C 0.42373 0.51377 0.57489 0.0
C319 C 0.37175 0.53204 0.56848 0.0
C320 C 0.36413 0.52438 0.51897 0.0
C321 C 0.3627 0.54855 0.5931 0.0
C322 C 0.37074 0.55838 0.64301 0.0
C323 C 0.38991 0.56638 0.643 0.0
C324 C 0.39742 0.57559 0.69026 0.0
C325 C 0.38583 0.57704 0.73763 0.0
C326 C 0.36668 0.56933 0.73775 0.0
C327 C 0.35911 0.56009 0.69061 0.0
H328 H 0.39167 0.58417 0.77418 0.0
H329 H 0.32888 0.50651 0.29067 0.0
H330 H 0.05981 0.29447 0.44901 0.0
H331 H 0.03609 0.31717 0.48892 0.0
H332 H 0.07667 0.33118 0.62016 0.0
H333 H 0.10013 0.3081 0.58152 0.0
H334 H 0.04086 0.32756 0.6603 0.0
H335 H 0.07098 0.36119 0.50396 0.0
H336 H 0.07985 0.36519 0.40596 0.0
H337 H 0.01892 0.36258 0.36146 0.0
H338 H 0.00973 0.35834 0.45922 0.0
H339 H 0.03119 0.42682 0.73373 0.0
H340 H 0.03891 0.39354 0.70284 0.0
H341 H 0.98468 0.39042 0.61172 0.0
H342 H 0.97666 0.42384 0.64351 0.0
H343 H 0.0186 0.38404 0.54823 0.0
H344 H 0.98933 0.35867 0.71075 0.0
H345 H 0.98184 0.35663 0.81 0.0
H346 H 0.04235 0.34542 0.84474 0.0
H347 H 0.05028 0.34768 0.74577 0.0
C348 C 0.06365 0.30238 0.48642 0.0
C349 C 0.0819 0.29963 0.51193 0.0
C350 C 0.05008 0.31534 0.50916 0.0
C351 C 0.05467 0.32602 0.55724 0.0
C352 C 0.07277 0.32304 0.58315 0.0
C353 C 0.08623 0.30993 0.56083 0.0
C354 C 0.04112 0.34093 0.57982 0.0
C355 C 0.036 0.33993 0.63585 0.0
C356 C 0.03416 0.35668 0.54743 0.0
C357 C 0.03969 0.35918 0.48873 0.0
C358 C 0.0595 0.36131 0.4732 0.0
C359 C 0.06458 0.36365 0.41773 0.0
C360 C 0.04996 0.36406 0.37748 0.0
C361 C 0.03023 0.3622 0.39266 0.0
C362 C 0.02508 0.35983 0.44807 0.0
C363 C 0.02067 0.41886 0.70823 0.0
C364 C 0.00339 0.42788 0.69074 0.0
C365 C 0.02504 0.39982 0.69086 0.0
C366 C 0.01232 0.38953 0.65519 0.0
C367 C 0.99459 0.39812 0.63955 0.0
C368 C 0.99002 0.41713 0.65783 0.0
C369 C 0.01906 0.37108 0.62914 0.0
C370 C 0.02294 0.37139 0.57238 0.0
C371 C 0.02507 0.35485 0.66102 0.0
C372 C 0.02041 0.35342 0.72072 0.0
C373 C 0.00107 0.35591 0.73956 0.0
C374 C 0.99674 0.35469 0.79579 0.0
C375 C 0.01161 0.35091 0.83365 0.0
C376 C 0.03084 0.34833 0.81535 0.0
C377 C 0.03526 0.34954 0.75915 0.0
H378 H 0.00823 0.34998 0.87718 0.0
H379 H 0.05392 0.36588 0.33456 0.0
H380 H 0.78498 0.97825 0.8072 0.0
H381 H 0.81632 0.99019 0.7696 0.0
H382 H 0.84479 0.97605 0.92294 0.0
H383 H 0.81334 0.9652 0.96154 0.0
H384 H 0.86124 0.00716 0.88523 0.0
H385 H 0.84355 0.94388 0.80576 0.0
H386 H 0.82252 0.92019 0.75464 0.0
H387 H 0.82529 0.95744 0.61183 0.0
H388 H 0.84617 0.98146 0.66239 0.0
H389 H 0.94845 0.96214 0.73297 0.0
H390 H 0.91374 0.96258 0.7546 0.0
H391 H 0.91591 0.02626 0.76267 0.0
H392 H 0.9512 0.02591 0.74299 0.0
H393 H 0.88254 0.97533 0.71129 0.0
H394 H 0.88303 0.04156 0.86024 0.0
H395 H 0.906 0.06015 0.92035 0.0
H396 H 0.94099 0.00847 0.93893 0.0
H397 H 0.91812 0.98955 0.87948 0.0
C398 C 0.79791 0.97795 0.83303 0.0
C399 C 0.79681 0.97062 0.88707 0.0
C400 C 0.81582 0.98471 0.81147 0.0
C401 C 0.83304 0.98363 0.84296 0.0
C402 C 0.83175 0.97706 0.89774 0.0
C403 C 0.81377 0.97077 0.91974 0.0
C404 C 0.85259 0.98799 0.81819 0.0
C405 C 0.86583 0.00033 0.84693 0.0
C406 C 0.85874 0.97896 0.76846 0.0
C407 C 0.8462 0.96456 0.73803 0.0
C408 C 0.83955 0.94707 0.76358 0.0
C409 C 0.82768 0.93358 0.7347 0.0
C410 C 0.82251 0.93734 0.68008 0.0
C411 C 0.82926 0.95458 0.65418 0.0
C412 C 0.84112 0.96813 0.6829 0.0
C413 C 0.94161 0.97631 0.73877 0.0
C414 C 0.9527 0.994 0.73676 0.0
C415 C 0.92165 0.97653 0.75097 0.0
C416 C 0.9122 0.99442 0.76095 0.0
C417 C 0.92296 0.01224 0.75613 0.0
C418 C 0.9431 0.01202 0.74462 0.0
C419 C 0.89139 0.99396 0.77925 0.0
C420 C 0.87784 0.98249 0.74902 0.0
C421 C 0.88525 0.00307 0.82883 0.0
C422 C 0.89903 0.01425 0.86484 0.0
C423 C 0.89562 0.03418 0.87723 0.0
C424 C 0.90862 0.04477 0.91118 0.0
C425 C 0.92499 0.03552 0.93325 0.0
C426 C 0.92835 0.01564 0.92162 0.0
C427 C 0.91539 0.00499 0.88776 0.0
H428 H 0.93504 0.04374 0.95949 0.0
H429 H 0.81332 0.92688 0.65779 0.0
H430 H 0.57885 0.79003 0.77866 0.0
H431 H 0.57284 0.82377 0.74853 0.0
H432 H 0.51043 0.81274 0.75859 0.0
H433 H 0.51628 0.77886 0.78772 0.0
H434 H 0.51965 0.83635 0.6719 0.0
H435 H 0.53455 0.83357 0.86574 0.0
H436 H 0.55439 0.82512 0.9469 0.0
H437 H 0.60227 0.86071 0.88509 0.0
H438 H 0.58278 0.86915 0.80313 0.0
H439 H 0.48514 0.93325 0.7181 0.0
H440 H 0.49329 0.89843 0.72691 0.0
H441 H 0.55483 0.91334 0.71208 0.0
H442 H 0.54688 0.94823 0.70363 0.0
H443 H 0.5475 0.88791 0.79625 0.0
H444 H 0.53105 0.89274 0.60503 0.0
H445 H 0.51049 0.90136 0.5255 0.0
H446 H 0.46476 0.86228 0.58373 0.0
H447 H 0.48495 0.85363 0.66409 0.0
C448 C 0.56384 0.79466 0.77347 0.0
C449 C 0.54803 0.78187 0.7863 0.0
C450 C 0.56044 0.81396 0.75642 0.0
C451 C 0.5412 0.82085 0.7525 0.0
C452 C 0.52539 0.80773 0.76164 0.0
C453 C 0.52877 0.78838 0.77841 0.0
C454 C 0.53754 0.84207 0.74339 0.0
C455 C 0.52561 0.84763 0.69926 0.0
C456 C 0.54559 0.85678 0.77867 0.0
C457 C 0.55729 0.85181 0.82804 0.0
C458 C 0.54936 0.83947 0.86926 0.0
C459 C 0.56053 0.8347 0.91543 0.0
C460 C 0.5796 0.84233 0.92106 0.0
C461 C 0.58751 0.85479 0.88061 0.0
C462 C 0.57641 0.85957 0.83431 0.0
C463 C 0.50041 0.92916 0.71681 0.0
C464 C 0.51535 0.94354 0.71006 0.0
C465 C 0.50503 0.90923 0.72148 0.0
C466 C 0.52464 0.90332 0.71939 0.0
C467 C 0.5396 0.91763 0.71351 0.0
C468 C 0.53501 0.93755 0.70865 0.0
C469 C 0.52957 0.88222 0.72481 0.0
C470 C 0.54169 0.87667 0.76848 0.0
C471 C 0.5216 0.86756 0.68927 0.0
C472 C 0.50945 0.87267 0.64086 0.0
C473 C 0.51655 0.8861 0.60113 0.0
C474 C 0.50497 0.89097 0.55585 0.0
C475 C 0.48631 0.88241 0.54964 0.0
C476 C 0.47921 0.86892 0.58863 0.0
C477 C 0.49073 0.86401 0.63402 0.0
H478 H 0.47737 0.88621 0.51455 0.0
H479 H 0.58823 0.83863 0.95684 0.0
H480 H 0.68894 0.52347 0.07917 0.0
H481 H 0.66476 0.50271 0.03033 0.0
H482 H 0.66763 0.54223 0.89138 0.0
H483 H 0.69164 0.56298 0.93958 0.0
H484 H 0.62813 0.51304 0.99122 0.0
H485 H 0.66446 0.51599 0.7739 0.0
H486 H 0.69771 0.51654 0.73365 0.0
H487 H 0.7201 0.48799 0.87759 0.0
H488 H 0.68695 0.48699 0.91839 0.0
H489 H 0.57997 0.5086 0.71496 0.0
H490 H 0.60995 0.5116 0.76884 0.0
H491 H 0.58956 0.46473 0.87575 0.0
H492 H 0.55925 0.4617 0.8219 0.0
H493 H 0.63997 0.48843 0.80141 0.0
H494 H 0.6013 0.4805 0.00976 0.0
H495 H 0.56813 0.48209 0.05043 0.0
H496 H 0.55092 0.52273 0.92467 0.0
H497 H 0.58407 0.52165 0.88393 0.0
C498 C 0.68443 0.5277 0.03815 0.0
C499 C 0.69219 0.54487 0.0132 0.0
C500 C 0.67065 0.51582 0.01038 0.0
C501 C 0.66466 0.52079 0.95701 0.0
C502 C 0.67234 0.53795 0.93219 0.0
C503 C 0.68596 0.54987 0.95997 0.0
C504 C 0.6497 0.50873 0.92754 0.0
C505 C 0.63083 0.50714 0.95033 0.0
C506 C 0.65324 0.50125 0.87401 0.0
C507 C 0.6732 0.50151 0.84933 0.0
C508 C 0.67645 0.50971 0.79684 0.0
C509 C 0.69529 0.51013 0.77395 0.0
C510 C 0.71101 0.50234 0.80309 0.0
C511 C 0.70792 0.49407 0.85513 0.0
C512 C 0.6891 0.4936 0.87818 0.0
C513 C 0.582 0.49863 0.74924 0.0
C514 C 0.56714 0.48511 0.76468 0.0
C515 C 0.59921 0.5003 0.77984 0.0
C516 C 0.60184 0.48859 0.82671 0.0
C517 C 0.58769 0.47403 0.83996 0.0
C518 C 0.57045 0.47227 0.80904 0.0
C519 C 0.6183 0.49342 0.86433 0.0
C520 C 0.63744 0.49371 0.84303 0.0
C521 C 0.615 0.49984 0.91912 0.0
C522 C 0.59505 0.50072 0.94335 0.0
C523 C 0.59042 0.48977 0.99085 0.0
C524 C 0.57164 0.49059 0.01392 0.0
C525 C 0.55739 0.50239 0.98992 0.0
C526 C 0.56193 0.5135 0.94302 0.0
C527 C 0.58072 0.51279 0.91993 0.0
H528 H 0.54286 0.50301 0.00782 0.0
H529 H 0.72559 0.50269 0.78532 0.0
H530 H 0.90111 0.71547 0.87381 0.0
H531 H 0.91691 0.69079 0.81558 0.0
H532 H 0.95421 0.67477 0.95108 0.0
H533 H 0.93863 0.69944 0.00938 0.0
H534 H 0.97465 0.67803 0.85415 0.0
H535 H 0.91445 0.64688 0.91985 0.0
H536 H 0.87861 0.6442 0.93298 0.0
H537 H 0.87023 0.64491 0.75769 0.0
H538 H 0.90604 0.64782 0.74356 0.0
H539 H 0.0012 0.57926 0.82219 0.0
H540 H 0.98968 0.61205 0.84572 0.0
H541 H 0.9592 0.61503 0.69043 0.0
H542 H 0.97073 0.58197 0.66644 0.0
H543 H 0.93529 0.62201 0.77837 0.0
H544 H 0.99657 0.64658 0.71386 0.0
H545 H 0.0325 0.64816 0.70265 0.0
H546 H 0.03928 0.65916 0.87594 0.0
H547 H 0.0034 0.65735 0.88841 0.0
C548 C 0.91269 0.7067 0.89119 0.0
C549 C 0.91855 0.70932 0.94631 0.0
C550 C 0.92169 0.69262 0.85786 0.0
C551 C 0.93666 0.68092 0.87914 0.0
C552 C 0.94272 0.68371 0.93384 0.0
C553 C 0.93372 0.69773 0.96719 0.0
C554 C 0.94568 0.66527 0.84527 0.0
C555 C 0.9661 0.66574 0.83764 0.0
C556 C 0.93438 0.64962 0.82221 0.0
C557 C 0.91288 0.64785 0.83068 0.0
C558 C 0.90495 0.64665 0.88413 0.0
C559 C 0.88465 0.64506 0.89175 0.0
C560 C 0.87215 0.64452 0.8462 0.0
C561 C 0.87993 0.64542 0.79293 0.0
C562 C 0.90022 0.64703 0.78509 0.0
C563 C 0.99238 0.58702 0.7925 0.0
C564 C 0.98675 0.57798 0.74265 0.0
C565 C 0.9859 0.60583 0.80585 0.0
C566 C 0.97365 0.616 0.76971 0.0
C567 C 0.96871 0.60742 0.71876 0.0
C568 C 0.97536 0.5886 0.70507 0.0
C569 C 0.96437 0.63444 0.78852 0.0
C570 C 0.94386 0.63452 0.79352 0.0
C571 C 0.97561 0.65054 0.80931 0.0
C572 C 0.99725 0.65173 0.80209 0.0
C573 C 0.00571 0.6492 0.74967 0.0
C574 C 0.02608 0.65016 0.74307 0.0
C575 C 0.03817 0.65374 0.78856 0.0
C576 C 0.0299 0.6564 0.84073 0.0
C577 C 0.00954 0.65544 0.84757 0.0
H578 H 0.05393 0.65447 0.78336 0.0
H579 H 0.85644 0.64329 0.85218 0.0
H580 H 0.11997 0.17687 0.39216 0.0
H581 H 0.10554 0.14481 0.41776 0.0
H582 H 0.06229 0.17434 0.51716 0.0
H583 H 0.07732 0.20621 0.49375 0.0
H584 H 0.07573 0.14654 0.57319 0.0
H585 H 0.05214 0.14904 0.38439 0.0
H586 H 0.05418 0.151 0.28323 0.0
H587 H 0.09261 0.10143 0.28008 0.0
H588 H 0.09071 0.09913 0.38139 0.0
H589 H 0.01509 0.06487 0.63402 0.0
H590 H 0.02612 0.09557 0.59043 0.0
H591 H 0.07317 0.06473 0.51037 0.0
H592 H 0.06207 0.03388 0.55286 0.0
H593 H 0.05816 0.09232 0.44372 0.0
H594 H 0.08114 0.08894 0.6302 0.0
H595 H 0.07753 0.08479 0.73067 0.0
H596 H 0.04074 0.13556 0.73808 0.0
H597 H 0.04386 0.13981 0.63746 0.0
C598 C 0.1072 0.17645 0.41877 0.0
C599 C 0.09967 0.19395 0.44083 0.0
C600 C 0.09889 0.15813 0.43325 0.0
C601 C 0.0826 0.15707 0.4689 0.0
C602 C 0.07486 0.17468 0.48976 0.0
C603 C 0.08342 0.1929 0.47634 0.0
C604 C 0.07434 0.13774 0.48771 0.0
C605 C 0.07159 0.13487 0.54459 0.0
C606 C 0.06959 0.12209 0.45095 0.0
C607 C 0.07142 0.12405 0.39041 0.0
C608 C 0.06119 0.13871 0.36214 0.0
C609 C 0.06228 0.13983 0.30472 0.0
C610 C 0.07359 0.12639 0.27518 0.0
C611 C 0.08388 0.11184 0.30301 0.0
C612 C 0.08276 0.11058 0.36038 0.0
C613 C 0.02757 0.06451 0.60634 0.0
C614 C 0.03785 0.04695 0.59754 0.0
C615 C 0.03391 0.0821 0.58169 0.0
C616 C 0.05073 0.08248 0.54826 0.0
C617 C 0.06023 0.06476 0.53637 0.0
C618 C 0.05385 0.04714 0.56077 0.0
C619 C 0.05918 0.10149 0.52858 0.0
C620 C 0.06217 0.10416 0.47194 0.0
C621 C 0.06423 0.11694 0.56552 0.0
C622 C 0.06258 0.11458 0.62619 0.0
C623 C 0.07218 0.09914 0.65319 0.0
C624 C 0.07022 0.09677 0.71017 0.0
C625 C 0.05888 0.10987 0.74071 0.0
C626 C 0.0495 0.1254 0.71435 0.0
C627 C 0.05136 0.12781 0.65735 0.0
H628 H 0.05739 0.10802 0.78481 0.0
H629 H 0.07432 0.1271 0.23074 0.0
H630 H 0.29283 0.95944 0.34904 0.0
H631 H 0.32239 0.9776 0.37832 0.0
H632 H 0.35632 0.92491 0.35796 0.0
H633 H 0.32671 0.90663 0.32889 0.0
H634 H 0.34267 0.96593 0.4731 0.0
H635 H 0.39987 0.93844 0.31819 0.0
H636 H 0.40487 0.93457 0.21788 0.0
H637 H 0.3647 0.98146 0.18756 0.0
H638 H 0.35886 0.98496 0.28728 0.0
H639 H 0.43452 0.96831 0.60045 0.0
H640 H 0.4062 0.95834 0.54546 0.0
H641 H 0.41709 0.00713 0.43507 0.0
H642 H 0.44577 0.01717 0.48964 0.0
H643 H 0.40705 0.97377 0.37909 0.0
H644 H 0.38176 0.01067 0.53027 0.0
H645 H 0.37768 0.01993 0.62792 0.0
H646 H 0.35333 0.96244 0.66307 0.0
H647 H 0.35754 0.95272 0.56576 0.0
C648 C 0.30671 0.95191 0.34906 0.0
C649 C 0.30758 0.9317 0.3362 0.0
C650 C 0.32354 0.96226 0.36609 0.0
C651 C 0.34153 0.95262 0.36984 0.0
C652 C 0.34261 0.93266 0.35458 0.0
C653 C 0.32571 0.92222 0.33837 0.0
C654 C 0.35849 0.96248 0.39684 0.0
C655 C 0.35673 0.96777 0.45253 0.0
C656 C 0.37667 0.96518 0.36977 0.0
C657 C 0.37882 0.96182 0.30992 0.0
C658 C 0.3919 0.94768 0.28992 0.0
C659 C 0.3948 0.94549 0.23318 0.0
C660 C 0.38495 0.95761 0.19625 0.0
C661 C 0.37203 0.97179 0.21598 0.0
C662 C 0.36878 0.97377 0.27256 0.0
C663 C 0.43101 0.97692 0.56437 0.0
C664 C 0.44235 0.99365 0.54972 0.0
C665 C 0.41475 0.97122 0.53308 0.0
C666 C 0.40937 0.9822 0.48679 0.0
C667 C 0.42097 0.99853 0.47086 0.0
C668 C 0.43733 0.00424 0.50214 0.0
C669 C 0.39139 0.97671 0.45585 0.0
C670 C 0.39298 0.97211 0.39965 0.0
C671 C 0.37291 0.97506 0.48229 0.0
C672 C 0.3701 0.98093 0.54076 0.0
C673 C 0.37565 -4e-05 0.55889 0.0
C674 C 0.3733 0.00529 0.61417 0.0
C675 C 0.36528 0.99177 0.6517 0.0
C676 C 0.35955 0.9729 0.63396 0.0
C677 C 0.36189 0.96747 0.57872 0.0
H678 H 0.36349 0.99592 0.69449 0.0
H679 H 0.38746 0.9561 0.15241 0.0
H680 H 0.50988 0.31842 0.22009 0.0
H681 H 0.50552 0.34734 0.27903 0.0
H682 H 0.55124 0.32699 0.38655 0.0
H683 H 0.55494 0.2976 0.329 0.0
H684 H 0.52061 0.33477 0.44463 0.0
H685 H 0.55464 0.36962 0.29771 0.0
H686 H 0.56006 0.38055 0.2019 0.0
H687 H 0.50357 0.40759 0.20097 0.0
H688 H 0.49758 0.39638 0.2961 0.0
H689 H 0.52555 0.41855 0.61965 0.0
H690 H 0.53208 0.39197 0.55425 0.0
H691 H 0.48578 0.41258 0.44912 0.0
H692 H 0.47961 0.43956 0.51342 0.0
H693 H 0.51628 0.40495 0.38924 0.0
H694 H 0.48073 0.37004 0.52916 0.0
H695 H 0.47278 0.35885 0.62333 0.0
H696 H 0.52904 0.33165 0.63548 0.0
H697 H 0.53743 0.34291 0.5416 0.0
C698 C 0.51882 0.32005 0.25663 0.0
C699 C 0.5322 0.30545 0.27123 0.0
C700 C 0.51658 0.33676 0.28981 0.0
C701 C 0.52789 0.33928 0.33771 0.0
C702 C 0.54219 0.32529 0.35017 0.0
C703 C 0.54437 0.30856 0.31711 0.0
C704 C 0.52368 0.35539 0.37747 0.0
C705 C 0.52006 0.35017 0.43262 0.0
C706 C 0.522 0.37538 0.36143 0.0
C707 C 0.52562 0.38203 0.30399 0.0
C708 C 0.5433 0.37773 0.27688 0.0
C709 C 0.54646 0.38396 0.22263 0.0
C710 C 0.53212 0.39466 0.19521 0.0
C711 C 0.51461 0.39918 0.22203 0.0
C712 C 0.51133 0.3929 0.27613 0.0
C713 C 0.51661 0.41729 0.58292 0.0
C714 C 0.50205 0.43116 0.57177 0.0
C715 C 0.52034 0.40206 0.54556 0.0
C716 C 0.50932 0.40016 0.4969 0.0
C717 C 0.49453 0.41378 0.48624 0.0
C718 C 0.49096 0.42915 0.5232 0.0
C719 C 0.51356 0.38432 0.45638 0.0
C720 C 0.51702 0.38956 0.40118 0.0
C721 C 0.51478 0.36429 0.47206 0.0
C722 C 0.50978 0.35749 0.52855 0.0
C723 C 0.49147 0.3618 0.55207 0.0
C724 C 0.48687 0.35543 0.60537 0.0
C725 C 0.50042 0.34459 0.63542 0.0
C726 C 0.51857 0.34007 0.61218 0.0
C727 C 0.52325 0.34643 0.55891 0.0
H728 H 0.49683 0.33966 0.67668 0.0
H729 H 0.53461 0.39951 0.15327 0.0
H730 H 0.20618 0.54439 0.3995 0.0
H731 H 0.17507 0.53153 0.4352 0.0
H732 H 0.14629 0.58439 0.38133 0.0
H733 H 0.17786 0.59783 0.34908 0.0
H734 H 0.13585 0.57779 0.47828 0.0
H735 H 0.12869 0.52987 0.31906 0.0
H736 H 0.13948 0.50344 0.25602 0.0
H737 H 0.16458 0.47237 0.39175 0.0
H738 H 0.15268 0.49786 0.4561 0.0
H739 H 0.04007 0.54331 0.54527 0.0
H740 H 0.06896 0.55338 0.49193 0.0
H741 H 0.10196 0.50646 0.56508 0.0
H742 H 0.07312 0.49611 0.61817 0.0
H743 H 0.10918 0.5097 0.45526 0.0
H744 H 0.10701 0.55304 0.61266 0.0
H745 H 0.09173 0.5769 0.67584 0.0
H746 H 0.08447 0.6175 0.54213 0.0
H747 H 0.09947 0.59375 0.47797 0.0
C748 C 0.19311 0.55308 0.39447 0.0
C749 C 0.19432 0.57204 0.37144 0.0
C750 C 0.17522 0.5456 0.41424 0.0
C751 C 0.15806 0.55669 0.40985 0.0
C752 C 0.15925 0.57546 0.38514 0.0
C753 C 0.17725 0.58317 0.36679 0.0
C754 C 0.1395 0.54986 0.43669 0.0
C755 C 0.12984 0.56302 0.4721 0.0
C756 C 0.13185 0.5304 0.43069 0.0
C757 C 0.14026 0.51594 0.39201 0.0
C758 C 0.13673 0.51751 0.33526 0.0
C759 C 0.1429 0.50265 0.29939 0.0
C760 C 0.15315 0.48653 0.31961 0.0
C761 C 0.15683 0.48496 0.37602 0.0
C762 C 0.15015 0.49946 0.41229 0.0
C763 C 0.05343 0.53502 0.54981 0.0
C764 C 0.0543 0.51897 0.58635 0.0
C765 C 0.06994 0.54086 0.5194 0.0
C766 C 0.08766 0.53083 0.52516 0.0
C767 C 0.08843 0.51443 0.56018 0.0
C768 C 0.07193 0.50857 0.59061 0.0
C769 C 0.10555 0.53772 0.49573 0.0
C770 C 0.1151 0.52456 0.46049 0.0
C771 C 0.11306 0.5572 0.50182 0.0
C772 C 0.10417 0.57154 0.54042 0.0
C773 C 0.10202 0.567 0.59665 0.0
C774 C 0.09343 0.58051 0.63265 0.0
C775 C 0.08709 0.59868 0.61298 0.0
C776 C 0.08937 0.6034 0.55729 0.0
C777 C 0.09792 0.58993 0.5211 0.0
H778 H 0.08044 0.60912 0.64091 0.0
H779 H 0.15802 0.47513 0.29163 0.0
H780 H 0.91725 0.8215 0.0483 0.0
H781 H 0.93813 0.85039 0.02967 0.0
H782 H 0.98956 0.81607 0.06238 0.0
H783 H 0.96881 0.78682 0.0765 0.0
H784 H 0.96394 0.87274 0.08128 0.0
H785 H 0.02627 0.83053 0.97621 0.0
H786 H 0.03199 0.79874 0.92927 0.0
H787 H 0.97159 0.79577 0.8796 0.0
H788 H 0.9656 0.82763 0.92566 0.0
H789 H 0.04392 0.92912 0.90601 0.0
H790 H 0.03429 0.9021 0.96899 0.0
H791 H 0.97396 0.90806 0.91963 0.0
H792 H 0.98344 0.93442 0.85623 0.0
H793 H 0.0118 0.8658 0.92832 0.0
H794 H 0.94763 0.904 0.0385 0.0
H795 H 0.93976 0.937 0.07474 0.0
H796 H 0.00099 0.94947 0.10106 0.0
H797 H 0.00922 0.91648 0.06548 0.0
C798 C 0.93301 0.82017 0.05194 0.0
C799 C 0.94134 0.80195 0.06499 0.0
C800 C 0.94493 0.83673 0.04179 0.0
C801 C 0.96545 0.83542 0.04433 0.0
C802 C 0.97378 0.81744 0.05979 0.0
C803 C 0.96186 0.80078 0.06901 0.0
C804 C 0.97789 0.85237 0.02578 0.0
C805 C 0.97446 0.87118 0.04803 0.0
C806 C 0.99201 0.85037 0.98318 0.0
C807 C 0.99545 0.83128 0.95505 0.0
C808 C 0.01424 0.82308 0.95521 0.0
C809 C 0.01752 0.80506 0.92875 0.0
C810 C 0.00214 0.7952 0.90169 0.0
C811 C 0.98347 0.80338 0.90079 0.0
C812 C 0.98012 0.8214 0.92709 0.0
C813 C 0.02861 0.92475 0.90924 0.0
C814 C 0.01443 0.93371 0.87609 0.0
C815 C 0.02316 0.90936 0.94499 0.0
C816 C 0.00342 0.90326 0.94902 0.0
C817 C 0.98924 0.9127 0.91736 0.0
C818 C 0.99469 0.92767 0.88098 0.0
C819 C 0.99733 0.88606 0.98266 0.0
C820 C 0.00184 0.86721 0.96301 0.0
C821 C 0.98392 0.88807 0.02666 0.0
C822 C 0.97904 0.90779 0.04913 0.0
C823 C 0.95941 0.91374 0.05228 0.0
C824 C 0.95489 0.93247 0.07258 0.0
C825 C 0.96987 0.94534 0.09007 0.0
C826 C 0.98941 0.93951 0.08732 0.0
C827 C 0.99401 0.92082 0.06697 0.0
H828 H 0.96633 0.95982 0.10585 0.0
H829 H 0.00471 0.78124 0.88128 0.0
H830 H 0.69946 0.99745 0.90477 0.0
H831 H 0.66857 0.01488 0.89667 0.0
H832 H 0.65334 0.99859 0.06338 0.0
H833 H 0.68429 0.98078 0.07123 0.0
H834 H 0.62402 0.99015 0.99331 0.0
H835 H 0.66078 0.04725 0.03572 0.0
H836 H 0.68901 0.07048 0.03436 0.0
H837 H 0.67972 0.08118 0.86214 0.0
H838 H 0.65163 0.05775 0.86223 0.0
H839 H 0.53646 0.03405 0.89047 0.0
H840 H 0.56442 0.03336 0.95451 0.0
H841 H 0.60435 0.03293 0.81636 0.0
H842 H 0.57671 0.03325 0.75287 0.0
H843 H 0.61806 0.05612 0.90705 0.0
H844 H 0.58838 0.99054 0.86594 0.0
H845 H 0.56075 0.96653 0.86815 0.0
H846 H 0.55693 0.9727 0.04402 0.0
H847 H 0.5844 0.99696 0.04265 0.0
C848 C 0.68967 0.99788 0.93997 0.0
C849 C 0.69438 0.98811 0.98891 0.0
C850 C 0.6721 0.00797 0.93554 0.0
C851 C 0.6588 0.00839 0.97983 0.0
C852 C 0.66351 0.9987 0.029 0.0
C853 C 0.68125 0.9887 0.0336 0.0
C854 C 0.63926 0.01719 0.97161 0.0
C855 C 0.6226 0.00485 0.97626 0.0
C856 C 0.63736 0.03638 0.94955 0.0
C857 C 0.65412 0.05067 0.94901 0.0
C858 C 0.66484 0.05445 0.99747 0.0
C859 C 0.68081 0.06768 0.99693 0.0
C860 C 0.68616 0.0773 0.94818 0.0
C861 C 0.67554 0.07373 0.89989 0.0
C862 C 0.65956 0.06051 0.9002 0.0
C863 C 0.55125 0.03435 0.87406 0.0
C864 C 0.55451 0.03353 0.8169 0.0
C865 C 0.56715 0.03392 0.91055 0.0
C866 C 0.58641 0.03302 0.89005 0.0
C867 C 0.58962 0.03372 0.83301 0.0
C868 C 0.57382 0.03378 0.79678 0.0
C869 C 0.60324 0.02868 0.92622 0.0
C870 C 0.61937 0.04182 0.92658 0.0
C871 C 0.60464 0.01031 0.95339 0.0
C872 C 0.5882 0.99574 0.95411 0.0
C873 C 0.58152 0.98689 0.90499 0.0
C874 C 0.56592 0.97322 0.9061 0.0
C875 C 0.55704 0.96815 0.95617 0.0
C876 C 0.56378 0.97669 0.00525 0.0
C877 C 0.57935 0.9904 0.00433 0.0
H878 H 0.54497 0.95756 0.95696 0.0
H879 H 0.69854 0.08752 0.94782 0.0
H880 H 0.56464 0.70211 0.94472 0.0
H881 H 0.55247 0.67009 0.91122 0.0
H882 H 0.49825 0.67809 -0.00015 0.0
H883 H 0.51029 0.71041 0.03275 0.0
H884 H 0.51305 0.63905 0.0065 0.0
H885 H 0.49768 0.68706 0.8696 0.0
H886 H 0.50523 0.71535 0.80896 0.0
H887 H 0.54856 0.68139 0.72415 0.0
H888 H 0.54153 0.653 0.78496 0.0
H889 H 0.47238 0.55757 0.84493 0.0
H890 H 0.47614 0.58971 0.89141 0.0
H891 H 0.53235 0.59854 0.8125 0.0
H892 H 0.52876 0.56694 0.76612 0.0
H893 H 0.51007 0.6307 0.80343 0.0
H894 H 0.52877 0.58473 0.94598 0.0
H895 H 0.52347 0.55682 0.00963 0.0
H896 H 0.47518 0.58679 0.08451 0.0
H897 H 0.48002 0.61477 0.02066 0.0
C898 C 0.55012 0.69704 0.95693 0.0
C899 C 0.53835 0.70872 0.99095 0.0
C900 C 0.54323 0.67874 0.93809 0.0
C901 C 0.52439 0.67186 0.95264 0.0
C902 C 0.51284 0.68315 0.9883 0.0
C903 C 0.51975 0.70153 0.00714 0.0
C904 C 0.51656 0.65336 0.92788 0.0
C905 C 0.51199 0.63727 0.96216 0.0
C906 C 0.51534 0.6511 0.87004 0.0
C907 C 0.51914 0.66792 0.83207 0.0
C908 C 0.50887 0.68564 0.83817 0.0
C909 C 0.51307 0.70171 0.80379 0.0
C910 C 0.52739 0.70018 0.7628 0.0
C911 C 0.53748 0.68255 0.75594 0.0
C912 C 0.53337 0.66646 0.79031 0.0
C913 C 0.48554 0.56637 0.83765 0.0
C914 C 0.50022 0.55967 0.80162 0.0
C915 C 0.48768 0.58469 0.86429 0.0
C916 C 0.50453 0.59651 0.8553 0.0
C917 C 0.51917 0.58974 0.81973 0.0
C918 C 0.51708 0.57157 0.79333 0.0
C919 C 0.5072 0.61609 0.88191 0.0
C920 C 0.51073 0.6325 0.84784 0.0
C921 C 0.50753 0.61855 0.93986 0.0
C922 C 0.50457 0.60171 0.97803 0.0
C923 C 0.51689 0.58528 0.97562 0.0
C924 C 0.514 0.56946 0.01182 0.0
C925 C 0.49895 0.57 0.05095 0.0
C926 C 0.48679 0.58637 0.05407 0.0
C927 C 0.4896 0.60221 0.01789 0.0
H928 H 0.49674 0.55775 0.07897 0.0
H929 H 0.53065 0.71265 0.73631 0.0
H930 H 0.80751 0.57621 0.05017 0.0
H931 H 0.83868 0.56491 0.01194 0.0
H932 H 0.81336 0.50664 0.988 0.0
H933 H 0.78246 0.51779 0.02782 0.0
H934 H 0.84853 0.50317 0.02655 0.0
H935 H 0.82032 0.54054 0.88006 0.0
H936 H 0.80569 0.56943 0.83542 0.0
H937 H 0.85779 0.60387 0.86897 0.0
H938 H 0.87261 0.57528 0.91453 0.0
H939 H 0.92115 0.47633 0.8154 0.0
H940 H 0.89053 0.48332 0.8648 0.0
H941 H 0.9183 0.53372 0.94275 0.0
H942 H 0.94887 0.52674 0.89517 0.0
H943 H 0.88185 0.53994 0.87556 0.0
H944 H 0.90935 0.5017 0.02347 0.0
H945 H 0.92366 0.47206 0.06495 0.0
H946 H 0.87205 0.43814 0.02262 0.0
H947 H 0.85755 0.46754 0.98014 0.0
C948 C 0.80869 0.561 0.03674 0.0
C949 C 0.79276 0.54778 0.04245 0.0
C950 C 0.82643 0.55457 0.0147 0.0
C951 C 0.82832 0.53496 0.99646 0.0
C952 C 0.81231 0.52179 0.00198 0.0
C953 C 0.79469 0.52815 0.0248 0.0
C954 C 0.84696 0.52813 0.97172 0.0
C955 C 0.85564 0.51108 0.99297 0.0
C956 C 0.85644 0.53855 0.92838 0.0
C957 C 0.8475 0.55581 0.90121 0.0
C958 C 0.82859 0.55432 0.87833 0.0
C959 C 0.82027 0.57065 0.85279 0.0
C960 C 0.83078 0.5885 0.84949 0.0
C961 C 0.84965 0.59006 0.87163 0.0
C962 C 0.85802 0.57379 0.89729 0.0
C963 C 0.92085 0.48864 0.84395 0.0
C964 C 0.93745 0.50103 0.85098 0.0
C965 C 0.90338 0.49259 0.8721 0.0
C966 C 0.90225 0.50907 0.90708 0.0
C967 C 0.91895 0.52095 0.91585 0.0
C968 C 0.93643 0.51686 0.88859 0.0
C969 C 0.88329 0.51516 0.93056 0.0
C970 C 0.87459 0.53204 0.90893 0.0
C971 C 0.87372 0.50447 0.97292 0.0
C972 C 0.88249 0.48675 0.99792 0.0
C973 C 0.90116 0.48786 0.02236 0.0
C974 C 0.90928 0.47112 0.04624 0.0
C975 C 0.8988 0.4532 0.04623 0.0
C976 C 0.88017 0.45201 0.02247 0.0
C977 C 0.87199 0.46871 0.99852 0.0
H978 H 0.9051 0.44026 0.06478 0.0
H979 H 0.82433 0.60112 0.82966 0.0
H980 H 0.11125 0.16065 0.15036 0.0
H981 H 0.10249 0.1365 0.07948 0.0
H982 H 0.04135 0.14167 0.12322 0.0
H983 H 0.04992 0.16691 0.19112 0.0
H984 H 0.08904 0.10248 0.08629 0.0
H985 H 0.01115 0.12811 0.02228 0.0
H986 H 0.99342 0.15918 0.00888 0.0
H987 H 0.04799 0.19021 0.98127 0.0
H988 H 0.06603 0.1593 0.9938 0.0
H989 H 0.04303 0.0224 0.94959 0.0
H990 H 0.05093 0.04978 0.01238 0.0
H991 H 0.04824 0.09065 0.87632 0.0
H992 H 0.03898 0.06357 0.81477 0.0
H993 H 0.03357 0.10762 0.95566 0.0
H994 H 0.09323 0.0726 0.93554 0.0
H995 H 0.11497 0.04388 0.93647 0.0
H996 H 0.10425 0.03615 0.10957 0.0
H997 H 0.08223 0.06469 0.10952 0.0
C998 C 0.0959 0.1569 0.14416 0.0
C999 C 0.08129 0.16558 0.17664 0.0
C1000 C 0.09091 0.14298 0.10382 0.0
C1001 C 0.07124 0.13721 0.09566 0.0
C1002 C 0.05659 0.14613 0.12758 0.0
C1003 C 0.06153 0.16047 0.16684 0.0
C1004 C 0.0662 0.12118 0.05586 0.0
C1005 C 0.07698 0.1037 0.05751 0.0
C1006 C 0.05069 0.12276 0.01749 0.0
C1007 C 0.03994 0.14141 0.00954 0.0
C1008 C 0.01936 0.14155 0.01316 0.0
C1009 C 0.00926 0.15914 0.00575 0.0
C1010 C 0.01958 0.17667 0.99441 0.0
C1011 C 0.04002 0.17664 0.99027 0.0
C1012 C 0.05019 0.15909 0.9976 0.0
C1013 C 0.04405 0.03728 0.93344 0.0
C1014 C 0.0404 0.04094 0.87758 0.0
C1015 C 0.0487 0.05291 0.96913 0.0
C1016 C 0.05059 0.07233 0.94901 0.0
C1017 C 0.04684 0.07589 0.89307 0.0
C1018 C 0.04158 0.06039 0.85786 0.0
C1019 C 0.05649 0.08897 0.98588 0.0
C1020 C 0.04576 0.10649 0.98408 0.0
C1021 C 0.07268 0.08781 0.02213 0.0
C1022 C 0.08593 0.07066 0.02239 0.0
C1023 C 0.09541 0.06469 0.97372 0.0
C1024 C 0.10779 0.04846 0.9741 0.0
C1025 C 0.11095 0.03816 0.02302 0.0
C1026 C 0.10176 0.04412 0.07169 0.0
C1027 C 0.08934 0.06033 0.07153 0.0
H1028 H 0.12054 0.0256 0.02323 0.0
H1029 H 0.01173 0.19026 0.98872 0.0
H1030 H 0.31493 -0.00086 0.13642 0.0
H1031 H 0.33812 0.01267 0.06847 0.0
H1032 H 0.36594 0.95605 0.05697 0.0
H1033 H 0.34261 0.94235 0.12322 0.0
H1034 H 0.37623 0.01799 0.06658 0.0
H1035 H 0.38227 0.94705 0.9317 0.0
H1036 H 0.36126 0.91901 0.90186 0.0
H1037 H 0.30993 0.95384 0.92654 0.0
H1038 H 0.33064 0.98216 0.9558 0.0
H1039 H 0.46315 0.02018 0.90302 0.0
H1040 H 0.43584 0.01495 0.96768 0.0
H1041 H 0.39558 0.01056 0.83073 0.0
H1042 H 0.42303 0.01435 0.7666 0.0
H1043 H 0.38817 0.98238 0.8912 0.0
H1044 H 0.39713 0.05083 0.92915 0.0
H1045 H 0.41502 0.08162 0.95295 0.0
H1046 H 0.43069 0.05733 0.10972 0.0
H1047 H 0.41311 0.02628 0.08657 0.0
C1048 C 0.32592 0.98956 0.11908 0.0
C1049 C 0.32687 0.96965 0.13498 0.0
C1050 C 0.33922 0.99734 0.08051 0.0
C1051 C 0.35363 0.98532 0.0571 0.0
C1052 C 0.3547 0.96551 0.0735 0.0
C1053 C 0.34137 0.95771 0.11163 0.0
C1054 C 0.3676 0.99331 0.01543 0.0
C1055 C 0.3788 0.01032 0.02802 0.0
C1056 C 0.37058 0.9836 0.96449 0.0
C1057 C 0.35802 0.96668 0.94638 0.0
C1058 C 0.36651 0.94876 0.93051 0.0
C1059 C 0.35465 0.93281 0.91375 0.0
C1060 C 0.33427 0.93463 0.91245 0.0
C1061 C 0.32571 0.95243 0.92774 0.0
C1062 C 0.3375 0.96842 0.94449 0.0
C1063 C 0.44838 0.01843 0.88715 0.0
C1064 C 0.44504 0.0176 0.83022 0.0
C1065 C 0.43275 0.01555 0.92399 0.0
C1066 C 0.41352 0.01246 0.90427 0.0
C1067 C 0.41022 0.01274 0.84714 0.0
C1068 C 0.42586 0.015 0.8105 0.0
C1069 C 0.39716 0.00703 0.94233 0.0
C1070 C 0.38553 0.99033 0.92928 0.0
C1071 C 0.39335 0.0175 0.99174 0.0
C1072 C 0.40393 0.03616 0.00591 0.0
C1073 C 0.40451 0.052 0.96854 0.0
C1074 C 0.41458 0.06951 0.98194 0.0
C1075 C 0.42402 0.07142 0.03276 0.0
C1076 C 0.42338 0.05583 0.07035 0.0
C1077 C 0.41334 0.03827 0.05714 0.0
H1078 H 0.43181 0.08499 0.04306 0.0
H1079 H 0.32512 0.92226 0.89949 0.0
H1080 H 0.46793 0.36751 0.26719 0.0
H1081 H 0.46298 0.39702 0.21133 0.0
H1082 H 0.44059 0.36058 0.07872 0.0
H1083 H 0.44531 0.33117 0.13434 0.0
H1084 H 0.4832 0.40299 0.12066 0.0
H1085 H 0.41225 0.38593 0.99303 0.0
H1086 H 0.37887 0.37257 0.009 0.0
H1087 H 0.38252 0.3891 0.17965 0.0
H1088 H 0.41581 0.40283 0.16461 0.0
H1089 H 0.49192 0.4305 0.84798 0.0
H1090 H 0.48377 0.41306 0.9327 0.0
H1091 H 0.44266 0.45821 0.97631 0.0
H1092 H 0.4507 0.47595 0.89094 0.0
H1093 H 0.42831 0.42001 0.99672 0.0
H1094 H 0.48473 0.45909 0.03862 0.0
H1095 H 0.51791 0.47331 0.02507 0.0
H1096 H 0.54247 0.41548 0.03479 0.0
H1097 H 0.50943 0.40084 0.04725 0.0
C1098 C 0.4613 0.36586 0.22688 0.0
C1099 C 0.45714 0.34701 0.20492 0.0
C1100 C 0.45855 0.38274 0.19493 0.0
C1101 C 0.45136 0.38104 0.14087 0.0
C1102 C 0.44585 0.36233 0.12056 0.0
C1103 C 0.4487 0.34548 0.15229 0.0
C1104 C 0.45261 0.39803 0.1025 0.0
C1105 C 0.47109 0.40699 0.09433 0.0
C1106 C 0.43675 0.40341 0.06846 0.0
C1107 C 0.41661 0.39535 0.07768 0.0
C1108 C 0.4059 0.38685 0.0339 0.0
C1109 C 0.38699 0.37917 0.04281 0.0
C1110 C 0.37859 0.37995 0.09532 0.0
C1111 C 0.38907 0.38845 0.13902 0.0
C1112 C 0.40798 0.39615 0.13034 0.0
C1113 C 0.48104 0.43675 0.87523 0.0
C1114 C 0.47207 0.45474 0.86272 0.0
C1115 C 0.47647 0.42677 0.92383 0.0
C1116 C 0.46287 0.43453 0.96114 0.0
C1117 C 0.4533 0.45208 0.94812 0.0
C1118 C 0.45793 0.46217 0.89937 0.0
C1119 C 0.45907 0.42418 0.01386 0.0
C1120 C 0.44021 0.41644 0.02436 0.0
C1121 C 0.47453 0.42009 0.05067 0.0
C1122 C 0.49452 0.42884 0.04346 0.0
C1123 C 0.49718 0.44937 0.0374 0.0
C1124 C 0.51598 0.45751 0.02995 0.0
C1125 C 0.53228 0.4453 0.0289 0.0
C1126 C 0.52983 0.42492 0.0355 0.0
C1127 C 0.51106 0.4167 0.0428 0.0
H1128 H 0.54682 0.45161 0.02303 0.0
H1129 H 0.36396 0.37399 0.10213 0.0
H1130 H 0.18141 0.50302 0.16702 0.0
H1131 H 0.1561 0.4916 0.10213 0.0
H1132 H 0.11957 0.54013 0.15006 0.0
H1133 H 0.14466 0.55164 0.21466 0.0
H1134 H 0.09897 0.50421 0.14187 0.0
H1135 H 0.14598 0.54359 0.03594 0.0
H1136 H 0.17902 0.55177 0.00017 0.0
H1137 H 0.18204 0.49458 0.92405 0.0
H1138 H 0.1491 0.48597 0.96004 0.0
H1139 H 0.03295 0.52221 0.92716 0.0
H1140 H 0.05789 0.52238 0.99885 0.0
H1141 H 0.08927 0.47703 0.91201 0.0
H1142 H 0.06456 0.4771 0.83915 0.0
H1143 H 0.11356 0.50519 0.94149 0.0
H1144 H 0.06486 0.46725 0.03477 0.0
H1145 H 0.03197 0.45834 0.07019 0.0
H1146 H 0.03205 0.51068 0.17042 0.0
H1147 H 0.06482 0.52008 0.135 0.0
C1148 C 0.16797 0.51122 0.16378 0.0
C1149 C 0.16509 0.52831 0.19562 0.0
C1150 C 0.15355 0.50467 0.12678 0.0
C1151 C 0.13604 0.51509 0.12125 0.0
C1152 C 0.13298 0.53188 0.15386 0.0
C1153 C 0.1474 0.53851 0.19043 0.0
C1154 C 0.12114 0.50916 0.07993 0.0
C1155 C 0.10207 0.50447 0.098 0.0
C1156 C 0.12545 0.50885 0.02293 0.0
C1157 C 0.14521 0.51405 0.00124 0.0
C1158 C 0.15377 0.5327 0.01199 0.0
C1159 C 0.17246 0.53743 0.9916 0.0
C1160 C 0.18265 0.52368 0.96002 0.0
C1161 C 0.17415 0.5052 0.94863 0.0
C1162 C 0.15547 0.50039 0.96899 0.0
C1163 C 0.04503 0.51211 0.92347 0.0
C1164 C 0.04678 0.49968 0.87729 0.0
C1165 C 0.05924 0.51213 0.96477 0.0
C1166 C 0.07534 0.49953 0.96123 0.0
C1167 C 0.07695 0.48684 0.91567 0.0
C1168 C 0.0628 0.48691 0.87408 0.0
C1169 C 0.09112 0.50069 0.00318 0.0
C1170 C 0.11041 0.50451 0.9853 0.0
C1171 C 0.08702 0.50002 0.06039 0.0
C1172 C 0.06727 0.49444 0.08189 0.0
C1173 C 0.05781 0.47695 0.06404 0.0
C1174 C 0.03919 0.4718 0.08418 0.0
C1175 C 0.02992 0.48395 0.12246 0.0
C1176 C 0.03925 0.50128 0.14075 0.0
C1177 C 0.05787 0.50652 0.12071 0.0
H1178 H 0.0155 0.47994 0.13801 0.0
H1179 H 0.19711 0.52737 0.94425 0.0
H1180 H 0.95206 0.83856 0.27735 0.0
H1181 H 0.96851 0.86278 0.33625 0.0
H1182 H 0.02329 0.83271 0.31436 0.0
H1183 H 0.00669 0.80792 0.25627 0.0
H1184 H 0.01851 0.8428 0.41893 0.0
H1185 H 0.01463 0.87652 0.24754 0.0
H1186 H 0.99787 0.88769 0.16348 0.0
H1187 H 0.95864 0.92213 0.26169 0.0
H1188 H 0.9749 0.91092 0.34637 0.0
H1189 H 0.04446 0.95157 0.51609 0.0
H1190 H 0.04227 0.9265 0.44321 0.0
H1191 H 0.00354 0.89119 0.54522 0.0
H1192 H 0.00561 0.91599 0.6179 0.0
H1193 H 0.00946 0.91449 0.38823 0.0
H1194 H 0.01049 0.8442 0.52489 0.0
H1195 H 0.028 0.83179 0.60631 0.0
H1196 H 0.07701 0.87027 0.57012 0.0
H1197 H 0.0597 0.88313 0.489 0.0
C1198 C 0.96762 0.83709 0.28486 0.0
C1199 C 0.97809 0.82136 0.26199 0.0
C1200 C 0.97704 0.85103 0.31833 0.0
C1201 C 0.99722 0.8498 0.3288 0.0
C1202 C 0.00773 0.83401 0.3065 0.0
C1203 C 0.99824 0.81988 0.27334 0.0
C1204 C 0.00701 0.8648 0.36439 0.0
C1205 C 0.01673 0.85848 0.41191 0.0
C1206 C 0.00519 0.88529 0.35443 0.0
C1207 C 0.99596 0.8928 0.30338 0.0
C1208 C 0.00242 0.88646 0.25123 0.0
C1209 C 0.99298 0.89278 0.20347 0.0
C1210 C 0.97717 0.90555 0.20736 0.0
C1211 C 0.97088 0.91222 0.25885 0.0
C1212 C 0.98023 0.90592 0.30672 0.0
C1213 C 0.03559 0.9384 0.52313 0.0
C1214 C 0.02508 0.93586 0.57268 0.0
C1215 C 0.03439 0.92409 0.48149 0.0
C1216 C 0.02292 0.90691 0.48907 0.0
C1217 C 0.01275 0.90419 0.53886 0.0
C1218 C 0.01381 0.9185 0.58021 0.0
C1219 C 0.02013 0.89242 0.44384 0.0
C1220 C 0.01169 0.89884 0.39452 0.0
C1221 C 0.02343 0.87206 0.45165 0.0
C1222 C 0.03375 0.86467 0.50102 0.0
C1223 C 0.025 0.85003 0.53437 0.0
C1224 C 0.03485 0.84299 0.58062 0.0
C1225 C 0.05355 0.85035 0.59361 0.0
C1226 C 0.06243 0.86477 0.56042 0.0
C1227 C 0.05257 0.87201 0.51445 0.0
H1228 H 0.0612 0.84482 0.62927 0.0
H1229 H 0.96972 0.91025 0.17056 0.0
H1230 H 0.68302 0.00707 0.26543 0.0
H1231 H 0.65551 0.01072 0.32871 0.0
H1232 H 0.62654 0.04806 0.21174 0.0
H1233 H 0.65417 0.04455 0.14771 0.0
H1234 H 0.62228 0.06018 0.32548 0.0
H1235 H 0.61242 0.00343 0.21112 0.0
H1236 H 0.62196 0.97265 0.16453 0.0
H1237 H 0.63152 0.94525 0.32133 0.0
H1238 H 0.62236 0.976 0.36889 0.0
H1239 H 0.53057 0.04187 0.46809 0.0
H1240 H 0.55512 0.0452 0.39455 0.0
H1241 H 0.59298 0.00556 0.48133 0.0
H1242 H 0.56868 0.00209 0.5546 0.0
H1243 H 0.58947 0.9963 0.37162 0.0
H1244 H 0.60231 0.05431 0.48471 0.0
H1245 H 0.59319 0.08527 0.53106 0.0
H1246 H 0.57707 0.11023 0.37547 0.0
H1247 H 0.58602 0.07932 0.32819 0.0
C1248 C 0.67097 0.01632 0.25333 0.0
C1249 C 0.67067 0.02532 0.20125 0.0
C1250 C 0.65526 0.01838 0.28959 0.0
C1251 C 0.63891 0.02941 0.27445 0.0
C1252 C 0.63904 0.03946 0.224 0.0
C1253 C 0.65481 0.03739 0.18751 0.0
C1254 C 0.62118 0.02887 0.30968 0.0
C1255 C 0.61484 0.0463 0.33488 0.0
C1256 C 0.61159 0.01072 0.32194 0.0
C1257 C 0.61684 0.99208 0.29356 0.0
C1258 C 0.61669 0.99089 0.23568 0.0
C1259 C 0.62202 0.97344 0.20908 0.0
C1260 C 0.62738 0.95701 0.23995 0.0
C1261 C 0.62737 0.95799 0.29748 0.0
C1262 C 0.62209 0.97542 0.32428 0.0
C1263 C 0.5441 0.03381 0.47138 0.0
C1264 C 0.54766 0.02169 0.51719 0.0
C1265 C 0.55813 0.03582 0.4295 0.0
C1266 C 0.57588 0.0257 0.43274 0.0
C1267 C 0.57936 0.01348 0.47809 0.0
C1268 C 0.56546 0.01156 0.52 0.0
C1269 C 0.59091 0.0275 0.38887 0.0
C1270 C 0.5967 0.01025 0.36174 0.0
C1271 C 0.59986 0.04582 0.37475 0.0
C1272 C 0.59463 0.06444 0.40302 0.0
C1273 C 0.59669 0.06636 0.46044 0.0
C1274 C 0.59158 0.08391 0.48686 0.0
C1275 C 0.58447 0.09969 0.45628 0.0
C1276 C 0.58255 0.09798 0.39913 0.0
C1277 C 0.58767 0.08046 0.37248 0.0
H1278 H 0.5805 0.11326 0.47681 0.0
H1279 H 0.6315 0.94352 0.21929 0.0
H1280 H 0.51064 0.65409 0.18699 0.0
H1281 H 0.50752 0.62345 0.23949 0.0
H1282 H 0.55481 0.64279 0.34565 0.0
H1283 H 0.55835 0.67324 0.2926 0.0
H1284 H 0.55874 0.60495 0.31845 0.0
H1285 H 0.5064 0.64577 0.38559 0.0
H1286 H 0.47692 0.66615 0.37723 0.0
H1287 H 0.4451 0.61695 0.30711 0.0
H1288 H 0.47448 0.59634 0.31444 0.0
H1289 H 0.542 0.54999 0.5619 0.0
H1290 H 0.54714 0.57413 0.4888 0.0
H1291 H 0.50015 0.5471 0.39493 0.0
H1292 H 0.4947 0.52296 0.46828 0.0
H1293 H 0.49541 0.58615 0.40642 0.0
H1294 H 0.54731 0.54422 0.35019 0.0
H1295 H 0.57681 0.52412 0.36166 0.0
H1296 H 0.60963 0.57547 0.41398 0.0
H1297 H 0.58024 0.59586 0.40359 0.0
C1298 C 0.52035 0.65184 0.22159 0.0
C1299 C 0.53468 0.66613 0.23589 0.0
C1300 C 0.51853 0.63433 0.25156 0.0
C1301 C 0.5308 0.63094 0.2968 0.0
C1302 C 0.54522 0.64511 0.31081 0.0
C1303 C 0.54716 0.66253 0.28061 0.0
C1304 C 0.52852 0.61278 0.33018 0.0
C1305 C 0.54494 0.6009 0.33807 0.0
C1306 C 0.51036 0.60721 0.3544 0.0
C1307 C 0.49269 0.61959 0.34997 0.0
C1308 C 0.49316 0.63935 0.36798 0.0
C1309 C 0.47646 0.65093 0.3635 0.0
C1310 C 0.45917 0.64287 0.34149 0.0
C1311 C 0.45852 0.62319 0.32405 0.0
C1312 C 0.47518 0.61155 0.32838 0.0
C1313 C 0.53295 0.54894 0.52535 0.0
C1314 C 0.51783 0.53462 0.52116 0.0
C1315 C 0.53599 0.5627 0.48343 0.0
C1316 C 0.52408 0.56234 0.43635 0.0
C1317 C 0.5095 0.54761 0.43097 0.0
C1318 C 0.50644 0.5338 0.4729 0.0
C1319 C 0.52571 0.57846 0.39547 0.0
C1320 C 0.50915 0.59 0.38619 0.0
C1321 C 0.54377 0.58375 0.37029 0.0
C1322 C 0.56151 0.57155 0.37646 0.0
C1323 C 0.56077 0.55121 0.36455 0.0
C1324 C 0.57749 0.53976 0.37078 0.0
C1325 C 0.59507 0.5485 0.38863 0.0
C1326 C 0.59599 0.56872 0.40018 0.0
C1327 C 0.57931 0.58023 0.39404 0.0
H1328 H 0.608 0.53962 0.39343 0.0
H1329 H 0.44626 0.65186 0.33808 0.0
H1330 H 0.81981 0.48295 0.24963 0.0
H1331 H 0.84553 0.47709 0.3174 0.0
H1332 H 0.88153 0.52283 0.24317 0.0
H1333 H 0.85612 0.52847 0.17456 0.0
H1334 H 0.90369 0.49285 0.27678 0.0
H1335 H 0.85275 0.53278 0.35437 0.0
H1336 H 0.81876 0.54074 0.38003 0.0
H1337 H 0.81533 0.48912 0.48218 0.0
H1338 H 0.84924 0.48071 0.45651 0.0
H1339 H 0.96231 0.52298 0.5056 0.0
H1340 H 0.93955 0.5209 0.42808 0.0
H1341 H 0.90752 0.47378 0.50916 0.0
H1342 H 0.93007 0.47581 0.58707 0.0
H1343 H 0.88348 0.50196 0.47165 0.0
H1344 H 0.93645 0.46412 0.39925 0.0
H1345 H 0.97072 0.45745 0.37364 0.0
H1346 H 0.97087 0.50657 0.26215 0.0
H1347 H 0.93668 0.51372 0.2877 0.0
C1348 C 0.83332 0.49155 0.24719 0.0
C1349 C 0.8358 0.50639 0.20727 0.0
C1350 C 0.84798 0.48823 0.28606 0.0
C1351 C 0.86526 0.49982 0.28602 0.0
C1352 C 0.86826 0.51379 0.24415 0.0
C1353 C 0.85367 0.51705 0.20509 0.0
C1354 C 0.87956 0.49845 0.33175 0.0
C1355 C 0.89932 0.49497 0.31938 0.0
C1356 C 0.87379 0.50093 0.38738 0.0
C1357 C 0.85344 0.506 0.40304 0.0
C1358 C 0.84469 0.52305 0.38198 0.0
C1359 C 0.82545 0.52765 0.39657 0.0
C1360 C 0.81487 0.51541 0.43258 0.0
C1361 C 0.82353 0.49856 0.4542 0.0
C1362 C 0.84276 0.49388 0.43967 0.0
C1363 C 0.95048 0.5121 0.50693 0.0
C1364 C 0.94801 0.49959 0.55269 0.0
C1365 C 0.93756 0.51086 0.46237 0.0
C1366 C 0.92197 0.49705 0.46264 0.0
C1367 C 0.9195 0.4845 0.50809 0.0
C1368 C 0.93242 0.48569 0.55259 0.0
C1369 C 0.90765 0.49638 0.41679 0.0
C1370 C 0.88785 0.49959 0.42915 0.0
C1371 C 0.91346 0.49383 0.36122 0.0
C1372 C 0.93404 0.48957 0.3458 0.0
C1373 C 0.94384 0.47361 0.36963 0.0
C1374 C 0.96324 0.46972 0.35505 0.0
C1375 C 0.97298 0.4816 0.31639 0.0
C1376 C 0.96332 0.49739 0.29214 0.0
C1377 C 0.94392 0.50135 0.30662 0.0
H1378 H 0.98801 0.47856 0.30514 0.0
H1379 H 0.79998 0.519 0.44384 0.0
loop_
_geom_bond_atom_site_label_1
_geom_bond_atom_site_label_2
_geom_bond_distance
_geom_bond_site_symmetry_2
_ccdc_geom_bond_type
O0 Cd1 2.300 1_556 S
O0 C7 1.275 . S
Cd1 O0 2.300 1_554 S
Cd1 O9 2.381 1_554 S
Cd1 O10 2.378 . S
O2 Cd3 2.385 . S
O2 C7 1.255 1_554 S
Cd3 O2 2.385 . S
Cd3 O4 2.317 . S
O4 Cd3 2.317 . S
O4 C5 1.232 . S
C5 O4 1.232 . S
C5 O6 1.218 . S
O6 C5 1.218 . S
C7 O0 1.275 . S
C7 O2 1.255 1_556 S
C8 O9 1.258 . S
C8 O10 1.256 1_556 S
O9 Cd1 2.381 1_556 S
O9 C8 1.258 . S
O10 Cd1 2.378 . S
O10 C8 1.256 1_554 S
O11 Cd12 2.300 1_655 S
O11 C18 1.275 1_655 S
Cd12 O11 2.300 1_455 S
Cd12 O20 2.381 1_455 S
Cd12 O21 2.378 . S
O13 Cd14 2.385 . S
O13 C18 1.255 . S
Cd14 O13 2.385 . S
Cd14 O15 2.317 . S
O15 Cd14 2.317 . S
O15 C16 1.232 . S
C16 O15 1.232 . S
C16 O17 1.218 . S
O17 C16 1.218 . S
C18 O11 1.275 1_455 S
C18 O13 1.255 . S
C19 O20 1.251 1_455 S
C19 O21 1.264 . S
O20 Cd12 2.381 1_655 S
O20 C19 1.251 1_655 S
O21 Cd12 2.378 . S
O21 C19 1.264 . S
O22 Cd23 2.300 1_566 S
O22 C29 1.275 1_566 S
Cd23 O22 2.300 1_544 S
Cd23 O31 2.381 1_545 S
Cd23 O32 2.378 . S
O24 Cd25 2.385 . S
O24 C29 1.255 . S
Cd25 O24 2.385 . S
Cd25 O26 2.317 . S
O26 Cd25 2.317 . S
O26 C27 1.232 . S
C27 O26 1.232 . S
C27 O28 1.218 . S
O28 C27 1.218 . S
C29 O22 1.275 1_544 S
C29 O24 1.255 . S
C30 O31 1.258 1_545 S
C30 O32 1.256 . S
O31 Cd23 2.381 1_565 S
O31 C30 1.258 1_565 S
O32 Cd23 2.378 . S
O32 C30 1.256 . S
O33 Cd34 2.300 1_556 S
O33 C40 1.275 . S
Cd34 O33 2.300 1_554 S
Cd34 O42 2.381 1_554 S
Cd34 O43 2.378 . S
O35 Cd36 2.385 . S
O35 C40 1.255 1_554 S
Cd36 O35 2.385 . S
Cd36 O37 2.317 . S
O37 Cd36 2.317 . S
O37 C38 1.232 . S
C38 O37 1.232 . S
C38 O39 1.218 . S
O39 C38 1.218 . S
C40 O33 1.275 . S
C40 O35 1.255 1_556 S
C41 O42 1.257 1_554 S
C41 O43 1.257 . S
O42 Cd34 2.381 1_556 S
O42 C41 1.257 1_556 S
O43 Cd34 2.378 . S
O43 C41 1.257 . S
O44 Cd45 2.300 . S
O44 C51 1.275 . S
Cd45 O44 2.300 . S
Cd45 O53 2.381 . S
Cd45 O54 2.378 . S
O46 Cd47 2.385 . S
O46 C51 1.255 . S
Cd47 O46 2.385 . S
Cd47 O48 2.317 . S
O48 Cd47 2.317 . S
O48 C49 1.232 . S
C49 O48 1.232 . S
C49 O50 1.218 . S
O50 C49 1.218 . S
C51 O44 1.275 . S
C51 O46 1.255 . S
C52 O53 1.258 . S
C52 O54 1.256 . S
O53 Cd45 2.381 . S
O53 C52 1.258 . S
O54 Cd45 2.378 . S
O54 C52 1.256 . S
O55 Cd56 2.300 . S
O55 C62 1.275 . S
Cd56 O55 2.300 . S
Cd56 O64 2.381 . S
Cd56 O65 2.378 . S
O57 Cd58 2.385 . S
O57 C62 1.255 . S
Cd58 O57 2.385 . S
Cd58 O59 2.317 . S
O59 Cd58 2.317 . S
O59 C60 1.232 . S
C60 O59 1.232 . S
C60 O61 1.218 . S
O61 C60 1.218 . S
C62 O55 1.275 . S
C62 O57 1.255 . S
C63 O64 1.258 . S
C63 O65 1.256 . S
O64 Cd56 2.381 . S
O64 C63 1.258 . S
O65 Cd56 2.378 . S
O65 C63 1.256 . S
O66 Cd67 2.300 . S
O66 C73 1.275 . S
Cd67 O66 2.300 . S
Cd67 O75 2.386 . S
Cd67 O76 2.378 . S
O68 Cd69 2.385 . S
O68 C73 1.255 . S
Cd69 O68 2.385 . S
Cd69 O70 2.317 . S
O70 Cd69 2.317 . S
O70 C71 1.232 . S
C71 O70 1.232 . S
C71 O72 1.218 . S
O72 C71 1.218 . S
C73 O66 1.275 . S
C73 O68 1.255 . S
C74 O75 1.262 . S
C74 O76 1.256 . S
O75 Cd67 2.386 . S
O75 C74 1.262 . S
O76 Cd67 2.378 . S
O76 C74 1.256 . S
O77 Cd78 2.300 . S
O77 C84 1.275 . S
Cd78 O77 2.300 . S
Cd78 O86 2.381 . S
Cd78 O87 2.378 . S
O79 Cd80 2.385 . S
O79 C84 1.255 . S
Cd80 O79 2.385 . S
Cd80 O81 2.317 . S
O81 Cd80 2.317 . S
O81 C82 1.232 . S
C82 O81 1.232 . S
C82 O83 1.218 . S
O83 C82 1.218 . S
C84 O77 1.275 . S
C84 O79 1.255 . S
C85 O86 1.258 . S
C85 O87 1.256 . S
O86 Cd78 2.381 . S
O86 C85 1.258 . S
O87 Cd78 2.378 . S
O87 C85 1.256 . S
O88 Zn89 1.954 . S
O88 C104 1.225 1_545 S
Zn89 O88 1.954 . S
Zn89 O90 1.948 1_545 S
Zn89 O96 1.932 . S
Zn89 O101 1.908 1_545 S
O90 Zn89 1.948 1_565 S
O90 Zn91 1.904 1_565 S
O90 Zn92 1.952 . S
O90 Zn93 1.994 . S
Zn91 O90 1.904 1_545 S
Zn91 O94 1.933 1_455 S
Zn91 O97 1.941 . S
Zn91 O98 1.965 . S
Zn92 O90 1.952 . S
Zn92 O99 1.938 1_565 S
Zn92 O100 1.906 . S
Zn92 O110 1.953 . S
Zn93 O90 1.994 . S
Zn93 O95 1.881 1_455 S
Zn93 O102 1.971 1_455 S
Zn93 O103 1.935 . S
O94 Zn91 1.933 1_655 S
O94 C105 1.226 . S
O95 Zn93 1.881 1_655 S
O95 C105 1.307 1_565 S
O96 Zn89 1.932 . S
O96 C107 1.253 . S
O97 Zn91 1.941 . S
O97 C107 1.283 . S
O98 Zn91 1.965 . S
O98 C106 1.303 . S
O99 Zn92 1.938 1_545 S
O99 C106 1.247 . S
O100 Zn92 1.906 . S
O100 C108 1.314 . S
O101 Zn89 1.908 1_565 S
O101 C109 1.311 . S
O102 Zn93 1.971 1_655 S
O102 C108 1.270 1_655 S
O103 Zn93 1.935 . S
O103 C109 1.231 . S
C104 O88 1.225 1_565 S
C104 O110 1.298 . S
C105 O94 1.226 . S
C105 O95 1.307 1_545 S
C106 O98 1.303 . S
C106 O99 1.247 . S
C107 O96 1.253 . S
C107 O97 1.283 . S
C108 O100 1.314 . S
C108 O102 1.270 1_455 S
C109 O101 1.311 . S
C109 O103 1.231 . S
O110 Zn92 1.953 . S
O110 C104 1.298 . S
O111 Zn112 1.953 . S
O111 C127 1.225 . S
Zn112 O111 1.953 . S
Zn112 O113 1.949 . S
Zn112 O119 1.919 . S
Zn112 O124 1.924 . S
O113 Zn112 1.949 . S
O113 Zn114 1.923 1_545 S
O113 Zn115 1.950 . S
O113 Zn116 1.945 1_545 S
Zn114 O113 1.923 1_565 S
Zn114 O117 1.933 . S
Zn114 O120 1.941 . S
Zn114 O121 1.965 . S
Zn115 O113 1.950 . S
Zn115 O122 1.938 . S
Zn115 O123 1.906 . S
Zn115 O133 1.953 . S
Zn116 O113 1.945 1_565 S
Zn116 O118 1.932 . S
Zn116 O125 1.977 . S
Zn116 O126 1.910 1_565 S
O117 Zn114 1.933 . S
O117 C128 1.226 . S
O118 Zn116 1.932 . S
O118 C128 1.307 . S
O119 Zn112 1.919 . S
O119 C130 1.253 . S
O120 Zn114 1.941 . S
O120 C130 1.283 1_565 S
O121 Zn114 1.965 . S
O121 C129 1.303 1_565 S
O122 Zn115 1.938 . S
O122 C129 1.247 . S
O123 Zn115 1.906 . S
O123 C131 1.304 1_545 S
O124 Zn112 1.924 . S
O124 C132 1.311 . S
O125 Zn116 1.977 . S
O125 C131 1.272 . S
O126 Zn116 1.910 1_545 S
O126 C132 1.231 . S
C127 O111 1.225 . S
C127 O133 1.298 . S
C128 O117 1.226 . S
C128 O118 1.307 . S
C129 O121 1.303 1_545 S
C129 O122 1.247 . S
C130 O119 1.253 . S
C130 O120 1.283 1_545 S
C131 O123 1.304 1_565 S
C131 O125 1.272 . S
C132 O124 1.311 . S
C132 O126 1.231 . S
O133 Zn115 1.953 . S
O133 C127 1.298 . S
O134 Zn135 1.953 . S
O134 C150 1.225 . S
Zn135 O134 1.953 . S
Zn135 O136 1.949 . S
Zn135 O142 1.919 . S
Zn135 O147 1.924 . S
O136 Zn135 1.949 . S
O136 Zn137 1.923 . S
O136 Zn138 1.950 . S
O136 Zn139 1.945 . S
Zn137 O136 1.923 . S
Zn137 O140 1.933 . S
Zn137 O143 1.941 . S
Zn137 O144 1.965 . S
Zn138 O136 1.950 . S
Zn138 O145 1.938 . S
Zn138 O146 1.906 . S
Zn138 O156 1.953 . S
Zn139 O136 1.945 . S
Zn139 O141 1.932 . S
Zn139 O148 1.977 . S
Zn139 O149 1.910 . S
O140 Zn137 1.933 . S
O140 C151 1.226 . S
O141 Zn139 1.932 . S
O141 C151 1.307 . S
O142 Zn135 1.919 . S
O142 C153 1.253 . S
O143 Zn137 1.941 . S
O143 C153 1.283 . S
O144 Zn137 1.965 . S
O144 C152 1.303 . S
O145 Zn138 1.938 . S
O145 C152 1.247 . S
O146 Zn138 1.906 . S
O146 C154 1.304 . S
O147 Zn135 1.924 . S
O147 C155 1.311 . S
O148 Zn139 1.977 . S
O148 C154 1.272 . S
O149 Zn139 1.910 . S
O149 C155 1.231 . S
C150 O134 1.225 . S
C150 O156 1.298 . S
C151 O140 1.226 . S
C151 O141 1.307 . S
C152 O144 1.303 . S
C152 O145 1.247 . S
C153 O142 1.253 . S
C153 O143 1.283 . S
C154 O146 1.304 . S
C154 O148 1.272 . S
C155 O147 1.311 . S
C155 O149 1.231 . S
O156 Zn138 1.953 . S
O156 C150 1.298 . S
O157 Zn158 1.925 1_655 S
O157 C173 1.225 . S
Zn158 O157 1.925 1_455 S
Zn158 O159 1.949 . S
Zn158 O165 1.919 . S
Zn158 O170 1.954 . S
O159 Zn158 1.949 . S
O159 Zn160 1.917 1_455 S
O159 Zn161 1.929 1_455 S
O159 Zn162 1.973 . S
Zn160 O159 1.917 1_655 S
Zn160 O163 1.933 1_655 S
Zn160 O166 1.941 . S
Zn160 O167 1.965 . S
Zn161 O159 1.929 1_655 S
Zn161 O168 1.938 . S
Zn161 O169 1.906 . S
Zn161 O179 1.953 . S
Zn162 O159 1.973 . S
Zn162 O164 1.932 . S
Zn162 O171 1.977 . S
Zn162 O172 1.910 . S
O163 Zn160 1.933 1_455 S
O163 C174 1.226 . S
O164 Zn162 1.932 . S
O164 C174 1.307 . S
O165 Zn158 1.919 . S
O165 C176 1.251 1_455 S
O166 Zn160 1.941 . S
O166 C176 1.286 . S
O167 Zn160 1.965 . S
O167 C175 1.303 . S
O168 Zn161 1.938 . S
O168 C175 1.247 . S
O169 Zn161 1.906 . S
O169 C177 1.304 1_655 S
O170 Zn158 1.954 . S
O170 C178 1.311 . S
O171 Zn162 1.977 . S
O171 C177 1.272 . S
O172 Zn162 1.910 . S
O172 C178 1.231 . S
C173 O157 1.225 . S
C173 O179 1.298 . S
C174 O163 1.226 . S
C174 O164 1.307 . S
C175 O167 1.303 . S
C175 O168 1.247 . S
C176 O165 1.251 1_655 S
C176 O166 1.286 . S
C177 O169 1.304 1_455 S
C177 O171 1.272 . S
C178 O170 1.311 . S
C178 O172 1.231 . S
O179 Zn161 1.953 . S
O179 C173 1.298 . S
H180 C198 0.951 . S
H181 C200 0.951 . S
H182 C202 0.950 . S
H183 C203 0.950 . S
H184 C205 0.950 . S
H185 C208 0.950 . S
H186 C209 0.950 . S
H187 C211 0.950 . S
H188 C212 0.950 . S
H189 C213 0.951 . S
H190 C215 0.951 . S
H191 C217 0.950 . S
H192 C218 0.950 . S
H193 C220 0.950 . S
H194 C223 0.992 . S
H195 C224 0.950 . S
H196 C226 0.950 . S
H197 C227 0.950 . S
C198 H180 0.951 . S
C198 C199 1.366 . S
C198 C200 1.388 . S
C199 C198 1.366 . S
C199 C203 1.385 1_545 S
C200 H181 0.951 . S
C200 C198 1.388 . S
C200 C201 1.366 . S
C201 C200 1.366 . S
C201 C202 1.414 1_545 S
C201 C204 1.499 . S
C202 H182 0.950 . S
C202 C201 1.414 1_565 S
C202 C203 1.374 . S
C203 H183 0.950 . S
C203 C199 1.385 1_565 S
C203 C202 1.374 . S
C204 C201 1.499 . S
C204 C205 1.373 1_545 S
C204 C206 1.389 . S
C205 H184 0.950 . S
C205 C204 1.373 1_565 S
C205 C221 1.377 . S
C206 C204 1.389 . S
C206 C207 1.524 . S
C206 C220 1.377 . S
C207 C206 1.524 . S
C207 C208 1.397 . S
C207 C212 1.363 . S
C208 H185 0.950 . S
C208 C207 1.397 . S
C208 C209 1.334 . S
C209 H186 0.950 . S
C209 C208 1.334 . S
C209 C210 1.287 . S
C210 C209 1.287 . S
C210 C211 1.524 . S
C210 H229 0.913 . S
C211 H187 0.950 . S
C211 C210 1.524 . S
C211 C212 1.415 . S
C212 H188 0.950 . S
C212 C207 1.363 . S
C212 C211 1.415 . S
C213 H189 0.951 . S
C213 C214 1.366 . S
C213 C215 1.388 . S
C214 C213 1.366 . S
C214 C218 1.385 1_565 S
C215 H190 0.951 . S
C215 C213 1.388 . S
C215 C216 1.354 1_565 S
C216 C215 1.354 1_545 S
C216 C217 1.425 . S
C216 C219 1.500 . S
C217 H191 0.950 . S
C217 C216 1.425 . S
C217 C218 1.374 . S
C218 H192 0.950 . S
C218 C214 1.385 1_545 S
C218 C217 1.374 . S
C219 C216 1.500 . S
C219 C220 1.373 . S
C219 C221 1.389 1_545 S
C220 H193 0.950 . S
C220 C206 1.377 . S
C220 C219 1.373 . S
C221 C205 1.377 . S
C221 C219 1.389 1_565 S
C221 C222 1.524 . S
C222 C221 1.524 . S
C222 C223 1.397 . S
C222 C227 1.363 . S
C223 H194 0.992 . S
C223 C222 1.397 . S
C223 C224 1.334 . S
C224 H195 0.950 . S
C224 C223 1.334 . S
C224 C225 1.287 . S
C225 C224 1.287 . S
C225 C226 1.524 . S
C225 H228 0.999 . S
C226 H196 0.950 . S
C226 C225 1.524 . S
C226 C227 1.415 . S
C227 H197 0.950 . S
C227 C222 1.363 . S
C227 C226 1.415 . S
H228 C225 0.999 . S
H229 C210 0.913 . S
H230 C248 0.951 . S
H231 C250 0.951 . S
H232 C252 0.950 . S
H233 C253 0.950 . S
H234 C255 0.950 . S
H235 C258 0.950 . S
H236 C259 0.950 . S
H237 C261 0.950 . S
H238 C262 0.950 . S
H239 C263 0.951 . S
H240 C265 0.951 . S
H241 C267 0.950 . S
H242 C268 0.950 . S
H243 C270 0.950 . S
H244 C273 0.950 . S
H245 C274 0.950 . S
H246 C276 0.950 . S
H247 C277 0.950 . S
C248 H230 0.951 . S
C248 C249 1.366 . S
C248 C250 1.388 . S
C249 C248 1.366 . S
C249 C253 1.385 . S
C250 H231 0.951 . S
C250 C248 1.388 . S
C250 C251 1.366 . S
C251 C250 1.366 . S
C251 C252 1.414 . S
C251 C254 1.499 . S
C252 H232 0.950 . S
C252 C251 1.414 . S
C252 C253 1.374 . S
C253 H233 0.950 . S
C253 C249 1.385 . S
C253 C252 1.374 . S
C254 C251 1.499 . S
C254 C255 1.373 . S
C254 C256 1.389 . S
C255 H234 0.950 . S
C255 C254 1.373 . S
C255 C271 1.377 . S
C256 C254 1.389 . S
C256 C257 1.524 . S
C256 C270 1.377 . S
C257 C256 1.524 . S
C257 C258 1.397 . S
C257 C262 1.363 . S
C258 H235 0.950 . S
C258 C257 1.397 . S
C258 C259 1.334 . S
C259 H236 0.950 . S
C259 C258 1.334 . S
C259 C260 1.287 . S
C260 C259 1.287 . S
C260 C261 1.524 . S
C260 H279 0.913 . S
C261 H237 0.950 . S
C261 C260 1.524 . S
C261 C262 1.415 . S
C262 H238 0.950 . S
C262 C257 1.363 . S
C262 C261 1.415 . S
C263 H239 0.951 . S
C263 C264 1.366 . S
C263 C265 1.388 . S
C264 C263 1.366 . S
C264 C268 1.385 . S
C265 H240 0.951 . S
C265 C263 1.388 . S
C265 C266 1.366 . S
C266 C265 1.366 . S
C266 C267 1.414 . S
C266 C269 1.499 . S
C267 H241 0.950 . S
C267 C266 1.414 . S
C267 C268 1.374 . S
C268 H242 0.950 . S
C268 C264 1.385 . S
C268 C267 1.374 . S
C269 C266 1.499 . S
C269 C270 1.373 . S
C269 C271 1.389 . S
C270 H243 0.950 . S
C270 C256 1.377 . S
C270 C269 1.373 . S
C271 C255 1.377 . S
C271 C269 1.389 . S
C271 C272 1.524 . S
C272 C271 1.524 . S
C272 C273 1.397 . S
C272 C277 1.363 . S
C273 H244 0.950 . S
C273 C272 1.397 . S
C273 C274 1.334 . S
C274 H245 0.950 . S
C274 C273 1.334 . S
C274 C275 1.287 . S
C275 C274 1.287 . S
C275 C276 1.524 . S
C275 H278 0.999 . S
C276 H246 0.950 . S
C276 C275 1.524 . S
C276 C277 1.415 . S
C277 H247 0.950 . S
C277 C272 1.363 . S
C277 C276 1.415 . S
H278 C275 0.999 . S
H279 C260 0.913 . S
H280 C298 0.951 . S
H281 C300 0.951 . S
H282 C302 0.950 . S
H283 C303 0.950 . S
H284 C305 0.950 . S
H285 C308 0.950 . S
H286 C309 0.950 . S
H287 C311 0.950 . S
H288 C312 0.950 . S
H289 C313 0.951 . S
H290 C315 0.951 . S
H291 C317 0.950 . S
H292 C318 0.950 . S
H293 C320 0.950 . S
H294 C323 0.950 . S
H295 C324 0.950 . S
H296 C326 0.950 . S
H297 C327 0.950 . S
C298 H280 0.951 . S
C298 C299 1.366 . S
C298 C300 1.388 . S
C299 C298 1.366 . S
C299 C303 1.385 . S
C300 H281 0.951 . S
C300 C298 1.388 . S
C300 C301 1.366 . S
C301 C300 1.366 . S
C301 C302 1.414 . S
C301 C304 1.499 . S
C302 H282 0.950 . S
C302 C301 1.414 . S
C302 C303 1.374 . S
C303 H283 0.950 . S
C303 C299 1.385 . S
C303 C302 1.374 . S
C304 C301 1.499 . S
C304 C305 1.373 . S
C304 C306 1.389 . S
C305 H284 0.950 . S
C305 C304 1.373 . S
C305 C321 1.377 . S
C306 C304 1.389 . S
C306 C307 1.524 . S
C306 C320 1.377 . S
C307 C306 1.524 . S
C307 C308 1.397 . S
C307 C312 1.363 . S
C308 H285 0.950 . S
C308 C307 1.397 . S
C308 C309 1.334 . S
C309 H286 0.950 . S
C309 C308 1.334 . S
C309 C310 1.287 . S
C310 C309 1.287 . S
C310 C311 1.524 . S
C310 H329 0.913 . S
C311 H287 0.950 . S
C311 C310 1.524 . S
C311 C312 1.415 . S
C312 H288 0.950 . S
C312 C307 1.363 . S
C312 C311 1.415 . S
C313 H289 0.951 . S
C313 C314 1.366 . S
C313 C315 1.388 . S
C314 C313 1.366 . S
C314 C318 1.385 . S
C315 H290 0.951 . S
C315 C313 1.388 . S
C315 C316 1.366 . S
C316 C315 1.366 . S
C316 C317 1.414 . S
C316 C319 1.499 . S
C317 H291 0.950 . S
C317 C316 1.414 . S
C317 C318 1.374 . S
C318 H292 0.950 . S
C318 C314 1.385 . S
C318 C317 1.374 . S
C319 C316 1.499 . S
C319 C320 1.373 . S
C319 C321 1.389 . S
C320 H293 0.950 . S
C320 C306 1.377 . S
C320 C319 1.373 . S
C321 C305 1.377 . S
C321 C319 1.389 . S
C321 C322 1.524 . S
C322 C321 1.524 . S
C322 C323 1.397 . S
C322 C327 1.363 . S
C323 H294 0.950 . S
C323 C322 1.397 . S
C323 C324 1.334 . S
C324 H295 0.950 . S
C324 C323 1.334 . S
C324 C325 1.287 . S
C325 C324 1.287 . S
C325 C326 1.524 . S
C325 H328 0.999 . S
C326 H296 0.950 . S
C326 C325 1.524 . S
C326 C327 1.415 . S
C327 H297 0.950 . S
C327 C322 1.363 . S
C327 C326 1.415 . S
H328 C325 0.999 . S
H329 C310 0.913 . S
H330 C348 0.951 . S
H331 C350 0.951 . S
H332 C352 0.950 . S
H333 C353 0.950 . S
H334 C355 0.950 . S
H335 C358 0.950 . S
H336 C359 0.950 . S
H337 C361 0.950 . S
H338 C362 0.950 . S
H339 C363 0.951 . S
H340 C365 0.951 . S
H341 C367 0.950 . S
H342 C368 0.950 . S
H343 C370 0.950 . S
H344 C373 0.950 . S
H345 C374 0.950 . S
H346 C376 0.950 . S
H347 C377 0.950 . S
C348 H330 0.951 . S
C348 C349 1.366 . S
C348 C350 1.388 . S
C349 C348 1.366 . S
C349 C353 1.385 . S
C350 H331 0.951 . S
C350 C348 1.388 . S
C350 C351 1.366 . S
C351 C350 1.366 . S
C351 C352 1.414 . S
C351 C354 1.499 . S
C352 H332 0.950 . S
C352 C351 1.414 . S
C352 C353 1.374 . S
C353 H333 0.950 . S
C353 C349 1.385 . S
C353 C352 1.374 . S
C354 C351 1.499 . S
C354 C355 1.373 . S
C354 C356 1.389 . S
C355 H334 0.950 . S
C355 C354 1.373 . S
C355 C371 1.377 . S
C356 C354 1.389 . S
C356 C357 1.524 . S
C356 C370 1.377 . S
C357 C356 1.524 . S
C357 C358 1.397 . S
C357 C362 1.363 1_455 S
C358 H335 0.950 . S
C358 C357 1.397 . S
C358 C359 1.334 . S
C359 H336 0.950 . S
C359 C358 1.334 . S
C359 C360 1.263 1_455 S
C360 C359 1.263 1_655 S
C360 C361 1.542 . S
C360 H379 0.921 . S
C361 H337 0.950 . S
C361 C360 1.542 . S
C361 C362 1.415 . S
C362 H338 0.950 . S
C362 C357 1.363 1_655 S
C362 C361 1.415 . S
C363 H339 0.951 . S
C363 C364 1.366 . S
C363 C365 1.388 . S
C364 C363 1.366 . S
C364 C368 1.385 1_455 S
C365 H340 0.951 . S
C365 C363 1.388 . S
C365 C366 1.366 . S
C366 C365 1.366 . S
C366 C367 1.414 1_455 S
C366 C369 1.499 . S
C367 H341 0.950 . S
C367 C366 1.414 1_655 S
C367 C368 1.374 . S
C368 H342 0.950 . S
C368 C364 1.385 1_655 S
C368 C367 1.374 . S
C369 C366 1.499 . S
C369 C370 1.373 . S
C369 C371 1.389 . S
C370 H343 0.950 . S
C370 C356 1.377 . S
C370 C369 1.373 . S
C371 C355 1.377 . S
C371 C369 1.389 . S
C371 C372 1.524 . S
C372 C371 1.524 . S
C372 C373 1.397 . S
C372 C377 1.363 . S
C373 H344 0.950 . S
C373 C372 1.397 . S
C373 C374 1.334 . S
C374 H345 0.950 . S
C374 C373 1.334 . S
C374 C375 1.287 . S
C375 C374 1.287 . S
C375 C376 1.524 . S
C375 H378 0.999 . S
C376 H346 0.950 . S
C376 C375 1.524 . S
C376 C377 1.415 . S
C377 H347 0.950 . S
C377 C372 1.363 . S
C377 C376 1.415 . S
H378 C375 0.999 . S
H379 C360 0.921 . S
H380 C398 0.951 . S
H381 C400 0.951 . S
H382 C402 0.951 . S
H383 C403 0.950 . S
H384 C405 0.950 . S
H385 C408 0.950 . S
H386 C409 0.950 . S
H387 C411 0.950 . S
H388 C412 0.950 . S
H389 C413 0.951 . S
H390 C415 0.951 . S
H391 C417 0.950 . S
H392 C418 0.950 . S
H393 C420 0.950 . S
H394 C423 0.950 . S
H395 C424 0.950 . S
H396 C426 0.950 . S
H397 C427 0.950 1_554 S
C398 H380 0.951 . S
C398 C399 1.366 1_556 S
C398 C400 1.388 . S
C399 C398 1.366 1_554 S
C399 C403 1.385 . S
C400 H381 0.951 . S
C400 C398 1.388 . S
C400 C401 1.365 . S
C401 C400 1.365 . S
C401 C402 1.414 1_556 S
C401 C404 1.499 . S
C402 H382 0.951 . S
C402 C401 1.414 1_554 S
C402 C403 1.374 . S
C403 H383 0.950 . S
C403 C399 1.385 . S
C403 C402 1.374 . S
C404 C401 1.499 . S
C404 C405 1.349 1_565 S
C404 C406 1.412 . S
C405 H384 0.950 . S
C405 C404 1.349 1_545 S
C405 C421 1.377 . S
C406 C404 1.412 . S
C406 C407 1.524 . S
C406 C420 1.377 . S
C407 C406 1.524 . S
C407 C408 1.397 . S
C407 C412 1.363 . S
C408 H385 0.950 . S
C408 C407 1.397 . S
C408 C409 1.334 . S
C409 H386 0.950 . S
C409 C408 1.334 . S
C409 C410 1.287 . S
C410 C409 1.287 . S
C410 C411 1.524 . S
C410 H429 0.913 . S
C411 H387 0.950 . S
C411 C410 1.524 . S
C411 C412 1.415 . S
C412 H388 0.950 . S
C412 C407 1.363 . S
C412 C411 1.415 . S
C413 H389 0.951 . S
C413 C414 1.366 . S
C413 C415 1.388 . S
C414 C413 1.366 . S
C414 C418 1.385 . S
C415 H390 0.951 . S
C415 C413 1.388 . S
C415 C416 1.366 . S
C416 C415 1.366 . S
C416 C417 1.414 . S
C416 C419 1.499 . S
C417 H391 0.950 . S
C417 C416 1.414 . S
C417 C418 1.374 . S
C418 H392 0.950 . S
C418 C414 1.385 . S
C418 C417 1.374 . S
C419 C416 1.499 . S
C419 C420 1.373 1_545 S
C419 C421 1.389 . S
C420 H393 0.950 . S
C420 C406 1.377 . S
C420 C419 1.373 1_565 S
C421 C405 1.377 . S
C421 C419 1.389 . S
C421 C422 1.524 . S
C422 C421 1.524 . S
C422 C423 1.397 . S
C422 C427 1.363 . S
C423 H394 0.950 . S
C423 C422 1.397 . S
C423 C424 1.334 . S
C424 H395 0.950 . S
C424 C423 1.334 . S
C424 C425 1.287 . S
C425 C424 1.287 . S
C425 C426 1.524 1_556 S
C425 H428 0.999 . S
C426 H396 0.950 . S
C426 C425 1.524 1_554 S
C426 C427 1.415 1_554 S
C427 H397 0.950 1_556 S
C427 C422 1.363 . S
C427 C426 1.415 1_556 S
H428 C425 0.999 . S
H429 C410 0.913 . S
H430 C448 0.951 . S
H431 C450 0.951 . S
H432 C452 0.950 . S
H433 C453 0.950 1_554 S
H434 C455 0.950 . S
H435 C458 0.950 . S
H436 C459 0.950 . S
H437 C461 0.950 . S
H438 C462 0.950 . S
H439 C463 0.951 . S
H440 C465 0.951 . S
H441 C467 0.950 . S
H442 C468 0.950 . S
H443 C470 0.950 . S
H444 C473 0.950 . S
H445 C474 0.950 . S
H446 C476 0.950 . S
H447 C477 0.950 . S
C448 H430 0.951 . S
C448 C449 1.366 . S
C448 C450 1.388 . S
C449 C448 1.366 . S
C449 C453 1.385 . S
C450 H431 0.951 . S
C450 C448 1.388 . S
C450 C451 1.366 . S
C451 C450 1.366 . S
C451 C452 1.414 . S
C451 C454 1.499 . S
C452 H432 0.950 . S
C452 C451 1.414 . S
C452 C453 1.374 . S
C453 H433 0.950 1_556 S
C453 C449 1.385 . S
C453 C452 1.374 . S
C454 C451 1.499 . S
C454 C455 1.373 . S
C454 C456 1.389 . S
C455 H434 0.950 . S
C455 C454 1.373 . S
C455 C471 1.377 . S
C456 C454 1.389 . S
C456 C457 1.524 . S
C456 C470 1.377 . S
C457 C456 1.524 . S
C457 C458 1.397 . S
C457 C462 1.363 . S
C458 H435 0.950 . S
C458 C457 1.397 . S
C458 C459 1.334 1_556 S
C459 H436 0.950 . S
C459 C458 1.334 1_554 S
C459 C460 1.287 1_554 S
C460 C459 1.287 1_556 S
C460 C461 1.524 . S
C460 H479 0.908 1_556 S
C461 H437 0.950 . S
C461 C460 1.524 . S
C461 C462 1.415 . S
C462 H438 0.950 . S
C462 C457 1.363 . S
C462 C461 1.415 . S
C463 H439 0.951 . S
C463 C464 1.366 . S
C463 C465 1.388 . S
C464 C463 1.366 . S
C464 C468 1.385 . S
C465 H440 0.951 . S
C465 C463 1.388 . S
C465 C466 1.366 . S
C466 C465 1.366 . S
C466 C467 1.414 . S
C466 C469 1.499 . S
C467 H441 0.950 . S
C467 C466 1.414 . S
C467 C468 1.374 . S
C468 H442 0.950 . S
C468 C464 1.385 . S
C468 C467 1.374 . S
C469 C466 1.499 . S
C469 C470 1.373 . S
C469 C471 1.389 . S
C470 H443 0.950 . S
C470 C456 1.377 . S
C470 C469 1.373 . S
C471 C455 1.377 . S
C471 C469 1.389 . S
C471 C472 1.524 . S
C472 C471 1.524 . S
C472 C473 1.397 . S
C472 C477 1.363 . S
C473 H444 0.950 . S
C473 C472 1.397 . S
C473 C474 1.334 . S
C474 H445 0.950 . S
C474 C473 1.334 . S
C474 C475 1.287 . S
C475 C474 1.287 . S
C475 C476 1.524 . S
C475 H478 0.999 . S
C476 H446 0.950 . S
C476 C475 1.524 . S
C476 C477 1.415 . S
C477 H447 0.950 . S
C477 C472 1.363 . S
C477 C476 1.415 . S
H478 C475 0.999 . S
H479 C460 0.908 1_554 S
H480 C498 0.951 . S
H481 C500 0.951 . S
H482 C502 0.950 . S
H483 C503 0.950 1_554 S
H484 C505 0.950 . S
H485 C508 0.950 . S
H486 C509 0.950 . S
H487 C511 0.950 . S
H488 C512 0.950 . S
H489 C513 0.951 . S
H490 C515 0.951 . S
H491 C517 0.950 . S
H492 C518 0.950 . S
H493 C520 0.950 . S
H494 C523 0.950 . S
H495 C524 0.950 . S
H496 C526 0.950 . S
H497 C527 0.950 . S
C498 H480 0.951 . S
C498 C499 1.366 . S
C498 C500 1.388 . S
C499 C498 1.366 . S
C499 C503 1.385 . S
C500 H481 0.951 . S
C500 C498 1.388 . S
C500 C501 1.366 . S
C501 C500 1.366 . S
C501 C502 1.414 . S
C501 C504 1.499 . S
C502 H482 0.950 . S
C502 C501 1.414 . S
C502 C503 1.374 . S
C503 H483 0.950 1_556 S
C503 C499 1.385 . S
C503 C502 1.374 . S
C504 C501 1.499 . S
C504 C505 1.373 . S
C504 C506 1.389 . S
C505 H484 0.950 . S
C505 C504 1.373 . S
C505 C521 1.377 . S
C506 C504 1.389 . S
C506 C507 1.524 . S
C506 C520 1.377 . S
C507 C506 1.524 . S
C507 C508 1.397 . S
C507 C512 1.363 . S
C508 H485 0.950 . S
C508 C507 1.397 . S
C508 C509 1.334 . S
C509 H486 0.950 . S
C509 C508 1.334 . S
C509 C510 1.287 . S
C510 C509 1.287 . S
C510 C511 1.524 . S
C510 H529 0.913 . S
C511 H487 0.950 . S
C511 C510 1.524 . S
C511 C512 1.415 . S
C512 H488 0.950 . S
C512 C507 1.363 . S
C512 C511 1.415 . S
C513 H489 0.951 . S
C513 C514 1.366 . S
C513 C515 1.388 . S
C514 C513 1.366 . S
C514 C518 1.385 . S
C515 H490 0.951 . S
C515 C513 1.388 . S
C515 C516 1.366 . S
C516 C515 1.366 . S
C516 C517 1.414 . S
C516 C519 1.499 . S
C517 H491 0.950 . S
C517 C516 1.414 . S
C517 C518 1.374 . S
C518 H492 0.950 . S
C518 C514 1.385 . S
C518 C517 1.374 . S
C519 C516 1.499 . S
C519 C520 1.373 . S
C519 C521 1.389 . S
C520 H493 0.950 . S
C520 C506 1.377 . S
C520 C519 1.373 . S
C521 C505 1.377 . S
C521 C519 1.389 . S
C521 C522 1.524 . S
C522 C521 1.524 . S
C522 C523 1.397 . S
C522 C527 1.363 . S
C523 H494 0.950 . S
C523 C522 1.397 . S
C523 C524 1.334 . S
C524 H495 0.950 . S
C524 C523 1.334 . S
C524 C525 1.287 . S
C525 C524 1.287 . S
C525 C526 1.524 . S
C525 H528 0.999 . S
C526 H496 0.950 . S
C526 C525 1.524 . S
C526 C527 1.415 . S
C527 H497 0.950 . S
C527 C522 1.363 . S
C527 C526 1.415 . S
H528 C525 0.999 . S
H529 C510 0.913 . S
H530 C548 0.951 . S
H531 C550 0.951 . S
H532 C552 0.950 . S
H533 C553 0.950 . S
H534 C555 0.950 . S
H535 C558 0.950 1_455 S
H536 C559 0.950 . S
H537 C561 0.950 . S
H538 C562 0.950 . S
H539 C563 0.951 . S
H540 C565 0.951 . S
H541 C567 0.950 . S
H542 C568 0.950 . S
H543 C570 0.950 . S
H544 C573 0.943 . S
H545 C574 0.950 . S
H546 C576 0.950 . S
H547 C577 0.950 . S
C548 H530 0.951 . S
C548 C549 1.366 . S
C548 C550 1.388 1_554 S
C549 C548 1.366 . S
C549 C553 1.385 1_655 S
C550 H531 0.951 . S
C550 C548 1.388 1_556 S
C550 C551 1.403 . S
C551 C550 1.403 . S
C551 C552 1.379 1_655 S
C551 C554 1.495 1_655 S
C552 H532 0.950 . S
C552 C551 1.379 1_455 S
C552 C553 1.374 1_556 S
C553 H533 0.950 . S
C553 C549 1.385 1_455 S
C553 C552 1.374 1_554 S
C554 C551 1.495 1_455 S
C554 C555 1.391 . S
C554 C556 1.373 1_455 S
C555 H534 0.950 . S
C555 C554 1.391 . S
C555 C571 1.377 . S
C556 C554 1.373 1_655 S
C556 C557 1.540 . S
C556 C570 1.377 . S
C557 C556 1.540 . S
C557 C558 1.381 1_556 S
C557 C562 1.363 . S
C558 H535 0.950 1_655 S
C558 C557 1.381 1_554 S
C558 C559 1.334 . S
C559 H536 0.950 . S
C559 C558 1.334 . S
C559 C560 1.287 . S
C560 C559 1.287 . S
C560 C561 1.524 . S
C560 H579 0.913 . S
C561 H537 0.950 . S
C561 C560 1.524 . S
C561 C562 1.415 1_554 S
C562 H538 0.950 . S
C562 C557 1.363 . S
C562 C561 1.415 1_556 S
C563 H539 0.951 . S
C563 C564 1.366 . S
C563 C565 1.388 . S
C564 C563 1.366 . S
C564 C568 1.385 1_455 S
C565 H540 0.951 . S
C565 C563 1.388 . S
C565 C566 1.366 . S
C566 C565 1.366 . S
C566 C567 1.414 1_455 S
C566 C569 1.501 . S
C567 H541 0.950 . S
C567 C566 1.414 1_655 S
C567 C568 1.374 . S
C568 H542 0.950 . S
C568 C564 1.385 1_655 S
C568 C567 1.374 . S
C569 C566 1.501 . S
C569 C570 1.357 1_455 S
C569 C571 1.405 . S
C570 H543 0.950 . S
C570 C556 1.377 . S
C570 C569 1.357 1_655 S
C571 C555 1.377 . S
C571 C569 1.405 . S
C571 C572 1.524 . S
C572 C571 1.524 . S
C572 C573 1.397 . S
C572 C577 1.363 . S
C573 H544 0.943 . S
C573 C572 1.397 . S
C573 C574 1.334 . S
C574 H545 0.950 . S
C574 C573 1.334 . S
C574 C575 1.287 . S
C575 C574 1.287 . S
C575 C576 1.524 . S
C575 H578 0.999 . S
C576 H546 0.950 . S
C576 C575 1.524 . S
C576 C577 1.415 . S
C577 H547 0.950 . S
C577 C572 1.363 . S
C577 C576 1.415 . S
H578 C575 0.999 . S
H579 C560 0.913 . S
H580 C598 0.951 . S
H581 C600 0.951 . S
H582 C602 0.950 . S
H583 C603 0.950 . S
H584 C605 0.950 . S
H585 C608 0.950 . S
H586 C609 0.950 . S
H587 C611 0.950 . S
H588 C612 0.950 . S
H589 C613 0.951 1_655 S
H590 C615 0.951 . S
H591 C617 0.950 . S
H592 C618 0.950 . S
H593 C620 0.950 . S
H594 C623 0.950 . S
H595 C624 0.950 . S
H596 C626 0.950 1_655 S
H597 C627 0.950 . S
C598 H580 0.951 . S
C598 C599 1.366 . S
C598 C600 1.388 . S
C599 C598 1.366 . S
C599 C603 1.385 . S
C600 H581 0.951 . S
C600 C598 1.388 . S
C600 C601 1.366 . S
C601 C600 1.366 . S
C601 C602 1.414 . S
C601 C604 1.499 . S
C602 H582 0.950 . S
C602 C601 1.414 . S
C602 C603 1.374 . S
C603 H583 0.950 . S
C603 C599 1.385 . S
C603 C602 1.374 . S
C604 C601 1.499 . S
C604 C605 1.373 . S
C604 C606 1.389 . S
C605 H584 0.950 . S
C605 C604 1.373 . S
C605 C621 1.377 . S
C606 C604 1.389 . S
C606 C607 1.524 . S
C606 C620 1.377 . S
C607 C606 1.524 . S
C607 C608 1.397 . S
C607 C612 1.363 . S
C608 H585 0.950 . S
C608 C607 1.397 . S
C608 C609 1.334 . S
C609 H586 0.950 . S
C609 C608 1.334 . S
C609 C610 1.287 . S
C610 C609 1.287 . S
C610 C611 1.524 . S
C610 H629 0.913 . S
C611 H587 0.950 . S
C611 C610 1.524 . S
C611 C612 1.415 . S
C612 H588 0.950 . S
C612 C607 1.363 . S
C612 C611 1.415 . S
C613 H589 0.951 1_455 S
C613 C614 1.366 . S
C613 C615 1.388 . S
C614 C613 1.366 . S
C614 C618 1.385 . S
C615 H590 0.951 . S
C615 C613 1.388 . S
C615 C616 1.366 . S
C616 C615 1.366 . S
C616 C617 1.414 . S
C616 C619 1.499 . S
C617 H591 0.950 . S
C617 C616 1.414 . S
C617 C618 1.374 . S
C618 H592 0.950 . S
C618 C614 1.385 . S
C618 C617 1.374 . S
C619 C616 1.499 . S
C619 C620 1.373 . S
C619 C621 1.389 . S
C620 H593 0.950 . S
C620 C606 1.377 . S
C620 C619 1.373 . S
C621 C605 1.377 . S
C621 C619 1.389 . S
C621 C622 1.524 . S
C622 C621 1.524 . S
C622 C623 1.397 . S
C622 C627 1.363 . S
C623 H594 0.950 . S
C623 C622 1.397 . S
C623 C624 1.334 . S
C624 H595 0.950 . S
C624 C623 1.334 . S
C624 C625 1.287 . S
C625 C624 1.287 . S
C625 C626 1.524 . S
C625 H628 0.999 . S
C626 H596 0.950 1_455 S
C626 C625 1.524 . S
C626 C627 1.415 . S
C627 H597 0.950 . S
C627 C622 1.363 . S
C627 C626 1.415 . S
H628 C625 0.999 . S
H629 C610 0.913 . S
H630 C648 0.951 . S
H631 C650 0.951 . S
H632 C652 0.950 . S
H633 C653 0.950 . S
H634 C655 0.950 . S
H635 C658 0.950 . S
H636 C659 0.950 . S
H637 C661 0.950 . S
H638 C662 0.950 . S
H639 C663 0.951 . S
H640 C665 0.951 . S
H641 C667 0.950 . S
H642 C668 0.950 . S
H643 C670 0.950 . S
H644 C673 0.950 . S
H645 C674 0.950 . S
H646 C676 0.950 . S
H647 C677 0.950 1_565 S
C648 H630 0.951 . S
C648 C649 1.366 . S
C648 C650 1.388 . S
C649 C648 1.366 . S
C649 C653 1.385 1_545 S
C650 H631 0.951 . S
C650 C648 1.388 . S
C650 C651 1.366 . S
C651 C650 1.366 . S
C651 C652 1.414 1_545 S
C651 C654 1.499 . S
C652 H632 0.950 . S
C652 C651 1.414 1_565 S
C652 C653 1.374 . S
C653 H633 0.950 . S
C653 C649 1.385 1_565 S
C653 C652 1.374 . S
C654 C651 1.499 . S
C654 C655 1.373 . S
C654 C656 1.389 . S
C655 H634 0.950 . S
C655 C654 1.373 . S
C655 C671 1.377 . S
C656 C654 1.389 . S
C656 C657 1.524 1_545 S
C656 C670 1.377 . S
C657 C656 1.524 1_565 S
C657 C658 1.397 . S
C657 C662 1.363 1_565 S
C658 H635 0.950 . S
C658 C657 1.397 . S
C658 C659 1.334 . S
C659 H636 0.950 . S
C659 C658 1.334 . S
C659 C660 1.287 . S
C660 C659 1.287 . S
C660 C661 1.524 1_565 S
C660 H679 0.913 . S
C661 H637 0.950 . S
C661 C660 1.524 1_545 S
C661 C662 1.415 . S
C662 H638 0.950 . S
C662 C657 1.363 1_545 S
C662 C661 1.415 . S
C663 H639 0.951 . S
C663 C664 1.366 1_565 S
C663 C665 1.388 . S
C664 C663 1.366 1_545 S
C664 C668 1.385 . S
C665 H640 0.951 . S
C665 C663 1.388 . S
C665 C666 1.366 1_565 S
C666 C665 1.366 1_545 S
C666 C667 1.414 . S
C666 C669 1.499 . S
C667 H641 0.950 . S
C667 C666 1.414 . S
C667 C668 1.374 . S
C668 H642 0.950 . S
C668 C664 1.385 . S
C668 C667 1.374 . S
C669 C666 1.499 . S
C669 C670 1.373 . S
C669 C671 1.389 . S
C670 H643 0.950 . S
C670 C656 1.377 . S
C670 C669 1.373 . S
C671 C655 1.377 . S
C671 C669 1.389 . S
C671 C672 1.524 . S
C672 C671 1.524 . S
C672 C673 1.397 . S
C672 C677 1.363 . S
C673 H644 0.950 . S
C673 C672 1.397 . S
C673 C674 1.334 . S
C674 H645 0.950 . S
C674 C673 1.334 . S
C674 C675 1.287 . S
C675 C674 1.287 . S
C675 C676 1.524 . S
C675 H678 0.999 . S
C676 H646 0.950 . S
C676 C675 1.524 . S
C676 C677 1.415 . S
C677 H647 0.950 1_545 S
C677 C672 1.363 . S
C677 C676 1.415 . S
H678 C675 0.999 . S
H679 C660 0.913 . S
H680 C698 0.951 . S
H681 C700 0.951 . S
H682 C702 0.950 . S
H683 C703 0.950 . S
H684 C705 0.950 . S
H685 C708 0.950 . S
H686 C709 0.950 . S
H687 C711 0.950 . S
H688 C712 0.950 . S
H689 C713 0.951 . S
H690 C715 0.951 . S
H691 C717 0.950 . S
H692 C718 0.950 . S
H693 C720 0.950 . S
H694 C723 0.950 . S
H695 C724 0.950 . S
H696 C726 0.950 . S
H697 C727 0.950 . S
C698 H680 0.951 . S
C698 C699 1.366 . S
C698 C700 1.388 . S
C699 C698 1.366 . S
C699 C703 1.385 . S
C700 H681 0.951 . S
C700 C698 1.388 . S
C700 C701 1.366 . S
C701 C700 1.366 . S
C701 C702 1.414 . S
C701 C704 1.499 . S
C702 H682 0.950 . S
C702 C701 1.414 . S
C702 C703 1.374 . S
C703 H683 0.950 . S
C703 C699 1.385 . S
C703 C702 1.374 . S
C704 C701 1.499 . S
C704 C705 1.373 . S
C704 C706 1.389 . S
C705 H684 0.950 . S
C705 C704 1.373 . S
C705 C721 1.377 . S
C706 C704 1.389 . S
C706 C707 1.524 . S
C706 C720 1.377 . S
C707 C706 1.524 . S
C707 C708 1.397 . S
C707 C712 1.363 . S
C708 H685 0.950 . S
C708 C707 1.397 . S
C708 C709 1.334 . S
C709 H686 0.950 . S
C709 C708 1.334 . S
C709 C710 1.287 . S
C710 C709 1.287 . S
C710 C711 1.524 . S
C710 H729 0.913 . S
C711 H687 0.950 . S
C711 C710 1.524 . S
C711 C712 1.415 . S
C712 H688 0.950 . S
C712 C707 1.363 . S
C712 C711 1.415 . S
C713 H689 0.951 . S
C713 C714 1.366 . S
C713 C715 1.388 . S
C714 C713 1.366 . S
C714 C718 1.385 . S
C715 H690 0.951 . S
C715 C713 1.388 . S
C715 C716 1.366 . S
C716 C715 1.366 . S
C716 C717 1.414 . S
C716 C719 1.499 . S
C717 H691 0.950 . S
C717 C716 1.414 . S
C717 C718 1.374 . S
C718 H692 0.950 . S
C718 C714 1.385 . S
C718 C717 1.374 . S
C719 C716 1.499 . S
C719 C720 1.373 . S
C719 C721 1.389 . S
C720 H693 0.950 . S
C720 C706 1.377 . S
C720 C719 1.373 . S
C721 C705 1.377 . S
C721 C719 1.389 . S
C721 C722 1.524 . S
C722 C721 1.524 . S
C722 C723 1.397 . S
C722 C727 1.363 . S
C723 H694 0.950 . S
C723 C722 1.397 . S
C723 C724 1.334 . S
C724 H695 0.950 . S
C724 C723 1.334 . S
C724 C725 1.287 . S
C725 C724 1.287 . S
C725 C726 1.524 . S
C725 H728 0.999 . S
C726 H696 0.950 . S
C726 C725 1.524 . S
C726 C727 1.415 . S
C727 H697 0.950 . S
C727 C722 1.363 . S
C727 C726 1.415 . S
H728 C725 0.999 . S
H729 C710 0.913 . S
H730 C748 0.951 . S
H731 C750 0.951 . S
H732 C752 0.950 . S
H733 C753 0.950 . S
H734 C755 0.950 . S
H735 C758 0.950 . S
H736 C759 0.950 . S
H737 C761 0.950 . S
H738 C762 0.950 . S
H739 C763 0.951 . S
H740 C765 0.951 . S
H741 C767 0.950 . S
H742 C768 0.950 . S
H743 C770 0.950 . S
H744 C773 0.950 . S
H745 C774 0.950 . S
H746 C776 0.950 . S
H747 C777 0.950 . S
C748 H730 0.951 . S
C748 C749 1.366 . S
C748 C750 1.388 . S
C749 C748 1.366 . S
C749 C753 1.385 . S
C750 H731 0.951 . S
C750 C748 1.388 . S
C750 C751 1.366 . S
C751 C750 1.366 . S
C751 C752 1.414 . S
C751 C754 1.499 . S
C752 H732 0.950 . S
C752 C751 1.414 . S
C752 C753 1.374 . S
C753 H733 0.950 . S
C753 C749 1.385 . S
C753 C752 1.374 . S
C754 C751 1.499 . S
C754 C755 1.373 . S
C754 C756 1.389 . S
C755 H734 0.950 . S
C755 C754 1.373 . S
C755 C771 1.377 . S
C756 C754 1.389 . S
C756 C757 1.524 . S
C756 C770 1.377 . S
C757 C756 1.524 . S
C757 C758 1.397 . S
C757 C762 1.363 . S
C758 H735 0.950 . S
C758 C757 1.397 . S
C758 C759 1.334 . S
C759 H736 0.950 . S
C759 C758 1.334 . S
C759 C760 1.287 . S
C760 C759 1.287 . S
C760 C761 1.524 . S
C760 H779 0.913 . S
C761 H737 0.950 . S
C761 C760 1.524 . S
C761 C762 1.415 . S
C762 H738 0.950 . S
C762 C757 1.363 . S
C762 C761 1.415 . S
C763 H739 0.951 . S
C763 C764 1.366 . S
C763 C765 1.388 . S
C764 C763 1.366 . S
C764 C768 1.385 . S
C765 H740 0.951 . S
C765 C763 1.388 . S
C765 C766 1.366 . S
C766 C765 1.366 . S
C766 C767 1.414 . S
C766 C769 1.499 . S
C767 H741 0.950 . S
C767 C766 1.414 . S
C767 C768 1.374 . S
C768 H742 0.950 . S
C768 C764 1.385 . S
C768 C767 1.374 . S
C769 C766 1.499 . S
C769 C770 1.373 . S
C769 C771 1.389 . S
C770 H743 0.950 . S
C770 C756 1.377 . S
C770 C769 1.373 . S
C771 C755 1.377 . S
C771 C769 1.389 . S
C771 C772 1.524 . S
C772 C771 1.524 . S
C772 C773 1.397 . S
C772 C777 1.363 . S
C773 H744 0.950 . S
C773 C772 1.397 . S
C773 C774 1.334 . S
C774 H745 0.950 . S
C774 C773 1.334 . S
C774 C775 1.287 . S
C775 C774 1.287 . S
C775 C776 1.524 . S
C775 H778 0.999 . S
C776 H746 0.950 . S
C776 C775 1.524 . S
C776 C777 1.415 . S
C777 H747 0.950 . S
C777 C772 1.363 . S
C777 C776 1.415 . S
H778 C775 0.999 . S
H779 C760 0.913 . S
H780 C798 0.951 . S
H781 C800 0.951 . S
H782 C802 0.950 . S
H783 C803 0.950 . S
H784 C805 0.950 1_554 S
H785 C808 0.950 . S
H786 C809 0.950 . S
H787 C811 0.932 1_655 S
H788 C812 0.950 1_655 S
H789 C813 0.951 . S
H790 C815 0.951 . S
H791 C817 0.950 . S
H792 C818 0.950 . S
H793 C820 0.950 . S
H794 C823 0.927 1_655 S
H795 C824 0.936 1_655 S
H796 C826 0.950 . S
H797 C827 0.950 . S
C798 H780 0.951 . S
C798 C799 1.363 . S
C798 C800 1.388 1_554 S
C799 C798 1.363 . S
C799 C803 1.389 1_655 S
C800 H781 0.951 . S
C800 C798 1.388 1_556 S
C800 C801 1.366 1_655 S
C801 C800 1.366 1_455 S
C801 C802 1.414 1_556 S
C801 C804 1.499 . S
C802 H782 0.950 . S
C802 C801 1.414 1_554 S
C802 C803 1.374 . S
C803 H783 0.950 . S
C803 C799 1.389 1_455 S
C803 C802 1.374 . S
C804 C801 1.499 . S
C804 C805 1.373 . S
C804 C806 1.389 . S
C805 H784 0.950 1_556 S
C805 C804 1.373 . S
C805 C821 1.377 . S
C806 C804 1.389 . S
C806 C807 1.524 . S
C806 C820 1.377 . S
C807 C806 1.524 . S
C807 C808 1.397 . S
C807 C812 1.363 . S
C808 H785 0.950 . S
C808 C807 1.397 . S
C808 C809 1.334 . S
C809 H786 0.950 . S
C809 C808 1.334 . S
C809 C810 1.287 . S
C810 C809 1.287 . S
C810 C811 1.544 . S
C810 H829 0.913 . S
C811 H787 0.932 1_455 S
C811 C810 1.544 . S
C811 C812 1.416 . S
C812 H788 0.950 1_455 S
C812 C807 1.363 . S
C812 C811 1.416 . S
C813 H789 0.951 . S
C813 C814 1.366 . S
C813 C815 1.388 . S
C814 C813 1.366 . S
C814 C818 1.385 . S
C815 H790 0.951 . S
C815 C813 1.388 . S
C815 C816 1.366 . S
C816 C815 1.366 . S
C816 C817 1.414 . S
C816 C819 1.499 . S
C817 H791 0.950 . S
C817 C816 1.414 . S
C817 C818 1.374 . S
C818 H792 0.950 . S
C818 C814 1.385 . S
C818 C817 1.374 . S
C819 C816 1.499 . S
C819 C820 1.373 . S
C819 C821 1.389 . S
C820 H793 0.950 . S
C820 C806 1.377 . S
C820 C819 1.373 . S
C821 C805 1.377 . S
C821 C819 1.389 . S
C821 C822 1.524 1_556 S
C822 C821 1.524 1_554 S
C822 C823 1.397 1_554 S
C822 C827 1.363 . S
C823 H794 0.927 1_455 S
C823 C822 1.397 1_556 S
C823 C824 1.334 1_556 S
C824 H795 0.936 1_455 S
C824 C823 1.334 1_554 S
C824 C825 1.287 . S
C825 C824 1.287 . S
C825 C826 1.524 . S
C825 H828 0.999 . S
C826 H796 0.950 . S
C826 C825 1.524 . S
C826 C827 1.415 . S
C827 H797 0.950 . S
C827 C822 1.363 . S
C827 C826 1.415 . S
H828 C825 0.999 . S
H829 C810 0.913 . S
H830 C848 0.951 . S
H831 C850 0.951 . S
H832 C852 0.950 . S
H833 C853 0.950 . S
H834 C855 0.950 1_565 S
H835 C858 0.950 . S
H836 C859 0.950 . S
H837 C861 0.950 . S
H838 C862 0.950 . S
H839 C863 0.951 . S
H840 C865 0.951 . S
H841 C867 0.950 . S
H842 C868 0.950 . S
H843 C870 0.950 . S
H844 C873 0.950 . S
H845 C874 0.950 . S
H846 C876 0.950 . S
H847 C877 0.950 1_554 S
C848 H830 0.951 . S
C848 C849 1.368 1_556 S
C848 C850 1.388 1_565 S
C849 C848 1.368 1_554 S
C849 C853 1.375 1_565 S
C850 H831 0.951 . S
C850 C848 1.388 1_545 S
C850 C851 1.366 . S
C851 C850 1.366 . S
C851 C852 1.414 1_556 S
C851 C854 1.499 . S
C852 H832 0.950 . S
C852 C851 1.414 1_554 S
C852 C853 1.374 . S
C853 H833 0.950 . S
C853 C849 1.375 1_545 S
C853 C852 1.374 . S
C854 C851 1.499 . S
C854 C855 1.373 . S
C854 C856 1.389 . S
C855 H834 0.950 1_545 S
C855 C854 1.373 . S
C855 C871 1.377 . S
C856 C854 1.389 . S
C856 C857 1.524 . S
C856 C870 1.377 . S
C857 C856 1.524 . S
C857 C858 1.397 . S
C857 C862 1.363 . S
C858 H835 0.950 . S
C858 C857 1.397 . S
C858 C859 1.334 . S
C859 H836 0.950 . S
C859 C858 1.334 . S
C859 C860 1.287 . S
C860 C859 1.287 . S
C860 C861 1.524 . S
C860 H879 0.913 . S
C861 H837 0.950 . S
C861 C860 1.524 . S
C861 C862 1.415 . S
C862 H838 0.950 . S
C862 C857 1.363 . S
C862 C861 1.415 . S
C863 H839 0.951 . S
C863 C864 1.366 . S
C863 C865 1.388 . S
C864 C863 1.366 . S
C864 C868 1.385 . S
C865 H840 0.951 . S
C865 C863 1.388 . S
C865 C866 1.366 . S
C866 C865 1.366 . S
C866 C867 1.414 . S
C866 C869 1.499 . S
C867 H841 0.950 . S
C867 C866 1.414 . S
C867 C868 1.374 . S
C868 H842 0.950 . S
C868 C864 1.385 . S
C868 C867 1.374 . S
C869 C866 1.499 . S
C869 C870 1.373 . S
C869 C871 1.389 . S
C870 H843 0.950 . S
C870 C856 1.377 . S
C870 C869 1.373 . S
C871 C855 1.377 . S
C871 C869 1.389 . S
C871 C872 1.524 1_545 S
C872 C871 1.524 1_565 S
C872 C873 1.397 . S
C872 C877 1.363 . S
C873 H844 0.950 . S
C873 C872 1.397 . S
C873 C874 1.334 . S
C874 H845 0.950 . S
C874 C873 1.334 . S
C874 C875 1.287 . S
C875 C874 1.287 . S
C875 C876 1.524 1_556 S
C875 H878 0.999 . S
C876 H846 0.950 . S
C876 C875 1.524 1_554 S
C876 C877 1.415 1_554 S
C877 H847 0.950 1_556 S
C877 C872 1.363 . S
C877 C876 1.415 1_556 S
H878 C875 0.999 . S
H879 C860 0.913 . S
H880 C898 0.951 . S
H881 C900 0.951 . S
H882 C902 0.950 . S
H883 C903 0.950 . S
H884 C905 0.950 . S
H885 C908 0.950 . S
H886 C909 0.950 . S
H887 C911 0.950 . S
H888 C912 0.950 . S
H889 C913 0.951 . S
H890 C915 0.951 . S
H891 C917 0.950 . S
H892 C918 0.950 . S
H893 C920 0.950 . S
H894 C923 0.950 . S
H895 C924 0.950 . S
H896 C926 0.950 1_554 S
H897 C927 0.950 . S
C898 H880 0.951 . S
C898 C899 1.366 . S
C898 C900 1.388 . S
C899 C898 1.366 . S
C899 C903 1.385 . S
C900 H881 0.951 . S
C900 C898 1.388 . S
C900 C901 1.366 . S
C901 C900 1.366 . S
C901 C902 1.414 . S
C901 C904 1.499 . S
C902 H882 0.950 . S
C902 C901 1.414 . S
C902 C903 1.374 . S
C903 H883 0.950 . S
C903 C899 1.385 . S
C903 C902 1.374 . S
C904 C901 1.499 . S
C904 C905 1.373 . S
C904 C906 1.389 . S
C905 H884 0.950 . S
C905 C904 1.373 . S
C905 C921 1.377 . S
C906 C904 1.389 . S
C906 C907 1.524 . S
C906 C920 1.377 . S
C907 C906 1.524 . S
C907 C908 1.397 . S
C907 C912 1.363 . S
C908 H885 0.950 . S
C908 C907 1.397 . S
C908 C909 1.334 . S
C909 H886 0.950 . S
C909 C908 1.334 . S
C909 C910 1.287 . S
C910 C909 1.287 . S
C910 C911 1.524 . S
C910 H929 0.913 . S
C911 H887 0.950 . S
C911 C910 1.524 . S
C911 C912 1.415 . S
C912 H888 0.950 . S
C912 C907 1.363 . S
C912 C911 1.415 . S
C913 H889 0.951 . S
C913 C914 1.366 . S
C913 C915 1.388 . S
C914 C913 1.366 . S
C914 C918 1.385 . S
C915 H890 0.951 . S
C915 C913 1.388 . S
C915 C916 1.366 . S
C916 C915 1.366 . S
C916 C917 1.414 . S
C916 C919 1.499 . S
C917 H891 0.950 . S
C917 C916 1.414 . S
C917 C918 1.374 . S
C918 H892 0.950 . S
C918 C914 1.385 . S
C918 C917 1.374 . S
C919 C916 1.499 . S
C919 C920 1.373 . S
C919 C921 1.389 . S
C920 H893 0.950 . S
C920 C906 1.377 . S
C920 C919 1.373 . S
C921 C905 1.377 . S
C921 C919 1.389 . S
C921 C922 1.524 . S
C922 C921 1.524 . S
C922 C923 1.397 . S
C922 C927 1.363 . S
C923 H894 0.950 . S
C923 C922 1.397 . S
C923 C924 1.334 . S
C924 H895 0.950 . S
C924 C923 1.334 . S
C924 C925 1.287 . S
C925 C924 1.287 . S
C925 C926 1.524 . S
C925 H928 0.999 1_556 S
C926 H896 0.950 1_556 S
C926 C925 1.524 . S
C926 C927 1.415 . S
C927 H897 0.950 . S
C927 C922 1.363 . S
C927 C926 1.415 . S
H928 C925 0.999 1_554 S
H929 C910 0.913 . S
H930 C948 0.951 . S
H931 C950 0.951 . S
H932 C952 0.950 . S
H933 C953 0.950 . S
H934 C955 0.950 . S
H935 C958 0.950 . S
H936 C959 0.950 . S
H937 C961 0.950 1_554 S
H938 C962 0.950 . S
H939 C963 0.951 . S
H940 C965 0.951 . S
H941 C967 0.950 . S
H942 C968 0.950 . S
H943 C970 0.950 . S
H944 C973 0.950 . S
H945 C974 0.950 . S
H946 C976 0.950 . S
H947 C977 0.950 . S
C948 H930 0.951 . S
C948 C949 1.366 1_554 S
C948 C950 1.388 1_554 S
C949 C948 1.366 1_556 S
C949 C953 1.385 . S
C950 H931 0.951 . S
C950 C948 1.388 1_556 S
C950 C951 1.366 . S
C951 C950 1.366 . S
C951 C952 1.414 . S
C951 C954 1.499 . S
C952 H932 0.950 . S
C952 C951 1.414 . S
C952 C953 1.374 . S
C953 H933 0.950 . S
C953 C949 1.385 . S
C953 C952 1.374 . S
C954 C951 1.499 . S
C954 C955 1.373 . S
C954 C956 1.389 . S
C955 H934 0.950 . S
C955 C954 1.373 . S
C955 C971 1.377 . S
C956 C954 1.389 . S
C956 C957 1.524 . S
C956 C970 1.377 . S
C957 C956 1.524 . S
C957 C958 1.397 . S
C957 C962 1.363 . S
C958 H935 0.950 . S
C958 C957 1.397 . S
C958 C959 1.334 . S
C959 H936 0.950 . S
C959 C958 1.334 . S
C959 C960 1.287 . S
C960 C959 1.287 . S
C960 C961 1.524 . S
C960 H979 0.913 . S
C961 H937 0.950 1_556 S
C961 C960 1.524 . S
C961 C962 1.415 . S
C962 H938 0.950 . S
C962 C957 1.363 . S
C962 C961 1.415 . S
C963 H939 0.951 . S
C963 C964 1.366 . S
C963 C965 1.388 . S
C964 C963 1.366 . S
C964 C968 1.385 . S
C965 H940 0.951 . S
C965 C963 1.388 . S
C965 C966 1.366 . S
C966 C965 1.366 . S
C966 C967 1.414 . S
C966 C969 1.499 . S
C967 H941 0.950 . S
C967 C966 1.414 . S
C967 C968 1.374 . S
C968 H942 0.950 . S
C968 C964 1.385 . S
C968 C967 1.374 . S
C969 C966 1.499 . S
C969 C970 1.373 . S
C969 C971 1.389 . S
C970 H943 0.950 . S
C970 C956 1.377 . S
C970 C969 1.373 . S
C971 C955 1.377 . S
C971 C969 1.389 . S
C971 C972 1.524 . S
C972 C971 1.524 . S
C972 C973 1.397 . S
C972 C977 1.363 . S
C973 H944 0.950 . S
C973 C972 1.397 . S
C973 C974 1.334 . S
C974 H945 0.950 . S
C974 C973 1.334 . S
C974 C975 1.287 . S
C975 C974 1.287 . S
C975 C976 1.524 . S
C975 H978 0.999 . S
C976 H946 0.950 . S
C976 C975 1.524 . S
C976 C977 1.415 . S
C977 H947 0.950 . S
C977 C972 1.363 . S
C977 C976 1.415 . S
H978 C975 0.999 . S
H979 C960 0.913 . S
H980 C998 0.951 . S
H981 C1000 0.951 . S
H982 C1002 0.950 . S
H983 C1003 0.950 . S
H984 C1005 0.950 . S
H985 C1008 0.950 1_455 S
H986 C1009 0.950 . S
H987 C1011 0.960 . S
H988 C1012 0.950 1_456 S
H989 C1013 0.951 . S
H990 C1015 0.951 1_554 S
H991 C1017 0.950 . S
H992 C1018 0.950 . S
H993 C1020 0.950 1_556 S
H994 C1023 0.950 . S
H995 C1024 0.950 . S
H996 C1026 0.950 . S
H997 C1027 0.950 . S
C998 H980 0.951 . S
C998 C999 1.366 . S
C998 C1000 1.388 . S
C999 C998 1.366 . S
C999 C1003 1.385 . S
C1000 H981 0.951 . S
C1000 C998 1.388 . S
C1000 C1001 1.366 . S
C1001 C1000 1.366 . S
C1001 C1002 1.414 . S
C1001 C1004 1.499 . S
C1002 H982 0.950 . S
C1002 C1001 1.414 . S
C1002 C1003 1.374 . S
C1003 H983 0.950 . S
C1003 C999 1.385 . S
C1003 C1002 1.374 . S
C1004 C1001 1.499 . S
C1004 C1005 1.373 . S
C1004 C1006 1.389 . S
C1005 H984 0.950 . S
C1005 C1004 1.373 . S
C1005 C1021 1.377 . S
C1006 C1004 1.389 . S
C1006 C1007 1.524 . S
C1006 C1020 1.377 . S
C1007 C1006 1.524 . S
C1007 C1008 1.397 1_455 S
C1007 C1012 1.363 1_455 S
C1008 H985 0.950 1_655 S
C1008 C1007 1.397 1_655 S
C1008 C1009 1.334 . S
C1009 H986 0.950 . S
C1009 C1008 1.334 . S
C1009 C1010 1.287 . S
C1010 C1009 1.287 . S
C1010 C1011 1.524 . S
C1010 H1029 0.913 . S
C1011 H987 0.960 . S
C1011 C1010 1.524 . S
C1011 C1012 1.415 . S
C1012 H988 0.950 1_654 S
C1012 C1007 1.363 1_655 S
C1012 C1011 1.415 . S
C1013 H989 0.951 . S
C1013 C1014 1.366 . S
C1013 C1015 1.388 . S
C1014 C1013 1.366 . S
C1014 C1018 1.385 . S
C1015 H990 0.951 1_556 S
C1015 C1013 1.388 . S
C1015 C1016 1.366 . S
C1016 C1015 1.366 . S
C1016 C1017 1.414 . S
C1016 C1019 1.499 1_556 S
C1017 H991 0.950 . S
C1017 C1016 1.414 . S
C1017 C1018 1.374 . S
C1018 H992 0.950 . S
C1018 C1014 1.385 . S
C1018 C1017 1.374 . S
C1019 C1016 1.499 1_554 S
C1019 C1020 1.373 . S
C1019 C1021 1.389 . S
C1020 H993 0.950 1_554 S
C1020 C1006 1.377 . S
C1020 C1019 1.373 . S
C1021 C1005 1.377 . S
C1021 C1019 1.389 . S
C1021 C1022 1.524 . S
C1022 C1021 1.524 . S
C1022 C1023 1.397 1_554 S
C1022 C1027 1.363 . S
C1023 H994 0.950 . S
C1023 C1022 1.397 1_556 S
C1023 C1024 1.334 . S
C1024 H995 0.950 . S
C1024 C1023 1.334 . S
C1024 C1025 1.287 1_556 S
C1025 C1024 1.287 1_554 S
C1025 C1026 1.524 . S
C1025 H1028 0.999 . S
C1026 H996 0.950 . S
C1026 C1025 1.524 . S
C1026 C1027 1.415 . S
C1027 H997 0.950 . S
C1027 C1022 1.363 . S
C1027 C1026 1.415 . S
H1028 C1025 0.999 . S
H1029 C1010 0.913 . S
H1030 C1048 0.951 . S
H1031 C1050 0.951 . S
H1032 C1052 0.950 . S
H1033 C1053 0.950 . S
H1034 C1055 0.950 . S
H1035 C1058 0.950 . S
H1036 C1059 0.950 . S
H1037 C1061 0.950 . S
H1038 C1062 0.950 . S
H1039 C1063 0.951 . S
H1040 C1065 0.951 . S
H1041 C1067 0.950 . S
H1042 C1068 0.950 . S
H1043 C1070 0.950 . S
H1044 C1073 0.950 . S
H1045 C1074 0.950 . S
H1046 C1076 0.950 . S
H1047 C1077 0.950 . S
C1048 H1030 0.951 . S
C1048 C1049 1.366 . S
C1048 C1050 1.388 . S
C1049 C1048 1.366 . S
C1049 C1053 1.385 . S
C1050 H1031 0.951 . S
C1050 C1048 1.388 . S
C1050 C1051 1.366 . S
C1051 C1050 1.366 . S
C1051 C1052 1.414 . S
C1051 C1054 1.499 . S
C1052 H1032 0.950 . S
C1052 C1051 1.414 . S
C1052 C1053 1.374 . S
C1053 H1033 0.950 . S
C1053 C1049 1.385 . S
C1053 C1052 1.374 . S
C1054 C1051 1.499 . S
C1054 C1055 1.373 . S
C1054 C1056 1.389 1_545 S
C1055 H1034 0.950 . S
C1055 C1054 1.373 . S
C1055 C1071 1.377 . S
C1056 C1054 1.389 1_565 S
C1056 C1057 1.524 1_554 S
C1056 C1070 1.377 1_554 S
C1057 C1056 1.524 1_556 S
C1057 C1058 1.397 1_556 S
C1057 C1062 1.363 . S
C1058 H1035 0.950 . S
C1058 C1057 1.397 1_554 S
C1058 C1059 1.334 . S
C1059 H1036 0.950 . S
C1059 C1058 1.334 . S
C1059 C1060 1.287 1_554 S
C1060 C1059 1.287 1_556 S
C1060 C1061 1.524 . S
C1060 H1079 0.913 . S
C1061 H1037 0.950 . S
C1061 C1060 1.524 . S
C1061 C1062 1.415 . S
C1062 H1038 0.950 . S
C1062 C1057 1.363 . S
C1062 C1061 1.415 . S
C1063 H1039 0.951 . S
C1063 C1064 1.366 . S
C1063 C1065 1.388 . S
C1064 C1063 1.366 . S
C1064 C1068 1.385 . S
C1065 H1040 0.951 . S
C1065 C1063 1.388 . S
C1065 C1066 1.366 . S
C1066 C1065 1.366 . S
C1066 C1067 1.414 . S
C1066 C1069 1.499 . S
C1067 H1041 0.950 . S
C1067 C1066 1.414 . S
C1067 C1068 1.374 . S
C1068 H1042 0.950 . S
C1068 C1064 1.385 . S
C1068 C1067 1.374 . S
C1069 C1066 1.499 . S
C1069 C1070 1.373 1_545 S
C1069 C1071 1.389 1_556 S
C1070 H1043 0.950 . S
C1070 C1056 1.377 1_556 S
C1070 C1069 1.373 1_565 S
C1071 C1055 1.377 . S
C1071 C1069 1.389 1_554 S
C1071 C1072 1.524 . S
C1072 C1071 1.524 . S
C1072 C1073 1.397 1_554 S
C1072 C1077 1.363 . S
C1073 H1044 0.950 . S
C1073 C1072 1.397 1_556 S
C1073 C1074 1.334 . S
C1074 H1045 0.950 . S
C1074 C1073 1.334 . S
C1074 C1075 1.287 1_556 S
C1075 C1074 1.287 1_554 S
C1075 C1076 1.524 . S
C1075 H1078 0.999 . S
C1076 H1046 0.950 . S
C1076 C1075 1.524 . S
C1076 C1077 1.415 . S
C1077 H1047 0.950 . S
C1077 C1072 1.363 . S
C1077 C1076 1.415 . S
H1078 C1075 0.999 . S
H1079 C1060 0.913 . S
H1080 C1098 0.951 . S
H1081 C1100 0.951 . S
H1082 C1102 0.950 . S
H1083 C1103 0.950 . S
H1084 C1105 0.950 . S
H1085 C1108 0.950 . S
H1086 C1109 0.950 . S
H1087 C1111 0.950 . S
H1088 C1112 0.950 . S
H1089 C1113 0.951 . S
H1090 C1115 0.951 . S
H1091 C1117 0.950 . S
H1092 C1118 0.950 . S
H1093 C1120 0.950 . S
H1094 C1123 0.950 . S
H1095 C1124 0.950 . S
H1096 C1126 0.950 . S
H1097 C1127 0.950 . S
C1098 H1080 0.951 . S
C1098 C1099 1.366 . S
C1098 C1100 1.388 . S
C1099 C1098 1.366 . S
C1099 C1103 1.385 . S
C1100 H1081 0.951 . S
C1100 C1098 1.388 . S
C1100 C1101 1.366 . S
C1101 C1100 1.366 . S
C1101 C1102 1.414 . S
C1101 C1104 1.499 . S
C1102 H1082 0.950 . S
C1102 C1101 1.414 . S
C1102 C1103 1.374 . S
C1103 H1083 0.950 . S
C1103 C1099 1.385 . S
C1103 C1102 1.374 . S
C1104 C1101 1.499 . S
C1104 C1105 1.373 1_554 S
C1104 C1106 1.389 . S
C1105 H1084 0.950 . S
C1105 C1104 1.373 1_556 S
C1105 C1121 1.377 . S
C1106 C1104 1.389 . S
C1106 C1107 1.524 . S
C1106 C1120 1.377 1_554 S
C1107 C1106 1.524 . S
C1107 C1108 1.397 . S
C1107 C1112 1.363 . S
C1108 H1085 0.950 . S
C1108 C1107 1.397 . S
C1108 C1109 1.334 . S
C1109 H1086 0.950 . S
C1109 C1108 1.334 . S
C1109 C1110 1.287 . S
C1110 C1109 1.287 . S
C1110 C1111 1.524 . S
C1110 H1129 0.913 . S
C1111 H1087 0.950 . S
C1111 C1110 1.524 . S
C1111 C1112 1.415 . S
C1112 H1088 0.950 . S
C1112 C1107 1.363 . S
C1112 C1111 1.415 . S
C1113 H1089 0.951 . S
C1113 C1114 1.366 . S
C1113 C1115 1.388 . S
C1114 C1113 1.366 . S
C1114 C1118 1.385 . S
C1115 H1090 0.951 . S
C1115 C1113 1.388 . S
C1115 C1116 1.366 . S
C1116 C1115 1.366 . S
C1116 C1117 1.414 . S
C1116 C1119 1.499 . S
C1117 H1091 0.950 . S
C1117 C1116 1.414 . S
C1117 C1118 1.374 . S
C1118 H1092 0.950 . S
C1118 C1114 1.385 . S
C1118 C1117 1.374 . S
C1119 C1116 1.499 . S
C1119 C1120 1.373 . S
C1119 C1121 1.389 . S
C1120 H1093 0.950 . S
C1120 C1106 1.377 1_556 S
C1120 C1119 1.373 . S
C1121 C1105 1.377 . S
C1121 C1119 1.389 . S
C1121 C1122 1.524 . S
C1122 C1121 1.524 . S
C1122 C1123 1.397 . S
C1122 C1127 1.363 . S
C1123 H1094 0.950 . S
C1123 C1122 1.397 . S
C1123 C1124 1.334 . S
C1124 H1095 0.950 . S
C1124 C1123 1.334 . S
C1124 C1125 1.287 . S
C1125 C1124 1.287 . S
C1125 C1126 1.524 . S
C1125 H1128 0.999 . S
C1126 H1096 0.950 . S
C1126 C1125 1.524 . S
C1126 C1127 1.415 . S
C1127 H1097 0.950 . S
C1127 C1122 1.363 . S
C1127 C1126 1.415 . S
H1128 C1125 0.999 . S
H1129 C1110 0.913 . S
H1130 C1148 0.951 . S
H1131 C1150 0.951 . S
H1132 C1152 0.950 . S
H1133 C1153 0.950 . S
H1134 C1155 0.950 . S
H1135 C1158 0.950 1_554 S
H1136 C1159 0.950 . S
H1137 C1161 0.950 . S
H1138 C1162 0.950 . S
H1139 C1163 0.951 . S
H1140 C1165 0.951 . S
H1141 C1167 0.950 . S
H1142 C1168 0.950 . S
H1143 C1170 0.950 . S
H1144 C1173 0.950 1_556 S
H1145 C1174 0.950 1_556 S
H1146 C1176 0.950 . S
H1147 C1177 0.950 . S
C1148 H1130 0.951 . S
C1148 C1149 1.366 . S
C1148 C1150 1.388 . S
C1149 C1148 1.366 . S
C1149 C1153 1.385 . S
C1150 H1131 0.951 . S
C1150 C1148 1.388 . S
C1150 C1151 1.366 . S
C1151 C1150 1.366 . S
C1151 C1152 1.414 . S
C1151 C1154 1.499 . S
C1152 H1132 0.950 . S
C1152 C1151 1.414 . S
C1152 C1153 1.374 . S
C1153 H1133 0.950 . S
C1153 C1149 1.385 . S
C1153 C1152 1.374 . S
C1154 C1151 1.499 . S
C1154 C1155 1.373 . S
C1154 C1156 1.389 1_554 S
C1155 H1134 0.950 . S
C1155 C1154 1.373 . S
C1155 C1171 1.377 . S
C1156 C1154 1.389 1_556 S
C1156 C1157 1.524 . S
C1156 C1170 1.377 . S
C1157 C1156 1.524 . S
C1157 C1158 1.397 . S
C1157 C1162 1.363 . S
C1158 H1135 0.950 1_556 S
C1158 C1157 1.397 . S
C1158 C1159 1.334 . S
C1159 H1136 0.950 . S
C1159 C1158 1.334 . S
C1159 C1160 1.287 . S
C1160 C1159 1.287 . S
C1160 C1161 1.524 . S
C1160 H1179 0.913 . S
C1161 H1137 0.950 . S
C1161 C1160 1.524 . S
C1161 C1162 1.415 . S
C1162 H1138 0.950 . S
C1162 C1157 1.363 . S
C1162 C1161 1.415 . S
C1163 H1139 0.951 . S
C1163 C1164 1.366 . S
C1163 C1165 1.388 . S
C1164 C1163 1.366 . S
C1164 C1168 1.385 . S
C1165 H1140 0.951 . S
C1165 C1163 1.388 . S
C1165 C1166 1.366 . S
C1166 C1165 1.366 . S
C1166 C1167 1.414 . S
C1166 C1169 1.499 . S
C1167 H1141 0.950 . S
C1167 C1166 1.414 . S
C1167 C1168 1.374 . S
C1168 H1142 0.950 . S
C1168 C1164 1.385 . S
C1168 C1167 1.374 . S
C1169 C1166 1.499 . S
C1169 C1170 1.373 . S
C1169 C1171 1.389 1_556 S
C1170 H1143 0.950 . S
C1170 C1156 1.377 . S
C1170 C1169 1.373 . S
C1171 C1155 1.377 . S
C1171 C1169 1.389 1_554 S
C1171 C1172 1.524 . S
C1172 C1171 1.524 . S
C1172 C1173 1.397 . S
C1172 C1177 1.363 . S
C1173 H1144 0.950 1_554 S
C1173 C1172 1.397 . S
C1173 C1174 1.334 . S
C1174 H1145 0.950 1_554 S
C1174 C1173 1.334 . S
C1174 C1175 1.287 . S
C1175 C1174 1.287 . S
C1175 C1176 1.524 . S
C1175 H1178 0.999 . S
C1176 H1146 0.950 . S
C1176 C1175 1.524 . S
C1176 C1177 1.415 . S
C1177 H1147 0.950 . S
C1177 C1172 1.363 . S
C1177 C1176 1.415 . S
H1178 C1175 0.999 . S
H1179 C1160 0.913 . S
H1180 C1198 0.951 . S
H1181 C1200 0.951 . S
H1182 C1202 0.950 . S
H1183 C1203 0.950 . S
H1184 C1205 0.950 . S
H1185 C1208 0.950 . S
H1186 C1209 0.950 . S
H1187 C1211 0.950 . S
H1188 C1212 0.950 . S
H1189 C1213 0.951 . S
H1190 C1215 0.951 . S
H1191 C1217 0.950 . S
H1192 C1218 0.950 . S
H1193 C1220 0.950 . S
H1194 C1223 0.950 . S
H1195 C1224 0.950 . S
H1196 C1226 0.974 . S
H1197 C1227 0.950 . S
C1198 H1180 0.951 . S
C1198 C1199 1.348 1_655 S
C1198 C1200 1.388 . S
C1199 C1198 1.348 1_455 S
C1199 C1203 1.402 . S
C1200 H1181 0.951 . S
C1200 C1198 1.388 . S
C1200 C1201 1.370 . S
C1201 C1200 1.370 . S
C1201 C1202 1.410 1_655 S
C1201 C1204 1.498 . S
C1202 H1182 0.950 . S
C1202 C1201 1.410 1_455 S
C1202 C1203 1.374 . S
C1203 H1183 0.950 . S
C1203 C1199 1.402 . S
C1203 C1202 1.374 . S
C1204 C1201 1.498 . S
C1204 C1205 1.376 . S
C1204 C1206 1.389 . S
C1205 H1184 0.950 . S
C1205 C1204 1.376 . S
C1205 C1221 1.377 . S
C1206 C1204 1.389 . S
C1206 C1207 1.519 1_655 S
C1206 C1220 1.382 . S
C1207 C1206 1.519 1_455 S
C1207 C1208 1.397 . S
C1207 C1212 1.363 1_455 S
C1208 H1185 0.950 . S
C1208 C1207 1.397 . S
C1208 C1209 1.334 . S
C1209 H1186 0.950 . S
C1209 C1208 1.334 . S
C1209 C1210 1.287 . S
C1210 C1209 1.287 . S
C1210 C1211 1.524 1_455 S
C1210 H1229 0.913 . S
C1211 H1187 0.950 . S
C1211 C1210 1.524 1_655 S
C1211 C1212 1.415 . S
C1212 H1188 0.950 . S
C1212 C1207 1.363 1_655 S
C1212 C1211 1.415 . S
C1213 H1189 0.951 . S
C1213 C1214 1.366 1_455 S
C1213 C1215 1.388 . S
C1214 C1213 1.366 1_655 S
C1214 C1218 1.385 . S
C1215 H1190 0.951 . S
C1215 C1213 1.388 . S
C1215 C1216 1.366 1_455 S
C1216 C1215 1.366 1_655 S
C1216 C1217 1.414 . S
C1216 C1219 1.499 . S
C1217 H1191 0.950 . S
C1217 C1216 1.414 . S
C1217 C1218 1.374 . S
C1218 H1192 0.950 . S
C1218 C1214 1.385 . S
C1218 C1217 1.374 . S
C1219 C1216 1.499 . S
C1219 C1220 1.373 . S
C1219 C1221 1.389 . S
C1220 H1193 0.950 . S
C1220 C1206 1.382 . S
C1220 C1219 1.373 . S
C1221 C1205 1.377 . S
C1221 C1219 1.389 . S
C1221 C1222 1.524 . S
C1222 C1221 1.524 . S
C1222 C1223 1.397 . S
C1222 C1227 1.363 1_655 S
C1223 H1194 0.950 . S
C1223 C1222 1.397 . S
C1223 C1224 1.334 . S
C1224 H1195 0.950 . S
C1224 C1223 1.334 . S
C1224 C1225 1.287 . S
C1225 C1224 1.287 . S
C1225 C1226 1.490 1_655 S
C1225 H1228 0.999 . S
C1226 H1196 0.974 . S
C1226 C1225 1.490 1_455 S
C1226 C1227 1.422 . S
C1227 H1197 0.950 . S
C1227 C1222 1.363 1_455 S
C1227 C1226 1.422 . S
H1228 C1225 0.999 . S
H1229 C1210 0.913 . S
H1230 C1248 0.951 . S
H1231 C1250 0.951 . S
H1232 C1252 0.950 . S
H1233 C1253 0.950 1_545 S
H1234 C1255 0.950 . S
H1235 C1258 0.950 . S
H1236 C1259 0.950 . S
H1237 C1261 0.950 . S
H1238 C1262 0.950 . S
H1239 C1263 0.951 . S
H1240 C1265 0.951 . S
H1241 C1267 0.950 . S
H1242 C1268 0.950 . S
H1243 C1270 0.950 . S
H1244 C1273 0.950 . S
H1245 C1274 0.950 . S
H1246 C1276 0.950 . S
H1247 C1277 0.950 . S
C1248 H1230 0.951 . S
C1248 C1249 1.369 . S
C1248 C1250 1.388 . S
C1249 C1248 1.369 . S
C1249 C1253 1.384 . S
C1250 H1231 0.951 . S
C1250 C1248 1.388 . S
C1250 C1251 1.366 . S
C1251 C1250 1.366 . S
C1251 C1252 1.414 . S
C1251 C1254 1.499 . S
C1252 H1232 0.950 . S
C1252 C1251 1.414 . S
C1252 C1253 1.374 . S
C1253 H1233 0.950 1_565 S
C1253 C1249 1.384 . S
C1253 C1252 1.374 . S
C1254 C1251 1.499 . S
C1254 C1255 1.373 1_565 S
C1254 C1256 1.389 . S
C1255 H1234 0.950 . S
C1255 C1254 1.373 1_545 S
C1255 C1271 1.377 . S
C1256 C1254 1.389 . S
C1256 C1257 1.524 . S
C1256 C1270 1.377 . S
C1257 C1256 1.524 . S
C1257 C1258 1.397 . S
C1257 C1262 1.363 . S
C1258 H1235 0.950 . S
C1258 C1257 1.397 . S
C1258 C1259 1.334 . S
C1259 H1236 0.950 . S
C1259 C1258 1.334 . S
C1259 C1260 1.287 . S
C1260 C1259 1.287 . S
C1260 C1261 1.524 . S
C1260 H1279 0.913 . S
C1261 H1237 0.950 . S
C1261 C1260 1.524 . S
C1261 C1262 1.415 . S
C1262 H1238 0.950 . S
C1262 C1257 1.363 . S
C1262 C1261 1.415 . S
C1263 H1239 0.951 . S
C1263 C1264 1.366 . S
C1263 C1265 1.388 . S
C1264 C1263 1.366 . S
C1264 C1268 1.385 . S
C1265 H1240 0.951 . S
C1265 C1263 1.388 . S
C1265 C1266 1.366 . S
C1266 C1265 1.366 . S
C1266 C1267 1.414 . S
C1266 C1269 1.499 . S
C1267 H1241 0.950 . S
C1267 C1266 1.414 . S
C1267 C1268 1.374 . S
C1268 H1242 0.950 . S
C1268 C1264 1.385 . S
C1268 C1267 1.374 . S
C1269 C1266 1.499 . S
C1269 C1270 1.373 . S
C1269 C1271 1.389 1_565 S
C1270 H1243 0.950 . S
C1270 C1256 1.377 . S
C1270 C1269 1.373 . S
C1271 C1255 1.377 . S
C1271 C1269 1.389 1_545 S
C1271 C1272 1.524 . S
C1272 C1271 1.524 . S
C1272 C1273 1.397 . S
C1272 C1277 1.363 . S
C1273 H1244 0.950 . S
C1273 C1272 1.397 . S
C1273 C1274 1.334 . S
C1274 H1245 0.950 . S
C1274 C1273 1.334 . S
C1274 C1275 1.287 . S
C1275 C1274 1.287 . S
C1275 C1276 1.524 . S
C1275 H1278 0.999 . S
C1276 H1246 0.950 . S
C1276 C1275 1.524 . S
C1276 C1277 1.415 . S
C1277 H1247 0.950 . S
C1277 C1272 1.363 . S
C1277 C1276 1.415 . S
H1278 C1275 0.999 . S
H1279 C1260 0.913 . S
H1280 C1298 0.951 . S
H1281 C1300 0.951 . S
H1282 C1302 0.950 . S
H1283 C1303 0.950 . S
H1284 C1305 0.950 . S
H1285 C1308 0.950 . S
H1286 C1309 0.950 . S
H1287 C1311 0.950 . S
H1288 C1312 0.950 . S
H1289 C1313 0.951 . S
H1290 C1315 0.951 . S
H1291 C1317 0.950 . S
H1292 C1318 0.950 . S
H1293 C1320 0.950 . S
H1294 C1323 0.950 . S
H1295 C1324 0.950 . S
H1296 C1326 0.950 . S
H1297 C1327 0.950 . S
C1298 H1280 0.951 . S
C1298 C1299 1.366 . S
C1298 C1300 1.388 . S
C1299 C1298 1.366 . S
C1299 C1303 1.385 . S
C1300 H1281 0.951 . S
C1300 C1298 1.388 . S
C1300 C1301 1.366 . S
C1301 C1300 1.366 . S
C1301 C1302 1.414 . S
C1301 C1304 1.499 . S
C1302 H1282 0.950 . S
C1302 C1301 1.414 . S
C1302 C1303 1.374 . S
C1303 H1283 0.950 . S
C1303 C1299 1.385 . S
C1303 C1302 1.374 . S
C1304 C1301 1.499 . S
C1304 C1305 1.373 . S
C1304 C1306 1.389 . S
C1305 H1284 0.950 . S
C1305 C1304 1.373 . S
C1305 C1321 1.377 . S
C1306 C1304 1.389 . S
C1306 C1307 1.524 . S
C1306 C1320 1.377 . S
C1307 C1306 1.524 . S
C1307 C1308 1.397 . S
C1307 C1312 1.363 . S
C1308 H1285 0.950 . S
C1308 C1307 1.397 . S
C1308 C1309 1.334 . S
C1309 H1286 0.950 . S
C1309 C1308 1.334 . S
C1309 C1310 1.287 . S
C1310 C1309 1.287 . S
C1310 C1311 1.524 . S
C1310 H1329 0.913 . S
C1311 H1287 0.950 . S
C1311 C1310 1.524 . S
C1311 C1312 1.415 . S
C1312 H1288 0.950 . S
C1312 C1307 1.363 . S
C1312 C1311 1.415 . S
C1313 H1289 0.951 . S
C1313 C1314 1.366 . S
C1313 C1315 1.388 . S
C1314 C1313 1.366 . S
C1314 C1318 1.385 . S
C1315 H1290 0.951 . S
C1315 C1313 1.388 . S
C1315 C1316 1.366 . S
C1316 C1315 1.366 . S
C1316 C1317 1.414 . S
C1316 C1319 1.499 . S
C1317 H1291 0.950 . S
C1317 C1316 1.414 . S
C1317 C1318 1.374 . S
C1318 H1292 0.950 . S
C1318 C1314 1.385 . S
C1318 C1317 1.374 . S
C1319 C1316 1.499 . S
C1319 C1320 1.373 . S
C1319 C1321 1.389 . S
C1320 H1293 0.950 . S
C1320 C1306 1.377 . S
C1320 C1319 1.373 . S
C1321 C1305 1.377 . S
C1321 C1319 1.389 . S
C1321 C1322 1.524 . S
C1322 C1321 1.524 . S
C1322 C1323 1.397 . S
C1322 C1327 1.363 . S
C1323 H1294 0.950 . S
C1323 C1322 1.397 . S
C1323 C1324 1.334 . S
C1324 H1295 0.950 . S
C1324 C1323 1.334 . S
C1324 C1325 1.287 . S
C1325 C1324 1.287 . S
C1325 C1326 1.524 . S
C1325 H1328 0.999 . S
C1326 H1296 0.950 . S
C1326 C1325 1.524 . S
C1326 C1327 1.415 . S
C1327 H1297 0.950 . S
C1327 C1322 1.363 . S
C1327 C1326 1.415 . S
H1328 C1325 0.999 . S
H1329 C1310 0.913 . S
H1330 C1348 0.951 . S
H1331 C1350 0.951 . S
H1332 C1352 0.950 . S
H1333 C1353 0.950 . S
H1334 C1355 0.950 . S
H1335 C1358 0.950 . S
H1336 C1359 0.950 . S
H1337 C1361 0.950 . S
H1338 C1362 0.950 . S
H1339 C1363 0.951 . S
H1340 C1365 0.951 . S
H1341 C1367 0.950 . S
H1342 C1368 0.950 . S
H1343 C1370 0.950 . S
H1344 C1373 0.950 . S
H1345 C1374 0.950 . S
H1346 C1376 0.950 . S
H1347 C1377 0.950 . S
C1348 H1330 0.951 . S
C1348 C1349 1.366 . S
C1348 C1350 1.388 . S
C1349 C1348 1.366 . S
C1349 C1353 1.385 . S
C1350 H1331 0.951 . S
C1350 C1348 1.388 . S
C1350 C1351 1.366 . S
C1351 C1350 1.366 . S
C1351 C1352 1.414 . S
C1351 C1354 1.499 . S
C1352 H1332 0.950 . S
C1352 C1351 1.414 . S
C1352 C1353 1.374 . S
C1353 H1333 0.950 . S
C1353 C1349 1.385 . S
C1353 C1352 1.374 . S
C1354 C1351 1.499 . S
C1354 C1355 1.373 . S
C1354 C1356 1.389 . S
C1355 H1334 0.950 . S
C1355 C1354 1.373 . S
C1355 C1371 1.377 . S
C1356 C1354 1.389 . S
C1356 C1357 1.524 . S
C1356 C1370 1.377 . S
C1357 C1356 1.524 . S
C1357 C1358 1.397 . S
C1357 C1362 1.363 . S
C1358 H1335 0.950 . S
C1358 C1357 1.397 . S
C1358 C1359 1.334 . S
C1359 H1336 0.950 . S
C1359 C1358 1.334 . S
C1359 C1360 1.287 . S
C1360 C1359 1.287 . S
C1360 C1361 1.524 . S
C1360 H1379 0.913 . S
C1361 H1337 0.950 . S
C1361 C1360 1.524 . S
C1361 C1362 1.415 . S
C1362 H1338 0.950 . S
C1362 C1357 1.363 . S
C1362 C1361 1.415 . S
C1363 H1339 0.951 . S
C1363 C1364 1.366 . S
C1363 C1365 1.388 . S
C1364 C1363 1.366 . S
C1364 C1368 1.385 . S
C1365 H1340 0.951 . S
C1365 C1363 1.388 . S
C1365 C1366 1.366 . S
C1366 C1365 1.366 . S
C1366 C1367 1.414 . S
C1366 C1369 1.499 . S
C1367 H1341 0.950 . S
C1367 C1366 1.414 . S
C1367 C1368 1.374 . S
C1368 H1342 0.950 . S
C1368 C1364 1.385 . S
C1368 C1367 1.374 . S
C1369 C1366 1.499 . S
C1369 C1370 1.373 . S
C1369 C1371 1.389 . S
C1370 H1343 0.950 . S
C1370 C1356 1.377 . S
C1370 C1369 1.373 . S
C1371 C1355 1.377 . S
C1371 C1369 1.389 . S
C1371 C1372 1.524 . S
C1372 C1371 1.524 . S
C1372 C1373 1.397 . S
C1372 C1377 1.363 . S
C1373 H1344 0.950 . S
C1373 C1372 1.397 . S
C1373 C1374 1.334 . S
C1374 H1345 0.950 . S
C1374 C1373 1.334 . S
C1374 C1375 1.287 . S
C1375 C1374 1.287 . S
C1375 C1376 1.524 . S
C1375 H1378 0.999 . S
C1376 H1346 0.950 . S
C1376 C1375 1.524 . S
C1376 C1377 1.415 . S
C1377 H1347 0.950 . S
C1377 C1372 1.363 . S
C1377 C1376 1.415 . S
H1378 C1375 0.999 . S
H1379 C1360 0.913 . S
C199 C74 1.508 . S
C214 C104 1.512 . S
C264 C127 1.579 . S
C249 C85 1.581 . S
C314 C150 1.604 . S
C299 C52 1.595 . S
C364 C177 1.477 . S
C349 C63 1.544 . S
C414 C105 1.527 . S
C399 C30 1.508 1_565 S
C449 C41 1.425 1_556 S
C464 C128 1.448 . S
C499 C8 1.394 . S
C514 C151 1.410 . S
C549 C19 1.537 1_655 S
C564 C176 1.538 1_455 S
C614 C106 0.139 . S
C599 C62 0.118 . S
C664 C129 0.195 . S
C649 C73 0.254 . S
C714 C152 0.206 . S
C699 C84 0.206 . S
C749 C51 0.256 . S
C764 C178 0.455 . S
C799 C18 0.482 1_655 S
C814 C109 0.523 . S
C864 C132 0.526 . S
C849 C29 0.409 1_565 S
C914 C155 0.522 . S
C899 C40 0.452 . S
C949 C7 0.340 . S
C964 C175 0.177 . S
C999 C60 1.419 . S
C1014 C107 1.558 . S
C1049 C71 1.296 . S
C1064 C130 1.507 . S
C1114 C153 1.530 . S
C1099 C82 1.351 . S
C1164 C174 1.289 . S
C1149 C49 1.066 . S
C1199 C16 1.356 . S
C1214 C108 1.492 1_655 S
C1264 C131 1.446 . S
C1249 C27 1.297 1_565 S
C1314 C154 1.434 . S
C1299 C38 1.271 . S
C1349 C5 1.468 . S
C1364 C173 1.744 . S
