# Generated by pormake.
# Topology ibd, (4,6)-cn, num edge types: 1
# Building blocks:
#     Node 0, Type 0, BuildingBlock: TATPOV_clean_sbu_0, # of connection points: 4
#     Node 1, Type 0, BuildingBlock: TATPOV_clean_sbu_0, # of connection points: 4
#     Node 2, Type 0, BuildingBlock: TATPOV_clean_sbu_0, # of connection points: 4
#     Node 3, Type 0, BuildingBlock: TATPOV_clean_sbu_0, # of connection points: 4
#     Node 4, Type 0, BuildingBlock: TATPOV_clean_sbu_0, # of connection points: 4
#     Node 5, Type 0, BuildingBlock: TATPOV_clean_sbu_0, # of connection points: 4
#     Node 6, Type 0, BuildingBlock: TATPOV_clean_sbu_0, # of connection points: 4
#     Node 7, Type 0, BuildingBlock: TATPOV_clean_sbu_0, # of connection points: 4
#     Node 8, Type 0, BuildingBlock: TATPOV_clean_sbu_0, # of connection points: 4
#     Node 9, Type 0, BuildingBlock: TATPOV_clean_sbu_0, # of connection points: 4
#     Node 10, Type 0, BuildingBlock: TATPOV_clean_sbu_0, # of connection points: 4
#     Node 11, Type 0, BuildingBlock: TATPOV_clean_sbu_0, # of connection points: 4
#     Node 12, Type 0, BuildingBlock: TATPOV_clean_sbu_0, # of connection points: 4
#     Node 13, Type 0, BuildingBlock: TATPOV_clean_sbu_0, # of connection points: 4
#     Node 14, Type 0, BuildingBlock: TATPOV_clean_sbu_0, # of connection points: 4
#     Node 15, Type 0, BuildingBlock: TATPOV_clean_sbu_0, # of connection points: 4
#     Node 16, Type 0, BuildingBlock: TATPOV_clean_sbu_0, # of connection points: 4
#     Node 17, Type 0, BuildingBlock: TATPOV_clean_sbu_0, # of connection points: 4
#     Node 18, Type 0, BuildingBlock: TATPOV_clean_sbu_0, # of connection points: 4
#     Node 19, Type 0, BuildingBlock: TATPOV_clean_sbu_0, # of connection points: 4
#     Node 20, Type 0, BuildingBlock: TATPOV_clean_sbu_0, # of connection points: 4
#     Node 21, Type 0, BuildingBlock: TATPOV_clean_sbu_0, # of connection points: 4
#     Node 22, Type 0, BuildingBlock: TATPOV_clean_sbu_0, # of connection points: 4
#     Node 23, Type 0, BuildingBlock: TATPOV_clean_sbu_0, # of connection points: 4
#     Node 24, Type 1, BuildingBlock: CIFDUS_clean_sbu_1, # of connection points: 6
#     Node 25, Type 1, BuildingBlock: CIFDUS_clean_sbu_1, # of connection points: 6
#     Node 26, Type 1, BuildingBlock: CIFDUS_clean_sbu_1, # of connection points: 6
#     Node 27, Type 1, BuildingBlock: CIFDUS_clean_sbu_1, # of connection points: 6
#     Node 28, Type 1, BuildingBlock: CIFDUS_clean_sbu_1, # of connection points: 6
#     Node 29, Type 1, BuildingBlock: CIFDUS_clean_sbu_1, # of connection points: 6
#     Node 30, Type 1, BuildingBlock: CIFDUS_clean_sbu_1, # of connection points: 6
#     Node 31, Type 1, BuildingBlock: CIFDUS_clean_sbu_1, # of connection points: 6
#     Node 32, Type 1, BuildingBlock: CIFDUS_clean_sbu_1, # of connection points: 6
#     Node 33, Type 1, BuildingBlock: CIFDUS_clean_sbu_1, # of connection points: 6
#     Node 34, Type 1, BuildingBlock: CIFDUS_clean_sbu_1, # of connection points: 6
#     Node 35, Type 1, BuildingBlock: CIFDUS_clean_sbu_1, # of connection points: 6
#     Node 36, Type 1, BuildingBlock: CIFDUS_clean_sbu_1, # of connection points: 6
#     Node 37, Type 1, BuildingBlock: CIFDUS_clean_sbu_1, # of connection points: 6
#     Node 38, Type 1, BuildingBlock: CIFDUS_clean_sbu_1, # of connection points: 6
#     Node 39, Type 1, BuildingBlock: CIFDUS_clean_sbu_1, # of connection points: 6
#     Edge 40, Type (0, 1), BuildingBlock: UVAHIK_clean_linker_0, # of connection points: 2
#     Edge 41, Type (0, 1), BuildingBlock: UVAHIK_clean_linker_0, # of connection points: 2
#     Edge 42, Type (0, 1), BuildingBlock: UVAHIK_clean_linker_0, # of connection points: 2
#     Edge 43, Type (0, 1), BuildingBlock: UVAHIK_clean_linker_0, # of connection points: 2
#     Edge 44, Type (0, 1), BuildingBlock: UVAHIK_clean_linker_0, # of connection points: 2
#     Edge 45, Type (0, 1), BuildingBlock: UVAHIK_clean_linker_0, # of connection points: 2
#     Edge 46, Type (0, 1), BuildingBlock: UVAHIK_clean_linker_0, # of connection points: 2
#     Edge 47, Type (0, 1), BuildingBlock: UVAHIK_clean_linker_0, # of connection points: 2
#     Edge 48, Type (0, 1), BuildingBlock: UVAHIK_clean_linker_0, # of connection points: 2
#     Edge 49, Type (0, 1), BuildingBlock: UVAHIK_clean_linker_0, # of connection points: 2
#     Edge 50, Type (0, 1), BuildingBlock: UVAHIK_clean_linker_0, # of connection points: 2
#     Edge 51, Type (0, 1), BuildingBlock: UVAHIK_clean_linker_0, # of connection points: 2
#     Edge 52, Type (0, 1), BuildingBlock: UVAHIK_clean_linker_0, # of connection points: 2
#     Edge 53, Type (0, 1), BuildingBlock: UVAHIK_clean_linker_0, # of connection points: 2
#     Edge 54, Type (0, 1), BuildingBlock: UVAHIK_clean_linker_0, # of connection points: 2
#     Edge 55, Type (0, 1), BuildingBlock: UVAHIK_clean_linker_0, # of connection points: 2
#     Edge 56, Type (0, 1), BuildingBlock: UVAHIK_clean_linker_0, # of connection points: 2
#     Edge 57, Type (0, 1), BuildingBlock: UVAHIK_clean_linker_0, # of connection points: 2
#     Edge 58, Type (0, 1), BuildingBlock: UVAHIK_clean_linker_0, # of connection points: 2
#     Edge 59, Type (0, 1), BuildingBlock: UVAHIK_clean_linker_0, # of connection points: 2
#     Edge 60, Type (0, 1), BuildingBlock: UVAHIK_clean_linker_0, # of connection points: 2
#     Edge 61, Type (0, 1), BuildingBlock: UVAHIK_clean_linker_0, # of connection points: 2
#     Edge 62, Type (0, 1), BuildingBlock: UVAHIK_clean_linker_0, # of connection points: 2
#     Edge 63, Type (0, 1), BuildingBlock: UVAHIK_clean_linker_0, # of connection points: 2
#     Edge 64, Type (0, 1), BuildingBlock: UVAHIK_clean_linker_0, # of connection points: 2
#     Edge 65, Type (0, 1), BuildingBlock: UVAHIK_clean_linker_0, # of connection points: 2
#     Edge 66, Type (0, 1), BuildingBlock: UVAHIK_clean_linker_0, # of connection points: 2
#     Edge 67, Type (0, 1), BuildingBlock: UVAHIK_clean_linker_0, # of connection points: 2
#     Edge 68, Type (0, 1), BuildingBlock: UVAHIK_clean_linker_0, # of connection points: 2
#     Edge 69, Type (0, 1), BuildingBlock: UVAHIK_clean_linker_0, # of connection points: 2
#     Edge 70, Type (0, 1), BuildingBlock: UVAHIK_clean_linker_0, # of connection points: 2
#     Edge 71, Type (0, 1), BuildingBlock: UVAHIK_clean_linker_0, # of connection points: 2
#     Edge 72, Type (0, 1), BuildingBlock: UVAHIK_clean_linker_0, # of connection points: 2
#     Edge 73, Type (0, 1), BuildingBlock: UVAHIK_clean_linker_0, # of connection points: 2
#     Edge 74, Type (0, 1), BuildingBlock: UVAHIK_clean_linker_0, # of connection points: 2
#     Edge 75, Type (0, 1), BuildingBlock: UVAHIK_clean_linker_0, # of connection points: 2
#     Edge 76, Type (0, 1), BuildingBlock: UVAHIK_clean_linker_0, # of connection points: 2
#     Edge 77, Type (0, 1), BuildingBlock: UVAHIK_clean_linker_0, # of connection points: 2
#     Edge 78, Type (0, 1), BuildingBlock: UVAHIK_clean_linker_0, # of connection points: 2
#     Edge 79, Type (0, 1), BuildingBlock: UVAHIK_clean_linker_0, # of connection points: 2
#     Edge 80, Type (0, 1), BuildingBlock: UVAHIK_clean_linker_0, # of connection points: 2
#     Edge 81, Type (0, 1), BuildingBlock: UVAHIK_clean_linker_0, # of connection points: 2
#     Edge 82, Type (0, 1), BuildingBlock: UVAHIK_clean_linker_0, # of connection points: 2
#     Edge 83, Type (0, 1), BuildingBlock: UVAHIK_clean_linker_0, # of connection points: 2
#     Edge 84, Type (0, 1), BuildingBlock: UVAHIK_clean_linker_0, # of connection points: 2
#     Edge 85, Type (0, 1), BuildingBlock: UVAHIK_clean_linker_0, # of connection points: 2
#     Edge 86, Type (0, 1), BuildingBlock: UVAHIK_clean_linker_0, # of connection points: 2
#     Edge 87, Type (0, 1), BuildingBlock: UVAHIK_clean_linker_0, # of connection points: 2
#     Edge 88, Type (0, 1), BuildingBlock: UVAHIK_clean_linker_0, # of connection points: 2
#     Edge 89, Type (0, 1), BuildingBlock: UVAHIK_clean_linker_0, # of connection points: 2
#     Edge 90, Type (0, 1), BuildingBlock: UVAHIK_clean_linker_0, # of connection points: 2
#     Edge 91, Type (0, 1), BuildingBlock: UVAHIK_clean_linker_0, # of connection points: 2
#     Edge 92, Type (0, 1), BuildingBlock: UVAHIK_clean_linker_0, # of connection points: 2
#     Edge 93, Type (0, 1), BuildingBlock: UVAHIK_clean_linker_0, # of connection points: 2
#     Edge 94, Type (0, 1), BuildingBlock: UVAHIK_clean_linker_0, # of connection points: 2
#     Edge 95, Type (0, 1), BuildingBlock: UVAHIK_clean_linker_0, # of connection points: 2
#     Edge 96, Type (0, 1), BuildingBlock: UVAHIK_clean_linker_0, # of connection points: 2
#     Edge 97, Type (0, 1), BuildingBlock: UVAHIK_clean_linker_0, # of connection points: 2
#     Edge 98, Type (0, 1), BuildingBlock: UVAHIK_clean_linker_0, # of connection points: 2
#     Edge 99, Type (0, 1), BuildingBlock: UVAHIK_clean_linker_0, # of connection points: 2
#     Edge 100, Type (0, 1), BuildingBlock: UVAHIK_clean_linker_0, # of connection points: 2
#     Edge 101, Type (0, 1), BuildingBlock: UVAHIK_clean_linker_0, # of connection points: 2
#     Edge 102, Type (0, 1), BuildingBlock: UVAHIK_clean_linker_0, # of connection points: 2
#     Edge 103, Type (0, 1), BuildingBlock: UVAHIK_clean_linker_0, # of connection points: 2
#     Edge 104, Type (0, 1), BuildingBlock: UVAHIK_clean_linker_0, # of connection points: 2
#     Edge 105, Type (0, 1), BuildingBlock: UVAHIK_clean_linker_0, # of connection points: 2
#     Edge 106, Type (0, 1), BuildingBlock: UVAHIK_clean_linker_0, # of connection points: 2
#     Edge 107, Type (0, 1), BuildingBlock: UVAHIK_clean_linker_0, # of connection points: 2
#     Edge 108, Type (0, 1), BuildingBlock: UVAHIK_clean_linker_0, # of connection points: 2
#     Edge 109, Type (0, 1), BuildingBlock: UVAHIK_clean_linker_0, # of connection points: 2
#     Edge 110, Type (0, 1), BuildingBlock: UVAHIK_clean_linker_0, # of connection points: 2
#     Edge 111, Type (0, 1), BuildingBlock: UVAHIK_clean_linker_0, # of connection points: 2
#     Edge 112, Type (0, 1), BuildingBlock: UVAHIK_clean_linker_0, # of connection points: 2
#     Edge 113, Type (0, 1), BuildingBlock: UVAHIK_clean_linker_0, # of connection points: 2
#     Edge 114, Type (0, 1), BuildingBlock: UVAHIK_clean_linker_0, # of connection points: 2
#     Edge 115, Type (0, 1), BuildingBlock: UVAHIK_clean_linker_0, # of connection points: 2
#     Edge 116, Type (0, 1), BuildingBlock: UVAHIK_clean_linker_0, # of connection points: 2
#     Edge 117, Type (0, 1), BuildingBlock: UVAHIK_clean_linker_0, # of connection points: 2
#     Edge 118, Type (0, 1), BuildingBlock: UVAHIK_clean_linker_0, # of connection points: 2
#     Edge 119, Type (0, 1), BuildingBlock: UVAHIK_clean_linker_0, # of connection points: 2
#     Edge 120, Type (0, 1), BuildingBlock: UVAHIK_clean_linker_0, # of connection points: 2
#     Edge 121, Type (0, 1), BuildingBlock: UVAHIK_clean_linker_0, # of connection points: 2
#     Edge 122, Type (0, 1), BuildingBlock: UVAHIK_clean_linker_0, # of connection points: 2
#     Edge 123, Type (0, 1), BuildingBlock: UVAHIK_clean_linker_0, # of connection points: 2
#     Edge 124, Type (0, 1), BuildingBlock: UVAHIK_clean_linker_0, # of connection points: 2
#     Edge 125, Type (0, 1), BuildingBlock: UVAHIK_clean_linker_0, # of connection points: 2
#     Edge 126, Type (0, 1), BuildingBlock: UVAHIK_clean_linker_0, # of connection points: 2
#     Edge 127, Type (0, 1), BuildingBlock: UVAHIK_clean_linker_0, # of connection points: 2
#     Edge 128, Type (0, 1), BuildingBlock: UVAHIK_clean_linker_0, # of connection points: 2
#     Edge 129, Type (0, 1), BuildingBlock: UVAHIK_clean_linker_0, # of connection points: 2
#     Edge 130, Type (0, 1), BuildingBlock: UVAHIK_clean_linker_0, # of connection points: 2
#     Edge 131, Type (0, 1), BuildingBlock: UVAHIK_clean_linker_0, # of connection points: 2
#     Edge 132, Type (0, 1), BuildingBlock: UVAHIK_clean_linker_0, # of connection points: 2
#     Edge 133, Type (0, 1), BuildingBlock: UVAHIK_clean_linker_0, # of connection points: 2
#     Edge 134, Type (0, 1), BuildingBlock: UVAHIK_clean_linker_0, # of connection points: 2
#     Edge 135, Type (0, 1), BuildingBlock: UVAHIK_clean_linker_0, # of connection points: 2
# Relax obj value: 0.354
# Max RMSD: 0.315
# Mean RMSD: 0.281
data_MOF--net-ibd--node1-TATPOV_clean_sbu_0--node2-CIFDUS_clean_sbu_1--edge1-UVAHIK_clean_linker_0
_symmetry_space_group_name_H-M    P1
_symmetry_Int_Tables_number       1
_symmetry_cell_setting            triclinic
loop_
_symmetry_equiv_pos_as_xyz
'x, y, z'
_cell_length_a     59.189888
_cell_length_b     60.874327
_cell_length_c     61.724419
_cell_angle_alpha  92.364179
_cell_angle_beta   90.938824
_cell_angle_gamma 95.071689
loop_
_atom_site_label
_atom_site_type_symbol
_atom_site_fract_x
_atom_site_fract_y
_atom_site_fract_z
_atom_type_partial_charge
Zn0 Zn 0.02048 0.35926 0.40213 0.0
Zn1 Zn 0.02006 0.31944 0.38129 0.0
O2 O 0.99189 0.31511 0.39996 0.0
O3 O 0.99208 0.34737 0.41755 0.0
O4 O 0.0197 0.29213 0.36163 0.0
O5 O 0.01807 0.37548 0.37435 0.0
O6 O 0.01976 0.34286 0.35822 0.0
C7 C 0.98333 0.32775 0.41398 0.0
C8 C 0.05861 0.33438 0.41318 0.0
O9 O 0.04847 0.3194 0.40063 0.0
O10 O 0.05094 0.35316 0.4153 0.0
C11 C 0.00465 0.29003 0.34656 0.0
O12 O 0.98902 0.30408 0.34632 0.0
C13 C 0.01859 0.36356 0.35712 0.0
Zn14 Zn 0.01243 0.84953 0.63221 0.0
Zn15 Zn 0.02745 0.81403 0.65082 0.0
O16 O 0.05382 0.82154 0.63038 0.0
O17 O 0.04271 0.85217 0.61737 0.0
O18 O 0.03595 0.78966 0.67001 0.0
O19 O 0.00818 0.86637 0.66036 0.0
O20 O 0.0214 0.83749 0.67453 0.0
C21 C 0.05702 0.83788 0.61817 0.0
C22 C 0.98609 0.80841 0.61998 0.0
O23 O 0.00032 0.80039 0.63248 0.0
O24 O 0.98696 0.82908 0.61774 0.0
C25 C 0.02152 0.78487 0.68456 0.0
O26 O 0.00236 0.79426 0.68437 0.0
C27 C 0.01411 0.85649 0.67686 0.0
Zn28 Zn 0.52672 0.87799 0.91009 0.0
Zn29 Zn 0.52139 0.83914 0.88691 0.0
O30 O 0.49268 0.8361 0.90488 0.0
O31 O 0.49719 0.86737 0.92448 0.0
O32 O 0.52009 0.8135 0.86495 0.0
O33 O 0.52618 0.8967 0.88367 0.0
O34 O 0.52324 0.8645 0.86599 0.0
C35 C 0.48597 0.84899 0.91979 0.0
C36 C 0.56052 0.848 0.91994 0.0
O37 O 0.54864 0.83508 0.9066 0.0
O38 O 0.55584 0.86783 0.92295 0.0
C39 C 0.5369 0.81533 0.85237 0.0
O40 O 0.55302 0.83128 0.85663 0.0
C41 C 0.52482 0.88546 0.86594 0.0
Zn42 Zn 0.51084 0.34033 0.13278 0.0
Zn43 Zn 0.52515 0.30238 0.14773 0.0
O44 O 0.5509 0.31148 0.12705 0.0
O45 O 0.54072 0.34374 0.11736 0.0
O46 O 0.53499 0.27753 0.16538 0.0
O47 O 0.508 0.35497 0.16251 0.0
O48 O 0.51932 0.32367 0.17303 0.0
C49 C 0.55447 0.32891 0.11639 0.0
C50 C 0.48322 0.29968 0.11859 0.0
O51 O 0.49724 0.29017 0.13006 0.0
O52 O 0.48503 0.32056 0.11765 0.0
C53 C 0.55139 0.2836 0.17847 0.0
O54 O 0.56214 0.30323 0.17649 0.0
C55 C 0.51319 0.34278 0.17757 0.0
Zn56 Zn 0.94441 0.78111 0.12921 0.0
Zn57 Zn 0.98404 0.76911 0.11545 0.0
O58 O 0.97255 0.74395 0.1351 0.0
O59 O 0.93756 0.75132 0.14188 0.0
O60 O 0.01118 0.7592 0.09939 0.0
O61 O 0.93249 0.78787 0.09973 0.0
O62 O 0.96512 0.77722 0.0891 0.0
C63 C 0.95362 0.73911 0.14411 0.0
C64 C 0.98462 0.80714 0.14824 0.0
O65 O 0.99572 0.79534 0.13544 0.0
O66 O 0.96311 0.80438 0.14832 0.0
C67 C 0.01353 0.73895 0.09497 0.0
O68 O 0.99945 0.72379 0.10327 0.0
C69 C 0.94606 0.78432 0.08464 0.0
Zn70 Zn 0.47218 0.80362 0.39172 0.0
Zn71 Zn 0.51236 0.79066 0.40458 0.0
O72 O 0.52279 0.81902 0.39002 0.0
O73 O 0.49028 0.83017 0.37898 0.0
O74 O 0.54024 0.78034 0.41867 0.0
O75 O 0.4596 0.80409 0.42201 0.0
O76 O 0.49282 0.79373 0.4316 0.0
C77 C 0.51181 0.8326 0.37986 0.0
C78 C 0.4839 0.76359 0.3695 0.0
O79 O 0.50226 0.76726 0.38061 0.0
O80 O 0.46785 0.77581 0.37242 0.0
C81 C 0.53952 0.76015 0.4233 0.0
O82 O 0.52195 0.74677 0.41654 0.0
C83 C 0.4731 0.79879 0.4366 0.0
Zn84 Zn 0.43999 0.2817 0.63288 0.0
Zn85 Zn 0.48253 0.2739 0.62157 0.0
O86 O 0.4723 0.24733 0.63961 0.0
O87 O 0.43618 0.25126 0.64498 0.0
O88 O 0.51179 0.2673 0.60722 0.0
O89 O 0.42994 0.28739 0.60233 0.0
O90 O 0.46458 0.28025 0.59431 0.0
C91 C 0.45335 0.2405 0.64753 0.0
C92 C 0.47657 0.31131 0.654 0.0
O93 O 0.48972 0.30067 0.64218 0.0
O94 O 0.45527 0.30649 0.65283 0.0
C95 C 0.51866 0.24811 0.60563 0.0
O96 O 0.50815 0.23211 0.61625 0.0
C97 C 0.44512 0.28537 0.58838 0.0
Zn98 Zn 0.97145 0.29959 0.88863 0.0
Zn99 Zn 0.01197 0.28661 0.9001 0.0
O100 O 0.02126 0.31518 0.88513 0.0
O101 O 0.9883 0.3267 0.87604 0.0
O102 O 0.0405 0.27714 0.91382 0.0
O103 O 0.95957 0.29951 0.91915 0.0
O104 O 0.9929 0.28871 0.92751 0.0
C105 C 0.00981 0.32899 0.87582 0.0
C106 C 0.98333 0.25985 0.86529 0.0
O107 O 0.00176 0.26308 0.87638 0.0
O108 O 0.96745 0.2722 0.8686 0.0
C109 C 0.04044 0.25706 0.91871 0.0
O110 O 0.02325 0.24312 0.91212 0.0
C111 C 0.97336 0.29368 0.93323 0.0
Zn112 Zn 0.39325 0.04551 0.28762 0.0
Zn113 Zn 0.38137 0.04717 0.24531 0.0
O114 O 0.39673 0.01852 0.24502 0.0
O115 O 0.40732 0.01688 0.27928 0.0
O116 O 0.36652 0.04854 0.21587 0.0
O117 O 0.3608 0.0457 0.29778 0.0
O118 O 0.35264 0.0481 0.26323 0.0
C119 C 0.40685 0.00899 0.25989 0.0
C120 C 0.41633 0.08217 0.26541 0.0
O121 O 0.40567 0.07339 0.24869 0.0
O122 O 0.41282 0.07426 0.28388 0.0
C123 C 0.36134 0.0673 0.21016 0.0
O124 O 0.3694 0.08498 0.22167 0.0
C125 C 0.34629 0.04731 0.28278 0.0
Zn126 Zn 0.30841 0.16333 0.51464 0.0
Zn127 Zn 0.27151 0.17366 0.53639 0.0
O128 O 0.28185 0.15074 0.55717 0.0
O129 O 0.31229 0.14295 0.53925 0.0
O130 O 0.24537 0.18887 0.54905 0.0
O131 O 0.32351 0.19444 0.51533 0.0
O132 O 0.29316 0.2015 0.53328 0.0
C133 C 0.299 0.13959 0.55495 0.0
C134 C 0.26694 0.14929 0.4916 0.0
O135 O 0.25841 0.15746 0.50862 0.0
O136 O 0.28827 0.15074 0.48945 0.0
C137 C 0.23906 0.20323 0.53633 0.0
O138 O 0.24751 0.20378 0.51678 0.0
C139 C 0.31206 0.20813 0.52523 0.0
Zn140 Zn 0.13102 0.98919 0.73146 0.0
Zn141 Zn 0.11797 0.03078 0.72932 0.0
O142 O 0.13951 0.02865 0.70377 0.0
O143 O 0.1468 0.99376 0.70276 0.0
O144 O 0.10282 0.05907 0.72671 0.0
O145 O 0.09865 0.97503 0.73299 0.0
O146 O 0.08966 0.00908 0.73079 0.0
C147 C 0.14942 0.01284 0.69515 0.0
C148 C 0.14894 0.0209 0.76631 0.0
O149 O 0.13696 0.03432 0.75707 0.0
O150 O 0.149 0.00115 0.75882 0.0
C151 C 0.10449 0.07154 0.71069 0.0
O152 O 0.1188 0.06747 0.69529 0.0
C153 C 0.08368 0.98861 0.73233 0.0
Zn154 Zn 0.24506 0.88883 0.96321 0.0
Zn155 Zn 0.24652 0.9041 0.00532 0.0
O156 O 0.27643 0.88989 0.0037 0.0
O157 O 0.27502 0.87584 0.97012 0.0
O158 O 0.24667 0.92126 0.03402 0.0
O159 O 0.24403 0.91963 0.95159 0.0
O160 O 0.24329 0.93004 0.98598 0.0
C161 C 0.28491 0.87852 0.98857 0.0
C162 C 0.20973 0.86827 0.99004 0.0
O163 O 0.22007 0.88 0.00533 0.0
O164 O 0.21606 0.87022 0.97061 0.0
C165 C 0.23064 0.91945 0.04745 0.0
O166 O 0.21478 0.90302 0.0447 0.0
C167 C 0.24276 0.93473 0.96612 0.0
Zn168 Zn 0.32214 0.43604 0.00437 0.0
Zn169 Zn 0.28198 0.4171 0.017 0.0
O170 O 0.27395 0.43068 0.98851 0.0
O171 O 0.30639 0.44647 0.97746 0.0
O172 O 0.25362 0.39828 0.02415 0.0
O173 O 0.33689 0.40723 0.00398 0.0
O174 O 0.30433 0.39305 0.01603 0.0
C175 C 0.28513 0.44225 0.9749 0.0
C176 C 0.30422 0.45589 0.04397 0.0
O177 O 0.28705 0.44196 0.04048 0.0
O178 O 0.32138 0.45553 0.03193 0.0
C179 C 0.25033 0.39176 0.04322 0.0
O180 O 0.2643 0.39964 0.05899 0.0
C181 C 0.32467 0.39081 0.01056 0.0
Zn182 Zn 0.72775 0.19381 0.95301 0.0
Zn183 Zn 0.71436 0.17518 0.99036 0.0
O184 O 0.687 0.19261 0.98429 0.0
O185 O 0.69628 0.20464 0.95207 0.0
O186 O 0.70715 0.15502 0.01503 0.0
O187 O 0.73381 0.16508 0.93734 0.0
O188 O 0.72167 0.15141 0.96776 0.0
C189 C 0.68256 0.2033 0.96764 0.0
C190 C 0.75373 0.21102 0.99172 0.0
O191 O 0.74063 0.1969 0.00122 0.0
O192 O 0.75219 0.21253 0.9713 0.0
C193 C 0.72303 0.14274 0.01865 0.0
O194 O 0.74244 0.1468 0.0089 0.0
C195 C 0.72892 0.14855 0.94867 0.0
Zn196 Zn 0.12506 0.5638 0.34315 0.0
Zn197 Zn 0.14703 0.57953 0.30799 0.0
O198 O 0.13069 0.60676 0.317 0.0
O199 O 0.115 0.59474 0.34699 0.0
O200 O 0.1693 0.5875 0.28472 0.0
O201 O 0.15355 0.55536 0.35826 0.0
O202 O 0.1698 0.56874 0.32937 0.0
C203 C 0.11847 0.60981 0.3335 0.0
C204 C 0.1092 0.54245 0.30177 0.0
O205 O 0.12447 0.5558 0.29402 0.0
O206 O 0.10641 0.54218 0.3221 0.0
C207 C 0.16881 0.59697 0.26679 0.0
O208 O 0.15004 0.60477 0.26009 0.0
C209 C 0.17129 0.55989 0.34758 0.0
Zn210 Zn 0.81638 0.94047 0.51559 0.0
Zn211 Zn 0.77552 0.91821 0.52214 0.0
O212 O 0.76917 0.93332 0.49416 0.0
O213 O 0.80209 0.95166 0.48811 0.0
O214 O 0.74765 0.89786 0.52731 0.0
O215 O 0.83281 0.91246 0.5149 0.0
O216 O 0.79923 0.89563 0.52059 0.0
C217 C 0.78142 0.94653 0.48281 0.0
C218 C 0.79308 0.95569 0.55392 0.0
O219 O 0.7774 0.9411 0.54745 0.0
O220 O 0.81169 0.95771 0.54396 0.0
C221 C 0.74304 0.88176 0.5137 0.0
O222 O 0.75516 0.88059 0.49611 0.0
C223 C 0.82038 0.89483 0.5177 0.0
Zn224 Zn 0.84272 0.99657 0.26779 0.0
Zn225 Zn 0.86778 0.03593 0.27494 0.0
O226 O 0.84973 0.03388 0.30266 0.0
O227 O 0.82846 0.00248 0.29723 0.0
O228 O 0.89114 0.06201 0.27985 0.0
O229 O 0.87037 0.97934 0.26503 0.0
O230 O 0.88941 0.01188 0.26938 0.0
C231 C 0.83425 0.01978 0.3089 0.0
C232 C 0.83271 0.03067 0.23811 0.0
O233 O 0.84671 0.04308 0.25001 0.0
O234 O 0.82933 0.01023 0.24144 0.0
C235 C 0.89545 0.07674 0.26613 0.0
O236 O 0.88222 0.07698 0.24887 0.0
C237 C 0.88912 0.99108 0.26607 0.0
Zn238 Zn 0.23774 0.69624 0.44768 0.0
Zn239 Zn 0.22426 0.67726 0.48442 0.0
O240 O 0.19579 0.69303 0.47696 0.0
O241 O 0.20576 0.70467 0.4448 0.0
O242 O 0.21675 0.65751 0.50941 0.0
O243 O 0.24615 0.66816 0.43287 0.0
O244 O 0.23261 0.65329 0.46228 0.0
C245 C 0.19128 0.7027 0.45967 0.0
C246 C 0.2625 0.71454 0.48616 0.0
O247 O 0.25029 0.69965 0.49561 0.0
O248 O 0.26038 0.71652 0.46588 0.0
C249 C 0.23235 0.64517 0.51383 0.0
O250 O 0.25193 0.64849 0.5042 0.0
C251 C 0.241 0.65121 0.44354 0.0
Zn252 Zn 0.34476 0.47966 0.75319 0.0
Zn253 Zn 0.36933 0.51917 0.75953 0.0
O254 O 0.34901 0.51817 0.78596 0.0
O255 O 0.32673 0.48747 0.77996 0.0
O256 O 0.39154 0.54588 0.76553 0.0
O257 O 0.37301 0.46285 0.75517 0.0
O258 O 0.39185 0.49565 0.75633 0.0
C259 C 0.33226 0.50502 0.79131 0.0
C260 C 0.33774 0.51168 0.72017 0.0
O261 O 0.35068 0.52483 0.73244 0.0
O262 O 0.3342 0.49149 0.72459 0.0
C263 C 0.39492 0.56225 0.75351 0.0
O264 O 0.38178 0.56354 0.73634 0.0
C265 C 0.39169 0.47473 0.75539 0.0
Zn266 Zn 0.62602 0.07945 0.84163 0.0
Zn267 Zn 0.64316 0.08222 0.80149 0.0
O268 O 0.62472 0.10929 0.80384 0.0
O269 O 0.61489 0.1097 0.83813 0.0
O270 O 0.66115 0.08439 0.77397 0.0
O271 O 0.65642 0.07549 0.85599 0.0
O272 O 0.66922 0.07909 0.82308 0.0
C273 C 0.61469 0.11811 0.81967 0.0
C274 C 0.60653 0.04573 0.80958 0.0
O275 O 0.62111 0.05477 0.79701 0.0
O276 O 0.60528 0.05302 0.82906 0.0
C277 C 0.67385 0.06884 0.7705 0.0
O278 O 0.67233 0.05207 0.7833 0.0
C279 C 0.67284 0.07628 0.8431 0.0
Zn280 Zn 0.80711 0.66104 0.02469 0.0
Zn281 Zn 0.76582 0.67199 0.03667 0.0
O282 O 0.77135 0.64879 0.05896 0.0
O283 O 0.80697 0.64346 0.05195 0.0
O284 O 0.73739 0.6862 0.04465 0.0
O285 O 0.82092 0.69265 0.02474 0.0
O286 O 0.78759 0.70014 0.03655 0.0
C287 C 0.78931 0.63947 0.06299 0.0
C288 C 0.77053 0.64574 0.99418 0.0
O289 O 0.75852 0.656 0.00746 0.0
O290 O 0.79171 0.64562 0.99763 0.0
C291 C 0.73164 0.70013 0.03122 0.0
O292 O 0.74258 0.70175 0.01292 0.0
C293 C 0.80777 0.70661 0.0315 0.0
Zn294 Zn 0.89341 0.54583 0.78572 0.0
Zn295 Zn 0.87995 0.54968 0.74411 0.0
O296 O 0.89557 0.52125 0.74124 0.0
O297 O 0.90715 0.5177 0.77494 0.0
O298 O 0.86415 0.55353 0.71567 0.0
O299 O 0.86133 0.54528 0.79729 0.0
O300 O 0.85203 0.54914 0.76323 0.0
C301 C 0.9062 0.51095 0.75517 0.0
C302 C 0.91546 0.5838 0.76461 0.0
O303 O 0.90395 0.57593 0.74801 0.0
O304 O 0.91289 0.57485 0.78272 0.0
C305 C 0.84754 0.53946 0.71054 0.0
O306 O 0.84465 0.52148 0.72162 0.0
C307 C 0.84631 0.54734 0.78287 0.0
Zn308 Zn 0.75662 0.39458 0.47797 0.0
Zn309 Zn 0.75428 0.41027 0.51957 0.0
O310 O 0.7839 0.39565 0.52052 0.0
O311 O 0.7861 0.38188 0.48712 0.0
O312 O 0.75291 0.42736 0.54807 0.0
O313 O 0.75637 0.42514 0.46581 0.0
O314 O 0.75287 0.43622 0.49975 0.0
C315 C 0.79399 0.38442 0.50639 0.0
C316 C 0.71873 0.37446 0.50223 0.0
O317 O 0.72756 0.38645 0.5181 0.0
O318 O 0.72703 0.37598 0.48346 0.0
C319 C 0.73476 0.42828 0.55864 0.0
O320 O 0.71687 0.4149 0.5528 0.0
C321 C 0.75401 0.44052 0.4798 0.0
Zn322 Zn 0.63822 0.50197 0.21857 0.0
Zn323 Zn 0.62679 0.54405 0.21675 0.0
O324 O 0.64802 0.54171 0.19099 0.0
O325 O 0.65407 0.50649 0.18992 0.0
O326 O 0.6124 0.57278 0.2145 0.0
O327 O 0.60563 0.48865 0.22044 0.0
O328 O 0.59804 0.5231 0.21839 0.0
C329 C 0.65742 0.52554 0.18236 0.0
C330 C 0.65709 0.53264 0.25372 0.0
O331 O 0.64586 0.54668 0.2445 0.0
O332 O 0.65644 0.51291 0.24605 0.0
C333 C 0.59769 0.57647 0.22872 0.0
O334 O 0.59515 0.56316 0.2449 0.0
C335 C 0.59127 0.50284 0.22005 0.0
O336 O 0.14159 0.17909 0.12082 0.0
Mn337 Mn 0.12519 0.15728 0.14186 0.0
O338 O 0.16556 0.2022 0.14202 0.0
Mn339 Mn 0.1593 0.19035 0.16886 0.0
O340 O 0.1081 0.13719 0.16433 0.0
O341 O 0.09955 0.15201 0.12066 0.0
Mn342 Mn 0.08612 0.12517 0.12044 0.0
O343 O 0.13955 0.13019 0.1277 0.0
O344 O 0.0751 0.12357 0.14816 0.0
O345 O 0.10922 0.18306 0.15683 0.0
O346 O 0.13371 0.19955 0.18205 0.0
O347 O 0.07306 0.13993 0.09805 0.0
O348 O 0.10954 0.10725 0.11511 0.0
C349 C 0.16936 0.15732 0.17263 0.0
C350 C 0.15648 0.19576 0.12362 0.0
C351 C 0.08777 0.12778 0.165 0.0
C352 C 0.08781 0.15607 0.10394 0.0
C353 C 0.1308 0.1117 0.11903 0.0
C354 C 0.11383 0.19603 0.1736 0.0
O355 O 0.15165 0.16233 0.16235 0.0
O356 O 0.18046 0.17421 0.18241 0.0
O357 O 0.10616 0.90172 0.35165 0.0
Mn358 Mn 0.11937 0.92282 0.37707 0.0
O359 O 0.13683 0.89642 0.33127 0.0
Mn360 Mn 0.16026 0.90811 0.35017 0.0
O361 O 0.13366 0.94514 0.40131 0.0
O362 O 0.09006 0.93648 0.37856 0.0
Mn363 Mn 0.08212 0.94295 0.40527 0.0
O364 O 0.1082 0.90122 0.40068 0.0
O365 O 0.10531 0.96362 0.41482 0.0
O366 O 0.13173 0.94625 0.3549 0.0
O367 O 0.16746 0.93801 0.34817 0.0
O368 O 0.05884 0.95008 0.38689 0.0
O369 O 0.08073 0.91645 0.41949 0.0
C370 C 0.15959 0.89194 0.38072 0.0
C371 C 0.1154 0.8943 0.33437 0.0
C372 C 0.12638 0.96121 0.41265 0.0
C373 C 0.07132 0.94291 0.37163 0.0
C374 C 0.09381 0.90113 0.41607 0.0
C375 C 0.15207 0.95142 0.34847 0.0
O376 O 0.14789 0.90782 0.37567 0.0
O377 O 0.17489 0.8883 0.36666 0.0
O378 O 0.41573 0.94475 0.66787 0.0
Mn379 Mn 0.39116 0.92645 0.64857 0.0
O380 O 0.44388 0.95515 0.6453 0.0
Mn381 Mn 0.42961 0.94632 0.61885 0.0
O382 O 0.36718 0.90675 0.62912 0.0
O383 O 0.38225 0.90932 0.67404 0.0
Mn384 Mn 0.35301 0.90243 0.67611 0.0
O385 O 0.36728 0.94859 0.65625 0.0
O386 O 0.34798 0.88381 0.65172 0.0
O387 O 0.41397 0.90331 0.63941 0.0
O388 O 0.43298 0.91726 0.61083 0.0
O389 O 0.36703 0.89659 0.70252 0.0
O390 O 0.33961 0.92878 0.67367 0.0
C391 C 0.39825 0.96154 0.61295 0.0
C392 C 0.43573 0.95364 0.66427 0.0
C393 C 0.3537 0.88948 0.63269 0.0
C394 C 0.38543 0.90472 0.69379 0.0
C395 C 0.34769 0.94639 0.66497 0.0
C396 C 0.42675 0.90127 0.62283 0.0
O397 O 0.40026 0.94412 0.62344 0.0
O398 O 0.41678 0.96823 0.60354 0.0
O399 O 0.39307 0.1766 0.91652 0.0
Mn400 Mn 0.37378 0.16389 0.88982 0.0
O401 O 0.40132 0.14649 0.93433 0.0
Mn402 Mn 0.39163 0.12414 0.91362 0.0
O403 O 0.35307 0.14994 0.86403 0.0
O404 O 0.35737 0.19105 0.89055 0.0
Mn405 Mn 0.34987 0.19918 0.86463 0.0
O406 O 0.39657 0.17831 0.86818 0.0
O407 O 0.32961 0.17561 0.8556 0.0
O408 O 0.34949 0.14831 0.91001 0.0
O409 O 0.36126 0.11449 0.91452 0.0
O410 O 0.34359 0.22166 0.88444 0.0
O411 O 0.37703 0.20203 0.8497 0.0
C412 C 0.40798 0.12729 0.88241 0.0
C413 C 0.40126 0.16745 0.93298 0.0
C414 C 0.33462 0.15562 0.85537 0.0
C415 C 0.35216 0.20962 0.89865 0.0
C416 C 0.39486 0.19223 0.85327 0.0
C417 C 0.34579 0.12782 0.91449 0.0
O418 O 0.39142 0.13767 0.88916 0.0
O419 O 0.41316 0.11245 0.89552 0.0
O420 O 0.6018 0.40398 0.85351 0.0
Mn421 Mn 0.61779 0.42418 0.87811 0.0
O422 O 0.62977 0.39593 0.83084 0.0
Mn423 Mn 0.65508 0.40784 0.84721 0.0
O424 O 0.6342 0.4458 0.90179 0.0
O425 O 0.58914 0.43825 0.88224 0.0
Mn426 Mn 0.58334 0.44491 0.9094 0.0
O427 O 0.60819 0.40193 0.90166 0.0
O428 O 0.60732 0.46603 0.91575 0.0
O429 O 0.62885 0.4479 0.85579 0.0
O430 O 0.66226 0.4375 0.84348 0.0
O431 O 0.55752 0.449 0.89266 0.0
O432 O 0.58439 0.4187 0.92387 0.0
C433 C 0.65839 0.39378 0.87881 0.0
C434 C 0.60878 0.39553 0.83568 0.0
C435 C 0.6281 0.46287 0.9125 0.0
C436 C 0.56893 0.44175 0.87663 0.0
C437 C 0.5958 0.40253 0.91855 0.0
C438 C 0.64792 0.4518 0.84622 0.0
O439 O 0.64578 0.40897 0.87398 0.0
O440 O 0.67147 0.38881 0.86316 0.0
O441 O 0.91579 0.44216 0.15705 0.0
Mn442 Mn 0.88742 0.42559 0.1411 0.0
O443 O 0.94058 0.45256 0.13135 0.0
Mn444 Mn 0.92444 0.4385 0.10795 0.0
O445 O 0.85967 0.40798 0.12492 0.0
O446 O 0.87956 0.41119 0.16859 0.0
Mn447 Mn 0.85036 0.40816 0.1732 0.0
O448 O 0.86803 0.45153 0.15022 0.0
O449 O 0.83984 0.38933 0.15018 0.0
O450 O 0.90551 0.39866 0.13207 0.0
O451 O 0.9275 0.40874 0.10412 0.0
O452 O 0.86505 0.39939 0.19797 0.0
O453 O 0.84181 0.43681 0.17291 0.0
C454 C 0.89428 0.45223 0.09649 0.0
C455 C 0.93479 0.45179 0.15116 0.0
C456 C 0.8447 0.39267 0.13043 0.0
C457 C 0.88342 0.40508 0.1878 0.0
C458 C 0.85096 0.45308 0.16274 0.0
C459 C 0.91905 0.39432 0.11673 0.0
O460 O 0.89547 0.44057 0.11343 0.0
O461 O 0.91313 0.45452 0.08613 0.0
O462 O 0.89659 0.68409 0.41808 0.0
Mn463 Mn 0.87717 0.67069 0.39179 0.0
O464 O 0.90299 0.65393 0.43676 0.0
Mn465 Mn 0.89614 0.63159 0.41517 0.0
O466 O 0.85643 0.65583 0.36644 0.0
O467 O 0.85932 0.69684 0.39332 0.0
Mn468 Mn 0.85081 0.70521 0.36785 0.0
O469 O 0.89835 0.68622 0.36934 0.0
O470 O 0.83237 0.68083 0.35753 0.0
O471 O 0.85405 0.65401 0.41252 0.0
O472 O 0.86629 0.62018 0.41436 0.0
O473 O 0.84123 0.72536 0.38861 0.0
O474 O 0.8778 0.71069 0.35306 0.0
C475 C 0.91451 0.63669 0.38539 0.0
C476 C 0.9033 0.67489 0.43513 0.0
C477 C 0.83814 0.6611 0.35714 0.0
C478 C 0.85099 0.71359 0.40229 0.0
C479 C 0.89585 0.70079 0.35517 0.0
C480 C 0.85052 0.63312 0.41532 0.0
O481 O 0.89653 0.64561 0.39093 0.0
O482 O 0.91956 0.62172 0.39841 0.0
O483 O 0.85925 0.90548 0.91447 0.0
Mn484 Mn 0.87216 0.92632 0.89087 0.0
O485 O 0.83797 0.87799 0.89601 0.0
Mn486 Mn 0.84073 0.88805 0.86794 0.0
O487 O 0.88527 0.94585 0.8663 0.0
O488 O 0.8987 0.9361 0.91025 0.0
Mn489 Mn 0.90694 0.96454 0.90877 0.0
O490 O 0.85471 0.95161 0.90413 0.0
O491 O 0.91562 0.96695 0.88014 0.0
O492 O 0.89044 0.90195 0.87677 0.0
O493 O 0.8667 0.88188 0.85331 0.0
O494 O 0.92552 0.95333 0.92962 0.0
O495 O 0.88117 0.9784 0.91637 0.0
C496 C 0.82645 0.91921 0.86227 0.0
C497 C 0.84641 0.88726 0.91371 0.0
C498 C 0.90356 0.95848 0.86406 0.0
C499 C 0.91395 0.93466 0.925 0.0
C500 C 0.86051 0.97078 0.91303 0.0
C501 C 0.8867 0.88857 0.86021 0.0
O502 O 0.84532 0.91683 0.87195 0.0
O503 O 0.81641 0.90061 0.85494 0.0
O504 O 0.91247 0.19401 0.6442 0.0
Mn505 Mn 0.88388 0.18289 0.62523 0.0
O506 O 0.89965 0.21464 0.67201 0.0
Mn507 Mn 0.86872 0.21135 0.66547 0.0
O508 O 0.85441 0.17035 0.60774 0.0
O509 O 0.9009 0.15923 0.61194 0.0
Mn510 Mn 0.89465 0.15407 0.58405 0.0
O511 O 0.89433 0.20335 0.60047 0.0
O512 O 0.86471 0.14297 0.5852 0.0
O513 O 0.87186 0.16254 0.65 0.0
O514 O 0.85437 0.18471 0.67357 0.0
O515 O 0.92005 0.13934 0.59102 0.0
O516 O 0.89878 0.18114 0.57098 0.0
C517 C 0.85938 0.22566 0.63517 0.0
C518 C 0.91553 0.20602 0.66183 0.0
C519 C 0.84963 0.15312 0.59506 0.0
C520 C 0.9184 0.14838 0.61017 0.0
C521 C 0.89833 0.2002 0.58028 0.0
C522 C 0.85903 0.1656 0.6664 0.0
O523 O 0.86744 0.20714 0.63737 0.0
O524 O 0.85524 0.23515 0.65358 0.0
O525 O 0.64741 0.16808 0.41938 0.0
Mn526 Mn 0.63552 0.15029 0.3911 0.0
O527 O 0.67283 0.19501 0.40814 0.0
Mn528 Mn 0.67108 0.18905 0.37833 0.0
O529 O 0.62335 0.13402 0.362 0.0
O530 O 0.6079 0.13871 0.4065 0.0
Mn531 Mn 0.59949 0.11089 0.39871 0.0
O532 O 0.65177 0.12316 0.40041 0.0
O533 O 0.59176 0.11263 0.3698 0.0
O534 O 0.61923 0.17718 0.38028 0.0
O535 O 0.64635 0.19918 0.36426 0.0
O536 O 0.58124 0.1189 0.42153 0.0
O537 O 0.62458 0.09514 0.40364 0.0
C538 C 0.68272 0.1571 0.36898 0.0
C539 C 0.66206 0.18485 0.42309 0.0
C540 C 0.60499 0.12214 0.35625 0.0
C541 C 0.59314 0.13776 0.42152 0.0
C542 C 0.64533 0.10294 0.40383 0.0
C543 C 0.62554 0.19321 0.36804 0.0
O544 O 0.66328 0.16076 0.37612 0.0
O545 O 0.69512 0.17513 0.3657 0.0
O546 O 0.60966 0.88759 0.12481 0.0
Mn547 Mn 0.62444 0.91634 0.14107 0.0
O548 O 0.58294 0.8991 0.10241 0.0
Mn549 Mn 0.58615 0.92909 0.10993 0.0
O550 O 0.63959 0.94611 0.15574 0.0
O551 O 0.65285 0.90118 0.14506 0.0
Mn552 Mn 0.66662 0.90921 0.16989 0.0
O553 O 0.61322 0.90534 0.17109 0.0
O554 O 0.67459 0.9387 0.16636 0.0
O555 O 0.63701 0.92883 0.11199 0.0
O556 O 0.60895 0.9456 0.09634 0.0
O557 O 0.68243 0.88714 0.15736 0.0
O558 O 0.64523 0.90221 0.19082 0.0
C559 C 0.5765 0.93771 0.14246 0.0
C560 C 0.59392 0.88389 0.11007 0.0
C561 C 0.66029 0.95224 0.16149 0.0
C562 C 0.66714 0.88664 0.14212 0.0
C563 C 0.62363 0.90113 0.18877 0.0
C564 C 0.6298 0.94215 0.09828 0.0
O565 O 0.59543 0.93036 0.13716 0.0
O566 O 0.56372 0.94118 0.126 0.0
O567 O 0.41639 0.71243 0.14549 0.0
Mn568 Mn 0.38937 0.69906 0.1255 0.0
O569 O 0.40212 0.73643 0.1693 0.0
Mn570 Mn 0.37167 0.73078 0.16148 0.0
O571 O 0.36187 0.68408 0.10657 0.0
O572 O 0.40813 0.67486 0.1165 0.0
Mn573 Mn 0.40602 0.66803 0.08849 0.0
O574 O 0.40175 0.71744 0.09988 0.0
O575 O 0.37589 0.65758 0.08526 0.0
O576 O 0.37563 0.68095 0.15123 0.0
O577 O 0.3577 0.70517 0.17213 0.0
O578 O 0.42867 0.65231 0.10013 0.0
O579 O 0.41362 0.69393 0.07432 0.0
C580 C 0.36277 0.74211 0.12983 0.0
C581 C 0.41861 0.72674 0.16145 0.0
C582 C 0.35935 0.66722 0.09312 0.0
C583 C 0.42443 0.66246 0.1182 0.0
C584 C 0.41005 0.71335 0.08122 0.0
C585 C 0.36248 0.68556 0.16697 0.0
O586 O 0.37135 0.72401 0.13365 0.0
O587 O 0.35764 0.75267 0.14742 0.0
O588 O 0.14869 0.66226 0.91038 0.0
Mn589 Mn 0.13769 0.64577 0.88114 0.0
O590 O 0.17196 0.69147 0.90056 0.0
Mn591 Mn 0.17127 0.68656 0.87062 0.0
O592 O 0.12618 0.63083 0.85122 0.0
O593 O 0.11017 0.63275 0.89585 0.0
Mn594 Mn 0.10252 0.60527 0.88655 0.0
O595 O 0.15477 0.61858 0.88905 0.0
O596 O 0.09503 0.60829 0.85778 0.0
O597 O 0.12041 0.67263 0.87173 0.0
O598 O 0.14646 0.69614 0.85626 0.0
O599 O 0.08351 0.61156 0.90931 0.0
O600 O 0.12797 0.58999 0.89094 0.0
C601 C 0.18575 0.65619 0.86082 0.0
C602 C 0.16203 0.67979 0.91494 0.0
C603 C 0.1081 0.61883 0.84482 0.0
C604 C 0.09493 0.6307 0.91039 0.0
C605 C 0.14866 0.59805 0.89139 0.0
C606 C 0.12588 0.68923 0.85994 0.0
O607 O 0.16542 0.65798 0.86687 0.0
O608 O 0.19688 0.67517 0.85863 0.0
O609 O 0.11774 0.39101 0.62114 0.0
Mn610 Mn 0.12687 0.41981 0.64022 0.0
O611 O 0.09232 0.40045 0.59617 0.0
Mn612 Mn 0.09228 0.43024 0.60398 0.0
O613 O 0.1366 0.44956 0.65772 0.0
O614 O 0.15579 0.40743 0.6486 0.0
Mn615 Mn 0.16372 0.41378 0.67583 0.0
O616 O 0.11115 0.40617 0.66734 0.0
O617 O 0.16823 0.44417 0.67693 0.0
O618 O 0.14316 0.43487 0.61402 0.0
O619 O 0.11608 0.44849 0.59372 0.0
O620 O 0.18411 0.39484 0.66474 0.0
O621 O 0.13942 0.40206 0.69154 0.0
C622 C 0.07776 0.43751 0.63509 0.0
C623 C 0.1041 0.38636 0.60476 0.0
C624 C 0.15411 0.45675 0.66943 0.0
C625 C 0.17167 0.39436 0.6473 0.0
C626 C 0.11848 0.40035 0.68583 0.0
C627 C 0.13687 0.44721 0.59898 0.0
O628 O 0.0977 0.43147 0.63203 0.0
O629 O 0.06682 0.44023 0.61726 0.0
O630 O 0.64088 0.68379 0.6247 0.0
Mn631 Mn 0.62533 0.66244 0.6467 0.0
O632 O 0.66601 0.70731 0.64418 0.0
Mn633 Mn 0.65959 0.6973 0.67172 0.0
O634 O 0.60899 0.6425 0.66977 0.0
O635 O 0.59967 0.65546 0.62578 0.0
Mn636 Mn 0.58784 0.62801 0.62575 0.0
O637 O 0.64085 0.63573 0.63331 0.0
O638 O 0.57706 0.62608 0.65352 0.0
O639 O 0.60874 0.68829 0.66089 0.0
O640 O 0.63394 0.70753 0.68391 0.0
O641 O 0.57416 0.64162 0.60294 0.0
O642 O 0.61221 0.61128 0.62051 0.0
C643 C 0.66935 0.66454 0.67765 0.0
C644 C 0.65616 0.70022 0.62633 0.0
C645 C 0.5894 0.63151 0.67038 0.0
C646 C 0.58803 0.65851 0.6087 0.0
C647 C 0.63324 0.6169 0.62456 0.0
C648 C 0.61383 0.70301 0.67619 0.0
O649 O 0.65168 0.66906 0.66704 0.0
O650 O 0.68066 0.68188 0.68638 0.0
O651 O 0.37245 0.40728 0.41387 0.0
Mn652 Mn 0.38729 0.42824 0.39134 0.0
O653 O 0.35389 0.37888 0.39421 0.0
Mn654 Mn 0.35964 0.38819 0.36621 0.0
O655 O 0.40224 0.4483 0.36808 0.0
O656 O 0.41099 0.43962 0.4132 0.0
Mn657 Mn 0.41769 0.46837 0.41268 0.0
O658 O 0.36713 0.45272 0.40141 0.0
O659 O 0.4288 0.47215 0.38496 0.0
O660 O 0.40814 0.40473 0.37993 0.0
O661 O 0.38772 0.38235 0.35539 0.0
O662 O 0.43469 0.45783 0.43522 0.0
O663 O 0.39027 0.48043 0.41744 0.0
C664 C 0.34524 0.41915 0.35949 0.0
C665 C 0.36011 0.38878 0.41235 0.0
C666 C 0.41913 0.46305 0.36779 0.0
C667 C 0.42466 0.43872 0.4294 0.0
C668 C 0.3707 0.47177 0.41114 0.0
C669 C 0.40661 0.39001 0.36432 0.0
O670 O 0.36358 0.41695 0.36991 0.0
O671 O 0.3362 0.40057 0.35117 0.0
C672 C 0.99486 0.27748 0.30819 0.0
C673 C 0.00719 0.27496 0.32748 0.0
C674 C -5e-05 0.26609 0.28903 0.0
C675 C 0.03022 0.22054 0.26556 0.0
H676 H 0.04645 0.26119 0.22038 0.0
C677 C 0.09971 0.22599 0.19697 0.0
C678 C 0.09521 0.20598 0.18491 0.0
C679 C 0.08353 0.2336 0.2109 0.0
C680 C 0.04163 0.24959 0.2327 0.0
H681 H 0.03332 0.25723 0.34213 0.0
H682 H 0.042 0.23713 0.30865 0.0
H683 H 0.02727 0.27417 0.25257 0.0
H684 H 0.06989 0.17872 0.17715 0.0
H685 H 0.04178 0.19168 0.20237 0.0
H686 H 0.04539 0.19617 0.24589 0.0
C687 C 0.02848 0.24801 0.30839 0.0
C688 C 0.03058 0.25696 0.25107 0.0
C689 C 0.02359 0.25961 0.32753 0.0
C690 C 0.07376 0.19424 0.18624 0.0
C691 C 0.05775 0.20156 0.20069 0.0
C692 C 0.04095 0.21306 0.24698 0.0
C693 C 0.01723 0.25171 0.28881 0.0
C694 C 0.0254 0.2427 0.26798 0.0
C695 C 0.0627 0.22112 0.2134 0.0
C696 C 0.0474 0.22774 0.23073 0.0
H697 H 0.98207 0.28912 0.30759 0.0
H698 H 0.99092 0.26911 0.27419 0.0
H699 H 0.02631 0.20921 0.27833 0.0
H700 H 0.11609 0.23538 0.19623 0.0
H701 H 0.08782 0.24866 0.22064 0.0
C702 C 0.08292 0.85874 0.59359 0.0
C703 C 0.07463 0.83838 0.60154 0.0
C704 C 0.09323 0.85969 0.57346 0.0
C705 C 0.11644 0.85816 0.53032 0.0
H706 H 0.07484 0.82626 0.48843 0.0
C707 C 0.11694 0.88179 0.44176 0.0
C708 C 0.09548 0.88505 0.4331 0.0
C709 C 0.11904 0.86986 0.46039 0.0
C710 C 0.08672 0.83516 0.49989 0.0
H711 H 0.07254 0.8029 0.59572 0.0
H712 H 0.09056 0.80456 0.56032 0.0
H713 H 0.07307 0.81733 0.52656 0.0
H714 H 0.05932 0.87854 0.43713 0.0
H715 H 0.06282 0.85802 0.4701 0.0
H716 H 0.12897 0.87711 0.50405 0.0
C717 C 0.08899 0.81978 0.56966 0.0
C718 C 0.08593 0.82985 0.52171 0.0
C719 C 0.07892 0.81883 0.59002 0.0
C720 C 0.07606 0.87581 0.44323 0.0
C721 C 0.07813 0.86396 0.46202 0.0
C722 C 0.11723 0.86347 0.50853 0.0
C723 C 0.09523 0.84028 0.56074 0.0
C724 C 0.10014 0.84194 0.5373 0.0
C725 C 0.09967 0.86139 0.47117 0.0
C726 C 0.10175 0.85264 0.4932 0.0
H727 H 0.07978 0.87405 0.60215 0.0
H728 H 0.09771 0.87577 0.56707 0.0
H729 H 0.12774 0.86762 0.54191 0.0
H730 H 0.13214 0.88956 0.43483 0.0
H731 H 0.13587 0.8681 0.46688 0.0
C732 C 0.50849 0.91379 0.84398 0.0
C733 C 0.52201 0.89611 0.84519 0.0
C734 C 0.50121 0.9205 0.82385 0.0
C735 C 0.49183 0.89633 0.76767 0.0
H736 H 0.46242 0.95014 0.7618 0.0
C737 C 0.42781 0.90649 0.69789 0.0
C738 C 0.40661 0.91033 0.70642 0.0
C739 C 0.44738 0.90958 0.71116 0.0
C740 C 0.47096 0.93523 0.7629 0.0
H741 H 0.54069 0.87314 0.82655 0.0
H742 H 0.52959 0.88593 0.79139 0.0
H743 H 0.48991 0.94789 0.79107 0.0
H744 H 0.38919 0.92144 0.73486 0.0
H745 H 0.42329 0.92732 0.75782 0.0
H746 H 0.47302 0.88398 0.73915 0.0
C747 C 0.52335 0.89386 0.80583 0.0
C748 C 0.48646 0.93372 0.77997 0.0
C749 C 0.52999 0.88667 0.82599 0.0
C750 C 0.40538 0.9183 0.72797 0.0
C751 C 0.4249 0.92184 0.74103 0.0
C752 C 0.47701 0.89819 0.75014 0.0
C753 C 0.50781 0.91004 0.80442 0.0
C754 C 0.49614 0.91379 0.78336 0.0
C755 C 0.446 0.91699 0.73295 0.0
C756 C 0.46566 0.91728 0.74814 0.0
H757 H 0.50199 0.92125 0.85858 0.0
H758 H 0.4891 0.9328 0.82378 0.0
H759 H 0.49852 0.88054 0.76959 0.0
H760 H 0.4291 0.90024 0.68133 0.0
H761 H 0.46349 0.90574 0.70457 0.0
C762 C 0.45688 0.29604 0.08622 0.0
C763 C 0.46736 0.2862 0.10352 0.0
C764 C 0.44638 0.28302 0.0691 0.0
C765 C 0.45169 0.22892 0.04233 0.0
H766 H 0.4 0.2424 0.00749 0.0
C767 C 0.41551 0.17179 0.97144 0.0
C768 C 0.40952 0.18155 0.95216 0.0
C769 C 0.42137 0.18474 0.99018 0.0
C770 C 0.41462 0.23865 0.01697 0.0
H771 H 0.4729 0.25496 0.1175 0.0
H772 H 0.45408 0.23228 0.08794 0.0
H773 H 0.41003 0.26418 0.04105 0.0
H774 H 0.40592 0.21274 0.93736 0.0
H775 H 0.41593 0.23547 0.97029 0.0
H776 H 0.45643 0.20357 0.01828 0.0
C777 C 0.45465 0.25007 0.08725 0.0
C778 C 0.42029 0.25101 0.03622 0.0
C779 C 0.46528 0.26307 0.10429 0.0
C780 C 0.41005 0.20469 0.95199 0.0
C781 C 0.41574 0.21769 0.97085 0.0
C782 C 0.44602 0.2166 0.02318 0.0
C783 C 0.44601 0.2599 0.06901 0.0
C784 C 0.4389 0.24624 0.04914 0.0
C785 C 0.42137 0.2078 0.99016 0.0
C786 C 0.42745 0.22131 0.01028 0.0
H787 H 0.45811 0.31382 0.08513 0.0
H788 H 0.4399 0.29114 0.05531 0.0
H789 H 0.46649 0.22516 0.05155 0.0
H790 H 0.41524 0.15401 0.97229 0.0
H791 H 0.42544 0.17663 0.00485 0.0
C792 C 0.98478 0.82978 0.18301 0.0
C793 C 0.99675 0.8217 0.1653 0.0
C794 C 0.99637 0.84 0.20112 0.0
C795 C 0.05091 0.8672 0.22114 0.0
H796 H 0.03495 0.84109 0.27574 0.0
C797 C 0.11011 0.88166 0.29544 0.0
C798 C 0.10076 0.8845 0.31607 0.0
C799 C 0.09634 0.87481 0.27748 0.0
C800 C 0.0394 0.84887 0.26074 0.0
H801 H 0.03027 0.81935 0.15219 0.0
H802 H 0.0505 0.83767 0.18371 0.0
H803 H 0.01266 0.82962 0.24297 0.0
H804 H 0.0698 0.88049 0.33417 0.0
H805 H 0.04536 0.86953 0.30254 0.0
H806 H 0.07745 0.88664 0.23876 0.0
C807 C 0.03213 0.83586 0.18358 0.0
C808 C 0.02665 0.84225 0.24196 0.0
C809 C 0.02054 0.82536 0.16555 0.0
C810 C 0.07737 0.87925 0.31841 0.0
C811 C 0.06345 0.87265 0.3003 0.0
C812 C 0.06348 0.87403 0.23994 0.0
C813 C 0.02016 0.84266 0.20179 0.0
C814 C 0.03252 0.8511 0.22193 0.0
C815 C 0.07276 0.87076 0.27952 0.0
C816 C 0.05819 0.86462 0.25992 0.0
H817 H 0.96644 0.82726 0.18339 0.0
H818 H 0.98675 0.84534 0.21485 0.0
H819 H 0.05561 0.87448 0.20595 0.0
H820 H 0.12811 0.88526 0.29294 0.0
H821 H 0.10427 0.87281 0.26192 0.0
C822 C 0.44348 0.79716 0.46519 0.0
C823 C 0.46643 0.7994 0.45958 0.0
C824 C 0.43726 0.79915 0.48691 0.0
C825 C 0.46171 0.80613 0.54395 0.0
H826 H 0.40936 0.83913 0.5531 0.0
C827 C 0.45342 0.87709 0.60543 0.0
C828 C 0.43251 0.87922 0.61533 0.0
C829 C 0.45644 0.85875 0.59185 0.0
C830 C 0.4237 0.82941 0.55092 0.0
H831 H 0.50089 0.80494 0.47225 0.0
H832 H 0.49021 0.80981 0.50976 0.0
H833 H 0.41628 0.82394 0.51717 0.0
H834 H 0.39927 0.86287 0.6209 0.0
H835 H 0.40406 0.83124 0.59595 0.0
H836 H 0.47019 0.81391 0.57752 0.0
C837 C 0.47685 0.80562 0.49773 0.0
C838 C 0.42774 0.82062 0.53023 0.0
C839 C 0.48305 0.80307 0.47611 0.0
C840 C 0.41548 0.86163 0.61328 0.0
C841 C 0.41821 0.84357 0.59906 0.0
C842 C 0.45795 0.81543 0.56454 0.0
C843 C 0.45383 0.80404 0.50348 0.0
C844 C 0.44729 0.80958 0.52623 0.0
C845 C 0.43839 0.84253 0.58752 0.0
C846 C 0.43931 0.82775 0.568 0.0
H847 H 0.43031 0.79399 0.45278 0.0
H848 H 0.4194 0.79723 0.4906 0.0
H849 H 0.47653 0.79711 0.54179 0.0
H850 H 0.46682 0.89044 0.60683 0.0
H851 H 0.47211 0.8584 0.58306 0.0
C852 C 0.43125 0.21518 0.67163 0.0
C853 C 0.45242 0.22365 0.66416 0.0
C854 C 0.42951 0.20637 0.69209 0.0
C855 C 0.4587 0.18966 0.74107 0.0
H856 H 0.4168 0.22619 0.76994 0.0
C857 C 0.41747 0.17579 0.82451 0.0
C858 C 0.41259 0.19452 0.83695 0.0
C859 C 0.42892 0.17799 0.80501 0.0
C860 C 0.42882 0.21609 0.76225 0.0
H861 H 0.4887 0.22652 0.67089 0.0
H862 H 0.48555 0.21114 0.70677 0.0
H863 H 0.42211 0.22855 0.73123 0.0
H864 H 0.41673 0.23018 0.8396 0.0
H865 H 0.4369 0.23418 0.80548 0.0
H866 H 0.46497 0.17695 0.77243 0.0
C867 C 0.47034 0.21147 0.69682 0.0
C868 C 0.43155 0.21715 0.73998 0.0
C869 C 0.47211 0.22025 0.67624 0.0
C870 C 0.42063 0.2155 0.83038 0.0
C871 C 0.43204 0.21774 0.81086 0.0
C872 C 0.4557 0.18835 0.76352 0.0
C873 C 0.4489 0.20588 0.70543 0.0
C874 C 0.44627 0.20381 0.72909 0.0
C875 C 0.43523 0.19905 0.79744 0.0
C876 C 0.44068 0.20158 0.77428 0.0
H877 H 0.4158 0.21725 0.66256 0.0
H878 H 0.4128 0.2017 0.69823 0.0
H879 H 0.47032 0.17939 0.73303 0.0
H880 H 0.41043 0.15958 0.82875 0.0
H881 H 0.43084 0.16331 0.79492 0.0
C882 C 0.05713 0.22797 0.93961 0.0
C883 C 0.05673 0.25036 0.93511 0.0
C884 C 0.06912 0.2217 0.95766 0.0
C885 C 0.08571 0.24312 0.01209 0.0
H886 H 0.11104 0.18672 0.01502 0.0
C887 C 0.07652 0.18867 0.08517 0.0
C888 C 0.09316 0.17449 0.0898 0.0
C889 C 0.07912 0.20273 0.06788 0.0
C890 C 0.10451 0.20276 0.01457 0.0
H891 H 0.06993 0.28367 0.94519 0.0
H892 H 0.09094 0.27266 0.9768 0.0
H893 H 0.10414 0.20179 0.97985 0.0
H894 H 0.12562 0.16377 0.08041 0.0
H895 H 0.13037 0.18848 0.05018 0.0
H896 H 0.08542 0.24373 0.04682 0.0
C897 C 0.08176 0.25999 0.96643 0.0
C898 C 0.10032 0.21128 0.99436 0.0
C899 C 0.06985 0.26627 0.94824 0.0
C900 C 0.11286 0.17505 0.07743 0.0
C901 C 0.11539 0.18895 0.05997 0.0
C902 C 0.08991 0.2346 0.03232 0.0
C903 C 0.08096 0.23768 0.9717 0.0
C904 C 0.09 0.2311 0.99287 0.0
C905 C 0.09823 0.20248 0.05461 0.0
C906 C 0.09849 0.21389 0.03376 0.0
H907 H 0.04728 0.21531 0.92977 0.0
H908 H 0.06793 0.2044 0.96131 0.0
H909 H 0.07769 0.25841 0.01155 0.0
H910 H 0.06095 0.18804 0.09421 0.0
H911 H 0.06537 0.21259 0.06401 0.0
C912 C 0.33729 0.08964 0.18777 0.0
C913 C 0.34218 0.06889 0.19477 0.0
C914 C 0.31655 0.09226 0.17758 0.0
C915 C 0.25811 0.06858 0.17932 0.0
H916 H 0.24912 0.11497 0.13976 0.0
C917 C 0.1874 0.13043 0.14891 0.0
C918 C 0.17982 0.13648 0.16952 0.0
C919 C 0.20333 0.1149 0.14658 0.0
C920 C 0.25107 0.10155 0.15043 0.0
H921 H 0.32988 0.03424 0.19495 0.0
H922 H 0.29356 0.03887 0.17708 0.0
H923 H 0.28631 0.10139 0.1433 0.0
H924 H 0.18227 0.13085 0.20377 0.0
H925 H 0.21 0.10372 0.1999 0.0
H926 H 0.22301 0.06927 0.18699 0.0
C927 C 0.30573 0.05313 0.17969 0.0
C928 C 0.27253 0.09395 0.15263 0.0
C929 C 0.32662 0.05047 0.18978 0.0
C930 C 0.18743 0.12594 0.18765 0.0
C931 C 0.20331 0.11037 0.18536 0.0
C932 C 0.23659 0.07614 0.17708 0.0
C933 C 0.30015 0.07421 0.17422 0.0
C934 C 0.27655 0.07815 0.16784 0.0
C935 C 0.2122 0.10537 0.16489 0.0
C936 C 0.23307 0.09345 0.16336 0.0
H937 H 0.34896 0.10413 0.19131 0.0
H938 H 0.31278 0.10877 0.17376 0.0
H939 H 0.26059 0.0564 0.19123 0.0
H940 H 0.18261 0.13913 0.13483 0.0
H941 H 0.20979 0.11143 0.13061 0.0
C942 C 0.2288 0.13165 0.47948 0.0
C943 C 0.25233 0.13465 0.4764 0.0
C944 C 0.21571 0.11416 0.46875 0.0
C945 C 0.22237 0.05824 0.44817 0.0
H946 H 0.16001 0.05942 0.42848 0.0
C947 C 0.16585 0.98014 0.41623 0.0
C948 C 0.14284 0.97912 0.42173 0.0
C949 C 0.18029 0.99918 0.42141 0.0
C950 C 0.17736 0.05879 0.43411 0.0
H951 H 0.28019 0.12282 0.45809 0.0
H952 H 0.25726 0.09238 0.43935 0.0
H953 H 0.18273 0.09402 0.43773 0.0
H954 H 0.11751 0.99653 0.43881 0.0
H955 H 0.14273 0.02917 0.44837 0.0
H956 H 0.21682 0.023 0.44515 0.0
C957 C 0.24906 0.10334 0.45035 0.0
C958 C 0.19038 0.07862 0.43928 0.0
C959 C 0.26213 0.12091 0.46098 0.0
C960 C 0.13503 0.99684 0.43395 0.0
C961 C 0.14944 0.01571 0.43924 0.0
C962 C 0.20931 0.03839 0.44308 0.0
C963 C 0.2259 0.0993 0.45477 0.0
C964 C 0.2129 0.07855 0.44671 0.0
C965 C 0.17201 0.01742 0.43241 0.0
C966 C 0.18651 0.03843 0.43642 0.0
H967 H 0.22068 0.14198 0.49115 0.0
H968 H 0.1979 0.11146 0.47252 0.0
H969 H 0.2396 0.05764 0.45415 0.0
H970 H 0.17248 0.96669 0.40701 0.0
H971 H 0.19764 -6e-05 0.41599 0.0
C972 C 0.1753 0.00029 0.66658 0.0
C973 C 0.16792 0.0175 0.67974 0.0
C974 C 0.19662 0.00256 0.65714 0.0
C975 C 0.25153 0.02601 0.67391 0.0
H976 H 0.26932 0.99678 0.62073 0.0
C977 C 0.33627 0.98535 0.66775 0.0
C978 C 0.33166 0.96302 0.66126 0.0
C979 C 0.31958 0.00011 0.66495 0.0
C980 C 0.26472 0.00529 0.63556 0.0
H981 H 0.17618 0.05131 0.69171 0.0
H982 H 0.21376 0.05501 0.67566 0.0
H983 H 0.23112 0.00883 0.62351 0.0
H984 H 0.30698 0.93871 0.64583 0.0
H985 H 0.27842 0.96421 0.64047 0.0
H986 H 0.28427 0.02048 0.68674 0.0
C987 C 0.20293 0.03989 0.6725 0.0
C988 C 0.2429 0.01222 0.6371 0.0
C989 C 0.18136 0.03778 0.68157 0.0
C990 C 0.3108 0.95586 0.65113 0.0
C991 C 0.29456 0.97057 0.64779 0.0
C992 C 0.27328 0.01882 0.67246 0.0
C993 C 0.21113 0.02194 0.66102 0.0
C994 C 0.23568 0.02147 0.65672 0.0
C995 C 0.29856 0.99281 0.65486 0.0
C996 C 0.27951 0.00708 0.65376 0.0
H997 H 0.1653 0.9845 0.66489 0.0
H998 H 0.20252 0.98838 0.6485 0.0
H999 H 0.24643 0.03306 0.68928 0.0
H1000 H 0.35234 0.99117 0.67553 0.0
H1001 H 0.323 0.01711 0.67081 0.0
C1002 C 0.2461 0.96467 0.93919 0.0
C1003 C 0.2421 0.95809 0.96045 0.0
C1004 C 0.24818 0.98708 0.93462 0.0
C1005 C 0.26631 0.04018 0.96213 0.0
H1006 H 0.25131 0.06329 0.90663 0.0
C1007 C 0.31202 0.1211 0.93781 0.0
C1008 C 0.32264 0.11813 0.91792 0.0
C1009 C 0.29355 0.10647 0.94329 0.0
C1010 C 0.25546 0.05717 0.9223 0.0
H1011 H 0.23549 0.96983 0.99324 0.0
H1012 H 0.23892 0.00876 0.98519 0.0
H1013 H 0.23515 0.02659 0.91582 0.0
H1014 H 0.32179 0.0989 0.88768 0.0
H1015 H 0.28963 0.07383 0.89679 0.0
H1016 H 0.28769 0.06996 0.96816 0.0
C1017 C 0.2409 0.99667 0.97215 0.0
C1018 C 0.24627 0.03612 0.92752 0.0
C1019 C 0.2389 0.97432 0.97673 0.0
C1020 C 0.31346 0.10175 0.90289 0.0
C1021 C 0.295 0.08734 0.9082 0.0
C1022 C 0.27555 0.06114 0.95689 0.0
C1023 C 0.24623 0.00336 0.95119 0.0
C1024 C 0.25229 0.02706 0.94715 0.0
C1025 C 0.28559 0.08874 0.92893 0.0
C1026 C 0.27101 0.06952 0.93655 0.0
H1027 H 0.24859 0.95259 0.92627 0.0
H1028 H 0.25253 0.99165 0.91833 0.0
H1029 H 0.27151 0.03368 0.97732 0.0
H1030 H 0.31909 0.13349 0.94973 0.0
H1031 H 0.2865 0.10814 0.9593 0.0
C1032 C 0.30559 0.04665 0.27065 0.0
C1033 C 0.32182 0.04715 0.28763 0.0
C1034 C 0.28242 0.04442 0.27497 0.0
C1035 C 0.24024 0.04691 0.31867 0.0
H1036 H 0.20875 0.99724 0.28621 0.0
C1037 C 0.17365 0.98748 0.35481 0.0
C1038 C 0.15886 0.97363 0.3413 0.0
C1039 C 0.18774 0.00436 0.34619 0.0
C1040 C 0.21683 0.01161 0.29508 0.0
H1041 H 0.32637 0.04691 0.32255 0.0
H1042 H 0.28593 0.0429 0.33008 0.0
H1043 H 0.24582 0.01195 0.27489 0.0
H1044 H 0.14551 0.96753 0.30861 0.0
H1045 H 0.16964 0.99762 0.29339 0.0
H1046 H 0.21152 0.04603 0.33935 0.0
C1047 C 0.29115 0.04436 0.31342 0.0
C1048 C 0.23826 0.01999 0.2886 0.0
C1049 C 0.31434 0.04646 0.3091 0.0
C1050 C 0.1566 0.97828 0.31937 0.0
C1051 C 0.17067 0.99529 0.31066 0.0
C1052 C 0.21866 0.03867 0.32504 0.0
C1053 C 0.27494 0.0428 0.29638 0.0
C1054 C 0.2506 0.03711 0.30085 0.0
C1055 C 0.18743 0.00759 0.32374 0.0
C1056 C 0.20711 0.02024 0.3139 0.0
H1057 H 0.31075 0.04732 0.25391 0.0
H1058 H 0.27034 0.04345 0.26152 0.0
H1059 H 0.24921 0.0604 0.32819 0.0
H1060 H 0.17602 0.98383 0.37165 0.0
H1061 H 0.20044 0.01323 0.35684 0.0
C1062 C 0.31941 0.1068 0.56311 0.0
C1063 C 0.30227 0.12055 0.56856 0.0
C1064 C 0.32107 0.0871 0.57337 0.0
C1065 C 0.31876 0.05933 0.62022 0.0
H1066 H 0.31566 0.00707 0.58171 0.0
C1067 C 0.38479 0.99808 0.62132 0.0
C1068 C 0.37954 0.97574 0.61539 0.0
C1069 C 0.36794 0.01265 0.62166 0.0
C1070 C 0.31603 0.0212 0.59301 0.0
H1071 H 0.274 0.12464 0.58987 0.0
H1072 H 0.27771 0.09007 0.60866 0.0
H1073 H 0.29827 0.03977 0.57058 0.0
H1074 H 0.35262 0.95069 0.6058 0.0
H1075 H 0.32286 0.97656 0.60555 0.0
H1076 H 0.33844 0.04162 0.64175 0.0
C1077 C 0.28937 0.09468 0.59595 0.0
C1078 C 0.30606 0.03992 0.5866 0.0
C1079 C 0.2874 0.11445 0.58533 0.0
C1080 C 0.35697 0.96793 0.61041 0.0
C1081 C 0.34005 0.9827 0.61025 0.0
C1082 C 0.32893 0.04068 0.62656 0.0
C1083 C 0.30592 0.08069 0.58958 0.0
C1084 C 0.30846 0.05947 0.59964 0.0
C1085 C 0.34545 0.0053 0.61565 0.0
C1086 C 0.32885 0.02189 0.61242 0.0
H1087 H 0.33123 0.11084 0.55036 0.0
H1088 H 0.33423 0.07671 0.56851 0.0
H1089 H 0.32092 0.07429 0.63045 0.0
H1090 H 0.40213 0.00441 0.62524 0.0
H1091 H 0.37286 0.02995 0.62546 0.0
C1092 C 0.16554 0.0512 0.7919 0.0
C1093 C 0.1655 0.02936 0.78357 0.0
C1094 C 0.18383 0.06087 0.80453 0.0
C1095 C 0.24479 0.05738 0.81001 0.0
H1096 H 0.2399 0.10346 0.85449 0.0
C1097 C 0.32141 0.11584 0.84575 0.0
C1098 C 0.31728 0.13827 0.84673 0.0
C1099 C 0.30375 0.09947 0.84062 0.0
C1100 C 0.24152 0.09058 0.84212 0.0
H1101 H 0.18381 -1e-05 0.78348 0.0
H1102 H 0.21571 0.01693 0.80566 0.0
H1103 H 0.20627 0.07941 0.84312 0.0
H1104 H 0.29151 0.16103 0.84194 0.0
H1105 H 0.26111 0.1327 0.8329 0.0
H1106 H 0.27997 0.06912 0.80858 0.0
C1107 C 0.20172 0.02662 0.80212 0.0
C1108 C 0.2223 0.07681 0.83563 0.0
C1109 C 0.18334 0.01689 0.78955 0.0
C1110 C 0.29539 0.14398 0.84149 0.0
C1111 C 0.27784 0.12771 0.83655 0.0
C1112 C 0.26408 0.07114 0.81657 0.0
C1113 C 0.20251 0.04894 0.80911 0.0
C1114 C 0.22354 0.06058 0.81896 0.0
C1115 C 0.28167 0.1053 0.83653 0.0
C1116 C 0.26241 0.08838 0.83211 0.0
H1117 H 0.15204 0.06125 0.78768 0.0
H1118 H 0.18394 0.07814 0.80952 0.0
H1119 H 0.2463 0.04515 0.79699 0.0
H1120 H 0.33809 0.11088 0.84966 0.0
H1121 H 0.30716 0.08228 0.84056 0.0
C1122 C 0.23927 0.95906 0.06006 0.0
C1123 C 0.22676 0.93851 0.06221 0.0
C1124 C 0.2322 0.97821 0.07016 0.0
C1125 C 0.17871 0.99853 0.08676 0.0
H1126 H 0.21563 0.05023 0.11004 0.0
C1127 C 0.13685 0.07225 0.1215 0.0
C1128 C 0.14519 0.09336 0.11548 0.0
C1129 C 0.1492 0.05416 0.11751 0.0
C1130 C 0.20518 0.03596 0.10339 0.0
H1131 H 0.19851 0.92165 0.07853 0.0
H1132 H 0.18648 0.95494 0.09647 0.0
H1133 H 0.23356 0.01644 0.1001 0.0
H1134 H 0.17326 0.11236 0.10107 0.0
H1135 H 0.19501 0.0803 0.09358 0.0
H1136 H 0.15047 0.01783 0.08948 0.0
C1137 C 0.20136 0.95635 0.08646 0.0
C1138 C 0.2154 0.01662 0.0978 0.0
C1139 C 0.20833 0.93724 0.07628 0.0
C1140 C 0.16653 0.0962 0.10588 0.0
C1141 C 0.17894 0.0779 0.10169 0.0
C1142 C 0.16859 0.01773 0.09223 0.0
C1143 C 0.21256 0.97716 0.08269 0.0
C1144 C 0.20219 0.99763 0.08958 0.0
C1145 C 0.17011 0.05661 0.10707 0.0
C1146 C 0.1816 0.03662 0.10079 0.0
H1147 H 0.25362 0.96064 0.04939 0.0
H1148 H 0.24121 0.99397 0.06693 0.0
H1149 H 0.16811 0.98449 0.07983 0.0
H1150 H 0.12061 0.06967 0.12929 0.0
H1151 H 0.14216 0.03811 0.12237 0.0
C1152 C 0.22791 0.36704 0.068 0.0
C1153 C 0.23367 0.37272 0.04684 0.0
C1154 C 0.21471 0.34738 0.07159 0.0
C1155 C 0.2042 0.29169 0.04871 0.0
H1156 H 0.15692 0.28617 0.0914 0.0
C1157 C 0.18427 0.21627 0.10049 0.0
C1158 C 0.16163 0.21023 0.10557 0.0
C1159 C 0.1897 0.23422 0.08756 0.0
C1160 C 0.16981 0.28742 0.07915 0.0
H1161 H 0.22937 0.36262 0.01277 0.0
H1162 H 0.20665 0.32806 0.01915 0.0
H1163 H 0.17174 0.32279 0.08068 0.0
H1164 H 0.12687 0.21777 0.10103 0.0
H1165 H 0.13631 0.24918 0.07826 0.0
H1166 H 0.20309 0.25634 0.04804 0.0
C1167 C 0.21229 0.33891 0.0329 0.0
C1168 C 0.17841 0.30838 0.07317 0.0
C1169 C 0.22518 0.35876 0.02928 0.0
C1170 C 0.14439 0.22174 0.09674 0.0
C1171 C 0.14982 0.23986 0.08399 0.0
C1172 C 0.19583 0.27072 0.05493 0.0
C1173 C 0.20729 0.33285 0.05411 0.0
C1174 C 0.19602 0.31073 0.05825 0.0
C1175 C 0.1726 0.24673 0.07992 0.0
C1176 C 0.17888 0.26841 0.07054 0.0
H1177 H 0.23417 0.37746 0.08185 0.0
H1178 H 0.21124 0.34303 0.08813 0.0
H1179 H 0.21789 0.29303 0.03727 0.0
H1180 H 0.19784 0.20788 0.10753 0.0
H1181 H 0.20742 0.23929 0.08492 0.0
C1182 C 0.65368 0.22328 0.94887 0.0
C1183 C 0.66484 0.21882 0.96823 0.0
C1184 C 0.64438 0.24341 0.94673 0.0
C1185 C 0.66625 0.296 0.95712 0.0
H1186 H 0.61028 0.31725 0.93667 0.0
C1187 C 0.63551 0.36211 0.89345 0.0
C1188 C 0.65361 0.37848 0.89618 0.0
C1189 C 0.63296 0.34488 0.90768 0.0
C1190 C 0.62613 0.31154 0.94211 0.0
H1191 H 0.67298 0.23074 0.00123 0.0
H1192 H 0.65755 0.26636 0.99714 0.0
H1193 H 0.60955 0.28093 0.95237 0.0
H1194 H 0.68322 0.39008 0.91569 0.0
H1195 H 0.6781 0.36087 0.94161 0.0
H1196 H 0.68341 0.32491 0.94495 0.0
C1197 C 0.65547 0.25407 0.98389 0.0
C1198 C 0.62556 0.2909 0.95143 0.0
C1199 C 0.66421 0.23366 0.98622 0.0
C1200 C 0.66893 0.37773 0.91358 0.0
C1201 C 0.66614 0.36073 0.92815 0.0
C1202 C 0.66694 0.31622 0.94724 0.0
C1203 C 0.64662 0.25949 0.96377 0.0
C1204 C 0.64572 0.28282 0.95854 0.0
C1205 C 0.6484 0.34372 0.92514 0.0
C1206 C 0.647 0.32401 0.93891 0.0
H1207 H 0.65413 0.21216 0.93474 0.0
H1208 H 0.63784 0.24736 0.931 0.0
H1209 H 0.68206 0.28989 0.96221 0.0
H1210 H 0.6239 0.36213 0.87968 0.0
H1211 H 0.61942 0.332 0.9043 0.0
C1212 C 0.07427 0.51639 0.29495 0.0
C1213 C 0.09303 0.5291 0.28685 0.0
C1214 C 0.05721 0.50655 0.28085 0.0
C1215 C 0.03217 0.51474 0.22741 0.0
H1216 H 0.00196 0.45614 0.23263 0.0
C1217 C 0.97178 0.47301 0.16145 0.0
C1218 C 0.95142 0.46162 0.16785 0.0
C1219 C 0.98831 0.48108 0.17678 0.0
C1220 C 0.00996 0.47268 0.23129 0.0
H1221 H 0.10925 0.54025 0.25748 0.0
H1222 H 0.07964 0.52295 0.23298 0.0
H1223 H 0.0331 0.46927 0.2578 0.0
H1224 H 0.93232 0.45043 0.1956 0.0
H1225 H 0.96149 0.46438 0.2225 0.0
H1226 H 0.00913 0.51819 0.20097 0.0
C1227 C 0.07791 0.52096 0.25025 0.0
C1228 C 0.02788 0.48014 0.24557 0.0
C1229 C 0.09496 0.53074 0.2643 0.0
C1230 C 0.94787 0.45889 0.19009 0.0
C1231 C 0.96459 0.4668 0.20549 0.0
C1232 C 0.01426 0.50733 0.21326 0.0
C1233 C 0.05855 0.50928 0.2584 0.0
C1234 C 0.03933 0.50118 0.2436 0.0
C1235 C 0.98501 0.47792 0.19893 0.0
C1236 C 0.00307 0.48616 0.21493 0.0
H1237 H 0.07227 0.51476 0.31223 0.0
H1238 H 0.04248 0.49767 0.28761 0.0
H1239 H 0.04032 0.53122 0.22578 0.0
H1240 H 0.97518 0.4755 0.1445 0.0
H1241 H 0.00396 0.48941 0.17122 0.0
C1242 C 0.85314 0.87155 0.51269 0.0
C1243 C 0.82988 0.87309 0.51602 0.0
C1244 C 0.86145 0.85098 0.50859 0.0
C1245 C 0.84482 0.78992 0.50694 0.0
H1246 H 0.88283 0.79023 0.45644 0.0
C1247 C 0.83619 0.72512 0.43774 0.0
C1248 C 0.8549 0.7214 0.42494 0.0
C1249 C 0.8388 0.73913 0.45627 0.0
C1250 C 0.87275 0.78971 0.47092 0.0
H1251 H 0.79734 0.85407 0.51882 0.0
H1252 H 0.8116 0.81854 0.51111 0.0
H1253 H 0.87682 0.82477 0.47538 0.0
H1254 H 0.89108 0.72847 0.42165 0.0
H1255 H 0.8958 0.75295 0.45419 0.0
H1256 H 0.8395 0.75482 0.50131 0.0
C1257 C 0.82361 0.83305 0.51205 0.0
C1258 C 0.86925 0.80963 0.48184 0.0
C1259 C 0.81535 0.85354 0.51627 0.0
C1260 C 0.87654 0.73059 0.43171 0.0
C1261 C 0.87916 0.74481 0.45015 0.0
C1262 C 0.8482 0.76997 0.4959 0.0
C1263 C 0.84667 0.83151 0.50759 0.0
C1264 C 0.85442 0.81011 0.49938 0.0
C1265 C 0.86013 0.75007 0.46201 0.0
C1266 C 0.8614 0.76977 0.47719 0.0
H1267 H 0.86483 0.88627 0.51261 0.0
H1268 H 0.87936 0.8504 0.50557 0.0
H1269 H 0.83377 0.78961 0.52075 0.0
H1270 H 0.81928 0.71854 0.4325 0.0
H1271 H 0.82372 0.74301 0.46483 0.0
C1272 C 0.92357 0.10487 0.25088 0.0
C1273 C 0.91775 0.08994 0.26707 0.0
C1274 C 0.94603 0.11365 0.24884 0.0
C1275 C 0.00195 0.09547 0.2573 0.0
H1276 H 0.02124 0.15095 0.23163 0.0
C1277 C 0.06249 0.10392 0.18757 0.0
C1278 C 0.07757 0.12286 0.18605 0.0
C1279 C 0.04831 0.10157 0.20528 0.0
C1280 C 0.01636 0.13558 0.23927 0.0
H1281 H 0.93057 0.07425 0.29516 0.0
H1282 H 0.96974 0.08957 0.29152 0.0
H1283 H 0.98448 0.14645 0.2492 0.0
H1284 H 0.09092 0.15352 0.20245 0.0
H1285 H 0.06524 0.14988 0.23324 0.0
H1286 H 0.03313 0.08413 0.24614 0.0
C1287 C 0.95698 0.09424 0.28024 0.0
C1288 C 0.99522 0.13293 0.24914 0.0
C1289 C 0.9345 0.08553 0.28235 0.0
C1290 C 0.07941 0.13875 0.20331 0.0
C1291 C 0.0647 0.13671 0.22083 0.0
C1292 C 0.02296 0.09806 0.24732 0.0
C1293 C 0.96315 0.10766 0.26292 0.0
C1294 C 0.98738 0.11252 0.25741 0.0
C1295 C 0.04858 0.11836 0.22162 0.0
C1296 C 0.02989 0.11778 0.23734 0.0
H1297 H 0.91107 0.10875 0.23894 0.0
H1298 H 0.9502 0.12383 0.23523 0.0
H1299 H 0.99642 0.07948 0.26339 0.0
H1300 H 0.06076 0.09146 0.17445 0.0
H1301 H 0.03593 0.08736 0.2053 0.0
C1302 C 0.28487 0.72681 0.52005 0.0
C1303 C 0.27735 0.73116 0.49911 0.0
C1304 C 0.29667 0.7435 0.5331 0.0
C1305 C 0.32331 0.80207 0.53279 0.0
H1306 H 0.30854 0.80102 0.59363 0.0
C1307 C 0.35837 0.8708 0.59622 0.0
C1308 C 0.34496 0.87467 0.61431 0.0
C1309 C 0.35173 0.85356 0.58106 0.0
C1310 C 0.3126 0.80185 0.57663 0.0
H1311 H 0.27683 0.75622 0.47518 0.0
H1312 H 0.29621 0.78547 0.49815 0.0
H1313 H 0.29503 0.77026 0.56963 0.0
H1314 H 0.31307 0.86522 0.62955 0.0
H1315 H 0.30065 0.83652 0.60248 0.0
H1316 H 0.33959 0.83447 0.53971 0.0
C1317 C 0.29384 0.76911 0.50442 0.0
C1318 C 0.30525 0.78382 0.56285 0.0
C1319 C 0.28254 0.7523 0.49122 0.0
C1320 C 0.32396 0.86231 0.61599 0.0
C1321 C 0.31701 0.84561 0.60058 0.0
C1322 C 0.33029 0.82037 0.54655 0.0
C1323 C 0.30068 0.7651 0.52574 0.0
C1324 C 0.31027 0.7837 0.54066 0.0
C1325 C 0.33119 0.84033 0.58339 0.0
C1326 C 0.32472 0.82065 0.56862 0.0
H1327 H 0.28132 0.7106 0.52647 0.0
H1328 H 0.30221 0.73951 0.54915 0.0
H1329 H 0.32797 0.8025 0.51592 0.0
H1330 H 0.37458 0.88023 0.59446 0.0
H1331 H 0.36316 0.85007 0.5681 0.0
C1332 C 0.09498 0.63412 0.35521 0.0
C1333 C 0.10465 0.62887 0.33526 0.0
C1334 C 0.07647 0.64676 0.35611 0.0
C1335 C 0.02777 0.65431 0.32115 0.0
H1336 H 0.00807 0.68133 0.37468 0.0
C1337 C 0.94086 0.63224 0.35517 0.0
C1338 C 0.93164 0.64612 0.37067 0.0
C1339 C 0.96114 0.63898 0.34514 0.0
C1340 C 0.01314 0.67436 0.35929 0.0
H1341 H 0.10428 0.63496 0.3009 0.0
H1342 H 0.07202 0.65741 0.30249 0.0
H1343 H 0.04823 0.68007 0.36843 0.0
H1344 H 0.93616 0.67793 0.3879 0.0
H1345 H 0.97094 0.69032 0.36959 0.0
H1346 H 0.99264 0.64837 0.31212 0.0
C1347 C 0.07846 0.65133 0.31741 0.0
C1348 C 0.0363 0.67338 0.35584 0.0
C1349 C 0.09712 0.63867 0.31653 0.0
C1350 C 0.94245 0.66727 0.37532 0.0
C1351 C 0.96264 0.67416 0.36513 0.0
C1352 C 0.00459 0.65562 0.32444 0.0
C1353 C 0.06714 0.65448 0.33704 0.0
C1354 C 0.04384 0.66203 0.3374 0.0
C1355 C 0.97282 0.65971 0.35062 0.0
C1356 C 0.99692 0.66434 0.34418 0.0
H1357 H 0.10054 0.62696 0.36995 0.0
H1358 H 0.06828 0.64865 0.37155 0.0
H1359 H 0.03282 0.64555 0.30666 0.0
H1360 H 0.93312 0.61561 0.35182 0.0
H1361 H 0.9685 0.62714 0.33444 0.0
C1362 C 0.43328 0.47604 0.7487 0.0
C1363 C 0.4135 0.46466 0.75628 0.0
C1364 C 0.45448 0.4683 0.75239 0.0
C1365 C 0.48316 0.42203 0.77707 0.0
H1366 H 0.52643 0.47039 0.79722 0.0
C1367 C 0.53613 0.42552 0.85441 0.0
C1368 C 0.55824 0.43592 0.85527 0.0
C1369 C 0.52377 0.42337 0.83493 0.0
C1370 C 0.51491 0.45662 0.79111 0.0
H1371 H 0.40019 0.43562 0.77259 0.0
H1372 H 0.43709 0.42272 0.78018 0.0
H1373 H 0.49344 0.47806 0.77617 0.0
H1374 H 0.58541 0.45119 0.83646 0.0
H1375 H 0.56319 0.44837 0.80219 0.0
H1376 H 0.50383 0.401 0.79423 0.0
C1377 C 0.43643 0.43724 0.77072 0.0
C1378 C 0.49584 0.46098 0.77896 0.0
C1379 C 0.41517 0.44471 0.76654 0.0
C1380 C 0.56838 0.44303 0.83608 0.0
C1381 C 0.55571 0.44141 0.81657 0.0
C1382 C 0.50208 0.41774 0.7896 0.0
C1383 C 0.45648 0.44933 0.76434 0.0
C1384 C 0.47911 0.44389 0.77264 0.0
C1385 C 0.53305 0.43213 0.81603 0.0
C1386 C 0.51756 0.43516 0.79753 0.0
H1387 H 0.43243 0.4913 0.74041 0.0
H1388 H 0.46937 0.47774 0.74661 0.0
H1389 H 0.4711 0.40833 0.77193 0.0
H1390 H 0.52804 0.41987 0.86904 0.0
H1391 H 0.50629 0.41638 0.83507 0.0
C1392 C 0.01371 0.85336 0.71714 0.0
C1393 C 0.01046 0.86589 0.69889 0.0
C1394 C 0.00649 0.86038 0.73749 0.0
C1395 C 0.96063 0.88983 0.758 0.0
H1396 H 0.98503 0.87711 0.8144 0.0
C1397 C 0.92763 0.89507 0.85026 0.0
C1398 C 0.9061 0.88355 0.84658 0.0
C1399 C 0.94425 0.8946 0.83442 0.0
C1400 C 0.97815 0.8809 0.79876 0.0
H1401 H 0.99929 0.89672 0.6881 0.0
H1402 H 0.98677 0.909 0.72372 0.0
H1403 H 0.00935 0.87657 0.78254 0.0
H1404 H 0.88601 0.86087 0.82427 0.0
H1405 H 0.91498 0.86004 0.79687 0.0
H1406 H 0.92927 0.8933 0.77389 0.0
C1407 C 0.99451 0.89354 0.72215 0.0
C1408 C 0.99199 0.88058 0.78058 0.0
C1409 C 0.00168 0.8865 0.70177 0.0
C1410 C 0.90227 0.87011 0.82759 0.0
C1411 C 0.91879 0.86975 0.8118 0.0
C1412 C 0.94681 0.88987 0.77601 0.0
C1413 C 0.99592 0.88008 0.73999 0.0
C1414 C 0.98316 0.88449 0.75993 0.0
C1415 C 0.93955 0.88264 0.81471 0.0
C1416 C 0.95523 0.88478 0.79641 0.0
H1417 H 0.0206 0.83748 0.71553 0.0
H1418 H 0.00769 0.84957 0.75089 0.0
H1419 H 0.95321 0.89272 0.74232 0.0
H1420 H 0.93116 0.90563 0.86469 0.0
H1421 H 0.96019 0.90464 0.837 0.0
C1422 C 0.95652 0.3322 0.4446 0.0
C1423 C 0.96536 0.31864 0.4284 0.0
C1424 C 0.94299 0.32297 0.46085 0.0
C1425 C 0.91228 0.27032 0.47767 0.0
H1426 H 0.93057 0.29277 0.53562 0.0
C1427 C 0.88344 0.22189 0.55113 0.0
C1428 C 0.9006 0.21923 0.56646 0.0
C1429 C 0.88643 0.23815 0.53589 0.0
C1430 C 0.92526 0.28629 0.51956 0.0
H1431 H 0.9656 0.28487 0.41578 0.0
H1432 H 0.94246 0.2688 0.44417 0.0
H1433 H 0.9442 0.31272 0.50433 0.0
H1434 H 0.93379 0.23178 0.57886 0.0
H1435 H 0.93963 0.25975 0.55166 0.0
H1436 H 0.89473 0.24307 0.4927 0.0
C1437 C 0.94569 0.28659 0.44428 0.0
C1438 C 0.93282 0.2979 0.50158 0.0
C1439 C 0.95909 0.29582 0.42799 0.0
C1440 C 0.92038 0.23366 0.5671 0.0
C1441 C 0.92357 0.24975 0.55161 0.0
C1442 C 0.90491 0.25862 0.4956 0.0
C1443 C 0.93806 0.29998 0.46131 0.0
C1444 C 0.92698 0.28969 0.48037 0.0
C1445 C 0.90689 0.25175 0.5354 0.0
C1446 C 0.91184 0.2661 0.51676 0.0
H1447 H 0.96084 0.34988 0.4453 0.0
H1448 H 0.93702 0.3338 0.47345 0.0
H1449 H 0.90709 0.26372 0.46161 0.0
H1450 H 0.86791 0.21101 0.55063 0.0
H1451 H 0.87298 0.23958 0.52407 0.0
C1452 C 0.54159 0.25204 0.20289 0.0
C1453 C 0.55548 0.27115 0.1981 0.0
C1454 C 0.5437 0.24235 0.22298 0.0
C1455 C 0.56323 0.25723 0.279 0.0
H1456 H 0.57022 0.19506 0.28501 0.0
C1457 C 0.61388 0.22499 0.34782 0.0
C1458 C 0.60833 0.20383 0.35548 0.0
C1459 C 0.60091 0.23306 0.3314 0.0
C1460 C 0.56772 0.21237 0.28371 0.0
H1461 H 0.58316 0.29437 0.21032 0.0
H1462 H 0.58679 0.27754 0.24504 0.0
H1463 H 0.56102 0.20854 0.24939 0.0
H1464 H 0.5836 0.17531 0.3533 0.0
H1465 H 0.56096 0.18937 0.32414 0.0
H1466 H 0.57064 0.2613 0.31303 0.0
C1467 C 0.57403 0.27024 0.23347 0.0
C1468 C 0.56256 0.22009 0.26328 0.0
C1469 C 0.57207 0.27977 0.21345 0.0
C1470 C 0.58834 0.19166 0.34766 0.0
C1471 C 0.5755 0.19961 0.33085 0.0
C1472 C 0.56827 0.24954 0.29935 0.0
C1473 C 0.55956 0.25174 0.23868 0.0
C1474 C 0.5612 0.24275 0.2606 0.0
C1475 C 0.58213 0.22011 0.32206 0.0
C1476 C 0.57152 0.22719 0.30179 0.0
H1477 H 0.52861 0.24501 0.19142 0.0
H1478 H 0.53241 0.22802 0.22653 0.0
H1479 H 0.5617 0.27472 0.27751 0.0
H1480 H 0.62911 0.23481 0.35362 0.0
H1481 H 0.60663 0.24885 0.32498 0.0
C1482 C 0.59013 0.85306 0.94946 0.0
C1483 C 0.57612 0.83881 0.93549 0.0
C1484 C 0.59908 0.84538 0.96851 0.0
C1485 C 0.61591 0.82591 0.00942 0.0
H1486 H 0.5615 0.80315 0.03816 0.0
C1487 C 0.60758 0.84759 0.09787 0.0
C1488 C 0.59027 0.86192 0.09863 0.0
C1489 C 0.60809 0.83179 0.08075 0.0
C1490 C 0.57708 0.80893 0.03041 0.0
H1491 H 0.56295 0.80468 0.92915 0.0
H1492 H 0.57836 0.79138 0.96259 0.0
H1493 H 0.56284 0.80087 0.99877 0.0
H1494 H 0.55741 0.86773 0.08496 0.0
H1495 H 0.55812 0.8403 0.05559 0.0
H1496 H 0.62932 0.83587 0.04102 0.0
C1497 C 0.58228 0.80852 0.95886 0.0
C1498 C 0.57792 0.80755 0.00779 0.0
C1499 C 0.57354 0.81616 0.93965 0.0
C1500 C 0.57144 0.85745 0.08444 0.0
C1501 C 0.57177 0.84151 0.0676 0.0
C1502 C 0.61512 0.82716 0.03206 0.0
C1503 C 0.59404 0.82332 0.97406 0.0
C1504 C 0.59673 0.81745 0.99704 0.0
C1505 C 0.59095 0.82977 0.0646 0.0
C1506 C 0.59504 0.82016 0.04266 0.0
H1507 H 0.59263 0.87055 0.94662 0.0
H1508 H 0.60801 0.85728 0.97986 0.0
H1509 H 0.63077 0.83335 0.00159 0.0
H1510 H 0.62171 0.84996 0.10921 0.0
H1511 H 0.62269 0.82243 0.07909 0.0
C1512 C 0.96123 0.24111 0.83406 0.0
C1513 C 0.98197 0.24508 0.84555 0.0
C1514 C 0.96071 0.23332 0.81249 0.0
C1515 C 0.97101 0.24187 0.76566 0.0
H1516 H 0.99094 0.18905 0.73749 0.0
C1517 C 0.95038 0.22694 0.67719 0.0
C1518 C 0.93721 0.20679 0.67373 0.0
C1519 C 0.96519 0.23022 0.69517 0.0
C1520 C 0.98562 0.20404 0.74513 0.0
H1521 H 0.01811 0.24157 0.84417 0.0
H1522 H 0.01702 0.22762 0.8063 0.0
H1523 H 0.99631 0.19539 0.77695 0.0
H1524 H 0.92967 0.17413 0.68555 0.0
H1525 H 0.95567 0.17946 0.71646 0.0
H1526 H 0.95941 0.25032 0.73454 0.0
C1527 C 0.00129 0.23082 0.81407 0.0
C1528 C 0.98868 0.20761 0.76764 0.0
C1529 C 0.00185 0.23873 0.83575 0.0
C1530 C 0.94056 0.18937 0.68724 0.0
C1531 C 0.9553 0.1926 0.70519 0.0
C1532 C 0.96817 0.23846 0.74331 0.0
C1533 C 0.98086 0.2292 0.80201 0.0
C1534 C 0.98059 0.22618 0.77811 0.0
C1535 C 0.96657 0.21354 0.71018 0.0
C1536 C 0.97475 0.21917 0.73281 0.0
H1537 H 0.94557 0.24556 0.84119 0.0
H1538 H 0.94468 0.2318 0.80358 0.0
H1539 H 0.96497 0.25651 0.77336 0.0
H1540 H 0.94766 0.24075 0.66722 0.0
H1541 H 0.97392 0.24646 0.69841 0.0
C1542 C 0.54328 0.22193 0.58731 0.0
C1543 C 0.53504 0.24287 0.58869 0.0
C1544 C 0.55554 0.2155 0.56934 0.0
C1545 C 0.5596 0.22528 0.5116 0.0
H1546 H 0.60723 0.18568 0.51482 0.0
C1547 C 0.59111 0.17678 0.43594 0.0
C1548 C 0.59205 0.15424 0.43947 0.0
C1549 C 0.58811 0.19163 0.4535 0.0
C1550 C 0.59396 0.19677 0.51363 0.0
H1551 H 0.53436 0.27398 0.5728 0.0
H1552 H 0.55574 0.26265 0.54136 0.0
H1553 H 0.59579 0.20494 0.54772 0.0
H1554 H 0.5908 0.12945 0.46367 0.0
H1555 H 0.58623 0.15513 0.49412 0.0
H1556 H 0.55716 0.21634 0.47762 0.0
C1557 C 0.55255 0.25119 0.55415 0.0
C1558 C 0.58744 0.20781 0.53247 0.0
C1559 C 0.54045 0.25771 0.57225 0.0
C1560 C 0.59032 0.14681 0.46062 0.0
C1561 C 0.58785 0.16156 0.47806 0.0
C1562 C 0.56615 0.21421 0.49271 0.0
C1563 C 0.55974 0.22982 0.55225 0.0
C1564 C 0.56961 0.22154 0.53181 0.0
C1565 C 0.58664 0.18413 0.47479 0.0
C1566 C 0.58279 0.19918 0.49369 0.0
H1567 H 0.53945 0.21014 0.59969 0.0
H1568 H 0.56064 0.19885 0.56831 0.0
H1569 H 0.54571 0.23566 0.51056 0.0
H1570 H 0.59218 0.18278 0.41968 0.0
H1571 H 0.58723 0.20894 0.4505 0.0
C1572 C 0.51217 0.86019 0.35072 0.0
C1573 C 0.52417 0.84811 0.36533 0.0
C1574 C 0.5231 0.8697 0.33299 0.0
C1575 C 0.56798 0.85641 0.29729 0.0
H1576 H 0.56292 0.91322 0.27235 0.0
C1577 C 0.61998 0.88229 0.22379 0.0
C1578 C 0.6105 0.89507 0.20817 0.0
C1579 C 0.60877 0.87784 0.24301 0.0
C1580 C 0.5642 0.89716 0.27894 0.0
H1581 H 0.55758 0.83879 0.37411 0.0
H1582 H 0.57647 0.85532 0.34323 0.0
H1583 H 0.54547 0.90536 0.30727 0.0
H1584 H 0.58233 0.91384 0.20088 0.0
H1585 H 0.56181 0.90514 0.23399 0.0
H1586 H 0.58589 0.84769 0.26898 0.0
C1587 C 0.55857 0.85708 0.3453 0.0
C1588 C 0.55437 0.89277 0.299 0.0
C1589 C 0.54773 0.84773 0.36307 0.0
C1590 C 0.58948 0.90325 0.2122 0.0
C1591 C 0.57806 0.89866 0.23143 0.0
C1592 C 0.57749 0.86064 0.27722 0.0
C1593 C 0.54614 0.86722 0.32956 0.0
C1594 C 0.5565 0.87245 0.30848 0.0
C1595 C 0.58764 0.88593 0.24713 0.0
C1596 C 0.57607 0.88118 0.2679 0.0
H1597 H 0.49403 0.86094 0.35203 0.0
H1598 H 0.51315 0.87751 0.32112 0.0
H1599 H 0.56933 0.84037 0.30394 0.0
H1600 H 0.6363 0.8759 0.2213 0.0
H1601 H 0.61698 0.86842 0.25486 0.0
C1602 C 0.92055 0.7998 0.05744 0.0
C1603 C 0.941 0.79077 0.06231 0.0
C1604 C 0.91742 0.80941 0.03756 0.0
C1605 C 0.9129 0.82499 0.99147 0.0
H1606 H 0.96389 0.86747 0.98108 0.0
C1607 C 0.93054 0.91648 0.95606 0.0
C1608 C 0.91763 0.91453 0.93669 0.0
C1609 C 0.93419 0.89789 0.96762 0.0
C1610 C 0.9495 0.85568 0.98372 0.0
H1611 H 0.97341 0.78308 0.04938 0.0
H1612 H 0.96791 0.7999 0.01473 0.0
H1613 H 0.96776 0.83953 0.00758 0.0
H1614 H 0.89907 0.89131 0.91398 0.0
H1615 H 0.90528 0.85872 0.93422 0.0
H1616 H 0.89429 0.84199 0.96833 0.0
C1617 C 0.95444 0.79977 0.02641 0.0
C1618 C 0.95182 0.83946 0.9987 0.0
C1619 C 0.95754 0.7901 0.04625 0.0
C1620 C 0.90872 0.89346 0.92896 0.0
C1621 C 0.91236 0.87476 0.94057 0.0
C1622 C 0.91056 0.84127 0.97643 0.0
C1623 C 0.93469 0.81021 0.02216 0.0
C1624 C 0.9333 0.82443 0.00331 0.0
C1625 C 0.92516 0.87679 0.96004 0.0
C1626 C 0.92859 0.85732 0.97305 0.0
H1627 H 0.90739 0.80047 0.06937 0.0
H1628 H 0.9021 0.81748 0.03486 0.0
H1629 H 0.89852 0.8133 0.99442 0.0
H1630 H 0.93761 0.93249 0.96252 0.0
H1631 H 0.94373 0.90016 0.9828 0.0
C1632 C 0.7124 0.06758 0.83503 0.0
C1633 C 0.69553 0.07064 0.85037 0.0
C1634 C 0.73176 0.05739 0.84061 0.0
C1635 C 0.74604 0.01577 0.87821 0.0
H1636 H 0.80217 0.01909 0.84649 0.0
C1637 C 0.82758 0.96076 0.86347 0.0
C1638 C 0.81524 0.93994 0.86216 0.0
C1639 C 0.81625 0.98006 0.86457 0.0
C1640 C 0.78674 0.01807 0.85573 0.0
H1641 H 0.68713 0.06788 0.88428 0.0
H1642 H 0.72115 0.05045 0.89413 0.0
H1643 H 0.77826 0.0498 0.84612 0.0
H1644 H 0.78149 0.92294 0.85979 0.0
H1645 H 0.76184 0.95624 0.86139 0.0
H1646 H 0.75429 0.98412 0.88772 0.0
C1647 C 0.71908 0.05532 0.87759 0.0
C1648 C 0.77294 0.0356 0.85538 0.0
C1649 C 0.6996 0.0654 0.87197 0.0
C1650 C 0.79148 0.93875 0.86108 0.0
C1651 C 0.78021 0.95788 0.86225 0.0
C1652 C 0.7598 0.99836 0.87859 0.0
C1653 C 0.73482 0.05015 0.86171 0.0
C1654 C 0.75197 0.03427 0.86593 0.0
C1655 C 0.79238 0.97878 0.86448 0.0
C1656 C 0.77984 0.99887 0.86663 0.0
H1657 H 0.70996 0.07161 0.81827 0.0
H1658 H 0.74335 0.05364 0.82786 0.0
H1659 H 0.73005 0.01399 0.88651 0.0
H1660 H 0.84591 0.96216 0.86375 0.0
H1661 H 0.82615 0.99589 0.86619 0.0
C1662 C 0.80628 0.9865 0.5803 0.0
C1663 C 0.78829 0.97303 0.57028 0.0
C1664 C 0.8023 0.00639 0.59102 0.0
C1665 C 0.78973 0.04779 0.61503 0.0
H1666 H 0.76115 0.08169 0.57217 0.0
C1667 C 0.81464 0.13907 0.61378 0.0
C1668 C 0.82645 0.14198 0.5944 0.0
C1669 C 0.7984 0.12105 0.61548 0.0
C1670 C 0.76867 0.07246 0.58462 0.0
H1671 H 0.75176 0.96886 0.56532 0.0
H1672 H 0.74489 0.00388 0.5838 0.0
H1673 H 0.75602 0.04147 0.56949 0.0
H1674 H 0.82778 0.13111 0.56065 0.0
H1675 H 0.79901 0.10044 0.56327 0.0
H1676 H 0.80415 0.07868 0.62891 0.0
C1677 C 0.76204 0.99899 0.58337 0.0
C1678 C 0.76567 0.04939 0.58316 0.0
C1679 C 0.76599 0.97888 0.5729 0.0
C1680 C 0.81908 0.12905 0.57585 0.0
C1681 C 0.80252 0.11145 0.57739 0.0
C1682 C 0.79263 0.07084 0.61655 0.0
C1683 C 0.78028 0.01337 0.59172 0.0
C1684 C 0.77733 0.03685 0.59757 0.0
C1685 C 0.79331 0.10626 0.59759 0.0
C1686 C 0.78329 0.08336 0.60056 0.0
H1687 H 0.82362 0.9824 0.57862 0.0
H1688 H 0.81677 0.01714 0.59713 0.0
H1689 H 0.7987 0.03855 0.62651 0.0
H1690 H 0.81979 0.14905 0.62824 0.0
H1691 H 0.79132 0.1176 0.63118 0.0
C1692 C 0.80102 0.01174 0.333 0.0
C1693 C 0.82029 0.02554 0.32768 0.0
C1694 C 0.78461 0.01967 0.34662 0.0
C1695 C 0.77095 0.06993 0.37974 0.0
H1696 H 0.71226 0.05782 0.35091 0.0
C1697 C 0.69289 0.1214 0.3525 0.0
C1698 C 0.69251 0.13597 0.37056 0.0
C1699 C 0.70509 0.1028 0.35346 0.0
C1700 C 0.72854 0.06148 0.35912 0.0
H1701 H 0.83867 0.05757 0.33451 0.0
H1702 H 0.81013 0.07152 0.35751 0.0
H1703 H 0.74208 0.034 0.34309 0.0
H1704 H 0.70348 0.14259 0.40395 0.0
H1705 H 0.7245 0.11 0.4059 0.0
H1706 H 0.75824 0.09865 0.39405 0.0
C1707 C 0.80751 0.05452 0.35149 0.0
C1708 C 0.74561 0.0475 0.35497 0.0
C1709 C 0.82394 0.04654 0.33806 0.0
C1710 C 0.70366 0.13142 0.38983 0.0
C1711 C 0.71582 0.11284 0.39084 0.0
C1712 C 0.75405 0.08415 0.38355 0.0
C1713 C 0.78709 0.0416 0.35507 0.0
C1714 C 0.76744 0.05227 0.3643 0.0
C1715 C 0.71716 0.09851 0.37252 0.0
C1716 C 0.73301 0.08076 0.37239 0.0
H1717 H 0.79783 0.99532 0.32553 0.0
H1718 H 0.7694 0.00905 0.34949 0.0
H1719 H 0.7873 0.0737 0.38779 0.0
H1720 H 0.68452 0.12486 0.33744 0.0
H1721 H 0.70603 0.09252 0.33883 0.0
C1722 C 0.73273 0.10468 0.02617 0.0
C1723 C 0.71858 0.12181 0.02988 0.0
C1724 C 0.72724 0.08384 0.03425 0.0
C1725 C 0.69819 0.0396 0.03763 0.0
H1726 H 0.68391 0.02906 0.09764 0.0
C1727 C 0.63922 0.96727 0.06811 0.0
C1728 C 0.64634 0.9566 0.08647 0.0
C1729 C 0.65257 0.98515 0.06024 0.0
C1730 C 0.68814 0.03175 0.08088 0.0
H1731 H 0.68816 0.13076 0.04584 0.0
H1732 H 0.67894 0.09429 0.06061 0.0
H1733 H 0.69794 0.06625 0.08731 0.0
H1734 H 0.67382 0.95492 0.10965 0.0
H1735 H 0.69683 0.98702 0.09649 0.0
H1736 H 0.6872 0.00541 0.03098 0.0
C1737 C 0.69415 0.09711 0.05121 0.0
C1738 C 0.69595 0.053 0.07498 0.0
C1739 C 0.69938 0.11791 0.04274 0.0
C1740 C 0.66788 0.96305 0.09569 0.0
C1741 C 0.68097 0.98138 0.08821 0.0
C1742 C 0.68991 0.01849 0.04344 0.0
C1743 C 0.70776 0.07978 0.04659 0.0
C1744 C 0.70084 0.05713 0.05327 0.0
C1745 C 0.67305 0.99297 0.07082 0.0
C1746 C 0.68461 0.01443 0.06507 0.0
H1747 H 0.74759 0.10705 0.01623 0.0
H1748 H 0.73803 0.07076 0.03053 0.0
H1749 H 0.70175 0.04243 0.02076 0.0
H1750 H 0.62275 0.96259 0.06056 0.0
H1751 H 0.6461 0.99382 0.0468 0.0
C1752 C 0.69458 0.08882 0.74088 0.0
C1753 C 0.69255 0.07113 0.75485 0.0
C1754 C 0.71389 0.09248 0.72827 0.0
C1755 C 0.75409 0.09134 0.69742 0.0
H1756 H 0.8096 0.09542 0.73224 0.0
C1757 C 0.83964 0.12717 0.66433 0.0
C1758 C 0.84719 0.14642 0.67666 0.0
C1759 C 0.82329 0.11182 0.67262 0.0
C1760 C 0.79431 0.09396 0.72221 0.0
H1761 H 0.70876 0.04276 0.76569 0.0
H1762 H 0.74248 0.04939 0.74394 0.0
H1763 H 0.77405 0.08033 0.74762 0.0
H1764 H 0.84581 0.16335 0.70815 0.0
H1765 H 0.81808 0.1363 0.72276 0.0
H1766 H 0.77431 0.10583 0.67231 0.0
C1767 C 0.72915 0.0604 0.74276 0.0
C1768 C 0.77397 0.08529 0.73096 0.0
C1769 C 0.70976 0.0566 0.75516 0.0
C1770 C 0.84008 0.1488 0.69817 0.0
C1771 C 0.82424 0.13327 0.70658 0.0
C1772 C 0.77453 0.09971 0.68854 0.0
C1773 C 0.73165 0.07865 0.72956 0.0
C1774 C 0.75353 0.08456 0.71891 0.0
C1775 C 0.81492 0.11517 0.69356 0.0
C1776 C 0.79467 0.10178 0.70113 0.0
H1777 H 0.68161 0.10029 0.74023 0.0
H1778 H 0.71544 0.1068 0.71836 0.0
H1779 H 0.73861 0.09082 0.68774 0.0
H1780 H 0.84506 0.12477 0.6478 0.0
H1781 H 0.81652 0.09783 0.66241 0.0
C1782 C 0.74695 0.95599 0.46246 0.0
C1783 C 0.77063 0.95849 0.46553 0.0
C1784 C 0.73611 0.97038 0.44962 0.0
C1785 C 0.71571 -0.00025 0.41805 0.0
H1786 H 0.73855 0.06108 0.42788 0.0
C1787 C 0.66328 0.06946 0.39161 0.0
C1788 C 0.66267 0.08741 0.40648 0.0
C1789 C 0.67928 0.05418 0.3941 0.0
C1790 C 0.73189 0.04404 0.42504 0.0
H1791 H 0.80165 0.97692 0.4559 0.0
H1792 H 0.78273 0.00168 0.43297 0.0
H1793 H 0.76104 0.03214 0.43987 0.0
H1794 H 0.67819 0.10395 0.43535 0.0
H1795 H 0.70557 0.07665 0.4405 0.0
H1796 H 0.68586 0.01161 0.40469 0.0
C1797 C 0.77249 0.98898 0.44105 0.0
C1798 C 0.74498 0.02737 0.43159 0.0
C1799 C 0.78335 0.97465 0.45406 0.0
C1800 C 0.67842 0.09012 0.42375 0.0
C1801 C 0.6942 0.0746 0.42651 0.0
C1802 C 0.70253 0.01639 0.41174 0.0
C1803 C 0.74866 0.98754 0.43931 0.0
C1804 C 0.73672 0.005 0.42883 0.0
C1805 C 0.69471 0.0563 0.4118 0.0
C1806 C 0.71013 0.03877 0.41576 0.0
H1807 H 0.73659 0.94373 0.471 0.0
H1808 H 0.71775 0.96881 0.44892 0.0
H1809 H 0.70901 0.98272 0.41519 0.0
H1810 H 0.6514 0.0673 0.37798 0.0
H1811 H 0.67944 0.04062 0.3822 0.0
C1812 C 0.81047 0.02862 0.20347 0.0
C1813 C 0.81735 0.04029 0.22285 0.0
C1814 C 0.7915 0.03414 0.19186 0.0
C1815 C 0.75061 0.0511 0.16908 0.0
H1816 H 0.70344 0.0318 0.20864 0.0
C1817 C 0.66093 0.99231 0.17355 0.0
C1818 C 0.66933 0.97547 0.16065 0.0
C1819 C 0.67384 0.01276 0.17672 0.0
C1820 C 0.71595 0.03808 0.19731 0.0
H1821 H 0.81089 0.06776 0.24463 0.0
H1822 H 0.77689 0.07675 0.22478 0.0
H1823 H 0.74023 0.04686 0.22294 0.0
H1824 H 0.69652 0.96713 0.13968 0.0
H1825 H 0.71824 0.00225 0.14434 0.0
H1826 H 0.72678 0.04102 0.14339 0.0
C1827 C 0.78659 0.0638 0.21828 0.0
C1828 C 0.73718 0.04667 0.20557 0.0
C1829 C 0.80603 0.05867 0.22957 0.0
C1830 C 0.68945 0.97997 0.14939 0.0
C1831 C 0.70194 0.00031 0.15209 0.0
C1832 C 0.72922 0.04298 0.16082 0.0
C1833 C 0.7787 0.05102 0.19978 0.0
C1834 C 0.75516 0.05152 0.19148 0.0
C1835 C 0.69504 0.01658 0.16674 0.0
C1836 C 0.71238 0.0344 0.17482 0.0
H1837 H 0.81887 0.01432 0.19806 0.0
H1838 H 0.78562 0.02382 0.17781 0.0
H1839 H 0.76416 0.05502 0.1579 0.0
H1840 H 0.64549 0.98909 0.18252 0.0
H1841 H 0.66799 0.02499 0.18804 0.0
C1842 C 0.7392 0.12175 0.91919 0.0
C1843 C 0.73365 0.12614 0.94088 0.0
C1844 C 0.74666 0.10134 0.91278 0.0
C1845 C 0.75659 0.04535 0.93278 0.0
H1846 H 0.8102 0.05341 0.89783 0.0
C1847 C 0.8485 0.00856 0.9203 0.0
C1848 C 0.84262 0.98573 0.91763 0.0
C1849 C 0.83178 0.02323 0.92138 0.0
C1850 C 0.79534 0.05091 0.90774 0.0
H1851 H 0.73007 0.11204 0.97252 0.0
H1852 H 0.74397 0.07715 0.9617 0.0
H1853 H 0.78545 0.08286 0.90146 0.0
H1854 H 0.81445 0.96032 0.91553 0.0
H1855 H 0.78509 0.98612 0.91784 0.0
H1856 H 0.76754 0.0138 0.94007 0.0
C1857 C 0.74213 0.08906 0.94939 0.0
C1858 C 0.78083 0.06768 0.9095 0.0
C1859 C 0.73434 0.10927 0.95569 0.0
C1860 C 0.81954 0.97784 0.91744 0.0
C1861 C 0.80272 0.99261 0.91872 0.0
C1862 C 0.77129 0.0286 0.93118 0.0
C1863 C 0.74913 0.08508 0.92803 0.0
C1864 C 0.76171 0.06549 0.9227 0.0
C1865 C 0.8087 0.01551 0.9199 0.0
C1866 C 0.79129 0.03161 0.91932 0.0
H1867 H 0.73846 0.1343 0.90732 0.0
H1868 H 0.75132 0.09863 0.89605 0.0
H1869 H 0.74168 0.04285 0.94262 0.0
H1870 H 0.86608 0.01526 0.92069 0.0
H1871 H 0.83699 0.04073 0.92309 0.0
C1872 C 0.80018 0.74596 0.03918 0.0
C1873 C 0.81475 0.73057 0.03129 0.0
C1874 C 0.80472 0.76841 0.03557 0.0
C1875 C 0.80656 0.80725 0.0068 0.0
H1876 H 0.86618 0.83642 0.99731 0.0
C1877 C 0.82428 0.85817 0.93379 0.0
C1878 C 0.84126 0.87583 0.93404 0.0
C1879 C 0.82029 0.84596 0.9521 0.0
C1880 C 0.84941 0.82869 0.00011 0.0
H1881 H 0.84651 0.72691 0.01508 0.0
H1882 H 0.85415 0.76588 0.00829 0.0
H1883 H 0.86239 0.80415 0.01962 0.0
H1884 H 0.86672 0.89512 0.95424 0.0
H1885 H 0.85987 0.87341 0.98642 0.0
H1886 H 0.79364 0.83126 0.98678 0.0
C1887 C 0.83933 0.76075 0.01751 0.0
C1888 C 0.84723 0.81013 0.0128 0.0
C1889 C 0.83487 0.73831 0.02124 0.0
C1890 C 0.85362 0.88151 0.95344 0.0
C1891 C 0.84971 0.86908 0.97187 0.0
C1892 C 0.80877 0.82575 0.99415 0.0
C1893 C 0.82384 0.77594 0.02385 0.0
C1894 C 0.82588 0.79853 0.01535 0.0
C1895 C 0.83312 0.851 0.9713 0.0
C1896 C 0.83034 0.83584 0.98955 0.0
H1897 H 0.78468 0.74058 0.04728 0.0
H1898 H 0.79268 0.77972 0.04107 0.0
H1899 H 0.78981 0.79885 0.0084 0.0
H1900 H 0.81428 0.85337 0.91923 0.0
H1901 H 0.80772 0.83189 0.95083 0.0
C1902 C 0.30757 0.84627 0.98113 0.0
C1903 C 0.30415 0.86549 0.99368 0.0
C1904 C 0.3219 0.83105 0.9887 0.0
C1905 C 0.36471 0.82159 0.03118 0.0
H1906 H 0.32805 0.76641 0.03824 0.0
C1907 C 0.36668 0.77566 0.10854 0.0
C1908 C 0.36286 0.7526 0.10871 0.0
C1909 C 0.36609 0.78651 0.08917 0.0
C1910 C 0.3389 0.78138 0.03597 0.0
H1911 H 0.31483 0.88486 0.0229 0.0
H1912 H 0.34006 0.85855 0.03592 0.0
H1913 H 0.31613 0.79232 0.01227 0.0
H1914 H 0.35564 0.72268 0.08872 0.0
H1915 H 0.3543 0.74181 0.05443 0.0
H1916 H 0.3868 0.81121 0.05575 0.0
C1917 C 0.33157 0.85512 0.02031 0.0
C1918 C 0.33205 0.79628 0.02106 0.0
C1919 C 0.31699 0.87016 0.01292 0.0
C1920 C 0.35875 0.74047 0.08899 0.0
C1921 C 0.35789 0.75142 0.06943 0.0
C1922 C 0.37163 0.80665 0.04598 0.0
C1923 C 0.3334 0.83497 0.00876 0.0
C1924 C 0.34421 0.81705 0.01943 0.0
C1925 C 0.36144 0.77462 0.06938 0.0
C1926 C 0.35805 0.78698 0.04947 0.0
H1927 H 0.29794 0.84217 0.96621 0.0
H1928 H 0.32311 0.81572 0.97942 0.0
H1929 H 0.37463 0.83731 0.02994 0.0
H1930 H 0.36998 0.78544 0.1235 0.0
H1931 H 0.36841 0.80437 0.08988 0.0
C1932 C 0.94578 0.60231 0.74215 0.0
C1933 C 0.93487 0.60052 0.76216 0.0
C1934 C 0.96772 0.61285 0.74115 0.0
C1935 C 0.01391 0.645 0.77406 0.0
H1936 H 0.0507 0.59945 0.75266 0.0
C1937 C 0.10094 0.63959 0.81171 0.0
C1938 C 0.09992 0.61946 0.82217 0.0
C1939 C 0.08605 0.64231 0.79433 0.0
C1940 C 0.04081 0.61263 0.75829 0.0
H1941 H 0.93717 0.61067 0.79624 0.0
H1942 H 0.97512 0.62918 0.79451 0.0
H1943 H 0.01094 0.59814 0.74154 0.0
H1944 H 0.08529 0.58556 0.82073 0.0
H1945 H 0.06004 0.58996 0.7902 0.0
H1946 H 0.04322 0.65825 0.79243 0.0
C1947 C 0.96697 0.62239 0.77957 0.0
C1948 C 0.01802 0.61198 0.75182 0.0
C1949 C 0.94521 0.61164 0.78062 0.0
C1950 C 0.08626 0.6013 0.81306 0.0
C1951 C 0.07182 0.60385 0.79547 0.0
C1952 C 0.03673 0.64568 0.78048 0.0
C1953 C 0.97895 0.62206 0.76008 0.0
C1954 C 0.00397 0.62733 0.76078 0.0
C1955 C 0.07047 0.62473 0.78683 0.0
C1956 C 0.04998 0.62865 0.77381 0.0
H1957 H 0.93824 0.59393 0.72761 0.0
H1958 H 0.97645 0.61253 0.72587 0.0
H1959 H 0.0036 0.65726 0.78095 0.0
H1960 H 0.11149 0.65381 0.81832 0.0
H1961 H 0.08557 0.65852 0.78783 0.0
C1962 C 0.22477 0.24015 0.53166 0.0
C1963 C 0.22602 0.22154 0.54428 0.0
C1964 C 0.21531 0.25887 0.53995 0.0
C1965 C 0.17781 0.27996 0.5808 0.0
H1966 H 0.21797 0.33386 0.58033 0.0
C1967 C 0.16532 0.35472 0.63751 0.0
C1968 C 0.17216 0.37607 0.63117 0.0
C1969 C 0.16913 0.33638 0.62425 0.0
C1970 C 0.20626 0.31916 0.5802 0.0
H1971 H 0.21723 0.20761 0.57511 0.0
H1972 H 0.20014 0.24034 0.58946 0.0
H1973 H 0.22897 0.30032 0.56209 0.0
H1974 H 0.18834 0.39537 0.6062 0.0
H1975 H 0.19452 0.3632 0.58236 0.0
H1976 H 0.1549 0.29873 0.59861 0.0
C1977 C 0.20671 0.24036 0.57318 0.0
C1978 C 0.21266 0.29988 0.56985 0.0
C1979 C 0.21653 0.22167 0.565 0.0
C1980 C 0.18259 0.37898 0.61115 0.0
C1981 C 0.18639 0.36053 0.59773 0.0
C1982 C 0.1712 0.29933 0.59084 0.0
C1983 C 0.20655 0.25931 0.56091 0.0
C1984 C 0.19872 0.28 0.57044 0.0
C1985 C 0.17996 0.33895 0.60427 0.0
C1986 C 0.1856 0.31908 0.59117 0.0
H1987 H 0.2319 0.24067 0.51562 0.0
H1988 H 0.21522 0.27319 0.5301 0.0
H1989 H 0.16661 0.26491 0.58121 0.0
H1990 H 0.15772 0.35218 0.65317 0.0
H1991 H 0.1644 0.32015 0.63017 0.0
C1992 C 0.05198 0.95894 0.73754 0.0
C1993 C 0.05946 0.98135 0.73569 0.0
C1994 C 0.02975 0.9527 0.74379 0.0
C1995 C 0.97412 0.9759 0.7562 0.0
H1996 H 0.97167 0.93306 0.80103 0.0
C1997 C 0.9279 0.979 0.83756 0.0
C1998 C 0.91282 0.96073 0.84212 0.0
C1999 C 0.94035 0.97899 0.81853 0.0
C2000 C 0.97193 0.94469 0.78819 0.0
H2001 H 0.04899 0.01465 0.7377 0.0
H2002 H 0.01106 0.00406 0.74933 0.0
H2003 H 0.00439 0.93648 0.77765 0.0
H2004 H 0.89812 0.9286 0.82986 0.0
H2005 H 0.92081 0.92825 0.79704 0.0
H2006 H 0.94247 0.98535 0.76842 0.0
C2007 C 0.02188 0.99106 0.7455 0.0
C2008 C 0.99066 0.94667 0.77469 0.0
C2009 C 0.04389 0.99722 0.73901 0.0
C2010 C 0.90953 0.94297 0.82673 0.0
C2011 C 0.92251 0.94268 0.808 0.0
C2012 C 0.95562 0.97418 0.77 0.0
C2013 C 0.01462 0.96878 0.74856 0.0
C2014 C 0.9925 0.96301 0.75915 0.0
C2015 C 0.93831 0.96052 0.80404 0.0
C2016 C 0.95479 0.95905 0.78651 0.0
H2017 H 0.0635 0.94627 0.73486 0.0
H2018 H 0.02467 0.93534 0.74553 0.0
H2019 H 0.97453 0.98817 0.74398 0.0
H2020 H 0.93079 0.99288 0.84913 0.0
H2021 H 0.95261 0.99285 0.8158 0.0
C2022 C 0.68815 0.34618 0.48867 0.0
C2023 C 0.70147 0.35604 0.50607 0.0
C2024 C 0.6764 0.32546 0.49055 0.0
C2025 C 0.65133 0.28099 0.49856 0.0
H2026 H 0.69865 0.24306 0.51151 0.0
C2027 C 0.64774 0.19414 0.46013 0.0
C2028 C 0.66549 0.19482 0.44531 0.0
C2029 C 0.6484 0.20943 0.4778 0.0
C2030 C 0.68497 0.25329 0.50841 0.0
H2031 H 0.71122 0.35289 0.53975 0.0
H2032 H 0.69103 0.31634 0.54285 0.0
H2033 H 0.70326 0.28187 0.5235 0.0
H2034 H 0.69961 0.20913 0.4395 0.0
H2035 H 0.70122 0.23493 0.47058 0.0
H2036 H 0.63396 0.25276 0.48183 0.0
C2037 C 0.68962 0.32474 0.52782 0.0
C2038 C 0.68755 0.27553 0.51533 0.0
C2039 C 0.70109 0.3457 0.52605 0.0
C2040 C 0.68537 0.20857 0.45034 0.0
C2041 C 0.68635 0.2233 0.46828 0.0
C2042 C 0.64864 0.25867 0.49183 0.0
C2043 C 0.67799 0.31402 0.50977 0.0
C2044 C 0.67144 0.28989 0.50923 0.0
C2045 C 0.66735 0.22483 0.4814 0.0
C2046 C 0.66616 0.24501 0.49545 0.0
H2047 H 0.68804 0.35382 0.47312 0.0
H2048 H 0.66775 0.3176 0.47628 0.0
H2049 H 0.63854 0.29165 0.49384 0.0
H2050 H 0.63272 0.18304 0.45709 0.0
H2051 H 0.63365 0.21014 0.48784 0.0
C2052 C 0.93576 0.48484 0.76219 0.0
C2053 C 0.92048 0.4934 0.74773 0.0
C2054 C 0.95263 0.47201 0.75444 0.0
C2055 C 0.97242 0.44273 0.70493 0.0
H2056 H 0.03237 0.46356 0.72755 0.0
C2057 C 0.06651 0.45631 0.66916 0.0
C2058 C 0.06611 0.43713 0.65582 0.0
C2059 C 0.05039 0.45803 0.68533 0.0
C2060 C 0.01576 0.45748 0.7211 0.0
H2061 H 0.90984 0.49363 0.71395 0.0
H2062 H 0.93918 0.47152 0.70047 0.0
H2063 H 0.99892 0.47527 0.7457 0.0
H2064 H 0.04976 0.40428 0.64931 0.0
H2065 H 0.02208 0.40685 0.67804 0.0
H2066 H 0.98911 0.42625 0.67948 0.0
C2067 C 0.93818 0.47458 0.71782 0.0
C2068 C 0.99654 0.46397 0.73166 0.0
C2069 C 0.92135 0.4874 0.72555 0.0
C2070 C 0.05044 0.41915 0.65967 0.0
C2071 C 0.03445 0.42076 0.67592 0.0
C2072 C 0.9916 0.43634 0.69433 0.0
C2073 C 0.95452 0.4674 0.73207 0.0
C2074 C 0.97464 0.45726 0.72327 0.0
C2075 C 0.03355 0.44059 0.6883 0.0
C2076 C 0.01353 0.4442 0.70188 0.0
H2077 H 0.93551 0.48901 0.77941 0.0
H2078 H 0.96469 0.46639 0.76588 0.0
H2079 H 0.95582 0.43698 0.69824 0.0
H2080 H 0.0782 0.47051 0.66605 0.0
H2081 H 0.0501 0.47364 0.69434 0.0
C2082 C 0.56125 0.59244 0.2376 0.0
C2083 C 0.58092 0.5927 0.22507 0.0
C2084 C 0.54362 0.60515 0.23214 0.0
C2085 C 0.52789 0.65107 0.19915 0.0
H2086 H 0.47053 0.61553 0.19048 0.0
C2087 C 0.46283 0.66849 0.1345 0.0
C2088 C 0.43972 0.66234 0.13712 0.0
C2089 C 0.47859 0.66476 0.15065 0.0
C2090 C 0.48617 0.62597 0.19331 0.0
H2091 H 0.59808 0.60763 0.19785 0.0
H2092 H 0.56736 0.62998 0.18843 0.0
H2093 H 0.50178 0.60043 0.20915 0.0
H2094 H 0.41454 0.64803 0.15864 0.0
H2095 H 0.44224 0.64134 0.18723 0.0
H2096 H 0.51244 0.67645 0.18287 0.0
C2097 C 0.56559 0.6199 0.20247 0.0
C2098 C 0.50415 0.61725 0.20396 0.0
C2099 C 0.58315 0.60701 0.20779 0.0
C2100 C 0.43234 0.65309 0.15648 0.0
C2101 C 0.44822 0.64911 0.17267 0.0
C2102 C 0.50982 0.65991 0.18871 0.0
C2103 C 0.54537 0.6186 0.21419 0.0
C2104 C 0.52544 0.6294 0.2063 0.0
C2105 C 0.47161 0.65446 0.16971 0.0
C2106 C 0.48901 0.64713 0.18488 0.0
H2107 H 0.55896 0.58165 0.25106 0.0
H2108 H 0.52832 0.60397 0.24158 0.0
H2109 H 0.54401 0.66094 0.20105 0.0
H2110 H 0.46883 0.67538 0.11951 0.0
H2111 H 0.4964 0.66872 0.14752 0.0
C2112 C 0.55325 0.80816 0.81616 0.0
C2113 C 0.53739 0.80181 0.83192 0.0
C2114 C 0.55344 0.79651 0.7963 0.0
C2115 C 0.54091 0.74281 0.76978 0.0
H2116 H 0.55187 0.77627 0.71824 0.0
C2117 C 0.57482 0.70342 0.69135 0.0
C2118 C 0.59577 0.71469 0.6865 0.0
C2119 C 0.55999 0.71327 0.70549 0.0
C2120 C 0.54849 0.76664 0.73239 0.0
H2121 H 0.50939 0.77802 0.83924 0.0
H2122 H 0.51016 0.7571 0.80432 0.0
H2123 H 0.54024 0.79485 0.75148 0.0
H2124 H 0.61676 0.74559 0.69087 0.0
H2125 H 0.59076 0.76297 0.71478 0.0
H2126 H 0.55059 0.71487 0.75099 0.0
C2127 C 0.52223 0.77135 0.80748 0.0
C2128 C 0.5419 0.77726 0.75141 0.0
C2129 C 0.52183 0.78328 0.82741 0.0
C2130 C 0.60075 0.73653 0.69443 0.0
C2131 C 0.58578 0.74651 0.70805 0.0
C2132 C 0.54753 0.73214 0.75068 0.0
C2133 C 0.53791 0.77807 0.79165 0.0
C2134 C 0.53917 0.7657 0.77057 0.0
C2135 C 0.56564 0.73474 0.71437 0.0
C2136 C 0.55248 0.74423 0.73214 0.0
H2137 H 0.56545 0.82237 0.81901 0.0
H2138 H 0.56603 0.80181 0.78461 0.0
H2139 H 0.53892 0.73352 0.78432 0.0
H2140 H 0.5706 0.68655 0.68538 0.0
H2141 H 0.54454 0.70387 0.71008 0.0
C2142 C 0.57723 0.31176 0.08755 0.0
C2143 C 0.57209 0.33061 0.09976 0.0
C2144 C 0.58806 0.31394 0.06764 0.0
C2145 C 0.61617 0.35525 0.0313 0.0
H2146 H 0.57865 0.32322 0.98629 0.0
C2147 C 0.6192 0.38412 0.94449 0.0
C2148 C 0.59791 0.38584 0.9348 0.0
C2149 C 0.62132 0.37151 0.96266 0.0
C2150 C 0.58937 0.33223 0.99864 0.0
H2151 H 0.57643 0.36633 0.10207 0.0
H2152 H 0.59544 0.37019 0.06776 0.0
H2153 H 0.57526 0.31243 0.02377 0.0
H2154 H 0.562 0.3761 0.93641 0.0
H2155 H 0.56543 0.35419 0.96846 0.0
H2156 H 0.62892 0.37621 0.00664 0.0
C2157 C 0.59112 0.3537 0.07325 0.0
C2158 C 0.58769 0.32584 0.02011 0.0
C2159 C 0.58013 0.35153 0.09294 0.0
C2160 C 0.57868 0.37448 0.94333 0.0
C2161 C 0.58073 0.36186 0.9616 0.0
C2162 C 0.61775 0.36172 0.00991 0.0
C2163 C 0.59418 0.33499 0.05984 0.0
C2164 C 0.60034 0.33793 0.03682 0.0
C2165 C 0.60205 0.3607 0.97184 0.0
C2166 C 0.60366 0.35088 0.99345 0.0
H2167 H 0.57113 0.29542 0.09239 0.0
H2168 H 0.59046 0.29922 0.05779 0.0
H2169 H 0.6264 0.36469 0.04374 0.0
H2170 H 0.63407 0.3936 0.93874 0.0
H2171 H 0.63799 0.37091 0.96998 0.0
C2172 C 0.00501 0.39277 0.33416 0.0
C2173 C 0.01552 0.37312 0.33574 0.0
C2174 C 0.99875 0.40001 0.31393 0.0
C2175 C 0.98496 0.37696 0.25823 0.0
H2176 H 0.97024 0.43698 0.25078 0.0
C2177 C 0.92501 0.39977 0.18933 0.0
C2178 C 0.90567 0.40735 0.19895 0.0
C2179 C 0.94506 0.39924 0.20169 0.0
C2180 C 0.97478 0.42026 0.25233 0.0
H2181 H 0.02947 0.34658 0.31733 0.0
H2182 H 0.01966 0.35978 0.28196 0.0
H2183 H 0.99543 0.42918 0.28054 0.0
H2184 H 0.89228 0.42169 0.2282 0.0
H2185 H 0.92726 0.42149 0.24943 0.0
H2186 H 0.96407 0.36822 0.22998 0.0
C2187 C 0.01531 0.36918 0.29632 0.0
C2188 C 0.98889 0.41566 0.26962 0.0
C2189 C 0.02111 0.36167 0.31662 0.0
C2190 C 0.90699 0.41567 0.22049 0.0
C2191 C 0.92705 0.41573 0.23257 0.0
C2192 C 0.9714 0.38171 0.24058 0.0
C2193 C 0.00326 0.38802 0.29469 0.0
C2194 C 0.99314 0.39375 0.27354 0.0
C2195 C 0.94606 0.40692 0.22354 0.0
C2196 C 0.96535 0.40323 0.23807 0.0
H2197 H 0.00038 0.40192 0.34861 0.0
H2198 H 0.98919 0.41435 0.3136 0.0
H2199 H 0.98753 0.35985 0.26063 0.0
H2200 H 0.92427 0.39319 0.17274 0.0
H2201 H 0.95952 0.39229 0.19444 0.0
C2202 C 0.95413 0.80179 0.59264 0.0
C2203 C 0.97108 0.79348 0.60536 0.0
C2204 C 0.94297 0.78867 0.5759 0.0
C2205 C 0.93576 0.73089 0.55177 0.0
H2206 H 0.92541 0.76067 0.49866 0.0
C2207 C 0.90114 0.68219 0.47482 0.0
C2208 C 0.90944 0.68887 0.45475 0.0
C2209 C 0.90597 0.6954 0.4936 0.0
C2210 C 0.92844 0.75205 0.51328 0.0
H2211 H 0.98878 0.7645 0.61117 0.0
H2212 H 0.97005 0.742 0.58178 0.0
H2213 H 0.9381 0.78221 0.53132 0.0
H2214 H 0.92928 0.71449 0.43839 0.0
H2215 H 0.93888 0.73723 0.47146 0.0
H2216 H 0.92769 0.70068 0.53346 0.0
C2217 C 0.96484 0.75842 0.58486 0.0
C2218 C 0.9353 0.76446 0.5322 0.0
C2219 C 0.97572 0.77141 0.60178 0.0
C2220 C 0.92274 0.70902 0.45374 0.0
C2221 C 0.92802 0.72209 0.47267 0.0
C2222 C 0.92931 0.71849 0.5328 0.0
C2223 C 0.94874 0.76704 0.5713 0.0
C2224 C 0.93934 0.75402 0.55167 0.0
C2225 C 0.9197 0.71542 0.49287 0.0
C2226 C 0.92575 0.72886 0.51323 0.0
H2227 H 0.95004 0.8187 0.59509 0.0
H2228 H 0.93025 0.79572 0.5662 0.0
H2229 H 0.93824 0.72222 0.56647 0.0
H2230 H 0.89047 0.66689 0.47594 0.0
H2231 H 0.89875 0.68992 0.50866 0.0
C2232 C 0.50966 0.33376 0.67199 0.0
C2233 C 0.48629 0.32726 0.67116 0.0
C2234 C 0.51946 0.34573 0.69008 0.0
C2235 C 0.51161 0.35172 0.74816 0.0
H2236 H 0.5622 0.39638 0.74498 0.0
C2237 C 0.56846 0.38518 0.82276 0.0
C2238 C 0.59186 0.38716 0.81867 0.0
C2239 C 0.55263 0.38033 0.80572 0.0
C2240 C 0.5481 0.38389 0.74613 0.0
H2241 H 0.45465 0.32936 0.68814 0.0
H2242 H 0.47189 0.35014 0.71979 0.0
H2243 H 0.53947 0.38521 0.71243 0.0
H2244 H 0.61688 0.38437 0.79354 0.0
H2245 H 0.58951 0.37576 0.76424 0.0
H2246 H 0.5209 0.34975 0.7817 0.0
C2247 C 0.48258 0.34586 0.70647 0.0
C2248 C 0.53507 0.37757 0.72752 0.0
C2249 C 0.47273 0.33408 0.68827 0.0
C2250 C 0.59904 0.38316 0.79738 0.0
C2251 C 0.58331 0.3785 0.78046 0.0
C2252 C 0.52474 0.358 0.76681 0.0
C2253 C 0.50612 0.35131 0.70777 0.0
C2254 C 0.51719 0.36088 0.72817 0.0
C2255 C 0.55995 0.37759 0.7843 0.0
C2256 C 0.54365 0.37354 0.76576 0.0
H2257 H 0.52057 0.32882 0.65908 0.0
H2258 H 0.53769 0.34955 0.69069 0.0
H2259 H 0.49798 0.33872 0.74912 0.0
H2260 H 0.56236 0.38793 0.839 0.0
H2261 H 0.53472 0.37942 0.80921 0.0
C2262 C 0.98389 0.29085 0.97244 0.0
C2263 C 0.96735 0.29374 0.95644 0.0
C2264 C 0.97894 0.2932 0.99442 0.0
C2265 C 0.9685 0.31986 0.03514 0.0
H2266 H 0.91148 0.30037 0.06127 0.0
C2267 C 0.90605 0.35865 0.09853 0.0
C2268 C 0.92281 0.37139 0.11093 0.0
C2269 C 0.91188 0.34118 0.08498 0.0
C2270 C 0.9275 0.306 0.05427 0.0
H2271 H 0.93221 0.29997 0.95102 0.0
H2272 H 0.92362 0.30409 0.98943 0.0
H2273 H 0.92075 0.2851 0.02559 0.0
H2274 H 0.95805 0.3745 0.12121 0.0
H2275 H 0.96803 0.34283 0.099 0.0
H2276 H 0.97473 0.34201 0.06251 0.0
C2277 C 0.94039 0.29996 0.98493 0.0
C2278 C 0.93281 0.29716 0.03386 0.0
C2279 C 0.94539 0.2978 0.96293 0.0
C2280 C 0.94485 0.36476 0.1118 0.0
C2281 C 0.95059 0.34687 0.09874 0.0
C2282 C 0.96308 0.32894 0.05529 0.0
C2283 C 0.95729 0.29827 0.00089 0.0
C2284 C 0.95309 0.3045 0.02386 0.0
C2285 C 0.93459 0.33598 0.08387 0.0
C2286 C 0.94217 0.32268 0.06489 0.0
H2287 H 0.00094 0.28754 0.96802 0.0
H2288 H 0.99225 0.29167 0.00639 0.0
H2289 H 0.98415 0.32605 0.02775 0.0
H2290 H 0.889 0.36375 0.09742 0.0
H2291 H 0.89898 0.33337 0.07387 0.0
C2292 C 0.93046 0.71535 0.1688 0.0
C2293 C 0.95195 0.72326 0.16166 0.0
C2294 C 0.92788 0.70771 0.18971 0.0
C2295 C 0.95719 0.69521 0.24103 0.0
H2296 H 0.90974 0.7274 0.26639 0.0
C2297 C 0.9206 0.68489 0.32747 0.0
C2298 C 0.91259 0.70361 0.33782 0.0
C2299 C 0.93056 0.68631 0.30711 0.0
C2300 C 0.92326 0.71851 0.25968 0.0
H2301 H 0.98791 0.7267 0.16977 0.0
H2302 H 0.98335 0.71359 0.2064 0.0
H2303 H 0.91551 0.72782 0.22769 0.0
H2304 H 0.91039 0.73877 0.33593 0.0
H2305 H 0.92812 0.7414 0.30058 0.0
H2306 H 0.96488 0.68609 0.27346 0.0
C2307 C 0.9685 0.71326 0.19587 0.0
C2308 C 0.92628 0.71838 0.23736 0.0
C2309 C 0.97112 0.72071 0.1748 0.0
C2310 C 0.91647 0.72411 0.32832 0.0
C2311 C 0.92645 0.72554 0.30802 0.0
C2312 C 0.95402 0.69519 0.26353 0.0
C2313 C 0.94671 0.70805 0.20397 0.0
C2314 C 0.94319 0.70669 0.2277 0.0
C2315 C 0.93244 0.70645 0.29667 0.0
C2316 C 0.93708 0.707 0.27309 0.0
H2317 H 0.91541 0.71689 0.15895 0.0
H2318 H 0.91092 0.70317 0.19529 0.0
H2319 H 0.97044 0.68614 0.23405 0.0
H2320 H 0.91717 0.66877 0.33404 0.0
H2321 H 0.93488 0.67128 0.29878 0.0
C2322 C 0.56997 0.76798 0.45208 0.0
C2323 C 0.5557 0.75266 0.43935 0.0
C2324 C 0.58202 0.76112 0.46991 0.0
C2325 C 0.59847 0.71125 0.49731 0.0
H2326 H 0.58773 0.74509 0.55017 0.0
C2327 C 0.61216 0.67508 0.58028 0.0
C2328 C 0.59343 0.6762 0.59378 0.0
C2329 C 0.61449 0.68833 0.56235 0.0
C2330 C 0.59101 0.73553 0.53555 0.0
H2331 H 0.54427 0.71796 0.43432 0.0
H2332 H 0.56508 0.70605 0.46528 0.0
H2333 H 0.57971 0.76008 0.51513 0.0
H2334 H 0.5627 0.69197 0.59968 0.0
H2335 H 0.56685 0.71554 0.56866 0.0
H2336 H 0.60819 0.68603 0.51767 0.0
C2337 C 0.56711 0.72334 0.46157 0.0
C2338 C 0.58668 0.74423 0.51544 0.0
C2339 C 0.55501 0.73019 0.44386 0.0
C2340 C 0.57757 0.69134 0.58974 0.0
C2341 C 0.58001 0.7048 0.57198 0.0
C2342 C 0.60274 0.70254 0.51739 0.0
C2343 C 0.58017 0.7388 0.47523 0.0
C2344 C 0.58948 0.73178 0.49611 0.0
C2345 C 0.59813 0.70297 0.55769 0.0
C2346 C 0.59819 0.7142 0.53675 0.0
H2347 H 0.57092 0.78542 0.44898 0.0
H2348 H 0.59216 0.77338 0.47997 0.0
H2349 H 0.60117 0.70142 0.48271 0.0
H2350 H 0.62431 0.6631 0.58293 0.0
H2351 H 0.62873 0.68667 0.5518 0.0
C2352 C 0.82903 0.56754 0.6896 0.0
C2353 C 0.82866 0.54593 0.69683 0.0
C2354 C 0.80935 0.57535 0.68121 0.0
C2355 C 0.76657 0.58835 0.66009 0.0
H2356 H 0.71392 0.57257 0.69463 0.0
C2357 C 0.68869 0.63768 0.65533 0.0
C2358 C 0.6797 0.64361 0.67535 0.0
C2359 C 0.70364 0.62121 0.65383 0.0
C2360 C 0.72845 0.57718 0.68483 0.0
H2361 H 0.80789 0.51491 0.69891 0.0
H2362 H 0.77369 0.5284 0.68374 0.0
H2363 H 0.74743 0.55247 0.69809 0.0
H2364 H 0.67904 0.63724 0.70952 0.0
H2365 H 0.70478 0.60805 0.707 0.0
H2366 H 0.7484 0.61417 0.64812 0.0
C2367 C 0.78902 0.53951 0.68518 0.0
C2368 C 0.7476 0.5654 0.68655 0.0
C2369 C 0.8087 0.53173 0.6937 0.0
C2370 C 0.68524 0.63237 0.69378 0.0
C2371 C 0.69999 0.61566 0.69226 0.0
C2372 C 0.74755 0.60027 0.65855 0.0
C2373 C 0.78887 0.56168 0.67966 0.0
C2374 C 0.76719 0.57133 0.67473 0.0
C2375 C 0.70989 0.61027 0.67233 0.0
C2376 C 0.7285 0.5953 0.67142 0.0
H2377 H 0.84411 0.57892 0.69172 0.0
H2378 H 0.80992 0.59257 0.67732 0.0
H2379 H 0.78116 0.59309 0.65042 0.0
H2380 H 0.68542 0.64685 0.64111 0.0
H2381 H 0.71105 0.61772 0.6383 0.0
C2382 C 0.77106 0.6149 0.96608 0.0
C2383 C 0.75913 0.63088 0.97697 0.0
C2384 C 0.75939 0.59755 0.95379 0.0
C2385 C 0.70275 0.5768 0.93046 0.0
H2386 H 0.71972 0.51981 0.94769 0.0
C2387 C 0.63899 0.50084 0.9283 0.0
C2388 C 0.64563 0.48071 0.91967 0.0
C2389 C 0.65489 0.51888 0.93226 0.0
C2390 C 0.71499 0.53556 0.94241 0.0
H2391 H 0.72581 0.64231 0.98179 0.0
H2392 H 0.70555 0.61216 0.96049 0.0
H2393 H 0.74422 0.55313 0.95778 0.0
H2394 H 0.67454 0.46353 0.90946 0.0
H2395 H 0.70245 0.49524 0.91666 0.0
H2396 H 0.67307 0.55927 0.91583 0.0
C2397 C 0.72389 0.61294 0.96141 0.0
C2398 C 0.72905 0.55466 0.94811 0.0
C2399 C 0.73552 0.63022 0.97373 0.0
C2400 C 0.66882 0.47879 0.9161 0.0
C2401 C 0.6848 0.49693 0.92016 0.0
C2402 C 0.68868 0.55773 0.92483 0.0
C2403 C 0.7356 0.59593 0.95204 0.0
C2404 C 0.72275 0.57556 0.94273 0.0
C2405 C 0.67787 0.5173 0.92781 0.0
C2406 C 0.69431 0.537 0.93132 0.0
H2407 H 0.78928 0.61498 0.96811 0.0
H2408 H 0.76891 0.5849 0.94643 0.0
H2409 H 0.69762 0.5926 0.92575 0.0
H2410 H 0.62134 0.50297 0.93141 0.0
H2411 H 0.64912 0.5342 0.93869 0.0
C2412 C 0.68513 0.51182 0.15617 0.0
C2413 C 0.67653 0.52967 0.16745 0.0
C2414 C 0.70728 0.51368 0.14857 0.0
C2415 C 0.75591 0.52067 0.13418 0.0
H2416 H 0.79177 0.53882 0.18605 0.0
C2417 C 0.8443 0.49095 0.14993 0.0
C2418 C 0.83955 0.47387 0.16429 0.0
C2419 C 0.82928 0.50737 0.1478 0.0
C2420 C 0.78222 0.53433 0.17116 0.0
H2421 H 0.68338 0.56433 0.17711 0.0
H2422 H 0.72215 0.5675 0.16395 0.0
H2423 H 0.75334 0.5499 0.18229 0.0
H2424 H 0.81769 0.46308 0.19053 0.0
H2425 H 0.79231 0.49193 0.18727 0.0
H2426 H 0.784 0.503 0.12437 0.0
C2427 C 0.71182 0.55201 0.16117 0.0
C2428 C 0.76021 0.54069 0.16892 0.0
C2429 C 0.68952 0.55021 0.16856 0.0
C2430 C 0.82153 0.47549 0.17872 0.0
C2431 C 0.80701 0.49214 0.17702 0.0
C2432 C 0.77794 0.51437 0.13642 0.0
C2433 C 0.72134 0.5334 0.15225 0.0
C2434 C 0.74636 0.53289 0.15097 0.0
C2435 C 0.81002 0.50745 0.16076 0.0
C2436 C 0.79087 0.52034 0.15534 0.0
H2437 H 0.67549 0.49582 0.15492 0.0
H2438 H 0.71404 0.49898 0.14182 0.0
H2439 H 0.74572 0.51448 0.12012 0.0
H2440 H 0.85868 0.49079 0.13934 0.0
H2441 H 0.83208 0.51934 0.13543 0.0
C2442 C 0.75705 0.46931 0.45171 0.0
C2443 C 0.75368 0.46369 0.47334 0.0
C2444 C 0.75878 0.49142 0.44612 0.0
C2445 C 0.7767 0.5461 0.4704 0.0
H2446 H 0.75808 0.56565 0.41439 0.0
C2447 C 0.81792 0.62674 0.4401 0.0
C2448 C 0.82782 0.62297 0.41997 0.0
C2449 C 0.80039 0.61184 0.44711 0.0
C2450 C 0.76324 0.56052 0.43019 0.0
H2451 H 0.74819 0.4769 0.50588 0.0
H2452 H 0.75115 0.51538 0.49608 0.0
H2453 H 0.74359 0.52928 0.42605 0.0
H2454 H 0.82632 0.60211 0.39069 0.0
H2455 H 0.79575 0.57654 0.40248 0.0
H2456 H 0.79738 0.57661 0.47408 0.0
C2457 C 0.75277 0.50271 0.48349 0.0
C2458 C 0.755 0.53967 0.43682 0.0
C2459 C 0.75104 0.48063 0.48908 0.0
C2460 C 0.81864 0.6055 0.40614 0.0
C2461 C 0.80107 0.59082 0.41297 0.0
C2462 C 0.78498 0.56689 0.46375 0.0
C2463 C 0.75717 0.50841 0.46204 0.0
C2464 C 0.76234 0.53189 0.45664 0.0
C2465 C 0.79257 0.59309 0.434 0.0
C2466 C 0.7791 0.57399 0.44318 0.0
H2467 H 0.75909 0.45669 0.43918 0.0
H2468 H 0.76245 0.49524 0.42949 0.0
H2469 H 0.78285 0.5406 0.48569 0.0
H2470 H 0.825 0.64 0.4511 0.0
H2471 H 0.794 0.61418 0.46331 0.0
C2472 C 0.81499 0.54502 0.80996 0.0
C2473 C 0.82196 0.54657 0.78837 0.0
C2474 C 0.79189 0.54249 0.81475 0.0
C2475 C 0.74073 0.54486 0.82072 0.0
H2476 H 0.70895 0.49626 0.78699 0.0
C2477 C 0.65497 0.4785 0.81744 0.0
C2478 C 0.65522 0.47406 0.83952 0.0
C2479 C 0.6701 0.49514 0.80959 0.0
C2480 C 0.71709 0.51034 0.79626 0.0
H2481 H 0.81006 0.5477 0.75497 0.0
H2482 H 0.76992 0.54309 0.76338 0.0
H2483 H 0.74635 0.51059 0.77644 0.0
H2484 H 0.66978 0.4844 0.87096 0.0
H2485 H 0.69653 0.51287 0.85754 0.0
H2486 H 0.71158 0.54431 0.84084 0.0
C2487 C 0.7823 0.54374 0.77657 0.0
C2488 C 0.73874 0.51847 0.79022 0.0
C2489 C 0.80533 0.54641 0.77179 0.0
C2490 C 0.66906 0.48787 0.85393 0.0
C2491 C 0.68449 0.5042 0.8461 0.0
C2492 C 0.71886 0.53692 0.82663 0.0
C2493 C 0.77533 0.54132 0.79804 0.0
C2494 C 0.7511 0.53532 0.80277 0.0
C2495 C 0.68623 0.50707 0.82364 0.0
C2496 C 0.70705 0.51899 0.81491 0.0
H2497 H 0.82735 0.54518 0.82311 0.0
H2498 H 0.78703 0.54044 0.83144 0.0
H2499 H 0.74977 0.5581 0.83051 0.0
H2500 H 0.64459 0.46782 0.80602 0.0
H2501 H 0.6704 0.49736 0.79228 0.0
C2502 C 0.80499 0.61872 0.09268 0.0
C2503 C 0.78852 0.62004 0.07637 0.0
C2504 C 0.81 0.59816 0.09979 0.0
C2505 C 0.83384 0.55758 0.09334 0.0
H2506 H 0.798 0.50127 0.08509 0.0
C2507 C 0.87931 0.4823 0.07633 0.0
C2508 C 0.87524 0.4653 0.09086 0.0
C2509 C 0.86404 0.49818 0.07414 0.0
C2510 C 0.80814 0.5169 0.08754 0.0
H2511 H 0.76309 0.60138 0.05586 0.0
H2512 H 0.77265 0.5655 0.06713 0.0
H2513 H 0.77898 0.53547 0.08786 0.0
H2514 H 0.85007 0.44933 0.11145 0.0
H2515 H 0.82298 0.47743 0.10757 0.0
H2516 H 0.86285 0.53925 0.0935 0.0
C2517 C 0.78124 0.58008 0.07521 0.0
C2518 C 0.79731 0.53653 0.08903 0.0
C2519 C 0.77568 0.60072 0.06871 0.0
C2520 C 0.8541 0.46283 0.10093 0.0
C2521 C 0.83852 0.47877 0.09852 0.0
C2522 C 0.84451 0.53814 0.09206 0.0
C2523 C 0.79948 0.5785 0.08983 0.0
C2524 C 0.81008 0.55721 0.09158 0.0
C2525 C 0.84424 0.49745 0.08637 0.0
C2526 C 0.83191 0.51761 0.08862 0.0
H2527 H 0.81513 0.63344 0.09877 0.0
H2528 H 0.82344 0.5977 0.11182 0.0
H2529 H 0.84453 0.57295 0.09477 0.0
H2530 H 0.89509 0.48434 0.06769 0.0
H2531 H 0.86846 0.51188 0.0639 0.0
C2532 C 0.69005 0.52672 0.27818 0.0
C2533 C 0.67324 0.54015 0.27163 0.0
C2534 C 0.70784 0.53529 0.29212 0.0
C2535 C 0.72737 0.58345 0.32879 0.0
H2536 H 0.7869 0.5749 0.30614 0.0
C2537 C 0.8008 0.64927 0.33913 0.0
C2538 C 0.82172 0.64355 0.34731 0.0
C2539 C 0.78366 0.63305 0.33288 0.0
C2540 C 0.77044 0.57708 0.31292 0.0
H2541 H 0.66102 0.57258 0.27583 0.0
H2542 H 0.6919 0.58748 0.29999 0.0
H2543 H 0.75357 0.55225 0.29132 0.0
H2544 H 0.8414 0.61609 0.35407 0.0
H2545 H 0.81119 0.58748 0.34254 0.0
H2546 H 0.7441 0.60914 0.34948 0.0
C2547 C 0.6914 0.57032 0.29446 0.0
C2548 C 0.75135 0.56411 0.3045 0.0
C2549 C 0.67373 0.56181 0.28048 0.0
C2550 C 0.82547 0.62106 0.34792 0.0
C2551 C 0.80822 0.6047 0.34141 0.0
C2552 C 0.74638 0.59645 0.33708 0.0
C2553 C 0.70904 0.55738 0.29991 0.0
C2554 C 0.72952 0.56777 0.31179 0.0
C2555 C 0.78698 0.61065 0.33441 0.0
C2556 C 0.76794 0.59395 0.32864 0.0
H2557 H 0.69015 0.50992 0.27171 0.0
H2558 H 0.72103 0.52485 0.29624 0.0
H2559 H 0.71085 0.58634 0.33506 0.0
H2560 H 0.79725 0.66636 0.3382 0.0
H2561 H 0.76761 0.63805 0.32703 0.0
C2562 C 0.7125 0.44858 0.58577 0.0
C2563 C 0.73217 0.44758 0.57347 0.0
C2564 C 0.70773 0.4684 0.5962 0.0
C2565 C 0.71576 0.52673 0.5872 0.0
H2566 H 0.68581 0.53257 0.64224 0.0
C2567 C 0.6704 0.60444 0.61199 0.0
C2568 C 0.64899 0.59975 0.62096 0.0
C2569 C 0.68505 0.58771 0.60912 0.0
C2570 C 0.69412 0.5312 0.6268 0.0
H2571 H 0.76308 0.46622 0.56378 0.0
H2572 H 0.75451 0.50087 0.58178 0.0
H2573 H 0.70411 0.49905 0.63318 0.0
H2574 H 0.62592 0.57411 0.63383 0.0
H2575 H 0.65113 0.54504 0.62868 0.0
H2576 H 0.70465 0.55821 0.58018 0.0
C2577 C 0.74281 0.48631 0.58329 0.0
C2578 C 0.70467 0.51206 0.62169 0.0
C2579 C 0.74775 0.46642 0.57309 0.0
C2580 C 0.64239 0.57816 0.62689 0.0
C2581 C 0.65699 0.56157 0.62422 0.0
C2582 C 0.70501 0.54578 0.5922 0.0
C2583 C 0.72241 0.48766 0.59434 0.0
C2584 C 0.71498 0.50936 0.60156 0.0
C2585 C 0.67855 0.56611 0.6154 0.0
C2586 C 0.69336 0.54788 0.61173 0.0
H2587 H 0.70022 0.43435 0.58644 0.0
H2588 H 0.6918 0.46898 0.60451 0.0
H2589 H 0.72342 0.52501 0.57146 0.0
H2590 H 0.67575 0.62096 0.60714 0.0
H2591 H 0.70154 0.59173 0.60225 0.0
C2592 C 0.72418 0.84381 0.50539 0.0
C2593 C 0.72707 0.8628 0.51926 0.0
C2594 C 0.71192 0.82464 0.51202 0.0
C2595 C 0.67288 0.8024 0.5541 0.0
H2596 H 0.70479 0.7498 0.54591 0.0
C2597 C 0.68388 0.7195 0.60215 0.0
C2598 C 0.66129 0.71327 0.60723 0.0
C2599 C 0.68893 0.73514 0.58661 0.0
C2600 C 0.6956 0.7643 0.54823 0.0
H2601 H 0.71816 0.87696 0.55046 0.0
H2602 H 0.69699 0.84355 0.56209 0.0
H2603 H 0.71807 0.78332 0.52802 0.0
H2604 H 0.62628 0.71858 0.60051 0.0
H2605 H 0.63494 0.74548 0.57277 0.0
H2606 H 0.65118 0.78373 0.57529 0.0
C2607 C 0.70404 0.84346 0.54601 0.0
C2608 C 0.70306 0.78347 0.5378 0.0
C2609 C 0.7163 0.86261 0.53939 0.0
C2610 C 0.64378 0.72253 0.59621 0.0
C2611 C 0.64878 0.7382 0.58065 0.0
C2612 C 0.6654 0.78322 0.56453 0.0
C2613 C 0.70224 0.82406 0.53265 0.0
C2614 C 0.69217 0.80293 0.5411 0.0
C2615 C 0.67145 0.74509 0.57606 0.0
C2616 C 0.67708 0.76414 0.56221 0.0
H2617 H 0.73211 0.84343 0.48971 0.0
H2618 H 0.71054 0.81009 0.50122 0.0
H2619 H 0.66395 0.81703 0.55675 0.0
H2620 H 0.69765 0.71287 0.61081 0.0
H2621 H 0.70657 0.74033 0.58378 0.0
C2622 C 0.16326 0.72694 0.4756 0.0
C2623 C 0.17104 0.71502 0.45767 0.0
C2624 C 0.15008 0.74462 0.47242 0.0
C2625 C 0.12488 0.77642 0.42806 0.0
H2626 H 0.15467 0.82657 0.46108 0.0
C2627 C 0.13144 0.86233 0.39241 0.0
C2628 C 0.15231 0.87489 0.39588 0.0
C2629 C 0.1257 0.84394 0.40468 0.0
C2630 C 0.14628 0.81277 0.45158 0.0
H2631 H 0.16859 0.71004 0.42276 0.0
H2632 H 0.1462 0.74055 0.41712 0.0
H2633 H 0.1566 0.78978 0.47408 0.0
H2634 H 0.18422 0.87744 0.41366 0.0
H2635 H 0.17486 0.84493 0.43457 0.0
H2636 H 0.11683 0.79902 0.4043 0.0
C2637 C 0.14995 0.73669 0.43368 0.0
C2638 C 0.14694 0.79157 0.45932 0.0
C2639 C 0.163 0.71913 0.43686 0.0
C2640 C 0.16766 0.86846 0.41136 0.0
C2641 C 0.16214 0.84987 0.42342 0.0
C2642 C 0.12476 0.79752 0.42002 0.0
C2643 C 0.14453 0.75059 0.45128 0.0
C2644 C 0.13742 0.77296 0.44698 0.0
C2645 C 0.14113 0.83717 0.42013 0.0
C2646 C 0.13657 0.81584 0.43108 0.0
H2647 H 0.16917 0.72405 0.49185 0.0
H2648 H 0.14569 0.75457 0.48642 0.0
H2649 H 0.1166 0.76261 0.41849 0.0
H2650 H 0.11981 0.86634 0.37974 0.0
H2651 H 0.10932 0.83485 0.40172 0.0
C2652 C 0.59176 0.01865 0.78001 0.0
C2653 C 0.58902 0.02881 0.80053 0.0
C2654 C 0.5737 0.00581 0.76965 0.0
C2655 C 0.51244 0.00346 0.76568 0.0
H2656 H 0.51899 0.95146 0.72875 0.0
C2657 C 0.44269 0.96632 0.70338 0.0
C2658 C 0.45106 0.96085 0.68286 0.0
C2659 C 0.45771 0.97214 0.72089 0.0
C2660 C 0.51692 0.96604 0.73893 0.0
H2661 H 0.56553 0.03239 0.82683 0.0
H2662 H 0.53389 0.01012 0.80854 0.0
H2663 H 0.54927 0.96465 0.75463 0.0
H2664 H 0.48166 0.95706 0.66467 0.0
H2665 H 0.50755 0.96688 0.69499 0.0
H2666 H 0.48053 0.00544 0.74929 0.0
C2667 C 0.55004 0.01215 0.80052 0.0
C2668 C 0.5342 0.97349 0.75381 0.0
C2669 C 0.56822 0.02478 0.81102 0.0
C2670 C 0.47462 0.9613 0.68022 0.0
C2671 C 0.4895 0.96666 0.69771 0.0
C2672 C 0.49517 0.99606 0.75069 0.0
C2673 C 0.55244 0.00304 0.7795 0.0
C2674 C 0.53248 0.99271 0.76681 0.0
C2675 C 0.48128 0.97195 0.7183 0.0
C2676 C 0.49764 0.97776 0.73659 0.0
H2677 H 0.60757 0.02139 0.77152 0.0
H2678 H 0.57602 0.99913 0.75338 0.0
H2679 H 0.51069 0.01841 0.77542 0.0
H2680 H 0.4246 0.96606 0.70589 0.0
H2681 H 0.45084 0.97636 0.73651 0.0
C2682 C 0.32081 0.35085 0.01963 0.0
C2683 C 0.33331 0.36867 0.01032 0.0
C2684 C 0.32749 0.32943 0.01705 0.0
C2685 C 0.37372 0.29681 0.99498 0.0
H2686 H 0.32296 0.25551 0.97605 0.0
C2687 C 0.373 0.23898 0.92137 0.0
C2688 C 0.3592 0.21903 0.92021 0.0
C2689 C 0.37507 0.25185 0.9406 0.0
C2690 C 0.33739 0.26648 0.98188 0.0
H2691 H 0.36335 0.37811 0.99206 0.0
H2692 H 0.37453 0.34088 0.98689 0.0
H2693 H 0.31589 0.28985 0.99486 0.0
H2694 H 0.33784 0.19597 0.93827 0.0
H2695 H 0.34088 0.21898 0.97214 0.0
H2696 H 0.39503 0.27405 0.98007 0.0
C2697 C 0.35984 0.34333 0.99662 0.0
C2698 C 0.33334 0.28632 0.99268 0.0
C2699 C 0.3533 0.36476 0.99941 0.0
C2700 C 0.34877 0.21124 0.93898 0.0
C2701 C 0.35045 0.22442 0.95824 0.0
C2702 C 0.37775 0.27705 0.98393 0.0
C2703 C 0.34667 0.32527 0.00488 0.0
C2704 C 0.35139 0.30225 0.9984 0.0
C2705 C 0.36285 0.2453 0.95891 0.0
C2706 C 0.35954 0.26219 0.97634 0.0
H2707 H 0.30548 0.35333 0.0284 0.0
H2708 H 0.31717 0.31603 0.02402 0.0
H2709 H 0.38809 0.30837 -0.00028 0.0
H2710 H 0.38106 0.2453 0.90698 0.0
H2711 H 0.38456 0.26789 0.94044 0.0
C2712 C 0.43156 0.57389 0.77342 0.0
C2713 C 0.41609 0.57707 0.75653 0.0
C2714 C 0.45342 0.58468 0.77379 0.0
C2715 C 0.49125 0.62725 0.74679 0.0
H2716 H 0.53483 0.58343 0.74954 0.0
C2717 C 0.56734 0.60514 0.69304 0.0
C2718 C 0.57952 0.6258 0.69134 0.0
C2719 C 0.55244 0.60142 0.71 0.0
C2720 C 0.523 0.59602 0.74914 0.0
H2721 H 0.41078 0.59564 0.72793 0.0
H2722 H 0.44888 0.61421 0.7284 0.0
H2723 H 0.49662 0.57488 0.76257 0.0
H2724 H 0.58732 0.65818 0.70684 0.0
H2725 H 0.56044 0.65194 0.73636 0.0
H2726 H 0.51723 0.64768 0.7317 0.0
C2727 C 0.44417 0.60348 0.74146 0.0
C2728 C 0.5011 0.59119 0.75672 0.0
C2729 C 0.42231 0.59269 0.74109 0.0
C2730 C 0.57806 0.64211 0.70788 0.0
C2731 C 0.56265 0.63858 0.72466 0.0
C2732 C 0.51321 0.6321 0.73925 0.0
C2733 C 0.46027 0.59891 0.75731 0.0
C2734 C 0.48464 0.60633 0.75461 0.0
C2735 C 0.54907 0.61845 0.72537 0.0
C2736 C 0.52891 0.61607 0.73932 0.0
H2737 H 0.42724 0.56216 0.78576 0.0
H2738 H 0.46531 0.58108 0.78641 0.0
H2739 H 0.47906 0.63939 0.74528 0.0
H2740 H 0.5682 0.59234 0.68043 0.0
H2741 H 0.54211 0.58581 0.70992 0.0
C2742 C 0.78163 0.2447 0.99489 0.0
C2743 C 0.76815 0.22793 0.00488 0.0
C2744 C 0.79167 0.26296 0.00718 0.0
C2745 C 0.78031 0.29547 0.05572 0.0
H2746 H 0.8425 0.32113 0.05336 0.0
C2747 C 0.81742 0.3603 0.11936 0.0
C2748 C 0.83391 0.37694 0.11351 0.0
C2749 C 0.80935 0.34352 0.10443 0.0
C2750 C 0.82496 0.31442 0.0539 0.0
H2751 H 0.75604 0.21652 0.03585 0.0
H2752 H 0.77339 0.24836 0.05709 0.0
H2753 H 0.83018 0.28806 0.03078 0.0
H2754 H 0.85417 0.38939 0.08693 0.0
H2755 H 0.83965 0.3602 0.06063 0.0
H2756 H 0.77476 0.32176 0.07842 0.0
C2757 C 0.77598 0.24746 0.03975 0.0
C2758 C 0.81799 0.29541 0.04108 0.0
C2759 C 0.76617 0.22915 0.02756 0.0
C2760 C 0.84144 0.37686 0.092 0.0
C2761 C 0.8333 0.35999 0.07698 0.0
C2762 C 0.78715 0.31454 0.06827 0.0
C2763 C 0.78821 0.26486 0.0296 0.0
C2764 C 0.79571 0.28552 0.04225 0.0
C2765 C 0.81739 0.34293 0.08313 0.0
C2766 C 0.80968 0.32402 0.06791 0.0
H2767 H 0.78356 0.24426 0.97747 0.0
H2768 H 0.80107 0.27614 0.99898 0.0
H2769 H 0.76288 0.28848 0.05653 0.0
H2770 H 0.81121 0.35974 0.13575 0.0
H2771 H 0.79739 0.33053 0.10992 0.0
C2772 C 0.5898 0.14655 0.83304 0.0
C2773 C 0.59774 0.13399 0.8156 0.0
C2774 C 0.56845 0.15463 0.83177 0.0
C2775 C 0.51577 0.1309 0.81213 0.0
H2776 H 0.49105 0.1834 0.83579 0.0
C2777 C 0.42682 0.12294 0.84697 0.0
C2778 C 0.42411 0.13538 0.86618 0.0
C2779 C 0.4453 0.12824 0.83369 0.0
C2780 C 0.49763 0.1685 0.82933 0.0
H2781 H 0.59085 0.1225 0.78222 0.0
H2782 H 0.55331 0.1361 0.78028 0.0
H2783 H 0.5308 0.18514 0.8253 0.0
H2784 H 0.43822 0.16284 0.88688 0.0
H2785 H 0.47101 0.17143 0.86467 0.0
H2786 H 0.48401 0.11347 0.81821 0.0
C2787 C 0.56368 0.13982 0.79482 0.0
C2788 C 0.52034 0.16966 0.82303 0.0
C2789 C 0.58524 0.13214 0.79594 0.0
C2790 C 0.43976 0.1534 0.87178 0.0
C2791 C 0.45855 0.15834 0.85888 0.0
C2792 C 0.49338 0.12957 0.81898 0.0
C2793 C 0.5546 0.14997 0.81316 0.0
C2794 C 0.52975 0.15069 0.81497 0.0
C2795 C 0.46201 0.14545 0.83991 0.0
C2796 C 0.48416 0.14814 0.82848 0.0
H2797 H 0.5991 0.1483 0.84837 0.0
H2798 H 0.56183 0.16235 0.84617 0.0
H2799 H 0.52269 0.11592 0.80625 0.0
H2800 H 0.41501 0.10879 0.84254 0.0
H2801 H 0.4468 0.11828 0.81895 0.0
C2802 C 0.9111 0.95759 0.26496 0.0
C2803 C 0.91082 0.98067 0.26525 0.0
C2804 C 0.93157 0.94802 0.26741 0.0
C2805 C 0.99463 0.96017 0.27024 0.0
H2806 H 0.99006 0.92057 0.31782 0.0
C2807 C 0.06231 0.95881 0.33668 0.0
C2808 C 0.06282 0.94023 0.34922 0.0
C2809 C 0.04769 0.95834 0.31862 0.0
C2810 C 0.99184 0.93105 0.30409 0.0
H2811 H 0.932 0.01171 0.26662 0.0
H2812 H 0.96748 0.9951 0.27121 0.0
H2813 H 0.95593 0.9299 0.29976 0.0
H2814 H 0.04945 0.90645 0.35267 0.0
H2815 H 0.02492 0.90496 0.32033 0.0
H2816 H 0.03065 0.96213 0.27543 0.0
C2817 C 0.95199 0.98432 0.26893 0.0
C2818 C 0.97211 0.93646 0.29371 0.0
C2819 C 0.93156 0.99388 0.26652 0.0
C2820 C 0.04988 0.92067 0.34265 0.0
C2821 C 0.03551 0.92003 0.32441 0.0
C2822 C 0.01445 0.95466 0.28059 0.0
C2823 C 0.95218 0.96133 0.27014 0.0
C2824 C 0.9732 0.95183 0.27731 0.0
C2825 C 0.03323 0.93925 0.31294 0.0
C2826 C 0.01323 0.9408 0.2983 0.0
H2827 H 0.89544 0.94693 0.2638 0.0
H2828 H 0.93119 0.93023 0.268 0.0
H2829 H 0.99603 0.97175 0.25737 0.0
H2830 H 0.07177 0.97423 0.34189 0.0
H2831 H 0.04627 0.97356 0.31042 0.0
C2832 C 0.5081 0.33424 0.21632 0.0
C2833 C 0.51132 0.35005 0.2005 0.0
C2834 C 0.50473 0.3407 0.23785 0.0
C2835 C 0.48594 0.38801 0.2704 0.0
H2836 H 0.49435 0.34833 0.3169 0.0
C2837 C 0.44654 0.39995 0.3538 0.0
C2838 C 0.42772 0.38413 0.35413 0.0
C2839 C 0.46412 0.3971 0.33942 0.0
C2840 C 0.49232 0.35975 0.30415 0.0
H2841 H 0.51508 0.38506 0.19492 0.0
H2842 H 0.51038 0.39653 0.23281 0.0
H2843 H 0.51293 0.34257 0.28236 0.0
H2844 H 0.41376 0.35189 0.34166 0.0
H2845 H 0.4451 0.34647 0.31726 0.0
H2846 H 0.46536 0.40512 0.29244 0.0
C2847 C 0.50946 0.37905 0.2285 0.0
C2848 C 0.50265 0.35634 0.28425 0.0
C2849 C 0.51225 0.37253 0.20678 0.0
C2850 C 0.42799 0.36437 0.34164 0.0
C2851 C 0.44592 0.36123 0.32777 0.0
C2852 C 0.47618 0.39175 0.29048 0.0
C2853 C 0.50506 0.36319 0.24427 0.0
C2854 C 0.49861 0.36973 0.26673 0.0
C2855 C 0.46352 0.37802 0.32586 0.0
C2856 C 0.47852 0.3771 0.30714 0.0
H2857 H 0.50726 0.31676 0.21194 0.0
H2858 H 0.50088 0.32787 0.2492 0.0
H2859 H 0.48214 0.39862 0.25744 0.0
H2860 H 0.44676 0.41539 0.36322 0.0
H2861 H 0.47749 0.41028 0.33802 0.0
C2862 C 0.46227 0.85406 0.95256 0.0
C2863 C 0.46736 0.84115 0.93413 0.0
C2864 C 0.44893 0.84486 0.96892 0.0
C2865 C 0.41239 0.79512 0.98393 0.0
H2866 H 0.44675 0.80246 0.03822 0.0
C2867 C 0.41336 0.72658 0.04367 0.0
C2868 C 0.41361 0.73151 0.06611 0.0
C2869 C 0.41481 0.74341 0.02901 0.0
C2870 C 0.43659 0.80057 0.0234 0.0
H2871 H 0.46045 0.80913 0.91744 0.0
H2872 H 0.43722 0.79311 0.94594 0.0
H2873 H 0.45662 0.82668 0.00878 0.0
H2874 H 0.41581 0.75805 0.0908 0.0
H2875 H 0.41909 0.78766 0.06501 0.0
H2876 H 0.39299 0.76836 0.99833 0.0
C2877 C 0.44357 0.81034 0.9478 0.0
C2878 C 0.44222 0.81449 0.00649 0.0
C2879 C 0.457 0.81951 0.93147 0.0
C2880 C 0.41571 0.75374 0.07359 0.0
C2881 C 0.41749 0.77067 0.05885 0.0
C2882 C 0.40671 0.78127 0.00087 0.0
C2883 C 0.44026 0.82262 0.96712 0.0
C2884 C 0.43081 0.81129 0.98627 0.0
C2885 C 0.41677 0.76564 0.03638 0.0
C2886 C 0.41945 0.7832 0.02041 0.0
H2887 H 0.46975 0.87088 0.95505 0.0
H2888 H 0.44635 0.85482 0.98347 0.0
H2889 H 0.40303 0.79255 0.96868 0.0
H2890 H 0.41158 0.70965 0.03732 0.0
H2891 H 0.41476 0.73896 0.01184 0.0
C2892 C 0.04629 0.75933 0.7029 0.0
C2893 C 0.02711 0.7714 0.70306 0.0
C2894 C 0.05238 0.74826 0.72129 0.0
C2895 C 0.04951 0.75288 0.7799 0.0
H2896 H 0.06841 0.69346 0.77869 0.0
C2897 C 0.08766 0.68719 0.84137 0.0
C2898 C 0.10794 0.69958 0.84806 0.0
C2899 C 0.07335 0.69522 0.8258 0.0
C2900 C 0.06286 0.70995 0.77933 0.0
H2901 H 0.99899 0.78083 0.7225 0.0
H2902 H 0.00993 0.76194 0.75456 0.0
H2903 H 0.05236 0.70774 0.74579 0.0
H2904 H 0.12796 0.73091 0.84533 0.0
H2905 H 0.10265 0.74513 0.81883 0.0
H2906 H 0.06104 0.75549 0.8131 0.0
C2907 C 0.02014 0.76093 0.74021 0.0
C2908 C 0.0539 0.71817 0.76048 0.0
C2909 C 0.01386 0.77168 0.72177 0.0
C2910 C 0.11255 0.7209 0.84038 0.0
C2911 C 0.09804 0.72907 0.82523 0.0
C2912 C 0.05883 0.7448 0.79861 0.0
C2913 C 0.03961 0.74936 0.74026 0.0
C2914 C 0.04744 0.73983 0.76052 0.0
C2915 C 0.07878 0.71598 0.81717 0.0
C2916 C 0.06589 0.72338 0.79843 0.0
H2917 H 0.05683 0.75878 0.68874 0.0
H2918 H 0.06758 0.73957 0.72097 0.0
H2919 H 0.04478 0.76968 0.78035 0.0
H2920 H 0.08364 0.67071 0.847 0.0
H2921 H 0.05843 0.68495 0.82003 0.0
C2922 C 0.08965 0.34586 0.44017 0.0
C2923 C 0.07637 0.32885 0.42868 0.0
C2924 C 0.10122 0.34159 0.4592 0.0
C2925 C 0.12482 0.32958 0.50006 0.0
H2926 H 0.07849 0.30178 0.53613 0.0
C2927 C 0.12445 0.35573 0.58863 0.0
C2928 C 0.10396 0.36481 0.59285 0.0
C2929 C 0.12594 0.34032 0.57136 0.0
C2930 C 0.09184 0.30926 0.52632 0.0
H2931 H 0.06693 0.29356 0.42673 0.0
H2932 H 0.0871 0.28613 0.46013 0.0
H2933 H 0.07521 0.29648 0.4969 0.0
H2934 H 0.06821 0.36289 0.58426 0.0
H2935 H 0.07054 0.33614 0.55433 0.0
H2936 H 0.14025 0.34414 0.52933 0.0
C2937 C 0.08838 0.3028 0.4545 0.0
C2938 C 0.0901 0.30606 0.50377 0.0
C2939 C 0.07695 0.30706 0.43528 0.0
C2940 C 0.08431 0.3562 0.5813 0.0
C2941 C 0.08568 0.34073 0.56416 0.0
C2942 C 0.12655 0.33282 0.5226 0.0
C2943 C 0.09964 0.32023 0.46725 0.0
C2944 C 0.10578 0.31738 0.49036 0.0
C2945 C 0.10679 0.3337 0.5581 0.0
C2946 C 0.10925 0.32387 0.53588 0.0
H2947 H 0.08968 0.3628 0.4354 0.0
H2948 H 0.10961 0.35547 0.4686 0.0
H2949 H 0.13742 0.33817 0.49018 0.0
H2950 H 0.13972 0.36234 0.59711 0.0
H2951 H 0.1424 0.33504 0.56728 0.0
C2952 C 0.50259 0.74587 0.33814 0.0
C2953 C 0.48283 0.74866 0.34995 0.0
C2954 C 0.50099 0.73887 0.31621 0.0
C2955 C 0.49011 0.72088 0.26845 0.0
H2956 H 0.44726 0.75797 0.24366 0.0
C2957 C 0.4483 0.71062 0.1828 0.0
C2958 C 0.43985 0.7294 0.17439 0.0
C2959 C 0.46138 0.71237 0.20199 0.0
C2960 C 0.45964 0.74778 0.25016 0.0
H2961 H 0.44616 0.74324 0.34915 0.0
H2962 H 0.44339 0.73053 0.31118 0.0
H2963 H 0.45258 0.75818 0.28253 0.0
H2964 H 0.44118 0.76501 0.17725 0.0
H2965 H 0.46492 0.76833 0.2101 0.0
H2966 H 0.49681 0.71032 0.23565 0.0
C2967 C 0.46007 0.73437 0.3186 0.0
C2968 C 0.46233 0.74757 0.27255 0.0
C2969 C 0.46165 0.74153 0.34036 0.0
C2970 C 0.44744 0.75027 0.18351 0.0
C2971 C 0.46082 0.7521 0.20243 0.0
C2972 C 0.48723 0.72091 0.2458 0.0
C2973 C 0.47962 0.73443 0.30597 0.0
C2974 C 0.4773 0.73393 0.282 0.0
C2975 C 0.46625 0.73305 0.21285 0.0
C2976 C 0.47188 0.73438 0.23645 0.0
H2977 H 0.51917 0.75125 0.34511 0.0
H2978 H 0.51632 0.73895 0.30686 0.0
H2979 H 0.50192 0.71036 0.27536 0.0
H2980 H 0.44234 0.69442 0.17624 0.0
H2981 H 0.46534 0.69736 0.20948 0.0
C2982 C 0.03473 0.71064 0.07547 0.0
C2983 C 0.02931 0.73258 0.07791 0.0
C2984 C 0.04712 0.70383 0.05772 0.0
C2985 C 0.05662 0.71569 0.00123 0.0
H2986 H 0.10201 0.67388 0.00591 0.0
C2987 C 0.0919 0.6692 0.92601 0.0
C2988 C 0.0925 0.64647 0.92875 0.0
C2989 C 0.08778 0.68334 0.94384 0.0
C2990 C 0.08933 0.68554 0.0043 0.0
H2991 H 0.03323 0.7648 0.06392 0.0
H2992 H 0.05463 0.75274 0.03266 0.0
H2993 H 0.08874 0.69209 0.03864 0.0
H2994 H 0.08929 0.62063 0.95185 0.0
H2995 H 0.08265 0.64501 0.98272 0.0
H2996 H 0.05641 0.70829 0.96695 0.0
C2997 C 0.04934 0.74087 0.0446 0.0
C2998 C 0.0818 0.69599 0.02305 0.0
C2999 C 0.03724 0.74778 0.06257 0.0
C3000 C 0.08914 0.63814 0.94939 0.0
C3001 C 0.08549 0.65217 0.96712 0.0
C3002 C 0.06407 0.70508 0.98242 0.0
C3003 C 0.05411 0.71874 0.04183 0.0
C3004 C 0.06483 0.71062 0.02179 0.0
C3005 C 0.08475 0.67494 0.96465 0.0
C3006 C 0.0799 0.68927 0.98384 0.0
H3007 H 0.02887 0.69854 0.08699 0.0
H3008 H 0.05035 0.68661 0.05593 0.0
H3009 H 0.04346 0.72685 -0.00024 0.0
H3010 H 0.09418 0.67591 0.91014 0.0
H3011 H 0.08731 0.70081 0.94143 0.0
C3012 C 0.00846 0.35773 0.84792 0.0
C3013 C 0.02123 0.34437 0.86058 0.0
C3014 C 0.01756 0.36696 0.82921 0.0
C3015 C 0.05404 0.35043 0.7873 0.0
H3016 H 0.05811 0.41011 0.76719 0.0
C3017 C 0.10849 0.37541 0.71559 0.0
C3018 C 0.10235 0.39199 0.70213 0.0
C3019 C 0.09568 0.36987 0.7336 0.0
C3020 C 0.05663 0.39328 0.77237 0.0
H3021 H 0.05445 0.33241 0.86482 0.0
H3022 H 0.07009 0.34831 0.83214 0.0
H3023 H 0.04269 0.40255 0.80305 0.0
H3024 H 0.07807 0.41579 0.69687 0.0
H3025 H 0.05481 0.40553 0.72803 0.0
H3026 H 0.06741 0.34082 0.75681 0.0
C3027 C 0.05299 0.3514 0.83661 0.0
C3028 C 0.04801 0.38905 0.79296 0.0
C3029 C 0.04403 0.34241 0.8554 0.0
C3030 C 0.08264 0.40244 0.70658 0.0
C3031 C 0.06967 0.39687 0.72468 0.0
C3032 C 0.06226 0.35455 0.7667 0.0
C3033 C 0.03949 0.36284 0.82285 0.0
C3034 C 0.04728 0.36768 0.80077 0.0
C3035 C 0.07632 0.38077 0.73865 0.0
C3036 C 0.06432 0.37611 0.75919 0.0
H3037 H 0.99088 0.35971 0.85152 0.0
H3038 H 0.00689 0.37583 0.81887 0.0
H3039 H 0.05306 0.33369 0.79277 0.0
H3040 H 0.12378 0.36726 0.71265 0.0
H3041 H 0.10164 0.35772 0.74413 0.0
C3042 C 0.4214 0.30077 0.55965 0.0
C3043 C 0.44151 0.29182 0.56582 0.0
C3044 C 0.41989 0.31095 0.53987 0.0
C3045 C 0.45733 0.34299 0.50535 0.0
H3046 H 0.40317 0.34529 0.46963 0.0
C3047 C 0.42062 0.39747 0.43268 0.0
C3048 C 0.42808 0.41862 0.44126 0.0
C3049 C 0.4236 0.37875 0.4444 0.0
C3050 C 0.41855 0.34467 0.47925 0.0
H3051 H 0.47495 0.28461 0.55512 0.0
H3052 H 0.47223 0.30242 0.52066 0.0
H3053 H 0.40522 0.31574 0.49514 0.0
H3054 H 0.44496 0.43673 0.46882 0.0
H3055 H 0.44989 0.40426 0.48942 0.0
H3056 H 0.47067 0.37194 0.48982 0.0
C3057 C 0.4578 0.30182 0.53127 0.0
C3058 C 0.41961 0.32788 0.49394 0.0
C3059 C 0.45931 0.2916 0.551 0.0
C3060 C 0.43902 0.42065 0.46169 0.0
C3061 C 0.44199 0.402 0.47344 0.0
C3062 C 0.45629 0.35974 0.49072 0.0
C3063 C 0.43843 0.31234 0.52591 0.0
C3064 C 0.43872 0.32733 0.50761 0.0
C3065 C 0.43425 0.38083 0.46497 0.0
C3066 C 0.43658 0.36122 0.47806 0.0
H3067 H 0.40733 0.30111 0.57063 0.0
H3068 H 0.40482 0.31911 0.53625 0.0
H3069 H 0.47228 0.34305 0.51572 0.0
H3070 H 0.41245 0.39523 0.41699 0.0
H3071 H 0.41761 0.36267 0.43733 0.0
C3072 C 0.19597 0.54336 0.37495 0.0
C3073 C 0.19341 0.55287 0.3548 0.0
C3074 C 0.21588 0.53373 0.38009 0.0
C3075 C 0.27414 0.52506 0.36007 0.0
H3076 H 0.26101 0.46745 0.38375 0.0
C3077 C 0.32044 0.4414 0.38144 0.0
C3078 C 0.3323 0.43844 0.36224 0.0
C3079 C 0.30608 0.45829 0.38364 0.0
C3080 C 0.26514 0.48361 0.37742 0.0
H3081 H 0.21041 0.56118 0.32493 0.0
H3082 H 0.24444 0.54379 0.33343 0.0
H3083 H 0.23187 0.49297 0.38342 0.0
H3084 H 0.33883 0.45047 0.3303 0.0
H3085 H 0.31363 0.48025 0.33401 0.0
H3086 H 0.30704 0.51498 0.35288 0.0
C3087 C 0.23144 0.54402 0.34555 0.0
C3088 C 0.2484 0.49836 0.37734 0.0
C3089 C 0.21172 0.55387 0.34056 0.0
C3090 C 0.32998 0.45275 0.34534 0.0
C3091 C 0.31566 0.46979 0.34755 0.0
C3092 C 0.29077 0.51012 0.35981 0.0
C3093 C 0.23348 0.53315 0.36504 0.0
C3094 C 0.2525 0.51911 0.36825 0.0
C3095 C 0.30325 0.4725 0.36662 0.0
C3096 C 0.28635 0.48911 0.36823 0.0
H3097 H 0.1823 0.54263 0.38642 0.0
H3098 H 0.21713 0.526 0.3955 0.0
H3099 H 0.27808 0.54107 0.35337 0.0
H3100 H 0.32195 0.43033 0.3946 0.0
H3101 H 0.29704 0.46009 0.39863 0.0
C3102 C 0.32289 0.48749 0.06635 0.0
C3103 C 0.30282 0.47535 0.05887 0.0
C3104 C 0.32252 0.50929 0.0741 0.0
C3105 C 0.28822 0.55508 0.08953 0.0
H3106 H 0.33319 0.58803 0.05579 0.0
C3107 C 0.33118 0.64751 0.06777 0.0
C3108 C 0.33678 0.65551 0.08898 0.0
C3109 C 0.31782 0.62759 0.06423 0.0
C3110 C 0.32017 0.57925 0.06505 0.0
H3111 H 0.26629 0.47565 0.05594 0.0
H3112 H 0.26572 0.51403 0.06933 0.0
H3113 H 0.32982 0.54825 0.0529 0.0
H3114 H 0.32941 0.65155 0.12279 0.0
H3115 H 0.30719 0.616 0.11687 0.0
H3116 H 0.27892 0.58655 0.1019 0.0
C3117 C 0.28169 0.5066 0.06925 0.0
C3118 C 0.31858 0.55633 0.06371 0.0
C3119 C 0.28204 0.48461 0.06163 0.0
C3120 C 0.32564 0.64538 0.10634 0.0
C3121 C 0.31286 0.62499 0.10289 0.0
C3122 C 0.28996 0.57829 0.09105 0.0
C3123 C 0.30211 0.51949 0.07432 0.0
C3124 C 0.3029 0.54394 0.07615 0.0
C3125 C 0.31057 0.61504 0.08189 0.0
C3126 C 0.30607 0.59063 0.07884 0.0
H3127 H 0.33912 0.48071 0.06464 0.0
H3128 H 0.33847 0.51872 0.07839 0.0
H3129 H 0.27584 0.54588 0.09917 0.0
H3130 H 0.33941 0.65518 0.05409 0.0
H3131 H 0.31555 0.62077 0.04777 0.0
C3132 C 0.2935 0.50642 0.80639 0.0
C3133 C 0.31696 0.5124 0.80829 0.0
C3134 C 0.27827 0.51789 0.8186 0.0
C3135 C 0.27737 0.57381 0.84314 0.0
H3136 H 0.21532 0.554 0.85649 0.0
C3137 C 0.21852 0.6367 0.87205 0.0
C3138 C 0.19737 0.63582 0.86138 0.0
C3139 C 0.23139 0.61865 0.87093 0.0
C3140 C 0.23263 0.55973 0.85297 0.0
H3141 H 0.34304 0.53307 0.82631 0.0
H3142 H 0.31664 0.55222 0.84849 0.0
H3143 H 0.24199 0.52683 0.84677 0.0
H3144 H 0.17225 0.61511 0.84228 0.0
H3145 H 0.19536 0.58345 0.83944 0.0
H3146 H 0.26817 0.60653 0.84883 0.0
C3147 C 0.30984 0.53945 0.83683 0.0
C3148 C 0.24793 0.54419 0.84732 0.0
C3149 C 0.32502 0.52835 0.82428 0.0
C3150 C 0.18864 0.61613 0.85049 0.0
C3151 C 0.2018 0.59803 0.84901 0.0
C3152 C 0.26227 0.58918 0.84898 0.0
C3153 C 0.28625 0.53532 0.83321 0.0
C3154 C 0.27046 0.55109 0.84204 0.0
C3155 C 0.2237 0.59946 0.8586 0.0
C3156 C 0.23967 0.58242 0.85381 0.0
H3157 H 0.28677 0.49421 0.79416 0.0
H3158 H 0.26029 0.5142 0.81529 0.0
H3159 H 0.29426 0.57996 0.83853 0.0
H3160 H 0.22537 0.65161 0.88092 0.0
H3161 H 0.24786 0.62008 0.87904 0.0
C3162 C 0.2422 0.60813 0.52492 0.0
C3163 C 0.22757 0.62512 0.5264 0.0
C3164 C 0.23658 0.58796 0.53436 0.0
C3165 C 0.20878 0.54361 0.53958 0.0
H3166 H 0.18823 0.53738 0.59854 0.0
C3167 C 0.14884 0.47167 0.56897 0.0
C3168 C 0.15397 0.46258 0.58884 0.0
C3169 C 0.16235 0.48963 0.56149 0.0
C3170 C 0.19422 0.53887 0.58213 0.0
H3171 H 0.19611 0.63461 0.5399 0.0
H3172 H 0.18654 0.59937 0.55692 0.0
H3173 H 0.20261 0.57385 0.58651 0.0
H3174 H 0.17828 0.46421 0.61567 0.0
H3175 H 0.20149 0.49631 0.60288 0.0
H3176 H 0.19932 0.50889 0.53484 0.0
C3177 C 0.20227 0.60174 0.54825 0.0
C3178 C 0.20223 0.55971 0.57522 0.0
C3179 C 0.20771 0.62185 0.53846 0.0
C3180 C 0.17382 0.47091 0.60035 0.0
C3181 C 0.18703 0.48933 0.59313 0.0
C3182 C 0.20035 0.52289 0.54634 0.0
C3183 C 0.21641 0.58445 0.54583 0.0
C3184 C 0.20936 0.56229 0.55381 0.0
C3185 C 0.18104 0.49915 0.57391 0.0
C3186 C 0.19275 0.52038 0.56759 0.0
H3187 H 0.25762 0.61003 0.5157 0.0
H3188 H 0.24781 0.57494 0.53235 0.0
H3189 H 0.21405 0.54517 0.52294 0.0
H3190 H 0.13376 0.46552 0.55965 0.0
H3191 H 0.15736 0.49691 0.54662 0.0
C3192 C 0.19177 0.61298 0.23625 0.0
C3193 C 0.18986 0.59936 0.25408 0.0
C3194 C 0.2124 0.61621 0.22549 0.0
C3195 C 0.27353 0.6149 0.23619 0.0
H3196 H 0.27823 0.6244 0.17464 0.0
C3197 C 0.34212 0.67248 0.19953 0.0
C3198 C 0.35034 0.66762 0.17882 0.0
C3199 C 0.32576 0.65813 0.2088 0.0
C3200 C 0.27728 0.62133 0.19178 0.0
H3201 H 0.20779 0.57747 0.27379 0.0
H3202 H 0.2434 0.58293 0.25497 0.0
H3203 H 0.24171 0.61091 0.1894 0.0
H3204 H 0.35002 0.64264 0.15278 0.0
H3205 H 0.32038 0.61774 0.16866 0.0
H3206 H 0.30884 0.62599 0.23871 0.0
C3207 C 0.2292 0.5915 0.24955 0.0
C3208 C 0.2563 0.61393 0.20028 0.0
C3209 C 0.20871 0.58835 0.26031 0.0
C3210 C 0.34349 0.64705 0.16848 0.0
C3211 C 0.32659 0.63284 0.17756 0.0
C3212 C 0.2944 0.62237 0.22773 0.0
C3213 C 0.23147 0.60582 0.23231 0.0
C3214 C 0.25408 0.61117 0.22268 0.0
C3215 C 0.31703 0.63867 0.19749 0.0
C3216 C 0.29637 0.62628 0.20555 0.0
H3217 H 0.17757 0.62165 0.23102 0.0
H3218 H 0.21363 0.62752 0.21239 0.0
H3219 H 0.27243 0.61313 0.25354 0.0
H3220 H 0.34734 0.68805 0.20808 0.0
H3221 H 0.31875 0.66313 0.22415 0.0
C3222 C 0.28452 0.46722 0.94345 0.0
C3223 C 0.27276 0.45368 0.95826 0.0
C3224 C 0.2729 0.48114 0.93058 0.0
C3225 C 0.21429 0.49404 0.91447 0.0
H3226 H 0.24315 0.55322 0.90933 0.0
C3227 C 0.16254 0.56138 0.88329 0.0
C3228 C 0.16615 0.58242 0.89353 0.0
C3229 C 0.17794 0.54568 0.88619 0.0
C3230 C 0.23474 0.53684 0.91081 0.0
H3231 H 0.23941 0.44337 0.97027 0.0
H3232 H 0.21944 0.46783 0.94861 0.0
H3233 H 0.26483 0.52469 0.92357 0.0
H3234 H 0.18933 0.60412 0.9138 0.0
H3235 H 0.21576 0.57625 0.92009 0.0
H3236 H 0.18377 0.50636 0.90363 0.0
C3237 C 0.23752 0.46753 0.9464 0.0
C3238 C 0.24733 0.52029 0.91861 0.0
C3239 C 0.24905 0.45348 0.95901 0.0
C3240 C 0.18606 0.58788 0.90595 0.0
C3241 C 0.20128 0.57191 0.90935 0.0
C3242 C 0.20162 0.51061 0.90717 0.0
C3243 C 0.24931 0.48196 0.93236 0.0
C3244 C 0.23709 0.49878 0.92108 0.0
C3245 C 0.1971 0.55037 0.89995 0.0
C3246 C 0.2115 0.53239 0.90563 0.0
H3247 H 0.3028 0.4677 0.94239 0.0
H3248 H 0.28251 0.49164 0.91964 0.0
H3249 H 0.2059 0.47759 0.91554 0.0
H3250 H 0.14763 0.55699 0.87306 0.0
H3251 H 0.17454 0.52971 0.87785 0.0
C3252 C 0.31137 0.50577 0.68813 0.0
C3253 C 0.32337 0.52042 0.70326 0.0
C3254 C 0.29288 0.51235 0.67653 0.0
C3255 C 0.24821 0.54725 0.68861 0.0
H3256 H 0.22192 0.51442 0.63787 0.0
C3257 C 0.17219 0.4889 0.69089 0.0
C3258 C 0.16079 0.48063 0.67179 0.0
C3259 C 0.18763 0.50752 0.69057 0.0
C3260 C 0.22884 0.52441 0.65174 0.0
H3261 H 0.32714 0.55427 0.71615 0.0
H3262 H 0.29469 0.56574 0.6959 0.0
H3263 H 0.26286 0.52129 0.64162 0.0
H3264 H 0.15331 0.4874 0.63843 0.0
H3265 H 0.18105 0.51969 0.63754 0.0
H3266 H 0.21422 0.54905 0.69941 0.0
C3267 C 0.29944 0.54908 0.69319 0.0
C3268 C 0.25242 0.52812 0.654 0.0
C3269 C 0.31812 0.54253 0.70471 0.0
C3270 C 0.1623 0.49327 0.65325 0.0
C3271 C 0.17821 0.51171 0.65275 0.0
C3272 C 0.22462 0.54366 0.68628 0.0
C3273 C 0.28585 0.53371 0.67989 0.0
C3274 C 0.26235 0.53792 0.6733 0.0
C3275 C 0.19225 0.51798 0.671 0.0
C3276 C 0.21479 0.53051 0.66875 0.0
H3277 H 0.31514 0.48869 0.68647 0.0
H3278 H 0.28284 0.49995 0.66654 0.0
H3279 H 0.25518 0.55509 0.70361 0.0
H3280 H 0.17113 0.47953 0.70545 0.0
H3281 H 0.19798 0.51181 0.70501 0.0
C3282 C 0.25534 0.6266 0.41435 0.0
C3283 C 0.24635 0.62922 0.43513 0.0
C3284 C 0.26343 0.60662 0.40765 0.0
C3285 C 0.26758 0.54819 0.4213 0.0
H3286 H 0.32937 0.56016 0.4023 0.0
C3287 C 0.33591 0.48581 0.4271 0.0
C3288 C 0.35234 0.48626 0.41103 0.0
C3289 C 0.31955 0.50111 0.42716 0.0
C3290 C 0.31201 0.55633 0.40713 0.0
H3291 H 0.23712 0.61239 0.46449 0.0
H3292 H 0.25169 0.57771 0.4529 0.0
H3293 H 0.3053 0.59007 0.40598 0.0
H3294 H 0.36441 0.50178 0.38202 0.0
H3295 H 0.336 0.52828 0.38191 0.0
H3296 H 0.27466 0.51433 0.4228 0.0
C3297 C 0.25228 0.591 0.44173 0.0
C3298 C 0.29816 0.57356 0.40921 0.0
C3299 C 0.24412 0.61097 0.44843 0.0
C3300 C 0.35192 0.50146 0.39468 0.0
C3301 C 0.33571 0.51664 0.39471 0.0
C3302 C 0.28148 0.53081 0.41908 0.0
C3303 C 0.2628 0.58892 0.42161 0.0
C3304 C 0.27594 0.56979 0.41665 0.0
C3305 C 0.31956 0.51696 0.41115 0.0
C3306 C 0.30399 0.53478 0.41226 0.0
H3307 H 0.25697 0.64023 0.40358 0.0
H3308 H 0.27113 0.60533 0.39189 0.0
H3309 H 0.25044 0.54482 0.42693 0.0
H3310 H 0.33607 0.47406 0.4398 0.0
H3311 H 0.3075 0.50103 0.44017 0.0
C3312 C 0.33936 0.2399 0.51559 0.0
C3313 C 0.31924 0.23206 0.52557 0.0
C3314 C 0.34418 0.26246 0.51273 0.0
C3315 C 0.35297 0.3121 0.51084 0.0
H3316 H 0.30091 0.33402 0.48276 0.0
C3317 C 0.36357 0.3838 0.4526 0.0
C3318 C 0.35291 0.37782 0.4324 0.0
C3319 C 0.35802 0.37165 0.47087 0.0
C3320 C 0.31558 0.32832 0.4908 0.0
H3321 H 0.28936 0.24193 0.54205 0.0
H3322 H 0.29782 0.28126 0.537 0.0
H3323 H 0.29575 0.30113 0.50374 0.0
H3324 H 0.32701 0.35535 0.41596 0.0
H3325 H 0.31752 0.33437 0.44739 0.0
H3326 H 0.37285 0.33869 0.49676 0.0
C3327 C 0.30971 0.26994 0.53117 0.0
C3328 C 0.31261 0.30956 0.50303 0.0
C3329 C 0.30491 0.24739 0.53407 0.0
C3330 C 0.33576 0.36031 0.43116 0.0
C3331 C 0.33008 0.3484 0.44935 0.0
C3332 C 0.3559 0.33099 0.49869 0.0
C3333 C 0.32896 0.27764 0.51975 0.0
C3334 C 0.33145 0.30053 0.51215 0.0
C3335 C 0.3414 0.3536 0.46933 0.0
C3336 C 0.33744 0.33841 0.48738 0.0
H3337 H 0.35083 0.22855 0.509 0.0
H3338 H 0.35906 0.26778 0.50368 0.0
H3339 H 0.36772 0.30578 0.5181 0.0
H3340 H 0.3767 0.39736 0.45416 0.0
H3341 H 0.36702 0.37608 0.48606 0.0
C3342 C 0.8202 0.35474 0.49954 0.0
C3343 C 0.81253 0.3713 0.51345 0.0
C3344 C 0.83347 0.33891 0.50768 0.0
C3345 C 0.86429 0.3233 0.5574 0.0
H3346 H 0.83738 0.2644 0.54115 0.0
C3347 C 0.84048 0.23844 0.6023 0.0
C3348 C 0.86012 0.23761 0.61503 0.0
C3349 C 0.84045 0.25269 0.5851 0.0
C3350 C 0.84516 0.28072 0.54582 0.0
H3351 H 0.81472 0.38547 0.54632 0.0
H3352 H 0.83751 0.35794 0.56048 0.0
H3353 H 0.82833 0.29541 0.51996 0.0
H3354 H 0.89529 0.25007 0.61973 0.0
H3355 H 0.89546 0.27479 0.58945 0.0
H3356 H 0.87971 0.3089 0.58422 0.0
C3357 C 0.83342 0.35708 0.54328 0.0
C3358 C 0.84023 0.29851 0.53347 0.0
C3359 C 0.82017 0.37287 0.53517 0.0
C3360 C 0.87998 0.25049 0.60995 0.0
C3361 C 0.87999 0.26472 0.59276 0.0
C3362 C 0.86911 0.30554 0.5698 0.0
C3363 C 0.83942 0.33936 0.52986 0.0
C3364 C 0.84894 0.32016 0.53969 0.0
C3365 C 0.86005 0.26645 0.58048 0.0
C3366 C 0.85881 0.28419 0.56471 0.0
H3367 H 0.81479 0.35314 0.48266 0.0
H3368 H 0.83817 0.32572 0.49681 0.0
H3369 H 0.87165 0.33968 0.56238 0.0
H3370 H 0.82494 0.22878 0.60622 0.0
H3371 H 0.82467 0.25381 0.57625 0.0
C3372 C 0.44467 0.11131 0.28145 0.0
C3373 C 0.4358 0.09884 0.26312 0.0
C3374 C 0.46647 0.12211 0.28127 0.0
C3375 C 0.51397 0.14417 0.27797 0.0
H3376 H 0.55186 0.09731 0.26272 0.0
C3377 C 0.59891 0.14067 0.32151 0.0
C3378 C 0.59694 0.12146 0.33347 0.0
C3379 C 0.58481 0.14239 0.3033 0.0
C3380 C 0.5417 0.11084 0.26661 0.0
H3381 H 0.44181 0.08987 0.22947 0.0
H3382 H 0.48011 0.10857 0.22927 0.0
H3383 H 0.51312 0.09543 0.24854 0.0
H3384 H 0.58128 0.08799 0.33415 0.0
H3385 H 0.55748 0.09058 0.30214 0.0
H3386 H 0.54195 0.15848 0.29769 0.0
C3387 C 0.4702 0.10992 0.24378 0.0
C3388 C 0.51949 0.10986 0.25839 0.0
C3389 C 0.44822 0.09931 0.24388 0.0
C3390 C 0.58299 0.10305 0.32532 0.0
C3391 C 0.5694 0.10454 0.30688 0.0
C3392 C 0.53624 0.1452 0.28613 0.0
C3393 C 0.47996 0.12048 0.26282 0.0
C3394 C 0.50492 0.12575 0.26514 0.0
C3395 C 0.56917 0.12462 0.29644 0.0
C3396 C 0.54977 0.12776 0.28168 0.0
H3397 H 0.43544 0.11139 0.29646 0.0
H3398 H 0.47344 0.12996 0.29628 0.0
H3399 H 0.50325 0.15684 0.28318 0.0
H3400 H 0.60972 0.15504 0.32737 0.0
H3401 H 0.58509 0.158 0.29547 0.0
C3402 C 0.71207 0.73383 0.02337 0.0
C3403 C 0.71608 0.71698 0.03752 0.0
C3404 C 0.7005 0.75178 0.03039 0.0
C3405 C 0.66506 0.77258 0.0746 0.0
H3406 H 0.69711 0.82934 0.06377 0.0
C3407 C 0.66455 0.84672 0.13361 0.0
C3408 C 0.66455 0.8681 0.12606 0.0
C3409 C 0.66559 0.82869 0.11918 0.0
C3410 C 0.68761 0.81371 0.06655 0.0
H3411 H 0.70982 0.70514 0.06971 0.0
H3412 H 0.68971 0.73646 0.08198 0.0
H3413 H 0.70814 0.79608 0.04491 0.0
H3414 H 0.66555 0.88773 0.0976 0.0
H3415 H 0.66765 0.85584 0.0719 0.0
H3416 H 0.64518 0.79014 0.09693 0.0
C3417 C 0.69541 0.73576 0.0654 0.0
C3418 C 0.69394 0.7946 0.05576 0.0
C3419 C 0.70705 0.71782 0.05841 0.0
C3420 C 0.66522 0.87127 0.10368 0.0
C3421 C 0.66665 0.85311 0.0891 0.0
C3422 C 0.65875 0.79166 0.08537 0.0
C3423 C 0.69257 0.75326 0.05167 0.0
C3424 C 0.68326 0.77373 0.06025 0.0
C3425 C 0.66705 0.83164 0.09679 0.0
C3426 C 0.67053 0.81233 0.08208 0.0
H3427 H 0.71865 0.73364 0.0071 0.0
H3428 H 0.69829 0.76481 0.01931 0.0
H3429 H 0.65617 0.75683 0.07805 0.0
H3430 H 0.66433 0.84399 0.15086 0.0
H3431 H 0.66626 0.81251 0.1257 0.0
C3432 C 0.55978 0.47531 0.23101 0.0
C3433 C 0.56722 0.49684 0.22524 0.0
C3434 C 0.5388 0.47111 0.24091 0.0
C3435 C 0.48789 0.47 0.25704 0.0
H3436 H 0.49413 0.50513 0.31097 0.0
C3437 C 0.43139 0.45134 0.33097 0.0
C3438 C 0.42928 0.46824 0.34678 0.0
C3439 C 0.44479 0.45525 0.31286 0.0
C3440 C 0.49154 0.49558 0.29582 0.0
H3441 H 0.5574 0.53029 0.22322 0.0
H3442 H 0.52124 0.52295 0.24088 0.0
H3443 H 0.52251 0.51047 0.28353 0.0
H3444 H 0.43737 0.50293 0.3551 0.0
H3445 H 0.459 0.51039 0.32266 0.0
H3446 H 0.4566 0.45539 0.26904 0.0
C3447 C 0.53162 0.50941 0.23775 0.0
C3448 C 0.50804 0.49855 0.28016 0.0
C3449 C 0.55237 0.51356 0.22768 0.0
C3450 C 0.4391 0.48955 0.34329 0.0
C3451 C 0.45176 0.49368 0.32479 0.0
C3452 C 0.47094 0.46737 0.27256 0.0
C3453 C 0.52512 0.4884 0.24524 0.0
C3454 C 0.50648 0.4857 0.26075 0.0
C3455 C 0.45574 0.47638 0.30981 0.0
C3456 C 0.47264 0.48002 0.29231 0.0
H3457 H 0.57076 0.46205 0.22925 0.0
H3458 H 0.5341 0.45479 0.24666 0.0
H3459 H 0.48645 0.45988 0.24214 0.0
H3460 H 0.42387 0.43475 0.33328 0.0
H3461 H 0.44742 0.4414 0.30193 0.0
C3462 C 0.19395 0.83994 0.01535 0.0
C3463 C 0.19316 0.84961 0.99506 0.0
C3464 C 0.18319 0.81884 0.01812 0.0
C3465 C 0.1823 0.76947 0.00766 0.0
H3466 H 0.12968 0.74381 0.97439 0.0
C3467 C 0.18411 0.70309 0.94326 0.0
C3468 C 0.16483 0.68876 0.93757 0.0
C3469 C 0.18415 0.71734 0.96149 0.0
C3470 C 0.14409 0.75051 0.98437 0.0
H3471 H 0.17824 0.84599 0.96268 0.0
H3472 H 0.15938 0.80949 0.96751 0.0
H3473 H 0.13242 0.78287 0.98562 0.0
H3474 H 0.13235 0.67521 0.9486 0.0
H3475 H 0.13151 0.70149 0.97989 0.0
H3476 H 0.1949 0.73759 0.00468 0.0
C3477 C 0.16836 0.81799 0.98129 0.0
C3478 C 0.14575 0.77295 0.99062 0.0
C3479 C 0.17932 0.8389 0.97844 0.0
C3480 C 0.14686 0.68685 0.95211 0.0
C3481 C 0.14652 0.70168 0.9701 0.0
C3482 C 0.1807 0.74708 0.00129 0.0
C3483 C 0.17118 0.80722 0.00076 0.0
C3484 C 0.16555 0.78295 0.00107 0.0
C3485 C 0.16476 0.71781 0.97426 0.0
C3486 C 0.16231 0.73778 0.98831 0.0
H3487 H 0.20443 0.8478 0.02851 0.0
H3488 H 0.1855 0.81104 0.03336 0.0
H3489 H 0.19779 0.7766 0.01571 0.0
H3490 H 0.19852 0.70457 0.93264 0.0
H3491 H 0.19851 0.72952 0.96422 0.0
C3492 C 0.4222 0.98341 0.23217 0.0
C3493 C 0.42118 0.99098 0.25391 0.0
C3494 C 0.43919 0.97025 0.22552 0.0
C3495 C 0.49772 0.96192 0.24062 0.0
H3496 H 0.49145 0.92176 0.19013 0.0
C3497 C 0.55238 0.91801 0.1687 0.0
C3498 C 0.56678 0.93669 0.16405 0.0
C3499 C 0.537 0.91894 0.18557 0.0
C3500 C 0.49365 0.93251 0.20456 0.0
H3501 H 0.43602 0.98896 0.28609 0.0
H3502 H 0.46553 0.96576 0.27447 0.0
H3503 H 0.45778 0.93197 0.20853 0.0
H3504 H 0.57704 0.97073 0.17335 0.0
H3505 H 0.55007 0.97265 0.20271 0.0
H3506 H 0.53363 0.96275 0.23638 0.0
C3507 C 0.45344 0.9704 0.2625 0.0
C3508 C 0.47424 0.93861 0.21495 0.0
C3509 C 0.4364 0.98357 0.26917 0.0
C3510 C 0.56653 0.95596 0.17716 0.0
C3511 C 0.55101 0.95699 0.19396 0.0
C3512 C 0.51719 0.95571 0.2303 0.0
C3513 C 0.45555 0.96429 0.24046 0.0
C3514 C 0.47599 0.95411 0.23252 0.0
C3515 C 0.53535 0.93878 0.19772 0.0
C3516 C 0.51536 0.94164 0.21159 0.0
H3517 H 0.41072 0.98871 0.21998 0.0
H3518 H 0.44034 0.96603 0.20838 0.0
H3519 H 0.49974 0.97395 0.25409 0.0
H3520 H 0.55207 0.9031 0.15845 0.0
H3521 H 0.52555 0.90448 0.18827 0.0
C3522 C 0.08797 0.10029 0.6889 0.0
C3523 C 0.08759 0.08777 0.70753 0.0
C3524 C 0.06997 0.11276 0.68402 0.0
C3525 C 0.00895 0.11153 0.69226 0.0
H3526 H 0.01508 0.16541 0.66071 0.0
C3527 C 0.93226 0.14389 0.64818 0.0
C3528 C 0.93675 0.14846 0.62652 0.0
C3529 C 0.95019 0.14098 0.66264 0.0
C3530 C 0.01308 0.1504 0.66958 0.0
H3531 H 0.06872 0.07985 0.73648 0.0
H3532 H 0.03738 0.10169 0.72795 0.0
H3533 H 0.04841 0.15248 0.6783 0.0
H3534 H 0.96309 0.15448 0.60304 0.0
H3535 H 0.99425 0.15017 0.62823 0.0
H3536 H 0.97387 0.10886 0.68271 0.0
C3537 C 0.05146 0.10159 0.71697 0.0
C3538 C 0.03216 0.14299 0.67963 0.0
C3539 C 0.0695 0.08916 0.7219 0.0
C3540 C 0.95927 0.15107 0.61974 0.0
C3541 C 0.97712 0.14874 0.63423 0.0
C3542 C 0.98987 0.11891 0.68218 0.0
C3543 C 0.05117 0.11299 0.69765 0.0
C3544 C 0.03046 0.12306 0.69045 0.0
C3545 C 0.97282 0.14328 0.65576 0.0
C3546 C 0.99189 0.13799 0.67005 0.0
H3547 H 0.10167 0.09966 0.67752 0.0
H3548 H 0.07023 0.1212 0.6689 0.0
H3549 H 0.00705 0.096 0.70029 0.0
H3550 H 0.91495 0.14163 0.65365 0.0
H3551 H 0.94635 0.13673 0.67913 0.0
loop_
_geom_bond_atom_site_label_1
_geom_bond_atom_site_label_2
_geom_bond_distance
_geom_bond_site_symmetry_2
_ccdc_geom_bond_type
Zn0 O3 2.031 . S
Zn0 O5 2.049 . S
Zn0 O10 2.067 1_655 S
Zn1 O2 1.962 1_455 S
Zn1 O4 1.986 . S
Zn1 O6 1.996 1_455 S
Zn1 O9 1.943 . S
O2 Zn1 1.962 1_655 S
O2 C7 1.254 . S
O3 Zn0 2.031 . S
O3 C7 1.269 . S
O4 Zn1 1.986 . S
O4 C11 1.262 . S
O5 Zn0 2.049 . S
O5 C13 1.260 . S
O6 Zn1 1.996 1_655 S
O6 C13 1.257 . S
C7 O2 1.254 . S
C7 O3 1.269 . S
C8 O9 1.249 . S
C8 O10 1.270 . S
O9 Zn1 1.943 . S
O9 C8 1.249 . S
O10 Zn0 2.067 1_455 S
O10 C8 1.270 . S
C11 O4 1.262 . S
C11 O12 1.232 . S
O12 C11 1.232 . S
C13 O5 1.260 . S
C13 O6 1.257 . S
Zn14 O17 2.031 1_655 S
Zn14 O19 2.049 . S
Zn14 O24 2.067 . S
Zn15 O16 1.962 . S
Zn15 O18 1.986 . S
Zn15 O20 1.996 1_455 S
Zn15 O23 1.943 1_455 S
O16 Zn15 1.962 . S
O16 C21 1.254 . S
O17 Zn14 2.031 1_455 S
O17 C21 1.269 . S
O18 Zn15 1.986 . S
O18 C25 1.262 . S
O19 Zn14 2.049 . S
O19 C27 1.260 . S
O20 Zn15 1.996 1_655 S
O20 C27 1.257 . S
C21 O16 1.254 . S
C21 O17 1.269 . S
C22 O23 1.249 . S
C22 O24 1.270 . S
O23 Zn15 1.943 1_655 S
O23 C22 1.249 . S
O24 Zn14 2.067 . S
O24 C22 1.270 . S
C25 O18 1.262 . S
C25 O26 1.232 . S
O26 C25 1.232 . S
C27 O19 1.260 . S
C27 O20 1.257 . S
Zn28 O31 2.031 . S
Zn28 O33 2.049 . S
Zn28 O38 2.067 . S
Zn29 O30 1.962 . S
Zn29 O32 1.986 . S
Zn29 O34 1.996 . S
Zn29 O37 1.943 . S
O30 Zn29 1.962 . S
O30 C35 1.254 . S
O31 Zn28 2.031 . S
O31 C35 1.269 . S
O32 Zn29 1.986 . S
O32 C39 1.262 . S
O33 Zn28 2.049 . S
O33 C41 1.260 . S
O34 Zn29 1.996 . S
O34 C41 1.257 . S
C35 O30 1.254 . S
C35 O31 1.269 . S
C36 O37 1.249 . S
C36 O38 1.270 . S
O37 Zn29 1.943 . S
O37 C36 1.249 . S
O38 Zn28 2.067 . S
O38 C36 1.270 . S
C39 O32 1.262 . S
C39 O40 1.232 . S
O40 C39 1.232 . S
C41 O33 1.260 . S
C41 O34 1.257 . S
Zn42 O45 2.031 . S
Zn42 O47 2.049 . S
Zn42 O52 2.067 . S
Zn43 O44 1.962 . S
Zn43 O46 1.986 . S
Zn43 O48 1.996 . S
Zn43 O51 1.943 . S
O44 Zn43 1.962 . S
O44 C49 1.254 . S
O45 Zn42 2.031 . S
O45 C49 1.269 . S
O46 Zn43 1.986 . S
O46 C53 1.262 . S
O47 Zn42 2.049 . S
O47 C55 1.260 . S
O48 Zn43 1.996 . S
O48 C55 1.257 . S
C49 O44 1.254 . S
C49 O45 1.269 . S
C50 O51 1.249 . S
C50 O52 1.270 . S
O51 Zn43 1.943 . S
O51 C50 1.249 . S
O52 Zn42 2.067 . S
O52 C50 1.270 . S
C53 O46 1.262 . S
C53 O54 1.232 . S
O54 C53 1.232 . S
C55 O47 1.260 . S
C55 O48 1.257 . S
Zn56 O59 2.031 . S
Zn56 O61 2.049 . S
Zn56 O66 2.067 1_655 S
Zn57 O58 1.967 . S
Zn57 O60 1.982 1_655 S
Zn57 O62 2.002 . S
Zn57 O65 1.938 1_655 S
O58 Zn57 1.967 . S
O58 C63 1.254 . S
O59 Zn56 2.031 . S
O59 C63 1.269 . S
O60 Zn57 1.982 1_455 S
O60 C67 1.262 . S
O61 Zn56 2.049 . S
O61 C69 1.260 . S
O62 Zn57 2.002 . S
O62 C69 1.257 . S
C63 O58 1.254 . S
C63 O59 1.269 . S
C64 O65 1.249 . S
C64 O66 1.270 . S
O65 Zn57 1.938 1_455 S
O65 C64 1.249 . S
O66 Zn56 2.067 1_455 S
O66 C64 1.270 . S
C67 O60 1.262 . S
C67 O68 1.232 . S
O68 C67 1.232 . S
C69 O61 1.260 . S
C69 O62 1.257 . S
Zn70 O73 2.031 . S
Zn70 O75 2.049 . S
Zn70 O80 2.067 . S
Zn71 O72 1.962 . S
Zn71 O74 1.986 . S
Zn71 O76 1.996 . S
Zn71 O79 1.943 . S
O72 Zn71 1.962 . S
O72 C77 1.254 . S
O73 Zn70 2.031 . S
O73 C77 1.269 . S
O74 Zn71 1.986 . S
O74 C81 1.262 . S
O75 Zn70 2.049 . S
O75 C83 1.260 . S
O76 Zn71 1.996 . S
O76 C83 1.257 . S
C77 O72 1.254 . S
C77 O73 1.269 . S
C78 O79 1.249 . S
C78 O80 1.270 . S
O79 Zn71 1.943 . S
O79 C78 1.249 . S
O80 Zn70 2.067 . S
O80 C78 1.270 . S
C81 O74 1.262 . S
C81 O82 1.232 . S
O82 C81 1.232 . S
C83 O75 1.260 . S
C83 O76 1.257 . S
Zn84 O87 2.031 . S
Zn84 O89 2.049 . S
Zn84 O94 2.067 . S
Zn85 O86 1.962 . S
Zn85 O88 1.986 . S
Zn85 O90 1.996 . S
Zn85 O93 1.943 . S
O86 Zn85 1.962 . S
O86 C91 1.254 . S
O87 Zn84 2.031 . S
O87 C91 1.269 . S
O88 Zn85 1.986 . S
O88 C95 1.262 . S
O89 Zn84 2.049 . S
O89 C97 1.260 . S
O90 Zn85 1.996 . S
O90 C97 1.257 . S
C91 O86 1.254 . S
C91 O87 1.269 . S
C92 O93 1.249 . S
C92 O94 1.270 . S
O93 Zn85 1.943 . S
O93 C92 1.249 . S
O94 Zn84 2.067 . S
O94 C92 1.270 . S
C95 O88 1.262 . S
C95 O96 1.232 . S
O96 C95 1.232 . S
C97 O89 1.260 . S
C97 O90 1.257 . S
Zn98 O101 2.031 . S
Zn98 O103 2.049 1_455 S
Zn98 O108 2.067 1_455 S
Zn99 O100 1.962 . S
Zn99 O102 1.986 . S
Zn99 O104 1.996 . S
Zn99 O107 1.943 . S
O100 Zn99 1.962 . S
O100 C105 1.254 . S
O101 Zn98 2.031 . S
O101 C105 1.269 . S
O102 Zn99 1.986 . S
O102 C109 1.262 . S
O103 Zn98 2.049 1_655 S
O103 C111 1.260 1_655 S
O104 Zn99 1.996 . S
O104 C111 1.257 . S
C105 O100 1.254 . S
C105 O101 1.269 . S
C106 O107 1.249 . S
C106 O108 1.270 1_455 S
O107 Zn99 1.943 . S
O107 C106 1.249 . S
O108 Zn98 2.067 1_655 S
O108 C106 1.270 1_655 S
C109 O102 1.262 . S
C109 O110 1.232 . S
O110 C109 1.232 . S
C111 O103 1.260 1_455 S
C111 O104 1.257 . S
Zn112 O115 2.031 . S
Zn112 O117 2.049 . S
Zn112 O122 2.098 . S
Zn113 O114 1.952 1_545 S
Zn113 O116 1.994 . S
Zn113 O118 1.984 1_545 S
Zn113 O121 1.952 . S
O114 Zn113 1.952 1_565 S
O114 C119 1.254 . S
O115 Zn112 2.031 . S
O115 C119 1.269 . S
O116 Zn113 1.994 . S
O116 C123 1.262 . S
O117 Zn112 2.049 . S
O117 C125 1.260 . S
O118 Zn113 1.984 1_565 S
O118 C125 1.257 . S
C119 O114 1.254 . S
C119 O115 1.269 . S
C120 O121 1.249 . S
C120 O122 1.241 1_545 S
O121 Zn113 1.952 . S
O121 C120 1.249 . S
O122 Zn112 2.098 . S
O122 C120 1.241 1_565 S
C123 O116 1.262 . S
C123 O124 1.232 . S
O124 C123 1.232 . S
C125 O117 1.260 . S
C125 O118 1.257 . S
Zn126 O129 2.031 . S
Zn126 O131 2.049 . S
Zn126 O136 2.067 . S
Zn127 O128 1.962 . S
Zn127 O130 1.986 . S
Zn127 O132 1.996 . S
Zn127 O135 1.943 . S
O128 Zn127 1.962 . S
O128 C133 1.254 . S
O129 Zn126 2.031 . S
O129 C133 1.269 . S
O130 Zn127 1.986 . S
O130 C137 1.262 . S
O131 Zn126 2.049 . S
O131 C139 1.260 . S
O132 Zn127 1.996 . S
O132 C139 1.257 . S
C133 O128 1.254 . S
C133 O129 1.269 . S
C134 O135 1.249 . S
C134 O136 1.270 . S
O135 Zn127 1.943 . S
O135 C134 1.249 . S
O136 Zn126 2.067 . S
O136 C134 1.270 . S
C137 O130 1.262 . S
C137 O138 1.232 . S
O138 C137 1.232 . S
C139 O131 1.260 . S
C139 O132 1.257 . S
Zn140 O143 2.031 . S
Zn140 O145 2.049 . S
Zn140 O150 2.067 . S
Zn141 O142 1.962 . S
Zn141 O144 1.986 . S
Zn141 O146 1.996 . S
Zn141 O149 1.943 . S
O142 Zn141 1.962 . S
O142 C147 1.254 . S
O143 Zn140 2.031 . S
O143 C147 1.269 . S
O144 Zn141 1.986 . S
O144 C151 1.262 . S
O145 Zn140 2.049 . S
O145 C153 1.260 . S
O146 Zn141 1.996 . S
O146 C153 1.257 . S
C147 O142 1.254 . S
C147 O143 1.269 . S
C148 O149 1.249 . S
C148 O150 1.270 . S
O149 Zn141 1.943 . S
O149 C148 1.249 . S
O150 Zn140 2.067 . S
O150 C148 1.270 . S
C151 O144 1.262 . S
C151 O152 1.232 . S
O152 C151 1.232 . S
C153 O145 1.260 . S
C153 O146 1.257 . S
Zn154 O157 2.031 1_556 S
Zn154 O159 2.049 . S
Zn154 O164 2.067 . S
Zn155 O156 1.962 . S
Zn155 O158 1.986 . S
Zn155 O160 1.996 . S
Zn155 O163 1.943 . S
O156 Zn155 1.962 . S
O156 C161 1.254 . S
O157 Zn154 2.031 1_554 S
O157 C161 1.269 . S
O158 Zn155 1.986 . S
O158 C165 1.262 . S
O159 Zn154 2.049 . S
O159 C167 1.260 . S
O160 Zn155 1.996 . S
O160 C167 1.257 1_554 S
C161 O156 1.254 . S
C161 O157 1.269 . S
C162 O163 1.249 1_556 S
C162 O164 1.270 . S
O163 Zn155 1.943 . S
O163 C162 1.249 1_554 S
O164 Zn154 2.067 . S
O164 C162 1.270 . S
C165 O158 1.262 . S
C165 O166 1.232 . S
O166 C165 1.232 . S
C167 O159 1.260 . S
C167 O160 1.257 1_556 S
Zn168 O171 2.031 . S
Zn168 O173 2.049 . S
Zn168 O178 2.067 1_556 S
Zn169 O170 1.962 1_554 S
Zn169 O172 1.986 . S
Zn169 O174 1.996 1_554 S
Zn169 O177 1.943 . S
O170 Zn169 1.962 1_556 S
O170 C175 1.254 . S
O171 Zn168 2.031 . S
O171 C175 1.269 . S
O172 Zn169 1.986 . S
O172 C179 1.262 . S
O173 Zn168 2.049 . S
O173 C181 1.260 . S
O174 Zn169 1.996 1_556 S
O174 C181 1.257 . S
C175 O170 1.254 . S
C175 O171 1.269 . S
C176 O177 1.249 . S
C176 O178 1.270 . S
O177 Zn169 1.943 . S
O177 C176 1.249 . S
O178 Zn168 2.067 1_554 S
O178 C176 1.270 . S
C179 O172 1.262 . S
C179 O180 1.232 . S
O180 C179 1.232 . S
C181 O173 1.260 . S
C181 O174 1.257 . S
Zn182 O185 2.031 . S
Zn182 O187 2.049 . S
Zn182 O192 2.067 1_556 S
Zn183 O184 1.962 1_554 S
Zn183 O186 1.986 . S
Zn183 O188 1.996 1_554 S
Zn183 O191 1.943 . S
O184 Zn183 1.962 1_556 S
O184 C189 1.254 . S
O185 Zn182 2.031 . S
O185 C189 1.269 . S
O186 Zn183 1.986 . S
O186 C193 1.262 . S
O187 Zn182 2.049 . S
O187 C195 1.260 . S
O188 Zn183 1.996 1_556 S
O188 C195 1.257 . S
C189 O184 1.254 . S
C189 O185 1.269 . S
C190 O191 1.249 . S
C190 O192 1.270 . S
O191 Zn183 1.943 . S
O191 C190 1.249 . S
O192 Zn182 2.067 1_554 S
O192 C190 1.270 . S
C193 O186 1.262 . S
C193 O194 1.232 . S
O194 C193 1.232 . S
C195 O187 1.260 . S
C195 O188 1.257 . S
Zn196 O199 2.031 . S
Zn196 O201 2.049 . S
Zn196 O206 2.067 . S
Zn197 O198 1.962 . S
Zn197 O200 1.986 . S
Zn197 O202 1.996 . S
Zn197 O205 1.943 . S
O198 Zn197 1.962 . S
O198 C203 1.254 . S
O199 Zn196 2.031 . S
O199 C203 1.269 . S
O200 Zn197 1.986 . S
O200 C207 1.262 . S
O201 Zn196 2.049 . S
O201 C209 1.260 . S
O202 Zn197 1.996 . S
O202 C209 1.257 . S
C203 O198 1.254 . S
C203 O199 1.269 . S
C204 O205 1.249 . S
C204 O206 1.270 . S
O205 Zn197 1.943 . S
O205 C204 1.249 . S
O206 Zn196 2.067 . S
O206 C204 1.270 . S
C207 O200 1.262 . S
C207 O208 1.232 . S
O208 C207 1.232 . S
C209 O201 1.260 . S
C209 O202 1.257 . S
Zn210 O213 2.031 . S
Zn210 O215 2.049 . S
Zn210 O220 2.067 . S
Zn211 O212 1.962 . S
Zn211 O214 1.986 . S
Zn211 O216 1.996 . S
Zn211 O219 1.943 . S
O212 Zn211 1.962 . S
O212 C217 1.254 . S
O213 Zn210 2.031 . S
O213 C217 1.269 . S
O214 Zn211 1.986 . S
O214 C221 1.262 . S
O215 Zn210 2.049 . S
O215 C223 1.260 . S
O216 Zn211 1.996 . S
O216 C223 1.257 . S
C217 O212 1.254 . S
C217 O213 1.269 . S
C218 O219 1.249 . S
C218 O220 1.270 . S
O219 Zn211 1.943 . S
O219 C218 1.249 . S
O220 Zn210 2.067 . S
O220 C218 1.270 . S
C221 O214 1.262 . S
C221 O222 1.232 . S
O222 C221 1.232 . S
C223 O215 1.260 . S
C223 O216 1.257 . S
Zn224 O227 2.031 1_565 S
Zn224 O229 2.049 . S
Zn224 O234 2.067 . S
Zn225 O226 1.962 . S
Zn225 O228 1.986 . S
Zn225 O230 1.996 1_545 S
Zn225 O233 1.943 1_545 S
O226 Zn225 1.962 . S
O226 C231 1.254 . S
O227 Zn224 2.031 1_545 S
O227 C231 1.269 . S
O228 Zn225 1.986 . S
O228 C235 1.262 . S
O229 Zn224 2.049 . S
O229 C237 1.260 . S
O230 Zn225 1.996 1_565 S
O230 C237 1.257 . S
C231 O226 1.254 . S
C231 O227 1.269 . S
C232 O233 1.249 . S
C232 O234 1.270 . S
O233 Zn225 1.943 1_565 S
O233 C232 1.249 . S
O234 Zn224 2.067 . S
O234 C232 1.270 . S
C235 O228 1.262 . S
C235 O236 1.232 . S
O236 C235 1.232 . S
C237 O229 1.260 . S
C237 O230 1.257 . S
Zn238 O241 2.031 . S
Zn238 O243 2.049 . S
Zn238 O248 2.067 . S
Zn239 O240 1.962 . S
Zn239 O242 1.986 . S
Zn239 O244 1.996 . S
Zn239 O247 1.943 . S
O240 Zn239 1.962 . S
O240 C245 1.254 . S
O241 Zn238 2.031 . S
O241 C245 1.269 . S
O242 Zn239 1.986 . S
O242 C249 1.262 . S
O243 Zn238 2.049 . S
O243 C251 1.260 . S
O244 Zn239 1.996 . S
O244 C251 1.257 . S
C245 O240 1.254 . S
C245 O241 1.269 . S
C246 O247 1.249 . S
C246 O248 1.270 . S
O247 Zn239 1.943 . S
O247 C246 1.249 . S
O248 Zn238 2.067 . S
O248 C246 1.270 . S
C249 O242 1.262 . S
C249 O250 1.232 . S
O250 C249 1.232 . S
C251 O243 1.260 . S
C251 O244 1.257 . S
Zn252 O255 2.031 . S
Zn252 O257 2.049 . S
Zn252 O262 2.067 . S
Zn253 O254 1.962 . S
Zn253 O256 1.986 . S
Zn253 O258 1.996 . S
Zn253 O261 1.943 . S
O254 Zn253 1.962 . S
O254 C259 1.254 . S
O255 Zn252 2.031 . S
O255 C259 1.269 . S
O256 Zn253 1.986 . S
O256 C263 1.262 . S
O257 Zn252 2.049 . S
O257 C265 1.260 . S
O258 Zn253 1.996 . S
O258 C265 1.257 . S
C259 O254 1.254 . S
C259 O255 1.269 . S
C260 O261 1.249 . S
C260 O262 1.270 . S
O261 Zn253 1.943 . S
O261 C260 1.249 . S
O262 Zn252 2.067 . S
O262 C260 1.270 . S
C263 O256 1.262 . S
C263 O264 1.232 . S
O264 C263 1.232 . S
C265 O257 1.260 . S
C265 O258 1.257 . S
Zn266 O269 2.031 . S
Zn266 O271 2.049 . S
Zn266 O276 2.067 . S
Zn267 O268 1.962 . S
Zn267 O270 1.986 . S
Zn267 O272 1.996 . S
Zn267 O275 1.943 . S
O268 Zn267 1.962 . S
O268 C273 1.254 . S
O269 Zn266 2.031 . S
O269 C273 1.269 . S
O270 Zn267 1.986 . S
O270 C277 1.262 . S
O271 Zn266 2.049 . S
O271 C279 1.260 . S
O272 Zn267 1.996 . S
O272 C279 1.257 . S
C273 O268 1.254 . S
C273 O269 1.269 . S
C274 O275 1.249 . S
C274 O276 1.270 . S
O275 Zn267 1.943 . S
O275 C274 1.249 . S
O276 Zn266 2.067 . S
O276 C274 1.270 . S
C277 O270 1.262 . S
C277 O278 1.232 . S
O278 C277 1.232 . S
C279 O271 1.260 . S
C279 O272 1.257 . S
Zn280 O283 2.031 1_556 S
Zn280 O285 2.049 . S
Zn280 O290 2.067 . S
Zn281 O282 1.962 . S
Zn281 O284 1.986 . S
Zn281 O286 1.996 . S
Zn281 O289 1.943 . S
O282 Zn281 1.962 . S
O282 C287 1.254 . S
O283 Zn280 2.031 1_554 S
O283 C287 1.269 . S
O284 Zn281 1.986 . S
O284 C291 1.262 . S
O285 Zn280 2.049 . S
O285 C293 1.260 . S
O286 Zn281 1.996 . S
O286 C293 1.257 1_554 S
C287 O282 1.254 . S
C287 O283 1.269 . S
C288 O289 1.249 1_556 S
C288 O290 1.270 . S
O289 Zn281 1.943 . S
O289 C288 1.249 1_554 S
O290 Zn280 2.067 . S
O290 C288 1.270 . S
C291 O284 1.262 . S
C291 O292 1.232 . S
O292 C291 1.232 . S
C293 O285 1.260 . S
C293 O286 1.257 1_556 S
Zn294 O297 2.031 . S
Zn294 O299 2.049 . S
Zn294 O304 2.067 . S
Zn295 O296 1.962 . S
Zn295 O298 1.986 . S
Zn295 O300 1.996 . S
Zn295 O303 1.943 . S
O296 Zn295 1.962 . S
O296 C301 1.254 . S
O297 Zn294 2.031 . S
O297 C301 1.269 . S
O298 Zn295 1.986 . S
O298 C305 1.262 . S
O299 Zn294 2.049 . S
O299 C307 1.260 . S
O300 Zn295 1.996 . S
O300 C307 1.257 . S
C301 O296 1.254 . S
C301 O297 1.269 . S
C302 O303 1.249 . S
C302 O304 1.270 . S
O303 Zn295 1.943 . S
O303 C302 1.249 . S
O304 Zn294 2.067 . S
O304 C302 1.270 . S
C305 O298 1.262 . S
C305 O306 1.232 . S
O306 C305 1.232 . S
C307 O299 1.260 . S
C307 O300 1.257 . S
Zn308 O311 2.031 . S
Zn308 O313 2.049 . S
Zn308 O318 2.067 . S
Zn309 O310 1.962 . S
Zn309 O312 1.986 . S
Zn309 O314 1.996 . S
Zn309 O317 1.943 . S
O310 Zn309 1.962 . S
O310 C315 1.254 . S
O311 Zn308 2.031 . S
O311 C315 1.269 . S
O312 Zn309 1.986 . S
O312 C319 1.262 . S
O313 Zn308 2.049 . S
O313 C321 1.260 . S
O314 Zn309 1.996 . S
O314 C321 1.257 . S
C315 O310 1.254 . S
C315 O311 1.269 . S
C316 O317 1.249 . S
C316 O318 1.270 . S
O317 Zn309 1.943 . S
O317 C316 1.249 . S
O318 Zn308 2.067 . S
O318 C316 1.270 . S
C319 O312 1.262 . S
C319 O320 1.232 . S
O320 C319 1.232 . S
C321 O313 1.260 . S
C321 O314 1.257 . S
Zn322 O325 2.031 . S
Zn322 O327 2.049 . S
Zn322 O332 2.067 . S
Zn323 O324 1.962 . S
Zn323 O326 1.986 . S
Zn323 O328 1.996 . S
Zn323 O331 1.943 . S
O324 Zn323 1.962 . S
O324 C329 1.254 . S
O325 Zn322 2.031 . S
O325 C329 1.269 . S
O326 Zn323 1.986 . S
O326 C333 1.262 . S
O327 Zn322 2.049 . S
O327 C335 1.260 . S
O328 Zn323 1.996 . S
O328 C335 1.257 . S
C329 O324 1.254 . S
C329 O325 1.269 . S
C330 O331 1.249 . S
C330 O332 1.270 . S
O331 Zn323 1.943 . S
O331 C330 1.249 . S
O332 Zn322 2.067 . S
O332 C330 1.270 . S
C333 O326 1.262 . S
C333 O334 1.232 . S
O334 C333 1.232 . S
C335 O327 1.260 . S
C335 O328 1.257 . S
O336 Mn337 2.163 . S
O336 C350 1.244 . S
Mn337 O336 2.163 . S
Mn337 O340 2.160 . S
Mn337 O341 2.221 . S
Mn337 O343 2.163 . S
Mn337 O345 2.160 . S
Mn337 O355 2.221 . S
O338 Mn339 2.087 . S
O338 C350 1.256 . S
Mn339 O338 2.087 . S
Mn339 O346 2.089 . S
Mn339 O355 2.290 . S
Mn339 O356 2.251 . S
O340 Mn337 2.160 . S
O340 C351 1.239 . S
O341 Mn337 2.221 . S
O341 Mn342 2.290 . S
O341 C352 1.278 . S
Mn342 O341 2.290 . S
Mn342 O344 2.089 . S
Mn342 O347 2.251 . S
Mn342 O348 2.087 . S
O343 Mn337 2.163 . S
O343 C353 1.244 . S
O344 Mn342 2.089 . S
O344 C351 1.256 . S
O345 Mn337 2.160 . S
O345 C354 1.239 . S
O346 Mn339 2.089 . S
O346 C354 1.256 . S
O347 Mn342 2.251 . S
O347 C352 1.241 . S
O348 Mn342 2.087 . S
O348 C353 1.256 . S
C349 O355 1.278 . S
C349 O356 1.241 . S
C350 O336 1.244 . S
C350 O338 1.256 . S
C351 O340 1.239 . S
C351 O344 1.256 . S
C352 O341 1.278 . S
C352 O347 1.241 . S
C353 O343 1.244 . S
C353 O348 1.256 . S
C354 O345 1.239 . S
C354 O346 1.256 . S
O355 Mn337 2.221 . S
O355 Mn339 2.290 . S
O355 C349 1.278 . S
O356 Mn339 2.251 . S
O356 C349 1.241 . S
O357 Mn358 2.163 . S
O357 C371 1.244 . S
Mn358 O357 2.163 . S
Mn358 O361 2.160 . S
Mn358 O362 2.221 . S
Mn358 O364 2.163 . S
Mn358 O366 2.160 . S
Mn358 O376 2.221 . S
O359 Mn360 2.087 . S
O359 C371 1.256 . S
Mn360 O359 2.087 . S
Mn360 O367 2.089 . S
Mn360 O376 2.290 . S
Mn360 O377 2.251 . S
O361 Mn358 2.160 . S
O361 C372 1.239 . S
O362 Mn358 2.221 . S
O362 Mn363 2.290 . S
O362 C373 1.278 . S
Mn363 O362 2.290 . S
Mn363 O365 2.089 . S
Mn363 O368 2.251 . S
Mn363 O369 2.087 . S
O364 Mn358 2.163 . S
O364 C374 1.244 . S
O365 Mn363 2.089 . S
O365 C372 1.256 . S
O366 Mn358 2.160 . S
O366 C375 1.239 . S
O367 Mn360 2.089 . S
O367 C375 1.256 . S
O368 Mn363 2.251 . S
O368 C373 1.241 . S
O369 Mn363 2.087 . S
O369 C374 1.256 . S
C370 O376 1.278 . S
C370 O377 1.241 . S
C371 O357 1.244 . S
C371 O359 1.256 . S
C372 O361 1.239 . S
C372 O365 1.256 . S
C373 O362 1.278 . S
C373 O368 1.241 . S
C374 O364 1.244 . S
C374 O369 1.256 . S
C375 O366 1.239 . S
C375 O367 1.256 . S
O376 Mn358 2.221 . S
O376 Mn360 2.290 . S
O376 C370 1.278 . S
O377 Mn360 2.251 . S
O377 C370 1.241 . S
O378 Mn379 2.163 . S
O378 C392 1.244 . S
Mn379 O378 2.163 . S
Mn379 O382 2.160 . S
Mn379 O383 2.221 . S
Mn379 O385 2.163 . S
Mn379 O387 2.160 . S
Mn379 O397 2.221 . S
O380 Mn381 2.087 . S
O380 C392 1.256 . S
Mn381 O380 2.087 . S
Mn381 O388 2.089 . S
Mn381 O397 2.290 . S
Mn381 O398 2.251 . S
O382 Mn379 2.160 . S
O382 C393 1.239 . S
O383 Mn379 2.221 . S
O383 Mn384 2.290 . S
O383 C394 1.278 . S
Mn384 O383 2.290 . S
Mn384 O386 2.089 . S
Mn384 O389 2.251 . S
Mn384 O390 2.087 . S
O385 Mn379 2.163 . S
O385 C395 1.244 . S
O386 Mn384 2.089 . S
O386 C393 1.256 . S
O387 Mn379 2.160 . S
O387 C396 1.239 . S
O388 Mn381 2.089 . S
O388 C396 1.256 . S
O389 Mn384 2.251 . S
O389 C394 1.241 . S
O390 Mn384 2.087 . S
O390 C395 1.256 . S
C391 O397 1.278 . S
C391 O398 1.241 . S
C392 O378 1.244 . S
C392 O380 1.256 . S
C393 O382 1.239 . S
C393 O386 1.256 . S
C394 O383 1.278 . S
C394 O389 1.241 . S
C395 O385 1.244 . S
C395 O390 1.256 . S
C396 O387 1.239 . S
C396 O388 1.256 . S
O397 Mn379 2.221 . S
O397 Mn381 2.290 . S
O397 C391 1.278 . S
O398 Mn381 2.251 . S
O398 C391 1.241 . S
O399 Mn400 2.163 . S
O399 C413 1.244 . S
Mn400 O399 2.163 . S
Mn400 O403 2.160 . S
Mn400 O404 2.221 . S
Mn400 O406 2.163 . S
Mn400 O408 2.160 . S
Mn400 O418 2.221 . S
O401 Mn402 2.087 . S
O401 C413 1.256 . S
Mn402 O401 2.087 . S
Mn402 O409 2.089 . S
Mn402 O418 2.290 . S
Mn402 O419 2.251 . S
O403 Mn400 2.160 . S
O403 C414 1.239 . S
O404 Mn400 2.221 . S
O404 Mn405 2.290 . S
O404 C415 1.278 . S
Mn405 O404 2.290 . S
Mn405 O407 2.089 . S
Mn405 O410 2.251 . S
Mn405 O411 2.087 . S
O406 Mn400 2.163 . S
O406 C416 1.244 . S
O407 Mn405 2.089 . S
O407 C414 1.256 . S
O408 Mn400 2.160 . S
O408 C417 1.239 . S
O409 Mn402 2.089 . S
O409 C417 1.256 . S
O410 Mn405 2.251 . S
O410 C415 1.241 . S
O411 Mn405 2.087 . S
O411 C416 1.256 . S
C412 O418 1.278 . S
C412 O419 1.241 . S
C413 O399 1.244 . S
C413 O401 1.256 . S
C414 O403 1.239 . S
C414 O407 1.256 . S
C415 O404 1.278 . S
C415 O410 1.241 . S
C416 O406 1.244 . S
C416 O411 1.256 . S
C417 O408 1.239 . S
C417 O409 1.256 . S
O418 Mn400 2.221 . S
O418 Mn402 2.290 . S
O418 C412 1.278 . S
O419 Mn402 2.251 . S
O419 C412 1.241 . S
O420 Mn421 2.163 . S
O420 C434 1.244 . S
Mn421 O420 2.163 . S
Mn421 O424 2.160 . S
Mn421 O425 2.221 . S
Mn421 O427 2.163 . S
Mn421 O429 2.160 . S
Mn421 O439 2.221 . S
O422 Mn423 2.087 . S
O422 C434 1.256 . S
Mn423 O422 2.087 . S
Mn423 O430 2.089 . S
Mn423 O439 2.290 . S
Mn423 O440 2.251 . S
O424 Mn421 2.160 . S
O424 C435 1.239 . S
O425 Mn421 2.221 . S
O425 Mn426 2.290 . S
O425 C436 1.278 . S
Mn426 O425 2.290 . S
Mn426 O428 2.089 . S
Mn426 O431 2.251 . S
Mn426 O432 2.087 . S
O427 Mn421 2.163 . S
O427 C437 1.244 . S
O428 Mn426 2.089 . S
O428 C435 1.256 . S
O429 Mn421 2.160 . S
O429 C438 1.239 . S
O430 Mn423 2.089 . S
O430 C438 1.256 . S
O431 Mn426 2.251 . S
O431 C436 1.241 . S
O432 Mn426 2.087 . S
O432 C437 1.256 . S
C433 O439 1.278 . S
C433 O440 1.241 . S
C434 O420 1.244 . S
C434 O422 1.256 . S
C435 O424 1.239 . S
C435 O428 1.256 . S
C436 O425 1.278 . S
C436 O431 1.241 . S
C437 O427 1.244 . S
C437 O432 1.256 . S
C438 O429 1.239 . S
C438 O430 1.256 . S
O439 Mn421 2.221 . S
O439 Mn423 2.290 . S
O439 C433 1.278 . S
O440 Mn423 2.251 . S
O440 C433 1.241 . S
O441 Mn442 2.163 . S
O441 C455 1.244 . S
Mn442 O441 2.163 . S
Mn442 O445 2.160 . S
Mn442 O446 2.221 . S
Mn442 O448 2.163 . S
Mn442 O450 2.160 . S
Mn442 O460 2.221 . S
O443 Mn444 2.087 . S
O443 C455 1.256 . S
Mn444 O443 2.087 . S
Mn444 O451 2.089 . S
Mn444 O460 2.290 . S
Mn444 O461 2.251 . S
O445 Mn442 2.160 . S
O445 C456 1.239 . S
O446 Mn442 2.221 . S
O446 Mn447 2.290 . S
O446 C457 1.278 . S
Mn447 O446 2.290 . S
Mn447 O449 2.089 . S
Mn447 O452 2.251 . S
Mn447 O453 2.087 . S
O448 Mn442 2.163 . S
O448 C458 1.244 . S
O449 Mn447 2.089 . S
O449 C456 1.256 . S
O450 Mn442 2.160 . S
O450 C459 1.239 . S
O451 Mn444 2.089 . S
O451 C459 1.256 . S
O452 Mn447 2.251 . S
O452 C457 1.241 . S
O453 Mn447 2.087 . S
O453 C458 1.256 . S
C454 O460 1.278 . S
C454 O461 1.241 . S
C455 O441 1.244 . S
C455 O443 1.256 . S
C456 O445 1.239 . S
C456 O449 1.256 . S
C457 O446 1.278 . S
C457 O452 1.241 . S
C458 O448 1.244 . S
C458 O453 1.256 . S
C459 O450 1.239 . S
C459 O451 1.256 . S
O460 Mn442 2.221 . S
O460 Mn444 2.290 . S
O460 C454 1.278 . S
O461 Mn444 2.251 . S
O461 C454 1.241 . S
O462 Mn463 2.163 . S
O462 C476 1.244 . S
Mn463 O462 2.163 . S
Mn463 O466 2.160 . S
Mn463 O467 2.221 . S
Mn463 O469 2.163 . S
Mn463 O471 2.160 . S
Mn463 O481 2.221 . S
O464 Mn465 2.087 . S
O464 C476 1.256 . S
Mn465 O464 2.087 . S
Mn465 O472 2.089 . S
Mn465 O481 2.290 . S
Mn465 O482 2.251 . S
O466 Mn463 2.160 . S
O466 C477 1.239 . S
O467 Mn463 2.221 . S
O467 Mn468 2.290 . S
O467 C478 1.278 . S
Mn468 O467 2.290 . S
Mn468 O470 2.089 . S
Mn468 O473 2.251 . S
Mn468 O474 2.087 . S
O469 Mn463 2.163 . S
O469 C479 1.244 . S
O470 Mn468 2.089 . S
O470 C477 1.256 . S
O471 Mn463 2.160 . S
O471 C480 1.239 . S
O472 Mn465 2.089 . S
O472 C480 1.256 . S
O473 Mn468 2.251 . S
O473 C478 1.241 . S
O474 Mn468 2.087 . S
O474 C479 1.256 . S
C475 O481 1.278 . S
C475 O482 1.241 . S
C476 O462 1.244 . S
C476 O464 1.256 . S
C477 O466 1.239 . S
C477 O470 1.256 . S
C478 O467 1.278 . S
C478 O473 1.241 . S
C479 O469 1.244 . S
C479 O474 1.256 . S
C480 O471 1.239 . S
C480 O472 1.256 . S
O481 Mn463 2.221 . S
O481 Mn465 2.290 . S
O481 C475 1.278 . S
O482 Mn465 2.251 . S
O482 C475 1.241 . S
O483 Mn484 2.163 . S
O483 C497 1.244 . S
Mn484 O483 2.163 . S
Mn484 O487 2.160 . S
Mn484 O488 2.221 . S
Mn484 O490 2.163 . S
Mn484 O492 2.160 . S
Mn484 O502 2.221 . S
O485 Mn486 2.087 . S
O485 C497 1.256 . S
Mn486 O485 2.087 . S
Mn486 O493 2.089 . S
Mn486 O502 2.290 . S
Mn486 O503 2.251 . S
O487 Mn484 2.160 . S
O487 C498 1.239 . S
O488 Mn484 2.221 . S
O488 Mn489 2.290 . S
O488 C499 1.278 . S
Mn489 O488 2.290 . S
Mn489 O491 2.089 . S
Mn489 O494 2.251 . S
Mn489 O495 2.087 . S
O490 Mn484 2.163 . S
O490 C500 1.244 . S
O491 Mn489 2.089 . S
O491 C498 1.256 . S
O492 Mn484 2.160 . S
O492 C501 1.239 . S
O493 Mn486 2.089 . S
O493 C501 1.256 . S
O494 Mn489 2.251 . S
O494 C499 1.241 . S
O495 Mn489 2.087 . S
O495 C500 1.256 . S
C496 O502 1.278 . S
C496 O503 1.241 . S
C497 O483 1.244 . S
C497 O485 1.256 . S
C498 O487 1.239 . S
C498 O491 1.256 . S
C499 O488 1.278 . S
C499 O494 1.241 . S
C500 O490 1.244 . S
C500 O495 1.256 . S
C501 O492 1.239 . S
C501 O493 1.256 . S
O502 Mn484 2.221 . S
O502 Mn486 2.290 . S
O502 C496 1.278 . S
O503 Mn486 2.251 . S
O503 C496 1.241 . S
O504 Mn505 2.163 . S
O504 C518 1.244 . S
Mn505 O504 2.163 . S
Mn505 O508 2.160 . S
Mn505 O509 2.221 . S
Mn505 O511 2.163 . S
Mn505 O513 2.160 . S
Mn505 O523 2.221 . S
O506 Mn507 2.087 . S
O506 C518 1.256 . S
Mn507 O506 2.087 . S
Mn507 O514 2.089 . S
Mn507 O523 2.290 . S
Mn507 O524 2.251 . S
O508 Mn505 2.160 . S
O508 C519 1.239 . S
O509 Mn505 2.221 . S
O509 Mn510 2.290 . S
O509 C520 1.278 . S
Mn510 O509 2.290 . S
Mn510 O512 2.089 . S
Mn510 O515 2.251 . S
Mn510 O516 2.087 . S
O511 Mn505 2.163 . S
O511 C521 1.244 . S
O512 Mn510 2.089 . S
O512 C519 1.256 . S
O513 Mn505 2.160 . S
O513 C522 1.239 . S
O514 Mn507 2.089 . S
O514 C522 1.256 . S
O515 Mn510 2.251 . S
O515 C520 1.241 . S
O516 Mn510 2.087 . S
O516 C521 1.256 . S
C517 O523 1.278 . S
C517 O524 1.241 . S
C518 O504 1.244 . S
C518 O506 1.256 . S
C519 O508 1.239 . S
C519 O512 1.256 . S
C520 O509 1.278 . S
C520 O515 1.241 . S
C521 O511 1.244 . S
C521 O516 1.256 . S
C522 O513 1.239 . S
C522 O514 1.256 . S
O523 Mn505 2.221 . S
O523 Mn507 2.290 . S
O523 C517 1.278 . S
O524 Mn507 2.251 . S
O524 C517 1.241 . S
O525 Mn526 2.163 . S
O525 C539 1.244 . S
Mn526 O525 2.163 . S
Mn526 O529 2.160 . S
Mn526 O530 2.221 . S
Mn526 O532 2.163 . S
Mn526 O534 2.160 . S
Mn526 O544 2.221 . S
O527 Mn528 2.087 . S
O527 C539 1.256 . S
Mn528 O527 2.087 . S
Mn528 O535 2.089 . S
Mn528 O544 2.290 . S
Mn528 O545 2.251 . S
O529 Mn526 2.160 . S
O529 C540 1.239 . S
O530 Mn526 2.221 . S
O530 Mn531 2.290 . S
O530 C541 1.278 . S
Mn531 O530 2.290 . S
Mn531 O533 2.089 . S
Mn531 O536 2.251 . S
Mn531 O537 2.087 . S
O532 Mn526 2.163 . S
O532 C542 1.244 . S
O533 Mn531 2.089 . S
O533 C540 1.256 . S
O534 Mn526 2.160 . S
O534 C543 1.239 . S
O535 Mn528 2.089 . S
O535 C543 1.256 . S
O536 Mn531 2.251 . S
O536 C541 1.241 . S
O537 Mn531 2.087 . S
O537 C542 1.256 . S
C538 O544 1.278 . S
C538 O545 1.241 . S
C539 O525 1.244 . S
C539 O527 1.256 . S
C540 O529 1.239 . S
C540 O533 1.256 . S
C541 O530 1.278 . S
C541 O536 1.241 . S
C542 O532 1.244 . S
C542 O537 1.256 . S
C543 O534 1.239 . S
C543 O535 1.256 . S
O544 Mn526 2.221 . S
O544 Mn528 2.290 . S
O544 C538 1.278 . S
O545 Mn528 2.251 . S
O545 C538 1.241 . S
O546 Mn547 2.163 . S
O546 C560 1.244 . S
Mn547 O546 2.163 . S
Mn547 O550 2.160 . S
Mn547 O551 2.221 . S
Mn547 O553 2.163 . S
Mn547 O555 2.160 . S
Mn547 O565 2.221 . S
O548 Mn549 2.087 . S
O548 C560 1.256 . S
Mn549 O548 2.087 . S
Mn549 O556 2.089 . S
Mn549 O565 2.290 . S
Mn549 O566 2.251 . S
O550 Mn547 2.160 . S
O550 C561 1.239 . S
O551 Mn547 2.221 . S
O551 Mn552 2.290 . S
O551 C562 1.278 . S
Mn552 O551 2.290 . S
Mn552 O554 2.089 . S
Mn552 O557 2.251 . S
Mn552 O558 2.087 . S
O553 Mn547 2.163 . S
O553 C563 1.244 . S
O554 Mn552 2.089 . S
O554 C561 1.256 . S
O555 Mn547 2.160 . S
O555 C564 1.239 . S
O556 Mn549 2.089 . S
O556 C564 1.256 . S
O557 Mn552 2.251 . S
O557 C562 1.241 . S
O558 Mn552 2.087 . S
O558 C563 1.256 . S
C559 O565 1.278 . S
C559 O566 1.241 . S
C560 O546 1.244 . S
C560 O548 1.256 . S
C561 O550 1.239 . S
C561 O554 1.256 . S
C562 O551 1.278 . S
C562 O557 1.241 . S
C563 O553 1.244 . S
C563 O558 1.256 . S
C564 O555 1.239 . S
C564 O556 1.256 . S
O565 Mn547 2.221 . S
O565 Mn549 2.290 . S
O565 C559 1.278 . S
O566 Mn549 2.251 . S
O566 C559 1.241 . S
O567 Mn568 2.163 . S
O567 C581 1.244 . S
Mn568 O567 2.163 . S
Mn568 O571 2.160 . S
Mn568 O572 2.221 . S
Mn568 O574 2.163 . S
Mn568 O576 2.160 . S
Mn568 O586 2.221 . S
O569 Mn570 2.087 . S
O569 C581 1.256 . S
Mn570 O569 2.087 . S
Mn570 O577 2.089 . S
Mn570 O586 2.290 . S
Mn570 O587 2.251 . S
O571 Mn568 2.160 . S
O571 C582 1.239 . S
O572 Mn568 2.221 . S
O572 Mn573 2.290 . S
O572 C583 1.278 . S
Mn573 O572 2.290 . S
Mn573 O575 2.089 . S
Mn573 O578 2.251 . S
Mn573 O579 2.087 . S
O574 Mn568 2.163 . S
O574 C584 1.244 . S
O575 Mn573 2.089 . S
O575 C582 1.256 . S
O576 Mn568 2.160 . S
O576 C585 1.239 . S
O577 Mn570 2.089 . S
O577 C585 1.256 . S
O578 Mn573 2.251 . S
O578 C583 1.241 . S
O579 Mn573 2.087 . S
O579 C584 1.256 . S
C580 O586 1.278 . S
C580 O587 1.241 . S
C581 O567 1.244 . S
C581 O569 1.256 . S
C582 O571 1.239 . S
C582 O575 1.256 . S
C583 O572 1.278 . S
C583 O578 1.241 . S
C584 O574 1.244 . S
C584 O579 1.256 . S
C585 O576 1.239 . S
C585 O577 1.256 . S
O586 Mn568 2.221 . S
O586 Mn570 2.290 . S
O586 C580 1.278 . S
O587 Mn570 2.251 . S
O587 C580 1.241 . S
O588 Mn589 2.163 . S
O588 C602 1.244 . S
Mn589 O588 2.163 . S
Mn589 O592 2.160 . S
Mn589 O593 2.221 . S
Mn589 O595 2.163 . S
Mn589 O597 2.160 . S
Mn589 O607 2.221 . S
O590 Mn591 2.087 . S
O590 C602 1.256 . S
Mn591 O590 2.087 . S
Mn591 O598 2.089 . S
Mn591 O607 2.290 . S
Mn591 O608 2.251 . S
O592 Mn589 2.160 . S
O592 C603 1.239 . S
O593 Mn589 2.221 . S
O593 Mn594 2.290 . S
O593 C604 1.278 . S
Mn594 O593 2.290 . S
Mn594 O596 2.089 . S
Mn594 O599 2.251 . S
Mn594 O600 2.087 . S
O595 Mn589 2.163 . S
O595 C605 1.244 . S
O596 Mn594 2.089 . S
O596 C603 1.256 . S
O597 Mn589 2.160 . S
O597 C606 1.239 . S
O598 Mn591 2.089 . S
O598 C606 1.256 . S
O599 Mn594 2.251 . S
O599 C604 1.241 . S
O600 Mn594 2.087 . S
O600 C605 1.256 . S
C601 O607 1.278 . S
C601 O608 1.241 . S
C602 O588 1.244 . S
C602 O590 1.256 . S
C603 O592 1.239 . S
C603 O596 1.256 . S
C604 O593 1.278 . S
C604 O599 1.241 . S
C605 O595 1.244 . S
C605 O600 1.256 . S
C606 O597 1.239 . S
C606 O598 1.256 . S
O607 Mn589 2.221 . S
O607 Mn591 2.290 . S
O607 C601 1.278 . S
O608 Mn591 2.251 . S
O608 C601 1.241 . S
O609 Mn610 2.163 . S
O609 C623 1.244 . S
Mn610 O609 2.163 . S
Mn610 O613 2.160 . S
Mn610 O614 2.221 . S
Mn610 O616 2.163 . S
Mn610 O618 2.160 . S
Mn610 O628 2.221 . S
O611 Mn612 2.087 . S
O611 C623 1.256 . S
Mn612 O611 2.087 . S
Mn612 O619 2.089 . S
Mn612 O628 2.290 . S
Mn612 O629 2.251 . S
O613 Mn610 2.160 . S
O613 C624 1.239 . S
O614 Mn610 2.221 . S
O614 Mn615 2.290 . S
O614 C625 1.278 . S
Mn615 O614 2.290 . S
Mn615 O617 2.089 . S
Mn615 O620 2.251 . S
Mn615 O621 2.087 . S
O616 Mn610 2.163 . S
O616 C626 1.244 . S
O617 Mn615 2.089 . S
O617 C624 1.256 . S
O618 Mn610 2.160 . S
O618 C627 1.239 . S
O619 Mn612 2.089 . S
O619 C627 1.256 . S
O620 Mn615 2.251 . S
O620 C625 1.241 . S
O621 Mn615 2.087 . S
O621 C626 1.256 . S
C622 O628 1.278 . S
C622 O629 1.241 . S
C623 O609 1.244 . S
C623 O611 1.256 . S
C624 O613 1.239 . S
C624 O617 1.256 . S
C625 O614 1.278 . S
C625 O620 1.241 . S
C626 O616 1.244 . S
C626 O621 1.256 . S
C627 O618 1.239 . S
C627 O619 1.256 . S
O628 Mn610 2.221 . S
O628 Mn612 2.290 . S
O628 C622 1.278 . S
O629 Mn612 2.251 . S
O629 C622 1.241 . S
O630 Mn631 2.163 . S
O630 C644 1.244 . S
Mn631 O630 2.163 . S
Mn631 O634 2.160 . S
Mn631 O635 2.221 . S
Mn631 O637 2.163 . S
Mn631 O639 2.160 . S
Mn631 O649 2.221 . S
O632 Mn633 2.087 . S
O632 C644 1.256 . S
Mn633 O632 2.087 . S
Mn633 O640 2.089 . S
Mn633 O649 2.290 . S
Mn633 O650 2.251 . S
O634 Mn631 2.160 . S
O634 C645 1.239 . S
O635 Mn631 2.221 . S
O635 Mn636 2.290 . S
O635 C646 1.278 . S
Mn636 O635 2.290 . S
Mn636 O638 2.089 . S
Mn636 O641 2.251 . S
Mn636 O642 2.087 . S
O637 Mn631 2.163 . S
O637 C647 1.244 . S
O638 Mn636 2.089 . S
O638 C645 1.256 . S
O639 Mn631 2.160 . S
O639 C648 1.239 . S
O640 Mn633 2.089 . S
O640 C648 1.256 . S
O641 Mn636 2.251 . S
O641 C646 1.241 . S
O642 Mn636 2.087 . S
O642 C647 1.256 . S
C643 O649 1.278 . S
C643 O650 1.241 . S
C644 O630 1.244 . S
C644 O632 1.256 . S
C645 O634 1.239 . S
C645 O638 1.256 . S
C646 O635 1.278 . S
C646 O641 1.241 . S
C647 O637 1.244 . S
C647 O642 1.256 . S
C648 O639 1.239 . S
C648 O640 1.256 . S
O649 Mn631 2.221 . S
O649 Mn633 2.290 . S
O649 C643 1.278 . S
O650 Mn633 2.251 . S
O650 C643 1.241 . S
O651 Mn652 2.163 . S
O651 C665 1.244 . S
Mn652 O651 2.163 . S
Mn652 O655 2.160 . S
Mn652 O656 2.221 . S
Mn652 O658 2.163 . S
Mn652 O660 2.160 . S
Mn652 O670 2.221 . S
O653 Mn654 2.087 . S
O653 C665 1.256 . S
Mn654 O653 2.087 . S
Mn654 O661 2.089 . S
Mn654 O670 2.290 . S
Mn654 O671 2.251 . S
O655 Mn652 2.160 . S
O655 C666 1.239 . S
O656 Mn652 2.221 . S
O656 Mn657 2.290 . S
O656 C667 1.278 . S
Mn657 O656 2.290 . S
Mn657 O659 2.089 . S
Mn657 O662 2.251 . S
Mn657 O663 2.087 . S
O658 Mn652 2.163 . S
O658 C668 1.244 . S
O659 Mn657 2.089 . S
O659 C666 1.256 . S
O660 Mn652 2.160 . S
O660 C669 1.239 . S
O661 Mn654 2.089 . S
O661 C669 1.256 . S
O662 Mn657 2.251 . S
O662 C667 1.241 . S
O663 Mn657 2.087 . S
O663 C668 1.256 . S
C664 O670 1.278 . S
C664 O671 1.241 . S
C665 O651 1.244 . S
C665 O653 1.256 . S
C666 O655 1.239 . S
C666 O659 1.256 . S
C667 O656 1.278 . S
C667 O662 1.241 . S
C668 O658 1.244 . S
C668 O663 1.256 . S
C669 O660 1.239 . S
C669 O661 1.256 . S
O670 Mn652 2.221 . S
O670 Mn654 2.290 . S
O670 C664 1.278 . S
O671 Mn654 2.251 . S
O671 C664 1.241 . S
C672 C673 1.349 . S
C672 C674 1.327 . S
C672 H697 0.950 . S
C673 C672 1.349 . S
C673 C689 1.349 . S
C674 C672 1.327 . S
C674 C693 1.429 . S
C674 H698 0.950 . S
C675 C692 1.574 . S
C675 C694 1.368 . S
C675 H699 0.949 . S
H676 C680 0.949 . S
C677 C678 1.349 . S
C677 C679 1.327 . S
C677 H700 0.950 . S
C678 C677 1.349 . S
C678 C690 1.349 . S
C679 C677 1.327 . S
C679 C695 1.429 . S
C679 H701 0.950 . S
C680 H676 0.949 . S
C680 C688 1.574 . S
C680 C696 1.368 . S
H681 C689 0.950 . S
H682 C687 0.950 . S
H683 C688 0.949 . S
H684 C690 0.950 . S
H685 C691 0.950 . S
H686 C692 0.949 . S
C687 H682 0.950 . S
C687 C689 1.327 . S
C687 C693 1.429 . S
C688 C680 1.574 . S
C688 H683 0.949 . S
C688 C694 1.368 . S
C689 C673 1.349 . S
C689 H681 0.950 . S
C689 C687 1.327 . S
C690 C678 1.349 . S
C690 H684 0.950 . S
C690 C691 1.327 . S
C691 H685 0.950 . S
C691 C690 1.327 . S
C691 C695 1.429 . S
C692 C675 1.574 . S
C692 H686 0.949 . S
C692 C696 1.368 . S
C693 C674 1.429 . S
C693 C687 1.429 . S
C693 C694 1.523 . S
C694 C675 1.368 . S
C694 C688 1.368 . S
C694 C693 1.523 . S
C695 C679 1.429 . S
C695 C691 1.429 . S
C695 C696 1.523 . S
C696 C680 1.368 . S
C696 C692 1.368 . S
C696 C695 1.523 . S
H697 C672 0.950 . S
H698 C674 0.950 . S
H699 C675 0.949 . S
H700 C677 0.950 . S
H701 C679 0.950 . S
C702 C703 1.349 . S
C702 C704 1.327 . S
C702 H727 0.950 . S
C703 C702 1.349 . S
C703 C719 1.349 . S
C704 C702 1.327 . S
C704 C723 1.429 . S
C704 H728 0.950 . S
C705 C722 1.574 . S
C705 C724 1.368 . S
C705 H729 0.949 . S
H706 C710 0.949 . S
C707 C708 1.349 . S
C707 C709 1.327 . S
C707 H730 0.950 . S
C708 C707 1.349 . S
C708 C720 1.349 . S
C709 C707 1.327 . S
C709 C725 1.429 . S
C709 H731 0.950 . S
C710 H706 0.949 . S
C710 C718 1.574 . S
C710 C726 1.368 . S
H711 C719 0.950 . S
H712 C717 0.950 . S
H713 C718 0.949 . S
H714 C720 0.950 . S
H715 C721 0.950 . S
H716 C722 0.949 . S
C717 H712 0.950 . S
C717 C719 1.327 . S
C717 C723 1.429 . S
C718 C710 1.574 . S
C718 H713 0.949 . S
C718 C724 1.368 . S
C719 C703 1.349 . S
C719 H711 0.950 . S
C719 C717 1.327 . S
C720 C708 1.349 . S
C720 H714 0.950 . S
C720 C721 1.327 . S
C721 H715 0.950 . S
C721 C720 1.327 . S
C721 C725 1.429 . S
C722 C705 1.574 . S
C722 H716 0.949 . S
C722 C726 1.368 . S
C723 C704 1.429 . S
C723 C717 1.429 . S
C723 C724 1.523 . S
C724 C705 1.368 . S
C724 C718 1.368 . S
C724 C723 1.523 . S
C725 C709 1.429 . S
C725 C721 1.429 . S
C725 C726 1.523 . S
C726 C710 1.368 . S
C726 C722 1.368 . S
C726 C725 1.523 . S
H727 C702 0.950 . S
H728 C704 0.950 . S
H729 C705 0.949 . S
H730 C707 0.950 . S
H731 C709 0.950 . S
C732 C733 1.349 . S
C732 C734 1.327 . S
C732 H757 0.950 . S
C733 C732 1.349 . S
C733 C749 1.349 . S
C734 C732 1.327 . S
C734 C753 1.429 . S
C734 H758 0.950 . S
C735 C752 1.574 . S
C735 C754 1.368 . S
C735 H759 0.949 . S
H736 C740 0.949 . S
C737 C738 1.349 . S
C737 C739 1.327 . S
C737 H760 0.950 . S
C738 C737 1.349 . S
C738 C750 1.349 . S
C739 C737 1.327 . S
C739 C755 1.429 . S
C739 H761 0.950 . S
C740 H736 0.949 . S
C740 C748 1.574 . S
C740 C756 1.368 . S
H741 C749 0.950 . S
H742 C747 0.950 . S
H743 C748 0.949 . S
H744 C750 0.950 . S
H745 C751 0.950 . S
H746 C752 0.949 . S
C747 H742 0.950 . S
C747 C749 1.327 . S
C747 C753 1.429 . S
C748 C740 1.574 . S
C748 H743 0.949 . S
C748 C754 1.368 . S
C749 C733 1.349 . S
C749 H741 0.950 . S
C749 C747 1.327 . S
C750 C738 1.349 . S
C750 H744 0.950 . S
C750 C751 1.327 . S
C751 H745 0.950 . S
C751 C750 1.327 . S
C751 C755 1.429 . S
C752 C735 1.574 . S
C752 H746 0.949 . S
C752 C756 1.368 . S
C753 C734 1.429 . S
C753 C747 1.429 . S
C753 C754 1.523 . S
C754 C735 1.368 . S
C754 C748 1.368 . S
C754 C753 1.523 . S
C755 C739 1.429 . S
C755 C751 1.429 . S
C755 C756 1.523 . S
C756 C740 1.368 . S
C756 C752 1.368 . S
C756 C755 1.523 . S
H757 C732 0.950 . S
H758 C734 0.950 . S
H759 C735 0.949 . S
H760 C737 0.950 . S
H761 C739 0.950 . S
C762 C763 1.349 . S
C762 C764 1.327 . S
C762 H787 0.950 . S
C763 C762 1.349 . S
C763 C779 1.349 . S
C764 C762 1.327 . S
C764 C783 1.429 . S
C764 H788 0.950 . S
C765 C782 1.574 . S
C765 C784 1.368 . S
C765 H789 0.949 . S
H766 C770 0.949 . S
C767 C768 1.349 . S
C767 C769 1.327 . S
C767 H790 0.950 . S
C768 C767 1.349 . S
C768 C780 1.349 . S
C769 C767 1.327 . S
C769 C785 1.429 . S
C769 H791 0.950 . S
C770 H766 0.949 . S
C770 C778 1.574 . S
C770 C786 1.368 . S
H771 C779 0.950 . S
H772 C777 0.950 . S
H773 C778 0.949 . S
H774 C780 0.950 . S
H775 C781 0.950 . S
H776 C782 0.944 . S
C777 H772 0.950 . S
C777 C779 1.327 . S
C777 C783 1.429 . S
C778 C770 1.574 . S
C778 H773 0.949 . S
C778 C784 1.368 . S
C779 C763 1.349 . S
C779 H771 0.950 . S
C779 C777 1.327 . S
C780 C768 1.349 . S
C780 H774 0.950 . S
C780 C781 1.327 . S
C781 H775 0.950 . S
C781 C780 1.327 . S
C781 C785 1.429 . S
C782 C765 1.574 . S
C782 H776 0.944 . S
C782 C786 1.368 . S
C783 C764 1.429 . S
C783 C777 1.429 . S
C783 C784 1.523 . S
C784 C765 1.368 . S
C784 C778 1.368 . S
C784 C783 1.523 . S
C785 C769 1.429 . S
C785 C781 1.429 . S
C785 C786 1.523 1_556 S
C786 C770 1.368 . S
C786 C782 1.368 . S
C786 C785 1.523 1_554 S
H787 C762 0.950 . S
H788 C764 0.950 . S
H789 C765 0.949 . S
H790 C767 0.950 . S
H791 C769 0.950 . S
C792 C793 1.349 . S
C792 C794 1.327 . S
C792 H817 0.950 . S
C793 C792 1.349 . S
C793 C809 1.349 . S
C794 C792 1.327 . S
C794 C813 1.429 . S
C794 H818 0.950 . S
C795 C812 1.574 . S
C795 C814 1.368 . S
C795 H819 0.949 . S
H796 C800 0.949 . S
C797 C798 1.349 . S
C797 C799 1.327 . S
C797 H820 0.950 . S
C798 C797 1.349 . S
C798 C810 1.349 . S
C799 C797 1.327 . S
C799 C815 1.429 . S
C799 H821 0.950 . S
C800 H796 0.949 . S
C800 C808 1.574 . S
C800 C816 1.368 . S
H801 C809 0.950 . S
H802 C807 0.950 . S
H803 C808 0.949 . S
H804 C810 0.950 . S
H805 C811 0.950 . S
H806 C812 0.949 . S
C807 H802 0.950 . S
C807 C809 1.327 . S
C807 C813 1.429 . S
C808 C800 1.574 . S
C808 H803 0.949 . S
C808 C814 1.368 . S
C809 C793 1.349 . S
C809 H801 0.950 . S
C809 C807 1.327 . S
C810 C798 1.349 . S
C810 H804 0.950 . S
C810 C811 1.327 . S
C811 H805 0.950 . S
C811 C810 1.327 . S
C811 C815 1.429 . S
C812 C795 1.574 . S
C812 H806 0.949 . S
C812 C816 1.368 . S
C813 C794 1.429 . S
C813 C807 1.429 . S
C813 C814 1.523 . S
C814 C795 1.368 . S
C814 C808 1.368 . S
C814 C813 1.523 . S
C815 C799 1.429 . S
C815 C811 1.429 . S
C815 C816 1.523 . S
C816 C800 1.368 . S
C816 C812 1.368 . S
C816 C815 1.523 . S
H817 C792 0.950 . S
H818 C794 0.950 . S
H819 C795 0.949 . S
H820 C797 0.950 . S
H821 C799 0.950 . S
C822 C823 1.349 . S
C822 C824 1.327 . S
C822 H847 0.950 . S
C823 C822 1.349 . S
C823 C839 1.349 . S
C824 C822 1.327 . S
C824 C843 1.429 . S
C824 H848 0.950 . S
C825 C842 1.574 . S
C825 C844 1.368 . S
C825 H849 0.949 . S
H826 C830 0.949 . S
C827 C828 1.349 . S
C827 C829 1.327 . S
C827 H850 0.950 . S
C828 C827 1.349 . S
C828 C840 1.349 . S
C829 C827 1.327 . S
C829 C845 1.429 . S
C829 H851 0.950 . S
C830 H826 0.949 . S
C830 C838 1.574 . S
C830 C846 1.368 . S
H831 C839 0.950 . S
H832 C837 0.950 . S
H833 C838 0.949 . S
H834 C840 0.950 . S
H835 C841 0.950 . S
H836 C842 0.949 . S
C837 H832 0.950 . S
C837 C839 1.327 . S
C837 C843 1.429 . S
C838 C830 1.574 . S
C838 H833 0.949 . S
C838 C844 1.368 . S
C839 C823 1.349 . S
C839 H831 0.950 . S
C839 C837 1.327 . S
C840 C828 1.349 . S
C840 H834 0.950 . S
C840 C841 1.327 . S
C841 H835 0.950 . S
C841 C840 1.327 . S
C841 C845 1.429 . S
C842 C825 1.574 . S
C842 H836 0.949 . S
C842 C846 1.368 . S
C843 C824 1.429 . S
C843 C837 1.429 . S
C843 C844 1.523 . S
C844 C825 1.368 . S
C844 C838 1.368 . S
C844 C843 1.523 . S
C845 C829 1.429 . S
C845 C841 1.429 . S
C845 C846 1.523 . S
C846 C830 1.368 . S
C846 C842 1.368 . S
C846 C845 1.523 . S
H847 C822 0.950 . S
H848 C824 0.950 . S
H849 C825 0.949 . S
H850 C827 0.950 . S
H851 C829 0.950 . S
C852 C853 1.349 . S
C852 C854 1.327 . S
C852 H877 0.950 . S
C853 C852 1.349 . S
C853 C869 1.349 . S
C854 C852 1.327 . S
C854 C873 1.429 . S
C854 H878 0.950 . S
C855 C872 1.574 . S
C855 C874 1.368 . S
C855 H879 0.949 . S
H856 C860 0.949 . S
C857 C858 1.349 . S
C857 C859 1.327 . S
C857 H880 0.950 . S
C858 C857 1.349 . S
C858 C870 1.349 . S
C859 C857 1.327 . S
C859 C875 1.429 . S
C859 H881 0.950 . S
C860 H856 0.949 . S
C860 C868 1.574 . S
C860 C876 1.368 . S
H861 C869 0.950 . S
H862 C867 0.950 . S
H863 C868 0.949 . S
H864 C870 0.950 . S
H865 C871 0.950 . S
H866 C872 0.949 . S
C867 H862 0.950 . S
C867 C869 1.327 . S
C867 C873 1.429 . S
C868 C860 1.574 . S
C868 H863 0.949 . S
C868 C874 1.368 . S
C869 C853 1.349 . S
C869 H861 0.950 . S
C869 C867 1.327 . S
C870 C858 1.349 . S
C870 H864 0.950 . S
C870 C871 1.327 . S
C871 H865 0.950 . S
C871 C870 1.327 . S
C871 C875 1.429 . S
C872 C855 1.574 . S
C872 H866 0.949 . S
C872 C876 1.368 . S
C873 C854 1.429 . S
C873 C867 1.429 . S
C873 C874 1.523 . S
C874 C855 1.368 . S
C874 C868 1.368 . S
C874 C873 1.523 . S
C875 C859 1.429 . S
C875 C871 1.429 . S
C875 C876 1.523 . S
C876 C860 1.368 . S
C876 C872 1.368 . S
C876 C875 1.523 . S
H877 C852 0.950 . S
H878 C854 0.950 . S
H879 C855 0.949 . S
H880 C857 0.950 . S
H881 C859 0.950 . S
C882 C883 1.349 . S
C882 C884 1.327 . S
C882 H907 0.950 . S
C883 C882 1.349 . S
C883 C899 1.349 . S
C884 C882 1.327 . S
C884 C903 1.429 . S
C884 H908 0.950 . S
C885 C902 1.574 . S
C885 C904 1.377 . S
C885 H909 0.949 . S
H886 C890 0.949 . S
C887 C888 1.349 . S
C887 C889 1.327 . S
C887 H910 0.950 . S
C888 C887 1.349 . S
C888 C900 1.349 . S
C889 C887 1.327 . S
C889 C905 1.429 . S
C889 H911 0.950 . S
C890 H886 0.949 . S
C890 C898 1.574 1_554 S
C890 C906 1.368 . S
H891 C899 0.950 . S
H892 C897 0.950 . S
H893 C898 0.949 . S
H894 C900 0.950 . S
H895 C901 0.950 . S
H896 C902 0.949 . S
C897 H892 0.950 . S
C897 C899 1.327 . S
C897 C903 1.429 . S
C898 C890 1.574 1_556 S
C898 H893 0.949 . S
C898 C904 1.367 1_556 S
C899 C883 1.349 . S
C899 H891 0.950 . S
C899 C897 1.327 . S
C900 C888 1.349 . S
C900 H894 0.950 . S
C900 C901 1.327 . S
C901 H895 0.950 . S
C901 C900 1.327 . S
C901 C905 1.429 . S
C902 C885 1.574 . S
C902 H896 0.949 . S
C902 C906 1.368 . S
C903 C884 1.429 . S
C903 C897 1.429 . S
C903 C904 1.513 1_556 S
C904 C885 1.377 . S
C904 C898 1.367 1_554 S
C904 C903 1.513 1_554 S
C905 C889 1.429 . S
C905 C901 1.429 . S
C905 C906 1.523 . S
C906 C890 1.368 . S
C906 C902 1.368 . S
C906 C905 1.523 . S
H907 C882 0.950 . S
H908 C884 0.950 . S
H909 C885 0.949 . S
H910 C887 0.950 . S
H911 C889 0.950 . S
C912 C913 1.349 . S
C912 C914 1.327 . S
C912 H937 0.950 . S
C913 C912 1.349 . S
C913 C929 1.349 . S
C914 C912 1.327 . S
C914 C933 1.429 . S
C914 H938 0.950 . S
C915 C932 1.574 . S
C915 C934 1.368 . S
C915 H939 0.949 . S
H916 C920 0.949 . S
C917 C918 1.349 . S
C917 C919 1.327 . S
C917 H940 0.950 . S
C918 C917 1.349 . S
C918 C930 1.349 . S
C919 C917 1.327 . S
C919 C935 1.429 . S
C919 H941 0.950 . S
C920 H916 0.949 . S
C920 C928 1.574 . S
C920 C936 1.368 . S
H921 C929 0.950 . S
H922 C927 0.950 . S
H923 C928 0.949 . S
H924 C930 0.950 . S
H925 C931 0.950 . S
H926 C932 0.949 . S
C927 H922 0.950 . S
C927 C929 1.327 . S
C927 C933 1.429 . S
C928 C920 1.574 . S
C928 H923 0.949 . S
C928 C934 1.368 . S
C929 C913 1.349 . S
C929 H921 0.950 . S
C929 C927 1.327 . S
C930 C918 1.349 . S
C930 H924 0.950 . S
C930 C931 1.327 . S
C931 H925 0.950 . S
C931 C930 1.327 . S
C931 C935 1.429 . S
C932 C915 1.574 . S
C932 H926 0.949 . S
C932 C936 1.368 . S
C933 C914 1.429 . S
C933 C927 1.429 . S
C933 C934 1.523 . S
C934 C915 1.368 . S
C934 C928 1.368 . S
C934 C933 1.523 . S
C935 C919 1.429 . S
C935 C931 1.429 . S
C935 C936 1.523 . S
C936 C920 1.368 . S
C936 C932 1.368 . S
C936 C935 1.523 . S
H937 C912 0.950 . S
H938 C914 0.950 . S
H939 C915 0.949 . S
H940 C917 0.950 . S
H941 C919 0.950 . S
C942 C943 1.349 . S
C942 C944 1.327 . S
C942 H967 0.950 . S
C943 C942 1.349 . S
C943 C959 1.349 . S
C944 C942 1.327 . S
C944 C963 1.429 . S
C944 H968 0.950 . S
C945 C962 1.574 . S
C945 C964 1.368 . S
C945 H969 0.949 . S
H946 C950 0.949 . S
C947 C948 1.349 . S
C947 C949 1.327 . S
C947 H970 0.950 . S
C948 C947 1.349 . S
C948 C960 1.349 . S
C949 C947 1.327 . S
C949 C965 1.429 . S
C949 H971 0.950 . S
C950 H946 0.949 . S
C950 C958 1.574 . S
C950 C966 1.368 . S
H951 C959 0.950 . S
H952 C957 0.950 . S
H953 C958 0.949 . S
H954 C960 0.950 . S
H955 C961 0.950 . S
H956 C962 0.949 . S
C957 H952 0.950 . S
C957 C959 1.327 . S
C957 C963 1.429 . S
C958 C950 1.574 . S
C958 H953 0.949 . S
C958 C964 1.368 . S
C959 C943 1.349 . S
C959 H951 0.950 . S
C959 C957 1.327 . S
C960 C948 1.349 . S
C960 H954 0.950 . S
C960 C961 1.327 . S
C961 H955 0.950 . S
C961 C960 1.327 . S
C961 C965 1.429 . S
C962 C945 1.574 . S
C962 H956 0.949 . S
C962 C966 1.368 . S
C963 C944 1.429 . S
C963 C957 1.429 . S
C963 C964 1.523 . S
C964 C945 1.368 . S
C964 C958 1.368 . S
C964 C963 1.523 . S
C965 C949 1.429 . S
C965 C961 1.429 . S
C965 C966 1.523 1_565 S
C966 C950 1.368 . S
C966 C962 1.368 . S
C966 C965 1.523 1_545 S
H967 C942 0.950 . S
H968 C944 0.950 . S
H969 C945 0.949 . S
H970 C947 0.950 . S
H971 C949 0.950 . S
C972 C973 1.349 . S
C972 C974 1.327 . S
C972 H997 0.950 . S
C973 C972 1.349 . S
C973 C989 1.349 . S
C974 C972 1.327 . S
C974 C993 1.429 . S
C974 H998 0.950 1_545 S
C975 C992 1.574 . S
C975 C994 1.368 . S
C975 H999 0.949 . S
H976 C980 0.949 . S
C977 C978 1.349 . S
C977 C979 1.327 . S
C977 H1000 0.950 . S
C978 C977 1.349 . S
C978 C990 1.349 . S
C979 C977 1.327 . S
C979 C995 1.429 . S
C979 H1001 0.950 1_565 S
C980 H976 0.949 . S
C980 C988 1.574 . S
C980 C996 1.368 . S
H981 C989 0.950 . S
H982 C987 0.950 . S
H983 C988 0.949 . S
H984 C990 0.950 . S
H985 C991 0.950 . S
H986 C992 0.949 . S
C987 H982 0.950 . S
C987 C989 1.327 . S
C987 C993 1.429 . S
C988 C980 1.574 . S
C988 H983 0.949 . S
C988 C994 1.368 1_565 S
C989 C973 1.349 . S
C989 H981 0.950 . S
C989 C987 1.327 . S
C990 C978 1.349 . S
C990 H984 0.950 . S
C990 C991 1.327 . S
C991 H985 0.950 . S
C991 C990 1.327 . S
C991 C995 1.429 . S
C992 C975 1.574 . S
C992 H986 0.949 . S
C992 C996 1.368 1_545 S
C993 C974 1.429 . S
C993 C987 1.429 . S
C993 C994 1.523 . S
C994 C975 1.368 . S
C994 C988 1.368 1_545 S
C994 C993 1.523 . S
C995 C979 1.429 . S
C995 C991 1.429 . S
C995 C996 1.523 . S
C996 C980 1.368 . S
C996 C992 1.368 1_565 S
C996 C995 1.523 . S
H997 C972 0.950 . S
H998 C974 0.950 1_565 S
H999 C975 0.949 . S
H1000 C977 0.950 . S
H1001 C979 0.950 1_545 S
C1002 C1003 1.349 . S
C1002 C1004 1.327 . S
C1002 H1027 0.950 . S
C1003 C1002 1.349 . S
C1003 C1019 1.349 . S
C1004 C1002 1.327 . S
C1004 C1023 1.429 1_565 S
C1004 H1028 0.964 . S
C1005 C1022 1.574 . S
C1005 C1024 1.368 . S
C1005 H1029 0.949 . S
H1006 C1010 0.949 . S
C1007 C1008 1.349 . S
C1007 C1009 1.327 . S
C1007 H1030 0.950 . S
C1008 C1007 1.349 . S
C1008 C1020 1.349 . S
C1009 C1007 1.327 . S
C1009 C1025 1.429 . S
C1009 H1031 0.950 . S
C1010 H1006 0.949 . S
C1010 C1018 1.574 . S
C1010 C1026 1.368 . S
H1011 C1019 0.950 1_554 S
H1012 C1017 0.950 1_544 S
H1013 C1018 0.949 . S
H1014 C1020 0.950 . S
H1015 C1021 0.950 . S
H1016 C1022 0.949 . S
C1017 H1012 0.950 1_566 S
C1017 C1019 1.327 . S
C1017 C1023 1.429 1_565 S
C1018 C1010 1.574 . S
C1018 H1013 0.949 . S
C1018 C1024 1.368 . S
C1019 C1003 1.349 . S
C1019 H1011 0.950 1_556 S
C1019 C1017 1.327 . S
C1020 C1008 1.349 . S
C1020 H1014 0.950 . S
C1020 C1021 1.327 . S
C1021 H1015 0.950 . S
C1021 C1020 1.327 . S
C1021 C1025 1.429 . S
C1022 C1005 1.574 . S
C1022 H1016 0.949 . S
C1022 C1026 1.368 . S
C1023 C1004 1.429 1_545 S
C1023 C1017 1.429 1_545 S
C1023 C1024 1.523 . S
C1024 C1005 1.368 . S
C1024 C1018 1.368 . S
C1024 C1023 1.523 . S
C1025 C1009 1.429 . S
C1025 C1021 1.429 . S
C1025 C1026 1.523 . S
C1026 C1010 1.368 . S
C1026 C1022 1.368 . S
C1026 C1025 1.523 . S
H1027 C1002 0.950 . S
H1028 C1004 0.964 . S
H1029 C1005 0.949 . S
H1030 C1007 0.950 . S
H1031 C1009 0.950 . S
C1032 C1033 1.349 . S
C1032 C1034 1.327 . S
C1032 H1057 0.950 . S
C1033 C1032 1.349 . S
C1033 C1049 1.349 . S
C1034 C1032 1.327 . S
C1034 C1053 1.429 . S
C1034 H1058 0.950 . S
C1035 C1052 1.574 . S
C1035 C1054 1.368 . S
C1035 H1059 0.949 . S
H1036 C1040 0.949 . S
C1037 C1038 1.349 . S
C1037 C1039 1.327 . S
C1037 H1060 0.950 . S
C1038 C1037 1.349 . S
C1038 C1050 1.349 . S
C1039 C1037 1.327 . S
C1039 C1055 1.429 . S
C1039 H1061 0.950 . S
C1040 H1036 0.949 . S
C1040 C1048 1.574 . S
C1040 C1056 1.368 . S
H1041 C1049 0.950 . S
H1042 C1047 0.950 . S
H1043 C1048 0.949 . S
H1044 C1050 0.950 . S
H1045 C1051 0.950 . S
H1046 C1052 0.949 . S
C1047 H1042 0.950 . S
C1047 C1049 1.327 . S
C1047 C1053 1.429 . S
C1048 C1040 1.574 . S
C1048 H1043 0.949 . S
C1048 C1054 1.368 . S
C1049 C1033 1.349 . S
C1049 H1041 0.950 . S
C1049 C1047 1.327 . S
C1050 C1038 1.349 . S
C1050 H1044 0.950 . S
C1050 C1051 1.327 . S
C1051 H1045 0.950 . S
C1051 C1050 1.327 . S
C1051 C1055 1.429 . S
C1052 C1035 1.574 . S
C1052 H1046 0.949 . S
C1052 C1056 1.368 . S
C1053 C1034 1.429 . S
C1053 C1047 1.429 . S
C1053 C1054 1.523 . S
C1054 C1035 1.368 . S
C1054 C1048 1.368 . S
C1054 C1053 1.523 . S
C1055 C1039 1.429 . S
C1055 C1051 1.429 . S
C1055 C1056 1.523 . S
C1056 C1040 1.368 . S
C1056 C1052 1.368 . S
C1056 C1055 1.523 . S
H1057 C1032 0.950 . S
H1058 C1034 0.950 . S
H1059 C1035 0.949 . S
H1060 C1037 0.950 . S
H1061 C1039 0.950 . S
C1062 C1063 1.349 . S
C1062 C1064 1.327 . S
C1062 H1087 0.950 . S
C1063 C1062 1.349 . S
C1063 C1079 1.349 . S
C1064 C1062 1.327 . S
C1064 C1083 1.429 . S
C1064 H1088 0.950 . S
C1065 C1082 1.574 . S
C1065 C1084 1.368 . S
C1065 H1089 0.949 . S
H1066 C1070 0.949 . S
C1067 C1068 1.349 . S
C1067 C1069 1.327 1_565 S
C1067 H1090 0.950 . S
C1068 C1067 1.349 . S
C1068 C1080 1.349 . S
C1069 C1067 1.327 1_545 S
C1069 C1085 1.429 . S
C1069 H1091 0.950 . S
C1070 H1066 0.949 . S
C1070 C1078 1.574 . S
C1070 C1086 1.368 . S
H1071 C1079 0.950 . S
H1072 C1077 0.950 . S
H1073 C1078 0.949 . S
H1074 C1080 0.950 . S
H1075 C1081 0.950 . S
H1076 C1082 0.949 . S
C1077 H1072 0.950 . S
C1077 C1079 1.327 . S
C1077 C1083 1.429 . S
C1078 C1070 1.574 . S
C1078 H1073 0.949 . S
C1078 C1084 1.368 . S
C1079 C1063 1.349 . S
C1079 H1071 0.950 . S
C1079 C1077 1.327 . S
C1080 C1068 1.349 . S
C1080 H1074 0.950 . S
C1080 C1081 1.327 1_565 S
C1081 H1075 0.950 . S
C1081 C1080 1.327 1_545 S
C1081 C1085 1.429 . S
C1082 C1065 1.574 . S
C1082 H1076 0.949 . S
C1082 C1086 1.368 . S
C1083 C1064 1.429 . S
C1083 C1077 1.429 . S
C1083 C1084 1.523 . S
C1084 C1065 1.368 . S
C1084 C1078 1.368 . S
C1084 C1083 1.523 . S
C1085 C1069 1.429 . S
C1085 C1081 1.429 . S
C1085 C1086 1.523 . S
C1086 C1070 1.368 . S
C1086 C1082 1.368 . S
C1086 C1085 1.523 . S
H1087 C1062 0.950 . S
H1088 C1064 0.950 . S
H1089 C1065 0.949 . S
H1090 C1067 0.950 . S
H1091 C1069 0.950 . S
C1092 C1093 1.349 . S
C1092 C1094 1.327 . S
C1092 H1117 0.950 . S
C1093 C1092 1.349 . S
C1093 C1109 1.349 . S
C1094 C1092 1.327 . S
C1094 C1113 1.429 . S
C1094 H1118 0.950 . S
C1095 C1112 1.574 . S
C1095 C1114 1.368 . S
C1095 H1119 0.949 . S
H1096 C1100 0.949 . S
C1097 C1098 1.349 . S
C1097 C1099 1.327 . S
C1097 H1120 0.950 . S
C1098 C1097 1.349 . S
C1098 C1110 1.349 . S
C1099 C1097 1.327 . S
C1099 C1115 1.429 . S
C1099 H1121 0.950 . S
C1100 H1096 0.949 . S
C1100 C1108 1.574 . S
C1100 C1116 1.368 . S
H1101 C1109 0.950 . S
H1102 C1107 0.950 . S
H1103 C1108 0.949 . S
H1104 C1110 0.950 . S
H1105 C1111 0.950 . S
H1106 C1112 0.949 . S
C1107 H1102 0.950 . S
C1107 C1109 1.327 . S
C1107 C1113 1.429 . S
C1108 C1100 1.574 . S
C1108 H1103 0.949 . S
C1108 C1114 1.368 . S
C1109 C1093 1.349 . S
C1109 H1101 0.950 . S
C1109 C1107 1.327 . S
C1110 C1098 1.349 . S
C1110 H1104 0.950 . S
C1110 C1111 1.327 . S
C1111 H1105 0.950 . S
C1111 C1110 1.327 . S
C1111 C1115 1.429 . S
C1112 C1095 1.574 . S
C1112 H1106 0.949 . S
C1112 C1116 1.368 . S
C1113 C1094 1.429 . S
C1113 C1107 1.429 . S
C1113 C1114 1.523 . S
C1114 C1095 1.368 . S
C1114 C1108 1.368 . S
C1114 C1113 1.523 . S
C1115 C1099 1.429 . S
C1115 C1111 1.429 . S
C1115 C1116 1.523 . S
C1116 C1100 1.368 . S
C1116 C1112 1.368 . S
C1116 C1115 1.523 . S
H1117 C1092 0.950 . S
H1118 C1094 0.950 . S
H1119 C1095 0.949 . S
H1120 C1097 0.950 . S
H1121 C1099 0.950 . S
C1122 C1123 1.349 . S
C1122 C1124 1.327 . S
C1122 H1147 0.950 . S
C1123 C1122 1.349 . S
C1123 C1139 1.349 . S
C1124 C1122 1.327 . S
C1124 C1143 1.429 . S
C1124 H1148 0.950 . S
C1125 C1142 1.574 . S
C1125 C1144 1.368 . S
C1125 H1149 0.949 . S
H1126 C1130 0.949 . S
C1127 C1128 1.349 . S
C1127 C1129 1.327 . S
C1127 H1150 0.950 . S
C1128 C1127 1.349 . S
C1128 C1140 1.349 . S
C1129 C1127 1.327 . S
C1129 C1145 1.429 . S
C1129 H1151 0.950 . S
C1130 H1126 0.949 . S
C1130 C1138 1.574 . S
C1130 C1146 1.368 . S
H1131 C1139 0.950 . S
H1132 C1137 0.950 . S
H1133 C1138 0.949 . S
H1134 C1140 0.950 . S
H1135 C1141 0.950 . S
H1136 C1142 0.949 . S
C1137 H1132 0.950 . S
C1137 C1139 1.327 . S
C1137 C1143 1.429 . S
C1138 C1130 1.574 . S
C1138 H1133 0.949 . S
C1138 C1144 1.368 . S
C1139 C1123 1.349 . S
C1139 H1131 0.950 . S
C1139 C1137 1.327 . S
C1140 C1128 1.349 . S
C1140 H1134 0.950 . S
C1140 C1141 1.327 . S
C1141 H1135 0.950 . S
C1141 C1140 1.327 . S
C1141 C1145 1.429 . S
C1142 C1125 1.574 . S
C1142 H1136 0.949 . S
C1142 C1146 1.368 . S
C1143 C1124 1.429 . S
C1143 C1137 1.429 . S
C1143 C1144 1.523 1_565 S
C1144 C1125 1.368 . S
C1144 C1138 1.368 . S
C1144 C1143 1.523 1_545 S
C1145 C1129 1.429 . S
C1145 C1141 1.429 . S
C1145 C1146 1.523 . S
C1146 C1130 1.368 . S
C1146 C1142 1.368 . S
C1146 C1145 1.523 . S
H1147 C1122 0.950 . S
H1148 C1124 0.950 . S
H1149 C1125 0.949 . S
H1150 C1127 0.950 . S
H1151 C1129 0.950 . S
C1152 C1153 1.349 . S
C1152 C1154 1.327 . S
C1152 H1177 0.950 . S
C1153 C1152 1.349 . S
C1153 C1169 1.349 . S
C1154 C1152 1.327 . S
C1154 C1173 1.429 . S
C1154 H1178 0.950 . S
C1155 C1172 1.574 . S
C1155 C1174 1.368 . S
C1155 H1179 0.949 . S
H1156 C1160 0.949 . S
C1157 C1158 1.349 . S
C1157 C1159 1.327 . S
C1157 H1180 0.950 . S
C1158 C1157 1.349 . S
C1158 C1170 1.349 . S
C1159 C1157 1.327 . S
C1159 C1175 1.429 . S
C1159 H1181 0.950 . S
C1160 H1156 0.949 . S
C1160 C1168 1.574 . S
C1160 C1176 1.368 . S
H1161 C1169 0.950 . S
H1162 C1167 0.950 . S
H1163 C1168 0.949 . S
H1164 C1170 0.950 . S
H1165 C1171 0.950 . S
H1166 C1172 0.949 . S
C1167 H1162 0.950 . S
C1167 C1169 1.327 . S
C1167 C1173 1.429 . S
C1168 C1160 1.574 . S
C1168 H1163 0.949 . S
C1168 C1174 1.368 . S
C1169 C1153 1.349 . S
C1169 H1161 0.950 . S
C1169 C1167 1.327 . S
C1170 C1158 1.349 . S
C1170 H1164 0.950 . S
C1170 C1171 1.327 . S
C1171 H1165 0.950 . S
C1171 C1170 1.327 . S
C1171 C1175 1.429 . S
C1172 C1155 1.574 . S
C1172 H1166 0.949 . S
C1172 C1176 1.368 . S
C1173 C1154 1.429 . S
C1173 C1167 1.429 . S
C1173 C1174 1.523 . S
C1174 C1155 1.368 . S
C1174 C1168 1.368 . S
C1174 C1173 1.523 . S
C1175 C1159 1.429 . S
C1175 C1171 1.429 . S
C1175 C1176 1.523 . S
C1176 C1160 1.368 . S
C1176 C1172 1.368 . S
C1176 C1175 1.523 . S
H1177 C1152 0.950 . S
H1178 C1154 0.950 . S
H1179 C1155 0.949 . S
H1180 C1157 0.950 . S
H1181 C1159 0.950 . S
C1182 C1183 1.349 . S
C1182 C1184 1.327 . S
C1182 H1207 0.950 . S
C1183 C1182 1.349 . S
C1183 C1199 1.349 . S
C1184 C1182 1.327 . S
C1184 C1203 1.429 . S
C1184 H1208 0.950 . S
C1185 C1202 1.574 . S
C1185 C1204 1.368 . S
C1185 H1209 0.949 . S
H1186 C1190 0.949 . S
C1187 C1188 1.349 . S
C1187 C1189 1.327 . S
C1187 H1210 0.950 . S
C1188 C1187 1.349 . S
C1188 C1200 1.349 . S
C1189 C1187 1.327 . S
C1189 C1205 1.429 . S
C1189 H1211 0.950 . S
C1190 H1186 0.949 . S
C1190 C1198 1.574 . S
C1190 C1206 1.368 . S
H1191 C1199 0.950 1_554 S
H1192 C1197 0.950 . S
H1193 C1198 0.949 . S
H1194 C1200 0.950 . S
H1195 C1201 0.950 . S
H1196 C1202 0.949 . S
C1197 H1192 0.950 . S
C1197 C1199 1.327 . S
C1197 C1203 1.429 . S
C1198 C1190 1.574 . S
C1198 H1193 0.949 . S
C1198 C1204 1.368 . S
C1199 C1183 1.349 . S
C1199 H1191 0.950 1_556 S
C1199 C1197 1.327 . S
C1200 C1188 1.349 . S
C1200 H1194 0.950 . S
C1200 C1201 1.327 . S
C1201 H1195 0.950 . S
C1201 C1200 1.327 . S
C1201 C1205 1.429 . S
C1202 C1185 1.574 . S
C1202 H1196 0.949 . S
C1202 C1206 1.368 . S
C1203 C1184 1.429 . S
C1203 C1197 1.429 . S
C1203 C1204 1.523 . S
C1204 C1185 1.368 . S
C1204 C1198 1.368 . S
C1204 C1203 1.523 . S
C1205 C1189 1.429 . S
C1205 C1201 1.429 . S
C1205 C1206 1.523 . S
C1206 C1190 1.368 . S
C1206 C1202 1.368 . S
C1206 C1205 1.523 . S
H1207 C1182 0.950 . S
H1208 C1184 0.950 . S
H1209 C1185 0.949 . S
H1210 C1187 0.950 . S
H1211 C1189 0.950 . S
C1212 C1213 1.349 . S
C1212 C1214 1.327 . S
C1212 H1237 0.950 . S
C1213 C1212 1.349 . S
C1213 C1229 1.349 . S
C1214 C1212 1.327 . S
C1214 C1233 1.429 . S
C1214 H1238 0.950 . S
C1215 C1232 1.544 1_455 S
C1215 C1234 1.368 . S
C1215 H1239 0.949 . S
H1216 C1220 0.949 . S
C1217 C1218 1.349 . S
C1217 C1219 1.327 . S
C1217 H1240 0.950 . S
C1218 C1217 1.349 . S
C1218 C1230 1.349 . S
C1219 C1217 1.327 . S
C1219 C1235 1.429 . S
C1219 H1241 0.950 . S
C1220 H1216 0.949 . S
C1220 C1228 1.574 . S
C1220 C1236 1.368 . S
H1221 C1229 0.950 . S
H1222 C1227 0.950 . S
H1223 C1228 0.949 . S
H1224 C1230 0.950 . S
H1225 C1231 0.950 . S
H1226 C1232 0.982 . S
C1227 H1222 0.950 . S
C1227 C1229 1.327 . S
C1227 C1233 1.429 . S
C1228 C1220 1.574 . S
C1228 H1223 0.949 . S
C1228 C1234 1.368 . S
C1229 C1213 1.349 . S
C1229 H1221 0.950 . S
C1229 C1227 1.327 . S
C1230 C1218 1.349 . S
C1230 H1224 0.950 . S
C1230 C1231 1.327 . S
C1231 H1225 0.950 . S
C1231 C1230 1.327 . S
C1231 C1235 1.429 . S
C1232 C1215 1.544 1_655 S
C1232 H1226 0.982 . S
C1232 C1236 1.362 1_655 S
C1233 C1214 1.429 . S
C1233 C1227 1.429 . S
C1233 C1234 1.523 . S
C1234 C1215 1.368 . S
C1234 C1228 1.368 . S
C1234 C1233 1.523 . S
C1235 C1219 1.429 . S
C1235 C1231 1.429 . S
C1235 C1236 1.523 1_655 S
C1236 C1220 1.368 . S
C1236 C1232 1.362 1_455 S
C1236 C1235 1.523 1_455 S
H1237 C1212 0.950 . S
H1238 C1214 0.950 . S
H1239 C1215 0.949 . S
H1240 C1217 0.950 . S
H1241 C1219 0.950 . S
C1242 C1243 1.349 . S
C1242 C1244 1.327 . S
C1242 H1267 0.950 . S
C1243 C1242 1.349 . S
C1243 C1259 1.349 . S
C1244 C1242 1.327 . S
C1244 C1263 1.429 . S
C1244 H1268 0.950 . S
C1245 C1262 1.574 . S
C1245 C1264 1.368 . S
C1245 H1269 0.949 . S
H1246 C1250 0.949 . S
C1247 C1248 1.349 . S
C1247 C1249 1.327 . S
C1247 H1270 0.950 . S
C1248 C1247 1.349 . S
C1248 C1260 1.349 . S
C1249 C1247 1.327 . S
C1249 C1265 1.429 . S
C1249 H1271 0.950 . S
C1250 H1246 0.949 . S
C1250 C1258 1.574 . S
C1250 C1266 1.368 . S
H1251 C1259 0.950 . S
H1252 C1257 0.950 . S
H1253 C1258 0.949 . S
H1254 C1260 0.950 . S
H1255 C1261 0.950 . S
H1256 C1262 0.949 . S
C1257 H1252 0.950 . S
C1257 C1259 1.327 . S
C1257 C1263 1.429 . S
C1258 C1250 1.574 . S
C1258 H1253 0.949 . S
C1258 C1264 1.368 . S
C1259 C1243 1.349 . S
C1259 H1251 0.950 . S
C1259 C1257 1.327 . S
C1260 C1248 1.349 . S
C1260 H1254 0.950 . S
C1260 C1261 1.327 . S
C1261 H1255 0.950 . S
C1261 C1260 1.327 . S
C1261 C1265 1.429 . S
C1262 C1245 1.574 . S
C1262 H1256 0.949 . S
C1262 C1266 1.368 . S
C1263 C1244 1.429 . S
C1263 C1257 1.429 . S
C1263 C1264 1.523 . S
C1264 C1245 1.368 . S
C1264 C1258 1.368 . S
C1264 C1263 1.523 . S
C1265 C1249 1.429 . S
C1265 C1261 1.429 . S
C1265 C1266 1.523 . S
C1266 C1250 1.368 . S
C1266 C1262 1.368 . S
C1266 C1265 1.523 . S
H1267 C1242 0.950 . S
H1268 C1244 0.950 . S
H1269 C1245 0.949 . S
H1270 C1247 0.950 . S
H1271 C1249 0.950 . S
C1272 C1273 1.349 . S
C1272 C1274 1.327 . S
C1272 H1297 0.950 . S
C1273 C1272 1.349 . S
C1273 C1289 1.349 . S
C1274 C1272 1.327 . S
C1274 C1293 1.429 . S
C1274 H1298 0.950 . S
C1275 C1292 1.574 1_655 S
C1275 C1294 1.368 . S
C1275 H1299 0.949 . S
H1276 C1280 0.949 . S
C1277 C1278 1.349 . S
C1277 C1279 1.327 . S
C1277 H1300 0.950 . S
C1278 C1277 1.349 . S
C1278 C1290 1.349 . S
C1279 C1277 1.327 . S
C1279 C1295 1.429 . S
C1279 H1301 0.950 . S
C1280 H1276 0.949 . S
C1280 C1288 1.574 1_455 S
C1280 C1296 1.368 . S
H1281 C1289 0.950 . S
H1282 C1287 0.950 . S
H1283 C1288 0.949 . S
H1284 C1290 0.950 . S
H1285 C1291 0.950 . S
H1286 C1292 0.949 . S
C1287 H1282 0.950 . S
C1287 C1289 1.327 . S
C1287 C1293 1.429 . S
C1288 C1280 1.574 1_655 S
C1288 H1283 0.949 . S
C1288 C1294 1.368 . S
C1289 C1273 1.349 . S
C1289 H1281 0.950 . S
C1289 C1287 1.327 . S
C1290 C1278 1.349 . S
C1290 H1284 0.950 . S
C1290 C1291 1.327 . S
C1291 H1285 0.950 . S
C1291 C1290 1.327 . S
C1291 C1295 1.429 . S
C1292 C1275 1.574 1_455 S
C1292 H1286 0.949 . S
C1292 C1296 1.368 . S
C1293 C1274 1.429 . S
C1293 C1287 1.429 . S
C1293 C1294 1.523 . S
C1294 C1275 1.368 . S
C1294 C1288 1.368 . S
C1294 C1293 1.523 . S
C1295 C1279 1.429 . S
C1295 C1291 1.429 . S
C1295 C1296 1.523 . S
C1296 C1280 1.368 . S
C1296 C1292 1.368 . S
C1296 C1295 1.523 . S
H1297 C1272 0.950 . S
H1298 C1274 0.950 . S
H1299 C1275 0.949 . S
H1300 C1277 0.950 . S
H1301 C1279 0.950 . S
C1302 C1303 1.349 . S
C1302 C1304 1.327 . S
C1302 H1327 0.950 . S
C1303 C1302 1.349 . S
C1303 C1319 1.349 . S
C1304 C1302 1.327 . S
C1304 C1323 1.429 . S
C1304 H1328 0.950 . S
C1305 C1322 1.574 . S
C1305 C1324 1.368 . S
C1305 H1329 0.949 . S
H1306 C1310 0.949 . S
C1307 C1308 1.349 . S
C1307 C1309 1.327 . S
C1307 H1330 0.950 . S
C1308 C1307 1.349 . S
C1308 C1320 1.349 . S
C1309 C1307 1.327 . S
C1309 C1325 1.429 . S
C1309 H1331 0.950 . S
C1310 H1306 0.949 . S
C1310 C1318 1.574 . S
C1310 C1326 1.368 . S
H1311 C1319 0.950 . S
H1312 C1317 0.950 . S
H1313 C1318 0.949 . S
H1314 C1320 0.950 . S
H1315 C1321 0.950 . S
H1316 C1322 0.949 . S
C1317 H1312 0.950 . S
C1317 C1319 1.327 . S
C1317 C1323 1.429 . S
C1318 C1310 1.574 . S
C1318 H1313 0.949 . S
C1318 C1324 1.368 . S
C1319 C1303 1.349 . S
C1319 H1311 0.950 . S
C1319 C1317 1.327 . S
C1320 C1308 1.349 . S
C1320 H1314 0.950 . S
C1320 C1321 1.327 . S
C1321 H1315 0.950 . S
C1321 C1320 1.327 . S
C1321 C1325 1.429 . S
C1322 C1305 1.574 . S
C1322 H1316 0.949 . S
C1322 C1326 1.368 . S
C1323 C1304 1.429 . S
C1323 C1317 1.429 . S
C1323 C1324 1.523 . S
C1324 C1305 1.368 . S
C1324 C1318 1.368 . S
C1324 C1323 1.523 . S
C1325 C1309 1.429 . S
C1325 C1321 1.429 . S
C1325 C1326 1.523 . S
C1326 C1310 1.368 . S
C1326 C1322 1.368 . S
C1326 C1325 1.523 . S
H1327 C1302 0.950 . S
H1328 C1304 0.950 . S
H1329 C1305 0.949 . S
H1330 C1307 0.950 . S
H1331 C1309 0.950 . S
C1332 C1333 1.349 . S
C1332 C1334 1.327 . S
C1332 H1357 0.950 . S
C1333 C1332 1.349 . S
C1333 C1349 1.349 . S
C1334 C1332 1.327 . S
C1334 C1353 1.429 . S
C1334 H1358 0.950 . S
C1335 C1352 1.574 1_455 S
C1335 C1354 1.368 . S
C1335 H1359 0.949 . S
H1336 C1340 0.949 . S
C1337 C1338 1.349 . S
C1337 C1339 1.327 . S
C1337 H1360 0.950 . S
C1338 C1337 1.349 . S
C1338 C1350 1.349 . S
C1339 C1337 1.327 . S
C1339 C1355 1.429 . S
C1339 H1361 0.950 . S
C1340 H1336 0.949 . S
C1340 C1348 1.574 . S
C1340 C1356 1.334 1_455 S
H1341 C1349 0.950 . S
H1342 C1347 0.950 . S
H1343 C1348 0.949 . S
H1344 C1350 0.950 . S
H1345 C1351 0.950 . S
H1346 C1352 0.949 . S
C1347 H1342 0.950 . S
C1347 C1349 1.327 . S
C1347 C1353 1.429 . S
C1348 C1340 1.574 . S
C1348 H1343 0.949 . S
C1348 C1354 1.368 . S
C1349 C1333 1.349 . S
C1349 H1341 0.950 . S
C1349 C1347 1.327 . S
C1350 C1338 1.349 . S
C1350 H1344 0.950 . S
C1350 C1351 1.327 . S
C1351 H1345 0.950 . S
C1351 C1350 1.327 . S
C1351 C1355 1.429 . S
C1352 C1335 1.574 1_655 S
C1352 H1346 0.949 . S
C1352 C1356 1.369 . S
C1353 C1334 1.429 . S
C1353 C1347 1.429 . S
C1353 C1354 1.523 . S
C1354 C1335 1.368 . S
C1354 C1348 1.368 . S
C1354 C1353 1.523 . S
C1355 C1339 1.429 . S
C1355 C1351 1.429 . S
C1355 C1356 1.568 . S
C1356 C1340 1.334 1_655 S
C1356 C1352 1.369 . S
C1356 C1355 1.568 . S
H1357 C1332 0.950 . S
H1358 C1334 0.950 . S
H1359 C1335 0.949 . S
H1360 C1337 0.950 . S
H1361 C1339 0.950 . S
C1362 C1363 1.349 . S
C1362 C1364 1.327 . S
C1362 H1387 0.950 . S
C1363 C1362 1.349 . S
C1363 C1379 1.349 . S
C1364 C1362 1.327 . S
C1364 C1383 1.429 . S
C1364 H1388 0.950 . S
C1365 C1382 1.574 . S
C1365 C1384 1.368 . S
C1365 H1389 0.949 . S
H1366 C1370 0.949 . S
C1367 C1368 1.349 . S
C1367 C1369 1.327 . S
C1367 H1390 0.950 . S
C1368 C1367 1.349 . S
C1368 C1380 1.349 . S
C1369 C1367 1.327 . S
C1369 C1385 1.429 . S
C1369 H1391 0.950 . S
C1370 H1366 0.949 . S
C1370 C1378 1.574 . S
C1370 C1386 1.368 . S
H1371 C1379 0.950 . S
H1372 C1377 0.950 . S
H1373 C1378 0.949 . S
H1374 C1380 0.950 . S
H1375 C1381 0.950 . S
H1376 C1382 0.949 . S
C1377 H1372 0.950 . S
C1377 C1379 1.327 . S
C1377 C1383 1.429 . S
C1378 C1370 1.574 . S
C1378 H1373 0.949 . S
C1378 C1384 1.368 . S
C1379 C1363 1.349 . S
C1379 H1371 0.950 . S
C1379 C1377 1.327 . S
C1380 C1368 1.349 . S
C1380 H1374 0.950 . S
C1380 C1381 1.327 . S
C1381 H1375 0.950 . S
C1381 C1380 1.327 . S
C1381 C1385 1.429 . S
C1382 C1365 1.574 . S
C1382 H1376 0.949 . S
C1382 C1386 1.368 . S
C1383 C1364 1.429 . S
C1383 C1377 1.429 . S
C1383 C1384 1.523 . S
C1384 C1365 1.368 . S
C1384 C1378 1.368 . S
C1384 C1383 1.523 . S
C1385 C1369 1.429 . S
C1385 C1381 1.429 . S
C1385 C1386 1.523 . S
C1386 C1370 1.368 . S
C1386 C1382 1.368 . S
C1386 C1385 1.523 . S
H1387 C1362 0.950 . S
H1388 C1364 0.950 . S
H1389 C1365 0.949 . S
H1390 C1367 0.950 . S
H1391 C1369 0.950 . S
C1392 C1393 1.349 . S
C1392 C1394 1.327 . S
C1392 H1417 0.950 . S
C1393 C1392 1.349 . S
C1393 C1409 1.349 . S
C1394 C1392 1.327 . S
C1394 C1413 1.429 . S
C1394 H1418 0.950 . S
C1395 C1412 1.574 . S
C1395 C1414 1.368 . S
C1395 H1419 0.949 . S
H1396 C1400 0.949 . S
C1397 C1398 1.349 . S
C1397 C1399 1.327 . S
C1397 H1420 0.950 . S
C1398 C1397 1.349 . S
C1398 C1410 1.349 . S
C1399 C1397 1.327 . S
C1399 C1415 1.429 . S
C1399 H1421 0.950 . S
C1400 H1396 0.949 . S
C1400 C1408 1.574 . S
C1400 C1416 1.368 . S
H1401 C1409 0.950 . S
H1402 C1407 0.950 . S
H1403 C1408 0.949 . S
H1404 C1410 0.950 . S
H1405 C1411 0.950 . S
H1406 C1412 0.949 . S
C1407 H1402 0.950 . S
C1407 C1409 1.327 . S
C1407 C1413 1.429 . S
C1408 C1400 1.574 . S
C1408 H1403 0.949 . S
C1408 C1414 1.368 . S
C1409 C1393 1.349 . S
C1409 H1401 0.950 . S
C1409 C1407 1.327 . S
C1410 C1398 1.349 . S
C1410 H1404 0.950 . S
C1410 C1411 1.327 . S
C1411 H1405 0.950 . S
C1411 C1410 1.327 . S
C1411 C1415 1.429 . S
C1412 C1395 1.574 . S
C1412 H1406 0.949 . S
C1412 C1416 1.368 . S
C1413 C1394 1.429 . S
C1413 C1407 1.429 . S
C1413 C1414 1.523 . S
C1414 C1395 1.368 . S
C1414 C1408 1.368 . S
C1414 C1413 1.523 . S
C1415 C1399 1.429 . S
C1415 C1411 1.429 . S
C1415 C1416 1.523 . S
C1416 C1400 1.368 . S
C1416 C1412 1.368 . S
C1416 C1415 1.523 . S
H1417 C1392 0.950 . S
H1418 C1394 0.950 . S
H1419 C1395 0.949 . S
H1420 C1397 0.950 . S
H1421 C1399 0.950 . S
C1422 C1423 1.349 . S
C1422 C1424 1.327 . S
C1422 H1447 0.950 . S
C1423 C1422 1.349 . S
C1423 C1439 1.349 . S
C1424 C1422 1.327 . S
C1424 C1443 1.429 . S
C1424 H1448 0.950 . S
C1425 C1442 1.574 . S
C1425 C1444 1.368 . S
C1425 H1449 0.949 . S
H1426 C1430 0.949 . S
C1427 C1428 1.349 . S
C1427 C1429 1.327 . S
C1427 H1450 0.950 . S
C1428 C1427 1.349 . S
C1428 C1440 1.349 . S
C1429 C1427 1.327 . S
C1429 C1445 1.429 . S
C1429 H1451 0.950 . S
C1430 H1426 0.949 . S
C1430 C1438 1.574 . S
C1430 C1446 1.368 . S
H1431 C1439 0.950 . S
H1432 C1437 0.950 . S
H1433 C1438 0.949 . S
H1434 C1440 0.950 . S
H1435 C1441 0.950 . S
H1436 C1442 0.949 . S
C1437 H1432 0.950 . S
C1437 C1439 1.327 . S
C1437 C1443 1.429 . S
C1438 C1430 1.574 . S
C1438 H1433 0.949 . S
C1438 C1444 1.368 . S
C1439 C1423 1.349 . S
C1439 H1431 0.950 . S
C1439 C1437 1.327 . S
C1440 C1428 1.349 . S
C1440 H1434 0.950 . S
C1440 C1441 1.327 . S
C1441 H1435 0.950 . S
C1441 C1440 1.327 . S
C1441 C1445 1.429 . S
C1442 C1425 1.574 . S
C1442 H1436 0.949 . S
C1442 C1446 1.368 . S
C1443 C1424 1.429 . S
C1443 C1437 1.429 . S
C1443 C1444 1.523 . S
C1444 C1425 1.368 . S
C1444 C1438 1.368 . S
C1444 C1443 1.523 . S
C1445 C1429 1.429 . S
C1445 C1441 1.429 . S
C1445 C1446 1.523 . S
C1446 C1430 1.368 . S
C1446 C1442 1.368 . S
C1446 C1445 1.523 . S
H1447 C1422 0.950 . S
H1448 C1424 0.950 . S
H1449 C1425 0.949 . S
H1450 C1427 0.950 . S
H1451 C1429 0.950 . S
C1452 C1453 1.349 . S
C1452 C1454 1.327 . S
C1452 H1477 0.950 . S
C1453 C1452 1.349 . S
C1453 C1469 1.349 . S
C1454 C1452 1.327 . S
C1454 C1473 1.429 . S
C1454 H1478 0.950 . S
C1455 C1472 1.574 . S
C1455 C1474 1.368 . S
C1455 H1479 0.949 . S
H1456 C1460 0.949 . S
C1457 C1458 1.349 . S
C1457 C1459 1.327 . S
C1457 H1480 0.950 . S
C1458 C1457 1.349 . S
C1458 C1470 1.349 . S
C1459 C1457 1.327 . S
C1459 C1475 1.429 . S
C1459 H1481 0.950 . S
C1460 H1456 0.949 . S
C1460 C1468 1.574 . S
C1460 C1476 1.368 . S
H1461 C1469 0.950 . S
H1462 C1467 0.950 . S
H1463 C1468 0.949 . S
H1464 C1470 0.950 . S
H1465 C1471 0.950 . S
H1466 C1472 0.949 . S
C1467 H1462 0.950 . S
C1467 C1469 1.327 . S
C1467 C1473 1.429 . S
C1468 C1460 1.574 . S
C1468 H1463 0.949 . S
C1468 C1474 1.368 . S
C1469 C1453 1.349 . S
C1469 H1461 0.950 . S
C1469 C1467 1.327 . S
C1470 C1458 1.349 . S
C1470 H1464 0.950 . S
C1470 C1471 1.327 . S
C1471 H1465 0.950 . S
C1471 C1470 1.327 . S
C1471 C1475 1.429 . S
C1472 C1455 1.574 . S
C1472 H1466 0.949 . S
C1472 C1476 1.368 . S
C1473 C1454 1.429 . S
C1473 C1467 1.429 . S
C1473 C1474 1.523 . S
C1474 C1455 1.368 . S
C1474 C1468 1.368 . S
C1474 C1473 1.523 . S
C1475 C1459 1.429 . S
C1475 C1471 1.429 . S
C1475 C1476 1.523 . S
C1476 C1460 1.368 . S
C1476 C1472 1.368 . S
C1476 C1475 1.523 . S
H1477 C1452 0.950 . S
H1478 C1454 0.950 . S
H1479 C1455 0.949 . S
H1480 C1457 0.950 . S
H1481 C1459 0.950 . S
C1482 C1483 1.349 . S
C1482 C1484 1.327 . S
C1482 H1507 0.950 . S
C1483 C1482 1.349 . S
C1483 C1499 1.349 . S
C1484 C1482 1.327 . S
C1484 C1503 1.429 . S
C1484 H1508 0.950 . S
C1485 C1502 1.574 1_556 S
C1485 C1504 1.368 . S
C1485 H1509 0.949 . S
H1486 C1490 0.949 . S
C1487 C1488 1.349 . S
C1487 C1489 1.327 . S
C1487 H1510 0.950 . S
C1488 C1487 1.349 . S
C1488 C1500 1.349 . S
C1489 C1487 1.327 . S
C1489 C1505 1.429 . S
C1489 H1511 0.950 . S
C1490 H1486 0.949 . S
C1490 C1498 1.574 1_554 S
C1490 C1506 1.368 . S
H1491 C1499 0.950 . S
H1492 C1497 0.950 . S
H1493 C1498 0.949 . S
H1494 C1500 0.950 . S
H1495 C1501 0.950 . S
H1496 C1502 0.949 . S
C1497 H1492 0.950 . S
C1497 C1499 1.327 . S
C1497 C1503 1.429 . S
C1498 C1490 1.574 1_556 S
C1498 H1493 0.949 . S
C1498 C1504 1.368 . S
C1499 C1483 1.349 . S
C1499 H1491 0.950 . S
C1499 C1497 1.327 . S
C1500 C1488 1.349 . S
C1500 H1494 0.950 . S
C1500 C1501 1.327 . S
C1501 H1495 0.950 . S
C1501 C1500 1.327 . S
C1501 C1505 1.429 . S
C1502 C1485 1.574 1_554 S
C1502 H1496 0.949 . S
C1502 C1506 1.368 . S
C1503 C1484 1.429 . S
C1503 C1497 1.429 . S
C1503 C1504 1.523 . S
C1504 C1485 1.368 . S
C1504 C1498 1.368 . S
C1504 C1503 1.523 . S
C1505 C1489 1.429 . S
C1505 C1501 1.429 . S
C1505 C1506 1.523 . S
C1506 C1490 1.368 . S
C1506 C1502 1.368 . S
C1506 C1505 1.523 . S
H1507 C1482 0.950 . S
H1508 C1484 0.950 . S
H1509 C1485 0.949 . S
H1510 C1487 0.950 . S
H1511 C1489 0.950 . S
C1512 C1513 1.349 . S
C1512 C1514 1.327 . S
C1512 H1537 0.950 . S
C1513 C1512 1.349 . S
C1513 C1529 1.349 1_655 S
C1514 C1512 1.327 . S
C1514 C1533 1.429 . S
C1514 H1538 0.950 . S
C1515 C1532 1.574 . S
C1515 C1534 1.368 . S
C1515 H1539 0.949 . S
H1516 C1520 0.949 . S
C1517 C1518 1.349 . S
C1517 C1519 1.327 . S
C1517 H1540 0.950 . S
C1518 C1517 1.349 . S
C1518 C1530 1.349 . S
C1519 C1517 1.327 . S
C1519 C1535 1.429 . S
C1519 H1541 0.950 . S
C1520 H1516 0.949 . S
C1520 C1528 1.574 . S
C1520 C1536 1.368 . S
H1521 C1529 0.950 . S
H1522 C1527 0.950 1_455 S
H1523 C1528 0.949 . S
H1524 C1530 0.950 . S
H1525 C1531 0.950 . S
H1526 C1532 0.949 . S
C1527 H1522 0.950 1_655 S
C1527 C1529 1.327 1_655 S
C1527 C1533 1.429 . S
C1528 C1520 1.574 . S
C1528 H1523 0.949 . S
C1528 C1534 1.368 . S
C1529 C1513 1.349 1_455 S
C1529 H1521 0.950 . S
C1529 C1527 1.327 1_455 S
C1530 C1518 1.349 . S
C1530 H1524 0.950 . S
C1530 C1531 1.327 . S
C1531 H1525 0.950 . S
C1531 C1530 1.327 . S
C1531 C1535 1.429 . S
C1532 C1515 1.574 . S
C1532 H1526 0.949 . S
C1532 C1536 1.368 . S
C1533 C1514 1.429 . S
C1533 C1527 1.429 . S
C1533 C1534 1.523 . S
C1534 C1515 1.368 . S
C1534 C1528 1.368 . S
C1534 C1533 1.523 . S
C1535 C1519 1.429 . S
C1535 C1531 1.429 . S
C1535 C1536 1.523 . S
C1536 C1520 1.368 . S
C1536 C1532 1.368 . S
C1536 C1535 1.523 . S
H1537 C1512 0.950 . S
H1538 C1514 0.950 . S
H1539 C1515 0.949 . S
H1540 C1517 0.950 . S
H1541 C1519 0.950 . S
C1542 C1543 1.349 . S
C1542 C1544 1.327 . S
C1542 H1567 0.950 . S
C1543 C1542 1.349 . S
C1543 C1559 1.349 . S
C1544 C1542 1.327 . S
C1544 C1563 1.429 . S
C1544 H1568 0.950 . S
C1545 C1562 1.574 . S
C1545 C1564 1.368 . S
C1545 H1569 0.949 . S
H1546 C1550 0.949 . S
C1547 C1548 1.349 . S
C1547 C1549 1.327 . S
C1547 H1570 0.950 . S
C1548 C1547 1.349 . S
C1548 C1560 1.349 . S
C1549 C1547 1.327 . S
C1549 C1565 1.429 . S
C1549 H1571 0.950 . S
C1550 H1546 0.949 . S
C1550 C1558 1.574 . S
C1550 C1566 1.368 . S
H1551 C1559 0.950 . S
H1552 C1557 0.950 . S
H1553 C1558 0.949 . S
H1554 C1560 0.950 . S
H1555 C1561 0.950 . S
H1556 C1562 0.949 . S
C1557 H1552 0.950 . S
C1557 C1559 1.327 . S
C1557 C1563 1.429 . S
C1558 C1550 1.574 . S
C1558 H1553 0.949 . S
C1558 C1564 1.368 . S
C1559 C1543 1.349 . S
C1559 H1551 0.950 . S
C1559 C1557 1.327 . S
C1560 C1548 1.349 . S
C1560 H1554 0.950 . S
C1560 C1561 1.327 . S
C1561 H1555 0.950 . S
C1561 C1560 1.327 . S
C1561 C1565 1.429 . S
C1562 C1545 1.574 . S
C1562 H1556 0.949 . S
C1562 C1566 1.368 . S
C1563 C1544 1.429 . S
C1563 C1557 1.429 . S
C1563 C1564 1.523 . S
C1564 C1545 1.368 . S
C1564 C1558 1.368 . S
C1564 C1563 1.523 . S
C1565 C1549 1.429 . S
C1565 C1561 1.429 . S
C1565 C1566 1.523 . S
C1566 C1550 1.368 . S
C1566 C1562 1.368 . S
C1566 C1565 1.523 . S
H1567 C1542 0.950 . S
H1568 C1544 0.950 . S
H1569 C1545 0.949 . S
H1570 C1547 0.950 . S
H1571 C1549 0.950 . S
C1572 C1573 1.349 . S
C1572 C1574 1.327 . S
C1572 H1597 0.950 . S
C1573 C1572 1.349 . S
C1573 C1589 1.349 . S
C1574 C1572 1.327 . S
C1574 C1593 1.429 . S
C1574 H1598 0.950 . S
C1575 C1592 1.574 . S
C1575 C1594 1.368 . S
C1575 H1599 0.949 . S
H1576 C1580 0.949 . S
C1577 C1578 1.349 . S
C1577 C1579 1.327 . S
C1577 H1600 0.950 . S
C1578 C1577 1.349 . S
C1578 C1590 1.349 . S
C1579 C1577 1.327 . S
C1579 C1595 1.429 . S
C1579 H1601 0.950 . S
C1580 H1576 0.949 . S
C1580 C1588 1.574 . S
C1580 C1596 1.368 . S
H1581 C1589 0.950 . S
H1582 C1587 0.950 . S
H1583 C1588 0.949 . S
H1584 C1590 0.950 . S
H1585 C1591 0.950 . S
H1586 C1592 0.949 . S
C1587 H1582 0.950 . S
C1587 C1589 1.327 . S
C1587 C1593 1.429 . S
C1588 C1580 1.574 . S
C1588 H1583 0.949 . S
C1588 C1594 1.368 . S
C1589 C1573 1.349 . S
C1589 H1581 0.950 . S
C1589 C1587 1.327 . S
C1590 C1578 1.349 . S
C1590 H1584 0.950 . S
C1590 C1591 1.327 . S
C1591 H1585 0.950 . S
C1591 C1590 1.327 . S
C1591 C1595 1.429 . S
C1592 C1575 1.574 . S
C1592 H1586 0.949 . S
C1592 C1596 1.368 . S
C1593 C1574 1.429 . S
C1593 C1587 1.429 . S
C1593 C1594 1.523 . S
C1594 C1575 1.368 . S
C1594 C1588 1.368 . S
C1594 C1593 1.523 . S
C1595 C1579 1.429 . S
C1595 C1591 1.429 . S
C1595 C1596 1.523 . S
C1596 C1580 1.368 . S
C1596 C1592 1.368 . S
C1596 C1595 1.523 . S
H1597 C1572 0.950 . S
H1598 C1574 0.950 . S
H1599 C1575 0.949 . S
H1600 C1577 0.950 . S
H1601 C1579 0.950 . S
C1602 C1603 1.349 . S
C1602 C1604 1.327 . S
C1602 H1627 0.950 . S
C1603 C1602 1.349 . S
C1603 C1619 1.349 . S
C1604 C1602 1.327 . S
C1604 C1623 1.429 . S
C1604 H1628 0.950 . S
C1605 C1622 1.574 . S
C1605 C1624 1.368 . S
C1605 H1629 0.949 . S
H1606 C1610 0.949 1_556 S
C1607 C1608 1.349 . S
C1607 C1609 1.327 . S
C1607 H1630 0.950 . S
C1608 C1607 1.349 . S
C1608 C1620 1.349 . S
C1609 C1607 1.327 . S
C1609 C1625 1.429 . S
C1609 H1631 0.950 . S
C1610 H1606 0.949 1_554 S
C1610 C1618 1.574 . S
C1610 C1626 1.368 1_554 S
H1611 C1619 0.950 . S
H1612 C1617 0.950 . S
H1613 C1618 0.949 . S
H1614 C1620 0.950 . S
H1615 C1621 0.950 . S
H1616 C1622 0.949 1_556 S
C1617 H1612 0.950 . S
C1617 C1619 1.327 . S
C1617 C1623 1.429 . S
C1618 C1610 1.574 . S
C1618 H1613 0.949 . S
C1618 C1624 1.368 . S
C1619 C1603 1.349 . S
C1619 H1611 0.950 . S
C1619 C1617 1.327 . S
C1620 C1608 1.349 . S
C1620 H1614 0.950 . S
C1620 C1621 1.327 . S
C1621 H1615 0.950 . S
C1621 C1620 1.327 . S
C1621 C1625 1.429 . S
C1622 C1605 1.574 . S
C1622 H1616 0.949 1_554 S
C1622 C1626 1.368 1_554 S
C1623 C1604 1.429 . S
C1623 C1617 1.429 . S
C1623 C1624 1.523 . S
C1624 C1605 1.368 . S
C1624 C1618 1.368 . S
C1624 C1623 1.523 . S
C1625 C1609 1.429 . S
C1625 C1621 1.429 . S
C1625 C1626 1.523 . S
C1626 C1610 1.368 1_556 S
C1626 C1622 1.368 1_556 S
C1626 C1625 1.523 . S
H1627 C1602 0.950 . S
H1628 C1604 0.950 . S
H1629 C1605 0.949 . S
H1630 C1607 0.950 . S
H1631 C1609 0.950 . S
C1632 C1633 1.349 . S
C1632 C1634 1.327 . S
C1632 H1657 0.950 . S
C1633 C1632 1.349 . S
C1633 C1649 1.349 . S
C1634 C1632 1.327 . S
C1634 C1653 1.429 . S
C1634 H1658 0.950 . S
C1635 C1652 1.574 . S
C1635 C1654 1.368 1_565 S
C1635 H1659 0.942 1_565 S
H1636 C1640 0.949 . S
C1637 C1638 1.349 . S
C1637 C1639 1.327 . S
C1637 H1660 0.950 . S
C1638 C1637 1.349 . S
C1638 C1650 1.349 . S
C1639 C1637 1.327 . S
C1639 C1655 1.429 . S
C1639 H1661 0.950 . S
C1640 H1636 0.949 . S
C1640 C1648 1.574 . S
C1640 C1656 1.368 . S
H1641 C1649 0.950 . S
H1642 C1647 0.950 . S
H1643 C1648 0.949 1_545 S
H1644 C1650 0.950 . S
H1645 C1651 0.950 . S
H1646 C1652 0.949 . S
C1647 H1642 0.950 . S
C1647 C1649 1.327 . S
C1647 C1653 1.429 . S
C1648 C1640 1.574 . S
C1648 H1643 0.949 1_565 S
C1648 C1654 1.368 1_565 S
C1649 C1633 1.349 . S
C1649 H1641 0.950 . S
C1649 C1647 1.327 . S
C1650 C1638 1.349 . S
C1650 H1644 0.950 . S
C1650 C1651 1.327 . S
C1651 H1645 0.950 . S
C1651 C1650 1.327 . S
C1651 C1655 1.429 . S
C1652 C1635 1.574 . S
C1652 H1646 0.949 . S
C1652 C1656 1.368 . S
C1653 C1634 1.429 . S
C1653 C1647 1.429 . S
C1653 C1654 1.523 . S
C1654 C1635 1.368 1_545 S
C1654 C1648 1.368 1_545 S
C1654 C1653 1.523 . S
C1655 C1639 1.429 . S
C1655 C1651 1.429 . S
C1655 C1656 1.523 . S
C1656 C1640 1.368 . S
C1656 C1652 1.368 . S
C1656 C1655 1.523 . S
H1657 C1632 0.950 . S
H1658 C1634 0.950 . S
H1659 C1635 0.942 1_545 S
H1660 C1637 0.950 . S
H1661 C1639 0.950 . S
C1662 C1663 1.349 . S
C1662 C1664 1.327 1_565 S
C1662 H1687 0.950 . S
C1663 C1662 1.349 . S
C1663 C1679 1.349 . S
C1664 C1662 1.327 1_545 S
C1664 C1683 1.429 . S
C1664 H1688 0.950 . S
C1665 C1682 1.574 . S
C1665 C1684 1.368 . S
C1665 H1689 0.949 . S
H1666 C1670 0.949 . S
C1667 C1668 1.349 . S
C1667 C1669 1.327 . S
C1667 H1690 0.950 . S
C1668 C1667 1.349 . S
C1668 C1680 1.349 . S
C1669 C1667 1.327 . S
C1669 C1685 1.429 . S
C1669 H1691 0.950 . S
C1670 H1666 0.949 . S
C1670 C1678 1.574 . S
C1670 C1686 1.368 . S
H1671 C1679 0.950 . S
H1672 C1677 0.950 . S
H1673 C1678 0.949 . S
H1674 C1680 0.950 . S
H1675 C1681 0.950 . S
H1676 C1682 0.949 . S
C1677 H1672 0.950 . S
C1677 C1679 1.327 . S
C1677 C1683 1.429 1_565 S
C1678 C1670 1.574 . S
C1678 H1673 0.949 . S
C1678 C1684 1.368 . S
C1679 C1663 1.349 . S
C1679 H1671 0.950 . S
C1679 C1677 1.327 . S
C1680 C1668 1.349 . S
C1680 H1674 0.950 . S
C1680 C1681 1.327 . S
C1681 H1675 0.950 . S
C1681 C1680 1.327 . S
C1681 C1685 1.429 . S
C1682 C1665 1.574 . S
C1682 H1676 0.949 . S
C1682 C1686 1.368 . S
C1683 C1664 1.429 . S
C1683 C1677 1.429 1_545 S
C1683 C1684 1.523 . S
C1684 C1665 1.368 . S
C1684 C1678 1.368 . S
C1684 C1683 1.523 . S
C1685 C1669 1.429 . S
C1685 C1681 1.429 . S
C1685 C1686 1.523 . S
C1686 C1670 1.368 . S
C1686 C1682 1.368 . S
C1686 C1685 1.523 . S
H1687 C1662 0.950 . S
H1688 C1664 0.950 . S
H1689 C1665 0.949 . S
H1690 C1667 0.950 . S
H1691 C1669 0.950 . S
C1692 C1693 1.349 . S
C1692 C1694 1.327 . S
C1692 H1717 0.950 . S
C1693 C1692 1.349 . S
C1693 C1709 1.349 . S
C1694 C1692 1.327 . S
C1694 C1713 1.429 . S
C1694 H1718 0.950 . S
C1695 C1712 1.574 . S
C1695 C1714 1.368 . S
C1695 H1719 0.949 . S
H1696 C1700 0.949 . S
C1697 C1698 1.349 . S
C1697 C1699 1.327 . S
C1697 H1720 0.950 . S
C1698 C1697 1.349 . S
C1698 C1710 1.349 . S
C1699 C1697 1.327 . S
C1699 C1715 1.429 . S
C1699 H1721 0.950 . S
C1700 H1696 0.949 . S
C1700 C1708 1.574 . S
C1700 C1716 1.368 . S
H1701 C1709 0.950 . S
H1702 C1707 0.950 . S
H1703 C1708 0.949 . S
H1704 C1710 0.950 . S
H1705 C1711 0.950 . S
H1706 C1712 0.949 . S
C1707 H1702 0.950 . S
C1707 C1709 1.327 . S
C1707 C1713 1.429 . S
C1708 C1700 1.574 . S
C1708 H1703 0.949 . S
C1708 C1714 1.368 . S
C1709 C1693 1.349 . S
C1709 H1701 0.950 . S
C1709 C1707 1.327 . S
C1710 C1698 1.349 . S
C1710 H1704 0.950 . S
C1710 C1711 1.327 . S
C1711 H1705 0.950 . S
C1711 C1710 1.327 . S
C1711 C1715 1.429 . S
C1712 C1695 1.574 . S
C1712 H1706 0.949 . S
C1712 C1716 1.368 . S
C1713 C1694 1.429 . S
C1713 C1707 1.429 . S
C1713 C1714 1.523 . S
C1714 C1695 1.368 . S
C1714 C1708 1.368 . S
C1714 C1713 1.523 . S
C1715 C1699 1.429 . S
C1715 C1711 1.429 . S
C1715 C1716 1.523 . S
C1716 C1700 1.368 . S
C1716 C1712 1.368 . S
C1716 C1715 1.523 . S
H1717 C1692 0.950 . S
H1718 C1694 0.950 . S
H1719 C1695 0.949 . S
H1720 C1697 0.950 . S
H1721 C1699 0.950 . S
C1722 C1723 1.349 . S
C1722 C1724 1.327 . S
C1722 H1747 0.950 . S
C1723 C1722 1.349 . S
C1723 C1739 1.349 . S
C1724 C1722 1.327 . S
C1724 C1743 1.429 . S
C1724 H1748 0.950 . S
C1725 C1742 1.574 . S
C1725 C1744 1.368 . S
C1725 H1749 0.949 . S
H1726 C1730 0.949 . S
C1727 C1728 1.349 . S
C1727 C1729 1.327 . S
C1727 H1750 0.950 . S
C1728 C1727 1.349 . S
C1728 C1740 1.349 . S
C1729 C1727 1.327 . S
C1729 C1745 1.388 1_565 S
C1729 H1751 0.950 . S
C1730 H1726 0.949 . S
C1730 C1738 1.574 . S
C1730 C1746 1.368 . S
H1731 C1739 0.950 . S
H1732 C1737 0.950 . S
H1733 C1738 0.949 . S
H1734 C1740 0.950 . S
H1735 C1741 0.950 1_545 S
H1736 C1742 0.949 . S
C1737 H1732 0.950 . S
C1737 C1739 1.327 . S
C1737 C1743 1.429 . S
C1738 C1730 1.574 . S
C1738 H1733 0.949 . S
C1738 C1744 1.368 . S
C1739 C1723 1.349 . S
C1739 H1731 0.950 . S
C1739 C1737 1.327 . S
C1740 C1728 1.349 . S
C1740 H1734 0.950 . S
C1740 C1741 1.327 . S
C1741 H1735 0.950 1_565 S
C1741 C1740 1.327 . S
C1741 C1745 1.421 1_565 S
C1742 C1725 1.574 . S
C1742 H1736 0.949 . S
C1742 C1746 1.368 . S
C1743 C1724 1.429 . S
C1743 C1737 1.429 . S
C1743 C1744 1.523 . S
C1744 C1725 1.368 . S
C1744 C1738 1.368 . S
C1744 C1743 1.523 . S
C1745 C1729 1.388 1_545 S
C1745 C1741 1.421 1_545 S
C1745 C1746 1.568 . S
C1746 C1730 1.368 . S
C1746 C1742 1.368 . S
C1746 C1745 1.568 . S
H1747 C1722 0.950 . S
H1748 C1724 0.950 . S
H1749 C1725 0.949 . S
H1750 C1727 0.950 . S
H1751 C1729 0.950 . S
C1752 C1753 1.349 . S
C1752 C1754 1.327 . S
C1752 H1777 0.950 . S
C1753 C1752 1.349 . S
C1753 C1769 1.349 . S
C1754 C1752 1.327 . S
C1754 C1773 1.429 . S
C1754 H1778 0.950 . S
C1755 C1772 1.574 . S
C1755 C1774 1.368 . S
C1755 H1779 0.949 . S
H1756 C1760 0.949 . S
C1757 C1758 1.349 . S
C1757 C1759 1.327 . S
C1757 H1780 0.950 . S
C1758 C1757 1.349 . S
C1758 C1770 1.349 . S
C1759 C1757 1.327 . S
C1759 C1775 1.429 . S
C1759 H1781 0.950 . S
C1760 H1756 0.949 . S
C1760 C1768 1.574 . S
C1760 C1776 1.368 . S
H1761 C1769 0.950 . S
H1762 C1767 0.950 . S
H1763 C1768 0.949 . S
H1764 C1770 0.950 . S
H1765 C1771 0.950 . S
H1766 C1772 0.949 . S
C1767 H1762 0.950 . S
C1767 C1769 1.327 . S
C1767 C1773 1.429 . S
C1768 C1760 1.574 . S
C1768 H1763 0.949 . S
C1768 C1774 1.368 . S
C1769 C1753 1.349 . S
C1769 H1761 0.950 . S
C1769 C1767 1.327 . S
C1770 C1758 1.349 . S
C1770 H1764 0.950 . S
C1770 C1771 1.327 . S
C1771 H1765 0.950 . S
C1771 C1770 1.327 . S
C1771 C1775 1.429 . S
C1772 C1755 1.574 . S
C1772 H1766 0.949 . S
C1772 C1776 1.368 . S
C1773 C1754 1.429 . S
C1773 C1767 1.429 . S
C1773 C1774 1.523 . S
C1774 C1755 1.368 . S
C1774 C1768 1.368 . S
C1774 C1773 1.523 . S
C1775 C1759 1.429 . S
C1775 C1771 1.429 . S
C1775 C1776 1.523 . S
C1776 C1760 1.368 . S
C1776 C1772 1.368 . S
C1776 C1775 1.523 . S
H1777 C1752 0.950 . S
H1778 C1754 0.950 . S
H1779 C1755 0.949 . S
H1780 C1757 0.950 . S
H1781 C1759 0.950 . S
C1782 C1783 1.349 . S
C1782 C1784 1.327 . S
C1782 H1807 0.950 . S
C1783 C1782 1.349 . S
C1783 C1799 1.349 . S
C1784 C1782 1.327 . S
C1784 C1803 1.429 . S
C1784 H1808 0.950 1_565 S
C1785 C1802 1.574 . S
C1785 C1804 1.368 . S
C1785 H1809 0.949 1_545 S
H1786 C1790 0.949 . S
C1787 C1788 1.349 . S
C1787 C1789 1.327 . S
C1787 H1810 0.950 . S
C1788 C1787 1.349 . S
C1788 C1800 1.349 . S
C1789 C1787 1.327 . S
C1789 C1805 1.429 . S
C1789 H1811 0.950 . S
C1790 H1786 0.949 . S
C1790 C1798 1.574 . S
C1790 C1806 1.368 . S
H1791 C1799 0.950 . S
H1792 C1797 0.950 . S
H1793 C1798 0.949 . S
H1794 C1800 0.950 . S
H1795 C1801 0.950 . S
H1796 C1802 0.949 . S
C1797 H1792 0.950 . S
C1797 C1799 1.327 . S
C1797 C1803 1.429 . S
C1798 C1790 1.574 . S
C1798 H1793 0.949 . S
C1798 C1804 1.368 . S
C1799 C1783 1.349 . S
C1799 H1791 0.950 . S
C1799 C1797 1.327 . S
C1800 C1788 1.349 . S
C1800 H1794 0.950 . S
C1800 C1801 1.327 . S
C1801 H1795 0.950 . S
C1801 C1800 1.327 . S
C1801 C1805 1.429 . S
C1802 C1785 1.574 . S
C1802 H1796 0.949 . S
C1802 C1806 1.368 . S
C1803 C1784 1.429 . S
C1803 C1797 1.429 . S
C1803 C1804 1.523 1_565 S
C1804 C1785 1.368 . S
C1804 C1798 1.368 . S
C1804 C1803 1.523 1_545 S
C1805 C1789 1.429 . S
C1805 C1801 1.429 . S
C1805 C1806 1.523 . S
C1806 C1790 1.368 . S
C1806 C1802 1.368 . S
C1806 C1805 1.523 . S
H1807 C1782 0.950 . S
H1808 C1784 0.950 1_545 S
H1809 C1785 0.949 1_565 S
H1810 C1787 0.950 . S
H1811 C1789 0.950 . S
C1812 C1813 1.349 . S
C1812 C1814 1.327 . S
C1812 H1837 0.950 . S
C1813 C1812 1.349 . S
C1813 C1829 1.349 . S
C1814 C1812 1.327 . S
C1814 C1833 1.429 . S
C1814 H1838 0.950 . S
C1815 C1832 1.574 . S
C1815 C1834 1.368 . S
C1815 H1839 0.949 . S
H1816 C1820 0.949 . S
C1817 C1818 1.349 . S
C1817 C1819 1.327 . S
C1817 H1840 0.950 . S
C1818 C1817 1.349 . S
C1818 C1830 1.349 . S
C1819 C1817 1.327 . S
C1819 C1835 1.429 . S
C1819 H1841 0.950 . S
C1820 H1816 0.949 . S
C1820 C1828 1.574 . S
C1820 C1836 1.368 . S
H1821 C1829 0.950 1_545 S
H1822 C1827 0.950 . S
H1823 C1828 0.949 . S
H1824 C1830 0.950 . S
H1825 C1831 0.950 . S
H1826 C1832 0.949 . S
C1827 H1822 0.950 . S
C1827 C1829 1.327 . S
C1827 C1833 1.429 . S
C1828 C1820 1.574 . S
C1828 H1823 0.949 . S
C1828 C1834 1.368 . S
C1829 C1813 1.349 . S
C1829 H1821 0.950 1_565 S
C1829 C1827 1.327 . S
C1830 C1818 1.349 . S
C1830 H1824 0.950 . S
C1830 C1831 1.327 . S
C1831 H1825 0.950 . S
C1831 C1830 1.327 . S
C1831 C1835 1.429 . S
C1832 C1815 1.574 . S
C1832 H1826 0.949 . S
C1832 C1836 1.368 . S
C1833 C1814 1.429 . S
C1833 C1827 1.429 . S
C1833 C1834 1.523 . S
C1834 C1815 1.368 . S
C1834 C1828 1.368 . S
C1834 C1833 1.523 . S
C1835 C1819 1.429 . S
C1835 C1831 1.429 . S
C1835 C1836 1.523 . S
C1836 C1820 1.368 . S
C1836 C1832 1.368 . S
C1836 C1835 1.523 . S
H1837 C1812 0.950 . S
H1838 C1814 0.950 . S
H1839 C1815 0.949 . S
H1840 C1817 0.950 . S
H1841 C1819 0.950 . S
C1842 C1843 1.349 . S
C1842 C1844 1.327 . S
C1842 H1867 0.950 . S
C1843 C1842 1.349 . S
C1843 C1859 1.349 . S
C1844 C1842 1.327 . S
C1844 C1863 1.429 . S
C1844 H1868 0.950 . S
C1845 C1862 1.574 . S
C1845 C1864 1.368 . S
C1845 H1869 0.949 . S
H1846 C1850 0.949 . S
C1847 C1848 1.349 . S
C1847 C1849 1.350 . S
C1847 H1870 0.950 . S
C1848 C1847 1.349 . S
C1848 C1860 1.328 1_565 S
C1849 C1847 1.350 . S
C1849 C1865 1.405 1_565 S
C1849 H1871 0.950 . S
C1850 H1846 0.949 . S
C1850 C1858 1.574 . S
C1850 C1866 1.368 . S
H1851 C1859 0.950 . S
H1852 C1857 0.950 . S
H1853 C1858 0.949 . S
H1854 C1860 0.950 . S
H1855 C1861 0.950 . S
H1856 C1862 0.949 . S
C1857 H1852 0.950 . S
C1857 C1859 1.327 . S
C1857 C1863 1.429 . S
C1858 C1850 1.574 . S
C1858 H1853 0.949 . S
C1858 C1864 1.368 . S
C1859 C1843 1.349 . S
C1859 H1851 0.950 . S
C1859 C1857 1.327 . S
C1860 C1848 1.328 1_545 S
C1860 H1854 0.950 . S
C1860 C1861 1.349 . S
C1861 H1855 0.950 . S
C1861 C1860 1.349 . S
C1861 C1865 1.429 . S
C1862 C1845 1.574 . S
C1862 H1856 0.949 . S
C1862 C1866 1.368 . S
C1863 C1844 1.429 . S
C1863 C1857 1.429 . S
C1863 C1864 1.523 . S
C1864 C1845 1.368 . S
C1864 C1858 1.368 . S
C1864 C1863 1.523 . S
C1865 C1849 1.405 1_545 S
C1865 C1861 1.429 . S
C1865 C1866 1.523 . S
C1866 C1850 1.368 . S
C1866 C1862 1.368 . S
C1866 C1865 1.523 . S
H1867 C1842 0.950 . S
H1868 C1844 0.950 . S
H1869 C1845 0.949 . S
H1870 C1847 0.950 . S
H1871 C1849 0.950 . S
C1872 C1873 1.349 . S
C1872 C1874 1.327 . S
C1872 H1897 0.950 1_556 S
C1873 C1872 1.349 . S
C1873 C1889 1.349 . S
C1874 C1872 1.327 . S
C1874 C1893 1.429 . S
C1874 H1898 0.950 . S
C1875 C1892 1.574 . S
C1875 C1894 1.368 . S
C1875 H1899 0.949 . S
H1876 C1880 0.949 . S
C1877 C1878 1.349 . S
C1877 C1879 1.327 . S
C1877 H1900 0.950 . S
C1878 C1877 1.349 . S
C1878 C1890 1.349 . S
C1879 C1877 1.327 . S
C1879 C1895 1.429 . S
C1879 H1901 0.950 . S
C1880 H1876 0.949 . S
C1880 C1888 1.574 . S
C1880 C1896 1.368 . S
H1881 C1889 0.950 . S
H1882 C1887 0.950 . S
H1883 C1888 0.949 . S
H1884 C1890 0.950 . S
H1885 C1891 0.950 . S
H1886 C1892 0.949 . S
C1887 H1882 0.950 . S
C1887 C1889 1.327 . S
C1887 C1893 1.429 . S
C1888 C1880 1.574 . S
C1888 H1883 0.949 . S
C1888 C1894 1.368 . S
C1889 C1873 1.349 . S
C1889 H1881 0.950 . S
C1889 C1887 1.327 . S
C1890 C1878 1.349 . S
C1890 H1884 0.950 . S
C1890 C1891 1.327 . S
C1891 H1885 0.950 . S
C1891 C1890 1.327 . S
C1891 C1895 1.429 . S
C1892 C1875 1.574 . S
C1892 H1886 0.949 . S
C1892 C1896 1.368 . S
C1893 C1874 1.429 . S
C1893 C1887 1.429 . S
C1893 C1894 1.523 . S
C1894 C1875 1.368 . S
C1894 C1888 1.368 . S
C1894 C1893 1.523 . S
C1895 C1879 1.429 . S
C1895 C1891 1.429 . S
C1895 C1896 1.523 . S
C1896 C1880 1.368 . S
C1896 C1892 1.368 . S
C1896 C1895 1.523 . S
H1897 C1872 0.950 1_554 S
H1898 C1874 0.950 . S
H1899 C1875 0.949 . S
H1900 C1877 0.950 . S
H1901 C1879 0.950 . S
C1902 C1903 1.349 . S
C1902 C1904 1.327 . S
C1902 H1927 0.950 . S
C1903 C1902 1.349 . S
C1903 C1919 1.349 . S
C1904 C1902 1.327 . S
C1904 C1923 1.429 . S
C1904 H1928 0.950 . S
C1905 C1922 1.574 . S
C1905 C1924 1.368 . S
C1905 H1929 0.949 . S
H1906 C1910 0.949 . S
C1907 C1908 1.349 . S
C1907 C1909 1.327 . S
C1907 H1930 0.950 . S
C1908 C1907 1.349 . S
C1908 C1920 1.349 . S
C1909 C1907 1.327 . S
C1909 C1925 1.429 . S
C1909 H1931 0.950 . S
C1910 H1906 0.949 . S
C1910 C1918 1.574 . S
C1910 C1926 1.368 . S
H1911 C1919 0.950 . S
H1912 C1917 0.950 . S
H1913 C1918 0.949 . S
H1914 C1920 0.950 . S
H1915 C1921 0.950 . S
H1916 C1922 0.949 . S
C1917 H1912 0.950 . S
C1917 C1919 1.327 . S
C1917 C1923 1.429 . S
C1918 C1910 1.574 . S
C1918 H1913 0.949 . S
C1918 C1924 1.368 . S
C1919 C1903 1.349 . S
C1919 H1911 0.950 . S
C1919 C1917 1.327 . S
C1920 C1908 1.349 . S
C1920 H1914 0.950 . S
C1920 C1921 1.327 . S
C1921 H1915 0.950 . S
C1921 C1920 1.327 . S
C1921 C1925 1.429 . S
C1922 C1905 1.574 . S
C1922 H1916 0.949 . S
C1922 C1926 1.368 . S
C1923 C1904 1.429 . S
C1923 C1917 1.429 . S
C1923 C1924 1.523 . S
C1924 C1905 1.368 . S
C1924 C1918 1.368 . S
C1924 C1923 1.523 . S
C1925 C1909 1.429 . S
C1925 C1921 1.429 . S
C1925 C1926 1.523 . S
C1926 C1910 1.368 . S
C1926 C1922 1.368 . S
C1926 C1925 1.523 . S
H1927 C1902 0.950 . S
H1928 C1904 0.950 . S
H1929 C1905 0.949 . S
H1930 C1907 0.950 . S
H1931 C1909 0.950 . S
C1932 C1933 1.349 . S
C1932 C1934 1.327 . S
C1932 H1957 0.950 . S
C1933 C1932 1.349 . S
C1933 C1949 1.349 . S
C1934 C1932 1.327 . S
C1934 C1953 1.429 . S
C1934 H1958 0.950 . S
C1935 C1952 1.574 1_655 S
C1935 C1954 1.368 . S
C1935 H1959 0.949 . S
H1936 C1940 0.949 . S
C1937 C1938 1.349 . S
C1937 C1939 1.327 . S
C1937 H1960 0.950 . S
C1938 C1937 1.349 . S
C1938 C1950 1.349 . S
C1939 C1937 1.327 . S
C1939 C1955 1.429 . S
C1939 H1961 0.950 . S
C1940 H1936 0.949 . S
C1940 C1948 1.574 1_455 S
C1940 C1956 1.368 . S
H1941 C1949 0.950 . S
H1942 C1947 0.950 . S
H1943 C1948 0.949 . S
H1944 C1950 0.950 . S
H1945 C1951 0.950 . S
H1946 C1952 0.949 . S
C1947 H1942 0.950 . S
C1947 C1949 1.327 . S
C1947 C1953 1.429 . S
C1948 C1940 1.574 1_655 S
C1948 H1943 0.949 . S
C1948 C1954 1.368 . S
C1949 C1933 1.349 . S
C1949 H1941 0.950 . S
C1949 C1947 1.327 . S
C1950 C1938 1.349 . S
C1950 H1944 0.950 . S
C1950 C1951 1.327 . S
C1951 H1945 0.950 . S
C1951 C1950 1.327 . S
C1951 C1955 1.429 . S
C1952 C1935 1.574 1_455 S
C1952 H1946 0.949 . S
C1952 C1956 1.368 . S
C1953 C1934 1.429 . S
C1953 C1947 1.429 . S
C1953 C1954 1.523 . S
C1954 C1935 1.368 . S
C1954 C1948 1.368 . S
C1954 C1953 1.523 . S
C1955 C1939 1.429 . S
C1955 C1951 1.429 . S
C1955 C1956 1.523 . S
C1956 C1940 1.368 . S
C1956 C1952 1.368 . S
C1956 C1955 1.523 . S
H1957 C1932 0.950 . S
H1958 C1934 0.950 . S
H1959 C1935 0.949 . S
H1960 C1937 0.950 . S
H1961 C1939 0.950 . S
C1962 C1963 1.349 . S
C1962 C1964 1.327 . S
C1962 H1987 0.950 . S
C1963 C1962 1.349 . S
C1963 C1979 1.349 . S
C1964 C1962 1.327 . S
C1964 C1983 1.429 . S
C1964 H1988 0.950 . S
C1965 C1982 1.574 . S
C1965 C1984 1.368 . S
C1965 H1989 0.949 . S
H1966 C1970 0.949 . S
C1967 C1968 1.349 . S
C1967 C1969 1.327 . S
C1967 H1990 0.950 . S
C1968 C1967 1.349 . S
C1968 C1980 1.349 . S
C1969 C1967 1.327 . S
C1969 C1985 1.429 . S
C1969 H1991 0.950 . S
C1970 H1966 0.949 . S
C1970 C1978 1.574 . S
C1970 C1986 1.368 . S
H1971 C1979 0.950 . S
H1972 C1977 0.950 . S
H1973 C1978 0.949 . S
H1974 C1980 0.950 . S
H1975 C1981 0.950 . S
H1976 C1982 0.949 . S
C1977 H1972 0.950 . S
C1977 C1979 1.327 . S
C1977 C1983 1.429 . S
C1978 C1970 1.574 . S
C1978 H1973 0.949 . S
C1978 C1984 1.368 . S
C1979 C1963 1.349 . S
C1979 H1971 0.950 . S
C1979 C1977 1.327 . S
C1980 C1968 1.349 . S
C1980 H1974 0.950 . S
C1980 C1981 1.327 . S
C1981 H1975 0.950 . S
C1981 C1980 1.327 . S
C1981 C1985 1.429 . S
C1982 C1965 1.574 . S
C1982 H1976 0.949 . S
C1982 C1986 1.368 . S
C1983 C1964 1.429 . S
C1983 C1977 1.429 . S
C1983 C1984 1.523 . S
C1984 C1965 1.368 . S
C1984 C1978 1.368 . S
C1984 C1983 1.523 . S
C1985 C1969 1.429 . S
C1985 C1981 1.429 . S
C1985 C1986 1.523 . S
C1986 C1970 1.368 . S
C1986 C1982 1.368 . S
C1986 C1985 1.523 . S
H1987 C1962 0.950 . S
H1988 C1964 0.950 . S
H1989 C1965 0.949 . S
H1990 C1967 0.950 . S
H1991 C1969 0.950 . S
C1992 C1993 1.349 . S
C1992 C1994 1.327 . S
C1992 H2017 0.950 . S
C1993 C1992 1.349 . S
C1993 C2009 1.349 . S
C1994 C1992 1.327 . S
C1994 C2013 1.429 . S
C1994 H2018 0.950 1_545 S
C1995 C2012 1.574 1_455 S
C1995 C2014 1.368 . S
C1995 H2019 0.949 . S
H1996 C2000 0.949 1_655 S
C1997 C1998 1.349 1_545 S
C1997 C1999 1.327 . S
C1997 H2020 0.950 . S
C1998 C1997 1.349 1_565 S
C1998 C2010 1.349 . S
C1999 C1997 1.327 . S
C1999 C2015 1.429 1_545 S
C1999 H2021 0.950 . S
C2000 H1996 0.949 1_455 S
C2000 C2008 1.574 . S
C2000 C2016 1.368 1_465 S
H2001 C2009 0.950 . S
H2002 C2007 0.950 . S
H2003 C2008 0.949 . S
H2004 C2010 0.950 . S
H2005 C2011 0.950 . S
H2006 C2012 0.949 . S
C2007 H2002 0.950 . S
C2007 C2009 1.327 . S
C2007 C2013 1.429 . S
C2008 C2000 1.574 . S
C2008 H2003 0.949 . S
C2008 C2014 1.368 1_565 S
C2009 C1993 1.349 . S
C2009 H2001 0.950 . S
C2009 C2007 1.327 . S
C2010 C1998 1.349 . S
C2010 H2004 0.950 . S
C2010 C2011 1.327 . S
C2011 H2005 0.950 . S
C2011 C2010 1.327 . S
C2011 C2015 1.429 . S
C2012 C1995 1.574 1_655 S
C2012 H2006 0.949 . S
C2012 C2016 1.368 . S
C2013 C1994 1.429 . S
C2013 C2007 1.429 . S
C2013 C2014 1.523 . S
C2014 C1995 1.368 . S
C2014 C2008 1.368 1_545 S
C2014 C2013 1.523 . S
C2015 C1999 1.429 1_565 S
C2015 C2011 1.429 . S
C2015 C2016 1.523 1_565 S
C2016 C2000 1.368 1_645 S
C2016 C2012 1.368 . S
C2016 C2015 1.523 1_545 S
H2017 C1992 0.950 . S
H2018 C1994 0.950 1_565 S
H2019 C1995 0.949 . S
H2020 C1997 0.950 . S
H2021 C1999 0.950 . S
C2022 C2023 1.349 . S
C2022 C2024 1.327 . S
C2022 H2047 0.950 . S
C2023 C2022 1.349 . S
C2023 C2039 1.349 . S
C2024 C2022 1.327 . S
C2024 C2043 1.429 . S
C2024 H2048 0.950 . S
C2025 C2042 1.574 . S
C2025 C2044 1.368 . S
C2025 H2049 0.949 . S
H2026 C2030 0.949 . S
C2027 C2028 1.349 . S
C2027 C2029 1.327 . S
C2027 H2050 0.950 . S
C2028 C2027 1.349 . S
C2028 C2040 1.349 . S
C2029 C2027 1.327 . S
C2029 C2045 1.429 . S
C2029 H2051 0.950 . S
C2030 H2026 0.949 . S
C2030 C2038 1.574 . S
C2030 C2046 1.368 . S
H2031 C2039 0.950 . S
H2032 C2037 0.950 . S
H2033 C2038 0.949 . S
H2034 C2040 0.950 . S
H2035 C2041 0.950 . S
H2036 C2042 0.949 . S
C2037 H2032 0.950 . S
C2037 C2039 1.327 . S
C2037 C2043 1.429 . S
C2038 C2030 1.574 . S
C2038 H2033 0.949 . S
C2038 C2044 1.368 . S
C2039 C2023 1.349 . S
C2039 H2031 0.950 . S
C2039 C2037 1.327 . S
C2040 C2028 1.349 . S
C2040 H2034 0.950 . S
C2040 C2041 1.327 . S
C2041 H2035 0.950 . S
C2041 C2040 1.327 . S
C2041 C2045 1.429 . S
C2042 C2025 1.574 . S
C2042 H2036 0.949 . S
C2042 C2046 1.368 . S
C2043 C2024 1.429 . S
C2043 C2037 1.429 . S
C2043 C2044 1.523 . S
C2044 C2025 1.368 . S
C2044 C2038 1.368 . S
C2044 C2043 1.523 . S
C2045 C2029 1.429 . S
C2045 C2041 1.429 . S
C2045 C2046 1.523 . S
C2046 C2030 1.368 . S
C2046 C2042 1.368 . S
C2046 C2045 1.523 . S
H2047 C2022 0.950 . S
H2048 C2024 0.950 . S
H2049 C2025 0.949 . S
H2050 C2027 0.950 . S
H2051 C2029 0.950 . S
C2052 C2053 1.349 . S
C2052 C2054 1.327 . S
C2052 H2077 0.950 . S
C2053 C2052 1.349 . S
C2053 C2069 1.349 . S
C2054 C2052 1.327 . S
C2054 C2073 1.429 . S
C2054 H2078 0.950 . S
C2055 C2072 1.574 1_655 S
C2055 C2074 1.368 . S
C2055 H2079 0.949 . S
H2056 C2060 0.949 . S
C2057 C2058 1.349 . S
C2057 C2059 1.327 . S
C2057 H2080 0.950 . S
C2058 C2057 1.349 . S
C2058 C2070 1.349 . S
C2059 C2057 1.327 . S
C2059 C2075 1.429 . S
C2059 H2081 0.950 . S
C2060 H2056 0.949 . S
C2060 C2068 1.574 1_455 S
C2060 C2076 1.368 . S
H2061 C2069 0.950 . S
H2062 C2067 0.950 . S
H2063 C2068 0.949 . S
H2064 C2070 0.950 . S
H2065 C2071 0.950 . S
H2066 C2072 0.949 . S
C2067 H2062 0.950 . S
C2067 C2069 1.327 . S
C2067 C2073 1.429 . S
C2068 C2060 1.574 1_655 S
C2068 H2063 0.949 . S
C2068 C2074 1.368 . S
C2069 C2053 1.349 . S
C2069 H2061 0.950 . S
C2069 C2067 1.327 . S
C2070 C2058 1.349 . S
C2070 H2064 0.950 . S
C2070 C2071 1.327 . S
C2071 H2065 0.950 . S
C2071 C2070 1.327 . S
C2071 C2075 1.429 . S
C2072 C2055 1.574 1_455 S
C2072 H2066 0.949 . S
C2072 C2076 1.368 . S
C2073 C2054 1.429 . S
C2073 C2067 1.429 . S
C2073 C2074 1.523 . S
C2074 C2055 1.368 . S
C2074 C2068 1.368 . S
C2074 C2073 1.523 . S
C2075 C2059 1.429 . S
C2075 C2071 1.429 . S
C2075 C2076 1.523 . S
C2076 C2060 1.368 . S
C2076 C2072 1.368 . S
C2076 C2075 1.523 . S
H2077 C2052 0.950 . S
H2078 C2054 0.950 . S
H2079 C2055 0.949 . S
H2080 C2057 0.950 . S
H2081 C2059 0.950 . S
C2082 C2083 1.349 . S
C2082 C2084 1.327 . S
C2082 H2107 0.950 . S
C2083 C2082 1.349 . S
C2083 C2099 1.349 . S
C2084 C2082 1.327 . S
C2084 C2103 1.429 . S
C2084 H2108 0.950 . S
C2085 C2102 1.574 . S
C2085 C2104 1.368 . S
C2085 H2109 0.949 . S
H2086 C2090 0.949 . S
C2087 C2088 1.349 . S
C2087 C2089 1.327 . S
C2087 H2110 0.950 . S
C2088 C2087 1.349 . S
C2088 C2100 1.349 . S
C2089 C2087 1.327 . S
C2089 C2105 1.429 . S
C2089 H2111 0.950 . S
C2090 H2086 0.949 . S
C2090 C2098 1.574 . S
C2090 C2106 1.368 . S
H2091 C2099 0.950 . S
H2092 C2097 0.950 . S
H2093 C2098 0.949 . S
H2094 C2100 0.950 . S
H2095 C2101 0.950 . S
H2096 C2102 0.949 . S
C2097 H2092 0.950 . S
C2097 C2099 1.327 . S
C2097 C2103 1.429 . S
C2098 C2090 1.574 . S
C2098 H2093 0.949 . S
C2098 C2104 1.368 . S
C2099 C2083 1.349 . S
C2099 H2091 0.950 . S
C2099 C2097 1.327 . S
C2100 C2088 1.349 . S
C2100 H2094 0.950 . S
C2100 C2101 1.327 . S
C2101 H2095 0.950 . S
C2101 C2100 1.327 . S
C2101 C2105 1.429 . S
C2102 C2085 1.574 . S
C2102 H2096 0.949 . S
C2102 C2106 1.368 . S
C2103 C2084 1.429 . S
C2103 C2097 1.429 . S
C2103 C2104 1.523 . S
C2104 C2085 1.368 . S
C2104 C2098 1.368 . S
C2104 C2103 1.523 . S
C2105 C2089 1.429 . S
C2105 C2101 1.429 . S
C2105 C2106 1.523 . S
C2106 C2090 1.368 . S
C2106 C2102 1.368 . S
C2106 C2105 1.523 . S
H2107 C2082 0.950 . S
H2108 C2084 0.950 . S
H2109 C2085 0.949 . S
H2110 C2087 0.950 . S
H2111 C2089 0.950 . S
C2112 C2113 1.349 . S
C2112 C2114 1.327 . S
C2112 H2137 0.950 . S
C2113 C2112 1.349 . S
C2113 C2129 1.349 . S
C2114 C2112 1.327 . S
C2114 C2133 1.429 . S
C2114 H2138 0.950 . S
C2115 C2132 1.574 . S
C2115 C2134 1.368 . S
C2115 H2139 0.949 . S
H2116 C2120 0.949 . S
C2117 C2118 1.349 . S
C2117 C2119 1.327 . S
C2117 H2140 0.950 . S
C2118 C2117 1.349 . S
C2118 C2130 1.349 . S
C2119 C2117 1.327 . S
C2119 C2135 1.429 . S
C2119 H2141 0.950 . S
C2120 H2116 0.949 . S
C2120 C2128 1.574 . S
C2120 C2136 1.368 . S
H2121 C2129 0.950 . S
H2122 C2127 0.950 . S
H2123 C2128 0.949 . S
H2124 C2130 0.950 . S
H2125 C2131 0.950 . S
H2126 C2132 0.949 . S
C2127 H2122 0.950 . S
C2127 C2129 1.327 . S
C2127 C2133 1.429 . S
C2128 C2120 1.574 . S
C2128 H2123 0.949 . S
C2128 C2134 1.368 . S
C2129 C2113 1.349 . S
C2129 H2121 0.950 . S
C2129 C2127 1.327 . S
C2130 C2118 1.349 . S
C2130 H2124 0.950 . S
C2130 C2131 1.327 . S
C2131 H2125 0.950 . S
C2131 C2130 1.327 . S
C2131 C2135 1.429 . S
C2132 C2115 1.574 . S
C2132 H2126 0.949 . S
C2132 C2136 1.368 . S
C2133 C2114 1.429 . S
C2133 C2127 1.429 . S
C2133 C2134 1.523 . S
C2134 C2115 1.368 . S
C2134 C2128 1.368 . S
C2134 C2133 1.523 . S
C2135 C2119 1.429 . S
C2135 C2131 1.429 . S
C2135 C2136 1.523 . S
C2136 C2120 1.368 . S
C2136 C2132 1.368 . S
C2136 C2135 1.523 . S
H2137 C2112 0.950 . S
H2138 C2114 0.950 . S
H2139 C2115 0.949 . S
H2140 C2117 0.950 . S
H2141 C2119 0.950 . S
C2142 C2143 1.349 . S
C2142 C2144 1.327 . S
C2142 H2167 0.950 . S
C2143 C2142 1.349 . S
C2143 C2159 1.349 . S
C2144 C2142 1.327 . S
C2144 C2163 1.429 . S
C2144 H2168 0.950 . S
C2145 C2162 1.574 . S
C2145 C2164 1.368 . S
C2145 H2169 0.949 . S
H2146 C2150 0.906 1_556 S
C2147 C2148 1.349 . S
C2147 C2149 1.327 . S
C2147 H2170 0.950 . S
C2148 C2147 1.349 . S
C2148 C2160 1.349 . S
C2149 C2147 1.327 . S
C2149 C2165 1.429 . S
C2149 H2171 0.950 . S
C2150 H2146 0.906 1_554 S
C2150 C2158 1.574 . S
C2150 C2166 1.368 . S
H2151 C2159 0.950 . S
H2152 C2157 0.950 . S
H2153 C2158 0.949 . S
H2154 C2160 0.950 . S
H2155 C2161 0.950 . S
H2156 C2162 0.949 . S
C2157 H2152 0.950 . S
C2157 C2159 1.327 . S
C2157 C2163 1.429 . S
C2158 C2150 1.574 . S
C2158 H2153 0.949 . S
C2158 C2164 1.368 . S
C2159 C2143 1.349 . S
C2159 H2151 0.950 . S
C2159 C2157 1.327 . S
C2160 C2148 1.349 . S
C2160 H2154 0.950 . S
C2160 C2161 1.327 . S
C2161 H2155 0.950 . S
C2161 C2160 1.327 . S
C2161 C2165 1.429 . S
C2162 C2145 1.574 . S
C2162 H2156 0.949 . S
C2162 C2166 1.368 . S
C2163 C2144 1.429 . S
C2163 C2157 1.429 . S
C2163 C2164 1.523 . S
C2164 C2145 1.368 . S
C2164 C2158 1.368 . S
C2164 C2163 1.523 . S
C2165 C2149 1.429 . S
C2165 C2161 1.429 . S
C2165 C2166 1.523 1_556 S
C2166 C2150 1.368 . S
C2166 C2162 1.368 . S
C2166 C2165 1.523 1_554 S
H2167 C2142 0.950 . S
H2168 C2144 0.950 . S
H2169 C2145 0.949 . S
H2170 C2147 0.950 . S
H2171 C2149 0.950 . S
C2172 C2173 1.349 . S
C2172 C2174 1.327 . S
C2172 H2197 0.950 1_655 S
C2173 C2172 1.349 . S
C2173 C2189 1.349 . S
C2174 C2172 1.327 . S
C2174 C2193 1.429 . S
C2174 H2198 0.950 . S
C2175 C2192 1.574 . S
C2175 C2194 1.368 . S
C2175 H2199 0.949 . S
H2176 C2180 0.949 . S
C2177 C2178 1.349 . S
C2177 C2179 1.327 . S
C2177 H2200 0.950 . S
C2178 C2177 1.349 . S
C2178 C2190 1.349 . S
C2179 C2177 1.327 . S
C2179 C2195 1.429 . S
C2179 H2201 0.950 . S
C2180 H2176 0.949 . S
C2180 C2188 1.574 . S
C2180 C2196 1.368 . S
H2181 C2189 0.950 . S
H2182 C2187 0.950 . S
H2183 C2188 0.949 . S
H2184 C2190 0.950 . S
H2185 C2191 0.950 . S
H2186 C2192 0.949 . S
C2187 H2182 0.950 . S
C2187 C2189 1.327 . S
C2187 C2193 1.429 . S
C2188 C2180 1.574 . S
C2188 H2183 0.949 . S
C2188 C2194 1.368 . S
C2189 C2173 1.349 . S
C2189 H2181 0.950 . S
C2189 C2187 1.327 . S
C2190 C2178 1.349 . S
C2190 H2184 0.950 . S
C2190 C2191 1.327 . S
C2191 H2185 0.950 . S
C2191 C2190 1.327 . S
C2191 C2195 1.429 . S
C2192 C2175 1.574 . S
C2192 H2186 0.949 . S
C2192 C2196 1.368 . S
C2193 C2174 1.429 . S
C2193 C2187 1.429 . S
C2193 C2194 1.523 . S
C2194 C2175 1.368 . S
C2194 C2188 1.368 . S
C2194 C2193 1.523 . S
C2195 C2179 1.429 . S
C2195 C2191 1.429 . S
C2195 C2196 1.523 . S
C2196 C2180 1.368 . S
C2196 C2192 1.368 . S
C2196 C2195 1.523 . S
H2197 C2172 0.950 1_455 S
H2198 C2174 0.950 . S
H2199 C2175 0.949 . S
H2200 C2177 0.950 . S
H2201 C2179 0.950 . S
C2202 C2203 1.349 . S
C2202 C2204 1.327 . S
C2202 H2227 0.950 . S
C2203 C2202 1.349 . S
C2203 C2219 1.349 . S
C2204 C2202 1.327 . S
C2204 C2223 1.429 . S
C2204 H2228 0.950 . S
C2205 C2222 1.574 . S
C2205 C2224 1.368 . S
C2205 H2229 0.949 . S
H2206 C2210 0.949 . S
C2207 C2208 1.349 . S
C2207 C2209 1.327 . S
C2207 H2230 0.950 . S
C2208 C2207 1.349 . S
C2208 C2220 1.349 . S
C2209 C2207 1.327 . S
C2209 C2225 1.429 . S
C2209 H2231 0.950 . S
C2210 H2206 0.949 . S
C2210 C2218 1.574 . S
C2210 C2226 1.368 . S
H2211 C2219 0.950 . S
H2212 C2217 0.950 . S
H2213 C2218 0.949 . S
H2214 C2220 0.950 . S
H2215 C2221 0.950 . S
H2216 C2222 0.949 . S
C2217 H2212 0.950 . S
C2217 C2219 1.327 . S
C2217 C2223 1.429 . S
C2218 C2210 1.574 . S
C2218 H2213 0.949 . S
C2218 C2224 1.368 . S
C2219 C2203 1.349 . S
C2219 H2211 0.950 . S
C2219 C2217 1.327 . S
C2220 C2208 1.349 . S
C2220 H2214 0.950 . S
C2220 C2221 1.327 . S
C2221 H2215 0.950 . S
C2221 C2220 1.327 . S
C2221 C2225 1.429 . S
C2222 C2205 1.574 . S
C2222 H2216 0.949 . S
C2222 C2226 1.368 . S
C2223 C2204 1.429 . S
C2223 C2217 1.429 . S
C2223 C2224 1.523 . S
C2224 C2205 1.368 . S
C2224 C2218 1.368 . S
C2224 C2223 1.523 . S
C2225 C2209 1.429 . S
C2225 C2221 1.429 . S
C2225 C2226 1.523 . S
C2226 C2210 1.368 . S
C2226 C2222 1.368 . S
C2226 C2225 1.523 . S
H2227 C2202 0.950 . S
H2228 C2204 0.950 . S
H2229 C2205 0.949 . S
H2230 C2207 0.950 . S
H2231 C2209 0.950 . S
C2232 C2233 1.349 . S
C2232 C2234 1.327 . S
C2232 H2257 0.950 . S
C2233 C2232 1.349 . S
C2233 C2249 1.349 . S
C2234 C2232 1.327 . S
C2234 C2253 1.429 . S
C2234 H2258 0.950 . S
C2235 C2252 1.574 . S
C2235 C2254 1.368 . S
C2235 H2259 0.949 . S
H2236 C2240 0.949 . S
C2237 C2238 1.349 . S
C2237 C2239 1.327 . S
C2237 H2260 0.950 . S
C2238 C2237 1.349 . S
C2238 C2250 1.349 . S
C2239 C2237 1.327 . S
C2239 C2255 1.429 . S
C2239 H2261 0.950 . S
C2240 H2236 0.949 . S
C2240 C2248 1.574 . S
C2240 C2256 1.368 . S
H2241 C2249 0.950 . S
H2242 C2247 0.950 . S
H2243 C2248 0.949 . S
H2244 C2250 0.950 . S
H2245 C2251 0.950 . S
H2246 C2252 0.949 . S
C2247 H2242 0.950 . S
C2247 C2249 1.327 . S
C2247 C2253 1.429 . S
C2248 C2240 1.574 . S
C2248 H2243 0.949 . S
C2248 C2254 1.368 . S
C2249 C2233 1.349 . S
C2249 H2241 0.950 . S
C2249 C2247 1.327 . S
C2250 C2238 1.349 . S
C2250 H2244 0.950 . S
C2250 C2251 1.327 . S
C2251 H2245 0.950 . S
C2251 C2250 1.327 . S
C2251 C2255 1.429 . S
C2252 C2235 1.574 . S
C2252 H2246 0.949 . S
C2252 C2256 1.368 . S
C2253 C2234 1.429 . S
C2253 C2247 1.429 . S
C2253 C2254 1.523 . S
C2254 C2235 1.368 . S
C2254 C2248 1.368 . S
C2254 C2253 1.523 . S
C2255 C2239 1.429 . S
C2255 C2251 1.429 . S
C2255 C2256 1.523 . S
C2256 C2240 1.368 . S
C2256 C2252 1.368 . S
C2256 C2255 1.523 . S
H2257 C2232 0.950 . S
H2258 C2234 0.950 . S
H2259 C2235 0.949 . S
H2260 C2237 0.950 . S
H2261 C2239 0.950 . S
C2262 C2263 1.343 1_455 S
C2262 C2264 1.327 1_455 S
C2262 H2287 0.950 . S
C2263 C2262 1.343 1_655 S
C2263 C2279 1.371 . S
C2264 C2262 1.327 1_655 S
C2264 C2283 1.429 . S
C2264 H2288 0.950 . S
C2265 C2282 1.574 1_556 S
C2265 C2284 1.368 . S
C2265 H2289 0.949 . S
H2266 C2270 0.949 . S
C2267 C2268 1.349 . S
C2267 C2269 1.327 . S
C2267 H2290 0.950 . S
C2268 C2267 1.349 . S
C2268 C2280 1.349 . S
C2269 C2267 1.327 . S
C2269 C2285 1.429 . S
C2269 H2291 0.950 . S
C2270 H2266 0.949 . S
C2270 C2278 1.574 . S
C2270 C2286 1.368 . S
H2271 C2279 0.950 . S
H2272 C2277 0.950 . S
H2273 C2278 0.949 . S
H2274 C2280 0.950 . S
H2275 C2281 0.950 . S
H2276 C2282 0.949 . S
C2277 H2272 0.950 . S
C2277 C2279 1.327 . S
C2277 C2283 1.429 . S
C2278 C2270 1.574 . S
C2278 H2273 0.949 . S
C2278 C2284 1.368 1_554 S
C2279 C2263 1.371 . S
C2279 H2271 0.950 . S
C2279 C2277 1.327 . S
C2280 C2268 1.349 . S
C2280 H2274 0.950 . S
C2280 C2281 1.327 . S
C2281 H2275 0.950 . S
C2281 C2280 1.327 . S
C2281 C2285 1.429 . S
C2282 C2265 1.574 1_554 S
C2282 H2276 0.949 . S
C2282 C2286 1.368 . S
C2283 C2264 1.429 . S
C2283 C2277 1.429 . S
C2283 C2284 1.523 . S
C2284 C2265 1.368 . S
C2284 C2278 1.368 1_556 S
C2284 C2283 1.523 . S
C2285 C2269 1.429 . S
C2285 C2281 1.429 . S
C2285 C2286 1.523 . S
C2286 C2270 1.368 . S
C2286 C2282 1.368 . S
C2286 C2285 1.523 . S
H2287 C2262 0.950 . S
H2288 C2264 0.950 . S
H2289 C2265 0.949 . S
H2290 C2267 0.950 . S
H2291 C2269 0.950 . S
C2292 C2293 1.349 . S
C2292 C2294 1.327 . S
C2292 H2317 0.950 . S
C2293 C2292 1.349 . S
C2293 C2309 1.349 . S
C2294 C2292 1.327 . S
C2294 C2313 1.429 . S
C2294 H2318 0.950 . S
C2295 C2312 1.574 . S
C2295 C2314 1.368 . S
C2295 H2319 0.949 . S
H2296 C2300 0.949 . S
C2297 C2298 1.349 . S
C2297 C2299 1.327 . S
C2297 H2320 0.950 . S
C2298 C2297 1.349 . S
C2298 C2310 1.349 . S
C2299 C2297 1.327 . S
C2299 C2315 1.429 . S
C2299 H2321 0.950 . S
C2300 H2296 0.949 . S
C2300 C2308 1.574 . S
C2300 C2316 1.368 . S
H2301 C2309 0.950 . S
H2302 C2307 0.950 . S
H2303 C2308 0.949 . S
H2304 C2310 0.950 . S
H2305 C2311 0.950 . S
H2306 C2312 0.949 . S
C2307 H2302 0.950 . S
C2307 C2309 1.327 . S
C2307 C2313 1.429 . S
C2308 C2300 1.574 . S
C2308 H2303 0.949 . S
C2308 C2314 1.368 . S
C2309 C2293 1.349 . S
C2309 H2301 0.950 . S
C2309 C2307 1.327 . S
C2310 C2298 1.349 . S
C2310 H2304 0.950 . S
C2310 C2311 1.327 . S
C2311 H2305 0.950 . S
C2311 C2310 1.327 . S
C2311 C2315 1.429 . S
C2312 C2295 1.574 . S
C2312 H2306 0.949 . S
C2312 C2316 1.368 . S
C2313 C2294 1.429 . S
C2313 C2307 1.429 . S
C2313 C2314 1.523 . S
C2314 C2295 1.368 . S
C2314 C2308 1.368 . S
C2314 C2313 1.523 . S
C2315 C2299 1.429 . S
C2315 C2311 1.429 . S
C2315 C2316 1.523 . S
C2316 C2300 1.368 . S
C2316 C2312 1.368 . S
C2316 C2315 1.523 . S
H2317 C2292 0.950 . S
H2318 C2294 0.950 . S
H2319 C2295 0.949 . S
H2320 C2297 0.950 . S
H2321 C2299 0.950 . S
C2322 C2323 1.349 . S
C2322 C2324 1.327 . S
C2322 H2347 0.950 . S
C2323 C2322 1.349 . S
C2323 C2339 1.349 . S
C2324 C2322 1.327 . S
C2324 C2343 1.429 . S
C2324 H2348 0.950 . S
C2325 C2342 1.574 . S
C2325 C2344 1.368 . S
C2325 H2349 0.949 . S
H2326 C2330 0.949 . S
C2327 C2328 1.349 . S
C2327 C2329 1.327 . S
C2327 H2350 0.950 . S
C2328 C2327 1.349 . S
C2328 C2340 1.349 . S
C2329 C2327 1.327 . S
C2329 C2345 1.429 . S
C2329 H2351 0.950 . S
C2330 H2326 0.949 . S
C2330 C2338 1.574 . S
C2330 C2346 1.368 . S
H2331 C2339 0.950 . S
H2332 C2337 0.950 . S
H2333 C2338 0.949 . S
H2334 C2340 0.950 . S
H2335 C2341 0.950 . S
H2336 C2342 0.949 . S
C2337 H2332 0.950 . S
C2337 C2339 1.327 . S
C2337 C2343 1.429 . S
C2338 C2330 1.574 . S
C2338 H2333 0.949 . S
C2338 C2344 1.368 . S
C2339 C2323 1.349 . S
C2339 H2331 0.950 . S
C2339 C2337 1.327 . S
C2340 C2328 1.349 . S
C2340 H2334 0.950 . S
C2340 C2341 1.327 . S
C2341 H2335 0.950 . S
C2341 C2340 1.327 . S
C2341 C2345 1.429 . S
C2342 C2325 1.574 . S
C2342 H2336 0.949 . S
C2342 C2346 1.368 . S
C2343 C2324 1.429 . S
C2343 C2337 1.429 . S
C2343 C2344 1.523 . S
C2344 C2325 1.368 . S
C2344 C2338 1.368 . S
C2344 C2343 1.523 . S
C2345 C2329 1.429 . S
C2345 C2341 1.429 . S
C2345 C2346 1.523 . S
C2346 C2330 1.368 . S
C2346 C2342 1.368 . S
C2346 C2345 1.523 . S
H2347 C2322 0.950 . S
H2348 C2324 0.950 . S
H2349 C2325 0.949 . S
H2350 C2327 0.950 . S
H2351 C2329 0.950 . S
C2352 C2353 1.349 . S
C2352 C2354 1.327 . S
C2352 H2377 0.950 . S
C2353 C2352 1.349 . S
C2353 C2369 1.349 . S
C2354 C2352 1.327 . S
C2354 C2373 1.429 . S
C2354 H2378 0.950 . S
C2355 C2372 1.574 . S
C2355 C2374 1.368 . S
C2355 H2379 0.949 . S
H2356 C2360 0.949 . S
C2357 C2358 1.349 . S
C2357 C2359 1.327 . S
C2357 H2380 0.950 . S
C2358 C2357 1.349 . S
C2358 C2370 1.349 . S
C2359 C2357 1.327 . S
C2359 C2375 1.429 . S
C2359 H2381 0.950 . S
C2360 H2356 0.949 . S
C2360 C2368 1.574 . S
C2360 C2376 1.368 . S
H2361 C2369 0.950 . S
H2362 C2367 0.950 . S
H2363 C2368 0.949 . S
H2364 C2370 0.950 . S
H2365 C2371 0.950 . S
H2366 C2372 0.949 . S
C2367 H2362 0.950 . S
C2367 C2369 1.327 . S
C2367 C2373 1.429 . S
C2368 C2360 1.574 . S
C2368 H2363 0.949 . S
C2368 C2374 1.368 . S
C2369 C2353 1.349 . S
C2369 H2361 0.950 . S
C2369 C2367 1.327 . S
C2370 C2358 1.349 . S
C2370 H2364 0.950 . S
C2370 C2371 1.327 . S
C2371 H2365 0.950 . S
C2371 C2370 1.327 . S
C2371 C2375 1.429 . S
C2372 C2355 1.574 . S
C2372 H2366 0.949 . S
C2372 C2376 1.368 . S
C2373 C2354 1.429 . S
C2373 C2367 1.429 . S
C2373 C2374 1.523 . S
C2374 C2355 1.368 . S
C2374 C2368 1.368 . S
C2374 C2373 1.523 . S
C2375 C2359 1.429 . S
C2375 C2371 1.429 . S
C2375 C2376 1.523 . S
C2376 C2360 1.368 . S
C2376 C2372 1.368 . S
C2376 C2375 1.523 . S
H2377 C2352 0.950 . S
H2378 C2354 0.950 . S
H2379 C2355 0.949 . S
H2380 C2357 0.950 . S
H2381 C2359 0.950 . S
C2382 C2383 1.349 . S
C2382 C2384 1.327 . S
C2382 H2407 0.950 . S
C2383 C2382 1.349 . S
C2383 C2399 1.349 . S
C2384 C2382 1.327 . S
C2384 C2403 1.429 . S
C2384 H2408 0.950 . S
C2385 C2402 1.574 . S
C2385 C2404 1.368 . S
C2385 H2409 0.949 . S
H2386 C2390 0.949 . S
C2387 C2388 1.349 . S
C2387 C2389 1.327 . S
C2387 H2410 0.950 . S
C2388 C2387 1.349 . S
C2388 C2400 1.349 . S
C2389 C2387 1.327 . S
C2389 C2405 1.429 . S
C2389 H2411 0.950 . S
C2390 H2386 0.949 . S
C2390 C2398 1.574 . S
C2390 C2406 1.368 . S
H2391 C2399 0.950 1_554 S
H2392 C2397 0.950 . S
H2393 C2398 0.949 . S
H2394 C2400 0.950 . S
H2395 C2401 0.950 . S
H2396 C2402 0.949 . S
C2397 H2392 0.950 . S
C2397 C2399 1.327 . S
C2397 C2403 1.429 . S
C2398 C2390 1.574 . S
C2398 H2393 0.949 . S
C2398 C2404 1.368 . S
C2399 C2383 1.349 . S
C2399 H2391 0.950 1_556 S
C2399 C2397 1.327 . S
C2400 C2388 1.349 . S
C2400 H2394 0.950 . S
C2400 C2401 1.327 . S
C2401 H2395 0.950 . S
C2401 C2400 1.327 . S
C2401 C2405 1.429 . S
C2402 C2385 1.574 . S
C2402 H2396 0.949 . S
C2402 C2406 1.368 . S
C2403 C2384 1.429 . S
C2403 C2397 1.429 . S
C2403 C2404 1.523 . S
C2404 C2385 1.368 . S
C2404 C2398 1.368 . S
C2404 C2403 1.523 . S
C2405 C2389 1.429 . S
C2405 C2401 1.429 . S
C2405 C2406 1.523 . S
C2406 C2390 1.368 . S
C2406 C2402 1.368 . S
C2406 C2405 1.523 . S
H2407 C2382 0.950 . S
H2408 C2384 0.950 . S
H2409 C2385 0.949 . S
H2410 C2387 0.950 . S
H2411 C2389 0.950 . S
C2412 C2413 1.349 . S
C2412 C2414 1.327 . S
C2412 H2437 0.950 . S
C2413 C2412 1.349 . S
C2413 C2429 1.349 . S
C2414 C2412 1.327 . S
C2414 C2433 1.429 . S
C2414 H2438 0.950 . S
C2415 C2432 1.574 . S
C2415 C2434 1.368 . S
C2415 H2439 0.949 . S
H2416 C2420 0.949 . S
C2417 C2418 1.349 . S
C2417 C2419 1.327 . S
C2417 H2440 0.950 . S
C2418 C2417 1.349 . S
C2418 C2430 1.349 . S
C2419 C2417 1.327 . S
C2419 C2435 1.429 . S
C2419 H2441 0.950 . S
C2420 H2416 0.949 . S
C2420 C2428 1.574 . S
C2420 C2436 1.368 . S
H2421 C2429 0.950 . S
H2422 C2427 0.950 . S
H2423 C2428 0.949 . S
H2424 C2430 0.950 . S
H2425 C2431 0.950 . S
H2426 C2432 0.949 . S
C2427 H2422 0.950 . S
C2427 C2429 1.327 . S
C2427 C2433 1.429 . S
C2428 C2420 1.574 . S
C2428 H2423 0.949 . S
C2428 C2434 1.368 . S
C2429 C2413 1.349 . S
C2429 H2421 0.950 . S
C2429 C2427 1.327 . S
C2430 C2418 1.349 . S
C2430 H2424 0.950 . S
C2430 C2431 1.327 . S
C2431 H2425 0.950 . S
C2431 C2430 1.327 . S
C2431 C2435 1.429 . S
C2432 C2415 1.574 . S
C2432 H2426 0.949 . S
C2432 C2436 1.368 . S
C2433 C2414 1.429 . S
C2433 C2427 1.429 . S
C2433 C2434 1.523 . S
C2434 C2415 1.368 . S
C2434 C2428 1.368 . S
C2434 C2433 1.523 . S
C2435 C2419 1.429 . S
C2435 C2431 1.429 . S
C2435 C2436 1.523 . S
C2436 C2420 1.368 . S
C2436 C2432 1.368 . S
C2436 C2435 1.523 . S
H2437 C2412 0.950 . S
H2438 C2414 0.950 . S
H2439 C2415 0.949 . S
H2440 C2417 0.950 . S
H2441 C2419 0.950 . S
C2442 C2443 1.349 . S
C2442 C2444 1.327 . S
C2442 H2467 0.950 . S
C2443 C2442 1.349 . S
C2443 C2459 1.349 . S
C2444 C2442 1.327 . S
C2444 C2463 1.429 . S
C2444 H2468 0.950 . S
C2445 C2462 1.574 . S
C2445 C2464 1.368 . S
C2445 H2469 0.949 . S
H2446 C2450 0.949 . S
C2447 C2448 1.349 . S
C2447 C2449 1.327 . S
C2447 H2470 0.950 . S
C2448 C2447 1.349 . S
C2448 C2460 1.349 . S
C2449 C2447 1.327 . S
C2449 C2465 1.429 . S
C2449 H2471 0.950 . S
C2450 H2446 0.949 . S
C2450 C2458 1.574 . S
C2450 C2466 1.368 . S
H2451 C2459 0.950 . S
H2452 C2457 0.950 . S
H2453 C2458 0.949 . S
H2454 C2460 0.950 . S
H2455 C2461 0.950 . S
H2456 C2462 0.949 . S
C2457 H2452 0.950 . S
C2457 C2459 1.327 . S
C2457 C2463 1.429 . S
C2458 C2450 1.574 . S
C2458 H2453 0.949 . S
C2458 C2464 1.368 . S
C2459 C2443 1.349 . S
C2459 H2451 0.950 . S
C2459 C2457 1.327 . S
C2460 C2448 1.349 . S
C2460 H2454 0.950 . S
C2460 C2461 1.327 . S
C2461 H2455 0.950 . S
C2461 C2460 1.327 . S
C2461 C2465 1.429 . S
C2462 C2445 1.574 . S
C2462 H2456 0.949 . S
C2462 C2466 1.368 . S
C2463 C2444 1.429 . S
C2463 C2457 1.429 . S
C2463 C2464 1.523 . S
C2464 C2445 1.368 . S
C2464 C2458 1.368 . S
C2464 C2463 1.523 . S
C2465 C2449 1.429 . S
C2465 C2461 1.429 . S
C2465 C2466 1.523 . S
C2466 C2450 1.368 . S
C2466 C2462 1.368 . S
C2466 C2465 1.523 . S
H2467 C2442 0.950 . S
H2468 C2444 0.950 . S
H2469 C2445 0.949 . S
H2470 C2447 0.950 . S
H2471 C2449 0.950 . S
C2472 C2473 1.349 . S
C2472 C2474 1.327 . S
C2472 H2497 0.950 . S
C2473 C2472 1.349 . S
C2473 C2489 1.349 . S
C2474 C2472 1.327 . S
C2474 C2493 1.429 . S
C2474 H2498 0.950 . S
C2475 C2492 1.574 . S
C2475 C2494 1.368 . S
C2475 H2499 0.949 . S
H2476 C2480 0.949 . S
C2477 C2478 1.349 . S
C2477 C2479 1.327 . S
C2477 H2500 0.950 . S
C2478 C2477 1.349 . S
C2478 C2490 1.349 . S
C2479 C2477 1.327 . S
C2479 C2495 1.429 . S
C2479 H2501 0.950 . S
C2480 H2476 0.949 . S
C2480 C2488 1.574 . S
C2480 C2496 1.368 . S
H2481 C2489 0.950 . S
H2482 C2487 0.950 . S
H2483 C2488 0.949 . S
H2484 C2490 0.950 . S
H2485 C2491 0.950 . S
H2486 C2492 0.949 . S
C2487 H2482 0.950 . S
C2487 C2489 1.327 . S
C2487 C2493 1.429 . S
C2488 C2480 1.574 . S
C2488 H2483 0.949 . S
C2488 C2494 1.368 . S
C2489 C2473 1.349 . S
C2489 H2481 0.950 . S
C2489 C2487 1.327 . S
C2490 C2478 1.349 . S
C2490 H2484 0.950 . S
C2490 C2491 1.327 . S
C2491 H2485 0.950 . S
C2491 C2490 1.327 . S
C2491 C2495 1.429 . S
C2492 C2475 1.574 . S
C2492 H2486 0.949 . S
C2492 C2496 1.368 . S
C2493 C2474 1.429 . S
C2493 C2487 1.429 . S
C2493 C2494 1.523 . S
C2494 C2475 1.368 . S
C2494 C2488 1.368 . S
C2494 C2493 1.523 . S
C2495 C2479 1.429 . S
C2495 C2491 1.429 . S
C2495 C2496 1.523 . S
C2496 C2480 1.368 . S
C2496 C2492 1.368 . S
C2496 C2495 1.523 . S
H2497 C2472 0.950 . S
H2498 C2474 0.950 . S
H2499 C2475 0.949 . S
H2500 C2477 0.950 . S
H2501 C2479 0.950 . S
C2502 C2503 1.349 . S
C2502 C2504 1.327 . S
C2502 H2527 0.950 . S
C2503 C2502 1.349 . S
C2503 C2519 1.349 . S
C2504 C2502 1.327 . S
C2504 C2523 1.429 . S
C2504 H2528 0.950 . S
C2505 C2522 1.574 . S
C2505 C2524 1.368 . S
C2505 H2529 0.949 . S
H2506 C2510 0.949 . S
C2507 C2508 1.349 . S
C2507 C2509 1.327 . S
C2507 H2530 0.950 . S
C2508 C2507 1.349 . S
C2508 C2520 1.349 . S
C2509 C2507 1.327 . S
C2509 C2525 1.429 . S
C2509 H2531 0.950 . S
C2510 H2506 0.949 . S
C2510 C2518 1.574 . S
C2510 C2526 1.368 . S
H2511 C2519 0.950 . S
H2512 C2517 0.950 . S
H2513 C2518 0.949 . S
H2514 C2520 0.950 . S
H2515 C2521 0.950 . S
H2516 C2522 0.949 . S
C2517 H2512 0.950 . S
C2517 C2519 1.327 . S
C2517 C2523 1.429 . S
C2518 C2510 1.574 . S
C2518 H2513 0.949 . S
C2518 C2524 1.368 . S
C2519 C2503 1.349 . S
C2519 H2511 0.950 . S
C2519 C2517 1.327 . S
C2520 C2508 1.349 . S
C2520 H2514 0.950 . S
C2520 C2521 1.327 . S
C2521 H2515 0.950 . S
C2521 C2520 1.327 . S
C2521 C2525 1.429 . S
C2522 C2505 1.574 . S
C2522 H2516 0.949 . S
C2522 C2526 1.368 . S
C2523 C2504 1.429 . S
C2523 C2517 1.429 . S
C2523 C2524 1.523 . S
C2524 C2505 1.368 . S
C2524 C2518 1.368 . S
C2524 C2523 1.523 . S
C2525 C2509 1.429 . S
C2525 C2521 1.429 . S
C2525 C2526 1.523 . S
C2526 C2510 1.368 . S
C2526 C2522 1.368 . S
C2526 C2525 1.523 . S
H2527 C2502 0.950 . S
H2528 C2504 0.950 . S
H2529 C2505 0.949 . S
H2530 C2507 0.950 . S
H2531 C2509 0.950 . S
C2532 C2533 1.349 . S
C2532 C2534 1.327 . S
C2532 H2557 0.950 . S
C2533 C2532 1.349 . S
C2533 C2549 1.349 . S
C2534 C2532 1.327 . S
C2534 C2553 1.429 . S
C2534 H2558 0.950 . S
C2535 C2552 1.574 . S
C2535 C2554 1.368 . S
C2535 H2559 0.949 . S
H2536 C2540 0.949 . S
C2537 C2538 1.349 . S
C2537 C2539 1.327 . S
C2537 H2560 0.950 . S
C2538 C2537 1.349 . S
C2538 C2550 1.349 . S
C2539 C2537 1.327 . S
C2539 C2555 1.429 . S
C2539 H2561 0.950 . S
C2540 H2536 0.949 . S
C2540 C2548 1.574 . S
C2540 C2556 1.368 . S
H2541 C2549 0.950 . S
H2542 C2547 0.950 . S
H2543 C2548 0.949 . S
H2544 C2550 0.950 . S
H2545 C2551 0.950 . S
H2546 C2552 0.949 . S
C2547 H2542 0.950 . S
C2547 C2549 1.327 . S
C2547 C2553 1.429 . S
C2548 C2540 1.574 . S
C2548 H2543 0.949 . S
C2548 C2554 1.368 . S
C2549 C2533 1.349 . S
C2549 H2541 0.950 . S
C2549 C2547 1.327 . S
C2550 C2538 1.349 . S
C2550 H2544 0.950 . S
C2550 C2551 1.327 . S
C2551 H2545 0.950 . S
C2551 C2550 1.327 . S
C2551 C2555 1.429 . S
C2552 C2535 1.574 . S
C2552 H2546 0.949 . S
C2552 C2556 1.368 . S
C2553 C2534 1.429 . S
C2553 C2547 1.429 . S
C2553 C2554 1.523 . S
C2554 C2535 1.368 . S
C2554 C2548 1.368 . S
C2554 C2553 1.523 . S
C2555 C2539 1.429 . S
C2555 C2551 1.429 . S
C2555 C2556 1.523 . S
C2556 C2540 1.368 . S
C2556 C2552 1.368 . S
C2556 C2555 1.523 . S
H2557 C2532 0.950 . S
H2558 C2534 0.950 . S
H2559 C2535 0.949 . S
H2560 C2537 0.950 . S
H2561 C2539 0.950 . S
C2562 C2563 1.349 . S
C2562 C2564 1.327 . S
C2562 H2587 0.950 . S
C2563 C2562 1.349 . S
C2563 C2579 1.349 . S
C2564 C2562 1.327 . S
C2564 C2583 1.429 . S
C2564 H2588 0.950 . S
C2565 C2582 1.574 . S
C2565 C2584 1.368 . S
C2565 H2589 0.949 . S
H2566 C2570 0.949 . S
C2567 C2568 1.349 . S
C2567 C2569 1.327 . S
C2567 H2590 0.950 . S
C2568 C2567 1.349 . S
C2568 C2580 1.349 . S
C2569 C2567 1.327 . S
C2569 C2585 1.429 . S
C2569 H2591 0.950 . S
C2570 H2566 0.949 . S
C2570 C2578 1.574 . S
C2570 C2586 1.368 . S
H2571 C2579 0.950 . S
H2572 C2577 0.950 . S
H2573 C2578 0.949 . S
H2574 C2580 0.950 . S
H2575 C2581 0.950 . S
H2576 C2582 0.949 . S
C2577 H2572 0.950 . S
C2577 C2579 1.327 . S
C2577 C2583 1.429 . S
C2578 C2570 1.574 . S
C2578 H2573 0.949 . S
C2578 C2584 1.368 . S
C2579 C2563 1.349 . S
C2579 H2571 0.950 . S
C2579 C2577 1.327 . S
C2580 C2568 1.349 . S
C2580 H2574 0.950 . S
C2580 C2581 1.327 . S
C2581 H2575 0.950 . S
C2581 C2580 1.327 . S
C2581 C2585 1.429 . S
C2582 C2565 1.574 . S
C2582 H2576 0.949 . S
C2582 C2586 1.368 . S
C2583 C2564 1.429 . S
C2583 C2577 1.429 . S
C2583 C2584 1.523 . S
C2584 C2565 1.368 . S
C2584 C2578 1.368 . S
C2584 C2583 1.523 . S
C2585 C2569 1.429 . S
C2585 C2581 1.429 . S
C2585 C2586 1.523 . S
C2586 C2570 1.368 . S
C2586 C2582 1.368 . S
C2586 C2585 1.523 . S
H2587 C2562 0.950 . S
H2588 C2564 0.950 . S
H2589 C2565 0.949 . S
H2590 C2567 0.950 . S
H2591 C2569 0.950 . S
C2592 C2593 1.349 . S
C2592 C2594 1.327 . S
C2592 H2617 0.950 . S
C2593 C2592 1.349 . S
C2593 C2609 1.349 . S
C2594 C2592 1.327 . S
C2594 C2613 1.429 . S
C2594 H2618 0.950 . S
C2595 C2612 1.574 . S
C2595 C2614 1.368 . S
C2595 H2619 0.949 . S
H2596 C2600 0.949 . S
C2597 C2598 1.349 . S
C2597 C2599 1.327 . S
C2597 H2620 0.950 . S
C2598 C2597 1.349 . S
C2598 C2610 1.349 . S
C2599 C2597 1.327 . S
C2599 C2615 1.429 . S
C2599 H2621 0.950 . S
C2600 H2596 0.949 . S
C2600 C2608 1.574 . S
C2600 C2616 1.368 . S
H2601 C2609 0.950 . S
H2602 C2607 0.950 . S
H2603 C2608 0.949 . S
H2604 C2610 0.950 . S
H2605 C2611 0.950 . S
H2606 C2612 0.949 . S
C2607 H2602 0.950 . S
C2607 C2609 1.327 . S
C2607 C2613 1.429 . S
C2608 C2600 1.574 . S
C2608 H2603 0.949 . S
C2608 C2614 1.368 . S
C2609 C2593 1.349 . S
C2609 H2601 0.950 . S
C2609 C2607 1.327 . S
C2610 C2598 1.349 . S
C2610 H2604 0.950 . S
C2610 C2611 1.327 . S
C2611 H2605 0.950 . S
C2611 C2610 1.327 . S
C2611 C2615 1.429 . S
C2612 C2595 1.574 . S
C2612 H2606 0.949 . S
C2612 C2616 1.368 . S
C2613 C2594 1.429 . S
C2613 C2607 1.429 . S
C2613 C2614 1.523 . S
C2614 C2595 1.368 . S
C2614 C2608 1.368 . S
C2614 C2613 1.523 . S
C2615 C2599 1.429 . S
C2615 C2611 1.429 . S
C2615 C2616 1.523 . S
C2616 C2600 1.368 . S
C2616 C2612 1.368 . S
C2616 C2615 1.523 . S
H2617 C2592 0.950 . S
H2618 C2594 0.950 . S
H2619 C2595 0.949 . S
H2620 C2597 0.950 . S
H2621 C2599 0.950 . S
C2622 C2623 1.349 . S
C2622 C2624 1.327 . S
C2622 H2647 0.950 . S
C2623 C2622 1.349 . S
C2623 C2639 1.349 . S
C2624 C2622 1.327 . S
C2624 C2643 1.429 . S
C2624 H2648 0.950 . S
C2625 C2642 1.574 . S
C2625 C2644 1.368 . S
C2625 H2649 0.949 . S
H2626 C2630 0.949 . S
C2627 C2628 1.349 . S
C2627 C2629 1.327 . S
C2627 H2650 0.950 . S
C2628 C2627 1.349 . S
C2628 C2640 1.349 . S
C2629 C2627 1.327 . S
C2629 C2645 1.429 . S
C2629 H2651 0.950 . S
C2630 H2626 0.949 . S
C2630 C2638 1.574 . S
C2630 C2646 1.368 . S
H2631 C2639 0.950 . S
H2632 C2637 0.950 . S
H2633 C2638 0.949 . S
H2634 C2640 0.950 . S
H2635 C2641 0.950 . S
H2636 C2642 0.949 . S
C2637 H2632 0.950 . S
C2637 C2639 1.327 . S
C2637 C2643 1.429 . S
C2638 C2630 1.574 . S
C2638 H2633 0.949 . S
C2638 C2644 1.368 . S
C2639 C2623 1.349 . S
C2639 H2631 0.950 . S
C2639 C2637 1.327 . S
C2640 C2628 1.349 . S
C2640 H2634 0.950 . S
C2640 C2641 1.327 . S
C2641 H2635 0.950 . S
C2641 C2640 1.327 . S
C2641 C2645 1.429 . S
C2642 C2625 1.574 . S
C2642 H2636 0.949 . S
C2642 C2646 1.368 . S
C2643 C2624 1.429 . S
C2643 C2637 1.429 . S
C2643 C2644 1.523 . S
C2644 C2625 1.368 . S
C2644 C2638 1.368 . S
C2644 C2643 1.523 . S
C2645 C2629 1.429 . S
C2645 C2641 1.429 . S
C2645 C2646 1.523 . S
C2646 C2630 1.368 . S
C2646 C2642 1.368 . S
C2646 C2645 1.523 . S
H2647 C2622 0.950 . S
H2648 C2624 0.950 . S
H2649 C2625 0.949 . S
H2650 C2627 0.950 . S
H2651 C2629 0.950 . S
C2652 C2653 1.349 . S
C2652 C2654 1.327 . S
C2652 H2677 0.950 . S
C2653 C2652 1.349 . S
C2653 C2669 1.349 . S
C2654 C2652 1.327 . S
C2654 C2673 1.429 . S
C2654 H2678 0.950 . S
C2655 C2672 1.574 . S
C2655 C2674 1.368 1_565 S
C2655 H2679 0.949 . S
H2656 C2660 0.949 . S
C2657 C2658 1.349 . S
C2657 C2659 1.327 . S
C2657 H2680 0.950 . S
C2658 C2657 1.349 . S
C2658 C2670 1.349 . S
C2659 C2657 1.327 . S
C2659 C2675 1.429 . S
C2659 H2681 0.950 . S
C2660 H2656 0.949 . S
C2660 C2668 1.574 . S
C2660 C2676 1.368 1_545 S
H2661 C2669 0.950 . S
H2662 C2667 0.950 1_565 S
H2663 C2668 0.949 . S
H2664 C2670 0.950 1_545 S
H2665 C2671 0.950 . S
H2666 C2672 0.949 . S
C2667 H2662 0.950 1_545 S
C2667 C2669 1.327 . S
C2667 C2673 1.429 . S
C2668 C2660 1.574 . S
C2668 H2663 0.949 . S
C2668 C2674 1.368 . S
C2669 C2653 1.349 . S
C2669 H2661 0.950 . S
C2669 C2667 1.327 . S
C2670 C2658 1.349 . S
C2670 H2664 0.950 1_565 S
C2670 C2671 1.327 1_565 S
C2671 H2665 0.950 . S
C2671 C2670 1.327 1_545 S
C2671 C2675 1.429 1_545 S
C2672 C2655 1.574 . S
C2672 H2666 0.949 . S
C2672 C2676 1.368 . S
C2673 C2654 1.429 . S
C2673 C2667 1.429 . S
C2673 C2674 1.523 . S
C2674 C2655 1.368 1_545 S
C2674 C2668 1.368 . S
C2674 C2673 1.523 . S
C2675 C2659 1.429 . S
C2675 C2671 1.429 1_565 S
C2675 C2676 1.523 . S
C2676 C2660 1.368 1_565 S
C2676 C2672 1.368 . S
C2676 C2675 1.523 . S
H2677 C2652 0.950 . S
H2678 C2654 0.950 . S
H2679 C2655 0.949 . S
H2680 C2657 0.950 . S
H2681 C2659 0.950 . S
C2682 C2683 1.349 . S
C2682 C2684 1.327 . S
C2682 H2707 0.950 . S
C2683 C2682 1.349 . S
C2683 C2699 1.349 . S
C2684 C2682 1.327 . S
C2684 C2703 1.429 . S
C2684 H2708 0.950 . S
C2685 C2702 1.574 . S
C2685 C2704 1.368 . S
C2685 H2709 0.949 . S
H2686 C2690 0.949 . S
C2687 C2688 1.349 . S
C2687 C2689 1.327 . S
C2687 H2710 0.950 . S
C2688 C2687 1.349 . S
C2688 C2700 1.349 . S
C2689 C2687 1.327 . S
C2689 C2705 1.429 . S
C2689 H2711 0.950 . S
C2690 H2686 0.949 . S
C2690 C2698 1.574 . S
C2690 C2706 1.368 . S
H2691 C2699 0.950 . S
H2692 C2697 0.950 . S
H2693 C2698 0.949 . S
H2694 C2700 0.950 . S
H2695 C2701 0.950 . S
H2696 C2702 0.949 . S
C2697 H2692 0.950 . S
C2697 C2699 1.327 . S
C2697 C2703 1.429 . S
C2698 C2690 1.574 . S
C2698 H2693 0.949 . S
C2698 C2704 1.368 . S
C2699 C2683 1.349 . S
C2699 H2691 0.950 . S
C2699 C2697 1.327 . S
C2700 C2688 1.349 . S
C2700 H2694 0.950 . S
C2700 C2701 1.327 . S
C2701 H2695 0.950 . S
C2701 C2700 1.327 . S
C2701 C2705 1.429 . S
C2702 C2685 1.574 . S
C2702 H2696 0.949 . S
C2702 C2706 1.368 . S
C2703 C2684 1.429 . S
C2703 C2697 1.429 . S
C2703 C2704 1.523 . S
C2704 C2685 1.368 . S
C2704 C2698 1.368 . S
C2704 C2703 1.523 . S
C2705 C2689 1.429 . S
C2705 C2701 1.429 . S
C2705 C2706 1.523 . S
C2706 C2690 1.368 . S
C2706 C2702 1.368 . S
C2706 C2705 1.523 . S
H2707 C2682 0.950 . S
H2708 C2684 0.950 . S
H2709 C2685 0.949 . S
H2710 C2687 0.950 . S
H2711 C2689 0.950 . S
C2712 C2713 1.349 . S
C2712 C2714 1.327 . S
C2712 H2737 0.950 . S
C2713 C2712 1.349 . S
C2713 C2729 1.349 . S
C2714 C2712 1.327 . S
C2714 C2733 1.429 . S
C2714 H2738 0.950 . S
C2715 C2732 1.574 . S
C2715 C2734 1.368 . S
C2715 H2739 0.949 . S
H2716 C2720 0.949 . S
C2717 C2718 1.349 . S
C2717 C2719 1.327 . S
C2717 H2740 0.950 . S
C2718 C2717 1.349 . S
C2718 C2730 1.349 . S
C2719 C2717 1.327 . S
C2719 C2735 1.429 . S
C2719 H2741 0.950 . S
C2720 H2716 0.949 . S
C2720 C2728 1.574 . S
C2720 C2736 1.368 . S
H2721 C2729 0.950 . S
H2722 C2727 0.950 . S
H2723 C2728 0.949 . S
H2724 C2730 0.950 . S
H2725 C2731 0.950 . S
H2726 C2732 0.949 . S
C2727 H2722 0.950 . S
C2727 C2729 1.327 . S
C2727 C2733 1.429 . S
C2728 C2720 1.574 . S
C2728 H2723 0.949 . S
C2728 C2734 1.368 . S
C2729 C2713 1.349 . S
C2729 H2721 0.950 . S
C2729 C2727 1.327 . S
C2730 C2718 1.349 . S
C2730 H2724 0.950 . S
C2730 C2731 1.327 . S
C2731 H2725 0.950 . S
C2731 C2730 1.327 . S
C2731 C2735 1.429 . S
C2732 C2715 1.574 . S
C2732 H2726 0.949 . S
C2732 C2736 1.368 . S
C2733 C2714 1.429 . S
C2733 C2727 1.429 . S
C2733 C2734 1.523 . S
C2734 C2715 1.368 . S
C2734 C2728 1.368 . S
C2734 C2733 1.523 . S
C2735 C2719 1.429 . S
C2735 C2731 1.429 . S
C2735 C2736 1.523 . S
C2736 C2720 1.368 . S
C2736 C2732 1.368 . S
C2736 C2735 1.523 . S
H2737 C2712 0.950 . S
H2738 C2714 0.950 . S
H2739 C2715 0.949 . S
H2740 C2717 0.950 . S
H2741 C2719 0.950 . S
C2742 C2743 1.349 . S
C2742 C2744 1.327 . S
C2742 H2767 0.950 . S
C2743 C2742 1.349 . S
C2743 C2759 1.349 . S
C2744 C2742 1.327 . S
C2744 C2763 1.429 . S
C2744 H2768 0.950 . S
C2745 C2762 1.574 . S
C2745 C2764 1.368 . S
C2745 H2769 0.949 . S
H2746 C2750 0.949 . S
C2747 C2748 1.349 . S
C2747 C2749 1.327 . S
C2747 H2770 0.950 . S
C2748 C2747 1.349 . S
C2748 C2760 1.349 . S
C2749 C2747 1.327 . S
C2749 C2765 1.429 . S
C2749 H2771 0.950 . S
C2750 H2746 0.949 . S
C2750 C2758 1.574 . S
C2750 C2766 1.368 . S
H2751 C2759 0.950 . S
H2752 C2757 0.950 . S
H2753 C2758 0.949 . S
H2754 C2760 0.950 . S
H2755 C2761 0.950 . S
H2756 C2762 0.949 . S
C2757 H2752 0.950 . S
C2757 C2759 1.327 . S
C2757 C2763 1.429 . S
C2758 C2750 1.574 . S
C2758 H2753 0.949 . S
C2758 C2764 1.368 . S
C2759 C2743 1.349 . S
C2759 H2751 0.950 . S
C2759 C2757 1.327 . S
C2760 C2748 1.349 . S
C2760 H2754 0.950 . S
C2760 C2761 1.327 . S
C2761 H2755 0.950 . S
C2761 C2760 1.327 . S
C2761 C2765 1.429 . S
C2762 C2745 1.574 . S
C2762 H2756 0.949 . S
C2762 C2766 1.368 . S
C2763 C2744 1.429 . S
C2763 C2757 1.429 . S
C2763 C2764 1.523 . S
C2764 C2745 1.368 . S
C2764 C2758 1.368 . S
C2764 C2763 1.523 . S
C2765 C2749 1.429 . S
C2765 C2761 1.429 . S
C2765 C2766 1.523 . S
C2766 C2750 1.368 . S
C2766 C2762 1.368 . S
C2766 C2765 1.523 . S
H2767 C2742 0.950 . S
H2768 C2744 0.950 . S
H2769 C2745 0.949 . S
H2770 C2747 0.950 . S
H2771 C2749 0.950 . S
C2772 C2773 1.349 . S
C2772 C2774 1.327 . S
C2772 H2797 0.950 . S
C2773 C2772 1.349 . S
C2773 C2789 1.349 . S
C2774 C2772 1.327 . S
C2774 C2793 1.429 . S
C2774 H2798 0.950 . S
C2775 C2792 1.574 . S
C2775 C2794 1.368 . S
C2775 H2799 0.949 . S
H2776 C2780 0.949 . S
C2777 C2778 1.349 . S
C2777 C2779 1.327 . S
C2777 H2800 0.950 . S
C2778 C2777 1.349 . S
C2778 C2790 1.349 . S
C2779 C2777 1.327 . S
C2779 C2795 1.429 . S
C2779 H2801 0.950 . S
C2780 H2776 0.949 . S
C2780 C2788 1.574 . S
C2780 C2796 1.368 . S
H2781 C2789 0.950 . S
H2782 C2787 0.950 . S
H2783 C2788 0.949 . S
H2784 C2790 0.950 . S
H2785 C2791 0.950 . S
H2786 C2792 0.949 . S
C2787 H2782 0.950 . S
C2787 C2789 1.327 . S
C2787 C2793 1.429 . S
C2788 C2780 1.574 . S
C2788 H2783 0.949 . S
C2788 C2794 1.368 . S
C2789 C2773 1.349 . S
C2789 H2781 0.950 . S
C2789 C2787 1.327 . S
C2790 C2778 1.349 . S
C2790 H2784 0.950 . S
C2790 C2791 1.327 . S
C2791 H2785 0.950 . S
C2791 C2790 1.327 . S
C2791 C2795 1.429 . S
C2792 C2775 1.574 . S
C2792 H2786 0.949 . S
C2792 C2796 1.368 . S
C2793 C2774 1.429 . S
C2793 C2787 1.429 . S
C2793 C2794 1.523 . S
C2794 C2775 1.368 . S
C2794 C2788 1.368 . S
C2794 C2793 1.523 . S
C2795 C2779 1.429 . S
C2795 C2791 1.429 . S
C2795 C2796 1.523 . S
C2796 C2780 1.368 . S
C2796 C2792 1.368 . S
C2796 C2795 1.523 . S
H2797 C2772 0.950 . S
H2798 C2774 0.950 . S
H2799 C2775 0.949 . S
H2800 C2777 0.950 . S
H2801 C2779 0.950 . S
C2802 C2803 1.349 . S
C2802 C2804 1.327 . S
C2802 H2827 0.950 . S
C2803 C2802 1.349 . S
C2803 C2819 1.349 . S
C2804 C2802 1.327 . S
C2804 C2823 1.429 . S
C2804 H2828 0.950 . S
C2805 C2822 1.574 1_655 S
C2805 C2824 1.368 . S
C2805 H2829 0.949 . S
H2806 C2810 0.949 . S
C2807 C2808 1.349 . S
C2807 C2809 1.327 . S
C2807 H2830 0.950 . S
C2808 C2807 1.349 . S
C2808 C2820 1.349 . S
C2809 C2807 1.327 . S
C2809 C2825 1.429 . S
C2809 H2831 0.950 . S
C2810 H2806 0.949 . S
C2810 C2818 1.574 . S
C2810 C2826 1.368 1_655 S
H2811 C2819 0.950 . S
H2812 C2817 0.950 . S
H2813 C2818 0.949 . S
H2814 C2820 0.950 . S
H2815 C2821 0.950 . S
H2816 C2822 0.949 . S
C2817 H2812 0.950 . S
C2817 C2819 1.327 . S
C2817 C2823 1.429 . S
C2818 C2810 1.574 . S
C2818 H2813 0.949 . S
C2818 C2824 1.368 . S
C2819 C2803 1.349 . S
C2819 H2811 0.950 . S
C2819 C2817 1.327 . S
C2820 C2808 1.349 . S
C2820 H2814 0.950 . S
C2820 C2821 1.327 . S
C2821 H2815 0.950 . S
C2821 C2820 1.327 . S
C2821 C2825 1.429 . S
C2822 C2805 1.574 1_455 S
C2822 H2816 0.949 . S
C2822 C2826 1.368 . S
C2823 C2804 1.429 . S
C2823 C2817 1.429 . S
C2823 C2824 1.523 . S
C2824 C2805 1.368 . S
C2824 C2818 1.368 . S
C2824 C2823 1.523 . S
C2825 C2809 1.429 . S
C2825 C2821 1.429 . S
C2825 C2826 1.523 . S
C2826 C2810 1.368 1_455 S
C2826 C2822 1.368 . S
C2826 C2825 1.523 . S
H2827 C2802 0.950 . S
H2828 C2804 0.950 . S
H2829 C2805 0.949 . S
H2830 C2807 0.950 . S
H2831 C2809 0.950 . S
C2832 C2833 1.349 . S
C2832 C2834 1.327 . S
C2832 H2857 0.950 . S
C2833 C2832 1.349 . S
C2833 C2849 1.349 . S
C2834 C2832 1.327 . S
C2834 C2853 1.429 . S
C2834 H2858 0.950 . S
C2835 C2852 1.574 . S
C2835 C2854 1.368 . S
C2835 H2859 0.949 . S
H2836 C2840 0.949 . S
C2837 C2838 1.349 . S
C2837 C2839 1.327 . S
C2837 H2860 0.950 . S
C2838 C2837 1.349 . S
C2838 C2850 1.349 . S
C2839 C2837 1.327 . S
C2839 C2855 1.429 . S
C2839 H2861 0.950 . S
C2840 H2836 0.949 . S
C2840 C2848 1.574 . S
C2840 C2856 1.368 . S
H2841 C2849 0.950 . S
H2842 C2847 0.950 . S
H2843 C2848 0.949 . S
H2844 C2850 0.950 . S
H2845 C2851 0.950 . S
H2846 C2852 0.949 . S
C2847 H2842 0.950 . S
C2847 C2849 1.327 . S
C2847 C2853 1.429 . S
C2848 C2840 1.574 . S
C2848 H2843 0.949 . S
C2848 C2854 1.368 . S
C2849 C2833 1.349 . S
C2849 H2841 0.950 . S
C2849 C2847 1.327 . S
C2850 C2838 1.349 . S
C2850 H2844 0.950 . S
C2850 C2851 1.327 . S
C2851 H2845 0.950 . S
C2851 C2850 1.327 . S
C2851 C2855 1.429 . S
C2852 C2835 1.574 . S
C2852 H2846 0.949 . S
C2852 C2856 1.368 . S
C2853 C2834 1.429 . S
C2853 C2847 1.429 . S
C2853 C2854 1.523 . S
C2854 C2835 1.368 . S
C2854 C2848 1.368 . S
C2854 C2853 1.523 . S
C2855 C2839 1.429 . S
C2855 C2851 1.429 . S
C2855 C2856 1.523 . S
C2856 C2840 1.368 . S
C2856 C2852 1.368 . S
C2856 C2855 1.523 . S
H2857 C2832 0.950 . S
H2858 C2834 0.950 . S
H2859 C2835 0.949 . S
H2860 C2837 0.950 . S
H2861 C2839 0.950 . S
C2862 C2863 1.349 . S
C2862 C2864 1.327 . S
C2862 H2887 0.950 . S
C2863 C2862 1.349 . S
C2863 C2879 1.349 . S
C2864 C2862 1.327 . S
C2864 C2883 1.429 . S
C2864 H2888 0.950 . S
C2865 C2882 1.574 1_556 S
C2865 C2884 1.368 . S
C2865 H2889 0.949 . S
H2866 C2870 0.949 . S
C2867 C2868 1.349 . S
C2867 C2869 1.327 . S
C2867 H2890 0.950 . S
C2868 C2867 1.349 . S
C2868 C2880 1.349 . S
C2869 C2867 1.327 . S
C2869 C2885 1.429 . S
C2869 H2891 0.950 . S
C2870 H2866 0.949 . S
C2870 C2878 1.574 1_554 S
C2870 C2886 1.368 . S
H2871 C2879 0.950 . S
H2872 C2877 0.950 . S
H2873 C2878 0.949 . S
H2874 C2880 0.950 . S
H2875 C2881 0.950 . S
H2876 C2882 0.949 . S
C2877 H2872 0.950 . S
C2877 C2879 1.327 . S
C2877 C2883 1.429 . S
C2878 C2870 1.574 1_556 S
C2878 H2873 0.949 . S
C2878 C2884 1.368 . S
C2879 C2863 1.349 . S
C2879 H2871 0.950 . S
C2879 C2877 1.327 . S
C2880 C2868 1.349 . S
C2880 H2874 0.950 . S
C2880 C2881 1.327 . S
C2881 H2875 0.950 . S
C2881 C2880 1.327 . S
C2881 C2885 1.429 . S
C2882 C2865 1.574 1_554 S
C2882 H2876 0.949 . S
C2882 C2886 1.368 . S
C2883 C2864 1.429 . S
C2883 C2877 1.429 . S
C2883 C2884 1.523 . S
C2884 C2865 1.368 . S
C2884 C2878 1.368 . S
C2884 C2883 1.523 . S
C2885 C2869 1.429 . S
C2885 C2881 1.429 . S
C2885 C2886 1.523 . S
C2886 C2870 1.368 . S
C2886 C2882 1.368 . S
C2886 C2885 1.523 . S
H2887 C2862 0.950 . S
H2888 C2864 0.950 . S
H2889 C2865 0.949 . S
H2890 C2867 0.950 . S
H2891 C2869 0.950 . S
C2892 C2893 1.349 . S
C2892 C2894 1.327 . S
C2892 H2917 0.950 . S
C2893 C2892 1.349 . S
C2893 C2909 1.349 . S
C2894 C2892 1.327 . S
C2894 C2913 1.429 . S
C2894 H2918 0.950 . S
C2895 C2912 1.574 . S
C2895 C2914 1.368 . S
C2895 H2919 0.949 . S
H2896 C2900 0.949 . S
C2897 C2898 1.349 . S
C2897 C2899 1.327 . S
C2897 H2920 0.950 . S
C2898 C2897 1.349 . S
C2898 C2910 1.349 . S
C2899 C2897 1.327 . S
C2899 C2915 1.429 . S
C2899 H2921 0.950 . S
C2900 H2896 0.949 . S
C2900 C2908 1.574 . S
C2900 C2916 1.368 . S
H2901 C2909 0.950 . S
H2902 C2907 0.950 . S
H2903 C2908 0.949 . S
H2904 C2910 0.950 . S
H2905 C2911 0.950 . S
H2906 C2912 0.949 . S
C2907 H2902 0.950 . S
C2907 C2909 1.327 . S
C2907 C2913 1.429 . S
C2908 C2900 1.574 . S
C2908 H2903 0.949 . S
C2908 C2914 1.368 . S
C2909 C2893 1.349 . S
C2909 H2901 0.950 . S
C2909 C2907 1.327 . S
C2910 C2898 1.349 . S
C2910 H2904 0.950 . S
C2910 C2911 1.327 . S
C2911 H2905 0.950 . S
C2911 C2910 1.327 . S
C2911 C2915 1.429 . S
C2912 C2895 1.574 . S
C2912 H2906 0.949 . S
C2912 C2916 1.368 . S
C2913 C2894 1.429 . S
C2913 C2907 1.429 . S
C2913 C2914 1.523 . S
C2914 C2895 1.368 . S
C2914 C2908 1.368 . S
C2914 C2913 1.523 . S
C2915 C2899 1.429 . S
C2915 C2911 1.429 . S
C2915 C2916 1.523 . S
C2916 C2900 1.368 . S
C2916 C2912 1.368 . S
C2916 C2915 1.523 . S
H2917 C2892 0.950 . S
H2918 C2894 0.950 . S
H2919 C2895 0.949 . S
H2920 C2897 0.950 . S
H2921 C2899 0.950 . S
C2922 C2923 1.349 . S
C2922 C2924 1.327 . S
C2922 H2947 0.950 . S
C2923 C2922 1.349 . S
C2923 C2939 1.349 . S
C2924 C2922 1.327 . S
C2924 C2943 1.429 . S
C2924 H2948 0.950 . S
C2925 C2942 1.574 . S
C2925 C2944 1.368 . S
C2925 H2949 0.949 . S
H2926 C2930 0.949 . S
C2927 C2928 1.349 . S
C2927 C2929 1.327 . S
C2927 H2950 0.950 . S
C2928 C2927 1.349 . S
C2928 C2940 1.349 . S
C2929 C2927 1.327 . S
C2929 C2945 1.429 . S
C2929 H2951 0.950 . S
C2930 H2926 0.949 . S
C2930 C2938 1.574 . S
C2930 C2946 1.368 . S
H2931 C2939 0.950 . S
H2932 C2937 0.950 . S
H2933 C2938 0.949 . S
H2934 C2940 0.950 . S
H2935 C2941 0.950 . S
H2936 C2942 0.949 . S
C2937 H2932 0.950 . S
C2937 C2939 1.327 . S
C2937 C2943 1.429 . S
C2938 C2930 1.574 . S
C2938 H2933 0.949 . S
C2938 C2944 1.368 . S
C2939 C2923 1.349 . S
C2939 H2931 0.950 . S
C2939 C2937 1.327 . S
C2940 C2928 1.349 . S
C2940 H2934 0.950 . S
C2940 C2941 1.327 . S
C2941 H2935 0.950 . S
C2941 C2940 1.327 . S
C2941 C2945 1.429 . S
C2942 C2925 1.574 . S
C2942 H2936 0.949 . S
C2942 C2946 1.368 . S
C2943 C2924 1.429 . S
C2943 C2937 1.429 . S
C2943 C2944 1.523 . S
C2944 C2925 1.368 . S
C2944 C2938 1.368 . S
C2944 C2943 1.523 . S
C2945 C2929 1.429 . S
C2945 C2941 1.429 . S
C2945 C2946 1.523 . S
C2946 C2930 1.368 . S
C2946 C2942 1.368 . S
C2946 C2945 1.523 . S
H2947 C2922 0.950 . S
H2948 C2924 0.950 . S
H2949 C2925 0.949 . S
H2950 C2927 0.950 . S
H2951 C2929 0.950 . S
C2952 C2953 1.349 . S
C2952 C2954 1.327 . S
C2952 H2977 0.950 . S
C2953 C2952 1.349 . S
C2953 C2969 1.349 . S
C2954 C2952 1.327 . S
C2954 C2973 1.429 . S
C2954 H2978 0.950 . S
C2955 C2972 1.574 . S
C2955 C2974 1.368 . S
C2955 H2979 0.949 . S
H2956 C2960 0.949 . S
C2957 C2958 1.349 . S
C2957 C2959 1.327 . S
C2957 H2980 0.950 . S
C2958 C2957 1.349 . S
C2958 C2970 1.349 . S
C2959 C2957 1.327 . S
C2959 C2975 1.429 . S
C2959 H2981 0.950 . S
C2960 H2956 0.949 . S
C2960 C2968 1.574 . S
C2960 C2976 1.368 . S
H2961 C2969 0.950 . S
H2962 C2967 0.950 . S
H2963 C2968 0.949 . S
H2964 C2970 0.950 . S
H2965 C2971 0.950 . S
H2966 C2972 0.949 . S
C2967 H2962 0.950 . S
C2967 C2969 1.327 . S
C2967 C2973 1.429 . S
C2968 C2960 1.574 . S
C2968 H2963 0.949 . S
C2968 C2974 1.368 . S
C2969 C2953 1.349 . S
C2969 H2961 0.950 . S
C2969 C2967 1.327 . S
C2970 C2958 1.349 . S
C2970 H2964 0.950 . S
C2970 C2971 1.327 . S
C2971 H2965 0.950 . S
C2971 C2970 1.327 . S
C2971 C2975 1.429 . S
C2972 C2955 1.574 . S
C2972 H2966 0.949 . S
C2972 C2976 1.368 . S
C2973 C2954 1.429 . S
C2973 C2967 1.429 . S
C2973 C2974 1.523 . S
C2974 C2955 1.368 . S
C2974 C2968 1.368 . S
C2974 C2973 1.523 . S
C2975 C2959 1.429 . S
C2975 C2971 1.429 . S
C2975 C2976 1.523 . S
C2976 C2960 1.368 . S
C2976 C2972 1.368 . S
C2976 C2975 1.523 . S
H2977 C2952 0.950 . S
H2978 C2954 0.950 . S
H2979 C2955 0.949 . S
H2980 C2957 0.950 . S
H2981 C2959 0.950 . S
C2982 C2983 1.349 . S
C2982 C2984 1.327 . S
C2982 H3007 0.950 . S
C2983 C2982 1.349 . S
C2983 C2999 1.349 . S
C2984 C2982 1.327 . S
C2984 C3003 1.429 . S
C2984 H3008 0.950 . S
C2985 C3002 1.574 1_554 S
C2985 C3004 1.368 . S
C2985 H3009 0.949 . S
H2986 C2990 0.949 . S
C2987 C2988 1.349 . S
C2987 C2989 1.327 . S
C2987 H3010 0.950 . S
C2988 C2987 1.349 . S
C2988 C3000 1.349 . S
C2989 C2987 1.327 . S
C2989 C3005 1.429 . S
C2989 H3011 0.950 . S
C2990 H2986 0.949 . S
C2990 C2998 1.574 . S
C2990 C3006 1.368 1_554 S
H2991 C2999 0.950 . S
H2992 C2997 0.950 . S
H2993 C2998 0.949 . S
H2994 C3000 0.950 . S
H2995 C3001 0.950 . S
H2996 C3002 0.949 . S
C2997 H2992 0.950 . S
C2997 C2999 1.327 . S
C2997 C3003 1.429 . S
C2998 C2990 1.574 . S
C2998 H2993 0.949 . S
C2998 C3004 1.368 . S
C2999 C2983 1.349 . S
C2999 H2991 0.950 . S
C2999 C2997 1.327 . S
C3000 C2988 1.349 . S
C3000 H2994 0.950 . S
C3000 C3001 1.327 . S
C3001 H2995 0.950 . S
C3001 C3000 1.327 . S
C3001 C3005 1.429 . S
C3002 C2985 1.574 1_556 S
C3002 H2996 0.949 . S
C3002 C3006 1.368 . S
C3003 C2984 1.429 . S
C3003 C2997 1.429 . S
C3003 C3004 1.523 . S
C3004 C2985 1.368 . S
C3004 C2998 1.368 . S
C3004 C3003 1.523 . S
C3005 C2989 1.429 . S
C3005 C3001 1.429 . S
C3005 C3006 1.523 . S
C3006 C2990 1.368 1_556 S
C3006 C3002 1.368 . S
C3006 C3005 1.523 . S
H3007 C2982 0.950 . S
H3008 C2984 0.950 . S
H3009 C2985 0.949 . S
H3010 C2987 0.950 . S
H3011 C2989 0.950 . S
C3012 C3013 1.349 . S
C3012 C3014 1.327 . S
C3012 H3037 0.950 . S
C3013 C3012 1.349 . S
C3013 C3029 1.349 . S
C3014 C3012 1.327 . S
C3014 C3033 1.429 . S
C3014 H3038 0.950 . S
C3015 C3032 1.574 . S
C3015 C3034 1.368 . S
C3015 H3039 0.949 . S
H3016 C3020 0.949 . S
C3017 C3018 1.349 . S
C3017 C3019 1.327 . S
C3017 H3040 0.950 . S
C3018 C3017 1.349 . S
C3018 C3030 1.349 . S
C3019 C3017 1.327 . S
C3019 C3035 1.429 . S
C3019 H3041 0.950 . S
C3020 H3016 0.949 . S
C3020 C3028 1.574 . S
C3020 C3036 1.368 . S
H3021 C3029 0.950 . S
H3022 C3027 0.950 . S
H3023 C3028 0.949 . S
H3024 C3030 0.950 . S
H3025 C3031 0.950 . S
H3026 C3032 0.949 . S
C3027 H3022 0.950 . S
C3027 C3029 1.327 . S
C3027 C3033 1.429 . S
C3028 C3020 1.574 . S
C3028 H3023 0.949 . S
C3028 C3034 1.368 . S
C3029 C3013 1.349 . S
C3029 H3021 0.950 . S
C3029 C3027 1.327 . S
C3030 C3018 1.349 . S
C3030 H3024 0.950 . S
C3030 C3031 1.327 . S
C3031 H3025 0.950 . S
C3031 C3030 1.327 . S
C3031 C3035 1.429 . S
C3032 C3015 1.574 . S
C3032 H3026 0.949 . S
C3032 C3036 1.368 . S
C3033 C3014 1.429 . S
C3033 C3027 1.429 . S
C3033 C3034 1.523 . S
C3034 C3015 1.368 . S
C3034 C3028 1.368 . S
C3034 C3033 1.523 . S
C3035 C3019 1.429 . S
C3035 C3031 1.429 . S
C3035 C3036 1.523 . S
C3036 C3020 1.368 . S
C3036 C3032 1.368 . S
C3036 C3035 1.523 . S
H3037 C3012 0.950 . S
H3038 C3014 0.950 . S
H3039 C3015 0.949 . S
H3040 C3017 0.950 . S
H3041 C3019 0.950 . S
C3042 C3043 1.349 . S
C3042 C3044 1.327 . S
C3042 H3067 0.950 . S
C3043 C3042 1.349 . S
C3043 C3059 1.349 . S
C3044 C3042 1.327 . S
C3044 C3063 1.429 . S
C3044 H3068 0.950 . S
C3045 C3062 1.574 . S
C3045 C3064 1.368 . S
C3045 H3069 0.949 . S
H3046 C3050 0.949 . S
C3047 C3048 1.349 . S
C3047 C3049 1.327 . S
C3047 H3070 0.950 . S
C3048 C3047 1.349 . S
C3048 C3060 1.349 . S
C3049 C3047 1.327 . S
C3049 C3065 1.429 . S
C3049 H3071 0.950 . S
C3050 H3046 0.949 . S
C3050 C3058 1.574 . S
C3050 C3066 1.368 . S
H3051 C3059 0.950 . S
H3052 C3057 0.950 . S
H3053 C3058 0.949 . S
H3054 C3060 0.950 . S
H3055 C3061 0.950 . S
H3056 C3062 0.949 . S
C3057 H3052 0.950 . S
C3057 C3059 1.327 . S
C3057 C3063 1.429 . S
C3058 C3050 1.574 . S
C3058 H3053 0.949 . S
C3058 C3064 1.368 . S
C3059 C3043 1.349 . S
C3059 H3051 0.950 . S
C3059 C3057 1.327 . S
C3060 C3048 1.349 . S
C3060 H3054 0.950 . S
C3060 C3061 1.327 . S
C3061 H3055 0.950 . S
C3061 C3060 1.327 . S
C3061 C3065 1.429 . S
C3062 C3045 1.574 . S
C3062 H3056 0.949 . S
C3062 C3066 1.368 . S
C3063 C3044 1.429 . S
C3063 C3057 1.429 . S
C3063 C3064 1.523 . S
C3064 C3045 1.368 . S
C3064 C3058 1.368 . S
C3064 C3063 1.523 . S
C3065 C3049 1.429 . S
C3065 C3061 1.429 . S
C3065 C3066 1.523 . S
C3066 C3050 1.368 . S
C3066 C3062 1.368 . S
C3066 C3065 1.523 . S
H3067 C3042 0.950 . S
H3068 C3044 0.950 . S
H3069 C3045 0.949 . S
H3070 C3047 0.950 . S
H3071 C3049 0.950 . S
C3072 C3073 1.349 . S
C3072 C3074 1.327 . S
C3072 H3097 0.950 . S
C3073 C3072 1.349 . S
C3073 C3089 1.349 . S
C3074 C3072 1.327 . S
C3074 C3093 1.429 . S
C3074 H3098 0.950 . S
C3075 C3092 1.574 . S
C3075 C3094 1.368 . S
C3075 H3099 0.949 . S
H3076 C3080 0.949 . S
C3077 C3078 1.349 . S
C3077 C3079 1.327 . S
C3077 H3100 0.950 . S
C3078 C3077 1.349 . S
C3078 C3090 1.349 . S
C3079 C3077 1.327 . S
C3079 C3095 1.429 . S
C3079 H3101 0.950 . S
C3080 H3076 0.949 . S
C3080 C3088 1.574 . S
C3080 C3096 1.368 . S
H3081 C3089 0.950 . S
H3082 C3087 0.950 . S
H3083 C3088 0.949 . S
H3084 C3090 0.950 . S
H3085 C3091 0.950 . S
H3086 C3092 0.949 . S
C3087 H3082 0.950 . S
C3087 C3089 1.327 . S
C3087 C3093 1.429 . S
C3088 C3080 1.574 . S
C3088 H3083 0.949 . S
C3088 C3094 1.368 . S
C3089 C3073 1.349 . S
C3089 H3081 0.950 . S
C3089 C3087 1.327 . S
C3090 C3078 1.349 . S
C3090 H3084 0.950 . S
C3090 C3091 1.327 . S
C3091 H3085 0.950 . S
C3091 C3090 1.327 . S
C3091 C3095 1.429 . S
C3092 C3075 1.574 . S
C3092 H3086 0.949 . S
C3092 C3096 1.368 . S
C3093 C3074 1.429 . S
C3093 C3087 1.429 . S
C3093 C3094 1.523 . S
C3094 C3075 1.368 . S
C3094 C3088 1.368 . S
C3094 C3093 1.523 . S
C3095 C3079 1.429 . S
C3095 C3091 1.429 . S
C3095 C3096 1.523 . S
C3096 C3080 1.368 . S
C3096 C3092 1.368 . S
C3096 C3095 1.523 . S
H3097 C3072 0.950 . S
H3098 C3074 0.950 . S
H3099 C3075 0.949 . S
H3100 C3077 0.950 . S
H3101 C3079 0.950 . S
C3102 C3103 1.349 . S
C3102 C3104 1.327 . S
C3102 H3127 0.950 . S
C3103 C3102 1.349 . S
C3103 C3119 1.349 . S
C3104 C3102 1.327 . S
C3104 C3123 1.429 . S
C3104 H3128 0.950 . S
C3105 C3122 1.574 . S
C3105 C3124 1.368 . S
C3105 H3129 0.949 . S
H3106 C3110 0.949 . S
C3107 C3108 1.349 . S
C3107 C3109 1.327 . S
C3107 H3130 0.950 . S
C3108 C3107 1.349 . S
C3108 C3120 1.349 . S
C3109 C3107 1.327 . S
C3109 C3125 1.429 . S
C3109 H3131 0.950 . S
C3110 H3106 0.949 . S
C3110 C3118 1.574 . S
C3110 C3126 1.368 . S
H3111 C3119 0.950 . S
H3112 C3117 0.950 . S
H3113 C3118 0.949 . S
H3114 C3120 0.950 . S
H3115 C3121 0.950 . S
H3116 C3122 0.949 . S
C3117 H3112 0.950 . S
C3117 C3119 1.327 . S
C3117 C3123 1.429 . S
C3118 C3110 1.574 . S
C3118 H3113 0.949 . S
C3118 C3124 1.368 . S
C3119 C3103 1.349 . S
C3119 H3111 0.950 . S
C3119 C3117 1.327 . S
C3120 C3108 1.349 . S
C3120 H3114 0.950 . S
C3120 C3121 1.327 . S
C3121 H3115 0.950 . S
C3121 C3120 1.327 . S
C3121 C3125 1.429 . S
C3122 C3105 1.574 . S
C3122 H3116 0.949 . S
C3122 C3126 1.368 . S
C3123 C3104 1.429 . S
C3123 C3117 1.429 . S
C3123 C3124 1.523 . S
C3124 C3105 1.368 . S
C3124 C3118 1.368 . S
C3124 C3123 1.523 . S
C3125 C3109 1.429 . S
C3125 C3121 1.429 . S
C3125 C3126 1.523 . S
C3126 C3110 1.368 . S
C3126 C3122 1.368 . S
C3126 C3125 1.523 . S
H3127 C3102 0.950 . S
H3128 C3104 0.950 . S
H3129 C3105 0.949 . S
H3130 C3107 0.950 . S
H3131 C3109 0.950 . S
C3132 C3133 1.349 . S
C3132 C3134 1.327 . S
C3132 H3157 0.950 . S
C3133 C3132 1.349 . S
C3133 C3149 1.349 . S
C3134 C3132 1.327 . S
C3134 C3153 1.429 . S
C3134 H3158 0.950 . S
C3135 C3152 1.574 . S
C3135 C3154 1.368 . S
C3135 H3159 0.949 . S
H3136 C3140 0.949 . S
C3137 C3138 1.349 . S
C3137 C3139 1.327 . S
C3137 H3160 0.950 . S
C3138 C3137 1.349 . S
C3138 C3150 1.349 . S
C3139 C3137 1.327 . S
C3139 C3155 1.429 . S
C3139 H3161 0.950 . S
C3140 H3136 0.949 . S
C3140 C3148 1.574 . S
C3140 C3156 1.368 . S
H3141 C3149 0.950 . S
H3142 C3147 0.950 . S
H3143 C3148 0.949 . S
H3144 C3150 0.950 . S
H3145 C3151 0.950 . S
H3146 C3152 0.949 . S
C3147 H3142 0.950 . S
C3147 C3149 1.327 . S
C3147 C3153 1.429 . S
C3148 C3140 1.574 . S
C3148 H3143 0.949 . S
C3148 C3154 1.368 . S
C3149 C3133 1.349 . S
C3149 H3141 0.950 . S
C3149 C3147 1.327 . S
C3150 C3138 1.349 . S
C3150 H3144 0.950 . S
C3150 C3151 1.327 . S
C3151 H3145 0.950 . S
C3151 C3150 1.327 . S
C3151 C3155 1.429 . S
C3152 C3135 1.574 . S
C3152 H3146 0.949 . S
C3152 C3156 1.368 . S
C3153 C3134 1.429 . S
C3153 C3147 1.429 . S
C3153 C3154 1.523 . S
C3154 C3135 1.368 . S
C3154 C3148 1.368 . S
C3154 C3153 1.523 . S
C3155 C3139 1.429 . S
C3155 C3151 1.429 . S
C3155 C3156 1.523 . S
C3156 C3140 1.368 . S
C3156 C3152 1.368 . S
C3156 C3155 1.523 . S
H3157 C3132 0.950 . S
H3158 C3134 0.950 . S
H3159 C3135 0.949 . S
H3160 C3137 0.950 . S
H3161 C3139 0.950 . S
C3162 C3163 1.349 . S
C3162 C3164 1.327 . S
C3162 H3187 0.950 . S
C3163 C3162 1.349 . S
C3163 C3179 1.349 . S
C3164 C3162 1.327 . S
C3164 C3183 1.429 . S
C3164 H3188 0.950 . S
C3165 C3182 1.574 . S
C3165 C3184 1.368 . S
C3165 H3189 0.949 . S
H3166 C3170 0.949 . S
C3167 C3168 1.349 . S
C3167 C3169 1.327 . S
C3167 H3190 0.950 . S
C3168 C3167 1.349 . S
C3168 C3180 1.349 . S
C3169 C3167 1.327 . S
C3169 C3185 1.429 . S
C3169 H3191 0.950 . S
C3170 H3166 0.949 . S
C3170 C3178 1.574 . S
C3170 C3186 1.368 . S
H3171 C3179 0.950 . S
H3172 C3177 0.950 . S
H3173 C3178 0.949 . S
H3174 C3180 0.950 . S
H3175 C3181 0.950 . S
H3176 C3182 0.949 . S
C3177 H3172 0.950 . S
C3177 C3179 1.327 . S
C3177 C3183 1.429 . S
C3178 C3170 1.574 . S
C3178 H3173 0.949 . S
C3178 C3184 1.368 . S
C3179 C3163 1.349 . S
C3179 H3171 0.950 . S
C3179 C3177 1.327 . S
C3180 C3168 1.349 . S
C3180 H3174 0.950 . S
C3180 C3181 1.327 . S
C3181 H3175 0.950 . S
C3181 C3180 1.327 . S
C3181 C3185 1.429 . S
C3182 C3165 1.574 . S
C3182 H3176 0.949 . S
C3182 C3186 1.368 . S
C3183 C3164 1.429 . S
C3183 C3177 1.429 . S
C3183 C3184 1.523 . S
C3184 C3165 1.368 . S
C3184 C3178 1.368 . S
C3184 C3183 1.523 . S
C3185 C3169 1.429 . S
C3185 C3181 1.429 . S
C3185 C3186 1.523 . S
C3186 C3170 1.368 . S
C3186 C3182 1.368 . S
C3186 C3185 1.523 . S
H3187 C3162 0.950 . S
H3188 C3164 0.950 . S
H3189 C3165 0.949 . S
H3190 C3167 0.950 . S
H3191 C3169 0.950 . S
C3192 C3193 1.349 . S
C3192 C3194 1.327 . S
C3192 H3217 0.950 . S
C3193 C3192 1.349 . S
C3193 C3209 1.349 . S
C3194 C3192 1.327 . S
C3194 C3213 1.429 . S
C3194 H3218 0.950 . S
C3195 C3212 1.574 . S
C3195 C3214 1.368 . S
C3195 H3219 0.949 . S
H3196 C3200 0.949 . S
C3197 C3198 1.349 . S
C3197 C3199 1.327 . S
C3197 H3220 0.950 . S
C3198 C3197 1.349 . S
C3198 C3210 1.349 . S
C3199 C3197 1.327 . S
C3199 C3215 1.429 . S
C3199 H3221 0.950 . S
C3200 H3196 0.949 . S
C3200 C3208 1.574 . S
C3200 C3216 1.368 . S
H3201 C3209 0.950 . S
H3202 C3207 0.950 . S
H3203 C3208 0.949 . S
H3204 C3210 0.950 . S
H3205 C3211 0.950 . S
H3206 C3212 0.949 . S
C3207 H3202 0.950 . S
C3207 C3209 1.327 . S
C3207 C3213 1.429 . S
C3208 C3200 1.574 . S
C3208 H3203 0.949 . S
C3208 C3214 1.368 . S
C3209 C3193 1.349 . S
C3209 H3201 0.950 . S
C3209 C3207 1.327 . S
C3210 C3198 1.349 . S
C3210 H3204 0.950 . S
C3210 C3211 1.327 . S
C3211 H3205 0.950 . S
C3211 C3210 1.327 . S
C3211 C3215 1.429 . S
C3212 C3195 1.574 . S
C3212 H3206 0.949 . S
C3212 C3216 1.368 . S
C3213 C3194 1.429 . S
C3213 C3207 1.429 . S
C3213 C3214 1.523 . S
C3214 C3195 1.368 . S
C3214 C3208 1.368 . S
C3214 C3213 1.523 . S
C3215 C3199 1.429 . S
C3215 C3211 1.429 . S
C3215 C3216 1.523 . S
C3216 C3200 1.368 . S
C3216 C3212 1.368 . S
C3216 C3215 1.523 . S
H3217 C3192 0.950 . S
H3218 C3194 0.950 . S
H3219 C3195 0.949 . S
H3220 C3197 0.950 . S
H3221 C3199 0.950 . S
C3222 C3223 1.349 . S
C3222 C3224 1.327 . S
C3222 H3247 0.950 . S
C3223 C3222 1.349 . S
C3223 C3239 1.349 . S
C3224 C3222 1.327 . S
C3224 C3243 1.429 . S
C3224 H3248 0.950 . S
C3225 C3242 1.574 . S
C3225 C3244 1.368 . S
C3225 H3249 0.949 . S
H3226 C3230 0.949 . S
C3227 C3228 1.349 . S
C3227 C3229 1.327 . S
C3227 H3250 0.950 . S
C3228 C3227 1.349 . S
C3228 C3240 1.349 . S
C3229 C3227 1.327 . S
C3229 C3245 1.429 . S
C3229 H3251 0.950 . S
C3230 H3226 0.949 . S
C3230 C3238 1.574 . S
C3230 C3246 1.368 . S
H3231 C3239 0.950 . S
H3232 C3237 0.950 . S
H3233 C3238 0.949 . S
H3234 C3240 0.950 . S
H3235 C3241 0.950 . S
H3236 C3242 0.949 . S
C3237 H3232 0.950 . S
C3237 C3239 1.327 . S
C3237 C3243 1.429 . S
C3238 C3230 1.574 . S
C3238 H3233 0.949 . S
C3238 C3244 1.368 . S
C3239 C3223 1.349 . S
C3239 H3231 0.950 . S
C3239 C3237 1.327 . S
C3240 C3228 1.349 . S
C3240 H3234 0.950 . S
C3240 C3241 1.327 . S
C3241 H3235 0.950 . S
C3241 C3240 1.327 . S
C3241 C3245 1.429 . S
C3242 C3225 1.574 . S
C3242 H3236 0.949 . S
C3242 C3246 1.368 . S
C3243 C3224 1.429 . S
C3243 C3237 1.429 . S
C3243 C3244 1.523 . S
C3244 C3225 1.368 . S
C3244 C3238 1.368 . S
C3244 C3243 1.523 . S
C3245 C3229 1.429 . S
C3245 C3241 1.429 . S
C3245 C3246 1.523 . S
C3246 C3230 1.368 . S
C3246 C3242 1.368 . S
C3246 C3245 1.523 . S
H3247 C3222 0.950 . S
H3248 C3224 0.950 . S
H3249 C3225 0.949 . S
H3250 C3227 0.950 . S
H3251 C3229 0.950 . S
C3252 C3253 1.349 . S
C3252 C3254 1.327 . S
C3252 H3277 0.950 . S
C3253 C3252 1.349 . S
C3253 C3269 1.349 . S
C3254 C3252 1.327 . S
C3254 C3273 1.429 . S
C3254 H3278 0.950 . S
C3255 C3272 1.574 . S
C3255 C3274 1.368 . S
C3255 H3279 0.949 . S
H3256 C3260 0.949 . S
C3257 C3258 1.349 . S
C3257 C3259 1.327 . S
C3257 H3280 0.950 . S
C3258 C3257 1.349 . S
C3258 C3270 1.349 . S
C3259 C3257 1.327 . S
C3259 C3275 1.429 . S
C3259 H3281 0.950 . S
C3260 H3256 0.949 . S
C3260 C3268 1.574 . S
C3260 C3276 1.368 . S
H3261 C3269 0.950 . S
H3262 C3267 0.950 . S
H3263 C3268 0.949 . S
H3264 C3270 0.950 . S
H3265 C3271 0.950 . S
H3266 C3272 0.949 . S
C3267 H3262 0.950 . S
C3267 C3269 1.327 . S
C3267 C3273 1.429 . S
C3268 C3260 1.574 . S
C3268 H3263 0.949 . S
C3268 C3274 1.368 . S
C3269 C3253 1.349 . S
C3269 H3261 0.950 . S
C3269 C3267 1.327 . S
C3270 C3258 1.349 . S
C3270 H3264 0.950 . S
C3270 C3271 1.327 . S
C3271 H3265 0.950 . S
C3271 C3270 1.327 . S
C3271 C3275 1.429 . S
C3272 C3255 1.574 . S
C3272 H3266 0.949 . S
C3272 C3276 1.368 . S
C3273 C3254 1.429 . S
C3273 C3267 1.429 . S
C3273 C3274 1.523 . S
C3274 C3255 1.368 . S
C3274 C3268 1.368 . S
C3274 C3273 1.523 . S
C3275 C3259 1.429 . S
C3275 C3271 1.429 . S
C3275 C3276 1.523 . S
C3276 C3260 1.368 . S
C3276 C3272 1.368 . S
C3276 C3275 1.523 . S
H3277 C3252 0.950 . S
H3278 C3254 0.950 . S
H3279 C3255 0.949 . S
H3280 C3257 0.950 . S
H3281 C3259 0.950 . S
C3282 C3283 1.349 . S
C3282 C3284 1.327 . S
C3282 H3307 0.950 . S
C3283 C3282 1.349 . S
C3283 C3299 1.349 . S
C3284 C3282 1.327 . S
C3284 C3303 1.429 . S
C3284 H3308 0.950 . S
C3285 C3302 1.574 . S
C3285 C3304 1.368 . S
C3285 H3309 0.949 . S
H3286 C3290 0.949 . S
C3287 C3288 1.349 . S
C3287 C3289 1.327 . S
C3287 H3310 0.950 . S
C3288 C3287 1.349 . S
C3288 C3300 1.349 . S
C3289 C3287 1.327 . S
C3289 C3305 1.429 . S
C3289 H3311 0.950 . S
C3290 H3286 0.949 . S
C3290 C3298 1.574 . S
C3290 C3306 1.368 . S
H3291 C3299 0.950 . S
H3292 C3297 0.950 . S
H3293 C3298 0.949 . S
H3294 C3300 0.950 . S
H3295 C3301 0.950 . S
H3296 C3302 0.949 . S
C3297 H3292 0.950 . S
C3297 C3299 1.327 . S
C3297 C3303 1.429 . S
C3298 C3290 1.574 . S
C3298 H3293 0.949 . S
C3298 C3304 1.368 . S
C3299 C3283 1.349 . S
C3299 H3291 0.950 . S
C3299 C3297 1.327 . S
C3300 C3288 1.349 . S
C3300 H3294 0.950 . S
C3300 C3301 1.327 . S
C3301 H3295 0.950 . S
C3301 C3300 1.327 . S
C3301 C3305 1.429 . S
C3302 C3285 1.574 . S
C3302 H3296 0.949 . S
C3302 C3306 1.368 . S
C3303 C3284 1.429 . S
C3303 C3297 1.429 . S
C3303 C3304 1.523 . S
C3304 C3285 1.368 . S
C3304 C3298 1.368 . S
C3304 C3303 1.523 . S
C3305 C3289 1.429 . S
C3305 C3301 1.429 . S
C3305 C3306 1.523 . S
C3306 C3290 1.368 . S
C3306 C3302 1.368 . S
C3306 C3305 1.523 . S
H3307 C3282 0.950 . S
H3308 C3284 0.950 . S
H3309 C3285 0.949 . S
H3310 C3287 0.950 . S
H3311 C3289 0.950 . S
C3312 C3313 1.349 . S
C3312 C3314 1.327 . S
C3312 H3337 0.950 . S
C3313 C3312 1.349 . S
C3313 C3329 1.349 . S
C3314 C3312 1.327 . S
C3314 C3333 1.429 . S
C3314 H3338 0.950 . S
C3315 C3332 1.574 . S
C3315 C3334 1.368 . S
C3315 H3339 0.949 . S
H3316 C3320 0.949 . S
C3317 C3318 1.349 . S
C3317 C3319 1.327 . S
C3317 H3340 0.950 . S
C3318 C3317 1.349 . S
C3318 C3330 1.349 . S
C3319 C3317 1.327 . S
C3319 C3335 1.429 . S
C3319 H3341 0.950 . S
C3320 H3316 0.949 . S
C3320 C3328 1.574 . S
C3320 C3336 1.368 . S
H3321 C3329 0.950 . S
H3322 C3327 0.950 . S
H3323 C3328 0.949 . S
H3324 C3330 0.950 . S
H3325 C3331 0.950 . S
H3326 C3332 0.949 . S
C3327 H3322 0.950 . S
C3327 C3329 1.327 . S
C3327 C3333 1.429 . S
C3328 C3320 1.574 . S
C3328 H3323 0.949 . S
C3328 C3334 1.368 . S
C3329 C3313 1.349 . S
C3329 H3321 0.950 . S
C3329 C3327 1.327 . S
C3330 C3318 1.349 . S
C3330 H3324 0.950 . S
C3330 C3331 1.327 . S
C3331 H3325 0.950 . S
C3331 C3330 1.327 . S
C3331 C3335 1.429 . S
C3332 C3315 1.574 . S
C3332 H3326 0.949 . S
C3332 C3336 1.368 . S
C3333 C3314 1.429 . S
C3333 C3327 1.429 . S
C3333 C3334 1.523 . S
C3334 C3315 1.368 . S
C3334 C3328 1.368 . S
C3334 C3333 1.523 . S
C3335 C3319 1.429 . S
C3335 C3331 1.429 . S
C3335 C3336 1.523 . S
C3336 C3320 1.368 . S
C3336 C3332 1.368 . S
C3336 C3335 1.523 . S
H3337 C3312 0.950 . S
H3338 C3314 0.950 . S
H3339 C3315 0.949 . S
H3340 C3317 0.950 . S
H3341 C3319 0.950 . S
C3342 C3343 1.349 . S
C3342 C3344 1.327 . S
C3342 H3367 0.950 . S
C3343 C3342 1.349 . S
C3343 C3359 1.349 . S
C3344 C3342 1.327 . S
C3344 C3363 1.429 . S
C3344 H3368 0.950 . S
C3345 C3362 1.574 . S
C3345 C3364 1.368 . S
C3345 H3369 0.949 . S
H3346 C3350 0.949 . S
C3347 C3348 1.349 . S
C3347 C3349 1.327 . S
C3347 H3370 0.950 . S
C3348 C3347 1.349 . S
C3348 C3360 1.349 . S
C3349 C3347 1.327 . S
C3349 C3365 1.429 . S
C3349 H3371 0.950 . S
C3350 H3346 0.949 . S
C3350 C3358 1.574 . S
C3350 C3366 1.368 . S
H3351 C3359 0.950 . S
H3352 C3357 0.950 . S
H3353 C3358 0.949 . S
H3354 C3360 0.950 . S
H3355 C3361 0.950 . S
H3356 C3362 0.949 . S
C3357 H3352 0.950 . S
C3357 C3359 1.327 . S
C3357 C3363 1.429 . S
C3358 C3350 1.574 . S
C3358 H3353 0.949 . S
C3358 C3364 1.368 . S
C3359 C3343 1.349 . S
C3359 H3351 0.950 . S
C3359 C3357 1.327 . S
C3360 C3348 1.349 . S
C3360 H3354 0.950 . S
C3360 C3361 1.327 . S
C3361 H3355 0.950 . S
C3361 C3360 1.327 . S
C3361 C3365 1.429 . S
C3362 C3345 1.574 . S
C3362 H3356 0.949 . S
C3362 C3366 1.368 . S
C3363 C3344 1.429 . S
C3363 C3357 1.429 . S
C3363 C3364 1.523 . S
C3364 C3345 1.368 . S
C3364 C3358 1.368 . S
C3364 C3363 1.523 . S
C3365 C3349 1.429 . S
C3365 C3361 1.429 . S
C3365 C3366 1.523 . S
C3366 C3350 1.368 . S
C3366 C3362 1.368 . S
C3366 C3365 1.523 . S
H3367 C3342 0.950 . S
H3368 C3344 0.950 . S
H3369 C3345 0.949 . S
H3370 C3347 0.950 . S
H3371 C3349 0.950 . S
C3372 C3373 1.349 . S
C3372 C3374 1.327 . S
C3372 H3397 0.950 . S
C3373 C3372 1.349 . S
C3373 C3389 1.349 . S
C3374 C3372 1.327 . S
C3374 C3393 1.429 . S
C3374 H3398 0.950 . S
C3375 C3392 1.574 . S
C3375 C3394 1.368 . S
C3375 H3399 0.949 . S
H3376 C3380 0.949 . S
C3377 C3378 1.349 . S
C3377 C3379 1.327 . S
C3377 H3400 0.950 . S
C3378 C3377 1.349 . S
C3378 C3390 1.349 . S
C3379 C3377 1.327 . S
C3379 C3395 1.429 . S
C3379 H3401 0.950 . S
C3380 H3376 0.949 . S
C3380 C3388 1.574 . S
C3380 C3396 1.368 . S
H3381 C3389 0.950 . S
H3382 C3387 0.950 . S
H3383 C3388 0.949 . S
H3384 C3390 0.950 . S
H3385 C3391 0.950 . S
H3386 C3392 0.949 . S
C3387 H3382 0.950 . S
C3387 C3389 1.327 . S
C3387 C3393 1.429 . S
C3388 C3380 1.574 . S
C3388 H3383 0.949 . S
C3388 C3394 1.368 . S
C3389 C3373 1.349 . S
C3389 H3381 0.950 . S
C3389 C3387 1.327 . S
C3390 C3378 1.349 . S
C3390 H3384 0.950 . S
C3390 C3391 1.327 . S
C3391 H3385 0.950 . S
C3391 C3390 1.327 . S
C3391 C3395 1.429 . S
C3392 C3375 1.574 . S
C3392 H3386 0.949 . S
C3392 C3396 1.368 . S
C3393 C3374 1.429 . S
C3393 C3387 1.429 . S
C3393 C3394 1.523 . S
C3394 C3375 1.368 . S
C3394 C3388 1.368 . S
C3394 C3393 1.523 . S
C3395 C3379 1.429 . S
C3395 C3391 1.429 . S
C3395 C3396 1.523 . S
C3396 C3380 1.368 . S
C3396 C3392 1.368 . S
C3396 C3395 1.523 . S
H3397 C3372 0.950 . S
H3398 C3374 0.950 . S
H3399 C3375 0.949 . S
H3400 C3377 0.950 . S
H3401 C3379 0.950 . S
C3402 C3403 1.349 . S
C3402 C3404 1.327 . S
C3402 H3427 0.950 . S
C3403 C3402 1.349 . S
C3403 C3419 1.349 . S
C3404 C3402 1.327 . S
C3404 C3423 1.429 . S
C3404 H3428 0.950 . S
C3405 C3422 1.574 . S
C3405 C3424 1.368 . S
C3405 H3429 0.949 . S
H3406 C3410 0.949 . S
C3407 C3408 1.349 . S
C3407 C3409 1.327 . S
C3407 H3430 0.950 . S
C3408 C3407 1.349 . S
C3408 C3420 1.349 . S
C3409 C3407 1.327 . S
C3409 C3425 1.429 . S
C3409 H3431 0.950 . S
C3410 H3406 0.949 . S
C3410 C3418 1.574 . S
C3410 C3426 1.368 . S
H3411 C3419 0.950 . S
H3412 C3417 0.950 . S
H3413 C3418 0.949 . S
H3414 C3420 0.950 . S
H3415 C3421 0.950 . S
H3416 C3422 0.949 . S
C3417 H3412 0.950 . S
C3417 C3419 1.327 . S
C3417 C3423 1.429 . S
C3418 C3410 1.574 . S
C3418 H3413 0.949 . S
C3418 C3424 1.368 . S
C3419 C3403 1.349 . S
C3419 H3411 0.950 . S
C3419 C3417 1.327 . S
C3420 C3408 1.349 . S
C3420 H3414 0.950 . S
C3420 C3421 1.327 . S
C3421 H3415 0.950 . S
C3421 C3420 1.327 . S
C3421 C3425 1.429 . S
C3422 C3405 1.574 . S
C3422 H3416 0.949 . S
C3422 C3426 1.368 . S
C3423 C3404 1.429 . S
C3423 C3417 1.429 . S
C3423 C3424 1.523 . S
C3424 C3405 1.368 . S
C3424 C3418 1.368 . S
C3424 C3423 1.523 . S
C3425 C3409 1.429 . S
C3425 C3421 1.429 . S
C3425 C3426 1.523 . S
C3426 C3410 1.368 . S
C3426 C3422 1.368 . S
C3426 C3425 1.523 . S
H3427 C3402 0.950 . S
H3428 C3404 0.950 . S
H3429 C3405 0.949 . S
H3430 C3407 0.950 . S
H3431 C3409 0.950 . S
C3432 C3433 1.349 . S
C3432 C3434 1.327 . S
C3432 H3457 0.950 . S
C3433 C3432 1.349 . S
C3433 C3449 1.349 . S
C3434 C3432 1.327 . S
C3434 C3453 1.429 . S
C3434 H3458 0.950 . S
C3435 C3452 1.574 . S
C3435 C3454 1.368 . S
C3435 H3459 0.949 . S
H3436 C3440 0.949 . S
C3437 C3438 1.349 . S
C3437 C3439 1.327 . S
C3437 H3460 0.950 . S
C3438 C3437 1.349 . S
C3438 C3450 1.349 . S
C3439 C3437 1.327 . S
C3439 C3455 1.429 . S
C3439 H3461 0.950 . S
C3440 H3436 0.949 . S
C3440 C3448 1.574 . S
C3440 C3456 1.368 . S
H3441 C3449 0.950 . S
H3442 C3447 0.950 . S
H3443 C3448 0.949 . S
H3444 C3450 0.950 . S
H3445 C3451 0.950 . S
H3446 C3452 0.949 . S
C3447 H3442 0.950 . S
C3447 C3449 1.327 . S
C3447 C3453 1.429 . S
C3448 C3440 1.574 . S
C3448 H3443 0.949 . S
C3448 C3454 1.368 . S
C3449 C3433 1.349 . S
C3449 H3441 0.950 . S
C3449 C3447 1.327 . S
C3450 C3438 1.349 . S
C3450 H3444 0.950 . S
C3450 C3451 1.327 . S
C3451 H3445 0.950 . S
C3451 C3450 1.327 . S
C3451 C3455 1.429 . S
C3452 C3435 1.574 . S
C3452 H3446 0.949 . S
C3452 C3456 1.368 . S
C3453 C3434 1.429 . S
C3453 C3447 1.429 . S
C3453 C3454 1.523 . S
C3454 C3435 1.368 . S
C3454 C3448 1.368 . S
C3454 C3453 1.523 . S
C3455 C3439 1.429 . S
C3455 C3451 1.429 . S
C3455 C3456 1.523 . S
C3456 C3440 1.368 . S
C3456 C3452 1.368 . S
C3456 C3455 1.523 . S
H3457 C3432 0.950 . S
H3458 C3434 0.950 . S
H3459 C3435 0.949 . S
H3460 C3437 0.950 . S
H3461 C3439 0.950 . S
C3462 C3463 1.367 . S
C3462 C3464 1.339 . S
C3462 H3487 0.920 1_556 S
C3463 C3462 1.367 . S
C3463 C3479 1.349 . S
C3464 C3462 1.339 . S
C3464 C3483 1.429 . S
C3464 H3488 0.950 . S
C3465 C3482 1.574 . S
C3465 C3484 1.368 . S
C3465 H3489 0.949 . S
H3466 C3470 0.949 . S
C3467 C3468 1.349 . S
C3467 C3469 1.327 . S
C3467 H3490 0.950 . S
C3468 C3467 1.349 . S
C3468 C3480 1.349 . S
C3469 C3467 1.327 . S
C3469 C3485 1.429 . S
C3469 H3491 0.950 . S
C3470 H3466 0.949 . S
C3470 C3478 1.574 . S
C3470 C3486 1.368 . S
H3471 C3479 0.950 . S
H3472 C3477 0.950 . S
H3473 C3478 0.949 . S
H3474 C3480 0.950 . S
H3475 C3481 0.950 . S
H3476 C3482 0.949 . S
C3477 H3472 0.950 . S
C3477 C3479 1.327 . S
C3477 C3483 1.429 . S
C3478 C3470 1.574 . S
C3478 H3473 0.949 . S
C3478 C3484 1.368 . S
C3479 C3463 1.349 . S
C3479 H3471 0.950 . S
C3479 C3477 1.327 . S
C3480 C3468 1.349 . S
C3480 H3474 0.950 . S
C3480 C3481 1.327 . S
C3481 H3475 0.950 . S
C3481 C3480 1.327 . S
C3481 C3485 1.429 . S
C3482 C3465 1.574 . S
C3482 H3476 0.949 . S
C3482 C3486 1.368 . S
C3483 C3464 1.429 . S
C3483 C3477 1.429 . S
C3483 C3484 1.523 . S
C3484 C3465 1.368 . S
C3484 C3478 1.368 . S
C3484 C3483 1.523 . S
C3485 C3469 1.429 . S
C3485 C3481 1.429 . S
C3485 C3486 1.523 . S
C3486 C3470 1.368 . S
C3486 C3482 1.368 . S
C3486 C3485 1.523 . S
H3487 C3462 0.920 1_554 S
H3488 C3464 0.950 . S
H3489 C3465 0.949 . S
H3490 C3467 0.950 . S
H3491 C3469 0.950 . S
C3492 C3493 1.349 . S
C3492 C3494 1.327 . S
C3492 H3517 0.931 1_565 S
C3493 C3492 1.349 . S
C3493 C3509 1.349 . S
C3494 C3492 1.327 . S
C3494 C3513 1.429 . S
C3494 H3518 0.950 . S
C3495 C3512 1.574 . S
C3495 C3514 1.368 . S
C3495 H3519 0.949 . S
H3496 C3500 0.949 . S
C3497 C3498 1.349 . S
C3497 C3499 1.327 . S
C3497 H3520 0.950 . S
C3498 C3497 1.349 . S
C3498 C3510 1.349 . S
C3499 C3497 1.327 . S
C3499 C3515 1.429 . S
C3499 H3521 0.950 . S
C3500 H3496 0.949 . S
C3500 C3508 1.574 . S
C3500 C3516 1.368 . S
H3501 C3509 0.950 . S
H3502 C3507 0.950 . S
H3503 C3508 0.949 . S
H3504 C3510 0.950 . S
H3505 C3511 0.950 . S
H3506 C3512 0.949 . S
C3507 H3502 0.950 . S
C3507 C3509 1.327 . S
C3507 C3513 1.429 . S
C3508 C3500 1.574 . S
C3508 H3503 0.949 . S
C3508 C3514 1.368 . S
C3509 C3493 1.349 . S
C3509 H3501 0.950 . S
C3509 C3507 1.327 . S
C3510 C3498 1.349 . S
C3510 H3504 0.950 . S
C3510 C3511 1.327 . S
C3511 H3505 0.950 . S
C3511 C3510 1.327 . S
C3511 C3515 1.429 . S
C3512 C3495 1.574 . S
C3512 H3506 0.949 . S
C3512 C3516 1.368 . S
C3513 C3494 1.429 . S
C3513 C3507 1.429 . S
C3513 C3514 1.523 . S
C3514 C3495 1.368 . S
C3514 C3508 1.368 . S
C3514 C3513 1.523 . S
C3515 C3499 1.429 . S
C3515 C3511 1.429 . S
C3515 C3516 1.523 . S
C3516 C3500 1.368 . S
C3516 C3512 1.368 . S
C3516 C3515 1.523 . S
H3517 C3492 0.931 1_545 S
H3518 C3494 0.950 . S
H3519 C3495 0.949 . S
H3520 C3497 0.950 . S
H3521 C3499 0.950 . S
C3522 C3523 1.349 . S
C3522 C3524 1.327 . S
C3522 H3547 0.950 . S
C3523 C3522 1.349 . S
C3523 C3539 1.349 . S
C3524 C3522 1.327 . S
C3524 C3543 1.429 . S
C3524 H3548 0.950 . S
C3525 C3542 1.553 1_455 S
C3525 C3544 1.368 . S
C3525 H3549 0.949 . S
H3526 C3530 0.955 . S
C3527 C3528 1.349 . S
C3527 C3529 1.327 . S
C3527 H3550 0.950 . S
C3528 C3527 1.349 . S
C3528 C3540 1.349 . S
C3529 C3527 1.327 . S
C3529 C3545 1.429 . S
C3529 H3551 0.950 . S
C3530 H3526 0.955 . S
C3530 C3538 1.574 . S
C3530 C3546 1.368 1_455 S
H3531 C3539 0.950 . S
H3532 C3537 0.950 . S
H3533 C3538 0.949 . S
H3534 C3540 0.950 . S
H3535 C3541 0.950 . S
H3536 C3542 0.964 . S
C3537 H3532 0.950 . S
C3537 C3539 1.327 . S
C3537 C3543 1.429 . S
C3538 C3530 1.574 . S
C3538 H3533 0.949 . S
C3538 C3544 1.368 . S
C3539 C3523 1.349 . S
C3539 H3531 0.950 . S
C3539 C3537 1.327 . S
C3540 C3528 1.349 . S
C3540 H3534 0.950 . S
C3540 C3541 1.327 . S
C3541 H3535 0.950 . S
C3541 C3540 1.327 . S
C3541 C3545 1.429 . S
C3542 C3525 1.553 1_655 S
C3542 H3536 0.964 . S
C3542 C3546 1.372 . S
C3543 C3524 1.429 . S
C3543 C3537 1.429 . S
C3543 C3544 1.523 . S
C3544 C3525 1.368 . S
C3544 C3538 1.368 . S
C3544 C3543 1.523 . S
C3545 C3529 1.429 . S
C3545 C3541 1.429 . S
C3545 C3546 1.523 . S
C3546 C3530 1.368 1_655 S
C3546 C3542 1.372 . S
C3546 C3545 1.523 . S
H3547 C3522 0.950 . S
H3548 C3524 0.950 . S
H3549 C3525 0.949 . S
H3550 C3527 0.950 . S
H3551 C3529 0.950 . S
C678 C354 0.816 . S
C673 C11 0.829 . S
C703 C21 1.314 . S
C708 C374 1.346 . S
C738 C394 0.894 . S
C733 C41 0.966 . S
C768 C413 1.328 . S
C763 C50 1.315 . S
C798 C371 1.222 . S
C793 C64 1.210 . S
C823 C83 0.976 . S
C828 C396 0.944 . S
C858 C416 1.189 . S
C853 C91 1.178 . S
C883 C109 0.992 . S
C888 C352 0.915 . S
C913 C123 1.284 . S
C918 C349 1.163 . S
C948 C372 1.058 . S
C943 C134 1.116 . S
C978 C395 1.202 . S
C973 C147 1.169 . S
C1008 C417 1.206 . S
C1003 C167 1.268 . S
C1038 C375 0.762 . S
C1033 C125 0.767 . S
C1068 C391 0.855 . S
C1063 C133 0.912 . S
C1093 C148 0.932 . S
C1098 C414 0.903 . S
C1128 C353 0.643 . S
C1123 C165 0.646 . S
C1153 C179 1.138 . S
C1158 C350 1.141 . S
C1183 C189 0.646 . S
C1188 C433 0.709 . S
C1218 C455 1.202 . S
C1213 C204 1.196 . S
C1248 C478 0.933 . S
C1243 C223 1.076 . S
C1273 C235 1.176 . S
C1278 C351 1.129 . S
C1303 C246 1.342 . S
C1308 C393 1.281 . S
C1338 C475 1.027 . S
C1333 C203 1.165 . S
C1368 C436 0.750 . S
C1363 C265 0.749 . S
C1398 C501 0.801 . S
C1393 C27 0.813 . S
C1428 C521 1.437 . S
C1423 C7 1.431 . S
C1453 C53 0.807 . S
C1458 C543 0.798 . S
C1483 C36 0.999 . S
C1488 C560 1.010 . S
C1513 C106 1.593 1_655 S
C1518 C518 1.627 . S
C1543 C95 0.946 . S
C1548 C541 0.868 . S
C1578 C563 1.038 . S
C1573 C77 1.025 . S
C1603 C69 1.134 . S
C1608 C499 1.020 . S
C1633 C279 0.895 . S
C1638 C496 0.845 . S
C1668 C519 1.372 . S
C1663 C218 1.433 . S
C1698 C538 1.109 . S
C1693 C231 1.229 . S
C1728 C564 1.039 . S
C1723 C193 1.097 . S
C1758 C522 0.745 . S
C1753 C277 0.744 . S
C1788 C542 0.713 . S
C1783 C217 0.714 . S
C1818 C561 0.702 . S
C1813 C232 0.682 . S
C1843 C195 1.193 . S
C1848 C500 1.193 . S
C1878 C497 1.259 . S
C1873 C293 1.266 . S
C1903 C161 0.939 . S
C1908 C580 0.860 . S
C1938 C603 1.229 . S
C1933 C302 1.271 . S
C1963 C137 1.034 . S
C1968 C625 0.905 . S
C1998 C498 1.195 . S
C1993 C153 1.235 . S
C2028 C539 1.316 . S
C2023 C316 1.280 . S
C2058 C622 0.764 . S
C2053 C301 0.781 . S
C2083 C333 0.594 . S
C2088 C583 0.693 . S
C2113 C39 0.829 . S
C2118 C648 0.816 . S
C2143 C49 1.314 . S
C2148 C437 1.346 . S
C2178 C457 0.894 . S
C2173 C13 0.966 . S
C2203 C22 1.315 . S
C2208 C476 1.328 . S
C2233 C92 1.213 . S
C2238 C434 1.222 . S
C2263 C111 0.964 1_655 S
C2268 C459 0.943 . S
C2298 C479 1.189 . S
C2293 C63 1.180 . S
C2328 C646 0.915 . S
C2323 C81 0.992 . S
C2358 C643 1.163 . S
C2353 C305 1.284 . S
C2388 C435 1.058 . S
C2383 C288 1.116 . S
C2418 C458 1.202 . S
C2413 C329 1.169 . S
C2443 C321 1.268 . S
C2448 C480 1.206 . S
C2478 C438 0.762 . S
C2473 C307 0.767 . S
C2503 C287 0.912 . S
C2508 C454 0.855 . S
C2538 C477 0.903 . S
C2533 C330 0.932 . S
C2563 C319 0.646 . S
C2568 C647 0.643 . S
C2598 C644 1.141 . S
C2593 C221 1.138 . S
C2623 C245 0.645 . S
C2628 C370 0.709 . S
C2658 C392 1.202 . S
C2653 C274 1.195 . S
C2683 C181 1.076 . S
C2688 C415 0.933 . S
C2718 C645 1.130 . S
C2713 C263 1.176 . S
C2748 C456 1.281 . S
C2743 C190 1.342 . S
C2778 C412 1.027 . S
C2773 C273 1.165 . S
C2808 C373 0.750 . S
C2803 C237 0.749 . S
C2833 C55 0.813 . S
C2838 C669 0.801 . S
C2863 C35 1.431 . S
C2868 C584 1.437 . S
C2893 C25 0.807 . S
C2898 C606 0.798 . S
C2928 C623 1.010 . S
C2923 C8 0.999 . S
C2958 C581 1.627 . S
C2953 C78 1.593 . S
C2983 C67 0.945 . S
C2988 C604 0.867 . S
C3018 C626 1.038 . S
C3013 C105 1.025 . S
C3043 C97 1.134 . S
C3048 C667 1.019 . S
C3078 C664 0.845 . S
C3073 C209 0.895 . S
C3103 C176 1.433 . S
C3108 C582 1.372 . S
C3133 C259 1.229 . S
C3138 C601 1.109 . S
C3168 C627 1.039 . S
C3163 C249 1.097 . S
C3198 C585 0.745 . S
C3193 C207 0.744 . S
C3223 C175 0.714 . S
C3228 C605 0.713 . S
C3258 C624 0.702 . S
C3253 C260 0.682 . S
C3288 C668 1.194 . S
C3283 C251 1.193 . S
C3318 C665 1.259 . S
C3313 C139 1.266 . S
C3348 C517 0.860 . S
C3343 C315 0.939 . S
C3373 C120 1.270 . S
C3378 C540 1.229 . S
C3403 C291 1.034 . S
C3408 C562 0.905 . S
C3438 C666 1.195 . S
C3433 C335 1.235 . S
C3468 C602 1.316 . S
C3463 C162 1.280 . S
C3498 C559 0.764 . S
C3493 C119 0.781 . S
C3528 C520 0.693 . S
C3523 C151 0.594 . S
