# Generated by pormake.
# Topology the, (3,8)-cn, num edge types: 1
# Building blocks:
#     Node 0, Type 0, BuildingBlock: WUSLED_clean_sbu_0, # of connection points: 3
#     Node 1, Type 0, BuildingBlock: WUSLED_clean_sbu_0, # of connection points: 3
#     Node 2, Type 0, BuildingBlock: WUSLED_clean_sbu_0, # of connection points: 3
#     Node 3, Type 0, BuildingBlock: WUSLED_clean_sbu_0, # of connection points: 3
#     Node 4, Type 0, BuildingBlock: WUSLED_clean_sbu_0, # of connection points: 3
#     Node 5, Type 0, BuildingBlock: WUSLED_clean_sbu_0, # of connection points: 3
#     Node 6, Type 0, BuildingBlock: WUSLED_clean_sbu_0, # of connection points: 3
#     Node 7, Type 0, BuildingBlock: WUSLED_clean_sbu_0, # of connection points: 3
#     Node 8, Type 1, BuildingBlock: GIZVER_clean_sbu_0, # of connection points: 8
#     Node 9, Type 1, BuildingBlock: GIZVER_clean_sbu_0, # of connection points: 8
#     Node 10, Type 1, BuildingBlock: GIZVER_clean_sbu_0, # of connection points: 8
#     Edge 11, Type (0, 1), BuildingBlock: TEMPAE_clean_linker_10, # of connection points: 2
#     Edge 12, Type (0, 1), BuildingBlock: TEMPAE_clean_linker_10, # of connection points: 2
#     Edge 13, Type (0, 1), BuildingBlock: TEMPAE_clean_linker_10, # of connection points: 2
#     Edge 14, Type (0, 1), BuildingBlock: TEMPAE_clean_linker_10, # of connection points: 2
#     Edge 15, Type (0, 1), BuildingBlock: TEMPAE_clean_linker_10, # of connection points: 2
#     Edge 16, Type (0, 1), BuildingBlock: TEMPAE_clean_linker_10, # of connection points: 2
#     Edge 17, Type (0, 1), BuildingBlock: TEMPAE_clean_linker_10, # of connection points: 2
#     Edge 18, Type (0, 1), BuildingBlock: TEMPAE_clean_linker_10, # of connection points: 2
#     Edge 19, Type (0, 1), BuildingBlock: TEMPAE_clean_linker_10, # of connection points: 2
#     Edge 20, Type (0, 1), BuildingBlock: TEMPAE_clean_linker_10, # of connection points: 2
#     Edge 21, Type (0, 1), BuildingBlock: TEMPAE_clean_linker_10, # of connection points: 2
#     Edge 22, Type (0, 1), BuildingBlock: TEMPAE_clean_linker_10, # of connection points: 2
#     Edge 23, Type (0, 1), BuildingBlock: TEMPAE_clean_linker_10, # of connection points: 2
#     Edge 24, Type (0, 1), BuildingBlock: TEMPAE_clean_linker_10, # of connection points: 2
#     Edge 25, Type (0, 1), BuildingBlock: TEMPAE_clean_linker_10, # of connection points: 2
#     Edge 26, Type (0, 1), BuildingBlock: TEMPAE_clean_linker_10, # of connection points: 2
#     Edge 27, Type (0, 1), BuildingBlock: TEMPAE_clean_linker_10, # of connection points: 2
#     Edge 28, Type (0, 1), BuildingBlock: TEMPAE_clean_linker_10, # of connection points: 2
#     Edge 29, Type (0, 1), BuildingBlock: TEMPAE_clean_linker_10, # of connection points: 2
#     Edge 30, Type (0, 1), BuildingBlock: TEMPAE_clean_linker_10, # of connection points: 2
#     Edge 31, Type (0, 1), BuildingBlock: TEMPAE_clean_linker_10, # of connection points: 2
#     Edge 32, Type (0, 1), BuildingBlock: TEMPAE_clean_linker_10, # of connection points: 2
#     Edge 33, Type (0, 1), BuildingBlock: TEMPAE_clean_linker_10, # of connection points: 2
#     Edge 34, Type (0, 1), BuildingBlock: TEMPAE_clean_linker_10, # of connection points: 2
# Relax obj value: 0.043
# Max RMSD: 0.139
# Mean RMSD: 0.062
data_MOF--net-the--node1-WUSLED_clean_sbu_0--node2-GIZVER_clean_sbu_0--edge1-TEMPAE_clean_linker_10
_symmetry_space_group_name_H-M    P1
_symmetry_Int_Tables_number       1
_symmetry_cell_setting            triclinic
loop_
_symmetry_equiv_pos_as_xyz
'x, y, z'
_cell_length_a     53.166038
_cell_length_b     50.188353
_cell_length_c     46.710512
_cell_angle_alpha  86.507838
_cell_angle_beta   93.797394
_cell_angle_gamma 100.8269
loop_
_atom_site_label
_atom_site_type_symbol
_atom_site_fract_x
_atom_site_fract_y
_atom_site_fract_z
_atom_type_partial_charge
C0 C 0.33423 0.2772 0.44074 0.0
C1 C 0.3581 0.2773 0.42957 0.0
C2 C 0.3612 0.23472 0.45625 0.0
C3 C 0.37151 0.25632 0.43734 0.0
C4 C 0.33712 0.23465 0.46718 0.0
C5 C 0.32378 0.25576 0.45951 0.0
U6 U 0.3256 0.33759 0.39159 0.0
O7 O 0.29076 0.35062 0.37207 0.0
O8 O 0.31756 0.37759 0.4002 0.0
C9 C 0.29513 0.37321 0.38591 0.0
C10 C 0.32013 0.29922 0.43254 0.0
C11 C 0.2733 0.37895 0.40071 0.0
C12 C 0.25248 0.38435 0.44426 0.0
C13 C 0.27302 0.37759 0.43083 0.0
C14 C 0.23191 0.39297 0.39764 0.0
C15 C 0.23181 0.3924 0.42779 0.0
C16 C 0.25251 0.38642 0.38427 0.0
C17 C 0.37083 0.35804 0.3309 0.0
C18 C 0.37804 0.40235 0.30556 0.0
C19 C 0.38988 0.36374 0.28467 0.0
C20 C 0.38111 0.34718 0.3084 0.0
C21 C 0.38872 0.3916 0.28307 0.0
C22 C 0.36908 0.38568 0.32924 0.0
C23 C 0.36193 0.34017 0.35573 0.0
O24 O 0.33319 0.32385 0.43635 0.0
O25 O 0.30715 0.29694 0.40759 0.0
O26 O 0.33913 0.3249 0.35194 0.0
O27 O 0.3657 0.35125 0.38081 0.0
H28 H 0.36639 0.29369 0.41492 0.0
H29 H 0.39012 0.25724 0.4288 0.0
H30 H 0.32841 0.21813 0.4814 0.0
H31 H 0.30527 0.2553 0.46813 0.0
H32 H 0.25308 0.38386 0.4675 0.0
H33 H 0.28881 0.37167 0.44399 0.0
H34 H 0.21606 0.3985 0.38431 0.0
H35 H 0.25227 0.38737 0.36102 0.0
H36 H 0.37699 0.42371 0.30512 0.0
H37 H 0.39741 0.35463 0.26745 0.0
H38 H 0.38235 0.32584 0.30919 0.0
H39 H 0.36096 0.39441 0.34631 0.0
C40 C 0.65956 0.3594 0.27179 0.0
C41 C 0.67376 0.36841 0.24754 0.0
C42 C 0.63797 0.3877 0.22469 0.0
C43 C 0.66306 0.3824 0.22424 0.0
C44 C 0.62413 0.3791 0.2493 0.0
C45 C 0.63478 0.36515 0.27246 0.0
U46 U 0.70806 0.3399 0.33271 0.0
O47 O 0.69897 0.32184 0.37589 0.0
O48 O 0.71598 0.29928 0.34587 0.0
C49 C 0.7056 0.29872 0.37075 0.0
C50 C 0.66888 0.34214 0.29561 0.0
C51 C 0.68739 0.27373 0.37917 0.0
C52 C 0.65839 0.2315 0.36782 0.0
C53 C 0.67461 0.25555 0.35888 0.0
C54 C 0.66712 0.2436 0.41733 0.0
C55 C 0.65448 0.22518 0.39718 0.0
C56 C 0.6834 0.26752 0.40841 0.0
C57 C 0.77369 0.38696 0.34906 0.0
C58 C 0.81282 0.37657 0.37387 0.0
C59 C 0.80666 0.42317 0.3677 0.0
C60 C 0.78282 0.41457 0.35341 0.0
C61 C 0.82218 0.40438 0.37795 0.0
C62 C 0.78882 0.36795 0.35957 0.0
C63 C 0.74874 0.37901 0.33284 0.0
O64 O 0.68794 0.32991 0.29087 0.0
O65 O 0.67045 0.35143 0.32149 0.0
O66 O 0.72815 0.37998 0.34656 0.0
O67 O 0.74607 0.35771 0.31707 0.0
H68 H 0.69292 0.36427 0.24634 0.0
H69 H 0.67441 0.38895 0.20582 0.0
H70 H 0.60465 0.38235 0.25034 0.0
H71 H 0.6233 0.35817 0.29072 0.0
H72 H 0.64874 0.21794 0.3517 0.0
H73 H 0.67722 0.25983 0.33616 0.0
H74 H 0.66482 0.23929 0.4401 0.0
H75 H 0.69313 0.28111 0.42448 0.0
H76 H 0.82422 0.3615 0.38131 0.0
H77 H 0.81281 0.44465 0.37096 0.0
H78 H 0.77147 0.4296 0.34561 0.0
H79 H 0.78221 0.34649 0.35654 0.0
C80 C 0.66746 0.70083 0.26902 0.0
C81 C 0.67418 0.67535 0.26641 0.0
C82 C 0.64703 0.66873 0.22209 0.0
C83 C 0.66407 0.65946 0.24314 0.0
C84 C 0.64098 0.69459 0.22453 0.0
C85 C 0.65106 0.71041 0.24772 0.0
U86 U 0.71355 0.72273 0.33463 0.0
O87 O 0.72715 0.7638 0.35019 0.0
O88 O 0.70413 0.7327 0.37755 0.0
C89 C 0.71509 0.75835 0.37416 0.0
C90 C 0.67631 0.71736 0.29415 0.0
C91 C 0.70022 0.77854 0.38256 0.0
C92 C 0.67447 0.81366 0.37119 0.0
C93 C 0.68776 0.79419 0.36224 0.0
C94 C 0.68581 0.80196 0.42077 0.0
C95 C 0.67328 0.81777 0.40063 0.0
C96 C 0.69907 0.78263 0.41183 0.0
C97 C 0.77178 0.68615 0.35181 0.0
C98 C 0.80119 0.68981 0.3943 0.0
C99 C 0.80753 0.6619 0.35588 0.0
C100 C 0.78603 0.66886 0.34048 0.0
C101 C 0.81542 0.67215 0.38309 0.0
C102 C 0.77956 0.69676 0.37879 0.0
C103 C 0.74855 0.69182 0.33525 0.0
O104 O 0.67441 0.70444 0.31948 0.0
O105 O 0.69786 0.73495 0.29194 0.0
O106 O 0.75054 0.71547 0.32103 0.0
O107 O 0.72675 0.68456 0.34784 0.0
H108 H 0.68684 0.66756 0.2826 0.0
H109 H 0.66901 0.63958 0.24211 0.0
H110 H 0.6283 0.70262 0.20854 0.0
H111 H 0.64571 0.73005 0.24925 0.0
H112 H 0.66484 0.82521 0.35507 0.0
H113 H 0.68829 0.79138 0.33949 0.0
H114 H 0.68571 0.80477 0.44356 0.0
H115 H 0.70865 0.77094 0.42789 0.0
H116 H 0.80677 0.69829 0.41504 0.0
H117 H 0.81755 0.64786 0.34671 0.0
H118 H 0.78027 0.66032 0.31978 0.0
H119 H 0.76881 0.71017 0.38792 0.0
C120 C 0.26161 0.65371 0.35886 0.0
C121 C 0.26088 0.65157 0.38897 0.0
C122 C 0.21459 0.63494 0.38526 0.0
C123 C 0.23761 0.64223 0.40202 0.0
C124 C 0.21535 0.63787 0.35516 0.0
C125 C 0.23859 0.64707 0.34216 0.0
U126 U 0.32776 0.69854 0.34353 0.0
O127 O 0.36395 0.68576 0.33543 0.0
O128 O 0.34525 0.70895 0.30183 0.0
C129 C 0.36368 0.6951 0.30849 0.0
C130 C 0.28607 0.66083 0.34423 0.0
C131 C 0.36889 0.67695 0.28644 0.0
C132 C 0.38118 0.63509 0.27301 0.0
C133 C 0.37381 0.65072 0.29379 0.0
C134 C 0.37823 0.67123 0.23698 0.0
C135 C 0.38387 0.6453 0.2444 0.0
C136 C 0.37095 0.68686 0.25774 0.0
C137 C 0.35138 0.76456 0.38496 0.0
C138 C 0.39271 0.78756 0.4051 0.0
C139 C 0.35867 0.81297 0.39335 0.0
C140 C 0.34267 0.78937 0.3838 0.0
C141 C 0.38379 0.81231 0.40453 0.0
C142 C 0.37671 0.76395 0.3954 0.0
C143 C 0.33303 0.73949 0.37744 0.0
O144 O 0.28857 0.68231 0.32636 0.0
O145 O 0.30727 0.65886 0.35975 0.0
O146 O 0.33971 0.71609 0.38541 0.0
O147 O 0.32137 0.73954 0.35173 0.0
H148 H 0.2783 0.6566 0.40246 0.0
H149 H 0.23768 0.64053 0.42525 0.0
H150 H 0.19811 0.63213 0.34157 0.0
H151 H 0.23865 0.64834 0.31892 0.0
H152 H 0.38564 0.61537 0.27965 0.0
H153 H 0.3726 0.64245 0.31572 0.0
H154 H 0.37969 0.67964 0.21512 0.0
H155 H 0.36743 0.70703 0.25142 0.0
H156 H 0.41206 0.78639 0.4132 0.0
H157 H 0.35106 0.83156 0.39285 0.0
H158 H 0.32317 0.79037 0.37612 0.0
H159 H 0.38406 0.74518 0.39659 0.0
C160 C 0.27436 0.65124 0.70071 0.0
C161 C 0.27267 0.65711 0.6709 0.0
C162 C 0.22769 0.63439 0.66811 0.0
C163 C 0.2496 0.64871 0.65477 0.0
C164 C 0.22941 0.62913 0.69805 0.0
C165 C 0.25246 0.63742 0.7141 0.0
U166 U 0.33978 0.69672 0.72109 0.0
O167 O 0.35783 0.70594 0.76408 0.0
O168 O 0.37674 0.68471 0.73461 0.0
C169 C 0.37693 0.69335 0.76067 0.0
C170 C 0.2988 0.65804 0.71816 0.0
C171 C 0.38456 0.67547 0.78514 0.0
C172 C 0.41079 0.64271 0.80442 0.0
C173 C 0.40041 0.65667 0.78097 0.0
C174 C 0.38925 0.66543 0.83687 0.0
C175 C 0.40576 0.64726 0.83277 0.0
C176 C 0.37888 0.67941 0.81342 0.0
C177 C 0.36123 0.76465 0.67726 0.0
C178 C 0.40416 0.79057 0.67016 0.0
C179 C 0.36717 0.8117 0.65864 0.0
C180 C 0.35105 0.78757 0.66728 0.0
C181 C 0.39395 0.81348 0.65969 0.0
C182 C 0.38798 0.76642 0.67892 0.0
C183 C 0.34341 0.73902 0.68434 0.0
O184 O 0.31998 0.65735 0.7054 0.0
O185 O 0.30098 0.67873 0.73469 0.0
O186 O 0.33209 0.73772 0.7087 0.0
O187 O 0.35079 0.71628 0.67917 0.0
H188 H 0.28925 0.66787 0.66003 0.0
H189 H 0.24892 0.65341 0.63183 0.0
H190 H 0.21312 0.61786 0.70905 0.0
H191 H 0.25331 0.63256 0.73703 0.0
H192 H 0.42369 0.62924 0.80031 0.0
H193 H 0.40562 0.65344 0.7596 0.0
H194 H 0.38463 0.66923 0.85831 0.0
H195 H 0.36704 0.69395 0.81757 0.0
H196 H 0.4247 0.79131 0.67161 0.0
H197 H 0.35858 0.82875 0.65041 0.0
H198 H 0.33048 0.78665 0.66566 0.0
H199 H 0.39636 0.74906 0.68665 0.0
C200 C 0.2762 0.33243 0.66089 0.0
C201 C 0.2649 0.34601 0.68057 0.0
C202 C 0.23473 0.35876 0.64268 0.0
C203 C 0.2443 0.35898 0.67156 0.0
C204 C 0.2462 0.34508 0.62315 0.0
C205 C 0.26666 0.33209 0.63218 0.0
U206 U 0.33482 0.32018 0.71014 0.0
O207 O 0.34727 0.28167 0.72381 0.0
O208 O 0.37205 0.31245 0.69784 0.0
C209 C 0.36821 0.28756 0.70938 0.0
C210 C 0.29782 0.31841 0.66953 0.0
C211 C 0.37431 0.26612 0.69176 0.0
C212 C 0.36511 0.22027 0.67406 0.0
C213 C 0.35773 0.24091 0.68875 0.0
C214 C 0.40552 0.24972 0.66464 0.0
C215 C 0.3892 0.22434 0.66196 0.0
C216 C 0.3982 0.27025 0.67939 0.0
C217 C 0.35432 0.36535 0.776 0.0
C218 C 0.38774 0.36174 0.81358 0.0
C219 C 0.36516 0.39949 0.81183 0.0
C220 C 0.35056 0.38933 0.78754 0.0
C221 C 0.38393 0.38585 0.8253 0.0
C222 C 0.37304 0.35156 0.78914 0.0
C223 C 0.33834 0.35554 0.75032 0.0
O224 O 0.32089 0.33298 0.66691 0.0
O225 O 0.2958 0.30303 0.69339 0.0
O226 O 0.32471 0.33084 0.75244 0.0
O227 O 0.34891 0.36126 0.72552 0.0
H228 H 0.27204 0.34664 0.70283 0.0
H229 H 0.23615 0.36956 0.68712 0.0
H230 H 0.23917 0.34416 0.60087 0.0
H231 H 0.27504 0.32167 0.61665 0.0
H232 H 0.35196 0.20108 0.67222 0.0
H233 H 0.33921 0.23694 0.69809 0.0
H234 H 0.42436 0.2535 0.65605 0.0
H235 H 0.41154 0.28928 0.68168 0.0
H236 H 0.4019 0.3506 0.82344 0.0
H237 H 0.36199 0.41835 0.81975 0.0
H238 H 0.3363 0.40036 0.77764 0.0
H239 H 0.37625 0.33299 0.78055 0.0
C240 C 0.67132 0.27328 0.68366 0.0
C241 C 0.6718 0.27322 0.6536 0.0
C242 C 0.65091 0.22545 0.65428 0.0
C243 C 0.66164 0.24957 0.63907 0.0
C244 C 0.65112 0.22546 0.68442 0.0
C245 C 0.66114 0.24911 0.69889 0.0
U246 U 0.71827 0.33991 0.70169 0.0
O247 O 0.7098 0.3797 0.71076 0.0
O248 O 0.72962 0.3572 0.74397 0.0
C249 C 0.71868 0.37842 0.73767 0.0
C250 C 0.67983 0.2984 0.69954 0.0
C251 C 0.70284 0.38611 0.75984 0.0
C252 C 0.66747 0.40678 0.77304 0.0
C253 C 0.68054 0.39681 0.75217 0.0
C254 C 0.69829 0.3951 0.80984 0.0
C255 C 0.67634 0.40636 0.80211 0.0
C256 C 0.71143 0.38524 0.78895 0.0
C257 C 0.78054 0.36147 0.66098 0.0
C258 C 0.81947 0.39282 0.67549 0.0
C259 C 0.81211 0.37994 0.6261 0.0
C260 C 0.78876 0.3635 0.63289 0.0
C261 C 0.82787 0.39472 0.64732 0.0
C262 C 0.79598 0.37643 0.68224 0.0
C263 C 0.75623 0.34304 0.6675 0.0
O264 O 0.70005 0.29891 0.71744 0.0
O265 O 0.67964 0.32162 0.68495 0.0
O266 O 0.73506 0.35223 0.6599 0.0
O267 O 0.7555 0.33 0.6928 0.0
H268 H 0.67963 0.29152 0.64126 0.0
H269 H 0.66208 0.25021 0.61589 0.0
H270 H 0.64276 0.20741 0.69683 0.0
H271 H 0.66043 0.24866 0.72205 0.0
H272 H 0.65044 0.41498 0.76637 0.0
H273 H 0.6734 0.39803 0.72996 0.0
H274 H 0.70582 0.39469 0.83195 0.0
H275 H 0.72876 0.37755 0.79552 0.0
H276 H 0.83097 0.40416 0.69227 0.0
H277 H 0.81807 0.38062 0.6043 0.0
H278 H 0.7772 0.35207 0.61618 0.0
H279 H 0.78999 0.37531 0.70406 0.0
C280 C 0.71035 0.75939 0.6125 0.0
C281 C 0.69911 0.77044 0.63425 0.0
C282 C 0.68166 0.80085 0.59902 0.0
C283 C 0.68511 0.7911 0.62762 0.0
C284 C 0.69285 0.78955 0.57725 0.0
C285 C 0.70713 0.76904 0.58398 0.0
U286 U 0.71907 0.69857 0.66013 0.0
O287 O 0.72742 0.6587 0.65145 0.0
O288 O 0.75352 0.68544 0.68044 0.0
C289 C 0.74944 0.66288 0.66658 0.0
C290 C 0.72445 0.73707 0.61945 0.0
C291 C 0.77159 0.65738 0.65241 0.0
C292 C 0.79692 0.6601 0.61058 0.0
C293 C 0.77578 0.66591 0.62365 0.0
C294 C 0.81004 0.63776 0.65507 0.0
C295 C 0.81424 0.64595 0.62619 0.0
C296 C 0.78887 0.64342 0.66804 0.0
C297 C 0.67414 0.67812 0.72047 0.0
C298 C 0.68169 0.64376 0.75725 0.0
C299 C 0.64242 0.66192 0.75545 0.0
C300 C 0.65044 0.67863 0.73153 0.0
C301 C 0.65806 0.6445 0.76878 0.0
C302 C 0.68964 0.66042 0.73323 0.0
C303 C 0.68249 0.69607 0.69564 0.0
O304 O 0.73825 0.73874 0.64393 0.0
O305 O 0.71106 0.71263 0.61544 0.0
O306 O 0.67892 0.68452 0.67083 0.0
O307 O 0.70515 0.71168 0.69921 0.0
H308 H 0.70113 0.76308 0.65642 0.0
H309 H 0.67719 0.79958 0.64501 0.0
H310 H 0.69025 0.79623 0.55495 0.0
H311 H 0.71542 0.76051 0.56689 0.0
H312 H 0.79983 0.66683 0.58837 0.0
H313 H 0.76271 0.67695 0.61135 0.0
H314 H 0.82289 0.62654 0.66751 0.0
H315 H 0.78589 0.63675 0.69026 0.0
H316 H 0.69426 0.63075 0.76715 0.0
H317 H 0.62391 0.6626 0.76348 0.0
H318 H 0.63817 0.69202 0.72173 0.0
H319 H 0.70799 0.65972 0.72477 0.0
Co320 Co 0.07416 0.48897 0.54743 0.0
Co321 Co 0.0502 0.47862 0.49723 0.0
Co322 Co 0.0228 0.51964 0.52598 0.0
O323 O 0.0389 0.48637 0.53231 0.0
H324 H 0.02741 0.47093 0.5404 0.0
O325 O 1.00677 0.55298 0.51967 0.0
Co326 Co 0.97126 0.54994 0.50601 0.0
Co327 Co 0.99664 0.56145 0.55511 0.0
H328 H 0.01797 0.56824 0.51087 0.0
O329 O 0.05795 0.44509 0.49054 0.0
O330 O 0.0845 0.48082 0.50943 0.0
O331 O 0.05036 0.5055 0.46581 0.0
O332 O 0.04719 0.53718 0.49567 0.0
O333 O 0.99755 0.50005 0.49623 0.0
O334 O 0.93929 0.54994 0.49223 0.0
O335 O 0.97214 0.58543 0.49387 0.0
O336 O 0.96562 0.51277 0.51584 0.0
O337 O 0.99857 0.50244 0.55656 0.0
O338 O 0.99757 0.53471 0.58661 0.0
O339 O 0.96196 0.55717 0.54452 0.0
O340 O 0.98718 0.59477 0.56123 0.0
C341 C 0.09642 0.4632 0.56789 0.0
C342 C 0.07195 0.54164 0.55366 0.0
C343 C 0.05472 0.53017 0.47228 0.0
C344 C 0.08089 0.45682 0.49903 0.0
C345 C 0.94817 0.57552 0.48649 0.0
C346 C 0.97338 0.49781 0.49872 0.0
C347 C 0.99193 0.51001 0.58017 0.0
C348 C 0.96455 0.58114 0.55447 0.0
O349 O 0.10563 0.48872 0.56245 0.0
O350 O 0.07258 0.45344 0.55979 0.0
O351 O 0.04776 0.53905 0.55566 0.0
O352 O 0.08068 0.5264 0.53763 0.0
Co353 Co 0.55192 0.96695 0.50508 0.0
Co354 Co 0.56145 0.98438 0.55684 0.0
Co355 Co 0.5229 0.0185 0.52473 0.0
O356 O 0.55406 1.00166 0.52178 0.0
H357 H 0.56877 0.01477 0.51596 0.0
O358 O 0.49188 0.03548 0.52801 0.0
Co359 Co 0.49508 0.0699 0.54576 0.0
Co360 Co 0.48383 0.0536 0.49374 0.0
H361 H 0.47719 0.02244 0.53405 0.0
O362 O 0.59378 0.97786 0.56697 0.0
O363 O 0.56164 0.95049 0.54311 0.0
O364 O 0.5361 0.97849 0.58533 0.0
O365 O 0.50627 0.99012 0.55409 0.0
O366 O 0.54244 0.042 0.55532 0.0
O367 O 0.49584 0.10039 0.56321 0.0
O368 O 0.46256 0.06561 0.55814 0.0
O369 O 0.52959 0.07891 0.53643 0.0
O370 O 0.53936 0.04679 0.49508 0.0
O371 O 0.50933 0.06074 0.46554 0.0
O372 O 0.48382 0.08697 0.5089 0.0
O373 O 0.45102 0.0604 0.48545 0.0
C374 C 0.57583 0.94723 0.48439 0.0
C375 C 0.50132 0.96912 0.49615 0.0
C376 C 0.51275 0.97774 0.57739 0.0
C377 C 0.5843 0.95449 0.55644 0.0
C378 C 0.47233 0.08936 0.56819 0.0
C379 C 0.54537 0.06787 0.55245 0.0
C380 C 0.53272 0.0603 0.47258 0.0
C381 C 0.46047 0.08306 0.49745 0.0
O382 O 0.55216 0.93614 0.48849 0.0
O383 O 0.58511 0.97107 0.49455 0.0
O384 O 0.50342 0.99496 0.49417 0.0
O385 O 0.51693 0.95807 0.51246 0.0
Co386 Co 0.49549 0.53066 0.08469 0.0
Co387 Co 0.48312 0.48198 0.06559 0.0
Co388 Co 0.5244 0.51683 0.02567 0.0
O389 O 0.49289 0.51599 0.04729 0.0
H390 H 0.47891 0.52086 0.03522 0.0
O391 O 0.55587 0.51747 1.00406 0.0
Co392 Co 0.55323 0.50235 0.96689 0.0
Co393 Co 0.56637 0.55114 0.98565 0.0
H394 H 0.5698 0.51246 0.0162 0.0
O395 O 0.45008 0.46986 0.07711 0.0
O396 O 0.48325 0.49401 0.10241 0.0
O397 O 0.5073 0.45758 0.06837 0.0
O398 O 0.53894 0.48961 0.05303 0.0
O399 O 0.50427 0.48705 1.0016 0.0
O400 O 0.55338 0.48742 0.9334 0.0
O401 O 0.58551 0.49498 0.96751 0.0
O402 O 0.51902 0.5073 0.96134 0.0
O403 O 0.51004 0.54428 0.99821 0.0
O404 O 0.54243 0.57557 0.98283 0.0
O405 O 0.56501 0.53872 0.94889 0.0
O406 O 0.59939 0.56215 0.97276 0.0
C407 C 0.47225 0.54729 0.10941 0.0
C408 C 0.54624 0.54313 0.07731 0.0
C409 C 0.53106 0.46689 0.06643 0.0
C410 C 0.45995 0.48011 0.1011 0.0
C411 C 0.57662 0.48549 0.94262 0.0
C412 C 0.50221 0.49036 0.97424 0.0
C413 C 0.51857 0.5668 0.98459 0.0
C414 C 0.58853 0.55189 0.94919 0.0
O415 O 0.49546 0.54502 0.11839 0.0
O416 O 0.46333 0.53847 0.08425 0.0
O417 O 0.54442 0.54651 0.04992 0.0
O418 O 0.52967 0.52552 0.08986 0.0
C419 C 0.20022 0.38653 0.4665 0.0
C420 C 0.21042 0.40077 0.44182 0.0
C421 C 0.17961 0.39401 0.47938 0.0
C422 C 0.16881 0.41612 0.4671 0.0
C423 C 0.17917 0.43066 0.44233 0.0
C424 C 0.19996 0.42298 0.4302 0.0
C425 C 0.1693 0.37742 0.50553 0.0
C426 C 0.16796 0.45405 0.42823 0.0
C427 C 0.09995 0.42118 0.47778 0.0
C428 C 0.10313 0.44411 0.4943 0.0
C429 C 0.1212 0.41104 0.46989 0.0
C430 C 0.14618 0.42383 0.47917 0.0
C431 C 0.1494 0.44569 0.49766 0.0
C432 C 0.12786 0.45583 0.50465 0.0
C433 C 0.11699 0.38748 0.45042 0.0
C434 C 0.17554 0.45955 0.50894 0.0
H435 H 0.20796 0.36914 0.47549 0.0
H436 H 0.20804 0.43444 0.41149 0.0
H437 H 0.15593 0.38699 0.51691 0.0
H438 H 0.15901 0.35722 0.49884 0.0
H439 H 0.18537 0.37384 0.52082 0.0
H440 H 0.1774 0.46231 0.40822 0.0
H441 H 0.14714 0.44737 0.42294 0.0
H442 H 0.17004 0.47068 0.44329 0.0
H443 H 0.0809 0.41183 0.46989 0.0
H444 H 0.13057 0.47343 0.51762 0.0
H445 H 0.12574 0.37067 0.46078 0.0
H446 H 0.12657 0.39387 0.43005 0.0
H447 H 0.09633 0.37966 0.44523 0.0
H448 H 0.1897 0.4458 0.51041 0.0
H449 H 0.17449 0.46735 0.53052 0.0
H450 H 0.18264 0.4772 0.49428 0.0
C451 C 0.62046 0.19955 0.42866 0.0
C452 C 0.63743 0.19948 0.40689 0.0
C453 C 0.60446 0.17553 0.43827 0.0
C454 C 0.60542 0.15066 0.42592 0.0
C455 C 0.62259 0.15038 0.40405 0.0
C456 C 0.6383 0.17477 0.39474 0.0
C457 C 0.58634 0.17682 0.46152 0.0
C458 C 0.62443 0.12429 0.39056 0.0
C459 C 0.57778 0.0866 0.47 0.0
C460 C 0.55267 0.08022 0.45766 0.0
C461 C 0.59545 0.10887 0.4593 0.0
C462 C 0.58798 0.12515 0.43555 0.0
C463 C 0.56316 0.11797 0.42208 0.0
C464 C 0.54586 0.09566 0.43326 0.0
C465 C 0.62167 0.11577 0.47442 0.0
C466 C 0.55438 0.13469 0.39671 0.0
H467 H 0.61941 0.21855 0.43796 0.0
H468 H 0.6516 0.17441 0.37822 0.0
H469 H 0.56626 0.16964 0.45343 0.0
H470 H 0.59028 0.16316 0.48019 0.0
H471 H 0.58801 0.1977 0.46903 0.0
H472 H 0.63895 0.1274 0.37405 0.0
H473 H 0.62954 0.10932 0.40737 0.0
H474 H 0.60554 0.1153 0.38038 0.0
H475 H 0.5833 0.07499 0.48892 0.0
H476 H 0.52657 0.09098 0.42348 0.0
H477 H 0.62302 0.13465 0.48607 0.0
H478 H 0.6368 0.11959 0.45864 0.0
H479 H 0.62563 0.09936 0.49017 0.0
H480 H 0.55335 0.15524 0.40352 0.0
H481 H 0.53522 0.12534 0.38737 0.0
H482 H 0.56837 0.13731 0.3797 0.0
C483 C 0.83682 0.65711 0.42958 0.0
C484 C 0.83771 0.66334 0.3999 0.0
C485 C 0.85637 0.64594 0.44498 0.0
C486 C 0.87732 0.64057 0.43045 0.0
C487 C 0.87899 0.64807 0.40082 0.0
C488 C 0.85929 0.65941 0.38597 0.0
C489 C 0.85379 0.63841 0.47651 0.0
C490 C 0.90099 0.64291 0.38442 0.0
C491 C 0.9362 0.6212 0.47255 0.0
C492 C 0.93058 0.59275 0.47221 0.0
C493 C 0.91896 0.63713 0.45944 0.0
C494 C 0.89577 0.62433 0.44531 0.0
C495 C 0.89012 0.59563 0.44495 0.0
C496 C 0.90744 0.58029 0.45848 0.0
C497 C 0.92547 0.66761 0.46086 0.0
C498 C 0.86576 0.58101 0.4301 0.0
H499 H 0.82025 0.6598 0.44063 0.0
H500 H 0.86056 0.66471 0.36321 0.0
H501 H 0.84867 0.61599 0.47954 0.0
H502 H 0.87226 0.64506 0.48881 0.0
H503 H 0.83873 0.64748 0.4856 0.0
H504 H 0.90078 0.65212 0.36219 0.0
H505 H 0.91958 0.65116 0.39573 0.0
H506 H 0.89991 0.6207 0.38327 0.0
H507 H 0.95387 0.63099 0.48337 0.0
H508 H 0.90289 0.55833 0.45801 0.0
H509 H 0.91047 0.6749 0.47206 0.0
H510 H 0.9258 0.67727 0.43886 0.0
H511 H 0.94433 0.67449 0.47235 0.0
H512 H 0.84883 0.58611 0.43969 0.0
H513 H 0.86424 0.55859 0.43169 0.0
H514 H 0.86493 0.58776 0.40705 0.0
C515 C 0.41492 0.83527 0.44235 0.0
C516 C 0.40026 0.83712 0.41642 0.0
C517 C 0.43019 0.85843 0.45413 0.0
C518 C 0.43101 0.8842 0.43964 0.0
C519 C 0.41622 0.88626 0.41351 0.0
C520 C 0.401 0.86275 0.40226 0.0
C521 C 0.44556 0.8553 0.48211 0.0
C522 C 0.41668 0.91327 0.39728 0.0
C523 C 0.45639 0.94573 0.48447 0.0
C524 C 0.48227 0.95128 0.47817 0.0
C525 C 0.43916 0.92453 0.47132 0.0
C526 C 0.44813 0.9087 0.45139 0.0
C527 C 0.4741 0.9152 0.44411 0.0
C528 C 0.49085 0.93628 0.45774 0.0
C529 C 0.41175 0.91814 0.47996 0.0
C530 C 0.48454 0.89906 0.42295 0.0
H531 H 0.41416 0.81568 0.45372 0.0
H532 H 0.38994 0.86438 0.3821 0.0
H533 H 0.46631 0.86203 0.47883 0.0
H534 H 0.44036 0.8684 0.49822 0.0
H535 H 0.44239 0.83399 0.49105 0.0
H536 H 0.40361 0.9116 0.37764 0.0
H537 H 0.41103 0.92796 0.41131 0.0
H538 H 0.43644 0.92176 0.39095 0.0
H539 H 0.44993 0.95701 0.50073 0.0
H540 H 0.51095 0.94054 0.45306 0.0
H541 H 0.40844 0.89849 0.49263 0.0
H542 H 0.39833 0.91596 0.46067 0.0
H543 H 0.4071 0.93406 0.49316 0.0
H544 H 0.48397 0.87795 0.43183 0.0
H545 H 0.50464 0.90797 0.41804 0.0
H546 H 0.47247 0.89792 0.4026 0.0
C547 C 0.17939 0.62504 0.66124 0.0
C548 C 0.20342 0.62404 0.6509 0.0
C549 C 0.15641 0.61375 0.64618 0.0
C550 C 0.15734 0.60101 0.62012 0.0
C551 C 0.1815 0.60054 0.6092 0.0
C552 C 0.20417 0.61205 0.62465 0.0
C553 C 0.13112 0.61489 0.65849 0.0
C554 C 0.18344 0.58708 0.58158 0.0
C555 C 0.10274 0.54489 0.59607 0.0
C556 C 0.0904 0.55807 0.57357 0.0
C557 C 0.12403 0.55884 0.61194 0.0
C558 C 0.13323 0.58674 0.60513 0.0
C559 C 0.12014 0.60038 0.58304 0.0
C560 C 0.09892 0.58581 0.56739 0.0
C561 C 0.13737 0.54334 0.63509 0.0
C562 C 0.12927 0.63005 0.57505 0.0
H563 H 0.17854 0.63459 0.68126 0.0
H564 H 0.22256 0.61085 0.6166 0.0
H565 H 0.11862 0.62397 0.64224 0.0
H566 H 0.12101 0.594 0.66414 0.0
H567 H 0.13357 0.62689 0.67803 0.0
H568 H 0.20354 0.58971 0.57515 0.0
H569 H 0.17558 0.56502 0.58415 0.0
H570 H 0.17182 0.59555 0.56393 0.0
H571 H 0.09625 0.52334 0.60061 0.0
H572 H 0.08968 0.59581 0.54954 0.0
H573 H 0.13928 0.55382 0.65557 0.0
H574 H 0.15702 0.54263 0.62889 0.0
H575 H 0.12697 0.52217 0.63883 0.0
H576 H 0.13178 0.64216 0.59446 0.0
H577 H 0.11575 0.63824 0.55925 0.0
H578 H 0.14825 0.63278 0.56559 0.0
C579 C 0.41145 0.20775 0.62244 0.0
C580 C 0.39781 0.20206 0.64749 0.0
C581 C 0.42142 0.18755 0.60975 0.0
C582 C 0.4178 0.16075 0.62241 0.0
C583 C 0.40365 0.15474 0.64742 0.0
C584 C 0.39367 0.17535 0.65949 0.0
C585 C 0.43691 0.19581 0.58361 0.0
C586 C 0.39999 0.12681 0.6622 0.0
C587 C 0.43073 0.103 0.57868 0.0
C588 C 0.45719 0.10483 0.58428 0.0
C589 C 0.41728 0.12044 0.5915 0.0
C590 C 0.4306 0.1398 0.61083 0.0
C591 C 0.45702 0.14036 0.61784 0.0
C592 C 0.47001 0.12326 0.60418 0.0
C593 C 0.3889 0.11778 0.58407 0.0
C594 C 0.47184 0.15945 0.63939 0.0
H595 H 0.41461 0.22822 0.61277 0.0
H596 H 0.38347 0.17077 0.67904 0.0
H597 H 0.45615 0.20706 0.59055 0.0
H598 H 0.43951 0.17835 0.57144 0.0
H599 H 0.42773 0.20989 0.56893 0.0
H600 H 0.39034 0.12595 0.6827 0.0
H601 H 0.38822 0.1119 0.64788 0.0
H602 H 0.41883 0.12046 0.66672 0.0
H603 H 0.4207 0.0887 0.56341 0.0
H604 H 0.49043 0.1245 0.60895 0.0
H605 H 0.38168 0.13669 0.58713 0.0
H606 H 0.37841 0.10131 0.59806 0.0
H607 H 0.38422 0.11188 0.56152 0.0
H608 H 0.4752 0.18046 0.62973 0.0
H609 H 0.49075 0.15406 0.64619 0.0
H610 H 0.46074 0.15928 0.65874 0.0
C611 C 0.87503 0.4115 0.65838 0.0
C612 C 0.85305 0.41171 0.64002 0.0
C613 C 0.89902 0.42672 0.65122 0.0
C614 C 0.90114 0.44269 0.62512 0.0
C615 C 0.87898 0.44322 0.60663 0.0
C616 C 0.85528 0.42774 0.61427 0.0
C617 C 0.92218 0.42546 0.67142 0.0
C618 C 0.88031 0.46015 0.57871 0.0
C619 C 0.95655 0.50201 0.61446 0.0
C620 C 0.97165 0.49146 0.596 0.0
C621 C 0.934 0.48613 0.62482 0.0
C622 C 0.92647 0.45885 0.61694 0.0
C623 C 0.94237 0.44762 0.59968 0.0
C624 C 0.96467 0.46405 0.58933 0.0
C625 C 0.91752 0.49902 0.64295 0.0
C626 C 0.93515 0.4186 0.59088 0.0
H627 H 0.87359 0.39894 0.67813 0.0
H628 H 0.83838 0.42835 0.60012 0.0
H629 H 0.93682 0.41751 0.66029 0.0
H630 H 0.93103 0.44615 0.678 0.0
H631 H 0.91732 0.41231 0.69102 0.0
H632 H 0.86132 0.45851 0.56682 0.0
H633 H 0.88768 0.48182 0.58296 0.0
H634 H 0.89388 0.45365 0.56472 0.0
H635 H 0.96152 0.52319 0.6196 0.0
H636 H 0.97611 0.45567 0.57505 0.0
H637 H 0.9139 0.48684 0.66338 0.0
H638 H 0.89862 0.49931 0.63147 0.0
H639 H 0.92645 0.52017 0.648 0.0
H640 H 0.93053 0.40467 0.60995 0.0
H641 H 0.9507 0.41214 0.5798 0.0
H642 H 0.91771 0.41638 0.57615 0.0
C643 C 0.67418 0.84317 0.57088 0.0
C644 C 0.66652 0.82276 0.59207 0.0
C645 C 0.66029 0.86413 0.56445 0.0
C646 C 0.63858 0.86515 0.58003 0.0
C647 C 0.63069 0.84466 0.60141 0.0
C648 C 0.64457 0.82355 0.60695 0.0
C649 C 0.66897 0.88532 0.54109 0.0
C650 C 0.6078 0.84522 0.61871 0.0
C651 C 0.61962 0.93418 0.58173 0.0
C652 C 0.59837 0.93174 0.56193 0.0
C653 C 0.63254 0.91246 0.58822 0.0
C654 C 0.62439 0.88791 0.57411 0.0
C655 C 0.60306 0.88537 0.55398 0.0
C656 C 0.59015 0.90723 0.54835 0.0
C657 C 0.65474 0.9157 0.61042 0.0
C658 C 0.5935 0.85945 0.53872 0.0
H659 H 0.69129 0.84305 0.55954 0.0
H660 H 0.63815 0.80761 0.62296 0.0
H661 H 0.65231 0.88891 0.52679 0.0
H662 H 0.67754 0.9048 0.55083 0.0
H663 H 0.68344 0.8793 0.52791 0.0
H664 H 0.60463 0.82817 0.63516 0.0
H665 H 0.61051 0.86465 0.62966 0.0
H666 H 0.59027 0.8441 0.60428 0.0
H667 H 0.62594 0.95294 0.59261 0.0
H668 H 0.57359 0.90504 0.53327 0.0
H669 H 0.67265 0.9142 0.60024 0.0
H670 H 0.65148 0.89911 0.62734 0.0
H671 H 0.65762 0.93548 0.62078 0.0
H672 H 0.60972 0.85066 0.53212 0.0
H673 H 0.58077 0.86271 0.5195 0.0
H674 H 0.58238 0.84428 0.55354 0.0
C675 C 0.38897 0.20213 0.44417 0.0
C676 C 0.37555 0.21241 0.46454 0.0
C677 C 0.40267 0.18118 0.45174 0.0
C678 C 0.40283 0.17004 0.48033 0.0
C679 C 0.38926 0.18027 0.50096 0.0
C680 C 0.37585 0.20133 0.49284 0.0
C681 C 0.41677 0.17076 0.42902 0.0
C682 C 0.38792 0.16855 0.53141 0.0
C683 C 0.41891 0.09936 0.48833 0.0
C684 C 0.44521 0.10499 0.49623 0.0
C685 C 0.40458 0.12023 0.48446 0.0
C686 C 0.41692 0.14742 0.48818 0.0
C687 C 0.44314 0.15307 0.49768 0.0
C688 C 0.45698 0.13176 0.5017 0.0
C689 C 0.37638 0.11328 0.47563 0.0
C690 C 0.45674 0.18176 0.50266 0.0
H691 H 0.38848 0.2102 0.42213 0.0
H692 H 0.36571 0.20923 0.50883 0.0
H693 H 0.43738 0.1726 0.4359 0.0
H694 H 0.40898 0.1489 0.42623 0.0
H695 H 0.41516 0.18195 0.40791 0.0
H696 H 0.37088 0.15204 0.53261 0.0
H697 H 0.40512 0.15993 0.53861 0.0
H698 H 0.38559 0.18407 0.54651 0.0
H699 H 0.40953 0.07864 0.48469 0.0
H700 H 0.47723 0.13624 0.50819 0.0
H701 H 0.37272 0.12278 0.45405 0.0
H702 H 0.36506 0.1216 0.49087 0.0
H703 H 0.36938 0.09102 0.47496 0.0
H704 H 0.45781 0.19383 0.48192 0.0
H705 H 0.47652 0.18254 0.51234 0.0
H706 H 0.44578 0.19156 0.51703 0.0
C707 C 0.86328 0.43848 0.38392 0.0
C708 C 0.84774 0.41402 0.3931 0.0
C709 C 0.88594 0.44951 0.39963 0.0
C710 C 0.8936 0.43567 0.42511 0.0
C711 C 0.87891 0.41013 0.43354 0.0
C712 C 0.85615 0.39968 0.41755 0.0
C713 C 0.90081 0.47685 0.38986 0.0
C714 C 0.88645 0.39455 0.4604 0.0
C715 C 0.95996 0.46354 0.46011 0.0
C716 C 0.95362 0.48011 0.48064 0.0
C717 C 0.94065 0.44819 0.44237 0.0
C718 C 0.91451 0.44981 0.44494 0.0
C719 C 0.90811 0.46613 0.46598 0.0
C720 C 0.92757 0.48071 0.48361 0.0
C721 C 0.94821 0.43056 0.42061 0.0
C722 C 0.88064 0.46887 0.46943 0.0
H723 H 0.85742 0.44944 0.36468 0.0
H724 H 0.84437 0.38083 0.42499 0.0
H725 H 0.89883 0.49223 0.40525 0.0
H726 H 0.92152 0.47618 0.38953 0.0
H727 H 0.89395 0.48365 0.36814 0.0
H728 H 0.87549 0.37339 0.46166 0.0
H729 H 0.90724 0.39396 0.46132 0.0
H730 H 0.88275 0.40492 0.47957 0.0
H731 H 0.97994 0.46275 0.45772 0.0
H732 H 0.92219 0.49315 0.49951 0.0
H733 H 0.94345 0.43841 0.3986 0.0
H734 H 0.93718 0.40956 0.42315 0.0
H735 H 0.96902 0.42989 0.42265 0.0
H736 H 0.87263 0.47751 0.44916 0.0
H737 H 0.87885 0.48215 0.48708 0.0
H738 H 0.8687 0.44861 0.47392 0.0
C739 C 0.66004 0.86385 0.39639 0.0
C740 C 0.65894 0.83819 0.4106 0.0
C741 C 0.64719 0.88334 0.40643 0.0
C742 C 0.63302 0.87721 0.43144 0.0
C743 C 0.63144 0.85109 0.44543 0.0
C744 C 0.64435 0.83207 0.43489 0.0
C745 C 0.64855 0.9104 0.39008 0.0
C746 C 0.61633 0.84249 0.47171 0.0
C747 C 0.61796 0.9337 0.47542 0.0
C748 C 0.5916 0.93187 0.46886 0.0
C749 C 0.63193 0.91659 0.4628 0.0
C750 C 0.61937 0.89769 0.44264 0.0
C751 C 0.593 0.89673 0.4351 0.0
C752 C 0.57945 0.91354 0.44847 0.0
C753 C 0.66001 0.91833 0.4715 0.0
C754 C 0.57876 0.87705 0.41379 0.0
H755 H 0.67128 0.86889 0.37764 0.0
H756 H 0.64277 0.81216 0.44575 0.0
H757 H 0.6289 0.91394 0.38382 0.0
H758 H 0.65785 0.92699 0.40399 0.0
H759 H 0.65946 0.91166 0.37041 0.0
H760 H 0.62961 0.83779 0.48989 0.0
H761 H 0.60576 0.85791 0.47824 0.0
H762 H 0.60235 0.82349 0.46771 0.0
H763 H 0.62742 0.94767 0.49128 0.0
H764 H 0.55908 0.91209 0.44316 0.0
H765 H 0.67168 0.92764 0.45343 0.0
H766 H 0.66447 0.89775 0.47641 0.0
H767 H 0.66595 0.9308 0.49049 0.0
H768 H 0.58962 0.87809 0.39413 0.0
H769 H 0.55924 0.88109 0.40755 0.0
H770 H 0.5769 0.85604 0.4234 0.0
C771 C 0.18969 0.60335 0.42159 0.0
C772 C 0.19006 0.62305 0.39888 0.0
C773 C 0.16652 0.5904 0.43319 0.0
C774 C 0.14305 0.5973 0.42189 0.0
C775 C 0.14334 0.61775 0.39958 0.0
C776 C 0.16679 0.63032 0.38832 0.0
C777 C 0.16712 0.5687 0.45696 0.0
C778 C 0.1188 0.62591 0.38715 0.0
C779 C 0.08416 0.54197 0.43166 0.0
C780 C 0.07419 0.54972 0.45632 0.0
C781 C 0.10596 0.55781 0.41964 0.0
C782 C 0.1182 0.58208 0.43251 0.0
C783 C 0.10749 0.59077 0.45649 0.0
C784 C 0.0856 0.57457 0.46804 0.0
C785 C 0.11667 0.54781 0.39401 0.0
C786 C 0.11991 0.61645 0.47092 0.0
H787 H 0.20748 0.59735 0.4297 0.0
H788 H 0.1669 0.64578 0.37106 0.0
H789 H 0.15702 0.57333 0.47556 0.0
H790 H 0.1569 0.54882 0.44932 0.0
H791 H 0.187 0.5667 0.46441 0.0
H792 H 0.12238 0.64321 0.37102 0.0
H793 H 0.10649 0.60842 0.3767 0.0
H794 H 0.10789 0.63166 0.40451 0.0
H795 H 0.07556 0.52288 0.42238 0.0
H796 H 0.07825 0.58077 0.48717 0.0
H797 H 0.13568 0.54248 0.40029 0.0
H798 H 0.11958 0.56405 0.37671 0.0
H799 H 0.10393 0.52964 0.38525 0.0
H800 H 0.13878 0.6139 0.4812 0.0
H801 H 0.10799 0.62169 0.48766 0.0
H802 H 0.12346 0.63373 0.45483 0.0
C803 C 0.43151 0.83764 0.63221 0.0
C804 C 0.41098 0.83892 0.64918 0.0
C805 C 0.44719 0.86139 0.62137 0.0
C806 C 0.44238 0.88719 0.62769 0.0
C807 C 0.42181 0.88864 0.64496 0.0
C808 C 0.40637 0.86456 0.65543 0.0
C809 C 0.46879 0.85885 0.60288 0.0
C810 C 0.4161 0.91568 0.65236 0.0
C811 C 0.49862 0.94623 0.6196 0.0
C812 C 0.49298 0.95758 0.59225 0.0
C813 C 0.48184 0.92402 0.63185 0.0
C814 C 0.45899 0.91255 0.61626 0.0
C815 C 0.45275 0.92452 0.58908 0.0
C816 C 0.46967 0.94699 0.57754 0.0
C817 C 0.48912 0.91214 0.66102 0.0
C818 C 0.4288 0.91281 0.5715 0.0
H819 H 0.43503 0.818 0.62687 0.0
H820 H 0.39075 0.86581 0.66878 0.0
H821 H 0.46604 0.86897 0.58141 0.0
H822 H 0.48734 0.86926 0.61268 0.0
H823 H 0.47006 0.83735 0.59998 0.0
H824 H 0.3995 0.9134 0.66614 0.0
H825 H 0.43312 0.9276 0.66373 0.0
H826 H 0.41194 0.92762 0.63241 0.0
H827 H 0.51654 0.95422 0.63115 0.0
H828 H 0.46521 0.95534 0.55627 0.0
H829 H 0.49301 0.89142 0.65886 0.0
H830 H 0.47302 0.91025 0.67541 0.0
H831 H 0.50641 0.92466 0.67135 0.0
H832 H 0.43019 0.89224 0.56507 0.0
H833 H 0.42576 0.92558 0.55175 0.0
H834 H 0.41172 0.9106 0.58447 0.0
C835 C 0.21378 0.38799 0.60635 0.0
C836 C 0.2131 0.37291 0.6327 0.0
C837 C 0.19363 0.40134 0.59646 0.0
C838 C 0.17214 0.39977 0.61331 0.0
C839 C 0.17127 0.38455 0.63992 0.0
C840 C 0.19173 0.37134 0.64929 0.0
C841 C 0.19579 0.41778 0.56829 0.0
C842 C 0.14885 0.38249 0.65864 0.0
C843 C 0.13496 0.45752 0.59933 0.0
C844 C 0.11392 0.44576 0.58167 0.0
C845 C 0.15347 0.44252 0.61055 0.0
C846 C 0.15124 0.41509 0.60357 0.0
C847 C 0.12982 0.40294 0.58602 0.0
C848 C 0.11123 0.41835 0.57553 0.0
C849 C 0.17581 0.45633 0.62925 0.0
C850 C 0.12695 0.37392 0.57765 0.0
H851 H 0.23036 0.3898 0.59357 0.0
H852 H 0.19086 0.35954 0.66954 0.0
H853 H 0.17717 0.4148 0.55566 0.0
H854 H 0.20114 0.43967 0.57259 0.0
H855 H 0.21058 0.41245 0.55507 0.0
H856 H 0.15087 0.36961 0.67855 0.0
H857 H 0.14704 0.40305 0.66473 0.0
H858 H 0.13079 0.37387 0.64655 0.0
H859 H 0.13714 0.47871 0.6042 0.0
H860 H 0.09521 0.40928 0.56157 0.0
H861 H 0.19384 0.45791 0.61808 0.0
H862 H 0.17779 0.4441 0.6496 0.0
H863 H 0.17368 0.47706 0.63449 0.0
H864 H 0.14459 0.37083 0.56789 0.0
H865 H 0.11031 0.36807 0.56219 0.0
H866 H 0.12442 0.36009 0.59711 0.0
C867 C 0.64178 0.1747 0.64947 0.0
C868 C 0.63851 0.2007 0.63884 0.0
C869 C 0.62884 0.15116 0.63614 0.0
C870 C 0.61208 0.15358 0.61166 0.0
C871 C 0.60918 0.17977 0.60041 0.0
C872 C 0.62243 0.20295 0.61407 0.0
C873 C 0.6327 0.12368 0.64863 0.0
C874 C 0.59142 0.18333 0.57443 0.0
C875 C 0.58895 0.09547 0.56162 0.0
C876 C 0.5642 0.08566 0.57068 0.0
C877 C 0.60525 0.11687 0.57549 0.0
C878 C 0.59637 0.12883 0.59873 0.0
C879 C 0.57161 0.1182 0.60848 0.0
C880 C 0.55583 0.09679 0.59427 0.0
C881 C 0.6314 0.12758 0.56429 0.0
C882 C 0.56123 0.13036 0.63296 0.0
H883 H 0.65442 0.17273 0.66834 0.0
H884 H 0.6195 0.22287 0.60586 0.0
H885 H 0.61437 0.11216 0.65656 0.0
H886 H 0.63848 0.11175 0.63177 0.0
H887 H 0.64751 0.12524 0.66669 0.0
H888 H 0.5922 0.20503 0.56752 0.0
H889 H 0.59643 0.17252 0.5562 0.0
H890 H 0.57139 0.17425 0.57935 0.0
H891 H 0.59512 0.08724 0.5429 0.0
H892 H 0.53647 0.08945 0.60087 0.0
H893 H 0.64626 0.12991 0.58224 0.0
H894 H 0.63163 0.14796 0.55357 0.0
H895 H 0.63662 0.11407 0.54856 0.0
H896 H 0.57482 0.1311 0.65209 0.0
H897 H 0.54226 0.11872 0.63904 0.0
H898 H 0.55912 0.15155 0.62673 0.0
C899 C 0.86058 0.64263 0.62698 0.0
C900 C 0.83637 0.63913 0.61242 0.0
C901 C 0.88127 0.63427 0.6153 0.0
C902 C 0.87764 0.62219 0.58838 0.0
C903 C 0.85343 0.61932 0.57317 0.0
C904 C 0.83306 0.62784 0.5854 0.0
C905 C 0.90676 0.63749 0.63227 0.0
C906 C 0.84853 0.60605 0.54472 0.0
C907 C 0.93918 0.61818 0.55348 0.0
C908 C 0.94162 0.59136 0.56102 0.0
C909 C 0.9176 0.62811 0.56082 0.0
C910 C 0.89886 0.61111 0.57719 0.0
C911 C 0.90114 0.58381 0.58433 0.0
C912 C 0.92234 0.57413 0.57569 0.0
C913 C 0.91497 0.6568 0.55137 0.0
C914 C 0.88171 0.56511 0.60197 0.0
H915 H 0.86326 0.65165 0.64773 0.0
H916 H 0.81427 0.62476 0.57424 0.0
H917 H 0.91184 0.61723 0.63756 0.0
H918 H 0.92208 0.64937 0.61921 0.0
H919 H 0.90654 0.64784 0.65259 0.0
H920 H 0.83212 0.6126 0.53209 0.0
H921 H 0.86571 0.6106 0.53177 0.0
H922 H 0.8437 0.5837 0.54861 0.0
H923 H 0.95403 0.63125 0.54169 0.0
H924 H 0.9244 0.55335 0.58146 0.0
H925 H 0.9167 0.66933 0.57041 0.0
H926 H 0.89573 0.65696 0.54065 0.0
H927 H 0.92979 0.66636 0.53633 0.0
H928 H 0.8813 0.57343 0.62337 0.0
H929 H 0.88606 0.54428 0.60511 0.0
H930 H 0.86226 0.56376 0.59139 0.0
C931 C 0.42127 0.40535 0.24607 0.0
C932 C 0.39877 0.40919 0.25802 0.0
C933 C 0.43015 0.42022 0.22124 0.0
C934 C 0.41646 0.43979 0.2082 0.0
C935 C 0.39445 0.4448 0.22087 0.0
C936 C 0.38573 0.42927 0.24555 0.0
C937 C 0.45377 0.4143 0.20843 0.0
C938 C 0.37969 0.46592 0.20787 0.0
C939 C 0.45487 0.4859 0.15316 0.0
C940 C 0.44616 0.47269 0.12777 0.0
C941 C 0.44387 0.4768 0.17931 0.0
C942 C 0.42436 0.45336 0.18021 0.0
C943 C 0.41463 0.44079 0.15442 0.0
C944 C 0.42545 0.45082 0.12845 0.0
C945 C 0.45413 0.49139 0.20617 0.0
C946 C 0.39401 0.41557 0.15448 0.0
H947 H 0.43186 0.39043 0.256 0.0
H948 H 0.36829 0.43234 0.25455 0.0
H949 H 0.4487 0.40669 0.18659 0.0
H950 H 0.46832 0.43318 0.20622 0.0
H951 H 0.46258 0.39894 0.22165 0.0
H952 H 0.36488 0.46958 0.22211 0.0
H953 H 0.39291 0.48543 0.2034 0.0
H954 H 0.37006 0.45916 0.18707 0.0
H955 H 0.47081 0.50285 0.15285 0.0
H956 H 0.41856 0.44051 0.10894 0.0
H957 H 0.46627 0.4791 0.21944 0.0
H958 H 0.4382 0.49399 0.2193 0.0
H959 H 0.46589 0.51169 0.20116 0.0
H960 H 0.40172 0.39844 0.16573 0.0
H961 H 0.38702 0.40965 0.13241 0.0
H962 H 0.37748 0.41873 0.16631 0.0
C963 C 0.42857 0.64945 0.88193 0.0
C964 C 0.41899 0.63443 0.85785 0.0
C965 C 0.44285 0.63852 0.90464 0.0
C966 C 0.44795 0.61193 0.90333 0.0
C967 C 0.43763 0.59629 0.8796 0.0
C968 C 0.42328 0.60768 0.85723 0.0
C969 C 0.45333 0.65588 0.92956 0.0
C970 C 0.44258 0.56786 0.87726 0.0
C971 C 0.5095 0.59665 0.9417 0.0
C972 C 0.50046 0.58039 0.9658 0.0
C973 C 0.49262 0.60692 0.92138 0.0
C974 C 0.46594 0.60145 0.92539 0.0
C975 C 0.4567 0.58578 0.95012 0.0
C976 C 0.47402 0.57514 0.96981 0.0
C977 C 0.50336 0.623 0.8951 0.0
C978 C 0.42848 0.57991 0.95551 0.0
H979 H 0.42574 0.67022 0.88261 0.0
H980 H 0.41566 0.59568 0.83904 0.0
H981 H 0.44875 0.64446 0.95023 0.0
H982 H 0.47453 0.66123 0.9292 0.0
H983 H 0.44555 0.67498 0.92888 0.0
H984 H 0.43179 0.55767 0.85853 0.0
H985 H 0.46336 0.56859 0.87508 0.0
H986 H 0.4372 0.5553 0.89705 0.0
H987 H 0.5298 0.60051 0.93801 0.0
H988 H 0.46681 0.56249 0.98824 0.0
H989 H 0.49813 0.64344 0.89381 0.0
H990 H 0.4949 0.61267 0.87543 0.0
H991 H 0.52457 0.62549 0.89513 0.0
H992 H 0.421 0.59915 0.95494 0.0
H993 H 0.42452 0.56887 0.97656 0.0
H994 H 0.41773 0.56747 0.93829 0.0
C995 C 0.38856 0.40962 0.87192 0.0
C996 C 0.39973 0.39737 0.85095 0.0
C997 C 0.40351 0.42298 0.89461 0.0
C998 C 0.43037 0.42407 0.89664 0.0
C999 C 0.44163 0.41066 0.87638 0.0
C1000 C 0.42622 0.39754 0.8538 0.0
C1001 C 0.39068 0.43694 0.91569 0.0
C1002 C 0.47018 0.41121 0.87777 0.0
C1003 C 0.4741 0.48473 0.92941 0.0
C1004 C 0.4814 0.47401 0.95649 0.0
C1005 C 0.45696 0.46893 0.91024 0.0
C1006 C 0.44699 0.44146 0.91806 0.0
C1007 C 0.45359 0.43071 0.94577 0.0
C1008 C 0.4706 0.44719 0.96478 0.0
C1009 C 0.45015 0.48152 0.88123 0.0
C1010 C 0.44346 0.40152 0.9549 0.0
H1011 H 0.36806 0.40916 0.87034 0.0
H1012 H 0.43515 0.38835 0.83772 0.0
H1013 H 0.3964 0.43091 0.93806 0.0
H1014 H 0.397 0.45926 0.91289 0.0
H1015 H 0.36943 0.43218 0.91278 0.0
H1016 H 0.47563 0.39767 0.86224 0.0
H1017 H 0.48041 0.43224 0.87296 0.0
H1018 H 0.47687 0.40497 0.89972 0.0
H1019 H 0.4822 0.50553 0.92295 0.0
H1020 H 0.47631 0.43874 0.98559 0.0
H1021 H 0.42901 0.47877 0.87751 0.0
H1022 H 0.45745 0.47118 0.86406 0.0
H1023 H 0.45831 0.50357 0.87915 0.0
H1024 H 0.42227 0.39688 0.9516 0.0
H1025 H 0.4488 0.3968 0.97779 0.0
H1026 H 0.45126 0.3879 0.9414 0.0
C1027 C 0.65883 0.40495 0.85115 0.0
C1028 C 0.66312 0.41825 0.8241 0.0
C1029 C 0.64605 0.41581 0.87183 0.0
C1030 C 0.63746 0.4407 0.86546 0.0
C1031 C 0.6422 0.45449 0.83843 0.0
C1032 C 0.65485 0.44308 0.81809 0.0
C1033 C 0.64122 0.40033 0.90027 0.0
C1034 C 0.63355 0.48114 0.8308 0.0
C1035 C 0.5807 0.45541 0.90325 0.0
C1036 C 0.59263 0.47328 0.92414 0.0
C1037 C 0.59509 0.4443 0.88452 0.0
C1038 C 0.62218 0.45153 0.8863 0.0
C1039 C 0.6344 0.46952 0.90741 0.0
C1040 C 0.61948 0.48002 0.92627 0.0
C1041 C 0.58122 0.42501 0.8626 0.0
C1042 C 0.66319 0.47814 0.90966 0.0
H1043 H 0.66496 0.38567 0.85593 0.0
H1044 H 0.65845 0.45376 0.79747 0.0
H1045 H 0.64895 0.41355 0.9182 0.0
H1046 H 0.62026 0.3941 0.90257 0.0
H1047 H 0.65006 0.38189 0.90242 0.0
H1048 H 0.64072 0.49055 0.81004 0.0
H1049 H 0.61229 0.47787 0.82929 0.0
H1050 H 0.64028 0.49562 0.84791 0.0
H1051 H 0.55995 0.45001 0.90155 0.0
H1052 H 0.62879 0.49406 0.94214 0.0
H1053 H 0.58839 0.40556 0.86488 0.0
H1054 H 0.58511 0.4338 0.84061 0.0
H1055 H 0.56014 0.42063 0.86475 0.0
H1056 H 0.66981 0.49158 0.92775 0.0
H1057 H 0.66982 0.48912 0.88939 0.0
H1058 H 0.67243 0.46003 0.91262 0.0
C1059 C 0.65354 0.6007 0.79876 0.0
C1060 C 0.64995 0.62774 0.79501 0.0
C1061 C 0.64551 0.58474 0.82341 0.0
C1062 C 0.63345 0.59606 0.84459 0.0
C1063 C 0.63005 0.6234 0.84105 0.0
C1064 C 0.63846 0.63891 0.81641 0.0
C1065 C 0.64945 0.55568 0.8265 0.0
C1066 C 0.61727 0.63625 0.86317 0.0
C1067 C 0.58713 0.55508 0.89566 0.0
C1068 C 0.60146 0.55841 0.92193 0.0
C1069 C 0.59788 0.56567 0.86983 0.0
C1070 C 0.62367 0.57949 0.87031 0.0
C1071 C 0.63889 0.58064 0.8964 0.0
C1072 C 0.62753 0.57026 0.922 0.0
C1073 C 0.58099 0.56403 0.84247 0.0
C1074 C 0.66669 0.59448 0.89759 0.0
H1075 H 0.6622 0.59186 0.78218 0.0
H1076 H 0.63612 0.65994 0.81395 0.0
H1077 H 0.6583 0.55136 0.84805 0.0
H1078 H 0.6306 0.54184 0.82451 0.0
H1079 H 0.66173 0.55091 0.80989 0.0
H1080 H 0.61607 0.65775 0.85711 0.0
H1081 H 0.59756 0.62469 0.86595 0.0
H1082 H 0.62806 0.63553 0.88427 0.0
H1083 H 0.56703 0.54566 0.89539 0.0
H1084 H 0.63883 0.5724 0.94219 0.0
H1085 H 0.59092 0.55753 0.8247 0.0
H1086 H 0.57675 0.58445 0.83607 0.0
H1087 H 0.56253 0.5497 0.84501 0.0
H1088 H 0.67683 0.58807 0.87993 0.0
H1089 H 0.6768 0.58999 0.9184 0.0
H1090 H 0.6679 0.61678 0.89473 0.0
C1091 C 0.6488 0.6355 0.18403 0.0
C1092 C 0.63476 0.65118 0.19833 0.0
C1093 C 0.63705 0.61838 0.16221 0.0
C1094 C 0.61058 0.61674 0.15456 0.0
C1095 C 0.59642 0.63281 0.16863 0.0
C1096 C 0.60864 0.64977 0.19025 0.0
C1097 C 0.65285 0.60165 0.14773 0.0
C1098 C 0.56811 0.63152 0.16144 0.0
C1099 C 0.57816 0.58651 0.08525 0.0
C1100 C 0.56567 0.56091 0.09551 0.0
C1101 C 0.59379 0.60458 0.10395 0.0
C1102 C 0.59705 0.59681 0.1335 0.0
C1103 C 0.58556 0.57043 0.14351 0.0
C1104 C 0.57008 0.5529 0.12447 0.0
C1105 C 0.60584 0.63244 0.09236 0.0
C1106 C 0.58858 0.56108 0.1747 0.0
H1107 H 0.66903 0.63665 0.18984 0.0
H1108 H 0.59747 0.66142 0.2014 0.0
H1109 H 0.64566 0.57974 0.15261 0.0
H1110 H 0.65093 0.60515 0.12407 0.0
H1111 H 0.6735 0.60645 0.1548 0.0
H1112 H 0.56014 0.64635 0.1732 0.0
H1113 H 0.56459 0.63558 0.13804 0.0
H1114 H 0.55747 0.61082 0.16694 0.0
H1115 H 0.57489 0.59287 0.06294 0.0
H1116 H 0.56081 0.53301 0.13257 0.0
H1117 H 0.62653 0.63701 0.09916 0.0
H1118 H 0.59663 0.64796 0.10131 0.0
H1119 H 0.60376 0.63441 0.06855 0.0
H1120 H 0.60914 0.56444 0.18206 0.0
H1121 H 0.58023 0.53924 0.17855 0.0
H1122 H 0.57891 0.57318 0.18811 0.0
C1123 C 0.41162 0.64309 0.20332 0.0
C1124 C 0.39383 0.62965 0.22276 0.0
C1125 C 0.42226 0.62872 0.18378 0.0
C1126 C 0.4151 0.60008 0.18358 0.0
C1127 C 0.39677 0.58637 0.20269 0.0
C1128 C 0.38636 0.60129 0.22201 0.0
C1129 C 0.4419 0.64416 0.16399 0.0
C1130 C 0.38861 0.55586 0.20318 0.0
C1131 C 0.43297 0.56641 0.11846 0.0
C1132 C 0.45636 0.55918 0.12846 0.0
C1133 C 0.4189 0.5791 0.13635 0.0
C1134 C 0.42836 0.5845 0.16493 0.0
C1135 C 0.4515 0.57635 0.17536 0.0
C1136 C 0.46518 0.56393 0.15704 0.0
C1137 C 0.39427 0.58739 0.12445 0.0
C1138 C 0.46223 0.5814 0.20572 0.0
H1139 H 0.4179 0.66488 0.20394 0.0
H1140 H 0.37241 0.5907 0.23664 0.0
H1141 H 0.46077 0.63821 0.16949 0.0
H1142 H 0.43634 0.63899 0.14141 0.0
H1143 H 0.44417 0.66651 0.16545 0.0
H1144 H 0.3731 0.54839 0.21809 0.0
H1145 H 0.38184 0.54923 0.18132 0.0
H1146 H 0.40526 0.54608 0.20992 0.0
H1147 H 0.42594 0.56273 0.09647 0.0
H1148 H 0.48306 0.55814 0.16519 0.0
H1149 H 0.39654 0.60985 0.12363 0.0
H1150 H 0.3785 0.57917 0.13875 0.0
H1151 H 0.38863 0.58021 0.10251 0.0
H1152 H 0.46707 0.60357 0.20873 0.0
H1153 H 0.47974 0.57258 0.21096 0.0
H1154 H 0.44766 0.57256 0.22127 0.0
C1155 C 0.6097 0.41975 0.20333 0.0
C1156 C 0.6257 0.40111 0.19936 0.0
C1157 C 0.59621 0.43073 0.17998 0.0
C1158 C 0.59874 0.42303 0.15177 0.0
C1159 C 0.61558 0.40503 0.14745 0.0
C1160 C 0.6288 0.39427 0.17124 0.0
C1161 C 0.57866 0.45003 0.18562 0.0
C1162 C 0.61902 0.39646 0.11776 0.0
C1163 C 0.5417 0.42849 0.09931 0.0
C1164 C 0.54975 0.45365 0.08476 0.0
C1165 C 0.5578 0.41786 0.12034 0.0
C1166 C 0.58267 0.43272 0.12717 0.0
C1167 C 0.59138 0.45754 0.11169 0.0
C1168 C 0.57489 0.46768 0.09066 0.0
C1169 C 0.54773 0.39126 0.13619 0.0
C1170 C 0.61769 0.4741 0.11826 0.0
H1171 H 0.60751 0.42562 0.22484 0.0
H1172 H 0.64089 0.37974 0.16785 0.0
H1173 H 0.58367 0.46921 0.17243 0.0
H1174 H 0.55855 0.4409 0.17928 0.0
H1175 H 0.57967 0.45496 0.20859 0.0
H1176 H 0.63421 0.38399 0.1177 0.0
H1177 H 0.60072 0.38444 0.1091 0.0
H1178 H 0.62401 0.41457 0.10297 0.0
H1179 H 0.52236 0.41742 0.09498 0.0
H1180 H 0.58135 0.4872 0.0798 0.0
H1181 H 0.54586 0.39486 0.15909 0.0
H1182 H 0.56139 0.37714 0.13557 0.0
H1183 H 0.52872 0.38128 0.12703 0.0
H1184 H 0.61845 0.48231 0.13989 0.0
H1185 H 0.62262 0.49139 0.10237 0.0
H1186 H 0.6325 0.46116 0.11861 0.0
loop_
_geom_bond_atom_site_label_1
_geom_bond_atom_site_label_2
_geom_bond_distance
_geom_bond_site_symmetry_2
_ccdc_geom_bond_type
C0 C1 1.264 . S
C0 C5 1.479 . S
C0 C10 1.465 . S
C1 C0 1.264 . S
C1 C3 1.339 . S
C1 H28 0.931 . S
C2 C3 1.395 . S
C2 C4 1.320 . S
C3 C1 1.339 . S
C3 C2 1.395 . S
C3 H29 0.929 . S
C4 C2 1.320 . S
C4 C5 1.405 . S
C4 H30 0.930 . S
C5 C0 1.479 . S
C5 C4 1.405 . S
C5 H31 0.931 . S
U6 O7 2.454 . S
U6 O8 2.458 . S
U6 C9 2.984 . S
U6 C10 2.847 . S
U6 C23 2.882 . S
U6 O24 2.441 . S
U6 O25 2.420 . S
U6 O26 2.455 . S
U6 O27 2.449 . S
O7 U6 2.454 . S
O7 C9 1.353 . S
O8 U6 2.458 . S
O8 C9 1.286 . S
C9 U6 2.984 . S
C9 O7 1.353 . S
C9 O8 1.286 . S
C9 C11 1.363 . S
C10 C0 1.465 . S
C10 U6 2.847 . S
C10 O24 1.249 . S
C10 O25 1.202 . S
C11 C9 1.363 . S
C11 C13 1.408 . S
C11 C16 1.342 . S
C12 C13 1.310 . S
C12 C15 1.461 . S
C12 H32 0.932 . S
C13 C11 1.408 . S
C13 C12 1.310 . S
C13 H33 0.930 . S
C14 C15 1.474 . S
C14 C16 1.285 . S
C14 H34 0.929 . S
C15 C12 1.461 . S
C15 C14 1.474 . S
C16 C11 1.342 . S
C16 C14 1.285 . S
C16 H35 0.930 . S
C17 C20 1.424 . S
C17 C22 1.245 . S
C17 C23 1.428 . S
C18 C21 1.260 . S
C18 C22 1.477 . S
C18 H36 0.932 . S
C19 C20 1.384 . S
C19 C21 1.479 . S
C19 H37 0.929 . S
C20 C17 1.424 . S
C20 C19 1.384 . S
C20 H38 0.928 . S
C21 C18 1.260 . S
C21 C19 1.479 . S
C22 C17 1.245 . S
C22 C18 1.477 . S
C22 H39 0.932 . S
C23 U6 2.882 . S
C23 C17 1.428 . S
C23 O26 1.301 . S
C23 O27 1.282 . S
O24 U6 2.441 . S
O24 C10 1.249 . S
O25 U6 2.420 . S
O25 C10 1.202 . S
O26 U6 2.455 . S
O26 C23 1.301 . S
O27 U6 2.449 . S
O27 C23 1.282 . S
H28 C1 0.931 . S
H29 C3 0.929 . S
H30 C4 0.930 . S
H31 C5 0.931 . S
H32 C12 0.932 . S
H33 C13 0.930 . S
H34 C14 0.929 . S
H35 C16 0.930 . S
H36 C18 0.932 . S
H37 C19 0.929 . S
H38 C20 0.928 . S
H39 C22 0.932 . S
C40 C41 1.264 . S
C40 C45 1.479 . S
C40 C50 1.465 . S
C41 C40 1.264 . S
C41 C43 1.339 . S
C41 H68 0.931 . S
C42 C43 1.395 . S
C42 C44 1.320 . S
C43 C41 1.339 . S
C43 C42 1.395 . S
C43 H69 0.929 . S
C44 C42 1.320 . S
C44 C45 1.405 . S
C44 H70 0.930 . S
C45 C40 1.479 . S
C45 C44 1.405 . S
C45 H71 0.931 . S
U46 O47 2.454 . S
U46 O48 2.458 . S
U46 C49 2.984 . S
U46 C50 2.847 . S
U46 C63 2.882 . S
U46 O64 2.441 . S
U46 O65 2.420 . S
U46 O66 2.455 . S
U46 O67 2.449 . S
O47 U46 2.454 . S
O47 C49 1.353 . S
O48 U46 2.458 . S
O48 C49 1.286 . S
C49 U46 2.984 . S
C49 O47 1.353 . S
C49 O48 1.286 . S
C49 C51 1.363 . S
C50 C40 1.465 . S
C50 U46 2.847 . S
C50 O64 1.249 . S
C50 O65 1.202 . S
C51 C49 1.363 . S
C51 C53 1.408 . S
C51 C56 1.342 . S
C52 C53 1.310 . S
C52 C55 1.461 . S
C52 H72 0.932 . S
C53 C51 1.408 . S
C53 C52 1.310 . S
C53 H73 0.930 . S
C54 C55 1.474 . S
C54 C56 1.285 . S
C54 H74 0.929 . S
C55 C52 1.461 . S
C55 C54 1.474 . S
C56 C51 1.342 . S
C56 C54 1.285 . S
C56 H75 0.930 . S
C57 C60 1.424 . S
C57 C62 1.245 . S
C57 C63 1.428 . S
C58 C61 1.260 . S
C58 C62 1.477 . S
C58 H76 0.932 . S
C59 C60 1.384 . S
C59 C61 1.479 . S
C59 H77 0.929 . S
C60 C57 1.424 . S
C60 C59 1.384 . S
C60 H78 0.928 . S
C61 C58 1.260 . S
C61 C59 1.479 . S
C62 C57 1.245 . S
C62 C58 1.477 . S
C62 H79 0.932 . S
C63 U46 2.882 . S
C63 C57 1.428 . S
C63 O66 1.301 . S
C63 O67 1.282 . S
O64 U46 2.441 . S
O64 C50 1.249 . S
O65 U46 2.420 . S
O65 C50 1.202 . S
O66 U46 2.455 . S
O66 C63 1.301 . S
O67 U46 2.449 . S
O67 C63 1.282 . S
H68 C41 0.931 . S
H69 C43 0.929 . S
H70 C44 0.930 . S
H71 C45 0.931 . S
H72 C52 0.932 . S
H73 C53 0.930 . S
H74 C54 0.929 . S
H75 C56 0.930 . S
H76 C58 0.932 . S
H77 C59 0.929 . S
H78 C60 0.928 . S
H79 C62 0.932 . S
C80 C81 1.264 . S
C80 C85 1.479 . S
C80 C90 1.465 . S
C81 C80 1.264 . S
C81 C83 1.339 . S
C81 H108 0.931 . S
C82 C83 1.395 . S
C82 C84 1.320 . S
C83 C81 1.339 . S
C83 C82 1.395 . S
C83 H109 0.929 . S
C84 C82 1.320 . S
C84 C85 1.405 . S
C84 H110 0.930 . S
C85 C80 1.479 . S
C85 C84 1.405 . S
C85 H111 0.931 . S
U86 O87 2.454 . S
U86 O88 2.458 . S
U86 C89 2.984 . S
U86 C90 2.847 . S
U86 C103 2.882 . S
U86 O104 2.441 . S
U86 O105 2.420 . S
U86 O106 2.455 . S
U86 O107 2.449 . S
O87 U86 2.454 . S
O87 C89 1.353 . S
O88 U86 2.458 . S
O88 C89 1.286 . S
C89 U86 2.984 . S
C89 O87 1.353 . S
C89 O88 1.286 . S
C89 C91 1.363 . S
C90 C80 1.465 . S
C90 U86 2.847 . S
C90 O104 1.249 . S
C90 O105 1.202 . S
C91 C89 1.363 . S
C91 C93 1.408 . S
C91 C96 1.342 . S
C92 C93 1.310 . S
C92 C95 1.461 . S
C92 H112 0.932 . S
C93 C91 1.408 . S
C93 C92 1.310 . S
C93 H113 0.930 . S
C94 C95 1.474 . S
C94 C96 1.285 . S
C94 H114 0.929 . S
C95 C92 1.461 . S
C95 C94 1.474 . S
C96 C91 1.342 . S
C96 C94 1.285 . S
C96 H115 0.930 . S
C97 C100 1.424 . S
C97 C102 1.245 . S
C97 C103 1.428 . S
C98 C101 1.260 . S
C98 C102 1.477 . S
C98 H116 0.932 . S
C99 C100 1.384 . S
C99 C101 1.479 . S
C99 H117 0.929 . S
C100 C97 1.424 . S
C100 C99 1.384 . S
C100 H118 0.928 . S
C101 C98 1.260 . S
C101 C99 1.479 . S
C102 C97 1.245 . S
C102 C98 1.477 . S
C102 H119 0.932 . S
C103 U86 2.882 . S
C103 C97 1.428 . S
C103 O106 1.301 . S
C103 O107 1.282 . S
O104 U86 2.441 . S
O104 C90 1.249 . S
O105 U86 2.420 . S
O105 C90 1.202 . S
O106 U86 2.455 . S
O106 C103 1.301 . S
O107 U86 2.449 . S
O107 C103 1.282 . S
H108 C81 0.931 . S
H109 C83 0.929 . S
H110 C84 0.930 . S
H111 C85 0.931 . S
H112 C92 0.932 . S
H113 C93 0.930 . S
H114 C94 0.929 . S
H115 C96 0.930 . S
H116 C98 0.932 . S
H117 C99 0.929 . S
H118 C100 0.928 . S
H119 C102 0.932 . S
C120 C121 1.264 . S
C120 C125 1.479 . S
C120 C130 1.465 . S
C121 C120 1.264 . S
C121 C123 1.339 . S
C121 H148 0.931 . S
C122 C123 1.395 . S
C122 C124 1.320 . S
C123 C121 1.339 . S
C123 C122 1.395 . S
C123 H149 0.929 . S
C124 C122 1.320 . S
C124 C125 1.405 . S
C124 H150 0.930 . S
C125 C120 1.479 . S
C125 C124 1.405 . S
C125 H151 0.931 . S
U126 O127 2.454 . S
U126 O128 2.458 . S
U126 C129 2.984 . S
U126 C130 2.847 . S
U126 C143 2.882 . S
U126 O144 2.441 . S
U126 O145 2.420 . S
U126 O146 2.455 . S
U126 O147 2.449 . S
O127 U126 2.454 . S
O127 C129 1.353 . S
O128 U126 2.458 . S
O128 C129 1.286 . S
C129 U126 2.984 . S
C129 O127 1.353 . S
C129 O128 1.286 . S
C129 C131 1.363 . S
C130 C120 1.465 . S
C130 U126 2.847 . S
C130 O144 1.249 . S
C130 O145 1.202 . S
C131 C129 1.363 . S
C131 C133 1.408 . S
C131 C136 1.342 . S
C132 C133 1.310 . S
C132 C135 1.461 . S
C132 H152 0.932 . S
C133 C131 1.408 . S
C133 C132 1.310 . S
C133 H153 0.930 . S
C134 C135 1.474 . S
C134 C136 1.285 . S
C134 H154 0.929 . S
C135 C132 1.461 . S
C135 C134 1.474 . S
C136 C131 1.342 . S
C136 C134 1.285 . S
C136 H155 0.930 . S
C137 C140 1.424 . S
C137 C142 1.245 . S
C137 C143 1.428 . S
C138 C141 1.260 . S
C138 C142 1.477 . S
C138 H156 0.932 . S
C139 C140 1.384 . S
C139 C141 1.479 . S
C139 H157 0.929 . S
C140 C137 1.424 . S
C140 C139 1.384 . S
C140 H158 0.928 . S
C141 C138 1.260 . S
C141 C139 1.479 . S
C142 C137 1.245 . S
C142 C138 1.477 . S
C142 H159 0.932 . S
C143 U126 2.882 . S
C143 C137 1.428 . S
C143 O146 1.301 . S
C143 O147 1.282 . S
O144 U126 2.441 . S
O144 C130 1.249 . S
O145 U126 2.420 . S
O145 C130 1.202 . S
O146 U126 2.455 . S
O146 C143 1.301 . S
O147 U126 2.449 . S
O147 C143 1.282 . S
H148 C121 0.931 . S
H149 C123 0.929 . S
H150 C124 0.930 . S
H151 C125 0.931 . S
H152 C132 0.932 . S
H153 C133 0.930 . S
H154 C134 0.929 . S
H155 C136 0.930 . S
H156 C138 0.932 . S
H157 C139 0.929 . S
H158 C140 0.928 . S
H159 C142 0.932 . S
C160 C161 1.264 . S
C160 C165 1.479 . S
C160 C170 1.465 . S
C161 C160 1.264 . S
C161 C163 1.339 . S
C161 H188 0.931 . S
C162 C163 1.395 . S
C162 C164 1.320 . S
C163 C161 1.339 . S
C163 C162 1.395 . S
C163 H189 0.929 . S
C164 C162 1.320 . S
C164 C165 1.405 . S
C164 H190 0.930 . S
C165 C160 1.479 . S
C165 C164 1.405 . S
C165 H191 0.931 . S
U166 O167 2.454 . S
U166 O168 2.458 . S
U166 C169 2.984 . S
U166 C170 2.847 . S
U166 C183 2.882 . S
U166 O184 2.441 . S
U166 O185 2.420 . S
U166 O186 2.455 . S
U166 O187 2.449 . S
O167 U166 2.454 . S
O167 C169 1.353 . S
O168 U166 2.458 . S
O168 C169 1.286 . S
C169 U166 2.984 . S
C169 O167 1.353 . S
C169 O168 1.286 . S
C169 C171 1.363 . S
C170 C160 1.465 . S
C170 U166 2.847 . S
C170 O184 1.249 . S
C170 O185 1.202 . S
C171 C169 1.363 . S
C171 C173 1.408 . S
C171 C176 1.342 . S
C172 C173 1.310 . S
C172 C175 1.461 . S
C172 H192 0.932 . S
C173 C171 1.408 . S
C173 C172 1.310 . S
C173 H193 0.930 . S
C174 C175 1.474 . S
C174 C176 1.285 . S
C174 H194 0.929 . S
C175 C172 1.461 . S
C175 C174 1.474 . S
C176 C171 1.342 . S
C176 C174 1.285 . S
C176 H195 0.930 . S
C177 C180 1.424 . S
C177 C182 1.245 . S
C177 C183 1.428 . S
C178 C181 1.260 . S
C178 C182 1.477 . S
C178 H196 0.932 . S
C179 C180 1.384 . S
C179 C181 1.479 . S
C179 H197 0.929 . S
C180 C177 1.424 . S
C180 C179 1.384 . S
C180 H198 0.928 . S
C181 C178 1.260 . S
C181 C179 1.479 . S
C182 C177 1.245 . S
C182 C178 1.477 . S
C182 H199 0.932 . S
C183 U166 2.882 . S
C183 C177 1.428 . S
C183 O186 1.301 . S
C183 O187 1.282 . S
O184 U166 2.441 . S
O184 C170 1.249 . S
O185 U166 2.420 . S
O185 C170 1.202 . S
O186 U166 2.455 . S
O186 C183 1.301 . S
O187 U166 2.449 . S
O187 C183 1.282 . S
H188 C161 0.931 . S
H189 C163 0.929 . S
H190 C164 0.930 . S
H191 C165 0.931 . S
H192 C172 0.932 . S
H193 C173 0.930 . S
H194 C174 0.929 . S
H195 C176 0.930 . S
H196 C178 0.932 . S
H197 C179 0.929 . S
H198 C180 0.928 . S
H199 C182 0.932 . S
C200 C201 1.264 . S
C200 C205 1.479 . S
C200 C210 1.465 . S
C201 C200 1.264 . S
C201 C203 1.339 . S
C201 H228 0.931 . S
C202 C203 1.395 . S
C202 C204 1.320 . S
C203 C201 1.339 . S
C203 C202 1.395 . S
C203 H229 0.929 . S
C204 C202 1.320 . S
C204 C205 1.405 . S
C204 H230 0.930 . S
C205 C200 1.479 . S
C205 C204 1.405 . S
C205 H231 0.931 . S
U206 O207 2.454 . S
U206 O208 2.458 . S
U206 C209 2.984 . S
U206 C210 2.847 . S
U206 C223 2.882 . S
U206 O224 2.441 . S
U206 O225 2.420 . S
U206 O226 2.455 . S
U206 O227 2.449 . S
O207 U206 2.454 . S
O207 C209 1.353 . S
O208 U206 2.458 . S
O208 C209 1.286 . S
C209 U206 2.984 . S
C209 O207 1.353 . S
C209 O208 1.286 . S
C209 C211 1.363 . S
C210 C200 1.465 . S
C210 U206 2.847 . S
C210 O224 1.249 . S
C210 O225 1.202 . S
C211 C209 1.363 . S
C211 C213 1.408 . S
C211 C216 1.342 . S
C212 C213 1.310 . S
C212 C215 1.461 . S
C212 H232 0.932 . S
C213 C211 1.408 . S
C213 C212 1.310 . S
C213 H233 0.930 . S
C214 C215 1.474 . S
C214 C216 1.285 . S
C214 H234 0.929 . S
C215 C212 1.461 . S
C215 C214 1.474 . S
C216 C211 1.342 . S
C216 C214 1.285 . S
C216 H235 0.930 . S
C217 C220 1.424 . S
C217 C222 1.245 . S
C217 C223 1.428 . S
C218 C221 1.260 . S
C218 C222 1.477 . S
C218 H236 0.932 . S
C219 C220 1.384 . S
C219 C221 1.479 . S
C219 H237 0.929 . S
C220 C217 1.424 . S
C220 C219 1.384 . S
C220 H238 0.928 . S
C221 C218 1.260 . S
C221 C219 1.479 . S
C222 C217 1.245 . S
C222 C218 1.477 . S
C222 H239 0.932 . S
C223 U206 2.882 . S
C223 C217 1.428 . S
C223 O226 1.301 . S
C223 O227 1.282 . S
O224 U206 2.441 . S
O224 C210 1.249 . S
O225 U206 2.420 . S
O225 C210 1.202 . S
O226 U206 2.455 . S
O226 C223 1.301 . S
O227 U206 2.449 . S
O227 C223 1.282 . S
H228 C201 0.931 . S
H229 C203 0.929 . S
H230 C204 0.930 . S
H231 C205 0.931 . S
H232 C212 0.932 . S
H233 C213 0.930 . S
H234 C214 0.929 . S
H235 C216 0.930 . S
H236 C218 0.932 . S
H237 C219 0.929 . S
H238 C220 0.928 . S
H239 C222 0.932 . S
C240 C241 1.264 . S
C240 C245 1.479 . S
C240 C250 1.465 . S
C241 C240 1.264 . S
C241 C243 1.339 . S
C241 H268 0.931 . S
C242 C243 1.395 . S
C242 C244 1.320 . S
C243 C241 1.339 . S
C243 C242 1.395 . S
C243 H269 0.929 . S
C244 C242 1.320 . S
C244 C245 1.405 . S
C244 H270 0.930 . S
C245 C240 1.479 . S
C245 C244 1.405 . S
C245 H271 0.931 . S
U246 O247 2.454 . S
U246 O248 2.458 . S
U246 C249 2.984 . S
U246 C250 2.847 . S
U246 C263 2.882 . S
U246 O264 2.441 . S
U246 O265 2.420 . S
U246 O266 2.455 . S
U246 O267 2.449 . S
O247 U246 2.454 . S
O247 C249 1.353 . S
O248 U246 2.458 . S
O248 C249 1.286 . S
C249 U246 2.984 . S
C249 O247 1.353 . S
C249 O248 1.286 . S
C249 C251 1.363 . S
C250 C240 1.465 . S
C250 U246 2.847 . S
C250 O264 1.249 . S
C250 O265 1.202 . S
C251 C249 1.363 . S
C251 C253 1.408 . S
C251 C256 1.342 . S
C252 C253 1.310 . S
C252 C255 1.461 . S
C252 H272 0.932 . S
C253 C251 1.408 . S
C253 C252 1.310 . S
C253 H273 0.930 . S
C254 C255 1.474 . S
C254 C256 1.285 . S
C254 H274 0.929 . S
C255 C252 1.461 . S
C255 C254 1.474 . S
C256 C251 1.342 . S
C256 C254 1.285 . S
C256 H275 0.930 . S
C257 C260 1.424 . S
C257 C262 1.245 . S
C257 C263 1.428 . S
C258 C261 1.260 . S
C258 C262 1.477 . S
C258 H276 0.932 . S
C259 C260 1.384 . S
C259 C261 1.479 . S
C259 H277 0.929 . S
C260 C257 1.424 . S
C260 C259 1.384 . S
C260 H278 0.928 . S
C261 C258 1.260 . S
C261 C259 1.479 . S
C262 C257 1.245 . S
C262 C258 1.477 . S
C262 H279 0.932 . S
C263 U246 2.882 . S
C263 C257 1.428 . S
C263 O266 1.301 . S
C263 O267 1.282 . S
O264 U246 2.441 . S
O264 C250 1.249 . S
O265 U246 2.420 . S
O265 C250 1.202 . S
O266 U246 2.455 . S
O266 C263 1.301 . S
O267 U246 2.449 . S
O267 C263 1.282 . S
H268 C241 0.931 . S
H269 C243 0.929 . S
H270 C244 0.930 . S
H271 C245 0.931 . S
H272 C252 0.932 . S
H273 C253 0.930 . S
H274 C254 0.929 . S
H275 C256 0.930 . S
H276 C258 0.932 . S
H277 C259 0.929 . S
H278 C260 0.928 . S
H279 C262 0.932 . S
C280 C281 1.264 . S
C280 C285 1.479 . S
C280 C290 1.465 . S
C281 C280 1.264 . S
C281 C283 1.339 . S
C281 H308 0.931 . S
C282 C283 1.395 . S
C282 C284 1.320 . S
C283 C281 1.339 . S
C283 C282 1.395 . S
C283 H309 0.929 . S
C284 C282 1.320 . S
C284 C285 1.405 . S
C284 H310 0.930 . S
C285 C280 1.479 . S
C285 C284 1.405 . S
C285 H311 0.931 . S
U286 O287 2.454 . S
U286 O288 2.458 . S
U286 C289 2.984 . S
U286 C290 2.847 . S
U286 C303 2.882 . S
U286 O304 2.441 . S
U286 O305 2.420 . S
U286 O306 2.455 . S
U286 O307 2.449 . S
O287 U286 2.454 . S
O287 C289 1.353 . S
O288 U286 2.458 . S
O288 C289 1.286 . S
C289 U286 2.984 . S
C289 O287 1.353 . S
C289 O288 1.286 . S
C289 C291 1.363 . S
C290 C280 1.465 . S
C290 U286 2.847 . S
C290 O304 1.249 . S
C290 O305 1.202 . S
C291 C289 1.363 . S
C291 C293 1.408 . S
C291 C296 1.342 . S
C292 C293 1.310 . S
C292 C295 1.461 . S
C292 H312 0.932 . S
C293 C291 1.408 . S
C293 C292 1.310 . S
C293 H313 0.930 . S
C294 C295 1.474 . S
C294 C296 1.285 . S
C294 H314 0.929 . S
C295 C292 1.461 . S
C295 C294 1.474 . S
C296 C291 1.342 . S
C296 C294 1.285 . S
C296 H315 0.930 . S
C297 C300 1.424 . S
C297 C302 1.245 . S
C297 C303 1.428 . S
C298 C301 1.260 . S
C298 C302 1.477 . S
C298 H316 0.932 . S
C299 C300 1.384 . S
C299 C301 1.479 . S
C299 H317 0.929 . S
C300 C297 1.424 . S
C300 C299 1.384 . S
C300 H318 0.928 . S
C301 C298 1.260 . S
C301 C299 1.479 . S
C302 C297 1.245 . S
C302 C298 1.477 . S
C302 H319 0.932 . S
C303 U286 2.882 . S
C303 C297 1.428 . S
C303 O306 1.301 . S
C303 O307 1.282 . S
O304 U286 2.441 . S
O304 C290 1.249 . S
O305 U286 2.420 . S
O305 C290 1.202 . S
O306 U286 2.455 . S
O306 C303 1.301 . S
O307 U286 2.449 . S
O307 C303 1.282 . S
H308 C281 0.931 . S
H309 C283 0.929 . S
H310 C284 0.930 . S
H311 C285 0.931 . S
H312 C292 0.932 . S
H313 C293 0.930 . S
H314 C294 0.929 . S
H315 C296 0.930 . S
H316 C298 0.932 . S
H317 C299 0.929 . S
H318 C300 0.928 . S
H319 C302 0.932 . S
Co320 O323 2.042 . S
Co320 O330 2.264 . S
Co320 O349 2.286 . S
Co320 O350 2.069 . S
Co320 O352 2.015 . S
Co321 O323 2.122 . S
Co321 O329 2.073 . S
Co321 O330 2.327 . S
Co321 O331 1.976 . S
Co322 O323 2.087 . S
Co322 O325 2.087 1_455 S
Co322 O332 2.111 . S
Co322 O333 2.143 1_455 S
Co322 O337 2.111 1_455 S
Co322 O351 2.143 . S
O323 Co320 2.042 . S
O323 Co321 2.122 . S
O323 Co322 2.087 . S
O323 H324 0.980 . S
H324 O323 0.980 . S
O325 Co322 2.087 1_655 S
O325 Co326 2.042 . S
O325 Co327 2.122 . S
O325 H328 0.980 . S
Co326 O325 2.042 . S
Co326 O334 2.286 . S
Co326 O335 2.069 . S
Co326 O336 2.015 . S
Co326 O339 2.264 . S
Co327 O325 2.122 . S
Co327 O338 1.976 . S
Co327 O339 2.327 . S
Co327 O340 2.073 . S
H328 O325 0.980 . S
O329 Co321 2.073 . S
O329 C344 1.245 . S
O330 Co320 2.264 . S
O330 Co321 2.327 . S
O330 C344 1.257 . S
O331 Co321 1.976 . S
O331 C343 1.251 . S
O332 Co322 2.111 . S
O332 C343 1.274 . S
O333 Co322 2.143 1_655 S
O333 C346 1.246 . S
O334 Co326 2.286 . S
O334 C345 1.259 . S
O335 Co326 2.069 . S
O335 C345 1.289 . S
O336 Co326 2.015 . S
O336 C346 1.257 . S
O337 Co322 2.111 1_655 S
O337 C347 1.274 . S
O338 Co327 1.976 . S
O338 C347 1.251 . S
O339 Co326 2.264 . S
O339 Co327 2.327 . S
O339 C348 1.257 . S
O340 Co327 2.073 . S
O340 C348 1.245 . S
C341 O349 1.259 . S
C341 O350 1.289 . S
C342 O351 1.246 . S
C342 O352 1.257 . S
C343 O331 1.251 . S
C343 O332 1.274 . S
C344 O329 1.245 . S
C344 O330 1.257 . S
C345 O334 1.259 . S
C345 O335 1.289 . S
C346 O333 1.246 . S
C346 O336 1.257 . S
C347 O337 1.274 . S
C347 O338 1.251 . S
C348 O339 1.257 . S
C348 O340 1.245 . S
O349 Co320 2.286 . S
O349 C341 1.259 . S
O350 Co320 2.069 . S
O350 C341 1.289 . S
O351 Co322 2.143 . S
O351 C342 1.246 . S
O352 Co320 2.015 . S
O352 C342 1.257 . S
Co353 O356 2.042 . S
Co353 O363 2.264 . S
Co353 O382 2.286 . S
Co353 O383 2.069 . S
Co353 O385 2.015 . S
Co354 O356 2.122 . S
Co354 O362 2.073 . S
Co354 O363 2.327 . S
Co354 O364 1.976 . S
Co355 O356 2.087 1_545 S
Co355 O358 2.087 . S
Co355 O365 2.111 1_545 S
Co355 O366 2.143 . S
Co355 O370 2.111 . S
Co355 O384 2.143 1_545 S
O356 Co353 2.042 . S
O356 Co354 2.122 . S
O356 Co355 2.087 1_565 S
O356 H357 0.980 . S
H357 O356 0.980 . S
O358 Co355 2.087 . S
O358 Co359 2.042 . S
O358 Co360 2.122 . S
O358 H361 0.980 . S
Co359 O358 2.042 . S
Co359 O367 2.286 . S
Co359 O368 2.069 . S
Co359 O369 2.015 . S
Co359 O372 2.264 . S
Co360 O358 2.122 . S
Co360 O371 1.976 . S
Co360 O372 2.327 . S
Co360 O373 2.073 . S
H361 O358 0.980 . S
O362 Co354 2.073 . S
O362 C377 1.245 . S
O363 Co353 2.264 . S
O363 Co354 2.327 . S
O363 C377 1.257 . S
O364 Co354 1.976 . S
O364 C376 1.251 . S
O365 Co355 2.111 1_565 S
O365 C376 1.274 . S
O366 Co355 2.143 . S
O366 C379 1.246 . S
O367 Co359 2.286 . S
O367 C378 1.259 . S
O368 Co359 2.069 . S
O368 C378 1.289 . S
O369 Co359 2.015 . S
O369 C379 1.257 . S
O370 Co355 2.111 . S
O370 C380 1.274 . S
O371 Co360 1.976 . S
O371 C380 1.251 . S
O372 Co359 2.264 . S
O372 Co360 2.327 . S
O372 C381 1.257 . S
O373 Co360 2.073 . S
O373 C381 1.245 . S
C374 O382 1.259 . S
C374 O383 1.289 . S
C375 O384 1.246 . S
C375 O385 1.257 . S
C376 O364 1.251 . S
C376 O365 1.274 . S
C377 O362 1.245 . S
C377 O363 1.257 . S
C378 O367 1.259 . S
C378 O368 1.289 . S
C379 O366 1.246 . S
C379 O369 1.257 . S
C380 O370 1.274 . S
C380 O371 1.251 . S
C381 O372 1.257 . S
C381 O373 1.245 . S
O382 Co353 2.286 . S
O382 C374 1.259 . S
O383 Co353 2.069 . S
O383 C374 1.289 . S
O384 Co355 2.143 1_565 S
O384 C375 1.246 . S
O385 Co353 2.015 . S
O385 C375 1.257 . S
Co386 O389 2.042 . S
Co386 O396 2.264 . S
Co386 O415 2.286 . S
Co386 O416 2.069 . S
Co386 O418 2.015 . S
Co387 O389 2.122 . S
Co387 O395 2.073 . S
Co387 O396 2.327 . S
Co387 O397 1.976 . S
Co388 O389 2.087 . S
Co388 O391 2.087 1_554 S
Co388 O398 2.111 . S
Co388 O399 2.143 1_554 S
Co388 O403 2.111 1_554 S
Co388 O417 2.143 . S
O389 Co386 2.042 . S
O389 Co387 2.122 . S
O389 Co388 2.087 . S
O389 H390 0.980 . S
H390 O389 0.980 . S
O391 Co388 2.087 1_556 S
O391 Co392 2.042 . S
O391 Co393 2.122 . S
O391 H394 0.980 . S
Co392 O391 2.042 . S
Co392 O400 2.286 . S
Co392 O401 2.069 . S
Co392 O402 2.015 . S
Co392 O405 2.264 . S
Co393 O391 2.122 . S
Co393 O404 1.976 . S
Co393 O405 2.327 . S
Co393 O406 2.073 . S
H394 O391 0.980 . S
O395 Co387 2.073 . S
O395 C410 1.245 . S
O396 Co386 2.264 . S
O396 Co387 2.327 . S
O396 C410 1.257 . S
O397 Co387 1.976 . S
O397 C409 1.251 . S
O398 Co388 2.111 . S
O398 C409 1.274 . S
O399 Co388 2.143 1_556 S
O399 C412 1.246 . S
O400 Co392 2.286 . S
O400 C411 1.259 . S
O401 Co392 2.069 . S
O401 C411 1.289 . S
O402 Co392 2.015 . S
O402 C412 1.257 . S
O403 Co388 2.111 1_556 S
O403 C413 1.274 . S
O404 Co393 1.976 . S
O404 C413 1.251 . S
O405 Co392 2.264 . S
O405 Co393 2.327 . S
O405 C414 1.257 . S
O406 Co393 2.073 . S
O406 C414 1.245 . S
C407 O415 1.259 . S
C407 O416 1.289 . S
C408 O417 1.246 . S
C408 O418 1.257 . S
C409 O397 1.251 . S
C409 O398 1.274 . S
C410 O395 1.245 . S
C410 O396 1.257 . S
C411 O400 1.259 . S
C411 O401 1.289 . S
C412 O399 1.246 . S
C412 O402 1.257 . S
C413 O403 1.274 . S
C413 O404 1.251 . S
C414 O405 1.257 . S
C414 O406 1.245 . S
O415 Co386 2.286 . S
O415 C407 1.259 . S
O416 Co386 2.069 . S
O416 C407 1.289 . S
O417 Co388 2.143 . S
O417 C408 1.246 . S
O418 Co386 2.015 . S
O418 C408 1.257 . S
C419 C420 1.391 . S
C419 C421 1.394 . S
C419 H435 0.931 . S
C420 C419 1.391 . S
C420 C424 1.376 . S
C421 C419 1.394 . S
C421 C422 1.369 . S
C421 C425 1.531 . S
C422 C421 1.369 . S
C422 C423 1.410 . S
C422 C430 1.503 . S
C423 C422 1.410 . S
C423 C424 1.392 . S
C423 C426 1.511 . S
C424 C420 1.376 . S
C424 C423 1.392 . S
C424 H436 0.929 . S
C425 C421 1.531 . S
C425 H437 0.960 . S
C425 H438 0.962 . S
C425 H439 0.960 . S
C426 C423 1.511 . S
C426 H440 0.961 . S
C426 H441 0.961 . S
C426 H442 0.961 . S
C427 C428 1.370 . S
C427 C429 1.363 . S
C427 H443 0.931 . S
C428 C427 1.370 . S
C428 C432 1.408 . S
C429 C427 1.363 . S
C429 C430 1.370 . S
C429 C433 1.524 . S
C430 C422 1.503 . S
C430 C429 1.370 . S
C430 C431 1.403 . S
C431 C430 1.403 . S
C431 C432 1.404 . S
C431 C434 1.539 . S
C432 C428 1.408 . S
C432 C431 1.404 . S
C432 H444 0.930 . S
C433 C429 1.524 . S
C433 H445 0.956 . S
C433 H446 0.961 . S
C433 H447 0.961 . S
C434 C431 1.539 . S
C434 H448 0.958 . S
C434 H449 0.961 . S
C434 H450 0.960 . S
H435 C419 0.931 . S
H436 C424 0.929 . S
H437 C425 0.960 . S
H438 C425 0.962 . S
H439 C425 0.960 . S
H440 C426 0.961 . S
H441 C426 0.961 . S
H442 C426 0.961 . S
H443 C427 0.931 . S
H444 C432 0.930 . S
H445 C433 0.956 . S
H446 C433 0.961 . S
H447 C433 0.961 . S
H448 C434 0.958 . S
H449 C434 0.961 . S
H450 C434 0.960 . S
C451 C452 1.391 . S
C451 C453 1.394 . S
C451 H467 0.931 . S
C452 C451 1.391 . S
C452 C456 1.376 . S
C453 C451 1.394 . S
C453 C454 1.369 . S
C453 C457 1.531 . S
C454 C453 1.369 . S
C454 C455 1.410 . S
C454 C462 1.503 . S
C455 C454 1.410 . S
C455 C456 1.392 . S
C455 C458 1.511 . S
C456 C452 1.376 . S
C456 C455 1.392 . S
C456 H468 0.929 . S
C457 C453 1.531 . S
C457 H469 0.960 . S
C457 H470 0.962 . S
C457 H471 0.960 . S
C458 C455 1.511 . S
C458 H472 0.961 . S
C458 H473 0.961 . S
C458 H474 0.961 . S
C459 C460 1.370 . S
C459 C461 1.363 . S
C459 H475 0.931 . S
C460 C459 1.370 . S
C460 C464 1.408 . S
C461 C459 1.363 . S
C461 C462 1.370 . S
C461 C465 1.524 . S
C462 C454 1.503 . S
C462 C461 1.370 . S
C462 C463 1.403 . S
C463 C462 1.403 . S
C463 C464 1.404 . S
C463 C466 1.539 . S
C464 C460 1.408 . S
C464 C463 1.404 . S
C464 H476 0.930 . S
C465 C461 1.524 . S
C465 H477 0.956 . S
C465 H478 0.961 . S
C465 H479 0.961 . S
C466 C463 1.539 . S
C466 H480 0.958 . S
C466 H481 0.961 . S
C466 H482 0.960 . S
H467 C451 0.931 . S
H468 C456 0.929 . S
H469 C457 0.960 . S
H470 C457 0.962 . S
H471 C457 0.960 . S
H472 C458 0.961 . S
H473 C458 0.961 . S
H474 C458 0.961 . S
H475 C459 0.931 . S
H476 C464 0.930 . S
H477 C465 0.956 . S
H478 C465 0.961 . S
H479 C465 0.961 . S
H480 C466 0.958 . S
H481 C466 0.961 . S
H482 C466 0.960 . S
C483 C484 1.391 . S
C483 C485 1.394 . S
C483 H499 0.931 . S
C484 C483 1.391 . S
C484 C488 1.376 . S
C485 C483 1.394 . S
C485 C486 1.369 . S
C485 C489 1.531 . S
C486 C485 1.369 . S
C486 C487 1.410 . S
C486 C494 1.503 . S
C487 C486 1.410 . S
C487 C488 1.392 . S
C487 C490 1.511 . S
C488 C484 1.376 . S
C488 C487 1.392 . S
C488 H500 0.929 . S
C489 C485 1.531 . S
C489 H501 0.960 . S
C489 H502 0.962 . S
C489 H503 0.960 . S
C490 C487 1.511 . S
C490 H504 0.961 . S
C490 H505 0.961 . S
C490 H506 0.961 . S
C491 C492 1.370 . S
C491 C493 1.363 . S
C491 H507 0.931 . S
C492 C491 1.370 . S
C492 C496 1.408 . S
C493 C491 1.363 . S
C493 C494 1.370 . S
C493 C497 1.524 . S
C494 C486 1.503 . S
C494 C493 1.370 . S
C494 C495 1.403 . S
C495 C494 1.403 . S
C495 C496 1.404 . S
C495 C498 1.539 . S
C496 C492 1.408 . S
C496 C495 1.404 . S
C496 H508 0.930 . S
C497 C493 1.524 . S
C497 H509 0.956 . S
C497 H510 0.961 . S
C497 H511 0.961 . S
C498 C495 1.539 . S
C498 H512 0.958 . S
C498 H513 0.961 . S
C498 H514 0.960 . S
H499 C483 0.931 . S
H500 C488 0.929 . S
H501 C489 0.960 . S
H502 C489 0.962 . S
H503 C489 0.960 . S
H504 C490 0.961 . S
H505 C490 0.961 . S
H506 C490 0.961 . S
H507 C491 0.931 . S
H508 C496 0.930 . S
H509 C497 0.956 . S
H510 C497 0.961 . S
H511 C497 0.961 . S
H512 C498 0.958 . S
H513 C498 0.961 . S
H514 C498 0.960 . S
C515 C516 1.391 . S
C515 C517 1.394 . S
C515 H531 0.931 . S
C516 C515 1.391 . S
C516 C520 1.376 . S
C517 C515 1.394 . S
C517 C518 1.369 . S
C517 C521 1.531 . S
C518 C517 1.369 . S
C518 C519 1.410 . S
C518 C526 1.503 . S
C519 C518 1.410 . S
C519 C520 1.392 . S
C519 C522 1.511 . S
C520 C516 1.376 . S
C520 C519 1.392 . S
C520 H532 0.929 . S
C521 C517 1.531 . S
C521 H533 0.960 . S
C521 H534 0.962 . S
C521 H535 0.960 . S
C522 C519 1.511 . S
C522 H536 0.961 . S
C522 H537 0.961 . S
C522 H538 0.961 . S
C523 C524 1.370 . S
C523 C525 1.363 . S
C523 H539 0.931 . S
C524 C523 1.370 . S
C524 C528 1.408 . S
C525 C523 1.363 . S
C525 C526 1.370 . S
C525 C529 1.524 . S
C526 C518 1.503 . S
C526 C525 1.370 . S
C526 C527 1.403 . S
C527 C526 1.403 . S
C527 C528 1.404 . S
C527 C530 1.539 . S
C528 C524 1.408 . S
C528 C527 1.404 . S
C528 H540 0.930 . S
C529 C525 1.524 . S
C529 H541 0.956 . S
C529 H542 0.961 . S
C529 H543 0.961 . S
C530 C527 1.539 . S
C530 H544 0.958 . S
C530 H545 0.961 . S
C530 H546 0.960 . S
H531 C515 0.931 . S
H532 C520 0.929 . S
H533 C521 0.960 . S
H534 C521 0.962 . S
H535 C521 0.960 . S
H536 C522 0.961 . S
H537 C522 0.961 . S
H538 C522 0.961 . S
H539 C523 0.931 . S
H540 C528 0.930 . S
H541 C529 0.956 . S
H542 C529 0.961 . S
H543 C529 0.961 . S
H544 C530 0.958 . S
H545 C530 0.961 . S
H546 C530 0.960 . S
C547 C548 1.391 . S
C547 C549 1.394 . S
C547 H563 0.931 . S
C548 C547 1.391 . S
C548 C552 1.376 . S
C549 C547 1.394 . S
C549 C550 1.369 . S
C549 C553 1.531 . S
C550 C549 1.369 . S
C550 C551 1.410 . S
C550 C558 1.503 . S
C551 C550 1.410 . S
C551 C552 1.392 . S
C551 C554 1.511 . S
C552 C548 1.376 . S
C552 C551 1.392 . S
C552 H564 0.929 . S
C553 C549 1.531 . S
C553 H565 0.960 . S
C553 H566 0.962 . S
C553 H567 0.960 . S
C554 C551 1.511 . S
C554 H568 0.961 . S
C554 H569 0.961 . S
C554 H570 0.961 . S
C555 C556 1.370 . S
C555 C557 1.363 . S
C555 H571 0.931 . S
C556 C555 1.370 . S
C556 C560 1.408 . S
C557 C555 1.363 . S
C557 C558 1.370 . S
C557 C561 1.524 . S
C558 C550 1.503 . S
C558 C557 1.370 . S
C558 C559 1.403 . S
C559 C558 1.403 . S
C559 C560 1.404 . S
C559 C562 1.539 . S
C560 C556 1.408 . S
C560 C559 1.404 . S
C560 H572 0.930 . S
C561 C557 1.524 . S
C561 H573 0.956 . S
C561 H574 0.961 . S
C561 H575 0.961 . S
C562 C559 1.539 . S
C562 H576 0.958 . S
C562 H577 0.961 . S
C562 H578 0.960 . S
H563 C547 0.931 . S
H564 C552 0.929 . S
H565 C553 0.960 . S
H566 C553 0.962 . S
H567 C553 0.960 . S
H568 C554 0.961 . S
H569 C554 0.961 . S
H570 C554 0.961 . S
H571 C555 0.931 . S
H572 C560 0.930 . S
H573 C561 0.956 . S
H574 C561 0.961 . S
H575 C561 0.961 . S
H576 C562 0.958 . S
H577 C562 0.961 . S
H578 C562 0.960 . S
C579 C580 1.391 . S
C579 C581 1.394 . S
C579 H595 0.931 . S
C580 C579 1.391 . S
C580 C584 1.376 . S
C581 C579 1.394 . S
C581 C582 1.369 . S
C581 C585 1.531 . S
C582 C581 1.369 . S
C582 C583 1.410 . S
C582 C590 1.503 . S
C583 C582 1.410 . S
C583 C584 1.392 . S
C583 C586 1.511 . S
C584 C580 1.376 . S
C584 C583 1.392 . S
C584 H596 0.929 . S
C585 C581 1.531 . S
C585 H597 0.960 . S
C585 H598 0.962 . S
C585 H599 0.960 . S
C586 C583 1.511 . S
C586 H600 0.961 . S
C586 H601 0.961 . S
C586 H602 0.961 . S
C587 C588 1.370 . S
C587 C589 1.363 . S
C587 H603 0.931 . S
C588 C587 1.370 . S
C588 C592 1.408 . S
C589 C587 1.363 . S
C589 C590 1.370 . S
C589 C593 1.524 . S
C590 C582 1.503 . S
C590 C589 1.370 . S
C590 C591 1.403 . S
C591 C590 1.403 . S
C591 C592 1.404 . S
C591 C594 1.539 . S
C592 C588 1.408 . S
C592 C591 1.404 . S
C592 H604 0.930 . S
C593 C589 1.524 . S
C593 H605 0.956 . S
C593 H606 0.961 . S
C593 H607 0.961 . S
C594 C591 1.539 . S
C594 H608 0.958 . S
C594 H609 0.961 . S
C594 H610 0.960 . S
H595 C579 0.931 . S
H596 C584 0.929 . S
H597 C585 0.960 . S
H598 C585 0.962 . S
H599 C585 0.960 . S
H600 C586 0.961 . S
H601 C586 0.961 . S
H602 C586 0.961 . S
H603 C587 0.931 . S
H604 C592 0.930 . S
H605 C593 0.956 . S
H606 C593 0.961 . S
H607 C593 0.961 . S
H608 C594 0.958 . S
H609 C594 0.961 . S
H610 C594 0.960 . S
C611 C612 1.391 . S
C611 C613 1.394 . S
C611 H627 0.931 . S
C612 C611 1.391 . S
C612 C616 1.376 . S
C613 C611 1.394 . S
C613 C614 1.369 . S
C613 C617 1.531 . S
C614 C613 1.369 . S
C614 C615 1.410 . S
C614 C622 1.503 . S
C615 C614 1.410 . S
C615 C616 1.392 . S
C615 C618 1.511 . S
C616 C612 1.376 . S
C616 C615 1.392 . S
C616 H628 0.929 . S
C617 C613 1.531 . S
C617 H629 0.960 . S
C617 H630 0.962 . S
C617 H631 0.960 . S
C618 C615 1.511 . S
C618 H632 0.961 . S
C618 H633 0.961 . S
C618 H634 0.961 . S
C619 C620 1.370 . S
C619 C621 1.363 . S
C619 H635 0.931 . S
C620 C619 1.370 . S
C620 C624 1.408 . S
C621 C619 1.363 . S
C621 C622 1.370 . S
C621 C625 1.524 . S
C622 C614 1.503 . S
C622 C621 1.370 . S
C622 C623 1.403 . S
C623 C622 1.403 . S
C623 C624 1.404 . S
C623 C626 1.539 . S
C624 C620 1.408 . S
C624 C623 1.404 . S
C624 H636 0.930 . S
C625 C621 1.524 . S
C625 H637 0.956 . S
C625 H638 0.961 . S
C625 H639 0.961 . S
C626 C623 1.539 . S
C626 H640 0.958 . S
C626 H641 0.961 . S
C626 H642 0.960 . S
H627 C611 0.931 . S
H628 C616 0.929 . S
H629 C617 0.960 . S
H630 C617 0.962 . S
H631 C617 0.960 . S
H632 C618 0.961 . S
H633 C618 0.961 . S
H634 C618 0.961 . S
H635 C619 0.931 . S
H636 C624 0.930 . S
H637 C625 0.956 . S
H638 C625 0.961 . S
H639 C625 0.961 . S
H640 C626 0.958 . S
H641 C626 0.961 . S
H642 C626 0.960 . S
C643 C644 1.391 . S
C643 C645 1.394 . S
C643 H659 0.931 . S
C644 C643 1.391 . S
C644 C648 1.376 . S
C645 C643 1.394 . S
C645 C646 1.369 . S
C645 C649 1.531 . S
C646 C645 1.369 . S
C646 C647 1.410 . S
C646 C654 1.503 . S
C647 C646 1.410 . S
C647 C648 1.392 . S
C647 C650 1.511 . S
C648 C644 1.376 . S
C648 C647 1.392 . S
C648 H660 0.929 . S
C649 C645 1.531 . S
C649 H661 0.960 . S
C649 H662 0.962 . S
C649 H663 0.960 . S
C650 C647 1.511 . S
C650 H664 0.961 . S
C650 H665 0.961 . S
C650 H666 0.961 . S
C651 C652 1.370 . S
C651 C653 1.363 . S
C651 H667 0.931 . S
C652 C651 1.370 . S
C652 C656 1.408 . S
C653 C651 1.363 . S
C653 C654 1.370 . S
C653 C657 1.524 . S
C654 C646 1.503 . S
C654 C653 1.370 . S
C654 C655 1.403 . S
C655 C654 1.403 . S
C655 C656 1.404 . S
C655 C658 1.539 . S
C656 C652 1.408 . S
C656 C655 1.404 . S
C656 H668 0.930 . S
C657 C653 1.524 . S
C657 H669 0.956 . S
C657 H670 0.961 . S
C657 H671 0.961 . S
C658 C655 1.539 . S
C658 H672 0.958 . S
C658 H673 0.961 . S
C658 H674 0.960 . S
H659 C643 0.931 . S
H660 C648 0.929 . S
H661 C649 0.960 . S
H662 C649 0.962 . S
H663 C649 0.960 . S
H664 C650 0.961 . S
H665 C650 0.961 . S
H666 C650 0.961 . S
H667 C651 0.931 . S
H668 C656 0.930 . S
H669 C657 0.956 . S
H670 C657 0.961 . S
H671 C657 0.961 . S
H672 C658 0.958 . S
H673 C658 0.961 . S
H674 C658 0.960 . S
C675 C676 1.391 . S
C675 C677 1.394 . S
C675 H691 0.931 . S
C676 C675 1.391 . S
C676 C680 1.376 . S
C677 C675 1.394 . S
C677 C678 1.369 . S
C677 C681 1.531 . S
C678 C677 1.369 . S
C678 C679 1.410 . S
C678 C686 1.503 . S
C679 C678 1.410 . S
C679 C680 1.392 . S
C679 C682 1.511 . S
C680 C676 1.376 . S
C680 C679 1.392 . S
C680 H692 0.929 . S
C681 C677 1.531 . S
C681 H693 0.960 . S
C681 H694 0.962 . S
C681 H695 0.960 . S
C682 C679 1.511 . S
C682 H696 0.961 . S
C682 H697 0.961 . S
C682 H698 0.961 . S
C683 C684 1.370 . S
C683 C685 1.363 . S
C683 H699 0.931 . S
C684 C683 1.370 . S
C684 C688 1.408 . S
C685 C683 1.363 . S
C685 C686 1.370 . S
C685 C689 1.524 . S
C686 C678 1.503 . S
C686 C685 1.370 . S
C686 C687 1.403 . S
C687 C686 1.403 . S
C687 C688 1.404 . S
C687 C690 1.539 . S
C688 C684 1.408 . S
C688 C687 1.404 . S
C688 H700 0.930 . S
C689 C685 1.524 . S
C689 H701 0.956 . S
C689 H702 0.961 . S
C689 H703 0.961 . S
C690 C687 1.539 . S
C690 H704 0.958 . S
C690 H705 0.961 . S
C690 H706 0.960 . S
H691 C675 0.931 . S
H692 C680 0.929 . S
H693 C681 0.960 . S
H694 C681 0.962 . S
H695 C681 0.960 . S
H696 C682 0.961 . S
H697 C682 0.961 . S
H698 C682 0.961 . S
H699 C683 0.931 . S
H700 C688 0.930 . S
H701 C689 0.956 . S
H702 C689 0.961 . S
H703 C689 0.961 . S
H704 C690 0.958 . S
H705 C690 0.961 . S
H706 C690 0.960 . S
C707 C708 1.391 . S
C707 C709 1.394 . S
C707 H723 0.931 . S
C708 C707 1.391 . S
C708 C712 1.376 . S
C709 C707 1.394 . S
C709 C710 1.369 . S
C709 C713 1.531 . S
C710 C709 1.369 . S
C710 C711 1.410 . S
C710 C718 1.503 . S
C711 C710 1.410 . S
C711 C712 1.392 . S
C711 C714 1.511 . S
C712 C708 1.376 . S
C712 C711 1.392 . S
C712 H724 0.929 . S
C713 C709 1.531 . S
C713 H725 0.960 . S
C713 H726 0.962 . S
C713 H727 0.960 . S
C714 C711 1.511 . S
C714 H728 0.961 . S
C714 H729 0.961 . S
C714 H730 0.961 . S
C715 C716 1.370 . S
C715 C717 1.363 . S
C715 H731 0.931 . S
C716 C715 1.370 . S
C716 C720 1.408 . S
C717 C715 1.363 . S
C717 C718 1.370 . S
C717 C721 1.524 . S
C718 C710 1.503 . S
C718 C717 1.370 . S
C718 C719 1.403 . S
C719 C718 1.403 . S
C719 C720 1.404 . S
C719 C722 1.539 . S
C720 C716 1.408 . S
C720 C719 1.404 . S
C720 H732 0.930 . S
C721 C717 1.524 . S
C721 H733 0.956 . S
C721 H734 0.961 . S
C721 H735 0.961 . S
C722 C719 1.539 . S
C722 H736 0.958 . S
C722 H737 0.961 . S
C722 H738 0.960 . S
H723 C707 0.931 . S
H724 C712 0.929 . S
H725 C713 0.960 . S
H726 C713 0.962 . S
H727 C713 0.960 . S
H728 C714 0.961 . S
H729 C714 0.961 . S
H730 C714 0.961 . S
H731 C715 0.931 . S
H732 C720 0.930 . S
H733 C721 0.956 . S
H734 C721 0.961 . S
H735 C721 0.961 . S
H736 C722 0.958 . S
H737 C722 0.961 . S
H738 C722 0.960 . S
C739 C740 1.391 . S
C739 C741 1.394 . S
C739 H755 0.931 . S
C740 C739 1.391 . S
C740 C744 1.376 . S
C741 C739 1.394 . S
C741 C742 1.369 . S
C741 C745 1.531 . S
C742 C741 1.369 . S
C742 C743 1.410 . S
C742 C750 1.503 . S
C743 C742 1.410 . S
C743 C744 1.392 . S
C743 C746 1.511 . S
C744 C740 1.376 . S
C744 C743 1.392 . S
C744 H756 0.929 . S
C745 C741 1.531 . S
C745 H757 0.960 . S
C745 H758 0.962 . S
C745 H759 0.960 . S
C746 C743 1.511 . S
C746 H760 0.961 . S
C746 H761 0.961 . S
C746 H762 0.961 . S
C747 C748 1.370 . S
C747 C749 1.363 . S
C747 H763 0.931 . S
C748 C747 1.370 . S
C748 C752 1.408 . S
C749 C747 1.363 . S
C749 C750 1.370 . S
C749 C753 1.524 . S
C750 C742 1.503 . S
C750 C749 1.370 . S
C750 C751 1.403 . S
C751 C750 1.403 . S
C751 C752 1.404 . S
C751 C754 1.539 . S
C752 C748 1.408 . S
C752 C751 1.404 . S
C752 H764 0.930 . S
C753 C749 1.524 . S
C753 H765 0.956 . S
C753 H766 0.961 . S
C753 H767 0.961 . S
C754 C751 1.539 . S
C754 H768 0.958 . S
C754 H769 0.961 . S
C754 H770 0.960 . S
H755 C739 0.931 . S
H756 C744 0.929 . S
H757 C745 0.960 . S
H758 C745 0.962 . S
H759 C745 0.960 . S
H760 C746 0.961 . S
H761 C746 0.961 . S
H762 C746 0.961 . S
H763 C747 0.931 . S
H764 C752 0.930 . S
H765 C753 0.956 . S
H766 C753 0.961 . S
H767 C753 0.961 . S
H768 C754 0.958 . S
H769 C754 0.961 . S
H770 C754 0.960 . S
C771 C772 1.391 . S
C771 C773 1.394 . S
C771 H787 0.931 . S
C772 C771 1.391 . S
C772 C776 1.376 . S
C773 C771 1.394 . S
C773 C774 1.369 . S
C773 C777 1.531 . S
C774 C773 1.369 . S
C774 C775 1.410 . S
C774 C782 1.503 . S
C775 C774 1.410 . S
C775 C776 1.392 . S
C775 C778 1.511 . S
C776 C772 1.376 . S
C776 C775 1.392 . S
C776 H788 0.929 . S
C777 C773 1.531 . S
C777 H789 0.960 . S
C777 H790 0.962 . S
C777 H791 0.960 . S
C778 C775 1.511 . S
C778 H792 0.961 . S
C778 H793 0.961 . S
C778 H794 0.961 . S
C779 C780 1.370 . S
C779 C781 1.363 . S
C779 H795 0.931 . S
C780 C779 1.370 . S
C780 C784 1.408 . S
C781 C779 1.363 . S
C781 C782 1.370 . S
C781 C785 1.524 . S
C782 C774 1.503 . S
C782 C781 1.370 . S
C782 C783 1.403 . S
C783 C782 1.403 . S
C783 C784 1.404 . S
C783 C786 1.539 . S
C784 C780 1.408 . S
C784 C783 1.404 . S
C784 H796 0.930 . S
C785 C781 1.524 . S
C785 H797 0.956 . S
C785 H798 0.961 . S
C785 H799 0.961 . S
C786 C783 1.539 . S
C786 H800 0.958 . S
C786 H801 0.961 . S
C786 H802 0.960 . S
H787 C771 0.931 . S
H788 C776 0.929 . S
H789 C777 0.960 . S
H790 C777 0.962 . S
H791 C777 0.960 . S
H792 C778 0.961 . S
H793 C778 0.961 . S
H794 C778 0.961 . S
H795 C779 0.931 . S
H796 C784 0.930 . S
H797 C785 0.956 . S
H798 C785 0.961 . S
H799 C785 0.961 . S
H800 C786 0.958 . S
H801 C786 0.961 . S
H802 C786 0.960 . S
C803 C804 1.391 . S
C803 C805 1.394 . S
C803 H819 0.931 . S
C804 C803 1.391 . S
C804 C808 1.376 . S
C805 C803 1.394 . S
C805 C806 1.369 . S
C805 C809 1.531 . S
C806 C805 1.369 . S
C806 C807 1.410 . S
C806 C814 1.503 . S
C807 C806 1.410 . S
C807 C808 1.392 . S
C807 C810 1.511 . S
C808 C804 1.376 . S
C808 C807 1.392 . S
C808 H820 0.929 . S
C809 C805 1.531 . S
C809 H821 0.960 . S
C809 H822 0.962 . S
C809 H823 0.960 . S
C810 C807 1.511 . S
C810 H824 0.961 . S
C810 H825 0.961 . S
C810 H826 0.961 . S
C811 C812 1.370 . S
C811 C813 1.363 . S
C811 H827 0.931 . S
C812 C811 1.370 . S
C812 C816 1.408 . S
C813 C811 1.363 . S
C813 C814 1.370 . S
C813 C817 1.524 . S
C814 C806 1.503 . S
C814 C813 1.370 . S
C814 C815 1.403 . S
C815 C814 1.403 . S
C815 C816 1.404 . S
C815 C818 1.539 . S
C816 C812 1.408 . S
C816 C815 1.404 . S
C816 H828 0.930 . S
C817 C813 1.524 . S
C817 H829 0.956 . S
C817 H830 0.961 . S
C817 H831 0.961 . S
C818 C815 1.539 . S
C818 H832 0.958 . S
C818 H833 0.961 . S
C818 H834 0.960 . S
H819 C803 0.931 . S
H820 C808 0.929 . S
H821 C809 0.960 . S
H822 C809 0.962 . S
H823 C809 0.960 . S
H824 C810 0.961 . S
H825 C810 0.961 . S
H826 C810 0.961 . S
H827 C811 0.931 . S
H828 C816 0.930 . S
H829 C817 0.956 . S
H830 C817 0.961 . S
H831 C817 0.961 . S
H832 C818 0.958 . S
H833 C818 0.961 . S
H834 C818 0.960 . S
C835 C836 1.391 . S
C835 C837 1.394 . S
C835 H851 0.931 . S
C836 C835 1.391 . S
C836 C840 1.376 . S
C837 C835 1.394 . S
C837 C838 1.369 . S
C837 C841 1.531 . S
C838 C837 1.369 . S
C838 C839 1.410 . S
C838 C846 1.503 . S
C839 C838 1.410 . S
C839 C840 1.392 . S
C839 C842 1.511 . S
C840 C836 1.376 . S
C840 C839 1.392 . S
C840 H852 0.929 . S
C841 C837 1.531 . S
C841 H853 0.960 . S
C841 H854 0.962 . S
C841 H855 0.960 . S
C842 C839 1.511 . S
C842 H856 0.961 . S
C842 H857 0.961 . S
C842 H858 0.961 . S
C843 C844 1.370 . S
C843 C845 1.363 . S
C843 H859 0.931 . S
C844 C843 1.370 . S
C844 C848 1.408 . S
C845 C843 1.363 . S
C845 C846 1.370 . S
C845 C849 1.524 . S
C846 C838 1.503 . S
C846 C845 1.370 . S
C846 C847 1.403 . S
C847 C846 1.403 . S
C847 C848 1.404 . S
C847 C850 1.539 . S
C848 C844 1.408 . S
C848 C847 1.404 . S
C848 H860 0.930 . S
C849 C845 1.524 . S
C849 H861 0.956 . S
C849 H862 0.961 . S
C849 H863 0.961 . S
C850 C847 1.539 . S
C850 H864 0.958 . S
C850 H865 0.961 . S
C850 H866 0.960 . S
H851 C835 0.931 . S
H852 C840 0.929 . S
H853 C841 0.960 . S
H854 C841 0.962 . S
H855 C841 0.960 . S
H856 C842 0.961 . S
H857 C842 0.961 . S
H858 C842 0.961 . S
H859 C843 0.931 . S
H860 C848 0.930 . S
H861 C849 0.956 . S
H862 C849 0.961 . S
H863 C849 0.961 . S
H864 C850 0.958 . S
H865 C850 0.961 . S
H866 C850 0.960 . S
C867 C868 1.391 . S
C867 C869 1.394 . S
C867 H883 0.931 . S
C868 C867 1.391 . S
C868 C872 1.376 . S
C869 C867 1.394 . S
C869 C870 1.369 . S
C869 C873 1.531 . S
C870 C869 1.369 . S
C870 C871 1.410 . S
C870 C878 1.503 . S
C871 C870 1.410 . S
C871 C872 1.392 . S
C871 C874 1.511 . S
C872 C868 1.376 . S
C872 C871 1.392 . S
C872 H884 0.929 . S
C873 C869 1.531 . S
C873 H885 0.960 . S
C873 H886 0.962 . S
C873 H887 0.960 . S
C874 C871 1.511 . S
C874 H888 0.961 . S
C874 H889 0.961 . S
C874 H890 0.961 . S
C875 C876 1.370 . S
C875 C877 1.363 . S
C875 H891 0.931 . S
C876 C875 1.370 . S
C876 C880 1.408 . S
C877 C875 1.363 . S
C877 C878 1.370 . S
C877 C881 1.524 . S
C878 C870 1.503 . S
C878 C877 1.370 . S
C878 C879 1.403 . S
C879 C878 1.403 . S
C879 C880 1.404 . S
C879 C882 1.539 . S
C880 C876 1.408 . S
C880 C879 1.404 . S
C880 H892 0.930 . S
C881 C877 1.524 . S
C881 H893 0.956 . S
C881 H894 0.961 . S
C881 H895 0.961 . S
C882 C879 1.539 . S
C882 H896 0.958 . S
C882 H897 0.961 . S
C882 H898 0.960 . S
H883 C867 0.931 . S
H884 C872 0.929 . S
H885 C873 0.960 . S
H886 C873 0.962 . S
H887 C873 0.960 . S
H888 C874 0.961 . S
H889 C874 0.961 . S
H890 C874 0.961 . S
H891 C875 0.931 . S
H892 C880 0.930 . S
H893 C881 0.956 . S
H894 C881 0.961 . S
H895 C881 0.961 . S
H896 C882 0.958 . S
H897 C882 0.961 . S
H898 C882 0.960 . S
C899 C900 1.391 . S
C899 C901 1.394 . S
C899 H915 0.931 . S
C900 C899 1.391 . S
C900 C904 1.376 . S
C901 C899 1.394 . S
C901 C902 1.369 . S
C901 C905 1.531 . S
C902 C901 1.369 . S
C902 C903 1.410 . S
C902 C910 1.503 . S
C903 C902 1.410 . S
C903 C904 1.392 . S
C903 C906 1.511 . S
C904 C900 1.376 . S
C904 C903 1.392 . S
C904 H916 0.929 . S
C905 C901 1.531 . S
C905 H917 0.960 . S
C905 H918 0.962 . S
C905 H919 0.960 . S
C906 C903 1.511 . S
C906 H920 0.961 . S
C906 H921 0.961 . S
C906 H922 0.961 . S
C907 C908 1.370 . S
C907 C909 1.363 . S
C907 H923 0.931 . S
C908 C907 1.370 . S
C908 C912 1.408 . S
C909 C907 1.363 . S
C909 C910 1.370 . S
C909 C913 1.524 . S
C910 C902 1.503 . S
C910 C909 1.370 . S
C910 C911 1.403 . S
C911 C910 1.403 . S
C911 C912 1.404 . S
C911 C914 1.539 . S
C912 C908 1.408 . S
C912 C911 1.404 . S
C912 H924 0.930 . S
C913 C909 1.524 . S
C913 H925 0.956 . S
C913 H926 0.961 . S
C913 H927 0.961 . S
C914 C911 1.539 . S
C914 H928 0.958 . S
C914 H929 0.961 . S
C914 H930 0.960 . S
H915 C899 0.931 . S
H916 C904 0.929 . S
H917 C905 0.960 . S
H918 C905 0.962 . S
H919 C905 0.960 . S
H920 C906 0.961 . S
H921 C906 0.961 . S
H922 C906 0.961 . S
H923 C907 0.931 . S
H924 C912 0.930 . S
H925 C913 0.956 . S
H926 C913 0.961 . S
H927 C913 0.961 . S
H928 C914 0.958 . S
H929 C914 0.961 . S
H930 C914 0.960 . S
C931 C932 1.391 . S
C931 C933 1.394 . S
C931 H947 0.931 . S
C932 C931 1.391 . S
C932 C936 1.376 . S
C933 C931 1.394 . S
C933 C934 1.369 . S
C933 C937 1.531 . S
C934 C933 1.369 . S
C934 C935 1.410 . S
C934 C942 1.503 . S
C935 C934 1.410 . S
C935 C936 1.392 . S
C935 C938 1.511 . S
C936 C932 1.376 . S
C936 C935 1.392 . S
C936 H948 0.929 . S
C937 C933 1.531 . S
C937 H949 0.960 . S
C937 H950 0.962 . S
C937 H951 0.960 . S
C938 C935 1.511 . S
C938 H952 0.961 . S
C938 H953 0.961 . S
C938 H954 0.961 . S
C939 C940 1.370 . S
C939 C941 1.363 . S
C939 H955 0.931 . S
C940 C939 1.370 . S
C940 C944 1.408 . S
C941 C939 1.363 . S
C941 C942 1.370 . S
C941 C945 1.524 . S
C942 C934 1.503 . S
C942 C941 1.370 . S
C942 C943 1.403 . S
C943 C942 1.403 . S
C943 C944 1.404 . S
C943 C946 1.539 . S
C944 C940 1.408 . S
C944 C943 1.404 . S
C944 H956 0.930 . S
C945 C941 1.524 . S
C945 H957 0.956 . S
C945 H958 0.961 . S
C945 H959 0.961 . S
C946 C943 1.539 . S
C946 H960 0.958 . S
C946 H961 0.961 . S
C946 H962 0.960 . S
H947 C931 0.931 . S
H948 C936 0.929 . S
H949 C937 0.960 . S
H950 C937 0.962 . S
H951 C937 0.960 . S
H952 C938 0.961 . S
H953 C938 0.961 . S
H954 C938 0.961 . S
H955 C939 0.931 . S
H956 C944 0.930 . S
H957 C945 0.956 . S
H958 C945 0.961 . S
H959 C945 0.961 . S
H960 C946 0.958 . S
H961 C946 0.961 . S
H962 C946 0.960 . S
C963 C964 1.391 . S
C963 C965 1.394 . S
C963 H979 0.931 . S
C964 C963 1.391 . S
C964 C968 1.376 . S
C965 C963 1.394 . S
C965 C966 1.369 . S
C965 C969 1.531 . S
C966 C965 1.369 . S
C966 C967 1.410 . S
C966 C974 1.503 . S
C967 C966 1.410 . S
C967 C968 1.392 . S
C967 C970 1.511 . S
C968 C964 1.376 . S
C968 C967 1.392 . S
C968 H980 0.929 . S
C969 C965 1.531 . S
C969 H981 0.960 . S
C969 H982 0.962 . S
C969 H983 0.960 . S
C970 C967 1.511 . S
C970 H984 0.961 . S
C970 H985 0.961 . S
C970 H986 0.961 . S
C971 C972 1.370 . S
C971 C973 1.363 . S
C971 H987 0.931 . S
C972 C971 1.370 . S
C972 C976 1.408 . S
C973 C971 1.363 . S
C973 C974 1.370 . S
C973 C977 1.524 . S
C974 C966 1.503 . S
C974 C973 1.370 . S
C974 C975 1.403 . S
C975 C974 1.403 . S
C975 C976 1.404 . S
C975 C978 1.539 . S
C976 C972 1.408 . S
C976 C975 1.404 . S
C976 H988 0.930 . S
C977 C973 1.524 . S
C977 H989 0.956 . S
C977 H990 0.961 . S
C977 H991 0.961 . S
C978 C975 1.539 . S
C978 H992 0.958 . S
C978 H993 0.961 . S
C978 H994 0.960 . S
H979 C963 0.931 . S
H980 C968 0.929 . S
H981 C969 0.960 . S
H982 C969 0.962 . S
H983 C969 0.960 . S
H984 C970 0.961 . S
H985 C970 0.961 . S
H986 C970 0.961 . S
H987 C971 0.931 . S
H988 C976 0.930 . S
H989 C977 0.956 . S
H990 C977 0.961 . S
H991 C977 0.961 . S
H992 C978 0.958 . S
H993 C978 0.961 . S
H994 C978 0.960 . S
C995 C996 1.391 . S
C995 C997 1.394 . S
C995 H1011 0.931 . S
C996 C995 1.391 . S
C996 C1000 1.376 . S
C997 C995 1.394 . S
C997 C998 1.369 . S
C997 C1001 1.531 . S
C998 C997 1.369 . S
C998 C999 1.410 . S
C998 C1006 1.503 . S
C999 C998 1.410 . S
C999 C1000 1.392 . S
C999 C1002 1.511 . S
C1000 C996 1.376 . S
C1000 C999 1.392 . S
C1000 H1012 0.929 . S
C1001 C997 1.531 . S
C1001 H1013 0.960 . S
C1001 H1014 0.962 . S
C1001 H1015 0.960 . S
C1002 C999 1.511 . S
C1002 H1016 0.961 . S
C1002 H1017 0.961 . S
C1002 H1018 0.961 . S
C1003 C1004 1.370 . S
C1003 C1005 1.363 . S
C1003 H1019 0.931 . S
C1004 C1003 1.370 . S
C1004 C1008 1.408 . S
C1005 C1003 1.363 . S
C1005 C1006 1.370 . S
C1005 C1009 1.524 . S
C1006 C998 1.503 . S
C1006 C1005 1.370 . S
C1006 C1007 1.403 . S
C1007 C1006 1.403 . S
C1007 C1008 1.404 . S
C1007 C1010 1.539 . S
C1008 C1004 1.408 . S
C1008 C1007 1.404 . S
C1008 H1020 0.930 . S
C1009 C1005 1.524 . S
C1009 H1021 0.956 . S
C1009 H1022 0.961 . S
C1009 H1023 0.961 . S
C1010 C1007 1.539 . S
C1010 H1024 0.958 . S
C1010 H1025 0.961 . S
C1010 H1026 0.960 . S
H1011 C995 0.931 . S
H1012 C1000 0.929 . S
H1013 C1001 0.960 . S
H1014 C1001 0.962 . S
H1015 C1001 0.960 . S
H1016 C1002 0.961 . S
H1017 C1002 0.961 . S
H1018 C1002 0.961 . S
H1019 C1003 0.931 . S
H1020 C1008 0.930 . S
H1021 C1009 0.956 . S
H1022 C1009 0.961 . S
H1023 C1009 0.961 . S
H1024 C1010 0.958 . S
H1025 C1010 0.961 . S
H1026 C1010 0.960 . S
C1027 C1028 1.391 . S
C1027 C1029 1.394 . S
C1027 H1043 0.931 . S
C1028 C1027 1.391 . S
C1028 C1032 1.376 . S
C1029 C1027 1.394 . S
C1029 C1030 1.369 . S
C1029 C1033 1.531 . S
C1030 C1029 1.369 . S
C1030 C1031 1.410 . S
C1030 C1038 1.503 . S
C1031 C1030 1.410 . S
C1031 C1032 1.392 . S
C1031 C1034 1.511 . S
C1032 C1028 1.376 . S
C1032 C1031 1.392 . S
C1032 H1044 0.929 . S
C1033 C1029 1.531 . S
C1033 H1045 0.960 . S
C1033 H1046 0.962 . S
C1033 H1047 0.960 . S
C1034 C1031 1.511 . S
C1034 H1048 0.961 . S
C1034 H1049 0.961 . S
C1034 H1050 0.961 . S
C1035 C1036 1.370 . S
C1035 C1037 1.363 . S
C1035 H1051 0.931 . S
C1036 C1035 1.370 . S
C1036 C1040 1.408 . S
C1037 C1035 1.363 . S
C1037 C1038 1.370 . S
C1037 C1041 1.524 . S
C1038 C1030 1.503 . S
C1038 C1037 1.370 . S
C1038 C1039 1.403 . S
C1039 C1038 1.403 . S
C1039 C1040 1.404 . S
C1039 C1042 1.539 . S
C1040 C1036 1.408 . S
C1040 C1039 1.404 . S
C1040 H1052 0.930 . S
C1041 C1037 1.524 . S
C1041 H1053 0.956 . S
C1041 H1054 0.961 . S
C1041 H1055 0.961 . S
C1042 C1039 1.539 . S
C1042 H1056 0.958 . S
C1042 H1057 0.961 . S
C1042 H1058 0.960 . S
H1043 C1027 0.931 . S
H1044 C1032 0.929 . S
H1045 C1033 0.960 . S
H1046 C1033 0.962 . S
H1047 C1033 0.960 . S
H1048 C1034 0.961 . S
H1049 C1034 0.961 . S
H1050 C1034 0.961 . S
H1051 C1035 0.931 . S
H1052 C1040 0.930 . S
H1053 C1041 0.956 . S
H1054 C1041 0.961 . S
H1055 C1041 0.961 . S
H1056 C1042 0.958 . S
H1057 C1042 0.961 . S
H1058 C1042 0.960 . S
C1059 C1060 1.391 . S
C1059 C1061 1.394 . S
C1059 H1075 0.931 . S
C1060 C1059 1.391 . S
C1060 C1064 1.376 . S
C1061 C1059 1.394 . S
C1061 C1062 1.369 . S
C1061 C1065 1.531 . S
C1062 C1061 1.369 . S
C1062 C1063 1.410 . S
C1062 C1070 1.503 . S
C1063 C1062 1.410 . S
C1063 C1064 1.392 . S
C1063 C1066 1.511 . S
C1064 C1060 1.376 . S
C1064 C1063 1.392 . S
C1064 H1076 0.929 . S
C1065 C1061 1.531 . S
C1065 H1077 0.960 . S
C1065 H1078 0.962 . S
C1065 H1079 0.960 . S
C1066 C1063 1.511 . S
C1066 H1080 0.961 . S
C1066 H1081 0.961 . S
C1066 H1082 0.961 . S
C1067 C1068 1.370 . S
C1067 C1069 1.363 . S
C1067 H1083 0.931 . S
C1068 C1067 1.370 . S
C1068 C1072 1.408 . S
C1069 C1067 1.363 . S
C1069 C1070 1.370 . S
C1069 C1073 1.524 . S
C1070 C1062 1.503 . S
C1070 C1069 1.370 . S
C1070 C1071 1.403 . S
C1071 C1070 1.403 . S
C1071 C1072 1.404 . S
C1071 C1074 1.539 . S
C1072 C1068 1.408 . S
C1072 C1071 1.404 . S
C1072 H1084 0.930 . S
C1073 C1069 1.524 . S
C1073 H1085 0.956 . S
C1073 H1086 0.961 . S
C1073 H1087 0.961 . S
C1074 C1071 1.539 . S
C1074 H1088 0.958 . S
C1074 H1089 0.961 . S
C1074 H1090 0.960 . S
H1075 C1059 0.931 . S
H1076 C1064 0.929 . S
H1077 C1065 0.960 . S
H1078 C1065 0.962 . S
H1079 C1065 0.960 . S
H1080 C1066 0.961 . S
H1081 C1066 0.961 . S
H1082 C1066 0.961 . S
H1083 C1067 0.931 . S
H1084 C1072 0.930 . S
H1085 C1073 0.956 . S
H1086 C1073 0.961 . S
H1087 C1073 0.961 . S
H1088 C1074 0.958 . S
H1089 C1074 0.961 . S
H1090 C1074 0.960 . S
C1091 C1092 1.391 . S
C1091 C1093 1.394 . S
C1091 H1107 0.931 . S
C1092 C1091 1.391 . S
C1092 C1096 1.376 . S
C1093 C1091 1.394 . S
C1093 C1094 1.369 . S
C1093 C1097 1.531 . S
C1094 C1093 1.369 . S
C1094 C1095 1.410 . S
C1094 C1102 1.503 . S
C1095 C1094 1.410 . S
C1095 C1096 1.392 . S
C1095 C1098 1.511 . S
C1096 C1092 1.376 . S
C1096 C1095 1.392 . S
C1096 H1108 0.929 . S
C1097 C1093 1.531 . S
C1097 H1109 0.960 . S
C1097 H1110 0.962 . S
C1097 H1111 0.960 . S
C1098 C1095 1.511 . S
C1098 H1112 0.961 . S
C1098 H1113 0.961 . S
C1098 H1114 0.961 . S
C1099 C1100 1.370 . S
C1099 C1101 1.363 . S
C1099 H1115 0.931 . S
C1100 C1099 1.370 . S
C1100 C1104 1.408 . S
C1101 C1099 1.363 . S
C1101 C1102 1.370 . S
C1101 C1105 1.524 . S
C1102 C1094 1.503 . S
C1102 C1101 1.370 . S
C1102 C1103 1.403 . S
C1103 C1102 1.403 . S
C1103 C1104 1.404 . S
C1103 C1106 1.539 . S
C1104 C1100 1.408 . S
C1104 C1103 1.404 . S
C1104 H1116 0.930 . S
C1105 C1101 1.524 . S
C1105 H1117 0.956 . S
C1105 H1118 0.961 . S
C1105 H1119 0.961 . S
C1106 C1103 1.539 . S
C1106 H1120 0.958 . S
C1106 H1121 0.961 . S
C1106 H1122 0.960 . S
H1107 C1091 0.931 . S
H1108 C1096 0.929 . S
H1109 C1097 0.960 . S
H1110 C1097 0.962 . S
H1111 C1097 0.960 . S
H1112 C1098 0.961 . S
H1113 C1098 0.961 . S
H1114 C1098 0.961 . S
H1115 C1099 0.931 . S
H1116 C1104 0.930 . S
H1117 C1105 0.956 . S
H1118 C1105 0.961 . S
H1119 C1105 0.961 . S
H1120 C1106 0.958 . S
H1121 C1106 0.961 . S
H1122 C1106 0.960 . S
C1123 C1124 1.391 . S
C1123 C1125 1.394 . S
C1123 H1139 0.931 . S
C1124 C1123 1.391 . S
C1124 C1128 1.376 . S
C1125 C1123 1.394 . S
C1125 C1126 1.369 . S
C1125 C1129 1.531 . S
C1126 C1125 1.369 . S
C1126 C1127 1.410 . S
C1126 C1134 1.503 . S
C1127 C1126 1.410 . S
C1127 C1128 1.392 . S
C1127 C1130 1.511 . S
C1128 C1124 1.376 . S
C1128 C1127 1.392 . S
C1128 H1140 0.929 . S
C1129 C1125 1.531 . S
C1129 H1141 0.960 . S
C1129 H1142 0.962 . S
C1129 H1143 0.960 . S
C1130 C1127 1.511 . S
C1130 H1144 0.961 . S
C1130 H1145 0.961 . S
C1130 H1146 0.961 . S
C1131 C1132 1.370 . S
C1131 C1133 1.363 . S
C1131 H1147 0.931 . S
C1132 C1131 1.370 . S
C1132 C1136 1.408 . S
C1133 C1131 1.363 . S
C1133 C1134 1.370 . S
C1133 C1137 1.524 . S
C1134 C1126 1.503 . S
C1134 C1133 1.370 . S
C1134 C1135 1.403 . S
C1135 C1134 1.403 . S
C1135 C1136 1.404 . S
C1135 C1138 1.539 . S
C1136 C1132 1.408 . S
C1136 C1135 1.404 . S
C1136 H1148 0.930 . S
C1137 C1133 1.524 . S
C1137 H1149 0.956 . S
C1137 H1150 0.961 . S
C1137 H1151 0.961 . S
C1138 C1135 1.539 . S
C1138 H1152 0.958 . S
C1138 H1153 0.961 . S
C1138 H1154 0.960 . S
H1139 C1123 0.931 . S
H1140 C1128 0.929 . S
H1141 C1129 0.960 . S
H1142 C1129 0.962 . S
H1143 C1129 0.960 . S
H1144 C1130 0.961 . S
H1145 C1130 0.961 . S
H1146 C1130 0.961 . S
H1147 C1131 0.931 . S
H1148 C1136 0.930 . S
H1149 C1137 0.956 . S
H1150 C1137 0.961 . S
H1151 C1137 0.961 . S
H1152 C1138 0.958 . S
H1153 C1138 0.961 . S
H1154 C1138 0.960 . S
C1155 C1156 1.391 . S
C1155 C1157 1.394 . S
C1155 H1171 0.931 . S
C1156 C1155 1.391 . S
C1156 C1160 1.376 . S
C1157 C1155 1.394 . S
C1157 C1158 1.369 . S
C1157 C1161 1.531 . S
C1158 C1157 1.369 . S
C1158 C1159 1.410 . S
C1158 C1166 1.503 . S
C1159 C1158 1.410 . S
C1159 C1160 1.392 . S
C1159 C1162 1.511 . S
C1160 C1156 1.376 . S
C1160 C1159 1.392 . S
C1160 H1172 0.929 . S
C1161 C1157 1.531 . S
C1161 H1173 0.960 . S
C1161 H1174 0.962 . S
C1161 H1175 0.960 . S
C1162 C1159 1.511 . S
C1162 H1176 0.961 . S
C1162 H1177 0.961 . S
C1162 H1178 0.961 . S
C1163 C1164 1.370 . S
C1163 C1165 1.363 . S
C1163 H1179 0.931 . S
C1164 C1163 1.370 . S
C1164 C1168 1.408 . S
C1165 C1163 1.363 . S
C1165 C1166 1.370 . S
C1165 C1169 1.524 . S
C1166 C1158 1.503 . S
C1166 C1165 1.370 . S
C1166 C1167 1.403 . S
C1167 C1166 1.403 . S
C1167 C1168 1.404 . S
C1167 C1170 1.539 . S
C1168 C1164 1.408 . S
C1168 C1167 1.404 . S
C1168 H1180 0.930 . S
C1169 C1165 1.524 . S
C1169 H1181 0.956 . S
C1169 H1182 0.961 . S
C1169 H1183 0.961 . S
C1170 C1167 1.539 . S
C1170 H1184 0.958 . S
C1170 H1185 0.961 . S
C1170 H1186 0.960 . S
H1171 C1155 0.931 . S
H1172 C1160 0.929 . S
H1173 C1161 0.960 . S
H1174 C1161 0.962 . S
H1175 C1161 0.960 . S
H1176 C1162 0.961 . S
H1177 C1162 0.961 . S
H1178 C1162 0.961 . S
H1179 C1163 0.931 . S
H1180 C1168 0.930 . S
H1181 C1169 0.956 . S
H1182 C1169 0.961 . S
H1183 C1169 0.961 . S
H1184 C1170 0.958 . S
H1185 C1170 0.961 . S
H1186 C1170 0.960 . S
C428 C344 1.099 . S
C420 C15 1.128 . S
C460 C380 1.608 . S
C452 C55 1.693 . S
C492 C345 1.464 . S
C484 C101 1.467 . S
C524 C375 1.591 . S
C516 C141 1.587 . S
C556 C342 1.473 . S
C548 C162 1.523 . S
C580 C215 1.744 . S
C588 C378 1.760 . S
C612 C261 1.215 . S
C620 C347 1.149 . S
C652 C377 1.467 . S
C644 C282 1.450 . S
C684 C381 1.492 . S
C676 C2 1.516 . S
C716 C346 1.484 . S
C708 C61 1.467 . S
C748 C374 1.760 . S
C740 C95 1.730 . S
C780 C343 1.115 . S
C772 C122 1.174 . S
C812 C376 1.681 . S
C804 C181 1.773 . S
C836 C202 1.480 . S
C844 C341 1.480 . S
C868 C242 1.530 . S
C876 C379 1.561 . S
C908 C348 1.009 . S
C900 C295 1.052 . S
C940 C410 1.744 . S
C932 C21 1.849 . S
C964 C175 1.985 . S
C972 C413 1.866 . S
C1004 C412 1.811 . S
C996 C221 1.887 . S
C1028 C255 2.100 . S
C1036 C411 2.116 . S
C1068 C414 1.725 . S
C1060 C301 1.787 . S
C1092 C82 1.773 . S
C1100 C408 1.719 . S
C1132 C407 2.134 . S
C1124 C135 2.112 . S
C1156 C42 1.939 . S
C1164 C409 1.919 . S
