# Generated by pormake.
# Topology iac, (4,6)-cn, num edge types: 1
# Building blocks:
#     Node 0, Type 0, BuildingBlock: QUQFOY_clean_sbu_1, # of connection points: 4
#     Node 1, Type 0, BuildingBlock: QUQFOY_clean_sbu_1, # of connection points: 4
#     Node 2, Type 0, BuildingBlock: QUQFOY_clean_sbu_1, # of connection points: 4
#     Node 3, Type 0, BuildingBlock: QUQFOY_clean_sbu_1, # of connection points: 4
#     Node 4, Type 0, BuildingBlock: QUQFOY_clean_sbu_1, # of connection points: 4
#     Node 5, Type 0, BuildingBlock: QUQFOY_clean_sbu_1, # of connection points: 4
#     Node 6, Type 0, BuildingBlock: QUQFOY_clean_sbu_1, # of connection points: 4
#     Node 7, Type 0, BuildingBlock: QUQFOY_clean_sbu_1, # of connection points: 4
#     Node 8, Type 0, BuildingBlock: QUQFOY_clean_sbu_1, # of connection points: 4
#     Node 9, Type 0, BuildingBlock: QUQFOY_clean_sbu_1, # of connection points: 4
#     Node 10, Type 0, BuildingBlock: QUQFOY_clean_sbu_1, # of connection points: 4
#     Node 11, Type 0, BuildingBlock: QUQFOY_clean_sbu_1, # of connection points: 4
#     Node 12, Type 0, BuildingBlock: QUQFOY_clean_sbu_1, # of connection points: 4
#     Node 13, Type 0, BuildingBlock: QUQFOY_clean_sbu_1, # of connection points: 4
#     Node 14, Type 0, BuildingBlock: QUQFOY_clean_sbu_1, # of connection points: 4
#     Node 15, Type 0, BuildingBlock: QUQFOY_clean_sbu_1, # of connection points: 4
#     Node 16, Type 0, BuildingBlock: QUQFOY_clean_sbu_1, # of connection points: 4
#     Node 17, Type 0, BuildingBlock: QUQFOY_clean_sbu_1, # of connection points: 4
#     Node 18, Type 0, BuildingBlock: QUQFOY_clean_sbu_1, # of connection points: 4
#     Node 19, Type 0, BuildingBlock: QUQFOY_clean_sbu_1, # of connection points: 4
#     Node 20, Type 0, BuildingBlock: QUQFOY_clean_sbu_1, # of connection points: 4
#     Node 21, Type 0, BuildingBlock: QUQFOY_clean_sbu_1, # of connection points: 4
#     Node 22, Type 0, BuildingBlock: QUQFOY_clean_sbu_1, # of connection points: 4
#     Node 23, Type 0, BuildingBlock: QUQFOY_clean_sbu_1, # of connection points: 4
#     Node 24, Type 1, BuildingBlock: JUFBIX_clean_sbu_0, # of connection points: 6
#     Node 25, Type 1, BuildingBlock: JUFBIX_clean_sbu_0, # of connection points: 6
#     Node 26, Type 1, BuildingBlock: JUFBIX_clean_sbu_0, # of connection points: 6
#     Node 27, Type 1, BuildingBlock: JUFBIX_clean_sbu_0, # of connection points: 6
#     Node 28, Type 1, BuildingBlock: JUFBIX_clean_sbu_0, # of connection points: 6
#     Node 29, Type 1, BuildingBlock: JUFBIX_clean_sbu_0, # of connection points: 6
#     Node 30, Type 1, BuildingBlock: JUFBIX_clean_sbu_0, # of connection points: 6
#     Node 31, Type 1, BuildingBlock: JUFBIX_clean_sbu_0, # of connection points: 6
#     Node 32, Type 1, BuildingBlock: JUFBIX_clean_sbu_0, # of connection points: 6
#     Node 33, Type 1, BuildingBlock: JUFBIX_clean_sbu_0, # of connection points: 6
#     Node 34, Type 1, BuildingBlock: JUFBIX_clean_sbu_0, # of connection points: 6
#     Node 35, Type 1, BuildingBlock: JUFBIX_clean_sbu_0, # of connection points: 6
#     Node 36, Type 1, BuildingBlock: JUFBIX_clean_sbu_0, # of connection points: 6
#     Node 37, Type 1, BuildingBlock: JUFBIX_clean_sbu_0, # of connection points: 6
#     Node 38, Type 1, BuildingBlock: JUFBIX_clean_sbu_0, # of connection points: 6
#     Node 39, Type 1, BuildingBlock: JUFBIX_clean_sbu_0, # of connection points: 6
#     Edge 40, Type (0, 1), BuildingBlock: XUDNAN_clean_linker_2, # of connection points: 2
#     Edge 41, Type (0, 1), BuildingBlock: XUDNAN_clean_linker_2, # of connection points: 2
#     Edge 42, Type (0, 1), BuildingBlock: XUDNAN_clean_linker_2, # of connection points: 2
#     Edge 43, Type (0, 1), BuildingBlock: XUDNAN_clean_linker_2, # of connection points: 2
#     Edge 44, Type (0, 1), BuildingBlock: XUDNAN_clean_linker_2, # of connection points: 2
#     Edge 45, Type (0, 1), BuildingBlock: XUDNAN_clean_linker_2, # of connection points: 2
#     Edge 46, Type (0, 1), BuildingBlock: XUDNAN_clean_linker_2, # of connection points: 2
#     Edge 47, Type (0, 1), BuildingBlock: XUDNAN_clean_linker_2, # of connection points: 2
#     Edge 48, Type (0, 1), BuildingBlock: XUDNAN_clean_linker_2, # of connection points: 2
#     Edge 49, Type (0, 1), BuildingBlock: XUDNAN_clean_linker_2, # of connection points: 2
#     Edge 50, Type (0, 1), BuildingBlock: XUDNAN_clean_linker_2, # of connection points: 2
#     Edge 51, Type (0, 1), BuildingBlock: XUDNAN_clean_linker_2, # of connection points: 2
#     Edge 52, Type (0, 1), BuildingBlock: XUDNAN_clean_linker_2, # of connection points: 2
#     Edge 53, Type (0, 1), BuildingBlock: XUDNAN_clean_linker_2, # of connection points: 2
#     Edge 54, Type (0, 1), BuildingBlock: XUDNAN_clean_linker_2, # of connection points: 2
#     Edge 55, Type (0, 1), BuildingBlock: XUDNAN_clean_linker_2, # of connection points: 2
#     Edge 56, Type (0, 1), BuildingBlock: XUDNAN_clean_linker_2, # of connection points: 2
#     Edge 57, Type (0, 1), BuildingBlock: XUDNAN_clean_linker_2, # of connection points: 2
#     Edge 58, Type (0, 1), BuildingBlock: XUDNAN_clean_linker_2, # of connection points: 2
#     Edge 59, Type (0, 1), BuildingBlock: XUDNAN_clean_linker_2, # of connection points: 2
#     Edge 60, Type (0, 1), BuildingBlock: XUDNAN_clean_linker_2, # of connection points: 2
#     Edge 61, Type (0, 1), BuildingBlock: XUDNAN_clean_linker_2, # of connection points: 2
#     Edge 62, Type (0, 1), BuildingBlock: XUDNAN_clean_linker_2, # of connection points: 2
#     Edge 63, Type (0, 1), BuildingBlock: XUDNAN_clean_linker_2, # of connection points: 2
#     Edge 64, Type (0, 1), BuildingBlock: XUDNAN_clean_linker_2, # of connection points: 2
#     Edge 65, Type (0, 1), BuildingBlock: XUDNAN_clean_linker_2, # of connection points: 2
#     Edge 66, Type (0, 1), BuildingBlock: XUDNAN_clean_linker_2, # of connection points: 2
#     Edge 67, Type (0, 1), BuildingBlock: XUDNAN_clean_linker_2, # of connection points: 2
#     Edge 68, Type (0, 1), BuildingBlock: XUDNAN_clean_linker_2, # of connection points: 2
#     Edge 69, Type (0, 1), BuildingBlock: XUDNAN_clean_linker_2, # of connection points: 2
#     Edge 70, Type (0, 1), BuildingBlock: XUDNAN_clean_linker_2, # of connection points: 2
#     Edge 71, Type (0, 1), BuildingBlock: XUDNAN_clean_linker_2, # of connection points: 2
#     Edge 72, Type (0, 1), BuildingBlock: XUDNAN_clean_linker_2, # of connection points: 2
#     Edge 73, Type (0, 1), BuildingBlock: XUDNAN_clean_linker_2, # of connection points: 2
#     Edge 74, Type (0, 1), BuildingBlock: XUDNAN_clean_linker_2, # of connection points: 2
#     Edge 75, Type (0, 1), BuildingBlock: XUDNAN_clean_linker_2, # of connection points: 2
#     Edge 76, Type (0, 1), BuildingBlock: XUDNAN_clean_linker_2, # of connection points: 2
#     Edge 77, Type (0, 1), BuildingBlock: XUDNAN_clean_linker_2, # of connection points: 2
#     Edge 78, Type (0, 1), BuildingBlock: XUDNAN_clean_linker_2, # of connection points: 2
#     Edge 79, Type (0, 1), BuildingBlock: XUDNAN_clean_linker_2, # of connection points: 2
#     Edge 80, Type (0, 1), BuildingBlock: XUDNAN_clean_linker_2, # of connection points: 2
#     Edge 81, Type (0, 1), BuildingBlock: XUDNAN_clean_linker_2, # of connection points: 2
#     Edge 82, Type (0, 1), BuildingBlock: XUDNAN_clean_linker_2, # of connection points: 2
#     Edge 83, Type (0, 1), BuildingBlock: XUDNAN_clean_linker_2, # of connection points: 2
#     Edge 84, Type (0, 1), BuildingBlock: XUDNAN_clean_linker_2, # of connection points: 2
#     Edge 85, Type (0, 1), BuildingBlock: XUDNAN_clean_linker_2, # of connection points: 2
#     Edge 86, Type (0, 1), BuildingBlock: XUDNAN_clean_linker_2, # of connection points: 2
#     Edge 87, Type (0, 1), BuildingBlock: XUDNAN_clean_linker_2, # of connection points: 2
#     Edge 88, Type (0, 1), BuildingBlock: XUDNAN_clean_linker_2, # of connection points: 2
#     Edge 89, Type (0, 1), BuildingBlock: XUDNAN_clean_linker_2, # of connection points: 2
#     Edge 90, Type (0, 1), BuildingBlock: XUDNAN_clean_linker_2, # of connection points: 2
#     Edge 91, Type (0, 1), BuildingBlock: XUDNAN_clean_linker_2, # of connection points: 2
#     Edge 92, Type (0, 1), BuildingBlock: XUDNAN_clean_linker_2, # of connection points: 2
#     Edge 93, Type (0, 1), BuildingBlock: XUDNAN_clean_linker_2, # of connection points: 2
#     Edge 94, Type (0, 1), BuildingBlock: XUDNAN_clean_linker_2, # of connection points: 2
#     Edge 95, Type (0, 1), BuildingBlock: XUDNAN_clean_linker_2, # of connection points: 2
#     Edge 96, Type (0, 1), BuildingBlock: XUDNAN_clean_linker_2, # of connection points: 2
#     Edge 97, Type (0, 1), BuildingBlock: XUDNAN_clean_linker_2, # of connection points: 2
#     Edge 98, Type (0, 1), BuildingBlock: XUDNAN_clean_linker_2, # of connection points: 2
#     Edge 99, Type (0, 1), BuildingBlock: XUDNAN_clean_linker_2, # of connection points: 2
#     Edge 100, Type (0, 1), BuildingBlock: XUDNAN_clean_linker_2, # of connection points: 2
#     Edge 101, Type (0, 1), BuildingBlock: XUDNAN_clean_linker_2, # of connection points: 2
#     Edge 102, Type (0, 1), BuildingBlock: XUDNAN_clean_linker_2, # of connection points: 2
#     Edge 103, Type (0, 1), BuildingBlock: XUDNAN_clean_linker_2, # of connection points: 2
#     Edge 104, Type (0, 1), BuildingBlock: XUDNAN_clean_linker_2, # of connection points: 2
#     Edge 105, Type (0, 1), BuildingBlock: XUDNAN_clean_linker_2, # of connection points: 2
#     Edge 106, Type (0, 1), BuildingBlock: XUDNAN_clean_linker_2, # of connection points: 2
#     Edge 107, Type (0, 1), BuildingBlock: XUDNAN_clean_linker_2, # of connection points: 2
#     Edge 108, Type (0, 1), BuildingBlock: XUDNAN_clean_linker_2, # of connection points: 2
#     Edge 109, Type (0, 1), BuildingBlock: XUDNAN_clean_linker_2, # of connection points: 2
#     Edge 110, Type (0, 1), BuildingBlock: XUDNAN_clean_linker_2, # of connection points: 2
#     Edge 111, Type (0, 1), BuildingBlock: XUDNAN_clean_linker_2, # of connection points: 2
#     Edge 112, Type (0, 1), BuildingBlock: XUDNAN_clean_linker_2, # of connection points: 2
#     Edge 113, Type (0, 1), BuildingBlock: XUDNAN_clean_linker_2, # of connection points: 2
#     Edge 114, Type (0, 1), BuildingBlock: XUDNAN_clean_linker_2, # of connection points: 2
#     Edge 115, Type (0, 1), BuildingBlock: XUDNAN_clean_linker_2, # of connection points: 2
#     Edge 116, Type (0, 1), BuildingBlock: XUDNAN_clean_linker_2, # of connection points: 2
#     Edge 117, Type (0, 1), BuildingBlock: XUDNAN_clean_linker_2, # of connection points: 2
#     Edge 118, Type (0, 1), BuildingBlock: XUDNAN_clean_linker_2, # of connection points: 2
#     Edge 119, Type (0, 1), BuildingBlock: XUDNAN_clean_linker_2, # of connection points: 2
#     Edge 120, Type (0, 1), BuildingBlock: XUDNAN_clean_linker_2, # of connection points: 2
#     Edge 121, Type (0, 1), BuildingBlock: XUDNAN_clean_linker_2, # of connection points: 2
#     Edge 122, Type (0, 1), BuildingBlock: XUDNAN_clean_linker_2, # of connection points: 2
#     Edge 123, Type (0, 1), BuildingBlock: XUDNAN_clean_linker_2, # of connection points: 2
#     Edge 124, Type (0, 1), BuildingBlock: XUDNAN_clean_linker_2, # of connection points: 2
#     Edge 125, Type (0, 1), BuildingBlock: XUDNAN_clean_linker_2, # of connection points: 2
#     Edge 126, Type (0, 1), BuildingBlock: XUDNAN_clean_linker_2, # of connection points: 2
#     Edge 127, Type (0, 1), BuildingBlock: XUDNAN_clean_linker_2, # of connection points: 2
#     Edge 128, Type (0, 1), BuildingBlock: XUDNAN_clean_linker_2, # of connection points: 2
#     Edge 129, Type (0, 1), BuildingBlock: XUDNAN_clean_linker_2, # of connection points: 2
#     Edge 130, Type (0, 1), BuildingBlock: XUDNAN_clean_linker_2, # of connection points: 2
#     Edge 131, Type (0, 1), BuildingBlock: XUDNAN_clean_linker_2, # of connection points: 2
#     Edge 132, Type (0, 1), BuildingBlock: XUDNAN_clean_linker_2, # of connection points: 2
#     Edge 133, Type (0, 1), BuildingBlock: XUDNAN_clean_linker_2, # of connection points: 2
#     Edge 134, Type (0, 1), BuildingBlock: XUDNAN_clean_linker_2, # of connection points: 2
#     Edge 135, Type (0, 1), BuildingBlock: XUDNAN_clean_linker_2, # of connection points: 2
# Relax obj value: 0.249
# Max RMSD: 0.249
# Mean RMSD: 0.172
data_MOF--net-iac--node1-QUQFOY_clean_sbu_1--node2-JUFBIX_clean_sbu_0--edge1-XUDNAN_clean_linker_2
_symmetry_space_group_name_H-M    P1
_symmetry_Int_Tables_number       1
_symmetry_cell_setting            triclinic
loop_
_symmetry_equiv_pos_as_xyz
'x, y, z'
_cell_length_a     55.037514
_cell_length_b     56.301748
_cell_length_c     56.001984
_cell_angle_alpha  90.602155
_cell_angle_beta   88.810151
_cell_angle_gamma 91.992516
loop_
_atom_site_label
_atom_site_type_symbol
_atom_site_fract_x
_atom_site_fract_y
_atom_site_fract_z
_atom_type_partial_charge
O0 O 0.02908 0.23957 0.14501 0.0
Cd1 Cd 0.03089 0.26896 0.16791 0.0
Cd2 Cd 0.06301 0.28489 0.1283 0.0
O3 O 0.05209 0.25043 0.11385 0.0
O4 O 1.00392 0.26178 0.19249 0.0
O5 O 1.00462 0.29383 0.17038 0.0
C6 C 0.99371 0.28106 0.18665 0.0
C7 C 0.063 0.32184 0.10601 0.0
C8 C 0.0387 0.23463 0.1247 0.0
C9 C 0.085 0.27807 0.17841 0.0
O10 O 0.08839 0.28375 0.15648 0.0
O11 O 0.0636 0.27254 0.18629 0.0
O12 O 0.07915 0.30599 0.10258 0.0
O13 O 0.04595 0.31657 0.12147 0.0
O14 O 0.10054 0.75281 0.40935 0.0
Cd15 Cd 0.07222 0.75894 0.43265 0.0
Cd16 Cd 0.04786 0.76202 0.39275 0.0
O17 O 0.07706 0.74416 0.37887 0.0
O18 O 0.07942 0.74496 0.46397 0.0
O19 O 0.05037 0.73109 0.44001 0.0
C20 C 0.06236 0.72931 0.4595 0.0
C21 C 0.00787 0.75327 0.38304 0.0
C22 C 0.09791 0.74482 0.38824 0.0
C23 C 0.05447 0.80616 0.4212 0.0
O24 O 0.05152 0.79778 0.40031 0.0
O25 O 0.06094 0.79281 0.43787 0.0
O26 O 0.02338 0.76134 0.36732 0.0
O27 O 0.01568 0.74785 0.40382 0.0
O28 O 0.52292 0.74074 0.64377 0.0
Cd29 Cd 0.52335 0.76758 0.66996 0.0
Cd30 Cd 0.55247 0.79346 0.63229 0.0
O31 O 0.54282 0.76039 0.61485 0.0
O32 O 0.49682 0.75884 0.6944 0.0
O33 O 0.49666 0.79169 0.67344 0.0
C34 C 0.48627 0.77824 0.68949 0.0
C35 C 0.55219 0.83068 0.61056 0.0
C36 C 0.53185 0.74136 0.62257 0.0
C37 C 0.57632 0.78273 0.68081 0.0
O38 O 0.57831 0.79194 0.66002 0.0
O39 O 0.55616 0.77291 0.68775 0.0
O40 O 0.56874 0.81524 0.60733 0.0
O41 O 0.53506 0.82503 0.62578 0.0
O42 O 0.62472 0.25296 0.89038 0.0
Cd43 Cd 0.59237 0.24753 0.90891 0.0
Cd44 Cd 0.57285 0.25886 0.86816 0.0
O45 O 0.60678 0.25062 0.85556 0.0
O46 O 0.59462 0.22209 0.93291 0.0
O47 O 0.57303 0.21862 0.89986 0.0
C48 C 0.58051 0.20937 0.91929 0.0
C49 C 0.53844 0.24846 0.84649 0.0
C50 C 0.626 0.25138 0.86775 0.0
C51 C 0.56746 0.29252 0.90941 0.0
O52 O 0.56829 0.2901 0.88686 0.0
O53 O 0.57444 0.27607 0.92267 0.0
O54 O 0.55394 0.26454 0.83909 0.0
O55 O 0.54334 0.23703 0.86556 0.0
O56 O 0.12244 0.00526 0.26174 0.0
Cd57 Cd 0.15037 0.01045 0.28509 0.0
Cd58 Cd 0.11325 0.02586 0.31154 0.0
O59 O 0.091 0.01525 0.28408 0.0
O60 O 0.17704 0.99597 0.2664 0.0
O61 O 0.16358 0.98176 0.30105 0.0
C62 C 0.17776 0.97991 0.28252 0.0
C63 C 0.11011 0.01023 0.34917 0.0
C64 C 0.09969 0.00752 0.26447 0.0
C65 C 0.15257 0.06145 0.30174 0.0
O66 O 0.13105 0.05836 0.30999 0.0
O67 O 0.16366 0.0444 0.29189 0.0
O68 O 0.0942 0.02455 0.34165 0.0
O69 O 0.12733 1.00371 0.33476 0.0
O70 O 0.26655 0.90156 0.62171 0.0
Cd71 Cd 0.26013 0.92787 0.59815 0.0
Cd72 Cd 0.27736 0.89798 0.56469 0.0
O73 O 0.27443 0.87539 0.59333 0.0
O74 O 0.23042 0.94425 0.60841 0.0
O75 O 0.23271 0.92039 0.57659 0.0
C76 C 0.21987 0.93349 0.59072 0.0
C77 C 0.26968 0.88062 0.52768 0.0
C78 C 0.2707 0.8804 0.61521 0.0
C79 C 0.30401 0.94563 0.57288 0.0
O80 O 0.30323 0.92529 0.56286 0.0
O81 O 0.2877 0.9513 0.58803 0.0
O82 O 0.28905 0.87647 0.53919 0.0
O83 O 0.25408 0.89449 0.53747 0.0
O84 O 0.4063 0.0539 0.70593 0.0
Cd85 Cd 0.37651 0.05511 0.72836 0.0
Cd86 Cd 0.40652 0.02271 0.75336 0.0
O87 O 0.43172 0.03574 0.72901 0.0
O88 O 0.35619 0.078 0.71237 0.0
O89 O 0.37185 0.08442 0.74814 0.0
C90 C 0.35869 0.09146 0.73091 0.0
C91 C 0.42134 0.0116 0.79008 0.0
C92 C 0.42746 0.04695 0.71013 0.0
C93 C 0.35684 0.00617 0.73607 0.0
O94 O 0.37786 1.00088 0.74273 0.0
O95 O 0.35202 0.02738 0.73147 0.0
O96 O 0.42488 0.99916 0.77102 0.0
O97 O 0.40988 0.03111 0.78834 0.0
O98 O 0.29359 0.16286 0.06769 0.0
Cd99 Cd 0.29173 0.13705 0.04056 0.0
Cd100 Cd 0.26914 0.18211 0.01987 0.0
O101 O 0.2783 0.19611 0.05459 0.0
O102 O 0.31031 0.11035 0.05475 0.0
O103 O 0.32319 0.12835 0.02208 0.0
C104 C 0.32684 0.11276 0.03824 0.0
C105 C 0.27959 0.2014 0.98262 0.0
C106 C 0.28805 0.18448 0.07127 0.0
C107 C 0.23915 0.13349 0.02309 0.0
O108 O 0.24135 0.15549 0.01766 0.0
O109 O 0.25686 0.12278 0.03207 0.0
O110 O 0.26092 0.20743 0.99534 0.0
O111 O 0.29292 0.1853 0.99143 0.0
O112 O 0.76226 0.43226 0.11696 0.0
Cd113 Cd 0.75812 0.45796 0.09223 0.0
Cd114 Cd 0.77307 0.42368 0.05792 0.0
O115 O 0.76196 0.40532 0.08811 0.0
O116 O 0.72709 0.47406 0.09753 0.0
O117 O 0.73399 0.44798 0.06818 0.0
C118 C 0.71906 0.46121 0.07989 0.0
C119 C 0.77727 0.39806 0.02523 0.0
C120 C 0.7605 0.41073 0.11014 0.0
C121 C 0.80257 0.47113 0.06669 0.0
O122 O 0.79941 0.45076 0.05703 0.0
O123 O 0.78736 0.47884 0.08194 0.0
O124 O 0.79181 0.39799 0.04286 0.0
O125 O 0.7599 0.41289 0.02593 0.0
O126 O 0.91322 0.54528 0.20194 0.0
Cd127 Cd 0.88614 0.5516 0.22611 0.0
Cd128 Cd 0.92077 0.54488 0.26206 0.0
O129 O 0.94041 0.54375 0.23024 0.0
O130 O 0.86609 0.57862 0.21754 0.0
O131 O 0.89285 0.57957 0.24686 0.0
C132 C 0.877 0.59023 0.2345 0.0
C133 C 0.94574 0.55218 0.29463 0.0
C134 C 0.93508 0.54365 0.20828 0.0
C135 C 0.87185 0.51579 0.26083 0.0
O136 O 0.89135 0.52262 0.27097 0.0
O137 O 0.86624 0.5241 0.24083 0.0
O138 O 0.94512 0.53212 0.28347 0.0
O139 O 0.93208 0.56863 0.28719 0.0
O140 O 0.79207 0.66862 0.57185 0.0
Cd141 Cd 0.78995 0.64299 0.54481 0.0
Cd142 Cd 0.7606 0.6821 0.52614 0.0
O143 O 0.77107 0.69876 0.55934 0.0
O144 O 0.81462 0.61884 0.55416 0.0
O145 O 0.81763 0.63862 0.52051 0.0
C146 C 0.82655 0.62326 0.53458 0.0
C147 C 0.76246 0.70152 0.48786 0.0
C148 C 0.78373 0.68926 0.57544 0.0
C149 C 0.73598 0.63229 0.53509 0.0
O150 O 0.73428 0.65383 0.52852 0.0
O151 O 0.75638 0.62468 0.54162 0.0
O152 O 0.74568 0.7055 0.5037 0.0
O153 O 0.77925 0.68745 0.49401 0.0
O154 O 0.6289 0.52509 0.76251 0.0
Cd155 Cd 0.65476 0.52783 0.78859 0.0
Cd156 Cd 0.61606 0.53783 0.81588 0.0
O157 O 0.59673 0.52939 0.786 0.0
O158 O 0.68468 0.51854 0.77118 0.0
O159 O 0.66948 0.49874 0.80224 0.0
C160 C 0.68625 0.5013 0.78591 0.0
C161 C 0.60928 0.5168 0.85038 0.0
C162 C 0.60599 0.52555 0.76547 0.0
C163 C 0.65326 0.57589 0.81354 0.0
O164 O 0.63137 0.5714 0.81996 0.0
O165 O 0.66516 0.56054 0.8019 0.0
O166 O 0.59383 0.53178 0.84325 0.0
O167 O 0.62856 0.51321 0.83746 0.0
O168 O 0.07671 0.77823 0.90499 0.0
Cd169 Cd 0.04879 0.77843 0.93081 0.0
Cd170 Cd 0.02345 0.79482 0.88476 0.0
O171 O 0.05663 0.7816 0.87119 0.0
O172 O 0.06186 0.75925 0.95817 0.0
O173 O 0.03117 0.74567 0.93716 0.0
C174 C 0.04665 0.74189 0.95362 0.0
C175 C 0.98823 0.79518 0.85969 0.0
C176 C 0.07632 0.77812 0.88223 0.0
C177 C 0.03184 0.82975 0.92898 0.0
O178 O 0.02605 0.82455 0.90752 0.0
O179 O 0.03956 0.81356 0.94262 0.0
O180 O 0.00729 0.80864 0.85593 0.0
O181 O 0.98919 0.78056 0.87722 0.0
O182 O 0.028 0.26351 0.65197 0.0
Cd183 Cd 0.02907 0.30023 0.65544 0.0
Cd184 Cd 0.04524 0.29587 0.6103 0.0
O185 O 0.03273 0.26125 0.61277 0.0
O186 O 0.01327 0.30691 0.68713 0.0
O187 O 0.99965 0.32002 0.65303 0.0
C188 C 0.9979 0.31923 0.67598 0.0
C189 C 0.02688 0.32479 0.58891 0.0
C190 C 0.02881 0.25124 0.63278 0.0
C191 C 0.08097 0.31422 0.64454 0.0
O192 O 0.07888 0.30366 0.6245 0.0
O193 O 0.0626 0.3168 0.65824 0.0
O194 O 0.04124 0.31019 0.57821 0.0
O195 O 0.0225 0.32221 0.61146 0.0
O196 O 0.53391 0.23642 0.41274 0.0
Cd197 Cd 0.53647 0.26123 0.3853 0.0
Cd198 Cd 0.51586 0.2921 0.42532 0.0
O199 O 0.52357 0.25957 0.44338 0.0
O200 O 0.55776 0.24613 0.35987 0.0
O201 O 0.56935 0.27887 0.37872 0.0
C202 C 0.57439 0.26245 0.36329 0.0
C203 C 0.52681 0.33131 0.44087 0.0
C204 C 0.52934 0.23911 0.43499 0.0
C205 C 0.48629 0.28213 0.37851 0.0
O206 O 0.48821 0.2916 0.39932 0.0
O207 O 0.50348 0.26996 0.36956 0.0
O208 O 0.50844 0.31907 0.44944 0.0
O209 O 0.53956 0.32103 0.42435 0.0
O210 O 0.49278 0.74449 0.14529 0.0
Cd211 Cd 0.50386 0.77483 0.16359 0.0
Cd212 Cd 0.52131 0.78654 0.11926 0.0
O213 O 0.5021 0.75655 0.10867 0.0
O214 O 0.484 0.77669 0.19408 0.0
O215 O 0.48171 0.802 0.16442 0.0
C216 C 0.4742 0.79502 0.18516 0.0
C217 C 0.51304 0.82488 0.10843 0.0
C218 C 0.49314 0.74088 0.12282 0.0
C219 C 0.55801 0.77887 0.15618 0.0
O220 O 0.55417 0.7808 0.13401 0.0
O221 O 0.54043 0.77835 0.17134 0.0
O222 O 0.52433 0.81112 0.09362 0.0
O223 O 0.50603 0.81643 0.12877 0.0
O224 O 0.88436 0.07 0.71898 0.0
Cd225 Cd 0.85607 0.0807 0.74052 0.0
Cd226 Cd 0.87781 0.05595 0.77482 0.0
O227 O 0.89805 0.0452 0.7455 0.0
O228 O 0.84586 0.11344 0.73258 0.0
O229 O 0.86362 0.104 0.76619 0.0
C230 C 0.85471 0.12 0.75293 0.0
C231 C 0.8989 0.06584 0.80948 0.0
C232 C 0.89867 0.05385 0.72462 0.0
C233 C 0.8262 0.04212 0.76375 0.0
O234 O 0.84334 0.04126 0.77851 0.0
O235 O 0.82783 0.05604 0.74599 0.0
O236 O 0.89557 0.04401 0.80286 0.0
O237 O 0.89021 0.08207 0.79641 0.0
O238 O 0.83767 0.1871 0.55545 0.0
Cd239 Cd 0.83549 0.16077 0.52975 0.0
Cd240 Cd 0.8038 0.1899 0.5122 0.0
O241 O 0.80984 0.21032 0.54187 0.0
O242 O 0.86363 0.14138 0.53734 0.0
O243 O 0.8596 0.1588 0.50239 0.0
C244 C 0.87197 0.14584 0.51615 0.0
C245 C 0.81517 0.20414 0.47536 0.0
C246 C 0.82535 0.20568 0.55741 0.0
C247 C 0.78464 0.1413 0.52221 0.0
O248 O 0.77968 0.16158 0.51432 0.0
O249 O 0.80579 0.13742 0.52964 0.0
O250 O 0.79537 0.21084 0.4858 0.0
O251 O 0.82856 0.18942 0.4861 0.0
O252 O 0.66661 0.01192 0.24552 0.0
Cd253 Cd 0.68345 0.00644 0.27721 0.0
Cd254 Cd 0.65415 0.0392 0.29247 0.0
O255 O 0.64136 0.03908 0.25833 0.0
O256 O 0.70204 0.97742 0.27221 0.0
O257 O 0.67205 0.98006 0.29903 0.0
C258 C 0.68892 0.96787 0.28907 0.0
C259 C 0.62928 0.0299 0.32471 0.0
C260 C 0.6499 0.02629 0.24154 0.0
C261 C 0.7073 0.05118 0.29432 0.0
O262 O 0.68594 0.05819 0.29846 0.0
O263 O 0.71052 0.03049 0.28603 0.0
O264 O 0.62972 0.05098 0.31581 0.0
O265 O 0.64254 0.01395 0.3148 0.0
O266 O 0.77608 0.89472 0.07653 0.0
Cd267 Cd 0.77426 0.92052 0.04928 0.0
Cd268 Cd 0.80213 0.88638 0.023 0.0
O269 O 0.79648 0.86789 0.05579 0.0
O270 O 0.74584 0.94242 0.05635 0.0
O271 O 0.74697 0.91845 0.02516 0.0
C272 C 0.73541 0.93425 0.03737 0.0
C273 C 0.78996 0.87316 0.98368 0.0
C274 C 0.78638 0.8747 0.07545 0.0
C275 C 0.82729 0.93442 0.03306 0.0
O276 O 0.8294 0.91333 0.02487 0.0
O277 O 0.80689 0.94089 0.04201 0.0
O278 O 0.8084 0.8644 0.99397 0.0
O279 O 0.77785 0.8885 0.99598 0.0
O280 O 0.31875 0.65366 0.05431 0.0
Cd281 Cd 0.32174 0.65108 0.0173 0.0
Cd282 Cd 0.31765 0.69508 0.02372 0.0
O283 O 0.33347 0.69029 0.05569 0.0
O284 O 0.32706 0.61703 0.01098 0.0
O285 O 0.35433 0.64561 1.00202 0.0
C286 C 0.34814 0.62327 1.00231 0.0
C287 C 0.33474 0.71676 0.99299 0.0
C288 C 0.32713 0.67125 0.06636 0.0
C289 C 0.27522 0.6695 0.00659 0.0
O290 O 0.28114 0.68543 0.02178 0.0
O291 O 0.29148 0.65655 0.99765 0.0
O292 O 0.32418 0.72721 0.01087 0.0
O293 O 0.3366 0.69392 0.99337 0.0
O294 O 0.17292 0.52932 0.73367 0.0
Cd295 Cd 0.19846 0.51635 0.75561 0.0
Cd296 Cd 0.16969 0.53175 0.79199 0.0
O297 O 0.14951 0.54205 0.76342 0.0
O298 O 0.21381 0.4869 0.74468 0.0
O299 O 0.19018 0.48982 0.77727 0.0
C300 C 0.20475 0.47755 0.76406 0.0
C301 C 0.14783 0.51976 0.82584 0.0
C302 C 0.15398 0.53949 0.74122 0.0
C303 C 0.2228 0.54915 0.78826 0.0
O304 O 0.20275 0.54813 0.79989 0.0
O305 O 0.22495 0.53867 0.76825 0.0
O306 O 0.15046 0.54183 0.82031 0.0
O307 O 0.15703 0.50407 0.81173 0.0
O308 O 0.27615 0.40091 0.57443 0.0
Cd309 Cd 0.27382 0.42791 0.54908 0.0
Cd310 Cd 0.29686 0.39017 0.51755 0.0
O311 O 0.29343 0.37339 0.55178 0.0
O312 O 0.25255 0.45232 0.56504 0.0
O313 O 0.24144 0.43338 0.53236 0.0
C314 C 0.23635 0.44858 0.549 0.0
C315 C 0.28982 0.36861 0.48055 0.0
C316 C 0.28512 0.3804 0.57218 0.0
C317 C 0.32414 0.43873 0.52503 0.0
O318 O 0.32278 0.41832 0.51488 0.0
O319 O 0.30703 0.44566 0.53897 0.0
O320 O 0.30798 0.36461 0.49393 0.0
O321 O 0.27491 0.38429 0.48826 0.0
O322 O 0.386 0.54209 0.22985 0.0
Cd323 Cd 0.36183 0.55535 0.25489 0.0
Cd324 Cd 0.38328 0.52543 0.28207 0.0
O325 O 0.39675 0.51144 0.25081 0.0
O326 O 0.35204 0.58602 0.24137 0.0
O327 O 0.37007 0.58308 0.27624 0.0
C328 C 0.36103 0.59614 0.26013 0.0
C329 C 0.41109 0.53972 0.30944 0.0
C330 C 0.39702 0.52272 0.23133 0.0
C331 C 0.32974 0.51966 0.28004 0.0
O332 O 0.3485 0.51528 0.29187 0.0
O333 O 0.33121 0.53459 0.26313 0.0
O334 O 0.40563 0.51727 0.30791 0.0
O335 O 0.40028 0.554 0.29564 0.0
Co336 Co 0.02825 0.04413 0.00652 0.0
C337 C 0.02981 0.07258 0.04836 0.0
Co338 Co 0.03835 0.02424 0.03796 0.0
C339 C 1.00332 0.05822 0.96401 0.0
C340 C 0.0317 0.0829 0.97449 0.0
N341 N 0.02089 0.06179 0.98023 0.0
N342 N 1.00266 0.07644 0.94856 0.0
C343 C 0.02056 0.09193 0.95506 0.0
H344 H 0.99075 0.043 0.96407 0.0
H345 H 0.04643 0.09148 0.98418 0.0
C346 C 0.03656 0.99577 0.99613 0.0
N347 N 0.04643 0.00683 0.06426 0.0
C348 C 0.03964 0.00972 0.08737 0.0
C349 C 0.0611 0.98814 0.06406 0.0
N350 N 0.0496 0.99361 0.10162 0.0
C351 C 0.06294 0.97991 0.08685 0.0
C352 C 0.98783 0.02201 0.02894 0.0
O353 O 0.03001 0.01518 0.98697 0.0
O354 O 0.04241 0.99618 0.01797 0.0
O355 O 1.00415 0.01427 0.04244 0.0
O356 O 0.99424 0.03672 0.01267 0.0
O357 O 0.03397 0.05264 0.05785 0.0
H358 H 0.07029 0.98111 0.04841 0.0
H359 H 0.02829 0.02387 0.09368 0.0
O360 O 0.02652 0.07291 0.02597 0.0
O361 O 0.06202 0.05147 1.00059 0.0
O362 O 0.07267 0.03431 0.03332 0.0
C363 C 0.0786 0.04682 0.01512 0.0
H364 H 0.02522 0.10864 0.94645 0.0
H365 H 0.07366 0.96515 0.09206 0.0
Co366 Co 0.29011 0.79586 0.29996 0.0
C367 C 0.3095 0.75472 0.28422 0.0
Co368 Co 0.27767 0.78609 0.26399 0.0
C369 C 0.28516 0.81432 0.34716 0.0
C370 C 0.32212 0.80617 0.33889 0.0
N371 N 0.2997 0.80585 0.32966 0.0
N372 N 0.29752 0.81987 0.36706 0.0
C373 C 0.32084 0.81477 0.36196 0.0
H374 H 0.26573 0.81593 0.34541 0.0
H375 H 0.3383 0.80046 0.32947 0.0
C376 C 0.25944 0.82799 0.27845 0.0
N377 N 0.26778 0.77545 0.23444 0.0
C378 C 0.28142 0.76319 0.2187 0.0
C379 C 0.24478 0.77265 0.22672 0.0
N380 N 0.26781 0.75208 0.20203 0.0
C381 C 0.24473 0.75805 0.20683 0.0
C382 C 0.2478 0.76848 0.30062 0.0
O383 O 0.2716 0.82401 0.29698 0.0
O384 O 0.25902 0.81288 0.26151 0.0
O385 O 0.25101 0.76897 0.27816 0.0
O386 O 0.26287 0.77959 0.31384 0.0
O387 O 0.29693 0.75946 0.26634 0.0
H388 H 0.2289 0.77908 0.2361 0.0
H389 H 0.30064 0.76051 0.22079 0.0
O390 O 0.30877 0.76802 0.30262 0.0
O391 O 0.31755 0.81176 0.28589 0.0
O392 O 0.30437 0.80308 0.24996 0.0
C393 C 0.32027 0.81278 0.26336 0.0
H394 H 0.33593 0.81728 0.37391 0.0
H395 H 0.22889 0.75128 0.19747 0.0
Co396 Co 0.52515 0.03332 0.5205 0.0
C397 C 0.54312 0.08085 0.51194 0.0
Co398 Co 0.56233 0.04076 0.53219 0.0
C399 C 0.47393 0.02416 0.52539 0.0
C400 C 0.48426 0.02973 0.48878 0.0
N401 N 0.49338 0.02872 0.51094 0.0
N402 N 0.45313 0.02241 0.51324 0.0
C403 C 0.45942 0.02559 0.49013 0.0
H404 H 0.47492 0.02182 0.5445 0.0
H405 H 0.49491 0.03339 0.47271 0.0
C406 C 0.54494 0.99326 0.54074 0.0
N407 N 0.59377 0.04458 0.54247 0.0
C408 C 0.61382 0.05356 0.53112 0.0
C409 C 0.60178 0.03596 0.56318 0.0
N410 N 0.634 0.05053 0.54387 0.0
C411 C 0.62648 0.03957 0.56407 0.0
C412 C 0.52841 0.04982 0.56708 0.0
O413 O 0.52488 1.00072 0.53323 0.0
O414 O 0.56324 0.00768 0.54069 0.0
O415 O 0.55104 0.04843 0.56324 0.0
O416 O 0.51394 0.04483 0.55033 0.0
O417 O 0.56126 0.07389 0.52352 0.0
H418 H 0.59042 0.02701 0.57653 0.0
H419 H 0.61373 0.06139 0.51354 0.0
O420 O 0.52566 0.06587 0.50786 0.0
O421 O 0.53667 0.02187 0.49076 0.0
O422 O 0.57363 0.03325 0.50096 0.0
C423 C 0.55912 0.02452 0.4856 0.0
H424 H 0.44693 0.02528 0.47544 0.0
H425 H 0.63803 0.03457 0.57847 0.0
Co426 Co 0.31116 0.29551 0.77826 0.0
C427 C 0.2936 0.3083 0.73417 0.0
Co428 Co 0.27215 0.2868 0.7764 0.0
C429 C 0.35929 0.28463 0.78966 0.0
C430 C 0.35851 0.31976 0.7756 0.0
N431 N 0.34415 0.30071 0.78125 0.0
N432 N 0.38261 0.29269 0.78954 0.0
C433 C 0.38224 0.31489 0.78069 0.0
H434 H 0.3532 0.26708 0.79538 0.0
H435 H 0.35216 0.33605 0.76822 0.0
C436 C 0.29056 0.27369 0.8202 0.0
N437 N 0.2393 0.28138 0.77317 0.0
C438 C 0.22464 0.29675 0.76287 0.0
C439 C 0.22608 0.26082 0.77477 0.0
N440 N 0.20313 0.2865 0.75716 0.0
C441 C 0.20381 0.26386 0.76462 0.0
C442 C 0.29966 0.25046 0.76058 0.0
O443 O 0.30941 0.28357 0.81051 0.0
O444 O 0.27098 0.2727 0.80834 0.0
O445 O 0.27792 0.2569 0.76265 0.0
O446 O 0.31686 0.26456 0.76677 0.0
O447 O 0.27367 0.30107 0.74414 0.0
H448 H 0.23294 0.24423 0.78093 0.0
H449 H 0.2306 0.31441 0.7573 0.0
O450 O 0.31302 0.30703 0.74597 0.0
O451 O 0.30513 0.32678 0.78965 0.0
O452 O 0.26631 0.31639 0.79012 0.0
C453 C 0.28315 0.33166 0.79423 0.0
H454 H 0.39786 0.32688 0.77828 0.0
H455 H 0.18994 0.25016 0.76143 0.0
Co456 Co 0.01819 0.9997 0.54343 0.0
C457 C 1.00148 0.01466 0.58647 0.0
Co458 Co 0.04081 0.02968 0.55696 0.0
C459 C 0.0108 0.95652 0.51828 0.0
C460 C 0.97678 0.9728 0.52511 0.0
N461 N 1.00071 0.97488 0.52982 0.0
N462 N 0.99435 0.9433 0.50613 0.0
C463 C 0.97283 0.95338 0.51029 0.0
H464 H 0.03021 0.95398 0.51728 0.0
H465 H 0.96337 0.98536 0.53088 0.0
C466 C 0.05728 0.0143 0.51371 0.0
N467 N 0.05793 0.05496 0.57051 0.0
C468 C 0.04787 0.07496 0.57888 0.0
C469 C 0.08147 0.05694 0.57678 0.0
N470 N 0.064 0.08926 0.59026 0.0
C471 C 0.08522 0.07806 0.58911 0.0
C472 C 0.05692 0.9859 0.56987 0.0
O473 O 0.03855 1.00079 0.51629 0.0
O474 O 0.0628 0.02919 0.53011 0.0
O475 O 0.06024 0.00817 0.5727 0.0
O476 O 0.03914 0.97809 0.55765 0.0
O477 O 0.01879 0.02993 0.58359 0.0
H478 H 0.0948 0.04359 0.57329 0.0
H479 H 0.02872 0.07848 0.57764 0.0
O480 O 0.99781 0.99863 0.57076 0.0
O481 O 0.9977 0.02137 0.52886 0.0
O482 O 0.02133 0.05104 0.5409 0.0
C483 C 1.00295 0.04347 0.52949 0.0
H484 H 0.95573 0.94762 0.50253 0.0
H485 H 0.1021 0.08457 0.59679 0.0
Co486 Co 0.28517 0.7981 0.80193 0.0
C487 C 0.24391 0.77019 0.81504 0.0
Co488 Co 0.28852 0.76059 0.79273 0.0
C489 C 0.2853 0.84644 0.79068 0.0
C490 C 0.27045 0.84139 0.82591 0.0
N491 N 0.28067 0.82978 0.80728 0.0
N492 N 0.27848 0.86804 0.79797 0.0
C493 C 0.26907 0.86511 0.8202 0.0
H494 H 0.29298 0.84259 0.77316 0.0
H495 H 0.26408 0.83311 0.84233 0.0
C496 C 0.3294 0.78841 0.77865 0.0
N497 N 0.29359 0.72915 0.7864 0.0
C498 C 0.29263 0.71077 0.80161 0.0
C499 C 0.30326 0.72045 0.76592 0.0
N500 N 0.30164 0.69101 0.79149 0.0
C501 C 0.30816 0.69699 0.76897 0.0
C502 C 0.26867 0.78464 0.75682 0.0
O503 O 0.31686 0.80536 0.78686 0.0
O504 O 0.32054 0.76742 0.78036 0.0
O505 O 0.27597 0.76417 0.76162 0.0
O506 O 0.27038 0.80093 0.77246 0.0
O507 O 0.25581 0.75362 0.805 0.0
H508 H 0.30717 0.73072 0.74999 0.0
H509 H 0.28608 0.71202 0.81992 0.0
O510 O 0.25389 0.79086 0.81651 0.0
O511 O 0.3 0.79549 0.83144 0.0
O512 O 0.30147 0.7573 0.82382 0.0
C513 C 0.30578 0.77491 0.83769 0.0
H514 H 0.26204 0.87907 0.83154 0.0
H515 H 0.31552 0.68515 0.75552 0.0
Co516 Co 0.52399 0.01018 1.00254 0.0
C517 C 0.57305 1.00276 0.01373 0.0
Co518 Co 0.53613 0.03003 0.03431 0.0
C519 C 0.49951 0.99868 0.95858 0.0
C520 C 0.51999 0.96998 0.97143 0.0
N521 N 0.514 0.99251 0.97646 0.0
N522 N 0.4962 0.98083 0.94252 0.0
C523 C 0.50917 0.96278 0.9506 0.0
H524 H 0.49144 0.01588 0.95758 0.0
H525 H 0.53156 0.95946 0.98221 0.0
C526 C 0.48725 0.03708 0.0241 0.0
N527 N 0.54663 0.04702 0.06053 0.0
C528 C 0.56254 0.03894 0.07613 0.0
C529 C 0.54208 0.06932 0.06801 0.0
N530 N 0.5685 0.05527 0.09284 0.0
C531 C 0.55549 0.07442 0.08813 0.0
C532 C 0.54216 0.0547 0.99176 0.0
O533 O 0.49166 0.02328 0.00644 0.0
O534 O 0.50421 0.0421 0.03861 0.0
O535 O 0.54511 0.05609 0.01421 0.0
O536 O 0.53338 0.03562 0.9827 0.0
O537 O 0.56826 0.01759 0.03023 0.0
H538 H 0.53018 0.08118 0.05918 0.0
H539 H 0.56969 0.02128 0.07526 0.0
O540 O 0.55635 0.99724 0.99904 0.0
O541 O 0.51459 0.98465 0.02231 0.0
O542 O 0.52702 1.0039 0.05423 0.0
C543 C 0.5178 0.98525 0.04464 0.0
H544 H 0.51115 0.94567 0.94195 0.0
H545 H 0.55613 0.09101 0.0981 0.0
Co546 Co 0.28635 0.26015 0.28259 0.0
C547 C 0.33282 0.28232 0.28679 0.0
Co548 Co 0.28834 0.29628 0.26814 0.0
C549 C 0.26861 0.21231 0.29111 0.0
C550 C 0.2949 0.22424 0.31662 0.0
N551 N 0.28434 0.23045 0.29616 0.0
N552 N 0.26855 0.19539 0.3079 0.0
C553 C 0.28498 0.20276 0.32404 0.0
H554 H 0.25582 0.21249 0.27669 0.0
H555 H 0.30749 0.2355 0.32657 0.0
C556 C 0.24189 0.27498 0.26413 0.0
N557 N 0.28931 0.32649 0.25493 0.0
C558 C 0.28727 0.34747 0.26656 0.0
C559 C 0.28685 0.33181 0.23165 0.0
N560 N 0.28322 0.36546 0.2516 0.0
C561 C 0.2832 0.35571 0.22956 0.0
C562 C 0.29686 0.25944 0.2337 0.0
O563 O 0.25174 0.25792 0.27472 0.0
O564 O 0.25463 0.29381 0.26028 0.0
O565 O 0.29599 0.28194 0.23653 0.0
O566 O 0.2941 0.24641 0.25206 0.0
O567 O 0.32248 0.29909 0.27615 0.0
H568 H 0.28629 0.31908 0.21708 0.0
H569 H 0.28734 0.34944 0.28576 0.0
O570 O 0.32065 0.26295 0.29033 0.0
O571 O 0.27871 0.27336 0.31323 0.0
O572 O 0.28061 0.30965 0.30024 0.0
C573 C 0.27794 0.29545 0.31776 0.0
H574 H 0.2883 0.19403 0.34074 0.0
H575 H 0.28023 0.36501 0.21312 0.0
Co576 Co 0.50229 0.47902 0.03746 0.0
C577 C 0.48411 0.49223 0.08089 0.0
Co578 Co 0.51721 0.51386 0.04878 0.0
C579 C 0.50518 0.43553 0.012 0.0
C580 C 0.47048 0.4375 0.0297 0.0
N581 N 0.49213 0.4493 0.02685 0.0
N582 N 0.49257 0.41593 0.00514 0.0
C583 C 0.47072 0.41678 0.01625 0.0
H584 H 0.52342 0.44009 0.00558 0.0
H585 H 0.45523 0.44402 0.04001 0.0
C586 C 0.5359 0.50058 0.0057 0.0
N587 N 0.52695 0.54387 0.05877 0.0
C588 C 0.51192 0.56032 0.06763 0.0
C589 C 0.54897 0.55508 0.05704 0.0
N590 N 0.5235 0.58141 0.07129 0.0
C591 C 0.54686 0.57831 0.06463 0.0
C592 C 0.5454 0.47827 0.06277 0.0
O593 O 0.5204 0.48363 0.00854 0.0
O594 O 0.538 0.51655 0.02168 0.0
O595 O 0.54245 0.50043 0.0653 0.0
O596 O 0.52985 0.4657 0.05131 0.0
O597 O 0.49665 0.51095 0.07604 0.0
H598 H 0.56529 0.54707 0.05011 0.0
H599 H 0.49254 0.55717 0.07036 0.0
O600 O 0.48436 0.47472 0.06644 0.0
O601 O 0.47507 0.49251 0.02332 0.0
O602 O 0.49203 0.52725 0.03177 0.0
C603 C 0.47503 0.51502 0.02218 0.0
H604 H 0.45575 0.40407 0.01381 0.0
H605 H 0.56126 0.5919 0.06505 0.0
Co606 Co 0.78699 0.30164 0.28903 0.0
C607 C 0.74304 0.2754 0.29536 0.0
Co608 Co 0.78704 0.26717 0.27049 0.0
C609 C 0.79448 0.35189 0.29564 0.0
C610 C 0.77769 0.33531 0.3263 0.0
N611 N 0.78657 0.33069 0.30418 0.0
N612 N 0.79093 0.36963 0.31157 0.0
C613 C 0.7804 0.35926 0.33093 0.0
H614 H 0.80309 0.35412 0.27822 0.0
H615 H 0.76977 0.3221 0.33829 0.0
C616 C 0.83077 0.29273 0.26374 0.0
N617 N 0.78733 0.23785 0.25604 0.0
C618 C 0.78061 0.21762 0.26719 0.0
C619 C 0.79637 0.23098 0.23458 0.0
N620 N 0.7852 0.19825 0.25383 0.0
C621 C 0.79512 0.20647 0.23319 0.0
C622 C 0.77041 0.30274 0.24292 0.0
O623 O 0.82019 0.30824 0.27671 0.0
O624 O 0.81928 0.27341 0.25894 0.0
O625 O 0.77457 0.28068 0.24266 0.0
O626 O 0.77454 0.31496 0.26163 0.0
O627 O 0.7543 0.26067 0.28217 0.0
H628 H 0.80405 0.24294 0.22121 0.0
H629 H 0.77347 0.21716 0.28533 0.0
O630 O 0.75404 0.29487 0.3009 0.0
O631 O 0.79949 0.28843 0.31653 0.0
O632 O 0.79983 0.25387 0.29836 0.0
C633 C 0.80407 0.26657 0.3167 0.0
H634 H 0.77496 0.36831 0.34722 0.0
H635 H 0.80117 0.19562 0.2183 0.0
Co636 Co 0.02998 0.52512 0.51356 0.0
C637 C 0.07154 0.515 0.53843 0.0
Co638 Co 0.02498 0.53148 0.55205 0.0
C639 C 0.02447 0.5353 0.46437 0.0
C640 C 0.04434 0.50368 0.4687 0.0
N641 N 0.03305 0.5209 0.48105 0.0
N642 N 0.02979 0.5278 0.442 0.0
C643 C 0.04232 0.50785 0.44464 0.0
H644 H 0.01399 0.55074 0.46866 0.0
H645 H 0.05334 0.48903 0.47666 0.0
C646 C 0.98377 0.54226 0.52752 0.0
N647 N 0.02236 0.5365 0.58448 0.0
C648 C 0.03963 0.54754 0.59759 0.0
C649 C 1.00458 0.53006 0.60027 0.0
N650 N 0.03363 0.54822 0.621 0.0
C651 C 0.01156 0.53713 0.62287 0.0
C652 C 0.04202 0.57105 0.52745 0.0
O653 O 0.99705 0.53569 0.50991 0.0
O654 O 0.9922 0.54111 0.54842 0.0
O655 O 0.03591 0.56379 0.54815 0.0
O656 O 0.04152 0.55656 0.51001 0.0
O657 O 0.05804 0.52195 0.55567 0.0
H658 H 0.98794 0.52044 0.59571 0.0
H659 H 0.05685 0.55405 0.5901 0.0
O660 O 0.06295 0.51475 0.5175 0.0
O661 O 0.01824 0.49361 0.51696 0.0
O662 O 0.01396 0.49916 0.55563 0.0
C663 C 0.01243 0.48549 0.53742 0.0
H664 H 0.04947 0.49696 0.43028 0.0
H665 H 1.00141 0.53397 0.63936 0.0
Co666 Co 0.79838 0.78898 0.28467 0.0
C667 C 0.78829 0.79921 0.23663 0.0
Co668 Co 0.7657 0.76961 0.27199 0.0
C669 C 0.84368 0.79348 0.30729 0.0
C670 C 0.83101 0.82806 0.29982 0.0
N671 N 0.82569 0.80466 0.29653 0.0
N672 N 0.85986 0.80875 0.31714 0.0
C673 C 0.85209 0.83063 0.31279 0.0
H674 H 0.84428 0.77438 0.3091 0.0
H675 H 0.8198 0.84226 0.29409 0.0
C676 C 0.7751 0.75993 0.32 0.0
N677 N 0.73881 0.75309 0.26086 0.0
C678 C 0.72053 0.76201 0.24854 0.0
C679 C 0.73437 0.72934 0.2609 0.0
N680 N 0.7051 0.7448 0.2407 0.0
C681 C 0.71368 0.72415 0.24817 0.0
C682 C 0.8083 0.74535 0.26513 0.0
O683 O 0.79304 0.77432 0.31599 0.0
O684 O 0.7608 0.75499 0.30289 0.0
O685 O 0.78558 0.7442 0.26168 0.0
O686 O 0.81758 0.76374 0.27491 0.0
O687 O 0.77037 0.78483 0.24097 0.0
H688 H 0.74596 0.71658 0.26881 0.0
H689 H 0.71927 0.78064 0.24428 0.0
O690 O 0.80354 0.80349 0.25322 0.0
O691 O 0.7789 0.81428 0.29436 0.0
O692 O 0.7461 0.79472 0.28241 0.0
C693 C 0.75601 0.81307 0.29192 0.0
H694 H 0.86069 0.84709 0.31894 0.0
H695 H 0.70593 0.70668 0.24411 0.0
Co696 Co 0.82308 0.33309 0.80072 0.0
C697 C 0.83592 0.29042 0.78037 0.0
Co698 Co 0.81109 0.3289 0.76366 0.0
C699 C 0.81901 0.34159 0.85124 0.0
C700 C 0.85489 0.33193 0.84026 0.0
N701 N 0.83281 0.3366 0.83179 0.0
N702 N 0.8315 0.33982 0.87154 0.0
C703 C 0.85411 0.33384 0.86474 0.0
H704 H 0.79986 0.34528 0.8506 0.0
H705 H 0.87028 0.32663 0.82938 0.0
C706 C 0.7979 0.3711 0.78368 0.0
N707 N 0.80194 0.32451 0.73255 0.0
C708 C 0.8164 0.31508 0.71559 0.0
C709 C 0.77989 0.32538 0.72264 0.0
N710 N 0.80426 0.30909 0.6957 0.0
C711 C 0.78126 0.31585 0.69988 0.0
C712 C 0.77774 0.31072 0.79629 0.0
O713 O 0.8085 0.36352 0.80195 0.0
O714 O 0.79683 0.35848 0.76481 0.0
O715 O 0.78198 0.31401 0.77423 0.0
O716 O 0.79317 0.31828 0.8114 0.0
O717 O 0.82553 0.29887 0.76254 0.0
H718 H 0.7636 0.33099 0.73191 0.0
H719 H 0.83528 0.31144 0.71844 0.0
O720 O 0.83725 0.30273 0.79942 0.0
O721 O 0.8532 0.34754 0.78965 0.0
O722 O 0.84014 0.34373 0.75305 0.0
C723 C 0.85648 0.35062 0.76736 0.0
H724 H 0.8689 0.33071 0.87664 0.0
H725 H 0.76612 0.31253 0.68813 0.0
Co726 Co 0.77891 0.77629 0.78394 0.0
C727 C 0.82605 0.79679 0.78418 0.0
Co728 Co 0.78153 0.81059 0.7655 0.0
C729 C 0.75692 0.7362 0.80839 0.0
C730 C 0.79469 0.73142 0.80078 0.0
N731 N 0.77685 0.747 0.79847 0.0
N732 N 0.76145 0.71436 0.81649 0.0
C733 C 0.7853 0.71138 0.81187 0.0
H734 H 0.73913 0.74377 0.80863 0.0
H735 H 0.81319 0.73408 0.79422 0.0
C736 C 0.73446 0.79025 0.76474 0.0
N737 N 0.78299 0.84011 0.75102 0.0
C738 C 0.78641 0.86154 0.76165 0.0
C739 C 0.77625 0.84502 0.72862 0.0
N740 N 0.7816 0.87959 0.74699 0.0
C741 C 0.77549 0.86927 0.72606 0.0
C742 C 0.78847 0.77231 0.73404 0.0
O743 O 0.74428 0.77422 0.77682 0.0
O744 O 0.74744 0.80835 0.75867 0.0
O745 O 0.788 0.79493 0.73482 0.0
O746 O 0.78573 0.76098 0.75355 0.0
O747 O 0.81619 0.81288 0.77213 0.0
H748 H 0.77071 0.83187 0.71542 0.0
H749 H 0.79152 0.86386 0.78009 0.0
O750 O 0.81298 0.77888 0.79069 0.0
O751 O 0.77261 0.79119 0.81441 0.0
O752 O 0.77481 0.82564 0.79676 0.0
C753 C 0.77244 0.81371 0.81599 0.0
H754 H 0.79517 0.69558 0.81554 0.0
H755 H 0.76949 0.87846 0.71049 0.0
Co756 Co 0.52899 0.54651 0.50697 0.0
C757 C 0.52103 0.58105 0.54327 0.0
Co758 Co 0.52722 0.53161 0.54281 0.0
C759 C 0.51798 0.55421 0.45789 0.0
C760 C 0.54358 0.58033 0.47114 0.0
N761 N 0.53066 0.56048 0.47738 0.0
N762 N 0.52225 0.56948 0.43975 0.0
C763 C 0.53843 0.58593 0.44799 0.0
H764 H 0.505 0.53934 0.45745 0.0
H765 H 0.55542 0.59051 0.48289 0.0
C766 C 0.53572 0.49759 0.5056 0.0
N767 N 0.52507 0.51757 0.57233 0.0
C768 C 0.5352 0.52447 0.59308 0.0
C769 C 0.51132 0.49795 0.57767 0.0
N770 N 0.52803 0.51004 0.61116 0.0
C771 C 0.51301 0.49334 0.60157 0.0
C772 C 0.48207 0.52935 0.52028 0.0
O773 O 0.53645 0.51618 0.4928 0.0
O774 O 0.53199 0.50009 0.52804 0.0
O775 O 0.49253 0.52628 0.53995 0.0
O776 O 0.49459 0.53861 0.50316 0.0
O777 O 0.52251 0.56341 0.55729 0.0
H778 H 0.50049 0.48778 0.56501 0.0
H779 H 0.5471 0.54007 0.59501 0.0
O780 O 0.52181 0.57684 0.52089 0.0
O781 O 0.56294 0.55415 0.51089 0.0
O782 O 0.5622 0.53698 0.54576 0.0
C783 C 0.57405 0.54851 0.52954 0.0
H784 H 0.54566 0.60116 0.43821 0.0
H785 H 0.50406 0.47878 0.61113 0.0
Co786 Co 0.03734 0.52642 0.01834 0.0
C787 C 0.05316 0.57414 0.01143 0.0
Co788 Co 0.07418 0.53347 0.03121 0.0
C789 C 0.98603 0.51693 0.02389 0.0
C790 C 0.99631 0.52252 0.98728 0.0
N791 N 1.00555 0.52068 0.00931 0.0
N792 N 0.96508 0.5168 0.01196 0.0
C793 C 0.97136 0.51997 0.98885 0.0
H794 H 0.98701 0.51491 0.04303 0.0
H795 H 0.00689 0.52658 0.97126 0.0
C796 C 0.05913 0.48618 0.03893 0.0
N797 N 0.10577 0.54082 0.03952 0.0
C798 C 0.12105 0.55389 0.02547 0.0
C799 C 0.11737 0.53893 0.06035 0.0
N800 N 0.14156 0.56067 0.0366 0.0
C801 C 0.13946 0.55134 0.05865 0.0
C802 C 0.04027 0.54134 0.06589 0.0
O803 O 0.03923 0.49349 0.03059 0.0
O804 O 0.07729 0.50085 0.03998 0.0
O805 O 0.0631 0.54066 0.06261 0.0
O806 O 0.02639 0.53671 0.04858 0.0
O807 O 0.07095 0.56615 0.02259 0.0
H808 H 0.10972 0.53034 0.07612 0.0
H809 H 0.11635 0.55998 0.00794 0.0
O810 O 0.03572 0.5595 0.00639 0.0
O811 O 0.04854 0.51593 0.98818 0.0
O812 O 0.08522 0.52607 0.99974 0.0
C813 C 0.07113 0.51805 0.98371 0.0
H814 H 0.95877 0.52155 0.97439 0.0
H815 H 0.15247 0.55402 0.07274 0.0
H816 H 0.04608 0.21446 0.07825 0.0
H817 H 0.02474 0.19618 0.15108 0.0
H818 H 0.02044 0.15425 0.13948 0.0
H819 H 1.00361 0.17132 0.05018 0.0
H820 H 0.02416 0.16372 0.02604 0.0
H821 H 0.02626 0.19285 0.03966 0.0
H822 H 0.07157 0.18686 0.0485 0.0
H823 H 0.06957 0.1577 0.03493 0.0
H824 H 0.07995 0.16124 0.06511 0.0
H825 H 0.02002 0.11347 0.12125 0.0
H826 H 0.02042 0.07701 0.09635 0.0
H827 H 0.03891 0.11957 0.03401 0.0
C828 C 0.04046 0.20165 0.09172 0.0
C829 C 0.03576 0.20916 0.11576 0.0
C830 C 0.02835 0.19145 0.13259 0.0
C831 C 0.02592 0.16731 0.1262 0.0
C832 C 0.0306 0.16052 0.10264 0.0
C833 C 0.03745 0.1771 0.0855 0.0
C834 C 0.04067 0.16458 0.06129 0.0
C835 C 0.0226 0.17366 0.04322 0.0
C836 C 0.06701 0.16779 0.0519 0.0
C837 C 0.03471 0.1386 0.06768 0.0
C838 C 0.02923 0.13678 0.09176 0.0
C839 C 0.02404 0.11473 0.1023 0.0
C840 C 0.02433 0.09401 0.08798 0.0
C841 C 0.02938 0.09516 0.0631 0.0
C842 C 0.03458 0.11796 0.05289 0.0
H843 H 0.14543 0.75315 0.39935 0.0
H844 H 0.09902 0.72375 0.34389 0.0
H845 H 0.13488 0.72007 0.3171 0.0
H846 H 0.17877 0.78974 0.36386 0.0
H847 H 0.2075 0.78671 0.37821 0.0
H848 H 0.17965 0.7817 0.39492 0.0
H849 H 0.1929 0.73958 0.40611 0.0
H850 H 0.22103 0.74456 0.38956 0.0
H851 H 0.20163 0.71901 0.38284 0.0
H852 H 0.17372 0.72651 0.29429 0.0
H853 H 0.21261 0.74235 0.27727 0.0
H854 H 0.23352 0.76797 0.34755 0.0
C855 C 0.1429 0.74512 0.38189 0.0
C856 C 0.11948 0.73866 0.37372 0.0
C857 C 0.11684 0.72875 0.35053 0.0
C858 C 0.13711 0.72648 0.33524 0.0
C859 C 0.15984 0.73401 0.3435 0.0
C860 C 0.16288 0.74292 0.36639 0.0
C861 C 0.18848 0.75279 0.36989 0.0
C862 C 0.18858 0.77929 0.37713 0.0
C863 C 0.2018 0.7381 0.38818 0.0
C864 C 0.19896 0.7493 0.34501 0.0
C865 C 0.18236 0.73795 0.33019 0.0
C866 C 0.18708 0.73491 0.30583 0.0
C867 C 0.20915 0.74408 0.29631 0.0
C868 C 0.22606 0.75633 0.31113 0.0
C869 C 0.22108 0.7584 0.33585 0.0
H870 H 0.51785 0.86671 0.60789 0.0
H871 H 0.59045 0.84842 0.58395 0.0
H872 H 0.59527 0.88671 0.56344 0.0
H873 H 0.50223 0.89724 0.55276 0.0
H874 H 0.48548 0.92008 0.5679 0.0
H875 H 0.48714 0.89109 0.58101 0.0
H876 H 0.50421 0.91025 0.61963 0.0
H877 H 0.50258 0.93928 0.60663 0.0
H878 H 0.531 0.92954 0.61783 0.0
H879 H 0.5938 0.92754 0.547 0.0
H880 H 0.58531 0.9679 0.53381 0.0
H881 H 0.51272 0.96128 0.5653 0.0
C882 C 0.53472 0.87074 0.59826 0.0
C883 C 0.5538 0.85419 0.59772 0.0
C884 C 0.57549 0.86042 0.58477 0.0
C885 C 0.57846 0.88229 0.573 0.0
C886 C 0.55951 0.89811 0.57389 0.0
C887 C 0.53794 0.89266 0.58598 0.0
C888 C 0.52054 0.91316 0.58373 0.0
C889 C 0.49747 0.90489 0.57057 0.0
C890 C 0.51421 0.92368 0.60843 0.0
C891 C 0.53584 0.93093 0.56872 0.0
C892 C 0.55832 0.92173 0.56348 0.0
C893 C 0.57617 0.9348 0.55082 0.0
C894 C 0.57115 0.95784 0.54339 0.0
C895 C 0.54828 0.96793 0.54817 0.0
C896 C 0.53025 0.95405 0.56092 0.0
H897 H 0.52202 0.27347 0.80906 0.0
H898 H 0.50026 0.21856 0.85975 0.0
H899 H 0.45777 0.22081 0.84686 0.0
H900 H 0.47501 0.30897 0.82037 0.0
H901 H 0.47093 0.31881 0.79023 0.0
H902 H 0.50022 0.30948 0.79927 0.0
H903 H 0.50107 0.27825 0.76498 0.0
H904 H 0.47192 0.28781 0.75544 0.0
H905 H 0.47604 0.25696 0.76204 0.0
H906 H 0.41736 0.23404 0.8339 0.0
H907 H 0.38215 0.25524 0.82003 0.0
H908 H 0.43026 0.30145 0.77737 0.0
C909 C 0.5085 0.26127 0.81684 0.0
C910 C 0.51444 0.24576 0.83533 0.0
C911 C 0.49614 0.23044 0.84541 0.0
C912 C 0.47196 0.23161 0.83822 0.0
C913 C 0.46652 0.24801 0.82079 0.0
C914 C 0.48434 0.2623 0.80995 0.0
C915 C 0.4735 0.2802 0.79361 0.0
C916 C 0.48032 0.30587 0.80135 0.0
C917 C 0.48108 0.27551 0.76746 0.0
C918 C 0.44673 0.2745 0.79783 0.0
C919 C 0.44309 0.25566 0.81328 0.0
C920 C 0.41996 0.24839 0.82129 0.0
C921 C 0.40001 0.2606 0.81324 0.0
C922 C 0.40328 0.27998 0.79733 0.0
C923 C 0.42703 0.28679 0.78948 0.0
H924 H 0.06625 0.83251 0.46058 0.0
H925 H 0.02485 0.83392 0.39552 0.0
H926 H 1.00571 0.87071 0.40954 0.0
H927 H 0.02089 0.84885 0.49914 0.0
H928 H 0.03952 0.86737 0.51839 0.0
H929 H 0.05278 0.84334 0.50188 0.0
H930 H 0.08477 0.87248 0.48247 0.0
H931 H 0.07197 0.89657 0.49941 0.0
H932 H 0.07478 0.8984 0.46736 0.0
H933 H 0.98689 0.90396 0.4334 0.0
H934 H 0.97393 0.93419 0.46313 0.0
H935 H 0.02801 0.91055 0.51187 0.0
C936 C 0.05367 0.84093 0.44898 0.0
C937 C 0.04701 0.83043 0.42701 0.0
C938 C 0.03038 0.84183 0.41235 0.0
C939 C 0.01932 0.86265 0.42021 0.0
C940 C 0.02546 0.87193 0.44252 0.0
C941 C 0.04268 0.86173 0.45643 0.0
C942 C 0.0452 0.87437 0.48021 0.0
C943 C 0.03923 0.85747 0.50112 0.0
C944 C 0.07069 0.88616 0.48248 0.0
C945 C 0.02605 0.89268 0.47789 0.0
C946 C 0.01488 0.89113 0.45604 0.0
C947 C 0.99576 0.90558 0.45043 0.0
C948 C 0.98831 0.92242 0.46747 0.0
C949 C 1.00005 0.92457 0.48966 0.0
C950 C 0.01896 0.90937 0.4949 0.0
H951 H 0.45458 0.74951 0.71605 0.0
H952 H 0.4653 0.82188 0.69122 0.0
H953 H 0.42737 0.83299 0.71243 0.0
H954 H 0.38955 0.74672 0.70934 0.0
H955 H 0.38392 0.72868 0.7354 0.0
H956 H 0.41227 0.7268 0.71897 0.0
H957 H 0.43584 0.73656 0.75762 0.0
H958 H 0.40753 0.73856 0.77414 0.0
H959 H 0.42933 0.76321 0.77435 0.0
H960 H 0.3878 0.83624 0.73741 0.0
H961 H 0.34934 0.83045 0.76083 0.0
H962 H 0.3638 0.7556 0.7676 0.0
C963 C 0.44902 0.76773 0.71512 0.0
C964 C 0.46313 0.78485 0.70201 0.0
C965 C 0.45492 0.80842 0.7011 0.0
C966 C 0.43338 0.81492 0.71318 0.0
C967 C 0.41995 0.79763 0.72599 0.0
C968 C 0.42738 0.77444 0.7268 0.0
C969 C 0.40928 0.75899 0.74105 0.0
C970 C 0.39809 0.73913 0.72524 0.0
C971 C 0.42121 0.74873 0.7631 0.0
C972 C 0.39054 0.77705 0.74821 0.0
C973 C 0.39707 0.79932 0.73958 0.0
C974 C 0.38256 0.81883 0.74417 0.0
C975 C 0.36075 0.81541 0.7576 0.0
C976 C 0.35342 0.7926 0.76614 0.0
C977 C 0.36875 0.77329 0.76137 0.0
H978 H 0.58642 0.1875 0.96206 0.0
H979 H 0.55827 0.17578 0.89087 0.0
H980 H 0.54674 0.13435 0.90133 0.0
H981 H 0.61092 0.12962 0.96945 0.0
H982 H 0.60218 0.12772 1.00058 0.0
H983 H 0.6088 0.1563 0.98734 0.0
H984 H 0.56639 0.17048 1.00112 0.0
H985 H 0.55969 0.14199 0.01448 0.0
H986 H 0.53953 0.15341 0.99273 0.0
H987 H 0.53847 0.0944 0.91938 0.0
H988 H 0.53177 0.05904 0.94456 0.0
H989 H 0.56439 0.09722 0.00434 0.0
C990 C 0.57792 0.17619 0.94864 0.0
C991 C 0.57333 0.18476 0.92563 0.0
C992 C 0.56194 0.16954 0.90862 0.0
C993 C 0.55541 0.14598 0.91436 0.0
C994 C 0.56027 0.13807 0.93718 0.0
C995 C 0.57109 0.15274 0.95412 0.0
C996 C 0.57359 0.14006 0.97759 0.0
C997 C 0.60047 0.13832 0.98411 0.0
C998 C 0.55892 0.15221 0.99766 0.0
C999 C 0.56247 0.11596 0.97119 0.0
C1000 C 0.55506 0.11514 0.94775 0.0
C1001 C 0.54419 0.0948 0.93776 0.0
C1002 C 0.54053 0.0748 0.9522 0.0
C1003 C 0.54758 0.07539 0.97641 0.0
C1004 C 0.55883 0.09623 0.9859 0.0
H1005 H 0.13239 0.29764 0.17391 0.0
H1006 H 0.08608 0.25338 0.22015 0.0
H1007 H 0.12062 0.24753 0.24652 0.0
H1008 H 0.18743 0.26514 0.17985 0.0
H1009 H 0.20733 0.29122 0.18059 0.0
H1010 H 0.17913 0.29177 0.16487 0.0
H1011 H 0.16637 0.32835 0.18996 0.0
H1012 H 0.19458 0.32793 0.20569 0.0
H1013 H 0.16605 0.32677 0.2221 0.0
H1014 H 0.16126 0.24434 0.2671 0.0
H1015 H 0.20332 0.24778 0.28211 0.0
H1016 H 0.2229 0.29666 0.22501 0.0
C1017 C 0.12948 0.28678 0.18962 0.0
C1018 C 0.10624 0.27597 0.19476 0.0
C1019 C 0.10345 0.26201 0.21568 0.0
C1020 C 0.12309 0.25846 0.23081 0.0
C1021 C 0.14567 0.26921 0.22522 0.0
C1022 C 0.14891 0.28339 0.2053 0.0
C1023 C 0.17498 0.29346 0.20385 0.0
C1024 C 0.18798 0.28489 0.18093 0.0
C1025 C 0.17552 0.32075 0.2055 0.0
C1026 C 0.1858 0.28269 0.22595 0.0
C1027 C 0.16867 0.26845 0.23783 0.0
C1028 C 0.17469 0.25573 0.25808 0.0
C1029 C 0.19868 0.25774 0.2665 0.0
C1030 C 0.21642 0.27276 0.25508 0.0
C1031 C 0.2097 0.28537 0.23449 0.0
H1032 H 0.1109 0.98102 0.22545 0.0
H1033 H 0.0535 0.02282 0.25685 0.0
H1034 H 0.0308 0.019 0.21916 0.0
H1035 H 0.11275 0.00734 0.17151 0.0
H1036 H 0.11889 0.98098 0.1542 0.0
H1037 H 0.12789 0.98301 0.18479 0.0
H1038 H 0.10328 0.94401 0.1943 0.0
H1039 H 0.09428 0.94175 0.16357 0.0
H1040 H 0.0715 0.9415 0.18717 0.0
H1041 H 0.01798 0.01584 0.17584 0.0
H1042 H 0.01579 0.01284 0.13188 0.0
H1043 H 0.08254 0.97393 0.13011 0.0
C1044 C 0.09325 0.98887 0.22467 0.0
C1045 C 0.08394 1.00224 0.24398 0.0
C1046 C 0.06085 0.01233 0.24225 0.0
C1047 C 0.04785 0.01025 0.22094 0.0
C1048 C 0.0581 0.9977 0.20183 0.0
C1049 C 0.08016 0.98691 0.20371 0.0
C1050 C 0.08866 0.97656 0.18015 0.0
C1051 C 0.11349 0.98765 0.17221 0.0
C1052 C 0.08946 0.94934 0.18138 0.0
C1053 C 0.06853 0.98415 0.16436 0.0
C1054 C 0.05082 0.99596 0.17712 0.0
C1055 C 0.03155 0.00626 0.16576 0.0
C1056 C 0.03059 0.00465 0.14074 0.0
C1057 C 0.04897 0.99309 0.12737 0.0
C1058 C 0.06783 0.98238 0.13959 0.0
H1059 H 0.2983 0.84878 0.50504 0.0
H1060 H 0.2345 0.89059 0.49544 0.0
H1061 H 0.23283 0.87716 0.45323 0.0
H1062 H 0.32649 0.86216 0.45101 0.0
H1063 H 0.33869 0.83319 0.44598 0.0
H1064 H 0.33297 0.84359 0.47597 0.0
H1065 H 0.30536 0.80626 0.48453 0.0
H1066 H 0.31123 0.79555 0.45461 0.0
H1067 H 0.28038 0.79901 0.46514 0.0
H1068 H 0.24094 0.8622 0.41113 0.0
H1069 H 0.25729 0.8462 0.37309 0.0
H1070 H 0.31553 0.81426 0.41121 0.0
C1071 C 0.28366 0.8548 0.49424 0.0
C1072 C 0.2665 0.8707 0.50346 0.0
C1073 C 0.24775 0.87828 0.48871 0.0
C1074 C 0.24668 0.87076 0.46475 0.0
C1075 C 0.26437 0.85556 0.45606 0.0
C1076 C 0.28235 0.84751 0.47047 0.0
C1077 C 0.30012 0.8325 0.45666 0.0
C1078 C 0.32609 0.84353 0.45746 0.0
C1079 C 0.2992 0.80681 0.46578 0.0
C1080 C 0.28978 0.8339 0.43201 0.0
C1081 C 0.26903 0.84706 0.432 0.0
C1082 C 0.25695 0.85157 0.41101 0.0
C1083 C 0.26635 0.84236 0.3895 0.0
C1084 C 0.28769 0.82893 0.38919 0.0
C1085 C 0.29935 0.82461 0.41081 0.0
H1086 H 0.42257 0.05657 0.66311 0.0
H1087 H 0.47656 0.04686 0.71723 0.0
H1088 H 0.50928 0.05242 0.68665 0.0
H1089 H 0.45083 0.0226 0.62018 0.0
H1090 H 0.44272 0.04024 0.59513 0.0
H1091 H 0.42374 0.03973 0.62159 0.0
H1092 H 0.42775 0.08558 0.62528 0.0
H1093 H 0.44649 0.08643 0.5985 0.0
H1094 H 0.45753 0.09996 0.6257 0.0
H1095 H 0.53563 0.05534 0.64967 0.0
H1096 H 0.55335 0.05222 0.6089 0.0
H1097 H 0.48155 0.05867 0.57942 0.0
C1098 C 0.44129 0.05619 0.66866 0.0
C1099 C 0.44713 0.05152 0.69248 0.0
C1100 C 0.47178 0.05048 0.69899 0.0
C1101 C 0.49045 0.0538 0.68182 0.0
C1102 C 0.48403 0.05806 0.65836 0.0
C1103 C 0.46003 0.05915 0.65177 0.0
C1104 C 0.45772 0.06099 0.62506 0.0
C1105 C 0.44288 0.03962 0.61492 0.0
C1106 C 0.44673 0.08466 0.61824 0.0
C1107 C 0.48416 0.06025 0.61755 0.0
C1108 C 0.49913 0.05902 0.63698 0.0
C1109 C 0.52415 0.05662 0.63432 0.0
C1110 C 0.53403 0.05488 0.61113 0.0
C1111 C 0.51877 0.05521 0.59109 0.0
C1112 C 0.49367 0.05851 0.59442 0.0
H1113 H 0.24869 0.22286 0.95093 0.0
H1114 H 0.32373 0.20392 0.95934 0.0
H1115 H 0.33412 0.22056 0.91965 0.0
H1116 H 0.24633 0.20751 0.88781 0.0
H1117 H 0.22703 0.23142 0.88026 0.0
H1118 H 0.22538 0.21908 0.90984 0.0
H1119 H 0.2338 0.26088 0.92807 0.0
H1120 H 0.23544 0.27336 0.89855 0.0
H1121 H 0.26049 0.27798 0.9185 0.0
H1122 H 0.33693 0.24005 0.8794 0.0
H1123 H 0.33171 0.2586 0.84035 0.0
H1124 H 0.25426 0.26308 0.85513 0.0
C1125 C 0.26736 0.22241 0.94449 0.0
C1126 C 0.28547 0.2122 0.9586 0.0
C1127 C 0.30953 0.21163 0.94914 0.0
C1128 C 0.31562 0.2211 0.92653 0.0
C1129 C 0.29743 0.23088 0.91309 0.0
C1130 C 0.2737 0.23142 0.92156 0.0
C1131 C 0.25755 0.24217 0.90287 0.0
C1132 C 0.23791 0.22396 0.89472 0.0
C1133 C 0.24615 0.26495 0.91258 0.0
C1134 C 0.27593 0.24773 0.8827 0.0
C1135 C 0.29885 0.24122 0.88922 0.0
C1136 C 0.31903 0.24506 0.87412 0.0
C1137 C 0.31584 0.25574 0.85187 0.0
C1138 C 0.29257 0.26238 0.84434 0.0
C1139 C 0.27228 0.25812 0.86011 0.0
H1140 H 0.07161 0.9931 0.3751 0.0
H1141 H 0.14742 0.01535 0.37994 0.0
H1142 H 0.14362 0.01577 0.42413 0.0
H1143 H 0.04905 0.02785 0.41801 0.0
H1144 H 0.0269 0.00696 0.43059 0.0
H1145 H 0.0366 1.00387 0.39994 0.0
H1146 H 0.04963 0.9608 0.40745 0.0
H1147 H 0.03935 0.96349 0.4381 0.0
H1148 H 0.07007 0.95516 0.43132 0.0
H1149 H 0.12869 0.02209 0.46695 0.0
H1150 H 0.10564 0.02686 0.50527 0.0
H1151 H 0.04076 0.99772 0.47157 0.0
C1152 C 0.08761 0.997 0.38558 0.0
C1153 C 0.10981 1.00395 0.37445 0.0
C1154 C 0.13039 0.00952 0.3884 0.0
C1155 C 0.12834 0.00995 0.41343 0.0
C1156 C 0.10578 1.00408 0.42398 0.0
C1157 C 0.086 0.99687 0.41046 0.0
C1158 C 0.06339 0.99291 0.42581 0.0
C1159 C 0.0428 0.00886 0.41813 0.0
C1160 C 0.05513 0.96653 0.42566 0.0
C1161 C 0.07312 1.00043 0.44981 0.0
C1162 C 0.09758 0.00676 0.44859 0.0
C1163 C 0.1097 0.01651 0.46828 0.0
C1164 C 0.09648 0.01942 0.48983 0.0
C1165 C 0.07157 0.01244 0.49133 0.0
C1166 C 0.05993 1.00281 0.47106 0.0
H1167 H 0.25741 0.88397 0.66225 0.0
H1168 H 0.28095 0.83346 0.60814 0.0
H1169 H 0.27717 0.80123 0.63773 0.0
H1170 H 0.28924 0.86038 0.70988 0.0
H1171 H 0.26573 0.86623 0.73181 0.0
H1172 H 0.26912 0.88453 0.70579 0.0
H1173 H 0.22389 0.87504 0.6958 0.0
H1174 H 0.22063 0.85625 0.7216 0.0
H1175 H 0.21338 0.84452 0.69243 0.0
H1176 H 0.27405 0.77529 0.67429 0.0
H1177 H 0.27443 0.75887 0.71514 0.0
H1178 H 0.25022 0.82623 0.74366 0.0
C1179 C 0.26172 0.86614 0.65654 0.0
C1180 C 0.26948 0.86122 0.63293 0.0
C1181 C 0.27496 0.83763 0.62619 0.0
C1182 C 0.27271 0.81918 0.6428 0.0
C1183 C 0.26472 0.82464 0.6659 0.0
C1184 C 0.25939 0.84759 0.67274 0.0
C1185 C 0.25245 0.84916 0.69888 0.0
C1186 C 0.2702 0.86605 0.71237 0.0
C1187 C 0.22601 0.85668 0.70237 0.0
C1188 C 0.25526 0.8236 0.70583 0.0
C1189 C 0.26217 0.80961 0.68663 0.0
C1190 C 0.2682 0.78593 0.68941 0.0
C1191 C 0.26821 0.7767 0.71261 0.0
C1192 C 0.26228 0.79126 0.73248 0.0
C1193 C 0.25461 0.81456 0.7288 0.0
H1194 H 0.43646 0.03786 0.8291 0.0
H1195 H 0.42509 0.96569 0.80265 0.0
H1196 H 0.44018 0.95015 0.84034 0.0
H1197 H 0.49252 0.02736 0.85648 0.0
H1198 H 0.48752 0.04684 0.88172 0.0
H1199 H 0.47337 0.05249 0.85376 0.0
H1200 H 0.43109 0.05179 0.87506 0.0
H1201 H 0.44515 0.04609 0.90311 0.0
H1202 H 0.42135 0.02622 0.89233 0.0
H1203 H 0.45741 0.94228 0.87971 0.0
H1204 H 0.47859 0.94233 0.91784 0.0
H1205 H 0.48186 0.01959 0.91808 0.0
C1206 C 0.43681 0.01881 0.8315 0.0
C1207 C 0.42949 1.00291 0.81315 0.0
C1208 C 0.43067 0.97811 0.81656 0.0
C1209 C 0.43906 0.96912 0.83792 0.0
C1210 C 0.44644 0.98518 0.85558 0.0
C1211 C 0.44563 0.0095 0.85262 0.0
C1212 C 0.45655 0.02274 0.87376 0.0
C1213 C 0.47881 0.03827 0.86596 0.0
C1214 C 0.43739 0.03759 0.88684 0.0
C1215 C 0.46384 1.00204 0.88882 0.0
C1216 C 0.45748 0.98059 0.87811 0.0
C1217 C 0.46258 0.95896 0.88829 0.0
C1218 C 0.47485 0.9592 0.90991 0.0
C1219 C 0.48224 0.98095 0.92101 0.0
C1220 C 0.47634 1.00264 0.91033 0.0
H1221 H 0.27152 0.22675 0.09389 0.0
H1222 H 0.31702 0.16636 0.10473 0.0
H1223 H 0.32513 0.18021 0.1454 0.0
H1224 H 0.30888 0.26963 0.12953 0.0
H1225 H 0.28314 0.2845 0.14235 0.0
H1226 H 0.28107 0.27078 0.11319 0.0
H1227 H 0.24325 0.24587 0.12746 0.0
H1228 H 0.24523 0.25953 0.15663 0.0
H1229 H 0.24517 0.22763 0.15358 0.0
H1230 H 0.3268 0.19813 0.1859 0.0
H1231 H 0.32289 0.22046 0.22378 0.0
H1232 H 0.27812 0.27127 0.18919 0.0
C1233 C 0.28342 0.21662 0.10473 0.0
C1234 C 0.29351 0.19523 0.09561 0.0
C1235 C 0.30881 0.18261 0.11082 0.0
C1236 C 0.31365 0.19038 0.13417 0.0
C1237 C 0.30328 0.21109 0.14267 0.0
C1238 C 0.28858 0.22423 0.12852 0.0
C1239 C 0.27954 0.24568 0.14283 0.0
C1240 C 0.2887 0.26904 0.13128 0.0
C1241 C 0.25164 0.24461 0.14527 0.0
C1242 C 0.29132 0.24224 0.16706 0.0
C1243 C 0.30486 0.22204 0.16637 0.0
C1244 C 0.31651 0.21416 0.18656 0.0
C1245 C 0.3142 0.22702 0.20809 0.0
C1246 C 0.30062 0.24791 0.20959 0.0
C1247 C 0.28918 0.25573 0.18858 0.0
H1248 H 0.2137 0.09811 0.04931 0.0
H1249 H 0.21102 0.13951 0.98458 0.0
H1250 H 0.17181 0.11968 0.97478 0.0
H1251 H 0.18415 0.04315 0.02619 0.0
H1252 H 0.16667 0.03727 0.05319 0.0
H1253 H 0.19561 0.05318 0.05463 0.0
H1254 H 0.17516 0.08797 0.07683 0.0
H1255 H 0.1462 0.07214 0.07552 0.0
H1256 H 0.14963 0.10172 0.06363 0.0
H1257 H 0.13291 0.09614 0.97169 0.0
H1258 H 0.09465 0.073 0.97703 0.0
H1259 H 0.11917 0.04755 0.04512 0.0
C1260 C 0.20497 0.10272 0.03293 0.0
C1261 C 0.21574 0.12029 0.01754 0.0
C1262 C 0.20333 0.12616 0.9966 0.0
C1263 C 0.18102 0.11489 0.99083 0.0
C1264 C 0.17082 0.09787 0.00631 0.0
C1265 C 0.18215 0.09193 0.0271 0.0
C1266 C 0.16609 0.07415 0.04128 0.0
C1267 C 0.1789 0.05053 0.04398 0.0
C1268 C 0.15884 0.08462 0.06577 0.0
C1269 C 0.14407 0.07111 0.0252 0.0
C1270 C 0.14752 0.08482 0.00501 0.0
C1271 C 0.13001 0.08537 0.98745 0.0
C1272 C 0.10821 0.07201 0.99069 0.0
C1273 C 0.10356 0.05822 0.01149 0.0
C1274 C 0.12205 0.05764 0.02889 0.0
H1275 H 0.68434 0.49211 0.09441 0.0
H1276 H 0.69481 0.42649 0.0547 0.0
H1277 H 0.65041 0.42127 0.05039 0.0
H1278 H 0.62926 0.47406 0.12597 0.0
H1279 H 0.61555 0.50251 0.12337 0.0
H1280 H 0.64815 0.50082 0.12419 0.0
H1281 H 0.65256 0.52317 0.08395 0.0
H1282 H 0.62005 0.5254 0.08335 0.0
H1283 H 0.63601 0.51206 0.05848 0.0
H1284 H 0.60511 0.42301 0.05066 0.0
H1285 H 0.5625 0.43499 0.04948 0.0
H1286 H 0.58182 0.49993 0.08824 0.0
C1287 C 0.67728 0.47669 0.08474 0.0
C1288 C 0.69292 0.45967 0.07495 0.0
C1289 C 0.68309 0.43982 0.06223 0.0
C1290 C 0.65792 0.43655 0.05993 0.0
C1291 C 0.64294 0.45338 0.0703 0.0
C1292 C 0.65225 0.47329 0.08204 0.0
C1293 C 0.63231 0.48949 0.09018 0.0
C1294 C 0.63127 0.49185 0.11755 0.0
C1295 C 0.63542 0.51397 0.07827 0.0
C1296 C 0.61035 0.47566 0.08099 0.0
C1297 C 0.61682 0.45467 0.06997 0.0
C1298 C 0.59977 0.43935 0.0593 0.0
C1299 C 0.57558 0.44624 0.05888 0.0
C1300 C 0.56888 0.46838 0.06879 0.0
C1301 C 0.58636 0.48281 0.0807 0.0
H1302 H 0.84337 0.48086 0.24007 0.0
H1303 H 0.86525 0.51024 0.30856 0.0
H1304 H 0.8417 0.47826 0.3292 0.0
H1305 H 0.78161 0.45716 0.25923 0.0
H1306 H 0.7844 0.43061 0.24126 0.0
H1307 H 0.79922 0.45805 0.23173 0.0
H1308 H 0.84042 0.43733 0.22912 0.0
H1309 H 0.82595 0.40987 0.23878 0.0
H1310 H 0.85129 0.4225 0.255 0.0
H1311 H 0.82017 0.44138 0.34227 0.0
H1312 H 0.80346 0.40053 0.347 0.0
H1313 H 0.79605 0.39416 0.27015 0.0
C1314 C 0.84254 0.48088 0.25941 0.0
C1315 C 0.85584 0.49802 0.27281 0.0
C1316 C 0.85508 0.49721 0.29805 0.0
C1317 C 0.84164 0.47925 0.30992 0.0
C1318 C 0.82918 0.46223 0.29624 0.0
C1319 C 0.8295 0.46281 0.27154 0.0
C1320 C 0.81707 0.44073 0.26112 0.0
C1321 C 0.79421 0.44702 0.24754 0.0
C1322 C 0.83474 0.42679 0.24507 0.0
C1323 C 0.81049 0.42741 0.28381 0.0
C1324 C 0.81719 0.44035 0.30385 0.0
C1325 C 0.81442 0.43119 0.32677 0.0
C1326 C 0.80485 0.40799 0.32928 0.0
C1327 C 0.79844 0.39417 0.30896 0.0
C1328 C 0.8009 0.40425 0.28601 0.0
H1329 H 0.85625 0.5996 0.56487 0.0
H1330 H 0.84962 0.61981 0.49082 0.0
H1331 H 0.88792 0.59988 0.48074 0.0
H1332 H 0.92115 0.60962 0.567 0.0
H1333 H 0.92586 0.58501 0.58651 0.0
H1334 H 0.8974 0.59987 0.58767 0.0
H1335 H 0.87431 0.55971 0.58012 0.0
H1336 H 0.90273 0.54475 0.57886 0.0
H1337 H 0.88219 0.54204 0.55425 0.0
H1338 H 0.92713 0.57726 0.47864 0.0
H1339 H 0.9653 0.55666 0.48514 0.0
H1340 H 0.94778 0.55275 0.56095 0.0
C1341 C 0.86276 0.59971 0.54649 0.0
C1342 C 0.84971 0.61118 0.52859 0.0
C1343 C 0.85916 0.61116 0.50485 0.0
C1344 C 0.88091 0.59981 0.49894 0.0
C1345 C 0.8933 0.58868 0.51699 0.0
C1346 C 0.88469 0.58875 0.54034 0.0
C1347 C 0.90205 0.57641 0.55655 0.0
C1348 C 0.91222 0.59376 0.57555 0.0
C1349 C 0.88957 0.55442 0.56813 0.0
C1350 C 0.92176 0.56934 0.53869 0.0
C1351 C 0.91623 0.57638 0.51592 0.0
C1352 C 0.9316 0.57173 0.49642 0.0
C1353 C 0.95326 0.55989 0.50029 0.0
C1354 C 0.95968 0.55295 0.52355 0.0
C1355 C 0.94349 0.55772 0.54293 0.0
H1356 H 0.18881 0.08094 0.2735 0.0
H1357 H 0.14604 0.0932 0.33815 0.0
H1358 H 0.17135 0.12929 0.34673 0.0
H1359 H 0.24585 0.09878 0.29542 0.0
H1360 H 0.25652 0.11352 0.26858 0.0
H1361 H 0.23442 0.08927 0.26681 0.0
H1362 H 0.20504 0.11602 0.24461 0.0
H1363 H 0.22721 0.14028 0.246 0.0
H1364 H 0.19685 0.14406 0.25777 0.0
H1365 H 0.20384 0.16128 0.35034 0.0
H1366 H 0.23797 0.19088 0.34569 0.0
H1367 H 0.25744 0.15967 0.2773 0.0
C1368 C 0.18461 0.09143 0.28929 0.0
C1369 C 0.16561 0.08438 0.30524 0.0
C1370 C 0.16047 0.09849 0.32566 0.0
C1371 C 0.1748 0.11889 0.33073 0.0
C1372 C 0.19379 0.12507 0.31492 0.0
C1373 C 0.19837 0.11209 0.29433 0.0
C1374 C 0.21974 0.1227 0.2802 0.0
C1375 C 0.24034 0.10501 0.27761 0.0
C1376 C 0.21172 0.13128 0.25569 0.0
C1377 C 0.22683 0.14335 0.29636 0.0
C1378 C 0.21178 0.14425 0.31641 0.0
C1379 C 0.21553 0.16098 0.33457 0.0
C1380 C 0.23497 0.17751 0.33193 0.0
C1381 C 0.25004 0.17726 0.31119 0.0
C1382 C 0.24593 0.16006 0.2932 0.0
H1383 H 0.33312 0.94449 0.53305 0.0
H1384 H 0.32021 0.98487 0.59826 0.0
H1385 H 0.35555 0.01157 0.58815 0.0
H1386 H 0.39639 0.94594 0.53468 0.0
H1387 H 0.40104 0.94899 0.50289 0.0
H1388 H 0.37371 0.93445 0.51442 0.0
H1389 H 0.34771 0.96384 0.49147 0.0
H1390 H 0.37501 0.97852 0.47986 0.0
H1391 H 0.35264 0.99537 0.49598 0.0
H1392 H 0.39477 0.03093 0.57291 0.0
H1393 H 0.43383 0.04256 0.55271 0.0
H1394 H 0.41965 0.99055 0.49688 0.0
C1395 C 0.33756 0.95908 0.54513 0.0
C1396 C 0.32405 0.96259 0.5665 0.0
C1397 C 0.33033 0.98194 0.58176 0.0
C1398 C 0.35032 0.99717 0.57615 0.0
C1399 C 0.36345 0.99299 0.55505 0.0
C1400 C 0.35714 0.97456 0.53965 0.0
C1401 C 0.37464 0.97327 0.51854 0.0
C1402 C 0.38718 0.94924 0.5176 0.0
C1403 C 0.36172 0.97804 0.49507 0.0
C1404 C 0.39228 0.99341 0.52479 0.0
C1405 C 0.3855 0.00463 0.54588 0.0
C1406 C 0.40001 0.02256 0.55619 0.0
C1407 C 0.42213 0.02894 0.54476 0.0
C1408 C 0.42939 0.01749 0.52331 0.0
C1409 C 0.41408 0.99986 0.51299 0.0
H1410 H 0.83602 0.61336 0.22331 0.0
H1411 H 0.90587 0.62312 0.25732 0.0
H1412 H 0.89696 0.66507 0.26596 0.0
H1413 H 0.83353 0.67224 0.19723 0.0
H1414 H 0.80142 0.67458 0.20338 0.0
H1415 H 0.81404 0.64584 0.1981 0.0
H1416 H 0.79607 0.6312 0.23873 0.0
H1417 H 0.78334 0.65983 0.24407 0.0
H1418 H 0.80324 0.64765 0.26561 0.0
H1419 H 0.88033 0.70527 0.27159 0.0
H1420 H 0.85561 0.74055 0.27714 0.0
H1421 H 0.7956 0.70414 0.24118 0.0
C1422 C 0.84953 0.62443 0.23233 0.0
C1423 C 0.87169 0.61519 0.23951 0.0
C1424 C 0.88878 0.62997 0.25169 0.0
C1425 C 0.88395 0.6538 0.25653 0.0
C1426 C 0.8619 0.66238 0.24925 0.0
C1427 C 0.84485 0.64814 0.23763 0.0
C1428 C 0.82187 0.6613 0.23328 0.0
C1429 C 0.81747 0.66363 0.2064 0.0
C1430 C 0.79984 0.64928 0.2462 0.0
C1431 C 0.82859 0.68511 0.24451 0.0
C1432 C 0.8519 0.68544 0.25326 0.0
C1433 C 0.86208 0.70528 0.26476 0.0
C1434 C 0.84787 0.72524 0.26779 0.0
C1435 C 0.82366 0.72504 0.25961 0.0
C1436 C 0.81406 0.7048 0.24756 0.0
H1437 H 0.69705 0.46437 0.81544 0.0
H1438 H 0.72191 0.50189 0.75157 0.0
H1439 H 0.75587 0.47492 0.74695 0.0
H1440 H 0.75822 0.45169 0.83721 0.0
H1441 H 0.74886 0.42262 0.84787 0.0
H1442 H 0.72734 0.44604 0.84755 0.0
H1443 H 0.69826 0.41945 0.8221 0.0
H1444 H 0.71961 0.39598 0.82246 0.0
H1445 H 0.70932 0.40685 0.79438 0.0
H1446 H 0.78413 0.44212 0.74641 0.0
H1447 H 0.8059 0.40482 0.75052 0.0
H1448 H 0.76494 0.38904 0.8157 0.0
C1449 C 0.7098 0.46703 0.80065 0.0
C1450 C 0.70682 0.48524 0.78387 0.0
C1451 C 0.72381 0.4881 0.76467 0.0
C1452 C 0.74325 0.47294 0.76193 0.0
C1453 C 0.74563 0.45513 0.77865 0.0
C1454 C 0.72951 0.4521 0.79771 0.0
C1455 C 0.73567 0.43069 0.81235 0.0
C1456 C 0.74296 0.43822 0.83775 0.0
C1457 C 0.71445 0.41215 0.81284 0.0
C1458 C 0.75729 0.42183 0.79807 0.0
C1459 C 0.76274 0.43635 0.77878 0.0
C1460 C 0.78046 0.43086 0.7617 0.0
C1461 C 0.79267 0.40971 0.76414 0.0
C1462 C 0.7873 0.39456 0.78363 0.0
C1463 C 0.76978 0.40084 0.80108 0.0
H1464 H 0.04569 0.85304 0.97225 0.0
H1465 H 0.01431 0.86594 0.90319 0.0
H1466 H 0.01315 0.90841 0.9126 0.0
H1467 H 0.01005 0.89757 0.00501 0.0
H1468 H 0.03458 0.90693 0.02416 0.0
H1469 H 0.033 0.87697 0.01249 0.0
H1470 H 0.0765 0.88273 0.99459 0.0
H1471 H 0.07811 0.91276 0.00608 0.0
H1472 H 0.08326 0.90714 0.97466 0.0
H1473 H 0.01613 0.95024 0.9282 0.0
H1474 H 0.02082 0.98812 0.95043 0.0
H1475 H 0.04925 0.95035 0.01039 0.0
C1476 C 0.0384 0.86475 0.95919 0.0
C1477 C 0.03016 0.85557 0.93681 0.0
C1478 C 0.02086 0.87195 0.9204 0.0
C1479 C 0.02011 0.89639 0.92555 0.0
C1480 C 0.02858 0.90483 0.9474 0.0
C1481 C 0.03736 0.88959 0.96414 0.0
C1482 C 0.04506 0.90378 0.98635 0.0
C1483 C 0.02976 0.89583 0.0083 0.0
C1484 C 0.07235 0.90146 0.99067 0.0
C1485 C 0.03937 0.92918 0.97929 0.0
C1486 C 0.02997 0.92925 0.95665 0.0
C1487 C 0.02343 0.95037 0.94599 0.0
C1488 C 0.02626 0.97194 0.95879 0.0
C1489 C 0.03551 0.9726 0.98224 0.0
C1490 C 0.04223 0.95071 0.99249 0.0
H1491 H 0.98338 0.31362 0.72257 0.0
H1492 H 0.96948 0.35373 0.65884 0.0
H1493 H 0.93632 0.37391 0.68022 0.0
H1494 H 0.92405 0.30115 0.7371 0.0
H1495 H 0.92727 0.30317 0.76904 0.0
H1496 H 0.95289 0.29581 0.75041 0.0
H1497 H 0.97776 0.33127 0.76871 0.0
H1498 H 0.95191 0.33891 0.78719 0.0
H1499 H 0.96612 0.36077 0.76766 0.0
H1500 H 0.901 0.3842 0.70528 0.0
H1501 H 0.86412 0.38131 0.73099 0.0
H1502 H 0.90073 0.33555 0.77923 0.0
C1503 C 0.97376 0.32712 0.71334 0.0
C1504 C 0.97901 0.33223 0.68913 0.0
C1505 C 0.96571 0.34956 0.67741 0.0
C1506 C 0.94704 0.36131 0.6895 0.0
C1507 C 0.94203 0.35561 0.7133 0.0
C1508 C 0.95497 0.33888 0.72511 0.0
C1509 C 0.94374 0.33346 0.74944 0.0
C1510 C 0.93655 0.30684 0.7516 0.0
C1511 C 0.96091 0.34159 0.76943 0.0
C1512 C 0.92165 0.34871 0.7489 0.0
C1513 C 0.9214 0.36185 0.72814 0.0
C1514 C 0.90129 0.37463 0.72192 0.0
C1515 C 0.88047 0.37296 0.73662 0.0
C1516 C 0.88002 0.3587 0.75725 0.0
C1517 C 0.90115 0.34737 0.76408 0.0
H1518 H 0.52211 0.19128 0.42382 0.0
H1519 H 0.54119 0.23853 0.48263 0.0
H1520 H 0.54704 0.20361 0.50824 0.0
H1521 H 0.48767 0.14794 0.46035 0.0
H1522 H 0.49717 0.12276 0.4428 0.0
H1523 H 0.49504 0.15138 0.42903 0.0
H1524 H 0.53989 0.14946 0.41452 0.0
H1525 H 0.5422 0.1209 0.42836 0.0
H1526 H 0.56325 0.14489 0.43593 0.0
H1527 H 0.55396 0.16276 0.52668 0.0
H1528 H 0.556 0.12045 0.53788 0.0
H1529 H 0.52816 0.09925 0.46878 0.0
C1530 C 0.52746 0.19433 0.44213 0.0
C1531 C 0.53132 0.21792 0.45107 0.0
C1532 C 0.53804 0.22086 0.47525 0.0
C1533 C 0.54153 0.20103 0.48993 0.0
C1534 C 0.53777 0.1781 0.48049 0.0
C1535 C 0.53042 0.17467 0.45723 0.0
C1536 C 0.5267 0.14819 0.4517 0.0
C1537 C 0.50006 0.14222 0.44561 0.0
C1538 C 0.54404 0.14041 0.43142 0.0
C1539 C 0.53332 0.13717 0.47536 0.0
C1540 C 0.54007 0.15476 0.49159 0.0
C1541 C 0.54832 0.14897 0.51417 0.0
C1542 C 0.54951 0.1248 0.52038 0.0
C1543 C 0.54195 0.10639 0.50444 0.0
C1544 C 0.53366 0.11283 0.48159 0.0
H1545 H 0.57659 0.78697 0.20069 0.0
H1546 H 0.59523 0.76109 0.12956 0.0
H1547 H 0.63537 0.74987 0.1436 0.0
H1548 H 0.63788 0.81152 0.21369 0.0
H1549 H 0.6355 0.80349 0.24475 0.0
H1550 H 0.60861 0.81045 0.22878 0.0
H1551 H 0.58887 0.76968 0.24064 0.0
H1552 H 0.61579 0.76246 0.25637 0.0
H1553 H 0.60443 0.74284 0.2332 0.0
H1554 H 0.67146 0.73765 0.16614 0.0
H1555 H 0.7039 0.73019 0.19503 0.0
H1556 H 0.66335 0.76656 0.25045 0.0
C1557 C 0.58926 0.77923 0.18804 0.0
C1558 C 0.58284 0.77482 0.16409 0.0
C1559 C 0.59988 0.76475 0.14797 0.0
C1560 C 0.62266 0.7582 0.15578 0.0
C1561 C 0.62823 0.76229 0.17962 0.0
C1562 C 0.61228 0.77302 0.19541 0.0
C1563 C 0.62286 0.77549 0.22007 0.0
C1564 C 0.62643 0.8018 0.22724 0.0
C1565 C 0.60704 0.76179 0.23866 0.0
C1566 C 0.64697 0.76392 0.21579 0.0
C1567 C 0.64961 0.75624 0.19237 0.0
C1568 C 0.66979 0.74387 0.18443 0.0
C1569 C 0.68794 0.73956 0.20084 0.0
C1570 C 0.68577 0.74788 0.22462 0.0
C1571 C 0.66516 0.76022 0.2322 0.0
H1572 H 0.01305 0.21843 0.59964 0.0
H1573 H 0.04809 0.22564 0.66811 0.0
H1574 H 0.05849 0.18337 0.66618 0.0
H1575 H 0.98903 0.15569 0.61109 0.0
H1576 H 0.99322 0.14676 0.58042 0.0
H1577 H 0.9855 0.17689 0.5876 0.0
H1578 H 0.02319 0.19342 0.56441 0.0
H1579 H 0.03114 0.1637 0.5562 0.0
H1580 H 0.05285 0.183 0.57125 0.0
H1581 H 0.07199 0.14312 0.65298 0.0
H1582 H 0.08152 0.10521 0.63252 0.0
H1583 H 0.03494 0.12307 0.57442 0.0
C1584 C 0.02219 0.21085 0.61455 0.0
C1585 C 0.02975 0.22518 0.63402 0.0
C1586 C 0.04186 0.21483 0.65318 0.0
C1587 C 0.04797 0.19088 0.65218 0.0
C1588 C 0.04116 0.17743 0.63226 0.0
C1589 C 0.02782 0.1868 0.61416 0.0
C1590 C 0.02334 0.16869 0.59444 0.0
C1591 C 0.99616 0.16161 0.59332 0.0
C1592 C 0.03324 0.17775 0.57015 0.0
C1593 C 0.03786 0.14838 0.60338 0.0
C1594 C 0.04785 0.15367 0.62531 0.0
C1595 C 0.06375 0.13849 0.63611 0.0
C1596 C 0.06929 0.1172 0.62429 0.0
C1597 C 0.05882 0.11131 0.60207 0.0
C1598 C 0.04281 0.12705 0.59162 0.0
H1599 H 0.61466 0.29413 0.36559 0.0
H1600 H 0.5893 0.22827 0.33192 0.0
H1601 H 0.62909 0.2247 0.3116 0.0
H1602 H 0.65077 0.31592 0.3144 0.0
H1603 H 0.67487 0.3287 0.33224 0.0
H1604 H 0.64428 0.32643 0.3443 0.0
H1605 H 0.65947 0.30309 0.38033 0.0
H1606 H 0.69009 0.30522 0.36832 0.0
H1607 H 0.67625 0.27653 0.37509 0.0
H1608 H 0.67188 0.22726 0.29547 0.0
H1609 H 0.71432 0.23673 0.28326 0.0
H1610 H 0.71319 0.30147 0.32607 0.0
C1611 C 0.61744 0.27902 0.35385 0.0
C1612 C 0.59858 0.26147 0.35045 0.0
C1613 C 0.6032 0.242 0.33492 0.0
C1614 C 0.62586 0.23977 0.32326 0.0
C1615 C 0.64403 0.25718 0.32707 0.0
C1616 C 0.64012 0.27654 0.34186 0.0
C1617 C 0.66294 0.2927 0.34263 0.0
C1618 C 0.65791 0.3174 0.3328 0.0
C1619 C 0.67276 0.29448 0.36811 0.0
C1620 C 0.68019 0.27934 0.32605 0.0
C1621 C 0.66882 0.25885 0.3174 0.0
C1622 C 0.68091 0.24333 0.30206 0.0
C1623 C 0.70514 0.24889 0.29523 0.0
C1624 C 0.71733 0.26991 0.30354 0.0
C1625 C 0.70452 0.28529 0.31926 0.0
H1626 H 0.51621 0.84631 0.06477 0.0
H1627 H 0.50179 0.86014 0.14005 0.0
H1628 H 0.49888 0.9029 0.13179 0.0
H1629 H 0.55314 0.89692 0.05351 0.0
H1630 H 0.54151 0.90221 0.02426 0.0
H1631 H 0.54087 0.87253 0.03588 0.0
H1632 H 0.49434 0.86882 0.02949 0.0
H1633 H 0.49487 0.89853 0.01777 0.0
H1634 H 0.47487 0.89076 0.04258 0.0
H1635 H 0.50231 0.9446 0.11595 0.0
H1636 H 0.50823 0.98175 0.09281 0.0
H1637 H 0.5174 0.93999 0.02789 0.0
C1638 C 0.51215 0.8583 0.07945 0.0
C1639 C 0.50931 0.85 0.10301 0.0
C1640 C 0.50396 0.86618 0.1218 0.0
C1641 C 0.50229 0.89048 0.11732 0.0
C1642 C 0.50557 0.89819 0.09391 0.0
C1643 C 0.51 0.88254 0.07524 0.0
C1644 C 0.51331 0.89541 0.05181 0.0
C1645 C 0.53872 0.89154 0.04073 0.0
C1646 C 0.49314 0.88793 0.03439 0.0
C1647 C 0.5107 0.92076 0.06033 0.0
C1648 C 0.50633 0.92207 0.08467 0.0
C1649 C 0.50522 0.94381 0.09679 0.0
C1650 C 0.50867 0.96476 0.08359 0.0
C1651 C 0.51285 0.96363 0.05861 0.0
C1652 C 0.51363 0.94135 0.04691 0.0
H1653 H 0.94334 0.77042 0.86306 0.0
H1654 H 0.98235 0.82551 0.82264 0.0
H1655 H 0.9459 0.8314 0.79891 0.0
H1656 H 0.90889 0.74554 0.81313 0.0
H1657 H 0.88158 0.73978 0.83075 0.0
H1658 H 0.91085 0.73949 0.84457 0.0
H1659 H 0.89689 0.771 0.87547 0.0
H1660 H 0.86761 0.77138 0.86172 0.0
H1661 H 0.88543 0.79861 0.86517 0.0
H1662 H 0.90442 0.8327 0.78021 0.0
H1663 H 0.8618 0.828 0.76725 0.0
H1664 H 0.84934 0.77137 0.81849 0.0
C1665 C 0.94427 0.7836 0.84911 0.0
C1666 C 0.96599 0.79745 0.84483 0.0
C1667 C 0.96617 0.81458 0.82639 0.0
C1668 C 0.94544 0.81812 0.81275 0.0
C1669 C 0.92438 0.80436 0.8175 0.0
C1670 C 0.92363 0.78734 0.83515 0.0
C1671 C 0.89852 0.77507 0.83659 0.0
C1672 C 0.90006 0.74838 0.83092 0.0
C1673 C 0.8864 0.77927 0.8612 0.0
C1674 C 0.88537 0.78786 0.81706 0.0
C1675 C 0.90061 0.80479 0.80636 0.0
C1676 C 0.89241 0.81935 0.78836 0.0
C1677 C 0.8681 0.81657 0.7811 0.0
C1678 C 0.85209 0.7992 0.79159 0.0
C1679 C 0.86107 0.78464 0.80981 0.0
H1680 H 0.92045 0.03557 0.83992 0.0
H1681 H 0.90836 0.11029 0.82787 0.0
H1682 H 0.9323 0.1209 0.86343 0.0
H1683 H 0.91719 0.03834 0.90489 0.0
H1684 H 0.94086 0.01739 0.90837 0.0
H1685 H 0.92183 0.01554 0.88258 0.0
H1686 H 0.96009 0.0182 0.85482 0.0
H1687 H 0.97921 0.02006 0.8805 0.0
H1688 H 0.98158 0.04286 0.85814 0.0
H1689 H 0.95882 0.12353 0.89899 0.0
H1690 H 0.9862 0.11805 0.93263 0.0
H1691 H 0.98115 0.04167 0.92156 0.0
C1692 C 0.92266 0.05415 0.84486 0.0
C1693 C 0.91254 0.07212 0.83117 0.0
C1694 C 0.91595 0.09623 0.83813 0.0
C1695 C 0.92947 0.10244 0.85831 0.0
C1696 C 0.93934 0.08431 0.87131 0.0
C1697 C 0.93608 0.06066 0.86494 0.0
C1698 C 0.94924 0.04469 0.88159 0.0
C1699 C 0.9312 0.02801 0.89516 0.0
C1700 C 0.96868 0.03063 0.86794 0.0
C1701 C 0.96067 0.06311 0.89814 0.0
C1702 C 0.95465 0.08583 0.89193 0.0
C1703 C 0.9636 0.10583 0.90409 0.0
C1704 C 0.97927 0.10255 0.92305 0.0
C1705 C 0.98583 0.07944 0.92963 0.0
C1706 C 0.97618 0.0595 0.91711 0.0
H1707 H 0.79881 0.24437 0.56969 0.0
H1708 H 0.85836 0.20205 0.59288 0.0
H1709 H 0.86127 0.2263 0.62964 0.0
H1710 H 0.82162 0.3016 0.59453 0.0
H1711 H 0.79157 0.31059 0.60323 0.0
H1712 H 0.7957 0.29143 0.57759 0.0
H1713 H 0.76495 0.26053 0.59605 0.0
H1714 H 0.76083 0.27948 0.62179 0.0
H1715 H 0.77004 0.24936 0.62552 0.0
H1716 H 0.85522 0.25202 0.66509 0.0
H1717 H 0.84141 0.27846 0.69714 0.0
H1718 H 0.78641 0.30527 0.65082 0.0
C1719 C 0.81276 0.24045 0.58228 0.0
C1720 C 0.82839 0.22136 0.57842 0.0
C1721 C 0.84621 0.21662 0.59547 0.0
C1722 C 0.84805 0.23032 0.61636 0.0
C1723 C 0.83207 0.24872 0.61981 0.0
C1724 C 0.81486 0.25393 0.60323 0.0
C1725 C 0.79896 0.27376 0.61198 0.0
C1726 C 0.80217 0.29564 0.59587 0.0
C1727 C 0.77211 0.26526 0.61395 0.0
C1728 C 0.80959 0.27848 0.63632 0.0
C1729 C 0.82877 0.26393 0.64034 0.0
C1730 C 0.84061 0.26392 0.66199 0.0
C1731 C 0.83266 0.27922 0.68007 0.0
C1732 C 0.81305 0.29442 0.67641 0.0
C1733 C 0.80151 0.29404 0.65413 0.0
H1734 H 0.62335 0.0594 0.36261 0.0
H1735 H 0.60524 0.98833 0.33661 0.0
H1736 H 0.58398 0.97912 0.37507 0.0
H1737 H 0.6379 0.04141 0.42083 0.0
H1738 H 0.62634 0.06747 0.43549 0.0
H1739 H 0.63773 0.06922 0.40517 0.0
H1740 H 0.59669 0.08545 0.39174 0.0
H1741 H 0.58524 0.08394 0.42207 0.0
H1742 H 0.56881 0.0689 0.39851 0.0
H1743 H 0.56394 0.97843 0.41621 0.0
H1744 H 0.55024 0.98493 0.45825 0.0
H1745 H 0.58628 0.05457 0.45813 0.0
C1746 C 0.61449 0.04207 0.3649 0.0
C1747 C 0.61539 0.02466 0.34671 0.0
C1748 C 0.6044 1.00189 0.35043 0.0
C1749 C 0.59232 0.99656 0.37212 0.0
C1750 C 0.59199 0.01408 0.38989 0.0
C1751 C 0.60305 0.03627 0.3866 0.0
C1752 C 0.60186 0.05131 0.40905 0.0
C1753 C 0.62748 0.05772 0.41816 0.0
C1754 C 0.58728 0.07372 0.4051 0.0
C1755 C 0.58837 0.03415 0.42552 0.0
C1756 C 0.58238 0.01293 0.41407 0.0
C1757 C 0.5688 0.99483 0.42546 0.0
C1758 C 0.56114 0.99861 0.44921 0.0
C1759 C 0.56777 0.01998 0.46123 0.0
C1760 C 0.5816 0.03786 0.44932 0.0
H1761 H 0.75503 0.86887 0.1155 0.0
H1762 H 0.82535 0.84884 0.08704 0.0
H1763 H 0.8336 0.82866 0.1248 0.0
H1764 H 0.77179 0.87847 0.17669 0.0
H1765 H 0.74438 0.86506 0.18953 0.0
H1766 H 0.74382 0.87848 0.16048 0.0
H1767 H 0.72652 0.83909 0.14244 0.0
H1768 H 0.72686 0.82562 0.17148 0.0
H1769 H 0.74248 0.81205 0.14652 0.0
H1770 H 0.83598 0.81344 0.16744 0.0
H1771 H 0.82948 0.79868 0.20869 0.0
H1772 H 0.75579 0.82334 0.20883 0.0
C1773 C 0.77208 0.86007 0.11716 0.0
C1774 C 0.78957 0.86063 0.098 0.0
C1775 C 0.81155 0.84867 0.10111 0.0
C1776 C 0.8165 0.83724 0.12268 0.0
C1777 C 0.7991 0.83719 0.1412 0.0
C1778 C 0.77704 0.84778 0.13848 0.0
C1779 C 0.76106 0.84399 0.1609 0.0
C1780 C 0.7549 0.86793 0.17258 0.0
C1781 C 0.73785 0.82932 0.15498 0.0
C1782 C 0.7777 0.83002 0.1767 0.0
C1783 C 0.79975 0.82673 0.16509 0.0
C1784 C 0.81862 0.81561 0.17647 0.0
C1785 C 0.81482 0.80736 0.20002 0.0
C1786 C 0.79212 0.80957 0.21207 0.0
C1787 C 0.77329 0.82108 0.20007 0.0
H1788 H 0.92322 0.07734 0.68855 0.0
H1789 H 0.91033 0.00762 0.7195 0.0
H1790 H 0.93511 0.98977 0.68713 0.0
H1791 H 0.92204 0.06014 0.62734 0.0
H1792 H 0.94667 0.08013 0.61809 0.0
H1793 H 0.92783 0.0875 0.64359 0.0
H1794 H 0.96603 0.09188 0.66983 0.0
H1795 H 0.98497 0.08469 0.64432 0.0
H1796 H 0.98648 0.06763 0.67128 0.0
H1797 H 0.95816 0.97925 0.64967 0.0
H1798 H 0.98324 0.97736 0.61248 0.0
H1799 H 0.98462 0.05426 0.60838 0.0
C1800 C 0.92577 0.05835 0.6885 0.0
C1801 C 0.91487 0.04375 0.70631 0.0
C1802 C 0.9187 0.01903 0.70598 0.0
C1803 C 0.9326 0.00875 0.68764 0.0
C1804 C 0.94292 0.02357 0.67016 0.0
C1805 C 0.94014 0.04789 0.6707 0.0
C1806 C 0.95392 0.05988 0.65022 0.0
C1807 C 0.93657 0.07266 0.63384 0.0
C1808 C 0.97405 0.07703 0.65947 0.0
C1809 C 0.96448 0.03844 0.63789 0.0
C1810 C 0.95762 0.01764 0.64947 0.0
C1811 C 0.964 0.99542 0.64063 0.0
C1812 C 0.97807 0.99449 0.61953 0.0
C1813 C 0.98593 0.01567 0.60796 0.0
C1814 C 0.97908 0.03787 0.61724 0.0
H1815 H 0.80226 0.24522 0.45508 0.0
H1816 H 0.84207 0.18118 0.44143 0.0
H1817 H 0.84791 0.19258 0.39909 0.0
H1818 H 0.77002 0.24462 0.40391 0.0
H1819 H 0.77146 0.27625 0.39916 0.0
H1820 H 0.77356 0.26486 0.42886 0.0
H1821 H 0.81472 0.28795 0.43423 0.0
H1822 H 0.81264 0.29963 0.40452 0.0
H1823 H 0.83912 0.28388 0.41276 0.0
H1824 H 0.84257 0.20724 0.35746 0.0
H1825 H 0.83033 0.22644 0.3202 0.0
H1826 H 0.79681 0.28222 0.36201 0.0
C1827 C 0.81269 0.2339 0.44327 0.0
C1828 C 0.82165 0.21235 0.45127 0.0
C1829 C 0.8352 0.19787 0.43549 0.0
C1830 C 0.8386 0.20419 0.41149 0.0
C1831 C 0.82885 0.22528 0.40393 0.0
C1832 C 0.81664 0.24018 0.41949 0.0
C1833 C 0.80663 0.26107 0.40673 0.0
C1834 C 0.77878 0.26171 0.40985 0.0
C1835 C 0.81903 0.28452 0.41505 0.0
C1836 C 0.81403 0.25498 0.38137 0.0
C1837 C 0.8269 0.23434 0.38006 0.0
C1838 C 0.83316 0.2238 0.35826 0.0
C1839 C 0.82601 0.23468 0.33726 0.0
C1840 C 0.813 0.2559 0.33841 0.0
C1841 C 0.80732 0.26632 0.3607 0.0
H1842 H 0.61203 0.05249 0.22646 0.0
H1843 H 0.66892 0.00635 0.20098 0.0
H1844 H 0.65613 0.01195 0.15963 0.0
H1845 H 0.56716 0.03145 0.18587 0.0
H1846 H 0.55436 0.06013 0.18178 0.0
H1847 H 0.56884 0.05357 0.20935 0.0
H1848 H 0.59756 0.09069 0.20394 0.0
H1849 H 0.5833 0.09722 0.17619 0.0
H1850 H 0.61572 0.0938 0.17691 0.0
H1851 H 0.63691 0.02129 0.12159 0.0
H1852 H 0.61013 0.03166 0.08886 0.0
H1853 H 0.56528 0.07139 0.13854 0.0
C1854 C 0.62185 0.04363 0.21218 0.0
C1855 C 0.6415 0.02902 0.21694 0.0
C1856 C 0.65378 0.01759 0.19778 0.0
C1857 C 0.64678 0.02078 0.17422 0.0
C1858 C 0.62749 0.03543 0.17014 0.0
C1859 C 0.61505 0.04654 0.18853 0.0
C1860 C 0.59416 0.06036 0.17926 0.0
C1861 C 0.56969 0.0508 0.18968 0.0
C1862 C 0.59792 0.08711 0.18438 0.0
C1863 C 0.5966 0.05492 0.15282 0.0
C1864 C 0.61615 0.04073 0.14799 0.0
C1865 C 0.62161 0.03247 0.12509 0.0
C1866 C 0.60627 0.03835 0.10668 0.0
C1867 C 0.58567 0.05221 0.11133 0.0
C1868 C 0.58113 0.06107 0.13456 0.0
H1869 H 0.80288 0.83383 0.9558 0.0
H1870 H 0.76292 0.89878 0.95332 0.0
H1871 H 0.75407 0.89085 0.91086 0.0
H1872 H 0.829 0.83626 0.89628 0.0
H1873 H 0.8254 0.8048 0.8905 0.0
H1874 H 0.82898 0.8156 0.92066 0.0
H1875 H 0.78879 0.7936 0.93341 0.0
H1876 H 0.78513 0.7827 0.90328 0.0
H1877 H 0.76132 0.79912 0.9177 0.0
H1878 H 0.75194 0.87718 0.86712 0.0
H1879 H 0.7529 0.85674 0.82769 0.0
H1880 H 0.79058 0.79863 0.85881 0.0
C1881 C 0.79218 0.84635 0.94635 0.0
C1882 C 0.7837 0.86708 0.95816 0.0
C1883 C 0.76962 0.88279 0.94496 0.0
C1884 C 0.76456 0.87846 0.92068 0.0
C1885 C 0.77326 0.85803 0.90956 0.0
C1886 C 0.78646 0.842 0.92208 0.0
C1887 C 0.79299 0.82101 0.90601 0.0
C1888 C 0.82074 0.81933 0.9032 0.0
C1889 C 0.78136 0.79773 0.91568 0.0
C1890 C 0.78165 0.82783 0.88252 0.0
C1891 C 0.77065 0.84945 0.88487 0.0
C1892 C 0.76016 0.86006 0.86527 0.0
C1893 C 0.76079 0.84832 0.84286 0.0
C1894 C 0.77132 0.82582 0.84007 0.0
C1895 C 0.78183 0.81553 0.86036 0.0
H1896 H 0.87639 0.92469 0.03477 0.0
H1897 H 0.82742 0.98311 0.03054 0.0
H1898 H 0.86272 0.01158 0.02947 0.0
H1899 H 0.91897 0.95523 0.07439 0.0
H1900 H 0.94546 0.94218 0.06094 0.0
H1901 H 0.91649 0.92626 0.06044 0.0
H1902 H 0.91991 0.92258 0.0144 0.0
H1903 H 0.94891 0.93842 0.01478 0.0
H1904 H 0.92481 0.94903 0.99682 0.0
H1905 H 0.90395 0.0338 0.02642 0.0
H1906 H 0.94707 0.04799 0.02541 0.0
H1907 H 0.96967 0.97595 0.03585 0.0
C1908 C 0.87308 0.94347 0.0335 0.0
C1909 C 0.84892 0.95155 0.03248 0.0
C1910 C 0.84558 0.97637 0.03128 0.0
C1911 C 0.8656 0.99271 0.03062 0.0
C1912 C 0.8891 0.98418 0.03168 0.0
C1913 C 0.89293 0.96014 0.03343 0.0
C1914 C 0.92003 0.95574 0.03524 0.0
C1915 C 0.92556 0.94417 0.05918 0.0
C1916 C 0.92893 0.94054 0.01405 0.0
C1917 C 0.93087 0.981 0.034 0.0
C1918 C 0.91269 0.99711 0.03161 0.0
C1919 C 0.91823 0.02133 0.02868 0.0
C1920 C 0.94283 0.02927 0.02814 0.0
C1921 C 0.96182 0.01327 0.03109 0.0
C1922 C 0.9556 0.98877 0.03421 0.0
H1923 H 0.39751 0.627 1.00229 0.0
H1924 H 0.33701 0.57806 0.98757 0.0
H1925 H 0.36526 0.54515 0.98343 0.0
H1926 H 0.44561 0.59557 0.96464 0.0
H1927 H 0.46814 0.60192 0.98694 0.0
H1928 H 0.44438 0.62252 0.98224 0.0
H1929 H 0.43239 0.62028 0.02718 0.0
H1930 H 0.4558 0.59956 0.03196 0.0
H1931 H 0.42473 0.59175 0.04019 0.0
H1932 H 0.39809 0.51677 0.98895 0.0
H1933 H 0.43312 0.49522 0.00357 0.0
H1934 H 0.47198 0.56256 0.01564 0.0
C1935 C 0.39042 0.60955 0.99712 0.0
C1936 C 0.36524 0.605 0.995 0.0
C1937 C 0.35635 0.58184 0.98911 0.0
C1938 C 0.37226 0.56308 0.9866 0.0
C1939 C 0.39694 0.56786 0.99001 0.0
C1940 C 0.40604 0.59059 0.99494 0.0
C1941 C 0.43253 0.59043 1.00156 0.0
C1942 C 0.44861 0.60337 0.98271 0.0
C1943 C 0.43657 0.60112 0.0267 0.0
C1944 C 0.43643 0.564 1.00097 0.0
C1945 C 0.41594 0.55129 0.99369 0.0
C1946 C 0.41448 0.5265 0.99411 0.0
C1947 C 0.43438 0.51442 1.00255 0.0
C1948 C 0.45521 0.52723 0.01072 0.0
C1949 C 0.45637 0.55226 0.00932 0.0
H1950 H 0.22041 0.58516 0.82058 0.0
H1951 H 0.27085 0.54658 0.77572 0.0
H1952 H 0.30334 0.5761 0.78505 0.0
H1953 H 0.23238 0.63599 0.7993 0.0
H1954 H 0.23032 0.65413 0.82596 0.0
H1955 H 0.21466 0.62586 0.82492 0.0
H1956 H 0.23684 0.613 0.86277 0.0
H1957 H 0.25275 0.64154 0.86386 0.0
H1958 H 0.26958 0.61464 0.86339 0.0
H1959 H 0.32528 0.61377 0.78775 0.0
H1960 H 0.33317 0.65644 0.78098 0.0
H1961 H 0.26886 0.67251 0.82297 0.0
C1962 C 0.23864 0.58241 0.81371 0.0
C1963 C 0.24322 0.56379 0.79744 0.0
C1964 C 0.26701 0.56087 0.78819 0.0
C1965 C 0.28566 0.57739 0.79368 0.0
C1966 C 0.28021 0.59665 0.80848 0.0
C1967 C 0.25724 0.59912 0.81864 0.0
C1968 C 0.25425 0.62382 0.82895 0.0
C1969 C 0.23161 0.63562 0.81915 0.0
C1970 C 0.25331 0.6232 0.85637 0.0
C1971 C 0.27771 0.63573 0.82002 0.0
C1972 C 0.29308 0.61943 0.8096 0.0
C1973 C 0.31378 0.6266 0.79644 0.0
C1974 C 0.31799 0.65086 0.79244 0.0
C1975 C 0.30138 0.66757 0.80126 0.0
C1976 C 0.28202 0.66003 0.81649 0.0
H1977 H 0.1986 0.44853 0.51617 0.0
H1978 H 0.21998 0.47673 0.58537 0.0
H1979 H 0.18099 0.49659 0.58952 0.0
H1980 H 0.16725 0.50128 0.49761 0.0
H1981 H 0.14331 0.48471 0.48269 0.0
H1982 H 0.17301 0.47247 0.48477 0.0
H1983 H 0.15384 0.4348 0.50467 0.0
H1984 H 0.12409 0.44694 0.50266 0.0
H1985 H 0.13498 0.43782 0.53116 0.0
H1986 H 0.13925 0.5124 0.58736 0.0
H1987 H 0.09799 0.52466 0.57818 0.0
H1988 H 0.10264 0.48821 0.50961 0.0
C1989 C 0.1951 0.45894 0.53215 0.0
C1990 C 0.21261 0.46095 0.55047 0.0
C1991 C 0.20713 0.47483 0.57104 0.0
C1992 C 0.18491 0.48622 0.57361 0.0
C1993 C 0.1681 0.48386 0.5554 0.0
C1994 C 0.17289 0.47072 0.53496 0.0
C1995 C 0.15148 0.47135 0.5181 0.0
C1996 C 0.15923 0.48315 0.49438 0.0
C1997 C 0.14045 0.44623 0.5139 0.0
C1998 C 0.13396 0.48673 0.53236 0.0
C1999 C 0.144 0.4936 0.55387 0.0
C2000 C 0.13128 0.50726 0.57049 0.0
C2001 C 0.10774 0.51412 0.5651 0.0
C2002 C 0.09691 0.50759 0.54311 0.0
C2003 C 0.11039 0.49374 0.52648 0.0
H2004 H 0.81003 0.01552 0.72656 0.0
H2005 H 0.80303 0.02404 0.80327 0.0
H2006 H 0.78321 0.98415 0.8061 0.0
H2007 H 0.75383 0.97355 0.71749 0.0
H2008 H 0.77051 0.95668 0.69551 0.0
H2009 H 0.77636 0.98828 0.69849 0.0
H2010 H 0.82198 0.98071 0.70423 0.0
H2011 H 0.81631 0.9492 0.70196 0.0
H2012 H 0.83081 0.96168 0.72803 0.0
H2013 H 0.77357 0.94113 0.80195 0.0
H2014 H 0.77269 0.89866 0.79099 0.0
H2015 H 0.78857 0.91696 0.71711 0.0
C2016 C 0.80286 0.00953 0.74371 0.0
C2017 C 0.8074 0.02295 0.76464 0.0
C2018 C 0.79914 0.01414 0.78702 0.0
C2019 C 0.78794 0.99148 0.78877 0.0
C2020 C 0.78528 0.9779 0.76796 0.0
C2021 C 0.7922 0.9867 0.74575 0.0
C2022 C 0.79155 0.96723 0.72685 0.0
C2023 C 0.77188 0.9717 0.7085 0.0
C2024 C 0.81665 0.96456 0.71457 0.0
C2025 C 0.78467 0.94593 0.74211 0.0
C2026 C 0.78056 0.95255 0.76565 0.0
C2027 C 0.77624 0.93578 0.78349 0.0
C2028 C 0.77615 0.91165 0.77713 0.0
C2029 C 0.78069 0.90445 0.75317 0.0
C2030 C 0.78461 0.92192 0.73547 0.0
H2031 H 0.73756 0.14371 0.50798 0.0
H2032 H 0.7885 0.09599 0.53877 0.0
H2033 H 0.75574 0.06521 0.54278 0.0
H2034 H 0.68931 0.13001 0.5459 0.0
H2035 H 0.66603 0.13173 0.52387 0.0
H2036 H 0.6941 0.14869 0.52015 0.0
H2037 H 0.70099 0.1292 0.47852 0.0
H2038 H 0.67284 0.11214 0.48212 0.0
H2039 H 0.70076 0.09726 0.47575 0.0
H2040 H 0.71694 0.04179 0.54809 0.0
H2041 H 0.67447 0.02729 0.55442 0.0
H2042 H 0.6489 0.09002 0.51994 0.0
C2043 C 0.74197 0.12664 0.51516 0.0
C2044 C 0.76557 0.12225 0.52308 0.0
C2045 C 0.77054 0.09975 0.53257 0.0
C2046 C 0.7521 0.0821 0.5348 0.0
C2047 C 0.72892 0.08719 0.52722 0.0
C2048 C 0.72383 0.10884 0.51745 0.0
C2049 C 0.69701 0.11056 0.51257 0.0
C2050 C 0.68598 0.13147 0.52646 0.0
C2051 C 0.69265 0.11239 0.48564 0.0
C2052 C 0.68766 0.08689 0.52214 0.0
C2053 C 0.70642 0.07353 0.53015 0.0
C2054 C 0.70214 0.05189 0.54154 0.0
C2055 C 0.67801 0.0439 0.54521 0.0
C2056 C 0.65856 0.05758 0.53761 0.0
C2057 C 0.6635 0.07904 0.52545 0.0
H2058 H 0.24226 0.45233 0.74549 0.0
H2059 H 0.18769 0.45218 0.80265 0.0
H2060 H 0.20643 0.41748 0.82044 0.0
H2061 H 0.24545 0.38918 0.7392 0.0
H2062 H 0.27772 0.39027 0.73302 0.0
H2063 H 0.2597 0.41499 0.72534 0.0
H2064 H 0.28822 0.4428 0.75031 0.0
H2065 H 0.30579 0.41791 0.75872 0.0
H2066 H 0.29247 0.43659 0.78144 0.0
H2067 H 0.22965 0.38194 0.83072 0.0
H2068 H 0.25324 0.34536 0.8303 0.0
H2069 H 0.29437 0.37053 0.76833 0.0
C2070 C 0.23406 0.44486 0.7616 0.0
C2071 C 0.21349 0.45486 0.77267 0.0
C2072 C 0.20341 0.44469 0.79384 0.0
C2073 C 0.21406 0.42517 0.8042 0.0
C2074 C 0.23486 0.41628 0.79327 0.0
C2075 C 0.24458 0.42559 0.7723 0.0
C2076 C 0.26648 0.41223 0.76366 0.0
C2077 C 0.26206 0.401 0.73886 0.0
C2078 C 0.28961 0.42835 0.76354 0.0
C2079 C 0.26729 0.39359 0.78283 0.0
C2080 C 0.249 0.39637 0.79987 0.0
C2081 C 0.24439 0.37985 0.81787 0.0
C2082 C 0.25798 0.35931 0.81767 0.0
C2083 C 0.27604 0.35579 0.7998 0.0
C2084 C 0.28145 0.37352 0.78282 0.0
H2085 H 0.346 0.62191 0.29881 0.0
H2086 H 0.37562 0.62817 0.22679 0.0
H2087 H 0.37344 0.67185 0.22956 0.0
H2088 H 0.30195 0.66239 0.29137 0.0
H2089 H 0.30251 0.67488 0.32114 0.0
H2090 H 0.31183 0.64497 0.31597 0.0
H2091 H 0.35336 0.6555 0.33512 0.0
H2092 H 0.34413 0.68558 0.34026 0.0
H2093 H 0.37183 0.68006 0.32369 0.0
H2094 H 0.36314 0.71298 0.23737 0.0
H2095 H 0.34083 0.74892 0.24764 0.0
H2096 H 0.31534 0.71698 0.31405 0.0
C2097 C 0.35272 0.63268 0.28402 0.0
C2098 C 0.36136 0.62203 0.26274 0.0
C2099 C 0.36915 0.63626 0.24326 0.0
C2100 C 0.3682 0.66101 0.24479 0.0
C2101 C 0.35914 0.67111 0.26584 0.0
C2102 C 0.35127 0.65745 0.28506 0.0
C2103 C 0.33849 0.67239 0.30384 0.0
C2104 C 0.31214 0.66311 0.30832 0.0
C2105 C 0.35281 0.67344 0.32711 0.0
C2106 C 0.33934 0.69631 0.29163 0.0
C2107 C 0.3521 0.69523 0.27008 0.0
C2108 C 0.35351 0.7142 0.25436 0.0
C2109 C 0.34073 0.73447 0.26029 0.0
C2110 C 0.32665 0.73553 0.28165 0.0
C2111 C 0.32657 0.71665 0.29795 0.0
H2112 H 0.52437 0.69393 0.63582 0.0
H2113 H 0.53501 0.73863 0.57357 0.0
H2114 H 0.53179 0.70302 0.54748 0.0
H2115 H 0.56042 0.64561 0.61283 0.0
H2116 H 0.54122 0.62245 0.62595 0.0
H2117 H 0.54325 0.65142 0.6399 0.0
H2118 H 0.49651 0.65429 0.63819 0.0
H2119 H 0.49435 0.62535 0.62417 0.0
H2120 H 0.48167 0.65054 0.60994 0.0
H2121 H 0.5268 0.6627 0.52781 0.0
H2122 H 0.52375 0.62071 0.51575 0.0
H2123 H 0.51862 0.60012 0.59026 0.0
C2124 C 0.52586 0.69627 0.61667 0.0
C2125 C 0.52974 0.71942 0.60685 0.0
C2126 C 0.53199 0.72137 0.58168 0.0
C2127 C 0.53012 0.70114 0.56666 0.0
C2128 C 0.5263 0.67873 0.57688 0.0
C2129 C 0.52447 0.67609 0.60133 0.0
C2130 C 0.52143 0.64973 0.60761 0.0
C2131 C 0.54285 0.64184 0.62245 0.0
C2132 C 0.49704 0.64468 0.62076 0.0
C2133 C 0.52172 0.63799 0.58287 0.0
C2134 C 0.52432 0.65522 0.56549 0.0
C2135 C 0.52485 0.64913 0.54132 0.0
C2136 C 0.523 0.625 0.53464 0.0
C2137 C 0.52085 0.60664 0.55189 0.0
C2138 C 0.52013 0.61346 0.57648 0.0
H2139 H 0.66894 0.27069 0.88403 0.0
H2140 H 0.63597 0.23589 0.82258 0.0
H2141 H 0.67347 0.2439 0.79884 0.0
H2142 H 0.69572 0.31723 0.8535 0.0
H2143 H 0.72333 0.31957 0.87024 0.0
H2144 H 0.69593 0.30738 0.88403 0.0
H2145 H 0.71785 0.26886 0.8941 0.0
H2146 H 0.7455 0.2811 0.88063 0.0
H2147 H 0.73319 0.25271 0.87063 0.0
H2148 H 0.71102 0.26063 0.78028 0.0
H2149 H 0.74819 0.2833 0.76819 0.0
H2150 H 0.75748 0.30756 0.84144 0.0
C2151 C 0.66998 0.26403 0.86583 0.0
C2152 C 0.64969 0.25257 0.85512 0.0
C2153 C 0.65138 0.24468 0.83108 0.0
C2154 C 0.67261 0.24907 0.8175 0.0
C2155 C 0.69194 0.26128 0.82826 0.0
C2156 C 0.69101 0.26844 0.85194 0.0
C2157 C 0.71344 0.28334 0.85839 0.0
C2158 C 0.70668 0.30835 0.86704 0.0
C2159 C 0.72838 0.27074 0.87704 0.0
C2160 C 0.72658 0.28417 0.83438 0.0
C2161 C 0.71394 0.2711 0.81737 0.0
C2162 C 0.72137 0.27056 0.79349 0.0
C2163 C 0.74238 0.28367 0.78679 0.0
C2164 C 0.75569 0.29713 0.80391 0.0
C2165 C 0.74777 0.2972 0.82805 0.0
H2166 H 0.02926 0.35845 0.10317 0.0
H2167 H 0.10195 0.33952 0.08023 0.0
H2168 H 0.10783 0.37826 0.06068 0.0
H2169 H 0.01539 0.39039 0.04827 0.0
H2170 H 0.99858 0.4131 0.06353 0.0
H2171 H 0.99956 0.38378 0.07604 0.0
H2172 H 0.01589 0.40189 0.11543 0.0
H2173 H 0.01497 0.43124 0.10304 0.0
H2174 H 0.04296 0.42087 0.11466 0.0
H2175 H 0.10742 0.41987 0.04536 0.0
H2176 H 0.09965 0.46067 0.03281 0.0
H2177 H 0.02624 0.45394 0.06224 0.0
C2178 C 0.04637 0.36242 0.09394 0.0
C2179 C 0.06516 0.34554 0.09343 0.0
C2180 C 0.08718 0.35174 0.081 0.0
C2181 C 0.09076 0.37388 0.0698 0.0
C2182 C 0.07209 0.39003 0.07069 0.0
C2183 C 0.05018 0.38459 0.08218 0.0
C2184 C 0.03313 0.40538 0.07997 0.0
C2185 C 0.01031 0.3977 0.06613 0.0
C2186 C 0.02634 0.41544 0.10475 0.0
C2187 C 0.04899 0.42332 0.0657 0.0
C2188 C 0.07147 0.41397 0.06079 0.0
C2189 C 0.08978 0.42722 0.04889 0.0
C2190 C 0.08518 0.45052 0.04183 0.0
C2191 C 0.06228 0.46071 0.04617 0.0
C2192 C 0.04383 0.44667 0.05819 0.0
H2193 H 0.98565 0.75084 0.34003 0.0
H2194 H 0.97175 0.76131 0.41583 0.0
H2195 H 0.93108 0.77597 0.40722 0.0
H2196 H 0.96087 0.80094 0.32046 0.0
H2197 H 0.94689 0.78858 0.29406 0.0
H2198 H 0.97315 0.7751 0.30596 0.0
H2199 H 0.9497 0.73453 0.30935 0.0
H2200 H 0.92354 0.74763 0.29668 0.0
H2201 H 0.92077 0.73282 0.32503 0.0
H2202 H 0.89536 0.79631 0.38974 0.0
H2203 H 0.86358 0.81347 0.36481 0.0
H2204 H 0.89994 0.78772 0.30097 0.0
C2205 C 0.97363 0.75531 0.35485 0.0
C2206 C 0.98171 0.75486 0.37858 0.0
C2207 C 0.96571 0.76117 0.39754 0.0
C2208 C 0.94268 0.76974 0.3928 0.0
C2209 C 0.93581 0.77129 0.36907 0.0
C2210 C 0.95048 0.76347 0.35044 0.0
C2211 C 0.93934 0.76792 0.32649 0.0
C2212 C 0.95607 0.7841 0.31084 0.0
C2213 C 0.93295 0.74432 0.31363 0.0
C2214 C 0.9167 0.78046 0.33448 0.0
C2215 C 0.91497 0.78233 0.35909 0.0
C2216 C 0.89632 0.79457 0.37048 0.0
C2217 C 0.87861 0.80452 0.35631 0.0
C2218 C 0.87979 0.80201 0.33121 0.0
C2219 C 0.89901 0.78991 0.3202 0.0
H2220 H 0.5474 0.29755 0.95419 0.0
H2221 H 0.563 0.33551 0.88823 0.0
H2222 H 0.54304 0.37073 0.90505 0.0
H2223 H 0.48796 0.32108 0.96467 0.0
H2224 H 0.49101 0.32285 0.99663 0.0
H2225 H 0.50683 0.30061 0.97965 0.0
H2226 H 0.54786 0.31586 0.99704 0.0
H2227 H 0.53213 0.33791 0.0143 0.0
H2228 H 0.5568 0.34684 0.99432 0.0
H2229 H 0.52321 0.4021 0.9294 0.0
H2230 H 0.50438 0.42788 0.96018 0.0
H2231 H 0.4993 0.36901 0.00927 0.0
C2232 C 0.54679 0.31335 0.94338 0.0
C2233 C 0.55686 0.31394 0.91999 0.0
C2234 C 0.5554 0.33476 0.90622 0.0
C2235 C 0.54407 0.35479 0.91557 0.0
C2236 C 0.53402 0.35352 0.93856 0.0
C2237 C 0.5352 0.33336 0.95229 0.0
C2238 C 0.52284 0.33664 0.97644 0.0
C2239 C 0.50085 0.31926 0.97951 0.0
C2240 C 0.54099 0.33417 0.99672 0.0
C2241 C 0.51489 0.36196 0.97429 0.0
C2242 C 0.52154 0.37134 0.95227 0.0
C2243 C 0.51755 0.39486 0.94654 0.0
C2244 C 0.50685 0.4093 0.96398 0.0
C2245 C 0.5001 0.40006 0.98663 0.0
C2246 C 0.50377 0.37607 0.99175 0.0
H2247 H 0.95816 0.25201 0.20745 0.0
H2248 H 0.97575 0.32588 0.1916 0.0
H2249 H 0.93703 0.33745 0.21116 0.0
H2250 H 0.89443 0.25499 0.19492 0.0
H2251 H 0.88498 0.23442 0.21803 0.0
H2252 H 0.91458 0.23234 0.20401 0.0
H2253 H 0.93452 0.23571 0.24545 0.0
H2254 H 0.90497 0.23791 0.25958 0.0
H2255 H 0.92813 0.26072 0.26465 0.0
H2256 H 0.89597 0.34085 0.23401 0.0
H2257 H 0.85523 0.3352 0.25347 0.0
H2258 H 0.86345 0.25891 0.25126 0.0
C2259 C 0.95395 0.27065 0.20822 0.0
C2260 C 0.97021 0.28807 0.19817 0.0
C2261 C 0.96369 0.31221 0.19919 0.0
C2262 C 0.94174 0.31895 0.21037 0.0
C2263 C 0.92614 0.30133 0.22015 0.0
C2264 C 0.93186 0.27762 0.21882 0.0
C2265 C 0.91147 0.26196 0.22947 0.0
C2266 C 0.90073 0.24493 0.21047 0.0
C2267 C 0.92031 0.24827 0.25107 0.0
C2268 C 0.8934 0.2805 0.23712 0.0
C2269 C 0.90227 0.30317 0.23195 0.0
C2270 C 0.88886 0.32312 0.23795 0.0
C2271 C 0.86576 0.31979 0.24912 0.0
C2272 C 0.85602 0.29665 0.25383 0.0
C2273 C 0.87025 0.27686 0.24778 0.0
H2274 H 0.04257 0.68609 0.44748 0.0
H2275 H 0.07372 0.72606 0.50669 0.0
H2276 H 0.07045 0.69006 0.53175 0.0
H2277 H 1.00089 0.64696 0.48223 0.0
H2278 H 0.00649 0.62177 0.46301 0.0
H2279 H 0.00856 0.65138 0.4511 0.0
H2280 H 0.05243 0.64381 0.43572 0.0
H2281 H 0.05053 0.61434 0.44788 0.0
H2282 H 0.07486 0.63473 0.45648 0.0
H2283 H 0.06479 0.64888 0.54979 0.0
H2284 H 0.05874 0.60587 0.55848 0.0
H2285 H 0.03462 0.5935 0.48599 0.0
C2286 C 0.04815 0.68742 0.46589 0.0
C2287 C 0.05808 0.70884 0.47532 0.0
C2288 C 0.06588 0.70977 0.49926 0.0
C2289 C 0.06407 0.68946 0.51359 0.0
C2290 C 0.0547 0.66841 0.50355 0.0
C2291 C 0.04693 0.66729 0.48021 0.0
C2292 C 0.03938 0.64225 0.47297 0.0
C2293 C 0.01222 0.6405 0.46698 0.0
C2294 C 0.05526 0.63327 0.45203 0.0
C2295 C 0.04438 0.6294 0.49576 0.0
C2296 C 0.05282 0.64473 0.51338 0.0
C2297 C 0.05826 0.6367 0.5361 0.0
C2298 C 0.05486 0.61233 0.54087 0.0
C2299 C 0.04664 0.59645 0.52279 0.0
C2300 C 0.04141 0.60519 0.50003 0.0
H2301 H 0.62205 0.80596 0.67613 0.0
H2302 H 0.57986 0.758 0.72237 0.0
H2303 H 0.61492 0.75519 0.74865 0.0
H2304 H 0.67954 0.77763 0.68164 0.0
H2305 H 0.6975 0.80501 0.68214 0.0
H2306 H 0.66908 0.80347 0.6667 0.0
H2307 H 0.65389 0.83905 0.69184 0.0
H2308 H 0.68227 0.84069 0.70735 0.0
H2309 H 0.65397 0.83758 0.72399 0.0
H2310 H 0.65551 0.75578 0.76935 0.0
H2311 H 0.69748 0.7619 0.78384 0.0
H2312 H 0.71336 0.81115 0.7261 0.0
C2313 C 0.62013 0.79493 0.69182 0.0
C2314 C 0.59788 0.7822 0.69697 0.0
C2315 C 0.59642 0.76804 0.71784 0.0
C2316 C 0.61637 0.76626 0.73296 0.0
C2317 C 0.63793 0.77888 0.72736 0.0
C2318 C 0.63992 0.79314 0.7074 0.0
C2319 C 0.66522 0.80501 0.70571 0.0
C2320 C 0.67862 0.79732 0.68268 0.0
C2321 C 0.66374 0.8322 0.70732 0.0
C2322 C 0.67706 0.79516 0.72773 0.0
C2323 C 0.66104 0.77994 0.73983 0.0
C2324 C 0.66809 0.76789 0.76013 0.0
C2325 C 0.69203 0.77146 0.76826 0.0
C2326 C 0.70876 0.78725 0.75644 0.0
C2327 C 0.70096 0.79929 0.7359 0.0
H2328 H 0.61832 0.5307 0.71824 0.0
H2329 H 0.55763 0.51281 0.76626 0.0
H2330 H 0.5308 0.50731 0.73168 0.0
H2331 H 0.58395 0.56421 0.67715 0.0
H2332 H 0.60068 0.55421 0.65115 0.0
H2333 H 0.61525 0.5563 0.67964 0.0
H2334 H 0.6264 0.51201 0.67618 0.0
H2335 H 0.61195 0.50982 0.64766 0.0
H2336 H 0.60272 0.48968 0.67122 0.0
H2337 H 0.51103 0.50261 0.69202 0.0
H2338 H 0.49913 0.50064 0.64968 0.0
H2339 H 0.57222 0.52335 0.62784 0.0
C2340 C 0.59942 0.52551 0.72147 0.0
C2341 C 0.59004 0.52204 0.74487 0.0
C2342 C 0.56514 0.51557 0.74844 0.0
C2343 C 0.54979 0.51239 0.72894 0.0
C2344 C 0.55961 0.51603 0.70611 0.0
C2345 C 0.58379 0.5226 0.70228 0.0
C2346 C 0.58967 0.52584 0.67598 0.0
C2347 C 0.59786 0.55168 0.67068 0.0
C2348 C 0.60881 0.50829 0.66725 0.0
C2349 C 0.56505 0.51983 0.66561 0.0
C2350 C 0.548 0.5141 0.68328 0.0
C2351 C 0.52416 0.50719 0.67802 0.0
C2352 C 0.51761 0.50603 0.65401 0.0
C2353 C 0.53478 0.51196 0.63569 0.0
C2354 C 0.55871 0.5191 0.64161 0.0
H2355 H 0.76433 0.40437 0.9787 0.0
H2356 H 0.80108 0.35678 0.0253 0.0
H2357 H 0.8147 0.3335 0.9904 0.0
H2358 H 0.74725 0.35817 0.93158 0.0
H2359 H 0.7531 0.37907 0.90781 0.0
H2360 H 0.7421 0.3893 0.93655 0.0
H2361 H 0.77892 0.41915 0.93888 0.0
H2362 H 0.79015 0.40884 0.91037 0.0
H2363 H 0.80931 0.4083 0.93607 0.0
H2364 H 0.82986 0.31951 0.95132 0.0
H2365 H 0.84418 0.31433 0.90962 0.0
H2366 H 0.79804 0.37065 0.88763 0.0
C2367 C 0.77447 0.38854 0.98152 0.0
C2368 C 0.78157 0.38224 0.00462 0.0
C2369 C 0.79545 0.36185 0.0077 0.0
C2370 C 0.80318 0.34845 0.98801 0.0
C2371 C 0.79677 0.35562 0.96538 0.0
C2372 C 0.78251 0.37501 0.96195 0.0
C2373 C 0.7805 0.38035 0.9356 0.0
C2374 C 0.75417 0.37649 0.92741 0.0
C2375 C 0.79032 0.40565 0.92991 0.0
C2376 C 0.7968 0.36168 0.92496 0.0
C2377 C 0.80568 0.34741 0.94246 0.0
C2378 C 0.82268 0.33023 0.93737 0.0
C2379 C 0.83091 0.32759 0.91372 0.0
C2380 C 0.82216 0.34208 0.89553 0.0
C2381 C 0.80463 0.35908 0.9012 0.0
H2382 H 0.9308 0.54171 0.15968 0.0
H2383 H 0.98409 0.54497 0.21591 0.0
H2384 H 0.01716 0.54691 0.18553 0.0
H2385 H 0.96491 0.50451 0.1202 0.0
H2386 H 0.95561 0.51883 0.09347 0.0
H2387 H 0.93579 0.51818 0.11943 0.0
H2388 H 0.93388 0.56397 0.11931 0.0
H2389 H 0.95341 0.5651 0.09313 0.0
H2390 H 0.96169 0.58186 0.11952 0.0
H2391 H 0.04448 0.54851 0.14888 0.0
H2392 H 0.06375 0.54705 0.10856 0.0
H2393 H 0.99217 0.54352 0.07721 0.0
C2394 C 0.94941 0.54278 0.16565 0.0
C2395 C 0.95485 0.54324 0.19014 0.0
C2396 C 0.97947 0.54455 0.1972 0.0
C2397 C 0.99839 0.54578 0.18011 0.0
C2398 C 0.99236 0.54564 0.15611 0.0
C2399 C 0.96848 0.54398 0.1489 0.0
C2400 C 0.96684 0.54351 0.12203 0.0
C2401 C 0.9551 0.51986 0.11328 0.0
C2402 C 0.95315 0.56489 0.11298 0.0
C2403 C 0.99354 0.5454 0.11529 0.0
C2404 C 0.00802 0.5466 0.13513 0.0
C2405 C 0.03334 0.54767 0.13318 0.0
C2406 C 0.04411 0.54694 0.11026 0.0
C2407 C 0.02946 0.54517 0.0898 0.0
C2408 C 1.0039 0.5449 0.09247 0.0
H2409 H 0.79961 0.7131 0.45422 0.0
H2410 H 0.72125 0.71138 0.46472 0.0
H2411 H 0.71646 0.72494 0.42346 0.0
H2412 H 0.80164 0.76765 0.41862 0.0
H2413 H 0.82605 0.75828 0.39914 0.0
H2414 H 0.82371 0.7476 0.42936 0.0
H2415 H 0.82348 0.70426 0.41356 0.0
H2416 H 0.82572 0.71483 0.3833 0.0
H2417 H 0.80116 0.69456 0.39211 0.0
H2418 H 0.71951 0.73623 0.38023 0.0
H2419 H 0.73037 0.74975 0.33951 0.0
H2420 H 0.80687 0.74903 0.35653 0.0
C2421 C 0.78147 0.71563 0.4478 0.0
C2422 C 0.76075 0.71098 0.46292 0.0
C2423 C 0.7374 0.71482 0.45376 0.0
C2424 C 0.73447 0.72244 0.43019 0.0
C2425 C 0.75508 0.72678 0.41577 0.0
C2426 C 0.77819 0.724 0.42429 0.0
C2427 C 0.79719 0.73111 0.40511 0.0
C2428 C 0.81309 0.75243 0.41356 0.0
C2429 C 0.81281 0.70992 0.39811 0.0
C2430 C 0.78111 0.73799 0.38453 0.0
C2431 C 0.75687 0.73493 0.39108 0.0
C2432 C 0.73844 0.73896 0.37502 0.0
C2433 C 0.74481 0.74656 0.3518 0.0
C2434 C 0.76944 0.75065 0.34465 0.0
C2435 C 0.78785 0.74631 0.36142 0.0
H2436 H 0.56837 0.49506 0.86826 0.0
H2437 H 0.642 0.51729 0.88581 0.0
H2438 H 0.63233 0.5112 0.92869 0.0
H2439 H 0.53909 0.52276 0.91152 0.0
H2440 H 0.51623 0.50015 0.91884 0.0
H2441 H 0.52995 0.50081 0.88948 0.0
H2442 H 0.54344 0.45744 0.89371 0.0
H2443 H 0.52908 0.45631 0.92294 0.0
H2444 H 0.56066 0.44938 0.91925 0.0
H2445 H 0.61174 0.51299 0.96879 0.0
H2446 H 0.58379 0.51429 0.00398 0.0
H2447 H 0.52462 0.48702 0.96053 0.0
C2448 C 0.5827 0.49746 0.88114 0.0
C2449 C 0.6059 0.5064 0.87405 0.0
C2450 C 0.62425 0.50998 0.8911 0.0
C2451 C 0.61887 0.50669 0.91543 0.0
C2452 C 0.59533 0.49907 0.92207 0.0
C2453 C 0.57779 0.49355 0.90535 0.0
C2454 C 0.55345 0.4874 0.91717 0.0
C2455 C 0.53353 0.50376 0.90875 0.0
C2456 C 0.54624 0.46107 0.91302 0.0
C2457 C 0.55956 0.49216 0.94298 0.0
C2458 C 0.58381 0.4988 0.94549 0.0
C2459 C 0.59294 0.50701 0.96722 0.0
C2460 C 0.57693 0.50802 0.98696 0.0
C2461 C 0.55226 0.50061 0.98476 0.0
C2462 C 0.54356 0.49238 0.96261 0.0
H2463 H 0.7631 0.41387 0.15896 0.0
H2464 H 0.74992 0.36398 0.10055 0.0
H2465 H 0.7462 0.33113 0.12912 0.0
H2466 H 0.80043 0.37791 0.19084 0.0
H2467 H 0.78937 0.38661 0.22005 0.0
H2468 H 0.78794 0.40682 0.19553 0.0
H2469 H 0.74156 0.41017 0.20286 0.0
H2470 H 0.74292 0.39004 0.22757 0.0
H2471 H 0.72232 0.38359 0.20355 0.0
H2472 H 0.74848 0.30327 0.16299 0.0
H2473 H 0.7568 0.28232 0.20036 0.0
H2474 H 0.76765 0.35036 0.23658 0.0
C2475 C 0.75897 0.39611 0.15224 0.0
C2476 C 0.75679 0.39149 0.12757 0.0
C2477 C 0.75172 0.36795 0.1194 0.0
C2478 C 0.74942 0.34916 0.13548 0.0
C2479 C 0.75207 0.35424 0.15965 0.0
C2480 C 0.75664 0.37712 0.16805 0.0
C2481 C 0.76062 0.37748 0.19467 0.0
C2482 C 0.78611 0.38781 0.20059 0.0
C2483 C 0.74065 0.39112 0.20794 0.0
C2484 C 0.75836 0.35116 0.19968 0.0
C2485 C 0.75316 0.33806 0.17933 0.0
C2486 C 0.75213 0.31329 0.17919 0.0
C2487 C 0.75693 0.30156 0.20043 0.0
C2488 C 0.7627 0.31472 0.22132 0.0
C2489 C 0.76292 0.3398 0.22097 0.0
H2490 H 0.97425 0.51936 0.31394 0.0
H2491 H 0.95136 0.5919 0.32348 0.0
H2492 H 0.97481 0.5952 0.36077 0.0
H2493 H 0.96731 0.50314 0.37296 0.0
H2494 H 0.99308 0.48423 0.37297 0.0
H2495 H 0.97742 0.48896 0.34568 0.0
H2496 H 0.01788 0.5036 0.3253 0.0
H2497 H 0.03371 0.49892 0.35262 0.0
H2498 H 0.03547 0.52766 0.33869 0.0
H2499 H 0.9979 0.58894 0.39883 0.0
H2500 H 0.01711 0.57352 0.43467 0.0
H2501 H 0.02304 0.50468 0.39981 0.0
C2502 C 0.97449 0.53615 0.32356 0.0
C2503 C 0.96108 0.55543 0.31579 0.0
C2504 C 0.96163 0.57695 0.32909 0.0
C2505 C 0.97495 0.579 0.35021 0.0
C2506 C 0.98762 0.5594 0.35757 0.0
C2507 C 0.9875 0.53842 0.34456 0.0
C2508 C 1.00071 0.51924 0.35711 0.0
C2509 C 0.9836 0.49764 0.36251 0.0
C2510 C 0.02329 0.51193 0.34256 0.0
C2511 C 0.00775 0.53243 0.37966 0.0
C2512 C 1.00041 0.55567 0.3795 0.0
C2513 C 1.00384 0.57082 0.39904 0.0
C2514 C 0.0146 0.56182 0.4194 0.0
C2515 C 0.02149 0.53778 0.42016 0.0
C2516 C 0.01842 0.52319 0.39975 0.0
H2517 H 0.76672 0.73243 0.59553 0.0
H2518 H 0.81141 0.67246 0.61078 0.0
H2519 H 0.81793 0.68792 0.65114 0.0
H2520 H 0.80349 0.7764 0.63036 0.0
H2521 H 0.7776 0.79224 0.64142 0.0
H2522 H 0.77638 0.77714 0.6129 0.0
H2523 H 0.73765 0.75351 0.62697 0.0
H2524 H 0.73879 0.76851 0.65553 0.0
H2525 H 0.73826 0.73651 0.65404 0.0
H2526 H 0.8178 0.70737 0.69103 0.0
H2527 H 0.81313 0.73179 0.72753 0.0
H2528 H 0.77101 0.78161 0.68848 0.0
C2529 C 0.77809 0.72271 0.60727 0.0
C2530 C 0.78844 0.70098 0.59947 0.0
C2531 C 0.80309 0.68898 0.61579 0.0
C2532 C 0.80698 0.69764 0.63902 0.0
C2533 C 0.79639 0.71868 0.6462 0.0
C2534 C 0.78244 0.73132 0.63086 0.0
C2535 C 0.77327 0.75354 0.64372 0.0
C2536 C 0.78328 0.77618 0.63136 0.0
C2537 C 0.74533 0.75298 0.64514 0.0
C2538 C 0.78407 0.7511 0.66853 0.0
C2539 C 0.79719 0.73067 0.66941 0.0
C2540 C 0.80786 0.7236 0.69046 0.0
C2541 C 0.80509 0.73761 0.71119 0.0
C2542 C 0.79209 0.75887 0.71098 0.0
C2543 C 0.78156 0.76576 0.68917 0.0
H2544 H 0.69164 0.63659 0.51273 0.0
H2545 H 0.72965 0.59098 0.56032 0.0
H2546 H 0.69296 0.56469 0.564 0.0
H2547 H 0.63274 0.63125 0.54167 0.0
H2548 H 0.61609 0.63045 0.51428 0.0
H2549 H 0.64527 0.64588 0.51547 0.0
H2550 H 0.66085 0.62055 0.47984 0.0
H2551 H 0.63169 0.60506 0.47854 0.0
H2552 H 0.65893 0.58858 0.48164 0.0
H2553 H 0.6508 0.5442 0.56436 0.0
H2554 H 0.60825 0.52976 0.55851 0.0
H2555 H 0.59834 0.58673 0.5085 0.0
C2556 C 0.69228 0.62106 0.52389 0.0
C2557 C 0.71374 0.61603 0.53629 0.0
C2558 C 0.71365 0.59533 0.55055 0.0
C2559 C 0.69278 0.58026 0.55284 0.0
C2560 C 0.67197 0.58576 0.5405 0.0
C2561 C 0.67166 0.60551 0.52605 0.0
C2562 C 0.64708 0.60706 0.51428 0.0
C2563 C 0.63456 0.63002 0.52189 0.0
C2564 C 0.64981 0.6052 0.48695 0.0
C2565 C 0.63362 0.58525 0.52449 0.0
C2566 C 0.6482 0.57333 0.53979 0.0
C2567 C 0.63937 0.55327 0.55216 0.0
C2568 C 0.61512 0.54517 0.54876 0.0
C2569 C 0.59995 0.55679 0.53279 0.0
C2570 C 0.60953 0.5771 0.5205 0.0
H2571 H 0.1904 0.96687 0.61004 0.0
H2572 H 0.1901 0.90454 0.56378 0.0
H2573 H 0.14576 0.90746 0.55898 0.0
H2574 H 0.13028 0.95603 0.63865 0.0
H2575 H 0.12336 0.98709 0.63853 0.0
H2576 H 0.15443 0.97838 0.64077 0.0
H2577 H 0.16661 1.00362 0.60361 0.0
H2578 H 0.13573 0.01265 0.60156 0.0
H2579 H 0.1504 0.99875 0.57624 0.0
H2580 H 0.10219 0.91879 0.55707 0.0
H2581 H 0.06434 0.94066 0.55366 0.0
H2582 H 0.09363 0.99594 0.60055 0.0
C2583 C 0.18094 0.95364 0.59917 0.0
C2584 C 0.19356 0.93541 0.5874 0.0
C2585 C 0.1807 0.91868 0.57294 0.0
C2586 C 0.15551 0.92004 0.57032 0.0
C2587 C 0.14356 0.93823 0.58226 0.0
C2588 C 0.15593 0.95489 0.59617 0.0
C2589 C 0.13944 0.97416 0.605 0.0
C2590 C 0.13672 0.97388 0.63237 0.0
C2591 C 0.14859 0.99873 0.59606 0.0
C2592 C 0.11603 0.96615 0.59328 0.0
C2593 C 0.11858 0.94508 0.58072 0.0
C2594 C 0.09986 0.93513 0.56708 0.0
C2595 C 0.07837 0.94761 0.56536 0.0
C2596 C 0.0761 0.96995 0.57691 0.0
C2597 C 0.0948 0.97878 0.59175 0.0
H2598 H 0.3609 0.95895 0.72806 0.0
H2599 H 0.30912 0.01243 0.74743 0.0
H2600 H 0.27908 0.98094 0.75928 0.0
H2601 H 0.31277 0.91096 0.70848 0.0
H2602 H 0.33102 0.88811 0.72044 0.0
H2603 H 0.34548 0.9142 0.70725 0.0
H2604 H 0.36916 0.92196 0.74628 0.0
H2605 H 0.3546 0.8963 0.75966 0.0
H2606 H 0.35249 0.92492 0.77416 0.0
H2607 H 0.2599 0.94523 0.77902 0.0
H2608 H 0.2511 0.90737 0.80022 0.0
H2609 H 0.31498 0.87764 0.76659 0.0
C2610 C 0.34284 0.96389 0.73379 0.0
C2611 C 0.33721 0.9879 0.73692 0.0
C2612 C 0.3136 0.994 0.74471 0.0
C2613 C 0.29644 0.97625 0.75147 0.0
C2614 C 0.30305 0.95263 0.74959 0.0
C2615 C 0.32545 0.9464 0.74019 0.0
C2616 C 0.32941 0.92017 0.74279 0.0
C2617 C 0.32967 0.90762 0.71828 0.0
C2618 C 0.35277 0.91561 0.75655 0.0
C2619 C 0.30685 0.9131 0.7571 0.0
C2620 C 0.29154 0.93183 0.76044 0.0
C2621 C 0.27128 0.93018 0.77584 0.0
C2622 C 0.2666 0.90881 0.78804 0.0
C2623 C 0.28222 0.88958 0.78478 0.0
C2624 C 0.30229 0.89177 0.76883 0.0
H2625 H 0.36168 0.10415 1.00213 0.0
H2626 H 0.34425 0.09054 0.07681 0.0
H2627 H 0.38241 0.06955 0.08054 0.0
H2628 H 0.38878 0.04617 0.99039 0.0
H2629 H 0.41211 0.05797 0.97032 0.0
H2630 H 0.38333 0.07221 0.97308 0.0
H2631 H 0.40567 0.11203 0.98359 0.0
H2632 H 0.43449 0.0979 0.98089 0.0
H2633 H 0.42637 0.11328 0.00814 0.0
H2634 H 0.42358 0.05257 0.07756 0.0
H2635 H 0.46386 0.03717 0.06695 0.0
H2636 H 0.45477 0.05766 0.99334 0.0
C2637 C 0.36587 0.09664 0.01921 0.0
C2638 C 0.34976 0.09914 0.03922 0.0
C2639 C 0.35602 0.08889 0.06118 0.0
C2640 C 0.37779 0.07694 0.06353 0.0
C2641 C 0.39325 0.07486 0.04366 0.0
C2642 C 0.38752 0.08407 0.02179 0.0
C2643 C 0.40742 0.07873 1.00327 0.0
C2644 C 0.3973 0.06283 0.98307 0.0
C2645 C 0.41918 0.10187 0.99339 0.0
C2646 C 0.42527 0.06543 0.01829 0.0
C2647 C 0.4167 0.0637 0.0416 0.0
C2648 C 0.4303 0.0535 0.05929 0.0
C2649 C 0.45322 0.04483 0.0531 0.0
C2650 C 0.46237 0.04586 0.0293 0.0
C2651 C 0.44805 0.05618 0.01159 0.0
H2652 H 0.70151 0.58662 0.80906 0.0
H2653 H 0.63319 0.61651 0.83222 0.0
H2654 H 0.65488 0.65492 0.84073 0.0
H2655 H 0.74049 0.61868 0.85209 0.0
H2656 H 0.76504 0.62206 0.83046 0.0
H2657 H 0.74448 0.59649 0.82903 0.0
H2658 H 0.73472 0.6064 0.78518 0.0
H2659 H 0.75532 0.63181 0.78643 0.0
H2660 H 0.72416 0.63545 0.77832 0.0
H2661 H 0.68387 0.691 0.84267 0.0
H2662 H 0.71678 0.72146 0.83675 0.0
H2663 H 0.76509 0.66668 0.81202 0.0
C2664 C 0.69103 0.6011 0.81619 0.0
C2665 C 0.66566 0.59865 0.8199 0.0
C2666 C 0.65269 0.61805 0.82928 0.0
C2667 C 0.66486 0.63985 0.83425 0.0
C2668 C 0.68994 0.64168 0.83004 0.0
C2669 C 0.70282 0.62272 0.82132 0.0
C2670 C 0.72923 0.62945 0.81656 0.0
C2671 C 0.74578 0.61586 0.83303 0.0
C2672 C 0.73625 0.62556 0.79006 0.0
C2673 C 0.72913 0.65549 0.82308 0.0
C2674 C 0.70647 0.66223 0.83119 0.0
C2675 C 0.70174 0.68584 0.83661 0.0
C2676 C 0.72051 0.70303 0.83303 0.0
C2677 C 0.74358 0.69651 0.82386 0.0
C2678 C 0.74795 0.67231 0.81952 0.0
H2679 H 0.83025 0.46709 0.02631 0.0
H2680 H 0.82554 0.50597 0.09346 0.0
H2681 H 0.8661 0.52485 0.08505 0.0
H2682 H 0.89044 0.4534 0.02918 0.0
H2683 H 0.89732 0.45687 0.99778 0.0
H2684 H 0.86684 0.44892 0.00758 0.0
H2685 H 0.85054 0.48529 0.98574 0.0
H2686 H 0.881 0.49326 0.97561 0.0
H2687 H 0.86331 0.51455 0.992 0.0
H2688 H 0.90926 0.53487 0.07178 0.0
H2689 H 0.95032 0.53799 0.05299 0.0
H2690 H 0.92586 0.4933 0.99423 0.0
C2691 C 0.83752 0.47995 0.03904 0.0
C2692 C 0.82489 0.48508 0.06055 0.0
C2693 C 0.83493 0.50196 0.07679 0.0
C2694 C 0.85793 0.5127 0.07218 0.0
C2695 C 0.87025 0.50663 0.05109 0.0
C2696 C 0.86018 0.49095 0.0346 0.0
C2697 C 0.87754 0.48633 0.01394 0.0
C2698 C 0.88338 0.45982 0.01203 0.0
C2699 C 0.8675 0.49541 0.99043 0.0
C2700 C 0.89934 0.50122 0.02175 0.0
C2701 C 0.89479 0.51286 0.04318 0.0
C2702 C 0.91285 0.5262 0.0548 0.0
C2703 C 0.93612 0.52767 0.04417 0.0
C2704 C 0.94102 0.51586 0.02224 0.0
C2705 C 0.92233 0.50277 0.01079 0.0
H2706 H 0.37203 0.13105 0.75671 0.0
H2707 H 0.31785 0.10271 0.70785 0.0
H2708 H 0.29685 0.14072 0.70975 0.0
H2709 H 0.33226 0.16552 0.79355 0.0
H2710 H 0.35392 0.18999 0.79706 0.0
H2711 H 0.36441 0.16035 0.79225 0.0
H2712 H 0.39012 0.17492 0.75557 0.0
H2713 H 0.37962 0.20458 0.76028 0.0
H2714 H 0.37551 0.18995 0.73179 0.0
H2715 H 0.28079 0.18083 0.71838 0.0
H2716 H 0.27222 0.22194 0.73123 0.0
H2717 H 0.33853 0.22485 0.77195 0.0
C2718 C 0.35569 0.13288 0.74652 0.0
C2719 C 0.34639 0.11408 0.73226 0.0
C2720 C 0.3252 0.11705 0.71886 0.0
C2721 C 0.31315 0.13849 0.71985 0.0
C2722 C 0.3228 0.15677 0.73402 0.0
C2723 C 0.34371 0.15431 0.74693 0.0
C2724 C 0.35061 0.17694 0.76023 0.0
C2725 C 0.35026 0.17295 0.78738 0.0
C2726 C 0.37543 0.1872 0.75143 0.0
C2727 C 0.33015 0.19236 0.75297 0.0
C2728 C 0.31419 0.18034 0.73802 0.0
C2729 C 0.29327 0.19058 0.72986 0.0
C2730 C 0.28854 0.21381 0.73725 0.0
C2731 C 0.3049 0.22645 0.75227 0.0
C2732 C 0.32599 0.21564 0.76008 0.0
H2733 H 0.19114 0.94664 0.31526 0.0
H2734 H 0.19799 0.96585 0.24041 0.0
H2735 H 0.21976 0.92928 0.23186 0.0
H2736 H 0.25168 0.92077 0.31824 0.0
H2737 H 0.24135 0.89752 0.33828 0.0
H2738 H 0.22682 0.92572 0.33897 0.0
H2739 H 0.18516 0.9041 0.33224 0.0
H2740 H 0.19961 0.87588 0.3313 0.0
H2741 H 0.18143 0.88465 0.30669 0.0
H2742 H 0.2369 0.88962 0.23027 0.0
H2743 H 0.25397 0.85042 0.23663 0.0
H2744 H 0.23954 0.85724 0.31288 0.0
C2745 C 0.1975 0.94323 0.29716 0.0
C2746 C 0.19284 0.95906 0.27849 0.0
C2747 C 0.20145 0.95406 0.25503 0.0
C2748 C 0.21375 0.93328 0.24993 0.0
C2749 C 0.21768 0.91786 0.26857 0.0
C2750 C 0.21031 0.92269 0.2918 0.0
C2751 C 0.21719 0.90297 0.30839 0.0
C2752 C 0.23534 0.91231 0.32707 0.0
C2753 C 0.19449 0.89121 0.32036 0.0
C2754 C 0.2291 0.8862 0.29069 0.0
C2755 C 0.22889 0.89514 0.26781 0.0
C2756 C 0.23754 0.88253 0.24812 0.0
C2757 C 0.24701 0.86023 0.2519 0.0
C2758 C 0.24811 0.85095 0.27523 0.0
C2759 C 0.23909 0.86411 0.2949 0.0
H2760 H 0.50799 0.357 0.47986 0.0
H2761 H 0.55808 0.36371 0.41926 0.0
H2762 H 0.56611 0.4059 0.42968 0.0
H2763 H 0.48297 0.41512 0.4763 0.0
H2764 H 0.4812 0.4201 0.50812 0.0
H2765 H 0.47931 0.39025 0.49623 0.0
H2766 H 0.51532 0.37879 0.52223 0.0
H2767 H 0.51729 0.40861 0.53422 0.0
H2768 H 0.54361 0.39584 0.52016 0.0
H2769 H 0.56689 0.44846 0.44497 0.0
H2770 H 0.56278 0.48708 0.46574 0.0
H2771 H 0.51465 0.45353 0.51863 0.0
C2772 C 0.52077 0.36729 0.46886 0.0
C2773 C 0.53237 0.3567 0.44859 0.0
C2774 C 0.54897 0.37106 0.43485 0.0
C2775 C 0.55363 0.3952 0.44062 0.0
C2776 C 0.54186 0.40508 0.46049 0.0
C2777 C 0.52597 0.39153 0.47463 0.0
C2778 C 0.51601 0.40665 0.49521 0.0
C2779 C 0.48822 0.40811 0.49388 0.0
C2780 C 0.52351 0.39689 0.51939 0.0
C2781 C 0.52857 0.43079 0.49029 0.0
C2782 C 0.54322 0.42945 0.47 0.0
C2783 C 0.55572 0.44956 0.46105 0.0
C2784 C 0.55326 0.47153 0.47301 0.0
C2785 C 0.53874 0.47351 0.4941 0.0
C2786 C 0.52634 0.45265 0.50287 0.0
H2787 H 0.45447 0.78556 0.22953 0.0
H2788 H 0.44708 0.83022 0.16756 0.0
H2789 H 0.40899 0.8453 0.18465 0.0
H2790 H 0.3951 0.76746 0.23485 0.0
H2791 H 0.39324 0.76765 0.267 0.0
H2792 H 0.42199 0.76356 0.25205 0.0
H2793 H 0.44071 0.79958 0.27539 0.0
H2794 H 0.41187 0.80376 0.29043 0.0
H2795 H 0.42658 0.82795 0.27427 0.0
H2796 H 0.368 0.84838 0.20351 0.0
H2797 H 0.32865 0.84193 0.22523 0.0
H2798 H 0.36391 0.7987 0.27679 0.0
C2799 C 0.44523 0.79906 0.21993 0.0
C2800 C 0.45369 0.80668 0.19724 0.0
C2801 C 0.44095 0.82414 0.18503 0.0
C2802 C 0.41932 0.8329 0.19462 0.0
C2803 C 0.41097 0.8244 0.21664 0.0
C2804 C 0.42374 0.8082 0.22939 0.0
C2805 C 0.40971 0.80027 0.25158 0.0
C2806 C 0.40472 0.77315 0.25133 0.0
C2807 C 0.42301 0.80839 0.27426 0.0
C2808 C 0.3866 0.8136 0.24865 0.0
C2809 C 0.38767 0.82751 0.22842 0.0
C2810 C 0.36719 0.83839 0.21993 0.0
C2811 C 0.34497 0.83465 0.23226 0.0
C2812 C 0.34373 0.82058 0.25299 0.0
C2813 C 0.36484 0.81048 0.2616 0.0
H2814 H 0.02141 0.69807 0.94521 0.0
H2815 H 0.07633 0.73157 0.99016 0.0
H2816 H 0.08257 0.69327 0.00934 0.0
H2817 H 0.99611 0.65676 0.99107 0.0
H2818 H 0.99118 0.63244 0.97036 0.0
H2819 H 0.99003 0.66266 0.96022 0.0
H2820 H 0.02281 0.65414 0.9278 0.0
H2821 H 0.02411 0.62393 0.93789 0.0
H2822 H 0.05141 0.64253 0.93645 0.0
H2823 H 0.08497 0.65147 0.02267 0.0
H2824 H 0.08221 0.60878 0.03083 0.0
H2825 H 0.02498 0.59964 0.97892 0.0
C2826 C 0.03452 0.6974 0.9593 0.0
C2827 C 0.04831 0.71828 0.96609 0.0
C2828 C 0.06544 0.71623 0.98449 0.0
C2829 C 0.06917 0.69439 0.99556 0.0
C2830 C 0.05565 0.67427 0.98833 0.0
C2831 C 0.03851 0.67545 0.97076 0.0
C2832 C 0.02678 0.6507 0.96644 0.0
C2833 C 0.9994 0.65064 0.97237 0.0
C2834 C 0.03156 0.64233 0.94061 0.0
C2835 C 0.04017 0.63554 0.98418 0.0
C2836 C 0.05676 0.64974 0.99647 0.0
C2837 C 0.0719 0.64024 0.01327 0.0
C2838 C 0.07018 0.61574 0.01774 0.0
C2839 C 0.05331 0.60039 0.00572 0.0
C2840 C 0.03795 0.61066 0.98867 0.0
H2841 H 0.11762 0.28394 0.6462 0.0
H2842 H 0.09607 0.35414 0.66829 0.0
H2843 H 0.12969 0.35661 0.69686 0.0
H2844 H 0.12401 0.264 0.70059 0.0
H2845 H 0.14981 0.24562 0.69542 0.0
H2846 H 0.13012 0.25179 0.67125 0.0
H2847 H 0.16636 0.26914 0.64598 0.0
H2848 H 0.18648 0.26216 0.66972 0.0
H2849 H 0.18605 0.29205 0.65857 0.0
H2850 H 0.15989 0.34841 0.72792 0.0
H2851 H 0.18582 0.33064 0.75819 0.0
H2852 H 0.1847 0.26437 0.71825 0.0
C2853 C 0.12105 0.30038 0.65599 0.0
C2854 C 0.10491 0.31915 0.65471 0.0
C2855 C 0.10879 0.3399 0.66872 0.0
C2856 C 0.12775 0.34138 0.68502 0.0
C2857 C 0.14238 0.32184 0.68715 0.0
C2858 C 0.13946 0.3018 0.67279 0.0
C2859 C 0.15458 0.28173 0.68133 0.0
C2860 C 0.13867 0.2595 0.68751 0.0
C2861 C 0.17456 0.27594 0.6628 0.0
C2862 C 0.16528 0.29312 0.70346 0.0
C2863 C 0.15861 0.31646 0.70614 0.0
C2864 C 0.16551 0.33027 0.72582 0.0
C2865 C 0.17994 0.32004 0.74299 0.0
C2866 C 0.18672 0.29613 0.7406 0.0
C2867 C 0.17928 0.28255 0.72062 0.0
H2868 H 0.51274 0.7201 0.08337 0.0
H2869 H 0.46251 0.70686 0.14279 0.0
H2870 H 0.46081 0.66406 0.13233 0.0
H2871 H 0.48945 0.67113 0.04209 0.0
H2872 H 0.52001 0.66493 0.03232 0.0
H2873 H 0.51232 0.69481 0.04065 0.0
H2874 H 0.54727 0.6961 0.071 0.0
H2875 H 0.5547 0.66614 0.06327 0.0
H2876 H 0.54768 0.67385 0.0939 0.0
H2877 H 0.46932 0.62242 0.11917 0.0
H2878 H 0.48764 0.58531 0.10463 0.0
H2879 H 0.53457 0.62592 0.05591 0.0
C2880 C 0.50049 0.70837 0.09349 0.0
C2881 C 0.48741 0.71677 0.11361 0.0
C2882 C 0.4724 0.70075 0.1271 0.0
C2883 C 0.47132 0.67645 0.12128 0.0
C2884 C 0.48547 0.66854 0.10203 0.0
C2885 C 0.49967 0.68407 0.08825 0.0
C2886 C 0.5159 0.67091 0.07086 0.0
C2887 C 0.509 0.67573 0.04495 0.0
C2888 C 0.54297 0.67712 0.07503 0.0
C2889 C 0.50942 0.64556 0.07772 0.0
C2890 C 0.49139 0.64452 0.09528 0.0
C2891 C 0.48318 0.62302 0.10519 0.0
C2892 C 0.49371 0.60209 0.0969 0.0
C2893 C 0.51255 0.60291 0.0793 0.0
C2894 C 0.52034 0.62491 0.06954 0.0
H2895 H 0.12215 0.79646 0.89142 0.0
H2896 H 0.08275 0.75024 0.84222 0.0
H2897 H 0.12149 0.74143 0.82101 0.0
H2898 H 0.16343 0.82164 0.84626 0.0
H2899 H 0.18881 0.82426 0.86606 0.0
H2900 H 0.15822 0.82581 0.8779 0.0
H2901 H 0.16635 0.79144 0.90672 0.0
H2902 H 0.19691 0.78965 0.89483 0.0
H2903 H 0.17684 0.76366 0.89479 0.0
H2904 H 0.1656 0.73604 0.80656 0.0
H2905 H 0.20956 0.73943 0.79614 0.0
H2906 H 0.21954 0.79258 0.85196 0.0
C2907 C 0.12171 0.78445 0.87618 0.0
C2908 C 0.09941 0.77382 0.86861 0.0
C2909 C 0.09956 0.75856 0.84834 0.0
C2910 C 0.12153 0.75337 0.83628 0.0
C2911 C 0.14324 0.764 0.84432 0.0
C2912 C 0.14339 0.77966 0.8635 0.0
C2913 C 0.1689 0.78992 0.86764 0.0
C2914 C 0.16989 0.81701 0.86426 0.0
C2915 C 0.17776 0.78326 0.89247 0.0
C2916 C 0.18318 0.77744 0.84798 0.0
C2917 C 0.16815 0.7622 0.835 0.0
C2918 C 0.17742 0.74812 0.81649 0.0
C2919 C 0.20248 0.75003 0.81078 0.0
C2920 C 0.21805 0.76629 0.82315 0.0
C2921 C 0.20813 0.78005 0.84208 0.0
H2922 H 0.01115 0.36583 0.60883 0.0
H2923 H 0.02282 0.33036 0.54064 0.0
H2924 H 0.0125 0.36704 0.51977 0.0
H2925 H 0.9622 0.40656 0.58997 0.0
H2926 H 0.97471 0.4306 0.6079 0.0
H2927 H 0.97735 0.40028 0.61732 0.0
H2928 H 0.0241 0.40679 0.61957 0.0
H2929 H 0.02163 0.43696 0.61009 0.0
H2930 H 0.04099 0.41719 0.59356 0.0
H2931 H 0.00706 0.40848 0.50662 0.0
H2932 H 0.0095 0.45192 0.50194 0.0
H2933 H 1.00323 0.46098 0.57889 0.0
C2934 C 0.01065 0.36552 0.5895 0.0
C2935 C 0.01744 0.34523 0.57628 0.0
C2936 C 0.01745 0.34571 0.55104 0.0
C2937 C 0.01148 0.3664 0.53908 0.0
C2938 C 1.00563 0.38639 0.55265 0.0
C2939 C 1.00517 0.38612 0.57734 0.0
C2940 C 1.00196 0.41076 0.58777 0.0
C2941 C 0.9776 0.41212 0.60155 0.0
C2942 C 0.02345 0.41836 0.60366 0.0
C2943 C 1.00184 0.42514 0.56511 0.0
C2944 C 1.00329 0.41066 0.54505 0.0
C2945 C 1.00549 0.41997 0.52215 0.0
C2946 C 0.00692 0.4447 0.5197 0.0
C2947 C 0.00654 0.45985 0.54007 0.0
C2948 C 1.00325 0.44988 0.56298 0.0
H2949 H 0.45615 0.24937 0.35459 0.0
H2950 H 0.46578 0.32456 0.37042 0.0
H2951 H 0.42956 0.33271 0.34675 0.0
H2952 H 0.43286 0.25393 0.29447 0.0
H2953 H 0.41042 0.23007 0.29803 0.0
H2954 H 0.43804 0.23008 0.31478 0.0
H2955 H 0.41285 0.22708 0.35423 0.0
H2956 H 0.38518 0.22694 0.33759 0.0
H2957 H 0.39029 0.2488 0.36085 0.0
H2958 H 0.39274 0.33296 0.32013 0.0
H2959 H 0.35517 0.32506 0.29769 0.0
H2960 H 0.36584 0.24926 0.30213 0.0
C2961 C 0.4507 0.26756 0.35288 0.0
C2962 C 0.46413 0.28642 0.36416 0.0
C2963 C 0.45598 0.30987 0.36192 0.0
C2964 C 0.43542 0.31467 0.34839 0.0
C2965 C 0.4226 0.29578 0.3375 0.0
C2966 C 0.42963 0.27261 0.33998 0.0
C2967 C 0.41149 0.25548 0.32788 0.0
C2968 C 0.42395 0.24157 0.30758 0.0
C2969 C 0.39922 0.23857 0.34623 0.0
C2970 C 0.39333 0.27261 0.31808 0.0
C2971 C 0.40041 0.2958 0.3235 0.0
C2972 C 0.38701 0.31484 0.31596 0.0
C2973 C 0.36566 0.31015 0.303 0.0
C2974 C 0.35732 0.28654 0.29791 0.0
C2975 C 0.37159 0.26754 0.30558 0.0
H2976 H 0.43569 0.51419 0.34171 0.0
H2977 H 0.42779 0.58572 0.31535 0.0
H2978 H 0.45833 0.60082 0.34395 0.0
H2979 H 0.44046 0.52999 0.40248 0.0
H2980 H 0.46249 0.50811 0.40893 0.0
H2981 H 0.44133 0.5028 0.38524 0.0
H2982 H 0.47722 0.49643 0.35537 0.0
H2983 H 0.49852 0.5018 0.37899 0.0
H2984 H 0.50083 0.51925 0.35219 0.0
H2985 H 0.488 0.60832 0.37683 0.0
H2986 H 0.51329 0.60789 0.41266 0.0
H2987 H 0.5022 0.53132 0.41667 0.0
C2988 C 0.44051 0.53301 0.3418 0.0
C2989 C 0.42943 0.54879 0.32632 0.0
C2990 C 0.43609 0.57331 0.32708 0.0
C2991 C 0.45348 0.58204 0.34317 0.0
C2992 C 0.46402 0.56598 0.35824 0.0
C2993 C 0.45777 0.54199 0.3577 0.0
C2994 C 0.47085 0.52863 0.37654 0.0
C2995 C 0.4527 0.51669 0.39435 0.0
C2996 C 0.48787 0.51046 0.36508 0.0
C2997 C 0.48507 0.54894 0.38808 0.0
C2998 C 0.4811 0.5703 0.37714 0.0
C2999 C 0.49148 0.59167 0.38539 0.0
C3000 C 0.50593 0.59122 0.40568 0.0
C3001 C 0.50972 0.56956 0.41749 0.0
C3002 C 0.4995 0.54817 0.40818 0.0
H3003 H 0.34814 0.70257 0.09765 0.0
H3004 H 0.29591 0.64332 0.09327 0.0
H3005 H 0.27855 0.65458 0.13242 0.0
H3006 H 0.35228 0.70308 0.16719 0.0
H3007 H 0.35495 0.73507 0.16702 0.0
H3008 H 0.36809 0.71805 0.14285 0.0
H3009 H 0.34387 0.74216 0.11289 0.0
H3010 H 0.32996 0.75862 0.13677 0.0
H3011 H 0.31118 0.74239 0.11576 0.0
H3012 H 0.25938 0.67874 0.16441 0.0
H3013 H 0.24458 0.71018 0.19167 0.0
H3014 H 0.30959 0.75326 0.17625 0.0
C3015 C 0.33394 0.69123 0.10558 0.0
C3016 C 0.32329 0.6722 0.09245 0.0
C3017 C 0.30449 0.65788 0.10312 0.0
C3018 C 0.29442 0.66421 0.12535 0.0
C3019 C 0.30386 0.68444 0.13688 0.0
C3020 C 0.32384 0.69726 0.12781 0.0
C3021 C 0.32848 0.71999 0.14193 0.0
C3022 C 0.35237 0.71898 0.15556 0.0
C3023 C 0.32834 0.74206 0.12587 0.0
C3024 C 0.30677 0.71899 0.15887 0.0
C3025 C 0.29299 0.6982 0.15598 0.0
C3026 C 0.27044 0.6947 0.16745 0.0
C3027 C 0.26198 0.71277 0.18254 0.0
C3028 C 0.27606 0.73398 0.18594 0.0
C3029 C 0.29879 0.73696 0.17415 0.0
H3030 H 0.15209 0.5428 0.86799 0.0
H3031 H 0.11621 0.48196 0.83413 0.0
H3032 H 0.0933 0.47336 0.87195 0.0
H3033 H 0.15828 0.51478 0.92638 0.0
H3034 H 0.15365 0.54227 0.94236 0.0
H3035 H 0.16756 0.5427 0.91295 0.0
H3036 H 0.13474 0.5711 0.89883 0.0
H3037 H 0.12071 0.57062 0.92812 0.0
H3038 H 0.10304 0.56242 0.90238 0.0
H3039 H 0.07103 0.47493 0.91212 0.0
H3040 H 0.05482 0.48334 0.95289 0.0
H3041 H 0.10879 0.54068 0.96079 0.0
C3042 C 0.13954 0.52755 0.86865 0.0
C3043 C 0.13556 0.51312 0.84835 0.0
C3044 C 0.11935 0.49314 0.8497 0.0
C3045 C 0.10631 0.4882 0.87101 0.0
C3046 C 0.11037 0.50308 0.89072 0.0
C3047 C 0.12701 0.52204 0.88982 0.0
C3048 C 0.1282 0.53535 0.91334 0.0
C3049 C 0.15342 0.53366 0.92441 0.0
C3050 C 0.12125 0.5614 0.91048 0.0
C3051 C 0.10908 0.52138 0.92748 0.0
C3052 C 0.09882 0.50295 0.91414 0.0
C3053 C 0.0793 0.48894 0.9229 0.0
C3054 C 0.07016 0.49389 0.94593 0.0
C3055 C 0.08089 0.51237 0.95988 0.0
C3056 C 0.10068 0.52608 0.9506 0.0
H3057 H 0.25824 0.38029 0.61524 0.0
H3058 H 0.31912 0.34698 0.57955 0.0
H3059 H 0.32729 0.32529 0.61647 0.0
H3060 H 0.28367 0.38703 0.67343 0.0
H3061 H 0.25586 0.37933 0.68953 0.0
H3062 H 0.25471 0.39229 0.66034 0.0
H3063 H 0.22771 0.35639 0.64623 0.0
H3064 H 0.22911 0.34344 0.67545 0.0
H3065 H 0.23838 0.3267 0.64942 0.0
H3066 H 0.33153 0.30999 0.65853 0.0
H3067 H 0.3282 0.29792 0.70078 0.0
H3068 H 0.26215 0.33716 0.70947 0.0
C3069 C 0.27314 0.36824 0.61511 0.0
C3070 C 0.28806 0.3655 0.59418 0.0
C3071 C 0.30729 0.34941 0.59502 0.0
C3072 C 0.31217 0.33705 0.61607 0.0
C3073 C 0.29741 0.34038 0.63635 0.0
C3074 C 0.27791 0.35516 0.63595 0.0
C3075 C 0.26452 0.35489 0.66018 0.0
C3076 C 0.26472 0.37988 0.67153 0.0
C3077 C 0.23838 0.34476 0.65766 0.0
C3078 C 0.27987 0.33814 0.67439 0.0
C3079 C 0.29892 0.33024 0.66026 0.0
C3080 C 0.31644 0.31578 0.66957 0.0
C3081 C 0.31446 0.30907 0.69371 0.0
C3082 C 0.29482 0.31625 0.70856 0.0
C3083 C 0.27719 0.33097 0.69858 0.0
H3084 H 0.416 0.54761 0.19344 0.0
H3085 H 0.40673 0.47629 0.22158 0.0
H3086 H 0.42677 0.46018 0.18521 0.0
H3087 H 0.40617 0.5333 0.1318 0.0
H3088 H 0.42933 0.55413 0.12094 0.0
H3089 H 0.41359 0.55985 0.14881 0.0
H3090 H 0.45481 0.56349 0.1704 0.0
H3091 H 0.47061 0.55791 0.14255 0.0
H3092 H 0.47562 0.53949 0.168 0.0
H3093 H 0.44667 0.45195 0.14498 0.0
H3094 H 0.46881 0.45271 0.10596 0.0
H3095 H 0.46686 0.52969 0.10603 0.0
C3096 C 0.41812 0.5286 0.19191 0.0
C3097 C 0.40971 0.51313 0.21015 0.0
C3098 C 0.41312 0.4884 0.20774 0.0
C3099 C 0.42435 0.4791 0.18714 0.0
C3100 C 0.4323 0.49485 0.16938 0.0
C3101 C 0.42964 0.51911 0.17173 0.0
C3102 C 0.4407 0.53234 0.15061 0.0
C3103 C 0.42128 0.54568 0.13725 0.0
C3104 C 0.46168 0.5493 0.15836 0.0
C3105 C 0.44991 0.51174 0.13595 0.0
C3106 C 0.44465 0.49022 0.14686 0.0
C3107 C 0.45103 0.4687 0.13632 0.0
C3108 C 0.46347 0.46928 0.11419 0.0
C3109 C 0.46963 0.49124 0.10321 0.0
C3110 C 0.46258 0.51265 0.11419 0.0
H3111 H 0.34011 0.69896 0.94807 0.0
H3112 H 0.34193 0.76481 0.98893 0.0
H3113 H 0.34222 0.78754 0.95152 0.0
H3114 H 0.37515 0.72208 0.89264 0.0
H3115 H 0.35541 0.70457 0.87354 0.0
H3116 H 0.36267 0.69379 0.90266 0.0
H3117 H 0.31665 0.68911 0.91296 0.0
H3118 H 0.30924 0.70027 0.88421 0.0
H3119 H 0.29779 0.71454 0.91092 0.0
H3120 H 0.33327 0.80254 0.91142 0.0
H3121 H 0.31714 0.80885 0.87134 0.0
H3122 H 0.3197 0.7331 0.8566 0.0
C3123 C 0.34181 0.71816 0.94908 0.0
C3124 C 0.34125 0.73019 0.97128 0.0
C3125 C 0.34256 0.75531 0.97202 0.0
C3126 C 0.34281 0.76836 0.95086 0.0
C3127 C 0.34181 0.75595 0.92922 0.0
C3128 C 0.34166 0.73138 0.92814 0.0
C3129 C 0.33654 0.72223 0.90317 0.0
C3130 C 0.35877 0.70995 0.89236 0.0
C3131 C 0.3137 0.70558 0.90282 0.0
C3132 C 0.33231 0.74538 0.89078 0.0
C3133 C 0.33604 0.76466 0.90592 0.0
C3134 C 0.3309 0.78767 0.8992 0.0
C3135 C 0.32156 0.79104 0.87647 0.0
C3136 C 0.31719 0.77145 0.86089 0.0
C3137 C 0.32308 0.74844 0.86805 0.0
H3138 H 0.10635 0.52639 0.73759 0.0
H3139 H 0.16364 0.5711 0.70583 0.0
H3140 H 0.13519 0.58417 0.6753 0.0
H3141 H 0.08522 0.50459 0.68385 0.0
H3142 H 0.05356 0.50252 0.69274 0.0
H3143 H 0.0766 0.50075 0.71484 0.0
H3144 H 0.05767 0.53576 0.73827 0.0
H3145 H 0.0346 0.53773 0.71604 0.0
H3146 H 0.05344 0.5635 0.72337 0.0
H3147 H 0.10225 0.58948 0.64663 0.0
H3148 H 0.06935 0.58242 0.61806 0.0
H3149 H 0.03456 0.53122 0.66624 0.0
C3150 C 0.11256 0.53944 0.72455 0.0
C3151 C 0.13683 0.5482 0.72406 0.0
C3152 C 0.14491 0.56451 0.7064 0.0
C3153 C 0.12886 0.57214 0.68922 0.0
C3154 C 0.10499 0.56297 0.6899 0.0
C3155 C 0.09693 0.54671 0.7069 0.0
C3156 C 0.07173 0.53673 0.70143 0.0
C3157 C 0.0718 0.50955 0.698 0.0
C3158 C 0.05327 0.54387 0.72094 0.0
C3159 C 0.06727 0.54924 0.67822 0.0
C3160 C 0.08635 0.56486 0.67235 0.0
C3161 C 0.08715 0.57739 0.65107 0.0
C3162 C 0.06846 0.57312 0.63488 0.0
C3163 C 0.04956 0.55601 0.63978 0.0
C3164 C 0.04854 0.54462 0.66213 0.0
H3165 H 0.28273 0.38448 0.43397 0.0
H3166 H 0.28905 0.32074 0.47584 0.0
H3167 H 0.28413 0.29613 0.43939 0.0
H3168 H 0.23923 0.36049 0.39009 0.0
H3169 H 0.25376 0.37535 0.36496 0.0
H3170 H 0.25578 0.38835 0.39444 0.0
H3171 H 0.3027 0.38979 0.39048 0.0
H3172 H 0.30075 0.37679 0.36101 0.0
H3173 H 0.31832 0.36289 0.38345 0.0
H3174 H 0.27832 0.2781 0.39914 0.0
H3175 H 0.27635 0.26719 0.35681 0.0
H3176 H 0.27722 0.34191 0.33793 0.0
C3177 C 0.28271 0.36532 0.43542 0.0
C3178 C 0.28582 0.35449 0.458 0.0
C3179 C 0.28645 0.32942 0.45895 0.0
C3180 C 0.28363 0.31528 0.43828 0.0
C3181 C 0.28069 0.32635 0.41638 0.0
C3182 C 0.28058 0.3508 0.41461 0.0
C3183 C 0.27887 0.35787 0.38835 0.0
C3184 C 0.25552 0.37131 0.38422 0.0
C3185 C 0.30151 0.37272 0.38036 0.0
C3186 C 0.27794 0.33359 0.37579 0.0
C3187 C 0.27868 0.31579 0.39255 0.0
C3188 C 0.27784 0.29191 0.38587 0.0
C3189 C 0.27665 0.2859 0.36154 0.0
C3190 C 0.2766 0.30354 0.34357 0.0
C3191 C 0.2771 0.32787 0.35099 0.0
H3192 H 0.35497 0.46177 0.55711 0.0
H3193 H 0.34346 0.45059 0.48147 0.0
H3194 H 0.38058 0.47512 0.47215 0.0
H3195 H 0.38145 0.52242 0.55434 0.0
H3196 H 0.40384 0.51732 0.5766 0.0
H3197 H 0.37514 0.50088 0.57744 0.0
H3198 H 0.3978 0.46133 0.57659 0.0
H3199 H 0.42652 0.47766 0.57581 0.0
H3200 H 0.41966 0.45585 0.55292 0.0
H3201 H 0.41945 0.50084 0.47093 0.0
H3202 H 0.45897 0.52166 0.4778 0.0
H3203 H 0.44783 0.51359 0.55426 0.0
C3204 C 0.36008 0.46488 0.5386 0.0
C3205 C 0.34597 0.45463 0.51996 0.0
C3206 C 0.35376 0.45846 0.496 0.0
C3207 C 0.37483 0.47242 0.49055 0.0
C3208 C 0.38843 0.48217 0.50925 0.0
C3209 C 0.38157 0.4783 0.53283 0.0
C3210 C 0.40058 0.48916 0.54949 0.0
C3211 C 0.38959 0.5086 0.56541 0.0
C3212 C 0.4118 0.46985 0.56459 0.0
C3213 C 0.41913 0.49974 0.53165 0.0
C3214 C 0.41154 0.49583 0.50854 0.0
C3215 C 0.42553 0.50394 0.48899 0.0
C3216 C 0.44799 0.51592 0.49308 0.0
C3217 C 0.45669 0.51948 0.51656 0.0
C3218 C 0.44178 0.51136 0.53607 0.0
H3219 H 0.91513 0.14845 0.53807 0.0
H3220 H 0.87839 0.11837 0.47662 0.0
H3221 H 0.91314 0.0925 0.46844 0.0
H3222 H 0.97952 0.14402 0.51021 0.0
H3223 H 0.99233 0.13679 0.5384 0.0
H3224 H 0.96758 0.15694 0.53742 0.0
H3225 H 0.94166 0.13134 0.5666 0.0
H3226 H 0.96582 0.11099 0.56895 0.0
H3227 H 0.93611 0.10019 0.56013 0.0
H3228 H 0.94515 0.06313 0.47422 0.0
H3229 H 0.97543 0.03615 0.48991 0.0
H3230 H 0.99387 0.08797 0.54494 0.0
C3231 C 0.91505 0.13715 0.52229 0.0
C3232 C 0.89448 0.13524 0.50784 0.0
C3233 C 0.89436 0.12013 0.48758 0.0
C3234 C 0.91396 0.10544 0.48285 0.0
C3235 C 0.93368 0.10687 0.49812 0.0
C3236 C 0.93477 0.12297 0.51696 0.0
C3237 C 0.95681 0.11948 0.53203 0.0
C3238 C 0.97513 0.14057 0.52936 0.0
C3239 C 0.94965 0.11524 0.55846 0.0
C3240 C 0.96651 0.09741 0.52025 0.0
C3241 C 0.95321 0.0906 0.50047 0.0
C3242 C 0.95635 0.06876 0.48903 0.0
C3243 C 0.97337 0.05348 0.49817 0.0
C3244 C 0.98706 0.0603 0.51834 0.0
C3245 C 0.98406 0.08275 0.52905 0.0
H3246 H 0.70733 0.09574 0.31337 0.0
H3247 H 0.75318 0.04617 0.27541 0.0
H3248 H 0.78248 0.0789 0.26575 0.0
H3249 H 0.71008 0.13729 0.27306 0.0
H3250 H 0.71086 0.16296 0.29258 0.0
H3251 H 0.69738 0.13542 0.30296 0.0
H3252 H 0.72632 0.13561 0.33888 0.0
H3253 H 0.73957 0.16364 0.32898 0.0
H3254 H 0.7587 0.13886 0.33374 0.0
H3255 H 0.80089 0.11774 0.25172 0.0
H3256 H 0.80942 0.15921 0.23885 0.0
H3257 H 0.7505 0.18255 0.28501 0.0
C3258 C 0.72407 0.09158 0.30397 0.0
C3259 C 0.72792 0.06853 0.29502 0.0
C3260 C 0.74991 0.06375 0.28255 0.0
C3261 C 0.76667 0.08224 0.27694 0.0
C3262 C 0.76134 0.1052 0.28438 0.0
C3263 C 0.74086 0.10981 0.2982 0.0
C3264 C 0.73734 0.13616 0.30111 0.0
C3265 C 0.71246 0.14335 0.29186 0.0
C3266 C 0.7407 0.14403 0.32723 0.0
C3267 C 0.75797 0.14557 0.28538 0.0
C3268 C 0.77197 0.1276 0.27624 0.0
C3269 C 0.79049 0.13204 0.25931 0.0
C3270 C 0.79497 0.15554 0.25182 0.0
C3271 C 0.78079 0.1741 0.26114 0.0
C3272 C 0.76216 0.16889 0.27812 0.0
H3273 H 0.70517 0.96686 0.05979 0.0
H3274 H 0.71007 0.92042 0.99766 0.0
H3275 H 0.67006 0.93331 0.98471 0.0
H3276 H 0.64051 0.95732 0.07098 0.0
H3277 H 0.63548 0.98764 0.07989 0.0
H3278 H 0.66466 0.97502 0.08432 0.0
H3279 H 0.6855 0.00932 0.06025 0.0
H3280 H 0.65633 0.02195 0.05579 0.0
H3281 H 0.67564 0.0151 0.03043 0.0
H3282 H 0.62881 0.95088 0.97846 0.0
H3283 H 0.5899 0.97153 0.97966 0.0
H3284 H 0.61111 0.00707 0.04553 0.0
C3285 C 0.69787 0.95942 0.04343 0.0
C3286 C 0.71104 0.94252 0.02978 0.0
C3287 C 0.70058 0.93332 0.00851 0.0
C3288 C 0.67776 0.94057 1.00096 0.0
C3289 C 0.6653 0.95716 0.01477 0.0
C3290 C 0.67496 0.9665 0.03559 0.0
C3291 C 0.65761 0.98399 0.04717 0.0
C3292 C 0.64906 0.97547 0.07206 0.0
C3293 C 0.66948 0.00908 0.04848 0.0
C3294 C 0.63675 0.98297 0.02966 0.0
C3295 C 0.64158 0.96737 0.01109 0.0
C3296 C 0.62493 0.96319 0.9929 0.0
C3297 C 0.6028 0.97507 0.99371 0.0
C3298 C 0.59726 0.99115 0.01255 0.0
C3299 C 0.6147 0.9951 0.03071 0.0
H3300 H 0.32293 0.48356 0.31154 0.0
H3301 H 0.28927 0.5176 0.25221 0.0
H3302 H 0.26398 0.48148 0.24525 0.0
H3303 H 0.33528 0.43635 0.28457 0.0
H3304 H 0.32967 0.41469 0.3077 0.0
H3305 H 0.33661 0.44496 0.31566 0.0
H3306 H 0.29668 0.44712 0.34065 0.0
H3307 H 0.28977 0.41638 0.33332 0.0
H3308 H 0.26809 0.43871 0.32729 0.0
H3309 H 0.25422 0.43974 0.23557 0.0
H3310 H 0.25753 0.39703 0.22674 0.0
H3311 H 0.2992 0.38911 0.29083 0.0
C3312 C 0.30922 0.48387 0.29797 0.0
C3313 C 0.30831 0.50321 0.28221 0.0
C3314 C 0.29033 0.50298 0.26451 0.0
C3315 C 0.27583 0.48246 0.26044 0.0
C3316 C 0.27927 0.46257 0.27447 0.0
C3317 C 0.29505 0.46332 0.29344 0.0
C3318 C 0.29951 0.43861 0.30251 0.0
C3319 C 0.32686 0.43338 0.30256 0.0
C3320 C 0.2878 0.435 0.32742 0.0
C3321 C 0.28617 0.42382 0.28396 0.0
C3322 C 0.2738 0.43789 0.26854 0.0
C3323 C 0.26315 0.42849 0.24798 0.0
C3324 C 0.26549 0.40426 0.24288 0.0
C3325 C 0.27871 0.38974 0.25808 0.0
C3326 C 0.28851 0.39961 0.27919 0.0
H3327 H 0.24166 0.66453 0.04226 0.0
H3328 H 0.25342 0.65296 0.96639 0.0
H3329 H 0.21674 0.62648 0.96534 0.0
H3330 H 0.22986 0.60794 0.05528 0.0
H3331 H 0.20671 0.61176 0.0781 0.0
H3332 H 0.22897 0.63522 0.07239 0.0
H3333 H 0.1952 0.66488 0.06453 0.0
H3334 H 0.17265 0.64175 0.07111 0.0
H3335 H 0.17205 0.65731 0.04317 0.0
H3336 H 0.1848 0.59561 0.97384 0.0
H3337 H 0.15668 0.56478 0.99067 0.0
H3338 H 0.1667 0.59475 0.06158 0.0
C3339 C 0.23559 0.65757 0.02521 0.0
C3340 C 0.24986 0.66113 0.00427 0.0
C3341 C 0.24229 0.65076 0.98245 0.0
C3342 C 0.22159 0.63563 0.98175 0.0
C3343 C 0.20884 0.63106 1.00306 0.0
C3344 C 0.21526 0.64202 0.02436 0.0
C3345 C 0.20082 0.63144 0.04525 0.0
C3346 C 0.2176 0.62098 0.06383 0.0
C3347 C 0.18419 0.64995 0.05669 0.0
C3348 C 0.18621 0.6121 0.03252 0.0
C3349 C 0.19081 0.61248 0.00816 0.0
C3350 C 0.18061 0.59548 0.99281 0.0
C3351 C 0.1648 0.57799 1.00253 0.0
C3352 C 0.15951 0.57747 0.02738 0.0
C3353 C 0.17055 0.59466 0.04255 0.0
H3354 H 0.73291 0.94937 0.29336 0.0
H3355 H 0.65581 0.93252 0.30149 0.0
H3356 H 0.66482 0.89032 0.30871 0.0
H3357 H 0.74853 0.90075 0.26148 0.0
H3358 H 0.77736 0.89673 0.27532 0.0
H3359 H 0.7649 0.92575 0.27464 0.0
H3360 H 0.76738 0.92908 0.32077 0.0
H3361 H 0.78005 0.90001 0.32159 0.0
H3362 H 0.75313 0.90622 0.33911 0.0
H3363 H 0.68227 0.84941 0.30697 0.0
H3364 H 0.70677 0.81376 0.30043 0.0
H3365 H 0.77237 0.85865 0.29674 0.0
C3366 C 0.718 0.93684 0.29726 0.0
C3367 C 0.69375 0.94383 0.2968 0.0
C3368 C 0.67454 0.92725 0.30193 0.0
C3369 C 0.6795 0.90337 0.30605 0.0
C3370 C 0.70374 0.89682 0.30565 0.0
C3371 C 0.72267 0.91326 0.30194 0.0
C3372 C 0.74699 0.9017 0.30071 0.0
C3373 C 0.76019 0.90651 0.27661 0.0
C3374 C 0.76281 0.90973 0.32181 0.0
C3375 C 0.73875 0.876 0.30296 0.0
C3376 C 0.71378 0.87344 0.30594 0.0
C3377 C 0.70187 0.85118 0.30541 0.0
C3378 C 0.71588 0.83109 0.30155 0.0
C3379 C 0.74143 0.83356 0.29843 0.0
C3380 C 0.75293 0.85623 0.2997 0.0
H3381 H 0.83943 0.15858 0.72841 0.0
H3382 H 0.87134 0.13828 0.79516 0.0
H3383 H 0.87272 0.18023 0.80832 0.0
H3384 H 0.8739 0.21464 0.72153 0.0
H3385 H 0.84864 0.22984 0.70955 0.0
H3386 H 0.85108 0.19831 0.7048 0.0
H3387 H 0.80802 0.19106 0.72356 0.0
H3388 H 0.80546 0.22256 0.72813 0.0
H3389 H 0.80137 0.20266 0.75302 0.0
H3390 H 0.86903 0.22409 0.81503 0.0
H3391 H 0.85934 0.26663 0.81513 0.0
H3392 H 0.83054 0.25827 0.74379 0.0
C3393 C 0.84678 0.16296 0.74576 0.0
C3394 C 0.85524 0.14515 0.76076 0.0
C3395 C 0.86472 0.15162 0.78335 0.0
C3396 C 0.86568 0.17541 0.79097 0.0
C3397 C 0.85723 0.19254 0.77574 0.0
C3398 C 0.84796 0.18664 0.75361 0.0
C3399 C 0.83932 0.20837 0.74103 0.0
C3400 C 0.85413 0.21306 0.71786 0.0
C3401 C 0.81192 0.20602 0.73616 0.0
C3402 C 0.84479 0.2273 0.75973 0.0
C3403 C 0.85528 0.21785 0.77954 0.0
C3404 C 0.86101 0.23175 0.79953 0.0
C3405 C 0.85546 0.25588 0.79942 0.0
C3406 C 0.84427 0.26578 0.77946 0.0
C3407 C 0.8393 0.2513 0.75925 0.0
loop_
_geom_bond_atom_site_label_1
_geom_bond_atom_site_label_2
_geom_bond_distance
_geom_bond_site_symmetry_2
_ccdc_geom_bond_type
O0 Cd1 2.223 . S
O0 C8 1.315 . S
Cd1 O0 2.223 . S
Cd1 O4 2.297 1_455 S
Cd1 O5 2.439 1_455 S
Cd1 O11 2.240 . S
Cd2 O3 2.240 . S
Cd2 O10 2.223 . S
Cd2 O12 2.297 . S
Cd2 O13 2.439 . S
O3 Cd2 2.240 . S
O3 C8 1.279 . S
O4 Cd1 2.297 1_655 S
O4 C6 1.247 . S
O5 Cd1 2.439 1_655 S
O5 C6 1.208 . S
C6 O4 1.247 . S
C6 O5 1.208 . S
C7 O12 1.247 . S
C7 O13 1.208 . S
C8 O0 1.315 . S
C8 O3 1.279 . S
C9 O10 1.315 . S
C9 O11 1.279 . S
O10 Cd2 2.223 . S
O10 C9 1.315 . S
O11 Cd1 2.240 . S
O11 C9 1.279 . S
O12 Cd2 2.297 . S
O12 C7 1.247 . S
O13 Cd2 2.439 . S
O13 C7 1.208 . S
O14 Cd15 2.223 . S
O14 C22 1.315 . S
Cd15 O14 2.223 . S
Cd15 O18 2.297 . S
Cd15 O19 2.439 . S
Cd15 O25 2.240 . S
Cd16 O17 2.240 . S
Cd16 O24 2.223 . S
Cd16 O26 2.297 . S
Cd16 O27 2.439 . S
O17 Cd16 2.240 . S
O17 C22 1.279 . S
O18 Cd15 2.297 . S
O18 C20 1.247 . S
O19 Cd15 2.439 . S
O19 C20 1.208 . S
C20 O18 1.247 . S
C20 O19 1.208 . S
C21 O26 1.247 1_655 S
C21 O27 1.208 1_655 S
C22 O14 1.315 . S
C22 O17 1.279 . S
C23 O24 1.315 . S
C23 O25 1.279 . S
O24 Cd16 2.223 . S
O24 C23 1.315 . S
O25 Cd15 2.240 . S
O25 C23 1.279 . S
O26 Cd16 2.297 . S
O26 C21 1.247 1_455 S
O27 Cd16 2.439 . S
O27 C21 1.208 1_455 S
O28 Cd29 2.223 . S
O28 C36 1.315 . S
Cd29 O28 2.223 . S
Cd29 O32 2.297 . S
Cd29 O33 2.439 . S
Cd29 O39 2.240 . S
Cd30 O31 2.240 . S
Cd30 O38 2.223 . S
Cd30 O40 2.297 . S
Cd30 O41 2.439 . S
O31 Cd30 2.240 . S
O31 C36 1.279 . S
O32 Cd29 2.297 . S
O32 C34 1.247 . S
O33 Cd29 2.439 . S
O33 C34 1.208 . S
C34 O32 1.247 . S
C34 O33 1.208 . S
C35 O40 1.247 . S
C35 O41 1.208 . S
C36 O28 1.315 . S
C36 O31 1.279 . S
C37 O38 1.315 . S
C37 O39 1.279 . S
O38 Cd30 2.223 . S
O38 C37 1.315 . S
O39 Cd29 2.240 . S
O39 C37 1.279 . S
O40 Cd30 2.297 . S
O40 C35 1.247 . S
O41 Cd30 2.439 . S
O41 C35 1.208 . S
O42 Cd43 2.223 . S
O42 C50 1.315 . S
Cd43 O42 2.223 . S
Cd43 O46 2.297 . S
Cd43 O47 2.439 . S
Cd43 O53 2.240 . S
Cd44 O45 2.240 . S
Cd44 O52 2.223 . S
Cd44 O54 2.297 . S
Cd44 O55 2.439 . S
O45 Cd44 2.240 . S
O45 C50 1.279 . S
O46 Cd43 2.297 . S
O46 C48 1.247 . S
O47 Cd43 2.439 . S
O47 C48 1.208 . S
C48 O46 1.247 . S
C48 O47 1.208 . S
C49 O54 1.247 . S
C49 O55 1.208 . S
C50 O42 1.315 . S
C50 O45 1.279 . S
C51 O52 1.315 . S
C51 O53 1.279 . S
O52 Cd44 2.223 . S
O52 C51 1.315 . S
O53 Cd43 2.240 . S
O53 C51 1.279 . S
O54 Cd44 2.297 . S
O54 C49 1.247 . S
O55 Cd44 2.439 . S
O55 C49 1.208 . S
O56 Cd57 2.223 1_545 S
O56 C64 1.315 . S
Cd57 O56 2.223 1_565 S
Cd57 O60 2.297 . S
Cd57 O61 2.439 . S
Cd57 O67 2.240 1_565 S
Cd58 O59 2.240 1_545 S
Cd58 O66 2.223 . S
Cd58 O68 2.297 . S
Cd58 O69 2.439 1_545 S
O59 Cd58 2.240 1_565 S
O59 C64 1.279 1_565 S
O60 Cd57 2.297 . S
O60 C62 1.247 . S
O61 Cd57 2.439 . S
O61 C62 1.208 . S
C62 O60 1.247 . S
C62 O61 1.208 . S
C63 O68 1.247 . S
C63 O69 1.208 1_545 S
C64 O56 1.315 . S
C64 O59 1.279 1_545 S
C65 O66 1.315 . S
C65 O67 1.279 . S
O66 Cd58 2.223 . S
O66 C65 1.315 . S
O67 Cd57 2.240 1_545 S
O67 C65 1.279 . S
O68 Cd58 2.297 . S
O68 C63 1.247 . S
O69 Cd58 2.439 1_565 S
O69 C63 1.208 1_565 S
O70 Cd71 2.223 . S
O70 C78 1.315 . S
Cd71 O70 2.223 . S
Cd71 O74 2.297 . S
Cd71 O75 2.439 . S
Cd71 O81 2.240 . S
Cd72 O73 2.240 . S
Cd72 O80 2.223 . S
Cd72 O82 2.297 . S
Cd72 O83 2.439 . S
O73 Cd72 2.240 . S
O73 C78 1.279 . S
O74 Cd71 2.297 . S
O74 C76 1.247 . S
O75 Cd71 2.439 . S
O75 C76 1.208 . S
C76 O74 1.247 . S
C76 O75 1.208 . S
C77 O82 1.247 . S
C77 O83 1.208 . S
C78 O70 1.315 . S
C78 O73 1.279 . S
C79 O80 1.315 . S
C79 O81 1.279 . S
O80 Cd72 2.223 . S
O80 C79 1.315 . S
O81 Cd71 2.240 . S
O81 C79 1.279 . S
O82 Cd72 2.297 . S
O82 C77 1.247 . S
O83 Cd72 2.439 . S
O83 C77 1.208 . S
O84 Cd85 2.223 . S
O84 C92 1.315 . S
Cd85 O84 2.223 . S
Cd85 O88 2.297 . S
Cd85 O89 2.439 . S
Cd85 O95 2.240 . S
Cd86 O87 2.240 . S
Cd86 O94 2.223 . S
Cd86 O96 2.297 . S
Cd86 O97 2.439 . S
O87 Cd86 2.240 . S
O87 C92 1.279 . S
O88 Cd85 2.297 . S
O88 C90 1.247 . S
O89 Cd85 2.439 . S
O89 C90 1.208 . S
C90 O88 1.247 . S
C90 O89 1.208 . S
C91 O96 1.247 . S
C91 O97 1.208 . S
C92 O84 1.315 . S
C92 O87 1.279 . S
C93 O94 1.315 . S
C93 O95 1.279 . S
O94 Cd86 2.223 . S
O94 C93 1.315 . S
O95 Cd85 2.240 . S
O95 C93 1.279 . S
O96 Cd86 2.297 . S
O96 C91 1.247 . S
O97 Cd86 2.439 . S
O97 C91 1.208 . S
O98 Cd99 2.223 . S
O98 C106 1.315 . S
Cd99 O98 2.223 . S
Cd99 O102 2.297 . S
Cd99 O103 2.439 . S
Cd99 O109 2.240 . S
Cd100 O101 2.240 . S
Cd100 O108 2.223 . S
Cd100 O110 2.297 1_554 S
Cd100 O111 2.439 1_554 S
O101 Cd100 2.240 . S
O101 C106 1.279 . S
O102 Cd99 2.297 . S
O102 C104 1.247 . S
O103 Cd99 2.439 . S
O103 C104 1.208 . S
C104 O102 1.247 . S
C104 O103 1.208 . S
C105 O110 1.247 . S
C105 O111 1.208 . S
C106 O98 1.315 . S
C106 O101 1.279 . S
C107 O108 1.315 . S
C107 O109 1.279 . S
O108 Cd100 2.223 . S
O108 C107 1.315 . S
O109 Cd99 2.240 . S
O109 C107 1.279 . S
O110 Cd100 2.297 1_556 S
O110 C105 1.247 . S
O111 Cd100 2.439 1_556 S
O111 C105 1.208 . S
O112 Cd113 2.223 . S
O112 C120 1.315 . S
Cd113 O112 2.223 . S
Cd113 O116 2.297 . S
Cd113 O117 2.439 . S
Cd113 O123 2.240 . S
Cd114 O115 2.240 . S
Cd114 O122 2.223 . S
Cd114 O124 2.297 . S
Cd114 O125 2.439 . S
O115 Cd114 2.240 . S
O115 C120 1.279 . S
O116 Cd113 2.297 . S
O116 C118 1.247 . S
O117 Cd113 2.439 . S
O117 C118 1.208 . S
C118 O116 1.247 . S
C118 O117 1.208 . S
C119 O124 1.247 1_556 S
C119 O125 1.208 1_556 S
C120 O112 1.315 . S
C120 O115 1.279 . S
C121 O122 1.315 . S
C121 O123 1.279 . S
O122 Cd114 2.223 . S
O122 C121 1.315 . S
O123 Cd113 2.240 . S
O123 C121 1.279 . S
O124 Cd114 2.297 . S
O124 C119 1.247 1_554 S
O125 Cd114 2.439 . S
O125 C119 1.208 1_554 S
O126 Cd127 2.223 . S
O126 C134 1.315 . S
Cd127 O126 2.223 . S
Cd127 O130 2.297 . S
Cd127 O131 2.439 . S
Cd127 O137 2.240 . S
Cd128 O129 2.240 . S
Cd128 O136 2.223 . S
Cd128 O138 2.297 . S
Cd128 O139 2.439 . S
O129 Cd128 2.240 . S
O129 C134 1.279 . S
O130 Cd127 2.297 . S
O130 C132 1.247 . S
O131 Cd127 2.439 . S
O131 C132 1.208 . S
C132 O130 1.247 . S
C132 O131 1.208 . S
C133 O138 1.247 . S
C133 O139 1.208 . S
C134 O126 1.315 . S
C134 O129 1.279 . S
C135 O136 1.315 . S
C135 O137 1.279 . S
O136 Cd128 2.223 . S
O136 C135 1.315 . S
O137 Cd127 2.240 . S
O137 C135 1.279 . S
O138 Cd128 2.297 . S
O138 C133 1.247 . S
O139 Cd128 2.439 . S
O139 C133 1.208 . S
O140 Cd141 2.223 . S
O140 C148 1.315 . S
Cd141 O140 2.223 . S
Cd141 O144 2.297 . S
Cd141 O145 2.439 . S
Cd141 O151 2.240 . S
Cd142 O143 2.240 . S
Cd142 O150 2.223 . S
Cd142 O152 2.297 . S
Cd142 O153 2.439 . S
O143 Cd142 2.240 . S
O143 C148 1.279 . S
O144 Cd141 2.297 . S
O144 C146 1.247 . S
O145 Cd141 2.439 . S
O145 C146 1.208 . S
C146 O144 1.247 . S
C146 O145 1.208 . S
C147 O152 1.247 . S
C147 O153 1.208 . S
C148 O140 1.315 . S
C148 O143 1.279 . S
C149 O150 1.315 . S
C149 O151 1.279 . S
O150 Cd142 2.223 . S
O150 C149 1.315 . S
O151 Cd141 2.240 . S
O151 C149 1.279 . S
O152 Cd142 2.297 . S
O152 C147 1.247 . S
O153 Cd142 2.439 . S
O153 C147 1.208 . S
O154 Cd155 2.223 . S
O154 C162 1.315 . S
Cd155 O154 2.223 . S
Cd155 O158 2.297 . S
Cd155 O159 2.439 . S
Cd155 O165 2.240 . S
Cd156 O157 2.240 . S
Cd156 O164 2.223 . S
Cd156 O166 2.297 . S
Cd156 O167 2.439 . S
O157 Cd156 2.240 . S
O157 C162 1.279 . S
O158 Cd155 2.297 . S
O158 C160 1.247 . S
O159 Cd155 2.439 . S
O159 C160 1.208 . S
C160 O158 1.247 . S
C160 O159 1.208 . S
C161 O166 1.247 . S
C161 O167 1.208 . S
C162 O154 1.315 . S
C162 O157 1.279 . S
C163 O164 1.315 . S
C163 O165 1.279 . S
O164 Cd156 2.223 . S
O164 C163 1.315 . S
O165 Cd155 2.240 . S
O165 C163 1.279 . S
O166 Cd156 2.297 . S
O166 C161 1.247 . S
O167 Cd156 2.439 . S
O167 C161 1.208 . S
O168 Cd169 2.223 . S
O168 C176 1.315 . S
Cd169 O168 2.223 . S
Cd169 O172 2.297 . S
Cd169 O173 2.439 . S
Cd169 O179 2.240 . S
Cd170 O171 2.240 . S
Cd170 O178 2.223 . S
Cd170 O180 2.297 1_455 S
Cd170 O181 2.439 1_455 S
O171 Cd170 2.240 . S
O171 C176 1.279 . S
O172 Cd169 2.297 . S
O172 C174 1.247 . S
O173 Cd169 2.439 . S
O173 C174 1.208 . S
C174 O172 1.247 . S
C174 O173 1.208 . S
C175 O180 1.247 . S
C175 O181 1.208 . S
C176 O168 1.315 . S
C176 O171 1.279 . S
C177 O178 1.315 . S
C177 O179 1.279 . S
O178 Cd170 2.223 . S
O178 C177 1.315 . S
O179 Cd169 2.240 . S
O179 C177 1.279 . S
O180 Cd170 2.297 1_655 S
O180 C175 1.247 . S
O181 Cd170 2.439 1_655 S
O181 C175 1.208 . S
O182 Cd183 2.223 1_455 S
O182 C190 1.315 . S
Cd183 O182 2.223 1_655 S
Cd183 O186 2.297 . S
Cd183 O187 2.439 . S
Cd183 O193 2.240 1_655 S
Cd184 O185 2.240 1_455 S
Cd184 O192 2.223 . S
Cd184 O194 2.297 . S
Cd184 O195 2.439 1_455 S
O185 Cd184 2.240 1_655 S
O185 C190 1.279 1_655 S
O186 Cd183 2.297 . S
O186 C188 1.247 . S
O187 Cd183 2.439 . S
O187 C188 1.208 . S
C188 O186 1.247 . S
C188 O187 1.208 . S
C189 O194 1.247 . S
C189 O195 1.208 1_455 S
C190 O182 1.315 . S
C190 O185 1.279 1_455 S
C191 O192 1.315 . S
C191 O193 1.279 . S
O192 Cd184 2.223 . S
O192 C191 1.315 . S
O193 Cd183 2.240 1_455 S
O193 C191 1.279 . S
O194 Cd184 2.297 . S
O194 C189 1.247 . S
O195 Cd184 2.439 1_655 S
O195 C189 1.208 1_655 S
O196 Cd197 2.223 . S
O196 C204 1.315 . S
Cd197 O196 2.223 . S
Cd197 O200 2.297 . S
Cd197 O201 2.439 . S
Cd197 O207 2.240 . S
Cd198 O199 2.240 . S
Cd198 O206 2.223 . S
Cd198 O208 2.297 . S
Cd198 O209 2.439 . S
O199 Cd198 2.240 . S
O199 C204 1.279 . S
O200 Cd197 2.297 . S
O200 C202 1.247 . S
O201 Cd197 2.439 . S
O201 C202 1.208 . S
C202 O200 1.247 . S
C202 O201 1.208 . S
C203 O208 1.247 . S
C203 O209 1.208 . S
C204 O196 1.315 . S
C204 O199 1.279 . S
C205 O206 1.315 . S
C205 O207 1.279 . S
O206 Cd198 2.223 . S
O206 C205 1.315 . S
O207 Cd197 2.240 . S
O207 C205 1.279 . S
O208 Cd198 2.297 . S
O208 C203 1.247 . S
O209 Cd198 2.439 . S
O209 C203 1.208 . S
O210 Cd211 2.223 . S
O210 C218 1.315 . S
Cd211 O210 2.223 . S
Cd211 O214 2.297 . S
Cd211 O215 2.439 . S
Cd211 O221 2.240 . S
Cd212 O213 2.240 . S
Cd212 O220 2.223 . S
Cd212 O222 2.297 . S
Cd212 O223 2.439 . S
O213 Cd212 2.240 . S
O213 C218 1.279 . S
O214 Cd211 2.297 . S
O214 C216 1.247 . S
O215 Cd211 2.439 . S
O215 C216 1.208 . S
C216 O214 1.247 . S
C216 O215 1.208 . S
C217 O222 1.247 . S
C217 O223 1.208 . S
C218 O210 1.315 . S
C218 O213 1.279 . S
C219 O220 1.315 . S
C219 O221 1.279 . S
O220 Cd212 2.223 . S
O220 C219 1.315 . S
O221 Cd211 2.240 . S
O221 C219 1.279 . S
O222 Cd212 2.297 . S
O222 C217 1.247 . S
O223 Cd212 2.439 . S
O223 C217 1.208 . S
O224 Cd225 2.223 . S
O224 C232 1.315 . S
Cd225 O224 2.223 . S
Cd225 O228 2.297 . S
Cd225 O229 2.439 . S
Cd225 O235 2.240 . S
Cd226 O227 2.240 . S
Cd226 O234 2.223 . S
Cd226 O236 2.297 . S
Cd226 O237 2.439 . S
O227 Cd226 2.240 . S
O227 C232 1.279 . S
O228 Cd225 2.297 . S
O228 C230 1.247 . S
O229 Cd225 2.439 . S
O229 C230 1.208 . S
C230 O228 1.247 . S
C230 O229 1.208 . S
C231 O236 1.247 . S
C231 O237 1.208 . S
C232 O224 1.315 . S
C232 O227 1.279 . S
C233 O234 1.315 . S
C233 O235 1.279 . S
O234 Cd226 2.223 . S
O234 C233 1.315 . S
O235 Cd225 2.240 . S
O235 C233 1.279 . S
O236 Cd226 2.297 . S
O236 C231 1.247 . S
O237 Cd226 2.439 . S
O237 C231 1.208 . S
O238 Cd239 2.223 . S
O238 C246 1.315 . S
Cd239 O238 2.223 . S
Cd239 O242 2.297 . S
Cd239 O243 2.439 . S
Cd239 O249 2.240 . S
Cd240 O241 2.240 . S
Cd240 O248 2.223 . S
Cd240 O250 2.297 . S
Cd240 O251 2.439 . S
O241 Cd240 2.240 . S
O241 C246 1.279 . S
O242 Cd239 2.297 . S
O242 C244 1.247 . S
O243 Cd239 2.439 . S
O243 C244 1.208 . S
C244 O242 1.247 . S
C244 O243 1.208 . S
C245 O250 1.247 . S
C245 O251 1.208 . S
C246 O238 1.315 . S
C246 O241 1.279 . S
C247 O248 1.315 . S
C247 O249 1.279 . S
O248 Cd240 2.223 . S
O248 C247 1.315 . S
O249 Cd239 2.240 . S
O249 C247 1.279 . S
O250 Cd240 2.297 . S
O250 C245 1.247 . S
O251 Cd240 2.439 . S
O251 C245 1.208 . S
O252 Cd253 2.223 1_545 S
O252 C260 1.315 . S
Cd253 O252 2.223 1_565 S
Cd253 O256 2.297 . S
Cd253 O257 2.439 . S
Cd253 O263 2.240 1_565 S
Cd254 O255 2.240 1_545 S
Cd254 O262 2.223 . S
Cd254 O264 2.297 . S
Cd254 O265 2.451 . S
O255 Cd254 2.240 1_565 S
O255 C260 1.279 1_565 S
O256 Cd253 2.297 . S
O256 C258 1.247 . S
O257 Cd253 2.439 . S
O257 C258 1.208 . S
C258 O256 1.247 . S
C258 O257 1.208 . S
C259 O264 1.247 . S
C259 O265 1.227 . S
C260 O252 1.315 . S
C260 O255 1.279 1_545 S
C261 O262 1.315 . S
C261 O263 1.279 . S
O262 Cd254 2.223 . S
O262 C261 1.315 . S
O263 Cd253 2.240 1_545 S
O263 C261 1.279 . S
O264 Cd254 2.297 . S
O264 C259 1.247 . S
O265 Cd254 2.451 . S
O265 C259 1.227 . S
O266 Cd267 2.223 . S
O266 C274 1.315 . S
Cd267 O266 2.223 . S
Cd267 O270 2.297 . S
Cd267 O271 2.439 . S
Cd267 O277 2.240 . S
Cd268 O269 2.240 . S
Cd268 O276 2.223 . S
Cd268 O278 2.297 1_554 S
Cd268 O279 2.439 1_554 S
O269 Cd268 2.240 . S
O269 C274 1.279 . S
O270 Cd267 2.297 . S
O270 C272 1.247 . S
O271 Cd267 2.439 . S
O271 C272 1.208 . S
C272 O270 1.247 . S
C272 O271 1.208 . S
C273 O278 1.247 . S
C273 O279 1.208 . S
C274 O266 1.315 . S
C274 O269 1.279 . S
C275 O276 1.315 . S
C275 O277 1.279 . S
O276 Cd268 2.223 . S
O276 C275 1.315 . S
O277 Cd267 2.240 . S
O277 C275 1.279 . S
O278 Cd268 2.297 1_556 S
O278 C273 1.247 . S
O279 Cd268 2.439 1_556 S
O279 C273 1.208 . S
O280 Cd281 2.223 . S
O280 C288 1.315 . S
Cd281 O280 2.223 . S
Cd281 O284 2.297 . S
Cd281 O285 2.439 1_554 S
Cd281 O291 2.240 1_554 S
Cd282 O283 2.240 1_556 S
Cd282 O290 2.223 1_556 S
Cd282 O292 2.297 . S
Cd282 O293 2.439 . S
O283 Cd282 2.240 1_554 S
O283 C288 1.279 . S
O284 Cd281 2.297 . S
O284 C286 1.247 . S
O285 Cd281 2.439 1_556 S
O285 C286 1.208 1_556 S
C286 O284 1.247 . S
C286 O285 1.208 1_554 S
C287 O292 1.247 . S
C287 O293 1.208 . S
C288 O280 1.315 . S
C288 O283 1.279 . S
C289 O290 1.315 . S
C289 O291 1.279 1_554 S
O290 Cd282 2.223 1_554 S
O290 C289 1.315 . S
O291 Cd281 2.240 1_556 S
O291 C289 1.279 1_556 S
O292 Cd282 2.297 . S
O292 C287 1.247 . S
O293 Cd282 2.439 . S
O293 C287 1.208 . S
O294 Cd295 2.223 . S
O294 C302 1.315 . S
Cd295 O294 2.223 . S
Cd295 O298 2.297 . S
Cd295 O299 2.439 . S
Cd295 O305 2.240 . S
Cd296 O297 2.240 . S
Cd296 O304 2.223 . S
Cd296 O306 2.297 . S
Cd296 O307 2.439 . S
O297 Cd296 2.240 . S
O297 C302 1.279 . S
O298 Cd295 2.297 . S
O298 C300 1.247 . S
O299 Cd295 2.439 . S
O299 C300 1.208 . S
C300 O298 1.247 . S
C300 O299 1.208 . S
C301 O306 1.247 . S
C301 O307 1.208 . S
C302 O294 1.315 . S
C302 O297 1.279 . S
C303 O304 1.315 . S
C303 O305 1.279 . S
O304 Cd296 2.223 . S
O304 C303 1.315 . S
O305 Cd295 2.240 . S
O305 C303 1.279 . S
O306 Cd296 2.297 . S
O306 C301 1.247 . S
O307 Cd296 2.439 . S
O307 C301 1.208 . S
O308 Cd309 2.223 . S
O308 C316 1.315 . S
Cd309 O308 2.223 . S
Cd309 O312 2.297 . S
Cd309 O313 2.439 . S
Cd309 O319 2.240 . S
Cd310 O311 2.240 . S
Cd310 O318 2.223 . S
Cd310 O320 2.297 . S
Cd310 O321 2.439 . S
O311 Cd310 2.240 . S
O311 C316 1.279 . S
O312 Cd309 2.297 . S
O312 C314 1.247 . S
O313 Cd309 2.439 . S
O313 C314 1.208 . S
C314 O312 1.247 . S
C314 O313 1.208 . S
C315 O320 1.247 . S
C315 O321 1.208 . S
C316 O308 1.315 . S
C316 O311 1.279 . S
C317 O318 1.315 . S
C317 O319 1.279 . S
O318 Cd310 2.223 . S
O318 C317 1.315 . S
O319 Cd309 2.240 . S
O319 C317 1.279 . S
O320 Cd310 2.297 . S
O320 C315 1.247 . S
O321 Cd310 2.439 . S
O321 C315 1.208 . S
O322 Cd323 2.223 . S
O322 C330 1.315 . S
Cd323 O322 2.223 . S
Cd323 O326 2.297 . S
Cd323 O327 2.439 . S
Cd323 O333 2.240 . S
Cd324 O325 2.240 . S
Cd324 O332 2.223 . S
Cd324 O334 2.297 . S
Cd324 O335 2.439 . S
O325 Cd324 2.240 . S
O325 C330 1.279 . S
O326 Cd323 2.297 . S
O326 C328 1.247 . S
O327 Cd323 2.439 . S
O327 C328 1.208 . S
C328 O326 1.247 . S
C328 O327 1.208 . S
C329 O334 1.247 . S
C329 O335 1.208 . S
C330 O322 1.315 . S
C330 O325 1.279 . S
C331 O332 1.315 . S
C331 O333 1.279 . S
O332 Cd324 2.223 . S
O332 C331 1.315 . S
O333 Cd323 2.240 . S
O333 C331 1.279 . S
O334 Cd324 2.297 . S
O334 C329 1.247 . S
O335 Cd324 2.439 . S
O335 C329 1.208 . S
Co336 N341 2.057 1_554 S
Co336 O353 2.021 1_544 S
Co336 O356 2.062 . S
Co336 O360 2.117 . S
Co336 O361 2.020 . S
C337 O357 1.259 . S
C337 O360 1.258 . S
Co338 N347 2.074 . S
Co338 O354 2.117 1_545 S
Co338 O355 2.020 . S
Co338 O357 2.021 . S
Co338 O362 2.062 . S
C339 N341 1.316 . S
C339 N342 1.347 . S
C339 H344 0.931 . S
C340 N341 1.375 . S
C340 C343 1.350 . S
C340 H345 0.930 . S
N341 Co336 2.057 1_556 S
N341 C339 1.316 . S
N341 C340 1.375 . S
N342 C339 1.347 . S
N342 C343 1.373 . S
C343 C340 1.350 . S
C343 N342 1.373 . S
C343 H364 0.931 1_455 S
H344 C339 0.931 . S
H345 C340 0.930 . S
C346 O353 1.259 1_554 S
C346 O354 1.258 . S
N347 Co338 2.074 . S
N347 C348 1.331 . S
N347 C349 1.342 1_545 S
C348 N347 1.331 . S
C348 N350 1.347 1_545 S
C348 H359 0.931 . S
C349 N347 1.342 1_565 S
C349 C351 1.350 . S
C349 H358 0.930 . S
N350 C348 1.347 1_565 S
N350 C351 1.373 . S
C351 C349 1.350 . S
C351 N350 1.373 . S
C351 H365 0.931 . S
C352 O355 1.256 1_655 S
C352 O356 1.255 1_655 S
O353 Co336 2.021 1_566 S
O353 C346 1.259 1_556 S
O354 Co338 2.117 1_565 S
O354 C346 1.258 . S
O355 Co338 2.020 . S
O355 C352 1.256 1_455 S
O356 Co336 2.062 . S
O356 C352 1.255 1_455 S
O357 C337 1.259 . S
O357 Co338 2.021 . S
H358 C349 0.930 . S
H359 C348 0.931 . S
O360 Co336 2.117 . S
O360 C337 1.258 . S
O361 Co336 2.020 . S
O361 C363 1.256 . S
O362 Co338 2.062 . S
O362 C363 1.255 . S
C363 O361 1.256 . S
C363 O362 1.255 . S
H364 C343 0.931 1_655 S
H365 C351 0.931 . S
Co366 N371 2.057 . S
Co366 O383 2.021 . S
Co366 O386 2.062 . S
Co366 O390 2.117 . S
Co366 O391 2.020 . S
C367 O387 1.259 . S
C367 O390 1.258 . S
Co368 N377 2.057 . S
Co368 O384 2.117 . S
Co368 O385 2.020 . S
Co368 O387 2.021 . S
Co368 O392 2.062 . S
C369 N371 1.316 . S
C369 N372 1.347 . S
C369 H374 0.931 . S
C370 N371 1.375 . S
C370 C373 1.350 . S
C370 H375 0.930 . S
N371 Co366 2.057 . S
N371 C369 1.316 . S
N371 C370 1.375 . S
N372 C369 1.347 . S
N372 C373 1.373 . S
C373 C370 1.350 . S
C373 N372 1.373 . S
C373 H394 0.931 . S
H374 C369 0.931 . S
H375 C370 0.930 . S
C376 O383 1.259 . S
C376 O384 1.258 . S
N377 Co368 2.057 . S
N377 C378 1.316 . S
N377 C379 1.375 . S
C378 N377 1.316 . S
C378 N380 1.347 . S
C378 H389 0.931 . S
C379 N377 1.375 . S
C379 C381 1.350 . S
C379 H388 0.930 . S
N380 C378 1.347 . S
N380 C381 1.373 . S
C381 C379 1.350 . S
C381 N380 1.373 . S
C381 H395 0.931 . S
C382 O385 1.256 . S
C382 O386 1.255 . S
O383 Co366 2.021 . S
O383 C376 1.259 . S
O384 Co368 2.117 . S
O384 C376 1.258 . S
O385 Co368 2.020 . S
O385 C382 1.256 . S
O386 Co366 2.062 . S
O386 C382 1.255 . S
O387 C367 1.259 . S
O387 Co368 2.021 . S
H388 C379 0.930 . S
H389 C378 0.931 . S
O390 Co366 2.117 . S
O390 C367 1.258 . S
O391 Co366 2.020 . S
O391 C393 1.256 . S
O392 Co368 2.062 . S
O392 C393 1.255 . S
C393 O391 1.256 . S
C393 O392 1.255 . S
H394 C373 0.931 . S
H395 C381 0.931 . S
Co396 N401 2.057 . S
Co396 O413 2.021 1_545 S
Co396 O416 2.062 . S
Co396 O420 2.117 . S
Co396 O421 2.020 . S
C397 O417 1.259 . S
C397 O420 1.258 . S
Co398 N407 2.057 . S
Co398 O414 2.117 . S
Co398 O415 2.020 . S
Co398 O417 2.021 . S
Co398 O422 2.062 . S
C399 N401 1.316 . S
C399 N402 1.347 . S
C399 H404 0.931 1_545 S
C400 N401 1.375 . S
C400 C403 1.350 . S
C400 H405 0.930 . S
N401 Co396 2.057 . S
N401 C399 1.316 . S
N401 C400 1.375 . S
N402 C399 1.347 . S
N402 C403 1.373 . S
C403 C400 1.350 . S
C403 N402 1.373 . S
C403 H424 0.931 . S
H404 C399 0.931 1_565 S
H405 C400 0.930 . S
C406 O413 1.259 . S
C406 O414 1.258 1_565 S
N407 Co398 2.057 . S
N407 C408 1.316 . S
N407 C409 1.375 . S
C408 N407 1.316 . S
C408 N410 1.347 . S
C408 H419 0.931 . S
C409 N407 1.375 . S
C409 C411 1.350 . S
C409 H418 0.930 . S
N410 C408 1.347 . S
N410 C411 1.373 . S
C411 C409 1.350 . S
C411 N410 1.373 . S
C411 H425 0.931 . S
C412 O415 1.256 . S
C412 O416 1.255 . S
O413 Co396 2.021 1_565 S
O413 C406 1.259 . S
O414 Co398 2.117 . S
O414 C406 1.258 1_545 S
O415 Co398 2.020 . S
O415 C412 1.256 . S
O416 Co396 2.062 . S
O416 C412 1.255 . S
O417 C397 1.259 . S
O417 Co398 2.021 . S
H418 C409 0.930 . S
H419 C408 0.931 . S
O420 Co396 2.117 . S
O420 C397 1.258 . S
O421 Co396 2.020 . S
O421 C423 1.256 . S
O422 Co398 2.062 . S
O422 C423 1.255 . S
C423 O421 1.256 . S
C423 O422 1.255 . S
H424 C403 0.931 . S
H425 C411 0.931 . S
Co426 N431 2.057 . S
Co426 O443 2.021 . S
Co426 O446 2.062 . S
Co426 O450 2.117 . S
Co426 O451 2.020 . S
C427 O447 1.259 . S
C427 O450 1.258 . S
Co428 N437 2.057 . S
Co428 O444 2.117 . S
Co428 O445 2.020 . S
Co428 O447 2.021 . S
Co428 O452 2.062 . S
C429 N431 1.316 . S
C429 N432 1.347 . S
C429 H434 0.931 . S
C430 N431 1.375 . S
C430 C433 1.350 . S
C430 H435 0.930 . S
N431 Co426 2.057 . S
N431 C429 1.316 . S
N431 C430 1.375 . S
N432 C429 1.347 . S
N432 C433 1.373 . S
C433 C430 1.350 . S
C433 N432 1.373 . S
C433 H454 0.931 . S
H434 C429 0.931 . S
H435 C430 0.930 . S
C436 O443 1.259 . S
C436 O444 1.258 . S
N437 Co428 2.057 . S
N437 C438 1.316 . S
N437 C439 1.375 . S
C438 N437 1.316 . S
C438 N440 1.347 . S
C438 H449 0.931 . S
C439 N437 1.375 . S
C439 C441 1.350 . S
C439 H448 0.930 . S
N440 C438 1.347 . S
N440 C441 1.373 . S
C441 C439 1.350 . S
C441 N440 1.373 . S
C441 H455 0.931 . S
C442 O445 1.256 . S
C442 O446 1.255 . S
O443 Co426 2.021 . S
O443 C436 1.259 . S
O444 Co428 2.117 . S
O444 C436 1.258 . S
O445 Co428 2.020 . S
O445 C442 1.256 . S
O446 Co426 2.062 . S
O446 C442 1.255 . S
O447 C427 1.259 . S
O447 Co428 2.021 . S
H448 C439 0.930 . S
H449 C438 0.931 . S
O450 Co426 2.117 . S
O450 C427 1.258 . S
O451 Co426 2.020 . S
O451 C453 1.256 . S
O452 Co428 2.062 . S
O452 C453 1.255 . S
C453 O451 1.256 . S
C453 O452 1.255 . S
H454 C433 0.931 . S
H455 C441 0.931 . S
Co456 N461 2.057 1_545 S
Co456 O473 2.021 . S
Co456 O476 2.062 1_545 S
Co456 O480 2.117 . S
Co456 O481 2.020 1_455 S
C457 O477 1.259 . S
C457 O480 1.258 . S
Co458 N467 2.057 . S
Co458 O474 2.117 . S
Co458 O475 2.020 . S
Co458 O477 2.021 . S
Co458 O482 2.028 1_455 S
C459 N461 1.316 . S
C459 N462 1.347 . S
C459 H464 0.931 . S
C460 N461 1.375 1_655 S
C460 C463 1.350 . S
C460 H465 0.930 . S
N461 Co456 2.057 1_565 S
N461 C459 1.316 . S
N461 C460 1.375 1_455 S
N462 C459 1.347 . S
N462 C463 1.373 1_455 S
C463 C460 1.350 . S
C463 N462 1.373 1_655 S
C463 H484 0.931 . S
H464 C459 0.931 . S
H465 C460 0.930 . S
C466 O473 1.259 . S
C466 O474 1.258 . S
N467 Co458 2.057 . S
N467 C468 1.316 . S
N467 C469 1.375 . S
C468 N467 1.316 . S
C468 N470 1.347 . S
C468 H479 0.931 . S
C469 N467 1.375 . S
C469 C471 1.350 . S
C469 H478 0.930 . S
N470 C468 1.347 . S
N470 C471 1.373 . S
C471 C469 1.350 . S
C471 N470 1.373 . S
C471 H485 0.931 . S
C472 O475 1.256 . S
C472 O476 1.255 1_545 S
O473 Co456 2.021 . S
O473 C466 1.259 . S
O474 Co458 2.117 . S
O474 C466 1.258 . S
O475 Co458 2.020 . S
O475 C472 1.256 . S
O476 Co456 2.062 1_565 S
O476 C472 1.255 1_565 S
O477 C457 1.259 . S
O477 Co458 2.021 . S
H478 C469 0.930 . S
H479 C468 0.931 . S
O480 Co456 2.117 . S
O480 C457 1.258 . S
O481 Co456 2.020 1_655 S
O481 C483 1.256 . S
O482 Co458 2.028 1_655 S
O482 C483 1.278 . S
C483 O481 1.256 . S
C483 O482 1.278 . S
H484 C463 0.931 . S
H485 C471 0.931 . S
Co486 N491 2.057 . S
Co486 O503 2.021 . S
Co486 O506 2.062 . S
Co486 O510 2.117 . S
Co486 O511 2.020 . S
C487 O507 1.259 . S
C487 O510 1.258 . S
Co488 N497 2.057 . S
Co488 O504 2.117 . S
Co488 O505 2.020 . S
Co488 O507 2.021 . S
Co488 O512 2.062 . S
C489 N491 1.316 . S
C489 N492 1.347 . S
C489 H494 0.931 . S
C490 N491 1.375 . S
C490 C493 1.350 . S
C490 H495 0.930 . S
N491 Co486 2.057 . S
N491 C489 1.316 . S
N491 C490 1.375 . S
N492 C489 1.347 . S
N492 C493 1.373 . S
C493 C490 1.350 . S
C493 N492 1.373 . S
C493 H514 0.931 . S
H494 C489 0.931 . S
H495 C490 0.930 . S
C496 O503 1.259 . S
C496 O504 1.258 . S
N497 Co488 2.057 . S
N497 C498 1.316 . S
N497 C499 1.375 . S
C498 N497 1.316 . S
C498 N500 1.347 . S
C498 H509 0.931 . S
C499 N497 1.375 . S
C499 C501 1.350 . S
C499 H508 0.930 . S
N500 C498 1.347 . S
N500 C501 1.373 . S
C501 C499 1.350 . S
C501 N500 1.373 . S
C501 H515 0.931 . S
C502 O505 1.256 . S
C502 O506 1.255 . S
O503 Co486 2.021 . S
O503 C496 1.259 . S
O504 Co488 2.117 . S
O504 C496 1.258 . S
O505 Co488 2.020 . S
O505 C502 1.256 . S
O506 Co486 2.062 . S
O506 C502 1.255 . S
O507 C487 1.259 . S
O507 Co488 2.021 . S
H508 C499 0.930 . S
H509 C498 0.931 . S
O510 Co486 2.117 . S
O510 C487 1.258 . S
O511 Co486 2.020 . S
O511 C513 1.256 . S
O512 Co488 2.062 . S
O512 C513 1.255 . S
C513 O511 1.256 . S
C513 O512 1.255 . S
H514 C493 0.931 . S
H515 C501 0.931 . S
Co516 N521 2.057 1_554 S
Co516 O533 2.021 . S
Co516 O536 2.062 . S
Co516 O540 2.117 . S
Co516 O541 2.020 1_545 S
C517 O537 1.259 . S
C517 O540 1.258 . S
Co518 N527 2.057 . S
Co518 O534 2.117 . S
Co518 O535 2.020 . S
Co518 O537 2.021 . S
Co518 O542 2.062 . S
C519 N521 1.316 . S
C519 N522 1.347 . S
C519 H524 0.931 . S
C520 N521 1.375 . S
C520 C523 1.350 . S
C520 H525 0.930 . S
N521 Co516 2.057 1_556 S
N521 C519 1.316 . S
N521 C520 1.375 . S
N522 C519 1.347 . S
N522 C523 1.373 . S
C523 C520 1.350 . S
C523 N522 1.373 . S
C523 H544 0.944 . S
H524 C519 0.931 . S
H525 C520 0.930 . S
C526 O533 1.259 . S
C526 O534 1.258 . S
N527 Co518 2.057 . S
N527 C528 1.316 . S
N527 C529 1.375 . S
C528 N527 1.316 . S
C528 N530 1.347 . S
C528 H539 0.931 . S
C529 N527 1.375 . S
C529 C531 1.350 . S
C529 H538 0.930 . S
N530 C528 1.347 . S
N530 C531 1.373 . S
C531 C529 1.350 . S
C531 N530 1.373 . S
C531 H545 0.931 . S
C532 O535 1.256 . S
C532 O536 1.255 . S
O533 Co516 2.021 . S
O533 C526 1.259 . S
O534 Co518 2.117 . S
O534 C526 1.258 . S
O535 Co518 2.020 . S
O535 C532 1.256 . S
O536 Co516 2.062 . S
O536 C532 1.255 . S
O537 C517 1.259 . S
O537 Co518 2.021 . S
H538 C529 0.930 . S
H539 C528 0.931 . S
O540 Co516 2.117 . S
O540 C517 1.258 . S
O541 Co516 2.020 1_565 S
O541 C543 1.256 . S
O542 Co518 2.062 . S
O542 C543 1.255 1_545 S
C543 O541 1.256 . S
C543 O542 1.255 1_565 S
H544 C523 0.944 . S
H545 C531 0.931 . S
Co546 N551 2.057 . S
Co546 O563 2.021 . S
Co546 O566 2.062 . S
Co546 O570 2.117 . S
Co546 O571 2.020 . S
C547 O567 1.259 . S
C547 O570 1.258 . S
Co548 N557 2.057 . S
Co548 O564 2.117 . S
Co548 O565 2.020 . S
Co548 O567 2.021 . S
Co548 O572 2.062 . S
C549 N551 1.316 . S
C549 N552 1.347 . S
C549 H554 0.931 . S
C550 N551 1.375 . S
C550 C553 1.350 . S
C550 H555 0.930 . S
N551 Co546 2.057 . S
N551 C549 1.316 . S
N551 C550 1.375 . S
N552 C549 1.347 . S
N552 C553 1.373 . S
C553 C550 1.350 . S
C553 N552 1.373 . S
C553 H574 0.931 . S
H554 C549 0.931 . S
H555 C550 0.930 . S
C556 O563 1.259 . S
C556 O564 1.258 . S
N557 Co548 2.057 . S
N557 C558 1.316 . S
N557 C559 1.375 . S
C558 N557 1.316 . S
C558 N560 1.347 . S
C558 H569 0.931 . S
C559 N557 1.375 . S
C559 C561 1.350 . S
C559 H568 0.930 . S
N560 C558 1.347 . S
N560 C561 1.373 . S
C561 C559 1.350 . S
C561 N560 1.373 . S
C561 H575 0.931 . S
C562 O565 1.256 . S
C562 O566 1.255 . S
O563 Co546 2.021 . S
O563 C556 1.259 . S
O564 Co548 2.117 . S
O564 C556 1.258 . S
O565 Co548 2.020 . S
O565 C562 1.256 . S
O566 Co546 2.062 . S
O566 C562 1.255 . S
O567 C547 1.259 . S
O567 Co548 2.021 . S
H568 C559 0.930 . S
H569 C558 0.931 . S
O570 Co546 2.117 . S
O570 C547 1.258 . S
O571 Co546 2.020 . S
O571 C573 1.256 . S
O572 Co548 2.062 . S
O572 C573 1.255 . S
C573 O571 1.256 . S
C573 O572 1.255 . S
H574 C553 0.931 . S
H575 C561 0.931 . S
Co576 N581 2.057 . S
Co576 O593 2.018 . S
Co576 O596 2.062 . S
Co576 O600 2.117 . S
Co576 O601 2.020 . S
C577 O597 1.259 . S
C577 O600 1.258 . S
Co578 N587 2.057 . S
Co578 O594 2.117 . S
Co578 O595 2.020 . S
Co578 O597 2.021 . S
Co578 O602 2.062 . S
C579 N581 1.316 . S
C579 N582 1.347 . S
C579 H584 0.931 1_554 S
C580 N581 1.375 . S
C580 C583 1.350 . S
C580 H585 0.930 . S
N581 Co576 2.057 . S
N581 C579 1.316 . S
N581 C580 1.375 . S
N582 C579 1.347 . S
N582 C583 1.373 . S
C583 C580 1.350 . S
C583 N582 1.373 . S
C583 H604 0.931 . S
H584 C579 0.931 1_556 S
H585 C580 0.930 . S
C586 O593 1.259 1_556 S
C586 O594 1.252 1_556 S
N587 Co578 2.057 . S
N587 C588 1.316 . S
N587 C589 1.375 . S
C588 N587 1.316 . S
C588 N590 1.347 . S
C588 H599 0.931 . S
C589 N587 1.375 . S
C589 C591 1.350 . S
C589 H598 0.930 . S
N590 C588 1.347 . S
N590 C591 1.373 . S
C591 C589 1.350 . S
C591 N590 1.373 . S
C591 H605 0.931 . S
C592 O595 1.256 . S
C592 O596 1.255 . S
O593 Co576 2.018 . S
O593 C586 1.259 1_554 S
O594 Co578 2.117 . S
O594 C586 1.252 1_554 S
O595 Co578 2.020 . S
O595 C592 1.256 . S
O596 Co576 2.062 . S
O596 C592 1.255 . S
O597 C577 1.259 . S
O597 Co578 2.021 . S
H598 C589 0.930 . S
H599 C588 0.931 . S
O600 Co576 2.117 . S
O600 C577 1.258 . S
O601 Co576 2.020 . S
O601 C603 1.256 . S
O602 Co578 2.062 . S
O602 C603 1.255 . S
C603 O601 1.256 . S
C603 O602 1.255 . S
H604 C583 0.931 . S
H605 C591 0.931 . S
Co606 N611 2.057 . S
Co606 O623 2.021 . S
Co606 O626 2.062 . S
Co606 O630 2.117 . S
Co606 O631 2.020 . S
C607 O627 1.259 . S
C607 O630 1.258 . S
Co608 N617 2.057 . S
Co608 O624 2.117 . S
Co608 O625 2.020 . S
Co608 O627 2.021 . S
Co608 O632 2.062 . S
C609 N611 1.316 . S
C609 N612 1.347 . S
C609 H614 0.931 . S
C610 N611 1.375 . S
C610 C613 1.350 . S
C610 H615 0.930 . S
N611 Co606 2.057 . S
N611 C609 1.316 . S
N611 C610 1.375 . S
N612 C609 1.347 . S
N612 C613 1.373 . S
C613 C610 1.350 . S
C613 N612 1.373 . S
C613 H634 0.931 . S
H614 C609 0.931 . S
H615 C610 0.930 . S
C616 O623 1.259 . S
C616 O624 1.258 . S
N617 Co608 2.057 . S
N617 C618 1.316 . S
N617 C619 1.375 . S
C618 N617 1.316 . S
C618 N620 1.347 . S
C618 H629 0.931 . S
C619 N617 1.375 . S
C619 C621 1.350 . S
C619 H628 0.930 . S
N620 C618 1.347 . S
N620 C621 1.373 . S
C621 C619 1.350 . S
C621 N620 1.373 . S
C621 H635 0.931 . S
C622 O625 1.256 . S
C622 O626 1.255 . S
O623 Co606 2.021 . S
O623 C616 1.259 . S
O624 Co608 2.117 . S
O624 C616 1.258 . S
O625 Co608 2.020 . S
O625 C622 1.256 . S
O626 Co606 2.062 . S
O626 C622 1.255 . S
O627 C607 1.259 . S
O627 Co608 2.021 . S
H628 C619 0.930 . S
H629 C618 0.931 . S
O630 Co606 2.117 . S
O630 C607 1.258 . S
O631 Co606 2.020 . S
O631 C633 1.256 . S
O632 Co608 2.062 . S
O632 C633 1.255 . S
C633 O631 1.256 . S
C633 O632 1.255 . S
H634 C613 0.931 . S
H635 C621 0.931 . S
Co636 N641 2.057 . S
Co636 O653 2.021 1_455 S
Co636 O656 2.062 . S
Co636 O660 2.117 . S
Co636 O661 2.020 . S
C637 O657 1.259 . S
C637 O660 1.258 . S
Co638 N647 2.057 . S
Co638 O654 2.117 . S
Co638 O655 2.020 . S
Co638 O657 2.021 . S
Co638 O662 2.062 . S
C639 N641 1.316 . S
C639 N642 1.347 . S
C639 H644 0.931 1_455 S
C640 N641 1.375 . S
C640 C643 1.350 . S
C640 H645 0.930 . S
N641 Co636 2.057 . S
N641 C639 1.316 . S
N641 C640 1.375 . S
N642 C639 1.347 . S
N642 C643 1.373 . S
C643 C640 1.350 . S
C643 N642 1.373 . S
C643 H664 0.931 . S
H644 C639 0.931 1_655 S
H645 C640 0.930 . S
C646 O653 1.259 . S
C646 O654 1.258 1_655 S
N647 Co638 2.057 . S
N647 C648 1.316 . S
N647 C649 1.375 . S
C648 N647 1.316 . S
C648 N650 1.347 . S
C648 H659 0.931 . S
C649 N647 1.375 . S
C649 C651 1.350 . S
C649 H658 0.930 . S
N650 C648 1.347 . S
N650 C651 1.373 . S
C651 C649 1.350 . S
C651 N650 1.373 . S
C651 H665 0.931 . S
C652 O655 1.256 . S
C652 O656 1.255 . S
O653 Co636 2.021 1_655 S
O653 C646 1.259 . S
O654 Co638 2.117 . S
O654 C646 1.258 1_455 S
O655 Co638 2.020 . S
O655 C652 1.256 . S
O656 Co636 2.062 . S
O656 C652 1.255 . S
O657 C637 1.259 . S
O657 Co638 2.021 . S
H658 C649 0.930 . S
H659 C648 0.931 . S
O660 Co636 2.117 . S
O660 C637 1.258 . S
O661 Co636 2.020 . S
O661 C663 1.256 . S
O662 Co638 2.062 . S
O662 C663 1.255 . S
C663 O661 1.256 . S
C663 O662 1.255 . S
H664 C643 0.931 . S
H665 C651 0.931 . S
Co666 N671 2.057 . S
Co666 O683 2.021 . S
Co666 O686 2.062 . S
Co666 O690 2.117 . S
Co666 O691 2.020 . S
C667 O687 1.259 . S
C667 O690 1.258 . S
Co668 N677 2.057 . S
Co668 O684 2.117 . S
Co668 O685 2.020 . S
Co668 O687 2.021 . S
Co668 O692 2.062 . S
C669 N671 1.316 . S
C669 N672 1.347 . S
C669 H674 0.931 . S
C670 N671 1.375 . S
C670 C673 1.350 . S
C670 H675 0.930 . S
N671 Co666 2.057 . S
N671 C669 1.316 . S
N671 C670 1.375 . S
N672 C669 1.347 . S
N672 C673 1.373 . S
C673 C670 1.350 . S
C673 N672 1.373 . S
C673 H694 0.931 . S
H674 C669 0.931 . S
H675 C670 0.930 . S
C676 O683 1.259 . S
C676 O684 1.258 . S
N677 Co668 2.057 . S
N677 C678 1.316 . S
N677 C679 1.375 . S
C678 N677 1.316 . S
C678 N680 1.347 . S
C678 H689 0.931 . S
C679 N677 1.375 . S
C679 C681 1.350 . S
C679 H688 0.930 . S
N680 C678 1.347 . S
N680 C681 1.373 . S
C681 C679 1.350 . S
C681 N680 1.373 . S
C681 H695 0.931 . S
C682 O685 1.256 . S
C682 O686 1.255 . S
O683 Co666 2.021 . S
O683 C676 1.259 . S
O684 Co668 2.117 . S
O684 C676 1.258 . S
O685 Co668 2.020 . S
O685 C682 1.256 . S
O686 Co666 2.062 . S
O686 C682 1.255 . S
O687 C667 1.259 . S
O687 Co668 2.021 . S
H688 C679 0.930 . S
H689 C678 0.931 . S
O690 Co666 2.117 . S
O690 C667 1.258 . S
O691 Co666 2.020 . S
O691 C693 1.256 . S
O692 Co668 2.062 . S
O692 C693 1.255 . S
C693 O691 1.256 . S
C693 O692 1.255 . S
H694 C673 0.931 . S
H695 C681 0.931 . S
Co696 N701 2.057 . S
Co696 O713 2.021 . S
Co696 O716 2.062 . S
Co696 O720 2.117 . S
Co696 O721 2.020 . S
C697 O717 1.259 . S
C697 O720 1.258 . S
Co698 N707 2.057 . S
Co698 O714 2.117 . S
Co698 O715 2.020 . S
Co698 O717 2.021 . S
Co698 O722 2.062 . S
C699 N701 1.316 . S
C699 N702 1.347 . S
C699 H704 0.931 . S
C700 N701 1.375 . S
C700 C703 1.350 . S
C700 H705 0.930 . S
N701 Co696 2.057 . S
N701 C699 1.316 . S
N701 C700 1.375 . S
N702 C699 1.347 . S
N702 C703 1.373 . S
C703 C700 1.350 . S
C703 N702 1.373 . S
C703 H724 0.931 . S
H704 C699 0.931 . S
H705 C700 0.930 . S
C706 O713 1.259 . S
C706 O714 1.258 . S
N707 Co698 2.057 . S
N707 C708 1.316 . S
N707 C709 1.375 . S
C708 N707 1.316 . S
C708 N710 1.347 . S
C708 H719 0.931 . S
C709 N707 1.375 . S
C709 C711 1.350 . S
C709 H718 0.930 . S
N710 C708 1.347 . S
N710 C711 1.373 . S
C711 C709 1.350 . S
C711 N710 1.373 . S
C711 H725 0.931 . S
C712 O715 1.256 . S
C712 O716 1.255 . S
O713 Co696 2.021 . S
O713 C706 1.259 . S
O714 Co698 2.117 . S
O714 C706 1.258 . S
O715 Co698 2.020 . S
O715 C712 1.256 . S
O716 Co696 2.062 . S
O716 C712 1.255 . S
O717 C697 1.259 . S
O717 Co698 2.021 . S
H718 C709 0.930 . S
H719 C708 0.931 . S
O720 Co696 2.117 . S
O720 C697 1.258 . S
O721 Co696 2.020 . S
O721 C723 1.256 . S
O722 Co698 2.062 . S
O722 C723 1.255 . S
C723 O721 1.256 . S
C723 O722 1.255 . S
H724 C703 0.931 . S
H725 C711 0.931 . S
Co726 N731 2.057 . S
Co726 O743 2.021 . S
Co726 O746 2.062 . S
Co726 O750 2.117 . S
Co726 O751 2.020 . S
C727 O747 1.259 . S
C727 O750 1.258 . S
Co728 N737 2.057 . S
Co728 O744 2.117 . S
Co728 O745 2.020 . S
Co728 O747 2.021 . S
Co728 O752 2.062 . S
C729 N731 1.316 . S
C729 N732 1.347 . S
C729 H734 0.931 . S
C730 N731 1.375 . S
C730 C733 1.350 . S
C730 H735 0.930 . S
N731 Co726 2.057 . S
N731 C729 1.316 . S
N731 C730 1.375 . S
N732 C729 1.347 . S
N732 C733 1.373 . S
C733 C730 1.350 . S
C733 N732 1.373 . S
C733 H754 0.931 . S
H734 C729 0.931 . S
H735 C730 0.930 . S
C736 O743 1.259 . S
C736 O744 1.258 . S
N737 Co728 2.057 . S
N737 C738 1.316 . S
N737 C739 1.375 . S
C738 N737 1.316 . S
C738 N740 1.347 . S
C738 H749 0.931 . S
C739 N737 1.375 . S
C739 C741 1.350 . S
C739 H748 0.930 . S
N740 C738 1.347 . S
N740 C741 1.373 . S
C741 C739 1.350 . S
C741 N740 1.373 . S
C741 H755 0.931 . S
C742 O745 1.256 . S
C742 O746 1.255 . S
O743 Co726 2.021 . S
O743 C736 1.259 . S
O744 Co728 2.117 . S
O744 C736 1.258 . S
O745 Co728 2.020 . S
O745 C742 1.256 . S
O746 Co726 2.062 . S
O746 C742 1.255 . S
O747 C727 1.259 . S
O747 Co728 2.021 . S
H748 C739 0.930 . S
H749 C738 0.931 . S
O750 Co726 2.117 . S
O750 C727 1.258 . S
O751 Co726 2.020 . S
O751 C753 1.256 . S
O752 Co728 2.062 . S
O752 C753 1.255 . S
C753 O751 1.256 . S
C753 O752 1.255 . S
H754 C733 0.931 . S
H755 C741 0.931 . S
Co756 N761 2.057 . S
Co756 O773 2.021 . S
Co756 O776 2.062 . S
Co756 O780 2.117 . S
Co756 O781 2.020 . S
C757 O777 1.259 . S
C757 O780 1.258 . S
Co758 N767 2.057 . S
Co758 O774 2.117 . S
Co758 O775 2.020 . S
Co758 O777 2.021 . S
Co758 O782 2.062 . S
C759 N761 1.316 . S
C759 N762 1.347 . S
C759 H764 0.931 . S
C760 N761 1.375 . S
C760 C763 1.350 . S
C760 H765 0.930 . S
N761 Co756 2.057 . S
N761 C759 1.316 . S
N761 C760 1.375 . S
N762 C759 1.347 . S
N762 C763 1.373 . S
C763 C760 1.350 . S
C763 N762 1.373 . S
C763 H784 0.931 . S
H764 C759 0.931 . S
H765 C760 0.930 . S
C766 O773 1.259 . S
C766 O774 1.258 . S
N767 Co758 2.057 . S
N767 C768 1.316 . S
N767 C769 1.375 . S
C768 N767 1.316 . S
C768 N770 1.347 . S
C768 H779 0.931 . S
C769 N767 1.375 . S
C769 C771 1.350 . S
C769 H778 0.930 . S
N770 C768 1.347 . S
N770 C771 1.373 . S
C771 C769 1.350 . S
C771 N770 1.373 . S
C771 H785 0.931 . S
C772 O775 1.256 . S
C772 O776 1.255 . S
O773 Co756 2.021 . S
O773 C766 1.259 . S
O774 Co758 2.117 . S
O774 C766 1.258 . S
O775 Co758 2.020 . S
O775 C772 1.256 . S
O776 Co756 2.062 . S
O776 C772 1.255 . S
O777 C757 1.259 . S
O777 Co758 2.021 . S
H778 C769 0.930 . S
H779 C768 0.931 . S
O780 Co756 2.117 . S
O780 C757 1.258 . S
O781 Co756 2.020 . S
O781 C783 1.256 . S
O782 Co758 2.062 . S
O782 C783 1.255 . S
C783 O781 1.256 . S
C783 O782 1.255 . S
H784 C763 0.931 . S
H785 C771 0.931 . S
Co786 N791 2.057 1_455 S
Co786 O803 2.021 . S
Co786 O806 2.062 . S
Co786 O810 2.117 . S
Co786 O811 1.988 1_554 S
C787 O807 1.259 . S
C787 O810 1.258 . S
Co788 N797 2.057 . S
Co788 O804 2.117 . S
Co788 O805 2.020 . S
Co788 O807 2.021 . S
Co788 O812 2.062 . S
C789 N791 1.316 . S
C789 N792 1.347 . S
C789 H794 0.931 . S
C790 N791 1.375 . S
C790 C793 1.350 . S
C790 H795 0.930 . S
N791 Co786 2.057 1_655 S
N791 C789 1.316 . S
N791 C790 1.375 . S
N792 C789 1.347 . S
N792 C793 1.373 . S
C793 C790 1.350 . S
C793 N792 1.373 . S
C793 H814 0.931 . S
H794 C789 0.931 . S
H795 C790 0.930 . S
C796 O803 1.259 . S
C796 O804 1.258 . S
N797 Co788 2.057 . S
N797 C798 1.316 . S
N797 C799 1.375 . S
C798 N797 1.316 . S
C798 N800 1.347 . S
C798 H809 0.931 . S
C799 N797 1.375 . S
C799 C801 1.350 . S
C799 H808 0.930 . S
N800 C798 1.347 . S
N800 C801 1.373 . S
C801 C799 1.350 . S
C801 N800 1.373 . S
C801 H815 0.931 . S
C802 O805 1.256 . S
C802 O806 1.255 . S
O803 Co786 2.021 . S
O803 C796 1.259 . S
O804 Co788 2.117 . S
O804 C796 1.258 . S
O805 Co788 2.020 . S
O805 C802 1.256 . S
O806 Co786 2.062 . S
O806 C802 1.255 . S
O807 C787 1.259 . S
O807 Co788 2.021 . S
H808 C799 0.930 . S
H809 C798 0.931 . S
O810 Co786 2.117 . S
O810 C787 1.258 . S
O811 Co786 1.988 1_556 S
O811 C813 1.263 . S
O812 Co788 2.062 . S
O812 C813 1.255 1_554 S
C813 O811 1.263 . S
C813 O812 1.255 1_556 S
H814 C793 0.931 . S
H815 C801 0.931 . S
H816 C828 0.930 . S
H817 C830 0.930 . S
H818 C831 0.930 . S
H819 C835 0.959 . S
H820 C835 0.959 . S
H821 C835 0.961 . S
H822 C836 0.960 . S
H823 C836 0.961 . S
H824 C836 0.959 . S
H825 C839 0.929 . S
H826 C840 0.931 . S
H827 C842 0.930 . S
C828 H816 0.930 . S
C828 C829 1.399 . S
C828 C833 1.399 . S
C829 C828 1.399 . S
C829 C830 1.376 . S
C830 H817 0.930 . S
C830 C829 1.376 . S
C830 C831 1.388 . S
C831 H818 0.930 . S
C831 C830 1.388 . S
C831 C832 1.390 . S
C832 C831 1.390 . S
C832 C833 1.394 . S
C832 C838 1.465 . S
C833 C828 1.399 . S
C833 C832 1.394 . S
C833 C834 1.516 . S
C834 C833 1.516 . S
C834 C835 1.502 1_455 S
C834 C836 1.561 . S
C834 C837 1.526 . S
C835 H819 0.959 . S
C835 H820 0.959 . S
C835 H821 0.961 . S
C835 C834 1.502 1_655 S
C836 H822 0.960 . S
C836 H823 0.961 . S
C836 H824 0.959 . S
C836 C834 1.561 . S
C837 C834 1.526 . S
C837 C838 1.396 . S
C837 C842 1.390 . S
C838 C832 1.465 . S
C838 C837 1.396 . S
C838 C839 1.399 . S
C839 H825 0.929 . S
C839 C838 1.399 . S
C839 C840 1.385 . S
C840 H826 0.931 . S
C840 C839 1.385 . S
C840 C841 1.389 . S
C841 C840 1.389 . S
C841 C842 1.387 . S
C842 H827 0.930 . S
C842 C837 1.390 . S
C842 C841 1.387 . S
H843 C855 0.930 . S
H844 C857 0.930 . S
H845 C858 0.930 . S
H846 C862 0.959 . S
H847 C862 0.959 . S
H848 C862 0.961 . S
H849 C863 0.960 . S
H850 C863 0.961 . S
H851 C863 0.959 . S
H852 C866 0.929 . S
H853 C867 0.931 . S
H854 C869 0.930 . S
C855 H843 0.930 . S
C855 C856 1.399 . S
C855 C860 1.399 . S
C856 C855 1.399 . S
C856 C857 1.376 . S
C857 H844 0.930 . S
C857 C856 1.376 . S
C857 C858 1.388 . S
C858 H845 0.930 . S
C858 C857 1.388 . S
C858 C859 1.390 . S
C859 C858 1.390 . S
C859 C860 1.394 . S
C859 C865 1.465 . S
C860 C855 1.399 . S
C860 C859 1.394 . S
C860 C861 1.516 . S
C861 C860 1.516 . S
C861 C862 1.502 . S
C861 C863 1.561 . S
C861 C864 1.526 . S
C862 H846 0.959 . S
C862 H847 0.959 . S
C862 H848 0.961 . S
C862 C861 1.502 . S
C863 H849 0.960 . S
C863 H850 0.961 . S
C863 H851 0.959 . S
C863 C861 1.561 . S
C864 C861 1.526 . S
C864 C865 1.396 . S
C864 C869 1.390 . S
C865 C859 1.465 . S
C865 C864 1.396 . S
C865 C866 1.399 . S
C866 H852 0.929 . S
C866 C865 1.399 . S
C866 C867 1.385 . S
C867 H853 0.931 . S
C867 C866 1.385 . S
C867 C868 1.389 . S
C868 C867 1.389 . S
C868 C869 1.387 . S
C869 H854 0.930 . S
C869 C864 1.390 . S
C869 C868 1.387 . S
H870 C882 0.930 . S
H871 C884 0.930 . S
H872 C885 0.930 . S
H873 C889 0.959 . S
H874 C889 0.959 . S
H875 C889 0.961 . S
H876 C890 0.960 . S
H877 C890 0.961 . S
H878 C890 0.959 . S
H879 C893 0.929 . S
H880 C894 0.931 . S
H881 C896 0.930 . S
C882 H870 0.930 . S
C882 C883 1.399 . S
C882 C887 1.399 . S
C883 C882 1.399 . S
C883 C884 1.376 . S
C884 H871 0.930 . S
C884 C883 1.376 . S
C884 C885 1.388 . S
C885 H872 0.930 . S
C885 C884 1.388 . S
C885 C886 1.390 . S
C886 C885 1.390 . S
C886 C887 1.394 . S
C886 C892 1.465 . S
C887 C882 1.399 . S
C887 C886 1.394 . S
C887 C888 1.516 . S
C888 C887 1.516 . S
C888 C889 1.502 . S
C888 C890 1.561 . S
C888 C891 1.526 . S
C889 H873 0.959 . S
C889 H874 0.959 . S
C889 H875 0.961 . S
C889 C888 1.502 . S
C890 H876 0.960 . S
C890 H877 0.961 . S
C890 H878 0.959 . S
C890 C888 1.561 . S
C891 C888 1.526 . S
C891 C892 1.396 . S
C891 C896 1.390 . S
C892 C886 1.465 . S
C892 C891 1.396 . S
C892 C893 1.399 . S
C893 H879 0.929 . S
C893 C892 1.399 . S
C893 C894 1.385 . S
C894 H880 0.931 . S
C894 C893 1.385 . S
C894 C895 1.389 . S
C895 C894 1.389 . S
C895 C896 1.387 . S
C896 H881 0.930 . S
C896 C891 1.390 . S
C896 C895 1.387 . S
H897 C909 0.930 . S
H898 C911 0.930 . S
H899 C912 0.930 . S
H900 C916 0.959 . S
H901 C916 0.959 . S
H902 C916 0.961 . S
H903 C917 0.960 . S
H904 C917 0.961 . S
H905 C917 0.959 . S
H906 C920 0.929 . S
H907 C921 0.931 . S
H908 C923 0.930 . S
C909 H897 0.930 . S
C909 C910 1.399 . S
C909 C914 1.399 . S
C910 C909 1.399 . S
C910 C911 1.376 . S
C911 H898 0.930 . S
C911 C910 1.376 . S
C911 C912 1.388 . S
C912 H899 0.930 . S
C912 C911 1.388 . S
C912 C913 1.390 . S
C913 C912 1.390 . S
C913 C914 1.394 . S
C913 C919 1.465 . S
C914 C909 1.399 . S
C914 C913 1.394 . S
C914 C915 1.516 . S
C915 C914 1.516 . S
C915 C916 1.502 . S
C915 C917 1.561 . S
C915 C918 1.526 . S
C916 H900 0.959 . S
C916 H901 0.959 . S
C916 H902 0.961 . S
C916 C915 1.502 . S
C917 H903 0.960 . S
C917 H904 0.961 . S
C917 H905 0.959 . S
C917 C915 1.561 . S
C918 C915 1.526 . S
C918 C919 1.396 . S
C918 C923 1.390 . S
C919 C913 1.465 . S
C919 C918 1.396 . S
C919 C920 1.399 . S
C920 H906 0.929 . S
C920 C919 1.399 . S
C920 C921 1.385 . S
C921 H907 0.931 . S
C921 C920 1.385 . S
C921 C922 1.389 . S
C922 C921 1.389 . S
C922 C923 1.387 . S
C923 H908 0.930 . S
C923 C918 1.390 . S
C923 C922 1.387 . S
H924 C936 0.930 . S
H925 C938 0.930 . S
H926 C939 0.930 . S
H927 C943 0.959 . S
H928 C943 0.959 . S
H929 C943 0.961 . S
H930 C944 0.960 . S
H931 C944 0.961 . S
H932 C944 0.959 . S
H933 C947 0.929 . S
H934 C948 0.931 1_655 S
H935 C950 0.930 . S
C936 H924 0.930 . S
C936 C937 1.399 . S
C936 C941 1.399 . S
C937 C936 1.399 . S
C937 C938 1.376 . S
C938 H925 0.930 . S
C938 C937 1.376 . S
C938 C939 1.388 . S
C939 H926 0.930 . S
C939 C938 1.388 . S
C939 C940 1.390 . S
C940 C939 1.390 . S
C940 C941 1.394 . S
C940 C946 1.465 . S
C941 C936 1.399 . S
C941 C940 1.394 . S
C941 C942 1.516 . S
C942 C941 1.516 . S
C942 C943 1.502 . S
C942 C944 1.561 . S
C942 C945 1.526 . S
C943 H927 0.959 . S
C943 H928 0.959 . S
C943 H929 0.961 . S
C943 C942 1.502 . S
C944 H930 0.960 . S
C944 H931 0.961 . S
C944 H932 0.959 . S
C944 C942 1.561 . S
C945 C942 1.526 . S
C945 C946 1.396 . S
C945 C950 1.390 . S
C946 C940 1.465 . S
C946 C945 1.396 . S
C946 C947 1.399 . S
C947 H933 0.929 . S
C947 C946 1.399 . S
C947 C948 1.385 . S
C948 H934 0.931 1_455 S
C948 C947 1.385 . S
C948 C949 1.389 . S
C949 C948 1.389 . S
C949 C950 1.387 . S
C950 H935 0.930 . S
C950 C945 1.390 . S
C950 C949 1.387 . S
H951 C963 0.930 . S
H952 C965 0.930 . S
H953 C966 0.930 . S
H954 C970 0.959 . S
H955 C970 0.959 . S
H956 C970 0.961 . S
H957 C971 0.960 . S
H958 C971 0.961 . S
H959 C971 0.959 . S
H960 C974 0.929 . S
H961 C975 0.931 . S
H962 C977 0.930 . S
C963 H951 0.930 . S
C963 C964 1.399 . S
C963 C968 1.399 . S
C964 C963 1.399 . S
C964 C965 1.376 . S
C965 H952 0.930 . S
C965 C964 1.376 . S
C965 C966 1.388 . S
C966 H953 0.930 . S
C966 C965 1.388 . S
C966 C967 1.390 . S
C967 C966 1.390 . S
C967 C968 1.394 . S
C967 C973 1.465 . S
C968 C963 1.399 . S
C968 C967 1.394 . S
C968 C969 1.516 . S
C969 C968 1.516 . S
C969 C970 1.502 . S
C969 C971 1.561 . S
C969 C972 1.526 . S
C970 H954 0.959 . S
C970 H955 0.959 . S
C970 H956 0.961 . S
C970 C969 1.502 . S
C971 H957 0.960 . S
C971 H958 0.961 . S
C971 H959 0.959 . S
C971 C969 1.561 . S
C972 C969 1.526 . S
C972 C973 1.396 . S
C972 C977 1.390 . S
C973 C967 1.465 . S
C973 C972 1.396 . S
C973 C974 1.399 . S
C974 H960 0.929 . S
C974 C973 1.399 . S
C974 C975 1.385 . S
C975 H961 0.931 . S
C975 C974 1.385 . S
C975 C976 1.389 . S
C976 C975 1.389 . S
C976 C977 1.387 . S
C977 H962 0.930 . S
C977 C972 1.390 . S
C977 C976 1.387 . S
H978 C990 0.930 . S
H979 C992 0.930 . S
H980 C993 0.930 . S
H981 C997 0.959 . S
H982 C997 0.959 . S
H983 C997 0.961 . S
H984 C998 0.949 1_556 S
H985 C998 0.961 . S
H986 C998 0.959 . S
H987 C1001 0.929 . S
H988 C1002 0.931 . S
H989 C1004 0.930 . S
C990 H978 0.930 . S
C990 C991 1.399 . S
C990 C995 1.399 . S
C991 C990 1.399 . S
C991 C992 1.376 . S
C992 H979 0.930 . S
C992 C991 1.376 . S
C992 C993 1.388 . S
C993 H980 0.930 . S
C993 C992 1.388 . S
C993 C994 1.390 . S
C994 C993 1.390 . S
C994 C995 1.394 . S
C994 C1000 1.465 . S
C995 C990 1.399 . S
C995 C994 1.394 . S
C995 C996 1.516 . S
C996 C995 1.516 . S
C996 C997 1.502 . S
C996 C998 1.561 1_556 S
C996 C999 1.526 . S
C997 H981 0.959 . S
C997 H982 0.959 . S
C997 H983 0.961 . S
C997 C996 1.502 . S
C998 H984 0.949 1_554 S
C998 H985 0.961 . S
C998 H986 0.959 . S
C998 C996 1.561 1_554 S
C999 C996 1.526 . S
C999 C1000 1.396 . S
C999 C1004 1.390 1_556 S
C1000 C994 1.465 . S
C1000 C999 1.396 . S
C1000 C1001 1.399 . S
C1001 H987 0.929 . S
C1001 C1000 1.399 . S
C1001 C1002 1.385 . S
C1002 H988 0.931 . S
C1002 C1001 1.385 . S
C1002 C1003 1.389 1_556 S
C1003 C1002 1.389 1_554 S
C1003 C1004 1.387 . S
C1004 H989 0.930 . S
C1004 C999 1.390 1_554 S
C1004 C1003 1.387 . S
H1005 C1017 0.930 . S
H1006 C1019 0.930 . S
H1007 C1020 0.930 . S
H1008 C1024 0.959 . S
H1009 C1024 0.959 . S
H1010 C1024 0.961 . S
H1011 C1025 0.960 . S
H1012 C1025 0.961 . S
H1013 C1025 0.959 . S
H1014 C1028 0.929 . S
H1015 C1029 0.931 . S
H1016 C1031 0.930 . S
C1017 H1005 0.930 . S
C1017 C1018 1.399 . S
C1017 C1022 1.399 . S
C1018 C1017 1.399 . S
C1018 C1019 1.376 . S
C1019 H1006 0.930 . S
C1019 C1018 1.376 . S
C1019 C1020 1.388 . S
C1020 H1007 0.930 . S
C1020 C1019 1.388 . S
C1020 C1021 1.390 . S
C1021 C1020 1.390 . S
C1021 C1022 1.394 . S
C1021 C1027 1.465 . S
C1022 C1017 1.399 . S
C1022 C1021 1.394 . S
C1022 C1023 1.516 . S
C1023 C1022 1.516 . S
C1023 C1024 1.502 . S
C1023 C1025 1.561 . S
C1023 C1026 1.526 . S
C1024 H1008 0.959 . S
C1024 H1009 0.959 . S
C1024 H1010 0.961 . S
C1024 C1023 1.502 . S
C1025 H1011 0.960 . S
C1025 H1012 0.961 . S
C1025 H1013 0.959 . S
C1025 C1023 1.561 . S
C1026 C1023 1.526 . S
C1026 C1027 1.396 . S
C1026 C1031 1.390 . S
C1027 C1021 1.465 . S
C1027 C1026 1.396 . S
C1027 C1028 1.399 . S
C1028 H1014 0.929 . S
C1028 C1027 1.399 . S
C1028 C1029 1.385 . S
C1029 H1015 0.931 . S
C1029 C1028 1.385 . S
C1029 C1030 1.389 . S
C1030 C1029 1.389 . S
C1030 C1031 1.387 . S
C1031 H1016 0.930 . S
C1031 C1026 1.390 . S
C1031 C1030 1.387 . S
H1032 C1044 0.930 . S
H1033 C1046 0.930 . S
H1034 C1047 0.930 . S
H1035 C1051 0.959 . S
H1036 C1051 0.959 . S
H1037 C1051 0.961 . S
H1038 C1052 0.960 . S
H1039 C1052 0.961 . S
H1040 C1052 0.959 . S
H1041 C1055 0.929 . S
H1042 C1056 0.931 . S
H1043 C1058 0.930 . S
C1044 H1032 0.930 . S
C1044 C1045 1.399 1_565 S
C1044 C1049 1.399 . S
C1045 C1044 1.399 1_545 S
C1045 C1046 1.376 . S
C1046 H1033 0.930 . S
C1046 C1045 1.376 . S
C1046 C1047 1.388 . S
C1047 H1034 0.930 . S
C1047 C1046 1.388 . S
C1047 C1048 1.390 . S
C1048 C1047 1.390 . S
C1048 C1049 1.394 1_545 S
C1048 C1054 1.465 . S
C1049 C1044 1.399 . S
C1049 C1048 1.394 1_565 S
C1049 C1050 1.516 . S
C1050 C1049 1.516 . S
C1050 C1051 1.502 . S
C1050 C1052 1.561 . S
C1050 C1053 1.526 . S
C1051 H1035 0.959 . S
C1051 H1036 0.959 . S
C1051 H1037 0.961 . S
C1051 C1050 1.502 . S
C1052 H1038 0.960 . S
C1052 H1039 0.961 . S
C1052 H1040 0.959 . S
C1052 C1050 1.561 . S
C1053 C1050 1.526 . S
C1053 C1054 1.396 1_565 S
C1053 C1058 1.390 . S
C1054 C1048 1.465 . S
C1054 C1053 1.396 1_545 S
C1054 C1055 1.399 . S
C1055 H1041 0.929 . S
C1055 C1054 1.399 . S
C1055 C1056 1.385 . S
C1056 H1042 0.931 . S
C1056 C1055 1.385 . S
C1056 C1057 1.412 . S
C1057 C1056 1.412 . S
C1057 C1058 1.369 1_545 S
C1058 H1043 0.930 . S
C1058 C1053 1.390 . S
C1058 C1057 1.369 1_565 S
H1059 C1071 0.930 . S
H1060 C1073 0.930 . S
H1061 C1074 0.930 . S
H1062 C1078 0.959 . S
H1063 C1078 0.959 . S
H1064 C1078 0.961 . S
H1065 C1079 0.960 . S
H1066 C1079 0.961 . S
H1067 C1079 0.959 . S
H1068 C1082 0.929 . S
H1069 C1083 0.931 . S
H1070 C1085 0.930 . S
C1071 H1059 0.930 . S
C1071 C1072 1.399 . S
C1071 C1076 1.399 . S
C1072 C1071 1.399 . S
C1072 C1073 1.376 . S
C1073 H1060 0.930 . S
C1073 C1072 1.376 . S
C1073 C1074 1.388 . S
C1074 H1061 0.930 . S
C1074 C1073 1.388 . S
C1074 C1075 1.390 . S
C1075 C1074 1.390 . S
C1075 C1076 1.394 . S
C1075 C1081 1.465 . S
C1076 C1071 1.399 . S
C1076 C1075 1.394 . S
C1076 C1077 1.516 . S
C1077 C1076 1.516 . S
C1077 C1078 1.502 . S
C1077 C1079 1.561 . S
C1077 C1080 1.526 . S
C1078 H1062 0.959 . S
C1078 H1063 0.959 . S
C1078 H1064 0.961 . S
C1078 C1077 1.502 . S
C1079 H1065 0.960 . S
C1079 H1066 0.961 . S
C1079 H1067 0.959 . S
C1079 C1077 1.561 . S
C1080 C1077 1.526 . S
C1080 C1081 1.396 . S
C1080 C1085 1.390 . S
C1081 C1075 1.465 . S
C1081 C1080 1.396 . S
C1081 C1082 1.399 . S
C1082 H1068 0.929 . S
C1082 C1081 1.399 . S
C1082 C1083 1.385 . S
C1083 H1069 0.931 . S
C1083 C1082 1.385 . S
C1083 C1084 1.389 . S
C1084 C1083 1.389 . S
C1084 C1085 1.387 . S
C1085 H1070 0.930 . S
C1085 C1080 1.390 . S
C1085 C1084 1.387 . S
H1086 C1098 0.930 . S
H1087 C1100 0.930 . S
H1088 C1101 0.930 . S
H1089 C1105 0.959 . S
H1090 C1105 0.959 . S
H1091 C1105 0.961 . S
H1092 C1106 0.960 . S
H1093 C1106 0.961 . S
H1094 C1106 0.959 . S
H1095 C1109 0.929 . S
H1096 C1110 0.931 . S
H1097 C1112 0.930 . S
C1098 H1086 0.930 . S
C1098 C1099 1.399 . S
C1098 C1103 1.399 . S
C1099 C1098 1.399 . S
C1099 C1100 1.376 . S
C1100 H1087 0.930 . S
C1100 C1099 1.376 . S
C1100 C1101 1.388 . S
C1101 H1088 0.930 . S
C1101 C1100 1.388 . S
C1101 C1102 1.390 . S
C1102 C1101 1.390 . S
C1102 C1103 1.394 . S
C1102 C1108 1.465 . S
C1103 C1098 1.399 . S
C1103 C1102 1.394 . S
C1103 C1104 1.516 . S
C1104 C1103 1.516 . S
C1104 C1105 1.502 . S
C1104 C1106 1.561 . S
C1104 C1107 1.526 . S
C1105 H1089 0.959 . S
C1105 H1090 0.959 . S
C1105 H1091 0.961 . S
C1105 C1104 1.502 . S
C1106 H1092 0.960 . S
C1106 H1093 0.961 . S
C1106 H1094 0.959 . S
C1106 C1104 1.561 . S
C1107 C1104 1.526 . S
C1107 C1108 1.396 . S
C1107 C1112 1.390 . S
C1108 C1102 1.465 . S
C1108 C1107 1.396 . S
C1108 C1109 1.399 . S
C1109 H1095 0.929 . S
C1109 C1108 1.399 . S
C1109 C1110 1.385 . S
C1110 H1096 0.931 . S
C1110 C1109 1.385 . S
C1110 C1111 1.389 . S
C1111 C1110 1.389 . S
C1111 C1112 1.387 . S
C1112 H1097 0.930 . S
C1112 C1107 1.390 . S
C1112 C1111 1.387 . S
H1113 C1125 0.930 . S
H1114 C1127 0.930 . S
H1115 C1128 0.930 . S
H1116 C1132 0.959 . S
H1117 C1132 0.959 . S
H1118 C1132 0.961 . S
H1119 C1133 0.960 . S
H1120 C1133 0.961 . S
H1121 C1133 0.959 . S
H1122 C1136 0.929 . S
H1123 C1137 0.931 . S
H1124 C1139 0.930 . S
C1125 H1113 0.930 . S
C1125 C1126 1.399 . S
C1125 C1130 1.399 . S
C1126 C1125 1.399 . S
C1126 C1127 1.376 . S
C1127 H1114 0.930 . S
C1127 C1126 1.376 . S
C1127 C1128 1.388 . S
C1128 H1115 0.930 . S
C1128 C1127 1.388 . S
C1128 C1129 1.390 . S
C1129 C1128 1.390 . S
C1129 C1130 1.394 . S
C1129 C1135 1.465 . S
C1130 C1125 1.399 . S
C1130 C1129 1.394 . S
C1130 C1131 1.516 . S
C1131 C1130 1.516 . S
C1131 C1132 1.502 . S
C1131 C1133 1.561 . S
C1131 C1134 1.526 . S
C1132 H1116 0.959 . S
C1132 H1117 0.959 . S
C1132 H1118 0.961 . S
C1132 C1131 1.502 . S
C1133 H1119 0.960 . S
C1133 H1120 0.961 . S
C1133 H1121 0.959 . S
C1133 C1131 1.561 . S
C1134 C1131 1.526 . S
C1134 C1135 1.396 . S
C1134 C1139 1.390 . S
C1135 C1129 1.465 . S
C1135 C1134 1.396 . S
C1135 C1136 1.399 . S
C1136 H1122 0.929 . S
C1136 C1135 1.399 . S
C1136 C1137 1.385 . S
C1137 H1123 0.931 . S
C1137 C1136 1.385 . S
C1137 C1138 1.389 . S
C1138 C1137 1.389 . S
C1138 C1139 1.387 . S
C1139 H1124 0.930 . S
C1139 C1134 1.390 . S
C1139 C1138 1.387 . S
H1140 C1152 0.930 . S
H1141 C1154 0.944 . S
H1142 C1155 0.930 . S
H1143 C1159 0.959 . S
H1144 C1159 0.959 . S
H1145 C1159 0.961 . S
H1146 C1160 0.960 . S
H1147 C1160 0.961 . S
H1148 C1160 0.959 1_565 S
H1149 C1163 0.929 . S
H1150 C1164 0.931 . S
H1151 C1166 0.930 . S
C1152 H1140 0.930 . S
C1152 C1153 1.399 . S
C1152 C1157 1.399 . S
C1153 C1152 1.399 . S
C1153 C1154 1.376 . S
C1154 H1141 0.944 . S
C1154 C1153 1.376 . S
C1154 C1155 1.388 . S
C1155 H1142 0.930 . S
C1155 C1154 1.388 . S
C1155 C1156 1.390 . S
C1156 C1155 1.390 . S
C1156 C1157 1.394 . S
C1156 C1162 1.465 . S
C1157 C1152 1.399 . S
C1157 C1156 1.394 . S
C1157 C1158 1.516 . S
C1158 C1157 1.516 . S
C1158 C1159 1.502 . S
C1158 C1160 1.561 . S
C1158 C1161 1.526 . S
C1159 H1143 0.959 . S
C1159 H1144 0.959 . S
C1159 H1145 0.961 . S
C1159 C1158 1.502 . S
C1160 H1146 0.960 . S
C1160 H1147 0.961 . S
C1160 H1148 0.959 1_545 S
C1160 C1158 1.561 . S
C1161 C1158 1.526 . S
C1161 C1162 1.396 . S
C1161 C1166 1.390 . S
C1162 C1156 1.465 . S
C1162 C1161 1.396 . S
C1162 C1163 1.399 . S
C1163 H1149 0.929 . S
C1163 C1162 1.399 . S
C1163 C1164 1.385 . S
C1164 H1150 0.931 . S
C1164 C1163 1.385 . S
C1164 C1165 1.389 . S
C1165 C1164 1.389 . S
C1165 C1166 1.387 . S
C1166 H1151 0.930 . S
C1166 C1161 1.390 . S
C1166 C1165 1.387 . S
H1167 C1179 0.930 . S
H1168 C1181 0.930 . S
H1169 C1182 0.930 . S
H1170 C1186 0.959 . S
H1171 C1186 0.959 . S
H1172 C1186 0.961 . S
H1173 C1187 0.960 . S
H1174 C1187 0.961 . S
H1175 C1187 0.959 . S
H1176 C1190 0.929 . S
H1177 C1191 0.931 . S
H1178 C1193 0.930 . S
C1179 H1167 0.930 . S
C1179 C1180 1.399 . S
C1179 C1184 1.399 . S
C1180 C1179 1.399 . S
C1180 C1181 1.376 . S
C1181 H1168 0.930 . S
C1181 C1180 1.376 . S
C1181 C1182 1.388 . S
C1182 H1169 0.930 . S
C1182 C1181 1.388 . S
C1182 C1183 1.390 . S
C1183 C1182 1.390 . S
C1183 C1184 1.394 . S
C1183 C1189 1.465 . S
C1184 C1179 1.399 . S
C1184 C1183 1.394 . S
C1184 C1185 1.516 . S
C1185 C1184 1.516 . S
C1185 C1186 1.502 . S
C1185 C1187 1.561 . S
C1185 C1188 1.526 . S
C1186 H1170 0.959 . S
C1186 H1171 0.959 . S
C1186 H1172 0.961 . S
C1186 C1185 1.502 . S
C1187 H1173 0.960 . S
C1187 H1174 0.961 . S
C1187 H1175 0.959 . S
C1187 C1185 1.561 . S
C1188 C1185 1.526 . S
C1188 C1189 1.396 . S
C1188 C1193 1.390 . S
C1189 C1183 1.465 . S
C1189 C1188 1.396 . S
C1189 C1190 1.399 . S
C1190 H1176 0.929 . S
C1190 C1189 1.399 . S
C1190 C1191 1.385 . S
C1191 H1177 0.931 . S
C1191 C1190 1.385 . S
C1191 C1192 1.389 . S
C1192 C1191 1.389 . S
C1192 C1193 1.387 . S
C1193 H1178 0.930 . S
C1193 C1188 1.390 . S
C1193 C1192 1.387 . S
H1194 C1206 0.930 . S
H1195 C1208 0.930 . S
H1196 C1209 0.930 1_565 S
H1197 C1213 0.959 . S
H1198 C1213 0.959 . S
H1199 C1213 0.961 . S
H1200 C1214 0.960 . S
H1201 C1214 0.961 . S
H1202 C1214 0.959 . S
H1203 C1217 0.944 . S
H1204 C1218 0.931 . S
H1205 C1220 0.930 . S
C1206 H1194 0.930 . S
C1206 C1207 1.399 . S
C1206 C1211 1.399 . S
C1207 C1206 1.399 . S
C1207 C1208 1.376 . S
C1208 H1195 0.930 . S
C1208 C1207 1.376 . S
C1208 C1209 1.388 . S
C1209 H1196 0.930 1_545 S
C1209 C1208 1.388 . S
C1209 C1210 1.390 . S
C1210 C1209 1.390 . S
C1210 C1211 1.394 . S
C1210 C1216 1.465 . S
C1211 C1206 1.399 . S
C1211 C1210 1.394 . S
C1211 C1212 1.516 . S
C1212 C1211 1.516 . S
C1212 C1213 1.502 . S
C1212 C1214 1.561 . S
C1212 C1215 1.526 . S
C1213 H1197 0.959 . S
C1213 H1198 0.959 . S
C1213 H1199 0.961 . S
C1213 C1212 1.502 . S
C1214 H1200 0.960 . S
C1214 H1201 0.961 . S
C1214 H1202 0.959 . S
C1214 C1212 1.561 . S
C1215 C1212 1.526 . S
C1215 C1216 1.396 . S
C1215 C1220 1.390 . S
C1216 C1210 1.465 . S
C1216 C1215 1.396 . S
C1216 C1217 1.383 1_545 S
C1217 H1203 0.944 . S
C1217 C1216 1.383 1_565 S
C1217 C1218 1.386 . S
C1218 H1204 0.931 . S
C1218 C1217 1.386 . S
C1218 C1219 1.389 1_565 S
C1219 C1218 1.389 1_545 S
C1219 C1220 1.387 . S
C1220 H1205 0.930 . S
C1220 C1215 1.390 . S
C1220 C1219 1.387 . S
H1221 C1233 0.930 . S
H1222 C1235 0.930 . S
H1223 C1236 0.930 . S
H1224 C1240 0.959 . S
H1225 C1240 0.959 . S
H1226 C1240 0.961 . S
H1227 C1241 0.960 . S
H1228 C1241 0.961 . S
H1229 C1241 0.959 . S
H1230 C1244 0.929 . S
H1231 C1245 0.931 . S
H1232 C1247 0.930 . S
C1233 H1221 0.930 . S
C1233 C1234 1.399 . S
C1233 C1238 1.399 . S
C1234 C1233 1.399 . S
C1234 C1235 1.376 . S
C1235 H1222 0.930 . S
C1235 C1234 1.376 . S
C1235 C1236 1.388 . S
C1236 H1223 0.930 . S
C1236 C1235 1.388 . S
C1236 C1237 1.390 . S
C1237 C1236 1.390 . S
C1237 C1238 1.394 . S
C1237 C1243 1.465 . S
C1238 C1233 1.399 . S
C1238 C1237 1.394 . S
C1238 C1239 1.516 . S
C1239 C1238 1.516 . S
C1239 C1240 1.502 . S
C1239 C1241 1.561 . S
C1239 C1242 1.526 . S
C1240 H1224 0.959 . S
C1240 H1225 0.959 . S
C1240 H1226 0.961 . S
C1240 C1239 1.502 . S
C1241 H1227 0.960 . S
C1241 H1228 0.961 . S
C1241 H1229 0.959 . S
C1241 C1239 1.561 . S
C1242 C1239 1.526 . S
C1242 C1243 1.396 . S
C1242 C1247 1.390 . S
C1243 C1237 1.465 . S
C1243 C1242 1.396 . S
C1243 C1244 1.399 . S
C1244 H1230 0.929 . S
C1244 C1243 1.399 . S
C1244 C1245 1.385 . S
C1245 H1231 0.931 . S
C1245 C1244 1.385 . S
C1245 C1246 1.389 . S
C1246 C1245 1.389 . S
C1246 C1247 1.387 . S
C1247 H1232 0.930 . S
C1247 C1242 1.390 . S
C1247 C1246 1.387 . S
H1248 C1260 0.930 . S
H1249 C1262 0.930 . S
H1250 C1263 0.930 1_556 S
H1251 C1267 0.959 . S
H1252 C1267 0.959 . S
H1253 C1267 0.961 . S
H1254 C1268 0.960 . S
H1255 C1268 0.961 . S
H1256 C1268 0.959 . S
H1257 C1271 0.929 1_556 S
H1258 C1272 0.931 1_556 S
H1259 C1274 0.930 . S
C1260 H1248 0.930 . S
C1260 C1261 1.399 . S
C1260 C1265 1.399 . S
C1261 C1260 1.399 . S
C1261 C1262 1.376 . S
C1262 H1249 0.930 . S
C1262 C1261 1.376 . S
C1262 C1263 1.388 . S
C1263 H1250 0.930 1_554 S
C1263 C1262 1.388 . S
C1263 C1264 1.390 . S
C1264 C1263 1.390 . S
C1264 C1265 1.394 . S
C1264 C1270 1.465 . S
C1265 C1260 1.399 . S
C1265 C1264 1.394 . S
C1265 C1266 1.516 . S
C1266 C1265 1.516 . S
C1266 C1267 1.502 . S
C1266 C1268 1.561 . S
C1266 C1269 1.526 . S
C1267 H1251 0.959 . S
C1267 H1252 0.959 . S
C1267 H1253 0.961 . S
C1267 C1266 1.502 . S
C1268 H1254 0.960 . S
C1268 H1255 0.961 . S
C1268 H1256 0.959 . S
C1268 C1266 1.561 . S
C1269 C1266 1.526 . S
C1269 C1270 1.396 . S
C1269 C1274 1.390 . S
C1270 C1264 1.465 . S
C1270 C1269 1.396 . S
C1270 C1271 1.399 . S
C1271 H1257 0.929 1_554 S
C1271 C1270 1.399 . S
C1271 C1272 1.385 . S
C1272 H1258 0.931 1_554 S
C1272 C1271 1.385 . S
C1272 C1273 1.389 . S
C1273 C1272 1.389 . S
C1273 C1274 1.387 . S
C1274 H1259 0.930 . S
C1274 C1269 1.390 . S
C1274 C1273 1.387 . S
H1275 C1287 0.930 . S
H1276 C1289 0.930 . S
H1277 C1290 0.930 . S
H1278 C1294 0.959 . S
H1279 C1294 0.959 . S
H1280 C1294 0.961 . S
H1281 C1295 0.960 . S
H1282 C1295 0.961 . S
H1283 C1295 0.959 . S
H1284 C1298 0.929 . S
H1285 C1299 0.931 . S
H1286 C1301 0.930 . S
C1287 H1275 0.930 . S
C1287 C1288 1.399 . S
C1287 C1292 1.399 . S
C1288 C1287 1.399 . S
C1288 C1289 1.376 . S
C1289 H1276 0.930 . S
C1289 C1288 1.376 . S
C1289 C1290 1.388 . S
C1290 H1277 0.930 . S
C1290 C1289 1.388 . S
C1290 C1291 1.390 . S
C1291 C1290 1.390 . S
C1291 C1292 1.394 . S
C1291 C1297 1.465 . S
C1292 C1287 1.399 . S
C1292 C1291 1.394 . S
C1292 C1293 1.516 . S
C1293 C1292 1.516 . S
C1293 C1294 1.502 . S
C1293 C1295 1.561 . S
C1293 C1296 1.526 . S
C1294 H1278 0.959 . S
C1294 H1279 0.959 . S
C1294 H1280 0.961 . S
C1294 C1293 1.502 . S
C1295 H1281 0.960 . S
C1295 H1282 0.961 . S
C1295 H1283 0.959 . S
C1295 C1293 1.561 . S
C1296 C1293 1.526 . S
C1296 C1297 1.396 . S
C1296 C1301 1.390 . S
C1297 C1291 1.465 . S
C1297 C1296 1.396 . S
C1297 C1298 1.399 . S
C1298 H1284 0.929 . S
C1298 C1297 1.399 . S
C1298 C1299 1.385 . S
C1299 H1285 0.931 . S
C1299 C1298 1.385 . S
C1299 C1300 1.389 . S
C1300 C1299 1.389 . S
C1300 C1301 1.387 . S
C1301 H1286 0.930 . S
C1301 C1296 1.390 . S
C1301 C1300 1.387 . S
H1302 C1314 0.930 . S
H1303 C1316 0.930 . S
H1304 C1317 0.930 . S
H1305 C1321 0.959 . S
H1306 C1321 0.959 . S
H1307 C1321 0.961 . S
H1308 C1322 0.960 . S
H1309 C1322 0.961 . S
H1310 C1322 0.959 . S
H1311 C1325 0.929 . S
H1312 C1326 0.931 . S
H1313 C1328 0.930 . S
C1314 H1302 0.930 . S
C1314 C1315 1.399 . S
C1314 C1319 1.399 . S
C1315 C1314 1.399 . S
C1315 C1316 1.376 . S
C1316 H1303 0.930 . S
C1316 C1315 1.376 . S
C1316 C1317 1.388 . S
C1317 H1304 0.930 . S
C1317 C1316 1.388 . S
C1317 C1318 1.390 . S
C1318 C1317 1.390 . S
C1318 C1319 1.394 . S
C1318 C1324 1.465 . S
C1319 C1314 1.399 . S
C1319 C1318 1.394 . S
C1319 C1320 1.516 . S
C1320 C1319 1.516 . S
C1320 C1321 1.502 . S
C1320 C1322 1.561 . S
C1320 C1323 1.526 . S
C1321 H1305 0.959 . S
C1321 H1306 0.959 . S
C1321 H1307 0.961 . S
C1321 C1320 1.502 . S
C1322 H1308 0.960 . S
C1322 H1309 0.961 . S
C1322 H1310 0.959 . S
C1322 C1320 1.561 . S
C1323 C1320 1.526 . S
C1323 C1324 1.396 . S
C1323 C1328 1.390 . S
C1324 C1318 1.465 . S
C1324 C1323 1.396 . S
C1324 C1325 1.399 . S
C1325 H1311 0.929 . S
C1325 C1324 1.399 . S
C1325 C1326 1.385 . S
C1326 H1312 0.931 . S
C1326 C1325 1.385 . S
C1326 C1327 1.389 . S
C1327 C1326 1.389 . S
C1327 C1328 1.387 . S
C1328 H1313 0.930 . S
C1328 C1323 1.390 . S
C1328 C1327 1.387 . S
H1329 C1341 0.930 . S
H1330 C1343 0.930 . S
H1331 C1344 0.930 . S
H1332 C1348 0.959 . S
H1333 C1348 0.959 . S
H1334 C1348 0.961 . S
H1335 C1349 0.960 . S
H1336 C1349 0.961 . S
H1337 C1349 0.959 . S
H1338 C1352 0.929 . S
H1339 C1353 0.931 . S
H1340 C1355 0.930 . S
C1341 H1329 0.930 . S
C1341 C1342 1.399 . S
C1341 C1346 1.399 . S
C1342 C1341 1.399 . S
C1342 C1343 1.376 . S
C1343 H1330 0.930 . S
C1343 C1342 1.376 . S
C1343 C1344 1.388 . S
C1344 H1331 0.930 . S
C1344 C1343 1.388 . S
C1344 C1345 1.390 . S
C1345 C1344 1.390 . S
C1345 C1346 1.394 . S
C1345 C1351 1.465 . S
C1346 C1341 1.399 . S
C1346 C1345 1.394 . S
C1346 C1347 1.516 . S
C1347 C1346 1.516 . S
C1347 C1348 1.502 . S
C1347 C1349 1.561 . S
C1347 C1350 1.526 . S
C1348 H1332 0.959 . S
C1348 H1333 0.959 . S
C1348 H1334 0.961 . S
C1348 C1347 1.502 . S
C1349 H1335 0.960 . S
C1349 H1336 0.961 . S
C1349 H1337 0.959 . S
C1349 C1347 1.561 . S
C1350 C1347 1.526 . S
C1350 C1351 1.396 . S
C1350 C1355 1.390 . S
C1351 C1345 1.465 . S
C1351 C1350 1.396 . S
C1351 C1352 1.399 . S
C1352 H1338 0.929 . S
C1352 C1351 1.399 . S
C1352 C1353 1.385 . S
C1353 H1339 0.931 . S
C1353 C1352 1.385 . S
C1353 C1354 1.389 . S
C1354 C1353 1.389 . S
C1354 C1355 1.387 . S
C1355 H1340 0.930 . S
C1355 C1350 1.390 . S
C1355 C1354 1.387 . S
H1356 C1368 0.930 . S
H1357 C1370 0.930 . S
H1358 C1371 0.930 . S
H1359 C1375 0.959 . S
H1360 C1375 0.959 . S
H1361 C1375 0.961 . S
H1362 C1376 0.960 . S
H1363 C1376 0.961 . S
H1364 C1376 0.959 . S
H1365 C1379 0.929 . S
H1366 C1380 0.931 . S
H1367 C1382 0.930 . S
C1368 H1356 0.930 . S
C1368 C1369 1.399 . S
C1368 C1373 1.399 . S
C1369 C1368 1.399 . S
C1369 C1370 1.376 . S
C1370 H1357 0.930 . S
C1370 C1369 1.376 . S
C1370 C1371 1.388 . S
C1371 H1358 0.930 . S
C1371 C1370 1.388 . S
C1371 C1372 1.390 . S
C1372 C1371 1.390 . S
C1372 C1373 1.394 . S
C1372 C1378 1.465 . S
C1373 C1368 1.399 . S
C1373 C1372 1.394 . S
C1373 C1374 1.516 . S
C1374 C1373 1.516 . S
C1374 C1375 1.502 . S
C1374 C1376 1.561 . S
C1374 C1377 1.526 . S
C1375 H1359 0.959 . S
C1375 H1360 0.959 . S
C1375 H1361 0.961 . S
C1375 C1374 1.502 . S
C1376 H1362 0.960 . S
C1376 H1363 0.961 . S
C1376 H1364 0.959 . S
C1376 C1374 1.561 . S
C1377 C1374 1.526 . S
C1377 C1378 1.396 . S
C1377 C1382 1.390 . S
C1378 C1372 1.465 . S
C1378 C1377 1.396 . S
C1378 C1379 1.399 . S
C1379 H1365 0.929 . S
C1379 C1378 1.399 . S
C1379 C1380 1.385 . S
C1380 H1366 0.931 . S
C1380 C1379 1.385 . S
C1380 C1381 1.389 . S
C1381 C1380 1.389 . S
C1381 C1382 1.387 . S
C1382 H1367 0.930 . S
C1382 C1377 1.390 . S
C1382 C1381 1.387 . S
H1383 C1395 0.930 . S
H1384 C1397 0.930 . S
H1385 C1398 0.930 . S
H1386 C1402 0.959 . S
H1387 C1402 0.959 . S
H1388 C1402 0.961 . S
H1389 C1403 0.960 . S
H1390 C1403 0.961 . S
H1391 C1403 0.959 . S
H1392 C1406 0.936 . S
H1393 C1407 0.931 . S
H1394 C1409 0.930 . S
C1395 H1383 0.930 . S
C1395 C1396 1.399 . S
C1395 C1400 1.399 . S
C1396 C1395 1.399 . S
C1396 C1397 1.376 . S
C1397 H1384 0.930 . S
C1397 C1396 1.376 . S
C1397 C1398 1.388 . S
C1398 H1385 0.930 . S
C1398 C1397 1.388 . S
C1398 C1399 1.390 . S
C1399 C1398 1.390 . S
C1399 C1400 1.394 . S
C1399 C1405 1.465 . S
C1400 C1395 1.399 . S
C1400 C1399 1.394 . S
C1400 C1401 1.516 . S
C1401 C1400 1.516 . S
C1401 C1402 1.502 . S
C1401 C1403 1.561 . S
C1401 C1404 1.526 . S
C1402 H1386 0.959 . S
C1402 H1387 0.959 . S
C1402 H1388 0.961 . S
C1402 C1401 1.502 . S
C1403 H1389 0.960 . S
C1403 H1390 0.961 . S
C1403 H1391 0.959 . S
C1403 C1401 1.561 . S
C1404 C1401 1.526 . S
C1404 C1405 1.396 . S
C1404 C1409 1.390 . S
C1405 C1399 1.465 . S
C1405 C1404 1.396 . S
C1405 C1406 1.399 . S
C1406 H1392 0.936 . S
C1406 C1405 1.399 . S
C1406 C1407 1.385 1_565 S
C1407 H1393 0.931 . S
C1407 C1406 1.385 1_545 S
C1407 C1408 1.389 1_545 S
C1408 C1407 1.389 1_565 S
C1408 C1409 1.387 . S
C1409 H1394 0.930 . S
C1409 C1404 1.390 . S
C1409 C1408 1.387 . S
H1410 C1422 0.930 . S
H1411 C1424 0.930 . S
H1412 C1425 0.930 . S
H1413 C1429 0.959 . S
H1414 C1429 0.959 . S
H1415 C1429 0.961 . S
H1416 C1430 0.960 . S
H1417 C1430 0.961 . S
H1418 C1430 0.959 . S
H1419 C1433 0.929 . S
H1420 C1434 0.931 . S
H1421 C1436 0.930 . S
C1422 H1410 0.930 . S
C1422 C1423 1.399 . S
C1422 C1427 1.399 . S
C1423 C1422 1.399 . S
C1423 C1424 1.376 . S
C1424 H1411 0.930 . S
C1424 C1423 1.376 . S
C1424 C1425 1.388 . S
C1425 H1412 0.930 . S
C1425 C1424 1.388 . S
C1425 C1426 1.390 . S
C1426 C1425 1.390 . S
C1426 C1427 1.394 . S
C1426 C1432 1.465 . S
C1427 C1422 1.399 . S
C1427 C1426 1.394 . S
C1427 C1428 1.516 . S
C1428 C1427 1.516 . S
C1428 C1429 1.502 . S
C1428 C1430 1.561 . S
C1428 C1431 1.526 . S
C1429 H1413 0.959 . S
C1429 H1414 0.959 . S
C1429 H1415 0.961 . S
C1429 C1428 1.502 . S
C1430 H1416 0.960 . S
C1430 H1417 0.961 . S
C1430 H1418 0.959 . S
C1430 C1428 1.561 . S
C1431 C1428 1.526 . S
C1431 C1432 1.396 . S
C1431 C1436 1.390 . S
C1432 C1426 1.465 . S
C1432 C1431 1.396 . S
C1432 C1433 1.399 . S
C1433 H1419 0.929 . S
C1433 C1432 1.399 . S
C1433 C1434 1.385 . S
C1434 H1420 0.931 . S
C1434 C1433 1.385 . S
C1434 C1435 1.389 . S
C1435 C1434 1.389 . S
C1435 C1436 1.387 . S
C1436 H1421 0.930 . S
C1436 C1431 1.390 . S
C1436 C1435 1.387 . S
H1437 C1449 0.930 . S
H1438 C1451 0.930 . S
H1439 C1452 0.930 . S
H1440 C1456 0.959 . S
H1441 C1456 0.959 . S
H1442 C1456 0.961 . S
H1443 C1457 0.960 . S
H1444 C1457 0.961 . S
H1445 C1457 0.959 . S
H1446 C1460 0.929 . S
H1447 C1461 0.931 . S
H1448 C1463 0.930 . S
C1449 H1437 0.930 . S
C1449 C1450 1.399 . S
C1449 C1454 1.399 . S
C1450 C1449 1.399 . S
C1450 C1451 1.376 . S
C1451 H1438 0.930 . S
C1451 C1450 1.376 . S
C1451 C1452 1.388 . S
C1452 H1439 0.930 . S
C1452 C1451 1.388 . S
C1452 C1453 1.390 . S
C1453 C1452 1.390 . S
C1453 C1454 1.394 . S
C1453 C1459 1.465 . S
C1454 C1449 1.399 . S
C1454 C1453 1.394 . S
C1454 C1455 1.516 . S
C1455 C1454 1.516 . S
C1455 C1456 1.502 . S
C1455 C1457 1.561 . S
C1455 C1458 1.526 . S
C1456 H1440 0.959 . S
C1456 H1441 0.959 . S
C1456 H1442 0.961 . S
C1456 C1455 1.502 . S
C1457 H1443 0.960 . S
C1457 H1444 0.961 . S
C1457 H1445 0.959 . S
C1457 C1455 1.561 . S
C1458 C1455 1.526 . S
C1458 C1459 1.396 . S
C1458 C1463 1.390 . S
C1459 C1453 1.465 . S
C1459 C1458 1.396 . S
C1459 C1460 1.399 . S
C1460 H1446 0.929 . S
C1460 C1459 1.399 . S
C1460 C1461 1.385 . S
C1461 H1447 0.931 . S
C1461 C1460 1.385 . S
C1461 C1462 1.389 . S
C1462 C1461 1.389 . S
C1462 C1463 1.387 . S
C1463 H1448 0.930 . S
C1463 C1458 1.390 . S
C1463 C1462 1.387 . S
H1464 C1476 0.930 . S
H1465 C1478 0.930 . S
H1466 C1479 0.930 . S
H1467 C1483 0.955 1_556 S
H1468 C1483 0.959 . S
H1469 C1483 0.961 . S
H1470 C1484 0.960 1_556 S
H1471 C1484 0.958 . S
H1472 C1484 0.960 1_556 S
H1473 C1487 0.929 . S
H1474 C1488 0.931 . S
H1475 C1490 0.930 . S
C1476 H1464 0.930 . S
C1476 C1477 1.399 . S
C1476 C1481 1.399 . S
C1477 C1476 1.399 . S
C1477 C1478 1.376 . S
C1478 H1465 0.930 . S
C1478 C1477 1.376 . S
C1478 C1479 1.388 . S
C1479 H1466 0.930 . S
C1479 C1478 1.388 . S
C1479 C1480 1.390 . S
C1480 C1479 1.390 . S
C1480 C1481 1.394 . S
C1480 C1486 1.465 . S
C1481 C1476 1.399 . S
C1481 C1480 1.394 . S
C1481 C1482 1.516 . S
C1482 C1481 1.516 . S
C1482 C1483 1.502 1_556 S
C1482 C1484 1.562 1_556 S
C1482 C1485 1.526 . S
C1483 H1467 0.955 1_554 S
C1483 H1468 0.959 . S
C1483 H1469 0.961 . S
C1483 C1482 1.502 1_554 S
C1484 H1470 0.960 1_554 S
C1484 H1471 0.958 . S
C1484 H1472 0.960 1_554 S
C1484 C1482 1.562 1_554 S
C1485 C1482 1.526 . S
C1485 C1486 1.396 . S
C1485 C1490 1.390 1_556 S
C1486 C1480 1.465 . S
C1486 C1485 1.396 . S
C1486 C1487 1.399 . S
C1487 H1473 0.929 . S
C1487 C1486 1.399 . S
C1487 C1488 1.385 . S
C1488 H1474 0.931 . S
C1488 C1487 1.385 . S
C1488 C1489 1.389 . S
C1489 C1488 1.389 . S
C1489 C1490 1.387 1_556 S
C1490 H1475 0.930 . S
C1490 C1485 1.390 1_554 S
C1490 C1489 1.387 1_554 S
H1491 C1503 0.930 . S
H1492 C1505 0.930 . S
H1493 C1506 0.930 . S
H1494 C1510 0.959 . S
H1495 C1510 0.959 . S
H1496 C1510 0.961 . S
H1497 C1511 0.960 . S
H1498 C1511 0.961 . S
H1499 C1511 0.959 . S
H1500 C1514 0.929 . S
H1501 C1515 0.931 . S
H1502 C1517 0.930 . S
C1503 H1491 0.930 . S
C1503 C1504 1.399 . S
C1503 C1508 1.399 . S
C1504 C1503 1.399 . S
C1504 C1505 1.376 . S
C1505 H1492 0.930 . S
C1505 C1504 1.376 . S
C1505 C1506 1.388 . S
C1506 H1493 0.930 . S
C1506 C1505 1.388 . S
C1506 C1507 1.390 . S
C1507 C1506 1.390 . S
C1507 C1508 1.394 . S
C1507 C1513 1.465 . S
C1508 C1503 1.399 . S
C1508 C1507 1.394 . S
C1508 C1509 1.516 . S
C1509 C1508 1.516 . S
C1509 C1510 1.502 . S
C1509 C1511 1.561 . S
C1509 C1512 1.526 . S
C1510 H1494 0.959 . S
C1510 H1495 0.959 . S
C1510 H1496 0.961 . S
C1510 C1509 1.502 . S
C1511 H1497 0.960 . S
C1511 H1498 0.961 . S
C1511 H1499 0.959 . S
C1511 C1509 1.561 . S
C1512 C1509 1.526 . S
C1512 C1513 1.396 . S
C1512 C1517 1.390 . S
C1513 C1507 1.465 . S
C1513 C1512 1.396 . S
C1513 C1514 1.399 . S
C1514 H1500 0.929 . S
C1514 C1513 1.399 . S
C1514 C1515 1.385 . S
C1515 H1501 0.931 . S
C1515 C1514 1.385 . S
C1515 C1516 1.389 . S
C1516 C1515 1.389 . S
C1516 C1517 1.387 . S
C1517 H1502 0.930 . S
C1517 C1512 1.390 . S
C1517 C1516 1.387 . S
H1518 C1530 0.930 . S
H1519 C1532 0.930 . S
H1520 C1533 0.930 . S
H1521 C1537 0.959 . S
H1522 C1537 0.959 . S
H1523 C1537 0.961 . S
H1524 C1538 0.960 . S
H1525 C1538 0.961 . S
H1526 C1538 0.959 . S
H1527 C1541 0.929 . S
H1528 C1542 0.931 . S
H1529 C1544 0.930 . S
C1530 H1518 0.930 . S
C1530 C1531 1.399 . S
C1530 C1535 1.399 . S
C1531 C1530 1.399 . S
C1531 C1532 1.376 . S
C1532 H1519 0.930 . S
C1532 C1531 1.376 . S
C1532 C1533 1.388 . S
C1533 H1520 0.930 . S
C1533 C1532 1.388 . S
C1533 C1534 1.390 . S
C1534 C1533 1.390 . S
C1534 C1535 1.394 . S
C1534 C1540 1.465 . S
C1535 C1530 1.399 . S
C1535 C1534 1.394 . S
C1535 C1536 1.516 . S
C1536 C1535 1.516 . S
C1536 C1537 1.502 . S
C1536 C1538 1.561 . S
C1536 C1539 1.526 . S
C1537 H1521 0.959 . S
C1537 H1522 0.959 . S
C1537 H1523 0.961 . S
C1537 C1536 1.502 . S
C1538 H1524 0.960 . S
C1538 H1525 0.961 . S
C1538 H1526 0.959 . S
C1538 C1536 1.561 . S
C1539 C1536 1.526 . S
C1539 C1540 1.396 . S
C1539 C1544 1.390 . S
C1540 C1534 1.465 . S
C1540 C1539 1.396 . S
C1540 C1541 1.399 . S
C1541 H1527 0.929 . S
C1541 C1540 1.399 . S
C1541 C1542 1.385 . S
C1542 H1528 0.931 . S
C1542 C1541 1.385 . S
C1542 C1543 1.389 . S
C1543 C1542 1.389 . S
C1543 C1544 1.387 . S
C1544 H1529 0.930 . S
C1544 C1539 1.390 . S
C1544 C1543 1.387 . S
H1545 C1557 0.930 . S
H1546 C1559 0.930 . S
H1547 C1560 0.930 . S
H1548 C1564 0.959 . S
H1549 C1564 0.959 . S
H1550 C1564 0.961 . S
H1551 C1565 0.960 . S
H1552 C1565 0.961 . S
H1553 C1565 0.959 . S
H1554 C1568 0.929 . S
H1555 C1569 0.931 . S
H1556 C1571 0.930 . S
C1557 H1545 0.930 . S
C1557 C1558 1.399 . S
C1557 C1562 1.399 . S
C1558 C1557 1.399 . S
C1558 C1559 1.376 . S
C1559 H1546 0.930 . S
C1559 C1558 1.376 . S
C1559 C1560 1.388 . S
C1560 H1547 0.930 . S
C1560 C1559 1.388 . S
C1560 C1561 1.390 . S
C1561 C1560 1.390 . S
C1561 C1562 1.394 . S
C1561 C1567 1.465 . S
C1562 C1557 1.399 . S
C1562 C1561 1.394 . S
C1562 C1563 1.516 . S
C1563 C1562 1.516 . S
C1563 C1564 1.502 . S
C1563 C1565 1.561 . S
C1563 C1566 1.526 . S
C1564 H1548 0.959 . S
C1564 H1549 0.959 . S
C1564 H1550 0.961 . S
C1564 C1563 1.502 . S
C1565 H1551 0.960 . S
C1565 H1552 0.961 . S
C1565 H1553 0.959 . S
C1565 C1563 1.561 . S
C1566 C1563 1.526 . S
C1566 C1567 1.396 . S
C1566 C1571 1.390 . S
C1567 C1561 1.465 . S
C1567 C1566 1.396 . S
C1567 C1568 1.399 . S
C1568 H1554 0.929 . S
C1568 C1567 1.399 . S
C1568 C1569 1.385 . S
C1569 H1555 0.931 . S
C1569 C1568 1.385 . S
C1569 C1570 1.389 . S
C1570 C1569 1.389 . S
C1570 C1571 1.387 . S
C1571 H1556 0.930 . S
C1571 C1566 1.390 . S
C1571 C1570 1.387 . S
H1572 C1584 0.930 . S
H1573 C1586 0.930 . S
H1574 C1587 0.930 . S
H1575 C1591 0.959 . S
H1576 C1591 0.959 . S
H1577 C1591 0.961 . S
H1578 C1592 0.955 1_655 S
H1579 C1592 0.958 1_655 S
H1580 C1592 0.966 . S
H1581 C1595 0.929 . S
H1582 C1596 0.931 . S
H1583 C1598 0.930 . S
C1584 H1572 0.930 . S
C1584 C1585 1.399 1_655 S
C1584 C1589 1.399 1_655 S
C1585 C1584 1.399 1_455 S
C1585 C1586 1.376 . S
C1586 H1573 0.930 . S
C1586 C1585 1.376 . S
C1586 C1587 1.388 . S
C1587 H1574 0.930 . S
C1587 C1586 1.388 . S
C1587 C1588 1.390 . S
C1588 C1587 1.390 . S
C1588 C1589 1.394 . S
C1588 C1594 1.465 . S
C1589 C1584 1.399 1_455 S
C1589 C1588 1.394 . S
C1589 C1590 1.526 . S
C1590 C1589 1.526 . S
C1590 C1591 1.473 1_455 S
C1590 C1592 1.560 . S
C1590 C1593 1.551 . S
C1591 H1575 0.959 . S
C1591 H1576 0.959 . S
C1591 H1577 0.961 . S
C1591 C1590 1.473 1_655 S
C1592 H1578 0.955 1_455 S
C1592 H1579 0.958 1_455 S
C1592 H1580 0.966 . S
C1592 C1590 1.560 . S
C1593 C1590 1.551 . S
C1593 C1594 1.396 . S
C1593 C1598 1.390 . S
C1594 C1588 1.465 . S
C1594 C1593 1.396 . S
C1594 C1595 1.399 . S
C1595 H1581 0.929 . S
C1595 C1594 1.399 . S
C1595 C1596 1.385 . S
C1596 H1582 0.931 . S
C1596 C1595 1.385 . S
C1596 C1597 1.389 . S
C1597 C1596 1.389 . S
C1597 C1598 1.387 . S
C1598 H1583 0.930 . S
C1598 C1593 1.390 . S
C1598 C1597 1.387 . S
H1599 C1611 0.930 . S
H1600 C1613 0.930 . S
H1601 C1614 0.930 . S
H1602 C1618 0.959 . S
H1603 C1618 0.959 . S
H1604 C1618 0.961 . S
H1605 C1619 0.960 . S
H1606 C1619 0.961 . S
H1607 C1619 0.959 . S
H1608 C1622 0.929 . S
H1609 C1623 0.931 . S
H1610 C1625 0.930 . S
C1611 H1599 0.930 . S
C1611 C1612 1.399 . S
C1611 C1616 1.399 . S
C1612 C1611 1.399 . S
C1612 C1613 1.376 . S
C1613 H1600 0.930 . S
C1613 C1612 1.376 . S
C1613 C1614 1.388 . S
C1614 H1601 0.930 . S
C1614 C1613 1.388 . S
C1614 C1615 1.390 . S
C1615 C1614 1.390 . S
C1615 C1616 1.394 . S
C1615 C1621 1.465 . S
C1616 C1611 1.399 . S
C1616 C1615 1.394 . S
C1616 C1617 1.516 . S
C1617 C1616 1.516 . S
C1617 C1618 1.502 . S
C1617 C1619 1.561 . S
C1617 C1620 1.526 . S
C1618 H1602 0.959 . S
C1618 H1603 0.959 . S
C1618 H1604 0.961 . S
C1618 C1617 1.502 . S
C1619 H1605 0.960 . S
C1619 H1606 0.961 . S
C1619 H1607 0.959 . S
C1619 C1617 1.561 . S
C1620 C1617 1.526 . S
C1620 C1621 1.396 . S
C1620 C1625 1.390 . S
C1621 C1615 1.465 . S
C1621 C1620 1.396 . S
C1621 C1622 1.399 . S
C1622 H1608 0.929 . S
C1622 C1621 1.399 . S
C1622 C1623 1.385 . S
C1623 H1609 0.931 . S
C1623 C1622 1.385 . S
C1623 C1624 1.389 . S
C1624 C1623 1.389 . S
C1624 C1625 1.387 . S
C1625 H1610 0.930 . S
C1625 C1620 1.390 . S
C1625 C1624 1.387 . S
H1626 C1638 0.930 . S
H1627 C1640 0.930 . S
H1628 C1641 0.930 . S
H1629 C1645 0.959 . S
H1630 C1645 0.959 . S
H1631 C1645 0.961 . S
H1632 C1646 0.960 . S
H1633 C1646 0.961 . S
H1634 C1646 0.959 . S
H1635 C1649 0.929 . S
H1636 C1650 0.931 . S
H1637 C1652 0.930 . S
C1638 H1626 0.930 . S
C1638 C1639 1.399 . S
C1638 C1643 1.399 . S
C1639 C1638 1.399 . S
C1639 C1640 1.376 . S
C1640 H1627 0.930 . S
C1640 C1639 1.376 . S
C1640 C1641 1.388 . S
C1641 H1628 0.930 . S
C1641 C1640 1.388 . S
C1641 C1642 1.390 . S
C1642 C1641 1.390 . S
C1642 C1643 1.394 . S
C1642 C1648 1.465 . S
C1643 C1638 1.399 . S
C1643 C1642 1.394 . S
C1643 C1644 1.516 . S
C1644 C1643 1.516 . S
C1644 C1645 1.502 . S
C1644 C1646 1.561 . S
C1644 C1647 1.526 . S
C1645 H1629 0.959 . S
C1645 H1630 0.959 . S
C1645 H1631 0.961 . S
C1645 C1644 1.502 . S
C1646 H1632 0.960 . S
C1646 H1633 0.961 . S
C1646 H1634 0.959 . S
C1646 C1644 1.561 . S
C1647 C1644 1.526 . S
C1647 C1648 1.396 . S
C1647 C1652 1.390 . S
C1648 C1642 1.465 . S
C1648 C1647 1.396 . S
C1648 C1649 1.399 . S
C1649 H1635 0.929 . S
C1649 C1648 1.399 . S
C1649 C1650 1.385 . S
C1650 H1636 0.931 . S
C1650 C1649 1.385 . S
C1650 C1651 1.389 . S
C1651 C1650 1.389 . S
C1651 C1652 1.387 . S
C1652 H1637 0.930 . S
C1652 C1647 1.390 . S
C1652 C1651 1.387 . S
H1653 C1665 0.930 . S
H1654 C1667 0.930 . S
H1655 C1668 0.930 . S
H1656 C1672 0.959 . S
H1657 C1672 0.959 . S
H1658 C1672 0.961 . S
H1659 C1673 0.960 . S
H1660 C1673 0.961 . S
H1661 C1673 0.959 . S
H1662 C1676 0.929 . S
H1663 C1677 0.931 . S
H1664 C1679 0.930 . S
C1665 H1653 0.930 . S
C1665 C1666 1.399 . S
C1665 C1670 1.399 . S
C1666 C1665 1.399 . S
C1666 C1667 1.376 . S
C1667 H1654 0.930 . S
C1667 C1666 1.376 . S
C1667 C1668 1.388 . S
C1668 H1655 0.930 . S
C1668 C1667 1.388 . S
C1668 C1669 1.390 . S
C1669 C1668 1.390 . S
C1669 C1670 1.394 . S
C1669 C1675 1.465 . S
C1670 C1665 1.399 . S
C1670 C1669 1.394 . S
C1670 C1671 1.516 . S
C1671 C1670 1.516 . S
C1671 C1672 1.502 . S
C1671 C1673 1.561 . S
C1671 C1674 1.526 . S
C1672 H1656 0.959 . S
C1672 H1657 0.959 . S
C1672 H1658 0.961 . S
C1672 C1671 1.502 . S
C1673 H1659 0.960 . S
C1673 H1660 0.961 . S
C1673 H1661 0.959 . S
C1673 C1671 1.561 . S
C1674 C1671 1.526 . S
C1674 C1675 1.396 . S
C1674 C1679 1.390 . S
C1675 C1669 1.465 . S
C1675 C1674 1.396 . S
C1675 C1676 1.399 . S
C1676 H1662 0.929 . S
C1676 C1675 1.399 . S
C1676 C1677 1.385 . S
C1677 H1663 0.931 . S
C1677 C1676 1.385 . S
C1677 C1678 1.389 . S
C1678 C1677 1.389 . S
C1678 C1679 1.387 . S
C1679 H1664 0.930 . S
C1679 C1674 1.390 . S
C1679 C1678 1.387 . S
H1680 C1692 0.930 . S
H1681 C1694 0.930 . S
H1682 C1695 0.930 . S
H1683 C1699 0.959 . S
H1684 C1699 0.959 1_565 S
H1685 C1699 0.961 1_565 S
H1686 C1700 0.960 1_565 S
H1687 C1700 0.961 1_565 S
H1688 C1700 0.959 . S
H1689 C1703 0.929 . S
H1690 C1704 0.931 1_455 S
H1691 C1706 0.930 . S
C1692 H1680 0.930 . S
C1692 C1693 1.399 . S
C1692 C1697 1.399 . S
C1693 C1692 1.399 . S
C1693 C1694 1.376 . S
C1694 H1681 0.930 . S
C1694 C1693 1.376 . S
C1694 C1695 1.388 . S
C1695 H1682 0.930 . S
C1695 C1694 1.388 . S
C1695 C1696 1.390 . S
C1696 C1695 1.390 . S
C1696 C1697 1.394 . S
C1696 C1702 1.465 . S
C1697 C1692 1.399 . S
C1697 C1696 1.394 . S
C1697 C1698 1.516 . S
C1698 C1697 1.516 . S
C1698 C1699 1.502 . S
C1698 C1700 1.561 . S
C1698 C1701 1.526 . S
C1699 H1683 0.959 . S
C1699 H1684 0.959 1_545 S
C1699 H1685 0.961 1_545 S
C1699 C1698 1.502 . S
C1700 H1686 0.960 1_545 S
C1700 H1687 0.961 1_545 S
C1700 H1688 0.959 . S
C1700 C1698 1.561 . S
C1701 C1698 1.526 . S
C1701 C1702 1.396 . S
C1701 C1706 1.390 . S
C1702 C1696 1.465 . S
C1702 C1701 1.396 . S
C1702 C1703 1.399 . S
C1703 H1689 0.929 . S
C1703 C1702 1.399 . S
C1703 C1704 1.385 . S
C1704 H1690 0.931 1_655 S
C1704 C1703 1.385 . S
C1704 C1705 1.389 . S
C1705 C1704 1.389 . S
C1705 C1706 1.387 . S
C1706 H1691 0.930 . S
C1706 C1701 1.390 . S
C1706 C1705 1.387 . S
H1707 C1719 0.930 . S
H1708 C1721 0.930 . S
H1709 C1722 0.930 . S
H1710 C1726 0.959 . S
H1711 C1726 0.959 . S
H1712 C1726 0.961 . S
H1713 C1727 0.960 . S
H1714 C1727 0.961 . S
H1715 C1727 0.959 . S
H1716 C1730 0.929 . S
H1717 C1731 0.931 . S
H1718 C1733 0.930 . S
C1719 H1707 0.930 . S
C1719 C1720 1.399 . S
C1719 C1724 1.399 . S
C1720 C1719 1.399 . S
C1720 C1721 1.376 . S
C1721 H1708 0.930 . S
C1721 C1720 1.376 . S
C1721 C1722 1.388 . S
C1722 H1709 0.930 . S
C1722 C1721 1.388 . S
C1722 C1723 1.390 . S
C1723 C1722 1.390 . S
C1723 C1724 1.394 . S
C1723 C1729 1.465 . S
C1724 C1719 1.399 . S
C1724 C1723 1.394 . S
C1724 C1725 1.516 . S
C1725 C1724 1.516 . S
C1725 C1726 1.502 . S
C1725 C1727 1.561 . S
C1725 C1728 1.526 . S
C1726 H1710 0.959 . S
C1726 H1711 0.959 . S
C1726 H1712 0.961 . S
C1726 C1725 1.502 . S
C1727 H1713 0.960 . S
C1727 H1714 0.961 . S
C1727 H1715 0.959 . S
C1727 C1725 1.561 . S
C1728 C1725 1.526 . S
C1728 C1729 1.396 . S
C1728 C1733 1.390 . S
C1729 C1723 1.465 . S
C1729 C1728 1.396 . S
C1729 C1730 1.399 . S
C1730 H1716 0.929 . S
C1730 C1729 1.399 . S
C1730 C1731 1.385 . S
C1731 H1717 0.931 . S
C1731 C1730 1.385 . S
C1731 C1732 1.389 . S
C1732 C1731 1.389 . S
C1732 C1733 1.387 . S
C1733 H1718 0.930 . S
C1733 C1728 1.390 . S
C1733 C1732 1.387 . S
H1734 C1746 0.930 . S
H1735 C1748 0.930 . S
H1736 C1749 0.930 . S
H1737 C1753 0.959 . S
H1738 C1753 0.959 . S
H1739 C1753 0.961 . S
H1740 C1754 0.960 . S
H1741 C1754 0.961 . S
H1742 C1754 0.959 . S
H1743 C1757 0.929 . S
H1744 C1758 0.949 . S
H1745 C1760 0.930 . S
C1746 H1734 0.930 . S
C1746 C1747 1.399 . S
C1746 C1751 1.399 . S
C1747 C1746 1.399 . S
C1747 C1748 1.376 1_545 S
C1748 H1735 0.930 . S
C1748 C1747 1.376 1_565 S
C1748 C1749 1.388 . S
C1749 H1736 0.930 . S
C1749 C1748 1.388 . S
C1749 C1750 1.390 1_565 S
C1750 C1749 1.390 1_545 S
C1750 C1751 1.394 . S
C1750 C1756 1.465 . S
C1751 C1746 1.399 . S
C1751 C1750 1.394 . S
C1751 C1752 1.516 . S
C1752 C1751 1.516 . S
C1752 C1753 1.502 . S
C1752 C1754 1.561 . S
C1752 C1755 1.526 . S
C1753 H1737 0.959 . S
C1753 H1738 0.959 . S
C1753 H1739 0.961 . S
C1753 C1752 1.502 . S
C1754 H1740 0.960 . S
C1754 H1741 0.961 . S
C1754 H1742 0.959 . S
C1754 C1752 1.561 . S
C1755 C1752 1.526 . S
C1755 C1756 1.396 . S
C1755 C1760 1.390 . S
C1756 C1750 1.465 . S
C1756 C1755 1.396 . S
C1756 C1757 1.399 1_545 S
C1757 H1743 0.929 . S
C1757 C1756 1.399 1_565 S
C1757 C1758 1.393 . S
C1758 H1744 0.949 . S
C1758 C1757 1.393 . S
C1758 C1759 1.364 1_565 S
C1759 C1758 1.364 1_545 S
C1759 C1760 1.387 . S
C1760 H1745 0.930 . S
C1760 C1755 1.390 . S
C1760 C1759 1.387 . S
H1761 C1773 0.930 . S
H1762 C1775 0.930 . S
H1763 C1776 0.930 . S
H1764 C1780 0.959 . S
H1765 C1780 0.959 . S
H1766 C1780 0.961 . S
H1767 C1781 0.960 . S
H1768 C1781 0.961 . S
H1769 C1781 0.959 . S
H1770 C1784 0.929 . S
H1771 C1785 0.931 . S
H1772 C1787 0.930 . S
C1773 H1761 0.930 . S
C1773 C1774 1.399 . S
C1773 C1778 1.399 . S
C1774 C1773 1.399 . S
C1774 C1775 1.376 . S
C1775 H1762 0.930 . S
C1775 C1774 1.376 . S
C1775 C1776 1.388 . S
C1776 H1763 0.930 . S
C1776 C1775 1.388 . S
C1776 C1777 1.390 . S
C1777 C1776 1.390 . S
C1777 C1778 1.394 . S
C1777 C1783 1.465 . S
C1778 C1773 1.399 . S
C1778 C1777 1.394 . S
C1778 C1779 1.516 . S
C1779 C1778 1.516 . S
C1779 C1780 1.502 . S
C1779 C1781 1.561 . S
C1779 C1782 1.526 . S
C1780 H1764 0.959 . S
C1780 H1765 0.959 . S
C1780 H1766 0.961 . S
C1780 C1779 1.502 . S
C1781 H1767 0.960 . S
C1781 H1768 0.961 . S
C1781 H1769 0.959 . S
C1781 C1779 1.561 . S
C1782 C1779 1.526 . S
C1782 C1783 1.396 . S
C1782 C1787 1.390 . S
C1783 C1777 1.465 . S
C1783 C1782 1.396 . S
C1783 C1784 1.399 . S
C1784 H1770 0.929 . S
C1784 C1783 1.399 . S
C1784 C1785 1.385 . S
C1785 H1771 0.931 . S
C1785 C1784 1.385 . S
C1785 C1786 1.389 . S
C1786 C1785 1.389 . S
C1786 C1787 1.387 . S
C1787 H1772 0.930 . S
C1787 C1782 1.390 . S
C1787 C1786 1.387 . S
H1788 C1800 0.930 . S
H1789 C1802 0.930 . S
H1790 C1803 0.948 . S
H1791 C1807 0.959 . S
H1792 C1807 0.959 . S
H1793 C1807 0.961 . S
H1794 C1808 0.960 . S
H1795 C1808 0.961 . S
H1796 C1808 0.959 . S
H1797 C1811 0.929 1_565 S
H1798 C1812 0.931 1_465 S
H1799 C1814 0.930 . S
C1800 H1788 0.930 . S
C1800 C1801 1.399 . S
C1800 C1805 1.399 . S
C1801 C1800 1.399 . S
C1801 C1802 1.376 . S
C1802 H1789 0.930 . S
C1802 C1801 1.376 . S
C1802 C1803 1.388 . S
C1803 H1790 0.948 . S
C1803 C1802 1.388 . S
C1803 C1804 1.390 . S
C1804 C1803 1.390 . S
C1804 C1805 1.394 . S
C1804 C1810 1.465 . S
C1805 C1800 1.399 . S
C1805 C1804 1.394 . S
C1805 C1806 1.516 . S
C1806 C1805 1.516 . S
C1806 C1807 1.502 . S
C1806 C1808 1.561 . S
C1806 C1809 1.526 . S
C1807 H1791 0.959 . S
C1807 H1792 0.959 . S
C1807 H1793 0.961 . S
C1807 C1806 1.502 . S
C1808 H1794 0.960 . S
C1808 H1795 0.961 . S
C1808 H1796 0.959 . S
C1808 C1806 1.561 . S
C1809 C1806 1.526 . S
C1809 C1810 1.396 . S
C1809 C1814 1.390 . S
C1810 C1804 1.465 . S
C1810 C1809 1.396 . S
C1810 C1811 1.399 . S
C1811 H1797 0.929 1_545 S
C1811 C1810 1.399 . S
C1811 C1812 1.385 . S
C1812 H1798 0.931 1_645 S
C1812 C1811 1.385 . S
C1812 C1813 1.389 . S
C1813 C1812 1.389 . S
C1813 C1814 1.387 . S
C1814 H1799 0.930 . S
C1814 C1809 1.390 . S
C1814 C1813 1.387 . S
H1815 C1827 0.930 . S
H1816 C1829 0.930 . S
H1817 C1830 0.930 . S
H1818 C1834 0.959 . S
H1819 C1834 0.959 . S
H1820 C1834 0.961 . S
H1821 C1835 0.960 . S
H1822 C1835 0.961 . S
H1823 C1835 0.959 . S
H1824 C1838 0.929 . S
H1825 C1839 0.931 . S
H1826 C1841 0.930 . S
C1827 H1815 0.930 . S
C1827 C1828 1.399 . S
C1827 C1832 1.399 . S
C1828 C1827 1.399 . S
C1828 C1829 1.376 . S
C1829 H1816 0.930 . S
C1829 C1828 1.376 . S
C1829 C1830 1.388 . S
C1830 H1817 0.930 . S
C1830 C1829 1.388 . S
C1830 C1831 1.390 . S
C1831 C1830 1.390 . S
C1831 C1832 1.394 . S
C1831 C1837 1.465 . S
C1832 C1827 1.399 . S
C1832 C1831 1.394 . S
C1832 C1833 1.516 . S
C1833 C1832 1.516 . S
C1833 C1834 1.502 . S
C1833 C1835 1.561 . S
C1833 C1836 1.526 . S
C1834 H1818 0.959 . S
C1834 H1819 0.959 . S
C1834 H1820 0.961 . S
C1834 C1833 1.502 . S
C1835 H1821 0.960 . S
C1835 H1822 0.961 . S
C1835 H1823 0.959 . S
C1835 C1833 1.561 . S
C1836 C1833 1.526 . S
C1836 C1837 1.396 . S
C1836 C1841 1.390 . S
C1837 C1831 1.465 . S
C1837 C1836 1.396 . S
C1837 C1838 1.399 . S
C1838 H1824 0.929 . S
C1838 C1837 1.399 . S
C1838 C1839 1.385 . S
C1839 H1825 0.931 . S
C1839 C1838 1.385 . S
C1839 C1840 1.389 . S
C1840 C1839 1.389 . S
C1840 C1841 1.387 . S
C1841 H1826 0.930 . S
C1841 C1836 1.390 . S
C1841 C1840 1.387 . S
H1842 C1854 0.930 . S
H1843 C1856 0.911 1_565 S
H1844 C1857 0.930 1_565 S
H1845 C1861 0.959 . S
H1846 C1861 0.959 . S
H1847 C1861 0.961 . S
H1848 C1862 0.960 . S
H1849 C1862 0.961 . S
H1850 C1862 0.959 . S
H1851 C1865 0.929 . S
H1852 C1866 0.931 . S
H1853 C1868 0.930 . S
C1854 H1842 0.930 . S
C1854 C1855 1.399 . S
C1854 C1859 1.399 . S
C1855 C1854 1.399 . S
C1855 C1856 1.390 . S
C1856 H1843 0.911 1_545 S
C1856 C1855 1.390 . S
C1856 C1857 1.395 . S
C1857 H1844 0.930 1_545 S
C1857 C1856 1.395 . S
C1857 C1858 1.390 . S
C1858 C1857 1.390 . S
C1858 C1859 1.394 . S
C1858 C1864 1.465 . S
C1859 C1854 1.399 . S
C1859 C1858 1.394 . S
C1859 C1860 1.516 . S
C1860 C1859 1.516 . S
C1860 C1861 1.502 . S
C1860 C1862 1.561 . S
C1860 C1863 1.526 . S
C1861 H1845 0.959 . S
C1861 H1846 0.959 . S
C1861 H1847 0.961 . S
C1861 C1860 1.502 . S
C1862 H1848 0.960 . S
C1862 H1849 0.961 . S
C1862 H1850 0.959 . S
C1862 C1860 1.561 . S
C1863 C1860 1.526 . S
C1863 C1864 1.396 . S
C1863 C1868 1.390 . S
C1864 C1858 1.465 . S
C1864 C1863 1.396 . S
C1864 C1865 1.399 . S
C1865 H1851 0.929 . S
C1865 C1864 1.399 . S
C1865 C1866 1.385 . S
C1866 H1852 0.931 . S
C1866 C1865 1.385 . S
C1866 C1867 1.389 . S
C1867 C1866 1.389 . S
C1867 C1868 1.387 . S
C1868 H1853 0.930 . S
C1868 C1863 1.390 . S
C1868 C1867 1.387 . S
H1869 C1881 0.930 . S
H1870 C1883 0.930 . S
H1871 C1884 0.930 . S
H1872 C1888 0.959 . S
H1873 C1888 0.959 . S
H1874 C1888 0.961 . S
H1875 C1889 0.960 . S
H1876 C1889 0.961 . S
H1877 C1889 0.959 . S
H1878 C1892 0.929 . S
H1879 C1893 0.931 . S
H1880 C1895 0.930 . S
C1881 H1869 0.930 . S
C1881 C1882 1.399 . S
C1881 C1886 1.399 . S
C1882 C1881 1.399 . S
C1882 C1883 1.376 . S
C1883 H1870 0.930 . S
C1883 C1882 1.376 . S
C1883 C1884 1.388 . S
C1884 H1871 0.930 . S
C1884 C1883 1.388 . S
C1884 C1885 1.390 . S
C1885 C1884 1.390 . S
C1885 C1886 1.394 . S
C1885 C1891 1.465 . S
C1886 C1881 1.399 . S
C1886 C1885 1.394 . S
C1886 C1887 1.516 . S
C1887 C1886 1.516 . S
C1887 C1888 1.502 . S
C1887 C1889 1.561 . S
C1887 C1890 1.526 . S
C1888 H1872 0.959 . S
C1888 H1873 0.959 . S
C1888 H1874 0.961 . S
C1888 C1887 1.502 . S
C1889 H1875 0.960 . S
C1889 H1876 0.961 . S
C1889 H1877 0.959 . S
C1889 C1887 1.561 . S
C1890 C1887 1.526 . S
C1890 C1891 1.396 . S
C1890 C1895 1.390 . S
C1891 C1885 1.465 . S
C1891 C1890 1.396 . S
C1891 C1892 1.399 . S
C1892 H1878 0.929 . S
C1892 C1891 1.399 . S
C1892 C1893 1.385 . S
C1893 H1879 0.931 . S
C1893 C1892 1.385 . S
C1893 C1894 1.389 . S
C1894 C1893 1.389 . S
C1894 C1895 1.387 . S
C1895 H1880 0.930 . S
C1895 C1890 1.390 . S
C1895 C1894 1.387 . S
H1896 C1908 0.930 1_556 S
H1897 C1910 0.930 . S
H1898 C1911 0.930 . S
H1899 C1915 0.959 . S
H1900 C1915 0.959 . S
H1901 C1915 0.961 . S
H1902 C1916 0.960 . S
H1903 C1916 0.961 . S
H1904 C1916 0.959 . S
H1905 C1919 0.929 . S
H1906 C1920 0.931 . S
H1907 C1922 0.930 . S
C1908 H1896 0.930 1_554 S
C1908 C1909 1.399 . S
C1908 C1913 1.399 . S
C1909 C1908 1.399 . S
C1909 C1910 1.376 . S
C1910 H1897 0.930 . S
C1910 C1909 1.376 . S
C1910 C1911 1.388 . S
C1911 H1898 0.930 . S
C1911 C1910 1.388 . S
C1911 C1912 1.390 . S
C1912 C1911 1.390 . S
C1912 C1913 1.394 . S
C1912 C1918 1.465 . S
C1913 C1908 1.399 . S
C1913 C1912 1.394 . S
C1913 C1914 1.516 . S
C1914 C1913 1.516 . S
C1914 C1915 1.502 1_554 S
C1914 C1916 1.561 1_554 S
C1914 C1917 1.526 . S
C1915 H1899 0.959 . S
C1915 H1900 0.959 . S
C1915 H1901 0.961 . S
C1915 C1914 1.502 1_556 S
C1916 H1902 0.960 . S
C1916 H1903 0.961 . S
C1916 H1904 0.959 . S
C1916 C1914 1.561 1_556 S
C1917 C1914 1.526 . S
C1917 C1918 1.396 . S
C1917 C1922 1.390 . S
C1918 C1912 1.465 . S
C1918 C1917 1.396 . S
C1918 C1919 1.399 . S
C1919 H1905 0.929 . S
C1919 C1918 1.399 . S
C1919 C1920 1.385 . S
C1920 H1906 0.931 . S
C1920 C1919 1.385 . S
C1920 C1921 1.389 . S
C1921 C1920 1.389 . S
C1921 C1922 1.387 . S
C1922 H1907 0.930 . S
C1922 C1917 1.390 . S
C1922 C1921 1.387 . S
H1923 C1935 0.930 . S
H1924 C1937 0.930 . S
H1925 C1938 0.930 . S
H1926 C1942 0.959 . S
H1927 C1942 0.959 . S
H1928 C1942 0.961 . S
H1929 C1943 0.960 . S
H1930 C1943 0.961 . S
H1931 C1943 0.959 . S
H1932 C1946 0.929 . S
H1933 C1947 0.931 1_556 S
H1934 C1949 0.930 . S
C1935 H1923 0.930 . S
C1935 C1936 1.399 . S
C1935 C1940 1.399 . S
C1936 C1935 1.399 . S
C1936 C1937 1.376 1_554 S
C1937 H1924 0.930 . S
C1937 C1936 1.376 1_556 S
C1937 C1938 1.388 . S
C1938 H1925 0.930 . S
C1938 C1937 1.388 . S
C1938 C1939 1.390 1_556 S
C1939 C1938 1.390 1_554 S
C1939 C1940 1.394 . S
C1939 C1945 1.465 . S
C1940 C1935 1.399 . S
C1940 C1939 1.394 . S
C1940 C1941 1.516 . S
C1941 C1940 1.516 . S
C1941 C1942 1.502 . S
C1941 C1943 1.561 . S
C1941 C1944 1.526 . S
C1942 H1926 0.959 . S
C1942 H1927 0.959 . S
C1942 H1928 0.961 . S
C1942 C1941 1.502 . S
C1943 H1929 0.960 . S
C1943 H1930 0.961 . S
C1943 H1931 0.959 . S
C1943 C1941 1.561 . S
C1944 C1941 1.526 . S
C1944 C1945 1.396 . S
C1944 C1949 1.390 . S
C1945 C1939 1.465 . S
C1945 C1944 1.396 . S
C1945 C1946 1.399 1_554 S
C1946 H1932 0.929 . S
C1946 C1945 1.399 1_556 S
C1946 C1947 1.385 1_556 S
C1947 H1933 0.931 1_554 S
C1947 C1946 1.385 1_554 S
C1947 C1948 1.389 . S
C1948 C1947 1.389 . S
C1948 C1949 1.387 . S
C1949 H1934 0.930 . S
C1949 C1944 1.390 . S
C1949 C1948 1.387 . S
H1950 C1962 0.930 . S
H1951 C1964 0.930 . S
H1952 C1965 0.930 . S
H1953 C1969 0.959 . S
H1954 C1969 0.959 . S
H1955 C1969 0.961 . S
H1956 C1970 0.960 . S
H1957 C1970 0.961 . S
H1958 C1970 0.959 . S
H1959 C1973 0.929 . S
H1960 C1974 0.931 . S
H1961 C1976 0.930 . S
C1962 H1950 0.930 . S
C1962 C1963 1.399 . S
C1962 C1967 1.399 . S
C1963 C1962 1.399 . S
C1963 C1964 1.376 . S
C1964 H1951 0.930 . S
C1964 C1963 1.376 . S
C1964 C1965 1.388 . S
C1965 H1952 0.930 . S
C1965 C1964 1.388 . S
C1965 C1966 1.390 . S
C1966 C1965 1.390 . S
C1966 C1967 1.394 . S
C1966 C1972 1.465 . S
C1967 C1962 1.399 . S
C1967 C1966 1.394 . S
C1967 C1968 1.516 . S
C1968 C1967 1.516 . S
C1968 C1969 1.502 . S
C1968 C1970 1.561 . S
C1968 C1971 1.526 . S
C1969 H1953 0.959 . S
C1969 H1954 0.959 . S
C1969 H1955 0.961 . S
C1969 C1968 1.502 . S
C1970 H1956 0.960 . S
C1970 H1957 0.961 . S
C1970 H1958 0.959 . S
C1970 C1968 1.561 . S
C1971 C1968 1.526 . S
C1971 C1972 1.396 . S
C1971 C1976 1.390 . S
C1972 C1966 1.465 . S
C1972 C1971 1.396 . S
C1972 C1973 1.399 . S
C1973 H1959 0.929 . S
C1973 C1972 1.399 . S
C1973 C1974 1.385 . S
C1974 H1960 0.931 . S
C1974 C1973 1.385 . S
C1974 C1975 1.389 . S
C1975 C1974 1.389 . S
C1975 C1976 1.387 . S
C1976 H1961 0.930 . S
C1976 C1971 1.390 . S
C1976 C1975 1.387 . S
H1977 C1989 0.930 . S
H1978 C1991 0.930 . S
H1979 C1992 0.930 . S
H1980 C1996 0.959 . S
H1981 C1996 0.959 . S
H1982 C1996 0.961 . S
H1983 C1997 0.960 . S
H1984 C1997 0.961 . S
H1985 C1997 0.959 . S
H1986 C2000 0.929 . S
H1987 C2001 0.931 . S
H1988 C2003 0.930 . S
C1989 H1977 0.930 . S
C1989 C1990 1.399 . S
C1989 C1994 1.399 . S
C1990 C1989 1.399 . S
C1990 C1991 1.376 . S
C1991 H1978 0.930 . S
C1991 C1990 1.376 . S
C1991 C1992 1.388 . S
C1992 H1979 0.930 . S
C1992 C1991 1.388 . S
C1992 C1993 1.390 . S
C1993 C1992 1.390 . S
C1993 C1994 1.394 . S
C1993 C1999 1.465 . S
C1994 C1989 1.399 . S
C1994 C1993 1.394 . S
C1994 C1995 1.516 . S
C1995 C1994 1.516 . S
C1995 C1996 1.502 . S
C1995 C1997 1.561 . S
C1995 C1998 1.526 . S
C1996 H1980 0.959 . S
C1996 H1981 0.959 . S
C1996 H1982 0.961 . S
C1996 C1995 1.502 . S
C1997 H1983 0.960 . S
C1997 H1984 0.961 . S
C1997 H1985 0.959 . S
C1997 C1995 1.561 . S
C1998 C1995 1.526 . S
C1998 C1999 1.396 . S
C1998 C2003 1.390 . S
C1999 C1993 1.465 . S
C1999 C1998 1.396 . S
C1999 C2000 1.399 . S
C2000 H1986 0.929 . S
C2000 C1999 1.399 . S
C2000 C2001 1.385 . S
C2001 H1987 0.931 . S
C2001 C2000 1.385 . S
C2001 C2002 1.389 . S
C2002 C2001 1.389 . S
C2002 C2003 1.387 . S
C2003 H1988 0.930 . S
C2003 C1998 1.390 . S
C2003 C2002 1.387 . S
H2004 C2016 0.930 . S
H2005 C2018 0.930 . S
H2006 C2019 0.930 . S
H2007 C2023 0.959 . S
H2008 C2023 0.959 . S
H2009 C2023 0.961 . S
H2010 C2024 0.960 . S
H2011 C2024 0.961 . S
H2012 C2024 0.959 . S
H2013 C2027 0.929 . S
H2014 C2028 0.931 . S
H2015 C2030 0.930 . S
C2016 H2004 0.930 . S
C2016 C2017 1.399 . S
C2016 C2021 1.399 . S
C2017 C2016 1.399 . S
C2017 C2018 1.376 . S
C2018 H2005 0.930 . S
C2018 C2017 1.376 . S
C2018 C2019 1.388 . S
C2019 H2006 0.930 . S
C2019 C2018 1.388 . S
C2019 C2020 1.390 . S
C2020 C2019 1.390 . S
C2020 C2021 1.394 . S
C2020 C2026 1.465 . S
C2021 C2016 1.399 . S
C2021 C2020 1.394 . S
C2021 C2022 1.516 . S
C2022 C2021 1.516 . S
C2022 C2023 1.502 . S
C2022 C2024 1.561 . S
C2022 C2025 1.526 . S
C2023 H2007 0.959 . S
C2023 H2008 0.959 . S
C2023 H2009 0.961 . S
C2023 C2022 1.502 . S
C2024 H2010 0.960 . S
C2024 H2011 0.961 . S
C2024 H2012 0.959 . S
C2024 C2022 1.561 . S
C2025 C2022 1.526 . S
C2025 C2026 1.396 . S
C2025 C2030 1.390 . S
C2026 C2020 1.465 . S
C2026 C2025 1.396 . S
C2026 C2027 1.399 . S
C2027 H2013 0.929 . S
C2027 C2026 1.399 . S
C2027 C2028 1.385 . S
C2028 H2014 0.931 . S
C2028 C2027 1.385 . S
C2028 C2029 1.389 . S
C2029 C2028 1.389 . S
C2029 C2030 1.387 . S
C2030 H2015 0.930 . S
C2030 C2025 1.390 . S
C2030 C2029 1.387 . S
H2031 C2043 0.930 . S
H2032 C2045 0.930 . S
H2033 C2046 0.930 . S
H2034 C2050 0.959 . S
H2035 C2050 0.959 . S
H2036 C2050 0.961 . S
H2037 C2051 0.960 . S
H2038 C2051 0.961 . S
H2039 C2051 0.959 . S
H2040 C2054 0.929 . S
H2041 C2055 0.931 . S
H2042 C2057 0.930 . S
C2043 H2031 0.930 . S
C2043 C2044 1.399 . S
C2043 C2048 1.399 . S
C2044 C2043 1.399 . S
C2044 C2045 1.376 . S
C2045 H2032 0.930 . S
C2045 C2044 1.376 . S
C2045 C2046 1.388 . S
C2046 H2033 0.930 . S
C2046 C2045 1.388 . S
C2046 C2047 1.390 . S
C2047 C2046 1.390 . S
C2047 C2048 1.394 . S
C2047 C2053 1.465 . S
C2048 C2043 1.399 . S
C2048 C2047 1.394 . S
C2048 C2049 1.516 . S
C2049 C2048 1.516 . S
C2049 C2050 1.502 . S
C2049 C2051 1.561 . S
C2049 C2052 1.526 . S
C2050 H2034 0.959 . S
C2050 H2035 0.959 . S
C2050 H2036 0.961 . S
C2050 C2049 1.502 . S
C2051 H2037 0.960 . S
C2051 H2038 0.961 . S
C2051 H2039 0.959 . S
C2051 C2049 1.561 . S
C2052 C2049 1.526 . S
C2052 C2053 1.396 . S
C2052 C2057 1.390 . S
C2053 C2047 1.465 . S
C2053 C2052 1.396 . S
C2053 C2054 1.399 . S
C2054 H2040 0.929 . S
C2054 C2053 1.399 . S
C2054 C2055 1.385 . S
C2055 H2041 0.931 . S
C2055 C2054 1.385 . S
C2055 C2056 1.389 . S
C2056 C2055 1.389 . S
C2056 C2057 1.387 . S
C2057 H2042 0.930 . S
C2057 C2052 1.390 . S
C2057 C2056 1.387 . S
H2058 C2070 0.930 . S
H2059 C2072 0.930 . S
H2060 C2073 0.930 . S
H2061 C2077 0.959 . S
H2062 C2077 0.959 . S
H2063 C2077 0.961 . S
H2064 C2078 0.960 . S
H2065 C2078 0.961 . S
H2066 C2078 0.959 . S
H2067 C2081 0.929 . S
H2068 C2082 0.931 . S
H2069 C2084 0.930 . S
C2070 H2058 0.930 . S
C2070 C2071 1.399 . S
C2070 C2075 1.399 . S
C2071 C2070 1.399 . S
C2071 C2072 1.376 . S
C2072 H2059 0.930 . S
C2072 C2071 1.376 . S
C2072 C2073 1.388 . S
C2073 H2060 0.930 . S
C2073 C2072 1.388 . S
C2073 C2074 1.390 . S
C2074 C2073 1.390 . S
C2074 C2075 1.394 . S
C2074 C2080 1.465 . S
C2075 C2070 1.399 . S
C2075 C2074 1.394 . S
C2075 C2076 1.516 . S
C2076 C2075 1.516 . S
C2076 C2077 1.502 . S
C2076 C2078 1.561 . S
C2076 C2079 1.526 . S
C2077 H2061 0.959 . S
C2077 H2062 0.959 . S
C2077 H2063 0.961 . S
C2077 C2076 1.502 . S
C2078 H2064 0.960 . S
C2078 H2065 0.961 . S
C2078 H2066 0.959 . S
C2078 C2076 1.561 . S
C2079 C2076 1.526 . S
C2079 C2080 1.396 . S
C2079 C2084 1.390 . S
C2080 C2074 1.465 . S
C2080 C2079 1.396 . S
C2080 C2081 1.399 . S
C2081 H2067 0.929 . S
C2081 C2080 1.399 . S
C2081 C2082 1.385 . S
C2082 H2068 0.931 . S
C2082 C2081 1.385 . S
C2082 C2083 1.389 . S
C2083 C2082 1.389 . S
C2083 C2084 1.387 . S
C2084 H2069 0.930 . S
C2084 C2079 1.390 . S
C2084 C2083 1.387 . S
H2085 C2097 0.930 . S
H2086 C2099 0.930 . S
H2087 C2100 0.930 . S
H2088 C2104 0.959 . S
H2089 C2104 0.959 . S
H2090 C2104 0.961 . S
H2091 C2105 0.960 . S
H2092 C2105 0.961 . S
H2093 C2105 0.959 . S
H2094 C2108 0.929 . S
H2095 C2109 0.931 . S
H2096 C2111 0.930 . S
C2097 H2085 0.930 . S
C2097 C2098 1.399 . S
C2097 C2102 1.399 . S
C2098 C2097 1.399 . S
C2098 C2099 1.376 . S
C2099 H2086 0.930 . S
C2099 C2098 1.376 . S
C2099 C2100 1.388 . S
C2100 H2087 0.930 . S
C2100 C2099 1.388 . S
C2100 C2101 1.390 . S
C2101 C2100 1.390 . S
C2101 C2102 1.394 . S
C2101 C2107 1.465 . S
C2102 C2097 1.399 . S
C2102 C2101 1.394 . S
C2102 C2103 1.516 . S
C2103 C2102 1.516 . S
C2103 C2104 1.502 . S
C2103 C2105 1.561 . S
C2103 C2106 1.526 . S
C2104 H2088 0.959 . S
C2104 H2089 0.959 . S
C2104 H2090 0.961 . S
C2104 C2103 1.502 . S
C2105 H2091 0.960 . S
C2105 H2092 0.961 . S
C2105 H2093 0.959 . S
C2105 C2103 1.561 . S
C2106 C2103 1.526 . S
C2106 C2107 1.396 . S
C2106 C2111 1.390 . S
C2107 C2101 1.465 . S
C2107 C2106 1.396 . S
C2107 C2108 1.399 . S
C2108 H2094 0.929 . S
C2108 C2107 1.399 . S
C2108 C2109 1.385 . S
C2109 H2095 0.931 . S
C2109 C2108 1.385 . S
C2109 C2110 1.389 . S
C2110 C2109 1.389 . S
C2110 C2111 1.387 . S
C2111 H2096 0.930 . S
C2111 C2106 1.390 . S
C2111 C2110 1.387 . S
H2112 C2124 0.930 . S
H2113 C2126 0.930 . S
H2114 C2127 0.930 . S
H2115 C2131 0.959 . S
H2116 C2131 0.959 . S
H2117 C2131 0.961 . S
H2118 C2132 0.960 . S
H2119 C2132 0.961 . S
H2120 C2132 0.959 . S
H2121 C2135 0.929 . S
H2122 C2136 0.931 . S
H2123 C2138 0.930 . S
C2124 H2112 0.930 . S
C2124 C2125 1.399 . S
C2124 C2129 1.399 . S
C2125 C2124 1.399 . S
C2125 C2126 1.376 . S
C2126 H2113 0.930 . S
C2126 C2125 1.376 . S
C2126 C2127 1.388 . S
C2127 H2114 0.930 . S
C2127 C2126 1.388 . S
C2127 C2128 1.390 . S
C2128 C2127 1.390 . S
C2128 C2129 1.394 . S
C2128 C2134 1.465 . S
C2129 C2124 1.399 . S
C2129 C2128 1.394 . S
C2129 C2130 1.516 . S
C2130 C2129 1.516 . S
C2130 C2131 1.502 . S
C2130 C2132 1.561 . S
C2130 C2133 1.526 . S
C2131 H2115 0.959 . S
C2131 H2116 0.959 . S
C2131 H2117 0.961 . S
C2131 C2130 1.502 . S
C2132 H2118 0.960 . S
C2132 H2119 0.961 . S
C2132 H2120 0.959 . S
C2132 C2130 1.561 . S
C2133 C2130 1.526 . S
C2133 C2134 1.396 . S
C2133 C2138 1.390 . S
C2134 C2128 1.465 . S
C2134 C2133 1.396 . S
C2134 C2135 1.399 . S
C2135 H2121 0.929 . S
C2135 C2134 1.399 . S
C2135 C2136 1.385 . S
C2136 H2122 0.931 . S
C2136 C2135 1.385 . S
C2136 C2137 1.389 . S
C2137 C2136 1.389 . S
C2137 C2138 1.387 . S
C2138 H2123 0.930 . S
C2138 C2133 1.390 . S
C2138 C2137 1.387 . S
H2139 C2151 0.930 . S
H2140 C2153 0.930 . S
H2141 C2154 0.930 . S
H2142 C2158 0.959 . S
H2143 C2158 0.959 . S
H2144 C2158 0.961 . S
H2145 C2159 0.960 . S
H2146 C2159 0.961 . S
H2147 C2159 0.959 . S
H2148 C2162 0.929 . S
H2149 C2163 0.931 . S
H2150 C2165 0.930 . S
C2151 H2139 0.930 . S
C2151 C2152 1.399 . S
C2151 C2156 1.399 . S
C2152 C2151 1.399 . S
C2152 C2153 1.376 . S
C2153 H2140 0.930 . S
C2153 C2152 1.376 . S
C2153 C2154 1.388 . S
C2154 H2141 0.930 . S
C2154 C2153 1.388 . S
C2154 C2155 1.390 . S
C2155 C2154 1.390 . S
C2155 C2156 1.394 . S
C2155 C2161 1.465 . S
C2156 C2151 1.399 . S
C2156 C2155 1.394 . S
C2156 C2157 1.516 . S
C2157 C2156 1.516 . S
C2157 C2158 1.502 . S
C2157 C2159 1.561 . S
C2157 C2160 1.526 . S
C2158 H2142 0.959 . S
C2158 H2143 0.959 . S
C2158 H2144 0.961 . S
C2158 C2157 1.502 . S
C2159 H2145 0.960 . S
C2159 H2146 0.961 . S
C2159 H2147 0.959 . S
C2159 C2157 1.561 . S
C2160 C2157 1.526 . S
C2160 C2161 1.396 . S
C2160 C2165 1.390 . S
C2161 C2155 1.465 . S
C2161 C2160 1.396 . S
C2161 C2162 1.399 . S
C2162 H2148 0.929 . S
C2162 C2161 1.399 . S
C2162 C2163 1.385 . S
C2163 H2149 0.931 . S
C2163 C2162 1.385 . S
C2163 C2164 1.389 . S
C2164 C2163 1.389 . S
C2164 C2165 1.387 . S
C2165 H2150 0.930 . S
C2165 C2160 1.390 . S
C2165 C2164 1.387 . S
H2166 C2178 0.930 . S
H2167 C2180 0.930 . S
H2168 C2181 0.930 . S
H2169 C2185 0.959 . S
H2170 C2185 0.959 . S
H2171 C2185 0.961 . S
H2172 C2186 0.960 . S
H2173 C2186 0.961 . S
H2174 C2186 0.959 . S
H2175 C2189 0.929 . S
H2176 C2190 0.931 . S
H2177 C2192 0.930 . S
C2178 H2166 0.930 . S
C2178 C2179 1.399 . S
C2178 C2183 1.399 . S
C2179 C2178 1.399 . S
C2179 C2180 1.376 . S
C2180 H2167 0.930 . S
C2180 C2179 1.376 . S
C2180 C2181 1.388 . S
C2181 H2168 0.930 . S
C2181 C2180 1.388 . S
C2181 C2182 1.390 . S
C2182 C2181 1.390 . S
C2182 C2183 1.394 . S
C2182 C2188 1.465 . S
C2183 C2178 1.399 . S
C2183 C2182 1.394 . S
C2183 C2184 1.516 . S
C2184 C2183 1.516 . S
C2184 C2185 1.502 . S
C2184 C2186 1.561 . S
C2184 C2187 1.526 . S
C2185 H2169 0.959 . S
C2185 H2170 0.959 . S
C2185 H2171 0.961 . S
C2185 C2184 1.502 . S
C2186 H2172 0.960 . S
C2186 H2173 0.961 . S
C2186 H2174 0.959 . S
C2186 C2184 1.561 . S
C2187 C2184 1.526 . S
C2187 C2188 1.396 . S
C2187 C2192 1.390 . S
C2188 C2182 1.465 . S
C2188 C2187 1.396 . S
C2188 C2189 1.399 . S
C2189 H2175 0.929 . S
C2189 C2188 1.399 . S
C2189 C2190 1.385 . S
C2190 H2176 0.931 . S
C2190 C2189 1.385 . S
C2190 C2191 1.389 . S
C2191 C2190 1.389 . S
C2191 C2192 1.387 . S
C2192 H2177 0.930 . S
C2192 C2187 1.390 . S
C2192 C2191 1.387 . S
H2193 C2205 0.930 . S
H2194 C2207 0.930 . S
H2195 C2208 0.930 . S
H2196 C2212 0.959 . S
H2197 C2212 0.959 . S
H2198 C2212 0.961 . S
H2199 C2213 0.960 . S
H2200 C2213 0.961 . S
H2201 C2213 0.959 . S
H2202 C2216 0.929 . S
H2203 C2217 0.931 . S
H2204 C2219 0.930 . S
C2205 H2193 0.930 . S
C2205 C2206 1.399 . S
C2205 C2210 1.399 . S
C2206 C2205 1.399 . S
C2206 C2207 1.376 . S
C2207 H2194 0.930 . S
C2207 C2206 1.376 . S
C2207 C2208 1.388 . S
C2208 H2195 0.930 . S
C2208 C2207 1.388 . S
C2208 C2209 1.390 . S
C2209 C2208 1.390 . S
C2209 C2210 1.394 . S
C2209 C2215 1.465 . S
C2210 C2205 1.399 . S
C2210 C2209 1.394 . S
C2210 C2211 1.516 . S
C2211 C2210 1.516 . S
C2211 C2212 1.502 . S
C2211 C2213 1.561 . S
C2211 C2214 1.526 . S
C2212 H2196 0.959 . S
C2212 H2197 0.959 . S
C2212 H2198 0.961 . S
C2212 C2211 1.502 . S
C2213 H2199 0.960 . S
C2213 H2200 0.961 . S
C2213 H2201 0.959 . S
C2213 C2211 1.561 . S
C2214 C2211 1.526 . S
C2214 C2215 1.396 . S
C2214 C2219 1.390 . S
C2215 C2209 1.465 . S
C2215 C2214 1.396 . S
C2215 C2216 1.399 . S
C2216 H2202 0.929 . S
C2216 C2215 1.399 . S
C2216 C2217 1.385 . S
C2217 H2203 0.931 . S
C2217 C2216 1.385 . S
C2217 C2218 1.389 . S
C2218 C2217 1.389 . S
C2218 C2219 1.387 . S
C2219 H2204 0.930 . S
C2219 C2214 1.390 . S
C2219 C2218 1.387 . S
H2220 C2232 0.930 . S
H2221 C2234 0.930 . S
H2222 C2235 0.930 . S
H2223 C2239 0.959 . S
H2224 C2239 0.959 1_554 S
H2225 C2239 0.961 . S
H2226 C2240 0.960 . S
H2227 C2240 0.961 . S
H2228 C2240 0.959 . S
H2229 C2243 0.929 . S
H2230 C2244 0.931 . S
H2231 C2246 0.930 . S
C2232 H2220 0.930 . S
C2232 C2233 1.399 . S
C2232 C2237 1.399 . S
C2233 C2232 1.399 . S
C2233 C2234 1.376 . S
C2234 H2221 0.930 . S
C2234 C2233 1.376 . S
C2234 C2235 1.388 . S
C2235 H2222 0.930 . S
C2235 C2234 1.388 . S
C2235 C2236 1.390 . S
C2236 C2235 1.390 . S
C2236 C2237 1.394 . S
C2236 C2242 1.465 . S
C2237 C2232 1.399 . S
C2237 C2236 1.394 . S
C2237 C2238 1.516 . S
C2238 C2237 1.516 . S
C2238 C2239 1.502 . S
C2238 C2240 1.561 1_556 S
C2238 C2241 1.526 . S
C2239 H2223 0.959 . S
C2239 H2224 0.959 1_556 S
C2239 H2225 0.961 . S
C2239 C2238 1.502 . S
C2240 H2226 0.960 . S
C2240 H2227 0.961 . S
C2240 H2228 0.959 . S
C2240 C2238 1.561 1_554 S
C2241 C2238 1.526 . S
C2241 C2242 1.396 . S
C2241 C2246 1.390 1_556 S
C2242 C2236 1.465 . S
C2242 C2241 1.396 . S
C2242 C2243 1.399 . S
C2243 H2229 0.929 . S
C2243 C2242 1.399 . S
C2243 C2244 1.385 . S
C2244 H2230 0.931 . S
C2244 C2243 1.385 . S
C2244 C2245 1.411 . S
C2245 C2244 1.411 . S
C2245 C2246 1.383 1_556 S
C2246 H2231 0.930 . S
C2246 C2241 1.390 1_554 S
C2246 C2245 1.383 1_554 S
H2247 C2259 0.930 . S
H2248 C2261 0.930 . S
H2249 C2262 0.930 . S
H2250 C2266 0.959 . S
H2251 C2266 0.959 . S
H2252 C2266 0.961 . S
H2253 C2267 0.960 . S
H2254 C2267 0.961 . S
H2255 C2267 0.959 . S
H2256 C2270 0.929 . S
H2257 C2271 0.931 . S
H2258 C2273 0.930 . S
C2259 H2247 0.930 . S
C2259 C2260 1.399 . S
C2259 C2264 1.399 . S
C2260 C2259 1.399 . S
C2260 C2261 1.376 . S
C2261 H2248 0.930 . S
C2261 C2260 1.376 . S
C2261 C2262 1.388 . S
C2262 H2249 0.930 . S
C2262 C2261 1.388 . S
C2262 C2263 1.390 . S
C2263 C2262 1.390 . S
C2263 C2264 1.394 . S
C2263 C2269 1.465 . S
C2264 C2259 1.399 . S
C2264 C2263 1.394 . S
C2264 C2265 1.516 . S
C2265 C2264 1.516 . S
C2265 C2266 1.502 . S
C2265 C2267 1.561 . S
C2265 C2268 1.526 . S
C2266 H2250 0.959 . S
C2266 H2251 0.959 . S
C2266 H2252 0.961 . S
C2266 C2265 1.502 . S
C2267 H2253 0.960 . S
C2267 H2254 0.961 . S
C2267 H2255 0.959 . S
C2267 C2265 1.561 . S
C2268 C2265 1.526 . S
C2268 C2269 1.396 . S
C2268 C2273 1.390 . S
C2269 C2263 1.465 . S
C2269 C2268 1.396 . S
C2269 C2270 1.399 . S
C2270 H2256 0.929 . S
C2270 C2269 1.399 . S
C2270 C2271 1.385 . S
C2271 H2257 0.931 . S
C2271 C2270 1.385 . S
C2271 C2272 1.389 . S
C2272 C2271 1.389 . S
C2272 C2273 1.387 . S
C2273 H2258 0.930 . S
C2273 C2268 1.390 . S
C2273 C2272 1.387 . S
H2274 C2286 0.930 . S
H2275 C2288 0.930 . S
H2276 C2289 0.930 . S
H2277 C2293 0.959 . S
H2278 C2293 0.959 . S
H2279 C2293 0.961 . S
H2280 C2294 0.960 . S
H2281 C2294 0.961 . S
H2282 C2294 0.959 . S
H2283 C2297 0.929 . S
H2284 C2298 0.931 . S
H2285 C2300 0.930 . S
C2286 H2274 0.930 . S
C2286 C2287 1.399 . S
C2286 C2291 1.399 . S
C2287 C2286 1.399 . S
C2287 C2288 1.376 . S
C2288 H2275 0.930 . S
C2288 C2287 1.376 . S
C2288 C2289 1.388 . S
C2289 H2276 0.930 . S
C2289 C2288 1.388 . S
C2289 C2290 1.390 . S
C2290 C2289 1.390 . S
C2290 C2291 1.394 . S
C2290 C2296 1.465 . S
C2291 C2286 1.399 . S
C2291 C2290 1.394 . S
C2291 C2292 1.516 . S
C2292 C2291 1.516 . S
C2292 C2293 1.502 . S
C2292 C2294 1.561 . S
C2292 C2295 1.526 . S
C2293 H2277 0.959 . S
C2293 H2278 0.959 . S
C2293 H2279 0.961 . S
C2293 C2292 1.502 . S
C2294 H2280 0.960 . S
C2294 H2281 0.961 . S
C2294 H2282 0.959 . S
C2294 C2292 1.561 . S
C2295 C2292 1.526 . S
C2295 C2296 1.396 . S
C2295 C2300 1.390 . S
C2296 C2290 1.465 . S
C2296 C2295 1.396 . S
C2296 C2297 1.399 . S
C2297 H2283 0.929 . S
C2297 C2296 1.399 . S
C2297 C2298 1.385 . S
C2298 H2284 0.931 . S
C2298 C2297 1.385 . S
C2298 C2299 1.389 . S
C2299 C2298 1.389 . S
C2299 C2300 1.387 . S
C2300 H2285 0.930 . S
C2300 C2295 1.390 . S
C2300 C2299 1.387 . S
H2301 C2313 0.930 . S
H2302 C2315 0.930 . S
H2303 C2316 0.930 . S
H2304 C2320 0.959 . S
H2305 C2320 0.959 . S
H2306 C2320 0.961 . S
H2307 C2321 0.960 . S
H2308 C2321 0.961 . S
H2309 C2321 0.959 . S
H2310 C2324 0.929 . S
H2311 C2325 0.931 . S
H2312 C2327 0.930 . S
C2313 H2301 0.930 . S
C2313 C2314 1.399 . S
C2313 C2318 1.399 . S
C2314 C2313 1.399 . S
C2314 C2315 1.376 . S
C2315 H2302 0.930 . S
C2315 C2314 1.376 . S
C2315 C2316 1.388 . S
C2316 H2303 0.930 . S
C2316 C2315 1.388 . S
C2316 C2317 1.390 . S
C2317 C2316 1.390 . S
C2317 C2318 1.394 . S
C2317 C2323 1.465 . S
C2318 C2313 1.399 . S
C2318 C2317 1.394 . S
C2318 C2319 1.516 . S
C2319 C2318 1.516 . S
C2319 C2320 1.502 . S
C2319 C2321 1.561 . S
C2319 C2322 1.526 . S
C2320 H2304 0.959 . S
C2320 H2305 0.959 . S
C2320 H2306 0.961 . S
C2320 C2319 1.502 . S
C2321 H2307 0.960 . S
C2321 H2308 0.961 . S
C2321 H2309 0.959 . S
C2321 C2319 1.561 . S
C2322 C2319 1.526 . S
C2322 C2323 1.396 . S
C2322 C2327 1.390 . S
C2323 C2317 1.465 . S
C2323 C2322 1.396 . S
C2323 C2324 1.399 . S
C2324 H2310 0.929 . S
C2324 C2323 1.399 . S
C2324 C2325 1.385 . S
C2325 H2311 0.931 . S
C2325 C2324 1.385 . S
C2325 C2326 1.389 . S
C2326 C2325 1.389 . S
C2326 C2327 1.387 . S
C2327 H2312 0.930 . S
C2327 C2322 1.390 . S
C2327 C2326 1.387 . S
H2328 C2340 0.930 . S
H2329 C2342 0.930 . S
H2330 C2343 0.930 . S
H2331 C2347 0.959 . S
H2332 C2347 0.959 . S
H2333 C2347 0.961 . S
H2334 C2348 0.960 . S
H2335 C2348 0.961 . S
H2336 C2348 0.959 . S
H2337 C2351 0.929 . S
H2338 C2352 0.931 . S
H2339 C2354 0.930 . S
C2340 H2328 0.930 . S
C2340 C2341 1.399 . S
C2340 C2345 1.399 . S
C2341 C2340 1.399 . S
C2341 C2342 1.376 . S
C2342 H2329 0.930 . S
C2342 C2341 1.376 . S
C2342 C2343 1.388 . S
C2343 H2330 0.930 . S
C2343 C2342 1.388 . S
C2343 C2344 1.390 . S
C2344 C2343 1.390 . S
C2344 C2345 1.394 . S
C2344 C2350 1.465 . S
C2345 C2340 1.399 . S
C2345 C2344 1.394 . S
C2345 C2346 1.516 . S
C2346 C2345 1.516 . S
C2346 C2347 1.502 . S
C2346 C2348 1.561 . S
C2346 C2349 1.526 . S
C2347 H2331 0.959 . S
C2347 H2332 0.959 . S
C2347 H2333 0.961 . S
C2347 C2346 1.502 . S
C2348 H2334 0.960 . S
C2348 H2335 0.961 . S
C2348 H2336 0.959 . S
C2348 C2346 1.561 . S
C2349 C2346 1.526 . S
C2349 C2350 1.396 . S
C2349 C2354 1.390 . S
C2350 C2344 1.465 . S
C2350 C2349 1.396 . S
C2350 C2351 1.399 . S
C2351 H2337 0.929 . S
C2351 C2350 1.399 . S
C2351 C2352 1.385 . S
C2352 H2338 0.931 . S
C2352 C2351 1.385 . S
C2352 C2353 1.389 . S
C2353 C2352 1.389 . S
C2353 C2354 1.387 . S
C2354 H2339 0.930 . S
C2354 C2349 1.390 . S
C2354 C2353 1.387 . S
H2355 C2367 0.930 . S
H2356 C2369 0.930 1_554 S
H2357 C2370 0.930 . S
H2358 C2374 0.959 . S
H2359 C2374 0.959 . S
H2360 C2374 0.961 . S
H2361 C2375 0.960 . S
H2362 C2375 0.961 . S
H2363 C2375 0.959 . S
H2364 C2378 0.929 . S
H2365 C2379 0.931 . S
H2366 C2381 0.930 . S
C2367 H2355 0.930 . S
C2367 C2368 1.399 . S
C2367 C2372 1.399 . S
C2368 C2367 1.399 . S
C2368 C2369 1.376 . S
C2369 H2356 0.930 1_556 S
C2369 C2368 1.376 . S
C2369 C2370 1.388 . S
C2370 H2357 0.930 . S
C2370 C2369 1.388 . S
C2370 C2371 1.390 . S
C2371 C2370 1.390 . S
C2371 C2372 1.394 . S
C2371 C2377 1.465 . S
C2372 C2367 1.399 . S
C2372 C2371 1.394 . S
C2372 C2373 1.516 . S
C2373 C2372 1.516 . S
C2373 C2374 1.502 . S
C2373 C2375 1.561 . S
C2373 C2376 1.526 . S
C2374 H2358 0.959 . S
C2374 H2359 0.959 . S
C2374 H2360 0.961 . S
C2374 C2373 1.502 . S
C2375 H2361 0.960 . S
C2375 H2362 0.961 . S
C2375 H2363 0.959 . S
C2375 C2373 1.561 . S
C2376 C2373 1.526 . S
C2376 C2377 1.396 . S
C2376 C2381 1.390 . S
C2377 C2371 1.465 . S
C2377 C2376 1.396 . S
C2377 C2378 1.399 . S
C2378 H2364 0.929 . S
C2378 C2377 1.399 . S
C2378 C2379 1.385 . S
C2379 H2365 0.931 . S
C2379 C2378 1.385 . S
C2379 C2380 1.389 . S
C2380 C2379 1.389 . S
C2380 C2381 1.387 . S
C2381 H2366 0.930 . S
C2381 C2376 1.390 . S
C2381 C2380 1.387 . S
H2382 C2394 0.930 . S
H2383 C2396 0.930 . S
H2384 C2397 0.930 . S
H2385 C2401 0.959 . S
H2386 C2401 0.959 . S
H2387 C2401 0.961 . S
H2388 C2402 0.960 . S
H2389 C2402 0.961 . S
H2390 C2402 0.959 . S
H2391 C2405 0.929 . S
H2392 C2406 0.931 . S
H2393 C2408 0.930 . S
C2394 H2382 0.930 . S
C2394 C2395 1.399 . S
C2394 C2399 1.399 . S
C2395 C2394 1.399 . S
C2395 C2396 1.376 . S
C2396 H2383 0.930 . S
C2396 C2395 1.376 . S
C2396 C2397 1.388 . S
C2397 H2384 0.930 . S
C2397 C2396 1.388 . S
C2397 C2398 1.390 . S
C2398 C2397 1.390 . S
C2398 C2399 1.394 . S
C2398 C2404 1.465 . S
C2399 C2394 1.399 . S
C2399 C2398 1.394 . S
C2399 C2400 1.516 . S
C2400 C2399 1.516 . S
C2400 C2401 1.502 . S
C2400 C2402 1.561 . S
C2400 C2403 1.526 . S
C2401 H2385 0.959 . S
C2401 H2386 0.959 . S
C2401 H2387 0.961 . S
C2401 C2400 1.502 . S
C2402 H2388 0.960 . S
C2402 H2389 0.961 . S
C2402 H2390 0.959 . S
C2402 C2400 1.561 . S
C2403 C2400 1.526 . S
C2403 C2404 1.396 . S
C2403 C2408 1.390 . S
C2404 C2398 1.465 . S
C2404 C2403 1.396 . S
C2404 C2405 1.399 . S
C2405 H2391 0.929 . S
C2405 C2404 1.399 . S
C2405 C2406 1.385 1_655 S
C2406 H2392 0.931 . S
C2406 C2405 1.385 1_455 S
C2406 C2407 1.389 . S
C2407 C2406 1.389 . S
C2407 C2408 1.387 1_455 S
C2408 H2393 0.930 . S
C2408 C2403 1.390 . S
C2408 C2407 1.387 1_655 S
H2409 C2421 0.930 . S
H2410 C2423 0.930 . S
H2411 C2424 0.930 . S
H2412 C2428 0.959 . S
H2413 C2428 0.959 . S
H2414 C2428 0.961 . S
H2415 C2429 0.960 . S
H2416 C2429 0.961 . S
H2417 C2429 0.959 . S
H2418 C2432 0.929 . S
H2419 C2433 0.931 . S
H2420 C2435 0.930 . S
C2421 H2409 0.930 . S
C2421 C2422 1.399 . S
C2421 C2426 1.399 . S
C2422 C2421 1.399 . S
C2422 C2423 1.376 . S
C2423 H2410 0.930 . S
C2423 C2422 1.376 . S
C2423 C2424 1.388 . S
C2424 H2411 0.930 . S
C2424 C2423 1.388 . S
C2424 C2425 1.390 . S
C2425 C2424 1.390 . S
C2425 C2426 1.394 . S
C2425 C2431 1.465 . S
C2426 C2421 1.399 . S
C2426 C2425 1.394 . S
C2426 C2427 1.516 . S
C2427 C2426 1.516 . S
C2427 C2428 1.502 . S
C2427 C2429 1.561 . S
C2427 C2430 1.526 . S
C2428 H2412 0.959 . S
C2428 H2413 0.959 . S
C2428 H2414 0.961 . S
C2428 C2427 1.502 . S
C2429 H2415 0.960 . S
C2429 H2416 0.961 . S
C2429 H2417 0.959 . S
C2429 C2427 1.561 . S
C2430 C2427 1.526 . S
C2430 C2431 1.396 . S
C2430 C2435 1.390 . S
C2431 C2425 1.465 . S
C2431 C2430 1.396 . S
C2431 C2432 1.399 . S
C2432 H2418 0.929 . S
C2432 C2431 1.399 . S
C2432 C2433 1.385 . S
C2433 H2419 0.931 . S
C2433 C2432 1.385 . S
C2433 C2434 1.389 . S
C2434 C2433 1.389 . S
C2434 C2435 1.387 . S
C2435 H2420 0.930 . S
C2435 C2430 1.390 . S
C2435 C2434 1.387 . S
H2436 C2448 0.930 . S
H2437 C2450 0.930 . S
H2438 C2451 0.930 . S
H2439 C2455 0.959 . S
H2440 C2455 0.959 . S
H2441 C2455 0.961 . S
H2442 C2456 0.960 . S
H2443 C2456 0.961 . S
H2444 C2456 0.959 . S
H2445 C2459 0.929 . S
H2446 C2460 0.931 . S
H2447 C2462 0.930 . S
C2448 H2436 0.930 . S
C2448 C2449 1.399 . S
C2448 C2453 1.399 . S
C2449 C2448 1.399 . S
C2449 C2450 1.376 . S
C2450 H2437 0.930 . S
C2450 C2449 1.376 . S
C2450 C2451 1.388 . S
C2451 H2438 0.930 . S
C2451 C2450 1.388 . S
C2451 C2452 1.390 . S
C2452 C2451 1.390 . S
C2452 C2453 1.394 . S
C2452 C2458 1.465 . S
C2453 C2448 1.399 . S
C2453 C2452 1.394 . S
C2453 C2454 1.516 . S
C2454 C2453 1.516 . S
C2454 C2455 1.502 . S
C2454 C2456 1.561 . S
C2454 C2457 1.526 . S
C2455 H2439 0.959 . S
C2455 H2440 0.959 . S
C2455 H2441 0.961 . S
C2455 C2454 1.502 . S
C2456 H2442 0.960 . S
C2456 H2443 0.961 . S
C2456 H2444 0.959 . S
C2456 C2454 1.561 . S
C2457 C2454 1.526 . S
C2457 C2458 1.396 . S
C2457 C2462 1.390 . S
C2458 C2452 1.465 . S
C2458 C2457 1.396 . S
C2458 C2459 1.399 . S
C2459 H2445 0.929 . S
C2459 C2458 1.399 . S
C2459 C2460 1.385 . S
C2460 H2446 0.931 . S
C2460 C2459 1.385 . S
C2460 C2461 1.389 . S
C2461 C2460 1.389 . S
C2461 C2462 1.387 . S
C2462 H2447 0.930 . S
C2462 C2457 1.390 . S
C2462 C2461 1.387 . S
H2463 C2475 0.930 . S
H2464 C2477 0.930 . S
H2465 C2478 0.930 . S
H2466 C2482 0.959 . S
H2467 C2482 0.959 . S
H2468 C2482 0.961 . S
H2469 C2483 0.960 . S
H2470 C2483 0.961 . S
H2471 C2483 0.959 . S
H2472 C2486 0.929 . S
H2473 C2487 0.931 . S
H2474 C2489 0.930 . S
C2475 H2463 0.930 . S
C2475 C2476 1.399 . S
C2475 C2480 1.399 . S
C2476 C2475 1.399 . S
C2476 C2477 1.376 . S
C2477 H2464 0.930 . S
C2477 C2476 1.376 . S
C2477 C2478 1.388 . S
C2478 H2465 0.930 . S
C2478 C2477 1.388 . S
C2478 C2479 1.390 . S
C2479 C2478 1.390 . S
C2479 C2480 1.394 . S
C2479 C2485 1.465 . S
C2480 C2475 1.399 . S
C2480 C2479 1.394 . S
C2480 C2481 1.516 . S
C2481 C2480 1.516 . S
C2481 C2482 1.502 . S
C2481 C2483 1.561 . S
C2481 C2484 1.526 . S
C2482 H2466 0.959 . S
C2482 H2467 0.959 . S
C2482 H2468 0.961 . S
C2482 C2481 1.502 . S
C2483 H2469 0.960 . S
C2483 H2470 0.961 . S
C2483 H2471 0.959 . S
C2483 C2481 1.561 . S
C2484 C2481 1.526 . S
C2484 C2485 1.396 . S
C2484 C2489 1.390 . S
C2485 C2479 1.465 . S
C2485 C2484 1.396 . S
C2485 C2486 1.399 . S
C2486 H2472 0.929 . S
C2486 C2485 1.399 . S
C2486 C2487 1.385 . S
C2487 H2473 0.931 . S
C2487 C2486 1.385 . S
C2487 C2488 1.389 . S
C2488 C2487 1.389 . S
C2488 C2489 1.387 . S
C2489 H2474 0.930 . S
C2489 C2484 1.390 . S
C2489 C2488 1.387 . S
H2490 C2502 0.930 . S
H2491 C2504 0.930 . S
H2492 C2505 0.930 . S
H2493 C2509 0.959 1_655 S
H2494 C2509 0.959 . S
H2495 C2509 0.961 . S
H2496 C2510 0.960 . S
H2497 C2510 0.961 . S
H2498 C2510 0.959 . S
H2499 C2513 0.929 . S
H2500 C2514 0.931 . S
H2501 C2516 0.930 . S
C2502 H2490 0.930 . S
C2502 C2503 1.399 . S
C2502 C2507 1.399 . S
C2503 C2502 1.399 . S
C2503 C2504 1.376 . S
C2504 H2491 0.930 . S
C2504 C2503 1.376 . S
C2504 C2505 1.388 . S
C2505 H2492 0.930 . S
C2505 C2504 1.388 . S
C2505 C2506 1.390 . S
C2506 C2505 1.390 . S
C2506 C2507 1.394 . S
C2506 C2512 1.465 . S
C2507 C2502 1.399 . S
C2507 C2506 1.394 . S
C2507 C2508 1.516 . S
C2508 C2507 1.516 . S
C2508 C2509 1.502 1_655 S
C2508 C2510 1.561 1_655 S
C2508 C2511 1.526 . S
C2509 H2493 0.959 1_455 S
C2509 H2494 0.959 . S
C2509 H2495 0.961 . S
C2509 C2508 1.502 1_455 S
C2510 H2496 0.960 . S
C2510 H2497 0.961 . S
C2510 H2498 0.959 . S
C2510 C2508 1.561 1_455 S
C2511 C2508 1.526 . S
C2511 C2512 1.396 . S
C2511 C2516 1.390 1_655 S
C2512 C2506 1.465 . S
C2512 C2511 1.396 . S
C2512 C2513 1.399 . S
C2513 H2499 0.929 . S
C2513 C2512 1.399 . S
C2513 C2514 1.385 . S
C2514 H2500 0.931 . S
C2514 C2513 1.385 . S
C2514 C2515 1.389 . S
C2515 C2514 1.389 . S
C2515 C2516 1.387 1_655 S
C2516 H2501 0.930 . S
C2516 C2511 1.390 1_455 S
C2516 C2515 1.387 1_455 S
H2517 C2529 0.930 . S
H2518 C2531 0.930 . S
H2519 C2532 0.930 . S
H2520 C2536 0.959 . S
H2521 C2536 0.959 . S
H2522 C2536 0.961 . S
H2523 C2537 0.960 . S
H2524 C2537 0.961 . S
H2525 C2537 0.959 . S
H2526 C2540 0.929 . S
H2527 C2541 0.931 . S
H2528 C2543 0.930 . S
C2529 H2517 0.930 . S
C2529 C2530 1.399 . S
C2529 C2534 1.399 . S
C2530 C2529 1.399 . S
C2530 C2531 1.376 . S
C2531 H2518 0.930 . S
C2531 C2530 1.376 . S
C2531 C2532 1.388 . S
C2532 H2519 0.930 . S
C2532 C2531 1.388 . S
C2532 C2533 1.390 . S
C2533 C2532 1.390 . S
C2533 C2534 1.394 . S
C2533 C2539 1.465 . S
C2534 C2529 1.399 . S
C2534 C2533 1.394 . S
C2534 C2535 1.516 . S
C2535 C2534 1.516 . S
C2535 C2536 1.502 . S
C2535 C2537 1.561 . S
C2535 C2538 1.526 . S
C2536 H2520 0.959 . S
C2536 H2521 0.959 . S
C2536 H2522 0.961 . S
C2536 C2535 1.502 . S
C2537 H2523 0.960 . S
C2537 H2524 0.961 . S
C2537 H2525 0.959 . S
C2537 C2535 1.561 . S
C2538 C2535 1.526 . S
C2538 C2539 1.396 . S
C2538 C2543 1.390 . S
C2539 C2533 1.465 . S
C2539 C2538 1.396 . S
C2539 C2540 1.399 . S
C2540 H2526 0.929 . S
C2540 C2539 1.399 . S
C2540 C2541 1.385 . S
C2541 H2527 0.931 . S
C2541 C2540 1.385 . S
C2541 C2542 1.389 . S
C2542 C2541 1.389 . S
C2542 C2543 1.387 . S
C2543 H2528 0.930 . S
C2543 C2538 1.390 . S
C2543 C2542 1.387 . S
H2544 C2556 0.930 . S
H2545 C2558 0.930 . S
H2546 C2559 0.930 . S
H2547 C2563 0.959 . S
H2548 C2563 0.959 . S
H2549 C2563 0.961 . S
H2550 C2564 0.960 . S
H2551 C2564 0.961 . S
H2552 C2564 0.959 . S
H2553 C2567 0.929 . S
H2554 C2568 0.931 . S
H2555 C2570 0.930 . S
C2556 H2544 0.930 . S
C2556 C2557 1.399 . S
C2556 C2561 1.399 . S
C2557 C2556 1.399 . S
C2557 C2558 1.376 . S
C2558 H2545 0.930 . S
C2558 C2557 1.376 . S
C2558 C2559 1.388 . S
C2559 H2546 0.930 . S
C2559 C2558 1.388 . S
C2559 C2560 1.390 . S
C2560 C2559 1.390 . S
C2560 C2561 1.394 . S
C2560 C2566 1.465 . S
C2561 C2556 1.399 . S
C2561 C2560 1.394 . S
C2561 C2562 1.516 . S
C2562 C2561 1.516 . S
C2562 C2563 1.502 . S
C2562 C2564 1.561 . S
C2562 C2565 1.526 . S
C2563 H2547 0.959 . S
C2563 H2548 0.959 . S
C2563 H2549 0.961 . S
C2563 C2562 1.502 . S
C2564 H2550 0.960 . S
C2564 H2551 0.961 . S
C2564 H2552 0.959 . S
C2564 C2562 1.561 . S
C2565 C2562 1.526 . S
C2565 C2566 1.396 . S
C2565 C2570 1.390 . S
C2566 C2560 1.465 . S
C2566 C2565 1.396 . S
C2566 C2567 1.399 . S
C2567 H2553 0.929 . S
C2567 C2566 1.399 . S
C2567 C2568 1.385 . S
C2568 H2554 0.931 . S
C2568 C2567 1.385 . S
C2568 C2569 1.389 . S
C2569 C2568 1.389 . S
C2569 C2570 1.387 . S
C2570 H2555 0.930 . S
C2570 C2565 1.390 . S
C2570 C2569 1.387 . S
H2571 C2583 0.930 . S
H2572 C2585 0.930 . S
H2573 C2586 0.930 . S
H2574 C2590 0.959 . S
H2575 C2590 0.959 . S
H2576 C2590 0.961 . S
H2577 C2591 0.960 . S
H2578 C2591 0.961 . S
H2579 C2591 0.959 . S
H2580 C2594 0.929 . S
H2581 C2595 0.931 . S
H2582 C2597 0.930 . S
C2583 H2571 0.930 . S
C2583 C2584 1.399 . S
C2583 C2588 1.399 . S
C2584 C2583 1.399 . S
C2584 C2585 1.376 . S
C2585 H2572 0.930 . S
C2585 C2584 1.376 . S
C2585 C2586 1.388 . S
C2586 H2573 0.930 . S
C2586 C2585 1.388 . S
C2586 C2587 1.390 . S
C2587 C2586 1.390 . S
C2587 C2588 1.394 . S
C2587 C2593 1.465 . S
C2588 C2583 1.399 . S
C2588 C2587 1.394 . S
C2588 C2589 1.516 . S
C2589 C2588 1.516 . S
C2589 C2590 1.502 . S
C2589 C2591 1.561 . S
C2589 C2592 1.526 . S
C2590 H2574 0.959 . S
C2590 H2575 0.959 . S
C2590 H2576 0.961 . S
C2590 C2589 1.502 . S
C2591 H2577 0.960 . S
C2591 H2578 0.961 . S
C2591 H2579 0.959 . S
C2591 C2589 1.561 . S
C2592 C2589 1.526 . S
C2592 C2593 1.396 . S
C2592 C2597 1.390 . S
C2593 C2587 1.465 . S
C2593 C2592 1.396 . S
C2593 C2594 1.399 . S
C2594 H2580 0.929 . S
C2594 C2593 1.399 . S
C2594 C2595 1.385 1_565 S
C2595 H2581 0.931 . S
C2595 C2594 1.385 1_545 S
C2595 C2596 1.389 . S
C2596 C2595 1.389 . S
C2596 C2597 1.387 1_545 S
C2597 H2582 0.930 . S
C2597 C2592 1.390 . S
C2597 C2596 1.387 1_565 S
H2598 C2610 0.930 . S
H2599 C2612 0.930 . S
H2600 C2613 0.930 . S
H2601 C2617 0.959 . S
H2602 C2617 0.959 . S
H2603 C2617 0.961 . S
H2604 C2618 0.960 . S
H2605 C2618 0.961 . S
H2606 C2618 0.959 . S
H2607 C2621 0.929 . S
H2608 C2622 0.931 . S
H2609 C2624 0.930 . S
C2610 H2598 0.930 . S
C2610 C2611 1.421 . S
C2610 C2615 1.399 . S
C2611 C2610 1.421 . S
C2611 C2612 1.372 1_565 S
C2612 H2599 0.930 . S
C2612 C2611 1.372 1_545 S
C2612 C2613 1.388 1_545 S
C2613 H2600 0.930 . S
C2613 C2612 1.388 1_565 S
C2613 C2614 1.390 . S
C2614 C2613 1.390 . S
C2614 C2615 1.394 . S
C2614 C2620 1.465 . S
C2615 C2610 1.399 . S
C2615 C2614 1.394 . S
C2615 C2616 1.516 . S
C2616 C2615 1.516 . S
C2616 C2617 1.502 . S
C2616 C2618 1.561 . S
C2616 C2619 1.526 . S
C2617 H2601 0.959 . S
C2617 H2602 0.959 . S
C2617 H2603 0.961 . S
C2617 C2616 1.502 . S
C2618 H2604 0.960 . S
C2618 H2605 0.961 . S
C2618 H2606 0.959 . S
C2618 C2616 1.561 . S
C2619 C2616 1.526 . S
C2619 C2620 1.396 . S
C2619 C2624 1.390 . S
C2620 C2614 1.465 . S
C2620 C2619 1.396 . S
C2620 C2621 1.399 . S
C2621 H2607 0.929 . S
C2621 C2620 1.399 . S
C2621 C2622 1.385 . S
C2622 H2608 0.931 . S
C2622 C2621 1.385 . S
C2622 C2623 1.389 . S
C2623 C2622 1.389 . S
C2623 C2624 1.387 . S
C2624 H2609 0.930 . S
C2624 C2619 1.390 . S
C2624 C2623 1.387 . S
H2625 C2637 0.930 . S
H2626 C2639 0.930 . S
H2627 C2640 0.930 . S
H2628 C2644 0.959 . S
H2629 C2644 0.981 . S
H2630 C2644 0.975 . S
H2631 C2645 0.960 . S
H2632 C2645 0.961 . S
H2633 C2645 0.959 . S
H2634 C2648 0.929 . S
H2635 C2649 0.931 . S
H2636 C2651 0.930 . S
C2637 H2625 0.930 . S
C2637 C2638 1.399 . S
C2637 C2642 1.399 . S
C2638 C2637 1.399 . S
C2638 C2639 1.376 . S
C2639 H2626 0.930 . S
C2639 C2638 1.376 . S
C2639 C2640 1.388 . S
C2640 H2627 0.930 . S
C2640 C2639 1.388 . S
C2640 C2641 1.390 . S
C2641 C2640 1.390 . S
C2641 C2642 1.394 . S
C2641 C2647 1.465 . S
C2642 C2637 1.399 . S
C2642 C2641 1.394 . S
C2642 C2643 1.516 . S
C2643 C2642 1.516 . S
C2643 C2644 1.502 . S
C2643 C2645 1.561 1_554 S
C2643 C2646 1.526 . S
C2644 H2628 0.959 . S
C2644 H2629 0.981 . S
C2644 H2630 0.975 . S
C2644 C2643 1.502 . S
C2645 H2631 0.960 . S
C2645 H2632 0.961 . S
C2645 H2633 0.959 . S
C2645 C2643 1.561 1_556 S
C2646 C2643 1.526 . S
C2646 C2647 1.396 . S
C2646 C2651 1.390 . S
C2647 C2641 1.465 . S
C2647 C2646 1.396 . S
C2647 C2648 1.399 . S
C2648 H2634 0.929 . S
C2648 C2647 1.399 . S
C2648 C2649 1.385 . S
C2649 H2635 0.931 . S
C2649 C2648 1.385 . S
C2649 C2650 1.389 . S
C2650 C2649 1.389 . S
C2650 C2651 1.387 . S
C2651 H2636 0.930 . S
C2651 C2646 1.390 . S
C2651 C2650 1.387 . S
H2652 C2664 0.930 . S
H2653 C2666 0.930 . S
H2654 C2667 0.930 . S
H2655 C2671 0.959 . S
H2656 C2671 0.959 . S
H2657 C2671 0.961 . S
H2658 C2672 0.960 . S
H2659 C2672 0.961 . S
H2660 C2672 0.959 . S
H2661 C2675 0.929 . S
H2662 C2676 0.931 . S
H2663 C2678 0.930 . S
C2664 H2652 0.930 . S
C2664 C2665 1.399 . S
C2664 C2669 1.399 . S
C2665 C2664 1.399 . S
C2665 C2666 1.376 . S
C2666 H2653 0.930 . S
C2666 C2665 1.376 . S
C2666 C2667 1.388 . S
C2667 H2654 0.930 . S
C2667 C2666 1.388 . S
C2667 C2668 1.390 . S
C2668 C2667 1.390 . S
C2668 C2669 1.394 . S
C2668 C2674 1.465 . S
C2669 C2664 1.399 . S
C2669 C2668 1.394 . S
C2669 C2670 1.516 . S
C2670 C2669 1.516 . S
C2670 C2671 1.502 . S
C2670 C2672 1.561 . S
C2670 C2673 1.526 . S
C2671 H2655 0.959 . S
C2671 H2656 0.959 . S
C2671 H2657 0.961 . S
C2671 C2670 1.502 . S
C2672 H2658 0.960 . S
C2672 H2659 0.961 . S
C2672 H2660 0.959 . S
C2672 C2670 1.561 . S
C2673 C2670 1.526 . S
C2673 C2674 1.396 . S
C2673 C2678 1.390 . S
C2674 C2668 1.465 . S
C2674 C2673 1.396 . S
C2674 C2675 1.399 . S
C2675 H2661 0.929 . S
C2675 C2674 1.399 . S
C2675 C2676 1.385 . S
C2676 H2662 0.931 . S
C2676 C2675 1.385 . S
C2676 C2677 1.389 . S
C2677 C2676 1.389 . S
C2677 C2678 1.387 . S
C2678 H2663 0.930 . S
C2678 C2673 1.390 . S
C2678 C2677 1.387 . S
H2679 C2691 0.930 . S
H2680 C2693 0.930 . S
H2681 C2694 0.930 . S
H2682 C2698 0.959 . S
H2683 C2698 0.959 1_556 S
H2684 C2698 0.961 . S
H2685 C2699 0.960 . S
H2686 C2699 0.961 . S
H2687 C2699 0.959 . S
H2688 C2702 0.929 . S
H2689 C2703 0.931 . S
H2690 C2705 0.930 . S
C2691 H2679 0.930 . S
C2691 C2692 1.399 . S
C2691 C2696 1.399 . S
C2692 C2691 1.399 . S
C2692 C2693 1.376 . S
C2693 H2680 0.930 . S
C2693 C2692 1.376 . S
C2693 C2694 1.388 . S
C2694 H2681 0.930 . S
C2694 C2693 1.388 . S
C2694 C2695 1.390 . S
C2695 C2694 1.390 . S
C2695 C2696 1.394 . S
C2695 C2701 1.465 . S
C2696 C2691 1.399 . S
C2696 C2695 1.394 . S
C2696 C2697 1.516 . S
C2697 C2696 1.516 . S
C2697 C2698 1.502 . S
C2697 C2699 1.561 1_554 S
C2697 C2700 1.526 . S
C2698 H2682 0.959 . S
C2698 H2683 0.959 1_554 S
C2698 H2684 0.961 . S
C2698 C2697 1.502 . S
C2699 H2685 0.960 . S
C2699 H2686 0.961 . S
C2699 H2687 0.959 . S
C2699 C2697 1.561 1_556 S
C2700 C2697 1.526 . S
C2700 C2701 1.396 . S
C2700 C2705 1.390 . S
C2701 C2695 1.465 . S
C2701 C2700 1.396 . S
C2701 C2702 1.399 . S
C2702 H2688 0.929 . S
C2702 C2701 1.399 . S
C2702 C2703 1.385 . S
C2703 H2689 0.931 . S
C2703 C2702 1.385 . S
C2703 C2704 1.389 . S
C2704 C2703 1.389 . S
C2704 C2705 1.387 . S
C2705 H2690 0.930 . S
C2705 C2700 1.390 . S
C2705 C2704 1.387 . S
H2706 C2718 0.930 . S
H2707 C2720 0.930 . S
H2708 C2721 0.930 . S
H2709 C2725 0.959 . S
H2710 C2725 0.959 . S
H2711 C2725 0.961 . S
H2712 C2726 0.960 . S
H2713 C2726 0.961 . S
H2714 C2726 0.959 . S
H2715 C2729 0.929 . S
H2716 C2730 0.931 . S
H2717 C2732 0.930 . S
C2718 H2706 0.930 . S
C2718 C2719 1.399 . S
C2718 C2723 1.399 . S
C2719 C2718 1.399 . S
C2719 C2720 1.376 . S
C2720 H2707 0.930 . S
C2720 C2719 1.376 . S
C2720 C2721 1.388 . S
C2721 H2708 0.930 . S
C2721 C2720 1.388 . S
C2721 C2722 1.390 . S
C2722 C2721 1.390 . S
C2722 C2723 1.394 . S
C2722 C2728 1.465 . S
C2723 C2718 1.399 . S
C2723 C2722 1.394 . S
C2723 C2724 1.516 . S
C2724 C2723 1.516 . S
C2724 C2725 1.502 . S
C2724 C2726 1.561 . S
C2724 C2727 1.526 . S
C2725 H2709 0.959 . S
C2725 H2710 0.959 . S
C2725 H2711 0.961 . S
C2725 C2724 1.502 . S
C2726 H2712 0.960 . S
C2726 H2713 0.961 . S
C2726 H2714 0.959 . S
C2726 C2724 1.561 . S
C2727 C2724 1.526 . S
C2727 C2728 1.396 . S
C2727 C2732 1.390 . S
C2728 C2722 1.465 . S
C2728 C2727 1.396 . S
C2728 C2729 1.399 . S
C2729 H2715 0.929 . S
C2729 C2728 1.399 . S
C2729 C2730 1.385 . S
C2730 H2716 0.931 . S
C2730 C2729 1.385 . S
C2730 C2731 1.389 . S
C2731 C2730 1.389 . S
C2731 C2732 1.387 . S
C2732 H2717 0.930 . S
C2732 C2727 1.390 . S
C2732 C2731 1.387 . S
H2733 C2745 0.930 . S
H2734 C2747 0.930 . S
H2735 C2748 0.930 . S
H2736 C2752 0.959 . S
H2737 C2752 0.959 . S
H2738 C2752 0.961 . S
H2739 C2753 0.960 . S
H2740 C2753 0.961 . S
H2741 C2753 0.959 . S
H2742 C2756 0.929 . S
H2743 C2757 0.931 . S
H2744 C2759 0.930 . S
C2745 H2733 0.930 . S
C2745 C2746 1.399 . S
C2745 C2750 1.399 . S
C2746 C2745 1.399 . S
C2746 C2747 1.376 . S
C2747 H2734 0.930 . S
C2747 C2746 1.376 . S
C2747 C2748 1.388 . S
C2748 H2735 0.930 . S
C2748 C2747 1.388 . S
C2748 C2749 1.390 . S
C2749 C2748 1.390 . S
C2749 C2750 1.394 . S
C2749 C2755 1.465 . S
C2750 C2745 1.399 . S
C2750 C2749 1.394 . S
C2750 C2751 1.516 . S
C2751 C2750 1.516 . S
C2751 C2752 1.502 . S
C2751 C2753 1.561 . S
C2751 C2754 1.526 . S
C2752 H2736 0.959 . S
C2752 H2737 0.959 . S
C2752 H2738 0.961 . S
C2752 C2751 1.502 . S
C2753 H2739 0.960 . S
C2753 H2740 0.961 . S
C2753 H2741 0.959 . S
C2753 C2751 1.561 . S
C2754 C2751 1.526 . S
C2754 C2755 1.396 . S
C2754 C2759 1.390 . S
C2755 C2749 1.465 . S
C2755 C2754 1.396 . S
C2755 C2756 1.399 . S
C2756 H2742 0.929 . S
C2756 C2755 1.399 . S
C2756 C2757 1.385 . S
C2757 H2743 0.931 . S
C2757 C2756 1.385 . S
C2757 C2758 1.389 . S
C2758 C2757 1.389 . S
C2758 C2759 1.387 . S
C2759 H2744 0.930 . S
C2759 C2754 1.390 . S
C2759 C2758 1.387 . S
H2760 C2772 0.930 . S
H2761 C2774 0.930 . S
H2762 C2775 0.930 . S
H2763 C2779 0.959 . S
H2764 C2779 0.959 . S
H2765 C2779 0.961 . S
H2766 C2780 0.960 . S
H2767 C2780 0.961 . S
H2768 C2780 0.959 . S
H2769 C2783 0.929 . S
H2770 C2784 0.931 . S
H2771 C2786 0.930 . S
C2772 H2760 0.930 . S
C2772 C2773 1.399 . S
C2772 C2777 1.399 . S
C2773 C2772 1.399 . S
C2773 C2774 1.376 . S
C2774 H2761 0.930 . S
C2774 C2773 1.376 . S
C2774 C2775 1.388 . S
C2775 H2762 0.930 . S
C2775 C2774 1.388 . S
C2775 C2776 1.390 . S
C2776 C2775 1.390 . S
C2776 C2777 1.394 . S
C2776 C2782 1.465 . S
C2777 C2772 1.399 . S
C2777 C2776 1.394 . S
C2777 C2778 1.516 . S
C2778 C2777 1.516 . S
C2778 C2779 1.502 . S
C2778 C2780 1.561 . S
C2778 C2781 1.526 . S
C2779 H2763 0.959 . S
C2779 H2764 0.959 . S
C2779 H2765 0.961 . S
C2779 C2778 1.502 . S
C2780 H2766 0.960 . S
C2780 H2767 0.961 . S
C2780 H2768 0.959 . S
C2780 C2778 1.561 . S
C2781 C2778 1.526 . S
C2781 C2782 1.396 . S
C2781 C2786 1.390 . S
C2782 C2776 1.465 . S
C2782 C2781 1.396 . S
C2782 C2783 1.399 . S
C2783 H2769 0.929 . S
C2783 C2782 1.399 . S
C2783 C2784 1.385 . S
C2784 H2770 0.931 . S
C2784 C2783 1.385 . S
C2784 C2785 1.389 . S
C2785 C2784 1.389 . S
C2785 C2786 1.387 . S
C2786 H2771 0.930 . S
C2786 C2781 1.390 . S
C2786 C2785 1.387 . S
H2787 C2799 0.930 . S
H2788 C2801 0.930 . S
H2789 C2802 0.930 . S
H2790 C2806 0.959 . S
H2791 C2806 0.959 . S
H2792 C2806 0.961 . S
H2793 C2807 0.960 . S
H2794 C2807 0.961 . S
H2795 C2807 0.959 . S
H2796 C2810 0.929 . S
H2797 C2811 0.931 . S
H2798 C2813 0.930 . S
C2799 H2787 0.930 . S
C2799 C2800 1.399 . S
C2799 C2804 1.399 . S
C2800 C2799 1.399 . S
C2800 C2801 1.376 . S
C2801 H2788 0.930 . S
C2801 C2800 1.376 . S
C2801 C2802 1.388 . S
C2802 H2789 0.930 . S
C2802 C2801 1.388 . S
C2802 C2803 1.390 . S
C2803 C2802 1.390 . S
C2803 C2804 1.394 . S
C2803 C2809 1.465 . S
C2804 C2799 1.399 . S
C2804 C2803 1.394 . S
C2804 C2805 1.516 . S
C2805 C2804 1.516 . S
C2805 C2806 1.502 . S
C2805 C2807 1.561 . S
C2805 C2808 1.526 . S
C2806 H2790 0.959 . S
C2806 H2791 0.959 . S
C2806 H2792 0.961 . S
C2806 C2805 1.502 . S
C2807 H2793 0.960 . S
C2807 H2794 0.961 . S
C2807 H2795 0.959 . S
C2807 C2805 1.561 . S
C2808 C2805 1.526 . S
C2808 C2809 1.396 . S
C2808 C2813 1.390 . S
C2809 C2803 1.465 . S
C2809 C2808 1.396 . S
C2809 C2810 1.399 . S
C2810 H2796 0.929 . S
C2810 C2809 1.399 . S
C2810 C2811 1.385 . S
C2811 H2797 0.931 . S
C2811 C2810 1.385 . S
C2811 C2812 1.389 . S
C2812 C2811 1.389 . S
C2812 C2813 1.387 . S
C2813 H2798 0.930 . S
C2813 C2808 1.390 . S
C2813 C2812 1.387 . S
H2814 C2826 0.930 . S
H2815 C2828 0.930 . S
H2816 C2829 0.930 . S
H2817 C2833 0.959 . S
H2818 C2833 0.959 . S
H2819 C2833 0.961 . S
H2820 C2834 0.960 . S
H2821 C2834 0.961 . S
H2822 C2834 0.959 . S
H2823 C2837 0.929 . S
H2824 C2838 0.931 . S
H2825 C2840 0.930 . S
C2826 H2814 0.930 . S
C2826 C2827 1.399 . S
C2826 C2831 1.399 . S
C2827 C2826 1.399 . S
C2827 C2828 1.376 . S
C2828 H2815 0.930 . S
C2828 C2827 1.376 . S
C2828 C2829 1.388 . S
C2829 H2816 0.930 . S
C2829 C2828 1.388 . S
C2829 C2830 1.390 . S
C2830 C2829 1.390 . S
C2830 C2831 1.394 . S
C2830 C2836 1.465 . S
C2831 C2826 1.399 . S
C2831 C2830 1.394 . S
C2831 C2832 1.516 . S
C2832 C2831 1.516 . S
C2832 C2833 1.502 1_455 S
C2832 C2834 1.561 . S
C2832 C2835 1.526 . S
C2833 H2817 0.959 . S
C2833 H2818 0.959 . S
C2833 H2819 0.961 . S
C2833 C2832 1.502 1_655 S
C2834 H2820 0.960 . S
C2834 H2821 0.961 . S
C2834 H2822 0.959 . S
C2834 C2832 1.561 . S
C2835 C2832 1.526 . S
C2835 C2836 1.396 . S
C2835 C2840 1.390 . S
C2836 C2830 1.465 . S
C2836 C2835 1.396 . S
C2836 C2837 1.399 1_556 S
C2837 H2823 0.929 . S
C2837 C2836 1.399 1_554 S
C2837 C2838 1.385 . S
C2838 H2824 0.931 . S
C2838 C2837 1.385 . S
C2838 C2839 1.389 . S
C2839 C2838 1.389 . S
C2839 C2840 1.387 1_554 S
C2840 H2825 0.930 . S
C2840 C2835 1.390 . S
C2840 C2839 1.387 1_556 S
H2841 C2853 0.930 . S
H2842 C2855 0.930 . S
H2843 C2856 0.930 . S
H2844 C2860 0.959 . S
H2845 C2860 0.959 . S
H2846 C2860 0.961 . S
H2847 C2861 0.960 . S
H2848 C2861 0.961 . S
H2849 C2861 0.959 . S
H2850 C2864 0.929 . S
H2851 C2865 0.931 . S
H2852 C2867 0.930 . S
C2853 H2841 0.930 . S
C2853 C2854 1.399 . S
C2853 C2858 1.399 . S
C2854 C2853 1.399 . S
C2854 C2855 1.376 . S
C2855 H2842 0.930 . S
C2855 C2854 1.376 . S
C2855 C2856 1.388 . S
C2856 H2843 0.930 . S
C2856 C2855 1.388 . S
C2856 C2857 1.390 . S
C2857 C2856 1.390 . S
C2857 C2858 1.394 . S
C2857 C2863 1.465 . S
C2858 C2853 1.399 . S
C2858 C2857 1.394 . S
C2858 C2859 1.516 . S
C2859 C2858 1.516 . S
C2859 C2860 1.502 . S
C2859 C2861 1.561 . S
C2859 C2862 1.526 . S
C2860 H2844 0.959 . S
C2860 H2845 0.959 . S
C2860 H2846 0.961 . S
C2860 C2859 1.502 . S
C2861 H2847 0.960 . S
C2861 H2848 0.961 . S
C2861 H2849 0.959 . S
C2861 C2859 1.561 . S
C2862 C2859 1.526 . S
C2862 C2863 1.396 . S
C2862 C2867 1.390 . S
C2863 C2857 1.465 . S
C2863 C2862 1.396 . S
C2863 C2864 1.399 . S
C2864 H2850 0.929 . S
C2864 C2863 1.399 . S
C2864 C2865 1.385 . S
C2865 H2851 0.931 . S
C2865 C2864 1.385 . S
C2865 C2866 1.389 . S
C2866 C2865 1.389 . S
C2866 C2867 1.387 . S
C2867 H2852 0.930 . S
C2867 C2862 1.390 . S
C2867 C2866 1.387 . S
H2868 C2880 0.930 . S
H2869 C2882 0.930 . S
H2870 C2883 0.930 . S
H2871 C2887 0.959 . S
H2872 C2887 0.959 . S
H2873 C2887 0.961 . S
H2874 C2888 0.960 . S
H2875 C2888 0.961 . S
H2876 C2888 0.959 . S
H2877 C2891 0.929 . S
H2878 C2892 0.931 . S
H2879 C2894 0.930 . S
C2880 H2868 0.930 . S
C2880 C2881 1.399 . S
C2880 C2885 1.399 . S
C2881 C2880 1.399 . S
C2881 C2882 1.376 . S
C2882 H2869 0.930 . S
C2882 C2881 1.376 . S
C2882 C2883 1.388 . S
C2883 H2870 0.930 . S
C2883 C2882 1.388 . S
C2883 C2884 1.390 . S
C2884 C2883 1.390 . S
C2884 C2885 1.394 . S
C2884 C2890 1.465 . S
C2885 C2880 1.399 . S
C2885 C2884 1.394 . S
C2885 C2886 1.516 . S
C2886 C2885 1.516 . S
C2886 C2887 1.502 . S
C2886 C2888 1.561 . S
C2886 C2889 1.526 . S
C2887 H2871 0.959 . S
C2887 H2872 0.959 . S
C2887 H2873 0.961 . S
C2887 C2886 1.502 . S
C2888 H2874 0.960 . S
C2888 H2875 0.961 . S
C2888 H2876 0.959 . S
C2888 C2886 1.561 . S
C2889 C2886 1.526 . S
C2889 C2890 1.396 . S
C2889 C2894 1.390 . S
C2890 C2884 1.465 . S
C2890 C2889 1.396 . S
C2890 C2891 1.399 . S
C2891 H2877 0.929 . S
C2891 C2890 1.399 . S
C2891 C2892 1.385 . S
C2892 H2878 0.931 . S
C2892 C2891 1.385 . S
C2892 C2893 1.389 . S
C2893 C2892 1.389 . S
C2893 C2894 1.387 . S
C2894 H2879 0.930 . S
C2894 C2889 1.390 . S
C2894 C2893 1.387 . S
H2895 C2907 0.930 . S
H2896 C2909 0.930 . S
H2897 C2910 0.930 . S
H2898 C2914 0.959 . S
H2899 C2914 0.959 . S
H2900 C2914 0.961 . S
H2901 C2915 0.960 . S
H2902 C2915 0.961 . S
H2903 C2915 0.959 . S
H2904 C2918 0.929 . S
H2905 C2919 0.931 . S
H2906 C2921 0.930 . S
C2907 H2895 0.930 . S
C2907 C2908 1.399 . S
C2907 C2912 1.399 . S
C2908 C2907 1.399 . S
C2908 C2909 1.376 . S
C2909 H2896 0.930 . S
C2909 C2908 1.376 . S
C2909 C2910 1.388 . S
C2910 H2897 0.930 . S
C2910 C2909 1.388 . S
C2910 C2911 1.390 . S
C2911 C2910 1.390 . S
C2911 C2912 1.394 . S
C2911 C2917 1.465 . S
C2912 C2907 1.399 . S
C2912 C2911 1.394 . S
C2912 C2913 1.516 . S
C2913 C2912 1.516 . S
C2913 C2914 1.502 . S
C2913 C2915 1.561 . S
C2913 C2916 1.526 . S
C2914 H2898 0.959 . S
C2914 H2899 0.959 . S
C2914 H2900 0.961 . S
C2914 C2913 1.502 . S
C2915 H2901 0.960 . S
C2915 H2902 0.961 . S
C2915 H2903 0.959 . S
C2915 C2913 1.561 . S
C2916 C2913 1.526 . S
C2916 C2917 1.396 . S
C2916 C2921 1.390 . S
C2917 C2911 1.465 . S
C2917 C2916 1.396 . S
C2917 C2918 1.399 . S
C2918 H2904 0.929 . S
C2918 C2917 1.399 . S
C2918 C2919 1.385 . S
C2919 H2905 0.931 . S
C2919 C2918 1.385 . S
C2919 C2920 1.389 . S
C2920 C2919 1.389 . S
C2920 C2921 1.387 . S
C2921 H2906 0.930 . S
C2921 C2916 1.390 . S
C2921 C2920 1.387 . S
H2922 C2934 0.930 . S
H2923 C2936 0.930 . S
H2924 C2937 0.930 . S
H2925 C2941 0.959 . S
H2926 C2941 0.959 . S
H2927 C2941 0.961 . S
H2928 C2942 0.960 . S
H2929 C2942 0.961 . S
H2930 C2942 0.959 . S
H2931 C2945 0.929 . S
H2932 C2946 0.931 . S
H2933 C2948 0.930 . S
C2934 H2922 0.930 . S
C2934 C2935 1.399 . S
C2934 C2939 1.399 . S
C2935 C2934 1.399 . S
C2935 C2936 1.376 . S
C2936 H2923 0.930 . S
C2936 C2935 1.376 . S
C2936 C2937 1.388 . S
C2937 H2924 0.930 . S
C2937 C2936 1.388 . S
C2937 C2938 1.390 . S
C2938 C2937 1.390 . S
C2938 C2939 1.394 . S
C2938 C2944 1.465 . S
C2939 C2934 1.399 . S
C2939 C2938 1.394 . S
C2939 C2940 1.516 . S
C2940 C2939 1.516 . S
C2940 C2941 1.502 1_455 S
C2940 C2942 1.561 . S
C2940 C2943 1.526 . S
C2941 H2925 0.959 . S
C2941 H2926 0.959 . S
C2941 H2927 0.961 . S
C2941 C2940 1.502 1_655 S
C2942 H2928 0.960 . S
C2942 H2929 0.961 . S
C2942 H2930 0.959 . S
C2942 C2940 1.561 . S
C2943 C2940 1.526 . S
C2943 C2944 1.396 . S
C2943 C2948 1.390 . S
C2944 C2938 1.465 . S
C2944 C2943 1.396 . S
C2944 C2945 1.399 . S
C2945 H2931 0.929 . S
C2945 C2944 1.399 . S
C2945 C2946 1.385 . S
C2946 H2932 0.931 . S
C2946 C2945 1.385 . S
C2946 C2947 1.389 . S
C2947 C2946 1.389 . S
C2947 C2948 1.387 . S
C2948 H2933 0.930 . S
C2948 C2943 1.390 . S
C2948 C2947 1.387 . S
H2949 C2961 0.930 . S
H2950 C2963 0.930 . S
H2951 C2964 0.930 . S
H2952 C2968 0.959 . S
H2953 C2968 0.959 . S
H2954 C2968 0.961 . S
H2955 C2969 0.960 . S
H2956 C2969 0.961 . S
H2957 C2969 0.959 . S
H2958 C2972 0.929 . S
H2959 C2973 0.931 . S
H2960 C2975 0.930 . S
C2961 H2949 0.930 . S
C2961 C2962 1.399 . S
C2961 C2966 1.399 . S
C2962 C2961 1.399 . S
C2962 C2963 1.376 . S
C2963 H2950 0.930 . S
C2963 C2962 1.376 . S
C2963 C2964 1.388 . S
C2964 H2951 0.930 . S
C2964 C2963 1.388 . S
C2964 C2965 1.390 . S
C2965 C2964 1.390 . S
C2965 C2966 1.394 . S
C2965 C2971 1.465 . S
C2966 C2961 1.399 . S
C2966 C2965 1.394 . S
C2966 C2967 1.516 . S
C2967 C2966 1.516 . S
C2967 C2968 1.502 . S
C2967 C2969 1.561 . S
C2967 C2970 1.526 . S
C2968 H2952 0.959 . S
C2968 H2953 0.959 . S
C2968 H2954 0.961 . S
C2968 C2967 1.502 . S
C2969 H2955 0.960 . S
C2969 H2956 0.961 . S
C2969 H2957 0.959 . S
C2969 C2967 1.561 . S
C2970 C2967 1.526 . S
C2970 C2971 1.396 . S
C2970 C2975 1.390 . S
C2971 C2965 1.465 . S
C2971 C2970 1.396 . S
C2971 C2972 1.399 . S
C2972 H2958 0.929 . S
C2972 C2971 1.399 . S
C2972 C2973 1.385 . S
C2973 H2959 0.931 . S
C2973 C2972 1.385 . S
C2973 C2974 1.389 . S
C2974 C2973 1.389 . S
C2974 C2975 1.387 . S
C2975 H2960 0.930 . S
C2975 C2970 1.390 . S
C2975 C2974 1.387 . S
H2976 C2988 0.930 . S
H2977 C2990 0.930 . S
H2978 C2991 0.930 . S
H2979 C2995 0.959 . S
H2980 C2995 0.959 . S
H2981 C2995 0.961 . S
H2982 C2996 0.960 . S
H2983 C2996 0.961 . S
H2984 C2996 0.959 . S
H2985 C2999 0.929 . S
H2986 C3000 0.931 . S
H2987 C3002 0.930 . S
C2988 H2976 0.930 . S
C2988 C2989 1.399 . S
C2988 C2993 1.399 . S
C2989 C2988 1.399 . S
C2989 C2990 1.376 . S
C2990 H2977 0.930 . S
C2990 C2989 1.376 . S
C2990 C2991 1.388 . S
C2991 H2978 0.930 . S
C2991 C2990 1.388 . S
C2991 C2992 1.390 . S
C2992 C2991 1.390 . S
C2992 C2993 1.394 . S
C2992 C2998 1.465 . S
C2993 C2988 1.399 . S
C2993 C2992 1.394 . S
C2993 C2994 1.516 . S
C2994 C2993 1.516 . S
C2994 C2995 1.502 . S
C2994 C2996 1.561 . S
C2994 C2997 1.526 . S
C2995 H2979 0.959 . S
C2995 H2980 0.959 . S
C2995 H2981 0.961 . S
C2995 C2994 1.502 . S
C2996 H2982 0.960 . S
C2996 H2983 0.961 . S
C2996 H2984 0.959 . S
C2996 C2994 1.561 . S
C2997 C2994 1.526 . S
C2997 C2998 1.396 . S
C2997 C3002 1.390 . S
C2998 C2992 1.465 . S
C2998 C2997 1.396 . S
C2998 C2999 1.399 . S
C2999 H2985 0.929 . S
C2999 C2998 1.399 . S
C2999 C3000 1.385 . S
C3000 H2986 0.931 . S
C3000 C2999 1.385 . S
C3000 C3001 1.389 . S
C3001 C3000 1.389 . S
C3001 C3002 1.387 . S
C3002 H2987 0.930 . S
C3002 C2997 1.390 . S
C3002 C3001 1.387 . S
H3003 C3015 0.930 . S
H3004 C3017 0.930 . S
H3005 C3018 0.930 . S
H3006 C3022 0.959 . S
H3007 C3022 0.959 . S
H3008 C3022 0.961 . S
H3009 C3023 0.960 . S
H3010 C3023 0.961 . S
H3011 C3023 0.959 . S
H3012 C3026 0.929 . S
H3013 C3027 0.931 . S
H3014 C3029 0.930 . S
C3015 H3003 0.930 . S
C3015 C3016 1.399 . S
C3015 C3020 1.399 . S
C3016 C3015 1.399 . S
C3016 C3017 1.376 . S
C3017 H3004 0.930 . S
C3017 C3016 1.376 . S
C3017 C3018 1.388 . S
C3018 H3005 0.930 . S
C3018 C3017 1.388 . S
C3018 C3019 1.390 . S
C3019 C3018 1.390 . S
C3019 C3020 1.394 . S
C3019 C3025 1.465 . S
C3020 C3015 1.399 . S
C3020 C3019 1.394 . S
C3020 C3021 1.516 . S
C3021 C3020 1.516 . S
C3021 C3022 1.502 . S
C3021 C3023 1.561 . S
C3021 C3024 1.526 . S
C3022 H3006 0.959 . S
C3022 H3007 0.959 . S
C3022 H3008 0.961 . S
C3022 C3021 1.502 . S
C3023 H3009 0.960 . S
C3023 H3010 0.961 . S
C3023 H3011 0.959 . S
C3023 C3021 1.561 . S
C3024 C3021 1.526 . S
C3024 C3025 1.396 . S
C3024 C3029 1.390 . S
C3025 C3019 1.465 . S
C3025 C3024 1.396 . S
C3025 C3026 1.399 . S
C3026 H3012 0.929 . S
C3026 C3025 1.399 . S
C3026 C3027 1.385 . S
C3027 H3013 0.931 . S
C3027 C3026 1.385 . S
C3027 C3028 1.389 . S
C3028 C3027 1.389 . S
C3028 C3029 1.387 . S
C3029 H3014 0.930 . S
C3029 C3024 1.390 . S
C3029 C3028 1.387 . S
H3030 C3042 0.930 . S
H3031 C3044 0.930 . S
H3032 C3045 0.930 . S
H3033 C3049 0.959 . S
H3034 C3049 0.959 . S
H3035 C3049 0.961 . S
H3036 C3050 0.960 . S
H3037 C3050 0.961 . S
H3038 C3050 0.959 . S
H3039 C3053 0.929 . S
H3040 C3054 0.931 . S
H3041 C3056 0.930 . S
C3042 H3030 0.930 . S
C3042 C3043 1.399 . S
C3042 C3047 1.399 . S
C3043 C3042 1.399 . S
C3043 C3044 1.376 . S
C3044 H3031 0.930 . S
C3044 C3043 1.376 . S
C3044 C3045 1.388 . S
C3045 H3032 0.930 . S
C3045 C3044 1.388 . S
C3045 C3046 1.390 . S
C3046 C3045 1.390 . S
C3046 C3047 1.394 . S
C3046 C3052 1.465 . S
C3047 C3042 1.399 . S
C3047 C3046 1.394 . S
C3047 C3048 1.516 . S
C3048 C3047 1.516 . S
C3048 C3049 1.502 . S
C3048 C3050 1.561 . S
C3048 C3051 1.526 . S
C3049 H3033 0.959 . S
C3049 H3034 0.959 . S
C3049 H3035 0.961 . S
C3049 C3048 1.502 . S
C3050 H3036 0.960 . S
C3050 H3037 0.961 . S
C3050 H3038 0.959 . S
C3050 C3048 1.561 . S
C3051 C3048 1.526 . S
C3051 C3052 1.396 . S
C3051 C3056 1.390 . S
C3052 C3046 1.465 . S
C3052 C3051 1.396 . S
C3052 C3053 1.399 . S
C3053 H3039 0.929 . S
C3053 C3052 1.399 . S
C3053 C3054 1.385 . S
C3054 H3040 0.931 . S
C3054 C3053 1.385 . S
C3054 C3055 1.389 . S
C3055 C3054 1.389 . S
C3055 C3056 1.387 . S
C3056 H3041 0.930 . S
C3056 C3051 1.390 . S
C3056 C3055 1.387 . S
H3057 C3069 0.930 . S
H3058 C3071 0.930 . S
H3059 C3072 0.930 . S
H3060 C3076 0.959 . S
H3061 C3076 0.959 . S
H3062 C3076 0.961 . S
H3063 C3077 0.960 . S
H3064 C3077 0.961 . S
H3065 C3077 0.959 . S
H3066 C3080 0.929 . S
H3067 C3081 0.931 . S
H3068 C3083 0.930 . S
C3069 H3057 0.930 . S
C3069 C3070 1.399 . S
C3069 C3074 1.399 . S
C3070 C3069 1.399 . S
C3070 C3071 1.376 . S
C3071 H3058 0.930 . S
C3071 C3070 1.376 . S
C3071 C3072 1.388 . S
C3072 H3059 0.930 . S
C3072 C3071 1.388 . S
C3072 C3073 1.390 . S
C3073 C3072 1.390 . S
C3073 C3074 1.394 . S
C3073 C3079 1.465 . S
C3074 C3069 1.399 . S
C3074 C3073 1.394 . S
C3074 C3075 1.516 . S
C3075 C3074 1.516 . S
C3075 C3076 1.502 . S
C3075 C3077 1.561 . S
C3075 C3078 1.526 . S
C3076 H3060 0.959 . S
C3076 H3061 0.959 . S
C3076 H3062 0.961 . S
C3076 C3075 1.502 . S
C3077 H3063 0.960 . S
C3077 H3064 0.961 . S
C3077 H3065 0.959 . S
C3077 C3075 1.561 . S
C3078 C3075 1.526 . S
C3078 C3079 1.396 . S
C3078 C3083 1.390 . S
C3079 C3073 1.465 . S
C3079 C3078 1.396 . S
C3079 C3080 1.399 . S
C3080 H3066 0.929 . S
C3080 C3079 1.399 . S
C3080 C3081 1.385 . S
C3081 H3067 0.931 . S
C3081 C3080 1.385 . S
C3081 C3082 1.389 . S
C3082 C3081 1.389 . S
C3082 C3083 1.387 . S
C3083 H3068 0.930 . S
C3083 C3078 1.390 . S
C3083 C3082 1.387 . S
H3084 C3096 0.930 . S
H3085 C3098 0.930 . S
H3086 C3099 0.930 . S
H3087 C3103 0.959 . S
H3088 C3103 0.959 . S
H3089 C3103 0.961 . S
H3090 C3104 0.960 . S
H3091 C3104 0.961 . S
H3092 C3104 0.959 . S
H3093 C3107 0.929 . S
H3094 C3108 0.931 . S
H3095 C3110 0.930 . S
C3096 H3084 0.930 . S
C3096 C3097 1.399 . S
C3096 C3101 1.399 . S
C3097 C3096 1.399 . S
C3097 C3098 1.376 . S
C3098 H3085 0.930 . S
C3098 C3097 1.376 . S
C3098 C3099 1.388 . S
C3099 H3086 0.930 . S
C3099 C3098 1.388 . S
C3099 C3100 1.390 . S
C3100 C3099 1.390 . S
C3100 C3101 1.394 . S
C3100 C3106 1.465 . S
C3101 C3096 1.399 . S
C3101 C3100 1.394 . S
C3101 C3102 1.516 . S
C3102 C3101 1.516 . S
C3102 C3103 1.502 . S
C3102 C3104 1.561 . S
C3102 C3105 1.526 . S
C3103 H3087 0.959 . S
C3103 H3088 0.959 . S
C3103 H3089 0.961 . S
C3103 C3102 1.502 . S
C3104 H3090 0.960 . S
C3104 H3091 0.961 . S
C3104 H3092 0.959 . S
C3104 C3102 1.561 . S
C3105 C3102 1.526 . S
C3105 C3106 1.396 . S
C3105 C3110 1.390 . S
C3106 C3100 1.465 . S
C3106 C3105 1.396 . S
C3106 C3107 1.399 . S
C3107 H3093 0.929 . S
C3107 C3106 1.399 . S
C3107 C3108 1.385 . S
C3108 H3094 0.931 . S
C3108 C3107 1.385 . S
C3108 C3109 1.389 . S
C3109 C3108 1.389 . S
C3109 C3110 1.387 . S
C3110 H3095 0.930 . S
C3110 C3105 1.390 . S
C3110 C3109 1.387 . S
H3111 C3123 0.930 . S
H3112 C3125 0.930 . S
H3113 C3126 0.930 . S
H3114 C3130 0.959 . S
H3115 C3130 0.959 . S
H3116 C3130 0.961 . S
H3117 C3131 0.960 . S
H3118 C3131 0.961 . S
H3119 C3131 0.959 . S
H3120 C3134 0.929 . S
H3121 C3135 0.931 . S
H3122 C3137 0.930 . S
C3123 H3111 0.930 . S
C3123 C3124 1.399 . S
C3123 C3128 1.399 . S
C3124 C3123 1.399 . S
C3124 C3125 1.376 . S
C3125 H3112 0.930 . S
C3125 C3124 1.376 . S
C3125 C3126 1.388 . S
C3126 H3113 0.930 . S
C3126 C3125 1.388 . S
C3126 C3127 1.390 . S
C3127 C3126 1.390 . S
C3127 C3128 1.394 . S
C3127 C3133 1.465 . S
C3128 C3123 1.399 . S
C3128 C3127 1.394 . S
C3128 C3129 1.516 . S
C3129 C3128 1.516 . S
C3129 C3130 1.502 . S
C3129 C3131 1.561 . S
C3129 C3132 1.526 . S
C3130 H3114 0.959 . S
C3130 H3115 0.959 . S
C3130 H3116 0.961 . S
C3130 C3129 1.502 . S
C3131 H3117 0.960 . S
C3131 H3118 0.961 . S
C3131 H3119 0.959 . S
C3131 C3129 1.561 . S
C3132 C3129 1.526 . S
C3132 C3133 1.396 . S
C3132 C3137 1.390 . S
C3133 C3127 1.465 . S
C3133 C3132 1.396 . S
C3133 C3134 1.399 . S
C3134 H3120 0.929 . S
C3134 C3133 1.399 . S
C3134 C3135 1.385 . S
C3135 H3121 0.931 . S
C3135 C3134 1.385 . S
C3135 C3136 1.389 . S
C3136 C3135 1.389 . S
C3136 C3137 1.387 . S
C3137 H3122 0.930 . S
C3137 C3132 1.390 . S
C3137 C3136 1.387 . S
H3138 C3150 0.930 . S
H3139 C3152 0.930 . S
H3140 C3153 0.930 . S
H3141 C3157 0.959 . S
H3142 C3157 0.959 . S
H3143 C3157 0.961 . S
H3144 C3158 0.960 . S
H3145 C3158 0.961 . S
H3146 C3158 0.959 . S
H3147 C3161 0.929 . S
H3148 C3162 0.931 . S
H3149 C3164 0.930 . S
C3150 H3138 0.930 . S
C3150 C3151 1.399 . S
C3150 C3155 1.399 . S
C3151 C3150 1.399 . S
C3151 C3152 1.376 . S
C3152 H3139 0.930 . S
C3152 C3151 1.376 . S
C3152 C3153 1.388 . S
C3153 H3140 0.930 . S
C3153 C3152 1.388 . S
C3153 C3154 1.390 . S
C3154 C3153 1.390 . S
C3154 C3155 1.394 . S
C3154 C3160 1.465 . S
C3155 C3150 1.399 . S
C3155 C3154 1.394 . S
C3155 C3156 1.516 . S
C3156 C3155 1.516 . S
C3156 C3157 1.502 . S
C3156 C3158 1.561 . S
C3156 C3159 1.526 . S
C3157 H3141 0.959 . S
C3157 H3142 0.959 . S
C3157 H3143 0.961 . S
C3157 C3156 1.502 . S
C3158 H3144 0.960 . S
C3158 H3145 0.961 . S
C3158 H3146 0.959 . S
C3158 C3156 1.561 . S
C3159 C3156 1.526 . S
C3159 C3160 1.396 . S
C3159 C3164 1.390 . S
C3160 C3154 1.465 . S
C3160 C3159 1.396 . S
C3160 C3161 1.399 . S
C3161 H3147 0.929 . S
C3161 C3160 1.399 . S
C3161 C3162 1.385 . S
C3162 H3148 0.931 . S
C3162 C3161 1.385 . S
C3162 C3163 1.389 . S
C3163 C3162 1.389 . S
C3163 C3164 1.387 . S
C3164 H3149 0.930 . S
C3164 C3159 1.390 . S
C3164 C3163 1.387 . S
H3165 C3177 0.930 . S
H3166 C3179 0.930 . S
H3167 C3180 0.930 . S
H3168 C3184 0.959 . S
H3169 C3184 0.959 . S
H3170 C3184 0.961 . S
H3171 C3185 0.960 . S
H3172 C3185 0.961 . S
H3173 C3185 0.959 . S
H3174 C3188 0.929 . S
H3175 C3189 0.931 . S
H3176 C3191 0.930 . S
C3177 H3165 0.930 . S
C3177 C3178 1.399 . S
C3177 C3182 1.399 . S
C3178 C3177 1.399 . S
C3178 C3179 1.376 . S
C3179 H3166 0.930 . S
C3179 C3178 1.376 . S
C3179 C3180 1.388 . S
C3180 H3167 0.930 . S
C3180 C3179 1.388 . S
C3180 C3181 1.390 . S
C3181 C3180 1.390 . S
C3181 C3182 1.394 . S
C3181 C3187 1.465 . S
C3182 C3177 1.399 . S
C3182 C3181 1.394 . S
C3182 C3183 1.516 . S
C3183 C3182 1.516 . S
C3183 C3184 1.502 . S
C3183 C3185 1.561 . S
C3183 C3186 1.526 . S
C3184 H3168 0.959 . S
C3184 H3169 0.959 . S
C3184 H3170 0.961 . S
C3184 C3183 1.502 . S
C3185 H3171 0.960 . S
C3185 H3172 0.961 . S
C3185 H3173 0.959 . S
C3185 C3183 1.561 . S
C3186 C3183 1.526 . S
C3186 C3187 1.396 . S
C3186 C3191 1.390 . S
C3187 C3181 1.465 . S
C3187 C3186 1.396 . S
C3187 C3188 1.399 . S
C3188 H3174 0.929 . S
C3188 C3187 1.399 . S
C3188 C3189 1.385 . S
C3189 H3175 0.931 . S
C3189 C3188 1.385 . S
C3189 C3190 1.389 . S
C3190 C3189 1.389 . S
C3190 C3191 1.387 . S
C3191 H3176 0.930 . S
C3191 C3186 1.390 . S
C3191 C3190 1.387 . S
H3192 C3204 0.930 . S
H3193 C3206 0.930 . S
H3194 C3207 0.930 . S
H3195 C3211 0.959 . S
H3196 C3211 0.959 . S
H3197 C3211 0.961 . S
H3198 C3212 0.960 . S
H3199 C3212 0.961 . S
H3200 C3212 0.959 . S
H3201 C3215 0.929 . S
H3202 C3216 0.931 . S
H3203 C3218 0.930 . S
C3204 H3192 0.930 . S
C3204 C3205 1.399 . S
C3204 C3209 1.399 . S
C3205 C3204 1.399 . S
C3205 C3206 1.376 . S
C3206 H3193 0.930 . S
C3206 C3205 1.376 . S
C3206 C3207 1.388 . S
C3207 H3194 0.930 . S
C3207 C3206 1.388 . S
C3207 C3208 1.390 . S
C3208 C3207 1.390 . S
C3208 C3209 1.394 . S
C3208 C3214 1.465 . S
C3209 C3204 1.399 . S
C3209 C3208 1.394 . S
C3209 C3210 1.516 . S
C3210 C3209 1.516 . S
C3210 C3211 1.502 . S
C3210 C3212 1.561 . S
C3210 C3213 1.526 . S
C3211 H3195 0.959 . S
C3211 H3196 0.959 . S
C3211 H3197 0.961 . S
C3211 C3210 1.502 . S
C3212 H3198 0.960 . S
C3212 H3199 0.961 . S
C3212 H3200 0.959 . S
C3212 C3210 1.561 . S
C3213 C3210 1.526 . S
C3213 C3214 1.396 . S
C3213 C3218 1.390 . S
C3214 C3208 1.465 . S
C3214 C3213 1.396 . S
C3214 C3215 1.399 . S
C3215 H3201 0.929 . S
C3215 C3214 1.399 . S
C3215 C3216 1.385 . S
C3216 H3202 0.931 . S
C3216 C3215 1.385 . S
C3216 C3217 1.389 . S
C3217 C3216 1.389 . S
C3217 C3218 1.387 . S
C3218 H3203 0.930 . S
C3218 C3213 1.390 . S
C3218 C3217 1.387 . S
H3219 C3231 0.930 . S
H3220 C3233 0.930 . S
H3221 C3234 0.930 . S
H3222 C3238 0.959 . S
H3223 C3238 0.959 . S
H3224 C3238 0.961 . S
H3225 C3239 0.960 . S
H3226 C3239 0.961 . S
H3227 C3239 0.959 . S
H3228 C3242 0.929 . S
H3229 C3243 0.931 . S
H3230 C3245 0.930 . S
C3231 H3219 0.930 . S
C3231 C3232 1.399 . S
C3231 C3236 1.399 . S
C3232 C3231 1.399 . S
C3232 C3233 1.376 . S
C3233 H3220 0.930 . S
C3233 C3232 1.376 . S
C3233 C3234 1.388 . S
C3234 H3221 0.930 . S
C3234 C3233 1.388 . S
C3234 C3235 1.390 . S
C3235 C3234 1.390 . S
C3235 C3236 1.394 . S
C3235 C3241 1.465 . S
C3236 C3231 1.399 . S
C3236 C3235 1.394 . S
C3236 C3237 1.516 . S
C3237 C3236 1.516 . S
C3237 C3238 1.502 . S
C3237 C3239 1.561 . S
C3237 C3240 1.526 . S
C3238 H3222 0.959 . S
C3238 H3223 0.959 . S
C3238 H3224 0.961 . S
C3238 C3237 1.502 . S
C3239 H3225 0.960 . S
C3239 H3226 0.961 . S
C3239 H3227 0.959 . S
C3239 C3237 1.561 . S
C3240 C3237 1.526 . S
C3240 C3241 1.396 . S
C3240 C3245 1.390 . S
C3241 C3235 1.465 . S
C3241 C3240 1.396 . S
C3241 C3242 1.399 . S
C3242 H3228 0.929 . S
C3242 C3241 1.399 . S
C3242 C3243 1.385 . S
C3243 H3229 0.931 . S
C3243 C3242 1.385 . S
C3243 C3244 1.389 . S
C3244 C3243 1.389 . S
C3244 C3245 1.387 . S
C3245 H3230 0.930 . S
C3245 C3240 1.390 . S
C3245 C3244 1.387 . S
H3246 C3258 0.930 . S
H3247 C3260 0.930 . S
H3248 C3261 0.930 . S
H3249 C3265 0.959 . S
H3250 C3265 0.959 . S
H3251 C3265 0.961 . S
H3252 C3266 0.960 . S
H3253 C3266 0.961 . S
H3254 C3266 0.959 . S
H3255 C3269 0.929 . S
H3256 C3270 0.931 . S
H3257 C3272 0.930 . S
C3258 H3246 0.930 . S
C3258 C3259 1.399 . S
C3258 C3263 1.399 . S
C3259 C3258 1.399 . S
C3259 C3260 1.376 . S
C3260 H3247 0.930 . S
C3260 C3259 1.376 . S
C3260 C3261 1.388 . S
C3261 H3248 0.930 . S
C3261 C3260 1.388 . S
C3261 C3262 1.390 . S
C3262 C3261 1.390 . S
C3262 C3263 1.394 . S
C3262 C3268 1.465 . S
C3263 C3258 1.399 . S
C3263 C3262 1.394 . S
C3263 C3264 1.516 . S
C3264 C3263 1.516 . S
C3264 C3265 1.502 . S
C3264 C3266 1.561 . S
C3264 C3267 1.526 . S
C3265 H3249 0.959 . S
C3265 H3250 0.959 . S
C3265 H3251 0.961 . S
C3265 C3264 1.502 . S
C3266 H3252 0.960 . S
C3266 H3253 0.961 . S
C3266 H3254 0.959 . S
C3266 C3264 1.561 . S
C3267 C3264 1.526 . S
C3267 C3268 1.396 . S
C3267 C3272 1.390 . S
C3268 C3262 1.465 . S
C3268 C3267 1.396 . S
C3268 C3269 1.399 . S
C3269 H3255 0.929 . S
C3269 C3268 1.399 . S
C3269 C3270 1.385 . S
C3270 H3256 0.931 . S
C3270 C3269 1.385 . S
C3270 C3271 1.389 . S
C3271 C3270 1.389 . S
C3271 C3272 1.387 . S
C3272 H3257 0.930 . S
C3272 C3267 1.390 . S
C3272 C3271 1.387 . S
H3273 C3285 0.930 . S
H3274 C3287 0.930 1_556 S
H3275 C3288 0.930 . S
H3276 C3292 0.959 . S
H3277 C3292 0.959 . S
H3278 C3292 0.961 . S
H3279 C3293 0.960 . S
H3280 C3293 0.961 . S
H3281 C3293 0.959 . S
H3282 C3296 0.929 . S
H3283 C3297 0.931 . S
H3284 C3299 0.930 . S
C3285 H3273 0.930 . S
C3285 C3286 1.399 . S
C3285 C3290 1.399 . S
C3286 C3285 1.399 . S
C3286 C3287 1.376 . S
C3287 H3274 0.930 1_554 S
C3287 C3286 1.376 . S
C3287 C3288 1.388 1_554 S
C3288 H3275 0.930 . S
C3288 C3287 1.388 1_556 S
C3288 C3289 1.390 1_556 S
C3289 C3288 1.390 1_554 S
C3289 C3290 1.394 . S
C3289 C3295 1.465 . S
C3290 C3285 1.399 . S
C3290 C3289 1.394 . S
C3290 C3291 1.516 . S
C3291 C3290 1.516 . S
C3291 C3292 1.502 . S
C3291 C3293 1.561 . S
C3291 C3294 1.526 . S
C3292 H3276 0.959 . S
C3292 H3277 0.959 . S
C3292 H3278 0.961 . S
C3292 C3291 1.502 . S
C3293 H3279 0.960 . S
C3293 H3280 0.961 . S
C3293 H3281 0.959 . S
C3293 C3291 1.561 . S
C3294 C3291 1.526 . S
C3294 C3295 1.396 . S
C3294 C3299 1.390 . S
C3295 C3289 1.465 . S
C3295 C3294 1.396 . S
C3295 C3296 1.399 1_564 S
C3296 H3282 0.929 . S
C3296 C3295 1.399 1_546 S
C3296 C3297 1.385 . S
C3297 H3283 0.931 . S
C3297 C3296 1.385 . S
C3297 C3298 1.389 1_556 S
C3298 C3297 1.389 1_554 S
C3298 C3299 1.387 1_545 S
C3299 H3284 0.930 . S
C3299 C3294 1.390 . S
C3299 C3298 1.387 1_565 S
H3300 C3312 0.930 . S
H3301 C3314 0.930 . S
H3302 C3315 0.930 . S
H3303 C3319 0.959 . S
H3304 C3319 0.959 . S
H3305 C3319 0.961 . S
H3306 C3320 0.960 . S
H3307 C3320 0.961 . S
H3308 C3320 0.959 . S
H3309 C3323 0.929 . S
H3310 C3324 0.931 . S
H3311 C3326 0.930 . S
C3312 H3300 0.930 . S
C3312 C3313 1.399 . S
C3312 C3317 1.399 . S
C3313 C3312 1.399 . S
C3313 C3314 1.376 . S
C3314 H3301 0.930 . S
C3314 C3313 1.376 . S
C3314 C3315 1.388 . S
C3315 H3302 0.930 . S
C3315 C3314 1.388 . S
C3315 C3316 1.390 . S
C3316 C3315 1.390 . S
C3316 C3317 1.394 . S
C3316 C3322 1.465 . S
C3317 C3312 1.399 . S
C3317 C3316 1.394 . S
C3317 C3318 1.516 . S
C3318 C3317 1.516 . S
C3318 C3319 1.502 . S
C3318 C3320 1.561 . S
C3318 C3321 1.526 . S
C3319 H3303 0.959 . S
C3319 H3304 0.959 . S
C3319 H3305 0.961 . S
C3319 C3318 1.502 . S
C3320 H3306 0.960 . S
C3320 H3307 0.961 . S
C3320 H3308 0.959 . S
C3320 C3318 1.561 . S
C3321 C3318 1.526 . S
C3321 C3322 1.396 . S
C3321 C3326 1.390 . S
C3322 C3316 1.465 . S
C3322 C3321 1.396 . S
C3322 C3323 1.399 . S
C3323 H3309 0.929 . S
C3323 C3322 1.399 . S
C3323 C3324 1.385 . S
C3324 H3310 0.931 . S
C3324 C3323 1.385 . S
C3324 C3325 1.389 . S
C3325 C3324 1.389 . S
C3325 C3326 1.387 . S
C3326 H3311 0.930 . S
C3326 C3321 1.390 . S
C3326 C3325 1.387 . S
H3327 C3339 0.930 . S
H3328 C3341 0.930 . S
H3329 C3342 0.930 . S
H3330 C3346 0.959 . S
H3331 C3346 0.959 . S
H3332 C3346 0.961 . S
H3333 C3347 0.960 . S
H3334 C3347 0.961 . S
H3335 C3347 0.959 . S
H3336 C3350 0.929 1_556 S
H3337 C3351 0.931 . S
H3338 C3353 0.930 . S
C3339 H3327 0.930 . S
C3339 C3340 1.399 . S
C3339 C3344 1.399 . S
C3340 C3339 1.399 . S
C3340 C3341 1.376 1_554 S
C3341 H3328 0.930 . S
C3341 C3340 1.376 1_556 S
C3341 C3342 1.388 . S
C3342 H3329 0.930 . S
C3342 C3341 1.388 . S
C3342 C3343 1.390 1_556 S
C3343 C3342 1.390 1_554 S
C3343 C3344 1.394 . S
C3343 C3349 1.465 . S
C3344 C3339 1.399 . S
C3344 C3343 1.394 . S
C3344 C3345 1.516 . S
C3345 C3344 1.516 . S
C3345 C3346 1.502 . S
C3345 C3347 1.561 . S
C3345 C3348 1.526 . S
C3346 H3330 0.959 . S
C3346 H3331 0.959 . S
C3346 H3332 0.961 . S
C3346 C3345 1.502 . S
C3347 H3333 0.960 . S
C3347 H3334 0.961 . S
C3347 H3335 0.959 . S
C3347 C3345 1.561 . S
C3348 C3345 1.526 . S
C3348 C3349 1.396 . S
C3348 C3353 1.390 . S
C3349 C3343 1.465 . S
C3349 C3348 1.396 . S
C3349 C3350 1.399 . S
C3350 H3336 0.929 1_554 S
C3350 C3349 1.399 . S
C3350 C3351 1.385 . S
C3351 H3337 0.931 . S
C3351 C3350 1.385 . S
C3351 C3352 1.389 . S
C3352 C3351 1.389 . S
C3352 C3353 1.387 . S
C3353 H3338 0.930 . S
C3353 C3348 1.390 . S
C3353 C3352 1.387 . S
H3354 C3366 0.930 . S
H3355 C3368 0.930 . S
H3356 C3369 0.930 . S
H3357 C3373 0.959 . S
H3358 C3373 0.959 . S
H3359 C3373 0.961 . S
H3360 C3374 0.960 . S
H3361 C3374 0.961 . S
H3362 C3374 0.959 . S
H3363 C3377 0.929 . S
H3364 C3378 0.931 . S
H3365 C3380 0.930 . S
C3366 H3354 0.930 . S
C3366 C3367 1.399 . S
C3366 C3371 1.399 . S
C3367 C3366 1.399 . S
C3367 C3368 1.376 . S
C3368 H3355 0.930 . S
C3368 C3367 1.376 . S
C3368 C3369 1.388 . S
C3369 H3356 0.930 . S
C3369 C3368 1.388 . S
C3369 C3370 1.390 . S
C3370 C3369 1.390 . S
C3370 C3371 1.394 . S
C3370 C3376 1.465 . S
C3371 C3366 1.399 . S
C3371 C3370 1.394 . S
C3371 C3372 1.516 . S
C3372 C3371 1.516 . S
C3372 C3373 1.502 . S
C3372 C3374 1.561 . S
C3372 C3375 1.526 . S
C3373 H3357 0.959 . S
C3373 H3358 0.959 . S
C3373 H3359 0.961 . S
C3373 C3372 1.502 . S
C3374 H3360 0.960 . S
C3374 H3361 0.961 . S
C3374 H3362 0.959 . S
C3374 C3372 1.561 . S
C3375 C3372 1.526 . S
C3375 C3376 1.396 . S
C3375 C3380 1.390 . S
C3376 C3370 1.465 . S
C3376 C3375 1.396 . S
C3376 C3377 1.399 . S
C3377 H3363 0.929 . S
C3377 C3376 1.399 . S
C3377 C3378 1.385 . S
C3378 H3364 0.931 . S
C3378 C3377 1.385 . S
C3378 C3379 1.389 . S
C3379 C3378 1.389 . S
C3379 C3380 1.387 . S
C3380 H3365 0.930 . S
C3380 C3375 1.390 . S
C3380 C3379 1.387 . S
H3381 C3393 0.930 . S
H3382 C3395 0.930 . S
H3383 C3396 0.930 . S
H3384 C3400 0.959 . S
H3385 C3400 0.959 . S
H3386 C3400 0.961 . S
H3387 C3401 0.960 . S
H3388 C3401 0.961 . S
H3389 C3401 0.959 . S
H3390 C3404 0.929 . S
H3391 C3405 0.931 . S
H3392 C3407 0.930 . S
C3393 H3381 0.930 . S
C3393 C3394 1.399 . S
C3393 C3398 1.399 . S
C3394 C3393 1.399 . S
C3394 C3395 1.376 . S
C3395 H3382 0.930 . S
C3395 C3394 1.376 . S
C3395 C3396 1.388 . S
C3396 H3383 0.930 . S
C3396 C3395 1.388 . S
C3396 C3397 1.390 . S
C3397 C3396 1.390 . S
C3397 C3398 1.394 . S
C3397 C3403 1.465 . S
C3398 C3393 1.399 . S
C3398 C3397 1.394 . S
C3398 C3399 1.516 . S
C3399 C3398 1.516 . S
C3399 C3400 1.502 . S
C3399 C3401 1.561 . S
C3399 C3402 1.526 . S
C3400 H3384 0.959 . S
C3400 H3385 0.959 . S
C3400 H3386 0.961 . S
C3400 C3399 1.502 . S
C3401 H3387 0.960 . S
C3401 H3388 0.961 . S
C3401 H3389 0.959 . S
C3401 C3399 1.561 . S
C3402 C3399 1.526 . S
C3402 C3403 1.396 . S
C3402 C3407 1.390 . S
C3403 C3397 1.465 . S
C3403 C3402 1.396 . S
C3403 C3404 1.399 . S
C3404 H3390 0.929 . S
C3404 C3403 1.399 . S
C3404 C3405 1.385 . S
C3405 H3391 0.931 . S
C3405 C3404 1.385 . S
C3405 C3406 1.389 . S
C3406 C3405 1.389 . S
C3406 C3407 1.387 . S
C3407 H3392 0.930 . S
C3407 C3402 1.390 . S
C3407 C3406 1.387 . S
C841 C337 1.884 . S
C829 C8 1.912 . S
C856 C22 1.248 . S
C868 C382 1.210 . S
C883 C35 1.535 . S
C895 C406 1.573 . S
C922 N432 1.034 . S
C910 C49 1.062 . S
C937 C23 1.464 . S
C949 N462 1.509 . S
C976 C496 1.415 . S
C964 C34 1.414 . S
C1003 C532 0.991 . S
C991 C48 1.016 . S
C1018 C9 1.915 . S
C1030 C556 1.877 . S
C1045 C64 1.106 . S
C1057 N350 1.092 1_545 S
C1072 C77 1.034 . S
C1084 N372 1.002 . S
C1111 C412 1.207 . S
C1099 C92 1.242 . S
C1138 C436 1.866 . S
C1126 C105 1.885 . S
C1153 C63 1.224 . S
C1165 C466 1.175 . S
C1192 C502 1.340 . S
C1180 C78 1.321 . S
C1219 N522 1.114 . S
C1207 C91 1.059 . S
C1246 C562 1.770 . S
C1234 C106 1.796 . S
C1273 C363 1.724 . S
C1261 C107 1.725 . S
C1300 C592 0.933 . S
C1288 C118 0.970 . S
C1315 C135 1.258 . S
C1327 N612 1.328 . S
C1354 C646 1.602 . S
C1342 C146 1.603 . S
C1369 C65 1.035 . S
C1381 N552 1.043 . S
C1408 N402 1.294 1_565 S
C1396 C79 1.292 . S
C1423 C132 1.036 . S
C1435 C682 1.089 . S
C1462 C706 1.056 . S
C1450 C160 1.000 . S
C1477 C177 1.902 . S
C1489 C346 1.854 1_556 S
C1516 C723 0.805 . S
C1504 C188 0.881 . S
C1531 C204 1.866 . S
C1543 C397 1.840 . S
C1558 C219 1.098 . S
C1570 N680 1.108 . S
C1597 N470 1.198 . S
C1585 C190 1.176 . S
C1624 C607 1.484 . S
C1612 C202 1.517 . S
C1651 C543 1.037 . S
C1639 C217 1.062 . S
C1678 C727 1.624 . S
C1666 C175 1.651 . S
C1705 N342 0.883 1_655 S
C1693 C231 0.856 . S
C1720 C246 1.212 . S
C1732 N710 1.233 . S
C1759 C423 0.978 . S
C1747 C259 0.892 . S
C1774 C274 1.907 . S
C1786 C667 1.896 . S
C1801 C232 1.302 . S
C1813 C457 1.301 1_655 S
C1828 C245 1.034 . S
C1840 C633 0.987 . S
C1867 N530 1.111 . S
C1855 C260 1.090 . S
C1882 C273 1.603 . S
C1894 C753 1.600 . S
C1909 C275 1.795 . S
C1921 C352 1.785 1_565 S
C1936 C286 0.954 . S
C1948 C603 1.058 . S
C1963 C303 1.197 . S
C1975 N500 1.198 . S
C1990 C314 1.454 . S
C2002 C637 1.427 . S
C2029 N740 1.011 . S
C2017 C233 0.984 1_565 S
C2056 N410 1.146 . S
C2044 C247 1.167 . S
C2083 C453 1.018 . S
C2071 C300 0.978 . S
C2110 C367 0.958 . S
C2098 C328 1.052 . S
C2125 C36 1.901 . S
C2137 C757 1.901 . S
C2164 C712 1.239 . S
C2152 C50 1.225 . S
C2191 C796 1.550 . S
C2179 C7 1.518 . S
C2206 C21 0.995 . S
C2218 N672 1.040 . S
C2233 C51 1.487 . S
C2245 N582 1.480 1_556 S
C2272 C616 1.400 . S
C2260 C6 1.388 . S
C2299 C652 1.067 . S
C2287 C20 0.964 . S
C2326 C736 1.867 . S
C2314 C37 1.905 . S
C2353 N770 0.999 . S
C2341 C162 0.993 . S
C2368 C119 0.890 . S
C2380 N702 0.982 . S
C2395 C134 1.190 . S
C2407 C802 1.160 . S
C2434 C676 1.866 . S
C2422 C147 1.824 . S
C2461 C586 1.207 . S
C2449 C161 1.204 . S
C2476 C120 1.274 . S
C2488 C622 1.295 . S
C2515 N642 1.091 1_655 S
C2503 C133 1.107 . S
C2530 C148 1.713 . S
C2542 C742 1.736 . S
C2569 C783 1.798 . S
C2557 C149 1.785 . S
C2596 C472 0.851 . S
C2584 C76 0.809 . S
C2623 N492 1.331 . S
C2611 C93 1.284 1_565 S
C2638 C104 1.589 . S
C2650 C526 1.600 . S
C2677 N732 1.082 . S
C2665 C163 1.058 . S
C2692 C121 1.287 . S
C2704 N792 1.285 . S
C2731 C442 1.050 . S
C2719 C90 1.041 . S
C2758 C376 1.008 . S
C2746 C62 0.958 . S
C2773 C203 1.666 . S
C2785 C766 1.614 . S
C2812 C393 0.883 . S
C2800 C216 0.949 . S
C2839 C787 1.608 . S
C2827 C174 1.580 . S
C2854 C191 1.124 . S
C2866 N440 1.123 . S
C2881 C218 1.140 . S
C2893 N590 1.177 . S
C2908 C176 1.767 . S
C2920 C487 1.757 . S
C2935 C189 0.924 . S
C2947 C663 0.987 . S
C2962 C205 1.921 . S
C2974 C547 1.878 . S
C3001 N762 0.874 . S
C2989 C329 0.807 . S
C3016 C288 1.185 . S
C3028 N380 1.203 . S
C3055 C813 0.923 . S
C3043 C301 0.842 . S
C3070 C316 1.843 . S
C3082 C427 1.831 . S
C3097 C330 1.370 . S
C3109 C577 1.367 . S
C3136 C513 1.057 . S
C3124 C287 0.995 . S
C3151 C302 1.129 . S
C3163 N650 1.157 . S
C3190 C573 1.628 . S
C3178 C315 1.574 . S
C3217 C772 1.677 . S
C3205 C317 1.720 . S
C3244 C483 1.035 . S
C3232 C244 0.939 . S
C3259 C261 1.166 . S
C3271 N620 1.175 . S
C3298 C517 1.457 . S
C3286 C272 1.402 . S
C3325 N560 1.026 . S
C3313 C331 1.065 . S
C3340 C289 1.140 . S
C3352 N800 1.119 . S
C3379 C693 1.028 . S
C3367 C258 0.988 . S
C3406 C697 1.074 . S
C3394 C230 0.977 . S
