# Generated by pormake.
# Topology fgl, (4,4)-cn, num edge types: 1
# Building blocks:
#     Node 0, Type 0, BuildingBlock: ESEHIV_clean_sbu_0, # of connection points: 4
#     Node 1, Type 0, BuildingBlock: ESEHIV_clean_sbu_0, # of connection points: 4
#     Node 2, Type 0, BuildingBlock: ESEHIV_clean_sbu_0, # of connection points: 4
#     Node 3, Type 0, BuildingBlock: ESEHIV_clean_sbu_0, # of connection points: 4
#     Node 4, Type 0, BuildingBlock: ESEHIV_clean_sbu_0, # of connection points: 4
#     Node 5, Type 0, BuildingBlock: ESEHIV_clean_sbu_0, # of connection points: 4
#     Node 6, Type 0, BuildingBlock: ESEHIV_clean_sbu_0, # of connection points: 4
#     Node 7, Type 0, BuildingBlock: ESEHIV_clean_sbu_0, # of connection points: 4
#     Node 8, Type 0, BuildingBlock: ESEHIV_clean_sbu_0, # of connection points: 4
#     Node 9, Type 0, BuildingBlock: ESEHIV_clean_sbu_0, # of connection points: 4
#     Node 10, Type 0, BuildingBlock: ESEHIV_clean_sbu_0, # of connection points: 4
#     Node 11, Type 0, BuildingBlock: ESEHIV_clean_sbu_0, # of connection points: 4
#     Node 12, Type 0, BuildingBlock: ESEHIV_clean_sbu_0, # of connection points: 4
#     Node 13, Type 0, BuildingBlock: ESEHIV_clean_sbu_0, # of connection points: 4
#     Node 14, Type 0, BuildingBlock: ESEHIV_clean_sbu_0, # of connection points: 4
#     Node 15, Type 0, BuildingBlock: ESEHIV_clean_sbu_0, # of connection points: 4
#     Node 16, Type 0, BuildingBlock: ESEHIV_clean_sbu_0, # of connection points: 4
#     Node 17, Type 0, BuildingBlock: ESEHIV_clean_sbu_0, # of connection points: 4
#     Node 18, Type 1, BuildingBlock: CEKHIL_clean_sbu_0, # of connection points: 4
#     Node 19, Type 1, BuildingBlock: CEKHIL_clean_sbu_0, # of connection points: 4
#     Node 20, Type 1, BuildingBlock: CEKHIL_clean_sbu_0, # of connection points: 4
#     Node 21, Type 1, BuildingBlock: CEKHIL_clean_sbu_0, # of connection points: 4
#     Node 22, Type 1, BuildingBlock: CEKHIL_clean_sbu_0, # of connection points: 4
#     Node 23, Type 1, BuildingBlock: CEKHIL_clean_sbu_0, # of connection points: 4
#     Node 24, Type 1, BuildingBlock: CEKHIL_clean_sbu_0, # of connection points: 4
#     Node 25, Type 1, BuildingBlock: CEKHIL_clean_sbu_0, # of connection points: 4
#     Node 26, Type 1, BuildingBlock: CEKHIL_clean_sbu_0, # of connection points: 4
#     Node 27, Type 1, BuildingBlock: CEKHIL_clean_sbu_0, # of connection points: 4
#     Node 28, Type 1, BuildingBlock: CEKHIL_clean_sbu_0, # of connection points: 4
#     Node 29, Type 1, BuildingBlock: CEKHIL_clean_sbu_0, # of connection points: 4
#     Node 30, Type 1, BuildingBlock: CEKHIL_clean_sbu_0, # of connection points: 4
#     Node 31, Type 1, BuildingBlock: CEKHIL_clean_sbu_0, # of connection points: 4
#     Node 32, Type 1, BuildingBlock: CEKHIL_clean_sbu_0, # of connection points: 4
#     Node 33, Type 1, BuildingBlock: CEKHIL_clean_sbu_0, # of connection points: 4
#     Node 34, Type 1, BuildingBlock: CEKHIL_clean_sbu_0, # of connection points: 4
#     Node 35, Type 1, BuildingBlock: CEKHIL_clean_sbu_0, # of connection points: 4
#     Edge 36, Type (0, 1), BuildingBlock: OJICUG_clean_linker_0, # of connection points: 2
#     Edge 37, Type (0, 1), BuildingBlock: OJICUG_clean_linker_0, # of connection points: 2
#     Edge 38, Type (0, 1), BuildingBlock: OJICUG_clean_linker_0, # of connection points: 2
#     Edge 39, Type (0, 1), BuildingBlock: OJICUG_clean_linker_0, # of connection points: 2
#     Edge 40, Type (0, 1), BuildingBlock: OJICUG_clean_linker_0, # of connection points: 2
#     Edge 41, Type (0, 1), BuildingBlock: OJICUG_clean_linker_0, # of connection points: 2
#     Edge 42, Type (0, 1), BuildingBlock: OJICUG_clean_linker_0, # of connection points: 2
#     Edge 43, Type (0, 1), BuildingBlock: OJICUG_clean_linker_0, # of connection points: 2
#     Edge 44, Type (0, 1), BuildingBlock: OJICUG_clean_linker_0, # of connection points: 2
#     Edge 45, Type (0, 1), BuildingBlock: OJICUG_clean_linker_0, # of connection points: 2
#     Edge 46, Type (0, 1), BuildingBlock: OJICUG_clean_linker_0, # of connection points: 2
#     Edge 47, Type (0, 1), BuildingBlock: OJICUG_clean_linker_0, # of connection points: 2
#     Edge 48, Type (0, 1), BuildingBlock: OJICUG_clean_linker_0, # of connection points: 2
#     Edge 49, Type (0, 1), BuildingBlock: OJICUG_clean_linker_0, # of connection points: 2
#     Edge 50, Type (0, 1), BuildingBlock: OJICUG_clean_linker_0, # of connection points: 2
#     Edge 51, Type (0, 1), BuildingBlock: OJICUG_clean_linker_0, # of connection points: 2
#     Edge 52, Type (0, 1), BuildingBlock: OJICUG_clean_linker_0, # of connection points: 2
#     Edge 53, Type (0, 1), BuildingBlock: OJICUG_clean_linker_0, # of connection points: 2
#     Edge 54, Type (0, 1), BuildingBlock: OJICUG_clean_linker_0, # of connection points: 2
#     Edge 55, Type (0, 1), BuildingBlock: OJICUG_clean_linker_0, # of connection points: 2
#     Edge 56, Type (0, 1), BuildingBlock: OJICUG_clean_linker_0, # of connection points: 2
#     Edge 57, Type (0, 1), BuildingBlock: OJICUG_clean_linker_0, # of connection points: 2
#     Edge 58, Type (0, 1), BuildingBlock: OJICUG_clean_linker_0, # of connection points: 2
#     Edge 59, Type (0, 1), BuildingBlock: OJICUG_clean_linker_0, # of connection points: 2
#     Edge 60, Type (0, 1), BuildingBlock: OJICUG_clean_linker_0, # of connection points: 2
#     Edge 61, Type (0, 1), BuildingBlock: OJICUG_clean_linker_0, # of connection points: 2
#     Edge 62, Type (0, 1), BuildingBlock: OJICUG_clean_linker_0, # of connection points: 2
#     Edge 63, Type (0, 1), BuildingBlock: OJICUG_clean_linker_0, # of connection points: 2
#     Edge 64, Type (0, 1), BuildingBlock: OJICUG_clean_linker_0, # of connection points: 2
#     Edge 65, Type (0, 1), BuildingBlock: OJICUG_clean_linker_0, # of connection points: 2
#     Edge 66, Type (0, 1), BuildingBlock: OJICUG_clean_linker_0, # of connection points: 2
#     Edge 67, Type (0, 1), BuildingBlock: OJICUG_clean_linker_0, # of connection points: 2
#     Edge 68, Type (0, 1), BuildingBlock: OJICUG_clean_linker_0, # of connection points: 2
#     Edge 69, Type (0, 1), BuildingBlock: OJICUG_clean_linker_0, # of connection points: 2
#     Edge 70, Type (0, 1), BuildingBlock: OJICUG_clean_linker_0, # of connection points: 2
#     Edge 71, Type (0, 1), BuildingBlock: OJICUG_clean_linker_0, # of connection points: 2
#     Edge 72, Type (0, 1), BuildingBlock: OJICUG_clean_linker_0, # of connection points: 2
#     Edge 73, Type (0, 1), BuildingBlock: OJICUG_clean_linker_0, # of connection points: 2
#     Edge 74, Type (0, 1), BuildingBlock: OJICUG_clean_linker_0, # of connection points: 2
#     Edge 75, Type (0, 1), BuildingBlock: OJICUG_clean_linker_0, # of connection points: 2
#     Edge 76, Type (0, 1), BuildingBlock: OJICUG_clean_linker_0, # of connection points: 2
#     Edge 77, Type (0, 1), BuildingBlock: OJICUG_clean_linker_0, # of connection points: 2
#     Edge 78, Type (0, 1), BuildingBlock: OJICUG_clean_linker_0, # of connection points: 2
#     Edge 79, Type (0, 1), BuildingBlock: OJICUG_clean_linker_0, # of connection points: 2
#     Edge 80, Type (0, 1), BuildingBlock: OJICUG_clean_linker_0, # of connection points: 2
#     Edge 81, Type (0, 1), BuildingBlock: OJICUG_clean_linker_0, # of connection points: 2
#     Edge 82, Type (0, 1), BuildingBlock: OJICUG_clean_linker_0, # of connection points: 2
#     Edge 83, Type (0, 1), BuildingBlock: OJICUG_clean_linker_0, # of connection points: 2
#     Edge 84, Type (0, 1), BuildingBlock: OJICUG_clean_linker_0, # of connection points: 2
#     Edge 85, Type (0, 1), BuildingBlock: OJICUG_clean_linker_0, # of connection points: 2
#     Edge 86, Type (0, 1), BuildingBlock: OJICUG_clean_linker_0, # of connection points: 2
#     Edge 87, Type (0, 1), BuildingBlock: OJICUG_clean_linker_0, # of connection points: 2
#     Edge 88, Type (0, 1), BuildingBlock: OJICUG_clean_linker_0, # of connection points: 2
#     Edge 89, Type (0, 1), BuildingBlock: OJICUG_clean_linker_0, # of connection points: 2
#     Edge 90, Type (0, 1), BuildingBlock: OJICUG_clean_linker_0, # of connection points: 2
#     Edge 91, Type (0, 1), BuildingBlock: OJICUG_clean_linker_0, # of connection points: 2
#     Edge 92, Type (0, 1), BuildingBlock: OJICUG_clean_linker_0, # of connection points: 2
#     Edge 93, Type (0, 1), BuildingBlock: OJICUG_clean_linker_0, # of connection points: 2
#     Edge 94, Type (0, 1), BuildingBlock: OJICUG_clean_linker_0, # of connection points: 2
#     Edge 95, Type (0, 1), BuildingBlock: OJICUG_clean_linker_0, # of connection points: 2
#     Edge 96, Type (0, 1), BuildingBlock: OJICUG_clean_linker_0, # of connection points: 2
#     Edge 97, Type (0, 1), BuildingBlock: OJICUG_clean_linker_0, # of connection points: 2
#     Edge 98, Type (0, 1), BuildingBlock: OJICUG_clean_linker_0, # of connection points: 2
#     Edge 99, Type (0, 1), BuildingBlock: OJICUG_clean_linker_0, # of connection points: 2
#     Edge 100, Type (0, 1), BuildingBlock: OJICUG_clean_linker_0, # of connection points: 2
#     Edge 101, Type (0, 1), BuildingBlock: OJICUG_clean_linker_0, # of connection points: 2
#     Edge 102, Type (0, 1), BuildingBlock: OJICUG_clean_linker_0, # of connection points: 2
#     Edge 103, Type (0, 1), BuildingBlock: OJICUG_clean_linker_0, # of connection points: 2
#     Edge 104, Type (0, 1), BuildingBlock: OJICUG_clean_linker_0, # of connection points: 2
#     Edge 105, Type (0, 1), BuildingBlock: OJICUG_clean_linker_0, # of connection points: 2
#     Edge 106, Type (0, 1), BuildingBlock: OJICUG_clean_linker_0, # of connection points: 2
#     Edge 107, Type (0, 1), BuildingBlock: OJICUG_clean_linker_0, # of connection points: 2
# Relax obj value: 0.021
# Max RMSD: 0.138
# Mean RMSD: 0.078
data_MOF--net-fgl--node1-ESEHIV_clean_sbu_0--node2-CEKHIL_clean_sbu_0--edge1-OJICUG_clean_linker_0
_symmetry_space_group_name_H-M    P1
_symmetry_Int_Tables_number       1
_symmetry_cell_setting            triclinic
loop_
_symmetry_equiv_pos_as_xyz
'x, y, z'
_cell_length_a     55.46884
_cell_length_b     54.927905
_cell_length_c     37.536001
_cell_angle_alpha  90.809671
_cell_angle_beta   90.791296
_cell_angle_gamma 119.77429
loop_
_atom_site_label
_atom_site_type_symbol
_atom_site_fract_x
_atom_site_fract_y
_atom_site_fract_z
_atom_type_partial_charge
Cu0 Cu 1.01714 0.52951 0.02796 0.0
N1 N 0.99553 0.53011 0.06606 0.0
N2 N 0.98725 0.55055 0.11308 0.0
C3 C 1.00632 0.55149 0.09032 0.0
C4 C 0.96337 0.52713 0.10307 0.0
C5 C 0.96849 0.51465 0.0739 0.0
O6 O 0.03708 0.56845 1.01392 0.0
C7 C 0.02299 0.48599 0.04859 0.0
O8 O 0.9961 0.47442 0.0424 0.0
H9 H 0.02785 0.56795 0.09052 0.0
H10 H 0.95341 0.49632 0.05876 0.0
N11 N 1.00026 0.50886 0.98541 0.0
N12 N 0.99991 0.4876 0.9336 0.0
C13 C 1.01353 0.49913 0.96477 0.0
C14 C 0.97727 0.50347 0.96645 0.0
C15 C 0.97701 0.49032 0.93444 0.0
C16 C 0.01995 0.57727 1.00891 0.0
O17 O 0.99323 0.55964 1.01134 0.0
H18 H 0.03344 0.50127 0.97217 0.0
H19 H 0.96211 0.50916 0.97483 0.0
O20 O 0.03821 0.51249 0.04568 0.0
H21 H 0.94339 0.5201 0.115 0.0
H22 H 0.96114 0.48319 0.91357 0.0
Cu23 Cu 0.54003 0.5551 0.03328 0.0
N24 N 0.53932 0.56976 0.98805 0.0
N25 N 0.55517 0.58808 0.93419 0.0
C26 C 0.56149 0.58165 0.96646 0.0
C27 C 0.52782 0.57977 0.93563 0.0
C28 C 0.51811 0.56832 0.96855 0.0
O29 O 0.57722 0.58421 0.05215 0.0
C30 C 0.51292 0.49366 0.03926 0.0
O31 O 0.50963 0.49707 0.0731 0.0
H32 H 0.58187 0.58526 0.9743 0.0
H33 H 0.49685 0.55877 0.97696 0.0
N34 N 0.51353 0.55289 0.06671 0.0
N35 N 0.48816 0.53899 0.11658 0.0
C36 C 0.51261 0.54554 0.10124 0.0
C37 C 0.4893 0.55223 0.06047 0.0
C38 C 0.47379 0.54386 0.09092 0.0
C39 C 0.57867 0.60804 0.05799 0.0
O40 O 0.55599 0.60966 0.05365 0.0
H41 H 0.52865 0.5426 0.11372 0.0
H42 H 0.48254 0.55595 0.03505 0.0
O43 O 0.52902 0.51521 0.02109 0.0
H44 H 0.51537 0.58095 0.914 0.0
H45 H 0.45295 0.5405 0.09316 0.0
Cu46 Cu 0.53551 0.05626 0.02949 0.0
N47 N 0.52876 0.06987 0.98801 0.0
N48 N 0.50859 0.06742 0.93536 0.0
C49 C 0.50848 0.05343 0.96455 0.0
C50 C 0.52983 0.09389 0.94083 0.0
C51 C 0.54232 0.09534 0.97351 0.0
O52 O 0.49828 0.03027 0.04673 0.0
C53 C 0.57386 0.04687 0.98981 0.0
O54 O 0.56359 0.05294 0.96183 0.0
H55 H 0.49426 0.0314 0.96867 0.0
H56 H 0.56006 0.11348 0.98566 0.0
N57 N 0.55495 0.08477 0.06313 0.0
N58 N 0.58458 0.10505 0.10916 0.0
C59 C 0.57542 0.08526 0.08303 0.0
C60 C 0.55088 0.1052 0.07675 0.0
C61 C 0.56915 0.11773 0.1055 0.0
C62 C 0.4901 0.03017 0.07839 0.0
O63 O 0.50862 0.04339 0.10408 0.0
H64 H 0.58185 0.06971 0.08012 0.0
H65 H 0.53484 0.10958 0.06775 0.0
O66 O 0.56127 0.04229 0.01935 0.0
H67 H 0.53557 0.11109 0.92291 0.0
H68 H 0.57013 0.13396 0.12315 0.0
Cu69 Cu 0.52919 0.04525 0.52912 0.0
N70 N 0.52894 0.02914 0.48495 0.0
N71 N 0.54773 0.02445 0.43472 0.0
C72 C 0.55147 0.04016 0.46443 0.0
C73 C 0.52153 1.0026 0.43666 0.0
C74 C 0.51001 1.00549 0.46779 0.0
O75 O 0.56638 0.05353 0.54938 0.0
C76 C 0.50274 0.07397 0.49534 0.0
O77 O 0.50143 0.05908 0.46697 0.0
H78 H 0.57026 0.05953 0.47138 0.0
H79 H 0.48949 0.99128 0.47729 0.0
N80 N 0.50216 0.02105 0.56017 0.0
N81 N 0.47408 1.01086 0.60662 0.0
C82 C 0.49498 0.03121 0.58836 0.0
C83 C 0.48517 0.99308 0.56021 0.0
C84 C 0.4678 0.98672 0.58894 0.0
C85 C 0.56846 0.03232 0.55972 0.0
O86 O 0.54572 1.00777 0.56032 0.0
H87 H 0.50444 0.05343 0.59444 0.0
H88 H 0.48519 0.97842 0.54072 0.0
O89 O 0.51705 0.07404 0.52274 0.0
H90 H 0.51147 0.98546 0.41735 0.0
H91 H 0.4518 0.96595 0.59606 0.0
Cu92 Cu 0.05312 0.57421 0.54568 0.0
N93 N 0.07375 0.56642 0.58007 0.0
N94 N 0.07835 0.53934 0.62158 0.0
C95 C 0.06079 0.54568 0.60378 0.0
C96 C 0.10363 0.55735 0.60859 0.0
C97 C 0.10072 0.57381 0.58302 0.0
O98 O 0.02563 0.53588 0.5315 0.0
C99 C 0.06291 0.62577 0.56753 0.0
O100 O 0.08734 0.63044 0.55723 0.0
H101 H 0.0385 0.53462 0.60655 0.0
H102 H 0.11689 0.58891 0.56647 0.0
N103 N 0.06866 0.59157 0.50196 0.0
N104 N 0.06976 0.61197 0.44974 0.0
C105 C 0.05458 0.59861 0.47835 0.0
C106 C 0.09382 0.60084 0.48789 0.0
C107 C 0.09452 0.61329 0.45576 0.0
C108 C 0.03831 0.52393 0.51808 0.0
O109 O 0.06518 0.53881 0.51334 0.0
H110 H 0.03342 0.5939 0.48231 0.0
H111 H 0.11058 0.59907 0.50027 0.0
O112 O 0.04273 0.60043 0.56735 0.0
H113 H 0.12284 0.55783 0.61558 0.0
H114 H 0.11221 0.62306 0.43859 0.0
Cu115 Cu 0.53023 0.59169 0.53297 0.0
N116 N 0.55084 0.62743 0.51471 0.0
N117 N 0.58956 0.66274 0.49315 0.0
C118 C 0.57865 0.64316 0.51835 0.0
C119 C 0.56778 0.65941 0.47297 0.0
C120 C 0.54385 0.63763 0.48644 0.0
O121 O 0.55665 0.58809 0.56491 0.0
C122 C 0.50075 0.54048 0.48822 0.0
O123 O 0.49663 0.52588 0.51718 0.0
H124 H 0.59096 0.6382 0.53631 0.0
H125 H 0.52329 0.62801 0.47423 0.0
N126 N 0.50037 0.58834 0.55919 0.0
N127 N 0.45816 0.56508 0.58234 0.0
C128 C 0.47413 0.56727 0.55449 0.0
C129 C 0.50092 0.60052 0.59085 0.0
C130 C 0.47487 0.58591 0.60545 0.0
C131 C 0.55225 0.58028 0.59723 0.0
O132 O 0.52657 0.56602 0.60804 0.0
H133 H 0.46749 0.55207 0.53271 0.0
H134 H 0.51952 0.61702 0.60389 0.0
O135 O 0.51545 0.56712 0.49025 0.0
H136 H 0.56929 0.67047 0.44871 0.0
H137 H 0.46918 0.58918 0.63183 0.0
Cu138 Cu 0.70859 0.89581 0.35675 0.0
N139 N 0.72288 0.93066 0.33607 0.0
N140 N 0.72081 0.96616 0.31135 0.0
C141 C 0.70689 0.94202 0.32879 0.0
C142 C 0.74674 0.97033 0.30751 0.0
C143 C 0.74806 0.94837 0.32317 0.0
O144 O 0.69043 0.89991 0.4013 0.0
C145 C 0.70547 0.87129 0.28889 0.0
O146 O 0.73114 0.89219 0.29069 0.0
H147 H 0.68506 0.93209 0.33493 0.0
H148 H 0.76575 0.94513 0.32409 0.0
N149 N 0.73608 0.88792 0.37154 0.0
N150 N 0.75423 0.86042 0.38232 0.0
C151 C 0.73175 0.86161 0.3709 0.0
C152 C 0.76234 0.90421 0.38389 0.0
C153 C 0.77359 0.88716 0.39082 0.0
C154 C 0.70655 0.92178 0.42077 0.0
O155 O 0.73221 0.93737 0.41043 0.0
H156 H 0.71218 0.84358 0.36256 0.0
H157 H 0.7726 0.92676 0.38747 0.0
O158 O 0.6898 0.86808 0.31567 0.0
H159 H 0.76335 0.98774 0.29402 0.0
H160 H 0.79442 0.89393 0.40082 0.0
Cu161 Cu 0.20139 0.89449 0.37251 0.0
N162 N 0.16701 0.87515 0.34752 0.0
N163 N 0.13066 0.83785 0.32112 0.0
C164 C 0.15459 0.84734 0.34014 0.0
C165 C 0.12781 0.86064 0.31635 0.0
C166 C 0.15013 0.8836 0.33298 0.0
O167 O 0.19353 0.87101 0.41574 0.0
C168 C 0.2276 0.91661 0.31108 0.0
O169 O 0.20853 0.92394 0.31469 0.0
H170 H 0.16339 0.83443 0.34789 0.0
H171 H 0.15394 0.90491 0.33396 0.0
N172 N 0.2132 0.93147 0.38893 0.0
N173 N 0.2438 0.97594 0.40561 0.0
C174 C 0.2403 0.95131 0.39264 0.0
C175 C 0.19897 0.9441 0.39969 0.0
C176 C 0.21779 0.97144 0.41023 0.0
C177 C 0.17163 0.86783 0.43131 0.0
O178 O 0.1597 0.88158 0.41892 0.0
H179 H 0.2572 0.94753 0.38655 0.0
H180 H 0.17657 0.9342 0.39998 0.0
O181 O 0.22929 0.90114 0.3353 0.0
H182 H 0.11081 0.86069 0.3019 0.0
H183 H 0.21272 0.98688 0.4203 0.0
Cu184 Cu 0.21034 0.4115 0.38037 0.0
N185 N 0.20686 0.43135 0.34305 0.0
N186 N 0.18889 0.43544 0.29136 0.0
C187 C 0.19316 0.41833 0.31267 0.0
C188 C 0.20086 0.46048 0.30919 0.0
C189 C 0.21187 0.45785 0.34118 0.0
O190 O 0.17078 0.38532 0.39055 0.0
C191 C 0.25914 0.41855 0.35201 0.0
O192 O 0.26106 0.44303 0.3468 0.0
H193 H 0.18541 0.39624 0.30737 0.0
H194 H 0.22144 0.47362 0.36223 0.0
N195 N 0.22805 0.43318 0.42087 0.0
N196 N 0.25228 0.44204 0.47197 0.0
C197 C 0.24325 0.42617 0.44192 0.0
C198 C 0.22733 0.45451 0.43797 0.0
C199 C 0.24228 0.45998 0.46981 0.0
C200 C 0.15921 0.38537 0.41987 0.0
O201 O 0.17481 0.39636 0.44873 0.0
H202 H 0.24609 0.40842 0.43614 0.0
H203 H 0.21579 0.46442 0.42883 0.0
O204 O 0.23667 0.399 0.3651 0.0
H205 H 0.20026 0.47896 0.30096 0.0
H206 H 0.2449 0.47535 0.4901 0.0
Cu207 Cu 0.20027 0.36185 0.88167 0.0
N208 N 0.20316 0.34065 0.84471 0.0
N209 N 0.22588 0.33669 0.79838 0.0
C210 C 0.22404 0.35412 0.82221 0.0
C211 C 0.2048 0.31088 0.80573 0.0
C212 C 0.19087 0.31335 0.83482 0.0
O213 O 0.23957 0.3808 0.89922 0.0
C214 C 0.15628 0.36253 0.84961 0.0
O215 O 0.1494 0.336 0.85163 0.0
H216 H 0.23778 0.37661 0.82355 0.0
H217 H 0.1735 0.29651 0.84797 0.0
N218 N 0.17797 0.34248 0.91985 0.0
N219 N 0.15486 0.33833 0.96992 0.0
C220 C 0.17215 0.35594 0.94554 0.0
C221 C 0.16382 0.31516 0.9279 0.0
C222 C 0.14955 0.31254 0.95887 0.0
C223 C 0.24592 0.36408 0.91514 0.0
O224 O 0.22577 0.33892 0.92253 0.0
H225 H 0.17984 0.3783 0.94539 0.0
H226 H 0.16366 0.29838 0.91231 0.0
O227 O 0.18082 0.38084 0.8607 0.0
H228 H 0.20014 0.29165 0.79164 0.0
H229 H 0.13623 0.29309 0.97198 0.0
Cu230 Cu 0.7178 0.89548 0.85847 0.0
N231 N 0.73251 0.87442 0.8381 0.0
N232 N 0.73155 0.83534 0.81848 0.0
C233 C 0.71644 0.84757 0.82691 0.0
C234 C 0.75828 0.85524 0.82435 0.0
C235 C 0.75886 0.87949 0.83617 0.0
O236 O 0.6988 0.87322 0.90262 0.0
C237 C 0.71719 0.918 0.79178 0.0
O238 O 0.74267 0.92248 0.79562 0.0
H239 H 0.69395 0.8367 0.82701 0.0
H240 H 0.77714 0.89896 0.84401 0.0
N241 N 0.74483 0.93114 0.87569 0.0
N242 N 0.7614 0.9753 0.89584 0.0
C243 C 0.73976 0.95257 0.88009 0.0
C244 C 0.77078 0.94075 0.88892 0.0
C245 C 0.78099 0.96793 0.90149 0.0
C246 C 0.71529 0.86978 0.92404 0.0
O247 O 0.7413 0.88078 0.91477 0.0
H248 H 0.71995 0.95096 0.87349 0.0
H249 H 0.78125 0.92866 0.89075 0.0
O250 O 0.70019 0.90498 0.81701 0.0
H251 H 0.77602 0.85226 0.82106 0.0
H252 H 0.801 0.981 0.91456 0.0
Cu253 Cu 0.18864 0.89303 0.87998 0.0
N254 N 0.16898 0.89756 0.84202 0.0
N255 N 0.14655 0.88521 0.78881 0.0
C256 C 0.15539 0.87686 0.81741 0.0
C257 C 0.15474 0.91247 0.79612 0.0
C258 C 0.16863 0.92005 0.82894 0.0
O259 O 0.1652 0.8537 0.89156 0.0
C260 C 0.23521 0.91329 0.83355 0.0
O261 O 0.21724 0.90528 0.80676 0.0
H262 H 0.15407 0.85662 0.81944 0.0
H263 H 0.179 0.94077 0.84132 0.0
N264 N 0.19408 0.91468 0.92157 0.0
N265 N 0.21321 0.93454 0.97494 0.0
C266 C 0.21059 0.91589 0.9491 0.0
C267 C 0.18577 0.93316 0.93005 0.0
C268 C 0.19745 0.94537 0.96291 0.0
C269 C 0.1425 0.84819 0.90643 0.0
O270 O 0.13886 0.86914 0.91637 0.0
H271 H 0.22092 0.90359 0.94953 0.0
H272 H 0.17282 0.93799 0.91315 0.0
O273 O 0.22655 0.90569 0.86499 0.0
H274 H 0.15187 0.92633 0.77859 0.0
H275 H 0.19534 0.96185 0.97603 0.0
Cu276 Cu 0.38466 0.24224 0.70732 0.0
N277 N 0.40588 0.27937 0.69342 0.0
N278 N 0.40942 0.31849 0.67117 0.0
C279 C 0.3956 0.29026 0.66981 0.0
C280 C 0.42946 0.32581 0.69657 0.0
C281 C 0.42731 0.30156 0.7102 0.0
O282 O 0.36357 0.24512 0.74878 0.0
C283 C 0.38537 0.22433 0.63797 0.0
O284 O 0.4114 0.24358 0.64425 0.0
H285 H 0.37636 0.27767 0.65483 0.0
H286 H 0.43885 0.30031 0.73285 0.0
N287 N 0.40461 0.2253 0.72318 0.0
N288 N 0.4107 0.18915 0.73602 0.0
C289 C 0.39298 0.19721 0.72351 0.0
C290 C 0.43086 0.23557 0.73552 0.0
C291 C 0.43458 0.21318 0.74387 0.0
C292 C 0.37825 0.25652 0.77739 0.0
O293 O 0.40432 0.26267 0.77787 0.0
H294 H 0.37163 0.18293 0.71536 0.0
H295 H 0.44605 0.25761 0.7385 0.0
O296 O 0.36762 0.22024 0.66226 0.0
H297 H 0.44333 0.34702 0.70628 0.0
H298 H 0.45337 0.21445 0.75471 0.0
Cu299 Cu 0.86698 0.21812 0.68437 0.0
N300 N 0.86685 0.24082 0.64726 0.0
N301 N 0.88303 0.26809 0.59941 0.0
C302 C 0.88005 0.24505 0.61602 0.0
C303 C 0.8702 0.27806 0.62055 0.0
C304 C 0.86037 0.26134 0.64991 0.0
O305 O 0.90587 0.23913 0.70408 0.0
C306 C 0.83842 0.15547 0.68194 0.0
O307 O 0.84521 0.156 0.71572 0.0
H308 H 0.88882 0.23243 0.60681 0.0
H309 H 0.85118 0.26526 0.67293 0.0
N310 N 0.84596 0.21955 0.72254 0.0
N311 N 0.82198 0.20716 0.77306 0.0
C312 C 0.82604 0.19828 0.7411 0.0
C313 C 0.85407 0.24266 0.74322 0.0
C314 C 0.83944 0.23513 0.77427 0.0
C315 C 0.92796 0.25368 0.68639 0.0
O316 O 0.92785 0.24786 0.65237 0.0
H317 H 0.81627 0.17647 0.73291 0.0
H318 H 0.87123 0.26318 0.73747 0.0
O319 O 0.84849 0.17861 0.6652 0.0
H320 H 0.86993 0.29741 0.61673 0.0
H321 H 0.84277 0.24885 0.79705 0.0
Cu322 Cu 0.8673 0.69963 0.67602 0.0
N323 N 0.84825 0.67956 0.63493 0.0
N324 N 0.82703 0.67413 0.58195 0.0
C325 C 0.84539 0.69241 0.60641 0.0
C326 C 0.81798 0.64853 0.59579 0.0
C327 C 0.83112 0.65195 0.62861 0.0
O328 O 0.84153 0.7093 0.69961 0.0
C329 C 0.92285 0.74738 0.68042 0.0
O330 O 0.91707 0.7502 0.71351 0.0
H331 H 0.85503 0.715 0.60514 0.0
H332 H 0.8272 0.63567 0.64731 0.0
N333 N 0.87626 0.67873 0.7066 0.0
N334 N 0.8987 0.67251 0.75244 0.0
C335 C 0.88787 0.68786 0.73925 0.0
C336 C 0.87936 0.65649 0.69885 0.0
C337 C 0.89304 0.65248 0.72717 0.0
C338 C 0.81987 0.68901 0.71306 0.0
O339 O 0.8177 0.66408 0.71312 0.0
H340 H 0.89015 0.70674 0.75179 0.0
H341 H 0.87385 0.64522 0.6735 0.0
O342 O 0.90338 0.72965 0.65981 0.0
H343 H 0.80217 0.62885 0.58389 0.0
H344 H 0.89935 0.63676 0.72821 0.0
Cu345 Cu 0.84416 0.69395 0.16823 0.0
N346 N 0.84837 0.67988 0.12418 0.0
N347 N 0.87092 0.67406 0.07839 0.0
C348 C 0.87324 0.688 0.10942 0.0
C349 C 0.8433 0.65645 0.07356 0.0
C350 C 0.82951 0.66002 0.10179 0.0
O351 O 0.87964 0.70464 0.19404 0.0
C352 C 0.81755 0.72259 0.13579 0.0
O353 O 0.81692 0.70884 0.10658 0.0
H354 H 0.89273 0.70352 0.12176 0.0
H355 H 0.80733 0.64897 0.1056 0.0
N356 N 0.81638 0.66764 0.19667 0.0
N357 N 0.79133 0.65584 0.24616 0.0
C358 C 0.8154 0.67409 0.23105 0.0
C359 C 0.79195 0.64429 0.18932 0.0
C360 C 0.7764 0.63692 0.21995 0.0
C361 C 0.88214 0.68457 0.2074 0.0
O362 O 0.86064 0.65909 0.20576 0.0
H363 H 0.83127 0.69337 0.24372 0.0
H364 H 0.78513 0.63444 0.16321 0.0
O365 O 0.83135 0.72187 0.16309 0.0
H366 H 0.83355 0.64213 0.05106 0.0
H367 H 0.75532 0.61982 0.22216 0.0
Cu368 Cu 0.39817 0.23485 0.20505 0.0
N369 N 0.41346 0.21258 0.19101 0.0
N370 N 0.41114 0.17109 0.1811 0.0
C371 C 0.39735 0.18558 0.18029 0.0
C372 C 0.43715 0.18981 0.1926 0.0
C373 C 0.43855 0.21543 0.19864 0.0
O374 O 0.38067 0.21695 0.25139 0.0
C375 C 0.37462 0.25861 0.15552 0.0
O376 O 0.37535 0.27401 0.18303 0.0
H377 H 0.37522 0.17613 0.17507 0.0
H378 H 0.45595 0.23412 0.21036 0.0
N379 N 0.42431 0.27243 0.21562 0.0
N380 N 0.43487 0.31603 0.23235 0.0
C381 C 0.41927 0.28833 0.23862 0.0
C382 C 0.44417 0.29072 0.19428 0.0
C383 C 0.4508 0.31765 0.20462 0.0
C384 C 0.39879 0.2201 0.27562 0.0
O385 O 0.42507 0.2363 0.26817 0.0
H386 H 0.40209 0.27953 0.25669 0.0
H387 H 0.45124 0.28483 0.17069 0.0
O388 O 0.37908 0.23811 0.16091 0.0
H389 H 0.45359 0.18504 0.19775 0.0
H390 H 0.465 0.33674 0.1914 0.0
Cu391 Cu 0.85883 0.24648 0.20155 0.0
N392 N 0.83904 0.24599 0.16058 0.0
N393 N 0.81169 0.22686 0.11187 0.0
C394 C 0.82546 0.22303 0.13925 0.0
C395 C 0.81705 0.2536 0.11628 0.0
C396 C 0.83388 0.26533 0.14638 0.0
O397 O 0.83613 0.20939 0.22107 0.0
C398 C 0.90856 0.267 0.16167 0.0
O399 O 0.89302 0.26426 0.13352 0.0
H400 H 0.82614 0.20399 0.1438 0.0
H401 H 0.84171 0.28636 0.15708 0.0
N402 N 0.86371 0.27326 0.23587 0.0
N403 N 0.88345 0.3002 0.28443 0.0
C404 C 0.88204 0.27969 0.26303 0.0
C405 C 0.85286 0.29021 0.24004 0.0
C406 C 0.86519 0.30706 0.27006 0.0
C407 C 0.81885 0.20541 0.24554 0.0
O408 O 0.82075 0.22708 0.26324 0.0
H409 H 0.89493 0.27014 0.26612 0.0
H410 H 0.83745 0.29056 0.22243 0.0
O411 O 0.89708 0.25693 0.19114 0.0
H412 H 0.80927 0.26402 0.09926 0.0
H413 H 0.8613 0.32331 0.28018 0.0
Co414 Co 0.02135 0.66302 0.27406 0.0
O415 O 0.04703 0.65304 0.29598 0.0
O416 O 1.0154 0.65728 0.32558 0.0
C417 C 1.00916 0.63169 0.22697 0.0
O418 O 0.99048 0.6722 0.25951 0.0
Co419 Co 0.0338 0.68903 0.19959 0.0
O420 O 0.99805 0.68841 0.20356 0.0
C421 C 0.06238 0.72567 0.26232 0.0
C422 C 0.03543 0.65135 0.32621 0.0
C423 C 0.9839 0.68176 0.23179 0.0
O424 O 0.04887 0.70467 0.28286 0.0
O425 O 0.06037 0.72331 0.22829 0.0
O426 O 0.99735 0.62401 0.25753 0.0
O427 O 0.02942 0.65733 0.22656 0.0
Co428 Co 0.42524 0.46009 0.30229 0.0
O429 O 0.45958 0.47964 0.27528 0.0
O430 O 0.41825 0.47028 0.25564 0.0
C431 C 0.44392 0.48437 0.35483 0.0
O432 O 0.38489 0.44284 0.31963 0.0
Co433 Co 0.41492 0.42554 0.37015 0.0
O434 O 0.37741 0.42148 0.37197 0.0
C435 C 0.4214 0.40321 0.30064 0.0
C436 C 0.44458 0.48164 0.24971 0.0
C437 C 0.36881 0.4296 0.34559 0.0
O438 O 0.41917 0.42236 0.28363 0.0
O439 O 0.42249 0.40278 0.3347 0.0
O440 O 0.43607 0.49518 0.32963 0.0
O441 O 0.44093 0.46007 0.34729 0.0
Co442 Co 0.65243 0.07024 0.27224 0.0
O443 O 0.61602 0.04423 0.28871 0.0
O444 O 0.65129 0.07329 0.32384 0.0
C445 C 0.63764 0.08683 0.22742 0.0
O446 O 0.69272 0.1003 0.26367 0.0
Co447 Co 0.66782 0.06121 0.19523 0.0
O448 O 0.7025 0.09666 0.20635 0.0
C449 C 0.67277 0.02904 0.2544 0.0
C450 C 0.62518 0.05407 0.32061 0.0
C451 C 0.70941 0.10836 0.23722 0.0
O452 O 0.66463 0.04138 0.27663 0.0
O453 O 0.67387 0.03287 0.22077 0.0
O454 O 0.63978 0.09658 0.25969 0.0
O455 O 0.64173 0.06575 0.22401 0.0
Co456 Co 0.04081 0.4114 0.7578 0.0
O457 O 0.02537 0.42885 0.72644 0.0
O458 O 0.06996 0.44535 0.73651 0.0
C459 C 1.01217 0.36586 0.73717 0.0
O460 O 0.06668 0.4004 0.7853 0.0
Co461 Co 1.00802 0.36655 0.81367 0.0
O462 O 0.041 0.36156 0.81622 0.0
C463 C 0.02334 0.42559 0.82868 0.0
C464 C 0.05074 0.44808 0.72005 0.0
C465 C 0.06436 0.38003 0.80456 0.0
O466 O 0.03855 0.4337 0.80067 0.0
O467 O 1.00865 0.39985 0.83701 0.0
O468 O 0.03418 0.38302 0.71985 0.0
O469 O 1.00756 0.37701 0.76475 0.0
Co470 Co 0.66145 0.67052 0.77647 0.0
O471 O 0.62716 0.66142 0.80005 0.0
O472 O 0.64982 0.63847 0.80797 0.0
C473 C 0.68205 0.71725 0.78878 0.0
O474 O 0.6987 0.67527 0.75813 0.0
Co475 Co 0.68149 0.71004 0.71219 0.0
O476 O 0.71787 0.71335 0.72393 0.0
C477 C 0.63725 0.65076 0.70068 0.0
C478 C 0.62899 0.64188 0.81666 0.0
C479 C 0.71959 0.69442 0.7411 0.0
O480 O 0.63941 0.6453 0.73365 0.0
O481 O 0.65126 0.67533 0.68795 0.0
O482 O 0.68257 0.70033 0.81217 0.0
O483 O 0.66772 0.7054 0.76 0.0
Co484 Co 0.39539 0.03932 0.76574 0.0
O485 O 0.42893 0.05507 0.73831 0.0
O486 O 0.39451 1.01124 0.73338 0.0
C487 C 0.38959 0.0771 0.75869 0.0
O488 O 0.35721 0.01424 0.78708 0.0
Co489 Co 0.38631 0.06608 0.83369 0.0
O490 O 0.34872 0.03307 0.83533 0.0
C491 C 0.425 0.04358 0.83399 0.0
C492 C 0.41861 0.03047 0.72284 0.0
C493 C 0.34153 0.013 0.81279 0.0
O494 O 0.41482 0.02994 0.80434 0.0
O495 O 0.41827 0.06079 0.84757 0.0
O496 O 0.38045 0.0573 0.73416 0.0
O497 O 0.4012 0.07316 0.78616 0.0
Co498 Co 0.69911 0.99226 0.6108 0.0
O499 O 0.71851 0.97525 0.63541 0.0
O500 O 0.68493 0.97943 0.65902 0.0
C501 C 0.69361 0.96883 0.55611 0.0
O502 O 0.67188 1.00666 0.5956 0.0
Co503 Co 0.71896 0.02833 0.54374 0.0
O504 O 0.68427 0.03032 0.54463 0.0
C505 C 0.7482 0.05302 0.61287 0.0
C506 C 0.70263 0.97061 0.66261 0.0
C507 C 0.66782 0.02046 0.57054 0.0
O508 O 0.72899 0.03181 0.62973 0.0
O509 O 0.74867 0.05372 0.57881 0.0
O510 O 0.67673 0.95657 0.58204 0.0
O511 O 0.71327 0.99379 0.56442 0.0
Co512 Co 0.08836 0.7914 0.60824 0.0
O513 O 0.12362 0.80398 0.58426 0.0
O514 O 0.08546 0.79824 0.55793 0.0
C515 C 0.10669 0.82053 0.657 0.0
O516 O 0.04858 0.78063 0.6238 0.0
Co517 Co 0.07607 0.76353 0.68212 0.0
O518 O 0.04678 0.77409 0.68291 0.0
C519 C 0.07046 0.72908 0.61788 0.0
C520 C 0.11166 0.80596 0.55535 0.0
C521 C 0.03655 0.77748 0.65409 0.0
O522 O 0.07657 0.75027 0.59778 0.0
O523 O 0.07024 0.73058 0.65193 0.0
O524 O 0.10209 0.82971 0.62742 0.0
O525 O 0.10235 0.79516 0.65522 0.0
Co526 Co 0.32211 0.40445 0.63273 0.0
O527 O 0.29168 0.37068 0.65049 0.0
O528 O 0.32159 0.4068 0.68426 0.0
C529 C 0.29809 0.41137 0.5892 0.0
O530 O 0.35513 0.44307 0.6223 0.0
Co531 Co 0.34114 0.40244 0.55588 0.0
O532 O 0.35922 0.44375 0.56264 0.0
C533 C 0.3576 0.37775 0.61347 0.0
C534 C 0.29952 0.38198 0.68207 0.0
C535 C 0.365 0.4562 0.59311 0.0
O536 O 0.34717 0.3876 0.63603 0.0
O537 O 0.35546 0.37939 0.57969 0.0
O538 O 0.29729 0.41905 0.62181 0.0
O539 O 0.31027 0.39667 0.58497 0.0
Co540 Co 0.69292 0.77103 0.0966 0.0
O541 O 0.6722 0.78479 0.06717 0.0
O542 O 0.71724 0.80265 0.0671 0.0
C543 C 0.66387 0.72368 0.08446 0.0
O544 O 0.72324 0.76296 0.11693 0.0
Co545 Co 0.67171 0.73202 0.16081 0.0
O546 O 0.70636 0.7298 0.15831 0.0
C547 C 0.68492 0.7908 0.17141 0.0
C548 C 0.69571 0.8028 0.05345 0.0
C549 C 0.72598 0.74618 0.1384 0.0
O550 O 0.69644 0.79689 0.14019 0.0
O551 O 0.67178 0.7656 0.1823 0.0
O552 O 0.68209 0.73961 0.06155 0.0
O553 O 0.66258 0.73697 0.1123 0.0
Co554 Co 0.33184 1.00335 0.15237 0.0
O555 O 0.3006 0.99574 0.18187 0.0
O556 O 0.3218 0.97087 0.18244 0.0
C557 C 0.35583 0.05068 0.16327 0.0
O558 O 0.36577 1.00536 0.12772 0.0
Co559 Co 0.34716 0.04206 0.08681 0.0
O560 O 0.37986 0.03672 0.08378 0.0
C561 C 0.29618 0.98695 0.08465 0.0
C562 C 0.30242 0.97501 0.19519 0.0
C563 C 0.38281 0.01937 0.10295 0.0
O564 O 0.30485 0.97911 0.11205 0.0
O565 O 0.3086 0.01203 0.07337 0.0
O566 O 0.35745 0.03372 0.1858 0.0
O567 O 0.33868 0.03851 0.1369 0.0
Co568 Co 0.07647 0.38227 0.11172 0.0
O569 O 0.11023 0.39622 0.08483 0.0
O570 O 0.08013 0.35144 0.09314 0.0
C571 C 0.06304 0.41119 0.08772 0.0
O572 O 0.03873 0.35819 0.13409 0.0
Co573 Co 0.06176 0.41674 0.16384 0.0
O574 O 0.02484 0.38262 0.16803 0.0
C575 C 0.10825 0.40658 0.17934 0.0
C576 C 0.10274 0.37002 0.07845 0.0
C577 C 0.02053 0.35972 0.15338 0.0
O578 O 0.09803 0.38545 0.15718 0.0
O579 O 0.09856 0.4233 0.18241 0.0
O580 O 0.05771 0.38812 0.07078 0.0
O581 O 0.07667 0.41625 0.11745 0.0
Co582 Co 0.37747 0.33106 0.9643 0.0
O583 O 0.3937 0.31169 0.99125 0.0
O584 O 0.36182 0.32035 1.01153 0.0
C585 C 0.37068 0.30711 0.91036 0.0
O586 O 0.35282 0.34745 0.94765 0.0
Co587 Co 0.39952 0.36652 0.89719 0.0
O588 O 0.36484 0.36877 0.89525 0.0
C589 C 0.42863 0.39039 0.96655 0.0
C590 C 0.37737 0.30928 0.01724 0.0
C591 C 0.34871 0.36025 0.92161 0.0
O592 O 0.40853 0.3698 0.98309 0.0
O593 O 0.4296 0.39113 0.9325 0.0
O594 O 0.35344 0.29578 0.93623 0.0
O595 O 0.39174 0.33134 0.91843 0.0
Co596 Co 0.74642 0.11958 0.94589 0.0
O597 O 0.78126 0.14219 0.9228 0.0
O598 O 0.74013 0.12449 0.89593 0.0
C599 C 0.75812 0.14841 0.99476 0.0
O600 O 0.70583 0.09663 0.96114 0.0
Co601 Co 0.74315 0.09234 0.01847 0.0
O602 O 0.70368 0.08284 0.01765 0.0
C603 C 0.75411 0.06885 0.95344 0.0
C604 C 0.76698 0.14 0.89409 0.0
C605 C 0.692 0.08484 0.98926 0.0
O606 O 0.7479 0.08421 0.93398 0.0
O607 O 0.75597 0.07103 0.98752 0.0
O608 O 0.7486 0.1538 0.96591 0.0
O609 O 0.76164 0.1269 0.99254 0.0
Co610 Co 0.98585 0.6985 0.93378 0.0
O611 O 0.95064 0.67187 0.9537 0.0
O612 O 0.98125 0.71155 0.98045 0.0
C613 C 0.96668 0.69733 0.87961 0.0
O614 O 0.02393 0.73183 0.92159 0.0
Co615 Co 1.01054 0.6839 0.86878 0.0
O616 O 0.04018 0.72349 0.87106 0.0
C617 C 1.01576 0.66501 0.94064 0.0
C618 C 0.95684 0.68913 0.98067 0.0
C619 C 0.04256 0.73936 0.89747 0.0
O620 O 1.00443 0.67823 0.95503 0.0
O621 O 0.01837 0.66355 0.90697 0.0
O622 O 0.96682 0.71357 0.9052 0.0
O623 O 0.97732 0.68183 0.88766 0.0
Co624 Co 0.37912 0.12521 0.45013 0.0
O625 O 0.35932 0.14028 0.42197 0.0
O626 O 0.40394 0.15537 0.41923 0.0
C627 C 0.34568 0.07945 0.43857 0.0
O628 O 0.40845 0.11488 0.46981 0.0
Co629 Co 0.35806 0.08703 0.51425 0.0
O630 O 0.39214 0.08385 0.51363 0.0
C631 C 0.3714 0.14603 0.52253 0.0
C632 C 0.38266 0.15666 0.40678 0.0
C633 C 0.41145 0.09891 0.49258 0.0
O634 O 0.38479 0.15203 0.49275 0.0
O635 O 0.35712 0.12082 0.53307 0.0
O636 O 0.36489 0.09326 0.41561 0.0
O637 O 0.34739 0.09339 0.46727 0.0
Co638 Co 0.99651 0.36764 0.45987 0.0
O639 O 0.96052 0.35638 0.47996 0.0
O640 O 0.98295 0.33285 0.48551 0.0
C641 C 1.01379 0.41296 0.47825 0.0
O642 O 0.03462 0.37228 0.44513 0.0
Co643 Co 0.02393 0.41228 0.40269 0.0
O644 O 0.05576 0.40563 0.40457 0.0
C645 C 0.97176 0.35926 0.38754 0.0
C646 C 0.96133 0.33509 0.49317 0.0
C647 C 0.05518 0.38676 0.42439 0.0
O648 O 0.97717 0.34756 0.4137 0.0
O649 O 0.9864 0.38548 0.38158 0.0
O650 O 1.01415 0.39476 0.49981 0.0
O651 O 1.00375 0.4034 0.4468 0.0
Co652 Co 0.74922 0.71491 0.41277 0.0
O653 O 0.77804 0.71629 0.38354 0.0
O654 O 0.73543 0.67992 0.38586 0.0
C655 C 0.75543 0.75737 0.39845 0.0
O656 O 0.71365 0.70631 0.43829 0.0
Co657 Co 0.76312 0.75779 0.47549 0.0
O658 O 0.72223 0.73999 0.47959 0.0
C659 C 0.77924 0.71426 0.47972 0.0
C660 C 0.75999 0.69119 0.37222 0.0
C661 C 0.70554 0.71772 0.462 0.0
O662 O 0.76252 0.7005 0.45352 0.0
O663 O 0.78473 0.73892 0.48966 0.0
O664 O 0.74087 0.73566 0.37756 0.0
O665 O 0.76767 0.75324 0.42525 0.0
C666 C 0.05878 0.47729 0.07767 0.0
C667 C 0.03471 0.46768 0.05637 0.0
H668 H 0.08633 0.46657 0.10465 0.0
C669 C 0.02087 0.43967 0.04351 0.0
H670 H 0.0698 0.49874 0.08787 0.0
C671 C 0.03058 0.42138 0.05248 0.0
C672 C 0.05391 0.43066 0.07511 0.0
H673 H 1.00237 0.43181 0.02666 0.0
H674 H 0.01931 0.39981 0.04273 0.0
C675 C 0.0681 0.45883 0.08732 0.0
C676 C 0.60499 0.64918 0.0993 0.0
C677 C 0.60469 0.63454 0.06813 0.0
H678 H 0.62378 0.68808 0.12902 0.0
C679 C 0.62561 0.64894 0.04321 0.0
H680 H 0.58876 0.639 0.11855 0.0
C681 C 0.64559 0.67762 0.0488 0.0
C682 C 0.64506 0.69253 0.07944 0.0
H683 H 0.6254 0.63859 0.01833 0.0
H684 H 0.66069 0.68837 0.02846 0.0
C685 C 0.62496 0.67754 0.10505 0.0
C686 C 0.45007 0.01829 0.11917 0.0
C687 C 0.46042 0.02156 0.08442 0.0
H688 H 0.41696 0.01424 0.15231 0.0
C689 C 0.44327 0.02045 0.05575 0.0
H690 H 0.46274 0.01909 0.14186 0.0
C691 C 0.41744 0.0183 0.06184 0.0
C692 C 0.40771 0.01648 0.09666 0.0
H693 H 0.4505 0.02303 0.02866 0.0
H694 H 0.40545 0.01907 0.03929 0.0
C695 C 0.42382 0.01544 0.12518 0.0
C696 C 0.46853 0.08423 0.52747 0.0
C697 C 0.48323 0.08572 0.49655 0.0
H698 H 0.4345 0.08681 0.55038 0.0
C699 C 0.47555 0.09411 0.46491 0.0
H700 H 0.47333 0.07738 0.55216 0.0
C701 C 0.45349 0.10003 0.46395 0.0
C702 C 0.43772 0.09692 0.49436 0.0
H703 H 0.48611 0.09523 0.44041 0.0
H704 H 0.44785 0.10558 0.43885 0.0
C705 C 0.44598 0.08941 0.52628 0.0
C706 C 0.0297 0.47707 0.53577 0.0
C707 C 0.02528 0.49362 0.51114 0.0
H708 H 0.02981 0.43855 0.54481 0.0
C709 C 1.01663 0.4833 0.47629 0.0
H710 H 0.03752 0.4852 0.56247 0.0
C711 C 1.01301 0.45715 0.46591 0.0
C712 C 1.01817 0.44078 0.49014 0.0
H713 H 1.01423 0.49616 0.4565 0.0
H714 H 1.00676 0.45006 0.43852 0.0
C715 C 0.02594 0.45073 0.52546 0.0
C716 C 0.63858 0.69275 0.51166 0.0
C717 C 0.61849 0.67826 0.48467 0.0
H718 H 0.68193 0.71705 0.52548 0.0
C719 C 0.62713 0.67715 0.44997 0.0
H720 H 0.63229 0.69363 0.53862 0.0
C721 C 0.65544 0.68979 0.44259 0.0
C722 C 0.67558 0.70434 0.4696 0.0
H723 H 0.61196 0.66569 0.42888 0.0
H724 H 0.66158 0.68828 0.41573 0.0
C725 C 0.66686 0.70605 0.5041 0.0
C726 C 0.04227 0.61622 0.96672 0.0
C727 C 0.02819 0.60588 0.99845 0.0
H728 H 0.04945 0.64358 0.92328 0.0
C729 C 1.0149 0.61913 1.01458 0.0
H730 H 0.05235 0.60605 0.95371 0.0
C731 C 1.013 0.64044 0.99726 0.0
C732 C 0.02408 0.64847 0.96328 0.0
H733 H 1.00382 0.61128 0.03912 0.0
H734 H 1.00078 0.64874 1.00907 0.0
C735 C 0.04017 0.63739 0.94916 0.0
C736 C 0.49381 0.46184 0.98443 0.0
C737 C 0.49363 0.46578 0.02141 0.0
H738 H 0.4741 0.43547 0.93861 0.0
C739 C 0.47269 0.44365 0.04085 0.0
H740 H 0.50937 0.47822 0.96843 0.0
C741 C 0.45198 0.41888 0.02363 0.0
C742 C 0.45159 0.41541 0.98641 0.0
H743 H 0.47168 0.44579 0.06943 0.0
H744 H 0.43591 0.4028 0.03941 0.0
C745 C 0.47326 0.43714 0.96729 0.0
C746 C 0.6181 0.06164 0.95726 0.0
C747 C 0.60308 0.05262 0.98893 0.0
H748 H 0.65764 0.07902 0.93247 0.0
C749 C 0.61735 0.05282 0.02028 0.0
H750 H 0.60789 0.06185 0.93255 0.0
C751 C 0.64603 0.06279 0.02021 0.0
C752 C 0.66126 0.07292 0.98882 0.0
H753 H 0.60658 0.04622 0.04519 0.0
H754 H 0.65638 0.0632 0.04508 0.0
C755 C 0.64678 0.07172 0.95722 0.0
C756 C 0.59631 0.01273 0.58903 0.0
C757 C 0.59562 0.03301 0.56686 0.0
H758 H 0.61912 0.99304 0.60817 0.0
C759 C 0.61965 0.0503 0.54787 0.0
H760 H 0.57816 0.99883 0.60394 0.0
C761 C 0.64304 0.04651 0.54976 0.0
C762 C 0.6434 0.02558 0.57109 0.0
H763 H 0.61988 0.06577 0.5301 0.0
H764 H 0.66077 0.05976 0.53382 0.0
C765 C 0.61984 1.00927 0.59142 0.0
C766 C 0.07485 0.67529 0.55795 0.0
C767 C 0.05999 0.65046 0.57715 0.0
H768 H 0.08928 0.7194 0.55513 0.0
C769 C 0.04597 0.65104 0.60763 0.0
H770 H 0.08582 0.6754 0.53423 0.0
C771 C 0.04845 0.67647 0.62001 0.0
C772 C 0.0645 0.70165 0.60173 0.0
H773 H 0.03457 0.63232 0.62304 0.0
H774 H 0.03849 0.67658 0.64458 0.0
C775 C 0.0768 0.70051 0.56983 0.0
C776 C 0.42588 0.52703 0.62106 0.0
C777 C 0.43146 0.54104 0.58851 0.0
H778 H 0.40013 0.48876 0.64829 0.0
C779 C 0.41249 0.52866 0.55988 0.0
H780 H 0.44036 0.5361 0.64345 0.0
C781 C 0.38973 0.50181 0.56253 0.0
C782 C 0.38544 0.4866 0.59389 0.0
H783 H 0.41624 0.5392 0.5347 0.0
H784 H 0.37628 0.49238 0.53924 0.0
C785 C 0.40296 0.49993 0.62375 0.0
C786 C 0.74074 0.81244 0.36151 0.0
C787 C 0.75625 0.83536 0.38506 0.0
H788 H 0.72841 0.76994 0.34719 0.0
C789 C 0.7725 0.83283 0.41218 0.0
H790 H 0.7284 0.81392 0.33995 0.0
C791 C 0.77249 0.80754 0.41636 0.0
C792 C 0.7564 0.78444 0.39329 0.0
H793 H 0.7845 0.85007 0.43082 0.0
H794 H 0.78479 0.80599 0.43793 0.0
C795 C 0.74084 0.78728 0.36555 0.0
C796 C 0.27204 0.01812 0.44382 0.0
C797 C 0.26979 1.00132 0.41405 0.0
H798 H 0.29765 0.05517 0.47522 0.0
C799 C 0.2933 1.0098 0.39279 0.0
H800 H 0.25449 0.01204 0.46094 0.0
C801 C 0.31821 0.03496 0.40068 0.0
C802 C 0.32031 0.0518 0.43047 0.0
H803 H 0.29217 0.99733 0.36958 0.0
H804 H 0.33571 0.04129 0.38339 0.0
C805 C 0.29696 0.04279 0.45211 0.0
C806 C 0.11542 0.3753 0.45193 0.0
C807 C 0.13001 0.3802 0.41988 0.0
H808 H 0.08007 0.37279 0.47852 0.0
C809 C 0.11813 0.38444 0.38893 0.0
H810 H 0.12401 0.37213 0.47635 0.0
C811 C 0.0934 0.38556 0.39043 0.0
C812 C 0.07938 0.3818 0.42271 0.0
H813 H 0.12878 0.38861 0.36386 0.0
H814 H 0.08559 0.39013 0.36631 0.0
C815 C 0.09022 0.3757 0.45323 0.0
C816 C 0.10665 0.34639 0.83382 0.0
C817 C 0.13413 0.36891 0.83712 0.0
H818 H 0.06409 0.33221 0.8211 0.0
C819 C 0.13897 0.39585 0.8283 0.0
H820 H 0.10166 0.32526 0.84023 0.0
C821 C 0.11672 0.39983 0.81661 0.0
C822 C 0.08919 0.37705 0.81412 0.0
H823 H 0.15979 0.4137 0.83036 0.0
H824 H 0.12095 0.42075 0.81033 0.0
C825 C 0.08476 0.35038 0.82278 0.0
C826 C 0.69865 0.79276 0.78425 0.0
C827 C 0.72075 0.80621 0.80912 0.0
H828 H 0.66955 0.75416 0.75772 0.0
C829 C 0.7309 0.79043 0.82628 0.0
H830 H 0.69055 0.80457 0.77073 0.0
C831 C 0.71847 0.76146 0.81958 0.0
C832 C 0.69617 0.74798 0.7949 0.0
H833 H 0.74776 0.80035 0.8458 0.0
H834 H 0.7262 0.74961 0.8338 0.0
C835 C 0.68674 0.76401 0.77682 0.0
C836 C 0.27532 0.94333 0.7945 0.0
C837 C 0.26391 0.93673 0.82864 0.0
H838 H 0.30891 0.97248 0.76265 0.0
C839 C 0.27874 0.95495 0.85748 0.0
H840 H 0.26433 0.92981 0.77171 0.0
C841 C 0.30375 0.97969 0.85212 0.0
C842 C 0.31492 0.98662 0.81791 0.0
H843 H 0.27049 0.95073 0.88407 0.0
H844 H 0.31435 0.99345 0.87488 0.0
C845 C 0.30075 0.96785 0.78927 0.0
C846 C 0.71617 0.99376 0.26342 0.0
C847 C 0.70914 0.98232 0.29735 0.0
H848 H 0.70959 0.01687 0.22283 0.0
C849 C 0.68943 0.9856 0.31681 0.0
H850 H 0.73104 0.99116 0.24779 0.0
C851 C 0.67719 1.0004 0.30274 0.0
C852 C 0.68406 0.0117 0.26861 0.0
H853 H 0.68376 0.97696 0.34312 0.0
H854 H 0.66239 1.003 0.31854 0.0
C855 C 0.70357 1.00809 0.24903 0.0
C856 C 0.10065 0.8052 0.27299 0.0
C857 C 0.11302 0.80966 0.30708 0.0
H858 H 0.07555 0.77546 0.23209 0.0
C859 C 0.1085 0.78616 0.32677 0.0
H860 H 0.10393 0.82284 0.2571 0.0
C861 C 0.09182 0.7588 0.31267 0.0
C862 C 0.07992 0.7544 0.27819 0.0
H863 H 0.11766 0.78898 0.35323 0.0
H864 H 0.0886 0.74114 0.32852 0.0
C865 C 0.08459 0.77799 0.2586 0.0
C866 C 0.29303 0.4027 0.37115 0.0
C867 C 0.28471 0.41651 0.34688 0.0
H868 H 0.32609 0.39622 0.39019 0.0
C869 C 0.30359 0.43298 0.3208 0.0
H870 H 0.27925 0.39032 0.39198 0.0
C871 C 0.33037 0.43644 0.31969 0.0
C872 C 0.33937 0.42388 0.34502 0.0
H873 H 0.29794 0.44409 0.30183 0.0
H874 H 0.34436 0.44984 0.29968 0.0
C875 C 0.32008 0.40645 0.37035 0.0
C876 C 0.28058 0.35609 0.94841 0.0
C877 C 0.27489 0.36928 0.92018 0.0
H878 H 0.30781 0.343 0.97119 0.0
C879 C 0.29486 0.38157 0.89372 0.0
H880 H 0.26554 0.34612 0.96909 0.0
C881 C 0.31915 0.37935 0.89459 0.0
C882 C 0.32415 0.36489 0.92204 0.0
H883 H 0.29091 0.39131 0.8712 0.0
H884 H 0.33357 0.38818 0.87304 0.0
C885 C 0.30481 0.35406 0.94945 0.0
C886 C 0.77541 0.01363 0.94059 0.0
C887 C 0.76174 1.00043 0.90833 0.0
H888 H 0.78365 0.04543 0.98006 0.0
C889 C 0.74709 1.01123 0.88959 0.0
H890 H 0.78666 1.0057 0.95579 0.0
C891 C 0.74556 0.03429 0.90333 0.0
C892 C 0.75822 0.04665 0.93643 0.0
H893 H 0.73656 1.0016 0.86449 0.0
H894 H 0.73361 0.04173 0.8887 0.0
C895 C 0.7735 0.0363 0.95459 0.0
C896 C 0.11635 0.7984 0.88322 0.0
C897 C 0.11841 0.81933 0.90697 0.0
H898 H 0.09076 0.75706 0.86119 0.0
C899 C 0.09563 0.81347 0.92851 0.0
H900 H 0.13337 0.80235 0.86599 0.0
C901 C 0.07111 0.7875 0.9258 0.0
C902 C 0.06864 0.76688 0.90113 0.0
H903 H 0.09655 0.82921 0.94706 0.0
H904 H 0.05392 0.78382 0.94253 0.0
C905 C 0.09172 0.77255 0.8802 0.0
C906 C 0.38736 0.13889 0.71747 0.0
C907 C 0.40455 0.16078 0.74168 0.0
H908 H 0.36911 0.095 0.70355 0.0
C909 C 0.41519 0.15451 0.772 0.0
H910 H 0.3789 0.14327 0.69383 0.0
C911 C 0.4091 0.12706 0.77795 0.0
C912 C 0.39264 0.10518 0.75334 0.0
H913 H 0.42807 0.17085 0.79131 0.0
H914 H 0.41798 0.12319 0.80161 0.0
C915 C 0.38168 0.11132 0.72306 0.0
C916 C 0.975 0.29759 0.68122 0.0
C917 C 0.95156 0.28062 0.70177 0.0
H918 H 1.01241 0.33738 0.67602 0.0
C919 C 0.94959 0.29141 0.73517 0.0
H920 H 0.97735 0.29023 0.65529 0.0
C921 C 0.96971 0.3186 0.74692 0.0
C922 C 0.99254 0.33594 0.72576 0.0
H923 H 0.9319 0.27927 0.75174 0.0
H924 H 0.96691 0.32633 0.77234 0.0
C925 C 0.99519 0.32478 0.69306 0.0
C926 C 0.77249 0.6691 0.73994 0.0
C927 C 0.79567 0.69189 0.72454 0.0
H928 H 0.73053 0.65192 0.75761 0.0
C929 C 0.79429 0.71622 0.71773 0.0
H930 H 0.77278 0.64999 0.74576 0.0
C931 C 0.76998 0.71724 0.72449 0.0
C932 C 0.7463 0.694 0.73839 0.0
H933 H 0.81162 0.73416 0.70598 0.0
H934 H 0.76956 0.73616 0.71789 0.0
C935 C 0.74818 0.67016 0.74688 0.0
C936 C 0.7833 0.7312 0.16986 0.0
C937 C 0.79773 0.73369 0.13834 0.0
H938 H 0.74932 0.73279 0.19449 0.0
C939 C 0.78988 0.7429 0.10768 0.0
H940 H 0.78838 0.72376 0.19383 0.0
C941 C 0.76778 0.74866 0.10821 0.0
C942 C 0.75227 0.74453 0.13915 0.0
H943 H 0.80033 0.74484 0.08284 0.0
H944 H 0.76188 0.75485 0.08381 0.0
C945 C 0.7607 0.73619 0.17012 0.0
C946 C 0.40674 0.12519 0.19688 0.0
C947 C 0.39901 0.14114 0.17538 0.0
H948 H 0.39893 0.08396 0.21042 0.0
C949 C 0.37793 0.12713 0.14933 0.0
H950 H 0.42275 0.13538 0.21742 0.0
C951 C 0.36456 0.09795 0.14512 0.0
C952 C 0.37159 0.08181 0.16723 0.0
H953 H 0.37166 0.13884 0.13225 0.0
H954 H 0.34823 0.08797 0.1249 0.0
C955 C 0.39299 0.09576 0.19304 0.0
C956 C 0.95376 0.29232 0.13017 0.0
C957 C 0.93859 0.28791 0.16138 0.0
H958 H 0.9919 0.31814 0.10356 0.0
C959 C 0.95133 0.30627 0.19088 0.0
H960 H 0.94437 0.27866 0.10696 0.0
C961 C 0.97813 0.3294 0.18854 0.0
C962 C 0.99307 0.33415 0.15705 0.0
H963 H 0.94001 0.30366 0.21514 0.0
H964 H 0.98702 0.34379 0.2112 0.0
C965 C 0.98091 0.31494 0.12823 0.0
C966 C 0.38888 0.33022 0.62029 0.0
C967 C 0.39961 0.33578 0.65542 0.0
H968 H 0.36748 0.33933 0.57926 0.0
C969 C 0.39765 0.35621 0.67608 0.0
H970 H 0.39008 0.31446 0.60396 0.0
C971 C 0.38421 0.37 0.66234 0.0
C972 C 0.3729 0.364 0.62741 0.0
H973 H 0.40539 0.36056 0.70341 0.0
H974 H 0.38243 0.38516 0.67923 0.0
C975 C 0.37593 0.34441 0.60626 0.0
C976 C 0.79979 0.10428 0.68467 0.0
C977 C 0.81612 0.12853 0.66467 0.0
H978 H 0.76549 0.06165 0.68477 0.0
C979 C 0.80958 0.12738 0.62823 0.0
H980 H 0.80392 0.10434 0.71295 0.0
C981 C 0.78766 0.10306 0.61225 0.0
C982 C 0.77108 0.07874 0.63199 0.0
H983 H 0.82133 0.14545 0.61186 0.0
H984 H 0.78364 0.10356 0.58404 0.0
C985 C 0.77751 0.07976 0.6686 0.0
C986 C 0.97391 0.77615 0.69491 0.0
C987 C 0.95254 0.75999 0.66988 0.0
H988 H 1.01702 0.79456 0.70922 0.0
C989 C 0.95992 0.75323 0.63685 0.0
H990 H 0.96924 0.78197 0.72051 0.0
C991 C 0.98772 0.7608 0.63018 0.0
C992 C 1.0086 0.77503 0.65654 0.0
H993 H 0.94406 0.74082 0.61687 0.0
H994 H 0.99249 0.75389 0.60544 0.0
C995 C 1.00143 0.7834 0.68842 0.0
C996 C 0.93425 0.70758 0.20421 0.0
C997 C 0.90936 0.68787 0.21957 0.0
H998 H 0.97717 0.72097 0.19607 0.0
C999 C 0.91002 0.66812 0.24268 0.0
H1000 H 0.93449 0.72287 0.18607 0.0
C1001 C 0.93459 0.66712 0.24877 0.0
C1002 C 0.95898 0.6855 0.23127 0.0
H1003 H 0.89115 0.65258 0.25497 0.0
H1004 H 0.93404 0.65091 0.26543 0.0
C1005 C 0.95866 0.70626 0.20975 0.0
C1006 C 0.4364 0.36217 0.22975 0.0
C1007 C 0.43158 0.33819 0.24866 0.0
H1008 H 0.43648 0.40145 0.2309 0.0
C1009 C 0.42238 0.33556 0.28374 0.0
H1010 H 0.4431 0.36466 0.20245 0.0
C1011 C 0.41838 0.3563 0.29974 0.0
C1012 C 0.42343 0.38046 0.28123 0.0
H1013 H 0.41861 0.31754 0.29914 0.0
H1014 H 0.41152 0.35339 0.32702 0.0
C1015 C 0.43224 0.38306 0.24584 0.0
C1016 C 0.78534 0.15803 0.21982 0.0
C1017 C 0.79276 0.17819 0.24735 0.0
H1018 H 0.75329 0.12047 0.19499 0.0
C1019 C 0.77318 0.17393 0.27357 0.0
H1020 H 0.79981 0.16063 0.19914 0.0
C1021 C 0.74626 0.15079 0.27116 0.0
C1022 C 0.73836 0.13165 0.24227 0.0
H1023 H 0.77829 0.1891 0.2952 0.0
H1024 H 0.73138 0.14853 0.29108 0.0
C1025 C 0.75846 0.13513 0.21723 0.0
C1026 C 1.00161 0.47498 0.86989 0.0
C1027 C 1.00815 0.47448 0.9062 0.0
H1028 H 1.0024 0.46074 0.81631 0.0
C1029 C 0.02262 0.46042 0.91559 0.0
H1030 H 0.99067 0.48578 0.86174 0.0
C1031 C 0.02924 0.4462 0.88975 0.0
C1032 C 0.02219 0.44614 0.85366 0.0
H1033 H 0.02773 0.45931 0.94324 0.0
H1034 H 0.03898 0.43427 0.89819 0.0
C1035 C 1.00873 0.46108 0.84382 0.0
C1036 C 0.59724 0.59803 0.89948 0.0
C1037 C 0.5734 0.60064 0.90422 0.0
H1038 H 0.63314 0.60835 0.868 0.0
C1039 C 0.56768 0.61589 0.87892 0.0
H1040 H 0.60226 0.58623 0.91807 0.0
C1041 C 0.58537 0.62853 0.85032 0.0
C1042 C 0.6093 0.62618 0.8457 0.0
H1043 H 0.5498 0.61867 0.88162 0.0
H1044 H 0.58038 0.64051 0.83194 0.0
C1045 C 0.61485 0.61049 0.87051 0.0
C1046 C 0.49534 0.06907 0.87266 0.0
C1047 C 0.4886 0.0567 0.90622 0.0
H1048 H 0.47978 0.0732 0.82185 0.0
C1049 C 0.4613 0.03496 0.91177 0.0
H1050 H 0.51626 0.0855 0.86742 0.0
C1051 C 0.44064 0.02768 0.88555 0.0
C1052 C 0.44701 0.04172 0.85325 0.0
H1053 H 0.4553 0.02508 0.93733 0.0
H1054 H 0.41927 0.01293 0.89175 0.0
C1055 C 0.47465 0.06159 0.84632 0.0
C1056 C 0.43346 0.99454 0.64592 0.0
C1057 C 0.46063 0.01487 0.63712 0.0
H1058 H 0.39891 0.98349 0.67983 0.0
C1059 C 0.47414 0.03985 0.65793 0.0
H1060 H 0.42228 0.97516 0.6305 0.0
C1061 C 0.46061 0.04477 0.6859 0.0
C1062 C 0.4333 0.02473 0.69411 0.0
H1063 H 0.49524 0.05579 0.65268 0.0
H1064 H 0.47155 0.06438 0.701 0.0
C1065 C 0.41999 0.99939 0.67414 0.0
C1066 C 0.04351 0.49516 0.65101 0.0
C1067 C 0.07128 0.5167 0.64671 0.0
H1068 H 1.01528 0.45707 0.67706 0.0
C1069 C 0.09202 0.51529 0.66732 0.0
H1070 H 0.02673 0.49488 0.6357 0.0
C1071 C 0.08532 0.49323 0.69096 0.0
C1072 C 0.05763 0.47178 0.6951 0.0
H1073 H 0.11358 0.5313 0.66546 0.0
H1074 H 0.10199 0.49304 0.7061 0.0
C1075 C 0.03683 0.47318 0.67482 0.0
C1076 C 0.60237 0.61344 0.61353 0.0
C1077 C 0.57558 0.59358 0.62415 0.0
H1078 H 0.64269 0.64674 0.62937 0.0
C1079 C 0.57061 0.58981 0.66101 0.0
H1080 H 0.60718 0.61687 0.58556 0.0
C1081 C 0.59127 0.60696 0.68641 0.0
C1082 C 0.61722 0.62841 0.67544 0.0
H1083 H 0.55026 0.57467 0.67026 0.0
H1084 H 0.58631 0.60466 0.71441 0.0
C1085 C 0.62278 0.63068 0.63877 0.0
C1086 C 1.0129 0.59937 0.13811 0.0
C1087 C 0.99161 0.57121 0.14075 0.0
H1088 H 0.03488 0.64046 0.16271 0.0
C1089 C 0.97518 0.56364 0.17124 0.0
H1090 H 0.02564 0.60623 0.11478 0.0
C1091 C 0.98047 0.58341 0.19877 0.0
C1092 C 1.00221 0.61135 0.19647 0.0
H1093 H 0.9587 0.54222 0.1743 0.0
H1094 H 0.96779 0.57663 0.2222 0.0
C1095 C 1.01808 0.61915 0.16552 0.0
C1096 C 0.49563 0.52484 0.17728 0.0
C1097 C 0.47771 0.5253 0.15049 0.0
H1098 H 0.49953 0.51085 0.22931 0.0
C1099 C 0.44899 0.51109 0.15711 0.0
H1100 H 0.51784 0.53555 0.17364 0.0
C1101 C 0.43859 0.49704 0.18903 0.0
C1102 C 0.45641 0.49651 0.21567 0.0
H1103 H 0.43418 0.51027 0.13745 0.0
H1104 H 0.41636 0.48643 0.1927 0.0
C1105 C 0.48513 0.51065 0.20938 0.0
C1106 C 0.62192 0.09776 0.13326 0.0
C1107 C 0.60261 0.10695 0.13836 0.0
H1108 H 0.64792 0.08387 0.15759 0.0
C1109 C 0.59845 0.1138 0.1731 0.0
H1110 H 0.62621 0.09309 0.10675 0.0
C1111 C 0.61146 0.10907 0.20229 0.0
C1112 C 0.62846 0.09712 0.19708 0.0
H1113 H 0.58373 0.12091 0.17795 0.0
H1114 H 0.60668 0.11293 0.22895 0.0
C1115 C 0.63442 0.09252 0.16232 0.0
C1116 C 0.55855 0.01873 0.37233 0.0
C1117 C 0.56754 0.0304 0.40679 0.0
H1118 H 0.56959 0.01688 0.31845 0.0
C1119 C 0.59621 0.04875 0.41314 0.0
H1120 H 0.53675 1.00471 0.36623 0.0
C1121 C 0.61515 0.05598 0.3855 0.0
C1122 C 0.60592 0.0449 0.35091 0.0
H1123 H 0.60413 0.05773 0.43944 0.0
H1124 H 0.63693 0.07058 0.39114 0.0
C1125 C 0.57747 0.02585 0.34481 0.0
C1126 C 0.07511 0.62727 0.38672 0.0
C1127 C 0.06132 0.62248 0.41927 0.0
H1128 H 0.07791 0.63995 0.33256 0.0
C1129 C 0.03903 0.62799 0.42116 0.0
H1130 H 0.0921 0.6231 0.38375 0.0
C1131 C 0.03075 0.63773 0.3914 0.0
C1132 C 0.04445 0.64218 0.35883 0.0
H1133 H 0.02801 0.62497 0.44571 0.0
H1134 H 1.01347 0.64155 0.39384 0.0
C1135 C 0.06681 0.63689 0.3571 0.0
C1136 C 0.48364 0.5417 0.42577 0.0
C1137 C 0.48615 0.5263 0.45396 0.0
H1138 H 0.46785 0.54062 0.3727 0.0
C1139 C 0.47362 0.49704 0.44953 0.0
H1140 H 0.49278 0.56426 0.42833 0.0
C1141 C 0.45952 0.48361 0.41764 0.0
C1142 C 0.4571 0.49895 0.38941 0.0
H1143 H 0.47494 0.48446 0.47061 0.0
H1144 H 0.45058 0.46107 0.41508 0.0
C1145 C 0.46911 0.52816 0.39397 0.0
C1146 C 0.71412 0.85981 0.22626 0.0
C1147 C 0.69718 0.85164 0.2567 0.0
H1148 H 0.72365 0.84787 0.17562 0.0
C1149 C 0.67455 0.82419 0.25657 0.0
H1150 H 0.73175 0.88082 0.22497 0.0
C1151 C 0.66999 0.80523 0.228 0.0
C1152 C 0.68774 0.81299 0.19831 0.0
H1153 H 0.66105 0.81693 0.27921 0.0
H1154 H 0.65283 0.784 0.22981 0.0
C1155 C 0.70945 0.84092 0.19756 0.0
C1156 C 0.27142 0.92772 0.27613 0.0
C1157 C 0.24654 0.92842 0.28007 0.0
H1158 H 0.30877 0.9417 0.24588 0.0
C1159 C 0.23993 0.94288 0.25442 0.0
H1160 H 0.27728 0.9169 0.29525 0.0
C1161 C 0.25785 0.95721 0.22696 0.0
C1162 C 0.28305 0.95741 0.22342 0.0
H1163 H 0.22091 0.94381 0.25583 0.0
H1164 H 0.25196 0.96848 0.20855 0.0
C1165 C 0.28945 0.94197 0.24787 0.0
C1166 C 0.15213 0.39903 0.25115 0.0
C1167 C 0.17144 0.42747 0.25948 0.0
H1168 H 0.1171 0.36991 0.21852 0.0
C1169 C 0.17198 0.44813 0.23737 0.0
H1170 H 0.15087 0.38234 0.26733 0.0
C1171 C 0.15239 0.44085 0.20973 0.0
C1172 C 0.13206 0.41271 0.20306 0.0
H1173 H 0.1869 0.47009 0.24208 0.0
H1174 H 0.15246 0.45744 0.19434 0.0
C1175 C 0.13271 0.39172 0.22303 0.0
C1176 C 0.15551 0.37376 1.01241 0.0
C1177 C 0.14317 0.34576 0.99961 0.0
H1178 H 0.15255 0.40339 0.04724 0.0
C1179 C 0.11852 0.32555 1.01523 0.0
H1180 H 0.17483 0.38988 1.00185 0.0
C1181 C 0.10602 0.33332 0.0418 0.0
C1182 C 0.11774 0.3615 0.0533 0.0
H1183 H 0.10827 0.30386 1.00616 0.0
H1184 H 0.08662 0.31732 0.05247 0.0
C1185 C 0.14286 0.38155 0.03875 0.0
C1186 C 0.72943 0.85927 0.98331 0.0
C1187 C 0.70762 0.85419 0.95902 0.0
H1188 H 0.74287 0.8479 0.03082 0.0
C1189 C 0.68064 0.83298 0.96787 0.0
H1190 H 0.75054 0.87543 0.97827 0.0
C1191 C 0.67617 0.81686 0.99914 0.0
C1192 C 0.69853 0.82144 0.02234 0.0
H1193 H 0.66323 0.82811 0.95007 0.0
H1194 H 0.65538 0.80015 1.00441 0.0
C1195 C 0.72505 0.84333 1.01395 0.0
C1196 C 0.25322 0.93725 1.0099 0.0
C1197 C 0.23132 0.94329 1.00655 0.0
H1198 H 0.29069 0.94576 0.03827 0.0
C1199 C 0.2287 0.95973 0.03372 0.0
H1200 H 0.25626 0.92484 0.98977 0.0
C1201 C 0.24854 0.97162 0.06155 0.0
C1202 C 0.27124 0.96698 0.06348 0.0
H1203 H 0.21198 0.96446 0.03284 0.0
H1204 H 0.24705 0.98588 0.08045 0.0
C1205 C 0.27295 0.949 0.03802 0.0
C1206 C 0.7123 0.96135 0.46062 0.0
C1207 C 0.69817 0.93218 0.45335 0.0
H1208 H 0.72171 0.99522 0.49726 0.0
C1209 C 0.67987 0.91473 0.47947 0.0
H1210 H 0.72642 0.97571 0.4414 0.0
C1211 C 0.67713 0.92628 0.51244 0.0
C1212 C 0.69259 0.95552 0.52003 0.0
H1213 H 0.66879 0.89219 0.47523 0.0
H1214 H 0.66382 0.91224 0.53248 0.0
C1215 C 0.7096 0.9727 0.49303 0.0
C1216 C 0.17136 0.84469 0.49018 0.0
C1217 C 0.15725 0.84799 0.46085 0.0
H1218 H 0.16812 0.82892 0.54326 0.0
C1219 C 0.12805 0.835 0.46188 0.0
H1220 H 0.1938 0.8546 0.49052 0.0
C1221 C 0.11342 0.82047 0.49177 0.0
C1222 C 0.12741 0.81841 0.522 0.0
H1223 H 0.11637 0.8369 0.43975 0.0
H1224 H 0.09108 0.81167 0.49158 0.0
C1225 C 0.15658 0.8301 0.52049 0.0
C1226 C 0.2824 0.42445 0.49545 0.0
C1227 C 0.26622 0.43729 0.50147 0.0
H1228 H 0.30477 0.40585 0.51832 0.0
C1229 C 0.26194 0.44293 0.5367 0.0
H1230 H 0.28661 0.42036 0.46862 0.0
C1231 C 0.27263 0.43481 0.56525 0.0
C1232 C 0.2877 0.42083 0.55907 0.0
H1233 H 0.24946 0.45259 0.54225 0.0
H1234 H 0.26852 0.43889 0.59215 0.0
C1235 C 0.29285 0.41614 0.52391 0.0
C1236 C 0.23898 0.33149 0.73721 0.0
C1237 C 0.24604 0.34522 0.77066 0.0
H1238 H 0.25048 0.33237 0.68286 0.0
C1239 C 0.27235 0.36935 0.77571 0.0
H1240 H 0.21892 0.31292 0.73254 0.0
C1241 C 0.29035 0.38068 0.74732 0.0
C1242 C 0.28252 0.36801 0.7133 0.0
H1243 H 0.27871 0.38001 0.80146 0.0
H1244 H 0.30994 0.39988 0.75179 0.0
C1245 C 0.25705 0.34278 0.70877 0.0
C1246 C 0.6894 0.93618 0.75552 0.0
C1247 C 0.71052 0.92902 0.75828 0.0
H1248 H 0.6704 0.95505 0.72384 0.0
C1249 C 0.72806 0.93504 0.72879 0.0
H1250 H 0.6756 0.93227 0.7775 0.0
C1251 C 0.72517 0.94805 0.69826 0.0
C1252 C 0.70467 0.95593 0.69561 0.0
H1253 H 0.74459 0.92995 0.72934 0.0
H1254 H 0.73944 0.95228 0.67674 0.0
C1255 C 0.68659 0.94951 0.7247 0.0
C1256 C 0.1227 0.83964 0.75534 0.0
C1257 C 0.13442 0.86904 0.75599 0.0
H1258 H 0.1052 0.8016 0.72403 0.0
C1259 C 0.13536 0.88217 0.72361 0.0
H1260 H 0.12079 0.82845 0.77956 0.0
C1261 C 0.12573 0.86643 0.69151 0.0
C1262 C 0.11522 0.83727 0.69096 0.0
H1263 H 0.14423 0.90468 0.72273 0.0
H1264 H 0.12726 0.87723 0.66699 0.0
C1265 C 0.11352 0.82407 0.72334 0.0
C1266 C 0.35531 0.17936 0.60219 0.0
C1267 C 0.37895 0.20607 0.60506 0.0
H1268 H 0.33432 0.1399 0.57384 0.0
C1269 C 0.39863 0.21418 0.57767 0.0
H1270 H 0.33977 0.17227 0.62257 0.0
C1271 C 0.39559 0.19558 0.54945 0.0
C1272 C 0.37287 0.16819 0.54792 0.0
H1273 H 0.41712 0.23469 0.57874 0.0
H1274 H 0.41178 0.20218 0.52999 0.0
C1275 C 0.35237 0.16073 0.57416 0.0
C1276 C 0.92359 0.27874 0.56167 0.0
C1277 C 0.90091 0.28251 0.56995 0.0
H1278 H 0.9603 0.29219 0.53104 0.0
C1279 C 0.89734 0.30233 0.55064 0.0
H1280 H 0.92736 0.26399 0.57606 0.0
C1281 C 0.91643 0.31868 0.52496 0.0
C1282 C 0.93963 0.31565 0.51772 0.0
H1283 H 0.87999 0.30559 0.55579 0.0
H1284 H 0.91331 0.33419 0.51133 0.0
C1285 C 0.94266 0.29508 0.53589 0.0
C1286 C 0.83223 0.70821 0.53641 0.0
C1287 C 0.81634 0.68162 0.55123 0.0
H1288 H 0.83274 0.73929 0.50229 0.0
C1289 C 0.78903 0.66407 0.538 0.0
H1290 H 0.85357 0.72194 0.54501 0.0
C1291 C 0.77729 0.67386 0.51256 0.0
C1292 C 0.79259 0.70141 0.50045 0.0
H1293 H 0.77618 0.64348 0.54873 0.0
H1294 H 0.75576 0.66062 0.50421 0.0
C1295 C 0.82038 0.71811 0.51172 0.0
C1296 C 0.8024 0.67629 0.30719 0.0
C1297 C 0.78245 0.65987 0.2807 0.0
H1298 H 0.81088 0.6991 0.35675 0.0
C1299 C 0.75425 0.6504 0.28727 0.0
H1300 H 0.82418 0.68326 0.30361 0.0
C1301 C 0.74655 0.65901 0.31841 0.0
C1302 C 0.76693 0.67745 0.34318 0.0
H1303 H 0.73832 0.63776 0.26753 0.0
H1304 H 0.72489 0.6527 0.32195 0.0
C1305 C 0.79478 0.68525 0.33781 0.0
C1306 C 0.36585 0.18388 0.32057 0.0
C1307 C 0.3925 0.20499 0.31069 0.0
H1308 H 0.34156 0.15227 0.35876 0.0
C1309 C 0.41495 0.21096 0.33433 0.0
H1310 H 0.34801 0.17847 0.30331 0.0
C1311 C 0.41135 0.1959 0.36554 0.0
C1312 C 0.38507 0.17435 0.37511 0.0
H1313 H 0.43588 0.22705 0.32837 0.0
H1314 H 0.4295 0.20095 0.38202 0.0
C1315 C 0.36217 0.16886 0.35249 0.0
C1316 C 0.91445 0.34289 0.31971 0.0
C1317 C 0.90329 0.31407 0.31326 0.0
H1318 H 0.9447 0.37954 0.34801 0.0
C1319 C 0.91352 0.29951 0.33342 0.0
H1320 H 0.9072 0.35472 0.30455 0.0
C1321 C 0.93523 0.31377 0.35857 0.0
C1322 C 0.94729 0.34289 0.36357 0.0
H1323 H 0.90501 0.27715 0.3293 0.0
H1324 H 0.94312 0.30222 0.37315 0.0
C1325 C 0.93622 0.35713 0.34439 0.0
C1326 C 0.35194 0.25214 0.83432 0.0
C1327 C 0.36966 0.26871 0.80728 0.0
H1328 H 0.33792 0.25107 0.88806 0.0
C1329 C 0.38521 0.29789 0.81355 0.0
H1330 H 0.34032 0.22953 0.83089 0.0
C1331 C 0.38426 0.3101 0.84621 0.0
C1332 C 0.36773 0.29363 0.87408 0.0
H1333 H 0.39951 0.31124 0.79372 0.0
H1334 H 0.3975 0.33254 0.85008 0.0
C1335 C 0.35081 0.2645 0.86727 0.0
C1336 C 0.82085 0.19647 0.83679 0.0
C1337 C 0.80779 0.18994 0.80293 0.0
H1338 H 0.81847 0.1856 0.89157 0.0
C1339 C 0.7812 0.1662 0.7988 0.0
H1340 H 0.84151 0.21434 0.84068 0.0
C1341 C 0.76766 0.14977 0.82829 0.0
C1342 C 0.78088 0.1564 0.86216 0.0
H1343 H 0.77077 0.16068 0.77292 0.0
H1344 H 0.747 0.13187 0.82457 0.0
C1345 C 0.80771 0.1798 0.8659 0.0
C1346 C 0.93476 0.66885 0.78806 0.0
C1347 C 0.91604 0.67898 0.78423 0.0
H1348 H 0.96571 0.66706 0.82088 0.0
C1349 C 0.91523 0.69637 0.81158 0.0
H1350 H 0.93647 0.65587 0.76746 0.0
C1351 C 0.93249 0.70327 0.84193 0.0
C1352 C 0.95076 0.6927 0.84588 0.0
H1353 H 0.90094 0.70436 0.80995 0.0
H1354 H 0.93093 0.71626 0.86273 0.0
C1355 C 0.95183 0.67555 0.81856 0.0
C1356 C 0.88883 0.6562 0.03017 0.0
C1357 C 0.89315 0.67731 0.05536 0.0
H1358 H 0.90541 0.64319 0.98748 0.0
C1359 C 0.91951 0.70177 0.05717 0.0
H1360 H 0.86916 0.63685 0.02822 0.0
C1361 C 0.94057 0.70529 0.03387 0.0
C1362 C 0.93585 0.68447 1.0081 0.0
H1363 H 0.92376 0.71865 0.07591 0.0
H1364 H 0.96029 0.72467 0.03542 0.0
C1365 C 0.90982 0.65975 1.0069 0.0
C1366 C 0.38627 0.2644 0.08922 0.0
C1367 C 0.3729 0.26842 0.11864 0.0
H1368 H 0.39879 0.27436 0.03463 0.0
C1369 C 0.36072 0.28539 0.11371 0.0
H1370 H 0.39634 0.25193 0.09198 0.0
C1371 C 0.36199 0.29807 0.08094 0.0
C1372 C 0.37598 0.29482 0.05178 0.0
H1373 H 0.35045 0.28929 0.13556 0.0
H1374 H 0.35238 0.31101 0.07875 0.0
C1375 C 0.38797 0.27758 0.05637 0.0
C1376 C 0.78748 0.17811 0.08683 0.0
C1377 C 0.79567 0.20672 0.08357 0.0
H1378 H 0.76923 0.13743 0.06153 0.0
C1379 C 0.78879 0.21526 0.0516 0.0
H1380 H 0.79148 0.17028 0.11114 0.0
C1381 C 0.77527 0.19602 0.02328 0.0
C1382 C 0.7686 0.16788 0.02611 0.0
H1383 H 0.79463 0.23696 0.04783 0.0
H1384 H 0.77116 0.20347 0.99863 0.0
C1385 C 0.77438 0.15906 0.0584 0.0
loop_
_geom_bond_atom_site_label_1
_geom_bond_atom_site_label_2
_geom_bond_distance
_geom_bond_site_symmetry_2
_ccdc_geom_bond_type
Cu0 N1 1.999 . S
Cu0 O6 1.974 1_554 S
Cu0 N11 1.985 1_554 S
Cu0 O20 1.959 . S
N1 Cu0 1.999 . S
N1 C3 1.263 . S
N1 C5 1.389 . S
N2 C3 1.358 . S
N2 C4 1.400 . S
C3 N1 1.263 . S
C3 N2 1.358 . S
C3 H9 0.930 . S
C4 N2 1.400 . S
C4 C5 1.351 . S
C4 H21 0.930 . S
C5 N1 1.389 . S
C5 C4 1.351 . S
C5 H10 0.930 . S
O6 Cu0 1.974 1_556 S
O6 C16 1.282 . S
C7 O8 1.261 . S
C7 O20 1.251 . S
O8 C7 1.261 . S
H9 C3 0.930 . S
H10 C5 0.930 . S
N11 Cu0 1.985 1_556 S
N11 C13 1.335 . S
N11 C14 1.390 . S
N12 C13 1.345 . S
N12 C15 1.336 . S
C13 N11 1.335 . S
C13 N12 1.345 . S
C13 H18 0.930 . S
C14 N11 1.390 . S
C14 C15 1.346 . S
C14 H19 0.930 . S
C15 N12 1.336 . S
C15 C14 1.346 . S
C15 H22 0.929 . S
C16 O6 1.282 . S
C16 O17 1.226 . S
O17 C16 1.226 . S
H18 C13 0.930 . S
H19 C14 0.930 . S
O20 Cu0 1.959 . S
O20 C7 1.251 . S
H21 C4 0.930 . S
H22 C15 0.929 . S
Cu23 N24 1.999 1_554 S
Cu23 O29 1.974 . S
Cu23 N34 1.985 . S
Cu23 O43 1.959 1_554 S
N24 Cu23 1.999 1_556 S
N24 C26 1.263 . S
N24 C28 1.389 . S
N25 C26 1.358 . S
N25 C27 1.400 . S
C26 N24 1.263 . S
C26 N25 1.358 . S
C26 H32 0.930 . S
C27 N25 1.400 . S
C27 C28 1.351 . S
C27 H44 0.930 . S
C28 N24 1.389 . S
C28 C27 1.351 . S
C28 H33 0.930 . S
O29 Cu23 1.974 . S
O29 C39 1.282 . S
C30 O31 1.261 . S
C30 O43 1.251 . S
O31 C30 1.261 . S
H32 C26 0.930 . S
H33 C28 0.930 . S
N34 Cu23 1.985 . S
N34 C36 1.335 . S
N34 C37 1.390 . S
N35 C36 1.345 . S
N35 C38 1.336 . S
C36 N34 1.335 . S
C36 N35 1.345 . S
C36 H41 0.930 . S
C37 N34 1.390 . S
C37 C38 1.346 . S
C37 H42 0.930 . S
C38 N35 1.336 . S
C38 C37 1.346 . S
C38 H45 0.929 . S
C39 O29 1.282 . S
C39 O40 1.216 . S
O40 C39 1.216 . S
H41 C36 0.930 . S
H42 C37 0.930 . S
O43 Cu23 1.959 1_556 S
O43 C30 1.251 . S
H44 C27 0.930 . S
H45 C38 0.929 . S
Cu46 N47 1.999 1_544 S
Cu46 O52 1.974 1_545 S
Cu46 N57 1.985 . S
Cu46 O66 1.959 . S
N47 Cu46 1.999 1_566 S
N47 C49 1.263 1_565 S
N47 C51 1.389 . S
N48 C49 1.358 1_565 S
N48 C50 1.400 . S
C49 N47 1.263 1_545 S
C49 N48 1.358 1_545 S
C49 H55 0.930 . S
C50 N48 1.400 . S
C50 C51 1.351 . S
C50 H67 0.930 . S
C51 N47 1.389 . S
C51 C50 1.351 . S
C51 H56 0.930 . S
O52 Cu46 1.974 1_565 S
O52 C62 1.282 1_565 S
C53 O54 1.259 1_556 S
C53 O66 1.251 1_556 S
O54 C53 1.259 1_554 S
H55 C49 0.930 . S
H56 C51 0.930 . S
N57 Cu46 1.985 . S
N57 C59 1.335 . S
N57 C60 1.390 . S
N58 C59 1.345 . S
N58 C61 1.336 . S
C59 N57 1.335 . S
C59 N58 1.345 . S
C59 H64 0.930 . S
C60 N57 1.390 . S
C60 C61 1.346 . S
C60 H65 0.930 . S
C61 N58 1.336 . S
C61 C60 1.346 . S
C61 H68 0.929 . S
C62 O52 1.282 1_545 S
C62 O63 1.216 . S
O63 C62 1.216 . S
H64 C59 0.930 . S
H65 C60 0.930 . S
O66 Cu46 1.959 . S
O66 C53 1.251 1_554 S
H67 C50 0.930 . S
H68 C61 0.929 . S
Cu69 N70 1.999 . S
Cu69 O75 1.974 . S
Cu69 N80 1.985 . S
Cu69 O89 1.959 . S
N70 Cu69 1.999 . S
N70 C72 1.263 . S
N70 C74 1.389 . S
N71 C72 1.358 . S
N71 C73 1.400 . S
C72 N70 1.263 . S
C72 N71 1.358 . S
C72 H78 0.930 . S
C73 N71 1.400 . S
C73 C74 1.351 . S
C73 H90 0.930 . S
C74 N70 1.389 . S
C74 C73 1.351 . S
C74 H79 0.930 . S
O75 Cu69 1.974 . S
O75 C85 1.282 1_545 S
C76 O77 1.261 . S
C76 O89 1.251 . S
O77 C76 1.261 . S
H78 C72 0.930 . S
H79 C74 0.930 . S
N80 Cu69 1.985 . S
N80 C82 1.335 . S
N80 C83 1.390 . S
N81 C82 1.345 . S
N81 C84 1.350 . S
C82 N80 1.335 . S
C82 N81 1.345 . S
C82 H87 0.930 . S
C83 N80 1.390 . S
C83 C84 1.343 . S
C83 H88 0.930 1_545 S
C84 N81 1.350 . S
C84 C83 1.343 . S
C84 H91 0.921 1_545 S
C85 O75 1.282 1_565 S
C85 O86 1.216 . S
O86 C85 1.216 . S
H87 C82 0.930 . S
H88 C83 0.930 1_565 S
O89 Cu69 1.959 . S
O89 C76 1.251 . S
H90 C73 0.930 . S
H91 C84 0.921 1_565 S
Cu92 N93 1.999 . S
Cu92 O98 1.974 . S
Cu92 N103 1.985 . S
Cu92 O112 1.959 . S
N93 Cu92 1.999 . S
N93 C95 1.263 . S
N93 C97 1.389 . S
N94 C95 1.358 . S
N94 C96 1.400 . S
C95 N93 1.263 . S
C95 N94 1.358 . S
C95 H101 0.930 . S
C96 N94 1.400 . S
C96 C97 1.351 . S
C96 H113 0.930 . S
C97 N93 1.389 . S
C97 C96 1.351 . S
C97 H102 0.930 . S
O98 Cu92 1.974 . S
O98 C108 1.282 . S
C99 O100 1.261 . S
C99 O112 1.251 . S
O100 C99 1.261 . S
H101 C95 0.930 . S
H102 C97 0.930 . S
N103 Cu92 1.985 . S
N103 C105 1.335 . S
N103 C106 1.390 . S
N104 C105 1.345 . S
N104 C107 1.336 . S
C105 N103 1.335 . S
C105 N104 1.345 . S
C105 H110 0.930 . S
C106 N103 1.390 . S
C106 C107 1.346 . S
C106 H111 0.930 . S
C107 N104 1.336 . S
C107 C106 1.346 . S
C107 H114 0.929 . S
C108 O98 1.282 . S
C108 O109 1.216 . S
O109 C108 1.216 . S
H110 C105 0.930 . S
H111 C106 0.930 . S
O112 Cu92 1.959 . S
O112 C99 1.251 . S
H113 C96 0.930 . S
H114 C107 0.929 . S
Cu115 N116 1.999 . S
Cu115 O121 1.974 . S
Cu115 N126 1.985 . S
Cu115 O135 1.959 . S
N116 Cu115 1.999 . S
N116 C118 1.263 . S
N116 C120 1.389 . S
N117 C118 1.358 . S
N117 C119 1.400 . S
C118 N116 1.263 . S
C118 N117 1.358 . S
C118 H124 0.930 . S
C119 N117 1.400 . S
C119 C120 1.351 . S
C119 H136 0.930 . S
C120 N116 1.389 . S
C120 C119 1.351 . S
C120 H125 0.930 . S
O121 Cu115 1.974 . S
O121 C131 1.282 . S
C122 O123 1.261 . S
C122 O135 1.251 . S
O123 C122 1.261 . S
H124 C118 0.930 . S
H125 C120 0.930 . S
N126 Cu115 1.985 . S
N126 C128 1.335 . S
N126 C129 1.390 . S
N127 C128 1.345 . S
N127 C130 1.336 . S
C128 N126 1.335 . S
C128 N127 1.345 . S
C128 H133 0.930 . S
C129 N126 1.390 . S
C129 C130 1.346 . S
C129 H134 0.930 . S
C130 N127 1.336 . S
C130 C129 1.346 . S
C130 H137 0.929 . S
C131 O121 1.282 . S
C131 O132 1.216 . S
O132 C131 1.216 . S
H133 C128 0.930 . S
H134 C129 0.930 . S
O135 Cu115 1.959 . S
O135 C122 1.251 . S
H136 C119 0.930 . S
H137 C130 0.929 . S
Cu138 N139 1.999 . S
Cu138 O144 1.974 . S
Cu138 N149 1.985 . S
Cu138 O158 1.959 . S
N139 Cu138 1.999 . S
N139 C141 1.263 . S
N139 C143 1.389 . S
N140 C141 1.358 . S
N140 C142 1.400 . S
C141 N139 1.263 . S
C141 N140 1.358 . S
C141 H147 0.930 . S
C142 N140 1.400 . S
C142 C143 1.351 . S
C142 H159 0.930 . S
C143 N139 1.389 . S
C143 C142 1.351 . S
C143 H148 0.930 . S
O144 Cu138 1.974 . S
O144 C154 1.282 . S
C145 O146 1.261 . S
C145 O158 1.251 . S
O146 C145 1.261 . S
H147 C141 0.930 . S
H148 C143 0.930 . S
N149 Cu138 1.985 . S
N149 C151 1.335 . S
N149 C152 1.390 . S
N150 C151 1.345 . S
N150 C153 1.336 . S
C151 N149 1.335 . S
C151 N150 1.345 . S
C151 H156 0.930 . S
C152 N149 1.390 . S
C152 C153 1.346 . S
C152 H157 0.930 . S
C153 N150 1.336 . S
C153 C152 1.346 . S
C153 H160 0.929 . S
C154 O144 1.282 . S
C154 O155 1.216 . S
O155 C154 1.216 . S
H156 C151 0.930 . S
H157 C152 0.930 . S
O158 Cu138 1.959 . S
O158 C145 1.251 . S
H159 C142 0.930 . S
H160 C153 0.929 . S
Cu161 N162 1.999 . S
Cu161 O167 1.974 . S
Cu161 N172 1.985 . S
Cu161 O181 1.959 . S
N162 Cu161 1.999 . S
N162 C164 1.263 . S
N162 C166 1.389 . S
N163 C164 1.358 . S
N163 C165 1.400 . S
C164 N162 1.263 . S
C164 N163 1.358 . S
C164 H170 0.930 . S
C165 N163 1.400 . S
C165 C166 1.351 . S
C165 H182 0.930 . S
C166 N162 1.389 . S
C166 C165 1.351 . S
C166 H171 0.930 . S
O167 Cu161 1.974 . S
O167 C177 1.282 . S
C168 O169 1.261 . S
C168 O181 1.251 . S
O169 C168 1.261 . S
H170 C164 0.930 . S
H171 C166 0.930 . S
N172 Cu161 1.985 . S
N172 C174 1.335 . S
N172 C175 1.390 . S
N173 C174 1.345 . S
N173 C176 1.336 . S
C174 N172 1.335 . S
C174 N173 1.345 . S
C174 H179 0.930 . S
C175 N172 1.390 . S
C175 C176 1.346 . S
C175 H180 0.930 . S
C176 N173 1.336 . S
C176 C175 1.346 . S
C176 H183 0.929 . S
C177 O167 1.282 . S
C177 O178 1.216 . S
O178 C177 1.216 . S
H179 C174 0.930 . S
H180 C175 0.930 . S
O181 Cu161 1.959 . S
O181 C168 1.251 . S
H182 C165 0.930 . S
H183 C176 0.929 . S
Cu184 N185 1.999 . S
Cu184 O190 1.974 . S
Cu184 N195 1.985 . S
Cu184 O204 1.959 . S
N185 Cu184 1.999 . S
N185 C187 1.263 . S
N185 C189 1.389 . S
N186 C187 1.358 . S
N186 C188 1.400 . S
C187 N185 1.263 . S
C187 N186 1.358 . S
C187 H193 0.930 . S
C188 N186 1.400 . S
C188 C189 1.351 . S
C188 H205 0.930 . S
C189 N185 1.389 . S
C189 C188 1.351 . S
C189 H194 0.930 . S
O190 Cu184 1.974 . S
O190 C200 1.282 . S
C191 O192 1.261 . S
C191 O204 1.251 . S
O192 C191 1.261 . S
H193 C187 0.930 . S
H194 C189 0.930 . S
N195 Cu184 1.985 . S
N195 C197 1.335 . S
N195 C198 1.390 . S
N196 C197 1.345 . S
N196 C199 1.336 . S
C197 N195 1.335 . S
C197 N196 1.345 . S
C197 H202 0.930 . S
C198 N195 1.390 . S
C198 C199 1.346 . S
C198 H203 0.930 . S
C199 N196 1.336 . S
C199 C198 1.346 . S
C199 H206 0.929 . S
C200 O190 1.282 . S
C200 O201 1.216 . S
O201 C200 1.216 . S
H202 C197 0.930 . S
H203 C198 0.930 . S
O204 Cu184 1.959 . S
O204 C191 1.251 . S
H205 C188 0.930 . S
H206 C199 0.929 . S
Cu207 N208 1.999 . S
Cu207 O213 1.974 . S
Cu207 N218 1.985 . S
Cu207 O227 1.959 . S
N208 Cu207 1.999 . S
N208 C210 1.263 . S
N208 C212 1.389 . S
N209 C210 1.358 . S
N209 C211 1.400 . S
C210 N208 1.263 . S
C210 N209 1.358 . S
C210 H216 0.930 . S
C211 N209 1.400 . S
C211 C212 1.351 . S
C211 H228 0.930 . S
C212 N208 1.389 . S
C212 C211 1.351 . S
C212 H217 0.930 . S
O213 Cu207 1.974 . S
O213 C223 1.282 . S
C214 O215 1.261 . S
C214 O227 1.251 . S
O215 C214 1.261 . S
H216 C210 0.930 . S
H217 C212 0.930 . S
N218 Cu207 1.985 . S
N218 C220 1.335 . S
N218 C221 1.390 . S
N219 C220 1.345 . S
N219 C222 1.336 . S
C220 N218 1.335 . S
C220 N219 1.345 . S
C220 H225 0.930 . S
C221 N218 1.390 . S
C221 C222 1.346 . S
C221 H226 0.930 . S
C222 N219 1.336 . S
C222 C221 1.346 . S
C222 H229 0.929 . S
C223 O213 1.282 . S
C223 O224 1.216 . S
O224 C223 1.216 . S
H225 C220 0.930 . S
H226 C221 0.930 . S
O227 Cu207 1.959 . S
O227 C214 1.251 . S
H228 C211 0.930 . S
H229 C222 0.929 . S
Cu230 N231 1.999 . S
Cu230 O236 1.974 . S
Cu230 N241 1.985 . S
Cu230 O250 1.959 . S
N231 Cu230 1.999 . S
N231 C233 1.263 . S
N231 C235 1.389 . S
N232 C233 1.358 . S
N232 C234 1.400 . S
C233 N231 1.263 . S
C233 N232 1.358 . S
C233 H239 0.930 . S
C234 N232 1.400 . S
C234 C235 1.351 . S
C234 H251 0.930 . S
C235 N231 1.389 . S
C235 C234 1.351 . S
C235 H240 0.930 . S
O236 Cu230 1.974 . S
O236 C246 1.282 . S
C237 O238 1.261 . S
C237 O250 1.251 . S
O238 C237 1.261 . S
H239 C233 0.930 . S
H240 C235 0.930 . S
N241 Cu230 1.985 . S
N241 C243 1.335 . S
N241 C244 1.390 . S
N242 C243 1.345 . S
N242 C245 1.336 . S
C243 N241 1.335 . S
C243 N242 1.345 . S
C243 H248 0.930 . S
C244 N241 1.390 . S
C244 C245 1.346 . S
C244 H249 0.930 . S
C245 N242 1.336 . S
C245 C244 1.346 . S
C245 H252 0.929 . S
C246 O236 1.282 . S
C246 O247 1.216 . S
O247 C246 1.216 . S
H248 C243 0.930 . S
H249 C244 0.930 . S
O250 Cu230 1.959 . S
O250 C237 1.251 . S
H251 C234 0.930 . S
H252 C245 0.929 . S
Cu253 N254 1.999 . S
Cu253 O259 1.974 . S
Cu253 N264 1.985 . S
Cu253 O273 1.959 . S
N254 Cu253 1.999 . S
N254 C256 1.263 . S
N254 C258 1.389 . S
N255 C256 1.358 . S
N255 C257 1.400 . S
C256 N254 1.263 . S
C256 N255 1.358 . S
C256 H262 0.930 . S
C257 N255 1.400 . S
C257 C258 1.351 . S
C257 H274 0.930 . S
C258 N254 1.389 . S
C258 C257 1.351 . S
C258 H263 0.930 . S
O259 Cu253 1.974 . S
O259 C269 1.282 . S
C260 O261 1.261 . S
C260 O273 1.251 . S
O261 C260 1.261 . S
H262 C256 0.930 . S
H263 C258 0.930 . S
N264 Cu253 1.985 . S
N264 C266 1.335 . S
N264 C267 1.390 . S
N265 C266 1.345 . S
N265 C268 1.336 . S
C266 N264 1.335 . S
C266 N265 1.345 . S
C266 H271 0.930 . S
C267 N264 1.390 . S
C267 C268 1.346 . S
C267 H272 0.930 . S
C268 N265 1.336 . S
C268 C267 1.346 . S
C268 H275 0.929 . S
C269 O259 1.282 . S
C269 O270 1.216 . S
O270 C269 1.216 . S
H271 C266 0.930 . S
H272 C267 0.930 . S
O273 Cu253 1.959 . S
O273 C260 1.251 . S
H274 C257 0.930 . S
H275 C268 0.929 . S
Cu276 N277 1.999 . S
Cu276 O282 1.974 . S
Cu276 N287 1.985 . S
Cu276 O296 1.959 . S
N277 Cu276 1.999 . S
N277 C279 1.263 . S
N277 C281 1.389 . S
N278 C279 1.358 . S
N278 C280 1.400 . S
C279 N277 1.263 . S
C279 N278 1.358 . S
C279 H285 0.930 . S
C280 N278 1.400 . S
C280 C281 1.351 . S
C280 H297 0.930 . S
C281 N277 1.389 . S
C281 C280 1.351 . S
C281 H286 0.930 . S
O282 Cu276 1.974 . S
O282 C292 1.282 . S
C283 O284 1.261 . S
C283 O296 1.251 . S
O284 C283 1.261 . S
H285 C279 0.930 . S
H286 C281 0.930 . S
N287 Cu276 1.985 . S
N287 C289 1.335 . S
N287 C290 1.390 . S
N288 C289 1.345 . S
N288 C291 1.336 . S
C289 N287 1.335 . S
C289 N288 1.345 . S
C289 H294 0.930 . S
C290 N287 1.390 . S
C290 C291 1.346 . S
C290 H295 0.930 . S
C291 N288 1.336 . S
C291 C290 1.346 . S
C291 H298 0.929 . S
C292 O282 1.282 . S
C292 O293 1.216 . S
O293 C292 1.216 . S
H294 C289 0.930 . S
H295 C290 0.930 . S
O296 Cu276 1.959 . S
O296 C283 1.251 . S
H297 C280 0.930 . S
H298 C291 0.929 . S
Cu299 N300 1.999 . S
Cu299 O305 1.974 . S
Cu299 N310 1.985 . S
Cu299 O319 1.959 . S
N300 Cu299 1.999 . S
N300 C302 1.263 . S
N300 C304 1.389 . S
N301 C302 1.358 . S
N301 C303 1.400 . S
C302 N300 1.263 . S
C302 N301 1.358 . S
C302 H308 0.930 . S
C303 N301 1.400 . S
C303 C304 1.351 . S
C303 H320 0.930 . S
C304 N300 1.389 . S
C304 C303 1.351 . S
C304 H309 0.930 . S
O305 Cu299 1.974 . S
O305 C315 1.282 . S
C306 O307 1.261 . S
C306 O319 1.251 . S
O307 C306 1.261 . S
H308 C302 0.930 . S
H309 C304 0.930 . S
N310 Cu299 1.985 . S
N310 C312 1.335 . S
N310 C313 1.390 . S
N311 C312 1.345 . S
N311 C314 1.336 . S
C312 N310 1.335 . S
C312 N311 1.345 . S
C312 H317 0.930 . S
C313 N310 1.390 . S
C313 C314 1.346 . S
C313 H318 0.930 . S
C314 N311 1.336 . S
C314 C313 1.346 . S
C314 H321 0.929 . S
C315 O305 1.282 . S
C315 O316 1.216 . S
O316 C315 1.216 . S
H317 C312 0.930 . S
H318 C313 0.930 . S
O319 Cu299 1.959 . S
O319 C306 1.251 . S
H320 C303 0.930 . S
H321 C314 0.929 . S
Cu322 N323 1.999 . S
Cu322 O328 1.974 . S
Cu322 N333 1.985 . S
Cu322 O342 1.959 . S
N323 Cu322 1.999 . S
N323 C325 1.263 . S
N323 C327 1.389 . S
N324 C325 1.358 . S
N324 C326 1.400 . S
C325 N323 1.263 . S
C325 N324 1.358 . S
C325 H331 0.930 . S
C326 N324 1.400 . S
C326 C327 1.351 . S
C326 H343 0.930 . S
C327 N323 1.389 . S
C327 C326 1.351 . S
C327 H332 0.930 . S
O328 Cu322 1.974 . S
O328 C338 1.282 . S
C329 O330 1.261 . S
C329 O342 1.251 . S
O330 C329 1.261 . S
H331 C325 0.930 . S
H332 C327 0.930 . S
N333 Cu322 1.985 . S
N333 C335 1.335 . S
N333 C336 1.390 . S
N334 C335 1.345 . S
N334 C337 1.336 . S
C335 N333 1.335 . S
C335 N334 1.345 . S
C335 H340 0.930 . S
C336 N333 1.390 . S
C336 C337 1.346 . S
C336 H341 0.930 . S
C337 N334 1.336 . S
C337 C336 1.346 . S
C337 H344 0.929 . S
C338 O328 1.282 . S
C338 O339 1.216 . S
O339 C338 1.216 . S
H340 C335 0.930 . S
H341 C336 0.930 . S
O342 Cu322 1.959 . S
O342 C329 1.251 . S
H343 C326 0.930 . S
H344 C337 0.929 . S
Cu345 N346 1.999 . S
Cu345 O351 1.974 . S
Cu345 N356 1.985 . S
Cu345 O365 1.959 . S
N346 Cu345 1.999 . S
N346 C348 1.263 . S
N346 C350 1.389 . S
N347 C348 1.358 . S
N347 C349 1.400 . S
C348 N346 1.263 . S
C348 N347 1.358 . S
C348 H354 0.930 . S
C349 N347 1.400 . S
C349 C350 1.351 . S
C349 H366 0.930 . S
C350 N346 1.389 . S
C350 C349 1.351 . S
C350 H355 0.930 . S
O351 Cu345 1.974 . S
O351 C361 1.282 . S
C352 O353 1.261 . S
C352 O365 1.251 . S
O353 C352 1.261 . S
H354 C348 0.930 . S
H355 C350 0.930 . S
N356 Cu345 1.985 . S
N356 C358 1.335 . S
N356 C359 1.390 . S
N357 C358 1.345 . S
N357 C360 1.336 . S
C358 N356 1.335 . S
C358 N357 1.345 . S
C358 H363 0.930 . S
C359 N356 1.390 . S
C359 C360 1.346 . S
C359 H364 0.930 . S
C360 N357 1.336 . S
C360 C359 1.346 . S
C360 H367 0.929 . S
C361 O351 1.282 . S
C361 O362 1.216 . S
O362 C361 1.216 . S
H363 C358 0.930 . S
H364 C359 0.930 . S
O365 Cu345 1.959 . S
O365 C352 1.251 . S
H366 C349 0.930 . S
H367 C360 0.929 . S
Cu368 N369 1.999 . S
Cu368 O374 1.974 . S
Cu368 N379 1.985 . S
Cu368 O388 1.959 . S
N369 Cu368 1.999 . S
N369 C371 1.263 . S
N369 C373 1.389 . S
N370 C371 1.358 . S
N370 C372 1.400 . S
C371 N369 1.263 . S
C371 N370 1.358 . S
C371 H377 0.930 . S
C372 N370 1.400 . S
C372 C373 1.351 . S
C372 H389 0.930 . S
C373 N369 1.389 . S
C373 C372 1.351 . S
C373 H378 0.930 . S
O374 Cu368 1.974 . S
O374 C384 1.282 . S
C375 O376 1.261 . S
C375 O388 1.251 . S
O376 C375 1.261 . S
H377 C371 0.930 . S
H378 C373 0.930 . S
N379 Cu368 1.985 . S
N379 C381 1.335 . S
N379 C382 1.390 . S
N380 C381 1.345 . S
N380 C383 1.336 . S
C381 N379 1.335 . S
C381 N380 1.345 . S
C381 H386 0.930 . S
C382 N379 1.390 . S
C382 C383 1.346 . S
C382 H387 0.930 . S
C383 N380 1.336 . S
C383 C382 1.346 . S
C383 H390 0.929 . S
C384 O374 1.282 . S
C384 O385 1.216 . S
O385 C384 1.216 . S
H386 C381 0.930 . S
H387 C382 0.930 . S
O388 Cu368 1.959 . S
O388 C375 1.251 . S
H389 C372 0.930 . S
H390 C383 0.929 . S
Cu391 N392 1.999 . S
Cu391 O397 1.974 . S
Cu391 N402 1.985 . S
Cu391 O411 1.959 . S
N392 Cu391 1.999 . S
N392 C394 1.263 . S
N392 C396 1.389 . S
N393 C394 1.358 . S
N393 C395 1.400 . S
C394 N392 1.263 . S
C394 N393 1.358 . S
C394 H400 0.930 . S
C395 N393 1.400 . S
C395 C396 1.351 . S
C395 H412 0.930 . S
C396 N392 1.389 . S
C396 C395 1.351 . S
C396 H401 0.930 . S
O397 Cu391 1.974 . S
O397 C407 1.282 . S
C398 O399 1.261 . S
C398 O411 1.251 . S
O399 C398 1.261 . S
H400 C394 0.930 . S
H401 C396 0.930 . S
N402 Cu391 1.985 . S
N402 C404 1.335 . S
N402 C405 1.390 . S
N403 C404 1.345 . S
N403 C406 1.336 . S
C404 N402 1.335 . S
C404 N403 1.345 . S
C404 H409 0.930 . S
C405 N402 1.390 . S
C405 C406 1.346 . S
C405 H410 0.930 . S
C406 N403 1.336 . S
C406 C405 1.346 . S
C406 H413 0.929 . S
C407 O397 1.282 . S
C407 O408 1.216 . S
O408 C407 1.216 . S
H409 C404 0.930 . S
H410 C405 0.930 . S
O411 Cu391 1.959 . S
O411 C398 1.251 . S
H412 C395 0.930 . S
H413 C406 0.929 . S
Co414 O415 2.216 . S
Co414 O416 2.091 1_455 S
Co414 O418 2.004 1_455 S
Co414 O424 2.021 . S
Co414 O426 2.144 1_455 S
Co414 O427 2.244 . S
O415 Co414 2.216 . S
O415 C422 1.247 . S
O416 Co414 2.091 1_655 S
O416 C422 1.261 1_655 S
C417 O426 1.239 1_455 S
C417 O427 1.272 . S
O418 Co414 2.004 1_655 S
O418 C423 1.259 . S
Co419 O420 2.061 1_455 S
Co419 O425 2.052 . S
Co419 O427 2.135 . S
O420 Co419 2.061 1_655 S
O420 C423 1.235 . S
C421 O424 1.238 . S
C421 O425 1.241 . S
C422 O415 1.247 . S
C422 O416 1.261 1_455 S
C423 O418 1.259 . S
C423 O420 1.235 . S
O424 Co414 2.021 . S
O424 C421 1.238 . S
O425 Co419 2.052 . S
O425 C421 1.241 . S
O426 Co414 2.144 1_655 S
O426 C417 1.239 1_655 S
O427 Co414 2.244 . S
O427 C417 1.272 . S
O427 Co419 2.135 . S
Co428 O429 2.216 . S
Co428 O430 2.091 . S
Co428 O432 2.004 . S
Co428 O438 2.021 . S
Co428 O440 2.137 . S
Co428 O441 2.244 . S
O429 Co428 2.216 . S
O429 C436 1.247 . S
O430 Co428 2.091 . S
O430 C436 1.261 . S
C431 O440 1.247 . S
C431 O441 1.272 . S
O432 Co428 2.004 . S
O432 C437 1.259 . S
Co433 O434 2.061 . S
Co433 O439 2.052 . S
Co433 O441 2.135 . S
O434 Co433 2.061 . S
O434 C437 1.235 . S
C435 O438 1.238 . S
C435 O439 1.241 . S
C436 O429 1.247 . S
C436 O430 1.261 . S
C437 O432 1.259 . S
C437 O434 1.235 . S
O438 Co428 2.021 . S
O438 C435 1.238 . S
O439 Co433 2.052 . S
O439 C435 1.241 . S
O440 Co428 2.137 . S
O440 C431 1.247 . S
O441 Co428 2.244 . S
O441 C431 1.272 . S
O441 Co433 2.135 . S
Co442 O443 2.216 . S
Co442 O444 2.091 . S
Co442 O446 2.004 . S
Co442 O452 2.021 . S
Co442 O454 2.137 . S
Co442 O455 2.244 . S
O443 Co442 2.216 . S
O443 C450 1.247 . S
O444 Co442 2.091 . S
O444 C450 1.261 . S
C445 O454 1.247 . S
C445 O455 1.272 . S
O446 Co442 2.004 . S
O446 C451 1.259 . S
Co447 O448 2.061 . S
Co447 O453 2.052 . S
Co447 O455 2.135 . S
O448 Co447 2.061 . S
O448 C451 1.235 . S
C449 O452 1.238 . S
C449 O453 1.241 . S
C450 O443 1.247 . S
C450 O444 1.261 . S
C451 O446 1.259 . S
C451 O448 1.235 . S
O452 Co442 2.021 . S
O452 C449 1.238 . S
O453 Co447 2.052 . S
O453 C449 1.241 . S
O454 Co442 2.137 . S
O454 C445 1.247 . S
O455 Co442 2.244 . S
O455 C445 1.272 . S
O455 Co447 2.135 . S
Co456 O457 2.216 . S
Co456 O458 2.091 . S
Co456 O460 2.004 . S
Co456 O466 2.021 . S
Co456 O468 2.137 1_455 S
Co456 O469 2.244 1_455 S
O457 Co456 2.216 . S
O457 C464 1.247 . S
O458 Co456 2.091 . S
O458 C464 1.261 . S
C459 O468 1.247 . S
C459 O469 1.272 . S
O460 Co456 2.004 . S
O460 C465 1.259 . S
Co461 O462 2.061 1_655 S
Co461 O467 2.052 1_655 S
Co461 O469 2.135 . S
O462 Co461 2.061 1_455 S
O462 C465 1.235 . S
C463 O466 1.238 . S
C463 O467 1.241 . S
C464 O457 1.247 . S
C464 O458 1.261 . S
C465 O460 1.259 . S
C465 O462 1.235 . S
O466 Co456 2.021 . S
O466 C463 1.238 . S
O467 Co461 2.052 1_455 S
O467 C463 1.241 . S
O468 Co456 2.137 1_655 S
O468 C459 1.247 . S
O469 Co456 2.244 1_655 S
O469 C459 1.272 . S
O469 Co461 2.135 . S
Co470 O471 2.216 . S
Co470 O472 2.091 . S
Co470 O474 2.004 . S
Co470 O480 2.021 . S
Co470 O482 2.137 . S
Co470 O483 2.244 . S
O471 Co470 2.216 . S
O471 C478 1.247 . S
O472 Co470 2.091 . S
O472 C478 1.261 . S
C473 O482 1.247 . S
C473 O483 1.272 . S
O474 Co470 2.004 . S
O474 C479 1.259 . S
Co475 O476 2.061 . S
Co475 O481 2.052 . S
Co475 O483 2.135 . S
O476 Co475 2.061 . S
O476 C479 1.235 . S
C477 O480 1.238 . S
C477 O481 1.241 . S
C478 O471 1.247 . S
C478 O472 1.261 . S
C479 O474 1.259 . S
C479 O476 1.235 . S
O480 Co470 2.021 . S
O480 C477 1.238 . S
O481 Co475 2.052 . S
O481 C477 1.241 . S
O482 Co470 2.137 . S
O482 C473 1.247 . S
O483 Co470 2.244 . S
O483 C473 1.272 . S
O483 Co475 2.135 . S
Co484 O485 2.216 . S
Co484 O486 2.069 1_545 S
Co484 O488 2.004 1_545 S
Co484 O494 2.021 . S
Co484 O496 2.137 . S
Co484 O497 2.244 . S
O485 Co484 2.216 . S
O485 C492 1.247 . S
O486 Co484 2.069 1_565 S
O486 C492 1.250 1_565 S
C487 O496 1.247 . S
C487 O497 1.272 . S
O488 Co484 2.004 1_565 S
O488 C493 1.259 . S
Co489 O490 2.061 . S
Co489 O495 2.052 . S
Co489 O497 2.135 . S
O490 Co489 2.061 . S
O490 C493 1.235 1_545 S
C491 O494 1.238 . S
C491 O495 1.241 . S
C492 O485 1.247 . S
C492 O486 1.250 1_545 S
C493 O488 1.259 . S
C493 O490 1.235 1_565 S
O494 Co484 2.021 . S
O494 C491 1.238 . S
O495 Co489 2.052 . S
O495 C491 1.241 . S
O496 Co484 2.137 . S
O496 C487 1.247 . S
O497 Co484 2.244 . S
O497 C487 1.272 . S
O497 Co489 2.135 . S
Co498 O499 2.216 . S
Co498 O500 2.091 . S
Co498 O502 2.004 . S
Co498 O508 2.021 1_565 S
Co498 O510 2.137 . S
Co498 O511 2.244 . S
O499 Co498 2.216 . S
O499 C506 1.247 . S
O500 Co498 2.091 . S
O500 C506 1.261 . S
C501 O510 1.247 . S
C501 O511 1.308 . S
O502 Co498 2.004 . S
O502 C507 1.259 1_565 S
Co503 O504 2.061 . S
Co503 O509 2.052 . S
Co503 O511 2.096 1_545 S
O504 Co503 2.061 . S
O504 C507 1.235 . S
C505 O508 1.238 . S
C505 O509 1.241 . S
C506 O499 1.247 . S
C506 O500 1.261 . S
C507 O502 1.259 1_545 S
C507 O504 1.235 . S
O508 Co498 2.021 1_545 S
O508 C505 1.238 . S
O509 Co503 2.052 . S
O509 C505 1.241 . S
O510 Co498 2.137 . S
O510 C501 1.247 . S
O511 Co498 2.244 . S
O511 C501 1.308 . S
O511 Co503 2.096 1_565 S
Co512 O513 2.216 . S
Co512 O514 2.091 . S
Co512 O516 2.004 . S
Co512 O522 2.021 . S
Co512 O524 2.137 . S
Co512 O525 2.244 . S
O513 Co512 2.216 . S
O513 C520 1.247 . S
O514 Co512 2.091 . S
O514 C520 1.261 . S
C515 O524 1.247 . S
C515 O525 1.272 . S
O516 Co512 2.004 . S
O516 C521 1.259 . S
Co517 O518 2.061 . S
Co517 O523 2.052 . S
Co517 O525 2.135 . S
O518 Co517 2.061 . S
O518 C521 1.235 . S
C519 O522 1.238 . S
C519 O523 1.241 . S
C520 O513 1.247 . S
C520 O514 1.261 . S
C521 O516 1.259 . S
C521 O518 1.235 . S
O522 Co512 2.021 . S
O522 C519 1.238 . S
O523 Co517 2.052 . S
O523 C519 1.241 . S
O524 Co512 2.137 . S
O524 C515 1.247 . S
O525 Co512 2.244 . S
O525 C515 1.272 . S
O525 Co517 2.135 . S
Co526 O527 2.216 . S
Co526 O528 2.091 . S
Co526 O530 2.004 . S
Co526 O536 2.021 . S
Co526 O538 2.137 . S
Co526 O539 2.244 . S
O527 Co526 2.216 . S
O527 C534 1.247 . S
O528 Co526 2.091 . S
O528 C534 1.261 . S
C529 O538 1.247 . S
C529 O539 1.272 . S
O530 Co526 2.004 . S
O530 C535 1.259 . S
Co531 O532 2.061 . S
Co531 O537 2.052 . S
Co531 O539 2.135 . S
O532 Co531 2.061 . S
O532 C535 1.235 . S
C533 O536 1.238 . S
C533 O537 1.241 . S
C534 O527 1.247 . S
C534 O528 1.261 . S
C535 O530 1.259 . S
C535 O532 1.235 . S
O536 Co526 2.021 . S
O536 C533 1.238 . S
O537 Co531 2.052 . S
O537 C533 1.241 . S
O538 Co526 2.137 . S
O538 C529 1.247 . S
O539 Co526 2.244 . S
O539 C529 1.272 . S
O539 Co531 2.135 . S
Co540 O541 2.216 . S
Co540 O542 2.091 . S
Co540 O544 2.004 . S
Co540 O550 2.021 . S
Co540 O552 2.137 . S
Co540 O553 2.244 . S
O541 Co540 2.216 . S
O541 C548 1.247 . S
O542 Co540 2.091 . S
O542 C548 1.261 . S
C543 O552 1.247 . S
C543 O553 1.272 . S
O544 Co540 2.004 . S
O544 C549 1.259 . S
Co545 O546 2.061 . S
Co545 O551 2.052 . S
Co545 O553 2.135 . S
O546 Co545 2.061 . S
O546 C549 1.235 . S
C547 O550 1.238 . S
C547 O551 1.241 . S
C548 O541 1.247 . S
C548 O542 1.261 . S
C549 O544 1.259 . S
C549 O546 1.235 . S
O550 Co540 2.021 . S
O550 C547 1.238 . S
O551 Co545 2.052 . S
O551 C547 1.241 . S
O552 Co540 2.137 . S
O552 C543 1.247 . S
O553 Co540 2.244 . S
O553 C543 1.272 . S
O553 Co545 2.135 . S
Co554 O555 2.216 . S
Co554 O556 2.091 . S
Co554 O558 2.004 . S
Co554 O564 2.021 . S
Co554 O566 2.137 1_565 S
Co554 O567 2.244 1_565 S
O555 Co554 2.216 . S
O555 C562 1.247 . S
O556 Co554 2.091 . S
O556 C562 1.261 . S
C557 O566 1.247 . S
C557 O567 1.272 . S
O558 Co554 2.004 . S
O558 C563 1.259 1_565 S
Co559 O560 2.061 . S
Co559 O565 2.052 1_545 S
Co559 O567 2.135 . S
O560 Co559 2.061 . S
O560 C563 1.235 . S
C561 O564 1.238 . S
C561 O565 1.241 . S
C562 O555 1.247 . S
C562 O556 1.261 . S
C563 O558 1.259 1_545 S
C563 O560 1.235 . S
O564 Co554 2.021 . S
O564 C561 1.238 . S
O565 Co559 2.052 1_565 S
O565 C561 1.241 . S
O566 Co554 2.137 1_545 S
O566 C557 1.247 . S
O567 Co554 2.244 1_545 S
O567 C557 1.272 . S
O567 Co559 2.135 . S
Co568 O569 2.216 . S
Co568 O570 2.091 . S
Co568 O572 2.004 . S
Co568 O578 2.021 . S
Co568 O580 2.137 . S
Co568 O581 2.244 . S
O569 Co568 2.216 . S
O569 C576 1.247 . S
O570 Co568 2.091 . S
O570 C576 1.261 . S
C571 O580 1.247 . S
C571 O581 1.272 . S
O572 Co568 2.004 . S
O572 C577 1.259 1_455 S
Co573 O574 2.061 . S
Co573 O579 2.052 . S
Co573 O581 2.135 . S
O574 Co573 2.061 . S
O574 C577 1.235 1_455 S
C575 O578 1.238 . S
C575 O579 1.241 . S
C576 O569 1.247 . S
C576 O570 1.261 . S
C577 O572 1.259 1_655 S
C577 O574 1.235 1_655 S
O578 Co568 2.021 . S
O578 C575 1.238 . S
O579 Co573 2.052 . S
O579 C575 1.241 . S
O580 Co568 2.137 . S
O580 C571 1.247 . S
O581 Co568 2.244 . S
O581 C571 1.272 . S
O581 Co573 2.135 . S
Co582 O583 2.216 . S
Co582 O584 2.091 . S
Co582 O586 2.004 . S
Co582 O592 2.021 . S
Co582 O594 2.137 . S
Co582 O595 2.244 . S
O583 Co582 2.216 . S
O583 C590 1.247 1_556 S
O584 Co582 2.091 . S
O584 C590 1.261 1_556 S
C585 O594 1.247 . S
C585 O595 1.272 . S
O586 Co582 2.004 . S
O586 C591 1.259 . S
Co587 O588 2.061 . S
Co587 O593 2.052 . S
Co587 O595 2.135 . S
O588 Co587 2.061 . S
O588 C591 1.235 . S
C589 O592 1.238 . S
C589 O593 1.241 . S
C590 O583 1.247 1_554 S
C590 O584 1.261 1_554 S
C591 O586 1.259 . S
C591 O588 1.235 . S
O592 Co582 2.021 . S
O592 C589 1.238 . S
O593 Co587 2.052 . S
O593 C589 1.241 . S
O594 Co582 2.137 . S
O594 C585 1.247 . S
O595 Co582 2.244 . S
O595 C585 1.272 . S
O595 Co587 2.135 . S
Co596 O597 2.216 . S
Co596 O598 2.091 . S
Co596 O600 2.004 . S
Co596 O606 2.021 . S
Co596 O608 2.137 . S
Co596 O609 2.244 . S
O597 Co596 2.216 . S
O597 C604 1.247 . S
O598 Co596 2.091 . S
O598 C604 1.261 . S
C599 O608 1.247 . S
C599 O609 1.272 . S
O600 Co596 2.004 . S
O600 C605 1.259 . S
Co601 O602 2.061 . S
Co601 O607 2.052 . S
Co601 O609 2.135 . S
O602 Co601 2.061 . S
O602 C605 1.235 . S
C603 O606 1.238 . S
C603 O607 1.241 . S
C604 O597 1.247 . S
C604 O598 1.261 . S
C605 O600 1.259 . S
C605 O602 1.235 . S
O606 Co596 2.021 . S
O606 C603 1.238 . S
O607 Co601 2.052 . S
O607 C603 1.241 . S
O608 Co596 2.137 . S
O608 C599 1.247 . S
O609 Co596 2.244 . S
O609 C599 1.272 . S
O609 Co601 2.135 . S
Co610 O611 2.216 . S
Co610 O612 2.091 . S
Co610 O614 2.004 1_655 S
Co610 O620 2.021 . S
Co610 O622 2.137 . S
Co610 O623 2.244 . S
O611 Co610 2.216 . S
O611 C618 1.247 . S
O612 Co610 2.091 . S
O612 C618 1.261 . S
C613 O622 1.247 . S
C613 O623 1.272 . S
O614 Co610 2.004 1_455 S
O614 C619 1.259 . S
Co615 O616 2.056 1_655 S
Co615 O621 2.046 . S
Co615 O623 2.169 . S
O616 Co615 2.056 1_455 S
O616 C619 1.235 . S
C617 O620 1.238 . S
C617 O621 1.241 . S
C618 O611 1.247 . S
C618 O612 1.261 . S
C619 O614 1.259 . S
C619 O616 1.235 . S
O620 Co610 2.021 . S
O620 C617 1.238 . S
O621 Co615 2.046 . S
O621 C617 1.241 . S
O622 Co610 2.137 . S
O622 C613 1.247 . S
O623 Co610 2.244 . S
O623 C613 1.272 . S
O623 Co615 2.169 . S
Co624 O625 2.216 . S
Co624 O626 2.091 . S
Co624 O628 2.004 . S
Co624 O634 2.021 . S
Co624 O636 2.137 . S
Co624 O637 2.244 . S
O625 Co624 2.216 . S
O625 C632 1.247 . S
O626 Co624 2.091 . S
O626 C632 1.261 . S
C627 O636 1.247 . S
C627 O637 1.272 . S
O628 Co624 2.004 . S
O628 C633 1.259 . S
Co629 O630 2.061 . S
Co629 O635 2.052 . S
Co629 O637 2.135 . S
O630 Co629 2.061 . S
O630 C633 1.235 . S
C631 O634 1.238 . S
C631 O635 1.241 . S
C632 O625 1.247 . S
C632 O626 1.261 . S
C633 O628 1.259 . S
C633 O630 1.235 . S
O634 Co624 2.021 . S
O634 C631 1.238 . S
O635 Co629 2.052 . S
O635 C631 1.241 . S
O636 Co624 2.137 . S
O636 C627 1.247 . S
O637 Co624 2.244 . S
O637 C627 1.272 . S
O637 Co629 2.135 . S
Co638 O639 2.216 . S
Co638 O640 2.091 . S
Co638 O642 2.004 1_655 S
Co638 O648 2.021 . S
Co638 O650 2.137 . S
Co638 O651 2.244 . S
O639 Co638 2.216 . S
O639 C646 1.247 . S
O640 Co638 2.091 . S
O640 C646 1.261 . S
C641 O650 1.247 . S
C641 O651 1.272 . S
O642 Co638 2.004 1_455 S
O642 C647 1.259 . S
Co643 O644 2.061 1_655 S
Co643 O649 2.052 . S
Co643 O651 2.135 . S
O644 Co643 2.061 1_455 S
O644 C647 1.235 . S
C645 O648 1.238 . S
C645 O649 1.241 . S
C646 O639 1.247 . S
C646 O640 1.261 . S
C647 O642 1.259 . S
C647 O644 1.235 . S
O648 Co638 2.021 . S
O648 C645 1.238 . S
O649 Co643 2.052 . S
O649 C645 1.241 . S
O650 Co638 2.137 . S
O650 C641 1.247 . S
O651 Co638 2.244 . S
O651 C641 1.272 . S
O651 Co643 2.135 . S
Co652 O653 2.216 . S
Co652 O654 2.091 . S
Co652 O656 2.004 . S
Co652 O662 2.021 . S
Co652 O664 2.137 . S
Co652 O665 2.244 . S
O653 Co652 2.216 . S
O653 C660 1.247 . S
O654 Co652 2.091 . S
O654 C660 1.261 . S
C655 O664 1.247 . S
C655 O665 1.272 . S
O656 Co652 2.004 . S
O656 C661 1.259 . S
Co657 O658 2.061 . S
Co657 O663 2.052 . S
Co657 O665 2.135 . S
O658 Co657 2.061 . S
O658 C661 1.235 . S
C659 O662 1.238 . S
C659 O663 1.241 . S
C660 O653 1.247 . S
C660 O654 1.261 . S
C661 O656 1.259 . S
C661 O658 1.235 . S
O662 Co652 2.021 . S
O662 C659 1.238 . S
O663 Co657 2.052 . S
O663 C659 1.241 . S
O664 Co652 2.137 . S
O664 C655 1.247 . S
O665 Co652 2.244 . S
O665 C655 1.272 . S
O665 Co657 2.135 . S
C666 C667 1.387 . S
C666 H670 0.950 . S
C666 C675 1.390 . S
C667 C666 1.387 . S
C667 C669 1.387 . S
H668 C675 0.950 . S
C669 C667 1.387 . S
C669 C671 1.390 . S
C669 H673 0.950 1_554 S
H670 C666 0.950 . S
C671 C669 1.390 . S
C671 C672 1.387 . S
C671 H674 0.950 . S
C672 C671 1.387 . S
C672 C675 1.387 . S
H673 C669 0.950 1_556 S
H674 C671 0.950 . S
C675 C666 1.390 . S
C675 H668 0.950 . S
C675 C672 1.387 . S
C676 C677 1.387 . S
C676 H680 0.950 . S
C676 C685 1.390 . S
C677 C676 1.387 . S
C677 C679 1.387 . S
H678 C685 0.950 . S
C679 C677 1.387 . S
C679 C681 1.390 . S
C679 H683 0.950 1_554 S
H680 C676 0.950 . S
C681 C679 1.390 . S
C681 C682 1.387 . S
C681 H684 0.950 . S
C682 C681 1.387 . S
C682 C685 1.387 . S
H683 C679 0.950 1_556 S
H684 C681 0.950 . S
C685 C676 1.390 . S
C685 H678 0.950 . S
C685 C682 1.387 . S
C686 C687 1.387 1_565 S
C686 H690 0.950 . S
C686 C695 1.390 . S
C687 C686 1.387 1_545 S
C687 C689 1.387 . S
H688 C695 0.950 . S
C689 C687 1.387 . S
C689 C691 1.390 . S
C689 H693 0.950 . S
H690 C686 0.950 . S
C691 C689 1.390 . S
C691 C692 1.387 . S
C691 H694 0.950 . S
C692 C691 1.387 . S
C692 C695 1.387 1_545 S
H693 C689 0.950 . S
H694 C691 0.950 . S
C695 C686 1.390 . S
C695 H688 0.950 . S
C695 C692 1.387 1_565 S
C696 C697 1.387 . S
C696 H700 0.950 . S
C696 C705 1.390 . S
C697 C696 1.387 . S
C697 C699 1.387 . S
H698 C705 0.950 . S
C699 C697 1.387 . S
C699 C701 1.390 . S
C699 H703 0.950 . S
H700 C696 0.950 . S
C701 C699 1.390 . S
C701 C702 1.387 . S
C701 H704 0.950 . S
C702 C701 1.387 . S
C702 C705 1.387 . S
H703 C699 0.950 . S
H704 C701 0.950 . S
C705 C696 1.390 . S
C705 H698 0.950 . S
C705 C702 1.387 . S
C706 C707 1.387 . S
C706 H710 0.950 . S
C706 C715 1.390 . S
C707 C706 1.387 . S
C707 C709 1.387 . S
H708 C715 0.950 . S
C709 C707 1.387 . S
C709 C711 1.390 1_455 S
C709 H713 0.950 . S
H710 C706 0.950 . S
C711 C709 1.390 1_655 S
C711 C712 1.387 1_655 S
C711 H714 0.950 . S
C712 C711 1.387 1_455 S
C712 C715 1.387 . S
H713 C709 0.950 . S
H714 C711 0.950 . S
C715 C706 1.390 . S
C715 H708 0.950 . S
C715 C712 1.387 . S
C716 C717 1.387 . S
C716 H720 0.950 . S
C716 C725 1.390 . S
C717 C716 1.387 . S
C717 C719 1.387 . S
H718 C725 0.950 . S
C719 C717 1.387 . S
C719 C721 1.390 . S
C719 H723 0.950 . S
H720 C716 0.950 . S
C721 C719 1.390 . S
C721 C722 1.387 . S
C721 H724 0.950 . S
C722 C721 1.387 . S
C722 C725 1.387 . S
H723 C719 0.950 . S
H724 C721 0.950 . S
C725 C716 1.390 . S
C725 H718 0.950 . S
C725 C722 1.387 . S
C726 C727 1.387 . S
C726 H730 0.950 . S
C726 C735 1.390 . S
C727 C726 1.387 . S
C727 C729 1.387 . S
H728 C735 0.950 . S
C729 C727 1.387 . S
C729 C731 1.390 . S
C729 H733 0.950 1_556 S
H730 C726 0.950 . S
C731 C729 1.390 . S
C731 C732 1.387 . S
C731 H734 0.950 1_556 S
C732 C731 1.387 . S
C732 C735 1.387 . S
H733 C729 0.950 1_554 S
H734 C731 0.950 1_554 S
C735 C726 1.390 . S
C735 H728 0.950 . S
C735 C732 1.387 . S
C736 C737 1.387 . S
C736 H740 0.950 . S
C736 C745 1.390 . S
C737 C736 1.387 . S
C737 C739 1.387 1_556 S
H738 C745 0.950 . S
C739 C737 1.387 1_554 S
C739 C741 1.390 . S
C739 H743 0.950 . S
H740 C736 0.950 . S
C741 C739 1.390 . S
C741 C742 1.387 1_554 S
C741 H744 0.950 . S
C742 C741 1.387 1_556 S
C742 C745 1.387 . S
H743 C739 0.950 . S
H744 C741 0.950 . S
C745 C736 1.390 . S
C745 H738 0.950 . S
C745 C742 1.387 . S
C746 C747 1.387 . S
C746 H750 0.950 . S
C746 C755 1.390 . S
C747 C746 1.387 . S
C747 C749 1.387 . S
H748 C755 0.950 . S
C749 C747 1.387 . S
C749 C751 1.390 . S
C749 H753 0.950 . S
H750 C746 0.950 . S
C751 C749 1.390 . S
C751 C752 1.387 . S
C751 H754 0.950 . S
C752 C751 1.387 . S
C752 C755 1.387 . S
H753 C749 0.950 . S
H754 C751 0.950 . S
C755 C746 1.390 . S
C755 H748 0.950 . S
C755 C752 1.387 . S
C756 C757 1.387 . S
C756 H760 0.950 . S
C756 C765 1.390 . S
C757 C756 1.387 . S
C757 C759 1.387 1_565 S
H758 C765 0.950 . S
C759 C757 1.387 1_545 S
C759 C761 1.390 . S
C759 H763 0.950 . S
H760 C756 0.950 . S
C761 C759 1.390 . S
C761 C762 1.387 . S
C761 H764 0.950 . S
C762 C761 1.387 . S
C762 C765 1.387 1_545 S
H763 C759 0.950 . S
H764 C761 0.950 . S
C765 C756 1.390 . S
C765 H758 0.950 . S
C765 C762 1.387 1_565 S
C766 C767 1.387 . S
C766 H770 0.950 . S
C766 C775 1.390 . S
C767 C766 1.387 . S
C767 C769 1.387 . S
H768 C775 0.950 . S
C769 C767 1.387 . S
C769 C771 1.390 . S
C769 H773 0.950 . S
H770 C766 0.950 . S
C771 C769 1.390 . S
C771 C772 1.387 . S
C771 H774 0.950 . S
C772 C771 1.387 . S
C772 C775 1.387 . S
H773 C769 0.950 . S
H774 C771 0.950 . S
C775 C766 1.390 . S
C775 H768 0.950 . S
C775 C772 1.387 . S
C776 C777 1.387 . S
C776 H780 0.950 . S
C776 C785 1.390 . S
C777 C776 1.387 . S
C777 C779 1.387 . S
H778 C785 0.950 . S
C779 C777 1.387 . S
C779 C781 1.390 . S
C779 H783 0.950 . S
H780 C776 0.950 . S
C781 C779 1.390 . S
C781 C782 1.387 . S
C781 H784 0.950 . S
C782 C781 1.387 . S
C782 C785 1.387 . S
H783 C779 0.950 . S
H784 C781 0.950 . S
C785 C776 1.390 . S
C785 H778 0.950 . S
C785 C782 1.387 . S
C786 C787 1.387 . S
C786 H790 0.950 . S
C786 C795 1.390 . S
C787 C786 1.387 . S
C787 C789 1.387 . S
H788 C795 0.950 . S
C789 C787 1.387 . S
C789 C791 1.390 . S
C789 H793 0.950 . S
H790 C786 0.950 . S
C791 C789 1.390 . S
C791 C792 1.387 . S
C791 H794 0.950 . S
C792 C791 1.387 . S
C792 C795 1.387 . S
H793 C789 0.950 . S
H794 C791 0.950 . S
C795 C786 1.390 . S
C795 H788 0.950 . S
C795 C792 1.387 . S
C796 C797 1.387 1_545 S
C796 H800 0.950 1_545 S
C796 C805 1.390 . S
C797 C796 1.387 1_565 S
C797 C799 1.387 1_565 S
H798 C805 0.950 . S
C799 C797 1.387 1_545 S
C799 C801 1.390 . S
C799 H803 0.950 . S
H800 C796 0.950 1_565 S
C801 C799 1.390 . S
C801 C802 1.387 . S
C801 H804 0.950 . S
C802 C801 1.387 . S
C802 C805 1.387 . S
H803 C799 0.950 . S
H804 C801 0.950 . S
C805 C796 1.390 . S
C805 H798 0.950 . S
C805 C802 1.387 . S
C806 C807 1.387 . S
C806 H810 0.950 . S
C806 C815 1.390 . S
C807 C806 1.387 . S
C807 C809 1.387 . S
H808 C815 0.950 . S
C809 C807 1.387 . S
C809 C811 1.390 . S
C809 H813 0.950 . S
H810 C806 0.950 . S
C811 C809 1.390 . S
C811 C812 1.387 . S
C811 H814 0.950 . S
C812 C811 1.387 . S
C812 C815 1.387 . S
H813 C809 0.950 . S
H814 C811 0.950 . S
C815 C806 1.390 . S
C815 H808 0.950 . S
C815 C812 1.387 . S
C816 C817 1.387 . S
C816 H820 0.950 . S
C816 C825 1.390 . S
C817 C816 1.387 . S
C817 C819 1.387 . S
H818 C825 0.950 . S
C819 C817 1.387 . S
C819 C821 1.390 . S
C819 H823 0.950 . S
H820 C816 0.950 . S
C821 C819 1.390 . S
C821 C822 1.387 . S
C821 H824 0.950 . S
C822 C821 1.387 . S
C822 C825 1.387 . S
H823 C819 0.950 . S
H824 C821 0.950 . S
C825 C816 1.390 . S
C825 H818 0.950 . S
C825 C822 1.387 . S
C826 C827 1.387 . S
C826 H830 0.950 . S
C826 C835 1.390 . S
C827 C826 1.387 . S
C827 C829 1.387 . S
H828 C835 0.950 . S
C829 C827 1.387 . S
C829 C831 1.390 . S
C829 H833 0.950 . S
H830 C826 0.950 . S
C831 C829 1.390 . S
C831 C832 1.387 . S
C831 H834 0.950 . S
C832 C831 1.387 . S
C832 C835 1.387 . S
H833 C829 0.950 . S
H834 C831 0.950 . S
C835 C826 1.390 . S
C835 H828 0.950 . S
C835 C832 1.387 . S
C836 C837 1.387 . S
C836 H840 0.950 . S
C836 C845 1.390 . S
C837 C836 1.387 . S
C837 C839 1.387 . S
H838 C845 0.950 . S
C839 C837 1.387 . S
C839 C841 1.390 . S
C839 H843 0.950 . S
H840 C836 0.950 . S
C841 C839 1.390 . S
C841 C842 1.387 . S
C841 H844 0.950 . S
C842 C841 1.387 . S
C842 C845 1.387 . S
H843 C839 0.950 . S
H844 C841 0.950 . S
C845 C836 1.390 . S
C845 H838 0.950 . S
C845 C842 1.387 . S
C846 C847 1.387 . S
C846 H850 0.950 . S
C846 C855 1.390 1_565 S
C847 C846 1.387 . S
C847 C849 1.387 . S
H848 C855 0.950 . S
C849 C847 1.387 . S
C849 C851 1.390 1_565 S
C849 H853 0.950 . S
H850 C846 0.950 . S
C851 C849 1.390 1_545 S
C851 C852 1.387 . S
C851 H854 0.950 . S
C852 C851 1.387 . S
C852 C855 1.387 . S
H853 C849 0.950 . S
H854 C851 0.950 . S
C855 C846 1.390 1_545 S
C855 H848 0.950 . S
C855 C852 1.387 . S
C856 C857 1.387 . S
C856 H860 0.950 . S
C856 C865 1.390 . S
C857 C856 1.387 . S
C857 C859 1.387 . S
H858 C865 0.950 . S
C859 C857 1.387 . S
C859 C861 1.390 . S
C859 H863 0.950 . S
H860 C856 0.950 . S
C861 C859 1.390 . S
C861 C862 1.387 . S
C861 H864 0.950 . S
C862 C861 1.387 . S
C862 C865 1.387 . S
H863 C859 0.950 . S
H864 C861 0.950 . S
C865 C856 1.390 . S
C865 H858 0.950 . S
C865 C862 1.387 . S
C866 C867 1.387 . S
C866 H870 0.950 . S
C866 C875 1.390 . S
C867 C866 1.387 . S
C867 C869 1.387 . S
H868 C875 0.950 . S
C869 C867 1.387 . S
C869 C871 1.390 . S
C869 H873 0.950 . S
H870 C866 0.950 . S
C871 C869 1.390 . S
C871 C872 1.387 . S
C871 H874 0.950 . S
C872 C871 1.387 . S
C872 C875 1.387 . S
H873 C869 0.950 . S
H874 C871 0.950 . S
C875 C866 1.390 . S
C875 H868 0.950 . S
C875 C872 1.387 . S
C876 C877 1.387 . S
C876 H880 0.950 . S
C876 C885 1.390 . S
C877 C876 1.387 . S
C877 C879 1.387 . S
H878 C885 0.950 . S
C879 C877 1.387 . S
C879 C881 1.390 . S
C879 H883 0.950 . S
H880 C876 0.950 . S
C881 C879 1.390 . S
C881 C882 1.387 . S
C881 H884 0.950 . S
C882 C881 1.387 . S
C882 C885 1.387 . S
H883 C879 0.950 . S
H884 C881 0.950 . S
C885 C876 1.390 . S
C885 H878 0.950 . S
C885 C882 1.387 . S
C886 C887 1.387 . S
C886 H890 0.950 . S
C886 C895 1.390 1_565 S
C887 C886 1.387 . S
C887 C889 1.387 1_565 S
H888 C895 0.950 . S
C889 C887 1.387 1_545 S
C889 C891 1.390 . S
C889 H893 0.950 . S
H890 C886 0.950 . S
C891 C889 1.390 . S
C891 C892 1.387 . S
C891 H894 0.950 . S
C892 C891 1.387 . S
C892 C895 1.387 . S
H893 C889 0.950 . S
H894 C891 0.950 . S
C895 C886 1.390 1_545 S
C895 H888 0.950 . S
C895 C892 1.387 . S
C896 C897 1.387 . S
C896 H900 0.950 . S
C896 C905 1.390 . S
C897 C896 1.387 . S
C897 C899 1.387 . S
H898 C905 0.950 . S
C899 C897 1.387 . S
C899 C901 1.390 . S
C899 H903 0.950 . S
H900 C896 0.950 . S
C901 C899 1.390 . S
C901 C902 1.387 . S
C901 H904 0.950 . S
C902 C901 1.387 . S
C902 C905 1.387 . S
H903 C899 0.950 . S
H904 C901 0.950 . S
C905 C896 1.390 . S
C905 H898 0.950 . S
C905 C902 1.387 . S
C906 C907 1.387 . S
C906 H910 0.950 . S
C906 C915 1.390 . S
C907 C906 1.387 . S
C907 C909 1.387 . S
H908 C915 0.950 . S
C909 C907 1.387 . S
C909 C911 1.390 . S
C909 H913 0.950 . S
H910 C906 0.950 . S
C911 C909 1.390 . S
C911 C912 1.387 . S
C911 H914 0.950 . S
C912 C911 1.387 . S
C912 C915 1.387 . S
H913 C909 0.950 . S
H914 C911 0.950 . S
C915 C906 1.390 . S
C915 H908 0.950 . S
C915 C912 1.387 . S
C916 C917 1.387 . S
C916 H920 0.950 . S
C916 C925 1.390 . S
C917 C916 1.387 . S
C917 C919 1.387 . S
H918 C925 0.950 . S
C919 C917 1.387 . S
C919 C921 1.390 . S
C919 H923 0.950 . S
H920 C916 0.950 . S
C921 C919 1.390 . S
C921 C922 1.387 . S
C921 H924 0.950 . S
C922 C921 1.387 . S
C922 C925 1.387 . S
H923 C919 0.950 . S
H924 C921 0.950 . S
C925 C916 1.390 . S
C925 H918 0.950 . S
C925 C922 1.387 . S
C926 C927 1.387 . S
C926 H930 0.950 . S
C926 C935 1.390 . S
C927 C926 1.387 . S
C927 C929 1.387 . S
H928 C935 0.950 . S
C929 C927 1.387 . S
C929 C931 1.390 . S
C929 H933 0.950 . S
H930 C926 0.950 . S
C931 C929 1.390 . S
C931 C932 1.387 . S
C931 H934 0.950 . S
C932 C931 1.387 . S
C932 C935 1.387 . S
H933 C929 0.950 . S
H934 C931 0.950 . S
C935 C926 1.390 . S
C935 H928 0.950 . S
C935 C932 1.387 . S
C936 C937 1.387 . S
C936 H940 0.950 . S
C936 C945 1.390 . S
C937 C936 1.387 . S
C937 C939 1.387 . S
H938 C945 0.950 . S
C939 C937 1.387 . S
C939 C941 1.390 . S
C939 H943 0.950 . S
H940 C936 0.950 . S
C941 C939 1.390 . S
C941 C942 1.387 . S
C941 H944 0.950 . S
C942 C941 1.387 . S
C942 C945 1.387 . S
H943 C939 0.950 . S
H944 C941 0.950 . S
C945 C936 1.390 . S
C945 H938 0.950 . S
C945 C942 1.387 . S
C946 C947 1.387 . S
C946 H950 0.950 . S
C946 C955 1.390 . S
C947 C946 1.387 . S
C947 C949 1.387 . S
H948 C955 0.950 . S
C949 C947 1.387 . S
C949 C951 1.390 . S
C949 H953 0.950 . S
H950 C946 0.950 . S
C951 C949 1.390 . S
C951 C952 1.387 . S
C951 H954 0.950 . S
C952 C951 1.387 . S
C952 C955 1.387 . S
H953 C949 0.950 . S
H954 C951 0.950 . S
C955 C946 1.390 . S
C955 H948 0.950 . S
C955 C952 1.387 . S
C956 C957 1.387 . S
C956 H960 0.950 . S
C956 C965 1.390 . S
C957 C956 1.387 . S
C957 C959 1.387 . S
H958 C965 0.950 . S
C959 C957 1.387 . S
C959 C961 1.390 . S
C959 H963 0.950 . S
H960 C956 0.950 . S
C961 C959 1.390 . S
C961 C962 1.387 . S
C961 H964 0.950 . S
C962 C961 1.387 . S
C962 C965 1.387 . S
H963 C959 0.950 . S
H964 C961 0.950 . S
C965 C956 1.390 . S
C965 H958 0.950 . S
C965 C962 1.387 . S
C966 C967 1.387 . S
C966 H970 0.950 . S
C966 C975 1.390 . S
C967 C966 1.387 . S
C967 C969 1.387 . S
H968 C975 0.950 . S
C969 C967 1.387 . S
C969 C971 1.390 . S
C969 H973 0.950 . S
H970 C966 0.950 . S
C971 C969 1.390 . S
C971 C972 1.387 . S
C971 H974 0.950 . S
C972 C971 1.387 . S
C972 C975 1.387 . S
H973 C969 0.950 . S
H974 C971 0.950 . S
C975 C966 1.390 . S
C975 H968 0.950 . S
C975 C972 1.387 . S
C976 C977 1.387 . S
C976 H980 0.950 . S
C976 C985 1.390 . S
C977 C976 1.387 . S
C977 C979 1.387 . S
H978 C985 0.950 . S
C979 C977 1.387 . S
C979 C981 1.390 . S
C979 H983 0.950 . S
H980 C976 0.950 . S
C981 C979 1.390 . S
C981 C982 1.387 . S
C981 H984 0.950 . S
C982 C981 1.387 . S
C982 C985 1.387 . S
H983 C979 0.950 . S
H984 C981 0.950 . S
C985 C976 1.390 . S
C985 H978 0.950 . S
C985 C982 1.387 . S
C986 C987 1.387 . S
C986 H990 0.950 . S
C986 C995 1.390 . S
C987 C986 1.387 . S
C987 C989 1.387 . S
H988 C995 0.950 . S
C989 C987 1.387 . S
C989 C991 1.390 . S
C989 H993 0.950 . S
H990 C986 0.950 . S
C991 C989 1.390 . S
C991 C992 1.387 . S
C991 H994 0.950 . S
C992 C991 1.387 . S
C992 C995 1.387 . S
H993 C989 0.950 . S
H994 C991 0.950 . S
C995 C986 1.390 . S
C995 H988 0.950 . S
C995 C992 1.387 . S
C996 C997 1.387 . S
C996 H1000 0.950 . S
C996 C1005 1.390 . S
C997 C996 1.387 . S
C997 C999 1.387 . S
H998 C1005 0.950 . S
C999 C997 1.387 . S
C999 C1001 1.390 . S
C999 H1003 0.950 . S
H1000 C996 0.950 . S
C1001 C999 1.390 . S
C1001 C1002 1.387 . S
C1001 H1004 0.950 . S
C1002 C1001 1.387 . S
C1002 C1005 1.387 . S
H1003 C999 0.950 . S
H1004 C1001 0.950 . S
C1005 C996 1.390 . S
C1005 H998 0.950 . S
C1005 C1002 1.387 . S
C1006 C1007 1.387 . S
C1006 H1010 0.950 . S
C1006 C1015 1.390 . S
C1007 C1006 1.387 . S
C1007 C1009 1.387 . S
H1008 C1015 0.950 . S
C1009 C1007 1.387 . S
C1009 C1011 1.390 . S
C1009 H1013 0.950 . S
H1010 C1006 0.950 . S
C1011 C1009 1.390 . S
C1011 C1012 1.387 . S
C1011 H1014 0.950 . S
C1012 C1011 1.387 . S
C1012 C1015 1.387 . S
H1013 C1009 0.950 . S
H1014 C1011 0.950 . S
C1015 C1006 1.390 . S
C1015 H1008 0.950 . S
C1015 C1012 1.387 . S
C1016 C1017 1.387 . S
C1016 H1020 0.950 . S
C1016 C1025 1.390 . S
C1017 C1016 1.387 . S
C1017 C1019 1.387 . S
H1018 C1025 0.950 . S
C1019 C1017 1.387 . S
C1019 C1021 1.390 . S
C1019 H1023 0.950 . S
H1020 C1016 0.950 . S
C1021 C1019 1.390 . S
C1021 C1022 1.387 . S
C1021 H1024 0.950 . S
C1022 C1021 1.387 . S
C1022 C1025 1.387 . S
H1023 C1019 0.950 . S
H1024 C1021 0.950 . S
C1025 C1016 1.390 . S
C1025 H1018 0.950 . S
C1025 C1022 1.387 . S
C1026 C1027 1.387 . S
C1026 H1030 0.950 . S
C1026 C1035 1.390 . S
C1027 C1026 1.387 . S
C1027 C1029 1.387 . S
H1028 C1035 0.950 . S
C1029 C1027 1.387 . S
C1029 C1031 1.390 . S
C1029 H1033 0.950 . S
H1030 C1026 0.950 . S
C1031 C1029 1.390 . S
C1031 C1032 1.387 . S
C1031 H1034 0.950 . S
C1032 C1031 1.387 . S
C1032 C1035 1.387 . S
H1033 C1029 0.950 . S
H1034 C1031 0.950 . S
C1035 C1026 1.390 . S
C1035 H1028 0.950 . S
C1035 C1032 1.387 . S
C1036 C1037 1.387 . S
C1036 H1040 0.950 . S
C1036 C1045 1.390 . S
C1037 C1036 1.387 . S
C1037 C1039 1.387 . S
H1038 C1045 0.950 . S
C1039 C1037 1.387 . S
C1039 C1041 1.390 . S
C1039 H1043 0.950 . S
H1040 C1036 0.950 . S
C1041 C1039 1.390 . S
C1041 C1042 1.387 . S
C1041 H1044 0.950 . S
C1042 C1041 1.387 . S
C1042 C1045 1.387 . S
H1043 C1039 0.950 . S
H1044 C1041 0.950 . S
C1045 C1036 1.390 . S
C1045 H1038 0.950 . S
C1045 C1042 1.387 . S
C1046 C1047 1.387 1_565 S
C1046 H1050 0.950 . S
C1046 C1055 1.390 . S
C1047 C1046 1.387 1_545 S
C1047 C1049 1.387 . S
H1048 C1055 0.950 . S
C1049 C1047 1.387 . S
C1049 C1051 1.390 . S
C1049 H1053 0.950 . S
H1050 C1046 0.950 . S
C1051 C1049 1.390 . S
C1051 C1052 1.387 . S
C1051 H1054 0.950 . S
C1052 C1051 1.387 . S
C1052 C1055 1.387 1_545 S
H1053 C1049 0.950 . S
H1054 C1051 0.950 . S
C1055 C1046 1.390 . S
C1055 H1048 0.950 . S
C1055 C1052 1.387 1_565 S
C1056 C1057 1.387 1_565 S
C1056 H1060 0.950 . S
C1056 C1065 1.390 . S
C1057 C1056 1.387 1_545 S
C1057 C1059 1.387 . S
H1058 C1065 0.950 . S
C1059 C1057 1.387 . S
C1059 C1061 1.390 . S
C1059 H1063 0.950 . S
H1060 C1056 0.950 . S
C1061 C1059 1.390 . S
C1061 C1062 1.387 . S
C1061 H1064 0.950 . S
C1062 C1061 1.387 . S
C1062 C1065 1.387 1_545 S
H1063 C1059 0.950 . S
H1064 C1061 0.950 . S
C1065 C1056 1.390 . S
C1065 H1058 0.950 . S
C1065 C1062 1.387 1_565 S
C1066 C1067 1.387 . S
C1066 H1070 0.950 . S
C1066 C1075 1.390 . S
C1067 C1066 1.387 . S
C1067 C1069 1.387 . S
H1068 C1075 0.950 . S
C1069 C1067 1.387 . S
C1069 C1071 1.390 . S
C1069 H1073 0.950 . S
H1070 C1066 0.950 . S
C1071 C1069 1.390 . S
C1071 C1072 1.387 . S
C1071 H1074 0.950 . S
C1072 C1071 1.387 . S
C1072 C1075 1.387 . S
H1073 C1069 0.950 . S
H1074 C1071 0.950 . S
C1075 C1066 1.390 . S
C1075 H1068 0.950 . S
C1075 C1072 1.387 . S
C1076 C1077 1.387 . S
C1076 H1080 0.950 . S
C1076 C1085 1.390 . S
C1077 C1076 1.387 . S
C1077 C1079 1.387 . S
H1078 C1085 0.950 . S
C1079 C1077 1.387 . S
C1079 C1081 1.390 . S
C1079 H1083 0.950 . S
H1080 C1076 0.950 . S
C1081 C1079 1.390 . S
C1081 C1082 1.387 . S
C1081 H1084 0.950 . S
C1082 C1081 1.387 . S
C1082 C1085 1.387 . S
H1083 C1079 0.950 . S
H1084 C1081 0.950 . S
C1085 C1076 1.390 . S
C1085 H1078 0.950 . S
C1085 C1082 1.387 . S
C1086 C1087 1.387 . S
C1086 H1090 0.950 . S
C1086 C1095 1.390 . S
C1087 C1086 1.387 . S
C1087 C1089 1.387 . S
H1088 C1095 0.950 . S
C1089 C1087 1.387 . S
C1089 C1091 1.390 . S
C1089 H1093 0.950 . S
H1090 C1086 0.950 . S
C1091 C1089 1.390 . S
C1091 C1092 1.387 . S
C1091 H1094 0.950 . S
C1092 C1091 1.387 . S
C1092 C1095 1.387 . S
H1093 C1089 0.950 . S
H1094 C1091 0.950 . S
C1095 C1086 1.390 . S
C1095 H1088 0.950 . S
C1095 C1092 1.387 . S
C1096 C1097 1.387 . S
C1096 H1100 0.950 . S
C1096 C1105 1.390 . S
C1097 C1096 1.387 . S
C1097 C1099 1.387 . S
H1098 C1105 0.950 . S
C1099 C1097 1.387 . S
C1099 C1101 1.390 . S
C1099 H1103 0.950 . S
H1100 C1096 0.950 . S
C1101 C1099 1.390 . S
C1101 C1102 1.387 . S
C1101 H1104 0.950 . S
C1102 C1101 1.387 . S
C1102 C1105 1.387 . S
H1103 C1099 0.950 . S
H1104 C1101 0.950 . S
C1105 C1096 1.390 . S
C1105 H1098 0.950 . S
C1105 C1102 1.387 . S
C1106 C1107 1.387 . S
C1106 H1110 0.950 . S
C1106 C1115 1.390 . S
C1107 C1106 1.387 . S
C1107 C1109 1.387 . S
H1108 C1115 0.950 . S
C1109 C1107 1.387 . S
C1109 C1111 1.390 . S
C1109 H1113 0.950 . S
H1110 C1106 0.950 . S
C1111 C1109 1.390 . S
C1111 C1112 1.387 . S
C1111 H1114 0.950 . S
C1112 C1111 1.387 . S
C1112 C1115 1.387 . S
H1113 C1109 0.950 . S
H1114 C1111 0.950 . S
C1115 C1106 1.390 . S
C1115 H1108 0.950 . S
C1115 C1112 1.387 . S
C1116 C1117 1.387 . S
C1116 H1120 0.928 1_545 S
C1116 C1125 1.390 . S
C1117 C1116 1.387 . S
C1117 C1119 1.387 . S
H1118 C1125 0.950 . S
C1119 C1117 1.387 . S
C1119 C1121 1.390 . S
C1119 H1123 0.950 . S
H1120 C1116 0.928 1_565 S
C1121 C1119 1.390 . S
C1121 C1122 1.387 . S
C1121 H1124 0.950 . S
C1122 C1121 1.387 . S
C1122 C1125 1.387 . S
H1123 C1119 0.950 . S
H1124 C1121 0.950 . S
C1125 C1116 1.390 . S
C1125 H1118 0.950 . S
C1125 C1122 1.387 . S
C1126 C1127 1.387 . S
C1126 H1130 0.950 . S
C1126 C1135 1.390 . S
C1127 C1126 1.387 . S
C1127 C1129 1.387 . S
H1128 C1135 0.950 . S
C1129 C1127 1.387 . S
C1129 C1131 1.390 . S
C1129 H1133 0.950 . S
H1130 C1126 0.950 . S
C1131 C1129 1.390 . S
C1131 C1132 1.387 . S
C1131 H1134 0.950 . S
C1132 C1131 1.387 . S
C1132 C1135 1.387 . S
H1133 C1129 0.950 . S
H1134 C1131 0.950 . S
C1135 C1126 1.390 . S
C1135 H1128 0.950 . S
C1135 C1132 1.387 . S
C1136 C1137 1.387 . S
C1136 H1140 0.950 . S
C1136 C1145 1.390 . S
C1137 C1136 1.387 . S
C1137 C1139 1.387 . S
H1138 C1145 0.950 . S
C1139 C1137 1.387 . S
C1139 C1141 1.390 . S
C1139 H1143 0.950 . S
H1140 C1136 0.950 . S
C1141 C1139 1.390 . S
C1141 C1142 1.387 . S
C1141 H1144 0.950 . S
C1142 C1141 1.387 . S
C1142 C1145 1.387 . S
H1143 C1139 0.950 . S
H1144 C1141 0.950 . S
C1145 C1136 1.390 . S
C1145 H1138 0.950 . S
C1145 C1142 1.387 . S
C1146 C1147 1.387 . S
C1146 H1150 0.950 . S
C1146 C1155 1.390 . S
C1147 C1146 1.387 . S
C1147 C1149 1.387 . S
H1148 C1155 0.950 . S
C1149 C1147 1.387 . S
C1149 C1151 1.390 . S
C1149 H1153 0.950 . S
H1150 C1146 0.950 . S
C1151 C1149 1.390 . S
C1151 C1152 1.387 . S
C1151 H1154 0.950 . S
C1152 C1151 1.387 . S
C1152 C1155 1.387 . S
H1153 C1149 0.950 . S
H1154 C1151 0.950 . S
C1155 C1146 1.390 . S
C1155 H1148 0.950 . S
C1155 C1152 1.387 . S
C1156 C1157 1.387 . S
C1156 H1160 0.950 . S
C1156 C1165 1.390 . S
C1157 C1156 1.387 . S
C1157 C1159 1.387 . S
H1158 C1165 0.950 . S
C1159 C1157 1.387 . S
C1159 C1161 1.390 . S
C1159 H1163 0.950 . S
H1160 C1156 0.950 . S
C1161 C1159 1.390 . S
C1161 C1162 1.387 . S
C1161 H1164 0.950 . S
C1162 C1161 1.387 . S
C1162 C1165 1.387 . S
H1163 C1159 0.950 . S
H1164 C1161 0.950 . S
C1165 C1156 1.390 . S
C1165 H1158 0.950 . S
C1165 C1162 1.387 . S
C1166 C1167 1.387 . S
C1166 H1170 0.950 . S
C1166 C1175 1.390 . S
C1167 C1166 1.387 . S
C1167 C1169 1.387 . S
H1168 C1175 0.950 . S
C1169 C1167 1.387 . S
C1169 C1171 1.390 . S
C1169 H1173 0.950 . S
H1170 C1166 0.950 . S
C1171 C1169 1.390 . S
C1171 C1172 1.387 . S
C1171 H1174 0.950 . S
C1172 C1171 1.387 . S
C1172 C1175 1.387 . S
H1173 C1169 0.950 . S
H1174 C1171 0.950 . S
C1175 C1166 1.390 . S
C1175 H1168 0.950 . S
C1175 C1172 1.387 . S
C1176 C1177 1.387 . S
C1176 H1180 0.950 . S
C1176 C1185 1.390 1_556 S
C1177 C1176 1.387 . S
C1177 C1179 1.387 . S
H1178 C1185 0.950 . S
C1179 C1177 1.387 . S
C1179 C1181 1.390 1_556 S
C1179 H1183 0.950 . S
H1180 C1176 0.950 . S
C1181 C1179 1.390 1_554 S
C1181 C1182 1.387 . S
C1181 H1184 0.950 . S
C1182 C1181 1.387 . S
C1182 C1185 1.387 . S
H1183 C1179 0.950 . S
H1184 C1181 0.950 . S
C1185 C1176 1.390 1_554 S
C1185 H1178 0.950 . S
C1185 C1182 1.387 . S
C1186 C1187 1.387 . S
C1186 H1190 0.950 . S
C1186 C1195 1.390 . S
C1187 C1186 1.387 . S
C1187 C1189 1.387 . S
H1188 C1195 0.950 . S
C1189 C1187 1.387 . S
C1189 C1191 1.390 . S
C1189 H1193 0.950 . S
H1190 C1186 0.950 . S
C1191 C1189 1.390 . S
C1191 C1192 1.387 . S
C1191 H1194 0.950 1_556 S
C1192 C1191 1.387 . S
C1192 C1195 1.387 . S
H1193 C1189 0.950 . S
H1194 C1191 0.950 1_554 S
C1195 C1186 1.390 . S
C1195 H1188 0.950 . S
C1195 C1192 1.387 . S
C1196 C1197 1.387 . S
C1196 H1200 0.950 . S
C1196 C1205 1.390 1_556 S
C1197 C1196 1.387 . S
C1197 C1199 1.387 1_556 S
H1198 C1205 0.950 . S
C1199 C1197 1.387 1_554 S
C1199 C1201 1.390 . S
C1199 H1203 0.950 . S
H1200 C1196 0.950 . S
C1201 C1199 1.390 . S
C1201 C1202 1.387 . S
C1201 H1204 0.950 . S
C1202 C1201 1.387 . S
C1202 C1205 1.387 . S
H1203 C1199 0.950 . S
H1204 C1201 0.950 . S
C1205 C1196 1.390 1_554 S
C1205 H1198 0.950 . S
C1205 C1202 1.387 . S
C1206 C1207 1.387 . S
C1206 H1210 0.950 . S
C1206 C1215 1.390 . S
C1207 C1206 1.387 . S
C1207 C1209 1.387 . S
H1208 C1215 0.950 . S
C1209 C1207 1.387 . S
C1209 C1211 1.390 . S
C1209 H1213 0.950 . S
H1210 C1206 0.950 . S
C1211 C1209 1.390 . S
C1211 C1212 1.387 . S
C1211 H1214 0.950 . S
C1212 C1211 1.387 . S
C1212 C1215 1.387 . S
H1213 C1209 0.950 . S
H1214 C1211 0.950 . S
C1215 C1206 1.390 . S
C1215 H1208 0.950 . S
C1215 C1212 1.387 . S
C1216 C1217 1.387 . S
C1216 H1220 0.950 . S
C1216 C1225 1.390 . S
C1217 C1216 1.387 . S
C1217 C1219 1.387 . S
H1218 C1225 0.950 . S
C1219 C1217 1.387 . S
C1219 C1221 1.390 . S
C1219 H1223 0.950 . S
H1220 C1216 0.950 . S
C1221 C1219 1.390 . S
C1221 C1222 1.387 . S
C1221 H1224 0.950 . S
C1222 C1221 1.387 . S
C1222 C1225 1.387 . S
H1223 C1219 0.950 . S
H1224 C1221 0.950 . S
C1225 C1216 1.390 . S
C1225 H1218 0.950 . S
C1225 C1222 1.387 . S
C1226 C1227 1.387 . S
C1226 H1230 0.950 . S
C1226 C1235 1.390 . S
C1227 C1226 1.387 . S
C1227 C1229 1.387 . S
H1228 C1235 0.950 . S
C1229 C1227 1.387 . S
C1229 C1231 1.390 . S
C1229 H1233 0.950 . S
H1230 C1226 0.950 . S
C1231 C1229 1.390 . S
C1231 C1232 1.387 . S
C1231 H1234 0.950 . S
C1232 C1231 1.387 . S
C1232 C1235 1.387 . S
H1233 C1229 0.950 . S
H1234 C1231 0.950 . S
C1235 C1226 1.390 . S
C1235 H1228 0.950 . S
C1235 C1232 1.387 . S
C1236 C1237 1.387 . S
C1236 H1240 0.950 . S
C1236 C1245 1.390 . S
C1237 C1236 1.387 . S
C1237 C1239 1.387 . S
H1238 C1245 0.950 . S
C1239 C1237 1.387 . S
C1239 C1241 1.390 . S
C1239 H1243 0.950 . S
H1240 C1236 0.950 . S
C1241 C1239 1.390 . S
C1241 C1242 1.387 . S
C1241 H1244 0.950 . S
C1242 C1241 1.387 . S
C1242 C1245 1.387 . S
H1243 C1239 0.950 . S
H1244 C1241 0.950 . S
C1245 C1236 1.390 . S
C1245 H1238 0.950 . S
C1245 C1242 1.387 . S
C1246 C1247 1.387 . S
C1246 H1250 0.950 . S
C1246 C1255 1.390 . S
C1247 C1246 1.387 . S
C1247 C1249 1.387 . S
H1248 C1255 0.950 . S
C1249 C1247 1.387 . S
C1249 C1251 1.390 . S
C1249 H1253 0.950 . S
H1250 C1246 0.950 . S
C1251 C1249 1.390 . S
C1251 C1252 1.387 . S
C1251 H1254 0.950 . S
C1252 C1251 1.387 . S
C1252 C1255 1.387 . S
H1253 C1249 0.950 . S
H1254 C1251 0.950 . S
C1255 C1246 1.390 . S
C1255 H1248 0.950 . S
C1255 C1252 1.387 . S
C1256 C1257 1.387 . S
C1256 H1260 0.950 . S
C1256 C1265 1.390 . S
C1257 C1256 1.387 . S
C1257 C1259 1.387 . S
H1258 C1265 0.950 . S
C1259 C1257 1.387 . S
C1259 C1261 1.390 . S
C1259 H1263 0.950 . S
H1260 C1256 0.950 . S
C1261 C1259 1.390 . S
C1261 C1262 1.387 . S
C1261 H1264 0.950 . S
C1262 C1261 1.387 . S
C1262 C1265 1.387 . S
H1263 C1259 0.950 . S
H1264 C1261 0.950 . S
C1265 C1256 1.390 . S
C1265 H1258 0.950 . S
C1265 C1262 1.387 . S
C1266 C1267 1.387 . S
C1266 H1270 0.950 . S
C1266 C1275 1.390 . S
C1267 C1266 1.387 . S
C1267 C1269 1.387 . S
H1268 C1275 0.950 . S
C1269 C1267 1.387 . S
C1269 C1271 1.390 . S
C1269 H1273 0.950 . S
H1270 C1266 0.950 . S
C1271 C1269 1.390 . S
C1271 C1272 1.387 . S
C1271 H1274 0.950 . S
C1272 C1271 1.387 . S
C1272 C1275 1.387 . S
H1273 C1269 0.950 . S
H1274 C1271 0.950 . S
C1275 C1266 1.390 . S
C1275 H1268 0.950 . S
C1275 C1272 1.387 . S
C1276 C1277 1.387 . S
C1276 H1280 0.950 . S
C1276 C1285 1.390 . S
C1277 C1276 1.387 . S
C1277 C1279 1.387 . S
H1278 C1285 0.950 . S
C1279 C1277 1.387 . S
C1279 C1281 1.390 . S
C1279 H1283 0.950 . S
H1280 C1276 0.950 . S
C1281 C1279 1.390 . S
C1281 C1282 1.387 . S
C1281 H1284 0.950 . S
C1282 C1281 1.387 . S
C1282 C1285 1.387 . S
H1283 C1279 0.950 . S
H1284 C1281 0.950 . S
C1285 C1276 1.390 . S
C1285 H1278 0.950 . S
C1285 C1282 1.387 . S
C1286 C1287 1.387 . S
C1286 H1290 0.950 . S
C1286 C1295 1.390 . S
C1287 C1286 1.387 . S
C1287 C1289 1.387 . S
H1288 C1295 0.950 . S
C1289 C1287 1.387 . S
C1289 C1291 1.390 . S
C1289 H1293 0.950 . S
H1290 C1286 0.950 . S
C1291 C1289 1.390 . S
C1291 C1292 1.387 . S
C1291 H1294 0.950 . S
C1292 C1291 1.387 . S
C1292 C1295 1.387 . S
H1293 C1289 0.950 . S
H1294 C1291 0.950 . S
C1295 C1286 1.390 . S
C1295 H1288 0.950 . S
C1295 C1292 1.387 . S
C1296 C1297 1.387 . S
C1296 H1300 0.950 . S
C1296 C1305 1.390 . S
C1297 C1296 1.387 . S
C1297 C1299 1.387 . S
H1298 C1305 0.950 . S
C1299 C1297 1.387 . S
C1299 C1301 1.390 . S
C1299 H1303 0.950 . S
H1300 C1296 0.950 . S
C1301 C1299 1.390 . S
C1301 C1302 1.387 . S
C1301 H1304 0.950 . S
C1302 C1301 1.387 . S
C1302 C1305 1.387 . S
H1303 C1299 0.950 . S
H1304 C1301 0.950 . S
C1305 C1296 1.390 . S
C1305 H1298 0.950 . S
C1305 C1302 1.387 . S
C1306 C1307 1.387 . S
C1306 H1310 0.950 . S
C1306 C1315 1.390 . S
C1307 C1306 1.387 . S
C1307 C1309 1.387 . S
H1308 C1315 0.950 . S
C1309 C1307 1.387 . S
C1309 C1311 1.390 . S
C1309 H1313 0.950 . S
H1310 C1306 0.950 . S
C1311 C1309 1.390 . S
C1311 C1312 1.387 . S
C1311 H1314 0.950 . S
C1312 C1311 1.387 . S
C1312 C1315 1.387 . S
H1313 C1309 0.950 . S
H1314 C1311 0.950 . S
C1315 C1306 1.390 . S
C1315 H1308 0.950 . S
C1315 C1312 1.387 . S
C1316 C1317 1.387 . S
C1316 H1320 0.950 . S
C1316 C1325 1.390 . S
C1317 C1316 1.387 . S
C1317 C1319 1.387 . S
H1318 C1325 0.950 . S
C1319 C1317 1.387 . S
C1319 C1321 1.390 . S
C1319 H1323 0.950 . S
H1320 C1316 0.950 . S
C1321 C1319 1.390 . S
C1321 C1322 1.387 . S
C1321 H1324 0.950 . S
C1322 C1321 1.387 . S
C1322 C1325 1.387 . S
H1323 C1319 0.950 . S
H1324 C1321 0.950 . S
C1325 C1316 1.390 . S
C1325 H1318 0.950 . S
C1325 C1322 1.387 . S
C1326 C1327 1.387 . S
C1326 H1330 0.950 . S
C1326 C1335 1.390 . S
C1327 C1326 1.387 . S
C1327 C1329 1.387 . S
H1328 C1335 0.950 . S
C1329 C1327 1.387 . S
C1329 C1331 1.390 . S
C1329 H1333 0.950 . S
H1330 C1326 0.950 . S
C1331 C1329 1.390 . S
C1331 C1332 1.387 . S
C1331 H1334 0.950 . S
C1332 C1331 1.387 . S
C1332 C1335 1.387 . S
H1333 C1329 0.950 . S
H1334 C1331 0.950 . S
C1335 C1326 1.390 . S
C1335 H1328 0.950 . S
C1335 C1332 1.387 . S
C1336 C1337 1.387 . S
C1336 H1340 0.950 . S
C1336 C1345 1.390 . S
C1337 C1336 1.387 . S
C1337 C1339 1.387 . S
H1338 C1345 0.950 . S
C1339 C1337 1.387 . S
C1339 C1341 1.390 . S
C1339 H1343 0.950 . S
H1340 C1336 0.950 . S
C1341 C1339 1.390 . S
C1341 C1342 1.387 . S
C1341 H1344 0.950 . S
C1342 C1341 1.387 . S
C1342 C1345 1.387 . S
H1343 C1339 0.950 . S
H1344 C1341 0.950 . S
C1345 C1336 1.390 . S
C1345 H1338 0.950 . S
C1345 C1342 1.387 . S
C1346 C1347 1.387 . S
C1346 H1350 0.950 . S
C1346 C1355 1.390 . S
C1347 C1346 1.387 . S
C1347 C1349 1.387 . S
H1348 C1355 0.950 . S
C1349 C1347 1.387 . S
C1349 C1351 1.390 . S
C1349 H1353 0.950 . S
H1350 C1346 0.950 . S
C1351 C1349 1.390 . S
C1351 C1352 1.387 . S
C1351 H1354 0.950 . S
C1352 C1351 1.387 . S
C1352 C1355 1.387 . S
H1353 C1349 0.950 . S
H1354 C1351 0.950 . S
C1355 C1346 1.390 . S
C1355 H1348 0.950 . S
C1355 C1352 1.387 . S
C1356 C1357 1.387 . S
C1356 H1360 0.950 . S
C1356 C1365 1.390 1_554 S
C1357 C1356 1.387 . S
C1357 C1359 1.387 . S
H1358 C1365 0.950 . S
C1359 C1357 1.387 . S
C1359 C1361 1.390 . S
C1359 H1363 0.950 . S
H1360 C1356 0.950 . S
C1361 C1359 1.390 . S
C1361 C1362 1.359 1_554 S
C1361 H1364 0.950 . S
C1362 C1361 1.359 1_556 S
C1362 C1365 1.394 . S
H1363 C1359 0.950 . S
H1364 C1361 0.950 . S
C1365 C1356 1.390 1_556 S
C1365 H1358 0.950 . S
C1365 C1362 1.394 . S
C1366 C1367 1.387 . S
C1366 H1370 0.950 . S
C1366 C1375 1.390 . S
C1367 C1366 1.387 . S
C1367 C1369 1.387 . S
H1368 C1375 0.950 . S
C1369 C1367 1.387 . S
C1369 C1371 1.390 . S
C1369 H1373 0.950 . S
H1370 C1366 0.950 . S
C1371 C1369 1.390 . S
C1371 C1372 1.387 . S
C1371 H1374 0.950 . S
C1372 C1371 1.387 . S
C1372 C1375 1.387 . S
H1373 C1369 0.950 . S
H1374 C1371 0.950 . S
C1375 C1366 1.390 . S
C1375 H1368 0.950 . S
C1375 C1372 1.387 . S
C1376 C1377 1.387 . S
C1376 H1380 0.950 . S
C1376 C1385 1.390 . S
C1377 C1376 1.387 . S
C1377 C1379 1.387 . S
H1378 C1385 0.950 1_556 S
C1379 C1377 1.387 . S
C1379 C1381 1.390 . S
C1379 H1383 0.950 . S
H1380 C1376 0.950 . S
C1381 C1379 1.390 . S
C1381 C1382 1.387 . S
C1381 H1384 0.950 . S
C1382 C1381 1.387 . S
C1382 C1385 1.387 . S
H1383 C1379 0.950 . S
H1384 C1381 0.950 . S
C1385 C1376 1.390 . S
C1385 H1378 0.950 1_554 S
C1385 C1382 1.387 . S
C667 C7 1.498 . S
C672 C571 1.499 . S
C682 C543 1.782 . S
C677 C39 1.763 . S
C692 C563 1.569 . S
C687 C62 1.563 . S
C697 C76 1.830 . S
C702 C633 1.820 . S
C707 C108 1.515 . S
C712 C641 1.513 1_455 S
C717 N117 1.427 . S
C722 C661 1.401 . S
C732 C617 1.466 1_455 S
C727 C16 1.479 . S
C737 C30 1.823 . S
C742 C589 1.778 . S
C752 C605 1.503 . S
C747 C53 1.513 . S
C757 C85 1.801 . S
C762 C507 1.802 . S
C772 C519 1.664 . S
C767 C99 1.693 . S
C777 N127 1.346 . S
C782 C535 1.419 . S
C787 N150 1.211 . S
C792 C655 1.232 . S
C802 C627 1.548 . S
C797 N173 1.532 . S
C812 C647 1.419 . S
C807 C200 1.399 . S
C817 C214 1.642 . S
C822 C465 1.644 . S
C827 N232 1.577 . S
C832 C473 1.586 . S
C837 C260 1.534 . S
C842 C493 1.526 . S
C852 C449 1.302 . S
C847 N140 1.299 . S
C857 N163 1.289 . S
C862 C421 1.297 . S
C872 C437 1.609 . S
C867 C191 1.609 . S
C882 C591 1.908 . S
C877 C223 1.910 . S
C892 C603 1.555 . S
C887 N242 1.484 . S
C902 C619 1.584 . S
C897 C269 1.586 . S
C907 N288 1.377 . S
C912 C487 1.392 . S
C917 C315 1.507 . S
C922 C459 1.543 . S
C927 C338 1.649 . S
C932 C479 1.655 . S
C937 C352 1.837 . S
C942 C549 1.838 . S
C952 C557 1.631 . S
C947 N370 1.628 . S
C962 C577 1.607 . S
C957 C398 1.604 . S
C972 C533 1.273 . S
C967 N278 1.217 . S
C977 C306 1.720 . S
C982 C505 1.678 . S
C987 C329 1.618 . S
C992 C521 1.611 1_655 S
C1002 C423 1.554 . S
C997 C361 1.557 . S
C1007 N380 1.515 . S
C1012 C435 1.571 . S
C1022 C451 1.537 . S
C1017 C407 1.539 . S
C1032 C463 1.420 . S
C1027 N12 1.383 . S
C1037 N25 1.554 . S
C1042 C478 1.565 . S
C1052 C491 1.345 . S
C1047 N48 1.352 1_545 S
C1062 C492 1.375 . S
C1057 N81 1.361 . S
C1072 C464 1.538 . S
C1067 N94 1.483 . S
C1082 C477 1.572 . S
C1077 C131 1.591 . S
C1092 C417 1.442 . S
C1087 N2 1.437 . S
C1097 N35 1.462 . S
C1102 C436 1.514 . S
C1107 N58 1.350 . S
C1112 C445 1.404 . S
C1122 C450 1.338 . S
C1117 N71 1.293 . S
C1132 C422 1.386 . S
C1127 N104 1.354 . S
C1142 C431 1.618 . S
C1137 C122 1.616 . S
C1147 C145 2.015 . S
C1152 C547 1.989 . S
C1157 C168 1.710 . S
C1162 C562 1.721 . S
C1167 N186 1.458 . S
C1172 C575 1.456 . S
C1182 C576 1.402 . S
C1177 N219 1.394 . S
C1192 C548 1.764 1_556 S
C1187 C246 1.752 . S
C1202 C561 1.457 . S
C1197 N265 1.481 . S
C1212 C501 1.941 . S
C1207 C154 1.940 . S
C1217 C177 1.833 . S
C1222 C520 1.813 . S
C1227 N196 1.300 . S
C1232 C529 1.345 . S
C1237 N209 1.195 . S
C1242 C534 1.271 . S
C1247 C237 1.798 . S
C1252 C506 1.794 . S
C1262 C515 1.453 . S
C1257 N255 1.399 . S
C1267 C283 1.784 . S
C1272 C631 1.735 . S
C1277 N301 1.440 . S
C1282 C646 1.450 . S
C1287 N324 1.370 . S
C1292 C659 1.362 . S
C1302 C660 1.215 . S
C1297 N357 1.191 . S
C1312 C632 1.736 . S
C1307 C384 1.737 . S
C1317 N403 1.359 . S
C1322 C645 1.343 . S
C1327 C292 1.878 . S
C1332 C585 1.878 . S
C1342 C604 1.371 . S
C1337 N311 1.331 . S
C1347 N334 1.421 . S
C1352 C613 1.488 . S
C1357 N347 1.352 . S
C1362 C618 1.404 . S
C1372 C590 1.841 . S
C1367 C375 1.848 . S
C1377 N393 1.363 . S
C1382 C599 1.414 1_554 S
