# Generated by pormake.
# Topology myd, (4,6)-cn, num edge types: 1
# Building blocks:
#     Node 0, Type 0, BuildingBlock: KOZSID_clean_sbu_0, # of connection points: 4
#     Node 1, Type 0, BuildingBlock: KOZSID_clean_sbu_0, # of connection points: 4
#     Node 2, Type 0, BuildingBlock: KOZSID_clean_sbu_0, # of connection points: 4
#     Node 3, Type 0, BuildingBlock: KOZSID_clean_sbu_0, # of connection points: 4
#     Node 4, Type 0, BuildingBlock: KOZSID_clean_sbu_0, # of connection points: 4
#     Node 5, Type 0, BuildingBlock: KOZSID_clean_sbu_0, # of connection points: 4
#     Node 6, Type 0, BuildingBlock: KOZSID_clean_sbu_0, # of connection points: 4
#     Node 7, Type 0, BuildingBlock: KOZSID_clean_sbu_0, # of connection points: 4
#     Node 8, Type 0, BuildingBlock: KOZSID_clean_sbu_0, # of connection points: 4
#     Node 9, Type 0, BuildingBlock: KOZSID_clean_sbu_0, # of connection points: 4
#     Node 10, Type 0, BuildingBlock: KOZSID_clean_sbu_0, # of connection points: 4
#     Node 11, Type 0, BuildingBlock: KOZSID_clean_sbu_0, # of connection points: 4
#     Node 12, Type 1, BuildingBlock: CUWYAW_clean_sbu_0, # of connection points: 6
#     Node 13, Type 1, BuildingBlock: CUWYAW_clean_sbu_0, # of connection points: 6
#     Node 14, Type 1, BuildingBlock: CUWYAW_clean_sbu_0, # of connection points: 6
#     Node 15, Type 1, BuildingBlock: CUWYAW_clean_sbu_0, # of connection points: 6
#     Node 16, Type 1, BuildingBlock: CUWYAW_clean_sbu_0, # of connection points: 6
#     Node 17, Type 1, BuildingBlock: CUWYAW_clean_sbu_0, # of connection points: 6
#     Node 18, Type 1, BuildingBlock: CUWYAW_clean_sbu_0, # of connection points: 6
#     Node 19, Type 1, BuildingBlock: CUWYAW_clean_sbu_0, # of connection points: 6
#     Edge 20, Type (0, 1), BuildingBlock: UVAHIK_clean_linker_0, # of connection points: 2
#     Edge 21, Type (0, 1), BuildingBlock: UVAHIK_clean_linker_0, # of connection points: 2
#     Edge 22, Type (0, 1), BuildingBlock: UVAHIK_clean_linker_0, # of connection points: 2
#     Edge 23, Type (0, 1), BuildingBlock: UVAHIK_clean_linker_0, # of connection points: 2
#     Edge 24, Type (0, 1), BuildingBlock: UVAHIK_clean_linker_0, # of connection points: 2
#     Edge 25, Type (0, 1), BuildingBlock: UVAHIK_clean_linker_0, # of connection points: 2
#     Edge 26, Type (0, 1), BuildingBlock: UVAHIK_clean_linker_0, # of connection points: 2
#     Edge 27, Type (0, 1), BuildingBlock: UVAHIK_clean_linker_0, # of connection points: 2
#     Edge 28, Type (0, 1), BuildingBlock: UVAHIK_clean_linker_0, # of connection points: 2
#     Edge 29, Type (0, 1), BuildingBlock: UVAHIK_clean_linker_0, # of connection points: 2
#     Edge 30, Type (0, 1), BuildingBlock: UVAHIK_clean_linker_0, # of connection points: 2
#     Edge 31, Type (0, 1), BuildingBlock: UVAHIK_clean_linker_0, # of connection points: 2
#     Edge 32, Type (0, 1), BuildingBlock: UVAHIK_clean_linker_0, # of connection points: 2
#     Edge 33, Type (0, 1), BuildingBlock: UVAHIK_clean_linker_0, # of connection points: 2
#     Edge 34, Type (0, 1), BuildingBlock: UVAHIK_clean_linker_0, # of connection points: 2
#     Edge 35, Type (0, 1), BuildingBlock: UVAHIK_clean_linker_0, # of connection points: 2
#     Edge 36, Type (0, 1), BuildingBlock: UVAHIK_clean_linker_0, # of connection points: 2
#     Edge 37, Type (0, 1), BuildingBlock: UVAHIK_clean_linker_0, # of connection points: 2
#     Edge 38, Type (0, 1), BuildingBlock: UVAHIK_clean_linker_0, # of connection points: 2
#     Edge 39, Type (0, 1), BuildingBlock: UVAHIK_clean_linker_0, # of connection points: 2
#     Edge 40, Type (0, 1), BuildingBlock: UVAHIK_clean_linker_0, # of connection points: 2
#     Edge 41, Type (0, 1), BuildingBlock: UVAHIK_clean_linker_0, # of connection points: 2
#     Edge 42, Type (0, 1), BuildingBlock: UVAHIK_clean_linker_0, # of connection points: 2
#     Edge 43, Type (0, 1), BuildingBlock: UVAHIK_clean_linker_0, # of connection points: 2
#     Edge 44, Type (0, 1), BuildingBlock: UVAHIK_clean_linker_0, # of connection points: 2
#     Edge 45, Type (0, 1), BuildingBlock: UVAHIK_clean_linker_0, # of connection points: 2
#     Edge 46, Type (0, 1), BuildingBlock: UVAHIK_clean_linker_0, # of connection points: 2
#     Edge 47, Type (0, 1), BuildingBlock: UVAHIK_clean_linker_0, # of connection points: 2
#     Edge 48, Type (0, 1), BuildingBlock: UVAHIK_clean_linker_0, # of connection points: 2
#     Edge 49, Type (0, 1), BuildingBlock: UVAHIK_clean_linker_0, # of connection points: 2
#     Edge 50, Type (0, 1), BuildingBlock: UVAHIK_clean_linker_0, # of connection points: 2
#     Edge 51, Type (0, 1), BuildingBlock: UVAHIK_clean_linker_0, # of connection points: 2
#     Edge 52, Type (0, 1), BuildingBlock: UVAHIK_clean_linker_0, # of connection points: 2
#     Edge 53, Type (0, 1), BuildingBlock: UVAHIK_clean_linker_0, # of connection points: 2
#     Edge 54, Type (0, 1), BuildingBlock: UVAHIK_clean_linker_0, # of connection points: 2
#     Edge 55, Type (0, 1), BuildingBlock: UVAHIK_clean_linker_0, # of connection points: 2
#     Edge 56, Type (0, 1), BuildingBlock: UVAHIK_clean_linker_0, # of connection points: 2
#     Edge 57, Type (0, 1), BuildingBlock: UVAHIK_clean_linker_0, # of connection points: 2
#     Edge 58, Type (0, 1), BuildingBlock: UVAHIK_clean_linker_0, # of connection points: 2
#     Edge 59, Type (0, 1), BuildingBlock: UVAHIK_clean_linker_0, # of connection points: 2
#     Edge 60, Type (0, 1), BuildingBlock: UVAHIK_clean_linker_0, # of connection points: 2
#     Edge 61, Type (0, 1), BuildingBlock: UVAHIK_clean_linker_0, # of connection points: 2
#     Edge 62, Type (0, 1), BuildingBlock: UVAHIK_clean_linker_0, # of connection points: 2
#     Edge 63, Type (0, 1), BuildingBlock: UVAHIK_clean_linker_0, # of connection points: 2
#     Edge 64, Type (0, 1), BuildingBlock: UVAHIK_clean_linker_0, # of connection points: 2
#     Edge 65, Type (0, 1), BuildingBlock: UVAHIK_clean_linker_0, # of connection points: 2
#     Edge 66, Type (0, 1), BuildingBlock: UVAHIK_clean_linker_0, # of connection points: 2
#     Edge 67, Type (0, 1), BuildingBlock: UVAHIK_clean_linker_0, # of connection points: 2
# Relax obj value: 0.302
# Max RMSD: 0.366
# Mean RMSD: 0.184
data_MOF--net-myd--node1-KOZSID_clean_sbu_0--node2-CUWYAW_clean_sbu_0--edge1-UVAHIK_clean_linker_0
_symmetry_space_group_name_H-M    P1
_symmetry_Int_Tables_number       1
_symmetry_cell_setting            triclinic
loop_
_symmetry_equiv_pos_as_xyz
'x, y, z'
_cell_length_a     67.261723
_cell_length_b     66.578323
_cell_length_c     66.783881
_cell_angle_alpha  89.367789
_cell_angle_beta   88.877398
_cell_angle_gamma 87.808278
loop_
_atom_site_label
_atom_site_type_symbol
_atom_site_fract_x
_atom_site_fract_y
_atom_site_fract_z
_atom_type_partial_charge
C0 C 0.02242 0.34359 0.37745 0.0
C1 C 1.00327 0.34787 0.38476 0.0
C2 C 0.99105 0.33521 0.37542 0.0
C3 C 1.00329 0.32403 0.36286 0.0
N4 N 0.02269 0.32858 0.36373 0.0
Co5 Co 0.04521 0.31691 0.3467 0.0
N6 N 0.02674 0.30011 0.33131 0.0
C7 C 1.00681 0.29925 0.33396 0.0
C8 C 0.99819 0.28601 0.32152 0.0
C9 C 0.01356 0.27777 0.31035 0.0
C10 C 0.03072 0.28654 0.31664 0.0
N11 N 0.06777 0.30542 0.32982 0.0
C12 C 0.06785 0.29139 0.31528 0.0
C13 C 0.08687 0.28757 0.30739 0.0
C14 C 0.09929 0.29936 0.31755 0.0
C15 C 0.0872 0.30971 0.33092 0.0
N16 N 0.06358 0.33386 0.36209 0.0
C17 C 0.08359 0.33424 0.35991 0.0
C18 C 0.09226 0.34737 0.37241 0.0
C19 C 0.07686 0.35621 0.38303 0.0
C20 C 0.05956 0.34805 0.37624 0.0
N21 N 0.04924 0.29391 0.3661 0.0
C22 C 0.05545 0.25568 0.38497 0.0
C23 C 0.07138 0.268 0.38034 0.0
C24 C 0.06797 0.2869 0.37113 0.0
C25 C 0.03627 0.2637 0.38146 0.0
C26 C 0.03353 0.28272 0.3724 0.0
N27 N 0.0412 0.33916 0.32661 0.0
C28 C 0.05465 0.3613 0.30096 0.0
C29 C 0.03572 0.36529 0.29307 0.0
C30 C 0.01953 0.35706 0.3033 0.0
C31 C 0.02255 0.34431 0.31988 0.0
C32 C 0.05702 0.34841 0.31766 0.0
H33 H 0.00956 0.3384 0.32671 0.0
H34 H 0.07184 0.3457 0.32275 0.0
H35 H 0.0808 0.29525 0.36755 0.0
H36 H 0.01854 0.28774 0.37004 0.0
C37 C 0.99676 0.31049 0.3488 0.0
C38 C 0.0397 0.35479 0.38332 0.0
C39 C 0.0505 0.28091 0.30881 0.0
C40 C 0.09372 0.32299 0.34517 0.0
H41 H 0.99844 0.35934 0.3953 0.0
H42 H 0.97503 0.33477 0.37701 0.0
H43 H 0.98264 0.28248 0.32092 0.0
H44 H 0.01233 0.26635 0.29908 0.0
H45 H 0.09134 0.27712 0.29569 0.0
H46 H 0.11527 0.30006 0.31563 0.0
H47 H 0.10789 0.3505 0.37335 0.0
H48 H 0.07819 0.36765 0.39427 0.0
H49 H 0.08655 0.26278 0.383 0.0
H50 H 0.02332 0.25524 0.38546 0.0
H51 H 0.06772 0.36744 0.29386 0.0
H52 H 1.00447 0.36021 0.2984 0.0
C53 C 0.99956 0.72512 0.21644 0.0
C54 C 0.9816 0.72174 0.20737 0.0
C55 C 0.9675 0.73359 0.21693 0.0
C56 C 0.97764 0.74364 0.23106 0.0
N57 N 0.99741 0.73916 0.23091 0.0
Co58 Co 0.01778 0.75088 0.24835 0.0
N59 N 0.99669 0.76637 0.26404 0.0
C60 C 0.97677 0.7658 0.2619 0.0
C61 C 0.96609 0.77839 0.27453 0.0
C62 C 0.98002 0.78782 0.28517 0.0
C63 C 0.99848 0.78038 0.27837 0.0
N64 N 0.03822 0.76329 0.26529 0.0
C65 C 0.03604 0.77829 0.27879 0.0
C66 C 0.0542 0.78371 0.28615 0.0
C67 C 0.06845 0.77203 0.27658 0.0
C68 C 0.0582 0.76022 0.264 0.0
N69 N 0.03878 0.73466 0.23315 0.0
C70 C 0.05863 0.7342 0.23623 0.0
C71 C 0.06912 0.72032 0.22484 0.0
C72 C 0.05514 0.71107 0.21409 0.0
C73 C 0.03683 0.72004 0.21939 0.0
N74 N 0.02026 0.77392 0.22938 0.0
C75 C 0.02597 0.81194 0.2118 0.0
C76 C 0.04177 0.79785 0.21351 0.0
C77 C 0.03858 0.77903 0.22208 0.0
C78 C 1.00687 0.80586 0.21698 0.0
C79 C 1.00434 0.78678 0.2255 0.0
N80 N 0.01546 0.72815 0.26768 0.0
C81 C 0.03096 0.70475 0.29109 0.0
C82 C 0.01256 0.6973 0.29679 0.0
C83 C 0.99559 0.7053 0.28734 0.0
C84 C 0.99739 0.72051 0.27281 0.0
C85 C 0.03206 0.71998 0.27668 0.0
H86 H 0.98397 0.72596 0.26602 0.0
H87 H 0.04653 0.72503 0.27329 0.0
H88 H 0.05139 0.76929 0.22346 0.0
H89 H 0.9895 0.78314 0.2297 0.0
C90 C 0.96876 0.75556 0.24603 0.0
C91 C 0.01792 0.71362 0.21173 0.0
C92 C 0.01722 0.78845 0.28441 0.0
C93 C 0.06689 0.74654 0.25041 0.0
H94 H 0.97888 0.7113 0.19552 0.0
H95 H 0.95164 0.73421 0.21441 0.0
H96 H 0.95013 0.78121 0.27514 0.0
H97 H 0.97691 0.79951 0.29604 0.0
H98 H 0.05685 0.79524 0.29698 0.0
H99 H 0.08441 0.77246 0.27823 0.0
H100 H 0.08499 0.71693 0.22479 0.0
H101 H 0.05815 0.69879 0.20388 0.0
H102 H 0.05673 0.80158 0.20891 0.0
H103 H 0.99407 0.81611 0.21555 0.0
H104 H 0.04452 0.69926 0.29811 0.0
H105 H 0.98101 0.69982 0.29109 0.0
C106 C 0.38979 0.03524 0.33727 0.0
C107 C 0.39654 0.01551 0.34015 0.0
C108 C 0.38996 1.00481 0.32423 0.0
C109 C 0.37963 0.01858 0.31251 0.0
N110 N 0.37942 0.0372 0.32009 0.0
Co111 Co 0.36547 0.06134 0.30869 0.0
N112 N 0.34747 0.04491 0.29296 0.0
C113 C 0.35089 0.02542 0.28835 0.0
C114 C 0.33636 0.01801 0.27664 0.0
C115 C 0.32314 0.03389 0.27348 0.0
C116 C 0.33033 0.05021 0.28349 0.0
N117 N 0.35156 0.08566 0.29744 0.0
C118 C 0.33405 0.08767 0.28767 0.0
C119 C 0.33016 0.1076 0.28222 0.0
C120 C 0.34599 0.11823 0.28837 0.0
C121 C 0.35862 0.10432 0.29732 0.0
N122 N 0.38359 0.07749 0.32451 0.0
C123 C 0.38746 0.09692 0.32125 0.0
C124 C 0.39983 0.10427 0.33535 0.0
C125 C 0.40388 0.08847 0.34825 0.0
C126 C 0.39378 0.07227 0.34125 0.0
N127 N 0.38435 0.06141 0.28584 0.0
C128 C 0.41059 0.06201 0.25256 0.0
C129 C 0.39013 0.06563 0.25034 0.0
C130 C 0.37736 0.06517 0.26701 0.0
C131 C 0.41767 0.05781 0.27186 0.0
C132 C 0.40432 0.05774 0.28833 0.0
N133 N 0.34666 0.06129 0.33123 0.0
C134 C 0.32896 0.07867 0.3579 0.0
C135 C 0.32096 0.06062 0.36456 0.0
C136 C 0.3259 0.04299 0.35404 0.0
C137 C 0.33868 0.04366 0.33741 0.0
C138 C 0.34184 0.07866 0.34124 0.0
H139 H 0.34219 0.02987 0.3296 0.0
H140 H 0.34802 0.09268 0.33655 0.0
H141 H 0.36175 0.06788 0.2645 0.0
H142 H 0.41013 0.05476 0.30307 0.0
C143 C 0.36642 0.01407 0.29733 0.0
C144 C 0.39429 0.05201 0.3504 0.0
C145 C 0.32185 0.07088 0.28159 0.0
C146 C 0.37569 0.10855 0.30806 0.0
H147 H 0.40515 1.0095 0.35252 0.0
H148 H 0.39154 0.98873 0.32211 0.0
H149 H 0.3353 1.0028 0.27131 0.0
H150 H 0.31 0.03361 0.26441 0.0
H151 H 0.3174 0.1138 0.27434 0.0
H152 H 0.34781 0.13427 0.28689 0.0
H153 H 0.40432 0.11961 0.33687 0.0
H154 H 0.4129 0.08899 0.36145 0.0
H155 H 0.38391 0.06859 0.23571 0.0
H156 H 0.43341 0.05495 0.27425 0.0
H157 H 0.32551 0.09262 0.36563 0.0
H158 H 0.31971 0.02878 0.35842 0.0
C159 C 0.66901 0.51908 0.33215 0.0
C160 C 0.65471 0.50596 0.32641 0.0
C161 C 0.65658 0.48945 0.33886 0.0
C162 C 0.67191 0.49343 0.35138 0.0
N163 N 0.67961 0.51143 0.34758 0.0
Co164 Co 0.70238 0.5231 0.36094 0.0
N165 N 0.71208 0.49625 0.3704 0.0
C166 C 0.70139 0.47953 0.3714 0.0
C167 C 0.71196 0.46319 0.37888 0.0
C168 C 0.7303 0.47013 0.38315 0.0
C169 C 0.72989 0.49045 0.37804 0.0
N170 N 0.72495 0.53506 0.37444 0.0
C171 C 0.74158 0.52606 0.38201 0.0
C172 C 0.75333 0.54013 0.39079 0.0
C173 C 0.74341 0.55842 0.38899 0.0
C174 C 0.72623 0.5546 0.3792 0.0
N175 N 0.69248 0.54971 0.35124 0.0
C176 C 0.69681 0.56773 0.35849 0.0
C177 C 0.6884 0.58336 0.3475 0.0
C178 C 0.67829 0.57447 0.33243 0.0
C179 C 0.68118 0.55394 0.33515 0.0
N180 N 0.68641 0.52645 0.3857 0.0
C181 C 0.66712 0.53652 0.42203 0.0
C182 C 0.65777 0.54051 0.40372 0.0
C183 C 0.66772 0.53535 0.38566 0.0
C184 C 0.68563 0.52625 0.42173 0.0
C185 C 0.6949 0.52132 0.40357 0.0
N186 N 0.71874 0.52003 0.33646 0.0
C187 C 0.74308 0.53363 0.3137 0.0
C188 C 0.74467 0.51554 0.30319 0.0
C189 C 0.73239 0.49992 0.3093 0.0
C190 C 0.71956 0.50246 0.32599 0.0
C191 C 0.73011 0.53555 0.33017 0.0
H192 H 0.71057 0.49011 0.33066 0.0
H193 H 0.72952 0.54962 0.33798 0.0
H194 H 0.66064 0.53921 0.37169 0.0
H195 H 0.70941 0.51406 0.40414 0.0
C196 C 0.68245 0.4792 0.36302 0.0
C197 C 0.67259 0.5386 0.32289 0.0
C198 C 0.74537 0.5042 0.38359 0.0
C199 C 0.71237 0.56915 0.37202 0.0
H200 H 0.64434 0.50789 0.31431 0.0
H201 H 0.64866 0.47565 0.33793 0.0
H202 H 0.70703 0.44799 0.38078 0.0
H203 H 0.74237 0.46141 0.38988 0.0
H204 H 0.76734 0.53736 0.39822 0.0
H205 H 0.74831 0.57281 0.39395 0.0
H206 H 0.69043 0.59928 0.34937 0.0
H207 H 0.67 0.5821 0.32067 0.0
H208 H 0.64335 0.54829 0.40332 0.0
H209 H 0.69318 0.52242 0.43552 0.0
H210 H 0.75185 0.5463 0.30929 0.0
H211 H 0.7331 0.48565 0.30165 0.0
C212 C 0.40426 0.39711 1.00685 0.0
C213 C 0.41168 0.40245 0.98805 0.0
C214 C 0.40376 0.38977 0.97462 0.0
C215 C 0.39184 0.37755 0.98585 0.0
N216 N 0.39148 0.38191 1.00552 0.0
Co217 Co 0.37627 0.36757 0.02678 0.0
N218 N 0.35956 0.35457 1.00677 0.0
C219 C 0.36346 0.35317 0.98699 0.0
C220 C 0.34872 0.34416 0.97683 0.0
C221 C 0.33471 0.33952 0.99114 0.0
C222 C 0.34181 0.34583 1.00933 0.0
N223 N 0.36131 0.353 0.04796 0.0
C224 C 0.34365 0.34399 0.04707 0.0
C225 C 0.33874 0.3352 0.06538 0.0
C226 C 0.35387 0.33894 0.0781 0.0
C227 C 0.36716 0.34969 0.0669 0.0
N228 N 0.3929 0.38067 0.04685 0.0
C229 C 0.39498 0.37474 0.06608 0.0
C230 C 0.40799 0.38598 0.07634 0.0
C231 C 0.41481 0.39969 0.06267 0.0
C232 C 0.40554 0.39602 0.04473 0.0
N233 N 0.35639 0.38987 0.02839 0.0
C234 C 0.31993 0.41185 0.03052 0.0
C235 C 0.33003 0.406 0.04798 0.0
C236 C 0.34832 0.39529 0.04658 0.0
C237 C 0.3297 0.40831 1.01205 0.0
C238 C 0.34788 0.39738 1.01131 0.0
N239 N 0.39562 0.34472 0.02526 0.0
C240 C 0.42928 0.33076 0.02567 0.0
C241 C 0.42227 0.31124 0.02474 0.0
C242 C 0.40176 0.30886 0.02392 0.0
C243 C 0.38876 0.32566 0.0244 0.0
C244 C 0.41571 0.34732 0.02563 0.0
H245 H 0.37306 0.3231 0.02435 0.0
H246 H 0.4215 0.36217 0.02608 0.0
H247 H 0.35511 0.39003 0.06024 0.0
H248 H 0.3543 0.3938 0.99682 0.0
C249 C 0.37896 0.3637 0.97818 0.0
C250 C 0.41123 0.40552 0.02561 0.0
C251 C 0.33205 0.34212 0.02883 0.0
C252 C 0.38317 0.35984 0.0744 0.0
H253 H 0.42204 0.41405 0.98444 0.0
H254 H 0.40607 0.38978 0.95853 0.0
H255 H 0.34778 0.3421 0.96083 0.0
H256 H 0.32086 0.33236 0.98844 0.0
H257 H 0.32566 0.32686 0.06915 0.0
H258 H 0.35467 0.33496 0.09383 0.0
H259 H 0.41198 0.38448 0.09192 0.0
H260 H 0.42585 0.41067 0.06544 0.0
H261 H 0.32333 0.40844 0.06266 0.0
H262 H 0.32296 0.41316 0.99813 0.0
H263 H 0.44508 0.33319 0.02625 0.0
H264 H 0.39572 0.29402 0.02343 0.0
C265 C 0.29896 0.73089 0.52983 0.0
C266 C 0.29594 0.71733 0.51466 0.0
C267 C 0.31072 0.72009 0.50057 0.0
C268 C 0.32189 0.7351 0.50795 0.0
N269 N 0.31504 0.74187 0.52578 0.0
Co270 Co 0.32634 0.76334 0.54178 0.0
N271 N 0.34045 0.77418 0.51792 0.0
C272 C 0.34423 0.76443 0.50059 0.0
C273 C 0.35441 0.77567 0.48677 0.0
C274 C 0.3575 0.79347 0.49608 0.0
C275 C 0.34905 0.79205 0.51519 0.0
N276 N 0.3377 0.78468 0.55795 0.0
C277 C 0.34681 0.80154 0.55195 0.0
C278 C 0.35298 0.81219 0.56835 0.0
C279 C 0.34785 0.80134 0.58511 0.0
C280 C 0.33882 0.78475 0.57808 0.0
N281 N 0.31211 0.75221 0.56543 0.0
C282 C 0.31614 0.75537 0.58475 0.0
C283 C 0.30325 0.74597 0.59768 0.0
C284 C 0.29035 0.73632 0.58568 0.0
C285 C 0.29619 0.74039 0.56607 0.0
N286 N 0.34993 0.74575 0.54766 0.0
C287 C 0.38419 0.72252 0.5586 0.0
C288 C 0.36512 0.71452 0.55985 0.0
C289 C 0.34824 0.7263 0.55419 0.0
C290 C 0.38556 0.7423 0.55147 0.0
C291 C 0.36846 0.75352 0.54615 0.0
N292 N 0.30313 0.78138 0.53613 0.0
C293 C 0.27924 0.80696 0.54761 0.0
C294 C 0.27296 0.81096 0.52798 0.0
C295 C 0.28166 0.79905 0.51262 0.0
C296 C 0.2966 0.78438 0.51701 0.0
C297 C 0.29421 0.79226 0.55132 0.0
H298 H 0.30325 0.77582 0.50482 0.0
H299 H 0.29889 0.79004 0.56655 0.0
H300 H 0.3338 0.71978 0.55535 0.0
H301 H 0.37035 0.76873 0.5412 0.0
C302 C 0.33589 0.74591 0.49699 0.0
C303 C 0.28696 0.73243 0.54828 0.0
C304 C 0.35223 0.80651 0.53111 0.0
C305 C 0.32912 0.77038 0.58984 0.0
H306 H 0.28422 0.70668 0.51382 0.0
H307 H 0.31246 0.71279 0.48621 0.0
H308 H 0.35879 0.77157 0.47164 0.0
H309 H 0.36562 0.80584 0.48977 0.0
H310 H 0.36085 0.82607 0.56818 0.0
H311 H 0.35014 0.80527 0.60055 0.0
H312 H 0.30257 0.74692 0.61385 0.0
H313 H 0.278 0.72753 0.59077 0.0
H314 H 0.36323 0.69925 0.56508 0.0
H315 H 0.39976 0.74941 0.55049 0.0
H316 H 0.27274 0.81522 0.56014 0.0
H317 H 0.27746 0.80145 0.49719 0.0
C318 C 0.89021 0.88133 0.49848 0.0
C319 C 0.89486 0.88662 0.47882 0.0
C320 C 0.88273 0.87617 0.46694 0.0
C321 C 0.8713 0.86525 0.47994 0.0
N322 N 0.87526 0.86815 0.49945 0.0
Co323 Co 0.8618 0.85535 0.52322 0.0
N324 N 0.84481 0.8391 0.5056 0.0
C325 C 0.84523 0.83878 0.48535 0.0
C326 C 0.83145 0.82671 0.47736 0.0
C327 C 0.82148 0.81894 0.49345 0.0
C328 C 0.82986 0.8267 0.51043 0.0
N329 N 0.84814 0.84287 0.54701 0.0
C330 C 0.83275 0.8303 0.54794 0.0
C331 C 0.82749 0.82559 0.5676 0.0
C332 C 0.83969 0.83589 0.57953 0.0
C333 C 0.85171 0.84618 0.56654 0.0
N334 N 0.87908 0.8714 0.5408 0.0
C335 C 0.8792 0.87113 0.56106 0.0
C336 C 0.89323 0.88291 0.56904 0.0
C337 C 0.90282 0.89112 0.55295 0.0
C338 C 0.89395 0.88397 0.53596 0.0
N339 N 0.84071 0.87722 0.52349 0.0
C340 C 0.80376 0.89868 0.52681 0.0
C341 C 0.8164 0.89659 0.54316 0.0
C342 C 0.83474 0.8861 0.54113 0.0
C343 C 0.81105 0.8918 0.50824 0.0
C344 C 0.82955 0.88141 0.50689 0.0
N345 N 0.88226 0.83286 0.52311 0.0
C346 C 0.90054 0.80686 0.54147 0.0
C347 C 0.90501 0.79629 0.5239 0.0
C348 C 0.89926 0.80519 0.50574 0.0
C349 C 0.88804 0.82339 0.50569 0.0
C350 C 0.88948 0.82505 0.54072 0.0
H351 H 0.88368 0.82917 0.49142 0.0
H352 H 0.88648 0.8322 0.55467 0.0
H353 H 0.8434 0.88455 0.55429 0.0
H354 H 0.83404 0.87604 0.49246 0.0
C355 C 0.85753 0.85134 0.47426 0.0
C356 C 0.90064 0.88906 0.51561 0.0
C357 C 0.82243 0.82271 0.53072 0.0
C358 C 0.8662 0.85933 0.57221 0.0
H359 H 0.90601 0.89683 0.47357 0.0
H360 H 0.8825 0.87628 0.45074 0.0
H361 H 0.82853 0.8244 0.46169 0.0
H362 H 0.80908 0.80912 0.4927 0.0
H363 H 0.81589 0.81588 0.5728 0.0
H364 H 0.83964 0.83606 0.59573 0.0
H365 H 0.89633 0.88501 0.58471 0.0
H366 H 0.91516 0.90101 0.55369 0.0
H367 H 0.81192 0.90247 0.55769 0.0
H368 H 0.80211 0.89339 0.49497 0.0
H369 H 0.90526 0.80094 0.55587 0.0
H370 H 0.90258 0.79773 0.49167 0.0
C371 C 0.52702 0.85398 0.88644 0.0
C372 C 0.50868 0.85796 0.89576 0.0
C373 C 0.49572 0.8451 0.88783 0.0
C374 C 0.50682 0.83398 0.87423 0.0
N375 N 0.52619 0.83873 0.87313 0.0
Co376 Co 0.54734 0.82653 0.85481 0.0
N377 N 0.52795 0.80834 0.84245 0.0
C378 C 0.50846 0.80692 0.84743 0.0
C379 C 0.49919 0.7922 0.83742 0.0
C380 C 0.51365 0.78352 0.82542 0.0
C381 C 0.53097 0.79363 0.82869 0.0
N382 N 0.56842 0.81478 0.83629 0.0
C383 C 0.56742 0.80017 0.82242 0.0
C384 C 0.58545 0.79718 0.81216 0.0
C385 C 0.59844 0.8099 0.82025 0.0
C386 C 0.58761 0.82006 0.83474 0.0
N387 N 0.56675 0.84454 0.8675 0.0
C388 C 0.58643 0.84532 0.86317 0.0
C389 C 0.59593 0.85942 0.87385 0.0
C390 C 0.58146 0.86832 0.88566 0.0
C391 C 0.56386 0.85905 0.88156 0.0
N392 N 0.55375 0.80476 0.87491 0.0
C393 C 0.56212 0.76813 0.896 0.0
C394 C 0.57739 0.77939 0.88752 0.0
C395 C 0.57295 0.79756 0.87735 0.0
C396 C 0.54272 0.77648 0.89499 0.0
C397 C 0.53894 0.79466 0.88464 0.0
N398 N 0.54093 0.84764 0.83408 0.0
C399 C 0.55175 0.86996 0.80731 0.0
C400 C 0.53237 0.87234 0.80009 0.0
C401 C 0.51723 0.86314 0.81112 0.0
C402 C 0.52176 0.85111 0.82792 0.0
C403 C 0.55563 0.85779 0.82422 0.0
H404 H 0.50953 0.84441 0.83544 0.0
H405 H 0.57074 0.85643 0.82873 0.0
H406 H 0.58527 0.80523 0.87105 0.0
H407 H 0.52378 0.79986 0.88412 0.0
C408 C 0.49945 0.81916 0.8621 0.0
C409 C 0.54468 0.86524 0.89071 0.0
C410 C 0.55004 0.78828 0.81891 0.0
C411 C 0.59523 0.83394 0.84776 0.0
H412 H 0.50502 0.86911 0.90706 0.0
H413 H 0.48003 0.8441 0.89141 0.0
H414 H 0.48386 0.78797 0.839 0.0
H415 H 0.51168 0.7709 0.8157 0.0
H416 H 0.58897 0.78668 0.80024 0.0
H417 H 0.61399 0.81134 0.81626 0.0
H418 H 0.6114 0.86326 0.87267 0.0
H419 H 0.58359 0.88063 0.89573 0.0
H420 H 0.59278 0.77412 0.88847 0.0
H421 H 0.53026 0.76865 0.90141 0.0
H422 H 0.56408 0.87684 0.79956 0.0
H423 H 0.50185 0.86502 0.80674 0.0
C424 C 0.53892 0.29087 0.74024 0.0
C425 C 0.55739 0.29424 0.73157 0.0
C426 C 0.56955 0.27797 0.7367 0.0
C427 C 0.55779 0.26565 0.74815 0.0
N428 N 0.5391 0.27324 0.75038 0.0
Co429 Co 0.51734 0.2614 0.76624 0.0
N430 N 0.5364 0.24517 0.78244 0.0
C431 C 0.55542 0.2404 0.77714 0.0
C432 C 0.56487 0.22826 0.79101 0.0
C433 C 0.55086 0.22507 0.80581 0.0
C434 C 0.53355 0.23554 0.80014 0.0
N435 N 0.49543 0.24951 0.78201 0.0
C436 C 0.49593 0.23969 0.79987 0.0
C437 C 0.47699 0.23399 0.80565 0.0
C438 C 0.46443 0.24004 0.79058 0.0
C439 C 0.47627 0.24924 0.77652 0.0
N440 N 0.4985 0.27771 0.74983 0.0
C441 C 0.47911 0.27446 0.74742 0.0
C442 C 0.46985 0.28927 0.73603 0.0
C443 C 0.48438 0.30258 0.73112 0.0
C444 C 0.50173 0.29506 0.73977 0.0
N445 N 0.51638 0.23948 0.74713 0.0
C446 C 0.51296 0.20834 0.71987 0.0
C447 C 0.51588 0.22799 0.71311 0.0
C448 C 0.51741 0.24339 0.72698 0.0
C449 C 0.51224 0.2045 0.7405 0.0
C450 C 0.51415 0.22021 0.75385 0.0
N451 N 0.51813 0.28338 0.78516 0.0
C452 C 0.50105 0.31163 0.80065 0.0
C453 C 0.51925 0.32013 0.80472 0.0
C454 C 0.53686 0.30888 0.80045 0.0
C455 C 0.53596 0.29046 0.79078 0.0
C456 C 0.50082 0.29328 0.79089 0.0
H457 H 0.54972 0.28255 0.78674 0.0
H458 H 0.48662 0.28769 0.78696 0.0
H459 H 0.51914 0.25851 0.72143 0.0
H460 H 0.51356 0.21675 0.76963 0.0
C461 C 0.56455 0.24984 0.76062 0.0
C462 C 0.52123 0.30415 0.73822 0.0
C463 C 0.51424 0.23418 0.81072 0.0
C464 C 0.46956 0.26054 0.7599 0.0
H465 H 0.56162 0.30717 0.72273 0.0
H466 H 0.58534 0.27601 0.7335 0.0
H467 H 0.58022 0.22275 0.79068 0.0
H468 H 0.55304 0.21575 0.81902 0.0
H469 H 0.47267 0.22614 0.81922 0.0
H470 H 0.44847 0.23855 0.79029 0.0
H471 H 0.45416 0.29096 0.73283 0.0
H472 H 0.48232 0.31634 0.72254 0.0
H473 H 0.51643 0.23153 0.69724 0.0
H474 H 0.51025 0.18943 0.74628 0.0
H475 H 0.48705 0.31942 0.80431 0.0
H476 H 0.55131 0.31475 0.80333 0.0
C477 C 0.88784 0.52995 0.84044 0.0
C478 C 0.89409 0.51023 0.84429 0.0
C479 C 0.8857 0.49869 0.82999 0.0
C480 C 0.87487 0.51198 0.81818 0.0
N481 N 0.87605 0.53108 0.82418 0.0
Co482 Co 0.86209 0.55487 0.81211 0.0
N483 N 0.84208 0.53813 0.7995 0.0
C484 C 0.84431 0.51823 0.79625 0.0
C485 C 0.82848 0.51062 0.78658 0.0
C486 C 0.81562 0.52677 0.78331 0.0
C487 C 0.82432 0.54345 0.79122 0.0
N488 N 0.84821 0.57882 0.8001 0.0
C489 C 0.82995 0.58086 0.79178 0.0
C490 C 0.8264 0.60046 0.78504 0.0
C491 C 0.84317 0.61078 0.78883 0.0
C492 C 0.856 0.59705 0.79778 0.0
N493 N 0.8822 0.57133 0.82488 0.0
C494 C 0.88653 0.59026 0.81971 0.0
C495 C 0.90033 0.59811 0.83204 0.0
C496 C 0.90486 0.58318 0.8458 0.0
C497 C 0.89359 0.56695 0.84104 0.0
N498 N 0.87901 0.55238 0.78786 0.0
C499 C 0.90269 0.55055 0.75272 0.0
C500 C 0.88209 0.55412 0.75188 0.0
C501 C 0.8706 0.55489 0.76947 0.0
C502 C 0.91118 0.54744 0.7716 0.0
C503 C 0.8991 0.54852 0.78899 0.0
N504 N 0.84528 0.55745 0.83608 0.0
C505 C 0.83096 0.57776 0.86261 0.0
C506 C 0.82301 0.56073 0.87168 0.0
C507 C 0.8262 0.54208 0.86241 0.0
C508 C 0.83727 0.54079 0.84459 0.0
C509 C 0.8421 0.57578 0.84484 0.0
H510 H 0.83949 0.52626 0.83777 0.0
H511 H 0.84832 0.58907 0.83833 0.0
H512 H 0.85484 0.55772 0.76806 0.0
H513 H 0.906 0.54645 0.80337 0.0
C514 C 0.86017 0.50693 0.8047 0.0
C515 C 0.89413 0.54741 0.85169 0.0
C516 C 0.8165 0.56426 0.78835 0.0
C517 C 0.87412 0.60132 0.80664 0.0
H518 H 0.90355 0.50478 0.85626 0.0
H519 H 0.88647 0.48246 0.82906 0.0
H520 H 0.82635 0.49513 0.78266 0.0
H521 H 0.80169 0.52638 0.77551 0.0
H522 H 0.8132 0.60662 0.77787 0.0
H523 H 0.8455 0.62654 0.78589 0.0
H524 H 0.90551 0.6133 0.83192 0.0
H525 H 0.91496 0.58433 0.85809 0.0
H526 H 0.87478 0.55623 0.73766 0.0
H527 H 0.92707 0.54467 0.77295 0.0
H528 H 0.82883 0.59244 0.86931 0.0
H529 H 0.81996 0.5286 0.86872 0.0
C530 C 0.18574 0.06331 0.88681 0.0
C531 C 0.18229 0.08333 0.89186 0.0
C532 C 0.19391 0.09433 0.87924 0.0
C533 C 0.20381 0.08049 0.8673 0.0
N534 N 0.19877 0.06134 0.87113 0.0
Co535 Co 0.21085 0.03634 0.85862 0.0
N536 N 0.23163 0.05195 0.84392 0.0
C537 C 0.23389 0.07204 0.8446 0.0
C538 C 0.24913 0.07862 0.83264 0.0
C539 C 0.25702 0.06177 0.82363 0.0
C540 C 0.24611 0.04576 0.83067 0.0
N541 N 0.22264 1.01135 0.84579 0.0
C542 C 0.2376 1.00905 0.83193 0.0
C543 C 0.24044 0.98911 0.82634 0.0
C544 C 0.22656 0.9785 0.8367 0.0
C545 C 0.21609 0.99246 0.84804 0.0
N546 N 0.19051 0.02073 0.87394 0.0
C547 C 0.18777 1.00074 0.8731 0.0
C548 C 0.17418 0.99407 0.88699 0.0
C549 C 0.16838 1.01068 0.89778 0.0
C550 C 0.17882 0.02653 0.8898 0.0
N551 N 0.19282 0.03985 0.83543 0.0
C552 C 0.17256 0.04246 0.79883 0.0
C553 C 0.17227 0.02503 0.81063 0.0
C554 C 0.18221 0.02415 0.82878 0.0
C555 C 0.18198 0.05904 0.80638 0.0
C556 C 0.19185 0.05745 0.82458 0.0
N557 N 0.22864 0.03272 0.88169 0.0
C558 C 0.24119 1.01159 0.90855 0.0
C559 C 0.24815 0.02826 0.91835 0.0
C560 C 0.2461 0.04708 0.90898 0.0
C561 C 0.23653 0.04893 0.89066 0.0
C562 C 0.23167 0.01412 0.89032 0.0
H563 H 0.23526 0.06365 0.88422 0.0
H564 H 0.22637 1.00089 0.88377 0.0
H565 H 0.18155 1.01034 0.83677 0.0
H566 H 0.19898 0.07052 0.82924 0.0
C567 C 0.22044 0.08454 0.8553 0.0
C568 C 0.17816 0.04654 0.89857 0.0
C569 C 0.24927 0.02524 0.82336 0.0
C570 C 0.2 0.98835 0.86088 0.0
H571 H 0.17324 0.08937 0.90409 0.0
H572 H 0.19605 0.11034 0.87979 0.0
H573 H 0.25355 0.09393 0.83023 0.0
H574 H 0.26907 0.06146 0.81266 0.0
H575 H 0.2513 0.98292 0.81569 0.0
H576 H 0.22425 0.96253 0.8359 0.0
H577 H 0.16988 0.97876 0.88972 0.0
H578 H 0.15827 1.01098 0.9106 0.0
H579 H 0.16514 1.01174 0.80558 0.0
H580 H 0.18208 0.07314 0.79814 0.0
H581 H 0.24259 0.99668 0.91516 0.0
H582 H 0.25186 0.06033 0.91573 0.0
C583 C 0.80616 0.24543 0.0345 0.0
C584 C 0.8006 0.23137 0.0207 0.0
C585 C 0.8139 0.2324 1.00491 0.0
C586 C 0.8268 0.24693 1.01002 0.0
N587 N 0.82245 0.25498 0.02803 0.0
Co588 Co 0.83697 0.27617 0.04135 0.0
N589 N 0.84884 0.28504 0.01546 0.0
C590 C 0.84976 0.27444 0.99836 0.0
C591 C 0.85898 0.28433 0.98286 0.0
C592 C 0.86452 0.30211 0.99078 0.0
C593 C 0.8584 0.30201 1.01079 0.0
N594 N 0.85171 0.29714 0.05487 0.0
C595 C 0.86151 0.31282 0.04696 0.0
C596 C 0.8704 0.32351 0.06191 0.0
C597 C 0.86632 0.31387 0.07967 0.0
C598 C 0.85516 0.29792 0.07465 0.0
N599 N 0.82474 0.26711 0.06701 0.0
C600 C 0.83111 0.27085 0.0855 0.0
C601 C 0.81878 0.26344 0.10025 0.0
C602 C 0.80377 0.25453 0.09035 0.0
C603 C 0.80789 0.25692 0.07005 0.0
N604 N 0.85998 0.25721 0.04537 0.0
C605 C 0.89385 0.2326 0.05424 0.0
C606 C 0.8746 0.22636 0.05908 0.0
C607 C 0.85786 0.23873 0.05423 0.0
C608 C 0.89566 0.25115 0.0445 0.0
C609 C 0.87873 0.2632 0.04044 0.0
N610 N 0.81437 0.29553 0.03762 0.0
C611 C 0.79328 0.32263 0.05082 0.0
C612 C 0.78442 0.32598 0.03216 0.0
C613 C 0.79052 0.3131 0.01644 0.0
C614 C 0.80542 0.29801 0.01948 0.0
C615 C 0.8081 0.3075 0.0532 0.0
H616 H 0.81001 0.28861 1.00703 0.0
H617 H 0.8147 0.30576 0.06769 0.0
H618 H 0.84323 0.23352 0.058 0.0
H619 H 0.88101 0.27765 0.03373 0.0
C620 C 0.83998 0.25636 0.99685 0.0
C621 C 0.79614 0.24902 0.05382 0.0
C622 C 0.86497 0.31645 0.02545 0.0
C623 C 0.84574 0.28493 0.08819 0.0
H624 H 0.78813 0.22159 0.02183 0.0
H625 H 0.81349 0.22437 0.99094 0.0
H626 H 0.86127 0.27932 0.9676 0.0
H627 H 0.87282 0.31349 0.98295 0.0
H628 H 0.87938 0.33658 0.06008 0.0
H629 H 0.87072 0.31817 0.09448 0.0
H630 H 0.81985 0.26537 0.11626 0.0
H631 H 0.79116 0.24743 0.0973 0.0
H632 H 0.8725 0.21203 0.0665 0.0
H633 H 0.91019 0.25669 0.04063 0.0
H634 H 0.78886 0.33168 0.06364 0.0
H635 H 0.78425 0.31499 1.0017 0.0
C636 C 0.08993 0.07963 0.16646 0.0
Eu637 Eu 0.1065 0.104 0.14068 0.0
C638 C 0.08361 0.05877 0.16807 0.0
C639 C 0.07933 0.04759 0.15108 0.0
C640 C 0.07386 0.02755 0.15315 0.0
C641 C 0.07277 0.01838 0.17222 0.0
C642 C 0.07696 0.02977 0.18914 0.0
C643 C 0.08232 0.04975 0.18706 0.0
C644 C 0.11907 0.09162 0.10353 0.0
C645 C 0.15264 0.10759 0.15129 0.0
C646 C 0.15061 0.1538 0.09106 0.0
Eu647 Eu 0.13081 0.13382 0.11817 0.0
C648 C 0.15488 0.17384 0.08281 0.0
C649 C 0.15833 0.19004 0.09543 0.0
C650 C 0.1673 0.20722 0.08782 0.0
C651 C 0.17297 0.20848 0.06746 0.0
C652 C 0.16785 0.19297 0.05461 0.0
C653 C 0.15896 0.17578 0.06224 0.0
C654 C 0.11835 0.14734 0.15475 0.0
C655 C 0.08206 0.13588 0.11371 0.0
O656 O 0.10907 0.08203 0.16505 0.0
O657 O 0.07986 0.09182 0.15463 0.0
O658 O 0.10245 0.0867 0.1119 0.0
O659 O 0.12905 0.10102 0.11578 0.0
O660 O 0.13455 0.10588 0.15895 0.0
O661 O 0.15494 0.11431 0.13276 0.0
O662 O 0.13348 0.14599 0.0875 0.0
O663 O 0.15691 0.14978 0.10908 0.0
O664 O 0.13462 0.15262 0.14578 0.0
O665 O 0.1084 0.1371 0.14312 0.0
O666 O 0.09953 0.14072 0.10574 0.0
O667 O 0.08105 0.12371 0.12943 0.0
H668 H 0.08039 0.05429 0.13626 0.0
H669 H 0.07088 0.01913 0.13983 0.0
H670 H 0.07598 0.02326 0.20405 0.0
H671 H 0.08556 0.05816 0.20033 0.0
H672 H 0.15529 0.18891 0.11139 0.0
H673 H 0.17108 0.21882 0.09818 0.0
H674 H 0.17164 0.19365 0.03878 0.0
H675 H 0.15642 0.16347 0.05224 0.0
C676 C 0.92962 0.50471 0.08857 0.0
Eu677 Eu 0.96775 0.49712 0.08327 0.0
C678 C 0.91556 0.50634 0.10573 0.0
C679 C 0.9221 0.50349 0.12542 0.0
C680 C 0.90842 0.50398 0.14153 0.0
C681 C 0.88791 0.50728 0.13825 0.0
C682 C 0.88153 0.51035 0.11844 0.0
C683 C 0.89522 0.50987 0.10237 0.0
C684 C 0.98946 0.47273 0.10847 0.0
C685 C 0.99511 0.53254 0.09976 0.0
C686 C 0.05147 0.48566 0.07817 0.0
Eu687 Eu 0.01372 0.49494 0.07419 0.0
C688 C 0.07082 0.47806 0.06971 0.0
C689 C 0.07974 0.4868 0.05268 0.0
C690 C 0.0993 0.48109 0.04684 0.0
C691 C 0.1104 0.46659 0.05793 0.0
C692 C 0.10113 0.45753 0.07463 0.0
C693 C 0.08163 0.46319 0.08041 0.0
C694 C 0.99406 0.51193 0.04175 0.0
C695 C 0.98543 0.465 0.05226 0.0
O696 O 0.94265 0.51875 0.08662 0.0
O697 O 0.93747 0.48675 0.08532 0.0
O698 O 0.97177 0.46926 0.10244 0.0
O699 O 0.99468 0.48958 0.10162 0.0
O700 O 0.97709 0.52555 0.09805 0.0
O701 O 0.01128 0.52321 0.0924 0.0
O702 O 0.03743 0.47288 0.0818 0.0
O703 O 0.04461 0.50353 0.0726 0.0
O704 O 0.01325 0.50881 0.04238 0.0
O705 O 0.98696 0.50613 0.05832 0.0
O706 O 1.00279 0.4662 0.06108 0.0
O707 O 0.97065 0.47826 0.05568 0.0
H708 H 0.93776 0.5006 0.1283 0.0
H709 H 0.91387 0.50134 0.15652 0.0
H710 H 0.86593 0.51324 0.11534 0.0
H711 H 0.88989 0.51207 0.08727 0.0
H712 H 0.0718 0.49838 0.04417 0.0
H713 H 0.10578 0.48821 0.03373 0.0
H714 H 0.10919 0.44657 0.08378 0.0
H715 H 0.07523 0.45643 0.09376 0.0
C716 C 0.12592 0.03883 0.52737 0.0
Eu717 Eu 0.11336 0.02312 0.49456 0.0
C718 C 0.12502 0.0369 0.54928 0.0
C719 C 0.12276 0.0183 0.55898 0.0
C720 C 0.12245 0.01712 0.57995 0.0
C721 C 0.12426 0.03455 0.59143 0.0
C722 C 0.12634 0.05311 0.58152 0.0
C723 C 0.1267 0.05425 0.56067 0.0
C724 C 0.07683 1.00651 0.49171 0.0
C725 C 0.13164 0.97741 0.48711 0.0
C726 C 0.09298 0.98788 0.42365 0.0
Eu727 Eu 0.10654 1.00427 0.45553 0.0
C728 C 0.07724 0.98616 0.4089 0.0
C729 C 0.08294 0.98098 0.3893 0.0
C730 C 0.06923 0.97302 0.37646 0.0
C731 C 0.04952 0.97012 0.38303 0.0
C732 C 0.04334 0.97753 0.40191 0.0
C733 C 0.05714 0.9854 0.41482 0.0
C734 C 0.14384 0.01702 0.45943 0.0
C735 C 0.09628 0.05182 0.46033 0.0
O736 O 0.13589 0.02481 0.51741 0.0
O737 O 0.10949 0.04481 0.51865 0.0
O738 O 0.07985 0.02293 0.50116 0.0
O739 O 0.09318 0.99919 0.48539 0.0
O740 O 0.13174 0.99376 0.49824 0.0
O741 O 0.12115 0.97707 0.47061 0.0
O742 O 0.08907 0.98175 0.44192 0.0
O743 O 0.10459 1.00321 0.42276 0.0
O744 O 0.13962 1.00078 0.45018 0.0
O745 O 0.12826 0.02667 0.46497 0.0
O746 O 0.08983 0.03506 0.45258 0.0
O747 O 0.10922 0.0506 0.4749 0.0
H748 H 0.12135 1.00474 0.55039 0.0
H749 H 0.1207 1.00263 0.58716 0.0
H750 H 0.12814 0.06675 0.58987 0.0
H751 H 0.12851 0.06872 0.55339 0.0
H752 H 0.0984 0.98139 0.3845 0.0
H753 H 0.07466 0.96741 0.36214 0.0
H754 H 0.02817 0.97594 0.40726 0.0
H755 H 0.05239 0.98945 0.42989 0.0
C756 C 0.05407 0.5895 0.54036 0.0
Eu757 Eu 0.02586 0.5712 0.5225 0.0
C758 C 0.07351 0.59872 0.53772 0.0
C759 C 0.08705 0.59692 0.55336 0.0
C760 C 0.10495 0.60684 0.55232 0.0
C761 C 0.10972 0.61881 0.53554 0.0
C762 C 0.09628 0.62024 0.51963 0.0
C763 C 0.0783 0.61026 0.5207 0.0
C764 C 0.03057 0.53443 0.50536 0.0
C765 C 0.01541 0.57773 0.47695 0.0
C766 C 0.96211 0.53146 0.49224 0.0
Eu767 Eu 0.98811 0.55297 0.50963 0.0
C768 C 0.94521 0.5185 0.49646 0.0
C769 C 0.92674 0.52661 0.50323 0.0
C770 C 0.90996 0.5149 0.50342 0.0
C771 C 0.91135 0.4949 0.49681 0.0
C772 C 0.93016 0.48637 0.49164 0.0
C773 C 0.94692 0.4981 0.49137 0.0
C774 C 0.98266 0.59087 0.524 0.0
C775 C 0.99513 0.552 0.55598 0.0
O776 O 0.03859 0.59883 0.53247 0.0
O777 O 0.05361 0.56994 0.53904 0.0
O778 O 0.04258 0.54898 0.50215 0.0
O779 O 0.01721 0.53971 0.51799 0.0
O780 O 0.02568 0.58496 0.49171 0.0
O781 O 1.00218 0.56375 0.48022 0.0
O782 O 0.97978 0.52445 0.49718 0.0
O783 O 0.95951 0.55075 0.49537 0.0
O784 O 0.97019 0.57665 0.52712 0.0
O785 O 0.9969 0.58459 0.51286 0.0
O786 O 0.98613 0.54261 0.54165 0.0
O787 O 0.00896 0.56509 0.55177 0.0
H788 H 0.08354 0.58821 0.56669 0.0
H789 H 0.11475 0.60564 0.56498 0.0
H790 H 0.0996 0.62914 0.5064 0.0
H791 H 0.06805 0.61182 0.50842 0.0
H792 H 0.92496 0.54228 0.50732 0.0
H793 H 0.89568 0.52203 0.50729 0.0
H794 H 0.93173 0.47093 0.48672 0.0
H795 H 0.96103 0.49149 0.48616 0.0
C796 C 0.41925 1.00632 0.59686 0.0
Eu797 Eu 0.45675 0.99768 0.58852 0.0
C798 C 0.40673 1.00773 0.61527 0.0
C799 C 0.41355 0.99975 0.63355 0.0
C800 C 0.40129 1.00058 0.65077 0.0
C801 C 0.38195 1.00947 0.65011 0.0
C802 C 0.37534 0.01766 0.63174 0.0
C803 C 0.3876 0.01678 0.61453 0.0
C804 C 0.47867 0.97355 0.61388 0.0
C805 C 0.48557 0.03306 0.60194 0.0
C806 C 0.5392 0.98264 0.57998 0.0
Eu807 Eu 0.50162 0.99371 0.57787 0.0
C808 C 0.55776 0.97476 0.56989 0.0
C809 C 0.57072 0.98783 0.55992 0.0
C810 C 0.58981 0.98107 0.55365 0.0
C811 C 0.59652 0.96111 0.55732 0.0
C812 C 0.58322 0.94785 0.56651 0.0
C813 C 0.56414 0.9546 0.57277 0.0
C814 C 0.48243 1.01065 0.54529 0.0
C815 C 0.47126 0.96425 0.55811 0.0
O816 O 0.4326 0.01994 0.59434 0.0
O817 O 0.42618 0.98834 0.5922 0.0
O818 O 0.46092 0.97008 0.60815 0.0
O819 O 0.48399 0.99007 0.6064 0.0
O820 O 0.46722 0.02704 0.60015 0.0
O821 O 0.50127 0.02231 0.59555 0.0
O822 O 0.52467 0.97039 0.58355 0.0
O823 O 0.53286 1.00108 0.57592 0.0
O824 O 0.5015 1.00702 0.54613 0.0
O825 O 0.4747 1.00551 0.56188 0.0
O826 O 0.48888 0.96499 0.56648 0.0
O827 O 0.4573 0.97839 0.56129 0.0
H828 H 0.42829 0.99268 0.63444 0.0
H829 H 0.40686 0.9939 0.66452 0.0
H830 H 0.36072 0.02493 0.63066 0.0
H831 H 0.38208 0.02309 0.6006 0.0
H832 H 0.56646 1.00354 0.5577 0.0
H833 H 0.59965 0.99179 0.54682 0.0
H834 H 0.58772 0.93229 0.5693 0.0
H835 H 0.55467 0.94418 0.58059 0.0
C836 C 0.57232 0.57471 0.68688 0.0
Eu837 Eu 0.59105 0.59729 0.66095 0.0
C838 C 0.56961 0.55319 0.69082 0.0
C839 C 0.57503 0.53869 0.67643 0.0
C840 C 0.57154 0.51836 0.68013 0.0
C841 C 0.56261 0.51219 0.69832 0.0
C842 C 0.55746 0.52683 0.71276 0.0
C843 C 0.56091 0.54712 0.70902 0.0
C844 C 0.6032 0.58319 0.62429 0.0
C845 C 0.63828 0.59717 0.66961 0.0
C846 C 0.63741 0.64332 0.60978 0.0
Eu847 Eu 0.61673 0.62491 0.63735 0.0
C848 C 0.64241 0.66237 0.59978 0.0
C849 C 0.64587 0.67968 0.61084 0.0
C850 C 0.65543 0.69586 0.60183 0.0
C851 C 0.66174 0.69497 0.58163 0.0
C852 C 0.65678 0.67828 0.57026 0.0
C853 C 0.64725 0.66213 0.57927 0.0
C854 C 0.60493 0.63991 0.67366 0.0
C855 C 0.56829 0.6294 0.63315 0.0
O856 O 0.59004 0.58136 0.68976 0.0
O857 O 0.56437 0.58207 0.67058 0.0
O858 O 0.58609 0.57977 0.63243 0.0
O859 O 0.61357 0.59226 0.6364 0.0
O860 O 0.62034 0.59571 0.67782 0.0
O861 O 0.64021 0.60415 0.65114 0.0
O862 O 0.6205 0.63514 0.60608 0.0
O863 O 0.64283 0.64092 0.62834 0.0
O864 O 0.62174 0.64358 0.66487 0.0
O865 O 0.59438 0.63027 0.66212 0.0
O866 O 0.58579 0.63158 0.62394 0.0
O867 O 0.56727 0.61959 0.65044 0.0
H868 H 0.58182 0.54311 0.66229 0.0
H869 H 0.57592 0.50747 0.66879 0.0
H870 H 0.55035 0.52267 0.72681 0.0
H871 H 0.55656 0.55813 0.72027 0.0
H872 H 0.6423 0.68022 0.62672 0.0
H873 H 0.65907 0.70843 0.61105 0.0
H874 H 0.6611 0.67729 0.55458 0.0
H875 H 0.64477 0.6489 0.57048 0.0
C876 C 0.64008 0.55541 0.0461 0.0
Eu877 Eu 0.62441 0.54008 0.01455 0.0
C878 C 0.64308 0.55186 0.06758 0.0
C879 C 0.63035 0.5399 0.07908 0.0
C880 C 0.63273 0.53812 0.09982 0.0
C881 C 0.64785 0.54831 0.10932 0.0
C882 C 0.66088 0.55976 0.09755 0.0
C883 C 0.65849 0.56152 0.07689 0.0
C884 C 0.58818 0.52279 0.01445 0.0
C885 C 0.64097 0.49365 1.00657 0.0
C886 C 0.59807 0.50405 0.94597 0.0
Eu887 Eu 0.61477 0.52043 0.97617 0.0
C888 C 0.58444 0.506 0.92901 0.0
C889 C 0.59202 0.50167 0.90979 0.0
C890 C 0.5792 0.49784 0.89426 0.0
C891 C 0.55848 0.49822 0.89766 0.0
C892 C 0.55087 0.50464 0.91641 0.0
C893 C 0.56375 0.5084 0.93201 0.0
C894 C 0.652 0.53355 0.97748 0.0
C895 C 0.60509 0.56856 0.98069 0.0
O896 O 0.65002 0.54358 0.03367 0.0
O897 O 0.62185 0.55949 0.04051 0.0
O898 O 0.59139 0.53947 0.02339 0.0
O899 O 0.60421 0.51569 1.00714 0.0
O900 O 0.64267 0.51036 0.01695 0.0
O901 O 0.62867 0.49305 0.99141 0.0
O902 O 0.59046 0.50406 0.96418 0.0
O903 O 0.61523 0.51262 0.94452 0.0
O904 O 0.64749 0.51695 0.969 0.0
O905 O 0.63671 0.5432 0.98384 0.0
O906 O 0.59952 0.55173 0.97236 0.0
O907 O 0.61759 0.56778 0.9957 0.0
H908 H 0.61837 0.53231 0.07209 0.0
H909 H 0.62239 0.52928 0.10848 0.0
H910 H 0.67289 0.56748 0.10433 0.0
H911 H 0.66849 0.57074 0.06821 0.0
H912 H 0.60792 0.49963 0.90713 0.0
H913 H 0.5857 0.49277 0.88015 0.0
H914 H 0.53498 0.50544 0.91942 0.0
H915 H 0.55747 0.51185 0.94669 0.0
C916 C 0.57266 0.09805 0.03272 0.0
Eu917 Eu 0.53802 0.08407 0.02478 0.0
C918 C 0.58497 0.11579 0.03519 0.0
C919 C 0.58977 0.12173 0.05457 0.0
C920 C 0.60427 0.13582 0.05744 0.0
C921 C 0.61441 0.14426 0.04098 0.0
C922 C 0.60887 0.13916 0.02154 0.0
C923 C 0.59435 0.12498 0.01866 0.0
C924 C 0.53407 0.04599 1.01044 0.0
C925 C 0.52023 0.10152 0.98296 0.0
C926 C 0.46752 0.05023 1.00049 0.0
Eu927 Eu 0.49571 0.07269 1.01176 0.0
C928 C 0.44767 0.04503 1.00819 0.0
C929 C 0.43251 0.05985 1.01113 0.0
C930 C 0.41349 0.05449 0.01732 0.0
C931 C 0.40924 0.0342 0.02084 0.0
C932 C 0.42471 0.0195 0.01878 0.0
C933 C 0.44371 0.02487 1.01241 0.0
C934 C 0.49276 0.1098 0.02838 0.0
C935 C 0.50749 0.06884 0.05868 0.0
O936 O 0.55892 0.09465 0.04637 0.0
O937 O 0.56749 0.09301 0.01469 0.0
O938 O 0.54538 0.05008 0.02519 0.0
O939 O 0.52615 0.06201 1.00393 0.0
O940 O 0.53175 0.10497 0.99835 0.0
O941 O 0.5073 0.08701 0.98341 0.0
O942 O 0.48267 0.04331 1.01093 0.0
O943 O 0.46959 0.06871 0.99387 0.0
O944 O 0.47762 0.10038 0.02191 0.0
O945 O 0.5083 0.09873 0.0264 0.0
O946 O 0.49686 0.0617 0.04407 0.0
O947 O 0.52303 0.07997 0.05496 0.0
H948 H 0.58297 0.11479 0.06763 0.0
H949 H 0.60799 0.13966 0.0726 0.0
H950 H 0.6165 0.14529 1.00855 0.0
H951 H 0.59115 0.12059 1.00353 0.0
H952 H 0.43515 0.07557 1.00819 0.0
H953 H 0.40191 0.0662 0.0184 0.0
H954 H 0.42202 1.00378 0.0216 0.0
H955 H 0.45524 0.0132 1.01042 0.0
C956 C 0.04717 0.21883 0.3861 0.0
C957 C 0.05873 0.23455 0.39285 0.0
C958 C 0.0504 0.19899 0.39307 0.0
C959 C 0.07259 0.16914 0.43513 0.0
H960 H 0.07133 0.12439 0.39858 0.0
C961 C 0.09963 0.0893 0.45953 0.0
C962 C 0.09048 0.07226 0.45216 0.0
C963 C 0.09491 0.10862 0.45211 0.0
C964 C 0.07145 0.13662 0.40912 0.0
H965 H 0.08278 0.24135 0.41251 0.0
H966 H 0.08839 0.20688 0.42464 0.0
H967 H 0.06495 0.15866 0.38619 0.0
H968 H 0.069 0.06254 0.43092 0.0
H969 H 0.06039 0.09643 0.41815 0.0
H970 H 0.07882 0.1473 0.45811 0.0
C971 C 0.07672 0.20992 0.41397 0.0
C972 C 0.06783 0.15638 0.40196 0.0
C973 C 0.07362 0.22974 0.40685 0.0
C974 C 0.07636 0.07524 0.43701 0.0
C975 C 0.07152 0.09473 0.42959 0.0
C976 C 0.07605 0.14944 0.4423 0.0
C977 C 0.06519 0.1942 0.40717 0.0
C978 C 0.06854 0.17299 0.41482 0.0
C979 C 0.0807 0.11179 0.43709 0.0
C980 C 0.07581 0.1328 0.42941 0.0
H981 H 0.03574 0.2218 0.37514 0.0
H982 H 0.04109 0.18742 0.38757 0.0
H983 H 0.07287 0.18141 0.44563 0.0
H984 H 0.11072 0.08779 0.47104 0.0
H985 H 0.10275 0.12108 0.45803 0.0
C986 C 0.04292 0.39195 0.38855 0.0
C987 C 0.03728 0.37319 0.39608 0.0
C988 C 0.04152 0.40909 0.40058 0.0
C989 C 0.03557 0.42519 0.45431 0.0
H990 H 0.02545 0.47752 0.42977 0.0
C991 C 0.02025 0.49887 0.49999 0.0
C992 C 0.0309 0.5156 0.49354 0.0
C993 C 0.02048 0.48129 0.48849 0.0
C994 C 0.02839 0.46302 0.43685 0.0
H995 H 0.0259 0.35765 0.42223 0.0
H996 H 0.02248 0.38761 0.44302 0.0
H997 H 0.02628 0.44757 0.40913 0.0
H998 H 0.05006 0.52701 0.46993 0.0
H999 H 0.05022 0.49656 0.44978 0.0
H1000 H 0.03711 0.44086 0.48216 0.0
C1001 C 0.02845 0.38917 0.42794 0.0
C1002 C 0.02899 0.44575 0.42497 0.0
C1003 C 0.03015 0.37197 0.41595 0.0
C1004 C 0.04174 0.51437 0.47535 0.0
C1005 C 0.04172 0.49696 0.46373 0.0
C1006 C 0.03464 0.44246 0.46623 0.0
C1007 C 0.03421 0.40806 0.42051 0.0
C1008 C 0.03282 0.42651 0.43343 0.0
C1009 C 0.03112 0.48017 0.47013 0.0
C1010 C 0.03125 0.46163 0.45763 0.0
H1011 H 0.04866 0.39328 0.37334 0.0
H1012 H 0.04657 0.42309 0.39428 0.0
H1013 H 0.0389 0.41084 0.4615 0.0
H1014 H 0.01177 0.49935 0.51395 0.0
H1015 H 0.01207 0.46868 0.49381 0.0
C1016 C 0.0459 0.84268 0.21467 0.0
C1017 C 0.02979 0.83316 0.20624 0.0
C1018 C 0.04941 0.86277 0.21026 0.0
C1019 C 0.03997 0.9033 0.17345 0.0
H1020 H 0.05438 0.93734 0.2172 0.0
C1021 C 0.05182 0.9891 0.16396 0.0
C1022 C 0.06752 0.99698 0.17464 0.0
C1023 C 0.04638 0.96919 0.16712 0.0
C1024 C 0.05059 0.92801 0.20475 0.0
H1025 H 1.00478 0.8373 0.18646 0.0
H1026 H 0.01096 0.87265 0.17869 0.0
H1027 H 0.04615 0.90264 0.22401 0.0
H1028 H 0.09038 0.98982 0.1963 0.0
H1029 H 0.08107 0.95521 0.20167 0.0
H1030 H 0.04469 0.9287 0.15416 0.0
C1031 C 0.0209 0.86441 0.18866 0.0
C1032 C 0.04583 0.90811 0.20868 0.0
C1033 C 0.01728 0.84424 0.1932 0.0
C1034 C 0.07796 0.98436 0.18814 0.0
C1035 C 0.07258 0.9645 0.19125 0.0
C1036 C 0.04481 0.92326 0.16949 0.0
C1037 C 0.03693 0.87392 0.19728 0.0
C1038 C 0.04072 0.89543 0.19306 0.0
C1039 C 0.05656 0.95672 0.18099 0.0
C1040 C 0.05045 0.93577 0.18509 0.0
H1041 H 0.05563 0.83468 0.22503 0.0
H1042 H 0.06202 0.86957 0.21698 0.0
H1043 H 0.03622 0.89385 0.16108 0.0
H1044 H 0.0434 0.99849 0.15356 0.0
H1045 H 0.03389 0.96374 0.15907 0.0
C1046 C 1.00576 0.67885 0.2082 0.0
C1047 C 0.01686 0.69464 0.20034 0.0
C1048 C 1.00356 0.66143 0.19713 0.0
C1049 C 0.02667 0.62975 0.15917 0.0
H1050 H 0.97338 0.61331 0.14792 0.0
C1051 C 0.01371 0.5634 0.1068 0.0
C1052 C 0.9974 0.55136 0.11085 0.0
C1053 C 0.016 0.58114 0.11736 0.0
C1054 C 0.98839 0.6174 0.15118 0.0
H1055 H 0.03421 0.70485 0.17483 0.0
H1056 H 0.03109 0.67384 0.1557 0.0
H1057 H 0.97791 0.64336 0.16758 0.0
H1058 H 0.97083 0.54824 0.12932 0.0
H1059 H 0.97528 0.57859 0.14844 0.0
H1060 H 0.03732 0.60351 0.14364 0.0
C1061 C 0.02406 0.67506 0.17039 0.0
C1062 C 0.99093 0.63472 0.16234 0.0
C1063 C 0.0259 0.69268 0.18131 0.0
C1064 C 0.98346 0.55734 0.12574 0.0
C1065 C 0.98597 0.57486 0.13662 0.0
C1066 C 0.02416 0.61219 0.14837 0.0
C1067 C 0.01269 0.6594 0.17815 0.0
C1068 C 0.01008 0.64106 0.16635 0.0
C1069 C 1.00226 0.58706 0.13255 0.0
C1070 C 1.00497 0.60578 0.14415 0.0
H1071 H 0.99859 0.68014 0.22283 0.0
H1072 H 0.99479 0.6495 0.20342 0.0
H1073 H 0.04159 0.6343 0.16226 0.0
H1074 H 0.02458 0.55926 0.09524 0.0
H1075 H 0.02848 0.59028 0.1134 0.0
C1076 C 0.43855 0.04731 0.23086 0.0
C1077 C 0.4241 0.0627 0.23462 0.0
C1078 C 0.44983 0.04719 0.21294 0.0
C1079 C 0.46583 0.07991 0.17067 0.0
H1080 H 0.47111 0.03033 0.14078 0.0
C1081 C 0.51004 0.07528 0.09559 0.0
C1082 C 0.50083 0.06557 0.07983 0.0
C1083 C 0.5026 0.0738 0.11527 0.0
C1084 C 0.46976 0.0443 0.14893 0.0
H1085 H 0.41081 0.09047 0.2229 0.0
H1086 H 0.43044 0.09032 0.19186 0.0
H1087 H 0.45482 0.03043 0.17384 0.0
H1088 H 0.47686 0.04611 0.07269 0.0
H1089 H 0.46395 0.04351 0.10698 0.0
H1090 H 0.48031 0.09392 0.14563 0.0
C1091 C 0.43308 0.0783 0.20265 0.0
C1092 C 0.4606 0.04432 0.16798 0.0
C1093 C 0.4217 0.0783 0.2204 0.0
C1094 C 0.48437 0.05379 0.08441 0.0
C1095 C 0.477 0.05222 0.10412 0.0
C1096 C 0.4751 0.07987 0.15171 0.0
C1097 C 0.44711 0.06261 0.19853 0.0
C1098 C 0.45827 0.06219 0.17898 0.0
C1099 C 0.48581 0.06248 0.11977 0.0
C1100 C 0.47699 0.06212 0.14047 0.0
H1101 H 0.44066 0.03503 0.24146 0.0
H1102 H 0.46064 0.03498 0.21031 0.0
H1103 H 0.46445 0.09391 0.17878 0.0
H1104 H 0.52275 0.08447 0.0927 0.0
H1105 H 0.50993 0.08167 0.12698 0.0
C1106 C 0.6862 0.54159 0.28817 0.0
C1107 C 0.66965 0.54188 0.30124 0.0
C1108 C 0.6836 0.54296 0.26749 0.0
C1109 C 0.64649 0.53448 0.2288 0.0
H1110 H 0.68191 0.56531 0.19505 0.0
C1111 C 0.64768 0.52951 0.14223 0.0
C1112 C 0.64975 0.54759 0.13145 0.0
C1113 C 0.64983 0.52896 0.16304 0.0
C1114 C 0.67179 0.55675 0.20427 0.0
H1115 H 0.63755 0.54451 0.30344 0.0
H1116 H 0.63287 0.54716 0.26719 0.0
H1117 H 0.68591 0.56503 0.23124 0.0
H1118 H 0.65501 0.57938 0.13416 0.0
H1119 H 0.65872 0.57842 0.17033 0.0
H1120 H 0.63217 0.52646 0.20183 0.0
C1121 C 0.64784 0.54549 0.27281 0.0
C1122 C 0.67423 0.55642 0.225 0.0
C1123 C 0.65048 0.54411 0.2935 0.0
C1124 C 0.65374 0.56512 0.14196 0.0
C1125 C 0.65587 0.56457 0.1627 0.0
C1126 C 0.64407 0.53479 0.20805 0.0
C1127 C 0.66438 0.5447 0.25955 0.0
C1128 C 0.6616 0.54529 0.23752 0.0
C1129 C 0.65405 0.54648 0.17349 0.0
C1130 C 0.65668 0.54595 0.19555 0.0
H1131 H 0.7011 0.53976 0.29394 0.0
H1132 H 0.69664 0.54208 0.25771 0.0
H1133 H 0.63666 0.52555 0.23799 0.0
H1134 H 0.64479 0.51571 0.13455 0.0
H1135 H 0.64855 0.51473 0.17088 0.0
C1136 C 0.42304 0.04969 0.37432 0.0
C1137 C 0.40264 0.04804 0.37083 0.0
C1138 C 0.43084 0.04572 0.3934 0.0
C1139 C 0.41652 0.04104 0.44777 0.0
H1140 H 0.46852 0.01436 0.45153 0.0
C1141 C 0.45112 0.01553 0.52467 0.0
C1142 C 0.47188 0.0165 0.52644 0.0
C1143 C 0.44193 0.01946 0.50612 0.0
C1144 C 0.45409 0.02209 0.45089 0.0
H1145 H 0.37448 0.04049 0.38451 0.0
H1146 H 0.38799 0.03347 0.41787 0.0
H1147 H 0.45426 0.02086 0.41884 0.0
H1148 H 0.49908 0.02301 0.51015 0.0
H1149 H 0.48326 0.0303 0.47835 0.0
H1150 H 0.41645 0.04231 0.47992 0.0
C1151 C 0.398 0.03817 0.40598 0.0
C1152 C 0.44585 0.02582 0.43198 0.0
C1153 C 0.39024 0.04208 0.38683 0.0
C1154 C 0.48307 0.022 0.50937 0.0
C1155 C 0.47395 0.026 0.49097 0.0
C1156 C 0.42482 0.03735 0.46675 0.0
C1157 C 0.41847 0.03989 0.40961 0.0
C1158 C 0.42698 0.0355 0.43003 0.0
C1159 C 0.45326 0.02451 0.48885 0.0
C1160 C 0.44385 0.02796 0.46865 0.0
H1161 H 0.43299 0.05404 0.36222 0.0
H1162 H 0.4466 0.04745 0.39548 0.0
H1163 H 0.40205 0.04868 0.44701 0.0
H1164 H 0.44203 1.01125 0.53746 0.0
H1165 H 0.426 0.01801 0.50522 0.0
C1166 C 0.67071 0.55325 0.45498 0.0
C1167 C 0.65852 0.54364 0.44149 0.0
C1168 C 0.66372 0.55826 0.47416 0.0
C1169 C 0.61831 0.56495 0.50626 0.0
H1170 H 0.65588 0.55512 0.54893 0.0
C1171 C 0.59581 0.56934 0.59064 0.0
C1172 C 0.6091 0.57849 0.60335 0.0
C1173 C 0.6012 0.56533 0.57068 0.0
C1174 C 0.64525 0.55817 0.5372 0.0
H1175 H 0.62909 0.53252 0.43726 0.0
H1176 H 0.61679 0.5411 0.47106 0.0
H1177 H 0.66595 0.54801 0.5145 0.0
H1178 H 0.63836 0.59079 0.60515 0.0
H1179 H 0.64779 0.58382 0.57033 0.0
H1180 H 0.59756 0.57498 0.52917 0.0
C1181 C 0.63179 0.54487 0.46669 0.0
C1182 C 0.65103 0.55411 0.5174 0.0
C1183 C 0.6388 0.53994 0.44734 0.0
C1184 C 0.62787 0.58357 0.59573 0.0
C1185 C 0.63328 0.57951 0.5758 0.0
C1186 C 0.61249 0.56897 0.52614 0.0
C1187 C 0.64434 0.5537 0.48049 0.0
C1188 C 0.63772 0.55761 0.50162 0.0
C1189 C 0.62002 0.57031 0.56301 0.0
C1190 C 0.62595 0.56576 0.54185 0.0
H1191 H 0.68586 0.55668 0.45076 0.0
H1192 H 0.67364 0.56557 0.48411 0.0
H1193 H 0.60772 0.56799 0.4945 0.0
H1194 H 0.58122 0.56531 0.59611 0.0
H1195 H 0.5907 0.55805 0.56132 0.0
C1196 C 0.28512 0.41433 0.01707 0.0
C1197 C 0.29881 0.41989 0.03151 0.0
C1198 C 0.26501 0.42041 0.01869 0.0
C1199 C 0.22947 0.45623 0.04502 0.0
H1200 H 0.19078 0.41781 0.02975 0.0
C1201 C 0.1447 0.47642 0.04619 0.0
C1202 C 0.13176 0.46147 0.05278 0.0
C1203 C 0.16497 0.47183 0.04256 0.0
C1204 C 0.20132 0.42871 0.03426 0.0
H1205 H 0.3018 0.43685 0.05878 0.0
H1206 H 0.26668 0.44688 0.06196 0.0
H1207 H 0.22606 0.4092 0.02605 0.0
H1208 H 0.13018 0.42973 0.06007 0.0
H1209 H 0.1654 0.42189 0.05438 0.0
H1210 H 0.20466 0.47541 0.05397 0.0
C1211 C 0.27157 0.43803 0.04915 0.0
C1212 C 0.22167 0.42387 0.03185 0.0
C1213 C 0.29176 0.43205 0.04746 0.0
C1214 C 0.13965 0.44174 0.05528 0.0
C1215 C 0.15991 0.43717 0.05174 0.0
C1216 C 0.20909 0.46103 0.04754 0.0
C1217 C 0.25783 0.4321 0.03491 0.0
C1218 C 0.23608 0.43753 0.03721 0.0
C1219 C 0.17293 0.45216 0.04546 0.0
C1220 C 0.19469 0.44731 0.04226 0.0
H1221 H 0.28977 0.40473 1.00473 0.0
H1222 H 0.25504 0.41579 1.00721 0.0
H1223 H 0.24003 0.46727 0.04913 0.0
H1224 H 0.1393 0.49184 0.04429 0.0
H1225 H 0.1744 0.48376 0.03747 0.0
C1226 C 0.26712 0.70268 0.55786 0.0
C1227 C 0.26788 0.72208 0.54957 0.0
C1228 C 0.24979 0.69185 0.55663 0.0
C1229 C 0.19579 0.69697 0.54769 0.0
H1230 H 0.20202 0.64128 0.53153 0.0
C1231 C 0.12824 0.65027 0.52808 0.0
C1232 C 0.1283 0.63031 0.53519 0.0
C1233 C 0.14531 0.66154 0.5292 0.0
C1234 C 0.19999 0.65673 0.53628 0.0
H1235 H 0.25151 0.7455 0.53352 0.0
H1236 H 0.22099 0.72669 0.5315 0.0
H1237 H 0.23139 0.66098 0.53593 0.0
H1238 H 0.14666 0.60634 0.54836 0.0
H1239 H 0.1762 0.62608 0.55075 0.0
H1240 H 0.16441 0.6927 0.54824 0.0
C1241 C 0.23363 0.7199 0.53918 0.0
C1242 C 0.21684 0.66802 0.53881 0.0
C1243 C 0.25102 0.73066 0.54031 0.0
C1244 C 0.146 0.62175 0.54298 0.0
C1245 C 0.16303 0.63302 0.54414 0.0
C1246 C 0.17892 0.68564 0.54526 0.0
C1247 C 0.23292 0.70024 0.54704 0.0
C1248 C 0.21495 0.68826 0.54459 0.0
C1249 C 0.16287 0.65314 0.53747 0.0
C1250 C 0.1808 0.66536 0.53956 0.0
H1251 H 0.28014 0.6957 0.56474 0.0
H1252 H 0.24965 0.67682 0.56299 0.0
H1253 H 0.19384 0.71247 0.55233 0.0
H1254 H 0.11483 0.6574 0.52216 0.0
H1255 H 0.14472 0.67689 0.52364 0.0
C1256 C 0.91778 0.92199 0.51761 0.0
C1257 C 0.91841 0.90163 0.51231 0.0
C1258 C 0.93457 0.93363 0.5148 0.0
C1259 C 0.98965 0.92892 0.50685 0.0
H1260 H 0.98393 0.98509 0.4913 0.0
C1261 C 0.05771 0.97572 0.48521 0.0
C1262 C 0.05815 0.99532 0.49277 0.0
C1263 C 0.04044 0.96467 0.48698 0.0
C1264 C 0.98579 0.96947 0.49582 0.0
H1265 H 0.93682 0.87753 0.49954 0.0
H1266 H 0.96604 0.89784 0.49415 0.0
H1267 H 0.95441 0.96513 0.49538 0.0
H1268 H 0.04065 0.01885 0.50775 0.0
H1269 H 0.01043 0.99957 0.51087 0.0
H1270 H 0.02104 0.93324 0.50714 0.0
C1271 C 0.95279 0.90483 0.50093 0.0
C1272 C 0.96882 0.95799 0.49821 0.0
C1273 C 0.93603 0.89319 0.50385 0.0
C1274 C 0.04078 1.00378 0.50179 0.0
C1275 C 0.02343 0.99275 0.50348 0.0
C1276 C 1.0066 0.94036 0.50436 0.0
C1277 C 0.95238 0.92522 0.50647 0.0
C1278 C 0.97048 0.93753 0.50377 0.0
C1279 C 0.0231 0.97295 0.49629 0.0
C1280 C 1.00493 0.9608 0.49882 0.0
H1281 H 0.90432 0.92883 0.52411 0.0
H1282 H 0.93367 0.94916 0.5195 0.0
H1283 H 0.99161 0.91336 0.51153 0.0
H1284 H 0.07083 0.96878 0.47814 0.0
H1285 H 0.04068 0.94962 0.48099 0.0
C1286 C 0.42077 0.71276 0.55442 0.0
C1287 C 0.40261 0.71086 0.56503 0.0
C1288 C 0.43841 0.7033 0.56122 0.0
C1289 C 0.46142 0.68159 0.60734 0.0
H1290 H 0.50149 0.65994 0.57015 0.0
C1291 C 0.53124 0.6364 0.6349 0.0
C1292 C 0.54959 0.63876 0.62477 0.0
C1293 C 0.51352 0.64496 0.62734 0.0
C1294 C 0.49061 0.66613 0.58078 0.0
H1295 H 0.38898 0.69693 0.59109 0.0
H1296 H 0.41963 0.68014 0.60278 0.0
H1297 H 0.47025 0.6744 0.55751 0.0
H1298 H 0.56343 0.65213 0.59854 0.0
H1299 H 0.53253 0.66727 0.58541 0.0
H1300 H 0.48177 0.67343 0.6306 0.0
C1301 C 0.42028 0.68925 0.58927 0.0
C1302 C 0.47259 0.67442 0.5735 0.0
C1303 C 0.40258 0.69869 0.58241 0.0
C1304 C 0.54963 0.64995 0.60676 0.0
C1305 C 0.53183 0.65855 0.59917 0.0
C1306 C 0.47943 0.67332 0.6146 0.0
C1307 C 0.43854 0.69158 0.5789 0.0
C1308 C 0.45767 0.68229 0.58666 0.0
C1309 C 0.51347 0.65622 0.60937 0.0
C1310 C 0.49434 0.6654 0.60146 0.0
H1311 H 0.42143 0.72176 0.54083 0.0
H1312 H 0.45208 0.70565 0.55284 0.0
H1313 H 0.45057 0.68781 0.61798 0.0
H1314 H 0.53047 0.62782 0.64875 0.0
H1315 H 0.49976 0.64245 0.63551 0.0
C1316 C 0.5808 0.7343 0.89684 0.0
C1317 C 0.56625 0.74768 0.90522 0.0
C1318 C 0.58419 0.71492 0.90491 0.0
C1319 C 0.57589 0.68393 0.95117 0.0
H1320 H 0.58855 0.63923 0.91585 0.0
C1321 C 0.60467 0.6064 0.98151 0.0
C1322 C 0.59881 0.58873 0.97225 0.0
C1323 C 0.59982 0.62543 0.97338 0.0
C1324 C 0.58486 0.65146 0.92597 0.0
H1325 H 0.54409 0.75081 0.92913 0.0
H1326 H 0.54975 0.71709 0.94295 0.0
H1327 H 0.58182 0.67271 0.90174 0.0
H1328 H 0.58294 0.57751 0.94702 0.0
H1329 H 0.57428 0.61074 0.93287 0.0
H1330 H 0.57863 0.66267 0.97537 0.0
C1331 C 0.55871 0.72164 0.93017 0.0
C1332 C 0.58124 0.67081 0.91786 0.0
C1333 C 0.5553 0.74101 0.92207 0.0
C1334 C 0.58772 0.59072 0.95462 0.0
C1335 C 0.58288 0.60984 0.94641 0.0
C1336 C 0.57955 0.66461 0.95927 0.0
C1337 C 0.57317 0.70821 0.92169 0.0
C1338 C 0.57677 0.68741 0.93033 0.0
C1339 C 0.58891 0.62752 0.95564 0.0
C1340 C 0.58421 0.64805 0.94683 0.0
H1341 H 0.5894 0.73865 0.88373 0.0
H1342 H 0.59562 0.70523 0.89805 0.0
H1343 H 0.57271 0.69623 0.96135 0.0
H1344 H 0.61329 0.60561 0.99505 0.0
H1345 H 0.60505 0.63853 0.98083 0.0
C1346 C 0.53237 0.90073 0.89751 0.0
C1347 C 0.54297 0.88332 0.90387 0.0
C1348 C 0.53093 0.91781 0.90963 0.0
C1349 C 0.53753 0.93511 0.96218 0.0
H1350 H 0.53884 0.9876 0.93661 0.0
C1351 C 0.54515 1.0096 1.00641 0.0
C1352 C 0.53387 0.02651 0.99979 0.0
C1353 C 0.5458 0.9917 0.9954 0.0
C1354 C 0.53823 0.97308 0.94403 0.0
H1355 H 0.56011 0.86994 0.92795 0.0
H1356 H 0.55809 0.89987 0.949 0.0
H1357 H 0.541 0.95753 0.91619 0.0
H1358 H 0.51399 0.0377 0.97671 0.0
H1359 H 0.51504 1.00665 0.95764 0.0
H1360 H 0.53504 0.95082 0.99007 0.0
C1361 C 0.55059 0.90036 0.93479 0.0
C1362 C 0.53943 0.95575 0.93227 0.0
C1363 C 0.55192 0.88323 0.9227 0.0
C1364 C 0.52292 0.02499 0.98218 0.0
C1365 C 0.52363 1.0072 0.97116 0.0
C1366 C 0.53644 0.95248 0.97396 0.0
C1367 C 0.54014 0.91797 0.92841 0.0
C1368 C 0.53901 0.93647 0.94112 0.0
C1369 C 0.53526 0.99035 0.97745 0.0
C1370 C 0.53667 0.97172 0.96504 0.0
H1371 H 0.52523 0.90111 0.88311 0.0
H1372 H 0.52243 0.93086 0.90428 0.0
H1373 H 0.53687 0.92061 0.96961 0.0
H1374 H 0.55376 1.01031 0.0199 0.0
H1375 H 0.55499 0.9791 1.00066 0.0
C1376 C 0.53107 0.33792 0.74919 0.0
C1377 C 0.52344 0.32591 0.73428 0.0
C1378 C 0.53461 0.35816 0.74537 0.0
C1379 C 0.52285 0.40054 0.71044 0.0
H1380 H 0.57111 0.42177 0.73127 0.0
C1381 C 0.55086 0.47877 0.687 0.0
C1382 C 0.55842 0.49066 0.70217 0.0
C1383 C 0.54644 0.45869 0.69079 0.0
C1384 C 0.55746 0.41616 0.72552 0.0
H1385 H 0.5139 0.32525 0.70357 0.0
H1386 H 0.52018 0.36071 0.69669 0.0
H1387 H 0.56327 0.38695 0.73823 0.0
H1388 H 0.56756 0.49056 0.73313 0.0
H1389 H 0.55961 0.45568 0.73981 0.0
H1390 H 0.51712 0.4298 0.69765 0.0
C1391 C 0.52299 0.35468 0.71153 0.0
C1392 C 0.55294 0.39618 0.72953 0.0
C1393 C 0.51938 0.33441 0.71543 0.0
C1394 C 0.56158 0.48191 0.72116 0.0
C1395 C 0.55721 0.46183 0.72493 0.0
C1396 C 0.5274 0.42055 0.7064 0.0
C1397 C 0.53082 0.36677 0.72642 0.0
C1398 C 0.53555 0.3881 0.72209 0.0
C1399 C 0.54953 0.44997 0.70982 0.0
C1400 C 0.54474 0.42862 0.71392 0.0
H1401 H 0.53448 0.33158 0.76376 0.0
H1402 H 0.54036 0.36705 0.75729 0.0
H1403 H 0.50922 0.39491 0.70468 0.0
H1404 H 0.54805 0.48507 0.67226 0.0
H1405 H 0.54074 0.44994 0.67875 0.0
C1406 C 0.49407 0.17927 0.70817 0.0
C1407 C 0.51019 0.1919 0.7056 0.0
C1408 C 0.49155 0.16345 0.69505 0.0
C1409 C 0.5189 0.12863 0.66249 0.0
H1410 H 0.46744 0.11986 0.63961 0.0
C1411 C 0.50677 0.06194 0.61001 0.0
C1412 C 0.4886 0.05231 0.61206 0.0
C1413 C 0.50962 0.08004 0.61978 0.0
C1414 C 0.48186 0.12192 0.64606 0.0
H1415 H 0.53629 0.19802 0.68736 0.0
H1416 H 0.53209 0.16993 0.66451 0.0
H1417 H 0.47196 0.14954 0.65983 0.0
H1418 H 0.45924 0.05401 0.62611 0.0
H1419 H 0.46442 0.08506 0.64367 0.0
H1420 H 0.52866 0.10066 0.64954 0.0
C1421 C 0.52137 0.17244 0.67662 0.0
C1422 C 0.48444 0.13899 0.65753 0.0
C1423 C 0.52371 0.18851 0.68958 0.0
C1424 C 0.47336 0.06114 0.62407 0.0
C1425 C 0.4763 0.07907 0.63405 0.0
C1426 C 0.51625 0.11138 0.65125 0.0
C1427 C 0.50526 0.15978 0.67926 0.0
C1428 C 0.50293 0.14241 0.66599 0.0
C1429 C 0.49446 0.08878 0.63203 0.0
C1430 C 0.49763 0.10769 0.64305 0.0
H1431 H 0.48337 0.18168 0.72033 0.0
H1432 H 0.4791 0.1538 0.69749 0.0
H1433 H 0.53325 0.13084 0.66904 0.0
H1434 H 0.51875 0.05558 0.60072 0.0
H1435 H 0.52368 0.08723 0.6176 0.0
C1436 C 0.92971 0.53533 0.73013 0.0
C1437 C 0.91495 0.55044 0.73386 0.0
C1438 C 0.94013 0.53467 0.71171 0.0
C1439 C 0.95325 0.56617 0.66755 0.0
H1440 H 0.96043 0.51545 0.63986 0.0
C1441 C 0.99694 0.56041 0.59247 0.0
C1442 C 0.9884 0.54938 0.5772 0.0
C1443 C 0.98958 0.55942 0.61219 0.0
C1444 C 0.95851 0.52974 0.64738 0.0
H1445 H 0.90016 0.57712 0.72142 0.0
H1446 H 0.91822 0.57598 0.68948 0.0
H1447 H 0.94476 0.51629 0.67324 0.0
H1448 H 0.9657 0.52814 0.571 0.0
H1449 H 0.95284 0.52646 0.60542 0.0
H1450 H 0.96654 0.57974 0.64163 0.0
C1451 C 0.92178 0.5646 0.7007 0.0
C1452 C 0.94972 0.53019 0.6666 0.0
C1453 C 0.91128 0.56515 0.71897 0.0
C1454 C 0.97268 0.53683 0.58234 0.0
C1455 C 0.96534 0.5358 0.60212 0.0
C1456 C 0.96213 0.56571 0.64843 0.0
C1457 C 0.93622 0.54926 0.69672 0.0
C1458 C 0.94677 0.54846 0.67684 0.0
C1459 C 0.97349 0.54734 0.61725 0.0
C1460 C 0.96474 0.54752 0.63799 0.0
H1461 H 0.93282 0.52372 0.74124 0.0
H1462 H 0.95129 0.52275 0.7092 0.0
H1463 H 0.9514 0.58048 0.67505 0.0
H1464 H 0.00913 0.57017 0.58917 0.0
H1465 H 0.99645 0.56826 0.62349 0.0
C1466 C 0.17417 0.05265 0.76257 0.0
C1467 C 0.16419 0.04286 0.77836 0.0
C1468 C 0.16725 0.05186 0.74303 0.0
C1469 C 0.13854 0.02093 0.71008 0.0
H1470 H 0.13828 0.0682 0.67563 0.0
C1471 C 0.13596 0.01831 0.62347 0.0
C1472 C 0.12472 0.03354 0.61365 0.0
C1473 C 0.13819 0.01874 0.64425 0.0
C1474 C 0.13805 0.0549 0.68511 0.0
H1475 H 0.13869 0.02505 0.78597 0.0
H1476 H 0.12682 0.02344 0.75171 0.0
H1477 H 0.14687 0.07113 0.71075 0.0
H1478 H 0.1059 0.06037 0.61808 0.0
H1479 H 0.10988 0.06116 0.65427 0.0
H1480 H 0.12994 1.00466 0.68431 0.0
C1481 C 0.14009 0.0316 0.75454 0.0
C1482 C 0.14316 0.05655 0.70516 0.0
C1483 C 0.14692 0.03252 0.77414 0.0
C1484 C 0.115 0.04866 0.62515 0.0
C1485 C 0.11727 0.04911 0.64587 0.0
C1486 C 0.13357 0.01924 0.68995 0.0
C1487 C 0.15028 0.04115 0.73877 0.0
C1488 C 0.14364 0.03956 0.71782 0.0
C1489 C 0.12924 0.03442 0.65559 0.0
C1490 C 0.1334 0.0362 0.67722 0.0
H1491 H 0.18773 0.0604 0.76514 0.0
H1492 H 0.17558 0.05913 0.73114 0.0
H1493 H 0.13894 1.00754 0.71946 0.0
H1494 H 0.14378 1.00656 0.61503 0.0
H1495 H 0.14764 1.00729 0.65129 0.0
C1496 C 0.89267 0.53932 0.88871 0.0
C1497 C 0.90393 0.54451 0.87161 0.0
C1498 C 0.90179 0.5361 0.90734 0.0
C1499 C 0.95139 0.52428 0.93019 0.0
H1500 H 0.92524 0.54234 0.97936 0.0
C1501 C 0.99319 0.52196 1.00539 0.0
C1502 C 0.9828 0.51712 0.02316 0.0
C1503 C 0.98315 0.52553 0.98738 0.0
C1504 C 0.93272 0.53694 0.96585 0.0
H1505 H 0.93371 0.54973 0.86049 0.0
H1506 H 0.94966 0.54441 0.89285 0.0
H1507 H 0.90877 0.5479 0.94739 0.0
H1508 H 0.95345 0.5125 0.03586 0.0
H1509 H 0.93585 0.51847 1.0044 0.0
H1510 H 0.97526 0.51321 0.94852 0.0
C1511 C 0.93374 0.54279 0.89204 0.0
C1512 C 0.92322 0.54017 0.9474 0.0
C1513 C 0.92459 0.54607 0.87347 0.0
C1514 C 0.96194 0.51626 0.02248 0.0
C1515 C 0.95185 0.51978 1.00439 0.0
C1516 C 0.96085 0.52103 0.94859 0.0
C1517 C 0.92252 0.53773 0.90934 0.0
C1518 C 0.93245 0.53401 0.92921 0.0
C1519 C 0.96231 0.52427 0.98643 0.0
C1520 C 0.95178 0.52742 0.96678 0.0
H1521 H 0.87675 0.53776 0.88766 0.0
H1522 H 0.8926 0.53195 0.9201 0.0
H1523 H 0.9589 0.51888 0.91669 0.0
H1524 H 0.00924 0.52282 1.00533 0.0
H1525 H 0.99184 0.52936 0.97416 0.0
C1526 C 0.15375 0.06039 0.92441 0.0
C1527 C 0.17146 0.04949 0.91979 0.0
C1528 C 0.14818 0.06419 0.94437 0.0
C1529 C 0.16889 0.06479 0.99593 0.0
H1530 H 0.11311 0.0688 1.01152 0.0
C1531 C 0.14272 0.09415 0.07408 0.0
C1532 C 0.12571 0.08597 0.08299 0.0
C1533 C 0.14847 0.08926 0.05437 0.0
C1534 C 0.12879 0.06751 1.00758 0.0
H1535 H 0.19688 0.03326 0.93221 0.0
H1536 H 0.18692 0.0392 0.96715 0.0
H1537 H 0.12249 0.06004 0.97736 0.0
H1538 H 0.10162 0.06596 0.07841 0.0
H1539 H 0.11194 0.05685 0.04444 0.0
H1540 H 0.17519 0.07151 0.02637 0.0
C1541 C 0.17756 0.04545 0.95546 0.0
C1542 C 0.1342 0.06278 0.98778 0.0
C1543 C 0.18319 0.04183 0.93546 0.0
C1544 C 0.11475 0.07259 0.07191 0.0
C1545 C 0.12061 0.06751 0.05232 0.0
C1546 C 0.16349 0.06934 0.0158 0.0
C1547 C 0.16006 0.05689 0.96024 0.0
C1548 C 0.15433 0.06144 0.98158 0.0
C1549 C 0.13747 0.07588 0.04314 0.0
C1550 C 0.14334 0.07084 0.02194 0.0
H1551 H 0.14441 0.06632 0.91253 0.0
H1552 H 0.13477 0.07327 0.94729 0.0
H1553 H 0.18454 0.06419 0.99179 0.0
H1554 H 0.15141 0.10459 0.08224 0.0
H1555 H 0.16135 0.0963 0.04784 0.0
C1556 C 0.77159 0.90144 0.54662 0.0
C1557 C 0.7828 0.90671 0.52947 0.0
C1558 C 0.75171 0.90808 0.54899 0.0
C1559 C 0.70798 0.9276 0.52066 0.0
H1560 H 0.68797 0.94236 0.57353 0.0
C1561 C 0.62772 0.96119 0.53547 0.0
C1562 C 0.61766 0.95454 0.55286 0.0
C1563 C 0.64784 0.95574 0.53195 0.0
C1564 C 0.69322 0.93809 0.55868 0.0
H1565 H 0.78169 0.92335 0.5014 0.0
H1566 H 0.74696 0.93505 0.50558 0.0
H1567 H 0.72299 0.93275 0.56872 0.0
H1568 H 0.62112 0.93691 0.58017 0.0
H1569 H 0.65588 0.92716 0.57387 0.0
H1570 H 0.6781 0.93298 0.51068 0.0
C1571 C 0.75356 0.92554 0.51712 0.0
C1572 C 0.71337 0.93257 0.55592 0.0
C1573 C 0.77351 0.91886 0.51473 0.0
C1574 C 0.62823 0.94213 0.56649 0.0
C1575 C 0.64831 0.93675 0.56301 0.0
C1576 C 0.68778 0.93317 0.52343 0.0
C1577 C 0.74237 0.92022 0.53429 0.0
C1578 C 0.72102 0.92704 0.53692 0.0
C1579 C 0.65846 0.94361 0.54578 0.0
C1580 C 0.68009 0.9383 0.54254 0.0
H1581 H 0.77802 0.8917 0.55807 0.0
H1582 H 0.74353 0.90329 0.56221 0.0
H1583 H 0.71324 0.92323 0.50586 0.0
H1584 H 0.62005 0.97063 0.52455 0.0
H1585 H 0.65518 0.9614 0.51858 0.0
C1586 C 0.76007 0.24963 0.04603 0.0
C1587 C 0.77592 0.24135 0.05713 0.0
C1588 C 0.74171 0.24045 0.04615 0.0
C1589 C 0.72054 0.19064 0.05515 0.0
H1590 H 0.66997 0.22028 0.05121 0.0
C1591 C 0.64597 0.15111 0.05855 0.0
C1592 C 0.63179 0.15692 0.04419 0.0
C1593 C 0.6629 0.16223 0.06107 0.0
C1594 C 0.68401 0.21183 0.05216 0.0
H1595 H 0.78522 0.21704 0.07699 0.0
H1596 H 0.75293 0.20141 0.07801 0.0
H1597 H 0.70053 0.23849 0.05503 0.0
H1598 H 0.62415 0.1792 0.02144 0.0
H1599 H 0.65388 0.19873 0.02586 0.0
H1600 H 0.70404 0.16401 0.05235 0.0
C1601 C 0.75464 0.21489 0.06902 0.0
C1602 C 0.70152 0.22224 0.05435 0.0
C1603 C 0.77303 0.22401 0.06876 0.0
C1604 C 0.63484 0.17431 0.03257 0.0
C1605 C 0.65177 0.18556 0.03521 0.0
C1606 C 0.70305 0.18027 0.05311 0.0
C1607 C 0.73887 0.22272 0.05734 0.0
C1608 C 0.72004 0.21177 0.05584 0.0
C1609 C 0.66608 0.17949 0.04935 0.0
C1610 C 0.68459 0.19072 0.05157 0.0
H1611 H 0.76217 0.26278 0.03662 0.0
H1612 H 0.73008 0.24676 0.03674 0.0
H1613 H 0.73452 0.18206 0.05574 0.0
H1614 H 0.64423 0.13764 0.06756 0.0
H1615 H 0.67355 0.15726 0.07221 0.0
C1616 C 0.44745 0.41044 0.01835 0.0
C1617 C 0.42889 0.41848 0.02491 0.0
C1618 C 0.46418 0.42231 0.01769 0.0
C1619 C 0.47965 0.47549 0.01757 0.0
H1620 H 0.531 0.45065 0.03027 0.0
C1621 C 0.55195 0.52062 0.02412 0.0
C1622 C 0.56941 0.51178 0.01565 0.0
C1623 C 0.53441 0.50987 0.02552 0.0
C1624 C 0.51681 0.45781 0.02649 0.0
H1625 H 0.41325 0.445 0.03639 0.0
H1626 H 0.4426 0.46585 0.03562 0.0
H1627 H 0.50134 0.4309 0.03267 0.0
H1628 H 0.58214 0.48479 1.00185 0.0
H1629 H 0.55168 0.46612 1.00423 0.0
H1630 H 0.49528 0.50249 1.01156 0.0
C1631 C 0.44419 0.45048 0.03052 0.0
C1632 C 0.49974 0.44644 0.02783 0.0
C1633 C 0.4274 0.43857 0.03109 0.0
C1634 C 0.56894 0.49204 1.00848 0.0
C1635 C 0.55149 0.48127 1.00998 0.0
C1636 C 0.49675 0.48691 0.01634 0.0
C1637 C 0.46285 0.4425 0.02382 0.0
C1638 C 0.48091 0.45502 0.02318 0.0
C1639 C 0.53401 0.48997 0.01862 0.0
C1640 C 0.5156 0.47815 0.02058 0.0
H1641 H 0.44898 0.39493 0.01365 0.0
H1642 H 0.47812 0.41565 1.01214 0.0
H1643 H 0.46549 0.4826 0.01363 0.0
H1644 H 0.55187 0.53582 0.02975 0.0
H1645 H 0.52127 0.517 0.03237 0.0
C1646 C 0.91539 0.21415 0.07954 0.0
C1647 C 0.91216 0.22045 0.05968 0.0
C1648 C 0.93357 0.2047 0.085 0.0
C1649 C 0.98651 0.19561 0.06602 0.0
H1650 H 0.98888 0.15908 0.11145 0.0
C1651 C 0.06247 0.16388 0.09613 0.0
C1652 C 0.0631 0.14508 0.10593 0.0
C1653 C 0.04422 0.17295 0.09025 0.0
C1654 C 0.98864 0.16897 0.09849 0.0
H1655 H 0.92524 0.22106 0.02984 0.0
H1656 H 0.95632 0.20366 0.03893 0.0
H1657 H 0.9571 0.17361 0.10136 0.0
H1658 H 0.04504 0.12074 0.11646 0.0
H1659 H 0.01367 0.13577 0.10535 0.0
H1660 H 0.01791 0.19006 0.06245 0.0
C1661 C 0.94531 0.20668 0.05065 0.0
C1662 C 0.97022 0.17772 0.09289 0.0
C1663 C 0.92731 0.21649 0.0453 0.0
C1664 C 0.04512 0.13534 0.10915 0.0
C1665 C 0.02698 0.14416 0.10291 0.0
C1666 C 1.00488 0.18655 0.07139 0.0
C1667 C 0.94897 0.2009 0.07068 0.0
C1668 C 0.96876 0.19128 0.07657 0.0
C1669 C 0.02608 0.1633 0.09363 0.0
C1670 C 1.00634 0.17306 0.08776 0.0
H1671 H 0.90413 0.21724 0.09102 0.0
H1672 H 0.93566 0.20094 0.10064 0.0
H1673 H 0.98638 0.20621 0.05362 0.0
H1674 H 0.07602 0.1719 0.09357 0.0
H1675 H 0.0444 0.18778 0.08348 0.0
C1676 C 0.0496 0.2671 0.27421 0.0
C1677 C 0.05331 0.26406 0.2946 0.0
C1678 C 0.05438 0.25188 0.26048 0.0
C1679 C 0.05875 0.21422 0.23514 0.0
H1680 H 0.11036 0.18722 0.24174 0.0
C1681 C 0.0902 0.15489 0.17895 0.0
C1682 C 0.11007 0.15732 0.17284 0.0
C1683 C 0.08209 0.16562 0.19527 0.0
C1684 C 0.09591 0.19462 0.23968 0.0
H1685 H 0.06425 0.24295 0.31699 0.0
H1686 H 0.0724 0.21609 0.29307 0.0
H1687 H 0.09761 0.21051 0.26719 0.0
H1688 H 0.13724 0.17225 0.1793 0.0
H1689 H 0.12314 0.19101 0.20765 0.0
H1690 H 0.05745 0.1989 0.20719 0.0
C1691 C 0.06604 0.23023 0.28756 0.0
C1692 C 0.08849 0.2078 0.25439 0.0
C1693 C 0.06127 0.24547 0.30126 0.0
C1694 C 0.12186 0.17014 0.18368 0.0
C1695 C 0.1138 0.18078 0.2 0.0
C1696 C 0.06617 0.20099 0.22042 0.0
C1697 C 0.06299 0.23338 0.26696 0.0
C1698 C 0.06996 0.21802 0.25215 0.0
C1699 C 0.09376 0.17885 0.20585 0.0
C1700 C 0.085 0.19132 0.22236 0.0
H1701 H 0.04361 0.28147 0.26886 0.0
H1702 H 0.05208 0.25492 0.24472 0.0
H1703 H 0.04433 0.22167 0.23307 0.0
H1704 H 0.08081 0.14502 0.17088 0.0
H1705 H 0.06667 0.16364 0.19955 0.0
C1706 C 0.04399 0.39416 0.26938 0.0
C1707 C 0.03275 0.37723 0.27405 0.0
C1708 C 0.0408 0.40527 0.25158 0.0
C1709 C 1.00269 0.41431 0.21213 0.0
H1710 H 0.046 0.43645 0.18088 0.0
C1711 C 0.9899 0.4435 0.13214 0.0
C1712 C 0.99801 0.4618 0.12611 0.0
C1713 C 0.99561 0.43389 0.14995 0.0
C1714 C 0.03371 0.43055 0.18953 0.0
H1715 H 0.00994 0.35834 0.26289 0.0
H1716 H 1.00447 0.37743 0.23219 0.0
H1717 H 0.05297 0.41854 0.2124 0.0
H1718 H 0.01929 0.48393 0.1338 0.0
H1719 H 0.02942 0.46702 0.16519 0.0
H1720 H 0.98344 0.4261 0.18938 0.0
C1721 C 0.01539 0.38257 0.24247 0.0
C1722 C 0.0377 0.42027 0.20766 0.0
C1723 C 0.01854 0.37155 0.26019 0.0
C1724 C 0.01276 0.46984 0.13801 0.0
C1725 C 0.01855 0.46013 0.15599 0.0
C1726 C 0.99874 0.42448 0.19409 0.0
C1727 C 0.0263 0.39973 0.23791 0.0
C1728 C 0.02225 0.41171 0.21909 0.0
C1729 C 0.00965 0.44225 0.16244 0.0
C1730 C 0.01418 0.43249 0.18232 0.0
H1731 H 0.05499 0.39911 0.27967 0.0
H1732 H 0.04941 0.41844 0.24874 0.0
H1733 H 0.99028 0.40851 0.22068 0.0
H1734 H 0.97867 0.43674 0.12326 0.0
H1735 H 0.98879 0.41992 0.15406 0.0
C1736 C 0.01153 0.80976 0.3147 0.0
C1737 C 0.0172 0.80813 0.29448 0.0
C1738 C 0.01111 0.82844 0.32403 0.0
C1739 C 0.01054 0.88337 0.31368 0.0
H1740 H 0.03176 0.88535 0.36712 0.0
C1741 C 0.03837 0.95491 0.35095 0.0
C1742 C 0.03709 0.9561 0.37196 0.0
C1743 C 0.03128 0.93828 0.34109 0.0
C1744 C 0.02538 0.88507 0.35237 0.0
H1745 H 0.02702 0.82423 0.26802 0.0
H1746 H 0.0268 0.85699 0.28441 0.0
H1747 H 0.02951 0.85318 0.35083 0.0
H1748 H 0.02539 0.94164 0.39881 0.0
H1749 H 0.01242 0.91325 0.38156 0.0
H1750 H 1.007 0.91548 0.31514 0.0
C1751 C 0.02224 0.84401 0.293 0.0
C1752 C 0.02414 0.86658 0.34299 0.0
C1753 C 0.02258 0.82531 0.28367 0.0
C1754 C 0.02665 0.94137 0.38263 0.0
C1755 C 0.01945 0.92486 0.37277 0.0
C1756 C 0.01183 0.90195 0.32308 0.0
C1757 C 0.01652 0.84578 0.3133 0.0
C1758 C 0.01687 0.86549 0.32348 0.0
C1759 C 0.02263 0.92261 0.35205 0.0
C1760 C 0.01939 0.903 0.34249 0.0
H1761 H 1.00731 0.79659 0.3232 0.0
H1762 H 1.00641 0.82931 0.33961 0.0
H1763 H 1.00462 0.88301 0.29873 0.0
H1764 H 0.04596 0.9662 0.34223 0.0
H1765 H 0.03388 0.93706 0.32509 0.0
C1766 C 0.99661 0.68366 0.32822 0.0
C1767 C 0.01131 0.68189 0.31302 0.0
C1768 C 0.99685 0.67043 0.34466 0.0
C1769 C 0.03163 0.63749 0.37312 0.0
H1770 H 0.98351 0.61798 0.39819 0.0
C1771 C 1.00517 0.58039 0.44109 0.0
C1772 C 0.0171 0.58684 0.45666 0.0
C1773 C 1.00503 0.59043 0.42259 0.0
C1774 C 0.99712 0.62313 0.39126 0.0
H1775 H 0.03705 0.66408 0.30257 0.0
H1776 H 0.03742 0.64101 0.33117 0.0
H1777 H 0.98135 0.63791 0.36737 0.0
H1778 H 0.03879 0.60853 0.46469 0.0
H1779 H 0.03852 0.62603 0.43245 0.0
H1780 H 0.0474 0.62268 0.39697 0.0
C1781 C 0.02597 0.65289 0.33063 0.0
C1782 C 0.99585 0.63474 0.37371 0.0
C1783 C 0.02573 0.66609 0.31422 0.0
C1784 C 0.02945 0.60311 0.45303 0.0
C1785 C 0.02934 0.61313 0.43451 0.0
C1786 C 0.03289 0.62594 0.39069 0.0
C1787 C 0.01178 0.65513 0.34624 0.0
C1788 C 0.01308 0.64214 0.36448 0.0
C1789 C 0.01686 0.60713 0.41919 0.0
C1790 C 0.01565 0.61871 0.40004 0.0
H1791 H 0.98541 0.69579 0.32785 0.0
H1792 H 0.98579 0.67269 0.3565 0.0
H1793 H 0.04518 0.64314 0.36654 0.0
H1794 H 0.99553 0.56786 0.4433 0.0
H1795 H 0.9955 0.58522 0.411 0.0
C1796 C 0.28499 0.07066 0.27493 0.0
C1797 C 0.30435 0.07483 0.26831 0.0
C1798 C 0.26872 0.07391 0.26223 0.0
C1799 C 0.25332 0.10119 0.21527 0.0
H1800 H 0.20999 0.06446 0.21681 0.0
C1801 C 0.18979 0.10614 0.15707 0.0
C1802 C 0.1703 0.10281 0.16405 0.0
C1803 C 0.20621 0.10238 0.16949 0.0
C1804 C 0.22184 0.07503 0.21628 0.0
H1805 H 0.32199 0.08501 0.24304 0.0
H1806 H 0.29378 0.0906 0.22082 0.0
H1807 H 0.23806 0.05878 0.23899 0.0
H1808 H 0.153 0.0927 0.18974 0.0
H1809 H 0.18141 0.08628 0.21126 0.0
H1810 H 0.2371 0.11743 0.19255 0.0
C1811 C 0.29093 0.08529 0.23594 0.0
C1812 C 0.238 0.07177 0.22909 0.0
C1813 C 0.30716 0.08203 0.24864 0.0
C1814 C 0.16775 0.09541 0.18374 0.0
C1815 C 0.18413 0.0916 0.19611 0.0
C1816 C 0.23717 0.10443 0.20245 0.0
C1817 C 0.2714 0.08131 0.24251 0.0
C1818 C 0.25403 0.08481 0.22883 0.0
C1819 C 0.20364 0.09511 0.18926 0.0
C1820 C 0.22112 0.09143 0.20275 0.0
H1821 H 0.28246 0.06493 0.28997 0.0
H1822 H 0.25398 0.07082 0.26799 0.0
H1823 H 0.26513 0.11181 0.21476 0.0
H1824 H 0.1924 0.11182 0.14203 0.0
H1825 H 0.22096 0.10504 0.1635 0.0
C1826 C 0.77846 0.52099 0.28783 0.0
C1827 C 0.75945 0.51309 0.28633 0.0
C1828 C 0.79219 0.51964 0.27187 0.0
C1829 C 0.80448 0.49238 0.22483 0.0
H1830 H 0.83577 0.53895 0.21305 0.0
C1831 C 0.8547 0.49844 0.15345 0.0
C1832 C 0.87321 0.50736 0.15532 0.0
C1833 C 0.84082 0.49866 0.16937 0.0
C1834 C 0.82736 0.52571 0.21626 0.0
H1835 H 0.74015 0.49723 0.26684 0.0
H1836 H 0.76417 0.49485 0.23887 0.0
H1837 H 0.8116 0.54002 0.24066 0.0
H1838 H 0.89151 0.52352 0.17558 0.0
H1839 H 0.86752 0.52358 0.20341 0.0
H1840 H 0.82029 0.47809 0.20036 0.0
C1841 C 0.76848 0.50199 0.25253 0.0
C1842 C 0.81345 0.52632 0.23212 0.0
C1843 C 0.7547 0.50335 0.26856 0.0
C1844 C 0.8775 0.51637 0.17361 0.0
C1845 C 0.86362 0.51661 0.18953 0.0
C1846 C 0.81842 0.49177 0.20894 0.0
C1847 C 0.78734 0.51033 0.25391 0.0
C1848 C 0.80188 0.50965 0.2367 0.0
C1849 C 0.84505 0.50781 0.18761 0.0
C1850 C 0.83011 0.50841 0.20448 0.0
H1851 H 0.78283 0.52819 0.30144 0.0
H1852 H 0.8067 0.52581 0.27369 0.0
H1853 H 0.79602 0.47918 0.22805 0.0
H1854 H 0.85095 0.49113 0.1397 0.0
H1855 H 0.82664 0.49189 0.16726 0.0
C1856 C 0.30838 0.04425 0.39596 0.0
C1857 C 0.30692 0.06006 0.3819 0.0
C1858 C 0.29352 0.04191 0.41056 0.0
C1859 C 0.24835 0.06526 0.43468 0.0
H1860 H 0.22913 1.01128 0.4316 0.0
C1861 C 0.16752 0.04462 0.45431 0.0
C1862 C 0.16398 0.02461 0.4595 0.0
C1863 C 0.18698 0.05048 0.4503 0.0
C1864 C 0.23446 0.0263 0.43322 0.0
H1865 H 0.28952 0.08663 0.37296 0.0
H1866 H 0.26341 0.08244 0.39845 0.0
H1867 H 0.26009 0.01916 0.41502 0.0
H1868 H 0.17756 0.99556 0.46681 0.0
H1869 H 0.21154 1.00597 0.46119 0.0
H1870 H 0.22235 0.07243 0.45267 0.0
C1871 C 0.27614 0.07196 0.39826 0.0
C1872 C 0.25228 0.03083 0.42358 0.0
C1873 C 0.29105 0.07432 0.38364 0.0
C1874 C 0.18005 1.01102 0.46249 0.0
C1875 C 0.19947 0.01697 0.45909 0.0
C1876 C 0.23052 0.06065 0.44459 0.0
C1877 C 0.27688 0.05531 0.41138 0.0
C1878 C 0.25926 0.0504 0.42388 0.0
C1879 C 0.20313 0.03646 0.45188 0.0
C1880 C 0.22318 0.04117 0.44367 0.0
H1881 H 0.32069 0.03329 0.39524 0.0
H1882 H 0.29463 0.02912 0.42071 0.0
H1883 H 0.25347 0.08047 0.4352 0.0
H1884 H 0.15521 0.05531 0.45192 0.0
H1885 H 0.18916 0.06557 0.44472 0.0
C1886 C 0.77861 0.48859 0.39212 0.0
C1887 C 0.76007 0.49677 0.39834 0.0
C1888 C 0.79247 0.4821 0.40636 0.0
C1889 C 0.80628 0.49277 0.45749 0.0
H1890 H 0.84262 0.44665 0.45048 0.0
C1891 C 0.87574 0.4867 0.50406 0.0
C1892 C 0.89298 0.48449 0.49193 0.0
C1893 C 0.8573 0.48147 0.49682 0.0
C1894 C 0.83251 0.45952 0.45272 0.0
H1895 H 0.74083 0.504 0.4238 0.0
H1896 H 0.76505 0.49275 0.44877 0.0
H1897 H 0.81411 0.45126 0.42853 0.0
H1898 H 0.90463 0.47335 0.46344 0.0
H1899 H 0.87277 0.46447 0.45086 0.0
H1900 H 0.82512 0.50181 0.48076 0.0
C1901 C 0.76904 0.49147 0.43303 0.0
C1902 C 0.81625 0.46217 0.44013 0.0
C1903 C 0.75523 0.49789 0.41882 0.0
C1904 C 0.8917 0.47511 0.47328 0.0
C1905 C 0.87332 0.46997 0.46603 0.0
C1906 C 0.82257 0.49021 0.46997 0.0
C1907 C 0.78791 0.48377 0.42696 0.0
C1908 C 0.80335 0.47916 0.442 0.0
C1909 C 0.85579 0.47406 0.47728 0.0
C1910 C 0.83628 0.47394 0.46728 0.0
H1911 H 0.78245 0.48754 0.37633 0.0
H1912 H 0.807 0.47646 0.40126 0.0
H1913 H 0.79671 0.50612 0.4592 0.0
H1914 H 0.87634 0.49355 0.51866 0.0
H1915 H 0.8441 0.48437 0.50604 0.0
C1916 C 0.29622 0.33845 0.0389 0.0
C1917 C 0.31374 0.33034 0.02998 0.0
C1918 C 0.27964 0.32654 0.04177 0.0
C1919 C 0.26715 0.27294 0.0461 0.0
H1920 H 0.2127 0.29289 0.03964 0.0
C1921 C 0.20286 0.21928 0.04781 0.0
C1922 C 0.18641 0.22443 0.0603 0.0
C1923 C 0.21709 0.23335 0.04304 0.0
C1924 C 0.22784 0.28718 0.04162 0.0
H1925 H 0.32795 0.30365 0.01714 0.0
H1926 H 0.29895 0.28306 0.02136 0.0
H1927 H 0.24018 0.31538 0.03323 0.0
H1928 H 0.17159 0.24878 0.07675 0.0
H1929 H 0.19666 0.27345 0.06841 0.0
H1930 H 0.25495 0.24479 0.05431 0.0
C1931 C 0.29791 0.29845 0.02645 0.0
C1932 C 0.24357 0.30005 0.038 0.0
C1933 C 0.31444 0.31028 0.02376 0.0
C1934 C 0.18415 0.2443 0.06722 0.0
C1935 C 0.19842 0.25845 0.06234 0.0
C1936 C 0.25151 0.26012 0.04956 0.0
C1937 C 0.2804 0.30628 0.03582 0.0
C1938 C 0.26345 0.293 0.04002 0.0
C1939 C 0.2153 0.25294 0.05061 0.0
C1940 C 0.23169 0.26701 0.0472 0.0
H1941 H 0.29554 0.35384 0.04407 0.0
H1942 H 0.2665 0.33299 0.04922 0.0
H1943 H 0.2822 0.26711 0.04838 0.0
H1944 H 0.20527 0.20409 0.04242 0.0
H1945 H 0.2298 0.22872 0.03374 0.0
C1946 C 0.25757 0.84563 0.53478 0.0
C1947 C 0.2579 0.82771 0.52369 0.0
C1948 C 0.24353 0.86129 0.53101 0.0
C1949 C 0.20868 0.88174 0.49238 0.0
H1950 H 0.18523 0.91167 0.53696 0.0
C1951 C 0.14479 0.9419 0.48089 0.0
C1952 C 0.14473 0.9595 0.49242 0.0
C1953 C 0.15799 0.92557 0.48496 0.0
C1954 C 0.19177 0.90369 0.52426 0.0
H1955 H 0.24327 0.81255 0.4998 0.0
H1956 H 0.21893 0.83986 0.49317 0.0
H1957 H 0.20919 0.88405 0.54327 0.0
H1958 H 0.15868 0.97342 0.51747 0.0
H1959 H 0.18174 0.94516 0.52443 0.0
H1960 H 0.19141 0.90146 0.47335 0.0
C1961 C 0.22972 0.84185 0.50473 0.0
C1962 C 0.20557 0.88775 0.5279 0.0
C1963 C 0.24376 0.82612 0.50854 0.0
C1964 C 0.15812 0.96013 0.50833 0.0
C1965 C 0.17136 0.9438 0.51237 0.0
C1966 C 0.19492 0.89772 0.48873 0.0
C1967 C 0.22933 0.85967 0.51596 0.0
C1968 C 0.2143 0.87653 0.51203 0.0
C1969 C 0.17165 0.92628 0.50066 0.0
C1970 C 0.18623 0.90901 0.5046 0.0
H1971 H 0.26842 0.84778 0.54625 0.0
H1972 H 0.24406 0.87487 0.53973 0.0
H1973 H 0.21524 0.87374 0.47971 0.0
H1974 H 0.13472 0.94075 0.46853 0.0
H1975 H 0.1574 0.91231 0.47578 0.0
C1976 C 0.90807 0.76165 0.53905 0.0
C1977 C 0.91457 0.7757 0.52471 0.0
C1978 C 0.91632 0.74205 0.53954 0.0
C1979 C 0.9604 0.71078 0.52475 0.0
H1980 H 0.92432 0.66687 0.52948 0.0
C1981 C 0.98708 0.62726 0.51553 0.0
C1982 C 0.97699 0.61245 0.52639 0.0
C1983 C 0.98033 0.64743 0.51609 0.0
C1984 C 0.93471 0.67889 0.52853 0.0
H1985 H 0.93512 0.78018 0.49981 0.0
H1986 H 0.94971 0.74587 0.50078 0.0
H1987 H 0.91105 0.70136 0.52886 0.0
H1988 H 0.95256 0.60727 0.54714 0.0
H1989 H 0.9412 0.64244 0.5488 0.0
H1990 H 0.9841 0.68837 0.52477 0.0
C1991 C 0.93818 0.75011 0.51164 0.0
C1992 C 0.92704 0.69872 0.52806 0.0
C1993 C 0.92973 0.7697 0.51099 0.0
C1994 C 0.96053 0.61833 0.53848 0.0
C1995 C 0.95391 0.63852 0.53925 0.0
C1996 C 0.96811 0.69091 0.52545 0.0
C1997 C 0.93143 0.736 0.52582 0.0
C1998 C 0.93977 0.71491 0.52616 0.0
C1999 C 0.96344 0.65334 0.52773 0.0
C2000 C 0.95537 0.67464 0.52734 0.0
H2001 H 0.89626 0.76568 0.54969 0.0
H2002 H 0.9109 0.73162 0.55075 0.0
H2003 H 0.97061 0.72294 0.52347 0.0
H2004 H 0.99979 0.62318 0.50601 0.0
H2005 H 0.98798 0.65825 0.50684 0.0
C2006 C 0.38808 0.814 0.53042 0.0
C2007 C 0.3683 0.8207 0.52772 0.0
C2008 C 0.4035 0.82717 0.52762 0.0
C2009 C 0.41622 0.87663 0.5064 0.0
H2010 H 0.45142 0.87802 0.55161 0.0
C2011 C 0.47766 0.92881 0.54686 0.0
C2012 C 0.46632 0.94693 0.5459 0.0
C2013 C 0.47063 0.91144 0.53829 0.0
C2014 C 0.44221 0.87755 0.53852 0.0
H2015 H 0.34879 0.84584 0.51946 0.0
H2016 H 0.37585 0.8693 0.51488 0.0
H2017 H 0.42867 0.85086 0.54907 0.0
H2018 H 0.44 0.9617 0.53334 0.0
H2019 H 0.42758 0.93157 0.51895 0.0
H2020 H 0.42927 0.90386 0.49631 0.0
C2021 C 0.37949 0.8538 0.51887 0.0
C2022 C 0.42905 0.862 0.53713 0.0
C2023 C 0.36403 0.84056 0.52169 0.0
C2024 C 0.44888 0.94784 0.53467 0.0
C2025 C 0.44188 0.93056 0.52615 0.0
C2026 C 0.4295 0.89216 0.50772 0.0
C2027 C 0.39935 0.84727 0.52209 0.0
C2028 C 0.41542 0.86181 0.52148 0.0
C2029 C 0.4522 0.91199 0.52864 0.0
C2030 C 0.44204 0.89323 0.52426 0.0
H2031 H 0.39156 0.79859 0.53489 0.0
H2032 H 0.41865 0.82171 0.53004 0.0
H2033 H 0.40611 0.87661 0.49398 0.0
H2034 H 0.4913 0.92774 0.55523 0.0
H2035 H 0.47908 0.89739 0.54015 0.0
C2036 C 0.54191 0.77011 0.78756 0.0
C2037 C 0.5521 0.7705 0.80565 0.0
C2038 C 0.54498 0.75399 0.7745 0.0
C2039 C 0.56909 0.70225 0.77065 0.0
H2040 H 0.56872 0.71488 0.71382 0.0
C2041 C 0.61 0.65963 0.7045 0.0
C2042 C 0.59695 0.65154 0.69084 0.0
C2043 C 0.60265 0.6721 0.71986 0.0
C2044 C 0.56869 0.71118 0.72966 0.0
H2045 H 0.57329 0.7545 0.8245 0.0
H2046 H 0.57963 0.7269 0.80131 0.0
H2047 H 0.55943 0.74099 0.73787 0.0
H2048 H 0.56603 0.64971 0.68266 0.0
H2049 H 0.55328 0.67221 0.7092 0.0
H2050 H 0.57969 0.67266 0.76205 0.0
C2051 C 0.56866 0.73852 0.79736 0.0
C2052 C 0.56322 0.72605 0.7435 0.0
C2053 C 0.56522 0.75442 0.81061 0.0
C2054 C 0.57639 0.65571 0.69305 0.0
C2055 C 0.5691 0.66855 0.70815 0.0
C2056 C 0.57498 0.6875 0.75676 0.0
C2057 C 0.55873 0.73814 0.779 0.0
C2058 C 0.56345 0.72187 0.76423 0.0
C2059 C 0.58221 0.67694 0.72152 0.0
C2060 C 0.57487 0.69193 0.73621 0.0
H2061 H 0.53177 0.78243 0.78343 0.0
H2062 H 0.53668 0.7541 0.76077 0.0
H2063 H 0.56908 0.69825 0.7864 0.0
H2064 H 0.6259 0.65657 0.70309 0.0
H2065 H 0.61298 0.67855 0.73001 0.0
C2066 C 0.51359 0.87696 0.76783 0.0
C2067 C 0.52799 0.88368 0.78098 0.0
C2068 C 0.50944 0.88728 0.74989 0.0
C2069 C 0.52961 0.92436 0.71314 0.0
H2070 H 0.4748 0.92826 0.69626 0.0
C2071 C 0.50257 0.97136 0.64289 0.0
C2072 C 0.48742 0.96312 0.6317 0.0
C2073 C 0.50878 0.96216 0.66096 0.0
C2074 C 0.49025 0.92715 0.70055 0.0
H2075 H 0.54931 0.90684 0.78517 0.0
H2076 H 0.54206 0.92483 0.75388 0.0
H2077 H 0.4829 0.91172 0.72781 0.0
H2078 H 0.46769 0.93823 0.63022 0.0
H2079 H 0.47861 0.92217 0.66115 0.0
H2080 H 0.53685 0.93989 0.6857 0.0
C2081 C 0.5341 0.91138 0.75741 0.0
C2082 C 0.49491 0.91761 0.71875 0.0
C2083 C 0.53825 0.90103 0.77543 0.0
C2084 C 0.47925 0.94512 0.63855 0.0
C2085 C 0.48542 0.93597 0.65645 0.0
C2086 C 0.52492 0.93396 0.69484 0.0
C2087 C 0.51954 0.90471 0.7444 0.0
C2088 C 0.51468 0.9158 0.72526 0.0
C2089 C 0.49994 0.94453 0.66821 0.0
C2090 C 0.50518 0.93525 0.68814 0.0
H2091 H 0.50568 0.86344 0.77121 0.0
H2092 H 0.49846 0.88134 0.74015 0.0
H2093 H 0.54503 0.92319 0.71751 0.0
H2094 H 0.50915 0.98524 0.63804 0.0
H2095 H 0.52 0.96923 0.66958 0.0
C2096 C 0.5345 0.3468 0.82522 0.0
C2097 C 0.51985 0.34115 0.81189 0.0
C2098 C 0.5356 0.3668 0.83103 0.0
C2099 C 0.50653 0.41315 0.83821 0.0
H2100 H 0.55793 0.43767 0.83635 0.0
C2101 C 0.55 0.48891 0.86254 0.0
C2102 C 0.54565 0.48818 0.88322 0.0
C2103 C 0.54245 0.47468 0.84978 0.0
C2104 C 0.54337 0.43123 0.83659 0.0
H2105 H 0.49501 0.35231 0.79403 0.0
H2106 H 0.49654 0.38706 0.80491 0.0
H2107 H 0.55459 0.40426 0.82252 0.0
H2108 H 0.52795 0.47343 0.9062 0.0
H2109 H 0.51452 0.44911 0.88395 0.0
H2110 H 0.49555 0.43979 0.85322 0.0
C2111 C 0.50712 0.37592 0.81077 0.0
C2112 C 0.54155 0.41202 0.82891 0.0
C2113 C 0.50619 0.35598 0.80471 0.0
C2114 C 0.53159 0.47458 0.89038 0.0
C2115 C 0.52389 0.46052 0.87759 0.0
C2116 C 0.50841 0.43232 0.84617 0.0
C2117 C 0.52194 0.38152 0.82383 0.0
C2118 C 0.52325 0.40264 0.83008 0.0
C2119 C 0.53018 0.4597 0.85745 0.0
C2120 C 0.52696 0.44135 0.8458 0.0
H2121 H 0.54509 0.33578 0.83124 0.0
H2122 H 0.54702 0.37075 0.84135 0.0
H2123 H 0.49225 0.40618 0.83926 0.0
H2124 H 0.56039 0.49952 0.85645 0.0
H2125 H 0.54724 0.47457 0.8342 0.0
C2126 C 0.52122 0.22843 0.84712 0.0
C2127 C 0.51331 0.22164 0.82925 0.0
C2128 C 0.52218 0.21581 0.86402 0.0
C2129 C 0.52185 0.1617 0.87837 0.0
H2130 H 0.51229 0.18221 0.93195 0.0
C2131 C 0.51149 0.10988 0.94743 0.0
C2132 C 0.52098 0.11497 0.96514 0.0
C2133 C 0.51131 0.12299 0.93092 0.0
C2134 C 0.51521 0.1763 0.91709 0.0
H2135 H 0.50055 0.1964 0.81474 0.0
H2136 H 0.50142 0.17459 0.84435 0.0
H2137 H 0.50984 0.2051 0.90321 0.0
H2138 H 0.53777 0.13789 0.97935 0.0
H2139 H 0.53739 0.16079 0.95051 0.0
H2140 H 0.52689 0.13285 0.89226 0.0
C2141 C 0.50713 0.18952 0.8454 0.0
C2142 C 0.51382 0.18942 0.9006 0.0
C2143 C 0.50632 0.20208 0.82852 0.0
C2144 C 0.53041 0.13344 0.96591 0.0
C2145 C 0.53006 0.14664 0.94945 0.0
C2146 C 0.52309 0.14858 0.89483 0.0
C2147 C 0.5153 0.1961 0.86333 0.0
C2148 C 0.51702 0.18227 0.881 0.0
C2149 C 0.52046 0.14159 0.93179 0.0
C2150 C 0.51971 0.1557 0.91437 0.0
H2151 H 0.52705 0.24334 0.84784 0.0
H2152 H 0.52884 0.2213 0.87743 0.0
H2153 H 0.52488 0.15569 0.86358 0.0
H2154 H 0.50405 0.0958 0.94632 0.0
H2155 H 0.50362 0.11873 0.91761 0.0
C2156 C 0.77906 0.56461 0.78522 0.0
C2157 C 0.79787 0.56792 0.77658 0.0
C2158 C 0.76171 0.56742 0.77392 0.0
C2159 C 0.74266 0.59212 0.72697 0.0
H2160 H 0.69893 0.55637 0.73444 0.0
C2161 C 0.67562 0.59459 0.67333 0.0
C2162 C 0.65644 0.59211 0.68159 0.0
C2163 C 0.69266 0.59116 0.68491 0.0
C2164 C 0.71087 0.56667 0.73227 0.0
H2165 H 0.81335 0.57605 0.74917 0.0
H2166 H 0.78328 0.58093 0.72942 0.0
H2167 H 0.72864 0.5516 0.75461 0.0
H2168 H 0.64038 0.58372 0.70869 0.0
H2169 H 0.66997 0.57784 0.72885 0.0
H2170 H 0.72494 0.6072 0.70466 0.0
C2171 C 0.78171 0.57664 0.74504 0.0
C2172 C 0.728 0.56393 0.7439 0.0
C2173 C 0.799 0.5738 0.75633 0.0
C2174 C 0.65485 0.58573 0.70172 0.0
C2175 C 0.67191 0.58227 0.71331 0.0
C2176 C 0.72556 0.59485 0.71535 0.0
C2177 C 0.76273 0.57353 0.75362 0.0
C2178 C 0.74422 0.57658 0.74141 0.0
C2179 C 0.69111 0.58512 0.70517 0.0
C2180 C 0.70938 0.58214 0.71773 0.0
H2181 H 0.77779 0.55987 0.80074 0.0
H2182 H 0.74746 0.56502 0.7812 0.0
H2183 H 0.75457 0.60246 0.72479 0.0
H2184 H 0.67753 0.59945 0.65791 0.0
H2185 H 0.7071 0.5932 0.6779 0.0
C2186 C 0.25616 0.01736 0.78712 0.0
C2187 C 0.26339 0.02121 0.80621 0.0
C2188 C 0.2693 0.01489 0.7707 0.0
C2189 C 0.32005 0.02739 0.75324 0.0
H2190 H 0.31129 0.98814 0.71221 0.0
C2191 C 0.37636 0.01346 0.68745 0.0
C2192 C 0.36866 1.01005 0.66838 0.0
C2193 C 0.36388 0.01409 0.70451 0.0
C2194 C 0.31386 0.99935 0.72339 0.0
H2195 H 0.28989 0.02502 0.82335 0.0
H2196 H 0.31297 0.0206 0.79474 0.0
H2197 H 0.28899 0.99025 0.74141 0.0
H2198 H 0.34162 1.00426 0.65259 0.0
H2199 H 0.31987 1.00587 0.68213 0.0
H2200 H 0.34476 0.03667 0.73516 0.0
C2201 C 0.29716 0.01974 0.79231 0.0
C2202 C 0.30105 1.00054 0.74019 0.0
C2203 C 0.284 0.02213 0.80872 0.0
C2204 C 0.34811 1.0072 0.66692 0.0
C2205 C 0.33563 1.00784 0.68397 0.0
C2206 C 0.33282 0.02625 0.73642 0.0
C2207 C 0.28998 0.01627 0.77302 0.0
C2208 C 0.30392 0.01462 0.75533 0.0
C2209 C 0.3433 1.01133 0.70303 0.0
C2210 C 0.32989 1.01226 0.7212 0.0
H2211 H 0.2403 0.01668 0.78486 0.0
H2212 H 0.26319 1.01245 0.75609 0.0
H2213 H 0.32257 0.03864 0.7644 0.0
H2214 H 0.39205 0.01592 0.68921 0.0
H2215 H 0.37042 0.01658 0.71892 0.0
C2216 C 0.79566 0.57735 0.89223 0.0
C2217 C 0.8108 0.56233 0.89031 0.0
C2218 C 0.7823 0.57708 0.90851 0.0
C2219 C 0.75993 0.53959 0.94043 0.0
H2220 H 0.73267 0.58533 0.96564 0.0
C2221 C 0.68788 0.52696 0.98243 0.0
C2222 C 0.67232 0.54061 0.97765 0.0
C2223 C 0.70756 0.53192 0.97878 0.0
C2224 C 0.74013 0.5724 0.95873 0.0
H2225 H 0.82507 0.53644 0.90478 0.0
H2226 H 0.80173 0.53596 0.93322 0.0
H2227 H 0.76307 0.59022 0.9457 0.0
H2228 H 0.66469 0.57054 0.96671 0.0
H2229 H 0.69909 0.57892 0.95901 0.0
H2230 H 0.73668 0.5219 0.95201 0.0
C2231 C 0.79995 0.5477 0.92196 0.0
C2232 C 0.75756 0.57521 0.94739 0.0
C2233 C 0.81324 0.54793 0.90567 0.0
C2234 C 0.67661 0.55985 0.97051 0.0
C2235 C 0.69633 0.56463 0.96623 0.0
C2236 C 0.74253 0.53682 0.95153 0.0
C2237 C 0.78389 0.56181 0.92316 0.0
C2238 C 0.76737 0.55886 0.93777 0.0
C2239 C 0.71198 0.55033 0.96948 0.0
C2240 C 0.73211 0.55322 0.96048 0.0
H2241 H 0.79341 0.5886 0.88057 0.0
H2242 H 0.76997 0.58804 0.9089 0.0
H2243 H 0.76688 0.52674 0.93289 0.0
H2244 H 0.68477 0.51212 0.98826 0.0
H2245 H 0.71923 0.52082 0.98218 0.0
C2246 C 0.25387 0.03991 0.9533 0.0
C2247 C 0.25789 0.02594 0.93797 0.0
C2248 C 0.26414 0.03842 0.97128 0.0
C2249 C 0.29959 1.0053 1.00024 0.0
H2250 H 0.32454 0.05548 1.01093 0.0
C2251 C 0.38121 1.01185 0.01388 0.0
C2252 C 0.38831 0.02839 0.02409 0.0
C2253 C 0.36085 1.00898 1.01289 0.0
C2254 C 0.31736 0.0414 1.00875 0.0
H2255 H 0.27524 0.99908 0.92973 0.0
H2256 H 0.29332 0.99665 0.96081 0.0
H2257 H 0.29542 0.05563 0.99021 0.0
H2258 H 0.37972 0.05336 0.04341 0.0
H2259 H 0.34399 0.04855 0.04129 0.0
H2260 H 0.32264 0.99096 0.01757 0.0
C2261 C 0.28197 1.00851 0.95923 0.0
C2262 C 0.30061 0.04148 0.99677 0.0
C2263 C 0.2717 1.00997 0.94132 0.0
C2264 C 0.37468 0.04079 0.03498 0.0
C2265 C 0.35424 0.03797 0.03388 0.0
C2266 C 0.3164 1.00521 1.0122 0.0
C2267 C 0.27864 0.02296 0.97425 0.0
C2268 C 0.29227 0.02332 0.99143 0.0
C2269 C 0.34711 0.02263 0.02199 0.0
C2270 C 0.32613 0.02314 0.01556 0.0
H2271 H 0.24298 0.05214 0.95127 0.0
H2272 H 0.26111 0.04967 0.98264 0.0
H2273 H 0.29315 0.99111 0.99679 0.0
H2274 H 0.3912 1.00207 1.00519 0.0
H2275 H 0.35589 0.99713 1.00342 0.0
C2276 C 0.80451 0.79042 0.52993 0.0
C2277 C 0.80421 0.81106 0.53395 0.0
C2278 C 0.78747 0.7794 0.53333 0.0
C2279 C 0.74117 0.77923 0.56333 0.0
H2280 H 0.72595 0.73938 0.5252 0.0
C2281 C 0.67268 0.73066 0.57764 0.0
C2282 C 0.67536 0.71014 0.57317 0.0
C2283 C 0.6867 0.74445 0.57114 0.0
C2284 C 0.73007 0.75034 0.53609 0.0
H2285 H 0.78622 0.83647 0.54469 0.0
H2286 H 0.75632 0.81715 0.55087 0.0
H2287 H 0.75398 0.76048 0.51738 0.0
H2288 H 0.69494 0.68808 0.55831 0.0
H2289 H 0.71928 0.71192 0.54716 0.0
H2290 H 0.71769 0.76874 0.58232 0.0
C2291 C 0.76968 0.80948 0.54507 0.0
C2292 C 0.74612 0.76244 0.53158 0.0
C2293 C 0.78669 0.82053 0.54149 0.0
C2294 C 0.69215 0.70382 0.56168 0.0
C2295 C 0.70617 0.71755 0.55527 0.0
C2296 C 0.72519 0.76703 0.56791 0.0
C2297 C 0.76988 0.78878 0.54103 0.0
C2298 C 0.75202 0.77684 0.54526 0.0
C2299 C 0.70378 0.73801 0.5601 0.0
C2300 C 0.7196 0.75222 0.55447 0.0
H2301 H 0.81797 0.78284 0.52427 0.0
H2302 H 0.78819 0.76343 0.53034 0.0
H2303 H 0.74547 0.79007 0.57427 0.0
H2304 H 0.65982 0.73603 0.58632 0.0
H2305 H 0.68423 0.76014 0.57489 0.0
C2306 C 0.75292 0.34116 0.01669 0.0
C2307 C 0.76931 0.343 0.02927 0.0
C2308 C 0.73869 0.35704 0.01444 0.0
C2309 C 0.71916 0.40412 0.03916 0.0
H2310 H 0.69663 0.41627 0.98727 0.0
C2311 C 0.66999 0.47661 0.02439 0.0
C2312 C 0.65426 0.47563 1.01088 0.0
C2313 C 0.6835 0.46019 0.02705 0.0
C2314 C 0.70251 0.41297 1.00197 0.0
H2315 H 0.78369 0.36366 0.04877 0.0
H2316 H 0.75903 0.39103 0.04497 0.0
H2317 H 0.72088 0.38837 0.9908 0.0
H2318 H 0.64032 0.45617 0.9899 0.0
H2319 H 0.66346 0.4276 0.9948 0.0
H2320 H 0.70078 0.42867 0.05036 0.0
C2321 C 0.75689 0.37715 0.03712 0.0
C2322 C 0.7165 0.3969 1.00399 0.0
C2323 C 0.7711 0.36134 0.03932 0.0
C2324 C 0.65222 0.45759 1.00042 0.0
C2325 C 0.66568 0.44118 1.0031 0.0
C2326 C 0.70512 0.42016 0.03716 0.0
C2327 C 0.74039 0.37526 0.02473 0.0
C2328 C 0.72513 0.39224 0.0226 0.0
C2329 C 0.6817 0.44225 0.01629 0.0
C2330 C 0.69657 0.42491 0.01852 0.0
H2331 H 0.75081 0.32728 1.00885 0.0
H2332 H 0.72613 0.35487 1.00492 0.0
H2333 H 0.72515 0.40087 0.05382 0.0
H2334 H 0.67221 0.49026 0.0326 0.0
H2335 H 0.69571 0.46181 0.03716 0.0
C2336 C 0.44913 0.28987 0.041 0.0
C2337 C 0.43593 0.29318 0.02515 0.0
C2338 C 0.45994 0.27152 0.04281 0.0
C2339 C 0.47766 0.2262 0.01532 0.0
H2340 H 0.46982 0.19777 0.0657 0.0
C2341 C 0.50724 0.14402 0.02839 0.0
C2342 C 0.49168 0.13133 0.03353 0.0
C2343 C 0.5043 0.16498 0.02955 0.0
C2344 C 0.47236 0.20563 0.05164 0.0
H2345 H 0.42438 0.28041 0.99828 0.0
H2346 H 0.4436 0.24861 1.00111 0.0
H2347 H 0.45797 0.23285 0.06232 0.0
H2348 H 0.46139 0.13037 0.04496 0.0
H2349 H 0.45655 0.16675 0.04778 0.0
H2350 H 0.49156 0.19877 1.00449 0.0
C2351 C 0.44553 0.26008 1.01222 0.0
C2352 C 0.46567 0.22572 0.04973 0.0
C2353 C 0.43446 0.27823 1.01064 0.0
C2354 C 0.47365 0.13983 0.04101 0.0
C2355 C 0.4709 0.16065 0.04264 0.0
C2356 C 0.48466 0.20621 0.01735 0.0
C2357 C 0.45804 0.25633 0.02856 0.0
C2358 C 0.46776 0.23606 0.03138 0.0
C2359 C 0.48595 0.17349 0.03637 0.0
C2360 C 0.48161 0.19555 0.03536 0.0
H2361 H 0.45041 0.3011 0.05247 0.0
H2362 H 0.46952 0.26905 0.05552 0.0
H2363 H 0.47954 0.23382 1.00104 0.0
H2364 H 0.52121 0.13784 0.02238 0.0
H2365 H 0.51616 0.17454 0.02464 0.0
C2366 C 0.87923 0.3487 0.01353 0.0
C2367 C 0.88206 0.32864 0.01958 0.0
C2368 C 0.89569 0.36027 1.00917 0.0
C2369 C 0.9337 0.37994 0.99489 0.0
H2370 H 0.96918 0.37903 0.03997 0.0
C2371 C 0.99365 0.43048 0.0392 0.0
C2372 C 0.98183 0.44831 0.03868 0.0
C2373 C 0.98764 0.41346 0.0292 0.0
C2374 C 0.95997 0.37917 0.02684 0.0
H2375 H 0.90373 0.30442 0.02504 0.0
H2376 H 0.93258 0.32466 0.01759 0.0
H2377 H 0.94558 0.35278 0.03687 0.0
H2378 H 0.95597 0.46317 0.02533 0.0
H2379 H 0.94524 0.43367 1.00855 0.0
H2380 H 0.94755 0.40693 0.98538 0.0
C2381 C 0.91779 0.33151 0.01623 0.0
C2382 C 0.94631 0.36411 0.02514 0.0
C2383 C 0.90136 0.31998 0.02052 0.0
C2384 C 0.96513 0.44947 0.02639 0.0
C2385 C 0.95914 0.43255 0.01647 0.0
C2386 C 0.94755 0.39492 0.99646 0.0
C2387 C 0.91513 0.35187 1.01091 0.0
C2388 C 0.93238 0.36495 1.00974 0.0
C2389 C 0.96975 0.41408 0.01857 0.0
C2390 C 0.96003 0.39533 1.01311 0.0
H2391 H 0.86437 0.35549 1.01269 0.0
H2392 H 0.89324 0.37602 1.0054 0.0
H2393 H 0.92336 0.38067 0.98265 0.0
H2394 H 1.00678 0.42928 0.04834 0.0
H2395 H 0.99634 0.39953 0.03078 0.0
loop_
_geom_bond_atom_site_label_1
_geom_bond_atom_site_label_2
_geom_bond_distance
_geom_bond_site_symmetry_2
_ccdc_geom_bond_type
C0 C1 1.443 1_455 S
C0 N4 1.376 . S
C0 C38 1.389 . S
C1 C0 1.443 1_655 S
C1 C2 1.340 . S
C1 H41 0.951 . S
C2 C1 1.340 . S
C2 C3 1.439 . S
C2 H42 0.950 . S
C3 C2 1.439 . S
C3 N4 1.374 1_655 S
C3 C37 1.395 . S
N4 C0 1.376 . S
N4 C3 1.374 1_455 S
N4 Co5 2.008 . S
Co5 N4 2.008 . S
Co5 N6 1.995 . S
Co5 N11 2.008 . S
Co5 N16 1.995 . S
Co5 N21 2.282 . S
Co5 N27 2.282 . S
N6 Co5 1.995 . S
N6 C7 1.376 1_455 S
N6 C10 1.383 . S
C7 N6 1.376 1_655 S
C7 C8 1.446 . S
C7 C37 1.391 . S
C8 C7 1.446 . S
C8 C9 1.339 1_655 S
C8 H43 0.949 . S
C9 C8 1.339 1_455 S
C9 C10 1.439 . S
C9 H44 0.950 . S
C10 N6 1.383 . S
C10 C9 1.439 . S
C10 C39 1.392 . S
N11 Co5 2.008 . S
N11 C12 1.376 . S
N11 C15 1.374 . S
C12 N11 1.376 . S
C12 C13 1.443 . S
C12 C39 1.389 . S
C13 C12 1.443 . S
C13 C14 1.340 . S
C13 H45 0.951 . S
C14 C13 1.340 . S
C14 C15 1.439 . S
C14 H46 0.950 . S
C15 N11 1.374 . S
C15 C14 1.439 . S
C15 C40 1.395 . S
N16 Co5 1.995 . S
N16 C17 1.376 . S
N16 C20 1.383 . S
C17 N16 1.376 . S
C17 C18 1.446 . S
C17 C40 1.391 . S
C18 C17 1.446 . S
C18 C19 1.339 . S
C18 H47 0.949 . S
C19 C18 1.339 . S
C19 C20 1.439 . S
C19 H48 0.950 . S
C20 N16 1.383 . S
C20 C19 1.439 . S
C20 C38 1.392 . S
N21 Co5 2.282 . S
N21 C24 1.332 . S
N21 C26 1.332 . S
C22 C23 1.386 . S
C22 C25 1.388 . S
C23 C22 1.386 . S
C23 C24 1.382 . S
C23 H49 0.950 . S
C24 N21 1.332 . S
C24 C23 1.382 . S
C24 H35 0.952 . S
C25 C22 1.388 . S
C25 C26 1.382 . S
C25 H50 0.950 . S
C26 N21 1.332 . S
C26 C25 1.382 . S
C26 H36 0.948 . S
N27 Co5 2.282 . S
N27 C31 1.332 . S
N27 C32 1.332 . S
C28 C29 1.388 . S
C28 C32 1.382 . S
C28 H51 0.950 . S
C29 C28 1.388 . S
C29 C30 1.386 . S
C30 C29 1.386 . S
C30 C31 1.382 . S
C30 H52 0.950 1_455 S
C31 N27 1.332 . S
C31 C30 1.382 . S
C31 H33 0.951 1_455 S
C32 N27 1.332 . S
C32 C28 1.382 . S
C32 H34 0.948 . S
H33 C31 0.951 1_655 S
H34 C32 0.948 . S
H35 C24 0.952 . S
H36 C26 0.948 . S
C37 C3 1.395 . S
C37 C7 1.391 . S
C38 C0 1.389 . S
C38 C20 1.392 . S
C39 C10 1.392 . S
C39 C12 1.389 . S
C40 C15 1.395 . S
C40 C17 1.391 . S
H41 C1 0.951 . S
H42 C2 0.950 . S
H43 C8 0.949 . S
H44 C9 0.950 . S
H45 C13 0.951 . S
H46 C14 0.950 . S
H47 C18 0.949 . S
H48 C19 0.950 . S
H49 C23 0.950 . S
H50 C25 0.950 . S
H51 C28 0.950 . S
H52 C30 0.950 1_655 S
C53 C54 1.443 . S
C53 N57 1.376 . S
C53 C91 1.389 . S
C54 C53 1.443 . S
C54 C55 1.340 . S
C54 H94 0.951 . S
C55 C54 1.340 . S
C55 C56 1.439 . S
C55 H95 0.950 . S
C56 C55 1.439 . S
C56 N57 1.374 . S
C56 C90 1.395 . S
N57 C53 1.376 . S
N57 C56 1.374 . S
N57 Co58 2.008 1_655 S
Co58 N57 2.008 1_455 S
Co58 N59 1.995 1_455 S
Co58 N64 2.008 . S
Co58 N69 1.995 . S
Co58 N74 2.282 . S
Co58 N80 2.282 1_455 S
N59 Co58 1.995 1_655 S
N59 C60 1.376 . S
N59 C63 1.383 . S
C60 N59 1.376 . S
C60 C61 1.446 . S
C60 C90 1.391 . S
C61 C60 1.446 . S
C61 C62 1.339 . S
C61 H96 0.949 . S
C62 C61 1.339 . S
C62 C63 1.439 . S
C62 H97 0.950 . S
C63 N59 1.383 . S
C63 C62 1.439 . S
C63 C92 1.392 1_655 S
N64 Co58 2.008 . S
N64 C65 1.376 . S
N64 C68 1.374 . S
C65 N64 1.376 . S
C65 C66 1.443 . S
C65 C92 1.389 . S
C66 C65 1.443 . S
C66 C67 1.340 . S
C66 H98 0.951 . S
C67 C66 1.340 . S
C67 C68 1.439 . S
C67 H99 0.950 . S
C68 N64 1.374 . S
C68 C67 1.439 . S
C68 C93 1.395 . S
N69 Co58 1.995 . S
N69 C70 1.376 . S
N69 C73 1.383 . S
C70 N69 1.376 . S
C70 C71 1.446 . S
C70 C93 1.391 . S
C71 C70 1.446 . S
C71 C72 1.339 . S
C71 H100 0.949 . S
C72 C71 1.339 . S
C72 C73 1.439 . S
C72 H101 0.950 . S
C73 N69 1.383 . S
C73 C72 1.439 . S
C73 C91 1.392 1_455 S
N74 Co58 2.282 . S
N74 C77 1.332 . S
N74 C79 1.332 1_455 S
C75 C76 1.386 . S
C75 C78 1.388 1_455 S
C76 C75 1.386 . S
C76 C77 1.382 . S
C76 H102 0.950 . S
C77 N74 1.332 . S
C77 C76 1.382 . S
C77 H88 0.952 . S
C78 C75 1.388 1_655 S
C78 C79 1.382 . S
C78 H103 0.950 . S
C79 N74 1.332 1_655 S
C79 C78 1.382 . S
C79 H89 0.948 . S
N80 Co58 2.282 1_655 S
N80 C84 1.332 . S
N80 C85 1.332 1_655 S
C81 C82 1.388 1_455 S
C81 C85 1.382 . S
C81 H104 0.950 . S
C82 C81 1.388 1_655 S
C82 C83 1.386 . S
C83 C82 1.386 . S
C83 C84 1.382 . S
C83 H105 0.950 . S
C84 N80 1.332 . S
C84 C83 1.382 . S
C84 H86 0.952 . S
C85 N80 1.332 1_455 S
C85 C81 1.382 . S
C85 H87 0.948 . S
H86 C84 0.952 . S
H87 C85 0.948 . S
H88 C77 0.952 . S
H89 C79 0.948 . S
C90 C56 1.395 . S
C90 C60 1.391 . S
C91 C53 1.389 . S
C91 C73 1.392 1_655 S
C92 C63 1.392 1_455 S
C92 C65 1.389 . S
C93 C68 1.395 . S
C93 C70 1.391 . S
H94 C54 0.951 . S
H95 C55 0.950 . S
H96 C61 0.949 . S
H97 C62 0.950 . S
H98 C66 0.951 . S
H99 C67 0.950 . S
H100 C71 0.949 . S
H101 C72 0.950 . S
H102 C76 0.950 . S
H103 C78 0.950 . S
H104 C81 0.950 . S
H105 C83 0.950 . S
C106 C107 1.443 . S
C106 N110 1.376 . S
C106 C144 1.389 1_565 S
C107 C106 1.443 . S
C107 C108 1.340 . S
C107 H147 0.951 . S
C108 C107 1.340 . S
C108 C109 1.439 . S
C108 H148 0.950 . S
C109 C108 1.439 . S
C109 N110 1.374 . S
C109 C143 1.395 . S
N110 C106 1.376 . S
N110 C109 1.374 . S
N110 Co111 2.008 1_565 S
Co111 N110 2.008 1_545 S
Co111 N112 1.995 . S
Co111 N117 2.008 . S
Co111 N122 1.995 . S
Co111 N127 2.282 . S
Co111 N133 2.282 . S
N112 Co111 1.995 . S
N112 C113 1.376 1_545 S
N112 C116 1.383 . S
C113 N112 1.376 1_565 S
C113 C114 1.446 . S
C113 C143 1.391 . S
C114 C113 1.446 . S
C114 C115 1.339 . S
C114 H149 0.949 . S
C115 C114 1.339 . S
C115 C116 1.439 1_565 S
C115 H150 0.950 . S
C116 N112 1.383 . S
C116 C115 1.439 1_545 S
C116 C145 1.392 . S
N117 Co111 2.008 . S
N117 C118 1.376 . S
N117 C121 1.374 . S
C118 N117 1.376 . S
C118 C119 1.443 . S
C118 C145 1.389 . S
C119 C118 1.443 . S
C119 C120 1.340 . S
C119 H151 0.951 . S
C120 C119 1.340 . S
C120 C121 1.439 . S
C120 H152 0.950 . S
C121 N117 1.374 . S
C121 C120 1.439 . S
C121 C146 1.395 . S
N122 Co111 1.995 . S
N122 C123 1.376 . S
N122 C126 1.383 . S
C123 N122 1.376 . S
C123 C124 1.446 . S
C123 C146 1.391 . S
C124 C123 1.446 . S
C124 C125 1.339 . S
C124 H153 0.949 . S
C125 C124 1.339 . S
C125 C126 1.439 . S
C125 H154 0.950 . S
C126 N122 1.383 . S
C126 C125 1.439 . S
C126 C144 1.392 . S
N127 Co111 2.282 . S
N127 C130 1.332 . S
N127 C132 1.332 . S
C128 C129 1.386 . S
C128 C131 1.388 . S
C129 C128 1.386 . S
C129 C130 1.382 . S
C129 H155 0.950 . S
C130 N127 1.332 . S
C130 C129 1.382 . S
C130 H141 0.952 . S
C131 C128 1.388 . S
C131 C132 1.382 . S
C131 H156 0.950 . S
C132 N127 1.332 . S
C132 C131 1.382 . S
C132 H142 0.948 1_545 S
N133 Co111 2.282 . S
N133 C137 1.332 1_545 S
N133 C138 1.332 . S
C134 C135 1.388 . S
C134 C138 1.382 . S
C134 H157 0.950 . S
C135 C134 1.388 . S
C135 C136 1.386 1_545 S
C136 C135 1.386 1_565 S
C136 C137 1.382 . S
C136 H158 0.950 . S
C137 N133 1.332 1_565 S
C137 C136 1.382 . S
C137 H139 0.952 . S
C138 N133 1.332 . S
C138 C134 1.382 . S
C138 H140 0.948 . S
H139 C137 0.952 . S
H140 C138 0.948 . S
H141 C130 0.952 . S
H142 C132 0.948 1_565 S
C143 C109 1.395 . S
C143 C113 1.391 . S
C144 C106 1.389 1_545 S
C144 C126 1.392 . S
C145 C116 1.392 . S
C145 C118 1.389 . S
C146 C121 1.395 . S
C146 C123 1.391 . S
H147 C107 0.951 . S
H148 C108 0.950 . S
H149 C114 0.949 . S
H150 C115 0.950 . S
H151 C119 0.951 . S
H152 C120 0.950 . S
H153 C124 0.949 . S
H154 C125 0.950 . S
H155 C129 0.950 . S
H156 C131 0.950 . S
H157 C134 0.950 . S
H158 C136 0.950 . S
C159 C160 1.443 . S
C159 N163 1.376 . S
C159 C197 1.389 . S
C160 C159 1.443 . S
C160 C161 1.340 . S
C160 H200 0.951 . S
C161 C160 1.340 . S
C161 C162 1.439 . S
C161 H201 0.950 . S
C162 C161 1.439 . S
C162 N163 1.374 . S
C162 C196 1.395 . S
N163 C159 1.376 . S
N163 C162 1.374 . S
N163 Co164 2.008 . S
Co164 N163 2.008 . S
Co164 N165 1.995 . S
Co164 N170 2.008 . S
Co164 N175 1.995 . S
Co164 N180 2.282 . S
Co164 N186 2.282 . S
N165 Co164 1.995 . S
N165 C166 1.376 . S
N165 C169 1.383 . S
C166 N165 1.376 . S
C166 C167 1.446 . S
C166 C196 1.391 . S
C167 C166 1.446 . S
C167 C168 1.339 . S
C167 H202 0.949 . S
C168 C167 1.339 . S
C168 C169 1.439 . S
C168 H203 0.950 . S
C169 N165 1.383 . S
C169 C168 1.439 . S
C169 C198 1.392 . S
N170 Co164 2.008 . S
N170 C171 1.376 . S
N170 C174 1.374 . S
C171 N170 1.376 . S
C171 C172 1.443 . S
C171 C198 1.389 . S
C172 C171 1.443 . S
C172 C173 1.340 . S
C172 H204 0.951 . S
C173 C172 1.340 . S
C173 C174 1.439 . S
C173 H205 0.950 . S
C174 N170 1.374 . S
C174 C173 1.439 . S
C174 C199 1.395 . S
N175 Co164 1.995 . S
N175 C176 1.376 . S
N175 C179 1.383 . S
C176 N175 1.376 . S
C176 C177 1.446 . S
C176 C199 1.391 . S
C177 C176 1.446 . S
C177 C178 1.339 . S
C177 H206 0.949 . S
C178 C177 1.339 . S
C178 C179 1.439 . S
C178 H207 0.950 . S
C179 N175 1.383 . S
C179 C178 1.439 . S
C179 C197 1.392 . S
N180 Co164 2.282 . S
N180 C183 1.332 . S
N180 C185 1.332 . S
C181 C182 1.386 . S
C181 C184 1.388 . S
C182 C181 1.386 . S
C182 C183 1.382 . S
C182 H208 0.950 . S
C183 N180 1.332 . S
C183 C182 1.382 . S
C183 H194 0.952 . S
C184 C181 1.388 . S
C184 C185 1.382 . S
C184 H209 0.950 . S
C185 N180 1.332 . S
C185 C184 1.382 . S
C185 H195 0.948 . S
N186 Co164 2.282 . S
N186 C190 1.332 . S
N186 C191 1.332 . S
C187 C188 1.388 . S
C187 C191 1.382 . S
C187 H210 0.950 . S
C188 C187 1.388 . S
C188 C189 1.386 . S
C189 C188 1.386 . S
C189 C190 1.382 . S
C189 H211 0.950 . S
C190 N186 1.332 . S
C190 C189 1.382 . S
C190 H192 0.952 . S
C191 N186 1.332 . S
C191 C187 1.382 . S
C191 H193 0.948 . S
H192 C190 0.952 . S
H193 C191 0.948 . S
H194 C183 0.952 . S
H195 C185 0.948 . S
C196 C162 1.395 . S
C196 C166 1.391 . S
C197 C159 1.389 . S
C197 C179 1.392 . S
C198 C169 1.392 . S
C198 C171 1.389 . S
C199 C174 1.395 . S
C199 C176 1.391 . S
H200 C160 0.951 . S
H201 C161 0.950 . S
H202 C167 0.949 . S
H203 C168 0.950 . S
H204 C172 0.951 . S
H205 C173 0.950 . S
H206 C177 0.949 . S
H207 C178 0.950 . S
H208 C182 0.950 . S
H209 C184 0.950 . S
H210 C187 0.950 . S
H211 C189 0.950 . S
C212 C213 1.443 . S
C212 N216 1.376 . S
C212 C250 1.389 . S
C213 C212 1.443 . S
C213 C214 1.340 . S
C213 H253 0.951 . S
C214 C213 1.340 . S
C214 C215 1.439 . S
C214 H254 0.950 . S
C215 C214 1.439 . S
C215 N216 1.374 . S
C215 C249 1.395 . S
N216 C212 1.376 . S
N216 C215 1.374 . S
N216 Co217 2.008 1_556 S
Co217 N216 2.008 1_554 S
Co217 N218 1.995 1_554 S
Co217 N223 2.008 . S
Co217 N228 1.995 . S
Co217 N233 2.282 . S
Co217 N239 2.282 1_554 S
N218 Co217 1.995 1_556 S
N218 C219 1.376 . S
N218 C222 1.383 . S
C219 N218 1.376 . S
C219 C220 1.446 . S
C219 C249 1.391 . S
C220 C219 1.446 . S
C220 C221 1.339 . S
C220 H255 0.949 . S
C221 C220 1.339 . S
C221 C222 1.439 . S
C221 H256 0.950 . S
C222 N218 1.383 . S
C222 C221 1.439 . S
C222 C251 1.392 1_556 S
N223 Co217 2.008 . S
N223 C224 1.376 . S
N223 C227 1.374 . S
C224 N223 1.376 . S
C224 C225 1.443 . S
C224 C251 1.389 . S
C225 C224 1.443 . S
C225 C226 1.340 . S
C225 H257 0.951 . S
C226 C225 1.340 . S
C226 C227 1.439 . S
C226 H258 0.950 . S
C227 N223 1.374 . S
C227 C226 1.439 . S
C227 C252 1.395 . S
N228 Co217 1.995 . S
N228 C229 1.376 . S
N228 C232 1.383 . S
C229 N228 1.376 . S
C229 C230 1.446 . S
C229 C252 1.391 . S
C230 C229 1.446 . S
C230 C231 1.339 . S
C230 H259 0.949 . S
C231 C230 1.339 . S
C231 C232 1.439 . S
C231 H260 0.950 . S
C232 N228 1.383 . S
C232 C231 1.439 . S
C232 C250 1.392 1_554 S
N233 Co217 2.282 . S
N233 C236 1.332 . S
N233 C238 1.332 1_554 S
C234 C235 1.386 . S
C234 C237 1.388 1_554 S
C235 C234 1.386 . S
C235 C236 1.382 . S
C235 H261 0.950 . S
C236 N233 1.332 . S
C236 C235 1.382 . S
C236 H247 0.952 . S
C237 C234 1.388 1_556 S
C237 C238 1.382 . S
C237 H262 0.950 . S
C238 N233 1.332 1_556 S
C238 C237 1.382 . S
C238 H248 0.948 . S
N239 Co217 2.282 1_556 S
N239 C243 1.332 . S
N239 C244 1.332 1_556 S
C240 C241 1.388 1_554 S
C240 C244 1.382 . S
C240 H263 0.950 . S
C241 C240 1.388 1_556 S
C241 C242 1.386 . S
C242 C241 1.386 . S
C242 C243 1.382 . S
C242 H264 0.950 . S
C243 N239 1.332 . S
C243 C242 1.382 . S
C243 H245 0.952 . S
C244 N239 1.332 1_554 S
C244 C240 1.382 . S
C244 H246 0.948 . S
H245 C243 0.952 . S
H246 C244 0.948 . S
H247 C236 0.952 . S
H248 C238 0.948 . S
C249 C215 1.395 . S
C249 C219 1.391 . S
C250 C212 1.389 . S
C250 C232 1.392 1_556 S
C251 C222 1.392 1_554 S
C251 C224 1.389 . S
C252 C227 1.395 . S
C252 C229 1.391 . S
H253 C213 0.951 . S
H254 C214 0.950 . S
H255 C220 0.949 . S
H256 C221 0.950 . S
H257 C225 0.951 . S
H258 C226 0.950 . S
H259 C230 0.949 . S
H260 C231 0.950 . S
H261 C235 0.950 . S
H262 C237 0.950 . S
H263 C240 0.950 . S
H264 C242 0.950 . S
C265 C266 1.443 . S
C265 N269 1.376 . S
C265 C303 1.389 . S
C266 C265 1.443 . S
C266 C267 1.340 . S
C266 H306 0.951 . S
C267 C266 1.340 . S
C267 C268 1.439 . S
C267 H307 0.950 . S
C268 C267 1.439 . S
C268 N269 1.374 . S
C268 C302 1.395 . S
N269 C265 1.376 . S
N269 C268 1.374 . S
N269 Co270 2.008 . S
Co270 N269 2.008 . S
Co270 N271 1.995 . S
Co270 N276 2.008 . S
Co270 N281 1.995 . S
Co270 N286 2.282 . S
Co270 N292 2.282 . S
N271 Co270 1.995 . S
N271 C272 1.376 . S
N271 C275 1.383 . S
C272 N271 1.376 . S
C272 C273 1.446 . S
C272 C302 1.391 . S
C273 C272 1.446 . S
C273 C274 1.339 . S
C273 H308 0.949 . S
C274 C273 1.339 . S
C274 C275 1.439 . S
C274 H309 0.950 . S
C275 N271 1.383 . S
C275 C274 1.439 . S
C275 C304 1.392 . S
N276 Co270 2.008 . S
N276 C277 1.376 . S
N276 C280 1.374 . S
C277 N276 1.376 . S
C277 C278 1.443 . S
C277 C304 1.389 . S
C278 C277 1.443 . S
C278 C279 1.340 . S
C278 H310 0.951 . S
C279 C278 1.340 . S
C279 C280 1.439 . S
C279 H311 0.950 . S
C280 N276 1.374 . S
C280 C279 1.439 . S
C280 C305 1.395 . S
N281 Co270 1.995 . S
N281 C282 1.376 . S
N281 C285 1.383 . S
C282 N281 1.376 . S
C282 C283 1.446 . S
C282 C305 1.391 . S
C283 C282 1.446 . S
C283 C284 1.339 . S
C283 H312 0.949 . S
C284 C283 1.339 . S
C284 C285 1.439 . S
C284 H313 0.950 . S
C285 N281 1.383 . S
C285 C284 1.439 . S
C285 C303 1.392 . S
N286 Co270 2.282 . S
N286 C289 1.332 . S
N286 C291 1.332 . S
C287 C288 1.386 . S
C287 C290 1.388 . S
C288 C287 1.386 . S
C288 C289 1.382 . S
C288 H314 0.950 . S
C289 N286 1.332 . S
C289 C288 1.382 . S
C289 H300 0.952 . S
C290 C287 1.388 . S
C290 C291 1.382 . S
C290 H315 0.950 . S
C291 N286 1.332 . S
C291 C290 1.382 . S
C291 H301 0.948 . S
N292 Co270 2.282 . S
N292 C296 1.332 . S
N292 C297 1.332 . S
C293 C294 1.388 . S
C293 C297 1.382 . S
C293 H316 0.950 . S
C294 C293 1.388 . S
C294 C295 1.386 . S
C295 C294 1.386 . S
C295 C296 1.382 . S
C295 H317 0.950 . S
C296 N292 1.332 . S
C296 C295 1.382 . S
C296 H298 0.952 . S
C297 N292 1.332 . S
C297 C293 1.382 . S
C297 H299 0.948 . S
H298 C296 0.952 . S
H299 C297 0.948 . S
H300 C289 0.952 . S
H301 C291 0.948 . S
C302 C268 1.395 . S
C302 C272 1.391 . S
C303 C265 1.389 . S
C303 C285 1.392 . S
C304 C275 1.392 . S
C304 C277 1.389 . S
C305 C280 1.395 . S
C305 C282 1.391 . S
H306 C266 0.951 . S
H307 C267 0.950 . S
H308 C273 0.949 . S
H309 C274 0.950 . S
H310 C278 0.951 . S
H311 C279 0.950 . S
H312 C283 0.949 . S
H313 C284 0.950 . S
H314 C288 0.950 . S
H315 C290 0.950 . S
H316 C293 0.950 . S
H317 C295 0.950 . S
C318 C319 1.443 . S
C318 N322 1.376 . S
C318 C356 1.389 . S
C319 C318 1.443 . S
C319 C320 1.340 . S
C319 H359 0.951 . S
C320 C319 1.340 . S
C320 C321 1.439 . S
C320 H360 0.950 . S
C321 C320 1.439 . S
C321 N322 1.374 . S
C321 C355 1.395 . S
N322 C318 1.376 . S
N322 C321 1.374 . S
N322 Co323 2.008 . S
Co323 N322 2.008 . S
Co323 N324 1.995 . S
Co323 N329 2.008 . S
Co323 N334 1.995 . S
Co323 N339 2.282 . S
Co323 N345 2.282 . S
N324 Co323 1.995 . S
N324 C325 1.376 . S
N324 C328 1.383 . S
C325 N324 1.376 . S
C325 C326 1.446 . S
C325 C355 1.391 . S
C326 C325 1.446 . S
C326 C327 1.339 . S
C326 H361 0.949 . S
C327 C326 1.339 . S
C327 C328 1.439 . S
C327 H362 0.950 . S
C328 N324 1.383 . S
C328 C327 1.439 . S
C328 C357 1.392 . S
N329 Co323 2.008 . S
N329 C330 1.376 . S
N329 C333 1.374 . S
C330 N329 1.376 . S
C330 C331 1.443 . S
C330 C357 1.389 . S
C331 C330 1.443 . S
C331 C332 1.340 . S
C331 H363 0.951 . S
C332 C331 1.340 . S
C332 C333 1.439 . S
C332 H364 0.950 . S
C333 N329 1.374 . S
C333 C332 1.439 . S
C333 C358 1.395 . S
N334 Co323 1.995 . S
N334 C335 1.376 . S
N334 C338 1.383 . S
C335 N334 1.376 . S
C335 C336 1.446 . S
C335 C358 1.391 . S
C336 C335 1.446 . S
C336 C337 1.339 . S
C336 H365 0.949 . S
C337 C336 1.339 . S
C337 C338 1.439 . S
C337 H366 0.950 . S
C338 N334 1.383 . S
C338 C337 1.439 . S
C338 C356 1.392 . S
N339 Co323 2.282 . S
N339 C342 1.332 . S
N339 C344 1.332 . S
C340 C341 1.386 . S
C340 C343 1.388 . S
C341 C340 1.386 . S
C341 C342 1.382 . S
C341 H367 0.950 . S
C342 N339 1.332 . S
C342 C341 1.382 . S
C342 H353 0.952 . S
C343 C340 1.388 . S
C343 C344 1.382 . S
C343 H368 0.950 . S
C344 N339 1.332 . S
C344 C343 1.382 . S
C344 H354 0.948 . S
N345 Co323 2.282 . S
N345 C349 1.332 . S
N345 C350 1.332 . S
C346 C347 1.388 . S
C346 C350 1.382 . S
C346 H369 0.950 . S
C347 C346 1.388 . S
C347 C348 1.386 . S
C348 C347 1.386 . S
C348 C349 1.382 . S
C348 H370 0.950 . S
C349 N345 1.332 . S
C349 C348 1.382 . S
C349 H351 0.952 . S
C350 N345 1.332 . S
C350 C346 1.382 . S
C350 H352 0.948 . S
H351 C349 0.952 . S
H352 C350 0.948 . S
H353 C342 0.952 . S
H354 C344 0.948 . S
C355 C321 1.395 . S
C355 C325 1.391 . S
C356 C318 1.389 . S
C356 C338 1.392 . S
C357 C328 1.392 . S
C357 C330 1.389 . S
C358 C333 1.395 . S
C358 C335 1.391 . S
H359 C319 0.951 . S
H360 C320 0.950 . S
H361 C326 0.949 . S
H362 C327 0.950 . S
H363 C331 0.951 . S
H364 C332 0.950 . S
H365 C336 0.949 . S
H366 C337 0.950 . S
H367 C341 0.950 . S
H368 C343 0.950 . S
H369 C346 0.950 . S
H370 C348 0.950 . S
C371 C372 1.443 . S
C371 N375 1.376 . S
C371 C409 1.389 . S
C372 C371 1.443 . S
C372 C373 1.340 . S
C372 H412 0.951 . S
C373 C372 1.340 . S
C373 C374 1.439 . S
C373 H413 0.950 . S
C374 C373 1.439 . S
C374 N375 1.374 . S
C374 C408 1.395 . S
N375 C371 1.376 . S
N375 C374 1.374 . S
N375 Co376 2.008 . S
Co376 N375 2.008 . S
Co376 N377 1.995 . S
Co376 N382 2.008 . S
Co376 N387 1.995 . S
Co376 N392 2.282 . S
Co376 N398 2.282 . S
N377 Co376 1.995 . S
N377 C378 1.376 . S
N377 C381 1.383 . S
C378 N377 1.376 . S
C378 C379 1.446 . S
C378 C408 1.391 . S
C379 C378 1.446 . S
C379 C380 1.339 . S
C379 H414 0.949 . S
C380 C379 1.339 . S
C380 C381 1.439 . S
C380 H415 0.950 . S
C381 N377 1.383 . S
C381 C380 1.439 . S
C381 C410 1.392 . S
N382 Co376 2.008 . S
N382 C383 1.376 . S
N382 C386 1.374 . S
C383 N382 1.376 . S
C383 C384 1.443 . S
C383 C410 1.389 . S
C384 C383 1.443 . S
C384 C385 1.340 . S
C384 H416 0.951 . S
C385 C384 1.340 . S
C385 C386 1.439 . S
C385 H417 0.950 . S
C386 N382 1.374 . S
C386 C385 1.439 . S
C386 C411 1.395 . S
N387 Co376 1.995 . S
N387 C388 1.376 . S
N387 C391 1.383 . S
C388 N387 1.376 . S
C388 C389 1.446 . S
C388 C411 1.391 . S
C389 C388 1.446 . S
C389 C390 1.339 . S
C389 H418 0.949 . S
C390 C389 1.339 . S
C390 C391 1.439 . S
C390 H419 0.950 . S
C391 N387 1.383 . S
C391 C390 1.439 . S
C391 C409 1.392 . S
N392 Co376 2.282 . S
N392 C395 1.332 . S
N392 C397 1.332 . S
C393 C394 1.386 . S
C393 C396 1.388 . S
C394 C393 1.386 . S
C394 C395 1.382 . S
C394 H420 0.950 . S
C395 N392 1.332 . S
C395 C394 1.382 . S
C395 H406 0.952 . S
C396 C393 1.388 . S
C396 C397 1.382 . S
C396 H421 0.950 . S
C397 N392 1.332 . S
C397 C396 1.382 . S
C397 H407 0.948 . S
N398 Co376 2.282 . S
N398 C402 1.332 . S
N398 C403 1.332 . S
C399 C400 1.388 . S
C399 C403 1.382 . S
C399 H422 0.950 . S
C400 C399 1.388 . S
C400 C401 1.386 . S
C401 C400 1.386 . S
C401 C402 1.382 . S
C401 H423 0.950 . S
C402 N398 1.332 . S
C402 C401 1.382 . S
C402 H404 0.952 . S
C403 N398 1.332 . S
C403 C399 1.382 . S
C403 H405 0.948 . S
H404 C402 0.952 . S
H405 C403 0.948 . S
H406 C395 0.952 . S
H407 C397 0.948 . S
C408 C374 1.395 . S
C408 C378 1.391 . S
C409 C371 1.389 . S
C409 C391 1.392 . S
C410 C381 1.392 . S
C410 C383 1.389 . S
C411 C386 1.395 . S
C411 C388 1.391 . S
H412 C372 0.951 . S
H413 C373 0.950 . S
H414 C379 0.949 . S
H415 C380 0.950 . S
H416 C384 0.951 . S
H417 C385 0.950 . S
H418 C389 0.949 . S
H419 C390 0.950 . S
H420 C394 0.950 . S
H421 C396 0.950 . S
H422 C399 0.950 . S
H423 C401 0.950 . S
C424 C425 1.443 . S
C424 N428 1.376 . S
C424 C462 1.389 . S
C425 C424 1.443 . S
C425 C426 1.340 . S
C425 H465 0.951 . S
C426 C425 1.340 . S
C426 C427 1.439 . S
C426 H466 0.950 . S
C427 C426 1.439 . S
C427 N428 1.374 . S
C427 C461 1.395 . S
N428 C424 1.376 . S
N428 C427 1.374 . S
N428 Co429 2.008 . S
Co429 N428 2.008 . S
Co429 N430 1.995 . S
Co429 N435 2.008 . S
Co429 N440 1.995 . S
Co429 N445 2.282 . S
Co429 N451 2.282 . S
N430 Co429 1.995 . S
N430 C431 1.376 . S
N430 C434 1.383 . S
C431 N430 1.376 . S
C431 C432 1.446 . S
C431 C461 1.391 . S
C432 C431 1.446 . S
C432 C433 1.339 . S
C432 H467 0.949 . S
C433 C432 1.339 . S
C433 C434 1.439 . S
C433 H468 0.950 . S
C434 N430 1.383 . S
C434 C433 1.439 . S
C434 C463 1.392 . S
N435 Co429 2.008 . S
N435 C436 1.376 . S
N435 C439 1.374 . S
C436 N435 1.376 . S
C436 C437 1.443 . S
C436 C463 1.389 . S
C437 C436 1.443 . S
C437 C438 1.340 . S
C437 H469 0.951 . S
C438 C437 1.340 . S
C438 C439 1.439 . S
C438 H470 0.950 . S
C439 N435 1.374 . S
C439 C438 1.439 . S
C439 C464 1.395 . S
N440 Co429 1.995 . S
N440 C441 1.376 . S
N440 C444 1.383 . S
C441 N440 1.376 . S
C441 C442 1.446 . S
C441 C464 1.391 . S
C442 C441 1.446 . S
C442 C443 1.339 . S
C442 H471 0.949 . S
C443 C442 1.339 . S
C443 C444 1.439 . S
C443 H472 0.950 . S
C444 N440 1.383 . S
C444 C443 1.439 . S
C444 C462 1.392 . S
N445 Co429 2.282 . S
N445 C448 1.332 . S
N445 C450 1.332 . S
C446 C447 1.386 . S
C446 C449 1.388 . S
C447 C446 1.386 . S
C447 C448 1.382 . S
C447 H473 0.950 . S
C448 N445 1.332 . S
C448 C447 1.382 . S
C448 H459 0.952 . S
C449 C446 1.388 . S
C449 C450 1.382 . S
C449 H474 0.950 . S
C450 N445 1.332 . S
C450 C449 1.382 . S
C450 H460 0.948 . S
N451 Co429 2.282 . S
N451 C455 1.332 . S
N451 C456 1.332 . S
C452 C453 1.388 . S
C452 C456 1.382 . S
C452 H475 0.950 . S
C453 C452 1.388 . S
C453 C454 1.386 . S
C454 C453 1.386 . S
C454 C455 1.382 . S
C454 H476 0.950 . S
C455 N451 1.332 . S
C455 C454 1.382 . S
C455 H457 0.952 . S
C456 N451 1.332 . S
C456 C452 1.382 . S
C456 H458 0.948 . S
H457 C455 0.952 . S
H458 C456 0.948 . S
H459 C448 0.952 . S
H460 C450 0.948 . S
C461 C427 1.395 . S
C461 C431 1.391 . S
C462 C424 1.389 . S
C462 C444 1.392 . S
C463 C434 1.392 . S
C463 C436 1.389 . S
C464 C439 1.395 . S
C464 C441 1.391 . S
H465 C425 0.951 . S
H466 C426 0.950 . S
H467 C432 0.949 . S
H468 C433 0.950 . S
H469 C437 0.951 . S
H470 C438 0.950 . S
H471 C442 0.949 . S
H472 C443 0.950 . S
H473 C447 0.950 . S
H474 C449 0.950 . S
H475 C452 0.950 . S
H476 C454 0.950 . S
C477 C478 1.443 . S
C477 N481 1.376 . S
C477 C515 1.389 . S
C478 C477 1.443 . S
C478 C479 1.340 . S
C478 H518 0.951 . S
C479 C478 1.340 . S
C479 C480 1.439 . S
C479 H519 0.950 . S
C480 C479 1.439 . S
C480 N481 1.374 . S
C480 C514 1.395 . S
N481 C477 1.376 . S
N481 C480 1.374 . S
N481 Co482 2.008 . S
Co482 N481 2.008 . S
Co482 N483 1.995 . S
Co482 N488 2.008 . S
Co482 N493 1.995 . S
Co482 N498 2.282 . S
Co482 N504 2.282 . S
N483 Co482 1.995 . S
N483 C484 1.376 . S
N483 C487 1.383 . S
C484 N483 1.376 . S
C484 C485 1.446 . S
C484 C514 1.391 . S
C485 C484 1.446 . S
C485 C486 1.339 . S
C485 H520 0.949 . S
C486 C485 1.339 . S
C486 C487 1.439 . S
C486 H521 0.950 . S
C487 N483 1.383 . S
C487 C486 1.439 . S
C487 C516 1.392 . S
N488 Co482 2.008 . S
N488 C489 1.376 . S
N488 C492 1.374 . S
C489 N488 1.376 . S
C489 C490 1.443 . S
C489 C516 1.389 . S
C490 C489 1.443 . S
C490 C491 1.340 . S
C490 H522 0.951 . S
C491 C490 1.340 . S
C491 C492 1.439 . S
C491 H523 0.950 . S
C492 N488 1.374 . S
C492 C491 1.439 . S
C492 C517 1.395 . S
N493 Co482 1.995 . S
N493 C494 1.376 . S
N493 C497 1.383 . S
C494 N493 1.376 . S
C494 C495 1.446 . S
C494 C517 1.391 . S
C495 C494 1.446 . S
C495 C496 1.339 . S
C495 H524 0.949 . S
C496 C495 1.339 . S
C496 C497 1.439 . S
C496 H525 0.950 . S
C497 N493 1.383 . S
C497 C496 1.439 . S
C497 C515 1.392 . S
N498 Co482 2.282 . S
N498 C501 1.332 . S
N498 C503 1.332 . S
C499 C500 1.386 . S
C499 C502 1.388 . S
C500 C499 1.386 . S
C500 C501 1.382 . S
C500 H526 0.950 . S
C501 N498 1.332 . S
C501 C500 1.382 . S
C501 H512 0.952 . S
C502 C499 1.388 . S
C502 C503 1.382 . S
C502 H527 0.950 . S
C503 N498 1.332 . S
C503 C502 1.382 . S
C503 H513 0.948 . S
N504 Co482 2.282 . S
N504 C508 1.332 . S
N504 C509 1.332 . S
C505 C506 1.388 . S
C505 C509 1.382 . S
C505 H528 0.950 . S
C506 C505 1.388 . S
C506 C507 1.386 . S
C507 C506 1.386 . S
C507 C508 1.382 . S
C507 H529 0.950 . S
C508 N504 1.332 . S
C508 C507 1.382 . S
C508 H510 0.952 . S
C509 N504 1.332 . S
C509 C505 1.382 . S
C509 H511 0.948 . S
H510 C508 0.952 . S
H511 C509 0.948 . S
H512 C501 0.952 . S
H513 C503 0.948 . S
C514 C480 1.395 . S
C514 C484 1.391 . S
C515 C477 1.389 . S
C515 C497 1.392 . S
C516 C487 1.392 . S
C516 C489 1.389 . S
C517 C492 1.395 . S
C517 C494 1.391 . S
H518 C478 0.951 . S
H519 C479 0.950 . S
H520 C485 0.949 . S
H521 C486 0.950 . S
H522 C490 0.951 . S
H523 C491 0.950 . S
H524 C495 0.949 . S
H525 C496 0.950 . S
H526 C500 0.950 . S
H527 C502 0.950 . S
H528 C505 0.950 . S
H529 C507 0.950 . S
C530 C531 1.443 . S
C530 N534 1.376 . S
C530 C568 1.389 . S
C531 C530 1.443 . S
C531 C532 1.340 . S
C531 H571 0.951 . S
C532 C531 1.340 . S
C532 C533 1.439 . S
C532 H572 0.950 . S
C533 C532 1.439 . S
C533 N534 1.374 . S
C533 C567 1.395 . S
N534 C530 1.376 . S
N534 C533 1.374 . S
N534 Co535 2.008 . S
Co535 N534 2.008 . S
Co535 N536 1.995 . S
Co535 N541 2.008 1_545 S
Co535 N546 1.995 1_545 S
Co535 N551 2.282 1_545 S
Co535 N557 2.282 . S
N536 Co535 1.995 . S
N536 C537 1.376 . S
N536 C540 1.383 . S
C537 N536 1.376 . S
C537 C538 1.446 . S
C537 C567 1.391 . S
C538 C537 1.446 . S
C538 C539 1.339 . S
C538 H573 0.949 . S
C539 C538 1.339 . S
C539 C540 1.439 . S
C539 H574 0.950 . S
C540 N536 1.383 . S
C540 C539 1.439 . S
C540 C569 1.392 1_545 S
N541 Co535 2.008 1_565 S
N541 C542 1.376 . S
N541 C545 1.374 . S
C542 N541 1.376 . S
C542 C543 1.443 . S
C542 C569 1.389 . S
C543 C542 1.443 . S
C543 C544 1.340 . S
C543 H575 0.951 . S
C544 C543 1.340 . S
C544 C545 1.439 . S
C544 H576 0.950 . S
C545 N541 1.374 . S
C545 C544 1.439 . S
C545 C570 1.395 . S
N546 Co535 1.995 1_565 S
N546 C547 1.376 . S
N546 C550 1.383 . S
C547 N546 1.376 . S
C547 C548 1.446 . S
C547 C570 1.391 . S
C548 C547 1.446 . S
C548 C549 1.339 . S
C548 H577 0.949 . S
C549 C548 1.339 . S
C549 C550 1.439 . S
C549 H578 0.950 . S
C550 N546 1.383 . S
C550 C549 1.439 . S
C550 C568 1.392 1_565 S
N551 Co535 2.282 1_565 S
N551 C554 1.332 . S
N551 C556 1.332 1_565 S
C552 C553 1.386 . S
C552 C555 1.388 1_565 S
C553 C552 1.386 . S
C553 C554 1.382 . S
C553 H579 0.950 . S
C554 N551 1.332 . S
C554 C553 1.382 . S
C554 H565 0.952 . S
C555 C552 1.388 1_545 S
C555 C556 1.382 . S
C555 H580 0.950 . S
C556 N551 1.332 1_545 S
C556 C555 1.382 . S
C556 H566 0.948 . S
N557 Co535 2.282 . S
N557 C561 1.332 . S
N557 C562 1.332 1_545 S
C558 C559 1.388 1_565 S
C558 C562 1.382 . S
C558 H581 0.950 . S
C559 C558 1.388 1_545 S
C559 C560 1.386 . S
C560 C559 1.386 . S
C560 C561 1.382 . S
C560 H582 0.950 . S
C561 N557 1.332 . S
C561 C560 1.382 . S
C561 H563 0.952 . S
C562 N557 1.332 1_565 S
C562 C558 1.382 . S
C562 H564 0.948 . S
H563 C561 0.952 . S
H564 C562 0.948 . S
H565 C554 0.952 . S
H566 C556 0.948 . S
C567 C533 1.395 . S
C567 C537 1.391 . S
C568 C530 1.389 . S
C568 C550 1.392 1_545 S
C569 C540 1.392 1_565 S
C569 C542 1.389 . S
C570 C545 1.395 . S
C570 C547 1.391 . S
H571 C531 0.951 . S
H572 C532 0.950 . S
H573 C538 0.949 . S
H574 C539 0.950 . S
H575 C543 0.951 . S
H576 C544 0.950 . S
H577 C548 0.949 . S
H578 C549 0.950 . S
H579 C553 0.950 . S
H580 C555 0.950 . S
H581 C558 0.950 . S
H582 C560 0.950 . S
C583 C584 1.443 . S
C583 N587 1.376 . S
C583 C621 1.389 . S
C584 C583 1.443 . S
C584 C585 1.340 . S
C584 H624 0.951 . S
C585 C584 1.340 . S
C585 C586 1.439 . S
C585 H625 0.950 . S
C586 C585 1.439 . S
C586 N587 1.374 . S
C586 C620 1.395 . S
N587 C583 1.376 . S
N587 C586 1.374 . S
N587 Co588 2.008 1_556 S
Co588 N587 2.008 1_554 S
Co588 N589 1.995 1_554 S
Co588 N594 2.008 . S
Co588 N599 1.995 . S
Co588 N604 2.282 . S
Co588 N610 2.282 1_554 S
N589 Co588 1.995 1_556 S
N589 C590 1.376 . S
N589 C593 1.383 . S
C590 N589 1.376 . S
C590 C591 1.446 . S
C590 C620 1.391 . S
C591 C590 1.446 . S
C591 C592 1.339 . S
C591 H626 0.949 . S
C592 C591 1.339 . S
C592 C593 1.439 . S
C592 H627 0.950 . S
C593 N589 1.383 . S
C593 C592 1.439 . S
C593 C622 1.392 1_556 S
N594 Co588 2.008 . S
N594 C595 1.376 . S
N594 C598 1.374 . S
C595 N594 1.376 . S
C595 C596 1.443 . S
C595 C622 1.389 . S
C596 C595 1.443 . S
C596 C597 1.340 . S
C596 H628 0.951 . S
C597 C596 1.340 . S
C597 C598 1.439 . S
C597 H629 0.950 . S
C598 N594 1.374 . S
C598 C597 1.439 . S
C598 C623 1.395 . S
N599 Co588 1.995 . S
N599 C600 1.376 . S
N599 C603 1.383 . S
C600 N599 1.376 . S
C600 C601 1.446 . S
C600 C623 1.391 . S
C601 C600 1.446 . S
C601 C602 1.339 . S
C601 H630 0.949 . S
C602 C601 1.339 . S
C602 C603 1.439 . S
C602 H631 0.950 . S
C603 N599 1.383 . S
C603 C602 1.439 . S
C603 C621 1.392 1_554 S
N604 Co588 2.282 . S
N604 C607 1.332 . S
N604 C609 1.332 1_554 S
C605 C606 1.386 . S
C605 C608 1.388 1_554 S
C606 C605 1.386 . S
C606 C607 1.382 . S
C606 H632 0.950 . S
C607 N604 1.332 . S
C607 C606 1.382 . S
C607 H618 0.952 . S
C608 C605 1.388 1_556 S
C608 C609 1.382 . S
C608 H633 0.950 . S
C609 N604 1.332 1_556 S
C609 C608 1.382 . S
C609 H619 0.948 . S
N610 Co588 2.282 1_556 S
N610 C614 1.332 . S
N610 C615 1.332 1_556 S
C611 C612 1.388 1_554 S
C611 C615 1.382 . S
C611 H634 0.950 . S
C612 C611 1.388 1_556 S
C612 C613 1.386 . S
C613 C612 1.386 . S
C613 C614 1.382 . S
C613 H635 0.950 . S
C614 N610 1.332 . S
C614 C613 1.382 . S
C614 H616 0.952 . S
C615 N610 1.332 1_554 S
C615 C611 1.382 . S
C615 H617 0.948 . S
H616 C614 0.952 . S
H617 C615 0.948 . S
H618 C607 0.952 . S
H619 C609 0.948 . S
C620 C586 1.395 . S
C620 C590 1.391 . S
C621 C583 1.389 . S
C621 C603 1.392 1_556 S
C622 C593 1.392 1_554 S
C622 C595 1.389 . S
C623 C598 1.395 . S
C623 C600 1.391 . S
H624 C584 0.951 . S
H625 C585 0.950 . S
H626 C591 0.949 . S
H627 C592 0.950 . S
H628 C596 0.951 . S
H629 C597 0.950 . S
H630 C601 0.949 . S
H631 C602 0.950 . S
H632 C606 0.950 . S
H633 C608 0.950 . S
H634 C611 0.950 . S
H635 C613 0.950 . S
C636 Eu637 2.835 . S
C636 C638 1.500 . S
C636 O656 1.257 . S
C636 O657 1.260 . S
Eu637 C636 2.835 . S
Eu637 O656 2.473 . S
Eu637 O657 2.480 . S
Eu637 O658 2.430 . S
Eu637 O659 2.670 . S
Eu637 O660 2.394 . S
Eu637 O665 2.355 . S
Eu637 O667 2.374 . S
C638 C636 1.500 . S
C638 C639 1.377 . S
C638 C643 1.377 . S
C639 C638 1.377 . S
C639 C640 1.395 . S
C639 H668 0.931 . S
C640 C639 1.395 . S
C640 C641 1.383 . S
C640 H669 0.931 1_545 S
C641 C640 1.383 . S
C641 C642 1.394 . S
C642 C641 1.394 . S
C642 C643 1.378 . S
C642 H670 0.931 . S
C643 C638 1.377 . S
C643 C642 1.378 . S
C643 H671 0.931 . S
C644 O658 1.259 . S
C644 O659 1.270 . S
C645 O660 1.251 . S
C645 O661 1.251 . S
C646 Eu647 2.835 . S
C646 C648 1.500 . S
C646 O662 1.257 . S
C646 O663 1.260 . S
Eu647 C646 2.835 . S
Eu647 O659 2.355 . S
Eu647 O661 2.374 . S
Eu647 O662 2.473 . S
Eu647 O663 2.480 . S
Eu647 O664 2.430 . S
Eu647 O665 2.670 . S
Eu647 O666 2.394 . S
C648 C646 1.500 . S
C648 C649 1.377 . S
C648 C653 1.377 . S
C649 C648 1.377 . S
C649 C650 1.395 . S
C649 H672 0.931 . S
C650 C649 1.395 . S
C650 C651 1.383 . S
C650 H673 0.931 . S
C651 C650 1.383 . S
C651 C652 1.394 . S
C652 C651 1.394 . S
C652 C653 1.378 . S
C652 H674 0.931 . S
C653 C648 1.377 . S
C653 C652 1.378 . S
C653 H675 0.931 . S
C654 O664 1.259 . S
C654 O665 1.270 . S
C655 O666 1.251 . S
C655 O667 1.251 . S
O656 C636 1.257 . S
O656 Eu637 2.473 . S
O657 C636 1.260 . S
O657 Eu637 2.480 . S
O658 Eu637 2.430 . S
O658 C644 1.259 . S
O659 Eu637 2.670 . S
O659 C644 1.270 . S
O659 Eu647 2.355 . S
O660 Eu637 2.394 . S
O660 C645 1.251 . S
O661 C645 1.251 . S
O661 Eu647 2.374 . S
O662 C646 1.257 . S
O662 Eu647 2.473 . S
O663 C646 1.260 . S
O663 Eu647 2.480 . S
O664 Eu647 2.430 . S
O664 C654 1.259 . S
O665 Eu637 2.355 . S
O665 Eu647 2.670 . S
O665 C654 1.270 . S
O666 Eu647 2.394 . S
O666 C655 1.251 . S
O667 Eu637 2.374 . S
O667 C655 1.251 . S
H668 C639 0.931 . S
H669 C640 0.931 1_565 S
H670 C642 0.931 . S
H671 C643 0.931 . S
H672 C649 0.931 . S
H673 C650 0.931 . S
H674 C652 0.931 . S
H675 C653 0.931 . S
C676 Eu677 2.835 . S
C676 C678 1.500 . S
C676 O696 1.257 . S
C676 O697 1.260 . S
Eu677 C676 2.835 . S
Eu677 O696 2.473 . S
Eu677 O697 2.480 . S
Eu677 O698 2.430 . S
Eu677 O699 2.670 . S
Eu677 O700 2.394 . S
Eu677 O705 2.355 . S
Eu677 O707 2.374 . S
C678 C676 1.500 . S
C678 C679 1.377 . S
C678 C683 1.377 . S
C679 C678 1.377 . S
C679 C680 1.395 . S
C679 H708 0.931 . S
C680 C679 1.395 . S
C680 C681 1.383 . S
C680 H709 0.931 . S
C681 C680 1.383 . S
C681 C682 1.394 . S
C682 C681 1.394 . S
C682 C683 1.378 . S
C682 H710 0.931 . S
C683 C678 1.377 . S
C683 C682 1.378 . S
C683 H711 0.931 . S
C684 O698 1.259 . S
C684 O699 1.270 . S
C685 O700 1.251 . S
C685 O701 1.251 1_655 S
C686 Eu687 2.835 . S
C686 C688 1.500 . S
C686 O702 1.257 . S
C686 O703 1.260 . S
Eu687 C686 2.835 . S
Eu687 O699 2.355 1_455 S
Eu687 O701 2.374 . S
Eu687 O702 2.473 . S
Eu687 O703 2.480 . S
Eu687 O704 2.430 1_455 S
Eu687 O705 2.670 1_455 S
Eu687 O706 2.394 1_455 S
C688 C686 1.500 . S
C688 C689 1.377 . S
C688 C693 1.377 . S
C689 C688 1.377 . S
C689 C690 1.395 . S
C689 H712 0.931 . S
C690 C689 1.395 . S
C690 C691 1.383 . S
C690 H713 0.931 . S
C691 C690 1.383 . S
C691 C692 1.394 . S
C692 C691 1.394 . S
C692 C693 1.378 . S
C692 H714 0.931 . S
C693 C688 1.377 . S
C693 C692 1.378 . S
C693 H715 0.931 . S
C694 O704 1.259 . S
C694 O705 1.270 . S
C695 O706 1.251 . S
C695 O707 1.251 . S
O696 C676 1.257 . S
O696 Eu677 2.473 . S
O697 C676 1.260 . S
O697 Eu677 2.480 . S
O698 Eu677 2.430 . S
O698 C684 1.259 . S
O699 Eu677 2.670 . S
O699 C684 1.270 . S
O699 Eu687 2.355 1_655 S
O700 Eu677 2.394 . S
O700 C685 1.251 . S
O701 C685 1.251 1_455 S
O701 Eu687 2.374 . S
O702 C686 1.257 . S
O702 Eu687 2.473 . S
O703 C686 1.260 . S
O703 Eu687 2.480 . S
O704 Eu687 2.430 1_655 S
O704 C694 1.259 . S
O705 Eu677 2.355 . S
O705 Eu687 2.670 1_655 S
O705 C694 1.270 . S
O706 Eu687 2.394 1_655 S
O706 C695 1.251 . S
O707 Eu677 2.374 . S
O707 C695 1.251 . S
H708 C679 0.931 . S
H709 C680 0.931 . S
H710 C682 0.931 . S
H711 C683 0.931 . S
H712 C689 0.931 . S
H713 C690 0.931 . S
H714 C692 0.931 . S
H715 C693 0.931 . S
C716 Eu717 2.835 . S
C716 C718 1.500 . S
C716 O736 1.261 . S
C716 O737 1.260 . S
Eu717 C716 2.835 . S
Eu717 O736 2.475 . S
Eu717 O737 2.480 . S
Eu717 O738 2.430 . S
Eu717 O739 2.670 . S
Eu717 O740 2.394 . S
Eu717 O745 2.355 . S
Eu717 O747 2.374 1_565 S
C718 C716 1.500 . S
C718 C719 1.377 . S
C718 C723 1.374 1_565 S
C719 C718 1.377 . S
C719 C720 1.393 1_565 S
C719 H748 0.931 . S
C720 C719 1.393 1_545 S
C720 C721 1.386 . S
C720 H749 0.931 . S
C721 C720 1.386 . S
C721 C722 1.394 . S
C722 C721 1.394 . S
C722 C723 1.382 . S
C722 H750 0.931 . S
C723 C718 1.374 1_545 S
C723 C722 1.382 . S
C723 H751 0.931 . S
C724 O738 1.259 . S
C724 O739 1.270 . S
C725 O740 1.251 . S
C725 O741 1.251 . S
C726 Eu727 2.835 . S
C726 C728 1.500 . S
C726 O742 1.257 . S
C726 O743 1.260 . S
Eu727 C726 2.835 . S
Eu727 O739 2.355 . S
Eu727 O741 2.374 . S
Eu727 O742 2.473 . S
Eu727 O743 2.480 . S
Eu727 O744 2.430 . S
Eu727 O745 2.670 . S
Eu727 O746 2.394 . S
C728 C726 1.500 . S
C728 C729 1.377 . S
C728 C733 1.377 . S
C729 C728 1.377 . S
C729 C730 1.395 . S
C729 H752 0.931 . S
C730 C729 1.395 . S
C730 C731 1.383 . S
C730 H753 0.931 . S
C731 C730 1.383 . S
C731 C732 1.394 . S
C732 C731 1.394 . S
C732 C733 1.378 . S
C732 H754 0.931 . S
C733 C728 1.377 . S
C733 C732 1.378 . S
C733 H755 0.931 . S
C734 O744 1.259 . S
C734 O745 1.270 . S
C735 O746 1.251 1_545 S
C735 O747 1.251 . S
O736 C716 1.261 . S
O736 Eu717 2.475 . S
O737 C716 1.260 . S
O737 Eu717 2.480 . S
O738 Eu717 2.430 . S
O738 C724 1.259 . S
O739 Eu717 2.670 . S
O739 C724 1.270 . S
O739 Eu727 2.355 . S
O740 Eu717 2.394 . S
O740 C725 1.251 . S
O741 C725 1.251 . S
O741 Eu727 2.374 . S
O742 C726 1.257 . S
O742 Eu727 2.473 . S
O743 C726 1.260 . S
O743 Eu727 2.480 . S
O744 Eu727 2.430 . S
O744 C734 1.259 . S
O745 Eu717 2.355 . S
O745 Eu727 2.670 . S
O745 C734 1.270 . S
O746 Eu727 2.394 . S
O746 C735 1.251 1_565 S
O747 Eu717 2.374 1_545 S
O747 C735 1.251 . S
H748 C719 0.931 . S
H749 C720 0.931 . S
H750 C722 0.931 . S
H751 C723 0.931 . S
H752 C729 0.931 . S
H753 C730 0.931 . S
H754 C732 0.931 . S
H755 C733 0.931 . S
C756 Eu757 2.835 . S
C756 C758 1.500 . S
C756 O776 1.257 . S
C756 O777 1.260 . S
Eu757 C756 2.835 . S
Eu757 O776 2.473 . S
Eu757 O777 2.480 . S
Eu757 O778 2.430 . S
Eu757 O779 2.670 . S
Eu757 O780 2.394 . S
Eu757 O785 2.355 1_455 S
Eu757 O787 2.348 1_455 S
C758 C756 1.500 . S
C758 C759 1.377 . S
C758 C763 1.377 . S
C759 C758 1.377 . S
C759 C760 1.395 . S
C759 H788 0.931 . S
C760 C759 1.395 . S
C760 C761 1.383 . S
C760 H789 0.931 . S
C761 C760 1.383 . S
C761 C762 1.394 . S
C762 C761 1.394 . S
C762 C763 1.378 . S
C762 H790 0.931 . S
C763 C758 1.377 . S
C763 C762 1.378 . S
C763 H791 0.931 . S
C764 O778 1.259 . S
C764 O779 1.270 . S
C765 O780 1.251 . S
C765 O781 1.274 . S
C766 Eu767 2.835 . S
C766 C768 1.500 . S
C766 O782 1.257 . S
C766 O783 1.260 . S
Eu767 C766 2.835 . S
Eu767 O779 2.355 1_655 S
Eu767 O781 2.357 1_655 S
Eu767 O782 2.473 . S
Eu767 O783 2.480 . S
Eu767 O784 2.430 . S
Eu767 O785 2.670 . S
Eu767 O786 2.394 . S
C768 C766 1.500 . S
C768 C769 1.377 . S
C768 C773 1.377 . S
C769 C768 1.377 . S
C769 C770 1.395 . S
C769 H792 0.931 . S
C770 C769 1.395 . S
C770 C771 1.383 . S
C770 H793 0.931 . S
C771 C770 1.383 . S
C771 C772 1.394 . S
C772 C771 1.394 . S
C772 C773 1.378 . S
C772 H794 0.931 . S
C773 C768 1.377 . S
C773 C772 1.378 . S
C773 H795 0.931 . S
C774 O784 1.259 . S
C774 O785 1.270 . S
C775 O786 1.251 . S
C775 O787 1.287 . S
O776 C756 1.257 . S
O776 Eu757 2.473 . S
O777 C756 1.260 . S
O777 Eu757 2.480 . S
O778 Eu757 2.430 . S
O778 C764 1.259 . S
O779 Eu757 2.670 . S
O779 C764 1.270 . S
O779 Eu767 2.355 1_455 S
O780 Eu757 2.394 . S
O780 C765 1.251 . S
O781 C765 1.274 . S
O781 Eu767 2.357 1_455 S
O782 C766 1.257 . S
O782 Eu767 2.473 . S
O783 C766 1.260 . S
O783 Eu767 2.480 . S
O784 Eu767 2.430 . S
O784 C774 1.259 . S
O785 Eu757 2.355 1_655 S
O785 Eu767 2.670 . S
O785 C774 1.270 . S
O786 Eu767 2.394 . S
O786 C775 1.251 . S
O787 Eu757 2.348 1_655 S
O787 C775 1.287 . S
H788 C759 0.931 . S
H789 C760 0.931 . S
H790 C762 0.931 . S
H791 C763 0.931 . S
H792 C769 0.931 . S
H793 C770 0.931 . S
H794 C772 0.931 . S
H795 C773 0.931 . S
C796 Eu797 2.835 1_545 S
C796 C798 1.500 . S
C796 O816 1.257 . S
C796 O817 1.260 1_545 S
Eu797 C796 2.835 1_565 S
Eu797 O816 2.473 1_565 S
Eu797 O817 2.480 . S
Eu797 O818 2.430 . S
Eu797 O819 2.670 . S
Eu797 O820 2.394 1_565 S
Eu797 O825 2.355 1_565 S
Eu797 O827 2.374 . S
C798 C796 1.500 . S
C798 C799 1.377 . S
C798 C803 1.377 . S
C799 C798 1.377 . S
C799 C800 1.395 . S
C799 H828 0.931 . S
C800 C799 1.395 . S
C800 C801 1.383 . S
C800 H829 0.931 . S
C801 C800 1.383 . S
C801 C802 1.394 . S
C802 C801 1.394 . S
C802 C803 1.378 . S
C802 H830 0.931 . S
C803 C798 1.377 . S
C803 C802 1.378 . S
C803 H831 0.931 . S
C804 O818 1.259 . S
C804 O819 1.270 . S
C805 O820 1.251 . S
C805 O821 1.251 . S
C806 Eu807 2.835 . S
C806 C808 1.500 . S
C806 O822 1.257 . S
C806 O823 1.260 . S
Eu807 C806 2.835 . S
Eu807 O819 2.355 . S
Eu807 O821 2.374 1_565 S
Eu807 O822 2.473 . S
Eu807 O823 2.480 . S
Eu807 O824 2.430 1_565 S
Eu807 O825 2.670 1_565 S
Eu807 O826 2.394 . S
C808 C806 1.500 . S
C808 C809 1.377 . S
C808 C813 1.377 . S
C809 C808 1.377 . S
C809 C810 1.395 . S
C809 H832 0.931 . S
C810 C809 1.395 . S
C810 C811 1.383 . S
C810 H833 0.931 . S
C811 C810 1.383 . S
C811 C812 1.394 . S
C812 C811 1.394 . S
C812 C813 1.378 . S
C812 H834 0.931 . S
C813 C808 1.377 . S
C813 C812 1.378 . S
C813 H835 0.931 . S
C814 O824 1.259 . S
C814 O825 1.270 . S
C815 O826 1.251 . S
C815 O827 1.251 . S
O816 C796 1.257 . S
O816 Eu797 2.473 1_545 S
O817 C796 1.260 1_565 S
O817 Eu797 2.480 . S
O818 Eu797 2.430 . S
O818 C804 1.259 . S
O819 Eu797 2.670 . S
O819 C804 1.270 . S
O819 Eu807 2.355 . S
O820 Eu797 2.394 1_545 S
O820 C805 1.251 . S
O821 C805 1.251 . S
O821 Eu807 2.374 1_545 S
O822 C806 1.257 . S
O822 Eu807 2.473 . S
O823 C806 1.260 . S
O823 Eu807 2.480 . S
O824 Eu807 2.430 1_545 S
O824 C814 1.259 . S
O825 Eu797 2.355 1_545 S
O825 Eu807 2.670 1_545 S
O825 C814 1.270 . S
O826 Eu807 2.394 . S
O826 C815 1.251 . S
O827 Eu797 2.374 . S
O827 C815 1.251 . S
H828 C799 0.931 . S
H829 C800 0.931 . S
H830 C802 0.931 . S
H831 C803 0.931 . S
H832 C809 0.931 . S
H833 C810 0.931 . S
H834 C812 0.931 . S
H835 C813 0.931 . S
C836 Eu837 2.835 . S
C836 C838 1.500 . S
C836 O856 1.257 . S
C836 O857 1.260 . S
Eu837 C836 2.835 . S
Eu837 O856 2.473 . S
Eu837 O857 2.480 . S
Eu837 O858 2.430 . S
Eu837 O859 2.670 . S
Eu837 O860 2.394 . S
Eu837 O865 2.355 . S
Eu837 O867 2.374 . S
C838 C836 1.500 . S
C838 C839 1.377 . S
C838 C843 1.377 . S
C839 C838 1.377 . S
C839 C840 1.395 . S
C839 H868 0.931 . S
C840 C839 1.395 . S
C840 C841 1.383 . S
C840 H869 0.931 . S
C841 C840 1.383 . S
C841 C842 1.394 . S
C842 C841 1.394 . S
C842 C843 1.378 . S
C842 H870 0.931 . S
C843 C838 1.377 . S
C843 C842 1.378 . S
C843 H871 0.931 . S
C844 O858 1.259 . S
C844 O859 1.270 . S
C845 O860 1.251 . S
C845 O861 1.251 . S
C846 Eu847 2.835 . S
C846 C848 1.500 . S
C846 O862 1.257 . S
C846 O863 1.260 . S
Eu847 C846 2.835 . S
Eu847 O859 2.355 . S
Eu847 O861 2.374 . S
Eu847 O862 2.473 . S
Eu847 O863 2.480 . S
Eu847 O864 2.430 . S
Eu847 O865 2.670 . S
Eu847 O866 2.394 . S
C848 C846 1.500 . S
C848 C849 1.377 . S
C848 C853 1.377 . S
C849 C848 1.377 . S
C849 C850 1.395 . S
C849 H872 0.931 . S
C850 C849 1.395 . S
C850 C851 1.383 . S
C850 H873 0.931 . S
C851 C850 1.383 . S
C851 C852 1.394 . S
C852 C851 1.394 . S
C852 C853 1.378 . S
C852 H874 0.931 . S
C853 C848 1.377 . S
C853 C852 1.378 . S
C853 H875 0.931 . S
C854 O864 1.259 . S
C854 O865 1.270 . S
C855 O866 1.251 . S
C855 O867 1.251 . S
O856 C836 1.257 . S
O856 Eu837 2.473 . S
O857 C836 1.260 . S
O857 Eu837 2.480 . S
O858 Eu837 2.430 . S
O858 C844 1.259 . S
O859 Eu837 2.670 . S
O859 C844 1.270 . S
O859 Eu847 2.355 . S
O860 Eu837 2.394 . S
O860 C845 1.251 . S
O861 C845 1.251 . S
O861 Eu847 2.374 . S
O862 C846 1.257 . S
O862 Eu847 2.473 . S
O863 C846 1.260 . S
O863 Eu847 2.480 . S
O864 Eu847 2.430 . S
O864 C854 1.259 . S
O865 Eu837 2.355 . S
O865 Eu847 2.670 . S
O865 C854 1.270 . S
O866 Eu847 2.394 . S
O866 C855 1.251 . S
O867 Eu837 2.374 . S
O867 C855 1.251 . S
H868 C839 0.931 . S
H869 C840 0.931 . S
H870 C842 0.931 . S
H871 C843 0.931 . S
H872 C849 0.931 . S
H873 C850 0.931 . S
H874 C852 0.931 . S
H875 C853 0.931 . S
C876 Eu877 2.835 . S
C876 C878 1.500 . S
C876 O896 1.257 . S
C876 O897 1.260 . S
Eu877 C876 2.835 . S
Eu877 O896 2.473 . S
Eu877 O897 2.480 . S
Eu877 O898 2.430 . S
Eu877 O899 2.670 . S
Eu877 O900 2.394 . S
Eu877 O905 2.355 1_554 S
Eu877 O907 2.374 1_554 S
C878 C876 1.500 . S
C878 C879 1.377 . S
C878 C883 1.377 . S
C879 C878 1.377 . S
C879 C880 1.395 . S
C879 H908 0.931 . S
C880 C879 1.395 . S
C880 C881 1.383 . S
C880 H909 0.931 . S
C881 C880 1.383 . S
C881 C882 1.394 . S
C882 C881 1.394 . S
C882 C883 1.378 . S
C882 H910 0.931 . S
C883 C878 1.377 . S
C883 C882 1.378 . S
C883 H911 0.931 . S
C884 O898 1.259 . S
C884 O899 1.270 . S
C885 O900 1.251 . S
C885 O901 1.251 . S
C886 Eu887 2.835 . S
C886 C888 1.500 . S
C886 O902 1.257 . S
C886 O903 1.260 . S
Eu887 C886 2.835 . S
Eu887 O899 2.355 1_556 S
Eu887 O901 2.374 1_556 S
Eu887 O902 2.473 . S
Eu887 O903 2.480 . S
Eu887 O904 2.430 . S
Eu887 O905 2.670 . S
Eu887 O906 2.394 . S
C888 C886 1.500 . S
C888 C889 1.377 . S
C888 C893 1.377 . S
C889 C888 1.377 . S
C889 C890 1.395 . S
C889 H912 0.931 . S
C890 C889 1.395 . S
C890 C891 1.383 . S
C890 H913 0.931 . S
C891 C890 1.383 . S
C891 C892 1.394 . S
C892 C891 1.394 . S
C892 C893 1.378 . S
C892 H914 0.931 . S
C893 C888 1.377 . S
C893 C892 1.378 . S
C893 H915 0.931 . S
C894 O904 1.259 . S
C894 O905 1.270 . S
C895 O906 1.251 . S
C895 O907 1.251 . S
O896 C876 1.257 . S
O896 Eu877 2.473 . S
O897 C876 1.260 . S
O897 Eu877 2.480 . S
O898 Eu877 2.430 . S
O898 C884 1.259 . S
O899 Eu877 2.670 . S
O899 C884 1.270 . S
O899 Eu887 2.355 1_554 S
O900 Eu877 2.394 . S
O900 C885 1.251 . S
O901 C885 1.251 . S
O901 Eu887 2.374 1_554 S
O902 C886 1.257 . S
O902 Eu887 2.473 . S
O903 C886 1.260 . S
O903 Eu887 2.480 . S
O904 Eu887 2.430 . S
O904 C894 1.259 . S
O905 Eu877 2.355 1_556 S
O905 Eu887 2.670 . S
O905 C894 1.270 . S
O906 Eu887 2.394 . S
O906 C895 1.251 . S
O907 Eu877 2.374 1_556 S
O907 C895 1.251 . S
H908 C879 0.931 . S
H909 C880 0.931 . S
H910 C882 0.931 . S
H911 C883 0.931 . S
H912 C889 0.931 . S
H913 C890 0.931 . S
H914 C892 0.931 . S
H915 C893 0.931 . S
C916 Eu917 2.835 . S
C916 C918 1.500 . S
C916 O936 1.257 . S
C916 O937 1.260 . S
Eu917 C916 2.835 . S
Eu917 O936 2.473 . S
Eu917 O937 2.480 . S
Eu917 O938 2.430 1_554 S
Eu917 O939 2.670 1_554 S
Eu917 O940 2.394 1_554 S
Eu917 O945 2.355 . S
Eu917 O947 2.374 . S
C918 C916 1.500 . S
C918 C919 1.377 . S
C918 C923 1.377 . S
C919 C918 1.377 . S
C919 C920 1.395 . S
C919 H948 0.931 . S
C920 C919 1.395 . S
C920 C921 1.383 . S
C920 H949 0.931 . S
C921 C920 1.383 . S
C921 C922 1.394 . S
C922 C921 1.394 . S
C922 C923 1.378 . S
C922 H950 0.931 . S
C923 C918 1.377 . S
C923 C922 1.378 . S
C923 H951 0.931 . S
C924 O938 1.259 . S
C924 O939 1.270 . S
C925 O940 1.251 . S
C925 O941 1.251 . S
C926 Eu927 2.835 . S
C926 C928 1.500 . S
C926 O942 1.257 . S
C926 O943 1.260 . S
Eu927 C926 2.835 . S
Eu927 O939 2.355 . S
Eu927 O941 2.374 . S
Eu927 O942 2.473 . S
Eu927 O943 2.480 . S
Eu927 O944 2.430 1_556 S
Eu927 O945 2.670 1_556 S
Eu927 O946 2.394 1_556 S
C928 C926 1.500 . S
C928 C929 1.377 . S
C928 C933 1.377 . S
C929 C928 1.377 . S
C929 C930 1.395 . S
C929 H952 0.931 . S
C930 C929 1.395 . S
C930 C931 1.383 . S
C930 H953 0.931 . S
C931 C930 1.383 . S
C931 C932 1.394 . S
C932 C931 1.394 . S
C932 C933 1.378 . S
C932 H954 0.931 . S
C933 C928 1.377 . S
C933 C932 1.378 . S
C933 H955 0.931 . S
C934 O944 1.259 . S
C934 O945 1.270 . S
C935 O946 1.251 . S
C935 O947 1.251 . S
O936 C916 1.257 . S
O936 Eu917 2.473 . S
O937 C916 1.260 . S
O937 Eu917 2.480 . S
O938 Eu917 2.430 1_556 S
O938 C924 1.259 . S
O939 Eu917 2.670 1_556 S
O939 C924 1.270 . S
O939 Eu927 2.355 . S
O940 Eu917 2.394 1_556 S
O940 C925 1.251 . S
O941 C925 1.251 . S
O941 Eu927 2.374 . S
O942 C926 1.257 . S
O942 Eu927 2.473 . S
O943 C926 1.260 . S
O943 Eu927 2.480 . S
O944 Eu927 2.430 1_554 S
O944 C934 1.259 . S
O945 Eu917 2.355 . S
O945 Eu927 2.670 1_554 S
O945 C934 1.270 . S
O946 Eu927 2.394 1_554 S
O946 C935 1.251 . S
O947 Eu917 2.374 . S
O947 C935 1.251 . S
H948 C919 0.931 . S
H949 C920 0.931 . S
H950 C922 0.931 . S
H951 C923 0.931 . S
H952 C929 0.931 . S
H953 C930 0.931 . S
H954 C932 0.931 . S
H955 C933 0.931 . S
C956 C957 1.349 . S
C956 C958 1.327 . S
C956 H981 0.950 . S
C957 C956 1.349 . S
C957 C973 1.349 . S
C958 C956 1.327 . S
C958 C977 1.429 . S
C958 H982 0.950 . S
C959 C976 1.574 . S
C959 C978 1.368 . S
C959 H983 0.949 . S
H960 C964 0.949 . S
C961 C962 1.349 . S
C961 C963 1.327 . S
C961 H984 0.950 . S
C962 C961 1.349 . S
C962 C974 1.349 . S
C963 C961 1.327 . S
C963 C979 1.429 . S
C963 H985 0.950 . S
C964 H960 0.949 . S
C964 C972 1.574 . S
C964 C980 1.368 . S
H965 C973 0.950 . S
H966 C971 0.950 . S
H967 C972 0.949 . S
H968 C974 0.950 . S
H969 C975 0.950 . S
H970 C976 0.949 . S
C971 H966 0.950 . S
C971 C973 1.327 . S
C971 C977 1.429 . S
C972 C964 1.574 . S
C972 H967 0.949 . S
C972 C978 1.368 . S
C973 C957 1.349 . S
C973 H965 0.950 . S
C973 C971 1.327 . S
C974 C962 1.349 . S
C974 H968 0.950 . S
C974 C975 1.327 . S
C975 H969 0.950 . S
C975 C974 1.327 . S
C975 C979 1.429 . S
C976 C959 1.574 . S
C976 H970 0.949 . S
C976 C980 1.368 . S
C977 C958 1.429 . S
C977 C971 1.429 . S
C977 C978 1.523 . S
C978 C959 1.368 . S
C978 C972 1.368 . S
C978 C977 1.523 . S
C979 C963 1.429 . S
C979 C975 1.429 . S
C979 C980 1.523 . S
C980 C964 1.368 . S
C980 C976 1.368 . S
C980 C979 1.523 . S
H981 C956 0.950 . S
H982 C958 0.950 . S
H983 C959 0.949 . S
H984 C961 0.950 . S
H985 C963 0.950 . S
C986 C987 1.349 . S
C986 C988 1.327 . S
C986 H1011 0.950 . S
C987 C986 1.349 . S
C987 C1003 1.349 . S
C988 C986 1.327 . S
C988 C1007 1.429 . S
C988 H1012 0.950 . S
C989 C1006 1.574 . S
C989 C1008 1.368 . S
C989 H1013 0.949 . S
H990 C994 0.949 . S
C991 C992 1.349 . S
C991 C993 1.327 . S
C991 H1014 0.950 . S
C992 C991 1.349 . S
C992 C1004 1.349 . S
C993 C991 1.327 . S
C993 C1009 1.429 . S
C993 H1015 0.950 . S
C994 H990 0.949 . S
C994 C1002 1.574 . S
C994 C1010 1.368 . S
H995 C1003 0.950 . S
H996 C1001 0.950 . S
H997 C1002 0.949 . S
H998 C1004 0.950 . S
H999 C1005 0.950 . S
H1000 C1006 0.949 . S
C1001 H996 0.950 . S
C1001 C1003 1.327 . S
C1001 C1007 1.429 . S
C1002 C994 1.574 . S
C1002 H997 0.949 . S
C1002 C1008 1.368 . S
C1003 C987 1.349 . S
C1003 H995 0.950 . S
C1003 C1001 1.327 . S
C1004 C992 1.349 . S
C1004 H998 0.950 . S
C1004 C1005 1.327 . S
C1005 H999 0.950 . S
C1005 C1004 1.327 . S
C1005 C1009 1.429 . S
C1006 C989 1.574 . S
C1006 H1000 0.949 . S
C1006 C1010 1.368 . S
C1007 C988 1.429 . S
C1007 C1001 1.429 . S
C1007 C1008 1.523 . S
C1008 C989 1.368 . S
C1008 C1002 1.368 . S
C1008 C1007 1.523 . S
C1009 C993 1.429 . S
C1009 C1005 1.429 . S
C1009 C1010 1.523 . S
C1010 C994 1.368 . S
C1010 C1006 1.368 . S
C1010 C1009 1.523 . S
H1011 C986 0.950 . S
H1012 C988 0.950 . S
H1013 C989 0.949 . S
H1014 C991 0.950 . S
H1015 C993 0.950 . S
C1016 C1017 1.349 . S
C1016 C1018 1.327 . S
C1016 H1041 0.950 . S
C1017 C1016 1.349 . S
C1017 C1033 1.349 . S
C1018 C1016 1.327 . S
C1018 C1037 1.429 . S
C1018 H1042 0.950 . S
C1019 C1036 1.574 . S
C1019 C1038 1.368 . S
C1019 H1043 0.949 . S
H1020 C1024 0.949 . S
C1021 C1022 1.349 . S
C1021 C1023 1.327 . S
C1021 H1044 0.950 . S
C1022 C1021 1.349 . S
C1022 C1034 1.349 . S
C1023 C1021 1.327 . S
C1023 C1039 1.429 . S
C1023 H1045 0.950 . S
C1024 H1020 0.949 . S
C1024 C1032 1.574 . S
C1024 C1040 1.368 . S
H1025 C1033 0.950 1_655 S
H1026 C1031 0.950 . S
H1027 C1032 0.949 . S
H1028 C1034 0.950 . S
H1029 C1035 0.950 . S
H1030 C1036 0.949 . S
C1031 H1026 0.950 . S
C1031 C1033 1.327 . S
C1031 C1037 1.429 . S
C1032 C1024 1.574 . S
C1032 H1027 0.949 . S
C1032 C1038 1.368 . S
C1033 C1017 1.349 . S
C1033 H1025 0.950 1_455 S
C1033 C1031 1.327 . S
C1034 C1022 1.349 . S
C1034 H1028 0.950 . S
C1034 C1035 1.327 . S
C1035 H1029 0.950 . S
C1035 C1034 1.327 . S
C1035 C1039 1.429 . S
C1036 C1019 1.574 . S
C1036 H1030 0.949 . S
C1036 C1040 1.368 . S
C1037 C1018 1.429 . S
C1037 C1031 1.429 . S
C1037 C1038 1.523 . S
C1038 C1019 1.368 . S
C1038 C1032 1.368 . S
C1038 C1037 1.523 . S
C1039 C1023 1.429 . S
C1039 C1035 1.429 . S
C1039 C1040 1.523 . S
C1040 C1024 1.368 . S
C1040 C1036 1.368 . S
C1040 C1039 1.523 . S
H1041 C1016 0.950 . S
H1042 C1018 0.950 . S
H1043 C1019 0.949 . S
H1044 C1021 0.950 . S
H1045 C1023 0.950 . S
C1046 C1047 1.349 . S
C1046 C1048 1.327 . S
C1046 H1071 0.950 . S
C1047 C1046 1.349 . S
C1047 C1063 1.349 . S
C1048 C1046 1.327 . S
C1048 C1067 1.429 . S
C1048 H1072 0.950 . S
C1049 C1066 1.574 . S
C1049 C1068 1.368 . S
C1049 H1073 0.949 . S
H1050 C1054 0.949 . S
C1051 C1052 1.349 . S
C1051 C1053 1.327 . S
C1051 H1074 0.950 . S
C1052 C1051 1.349 . S
C1052 C1064 1.349 . S
C1053 C1051 1.327 . S
C1053 C1069 1.429 . S
C1053 H1075 0.950 . S
C1054 H1050 0.949 . S
C1054 C1062 1.574 . S
C1054 C1070 1.368 . S
H1055 C1063 0.950 . S
H1056 C1061 0.950 . S
H1057 C1062 0.949 . S
H1058 C1064 0.950 . S
H1059 C1065 0.950 . S
H1060 C1066 0.949 . S
C1061 H1056 0.950 . S
C1061 C1063 1.327 . S
C1061 C1067 1.429 . S
C1062 C1054 1.574 . S
C1062 H1057 0.949 . S
C1062 C1068 1.368 . S
C1063 C1047 1.349 . S
C1063 H1055 0.950 . S
C1063 C1061 1.327 . S
C1064 C1052 1.349 . S
C1064 H1058 0.950 . S
C1064 C1065 1.327 . S
C1065 H1059 0.950 . S
C1065 C1064 1.327 . S
C1065 C1069 1.429 . S
C1066 C1049 1.574 . S
C1066 H1060 0.949 . S
C1066 C1070 1.368 . S
C1067 C1048 1.429 . S
C1067 C1061 1.429 . S
C1067 C1068 1.523 . S
C1068 C1049 1.368 . S
C1068 C1062 1.368 . S
C1068 C1067 1.523 . S
C1069 C1053 1.429 . S
C1069 C1065 1.429 . S
C1069 C1070 1.523 . S
C1070 C1054 1.368 . S
C1070 C1066 1.368 . S
C1070 C1069 1.523 . S
H1071 C1046 0.950 . S
H1072 C1048 0.950 . S
H1073 C1049 0.949 . S
H1074 C1051 0.950 . S
H1075 C1053 0.950 . S
C1076 C1077 1.349 . S
C1076 C1078 1.327 . S
C1076 H1101 0.950 . S
C1077 C1076 1.349 . S
C1077 C1093 1.349 . S
C1078 C1076 1.327 . S
C1078 C1097 1.429 . S
C1078 H1102 0.950 . S
C1079 C1096 1.574 . S
C1079 C1098 1.368 . S
C1079 H1103 0.949 . S
H1080 C1084 0.949 . S
C1081 C1082 1.349 . S
C1081 C1083 1.327 . S
C1081 H1104 0.950 . S
C1082 C1081 1.349 . S
C1082 C1094 1.349 . S
C1083 C1081 1.327 . S
C1083 C1099 1.429 . S
C1083 H1105 0.950 . S
C1084 H1080 0.949 . S
C1084 C1092 1.574 . S
C1084 C1100 1.368 . S
H1085 C1093 0.950 . S
H1086 C1091 0.950 . S
H1087 C1092 0.949 . S
H1088 C1094 0.950 . S
H1089 C1095 0.950 . S
H1090 C1096 0.949 . S
C1091 H1086 0.950 . S
C1091 C1093 1.327 . S
C1091 C1097 1.429 . S
C1092 C1084 1.574 . S
C1092 H1087 0.949 . S
C1092 C1098 1.368 . S
C1093 C1077 1.349 . S
C1093 H1085 0.950 . S
C1093 C1091 1.327 . S
C1094 C1082 1.349 . S
C1094 H1088 0.950 . S
C1094 C1095 1.327 . S
C1095 H1089 0.950 . S
C1095 C1094 1.327 . S
C1095 C1099 1.429 . S
C1096 C1079 1.574 . S
C1096 H1090 0.949 . S
C1096 C1100 1.368 . S
C1097 C1078 1.429 . S
C1097 C1091 1.429 . S
C1097 C1098 1.523 . S
C1098 C1079 1.368 . S
C1098 C1092 1.368 . S
C1098 C1097 1.523 . S
C1099 C1083 1.429 . S
C1099 C1095 1.429 . S
C1099 C1100 1.523 . S
C1100 C1084 1.368 . S
C1100 C1096 1.368 . S
C1100 C1099 1.523 . S
H1101 C1076 0.950 . S
H1102 C1078 0.950 . S
H1103 C1079 0.949 . S
H1104 C1081 0.950 . S
H1105 C1083 0.950 . S
C1106 C1107 1.349 . S
C1106 C1108 1.327 . S
C1106 H1131 0.950 . S
C1107 C1106 1.349 . S
C1107 C1123 1.349 . S
C1108 C1106 1.327 . S
C1108 C1127 1.429 . S
C1108 H1132 0.950 . S
C1109 C1126 1.574 . S
C1109 C1128 1.368 . S
C1109 H1133 0.949 . S
H1110 C1114 0.949 . S
C1111 C1112 1.349 . S
C1111 C1113 1.327 . S
C1111 H1134 0.950 . S
C1112 C1111 1.349 . S
C1112 C1124 1.349 . S
C1113 C1111 1.327 . S
C1113 C1129 1.429 . S
C1113 H1135 0.950 . S
C1114 H1110 0.949 . S
C1114 C1122 1.574 . S
C1114 C1130 1.368 . S
H1115 C1123 0.950 . S
H1116 C1121 0.950 . S
H1117 C1122 0.949 . S
H1118 C1124 0.950 . S
H1119 C1125 0.950 . S
H1120 C1126 0.949 . S
C1121 H1116 0.950 . S
C1121 C1123 1.327 . S
C1121 C1127 1.429 . S
C1122 C1114 1.574 . S
C1122 H1117 0.949 . S
C1122 C1128 1.368 . S
C1123 C1107 1.349 . S
C1123 H1115 0.950 . S
C1123 C1121 1.327 . S
C1124 C1112 1.349 . S
C1124 H1118 0.950 . S
C1124 C1125 1.327 . S
C1125 H1119 0.950 . S
C1125 C1124 1.327 . S
C1125 C1129 1.429 . S
C1126 C1109 1.574 . S
C1126 H1120 0.949 . S
C1126 C1130 1.368 . S
C1127 C1108 1.429 . S
C1127 C1121 1.429 . S
C1127 C1128 1.523 . S
C1128 C1109 1.368 . S
C1128 C1122 1.368 . S
C1128 C1127 1.523 . S
C1129 C1113 1.429 . S
C1129 C1125 1.429 . S
C1129 C1130 1.523 . S
C1130 C1114 1.368 . S
C1130 C1126 1.368 . S
C1130 C1129 1.523 . S
H1131 C1106 0.950 . S
H1132 C1108 0.950 . S
H1133 C1109 0.949 . S
H1134 C1111 0.950 . S
H1135 C1113 0.950 . S
C1136 C1137 1.349 1_565 S
C1136 C1138 1.327 . S
C1136 H1161 0.950 . S
C1137 C1136 1.349 1_545 S
C1137 C1153 1.349 . S
C1138 C1136 1.327 . S
C1138 C1157 1.429 1_565 S
C1138 H1162 0.950 . S
C1139 C1156 1.574 . S
C1139 C1158 1.368 . S
C1139 H1163 0.949 . S
H1140 C1144 0.949 . S
C1141 C1142 1.349 . S
C1141 C1143 1.327 . S
C1141 H1164 0.950 . S
C1142 C1141 1.349 . S
C1142 C1154 1.349 1_545 S
C1143 C1141 1.327 . S
C1143 C1159 1.429 . S
C1143 H1165 0.950 . S
C1144 H1140 0.949 . S
C1144 C1152 1.574 . S
C1144 C1160 1.368 1_565 S
H1145 C1153 0.950 . S
H1146 C1151 0.950 . S
H1147 C1152 0.949 . S
H1148 C1154 0.950 . S
H1149 C1155 0.950 . S
H1150 C1156 0.949 . S
C1151 H1146 0.950 . S
C1151 C1153 1.327 . S
C1151 C1157 1.429 . S
C1152 C1144 1.574 . S
C1152 H1147 0.949 . S
C1152 C1158 1.368 1_565 S
C1153 C1137 1.349 . S
C1153 H1145 0.950 . S
C1153 C1151 1.327 . S
C1154 C1142 1.349 1_565 S
C1154 H1148 0.950 . S
C1154 C1155 1.327 . S
C1155 H1149 0.950 . S
C1155 C1154 1.327 . S
C1155 C1159 1.429 1_565 S
C1156 C1139 1.574 . S
C1156 H1150 0.949 . S
C1156 C1160 1.368 . S
C1157 C1138 1.429 1_545 S
C1157 C1151 1.429 . S
C1157 C1158 1.523 . S
C1158 C1139 1.368 . S
C1158 C1152 1.368 1_545 S
C1158 C1157 1.523 . S
C1159 C1143 1.429 . S
C1159 C1155 1.429 1_545 S
C1159 C1160 1.523 . S
C1160 C1144 1.368 1_545 S
C1160 C1156 1.368 . S
C1160 C1159 1.523 . S
H1161 C1136 0.950 . S
H1162 C1138 0.950 . S
H1163 C1139 0.949 . S
H1164 C1141 0.950 . S
H1165 C1143 0.950 . S
C1166 C1167 1.349 . S
C1166 C1168 1.327 . S
C1166 H1191 0.950 . S
C1167 C1166 1.349 . S
C1167 C1183 1.349 . S
C1168 C1166 1.327 . S
C1168 C1187 1.429 . S
C1168 H1192 0.950 . S
C1169 C1186 1.574 . S
C1169 C1188 1.368 . S
C1169 H1193 0.949 . S
H1170 C1174 0.949 . S
C1171 C1172 1.349 . S
C1171 C1173 1.327 . S
C1171 H1194 0.950 . S
C1172 C1171 1.349 . S
C1172 C1184 1.349 . S
C1173 C1171 1.327 . S
C1173 C1189 1.429 . S
C1173 H1195 0.950 . S
C1174 H1170 0.949 . S
C1174 C1182 1.574 . S
C1174 C1190 1.368 . S
H1175 C1183 0.950 . S
H1176 C1181 0.950 . S
H1177 C1182 0.949 . S
H1178 C1184 0.950 . S
H1179 C1185 0.950 . S
H1180 C1186 0.949 . S
C1181 H1176 0.950 . S
C1181 C1183 1.327 . S
C1181 C1187 1.429 . S
C1182 C1174 1.574 . S
C1182 H1177 0.949 . S
C1182 C1188 1.368 . S
C1183 C1167 1.349 . S
C1183 H1175 0.950 . S
C1183 C1181 1.327 . S
C1184 C1172 1.349 . S
C1184 H1178 0.950 . S
C1184 C1185 1.327 . S
C1185 H1179 0.950 . S
C1185 C1184 1.327 . S
C1185 C1189 1.429 . S
C1186 C1169 1.574 . S
C1186 H1180 0.949 . S
C1186 C1190 1.368 . S
C1187 C1168 1.429 . S
C1187 C1181 1.429 . S
C1187 C1188 1.523 . S
C1188 C1169 1.368 . S
C1188 C1182 1.368 . S
C1188 C1187 1.523 . S
C1189 C1173 1.429 . S
C1189 C1185 1.429 . S
C1189 C1190 1.523 . S
C1190 C1174 1.368 . S
C1190 C1186 1.368 . S
C1190 C1189 1.523 . S
H1191 C1166 0.950 . S
H1192 C1168 0.950 . S
H1193 C1169 0.949 . S
H1194 C1171 0.950 . S
H1195 C1173 0.950 . S
C1196 C1197 1.349 . S
C1196 C1198 1.327 . S
C1196 H1221 0.950 . S
C1197 C1196 1.349 . S
C1197 C1213 1.349 . S
C1198 C1196 1.327 . S
C1198 C1217 1.429 . S
C1198 H1222 0.950 . S
C1199 C1216 1.574 . S
C1199 C1218 1.368 . S
C1199 H1223 0.949 . S
H1200 C1204 0.949 . S
C1201 C1202 1.349 . S
C1201 C1203 1.327 . S
C1201 H1224 0.950 . S
C1202 C1201 1.349 . S
C1202 C1214 1.349 . S
C1203 C1201 1.327 . S
C1203 C1219 1.429 . S
C1203 H1225 0.950 . S
C1204 H1200 0.949 . S
C1204 C1212 1.574 . S
C1204 C1220 1.368 . S
H1205 C1213 0.950 . S
H1206 C1211 0.950 . S
H1207 C1212 0.949 . S
H1208 C1214 0.950 . S
H1209 C1215 0.950 . S
H1210 C1216 0.949 . S
C1211 H1206 0.950 . S
C1211 C1213 1.327 . S
C1211 C1217 1.429 . S
C1212 C1204 1.574 . S
C1212 H1207 0.949 . S
C1212 C1218 1.368 . S
C1213 C1197 1.349 . S
C1213 H1205 0.950 . S
C1213 C1211 1.327 . S
C1214 C1202 1.349 . S
C1214 H1208 0.950 . S
C1214 C1215 1.327 . S
C1215 H1209 0.950 . S
C1215 C1214 1.327 . S
C1215 C1219 1.429 . S
C1216 C1199 1.574 . S
C1216 H1210 0.949 . S
C1216 C1220 1.368 . S
C1217 C1198 1.429 . S
C1217 C1211 1.429 . S
C1217 C1218 1.523 . S
C1218 C1199 1.368 . S
C1218 C1212 1.368 . S
C1218 C1217 1.523 . S
C1219 C1203 1.429 . S
C1219 C1215 1.429 . S
C1219 C1220 1.523 . S
C1220 C1204 1.368 . S
C1220 C1216 1.368 . S
C1220 C1219 1.523 . S
H1221 C1196 0.950 . S
H1222 C1198 0.950 . S
H1223 C1199 0.949 . S
H1224 C1201 0.950 . S
H1225 C1203 0.950 . S
C1226 C1227 1.349 . S
C1226 C1228 1.327 . S
C1226 H1251 0.950 . S
C1227 C1226 1.349 . S
C1227 C1243 1.349 . S
C1228 C1226 1.327 . S
C1228 C1247 1.429 . S
C1228 H1252 0.950 . S
C1229 C1246 1.574 . S
C1229 C1248 1.368 . S
C1229 H1253 0.949 . S
H1230 C1234 0.949 . S
C1231 C1232 1.349 . S
C1231 C1233 1.327 . S
C1231 H1254 0.950 . S
C1232 C1231 1.349 . S
C1232 C1244 1.349 . S
C1233 C1231 1.327 . S
C1233 C1249 1.429 . S
C1233 H1255 0.950 . S
C1234 H1230 0.949 . S
C1234 C1242 1.574 . S
C1234 C1250 1.368 . S
H1235 C1243 0.950 . S
H1236 C1241 0.950 . S
H1237 C1242 0.949 . S
H1238 C1244 0.950 . S
H1239 C1245 0.950 . S
H1240 C1246 0.949 . S
C1241 H1236 0.950 . S
C1241 C1243 1.327 . S
C1241 C1247 1.429 . S
C1242 C1234 1.574 . S
C1242 H1237 0.949 . S
C1242 C1248 1.368 . S
C1243 C1227 1.349 . S
C1243 H1235 0.950 . S
C1243 C1241 1.327 . S
C1244 C1232 1.349 . S
C1244 H1238 0.950 . S
C1244 C1245 1.327 . S
C1245 H1239 0.950 . S
C1245 C1244 1.327 . S
C1245 C1249 1.429 . S
C1246 C1229 1.574 . S
C1246 H1240 0.949 . S
C1246 C1250 1.368 . S
C1247 C1228 1.429 . S
C1247 C1241 1.429 . S
C1247 C1248 1.523 . S
C1248 C1229 1.368 . S
C1248 C1242 1.368 . S
C1248 C1247 1.523 . S
C1249 C1233 1.429 . S
C1249 C1245 1.429 . S
C1249 C1250 1.523 . S
C1250 C1234 1.368 . S
C1250 C1246 1.368 . S
C1250 C1249 1.523 . S
H1251 C1226 0.950 . S
H1252 C1228 0.950 . S
H1253 C1229 0.949 . S
H1254 C1231 0.950 . S
H1255 C1233 0.950 . S
C1256 C1257 1.349 . S
C1256 C1258 1.327 . S
C1256 H1281 0.950 . S
C1257 C1256 1.349 . S
C1257 C1273 1.349 . S
C1258 C1256 1.327 . S
C1258 C1277 1.429 . S
C1258 H1282 0.950 . S
C1259 C1276 1.574 . S
C1259 C1278 1.368 . S
C1259 H1283 0.949 . S
H1260 C1264 0.949 . S
C1261 C1262 1.349 . S
C1261 C1263 1.327 . S
C1261 H1284 0.950 . S
C1262 C1261 1.349 . S
C1262 C1274 1.349 . S
C1263 C1261 1.327 . S
C1263 C1279 1.447 . S
C1263 H1285 0.950 . S
C1264 H1260 0.949 . S
C1264 C1272 1.574 . S
C1264 C1280 1.368 . S
H1265 C1273 0.950 . S
H1266 C1271 0.950 . S
H1267 C1272 0.949 . S
H1268 C1274 0.950 . S
H1269 C1275 0.950 1_655 S
H1270 C1276 0.949 . S
C1271 H1266 0.950 . S
C1271 C1273 1.327 . S
C1271 C1277 1.429 . S
C1272 C1264 1.574 . S
C1272 H1267 0.949 . S
C1272 C1278 1.368 . S
C1273 C1257 1.349 . S
C1273 H1265 0.950 . S
C1273 C1271 1.327 . S
C1274 C1262 1.349 . S
C1274 H1268 0.950 . S
C1274 C1275 1.327 . S
C1275 H1269 0.950 1_455 S
C1275 C1274 1.327 . S
C1275 C1279 1.431 . S
C1276 C1259 1.574 . S
C1276 H1270 0.949 . S
C1276 C1280 1.368 . S
C1277 C1258 1.429 . S
C1277 C1271 1.429 . S
C1277 C1278 1.523 . S
C1278 C1259 1.368 . S
C1278 C1272 1.368 . S
C1278 C1277 1.523 . S
C1279 C1263 1.447 . S
C1279 C1275 1.431 . S
C1279 C1280 1.504 1_455 S
C1280 C1264 1.368 . S
C1280 C1276 1.368 . S
C1280 C1279 1.504 1_655 S
H1281 C1256 0.950 . S
H1282 C1258 0.950 . S
H1283 C1259 0.949 . S
H1284 C1261 0.950 . S
H1285 C1263 0.950 . S
C1286 C1287 1.349 . S
C1286 C1288 1.327 . S
C1286 H1311 0.950 . S
C1287 C1286 1.349 . S
C1287 C1303 1.349 . S
C1288 C1286 1.327 . S
C1288 C1307 1.429 . S
C1288 H1312 0.950 . S
C1289 C1306 1.574 . S
C1289 C1308 1.368 . S
C1289 H1313 0.949 . S
H1290 C1294 0.949 . S
C1291 C1292 1.349 . S
C1291 C1293 1.327 . S
C1291 H1314 0.950 . S
C1292 C1291 1.349 . S
C1292 C1304 1.349 . S
C1293 C1291 1.327 . S
C1293 C1309 1.429 . S
C1293 H1315 0.950 . S
C1294 H1290 0.949 . S
C1294 C1302 1.574 . S
C1294 C1310 1.368 . S
H1295 C1303 0.950 . S
H1296 C1301 0.950 . S
H1297 C1302 0.949 . S
H1298 C1304 0.950 . S
H1299 C1305 0.950 . S
H1300 C1306 0.949 . S
C1301 H1296 0.950 . S
C1301 C1303 1.327 . S
C1301 C1307 1.429 . S
C1302 C1294 1.574 . S
C1302 H1297 0.949 . S
C1302 C1308 1.368 . S
C1303 C1287 1.349 . S
C1303 H1295 0.950 . S
C1303 C1301 1.327 . S
C1304 C1292 1.349 . S
C1304 H1298 0.950 . S
C1304 C1305 1.327 . S
C1305 H1299 0.950 . S
C1305 C1304 1.327 . S
C1305 C1309 1.429 . S
C1306 C1289 1.574 . S
C1306 H1300 0.949 . S
C1306 C1310 1.368 . S
C1307 C1288 1.429 . S
C1307 C1301 1.429 . S
C1307 C1308 1.523 . S
C1308 C1289 1.368 . S
C1308 C1302 1.368 . S
C1308 C1307 1.523 . S
C1309 C1293 1.429 . S
C1309 C1305 1.429 . S
C1309 C1310 1.523 . S
C1310 C1294 1.368 . S
C1310 C1306 1.368 . S
C1310 C1309 1.523 . S
H1311 C1286 0.950 . S
H1312 C1288 0.950 . S
H1313 C1289 0.949 . S
H1314 C1291 0.950 . S
H1315 C1293 0.950 . S
C1316 C1317 1.349 . S
C1316 C1318 1.327 . S
C1316 H1341 0.950 . S
C1317 C1316 1.349 . S
C1317 C1333 1.349 . S
C1318 C1316 1.327 . S
C1318 C1337 1.429 . S
C1318 H1342 0.950 . S
C1319 C1336 1.574 . S
C1319 C1338 1.368 . S
C1319 H1343 0.949 . S
H1320 C1324 0.949 . S
C1321 C1322 1.349 . S
C1321 C1323 1.327 . S
C1321 H1344 0.950 . S
C1322 C1321 1.349 . S
C1322 C1334 1.349 . S
C1323 C1321 1.327 . S
C1323 C1339 1.429 . S
C1323 H1345 0.950 . S
C1324 H1320 0.949 . S
C1324 C1332 1.574 . S
C1324 C1340 1.368 . S
H1325 C1333 0.950 . S
H1326 C1331 0.950 . S
H1327 C1332 0.949 . S
H1328 C1334 0.950 . S
H1329 C1335 0.950 . S
H1330 C1336 0.949 . S
C1331 H1326 0.950 . S
C1331 C1333 1.327 . S
C1331 C1337 1.429 . S
C1332 C1324 1.574 . S
C1332 H1327 0.949 . S
C1332 C1338 1.368 . S
C1333 C1317 1.349 . S
C1333 H1325 0.950 . S
C1333 C1331 1.327 . S
C1334 C1322 1.349 . S
C1334 H1328 0.950 . S
C1334 C1335 1.327 . S
C1335 H1329 0.950 . S
C1335 C1334 1.327 . S
C1335 C1339 1.429 . S
C1336 C1319 1.574 . S
C1336 H1330 0.949 . S
C1336 C1340 1.368 . S
C1337 C1318 1.429 . S
C1337 C1331 1.429 . S
C1337 C1338 1.523 . S
C1338 C1319 1.368 . S
C1338 C1332 1.368 . S
C1338 C1337 1.523 . S
C1339 C1323 1.429 . S
C1339 C1335 1.429 . S
C1339 C1340 1.523 . S
C1340 C1324 1.368 . S
C1340 C1336 1.368 . S
C1340 C1339 1.523 . S
H1341 C1316 0.950 . S
H1342 C1318 0.950 . S
H1343 C1319 0.949 . S
H1344 C1321 0.950 . S
H1345 C1323 0.950 . S
C1346 C1347 1.349 . S
C1346 C1348 1.327 . S
C1346 H1371 0.950 . S
C1347 C1346 1.349 . S
C1347 C1363 1.349 . S
C1348 C1346 1.327 . S
C1348 C1367 1.429 . S
C1348 H1372 0.950 . S
C1349 C1366 1.574 . S
C1349 C1368 1.368 . S
C1349 H1373 0.949 . S
H1350 C1354 0.949 . S
C1351 C1352 1.301 1_565 S
C1351 C1353 1.380 . S
C1351 H1374 0.948 1_565 S
C1352 C1351 1.301 1_545 S
C1352 C1364 1.349 . S
C1353 C1351 1.380 . S
C1353 C1369 1.429 . S
C1353 H1375 0.950 . S
C1354 H1350 0.949 . S
C1354 C1362 1.574 . S
C1354 C1370 1.368 . S
H1355 C1363 0.950 . S
H1356 C1361 0.950 . S
H1357 C1362 0.949 . S
H1358 C1364 0.950 . S
H1359 C1365 0.950 . S
H1360 C1366 0.949 . S
C1361 H1356 0.950 . S
C1361 C1363 1.327 . S
C1361 C1367 1.429 . S
C1362 C1354 1.574 . S
C1362 H1357 0.949 . S
C1362 C1368 1.368 . S
C1363 C1347 1.349 . S
C1363 H1355 0.950 . S
C1363 C1361 1.327 . S
C1364 C1352 1.349 . S
C1364 H1358 0.950 . S
C1364 C1365 1.327 1_545 S
C1365 H1359 0.950 . S
C1365 C1364 1.327 1_565 S
C1365 C1369 1.429 . S
C1366 C1349 1.574 . S
C1366 H1360 0.949 . S
C1366 C1370 1.368 . S
C1367 C1348 1.429 . S
C1367 C1361 1.429 . S
C1367 C1368 1.523 . S
C1368 C1349 1.368 . S
C1368 C1362 1.368 . S
C1368 C1367 1.523 . S
C1369 C1353 1.429 . S
C1369 C1365 1.429 . S
C1369 C1370 1.523 . S
C1370 C1354 1.368 . S
C1370 C1366 1.368 . S
C1370 C1369 1.523 . S
H1371 C1346 0.950 . S
H1372 C1348 0.950 . S
H1373 C1349 0.949 . S
H1374 C1351 0.948 1_545 S
H1375 C1353 0.950 . S
C1376 C1377 1.349 . S
C1376 C1378 1.327 . S
C1376 H1401 0.950 . S
C1377 C1376 1.349 . S
C1377 C1393 1.349 . S
C1378 C1376 1.327 . S
C1378 C1397 1.429 . S
C1378 H1402 0.950 . S
C1379 C1396 1.574 . S
C1379 C1398 1.368 . S
C1379 H1403 0.949 . S
H1380 C1384 0.949 . S
C1381 C1382 1.349 . S
C1381 C1383 1.327 . S
C1381 H1404 0.950 . S
C1382 C1381 1.349 . S
C1382 C1394 1.349 . S
C1383 C1381 1.327 . S
C1383 C1399 1.429 . S
C1383 H1405 0.950 . S
C1384 H1380 0.949 . S
C1384 C1392 1.574 . S
C1384 C1400 1.368 . S
H1385 C1393 0.950 . S
H1386 C1391 0.950 . S
H1387 C1392 0.949 . S
H1388 C1394 0.950 . S
H1389 C1395 0.950 . S
H1390 C1396 0.949 . S
C1391 H1386 0.950 . S
C1391 C1393 1.327 . S
C1391 C1397 1.429 . S
C1392 C1384 1.574 . S
C1392 H1387 0.949 . S
C1392 C1398 1.368 . S
C1393 C1377 1.349 . S
C1393 H1385 0.950 . S
C1393 C1391 1.327 . S
C1394 C1382 1.349 . S
C1394 H1388 0.950 . S
C1394 C1395 1.327 . S
C1395 H1389 0.950 . S
C1395 C1394 1.327 . S
C1395 C1399 1.429 . S
C1396 C1379 1.574 . S
C1396 H1390 0.949 . S
C1396 C1400 1.368 . S
C1397 C1378 1.429 . S
C1397 C1391 1.429 . S
C1397 C1398 1.523 . S
C1398 C1379 1.368 . S
C1398 C1392 1.368 . S
C1398 C1397 1.523 . S
C1399 C1383 1.429 . S
C1399 C1395 1.429 . S
C1399 C1400 1.523 . S
C1400 C1384 1.368 . S
C1400 C1396 1.368 . S
C1400 C1399 1.523 . S
H1401 C1376 0.950 . S
H1402 C1378 0.950 . S
H1403 C1379 0.949 . S
H1404 C1381 0.950 . S
H1405 C1383 0.950 . S
C1406 C1407 1.349 . S
C1406 C1408 1.327 . S
C1406 H1431 0.950 . S
C1407 C1406 1.349 . S
C1407 C1423 1.349 . S
C1408 C1406 1.327 . S
C1408 C1427 1.429 . S
C1408 H1432 0.950 . S
C1409 C1426 1.574 . S
C1409 C1428 1.368 . S
C1409 H1433 0.949 . S
H1410 C1414 0.949 . S
C1411 C1412 1.349 . S
C1411 C1413 1.327 . S
C1411 H1434 0.950 . S
C1412 C1411 1.349 . S
C1412 C1424 1.349 . S
C1413 C1411 1.327 . S
C1413 C1429 1.429 . S
C1413 H1435 0.950 . S
C1414 H1410 0.949 . S
C1414 C1422 1.574 . S
C1414 C1430 1.368 . S
H1415 C1423 0.950 . S
H1416 C1421 0.950 . S
H1417 C1422 0.949 . S
H1418 C1424 0.950 . S
H1419 C1425 0.950 . S
H1420 C1426 0.949 . S
C1421 H1416 0.950 . S
C1421 C1423 1.327 . S
C1421 C1427 1.429 . S
C1422 C1414 1.574 . S
C1422 H1417 0.949 . S
C1422 C1428 1.368 . S
C1423 C1407 1.349 . S
C1423 H1415 0.950 . S
C1423 C1421 1.327 . S
C1424 C1412 1.349 . S
C1424 H1418 0.950 . S
C1424 C1425 1.327 . S
C1425 H1419 0.950 . S
C1425 C1424 1.327 . S
C1425 C1429 1.429 . S
C1426 C1409 1.574 . S
C1426 H1420 0.949 . S
C1426 C1430 1.368 . S
C1427 C1408 1.429 . S
C1427 C1421 1.429 . S
C1427 C1428 1.523 . S
C1428 C1409 1.368 . S
C1428 C1422 1.368 . S
C1428 C1427 1.523 . S
C1429 C1413 1.429 . S
C1429 C1425 1.429 . S
C1429 C1430 1.523 . S
C1430 C1414 1.368 . S
C1430 C1426 1.368 . S
C1430 C1429 1.523 . S
H1431 C1406 0.950 . S
H1432 C1408 0.950 . S
H1433 C1409 0.949 . S
H1434 C1411 0.950 . S
H1435 C1413 0.950 . S
C1436 C1437 1.349 . S
C1436 C1438 1.327 . S
C1436 H1461 0.950 . S
C1437 C1436 1.349 . S
C1437 C1453 1.349 . S
C1438 C1436 1.327 . S
C1438 C1457 1.429 . S
C1438 H1462 0.950 . S
C1439 C1456 1.574 . S
C1439 C1458 1.368 . S
C1439 H1463 0.949 . S
H1440 C1444 0.949 . S
C1441 C1442 1.349 . S
C1441 C1443 1.327 . S
C1441 H1464 0.950 . S
C1442 C1441 1.349 . S
C1442 C1454 1.349 . S
C1443 C1441 1.327 . S
C1443 C1459 1.429 . S
C1443 H1465 0.950 . S
C1444 H1440 0.949 . S
C1444 C1452 1.574 . S
C1444 C1460 1.368 . S
H1445 C1453 0.950 . S
H1446 C1451 0.950 . S
H1447 C1452 0.949 . S
H1448 C1454 0.950 . S
H1449 C1455 0.950 . S
H1450 C1456 0.949 . S
C1451 H1446 0.950 . S
C1451 C1453 1.327 . S
C1451 C1457 1.429 . S
C1452 C1444 1.574 . S
C1452 H1447 0.949 . S
C1452 C1458 1.368 . S
C1453 C1437 1.349 . S
C1453 H1445 0.950 . S
C1453 C1451 1.327 . S
C1454 C1442 1.349 . S
C1454 H1448 0.950 . S
C1454 C1455 1.327 . S
C1455 H1449 0.950 . S
C1455 C1454 1.327 . S
C1455 C1459 1.429 . S
C1456 C1439 1.574 . S
C1456 H1450 0.949 . S
C1456 C1460 1.368 . S
C1457 C1438 1.429 . S
C1457 C1451 1.429 . S
C1457 C1458 1.523 . S
C1458 C1439 1.368 . S
C1458 C1452 1.368 . S
C1458 C1457 1.523 . S
C1459 C1443 1.429 . S
C1459 C1455 1.429 . S
C1459 C1460 1.523 . S
C1460 C1444 1.368 . S
C1460 C1456 1.368 . S
C1460 C1459 1.523 . S
H1461 C1436 0.950 . S
H1462 C1438 0.950 . S
H1463 C1439 0.949 . S
H1464 C1441 0.950 . S
H1465 C1443 0.950 . S
C1466 C1467 1.349 1_545 S
C1466 C1468 1.327 . S
C1466 H1491 0.950 . S
C1467 C1466 1.349 1_565 S
C1467 C1483 1.349 . S
C1468 C1466 1.327 . S
C1468 C1487 1.429 1_545 S
C1468 H1492 0.950 . S
C1469 C1486 1.574 . S
C1469 C1488 1.368 . S
C1469 H1493 0.949 . S
H1470 C1474 0.949 . S
C1471 C1472 1.349 1_565 S
C1471 C1473 1.327 . S
C1471 H1494 0.950 . S
C1472 C1471 1.349 1_545 S
C1472 C1484 1.349 . S
C1473 C1471 1.327 . S
C1473 C1489 1.435 . S
C1473 H1495 0.950 . S
C1474 H1470 0.949 . S
C1474 C1482 1.574 . S
C1474 C1490 1.368 1_545 S
H1475 C1483 0.950 . S
H1476 C1481 0.950 . S
H1477 C1482 0.949 . S
H1478 C1484 0.950 . S
H1479 C1485 0.950 . S
H1480 C1486 0.949 . S
C1481 H1476 0.950 . S
C1481 C1483 1.327 . S
C1481 C1487 1.429 . S
C1482 C1474 1.574 . S
C1482 H1477 0.949 . S
C1482 C1488 1.368 1_545 S
C1483 C1467 1.349 . S
C1483 H1475 0.950 . S
C1483 C1481 1.327 . S
C1484 C1472 1.349 . S
C1484 H1478 0.950 . S
C1484 C1485 1.327 . S
C1485 H1479 0.950 . S
C1485 C1484 1.327 . S
C1485 C1489 1.421 1_545 S
C1486 C1469 1.574 . S
C1486 H1480 0.949 . S
C1486 C1490 1.368 . S
C1487 C1468 1.429 1_565 S
C1487 C1481 1.429 . S
C1487 C1488 1.523 . S
C1488 C1469 1.368 . S
C1488 C1482 1.368 1_565 S
C1488 C1487 1.523 . S
C1489 C1473 1.435 . S
C1489 C1485 1.421 1_565 S
C1489 C1490 1.524 . S
C1490 C1474 1.368 1_565 S
C1490 C1486 1.368 . S
C1490 C1489 1.524 . S
H1491 C1466 0.950 . S
H1492 C1468 0.950 . S
H1493 C1469 0.949 . S
H1494 C1471 0.950 . S
H1495 C1473 0.950 . S
C1496 C1497 1.349 . S
C1496 C1498 1.327 . S
C1496 H1521 0.950 . S
C1497 C1496 1.349 . S
C1497 C1513 1.349 . S
C1498 C1496 1.327 . S
C1498 C1517 1.429 . S
C1498 H1522 0.950 . S
C1499 C1516 1.574 . S
C1499 C1518 1.368 . S
C1499 H1523 0.949 . S
H1500 C1504 0.949 . S
C1501 C1502 1.349 . S
C1501 C1503 1.327 . S
C1501 H1524 0.950 . S
C1502 C1501 1.349 . S
C1502 C1514 1.349 . S
C1503 C1501 1.327 . S
C1503 C1519 1.429 1_554 S
C1503 H1525 0.950 1_554 S
C1504 H1500 0.949 . S
C1504 C1512 1.574 . S
C1504 C1520 1.368 . S
H1505 C1513 0.950 . S
H1506 C1511 0.950 . S
H1507 C1512 0.949 . S
H1508 C1514 0.950 . S
H1509 C1515 0.950 . S
H1510 C1516 0.949 . S
C1511 H1506 0.950 . S
C1511 C1513 1.327 . S
C1511 C1517 1.429 . S
C1512 C1504 1.574 . S
C1512 H1507 0.949 . S
C1512 C1518 1.368 . S
C1513 C1497 1.349 . S
C1513 H1505 0.950 . S
C1513 C1511 1.327 . S
C1514 C1502 1.349 . S
C1514 H1508 0.950 . S
C1514 C1515 1.327 . S
C1515 H1509 0.950 . S
C1515 C1514 1.327 . S
C1515 C1519 1.429 1_554 S
C1516 C1499 1.574 . S
C1516 H1510 0.949 . S
C1516 C1520 1.368 . S
C1517 C1498 1.429 . S
C1517 C1511 1.429 . S
C1517 C1518 1.523 . S
C1518 C1499 1.368 . S
C1518 C1512 1.368 . S
C1518 C1517 1.523 . S
C1519 C1503 1.429 1_556 S
C1519 C1515 1.429 1_556 S
C1519 C1520 1.523 . S
C1520 C1504 1.368 . S
C1520 C1516 1.368 . S
C1520 C1519 1.523 . S
H1521 C1496 0.950 . S
H1522 C1498 0.950 . S
H1523 C1499 0.949 . S
H1524 C1501 0.950 . S
H1525 C1503 0.950 1_556 S
C1526 C1527 1.349 . S
C1526 C1528 1.327 . S
C1526 H1551 0.950 1_545 S
C1527 C1526 1.349 . S
C1527 C1543 1.349 . S
C1528 C1526 1.327 . S
C1528 C1547 1.429 . S
C1528 H1552 0.950 . S
C1529 C1546 1.574 . S
C1529 C1548 1.368 . S
C1529 H1553 0.949 . S
H1530 C1534 0.949 . S
C1531 C1532 1.349 . S
C1531 C1533 1.327 . S
C1531 H1554 0.950 . S
C1532 C1531 1.349 . S
C1532 C1544 1.349 . S
C1533 C1531 1.327 . S
C1533 C1549 1.429 . S
C1533 H1555 0.950 . S
C1534 H1530 0.949 . S
C1534 C1542 1.574 1_554 S
C1534 C1550 1.368 . S
H1535 C1543 0.950 . S
H1536 C1541 0.950 . S
H1537 C1542 0.949 . S
H1538 C1544 0.950 . S
H1539 C1545 0.950 . S
H1540 C1546 0.949 . S
C1541 H1536 0.950 . S
C1541 C1543 1.327 . S
C1541 C1547 1.429 . S
C1542 C1534 1.574 1_556 S
C1542 H1537 0.949 . S
C1542 C1548 1.368 . S
C1543 C1527 1.349 . S
C1543 H1535 0.950 . S
C1543 C1541 1.327 . S
C1544 C1532 1.349 . S
C1544 H1538 0.950 . S
C1544 C1545 1.327 . S
C1545 H1539 0.950 . S
C1545 C1544 1.327 . S
C1545 C1549 1.429 . S
C1546 C1529 1.574 . S
C1546 H1540 0.949 . S
C1546 C1550 1.368 1_556 S
C1547 C1528 1.429 . S
C1547 C1541 1.429 . S
C1547 C1548 1.523 . S
C1548 C1529 1.368 . S
C1548 C1542 1.368 . S
C1548 C1547 1.523 . S
C1549 C1533 1.429 . S
C1549 C1545 1.429 . S
C1549 C1550 1.523 . S
C1550 C1534 1.368 . S
C1550 C1546 1.368 1_554 S
C1550 C1549 1.523 . S
H1551 C1526 0.950 1_565 S
H1552 C1528 0.950 . S
H1553 C1529 0.949 . S
H1554 C1531 0.950 . S
H1555 C1533 0.950 . S
C1556 C1557 1.349 . S
C1556 C1558 1.327 . S
C1556 H1581 0.950 . S
C1557 C1556 1.349 . S
C1557 C1573 1.349 . S
C1558 C1556 1.327 . S
C1558 C1577 1.429 . S
C1558 H1582 0.950 . S
C1559 C1576 1.574 . S
C1559 C1578 1.368 . S
C1559 H1583 0.949 . S
H1560 C1564 0.949 . S
C1561 C1562 1.349 . S
C1561 C1563 1.327 . S
C1561 H1584 0.950 . S
C1562 C1561 1.349 . S
C1562 C1574 1.349 . S
C1563 C1561 1.327 . S
C1563 C1579 1.429 . S
C1563 H1585 0.950 . S
C1564 H1560 0.949 . S
C1564 C1572 1.574 . S
C1564 C1580 1.368 . S
H1565 C1573 0.950 . S
H1566 C1571 0.950 . S
H1567 C1572 0.949 . S
H1568 C1574 0.950 . S
H1569 C1575 0.950 . S
H1570 C1576 0.949 . S
C1571 H1566 0.950 . S
C1571 C1573 1.327 . S
C1571 C1577 1.429 . S
C1572 C1564 1.574 . S
C1572 H1567 0.949 . S
C1572 C1578 1.368 . S
C1573 C1557 1.349 . S
C1573 H1565 0.950 . S
C1573 C1571 1.327 . S
C1574 C1562 1.349 . S
C1574 H1568 0.950 . S
C1574 C1575 1.327 . S
C1575 H1569 0.950 . S
C1575 C1574 1.327 . S
C1575 C1579 1.429 . S
C1576 C1559 1.574 . S
C1576 H1570 0.949 . S
C1576 C1580 1.368 . S
C1577 C1558 1.429 . S
C1577 C1571 1.429 . S
C1577 C1578 1.523 . S
C1578 C1559 1.368 . S
C1578 C1572 1.368 . S
C1578 C1577 1.523 . S
C1579 C1563 1.429 . S
C1579 C1575 1.429 . S
C1579 C1580 1.523 . S
C1580 C1564 1.368 . S
C1580 C1576 1.368 . S
C1580 C1579 1.523 . S
H1581 C1556 0.950 . S
H1582 C1558 0.950 . S
H1583 C1559 0.949 . S
H1584 C1561 0.950 . S
H1585 C1563 0.950 . S
C1586 C1587 1.349 1_554 S
C1586 C1588 1.327 . S
C1586 H1611 0.950 . S
C1587 C1586 1.349 1_556 S
C1587 C1603 1.349 . S
C1588 C1586 1.327 . S
C1588 C1607 1.429 1_554 S
C1588 H1612 0.950 . S
C1589 C1606 1.574 . S
C1589 C1608 1.368 . S
C1589 H1613 0.949 . S
H1590 C1594 0.949 . S
C1591 C1592 1.349 1_556 S
C1591 C1593 1.327 . S
C1591 H1614 0.950 . S
C1592 C1591 1.349 1_554 S
C1592 C1604 1.349 . S
C1593 C1591 1.327 . S
C1593 C1609 1.436 . S
C1593 H1615 0.950 . S
C1594 H1590 0.949 . S
C1594 C1602 1.574 . S
C1594 C1610 1.368 1_554 S
H1595 C1603 0.950 . S
H1596 C1601 0.950 . S
H1597 C1602 0.949 . S
H1598 C1604 0.950 . S
H1599 C1605 0.950 . S
H1600 C1606 0.949 . S
C1601 H1596 0.950 . S
C1601 C1603 1.327 . S
C1601 C1607 1.429 . S
C1602 C1594 1.574 . S
C1602 H1597 0.949 . S
C1602 C1608 1.368 1_554 S
C1603 C1587 1.349 . S
C1603 H1595 0.950 . S
C1603 C1601 1.327 . S
C1604 C1592 1.349 . S
C1604 H1598 0.950 . S
C1604 C1605 1.327 . S
C1605 H1599 0.950 . S
C1605 C1604 1.327 . S
C1605 C1609 1.421 1_554 S
C1606 C1589 1.574 . S
C1606 H1600 0.949 . S
C1606 C1610 1.368 . S
C1607 C1588 1.429 1_556 S
C1607 C1601 1.429 . S
C1607 C1608 1.523 . S
C1608 C1589 1.368 . S
C1608 C1602 1.368 1_556 S
C1608 C1607 1.523 . S
C1609 C1593 1.436 . S
C1609 C1605 1.421 1_556 S
C1609 C1610 1.523 . S
C1610 C1594 1.368 1_556 S
C1610 C1606 1.368 . S
C1610 C1609 1.523 . S
H1611 C1586 0.950 . S
H1612 C1588 0.950 . S
H1613 C1589 0.949 . S
H1614 C1591 0.950 . S
H1615 C1593 0.950 . S
C1616 C1617 1.349 . S
C1616 C1618 1.339 . S
C1616 H1641 0.950 . S
C1617 C1616 1.349 . S
C1617 C1633 1.349 . S
C1618 C1616 1.339 . S
C1618 C1637 1.434 . S
C1618 H1642 0.936 1_556 S
C1619 C1636 1.574 1_556 S
C1619 C1638 1.368 1_556 S
C1619 H1643 0.949 . S
H1620 C1624 0.949 . S
C1621 C1622 1.349 . S
C1621 C1623 1.327 . S
C1621 H1644 0.950 . S
C1622 C1621 1.349 . S
C1622 C1634 1.349 . S
C1623 C1621 1.327 . S
C1623 C1639 1.429 . S
C1623 H1645 0.950 . S
C1624 H1620 0.949 . S
C1624 C1632 1.574 . S
C1624 C1640 1.368 . S
H1625 C1633 0.950 . S
H1626 C1631 0.950 . S
H1627 C1632 0.949 . S
H1628 C1634 0.950 . S
H1629 C1635 0.950 . S
H1630 C1636 0.949 . S
C1631 H1626 0.950 . S
C1631 C1633 1.327 . S
C1631 C1637 1.429 . S
C1632 C1624 1.574 . S
C1632 H1627 0.949 . S
C1632 C1638 1.368 . S
C1633 C1617 1.349 . S
C1633 H1625 0.950 . S
C1633 C1631 1.327 . S
C1634 C1622 1.349 . S
C1634 H1628 0.950 . S
C1634 C1635 1.327 . S
C1635 H1629 0.950 . S
C1635 C1634 1.327 . S
C1635 C1639 1.429 . S
C1636 C1619 1.574 1_554 S
C1636 H1630 0.949 . S
C1636 C1640 1.368 . S
C1637 C1618 1.434 . S
C1637 C1631 1.429 . S
C1637 C1638 1.523 1_556 S
C1638 C1619 1.368 1_554 S
C1638 C1632 1.368 . S
C1638 C1637 1.523 1_554 S
C1639 C1623 1.429 . S
C1639 C1635 1.429 . S
C1639 C1640 1.523 . S
C1640 C1624 1.368 . S
C1640 C1636 1.368 . S
C1640 C1639 1.523 . S
H1641 C1616 0.950 . S
H1642 C1618 0.936 1_554 S
H1643 C1619 0.949 . S
H1644 C1621 0.950 . S
H1645 C1623 0.950 . S
C1646 C1647 1.349 . S
C1646 C1648 1.327 . S
C1646 H1671 0.950 . S
C1647 C1646 1.349 . S
C1647 C1663 1.349 . S
C1648 C1646 1.327 . S
C1648 C1667 1.429 . S
C1648 H1672 0.950 . S
C1649 C1666 1.574 . S
C1649 C1668 1.368 1_455 S
C1649 H1673 0.949 . S
H1650 C1654 0.949 . S
C1651 C1652 1.349 . S
C1651 C1653 1.327 . S
C1651 H1674 0.950 . S
C1652 C1651 1.349 . S
C1652 C1664 1.349 . S
C1653 C1651 1.327 . S
C1653 C1669 1.429 . S
C1653 H1675 0.950 . S
C1654 H1650 0.949 . S
C1654 C1662 1.574 1_455 S
C1654 C1670 1.368 . S
H1655 C1663 0.950 1_556 S
H1656 C1661 0.950 . S
H1657 C1662 0.949 . S
H1658 C1664 0.950 . S
H1659 C1665 0.950 . S
H1660 C1666 0.949 . S
C1661 H1656 0.950 . S
C1661 C1663 1.327 . S
C1661 C1667 1.429 . S
C1662 C1654 1.574 1_655 S
C1662 H1657 0.949 . S
C1662 C1668 1.368 . S
C1663 C1647 1.349 . S
C1663 H1655 0.950 1_554 S
C1663 C1661 1.327 . S
C1664 C1652 1.349 . S
C1664 H1658 0.950 . S
C1664 C1665 1.327 . S
C1665 H1659 0.950 . S
C1665 C1664 1.327 . S
C1665 C1669 1.429 . S
C1666 C1649 1.574 . S
C1666 H1660 0.949 . S
C1666 C1670 1.368 . S
C1667 C1648 1.429 . S
C1667 C1661 1.429 . S
C1667 C1668 1.523 . S
C1668 C1649 1.368 1_655 S
C1668 C1662 1.368 . S
C1668 C1667 1.523 . S
C1669 C1653 1.429 . S
C1669 C1665 1.429 . S
C1669 C1670 1.523 . S
C1670 C1654 1.368 . S
C1670 C1666 1.368 . S
C1670 C1669 1.523 . S
H1671 C1646 0.950 . S
H1672 C1648 0.950 . S
H1673 C1649 0.949 . S
H1674 C1651 0.950 . S
H1675 C1653 0.950 . S
C1676 C1677 1.349 . S
C1676 C1678 1.327 . S
C1676 H1701 0.950 . S
C1677 C1676 1.349 . S
C1677 C1693 1.349 . S
C1678 C1676 1.327 . S
C1678 C1697 1.429 . S
C1678 H1702 0.950 . S
C1679 C1696 1.574 . S
C1679 C1698 1.368 . S
C1679 H1703 0.949 . S
H1680 C1684 0.949 . S
C1681 C1682 1.349 . S
C1681 C1683 1.327 . S
C1681 H1704 0.950 . S
C1682 C1681 1.349 . S
C1682 C1694 1.349 . S
C1683 C1681 1.327 . S
C1683 C1699 1.429 . S
C1683 H1705 0.950 . S
C1684 H1680 0.949 . S
C1684 C1692 1.574 . S
C1684 C1700 1.368 . S
H1685 C1693 0.950 . S
H1686 C1691 0.950 . S
H1687 C1692 0.949 . S
H1688 C1694 0.950 . S
H1689 C1695 0.950 . S
H1690 C1696 0.949 . S
C1691 H1686 0.950 . S
C1691 C1693 1.327 . S
C1691 C1697 1.429 . S
C1692 C1684 1.574 . S
C1692 H1687 0.949 . S
C1692 C1698 1.368 . S
C1693 C1677 1.349 . S
C1693 H1685 0.950 . S
C1693 C1691 1.327 . S
C1694 C1682 1.349 . S
C1694 H1688 0.950 . S
C1694 C1695 1.327 . S
C1695 H1689 0.950 . S
C1695 C1694 1.327 . S
C1695 C1699 1.429 . S
C1696 C1679 1.574 . S
C1696 H1690 0.949 . S
C1696 C1700 1.368 . S
C1697 C1678 1.429 . S
C1697 C1691 1.429 . S
C1697 C1698 1.523 . S
C1698 C1679 1.368 . S
C1698 C1692 1.368 . S
C1698 C1697 1.523 . S
C1699 C1683 1.429 . S
C1699 C1695 1.429 . S
C1699 C1700 1.523 . S
C1700 C1684 1.368 . S
C1700 C1696 1.368 . S
C1700 C1699 1.523 . S
H1701 C1676 0.950 . S
H1702 C1678 0.950 . S
H1703 C1679 0.949 . S
H1704 C1681 0.950 . S
H1705 C1683 0.950 . S
C1706 C1707 1.349 . S
C1706 C1708 1.327 . S
C1706 H1731 0.950 . S
C1707 C1706 1.349 . S
C1707 C1723 1.349 . S
C1708 C1706 1.327 . S
C1708 C1727 1.429 . S
C1708 H1732 0.950 . S
C1709 C1726 1.577 . S
C1709 C1728 1.342 1_655 S
C1709 H1733 0.971 . S
H1710 C1714 0.949 . S
C1711 C1712 1.349 1_655 S
C1711 C1713 1.327 . S
C1711 H1734 0.950 . S
C1712 C1711 1.349 1_455 S
C1712 C1724 1.349 . S
C1713 C1711 1.327 . S
C1713 C1729 1.429 1_655 S
C1713 H1735 0.950 . S
C1714 H1710 0.949 . S
C1714 C1722 1.574 . S
C1714 C1730 1.368 . S
H1715 C1723 0.950 1_655 S
H1716 C1721 0.950 1_655 S
H1717 C1722 0.949 . S
H1718 C1724 0.950 . S
H1719 C1725 0.950 . S
H1720 C1726 0.949 . S
C1721 H1716 0.950 1_455 S
C1721 C1723 1.327 . S
C1721 C1727 1.429 . S
C1722 C1714 1.574 . S
C1722 H1717 0.949 . S
C1722 C1728 1.368 . S
C1723 C1707 1.349 . S
C1723 H1715 0.950 1_455 S
C1723 C1721 1.327 . S
C1724 C1712 1.349 . S
C1724 H1718 0.950 . S
C1724 C1725 1.327 . S
C1725 H1719 0.950 . S
C1725 C1724 1.327 . S
C1725 C1729 1.429 . S
C1726 C1709 1.577 . S
C1726 H1720 0.949 . S
C1726 C1730 1.368 1_655 S
C1727 C1708 1.429 . S
C1727 C1721 1.429 . S
C1727 C1728 1.523 . S
C1728 C1709 1.342 1_455 S
C1728 C1722 1.368 . S
C1728 C1727 1.523 . S
C1729 C1713 1.429 1_455 S
C1729 C1725 1.429 . S
C1729 C1730 1.523 . S
C1730 C1714 1.368 . S
C1730 C1726 1.368 1_455 S
C1730 C1729 1.523 . S
H1731 C1706 0.950 . S
H1732 C1708 0.950 . S
H1733 C1709 0.971 . S
H1734 C1711 0.950 . S
H1735 C1713 0.950 . S
C1736 C1737 1.349 . S
C1736 C1738 1.327 . S
C1736 H1761 0.950 . S
C1737 C1736 1.349 . S
C1737 C1753 1.349 . S
C1738 C1736 1.327 . S
C1738 C1757 1.429 . S
C1738 H1762 0.950 . S
C1739 C1756 1.574 . S
C1739 C1758 1.368 . S
C1739 H1763 0.949 . S
H1740 C1744 0.949 . S
C1741 C1742 1.349 . S
C1741 C1743 1.327 . S
C1741 H1764 0.950 . S
C1742 C1741 1.349 . S
C1742 C1754 1.349 . S
C1743 C1741 1.327 . S
C1743 C1759 1.429 . S
C1743 H1765 0.950 . S
C1744 H1740 0.949 . S
C1744 C1752 1.574 . S
C1744 C1760 1.368 . S
H1745 C1753 0.950 1_655 S
H1746 C1751 0.938 1_655 S
H1747 C1752 0.949 . S
H1748 C1754 0.950 . S
H1749 C1755 0.950 . S
H1750 C1756 0.949 . S
C1751 H1746 0.938 1_455 S
C1751 C1753 1.327 . S
C1751 C1757 1.429 . S
C1752 C1744 1.574 . S
C1752 H1747 0.949 . S
C1752 C1758 1.368 . S
C1753 C1737 1.349 . S
C1753 H1745 0.950 1_455 S
C1753 C1751 1.327 . S
C1754 C1742 1.349 . S
C1754 H1748 0.950 . S
C1754 C1755 1.327 . S
C1755 H1749 0.950 . S
C1755 C1754 1.327 . S
C1755 C1759 1.429 . S
C1756 C1739 1.574 . S
C1756 H1750 0.949 . S
C1756 C1760 1.368 . S
C1757 C1738 1.429 . S
C1757 C1751 1.429 . S
C1757 C1758 1.523 . S
C1758 C1739 1.368 . S
C1758 C1752 1.368 . S
C1758 C1757 1.523 . S
C1759 C1743 1.429 . S
C1759 C1755 1.429 . S
C1759 C1760 1.523 . S
C1760 C1744 1.368 . S
C1760 C1756 1.368 . S
C1760 C1759 1.523 . S
H1761 C1736 0.950 . S
H1762 C1738 0.950 . S
H1763 C1739 0.949 . S
H1764 C1741 0.950 . S
H1765 C1743 0.950 . S
C1766 C1767 1.349 . S
C1766 C1768 1.327 . S
C1766 H1791 0.950 . S
C1767 C1766 1.349 . S
C1767 C1783 1.375 . S
C1768 C1766 1.327 . S
C1768 C1787 1.429 . S
C1768 H1792 0.950 . S
C1769 C1786 1.574 . S
C1769 C1788 1.377 . S
C1769 H1793 0.949 . S
H1770 C1774 0.949 . S
C1771 C1772 1.349 . S
C1771 C1773 1.327 . S
C1771 H1794 0.950 . S
C1772 C1771 1.349 . S
C1772 C1784 1.349 . S
C1773 C1771 1.327 . S
C1773 C1789 1.429 . S
C1773 H1795 0.950 . S
C1774 H1770 0.949 . S
C1774 C1782 1.574 . S
C1774 C1790 1.368 1_655 S
H1775 C1783 0.935 1_455 S
H1776 C1781 0.950 . S
H1777 C1782 0.949 . S
H1778 C1784 0.950 . S
H1779 C1785 0.950 1_655 S
H1780 C1786 0.949 . S
C1781 H1776 0.950 . S
C1781 C1783 1.317 1_455 S
C1781 C1787 1.429 1_455 S
C1782 C1774 1.574 . S
C1782 H1777 0.949 . S
C1782 C1788 1.362 1_655 S
C1783 C1767 1.375 . S
C1783 H1775 0.935 1_655 S
C1783 C1781 1.317 1_655 S
C1784 C1772 1.349 . S
C1784 H1778 0.950 . S
C1784 C1785 1.327 . S
C1785 H1779 0.950 1_455 S
C1785 C1784 1.327 . S
C1785 C1789 1.429 . S
C1786 C1769 1.574 . S
C1786 H1780 0.949 . S
C1786 C1790 1.368 . S
C1787 C1768 1.429 . S
C1787 C1781 1.429 1_655 S
C1787 C1788 1.520 1_655 S
C1788 C1769 1.377 . S
C1788 C1782 1.362 1_455 S
C1788 C1787 1.520 1_455 S
C1789 C1773 1.429 . S
C1789 C1785 1.429 . S
C1789 C1790 1.523 . S
C1790 C1774 1.368 1_455 S
C1790 C1786 1.368 . S
C1790 C1789 1.523 . S
H1791 C1766 0.950 . S
H1792 C1768 0.950 . S
H1793 C1769 0.949 . S
H1794 C1771 0.950 . S
H1795 C1773 0.950 . S
C1796 C1797 1.349 . S
C1796 C1798 1.327 . S
C1796 H1821 0.950 . S
C1797 C1796 1.349 . S
C1797 C1813 1.349 . S
C1798 C1796 1.327 . S
C1798 C1817 1.429 . S
C1798 H1822 0.950 . S
C1799 C1816 1.574 . S
C1799 C1818 1.368 . S
C1799 H1823 0.949 . S
H1800 C1804 0.949 . S
C1801 C1802 1.349 . S
C1801 C1803 1.327 . S
C1801 H1824 0.950 . S
C1802 C1801 1.349 . S
C1802 C1814 1.349 . S
C1803 C1801 1.327 . S
C1803 C1819 1.429 . S
C1803 H1825 0.950 . S
C1804 H1800 0.949 . S
C1804 C1812 1.574 . S
C1804 C1820 1.368 . S
H1805 C1813 0.950 . S
H1806 C1811 0.950 . S
H1807 C1812 0.949 . S
H1808 C1814 0.950 . S
H1809 C1815 0.950 . S
H1810 C1816 0.949 . S
C1811 H1806 0.950 . S
C1811 C1813 1.327 . S
C1811 C1817 1.429 . S
C1812 C1804 1.574 . S
C1812 H1807 0.949 . S
C1812 C1818 1.368 . S
C1813 C1797 1.349 . S
C1813 H1805 0.950 . S
C1813 C1811 1.327 . S
C1814 C1802 1.349 . S
C1814 H1808 0.950 . S
C1814 C1815 1.327 . S
C1815 H1809 0.950 . S
C1815 C1814 1.327 . S
C1815 C1819 1.429 . S
C1816 C1799 1.574 . S
C1816 H1810 0.949 . S
C1816 C1820 1.368 . S
C1817 C1798 1.429 . S
C1817 C1811 1.429 . S
C1817 C1818 1.523 . S
C1818 C1799 1.368 . S
C1818 C1812 1.368 . S
C1818 C1817 1.523 . S
C1819 C1803 1.429 . S
C1819 C1815 1.429 . S
C1819 C1820 1.523 . S
C1820 C1804 1.368 . S
C1820 C1816 1.368 . S
C1820 C1819 1.523 . S
H1821 C1796 0.950 . S
H1822 C1798 0.950 . S
H1823 C1799 0.949 . S
H1824 C1801 0.950 . S
H1825 C1803 0.950 . S
C1826 C1827 1.349 . S
C1826 C1828 1.327 . S
C1826 H1851 0.950 . S
C1827 C1826 1.349 . S
C1827 C1843 1.349 . S
C1828 C1826 1.327 . S
C1828 C1847 1.429 . S
C1828 H1852 0.950 . S
C1829 C1846 1.574 . S
C1829 C1848 1.368 . S
C1829 H1853 0.949 . S
H1830 C1834 0.949 . S
C1831 C1832 1.349 . S
C1831 C1833 1.327 . S
C1831 H1854 0.950 . S
C1832 C1831 1.349 . S
C1832 C1844 1.349 . S
C1833 C1831 1.327 . S
C1833 C1849 1.429 . S
C1833 H1855 0.950 . S
C1834 H1830 0.949 . S
C1834 C1842 1.574 . S
C1834 C1850 1.368 . S
H1835 C1843 0.950 . S
H1836 C1841 0.950 . S
H1837 C1842 0.949 . S
H1838 C1844 0.950 . S
H1839 C1845 0.950 . S
H1840 C1846 0.949 . S
C1841 H1836 0.950 . S
C1841 C1843 1.327 . S
C1841 C1847 1.429 . S
C1842 C1834 1.574 . S
C1842 H1837 0.949 . S
C1842 C1848 1.368 . S
C1843 C1827 1.349 . S
C1843 H1835 0.950 . S
C1843 C1841 1.327 . S
C1844 C1832 1.349 . S
C1844 H1838 0.950 . S
C1844 C1845 1.327 . S
C1845 H1839 0.950 . S
C1845 C1844 1.327 . S
C1845 C1849 1.429 . S
C1846 C1829 1.574 . S
C1846 H1840 0.949 . S
C1846 C1850 1.368 . S
C1847 C1828 1.429 . S
C1847 C1841 1.429 . S
C1847 C1848 1.523 . S
C1848 C1829 1.368 . S
C1848 C1842 1.368 . S
C1848 C1847 1.523 . S
C1849 C1833 1.429 . S
C1849 C1845 1.429 . S
C1849 C1850 1.523 . S
C1850 C1834 1.368 . S
C1850 C1846 1.368 . S
C1850 C1849 1.523 . S
H1851 C1826 0.950 . S
H1852 C1828 0.950 . S
H1853 C1829 0.949 . S
H1854 C1831 0.950 . S
H1855 C1833 0.950 . S
C1856 C1857 1.349 1_565 S
C1856 C1858 1.327 . S
C1856 H1881 0.950 . S
C1857 C1856 1.349 1_545 S
C1857 C1873 1.349 . S
C1858 C1856 1.327 . S
C1858 C1877 1.429 1_565 S
C1858 H1882 0.950 . S
C1859 C1876 1.574 . S
C1859 C1878 1.368 . S
C1859 H1883 0.949 . S
H1860 C1864 0.949 . S
C1861 C1862 1.345 1_545 S
C1861 C1863 1.327 . S
C1861 H1884 0.950 . S
C1862 C1861 1.345 1_565 S
C1862 C1874 1.353 . S
C1863 C1861 1.327 . S
C1863 C1879 1.447 . S
C1863 H1885 0.950 . S
C1864 H1860 0.949 . S
C1864 C1872 1.574 . S
C1864 C1880 1.330 1_565 S
H1865 C1873 0.950 . S
H1866 C1871 0.950 . S
H1867 C1872 0.949 . S
H1868 C1874 0.950 . S
H1869 C1875 0.950 . S
H1870 C1876 0.949 . S
C1871 H1866 0.950 . S
C1871 C1873 1.327 . S
C1871 C1877 1.429 . S
C1872 C1864 1.574 . S
C1872 H1867 0.949 . S
C1872 C1878 1.368 1_565 S
C1873 C1857 1.349 . S
C1873 H1865 0.950 . S
C1873 C1871 1.327 . S
C1874 C1862 1.353 . S
C1874 H1868 0.950 . S
C1874 C1875 1.327 . S
C1875 H1869 0.950 . S
C1875 C1874 1.327 . S
C1875 C1879 1.410 1_565 S
C1876 C1859 1.574 . S
C1876 H1870 0.949 . S
C1876 C1880 1.409 . S
C1877 C1858 1.429 1_545 S
C1877 C1871 1.429 . S
C1877 C1878 1.523 . S
C1878 C1859 1.368 . S
C1878 C1872 1.368 1_545 S
C1878 C1877 1.523 . S
C1879 C1863 1.447 . S
C1879 C1875 1.410 1_545 S
C1879 C1880 1.522 . S
C1880 C1864 1.330 1_545 S
C1880 C1876 1.409 . S
C1880 C1879 1.522 . S
H1881 C1856 0.950 . S
H1882 C1858 0.950 . S
H1883 C1859 0.949 . S
H1884 C1861 0.950 . S
H1885 C1863 0.950 . S
C1886 C1887 1.349 . S
C1886 C1888 1.327 . S
C1886 H1911 0.950 . S
C1887 C1886 1.349 . S
C1887 C1903 1.349 . S
C1888 C1886 1.327 . S
C1888 C1907 1.429 . S
C1888 H1912 0.950 . S
C1889 C1906 1.574 . S
C1889 C1908 1.368 . S
C1889 H1913 0.949 . S
H1890 C1894 0.949 . S
C1891 C1892 1.349 . S
C1891 C1893 1.327 . S
C1891 H1914 0.950 . S
C1892 C1891 1.349 . S
C1892 C1904 1.349 . S
C1893 C1891 1.327 . S
C1893 C1909 1.429 . S
C1893 H1915 0.950 . S
C1894 H1890 0.949 . S
C1894 C1902 1.574 . S
C1894 C1910 1.368 . S
H1895 C1903 0.950 . S
H1896 C1901 0.950 . S
H1897 C1902 0.949 . S
H1898 C1904 0.950 . S
H1899 C1905 0.950 . S
H1900 C1906 0.949 . S
C1901 H1896 0.950 . S
C1901 C1903 1.327 . S
C1901 C1907 1.429 . S
C1902 C1894 1.574 . S
C1902 H1897 0.949 . S
C1902 C1908 1.368 . S
C1903 C1887 1.349 . S
C1903 H1895 0.950 . S
C1903 C1901 1.327 . S
C1904 C1892 1.349 . S
C1904 H1898 0.950 . S
C1904 C1905 1.327 . S
C1905 H1899 0.950 . S
C1905 C1904 1.327 . S
C1905 C1909 1.429 . S
C1906 C1889 1.574 . S
C1906 H1900 0.949 . S
C1906 C1910 1.368 . S
C1907 C1888 1.429 . S
C1907 C1901 1.429 . S
C1907 C1908 1.523 . S
C1908 C1889 1.368 . S
C1908 C1902 1.368 . S
C1908 C1907 1.523 . S
C1909 C1893 1.429 . S
C1909 C1905 1.429 . S
C1909 C1910 1.523 . S
C1910 C1894 1.368 . S
C1910 C1906 1.368 . S
C1910 C1909 1.523 . S
H1911 C1886 0.950 . S
H1912 C1888 0.950 . S
H1913 C1889 0.949 . S
H1914 C1891 0.950 . S
H1915 C1893 0.950 . S
C1916 C1917 1.349 . S
C1916 C1918 1.327 . S
C1916 H1941 0.950 . S
C1917 C1916 1.349 . S
C1917 C1933 1.349 . S
C1918 C1916 1.327 . S
C1918 C1937 1.429 . S
C1918 H1942 0.950 . S
C1919 C1936 1.574 . S
C1919 C1938 1.368 . S
C1919 H1943 0.949 . S
H1920 C1924 0.949 . S
C1921 C1922 1.349 . S
C1921 C1923 1.327 . S
C1921 H1944 0.950 . S
C1922 C1921 1.349 . S
C1922 C1934 1.349 . S
C1923 C1921 1.327 . S
C1923 C1939 1.429 . S
C1923 H1945 0.950 . S
C1924 H1920 0.949 . S
C1924 C1932 1.574 . S
C1924 C1940 1.368 . S
H1925 C1933 0.950 . S
H1926 C1931 0.950 . S
H1927 C1932 0.949 . S
H1928 C1934 0.950 . S
H1929 C1935 0.950 . S
H1930 C1936 0.949 . S
C1931 H1926 0.950 . S
C1931 C1933 1.327 . S
C1931 C1937 1.429 . S
C1932 C1924 1.574 . S
C1932 H1927 0.949 . S
C1932 C1938 1.368 . S
C1933 C1917 1.349 . S
C1933 H1925 0.950 . S
C1933 C1931 1.327 . S
C1934 C1922 1.349 . S
C1934 H1928 0.950 . S
C1934 C1935 1.327 . S
C1935 H1929 0.950 . S
C1935 C1934 1.327 . S
C1935 C1939 1.429 . S
C1936 C1919 1.574 . S
C1936 H1930 0.949 . S
C1936 C1940 1.368 . S
C1937 C1918 1.429 . S
C1937 C1931 1.429 . S
C1937 C1938 1.523 . S
C1938 C1919 1.368 . S
C1938 C1932 1.368 . S
C1938 C1937 1.523 . S
C1939 C1923 1.429 . S
C1939 C1935 1.429 . S
C1939 C1940 1.523 . S
C1940 C1924 1.368 . S
C1940 C1936 1.368 . S
C1940 C1939 1.523 . S
H1941 C1916 0.950 . S
H1942 C1918 0.950 . S
H1943 C1919 0.949 . S
H1944 C1921 0.950 . S
H1945 C1923 0.950 . S
C1946 C1947 1.349 . S
C1946 C1948 1.327 . S
C1946 H1971 0.950 . S
C1947 C1946 1.349 . S
C1947 C1963 1.349 . S
C1948 C1946 1.327 . S
C1948 C1967 1.429 . S
C1948 H1972 0.950 . S
C1949 C1966 1.574 . S
C1949 C1968 1.368 . S
C1949 H1973 0.949 . S
H1950 C1954 0.949 . S
C1951 C1952 1.349 . S
C1951 C1953 1.327 . S
C1951 H1974 0.950 . S
C1952 C1951 1.349 . S
C1952 C1964 1.349 . S
C1953 C1951 1.327 . S
C1953 C1969 1.429 . S
C1953 H1975 0.950 . S
C1954 H1950 0.949 . S
C1954 C1962 1.574 . S
C1954 C1970 1.368 . S
H1955 C1963 0.950 . S
H1956 C1961 0.950 . S
H1957 C1962 0.949 . S
H1958 C1964 0.950 . S
H1959 C1965 0.950 . S
H1960 C1966 0.949 . S
C1961 H1956 0.950 . S
C1961 C1963 1.327 . S
C1961 C1967 1.429 . S
C1962 C1954 1.574 . S
C1962 H1957 0.949 . S
C1962 C1968 1.368 . S
C1963 C1947 1.349 . S
C1963 H1955 0.950 . S
C1963 C1961 1.327 . S
C1964 C1952 1.349 . S
C1964 H1958 0.950 . S
C1964 C1965 1.327 . S
C1965 H1959 0.950 . S
C1965 C1964 1.327 . S
C1965 C1969 1.429 . S
C1966 C1949 1.574 . S
C1966 H1960 0.949 . S
C1966 C1970 1.368 . S
C1967 C1948 1.429 . S
C1967 C1961 1.429 . S
C1967 C1968 1.523 . S
C1968 C1949 1.368 . S
C1968 C1962 1.368 . S
C1968 C1967 1.523 . S
C1969 C1953 1.429 . S
C1969 C1965 1.429 . S
C1969 C1970 1.523 . S
C1970 C1954 1.368 . S
C1970 C1966 1.368 . S
C1970 C1969 1.523 . S
H1971 C1946 0.950 . S
H1972 C1948 0.950 . S
H1973 C1949 0.949 . S
H1974 C1951 0.950 . S
H1975 C1953 0.950 . S
C1976 C1977 1.349 . S
C1976 C1978 1.327 . S
C1976 H2001 0.950 . S
C1977 C1976 1.349 . S
C1977 C1993 1.349 . S
C1978 C1976 1.327 . S
C1978 C1997 1.429 . S
C1978 H2002 0.950 . S
C1979 C1996 1.574 . S
C1979 C1998 1.368 . S
C1979 H2003 0.949 . S
H1980 C1984 0.949 . S
C1981 C1982 1.349 . S
C1981 C1983 1.327 . S
C1981 H2004 0.950 . S
C1982 C1981 1.349 . S
C1982 C1994 1.349 . S
C1983 C1981 1.327 . S
C1983 C1999 1.429 . S
C1983 H2005 0.950 . S
C1984 H1980 0.949 . S
C1984 C1992 1.574 . S
C1984 C2000 1.368 . S
H1985 C1993 0.950 . S
H1986 C1991 0.950 . S
H1987 C1992 0.949 . S
H1988 C1994 0.950 . S
H1989 C1995 0.950 . S
H1990 C1996 0.949 . S
C1991 H1986 0.950 . S
C1991 C1993 1.327 . S
C1991 C1997 1.429 . S
C1992 C1984 1.574 . S
C1992 H1987 0.949 . S
C1992 C1998 1.368 . S
C1993 C1977 1.349 . S
C1993 H1985 0.950 . S
C1993 C1991 1.327 . S
C1994 C1982 1.349 . S
C1994 H1988 0.950 . S
C1994 C1995 1.327 . S
C1995 H1989 0.950 . S
C1995 C1994 1.327 . S
C1995 C1999 1.429 . S
C1996 C1979 1.574 . S
C1996 H1990 0.949 . S
C1996 C2000 1.368 . S
C1997 C1978 1.429 . S
C1997 C1991 1.429 . S
C1997 C1998 1.523 . S
C1998 C1979 1.368 . S
C1998 C1992 1.368 . S
C1998 C1997 1.523 . S
C1999 C1983 1.429 . S
C1999 C1995 1.429 . S
C1999 C2000 1.523 . S
C2000 C1984 1.368 . S
C2000 C1996 1.368 . S
C2000 C1999 1.523 . S
H2001 C1976 0.950 . S
H2002 C1978 0.950 . S
H2003 C1979 0.949 . S
H2004 C1981 0.950 . S
H2005 C1983 0.950 . S
C2006 C2007 1.349 . S
C2006 C2008 1.327 . S
C2006 H2031 0.950 . S
C2007 C2006 1.349 . S
C2007 C2023 1.349 . S
C2008 C2006 1.327 . S
C2008 C2027 1.429 . S
C2008 H2032 0.950 . S
C2009 C2026 1.574 . S
C2009 C2028 1.368 . S
C2009 H2033 0.949 . S
H2010 C2014 0.949 . S
C2011 C2012 1.349 . S
C2011 C2013 1.327 . S
C2011 H2034 0.950 . S
C2012 C2011 1.349 . S
C2012 C2024 1.349 . S
C2013 C2011 1.327 . S
C2013 C2029 1.429 . S
C2013 H2035 0.950 . S
C2014 H2010 0.949 . S
C2014 C2022 1.574 . S
C2014 C2030 1.368 . S
H2015 C2023 0.950 . S
H2016 C2021 0.950 . S
H2017 C2022 0.949 . S
H2018 C2024 0.950 . S
H2019 C2025 0.950 . S
H2020 C2026 0.949 . S
C2021 H2016 0.950 . S
C2021 C2023 1.327 . S
C2021 C2027 1.429 . S
C2022 C2014 1.574 . S
C2022 H2017 0.949 . S
C2022 C2028 1.368 . S
C2023 C2007 1.349 . S
C2023 H2015 0.950 . S
C2023 C2021 1.327 . S
C2024 C2012 1.349 . S
C2024 H2018 0.950 . S
C2024 C2025 1.327 . S
C2025 H2019 0.950 . S
C2025 C2024 1.327 . S
C2025 C2029 1.429 . S
C2026 C2009 1.574 . S
C2026 H2020 0.949 . S
C2026 C2030 1.368 . S
C2027 C2008 1.429 . S
C2027 C2021 1.429 . S
C2027 C2028 1.523 . S
C2028 C2009 1.368 . S
C2028 C2022 1.368 . S
C2028 C2027 1.523 . S
C2029 C2013 1.429 . S
C2029 C2025 1.429 . S
C2029 C2030 1.523 . S
C2030 C2014 1.368 . S
C2030 C2026 1.368 . S
C2030 C2029 1.523 . S
H2031 C2006 0.950 . S
H2032 C2008 0.950 . S
H2033 C2009 0.949 . S
H2034 C2011 0.950 . S
H2035 C2013 0.950 . S
C2036 C2037 1.349 . S
C2036 C2038 1.327 . S
C2036 H2061 0.950 . S
C2037 C2036 1.349 . S
C2037 C2053 1.349 . S
C2038 C2036 1.327 . S
C2038 C2057 1.429 . S
C2038 H2062 0.950 . S
C2039 C2056 1.574 . S
C2039 C2058 1.368 . S
C2039 H2063 0.949 . S
H2040 C2044 0.949 . S
C2041 C2042 1.349 . S
C2041 C2043 1.327 . S
C2041 H2064 0.950 . S
C2042 C2041 1.349 . S
C2042 C2054 1.349 . S
C2043 C2041 1.327 . S
C2043 C2059 1.429 . S
C2043 H2065 0.950 . S
C2044 H2040 0.949 . S
C2044 C2052 1.574 . S
C2044 C2060 1.368 . S
H2045 C2053 0.950 . S
H2046 C2051 0.950 . S
H2047 C2052 0.949 . S
H2048 C2054 0.950 . S
H2049 C2055 0.950 . S
H2050 C2056 0.949 . S
C2051 H2046 0.950 . S
C2051 C2053 1.327 . S
C2051 C2057 1.429 . S
C2052 C2044 1.574 . S
C2052 H2047 0.949 . S
C2052 C2058 1.368 . S
C2053 C2037 1.349 . S
C2053 H2045 0.950 . S
C2053 C2051 1.327 . S
C2054 C2042 1.349 . S
C2054 H2048 0.950 . S
C2054 C2055 1.327 . S
C2055 H2049 0.950 . S
C2055 C2054 1.327 . S
C2055 C2059 1.429 . S
C2056 C2039 1.574 . S
C2056 H2050 0.949 . S
C2056 C2060 1.368 . S
C2057 C2038 1.429 . S
C2057 C2051 1.429 . S
C2057 C2058 1.523 . S
C2058 C2039 1.368 . S
C2058 C2052 1.368 . S
C2058 C2057 1.523 . S
C2059 C2043 1.429 . S
C2059 C2055 1.429 . S
C2059 C2060 1.523 . S
C2060 C2044 1.368 . S
C2060 C2056 1.368 . S
C2060 C2059 1.523 . S
H2061 C2036 0.950 . S
H2062 C2038 0.950 . S
H2063 C2039 0.949 . S
H2064 C2041 0.950 . S
H2065 C2043 0.950 . S
C2066 C2067 1.349 . S
C2066 C2068 1.327 . S
C2066 H2091 0.950 . S
C2067 C2066 1.349 . S
C2067 C2083 1.349 . S
C2068 C2066 1.327 . S
C2068 C2087 1.429 . S
C2068 H2092 0.950 . S
C2069 C2086 1.574 . S
C2069 C2088 1.368 . S
C2069 H2093 0.949 . S
H2070 C2074 0.949 . S
C2071 C2072 1.349 . S
C2071 C2073 1.327 . S
C2071 H2094 0.950 . S
C2072 C2071 1.349 . S
C2072 C2084 1.349 . S
C2073 C2071 1.327 . S
C2073 C2089 1.429 . S
C2073 H2095 0.950 . S
C2074 H2070 0.949 . S
C2074 C2082 1.574 . S
C2074 C2090 1.368 . S
H2075 C2083 0.950 . S
H2076 C2081 0.950 . S
H2077 C2082 0.949 . S
H2078 C2084 0.950 . S
H2079 C2085 0.950 . S
H2080 C2086 0.949 . S
C2081 H2076 0.950 . S
C2081 C2083 1.327 . S
C2081 C2087 1.429 . S
C2082 C2074 1.574 . S
C2082 H2077 0.949 . S
C2082 C2088 1.368 . S
C2083 C2067 1.349 . S
C2083 H2075 0.950 . S
C2083 C2081 1.327 . S
C2084 C2072 1.349 . S
C2084 H2078 0.950 . S
C2084 C2085 1.327 . S
C2085 H2079 0.950 . S
C2085 C2084 1.327 . S
C2085 C2089 1.429 . S
C2086 C2069 1.574 . S
C2086 H2080 0.949 . S
C2086 C2090 1.368 . S
C2087 C2068 1.429 . S
C2087 C2081 1.429 . S
C2087 C2088 1.523 . S
C2088 C2069 1.368 . S
C2088 C2082 1.368 . S
C2088 C2087 1.523 . S
C2089 C2073 1.429 . S
C2089 C2085 1.429 . S
C2089 C2090 1.523 . S
C2090 C2074 1.368 . S
C2090 C2086 1.368 . S
C2090 C2089 1.523 . S
H2091 C2066 0.950 . S
H2092 C2068 0.950 . S
H2093 C2069 0.949 . S
H2094 C2071 0.950 . S
H2095 C2073 0.950 . S
C2096 C2097 1.349 . S
C2096 C2098 1.327 . S
C2096 H2121 0.950 . S
C2097 C2096 1.349 . S
C2097 C2113 1.349 . S
C2098 C2096 1.327 . S
C2098 C2117 1.429 . S
C2098 H2122 0.950 . S
C2099 C2116 1.574 . S
C2099 C2118 1.368 . S
C2099 H2123 0.949 . S
H2100 C2104 0.949 . S
C2101 C2102 1.349 . S
C2101 C2103 1.327 . S
C2101 H2124 0.950 . S
C2102 C2101 1.349 . S
C2102 C2114 1.349 . S
C2103 C2101 1.327 . S
C2103 C2119 1.429 . S
C2103 H2125 0.950 . S
C2104 H2100 0.949 . S
C2104 C2112 1.574 . S
C2104 C2120 1.368 . S
H2105 C2113 0.950 . S
H2106 C2111 0.950 . S
H2107 C2112 0.949 . S
H2108 C2114 0.950 . S
H2109 C2115 0.950 . S
H2110 C2116 0.949 . S
C2111 H2106 0.950 . S
C2111 C2113 1.327 . S
C2111 C2117 1.429 . S
C2112 C2104 1.574 . S
C2112 H2107 0.949 . S
C2112 C2118 1.368 . S
C2113 C2097 1.349 . S
C2113 H2105 0.950 . S
C2113 C2111 1.327 . S
C2114 C2102 1.349 . S
C2114 H2108 0.950 . S
C2114 C2115 1.327 . S
C2115 H2109 0.950 . S
C2115 C2114 1.327 . S
C2115 C2119 1.429 . S
C2116 C2099 1.574 . S
C2116 H2110 0.949 . S
C2116 C2120 1.368 . S
C2117 C2098 1.429 . S
C2117 C2111 1.429 . S
C2117 C2118 1.523 . S
C2118 C2099 1.368 . S
C2118 C2112 1.368 . S
C2118 C2117 1.523 . S
C2119 C2103 1.429 . S
C2119 C2115 1.429 . S
C2119 C2120 1.523 . S
C2120 C2104 1.368 . S
C2120 C2116 1.368 . S
C2120 C2119 1.523 . S
H2121 C2096 0.950 . S
H2122 C2098 0.950 . S
H2123 C2099 0.949 . S
H2124 C2101 0.950 . S
H2125 C2103 0.950 . S
C2126 C2127 1.349 . S
C2126 C2128 1.327 . S
C2126 H2151 0.950 . S
C2127 C2126 1.349 . S
C2127 C2143 1.349 . S
C2128 C2126 1.327 . S
C2128 C2147 1.429 . S
C2128 H2152 0.950 . S
C2129 C2146 1.574 . S
C2129 C2148 1.368 . S
C2129 H2153 0.949 . S
H2130 C2134 0.949 . S
C2131 C2132 1.349 . S
C2131 C2133 1.327 . S
C2131 H2154 0.950 . S
C2132 C2131 1.349 . S
C2132 C2144 1.349 . S
C2133 C2131 1.327 . S
C2133 C2149 1.429 . S
C2133 H2155 0.950 . S
C2134 H2130 0.949 . S
C2134 C2142 1.574 . S
C2134 C2150 1.368 . S
H2135 C2143 0.950 . S
H2136 C2141 0.950 . S
H2137 C2142 0.949 . S
H2138 C2144 0.950 . S
H2139 C2145 0.950 . S
H2140 C2146 0.949 . S
C2141 H2136 0.950 . S
C2141 C2143 1.327 . S
C2141 C2147 1.429 . S
C2142 C2134 1.574 . S
C2142 H2137 0.949 . S
C2142 C2148 1.368 . S
C2143 C2127 1.349 . S
C2143 H2135 0.950 . S
C2143 C2141 1.327 . S
C2144 C2132 1.349 . S
C2144 H2138 0.950 . S
C2144 C2145 1.327 . S
C2145 H2139 0.950 . S
C2145 C2144 1.327 . S
C2145 C2149 1.429 . S
C2146 C2129 1.574 . S
C2146 H2140 0.949 . S
C2146 C2150 1.368 . S
C2147 C2128 1.429 . S
C2147 C2141 1.429 . S
C2147 C2148 1.523 . S
C2148 C2129 1.368 . S
C2148 C2142 1.368 . S
C2148 C2147 1.523 . S
C2149 C2133 1.429 . S
C2149 C2145 1.429 . S
C2149 C2150 1.523 . S
C2150 C2134 1.368 . S
C2150 C2146 1.368 . S
C2150 C2149 1.523 . S
H2151 C2126 0.950 . S
H2152 C2128 0.950 . S
H2153 C2129 0.949 . S
H2154 C2131 0.950 . S
H2155 C2133 0.950 . S
C2156 C2157 1.349 . S
C2156 C2158 1.327 . S
C2156 H2181 0.950 . S
C2157 C2156 1.349 . S
C2157 C2173 1.349 . S
C2158 C2156 1.327 . S
C2158 C2177 1.429 . S
C2158 H2182 0.950 . S
C2159 C2176 1.574 . S
C2159 C2178 1.368 . S
C2159 H2183 0.949 . S
H2160 C2164 0.949 . S
C2161 C2162 1.349 . S
C2161 C2163 1.327 . S
C2161 H2184 0.950 . S
C2162 C2161 1.349 . S
C2162 C2174 1.349 . S
C2163 C2161 1.327 . S
C2163 C2179 1.429 . S
C2163 H2185 0.950 . S
C2164 H2160 0.949 . S
C2164 C2172 1.574 . S
C2164 C2180 1.368 . S
H2165 C2173 0.950 . S
H2166 C2171 0.950 . S
H2167 C2172 0.949 . S
H2168 C2174 0.950 . S
H2169 C2175 0.950 . S
H2170 C2176 0.949 . S
C2171 H2166 0.950 . S
C2171 C2173 1.327 . S
C2171 C2177 1.429 . S
C2172 C2164 1.574 . S
C2172 H2167 0.949 . S
C2172 C2178 1.368 . S
C2173 C2157 1.349 . S
C2173 H2165 0.950 . S
C2173 C2171 1.327 . S
C2174 C2162 1.349 . S
C2174 H2168 0.950 . S
C2174 C2175 1.327 . S
C2175 H2169 0.950 . S
C2175 C2174 1.327 . S
C2175 C2179 1.429 . S
C2176 C2159 1.574 . S
C2176 H2170 0.949 . S
C2176 C2180 1.368 . S
C2177 C2158 1.429 . S
C2177 C2171 1.429 . S
C2177 C2178 1.523 . S
C2178 C2159 1.368 . S
C2178 C2172 1.368 . S
C2178 C2177 1.523 . S
C2179 C2163 1.429 . S
C2179 C2175 1.429 . S
C2179 C2180 1.523 . S
C2180 C2164 1.368 . S
C2180 C2176 1.368 . S
C2180 C2179 1.523 . S
H2181 C2156 0.950 . S
H2182 C2158 0.950 . S
H2183 C2159 0.949 . S
H2184 C2161 0.950 . S
H2185 C2163 0.950 . S
C2186 C2187 1.349 . S
C2186 C2188 1.327 . S
C2186 H2211 0.950 . S
C2187 C2186 1.349 . S
C2187 C2203 1.349 1_565 S
C2188 C2186 1.327 . S
C2188 C2207 1.429 1_565 S
C2188 H2212 0.950 . S
C2189 C2206 1.574 . S
C2189 C2208 1.368 . S
C2189 H2213 0.949 . S
H2190 C2194 0.949 . S
C2191 C2192 1.349 . S
C2191 C2193 1.327 . S
C2191 H2214 0.950 . S
C2192 C2191 1.349 . S
C2192 C2204 1.349 . S
C2193 C2191 1.327 . S
C2193 C2209 1.429 . S
C2193 H2215 0.950 . S
C2194 H2190 0.949 . S
C2194 C2202 1.574 . S
C2194 C2210 1.368 . S
H2195 C2203 0.950 . S
H2196 C2201 0.950 . S
H2197 C2202 0.949 1_565 S
H2198 C2204 0.950 . S
H2199 C2205 0.950 . S
H2200 C2206 0.949 . S
C2201 H2196 0.950 . S
C2201 C2203 1.327 . S
C2201 C2207 1.429 . S
C2202 C2194 1.574 . S
C2202 H2197 0.949 1_545 S
C2202 C2208 1.368 . S
C2203 C2187 1.349 1_545 S
C2203 H2195 0.950 . S
C2203 C2201 1.327 . S
C2204 C2192 1.349 . S
C2204 H2198 0.950 . S
C2204 C2205 1.327 . S
C2205 H2199 0.950 . S
C2205 C2204 1.327 . S
C2205 C2209 1.429 . S
C2206 C2189 1.574 . S
C2206 H2200 0.949 . S
C2206 C2210 1.368 . S
C2207 C2188 1.429 1_545 S
C2207 C2201 1.429 . S
C2207 C2208 1.523 . S
C2208 C2189 1.368 . S
C2208 C2202 1.368 . S
C2208 C2207 1.523 . S
C2209 C2193 1.429 . S
C2209 C2205 1.429 . S
C2209 C2210 1.523 . S
C2210 C2194 1.368 . S
C2210 C2206 1.368 . S
C2210 C2209 1.523 . S
H2211 C2186 0.950 . S
H2212 C2188 0.950 . S
H2213 C2189 0.949 . S
H2214 C2191 0.950 . S
H2215 C2193 0.950 . S
C2216 C2217 1.349 . S
C2216 C2218 1.327 . S
C2216 H2241 0.950 . S
C2217 C2216 1.349 . S
C2217 C2233 1.349 . S
C2218 C2216 1.327 . S
C2218 C2237 1.429 . S
C2218 H2242 0.950 . S
C2219 C2236 1.574 . S
C2219 C2238 1.368 . S
C2219 H2243 0.949 . S
H2220 C2224 0.949 . S
C2221 C2222 1.349 . S
C2221 C2223 1.327 . S
C2221 H2244 0.950 . S
C2222 C2221 1.349 . S
C2222 C2234 1.349 . S
C2223 C2221 1.327 . S
C2223 C2239 1.429 . S
C2223 H2245 0.950 . S
C2224 H2220 0.949 . S
C2224 C2232 1.574 . S
C2224 C2240 1.368 . S
H2225 C2233 0.950 . S
H2226 C2231 0.950 . S
H2227 C2232 0.949 . S
H2228 C2234 0.950 . S
H2229 C2235 0.950 . S
H2230 C2236 0.949 . S
C2231 H2226 0.950 . S
C2231 C2233 1.327 . S
C2231 C2237 1.429 . S
C2232 C2224 1.574 . S
C2232 H2227 0.949 . S
C2232 C2238 1.368 . S
C2233 C2217 1.349 . S
C2233 H2225 0.950 . S
C2233 C2231 1.327 . S
C2234 C2222 1.349 . S
C2234 H2228 0.950 . S
C2234 C2235 1.327 . S
C2235 H2229 0.950 . S
C2235 C2234 1.327 . S
C2235 C2239 1.429 . S
C2236 C2219 1.574 . S
C2236 H2230 0.949 . S
C2236 C2240 1.368 . S
C2237 C2218 1.429 . S
C2237 C2231 1.429 . S
C2237 C2238 1.523 . S
C2238 C2219 1.368 . S
C2238 C2232 1.368 . S
C2238 C2237 1.523 . S
C2239 C2223 1.429 . S
C2239 C2235 1.429 . S
C2239 C2240 1.523 . S
C2240 C2224 1.368 . S
C2240 C2236 1.368 . S
C2240 C2239 1.523 . S
H2241 C2216 0.950 . S
H2242 C2218 0.950 . S
H2243 C2219 0.949 . S
H2244 C2221 0.950 . S
H2245 C2223 0.950 . S
C2246 C2247 1.349 . S
C2246 C2248 1.327 . S
C2246 H2271 0.950 . S
C2247 C2246 1.349 . S
C2247 C2263 1.349 1_545 S
C2248 C2246 1.327 . S
C2248 C2267 1.429 . S
C2248 H2272 0.950 . S
C2249 C2266 1.574 . S
C2249 C2268 1.368 . S
C2249 H2273 0.949 1_545 S
H2250 C2254 0.949 . S
C2251 C2252 1.349 . S
C2251 C2253 1.327 . S
C2251 H2274 0.950 1_545 S
C2252 C2251 1.349 . S
C2252 C2264 1.349 1_556 S
C2253 C2251 1.327 . S
C2253 C2269 1.429 . S
C2253 H2275 0.950 1_545 S
C2254 H2250 0.949 . S
C2254 C2262 1.574 . S
C2254 C2270 1.368 . S
H2255 C2263 0.950 . S
H2256 C2261 0.960 . S
H2257 C2262 0.949 . S
H2258 C2264 0.950 . S
H2259 C2265 0.950 . S
H2260 C2266 0.949 1_565 S
C2261 H2256 0.960 . S
C2261 C2263 1.328 . S
C2261 C2267 1.418 1_565 S
C2262 C2254 1.574 . S
C2262 H2257 0.949 . S
C2262 C2268 1.368 . S
C2263 C2247 1.349 1_565 S
C2263 H2255 0.950 . S
C2263 C2261 1.328 . S
C2264 C2252 1.349 1_554 S
C2264 H2258 0.950 . S
C2264 C2265 1.327 1_554 S
C2265 H2259 0.950 . S
C2265 C2264 1.327 1_556 S
C2265 C2269 1.429 . S
C2266 C2249 1.574 . S
C2266 H2260 0.949 1_545 S
C2266 C2270 1.368 . S
C2267 C2248 1.429 . S
C2267 C2261 1.418 1_545 S
C2267 C2268 1.523 . S
C2268 C2249 1.368 . S
C2268 C2262 1.368 . S
C2268 C2267 1.523 . S
C2269 C2253 1.429 . S
C2269 C2265 1.429 . S
C2269 C2270 1.523 . S
C2270 C2254 1.368 . S
C2270 C2266 1.368 . S
C2270 C2269 1.523 . S
H2271 C2246 0.950 . S
H2272 C2248 0.950 . S
H2273 C2249 0.949 1_565 S
H2274 C2251 0.950 1_565 S
H2275 C2253 0.950 1_565 S
C2276 C2277 1.349 . S
C2276 C2278 1.327 . S
C2276 H2301 0.950 . S
C2277 C2276 1.349 . S
C2277 C2293 1.349 . S
C2278 C2276 1.327 . S
C2278 C2297 1.429 . S
C2278 H2302 0.950 . S
C2279 C2296 1.574 . S
C2279 C2298 1.368 . S
C2279 H2303 0.949 . S
H2280 C2284 0.949 . S
C2281 C2282 1.349 . S
C2281 C2283 1.327 . S
C2281 H2304 0.950 . S
C2282 C2281 1.349 . S
C2282 C2294 1.349 . S
C2283 C2281 1.327 . S
C2283 C2299 1.429 . S
C2283 H2305 0.950 . S
C2284 H2280 0.949 . S
C2284 C2292 1.574 . S
C2284 C2300 1.368 . S
H2285 C2293 0.950 . S
H2286 C2291 0.950 . S
H2287 C2292 0.949 . S
H2288 C2294 0.950 . S
H2289 C2295 0.950 . S
H2290 C2296 0.949 . S
C2291 H2286 0.950 . S
C2291 C2293 1.327 . S
C2291 C2297 1.429 . S
C2292 C2284 1.574 . S
C2292 H2287 0.949 . S
C2292 C2298 1.368 . S
C2293 C2277 1.349 . S
C2293 H2285 0.950 . S
C2293 C2291 1.327 . S
C2294 C2282 1.349 . S
C2294 H2288 0.950 . S
C2294 C2295 1.327 . S
C2295 H2289 0.950 . S
C2295 C2294 1.327 . S
C2295 C2299 1.429 . S
C2296 C2279 1.574 . S
C2296 H2290 0.949 . S
C2296 C2300 1.368 . S
C2297 C2278 1.429 . S
C2297 C2291 1.429 . S
C2297 C2298 1.523 . S
C2298 C2279 1.368 . S
C2298 C2292 1.368 . S
C2298 C2297 1.523 . S
C2299 C2283 1.429 . S
C2299 C2295 1.429 . S
C2299 C2300 1.523 . S
C2300 C2284 1.368 . S
C2300 C2296 1.368 . S
C2300 C2299 1.523 . S
H2301 C2276 0.950 . S
H2302 C2278 0.950 . S
H2303 C2279 0.949 . S
H2304 C2281 0.950 . S
H2305 C2283 0.950 . S
C2306 C2307 1.349 . S
C2306 C2308 1.327 . S
C2306 H2331 0.950 . S
C2307 C2306 1.349 . S
C2307 C2323 1.349 1_556 S
C2308 C2306 1.327 . S
C2308 C2327 1.429 . S
C2308 H2332 0.950 . S
C2309 C2326 1.574 . S
C2309 C2328 1.418 . S
C2309 H2333 0.949 . S
H2310 C2314 0.949 . S
C2311 C2312 1.349 . S
C2311 C2313 1.327 . S
C2311 H2334 0.950 . S
C2312 C2311 1.349 . S
C2312 C2324 1.349 . S
C2313 C2311 1.327 . S
C2313 C2329 1.429 . S
C2313 H2335 0.950 . S
C2314 H2310 0.949 . S
C2314 C2322 1.574 . S
C2314 C2330 1.368 1_556 S
H2315 C2323 0.950 . S
H2316 C2321 0.950 . S
H2317 C2322 0.949 . S
H2318 C2324 0.950 1_556 S
H2319 C2325 0.952 . S
H2320 C2326 0.949 . S
C2321 H2316 0.950 . S
C2321 C2323 1.327 . S
C2321 C2327 1.429 1_554 S
C2322 C2314 1.574 . S
C2322 H2317 0.949 . S
C2322 C2328 1.327 1_556 S
C2323 C2307 1.349 1_554 S
C2323 H2315 0.950 . S
C2323 C2321 1.327 . S
C2324 C2312 1.349 . S
C2324 H2318 0.950 1_554 S
C2324 C2325 1.327 1_554 S
C2325 H2319 0.952 . S
C2325 C2324 1.327 1_556 S
C2325 C2329 1.427 1_556 S
C2326 C2309 1.574 . S
C2326 H2320 0.949 . S
C2326 C2330 1.368 . S
C2327 C2308 1.429 . S
C2327 C2321 1.429 1_556 S
C2327 C2328 1.515 1_556 S
C2328 C2309 1.418 . S
C2328 C2322 1.327 1_554 S
C2328 C2327 1.515 1_554 S
C2329 C2313 1.429 . S
C2329 C2325 1.427 1_554 S
C2329 C2330 1.523 . S
C2330 C2314 1.368 1_554 S
C2330 C2326 1.368 . S
C2330 C2329 1.523 . S
H2331 C2306 0.950 . S
H2332 C2308 0.950 . S
H2333 C2309 0.949 . S
H2334 C2311 0.950 . S
H2335 C2313 0.950 . S
C2336 C2337 1.349 1_554 S
C2336 C2338 1.327 . S
C2336 H2361 0.950 . S
C2337 C2336 1.349 1_556 S
C2337 C2353 1.349 . S
C2338 C2336 1.327 . S
C2338 C2357 1.429 1_554 S
C2338 H2362 0.950 . S
C2339 C2356 1.574 . S
C2339 C2358 1.368 . S
C2339 H2363 0.949 . S
H2340 C2344 0.949 . S
C2341 C2342 1.349 1_556 S
C2341 C2343 1.327 . S
C2341 H2364 0.950 . S
C2342 C2341 1.349 1_554 S
C2342 C2354 1.349 . S
C2343 C2341 1.327 . S
C2343 C2359 1.429 1_556 S
C2343 H2365 0.950 . S
C2344 H2340 0.949 . S
C2344 C2352 1.574 . S
C2344 C2360 1.368 . S
H2345 C2353 0.950 . S
H2346 C2351 0.950 . S
H2347 C2352 0.949 . S
H2348 C2354 0.950 . S
H2349 C2355 0.950 . S
H2350 C2356 0.949 . S
C2351 H2346 0.950 . S
C2351 C2353 1.327 . S
C2351 C2357 1.429 . S
C2352 C2344 1.574 . S
C2352 H2347 0.949 . S
C2352 C2358 1.368 1_554 S
C2353 C2337 1.349 . S
C2353 H2345 0.950 . S
C2353 C2351 1.327 . S
C2354 C2342 1.349 . S
C2354 H2348 0.950 . S
C2354 C2355 1.327 . S
C2355 H2349 0.950 . S
C2355 C2354 1.327 . S
C2355 C2359 1.429 . S
C2356 C2339 1.574 . S
C2356 H2350 0.949 . S
C2356 C2360 1.368 1_556 S
C2357 C2338 1.429 1_556 S
C2357 C2351 1.429 . S
C2357 C2358 1.523 . S
C2358 C2339 1.368 . S
C2358 C2352 1.368 1_556 S
C2358 C2357 1.523 . S
C2359 C2343 1.429 1_554 S
C2359 C2355 1.429 . S
C2359 C2360 1.523 . S
C2360 C2344 1.368 . S
C2360 C2356 1.368 1_554 S
C2360 C2359 1.523 . S
H2361 C2336 0.950 . S
H2362 C2338 0.950 . S
H2363 C2339 0.949 . S
H2364 C2341 0.950 . S
H2365 C2343 0.950 . S
C2366 C2367 1.349 . S
C2366 C2368 1.327 . S
C2366 H2391 0.950 . S
C2367 C2366 1.349 . S
C2367 C2383 1.349 . S
C2368 C2366 1.327 . S
C2368 C2387 1.429 . S
C2368 H2392 0.950 . S
C2369 C2386 1.574 . S
C2369 C2388 1.368 . S
C2369 H2393 0.949 . S
H2370 C2374 0.949 . S
C2371 C2372 1.349 . S
C2371 C2373 1.327 . S
C2371 H2394 0.950 1_655 S
C2372 C2371 1.349 . S
C2372 C2384 1.349 . S
C2373 C2371 1.327 . S
C2373 C2389 1.429 . S
C2373 H2395 0.950 . S
C2374 H2370 0.949 . S
C2374 C2382 1.574 . S
C2374 C2390 1.368 . S
H2375 C2383 0.950 . S
H2376 C2381 0.950 . S
H2377 C2382 0.949 . S
H2378 C2384 0.950 . S
H2379 C2385 0.950 . S
H2380 C2386 0.949 . S
C2381 H2376 0.950 . S
C2381 C2383 1.327 . S
C2381 C2387 1.429 . S
C2382 C2374 1.574 . S
C2382 H2377 0.949 . S
C2382 C2388 1.368 . S
C2383 C2367 1.349 . S
C2383 H2375 0.950 . S
C2383 C2381 1.327 . S
C2384 C2372 1.349 . S
C2384 H2378 0.950 . S
C2384 C2385 1.327 . S
C2385 H2379 0.950 . S
C2385 C2384 1.327 . S
C2385 C2389 1.429 . S
C2386 C2369 1.574 . S
C2386 H2380 0.949 . S
C2386 C2390 1.368 . S
C2387 C2368 1.429 . S
C2387 C2381 1.429 . S
C2387 C2388 1.523 . S
C2388 C2369 1.368 . S
C2388 C2382 1.368 . S
C2388 C2387 1.523 . S
C2389 C2373 1.429 . S
C2389 C2385 1.429 . S
C2389 C2390 1.523 . S
C2390 C2374 1.368 . S
C2390 C2386 1.368 . S
C2390 C2389 1.523 . S
H2391 C2366 0.950 . S
H2392 C2368 0.950 . S
H2393 C2369 0.949 . S
H2394 C2371 0.950 1_455 S
H2395 C2373 0.950 . S
C957 C22 2.462 . S
C962 C735 2.325 . S
C992 C764 3.237 . S
C987 C38 3.228 . S
C1022 C641 1.367 1_565 S
C1017 C75 1.361 . S
C1047 C91 1.938 . S
C1052 C685 1.937 . S
C1077 C128 3.217 . S
C1082 C935 3.143 . S
C1107 C197 1.964 . S
C1112 C881 1.969 . S
C1142 C814 2.745 . S
C1137 C144 2.828 . S
C1167 C181 1.139 . S
C1172 C844 1.118 . S
C1202 C691 1.803 . S
C1197 C234 1.825 . S
C1232 C761 2.494 . S
C1227 C303 2.484 . S
C1257 C356 1.991 . S
C1262 C724 2.005 . S
C1287 C287 2.005 . S
C1292 C855 1.970 . S
C1322 C895 2.373 . S
C1317 C393 2.490 . S
C1352 C924 3.144 . S
C1347 C409 3.136 . S
C1377 C462 1.501 . S
C1382 C841 1.501 . S
C1412 C805 1.957 . S
C1407 C446 1.946 . S
C1437 C499 2.988 . S
C1442 C775 2.900 . S
C1467 C552 1.727 . S
C1472 C721 1.753 . S
C1502 C694 2.841 . S
C1497 C515 2.913 . S
C1527 C568 1.487 . S
C1532 C644 1.446 . S
C1562 C811 1.759 . S
C1557 C340 1.768 . S
C1592 C921 2.441 . S
C1587 C621 2.430 . S
C1617 C250 1.771 . S
C1622 C884 1.773 . S
C1647 C605 1.849 . S
C1652 C655 1.791 . S
C1682 C654 1.212 . S
C1677 C39 1.248 . S
C1707 C29 1.759 . S
C1712 C684 1.614 1_455 S
C1742 C731 0.744 . S
C1737 C92 0.739 . S
C1772 C765 1.760 . S
C1767 C82 1.782 . S
C1797 C145 1.941 . S
C1802 C645 1.923 . S
C1827 C188 1.388 . S
C1832 C681 1.308 . S
C1862 C734 0.723 . S
C1857 C135 0.700 . S
C1887 C198 0.671 . S
C1892 C771 0.686 . S
C1917 C251 1.113 . S
C1922 C651 1.056 . S
C1952 C725 2.187 . S
C1947 C294 2.238 . S
C1977 C347 1.758 . S
C1982 C774 1.615 . S
C2007 C304 0.754 . S
C2012 C815 0.754 . S
C2042 C854 1.176 . S
C2037 C410 1.231 . S
C2067 C400 1.758 . S
C2072 C804 1.643 . S
C2097 C453 0.445 . S
C2102 C891 0.592 . S
C2127 C463 2.262 . S
C2132 C925 2.200 . S
C2157 C516 2.073 . S
C2162 C845 2.053 . S
C2192 C801 1.529 . S
C2187 C569 1.626 . S
C2217 C506 0.493 . S
C2222 C894 0.651 . S
C2252 C931 0.520 . S
C2247 C559 0.430 . S
C2282 C851 1.018 . S
C2277 C357 1.056 . S
C2312 C885 2.225 . S
C2307 C612 2.286 . S
C2342 C934 1.511 . S
C2337 C241 1.614 . S
C2367 C622 0.403 . S
C2372 C695 0.448 . S
