# Generated by pormake.
# Topology ctn, (3,4)-cn, num edge types: 1
# Building blocks:
#     Node 0, Type 0, BuildingBlock: WUSLED_clean_sbu_0, # of connection points: 3
#     Node 1, Type 0, BuildingBlock: WUSLED_clean_sbu_0, # of connection points: 3
#     Node 2, Type 0, BuildingBlock: WUSLED_clean_sbu_0, # of connection points: 3
#     Node 3, Type 0, BuildingBlock: WUSLED_clean_sbu_0, # of connection points: 3
#     Node 4, Type 0, BuildingBlock: WUSLED_clean_sbu_0, # of connection points: 3
#     Node 5, Type 0, BuildingBlock: WUSLED_clean_sbu_0, # of connection points: 3
#     Node 6, Type 0, BuildingBlock: WUSLED_clean_sbu_0, # of connection points: 3
#     Node 7, Type 0, BuildingBlock: WUSLED_clean_sbu_0, # of connection points: 3
#     Node 8, Type 0, BuildingBlock: WUSLED_clean_sbu_0, # of connection points: 3
#     Node 9, Type 0, BuildingBlock: WUSLED_clean_sbu_0, # of connection points: 3
#     Node 10, Type 0, BuildingBlock: WUSLED_clean_sbu_0, # of connection points: 3
#     Node 11, Type 0, BuildingBlock: WUSLED_clean_sbu_0, # of connection points: 3
#     Node 12, Type 0, BuildingBlock: WUSLED_clean_sbu_0, # of connection points: 3
#     Node 13, Type 0, BuildingBlock: WUSLED_clean_sbu_0, # of connection points: 3
#     Node 14, Type 0, BuildingBlock: WUSLED_clean_sbu_0, # of connection points: 3
#     Node 15, Type 0, BuildingBlock: WUSLED_clean_sbu_0, # of connection points: 3
#     Node 16, Type 1, BuildingBlock: KUFVIS_clean_sbu_0, # of connection points: 4
#     Node 17, Type 1, BuildingBlock: KUFVIS_clean_sbu_0, # of connection points: 4
#     Node 18, Type 1, BuildingBlock: KUFVIS_clean_sbu_0, # of connection points: 4
#     Node 19, Type 1, BuildingBlock: KUFVIS_clean_sbu_0, # of connection points: 4
#     Node 20, Type 1, BuildingBlock: KUFVIS_clean_sbu_0, # of connection points: 4
#     Node 21, Type 1, BuildingBlock: KUFVIS_clean_sbu_0, # of connection points: 4
#     Node 22, Type 1, BuildingBlock: KUFVIS_clean_sbu_0, # of connection points: 4
#     Node 23, Type 1, BuildingBlock: KUFVIS_clean_sbu_0, # of connection points: 4
#     Node 24, Type 1, BuildingBlock: KUFVIS_clean_sbu_0, # of connection points: 4
#     Node 25, Type 1, BuildingBlock: KUFVIS_clean_sbu_0, # of connection points: 4
#     Node 26, Type 1, BuildingBlock: KUFVIS_clean_sbu_0, # of connection points: 4
#     Node 27, Type 1, BuildingBlock: KUFVIS_clean_sbu_0, # of connection points: 4
#     Edge 28, Type (0, 1), BuildingBlock: TEMPAE_clean_linker_10, # of connection points: 2
#     Edge 29, Type (0, 1), BuildingBlock: TEMPAE_clean_linker_10, # of connection points: 2
#     Edge 30, Type (0, 1), BuildingBlock: TEMPAE_clean_linker_10, # of connection points: 2
#     Edge 31, Type (0, 1), BuildingBlock: TEMPAE_clean_linker_10, # of connection points: 2
#     Edge 32, Type (0, 1), BuildingBlock: TEMPAE_clean_linker_10, # of connection points: 2
#     Edge 33, Type (0, 1), BuildingBlock: TEMPAE_clean_linker_10, # of connection points: 2
#     Edge 34, Type (0, 1), BuildingBlock: TEMPAE_clean_linker_10, # of connection points: 2
#     Edge 35, Type (0, 1), BuildingBlock: TEMPAE_clean_linker_10, # of connection points: 2
#     Edge 36, Type (0, 1), BuildingBlock: TEMPAE_clean_linker_10, # of connection points: 2
#     Edge 37, Type (0, 1), BuildingBlock: TEMPAE_clean_linker_10, # of connection points: 2
#     Edge 38, Type (0, 1), BuildingBlock: TEMPAE_clean_linker_10, # of connection points: 2
#     Edge 39, Type (0, 1), BuildingBlock: TEMPAE_clean_linker_10, # of connection points: 2
#     Edge 40, Type (0, 1), BuildingBlock: TEMPAE_clean_linker_10, # of connection points: 2
#     Edge 41, Type (0, 1), BuildingBlock: TEMPAE_clean_linker_10, # of connection points: 2
#     Edge 42, Type (0, 1), BuildingBlock: TEMPAE_clean_linker_10, # of connection points: 2
#     Edge 43, Type (0, 1), BuildingBlock: TEMPAE_clean_linker_10, # of connection points: 2
#     Edge 44, Type (0, 1), BuildingBlock: TEMPAE_clean_linker_10, # of connection points: 2
#     Edge 45, Type (0, 1), BuildingBlock: TEMPAE_clean_linker_10, # of connection points: 2
#     Edge 46, Type (0, 1), BuildingBlock: TEMPAE_clean_linker_10, # of connection points: 2
#     Edge 47, Type (0, 1), BuildingBlock: TEMPAE_clean_linker_10, # of connection points: 2
#     Edge 48, Type (0, 1), BuildingBlock: TEMPAE_clean_linker_10, # of connection points: 2
#     Edge 49, Type (0, 1), BuildingBlock: TEMPAE_clean_linker_10, # of connection points: 2
#     Edge 50, Type (0, 1), BuildingBlock: TEMPAE_clean_linker_10, # of connection points: 2
#     Edge 51, Type (0, 1), BuildingBlock: TEMPAE_clean_linker_10, # of connection points: 2
#     Edge 52, Type (0, 1), BuildingBlock: TEMPAE_clean_linker_10, # of connection points: 2
#     Edge 53, Type (0, 1), BuildingBlock: TEMPAE_clean_linker_10, # of connection points: 2
#     Edge 54, Type (0, 1), BuildingBlock: TEMPAE_clean_linker_10, # of connection points: 2
#     Edge 55, Type (0, 1), BuildingBlock: TEMPAE_clean_linker_10, # of connection points: 2
#     Edge 56, Type (0, 1), BuildingBlock: TEMPAE_clean_linker_10, # of connection points: 2
#     Edge 57, Type (0, 1), BuildingBlock: TEMPAE_clean_linker_10, # of connection points: 2
#     Edge 58, Type (0, 1), BuildingBlock: TEMPAE_clean_linker_10, # of connection points: 2
#     Edge 59, Type (0, 1), BuildingBlock: TEMPAE_clean_linker_10, # of connection points: 2
#     Edge 60, Type (0, 1), BuildingBlock: TEMPAE_clean_linker_10, # of connection points: 2
#     Edge 61, Type (0, 1), BuildingBlock: TEMPAE_clean_linker_10, # of connection points: 2
#     Edge 62, Type (0, 1), BuildingBlock: TEMPAE_clean_linker_10, # of connection points: 2
#     Edge 63, Type (0, 1), BuildingBlock: TEMPAE_clean_linker_10, # of connection points: 2
#     Edge 64, Type (0, 1), BuildingBlock: TEMPAE_clean_linker_10, # of connection points: 2
#     Edge 65, Type (0, 1), BuildingBlock: TEMPAE_clean_linker_10, # of connection points: 2
#     Edge 66, Type (0, 1), BuildingBlock: TEMPAE_clean_linker_10, # of connection points: 2
#     Edge 67, Type (0, 1), BuildingBlock: TEMPAE_clean_linker_10, # of connection points: 2
#     Edge 68, Type (0, 1), BuildingBlock: TEMPAE_clean_linker_10, # of connection points: 2
#     Edge 69, Type (0, 1), BuildingBlock: TEMPAE_clean_linker_10, # of connection points: 2
#     Edge 70, Type (0, 1), BuildingBlock: TEMPAE_clean_linker_10, # of connection points: 2
#     Edge 71, Type (0, 1), BuildingBlock: TEMPAE_clean_linker_10, # of connection points: 2
#     Edge 72, Type (0, 1), BuildingBlock: TEMPAE_clean_linker_10, # of connection points: 2
#     Edge 73, Type (0, 1), BuildingBlock: TEMPAE_clean_linker_10, # of connection points: 2
#     Edge 74, Type (0, 1), BuildingBlock: TEMPAE_clean_linker_10, # of connection points: 2
#     Edge 75, Type (0, 1), BuildingBlock: TEMPAE_clean_linker_10, # of connection points: 2
# Relax obj value: 0.013
# Max RMSD: 0.064
# Mean RMSD: 0.032
data_MOF--net-ctn--node1-WUSLED_clean_sbu_0--node2-KUFVIS_clean_sbu_0--edge1-TEMPAE_clean_linker_10
_symmetry_space_group_name_H-M    P1
_symmetry_Int_Tables_number       1
_symmetry_cell_setting            triclinic
loop_
_symmetry_equiv_pos_as_xyz
'x, y, z'
_cell_length_a     71.106024
_cell_length_b     71.352866
_cell_length_c     71.603067
_cell_angle_alpha  91.447168
_cell_angle_beta   90.250453
_cell_angle_gamma 91.276665
loop_
_atom_site_label
_atom_site_type_symbol
_atom_site_fract_x
_atom_site_fract_y
_atom_site_fract_z
_atom_type_partial_charge
C0 C 0.01746 0.05135 0.09217 0.0
C1 C 1.0076 0.03401 0.09208 0.0
C2 C 0.99784 0.03933 0.12448 0.0
C3 C 0.99794 0.02809 0.10802 0.0
C4 C 1.00803 0.05648 0.12464 0.0
C5 C 0.01762 0.06243 0.1087 0.0
U6 U 0.05443 0.05318 0.05203 0.0
O7 O 0.04992 0.0584 0.02208 0.0
O8 O 0.06743 0.07796 0.03911 0.0
C9 C 0.05958 0.07432 0.02271 0.0
C10 C 0.02601 0.05894 0.07485 0.0
C11 C 0.05141 0.09029 0.01281 0.0
C12 C 0.0371 0.12107 0.01239 0.0
C13 C 0.04346 0.10565 0.02232 0.0
C14 C 0.04626 0.10587 0.98336 0.0
C15 C 0.03851 0.12145 0.99275 0.0
C16 C 0.0526 0.09054 0.99327 0.0
C17 C 0.09497 0.01681 0.05106 0.0
C18 C 0.11044 0.99621 0.02839 0.0
C19 C 0.12702 1.0065 0.05649 0.0
C20 C 0.11135 0.01676 0.06212 0.0
C21 C 0.12672 0.99585 0.03966 0.0
C22 C 0.09477 1.00654 0.03401 0.0
C23 C 0.07782 0.02591 0.05858 0.0
O24 O 0.04239 0.06774 0.07664 0.0
O25 O 0.02472 0.04845 0.0595 0.0
O26 O 0.06207 0.02352 0.04903 0.0
O27 O 0.07993 0.04294 0.06583 0.0
H28 H 1.00701 0.02512 0.0796 0.0
H29 H 0.99046 0.0147 0.10741 0.0
H30 H 1.00811 0.06564 0.13694 0.0
H31 H 0.02481 0.07598 0.10916 0.0
H32 H 0.03102 0.13267 0.02011 0.0
H33 H 0.04235 0.10583 0.0374 0.0
H34 H 0.04789 0.10569 0.96833 0.0
H35 H 0.05881 0.07894 0.98562 0.0
H36 H 0.10975 0.9884 0.01523 0.0
H37 H 0.13916 1.00641 0.06567 0.0
H38 H 0.11186 0.02427 0.07546 0.0
H39 H 0.08237 1.00613 0.02515 0.0
C40 C 0.30338 0.738 0.16285 0.0
C41 C 0.30806 0.75683 0.16739 0.0
C42 C 0.30155 0.76588 0.13527 0.0
C43 C 0.30718 0.77062 0.15374 0.0
C44 C 0.29738 0.74692 0.13075 0.0
C45 C 0.29827 0.7332 0.14436 0.0
U46 U 0.32057 0.71198 0.20686 0.0
O47 O 0.30354 0.6996 0.22927 0.0
O48 O 0.3208 0.68154 0.2114 0.0
C49 C 0.30846 0.68237 0.22498 0.0
C50 C 0.30249 0.72326 0.17711 0.0
C51 C 0.29325 0.66788 0.2246 0.0
C52 C 0.26546 0.65259 0.21053 0.0
C53 C 0.27968 0.6666 0.21029 0.0
C54 C 0.27827 0.64106 0.23931 0.0
C55 C 0.26457 0.6396 0.22507 0.0
C56 C 0.29241 0.65501 0.23905 0.0
C57 C 0.36516 0.72937 0.23399 0.0
C58 C 0.37896 0.714 0.26063 0.0
C59 C 0.39213 0.74359 0.25047 0.0
C60 C 0.37863 0.74392 0.2362 0.0
C61 C 0.39253 0.72863 0.26292 0.0
C62 C 0.36542 0.71437 0.2463 0.0
C63 C 0.35109 0.73029 0.21879 0.0
O64 O 0.3156 0.71056 0.17637 0.0
O65 O 0.29831 0.72859 0.19428 0.0
O66 O 0.334 0.7348 0.22382 0.0
O67 O 0.35129 0.71667 0.20608 0.0
H68 H 0.31204 0.76096 0.18155 0.0
H69 H 0.31036 0.78506 0.1578 0.0
H70 H 0.29334 0.74263 0.11666 0.0
H71 H 0.29461 0.71879 0.14049 0.0
H72 H 0.25527 0.65184 0.19925 0.0
H73 H 0.2801 0.67639 0.19898 0.0
H74 H 0.27791 0.6316 0.25091 0.0
H75 H 0.3027 0.65579 0.25027 0.0
H76 H 0.3789 0.70218 0.26981 0.0
H77 H 0.40206 0.75526 0.25194 0.0
H78 H 0.37864 0.75567 0.22689 0.0
H79 H 0.35516 0.70297 0.24483 0.0
C80 C 0.97316 0.43845 0.01075 0.0
C81 C 0.99247 0.43514 1.00857 0.0
C82 C 0.98538 0.40597 0.99089 0.0
C83 C 0.99852 0.41903 0.99878 0.0
C84 C 0.9661 0.40921 0.99356 0.0
C85 C 0.96011 0.42522 1.00331 0.0
U86 U 0.97235 0.47924 0.04824 0.0
O87 O 0.96557 0.50888 0.04423 0.0
O88 O 0.94755 0.4915 0.06193 0.0
C89 C 0.95003 0.50782 0.0541 0.0
C90 C 0.96599 0.45587 0.01969 0.0
C91 C 0.93295 0.51673 0.04655 0.0
C92 C 0.9154 0.53122 0.02148 0.0
C93 C 0.93109 0.52135 0.02765 0.0
C94 C 0.90304 0.53172 0.05289 0.0
C95 C 0.90119 0.53668 0.03406 0.0
C96 C 0.91867 0.52192 0.05901 0.0
C97 C 1.00989 0.48106 0.08872 0.0
C98 C 0.03137 0.50335 0.10484 0.0
C99 C 0.02017 0.47581 0.12075 0.0
C100 C 1.00964 0.47025 0.10488 0.0
C101 C 0.03141 0.49232 0.1209 0.0
C102 C 0.02078 0.49779 0.08895 0.0
C103 C 1.00054 0.47348 0.07134 0.0
O104 O 0.95781 0.45415 0.036 0.0
O105 O 0.97655 0.47118 0.01866 0.0
O106 O 1.00222 0.48325 0.05607 0.0
O107 O 0.98374 0.46568 0.07311 0.0
H108 H 1.00287 0.44511 0.01416 0.0
H109 H 0.01346 0.41706 0.99697 0.0
H110 H 0.95556 0.39934 0.98808 0.0
H111 H 0.94515 0.42742 1.00481 0.0
H112 H 0.91442 0.53457 1.00686 0.0
H113 H 0.94185 0.51758 0.01767 0.0
H114 H 0.89266 0.53591 0.0631 0.0
H115 H 0.91982 0.51874 0.07368 0.0
H116 H 0.03964 0.51626 0.10448 0.0
H117 H 0.02001 0.46679 0.13268 0.0
H118 H 1.00169 0.45712 0.10507 0.0
H119 H 0.02148 0.50642 0.07674 0.0
C120 C 0.70439 0.77621 0.17573 0.0
C121 C 0.72274 0.77762 0.16862 0.0
C122 C 0.71503 0.75389 0.14431 0.0
C123 C 0.72801 0.76657 0.15305 0.0
C124 C 0.69661 0.75281 0.15142 0.0
C125 C 0.69139 0.76382 0.16692 0.0
U126 U 0.70862 0.81751 0.21195 0.0
O127 O 0.68596 0.83421 0.22457 0.0
O128 O 0.70386 0.81736 0.24231 0.0
C129 C 0.68903 0.828 0.24141 0.0
C130 C 0.69842 0.78713 0.19245 0.0
C131 C 0.67221 0.82216 0.25223 0.0
C132 C 0.65339 0.79869 0.26846 0.0
C133 C 0.66868 0.80341 0.25699 0.0
C134 C 0.64469 0.83126 0.27023 0.0
C135 C 0.64129 0.81259 0.27544 0.0
C136 C 0.65996 0.83596 0.25882 0.0
C137 C 0.7499 0.85409 0.20632 0.0
C138 C 0.76128 0.87847 0.22833 0.0
C139 C 0.77494 0.87587 0.19749 0.0
C140 C 0.76275 0.86074 0.19312 0.0
C141 C 0.77461 0.88478 0.21524 0.0
C142 C 0.74906 0.86319 0.22393 0.0
C143 C 0.73834 0.83719 0.20138 0.0
O144 O 0.70961 0.78695 0.2071 0.0
O145 O 0.69163 0.80377 0.18944 0.0
O146 O 0.72126 0.83992 0.19506 0.0
O147 O 0.7392 0.82308 0.21278 0.0
H148 H 0.73302 0.78712 0.17519 0.0
H149 H 0.74234 0.76771 0.14808 0.0
H150 H 0.68611 0.74354 0.1449 0.0
H151 H 0.67714 0.76257 0.17211 0.0
H152 H 0.65136 0.7842 0.27227 0.0
H153 H 0.6779 0.79246 0.25214 0.0
H154 H 0.63556 0.84232 0.275 0.0
H155 H 0.66235 0.85051 0.25535 0.0
H156 H 0.76071 0.88496 0.24215 0.0
H157 H 0.78477 0.88052 0.18697 0.0
H158 H 0.76359 0.85398 0.17943 0.0
H159 H 0.73924 0.85827 0.23434 0.0
C160 C 0.01515 0.97125 0.43938 0.0
C161 C 0.0138 0.99052 0.436 0.0
C162 C 0.99519 0.98366 0.40767 0.0
C163 C 1.00396 0.99665 0.42027 0.0
C164 C 0.99705 0.96441 0.41094 0.0
C165 C 1.00686 0.95832 0.42658 0.0
U166 U 0.05244 0.97005 0.47974 0.0
O167 O 0.0475 0.96406 0.50948 0.0
O168 O 0.06479 0.9453 0.49235 0.0
C169 C 0.05676 0.94831 0.50863 0.0
C170 C 0.02387 0.96405 0.4566 0.0
C171 C 0.0482 0.93186 0.51808 0.0
C172 C 0.0395 0.89856 0.51883 0.0
C173 C 0.04541 0.91435 0.50888 0.0
C174 C 0.03854 0.91756 0.54724 0.0
C175 C 0.03623 0.89988 0.53823 0.0
C176 C 0.04446 0.93329 0.53731 0.0
C177 C 0.09408 1.00685 0.4826 0.0
C178 C 0.10902 0.02933 0.50462 0.0
C179 C 0.12723 0.01603 0.47933 0.0
C180 C 0.11138 1.00546 0.47324 0.0
C181 C 0.12615 0.02846 0.49485 0.0
C182 C 0.09321 0.0187 0.49857 0.0
C183 C 0.07679 0.99776 0.47427 0.0
O184 O 0.04008 0.95572 0.45472 0.0
O185 O 0.02295 0.97463 0.47186 0.0
O186 O 0.06092 0.99978 0.48339 0.0
O187 O 0.07842 0.98091 0.46665 0.0
H188 H 0.02003 1.00082 0.44567 0.0
H189 H 1.0028 0.01157 0.41825 0.0
H190 H 0.99087 0.95396 0.40141 0.0
H191 H 1.00769 0.9434 0.42885 0.0
H192 H 0.03766 0.88527 0.51135 0.0
H193 H 0.04819 0.91272 0.49407 0.0
H194 H 0.03645 0.91915 0.56216 0.0
H195 H 0.04671 0.94652 0.54482 0.0
H196 H 0.10771 0.03856 0.51676 0.0
H197 H 0.14008 0.01513 0.47134 0.0
H198 H 0.1125 0.99669 0.46074 0.0
H199 H 0.08015 0.02027 0.50612 0.0
C200 C 0.21024 0.7466 0.85445 0.0
C201 C 0.2275 0.74557 0.86396 0.0
C202 C 0.21827 0.77077 0.88563 0.0
C203 C 0.23146 0.75753 0.87949 0.0
C204 C 0.20084 0.77129 0.87629 0.0
C205 C 0.1969 0.75936 0.86092 0.0
U206 U 0.21677 0.70585 0.81765 0.0
O207 O 0.19442 0.68916 0.8031 0.0
O208 O 0.21344 0.70719 0.78712 0.0
C209 C 0.19841 0.69613 0.78674 0.0
C210 C 0.20583 0.73531 0.83733 0.0
C211 C 0.18224 0.70237 0.77558 0.0
C212 C 0.16029 0.72617 0.76609 0.0
C213 C 0.17539 0.72065 0.77727 0.0
C214 C 0.1586 0.69517 0.75161 0.0
C215 C 0.15175 0.71352 0.753 0.0
C216 C 0.17365 0.6897 0.76274 0.0
C217 C 0.25626 0.6693 0.82308 0.0
C218 C 0.27342 0.65063 0.80006 0.0
C219 C 0.27336 0.64179 0.83245 0.0
C220 C 0.26194 0.65699 0.8369 0.0
C221 C 0.27949 0.63849 0.814 0.0
C222 C 0.26194 0.66587 0.80454 0.0
C223 C 0.24544 0.68607 0.82872 0.0
O224 O 0.21804 0.73627 0.82364 0.0
O225 O 0.19892 0.71829 0.83962 0.0
O226 O 0.22809 0.68302 0.83435 0.0
O227 O 0.24723 0.70093 0.81832 0.0
H228 H 0.23801 0.7358 0.85919 0.0
H229 H 0.24504 0.75682 0.8863 0.0
H230 H 0.19024 0.78107 0.8808 0.0
H231 H 0.18347 0.76034 0.85384 0.0
H232 H 0.15551 0.74044 0.76749 0.0
H233 H 0.1818 0.73068 0.78712 0.0
H234 H 0.15221 0.6849 0.74201 0.0
H235 H 0.17864 0.6755 0.76126 0.0
H236 H 0.27795 0.64868 0.78574 0.0
H237 H 0.27741 0.63261 0.84351 0.0
H238 H 0.25775 0.65931 0.8513 0.0
H239 H 0.2578 0.67514 0.79358 0.0
C240 C 0.98269 0.58765 0.5151 0.0
C241 C 0.99455 0.60126 0.50711 0.0
C242 C 0.99528 0.61954 0.53654 0.0
C243 C 1.00075 0.61711 0.51773 0.0
C244 C 0.98329 0.60586 0.54429 0.0
C245 C 0.97714 0.59015 0.53373 0.0
U246 U 0.98237 0.54832 0.47589 0.0
O247 O 0.97459 0.51854 0.47901 0.0
O248 O 0.95763 0.53597 0.46093 0.0
C249 C 0.95935 0.51957 0.46866 0.0
C250 C 0.97535 0.5709 0.50458 0.0
C251 C 0.9419 0.51062 0.4759 0.0
C252 C 0.92251 0.49889 0.50133 0.0
C253 C 0.93854 0.50877 0.49512 0.0
C254 C 0.91282 0.49297 0.46926 0.0
C255 C 0.90956 0.49061 0.48846 0.0
C256 C 0.92878 0.5028 0.4631 0.0
C257 C 0.02184 0.54594 0.43822 0.0
C258 C 0.02211 0.53492 0.40565 0.0
C259 C 0.05144 0.53912 0.42264 0.0
C260 C 0.04152 0.54484 0.43858 0.0
C261 C 0.04193 0.53441 0.40582 0.0
C262 C 0.01218 0.54064 0.42166 0.0
C263 C 0.01213 0.55402 0.4548 0.0
O264 O 0.96877 0.5734 0.48766 0.0
O265 O 0.98501 0.5555 0.50594 0.0
O266 O 0.01254 0.5443 0.47015 0.0
O267 O 0.99584 0.56186 0.45195 0.0
H268 H 0.99899 0.59964 0.49272 0.0
H269 H 0.01004 0.6273 0.51133 0.0
H270 H 0.97843 0.60737 0.55855 0.0
H271 H 0.96787 0.57993 0.54014 0.0
H272 H 0.92054 0.49732 0.5162 0.0
H273 H 0.94843 0.51468 0.50532 0.0
H274 H 0.90301 0.48719 0.45892 0.0
H275 H 0.93102 0.50405 0.44821 0.0
H276 H 0.01429 0.53154 0.39296 0.0
H277 H 0.06663 0.5386 0.42346 0.0
H278 H 0.04933 0.54884 0.45115 0.0
H279 H 0.99699 0.54136 0.42093 0.0
C280 C 0.80557 0.79348 0.86156 0.0
C281 C 0.80033 0.77478 0.85693 0.0
C282 C 0.80551 0.76541 0.88918 0.0
C283 C 0.80035 0.76095 0.87054 0.0
C284 C 0.81126 0.78401 0.89363 0.0
C285 C 0.81121 0.79784 0.88004 0.0
U286 U 0.8196 0.82248 0.81803 0.0
O287 O 0.80137 0.8348 0.79684 0.0
O288 O 0.81939 0.85317 0.81467 0.0
C289 C 0.8063 0.85214 0.80164 0.0
C290 C 0.80337 0.80884 0.84798 0.0
C291 C 0.79125 0.86626 0.80272 0.0
C292 C 0.75821 0.8749 0.80376 0.0
C293 C 0.77214 0.86128 0.80494 0.0
C294 C 0.78225 0.89869 0.79859 0.0
C295 C 0.76306 0.89375 0.80022 0.0
C296 C 0.79611 0.88513 0.79981 0.0
C297 C 0.86411 0.80809 0.78959 0.0
C298 C 0.87288 0.80892 0.75668 0.0
C299 C 0.89699 0.80629 0.78033 0.0
C300 C 0.88322 0.80677 0.79424 0.0
C301 C 0.89204 0.80709 0.76131 0.0
C302 C 0.85906 0.80942 0.77065 0.0
C303 C 0.84991 0.80644 0.80466 0.0
O304 O 0.81607 0.82253 0.84864 0.0
O305 O 0.79822 0.80407 0.8308 0.0
O306 O 0.83269 0.8012 0.7998 0.0
O307 O 0.85044 0.81952 0.81792 0.0
H308 H 0.79567 0.77088 0.84292 0.0
H309 H 0.79557 0.74688 0.86657 0.0
H310 H 0.81556 0.788 0.90773 0.0
H311 H 0.81516 0.81211 0.88415 0.0
H312 H 0.74359 0.87054 0.80498 0.0
H313 H 0.76793 0.84683 0.80712 0.0
H314 H 0.78659 0.91307 0.79619 0.0
H315 H 0.81071 0.88935 0.798 0.0
H316 H 0.86852 0.80978 0.74222 0.0
H317 H 0.9115 0.80457 0.7845 0.0
H318 H 0.88749 0.80554 0.80869 0.0
H319 H 0.84444 0.81046 0.7666 0.0
C320 C 0.30575 0.29393 0.36246 0.0
C321 C 0.30281 0.27486 0.35755 0.0
C322 C 0.30587 0.26606 0.39024 0.0
C323 C 0.30289 0.26112 0.37125 0.0
C324 C 0.30941 0.28509 0.39499 0.0
C325 C 0.30928 0.29881 0.38131 0.0
U326 U 0.31857 0.32137 0.31764 0.0
O327 O 0.29966 0.33338 0.29688 0.0
O328 O 0.31879 0.35194 0.31333 0.0
C329 C 0.30509 0.35076 0.30093 0.0
C330 C 0.30344 0.30904 0.34868 0.0
C331 C 0.29032 0.36515 0.30226 0.0
C332 C 0.25744 0.37429 0.30382 0.0
C333 C 0.2712 0.36049 0.30492 0.0
C334 C 0.2817 0.39765 0.29789 0.0
C335 C 0.26249 0.39301 0.29992 0.0
C336 C 0.29539 0.38391 0.29902 0.0
C337 C 0.36068 0.30462 0.28701 0.0
C338 C 0.38441 0.3205 0.26815 0.0
C339 C 0.37781 0.28738 0.26295 0.0
C340 C 0.36425 0.28789 0.27706 0.0
C341 C 0.38825 0.30362 0.25839 0.0
C342 C 0.37076 0.32101 0.28229 0.0
C343 C 0.34759 0.304 0.30311 0.0
O344 O 0.31662 0.32226 0.34843 0.0
O345 O 0.29731 0.30405 0.33188 0.0
O346 O 0.33003 0.29899 0.29943 0.0
O347 O 0.34916 0.31754 0.31586 0.0
H348 H 0.29992 0.27054 0.34319 0.0
H349 H 0.29988 0.24668 0.36701 0.0
H350 H 0.31204 0.28947 0.40937 0.0
H351 H 0.31149 0.31338 0.38557 0.0
H352 H 0.2428 0.37015 0.30535 0.0
H353 H 0.26681 0.34613 0.30736 0.0
H354 H 0.28619 0.41193 0.2952 0.0
H355 H 0.31 0.38789 0.29686 0.0
H356 H 0.39202 0.33332 0.26492 0.0
H357 H 0.38053 0.27404 0.25605 0.0
H358 H 0.35686 0.27501 0.28055 0.0
H359 H 0.36836 0.33414 0.28972 0.0
C360 C 0.475 0.93985 0.5096 0.0
C361 C 0.49415 0.93532 0.50927 0.0
C362 C 0.48708 0.90733 0.48975 0.0
C363 C 0.50013 0.91918 0.49947 0.0
C364 C 0.4679 0.91179 0.49057 0.0
C365 C 0.46198 0.92782 0.50032 0.0
U366 U 0.47526 0.9809 0.54679 0.0
O367 O 0.45095 0.99424 0.56016 0.0
O368 O 0.46957 0.01078 0.54229 0.0
C369 C 0.45391 0.01034 0.55198 0.0
C370 C 0.46812 0.95737 0.51854 0.0
C371 C 0.43733 0.01962 0.54378 0.0
C372 C 0.40399 0.02006 0.53534 0.0
C373 C 0.4198 0.0103 0.54131 0.0
C374 C 0.42296 0.0485 0.53373 0.0
C375 C 0.40528 0.03937 0.53165 0.0
C376 C 0.43872 0.03877 0.53974 0.0
C377 C 0.51407 0.98253 0.58606 0.0
C378 C 0.51515 0.99471 0.61824 0.0
C379 C 0.54408 0.98745 0.60227 0.0
C380 C 0.53378 0.9819 0.58628 0.0
C381 C 0.53495 0.99381 0.61857 0.0
C382 C 0.50481 0.98913 0.60217 0.0
C383 C 0.50378 0.97483 0.56936 0.0
O384 O 0.46019 0.95588 0.53499 0.0
O385 O 0.47891 0.97248 0.51725 0.0
O386 O 0.50545 0.98421 0.55387 0.0
O387 O 0.48672 0.96786 0.57184 0.0
H388 H 0.5045 0.94438 0.51632 0.0
H389 H 0.515 0.91625 0.49913 0.0
H390 H 0.45738 0.90284 0.48364 0.0
H391 H 0.44714 0.93098 0.50041 0.0
H392 H 0.39071 0.01247 0.53369 0.0
H393 H 0.4182 0.99555 0.54431 0.0
H394 H 0.42454 0.06337 0.53133 0.0
H395 H 0.45196 0.04639 0.54171 0.0
H396 H 0.5076 0.99974 0.63041 0.0
H397 H 0.55923 0.98623 0.60199 0.0
H398 H 0.54125 0.97667 0.57414 0.0
H399 H 0.48961 0.98976 0.60244 0.0
C400 C 0.20738 0.27498 0.67655 0.0
C401 C 0.20934 0.28328 0.65902 0.0
C402 C 0.21729 0.25307 0.64448 0.0
C403 C 0.21424 0.27246 0.64319 0.0
C404 C 0.21572 0.24496 0.66215 0.0
C405 C 0.21078 0.25575 0.67791 0.0
U406 U 0.20986 0.31547 0.714 0.0
O407 O 0.18685 0.33098 0.72734 0.0
O408 O 0.20527 0.31397 0.7444 0.0
C409 C 0.19031 0.32444 0.74399 0.0
C410 C 0.2007 0.28556 0.69332 0.0
C411 C 0.17396 0.31816 0.75522 0.0
C412 C 0.14154 0.3067 0.75827 0.0
C413 C 0.15712 0.31118 0.74705 0.0
C414 C 0.15954 0.31581 0.78591 0.0
C415 C 0.14247 0.30918 0.77786 0.0
C416 C 0.17503 0.32025 0.77473 0.0
C417 C 0.2511 0.35266 0.71174 0.0
C418 C 0.28129 0.3652 0.72328 0.0
C419 C 0.25764 0.38648 0.71289 0.0
C420 C 0.24541 0.37115 0.70881 0.0
C421 C 0.2759 0.38366 0.71981 0.0
C422 C 0.26911 0.34995 0.71923 0.0
C423 C 0.23959 0.33605 0.70516 0.0
O424 O 0.21132 0.285 0.70835 0.0
O425 O 0.19359 0.30219 0.69077 0.0
O426 O 0.22261 0.3389 0.69859 0.0
O427 O 0.24044 0.32094 0.71525 0.0
H428 H 0.20676 0.29806 0.65744 0.0
H429 H 0.21513 0.27921 0.62984 0.0
H430 H 0.21826 0.23019 0.66383 0.0
H431 H 0.20934 0.24895 0.69121 0.0
H432 H 0.12864 0.30173 0.75155 0.0
H433 H 0.15589 0.30945 0.73202 0.0
H434 H 0.16097 0.31756 0.80092 0.0
H435 H 0.18785 0.3256 0.78137 0.0
H436 H 0.29511 0.36249 0.72888 0.0
H437 H 0.25305 0.40047 0.70994 0.0
H438 H 0.23173 0.3738 0.70285 0.0
H439 H 0.27405 0.33593 0.72149 0.0
C440 C 0.80227 0.23925 0.66367 0.0
C441 C 0.8072 0.25801 0.66821 0.0
C442 C 0.80053 0.2672 0.63617 0.0
C443 C 0.80637 0.27184 0.6546 0.0
C444 C 0.79611 0.24829 0.63165 0.0
C445 C 0.79695 0.23453 0.64523 0.0
U446 U 0.81939 0.21316 0.70766 0.0
O447 O 0.80235 0.20073 0.73003 0.0
O448 O 0.81965 0.18272 0.71215 0.0
C449 C 0.80731 0.18352 0.72574 0.0
C450 C 0.80136 0.22448 0.6779 0.0
C451 C 0.79215 0.16899 0.72536 0.0
C452 C 0.76438 0.15362 0.71133 0.0
C453 C 0.77855 0.16768 0.71108 0.0
C454 C 0.7773 0.14209 0.74006 0.0
C455 C 0.76357 0.1406 0.72584 0.0
C456 C 0.79139 0.15609 0.73979 0.0
C457 C 0.86388 0.2304 0.73496 0.0
C458 C 0.87743 0.21487 0.76163 0.0
C459 C 0.89089 0.24436 0.75156 0.0
C460 C 0.87746 0.24484 0.73724 0.0
C461 C 0.89111 0.22938 0.76399 0.0
C462 C 0.86395 0.21538 0.74725 0.0
C463 C 0.84989 0.23144 0.7197 0.0
O464 O 0.81448 0.21179 0.67717 0.0
O465 O 0.79715 0.22979 0.69508 0.0
O466 O 0.83278 0.23595 0.7247 0.0
O467 O 0.85011 0.21788 0.70694 0.0
H468 H 0.81135 0.26207 0.68235 0.0
H469 H 0.80976 0.28624 0.65866 0.0
H470 H 0.7919 0.24408 0.61758 0.0
H471 H 0.79309 0.22017 0.64135 0.0
H472 H 0.75416 0.15285 0.70006 0.0
H473 H 0.77891 0.17749 0.69978 0.0
H474 H 0.777 0.13261 0.75164 0.0
H475 H 0.8017 0.15689 0.75099 0.0
H476 H 0.87723 0.20303 0.77079 0.0
H477 H 0.90092 0.25595 0.75308 0.0
H478 H 0.87761 0.2566 0.72795 0.0
H479 H 0.8536 0.20406 0.74572 0.0
C480 C 0.51462 0.55269 0.59007 0.0
C481 C 0.52436 0.54353 0.60418 0.0
C482 C 0.49536 0.54009 0.62225 0.0
C483 C 0.51483 0.53732 0.62012 0.0
C484 C 0.48573 0.54916 0.60795 0.0
C485 C 0.49525 0.55536 0.5921 0.0
U486 U 0.55359 0.55423 0.55193 0.0
O487 O 0.55028 0.55959 0.52186 0.0
O488 O 0.5672 0.57903 0.53962 0.0
C489 C 0.55989 0.57553 0.52295 0.0
C490 C 0.52418 0.56021 0.5734 0.0
C491 C 0.55196 0.59156 0.51294 0.0
C492 C 0.54658 0.6068 0.48333 0.0
C493 C 0.55271 0.59145 0.49335 0.0
C494 C 0.53856 0.62276 0.51232 0.0
C495 C 0.53952 0.62276 0.49264 0.0
C496 C 0.5447 0.60733 0.52236 0.0
C497 C 0.59383 0.51771 0.55194 0.0
C498 C 0.61021 0.49852 0.52872 0.0
C499 C 0.62532 0.50636 0.55829 0.0
C500 C 0.60953 0.51651 0.56381 0.0
C501 C 0.6258 0.497 0.54076 0.0
C502 C 0.59443 0.50874 0.53422 0.0
C503 C 0.57652 0.52675 0.55911 0.0
O504 O 0.54066 0.5686 0.57609 0.0
O505 O 0.5235 0.54956 0.55816 0.0
O506 O 0.56107 0.52453 0.54906 0.0
O507 O 0.5785 0.54371 0.56658 0.0
H508 H 0.53932 0.54126 0.60292 0.0
H509 H 0.52269 0.53022 0.63072 0.0
H510 H 0.47085 0.55183 0.60915 0.0
H511 H 0.48746 0.56249 0.58146 0.0
H512 H 0.54783 0.60631 0.46826 0.0
H513 H 0.55839 0.57955 0.48576 0.0
H514 H 0.53301 0.63467 0.51998 0.0
H515 H 0.54393 0.60782 0.53747 0.0
H516 H 0.61016 0.49172 0.51502 0.0
H517 H 0.63691 0.50535 0.56805 0.0
H518 H 0.6094 0.52304 0.57763 0.0
H519 H 0.58258 0.50929 0.52471 0.0
C520 C 0.51502 0.47096 0.93913 0.0
C521 C 0.51357 0.49024 0.93584 0.0
C522 C 0.49518 0.48344 0.90736 0.0
C523 C 0.50378 0.49641 0.9201 0.0
C524 C 0.49713 0.46418 0.91055 0.0
C525 C 0.50688 0.45806 0.92622 0.0
U526 U 0.55231 0.47099 0.97927 0.0
O527 O 0.5478 0.46531 1.00913 0.0
O528 O 0.56562 0.4469 0.99219 0.0
C529 C 0.55751 0.44985 1.00845 0.0
C530 C 0.52383 0.4638 0.95631 0.0
C531 C 0.54931 0.43328 0.01799 0.0
C532 C 0.54047 0.40001 0.01869 0.0
C533 C 0.54633 0.41582 1.00874 0.0
C534 C 0.53999 0.41886 0.0472 0.0
C535 C 0.53742 0.40125 0.03813 0.0
C536 C 0.54588 0.43461 0.03728 0.0
C537 C 0.59175 0.51042 0.98018 0.0
C538 C 0.62162 0.51309 0.99714 0.0
C539 C 0.60946 0.54001 0.98156 0.0
C540 C 0.59379 0.52931 0.97553 0.0
C541 C 0.6236 0.53215 0.99253 0.0
C542 C 0.6058 0.50232 0.99105 0.0
C543 C 0.57509 0.49974 0.97282 0.0
O544 O 0.54032 0.45602 0.95441 0.0
O545 O 0.52257 0.47426 0.97161 0.0
O546 O 0.55947 0.50115 0.98244 0.0
O547 O 0.57775 0.48272 0.966 0.0
H548 H 0.51971 0.50053 0.94558 0.0
H549 H 0.50254 0.51133 0.91818 0.0
H550 H 0.4911 0.45374 0.9009 0.0
H551 H 0.50781 0.44313 0.9284 0.0
H552 H 0.53843 0.38677 0.01115 0.0
H553 H 0.54886 0.41427 0.99388 0.0
H554 H 0.53809 0.4204 0.06215 0.0
H555 H 0.54826 0.44781 0.04483 0.0
H556 H 0.63215 0.50658 1.00564 0.0
H557 H 0.6106 0.55446 0.97735 0.0
H558 H 0.58324 0.53581 0.96701 0.0
H559 H 0.60456 0.48773 0.99478 0.0
C560 C 0.71514 0.24815 0.35427 0.0
C561 C 0.7114 0.24223 0.37253 0.0
C562 C 0.72229 0.27256 0.38561 0.0
C563 C 0.71502 0.25427 0.38803 0.0
C564 C 0.72659 0.27817 0.36738 0.0
C565 C 0.723 0.26618 0.35196 0.0
U566 U 0.71736 0.20669 0.31747 0.0
O567 O 0.69383 0.19132 0.3035 0.0
O568 O 0.71351 0.2081 0.28693 0.0
C569 C 0.69772 0.19816 0.28703 0.0
C570 C 0.70905 0.23688 0.33744 0.0
C571 C 0.68182 0.20546 0.27601 0.0
C572 C 0.64894 0.21407 0.27277 0.0
C573 C 0.66406 0.20866 0.28394 0.0
C574 C 0.6691 0.21365 0.24566 0.0
C575 C 0.65117 0.21643 0.2534 0.0
C576 C 0.68417 0.2082 0.2568 0.0
C577 C 0.75561 0.16851 0.32215 0.0
C578 C 0.77305 0.14978 0.2994 0.0
C579 C 0.77176 0.14047 0.33162 0.0
C580 C 0.76053 0.15586 0.33594 0.0
C581 C 0.77845 0.13735 0.31336 0.0
C582 C 0.76178 0.16521 0.30374 0.0
C583 C 0.74539 0.18567 0.32779 0.0
O584 O 0.72036 0.23713 0.32296 0.0
O585 O 0.70111 0.22032 0.33996 0.0
O586 O 0.72808 0.1833 0.33381 0.0
O587 O 0.74752 0.2004 0.31727 0.0
H588 H 0.70516 0.22851 0.37486 0.0
H589 H 0.71144 0.24952 0.40184 0.0
H590 H 0.73249 0.29202 0.36498 0.0
H591 H 0.72588 0.27127 0.33811 0.0
H592 H 0.63534 0.21588 0.27924 0.0
H593 H 0.66173 0.20664 0.29869 0.0
H594 H 0.67152 0.21563 0.23091 0.0
H595 H 0.69767 0.20581 0.25031 0.0
H596 H 0.77802 0.14795 0.28521 0.0
H597 H 0.77531 0.13107 0.34268 0.0
H598 H 0.756 0.15809 0.35024 0.0
H599 H 0.75826 0.17475 0.2928 0.0
C600 C 0.48202 0.08835 0.01527 0.0
C601 C 0.49405 0.10185 1.00732 0.0
C602 C 0.4945 0.12034 0.03663 0.0
C603 C 0.5002 0.11775 0.01791 0.0
C604 C 0.48234 0.10677 0.04433 0.0
C605 C 0.47624 0.09102 0.0338 0.0
U606 U 0.482 0.04889 0.9762 0.0
O607 O 0.47431 0.0191 0.97938 0.0
O608 O 0.45738 0.03641 0.96116 0.0
C609 C 0.45912 0.02004 0.96895 0.0
C610 C 0.47478 0.07154 1.00479 0.0
C611 C 0.44165 0.01102 0.97608 0.0
C612 C 0.42258 0.99827 1.00127 0.0
C613 C 0.43858 1.0083 0.99524 0.0
C614 C 0.41229 0.99393 0.96918 0.0
C615 C 0.40934 0.99069 0.98828 0.0
C616 C 0.42823 1.00391 0.96319 0.0
C617 C 0.52164 0.04654 0.93873 0.0
C618 C 0.52195 0.03493 0.90636 0.0
C619 C 0.55129 0.04012 0.9231 0.0
C620 C 0.54135 0.0459 0.939 0.0
C621 C 0.54178 0.03487 0.90642 0.0
C622 C 0.51198 0.04072 0.92232 0.0
C623 C 0.51185 0.05464 0.95524 0.0
O624 O 0.46825 0.07395 0.98783 0.0
O625 O 0.48448 0.05618 1.00624 0.0
O626 O 0.51221 0.04497 0.97062 0.0
O627 O 0.49553 0.06241 0.95229 0.0
H628 H 0.49867 0.10009 0.993 0.0
H629 H 0.50962 0.12785 0.01155 0.0
H630 H 0.47731 0.10841 0.05852 0.0
H631 H 0.46684 0.08089 0.04017 0.0
H632 H 0.42085 0.99601 0.01607 0.0
H633 H 0.4487 0.01362 1.00552 0.0
H634 H 0.40225 0.98871 0.95877 0.0
H635 H 0.43023 1.00582 0.94836 0.0
H636 H 0.51412 0.03114 0.89376 0.0
H637 H 0.5665 0.03996 0.92384 0.0
H638 H 0.54914 0.0503 0.95145 0.0
H639 H 0.49677 0.04107 0.92168 0.0
Mn640 Mn 0.26432 0.88259 0.01471 0.0
Mn641 Mn 0.26353 0.90307 0.97262 0.0
C642 C 0.25041 0.86686 0.98885 0.0
C643 C 0.27723 0.86372 0.0379 0.0
C644 C 0.23713 0.91384 1.00399 0.0
O645 O 0.28534 0.90283 0.01759 0.0
O646 O 0.28286 0.91532 0.98914 0.0
C647 C 0.30126 0.89216 0.9594 0.0
N648 N 0.2823 0.89267 0.95671 0.0
C649 C 0.28503 0.88002 0.92542 0.0
C650 C 0.30459 0.87936 0.92783 0.0
C651 C 0.31272 0.88534 0.94495 0.0
C652 C 0.27431 0.88662 0.94044 0.0
H653 H 0.30758 0.89703 0.97244 0.0
C654 C 0.29047 0.91464 1.00533 0.0
O655 O 0.26535 0.87673 0.04179 0.0
O656 O 0.28231 0.86209 0.02052 0.0
N657 N 0.24577 0.89284 0.95484 0.0
C658 C 0.22664 0.89354 0.95516 0.0
C659 C 0.2163 0.888 0.93914 0.0
C660 C 0.22574 0.88213 0.9229 0.0
C661 C 0.24542 0.88126 0.92299 0.0
C662 C 0.25496 0.8869 0.93938 0.0
H663 H 0.21937 0.89856 0.96745 0.0
O664 O 0.24544 0.863 1.00578 0.0
O665 O 0.2632 0.88009 0.98742 0.0
O666 O 0.24381 0.90262 0.0158 0.0
O667 O 0.24343 0.91495 0.9874 0.0
C668 C 0.25597 0.8752 0.90744 0.0
C669 C 0.27574 0.87437 0.90872 0.0
H670 H 0.31349 0.87427 0.91665 0.0
H671 H 0.3278 0.88488 0.94692 0.0
H672 H 0.2011 0.88858 0.93919 0.0
H673 H 0.21771 0.87825 0.91046 0.0
H674 H 0.24902 0.87095 0.89448 0.0
H675 H 0.28366 0.86936 0.89678 0.0
Mn676 Mn 0.14702 0.51505 0.25992 0.0
Mn677 Mn 0.12712 0.55768 0.26041 0.0
C678 C 0.16285 0.54076 0.247 0.0
C679 C 0.16581 0.49155 0.27247 0.0
C680 C 0.11542 0.5265 0.23296 0.0
O681 O 0.12698 0.51243 0.28043 0.0
O682 O 0.11485 0.54123 0.27894 0.0
C683 C 0.139 0.5704 0.29844 0.0
N684 N 0.13825 0.57326 0.27972 0.0
C685 C 0.15234 0.60406 0.28366 0.0
C686 C 0.15323 0.60149 0.30299 0.0
C687 C 0.14664 0.58453 0.3104 0.0
C688 C 0.14484 0.58938 0.27242 0.0
H689 H 0.13374 0.55748 0.30422 0.0
C690 C 0.11542 0.52491 0.28592 0.0
O691 O 0.15265 0.48776 0.26028 0.0
O692 O 0.16768 0.509 0.27796 0.0
N693 N 0.13749 0.57541 0.24351 0.0
C694 C 0.13657 0.57522 0.2245 0.0
C695 C 0.14288 0.59102 0.21484 0.0
C696 C 0.14973 0.60695 0.22484 0.0
C697 C 0.15067 0.60677 0.2444 0.0
C698 C 0.14428 0.59059 0.25325 0.0
H699 H 0.1309 0.56316 0.21678 0.0
O700 O 0.16651 0.52372 0.24165 0.0
O701 O 0.14986 0.54237 0.25968 0.0
O702 O 0.1266 0.5144 0.23929 0.0
O703 O 0.11463 0.54315 0.23979 0.0
C704 C 0.1576 0.62203 0.2555 0.0
C705 C 0.15863 0.6206 0.27509 0.0
H706 H 0.15899 0.61241 0.31227 0.0
H707 H 0.1473 0.58242 0.3253 0.0
H708 H 0.1422 0.59104 0.19974 0.0
H709 H 0.15426 0.61924 0.21735 0.0
H710 H 0.16232 0.63488 0.24911 0.0
H711 H 0.16431 0.63229 0.28342 0.0
Mn712 Mn 0.76342 0.63909 0.01138 0.0
Mn713 Mn 0.72386 0.65727 0.99334 0.0
C714 C 0.73455 0.62232 0.01288 0.0
C715 C 0.79116 0.62143 0.01009 0.0
C716 C 0.74113 0.67078 0.03029 0.0
O717 O 0.77401 0.65935 0.99378 0.0
O718 O 0.7465 0.66869 0.98195 0.0
C719 C 0.72688 0.64292 0.95431 0.0
N720 N 0.71682 0.6449 0.97034 0.0
C721 C 0.68891 0.63185 0.95551 0.0
C722 C 0.69894 0.62971 0.93879 0.0
C723 C 0.71806 0.63511 0.93825 0.0
C724 C 0.69857 0.6393 0.97115 0.0
H725 H 0.74148 0.64737 0.95378 0.0
C726 C 0.76448 0.66924 0.98258 0.0
O727 O 0.78876 0.63482 0.02232 0.0
O728 O 0.77767 0.61865 0.99794 0.0
N729 N 0.70057 0.64769 1.00272 0.0
C730 C 0.6932 0.65002 0.02013 0.0
C731 C 0.67416 0.6455 0.02309 0.0
C732 C 0.66286 0.63891 1.00807 0.0
C733 C 0.67087 0.63619 0.99037 0.0
C734 C 0.6899 0.64099 0.98827 0.0
H735 H 0.70167 0.6557 0.03157 0.0
O736 O 0.74815 0.61932 0.0245 0.0
O737 O 0.7381 0.63514 1.00068 0.0
O738 O 0.75464 0.65935 0.03016 0.0
O739 O 0.72915 0.6713 0.01703 0.0
C740 C 0.66066 0.62922 0.97466 0.0
C741 C 0.66972 0.62687 0.95729 0.0
H742 H 0.69213 0.62388 0.92632 0.0
H743 H 0.72591 0.63347 0.92541 0.0
H744 H 0.66809 0.64747 0.03682 0.0
H745 H 0.64806 0.63591 0.01034 0.0
H746 H 0.64587 0.62551 0.9758 0.0
H747 H 0.66181 0.62122 0.94539 0.0
Mn748 Mn 0.88846 0.01139 0.26481 0.0
Mn749 Mn 0.90859 0.96893 0.26164 0.0
C750 C 0.87244 0.98602 0.25004 0.0
C751 C 0.8698 0.03464 0.27888 0.0
C752 C 0.9197 1.00102 0.23677 0.0
O753 O 0.90872 0.01344 0.28551 0.0
O754 O 0.92095 0.98479 0.2815 0.0
C755 C 0.89739 0.95468 0.29857 0.0
N756 N 0.89794 0.95253 0.27963 0.0
C757 C 0.88482 0.92124 0.28095 0.0
C758 C 0.88414 0.92308 0.30048 0.0
C759 C 0.89033 0.93993 0.30932 0.0
C760 C 0.89169 0.93653 0.27097 0.0
H761 H 0.90241 0.9675 0.30543 0.0
C762 C 0.92039 1.00083 0.2899 0.0
O763 O 0.883 0.03861 0.26712 0.0
O764 O 0.86787 0.0171 0.28318 0.0
N765 N 0.89818 0.95175 0.24329 0.0
C766 C 0.89887 0.95265 0.22433 0.0
C767 C 0.89306 0.937 0.21334 0.0
C768 C 0.88692 0.92051 0.22197 0.0
C769 C 0.88609 0.91999 0.24151 0.0
C770 C 0.892 0.93605 0.25172 0.0
H771 H 0.90406 0.96513 0.21765 0.0
O772 O 0.86879 1.00319 0.24596 0.0
O773 O 0.88566 0.98406 0.26245 0.0
O774 O 0.90855 0.01277 0.2442 0.0
O775 O 0.92073 0.9842 0.24221 0.0
C776 C 0.87978 0.90416 0.25129 0.0
C777 C 0.87895 0.90485 0.27098 0.0
H778 H 0.87884 0.91167 0.30882 0.0
H779 H 0.88983 0.94147 0.32438 0.0
H780 H 0.89362 0.93752 0.19826 0.0
H781 H 0.88282 0.90834 0.21343 0.0
H782 H 0.87534 0.89143 0.2438 0.0
H783 H 0.87373 0.89271 0.27831 0.0
Mn784 Mn 0.26423 0.13847 0.51125 0.0
Mn785 Mn 0.22488 0.15645 0.49259 0.0
C786 C 0.23538 0.12166 0.51248 0.0
C787 C 0.29208 0.12097 0.51026 0.0
C788 C 0.2416 0.17015 0.52973 0.0
O789 O 0.27498 0.15875 0.49379 0.0
O790 O 0.24763 0.16788 0.48141 0.0
C791 C 0.2286 0.14165 0.45378 0.0
N792 N 0.21822 0.14389 0.46957 0.0
C793 C 0.19061 0.13058 0.45441 0.0
C794 C 0.20094 0.12826 0.4379 0.0
C795 C 0.22007 0.13365 0.43764 0.0
C796 C 0.19998 0.13824 0.47013 0.0
H797 H 0.24323 0.14601 0.45349 0.0
C798 C 0.26559 0.16852 0.48237 0.0
O799 O 0.28948 0.13433 0.52248 0.0
O800 O 0.2787 0.11807 0.498 0.0
N801 N 0.20147 0.14684 0.50168 0.0
C802 C 0.19386 0.14914 0.51899 0.0
C803 C 0.17482 0.14439 0.52172 0.0
C804 C 0.16378 0.13765 0.50658 0.0
C805 C 0.17202 0.13505 0.48897 0.0
C806 C 0.19104 0.14001 0.48711 0.0
H807 H 0.20213 0.15492 0.53051 0.0
O808 O 0.24887 0.11867 0.52424 0.0
O809 O 0.23906 0.13442 0.50026 0.0
O810 O 0.25511 0.15871 0.52983 0.0
O811 O 0.22981 0.17064 0.51629 0.0
C812 C 0.16208 0.12798 0.47314 0.0
C813 C 0.17142 0.12554 0.45592 0.0
H814 H 0.19436 0.12227 0.42538 0.0
H815 H 0.22816 0.13183 0.42499 0.0
H816 H 0.16858 0.1463 0.53537 0.0
H817 H 0.14899 0.13445 0.50867 0.0
H818 H 0.14728 0.12421 0.47407 0.0
H819 H 0.16372 0.11976 0.44395 0.0
Mn820 Mn 0.38896 0.51223 0.76443 0.0
Mn821 Mn 0.40904 0.46974 0.76143 0.0
C822 C 0.37294 0.48681 0.74974 0.0
C823 C 0.37033 0.53557 0.77844 0.0
C824 C 0.42015 0.50168 0.73639 0.0
O825 O 0.40921 0.51435 0.78514 0.0
O826 O 0.42146 0.48571 0.78115 0.0
C827 C 0.39789 0.45579 0.79849 0.0
N828 N 0.39841 0.45349 0.77956 0.0
C829 C 0.38528 0.42223 0.78114 0.0
C830 C 0.38462 0.42422 0.80066 0.0
C831 C 0.39082 0.44114 0.80936 0.0
C832 C 0.39213 0.43744 0.77104 0.0
H833 H 0.40291 0.46866 0.80525 0.0
C834 C 0.4209 0.50175 0.78952 0.0
O835 O 0.38351 0.53947 0.76665 0.0
O836 O 0.36837 0.51805 0.78279 0.0
N837 N 0.39859 0.45243 0.74322 0.0
C838 C 0.3993 0.45316 0.72425 0.0
C839 C 0.39352 0.4374 0.71339 0.0
C840 C 0.3874 0.42099 0.72216 0.0
C841 C 0.38654 0.42065 0.74171 0.0
C842 C 0.39241 0.4368 0.75179 0.0
H843 H 0.40449 0.46558 0.71746 0.0
O844 O 0.36928 0.50397 0.7456 0.0
O845 O 0.38614 0.48491 0.76218 0.0
O846 O 0.40907 0.5135 0.74382 0.0
O847 O 0.42114 0.48487 0.74186 0.0
C848 C 0.38025 0.4049 0.75162 0.0
C849 C 0.37941 0.40576 0.77131 0.0
H850 H 0.37934 0.41289 0.8091 0.0
H851 H 0.39035 0.44279 0.82442 0.0
H852 H 0.3941 0.43779 0.6983 0.0
H853 H 0.38334 0.40874 0.71373 0.0
H854 H 0.37587 0.39209 0.74425 0.0
H855 H 0.37422 0.39368 0.77874 0.0
Mn856 Mn 0.76364 0.38413 0.5158 0.0
Mn857 Mn 0.76273 0.40446 0.47364 0.0
C858 C 0.74958 0.36836 0.49005 0.0
C859 C 0.77661 0.36528 0.53897 0.0
C860 C 0.73651 0.41542 0.5051 0.0
O861 O 0.78473 0.40433 0.51853 0.0
O862 O 0.78219 0.41666 0.49001 0.0
C863 C 0.80035 0.39336 0.46027 0.0
N864 N 0.78138 0.39392 0.45767 0.0
C865 C 0.78391 0.38114 0.42641 0.0
C866 C 0.80348 0.38043 0.42872 0.0
C867 C 0.81171 0.38644 0.44578 0.0
C868 C 0.77329 0.38784 0.44146 0.0
H869 H 0.80675 0.39825 0.47325 0.0
C870 C 0.78987 0.41604 0.50617 0.0
O871 O 0.76477 0.37833 0.54289 0.0
O872 O 0.7816 0.3636 0.52157 0.0
N873 N 0.74484 0.39421 0.45598 0.0
C874 C 0.72572 0.39496 0.4564 0.0
C875 C 0.71528 0.38935 0.44047 0.0
C876 C 0.72461 0.38337 0.42421 0.0
C877 C 0.74429 0.38248 0.42419 0.0
C878 C 0.75394 0.38817 0.4405 0.0
H879 H 0.71853 0.40006 0.46871 0.0
O880 O 0.74467 0.36455 0.507 0.0
O881 O 0.7624 0.38155 0.48854 0.0
O882 O 0.74317 0.40419 0.5169 0.0
O883 O 0.74276 0.41648 0.48849 0.0
C884 C 0.75475 0.37635 0.4086 0.0
C885 C 0.77452 0.37548 0.40977 0.0
H886 H 0.8123 0.37527 0.41751 0.0
H887 H 0.8268 0.38593 0.44768 0.0
H888 H 0.70008 0.38996 0.4406 0.0
H889 H 0.7165 0.37944 0.41183 0.0
H890 H 0.74773 0.37213 0.39567 0.0
H891 H 0.78237 0.37041 0.39781 0.0
Mn892 Mn 0.64684 0.01527 0.76055 0.0
Mn893 Mn 0.62665 0.05778 0.76123 0.0
C894 C 0.66251 0.04114 0.74776 0.0
C895 C 0.66576 0.9918 0.77301 0.0
C896 C 0.61516 0.02665 0.73364 0.0
O897 O 0.62677 0.01243 0.78102 0.0
O898 O 0.61452 0.0412 0.77971 0.0
C899 C 0.63851 0.07046 0.79928 0.0
N900 N 0.63772 0.07337 0.78057 0.0
C901 C 0.65161 0.10425 0.78459 0.0
C902 C 0.65254 0.10162 0.80391 0.0
C903 C 0.64607 0.0846 0.81127 0.0
C904 C 0.64419 0.08955 0.77332 0.0
H905 H 0.63334 0.05749 0.80502 0.0
C906 C 0.61517 0.02484 0.78659 0.0
O907 O 0.65264 0.98801 0.76078 0.0
O908 O 0.66751 1.00923 0.77859 0.0
N909 N 0.63689 0.07562 0.74437 0.0
C910 C 0.63593 0.07548 0.72536 0.0
C911 C 0.64212 0.09136 0.71575 0.0
C912 C 0.64889 0.1073 0.72579 0.0
C913 C 0.64986 0.10706 0.74534 0.0
C914 C 0.6436 0.09081 0.75414 0.0
H915 H 0.63033 0.06341 0.71762 0.0
O916 O 0.6663 0.02414 0.74236 0.0
O917 O 0.6495 0.04261 0.76043 0.0
O918 O 0.62648 0.01461 0.73985 0.0
O919 O 0.61421 0.04323 0.7406 0.0
C920 C 0.65671 0.12233 0.75647 0.0
C921 C 0.65777 0.12085 0.77606 0.0
H922 H 0.65824 0.11255 0.81321 0.0
H923 H 0.64677 0.08245 0.82616 0.0
H924 H 0.64142 0.09142 0.70065 0.0
H925 H 0.65333 0.11963 0.71832 0.0
H926 H 0.66133 0.13524 0.75012 0.0
H927 H 0.66339 0.13255 0.78442 0.0
Mn928 Mn 0.01275 0.26044 0.88449 0.0
Mn929 Mn 0.96983 0.25844 0.90456 0.0
C930 C 0.98711 0.24654 0.8684 0.0
C931 C 0.03657 0.27407 0.86611 0.0
C932 C 1.00131 0.23273 0.91515 0.0
O933 O 0.01498 0.28114 0.90505 0.0
O934 O 0.98591 0.27808 0.91722 0.0
C935 C 0.95636 0.29581 0.89426 0.0
N936 N 0.95395 0.27682 0.89423 0.0
C937 C 0.92328 0.27871 0.8802 0.0
C938 C 0.9254 0.29829 0.88012 0.0
C939 C 0.94207 0.30687 0.88707 0.0
C940 C 0.9381 0.26841 0.88731 0.0
H941 H 0.96905 0.30247 0.8998 0.0
C942 C 1.00224 0.28601 0.91671 0.0
O943 O 0.04016 0.26207 0.87885 0.0
O944 O 0.01911 0.27884 0.86448 0.0
N945 N 0.9526 0.24033 0.89362 0.0
C946 C 0.95331 0.22127 0.89362 0.0
C947 C 0.93794 0.21052 0.88663 0.0
C948 C 0.92191 0.21948 0.88004 0.0
C949 C 0.92155 0.23912 0.88011 0.0
C950 C 0.93735 0.24909 0.88708 0.0
H951 H 0.96546 0.21434 0.899 0.0
O952 O 1.00421 0.24182 0.86452 0.0
O953 O 0.98544 0.25894 0.88189 0.0
O954 O 0.01337 0.23971 0.90401 0.0
O955 O 0.98456 0.23866 0.91635 0.0
C956 C 0.90613 0.24923 0.87362 0.0
C957 C 0.90707 0.26899 0.87347 0.0
H958 H 0.91436 0.30687 0.87469 0.0
H959 H 0.94383 0.32197 0.88703 0.0
H960 H 0.93835 0.19537 0.88654 0.0
H961 H 0.90999 0.21113 0.87488 0.0
H962 H 0.89349 0.24194 0.86865 0.0
H963 H 0.89526 0.27658 0.8681 0.0
Mn964 Mn 0.51376 0.76131 0.38365 0.0
Mn965 Mn 0.47071 0.75871 0.4034 0.0
C966 C 0.48839 0.74703 0.36736 0.0
C967 C 0.53746 0.7754 0.36545 0.0
C968 C 0.50263 0.73365 0.41439 0.0
O969 O 0.51554 0.78198 0.40431 0.0
O970 O 0.48621 0.77889 0.41586 0.0
C971 C 0.4563 0.79551 0.39246 0.0
N972 N 0.45441 0.77648 0.39268 0.0
C973 C 0.42377 0.77732 0.3784 0.0
C974 C 0.42535 0.79694 0.37805 0.0
C975 C 0.44174 0.80606 0.385 0.0
C976 C 0.43883 0.76755 0.38576 0.0
H977 H 0.46877 0.80258 0.398 0.0
C978 C 0.50251 0.78693 0.41562 0.0
O979 O 0.54119 0.76343 0.37817 0.0
O980 O 0.51992 0.77987 0.36373 0.0
N981 N 0.45406 0.74001 0.39259 0.0
C982 C 0.45528 0.72099 0.39289 0.0
C983 C 0.44023 0.70973 0.38601 0.0
C984 C 0.42399 0.71814 0.37919 0.0
C985 C 0.42311 0.73775 0.37891 0.0
C986 C 0.43861 0.74823 0.38581 0.0
H987 H 0.4676 0.71447 0.39846 0.0
O988 O 0.5056 0.74262 0.36354 0.0
O989 O 0.48649 0.75936 0.38087 0.0
O990 O 0.51459 0.74052 0.40309 0.0
O991 O 0.48586 0.73951 0.41561 0.0
C992 C 0.40746 0.74732 0.37214 0.0
C993 C 0.40787 0.76708 0.37169 0.0
H994 H 0.41411 0.80512 0.37241 0.0
H995 H 0.44309 0.82119 0.38476 0.0
H996 H 0.44104 0.69461 0.38618 0.0
H997 H 0.41231 0.7094 0.37411 0.0
H998 H 0.39505 0.73962 0.36721 0.0
H999 H 0.39588 0.77425 0.36612 0.0
Mn1000 Mn 0.01916 0.76083 0.64001 0.0
Mn1001 Mn 1.00004 0.72265 0.66047 0.0
C1002 C 0.01932 0.73145 0.62443 0.0
C1003 C 0.01818 0.78778 0.62158 0.0
C1004 C 0.03826 0.73918 0.67144 0.0
O1005 O 1.00227 0.7726 0.66028 0.0
O1006 O 0.99047 0.74596 0.67222 0.0
C1007 C 0.96048 0.72708 0.64856 0.0
N1008 N 0.97604 0.71638 0.64971 0.0
C1009 C 0.95907 0.6891 0.63773 0.0
C1010 C 0.94283 0.6998 0.6364 0.0
C1011 C 0.94358 0.71891 0.6417 0.0
C1012 C 0.97558 0.69812 0.64425 0.0
H1013 H 0.96095 0.74167 0.65296 0.0
C1014 C 0.99172 0.76385 0.67177 0.0
O1015 O 0.03084 0.78571 0.63438 0.0
O1016 O 1.00561 0.77434 0.6197 0.0
N1017 N 1.00765 0.6988 0.65092 0.0
C1018 C 0.02473 0.69069 0.65251 0.0
C1019 C 0.02637 0.67151 0.64817 0.0
C1020 C 0.01041 0.66086 0.64252 0.0
C1021 C 0.99307 0.66961 0.64054 0.0
C1022 C 0.99228 0.68873 0.64516 0.0
H1023 H 0.0369 0.69869 0.65746 0.0
O1024 O 0.03145 0.74461 0.62045 0.0
O1025 O 1.00738 0.73575 0.63752 0.0
O1026 O 0.03812 0.75253 0.65992 0.0
O1027 O 0.02468 0.72733 0.67271 0.0
C1028 C 0.97648 0.66007 0.63449 0.0
C1029 C 0.95954 0.66986 0.63288 0.0
H1030 H 0.92972 0.6935 0.63132 0.0
H1031 H 0.93111 0.72726 0.64072 0.0
H1032 H 0.03982 0.66486 0.64956 0.0
H1033 H 0.01166 0.64596 0.6397 0.0
H1034 H 0.97661 0.64523 0.63091 0.0
H1035 H 0.94696 0.66244 0.62793 0.0
Mn1036 Mn 0.51876 0.26203 0.13958 0.0
Mn1037 Mn 0.49929 0.22402 0.16009 0.0
C1038 C 0.51872 0.2326 0.12407 0.0
C1039 C 0.51812 0.28899 0.12113 0.0
C1040 C 0.53758 0.24029 0.17113 0.0
O1041 O 0.50192 0.27398 0.15982 0.0
O1042 O 0.48992 0.24742 0.17177 0.0
C1043 C 0.45981 0.22877 0.14808 0.0
N1044 N 0.47527 0.21794 0.14929 0.0
C1045 C 0.45807 0.19077 0.13739 0.0
C1046 C 0.44194 0.20161 0.13599 0.0
C1047 C 0.44286 0.22074 0.14123 0.0
C1048 C 0.47466 0.19967 0.14389 0.0
H1049 H 0.4604 0.24338 0.15244 0.0
C1050 C 0.49131 0.2653 0.17131 0.0
O1051 O 0.53069 0.28679 0.13397 0.0
O1052 O 0.50542 0.27567 0.11921 0.0
N1053 N 0.50671 0.20008 0.15063 0.0
C1054 C 0.52369 0.1918 0.15234 0.0
C1055 C 0.52515 0.17258 0.14813 0.0
C1056 C 0.5091 0.16205 0.14249 0.0
C1057 C 0.49187 0.17096 0.14039 0.0
C1058 C 0.49126 0.19012 0.14488 0.0
H1059 H 0.53592 0.1997 0.1573 0.0
O1060 O 0.53095 0.24566 0.12008 0.0
O1061 O 0.50678 0.23702 0.13713 0.0
O1062 O 0.53758 0.25359 0.15955 0.0
O1063 O 0.52392 0.22853 0.1724 0.0
C1064 C 0.47521 0.16155 0.13435 0.0
C1065 C 0.45837 0.1715 0.13264 0.0
H1066 H 0.42878 0.19541 0.13092 0.0
H1067 H 0.43046 0.2292 0.1402 0.0
H1068 H 0.53852 0.1658 0.14963 0.0
H1069 H 0.51021 0.14712 0.13978 0.0
H1070 H 0.4752 0.14669 0.13086 0.0
H1071 H 0.44573 0.16417 0.12771 0.0
C1072 C 0.23146 0.77935 0.91771 0.0
C1073 C 0.22276 0.78468 0.90108 0.0
C1074 C 0.23541 0.79256 0.93228 0.0
C1075 C 0.23085 0.81166 0.93011 0.0
C1076 C 0.22194 0.81698 0.91338 0.0
C1077 C 0.21812 0.80354 0.89913 0.0
C1078 C 0.24428 0.78606 0.9501 0.0
C1079 C 0.21704 0.83703 0.91005 0.0
C1080 C 0.22714 0.84498 0.97264 0.0
C1081 C 0.24498 0.85376 0.97313 0.0
C1082 C 0.22239 0.83118 0.95887 0.0
C1083 C 0.23575 0.82612 0.94507 0.0
C1084 C 0.25379 0.83498 0.94554 0.0
C1085 C 0.25831 0.8483 0.95981 0.0
C1086 C 0.20313 0.8219 0.95916 0.0
C1087 C 0.26837 0.83036 0.93098 0.0
H1088 H 0.2349 0.76477 0.91944 0.0
H1089 H 0.21173 0.8079 0.88623 0.0
H1090 H 0.2582 0.79313 0.95228 0.0
H1091 H 0.23538 0.78998 0.96222 0.0
H1092 H 0.24622 0.77065 0.94996 0.0
H1093 H 0.20668 0.83823 0.8985 0.0
H1094 H 0.21128 0.84386 0.9228 0.0
H1095 H 0.23006 0.84471 0.90615 0.0
H1096 H 0.21693 0.84877 0.9832 0.0
H1097 H 0.27245 0.85422 0.96073 0.0
H1098 H 0.20446 0.80646 0.95979 0.0
H1099 H 0.19542 0.82485 0.94609 0.0
H1100 H 0.19462 0.8268 0.97123 0.0
H1101 H 0.27159 0.81524 0.93121 0.0
H1102 H 0.28167 0.8386 0.93317 0.0
H1103 H 0.26275 0.83322 0.91688 0.0
C1104 C 0.04651 0.5158 0.37564 0.0
C1105 C 0.05273 0.52995 0.38837 0.0
C1106 C 0.05623 0.51217 0.35884 0.0
C1107 C 0.07254 0.52299 0.35454 0.0
C1108 C 0.07909 0.537 0.36752 0.0
C1109 C 0.06915 0.5403 0.38418 0.0
C1110 C 0.04879 0.49706 0.34547 0.0
C1111 C 0.0963 0.549 0.36352 0.0
C1112 C 0.10773 0.50944 0.31644 0.0
C1113 C 0.10279 0.52153 0.30215 0.0
C1114 C 0.09749 0.50904 0.33331 0.0
C1115 C 0.08191 0.52093 0.33589 0.0
C1116 C 0.07624 0.53227 0.32102 0.0
C1117 C 0.08671 0.53244 0.30445 0.0
C1118 C 0.10398 0.49668 0.34873 0.0
C1119 C 0.05968 0.54506 0.32298 0.0
H1120 H 0.034 0.50755 0.37879 0.0
H1121 H 0.07397 0.55145 0.3937 0.0
H1122 H 0.04392 0.50348 0.33241 0.0
H1123 H 0.06014 0.48728 0.34162 0.0
H1124 H 0.03688 0.48889 0.35146 0.0
H1125 H 0.10027 0.55849 0.37551 0.0
H1126 H 0.10841 0.54002 0.36012 0.0
H1127 H 0.09362 0.55767 0.35118 0.0
H1128 H 0.12016 0.50104 0.31488 0.0
H1129 H 0.08263 0.54171 0.29344 0.0
H1130 H 0.0919 0.4887 0.35459 0.0
H1131 H 0.11018 0.50553 0.36025 0.0
H1132 H 0.11471 0.48662 0.34384 0.0
H1133 H 0.04712 0.53715 0.3279 0.0
H1134 H 0.05608 0.55175 0.30962 0.0
H1135 H 0.06297 0.55628 0.33358 0.0
C1136 C 0.79655 0.75593 0.92173 0.0
C1137 C 0.80376 0.75104 0.90406 0.0
C1138 C 0.79307 0.74234 0.93528 0.0
C1139 C 0.79681 0.72324 0.93118 0.0
C1140 C 0.80496 0.71832 0.91375 0.0
C1141 C 0.8083 0.73222 0.90043 0.0
C1142 C 0.7843 0.74829 0.95359 0.0
C1143 C 0.80926 0.6982 0.90877 0.0
C1144 C 0.79262 0.68847 0.9712 0.0
C1145 C 0.77392 0.68199 0.96904 0.0
C1146 C 0.80053 0.70161 0.9588 0.0
C1147 C 0.78953 0.70832 0.94386 0.0
C1148 C 0.77091 0.70133 0.94133 0.0
C1149 C 0.76342 0.68838 0.95384 0.0
C1150 C 0.82047 0.70866 0.96193 0.0
C1151 C 0.75861 0.70787 0.92561 0.0
H1152 H 0.79277 0.77032 0.92472 0.0
H1153 H 0.81419 0.72826 0.88701 0.0
H1154 H 0.7695 0.74304 0.95399 0.0
H1155 H 0.79185 0.74212 0.96546 0.0
H1156 H 0.78439 0.76379 0.95561 0.0
H1157 H 0.81787 0.69696 0.8959 0.0
H1158 H 0.81684 0.69163 0.92039 0.0
H1159 H 0.79591 0.69011 0.90646 0.0
H1160 H 0.8009 0.68366 0.98281 0.0
H1161 H 0.74904 0.68338 0.95172 0.0
H1162 H 0.82047 0.72382 0.96578 0.0
H1163 H 0.82869 0.70712 0.94887 0.0
H1164 H 0.82765 0.70108 0.9732 0.0
H1165 H 0.75638 0.72316 0.92725 0.0
H1166 H 0.74464 0.70057 0.92517 0.0
H1167 H 0.76563 0.70545 0.91198 0.0
C1168 C 0.96701 0.98042 0.38628 0.0
C1169 C 0.98389 0.98989 0.39129 0.0
C1170 C 0.95683 0.98502 0.37021 0.0
C1171 C 0.96356 0.99956 0.35871 0.0
C1172 C 0.98015 1.00975 0.36407 0.0
C1173 C 0.99011 1.00481 0.38026 0.0
C1174 C 0.9392 0.97378 0.36516 0.0
C1175 C 0.98782 0.02539 0.3523 0.0
C1176 C 0.94915 0.99244 0.30778 0.0
C1177 C 0.93317 1.00358 0.3064 0.0
C1178 C 0.95968 0.99182 0.32438 0.0
C1179 C 0.95421 1.00262 0.34022 0.0
C1180 C 0.9388 0.01482 0.33863 0.0
C1181 C 0.92846 0.01518 0.32173 0.0
C1182 C 0.97602 0.97869 0.32526 0.0
C1183 C 0.93258 0.02671 0.35508 0.0
H1184 H 0.96179 0.96918 0.39489 0.0
H1185 H 1.00313 0.01222 0.38391 0.0
H1186 H 0.92734 0.98329 0.36278 0.0
H1187 H 0.94144 0.96569 0.35194 0.0
H1188 H 0.93512 0.96382 0.37618 0.0
H1189 H 0.99949 0.03338 0.35942 0.0
H1190 H 0.99314 0.01945 0.33891 0.0
H1191 H 0.97652 0.03522 0.34885 0.0
H1192 H 0.95309 0.98356 0.29599 0.0
H1193 H 0.91612 0.02377 0.32089 0.0
H1194 H 0.97256 0.96712 0.33482 0.0
H1195 H 0.98871 0.98619 0.33094 0.0
H1196 H 0.97947 0.97248 0.31134 0.0
H1197 H 0.926 0.01758 0.36566 0.0
H1198 H 0.92222 0.03729 0.35097 0.0
H1199 H 0.94484 0.03403 0.36185 0.0
C1200 C 0.2335 0.24795 0.61344 0.0
C1201 C 0.22157 0.24123 0.62749 0.0
C1202 C 0.23745 0.23692 0.59738 0.0
C1203 C 0.22932 0.21867 0.59522 0.0
C1204 C 0.21732 0.21179 0.60936 0.0
C1205 C 0.21357 0.22311 0.62522 0.0
C1206 C 0.25032 0.24482 0.58268 0.0
C1207 C 0.20829 0.19246 0.60766 0.0
C1208 C 0.22412 0.19577 0.54665 0.0
C1209 C 0.23903 0.18313 0.54621 0.0
C1210 C 0.22103 0.20759 0.56232 0.0
C1211 C 0.23306 0.20683 0.57809 0.0
C1212 C 0.24827 0.19432 0.57769 0.0
C1213 C 0.25108 0.18267 0.5618 0.0
C1214 C 0.20467 0.22071 0.56209 0.0
C1215 C 0.26142 0.19302 0.59419 0.0
H1216 H 0.23995 0.2618 0.61508 0.0
H1217 H 0.20407 0.21784 0.63575 0.0
H1218 H 0.26254 0.2356 0.58062 0.0
H1219 H 0.24276 0.24523 0.56911 0.0
H1220 H 0.2556 0.2592 0.58644 0.0
H1221 H 0.19961 0.189 0.62002 0.0
H1222 H 0.19921 0.19144 0.59502 0.0
H1223 H 0.21928 0.18175 0.60599 0.0
H1224 H 0.21468 0.19633 0.53476 0.0
H1225 H 0.26263 0.17302 0.56172 0.0
H1226 H 0.2097 0.23535 0.56487 0.0
H1227 H 0.19465 0.2171 0.57335 0.0
H1228 H 0.19698 0.22009 0.54854 0.0
H1229 H 0.26772 0.20703 0.59776 0.0
H1230 H 0.27295 0.18307 0.59148 0.0
H1231 H 0.25345 0.18836 0.60658 0.0
C1232 C 0.4668 0.52594 0.63781 0.0
C1233 C 0.48505 0.53383 0.63932 0.0
C1234 C 0.45659 0.52068 0.65372 0.0
C1235 C 0.46474 0.5233 0.67172 0.0
C1236 C 0.48324 0.53102 0.67335 0.0
C1237 C 0.49315 0.53617 0.65718 0.0
C1238 C 0.43698 0.5124 0.65126 0.0
C1239 C 0.4925 0.53406 0.69223 0.0
C1240 C 0.43139 0.52576 0.71342 0.0
C1241 C 0.43209 0.50749 0.72027 0.0
C1242 C 0.44209 0.53114 0.69784 0.0
C1243 C 0.45386 0.51799 0.68877 0.0
C1244 C 0.45482 0.49963 0.69573 0.0
C1245 C 0.44397 0.49461 0.71132 0.0
C1246 C 0.4406 0.55086 0.69091 0.0
C1247 C 0.46716 0.48515 0.68655 0.0
H1248 H 0.46047 0.52375 0.62411 0.0
H1249 H 0.50712 0.54244 0.65859 0.0
H1250 H 0.43616 0.49828 0.65737 0.0
H1251 H 0.42674 0.52127 0.65884 0.0
H1252 H 0.43266 0.51117 0.63634 0.0
H1253 H 0.50707 0.53986 0.69115 0.0
H1254 H 0.48413 0.54387 0.70091 0.0
H1255 H 0.49292 0.52062 0.69966 0.0
H1256 H 0.42231 0.53588 0.72013 0.0
H1257 H 0.4447 0.48046 0.71637 0.0
H1258 H 0.43504 0.55048 0.6764 0.0
H1259 H 0.45473 0.55774 0.6906 0.0
H1260 H 0.43124 0.55958 0.69977 0.0
H1261 H 0.46255 0.48249 0.67188 0.0
H1262 H 0.46677 0.47164 0.69393 0.0
H1263 H 0.48193 0.49046 0.68616 0.0
C1264 C 0.81164 0.29685 0.62047 0.0
C1265 C 0.79844 0.28199 0.62182 0.0
C1266 C 0.80964 0.31081 0.60704 0.0
C1267 C 0.79402 0.31002 0.59464 0.0
C1268 C 0.78069 0.29504 0.59591 0.0
C1269 C 0.78305 0.28129 0.60942 0.0
C1270 C 0.8242 0.32647 0.60617 0.0
C1271 C 0.76374 0.29366 0.58312 0.0
C1272 C 0.77637 0.3542 0.57196 0.0
C1273 C 0.78276 0.35207 0.55351 0.0
C1274 C 0.78041 0.34095 0.58557 0.0
C1275 C 0.79116 0.32509 0.58071 0.0
C1276 C 0.7982 0.32317 0.56227 0.0
C1277 C 0.79391 0.33665 0.5489 0.0
C1278 C 0.77261 0.34363 0.60501 0.0
C1279 C 0.80977 0.30654 0.55649 0.0
H1280 H 0.82369 0.29746 0.6298 0.0
H1281 H 0.77257 0.27012 0.61049 0.0
H1282 H 0.83036 0.32688 0.59197 0.0
H1283 H 0.81748 0.34015 0.60887 0.0
H1284 H 0.83574 0.3249 0.61648 0.0
H1285 H 0.75491 0.28092 0.58556 0.0
H1286 H 0.75495 0.30618 0.58526 0.0
H1287 H 0.7683 0.29341 0.56832 0.0
H1288 H 0.76777 0.36605 0.57573 0.0
H1289 H 0.79892 0.33484 0.53471 0.0
H1290 H 0.78406 0.34298 0.61553 0.0
H1291 H 0.76236 0.33213 0.60793 0.0
H1292 H 0.76544 0.35722 0.60688 0.0
H1293 H 0.82177 0.30509 0.56626 0.0
H1294 H 0.81533 0.30773 0.54208 0.0
H1295 H 0.80103 0.29351 0.55717 0.0
C1296 C 0.56359 1.00851 0.63458 0.0
C1297 C 0.54612 0.99902 0.63586 0.0
C1298 C 0.57463 0.01282 0.65057 0.0
C1299 C 0.5681 1.00765 0.66842 0.0
C1300 C 0.5504 0.99827 0.66987 0.0
C1301 C 0.53967 0.99406 0.65363 0.0
C1302 C 0.59335 0.0229 0.64832 0.0
C1303 C 0.54285 0.99252 0.6886 0.0
C1304 C 0.60441 1.00408 0.70774 0.0
C1305 C 0.60273 0.02141 0.7173 0.0
C1306 C 0.59315 0.99936 0.69197 0.0
C1307 C 0.57976 0.01219 0.68555 0.0
C1308 C 0.57783 0.02957 0.69527 0.0
C1309 C 0.58931 0.03398 0.71091 0.0
C1310 C 0.59577 0.98071 0.68201 0.0
C1311 C 0.56371 0.04365 0.68903 0.0
H1312 H 0.56865 0.0127 0.62103 0.0
H1313 H 0.52635 0.98652 0.65485 0.0
H1314 H 0.59348 0.03636 0.65641 0.0
H1315 H 0.60478 0.01433 0.65399 0.0
H1316 H 0.59651 0.02585 0.63348 0.0
H1317 H 0.52874 0.98558 0.68744 0.0
H1318 H 0.55265 0.98274 0.69519 0.0
H1319 H 0.54186 1.00499 0.69808 0.0
H1320 H 0.61469 0.99424 0.71243 0.0
H1321 H 0.58777 0.04739 0.71811 0.0
H1322 H 0.60019 0.98299 0.66739 0.0
H1323 H 0.58224 0.97266 0.68144 0.0
H1324 H 0.60647 0.97211 0.68893 0.0
H1325 H 0.56701 0.04807 0.67464 0.0
H1326 H 0.56354 0.05632 0.69835 0.0
H1327 H 0.54939 0.03714 0.68865 0.0
C1328 C 0.90011 0.22346 0.79743 0.0
C1329 C 0.90529 0.22925 0.77955 0.0
C1330 C 0.91296 0.22438 0.81246 0.0
C1331 C 0.93149 0.23154 0.80975 0.0
C1332 C 0.93703 0.23673 0.79156 0.0
C1333 C 0.92392 0.23555 0.77675 0.0
C1334 C 0.90612 0.21853 0.83134 0.0
C1335 C 0.95675 0.24388 0.78779 0.0
C1336 C 0.95952 0.25597 0.84926 0.0
C1337 C 0.97167 0.24194 0.85485 0.0
C1338 C 0.94587 0.25249 0.83524 0.0
C1339 C 0.94478 0.23473 0.82594 0.0
C1340 C 0.95706 0.22048 0.83152 0.0
C1341 C 0.97037 0.22426 0.84587 0.0
C1342 C 0.93282 0.26796 0.83014 0.0
C1343 C 0.95635 0.20134 0.82206 0.0
H1344 H 0.88577 0.21874 0.7999 0.0
H1345 H 0.92827 0.23966 0.76293 0.0
H1346 H 0.91768 0.2137 0.84032 0.0
H1347 H 0.89954 0.23075 0.83828 0.0
H1348 H 0.89523 0.20716 0.83002 0.0
H1349 H 0.95927 0.24604 0.77269 0.0
H1350 H 0.95932 0.25741 0.79545 0.0
H1351 H 0.96716 0.23384 0.79296 0.0
H1352 H 0.96101 0.26989 0.85555 0.0
H1353 H 0.97996 0.21347 0.84991 0.0
H1354 H 0.91798 0.26299 0.8314 0.0
H1355 H 0.93506 0.27181 0.81539 0.0
H1356 H 0.93496 0.28073 0.83916 0.0
H1357 H 0.94202 0.19503 0.82329 0.0
H1358 H 0.96663 0.19169 0.82816 0.0
H1359 H 0.95934 0.20265 0.80694 0.0
C1360 C 0.48469 0.88589 0.46131 0.0
C1361 C 0.4932 0.89045 0.47863 0.0
C1362 C 0.48902 0.86936 0.45128 0.0
C1363 C 0.50231 0.85694 0.4586 0.0
C1364 C 0.5116 0.86184 0.47565 0.0
C1365 C 0.50694 0.8785 0.48546 0.0
C1366 C 0.47876 0.86482 0.43315 0.0
C1367 C 0.52591 0.84911 0.48394 0.0
C1368 C 0.49299 0.80608 0.44361 0.0
C1369 C 0.50519 0.80368 0.42838 0.0
C1370 C 0.49262 0.82298 0.45406 0.0
C1371 C 0.50481 0.83807 0.44933 0.0
C1372 C 0.51799 0.83542 0.43471 0.0
C1373 C 0.51804 0.81825 0.4244 0.0
C1374 C 0.47838 0.82501 0.46954 0.0
C1375 C 0.53137 0.85104 0.42931 0.0
H1376 H 0.47439 0.8952 0.45564 0.0
H1377 H 0.51359 0.8818 0.49882 0.0
H1378 H 0.48896 0.86161 0.4219 0.0
H1379 H 0.46964 0.85215 0.43479 0.0
H1380 H 0.46985 0.8765 0.42867 0.0
H1381 H 0.53355 0.85589 0.49597 0.0
H1382 H 0.51873 0.83617 0.48881 0.0
H1383 H 0.53628 0.8448 0.47323 0.0
H1384 H 0.48312 0.79489 0.44701 0.0
H1385 H 0.52748 0.81663 0.41266 0.0
H1386 H 0.46776 0.83538 0.4656 0.0
H1387 H 0.48533 0.83034 0.48258 0.0
H1388 H 0.47095 0.81155 0.47247 0.0
H1389 H 0.52341 0.86217 0.42245 0.0
H1390 H 0.54239 0.84606 0.41953 0.0
H1391 H 0.53829 0.85749 0.4419 0.0
C1392 C 0.12173 0.31692 0.80536 0.0
C1393 C 0.12581 0.30508 0.78998 0.0
C1394 C 0.1067 0.31288 0.81744 0.0
C1395 C 0.09531 0.29658 0.81415 0.0
C1396 C 0.09904 0.2848 0.79841 0.0
C1397 C 0.11419 0.28918 0.78654 0.0
C1398 C 0.10324 0.32589 0.83396 0.0
C1399 C 0.0873 0.26727 0.79437 0.0
C1400 C 0.07018 0.27494 0.85563 0.0
C1401 C 0.05161 0.28083 0.85332 0.0
C1402 C 0.08445 0.28003 0.84308 0.0
C1403 C 0.08018 0.29135 0.82772 0.0
C1404 C 0.06152 0.29759 0.82542 0.0
C1405 C 0.04748 0.29227 0.83823 0.0
C1406 C 0.10411 0.27309 0.84615 0.0
C1407 C 0.05635 0.3097 0.80929 0.0
H1408 H 0.13035 0.32944 0.80798 0.0
H1409 H 0.11725 0.27984 0.77483 0.0
H1410 H 0.08848 0.33062 0.83379 0.0
H1411 H 0.1053 0.31831 0.84713 0.0
H1412 H 0.11279 0.33843 0.83412 0.0
H1413 H 0.09131 0.26013 0.78105 0.0
H1414 H 0.08897 0.25732 0.80589 0.0
H1415 H 0.07218 0.27072 0.79364 0.0
H1416 H 0.07357 0.26609 0.8672 0.0
H1417 H 0.03319 0.29684 0.83625 0.0
H1418 H 0.11418 0.28515 0.84751 0.0
H1419 H 0.1085 0.26445 0.8339 0.0
H1420 H 0.10519 0.26455 0.85885 0.0
H1421 H 0.06528 0.32265 0.8095 0.0
H1422 H 0.04135 0.31372 0.80964 0.0
H1423 H 0.05904 0.30211 0.79588 0.0
C1424 C 0.5379 0.65775 0.48819 0.0
C1425 C 0.53357 0.63937 0.48178 0.0
C1426 C 0.53301 0.67341 0.47773 0.0
C1427 C 0.52354 0.67075 0.46036 0.0
C1428 C 0.51896 0.65226 0.4539 0.0
C1429 C 0.52398 0.63687 0.46465 0.0
C1430 C 0.53816 0.69284 0.48518 0.0
C1431 C 0.50881 0.64872 0.43555 0.0
C1432 C 0.49586 0.71083 0.43999 0.0
C1433 C 0.50825 0.71786 0.42647 0.0
C1434 C 0.50073 0.69574 0.45123 0.0
C1435 C 0.51842 0.68725 0.44891 0.0
C1436 C 0.53106 0.69431 0.43539 0.0
C1437 C 0.52587 0.7095 0.4244 0.0
C1438 C 0.48685 0.68878 0.46551 0.0
C1439 C 0.55002 0.68566 0.43237 0.0
H1440 H 0.5455 0.65991 0.50124 0.0
H1441 H 0.52027 0.62281 0.45965 0.0
H1442 H 0.54773 0.69996 0.47528 0.0
H1443 H 0.52536 0.70138 0.48642 0.0
H1444 H 0.54518 0.6926 0.49906 0.0
H1445 H 0.50624 0.63354 0.43246 0.0
H1446 H 0.49509 0.65582 0.43574 0.0
H1447 H 0.51716 0.65471 0.424 0.0
H1448 H 0.48222 0.7171 0.44183 0.0
H1449 H 0.53559 0.71469 0.41403 0.0
H1450 H 0.4934 0.68932 0.47961 0.0
H1451 H 0.48287 0.67392 0.46229 0.0
H1452 H 0.47386 0.69714 0.46593 0.0
H1453 H 0.55816 0.68609 0.44563 0.0
H1454 H 0.55838 0.69293 0.42154 0.0
H1455 H 0.54814 0.67069 0.42802 0.0
C1456 C 0.92482 0.81297 0.74892 0.0
C1457 C 0.90674 0.80486 0.74651 0.0
C1458 C 0.93938 0.80919 0.73618 0.0
C1459 C 0.93588 0.79699 0.72058 0.0
C1460 C 0.91743 0.78955 0.71754 0.0
C1461 C 0.90314 0.79354 0.7305 0.0
C1462 C 0.95877 0.81751 0.73997 0.0
C1463 C 0.913 0.77649 0.70111 0.0
C1464 C 0.97115 0.79115 0.68058 0.0
C1465 C 0.97955 0.77425 0.68516 0.0
C1466 C 0.95727 0.79913 0.69221 0.0
C1467 C 0.95183 0.79006 0.70884 0.0
C1468 C 0.96102 0.77354 0.71392 0.0
C1469 C 0.97463 0.76586 0.70204 0.0
C1470 C 0.94784 0.81675 0.68628 0.0
C1471 C 0.95595 0.76347 0.73158 0.0
H1472 H 0.92772 0.82203 0.76101 0.0
H1473 H 0.88934 0.78704 0.72851 0.0
H1474 H 0.96835 0.80628 0.74413 0.0
H1475 H 0.96461 0.82377 0.72714 0.0
H1476 H 0.95872 0.82845 0.75129 0.0
H1477 H 0.89766 0.77352 0.69955 0.0
H1478 H 0.91834 0.78256 0.68799 0.0
H1479 H 0.92018 0.763 0.70299 0.0
H1480 H 0.97475 0.79765 0.66751 0.0
H1481 H 0.98117 0.75288 0.7058 0.0
H1482 H 0.94763 0.82719 0.69802 0.0
H1483 H 0.93301 0.81342 0.68236 0.0
H1484 H 0.95497 0.8232 0.67416 0.0
H1485 H 0.95699 0.77328 0.74382 0.0
H1486 H 0.96517 0.75142 0.73408 0.0
H1487 H 0.94117 0.75819 0.73067 0.0
C1488 C 0.01843 0.88381 0.56405 0.0
C1489 C 0.03133 0.88284 0.54925 0.0
C1490 C 0.01479 0.8683 0.57541 0.0
C1491 C 0.02425 0.85129 0.57197 0.0
C1492 C 0.03686 0.85003 0.55673 0.0
C1493 C 0.04024 0.86575 0.5456 0.0
C1494 C 1.00119 0.8703 0.59142 0.0
C1495 C 0.0473 0.83223 0.55254 0.0
C1496 C 0.03243 0.8187 0.61254 0.0
C1497 C 0.01883 0.80439 0.60931 0.0
C1498 C 0.03414 0.83406 0.60067 0.0
C1499 C 0.02198 0.83527 0.58504 0.0
C1500 C 1.00801 0.82102 0.58183 0.0
C1501 C 1.00659 0.80578 0.59399 0.0
C1502 C 0.04919 0.84889 0.60474 0.0
C1503 C 0.99476 0.82173 0.56536 0.0
H1504 H 0.01122 0.89679 0.56687 0.0
H1505 H 0.0504 0.86482 0.5344 0.0
H1506 H 0.99032 0.85891 0.59062 0.0
H1507 H 1.0088 0.86898 0.60486 0.0
H1508 H 0.99408 0.88401 0.59154 0.0
H1509 H 0.05561 0.83304 0.53946 0.0
H1510 H 0.05702 0.82942 0.56425 0.0
H1511 H 0.03728 0.82013 0.55125 0.0
H1512 H 0.04197 0.81784 0.62432 0.0
H1513 H 0.99606 0.79481 0.59133 0.0
H1514 H 0.04275 0.86287 0.60626 0.0
H1515 H 0.05916 0.84955 0.59289 0.0
H1516 H 0.05725 0.84615 0.61767 0.0
H1517 H 0.98714 0.83514 0.56572 0.0
H1518 H 0.98428 0.80994 0.56509 0.0
H1519 H 1.00288 0.82122 0.55217 0.0
C1520 C 0.13455 0.71292 0.7221 0.0
C1521 C 0.13575 0.71923 0.74083 0.0
C1522 C 0.11912 0.71721 0.71073 0.0
C1523 C 0.10444 0.7282 0.71815 0.0
C1524 C 0.10578 0.73508 0.73687 0.0
C1525 C 0.12137 0.73051 0.74797 0.0
C1526 C 0.11834 0.70961 0.69086 0.0
C1527 C 0.09049 0.74686 0.74534 0.0
C1528 C 0.07032 0.74976 0.68367 0.0
C1529 C 0.05507 0.73688 0.68374 0.0
C1530 C 0.08634 0.74731 0.69496 0.0
C1531 C 0.08724 0.73157 0.70661 0.0
C1532 C 0.07185 0.71863 0.70687 0.0
C1533 C 0.05603 0.72144 0.69551 0.0
C1534 C 0.10239 0.76147 0.6943 0.0
C1535 C 0.07219 0.70162 0.71898 0.0
H1536 H 0.14571 0.70452 0.71628 0.0
H1537 H 0.122 0.73535 0.76242 0.0
H1538 H 0.10602 0.69991 0.68905 0.0
H1539 H 0.1165 0.72122 0.68104 0.0
H1540 H 0.13123 0.70196 0.68694 0.0
H1541 H 0.09417 0.75216 0.75964 0.0
H1542 H 0.0877 0.75899 0.73643 0.0
H1543 H 0.07723 0.73841 0.74606 0.0
H1544 H 0.0698 0.76176 0.67471 0.0
H1545 H 0.04444 0.71133 0.69575 0.0
H1546 H 0.11529 0.75454 0.68925 0.0
H1547 H 0.10548 0.76725 0.70854 0.0
H1548 H 0.09931 0.77325 0.68499 0.0
H1549 H 0.08408 0.69262 0.71486 0.0
H1550 H 0.05894 0.69309 0.71792 0.0
H1551 H 0.07446 0.70601 0.73381 0.0
C1552 C 1.00685 0.63358 0.56708 0.0
C1553 C 1.0019 0.63606 0.54834 0.0
C1554 C 0.01132 0.64888 0.57912 0.0
C1555 C 0.01082 0.66739 0.57245 0.0
C1556 C 1.00701 0.66997 0.55321 0.0
C1557 C 1.00251 0.65432 0.54142 0.0
C1558 C 0.01547 0.64488 0.59922 0.0
C1559 C 1.00732 0.68931 0.54514 0.0
C1560 C 0.99933 0.70776 0.6064 0.0
C1561 C 0.01722 0.71452 0.6119 0.0
C1562 C 0.99709 0.69233 0.59385 0.0
C1563 C 0.01312 0.68396 0.58576 0.0
C1564 C 0.03124 0.69124 0.5907 0.0
C1565 C 0.03307 0.70632 0.60377 0.0
C1566 C 0.97751 0.68492 0.58932 0.0
C1567 C 0.04871 0.68306 0.5822 0.0
H1568 H 1.00694 0.61954 0.57254 0.0
H1569 H 0.99885 0.65645 0.52693 0.0
H1570 H 1.0019 0.64393 0.6067 0.0
H1571 H 0.02246 0.6312 0.60054 0.0
H1572 H 0.02448 0.65591 0.60606 0.0
H1573 H 1.00636 0.68882 0.52965 0.0
H1574 H 0.99534 0.69739 0.55069 0.0
H1575 H 0.02043 0.69705 0.54938 0.0
H1576 H 0.98702 0.71473 0.61173 0.0
H1577 H 0.04694 0.71181 0.60755 0.0
H1578 H 0.97631 0.66991 0.59294 0.0
H1579 H 0.97471 0.68578 0.57413 0.0
H1580 H 0.96651 0.69279 0.59694 0.0
H1581 H 0.05011 0.66833 0.58653 0.0
H1582 H 0.06167 0.69108 0.58646 0.0
H1583 H 0.04759 0.68285 0.56672 0.0
C1584 C 0.80765 0.89783 0.21501 0.0
C1585 C 0.78878 0.89995 0.22013 0.0
C1586 C 0.82134 0.91181 0.2192 0.0
C1587 C 0.81626 0.92845 0.22896 0.0
C1588 C 0.79715 0.93081 0.23399 0.0
C1589 C 0.78368 0.91649 0.22967 0.0
C1590 C 0.84138 0.90829 0.21373 0.0
C1591 C 0.79089 0.94856 0.24379 0.0
C1592 C 0.85347 0.95692 0.25685 0.0
C1593 C 0.8591 0.97057 0.24416 0.0
C1594 C 0.8399 0.94294 0.25196 0.0
C1595 C 0.83098 0.9431 0.23423 0.0
C1596 C 0.83622 0.95723 0.22154 0.0
C1597 C 0.85026 0.97071 0.22662 0.0
C1598 C 0.83509 0.92801 0.26582 0.0
C1599 C 0.82687 0.95821 0.20265 0.0
H1600 H 0.81183 0.88498 0.20795 0.0
H1601 H 0.7691 0.91837 0.23348 0.0
H1602 H 0.84836 0.92112 0.20841 0.0
H1603 H 0.84909 0.904 0.22631 0.0
H1604 H 0.84242 0.8969 0.20294 0.0
H1605 H 0.77544 0.94862 0.24603 0.0
H1606 H 0.79803 0.95025 0.25755 0.0
H1607 H 0.79499 0.9609 0.23546 0.0
H1608 H 0.85943 0.95737 0.2708 0.0
H1609 H 0.85419 0.98152 0.21692 0.0
H1610 H 0.83775 0.91395 0.25951 0.0
H1611 H 0.81993 0.92839 0.26934 0.0
H1612 H 0.84339 0.92972 0.27895 0.0
H1613 H 0.82961 0.94525 0.1943 0.0
H1614 H 0.83195 0.97047 0.19468 0.0
H1615 H 0.8114 0.95907 0.20434 0.0
C1616 C 0.78978 0.11096 0.29234 0.0
C1617 C 0.79145 0.12156 0.30909 0.0
C1618 C 0.80221 0.09636 0.28808 0.0
C1619 C 0.81676 0.09219 0.30083 0.0
C1620 C 0.81841 0.1027 0.31783 0.0
C1621 C 0.8058 0.11721 0.32173 0.0
C1622 C 0.79989 0.08551 0.26981 0.0
C1623 C 0.83375 0.09886 0.33177 0.0
C1624 C 0.84058 0.04473 0.29592 0.0
C1625 C 0.85681 0.04937 0.28578 0.0
C1626 C 0.82751 0.0585 0.30106 0.0
C1627 C 0.83073 0.0774 0.29602 0.0
C1628 C 0.84729 0.0822 0.28614 0.0
C1629 C 0.86006 0.06817 0.28114 0.0
C1630 C 0.81006 0.05277 0.3116 0.0
C1631 C 0.85141 0.10214 0.28055 0.0
H1632 H 0.77865 0.114 0.28257 0.0
H1633 H 0.80747 0.12545 0.33458 0.0
H1634 H 0.81268 0.0874 0.26118 0.0
H1635 H 0.79825 0.07031 0.27245 0.0
H1636 H 0.78752 0.09004 0.26168 0.0
H1637 H 0.83268 0.10773 0.34469 0.0
H1638 H 0.83314 0.08391 0.33566 0.0
H1639 H 0.84772 0.10153 0.32539 0.0
H1640 H 0.83788 0.03026 0.29951 0.0
H1641 H 0.87254 0.07195 0.27331 0.0
H1642 H 0.79737 0.05573 0.30319 0.0
H1643 H 0.80911 0.06112 0.32483 0.0
H1644 H 0.80982 0.03765 0.31492 0.0
H1645 H 0.84016 0.10687 0.27109 0.0
H1646 H 0.86514 0.10367 0.27334 0.0
H1647 H 0.85151 0.11162 0.29307 0.0
C1648 C 0.38231 0.98428 0.01033 0.0
C1649 C 0.39266 0.97919 0.99438 0.0
C1650 C 0.36595 0.9741 0.0154 0.0
C1651 C 0.35972 0.95844 1.00426 0.0
C1652 C 0.3705 0.95285 0.98856 0.0
C1653 C 0.38677 0.96322 0.98387 0.0
C1654 C 0.35496 0.98052 0.03227 0.0
C1655 C 0.36448 0.93625 0.97627 0.0
C1656 C 0.32267 0.92206 0.019 0.0
C1657 C 0.30697 0.92753 1.0087 0.0
C1658 C 0.33975 0.93255 0.0186 0.0
C1659 C 0.3411 0.9489 1.00774 0.0
C1660 C 0.32486 0.95513 0.99846 0.0
C1661 C 0.3081 0.9444 0.99903 0.0
C1662 C 0.35665 0.92547 0.02884 0.0
C1663 C 0.32547 0.97252 0.98684 0.0
H1664 H 0.38663 0.99661 0.01854 0.0
H1665 H 0.39486 0.95884 0.97179 0.0
H1666 H 0.34138 0.98627 0.02769 0.0
H1667 H 0.35167 0.9685 0.04133 0.0
H1668 H 0.36271 0.99151 0.04066 0.0
H1669 H 0.37498 0.933 0.96528 0.0
H1670 H 0.36226 0.92366 0.98482 0.0
H1671 H 0.35088 0.93916 0.96937 0.0
H1672 H 0.32198 0.90899 0.0264 0.0
H1673 H 0.29599 0.94885 0.99116 0.0
H1674 H 0.36402 0.93712 0.03662 0.0
H1675 H 0.36674 0.9196 0.01859 0.0
H1676 H 0.35274 0.91435 0.03878 0.0
H1677 H 0.33187 0.9845 0.99494 0.0
H1678 H 0.31126 0.97649 0.98203 0.0
H1679 H 0.33439 0.97003 0.97438 0.0
C1680 C 0.24967 0.42036 0.2827 0.0
C1681 C 0.24786 0.40752 0.29719 0.0
C1682 C 0.23607 0.434 0.2797 0.0
C1683 C 0.22013 0.43499 0.29146 0.0
C1684 C 0.21821 0.42216 0.30618 0.0
C1685 C 0.23203 0.40857 0.30882 0.0
C1686 C 0.23866 0.44722 0.26373 0.0
C1687 C 0.20152 0.42275 0.31911 0.0
C1688 C 0.19356 0.48106 0.29131 0.0
C1689 C 0.17882 0.47678 0.2787 0.0
C1690 C 0.20676 0.46746 0.29605 0.0
C1691 C 0.20529 0.44914 0.28793 0.0
C1692 C 0.19014 0.44464 0.27558 0.0
C1693 C 0.17712 0.45845 0.27117 0.0
C1694 C 0.22259 0.47286 0.30937 0.0
C1695 C 0.188 0.42536 0.26654 0.0
H1696 H 0.26163 0.41952 0.27341 0.0
H1697 H 0.23053 0.39887 0.32016 0.0
H1698 H 0.22674 0.44541 0.25374 0.0
H1699 H 0.23864 0.46196 0.26904 0.0
H1700 H 0.25198 0.44488 0.25606 0.0
H1701 H 0.20226 0.41211 0.33013 0.0
H1702 H 0.20066 0.43685 0.32591 0.0
H1703 H 0.18833 0.42027 0.31099 0.0
H1704 H 0.19502 0.49515 0.29723 0.0
H1705 H 0.16581 0.45494 0.26141 0.0
H1706 H 0.23622 0.47223 0.30193 0.0
H1707 H 0.22315 0.46279 0.3209 0.0
H1708 H 0.22109 0.48722 0.31546 0.0
H1709 H 0.20025 0.42259 0.2574 0.0
H1710 H 0.17496 0.42378 0.25798 0.0
H1711 H 0.18776 0.4145 0.27735 0.0
C1712 C 0.13897 0.06041 0.50426 0.0
C1713 C 0.14228 0.04151 0.49992 0.0
C1714 C 0.15384 0.07333 0.50783 0.0
C1715 C 0.17273 0.06741 0.50689 0.0
C1716 C 0.17616 0.04812 0.50337 0.0
C1717 C 0.16095 0.03547 0.49973 0.0
C1718 C 0.14898 0.09347 0.5116 0.0
C1719 C 0.19593 0.04084 0.50335 0.0
C1720 C 0.21204 0.10202 0.49368 0.0
C1721 C 0.21879 0.10853 0.51114 0.0
C1722 C 0.19688 0.08901 0.49213 0.0
C1723 C 0.1888 0.08145 0.50846 0.0
C1724 C 0.1961 0.08742 0.52616 0.0
C1725 C 0.21088 0.10094 0.52729 0.0
C1726 C 0.18946 0.08338 0.47298 0.0
C1727 C 0.1883 0.07945 0.54392 0.0
H1728 H 0.12467 0.06537 0.50423 0.0
H1729 H 0.16369 0.02082 0.49673 0.0
H1730 H 0.15982 0.10113 0.52012 0.0
H1731 H 0.1476 0.10037 0.49801 0.0
H1732 H 0.13525 0.09456 0.51886 0.0
H1733 H 0.20382 0.04648 0.49133 0.0
H1734 H 0.20348 0.04568 0.51625 0.0
H1735 H 0.19615 0.02528 0.50241 0.0
H1736 H 0.21882 0.10693 0.48115 0.0
H1737 H 0.21637 0.10551 0.54084 0.0
H1738 H 0.17427 0.08656 0.47206 0.0
H1739 H 0.19075 0.06806 0.47054 0.0
H1740 H 0.19706 0.0907 0.46167 0.0
H1741 H 0.17338 0.08337 0.54554 0.0
H1742 H 0.19627 0.08457 0.55649 0.0
H1743 H 0.18866 0.0639 0.5432 0.0
C1744 C 0.75221 0.10767 0.73259 0.0
C1745 C 0.74832 0.12578 0.72655 0.0
C1746 C 0.7378 0.09402 0.73464 0.0
C1747 C 0.71891 0.09848 0.7306 0.0
C1748 C 0.71503 0.11646 0.72374 0.0
C1749 C 0.72969 0.12988 0.72191 0.0
C1750 C 0.74278 0.0749 0.74145 0.0
C1751 C 0.69527 0.12198 0.71915 0.0
C1752 C 0.68305 0.05787 0.72482 0.0
C1753 C 0.67544 0.0569 0.74282 0.0
C1754 C 0.69687 0.07156 0.72049 0.0
C1755 C 0.70327 0.08463 0.73449 0.0
C1756 C 0.69541 0.0838 0.75263 0.0
C1757 C 0.68193 0.06974 0.75664 0.0
C1758 C 0.705 0.07169 0.70107 0.0
C1759 C 0.70155 0.09755 0.76795 0.0
H1760 H 0.76659 0.10416 0.73583 0.0
H1761 H 0.72641 0.14383 0.71741 0.0
H1762 H 0.73633 0.07263 0.75531 0.0
H1763 H 0.73702 0.06382 0.73174 0.0
H1764 H 0.75822 0.07319 0.74273 0.0
H1765 H 0.69498 0.13462 0.71041 0.0
H1766 H 0.68745 0.11038 0.71177 0.0
H1767 H 0.68791 0.12519 0.73238 0.0
H1768 H 0.67838 0.04771 0.71419 0.0
H1769 H 0.67679 0.0685 0.77079 0.0
H1770 H 0.72029 0.06895 0.70172 0.0
H1771 H 0.70341 0.0857 0.69495 0.0
H1772 H 0.69815 0.06099 0.6916 0.0
H1773 H 0.71673 0.09598 0.77099 0.0
H1774 H 0.69355 0.09554 0.78106 0.0
H1775 H 0.69962 0.11211 0.7633 0.0
C1776 C 0.3894 0.06436 0.51314 0.0
C1777 C 0.38823 0.05017 0.5264 0.0
C1778 C 0.37383 0.07544 0.50901 0.0
C1779 C 0.35653 0.0724 0.51834 0.0
C1780 C 0.35509 0.05779 0.53136 0.0
C1781 C 0.37088 0.0469 0.53521 0.0
C1782 C 0.37604 0.09075 0.49496 0.0
C1783 C 0.337 0.05404 0.54171 0.0
C1784 C 0.32308 0.1132 0.5247 0.0
C1785 C 0.30905 0.10904 0.51125 0.0
C1786 C 0.33862 0.10157 0.52692 0.0
C1787 C 0.34034 0.08524 0.51544 0.0
C1788 C 0.32642 0.08111 0.50158 0.0
C1789 C 0.31097 0.09303 0.49965 0.0
C1790 C 0.35307 0.10663 0.54184 0.0
C1791 C 0.32768 0.06389 0.48902 0.0
H1792 H 0.40259 0.06687 0.506 0.0
H1793 H 0.36978 0.03619 0.54563 0.0
H1794 H 0.36492 0.08925 0.48408 0.0
H1795 H 0.37433 0.10463 0.50202 0.0
H1796 H 0.38999 0.09062 0.48806 0.0
H1797 H 0.33775 0.04145 0.55047 0.0
H1798 H 0.33376 0.06632 0.55086 0.0
H1799 H 0.32514 0.05203 0.53168 0.0
H1800 H 0.32181 0.1255 0.53376 0.0
H1801 H 0.30022 0.08963 0.48926 0.0
H1802 H 0.36725 0.10788 0.53553 0.0
H1803 H 0.35359 0.09534 0.55219 0.0
H1804 H 0.34997 0.12003 0.54932 0.0
H1805 H 0.34137 0.06391 0.48165 0.0
H1806 H 0.31617 0.06299 0.47847 0.0
H1807 H 0.32701 0.05112 0.49754 0.0
C1808 C 0.63946 0.4677 0.52631 0.0
C1809 C 0.64224 0.48526 0.53536 0.0
C1810 C 0.65473 0.45629 0.52158 0.0
C1811 C 0.67334 0.46252 0.5259 0.0
C1812 C 0.67627 0.48025 0.53496 0.0
C1813 C 0.66074 0.49135 0.53959 0.0
C1814 C 0.65091 0.43748 0.51202 0.0
C1815 C 0.69585 0.48754 0.5397 0.0
C1816 C 0.71203 0.4262 0.52828 0.0
C1817 C 0.72055 0.42766 0.51068 0.0
C1818 C 0.69674 0.43744 0.53343 0.0
C1819 C 0.68974 0.45059 0.52075 0.0
C1820 C 0.69835 0.45224 0.50304 0.0
C1821 C 0.71354 0.44078 0.49823 0.0
C1822 C 0.68796 0.43516 0.55241 0.0
C1823 C 0.69144 0.46609 0.4891 0.0
H1824 H 0.62526 0.46269 0.52322 0.0
H1825 H 0.66311 0.50495 0.54637 0.0
H1826 H 0.65817 0.43685 0.49835 0.0
H1827 H 0.65661 0.42616 0.5206 0.0
H1828 H 0.63565 0.43462 0.50966 0.0
H1829 H 0.69578 0.50156 0.54682 0.0
H1830 H 0.70299 0.47762 0.54891 0.0
H1831 H 0.70432 0.48856 0.52677 0.0
H1832 H 0.71721 0.41614 0.53804 0.0
H1833 H 0.71991 0.44214 0.48459 0.0
H1834 H 0.67289 0.43107 0.55082 0.0
H1835 H 0.68863 0.4487 0.56037 0.0
H1836 H 0.69505 0.4244 0.56071 0.0
H1837 H 0.67651 0.46289 0.4855 0.0
H1838 H 0.6998 0.46588 0.47603 0.0
H1839 H 0.69213 0.48048 0.49533 0.0
C1840 C 0.73215 0.28077 0.41891 0.0
C1841 C 0.7246 0.28617 0.40175 0.0
C1842 C 0.73504 0.29392 0.43377 0.0
C1843 C 0.73031 0.31294 0.43146 0.0
C1844 C 0.72188 0.31818 0.41446 0.0
C1845 C 0.71926 0.30484 0.39987 0.0
C1846 C 0.74341 0.28749 0.45185 0.0
C1847 C 0.71632 0.33804 0.41111 0.0
C1848 C 0.72631 0.34645 0.47384 0.0
C1849 C 0.74417 0.3552 0.47438 0.0
C1850 C 0.7216 0.33262 0.46008 0.0
C1851 C 0.73503 0.32749 0.44638 0.0
C1852 C 0.75308 0.33633 0.44691 0.0
C1853 C 0.75755 0.34969 0.46114 0.0
C1854 C 0.70232 0.32338 0.46027 0.0
C1855 C 0.76775 0.33162 0.43247 0.0
H1856 H 0.73625 0.26637 0.42057 0.0
H1857 H 0.713 0.30911 0.38687 0.0
H1858 H 0.75753 0.29413 0.45403 0.0
H1859 H 0.73452 0.29194 0.4638 0.0
H1860 H 0.74484 0.27202 0.45203 0.0
H1861 H 0.70532 0.33873 0.40011 0.0
H1862 H 0.71111 0.34505 0.424 0.0
H1863 H 0.7289 0.34588 0.40628 0.0
H1864 H 0.71605 0.3503 0.48434 0.0
H1865 H 0.77169 0.35559 0.46211 0.0
H1866 H 0.70361 0.30795 0.46105 0.0
H1867 H 0.69475 0.32622 0.44709 0.0
H1868 H 0.69371 0.32842 0.47221 0.0
H1869 H 0.78103 0.33988 0.43467 0.0
H1870 H 0.7622 0.33436 0.41831 0.0
H1871 H 0.77098 0.3165 0.43284 0.0
C1872 C 0.56874 0.04094 0.88451 0.0
C1873 C 0.55258 0.03032 0.88899 0.0
C1874 C 0.57868 0.03752 0.86787 0.0
C1875 C 0.57238 0.02311 0.85521 0.0
C1876 C 0.55634 0.01203 0.8598 0.0
C1877 C 0.54662 0.01579 0.87657 0.0
C1878 C 0.5956 0.04981 0.86355 0.0
C1879 C 0.54918 0.9965 0.84677 0.0
C1880 C 0.58622 0.03189 0.80489 0.0
C1881 C 0.60256 0.02134 0.80279 0.0
C1882 C 0.57576 0.03176 0.82148 0.0
C1883 C 0.58173 0.02087 0.83656 0.0
C1884 C 0.59759 1.0093 0.83418 0.0
C1885 C 0.6078 1.00963 0.8173 0.0
C1886 C 0.5589 0.04419 0.82321 0.0
C1887 C 0.60441 0.99741 0.84985 0.0
H1888 H 0.57336 0.05239 0.89378 0.0
H1889 H 0.53431 1.00733 0.87995 0.0
H1890 H 0.6079 0.04104 0.86029 0.0
H1891 H 0.59266 0.05814 0.85103 0.0
H1892 H 0.5994 0.05963 0.87532 0.0
H1893 H 0.53747 0.98821 0.85297 0.0
H1894 H 0.54412 1.00252 0.83358 0.0
H1895 H 0.56073 0.9869 0.84309 0.0
H1896 H 0.58192 0.04086 0.79372 0.0
H1897 H 0.62045 1.00152 0.81589 0.0
H1898 H 0.56197 0.05572 0.83354 0.0
H1899 H 0.54655 0.03612 0.82837 0.0
H1900 H 0.55508 0.05048 0.80971 0.0
H1901 H 0.61047 1.00662 0.86116 0.0
H1902 H 0.61533 0.98749 0.84511 0.0
H1903 H 0.59252 0.98932 0.85592 0.0
C1904 C 0.31065 0.23335 0.40212 0.0
C1905 C 0.30411 0.25163 0.40508 0.0
C1906 C 0.30747 0.21928 0.4153 0.0
C1907 C 0.29744 0.22349 0.4319 0.0
C1908 C 0.29161 0.24211 0.43537 0.0
C1909 C 0.29496 0.25588 0.42198 0.0
C1910 C 0.31401 0.19968 0.411 0.0
C1911 C 0.28081 0.24729 0.4528 0.0
C1912 C 0.26544 0.18627 0.45276 0.0
C1913 C 0.27522 0.18122 0.46894 0.0
C1914 C 0.27285 0.19942 0.44042 0.0
C1915 C 0.29059 0.20808 0.44421 0.0
C1916 C 0.30095 0.20265 0.46014 0.0
C1917 C 0.29318 0.1892 0.4723 0.0
C1918 C 0.2613 0.2045 0.42358 0.0
C1919 C 0.31992 0.21151 0.46467 0.0
H1920 H 0.31803 0.22992 0.38931 0.0
H1921 H 0.28961 0.26982 0.42443 0.0
H1922 H 0.32124 0.19395 0.4233 0.0
H1923 H 0.30166 0.19036 0.40776 0.0
H1924 H 0.32371 0.19919 0.39888 0.0
H1925 H 0.27922 0.26269 0.45454 0.0
H1926 H 0.26658 0.2406 0.45209 0.0
H1927 H 0.28796 0.24202 0.46536 0.0
H1928 H 0.25165 0.1801 0.44979 0.0
H1929 H 0.30085 0.18546 0.48471 0.0
H1930 H 0.26968 0.20276 0.41065 0.0
H1931 H 0.25737 0.21945 0.42476 0.0
H1932 H 0.24822 0.19578 0.42209 0.0
H1933 H 0.32918 0.21085 0.45225 0.0
H1934 H 0.32698 0.2046 0.47645 0.0
H1935 H 0.31822 0.22654 0.46848 0.0
C1936 C 0.49013 0.50494 0.88022 0.0
C1937 C 0.484 0.48974 0.89092 0.0
C1938 C 0.48025 0.51006 0.86404 0.0
C1939 C 0.46385 0.49975 0.85834 0.0
C1940 C 0.45723 0.48487 0.86948 0.0
C1941 C 0.46731 0.48011 0.88557 0.0
C1942 C 0.48779 0.52605 0.85267 0.0
C1943 C 0.43981 0.47348 0.86404 0.0
C1944 C 0.42872 0.51569 0.82156 0.0
C1945 C 0.43367 0.50449 0.80602 0.0
C1946 C 0.43899 0.51512 0.83848 0.0
C1947 C 0.45457 0.5031 0.83988 0.0
C1948 C 0.46029 0.49275 0.82384 0.0
C1949 C 0.44983 0.49358 0.80722 0.0
C1950 C 0.43251 0.52654 0.85515 0.0
C1951 C 0.47682 0.47984 0.82451 0.0
H1952 H 0.50302 0.51246 0.88411 0.0
H1953 H 0.46214 0.46865 0.89392 0.0
H1954 H 0.49325 0.52048 0.83918 0.0
H1955 H 0.47639 0.53582 0.84938 0.0
H1956 H 0.49934 0.53402 0.86001 0.0
H1957 H 0.4358 0.46317 0.87478 0.0
H1958 H 0.4278 0.48285 0.86183 0.0
H1959 H 0.44225 0.46576 0.85066 0.0
H1960 H 0.41623 0.52409 0.82085 0.0
H1961 H 0.45393 0.485 0.79527 0.0
H1962 H 0.44463 0.53387 0.86216 0.0
H1963 H 0.42598 0.51707 0.86546 0.0
H1964 H 0.42203 0.53708 0.85122 0.0
H1965 H 0.48936 0.48737 0.83047 0.0
H1966 H 0.48046 0.47403 0.81048 0.0
H1967 H 0.47345 0.46798 0.83376 0.0
C1968 C 0.71388 0.72308 0.12627 0.0
C1969 C 0.72051 0.74175 0.12791 0.0
C1970 C 0.71811 0.71168 0.11059 0.0
C1971 C 0.72937 0.71901 0.0961 0.0
C1972 C 0.73648 0.7377 0.09782 0.0
C1973 C 0.73198 0.74882 0.11367 0.0
C1974 C 0.71028 0.69184 0.10942 0.0
C1975 C 0.74854 0.74608 0.08273 0.0
C1976 C 0.75142 0.68384 0.06196 0.0
C1977 C 0.73873 0.68372 0.04684 0.0
C1978 C 0.74877 0.69546 0.0779 0.0
C1979 C 0.73303 0.7073 0.07886 0.0
C1980 C 0.72035 0.70746 0.06356 0.0
C1981 C 0.72334 0.69573 0.04781 0.0
C1982 C 0.76267 0.69487 0.09386 0.0
C1983 C 0.70337 0.71981 0.06395 0.0
H1984 H 0.70532 0.7173 0.13731 0.0
H1985 H 0.73707 0.76324 0.11465 0.0
H1986 H 0.70086 0.69009 0.09707 0.0
H1987 H 0.72187 0.68182 0.10753 0.0
H1988 H 0.70221 0.68805 0.12208 0.0
H1989 H 0.75376 0.76046 0.08657 0.0
H1990 H 0.76078 0.73711 0.07986 0.0
H1991 H 0.7403 0.74668 0.06958 0.0
H1992 H 0.76338 0.67469 0.06145 0.0
H1993 H 0.71338 0.69584 0.03631 0.0
H1994 H 0.75546 0.68986 0.10657 0.0
H1995 H 0.76839 0.70917 0.09717 0.0
H1996 H 0.77457 0.6855 0.09068 0.0
H1997 H 0.69399 0.71578 0.0756 0.0
H1998 H 0.69517 0.71879 0.05071 0.0
H1999 H 0.70782 0.73465 0.06652 0.0
C2000 C 0.96863 0.02538 0.13904 0.0
C2001 C 0.98673 0.0335 0.14119 0.0
C2002 C 0.95782 0.02022 0.1546 0.0
C2003 C 0.96522 0.02315 0.17289 0.0
C2004 C 0.9835 0.03126 0.17517 0.0
C2005 C 0.99398 0.03634 0.15935 0.0
C2006 C 0.93839 0.01173 0.15147 0.0
C2007 C 0.99201 0.03452 0.19436 0.0
C2008 C 0.93078 0.02512 0.21375 0.0
C2009 C 0.93172 1.00693 0.22075 0.0
C2010 C 0.94165 0.03061 0.19832 0.0
C2011 C 0.95386 0.01766 0.18958 0.0
C2012 C 0.95501 0.99935 0.19665 0.0
C2013 C 0.94397 0.99422 0.21206 0.0
C2014 C 0.93994 0.05026 0.19125 0.0
C2015 C 0.96783 0.98509 0.18782 0.0
H2016 H 0.96273 0.02337 0.12513 0.0
H2017 H 1.008 0.04239 0.16122 0.0
H2018 H 0.93746 0.99766 0.15771 0.0
H2019 H 0.92779 0.02056 0.15855 0.0
H2020 H 0.93468 0.0103 0.13641 0.0
H2021 H 1.00636 0.04096 0.19381 0.0
H2022 H 0.98294 0.04384 0.20286 0.0
H2023 H 0.99279 0.02103 0.20167 0.0
H2024 H 0.92141 0.03511 0.22024 0.0
H2025 H 0.94488 0.98012 0.21722 0.0
H2026 H 0.935 0.04972 0.17653 0.0
H2027 H 0.95392 0.05749 0.1915 0.0
H2028 H 0.93002 0.05875 0.19969 0.0
H2029 H 0.96371 0.9824 0.17302 0.0
H2030 H 0.96741 0.97156 0.19517 0.0
H2031 H 0.98253 0.99062 0.1879 0.0
C2032 C 0.31242 0.79564 0.11961 0.0
C2033 C 0.29939 0.78062 0.12087 0.0
C2034 C 0.31035 0.80956 0.10616 0.0
C2035 C 0.29483 0.80857 0.09364 0.0
C2036 C 0.28168 0.79343 0.09481 0.0
C2037 C 0.2841 0.77972 0.10835 0.0
C2038 C 0.32472 0.8254 0.10539 0.0
C2039 C 0.26484 0.79183 0.0819 0.0
C2040 C 0.27683 0.85255 0.07086 0.0
C2041 C 0.28339 0.85053 0.05246 0.0
C2042 C 0.2809 0.83933 0.08448 0.0
C2043 C 0.29188 0.8236 0.07969 0.0
C2044 C 0.29908 0.82179 0.0613 0.0
C2045 C 0.29474 0.83524 0.04792 0.0
C2046 C 0.27292 0.84189 0.10386 0.0
C2047 C 0.3109 0.80532 0.0556 0.0
H2048 H 0.32439 0.79641 0.12904 0.0
H2049 H 0.27375 0.76842 0.10935 0.0
H2050 H 0.33096 0.82591 0.09123 0.0
H2051 H 0.31781 0.83899 0.10806 0.0
H2052 H 0.33622 0.82397 0.11578 0.0
H2053 H 0.25616 0.77898 0.08426 0.0
H2054 H 0.25586 0.80423 0.08396 0.0
H2055 H 0.26951 0.79165 0.06713 0.0
H2056 H 0.26807 0.86429 0.07458 0.0
H2057 H 0.29988 0.83351 0.03376 0.0
H2058 H 0.2843 0.84139 0.11447 0.0
H2059 H 0.26281 0.83025 0.1067 0.0
H2060 H 0.26555 0.85538 0.10568 0.0
H2061 H 0.32285 0.80402 0.06545 0.0
H2062 H 0.31653 0.80658 0.04123 0.0
H2063 H 0.30231 0.79218 0.05623 0.0
C2064 C 0.06194 0.50475 0.1351 0.0
C2065 C 0.04356 0.4976 0.13749 0.0
C2066 C 0.0737 0.50929 0.15052 0.0
C2067 C 0.067 0.50668 0.16892 0.0
C2068 C 0.04845 0.49954 0.17145 0.0
C2069 C 0.037 0.4951 0.15577 0.0
C2070 C 0.09337 0.51681 0.14713 0.0
C2071 C 0.04066 0.49662 0.19076 0.0
C2072 C 0.10283 0.50304 0.20866 0.0
C2073 C 0.10288 0.52122 0.21671 0.0
C2074 C 0.09123 0.49811 0.1932 0.0
C2075 C 0.07932 0.51163 0.18548 0.0
C2076 C 0.07926 0.52996 0.19356 0.0
C2077 C 0.09098 0.53451 0.20899 0.0
C2078 C 0.09176 0.47841 0.18506 0.0
C2079 C 0.06684 0.54483 0.18583 0.0
H2080 H 0.06732 0.50648 0.1211 0.0
H2081 H 0.02278 0.48981 0.15785 0.0
H2082 H 0.0953 0.53082 0.15404 0.0
H2083 H 0.1038 0.50744 0.15337 0.0
H2084 H 0.09648 0.51808 0.13201 0.0
H2085 H 0.02604 0.49081 0.1904 0.0
H2086 H 0.04966 0.48689 0.19846 0.0
H2087 H 0.04081 0.51013 0.19878 0.0
H2088 H 0.11191 0.49261 0.21441 0.0
H2089 H 0.09084 0.54862 0.21495 0.0
H2090 H 0.09602 0.47876 0.17018 0.0
H2091 H 0.07751 0.47177 0.18548 0.0
H2092 H 0.10168 0.46949 0.19268 0.0
H2093 H 0.0704 0.54723 0.171 0.0
H2094 H 0.06829 0.55838 0.19375 0.0
H2095 H 0.0519 0.54005 0.18621 0.0
C2096 C 0.42531 0.73513 0.27562 0.0
C2097 C 0.40675 0.72867 0.27845 0.0
C2098 C 0.43844 0.73646 0.29041 0.0
C2099 C 0.43298 0.73128 0.30863 0.0
C2100 C 0.41452 0.72395 0.31137 0.0
C2101 C 0.40167 0.72286 0.29635 0.0
C2102 C 0.45812 0.74372 0.28658 0.0
C2103 C 0.40768 0.71792 0.33019 0.0
C2104 C 0.47189 0.72451 0.34487 0.0
C2105 C 0.47307 0.74225 0.35374 0.0
C2106 C 0.45862 0.72054 0.33052 0.0
C2107 C 0.44628 0.73468 0.32479 0.0
C2108 C 0.44724 0.7525 0.33398 0.0
C2109 C 0.46084 0.75616 0.34801 0.0
C2110 C 0.45795 0.70131 0.32128 0.0
C2111 C 0.43407 0.76784 0.32876 0.0
H2112 H 0.4296 0.73925 0.26178 0.0
H2113 H 0.38738 0.71797 0.29886 0.0
H2114 H 0.46061 0.7573 0.29416 0.0
H2115 H 0.4686 0.73378 0.2918 0.0
H2116 H 0.46061 0.74581 0.27146 0.0
H2117 H 0.39868 0.70503 0.32874 0.0
H2118 H 0.41929 0.71522 0.34003 0.0
H2119 H 0.3988 0.72912 0.33617 0.0
H2120 H 0.48152 0.71379 0.34904 0.0
H2121 H 0.46221 0.77013 0.35423 0.0
H2122 H 0.46068 0.70247 0.3061 0.0
H2123 H 0.44369 0.69491 0.32281 0.0
H2124 H 0.46841 0.69182 0.32733 0.0
H2125 H 0.43631 0.77162 0.31399 0.0
H2126 H 0.4361 0.78067 0.33771 0.0
H2127 H 0.41928 0.76274 0.33002 0.0
C2128 C 0.98156 0.38336 0.96349 0.0
C2129 C 0.99149 0.38913 0.97972 0.0
C2130 C 0.98611 0.36689 0.95346 0.0
C2131 C 1.00106 0.35577 0.95966 0.0
C2132 C 0.01165 0.36186 0.9756 0.0
C2133 C 1.00676 0.37843 0.98543 0.0
C2134 C 0.97444 0.36106 0.93652 0.0
C2135 C 0.0277 0.35049 0.9827 0.0
C2136 C 0.99442 0.30426 0.94579 0.0
C2137 C 1.00523 0.30267 0.92946 0.0
C2138 C 0.99384 0.32112 0.95629 0.0
C2139 C 1.00427 0.33702 0.95039 0.0
C2140 C 0.01616 0.33522 0.93459 0.0
C2141 C 0.01655 0.31805 0.92433 0.0
C2142 C 0.9811 0.3222 0.97309 0.0
C2143 C 0.02761 0.35175 0.92785 0.0
H2144 H 0.97004 0.39169 0.95866 0.0
H2145 H 0.0145 0.38266 0.99796 0.0
H2146 H 0.98368 0.35845 0.92433 0.0
H2147 H 0.96668 0.34775 0.93925 0.0
H2148 H 0.96409 0.3718 0.9328 0.0
H2149 H 0.03583 0.35806 0.99394 0.0
H2150 H 0.02212 0.33713 0.98828 0.0
H2151 H 0.03739 0.34686 0.97112 0.0
H2152 H 0.98574 0.29242 0.94999 0.0
H2153 H 0.02484 0.31705 0.91169 0.0
H2154 H 0.96914 0.33141 0.97007 0.0
H2155 H 0.98879 0.32847 0.98532 0.0
H2156 H 0.97536 0.30822 0.97691 0.0
H2157 H 0.01808 0.36204 0.92166 0.0
H2158 H 0.03804 0.34752 0.91713 0.0
H2159 H 0.03513 0.35896 0.93969 0.0
C2160 C 0.62135 0.81975 0.30371 0.0
C2161 C 0.6255 0.80781 0.28843 0.0
C2162 C 0.60674 0.8154 0.3162 0.0
C2163 C 0.59593 0.79862 0.31349 0.0
C2164 C 0.59993 0.78655 0.29805 0.0
C2165 C 0.61461 0.79127 0.28574 0.0
C2166 C 0.60307 0.82864 0.33249 0.0
C2167 C 0.58878 0.76854 0.29459 0.0
C2168 C 0.57119 0.77724 0.35536 0.0
C2169 C 0.55245 0.78246 0.35274 0.0
C2170 C 0.58542 0.78254 0.34284 0.0
C2171 C 0.58092 0.79337 0.32719 0.0
C2172 C 0.56208 0.79896 0.3246 0.0
C2173 C 0.54809 0.79347 0.3374 0.0
C2174 C 0.60528 0.77631 0.34623 0.0
C2175 C 0.55665 0.81052 0.30814 0.0
H2176 H 0.62979 0.83241 0.30616 0.0
H2177 H 0.61747 0.78204 0.2739 0.0
H2178 H 0.58816 0.8329 0.33237 0.0
H2179 H 0.60551 0.82143 0.3458 0.0
H2180 H 0.61223 0.84145 0.33228 0.0
H2181 H 0.5933 0.76089 0.28173 0.0
H2182 H 0.59039 0.75923 0.30665 0.0
H2183 H 0.57359 0.77155 0.29331 0.0
H2184 H 0.57476 0.76873 0.36714 0.0
H2185 H 0.53367 0.79753 0.33518 0.0
H2186 H 0.61502 0.78867 0.34716 0.0
H2187 H 0.60994 0.76734 0.33432 0.0
H2188 H 0.60658 0.7683 0.35926 0.0
H2189 H 0.56522 0.8237 0.30808 0.0
H2190 H 0.54153 0.81411 0.30831 0.0
H2191 H 0.55961 0.80269 0.29494 0.0
C2192 C 0.03593 0.15645 0.98884 0.0
C2193 C 0.03234 0.13806 0.98201 0.0
C2194 C 0.03091 0.17214 0.97848 0.0
C2195 C 0.02208 0.16951 0.96078 0.0
C2196 C 0.01823 0.15102 0.9539 0.0
C2197 C 0.02335 0.13559 0.96456 0.0
C2198 C 0.03526 0.19157 0.98638 0.0
C2199 C 1.00878 0.1475 0.93518 0.0
C2200 C 0.99413 0.20924 0.94006 0.0
C2201 C 1.00683 0.2168 0.9271 0.0
C2202 C 0.99896 0.19406 0.95121 0.0
C2203 C 0.01694 0.18605 0.94939 0.0
C2204 C 0.02987 0.19363 0.93642 0.0
C2205 C 0.0247 0.20887 0.9255 0.0
C2206 C 0.98475 0.18652 0.96487 0.0
C2207 C 0.04915 0.18551 0.93395 0.0
H2208 H 0.04307 0.15861 1.00214 0.0
H2209 H 0.0202 0.12152 0.95922 0.0
H2210 H 0.04501 0.1991 0.97695 0.0
H2211 H 0.0222 0.19975 0.98726 0.0
H2212 H 0.04177 0.1913 1.00051 0.0
H2213 H 1.00668 0.13231 0.93182 0.0
H2214 H 0.99489 0.15426 0.93499 0.0
H2215 H 0.01739 0.15386 0.924 0.0
H2216 H 0.98029 0.21516 0.94152 0.0
H2217 H 0.03467 0.21448 0.91557 0.0
H2218 H 0.99078 0.18702 0.97919 0.0
H2219 H 0.98128 0.17161 0.96132 0.0
H2220 H 0.97152 0.19452 0.96492 0.0
H2221 H 0.05682 0.18597 0.94748 0.0
H2222 H 0.0577 0.19314 0.92352 0.0
H2223 H 0.04779 0.17056 0.92937 0.0
C2224 C 0.40123 0.29117 0.22793 0.0
C2225 C 0.40357 0.30253 0.24412 0.0
C2226 C 0.41619 0.28814 0.21549 0.0
C2227 C 0.43403 0.29672 0.21919 0.0
C2228 C 0.43622 0.30907 0.23491 0.0
C2229 C 0.42101 0.31179 0.24718 0.0
C2230 C 0.41313 0.27492 0.1989 0.0
C2231 C 0.45492 0.31859 0.23936 0.0
C2232 C 0.47463 0.26748 0.20175 0.0
C2233 C 0.47918 0.27572 0.1847 0.0
C2234 C 0.46067 0.27476 0.21345 0.0
C2235 C 0.45077 0.29075 0.20803 0.0
C2236 C 0.45599 0.29984 0.19134 0.0
C2237 C 0.4702 0.29224 0.17987 0.0
C2238 C 0.45582 0.26466 0.23115 0.0
C2239 C 0.44589 0.31697 0.18511 0.0
H2240 H 0.38775 0.28426 0.22516 0.0
H2241 H 0.42309 0.32052 0.25966 0.0
H2242 H 0.41825 0.28149 0.18595 0.0
H2243 H 0.42131 0.26205 0.20086 0.0
H2244 H 0.39808 0.27078 0.19696 0.0
H2245 H 0.45367 0.32978 0.25033 0.0
H2246 H 0.46491 0.30808 0.24436 0.0
H2247 H 0.46105 0.32482 0.22665 0.0
H2248 H 0.48163 0.2548 0.2057 0.0
H2249 H 0.47352 0.29862 0.16667 0.0
H2250 H 0.44142 0.25841 0.22993 0.0
H2251 H 0.45591 0.27466 0.24326 0.0
H2252 H 0.46576 0.25329 0.23407 0.0
H2253 H 0.43143 0.31287 0.18048 0.0
H2254 H 0.45321 0.32387 0.17336 0.0
H2255 H 0.4446 0.32728 0.19687 0.0
C2256 C 0.51959 0.38526 0.06398 0.0
C2257 C 0.53239 0.3842 0.0491 0.0
C2258 C 0.51579 0.36973 0.07526 0.0
C2259 C 0.52497 0.3526 0.07167 0.0
C2260 C 0.53748 0.35125 0.05635 0.0
C2261 C 0.54102 0.36701 0.04529 0.0
C2262 C 0.50229 0.37183 0.09135 0.0
C2263 C 0.54764 0.33333 0.05199 0.0
C2264 C 0.53282 0.31971 0.11207 0.0
C2265 C 0.51899 0.30561 0.10886 0.0
C2266 C 0.53473 0.33507 0.10023 0.0
C2267 C 0.52254 0.33652 0.08466 0.0
C2268 C 0.50835 0.32249 0.08146 0.0
C2269 C 0.50673 0.30723 0.09359 0.0
C2270 C 0.55001 0.34967 0.10429 0.0
C2271 C 0.49504 0.32346 0.06506 0.0
H2272 H 0.51258 0.39834 0.06692 0.0
H2273 H 0.5511 0.366 0.03402 0.0
H2274 H 0.49126 0.36059 0.09054 0.0
H2275 H 0.50995 0.37031 0.10475 0.0
H2276 H 0.49538 0.38564 0.0916 0.0
H2277 H 0.55589 0.3341 0.03888 0.0
H2278 H 0.55738 0.33031 0.06363 0.0
H2279 H 0.53744 0.32137 0.05068 0.0
H2280 H 0.54238 0.31868 0.12381 0.0
H2281 H 0.49603 0.29642 0.09093 0.0
H2282 H 0.54379 0.36373 0.10594 0.0
H2283 H 0.55991 0.35025 0.09237 0.0
H2284 H 0.55812 0.34673 0.11715 0.0
H2285 H 0.4876 0.33697 0.06554 0.0
H2286 H 0.48442 0.3118 0.06477 0.0
H2287 H 0.5031 0.32293 0.05183 0.0
C2288 C 0.6212 0.23382 0.24743 0.0
C2289 C 0.63482 0.22114 0.24123 0.0
C2290 C 0.60554 0.23792 0.23624 0.0
C2291 C 0.60335 0.22919 0.21834 0.0
C2292 C 0.61715 0.21658 0.21189 0.0
C2293 C 0.63261 0.21268 0.22338 0.0
C2294 C 0.5912 0.25145 0.24368 0.0
C2295 C 0.61539 0.2069 0.19295 0.0
C2296 C 0.55437 0.22367 0.19669 0.0
C2297 C 0.5543 0.23798 0.18354 0.0
C2298 C 0.57008 0.22087 0.20821 0.0
C2299 C 0.58629 0.2326 0.20663 0.0
C2300 C 0.58631 0.24719 0.19355 0.0
C2301 C 0.57036 0.24972 0.1822 0.0
C2302 C 0.56938 0.20517 0.22198 0.0
C2303 C 0.60331 0.25999 0.19137 0.0
H2304 H 0.62283 0.24065 0.26105 0.0
H2305 H 0.6428 0.20264 0.21849 0.0
H2306 H 0.58951 0.26308 0.23386 0.0
H2307 H 0.5773 0.24419 0.24479 0.0
H2308 H 0.59517 0.25748 0.25764 0.0
H2309 H 0.62769 0.19809 0.18963 0.0
H2310 H 0.6025 0.19784 0.19243 0.0
H2311 H 0.61398 0.21743 0.18192 0.0
H2312 H 0.54213 0.21448 0.19796 0.0
H2313 H 0.57055 0.26082 0.17214 0.0
H2314 H 0.57218 0.21083 0.23632 0.0
H2315 H 0.5805 0.19497 0.21866 0.0
H2316 H 0.55556 0.19759 0.22186 0.0
H2317 H 0.60703 0.2669 0.20498 0.0
H2318 H 0.60095 0.27098 0.18096 0.0
H2319 H 0.61557 0.25166 0.18691 0.0
C2320 C 0.50584 0.13448 0.06721 0.0
C2321 C 0.5011 0.13688 0.04841 0.0
C2322 C 0.51032 0.14981 0.0792 0.0
C2323 C 0.51001 0.16829 0.07242 0.0
C2324 C 0.50637 0.17079 0.05313 0.0
C2325 C 0.50188 0.1551 0.04138 0.0
C2326 C 0.51427 0.1459 0.09935 0.0
C2327 C 0.50687 0.19008 0.04497 0.0
C2328 C 0.49865 0.20895 0.10608 0.0
C2329 C 0.51656 0.21561 0.11163 0.0
C2330 C 0.49635 0.19345 0.09361 0.0
C2331 C 0.51236 0.18491 0.08565 0.0
C2332 C 0.53051 0.19209 0.09065 0.0
C2333 C 0.53238 0.20725 0.10362 0.0
C2334 C 0.47675 0.18616 0.08903 0.0
C2335 C 0.54796 0.18372 0.08229 0.0
H2336 H 0.5058 0.12047 0.07274 0.0
H2337 H 0.49836 0.15718 0.02685 0.0
H2338 H 0.50064 0.14519 0.10674 0.0
H2339 H 0.52106 0.13214 0.10083 0.0
H2340 H 0.52337 0.15687 0.10617 0.0
H2341 H 0.50595 0.18952 0.02947 0.0
H2342 H 0.49494 0.19829 0.05044 0.0
H2343 H 0.52003 0.19774 0.04921 0.0
H2344 H 0.48637 0.21603 0.11132 0.0
H2345 H 0.54628 0.21266 0.10745 0.0
H2346 H 0.47542 0.17118 0.09274 0.0
H2347 H 0.47404 0.18694 0.07382 0.0
H2348 H 0.46577 0.19415 0.09655 0.0
H2349 H 0.5492 0.16901 0.08671 0.0
H2350 H 0.56096 0.19165 0.08659 0.0
H2351 H 0.54694 0.18345 0.06681 0.0
C2352 C 0.30845 0.39761 0.71702 0.0
C2353 C 0.28971 0.39964 0.72261 0.0
C2354 C 0.32197 0.41202 0.72005 0.0
C2355 C 0.31686 0.42899 0.72916 0.0
C2356 C 0.29777 0.43146 0.73421 0.0
C2357 C 0.28444 0.41678 0.73089 0.0
C2358 C 0.34189 0.40852 0.71416 0.0
C2359 C 0.29147 0.44952 0.74336 0.0
C2360 C 0.35395 0.45783 0.75679 0.0
C2361 C 0.35962 0.47133 0.74396 0.0
C2362 C 0.34042 0.44379 0.75201 0.0
C2363 C 0.33158 0.44371 0.73422 0.0
C2364 C 0.33688 0.45766 0.72137 0.0
C2365 C 0.35086 0.47124 0.72636 0.0
C2366 C 0.33553 0.42906 0.76606 0.0
C2367 C 0.32766 0.45834 0.70239 0.0
H2368 H 0.31263 0.38462 0.71021 0.0
H2369 H 0.26999 0.41856 0.7352 0.0
H2370 H 0.349 0.42143 0.70921 0.0
H2371 H 0.34969 0.40355 0.72641 0.0
H2372 H 0.34258 0.39752 0.70293 0.0
H2373 H 0.27596 0.44985 0.74505 0.0
H2374 H 0.29813 0.45135 0.75734 0.0
H2375 H 0.29606 0.46164 0.73495 0.0
H2376 H 0.35986 0.45845 0.77076 0.0
H2377 H 0.35483 0.48193 0.71655 0.0
H2378 H 0.33815 0.41492 0.75994 0.0
H2379 H 0.32036 0.42956 0.76954 0.0
H2380 H 0.34381 0.43091 0.77919 0.0
H2381 H 0.33038 0.44521 0.69431 0.0
H2382 H 0.33287 0.47041 0.69423 0.0
H2383 H 0.31219 0.45932 0.70396 0.0
C2384 C 0.30722 0.61859 0.8218 0.0
C2385 C 0.29251 0.62276 0.80951 0.0
C2386 C 0.31976 0.60406 0.81772 0.0
C2387 C 0.31768 0.59336 0.80087 0.0
C2388 C 0.30279 0.59738 0.78846 0.0
C2389 C 0.29043 0.61198 0.7929 0.0
C2390 C 0.33546 0.60038 0.83131 0.0
C2391 C 0.30002 0.58634 0.77035 0.0
C2392 C 0.36053 0.56911 0.78044 0.0
C2393 C 0.35741 0.55037 0.78537 0.0
C2394 C 0.34786 0.58318 0.78555 0.0
C2395 C 0.33153 0.57851 0.79587 0.0
C2396 C 0.32844 0.55967 0.80118 0.0
C2397 C 0.34141 0.54584 0.7959 0.0
C2398 C 0.35182 0.60305 0.77964 0.0
C2399 C 0.31125 0.55407 0.81219 0.0
H2400 H 0.30921 0.62695 0.83452 0.0
H2401 H 0.27901 0.61486 0.7834 0.0
H2402 H 0.33494 0.58548 0.83539 0.0
H2403 H 0.34925 0.60295 0.82455 0.0
H2404 H 0.33472 0.6094 0.84415 0.0
H2405 H 0.28748 0.59081 0.76245 0.0
H2406 H 0.31261 0.5881 0.76141 0.0
H2407 H 0.29841 0.57118 0.77318 0.0
H2408 H 0.37283 0.5728 0.77231 0.0
H2409 H 0.33881 0.53142 0.79972 0.0
H2410 H 0.35226 0.61267 0.79206 0.0
H2411 H 0.34032 0.60768 0.77044 0.0
H2412 H 0.36535 0.60449 0.77206 0.0
H2413 H 0.31065 0.56254 0.82537 0.0
H2414 H 0.31108 0.53898 0.81565 0.0
H2415 H 0.29837 0.55698 0.80407 0.0
C2416 C 0.88216 0.48511 0.51031 0.0
C2417 C 0.89282 0.47933 0.49479 0.0
C2418 C 0.8657 0.47516 0.51549 0.0
C2419 C 0.85966 0.45906 0.50491 0.0
C2420 C 0.87076 0.45277 0.4897 0.0
C2421 C 0.88714 0.4629 0.48489 0.0
C2422 C 0.85438 0.48231 0.53185 0.0
C2423 C 0.86494 0.43569 0.478 0.0
C2424 C 0.82192 0.42361 0.52021 0.0
C2425 C 0.8065 0.42884 0.50937 0.0
C2426 C 0.83911 0.43393 0.5198 0.0
C2427 C 0.84088 0.44981 0.50832 0.0
C2428 C 0.82492 0.45581 0.49842 0.0
C2429 C 0.80803 0.44531 0.49907 0.0
C2430 C 0.85569 0.42714 0.53074 0.0
C2431 C 0.82599 0.47267 0.48609 0.0
H2432 H 0.88631 0.49779 0.51805 0.0
H2433 H 0.89546 0.458 0.47318 0.0
H2434 H 0.84098 0.48802 0.52672 0.0
H2435 H 0.85075 0.4707 0.54129 0.0
H2436 H 0.86205 0.49354 0.54001 0.0
H2437 H 0.87569 0.43191 0.46742 0.0
H2438 H 0.86244 0.4235 0.48705 0.0
H2439 H 0.85153 0.43835 0.47064 0.0
H2440 H 0.82093 0.41088 0.52812 0.0
H2441 H 0.79615 0.44959 0.49078 0.0
H2442 H 0.863 0.43904 0.5382 0.0
H2443 H 0.86595 0.42075 0.52099 0.0
H2444 H 0.85142 0.41651 0.54107 0.0
H2445 H 0.83224 0.48494 0.49387 0.0
H2446 H 0.81196 0.47652 0.4807 0.0
H2447 H 0.83524 0.46962 0.474 0.0
C2448 C 0.75017 0.9212 0.78321 0.0
C2449 C 0.74829 0.90813 0.79748 0.0
C2450 C 0.73648 0.93476 0.78023 0.0
C2451 C 0.72039 0.93544 0.79181 0.0
C2452 C 0.7184 0.92236 0.80631 0.0
C2453 C 0.7323 0.90885 0.80891 0.0
C2454 C 0.73915 0.94825 0.76449 0.0
C2455 C 0.70155 0.92263 0.81904 0.0
C2456 C 0.69343 0.9813 0.79198 0.0
C2457 C 0.67884 0.97707 0.77917 0.0
C2458 C 0.70669 0.96775 0.79668 0.0
C2459 C 0.70547 0.94952 0.78831 0.0
C2460 C 0.69049 0.94507 0.77574 0.0
C2461 C 0.67739 0.95882 0.77138 0.0
C2462 C 0.72232 0.9731 0.81025 0.0
C2463 C 0.68862 0.9259 0.7664 0.0
H2464 H 0.76226 0.92062 0.77406 0.0
H2465 H 0.73076 0.89897 0.82008 0.0
H2466 H 0.72735 0.9465 0.75436 0.0
H2467 H 0.73897 0.96291 0.77002 0.0
H2468 H 0.75258 0.94612 0.75694 0.0
H2469 H 0.70225 0.91182 0.82991 0.0
H2470 H 0.7005 0.93662 0.82603 0.0
H2471 H 0.68848 0.92016 0.81074 0.0
H2472 H 0.6947 0.99532 0.7981 0.0
H2473 H 0.66621 0.95535 0.76146 0.0
H2474 H 0.73604 0.97269 0.80296 0.0
H2475 H 0.72283 0.96285 0.82164 0.0
H2476 H 0.72061 0.98735 0.81653 0.0
H2477 H 0.701 0.92337 0.75739 0.0
H2478 H 0.6757 0.92433 0.75767 0.0
H2479 H 0.68833 0.91488 0.77706 0.0
C2480 C 0.65856 0.5373 0.99867 0.0
C2481 C 0.64015 0.54407 0.99895 0.0
C2482 C 0.6742 0.54924 1.00292 0.0
C2483 C 0.67147 0.56852 1.00727 0.0
C2484 C 0.65282 0.57499 1.0088 0.0
C2485 C 0.63754 0.56279 1.00461 0.0
C2486 C 0.69368 0.54127 1.00245 0.0
C2487 C 0.64851 0.595 0.01396 0.0
C2488 C 0.71041 0.60115 0.02768 0.0
C2489 C 0.71801 0.6091 0.01157 0.0
C2490 C 0.69561 0.58763 0.02654 0.0
C2491 C 0.68797 0.58208 1.00886 0.0
C2492 C 0.69583 0.5899 0.99255 0.0
C2493 C 0.71103 0.60287 0.99411 0.0
C2494 C 0.68807 0.57935 0.04425 0.0
C2495 C 0.68807 0.5847 0.97342 0.0
H2496 H 0.66083 0.52282 0.99451 0.0
H2497 H 0.6234 0.56811 1.00551 0.0
H2498 H 0.70133 0.54634 0.99004 0.0
H2499 H 0.70183 0.54607 0.01501 0.0
H2500 H 0.69329 0.52569 1.00181 0.0
H2501 H 0.63605 0.59561 0.02324 0.0
H2502 H 0.66038 0.60258 0.02104 0.0
H2503 H 0.64485 0.6023 1.00101 0.0
H2504 H 0.7161 0.60548 0.04123 0.0
H2505 H 0.71762 0.608 0.98157 0.0
H2506 H 0.68772 0.56381 0.043 0.0
H2507 H 0.67342 0.58389 0.04653 0.0
H2508 H 0.69665 0.58371 0.05669 0.0
H2509 H 0.6892 0.56941 0.97066 0.0
H2510 H 0.69556 0.59217 0.96214 0.0
H2511 H 0.6729 0.58802 0.97281 0.0
C2512 C 0.25303 0.60673 0.23188 0.0
C2513 C 0.24925 0.62485 0.22578 0.0
C2514 C 0.23855 0.59315 0.23392 0.0
C2515 C 0.21969 0.59768 0.22981 0.0
C2516 C 0.21592 0.61567 0.22289 0.0
C2517 C 0.23065 0.62901 0.22106 0.0
C2518 C 0.24342 0.57402 0.2408 0.0
C2519 C 0.19621 0.62126 0.21822 0.0
C2520 C 0.1836 0.55727 0.22407 0.0
C2521 C 0.17592 0.55641 0.24205 0.0
C2522 C 0.19752 0.57085 0.21973 0.0
C2523 C 0.20397 0.58393 0.23371 0.0
C2524 C 0.19606 0.58321 0.25183 0.0
C2525 C 0.18247 0.56925 0.25585 0.0
C2526 C 0.20571 0.57086 0.20033 0.0
C2527 C 0.20224 0.59696 0.26712 0.0
H2528 H 0.26738 0.60316 0.23517 0.0
H2529 H 0.22745 0.64296 0.21652 0.0
H2530 H 0.23693 0.57182 0.25465 0.0
H2531 H 0.23763 0.56294 0.23111 0.0
H2532 H 0.25884 0.57224 0.24212 0.0
H2533 H 0.19601 0.63385 0.20941 0.0
H2534 H 0.18834 0.60967 0.21088 0.0
H2535 H 0.18883 0.62459 0.23141 0.0
H2536 H 0.17889 0.54711 0.21345 0.0
H2537 H 0.17727 0.56809 0.26998 0.0
H2538 H 0.22098 0.56805 0.20104 0.0
H2539 H 0.2042 0.58485 0.19415 0.0
H2540 H 0.19884 0.56015 0.19089 0.0
H2541 H 0.2174 0.59531 0.27021 0.0
H2542 H 0.1942 0.59504 0.28022 0.0
H2543 H 0.20041 0.61152 0.26243 0.0
C2544 C 0.88723 0.56261 0.01525 0.0
C2545 C 0.8848 0.548 0.0279 0.0
C2546 C 0.87223 0.57424 0.01051 0.0
C2547 C 0.85427 0.57132 0.01861 0.0
C2548 C 0.85158 0.55625 0.03092 0.0
C2549 C 0.86678 0.54481 0.03535 0.0
C2550 C 0.87579 0.59007 0.9973 0.0
C2551 C 0.83273 0.55253 0.03989 0.0
C2552 C 0.82152 0.61262 0.02517 0.0
C2553 C 0.80797 0.60927 0.01107 0.0
C2554 C 0.83674 0.60062 0.0275 0.0
C2555 C 0.83869 0.58478 0.01539 0.0
C2556 C 0.82535 0.58156 1.00078 0.0
C2557 C 0.81014 0.59379 0.99882 0.0
C2558 C 0.85052 0.60467 0.04328 0.0
C2559 C 0.82692 0.56495 0.98746 0.0
H2560 H 0.90105 0.5654 1.0095 0.0
H2561 H 0.86456 0.53339 0.04484 0.0
H2562 H 0.86506 0.58967 0.98599 0.0
H2563 H 0.87455 0.6037 1.00495 0.0
H2564 H 0.88998 0.5895 0.99091 0.0
H2565 H 0.83261 0.53966 0.0483 0.0
H2566 H 0.82909 0.56461 0.04914 0.0
H2567 H 0.82158 0.55105 0.02903 0.0
H2568 H 0.82005 0.62451 0.03474 0.0
H2569 H 0.79978 0.59103 0.98789 0.0
H2570 H 0.86505 0.60571 0.03777 0.0
H2571 H 0.8501 0.59296 0.05319 0.0
H2572 H 0.84744 0.61789 0.0511 0.0
H2573 H 0.84107 0.5649 0.98099 0.0
H2574 H 0.81613 0.56496 0.97621 0.0
H2575 H 0.82528 0.55176 0.99524 0.0
C2576 C 0.14014 0.96583 0.02656 0.0
C2577 C 0.14307 0.98398 0.03425 0.0
C2578 C 0.15534 0.95432 0.02184 0.0
C2579 C 0.17405 0.96105 0.02482 0.0
C2580 C 0.17712 0.97937 0.03252 0.0
C2581 C 0.16166 0.99056 0.03714 0.0
C2582 C 0.15136 0.93489 0.01374 0.0
C2583 C 0.19679 0.98719 0.03581 0.0
C2584 C 0.21346 0.92554 0.02759 0.0
C2585 C 0.22113 0.92605 0.00954 0.0
C2586 C 0.19823 0.93685 0.03276 0.0
C2587 C 0.19037 0.94904 0.01962 0.0
C2588 C 0.19806 0.94966 1.00143 0.0
C2589 C 0.21326 0.93822 0.99662 0.0
C2590 C 0.19048 0.93571 0.0523 0.0
C2591 C 0.19018 0.96242 0.98696 0.0
H2592 H 0.12589 0.96044 0.02453 0.0
H2593 H 0.16414 1.00461 0.04286 0.0
H2594 H 0.15794 0.93342 0.99977 0.0
H2595 H 0.15769 0.92428 0.02277 0.0
H2596 H 0.13605 0.9317 0.01231 0.0
H2597 H 0.19685 1.00161 0.04205 0.0
H2598 H 0.20458 0.978 0.04527 0.0
H2599 H 0.20456 0.98748 0.02242 0.0
H2600 H 0.21933 0.91625 0.03772 0.0
H2601 H 0.21893 0.93879 0.98262 0.0
H2602 H 0.1754 0.93137 0.05172 0.0
H2603 H 0.19133 0.94973 0.05936 0.0
H2604 H 0.19816 0.92562 0.06091 0.0
H2605 H 0.17512 0.95882 0.98436 0.0
H2606 H 0.19782 0.96141 0.97348 0.0
H2607 H 0.19096 0.97718 0.99219 0.0
loop_
_geom_bond_atom_site_label_1
_geom_bond_atom_site_label_2
_geom_bond_distance
_geom_bond_site_symmetry_2
_ccdc_geom_bond_type
C0 C1 1.264 . S
C0 C5 1.479 . S
C0 C10 1.465 1_655 S
C1 C0 1.264 . S
C1 C3 1.339 . S
C1 H28 0.897 1_645 S
C2 C3 1.395 . S
C2 C4 1.320 . S
C3 C1 1.339 . S
C3 C2 1.395 . S
C3 H29 0.929 1_545 S
C4 C2 1.320 . S
C4 C5 1.405 . S
C4 H30 0.930 . S
C5 C0 1.479 . S
C5 C4 1.405 . S
C5 H31 0.931 . S
U6 O7 2.454 . S
U6 O8 2.458 . S
U6 C9 2.984 . S
U6 C10 2.847 . S
U6 C23 2.882 . S
U6 O24 2.441 . S
U6 O25 2.420 . S
U6 O26 2.455 . S
U6 O27 2.490 . S
O7 U6 2.454 . S
O7 C9 1.353 . S
O8 U6 2.458 . S
O8 C9 1.286 . S
C9 U6 2.984 . S
C9 O7 1.353 . S
C9 O8 1.286 . S
C9 C11 1.363 1_554 S
C10 C0 1.465 1_455 S
C10 U6 2.847 . S
C10 O24 1.249 . S
C10 O25 1.202 . S
C11 C9 1.363 1_556 S
C11 C13 1.408 . S
C11 C16 1.342 . S
C12 C13 1.310 . S
C12 C15 1.461 . S
C12 H32 0.932 . S
C13 C11 1.408 . S
C13 C12 1.310 . S
C13 H33 0.930 1_556 S
C14 C15 1.474 . S
C14 C16 1.285 . S
C14 H34 0.929 . S
C15 C12 1.461 . S
C15 C14 1.474 . S
C16 C11 1.342 . S
C16 C14 1.285 . S
C16 H35 0.930 . S
C17 C20 1.424 . S
C17 C22 1.245 . S
C17 C23 1.428 1_565 S
C18 C21 1.260 . S
C18 C22 1.477 . S
C18 H36 0.943 . S
C19 C20 1.384 . S
C19 C21 1.479 . S
C19 H37 0.929 . S
C20 C17 1.424 . S
C20 C19 1.384 . S
C20 H38 0.928 . S
C21 C18 1.260 . S
C21 C19 1.479 . S
C22 C17 1.245 . S
C22 C18 1.477 . S
C22 H39 0.932 1_565 S
C23 U6 2.882 . S
C23 C17 1.428 1_545 S
C23 O26 1.301 . S
C23 O27 1.291 . S
O24 U6 2.441 . S
O24 C10 1.249 . S
O25 U6 2.420 . S
O25 C10 1.202 . S
O26 U6 2.455 . S
O26 C23 1.301 . S
O27 U6 2.490 . S
O27 C23 1.291 . S
H28 C1 0.897 1_465 S
H29 C3 0.929 1_565 S
H30 C4 0.930 . S
H31 C5 0.931 . S
H32 C12 0.932 . S
H33 C13 0.930 1_554 S
H34 C14 0.929 . S
H35 C16 0.930 . S
H36 C18 0.943 . S
H37 C19 0.929 . S
H38 C20 0.928 . S
H39 C22 0.932 1_545 S
C40 C41 1.264 . S
C40 C45 1.479 . S
C40 C50 1.465 . S
C41 C40 1.264 . S
C41 C43 1.339 . S
C41 H68 0.931 . S
C42 C43 1.395 . S
C42 C44 1.320 . S
C43 C41 1.339 . S
C43 C42 1.395 . S
C43 H69 0.929 . S
C44 C42 1.320 . S
C44 C45 1.405 . S
C44 H70 0.930 . S
C45 C40 1.479 . S
C45 C44 1.405 . S
C45 H71 0.931 . S
U46 O47 2.454 . S
U46 O48 2.458 . S
U46 C49 2.984 . S
U46 C50 2.847 . S
U46 C63 2.882 . S
U46 O64 2.441 . S
U46 O65 2.420 . S
U46 O66 2.455 . S
U46 O67 2.449 . S
O47 U46 2.454 . S
O47 C49 1.353 . S
O48 U46 2.458 . S
O48 C49 1.286 . S
C49 U46 2.984 . S
C49 O47 1.353 . S
C49 O48 1.286 . S
C49 C51 1.363 . S
C50 C40 1.465 . S
C50 U46 2.847 . S
C50 O64 1.249 . S
C50 O65 1.202 . S
C51 C49 1.363 . S
C51 C53 1.408 . S
C51 C56 1.342 . S
C52 C53 1.310 . S
C52 C55 1.461 . S
C52 H72 0.932 . S
C53 C51 1.408 . S
C53 C52 1.310 . S
C53 H73 0.930 . S
C54 C55 1.474 . S
C54 C56 1.285 . S
C54 H74 0.929 . S
C55 C52 1.461 . S
C55 C54 1.474 . S
C56 C51 1.342 . S
C56 C54 1.285 . S
C56 H75 0.930 . S
C57 C60 1.424 . S
C57 C62 1.245 . S
C57 C63 1.428 . S
C58 C61 1.260 . S
C58 C62 1.477 . S
C58 H76 0.932 . S
C59 C60 1.384 . S
C59 C61 1.479 . S
C59 H77 0.929 . S
C60 C57 1.424 . S
C60 C59 1.384 . S
C60 H78 0.928 . S
C61 C58 1.260 . S
C61 C59 1.479 . S
C62 C57 1.245 . S
C62 C58 1.477 . S
C62 H79 0.932 . S
C63 U46 2.882 . S
C63 C57 1.428 . S
C63 O66 1.301 . S
C63 O67 1.282 . S
O64 U46 2.441 . S
O64 C50 1.249 . S
O65 U46 2.420 . S
O65 C50 1.202 . S
O66 U46 2.455 . S
O66 C63 1.301 . S
O67 U46 2.449 . S
O67 C63 1.282 . S
H68 C41 0.931 . S
H69 C43 0.929 . S
H70 C44 0.930 . S
H71 C45 0.931 . S
H72 C52 0.932 . S
H73 C53 0.930 . S
H74 C54 0.929 . S
H75 C56 0.930 . S
H76 C58 0.932 . S
H77 C59 0.929 . S
H78 C60 0.928 . S
H79 C62 0.932 . S
C80 C81 1.264 . S
C80 C85 1.479 . S
C80 C90 1.465 1_556 S
C81 C80 1.264 . S
C81 C83 1.339 1_655 S
C81 H108 0.931 1_656 S
C82 C83 1.399 1_655 S
C82 C84 1.320 . S
C83 C81 1.339 1_455 S
C83 C82 1.399 1_455 S
C83 H109 0.923 . S
C84 C82 1.320 . S
C84 C85 1.405 . S
C84 H110 0.930 . S
C85 C80 1.479 . S
C85 C84 1.405 . S
C85 H111 0.931 . S
U86 O87 2.454 . S
U86 O88 2.458 . S
U86 C89 2.984 . S
U86 C90 2.847 . S
U86 C103 2.882 1_655 S
U86 O104 2.441 . S
U86 O105 2.420 . S
U86 O106 2.455 . S
U86 O107 2.449 1_655 S
O87 U86 2.454 . S
O87 C89 1.353 . S
O88 U86 2.458 . S
O88 C89 1.286 . S
C89 U86 2.984 . S
C89 O87 1.353 . S
C89 O88 1.286 . S
C89 C91 1.363 . S
C90 C80 1.465 1_554 S
C90 U86 2.847 . S
C90 O104 1.249 . S
C90 O105 1.202 . S
C91 C89 1.363 . S
C91 C93 1.408 . S
C91 C96 1.342 . S
C92 C93 1.310 . S
C92 C95 1.461 . S
C92 H112 0.932 1_554 S
C93 C91 1.408 . S
C93 C92 1.310 . S
C93 H113 0.936 . S
C94 C95 1.474 . S
C94 C96 1.285 . S
C94 H114 0.929 . S
C95 C92 1.461 . S
C95 C94 1.474 . S
C96 C91 1.342 . S
C96 C94 1.285 . S
C96 H115 0.930 . S
C97 C100 1.424 . S
C97 C102 1.245 . S
C97 C103 1.428 . S
C98 C101 1.260 . S
C98 C102 1.477 . S
C98 H116 0.932 . S
C99 C100 1.384 . S
C99 C101 1.479 . S
C99 H117 0.929 . S
C100 C97 1.424 . S
C100 C99 1.384 . S
C100 H118 0.928 . S
C101 C98 1.260 . S
C101 C99 1.479 . S
C102 C97 1.245 . S
C102 C98 1.477 . S
C102 H119 0.932 1_455 S
C103 U86 2.882 1_455 S
C103 C97 1.428 . S
C103 O106 1.301 1_455 S
C103 O107 1.282 . S
O104 U86 2.441 . S
O104 C90 1.249 . S
O105 U86 2.420 . S
O105 C90 1.202 . S
O106 U86 2.455 . S
O106 C103 1.301 1_655 S
O107 U86 2.449 1_455 S
O107 C103 1.282 . S
H108 C81 0.931 1_454 S
H109 C83 0.923 . S
H110 C84 0.930 . S
H111 C85 0.931 . S
H112 C92 0.932 1_556 S
H113 C93 0.936 . S
H114 C94 0.929 . S
H115 C96 0.930 . S
H116 C98 0.932 . S
H117 C99 0.929 . S
H118 C100 0.928 . S
H119 C102 0.932 1_655 S
C120 C121 1.264 . S
C120 C125 1.479 . S
C120 C130 1.465 . S
C121 C120 1.264 . S
C121 C123 1.339 . S
C121 H148 0.931 . S
C122 C123 1.395 . S
C122 C124 1.320 . S
C123 C121 1.339 . S
C123 C122 1.395 . S
C123 H149 0.929 . S
C124 C122 1.320 . S
C124 C125 1.405 . S
C124 H150 0.930 . S
C125 C120 1.479 . S
C125 C124 1.405 . S
C125 H151 0.931 . S
U126 O127 2.454 . S
U126 O128 2.458 . S
U126 C129 2.984 . S
U126 C130 2.847 . S
U126 C143 2.882 . S
U126 O144 2.441 . S
U126 O145 2.420 . S
U126 O146 2.455 . S
U126 O147 2.449 . S
O127 U126 2.454 . S
O127 C129 1.353 . S
O128 U126 2.458 . S
O128 C129 1.286 . S
C129 U126 2.984 . S
C129 O127 1.353 . S
C129 O128 1.286 . S
C129 C131 1.363 . S
C130 C120 1.465 . S
C130 U126 2.847 . S
C130 O144 1.249 . S
C130 O145 1.202 . S
C131 C129 1.363 . S
C131 C133 1.408 . S
C131 C136 1.342 . S
C132 C133 1.310 . S
C132 C135 1.461 . S
C132 H152 0.932 . S
C133 C131 1.408 . S
C133 C132 1.310 . S
C133 H153 0.930 . S
C134 C135 1.474 . S
C134 C136 1.285 . S
C134 H154 0.929 . S
C135 C132 1.461 . S
C135 C134 1.474 . S
C136 C131 1.342 . S
C136 C134 1.285 . S
C136 H155 0.930 . S
C137 C140 1.424 . S
C137 C142 1.245 . S
C137 C143 1.428 . S
C138 C141 1.260 . S
C138 C142 1.477 . S
C138 H156 0.932 . S
C139 C140 1.384 . S
C139 C141 1.479 . S
C139 H157 0.929 . S
C140 C137 1.424 . S
C140 C139 1.384 . S
C140 H158 0.928 . S
C141 C138 1.260 . S
C141 C139 1.479 . S
C142 C137 1.245 . S
C142 C138 1.477 . S
C142 H159 0.932 . S
C143 U126 2.882 . S
C143 C137 1.428 . S
C143 O146 1.301 . S
C143 O147 1.282 . S
O144 U126 2.441 . S
O144 C130 1.249 . S
O145 U126 2.420 . S
O145 C130 1.202 . S
O146 U126 2.455 . S
O146 C143 1.301 . S
O147 U126 2.449 . S
O147 C143 1.282 . S
H148 C121 0.931 . S
H149 C123 0.929 . S
H150 C124 0.930 . S
H151 C125 0.931 . S
H152 C132 0.932 . S
H153 C133 0.930 . S
H154 C134 0.929 . S
H155 C136 0.930 . S
H156 C138 0.932 . S
H157 C139 0.929 . S
H158 C140 0.928 . S
H159 C142 0.932 . S
C160 C161 1.264 1_655 S
C160 C165 1.479 . S
C160 C170 1.465 1_655 S
C161 C160 1.264 1_455 S
C161 C163 1.336 1_465 S
C161 H188 0.931 1_565 S
C162 C163 1.378 1_565 S
C162 C164 1.320 . S
C163 C161 1.336 1_645 S
C163 C162 1.378 1_545 S
C163 H189 0.949 . S
C164 C162 1.320 . S
C164 C165 1.405 . S
C164 H190 0.930 . S
C165 C160 1.479 . S
C165 C164 1.405 . S
C165 H191 0.931 . S
U166 O167 2.454 . S
U166 O168 2.458 . S
U166 C169 2.984 . S
U166 C170 2.847 . S
U166 C183 2.882 1_565 S
U166 O184 2.441 . S
U166 O185 2.420 . S
U166 O186 2.455 . S
U166 O187 2.449 1_565 S
O167 U166 2.454 . S
O167 C169 1.353 . S
O168 U166 2.458 . S
O168 C169 1.286 . S
C169 U166 2.984 . S
C169 O167 1.353 . S
C169 O168 1.286 . S
C169 C171 1.363 . S
C170 C160 1.465 1_455 S
C170 U166 2.847 . S
C170 O184 1.249 . S
C170 O185 1.202 . S
C171 C169 1.363 . S
C171 C173 1.408 . S
C171 C176 1.342 . S
C172 C173 1.310 . S
C172 C175 1.461 . S
C172 H192 0.932 . S
C173 C171 1.408 . S
C173 C172 1.310 . S
C173 H193 0.930 . S
C174 C175 1.474 . S
C174 C176 1.285 . S
C174 H194 0.929 . S
C175 C172 1.461 . S
C175 C174 1.474 . S
C176 C171 1.342 . S
C176 C174 1.285 . S
C176 H195 0.930 . S
C177 C180 1.424 . S
C177 C182 1.245 . S
C177 C183 1.428 . S
C178 C181 1.260 . S
C178 C182 1.477 . S
C178 H196 0.932 . S
C179 C180 1.384 . S
C179 C181 1.479 . S
C179 H197 0.929 . S
C180 C177 1.424 . S
C180 C179 1.384 . S
C180 H198 0.928 . S
C181 C178 1.260 . S
C181 C179 1.479 . S
C182 C177 1.245 . S
C182 C178 1.477 . S
C182 H199 0.970 . S
C183 U166 2.882 1_545 S
C183 C177 1.428 . S
C183 O186 1.301 1_545 S
C183 O187 1.282 . S
O184 U166 2.441 . S
O184 C170 1.249 . S
O185 U166 2.420 . S
O185 C170 1.202 . S
O186 U166 2.455 . S
O186 C183 1.301 1_565 S
O187 U166 2.449 1_545 S
O187 C183 1.282 . S
H188 C161 0.931 1_545 S
H189 C163 0.949 . S
H190 C164 0.930 . S
H191 C165 0.931 . S
H192 C172 0.932 . S
H193 C173 0.930 . S
H194 C174 0.929 . S
H195 C176 0.930 . S
H196 C178 0.932 . S
H197 C179 0.929 . S
H198 C180 0.928 . S
H199 C182 0.970 . S
C200 C201 1.264 . S
C200 C205 1.479 . S
C200 C210 1.465 . S
C201 C200 1.264 . S
C201 C203 1.339 . S
C201 H228 0.931 . S
C202 C203 1.395 . S
C202 C204 1.320 . S
C203 C201 1.339 . S
C203 C202 1.395 . S
C203 H229 0.929 . S
C204 C202 1.320 . S
C204 C205 1.405 . S
C204 H230 0.930 . S
C205 C200 1.479 . S
C205 C204 1.405 . S
C205 H231 0.931 . S
U206 O207 2.454 . S
U206 O208 2.458 . S
U206 C209 2.984 . S
U206 C210 2.847 . S
U206 C223 2.882 . S
U206 O224 2.441 . S
U206 O225 2.420 . S
U206 O226 2.455 . S
U206 O227 2.449 . S
O207 U206 2.454 . S
O207 C209 1.353 . S
O208 U206 2.458 . S
O208 C209 1.286 . S
C209 U206 2.984 . S
C209 O207 1.353 . S
C209 O208 1.286 . S
C209 C211 1.363 . S
C210 C200 1.465 . S
C210 U206 2.847 . S
C210 O224 1.249 . S
C210 O225 1.202 . S
C211 C209 1.363 . S
C211 C213 1.408 . S
C211 C216 1.342 . S
C212 C213 1.310 . S
C212 C215 1.461 . S
C212 H232 0.932 . S
C213 C211 1.408 . S
C213 C212 1.310 . S
C213 H233 0.930 . S
C214 C215 1.474 . S
C214 C216 1.285 . S
C214 H234 0.929 . S
C215 C212 1.461 . S
C215 C214 1.474 . S
C216 C211 1.342 . S
C216 C214 1.285 . S
C216 H235 0.930 . S
C217 C220 1.424 . S
C217 C222 1.245 . S
C217 C223 1.428 . S
C218 C221 1.260 . S
C218 C222 1.477 . S
C218 H236 0.932 . S
C219 C220 1.384 . S
C219 C221 1.479 . S
C219 H237 0.929 . S
C220 C217 1.424 . S
C220 C219 1.384 . S
C220 H238 0.928 . S
C221 C218 1.260 . S
C221 C219 1.479 . S
C222 C217 1.245 . S
C222 C218 1.477 . S
C222 H239 0.932 . S
C223 U206 2.882 . S
C223 C217 1.428 . S
C223 O226 1.301 . S
C223 O227 1.282 . S
O224 U206 2.441 . S
O224 C210 1.249 . S
O225 U206 2.420 . S
O225 C210 1.202 . S
O226 U206 2.455 . S
O226 C223 1.301 . S
O227 U206 2.449 . S
O227 C223 1.282 . S
H228 C201 0.931 . S
H229 C203 0.929 . S
H230 C204 0.930 . S
H231 C205 0.931 . S
H232 C212 0.932 . S
H233 C213 0.930 . S
H234 C214 0.929 . S
H235 C216 0.930 . S
H236 C218 0.932 . S
H237 C219 0.929 . S
H238 C220 0.928 . S
H239 C222 0.932 . S
C240 C241 1.264 1_655 S
C240 C245 1.479 . S
C240 C250 1.465 . S
C241 C240 1.264 1_455 S
C241 C243 1.339 . S
C241 H268 0.931 . S
C242 C243 1.395 1_655 S
C242 C244 1.320 . S
C243 C241 1.339 . S
C243 C242 1.395 1_455 S
C243 H269 0.929 . S
C244 C242 1.320 . S
C244 C245 1.405 . S
C244 H270 0.930 . S
C245 C240 1.479 . S
C245 C244 1.405 . S
C245 H271 0.931 . S
U246 O247 2.454 . S
U246 O248 2.458 . S
U246 C249 2.984 . S
U246 C250 2.847 . S
U246 C263 2.882 1_655 S
U246 O264 2.441 . S
U246 O265 2.420 . S
U246 O266 2.455 . S
U246 O267 2.449 1_655 S
O247 U246 2.454 . S
O247 C249 1.353 . S
O248 U246 2.458 . S
O248 C249 1.286 . S
C249 U246 2.984 . S
C249 O247 1.353 . S
C249 O248 1.286 . S
C249 C251 1.363 . S
C250 C240 1.465 . S
C250 U246 2.847 . S
C250 O264 1.249 . S
C250 O265 1.202 . S
C251 C249 1.363 . S
C251 C253 1.408 . S
C251 C256 1.342 . S
C252 C253 1.310 . S
C252 C255 1.461 . S
C252 H272 0.932 . S
C253 C251 1.408 . S
C253 C252 1.310 . S
C253 H273 0.930 . S
C254 C255 1.474 . S
C254 C256 1.285 . S
C254 H274 0.929 . S
C255 C252 1.461 . S
C255 C254 1.474 . S
C256 C251 1.342 . S
C256 C254 1.285 . S
C256 H275 0.930 . S
C257 C260 1.424 . S
C257 C262 1.245 . S
C257 C263 1.428 . S
C258 C261 1.260 . S
C258 C262 1.477 . S
C258 H276 0.932 . S
C259 C260 1.384 . S
C259 C261 1.479 . S
C259 H277 0.929 . S
C260 C257 1.424 . S
C260 C259 1.384 . S
C260 H278 0.928 . S
C261 C258 1.260 . S
C261 C259 1.479 . S
C262 C257 1.245 . S
C262 C258 1.477 . S
C262 H279 0.932 . S
C263 U246 2.882 1_455 S
C263 C257 1.428 . S
C263 O266 1.301 1_455 S
C263 O267 1.282 . S
O264 U246 2.441 . S
O264 C250 1.249 . S
O265 U246 2.420 . S
O265 C250 1.202 . S
O266 U246 2.455 . S
O266 C263 1.301 1_655 S
O267 U246 2.449 1_455 S
O267 C263 1.282 . S
H268 C241 0.931 . S
H269 C243 0.929 . S
H270 C244 0.930 . S
H271 C245 0.931 . S
H272 C252 0.932 . S
H273 C253 0.930 . S
H274 C254 0.929 . S
H275 C256 0.930 . S
H276 C258 0.932 . S
H277 C259 0.929 . S
H278 C260 0.928 . S
H279 C262 0.932 . S
C280 C281 1.264 . S
C280 C285 1.479 . S
C280 C290 1.465 . S
C281 C280 1.264 . S
C281 C283 1.339 . S
C281 H308 0.931 . S
C282 C283 1.395 . S
C282 C284 1.320 . S
C283 C281 1.339 . S
C283 C282 1.395 . S
C283 H309 0.929 . S
C284 C282 1.320 . S
C284 C285 1.405 . S
C284 H310 0.930 . S
C285 C280 1.479 . S
C285 C284 1.405 . S
C285 H311 0.931 . S
U286 O287 2.454 . S
U286 O288 2.458 . S
U286 C289 2.984 . S
U286 C290 2.847 . S
U286 C303 2.882 . S
U286 O304 2.441 . S
U286 O305 2.420 . S
U286 O306 2.455 . S
U286 O307 2.449 . S
O287 U286 2.454 . S
O287 C289 1.353 . S
O288 U286 2.458 . S
O288 C289 1.286 . S
C289 U286 2.984 . S
C289 O287 1.353 . S
C289 O288 1.286 . S
C289 C291 1.363 . S
C290 C280 1.465 . S
C290 U286 2.847 . S
C290 O304 1.249 . S
C290 O305 1.202 . S
C291 C289 1.363 . S
C291 C293 1.408 . S
C291 C296 1.342 . S
C292 C293 1.310 . S
C292 C295 1.461 . S
C292 H312 0.932 . S
C293 C291 1.408 . S
C293 C292 1.310 . S
C293 H313 0.930 . S
C294 C295 1.474 . S
C294 C296 1.285 . S
C294 H314 0.929 . S
C295 C292 1.461 . S
C295 C294 1.474 . S
C296 C291 1.342 . S
C296 C294 1.285 . S
C296 H315 0.930 . S
C297 C300 1.424 . S
C297 C302 1.245 . S
C297 C303 1.428 . S
C298 C301 1.260 . S
C298 C302 1.477 . S
C298 H316 0.932 . S
C299 C300 1.384 . S
C299 C301 1.479 . S
C299 H317 0.929 . S
C300 C297 1.424 . S
C300 C299 1.384 . S
C300 H318 0.928 . S
C301 C298 1.260 . S
C301 C299 1.479 . S
C302 C297 1.245 . S
C302 C298 1.477 . S
C302 H319 0.932 . S
C303 U286 2.882 . S
C303 C297 1.428 . S
C303 O306 1.301 . S
C303 O307 1.282 . S
O304 U286 2.441 . S
O304 C290 1.249 . S
O305 U286 2.420 . S
O305 C290 1.202 . S
O306 U286 2.455 . S
O306 C303 1.301 . S
O307 U286 2.449 . S
O307 C303 1.282 . S
H308 C281 0.931 . S
H309 C283 0.929 . S
H310 C284 0.930 . S
H311 C285 0.931 . S
H312 C292 0.932 . S
H313 C293 0.930 . S
H314 C294 0.929 . S
H315 C296 0.930 . S
H316 C298 0.932 . S
H317 C299 0.929 . S
H318 C300 0.928 . S
H319 C302 0.932 . S
C320 C321 1.264 . S
C320 C325 1.479 . S
C320 C330 1.465 . S
C321 C320 1.264 . S
C321 C323 1.339 . S
C321 H348 0.931 . S
C322 C323 1.395 . S
C322 C324 1.320 . S
C323 C321 1.339 . S
C323 C322 1.395 . S
C323 H349 0.929 . S
C324 C322 1.320 . S
C324 C325 1.405 . S
C324 H350 0.930 . S
C325 C320 1.479 . S
C325 C324 1.405 . S
C325 H351 0.931 . S
U326 O327 2.454 . S
U326 O328 2.458 . S
U326 C329 2.984 . S
U326 C330 2.847 . S
U326 C343 2.882 . S
U326 O344 2.441 . S
U326 O345 2.420 . S
U326 O346 2.455 . S
U326 O347 2.449 . S
O327 U326 2.454 . S
O327 C329 1.353 . S
O328 U326 2.458 . S
O328 C329 1.286 . S
C329 U326 2.984 . S
C329 O327 1.353 . S
C329 O328 1.286 . S
C329 C331 1.363 . S
C330 C320 1.465 . S
C330 U326 2.847 . S
C330 O344 1.249 . S
C330 O345 1.202 . S
C331 C329 1.363 . S
C331 C333 1.408 . S
C331 C336 1.342 . S
C332 C333 1.310 . S
C332 C335 1.461 . S
C332 H352 0.932 . S
C333 C331 1.408 . S
C333 C332 1.310 . S
C333 H353 0.930 . S
C334 C335 1.474 . S
C334 C336 1.285 . S
C334 H354 0.929 . S
C335 C332 1.461 . S
C335 C334 1.474 . S
C336 C331 1.342 . S
C336 C334 1.285 . S
C336 H355 0.930 . S
C337 C340 1.424 . S
C337 C342 1.245 . S
C337 C343 1.428 . S
C338 C341 1.260 . S
C338 C342 1.477 . S
C338 H356 0.932 . S
C339 C340 1.384 . S
C339 C341 1.479 . S
C339 H357 0.929 . S
C340 C337 1.424 . S
C340 C339 1.384 . S
C340 H358 0.928 . S
C341 C338 1.260 . S
C341 C339 1.479 . S
C342 C337 1.245 . S
C342 C338 1.477 . S
C342 H359 0.932 . S
C343 U326 2.882 . S
C343 C337 1.428 . S
C343 O346 1.301 . S
C343 O347 1.282 . S
O344 U326 2.441 . S
O344 C330 1.249 . S
O345 U326 2.420 . S
O345 C330 1.202 . S
O346 U326 2.455 . S
O346 C343 1.301 . S
O347 U326 2.449 . S
O347 C343 1.282 . S
H348 C321 0.931 . S
H349 C323 0.929 . S
H350 C324 0.930 . S
H351 C325 0.931 . S
H352 C332 0.932 . S
H353 C333 0.930 . S
H354 C334 0.929 . S
H355 C336 0.930 . S
H356 C338 0.932 . S
H357 C339 0.929 . S
H358 C340 0.928 . S
H359 C342 0.932 . S
C360 C361 1.264 . S
C360 C365 1.479 . S
C360 C370 1.465 . S
C361 C360 1.264 . S
C361 C363 1.339 . S
C361 H388 0.931 . S
C362 C363 1.395 . S
C362 C364 1.320 . S
C363 C361 1.339 . S
C363 C362 1.395 . S
C363 H389 0.929 . S
C364 C362 1.320 . S
C364 C365 1.405 . S
C364 H390 0.930 . S
C365 C360 1.479 . S
C365 C364 1.405 . S
C365 H391 0.931 . S
U366 O367 2.454 . S
U366 O368 2.500 . S
U366 C369 2.984 . S
U366 C370 2.847 . S
U366 C383 2.882 . S
U366 O384 2.441 . S
U366 O385 2.420 . S
U366 O386 2.455 . S
U366 O387 2.449 . S
O367 U366 2.454 . S
O367 C369 1.353 . S
O368 U366 2.500 . S
O368 C369 1.288 . S
C369 U366 2.984 . S
C369 O367 1.353 . S
C369 O368 1.288 . S
C369 C371 1.363 1_565 S
C370 C360 1.465 . S
C370 U366 2.847 . S
C370 O384 1.249 . S
C370 O385 1.202 . S
C371 C369 1.363 1_545 S
C371 C373 1.408 . S
C371 C376 1.342 . S
C372 C373 1.310 . S
C372 C375 1.461 . S
C372 H392 0.932 . S
C373 C371 1.408 . S
C373 C372 1.310 . S
C373 H393 0.930 1_545 S
C374 C375 1.474 . S
C374 C376 1.285 . S
C374 H394 0.929 . S
C375 C372 1.461 . S
C375 C374 1.474 . S
C376 C371 1.342 . S
C376 C374 1.285 . S
C376 H395 0.930 . S
C377 C380 1.424 . S
C377 C382 1.245 . S
C377 C383 1.428 . S
C378 C381 1.260 . S
C378 C382 1.477 . S
C378 H396 0.932 1_565 S
C379 C380 1.384 . S
C379 C381 1.479 . S
C379 H397 0.929 . S
C380 C377 1.424 . S
C380 C379 1.384 . S
C380 H398 0.928 . S
C381 C378 1.260 . S
C381 C379 1.479 . S
C382 C377 1.245 . S
C382 C378 1.477 . S
C382 H399 0.932 1_565 S
C383 U366 2.882 . S
C383 C377 1.428 . S
C383 O386 1.301 . S
C383 O387 1.282 . S
O384 U366 2.441 . S
O384 C370 1.249 . S
O385 U366 2.420 . S
O385 C370 1.202 . S
O386 U366 2.455 . S
O386 C383 1.301 . S
O387 U366 2.449 . S
O387 C383 1.282 . S
H388 C361 0.931 . S
H389 C363 0.929 . S
H390 C364 0.930 . S
H391 C365 0.931 . S
H392 C372 0.932 . S
H393 C373 0.930 1_565 S
H394 C374 0.929 . S
H395 C376 0.930 . S
H396 C378 0.932 1_545 S
H397 C379 0.929 . S
H398 C380 0.928 . S
H399 C382 0.932 1_545 S
C400 C401 1.264 . S
C400 C405 1.479 . S
C400 C410 1.465 . S
C401 C400 1.264 . S
C401 C403 1.339 . S
C401 H428 0.931 . S
C402 C403 1.395 . S
C402 C404 1.320 . S
C403 C401 1.339 . S
C403 C402 1.395 . S
C403 H429 0.929 . S
C404 C402 1.320 . S
C404 C405 1.405 . S
C404 H430 0.930 . S
C405 C400 1.479 . S
C405 C404 1.405 . S
C405 H431 0.931 . S
U406 O407 2.454 . S
U406 O408 2.458 . S
U406 C409 2.984 . S
U406 C410 2.847 . S
U406 C423 2.882 . S
U406 O424 2.441 . S
U406 O425 2.420 . S
U406 O426 2.455 . S
U406 O427 2.449 . S
O407 U406 2.454 . S
O407 C409 1.353 . S
O408 U406 2.458 . S
O408 C409 1.286 . S
C409 U406 2.984 . S
C409 O407 1.353 . S
C409 O408 1.286 . S
C409 C411 1.363 . S
C410 C400 1.465 . S
C410 U406 2.847 . S
C410 O424 1.249 . S
C410 O425 1.202 . S
C411 C409 1.363 . S
C411 C413 1.408 . S
C411 C416 1.342 . S
C412 C413 1.310 . S
C412 C415 1.461 . S
C412 H432 0.932 . S
C413 C411 1.408 . S
C413 C412 1.310 . S
C413 H433 0.930 . S
C414 C415 1.474 . S
C414 C416 1.285 . S
C414 H434 0.929 . S
C415 C412 1.461 . S
C415 C414 1.474 . S
C416 C411 1.342 . S
C416 C414 1.285 . S
C416 H435 0.930 . S
C417 C420 1.424 . S
C417 C422 1.245 . S
C417 C423 1.428 . S
C418 C421 1.260 . S
C418 C422 1.477 . S
C418 H436 0.932 . S
C419 C420 1.384 . S
C419 C421 1.479 . S
C419 H437 0.929 . S
C420 C417 1.424 . S
C420 C419 1.384 . S
C420 H438 0.928 . S
C421 C418 1.260 . S
C421 C419 1.479 . S
C422 C417 1.245 . S
C422 C418 1.477 . S
C422 H439 0.932 . S
C423 U406 2.882 . S
C423 C417 1.428 . S
C423 O426 1.301 . S
C423 O427 1.282 . S
O424 U406 2.441 . S
O424 C410 1.249 . S
O425 U406 2.420 . S
O425 C410 1.202 . S
O426 U406 2.455 . S
O426 C423 1.301 . S
O427 U406 2.449 . S
O427 C423 1.282 . S
H428 C401 0.931 . S
H429 C403 0.929 . S
H430 C404 0.930 . S
H431 C405 0.931 . S
H432 C412 0.932 . S
H433 C413 0.930 . S
H434 C414 0.929 . S
H435 C416 0.930 . S
H436 C418 0.932 . S
H437 C419 0.929 . S
H438 C420 0.928 . S
H439 C422 0.932 . S
C440 C441 1.264 . S
C440 C445 1.479 . S
C440 C450 1.465 . S
C441 C440 1.264 . S
C441 C443 1.339 . S
C441 H468 0.931 . S
C442 C443 1.395 . S
C442 C444 1.320 . S
C443 C441 1.339 . S
C443 C442 1.395 . S
C443 H469 0.929 . S
C444 C442 1.320 . S
C444 C445 1.405 . S
C444 H470 0.930 . S
C445 C440 1.479 . S
C445 C444 1.405 . S
C445 H471 0.931 . S
U446 O447 2.454 . S
U446 O448 2.458 . S
U446 C449 2.984 . S
U446 C450 2.847 . S
U446 C463 2.882 . S
U446 O464 2.441 . S
U446 O465 2.420 . S
U446 O466 2.455 . S
U446 O467 2.449 . S
O447 U446 2.454 . S
O447 C449 1.353 . S
O448 U446 2.458 . S
O448 C449 1.286 . S
C449 U446 2.984 . S
C449 O447 1.353 . S
C449 O448 1.286 . S
C449 C451 1.363 . S
C450 C440 1.465 . S
C450 U446 2.847 . S
C450 O464 1.249 . S
C450 O465 1.202 . S
C451 C449 1.363 . S
C451 C453 1.408 . S
C451 C456 1.342 . S
C452 C453 1.310 . S
C452 C455 1.461 . S
C452 H472 0.932 . S
C453 C451 1.408 . S
C453 C452 1.310 . S
C453 H473 0.930 . S
C454 C455 1.474 . S
C454 C456 1.285 . S
C454 H474 0.929 . S
C455 C452 1.461 . S
C455 C454 1.474 . S
C456 C451 1.342 . S
C456 C454 1.285 . S
C456 H475 0.930 . S
C457 C460 1.424 . S
C457 C462 1.245 . S
C457 C463 1.428 . S
C458 C461 1.260 . S
C458 C462 1.477 . S
C458 H476 0.932 . S
C459 C460 1.384 . S
C459 C461 1.479 . S
C459 H477 0.929 . S
C460 C457 1.424 . S
C460 C459 1.384 . S
C460 H478 0.928 . S
C461 C458 1.260 . S
C461 C459 1.479 . S
C462 C457 1.245 . S
C462 C458 1.477 . S
C462 H479 0.932 . S
C463 U446 2.882 . S
C463 C457 1.428 . S
C463 O466 1.301 . S
C463 O467 1.282 . S
O464 U446 2.441 . S
O464 C450 1.249 . S
O465 U446 2.420 . S
O465 C450 1.202 . S
O466 U446 2.455 . S
O466 C463 1.301 . S
O467 U446 2.449 . S
O467 C463 1.282 . S
H468 C441 0.931 . S
H469 C443 0.929 . S
H470 C444 0.930 . S
H471 C445 0.931 . S
H472 C452 0.932 . S
H473 C453 0.930 . S
H474 C454 0.929 . S
H475 C456 0.930 . S
H476 C458 0.932 . S
H477 C459 0.929 . S
H478 C460 0.928 . S
H479 C462 0.932 . S
C480 C481 1.264 . S
C480 C485 1.479 . S
C480 C490 1.465 . S
C481 C480 1.264 . S
C481 C483 1.339 . S
C481 H508 0.931 . S
C482 C483 1.395 . S
C482 C484 1.320 . S
C483 C481 1.339 . S
C483 C482 1.395 . S
C483 H509 0.929 . S
C484 C482 1.320 . S
C484 C485 1.405 . S
C484 H510 0.930 . S
C485 C480 1.479 . S
C485 C484 1.405 . S
C485 H511 0.931 . S
U486 O487 2.454 . S
U486 O488 2.458 . S
U486 C489 2.984 . S
U486 C490 2.847 . S
U486 C503 2.882 . S
U486 O504 2.441 . S
U486 O505 2.420 . S
U486 O506 2.455 . S
U486 O507 2.449 . S
O487 U486 2.454 . S
O487 C489 1.353 . S
O488 U486 2.458 . S
O488 C489 1.286 . S
C489 U486 2.984 . S
C489 O487 1.353 . S
C489 O488 1.286 . S
C489 C491 1.363 . S
C490 C480 1.465 . S
C490 U486 2.847 . S
C490 O504 1.249 . S
C490 O505 1.202 . S
C491 C489 1.363 . S
C491 C493 1.408 . S
C491 C496 1.342 . S
C492 C493 1.310 . S
C492 C495 1.461 . S
C492 H512 0.932 . S
C493 C491 1.408 . S
C493 C492 1.310 . S
C493 H513 0.930 . S
C494 C495 1.474 . S
C494 C496 1.285 . S
C494 H514 0.929 . S
C495 C492 1.461 . S
C495 C494 1.474 . S
C496 C491 1.342 . S
C496 C494 1.285 . S
C496 H515 0.930 . S
C497 C500 1.424 . S
C497 C502 1.245 . S
C497 C503 1.428 . S
C498 C501 1.260 . S
C498 C502 1.477 . S
C498 H516 0.932 . S
C499 C500 1.384 . S
C499 C501 1.479 . S
C499 H517 0.929 . S
C500 C497 1.424 . S
C500 C499 1.384 . S
C500 H518 0.928 . S
C501 C498 1.260 . S
C501 C499 1.479 . S
C502 C497 1.245 . S
C502 C498 1.477 . S
C502 H519 0.932 . S
C503 U486 2.882 . S
C503 C497 1.428 . S
C503 O506 1.301 . S
C503 O507 1.282 . S
O504 U486 2.441 . S
O504 C490 1.249 . S
O505 U486 2.420 . S
O505 C490 1.202 . S
O506 U486 2.455 . S
O506 C503 1.301 . S
O507 U486 2.449 . S
O507 C503 1.282 . S
H508 C481 0.931 . S
H509 C483 0.929 . S
H510 C484 0.930 . S
H511 C485 0.931 . S
H512 C492 0.932 . S
H513 C493 0.930 . S
H514 C494 0.929 . S
H515 C496 0.930 . S
H516 C498 0.932 . S
H517 C499 0.929 . S
H518 C500 0.928 . S
H519 C502 0.932 . S
C520 C521 1.264 . S
C520 C525 1.479 . S
C520 C530 1.465 . S
C521 C520 1.264 . S
C521 C523 1.339 . S
C521 H548 0.931 . S
C522 C523 1.395 . S
C522 C524 1.320 . S
C523 C521 1.339 . S
C523 C522 1.395 . S
C523 H549 0.929 . S
C524 C522 1.320 . S
C524 C525 1.405 . S
C524 H550 0.930 . S
C525 C520 1.479 . S
C525 C524 1.405 . S
C525 H551 0.931 . S
U526 O527 2.454 . S
U526 O528 2.458 . S
U526 C529 2.984 . S
U526 C530 2.847 . S
U526 C543 2.882 . S
U526 O544 2.441 . S
U526 O545 2.420 . S
U526 O546 2.455 . S
U526 O547 2.449 . S
O527 U526 2.454 . S
O527 C529 1.353 . S
O528 U526 2.458 . S
O528 C529 1.286 . S
C529 U526 2.984 . S
C529 O527 1.353 . S
C529 O528 1.286 . S
C529 C531 1.363 1_556 S
C530 C520 1.465 . S
C530 U526 2.847 . S
C530 O544 1.249 . S
C530 O545 1.202 . S
C531 C529 1.363 1_554 S
C531 C533 1.408 . S
C531 C536 1.342 . S
C532 C533 1.310 . S
C532 C535 1.461 . S
C532 H552 0.932 . S
C533 C531 1.408 . S
C533 C532 1.310 . S
C533 H553 0.930 1_554 S
C534 C535 1.474 . S
C534 C536 1.285 . S
C534 H554 0.929 . S
C535 C532 1.461 . S
C535 C534 1.474 . S
C536 C531 1.342 . S
C536 C534 1.285 . S
C536 H555 0.930 . S
C537 C540 1.424 . S
C537 C542 1.245 . S
C537 C543 1.428 . S
C538 C541 1.260 . S
C538 C542 1.477 . S
C538 H556 0.932 1_556 S
C539 C540 1.384 . S
C539 C541 1.479 . S
C539 H557 0.929 . S
C540 C537 1.424 . S
C540 C539 1.384 . S
C540 H558 0.928 . S
C541 C538 1.260 . S
C541 C539 1.479 . S
C542 C537 1.245 . S
C542 C538 1.477 . S
C542 H559 0.932 1_556 S
C543 U526 2.882 . S
C543 C537 1.428 . S
C543 O546 1.301 . S
C543 O547 1.282 . S
O544 U526 2.441 . S
O544 C530 1.249 . S
O545 U526 2.420 . S
O545 C530 1.202 . S
O546 U526 2.455 . S
O546 C543 1.301 . S
O547 U526 2.449 . S
O547 C543 1.282 . S
H548 C521 0.931 . S
H549 C523 0.929 . S
H550 C524 0.930 . S
H551 C525 0.931 . S
H552 C532 0.932 . S
H553 C533 0.930 1_556 S
H554 C534 0.929 . S
H555 C536 0.930 . S
H556 C538 0.932 1_554 S
H557 C539 0.929 . S
H558 C540 0.928 . S
H559 C542 0.932 1_554 S
C560 C561 1.264 . S
C560 C565 1.479 . S
C560 C570 1.465 . S
C561 C560 1.264 . S
C561 C563 1.339 . S
C561 H588 0.931 . S
C562 C563 1.395 . S
C562 C564 1.320 . S
C563 C561 1.339 . S
C563 C562 1.395 . S
C563 H589 0.929 . S
C564 C562 1.320 . S
C564 C565 1.405 . S
C564 H590 0.930 . S
C565 C560 1.479 . S
C565 C564 1.405 . S
C565 H591 0.931 . S
U566 O567 2.454 . S
U566 O568 2.458 . S
U566 C569 2.984 . S
U566 C570 2.847 . S
U566 C583 2.882 . S
U566 O584 2.441 . S
U566 O585 2.420 . S
U566 O586 2.455 . S
U566 O587 2.449 . S
O567 U566 2.454 . S
O567 C569 1.353 . S
O568 U566 2.458 . S
O568 C569 1.286 . S
C569 U566 2.984 . S
C569 O567 1.353 . S
C569 O568 1.286 . S
C569 C571 1.363 . S
C570 C560 1.465 . S
C570 U566 2.847 . S
C570 O584 1.249 . S
C570 O585 1.202 . S
C571 C569 1.363 . S
C571 C573 1.408 . S
C571 C576 1.342 . S
C572 C573 1.310 . S
C572 C575 1.461 . S
C572 H592 0.932 . S
C573 C571 1.408 . S
C573 C572 1.310 . S
C573 H593 0.930 . S
C574 C575 1.474 . S
C574 C576 1.285 . S
C574 H594 0.929 . S
C575 C572 1.461 . S
C575 C574 1.474 . S
C576 C571 1.342 . S
C576 C574 1.285 . S
C576 H595 0.930 . S
C577 C580 1.424 . S
C577 C582 1.245 . S
C577 C583 1.428 . S
C578 C581 1.260 . S
C578 C582 1.477 . S
C578 H596 0.932 . S
C579 C580 1.384 . S
C579 C581 1.479 . S
C579 H597 0.929 . S
C580 C577 1.424 . S
C580 C579 1.384 . S
C580 H598 0.928 . S
C581 C578 1.260 . S
C581 C579 1.479 . S
C582 C577 1.245 . S
C582 C578 1.477 . S
C582 H599 0.932 . S
C583 U566 2.882 . S
C583 C577 1.428 . S
C583 O586 1.301 . S
C583 O587 1.282 . S
O584 U566 2.441 . S
O584 C570 1.249 . S
O585 U566 2.420 . S
O585 C570 1.202 . S
O586 U566 2.455 . S
O586 C583 1.301 . S
O587 U566 2.449 . S
O587 C583 1.282 . S
H588 C561 0.931 . S
H589 C563 0.929 . S
H590 C564 0.930 . S
H591 C565 0.931 . S
H592 C572 0.932 . S
H593 C573 0.930 . S
H594 C574 0.929 . S
H595 C576 0.930 . S
H596 C578 0.932 . S
H597 C579 0.929 . S
H598 C580 0.928 . S
H599 C582 0.932 . S
C600 C601 1.264 . S
C600 C605 1.479 . S
C600 C610 1.465 . S
C601 C600 1.264 . S
C601 C603 1.339 . S
C601 H628 0.931 . S
C602 C603 1.395 . S
C602 C604 1.320 . S
C603 C601 1.339 . S
C603 C602 1.395 . S
C603 H629 0.929 . S
C604 C602 1.320 . S
C604 C605 1.405 . S
C604 H630 0.930 . S
C605 C600 1.479 . S
C605 C604 1.405 . S
C605 H631 0.931 . S
U606 O607 2.454 . S
U606 O608 2.458 . S
U606 C609 2.984 . S
U606 C610 2.847 1_556 S
U606 C623 2.882 . S
U606 O624 2.441 1_556 S
U606 O625 2.420 . S
U606 O626 2.455 . S
U606 O627 2.449 . S
O607 U606 2.454 . S
O607 C609 1.353 . S
O608 U606 2.458 . S
O608 C609 1.286 . S
C609 U606 2.984 . S
C609 O607 1.353 . S
C609 O608 1.286 . S
C609 C611 1.363 1_545 S
C610 C600 1.465 . S
C610 U606 2.847 1_554 S
C610 O624 1.249 . S
C610 O625 1.202 1_554 S
C611 C609 1.363 1_565 S
C611 C613 1.425 1_565 S
C611 C616 1.342 . S
C612 C613 1.306 1_564 S
C612 C615 1.461 1_554 S
C612 H632 0.932 . S
C613 C611 1.425 1_545 S
C613 C612 1.306 1_546 S
C613 H633 0.918 1_556 S
C614 C615 1.474 . S
C614 C616 1.285 . S
C614 H634 0.929 . S
C615 C612 1.461 1_556 S
C615 C614 1.474 . S
C616 C611 1.342 . S
C616 C614 1.285 . S
C616 H635 0.930 . S
C617 C620 1.424 . S
C617 C622 1.245 . S
C617 C623 1.428 . S
C618 C621 1.260 . S
C618 C622 1.477 . S
C618 H636 0.923 1_545 S
C619 C620 1.384 . S
C619 C621 1.479 . S
C619 H637 0.929 . S
C620 C617 1.424 . S
C620 C619 1.384 . S
C620 H638 0.928 . S
C621 C618 1.260 . S
C621 C619 1.479 . S
C622 C617 1.245 . S
C622 C618 1.477 . S
C622 H639 0.932 . S
C623 U606 2.882 . S
C623 C617 1.428 . S
C623 O626 1.301 . S
C623 O627 1.282 . S
O624 U606 2.441 1_554 S
O624 C610 1.249 . S
O625 U606 2.420 . S
O625 C610 1.202 1_556 S
O626 U606 2.455 . S
O626 C623 1.301 . S
O627 U606 2.449 . S
O627 C623 1.282 . S
H628 C601 0.931 . S
H629 C603 0.929 . S
H630 C604 0.930 . S
H631 C605 0.931 . S
H632 C612 0.932 . S
H633 C613 0.918 1_554 S
H634 C614 0.929 . S
H635 C616 0.930 . S
H636 C618 0.923 1_565 S
H637 C619 0.929 . S
H638 C620 0.928 . S
H639 C622 0.932 . S
Mn640 O645 2.095 . S
Mn640 O655 2.162 . S
Mn640 O656 2.297 . S
Mn640 O664 2.385 . S
Mn640 O665 2.209 1_554 S
Mn640 O666 2.094 . S
Mn641 O646 2.121 . S
Mn641 N648 2.257 . S
Mn641 N657 2.282 . S
Mn641 O665 2.215 . S
Mn641 O667 2.117 . S
C642 O664 1.234 1_556 S
C642 O665 1.283 . S
C643 O655 1.281 . S
C643 O656 1.236 . S
C644 O666 1.240 . S
C644 O667 1.264 1_554 S
O645 Mn640 2.095 . S
O645 C654 1.250 . S
O646 Mn641 2.121 . S
O646 C654 1.258 1_556 S
C647 N648 1.326 . S
C647 C651 1.460 . S
C647 H653 0.929 . S
N648 Mn641 2.257 . S
N648 C647 1.326 . S
N648 C652 1.362 . S
C649 C650 1.258 . S
C649 C652 1.431 . S
C649 C669 1.449 . S
C650 C649 1.258 . S
C650 C651 1.477 . S
C650 H670 0.931 . S
C651 C647 1.460 . S
C651 C650 1.477 . S
C651 H671 0.930 . S
C652 N648 1.362 . S
C652 C649 1.431 . S
C652 C662 1.476 . S
H653 C647 0.929 . S
C654 O645 1.250 . S
C654 O646 1.258 1_554 S
O655 Mn640 2.162 . S
O655 C643 1.281 . S
O656 Mn640 2.297 . S
O656 C643 1.236 . S
N657 Mn641 2.282 . S
N657 C658 1.328 . S
N657 C662 1.318 . S
C658 N657 1.328 . S
C658 C659 1.457 . S
C658 H663 0.929 . S
C659 C658 1.457 . S
C659 C660 1.291 . S
C659 H672 0.931 . S
C660 C659 1.291 . S
C660 C661 1.373 . S
C660 H673 0.929 . S
C661 C660 1.373 . S
C661 C662 1.396 . S
C661 C668 1.403 . S
C662 C652 1.476 . S
C662 N657 1.318 . S
C662 C661 1.396 . S
H663 C658 0.929 . S
O664 Mn640 2.385 . S
O664 C642 1.234 1_554 S
O665 Mn640 2.209 1_556 S
O665 Mn641 2.215 . S
O665 C642 1.283 . S
O666 Mn640 2.094 . S
O666 C644 1.240 . S
O667 Mn641 2.117 . S
O667 C644 1.264 1_556 S
C668 C661 1.403 . S
C668 C669 1.399 . S
C668 H674 0.929 . S
C669 C649 1.449 . S
C669 C668 1.399 . S
C669 H675 0.930 . S
H670 C650 0.931 . S
H671 C651 0.930 . S
H672 C659 0.931 . S
H673 C660 0.929 . S
H674 C668 0.929 . S
H675 C669 0.930 . S
Mn676 O681 2.095 . S
Mn676 O691 2.162 . S
Mn676 O692 2.297 . S
Mn676 O700 2.385 . S
Mn676 O701 2.209 . S
Mn676 O702 2.094 . S
Mn677 O682 2.121 . S
Mn677 N684 2.257 . S
Mn677 N693 2.282 . S
Mn677 O701 2.215 . S
Mn677 O703 2.117 . S
C678 O700 1.234 . S
C678 O701 1.283 . S
C679 O691 1.281 . S
C679 O692 1.236 . S
C680 O702 1.240 . S
C680 O703 1.264 . S
O681 Mn676 2.095 . S
O681 C690 1.250 . S
O682 Mn677 2.121 . S
O682 C690 1.258 . S
C683 N684 1.326 . S
C683 C687 1.460 . S
C683 H689 0.929 . S
N684 Mn677 2.257 . S
N684 C683 1.326 . S
N684 C688 1.362 . S
C685 C686 1.258 . S
C685 C688 1.431 . S
C685 C705 1.449 . S
C686 C685 1.258 . S
C686 C687 1.477 . S
C686 H706 0.931 . S
C687 C683 1.460 . S
C687 C686 1.477 . S
C687 H707 0.930 . S
C688 N684 1.362 . S
C688 C685 1.431 . S
C688 C698 1.476 . S
H689 C683 0.929 . S
C690 O681 1.250 . S
C690 O682 1.258 . S
O691 Mn676 2.162 . S
O691 C679 1.281 . S
O692 Mn676 2.297 . S
O692 C679 1.236 . S
N693 Mn677 2.282 . S
N693 C694 1.328 . S
N693 C698 1.318 . S
C694 N693 1.328 . S
C694 C695 1.457 . S
C694 H699 0.929 . S
C695 C694 1.457 . S
C695 C696 1.291 . S
C695 H708 0.931 . S
C696 C695 1.291 . S
C696 C697 1.373 . S
C696 H709 0.929 . S
C697 C696 1.373 . S
C697 C698 1.396 . S
C697 C704 1.403 . S
C698 C688 1.476 . S
C698 N693 1.318 . S
C698 C697 1.396 . S
H699 C694 0.929 . S
O700 Mn676 2.385 . S
O700 C678 1.234 . S
O701 Mn676 2.209 . S
O701 Mn677 2.215 . S
O701 C678 1.283 . S
O702 Mn676 2.094 . S
O702 C680 1.240 . S
O703 Mn677 2.117 . S
O703 C680 1.264 . S
C704 C697 1.403 . S
C704 C705 1.399 . S
C704 H710 0.929 . S
C705 C685 1.449 . S
C705 C704 1.399 . S
C705 H711 0.930 . S
H706 C686 0.931 . S
H707 C687 0.930 . S
H708 C695 0.931 . S
H709 C696 0.929 . S
H710 C704 0.929 . S
H711 C705 0.930 . S
Mn712 O717 2.095 1_554 S
Mn712 O727 2.162 . S
Mn712 O728 2.297 1_554 S
Mn712 O736 2.385 . S
Mn712 O737 2.209 1_554 S
Mn712 O738 2.094 . S
Mn713 O718 2.121 . S
Mn713 N720 2.257 . S
Mn713 N729 2.282 . S
Mn713 O737 2.215 . S
Mn713 O739 2.117 1_556 S
C714 O736 1.198 1_556 S
C714 O737 1.309 . S
C715 O727 1.281 . S
C715 O728 1.236 1_554 S
C716 O738 1.240 . S
C716 O739 1.264 . S
O717 Mn712 2.095 1_556 S
O717 C726 1.250 . S
O718 Mn713 2.121 . S
O718 C726 1.258 . S
C719 N720 1.326 . S
C719 C723 1.460 . S
C719 H725 0.929 . S
N720 Mn713 2.257 . S
N720 C719 1.326 . S
N720 C724 1.362 . S
C721 C722 1.258 . S
C721 C724 1.431 . S
C721 C741 1.449 . S
C722 C721 1.258 . S
C722 C723 1.477 . S
C722 H742 0.931 . S
C723 C719 1.460 . S
C723 C722 1.477 . S
C723 H743 0.930 . S
C724 N720 1.362 . S
C724 C721 1.431 . S
C724 C734 1.476 . S
H725 C719 0.929 . S
C726 O717 1.250 . S
C726 O718 1.258 . S
O727 Mn712 2.162 . S
O727 C715 1.281 . S
O728 Mn712 2.297 1_556 S
O728 C715 1.236 1_556 S
N729 Mn713 2.282 . S
N729 C730 1.328 1_556 S
N729 C734 1.318 . S
C730 N729 1.328 1_554 S
C730 C731 1.457 . S
C730 H735 0.929 . S
C731 C730 1.457 . S
C731 C732 1.291 . S
C731 H744 0.931 . S
C732 C731 1.291 . S
C732 C733 1.373 1_554 S
C732 H745 0.929 . S
C733 C732 1.373 1_556 S
C733 C734 1.396 . S
C733 C740 1.403 . S
C734 C724 1.476 . S
C734 N729 1.318 . S
C734 C733 1.396 . S
H735 C730 0.929 . S
O736 Mn712 2.385 . S
O736 C714 1.198 1_554 S
O737 Mn712 2.209 1_556 S
O737 Mn713 2.215 . S
O737 C714 1.309 . S
O738 Mn712 2.094 . S
O738 C716 1.240 . S
O739 Mn713 2.117 1_554 S
O739 C716 1.264 . S
C740 C733 1.403 . S
C740 C741 1.399 . S
C740 H746 0.929 . S
C741 C721 1.449 . S
C741 C740 1.399 . S
C741 H747 0.930 . S
H742 C722 0.931 . S
H743 C723 0.930 . S
H744 C731 0.931 . S
H745 C732 0.929 . S
H746 C740 0.929 . S
H747 C741 0.930 . S
Mn748 O753 2.095 . S
Mn748 O763 2.162 . S
Mn748 O764 2.297 . S
Mn748 O772 2.371 1_545 S
Mn748 O773 2.209 1_545 S
Mn748 O774 2.094 . S
Mn749 O754 2.121 . S
Mn749 N756 2.257 . S
Mn749 N765 2.282 . S
Mn749 O773 2.215 . S
Mn749 O775 2.117 . S
C750 O772 1.262 . S
C750 O773 1.283 . S
C751 O763 1.281 . S
C751 O764 1.236 . S
C752 O774 1.240 . S
C752 O775 1.264 1_545 S
O753 Mn748 2.095 . S
O753 C762 1.299 . S
O754 Mn749 2.121 . S
O754 C762 1.196 1_565 S
C755 N756 1.326 . S
C755 C759 1.460 . S
C755 H761 0.929 . S
N756 Mn749 2.257 . S
N756 C755 1.326 . S
N756 C760 1.362 . S
C757 C758 1.258 . S
C757 C760 1.431 . S
C757 C777 1.449 . S
C758 C757 1.258 . S
C758 C759 1.477 . S
C758 H778 0.931 . S
C759 C755 1.460 . S
C759 C758 1.477 . S
C759 H779 0.930 . S
C760 N756 1.362 . S
C760 C757 1.431 . S
C760 C770 1.476 . S
H761 C755 0.929 . S
C762 O753 1.299 . S
C762 O754 1.196 1_545 S
O763 Mn748 2.162 . S
O763 C751 1.281 . S
O764 Mn748 2.297 . S
O764 C751 1.236 . S
N765 Mn749 2.282 . S
N765 C766 1.328 . S
N765 C770 1.318 . S
C766 N765 1.328 . S
C766 C767 1.457 . S
C766 H771 0.929 . S
C767 C766 1.457 . S
C767 C768 1.291 . S
C767 H780 0.931 . S
C768 C767 1.291 . S
C768 C769 1.373 . S
C768 H781 0.929 . S
C769 C768 1.373 . S
C769 C770 1.396 . S
C769 C776 1.403 . S
C770 C760 1.476 . S
C770 N765 1.318 . S
C770 C769 1.396 . S
H771 C766 0.929 . S
O772 Mn748 2.371 1_565 S
O772 C750 1.262 . S
O773 Mn748 2.209 1_565 S
O773 Mn749 2.215 . S
O773 C750 1.283 . S
O774 Mn748 2.094 . S
O774 C752 1.240 . S
O775 Mn749 2.117 . S
O775 C752 1.264 1_565 S
C776 C769 1.403 . S
C776 C777 1.399 . S
C776 H782 0.929 . S
C777 C757 1.449 . S
C777 C776 1.399 . S
C777 H783 0.930 . S
H778 C758 0.931 . S
H779 C759 0.930 . S
H780 C767 0.931 . S
H781 C768 0.929 . S
H782 C776 0.929 . S
H783 C777 0.930 . S
Mn784 O789 2.095 . S
Mn784 O799 2.162 . S
Mn784 O800 2.297 . S
Mn784 O808 2.385 . S
Mn784 O809 2.209 . S
Mn784 O810 2.094 . S
Mn785 O790 2.121 . S
Mn785 N792 2.257 . S
Mn785 N801 2.282 . S
Mn785 O809 2.215 . S
Mn785 O811 2.117 . S
C786 O808 1.234 . S
C786 O809 1.283 . S
C787 O799 1.281 . S
C787 O800 1.236 . S
C788 O810 1.240 . S
C788 O811 1.264 . S
O789 Mn784 2.095 . S
O789 C798 1.250 . S
O790 Mn785 2.121 . S
O790 C798 1.258 . S
C791 N792 1.326 . S
C791 C795 1.460 . S
C791 H797 0.929 . S
N792 Mn785 2.257 . S
N792 C791 1.326 . S
N792 C796 1.362 . S
C793 C794 1.258 . S
C793 C796 1.431 . S
C793 C813 1.449 . S
C794 C793 1.258 . S
C794 C795 1.477 . S
C794 H814 0.931 . S
C795 C791 1.460 . S
C795 C794 1.477 . S
C795 H815 0.930 . S
C796 N792 1.362 . S
C796 C793 1.431 . S
C796 C806 1.476 . S
H797 C791 0.929 . S
C798 O789 1.250 . S
C798 O790 1.258 . S
O799 Mn784 2.162 . S
O799 C787 1.281 . S
O800 Mn784 2.297 . S
O800 C787 1.236 . S
N801 Mn785 2.282 . S
N801 C802 1.328 . S
N801 C806 1.318 . S
C802 N801 1.328 . S
C802 C803 1.457 . S
C802 H807 0.929 . S
C803 C802 1.457 . S
C803 C804 1.291 . S
C803 H816 0.931 . S
C804 C803 1.291 . S
C804 C805 1.373 . S
C804 H817 0.929 . S
C805 C804 1.373 . S
C805 C806 1.396 . S
C805 C812 1.403 . S
C806 C796 1.476 . S
C806 N801 1.318 . S
C806 C805 1.396 . S
H807 C802 0.929 . S
O808 Mn784 2.385 . S
O808 C786 1.234 . S
O809 Mn784 2.209 . S
O809 Mn785 2.215 . S
O809 C786 1.283 . S
O810 Mn784 2.094 . S
O810 C788 1.240 . S
O811 Mn785 2.117 . S
O811 C788 1.264 . S
C812 C805 1.403 . S
C812 C813 1.399 . S
C812 H818 0.929 . S
C813 C793 1.449 . S
C813 C812 1.399 . S
C813 H819 0.930 . S
H814 C794 0.931 . S
H815 C795 0.930 . S
H816 C803 0.931 . S
H817 C804 0.929 . S
H818 C812 0.929 . S
H819 C813 0.930 . S
Mn820 O825 2.095 . S
Mn820 O835 2.162 . S
Mn820 O836 2.297 . S
Mn820 O844 2.385 . S
Mn820 O845 2.209 . S
Mn820 O846 2.094 . S
Mn821 O826 2.121 . S
Mn821 N828 2.257 . S
Mn821 N837 2.282 . S
Mn821 O845 2.215 . S
Mn821 O847 2.117 . S
C822 O844 1.234 . S
C822 O845 1.283 . S
C823 O835 1.281 . S
C823 O836 1.236 . S
C824 O846 1.240 . S
C824 O847 1.264 . S
O825 Mn820 2.095 . S
O825 C834 1.250 . S
O826 Mn821 2.121 . S
O826 C834 1.258 . S
C827 N828 1.326 . S
C827 C831 1.460 . S
C827 H833 0.929 . S
N828 Mn821 2.257 . S
N828 C827 1.326 . S
N828 C832 1.362 . S
C829 C830 1.258 . S
C829 C832 1.431 . S
C829 C849 1.449 . S
C830 C829 1.258 . S
C830 C831 1.477 . S
C830 H850 0.931 . S
C831 C827 1.460 . S
C831 C830 1.477 . S
C831 H851 0.930 . S
C832 N828 1.362 . S
C832 C829 1.431 . S
C832 C842 1.476 . S
H833 C827 0.929 . S
C834 O825 1.250 . S
C834 O826 1.258 . S
O835 Mn820 2.162 . S
O835 C823 1.281 . S
O836 Mn820 2.297 . S
O836 C823 1.236 . S
N837 Mn821 2.282 . S
N837 C838 1.328 . S
N837 C842 1.318 . S
C838 N837 1.328 . S
C838 C839 1.457 . S
C838 H843 0.929 . S
C839 C838 1.457 . S
C839 C840 1.291 . S
C839 H852 0.931 . S
C840 C839 1.291 . S
C840 C841 1.373 . S
C840 H853 0.929 . S
C841 C840 1.373 . S
C841 C842 1.396 . S
C841 C848 1.403 . S
C842 C832 1.476 . S
C842 N837 1.318 . S
C842 C841 1.396 . S
H843 C838 0.929 . S
O844 Mn820 2.385 . S
O844 C822 1.234 . S
O845 Mn820 2.209 . S
O845 Mn821 2.215 . S
O845 C822 1.283 . S
O846 Mn820 2.094 . S
O846 C824 1.240 . S
O847 Mn821 2.117 . S
O847 C824 1.264 . S
C848 C841 1.403 . S
C848 C849 1.399 . S
C848 H854 0.929 . S
C849 C829 1.449 . S
C849 C848 1.399 . S
C849 H855 0.930 . S
H850 C830 0.931 . S
H851 C831 0.930 . S
H852 C839 0.931 . S
H853 C840 0.929 . S
H854 C848 0.929 . S
H855 C849 0.930 . S
Mn856 O861 2.095 . S
Mn856 O871 2.162 . S
Mn856 O872 2.297 . S
Mn856 O880 2.385 . S
Mn856 O881 2.209 . S
Mn856 O882 2.094 . S
Mn857 O862 2.121 . S
Mn857 N864 2.257 . S
Mn857 N873 2.282 . S
Mn857 O881 2.215 . S
Mn857 O883 2.117 . S
C858 O880 1.234 . S
C858 O881 1.283 . S
C859 O871 1.281 . S
C859 O872 1.236 . S
C860 O882 1.240 . S
C860 O883 1.264 . S
O861 Mn856 2.095 . S
O861 C870 1.250 . S
O862 Mn857 2.121 . S
O862 C870 1.258 . S
C863 N864 1.326 . S
C863 C867 1.460 . S
C863 H869 0.929 . S
N864 Mn857 2.257 . S
N864 C863 1.326 . S
N864 C868 1.362 . S
C865 C866 1.258 . S
C865 C868 1.431 . S
C865 C885 1.449 . S
C866 C865 1.258 . S
C866 C867 1.477 . S
C866 H886 0.931 . S
C867 C863 1.460 . S
C867 C866 1.477 . S
C867 H887 0.930 . S
C868 N864 1.362 . S
C868 C865 1.431 . S
C868 C878 1.476 . S
H869 C863 0.929 . S
C870 O861 1.250 . S
C870 O862 1.258 . S
O871 Mn856 2.162 . S
O871 C859 1.281 . S
O872 Mn856 2.297 . S
O872 C859 1.236 . S
N873 Mn857 2.282 . S
N873 C874 1.328 . S
N873 C878 1.318 . S
C874 N873 1.328 . S
C874 C875 1.457 . S
C874 H879 0.929 . S
C875 C874 1.457 . S
C875 C876 1.291 . S
C875 H888 0.931 . S
C876 C875 1.291 . S
C876 C877 1.373 . S
C876 H889 0.929 . S
C877 C876 1.373 . S
C877 C878 1.396 . S
C877 C884 1.403 . S
C878 C868 1.476 . S
C878 N873 1.318 . S
C878 C877 1.396 . S
H879 C874 0.929 . S
O880 Mn856 2.385 . S
O880 C858 1.234 . S
O881 Mn856 2.209 . S
O881 Mn857 2.215 . S
O881 C858 1.283 . S
O882 Mn856 2.094 . S
O882 C860 1.240 . S
O883 Mn857 2.117 . S
O883 C860 1.264 . S
C884 C877 1.403 . S
C884 C885 1.399 . S
C884 H890 0.929 . S
C885 C865 1.449 . S
C885 C884 1.399 . S
C885 H891 0.930 . S
H886 C866 0.931 . S
H887 C867 0.930 . S
H888 C875 0.931 . S
H889 C876 0.929 . S
H890 C884 0.929 . S
H891 C885 0.930 . S
Mn892 O897 2.095 . S
Mn892 O907 2.162 . S
Mn892 O908 2.297 . S
Mn892 O916 2.385 1_565 S
Mn892 O917 2.209 1_565 S
Mn892 O918 2.094 . S
Mn893 O898 2.121 . S
Mn893 N900 2.257 . S
Mn893 N909 2.282 . S
Mn893 O917 2.215 . S
Mn893 O919 2.117 . S
C894 O916 1.234 . S
C894 O917 1.283 . S
C895 O907 1.281 . S
C895 O908 1.236 . S
C896 O918 1.220 1_545 S
C896 O919 1.290 . S
O897 Mn892 2.095 . S
O897 C906 1.250 1_565 S
O898 Mn893 2.121 . S
O898 C906 1.258 . S
C899 N900 1.326 . S
C899 C903 1.460 . S
C899 H905 0.929 . S
N900 Mn893 2.257 . S
N900 C899 1.326 . S
N900 C904 1.362 . S
C901 C902 1.258 . S
C901 C904 1.431 . S
C901 C921 1.449 . S
C902 C901 1.258 . S
C902 C903 1.477 . S
C902 H922 0.931 . S
C903 C899 1.460 . S
C903 C902 1.477 . S
C903 H923 0.930 . S
C904 N900 1.362 . S
C904 C901 1.431 . S
C904 C914 1.476 . S
H905 C899 0.929 . S
C906 O897 1.250 1_545 S
C906 O898 1.258 . S
O907 Mn892 2.162 . S
O907 C895 1.281 . S
O908 Mn892 2.297 . S
O908 C895 1.236 . S
N909 Mn893 2.282 . S
N909 C910 1.328 . S
N909 C914 1.318 . S
C910 N909 1.328 . S
C910 C911 1.457 . S
C910 H915 0.929 . S
C911 C910 1.457 . S
C911 C912 1.291 . S
C911 H924 0.931 . S
C912 C911 1.291 . S
C912 C913 1.373 . S
C912 H925 0.929 . S
C913 C912 1.373 . S
C913 C914 1.396 . S
C913 C920 1.403 . S
C914 C904 1.476 . S
C914 N909 1.318 . S
C914 C913 1.396 . S
H915 C910 0.929 . S
O916 Mn892 2.385 1_545 S
O916 C894 1.234 . S
O917 Mn892 2.209 1_545 S
O917 Mn893 2.215 . S
O917 C894 1.283 . S
O918 Mn892 2.094 . S
O918 C896 1.220 1_565 S
O919 Mn893 2.117 . S
O919 C896 1.290 . S
C920 C913 1.403 . S
C920 C921 1.399 . S
C920 H926 0.929 . S
C921 C901 1.449 . S
C921 C920 1.399 . S
C921 H927 0.930 . S
H922 C902 0.931 . S
H923 C903 0.930 . S
H924 C911 0.931 . S
H925 C912 0.929 . S
H926 C920 0.929 . S
H927 C921 0.930 . S
Mn928 O933 2.095 . S
Mn928 O943 2.162 . S
Mn928 O944 2.297 . S
Mn928 O952 2.376 1_455 S
Mn928 O953 2.209 1_455 S
Mn928 O954 2.094 . S
Mn929 O934 2.121 . S
Mn929 N936 2.257 . S
Mn929 N945 2.282 . S
Mn929 O953 2.215 . S
Mn929 O955 2.117 . S
C930 O952 1.251 . S
C930 O953 1.283 . S
C931 O943 1.281 . S
C931 O944 1.236 . S
C932 O954 1.240 . S
C932 O955 1.264 1_455 S
O933 Mn928 2.095 . S
O933 C942 1.250 . S
O934 Mn929 2.121 . S
O934 C942 1.258 1_655 S
C935 N936 1.326 . S
C935 C939 1.460 . S
C935 H941 0.929 . S
N936 Mn929 2.257 . S
N936 C935 1.326 . S
N936 C940 1.362 . S
C937 C938 1.258 . S
C937 C940 1.431 . S
C937 C957 1.449 . S
C938 C937 1.258 . S
C938 C939 1.477 . S
C938 H958 0.931 . S
C939 C935 1.460 . S
C939 C938 1.477 . S
C939 H959 0.930 . S
C940 N936 1.362 . S
C940 C937 1.431 . S
C940 C950 1.476 . S
H941 C935 0.929 . S
C942 O933 1.250 . S
C942 O934 1.258 1_455 S
O943 Mn928 2.162 . S
O943 C931 1.281 . S
O944 Mn928 2.297 . S
O944 C931 1.236 . S
N945 Mn929 2.282 . S
N945 C946 1.328 . S
N945 C950 1.318 . S
C946 N945 1.328 . S
C946 C947 1.457 . S
C946 H951 0.929 . S
C947 C946 1.457 . S
C947 C948 1.291 . S
C947 H960 0.931 . S
C948 C947 1.291 . S
C948 C949 1.373 . S
C948 H961 0.929 . S
C949 C948 1.373 . S
C949 C950 1.396 . S
C949 C956 1.403 . S
C950 C940 1.476 . S
C950 N945 1.318 . S
C950 C949 1.396 . S
H951 C946 0.929 . S
O952 Mn928 2.376 1_655 S
O952 C930 1.251 . S
O953 Mn928 2.209 1_655 S
O953 Mn929 2.215 . S
O953 C930 1.283 . S
O954 Mn928 2.094 . S
O954 C932 1.240 . S
O955 Mn929 2.117 . S
O955 C932 1.264 1_655 S
C956 C949 1.403 . S
C956 C957 1.399 . S
C956 H962 0.929 . S
C957 C937 1.449 . S
C957 C956 1.399 . S
C957 H963 0.930 . S
H958 C938 0.931 . S
H959 C939 0.930 . S
H960 C947 0.931 . S
H961 C948 0.929 . S
H962 C956 0.929 . S
H963 C957 0.930 . S
Mn964 O969 2.095 . S
Mn964 O979 2.162 . S
Mn964 O980 2.297 . S
Mn964 O988 2.385 . S
Mn964 O989 2.209 . S
Mn964 O990 2.094 . S
Mn965 O970 2.121 . S
Mn965 N972 2.257 . S
Mn965 N981 2.282 . S
Mn965 O989 2.215 . S
Mn965 O991 2.117 . S
C966 O988 1.234 . S
C966 O989 1.283 . S
C967 O979 1.281 . S
C967 O980 1.236 . S
C968 O990 1.240 . S
C968 O991 1.264 . S
O969 Mn964 2.095 . S
O969 C978 1.250 . S
O970 Mn965 2.121 . S
O970 C978 1.258 . S
C971 N972 1.326 . S
C971 C975 1.460 . S
C971 H977 0.929 . S
N972 Mn965 2.257 . S
N972 C971 1.326 . S
N972 C976 1.362 . S
C973 C974 1.258 . S
C973 C976 1.431 . S
C973 C993 1.449 . S
C974 C973 1.258 . S
C974 C975 1.477 . S
C974 H994 0.931 . S
C975 C971 1.460 . S
C975 C974 1.477 . S
C975 H995 0.930 . S
C976 N972 1.362 . S
C976 C973 1.431 . S
C976 C986 1.476 . S
H977 C971 0.929 . S
C978 O969 1.250 . S
C978 O970 1.258 . S
O979 Mn964 2.162 . S
O979 C967 1.281 . S
O980 Mn964 2.297 . S
O980 C967 1.236 . S
N981 Mn965 2.282 . S
N981 C982 1.328 . S
N981 C986 1.318 . S
C982 N981 1.328 . S
C982 C983 1.457 . S
C982 H987 0.929 . S
C983 C982 1.457 . S
C983 C984 1.291 . S
C983 H996 0.931 . S
C984 C983 1.291 . S
C984 C985 1.373 . S
C984 H997 0.929 . S
C985 C984 1.373 . S
C985 C986 1.396 . S
C985 C992 1.403 . S
C986 C976 1.476 . S
C986 N981 1.318 . S
C986 C985 1.396 . S
H987 C982 0.929 . S
O988 Mn964 2.385 . S
O988 C966 1.234 . S
O989 Mn964 2.209 . S
O989 Mn965 2.215 . S
O989 C966 1.283 . S
O990 Mn964 2.094 . S
O990 C968 1.240 . S
O991 Mn965 2.117 . S
O991 C968 1.264 . S
C992 C985 1.403 . S
C992 C993 1.399 . S
C992 H998 0.929 . S
C993 C973 1.449 . S
C993 C992 1.399 . S
C993 H999 0.930 . S
H994 C974 0.931 . S
H995 C975 0.930 . S
H996 C983 0.931 . S
H997 C984 0.929 . S
H998 C992 0.929 . S
H999 C993 0.930 . S
Mn1000 O1005 2.095 1_455 S
Mn1000 O1015 2.162 . S
Mn1000 O1016 2.297 1_455 S
Mn1000 O1024 2.385 . S
Mn1000 O1025 2.209 1_455 S
Mn1000 O1026 2.094 . S
Mn1001 O1006 2.121 . S
Mn1001 N1008 2.257 . S
Mn1001 N1017 2.282 1_655 S
Mn1001 O1025 2.215 . S
Mn1001 O1027 2.117 1_655 S
C1002 O1024 1.234 . S
C1002 O1025 1.283 1_455 S
C1003 O1015 1.281 . S
C1003 O1016 1.236 1_455 S
C1004 O1026 1.240 . S
C1004 O1027 1.264 . S
O1005 Mn1000 2.095 1_655 S
O1005 C1014 1.250 . S
O1006 Mn1001 2.121 . S
O1006 C1014 1.258 . S
C1007 N1008 1.326 . S
C1007 C1011 1.460 . S
C1007 H1013 0.929 . S
N1008 Mn1001 2.257 . S
N1008 C1007 1.326 . S
N1008 C1012 1.362 . S
C1009 C1010 1.258 . S
C1009 C1012 1.431 . S
C1009 C1029 1.449 . S
C1010 C1009 1.258 . S
C1010 C1011 1.477 . S
C1010 H1030 0.931 . S
C1011 C1007 1.460 . S
C1011 C1010 1.477 . S
C1011 H1031 0.930 . S
C1012 N1008 1.362 . S
C1012 C1009 1.431 . S
C1012 C1022 1.476 . S
H1013 C1007 0.929 . S
C1014 O1005 1.250 . S
C1014 O1006 1.258 . S
O1015 Mn1000 2.162 . S
O1015 C1003 1.281 . S
O1016 Mn1000 2.297 1_655 S
O1016 C1003 1.236 1_655 S
N1017 Mn1001 2.282 1_455 S
N1017 C1018 1.328 . S
N1017 C1022 1.318 1_455 S
C1018 N1017 1.328 . S
C1018 C1019 1.457 . S
C1018 H1023 0.929 . S
C1019 C1018 1.457 . S
C1019 C1020 1.291 . S
C1019 H1032 0.931 . S
C1020 C1019 1.291 . S
C1020 C1021 1.321 1_455 S
C1020 H1033 0.929 . S
C1021 C1020 1.321 1_655 S
C1021 C1022 1.411 . S
C1021 C1028 1.440 . S
C1022 C1012 1.476 . S
C1022 N1017 1.318 1_655 S
C1022 C1021 1.411 . S
H1023 C1018 0.929 . S
O1024 Mn1000 2.385 . S
O1024 C1002 1.234 . S
O1025 Mn1000 2.209 1_655 S
O1025 Mn1001 2.215 . S
O1025 C1002 1.283 1_655 S
O1026 Mn1000 2.094 . S
O1026 C1004 1.240 . S
O1027 Mn1001 2.117 1_455 S
O1027 C1004 1.264 . S
C1028 C1021 1.440 . S
C1028 C1029 1.399 . S
C1028 H1034 0.929 . S
C1029 C1009 1.449 . S
C1029 C1028 1.399 . S
C1029 H1035 0.930 . S
H1030 C1010 0.931 . S
H1031 C1011 0.930 . S
H1032 C1019 0.931 . S
H1033 C1020 0.929 . S
H1034 C1028 0.929 . S
H1035 C1029 0.930 . S
Mn1036 O1041 2.095 . S
Mn1036 O1051 2.162 . S
Mn1036 O1052 2.297 . S
Mn1036 O1060 2.385 . S
Mn1036 O1061 2.209 . S
Mn1036 O1062 2.094 . S
Mn1037 O1042 2.121 . S
Mn1037 N1044 2.257 . S
Mn1037 N1053 2.282 . S
Mn1037 O1061 2.215 . S
Mn1037 O1063 2.117 . S
C1038 O1060 1.234 . S
C1038 O1061 1.283 . S
C1039 O1051 1.281 . S
C1039 O1052 1.236 . S
C1040 O1062 1.240 . S
C1040 O1063 1.264 . S
O1041 Mn1036 2.095 . S
O1041 C1050 1.250 . S
O1042 Mn1037 2.121 . S
O1042 C1050 1.258 . S
C1043 N1044 1.326 . S
C1043 C1047 1.460 . S
C1043 H1049 0.929 . S
N1044 Mn1037 2.257 . S
N1044 C1043 1.326 . S
N1044 C1048 1.362 . S
C1045 C1046 1.258 . S
C1045 C1048 1.431 . S
C1045 C1065 1.449 . S
C1046 C1045 1.258 . S
C1046 C1047 1.477 . S
C1046 H1066 0.931 . S
C1047 C1043 1.460 . S
C1047 C1046 1.477 . S
C1047 H1067 0.930 . S
C1048 N1044 1.362 . S
C1048 C1045 1.431 . S
C1048 C1058 1.476 . S
H1049 C1043 0.929 . S
C1050 O1041 1.250 . S
C1050 O1042 1.258 . S
O1051 Mn1036 2.162 . S
O1051 C1039 1.281 . S
O1052 Mn1036 2.297 . S
O1052 C1039 1.236 . S
N1053 Mn1037 2.282 . S
N1053 C1054 1.328 . S
N1053 C1058 1.318 . S
C1054 N1053 1.328 . S
C1054 C1055 1.457 . S
C1054 H1059 0.929 . S
C1055 C1054 1.457 . S
C1055 C1056 1.291 . S
C1055 H1068 0.931 . S
C1056 C1055 1.291 . S
C1056 C1057 1.373 . S
C1056 H1069 0.929 . S
C1057 C1056 1.373 . S
C1057 C1058 1.396 . S
C1057 C1064 1.403 . S
C1058 C1048 1.476 . S
C1058 N1053 1.318 . S
C1058 C1057 1.396 . S
H1059 C1054 0.929 . S
O1060 Mn1036 2.385 . S
O1060 C1038 1.234 . S
O1061 Mn1036 2.209 . S
O1061 Mn1037 2.215 . S
O1061 C1038 1.283 . S
O1062 Mn1036 2.094 . S
O1062 C1040 1.240 . S
O1063 Mn1037 2.117 . S
O1063 C1040 1.264 . S
C1064 C1057 1.403 . S
C1064 C1065 1.399 . S
C1064 H1070 0.929 . S
C1065 C1045 1.449 . S
C1065 C1064 1.399 . S
C1065 H1071 0.930 . S
H1066 C1046 0.931 . S
H1067 C1047 0.930 . S
H1068 C1055 0.931 . S
H1069 C1056 0.929 . S
H1070 C1064 0.929 . S
H1071 C1065 0.930 . S
C1072 C1073 1.391 . S
C1072 C1074 1.394 . S
C1072 H1088 0.931 . S
C1073 C1072 1.391 . S
C1073 C1077 1.376 . S
C1074 C1072 1.394 . S
C1074 C1075 1.369 . S
C1074 C1078 1.531 . S
C1075 C1074 1.369 . S
C1075 C1076 1.410 . S
C1075 C1083 1.503 . S
C1076 C1075 1.410 . S
C1076 C1077 1.392 . S
C1076 C1079 1.511 . S
C1077 C1073 1.376 . S
C1077 C1076 1.392 . S
C1077 H1089 0.929 . S
C1078 C1074 1.531 . S
C1078 H1090 0.960 . S
C1078 H1091 0.962 . S
C1078 H1092 0.960 . S
C1079 C1076 1.511 . S
C1079 H1093 0.961 . S
C1079 H1094 0.961 . S
C1079 H1095 0.961 . S
C1080 C1081 1.370 . S
C1080 C1082 1.363 . S
C1080 H1096 0.931 . S
C1081 C1080 1.370 . S
C1081 C1085 1.408 . S
C1082 C1080 1.363 . S
C1082 C1083 1.370 . S
C1082 C1086 1.524 . S
C1083 C1075 1.503 . S
C1083 C1082 1.370 . S
C1083 C1084 1.403 . S
C1084 C1083 1.403 . S
C1084 C1085 1.404 . S
C1084 C1087 1.539 . S
C1085 C1081 1.408 . S
C1085 C1084 1.404 . S
C1085 H1097 0.930 . S
C1086 C1082 1.524 . S
C1086 H1098 0.956 . S
C1086 H1099 0.961 . S
C1086 H1100 0.961 . S
C1087 C1084 1.539 . S
C1087 H1101 0.958 . S
C1087 H1102 0.961 . S
C1087 H1103 0.960 . S
H1088 C1072 0.931 . S
H1089 C1077 0.929 . S
H1090 C1078 0.960 . S
H1091 C1078 0.962 . S
H1092 C1078 0.960 . S
H1093 C1079 0.961 . S
H1094 C1079 0.961 . S
H1095 C1079 0.961 . S
H1096 C1080 0.931 . S
H1097 C1085 0.930 . S
H1098 C1086 0.956 . S
H1099 C1086 0.961 . S
H1100 C1086 0.961 . S
H1101 C1087 0.958 . S
H1102 C1087 0.961 . S
H1103 C1087 0.960 . S
C1104 C1105 1.391 . S
C1104 C1106 1.394 . S
C1104 H1120 0.931 . S
C1105 C1104 1.391 . S
C1105 C1109 1.376 . S
C1106 C1104 1.394 . S
C1106 C1107 1.369 . S
C1106 C1110 1.531 . S
C1107 C1106 1.369 . S
C1107 C1108 1.410 . S
C1107 C1115 1.503 . S
C1108 C1107 1.410 . S
C1108 C1109 1.392 . S
C1108 C1111 1.511 . S
C1109 C1105 1.376 . S
C1109 C1108 1.392 . S
C1109 H1121 0.929 . S
C1110 C1106 1.531 . S
C1110 H1122 0.960 . S
C1110 H1123 0.962 . S
C1110 H1124 0.960 . S
C1111 C1108 1.511 . S
C1111 H1125 0.961 . S
C1111 H1126 0.961 . S
C1111 H1127 0.961 . S
C1112 C1113 1.370 . S
C1112 C1114 1.363 . S
C1112 H1128 0.931 . S
C1113 C1112 1.370 . S
C1113 C1117 1.408 . S
C1114 C1112 1.363 . S
C1114 C1115 1.370 . S
C1114 C1118 1.524 . S
C1115 C1107 1.503 . S
C1115 C1114 1.370 . S
C1115 C1116 1.403 . S
C1116 C1115 1.403 . S
C1116 C1117 1.404 . S
C1116 C1119 1.539 . S
C1117 C1113 1.408 . S
C1117 C1116 1.404 . S
C1117 H1129 0.930 . S
C1118 C1114 1.524 . S
C1118 H1130 0.956 . S
C1118 H1131 0.961 . S
C1118 H1132 0.961 . S
C1119 C1116 1.539 . S
C1119 H1133 0.958 . S
C1119 H1134 0.961 . S
C1119 H1135 0.960 . S
H1120 C1104 0.931 . S
H1121 C1109 0.929 . S
H1122 C1110 0.960 . S
H1123 C1110 0.962 . S
H1124 C1110 0.960 . S
H1125 C1111 0.961 . S
H1126 C1111 0.961 . S
H1127 C1111 0.961 . S
H1128 C1112 0.931 . S
H1129 C1117 0.930 . S
H1130 C1118 0.956 . S
H1131 C1118 0.961 . S
H1132 C1118 0.961 . S
H1133 C1119 0.958 . S
H1134 C1119 0.961 . S
H1135 C1119 0.960 . S
C1136 C1137 1.391 . S
C1136 C1138 1.394 . S
C1136 H1152 0.931 . S
C1137 C1136 1.391 . S
C1137 C1141 1.376 . S
C1138 C1136 1.394 . S
C1138 C1139 1.369 . S
C1138 C1142 1.531 . S
C1139 C1138 1.369 . S
C1139 C1140 1.410 . S
C1139 C1147 1.503 . S
C1140 C1139 1.410 . S
C1140 C1141 1.392 . S
C1140 C1143 1.511 . S
C1141 C1137 1.376 . S
C1141 C1140 1.392 . S
C1141 H1153 0.929 . S
C1142 C1138 1.531 . S
C1142 H1154 0.960 . S
C1142 H1155 0.962 . S
C1142 H1156 0.960 . S
C1143 C1140 1.511 . S
C1143 H1157 0.961 . S
C1143 H1158 0.961 . S
C1143 H1159 0.961 . S
C1144 C1145 1.370 . S
C1144 C1146 1.363 . S
C1144 H1160 0.931 . S
C1145 C1144 1.370 . S
C1145 C1149 1.408 . S
C1146 C1144 1.363 . S
C1146 C1147 1.370 . S
C1146 C1150 1.524 . S
C1147 C1139 1.503 . S
C1147 C1146 1.370 . S
C1147 C1148 1.403 . S
C1148 C1147 1.403 . S
C1148 C1149 1.404 . S
C1148 C1151 1.539 . S
C1149 C1145 1.408 . S
C1149 C1148 1.404 . S
C1149 H1161 0.930 . S
C1150 C1146 1.524 . S
C1150 H1162 0.956 . S
C1150 H1163 0.961 . S
C1150 H1164 0.961 . S
C1151 C1148 1.539 . S
C1151 H1165 0.958 . S
C1151 H1166 0.961 . S
C1151 H1167 0.960 . S
H1152 C1136 0.931 . S
H1153 C1141 0.929 . S
H1154 C1142 0.960 . S
H1155 C1142 0.962 . S
H1156 C1142 0.960 . S
H1157 C1143 0.961 . S
H1158 C1143 0.961 . S
H1159 C1143 0.961 . S
H1160 C1144 0.931 . S
H1161 C1149 0.930 . S
H1162 C1150 0.956 . S
H1163 C1150 0.961 . S
H1164 C1150 0.961 . S
H1165 C1151 0.958 . S
H1166 C1151 0.961 . S
H1167 C1151 0.960 . S
C1168 C1169 1.391 . S
C1168 C1170 1.394 1_565 S
C1168 H1184 0.933 . S
C1169 C1168 1.391 . S
C1169 C1173 1.376 . S
C1170 C1168 1.394 1_545 S
C1170 C1171 1.363 1_545 S
C1170 C1174 1.531 . S
C1171 C1170 1.363 1_565 S
C1171 C1172 1.431 . S
C1171 C1179 1.496 1_565 S
C1172 C1171 1.431 . S
C1172 C1173 1.392 . S
C1172 C1175 1.511 . S
C1173 C1169 1.376 . S
C1173 C1172 1.392 . S
C1173 H1185 0.929 . S
C1174 C1170 1.531 . S
C1174 H1186 0.960 . S
C1174 H1187 0.962 1_545 S
C1174 H1188 0.960 . S
C1175 C1172 1.511 . S
C1175 H1189 0.961 . S
C1175 H1190 0.961 . S
C1175 H1191 0.961 1_565 S
C1176 C1177 1.370 1_565 S
C1176 C1178 1.363 . S
C1176 H1192 0.931 . S
C1177 C1176 1.370 1_545 S
C1177 C1181 1.408 . S
C1178 C1176 1.363 . S
C1178 C1179 1.350 1_565 S
C1178 C1182 1.524 . S
C1179 C1171 1.496 1_545 S
C1179 C1178 1.350 1_545 S
C1179 C1180 1.426 . S
C1180 C1179 1.426 . S
C1180 C1181 1.404 . S
C1180 C1183 1.539 . S
C1181 C1177 1.408 . S
C1181 C1180 1.404 . S
C1181 H1193 0.930 . S
C1182 C1178 1.524 . S
C1182 H1194 0.956 . S
C1182 H1195 0.961 . S
C1182 H1196 0.961 . S
C1183 C1180 1.539 . S
C1183 H1197 0.958 . S
C1183 H1198 0.961 . S
C1183 H1199 0.960 . S
H1184 C1168 0.933 . S
H1185 C1173 0.929 . S
H1186 C1174 0.960 . S
H1187 C1174 0.962 1_565 S
H1188 C1174 0.960 . S
H1189 C1175 0.961 . S
H1190 C1175 0.961 . S
H1191 C1175 0.961 1_545 S
H1192 C1176 0.931 . S
H1193 C1181 0.930 . S
H1194 C1182 0.956 . S
H1195 C1182 0.961 . S
H1196 C1182 0.961 . S
H1197 C1183 0.958 . S
H1198 C1183 0.961 . S
H1199 C1183 0.960 . S
C1200 C1201 1.391 . S
C1200 C1202 1.394 . S
C1200 H1216 0.931 . S
C1201 C1200 1.391 . S
C1201 C1205 1.376 . S
C1202 C1200 1.394 . S
C1202 C1203 1.369 . S
C1202 C1206 1.531 . S
C1203 C1202 1.369 . S
C1203 C1204 1.410 . S
C1203 C1211 1.503 . S
C1204 C1203 1.410 . S
C1204 C1205 1.392 . S
C1204 C1207 1.511 . S
C1205 C1201 1.376 . S
C1205 C1204 1.392 . S
C1205 H1217 0.929 . S
C1206 C1202 1.531 . S
C1206 H1218 0.960 . S
C1206 H1219 0.962 . S
C1206 H1220 0.960 . S
C1207 C1204 1.511 . S
C1207 H1221 0.961 . S
C1207 H1222 0.961 . S
C1207 H1223 0.961 . S
C1208 C1209 1.370 . S
C1208 C1210 1.363 . S
C1208 H1224 0.931 . S
C1209 C1208 1.370 . S
C1209 C1213 1.408 . S
C1210 C1208 1.363 . S
C1210 C1211 1.370 . S
C1210 C1214 1.524 . S
C1211 C1203 1.503 . S
C1211 C1210 1.370 . S
C1211 C1212 1.403 . S
C1212 C1211 1.403 . S
C1212 C1213 1.404 . S
C1212 C1215 1.539 . S
C1213 C1209 1.408 . S
C1213 C1212 1.404 . S
C1213 H1225 0.930 . S
C1214 C1210 1.524 . S
C1214 H1226 0.956 . S
C1214 H1227 0.961 . S
C1214 H1228 0.961 . S
C1215 C1212 1.539 . S
C1215 H1229 0.958 . S
C1215 H1230 0.961 . S
C1215 H1231 0.960 . S
H1216 C1200 0.931 . S
H1217 C1205 0.929 . S
H1218 C1206 0.960 . S
H1219 C1206 0.962 . S
H1220 C1206 0.960 . S
H1221 C1207 0.961 . S
H1222 C1207 0.961 . S
H1223 C1207 0.961 . S
H1224 C1208 0.931 . S
H1225 C1213 0.930 . S
H1226 C1214 0.956 . S
H1227 C1214 0.961 . S
H1228 C1214 0.961 . S
H1229 C1215 0.958 . S
H1230 C1215 0.961 . S
H1231 C1215 0.960 . S
C1232 C1233 1.391 . S
C1232 C1234 1.394 . S
C1232 H1248 0.931 . S
C1233 C1232 1.391 . S
C1233 C1237 1.376 . S
C1234 C1232 1.394 . S
C1234 C1235 1.369 . S
C1234 C1238 1.531 . S
C1235 C1234 1.369 . S
C1235 C1236 1.410 . S
C1235 C1243 1.503 . S
C1236 C1235 1.410 . S
C1236 C1237 1.392 . S
C1236 C1239 1.511 . S
C1237 C1233 1.376 . S
C1237 C1236 1.392 . S
C1237 H1249 0.929 . S
C1238 C1234 1.531 . S
C1238 H1250 0.960 . S
C1238 H1251 0.962 . S
C1238 H1252 0.960 . S
C1239 C1236 1.511 . S
C1239 H1253 0.961 . S
C1239 H1254 0.961 . S
C1239 H1255 0.961 . S
C1240 C1241 1.370 . S
C1240 C1242 1.363 . S
C1240 H1256 0.931 . S
C1241 C1240 1.370 . S
C1241 C1245 1.408 . S
C1242 C1240 1.363 . S
C1242 C1243 1.370 . S
C1242 C1246 1.524 . S
C1243 C1235 1.503 . S
C1243 C1242 1.370 . S
C1243 C1244 1.403 . S
C1244 C1243 1.403 . S
C1244 C1245 1.404 . S
C1244 C1247 1.539 . S
C1245 C1241 1.408 . S
C1245 C1244 1.404 . S
C1245 H1257 0.930 . S
C1246 C1242 1.524 . S
C1246 H1258 0.956 . S
C1246 H1259 0.961 . S
C1246 H1260 0.961 . S
C1247 C1244 1.539 . S
C1247 H1261 0.958 . S
C1247 H1262 0.961 . S
C1247 H1263 0.960 . S
H1248 C1232 0.931 . S
H1249 C1237 0.929 . S
H1250 C1238 0.960 . S
H1251 C1238 0.962 . S
H1252 C1238 0.960 . S
H1253 C1239 0.961 . S
H1254 C1239 0.961 . S
H1255 C1239 0.961 . S
H1256 C1240 0.931 . S
H1257 C1245 0.930 . S
H1258 C1246 0.956 . S
H1259 C1246 0.961 . S
H1260 C1246 0.961 . S
H1261 C1247 0.958 . S
H1262 C1247 0.961 . S
H1263 C1247 0.960 . S
C1264 C1265 1.391 . S
C1264 C1266 1.394 . S
C1264 H1280 0.931 . S
C1265 C1264 1.391 . S
C1265 C1269 1.376 . S
C1266 C1264 1.394 . S
C1266 C1267 1.369 . S
C1266 C1270 1.531 . S
C1267 C1266 1.369 . S
C1267 C1268 1.410 . S
C1267 C1275 1.503 . S
C1268 C1267 1.410 . S
C1268 C1269 1.392 . S
C1268 C1271 1.511 . S
C1269 C1265 1.376 . S
C1269 C1268 1.392 . S
C1269 H1281 0.929 . S
C1270 C1266 1.531 . S
C1270 H1282 0.960 . S
C1270 H1283 0.962 . S
C1270 H1284 0.960 . S
C1271 C1268 1.511 . S
C1271 H1285 0.961 . S
C1271 H1286 0.961 . S
C1271 H1287 0.961 . S
C1272 C1273 1.370 . S
C1272 C1274 1.363 . S
C1272 H1288 0.931 . S
C1273 C1272 1.370 . S
C1273 C1277 1.408 . S
C1274 C1272 1.363 . S
C1274 C1275 1.370 . S
C1274 C1278 1.524 . S
C1275 C1267 1.503 . S
C1275 C1274 1.370 . S
C1275 C1276 1.403 . S
C1276 C1275 1.403 . S
C1276 C1277 1.404 . S
C1276 C1279 1.539 . S
C1277 C1273 1.408 . S
C1277 C1276 1.404 . S
C1277 H1289 0.930 . S
C1278 C1274 1.524 . S
C1278 H1290 0.956 . S
C1278 H1291 0.961 . S
C1278 H1292 0.961 . S
C1279 C1276 1.539 . S
C1279 H1293 0.958 . S
C1279 H1294 0.961 . S
C1279 H1295 0.960 . S
H1280 C1264 0.931 . S
H1281 C1269 0.929 . S
H1282 C1270 0.960 . S
H1283 C1270 0.962 . S
H1284 C1270 0.960 . S
H1285 C1271 0.961 . S
H1286 C1271 0.961 . S
H1287 C1271 0.961 . S
H1288 C1272 0.931 . S
H1289 C1277 0.930 . S
H1290 C1278 0.956 . S
H1291 C1278 0.961 . S
H1292 C1278 0.961 . S
H1293 C1279 0.958 . S
H1294 C1279 0.961 . S
H1295 C1279 0.960 . S
C1296 C1297 1.391 . S
C1296 C1298 1.394 . S
C1296 H1312 0.931 . S
C1297 C1296 1.391 . S
C1297 C1301 1.376 . S
C1298 C1296 1.394 . S
C1298 C1299 1.369 . S
C1298 C1302 1.531 . S
C1299 C1298 1.369 . S
C1299 C1300 1.410 . S
C1299 C1307 1.503 . S
C1300 C1299 1.410 . S
C1300 C1301 1.392 . S
C1300 C1303 1.511 . S
C1301 C1297 1.376 . S
C1301 C1300 1.392 . S
C1301 H1313 0.929 . S
C1302 C1298 1.531 . S
C1302 H1314 0.960 1_565 S
C1302 H1315 0.962 . S
C1302 H1316 0.960 1_565 S
C1303 C1300 1.511 . S
C1303 H1317 0.961 . S
C1303 H1318 0.961 . S
C1303 H1319 0.961 1_565 S
C1304 C1305 1.370 . S
C1304 C1306 1.363 . S
C1304 H1320 0.931 . S
C1305 C1304 1.370 . S
C1305 C1309 1.408 1_565 S
C1306 C1304 1.363 . S
C1306 C1307 1.370 . S
C1306 C1310 1.524 . S
C1307 C1299 1.503 . S
C1307 C1306 1.370 . S
C1307 C1308 1.403 1_565 S
C1308 C1307 1.403 1_545 S
C1308 C1309 1.404 . S
C1308 C1311 1.539 . S
C1309 C1305 1.408 1_545 S
C1309 C1308 1.404 . S
C1309 H1321 0.930 . S
C1310 C1306 1.524 . S
C1310 H1322 0.956 . S
C1310 H1323 0.961 . S
C1310 H1324 0.961 . S
C1311 C1308 1.539 . S
C1311 H1325 0.958 . S
C1311 H1326 0.961 . S
C1311 H1327 0.960 . S
H1312 C1296 0.931 . S
H1313 C1301 0.929 . S
H1314 C1302 0.960 1_545 S
H1315 C1302 0.962 . S
H1316 C1302 0.960 1_545 S
H1317 C1303 0.961 . S
H1318 C1303 0.961 . S
H1319 C1303 0.961 1_545 S
H1320 C1304 0.931 . S
H1321 C1309 0.930 . S
H1322 C1310 0.956 . S
H1323 C1310 0.961 . S
H1324 C1310 0.961 . S
H1325 C1311 0.958 . S
H1326 C1311 0.961 . S
H1327 C1311 0.960 . S
C1328 C1329 1.391 . S
C1328 C1330 1.394 . S
C1328 H1344 0.931 . S
C1329 C1328 1.391 . S
C1329 C1333 1.376 . S
C1330 C1328 1.394 . S
C1330 C1331 1.369 . S
C1330 C1334 1.531 . S
C1331 C1330 1.369 . S
C1331 C1332 1.410 . S
C1331 C1339 1.503 . S
C1332 C1331 1.410 . S
C1332 C1333 1.392 . S
C1332 C1335 1.511 . S
C1333 C1329 1.376 . S
C1333 C1332 1.392 . S
C1333 H1345 0.929 . S
C1334 C1330 1.531 . S
C1334 H1346 0.960 . S
C1334 H1347 0.962 . S
C1334 H1348 0.960 . S
C1335 C1332 1.511 . S
C1335 H1349 0.961 . S
C1335 H1350 0.961 . S
C1335 H1351 0.961 . S
C1336 C1337 1.370 . S
C1336 C1338 1.363 . S
C1336 H1352 0.931 . S
C1337 C1336 1.370 . S
C1337 C1341 1.408 . S
C1338 C1336 1.363 . S
C1338 C1339 1.370 . S
C1338 C1342 1.524 . S
C1339 C1331 1.503 . S
C1339 C1338 1.370 . S
C1339 C1340 1.403 . S
C1340 C1339 1.403 . S
C1340 C1341 1.404 . S
C1340 C1343 1.539 . S
C1341 C1337 1.408 . S
C1341 C1340 1.404 . S
C1341 H1353 0.930 . S
C1342 C1338 1.524 . S
C1342 H1354 0.956 . S
C1342 H1355 0.961 . S
C1342 H1356 0.961 . S
C1343 C1340 1.539 . S
C1343 H1357 0.958 . S
C1343 H1358 0.961 . S
C1343 H1359 0.960 . S
H1344 C1328 0.931 . S
H1345 C1333 0.929 . S
H1346 C1334 0.960 . S
H1347 C1334 0.962 . S
H1348 C1334 0.960 . S
H1349 C1335 0.961 . S
H1350 C1335 0.961 . S
H1351 C1335 0.961 . S
H1352 C1336 0.931 . S
H1353 C1341 0.930 . S
H1354 C1342 0.956 . S
H1355 C1342 0.961 . S
H1356 C1342 0.961 . S
H1357 C1343 0.958 . S
H1358 C1343 0.961 . S
H1359 C1343 0.960 . S
C1360 C1361 1.391 . S
C1360 C1362 1.394 . S
C1360 H1376 0.931 . S
C1361 C1360 1.391 . S
C1361 C1365 1.376 . S
C1362 C1360 1.394 . S
C1362 C1363 1.369 . S
C1362 C1366 1.531 . S
C1363 C1362 1.369 . S
C1363 C1364 1.410 . S
C1363 C1371 1.503 . S
C1364 C1363 1.410 . S
C1364 C1365 1.392 . S
C1364 C1367 1.511 . S
C1365 C1361 1.376 . S
C1365 C1364 1.392 . S
C1365 H1377 0.929 . S
C1366 C1362 1.531 . S
C1366 H1378 0.960 . S
C1366 H1379 0.962 . S
C1366 H1380 0.960 . S
C1367 C1364 1.511 . S
C1367 H1381 0.961 . S
C1367 H1382 0.961 . S
C1367 H1383 0.961 . S
C1368 C1369 1.370 . S
C1368 C1370 1.363 . S
C1368 H1384 0.931 . S
C1369 C1368 1.370 . S
C1369 C1373 1.408 . S
C1370 C1368 1.363 . S
C1370 C1371 1.370 . S
C1370 C1374 1.524 . S
C1371 C1363 1.503 . S
C1371 C1370 1.370 . S
C1371 C1372 1.403 . S
C1372 C1371 1.403 . S
C1372 C1373 1.404 . S
C1372 C1375 1.539 . S
C1373 C1369 1.408 . S
C1373 C1372 1.404 . S
C1373 H1385 0.930 . S
C1374 C1370 1.524 . S
C1374 H1386 0.956 . S
C1374 H1387 0.961 . S
C1374 H1388 0.961 . S
C1375 C1372 1.539 . S
C1375 H1389 0.958 . S
C1375 H1390 0.961 . S
C1375 H1391 0.960 . S
H1376 C1360 0.931 . S
H1377 C1365 0.929 . S
H1378 C1366 0.960 . S
H1379 C1366 0.962 . S
H1380 C1366 0.960 . S
H1381 C1367 0.961 . S
H1382 C1367 0.961 . S
H1383 C1367 0.961 . S
H1384 C1368 0.931 . S
H1385 C1373 0.930 . S
H1386 C1374 0.956 . S
H1387 C1374 0.961 . S
H1388 C1374 0.961 . S
H1389 C1375 0.958 . S
H1390 C1375 0.961 . S
H1391 C1375 0.960 . S
C1392 C1393 1.391 . S
C1392 C1394 1.394 . S
C1392 H1408 0.931 . S
C1393 C1392 1.391 . S
C1393 C1397 1.376 . S
C1394 C1392 1.394 . S
C1394 C1395 1.369 . S
C1394 C1398 1.531 . S
C1395 C1394 1.369 . S
C1395 C1396 1.410 . S
C1395 C1403 1.503 . S
C1396 C1395 1.410 . S
C1396 C1397 1.392 . S
C1396 C1399 1.511 . S
C1397 C1393 1.376 . S
C1397 C1396 1.392 . S
C1397 H1409 0.929 . S
C1398 C1394 1.531 . S
C1398 H1410 0.960 . S
C1398 H1411 0.962 . S
C1398 H1412 0.960 . S
C1399 C1396 1.511 . S
C1399 H1413 0.961 . S
C1399 H1414 0.961 . S
C1399 H1415 0.961 . S
C1400 C1401 1.370 . S
C1400 C1402 1.363 . S
C1400 H1416 0.931 . S
C1401 C1400 1.370 . S
C1401 C1405 1.408 . S
C1402 C1400 1.363 . S
C1402 C1403 1.370 . S
C1402 C1406 1.524 . S
C1403 C1395 1.503 . S
C1403 C1402 1.370 . S
C1403 C1404 1.403 . S
C1404 C1403 1.403 . S
C1404 C1405 1.404 . S
C1404 C1407 1.539 . S
C1405 C1401 1.408 . S
C1405 C1404 1.404 . S
C1405 H1417 0.930 . S
C1406 C1402 1.524 . S
C1406 H1418 0.956 . S
C1406 H1419 0.961 . S
C1406 H1420 0.961 . S
C1407 C1404 1.539 . S
C1407 H1421 0.958 . S
C1407 H1422 0.961 . S
C1407 H1423 0.960 . S
H1408 C1392 0.931 . S
H1409 C1397 0.929 . S
H1410 C1398 0.960 . S
H1411 C1398 0.962 . S
H1412 C1398 0.960 . S
H1413 C1399 0.961 . S
H1414 C1399 0.961 . S
H1415 C1399 0.961 . S
H1416 C1400 0.931 . S
H1417 C1405 0.930 . S
H1418 C1406 0.956 . S
H1419 C1406 0.961 . S
H1420 C1406 0.961 . S
H1421 C1407 0.958 . S
H1422 C1407 0.961 . S
H1423 C1407 0.960 . S
C1424 C1425 1.391 . S
C1424 C1426 1.394 . S
C1424 H1440 0.931 . S
C1425 C1424 1.391 . S
C1425 C1429 1.376 . S
C1426 C1424 1.394 . S
C1426 C1427 1.369 . S
C1426 C1430 1.531 . S
C1427 C1426 1.369 . S
C1427 C1428 1.410 . S
C1427 C1435 1.503 . S
C1428 C1427 1.410 . S
C1428 C1429 1.392 . S
C1428 C1431 1.511 . S
C1429 C1425 1.376 . S
C1429 C1428 1.392 . S
C1429 H1441 0.929 . S
C1430 C1426 1.531 . S
C1430 H1442 0.960 . S
C1430 H1443 0.962 . S
C1430 H1444 0.960 . S
C1431 C1428 1.511 . S
C1431 H1445 0.961 . S
C1431 H1446 0.961 . S
C1431 H1447 0.961 . S
C1432 C1433 1.370 . S
C1432 C1434 1.363 . S
C1432 H1448 0.931 . S
C1433 C1432 1.370 . S
C1433 C1437 1.408 . S
C1434 C1432 1.363 . S
C1434 C1435 1.370 . S
C1434 C1438 1.524 . S
C1435 C1427 1.503 . S
C1435 C1434 1.370 . S
C1435 C1436 1.403 . S
C1436 C1435 1.403 . S
C1436 C1437 1.404 . S
C1436 C1439 1.539 . S
C1437 C1433 1.408 . S
C1437 C1436 1.404 . S
C1437 H1449 0.930 . S
C1438 C1434 1.524 . S
C1438 H1450 0.956 . S
C1438 H1451 0.961 . S
C1438 H1452 0.961 . S
C1439 C1436 1.539 . S
C1439 H1453 0.958 . S
C1439 H1454 0.961 . S
C1439 H1455 0.960 . S
H1440 C1424 0.931 . S
H1441 C1429 0.929 . S
H1442 C1430 0.960 . S
H1443 C1430 0.962 . S
H1444 C1430 0.960 . S
H1445 C1431 0.961 . S
H1446 C1431 0.961 . S
H1447 C1431 0.961 . S
H1448 C1432 0.931 . S
H1449 C1437 0.930 . S
H1450 C1438 0.956 . S
H1451 C1438 0.961 . S
H1452 C1438 0.961 . S
H1453 C1439 0.958 . S
H1454 C1439 0.961 . S
H1455 C1439 0.960 . S
C1456 C1457 1.391 . S
C1456 C1458 1.394 . S
C1456 H1472 0.931 . S
C1457 C1456 1.391 . S
C1457 C1461 1.376 . S
C1458 C1456 1.394 . S
C1458 C1459 1.369 . S
C1458 C1462 1.531 . S
C1459 C1458 1.369 . S
C1459 C1460 1.410 . S
C1459 C1467 1.503 . S
C1460 C1459 1.410 . S
C1460 C1461 1.392 . S
C1460 C1463 1.511 . S
C1461 C1457 1.376 . S
C1461 C1460 1.392 . S
C1461 H1473 0.929 . S
C1462 C1458 1.531 . S
C1462 H1474 0.960 . S
C1462 H1475 0.962 . S
C1462 H1476 0.960 . S
C1463 C1460 1.511 . S
C1463 H1477 0.961 . S
C1463 H1478 0.961 . S
C1463 H1479 0.961 . S
C1464 C1465 1.370 . S
C1464 C1466 1.363 . S
C1464 H1480 0.931 . S
C1465 C1464 1.370 . S
C1465 C1469 1.408 . S
C1466 C1464 1.363 . S
C1466 C1467 1.370 . S
C1466 C1470 1.524 . S
C1467 C1459 1.503 . S
C1467 C1466 1.370 . S
C1467 C1468 1.403 . S
C1468 C1467 1.403 . S
C1468 C1469 1.404 . S
C1468 C1471 1.539 . S
C1469 C1465 1.408 . S
C1469 C1468 1.404 . S
C1469 H1481 0.930 . S
C1470 C1466 1.524 . S
C1470 H1482 0.956 . S
C1470 H1483 0.961 . S
C1470 H1484 0.961 . S
C1471 C1468 1.539 . S
C1471 H1485 0.958 . S
C1471 H1486 0.961 . S
C1471 H1487 0.960 . S
H1472 C1456 0.931 . S
H1473 C1461 0.929 . S
H1474 C1462 0.960 . S
H1475 C1462 0.962 . S
H1476 C1462 0.960 . S
H1477 C1463 0.961 . S
H1478 C1463 0.961 . S
H1479 C1463 0.961 . S
H1480 C1464 0.931 . S
H1481 C1469 0.930 . S
H1482 C1470 0.956 . S
H1483 C1470 0.961 . S
H1484 C1470 0.961 . S
H1485 C1471 0.958 . S
H1486 C1471 0.961 . S
H1487 C1471 0.960 . S
C1488 C1489 1.391 . S
C1488 C1490 1.394 . S
C1488 H1504 0.931 . S
C1489 C1488 1.391 . S
C1489 C1493 1.376 . S
C1490 C1488 1.394 . S
C1490 C1491 1.369 . S
C1490 C1494 1.531 . S
C1491 C1490 1.369 . S
C1491 C1492 1.410 . S
C1491 C1499 1.503 . S
C1492 C1491 1.410 . S
C1492 C1493 1.392 . S
C1492 C1495 1.511 1_455 S
C1493 C1489 1.376 . S
C1493 C1492 1.392 . S
C1493 H1505 0.929 . S
C1494 C1490 1.531 . S
C1494 H1506 0.960 . S
C1494 H1507 0.962 . S
C1494 H1508 0.960 . S
C1495 C1492 1.511 1_655 S
C1495 H1509 0.961 . S
C1495 H1510 0.947 1_655 S
C1495 H1511 0.961 . S
C1496 C1497 1.370 . S
C1496 C1498 1.363 . S
C1496 H1512 0.931 . S
C1497 C1496 1.370 . S
C1497 C1501 1.408 . S
C1498 C1496 1.363 . S
C1498 C1499 1.370 . S
C1498 C1502 1.524 . S
C1499 C1491 1.503 . S
C1499 C1498 1.370 . S
C1499 C1500 1.403 . S
C1500 C1499 1.403 . S
C1500 C1501 1.404 . S
C1500 C1503 1.539 1_455 S
C1501 C1497 1.408 . S
C1501 C1500 1.404 . S
C1501 H1513 0.931 1_455 S
C1502 C1498 1.524 . S
C1502 H1514 0.956 . S
C1502 H1515 0.961 . S
C1502 H1516 0.961 . S
C1503 C1500 1.539 1_655 S
C1503 H1517 0.958 . S
C1503 H1518 0.961 . S
C1503 H1519 0.960 . S
H1504 C1488 0.931 . S
H1505 C1493 0.929 . S
H1506 C1494 0.960 . S
H1507 C1494 0.962 . S
H1508 C1494 0.960 . S
H1509 C1495 0.961 . S
H1510 C1495 0.947 1_455 S
H1511 C1495 0.961 . S
H1512 C1496 0.931 . S
H1513 C1501 0.931 1_655 S
H1514 C1502 0.956 . S
H1515 C1502 0.961 . S
H1516 C1502 0.961 . S
H1517 C1503 0.958 . S
H1518 C1503 0.961 . S
H1519 C1503 0.960 . S
C1520 C1521 1.391 . S
C1520 C1522 1.394 . S
C1520 H1536 0.931 . S
C1521 C1520 1.391 . S
C1521 C1525 1.376 . S
C1522 C1520 1.394 . S
C1522 C1523 1.369 . S
C1522 C1526 1.531 . S
C1523 C1522 1.369 . S
C1523 C1524 1.410 . S
C1523 C1531 1.503 . S
C1524 C1523 1.410 . S
C1524 C1525 1.392 . S
C1524 C1527 1.511 . S
C1525 C1521 1.376 . S
C1525 C1524 1.392 . S
C1525 H1537 0.929 . S
C1526 C1522 1.531 . S
C1526 H1538 0.960 . S
C1526 H1539 0.962 . S
C1526 H1540 0.960 . S
C1527 C1524 1.511 . S
C1527 H1541 0.961 . S
C1527 H1542 0.961 . S
C1527 H1543 0.961 . S
C1528 C1529 1.370 . S
C1528 C1530 1.363 . S
C1528 H1544 0.931 . S
C1529 C1528 1.370 . S
C1529 C1533 1.408 . S
C1530 C1528 1.363 . S
C1530 C1531 1.370 . S
C1530 C1534 1.524 . S
C1531 C1523 1.503 . S
C1531 C1530 1.370 . S
C1531 C1532 1.403 . S
C1532 C1531 1.403 . S
C1532 C1533 1.404 . S
C1532 C1535 1.539 . S
C1533 C1529 1.408 . S
C1533 C1532 1.404 . S
C1533 H1545 0.930 . S
C1534 C1530 1.524 . S
C1534 H1546 0.956 . S
C1534 H1547 0.961 . S
C1534 H1548 0.961 . S
C1535 C1532 1.539 . S
C1535 H1549 0.958 . S
C1535 H1550 0.961 . S
C1535 H1551 0.960 . S
H1536 C1520 0.931 . S
H1537 C1525 0.929 . S
H1538 C1526 0.960 . S
H1539 C1526 0.962 . S
H1540 C1526 0.960 . S
H1541 C1527 0.961 . S
H1542 C1527 0.961 . S
H1543 C1527 0.961 . S
H1544 C1528 0.931 . S
H1545 C1533 0.930 . S
H1546 C1534 0.956 . S
H1547 C1534 0.961 . S
H1548 C1534 0.961 . S
H1549 C1535 0.958 . S
H1550 C1535 0.961 . S
H1551 C1535 0.960 . S
C1552 C1553 1.391 . S
C1552 C1554 1.394 . S
C1552 H1568 0.931 . S
C1553 C1552 1.391 . S
C1553 C1557 1.376 1_655 S
C1554 C1552 1.394 . S
C1554 C1555 1.369 1_655 S
C1554 C1558 1.531 . S
C1555 C1554 1.369 1_455 S
C1555 C1556 1.410 . S
C1555 C1563 1.503 . S
C1556 C1555 1.410 . S
C1556 C1557 1.392 . S
C1556 C1559 1.511 . S
C1557 C1553 1.376 1_455 S
C1557 C1556 1.392 . S
C1557 H1569 0.929 . S
C1558 C1554 1.531 . S
C1558 H1570 0.960 . S
C1558 H1571 0.962 . S
C1558 H1572 0.960 . S
C1559 C1556 1.511 . S
C1559 H1573 0.961 . S
C1559 H1574 0.961 . S
C1559 H1575 0.961 . S
C1560 C1561 1.370 1_655 S
C1560 C1562 1.363 . S
C1560 H1576 0.931 . S
C1561 C1560 1.370 1_455 S
C1561 C1565 1.408 . S
C1562 C1560 1.363 . S
C1562 C1563 1.370 1_655 S
C1562 C1566 1.524 . S
C1563 C1555 1.503 . S
C1563 C1562 1.370 1_455 S
C1563 C1564 1.403 . S
C1564 C1563 1.403 . S
C1564 C1565 1.404 . S
C1564 C1567 1.539 . S
C1565 C1561 1.408 . S
C1565 C1564 1.404 . S
C1565 H1577 0.930 . S
C1566 C1562 1.524 . S
C1566 H1578 0.956 . S
C1566 H1579 0.961 . S
C1566 H1580 0.961 . S
C1567 C1564 1.539 . S
C1567 H1581 0.958 . S
C1567 H1582 0.961 . S
C1567 H1583 0.960 . S
H1568 C1552 0.931 . S
H1569 C1557 0.929 . S
H1570 C1558 0.960 . S
H1571 C1558 0.962 . S
H1572 C1558 0.960 . S
H1573 C1559 0.961 . S
H1574 C1559 0.961 . S
H1575 C1559 0.961 . S
H1576 C1560 0.931 . S
H1577 C1565 0.930 . S
H1578 C1566 0.956 . S
H1579 C1566 0.961 . S
H1580 C1566 0.961 . S
H1581 C1567 0.958 . S
H1582 C1567 0.961 . S
H1583 C1567 0.960 . S
C1584 C1585 1.391 . S
C1584 C1586 1.394 . S
C1584 H1600 0.931 . S
C1585 C1584 1.391 . S
C1585 C1589 1.376 . S
C1586 C1584 1.394 . S
C1586 C1587 1.369 . S
C1586 C1590 1.531 . S
C1587 C1586 1.369 . S
C1587 C1588 1.410 . S
C1587 C1595 1.503 . S
C1588 C1587 1.410 . S
C1588 C1589 1.392 . S
C1588 C1591 1.511 . S
C1589 C1585 1.376 . S
C1589 C1588 1.392 . S
C1589 H1601 0.929 . S
C1590 C1586 1.531 . S
C1590 H1602 0.960 . S
C1590 H1603 0.962 . S
C1590 H1604 0.960 . S
C1591 C1588 1.511 . S
C1591 H1605 0.961 . S
C1591 H1606 0.961 . S
C1591 H1607 0.961 . S
C1592 C1593 1.370 . S
C1592 C1594 1.363 . S
C1592 H1608 0.931 . S
C1593 C1592 1.370 . S
C1593 C1597 1.408 . S
C1594 C1592 1.363 . S
C1594 C1595 1.370 . S
C1594 C1598 1.524 . S
C1595 C1587 1.503 . S
C1595 C1594 1.370 . S
C1595 C1596 1.403 . S
C1596 C1595 1.403 . S
C1596 C1597 1.404 . S
C1596 C1599 1.539 . S
C1597 C1593 1.408 . S
C1597 C1596 1.404 . S
C1597 H1609 0.930 . S
C1598 C1594 1.524 . S
C1598 H1610 0.956 . S
C1598 H1611 0.961 . S
C1598 H1612 0.961 . S
C1599 C1596 1.539 . S
C1599 H1613 0.958 . S
C1599 H1614 0.961 . S
C1599 H1615 0.960 . S
H1600 C1584 0.931 . S
H1601 C1589 0.929 . S
H1602 C1590 0.960 . S
H1603 C1590 0.962 . S
H1604 C1590 0.960 . S
H1605 C1591 0.961 . S
H1606 C1591 0.961 . S
H1607 C1591 0.961 . S
H1608 C1592 0.931 . S
H1609 C1597 0.930 . S
H1610 C1598 0.956 . S
H1611 C1598 0.961 . S
H1612 C1598 0.961 . S
H1613 C1599 0.958 . S
H1614 C1599 0.961 . S
H1615 C1599 0.960 . S
C1616 C1617 1.391 . S
C1616 C1618 1.394 . S
C1616 H1632 0.931 . S
C1617 C1616 1.391 . S
C1617 C1621 1.376 . S
C1618 C1616 1.394 . S
C1618 C1619 1.369 . S
C1618 C1622 1.531 . S
C1619 C1618 1.369 . S
C1619 C1620 1.410 . S
C1619 C1627 1.503 . S
C1620 C1619 1.410 . S
C1620 C1621 1.392 . S
C1620 C1623 1.511 . S
C1621 C1617 1.376 . S
C1621 C1620 1.392 . S
C1621 H1633 0.929 . S
C1622 C1618 1.531 . S
C1622 H1634 0.960 . S
C1622 H1635 0.962 . S
C1622 H1636 0.960 . S
C1623 C1620 1.511 . S
C1623 H1637 0.961 . S
C1623 H1638 0.961 . S
C1623 H1639 0.961 . S
C1624 C1625 1.370 . S
C1624 C1626 1.363 . S
C1624 H1640 0.931 . S
C1625 C1624 1.370 . S
C1625 C1629 1.408 . S
C1626 C1624 1.363 . S
C1626 C1627 1.370 . S
C1626 C1630 1.524 . S
C1627 C1619 1.503 . S
C1627 C1626 1.370 . S
C1627 C1628 1.403 . S
C1628 C1627 1.403 . S
C1628 C1629 1.404 . S
C1628 C1631 1.539 . S
C1629 C1625 1.408 . S
C1629 C1628 1.404 . S
C1629 H1641 0.930 . S
C1630 C1626 1.524 . S
C1630 H1642 0.956 . S
C1630 H1643 0.961 . S
C1630 H1644 0.961 . S
C1631 C1628 1.539 . S
C1631 H1645 0.958 . S
C1631 H1646 0.961 . S
C1631 H1647 0.960 . S
H1632 C1616 0.931 . S
H1633 C1621 0.929 . S
H1634 C1622 0.960 . S
H1635 C1622 0.962 . S
H1636 C1622 0.960 . S
H1637 C1623 0.961 . S
H1638 C1623 0.961 . S
H1639 C1623 0.961 . S
H1640 C1624 0.931 . S
H1641 C1629 0.930 . S
H1642 C1630 0.956 . S
H1643 C1630 0.961 . S
H1644 C1630 0.961 . S
H1645 C1631 0.958 . S
H1646 C1631 0.961 . S
H1647 C1631 0.960 . S
C1648 C1649 1.380 1_554 S
C1648 C1650 1.396 . S
C1648 H1664 0.939 . S
C1649 C1648 1.380 1_556 S
C1649 C1653 1.376 . S
C1650 C1648 1.396 . S
C1650 C1651 1.369 1_554 S
C1650 C1654 1.531 . S
C1651 C1650 1.369 1_556 S
C1651 C1652 1.410 . S
C1651 C1659 1.503 . S
C1652 C1651 1.410 . S
C1652 C1653 1.392 . S
C1652 C1655 1.511 . S
C1653 C1649 1.376 . S
C1653 C1652 1.392 . S
C1653 H1665 0.929 . S
C1654 C1650 1.531 . S
C1654 H1666 0.960 . S
C1654 H1667 0.962 . S
C1654 H1668 0.960 . S
C1655 C1652 1.511 . S
C1655 H1669 0.961 . S
C1655 H1670 0.961 . S
C1655 H1671 0.961 . S
C1656 C1657 1.370 . S
C1656 C1658 1.363 . S
C1656 H1672 0.931 . S
C1657 C1656 1.370 . S
C1657 C1661 1.408 1_554 S
C1658 C1656 1.363 . S
C1658 C1659 1.370 1_554 S
C1658 C1662 1.524 . S
C1659 C1651 1.503 . S
C1659 C1658 1.370 1_556 S
C1659 C1660 1.403 . S
C1660 C1659 1.403 . S
C1660 C1661 1.404 . S
C1660 C1663 1.539 . S
C1661 C1657 1.408 1_556 S
C1661 C1660 1.404 . S
C1661 H1673 0.930 . S
C1662 C1658 1.524 . S
C1662 H1674 0.956 . S
C1662 H1675 0.961 . S
C1662 H1676 0.961 . S
C1663 C1660 1.539 . S
C1663 H1677 0.958 . S
C1663 H1678 0.961 . S
C1663 H1679 0.960 . S
H1664 C1648 0.939 . S
H1665 C1653 0.929 . S
H1666 C1654 0.960 . S
H1667 C1654 0.962 . S
H1668 C1654 0.960 . S
H1669 C1655 0.961 . S
H1670 C1655 0.961 . S
H1671 C1655 0.961 . S
H1672 C1656 0.931 . S
H1673 C1661 0.930 . S
H1674 C1662 0.956 . S
H1675 C1662 0.961 . S
H1676 C1662 0.961 . S
H1677 C1663 0.958 . S
H1678 C1663 0.961 . S
H1679 C1663 0.960 . S
C1680 C1681 1.391 . S
C1680 C1682 1.394 . S
C1680 H1696 0.931 . S
C1681 C1680 1.391 . S
C1681 C1685 1.376 . S
C1682 C1680 1.394 . S
C1682 C1683 1.369 . S
C1682 C1686 1.531 . S
C1683 C1682 1.369 . S
C1683 C1684 1.410 . S
C1683 C1691 1.503 . S
C1684 C1683 1.410 . S
C1684 C1685 1.392 . S
C1684 C1687 1.511 . S
C1685 C1681 1.376 . S
C1685 C1684 1.392 . S
C1685 H1697 0.929 . S
C1686 C1682 1.531 . S
C1686 H1698 0.960 . S
C1686 H1699 0.962 . S
C1686 H1700 0.960 . S
C1687 C1684 1.511 . S
C1687 H1701 0.961 . S
C1687 H1702 0.961 . S
C1687 H1703 0.961 . S
C1688 C1689 1.370 . S
C1688 C1690 1.363 . S
C1688 H1704 0.931 . S
C1689 C1688 1.370 . S
C1689 C1693 1.408 . S
C1690 C1688 1.363 . S
C1690 C1691 1.370 . S
C1690 C1694 1.524 . S
C1691 C1683 1.503 . S
C1691 C1690 1.370 . S
C1691 C1692 1.403 . S
C1692 C1691 1.403 . S
C1692 C1693 1.404 . S
C1692 C1695 1.539 . S
C1693 C1689 1.408 . S
C1693 C1692 1.404 . S
C1693 H1705 0.930 . S
C1694 C1690 1.524 . S
C1694 H1706 0.956 . S
C1694 H1707 0.961 . S
C1694 H1708 0.961 . S
C1695 C1692 1.539 . S
C1695 H1709 0.958 . S
C1695 H1710 0.961 . S
C1695 H1711 0.960 . S
H1696 C1680 0.931 . S
H1697 C1685 0.929 . S
H1698 C1686 0.960 . S
H1699 C1686 0.962 . S
H1700 C1686 0.960 . S
H1701 C1687 0.961 . S
H1702 C1687 0.961 . S
H1703 C1687 0.961 . S
H1704 C1688 0.931 . S
H1705 C1693 0.930 . S
H1706 C1694 0.956 . S
H1707 C1694 0.961 . S
H1708 C1694 0.961 . S
H1709 C1695 0.958 . S
H1710 C1695 0.961 . S
H1711 C1695 0.960 . S
C1712 C1713 1.391 . S
C1712 C1714 1.394 . S
C1712 H1728 0.931 . S
C1713 C1712 1.391 . S
C1713 C1717 1.376 . S
C1714 C1712 1.394 . S
C1714 C1715 1.369 . S
C1714 C1718 1.531 . S
C1715 C1714 1.369 . S
C1715 C1716 1.410 . S
C1715 C1723 1.503 . S
C1716 C1715 1.410 . S
C1716 C1717 1.392 . S
C1716 C1719 1.511 . S
C1717 C1713 1.376 . S
C1717 C1716 1.392 . S
C1717 H1729 0.929 . S
C1718 C1714 1.531 . S
C1718 H1730 0.960 . S
C1718 H1731 0.962 . S
C1718 H1732 0.960 . S
C1719 C1716 1.511 . S
C1719 H1733 0.961 . S
C1719 H1734 0.961 . S
C1719 H1735 0.961 . S
C1720 C1721 1.370 . S
C1720 C1722 1.363 . S
C1720 H1736 0.931 . S
C1721 C1720 1.370 . S
C1721 C1725 1.408 . S
C1722 C1720 1.363 . S
C1722 C1723 1.370 . S
C1722 C1726 1.524 . S
C1723 C1715 1.503 . S
C1723 C1722 1.370 . S
C1723 C1724 1.403 . S
C1724 C1723 1.403 . S
C1724 C1725 1.404 . S
C1724 C1727 1.539 . S
C1725 C1721 1.408 . S
C1725 C1724 1.404 . S
C1725 H1737 0.930 . S
C1726 C1722 1.524 . S
C1726 H1738 0.956 . S
C1726 H1739 0.961 . S
C1726 H1740 0.961 . S
C1727 C1724 1.539 . S
C1727 H1741 0.958 . S
C1727 H1742 0.961 . S
C1727 H1743 0.960 . S
H1728 C1712 0.931 . S
H1729 C1717 0.929 . S
H1730 C1718 0.960 . S
H1731 C1718 0.962 . S
H1732 C1718 0.960 . S
H1733 C1719 0.961 . S
H1734 C1719 0.961 . S
H1735 C1719 0.961 . S
H1736 C1720 0.931 . S
H1737 C1725 0.930 . S
H1738 C1726 0.956 . S
H1739 C1726 0.961 . S
H1740 C1726 0.961 . S
H1741 C1727 0.958 . S
H1742 C1727 0.961 . S
H1743 C1727 0.960 . S
C1744 C1745 1.391 . S
C1744 C1746 1.394 . S
C1744 H1760 0.931 . S
C1745 C1744 1.391 . S
C1745 C1749 1.376 . S
C1746 C1744 1.394 . S
C1746 C1747 1.369 . S
C1746 C1750 1.531 . S
C1747 C1746 1.369 . S
C1747 C1748 1.410 . S
C1747 C1755 1.503 . S
C1748 C1747 1.410 . S
C1748 C1749 1.392 . S
C1748 C1751 1.511 . S
C1749 C1745 1.376 . S
C1749 C1748 1.392 . S
C1749 H1761 0.929 . S
C1750 C1746 1.531 . S
C1750 H1762 0.960 . S
C1750 H1763 0.962 . S
C1750 H1764 0.960 . S
C1751 C1748 1.511 . S
C1751 H1765 0.961 . S
C1751 H1766 0.961 . S
C1751 H1767 0.961 . S
C1752 C1753 1.370 . S
C1752 C1754 1.363 . S
C1752 H1768 0.931 . S
C1753 C1752 1.370 . S
C1753 C1757 1.408 . S
C1754 C1752 1.363 . S
C1754 C1755 1.370 . S
C1754 C1758 1.524 . S
C1755 C1747 1.503 . S
C1755 C1754 1.370 . S
C1755 C1756 1.403 . S
C1756 C1755 1.403 . S
C1756 C1757 1.404 . S
C1756 C1759 1.539 . S
C1757 C1753 1.408 . S
C1757 C1756 1.404 . S
C1757 H1769 0.930 . S
C1758 C1754 1.524 . S
C1758 H1770 0.956 . S
C1758 H1771 0.961 . S
C1758 H1772 0.961 . S
C1759 C1756 1.539 . S
C1759 H1773 0.958 . S
C1759 H1774 0.961 . S
C1759 H1775 0.960 . S
H1760 C1744 0.931 . S
H1761 C1749 0.929 . S
H1762 C1750 0.960 . S
H1763 C1750 0.962 . S
H1764 C1750 0.960 . S
H1765 C1751 0.961 . S
H1766 C1751 0.961 . S
H1767 C1751 0.961 . S
H1768 C1752 0.931 . S
H1769 C1757 0.930 . S
H1770 C1758 0.956 . S
H1771 C1758 0.961 . S
H1772 C1758 0.961 . S
H1773 C1759 0.958 . S
H1774 C1759 0.961 . S
H1775 C1759 0.960 . S
C1776 C1777 1.391 . S
C1776 C1778 1.394 . S
C1776 H1792 0.931 . S
C1777 C1776 1.391 . S
C1777 C1781 1.376 . S
C1778 C1776 1.394 . S
C1778 C1779 1.369 . S
C1778 C1782 1.531 . S
C1779 C1778 1.369 . S
C1779 C1780 1.410 . S
C1779 C1787 1.503 . S
C1780 C1779 1.410 . S
C1780 C1781 1.392 . S
C1780 C1783 1.511 . S
C1781 C1777 1.376 . S
C1781 C1780 1.392 . S
C1781 H1793 0.929 . S
C1782 C1778 1.531 . S
C1782 H1794 0.960 . S
C1782 H1795 0.962 . S
C1782 H1796 0.960 . S
C1783 C1780 1.511 . S
C1783 H1797 0.961 . S
C1783 H1798 0.961 . S
C1783 H1799 0.961 . S
C1784 C1785 1.370 . S
C1784 C1786 1.363 . S
C1784 H1800 0.931 . S
C1785 C1784 1.370 . S
C1785 C1789 1.408 . S
C1786 C1784 1.363 . S
C1786 C1787 1.370 . S
C1786 C1790 1.524 . S
C1787 C1779 1.503 . S
C1787 C1786 1.370 . S
C1787 C1788 1.403 . S
C1788 C1787 1.403 . S
C1788 C1789 1.404 . S
C1788 C1791 1.539 . S
C1789 C1785 1.408 . S
C1789 C1788 1.404 . S
C1789 H1801 0.930 . S
C1790 C1786 1.524 . S
C1790 H1802 0.956 . S
C1790 H1803 0.961 . S
C1790 H1804 0.961 . S
C1791 C1788 1.539 . S
C1791 H1805 0.958 . S
C1791 H1806 0.961 . S
C1791 H1807 0.960 . S
H1792 C1776 0.931 . S
H1793 C1781 0.929 . S
H1794 C1782 0.960 . S
H1795 C1782 0.962 . S
H1796 C1782 0.960 . S
H1797 C1783 0.961 . S
H1798 C1783 0.961 . S
H1799 C1783 0.961 . S
H1800 C1784 0.931 . S
H1801 C1789 0.930 . S
H1802 C1790 0.956 . S
H1803 C1790 0.961 . S
H1804 C1790 0.961 . S
H1805 C1791 0.958 . S
H1806 C1791 0.961 . S
H1807 C1791 0.960 . S
C1808 C1809 1.391 . S
C1808 C1810 1.394 . S
C1808 H1824 0.931 . S
C1809 C1808 1.391 . S
C1809 C1813 1.376 . S
C1810 C1808 1.394 . S
C1810 C1811 1.369 . S
C1810 C1814 1.531 . S
C1811 C1810 1.369 . S
C1811 C1812 1.410 . S
C1811 C1819 1.503 . S
C1812 C1811 1.410 . S
C1812 C1813 1.392 . S
C1812 C1815 1.511 . S
C1813 C1809 1.376 . S
C1813 C1812 1.392 . S
C1813 H1825 0.929 . S
C1814 C1810 1.531 . S
C1814 H1826 0.960 . S
C1814 H1827 0.962 . S
C1814 H1828 0.960 . S
C1815 C1812 1.511 . S
C1815 H1829 0.961 . S
C1815 H1830 0.961 . S
C1815 H1831 0.961 . S
C1816 C1817 1.370 . S
C1816 C1818 1.363 . S
C1816 H1832 0.931 . S
C1817 C1816 1.370 . S
C1817 C1821 1.408 . S
C1818 C1816 1.363 . S
C1818 C1819 1.370 . S
C1818 C1822 1.524 . S
C1819 C1811 1.503 . S
C1819 C1818 1.370 . S
C1819 C1820 1.403 . S
C1820 C1819 1.403 . S
C1820 C1821 1.404 . S
C1820 C1823 1.539 . S
C1821 C1817 1.408 . S
C1821 C1820 1.404 . S
C1821 H1833 0.930 . S
C1822 C1818 1.524 . S
C1822 H1834 0.956 . S
C1822 H1835 0.961 . S
C1822 H1836 0.961 . S
C1823 C1820 1.539 . S
C1823 H1837 0.958 . S
C1823 H1838 0.961 . S
C1823 H1839 0.960 . S
H1824 C1808 0.931 . S
H1825 C1813 0.929 . S
H1826 C1814 0.960 . S
H1827 C1814 0.962 . S
H1828 C1814 0.960 . S
H1829 C1815 0.961 . S
H1830 C1815 0.961 . S
H1831 C1815 0.961 . S
H1832 C1816 0.931 . S
H1833 C1821 0.930 . S
H1834 C1822 0.956 . S
H1835 C1822 0.961 . S
H1836 C1822 0.961 . S
H1837 C1823 0.958 . S
H1838 C1823 0.961 . S
H1839 C1823 0.960 . S
C1840 C1841 1.391 . S
C1840 C1842 1.394 . S
C1840 H1856 0.931 . S
C1841 C1840 1.391 . S
C1841 C1845 1.376 . S
C1842 C1840 1.394 . S
C1842 C1843 1.369 . S
C1842 C1846 1.531 . S
C1843 C1842 1.369 . S
C1843 C1844 1.410 . S
C1843 C1851 1.503 . S
C1844 C1843 1.410 . S
C1844 C1845 1.392 . S
C1844 C1847 1.511 . S
C1845 C1841 1.376 . S
C1845 C1844 1.392 . S
C1845 H1857 0.929 . S
C1846 C1842 1.531 . S
C1846 H1858 0.960 . S
C1846 H1859 0.962 . S
C1846 H1860 0.960 . S
C1847 C1844 1.511 . S
C1847 H1861 0.961 . S
C1847 H1862 0.961 . S
C1847 H1863 0.961 . S
C1848 C1849 1.370 . S
C1848 C1850 1.363 . S
C1848 H1864 0.931 . S
C1849 C1848 1.370 . S
C1849 C1853 1.408 . S
C1850 C1848 1.363 . S
C1850 C1851 1.370 . S
C1850 C1854 1.524 . S
C1851 C1843 1.503 . S
C1851 C1850 1.370 . S
C1851 C1852 1.403 . S
C1852 C1851 1.403 . S
C1852 C1853 1.404 . S
C1852 C1855 1.539 . S
C1853 C1849 1.408 . S
C1853 C1852 1.404 . S
C1853 H1865 0.930 . S
C1854 C1850 1.524 . S
C1854 H1866 0.956 . S
C1854 H1867 0.961 . S
C1854 H1868 0.961 . S
C1855 C1852 1.539 . S
C1855 H1869 0.958 . S
C1855 H1870 0.961 . S
C1855 H1871 0.960 . S
H1856 C1840 0.931 . S
H1857 C1845 0.929 . S
H1858 C1846 0.960 . S
H1859 C1846 0.962 . S
H1860 C1846 0.960 . S
H1861 C1847 0.961 . S
H1862 C1847 0.961 . S
H1863 C1847 0.961 . S
H1864 C1848 0.931 . S
H1865 C1853 0.930 . S
H1866 C1854 0.956 . S
H1867 C1854 0.961 . S
H1868 C1854 0.961 . S
H1869 C1855 0.958 . S
H1870 C1855 0.961 . S
H1871 C1855 0.960 . S
C1872 C1873 1.391 . S
C1872 C1874 1.394 . S
C1872 H1888 0.931 . S
C1873 C1872 1.391 . S
C1873 C1877 1.376 . S
C1874 C1872 1.394 . S
C1874 C1875 1.369 . S
C1874 C1878 1.531 . S
C1875 C1874 1.369 . S
C1875 C1876 1.410 . S
C1875 C1883 1.503 . S
C1876 C1875 1.410 . S
C1876 C1877 1.392 . S
C1876 C1879 1.511 1_545 S
C1877 C1873 1.376 . S
C1877 C1876 1.392 . S
C1877 H1889 0.968 . S
C1878 C1874 1.531 . S
C1878 H1890 0.960 . S
C1878 H1891 0.962 . S
C1878 H1892 0.960 . S
C1879 C1876 1.511 1_565 S
C1879 H1893 0.961 . S
C1879 H1894 0.961 . S
C1879 H1895 0.961 . S
C1880 C1881 1.370 1_565 S
C1880 C1882 1.363 1_565 S
C1880 H1896 0.931 . S
C1881 C1880 1.370 1_545 S
C1881 C1885 1.408 . S
C1882 C1880 1.363 1_545 S
C1882 C1883 1.370 . S
C1882 C1886 1.524 1_545 S
C1883 C1875 1.503 . S
C1883 C1882 1.370 . S
C1883 C1884 1.403 . S
C1884 C1883 1.403 . S
C1884 C1885 1.404 . S
C1884 C1887 1.539 . S
C1885 C1881 1.408 . S
C1885 C1884 1.404 . S
C1885 H1897 0.930 . S
C1886 C1882 1.524 1_565 S
C1886 H1898 0.951 1_565 S
C1886 H1899 0.961 . S
C1886 H1900 0.961 . S
C1887 C1884 1.539 . S
C1887 H1901 0.958 . S
C1887 H1902 0.961 . S
C1887 H1903 0.960 . S
H1888 C1872 0.931 . S
H1889 C1877 0.968 . S
H1890 C1878 0.960 . S
H1891 C1878 0.962 . S
H1892 C1878 0.960 . S
H1893 C1879 0.961 . S
H1894 C1879 0.961 . S
H1895 C1879 0.961 . S
H1896 C1880 0.931 . S
H1897 C1885 0.930 . S
H1898 C1886 0.951 1_545 S
H1899 C1886 0.961 . S
H1900 C1886 0.961 . S
H1901 C1887 0.958 . S
H1902 C1887 0.961 . S
H1903 C1887 0.960 . S
C1904 C1905 1.391 . S
C1904 C1906 1.394 . S
C1904 H1920 0.931 . S
C1905 C1904 1.391 . S
C1905 C1909 1.376 . S
C1906 C1904 1.394 . S
C1906 C1907 1.369 . S
C1906 C1910 1.531 . S
C1907 C1906 1.369 . S
C1907 C1908 1.410 . S
C1907 C1915 1.503 . S
C1908 C1907 1.410 . S
C1908 C1909 1.392 . S
C1908 C1911 1.511 . S
C1909 C1905 1.376 . S
C1909 C1908 1.392 . S
C1909 H1921 0.929 . S
C1910 C1906 1.531 . S
C1910 H1922 0.960 . S
C1910 H1923 0.962 . S
C1910 H1924 0.960 . S
C1911 C1908 1.511 . S
C1911 H1925 0.961 . S
C1911 H1926 0.961 . S
C1911 H1927 0.961 . S
C1912 C1913 1.370 . S
C1912 C1914 1.363 . S
C1912 H1928 0.931 . S
C1913 C1912 1.370 . S
C1913 C1917 1.408 . S
C1914 C1912 1.363 . S
C1914 C1915 1.370 . S
C1914 C1918 1.524 . S
C1915 C1907 1.503 . S
C1915 C1914 1.370 . S
C1915 C1916 1.403 . S
C1916 C1915 1.403 . S
C1916 C1917 1.404 . S
C1916 C1919 1.539 . S
C1917 C1913 1.408 . S
C1917 C1916 1.404 . S
C1917 H1929 0.930 . S
C1918 C1914 1.524 . S
C1918 H1930 0.956 . S
C1918 H1931 0.961 . S
C1918 H1932 0.961 . S
C1919 C1916 1.539 . S
C1919 H1933 0.958 . S
C1919 H1934 0.961 . S
C1919 H1935 0.960 . S
H1920 C1904 0.931 . S
H1921 C1909 0.929 . S
H1922 C1910 0.960 . S
H1923 C1910 0.962 . S
H1924 C1910 0.960 . S
H1925 C1911 0.961 . S
H1926 C1911 0.961 . S
H1927 C1911 0.961 . S
H1928 C1912 0.931 . S
H1929 C1917 0.930 . S
H1930 C1918 0.956 . S
H1931 C1918 0.961 . S
H1932 C1918 0.961 . S
H1933 C1919 0.958 . S
H1934 C1919 0.961 . S
H1935 C1919 0.960 . S
C1936 C1937 1.391 . S
C1936 C1938 1.394 . S
C1936 H1952 0.931 . S
C1937 C1936 1.391 . S
C1937 C1941 1.376 . S
C1938 C1936 1.394 . S
C1938 C1939 1.369 . S
C1938 C1942 1.531 . S
C1939 C1938 1.369 . S
C1939 C1940 1.410 . S
C1939 C1947 1.503 . S
C1940 C1939 1.410 . S
C1940 C1941 1.392 . S
C1940 C1943 1.511 . S
C1941 C1937 1.376 . S
C1941 C1940 1.392 . S
C1941 H1953 0.929 . S
C1942 C1938 1.531 . S
C1942 H1954 0.960 . S
C1942 H1955 0.962 . S
C1942 H1956 0.960 . S
C1943 C1940 1.511 . S
C1943 H1957 0.961 . S
C1943 H1958 0.961 . S
C1943 H1959 0.961 . S
C1944 C1945 1.370 . S
C1944 C1946 1.363 . S
C1944 H1960 0.931 . S
C1945 C1944 1.370 . S
C1945 C1949 1.408 . S
C1946 C1944 1.363 . S
C1946 C1947 1.370 . S
C1946 C1950 1.524 . S
C1947 C1939 1.503 . S
C1947 C1946 1.370 . S
C1947 C1948 1.403 . S
C1948 C1947 1.403 . S
C1948 C1949 1.404 . S
C1948 C1951 1.539 . S
C1949 C1945 1.408 . S
C1949 C1948 1.404 . S
C1949 H1961 0.930 . S
C1950 C1946 1.524 . S
C1950 H1962 0.956 . S
C1950 H1963 0.961 . S
C1950 H1964 0.961 . S
C1951 C1948 1.539 . S
C1951 H1965 0.958 . S
C1951 H1966 0.961 . S
C1951 H1967 0.960 . S
H1952 C1936 0.931 . S
H1953 C1941 0.929 . S
H1954 C1942 0.960 . S
H1955 C1942 0.962 . S
H1956 C1942 0.960 . S
H1957 C1943 0.961 . S
H1958 C1943 0.961 . S
H1959 C1943 0.961 . S
H1960 C1944 0.931 . S
H1961 C1949 0.930 . S
H1962 C1950 0.956 . S
H1963 C1950 0.961 . S
H1964 C1950 0.961 . S
H1965 C1951 0.958 . S
H1966 C1951 0.961 . S
H1967 C1951 0.960 . S
C1968 C1969 1.391 . S
C1968 C1970 1.394 . S
C1968 H1984 0.931 . S
C1969 C1968 1.391 . S
C1969 C1973 1.376 . S
C1970 C1968 1.394 . S
C1970 C1971 1.369 . S
C1970 C1974 1.531 . S
C1971 C1970 1.369 . S
C1971 C1972 1.410 . S
C1971 C1979 1.503 . S
C1972 C1971 1.410 . S
C1972 C1973 1.392 . S
C1972 C1975 1.511 . S
C1973 C1969 1.376 . S
C1973 C1972 1.392 . S
C1973 H1985 0.929 . S
C1974 C1970 1.531 . S
C1974 H1986 0.960 . S
C1974 H1987 0.962 . S
C1974 H1988 0.960 . S
C1975 C1972 1.511 . S
C1975 H1989 0.961 . S
C1975 H1990 0.961 . S
C1975 H1991 0.961 . S
C1976 C1977 1.370 . S
C1976 C1978 1.363 . S
C1976 H1992 0.931 . S
C1977 C1976 1.370 . S
C1977 C1981 1.408 . S
C1978 C1976 1.363 . S
C1978 C1979 1.370 . S
C1978 C1982 1.524 . S
C1979 C1971 1.503 . S
C1979 C1978 1.370 . S
C1979 C1980 1.403 . S
C1980 C1979 1.403 . S
C1980 C1981 1.404 . S
C1980 C1983 1.539 . S
C1981 C1977 1.408 . S
C1981 C1980 1.404 . S
C1981 H1993 0.930 . S
C1982 C1978 1.524 . S
C1982 H1994 0.956 . S
C1982 H1995 0.961 . S
C1982 H1996 0.961 . S
C1983 C1980 1.539 . S
C1983 H1997 0.958 . S
C1983 H1998 0.961 . S
C1983 H1999 0.960 . S
H1984 C1968 0.931 . S
H1985 C1973 0.929 . S
H1986 C1974 0.960 . S
H1987 C1974 0.962 . S
H1988 C1974 0.960 . S
H1989 C1975 0.961 . S
H1990 C1975 0.961 . S
H1991 C1975 0.961 . S
H1992 C1976 0.931 . S
H1993 C1981 0.930 . S
H1994 C1982 0.956 . S
H1995 C1982 0.961 . S
H1996 C1982 0.961 . S
H1997 C1983 0.958 . S
H1998 C1983 0.961 . S
H1999 C1983 0.960 . S
C2000 C2001 1.391 . S
C2000 C2002 1.394 1_545 S
C2000 H2016 0.931 1_545 S
C2001 C2000 1.391 . S
C2001 C2005 1.376 . S
C2002 C2000 1.394 1_565 S
C2002 C2003 1.369 1_565 S
C2002 C2006 1.530 . S
C2003 C2002 1.369 1_545 S
C2003 C2004 1.410 . S
C2003 C2011 1.503 . S
C2004 C2003 1.410 . S
C2004 C2005 1.392 . S
C2004 C2007 1.511 . S
C2005 C2001 1.376 . S
C2005 C2004 1.392 . S
C2005 H2017 0.929 . S
C2006 C2002 1.530 . S
C2006 H2018 0.960 . S
C2006 H2019 0.962 . S
C2006 H2020 0.960 . S
C2007 C2004 1.511 . S
C2007 H2021 0.961 . S
C2007 H2022 0.961 . S
C2007 H2023 0.961 . S
C2008 C2009 1.370 . S
C2008 C2010 1.363 . S
C2008 H2024 0.931 . S
C2009 C2008 1.370 . S
C2009 C2013 1.408 . S
C2010 C2008 1.363 . S
C2010 C2011 1.370 . S
C2010 C2014 1.524 . S
C2011 C2003 1.503 . S
C2011 C2010 1.370 . S
C2011 C2012 1.403 . S
C2012 C2011 1.403 . S
C2012 C2013 1.404 . S
C2012 C2015 1.539 1_545 S
C2013 C2009 1.408 . S
C2013 C2012 1.404 . S
C2013 H2025 0.930 1_545 S
C2014 C2010 1.524 . S
C2014 H2026 0.956 . S
C2014 H2027 0.961 . S
C2014 H2028 0.961 . S
C2015 C2012 1.539 1_565 S
C2015 H2029 0.958 . S
C2015 H2030 0.961 . S
C2015 H2031 0.939 1_565 S
H2016 C2000 0.931 1_565 S
H2017 C2005 0.929 . S
H2018 C2006 0.960 . S
H2019 C2006 0.962 . S
H2020 C2006 0.960 . S
H2021 C2007 0.961 . S
H2022 C2007 0.961 . S
H2023 C2007 0.961 . S
H2024 C2008 0.931 . S
H2025 C2013 0.930 1_565 S
H2026 C2014 0.956 . S
H2027 C2014 0.961 . S
H2028 C2014 0.961 . S
H2029 C2015 0.958 . S
H2030 C2015 0.961 . S
H2031 C2015 0.939 1_545 S
C2032 C2033 1.391 . S
C2032 C2034 1.394 . S
C2032 H2048 0.931 . S
C2033 C2032 1.391 . S
C2033 C2037 1.376 . S
C2034 C2032 1.394 . S
C2034 C2035 1.369 . S
C2034 C2038 1.531 . S
C2035 C2034 1.369 . S
C2035 C2036 1.410 . S
C2035 C2043 1.503 . S
C2036 C2035 1.410 . S
C2036 C2037 1.392 . S
C2036 C2039 1.511 . S
C2037 C2033 1.376 . S
C2037 C2036 1.392 . S
C2037 H2049 0.929 . S
C2038 C2034 1.531 . S
C2038 H2050 0.960 . S
C2038 H2051 0.962 . S
C2038 H2052 0.960 . S
C2039 C2036 1.511 . S
C2039 H2053 0.961 . S
C2039 H2054 0.961 . S
C2039 H2055 0.961 . S
C2040 C2041 1.370 . S
C2040 C2042 1.363 . S
C2040 H2056 0.931 . S
C2041 C2040 1.370 . S
C2041 C2045 1.408 . S
C2042 C2040 1.363 . S
C2042 C2043 1.370 . S
C2042 C2046 1.524 . S
C2043 C2035 1.503 . S
C2043 C2042 1.370 . S
C2043 C2044 1.403 . S
C2044 C2043 1.403 . S
C2044 C2045 1.404 . S
C2044 C2047 1.539 . S
C2045 C2041 1.408 . S
C2045 C2044 1.404 . S
C2045 H2057 0.930 . S
C2046 C2042 1.524 . S
C2046 H2058 0.956 . S
C2046 H2059 0.961 . S
C2046 H2060 0.961 . S
C2047 C2044 1.539 . S
C2047 H2061 0.958 . S
C2047 H2062 0.961 . S
C2047 H2063 0.960 . S
H2048 C2032 0.931 . S
H2049 C2037 0.929 . S
H2050 C2038 0.960 . S
H2051 C2038 0.962 . S
H2052 C2038 0.960 . S
H2053 C2039 0.961 . S
H2054 C2039 0.961 . S
H2055 C2039 0.961 . S
H2056 C2040 0.931 . S
H2057 C2045 0.930 . S
H2058 C2046 0.956 . S
H2059 C2046 0.961 . S
H2060 C2046 0.961 . S
H2061 C2047 0.958 . S
H2062 C2047 0.961 . S
H2063 C2047 0.960 . S
C2064 C2065 1.391 . S
C2064 C2066 1.394 . S
C2064 H2080 0.931 . S
C2065 C2064 1.391 . S
C2065 C2069 1.376 . S
C2066 C2064 1.394 . S
C2066 C2067 1.369 . S
C2066 C2070 1.531 . S
C2067 C2066 1.369 . S
C2067 C2068 1.410 . S
C2067 C2075 1.503 . S
C2068 C2067 1.410 . S
C2068 C2069 1.392 . S
C2068 C2071 1.511 . S
C2069 C2065 1.376 . S
C2069 C2068 1.392 . S
C2069 H2081 0.929 . S
C2070 C2066 1.531 . S
C2070 H2082 0.960 . S
C2070 H2083 0.962 . S
C2070 H2084 0.960 . S
C2071 C2068 1.511 . S
C2071 H2085 0.961 . S
C2071 H2086 0.961 . S
C2071 H2087 0.961 . S
C2072 C2073 1.370 . S
C2072 C2074 1.363 . S
C2072 H2088 0.931 . S
C2073 C2072 1.370 . S
C2073 C2077 1.408 . S
C2074 C2072 1.363 . S
C2074 C2075 1.370 . S
C2074 C2078 1.524 . S
C2075 C2067 1.503 . S
C2075 C2074 1.370 . S
C2075 C2076 1.403 . S
C2076 C2075 1.403 . S
C2076 C2077 1.404 . S
C2076 C2079 1.539 . S
C2077 C2073 1.408 . S
C2077 C2076 1.404 . S
C2077 H2089 0.930 . S
C2078 C2074 1.524 . S
C2078 H2090 0.956 . S
C2078 H2091 0.961 . S
C2078 H2092 0.961 . S
C2079 C2076 1.539 . S
C2079 H2093 0.958 . S
C2079 H2094 0.961 . S
C2079 H2095 0.960 . S
H2080 C2064 0.931 . S
H2081 C2069 0.929 . S
H2082 C2070 0.960 . S
H2083 C2070 0.962 . S
H2084 C2070 0.960 . S
H2085 C2071 0.961 . S
H2086 C2071 0.961 . S
H2087 C2071 0.961 . S
H2088 C2072 0.931 . S
H2089 C2077 0.930 . S
H2090 C2078 0.956 . S
H2091 C2078 0.961 . S
H2092 C2078 0.961 . S
H2093 C2079 0.958 . S
H2094 C2079 0.961 . S
H2095 C2079 0.960 . S
C2096 C2097 1.391 . S
C2096 C2098 1.394 . S
C2096 H2112 0.931 . S
C2097 C2096 1.391 . S
C2097 C2101 1.376 . S
C2098 C2096 1.394 . S
C2098 C2099 1.369 . S
C2098 C2102 1.531 . S
C2099 C2098 1.369 . S
C2099 C2100 1.410 . S
C2099 C2107 1.503 . S
C2100 C2099 1.410 . S
C2100 C2101 1.392 . S
C2100 C2103 1.511 . S
C2101 C2097 1.376 . S
C2101 C2100 1.392 . S
C2101 H2113 0.929 . S
C2102 C2098 1.531 . S
C2102 H2114 0.960 . S
C2102 H2115 0.962 . S
C2102 H2116 0.960 . S
C2103 C2100 1.511 . S
C2103 H2117 0.961 . S
C2103 H2118 0.961 . S
C2103 H2119 0.961 . S
C2104 C2105 1.370 . S
C2104 C2106 1.363 . S
C2104 H2120 0.931 . S
C2105 C2104 1.370 . S
C2105 C2109 1.408 . S
C2106 C2104 1.363 . S
C2106 C2107 1.370 . S
C2106 C2110 1.524 . S
C2107 C2099 1.503 . S
C2107 C2106 1.370 . S
C2107 C2108 1.403 . S
C2108 C2107 1.403 . S
C2108 C2109 1.404 . S
C2108 C2111 1.539 . S
C2109 C2105 1.408 . S
C2109 C2108 1.404 . S
C2109 H2121 0.930 . S
C2110 C2106 1.524 . S
C2110 H2122 0.956 . S
C2110 H2123 0.961 . S
C2110 H2124 0.961 . S
C2111 C2108 1.539 . S
C2111 H2125 0.958 . S
C2111 H2126 0.961 . S
C2111 H2127 0.960 . S
H2112 C2096 0.931 . S
H2113 C2101 0.929 . S
H2114 C2102 0.960 . S
H2115 C2102 0.962 . S
H2116 C2102 0.960 . S
H2117 C2103 0.961 . S
H2118 C2103 0.961 . S
H2119 C2103 0.961 . S
H2120 C2104 0.931 . S
H2121 C2109 0.930 . S
H2122 C2110 0.956 . S
H2123 C2110 0.961 . S
H2124 C2110 0.961 . S
H2125 C2111 0.958 . S
H2126 C2111 0.961 . S
H2127 C2111 0.960 . S
C2128 C2129 1.391 . S
C2128 C2130 1.394 . S
C2128 H2144 0.931 . S
C2129 C2128 1.391 . S
C2129 C2133 1.376 1_655 S
C2130 C2128 1.394 . S
C2130 C2131 1.369 . S
C2130 C2134 1.531 . S
C2131 C2130 1.369 . S
C2131 C2132 1.410 1_655 S
C2131 C2139 1.503 . S
C2132 C2131 1.410 1_455 S
C2132 C2133 1.392 . S
C2132 C2135 1.511 . S
C2133 C2129 1.376 1_455 S
C2133 C2132 1.392 . S
C2133 H2145 0.929 . S
C2134 C2130 1.531 . S
C2134 H2146 0.960 . S
C2134 H2147 0.962 . S
C2134 H2148 0.960 . S
C2135 C2132 1.511 . S
C2135 H2149 0.961 . S
C2135 H2150 0.961 . S
C2135 H2151 0.961 . S
C2136 C2137 1.370 1_655 S
C2136 C2138 1.363 . S
C2136 H2152 0.931 . S
C2137 C2136 1.370 1_455 S
C2137 C2141 1.408 . S
C2138 C2136 1.363 . S
C2138 C2139 1.370 . S
C2138 C2142 1.524 . S
C2139 C2131 1.503 . S
C2139 C2138 1.370 . S
C2139 C2140 1.403 1_655 S
C2140 C2139 1.403 1_455 S
C2140 C2141 1.404 . S
C2140 C2143 1.539 . S
C2141 C2137 1.408 . S
C2141 C2140 1.404 . S
C2141 H2153 0.930 . S
C2142 C2138 1.524 . S
C2142 H2154 0.956 . S
C2142 H2155 0.961 . S
C2142 H2156 0.961 . S
C2143 C2140 1.539 . S
C2143 H2157 0.958 . S
C2143 H2158 0.961 . S
C2143 H2159 0.960 . S
H2144 C2128 0.931 . S
H2145 C2133 0.929 . S
H2146 C2134 0.960 . S
H2147 C2134 0.962 . S
H2148 C2134 0.960 . S
H2149 C2135 0.961 . S
H2150 C2135 0.961 . S
H2151 C2135 0.961 . S
H2152 C2136 0.931 . S
H2153 C2141 0.930 . S
H2154 C2142 0.956 . S
H2155 C2142 0.961 . S
H2156 C2142 0.961 . S
H2157 C2143 0.958 . S
H2158 C2143 0.961 . S
H2159 C2143 0.960 . S
C2160 C2161 1.391 . S
C2160 C2162 1.394 . S
C2160 H2176 0.931 . S
C2161 C2160 1.391 . S
C2161 C2165 1.376 . S
C2162 C2160 1.394 . S
C2162 C2163 1.369 . S
C2162 C2166 1.531 . S
C2163 C2162 1.369 . S
C2163 C2164 1.410 . S
C2163 C2171 1.503 . S
C2164 C2163 1.410 . S
C2164 C2165 1.392 . S
C2164 C2167 1.511 . S
C2165 C2161 1.376 . S
C2165 C2164 1.392 . S
C2165 H2177 0.929 . S
C2166 C2162 1.531 . S
C2166 H2178 0.960 . S
C2166 H2179 0.962 . S
C2166 H2180 0.960 . S
C2167 C2164 1.511 . S
C2167 H2181 0.961 . S
C2167 H2182 0.961 . S
C2167 H2183 0.961 . S
C2168 C2169 1.370 . S
C2168 C2170 1.363 . S
C2168 H2184 0.931 . S
C2169 C2168 1.370 . S
C2169 C2173 1.408 . S
C2170 C2168 1.363 . S
C2170 C2171 1.370 . S
C2170 C2174 1.524 . S
C2171 C2163 1.503 . S
C2171 C2170 1.370 . S
C2171 C2172 1.403 . S
C2172 C2171 1.403 . S
C2172 C2173 1.404 . S
C2172 C2175 1.539 . S
C2173 C2169 1.408 . S
C2173 C2172 1.404 . S
C2173 H2185 0.930 . S
C2174 C2170 1.524 . S
C2174 H2186 0.956 . S
C2174 H2187 0.961 . S
C2174 H2188 0.961 . S
C2175 C2172 1.539 . S
C2175 H2189 0.958 . S
C2175 H2190 0.961 . S
C2175 H2191 0.960 . S
H2176 C2160 0.931 . S
H2177 C2165 0.929 . S
H2178 C2166 0.960 . S
H2179 C2166 0.962 . S
H2180 C2166 0.960 . S
H2181 C2167 0.961 . S
H2182 C2167 0.961 . S
H2183 C2167 0.961 . S
H2184 C2168 0.931 . S
H2185 C2173 0.930 . S
H2186 C2174 0.956 . S
H2187 C2174 0.961 . S
H2188 C2174 0.961 . S
H2189 C2175 0.958 . S
H2190 C2175 0.961 . S
H2191 C2175 0.960 . S
C2192 C2193 1.391 . S
C2192 C2194 1.394 . S
C2192 H2208 0.931 . S
C2193 C2192 1.391 . S
C2193 C2197 1.376 . S
C2194 C2192 1.394 . S
C2194 C2195 1.369 . S
C2194 C2198 1.531 . S
C2195 C2194 1.369 . S
C2195 C2196 1.410 . S
C2195 C2203 1.503 . S
C2196 C2195 1.410 . S
C2196 C2197 1.392 . S
C2196 C2199 1.511 . S
C2197 C2193 1.376 . S
C2197 C2196 1.392 . S
C2197 H2209 0.929 . S
C2198 C2194 1.531 . S
C2198 H2210 0.960 . S
C2198 H2211 0.971 . S
C2198 H2212 0.960 . S
C2199 C2196 1.511 . S
C2199 H2213 0.961 . S
C2199 H2214 0.961 . S
C2199 H2215 0.961 . S
C2200 C2201 1.335 1_655 S
C2200 C2202 1.354 1_655 S
C2200 H2216 0.977 . S
C2201 C2200 1.335 1_455 S
C2201 C2205 1.408 . S
C2202 C2200 1.354 1_455 S
C2202 C2203 1.370 . S
C2202 C2206 1.524 1_455 S
C2203 C2195 1.503 . S
C2203 C2202 1.370 . S
C2203 C2204 1.403 . S
C2204 C2203 1.403 . S
C2204 C2205 1.404 . S
C2204 C2207 1.539 . S
C2205 C2201 1.408 . S
C2205 C2204 1.404 . S
C2205 H2217 0.930 . S
C2206 C2202 1.524 1_655 S
C2206 H2218 0.956 . S
C2206 H2219 0.961 . S
C2206 H2220 0.961 . S
C2207 C2204 1.539 . S
C2207 H2221 0.958 . S
C2207 H2222 0.961 . S
C2207 H2223 0.960 . S
H2208 C2192 0.931 . S
H2209 C2197 0.929 . S
H2210 C2198 0.960 . S
H2211 C2198 0.971 . S
H2212 C2198 0.960 . S
H2213 C2199 0.961 . S
H2214 C2199 0.961 . S
H2215 C2199 0.961 . S
H2216 C2200 0.977 . S
H2217 C2205 0.930 . S
H2218 C2206 0.956 . S
H2219 C2206 0.961 . S
H2220 C2206 0.961 . S
H2221 C2207 0.958 . S
H2222 C2207 0.961 . S
H2223 C2207 0.960 . S
C2224 C2225 1.391 . S
C2224 C2226 1.394 . S
C2224 H2240 0.931 . S
C2225 C2224 1.391 . S
C2225 C2229 1.376 . S
C2226 C2224 1.394 . S
C2226 C2227 1.369 . S
C2226 C2230 1.531 . S
C2227 C2226 1.369 . S
C2227 C2228 1.410 . S
C2227 C2235 1.503 . S
C2228 C2227 1.410 . S
C2228 C2229 1.392 . S
C2228 C2231 1.511 . S
C2229 C2225 1.376 . S
C2229 C2228 1.392 . S
C2229 H2241 0.929 . S
C2230 C2226 1.531 . S
C2230 H2242 0.960 . S
C2230 H2243 0.962 . S
C2230 H2244 0.960 . S
C2231 C2228 1.511 . S
C2231 H2245 0.961 . S
C2231 H2246 0.961 . S
C2231 H2247 0.961 . S
C2232 C2233 1.370 . S
C2232 C2234 1.363 . S
C2232 H2248 0.931 . S
C2233 C2232 1.370 . S
C2233 C2237 1.408 . S
C2234 C2232 1.363 . S
C2234 C2235 1.370 . S
C2234 C2238 1.524 . S
C2235 C2227 1.503 . S
C2235 C2234 1.370 . S
C2235 C2236 1.403 . S
C2236 C2235 1.403 . S
C2236 C2237 1.404 . S
C2236 C2239 1.539 . S
C2237 C2233 1.408 . S
C2237 C2236 1.404 . S
C2237 H2249 0.930 . S
C2238 C2234 1.524 . S
C2238 H2250 0.956 . S
C2238 H2251 0.961 . S
C2238 H2252 0.961 . S
C2239 C2236 1.539 . S
C2239 H2253 0.958 . S
C2239 H2254 0.961 . S
C2239 H2255 0.960 . S
H2240 C2224 0.931 . S
H2241 C2229 0.929 . S
H2242 C2230 0.960 . S
H2243 C2230 0.962 . S
H2244 C2230 0.960 . S
H2245 C2231 0.961 . S
H2246 C2231 0.961 . S
H2247 C2231 0.961 . S
H2248 C2232 0.931 . S
H2249 C2237 0.930 . S
H2250 C2238 0.956 . S
H2251 C2238 0.961 . S
H2252 C2238 0.961 . S
H2253 C2239 0.958 . S
H2254 C2239 0.961 . S
H2255 C2239 0.960 . S
C2256 C2257 1.391 . S
C2256 C2258 1.394 . S
C2256 H2272 0.931 . S
C2257 C2256 1.391 . S
C2257 C2261 1.376 . S
C2258 C2256 1.394 . S
C2258 C2259 1.369 . S
C2258 C2262 1.531 . S
C2259 C2258 1.369 . S
C2259 C2260 1.410 . S
C2259 C2267 1.503 . S
C2260 C2259 1.410 . S
C2260 C2261 1.392 . S
C2260 C2263 1.511 . S
C2261 C2257 1.376 . S
C2261 C2260 1.392 . S
C2261 H2273 0.929 . S
C2262 C2258 1.531 . S
C2262 H2274 0.960 . S
C2262 H2275 0.962 . S
C2262 H2276 0.960 . S
C2263 C2260 1.511 . S
C2263 H2277 0.961 . S
C2263 H2278 0.961 . S
C2263 H2279 0.961 . S
C2264 C2265 1.370 . S
C2264 C2266 1.363 . S
C2264 H2280 0.931 . S
C2265 C2264 1.370 . S
C2265 C2269 1.408 . S
C2266 C2264 1.363 . S
C2266 C2267 1.370 . S
C2266 C2270 1.524 . S
C2267 C2259 1.503 . S
C2267 C2266 1.370 . S
C2267 C2268 1.403 . S
C2268 C2267 1.403 . S
C2268 C2269 1.404 . S
C2268 C2271 1.539 . S
C2269 C2265 1.408 . S
C2269 C2268 1.404 . S
C2269 H2281 0.930 . S
C2270 C2266 1.524 . S
C2270 H2282 0.956 . S
C2270 H2283 0.961 . S
C2270 H2284 0.961 . S
C2271 C2268 1.539 . S
C2271 H2285 0.958 . S
C2271 H2286 0.961 . S
C2271 H2287 0.960 . S
H2272 C2256 0.931 . S
H2273 C2261 0.929 . S
H2274 C2262 0.960 . S
H2275 C2262 0.962 . S
H2276 C2262 0.960 . S
H2277 C2263 0.961 . S
H2278 C2263 0.961 . S
H2279 C2263 0.961 . S
H2280 C2264 0.931 . S
H2281 C2269 0.930 . S
H2282 C2270 0.956 . S
H2283 C2270 0.961 . S
H2284 C2270 0.961 . S
H2285 C2271 0.958 . S
H2286 C2271 0.961 . S
H2287 C2271 0.960 . S
C2288 C2289 1.391 . S
C2288 C2290 1.394 . S
C2288 H2304 0.931 . S
C2289 C2288 1.391 . S
C2289 C2293 1.376 . S
C2290 C2288 1.394 . S
C2290 C2291 1.369 . S
C2290 C2294 1.531 . S
C2291 C2290 1.369 . S
C2291 C2292 1.410 . S
C2291 C2299 1.503 . S
C2292 C2291 1.410 . S
C2292 C2293 1.392 . S
C2292 C2295 1.511 . S
C2293 C2289 1.376 . S
C2293 C2292 1.392 . S
C2293 H2305 0.929 . S
C2294 C2290 1.531 . S
C2294 H2306 0.960 . S
C2294 H2307 0.962 . S
C2294 H2308 0.960 . S
C2295 C2292 1.511 . S
C2295 H2309 0.961 . S
C2295 H2310 0.961 . S
C2295 H2311 0.961 . S
C2296 C2297 1.370 . S
C2296 C2298 1.363 . S
C2296 H2312 0.931 . S
C2297 C2296 1.370 . S
C2297 C2301 1.408 . S
C2298 C2296 1.363 . S
C2298 C2299 1.370 . S
C2298 C2302 1.524 . S
C2299 C2291 1.503 . S
C2299 C2298 1.370 . S
C2299 C2300 1.403 . S
C2300 C2299 1.403 . S
C2300 C2301 1.404 . S
C2300 C2303 1.539 . S
C2301 C2297 1.408 . S
C2301 C2300 1.404 . S
C2301 H2313 0.930 . S
C2302 C2298 1.524 . S
C2302 H2314 0.956 . S
C2302 H2315 0.961 . S
C2302 H2316 0.961 . S
C2303 C2300 1.539 . S
C2303 H2317 0.958 . S
C2303 H2318 0.961 . S
C2303 H2319 0.960 . S
H2304 C2288 0.931 . S
H2305 C2293 0.929 . S
H2306 C2294 0.960 . S
H2307 C2294 0.962 . S
H2308 C2294 0.960 . S
H2309 C2295 0.961 . S
H2310 C2295 0.961 . S
H2311 C2295 0.961 . S
H2312 C2296 0.931 . S
H2313 C2301 0.930 . S
H2314 C2302 0.956 . S
H2315 C2302 0.961 . S
H2316 C2302 0.961 . S
H2317 C2303 0.958 . S
H2318 C2303 0.961 . S
H2319 C2303 0.960 . S
C2320 C2321 1.391 . S
C2320 C2322 1.394 . S
C2320 H2336 0.931 . S
C2321 C2320 1.391 . S
C2321 C2325 1.376 . S
C2322 C2320 1.394 . S
C2322 C2323 1.369 . S
C2322 C2326 1.531 . S
C2323 C2322 1.369 . S
C2323 C2324 1.410 . S
C2323 C2331 1.503 . S
C2324 C2323 1.410 . S
C2324 C2325 1.392 . S
C2324 C2327 1.511 . S
C2325 C2321 1.376 . S
C2325 C2324 1.392 . S
C2325 H2337 0.929 . S
C2326 C2322 1.531 . S
C2326 H2338 0.960 . S
C2326 H2339 0.962 . S
C2326 H2340 0.960 . S
C2327 C2324 1.511 . S
C2327 H2341 0.961 . S
C2327 H2342 0.961 . S
C2327 H2343 0.961 . S
C2328 C2329 1.370 . S
C2328 C2330 1.363 . S
C2328 H2344 0.931 . S
C2329 C2328 1.370 . S
C2329 C2333 1.408 . S
C2330 C2328 1.363 . S
C2330 C2331 1.370 . S
C2330 C2334 1.524 . S
C2331 C2323 1.503 . S
C2331 C2330 1.370 . S
C2331 C2332 1.403 . S
C2332 C2331 1.403 . S
C2332 C2333 1.404 . S
C2332 C2335 1.539 . S
C2333 C2329 1.408 . S
C2333 C2332 1.404 . S
C2333 H2345 0.930 . S
C2334 C2330 1.524 . S
C2334 H2346 0.956 . S
C2334 H2347 0.961 . S
C2334 H2348 0.961 . S
C2335 C2332 1.539 . S
C2335 H2349 0.958 . S
C2335 H2350 0.961 . S
C2335 H2351 0.960 . S
H2336 C2320 0.931 . S
H2337 C2325 0.929 . S
H2338 C2326 0.960 . S
H2339 C2326 0.962 . S
H2340 C2326 0.960 . S
H2341 C2327 0.961 . S
H2342 C2327 0.961 . S
H2343 C2327 0.961 . S
H2344 C2328 0.931 . S
H2345 C2333 0.930 . S
H2346 C2334 0.956 . S
H2347 C2334 0.961 . S
H2348 C2334 0.961 . S
H2349 C2335 0.958 . S
H2350 C2335 0.961 . S
H2351 C2335 0.960 . S
C2352 C2353 1.391 . S
C2352 C2354 1.394 . S
C2352 H2368 0.931 . S
C2353 C2352 1.391 . S
C2353 C2357 1.376 . S
C2354 C2352 1.394 . S
C2354 C2355 1.369 . S
C2354 C2358 1.531 . S
C2355 C2354 1.369 . S
C2355 C2356 1.410 . S
C2355 C2363 1.503 . S
C2356 C2355 1.410 . S
C2356 C2357 1.392 . S
C2356 C2359 1.511 . S
C2357 C2353 1.376 . S
C2357 C2356 1.392 . S
C2357 H2369 0.929 . S
C2358 C2354 1.531 . S
C2358 H2370 0.960 . S
C2358 H2371 0.962 . S
C2358 H2372 0.960 . S
C2359 C2356 1.511 . S
C2359 H2373 0.961 . S
C2359 H2374 0.961 . S
C2359 H2375 0.961 . S
C2360 C2361 1.370 . S
C2360 C2362 1.363 . S
C2360 H2376 0.931 . S
C2361 C2360 1.370 . S
C2361 C2365 1.408 . S
C2362 C2360 1.363 . S
C2362 C2363 1.370 . S
C2362 C2366 1.524 . S
C2363 C2355 1.503 . S
C2363 C2362 1.370 . S
C2363 C2364 1.403 . S
C2364 C2363 1.403 . S
C2364 C2365 1.404 . S
C2364 C2367 1.539 . S
C2365 C2361 1.408 . S
C2365 C2364 1.404 . S
C2365 H2377 0.930 . S
C2366 C2362 1.524 . S
C2366 H2378 0.956 . S
C2366 H2379 0.961 . S
C2366 H2380 0.961 . S
C2367 C2364 1.539 . S
C2367 H2381 0.958 . S
C2367 H2382 0.961 . S
C2367 H2383 0.960 . S
H2368 C2352 0.931 . S
H2369 C2357 0.929 . S
H2370 C2358 0.960 . S
H2371 C2358 0.962 . S
H2372 C2358 0.960 . S
H2373 C2359 0.961 . S
H2374 C2359 0.961 . S
H2375 C2359 0.961 . S
H2376 C2360 0.931 . S
H2377 C2365 0.930 . S
H2378 C2366 0.956 . S
H2379 C2366 0.961 . S
H2380 C2366 0.961 . S
H2381 C2367 0.958 . S
H2382 C2367 0.961 . S
H2383 C2367 0.960 . S
C2384 C2385 1.391 . S
C2384 C2386 1.394 . S
C2384 H2400 0.931 . S
C2385 C2384 1.391 . S
C2385 C2389 1.376 . S
C2386 C2384 1.394 . S
C2386 C2387 1.369 . S
C2386 C2390 1.531 . S
C2387 C2386 1.369 . S
C2387 C2388 1.410 . S
C2387 C2395 1.503 . S
C2388 C2387 1.410 . S
C2388 C2389 1.392 . S
C2388 C2391 1.511 . S
C2389 C2385 1.376 . S
C2389 C2388 1.392 . S
C2389 H2401 0.929 . S
C2390 C2386 1.531 . S
C2390 H2402 0.960 . S
C2390 H2403 0.962 . S
C2390 H2404 0.960 . S
C2391 C2388 1.511 . S
C2391 H2405 0.961 . S
C2391 H2406 0.961 . S
C2391 H2407 0.961 . S
C2392 C2393 1.370 . S
C2392 C2394 1.363 . S
C2392 H2408 0.931 . S
C2393 C2392 1.370 . S
C2393 C2397 1.408 . S
C2394 C2392 1.363 . S
C2394 C2395 1.370 . S
C2394 C2398 1.524 . S
C2395 C2387 1.503 . S
C2395 C2394 1.370 . S
C2395 C2396 1.403 . S
C2396 C2395 1.403 . S
C2396 C2397 1.404 . S
C2396 C2399 1.539 . S
C2397 C2393 1.408 . S
C2397 C2396 1.404 . S
C2397 H2409 0.930 . S
C2398 C2394 1.524 . S
C2398 H2410 0.956 . S
C2398 H2411 0.961 . S
C2398 H2412 0.961 . S
C2399 C2396 1.539 . S
C2399 H2413 0.958 . S
C2399 H2414 0.961 . S
C2399 H2415 0.960 . S
H2400 C2384 0.931 . S
H2401 C2389 0.929 . S
H2402 C2390 0.960 . S
H2403 C2390 0.962 . S
H2404 C2390 0.960 . S
H2405 C2391 0.961 . S
H2406 C2391 0.961 . S
H2407 C2391 0.961 . S
H2408 C2392 0.931 . S
H2409 C2397 0.930 . S
H2410 C2398 0.956 . S
H2411 C2398 0.961 . S
H2412 C2398 0.961 . S
H2413 C2399 0.958 . S
H2414 C2399 0.961 . S
H2415 C2399 0.960 . S
C2416 C2417 1.391 . S
C2416 C2418 1.394 . S
C2416 H2432 0.931 . S
C2417 C2416 1.391 . S
C2417 C2421 1.376 . S
C2418 C2416 1.394 . S
C2418 C2419 1.369 . S
C2418 C2422 1.531 . S
C2419 C2418 1.369 . S
C2419 C2420 1.410 . S
C2419 C2427 1.503 . S
C2420 C2419 1.410 . S
C2420 C2421 1.392 . S
C2420 C2423 1.511 . S
C2421 C2417 1.376 . S
C2421 C2420 1.392 . S
C2421 H2433 0.929 . S
C2422 C2418 1.531 . S
C2422 H2434 0.960 . S
C2422 H2435 0.962 . S
C2422 H2436 0.960 . S
C2423 C2420 1.511 . S
C2423 H2437 0.961 . S
C2423 H2438 0.961 . S
C2423 H2439 0.961 . S
C2424 C2425 1.370 . S
C2424 C2426 1.363 . S
C2424 H2440 0.931 . S
C2425 C2424 1.370 . S
C2425 C2429 1.408 . S
C2426 C2424 1.363 . S
C2426 C2427 1.370 . S
C2426 C2430 1.524 . S
C2427 C2419 1.503 . S
C2427 C2426 1.370 . S
C2427 C2428 1.403 . S
C2428 C2427 1.403 . S
C2428 C2429 1.404 . S
C2428 C2431 1.539 . S
C2429 C2425 1.408 . S
C2429 C2428 1.404 . S
C2429 H2441 0.930 . S
C2430 C2426 1.524 . S
C2430 H2442 0.956 . S
C2430 H2443 0.961 . S
C2430 H2444 0.961 . S
C2431 C2428 1.539 . S
C2431 H2445 0.958 . S
C2431 H2446 0.961 . S
C2431 H2447 0.960 . S
H2432 C2416 0.931 . S
H2433 C2421 0.929 . S
H2434 C2422 0.960 . S
H2435 C2422 0.962 . S
H2436 C2422 0.960 . S
H2437 C2423 0.961 . S
H2438 C2423 0.961 . S
H2439 C2423 0.961 . S
H2440 C2424 0.931 . S
H2441 C2429 0.930 . S
H2442 C2430 0.956 . S
H2443 C2430 0.961 . S
H2444 C2430 0.961 . S
H2445 C2431 0.958 . S
H2446 C2431 0.961 . S
H2447 C2431 0.960 . S
C2448 C2449 1.391 . S
C2448 C2450 1.394 . S
C2448 H2464 0.931 . S
C2449 C2448 1.391 . S
C2449 C2453 1.376 . S
C2450 C2448 1.394 . S
C2450 C2451 1.369 . S
C2450 C2454 1.531 . S
C2451 C2450 1.369 . S
C2451 C2452 1.410 . S
C2451 C2459 1.503 . S
C2452 C2451 1.410 . S
C2452 C2453 1.392 . S
C2452 C2455 1.511 . S
C2453 C2449 1.376 . S
C2453 C2452 1.392 . S
C2453 H2465 0.929 . S
C2454 C2450 1.531 . S
C2454 H2466 0.960 . S
C2454 H2467 0.962 . S
C2454 H2468 0.960 . S
C2455 C2452 1.511 . S
C2455 H2469 0.961 . S
C2455 H2470 0.961 . S
C2455 H2471 0.961 . S
C2456 C2457 1.370 . S
C2456 C2458 1.363 . S
C2456 H2472 0.931 . S
C2457 C2456 1.370 . S
C2457 C2461 1.408 . S
C2458 C2456 1.363 . S
C2458 C2459 1.370 . S
C2458 C2462 1.524 . S
C2459 C2451 1.503 . S
C2459 C2458 1.370 . S
C2459 C2460 1.403 . S
C2460 C2459 1.403 . S
C2460 C2461 1.404 . S
C2460 C2463 1.539 . S
C2461 C2457 1.408 . S
C2461 C2460 1.404 . S
C2461 H2473 0.930 . S
C2462 C2458 1.524 . S
C2462 H2474 0.956 . S
C2462 H2475 0.961 . S
C2462 H2476 0.961 . S
C2463 C2460 1.539 . S
C2463 H2477 0.958 . S
C2463 H2478 0.961 . S
C2463 H2479 0.960 . S
H2464 C2448 0.931 . S
H2465 C2453 0.929 . S
H2466 C2454 0.960 . S
H2467 C2454 0.962 . S
H2468 C2454 0.960 . S
H2469 C2455 0.961 . S
H2470 C2455 0.961 . S
H2471 C2455 0.961 . S
H2472 C2456 0.931 . S
H2473 C2461 0.930 . S
H2474 C2462 0.956 . S
H2475 C2462 0.961 . S
H2476 C2462 0.961 . S
H2477 C2463 0.958 . S
H2478 C2463 0.961 . S
H2479 C2463 0.960 . S
C2480 C2481 1.391 . S
C2480 C2482 1.394 . S
C2480 H2496 0.931 . S
C2481 C2480 1.391 . S
C2481 C2485 1.376 . S
C2482 C2480 1.394 . S
C2482 C2483 1.369 . S
C2482 C2486 1.531 . S
C2483 C2482 1.369 . S
C2483 C2484 1.410 . S
C2483 C2491 1.503 . S
C2484 C2483 1.410 . S
C2484 C2485 1.392 . S
C2484 C2487 1.511 . S
C2485 C2481 1.376 . S
C2485 C2484 1.392 . S
C2485 H2497 0.929 . S
C2486 C2482 1.531 . S
C2486 H2498 0.960 . S
C2486 H2499 0.944 1_556 S
C2486 H2500 0.960 . S
C2487 C2484 1.511 . S
C2487 H2501 0.961 . S
C2487 H2502 0.961 . S
C2487 H2503 0.961 . S
C2488 C2489 1.370 1_554 S
C2488 C2490 1.363 . S
C2488 H2504 0.931 . S
C2489 C2488 1.370 1_556 S
C2489 C2493 1.408 . S
C2490 C2488 1.363 . S
C2490 C2491 1.370 1_554 S
C2490 C2494 1.524 . S
C2491 C2483 1.503 . S
C2491 C2490 1.370 1_556 S
C2491 C2492 1.403 . S
C2492 C2491 1.403 . S
C2492 C2493 1.404 . S
C2492 C2495 1.539 . S
C2493 C2489 1.408 . S
C2493 C2492 1.404 . S
C2493 H2505 0.930 . S
C2494 C2490 1.524 . S
C2494 H2506 0.956 . S
C2494 H2507 0.961 . S
C2494 H2508 0.961 . S
C2495 C2492 1.539 . S
C2495 H2509 0.958 . S
C2495 H2510 0.961 . S
C2495 H2511 0.960 . S
H2496 C2480 0.931 . S
H2497 C2485 0.929 . S
H2498 C2486 0.960 . S
H2499 C2486 0.944 1_554 S
H2500 C2486 0.960 . S
H2501 C2487 0.961 . S
H2502 C2487 0.961 . S
H2503 C2487 0.961 . S
H2504 C2488 0.931 . S
H2505 C2493 0.930 . S
H2506 C2494 0.956 . S
H2507 C2494 0.961 . S
H2508 C2494 0.961 . S
H2509 C2495 0.958 . S
H2510 C2495 0.961 . S
H2511 C2495 0.960 . S
C2512 C2513 1.391 . S
C2512 C2514 1.394 . S
C2512 H2528 0.931 . S
C2513 C2512 1.391 . S
C2513 C2517 1.376 . S
C2514 C2512 1.394 . S
C2514 C2515 1.369 . S
C2514 C2518 1.531 . S
C2515 C2514 1.369 . S
C2515 C2516 1.410 . S
C2515 C2523 1.503 . S
C2516 C2515 1.410 . S
C2516 C2517 1.392 . S
C2516 C2519 1.511 . S
C2517 C2513 1.376 . S
C2517 C2516 1.392 . S
C2517 H2529 0.929 . S
C2518 C2514 1.531 . S
C2518 H2530 0.960 . S
C2518 H2531 0.962 . S
C2518 H2532 0.960 . S
C2519 C2516 1.511 . S
C2519 H2533 0.961 . S
C2519 H2534 0.961 . S
C2519 H2535 0.961 . S
C2520 C2521 1.370 . S
C2520 C2522 1.363 . S
C2520 H2536 0.931 . S
C2521 C2520 1.370 . S
C2521 C2525 1.408 . S
C2522 C2520 1.363 . S
C2522 C2523 1.370 . S
C2522 C2526 1.524 . S
C2523 C2515 1.503 . S
C2523 C2522 1.370 . S
C2523 C2524 1.403 . S
C2524 C2523 1.403 . S
C2524 C2525 1.404 . S
C2524 C2527 1.539 . S
C2525 C2521 1.408 . S
C2525 C2524 1.404 . S
C2525 H2537 0.930 . S
C2526 C2522 1.524 . S
C2526 H2538 0.956 . S
C2526 H2539 0.961 . S
C2526 H2540 0.961 . S
C2527 C2524 1.539 . S
C2527 H2541 0.958 . S
C2527 H2542 0.961 . S
C2527 H2543 0.960 . S
H2528 C2512 0.931 . S
H2529 C2517 0.929 . S
H2530 C2518 0.960 . S
H2531 C2518 0.962 . S
H2532 C2518 0.960 . S
H2533 C2519 0.961 . S
H2534 C2519 0.961 . S
H2535 C2519 0.961 . S
H2536 C2520 0.931 . S
H2537 C2525 0.930 . S
H2538 C2526 0.956 . S
H2539 C2526 0.961 . S
H2540 C2526 0.961 . S
H2541 C2527 0.958 . S
H2542 C2527 0.961 . S
H2543 C2527 0.960 . S
C2544 C2545 1.391 . S
C2544 C2546 1.398 . S
C2544 H2560 0.931 1_554 S
C2545 C2544 1.391 . S
C2545 C2549 1.376 . S
C2546 C2544 1.398 . S
C2546 C2547 1.390 . S
C2546 C2550 1.505 1_554 S
C2547 C2546 1.390 . S
C2547 C2548 1.410 . S
C2547 C2555 1.503 . S
C2548 C2547 1.410 . S
C2548 C2549 1.392 . S
C2548 C2551 1.511 . S
C2549 C2545 1.376 . S
C2549 C2548 1.392 . S
C2549 H2561 0.929 . S
C2550 C2546 1.505 1_556 S
C2550 H2562 0.960 . S
C2550 H2563 0.962 . S
C2550 H2564 0.960 . S
C2551 C2548 1.511 . S
C2551 H2565 0.961 . S
C2551 H2566 0.961 . S
C2551 H2567 0.961 . S
C2552 C2553 1.369 . S
C2552 C2554 1.362 . S
C2552 H2568 0.933 1_554 S
C2553 C2552 1.369 . S
C2553 C2557 1.408 . S
C2554 C2552 1.362 . S
C2554 C2555 1.370 . S
C2554 C2558 1.524 1_554 S
C2555 C2547 1.503 . S
C2555 C2554 1.370 . S
C2555 C2556 1.403 . S
C2556 C2555 1.403 . S
C2556 C2557 1.404 . S
C2556 C2559 1.539 . S
C2557 C2553 1.408 . S
C2557 C2556 1.404 . S
C2557 H2569 0.930 . S
C2558 C2554 1.524 1_556 S
C2558 H2570 0.956 . S
C2558 H2571 0.961 1_556 S
C2558 H2572 0.961 . S
C2559 C2556 1.539 . S
C2559 H2573 0.958 . S
C2559 H2574 0.961 . S
C2559 H2575 0.960 . S
H2560 C2544 0.931 1_556 S
H2561 C2549 0.929 . S
H2562 C2550 0.960 . S
H2563 C2550 0.962 . S
H2564 C2550 0.960 . S
H2565 C2551 0.961 . S
H2566 C2551 0.961 . S
H2567 C2551 0.961 . S
H2568 C2552 0.933 1_556 S
H2569 C2557 0.930 . S
H2570 C2558 0.956 . S
H2571 C2558 0.961 1_554 S
H2572 C2558 0.961 . S
H2573 C2559 0.958 . S
H2574 C2559 0.961 . S
H2575 C2559 0.960 . S
C2576 C2577 1.391 . S
C2576 C2578 1.394 . S
C2576 H2592 0.931 1_554 S
C2577 C2576 1.391 . S
C2577 C2581 1.376 . S
C2578 C2576 1.394 . S
C2578 C2579 1.369 . S
C2578 C2582 1.531 1_554 S
C2579 C2578 1.369 . S
C2579 C2580 1.410 . S
C2579 C2587 1.503 . S
C2580 C2579 1.410 . S
C2580 C2581 1.392 . S
C2580 C2583 1.511 . S
C2581 C2577 1.376 . S
C2581 C2580 1.392 . S
C2581 H2593 0.929 . S
C2582 C2578 1.531 1_556 S
C2582 H2594 0.960 . S
C2582 H2595 0.962 . S
C2582 H2596 0.960 . S
C2583 C2580 1.511 . S
C2583 H2597 0.961 . S
C2583 H2598 0.961 . S
C2583 H2599 0.961 . S
C2584 C2585 1.370 . S
C2584 C2586 1.363 . S
C2584 H2600 0.931 . S
C2585 C2584 1.370 . S
C2585 C2589 1.408 . S
C2586 C2584 1.363 . S
C2586 C2587 1.370 . S
C2586 C2590 1.524 . S
C2587 C2579 1.503 . S
C2587 C2586 1.370 . S
C2587 C2588 1.403 . S
C2588 C2587 1.403 . S
C2588 C2589 1.404 . S
C2588 C2591 1.539 . S
C2589 C2585 1.408 . S
C2589 C2588 1.404 . S
C2589 H2601 0.930 . S
C2590 C2586 1.524 . S
C2590 H2602 0.956 . S
C2590 H2603 0.961 . S
C2590 H2604 0.961 . S
C2591 C2588 1.539 . S
C2591 H2605 0.958 . S
C2591 H2606 0.961 . S
C2591 H2607 0.960 . S
H2592 C2576 0.931 1_556 S
H2593 C2581 0.929 . S
H2594 C2582 0.960 . S
H2595 C2582 0.962 . S
H2596 C2582 0.960 . S
H2597 C2583 0.961 . S
H2598 C2583 0.961 . S
H2599 C2583 0.961 . S
H2600 C2584 0.931 . S
H2601 C2589 0.930 . S
H2602 C2590 0.956 . S
H2603 C2590 0.961 . S
H2604 C2590 0.961 . S
H2605 C2591 0.958 . S
H2606 C2591 0.961 . S
H2607 C2591 0.960 . S
C1081 C642 1.455 . S
C1073 C202 1.478 . S
C1113 C690 1.656 . S
C1105 C261 1.700 . S
C1137 C282 1.371 . S
C1145 C726 1.386 . S
C1177 C762 1.599 . S
C1169 C162 1.629 . S
C1209 C788 1.485 . S
C1201 C402 1.473 . S
C1241 C824 1.595 . S
C1233 C482 1.592 . S
C1265 C442 1.470 . S
C1273 C859 1.516 . S
C1305 C896 1.623 1_565 S
C1297 C381 1.618 . S
C1329 C461 1.478 . S
C1337 C930 1.471 . S
C1369 C978 1.542 . S
C1361 C362 1.579 . S
C1393 C415 1.440 . S
C1401 C931 1.440 . S
C1433 C968 1.639 . S
C1425 C495 1.646 . S
C1457 C301 1.454 . S
C1465 C1014 1.430 . S
C1489 C175 1.652 . S
C1497 C1003 1.648 . S
C1521 C215 1.483 . S
C1529 C1004 1.467 . S
C1553 C242 1.621 . S
C1561 C1002 1.630 . S
C1585 C141 1.533 . S
C1593 C750 1.503 . S
C1617 C581 1.504 . S
C1625 C751 1.503 . S
C1657 C654 1.553 . S
C1649 C615 1.612 . S
C1689 C679 1.459 . S
C1681 C335 1.432 . S
C1713 C181 1.691 . S
C1721 C786 1.690 . S
C1753 C894 1.473 . S
C1745 C455 1.451 . S
C1785 C787 1.559 . S
C1777 C375 1.554 . S
C1817 C860 1.683 . S
C1809 C501 1.686 . S
C1849 C858 1.461 . S
C1841 C562 1.456 . S
C1873 C621 1.695 . S
C1881 C906 1.658 . S
C1905 C322 1.419 . S
C1913 C798 1.372 . S
C1945 C834 1.586 . S
C1937 C522 1.622 . S
C1969 C122 1.476 . S
C1977 C716 1.471 . S
C2009 C752 1.600 . S
C2001 C2 1.605 . S
C2041 C643 1.515 . S
C2033 C42 1.488 . S
C2073 C680 1.629 . S
C2065 C101 1.627 . S
C2097 C61 1.449 . S
C2105 C966 1.479 . S
C2129 C82 1.567 . S
C2137 C942 1.550 . S
C2161 C135 1.442 . S
C2169 C967 1.440 . S
C2193 C15 1.639 . S
C2201 C932 1.646 . S
C2233 C1050 1.453 . S
C2225 C341 1.448 . S
C2265 C1039 1.651 . S
C2257 C535 1.649 . S
C2297 C1040 1.474 . S
C2289 C575 1.467 . S
C2321 C602 1.620 . S
C2329 C1038 1.631 . S
C2353 C421 1.529 . S
C2361 C822 1.509 . S
C2393 C823 1.503 . S
C2385 C221 1.503 . S
C2425 C870 1.558 . S
C2417 C255 1.616 . S
C2457 C895 1.459 . S
C2449 C295 1.434 . S
C2481 C541 1.694 . S
C2489 C714 1.705 . S
C2521 C678 1.470 . S
C2513 C55 1.461 . S
C2545 C95 1.554 . S
C2553 C715 1.555 . S
C2585 C644 1.682 . S
C2577 C21 1.686 . S
