# Generated by pormake.
# Topology pth, (4,4)-cn, num edge types: 1
# Building blocks:
#     Node 0, Type 0, BuildingBlock: QUQFOY_clean_sbu_3, # of connection points: 4
#     Node 1, Type 0, BuildingBlock: QUQFOY_clean_sbu_3, # of connection points: 4
#     Node 2, Type 0, BuildingBlock: QUQFOY_clean_sbu_3, # of connection points: 4
#     Node 3, Type 1, BuildingBlock: NAWXER_clean_sbu_0, # of connection points: 4
#     Node 4, Type 1, BuildingBlock: NAWXER_clean_sbu_0, # of connection points: 4
#     Node 5, Type 1, BuildingBlock: NAWXER_clean_sbu_0, # of connection points: 4
#     Edge 6, Type (0, 1), BuildingBlock: CIFDUS_clean_linker_0, # of connection points: 2
#     Edge 7, Type (0, 1), BuildingBlock: CIFDUS_clean_linker_0, # of connection points: 2
#     Edge 8, Type (0, 1), BuildingBlock: CIFDUS_clean_linker_0, # of connection points: 2
#     Edge 9, Type (0, 1), BuildingBlock: CIFDUS_clean_linker_0, # of connection points: 2
#     Edge 10, Type (0, 1), BuildingBlock: CIFDUS_clean_linker_0, # of connection points: 2
#     Edge 11, Type (0, 1), BuildingBlock: CIFDUS_clean_linker_0, # of connection points: 2
#     Edge 12, Type (0, 1), BuildingBlock: CIFDUS_clean_linker_0, # of connection points: 2
#     Edge 13, Type (0, 1), BuildingBlock: CIFDUS_clean_linker_0, # of connection points: 2
#     Edge 14, Type (0, 1), BuildingBlock: CIFDUS_clean_linker_0, # of connection points: 2
#     Edge 15, Type (0, 1), BuildingBlock: CIFDUS_clean_linker_0, # of connection points: 2
#     Edge 16, Type (0, 1), BuildingBlock: CIFDUS_clean_linker_0, # of connection points: 2
#     Edge 17, Type (0, 1), BuildingBlock: CIFDUS_clean_linker_0, # of connection points: 2
# Relax obj value: 0.004
# Max RMSD: 0.054
# Mean RMSD: 0.030
data_MOF--net-pth--node1-QUQFOY_clean_sbu_3--node2-NAWXER_clean_sbu_0--edge1-CIFDUS_clean_linker_0
_symmetry_space_group_name_H-M    P1
_symmetry_Int_Tables_number       1
_symmetry_cell_setting            triclinic
loop_
_symmetry_equiv_pos_as_xyz
'x, y, z'
_cell_length_a     20.241673
_cell_length_b     20.237762
_cell_length_c     52.349642
_cell_angle_alpha  89.896912
_cell_angle_beta   91.176858
_cell_angle_gamma 120.65821
loop_
_atom_site_label
_atom_site_type_symbol
_atom_site_fract_x
_atom_site_fract_y
_atom_site_fract_z
_atom_type_partial_charge
C0 C 0.00099 0.22623 0.08733 0.0
O1 O 0.96357 0.22389 0.06727 0.0
Cd2 Cd 0.96323 0.1598 0.02919 0.0
O3 O 0.03714 0.18972 0.08843 0.0
Cd4 Cd 0.05532 0.09668 0.06197 0.0
C5 C 0.1579 0.23419 0.01922 0.0
O6 O 0.92579 0.03357 0.04309 0.0
O7 O 0.00178 0.00108 0.02679 0.0
O8 O 0.03679 0.02445 0.1011 0.0
C9 C 0.93508 0.99204 0.02729 0.0
O10 O 0.09463 0.23068 0.01362 0.0
C11 C 0.09439 0.01603 0.09881 0.0
O12 O 0.16191 0.19257 0.03671 0.0
O13 O 0.13516 0.04594 0.07931 0.0
C14 C 0.18942 0.11933 0.41467 0.0
O15 O 0.21798 0.15054 0.39352 0.0
Cd16 Cd 0.14658 0.15645 0.35775 0.0
O17 O 0.11896 0.09491 0.41917 0.0
Cd18 Cd 0.00984 0.09696 0.39612 0.0
C19 C 0.99951 0.96712 0.35382 0.0
O20 O 0.07786 0.21628 0.37128 0.0
O21 O 0.96095 0.13485 0.35966 0.0
O22 O 0.97584 0.15192 0.43191 0.0
C23 C 0.02 0.20082 0.35715 0.0
O24 O 0.0611 0.02279 0.34513 0.0
C25 C 0.90862 0.09435 0.43412 0.0
O26 O 0.96749 0.97558 0.37319 0.0
O27 O 0.88986 0.03749 0.41933 0.0
C28 C 0.88758 0.12672 0.70788 0.0
O29 O 0.89281 0.16061 0.72884 0.0
Cd30 Cd 0.96421 0.15582 0.7648 0.0
O31 O 0.92928 0.09731 0.70405 0.0
Cd32 Cd 0.03693 0.09405 0.72761 0.0
C33 C 0.9042 0.96222 0.76561 0.0
O34 O 0.09618 0.21284 0.75393 0.0
O35 O 0.11963 0.12412 0.76531 0.0
O36 O 0.12722 0.14958 0.69232 0.0
C37 C 0.13435 0.1926 0.76805 0.0
O38 O 0.90172 0.01924 0.77466 0.0
C39 C 0.13586 0.09213 0.68961 0.0
O40 O 0.94837 0.97055 0.74739 0.0
O41 O 0.09667 0.03504 0.70395 0.0
C42 C 0.97349 0.64022 0.26729 0.0
C43 C 0.96497 0.487 0.19365 0.0
O44 O 0.03925 0.65659 0.25904 0.0
Zn45 Zn 0.08874 0.62507 0.22936 0.0
O46 O 0.91231 0.58997 0.25569 0.0
Zn47 Zn 0.96393 0.56455 0.22966 0.0
O48 O 0.0174 0.51621 0.25224 0.0
O49 O 0.14383 0.5869 0.24983 0.0
O50 O 0.90732 0.48507 0.20373 0.0
O51 O 0.03293 0.53606 0.20164 0.0
O52 O 0.14142 0.71894 0.20885 0.0
O53 O 0.01549 0.66705 0.20855 0.0
C54 C 0.08429 0.52856 0.25859 0.0
C55 C 0.08179 0.72084 0.20191 0.0
C56 C 0.57854 0.04372 0.59687 0.0
C57 C 0.41306 0.0399 0.52617 0.0
O58 O 0.52492 0.98321 0.58598 0.0
Zn59 Zn 0.49234 0.03525 0.56155 0.0
O60 O 0.59269 0.10977 0.58929 0.0
Zn61 Zn 0.55527 0.16054 0.56157 0.0
O62 O 0.51784 0.21377 0.58281 0.0
O63 O 0.44871 0.08752 0.58566 0.0
O64 O 0.4657 0.10677 0.53373 0.0
O65 O 0.40607 0.98046 0.53713 0.0
O66 O 0.58868 0.08773 0.53745 0.0
O67 O 0.6462 0.21403 0.54038 0.0
C68 C 0.46138 0.15398 0.59224 0.0
C69 C 0.64275 0.15431 0.53093 0.0
C70 C 0.50908 0.4669 0.92711 0.0
C71 C 0.66911 0.61211 0.85469 0.0
O72 O 0.5019 0.52273 0.91915 0.0
Zn73 Zn 0.54388 0.61037 0.89179 0.0
O74 O 0.55694 0.45299 0.91651 0.0
Zn75 Zn 0.59356 0.5361 0.89116 0.0
O76 O 0.65373 0.6362 0.91423 0.0
O77 O 0.59493 0.70295 0.9132 0.0
O78 O 0.67123 0.5565 0.86534 0.0
O79 O 0.62483 0.63441 0.86323 0.0
O80 O 0.45131 0.58115 0.87112 0.0
O81 O 0.49234 0.49904 0.86831 0.0
C82 C 0.65023 0.69489 0.92121 0.0
C83 C 0.44342 0.51898 0.86212 0.0
H84 H 0.89662 0.26793 0.09861 0.0
H85 H 0.1083 0.28685 0.126 0.0
H86 H 0.11432 0.36798 0.16155 0.0
H87 H 0.06207 0.43679 0.18388 0.0
H88 H 0.84753 0.41396 0.15814 0.0
H89 H 0.83951 0.33026 0.12287 0.0
C90 C 0.94404 0.28979 0.11239 0.0
C91 C 0.00243 0.27209 0.10954 0.0
C92 C 0.94652 0.33549 0.13298 0.0
C93 C 0.06277 0.29971 0.12775 0.0
C94 C 0.06632 0.34622 0.14803 0.0
C95 C 0.01345 0.41346 0.17055 0.0
C96 C 0.9559 0.4322 0.17335 0.0
C97 C 0.00894 0.36499 0.15067 0.0
C98 C 0.89253 0.40038 0.1563 0.0
C99 C 0.88816 0.35284 0.13613 0.0
H100 H 0.91904 0.21639 0.46024 0.0
H101 H 0.77342 0.97162 0.4485 0.0
H102 H 0.67888 0.96986 0.47698 0.0
H103 H 0.63695 0.0367 0.50475 0.0
H104 H 0.77882 0.28165 0.5167 0.0
H105 H 0.87527 0.28459 0.4883 0.0
C106 C 0.8668 0.16266 0.46406 0.0
C107 C 0.85348 0.09411 0.45233 0.0
C108 C 0.81188 0.16216 0.48028 0.0
C109 C 0.78518 0.02511 0.45726 0.0
C110 C 0.73099 0.02405 0.47352 0.0
C111 C 0.68889 0.09103 0.50122 0.0
C112 C 0.70064 0.1589 0.51294 0.0
C113 C 0.74363 0.09215 0.48503 0.0
C114 C 0.76819 0.2286 0.50791 0.0
C115 C 0.82344 0.2302 0.49175 0.0
H116 H 0.93557 0.85901 0.78828 0.0
H117 H 0.75121 0.89574 0.76513 0.0
H118 H 0.65879 0.77909 0.78691 0.0
H119 H 0.63352 0.67902 0.81733 0.0
H120 H 0.81672 0.64616 0.84485 0.0
H121 H 0.90635 0.74715 0.81609 0.0
C122 C 0.87486 0.84005 0.78762 0.0
C123 C 0.84969 0.8854 0.77526 0.0
C124 C 0.82222 0.77406 0.80107 0.0
C125 C 0.77137 0.86146 0.77465 0.0
C126 C 0.71868 0.79498 0.7871 0.0
C127 C 0.69282 0.69287 0.81668 0.0
C128 C 0.71887 0.65609 0.83335 0.0
C129 C 0.7439 0.7526 0.80109 0.0
C130 C 0.79538 0.67366 0.83211 0.0
C131 C 0.8467 0.732 0.81589 0.0
H132 H 0.01941 0.95319 0.14239 0.0
H133 H 0.20588 0.97688 0.09717 0.0
H134 H 0.22458 0.89311 0.12658 0.0
H135 H 0.18051 0.80454 0.16367 0.0
H136 H 0.9903 0.77984 0.20704 0.0
H137 H 0.98122 0.87301 0.1801 0.0
C138 C 0.06458 0.9406 0.13901 0.0
C139 C 0.11067 0.97073 0.1175 0.0
C140 C 0.07431 0.89192 0.15573 0.0
C141 C 0.16929 0.95414 0.11355 0.0
C142 C 0.17996 0.90614 0.13035 0.0
C143 C 0.13812 0.82076 0.16737 0.0
C144 C 0.08584 0.78506 0.18718 0.0
C145 C 0.13188 0.87353 0.15131 0.0
C146 C 0.03069 0.80599 0.19173 0.0
C147 C 0.02534 0.85924 0.17634 0.0
H148 H 0.14981 0.00771 0.45076 0.0
H149 H 0.34235 0.21438 0.42142 0.0
H150 H 0.42843 0.20434 0.45225 0.0
H151 H 0.44912 0.13992 0.48803 0.0
H152 H 0.26064 0.93091 0.51742 0.0
H153 H 0.17292 0.93754 0.48568 0.0
C154 C 0.21056 0.05057 0.45127 0.0
C155 C 0.23961 0.1122 0.43402 0.0
C156 C 0.26043 0.04354 0.46879 0.0
C157 C 0.3186 0.16658 0.43452 0.0
C158 C 0.36792 0.16086 0.45211 0.0
C159 C 0.38887 0.09537 0.48739 0.0
C160 C 0.36114 0.03531 0.50509 0.0
C161 C 0.33945 0.09987 0.46933 0.0
C162 C 0.28331 0.97747 0.50385 0.0
C163 C 0.23316 0.98173 0.48588 0.0
H164 H 0.17078 0.33856 0.78143 0.0
H165 H 0.22787 0.16395 0.79781 0.0
H166 H 0.32597 0.24904 0.82865 0.0
H167 H 0.39748 0.37246 0.85016 0.0
H168 H 0.34354 0.54963 0.83509 0.0
H169 H 0.24153 0.46363 0.80467 0.0
C170 C 0.20466 0.31923 0.79181 0.0
C171 C 0.19215 0.24501 0.78721 0.0
C172 C 0.26134 0.36869 0.80971 0.0
C173 C 0.23622 0.22066 0.8009 0.0
C174 C 0.29245 0.2693 0.81856 0.0
C175 C 0.36362 0.3927 0.84026 0.0
C176 C 0.37862 0.46768 0.84472 0.0
C177 C 0.30577 0.34339 0.82297 0.0
C178 C 0.33322 0.49219 0.83197 0.0
C179 C 0.27511 0.44311 0.81454 0.0
H180 H 0.80717 0.01112 0.67294 0.0
H181 H 0.84061 0.22835 0.69925 0.0
H182 H 0.74509 0.21909 0.66807 0.0
H183 H 0.65398 0.15119 0.63321 0.0
H184 H 0.61415 0.93163 0.60707 0.0
H185 H 0.70906 0.93883 0.63873 0.0
C186 C 0.79373 0.05651 0.67165 0.0
C187 C 0.83145 0.12079 0.68817 0.0
C188 C 0.73711 0.04992 0.65401 0.0
C189 C 0.81254 0.17851 0.68671 0.0
C190 C 0.75784 0.17319 0.66893 0.0
C191 C 0.66568 0.10457 0.63448 0.0
C192 C 0.62757 0.0412 0.61773 0.0
C193 C 0.71991 0.10931 0.65254 0.0
C194 C 0.64254 0.98083 0.61986 0.0
C195 C 0.69722 0.98532 0.6378 0.0
H196 H 0.94082 0.89889 0.99146 0.0
H197 H 0.7919 0.97328 0.02122 0.0
H198 H 0.69138 0.89143 0.99005 0.0
H199 H 0.64461 0.79581 0.95471 0.0
H200 H 0.79456 0.72068 0.9263 0.0
H201 H 0.89564 0.80607 0.95629 0.0
C202 C 0.88641 0.89727 0.99114 0.0
C203 C 0.87386 0.9419 0.00866 0.0
C204 C 0.82892 0.85003 0.97328 0.0
C205 C 0.80297 0.93916 0.00797 0.0
C206 C 0.74547 0.89252 0.99011 0.0
C207 C 0.69969 0.79887 0.95498 0.0
C208 C 0.7119 0.75184 0.93837 0.0
C209 C 0.75768 0.84745 0.97268 0.0
C210 C 0.78339 0.75586 0.93903 0.0
C211 C 0.84139 0.80468 0.95618 0.0
H212 H 0.06607 0.88267 0.35439 0.0
H213 H 0.86685 0.88524 0.32556 0.0
H214 H 0.83276 0.77353 0.29799 0.0
H215 H 0.87201 0.68795 0.27775 0.0
H216 H 0.07421 0.69048 0.30696 0.0
H217 H 0.09388 0.78575 0.33913 0.0
C218 C 0.01412 0.85724 0.34253 0.0
C219 C 0.96895 0.89135 0.34179 0.0
C220 C 0.99586 0.79426 0.3267 0.0
C221 C 0.90193 0.85894 0.32641 0.0
C222 C 0.8829 0.7956 0.31057 0.0
C223 C 0.91891 0.70791 0.29166 0.0
C224 C 0.97224 0.68323 0.2898 0.0
C225 C 0.93103 0.76442 0.3099 0.0
C226 C 0.03308 0.70959 0.30782 0.0
C227 C 0.04454 0.76419 0.3262 0.0
H228 H 0.24792 0.21423 0.66373 0.0
H229 H 0.14775 0.97024 0.67473 0.0
H230 H 0.24032 0.96918 0.64598 0.0
H231 H 0.34914 0.03638 0.6182 0.0
H232 H 0.45318 0.28056 0.6069 0.0
H233 H 0.35989 0.28282 0.63559 0.0
C234 C 0.24616 0.16082 0.6597 0.0
C235 C 0.19072 0.09228 0.6713 0.0
C236 C 0.30043 0.16073 0.6433 0.0
C237 C 0.18966 0.0237 0.66608 0.0
C238 C 0.24266 0.02305 0.64966 0.0
C239 C 0.35179 0.0904 0.62192 0.0
C240 C 0.40813 0.15825 0.61032 0.0
C241 C 0.29831 0.09113 0.63827 0.0
C242 C 0.41059 0.22754 0.6156 0.0
C243 C 0.35708 0.22875 0.63193 0.0
H244 H 0.27439 0.21448 0.00265 0.0
H245 H 0.1954 0.37623 0.00442 0.0
H246 H 0.30259 0.46525 0.97845 0.0
H247 H 0.41139 0.49323 0.95296 0.0
H248 H 0.48819 0.33037 0.9469 0.0
H249 H 0.38979 0.24585 0.97719 0.0
C250 C 0.28156 0.26968 -0.00246 0.0
C251 C 0.22714 0.28894 0.00533 0.0
C252 C 0.34239 0.31993 0.9818 0.0
C253 C 0.23626 0.3601 -0.00154 0.0
C254 C 0.29752 0.41099 0.98365 0.0
C255 C 0.4074 0.43947 0.95824 0.0
C256 C 0.45688 0.41795 0.94744 0.0
C257 C 0.3498 0.39081 0.97482 0.0
C258 C 0.45081 0.34833 0.95487 0.0
C259 C 0.39432 0.29991 0.9721 0.0
H260 H 0.14353 0.33736 0.34242 0.0
H261 H 0.90095 0.18386 0.32748 0.0
H262 H 0.90141 0.27037 0.29511 0.0
H263 H 0.96853 0.38943 0.2718 0.0
H264 H 0.21078 0.54581 0.28566 0.0
H265 H 0.21284 0.45758 0.31752 0.0
C266 C 0.09087 0.323 0.33206 0.0
C267 C 0.02219 0.25434 0.33746 0.0
C268 C 0.09148 0.37316 0.31326 0.0
C269 C 0.95453 0.23625 0.32376 0.0
C270 C 0.95468 0.28568 0.30522 0.0
C271 C 0.02209 0.40458 0.28171 0.0
C272 C 0.08933 0.47447 0.27649 0.0
C273 C 0.02259 0.35425 0.29993 0.0
C274 C 0.15822 0.49235 0.28932 0.0
C275 C 0.15927 0.44209 0.3076 0.0
loop_
_geom_bond_atom_site_label_1
_geom_bond_atom_site_label_2
_geom_bond_distance
_geom_bond_site_symmetry_2
_ccdc_geom_bond_type
C0 O1 1.306 1_455 S
C0 O3 1.160 . S
O1 C0 1.306 1_655 S
O1 Cd2 2.228 . S
Cd2 O1 2.228 . S
Cd2 O6 2.273 . S
Cd2 O10 2.277 1_655 S
O3 C0 1.160 . S
O3 Cd4 2.203 . S
Cd4 O3 2.203 . S
Cd4 O6 2.411 1_455 S
Cd4 O7 2.333 1_445 S
Cd4 O8 2.352 1_445 S
Cd4 O12 2.277 . S
Cd4 O13 2.356 . S
C5 O10 1.209 . S
C5 O12 1.226 . S
O6 Cd2 2.273 . S
O6 Cd4 2.411 1_655 S
O6 C9 1.333 . S
O7 Cd4 2.333 1_665 S
O7 C9 1.204 1_565 S
O8 Cd4 2.352 1_665 S
O8 C11 1.258 1_655 S
C9 O6 1.333 . S
C9 O7 1.204 1_545 S
O10 Cd2 2.277 1_455 S
O10 C5 1.209 . S
C11 O8 1.258 1_455 S
C11 O13 1.282 1_565 S
O12 Cd4 2.277 . S
O12 C5 1.226 . S
O13 Cd4 2.356 . S
O13 C11 1.282 1_545 S
C14 O15 1.306 . S
C14 O17 1.160 . S
O15 C14 1.306 . S
O15 Cd16 2.228 . S
Cd16 O15 2.228 . S
Cd16 O20 2.273 . S
Cd16 O24 2.277 . S
O17 C14 1.160 . S
O17 Cd18 2.203 . S
Cd18 O17 2.203 . S
Cd18 O20 2.411 . S
Cd18 O21 2.333 1_455 S
Cd18 O22 2.352 1_455 S
Cd18 O26 2.277 1_445 S
Cd18 O27 2.356 1_455 S
C19 O24 1.209 1_565 S
C19 O26 1.226 1_455 S
O20 Cd16 2.273 . S
O20 Cd18 2.411 . S
O20 C23 1.320 . S
O21 Cd18 2.333 1_655 S
O21 C23 1.214 1_655 S
O22 Cd18 2.352 1_655 S
O22 C25 1.258 . S
C23 O20 1.320 . S
C23 O21 1.214 1_455 S
O24 Cd16 2.277 . S
O24 C19 1.209 1_545 S
C25 O22 1.258 . S
C25 O27 1.282 . S
O26 Cd18 2.277 1_665 S
O26 C19 1.226 1_655 S
O27 Cd18 2.356 1_655 S
O27 C25 1.282 . S
C28 O29 1.306 . S
C28 O31 1.160 . S
O29 C28 1.306 . S
O29 Cd30 2.228 . S
Cd30 O29 2.228 . S
Cd30 O34 2.273 1_655 S
Cd30 O38 2.277 . S
O31 C28 1.160 . S
O31 Cd32 2.203 1_655 S
Cd32 O31 2.203 1_455 S
Cd32 O34 2.411 . S
Cd32 O35 2.333 . S
Cd32 O36 2.352 . S
Cd32 O40 2.277 1_445 S
Cd32 O41 2.356 . S
C33 O38 1.209 1_565 S
C33 O40 1.226 . S
O34 Cd30 2.273 1_455 S
O34 Cd32 2.411 . S
O34 C37 1.320 . S
O35 Cd32 2.333 . S
O35 C37 1.214 . S
O36 Cd32 2.352 . S
O36 C39 1.258 . S
C37 O34 1.320 . S
C37 O35 1.214 . S
O38 Cd30 2.277 . S
O38 C33 1.209 1_545 S
C39 O36 1.258 . S
C39 O41 1.282 . S
O40 Cd32 2.277 1_665 S
O40 C33 1.226 . S
O41 Cd32 2.356 . S
O41 C39 1.282 . S
C42 O44 1.247 . S
C42 O46 1.258 1_455 S
C43 O50 1.247 1_455 S
C43 O51 1.258 . S
O44 C42 1.247 . S
O44 Zn45 2.028 . S
Zn45 O44 2.028 . S
Zn45 O49 2.035 . S
Zn45 O51 2.035 . S
Zn45 O52 2.028 . S
O46 C42 1.258 1_655 S
O46 Zn47 2.035 . S
Zn47 O46 2.035 . S
Zn47 O48 2.028 . S
Zn47 O50 2.028 . S
Zn47 O53 2.035 . S
O48 Zn47 2.028 . S
O48 C54 1.247 1_655 S
O49 Zn45 2.035 . S
O49 C54 1.258 . S
O50 C43 1.247 1_655 S
O50 Zn47 2.028 . S
O51 C43 1.258 . S
O51 Zn45 2.035 . S
O52 Zn45 2.028 . S
O52 C55 1.247 . S
O53 Zn47 2.035 . S
O53 C55 1.258 1_655 S
C54 O48 1.247 1_455 S
C54 O49 1.258 . S
C55 O52 1.247 . S
C55 O53 1.258 1_455 S
C56 O58 1.247 . S
C56 O60 1.258 . S
C57 O64 1.247 . S
C57 O65 1.258 . S
O58 C56 1.247 . S
O58 Zn59 2.028 . S
Zn59 O58 2.028 . S
Zn59 O63 2.035 . S
Zn59 O65 2.035 . S
Zn59 O66 2.028 . S
O60 C56 1.258 . S
O60 Zn61 2.035 . S
Zn61 O60 2.035 . S
Zn61 O62 2.028 . S
Zn61 O64 2.028 . S
Zn61 O67 2.035 . S
O62 Zn61 2.028 . S
O62 C68 1.247 . S
O63 Zn59 2.035 . S
O63 C68 1.258 . S
O64 C57 1.247 . S
O64 Zn61 2.028 . S
O65 C57 1.258 . S
O65 Zn59 2.035 . S
O66 Zn59 2.028 . S
O66 C69 1.247 . S
O67 Zn61 2.035 . S
O67 C69 1.258 . S
C68 O62 1.247 . S
C68 O63 1.258 . S
C69 O66 1.247 . S
C69 O67 1.258 . S
C70 O72 1.247 . S
C70 O74 1.258 . S
C71 O78 1.247 . S
C71 O79 1.258 . S
O72 C70 1.247 . S
O72 Zn73 2.028 . S
Zn73 O72 2.028 . S
Zn73 O77 2.035 . S
Zn73 O79 2.035 . S
Zn73 O80 2.028 . S
O74 C70 1.258 . S
O74 Zn75 2.035 . S
Zn75 O74 2.035 . S
Zn75 O76 2.028 . S
Zn75 O78 2.028 . S
Zn75 O81 2.035 . S
O76 Zn75 2.028 . S
O76 C82 1.247 . S
O77 Zn73 2.035 . S
O77 C82 1.258 . S
O78 C71 1.247 . S
O78 Zn75 2.028 . S
O79 C71 1.258 . S
O79 Zn73 2.035 . S
O80 Zn73 2.028 . S
O80 C83 1.247 . S
O81 Zn75 2.035 . S
O81 C83 1.258 . S
C82 O76 1.247 . S
C82 O77 1.258 . S
C83 O80 1.247 . S
C83 O81 1.258 . S
H84 C90 0.930 . S
H85 C93 0.930 . S
H86 C94 0.930 . S
H87 C95 0.930 . S
H88 C98 0.930 . S
H89 C99 0.930 . S
C90 H84 0.930 . S
C90 C91 1.355 . S
C90 C92 1.415 . S
C91 C90 1.355 . S
C91 C93 1.419 . S
C92 C90 1.415 . S
C92 C97 1.425 . S
C92 C99 1.409 . S
C93 H85 0.930 . S
C93 C91 1.419 . S
C93 C94 1.362 . S
C94 H86 0.930 . S
C94 C93 1.362 . S
C94 C97 1.409 . S
C95 H87 0.930 . S
C95 C96 1.355 . S
C95 C97 1.415 . S
C96 C95 1.355 . S
C96 C98 1.419 . S
C97 C92 1.425 . S
C97 C94 1.409 . S
C97 C95 1.415 . S
C98 H88 0.930 . S
C98 C96 1.419 . S
C98 C99 1.362 . S
C99 H89 0.930 . S
C99 C92 1.409 . S
C99 C98 1.362 . S
H100 C106 0.930 . S
H101 C109 0.930 . S
H102 C110 0.930 . S
H103 C111 0.930 . S
H104 C114 0.930 . S
H105 C115 0.930 . S
C106 H100 0.930 . S
C106 C107 1.355 . S
C106 C108 1.415 . S
C107 C106 1.355 . S
C107 C109 1.419 . S
C108 C106 1.415 . S
C108 C113 1.425 . S
C108 C115 1.409 . S
C109 H101 0.930 . S
C109 C107 1.419 . S
C109 C110 1.362 . S
C110 H102 0.930 . S
C110 C109 1.362 . S
C110 C113 1.409 . S
C111 H103 0.930 . S
C111 C112 1.355 . S
C111 C113 1.415 . S
C112 C111 1.355 . S
C112 C114 1.419 . S
C113 C108 1.425 . S
C113 C110 1.409 . S
C113 C111 1.415 . S
C114 H104 0.930 . S
C114 C112 1.419 . S
C114 C115 1.362 . S
C115 H105 0.930 . S
C115 C108 1.409 . S
C115 C114 1.362 . S
H116 C122 0.930 . S
H117 C125 0.930 1_545 S
H118 C126 0.930 . S
H119 C127 0.930 . S
H120 C130 0.930 . S
H121 C131 0.930 . S
C122 H116 0.930 . S
C122 C123 1.355 . S
C122 C124 1.415 . S
C123 C122 1.355 . S
C123 C125 1.419 . S
C124 C122 1.415 . S
C124 C129 1.425 . S
C124 C131 1.409 . S
C125 H117 0.930 1_565 S
C125 C123 1.419 . S
C125 C126 1.362 . S
C126 H118 0.930 . S
C126 C125 1.362 . S
C126 C129 1.409 . S
C127 H119 0.930 . S
C127 C128 1.355 . S
C127 C129 1.415 . S
C128 C127 1.355 . S
C128 C130 1.419 . S
C129 C124 1.425 . S
C129 C126 1.409 . S
C129 C127 1.415 . S
C130 H120 0.930 . S
C130 C128 1.419 . S
C130 C131 1.362 . S
C131 H121 0.930 . S
C131 C124 1.409 . S
C131 C130 1.362 . S
H132 C138 0.930 1_655 S
H133 C141 0.930 . S
H134 C142 0.930 . S
H135 C143 0.930 . S
H136 C146 0.930 . S
H137 C147 0.930 . S
C138 H132 0.930 1_455 S
C138 C139 1.355 . S
C138 C140 1.415 . S
C139 C138 1.355 . S
C139 C141 1.419 . S
C140 C138 1.415 . S
C140 C145 1.425 . S
C140 C147 1.409 1_455 S
C141 H133 0.930 . S
C141 C139 1.419 . S
C141 C142 1.362 . S
C142 H134 0.930 . S
C142 C141 1.362 . S
C142 C145 1.409 . S
C143 H135 0.930 . S
C143 C144 1.355 . S
C143 C145 1.415 . S
C144 C143 1.355 . S
C144 C146 1.419 1_455 S
C145 C140 1.425 . S
C145 C142 1.409 . S
C145 C143 1.415 . S
C146 H136 0.930 . S
C146 C144 1.419 1_655 S
C146 C147 1.362 . S
C147 H137 0.930 . S
C147 C140 1.409 1_655 S
C147 C146 1.362 . S
H148 C154 0.930 . S
H149 C157 0.930 . S
H150 C158 0.930 . S
H151 C159 0.930 . S
H152 C162 0.930 . S
H153 C163 0.930 . S
C154 H148 0.930 . S
C154 C155 1.355 . S
C154 C156 1.415 . S
C155 C154 1.355 . S
C155 C157 1.419 . S
C156 C154 1.415 . S
C156 C161 1.425 . S
C156 C163 1.409 . S
C157 H149 0.930 . S
C157 C155 1.419 . S
C157 C158 1.362 . S
C158 H150 0.930 . S
C158 C157 1.362 . S
C158 C161 1.409 . S
C159 H151 0.930 . S
C159 C160 1.355 . S
C159 C161 1.415 . S
C160 C159 1.355 . S
C160 C162 1.419 . S
C161 C156 1.425 . S
C161 C158 1.409 . S
C161 C159 1.415 . S
C162 H152 0.930 . S
C162 C160 1.419 . S
C162 C163 1.362 . S
C163 H153 0.930 . S
C163 C156 1.409 . S
C163 C162 1.362 . S
H164 C170 0.930 . S
H165 C173 0.930 . S
H166 C174 0.930 . S
H167 C175 0.930 . S
H168 C178 0.930 . S
H169 C179 0.930 . S
C170 H164 0.930 . S
C170 C171 1.355 . S
C170 C172 1.415 . S
C171 C170 1.355 . S
C171 C173 1.419 . S
C172 C170 1.415 . S
C172 C177 1.425 . S
C172 C179 1.409 . S
C173 H165 0.930 . S
C173 C171 1.419 . S
C173 C174 1.362 . S
C174 H166 0.930 . S
C174 C173 1.362 . S
C174 C177 1.409 . S
C175 H167 0.930 . S
C175 C176 1.355 . S
C175 C177 1.415 . S
C176 C175 1.355 . S
C176 C178 1.419 . S
C177 C172 1.425 . S
C177 C174 1.409 . S
C177 C175 1.415 . S
C178 H168 0.930 . S
C178 C176 1.419 . S
C178 C179 1.362 . S
C179 H169 0.930 . S
C179 C172 1.409 . S
C179 C178 1.362 . S
H180 C186 0.930 . S
H181 C189 0.930 . S
H182 C190 0.930 . S
H183 C191 0.930 . S
H184 C194 0.923 1_565 S
H185 C195 0.930 1_565 S
C186 H180 0.930 . S
C186 C187 1.355 . S
C186 C188 1.415 . S
C187 C186 1.355 . S
C187 C189 1.419 . S
C188 C186 1.415 . S
C188 C193 1.425 . S
C188 C195 1.409 . S
C189 H181 0.930 . S
C189 C187 1.419 . S
C189 C190 1.362 . S
C190 H182 0.930 . S
C190 C189 1.362 . S
C190 C193 1.409 . S
C191 H183 0.930 . S
C191 C192 1.355 . S
C191 C193 1.415 . S
C192 C191 1.355 . S
C192 C194 1.419 . S
C193 C188 1.425 . S
C193 C190 1.409 . S
C193 C191 1.415 . S
C194 H184 0.923 1_545 S
C194 C192 1.419 . S
C194 C195 1.362 . S
C195 H185 0.930 1_545 S
C195 C188 1.409 . S
C195 C194 1.362 . S
H196 C202 0.930 . S
H197 C205 0.931 1_545 S
H198 C206 0.930 . S
H199 C207 0.930 . S
H200 C210 0.930 . S
H201 C211 0.930 . S
C202 H196 0.930 . S
C202 C203 1.355 . S
C202 C204 1.415 1_554 S
C203 C202 1.355 . S
C203 C205 1.421 . S
C204 C202 1.415 1_556 S
C204 C209 1.425 . S
C204 C211 1.409 . S
C205 H197 0.931 1_565 S
C205 C203 1.421 . S
C205 C206 1.360 1_554 S
C206 H198 0.930 . S
C206 C205 1.360 1_556 S
C206 C209 1.409 . S
C207 H199 0.930 . S
C207 C208 1.355 . S
C207 C209 1.415 . S
C208 C207 1.355 . S
C208 C210 1.419 . S
C209 C204 1.425 . S
C209 C206 1.409 . S
C209 C207 1.415 . S
C210 H200 0.930 . S
C210 C208 1.419 . S
C210 C211 1.362 . S
C211 H201 0.930 . S
C211 C204 1.409 . S
C211 C210 1.362 . S
H212 C218 0.930 . S
H213 C221 0.930 . S
H214 C222 0.930 . S
H215 C223 0.930 1_655 S
H216 C226 0.930 . S
H217 C227 0.930 . S
C218 H212 0.930 . S
C218 C219 1.355 . S
C218 C220 1.415 . S
C219 C218 1.355 . S
C219 C221 1.419 1_455 S
C220 C218 1.415 . S
C220 C225 1.425 . S
C220 C227 1.409 . S
C221 H213 0.930 . S
C221 C219 1.419 1_655 S
C221 C222 1.362 . S
C222 H214 0.930 . S
C222 C221 1.362 . S
C222 C225 1.409 1_655 S
C223 H215 0.930 1_455 S
C223 C224 1.355 . S
C223 C225 1.415 . S
C224 C223 1.355 . S
C224 C226 1.419 . S
C225 C220 1.425 . S
C225 C222 1.409 1_455 S
C225 C223 1.415 . S
C226 H216 0.930 . S
C226 C224 1.419 . S
C226 C227 1.362 . S
C227 H217 0.930 . S
C227 C220 1.409 . S
C227 C226 1.362 . S
H228 C234 0.930 . S
H229 C237 0.930 1_565 S
H230 C238 0.941 . S
H231 C239 0.930 . S
H232 C242 0.930 . S
H233 C243 0.930 . S
C234 H228 0.930 . S
C234 C235 1.355 . S
C234 C236 1.415 . S
C235 C234 1.355 . S
C235 C237 1.419 . S
C236 C234 1.415 . S
C236 C241 1.425 . S
C236 C243 1.409 . S
C237 H229 0.930 1_545 S
C237 C235 1.419 . S
C237 C238 1.357 1_545 S
C238 H230 0.941 . S
C238 C237 1.357 1_565 S
C238 C241 1.404 1_565 S
C239 H231 0.930 . S
C239 C240 1.355 . S
C239 C241 1.415 . S
C240 C239 1.355 . S
C240 C242 1.419 . S
C241 C236 1.425 . S
C241 C238 1.404 1_545 S
C241 C239 1.415 . S
C242 H232 0.930 . S
C242 C240 1.419 . S
C242 C243 1.362 . S
C243 H233 0.930 . S
C243 C236 1.409 . S
C243 C242 1.362 . S
H244 C250 0.930 . S
H245 C253 0.930 . S
H246 C254 0.930 . S
H247 C255 0.930 . S
H248 C258 0.930 . S
H249 C259 0.930 . S
C250 H244 0.930 . S
C250 C251 1.355 1_556 S
C250 C252 1.415 . S
C251 C250 1.355 1_554 S
C251 C253 1.419 . S
C252 C250 1.415 . S
C252 C257 1.425 . S
C252 C259 1.409 . S
C253 H245 0.930 . S
C253 C251 1.419 . S
C253 C254 1.362 . S
C254 H246 0.930 . S
C254 C253 1.362 . S
C254 C257 1.409 1_554 S
C255 H247 0.930 . S
C255 C256 1.355 . S
C255 C257 1.415 . S
C256 C255 1.355 . S
C256 C258 1.419 . S
C257 C252 1.425 . S
C257 C254 1.409 1_556 S
C257 C255 1.415 . S
C258 H248 0.930 . S
C258 C256 1.419 . S
C258 C259 1.362 . S
C259 H249 0.930 . S
C259 C252 1.409 . S
C259 C258 1.362 . S
H260 C266 0.930 . S
H261 C269 0.930 . S
H262 C270 0.930 . S
H263 C271 0.930 . S
H264 C274 0.930 . S
H265 C275 0.930 . S
C266 H260 0.930 . S
C266 C267 1.355 . S
C266 C268 1.415 . S
C267 C266 1.355 . S
C267 C269 1.419 1_455 S
C268 C266 1.415 . S
C268 C273 1.425 . S
C268 C275 1.409 . S
C269 H261 0.930 . S
C269 C267 1.419 1_655 S
C269 C270 1.362 . S
C270 H262 0.930 . S
C270 C269 1.362 . S
C270 C273 1.409 1_655 S
C271 H263 0.930 . S
C271 C272 1.355 1_655 S
C271 C273 1.415 1_655 S
C272 C271 1.355 1_455 S
C272 C274 1.419 . S
C273 C268 1.425 . S
C273 C270 1.409 1_455 S
C273 C271 1.415 1_455 S
C274 H264 0.930 . S
C274 C272 1.419 . S
C274 C275 1.362 . S
C275 H265 0.930 . S
C275 C268 1.409 . S
C275 C274 1.362 . S
C96 C43 1.435 . S
C91 C0 1.451 . S
C107 C25 1.464 . S
C112 C69 1.471 . S
C123 C33 1.473 . S
C128 C71 1.476 . S
C139 C11 1.419 . S
C144 C55 1.424 . S
C160 C57 1.470 . S
C155 C14 1.457 . S
C171 C37 1.465 . S
C176 C83 1.476 . S
C192 C56 1.466 . S
C187 C28 1.459 . S
C203 C9 1.480 1_565 S
C208 C82 1.470 . S
C224 C42 1.498 . S
C219 C19 1.501 . S
C240 C68 1.465 . S
C235 C39 1.464 . S
C256 C70 1.487 . S
C251 C5 1.488 . S
C267 C23 1.497 . S
C272 C54 1.520 . S
