# Generated by pormake.
# Topology ocu, (6,8)-cn, num edge types: 1
# Building blocks:
#     Node 0, Type 0, BuildingBlock: MIFKUJ_clean_sbu_0, # of connection points: 6
#     Node 1, Type 0, BuildingBlock: MIFKUJ_clean_sbu_0, # of connection points: 6
#     Node 2, Type 0, BuildingBlock: MIFKUJ_clean_sbu_0, # of connection points: 6
#     Node 3, Type 0, BuildingBlock: MIFKUJ_clean_sbu_0, # of connection points: 6
#     Node 4, Type 0, BuildingBlock: MIFKUJ_clean_sbu_0, # of connection points: 6
#     Node 5, Type 0, BuildingBlock: MIFKUJ_clean_sbu_0, # of connection points: 6
#     Node 6, Type 0, BuildingBlock: MIFKUJ_clean_sbu_0, # of connection points: 6
#     Node 7, Type 0, BuildingBlock: MIFKUJ_clean_sbu_0, # of connection points: 6
#     Node 8, Type 1, BuildingBlock: GIZVER_clean_sbu_0, # of connection points: 8
#     Node 9, Type 1, BuildingBlock: GIZVER_clean_sbu_0, # of connection points: 8
#     Node 10, Type 1, BuildingBlock: GIZVER_clean_sbu_0, # of connection points: 8
#     Node 11, Type 1, BuildingBlock: GIZVER_clean_sbu_0, # of connection points: 8
#     Node 12, Type 1, BuildingBlock: GIZVER_clean_sbu_0, # of connection points: 8
#     Node 13, Type 1, BuildingBlock: GIZVER_clean_sbu_0, # of connection points: 8
#     Edge 14, Type (0, 1), BuildingBlock: MIFKUJ_clean_linker_0, # of connection points: 2
#     Edge 15, Type (0, 1), BuildingBlock: MIFKUJ_clean_linker_0, # of connection points: 2
#     Edge 16, Type (0, 1), BuildingBlock: MIFKUJ_clean_linker_0, # of connection points: 2
#     Edge 17, Type (0, 1), BuildingBlock: MIFKUJ_clean_linker_0, # of connection points: 2
#     Edge 18, Type (0, 1), BuildingBlock: MIFKUJ_clean_linker_0, # of connection points: 2
#     Edge 19, Type (0, 1), BuildingBlock: MIFKUJ_clean_linker_0, # of connection points: 2
#     Edge 20, Type (0, 1), BuildingBlock: MIFKUJ_clean_linker_0, # of connection points: 2
#     Edge 21, Type (0, 1), BuildingBlock: MIFKUJ_clean_linker_0, # of connection points: 2
#     Edge 22, Type (0, 1), BuildingBlock: MIFKUJ_clean_linker_0, # of connection points: 2
#     Edge 23, Type (0, 1), BuildingBlock: MIFKUJ_clean_linker_0, # of connection points: 2
#     Edge 24, Type (0, 1), BuildingBlock: MIFKUJ_clean_linker_0, # of connection points: 2
#     Edge 25, Type (0, 1), BuildingBlock: MIFKUJ_clean_linker_0, # of connection points: 2
#     Edge 26, Type (0, 1), BuildingBlock: MIFKUJ_clean_linker_0, # of connection points: 2
#     Edge 27, Type (0, 1), BuildingBlock: MIFKUJ_clean_linker_0, # of connection points: 2
#     Edge 28, Type (0, 1), BuildingBlock: MIFKUJ_clean_linker_0, # of connection points: 2
#     Edge 29, Type (0, 1), BuildingBlock: MIFKUJ_clean_linker_0, # of connection points: 2
#     Edge 30, Type (0, 1), BuildingBlock: MIFKUJ_clean_linker_0, # of connection points: 2
#     Edge 31, Type (0, 1), BuildingBlock: MIFKUJ_clean_linker_0, # of connection points: 2
#     Edge 32, Type (0, 1), BuildingBlock: MIFKUJ_clean_linker_0, # of connection points: 2
#     Edge 33, Type (0, 1), BuildingBlock: MIFKUJ_clean_linker_0, # of connection points: 2
#     Edge 34, Type (0, 1), BuildingBlock: MIFKUJ_clean_linker_0, # of connection points: 2
#     Edge 35, Type (0, 1), BuildingBlock: MIFKUJ_clean_linker_0, # of connection points: 2
#     Edge 36, Type (0, 1), BuildingBlock: MIFKUJ_clean_linker_0, # of connection points: 2
#     Edge 37, Type (0, 1), BuildingBlock: MIFKUJ_clean_linker_0, # of connection points: 2
#     Edge 38, Type (0, 1), BuildingBlock: MIFKUJ_clean_linker_0, # of connection points: 2
#     Edge 39, Type (0, 1), BuildingBlock: MIFKUJ_clean_linker_0, # of connection points: 2
#     Edge 40, Type (0, 1), BuildingBlock: MIFKUJ_clean_linker_0, # of connection points: 2
#     Edge 41, Type (0, 1), BuildingBlock: MIFKUJ_clean_linker_0, # of connection points: 2
#     Edge 42, Type (0, 1), BuildingBlock: MIFKUJ_clean_linker_0, # of connection points: 2
#     Edge 43, Type (0, 1), BuildingBlock: MIFKUJ_clean_linker_0, # of connection points: 2
#     Edge 44, Type (0, 1), BuildingBlock: MIFKUJ_clean_linker_0, # of connection points: 2
#     Edge 45, Type (0, 1), BuildingBlock: MIFKUJ_clean_linker_0, # of connection points: 2
#     Edge 46, Type (0, 1), BuildingBlock: MIFKUJ_clean_linker_0, # of connection points: 2
#     Edge 47, Type (0, 1), BuildingBlock: MIFKUJ_clean_linker_0, # of connection points: 2
#     Edge 48, Type (0, 1), BuildingBlock: MIFKUJ_clean_linker_0, # of connection points: 2
#     Edge 49, Type (0, 1), BuildingBlock: MIFKUJ_clean_linker_0, # of connection points: 2
#     Edge 50, Type (0, 1), BuildingBlock: MIFKUJ_clean_linker_0, # of connection points: 2
#     Edge 51, Type (0, 1), BuildingBlock: MIFKUJ_clean_linker_0, # of connection points: 2
#     Edge 52, Type (0, 1), BuildingBlock: MIFKUJ_clean_linker_0, # of connection points: 2
#     Edge 53, Type (0, 1), BuildingBlock: MIFKUJ_clean_linker_0, # of connection points: 2
#     Edge 54, Type (0, 1), BuildingBlock: MIFKUJ_clean_linker_0, # of connection points: 2
#     Edge 55, Type (0, 1), BuildingBlock: MIFKUJ_clean_linker_0, # of connection points: 2
#     Edge 56, Type (0, 1), BuildingBlock: MIFKUJ_clean_linker_0, # of connection points: 2
#     Edge 57, Type (0, 1), BuildingBlock: MIFKUJ_clean_linker_0, # of connection points: 2
#     Edge 58, Type (0, 1), BuildingBlock: MIFKUJ_clean_linker_0, # of connection points: 2
#     Edge 59, Type (0, 1), BuildingBlock: MIFKUJ_clean_linker_0, # of connection points: 2
#     Edge 60, Type (0, 1), BuildingBlock: MIFKUJ_clean_linker_0, # of connection points: 2
#     Edge 61, Type (0, 1), BuildingBlock: MIFKUJ_clean_linker_0, # of connection points: 2
# Relax obj value: 0.108
# Max RMSD: 0.237
# Mean RMSD: 0.164
data_MOF--net-ocu--node1-MIFKUJ_clean_sbu_0--node2-GIZVER_clean_sbu_0--edge1-MIFKUJ_clean_linker_0
_symmetry_space_group_name_H-M    P1
_symmetry_Int_Tables_number       1
_symmetry_cell_setting            triclinic
loop_
_symmetry_equiv_pos_as_xyz
'x, y, z'
_cell_length_a     53.227948
_cell_length_b     57.204697
_cell_length_c     38.332915
_cell_angle_alpha  91.156805
_cell_angle_beta   93.751615
_cell_angle_gamma 104.65747
loop_
_atom_site_label
_atom_site_type_symbol
_atom_site_fract_x
_atom_site_fract_y
_atom_site_fract_z
_atom_type_partial_charge
Zn0 Zn 0.22542 0.27512 0.25071 0.0
Zn1 Zn 0.27385 0.22825 0.24443 0.0
C2 C 0.19932 0.29373 0.3037 0.0
O3 O 0.1843 0.27166 0.29919 0.0
C4 C 0.3027 0.20926 0.19726 0.0
O5 O 0.31952 0.22919 0.20944 0.0
O6 O 0.2006 0.27933 0.21022 0.0
O7 O 0.26224 0.28753 0.23316 0.0
O8 O 0.28802 0.26285 0.22786 0.0
C9 C 0.20795 0.29881 0.19399 0.0
O10 O 0.23086 0.31339 0.20318 0.0
O11 O 0.21972 0.29961 0.28692 0.0
C12 C 0.29232 0.20015 0.29137 0.0
O13 O 0.27161 0.18559 0.27502 0.0
O14 O 0.29834 0.2223 0.28364 0.0
O15 O 0.23766 0.21604 0.2637 0.0
O16 O 0.21193 0.24074 0.26951 0.0
O17 O 0.27949 0.20482 0.20666 0.0
C18 C 0.28363 0.28364 0.22456 0.0
C19 C 0.21653 0.22003 0.27319 0.0
Zn20 Zn 0.73738 0.27217 0.24253 0.0
Zn21 Zn 0.76009 0.2279 0.28807 0.0
C22 C 0.71022 0.29607 0.1968 0.0
O23 O 0.7257 0.28911 0.1758 0.0
C24 C 0.80183 0.2172 0.33082 0.0
O25 O 0.80518 0.23967 0.34221 0.0
O26 O 0.76925 0.28892 0.21888 0.0
O27 O 0.74657 0.2766 0.29442 0.0
O28 O 0.78068 0.26231 0.28941 0.0
C29 C 0.77829 0.3112 0.22725 0.0
O30 O 0.7672 0.32129 0.25091 0.0
O31 O 0.71081 0.29036 0.22867 0.0
C32 C 0.70885 0.2243 0.31551 0.0
O33 O 0.70268 0.23349 0.28605 0.0
O34 O 0.73194 0.22229 0.32182 0.0
O35 O 0.74394 0.21237 0.24221 0.0
O36 O 0.72383 0.23905 0.22076 0.0
O37 O 0.78411 0.20843 0.30683 0.0
C38 C 0.77063 0.27839 0.30131 0.0
C39 C 0.72795 0.21814 0.2201 0.0
Zn40 Zn 0.77501 0.72804 0.24431 0.0
Zn41 Zn 0.71975 0.77101 0.25505 0.0
C42 C 0.80888 0.7121 0.28932 0.0
O43 O 0.82415 0.72839 0.27122 0.0
C44 C 0.68614 0.78522 0.2067 0.0
O45 O 0.67032 0.77018 0.22583 0.0
O46 O 0.78798 0.7157 0.20116 0.0
O47 O 0.73809 0.72885 0.24331 0.0
O48 O 0.70011 0.73583 0.2455 0.0
C49 C 0.78138 0.693 0.19458 0.0
O50 O 0.76326 0.67934 0.21226 0.0
O51 O 0.78437 0.70804 0.28313 0.0
C52 C 0.70966 0.80863 0.29616 0.0
O53 O 0.72516 0.82108 0.27405 0.0
O54 O 0.70518 0.78568 0.29497 0.0
O55 O 0.7595 0.77619 0.26181 0.0
O56 O 0.79434 0.76217 0.25737 0.0
O57 O 0.71055 0.78857 0.21313 0.0
C58 C 0.71365 0.72119 0.23898 0.0
C59 C 0.78413 0.77917 0.26586 0.0
Zn60 Zn 0.22924 0.76275 0.26101 0.0
Zn61 Zn 0.27997 0.74028 0.23259 0.0
C62 C 0.18599 0.72629 0.27993 0.0
O63 O 0.17372 0.73881 0.25983 0.0
C64 C 0.3082 0.78414 0.21046 0.0
O65 O 0.32418 0.77895 0.2349 0.0
O66 O 0.20971 0.7887 0.26945 0.0
O67 O 0.26399 0.77537 0.28728 0.0
O68 O 0.29236 0.75319 0.28194 0.0
C69 C 0.20199 0.79003 0.30005 0.0
O70 O 0.2067 0.77493 0.32345 0.0
O71 O 0.21063 0.73307 0.28476 0.0
C72 C 0.29692 0.71098 0.18284 0.0
O73 O 0.27848 0.71749 0.16401 0.0
O74 O 0.30204 0.71883 0.21455 0.0
O75 O 0.24295 0.72141 0.22365 0.0
O76 O 0.22649 0.75199 0.21005 0.0
O77 O 0.28633 0.76927 0.20286 0.0
C78 C 0.28535 0.77043 0.29667 0.0
C79 C 0.2276 0.73027 0.20444 0.0
Zn80 Zn 0.24519 0.77077 0.71465 0.0
Zn81 Zn 0.26998 0.72636 0.7553 0.0
C82 C 0.21548 0.79026 0.66447 0.0
O83 O 0.22735 0.77915 0.64308 0.0
C84 C 0.30144 0.70771 0.80073 0.0
O85 O 0.28611 0.71502 0.82159 0.0
O86 O 0.27392 0.77831 0.6816 0.0
O87 O 0.2597 0.7853 0.76146 0.0
O88 O 0.28108 0.75881 0.77981 0.0
C89 C 0.29688 0.77574 0.68673 0.0
O90 O 0.30324 0.76559 0.71523 0.0
O91 O 0.21977 0.789 0.69727 0.0
C92 C 0.23511 0.6841 0.77872 0.0
O93 O 0.25144 0.67382 0.76409 0.0
O94 O 0.23851 0.70688 0.77771 0.0
O95 O 0.26059 0.72344 0.70364 0.0
O96 O 0.22577 0.73614 0.71159 0.0
O97 O 0.29891 0.71072 0.76807 0.0
C98 C 0.27595 0.7792 0.78273 0.0
C99 C 0.23622 0.72068 0.69867 0.0
Zn100 Zn 0.28131 0.23174 0.7362 0.0
Zn101 Zn 0.2269 0.27022 0.76253 0.0
C102 C 0.31671 0.21605 0.78126 0.0
O103 O 0.3324 0.23183 0.76293 0.0
C104 C 0.19724 0.28954 0.71607 0.0
O105 O 0.18082 0.27274 0.73195 0.0
O106 O 0.29385 0.21803 0.69347 0.0
O107 O 0.24276 0.2276 0.73471 0.0
O108 O 0.20627 0.23683 0.74416 0.0
C109 C 0.28766 0.19505 0.69029 0.0
O110 O 0.27148 0.18265 0.71172 0.0
O111 O 0.2923 0.21325 0.77591 0.0
C112 C 0.21646 0.3035 0.812 0.0
O113 O 0.23439 0.31805 0.79508 0.0
O114 O 0.21035 0.28097 0.80404 0.0
O115 O 0.26424 0.26793 0.77444 0.0
O116 O 0.29813 0.26718 0.74588 0.0
O117 O 0.22154 0.29294 0.72427 0.0
C118 C 0.2181 0.22223 0.73153 0.0
C119 C 0.2856 0.27934 0.7628 0.0
Zn120 Zn 0.72869 0.25738 0.77815 0.0
Zn121 Zn 0.77691 0.23481 0.74225 0.0
C122 C 0.72264 0.2224 0.83472 0.0
O123 O 0.73437 0.24033 0.85674 0.0
C124 C 0.81901 0.27051 0.71874 0.0
O125 O 0.8319 0.25579 0.73256 0.0
O126 O 0.70756 0.27897 0.79842 0.0
O127 O 0.76639 0.27351 0.789 0.0
O128 O 0.78263 0.24181 0.7941 0.0
C129 C 0.71798 0.30045 0.81028 0.0
O130 O 0.74309 0.30949 0.80829 0.0
O131 O 0.71956 0.22634 0.80248 0.0
C132 C 0.80062 0.2088 0.69628 0.0
O133 O 0.79359 0.22394 0.67474 0.0
O134 O 0.79548 0.20946 0.7282 0.0
O135 O 0.74087 0.22261 0.71978 0.0
O136 O 0.71531 0.24717 0.7286 0.0
O137 O 0.79445 0.26572 0.71993 0.0
C138 C 0.78169 0.26272 0.80471 0.0
C139 C 0.7201 0.2292 0.71274 0.0
Zn140 Zn 0.72946 0.77454 0.7582 0.0
Zn141 Zn 0.77324 0.72682 0.73974 0.0
C142 C 0.70277 0.79226 0.80925 0.0
O143 O 0.68588 0.77221 0.79765 0.0
C144 C 0.80534 0.70895 0.69757 0.0
O145 O 0.82125 0.7269 0.71611 0.0
O146 O 0.7024 0.77986 0.72203 0.0
O147 O 0.76474 0.78843 0.7375 0.0
O148 O 0.78749 0.7621 0.72539 0.0
C149 C 0.70705 0.78695 0.69136 0.0
O150 O 0.73026 0.78865 0.6803 0.0
O151 O 0.72531 0.7973 0.79762 0.0
C152 C 0.79068 0.69829 0.78793 0.0
O153 O 0.76989 0.68361 0.77195 0.0
O154 O 0.79697 0.7203 0.77949 0.0
O155 O 0.7369 0.71248 0.75793 0.0
O156 O 0.71604 0.73956 0.77396 0.0
O157 O 0.78096 0.70516 0.70085 0.0
C158 C 0.78461 0.78358 0.72518 0.0
C159 C 0.71803 0.7178 0.77238 0.0
Co160 Co 0.03339 0.95722 0.47595 0.0
Co161 Co 0.03573 0.96885 0.54079 0.0
Co162 Co 0.00317 0.00042 0.49981 0.0
O163 O 0.03392 0.98634 0.50173 0.0
H164 H 0.05008 0.99855 0.5004 0.0
O165 O 0.97282 0.01478 0.49773 0.0
Co166 Co 0.97401 0.04472 0.52183 0.0
Co167 Co 0.97021 0.03055 0.45661 0.0
H168 H 0.95667 0.00279 0.50024 0.0
O169 O 0.06693 0.96759 0.56103 0.0
O170 O 0.04091 0.94135 0.52017 0.0
O171 O 0.00561 0.95879 0.56613 0.0
O172 O 0.98045 0.97571 0.5318 0.0
O173 O 0.01991 0.022 0.54057 0.0
O174 O 0.97222 0.07148 0.54425 0.0
O175 O 0.93958 0.03854 0.52888 0.0
O176 O 0.01068 0.05495 0.51945 0.0
O177 O 0.02565 0.02523 0.46791 0.0
O178 O 1.00006 0.03946 0.43021 0.0
O179 O 0.96767 0.05933 0.47653 0.0
O180 O 0.93835 0.03367 0.43919 0.0
C181 C 0.05959 0.94284 0.45142 0.0
C182 C 0.98184 0.95582 0.46094 0.0
C183 C 0.98335 0.96142 0.55652 0.0
C184 C 0.06121 0.94731 0.54278 0.0
C185 C 0.94769 0.06023 0.54348 0.0
C186 C 0.02516 0.04487 0.53836 0.0
C187 C 0.02253 0.03828 0.4417 0.0
C188 C 0.9458 0.05408 0.45705 0.0
O189 O 0.03522 0.93135 0.45154 0.0
O190 O 0.06786 0.9641 0.46747 0.0
O191 O 0.98622 0.97871 0.45919 0.0
O192 O 0.99712 0.94629 0.47936 0.0
Co193 Co 0.53253 0.95687 0.98549 0.0
Co194 Co 0.53408 0.97447 0.04914 0.0
Co195 Co 0.5006 0.0008 0.99783 0.0
O196 O 0.53181 0.98768 0.0055 0.0
H197 H 0.54776 0.99984 0.00258 0.0
O198 O 0.46945 0.0139 0.99051 0.0
Co199 Co 0.46874 0.04497 0.00974 0.0
Co200 Co 0.46736 0.02671 0.94682 0.0
H201 H 0.4535 0.00178 0.99355 0.0
O202 O 0.56601 0.9712 0.06867 0.0
O203 O 0.5367 0.94454 0.03287 0.0
O204 O 0.50326 0.96863 0.07504 0.0
O205 O 0.47923 0.97921 0.03126 0.0
O206 O 0.51566 0.02544 0.03557 0.0
O207 O 0.46506 0.07263 0.02779 0.0
O208 O 0.43392 0.03815 0.01512 0.0
O209 O 0.50548 0.05613 0.00881 0.0
O210 O 0.52205 0.02224 0.96426 0.0
O211 O 0.49797 0.03285 0.92074 0.0
O212 O 0.46321 0.05631 0.96175 0.0
O213 O 0.4354 0.02781 0.92651 0.0
C214 C 0.56058 0.94157 0.96767 0.0
C215 C 0.48086 0.95386 0.96526 0.0
C216 C 0.48137 0.96932 0.0604 0.0
C217 C 0.55824 0.95009 0.05278 0.0
C218 C 0.44081 0.06052 0.02743 0.0
C219 C 0.5205 0.04791 0.02974 0.0
C220 C 0.51989 0.03203 0.93503 0.0
C221 C 0.44174 0.04925 0.94159 0.0
O222 O 0.53624 0.92963 0.96658 0.0
O223 O 0.56752 0.96364 0.98116 0.0
O224 O 0.48535 0.97633 0.95986 0.0
O225 O 0.49606 0.94569 0.9858 0.0
Co226 Co 0.03022 0.45614 0.98036 0.0
Co227 Co 0.03565 0.47423 0.04397 0.0
Co228 Co 1.00078 0.50145 0.99778 0.0
O229 O 0.03159 0.48736 0.00076 0.0
H230 H 0.04747 0.49916 0.99633 0.0
O231 O 0.96979 0.51538 0.995 0.0
Co232 Co 0.97139 0.5458 0.01764 0.0
Co233 Co 0.96612 0.53058 0.95388 0.0
H234 H 0.95386 0.50338 0.99862 0.0
O235 O 0.06736 0.46933 0.06038 0.0
O236 O 0.03516 0.44334 0.02757 0.0
O237 O 0.00753 0.47082 0.07416 0.0
O238 O 0.98065 0.47874 0.03164 0.0
O239 O 0.01874 0.52512 0.03614 0.0
O240 O 0.97052 0.57275 0.04016 0.0
O241 O 0.93747 0.53972 0.02749 0.0
O242 O 0.00709 0.55588 0.01191 0.0
O243 O 0.02097 0.52378 0.96367 0.0
O244 O 0.9953 0.53757 0.92551 0.0
O245 O 0.96343 0.55993 0.97214 0.0
O246 O 0.93385 0.5328 0.93679 0.0
C247 C 0.05638 0.43944 0.96086 0.0
C248 C 0.97964 0.45557 0.9612 0.0
C249 C 0.98477 0.46999 0.06123 0.0
C250 C 0.05736 0.44792 0.04614 0.0
C251 C 0.94635 0.56122 0.04258 0.0
C252 C 0.02235 0.5478 0.03242 0.0
C253 C 0.01758 0.53545 0.93648 0.0
C254 C 0.94176 0.55411 0.95216 0.0
O255 O 0.03181 0.42841 0.9605 0.0
O256 O 0.06472 0.46135 0.97465 0.0
O257 O 0.98304 0.47828 0.95909 0.0
O258 O 0.9939 0.44672 0.98222 0.0
Co259 Co 0.53205 0.45422 0.98583 0.0
Co260 Co 0.53289 0.47159 0.04898 0.0
Co261 Co 0.50257 0.5001 0.99971 0.0
O262 O 0.5326 0.48535 0.00593 0.0
H263 H 0.54902 0.49702 0.00369 0.0
O264 O 0.47276 0.51495 0.99341 0.0
Co265 Co 0.47441 0.54628 0.01348 0.0
Co266 Co 0.47229 0.52841 0.95028 0.0
H267 H 0.45627 0.5035 0.99612 0.0
O268 O 0.56371 0.4689 0.07002 0.0
O269 O 0.53501 0.44152 0.03362 0.0
O270 O 0.50211 0.46519 0.07407 0.0
O271 O 0.47829 0.47613 0.03059 0.0
O272 O 0.51755 0.52233 0.04072 0.0
O273 O 0.47288 0.57423 0.0329 0.0
O274 O 0.43958 0.54204 0.01675 0.0
O275 O 0.51143 0.55482 0.01463 0.0
O276 O 0.52673 0.52406 0.96844 0.0
O277 O 0.50217 0.53201 0.92337 0.0
O278 O 0.47154 0.55901 0.9658 0.0
O279 O 0.44163 0.53232 0.93019 0.0
C280 C 0.55907 0.4369 0.96965 0.0
C281 C 0.48185 0.45479 0.96207 0.0
C282 C 0.48014 0.46517 0.0593 0.0
C283 C 0.55584 0.44745 0.05516 0.0
C284 C 0.44811 0.56374 0.03123 0.0
C285 C 0.52375 0.54512 0.0373 0.0
C286 C 0.52445 0.53324 0.93828 0.0
C287 C 0.45026 0.55372 0.94509 0.0
O288 O 0.5343 0.4264 0.96712 0.0
O289 O 0.56709 0.45894 0.98318 0.0
O290 O 0.48733 0.47767 0.95908 0.0
O291 O 0.49511 0.44515 0.98368 0.0
Co292 Co 0.05081 0.47161 0.51059 0.0
Co293 Co 0.02771 0.47061 0.44913 0.0
Co294 Co 1.00203 0.50056 0.50318 0.0
O295 O 0.01608 0.47185 0.49351 0.0
H296 H 0.00358 0.45684 0.49752 0.0
O297 O 0.9882 0.52936 0.51283 0.0
Co298 Co 0.95419 0.5301 0.49393 0.0
Co299 Co 0.97528 0.53062 0.55626 0.0
H300 H 1.00101 0.54433 0.50952 0.0
O301 O 0.02923 0.44125 0.42842 0.0
O302 O 0.06067 0.46717 0.46234 0.0
O303 O 0.03436 0.50027 0.42525 0.0
O304 O 0.02201 0.52153 0.4674 0.0
O305 O 0.97262 0.48667 0.46805 0.0
O306 O 0.92404 0.53339 0.47558 0.0
O307 O 0.96148 0.56224 0.48703 0.0
O308 O 0.94219 0.49644 0.49747 0.0
O309 O 0.98215 0.47983 0.53937 0.0
O310 O 0.96924 0.50129 0.58082 0.0
O311 O 0.94301 0.53507 0.54136 0.0
O312 O 0.97395 0.55978 0.57731 0.0
C313 C 0.06918 0.44606 0.52812 0.0
C314 C 0.05473 0.51944 0.52846 0.0
C315 C 0.03296 0.5202 0.43907 0.0
C316 C 0.05294 0.44766 0.44238 0.0
C317 C 0.93708 0.55588 0.47499 0.0
C318 C 0.94908 0.48252 0.47592 0.0
C319 C 0.97141 0.48135 0.56794 0.0
C320 C 0.95069 0.55442 0.56174 0.0
O321 O 0.08164 0.46872 0.52727 0.0
O322 O 0.04457 0.43933 0.51704 0.0
O323 O 0.03156 0.51425 0.538 0.0
O324 O 0.06199 0.50547 0.50735 0.0
Co325 Co 0.54943 0.97197 0.52022 0.0
Co326 Co 0.53164 0.97111 0.45643 0.0
Co327 Co 0.50188 0.00077 0.50419 0.0
O328 O 0.51654 0.97251 0.49771 0.0
H329 H 0.50357 0.95747 0.49996 0.0
O330 O 0.48719 0.02908 0.51091 0.0
Co331 Co 0.45422 0.03025 0.4891 0.0
Co332 Co 0.47207 0.02975 0.55249 0.0
H333 H 0.50023 0.04412 0.509 0.0
O334 O 0.53179 0.94152 0.43728 0.0
O335 O 0.56287 0.96589 0.47408 0.0
O336 O 0.53884 1.00004 0.43071 0.0
O337 O 0.52393 0.02169 0.46996 0.0
O338 O 0.47463 0.98674 0.46633 0.0
O339 O 0.42511 0.0342 0.46809 0.0
O340 O 0.46225 0.06256 0.4834 0.0
O341 O 0.44151 0.99586 0.49058 0.0
O342 O 0.48 0.97969 0.53823 0.0
O343 O 0.46346 0.00041 0.5767 0.0
O344 O 0.44105 0.03534 0.53575 0.0
O345 O 0.47252 0.05895 0.57309 0.0
C346 C 0.56487 0.94616 0.54222 0.0
C347 C 0.55316 0.01972 0.5374 0.0
C348 C 0.53559 0.0199 0.44232 0.0
C349 C 0.55464 0.94628 0.45405 0.0
C350 C 0.43843 0.05668 0.46909 0.0
C351 C 0.45053 0.98168 0.47175 0.0
C352 C 0.46713 0.98081 0.56487 0.0
C353 C 0.4495 0.0544 0.55684 0.0
O354 O 0.57854 0.96847 0.54188 0.0
O355 O 0.54112 0.94001 0.52779 0.0
O356 O 0.52898 0.0147 0.54223 0.0
O357 O 0.56212 0.00625 0.51725 0.0
H358 H 0.17125 0.2223 0.3032 0.0
H359 H 0.1415 0.19091 0.33365 0.0
H360 H 0.18866 0.14152 0.31454 0.0
H361 H 0.21837 0.17278 0.28374 0.0
H362 H 0.13964 0.1175 0.30475 0.0
H363 H 0.18858 0.16929 0.39709 0.0
H364 H 0.20813 0.20711 0.43158 0.0
H365 H 0.13203 0.21696 0.44552 0.0
H366 H 0.11203 0.17941 0.41056 0.0
H367 H 0.07222 0.03301 0.43027 0.0
H368 H 0.10759 0.06228 0.40352 0.0
H369 H 0.05974 0.1127 0.39534 0.0
H370 H 0.0245 0.08361 0.42057 0.0
H371 H 0.11233 0.13434 0.42182 0.0
H372 H 0.06444 0.083 0.32538 0.0
H373 H 0.04592 0.04385 0.29369 0.0
H374 H 0.12235 0.03213 0.29097 0.0
H375 H 0.14128 0.0711 0.32316 0.0
C376 C 0.17539 0.20479 0.30534 0.0
C377 C 0.19754 0.20039 0.29087 0.0
C378 C 0.15832 0.18676 0.32311 0.0
C379 C 0.16277 0.16365 0.32716 0.0
C380 C 0.18458 0.15905 0.31213 0.0
C381 C 0.20172 0.17711 0.29446 0.0
C382 C 0.14462 0.14434 0.34665 0.0
C383 C 0.13409 0.12121 0.3306 0.0
C384 C 0.13687 0.14877 0.38045 0.0
C385 C 0.14882 0.17166 0.40084 0.0
C386 C 0.17602 0.17966 0.40716 0.0
C387 C 0.18718 0.20103 0.42687 0.0
C388 C 0.17134 0.21447 0.44064 0.0
C389 C 0.14429 0.20656 0.43476 0.0
C390 C 0.13303 0.18524 0.41498 0.0
C391 C 0.0693 0.05032 0.42274 0.0
C392 C 0.04526 0.05569 0.42719 0.0
C393 C 0.08953 0.06709 0.4074 0.0
C394 C 0.08644 0.08984 0.39711 0.0
C395 C 0.06279 0.09541 0.40281 0.0
C396 C 0.0425 0.07857 0.41714 0.0
C397 C 0.10723 0.10786 0.37972 0.0
C398 C 0.11816 0.13072 0.39613 0.0
C399 C 0.11553 0.10312 0.34651 0.0
C400 C 0.10422 0.07979 0.32706 0.0
C401 C 0.07726 0.07196 0.31833 0.0
C402 C 0.0667 0.04983 0.30022 0.0
C403 C 0.08294 0.03547 0.29043 0.0
C404 C 0.10979 0.04325 0.29865 0.0
C405 C 0.12045 0.06536 0.31681 0.0
H406 H 0.07473 0.01834 0.2764 0.0
H407 H 0.18002 0.23099 0.45595 0.0
H408 H 0.79155 0.16797 0.32666 0.0
H409 H 0.8164 0.14244 0.35585 0.0
H410 H 0.87202 0.20594 0.40107 0.0
H411 H 0.8471 0.23168 0.3723 0.0
H412 H 0.89374 0.17036 0.36837 0.0
H413 H 0.8299 0.17615 0.44898 0.0
H414 H 0.78523 0.17272 0.46573 0.0
H415 H 0.76556 0.09622 0.44314 0.0
H416 H 0.80967 0.09929 0.42449 0.0
H417 H 0.96072 0.1025 0.47454 0.0
H418 H 0.93613 0.13251 0.46121 0.0
H419 H 0.87114 0.07589 0.41761 0.0
H420 H 0.8955 0.04587 0.4307 0.0
H421 H 0.85561 0.11103 0.45547 0.0
H422 H 0.91065 0.1042 0.36403 0.0
H423 H 0.95196 0.10385 0.33873 0.0
H424 H 0.98462 0.1775 0.37492 0.0
H425 H 0.94357 0.17814 0.40097 0.0
C426 C 0.80912 0.17652 0.34271 0.0
C427 C 0.81739 0.20183 0.34724 0.0
C428 C 0.82319 0.16191 0.35949 0.0
C429 C 0.84584 0.17237 0.38081 0.0
C430 C 0.85448 0.19761 0.38482 0.0
C431 C 0.84023 0.21224 0.36842 0.0
C432 C 0.8607 0.15685 0.39848 0.0
C433 C 0.88565 0.15776 0.38799 0.0
C434 C 0.84963 0.13989 0.42317 0.0
C435 C 0.82314 0.13801 0.43497 0.0
C436 C 0.816 0.15863 0.44713 0.0
C437 C 0.79076 0.15675 0.457 0.0
C438 C 0.77263 0.13427 0.45567 0.0
C439 C 0.77964 0.11363 0.44421 0.0
C440 C 0.80473 0.11545 0.43383 0.0
C441 C 0.94106 0.09643 0.46258 0.0
C442 C 0.93017 0.07191 0.45312 0.0
C443 C 0.92707 0.11357 0.45501 0.0
C444 C 0.90197 0.10638 0.43812 0.0
C445 C 0.8905 0.08176 0.43064 0.0
C446 C 0.90453 0.06468 0.43789 0.0
C447 C 0.88853 0.12451 0.42518 0.0
C448 C 0.86385 0.12402 0.43641 0.0
C449 C 0.89945 0.1414 0.40039 0.0
C450 C 0.9242 0.1411 0.38491 0.0
C451 C 0.92674 0.12023 0.36694 0.0
C452 C 0.95008 0.11999 0.35239 0.0
C453 C 0.97095 0.1406 0.35534 0.0
C454 C 0.96847 0.16152 0.37276 0.0
C455 C 0.94517 0.16183 0.38743 0.0
H456 H 0.989 0.1404 0.34403 0.0
H457 H 0.75314 0.13286 0.46349 0.0
H458 H 0.83708 0.7927 0.27075 0.0
H459 H 0.86545 0.82607 0.30603 0.0
H460 H 0.79876 0.84974 0.33528 0.0
H461 H 0.76992 0.81589 0.30031 0.0
H462 H 0.84592 0.88821 0.31843 0.0
H463 H 0.81915 0.82043 0.39181 0.0
H464 H 0.81093 0.77743 0.40606 0.0
H465 H 0.89175 0.78036 0.39812 0.0
H466 H 0.90038 0.82329 0.38327 0.0
H467 H 0.93387 0.96439 0.4488 0.0
H468 H 0.895 0.93708 0.41891 0.0
H469 H 0.93943 0.88516 0.39939 0.0
H470 H 0.97754 0.91163 0.43115 0.0
H471 H 0.89577 0.86231 0.41774 0.0
H472 H 0.922 0.92654 0.33565 0.0
H473 H 0.93172 0.96893 0.31786 0.0
H474 H 0.85446 0.97239 0.33888 0.0
H475 H 0.84439 0.93008 0.35714 0.0
C476 C 0.82835 0.80515 0.28421 0.0
C477 C 0.80116 0.80158 0.28278 0.0
C478 C 0.84463 0.82421 0.30436 0.0
C479 C 0.83411 0.84012 0.32345 0.0
C480 C 0.80715 0.83758 0.32064 0.0
C481 C 0.79074 0.81831 0.30055 0.0
C482 C 0.85149 0.85818 0.34811 0.0
C483 C 0.85654 0.88272 0.34059 0.0
C484 C 0.86543 0.8508 0.37666 0.0
C485 C 0.86037 0.82506 0.38619 0.0
C486 C 0.83514 0.81187 0.39286 0.0
C487 C 0.83041 0.78751 0.40108 0.0
C488 C 0.85079 0.77615 0.40292 0.0
C489 C 0.87597 0.78917 0.39667 0.0
C490 C 0.8808 0.81353 0.3884 0.0
C491 C 0.93519 0.94712 0.43804 0.0
C492 C 0.95859 0.94004 0.44211 0.0
C493 C 0.91305 0.93158 0.42084 0.0
C494 C 0.9143 0.90914 0.4064 0.0
C495 C 0.93785 0.90227 0.41042 0.0
C496 C 0.95966 0.91743 0.42844 0.0
C497 C 0.89135 0.89247 0.38719 0.0
C498 C 0.88503 0.86805 0.39594 0.0
C499 C 0.87657 0.89998 0.35947 0.0
C500 C 0.88255 0.92527 0.34809 0.0
C501 C 0.90715 0.9364 0.33663 0.0
C502 C 0.91271 0.96039 0.32646 0.0
C503 C 0.89375 0.97336 0.32734 0.0
C504 C 0.86914 0.96233 0.33827 0.0
C505 C 0.86349 0.93835 0.3485 0.0
H506 H 0.8981 0.99194 0.31949 0.0
H507 H 0.84708 0.75728 0.40925 0.0
H508 H 0.20927 0.83692 0.27976 0.0
H509 H 0.18759 0.86718 0.30123 0.0
H510 H 0.14062 0.81337 0.3634 0.0
H511 H 0.16273 0.7835 0.34316 0.0
H512 H 0.11369 0.84475 0.31862 0.0
H513 H 0.18466 0.84617 0.40665 0.0
H514 H 0.23096 0.85082 0.42519 0.0
H515 H 0.25009 0.92251 0.38611 0.0
H516 H 0.20389 0.91811 0.3668 0.0
H517 H 0.05314 0.89469 0.44306 0.0
H518 H 0.0801 0.87316 0.41375 0.0
H519 H 0.13328 0.94094 0.39214 0.0
H520 H 0.10649 0.96286 0.42319 0.0
H521 H 0.15964 0.90777 0.40798 0.0
H522 H 0.08809 0.90924 0.32787 0.0
H523 H 0.042 0.90503 0.30855 0.0
H524 H 0.02421 0.82931 0.32907 0.0
H525 H 0.07012 0.83312 0.34901 0.0
C526 C 0.19413 0.83157 0.29773 0.0
C527 C 0.18763 0.80791 0.30982 0.0
C528 C 0.18188 0.84884 0.31006 0.0
C529 C 0.16255 0.84247 0.33393 0.0
C530 C 0.15547 0.81863 0.345 0.0
C531 C 0.16814 0.80162 0.33347 0.0
C532 C 0.14993 0.86056 0.34829 0.0
C533 C 0.12368 0.85854 0.33815 0.0
C534 C 0.16324 0.87896 0.37299 0.0
C535 C 0.19091 0.88169 0.38486 0.0
C536 C 0.19878 0.86283 0.40167 0.0
C537 C 0.22499 0.86543 0.4124 0.0
C538 C 0.24347 0.88692 0.40675 0.0
C539 C 0.23575 0.90587 0.39044 0.0
C540 C 0.20957 0.90333 0.37959 0.0
C541 C 0.07054 0.90513 0.43205 0.0
C542 C 0.07739 0.93053 0.43478 0.0
C543 C 0.08596 0.89274 0.4152 0.0
C544 C 0.10831 0.90537 0.39964 0.0
C545 C 0.11593 0.93078 0.40353 0.0
C546 C 0.10062 0.94329 0.42117 0.0
C547 C 0.12304 0.89165 0.37897 0.0
C548 C 0.14969 0.8944 0.3879 0.0
C549 C 0.11015 0.87403 0.35275 0.0
C550 C 0.08257 0.8715 0.34007 0.0
C551 C 0.07434 0.8917 0.32839 0.0
C552 C 0.04824 0.88939 0.31734 0.0
C553 C 0.03019 0.86692 0.31762 0.0
C554 C 0.03822 0.8467 0.32885 0.0
C555 C 0.06429 0.84892 0.33998 0.0
H556 H 0.00998 0.86517 0.30909 0.0
H557 H 0.26374 0.88891 0.41508 0.0
H558 H 0.2109 0.80528 0.59783 0.0
H559 H 0.18356 0.83097 0.57543 0.0
H560 H 0.15387 0.83397 0.67701 0.0
H561 H 0.1813 0.80844 0.69978 0.0
H562 H 0.11513 0.82486 0.62109 0.0
H563 H 0.1971 0.88032 0.65579 0.0
H564 H 0.24468 0.89699 0.65788 0.0
H565 H 0.24009 0.90638 0.547 0.0
H566 H 0.19249 0.88939 0.54415 0.0
H567 H 0.06254 0.92679 0.60516 0.0
H568 H 0.08749 0.89792 0.62332 0.0
H569 H 0.11701 0.89925 0.52093 0.0
H570 H 0.09243 0.9285 0.50322 0.0
H571 H 0.15536 0.90516 0.57508 0.0
H572 H 0.07228 0.85113 0.54155 0.0
H573 H 0.0246 0.83586 0.54119 0.0
H574 H 0.03116 0.82482 0.65153 0.0
H575 H 0.07889 0.84038 0.65266 0.0
C576 C 0.19846 0.81131 0.61537 0.0
C577 C 0.19826 0.80493 0.65058 0.0
C578 C 0.18295 0.82602 0.60256 0.0
C579 C 0.1669 0.8344 0.62469 0.0
C580 C 0.16619 0.82763 0.65962 0.0
C581 C 0.18192 0.81315 0.67257 0.0
C582 C 0.15105 0.8505 0.61145 0.0
C583 C 0.12388 0.84252 0.61133 0.0
C584 C 0.1626 0.87328 0.59815 0.0
C585 C 0.19126 0.88327 0.59969 0.0
C586 C 0.20627 0.88566 0.63178 0.0
C587 C 0.23323 0.89523 0.63312 0.0
C588 C 0.24541 0.90265 0.60257 0.0
C589 C 0.23064 0.90056 0.57063 0.0
C590 C 0.20366 0.89097 0.56914 0.0
C591 C 0.07421 0.92067 0.58656 0.0
C592 C 0.07526 0.92926 0.55256 0.0
C593 C 0.08832 0.9042 0.59684 0.0
C594 C 0.10376 0.89626 0.57327 0.0
C595 C 0.10496 0.90501 0.53933 0.0
C596 C 0.0907 0.9214 0.52903 0.0
C597 C 0.11941 0.87951 0.58464 0.0
C598 C 0.14658 0.88741 0.58453 0.0
C599 C 0.10785 0.85671 0.59787 0.0
C600 C 0.07916 0.84712 0.59724 0.0
C601 C 0.06355 0.84562 0.56579 0.0
C602 C 0.03651 0.83688 0.56544 0.0
C603 C 0.02485 0.82942 0.59633 0.0
C604 C 0.04022 0.83062 0.62763 0.0
C605 C 0.06727 0.83938 0.62813 0.0
H606 H 0.00392 0.82267 0.59601 0.0
H607 H 0.26629 0.91009 0.60367 0.0
H608 H 0.16944 0.19541 0.74254 0.0
H609 H 0.14369 0.15998 0.70792 0.0
H610 H 0.20738 0.1638 0.64239 0.0
H611 H 0.23327 0.19924 0.67709 0.0
H612 H 0.15852 0.16211 0.60594 0.0
H613 H 0.19508 0.11836 0.68985 0.0
H614 H 0.20888 0.10742 0.74858 0.0
H615 H 0.12935 0.08813 0.77528 0.0
H616 H 0.11507 0.09934 0.71688 0.0
H617 H 0.07294 0.05915 0.51349 0.0
H618 H 0.11262 0.08487 0.54439 0.0
H619 H 0.06957 0.08967 0.63482 0.0
H620 H 0.03025 0.06367 0.60413 0.0
H621 H 0.11645 0.08304 0.65399 0.0
H622 H 0.0817 0.13431 0.57478 0.0
H623 H 0.06779 0.14721 0.51727 0.0
H624 H 0.1442 0.15349 0.48248 0.0
H625 H 0.15846 0.14024 0.5397 0.0
C626 C 0.17805 0.18846 0.72107 0.0
C627 C 0.20339 0.1998 0.71266 0.0
C628 C 0.16342 0.16821 0.70145 0.0
C629 C 0.17379 0.15923 0.67285 0.0
C630 C 0.19919 0.17039 0.66457 0.0
C631 C 0.21398 0.19044 0.68455 0.0
C632 C 0.15709 0.13938 0.65025 0.0
C633 C 0.14978 0.14455 0.61604 0.0
C634 C 0.14559 0.1167 0.66378 0.0
C635 C 0.15402 0.10986 0.69899 0.0
C636 C 0.18054 0.11198 0.70833 0.0
C637 C 0.18844 0.10569 0.74156 0.0
C638 C 0.17001 0.09712 0.76567 0.0
C639 C 0.14361 0.09478 0.75657 0.0
C640 C 0.13559 0.10107 0.72338 0.0
C641 C 0.07221 0.0657 0.54004 0.0
C642 C 0.04888 0.05974 0.5567 0.0
C643 C 0.09473 0.08033 0.5576 0.0
C644 C 0.09398 0.08929 0.59182 0.0
C645 C 0.07061 0.08287 0.6085 0.0
C646 C 0.04819 0.0682 0.59103 0.0
C647 C 0.11707 0.10612 0.61014 0.0
C648 C 0.12564 0.10035 0.64354 0.0
C649 C 0.12968 0.12831 0.59588 0.0
C650 C 0.12104 0.13596 0.56134 0.0
C651 C 0.09546 0.13819 0.55475 0.0
C652 C 0.08753 0.1456 0.52224 0.0
C653 C 0.10508 0.15109 0.49623 0.0
C654 C 0.13061 0.14917 0.50265 0.0
C655 C 0.13862 0.14169 0.5351 0.0
H656 H 0.0989 0.15694 0.47116 0.0
H657 H 0.17617 0.09225 0.79138 0.0
H658 H 0.83863 0.21903 0.65131 0.0
H659 H 0.86198 0.19161 0.62694 0.0
H660 H 0.81844 0.1336 0.68622 0.0
H661 H 0.79637 0.16171 0.71266 0.0
H662 H 0.86523 0.12918 0.68462 0.0
H663 H 0.80316 0.14215 0.59454 0.0
H664 H 0.78225 0.16803 0.55821 0.0
H665 H 0.85483 0.19901 0.51412 0.0
H666 H 0.87627 0.17356 0.55049 0.0
H667 H 0.90177 0.04104 0.57337 0.0
H668 H 0.87368 0.06366 0.59998 0.0
H669 H 0.9243 0.13067 0.57029 0.0
H670 H 0.95258 0.10843 0.54478 0.0
H671 H 0.86963 0.1264 0.55571 0.0
H672 H 0.93205 0.11729 0.64845 0.0
H673 H 0.95491 0.0941 0.68694 0.0
H674 H 0.88225 0.05653 0.72557 0.0
H675 H 0.8589 0.07927 0.68684 0.0
C676 C 0.8342 0.20044 0.65928 0.0
C677 C 0.81554 0.19233 0.68349 0.0
C678 C 0.84739 0.18471 0.64514 0.0
C679 C 0.84132 0.16022 0.65367 0.0
C680 C 0.82328 0.15231 0.67888 0.0
C681 C 0.81066 0.16832 0.69394 0.0
C682 C 0.85359 0.14297 0.63588 0.0
C683 C 0.86567 0.12824 0.65638 0.0
C684 C 0.85461 0.14189 0.59897 0.0
C685 C 0.84137 0.15612 0.57553 0.0
C686 C 0.81466 0.15449 0.57711 0.0
C687 C 0.80273 0.16913 0.55658 0.0
C688 C 0.81728 0.18535 0.5342 0.0
C689 C 0.84365 0.18659 0.53171 0.0
C690 C 0.85568 0.17201 0.5522 0.0
C691 C 0.90671 0.06057 0.57241 0.0
C692 C 0.92941 0.07302 0.55734 0.0
C693 C 0.89076 0.07344 0.58763 0.0
C694 C 0.89705 0.09881 0.58719 0.0
C695 C 0.91915 0.11111 0.57093 0.0
C696 C 0.93533 0.09837 0.55653 0.0
C697 C 0.88126 0.11292 0.60451 0.0
C698 C 0.86861 0.12704 0.58388 0.0
C699 C 0.8797 0.11342 0.64118 0.0
C700 C 0.89369 0.09971 0.66438 0.0
C701 C 0.92091 0.10388 0.66485 0.0
C702 C 0.93397 0.09087 0.68678 0.0
C703 C 0.92003 0.07378 0.70859 0.0
C704 C 0.89301 0.06972 0.70858 0.0
C705 C 0.87985 0.08267 0.68666 0.0
H706 H 0.93017 0.06373 0.72557 0.0
H707 H 0.8081 0.19688 0.51864 0.0
H708 H 0.78144 0.82978 0.70961 0.0
H709 H 0.81277 0.86127 0.68125 0.0
H710 H 0.86372 0.81389 0.67418 0.0
H711 H 0.83249 0.78229 0.70251 0.0
H712 H 0.89102 0.85938 0.69624 0.0
H713 H 0.82616 0.82546 0.60162 0.0
H714 H 0.78116 0.81361 0.57475 0.0
H715 H 0.77596 0.88711 0.5847 0.0
H716 H 0.82089 0.89936 0.61191 0.0
H717 H 0.98113 0.91716 0.58222 0.0
H718 H 0.94611 0.88953 0.60913 0.0
H719 H 0.89804 0.93947 0.59487 0.0
H720 H 0.93328 0.96715 0.56571 0.0
H721 H 0.8675 0.89591 0.58651 0.0
H722 H 0.93076 0.93139 0.67812 0.0
H723 H 0.97433 0.94508 0.70902 0.0
H724 H 0.981 0.87185 0.71043 0.0
H725 H 0.93758 0.85773 0.67914 0.0
C726 C 0.79933 0.82598 0.70216 0.0
C727 C 0.80423 0.80326 0.7086 0.0
C728 C 0.81725 0.84408 0.68562 0.0
C729 C 0.84075 0.84013 0.67501 0.0
C730 C 0.84585 0.8176 0.68188 0.0
C731 C 0.82785 0.79942 0.69815 0.0
C732 C 0.86014 0.8594 0.65723 0.0
C733 C 0.88588 0.8671 0.67201 0.0
C734 C 0.85349 0.8705 0.62633 0.0
C735 C 0.8268 0.86328 0.60904 0.0
C736 C 0.81538 0.83908 0.59817 0.0
C737 C 0.7899 0.83229 0.58287 0.0
C738 C 0.77569 0.84959 0.57809 0.0
C739 C 0.78699 0.87374 0.58842 0.0
C740 C 0.81248 0.88062 0.60372 0.0
C741 C 0.96321 0.92254 0.58479 0.0
C742 C 0.96047 0.94485 0.57223 0.0
C743 C 0.94303 0.90657 0.60055 0.0
C744 C 0.91938 0.91244 0.60556 0.0
C745 C 0.91607 0.93439 0.59197 0.0
C746 C 0.93631 0.95033 0.57531 0.0
C747 C 0.89869 0.89554 0.62512 0.0
C748 C 0.8727 0.8883 0.61079 0.0
C749 C 0.90493 0.88517 0.65697 0.0
C750 C 0.93098 0.89353 0.67605 0.0
C751 C 0.94157 0.91822 0.68485 0.0
C752 C 0.96624 0.92605 0.70245 0.0
C753 C 0.98045 0.90935 0.71162 0.0
C754 C 0.96998 0.88477 0.7033 0.0
C755 C 0.94532 0.87683 0.68567 0.0
H756 H 0.99955 0.91546 0.72524 0.0
H757 H 0.75593 0.84429 0.56634 0.0
H758 H 0.34549 0.21792 0.1598 0.0
H759 H 0.36322 0.18858 0.129 0.0
H760 H 0.29949 0.13077 0.15742 0.0
H761 H 0.28132 0.16025 0.18816 0.0
H762 H 0.35372 0.12386 0.16951 0.0
H763 H 0.2958 0.14372 0.07863 0.0
H764 H 0.27851 0.17425 0.04742 0.0
H765 H 0.35434 0.20656 0.01328 0.0
H766 H 0.37216 0.17639 0.04467 0.0
H767 H 0.39536 0.0404 0.05799 0.0
H768 H 0.36645 0.06205 0.08461 0.0
H769 H 0.41419 0.12975 0.0524 0.0
H770 H 0.44311 0.10838 0.02641 0.0
H771 H 0.36242 0.12764 0.04146 0.0
H772 H 0.42206 0.1148 0.13282 0.0
H773 H 0.44544 0.09185 0.17093 0.0
H774 H 0.37309 0.05236 0.2083 0.0
H775 H 0.3492 0.07484 0.16992 0.0
C776 C 0.33507 0.199 0.15928 0.0
C777 C 0.31188 0.19143 0.17618 0.0
C778 C 0.34528 0.18225 0.14173 0.0
C779 C 0.33268 0.15751 0.14092 0.0
C780 C 0.30951 0.14979 0.15777 0.0
C781 C 0.29903 0.16666 0.17499 0.0
C782 C 0.3439 0.14002 0.12204 0.0
C783 C 0.35499 0.12412 0.14138 0.0
C784 C 0.34642 0.14111 0.08557 0.0
C785 C 0.33534 0.15794 0.06425 0.0
C786 C 0.30878 0.15734 0.06446 0.0
C787 C 0.29891 0.17463 0.04686 0.0
C788 C 0.31541 0.19253 0.02882 0.0
C789 C 0.34166 0.19282 0.02759 0.0
C790 C 0.35163 0.17557 0.04516 0.0
C791 C 0.39944 0.05986 0.05628 0.0
C792 C 0.42158 0.07273 0.04039 0.0
C793 C 0.38301 0.07222 0.07162 0.0
C794 C 0.38826 0.09757 0.07072 0.0
C795 C 0.40973 0.11023 0.05347 0.0
C796 C 0.42633 0.09799 0.03877 0.0
C797 C 0.3722 0.11122 0.08886 0.0
C798 C 0.36043 0.12666 0.06941 0.0
C799 C 0.36959 0.11009 0.1254 0.0
C800 C 0.38379 0.09619 0.14802 0.0
C801 C 0.41108 0.10098 0.14879 0.0
C802 C 0.42445 0.08812 0.17053 0.0
C803 C 0.41075 0.07057 0.1919 0.0
C804 C 0.38366 0.06589 0.19162 0.0
C805 C 0.37019 0.07868 0.16986 0.0
H806 H 0.42114 0.06067 0.20878 0.0
H807 H 0.30778 0.20603 0.01545 0.0
H808 H 0.81729 0.34768 0.25526 0.0
H809 H 0.85072 0.37546 0.22449 0.0
H810 H 0.82018 0.33605 0.12715 0.0
H811 H 0.78704 0.30811 0.15831 0.0
H812 H 0.86999 0.34647 0.1298 0.0
H813 H 0.80903 0.39189 0.14623 0.0
H814 H 0.77933 0.41153 0.17522 0.0
H815 H 0.84362 0.45465 0.2406 0.0
H816 H 0.87371 0.43506 0.21228 0.0
H817 H 0.93806 0.44572 0.02938 0.0
H818 H 0.90209 0.41803 0.05574 0.0
H819 H 0.94443 0.43276 0.15689 0.0
H820 H 0.981 0.46008 0.13052 0.0
H821 H 0.88653 0.43537 0.1476 0.0
H822 H 0.94625 0.3848 0.12708 0.0
H823 H 0.97209 0.36406 0.09227 0.0
H824 H 0.90398 0.33098 0.02526 0.0
H825 H 0.87779 0.35177 0.05944 0.0
C826 C 0.8178 0.34517 0.2273 0.0
C827 C 0.79962 0.32618 0.209 0.0
C828 C 0.83675 0.361 0.2097 0.0
C829 C 0.83756 0.3582 0.17334 0.0
C830 C 0.81981 0.33866 0.15517 0.0
C831 C 0.80101 0.32267 0.17293 0.0
C832 C 0.85743 0.3753 0.1546 0.0
C833 C 0.87328 0.36591 0.1333 0.0
C834 C 0.86176 0.40069 0.15909 0.0
C835 C 0.84362 0.41185 0.17728 0.0
C836 C 0.81682 0.40537 0.16706 0.0
C837 C 0.79992 0.41658 0.18325 0.0
C838 C 0.8096 0.4344 0.20963 0.0
C839 C 0.83617 0.44092 0.22005 0.0
C840 C 0.85316 0.42976 0.20393 0.0
C841 C 0.93963 0.4433 0.05732 0.0
C842 C 0.96227 0.45518 0.07801 0.0
C843 C 0.91915 0.42735 0.07221 0.0
C844 C 0.9208 0.42336 0.1081 0.0
C845 C 0.94298 0.43566 0.12907 0.0
C846 C 0.96376 0.45123 0.11404 0.0
C847 C 0.89924 0.40641 0.1238 0.0
C848 C 0.88302 0.4159 0.14422 0.0
C849 C 0.894 0.38116 0.11756 0.0
C850 C 0.91012 0.37002 0.09564 0.0
C851 C 0.93687 0.37343 0.1046 0.0
C852 C 0.95154 0.36152 0.08513 0.0
C853 C 0.93962 0.34605 0.0568 0.0
C854 C 0.91313 0.34282 0.0474 0.0
C855 C 0.89838 0.35468 0.06678 0.0
H856 H 0.95095 0.3366 0.04207 0.0
H857 H 0.7965 0.44309 0.22209 0.0
H858 H 0.71296 0.82043 0.1656 0.0
H859 H 0.69486 0.84742 0.12837 0.0
H860 H 0.61743 0.81076 0.15433 0.0
H861 H 0.63517 0.78352 0.19065 0.0
H862 H 0.61758 0.82118 0.08698 0.0
H863 H 0.65267 0.86301 0.19738 0.0
H864 H 0.68745 0.87974 0.24359 0.0
H865 H 0.7313 0.92538 0.16932 0.0
H866 H 0.69682 0.9086 0.12267 0.0
H867 H 0.53941 0.90329 0.06844 0.0
H868 H 0.56434 0.87426 0.08455 0.0
H869 H 0.63546 0.92662 0.06379 0.0
H870 H 0.61047 0.95638 0.0508 0.0
H871 H 0.64408 0.90868 0.11983 0.0
H872 H 0.60371 0.86928 0.00989 0.0
H873 H 0.56759 0.85072 0.96616 0.0
H874 H 0.53236 0.80005 0.04063 0.0
H875 H 0.56802 0.81816 0.08493 0.0
C876 C 0.69205 0.81793 0.16293 0.0
C877 C 0.67551 0.79997 0.18128 0.0
C878 C 0.68176 0.83341 0.14177 0.0
C879 C 0.65482 0.83128 0.13893 0.0
C880 C 0.63826 0.81272 0.15608 0.0
C881 C 0.64848 0.79721 0.17699 0.0
C882 C 0.64365 0.84902 0.11984 0.0
C883 C 0.62333 0.84036 0.09403 0.0
C884 C 0.65166 0.87408 0.12851 0.0
C885 C 0.67231 0.88433 0.15654 0.0
C886 C 0.6698 0.87649 0.19095 0.0
C887 C 0.68945 0.88599 0.21719 0.0
C888 C 0.71163 0.90357 0.20937 0.0
C889 C 0.71414 0.91172 0.17532 0.0
C890 C 0.69454 0.90222 0.14898 0.0
C891 C 0.56035 0.90843 0.06705 0.0
C892 C 0.57315 0.93198 0.05871 0.0
C893 C 0.57463 0.89173 0.0758 0.0
C894 C 0.6019 0.89791 0.07473 0.0
C895 C 0.61451 0.92131 0.06493 0.0
C896 C 0.60029 0.9383 0.05749 0.0
C897 C 0.61737 0.88089 0.08708 0.0
C898 C 0.63861 0.88968 0.11179 0.0
C899 C 0.61006 0.85587 0.07749 0.0
C900 C 0.58853 0.84516 0.05079 0.0
C901 C 0.5882 0.85427 0.01702 0.0
C902 C 0.56783 0.84383 0.99212 0.0
C903 C 0.54773 0.82435 0.00062 0.0
C904 C 0.54794 0.81515 0.03406 0.0
C905 C 0.56825 0.82543 0.05904 0.0
H906 H 0.53202 0.81635 0.98125 0.0
H907 H 0.72684 0.91092 0.2297 0.0
H908 H 0.23174 0.68792 0.17513 0.0
H909 H 0.19851 0.65835 0.13938 0.0
H910 H 0.14691 0.70547 0.1423 0.0
H911 H 0.18047 0.73561 0.17754 0.0
H912 H 0.12751 0.65916 0.16826 0.0
H913 H 0.16506 0.69469 0.06642 0.0
H914 H 0.19864 0.7104 0.02548 0.0
H915 H 0.21504 0.64083 0.01768 0.0
H916 H 0.18168 0.62473 0.05883 0.0
H917 H 0.02452 0.59391 0.05205 0.0
H918 H 0.06149 0.62412 0.08004 0.0
H919 H 0.10752 0.57194 0.08205 0.0
H920 H 0.07005 0.54113 0.05444 0.0
H921 H 0.13062 0.61999 0.05254 0.0
H922 H 0.09375 0.58445 0.15498 0.0
H923 H 0.05998 0.56861 0.19559 0.0
H924 H 0.04303 0.63798 0.20275 0.0
H925 H 0.0765 0.65417 0.16178 0.0
C926 C 0.21358 0.6923 0.16746 0.0
C927 C 0.20866 0.71406 0.17921 0.0
C928 C 0.19467 0.67542 0.14688 0.0
C929 C 0.17038 0.67983 0.13812 0.0
C930 C 0.16569 0.7019 0.14866 0.0
C931 C 0.18482 0.71905 0.16875 0.0
C932 C 0.14894 0.66003 0.12241 0.0
C933 C 0.128 0.65077 0.14277 0.0
C934 C 0.1502 0.64872 0.08965 0.0
C935 C 0.17108 0.65858 0.0661 0.0
C936 C 0.17608 0.68282 0.05639 0.0
C937 C 0.19499 0.69177 0.033 0.0
C938 C 0.20902 0.67664 0.01907 0.0
C939 C 0.20418 0.65254 0.02853 0.0
C940 C 0.18525 0.64348 0.05186 0.0
C941 C 0.04243 0.58876 0.05866 0.0
C942 C 0.04449 0.56522 0.05113 0.0
C943 C 0.06347 0.60602 0.07468 0.0
C944 C 0.08708 0.60016 0.08303 0.0
C945 C 0.08933 0.57666 0.07572 0.0
C946 C 0.06798 0.55914 0.06022 0.0
C947 C 0.10937 0.61914 0.09857 0.0
C948 C 0.13036 0.62825 0.07819 0.0
C949 C 0.10831 0.63029 0.13143 0.0
C950 C 0.08738 0.62042 0.15489 0.0
C951 C 0.08253 0.59622 0.16474 0.0
C952 C 0.06353 0.58721 0.18798 0.0
C953 C 0.0493 0.60225 0.20164 0.0
C954 C 0.05403 0.62633 0.19208 0.0
C955 C 0.07301 0.63544 0.16885 0.0
H956 H 0.03466 0.59527 0.21972 0.0
H957 H 0.22358 0.68358 0.00086 0.0
H958 H 0.31863 0.7755 0.823 0.0
H959 H 0.34825 0.80703 0.85961 0.0
H960 H 0.29835 0.85486 0.83941 0.0
H961 H 0.26882 0.82347 0.8013 0.0
H962 H 0.34757 0.87588 0.82778 0.0
H963 H 0.30542 0.83097 0.92322 0.0
H964 H 0.2889 0.79379 0.95513 0.0
H965 H 0.36568 0.78235 0.96527 0.0
H966 H 0.38256 0.81923 0.93302 0.0
H967 H 0.4369 0.96524 0.93824 0.0
H968 H 0.39708 0.93729 0.91236 0.0
H969 H 0.43153 0.8774 0.92984 0.0
H970 H 0.47085 0.90506 0.95689 0.0
H971 H 0.38446 0.86564 0.94687 0.0
H972 H 0.42669 0.90378 0.84756 0.0
H973 H 0.4461 0.93783 0.81124 0.0
H974 H 0.37376 0.95832 0.80289 0.0
H975 H 0.35403 0.92457 0.83965 0.0
C976 C 0.31359 0.79253 0.8268 0.0
C977 C 0.2914 0.79703 0.80916 0.0
C978 C 0.33052 0.81052 0.84796 0.0
C979 C 0.32528 0.83315 0.85262 0.0
C980 C 0.30262 0.83743 0.8362 0.0
C981 C 0.28578 0.81949 0.81456 0.0
C982 C 0.3448 0.85288 0.87197 0.0
C983 C 0.35529 0.87392 0.85417 0.0
C984 C 0.35536 0.84986 0.90586 0.0
C985 C 0.34525 0.82791 0.92581 0.0
C986 C 0.31876 0.8205 0.93222 0.0
C987 C 0.30933 0.79946 0.95034 0.0
C988 C 0.32623 0.78573 0.96225 0.0
C989 C 0.35261 0.79302 0.95612 0.0
C990 C 0.36212 0.81401 0.93799 0.0
C991 C 0.43594 0.9461 0.93645 0.0
C992 C 0.45696 0.93727 0.94934 0.0
C993 C 0.41324 0.93019 0.92159 0.0
C994 C 0.4115 0.90533 0.91872 0.0
C995 C 0.43245 0.89653 0.93181 0.0
C996 C 0.45493 0.91234 0.94717 0.0
C997 C 0.38788 0.88823 0.90233 0.0
C998 C 0.37653 0.86776 0.92074 0.0
C999 C 0.37707 0.89145 0.8686 0.0
C1000 C 0.389 0.91186 0.84676 0.0
C1001 C 0.415 0.91569 0.83827 0.0
C1002 C 0.42605 0.93491 0.81755 0.0
C1003 C 0.4112 0.95029 0.80487 0.0
C1004 C 0.38526 0.94644 0.81282 0.0
C1005 C 0.37414 0.92727 0.8336 0.0
H1006 H 0.41977 0.96514 0.7888 0.0
H1007 H 0.31889 0.76943 0.97621 0.0
H1008 H 0.23281 0.34477 0.85267 0.0
H1009 H 0.20572 0.36566 0.88427 0.0
H1010 H 0.1379 0.30786 0.85388 0.0
H1011 H 0.16503 0.28641 0.82327 0.0
H1012 H 0.14228 0.36189 0.83292 0.0
H1013 H 0.14424 0.30825 0.92629 0.0
H1014 H 0.16298 0.28687 0.97223 0.0
H1015 H 0.20266 0.35471 0.02387 0.0
H1016 H 0.1846 0.37656 0.97774 0.0
H1017 H 0.04411 0.40176 0.91347 0.0
H1018 H 0.07274 0.37871 0.89116 0.0
H1019 H 0.13783 0.42393 0.95396 0.0
H1020 H 0.10906 0.44739 0.97636 0.0
H1021 H 0.13583 0.37618 0.95966 0.0
H1022 H 0.1331 0.42946 0.8657 0.0
H1023 H 0.11324 0.45031 0.8201 0.0
H1024 H 0.07311 0.382 0.77026 0.0
H1025 H 0.09266 0.36069 0.81565 0.0
C1026 C 0.21224 0.33621 0.85357 0.0
C1027 C 0.20101 0.31396 0.83566 0.0
C1028 C 0.19684 0.34812 0.87167 0.0
C1029 C 0.16991 0.33819 0.87154 0.0
C1030 C 0.15873 0.31562 0.85458 0.0
C1031 C 0.17424 0.30339 0.83722 0.0
C1032 C 0.15321 0.35291 0.885 0.0
C1033 C 0.14044 0.3647 0.86063 0.0
C1034 C 0.15162 0.35708 0.92115 0.0
C1035 C 0.16348 0.34408 0.94809 0.0
C1036 C 0.1574 0.31866 0.947 0.0
C1037 C 0.16778 0.30644 0.97321 0.0
C1038 C 0.18412 0.31943 0.00085 0.0
C1039 C 0.1901 0.34467 0.00235 0.0
C1040 C 0.17982 0.35698 0.97614 0.0
C1041 C 0.06457 0.40697 0.92236 0.0
C1042 C 0.0744 0.42648 0.94651 0.0
C1043 C 0.08096 0.39386 0.90937 0.0
C1044 C 0.10751 0.39976 0.92053 0.0
C1045 C 0.11742 0.41917 0.94484 0.0
C1046 C 0.10104 0.43261 0.95748 0.0
C1047 C 0.12447 0.38495 0.9076 0.0
C1048 C 0.13749 0.37329 0.93198 0.0
C1049 C 0.12617 0.38073 0.87141 0.0
C1050 C 0.11413 0.39348 0.8443 0.0
C1051 C 0.11984 0.41887 0.84521 0.0
C1052 C 0.10868 0.43078 0.81936 0.0
C1053 C 0.0918 0.4175 0.79243 0.0
C1054 C 0.08614 0.39227 0.79119 0.0
C1055 C 0.0973 0.38026 0.81692 0.0
H1056 H 0.08318 0.42677 0.77245 0.0
H1057 H 0.19204 0.30993 0.0212 0.0
H1058 H 0.69315 0.18397 0.79535 0.0
H1059 H 0.6641 0.14788 0.8161 0.0
H1060 H 0.6924 0.16978 0.92258 0.0
H1061 H 0.72114 0.20698 0.90229 0.0
H1062 H 0.67823 0.11088 0.88383 0.0
H1063 H 0.647 0.18114 0.92562 0.0
H1064 H 0.63957 0.22138 0.91512 0.0
H1065 H 0.59415 0.19378 0.81951 0.0
H1066 H 0.60163 0.15345 0.82932 0.0
H1067 H 0.56952 0.03818 0.96332 0.0
H1068 H 0.60844 0.06619 0.94606 0.0
H1069 H 0.56486 0.08511 0.85686 0.0
H1070 H 0.52519 0.05735 0.87464 0.0
H1071 H 0.58989 0.12383 0.89049 0.0
H1072 H 0.61317 0.05241 0.85302 0.0
H1073 H 0.62071 0.01185 0.85884 0.0
H1074 H 0.68169 0.03961 0.9392 0.0
H1075 H 0.67422 0.08027 0.93432 0.0
C1076 C 0.69373 0.18105 0.8232 0.0
C1077 C 0.70921 0.19857 0.84728 0.0
C1078 C 0.67728 0.16023 0.83486 0.0
C1079 C 0.6764 0.15621 0.87063 0.0
C1080 C 0.6931 0.17265 0.89478 0.0
C1081 C 0.70938 0.19386 0.88316 0.0
C1082 C 0.65515 0.13676 0.88213 0.0
C1083 C 0.65897 0.11361 0.8862 0.0
C1084 C 0.63001 0.1404 0.88355 0.0
C1085 C 0.62502 0.16442 0.87807 0.0
C1086 C 0.63556 0.18373 0.90228 0.0
C1087 C 0.63132 0.20652 0.89647 0.0
C1088 C 0.61644 0.21015 0.86663 0.0
C1089 C 0.60568 0.19095 0.8426 0.0
C1090 C 0.60989 0.16813 0.84829 0.0
C1091 C 0.56815 0.04793 0.93963 0.0
C1092 C 0.54409 0.0457 0.92054 0.0
C1093 C 0.5906 0.06399 0.92975 0.0
C1094 C 0.58967 0.0779 0.90026 0.0
C1095 C 0.566 0.07467 0.87991 0.0
C1096 C 0.54337 0.05872 0.88998 0.0
C1097 C 0.61263 0.09745 0.89271 0.0
C1098 C 0.6091 0.12078 0.88889 0.0
C1099 C 0.63794 0.09374 0.8913 0.0
C1100 C 0.64285 0.06936 0.89367 0.0
C1101 C 0.62804 0.04985 0.87216 0.0
C1102 C 0.63232 0.02683 0.87526 0.0
C1103 C 0.65158 0.02313 0.89949 0.0
C1104 C 0.66672 0.04248 0.9205 0.0
C1105 C 0.66247 0.06552 0.91757 0.0
H1106 H 0.65483 0.00528 0.9019 0.0
H1107 H 0.61321 0.22782 0.86215 0.0
H1108 H 0.84192 0.71815 0.80987 0.0
H1109 H 0.87085 0.69855 0.84418 0.0
H1110 H 0.80655 0.63616 0.85382 0.0
H1111 H 0.77768 0.65559 0.82011 0.0
H1112 H 0.83603 0.64746 0.91421 0.0
H1113 H 0.84899 0.63714 0.79213 0.0
H1114 H 0.85981 0.65138 0.73334 0.0
H1115 H 0.93633 0.69012 0.77442 0.0
H1116 H 0.92578 0.6765 0.83365 0.0
H1117 H 0.89043 0.54669 0.93158 0.0
H1118 H 0.86797 0.57658 0.91018 0.0
H1119 H 0.93908 0.6329 0.92852 0.0
H1120 H 0.96161 0.6031 0.95092 0.0
H1121 H 0.91109 0.63007 0.85806 0.0
H1122 H 0.89883 0.63477 0.9788 0.0
H1123 H 0.88752 0.61955 0.03611 0.0
H1124 H 0.80787 0.59087 0.99721 0.0
H1125 H 0.81917 0.60489 0.93841 0.0
C1126 C 0.83393 0.70043 0.81985 0.0
C1127 C 0.80762 0.68831 0.81214 0.0
C1128 C 0.85048 0.68921 0.83919 0.0
C1129 C 0.84089 0.66578 0.85108 0.0
C1130 C 0.81437 0.6542 0.84479 0.0
C1131 C 0.79791 0.66531 0.82541 0.0
C1132 C 0.85839 0.65266 0.86893 0.0
C1133 C 0.85236 0.64355 0.90186 0.0
C1134 C 0.88005 0.64806 0.85306 0.0
C1135 C 0.88649 0.65605 0.81741 0.0
C1136 C 0.86805 0.64886 0.78869 0.0
C1137 C 0.87414 0.65679 0.75528 0.0
C1138 C 0.89872 0.67168 0.75016 0.0
C1139 C 0.91728 0.67862 0.77844 0.0
C1140 C 0.91126 0.67082 0.81195 0.0
C1141 C 0.90121 0.56549 0.93146 0.0
C1142 C 0.92774 0.57259 0.94291 0.0
C1143 C 0.88838 0.58251 0.91919 0.0
C1144 C 0.90194 0.60687 0.9176 0.0
C1145 C 0.92836 0.61414 0.92944 0.0
C1146 C 0.9411 0.59716 0.94247 0.0
C1147 C 0.88831 0.62447 0.90299 0.0
C1148 C 0.89501 0.6343 0.87061 0.0
C1149 C 0.867 0.62949 0.91906 0.0
C1150 C 0.85996 0.62064 0.95408 0.0
C1151 C 0.87897 0.62488 0.98221 0.0
C1152 C 0.87249 0.61651 0.01513 0.0
C1153 C 0.84687 0.60438 0.02069 0.0
C1154 C 0.82771 0.60031 0.99297 0.0
C1155 C 0.83419 0.60836 0.95972 0.0
H1156 H 0.84186 0.59815 0.04641 0.0
H1157 H 0.90341 0.67778 0.72427 0.0
H1158 H 0.22084 0.33452 0.14785 0.0
H1159 H 0.19146 0.35388 0.1149 0.0
H1160 H 0.12529 0.30178 0.15018 0.0
H1161 H 0.15473 0.28211 0.18348 0.0
H1162 H 0.12005 0.31887 0.07617 0.0
H1163 H 0.13971 0.34733 0.19649 0.0
H1164 H 0.16957 0.36119 0.24899 0.0
H1165 H 0.2116 0.42184 0.19418 0.0
H1166 H 0.18233 0.40803 0.14108 0.0
H1167 H 0.03574 0.39949 0.05139 0.0
H1168 H 0.05822 0.36885 0.06991 0.0
H1169 H 0.132 0.4223 0.07173 0.0
H1170 H 0.10944 0.45308 0.05529 0.0
H1171 H 0.1297 0.40081 0.12919 0.0
H1172 H 0.10835 0.372 0.00821 0.0
H1173 H 0.07922 0.35619 0.95563 0.0
H1174 H 0.03884 0.29584 0.01216 0.0
H1175 H 0.06779 0.31114 0.06505 0.0
C1176 C 0.20004 0.32681 0.14807 0.0
C1177 C 0.19008 0.30703 0.16873 0.0
C1178 C 0.18329 0.33784 0.12908 0.0
C1179 C 0.15627 0.3294 0.13048 0.0
C1180 C 0.14613 0.30848 0.14874 0.0
C1181 C 0.16296 0.29733 0.16781 0.0
C1182 C 0.13926 0.34461 0.11723 0.0
C1183 C 0.1218 0.33669 0.08788 0.0
C1184 C 0.14176 0.36782 0.13255 0.0
C1185 C 0.15895 0.37655 0.16473 0.0
C1186 C 0.15542 0.36354 0.19557 0.0
C1187 C 0.17222 0.37139 0.22544 0.0
C1188 C 0.19246 0.39238 0.22492 0.0
C1189 C 0.19591 0.40558 0.19454 0.0
C1190 C 0.17922 0.39776 0.16455 0.0
C1191 C 0.05678 0.40454 0.05535 0.0
C1192 C 0.07088 0.42867 0.05239 0.0
C1193 C 0.06966 0.38699 0.06574 0.0
C1194 C 0.0969 0.39317 0.07224 0.0
C1195 C 0.11098 0.41707 0.06729 0.0
C1196 C 0.0981 0.43466 0.05785 0.0
C1197 C 0.11081 0.37562 0.08701 0.0
C1198 C 0.12771 0.38304 0.11716 0.0
C1199 C 0.10752 0.35193 0.07244 0.0
C1200 C 0.09014 0.34281 0.04063 0.0
C1201 C 0.09322 0.3554 0.00944 0.0
C1202 C 0.07676 0.34654 0.97959 0.0
C1203 C 0.05714 0.32514 0.98059 0.0
C1204 C 0.05403 0.31244 0.01142 0.0
C1205 C 0.07051 0.32115 0.0413 0.0
H1206 H 0.04438 0.31838 0.95745 0.0
H1207 H 0.20545 0.39842 0.24807 0.0
H1208 H 0.18697 0.6909 0.78644 0.0
H1209 H 0.15241 0.66606 0.81874 0.0
H1210 H 0.20312 0.62084 0.85021 0.0
H1211 H 0.23695 0.64469 0.81595 0.0
H1212 H 0.16032 0.59331 0.83297 0.0
H1213 H 0.1842 0.66104 0.91055 0.0
H1214 H 0.19563 0.70354 0.9323 0.0
H1215 H 0.1198 0.71012 0.8958 0.0
H1216 H 0.10794 0.66766 0.87366 0.0
H1217 H 0.06795 0.5334 0.95039 0.0
H1218 H 0.10699 0.55942 0.92849 0.0
H1219 H 0.05958 0.59557 0.86508 0.0
H1220 H 0.02025 0.56971 0.88695 0.0
H1221 H 0.10345 0.62709 0.90602 0.0
H1222 H 0.08405 0.55498 0.8267 0.0
H1223 H 0.07557 0.51079 0.81723 0.0
H1224 H 0.1493 0.5122 0.87107 0.0
H1225 H 0.15807 0.55638 0.88118 0.0
C1226 C 0.19065 0.67567 0.80037 0.0
C1227 C 0.21446 0.66958 0.7987 0.0
C1228 C 0.17104 0.66163 0.81915 0.0
C1229 C 0.17524 0.64176 0.83752 0.0
C1230 C 0.19933 0.63602 0.83629 0.0
C1231 C 0.21863 0.64962 0.81668 0.0
C1232 C 0.15389 0.62597 0.85577 0.0
C1233 C 0.14821 0.60085 0.84924 0.0
C1234 C 0.13811 0.63549 0.87762 0.0
C1235 C 0.14528 0.66123 0.8901 0.0
C1236 C 0.17004 0.67162 0.90683 0.0
C1237 C 0.17657 0.69568 0.91934 0.0
C1238 C 0.15849 0.70955 0.91531 0.0
C1239 C 0.13381 0.69936 0.89885 0.0
C1240 C 0.12715 0.67528 0.88639 0.0
C1241 C 0.06572 0.54671 0.93152 0.0
C1242 C 0.04092 0.54937 0.92025 0.0
C1243 C 0.08808 0.56161 0.91917 0.0
C1244 C 0.08607 0.57936 0.89526 0.0
C1245 C 0.06143 0.58198 0.88368 0.0
C1246 C 0.039 0.56702 0.89591 0.0
C1247 C 0.10967 0.59497 0.88181 0.0
C1248 C 0.11577 0.61991 0.88956 0.0
C1249 C 0.12646 0.58525 0.86227 0.0
C1250 C 0.12162 0.5589 0.85486 0.0
C1251 C 0.09841 0.54584 0.83655 0.0
C1252 C 0.09356 0.52081 0.83109 0.0
C1253 C 0.11185 0.5087 0.84363 0.0
C1254 C 0.13514 0.52161 0.8614 0.0
C1255 C 0.14009 0.54664 0.86694 0.0
H1256 H 0.10797 0.48932 0.83958 0.0
H1257 H 0.16357 0.72817 0.92502 0.0
H1258 H 0.28978 0.17612 0.81384 0.0
H1259 H 0.30799 0.14725 0.8468 0.0
H1260 H 0.38564 0.1905 0.83356 0.0
H1261 H 0.36768 0.21918 0.80028 0.0
H1262 H 0.37974 0.14307 0.81564 0.0
H1263 H 0.35731 0.18927 0.91164 0.0
H1264 H 0.32499 0.20563 0.94053 0.0
H1265 H 0.2787 0.13358 0.95392 0.0
H1266 H 0.31043 0.11679 0.92438 0.0
H1267 H 0.4561 0.0986 0.94702 0.0
H1268 H 0.43062 0.12629 0.92565 0.0
H1269 H 0.365 0.06577 0.89775 0.0
H1270 H 0.39055 0.03789 0.91796 0.0
H1271 H 0.36212 0.11955 0.9374 0.0
H1272 H 0.37527 0.07393 0.83317 0.0
H1273 H 0.40126 0.05475 0.79619 0.0
H1274 H 0.45958 0.12207 0.7951 0.0
H1275 H 0.43398 0.14155 0.83246 0.0
C1276 C 0.31072 0.17965 0.81836 0.0
C1277 C 0.3273 0.19992 0.80439 0.0
C1278 C 0.32109 0.16314 0.83721 0.0
C1279 C 0.34817 0.16679 0.84271 0.0
C1280 C 0.36469 0.18732 0.82953 0.0
C1281 C 0.35438 0.20374 0.81061 0.0
C1282 C 0.35955 0.14877 0.86076 0.0
C1283 C 0.37603 0.13816 0.84237 0.0
C1284 C 0.35401 0.1417 0.89523 0.0
C1285 C 0.33607 0.15179 0.91538 0.0
C1286 C 0.3402 0.17692 0.92066 0.0
C1287 C 0.32193 0.18627 0.937 0.0
C1288 C 0.29964 0.17064 0.94861 0.0
C1289 C 0.29586 0.14565 0.94461 0.0
C1290 C 0.31399 0.1362 0.92809 0.0
C1291 C 0.43614 0.09121 0.9368 0.0
C1292 C 0.42543 0.0661 0.93357 0.0
C1293 C 0.42162 0.10703 0.92472 0.0
C1294 C 0.39608 0.09795 0.91001 0.0
C1295 C 0.38474 0.07301 0.90895 0.0
C1296 C 0.3994 0.05716 0.92033 0.0
C1297 C 0.38245 0.11436 0.89229 0.0
C1298 C 0.36571 0.12461 0.91071 0.0
C1299 C 0.38714 0.12075 0.85752 0.0
C1300 C 0.40299 0.10904 0.83606 0.0
C1301 C 0.39383 0.08452 0.82547 0.0
C1302 C 0.40842 0.07363 0.80432 0.0
C1303 C 0.43212 0.08715 0.79344 0.0
C1304 C 0.44126 0.1116 0.80367 0.0
C1305 C 0.42673 0.12257 0.82483 0.0
H1306 H 0.44334 0.07872 0.77695 0.0
H1307 H 0.28536 0.1779 0.96089 0.0
H1308 H 0.77512 0.29135 0.85823 0.0
H1309 H 0.80905 0.32263 0.89054 0.0
H1310 H 0.86782 0.29883 0.8376 0.0
H1311 H 0.83385 0.26675 0.80641 0.0
H1312 H 0.88582 0.3168 0.90353 0.0
H1313 H 0.84111 0.34174 0.80228 0.0
H1314 H 0.80154 0.34479 0.76733 0.0
H1315 H 0.78097 0.38518 0.85167 0.0
H1316 H 0.82029 0.38215 0.8873 0.0
H1317 H 0.98422 0.42287 0.91226 0.0
H1318 H 0.94921 0.39021 0.88454 0.0
H1319 H 0.89276 0.41721 0.93806 0.0
H1320 H 0.9278 0.4509 0.96397 0.0
H1321 H 0.87288 0.39741 0.87448 0.0
H1322 H 0.92247 0.37639 0.97289 0.0
H1323 H 0.9647 0.37595 0.00285 0.0
H1324 H 0.97687 0.32714 0.92296 0.0
H1325 H 0.93554 0.32862 0.89112 0.0
C1326 C 0.79536 0.29236 0.85443 0.0
C1327 C 0.80204 0.27698 0.82973 0.0
C1328 C 0.81467 0.31022 0.87275 0.0
C1329 C 0.84083 0.31344 0.86565 0.0
C1330 C 0.84771 0.29669 0.84327 0.0
C1331 C 0.82835 0.27841 0.82549 0.0
C1332 C 0.86035 0.33594 0.87772 0.0
C1333 C 0.88311 0.33442 0.89708 0.0
C1334 C 0.85661 0.35892 0.86944 0.0
C1335 C 0.83354 0.3616 0.84752 0.0
C1336 C 0.82814 0.35126 0.81337 0.0
C1337 C 0.80575 0.35296 0.79346 0.0
C1338 C 0.78875 0.36515 0.80728 0.0
C1339 C 0.79417 0.37577 0.841 0.0
C1340 C 0.81652 0.37409 0.86105 0.0
C1341 C 0.96422 0.42213 0.91719 0.0
C1342 C 0.95843 0.43899 0.94028 0.0
C1343 C 0.94431 0.4035 0.90154 0.0
C1344 C 0.91854 0.40091 0.91016 0.0
C1345 C 0.91256 0.41881 0.93134 0.0
C1346 C 0.93248 0.43793 0.94618 0.0
C1347 C 0.89846 0.37832 0.90016 0.0
C1348 C 0.87556 0.37982 0.88122 0.0
C1349 C 0.90219 0.35534 0.90871 0.0
C1350 C 0.92593 0.35278 0.9294 0.0
C1351 C 0.93417 0.36562 0.96158 0.0
C1352 C 0.95805 0.36532 0.97879 0.0
C1353 C 0.97338 0.3514 0.96495 0.0
C1354 C 0.96494 0.33789 0.93369 0.0
C1355 C 0.94138 0.3386 0.91588 0.0
H1356 H 0.99182 0.35112 0.97842 0.0
H1357 H 0.77138 0.36637 0.79188 0.0
H1358 H 0.72787 0.83988 0.82672 0.0
H1359 H 0.70959 0.86989 0.85579 0.0
H1360 H 0.63951 0.81451 0.86987 0.0
H1361 H 0.65743 0.78467 0.84111 0.0
H1362 H 0.63007 0.85385 0.83662 0.0
H1363 H 0.68192 0.83811 0.93849 0.0
H1364 H 0.72298 0.83688 0.97129 0.0
H1365 H 0.75342 0.91296 0.95826 0.0
H1366 H 0.71265 0.91457 0.92497 0.0
H1367 H 0.55186 0.89455 0.94615 0.0
H1368 H 0.58146 0.87467 0.91976 0.0
H1369 H 0.64261 0.94069 0.93116 0.0
H1370 H 0.6127 0.9611 0.95806 0.0
H1371 H 0.66211 0.90313 0.94606 0.0
H1372 H 0.60895 0.92022 0.85002 0.0
H1373 H 0.56816 0.92201 0.81702 0.0
H1374 H 0.54116 0.84463 0.81658 0.0
H1375 H 0.58161 0.84237 0.84997 0.0
C1376 C 0.70878 0.83404 0.83664 0.0
C1377 C 0.69402 0.8099 0.83131 0.0
C1378 C 0.69837 0.85122 0.85323 0.0
C1379 C 0.67311 0.84447 0.8648 0.0
C1380 C 0.65895 0.82018 0.86093 0.0
C1381 C 0.66928 0.8031 0.84449 0.0
C1382 C 0.66023 0.86265 0.8785 0.0
C1383 C 0.63702 0.86454 0.86065 0.0
C1384 C 0.66991 0.87743 0.90894 0.0
C1385 C 0.69438 0.8764 0.92887 0.0
C1386 C 0.69747 0.85453 0.94232 0.0
C1387 C 0.72066 0.85377 0.96107 0.0
C1388 C 0.74083 0.87481 0.96675 0.0
C1389 C 0.73781 0.89666 0.95377 0.0
C1390 C 0.71466 0.89751 0.93499 0.0
C1391 C 0.57158 0.90501 0.9432 0.0
C1392 C 0.57977 0.92958 0.95385 0.0
C1393 C 0.58854 0.89352 0.92803 0.0
C1394 C 0.61416 0.90619 0.92283 0.0
C1395 C 0.62285 0.93054 0.93462 0.0
C1396 C 0.60575 0.94219 0.94995 0.0
C1397 C 0.63131 0.89354 0.90493 0.0
C1398 C 0.65536 0.89277 0.92172 0.0
C1399 C 0.62257 0.87989 0.87317 0.0
C1400 C 0.59832 0.88115 0.85261 0.0
C1401 C 0.59427 0.90359 0.84301 0.0
C1402 C 0.57121 0.90468 0.82423 0.0
C1403 C 0.55208 0.88345 0.81473 0.0
C1404 C 0.556 0.86106 0.82392 0.0
C1405 C 0.57902 0.85986 0.84271 0.0
H1406 H 0.53422 0.88434 0.80023 0.0
H1407 H 0.75877 0.87419 0.98128 0.0
H1408 H 0.83352 0.709 0.18871 0.0
H1409 H 0.86212 0.68653 0.16474 0.0
H1410 H 0.79527 0.62852 0.1302 0.0
H1411 H 0.76674 0.65041 0.15647 0.0
H1412 H 0.82883 0.60963 0.15881 0.0
H1413 H 0.83597 0.67052 0.07232 0.0
H1414 H 0.84424 0.71178 0.05018 0.0
H1415 H 0.92207 0.72872 0.09859 0.0
H1416 H 0.91418 0.68765 0.12133 0.0
H1417 H 0.89305 0.54744 0.04511 0.0
H1418 H 0.86588 0.56916 0.0748 0.0
H1419 H 0.93464 0.62339 0.11405 0.0
H1420 H 0.96169 0.6021 0.08418 0.0
H1421 H 0.90225 0.64481 0.08707 0.0
H1422 H 0.89555 0.58279 0.16884 0.0
H1423 H 0.88786 0.54116 0.18932 0.0
H1424 H 0.8086 0.52535 0.14629 0.0
H1425 H 0.8159 0.56682 0.12512 0.0
C1426 C 0.82489 0.69169 0.17529 0.0
C1427 C 0.79789 0.68151 0.17415 0.0
C1428 C 0.84128 0.67882 0.16148 0.0
C1429 C 0.83096 0.65584 0.14512 0.0
C1430 C 0.80381 0.64613 0.14275 0.0
C1431 C 0.78748 0.65872 0.15747 0.0
C1432 C 0.84845 0.64133 0.13242 0.0
C1433 C 0.84446 0.61717 0.14232 0.0
C1434 C 0.86967 0.65133 0.11224 0.0
C1435 C 0.87438 0.6761 0.09884 0.0
C1436 C 0.85477 0.68312 0.07848 0.0
C1437 C 0.85941 0.70645 0.06577 0.0
C1438 C 0.88363 0.72288 0.07307 0.0
C1439 C 0.9033 0.71599 0.09301 0.0
C1440 C 0.89877 0.69269 0.10578 0.0
C1441 C 0.90235 0.56384 0.06039 0.0
C1442 C 0.92949 0.57311 0.06199 0.0
C1443 C 0.88682 0.57618 0.07764 0.0
C1444 C 0.89818 0.59792 0.09697 0.0
C1445 C 0.92535 0.60674 0.09931 0.0
C1446 C 0.9408 0.59453 0.08205 0.0
C1447 C 0.88177 0.61273 0.11179 0.0
C1448 C 0.8863 0.63709 0.10296 0.0
C1449 C 0.86085 0.60279 0.13238 0.0
C1450 C 0.85634 0.57786 0.14514 0.0
C1451 C 0.87653 0.57038 0.16351 0.0
C1452 C 0.87223 0.54683 0.17529 0.0
C1453 C 0.84777 0.5306 0.16904 0.0
C1454 C 0.82754 0.53793 0.15108 0.0
C1455 C 0.83173 0.56147 0.13923 0.0
H1456 H 0.84448 0.51237 0.17817 0.0
H1457 H 0.88719 0.74093 0.06319 0.0
H1458 H 0.34116 0.82579 0.23594 0.0
H1459 H 0.35946 0.86162 0.2037 0.0
H1460 H 0.31222 0.82927 0.1108 0.0
H1461 H 0.29353 0.79311 0.14335 0.0
H1462 H 0.36441 0.84376 0.10071 0.0
H1463 H 0.30166 0.87956 0.14363 0.0
H1464 H 0.27365 0.89072 0.18638 0.0
H1465 H 0.34118 0.93211 0.24779 0.0
H1466 H 0.36966 0.92097 0.20565 0.0
H1467 H 0.43479 0.95109 0.02402 0.0
H1468 H 0.39622 0.92345 0.04433 0.0
H1469 H 0.43422 0.92801 0.14802 0.0
H1470 H 0.47348 0.95535 0.12768 0.0
H1471 H 0.37754 0.9292 0.14151 0.0
H1472 H 0.43941 0.88677 0.1023 0.0
H1473 H 0.46693 0.87485 0.05962 0.0
H1474 H 0.39923 0.84322 0.99135 0.0
H1475 H 0.3713 0.85624 0.03263 0.0
C1476 C 0.33436 0.82646 0.20879 0.0
C1477 C 0.31624 0.80669 0.19191 0.0
C1478 C 0.34462 0.84702 0.1905 0.0
C1479 C 0.33705 0.8481 0.15495 0.0
C1480 C 0.31812 0.82876 0.1383 0.0
C1481 C 0.30751 0.80821 0.15685 0.0
C1482 C 0.35165 0.86815 0.13487 0.0
C1483 C 0.36669 0.86252 0.10878 0.0
C1484 C 0.35479 0.89251 0.1459 0.0
C1485 C 0.33782 0.89939 0.17143 0.0
C1486 C 0.31057 0.89094 0.16634 0.0
C1487 C 0.2946 0.89729 0.19045 0.0
C1488 C 0.30564 0.91218 0.21971 0.0
C1489 C 0.33267 0.92067 0.22501 0.0
C1490 C 0.34874 0.91438 0.20097 0.0
C1491 C 0.43486 0.94662 0.05135 0.0
C1492 C 0.45721 0.95531 0.07435 0.0
C1493 C 0.41278 0.93083 0.06281 0.0
C1494 C 0.41254 0.9238 0.09752 0.0
C1495 C 0.43418 0.93344 0.12111 0.0
C1496 C 0.45657 0.94889 0.10948 0.0
C1497 C 0.39078 0.9046 0.10845 0.0
C1498 C 0.37457 0.91049 0.1327 0.0
C1499 C 0.38646 0.88044 0.09558 0.0
C1500 C 0.4033 0.87309 0.07025 0.0
C1501 C 0.4304 0.87788 0.07777 0.0
C1502 C 0.44608 0.87092 0.05379 0.0
C1503 C 0.43484 0.85862 0.0225 0.0
C1504 C 0.4079 0.85318 0.01523 0.0
C1505 C 0.39215 0.86045 0.03885 0.0
H1506 H 0.44698 0.8531 0.00405 0.0
H1507 H 0.29324 0.91712 0.23831 0.0
H1508 H 0.69163 0.22406 0.16999 0.0
H1509 H 0.65899 0.19243 0.13703 0.0
H1510 H 0.69321 0.13821 0.18223 0.0
H1511 H 0.72615 0.16983 0.21568 0.0
H1512 H 0.67705 0.12953 0.1103 0.0
H1513 H 0.6432 0.14509 0.2171 0.0
H1514 H 0.63293 0.16969 0.26494 0.0
H1515 H 0.58332 0.19766 0.19332 0.0
H1516 H 0.59358 0.1734 0.14483 0.0
H1517 H 0.5603 0.03565 0.06733 0.0
H1518 H 0.59856 0.06293 0.09787 0.0
H1519 H 0.57291 0.12438 0.06091 0.0
H1520 H 0.53441 0.09726 0.03037 0.0
H1521 H 0.58545 0.12613 0.13321 0.0
H1522 H 0.63009 0.11675 0.02556 0.0
H1523 H 0.64298 0.09253 0.97923 0.0
H1524 H 0.67034 0.04991 0.05691 0.0
H1525 H 0.65858 0.07463 0.10373 0.0
C1526 C 0.69255 0.20547 0.17262 0.0
C1527 C 0.7113 0.19942 0.19581 0.0
C1528 C 0.67382 0.18744 0.15384 0.0
C1529 C 0.67352 0.1631 0.15786 0.0
C1530 C 0.69315 0.15698 0.1791 0.0
C1531 C 0.71192 0.17505 0.1981 0.0
C1532 C 0.65179 0.14419 0.14109 0.0
C1533 C 0.65704 0.1285 0.11568 0.0
C1534 C 0.62576 0.14298 0.14821 0.0
C1535 C 0.61938 0.1576 0.17724 0.0
C1536 C 0.63029 0.15665 0.21145 0.0
C1537 C 0.62443 0.17051 0.23872 0.0
C1538 C 0.60756 0.18532 0.23218 0.0
C1539 C 0.59643 0.18621 0.19834 0.0
C1540 C 0.60223 0.17238 0.17095 0.0
C1541 C 0.56284 0.05497 0.06551 0.0
C1542 C 0.54427 0.06434 0.04662 0.0
C1543 C 0.5848 0.07049 0.08277 0.0
C1544 C 0.58853 0.09558 0.08139 0.0
C1545 C 0.57028 0.10501 0.06216 0.0
C1546 C 0.54836 0.08951 0.04473 0.0
C1547 C 0.6107 0.11203 0.10163 0.0
C1548 C 0.60548 0.12712 0.12797 0.0
C1549 C 0.63671 0.11242 0.09583 0.0
C1550 C 0.64326 0.09729 0.06794 0.0
C1551 C 0.63875 0.10212 0.03265 0.0
C1552 C 0.64591 0.08835 0.00635 0.0
C1553 C 0.65711 0.06943 0.01509 0.0
C1554 C 0.66156 0.06449 0.05018 0.0
C1555 C 0.65487 0.0785 0.0766 0.0
H1556 H 0.6625 0.05867 0.99474 0.0
H1557 H 0.60306 0.19604 0.25335 0.0
H1558 H 0.68108 0.72276 0.81744 0.0
H1559 H 0.65093 0.69128 0.84729 0.0
H1560 H 0.6799 0.63676 0.79583 0.0
H1561 H 0.7107 0.66821 0.7669 0.0
H1562 H 0.61143 0.65615 0.82922 0.0
H1563 H 0.67696 0.59193 0.83377 0.0
H1564 H 0.72385 0.59354 0.84152 0.0
H1565 H 0.73667 0.6567 0.90946 0.0
H1566 H 0.68995 0.65565 0.90155 0.0
H1567 H 0.52755 0.54633 0.87012 0.0
H1568 H 0.56182 0.57594 0.84415 0.0
H1569 H 0.60822 0.58642 0.94234 0.0
H1570 H 0.57395 0.5559 0.96842 0.0
H1571 H 0.6402 0.59087 0.89074 0.0
H1572 H 0.57177 0.62663 0.91576 0.0
H1573 H 0.52639 0.62965 0.91598 0.0
H1574 H 0.52095 0.63062 0.80379 0.0
H1575 H 0.56622 0.62722 0.80286 0.0
C1576 C 0.68111 0.70408 0.81238 0.0
C1577 C 0.6986 0.69828 0.78956 0.0
C1578 C 0.66374 0.68595 0.82962 0.0
C1579 C 0.66313 0.66132 0.82467 0.0
C1580 C 0.68024 0.65547 0.80132 0.0
C1581 C 0.6978 0.6736 0.78434 0.0
C1582 C 0.64432 0.64188 0.8432 0.0
C1583 C 0.61783 0.64188 0.84248 0.0
C1584 C 0.65227 0.62339 0.86172 0.0
C1585 C 0.68011 0.62372 0.86704 0.0
C1586 C 0.68981 0.60606 0.85047 0.0
C1587 C 0.71635 0.60697 0.85473 0.0
C1588 C 0.73323 0.62522 0.87595 0.0
C1589 C 0.72361 0.64264 0.89292 0.0
C1590 C 0.69715 0.64197 0.88841 0.0
C1591 C 0.54515 0.5546 0.88628 0.0
C1592 C 0.54763 0.54868 0.92168 0.0
C1593 C 0.56482 0.57181 0.87131 0.0
C1594 C 0.58763 0.58419 0.89125 0.0
C1595 C 0.59088 0.57743 0.92617 0.0
C1596 C 0.57118 0.55989 0.94117 0.0
C1597 C 0.60714 0.60475 0.87582 0.0
C1598 C 0.63375 0.60503 0.87725 0.0
C1599 C 0.5994 0.62399 0.8589 0.0
C1600 C 0.57233 0.62647 0.85924 0.0
C1601 C 0.56086 0.62736 0.89112 0.0
C1602 C 0.53516 0.62914 0.89138 0.0
C1603 C 0.52079 0.63027 0.85993 0.0
C1604 C 0.53211 0.62971 0.82813 0.0
C1605 C 0.5578 0.62788 0.82772 0.0
H1606 H 0.5009 0.63163 0.86028 0.0
H1607 H 0.75376 0.62587 0.87926 0.0
H1608 H 0.28595 0.66514 0.8313 0.0
H1609 H 0.31341 0.64109 0.85822 0.0
H1610 H 0.38204 0.69415 0.83089 0.0
H1611 H 0.35421 0.71733 0.80165 0.0
H1612 H 0.3894 0.65203 0.82214 0.0
H1613 H 0.35808 0.69024 0.91697 0.0
H1614 H 0.32483 0.70157 0.95084 0.0
H1615 H 0.28941 0.62666 0.96641 0.0
H1616 H 0.32223 0.61486 0.93225 0.0
H1617 H 0.4706 0.6023 0.94064 0.0
H1618 H 0.44728 0.63191 0.91967 0.0
H1619 H 0.37511 0.57623 0.91147 0.0
H1620 H 0.39831 0.54654 0.93137 0.0
H1621 H 0.37327 0.62331 0.94197 0.0
H1622 H 0.40195 0.58548 0.84324 0.0
H1623 H 0.43443 0.57365 0.80854 0.0
H1624 H 0.47457 0.64832 0.80029 0.0
H1625 H 0.44266 0.66058 0.83579 0.0
C1626 C 0.30691 0.67144 0.83082 0.0
C1627 C 0.31818 0.69293 0.8147 0.0
C1628 C 0.32259 0.65789 0.84651 0.0
C1629 C 0.34984 0.6662 0.84764 0.0
C1630 C 0.36108 0.68748 0.83062 0.0
C1631 C 0.34529 0.70069 0.81396 0.0
C1632 C 0.36649 0.65257 0.8664 0.0
C1633 C 0.38619 0.64623 0.84862 0.0
C1634 C 0.36207 0.64458 0.9008 0.0
C1635 C 0.34255 0.65168 0.92186 0.0
C1636 C 0.34314 0.67618 0.9275 0.0
C1637 C 0.32436 0.68269 0.94675 0.0
C1638 C 0.305 0.66484 0.96072 0.0
C1639 C 0.30442 0.64046 0.95557 0.0
C1640 C 0.32313 0.63386 0.93631 0.0
C1641 C 0.44971 0.59654 0.93484 0.0
C1642 C 0.43619 0.5722 0.93717 0.0
C1643 C 0.43649 0.61338 0.92284 0.0
C1644 C 0.4096 0.60608 0.91387 0.0
C1645 C 0.39589 0.5821 0.91825 0.0
C1646 C 0.40914 0.56519 0.92941 0.0
C1647 C 0.39583 0.62285 0.89756 0.0
C1648 C 0.37669 0.62964 0.91577 0.0
C1649 C 0.4008 0.6313 0.86367 0.0
C1650 C 0.42017 0.62393 0.8427 0.0
C1651 C 0.41792 0.59937 0.83451 0.0
C1652 C 0.43619 0.59259 0.81461 0.0
C1653 C 0.4566 0.61022 0.80232 0.0
C1654 C 0.45876 0.63468 0.80987 0.0
C1655 C 0.44064 0.64155 0.82998 0.0
H1656 H 0.47071 0.60494 0.78688 0.0
H1657 H 0.29046 0.66991 0.97558 0.0
H1658 H 0.33144 0.3084 0.74422 0.0
H1659 H 0.36008 0.34235 0.77869 0.0
H1660 H 0.30184 0.33772 0.85304 0.0
H1661 H 0.27372 0.30283 0.81997 0.0
H1662 H 0.35306 0.38907 0.80708 0.0
H1663 H 0.32291 0.33113 0.91075 0.0
H1664 H 0.31086 0.28858 0.92804 0.0
H1665 H 0.37627 0.27543 0.87836 0.0
H1666 H 0.38832 0.31781 0.86023 0.0
H1667 H 0.43681 0.46617 0.93924 0.0
H1668 H 0.39878 0.43974 0.9065 0.0
H1669 H 0.43837 0.38252 0.90467 0.0
H1670 H 0.47555 0.40835 0.9392 0.0
H1671 H 0.39213 0.36348 0.91625 0.0
H1672 H 0.43095 0.42104 0.83177 0.0
H1673 H 0.44705 0.4617 0.80884 0.0
H1674 H 0.37119 0.47441 0.81355 0.0
H1675 H 0.35473 0.43392 0.83686 0.0
C1676 C 0.32449 0.31486 0.76757 0.0
C1677 C 0.3002 0.30293 0.77925 0.0
C1678 C 0.34088 0.33429 0.78718 0.0
C1679 C 0.3332 0.34223 0.81864 0.0
C1680 C 0.30825 0.33156 0.82909 0.0
C1681 C 0.29199 0.31189 0.80977 0.0
C1682 C 0.35231 0.35997 0.84197 0.0
C1683 C 0.36136 0.38373 0.83132 0.0
C1684 C 0.36353 0.35273 0.87296 0.0
C1685 C 0.35627 0.32741 0.88383 0.0
C1686 C 0.33457 0.31907 0.90335 0.0
C1687 C 0.32774 0.29502 0.91326 0.0
C1688 C 0.34274 0.27929 0.9042 0.0
C1689 C 0.3646 0.28759 0.88521 0.0
C1690 C 0.37137 0.31158 0.87502 0.0
C1691 C 0.4373 0.44793 0.93177 0.0
C1692 C 0.45909 0.43927 0.94162 0.0
C1693 C 0.41562 0.43286 0.91291 0.0
C1694 C 0.41575 0.40917 0.90254 0.0
C1695 C 0.43764 0.40064 0.91241 0.0
C1696 C 0.45895 0.41544 0.93204 0.0
C1697 C 0.39322 0.39301 0.88164 0.0
C1698 C 0.38359 0.36931 0.89257 0.0
C1699 C 0.38183 0.40032 0.85057 0.0
C1700 C 0.3917 0.42458 0.83639 0.0
C1701 C 0.41776 0.43258 0.8281 0.0
C1702 C 0.42694 0.45558 0.81502 0.0
C1703 C 0.41018 0.47066 0.80984 0.0
C1704 C 0.38417 0.46273 0.81763 0.0
C1705 C 0.3749 0.43976 0.83075 0.0
H1706 H 0.41732 0.48846 0.79972 0.0
H1707 H 0.33748 0.26069 0.91198 0.0
H1708 H 0.66564 0.28757 0.81979 0.0
H1709 H 0.64025 0.31162 0.8483 0.0
H1710 H 0.70928 0.37031 0.86727 0.0
H1711 H 0.73484 0.34628 0.83932 0.0
H1712 H 0.68212 0.36321 0.92432 0.0
H1713 H 0.66249 0.37209 0.80184 0.0
H1714 H 0.64798 0.35797 0.74088 0.0
H1715 H 0.57306 0.3206 0.77313 0.0
H1716 H 0.58725 0.33422 0.83438 0.0
H1717 H 0.61256 0.45214 0.96784 0.0
H1718 H 0.64143 0.42953 0.94353 0.0
H1719 H 0.5757 0.36819 0.92022 0.0
H1720 H 0.54701 0.39045 0.9439 0.0
H1721 H 0.60273 0.37856 0.86444 0.0
H1722 H 0.62307 0.36364 0.98563 0.0
H1723 H 0.63767 0.37345 0.04787 0.0
H1724 H 0.70896 0.42047 0.01878 0.0
H1725 H 0.69518 0.41042 0.95632 0.0
C1726 C 0.67542 0.30562 0.82991 0.0
C1727 C 0.70227 0.31503 0.82702 0.0
C1728 C 0.66085 0.3194 0.84613 0.0
C1729 C 0.67277 0.34293 0.85959 0.0
C1730 C 0.69961 0.35225 0.85704 0.0
C1731 C 0.71419 0.33849 0.84088 0.0
C1732 C 0.65732 0.35776 0.87657 0.0
C1733 C 0.66499 0.36689 0.91099 0.0
C1734 C 0.63461 0.36214 0.85959 0.0
C1735 C 0.62602 0.354 0.82274 0.0
C1736 C 0.64299 0.36071 0.79597 0.0
C1737 C 0.63481 0.35282 0.76136 0.0
C1738 C 0.60963 0.33835 0.75315 0.0
C1739 C 0.59256 0.33179 0.77953 0.0
C1740 C 0.60066 0.3396 0.81419 0.0
C1741 C 0.60435 0.43379 0.95773 0.0
C1742 C 0.57741 0.42328 0.95743 0.0
C1743 C 0.62087 0.42082 0.94403 0.0
C1744 C 0.61073 0.39713 0.92992 0.0
C1745 C 0.58399 0.38646 0.93066 0.0
C1746 C 0.56758 0.39931 0.94428 0.0
C1747 C 0.62736 0.38379 0.91233 0.0
C1748 C 0.61995 0.37501 0.8777 0.0
C1749 C 0.65015 0.37957 0.92917 0.0
C1750 C 0.65797 0.38654 0.96642 0.0
C1751 C 0.64174 0.37626 0.99253 0.0
C1752 C 0.64989 0.38177 0.0278 0.0
C1753 C 0.67402 0.39776 0.03723 0.0
C1754 C 0.69021 0.40816 0.01141 0.0
C1755 C 0.68233 0.40246 0.97609 0.0
H1756 H 0.68024 0.40193 0.06452 0.0
H1757 H 0.60334 0.33227 0.72633 0.0
H1758 H 0.71778 0.32547 0.14174 0.0
H1759 H 0.69008 0.35083 0.1193 0.0
H1760 H 0.63679 0.32594 0.19868 0.0
H1761 H 0.66486 0.30091 0.22202 0.0
H1762 H 0.61505 0.32439 0.12335 0.0
H1763 H 0.66915 0.37575 0.21375 0.0
H1764 H 0.71096 0.39625 0.24544 0.0
H1765 H 0.73499 0.43619 0.15455 0.0
H1766 H 0.69349 0.41572 0.12216 0.0
H1767 H 0.53744 0.40731 0.09095 0.0
H1768 H 0.56269 0.38077 0.11659 0.0
H1769 H 0.63055 0.42066 0.06754 0.0
H1770 H 0.60557 0.4481 0.04392 0.0
H1771 H 0.64431 0.41397 0.13061 0.0
H1772 H 0.5911 0.36213 0.03914 0.0
H1773 H 0.55047 0.34034 0.00612 0.0
H1774 H 0.52513 0.30103 0.09712 0.0
H1775 H 0.5656 0.3228 0.13091 0.0
C1776 C 0.70015 0.32539 0.15443 0.0
C1777 C 0.69337 0.31123 0.18356 0.0
C1778 C 0.68445 0.33991 0.14165 0.0
C1779 C 0.66153 0.34018 0.15744 0.0
C1780 C 0.65448 0.32588 0.18627 0.0
C1781 C 0.67051 0.31172 0.19959 0.0
C1782 C 0.64493 0.35538 0.14344 0.0
C1783 C 0.62112 0.34399 0.12531 0.0
C1784 C 0.65349 0.38088 0.14542 0.0
C1785 C 0.67832 0.39373 0.16517 0.0
C1786 C 0.68346 0.38865 0.20031 0.0
C1787 C 0.70709 0.40036 0.21849 0.0
C1788 C 0.72568 0.41741 0.20196 0.0
C1789 C 0.72061 0.4229 0.16728 0.0
C1790 C 0.69702 0.41122 0.14899 0.0
C1791 C 0.55763 0.41 0.08525 0.0
C1792 C 0.56968 0.42936 0.06533 0.0
C1793 C 0.57205 0.3949 0.09983 0.0
C1794 C 0.59849 0.39849 0.09366 0.0
C1795 C 0.61023 0.41753 0.07274 0.0
C1796 C 0.59599 0.43303 0.05902 0.0
C1797 C 0.61419 0.38305 0.11005 0.0
C1798 C 0.638 0.39439 0.12861 0.0
C1799 C 0.6057 0.35746 0.10821 0.0
C1800 C 0.58143 0.34422 0.08768 0.0
C1801 C 0.57692 0.34889 0.05222 0.0
C1802 C 0.55387 0.33654 0.03333 0.0
C1803 C 0.53521 0.31932 0.04952 0.0
C1804 C 0.5396 0.31438 0.08461 0.0
C1805 C 0.56261 0.32671 0.10364 0.0
H1806 H 0.51736 0.30979 0.03486 0.0
H1807 H 0.74395 0.42644 0.21606 0.0
H1808 H 0.7253 0.70028 0.18045 0.0
H1809 H 0.69754 0.66485 0.14754 0.0
H1810 H 0.64515 0.65287 0.23031 0.0
H1811 H 0.67245 0.68875 0.26277 0.0
H1812 H 0.65683 0.60801 0.18839 0.0
H1813 H 0.62735 0.68315 0.18098 0.0
H1814 H 0.63654 0.72688 0.17096 0.0
H1815 H 0.6603 0.71489 0.06862 0.0
H1816 H 0.65187 0.67114 0.07845 0.0
H1817 H 0.5359 0.54258 0.10668 0.0
H1818 H 0.57194 0.56915 0.14251 0.0
H1819 H 0.59937 0.60693 0.05027 0.0
H1820 H 0.56176 0.58189 0.0153 0.0
H1821 H 0.60416 0.63802 0.09636 0.0
H1822 H 0.62897 0.56322 0.09759 0.0
H1823 H 0.6234 0.5196 0.10589 0.0
H1824 H 0.61276 0.52957 0.21475 0.0
H1825 H 0.61786 0.57318 0.20701 0.0
C1826 C 0.70843 0.68947 0.19217 0.0
C1827 C 0.70098 0.69695 0.22411 0.0
C1828 C 0.6926 0.66934 0.17337 0.0
C1829 C 0.66942 0.65635 0.18664 0.0
C1830 C 0.66313 0.66261 0.21992 0.0
C1831 C 0.67862 0.68307 0.23832 0.0
C1832 C 0.64962 0.63924 0.16354 0.0
C1833 C 0.64514 0.61437 0.16828 0.0
C1834 C 0.63502 0.64777 0.1369 0.0
C1835 C 0.63933 0.67395 0.13064 0.0
C1836 C 0.63479 0.68988 0.1565 0.0
C1837 C 0.63983 0.71466 0.15084 0.0
C1838 C 0.64908 0.72367 0.11922 0.0
C1839 C 0.6532 0.7079 0.09314 0.0
C1840 C 0.64832 0.68312 0.09875 0.0
C1841 C 0.54975 0.55656 0.09421 0.0
C1842 C 0.54628 0.56022 0.05836 0.0
C1843 C 0.57053 0.57159 0.11458 0.0
C1844 C 0.58896 0.58978 0.09912 0.0
C1845 C 0.58555 0.5931 0.063 0.0
C1846 C 0.56416 0.57873 0.04294 0.0
C1847 C 0.61093 0.60619 0.12072 0.0
C1848 C 0.61586 0.63121 0.11593 0.0
C1849 C 0.62627 0.59764 0.14681 0.0
C1850 C 0.62361 0.57146 0.15165 0.0
C1851 C 0.62532 0.55609 0.12327 0.0
C1852 C 0.62224 0.53137 0.12787 0.0
C1853 C 0.61768 0.52182 0.16081 0.0
C1854 C 0.61627 0.53699 0.18924 0.0
C1855 C 0.61928 0.56171 0.18477 0.0
H1856 H 0.61528 0.50267 0.1643 0.0
H1857 H 0.65297 0.74286 0.1149 0.0
H1858 H 0.2835 0.68399 0.12178 0.0
H1859 H 0.30711 0.65774 0.09462 0.0
H1860 H 0.36629 0.67495 0.18012 0.0
H1861 H 0.34261 0.70116 0.20775 0.0
H1862 H 0.38571 0.67887 0.11203 0.0
H1863 H 0.32401 0.6217 0.1768 0.0
H1864 H 0.2799 0.60139 0.1929 0.0
H1865 H 0.25755 0.57679 0.0861 0.0
H1866 H 0.30145 0.59724 0.06928 0.0
H1867 H 0.45914 0.5963 0.08568 0.0
H1868 H 0.43131 0.61964 0.10927 0.0
H1869 H 0.36922 0.58537 0.03254 0.0
H1870 H 0.39693 0.56085 0.00985 0.0
H1871 H 0.34911 0.59051 0.09129 0.0
H1872 H 0.40766 0.64465 0.02427 0.0
H1873 H 0.44997 0.66555 0.0031 0.0
H1874 H 0.47582 0.69744 0.10577 0.0
H1875 H 0.43377 0.67645 0.12772 0.0
C1876 C 0.30151 0.68218 0.13492 0.0
C1877 C 0.31118 0.69471 0.16698 0.0
C1878 C 0.31492 0.66707 0.11938 0.0
C1879 C 0.33839 0.66428 0.13541 0.0
C1880 C 0.34819 0.67682 0.16733 0.0
C1881 C 0.3346 0.69173 0.18314 0.0
C1882 C 0.35301 0.64869 0.1185 0.0
C1883 C 0.37788 0.6595 0.1079 0.0
C1884 C 0.34225 0.62362 0.11154 0.0
C1885 C 0.31594 0.61119 0.12173 0.0
C1886 C 0.30963 0.61212 0.1567 0.0
C1887 C 0.28468 0.60055 0.16597 0.0
C1888 C 0.26591 0.58786 0.14053 0.0
C1889 C 0.27209 0.58665 0.10577 0.0
C1890 C 0.29701 0.59821 0.09637 0.0
C1891 C 0.43952 0.59365 0.07385 0.0
C1892 C 0.43025 0.57687 0.04577 0.0
C1893 C 0.42364 0.60715 0.08724 0.0
C1894 C 0.39831 0.60485 0.07217 0.0
C1895 C 0.38872 0.58763 0.04455 0.0
C1896 C 0.40453 0.57363 0.03157 0.0
C1897 C 0.38222 0.62057 0.0855 0.0
C1898 C 0.357 0.60987 0.09525 0.0
C1899 C 0.39237 0.64592 0.09084 0.0
C1900 C 0.41761 0.65883 0.0777 0.0
C1901 C 0.42241 0.65601 0.0424 0.0
C1902 C 0.44635 0.66789 0.03025 0.0
C1903 C 0.46559 0.68278 0.05309 0.0
C1904 C 0.4609 0.68589 0.08812 0.0
C1905 C 0.437 0.67403 0.10042 0.0
H1906 H 0.48412 0.69195 0.04365 0.0
H1907 H 0.2466 0.57892 0.14775 0.0
H1908 H 0.28378 0.33174 0.21754 0.0
H1909 H 0.31494 0.36331 0.18923 0.0
H1910 H 0.35922 0.31225 0.16543 0.0
H1911 H 0.32841 0.28074 0.19421 0.0
H1912 H 0.39162 0.35303 0.18626 0.0
H1913 H 0.31708 0.33275 0.10256 0.0
H1914 H 0.27064 0.32688 0.08359 0.0
H1915 H 0.27619 0.40148 0.10946 0.0
H1916 H 0.32259 0.40772 0.12903 0.0
H1917 H 0.47439 0.41745 0.06737 0.0
H1918 H 0.4395 0.38812 0.09282 0.0
H1919 H 0.39898 0.44353 0.10839 0.0
H1920 H 0.43365 0.47284 0.08065 0.0
H1921 H 0.3639 0.40261 0.09388 0.0
H1922 H 0.43815 0.42326 0.17687 0.0
H1923 H 0.4844 0.42932 0.19703 0.0
H1924 H 0.479 0.35434 0.17424 0.0
H1925 H 0.4328 0.34789 0.15355 0.0
C1926 C 0.3001 0.32713 0.20627 0.0
C1927 C 0.30327 0.30341 0.20824 0.0
C1928 C 0.31796 0.3453 0.18979 0.0
C1929 C 0.33949 0.34036 0.17438 0.0
C1930 C 0.3429 0.31679 0.17685 0.0
C1931 C 0.32513 0.29865 0.19344 0.0
C1932 C 0.35868 0.35962 0.15625 0.0
C1933 C 0.38544 0.36359 0.16577 0.0
C1934 C 0.35099 0.37423 0.1301 0.0
C1935 C 0.32326 0.37064 0.11757 0.0
C1936 C 0.30837 0.34788 0.10436 0.0
C1937 C 0.28205 0.34448 0.0935 0.0
C1938 C 0.27045 0.36378 0.09542 0.0
C1939 C 0.28519 0.38654 0.10804 0.0
C1940 C 0.3115 0.39002 0.11898 0.0
C1941 C 0.45793 0.42339 0.07591 0.0
C1942 C 0.457 0.44759 0.07223 0.0
C1943 C 0.43796 0.40657 0.09086 0.0
C1944 C 0.41671 0.41349 0.10399 0.0
C1945 C 0.41515 0.43753 0.099 0.0
C1946 C 0.435 0.45437 0.08312 0.0
C1947 C 0.39688 0.39573 0.12357 0.0
C1948 C 0.37005 0.39208 0.11443 0.0
C1949 C 0.40444 0.38143 0.15028 0.0
C1950 C 0.43206 0.38514 0.16345 0.0
C1951 C 0.44686 0.40809 0.17606 0.0
C1952 C 0.47306 0.41159 0.18757 0.0
C1953 C 0.48464 0.39224 0.18685 0.0
C1954 C 0.47001 0.36931 0.17477 0.0
C1955 C 0.4438 0.36572 0.1632 0.0
H1956 H 0.50495 0.395 0.19571 0.0
H1957 H 0.25006 0.3611 0.08708 0.0
H1958 H 0.78022 0.67376 0.64758 0.0
H1959 H 0.79978 0.6467 0.61391 0.0
H1960 H 0.87468 0.67944 0.66752 0.0
H1961 H 0.85568 0.70665 0.69999 0.0
H1962 H 0.88071 0.67395 0.60149 0.0
H1963 H 0.83201 0.62181 0.68819 0.0
H1964 H 0.7915 0.60186 0.71491 0.0
H1965 H 0.75862 0.56808 0.61545 0.0
H1966 H 0.79887 0.58806 0.58815 0.0
H1967 H 0.96025 0.59481 0.60468 0.0
H1968 H 0.93074 0.6196 0.61747 0.0
H1969 H 0.87061 0.574 0.54753 0.0
H1970 H 0.89996 0.54843 0.5354 0.0
H1971 H 0.85087 0.58474 0.60715 0.0
H1972 H 0.90161 0.63034 0.52267 0.0
H1973 H 0.94189 0.64938 0.49492 0.0
H1974 H 0.96988 0.69521 0.58671 0.0
H1975 H 0.92989 0.67628 0.61522 0.0
C1976 C 0.80087 0.67519 0.65197 0.0
C1977 C 0.81638 0.69248 0.67634 0.0
C1978 C 0.81203 0.65964 0.63286 0.0
C1979 C 0.83876 0.66085 0.63828 0.0
C1980 C 0.8541 0.67817 0.66256 0.0
C1981 C 0.84312 0.69378 0.68122 0.0
C1982 C 0.85133 0.64426 0.61938 0.0
C1983 C 0.87417 0.65445 0.60285 0.0
C1984 C 0.84229 0.61873 0.61956 0.0
C1985 C 0.81829 0.60661 0.63611 0.0
C1986 C 0.81607 0.61023 0.67203 0.0
C1987 C 0.79317 0.59891 0.68727 0.0
C1988 C 0.77246 0.58377 0.66687 0.0
C1989 C 0.77465 0.57985 0.63121 0.0
C1990 C 0.7975 0.59115 0.61586 0.0
C1991 C 0.94079 0.58999 0.59188 0.0
C1992 C 0.93259 0.56967 0.5688 0.0
C1993 C 0.92393 0.60431 0.59909 0.0
C1994 C 0.89853 0.59895 0.58304 0.0
C1995 C 0.89013 0.57857 0.56014 0.0
C1996 C 0.907 0.56405 0.5531 0.0
C1997 C 0.88093 0.61458 0.59111 0.0
C1998 C 0.85713 0.60422 0.60526 0.0
C1999 C 0.88893 0.63999 0.58848 0.0
C2000 C 0.91276 0.65183 0.57113 0.0
C2001 C 0.91638 0.64443 0.537 0.0
C2002 C 0.93917 0.6552 0.52112 0.0
C2003 C 0.95844 0.67347 0.53905 0.0
C2004 C 0.95492 0.68107 0.57284 0.0
C2005 C 0.93217 0.67037 0.58884 0.0
H2006 H 0.97609 0.68175 0.52674 0.0
H2007 H 0.75475 0.57502 0.6787 0.0
H2008 H 0.29052 0.79993 0.62738 0.0
H2009 H 0.3243 0.82902 0.59972 0.0
H2010 H 0.38317 0.80997 0.66793 0.0
H2011 H 0.34942 0.78101 0.69617 0.0
H2012 H 0.38531 0.85622 0.67548 0.0
H2013 H 0.38039 0.80179 0.57914 0.0
H2014 H 0.36265 0.7735 0.52902 0.0
H2015 H 0.33635 0.82905 0.47535 0.0
H2016 H 0.35316 0.85751 0.52554 0.0
H2017 H 0.48493 0.94145 0.58116 0.0
H2018 H 0.45877 0.9019 0.59816 0.0
H2019 H 0.38992 0.92875 0.59125 0.0
H2020 H 0.4161 0.96852 0.57612 0.0
H2021 H 0.39745 0.87692 0.55177 0.0
H2022 H 0.3913 0.92512 0.65752 0.0
H2023 H 0.41211 0.95492 0.70488 0.0
H2024 H 0.46209 0.90988 0.73748 0.0
H2025 H 0.44189 0.88005 0.6897 0.0
C2026 C 0.31069 0.80142 0.63591 0.0
C2027 C 0.31727 0.78856 0.66452 0.0
C2028 C 0.33002 0.81796 0.61983 0.0
C2029 C 0.35625 0.82177 0.63191 0.0
C2030 C 0.36301 0.80735 0.65833 0.0
C2031 C 0.34369 0.79081 0.67445 0.0
C2032 C 0.37568 0.84348 0.62157 0.0
C2033 C 0.3884 0.86032 0.64834 0.0
C2034 C 0.37923 0.84926 0.58613 0.0
C2035 C 0.3678 0.83177 0.55651 0.0
C2036 C 0.37039 0.8079 0.55699 0.0
C2037 C 0.36056 0.79183 0.52847 0.0
C2038 C 0.34829 0.79944 0.49909 0.0
C2039 C 0.34575 0.82313 0.4982 0.0
C2040 C 0.3554 0.83923 0.52673 0.0
C2041 C 0.46432 0.93894 0.58408 0.0
C2042 C 0.45251 0.95799 0.57834 0.0
C2043 C 0.44945 0.91645 0.59348 0.0
C2044 C 0.42259 0.91269 0.5961 0.0
C2045 C 0.41073 0.93156 0.58974 0.0
C2046 C 0.42568 0.95422 0.58146 0.0
C2047 C 0.40676 0.88898 0.60546 0.0
C2048 C 0.39469 0.87213 0.57867 0.0
C2049 C 0.40369 0.88306 0.64064 0.0
C2050 C 0.4155 0.90065 0.66968 0.0
C2051 C 0.40697 0.92175 0.67449 0.0
C2052 C 0.4186 0.9386 0.70144 0.0
C2053 C 0.43857 0.93439 0.72396 0.0
C2054 C 0.44674 0.91319 0.71984 0.0
C2055 C 0.43524 0.89632 0.69282 0.0
H2056 H 0.44769 0.94753 0.74464 0.0
H2057 H 0.34082 0.78701 0.47697 0.0
H2058 H 0.22191 0.33387 0.69172 0.0
H2059 H 0.20203 0.35998 0.65475 0.0
H2060 H 0.12907 0.30537 0.64745 0.0
H2061 H 0.14863 0.27937 0.68391 0.0
H2062 H 0.13885 0.32554 0.585 0.0
H2063 H 0.13791 0.35232 0.7046 0.0
H2064 H 0.15693 0.36696 0.7639 0.0
H2065 H 0.20622 0.42962 0.72126 0.0
H2066 H 0.18764 0.41522 0.66165 0.0
H2067 H 0.0499 0.39746 0.53847 0.0
H2068 H 0.07356 0.36984 0.56497 0.0
H2069 H 0.14423 0.42731 0.57393 0.0
H2070 H 0.12087 0.45489 0.54801 0.0
H2071 H 0.13681 0.40586 0.63418 0.0
H2072 H 0.14042 0.37682 0.51446 0.0
H2073 H 0.12157 0.36172 0.45512 0.0
H2074 H 0.06633 0.30376 0.49901 0.0
H2075 H 0.08513 0.31835 0.55854 0.0
C2076 C 0.20175 0.32736 0.6818 0.0
C2077 C 0.1868 0.30465 0.69092 0.0
C2078 C 0.19038 0.34231 0.66087 0.0
C2079 C 0.16396 0.3347 0.64866 0.0
C2080 C 0.14943 0.31164 0.65657 0.0
C2081 C 0.16067 0.29684 0.67758 0.0
C2082 C 0.15094 0.35097 0.6289 0.0
C2083 C 0.13828 0.34305 0.59586 0.0
C2084 C 0.15034 0.37389 0.64286 0.0
C2085 C 0.16161 0.38256 0.67864 0.0
C2086 C 0.15296 0.36912 0.70785 0.0
C2087 C 0.16361 0.3774 0.74152 0.0
C2088 C 0.18283 0.39916 0.74633 0.0
C2089 C 0.19136 0.41274 0.71749 0.0
C2090 C 0.18076 0.40455 0.68376 0.0
C2091 C 0.07053 0.40412 0.54578 0.0
C2092 C 0.08339 0.42846 0.54145 0.0
C2093 C 0.08409 0.38828 0.56073 0.0
C2094 C 0.11076 0.39647 0.57135 0.0
C2095 C 0.12369 0.42057 0.56609 0.0
C2096 C 0.11022 0.43634 0.55123 0.0
C2097 C 0.12492 0.38056 0.59009 0.0
C2098 C 0.13762 0.38848 0.62313 0.0
C2099 C 0.12544 0.3576 0.57626 0.0
C2100 C 0.1139 0.34886 0.54076 0.0
C2101 C 0.12408 0.36101 0.51133 0.0
C2102 C 0.11349 0.35251 0.47773 0.0
C2103 C 0.0926 0.33197 0.47328 0.0
C2104 C 0.08244 0.31973 0.50247 0.0
C2105 C 0.09314 0.32803 0.53613 0.0
H2106 H 0.08441 0.32548 0.44723 0.0
H2107 H 0.19105 0.40554 0.77242 0.0
H2108 H 0.66874 0.21167 0.7225 0.0
H2109 H 0.63873 0.17709 0.69024 0.0
H2110 H 0.69697 0.17566 0.6177 0.0
H2111 H 0.72728 0.20961 0.6505 0.0
H2112 H 0.64171 0.16783 0.58784 0.0
H2113 H 0.69666 0.14079 0.67502 0.0
H2114 H 0.71651 0.13792 0.73416 0.0
H2115 H 0.64067 0.11045 0.77138 0.0
H2116 H 0.6203 0.11372 0.71256 0.0
H2117 H 0.60175 0.04469 0.52043 0.0
H2118 H 0.62869 0.08268 0.54793 0.0
H2119 H 0.57102 0.08189 0.6221 0.0
H2120 H 0.54356 0.04459 0.59406 0.0
H2121 H 0.62539 0.09114 0.65111 0.0
H2122 H 0.5699 0.11873 0.5684 0.0
H2123 H 0.54752 0.12333 0.51162 0.0
H2124 H 0.62128 0.14992 0.46813 0.0
H2125 H 0.64414 0.14523 0.5247 0.0
C2126 C 0.67474 0.20446 0.69898 0.0
C2127 C 0.70013 0.21332 0.68867 0.0
C2128 C 0.65774 0.18463 0.68083 0.0
C2129 C 0.66582 0.17383 0.65185 0.0
C2130 C 0.69046 0.18383 0.64 0.0
C2131 C 0.70766 0.20322 0.65861 0.0
C2132 C 0.6495 0.15093 0.63559 0.0
C2133 C 0.63838 0.15099 0.60145 0.0
C2134 C 0.64477 0.12917 0.65384 0.0
C2135 C 0.65694 0.12783 0.68946 0.0
C2136 C 0.68418 0.13452 0.69591 0.0
C2137 C 0.69553 0.13273 0.72936 0.0
C2138 C 0.67986 0.124 0.75649 0.0
C2139 C 0.65278 0.1172 0.75031 0.0
C2140 C 0.64132 0.11906 0.71694 0.0
C2141 C 0.59477 0.05266 0.54246 0.0
C2142 C 0.57041 0.04181 0.5548 0.0
C2143 C 0.61017 0.07431 0.55814 0.0
C2144 C 0.6017 0.08503 0.58687 0.0
C2145 C 0.5778 0.07386 0.5999 0.0
C2146 C 0.56215 0.0526 0.58376 0.0
C2147 C 0.61767 0.10803 0.6033 0.0
C2148 C 0.62877 0.10797 0.63746 0.0
C2149 C 0.62217 0.12982 0.58525 0.0
C2150 C 0.60871 0.13138 0.55064 0.0
C2151 C 0.58136 0.12517 0.54658 0.0
C2152 C 0.56859 0.12791 0.51451 0.0
C2153 C 0.58297 0.13698 0.48638 0.0
C2154 C 0.61017 0.14297 0.49002 0.0
C2155 C 0.62305 0.14028 0.52209 0.0
H2156 H 0.57295 0.13963 0.46196 0.0
H2157 H 0.68871 0.12246 0.78229 0.0
H2158 H 0.75618 0.31439 0.33658 0.0
H2159 H 0.78497 0.35059 0.36618 0.0
H2160 H 0.85192 0.32916 0.33242 0.0
H2161 H 0.82347 0.29287 0.30351 0.0
H2162 H 0.85685 0.33967 0.40075 0.0
H2163 H 0.8363 0.38025 0.29624 0.0
H2164 H 0.80577 0.39012 0.25094 0.0
H2165 H 0.76791 0.41946 0.33021 0.0
H2166 H 0.79793 0.40932 0.37593 0.0
H2167 H 0.95764 0.44574 0.4358 0.0
H2168 H 0.92504 0.41124 0.40832 0.0
H2169 H 0.86404 0.43673 0.45293 0.0
H2170 H 0.89647 0.47139 0.48049 0.0
H2171 H 0.85369 0.42456 0.38262 0.0
H2172 H 0.87737 0.38705 0.48699 0.0
H2173 H 0.90716 0.37558 0.53175 0.0
H2174 H 0.94005 0.34125 0.45225 0.0
H2175 H 0.9102 0.35213 0.40708 0.0
C2176 C 0.77704 0.31751 0.33535 0.0
C2177 C 0.7876 0.3007 0.3181 0.0
C2178 C 0.79342 0.33825 0.352 0.0
C2179 C 0.82053 0.34255 0.3513 0.0
C2180 C 0.83104 0.32609 0.33334 0.0
C2181 C 0.81474 0.30533 0.31695 0.0
C2182 C 0.83816 0.36317 0.37141 0.0
C2183 C 0.85635 0.35826 0.39649 0.0
C2184 C 0.83689 0.38729 0.36666 0.0
C2185 C 0.81899 0.39362 0.33939 0.0
C2186 C 0.82122 0.38851 0.30391 0.0
C2187 C 0.80409 0.39422 0.27821 0.0
C2188 C 0.78482 0.40528 0.28769 0.0
C2189 C 0.78277 0.4108 0.3229 0.0
C2190 C 0.79983 0.40508 0.34872 0.0
C2191 C 0.93731 0.44398 0.43988 0.0
C2192 C 0.92959 0.46129 0.46021 0.0
C2193 C 0.91875 0.42421 0.42434 0.0
C2194 C 0.89224 0.42145 0.42894 0.0
C2195 C 0.88446 0.43862 0.44924 0.0
C2196 C 0.90301 0.45833 0.46497 0.0
C2197 C 0.87265 0.40101 0.41139 0.0
C2198 C 0.85405 0.40595 0.38697 0.0
C2199 C 0.87354 0.37688 0.41669 0.0
C2200 C 0.89173 0.37058 0.44368 0.0
C2201 C 0.89109 0.3772 0.47907 0.0
C2202 C 0.90793 0.37077 0.5045 0.0
C2203 C 0.92563 0.35792 0.49482 0.0
C2204 C 0.92638 0.35126 0.4597 0.0
C2205 C 0.90941 0.35743 0.4342 0.0
H2206 H 0.93867 0.35302 0.51456 0.0
H2207 H 0.77156 0.40965 0.26775 0.0
H2208 H 0.66435 0.78918 0.32685 0.0
H2209 H 0.63824 0.81106 0.3586 0.0
H2210 H 0.69597 0.87807 0.34749 0.0
H2211 H 0.72197 0.85645 0.31539 0.0
H2212 H 0.67732 0.87044 0.41631 0.0
H2213 H 0.64492 0.86533 0.29445 0.0
H2214 H 0.62599 0.84316 0.23918 0.0
H2215 H 0.55828 0.80653 0.28973 0.0
H2216 H 0.57708 0.82783 0.34568 0.0
H2217 H 0.60797 0.95785 0.45639 0.0
H2218 H 0.63516 0.93243 0.43609 0.0
H2219 H 0.56715 0.87238 0.41877 0.0
H2220 H 0.53987 0.89818 0.43705 0.0
H2221 H 0.59085 0.8749 0.36471 0.0
H2222 H 0.62575 0.86538 0.48388 0.0
H2223 H 0.64542 0.87751 0.54364 0.0
H2224 H 0.7037 0.93471 0.50314 0.0
H2225 H 0.6851 0.92199 0.4429 0.0
C2226 C 0.67163 0.80853 0.33159 0.0
C2227 C 0.69521 0.82112 0.31866 0.0
C2228 C 0.65662 0.821 0.34949 0.0
C2229 C 0.66511 0.84618 0.35507 0.0
C2230 C 0.68908 0.85864 0.34334 0.0
C2231 C 0.70389 0.84626 0.32502 0.0
C2232 C 0.64889 0.85973 0.37265 0.0
C2233 C 0.65851 0.87166 0.40487 0.0
C2234 C 0.62397 0.86053 0.3583 0.0
C2235 C 0.61257 0.848 0.32443 0.0
C2236 C 0.62612 0.85237 0.29393 0.0
C2237 C 0.6154 0.83999 0.26244 0.0
C2238 C 0.59099 0.82348 0.26093 0.0
C2239 C 0.57721 0.8193 0.29094 0.0
C2240 C 0.58791 0.83149 0.32257 0.0
C2241 C 0.59894 0.9391 0.44882 0.0
C2242 C 0.57178 0.9301 0.44779 0.0
C2243 C 0.61455 0.92444 0.43749 0.0
C2244 C 0.60336 0.90029 0.42588 0.0
C2245 C 0.57635 0.89095 0.42713 0.0
C2246 C 0.56074 0.90572 0.43766 0.0
C2247 C 0.61911 0.88564 0.4089 0.0
C2248 C 0.60954 0.87364 0.37645 0.0
C2249 C 0.64376 0.88413 0.42341 0.0
C2250 C 0.65372 0.89316 0.45923 0.0
C2251 C 0.64254 0.88074 0.48787 0.0
C2252 C 0.65367 0.88753 0.52173 0.0
C2253 C 0.67554 0.90713 0.52727 0.0
C2254 C 0.68665 0.91966 0.49884 0.0
C2255 C 0.676 0.91252 0.46483 0.0
H2256 H 0.68392 0.91259 0.55354 0.0
H2257 H 0.58274 0.81396 0.23649 0.0
H2258 H 0.20308 0.68819 0.30441 0.0
H2259 H 0.17839 0.6537 0.33544 0.0
H2260 H 0.11144 0.68333 0.32859 0.0
H2261 H 0.13572 0.71752 0.29684 0.0
H2262 H 0.126 0.66802 0.39703 0.0
H2263 H 0.108 0.64141 0.27736 0.0
H2264 H 0.1195 0.63332 0.21813 0.0
H2265 H 0.15873 0.58122 0.25729 0.0
H2266 H 0.14833 0.58973 0.31733 0.0
H2267 H 0.02353 0.56515 0.43815 0.0
H2268 H 0.05255 0.60256 0.41915 0.0
H2269 H 0.11002 0.56348 0.39876 0.0
H2270 H 0.08055 0.52618 0.41527 0.0
H2271 H 0.1017 0.58483 0.34496 0.0
H2272 H 0.13274 0.62742 0.47466 0.0
H2273 H 0.11772 0.66019 0.51355 0.0
H2274 H 0.05844 0.6853 0.46224 0.0
H2275 H 0.06585 0.65502 0.41285 0.0
C2276 C 0.18308 0.68729 0.3095 0.0
C2277 C 0.17123 0.70542 0.29821 0.0
C2278 C 0.16906 0.66763 0.32714 0.0
C2279 C 0.1432 0.66611 0.33422 0.0
C2280 C 0.13143 0.68432 0.32333 0.0
C2281 C 0.14524 0.7037 0.30507 0.0
C2282 C 0.12827 0.64542 0.35285 0.0
C2283 C 0.12069 0.64966 0.38614 0.0
C2284 C 0.1215 0.62177 0.33795 0.0
C2285 C 0.12774 0.6165 0.30194 0.0
C2286 C 0.11941 0.62848 0.27348 0.0
C2287 C 0.12566 0.62376 0.2397 0.0
C2288 C 0.13981 0.60674 0.23382 0.0
C2289 C 0.14781 0.59443 0.26186 0.0
C2290 C 0.14181 0.59926 0.29582 0.0
C2291 C 0.04229 0.56469 0.42921 0.0
C2292 C 0.04942 0.54271 0.42667 0.0
C2293 C 0.05912 0.58613 0.4192 0.0
C2294 C 0.08361 0.58593 0.40769 0.0
C2295 C 0.09116 0.56411 0.40721 0.0
C2296 C 0.07414 0.54271 0.41609 0.0
C2297 C 0.09967 0.60699 0.39063 0.0
C2298 C 0.10749 0.60287 0.35708 0.0
C2299 C 0.10644 0.63082 0.40536 0.0
C2300 C 0.09866 0.638 0.43947 0.0
C2301 C 0.11926 0.63897 0.47643 0.0
C2302 C 0.11312 0.66906 0.52278 0.0
C2303 C 0.08931 0.68236 0.50863 0.0
C2304 C 0.07295 0.67555 0.46878 0.0
C2305 C 0.07712 0.65552 0.43751 0.0
H2306 H 0.08451 0.69567 0.52563 0.0
H2307 H 0.14452 0.60306 0.20756 0.0
H2308 H 0.34045 0.22269 0.3235 0.0
H2309 H 0.36865 0.20402 0.36089 0.0
H2310 H 0.31003 0.13609 0.35083 0.0
H2311 H 0.28186 0.15452 0.31456 0.0
H2312 H 0.32913 0.14315 0.41483 0.0
H2313 H 0.36274 0.14731 0.30204 0.0
H2314 H 0.3808 0.16688 0.24922 0.0
H2315 H 0.44717 0.20946 0.31164 0.0
H2316 H 0.42927 0.19035 0.36497 0.0
H2317 H 0.39086 0.04893 0.43391 0.0
H2318 H 0.36932 0.07877 0.41117 0.0
H2319 H 0.43532 0.13623 0.44964 0.0
H2320 H 0.45741 0.1062 0.47241 0.0
H2321 H 0.41685 0.14141 0.38034 0.0
H2322 H 0.37923 0.12245 0.49247 0.0
H2323 H 0.3561 0.09466 0.53518 0.0
H2324 H 0.29079 0.06982 0.46055 0.0
H2325 H 0.31351 0.09684 0.41697 0.0
C2326 C 0.33354 0.20386 0.32968 0.0
C2327 C 0.30897 0.19006 0.316 0.0
C2328 C 0.3497 0.1932 0.35084 0.0
C2329 C 0.34152 0.16861 0.35845 0.0
C2330 C 0.31675 0.1551 0.34547 0.0
C2331 C 0.30067 0.16568 0.32455 0.0
C2332 C 0.35861 0.15635 0.37913 0.0
C2333 C 0.34834 0.1428 0.40733 0.0
C2334 C 0.38373 0.15602 0.36943 0.0
C2335 C 0.39448 0.16771 0.33755 0.0
C2336 C 0.38105 0.16104 0.30455 0.0
C2337 C 0.39128 0.172 0.27451 0.0
C2338 C 0.41507 0.18948 0.27709 0.0
C2339 C 0.4287 0.19598 0.30971 0.0
C2340 C 0.41852 0.1851 0.33986 0.0
C2341 C 0.40089 0.0679 0.4377 0.0
C2342 C 0.42588 0.07519 0.45507 0.0
C2343 C 0.38844 0.08495 0.4248 0.0
C2344 C 0.40051 0.10972 0.42929 0.0
C2345 C 0.42561 0.11717 0.44617 0.0
C2346 C 0.43819 0.10002 0.45911 0.0
C2347 C 0.38692 0.12755 0.41528 0.0
C2348 C 0.39794 0.14226 0.38845 0.0
C2349 C 0.36175 0.12785 0.42487 0.0
C2350 C 0.34816 0.11171 0.45141 0.0
C2351 C 0.36 0.11099 0.48509 0.0
C2352 C 0.34697 0.09538 0.50946 0.0
C2353 C 0.32207 0.08061 0.50068 0.0
C2354 C 0.31008 0.08131 0.46739 0.0
C2355 C 0.32301 0.09676 0.44283 0.0
H2356 H 0.31209 0.06859 0.51969 0.0
H2357 H 0.42298 0.19793 0.2538 0.0
H2358 H 0.71396 0.81116 0.63052 0.0
H2359 H 0.68605 0.83478 0.60353 0.0
H2360 H 0.62999 0.81096 0.67993 0.0
H2361 H 0.65773 0.78723 0.70721 0.0
H2362 H 0.60878 0.81468 0.60615 0.0
H2363 H 0.66874 0.86305 0.70076 0.0
H2364 H 0.71333 0.87732 0.72873 0.0
H2365 H 0.74074 0.90685 0.63198 0.0
H2366 H 0.69633 0.8926 0.60354 0.0
H2367 H 0.5416 0.90581 0.57655 0.0
H2368 H 0.56284 0.87689 0.60417 0.0
H2369 H 0.63651 0.91686 0.56922 0.0
H2370 H 0.61562 0.94609 0.54344 0.0
H2371 H 0.64765 0.9029 0.62462 0.0
H2372 H 0.59163 0.85879 0.52831 0.0
H2373 H 0.54991 0.84265 0.49358 0.0
H2374 H 0.51821 0.80274 0.58123 0.0
H2375 H 0.55972 0.81885 0.61655 0.0
C2376 C 0.69544 0.81046 0.64115 0.0
C2377 C 0.6882 0.7975 0.67125 0.0
C2378 C 0.67954 0.82399 0.6257 0.0
C2379 C 0.65615 0.82473 0.64001 0.0
C2380 C 0.64799 0.81055 0.66854 0.0
C2381 C 0.66392 0.79708 0.68413 0.0
C2382 C 0.64176 0.84232 0.6277 0.0
C2383 C 0.61702 0.834 0.61032 0.0
C2384 C 0.65291 0.86741 0.63254 0.0
C2385 C 0.67926 0.87698 0.65014 0.0
C2386 C 0.68428 0.87271 0.68557 0.0
C2387 C 0.70951 0.88074 0.70148 0.0
C2388 C 0.72984 0.89305 0.68217 0.0
C2389 C 0.72496 0.89744 0.64696 0.0
C2390 C 0.69975 0.88949 0.63098 0.0
C2391 C 0.5623 0.90814 0.57461 0.0
C2392 C 0.57698 0.92796 0.55762 0.0
C2393 C 0.57445 0.89154 0.59019 0.0
C2394 C 0.60126 0.8939 0.58765 0.0
C2395 C 0.6158 0.91406 0.57106 0.0
C2396 C 0.60384 0.9309 0.55631 0.0
C2397 C 0.61438 0.87555 0.60189 0.0
C2398 C 0.63904 0.88368 0.62007 0.0
C2399 C 0.60345 0.85025 0.59654 0.0
C2400 C 0.5787 0.84016 0.57512 0.0
C2401 C 0.57576 0.84659 0.54015 0.0
C2402 C 0.55214 0.83747 0.52039 0.0
C2403 C 0.5314 0.82171 0.53521 0.0
C2404 C 0.53428 0.81496 0.56979 0.0
C2405 C 0.55786 0.82405 0.58968 0.0
H2406 H 0.51311 0.81471 0.5199 0.0
H2407 H 0.74939 0.89914 0.69448 0.0
H2408 H 0.65603 0.215 0.30164 0.0
H2409 H 0.62312 0.18403 0.32806 0.0
H2410 H 0.68187 0.17175 0.40331 0.0
H2411 H 0.71488 0.20262 0.37715 0.0
H2412 H 0.65844 0.13173 0.36358 0.0
H2413 H 0.63222 0.19072 0.43123 0.0
H2414 H 0.6179 0.22754 0.44385 0.0
H2415 H 0.54861 0.20034 0.37616 0.0
H2416 H 0.56269 0.16344 0.36275 0.0
H2417 H 0.58564 0.0407 0.45997 0.0
H2418 H 0.61202 0.07895 0.44057 0.0
H2419 H 0.54659 0.08717 0.3735 0.0
H2420 H 0.51963 0.04927 0.39495 0.0
H2421 H 0.57101 0.12897 0.40333 0.0
H2422 H 0.59812 0.06857 0.34025 0.0
H2423 H 0.61286 0.0315 0.33128 0.0
H2424 H 0.68262 0.06211 0.39659 0.0
H2425 H 0.66813 0.09925 0.40638 0.0
C2426 C 0.66183 0.20629 0.32453 0.0
C2427 C 0.68817 0.21088 0.33682 0.0
C2428 C 0.64295 0.18861 0.33965 0.0
C2429 C 0.65017 0.17539 0.3673 0.0
C2430 C 0.67599 0.18161 0.38173 0.0
C2431 C 0.69483 0.19927 0.36673 0.0
C2432 C 0.63202 0.15282 0.37739 0.0
C2433 C 0.6396 0.13122 0.37324 0.0
C2434 C 0.607 0.15208 0.3883 0.0
C2435 C 0.59869 0.17445 0.39559 0.0
C2436 C 0.61409 0.19271 0.41867 0.0
C2437 C 0.60597 0.21356 0.42607 0.0
C2438 C 0.58241 0.21632 0.41071 0.0
C2439 C 0.56689 0.1982 0.38797 0.0
C2440 C 0.57492 0.1773 0.38047 0.0
C2441 C 0.57699 0.05077 0.44114 0.0
C2442 C 0.55093 0.04222 0.42853 0.0
C2443 C 0.59205 0.07247 0.42985 0.0
C2444 C 0.5815 0.08561 0.40483 0.0
C2445 C 0.55518 0.07718 0.39254 0.0
C2446 C 0.53989 0.05559 0.40451 0.0
C2447 C 0.59818 0.10815 0.39201 0.0
C2448 C 0.59012 0.12962 0.3946 0.0
C2449 C 0.62303 0.1089 0.3803 0.0
C2450 C 0.63193 0.08664 0.37423 0.0
C2451 C 0.61653 0.06735 0.35288 0.0
C2452 C 0.62485 0.04632 0.34763 0.0
C2453 C 0.64864 0.04444 0.36341 0.0
C2454 C 0.66419 0.0636 0.3844 0.0
C2455 C 0.65594 0.08465 0.38977 0.0
H2456 H 0.65504 0.02814 0.35932 0.0
H2457 H 0.57614 0.23247 0.41652 0.0
H2458 H 0.78411 0.67209 0.32385 0.0
H2459 H 0.80463 0.64661 0.3609 0.0
H2460 H 0.88012 0.6944 0.34815 0.0
H2461 H 0.85996 0.71972 0.31119 0.0
H2462 H 0.87803 0.64714 0.33257 0.0
H2463 H 0.85191 0.69333 0.4246 0.0
H2464 H 0.82018 0.70865 0.45637 0.0
H2465 H 0.77829 0.6359 0.47511 0.0
H2466 H 0.80954 0.62013 0.44293 0.0
H2467 H 0.95873 0.60129 0.4525 0.0
H2468 H 0.93557 0.62908 0.42527 0.0
H2469 H 0.86203 0.57874 0.44028 0.0
H2470 H 0.88488 0.55089 0.46697 0.0
H2471 H 0.86139 0.62605 0.45531 0.0
H2472 H 0.88337 0.57899 0.36395 0.0
H2473 H 0.91099 0.56071 0.32856 0.0
H2474 H 0.95608 0.63135 0.30493 0.0
H2475 H 0.92897 0.65007 0.34068 0.0
C2476 C 0.80504 0.67731 0.32935 0.0
C2477 C 0.82044 0.6978 0.3144 0.0
C2478 C 0.81671 0.66278 0.35056 0.0
C2479 C 0.84389 0.66866 0.35722 0.0
C2480 C 0.85913 0.68951 0.34319 0.0
C2481 C 0.84754 0.70396 0.32207 0.0
C2482 C 0.85687 0.65242 0.37681 0.0
C2483 C 0.87472 0.64285 0.3596 0.0
C2484 C 0.85163 0.64603 0.41155 0.0
C2485 C 0.83293 0.65554 0.43104 0.0
C2486 C 0.83581 0.68059 0.43523 0.0
C2487 C 0.81793 0.68936 0.45336 0.0
C2488 C 0.7972 0.67326 0.46768 0.0
C2489 C 0.79434 0.64835 0.46396 0.0
C2490 C 0.81214 0.63949 0.4458 0.0
C2491 C 0.93765 0.59628 0.45024 0.0
C2492 C 0.92363 0.57381 0.46142 0.0
C2493 C 0.92446 0.61211 0.43465 0.0
C2494 C 0.89711 0.6058 0.4305 0.0
C2495 C 0.88312 0.5839 0.44319 0.0
C2496 C 0.89625 0.56797 0.45823 0.0
C2497 C 0.88307 0.62139 0.4113 0.0
C2498 C 0.86487 0.63057 0.4284 0.0
C2499 C 0.88756 0.62711 0.37616 0.0
C2500 C 0.90439 0.61594 0.35546 0.0
C2501 C 0.89941 0.59063 0.35163 0.0
C2502 C 0.91491 0.58019 0.3314 0.0
C2503 C 0.93535 0.59485 0.31463 0.0
C2504 C 0.94031 0.62001 0.31804 0.0
C2505 C 0.92488 0.63055 0.33829 0.0
H2506 H 0.94728 0.58673 0.29889 0.0
H2507 H 0.78338 0.68008 0.48171 0.0
H2508 H 0.27161 0.79794 0.34692 0.0
H2509 H 0.30016 0.8311 0.38255 0.0
H2510 H 0.36728 0.81438 0.34112 0.0
H2511 H 0.33869 0.78051 0.30597 0.0
H2512 H 0.37738 0.83 0.40923 0.0
H2513 H 0.34281 0.85761 0.30401 0.0
H2514 H 0.30828 0.86116 0.25983 0.0
H2515 H 0.27207 0.89395 0.33742 0.0
H2516 H 0.30633 0.89044 0.38219 0.0
H2517 H 0.46388 0.94732 0.43162 0.0
H2518 H 0.43578 0.90924 0.40726 0.0
H2519 H 0.37032 0.92497 0.45466 0.0
H2520 H 0.39831 0.96342 0.47899 0.0
H2521 H 0.35914 0.90932 0.38542 0.0
H2522 H 0.4013 0.88538 0.4889 0.0
H2523 H 0.43969 0.88328 0.52732 0.0
H2524 H 0.46563 0.84412 0.44636 0.0
H2525 H 0.42795 0.84665 0.40704 0.0
C2526 C 0.29248 0.80096 0.34593 0.0
C2527 C 0.30291 0.78684 0.32325 0.0
C2528 C 0.30876 0.81999 0.36621 0.0
C2529 C 0.33579 0.8256 0.36377 0.0
C2530 C 0.34644 0.81044 0.34319 0.0
C2531 C 0.3301 0.7911 0.32313 0.0
C2532 C 0.35252 0.84836 0.38043 0.0
C2533 C 0.37358 0.84738 0.40383 0.0
C2534 C 0.34741 0.87101 0.37347 0.0
C2535 C 0.32696 0.87351 0.34655 0.0
C2536 C 0.32739 0.86544 0.31171 0.0
C2537 C 0.30789 0.86746 0.28656 0.0
C2538 C 0.2879 0.87763 0.2959 0.0
C2539 C 0.28751 0.88599 0.33032 0.0
C2540 C 0.30699 0.88404 0.35557 0.0
C2541 C 0.44352 0.94275 0.43697 0.0
C2542 C 0.43334 0.95848 0.45726 0.0
C2543 C 0.42751 0.92087 0.42312 0.0
C2544 C 0.40104 0.91415 0.42947 0.0
C2545 C 0.39074 0.92982 0.44954 0.0
C2546 C 0.40676 0.95176 0.46344 0.0
C2547 C 0.38402 0.89103 0.41438 0.0
C2548 C 0.36286 0.89195 0.39111 0.0
C2549 C 0.38953 0.86845 0.42082 0.0
C2550 C 0.41183 0.86635 0.44492 0.0
C2551 C 0.41526 0.87644 0.47921 0.0
C2552 C 0.43689 0.87518 0.50115 0.0
C2553 C 0.45501 0.86352 0.48933 0.0
C2554 C 0.45156 0.85312 0.45551 0.0
C2555 C 0.43009 0.8545 0.43336 0.0
H2556 H 0.47173 0.86257 0.50636 0.0
H2557 H 0.27276 0.8791 0.27644 0.0
H2558 H 0.16385 0.28513 0.35285 0.0
H2559 H 0.14398 0.31405 0.38068 0.0
H2560 H 0.19375 0.3723 0.32864 0.0
H2561 H 0.21416 0.34335 0.30098 0.0
H2562 H 0.18471 0.38524 0.39825 0.0
H2563 H 0.13496 0.34969 0.29214 0.0
H2564 H 0.11262 0.31553 0.2518 0.0
H2565 H 0.06116 0.286 0.3307 0.0
H2566 H 0.08347 0.31987 0.37163 0.0
H2567 H 0.10139 0.46501 0.42 0.0
H2568 H 0.13039 0.4415 0.39902 0.0
H2569 H 0.07588 0.37561 0.42562 0.0
H2570 H 0.04611 0.3991 0.44385 0.0
H2571 H 0.08985 0.36856 0.36646 0.0
H2572 H 0.13766 0.40689 0.47195 0.0
H2573 H 0.16135 0.44028 0.51246 0.0
H2574 H 0.21691 0.46531 0.43657 0.0
H2575 H 0.1935 0.43211 0.39539 0.0
C2576 C 0.17092 0.30414 0.34775 0.0
C2577 C 0.19044 0.3119 0.32447 0.0
C2578 C 0.15953 0.32066 0.36369 0.0
C2579 C 0.16709 0.3453 0.35635 0.0
C2580 C 0.18762 0.35338 0.33471 0.0
C2581 C 0.19925 0.33681 0.3189 0.0
C2582 C 0.15182 0.36193 0.36877 0.0
C2583 C 0.16402 0.38189 0.39107 0.0
C2584 C 0.12478 0.35729 0.35974 0.0
C2585 C 0.11099 0.3372 0.33497 0.0
C2586 C 0.11897 0.33584 0.3009 0.0
C2587 C 0.10631 0.31654 0.27794 0.0
C2588 C 0.08551 0.29858 0.28871 0.0
C2589 C 0.07728 0.29993 0.32241 0.0
C2590 C 0.0899 0.31918 0.34547 0.0
C2591 C 0.09581 0.4455 0.42152 0.0
C2592 C 0.07157 0.43376 0.43331 0.0
C2593 C 0.11244 0.43206 0.40973 0.0
C2594 C 0.10559 0.40667 0.41096 0.0
C2595 C 0.08165 0.39511 0.42405 0.0
C2596 C 0.06467 0.40849 0.43462 0.0
C2597 C 0.12242 0.39188 0.39698 0.0
C2598 C 0.11051 0.37217 0.37398 0.0
C2599 C 0.1497 0.39688 0.40558 0.0
C2600 C 0.16373 0.41692 0.43047 0.0
C2601 C 0.15493 0.41944 0.46383 0.0
C2602 C 0.16829 0.43838 0.48694 0.0
C2603 C 0.19061 0.4549 0.47711 0.0
C2604 C 0.19962 0.45249 0.44416 0.0
C2605 C 0.18632 0.43358 0.42094 0.0
H2606 H 0.20091 0.46957 0.49504 0.0
H2607 H 0.07574 0.28363 0.27092 0.0
H2608 H 0.33272 0.21376 0.65839 0.0
H2609 H 0.35945 0.19105 0.62992 0.0
H2610 H 0.30113 0.12458 0.64245 0.0
H2611 H 0.27465 0.14709 0.67155 0.0
H2612 H 0.34623 0.11992 0.66653 0.0
H2613 H 0.31479 0.14826 0.56008 0.0
H2614 H 0.30507 0.17746 0.51813 0.0
H2615 H 0.38638 0.21366 0.52021 0.0
H2616 H 0.39656 0.18483 0.56251 0.0
H2617 H 0.39685 0.04137 0.56111 0.0
H2618 H 0.36956 0.06699 0.5812 0.0
H2619 H 0.43627 0.12857 0.58985 0.0
H2620 H 0.46382 0.10284 0.57115 0.0
H2621 H 0.38945 0.1372 0.5558 0.0
H2622 H 0.41975 0.10742 0.6615 0.0
H2623 H 0.42883 0.07724 0.70219 0.0
H2624 H 0.34729 0.04167 0.69847 0.0
H2625 H 0.33775 0.07154 0.65746 0.0
C2626 C 0.32533 0.19437 0.65436 0.0
C2627 C 0.30164 0.18221 0.66744 0.0
C2628 C 0.34063 0.18138 0.63801 0.0
C2629 C 0.33236 0.15604 0.63402 0.0
C2630 C 0.30804 0.14408 0.64541 0.0
C2631 C 0.29287 0.157 0.66196 0.0
C2632 C 0.34993 0.14179 0.62102 0.0
C2633 C 0.35515 0.12339 0.64187 0.0
C2634 C 0.36248 0.14684 0.58954 0.0
C2635 C 0.35639 0.16459 0.56485 0.0
C2636 C 0.33056 0.16263 0.55193 0.0
C2637 C 0.32498 0.17906 0.52798 0.0
C2638 C 0.34509 0.19746 0.5166 0.0
C2639 C 0.37082 0.19944 0.52911 0.0
C2640 C 0.37651 0.18305 0.55305 0.0
C2641 C 0.40559 0.06041 0.56701 0.0
C2642 C 0.4324 0.07015 0.56478 0.0
C2643 C 0.39008 0.07497 0.57866 0.0
C2644 C 0.401 0.09961 0.58725 0.0
C2645 C 0.42754 0.10959 0.58349 0.0
C2646 C 0.44319 0.0949 0.57283 0.0
C2647 C 0.38468 0.11484 0.60054 0.0
C2648 C 0.38014 0.13365 0.58016 0.0
C2649 C 0.37239 0.10991 0.63209 0.0
C2650 C 0.37807 0.09156 0.65607 0.0
C2651 C 0.40379 0.09299 0.66902 0.0
C2652 C 0.40901 0.076 0.69225 0.0
C2653 C 0.38866 0.0575 0.70283 0.0
C2654 C 0.36304 0.05598 0.69021 0.0
C2655 C 0.35771 0.07296 0.667 0.0
H2656 H 0.39274 0.0444 0.72088 0.0
H2657 H 0.34073 0.21013 0.49803 0.0
H2658 H 0.85236 0.2693 0.6691 0.0
H2659 H 0.87649 0.30326 0.63695 0.0
H2660 H 0.84167 0.35162 0.69355 0.0
H2661 H 0.816 0.31716 0.72371 0.0
H2662 H 0.84582 0.36513 0.63003 0.0
H2663 H 0.9061 0.34236 0.71628 0.0
H2664 H 0.92851 0.31383 0.74385 0.0
H2665 H 0.95897 0.30168 0.646 0.0
H2666 H 0.93654 0.32996 0.6178 0.0
H2667 H 0.93879 0.47611 0.62108 0.0
H2668 H 0.91199 0.43847 0.6415 0.0
H2669 H 0.94597 0.39765 0.57072 0.0
H2670 H 0.97288 0.4352 0.54996 0.0
H2671 H 0.9418 0.37847 0.63428 0.0
H2672 H 0.8873 0.40628 0.55057 0.0
H2673 H 0.86514 0.43459 0.52244 0.0
H2674 H 0.82395 0.4379 0.61425 0.0
H2675 H 0.84612 0.40975 0.64319 0.0
C2676 C 0.84982 0.28722 0.67438 0.0
C2677 C 0.8327 0.29089 0.69897 0.0
C2678 C 0.86366 0.3066 0.65619 0.0
C2679 C 0.86151 0.33015 0.66354 0.0
C2680 C 0.84377 0.33366 0.68752 0.0
C2681 C 0.82922 0.31408 0.70484 0.0
C2682 C 0.87839 0.35123 0.64731 0.0
C2683 C 0.86683 0.36821 0.63134 0.0
C2684 C 0.90576 0.35482 0.64779 0.0
C2685 C 0.91948 0.33809 0.6649 0.0
C2686 C 0.9175 0.33352 0.70065 0.0
C2687 C 0.93021 0.31741 0.71638 0.0
C2688 C 0.9451 0.30591 0.69667 0.0
C2689 C 0.94741 0.31058 0.66122 0.0
C2690 C 0.93474 0.32666 0.64537 0.0
C2691 C 0.94084 0.45916 0.6101 0.0
C2692 C 0.95793 0.45869 0.58377 0.0
C2693 C 0.9253 0.43767 0.62156 0.0
C2694 C 0.92656 0.41536 0.60695 0.0
C2695 C 0.94445 0.41474 0.58191 0.0
C2696 C 0.9599 0.43622 0.57023 0.0
C2697 C 0.9093 0.3927 0.61816 0.0
C2698 C 0.92077 0.37537 0.6329 0.0
C2699 C 0.8819 0.38887 0.61653 0.0
C2700 C 0.86854 0.40591 0.59917 0.0
C2701 C 0.87365 0.41309 0.56489 0.0
C2702 C 0.86106 0.42913 0.54876 0.0
C2703 C 0.84317 0.43807 0.56654 0.0
C2704 C 0.83782 0.43096 0.6005 0.0
C2705 C 0.85037 0.41492 0.61676 0.0
H2706 H 0.83344 0.45049 0.55401 0.0
H2707 H 0.9549 0.29343 0.70889 0.0
H2708 H 0.1856 0.7004 0.70936 0.0
H2709 H 0.15669 0.66485 0.67871 0.0
H2710 H 0.22009 0.65492 0.62045 0.0
H2711 H 0.24943 0.6904 0.65152 0.0
H2712 H 0.16843 0.66039 0.58362 0.0
H2713 H 0.20412 0.61683 0.67486 0.0
H2714 H 0.2137 0.61102 0.73745 0.0
H2715 H 0.13258 0.59832 0.75484 0.0
H2716 H 0.12253 0.60448 0.69243 0.0
H2717 H 0.10035 0.54232 0.50127 0.0
H2718 H 0.13247 0.57851 0.52586 0.0
H2719 H 0.0822 0.58391 0.60794 0.0
H2720 H 0.05013 0.54811 0.58359 0.0
H2721 H 0.12924 0.58141 0.63266 0.0
H2722 H 0.08456 0.6125 0.54179 0.0
H2723 H 0.06089 0.63469 0.49038 0.0
H2724 H 0.16629 0.69006 0.47675 0.0
H2725 H 0.17553 0.65925 0.52703 0.0
C2726 C 0.19344 0.69053 0.69022 0.0
C2727 C 0.21962 0.69819 0.6824 0.0
C2728 C 0.17697 0.67023 0.67296 0.0
C2729 C 0.18642 0.65752 0.64748 0.0
C2730 C 0.21266 0.66469 0.64018 0.0
C2731 C 0.22931 0.68481 0.65789 0.0
C2732 C 0.16831 0.63776 0.62676 0.0
C2733 C 0.16054 0.64239 0.59257 0.0
C2734 C 0.15664 0.61582 0.6417 0.0
C2735 C 0.16259 0.61117 0.67894 0.0
C2736 C 0.18833 0.61288 0.69203 0.0
C2737 C 0.19384 0.60954 0.72747 0.0
C2738 C 0.17375 0.60426 0.75002 0.0
C2739 C 0.1481 0.60234 0.73726 0.0
C2740 C 0.14248 0.60572 0.70185 0.0
C2741 C 0.09613 0.5514 0.5244 0.0
C2742 C 0.07301 0.54225 0.54098 0.0
C2743 C 0.11435 0.57211 0.53815 0.0
C2744 C 0.10965 0.58365 0.56868 0.0
C2745 C 0.08613 0.57506 0.58439 0.0
C2746 C 0.06785 0.55465 0.57047 0.0
C2747 C 0.13007 0.60301 0.58683 0.0
C2748 C 0.13799 0.59853 0.62131 0.0
C2749 C 0.1413 0.62541 0.57179 0.0
C2750 C 0.13171 0.63363 0.53754 0.0
C2751 C 0.09737 0.62542 0.52675 0.0
C2752 C 0.0821 0.64053 0.49482 0.0
C2753 C 0.11814 0.676 0.46694 0.0
C2754 C 0.14982 0.67681 0.48553 0.0
C2755 C 0.15534 0.65675 0.5179 0.0
H2756 H 0.11633 0.68928 0.44744 0.0
H2757 H 0.1781 0.60157 0.77735 0.0
loop_
_geom_bond_atom_site_label_1
_geom_bond_atom_site_label_2
_geom_bond_distance
_geom_bond_site_symmetry_2
_ccdc_geom_bond_type
Zn0 O6 1.969 . S
Zn0 O7 1.965 . S
Zn0 O11 2.024 . S
Zn0 O16 1.969 . S
Zn1 O8 1.969 . S
Zn1 O14 1.969 . S
Zn1 O15 1.965 . S
Zn1 O17 2.024 . S
C2 O3 1.229 . S
C2 O11 1.058 . S
O3 C2 1.229 . S
C4 O5 1.229 . S
C4 O17 1.058 . S
O5 C4 1.229 . S
O6 Zn0 1.969 . S
O6 C9 1.267 . S
O7 Zn0 1.965 . S
O7 C18 1.260 . S
O8 Zn1 1.969 . S
O8 C18 1.258 . S
C9 O6 1.267 . S
C9 O10 1.228 . S
O10 C9 1.228 . S
O11 Zn0 2.024 . S
O11 C2 1.058 . S
C12 O13 1.228 . S
C12 O14 1.267 . S
O13 C12 1.228 . S
O14 Zn1 1.969 . S
O14 C12 1.267 . S
O15 Zn1 1.965 . S
O15 C19 1.260 . S
O16 Zn0 1.969 . S
O16 C19 1.258 . S
O17 Zn1 2.024 . S
O17 C4 1.058 . S
C18 O7 1.260 . S
C18 O8 1.258 . S
C19 O15 1.260 . S
C19 O16 1.258 . S
Zn20 O26 1.969 . S
Zn20 O27 1.965 . S
Zn20 O31 2.024 . S
Zn20 O36 1.969 . S
Zn21 O28 1.969 . S
Zn21 O34 1.969 . S
Zn21 O35 1.965 . S
Zn21 O37 2.024 . S
C22 O23 1.229 . S
C22 O31 1.058 . S
O23 C22 1.229 . S
C24 O25 1.229 . S
C24 O37 1.058 . S
O25 C24 1.229 . S
O26 Zn20 1.969 . S
O26 C29 1.267 . S
O27 Zn20 1.965 . S
O27 C38 1.260 . S
O28 Zn21 1.969 . S
O28 C38 1.258 . S
C29 O26 1.267 . S
C29 O30 1.228 . S
O30 C29 1.228 . S
O31 Zn20 2.024 . S
O31 C22 1.058 . S
C32 O33 1.228 . S
C32 O34 1.267 . S
O33 C32 1.228 . S
O34 Zn21 1.969 . S
O34 C32 1.267 . S
O35 Zn21 1.965 . S
O35 C39 1.260 . S
O36 Zn20 1.969 . S
O36 C39 1.258 . S
O37 Zn21 2.024 . S
O37 C24 1.058 . S
C38 O27 1.260 . S
C38 O28 1.258 . S
C39 O35 1.260 . S
C39 O36 1.258 . S
Zn40 O46 1.969 . S
Zn40 O47 1.965 . S
Zn40 O51 2.024 . S
Zn40 O56 1.969 . S
Zn41 O48 1.969 . S
Zn41 O54 1.969 . S
Zn41 O55 1.965 . S
Zn41 O57 2.024 . S
C42 O43 1.229 . S
C42 O51 1.058 . S
O43 C42 1.229 . S
C44 O45 1.229 . S
C44 O57 1.058 . S
O45 C44 1.229 . S
O46 Zn40 1.969 . S
O46 C49 1.267 . S
O47 Zn40 1.965 . S
O47 C58 1.260 . S
O48 Zn41 1.969 . S
O48 C58 1.258 . S
C49 O46 1.267 . S
C49 O50 1.228 . S
O50 C49 1.228 . S
O51 Zn40 2.024 . S
O51 C42 1.058 . S
C52 O53 1.228 . S
C52 O54 1.267 . S
O53 C52 1.228 . S
O54 Zn41 1.969 . S
O54 C52 1.267 . S
O55 Zn41 1.965 . S
O55 C59 1.260 . S
O56 Zn40 1.969 . S
O56 C59 1.258 . S
O57 Zn41 2.024 . S
O57 C44 1.058 . S
C58 O47 1.260 . S
C58 O48 1.258 . S
C59 O55 1.260 . S
C59 O56 1.258 . S
Zn60 O66 1.969 . S
Zn60 O67 1.965 . S
Zn60 O71 2.024 . S
Zn60 O76 1.969 . S
Zn61 O68 1.969 . S
Zn61 O74 1.969 . S
Zn61 O75 1.965 . S
Zn61 O77 2.024 . S
C62 O63 1.229 . S
C62 O71 1.058 . S
O63 C62 1.229 . S
C64 O65 1.229 . S
C64 O77 1.058 . S
O65 C64 1.229 . S
O66 Zn60 1.969 . S
O66 C69 1.267 . S
O67 Zn60 1.965 . S
O67 C78 1.260 . S
O68 Zn61 1.969 . S
O68 C78 1.258 . S
C69 O66 1.267 . S
C69 O70 1.228 . S
O70 C69 1.228 . S
O71 Zn60 2.024 . S
O71 C62 1.058 . S
C72 O73 1.228 . S
C72 O74 1.267 . S
O73 C72 1.228 . S
O74 Zn61 1.969 . S
O74 C72 1.267 . S
O75 Zn61 1.965 . S
O75 C79 1.260 . S
O76 Zn60 1.969 . S
O76 C79 1.258 . S
O77 Zn61 2.024 . S
O77 C64 1.058 . S
C78 O67 1.260 . S
C78 O68 1.258 . S
C79 O75 1.260 . S
C79 O76 1.258 . S
Zn80 O86 1.969 . S
Zn80 O87 1.965 . S
Zn80 O91 2.024 . S
Zn80 O96 1.969 . S
Zn81 O88 1.969 . S
Zn81 O94 1.969 . S
Zn81 O95 1.965 . S
Zn81 O97 2.024 . S
C82 O83 1.229 . S
C82 O91 1.058 . S
O83 C82 1.229 . S
C84 O85 1.229 . S
C84 O97 1.058 . S
O85 C84 1.229 . S
O86 Zn80 1.969 . S
O86 C89 1.267 . S
O87 Zn80 1.965 . S
O87 C98 1.260 . S
O88 Zn81 1.969 . S
O88 C98 1.258 . S
C89 O86 1.267 . S
C89 O90 1.228 . S
O90 C89 1.228 . S
O91 Zn80 2.024 . S
O91 C82 1.058 . S
C92 O93 1.228 . S
C92 O94 1.267 . S
O93 C92 1.228 . S
O94 Zn81 1.969 . S
O94 C92 1.267 . S
O95 Zn81 1.965 . S
O95 C99 1.260 . S
O96 Zn80 1.969 . S
O96 C99 1.258 . S
O97 Zn81 2.024 . S
O97 C84 1.058 . S
C98 O87 1.260 . S
C98 O88 1.258 . S
C99 O95 1.260 . S
C99 O96 1.258 . S
Zn100 O106 1.969 . S
Zn100 O107 1.965 . S
Zn100 O111 2.024 . S
Zn100 O116 1.969 . S
Zn101 O108 1.969 . S
Zn101 O114 1.969 . S
Zn101 O115 1.965 . S
Zn101 O117 2.024 . S
C102 O103 1.229 . S
C102 O111 1.058 . S
O103 C102 1.229 . S
C104 O105 1.229 . S
C104 O117 1.058 . S
O105 C104 1.229 . S
O106 Zn100 1.969 . S
O106 C109 1.267 . S
O107 Zn100 1.965 . S
O107 C118 1.260 . S
O108 Zn101 1.969 . S
O108 C118 1.258 . S
C109 O106 1.267 . S
C109 O110 1.228 . S
O110 C109 1.228 . S
O111 Zn100 2.024 . S
O111 C102 1.058 . S
C112 O113 1.228 . S
C112 O114 1.267 . S
O113 C112 1.228 . S
O114 Zn101 1.969 . S
O114 C112 1.267 . S
O115 Zn101 1.965 . S
O115 C119 1.260 . S
O116 Zn100 1.969 . S
O116 C119 1.258 . S
O117 Zn101 2.024 . S
O117 C104 1.058 . S
C118 O107 1.260 . S
C118 O108 1.258 . S
C119 O115 1.260 . S
C119 O116 1.258 . S
Zn120 O126 1.969 . S
Zn120 O127 1.965 . S
Zn120 O131 2.024 . S
Zn120 O136 1.969 . S
Zn121 O128 1.969 . S
Zn121 O134 1.969 . S
Zn121 O135 1.965 . S
Zn121 O137 2.024 . S
C122 O123 1.229 . S
C122 O131 1.058 . S
O123 C122 1.229 . S
C124 O125 1.229 . S
C124 O137 1.058 . S
O125 C124 1.229 . S
O126 Zn120 1.969 . S
O126 C129 1.267 . S
O127 Zn120 1.965 . S
O127 C138 1.260 . S
O128 Zn121 1.969 . S
O128 C138 1.258 . S
C129 O126 1.267 . S
C129 O130 1.228 . S
O130 C129 1.228 . S
O131 Zn120 2.024 . S
O131 C122 1.058 . S
C132 O133 1.228 . S
C132 O134 1.267 . S
O133 C132 1.228 . S
O134 Zn121 1.969 . S
O134 C132 1.267 . S
O135 Zn121 1.965 . S
O135 C139 1.260 . S
O136 Zn120 1.969 . S
O136 C139 1.258 . S
O137 Zn121 2.024 . S
O137 C124 1.058 . S
C138 O127 1.260 . S
C138 O128 1.258 . S
C139 O135 1.260 . S
C139 O136 1.258 . S
Zn140 O146 1.969 . S
Zn140 O147 1.965 . S
Zn140 O151 2.024 . S
Zn140 O156 1.969 . S
Zn141 O148 1.969 . S
Zn141 O154 1.969 . S
Zn141 O155 1.965 . S
Zn141 O157 2.024 . S
C142 O143 1.229 . S
C142 O151 1.058 . S
O143 C142 1.229 . S
C144 O145 1.229 . S
C144 O157 1.058 . S
O145 C144 1.229 . S
O146 Zn140 1.969 . S
O146 C149 1.267 . S
O147 Zn140 1.965 . S
O147 C158 1.260 . S
O148 Zn141 1.969 . S
O148 C158 1.258 . S
C149 O146 1.267 . S
C149 O150 1.228 . S
O150 C149 1.228 . S
O151 Zn140 2.024 . S
O151 C142 1.058 . S
C152 O153 1.228 . S
C152 O154 1.267 . S
O153 C152 1.228 . S
O154 Zn141 1.969 . S
O154 C152 1.267 . S
O155 Zn141 1.965 . S
O155 C159 1.260 . S
O156 Zn140 1.969 . S
O156 C159 1.258 . S
O157 Zn141 2.024 . S
O157 C144 1.058 . S
C158 O147 1.260 . S
C158 O148 1.258 . S
C159 O155 1.260 . S
C159 O156 1.258 . S
Co160 O163 2.042 . S
Co160 O170 2.264 . S
Co160 O189 2.286 . S
Co160 O190 2.069 . S
Co160 O192 2.015 1_455 S
Co161 O163 2.122 . S
Co161 O169 2.073 . S
Co161 O170 2.327 . S
Co161 O171 1.976 1_455 S
Co162 O163 2.092 1_545 S
Co162 O165 2.082 1_455 S
Co162 O172 2.106 1_445 S
Co162 O173 2.148 . S
Co162 O177 2.116 . S
Co162 O191 2.139 1_445 S
O163 Co160 2.042 . S
O163 Co161 2.122 . S
O163 Co162 2.092 1_565 S
O163 H164 0.980 . S
H164 O163 0.980 . S
O165 Co162 2.082 1_655 S
O165 Co166 2.042 . S
O165 Co167 2.122 . S
O165 H168 0.980 . S
Co166 O165 2.042 . S
Co166 O174 2.286 . S
Co166 O175 2.069 . S
Co166 O176 2.015 1_655 S
Co166 O179 2.264 . S
Co167 O165 2.122 . S
Co167 O178 1.976 1_655 S
Co167 O179 2.327 . S
Co167 O180 2.073 . S
H168 O165 0.980 . S
O169 Co161 2.073 . S
O169 C184 1.245 . S
O170 Co160 2.264 . S
O170 Co161 2.327 . S
O170 C184 1.257 . S
O171 Co161 1.976 1_655 S
O171 C183 1.251 . S
O172 Co162 2.106 1_665 S
O172 C183 1.274 . S
O173 Co162 2.148 . S
O173 C186 1.246 . S
O174 Co166 2.286 . S
O174 C185 1.259 . S
O175 Co166 2.069 . S
O175 C185 1.289 . S
O176 Co166 2.015 1_455 S
O176 C186 1.257 . S
O177 Co162 2.116 . S
O177 C187 1.274 . S
O178 Co167 1.976 1_455 S
O178 C187 1.251 . S
O179 Co166 2.264 . S
O179 Co167 2.327 . S
O179 C188 1.257 . S
O180 Co167 2.073 . S
O180 C188 1.245 . S
C181 O189 1.259 . S
C181 O190 1.289 . S
C182 O191 1.246 . S
C182 O192 1.257 . S
C183 O171 1.251 . S
C183 O172 1.274 . S
C184 O169 1.245 . S
C184 O170 1.257 . S
C185 O174 1.259 . S
C185 O175 1.289 . S
C186 O173 1.246 . S
C186 O176 1.257 . S
C187 O177 1.274 . S
C187 O178 1.251 . S
C188 O179 1.257 . S
C188 O180 1.245 . S
O189 Co160 2.286 . S
O189 C181 1.259 . S
O190 Co160 2.069 . S
O190 C181 1.289 . S
O191 Co162 2.139 1_665 S
O191 C182 1.246 . S
O192 Co160 2.015 1_655 S
O192 C182 1.257 . S
Co193 O196 2.042 1_556 S
Co193 O203 2.264 1_556 S
Co193 O222 2.286 . S
Co193 O223 2.069 . S
Co193 O225 2.015 . S
Co194 O196 2.122 . S
Co194 O202 2.073 . S
Co194 O203 2.327 . S
Co194 O204 1.976 . S
Co195 O196 2.085 1_545 S
Co195 O198 2.088 1_554 S
Co195 O205 2.111 1_545 S
Co195 O206 2.145 . S
Co195 O210 2.112 1_554 S
Co195 O224 2.142 1_544 S
O196 Co193 2.042 1_554 S
O196 Co194 2.122 . S
O196 Co195 2.085 1_565 S
O196 H197 0.980 . S
H197 O196 0.980 . S
O198 Co195 2.088 1_556 S
O198 Co199 2.042 1_556 S
O198 Co200 2.122 . S
O198 H201 0.980 . S
Co199 O198 2.042 1_554 S
Co199 O207 2.286 . S
Co199 O208 2.069 . S
Co199 O209 2.015 . S
Co199 O212 2.264 1_554 S
Co200 O198 2.122 . S
Co200 O211 1.976 . S
Co200 O212 2.327 . S
Co200 O213 2.073 . S
H201 O198 0.980 . S
O202 Co194 2.073 . S
O202 C217 1.245 . S
O203 Co193 2.264 1_554 S
O203 Co194 2.327 . S
O203 C217 1.257 . S
O204 Co194 1.976 . S
O204 C216 1.251 . S
O205 Co195 2.111 1_565 S
O205 C216 1.274 . S
O206 Co195 2.145 . S
O206 C219 1.246 . S
O207 Co199 2.286 . S
O207 C218 1.259 . S
O208 Co199 2.069 . S
O208 C218 1.289 . S
O209 Co199 2.015 . S
O209 C219 1.257 . S
O210 Co195 2.112 1_556 S
O210 C220 1.274 . S
O211 Co200 1.976 . S
O211 C220 1.251 . S
O212 Co199 2.264 1_556 S
O212 Co200 2.327 . S
O212 C221 1.257 . S
O213 Co200 2.073 . S
O213 C221 1.245 . S
C214 O222 1.259 . S
C214 O223 1.289 . S
C215 O224 1.246 . S
C215 O225 1.257 . S
C216 O204 1.251 . S
C216 O205 1.274 . S
C217 O202 1.245 . S
C217 O203 1.257 . S
C218 O207 1.259 . S
C218 O208 1.289 . S
C219 O206 1.246 . S
C219 O209 1.257 . S
C220 O210 1.274 . S
C220 O211 1.251 . S
C221 O212 1.257 . S
C221 O213 1.245 . S
O222 Co193 2.286 . S
O222 C214 1.259 . S
O223 Co193 2.069 . S
O223 C214 1.289 . S
O224 Co195 2.142 1_566 S
O224 C215 1.246 . S
O225 Co193 2.015 . S
O225 C215 1.257 . S
Co226 O229 2.042 1_556 S
Co226 O236 2.264 1_556 S
Co226 O255 2.286 . S
Co226 O256 2.069 . S
Co226 O258 2.015 1_455 S
Co227 O229 2.122 . S
Co227 O235 2.073 . S
Co227 O236 2.327 . S
Co227 O237 1.976 1_455 S
Co228 O229 2.094 . S
Co228 O231 2.080 1_454 S
Co228 O238 2.107 1_455 S
Co228 O239 2.147 . S
Co228 O243 2.116 1_554 S
Co228 O257 2.140 1_454 S
O229 Co226 2.042 1_554 S
O229 Co227 2.122 . S
O229 Co228 2.094 . S
O229 H230 0.980 . S
H230 O229 0.980 . S
O231 Co228 2.080 1_656 S
O231 Co232 2.042 1_556 S
O231 Co233 2.122 . S
O231 H234 0.980 . S
Co232 O231 2.042 1_554 S
Co232 O240 2.286 . S
Co232 O241 2.069 . S
Co232 O242 2.015 1_655 S
Co232 O245 2.264 1_554 S
Co233 O231 2.122 . S
Co233 O244 1.976 1_655 S
Co233 O245 2.327 . S
Co233 O246 2.073 . S
H234 O231 0.980 . S
O235 Co227 2.073 . S
O235 C250 1.245 . S
O236 Co226 2.264 1_554 S
O236 Co227 2.327 . S
O236 C250 1.257 . S
O237 Co227 1.976 1_655 S
O237 C249 1.251 . S
O238 Co228 2.107 1_655 S
O238 C249 1.274 . S
O239 Co228 2.147 . S
O239 C252 1.246 . S
O240 Co232 2.286 . S
O240 C251 1.259 . S
O241 Co232 2.069 . S
O241 C251 1.289 . S
O242 Co232 2.015 1_455 S
O242 C252 1.257 . S
O243 Co228 2.116 1_556 S
O243 C253 1.274 . S
O244 Co233 1.976 1_455 S
O244 C253 1.251 . S
O245 Co232 2.264 1_556 S
O245 Co233 2.327 . S
O245 C254 1.257 . S
O246 Co233 2.073 . S
O246 C254 1.245 . S
C247 O255 1.259 . S
C247 O256 1.289 . S
C248 O257 1.246 . S
C248 O258 1.257 . S
C249 O237 1.251 . S
C249 O238 1.274 . S
C250 O235 1.245 . S
C250 O236 1.257 . S
C251 O240 1.259 . S
C251 O241 1.289 . S
C252 O239 1.246 . S
C252 O242 1.257 . S
C253 O243 1.274 . S
C253 O244 1.251 . S
C254 O245 1.257 . S
C254 O246 1.245 . S
O255 Co226 2.286 . S
O255 C247 1.259 . S
O256 Co226 2.069 . S
O256 C247 1.289 . S
O257 Co228 2.140 1_656 S
O257 C248 1.246 . S
O258 Co226 2.015 1_655 S
O258 C248 1.257 . S
Co259 O262 2.042 1_556 S
Co259 O269 2.264 1_556 S
Co259 O288 2.286 . S
Co259 O289 2.069 . S
Co259 O291 2.015 . S
Co260 O262 2.122 . S
Co260 O268 2.073 . S
Co260 O269 2.327 . S
Co260 O270 1.976 . S
Co261 O262 2.087 . S
Co261 O264 2.087 1_554 S
Co261 O271 2.111 . S
Co261 O272 2.143 . S
Co261 O276 2.111 1_554 S
Co261 O290 2.143 1_554 S
O262 Co259 2.042 1_554 S
O262 Co260 2.122 . S
O262 Co261 2.087 . S
O262 H263 0.980 . S
H263 O262 0.980 . S
O264 Co261 2.087 1_556 S
O264 Co265 2.042 1_556 S
O264 Co266 2.122 . S
O264 H267 0.980 . S
Co265 O264 2.042 1_554 S
Co265 O273 2.286 . S
Co265 O274 2.069 . S
Co265 O275 2.015 . S
Co265 O278 2.264 1_554 S
Co266 O264 2.122 . S
Co266 O277 1.976 . S
Co266 O278 2.327 . S
Co266 O279 2.073 . S
H267 O264 0.980 . S
O268 Co260 2.073 . S
O268 C283 1.245 . S
O269 Co259 2.264 1_554 S
O269 Co260 2.327 . S
O269 C283 1.257 . S
O270 Co260 1.976 . S
O270 C282 1.251 . S
O271 Co261 2.111 . S
O271 C282 1.274 . S
O272 Co261 2.143 . S
O272 C285 1.246 . S
O273 Co265 2.286 . S
O273 C284 1.259 . S
O274 Co265 2.069 . S
O274 C284 1.289 . S
O275 Co265 2.015 . S
O275 C285 1.257 . S
O276 Co261 2.111 1_556 S
O276 C286 1.274 . S
O277 Co266 1.976 . S
O277 C286 1.251 . S
O278 Co265 2.264 1_556 S
O278 Co266 2.327 . S
O278 C287 1.257 . S
O279 Co266 2.073 . S
O279 C287 1.245 . S
C280 O288 1.259 . S
C280 O289 1.289 . S
C281 O290 1.246 . S
C281 O291 1.257 . S
C282 O270 1.251 . S
C282 O271 1.274 . S
C283 O268 1.245 . S
C283 O269 1.257 . S
C284 O273 1.259 . S
C284 O274 1.289 . S
C285 O272 1.246 . S
C285 O275 1.257 . S
C286 O276 1.274 . S
C286 O277 1.251 . S
C287 O278 1.257 . S
C287 O279 1.245 . S
O288 Co259 2.286 . S
O288 C280 1.259 . S
O289 Co259 2.069 . S
O289 C280 1.289 . S
O290 Co261 2.143 1_556 S
O290 C281 1.246 . S
O291 Co259 2.015 . S
O291 C281 1.257 . S
Co292 O295 2.042 . S
Co292 O302 2.264 . S
Co292 O321 2.286 . S
Co292 O322 2.069 . S
Co292 O324 2.015 . S
Co293 O295 2.122 . S
Co293 O301 2.073 . S
Co293 O302 2.327 . S
Co293 O303 1.976 . S
Co294 O295 2.094 . S
Co294 O297 2.080 1_455 S
Co294 O304 2.114 . S
Co294 O305 2.139 1_455 S
Co294 O309 2.109 1_455 S
Co294 O323 2.148 . S
O295 Co292 2.042 . S
O295 Co293 2.122 . S
O295 Co294 2.094 . S
O295 H296 0.980 . S
H296 O295 0.980 . S
O297 Co294 2.080 1_655 S
O297 Co298 2.042 . S
O297 Co299 2.122 . S
O297 H300 0.980 . S
Co298 O297 2.042 . S
Co298 O306 2.286 . S
Co298 O307 2.069 . S
Co298 O308 2.015 . S
Co298 O311 2.264 . S
Co299 O297 2.122 . S
Co299 O310 1.976 . S
Co299 O311 2.327 . S
Co299 O312 2.073 . S
H300 O297 0.980 . S
O301 Co293 2.073 . S
O301 C316 1.245 . S
O302 Co292 2.264 . S
O302 Co293 2.327 . S
O302 C316 1.257 . S
O303 Co293 1.976 . S
O303 C315 1.251 . S
O304 Co294 2.114 . S
O304 C315 1.274 . S
O305 Co294 2.139 1_655 S
O305 C318 1.246 . S
O306 Co298 2.286 . S
O306 C317 1.259 . S
O307 Co298 2.069 . S
O307 C317 1.289 . S
O308 Co298 2.015 . S
O308 C318 1.257 . S
O309 Co294 2.109 1_655 S
O309 C319 1.274 . S
O310 Co299 1.976 . S
O310 C319 1.251 . S
O311 Co298 2.264 . S
O311 Co299 2.327 . S
O311 C320 1.257 . S
O312 Co299 2.073 . S
O312 C320 1.245 . S
C313 O321 1.259 . S
C313 O322 1.289 . S
C314 O323 1.246 . S
C314 O324 1.257 . S
C315 O303 1.251 . S
C315 O304 1.274 . S
C316 O301 1.245 . S
C316 O302 1.257 . S
C317 O306 1.259 . S
C317 O307 1.289 . S
C318 O305 1.246 . S
C318 O308 1.257 . S
C319 O309 1.274 . S
C319 O310 1.251 . S
C320 O311 1.257 . S
C320 O312 1.245 . S
O321 Co292 2.286 . S
O321 C313 1.259 . S
O322 Co292 2.069 . S
O322 C313 1.289 . S
O323 Co294 2.148 . S
O323 C314 1.246 . S
O324 Co292 2.015 . S
O324 C314 1.257 . S
Co325 O328 2.042 . S
Co325 O335 2.264 . S
Co325 O354 2.286 . S
Co325 O355 2.069 . S
Co325 O357 2.015 1_565 S
Co326 O328 2.122 . S
Co326 O334 2.073 . S
Co326 O335 2.327 . S
Co326 O336 1.976 1_565 S
Co327 O328 2.085 1_545 S
Co327 O330 2.088 . S
Co327 O337 2.112 . S
Co327 O338 2.143 1_545 S
Co327 O342 2.110 1_545 S
Co327 O356 2.144 . S
O328 Co325 2.042 . S
O328 Co326 2.122 . S
O328 Co327 2.085 1_565 S
O328 H329 0.980 . S
H329 O328 0.980 . S
O330 Co327 2.088 . S
O330 Co331 2.042 . S
O330 Co332 2.122 . S
O330 H333 0.980 . S
Co331 O330 2.042 . S
Co331 O339 2.286 . S
Co331 O340 2.069 . S
Co331 O341 2.015 1_545 S
Co331 O344 2.264 . S
Co332 O330 2.122 . S
Co332 O343 1.976 1_545 S
Co332 O344 2.327 . S
Co332 O345 2.073 . S
H333 O330 0.980 . S
O334 Co326 2.073 . S
O334 C349 1.245 . S
O335 Co325 2.264 . S
O335 Co326 2.327 . S
O335 C349 1.257 . S
O336 Co326 1.976 1_545 S
O336 C348 1.251 . S
O337 Co327 2.112 . S
O337 C348 1.274 . S
O338 Co327 2.143 1_565 S
O338 C351 1.246 . S
O339 Co331 2.286 . S
O339 C350 1.259 . S
O340 Co331 2.069 . S
O340 C350 1.289 . S
O341 Co331 2.015 1_565 S
O341 C351 1.257 . S
O342 Co327 2.110 1_565 S
O342 C352 1.274 . S
O343 Co332 1.976 1_565 S
O343 C352 1.251 . S
O344 Co331 2.264 . S
O344 Co332 2.327 . S
O344 C353 1.257 . S
O345 Co332 2.073 . S
O345 C353 1.245 . S
C346 O354 1.259 . S
C346 O355 1.289 . S
C347 O356 1.246 . S
C347 O357 1.257 . S
C348 O336 1.251 . S
C348 O337 1.274 . S
C349 O334 1.245 . S
C349 O335 1.257 . S
C350 O339 1.259 . S
C350 O340 1.289 . S
C351 O338 1.246 . S
C351 O341 1.257 . S
C352 O342 1.274 . S
C352 O343 1.251 . S
C353 O344 1.257 . S
C353 O345 1.245 . S
O354 Co325 2.286 . S
O354 C346 1.259 . S
O355 Co325 2.069 . S
O355 C346 1.289 . S
O356 Co327 2.144 . S
O356 C347 1.246 . S
O357 Co325 2.015 1_545 S
O357 C347 1.257 . S
H358 C376 0.951 . S
H359 C378 0.951 . S
H360 C380 0.950 . S
H361 C381 0.950 . S
H362 C383 0.950 . S
H363 C386 0.950 . S
H364 C387 0.950 . S
H365 C389 0.950 . S
H366 C390 0.950 . S
H367 C391 0.951 . S
H368 C393 0.951 . S
H369 C395 0.950 . S
H370 C396 0.950 . S
H371 C398 0.950 . S
H372 C401 0.950 . S
H373 C402 0.950 . S
H374 C404 0.950 . S
H375 C405 0.950 . S
C376 H358 0.951 . S
C376 C377 1.366 . S
C376 C378 1.388 . S
C377 C376 1.366 . S
C377 C381 1.385 . S
C378 H359 0.951 . S
C378 C376 1.388 . S
C378 C379 1.366 . S
C379 C378 1.366 . S
C379 C380 1.414 . S
C379 C382 1.499 . S
C380 H360 0.950 . S
C380 C379 1.414 . S
C380 C381 1.374 . S
C381 H361 0.950 . S
C381 C377 1.385 . S
C381 C380 1.374 . S
C382 C379 1.499 . S
C382 C383 1.373 . S
C382 C384 1.389 . S
C383 H362 0.950 . S
C383 C382 1.373 . S
C383 C399 1.377 . S
C384 C382 1.389 . S
C384 C385 1.524 . S
C384 C398 1.377 . S
C385 C384 1.524 . S
C385 C386 1.397 . S
C385 C390 1.363 . S
C386 H363 0.950 . S
C386 C385 1.397 . S
C386 C387 1.334 . S
C387 H364 0.950 . S
C387 C386 1.334 . S
C387 C388 1.287 . S
C388 C387 1.287 . S
C388 C389 1.524 . S
C388 H407 0.913 . S
C389 H365 0.950 . S
C389 C388 1.524 . S
C389 C390 1.415 . S
C390 H366 0.950 . S
C390 C385 1.363 . S
C390 C389 1.415 . S
C391 H367 0.951 . S
C391 C392 1.366 . S
C391 C393 1.388 . S
C392 C391 1.366 . S
C392 C396 1.385 . S
C393 H368 0.951 . S
C393 C391 1.388 . S
C393 C394 1.366 . S
C394 C393 1.366 . S
C394 C395 1.414 . S
C394 C397 1.499 . S
C395 H369 0.950 . S
C395 C394 1.414 . S
C395 C396 1.374 . S
C396 H370 0.950 . S
C396 C392 1.385 . S
C396 C395 1.374 . S
C397 C394 1.499 . S
C397 C398 1.373 . S
C397 C399 1.389 . S
C398 H371 0.950 . S
C398 C384 1.377 . S
C398 C397 1.373 . S
C399 C383 1.377 . S
C399 C397 1.389 . S
C399 C400 1.524 . S
C400 C399 1.524 . S
C400 C401 1.397 . S
C400 C405 1.363 . S
C401 H372 0.950 . S
C401 C400 1.397 . S
C401 C402 1.334 . S
C402 H373 0.950 . S
C402 C401 1.334 . S
C402 C403 1.287 . S
C403 C402 1.287 . S
C403 C404 1.524 . S
C403 H406 0.999 . S
C404 H374 0.950 . S
C404 C403 1.524 . S
C404 C405 1.415 . S
C405 H375 0.950 . S
C405 C400 1.363 . S
C405 C404 1.415 . S
H406 C403 0.999 . S
H407 C388 0.913 . S
H408 C426 0.951 . S
H409 C428 0.951 . S
H410 C430 0.950 . S
H411 C431 0.950 . S
H412 C433 0.950 . S
H413 C436 0.950 . S
H414 C437 0.950 . S
H415 C439 0.950 . S
H416 C440 0.950 . S
H417 C441 0.951 . S
H418 C443 0.951 . S
H419 C445 0.950 . S
H420 C446 0.950 . S
H421 C448 0.950 . S
H422 C451 0.950 . S
H423 C452 0.950 . S
H424 C454 0.950 . S
H425 C455 0.950 . S
C426 H408 0.951 . S
C426 C427 1.366 . S
C426 C428 1.388 . S
C427 C426 1.366 . S
C427 C431 1.385 . S
C428 H409 0.951 . S
C428 C426 1.388 . S
C428 C429 1.366 . S
C429 C428 1.366 . S
C429 C430 1.414 . S
C429 C432 1.499 . S
C430 H410 0.950 . S
C430 C429 1.414 . S
C430 C431 1.374 . S
C431 H411 0.950 . S
C431 C427 1.385 . S
C431 C430 1.374 . S
C432 C429 1.499 . S
C432 C433 1.373 . S
C432 C434 1.389 . S
C433 H412 0.950 . S
C433 C432 1.373 . S
C433 C449 1.377 . S
C434 C432 1.389 . S
C434 C435 1.524 . S
C434 C448 1.377 . S
C435 C434 1.524 . S
C435 C436 1.397 . S
C435 C440 1.363 . S
C436 H413 0.950 . S
C436 C435 1.397 . S
C436 C437 1.334 . S
C437 H414 0.950 . S
C437 C436 1.334 . S
C437 C438 1.287 . S
C438 C437 1.287 . S
C438 C439 1.524 . S
C438 H457 0.913 . S
C439 H415 0.950 . S
C439 C438 1.524 . S
C439 C440 1.415 . S
C440 H416 0.950 . S
C440 C435 1.363 . S
C440 C439 1.415 . S
C441 H417 0.951 . S
C441 C442 1.366 . S
C441 C443 1.388 . S
C442 C441 1.366 . S
C442 C446 1.385 . S
C443 H418 0.951 . S
C443 C441 1.388 . S
C443 C444 1.366 . S
C444 C443 1.366 . S
C444 C445 1.414 . S
C444 C447 1.499 . S
C445 H419 0.950 . S
C445 C444 1.414 . S
C445 C446 1.374 . S
C446 H420 0.950 . S
C446 C442 1.385 . S
C446 C445 1.374 . S
C447 C444 1.499 . S
C447 C448 1.373 . S
C447 C449 1.389 . S
C448 H421 0.950 . S
C448 C434 1.377 . S
C448 C447 1.373 . S
C449 C433 1.377 . S
C449 C447 1.389 . S
C449 C450 1.524 . S
C450 C449 1.524 . S
C450 C451 1.397 . S
C450 C455 1.363 . S
C451 H422 0.950 . S
C451 C450 1.397 . S
C451 C452 1.334 . S
C452 H423 0.950 . S
C452 C451 1.334 . S
C452 C453 1.287 . S
C453 C452 1.287 . S
C453 C454 1.524 . S
C453 H456 0.999 . S
C454 H424 0.950 . S
C454 C453 1.524 . S
C454 C455 1.415 . S
C455 H425 0.950 . S
C455 C450 1.363 . S
C455 C454 1.415 . S
H456 C453 0.999 . S
H457 C438 0.913 . S
H458 C476 0.951 . S
H459 C478 0.951 . S
H460 C480 0.950 . S
H461 C481 0.950 . S
H462 C483 0.950 . S
H463 C486 0.950 . S
H464 C487 0.950 . S
H465 C489 0.950 . S
H466 C490 0.950 . S
H467 C491 0.951 . S
H468 C493 0.951 . S
H469 C495 0.950 . S
H470 C496 0.950 . S
H471 C498 0.950 . S
H472 C501 0.950 . S
H473 C502 0.950 . S
H474 C504 0.950 . S
H475 C505 0.950 . S
C476 H458 0.951 . S
C476 C477 1.366 . S
C476 C478 1.388 . S
C477 C476 1.366 . S
C477 C481 1.385 . S
C478 H459 0.951 . S
C478 C476 1.388 . S
C478 C479 1.366 . S
C479 C478 1.366 . S
C479 C480 1.414 . S
C479 C482 1.499 . S
C480 H460 0.950 . S
C480 C479 1.414 . S
C480 C481 1.374 . S
C481 H461 0.950 . S
C481 C477 1.385 . S
C481 C480 1.374 . S
C482 C479 1.499 . S
C482 C483 1.373 . S
C482 C484 1.389 . S
C483 H462 0.950 . S
C483 C482 1.373 . S
C483 C499 1.377 . S
C484 C482 1.389 . S
C484 C485 1.524 . S
C484 C498 1.377 . S
C485 C484 1.524 . S
C485 C486 1.397 . S
C485 C490 1.363 . S
C486 H463 0.950 . S
C486 C485 1.397 . S
C486 C487 1.334 . S
C487 H464 0.950 . S
C487 C486 1.334 . S
C487 C488 1.287 . S
C488 C487 1.287 . S
C488 C489 1.524 . S
C488 H507 0.913 . S
C489 H465 0.950 . S
C489 C488 1.524 . S
C489 C490 1.415 . S
C490 H466 0.950 . S
C490 C485 1.363 . S
C490 C489 1.415 . S
C491 H467 0.951 . S
C491 C492 1.366 . S
C491 C493 1.388 . S
C492 C491 1.366 . S
C492 C496 1.385 . S
C493 H468 0.951 . S
C493 C491 1.388 . S
C493 C494 1.366 . S
C494 C493 1.366 . S
C494 C495 1.414 . S
C494 C497 1.499 . S
C495 H469 0.950 . S
C495 C494 1.414 . S
C495 C496 1.374 . S
C496 H470 0.950 . S
C496 C492 1.385 . S
C496 C495 1.374 . S
C497 C494 1.499 . S
C497 C498 1.373 . S
C497 C499 1.389 . S
C498 H471 0.950 . S
C498 C484 1.377 . S
C498 C497 1.373 . S
C499 C483 1.377 . S
C499 C497 1.389 . S
C499 C500 1.524 . S
C500 C499 1.524 . S
C500 C501 1.397 . S
C500 C505 1.363 . S
C501 H472 0.950 . S
C501 C500 1.397 . S
C501 C502 1.334 . S
C502 H473 0.950 . S
C502 C501 1.334 . S
C502 C503 1.287 . S
C503 C502 1.287 . S
C503 C504 1.524 . S
C503 H506 0.999 . S
C504 H474 0.950 . S
C504 C503 1.524 . S
C504 C505 1.415 . S
C505 H475 0.950 . S
C505 C500 1.363 . S
C505 C504 1.415 . S
H506 C503 0.999 . S
H507 C488 0.913 . S
H508 C526 0.951 . S
H509 C528 0.951 . S
H510 C530 0.950 . S
H511 C531 0.950 . S
H512 C533 0.950 . S
H513 C536 0.950 . S
H514 C537 0.950 . S
H515 C539 0.950 . S
H516 C540 0.950 . S
H517 C541 0.951 . S
H518 C543 0.951 . S
H519 C545 0.950 . S
H520 C546 0.950 . S
H521 C548 0.950 . S
H522 C551 0.950 . S
H523 C552 0.950 . S
H524 C554 0.950 . S
H525 C555 0.950 . S
C526 H508 0.951 . S
C526 C527 1.366 . S
C526 C528 1.388 . S
C527 C526 1.366 . S
C527 C531 1.385 . S
C528 H509 0.951 . S
C528 C526 1.388 . S
C528 C529 1.366 . S
C529 C528 1.366 . S
C529 C530 1.414 . S
C529 C532 1.499 . S
C530 H510 0.950 . S
C530 C529 1.414 . S
C530 C531 1.374 . S
C531 H511 0.950 . S
C531 C527 1.385 . S
C531 C530 1.374 . S
C532 C529 1.499 . S
C532 C533 1.373 . S
C532 C534 1.389 . S
C533 H512 0.950 . S
C533 C532 1.373 . S
C533 C549 1.377 . S
C534 C532 1.389 . S
C534 C535 1.524 . S
C534 C548 1.377 . S
C535 C534 1.524 . S
C535 C536 1.397 . S
C535 C540 1.363 . S
C536 H513 0.950 . S
C536 C535 1.397 . S
C536 C537 1.334 . S
C537 H514 0.950 . S
C537 C536 1.334 . S
C537 C538 1.287 . S
C538 C537 1.287 . S
C538 C539 1.524 . S
C538 H557 0.913 . S
C539 H515 0.950 . S
C539 C538 1.524 . S
C539 C540 1.415 . S
C540 H516 0.950 . S
C540 C535 1.363 . S
C540 C539 1.415 . S
C541 H517 0.951 . S
C541 C542 1.366 . S
C541 C543 1.388 . S
C542 C541 1.366 . S
C542 C546 1.385 . S
C543 H518 0.951 . S
C543 C541 1.388 . S
C543 C544 1.366 . S
C544 C543 1.366 . S
C544 C545 1.414 . S
C544 C547 1.499 . S
C545 H519 0.950 . S
C545 C544 1.414 . S
C545 C546 1.374 . S
C546 H520 0.950 . S
C546 C542 1.385 . S
C546 C545 1.374 . S
C547 C544 1.499 . S
C547 C548 1.373 . S
C547 C549 1.389 . S
C548 H521 0.950 . S
C548 C534 1.377 . S
C548 C547 1.373 . S
C549 C533 1.377 . S
C549 C547 1.389 . S
C549 C550 1.524 . S
C550 C549 1.524 . S
C550 C551 1.397 . S
C550 C555 1.363 . S
C551 H522 0.950 . S
C551 C550 1.397 . S
C551 C552 1.334 . S
C552 H523 0.950 . S
C552 C551 1.334 . S
C552 C553 1.287 . S
C553 C552 1.287 . S
C553 C554 1.524 . S
C553 H556 1.011 . S
C554 H524 0.950 . S
C554 C553 1.524 . S
C554 C555 1.415 . S
C555 H525 0.950 . S
C555 C550 1.363 . S
C555 C554 1.415 . S
H556 C553 1.011 . S
H557 C538 0.913 . S
H558 C576 0.951 . S
H559 C578 0.951 . S
H560 C580 0.950 . S
H561 C581 0.950 . S
H562 C583 0.950 . S
H563 C586 0.950 . S
H564 C587 0.950 . S
H565 C589 0.950 . S
H566 C590 0.950 . S
H567 C591 0.951 . S
H568 C593 0.951 . S
H569 C595 0.950 . S
H570 C596 0.950 . S
H571 C598 0.950 . S
H572 C601 0.950 . S
H573 C602 0.950 . S
H574 C604 0.950 . S
H575 C605 0.950 . S
C576 H558 0.951 . S
C576 C577 1.366 . S
C576 C578 1.388 . S
C577 C576 1.366 . S
C577 C581 1.385 . S
C578 H559 0.951 . S
C578 C576 1.388 . S
C578 C579 1.366 . S
C579 C578 1.366 . S
C579 C580 1.414 . S
C579 C582 1.499 . S
C580 H560 0.950 . S
C580 C579 1.414 . S
C580 C581 1.374 . S
C581 H561 0.950 . S
C581 C577 1.385 . S
C581 C580 1.374 . S
C582 C579 1.499 . S
C582 C583 1.373 . S
C582 C584 1.389 . S
C583 H562 0.950 . S
C583 C582 1.373 . S
C583 C599 1.377 . S
C584 C582 1.389 . S
C584 C585 1.524 . S
C584 C598 1.377 . S
C585 C584 1.524 . S
C585 C586 1.397 . S
C585 C590 1.363 . S
C586 H563 0.950 . S
C586 C585 1.397 . S
C586 C587 1.334 . S
C587 H564 0.950 . S
C587 C586 1.334 . S
C587 C588 1.287 . S
C588 C587 1.287 . S
C588 C589 1.524 . S
C588 H607 0.913 . S
C589 H565 0.950 . S
C589 C588 1.524 . S
C589 C590 1.415 . S
C590 H566 0.950 . S
C590 C585 1.363 . S
C590 C589 1.415 . S
C591 H567 0.951 . S
C591 C592 1.366 . S
C591 C593 1.388 . S
C592 C591 1.366 . S
C592 C596 1.385 . S
C593 H568 0.951 . S
C593 C591 1.388 . S
C593 C594 1.366 . S
C594 C593 1.366 . S
C594 C595 1.414 . S
C594 C597 1.499 . S
C595 H569 0.950 . S
C595 C594 1.414 . S
C595 C596 1.374 . S
C596 H570 0.950 . S
C596 C592 1.385 . S
C596 C595 1.374 . S
C597 C594 1.499 . S
C597 C598 1.373 . S
C597 C599 1.389 . S
C598 H571 0.950 . S
C598 C584 1.377 . S
C598 C597 1.373 . S
C599 C583 1.377 . S
C599 C597 1.389 . S
C599 C600 1.524 . S
C600 C599 1.524 . S
C600 C601 1.397 . S
C600 C605 1.363 . S
C601 H572 0.950 . S
C601 C600 1.397 . S
C601 C602 1.334 . S
C602 H573 0.950 . S
C602 C601 1.334 . S
C602 C603 1.287 . S
C603 C602 1.287 . S
C603 C604 1.524 . S
C603 H606 0.999 . S
C604 H574 0.950 . S
C604 C603 1.524 . S
C604 C605 1.415 . S
C605 H575 0.950 . S
C605 C600 1.363 . S
C605 C604 1.415 . S
H606 C603 0.999 . S
H607 C588 0.913 . S
H608 C626 0.951 . S
H609 C628 0.951 . S
H610 C630 0.950 . S
H611 C631 0.950 . S
H612 C633 0.950 . S
H613 C636 0.950 . S
H614 C637 0.950 . S
H615 C639 0.950 . S
H616 C640 0.950 . S
H617 C641 0.951 . S
H618 C643 0.951 . S
H619 C645 0.950 . S
H620 C646 0.950 . S
H621 C648 0.950 . S
H622 C651 0.950 . S
H623 C652 0.950 . S
H624 C654 0.950 . S
H625 C655 0.950 . S
C626 H608 0.951 . S
C626 C627 1.366 . S
C626 C628 1.388 . S
C627 C626 1.366 . S
C627 C631 1.385 . S
C628 H609 0.951 . S
C628 C626 1.388 . S
C628 C629 1.366 . S
C629 C628 1.366 . S
C629 C630 1.414 . S
C629 C632 1.499 . S
C630 H610 0.950 . S
C630 C629 1.414 . S
C630 C631 1.374 . S
C631 H611 0.950 . S
C631 C627 1.385 . S
C631 C630 1.374 . S
C632 C629 1.499 . S
C632 C633 1.373 . S
C632 C634 1.389 . S
C633 H612 0.950 . S
C633 C632 1.373 . S
C633 C649 1.377 . S
C634 C632 1.389 . S
C634 C635 1.524 . S
C634 C648 1.377 . S
C635 C634 1.524 . S
C635 C636 1.397 . S
C635 C640 1.363 . S
C636 H613 0.950 . S
C636 C635 1.397 . S
C636 C637 1.334 . S
C637 H614 0.950 . S
C637 C636 1.334 . S
C637 C638 1.287 . S
C638 C637 1.287 . S
C638 C639 1.524 . S
C638 H657 0.913 . S
C639 H615 0.950 . S
C639 C638 1.524 . S
C639 C640 1.415 . S
C640 H616 0.950 . S
C640 C635 1.363 . S
C640 C639 1.415 . S
C641 H617 0.951 . S
C641 C642 1.366 . S
C641 C643 1.388 . S
C642 C641 1.366 . S
C642 C646 1.385 . S
C643 H618 0.951 . S
C643 C641 1.388 . S
C643 C644 1.366 . S
C644 C643 1.366 . S
C644 C645 1.414 . S
C644 C647 1.499 . S
C645 H619 0.950 . S
C645 C644 1.414 . S
C645 C646 1.374 . S
C646 H620 0.950 . S
C646 C642 1.385 . S
C646 C645 1.374 . S
C647 C644 1.499 . S
C647 C648 1.373 . S
C647 C649 1.389 . S
C648 H621 0.950 . S
C648 C634 1.377 . S
C648 C647 1.373 . S
C649 C633 1.377 . S
C649 C647 1.389 . S
C649 C650 1.524 . S
C650 C649 1.524 . S
C650 C651 1.397 . S
C650 C655 1.363 . S
C651 H622 0.950 . S
C651 C650 1.397 . S
C651 C652 1.334 . S
C652 H623 0.950 . S
C652 C651 1.334 . S
C652 C653 1.287 . S
C653 C652 1.287 . S
C653 C654 1.524 . S
C653 H656 0.999 . S
C654 H624 0.950 . S
C654 C653 1.524 . S
C654 C655 1.415 . S
C655 H625 0.950 . S
C655 C650 1.363 . S
C655 C654 1.415 . S
H656 C653 0.999 . S
H657 C638 0.913 . S
H658 C676 0.951 . S
H659 C678 0.951 . S
H660 C680 0.950 . S
H661 C681 0.950 . S
H662 C683 0.950 . S
H663 C686 0.950 . S
H664 C687 0.950 . S
H665 C689 0.950 . S
H666 C690 0.950 . S
H667 C691 0.951 . S
H668 C693 0.951 . S
H669 C695 0.950 . S
H670 C696 0.950 . S
H671 C698 0.950 . S
H672 C701 0.950 . S
H673 C702 0.950 . S
H674 C704 0.950 . S
H675 C705 0.950 . S
C676 H658 0.951 . S
C676 C677 1.366 . S
C676 C678 1.388 . S
C677 C676 1.366 . S
C677 C681 1.385 . S
C678 H659 0.951 . S
C678 C676 1.388 . S
C678 C679 1.366 . S
C679 C678 1.366 . S
C679 C680 1.414 . S
C679 C682 1.499 . S
C680 H660 0.950 . S
C680 C679 1.414 . S
C680 C681 1.374 . S
C681 H661 0.950 . S
C681 C677 1.385 . S
C681 C680 1.374 . S
C682 C679 1.499 . S
C682 C683 1.373 . S
C682 C684 1.389 . S
C683 H662 0.950 . S
C683 C682 1.373 . S
C683 C699 1.377 . S
C684 C682 1.389 . S
C684 C685 1.524 . S
C684 C698 1.377 . S
C685 C684 1.524 . S
C685 C686 1.397 . S
C685 C690 1.363 . S
C686 H663 0.950 . S
C686 C685 1.397 . S
C686 C687 1.334 . S
C687 H664 0.950 . S
C687 C686 1.334 . S
C687 C688 1.287 . S
C688 C687 1.287 . S
C688 C689 1.524 . S
C688 H707 0.913 . S
C689 H665 0.950 . S
C689 C688 1.524 . S
C689 C690 1.415 . S
C690 H666 0.950 . S
C690 C685 1.363 . S
C690 C689 1.415 . S
C691 H667 0.951 . S
C691 C692 1.366 . S
C691 C693 1.388 . S
C692 C691 1.366 . S
C692 C696 1.385 . S
C693 H668 0.951 . S
C693 C691 1.388 . S
C693 C694 1.366 . S
C694 C693 1.366 . S
C694 C695 1.414 . S
C694 C697 1.499 . S
C695 H669 0.950 . S
C695 C694 1.414 . S
C695 C696 1.374 . S
C696 H670 0.950 . S
C696 C692 1.385 . S
C696 C695 1.374 . S
C697 C694 1.499 . S
C697 C698 1.373 . S
C697 C699 1.389 . S
C698 H671 0.950 . S
C698 C684 1.377 . S
C698 C697 1.373 . S
C699 C683 1.377 . S
C699 C697 1.389 . S
C699 C700 1.524 . S
C700 C699 1.524 . S
C700 C701 1.397 . S
C700 C705 1.363 . S
C701 H672 0.950 . S
C701 C700 1.397 . S
C701 C702 1.334 . S
C702 H673 0.950 . S
C702 C701 1.334 . S
C702 C703 1.287 . S
C703 C702 1.287 . S
C703 C704 1.524 . S
C703 H706 0.999 . S
C704 H674 0.950 . S
C704 C703 1.524 . S
C704 C705 1.415 . S
C705 H675 0.950 . S
C705 C700 1.363 . S
C705 C704 1.415 . S
H706 C703 0.999 . S
H707 C688 0.913 . S
H708 C726 0.951 . S
H709 C728 0.951 . S
H710 C730 0.950 . S
H711 C731 0.950 . S
H712 C733 0.950 . S
H713 C736 0.950 . S
H714 C737 0.950 . S
H715 C739 0.950 . S
H716 C740 0.950 . S
H717 C741 0.951 . S
H718 C743 0.951 . S
H719 C745 0.950 . S
H720 C746 0.950 . S
H721 C748 0.950 . S
H722 C751 0.950 . S
H723 C752 0.950 . S
H724 C754 0.950 . S
H725 C755 0.950 . S
C726 H708 0.951 . S
C726 C727 1.366 . S
C726 C728 1.388 . S
C727 C726 1.366 . S
C727 C731 1.385 . S
C728 H709 0.951 . S
C728 C726 1.388 . S
C728 C729 1.366 . S
C729 C728 1.366 . S
C729 C730 1.414 . S
C729 C732 1.499 . S
C730 H710 0.950 . S
C730 C729 1.414 . S
C730 C731 1.374 . S
C731 H711 0.950 . S
C731 C727 1.385 . S
C731 C730 1.374 . S
C732 C729 1.499 . S
C732 C733 1.373 . S
C732 C734 1.389 . S
C733 H712 0.950 . S
C733 C732 1.373 . S
C733 C749 1.377 . S
C734 C732 1.389 . S
C734 C735 1.524 . S
C734 C748 1.377 . S
C735 C734 1.524 . S
C735 C736 1.397 . S
C735 C740 1.363 . S
C736 H713 0.950 . S
C736 C735 1.397 . S
C736 C737 1.334 . S
C737 H714 0.950 . S
C737 C736 1.334 . S
C737 C738 1.287 . S
C738 C737 1.287 . S
C738 C739 1.524 . S
C738 H757 0.913 . S
C739 H715 0.950 . S
C739 C738 1.524 . S
C739 C740 1.415 . S
C740 H716 0.950 . S
C740 C735 1.363 . S
C740 C739 1.415 . S
C741 H717 0.951 . S
C741 C742 1.366 . S
C741 C743 1.388 . S
C742 C741 1.366 . S
C742 C746 1.385 . S
C743 H718 0.951 . S
C743 C741 1.388 . S
C743 C744 1.366 . S
C744 C743 1.366 . S
C744 C745 1.414 . S
C744 C747 1.499 . S
C745 H719 0.950 . S
C745 C744 1.414 . S
C745 C746 1.374 . S
C746 H720 0.950 . S
C746 C742 1.385 . S
C746 C745 1.374 . S
C747 C744 1.499 . S
C747 C748 1.373 . S
C747 C749 1.389 . S
C748 H721 0.950 . S
C748 C734 1.377 . S
C748 C747 1.373 . S
C749 C733 1.377 . S
C749 C747 1.389 . S
C749 C750 1.524 . S
C750 C749 1.524 . S
C750 C751 1.397 . S
C750 C755 1.363 . S
C751 H722 0.950 . S
C751 C750 1.397 . S
C751 C752 1.334 . S
C752 H723 0.950 . S
C752 C751 1.334 . S
C752 C753 1.287 . S
C753 C752 1.287 . S
C753 C754 1.524 . S
C753 H756 0.999 . S
C754 H724 0.950 . S
C754 C753 1.524 . S
C754 C755 1.415 . S
C755 H725 0.950 . S
C755 C750 1.363 . S
C755 C754 1.415 . S
H756 C753 0.999 . S
H757 C738 0.913 . S
H758 C776 0.951 . S
H759 C778 0.951 . S
H760 C780 0.950 . S
H761 C781 0.950 . S
H762 C783 0.950 . S
H763 C786 0.950 . S
H764 C787 0.950 . S
H765 C789 0.950 . S
H766 C790 0.950 . S
H767 C791 0.951 . S
H768 C793 0.951 . S
H769 C795 0.950 . S
H770 C796 0.950 . S
H771 C798 0.950 . S
H772 C801 0.950 . S
H773 C802 0.950 . S
H774 C804 0.950 . S
H775 C805 0.950 . S
C776 H758 0.951 . S
C776 C777 1.366 . S
C776 C778 1.388 . S
C777 C776 1.366 . S
C777 C781 1.385 . S
C778 H759 0.951 . S
C778 C776 1.388 . S
C778 C779 1.366 . S
C779 C778 1.366 . S
C779 C780 1.414 . S
C779 C782 1.499 . S
C780 H760 0.950 . S
C780 C779 1.414 . S
C780 C781 1.374 . S
C781 H761 0.950 . S
C781 C777 1.385 . S
C781 C780 1.374 . S
C782 C779 1.499 . S
C782 C783 1.373 . S
C782 C784 1.389 . S
C783 H762 0.950 . S
C783 C782 1.373 . S
C783 C799 1.377 . S
C784 C782 1.389 . S
C784 C785 1.524 . S
C784 C798 1.377 . S
C785 C784 1.524 . S
C785 C786 1.397 . S
C785 C790 1.363 . S
C786 H763 0.950 . S
C786 C785 1.397 . S
C786 C787 1.334 . S
C787 H764 0.950 . S
C787 C786 1.334 . S
C787 C788 1.287 . S
C788 C787 1.287 . S
C788 C789 1.524 . S
C788 H807 0.913 . S
C789 H765 0.950 . S
C789 C788 1.524 . S
C789 C790 1.415 . S
C790 H766 0.950 . S
C790 C785 1.363 . S
C790 C789 1.415 . S
C791 H767 0.951 . S
C791 C792 1.366 . S
C791 C793 1.388 . S
C792 C791 1.366 . S
C792 C796 1.385 . S
C793 H768 0.951 . S
C793 C791 1.388 . S
C793 C794 1.366 . S
C794 C793 1.366 . S
C794 C795 1.414 . S
C794 C797 1.499 . S
C795 H769 0.950 . S
C795 C794 1.414 . S
C795 C796 1.374 . S
C796 H770 0.950 . S
C796 C792 1.385 . S
C796 C795 1.374 . S
C797 C794 1.499 . S
C797 C798 1.373 . S
C797 C799 1.389 . S
C798 H771 0.950 . S
C798 C784 1.377 . S
C798 C797 1.373 . S
C799 C783 1.377 . S
C799 C797 1.389 . S
C799 C800 1.524 . S
C800 C799 1.524 . S
C800 C801 1.397 . S
C800 C805 1.363 . S
C801 H772 0.950 . S
C801 C800 1.397 . S
C801 C802 1.334 . S
C802 H773 0.950 . S
C802 C801 1.334 . S
C802 C803 1.287 . S
C803 C802 1.287 . S
C803 C804 1.524 . S
C803 H806 0.999 . S
C804 H774 0.950 . S
C804 C803 1.524 . S
C804 C805 1.415 . S
C805 H775 0.950 . S
C805 C800 1.363 . S
C805 C804 1.415 . S
H806 C803 0.999 . S
H807 C788 0.913 . S
H808 C826 0.951 . S
H809 C828 0.951 . S
H810 C830 0.950 . S
H811 C831 0.950 . S
H812 C833 0.950 . S
H813 C836 0.950 . S
H814 C837 0.950 . S
H815 C839 0.950 . S
H816 C840 0.950 . S
H817 C841 0.951 . S
H818 C843 0.951 . S
H819 C845 0.950 . S
H820 C846 0.950 . S
H821 C848 0.950 . S
H822 C851 0.950 . S
H823 C852 0.950 . S
H824 C854 0.950 1_556 S
H825 C855 0.950 . S
C826 H808 0.951 . S
C826 C827 1.366 . S
C826 C828 1.388 . S
C827 C826 1.366 . S
C827 C831 1.385 . S
C828 H809 0.951 . S
C828 C826 1.388 . S
C828 C829 1.366 . S
C829 C828 1.366 . S
C829 C830 1.414 . S
C829 C832 1.499 . S
C830 H810 0.950 . S
C830 C829 1.414 . S
C830 C831 1.374 . S
C831 H811 0.950 . S
C831 C827 1.385 . S
C831 C830 1.374 . S
C832 C829 1.499 . S
C832 C833 1.373 . S
C832 C834 1.389 . S
C833 H812 0.950 . S
C833 C832 1.373 . S
C833 C849 1.377 . S
C834 C832 1.389 . S
C834 C835 1.524 . S
C834 C848 1.377 . S
C835 C834 1.524 . S
C835 C836 1.397 . S
C835 C840 1.363 . S
C836 H813 0.950 . S
C836 C835 1.397 . S
C836 C837 1.334 . S
C837 H814 0.950 . S
C837 C836 1.334 . S
C837 C838 1.287 . S
C838 C837 1.287 . S
C838 C839 1.524 . S
C838 H857 0.913 . S
C839 H815 0.950 . S
C839 C838 1.524 . S
C839 C840 1.415 . S
C840 H816 0.950 . S
C840 C835 1.363 . S
C840 C839 1.415 . S
C841 H817 0.951 . S
C841 C842 1.366 . S
C841 C843 1.388 . S
C842 C841 1.366 . S
C842 C846 1.385 . S
C843 H818 0.951 . S
C843 C841 1.388 . S
C843 C844 1.366 . S
C844 C843 1.366 . S
C844 C845 1.414 . S
C844 C847 1.499 . S
C845 H819 0.950 . S
C845 C844 1.414 . S
C845 C846 1.374 . S
C846 H820 0.950 . S
C846 C842 1.385 . S
C846 C845 1.374 . S
C847 C844 1.499 . S
C847 C848 1.373 . S
C847 C849 1.389 . S
C848 H821 0.950 . S
C848 C834 1.377 . S
C848 C847 1.373 . S
C849 C833 1.377 . S
C849 C847 1.389 . S
C849 C850 1.524 . S
C850 C849 1.524 . S
C850 C851 1.397 . S
C850 C855 1.363 . S
C851 H822 0.950 . S
C851 C850 1.397 . S
C851 C852 1.334 . S
C852 H823 0.950 . S
C852 C851 1.334 . S
C852 C853 1.287 . S
C853 C852 1.287 . S
C853 C854 1.524 . S
C853 H856 0.999 . S
C854 H824 0.950 1_554 S
C854 C853 1.524 . S
C854 C855 1.415 . S
C855 H825 0.950 . S
C855 C850 1.363 . S
C855 C854 1.415 . S
H856 C853 0.999 . S
H857 C838 0.913 . S
H858 C876 0.951 . S
H859 C878 0.951 . S
H860 C880 0.950 . S
H861 C881 0.950 . S
H862 C883 0.950 . S
H863 C886 0.950 . S
H864 C887 0.950 . S
H865 C889 0.950 . S
H866 C890 0.950 . S
H867 C891 0.951 . S
H868 C893 0.951 . S
H869 C895 0.950 . S
H870 C896 0.950 . S
H871 C898 0.950 . S
H872 C901 0.950 . S
H873 C902 0.950 1_556 S
H874 C904 0.950 . S
H875 C905 0.950 . S
C876 H858 0.951 . S
C876 C877 1.366 . S
C876 C878 1.388 . S
C877 C876 1.366 . S
C877 C881 1.385 . S
C878 H859 0.951 . S
C878 C876 1.388 . S
C878 C879 1.366 . S
C879 C878 1.366 . S
C879 C880 1.414 . S
C879 C882 1.499 . S
C880 H860 0.950 . S
C880 C879 1.414 . S
C880 C881 1.374 . S
C881 H861 0.950 . S
C881 C877 1.385 . S
C881 C880 1.374 . S
C882 C879 1.499 . S
C882 C883 1.373 . S
C882 C884 1.389 . S
C883 H862 0.950 . S
C883 C882 1.373 . S
C883 C899 1.377 . S
C884 C882 1.389 . S
C884 C885 1.524 . S
C884 C898 1.377 . S
C885 C884 1.524 . S
C885 C886 1.397 . S
C885 C890 1.363 . S
C886 H863 0.950 . S
C886 C885 1.397 . S
C886 C887 1.334 . S
C887 H864 0.950 . S
C887 C886 1.334 . S
C887 C888 1.287 . S
C888 C887 1.287 . S
C888 C889 1.524 . S
C888 H907 0.913 . S
C889 H865 0.950 . S
C889 C888 1.524 . S
C889 C890 1.415 . S
C890 H866 0.950 . S
C890 C885 1.363 . S
C890 C889 1.415 . S
C891 H867 0.951 . S
C891 C892 1.366 . S
C891 C893 1.388 . S
C892 C891 1.366 . S
C892 C896 1.385 . S
C893 H868 0.951 . S
C893 C891 1.388 . S
C893 C894 1.366 . S
C894 C893 1.366 . S
C894 C895 1.414 . S
C894 C897 1.499 . S
C895 H869 0.950 . S
C895 C894 1.414 . S
C895 C896 1.374 . S
C896 H870 0.950 . S
C896 C892 1.385 . S
C896 C895 1.374 . S
C897 C894 1.499 . S
C897 C898 1.373 . S
C897 C899 1.389 . S
C898 H871 0.950 . S
C898 C884 1.377 . S
C898 C897 1.373 . S
C899 C883 1.377 . S
C899 C897 1.389 . S
C899 C900 1.524 . S
C900 C899 1.524 . S
C900 C901 1.397 . S
C900 C905 1.363 . S
C901 H872 0.950 . S
C901 C900 1.397 . S
C901 C902 1.334 . S
C902 H873 0.950 1_554 S
C902 C901 1.334 . S
C902 C903 1.287 . S
C903 C902 1.287 . S
C903 C904 1.524 . S
C903 H906 0.984 1_554 S
C904 H874 0.950 . S
C904 C903 1.524 . S
C904 C905 1.415 . S
C905 H875 0.950 . S
C905 C900 1.363 . S
C905 C904 1.415 . S
H906 C903 0.984 1_556 S
H907 C888 0.913 . S
H908 C926 0.951 . S
H909 C928 0.951 . S
H910 C930 0.950 . S
H911 C931 0.950 . S
H912 C933 0.950 . S
H913 C936 0.950 . S
H914 C937 0.950 . S
H915 C939 0.950 . S
H916 C940 0.950 . S
H917 C941 0.951 . S
H918 C943 0.951 . S
H919 C945 0.950 . S
H920 C946 0.950 . S
H921 C948 0.950 . S
H922 C951 0.950 . S
H923 C952 0.950 . S
H924 C954 0.950 . S
H925 C955 0.950 . S
C926 H908 0.951 . S
C926 C927 1.366 . S
C926 C928 1.388 . S
C927 C926 1.366 . S
C927 C931 1.385 . S
C928 H909 0.951 . S
C928 C926 1.388 . S
C928 C929 1.366 . S
C929 C928 1.366 . S
C929 C930 1.414 . S
C929 C932 1.499 . S
C930 H910 0.950 . S
C930 C929 1.414 . S
C930 C931 1.374 . S
C931 H911 0.950 . S
C931 C927 1.385 . S
C931 C930 1.374 . S
C932 C929 1.499 . S
C932 C933 1.373 . S
C932 C934 1.389 . S
C933 H912 0.950 . S
C933 C932 1.373 . S
C933 C949 1.377 . S
C934 C932 1.389 . S
C934 C935 1.524 . S
C934 C948 1.377 . S
C935 C934 1.524 . S
C935 C936 1.397 . S
C935 C940 1.363 . S
C936 H913 0.950 . S
C936 C935 1.397 . S
C936 C937 1.334 . S
C937 H914 0.950 . S
C937 C936 1.334 . S
C937 C938 1.287 . S
C938 C937 1.287 . S
C938 C939 1.524 . S
C938 H957 0.913 . S
C939 H915 0.950 . S
C939 C938 1.524 . S
C939 C940 1.415 . S
C940 H916 0.950 . S
C940 C935 1.363 . S
C940 C939 1.415 . S
C941 H917 0.951 . S
C941 C942 1.366 . S
C941 C943 1.388 . S
C942 C941 1.366 . S
C942 C946 1.385 . S
C943 H918 0.951 . S
C943 C941 1.388 . S
C943 C944 1.366 . S
C944 C943 1.366 . S
C944 C945 1.414 . S
C944 C947 1.499 . S
C945 H919 0.950 . S
C945 C944 1.414 . S
C945 C946 1.374 . S
C946 H920 0.950 . S
C946 C942 1.385 . S
C946 C945 1.374 . S
C947 C944 1.499 . S
C947 C948 1.373 . S
C947 C949 1.389 . S
C948 H921 0.950 . S
C948 C934 1.377 . S
C948 C947 1.373 . S
C949 C933 1.377 . S
C949 C947 1.389 . S
C949 C950 1.524 . S
C950 C949 1.524 . S
C950 C951 1.397 . S
C950 C955 1.363 . S
C951 H922 0.950 . S
C951 C950 1.397 . S
C951 C952 1.334 . S
C952 H923 0.950 . S
C952 C951 1.334 . S
C952 C953 1.287 . S
C953 C952 1.287 . S
C953 C954 1.524 . S
C953 H956 0.999 . S
C954 H924 0.950 . S
C954 C953 1.524 . S
C954 C955 1.415 . S
C955 H925 0.950 . S
C955 C950 1.363 . S
C955 C954 1.415 . S
H956 C953 0.999 . S
H957 C938 0.913 . S
H958 C976 0.951 . S
H959 C978 0.951 . S
H960 C980 0.950 . S
H961 C981 0.950 . S
H962 C983 0.950 . S
H963 C986 0.950 . S
H964 C987 0.950 . S
H965 C989 0.950 . S
H966 C990 0.950 . S
H967 C991 0.951 . S
H968 C993 0.951 . S
H969 C995 0.950 . S
H970 C996 0.950 . S
H971 C998 0.950 . S
H972 C1001 0.950 . S
H973 C1002 0.950 . S
H974 C1004 0.950 . S
H975 C1005 0.950 . S
C976 H958 0.951 . S
C976 C977 1.366 . S
C976 C978 1.388 . S
C977 C976 1.366 . S
C977 C981 1.385 . S
C978 H959 0.951 . S
C978 C976 1.388 . S
C978 C979 1.366 . S
C979 C978 1.366 . S
C979 C980 1.414 . S
C979 C982 1.499 . S
C980 H960 0.950 . S
C980 C979 1.414 . S
C980 C981 1.374 . S
C981 H961 0.950 . S
C981 C977 1.385 . S
C981 C980 1.374 . S
C982 C979 1.499 . S
C982 C983 1.373 . S
C982 C984 1.389 . S
C983 H962 0.950 . S
C983 C982 1.373 . S
C983 C999 1.377 . S
C984 C982 1.389 . S
C984 C985 1.524 . S
C984 C998 1.377 . S
C985 C984 1.524 . S
C985 C986 1.397 . S
C985 C990 1.363 . S
C986 H963 0.950 . S
C986 C985 1.397 . S
C986 C987 1.334 . S
C987 H964 0.950 . S
C987 C986 1.334 . S
C987 C988 1.287 . S
C988 C987 1.287 . S
C988 C989 1.524 . S
C988 H1007 0.913 . S
C989 H965 0.950 . S
C989 C988 1.524 . S
C989 C990 1.415 . S
C990 H966 0.950 . S
C990 C985 1.363 . S
C990 C989 1.415 . S
C991 H967 0.951 . S
C991 C992 1.366 . S
C991 C993 1.388 . S
C992 C991 1.366 . S
C992 C996 1.385 . S
C993 H968 0.951 . S
C993 C991 1.388 . S
C993 C994 1.366 . S
C994 C993 1.366 . S
C994 C995 1.414 . S
C994 C997 1.499 . S
C995 H969 0.950 . S
C995 C994 1.414 . S
C995 C996 1.374 . S
C996 H970 0.950 . S
C996 C992 1.385 . S
C996 C995 1.374 . S
C997 C994 1.499 . S
C997 C998 1.373 . S
C997 C999 1.389 . S
C998 H971 0.950 . S
C998 C984 1.377 . S
C998 C997 1.373 . S
C999 C983 1.377 . S
C999 C997 1.389 . S
C999 C1000 1.524 . S
C1000 C999 1.524 . S
C1000 C1001 1.397 . S
C1000 C1005 1.363 . S
C1001 H972 0.950 . S
C1001 C1000 1.397 . S
C1001 C1002 1.334 . S
C1002 H973 0.950 . S
C1002 C1001 1.334 . S
C1002 C1003 1.287 . S
C1003 C1002 1.287 . S
C1003 C1004 1.524 . S
C1003 H1006 0.999 . S
C1004 H974 0.950 . S
C1004 C1003 1.524 . S
C1004 C1005 1.415 . S
C1005 H975 0.950 . S
C1005 C1000 1.363 . S
C1005 C1004 1.415 . S
H1006 C1003 0.999 . S
H1007 C988 0.913 . S
H1008 C1026 0.951 . S
H1009 C1028 0.951 . S
H1010 C1030 0.950 . S
H1011 C1031 0.950 . S
H1012 C1033 0.950 . S
H1013 C1036 0.950 . S
H1014 C1037 0.950 . S
H1015 C1039 0.950 1_554 S
H1016 C1040 0.950 . S
H1017 C1041 0.951 . S
H1018 C1043 0.951 . S
H1019 C1045 0.950 . S
H1020 C1046 0.950 . S
H1021 C1048 0.950 . S
H1022 C1051 0.950 . S
H1023 C1052 0.950 . S
H1024 C1054 0.950 . S
H1025 C1055 0.950 . S
C1026 H1008 0.951 . S
C1026 C1027 1.366 . S
C1026 C1028 1.388 . S
C1027 C1026 1.366 . S
C1027 C1031 1.385 . S
C1028 H1009 0.951 . S
C1028 C1026 1.388 . S
C1028 C1029 1.366 . S
C1029 C1028 1.366 . S
C1029 C1030 1.414 . S
C1029 C1032 1.499 . S
C1030 H1010 0.950 . S
C1030 C1029 1.414 . S
C1030 C1031 1.374 . S
C1031 H1011 0.950 . S
C1031 C1027 1.385 . S
C1031 C1030 1.374 . S
C1032 C1029 1.499 . S
C1032 C1033 1.373 . S
C1032 C1034 1.389 . S
C1033 H1012 0.950 . S
C1033 C1032 1.373 . S
C1033 C1049 1.377 . S
C1034 C1032 1.389 . S
C1034 C1035 1.524 . S
C1034 C1048 1.377 . S
C1035 C1034 1.524 . S
C1035 C1036 1.397 . S
C1035 C1040 1.363 . S
C1036 H1013 0.950 . S
C1036 C1035 1.397 . S
C1036 C1037 1.334 . S
C1037 H1014 0.950 . S
C1037 C1036 1.334 . S
C1037 C1038 1.287 . S
C1038 C1037 1.287 . S
C1038 C1039 1.524 . S
C1038 H1057 0.913 . S
C1039 H1015 0.950 1_556 S
C1039 C1038 1.524 . S
C1039 C1040 1.415 . S
C1040 H1016 0.950 . S
C1040 C1035 1.363 . S
C1040 C1039 1.415 . S
C1041 H1017 0.951 . S
C1041 C1042 1.366 . S
C1041 C1043 1.388 . S
C1042 C1041 1.366 . S
C1042 C1046 1.385 . S
C1043 H1018 0.951 . S
C1043 C1041 1.388 . S
C1043 C1044 1.366 . S
C1044 C1043 1.366 . S
C1044 C1045 1.414 . S
C1044 C1047 1.499 . S
C1045 H1019 0.950 . S
C1045 C1044 1.414 . S
C1045 C1046 1.374 . S
C1046 H1020 0.950 . S
C1046 C1042 1.385 . S
C1046 C1045 1.374 . S
C1047 C1044 1.499 . S
C1047 C1048 1.373 . S
C1047 C1049 1.389 . S
C1048 H1021 0.950 . S
C1048 C1034 1.377 . S
C1048 C1047 1.373 . S
C1049 C1033 1.377 . S
C1049 C1047 1.389 . S
C1049 C1050 1.524 . S
C1050 C1049 1.524 . S
C1050 C1051 1.397 . S
C1050 C1055 1.363 . S
C1051 H1022 0.950 . S
C1051 C1050 1.397 . S
C1051 C1052 1.334 . S
C1052 H1023 0.950 . S
C1052 C1051 1.334 . S
C1052 C1053 1.287 . S
C1053 C1052 1.287 . S
C1053 C1054 1.524 . S
C1053 H1056 0.999 . S
C1054 H1024 0.950 . S
C1054 C1053 1.524 . S
C1054 C1055 1.415 . S
C1055 H1025 0.950 . S
C1055 C1050 1.363 . S
C1055 C1054 1.415 . S
H1056 C1053 0.999 . S
H1057 C1038 0.913 . S
H1058 C1076 0.951 . S
H1059 C1078 0.951 . S
H1060 C1080 0.950 . S
H1061 C1081 0.950 . S
H1062 C1083 0.950 . S
H1063 C1086 0.950 . S
H1064 C1087 0.950 . S
H1065 C1089 0.950 . S
H1066 C1090 0.950 . S
H1067 C1091 0.941 1_554 S
H1068 C1093 0.951 . S
H1069 C1095 0.950 . S
H1070 C1096 0.950 . S
H1071 C1098 0.950 . S
H1072 C1101 0.950 . S
H1073 C1102 0.950 . S
H1074 C1104 0.950 . S
H1075 C1105 0.950 . S
C1076 H1058 0.951 . S
C1076 C1077 1.366 . S
C1076 C1078 1.388 . S
C1077 C1076 1.366 . S
C1077 C1081 1.385 . S
C1078 H1059 0.951 . S
C1078 C1076 1.388 . S
C1078 C1079 1.366 . S
C1079 C1078 1.366 . S
C1079 C1080 1.414 . S
C1079 C1082 1.499 . S
C1080 H1060 0.950 . S
C1080 C1079 1.414 . S
C1080 C1081 1.374 . S
C1081 H1061 0.950 . S
C1081 C1077 1.385 . S
C1081 C1080 1.374 . S
C1082 C1079 1.499 . S
C1082 C1083 1.373 . S
C1082 C1084 1.389 . S
C1083 H1062 0.950 . S
C1083 C1082 1.373 . S
C1083 C1099 1.377 . S
C1084 C1082 1.389 . S
C1084 C1085 1.524 . S
C1084 C1098 1.377 . S
C1085 C1084 1.524 . S
C1085 C1086 1.397 . S
C1085 C1090 1.363 . S
C1086 H1063 0.950 . S
C1086 C1085 1.397 . S
C1086 C1087 1.334 . S
C1087 H1064 0.950 . S
C1087 C1086 1.334 . S
C1087 C1088 1.287 . S
C1088 C1087 1.287 . S
C1088 C1089 1.524 . S
C1088 H1107 0.913 . S
C1089 H1065 0.950 . S
C1089 C1088 1.524 . S
C1089 C1090 1.415 . S
C1090 H1066 0.950 . S
C1090 C1085 1.363 . S
C1090 C1089 1.415 . S
C1091 H1067 0.941 1_556 S
C1091 C1092 1.366 . S
C1091 C1093 1.388 . S
C1092 C1091 1.366 . S
C1092 C1096 1.385 . S
C1093 H1068 0.951 . S
C1093 C1091 1.388 . S
C1093 C1094 1.366 . S
C1094 C1093 1.366 . S
C1094 C1095 1.414 . S
C1094 C1097 1.499 . S
C1095 H1069 0.950 . S
C1095 C1094 1.414 . S
C1095 C1096 1.374 . S
C1096 H1070 0.950 . S
C1096 C1092 1.385 . S
C1096 C1095 1.374 . S
C1097 C1094 1.499 . S
C1097 C1098 1.373 . S
C1097 C1099 1.389 . S
C1098 H1071 0.950 . S
C1098 C1084 1.377 . S
C1098 C1097 1.373 . S
C1099 C1083 1.377 . S
C1099 C1097 1.389 . S
C1099 C1100 1.524 . S
C1100 C1099 1.524 . S
C1100 C1101 1.397 . S
C1100 C1105 1.363 . S
C1101 H1072 0.950 . S
C1101 C1100 1.397 . S
C1101 C1102 1.334 . S
C1102 H1073 0.950 . S
C1102 C1101 1.334 . S
C1102 C1103 1.287 . S
C1103 C1102 1.287 . S
C1103 C1104 1.524 . S
C1103 H1106 0.999 . S
C1104 H1074 0.950 . S
C1104 C1103 1.524 . S
C1104 C1105 1.415 . S
C1105 H1075 0.950 . S
C1105 C1100 1.363 . S
C1105 C1104 1.415 . S
H1106 C1103 0.999 . S
H1107 C1088 0.913 . S
H1108 C1126 0.951 . S
H1109 C1128 0.951 . S
H1110 C1130 0.950 . S
H1111 C1131 0.950 . S
H1112 C1133 0.950 . S
H1113 C1136 0.950 . S
H1114 C1137 0.950 . S
H1115 C1139 0.950 . S
H1116 C1140 0.950 . S
H1117 C1141 0.951 . S
H1118 C1143 0.951 . S
H1119 C1145 0.950 . S
H1120 C1146 0.950 . S
H1121 C1148 0.950 . S
H1122 C1151 0.950 . S
H1123 C1152 0.950 . S
H1124 C1154 0.950 . S
H1125 C1155 0.950 . S
C1126 H1108 0.951 . S
C1126 C1127 1.366 . S
C1126 C1128 1.388 . S
C1127 C1126 1.366 . S
C1127 C1131 1.385 . S
C1128 H1109 0.951 . S
C1128 C1126 1.388 . S
C1128 C1129 1.366 . S
C1129 C1128 1.366 . S
C1129 C1130 1.414 . S
C1129 C1132 1.499 . S
C1130 H1110 0.950 . S
C1130 C1129 1.414 . S
C1130 C1131 1.374 . S
C1131 H1111 0.950 . S
C1131 C1127 1.385 . S
C1131 C1130 1.374 . S
C1132 C1129 1.499 . S
C1132 C1133 1.373 . S
C1132 C1134 1.389 . S
C1133 H1112 0.950 . S
C1133 C1132 1.373 . S
C1133 C1149 1.377 . S
C1134 C1132 1.389 . S
C1134 C1135 1.524 . S
C1134 C1148 1.377 . S
C1135 C1134 1.524 . S
C1135 C1136 1.397 . S
C1135 C1140 1.363 . S
C1136 H1113 0.950 . S
C1136 C1135 1.397 . S
C1136 C1137 1.334 . S
C1137 H1114 0.950 . S
C1137 C1136 1.334 . S
C1137 C1138 1.287 . S
C1138 C1137 1.287 . S
C1138 C1139 1.524 . S
C1138 H1157 0.913 . S
C1139 H1115 0.950 . S
C1139 C1138 1.524 . S
C1139 C1140 1.415 . S
C1140 H1116 0.950 . S
C1140 C1135 1.363 . S
C1140 C1139 1.415 . S
C1141 H1117 0.951 . S
C1141 C1142 1.366 . S
C1141 C1143 1.388 . S
C1142 C1141 1.366 . S
C1142 C1146 1.385 . S
C1143 H1118 0.951 . S
C1143 C1141 1.388 . S
C1143 C1144 1.366 . S
C1144 C1143 1.366 . S
C1144 C1145 1.414 . S
C1144 C1147 1.499 . S
C1145 H1119 0.950 . S
C1145 C1144 1.414 . S
C1145 C1146 1.374 . S
C1146 H1120 0.950 . S
C1146 C1142 1.385 . S
C1146 C1145 1.374 . S
C1147 C1144 1.499 . S
C1147 C1148 1.373 . S
C1147 C1149 1.389 . S
C1148 H1121 0.950 . S
C1148 C1134 1.377 . S
C1148 C1147 1.373 . S
C1149 C1133 1.377 . S
C1149 C1147 1.389 . S
C1149 C1150 1.524 . S
C1150 C1149 1.524 . S
C1150 C1151 1.397 . S
C1150 C1155 1.363 . S
C1151 H1122 0.950 . S
C1151 C1150 1.397 . S
C1151 C1152 1.334 1_556 S
C1152 H1123 0.950 . S
C1152 C1151 1.334 1_554 S
C1152 C1153 1.287 . S
C1153 C1152 1.287 . S
C1153 C1154 1.524 1_554 S
C1153 H1156 0.999 . S
C1154 H1124 0.950 . S
C1154 C1153 1.524 1_556 S
C1154 C1155 1.415 . S
C1155 H1125 0.950 . S
C1155 C1150 1.363 . S
C1155 C1154 1.415 . S
H1156 C1153 0.999 . S
H1157 C1138 0.913 . S
H1158 C1176 0.951 . S
H1159 C1178 0.951 . S
H1160 C1180 0.950 . S
H1161 C1181 0.950 . S
H1162 C1183 0.950 . S
H1163 C1186 0.950 . S
H1164 C1187 0.950 . S
H1165 C1189 0.950 . S
H1166 C1190 0.950 . S
H1167 C1191 0.951 . S
H1168 C1193 0.951 . S
H1169 C1195 0.950 . S
H1170 C1196 0.950 . S
H1171 C1198 0.950 . S
H1172 C1201 0.950 . S
H1173 C1202 0.950 . S
H1174 C1204 0.950 . S
H1175 C1205 0.950 . S
C1176 H1158 0.951 . S
C1176 C1177 1.366 . S
C1176 C1178 1.388 . S
C1177 C1176 1.366 . S
C1177 C1181 1.385 . S
C1178 H1159 0.951 . S
C1178 C1176 1.388 . S
C1178 C1179 1.366 . S
C1179 C1178 1.366 . S
C1179 C1180 1.414 . S
C1179 C1182 1.499 . S
C1180 H1160 0.950 . S
C1180 C1179 1.414 . S
C1180 C1181 1.374 . S
C1181 H1161 0.950 . S
C1181 C1177 1.385 . S
C1181 C1180 1.374 . S
C1182 C1179 1.499 . S
C1182 C1183 1.373 . S
C1182 C1184 1.389 . S
C1183 H1162 0.950 . S
C1183 C1182 1.373 . S
C1183 C1199 1.377 . S
C1184 C1182 1.389 . S
C1184 C1185 1.524 . S
C1184 C1198 1.377 . S
C1185 C1184 1.524 . S
C1185 C1186 1.397 . S
C1185 C1190 1.363 . S
C1186 H1163 0.950 . S
C1186 C1185 1.397 . S
C1186 C1187 1.334 . S
C1187 H1164 0.950 . S
C1187 C1186 1.334 . S
C1187 C1188 1.287 . S
C1188 C1187 1.287 . S
C1188 C1189 1.524 . S
C1188 H1207 0.913 . S
C1189 H1165 0.950 . S
C1189 C1188 1.524 . S
C1189 C1190 1.415 . S
C1190 H1166 0.950 . S
C1190 C1185 1.363 . S
C1190 C1189 1.415 . S
C1191 H1167 0.951 . S
C1191 C1192 1.366 . S
C1191 C1193 1.388 . S
C1192 C1191 1.366 . S
C1192 C1196 1.385 . S
C1193 H1168 0.951 . S
C1193 C1191 1.388 . S
C1193 C1194 1.366 . S
C1194 C1193 1.366 . S
C1194 C1195 1.414 . S
C1194 C1197 1.499 . S
C1195 H1169 0.950 . S
C1195 C1194 1.414 . S
C1195 C1196 1.374 . S
C1196 H1170 0.950 . S
C1196 C1192 1.385 . S
C1196 C1195 1.374 . S
C1197 C1194 1.499 . S
C1197 C1198 1.373 . S
C1197 C1199 1.389 . S
C1198 H1171 0.950 . S
C1198 C1184 1.377 . S
C1198 C1197 1.373 . S
C1199 C1183 1.377 . S
C1199 C1197 1.389 . S
C1199 C1200 1.524 . S
C1200 C1199 1.524 . S
C1200 C1201 1.397 . S
C1200 C1205 1.363 . S
C1201 H1172 0.950 . S
C1201 C1200 1.397 . S
C1201 C1202 1.334 1_554 S
C1202 H1173 0.950 . S
C1202 C1201 1.334 1_556 S
C1202 C1203 1.287 1_556 S
C1203 C1202 1.287 1_554 S
C1203 C1204 1.524 . S
C1203 H1206 0.999 1_554 S
C1204 H1174 0.950 . S
C1204 C1203 1.524 . S
C1204 C1205 1.415 . S
C1205 H1175 0.950 . S
C1205 C1200 1.363 . S
C1205 C1204 1.415 . S
H1206 C1203 0.999 1_556 S
H1207 C1188 0.913 . S
H1208 C1226 0.951 . S
H1209 C1228 0.951 . S
H1210 C1230 0.950 . S
H1211 C1231 0.950 . S
H1212 C1233 0.950 . S
H1213 C1236 0.950 . S
H1214 C1237 0.950 . S
H1215 C1239 0.950 . S
H1216 C1240 0.950 . S
H1217 C1241 0.951 . S
H1218 C1243 0.951 . S
H1219 C1245 0.950 . S
H1220 C1246 0.950 . S
H1221 C1248 0.950 . S
H1222 C1251 0.950 . S
H1223 C1252 0.950 . S
H1224 C1254 0.950 . S
H1225 C1255 0.950 . S
C1226 H1208 0.951 . S
C1226 C1227 1.366 . S
C1226 C1228 1.388 . S
C1227 C1226 1.366 . S
C1227 C1231 1.385 . S
C1228 H1209 0.951 . S
C1228 C1226 1.388 . S
C1228 C1229 1.366 . S
C1229 C1228 1.366 . S
C1229 C1230 1.414 . S
C1229 C1232 1.499 . S
C1230 H1210 0.950 . S
C1230 C1229 1.414 . S
C1230 C1231 1.374 . S
C1231 H1211 0.950 . S
C1231 C1227 1.385 . S
C1231 C1230 1.374 . S
C1232 C1229 1.499 . S
C1232 C1233 1.373 . S
C1232 C1234 1.389 . S
C1233 H1212 0.950 . S
C1233 C1232 1.373 . S
C1233 C1249 1.377 . S
C1234 C1232 1.389 . S
C1234 C1235 1.524 . S
C1234 C1248 1.377 . S
C1235 C1234 1.524 . S
C1235 C1236 1.397 . S
C1235 C1240 1.363 . S
C1236 H1213 0.950 . S
C1236 C1235 1.397 . S
C1236 C1237 1.334 . S
C1237 H1214 0.950 . S
C1237 C1236 1.334 . S
C1237 C1238 1.287 . S
C1238 C1237 1.287 . S
C1238 C1239 1.524 . S
C1238 H1257 0.913 . S
C1239 H1215 0.950 . S
C1239 C1238 1.524 . S
C1239 C1240 1.415 . S
C1240 H1216 0.950 . S
C1240 C1235 1.363 . S
C1240 C1239 1.415 . S
C1241 H1217 0.951 . S
C1241 C1242 1.366 . S
C1241 C1243 1.388 . S
C1242 C1241 1.366 . S
C1242 C1246 1.385 . S
C1243 H1218 0.951 . S
C1243 C1241 1.388 . S
C1243 C1244 1.366 . S
C1244 C1243 1.366 . S
C1244 C1245 1.414 . S
C1244 C1247 1.499 . S
C1245 H1219 0.950 . S
C1245 C1244 1.414 . S
C1245 C1246 1.374 . S
C1246 H1220 0.950 . S
C1246 C1242 1.385 . S
C1246 C1245 1.374 . S
C1247 C1244 1.499 . S
C1247 C1248 1.373 . S
C1247 C1249 1.389 . S
C1248 H1221 0.950 . S
C1248 C1234 1.377 . S
C1248 C1247 1.373 . S
C1249 C1233 1.377 . S
C1249 C1247 1.389 . S
C1249 C1250 1.524 . S
C1250 C1249 1.524 . S
C1250 C1251 1.397 . S
C1250 C1255 1.363 . S
C1251 H1222 0.950 . S
C1251 C1250 1.397 . S
C1251 C1252 1.334 . S
C1252 H1223 0.950 . S
C1252 C1251 1.334 . S
C1252 C1253 1.287 . S
C1253 C1252 1.287 . S
C1253 C1254 1.524 . S
C1253 H1256 0.999 . S
C1254 H1224 0.950 . S
C1254 C1253 1.524 . S
C1254 C1255 1.415 . S
C1255 H1225 0.950 . S
C1255 C1250 1.363 . S
C1255 C1254 1.415 . S
H1256 C1253 0.999 . S
H1257 C1238 0.913 . S
H1258 C1276 0.951 . S
H1259 C1278 0.951 . S
H1260 C1280 0.950 . S
H1261 C1281 0.950 . S
H1262 C1283 0.950 . S
H1263 C1286 0.950 . S
H1264 C1287 0.950 . S
H1265 C1289 0.950 . S
H1266 C1290 0.950 . S
H1267 C1291 0.951 . S
H1268 C1293 0.951 . S
H1269 C1295 0.950 . S
H1270 C1296 0.950 . S
H1271 C1298 0.950 . S
H1272 C1301 0.950 . S
H1273 C1302 0.950 . S
H1274 C1304 0.950 . S
H1275 C1305 0.950 . S
C1276 H1258 0.951 . S
C1276 C1277 1.366 . S
C1276 C1278 1.388 . S
C1277 C1276 1.366 . S
C1277 C1281 1.385 . S
C1278 H1259 0.951 . S
C1278 C1276 1.388 . S
C1278 C1279 1.366 . S
C1279 C1278 1.366 . S
C1279 C1280 1.414 . S
C1279 C1282 1.499 . S
C1280 H1260 0.950 . S
C1280 C1279 1.414 . S
C1280 C1281 1.374 . S
C1281 H1261 0.950 . S
C1281 C1277 1.385 . S
C1281 C1280 1.374 . S
C1282 C1279 1.499 . S
C1282 C1283 1.373 . S
C1282 C1284 1.389 . S
C1283 H1262 0.950 . S
C1283 C1282 1.373 . S
C1283 C1299 1.377 . S
C1284 C1282 1.389 . S
C1284 C1285 1.524 . S
C1284 C1298 1.377 . S
C1285 C1284 1.524 . S
C1285 C1286 1.397 . S
C1285 C1290 1.363 . S
C1286 H1263 0.950 . S
C1286 C1285 1.397 . S
C1286 C1287 1.334 . S
C1287 H1264 0.950 . S
C1287 C1286 1.334 . S
C1287 C1288 1.287 . S
C1288 C1287 1.287 . S
C1288 C1289 1.524 . S
C1288 H1307 0.913 . S
C1289 H1265 0.950 . S
C1289 C1288 1.524 . S
C1289 C1290 1.415 . S
C1290 H1266 0.950 . S
C1290 C1285 1.363 . S
C1290 C1289 1.415 . S
C1291 H1267 0.951 . S
C1291 C1292 1.366 . S
C1291 C1293 1.388 . S
C1292 C1291 1.366 . S
C1292 C1296 1.385 . S
C1293 H1268 0.951 . S
C1293 C1291 1.388 . S
C1293 C1294 1.366 . S
C1294 C1293 1.366 . S
C1294 C1295 1.414 . S
C1294 C1297 1.499 . S
C1295 H1269 0.950 . S
C1295 C1294 1.414 . S
C1295 C1296 1.374 . S
C1296 H1270 0.950 . S
C1296 C1292 1.385 . S
C1296 C1295 1.374 . S
C1297 C1294 1.499 . S
C1297 C1298 1.373 . S
C1297 C1299 1.389 . S
C1298 H1271 0.950 . S
C1298 C1284 1.377 . S
C1298 C1297 1.373 . S
C1299 C1283 1.377 . S
C1299 C1297 1.389 . S
C1299 C1300 1.524 . S
C1300 C1299 1.524 . S
C1300 C1301 1.397 . S
C1300 C1305 1.363 . S
C1301 H1272 0.950 . S
C1301 C1300 1.397 . S
C1301 C1302 1.334 . S
C1302 H1273 0.950 . S
C1302 C1301 1.334 . S
C1302 C1303 1.287 . S
C1303 C1302 1.287 . S
C1303 C1304 1.524 . S
C1303 H1306 0.999 . S
C1304 H1274 0.950 . S
C1304 C1303 1.524 . S
C1304 C1305 1.415 . S
C1305 H1275 0.950 . S
C1305 C1300 1.363 . S
C1305 C1304 1.415 . S
H1306 C1303 0.999 . S
H1307 C1288 0.913 . S
H1308 C1326 0.951 . S
H1309 C1328 0.951 . S
H1310 C1330 0.950 . S
H1311 C1331 0.950 . S
H1312 C1333 0.950 . S
H1313 C1336 0.950 . S
H1314 C1337 0.950 . S
H1315 C1339 0.950 . S
H1316 C1340 0.950 . S
H1317 C1341 0.951 . S
H1318 C1343 0.951 . S
H1319 C1345 0.950 . S
H1320 C1346 0.950 . S
H1321 C1348 0.950 . S
H1322 C1351 0.950 . S
H1323 C1352 0.950 . S
H1324 C1354 0.950 . S
H1325 C1355 0.950 . S
C1326 H1308 0.951 . S
C1326 C1327 1.366 . S
C1326 C1328 1.388 . S
C1327 C1326 1.366 . S
C1327 C1331 1.385 . S
C1328 H1309 0.951 . S
C1328 C1326 1.388 . S
C1328 C1329 1.366 . S
C1329 C1328 1.366 . S
C1329 C1330 1.414 . S
C1329 C1332 1.499 . S
C1330 H1310 0.950 . S
C1330 C1329 1.414 . S
C1330 C1331 1.374 . S
C1331 H1311 0.950 . S
C1331 C1327 1.385 . S
C1331 C1330 1.374 . S
C1332 C1329 1.499 . S
C1332 C1333 1.373 . S
C1332 C1334 1.389 . S
C1333 H1312 0.950 . S
C1333 C1332 1.373 . S
C1333 C1349 1.377 . S
C1334 C1332 1.389 . S
C1334 C1335 1.524 . S
C1334 C1348 1.377 . S
C1335 C1334 1.524 . S
C1335 C1336 1.397 . S
C1335 C1340 1.363 . S
C1336 H1313 0.950 . S
C1336 C1335 1.397 . S
C1336 C1337 1.334 . S
C1337 H1314 0.950 . S
C1337 C1336 1.334 . S
C1337 C1338 1.287 . S
C1338 C1337 1.287 . S
C1338 C1339 1.524 . S
C1338 H1357 0.913 . S
C1339 H1315 0.950 . S
C1339 C1338 1.524 . S
C1339 C1340 1.415 . S
C1340 H1316 0.950 . S
C1340 C1335 1.363 . S
C1340 C1339 1.415 . S
C1341 H1317 0.951 . S
C1341 C1342 1.366 . S
C1341 C1343 1.388 . S
C1342 C1341 1.366 . S
C1342 C1346 1.385 . S
C1343 H1318 0.951 . S
C1343 C1341 1.388 . S
C1343 C1344 1.366 . S
C1344 C1343 1.366 . S
C1344 C1345 1.414 . S
C1344 C1347 1.499 . S
C1345 H1319 0.950 . S
C1345 C1344 1.414 . S
C1345 C1346 1.374 . S
C1346 H1320 0.950 . S
C1346 C1342 1.385 . S
C1346 C1345 1.374 . S
C1347 C1344 1.499 . S
C1347 C1348 1.373 . S
C1347 C1349 1.389 . S
C1348 H1321 0.950 . S
C1348 C1334 1.377 . S
C1348 C1347 1.373 . S
C1349 C1333 1.377 . S
C1349 C1347 1.389 . S
C1349 C1350 1.524 . S
C1350 C1349 1.524 . S
C1350 C1351 1.397 . S
C1350 C1355 1.363 . S
C1351 H1322 0.950 . S
C1351 C1350 1.397 . S
C1351 C1352 1.334 . S
C1352 H1323 0.950 . S
C1352 C1351 1.334 . S
C1352 C1353 1.287 . S
C1353 C1352 1.287 . S
C1353 C1354 1.524 . S
C1353 H1356 0.999 . S
C1354 H1324 0.950 . S
C1354 C1353 1.524 . S
C1354 C1355 1.415 . S
C1355 H1325 0.950 . S
C1355 C1350 1.363 . S
C1355 C1354 1.415 . S
H1356 C1353 0.999 . S
H1357 C1338 0.913 . S
H1358 C1376 0.951 . S
H1359 C1378 0.951 . S
H1360 C1380 0.950 . S
H1361 C1381 0.950 . S
H1362 C1383 0.950 . S
H1363 C1386 0.950 . S
H1364 C1387 0.950 . S
H1365 C1389 0.950 . S
H1366 C1390 0.950 . S
H1367 C1391 0.951 . S
H1368 C1393 0.951 . S
H1369 C1395 0.950 . S
H1370 C1396 0.950 . S
H1371 C1398 0.950 . S
H1372 C1401 0.950 . S
H1373 C1402 0.950 . S
H1374 C1404 0.950 . S
H1375 C1405 0.950 . S
C1376 H1358 0.951 . S
C1376 C1377 1.366 . S
C1376 C1378 1.388 . S
C1377 C1376 1.366 . S
C1377 C1381 1.385 . S
C1378 H1359 0.951 . S
C1378 C1376 1.388 . S
C1378 C1379 1.366 . S
C1379 C1378 1.366 . S
C1379 C1380 1.414 . S
C1379 C1382 1.499 . S
C1380 H1360 0.950 . S
C1380 C1379 1.414 . S
C1380 C1381 1.374 . S
C1381 H1361 0.950 . S
C1381 C1377 1.385 . S
C1381 C1380 1.374 . S
C1382 C1379 1.499 . S
C1382 C1383 1.373 . S
C1382 C1384 1.389 . S
C1383 H1362 0.950 . S
C1383 C1382 1.373 . S
C1383 C1399 1.377 . S
C1384 C1382 1.389 . S
C1384 C1385 1.524 . S
C1384 C1398 1.377 . S
C1385 C1384 1.524 . S
C1385 C1386 1.397 . S
C1385 C1390 1.363 . S
C1386 H1363 0.950 . S
C1386 C1385 1.397 . S
C1386 C1387 1.334 . S
C1387 H1364 0.950 . S
C1387 C1386 1.334 . S
C1387 C1388 1.287 . S
C1388 C1387 1.287 . S
C1388 C1389 1.524 . S
C1388 H1407 0.913 . S
C1389 H1365 0.950 . S
C1389 C1388 1.524 . S
C1389 C1390 1.415 . S
C1390 H1366 0.950 . S
C1390 C1385 1.363 . S
C1390 C1389 1.415 . S
C1391 H1367 0.951 . S
C1391 C1392 1.366 . S
C1391 C1393 1.388 . S
C1392 C1391 1.366 . S
C1392 C1396 1.385 . S
C1393 H1368 0.951 . S
C1393 C1391 1.388 . S
C1393 C1394 1.366 . S
C1394 C1393 1.366 . S
C1394 C1395 1.414 . S
C1394 C1397 1.499 . S
C1395 H1369 0.950 . S
C1395 C1394 1.414 . S
C1395 C1396 1.374 . S
C1396 H1370 0.950 . S
C1396 C1392 1.385 . S
C1396 C1395 1.374 . S
C1397 C1394 1.499 . S
C1397 C1398 1.373 . S
C1397 C1399 1.389 . S
C1398 H1371 0.950 . S
C1398 C1384 1.377 . S
C1398 C1397 1.373 . S
C1399 C1383 1.377 . S
C1399 C1397 1.389 . S
C1399 C1400 1.524 . S
C1400 C1399 1.524 . S
C1400 C1401 1.397 . S
C1400 C1405 1.363 . S
C1401 H1372 0.950 . S
C1401 C1400 1.397 . S
C1401 C1402 1.334 . S
C1402 H1373 0.950 . S
C1402 C1401 1.334 . S
C1402 C1403 1.287 . S
C1403 C1402 1.287 . S
C1403 C1404 1.524 . S
C1403 H1406 0.999 . S
C1404 H1374 0.950 . S
C1404 C1403 1.524 . S
C1404 C1405 1.415 . S
C1405 H1375 0.950 . S
C1405 C1400 1.363 . S
C1405 C1404 1.415 . S
H1406 C1403 0.999 . S
H1407 C1388 0.913 . S
H1408 C1426 0.951 . S
H1409 C1428 0.951 . S
H1410 C1430 0.950 . S
H1411 C1431 0.950 . S
H1412 C1433 0.950 . S
H1413 C1436 0.950 . S
H1414 C1437 0.950 . S
H1415 C1439 0.950 . S
H1416 C1440 0.950 . S
H1417 C1441 0.951 . S
H1418 C1443 0.951 . S
H1419 C1445 0.950 . S
H1420 C1446 0.950 . S
H1421 C1448 0.950 . S
H1422 C1451 0.950 . S
H1423 C1452 0.950 . S
H1424 C1454 0.950 . S
H1425 C1455 0.950 . S
C1426 H1408 0.951 . S
C1426 C1427 1.366 . S
C1426 C1428 1.388 . S
C1427 C1426 1.366 . S
C1427 C1431 1.385 . S
C1428 H1409 0.951 . S
C1428 C1426 1.388 . S
C1428 C1429 1.366 . S
C1429 C1428 1.366 . S
C1429 C1430 1.414 . S
C1429 C1432 1.499 . S
C1430 H1410 0.950 . S
C1430 C1429 1.414 . S
C1430 C1431 1.374 . S
C1431 H1411 0.950 . S
C1431 C1427 1.385 . S
C1431 C1430 1.374 . S
C1432 C1429 1.499 . S
C1432 C1433 1.373 . S
C1432 C1434 1.389 . S
C1433 H1412 0.950 . S
C1433 C1432 1.373 . S
C1433 C1449 1.377 . S
C1434 C1432 1.389 . S
C1434 C1435 1.524 . S
C1434 C1448 1.377 . S
C1435 C1434 1.524 . S
C1435 C1436 1.397 . S
C1435 C1440 1.363 . S
C1436 H1413 0.950 . S
C1436 C1435 1.397 . S
C1436 C1437 1.334 . S
C1437 H1414 0.950 . S
C1437 C1436 1.334 . S
C1437 C1438 1.287 . S
C1438 C1437 1.287 . S
C1438 C1439 1.524 . S
C1438 H1457 0.913 . S
C1439 H1415 0.950 . S
C1439 C1438 1.524 . S
C1439 C1440 1.415 . S
C1440 H1416 0.950 . S
C1440 C1435 1.363 . S
C1440 C1439 1.415 . S
C1441 H1417 0.951 . S
C1441 C1442 1.366 . S
C1441 C1443 1.388 . S
C1442 C1441 1.366 . S
C1442 C1446 1.385 . S
C1443 H1418 0.951 . S
C1443 C1441 1.388 . S
C1443 C1444 1.366 . S
C1444 C1443 1.366 . S
C1444 C1445 1.414 . S
C1444 C1447 1.499 . S
C1445 H1419 0.950 . S
C1445 C1444 1.414 . S
C1445 C1446 1.374 . S
C1446 H1420 0.950 . S
C1446 C1442 1.385 . S
C1446 C1445 1.374 . S
C1447 C1444 1.499 . S
C1447 C1448 1.373 . S
C1447 C1449 1.389 . S
C1448 H1421 0.950 . S
C1448 C1434 1.377 . S
C1448 C1447 1.373 . S
C1449 C1433 1.377 . S
C1449 C1447 1.389 . S
C1449 C1450 1.524 . S
C1450 C1449 1.524 . S
C1450 C1451 1.397 . S
C1450 C1455 1.363 . S
C1451 H1422 0.950 . S
C1451 C1450 1.397 . S
C1451 C1452 1.334 . S
C1452 H1423 0.950 . S
C1452 C1451 1.334 . S
C1452 C1453 1.287 . S
C1453 C1452 1.287 . S
C1453 C1454 1.524 . S
C1453 H1456 0.999 . S
C1454 H1424 0.950 . S
C1454 C1453 1.524 . S
C1454 C1455 1.415 . S
C1455 H1425 0.950 . S
C1455 C1450 1.363 . S
C1455 C1454 1.415 . S
H1456 C1453 0.999 . S
H1457 C1438 0.913 . S
H1458 C1476 0.951 . S
H1459 C1478 0.951 . S
H1460 C1480 0.950 . S
H1461 C1481 0.950 . S
H1462 C1483 0.950 . S
H1463 C1486 0.950 . S
H1464 C1487 0.950 . S
H1465 C1489 0.950 . S
H1466 C1490 0.950 . S
H1467 C1491 0.951 1_556 S
H1468 C1493 0.951 . S
H1469 C1495 0.950 . S
H1470 C1496 0.950 . S
H1471 C1498 0.950 . S
H1472 C1501 0.950 . S
H1473 C1502 0.950 . S
H1474 C1504 0.950 . S
H1475 C1505 0.950 . S
C1476 H1458 0.951 . S
C1476 C1477 1.366 . S
C1476 C1478 1.388 . S
C1477 C1476 1.366 . S
C1477 C1481 1.385 . S
C1478 H1459 0.951 . S
C1478 C1476 1.388 . S
C1478 C1479 1.366 . S
C1479 C1478 1.366 . S
C1479 C1480 1.414 . S
C1479 C1482 1.499 . S
C1480 H1460 0.950 . S
C1480 C1479 1.414 . S
C1480 C1481 1.374 . S
C1481 H1461 0.950 . S
C1481 C1477 1.385 . S
C1481 C1480 1.374 . S
C1482 C1479 1.499 . S
C1482 C1483 1.373 . S
C1482 C1484 1.389 . S
C1483 H1462 0.950 . S
C1483 C1482 1.373 . S
C1483 C1499 1.377 . S
C1484 C1482 1.389 . S
C1484 C1485 1.524 . S
C1484 C1498 1.377 . S
C1485 C1484 1.524 . S
C1485 C1486 1.397 . S
C1485 C1490 1.363 . S
C1486 H1463 0.950 . S
C1486 C1485 1.397 . S
C1486 C1487 1.334 . S
C1487 H1464 0.950 . S
C1487 C1486 1.334 . S
C1487 C1488 1.287 . S
C1488 C1487 1.287 . S
C1488 C1489 1.524 . S
C1488 H1507 0.913 . S
C1489 H1465 0.950 . S
C1489 C1488 1.524 . S
C1489 C1490 1.415 . S
C1490 H1466 0.950 . S
C1490 C1485 1.363 . S
C1490 C1489 1.415 . S
C1491 H1467 0.951 1_554 S
C1491 C1492 1.366 . S
C1491 C1493 1.388 . S
C1492 C1491 1.366 . S
C1492 C1496 1.385 . S
C1493 H1468 0.951 . S
C1493 C1491 1.388 . S
C1493 C1494 1.366 . S
C1494 C1493 1.366 . S
C1494 C1495 1.414 . S
C1494 C1497 1.499 . S
C1495 H1469 0.950 . S
C1495 C1494 1.414 . S
C1495 C1496 1.374 . S
C1496 H1470 0.950 . S
C1496 C1492 1.385 . S
C1496 C1495 1.374 . S
C1497 C1494 1.499 . S
C1497 C1498 1.373 . S
C1497 C1499 1.389 . S
C1498 H1471 0.950 . S
C1498 C1484 1.377 . S
C1498 C1497 1.373 . S
C1499 C1483 1.377 . S
C1499 C1497 1.389 . S
C1499 C1500 1.524 . S
C1500 C1499 1.524 . S
C1500 C1501 1.397 . S
C1500 C1505 1.363 . S
C1501 H1472 0.950 . S
C1501 C1500 1.397 . S
C1501 C1502 1.334 . S
C1502 H1473 0.950 . S
C1502 C1501 1.334 . S
C1502 C1503 1.295 . S
C1503 C1502 1.295 . S
C1503 C1504 1.521 1_554 S
C1503 H1506 0.991 1_554 S
C1504 H1474 0.950 . S
C1504 C1503 1.521 1_556 S
C1504 C1505 1.415 1_556 S
C1505 H1475 0.950 . S
C1505 C1500 1.363 . S
C1505 C1504 1.415 1_554 S
H1506 C1503 0.991 1_556 S
H1507 C1488 0.913 . S
H1508 C1526 0.951 . S
H1509 C1528 0.951 . S
H1510 C1530 0.950 . S
H1511 C1531 0.950 . S
H1512 C1533 0.950 . S
H1513 C1536 0.950 . S
H1514 C1537 0.950 . S
H1515 C1539 0.950 . S
H1516 C1540 0.950 . S
H1517 C1541 0.951 . S
H1518 C1543 0.951 . S
H1519 C1545 0.950 . S
H1520 C1546 0.950 . S
H1521 C1548 0.950 . S
H1522 C1551 0.950 . S
H1523 C1552 0.950 . S
H1524 C1554 0.950 . S
H1525 C1555 0.950 . S
C1526 H1508 0.951 . S
C1526 C1527 1.366 . S
C1526 C1528 1.388 . S
C1527 C1526 1.366 . S
C1527 C1531 1.385 . S
C1528 H1509 0.951 . S
C1528 C1526 1.388 . S
C1528 C1529 1.366 . S
C1529 C1528 1.366 . S
C1529 C1530 1.414 . S
C1529 C1532 1.499 . S
C1530 H1510 0.950 . S
C1530 C1529 1.414 . S
C1530 C1531 1.374 . S
C1531 H1511 0.950 . S
C1531 C1527 1.385 . S
C1531 C1530 1.374 . S
C1532 C1529 1.499 . S
C1532 C1533 1.373 . S
C1532 C1534 1.389 . S
C1533 H1512 0.950 . S
C1533 C1532 1.373 . S
C1533 C1549 1.377 . S
C1534 C1532 1.389 . S
C1534 C1535 1.524 . S
C1534 C1548 1.377 . S
C1535 C1534 1.524 . S
C1535 C1536 1.397 . S
C1535 C1540 1.363 . S
C1536 H1513 0.950 . S
C1536 C1535 1.397 . S
C1536 C1537 1.334 . S
C1537 H1514 0.950 . S
C1537 C1536 1.334 . S
C1537 C1538 1.287 . S
C1538 C1537 1.287 . S
C1538 C1539 1.524 . S
C1538 H1557 0.913 . S
C1539 H1515 0.950 . S
C1539 C1538 1.524 . S
C1539 C1540 1.415 . S
C1540 H1516 0.950 . S
C1540 C1535 1.363 . S
C1540 C1539 1.415 . S
C1541 H1517 0.951 . S
C1541 C1542 1.366 . S
C1541 C1543 1.388 . S
C1542 C1541 1.366 . S
C1542 C1546 1.385 . S
C1543 H1518 0.951 . S
C1543 C1541 1.388 . S
C1543 C1544 1.366 . S
C1544 C1543 1.366 . S
C1544 C1545 1.414 . S
C1544 C1547 1.499 . S
C1545 H1519 0.950 . S
C1545 C1544 1.414 . S
C1545 C1546 1.374 . S
C1546 H1520 0.950 . S
C1546 C1542 1.385 . S
C1546 C1545 1.374 . S
C1547 C1544 1.499 . S
C1547 C1548 1.373 . S
C1547 C1549 1.389 . S
C1548 H1521 0.950 . S
C1548 C1534 1.377 . S
C1548 C1547 1.373 . S
C1549 C1533 1.377 . S
C1549 C1547 1.389 . S
C1549 C1550 1.524 . S
C1550 C1549 1.524 . S
C1550 C1551 1.397 . S
C1550 C1555 1.363 . S
C1551 H1522 0.950 . S
C1551 C1550 1.397 . S
C1551 C1552 1.334 . S
C1552 H1523 0.950 . S
C1552 C1551 1.334 . S
C1552 C1553 1.287 . S
C1553 C1552 1.287 . S
C1553 C1554 1.524 . S
C1553 H1556 0.999 . S
C1554 H1524 0.950 . S
C1554 C1553 1.524 . S
C1554 C1555 1.415 . S
C1555 H1525 0.950 . S
C1555 C1550 1.363 . S
C1555 C1554 1.415 . S
H1556 C1553 0.999 . S
H1557 C1538 0.913 . S
H1558 C1576 0.951 . S
H1559 C1578 0.951 . S
H1560 C1580 0.950 . S
H1561 C1581 0.950 . S
H1562 C1583 0.950 . S
H1563 C1586 0.950 . S
H1564 C1587 0.950 . S
H1565 C1589 0.950 . S
H1566 C1590 0.950 . S
H1567 C1591 0.951 . S
H1568 C1593 0.951 . S
H1569 C1595 0.950 . S
H1570 C1596 0.950 . S
H1571 C1598 0.950 . S
H1572 C1601 0.950 . S
H1573 C1602 0.950 . S
H1574 C1604 0.950 . S
H1575 C1605 0.950 . S
C1576 H1558 0.951 . S
C1576 C1577 1.366 . S
C1576 C1578 1.388 . S
C1577 C1576 1.366 . S
C1577 C1581 1.385 . S
C1578 H1559 0.951 . S
C1578 C1576 1.388 . S
C1578 C1579 1.366 . S
C1579 C1578 1.366 . S
C1579 C1580 1.414 . S
C1579 C1582 1.499 . S
C1580 H1560 0.950 . S
C1580 C1579 1.414 . S
C1580 C1581 1.374 . S
C1581 H1561 0.950 . S
C1581 C1577 1.385 . S
C1581 C1580 1.374 . S
C1582 C1579 1.499 . S
C1582 C1583 1.373 . S
C1582 C1584 1.389 . S
C1583 H1562 0.950 . S
C1583 C1582 1.373 . S
C1583 C1599 1.377 . S
C1584 C1582 1.389 . S
C1584 C1585 1.524 . S
C1584 C1598 1.377 . S
C1585 C1584 1.524 . S
C1585 C1586 1.397 . S
C1585 C1590 1.363 . S
C1586 H1563 0.950 . S
C1586 C1585 1.397 . S
C1586 C1587 1.334 . S
C1587 H1564 0.950 . S
C1587 C1586 1.334 . S
C1587 C1588 1.287 . S
C1588 C1587 1.287 . S
C1588 C1589 1.524 . S
C1588 H1607 0.913 . S
C1589 H1565 0.950 . S
C1589 C1588 1.524 . S
C1589 C1590 1.415 . S
C1590 H1566 0.950 . S
C1590 C1585 1.363 . S
C1590 C1589 1.415 . S
C1591 H1567 0.951 . S
C1591 C1592 1.366 . S
C1591 C1593 1.388 . S
C1592 C1591 1.366 . S
C1592 C1596 1.385 . S
C1593 H1568 0.951 . S
C1593 C1591 1.388 . S
C1593 C1594 1.366 . S
C1594 C1593 1.366 . S
C1594 C1595 1.414 . S
C1594 C1597 1.499 . S
C1595 H1569 0.950 . S
C1595 C1594 1.414 . S
C1595 C1596 1.374 . S
C1596 H1570 0.950 . S
C1596 C1592 1.385 . S
C1596 C1595 1.374 . S
C1597 C1594 1.499 . S
C1597 C1598 1.373 . S
C1597 C1599 1.389 . S
C1598 H1571 0.950 . S
C1598 C1584 1.377 . S
C1598 C1597 1.373 . S
C1599 C1583 1.377 . S
C1599 C1597 1.389 . S
C1599 C1600 1.524 . S
C1600 C1599 1.524 . S
C1600 C1601 1.397 . S
C1600 C1605 1.363 . S
C1601 H1572 0.950 . S
C1601 C1600 1.397 . S
C1601 C1602 1.334 . S
C1602 H1573 0.950 . S
C1602 C1601 1.334 . S
C1602 C1603 1.287 . S
C1603 C1602 1.287 . S
C1603 C1604 1.524 . S
C1603 H1606 0.999 . S
C1604 H1574 0.950 . S
C1604 C1603 1.524 . S
C1604 C1605 1.415 . S
C1605 H1575 0.950 . S
C1605 C1600 1.363 . S
C1605 C1604 1.415 . S
H1606 C1603 0.999 . S
H1607 C1588 0.913 . S
H1608 C1626 0.951 . S
H1609 C1628 0.951 . S
H1610 C1630 0.950 . S
H1611 C1631 0.950 . S
H1612 C1633 0.950 . S
H1613 C1636 0.950 . S
H1614 C1637 0.950 . S
H1615 C1639 0.950 . S
H1616 C1640 0.950 . S
H1617 C1641 0.951 . S
H1618 C1643 0.951 . S
H1619 C1645 0.950 . S
H1620 C1646 0.950 . S
H1621 C1648 0.950 . S
H1622 C1651 0.950 . S
H1623 C1652 0.950 . S
H1624 C1654 0.950 . S
H1625 C1655 0.950 . S
C1626 H1608 0.951 . S
C1626 C1627 1.366 . S
C1626 C1628 1.388 . S
C1627 C1626 1.366 . S
C1627 C1631 1.385 . S
C1628 H1609 0.951 . S
C1628 C1626 1.388 . S
C1628 C1629 1.366 . S
C1629 C1628 1.366 . S
C1629 C1630 1.414 . S
C1629 C1632 1.499 . S
C1630 H1610 0.950 . S
C1630 C1629 1.414 . S
C1630 C1631 1.374 . S
C1631 H1611 0.950 . S
C1631 C1627 1.385 . S
C1631 C1630 1.374 . S
C1632 C1629 1.499 . S
C1632 C1633 1.373 . S
C1632 C1634 1.389 . S
C1633 H1612 0.950 . S
C1633 C1632 1.373 . S
C1633 C1649 1.377 . S
C1634 C1632 1.389 . S
C1634 C1635 1.524 . S
C1634 C1648 1.377 . S
C1635 C1634 1.524 . S
C1635 C1636 1.397 . S
C1635 C1640 1.363 . S
C1636 H1613 0.950 . S
C1636 C1635 1.397 . S
C1636 C1637 1.334 . S
C1637 H1614 0.950 . S
C1637 C1636 1.334 . S
C1637 C1638 1.287 . S
C1638 C1637 1.287 . S
C1638 C1639 1.524 . S
C1638 H1657 0.913 . S
C1639 H1615 0.950 . S
C1639 C1638 1.524 . S
C1639 C1640 1.415 . S
C1640 H1616 0.950 . S
C1640 C1635 1.363 . S
C1640 C1639 1.415 . S
C1641 H1617 0.951 . S
C1641 C1642 1.366 . S
C1641 C1643 1.388 . S
C1642 C1641 1.366 . S
C1642 C1646 1.385 . S
C1643 H1618 0.951 . S
C1643 C1641 1.388 . S
C1643 C1644 1.366 . S
C1644 C1643 1.366 . S
C1644 C1645 1.414 . S
C1644 C1647 1.499 . S
C1645 H1619 0.950 . S
C1645 C1644 1.414 . S
C1645 C1646 1.374 . S
C1646 H1620 0.950 . S
C1646 C1642 1.385 . S
C1646 C1645 1.374 . S
C1647 C1644 1.499 . S
C1647 C1648 1.373 . S
C1647 C1649 1.389 . S
C1648 H1621 0.950 . S
C1648 C1634 1.377 . S
C1648 C1647 1.373 . S
C1649 C1633 1.377 . S
C1649 C1647 1.389 . S
C1649 C1650 1.524 . S
C1650 C1649 1.524 . S
C1650 C1651 1.397 . S
C1650 C1655 1.363 . S
C1651 H1622 0.950 . S
C1651 C1650 1.397 . S
C1651 C1652 1.334 . S
C1652 H1623 0.950 . S
C1652 C1651 1.334 . S
C1652 C1653 1.287 . S
C1653 C1652 1.287 . S
C1653 C1654 1.524 . S
C1653 H1656 0.999 . S
C1654 H1624 0.950 . S
C1654 C1653 1.524 . S
C1654 C1655 1.415 . S
C1655 H1625 0.950 . S
C1655 C1650 1.363 . S
C1655 C1654 1.415 . S
H1656 C1653 0.999 . S
H1657 C1638 0.913 . S
H1658 C1676 0.951 . S
H1659 C1678 0.951 . S
H1660 C1680 0.950 . S
H1661 C1681 0.950 . S
H1662 C1683 0.950 . S
H1663 C1686 0.950 . S
H1664 C1687 0.950 . S
H1665 C1689 0.950 . S
H1666 C1690 0.950 . S
H1667 C1691 0.951 . S
H1668 C1693 0.951 . S
H1669 C1695 0.950 . S
H1670 C1696 0.950 . S
H1671 C1698 0.950 . S
H1672 C1701 0.950 . S
H1673 C1702 0.950 . S
H1674 C1704 0.950 . S
H1675 C1705 0.950 . S
C1676 H1658 0.951 . S
C1676 C1677 1.366 . S
C1676 C1678 1.388 . S
C1677 C1676 1.366 . S
C1677 C1681 1.385 . S
C1678 H1659 0.951 . S
C1678 C1676 1.388 . S
C1678 C1679 1.366 . S
C1679 C1678 1.366 . S
C1679 C1680 1.414 . S
C1679 C1682 1.499 . S
C1680 H1660 0.950 . S
C1680 C1679 1.414 . S
C1680 C1681 1.374 . S
C1681 H1661 0.950 . S
C1681 C1677 1.385 . S
C1681 C1680 1.374 . S
C1682 C1679 1.499 . S
C1682 C1683 1.373 . S
C1682 C1684 1.389 . S
C1683 H1662 0.950 . S
C1683 C1682 1.373 . S
C1683 C1699 1.377 . S
C1684 C1682 1.389 . S
C1684 C1685 1.524 . S
C1684 C1698 1.377 . S
C1685 C1684 1.524 . S
C1685 C1686 1.397 . S
C1685 C1690 1.363 . S
C1686 H1663 0.950 . S
C1686 C1685 1.397 . S
C1686 C1687 1.334 . S
C1687 H1664 0.950 . S
C1687 C1686 1.334 . S
C1687 C1688 1.287 . S
C1688 C1687 1.287 . S
C1688 C1689 1.524 . S
C1688 H1707 0.913 . S
C1689 H1665 0.950 . S
C1689 C1688 1.524 . S
C1689 C1690 1.415 . S
C1690 H1666 0.950 . S
C1690 C1685 1.363 . S
C1690 C1689 1.415 . S
C1691 H1667 0.951 . S
C1691 C1692 1.366 . S
C1691 C1693 1.388 . S
C1692 C1691 1.366 . S
C1692 C1696 1.385 . S
C1693 H1668 0.951 . S
C1693 C1691 1.388 . S
C1693 C1694 1.366 . S
C1694 C1693 1.366 . S
C1694 C1695 1.414 . S
C1694 C1697 1.499 . S
C1695 H1669 0.950 . S
C1695 C1694 1.414 . S
C1695 C1696 1.374 . S
C1696 H1670 0.950 . S
C1696 C1692 1.385 . S
C1696 C1695 1.374 . S
C1697 C1694 1.499 . S
C1697 C1698 1.373 . S
C1697 C1699 1.389 . S
C1698 H1671 0.950 . S
C1698 C1684 1.377 . S
C1698 C1697 1.373 . S
C1699 C1683 1.377 . S
C1699 C1697 1.389 . S
C1699 C1700 1.524 . S
C1700 C1699 1.524 . S
C1700 C1701 1.397 . S
C1700 C1705 1.363 . S
C1701 H1672 0.950 . S
C1701 C1700 1.397 . S
C1701 C1702 1.334 . S
C1702 H1673 0.950 . S
C1702 C1701 1.334 . S
C1702 C1703 1.287 . S
C1703 C1702 1.287 . S
C1703 C1704 1.524 . S
C1703 H1706 0.999 . S
C1704 H1674 0.950 . S
C1704 C1703 1.524 . S
C1704 C1705 1.415 . S
C1705 H1675 0.950 . S
C1705 C1700 1.363 . S
C1705 C1704 1.415 . S
H1706 C1703 0.999 . S
H1707 C1688 0.913 . S
H1708 C1726 0.951 . S
H1709 C1728 0.951 . S
H1710 C1730 0.950 . S
H1711 C1731 0.950 . S
H1712 C1733 0.950 . S
H1713 C1736 0.950 . S
H1714 C1737 0.950 . S
H1715 C1739 0.950 . S
H1716 C1740 0.950 . S
H1717 C1741 0.951 . S
H1718 C1743 0.951 . S
H1719 C1745 0.950 . S
H1720 C1746 0.950 . S
H1721 C1748 0.950 . S
H1722 C1751 0.950 . S
H1723 C1752 0.950 . S
H1724 C1754 0.950 . S
H1725 C1755 0.950 . S
C1726 H1708 0.951 . S
C1726 C1727 1.366 . S
C1726 C1728 1.388 . S
C1727 C1726 1.366 . S
C1727 C1731 1.385 . S
C1728 H1709 0.951 . S
C1728 C1726 1.388 . S
C1728 C1729 1.366 . S
C1729 C1728 1.366 . S
C1729 C1730 1.414 . S
C1729 C1732 1.499 . S
C1730 H1710 0.950 . S
C1730 C1729 1.414 . S
C1730 C1731 1.374 . S
C1731 H1711 0.950 . S
C1731 C1727 1.385 . S
C1731 C1730 1.374 . S
C1732 C1729 1.499 . S
C1732 C1733 1.373 . S
C1732 C1734 1.389 . S
C1733 H1712 0.950 . S
C1733 C1732 1.373 . S
C1733 C1749 1.377 . S
C1734 C1732 1.389 . S
C1734 C1735 1.524 . S
C1734 C1748 1.377 . S
C1735 C1734 1.524 . S
C1735 C1736 1.397 . S
C1735 C1740 1.363 . S
C1736 H1713 0.950 . S
C1736 C1735 1.397 . S
C1736 C1737 1.334 . S
C1737 H1714 0.950 . S
C1737 C1736 1.334 . S
C1737 C1738 1.287 . S
C1738 C1737 1.287 . S
C1738 C1739 1.524 . S
C1738 H1757 0.913 . S
C1739 H1715 0.950 . S
C1739 C1738 1.524 . S
C1739 C1740 1.415 . S
C1740 H1716 0.950 . S
C1740 C1735 1.363 . S
C1740 C1739 1.415 . S
C1741 H1717 0.951 . S
C1741 C1742 1.366 . S
C1741 C1743 1.388 . S
C1742 C1741 1.366 . S
C1742 C1746 1.385 . S
C1743 H1718 0.951 . S
C1743 C1741 1.388 . S
C1743 C1744 1.366 . S
C1744 C1743 1.366 . S
C1744 C1745 1.414 . S
C1744 C1747 1.499 . S
C1745 H1719 0.950 . S
C1745 C1744 1.414 . S
C1745 C1746 1.374 . S
C1746 H1720 0.950 . S
C1746 C1742 1.385 . S
C1746 C1745 1.374 . S
C1747 C1744 1.499 . S
C1747 C1748 1.373 . S
C1747 C1749 1.389 . S
C1748 H1721 0.950 . S
C1748 C1734 1.377 . S
C1748 C1747 1.373 . S
C1749 C1733 1.377 . S
C1749 C1747 1.389 . S
C1749 C1750 1.524 . S
C1750 C1749 1.524 . S
C1750 C1751 1.397 . S
C1750 C1755 1.363 . S
C1751 H1722 0.950 . S
C1751 C1750 1.397 . S
C1751 C1752 1.334 1_556 S
C1752 H1723 0.950 . S
C1752 C1751 1.334 1_554 S
C1752 C1753 1.287 . S
C1753 C1752 1.287 . S
C1753 C1754 1.524 . S
C1753 H1756 0.999 . S
C1754 H1724 0.950 . S
C1754 C1753 1.524 . S
C1754 C1755 1.415 1_554 S
C1755 H1725 0.950 . S
C1755 C1750 1.363 . S
C1755 C1754 1.415 1_556 S
H1756 C1753 0.999 . S
H1757 C1738 0.913 . S
H1758 C1776 0.951 . S
H1759 C1778 0.951 . S
H1760 C1780 0.950 . S
H1761 C1781 0.950 . S
H1762 C1783 0.950 . S
H1763 C1786 0.950 . S
H1764 C1787 0.950 . S
H1765 C1789 0.950 . S
H1766 C1790 0.950 . S
H1767 C1791 0.951 . S
H1768 C1793 0.951 . S
H1769 C1795 0.950 . S
H1770 C1796 0.950 . S
H1771 C1798 0.950 . S
H1772 C1801 0.950 . S
H1773 C1802 0.950 . S
H1774 C1804 0.950 . S
H1775 C1805 0.950 . S
C1776 H1758 0.951 . S
C1776 C1777 1.366 . S
C1776 C1778 1.388 . S
C1777 C1776 1.366 . S
C1777 C1781 1.385 . S
C1778 H1759 0.951 . S
C1778 C1776 1.388 . S
C1778 C1779 1.366 . S
C1779 C1778 1.366 . S
C1779 C1780 1.414 . S
C1779 C1782 1.499 . S
C1780 H1760 0.950 . S
C1780 C1779 1.414 . S
C1780 C1781 1.374 . S
C1781 H1761 0.950 . S
C1781 C1777 1.385 . S
C1781 C1780 1.374 . S
C1782 C1779 1.499 . S
C1782 C1783 1.373 . S
C1782 C1784 1.389 . S
C1783 H1762 0.950 . S
C1783 C1782 1.373 . S
C1783 C1799 1.377 . S
C1784 C1782 1.389 . S
C1784 C1785 1.524 . S
C1784 C1798 1.377 . S
C1785 C1784 1.524 . S
C1785 C1786 1.397 . S
C1785 C1790 1.363 . S
C1786 H1763 0.950 . S
C1786 C1785 1.397 . S
C1786 C1787 1.334 . S
C1787 H1764 0.950 . S
C1787 C1786 1.334 . S
C1787 C1788 1.287 . S
C1788 C1787 1.287 . S
C1788 C1789 1.524 . S
C1788 H1807 0.913 . S
C1789 H1765 0.950 . S
C1789 C1788 1.524 . S
C1789 C1790 1.415 . S
C1790 H1766 0.950 . S
C1790 C1785 1.363 . S
C1790 C1789 1.415 . S
C1791 H1767 0.951 . S
C1791 C1792 1.366 . S
C1791 C1793 1.388 . S
C1792 C1791 1.366 . S
C1792 C1796 1.385 . S
C1793 H1768 0.951 . S
C1793 C1791 1.388 . S
C1793 C1794 1.366 . S
C1794 C1793 1.366 . S
C1794 C1795 1.414 . S
C1794 C1797 1.499 . S
C1795 H1769 0.950 . S
C1795 C1794 1.414 . S
C1795 C1796 1.374 . S
C1796 H1770 0.950 . S
C1796 C1792 1.385 . S
C1796 C1795 1.374 . S
C1797 C1794 1.499 . S
C1797 C1798 1.373 . S
C1797 C1799 1.389 . S
C1798 H1771 0.950 . S
C1798 C1784 1.377 . S
C1798 C1797 1.373 . S
C1799 C1783 1.377 . S
C1799 C1797 1.389 . S
C1799 C1800 1.524 . S
C1800 C1799 1.524 . S
C1800 C1801 1.397 . S
C1800 C1805 1.363 . S
C1801 H1772 0.950 . S
C1801 C1800 1.397 . S
C1801 C1802 1.334 . S
C1802 H1773 0.950 . S
C1802 C1801 1.334 . S
C1802 C1803 1.287 . S
C1803 C1802 1.287 . S
C1803 C1804 1.524 . S
C1803 H1806 0.999 . S
C1804 H1774 0.950 . S
C1804 C1803 1.524 . S
C1804 C1805 1.415 . S
C1805 H1775 0.950 . S
C1805 C1800 1.363 . S
C1805 C1804 1.415 . S
H1806 C1803 0.999 . S
H1807 C1788 0.913 . S
H1808 C1826 0.951 . S
H1809 C1828 0.951 . S
H1810 C1830 0.950 . S
H1811 C1831 0.950 . S
H1812 C1833 0.950 . S
H1813 C1836 0.950 . S
H1814 C1837 0.950 . S
H1815 C1839 0.950 . S
H1816 C1840 0.950 . S
H1817 C1841 0.951 . S
H1818 C1843 0.951 . S
H1819 C1845 0.950 . S
H1820 C1846 0.950 . S
H1821 C1848 0.950 . S
H1822 C1851 0.950 . S
H1823 C1852 0.950 . S
H1824 C1854 0.950 . S
H1825 C1855 0.950 . S
C1826 H1808 0.951 . S
C1826 C1827 1.366 . S
C1826 C1828 1.388 . S
C1827 C1826 1.366 . S
C1827 C1831 1.385 . S
C1828 H1809 0.951 . S
C1828 C1826 1.388 . S
C1828 C1829 1.366 . S
C1829 C1828 1.366 . S
C1829 C1830 1.414 . S
C1829 C1832 1.499 . S
C1830 H1810 0.950 . S
C1830 C1829 1.414 . S
C1830 C1831 1.374 . S
C1831 H1811 0.950 . S
C1831 C1827 1.385 . S
C1831 C1830 1.374 . S
C1832 C1829 1.499 . S
C1832 C1833 1.373 . S
C1832 C1834 1.389 . S
C1833 H1812 0.950 . S
C1833 C1832 1.373 . S
C1833 C1849 1.377 . S
C1834 C1832 1.389 . S
C1834 C1835 1.524 . S
C1834 C1848 1.377 . S
C1835 C1834 1.524 . S
C1835 C1836 1.397 . S
C1835 C1840 1.363 . S
C1836 H1813 0.950 . S
C1836 C1835 1.397 . S
C1836 C1837 1.334 . S
C1837 H1814 0.950 . S
C1837 C1836 1.334 . S
C1837 C1838 1.287 . S
C1838 C1837 1.287 . S
C1838 C1839 1.524 . S
C1838 H1857 0.913 . S
C1839 H1815 0.950 . S
C1839 C1838 1.524 . S
C1839 C1840 1.415 . S
C1840 H1816 0.950 . S
C1840 C1835 1.363 . S
C1840 C1839 1.415 . S
C1841 H1817 0.951 . S
C1841 C1842 1.366 . S
C1841 C1843 1.388 . S
C1842 C1841 1.366 . S
C1842 C1846 1.385 . S
C1843 H1818 0.951 . S
C1843 C1841 1.388 . S
C1843 C1844 1.366 . S
C1844 C1843 1.366 . S
C1844 C1845 1.414 . S
C1844 C1847 1.499 . S
C1845 H1819 0.950 . S
C1845 C1844 1.414 . S
C1845 C1846 1.374 . S
C1846 H1820 0.950 . S
C1846 C1842 1.385 . S
C1846 C1845 1.374 . S
C1847 C1844 1.499 . S
C1847 C1848 1.373 . S
C1847 C1849 1.389 . S
C1848 H1821 0.950 . S
C1848 C1834 1.377 . S
C1848 C1847 1.373 . S
C1849 C1833 1.377 . S
C1849 C1847 1.389 . S
C1849 C1850 1.524 . S
C1850 C1849 1.524 . S
C1850 C1851 1.397 . S
C1850 C1855 1.363 . S
C1851 H1822 0.950 . S
C1851 C1850 1.397 . S
C1851 C1852 1.334 . S
C1852 H1823 0.950 . S
C1852 C1851 1.334 . S
C1852 C1853 1.287 . S
C1853 C1852 1.287 . S
C1853 C1854 1.524 . S
C1853 H1856 0.999 . S
C1854 H1824 0.950 . S
C1854 C1853 1.524 . S
C1854 C1855 1.415 . S
C1855 H1825 0.950 . S
C1855 C1850 1.363 . S
C1855 C1854 1.415 . S
H1856 C1853 0.999 . S
H1857 C1838 0.913 . S
H1858 C1876 0.951 . S
H1859 C1878 0.951 . S
H1860 C1880 0.950 . S
H1861 C1881 0.950 . S
H1862 C1883 0.950 . S
H1863 C1886 0.950 . S
H1864 C1887 0.950 . S
H1865 C1889 0.950 . S
H1866 C1890 0.950 . S
H1867 C1891 0.951 . S
H1868 C1893 0.951 . S
H1869 C1895 0.950 . S
H1870 C1896 0.950 . S
H1871 C1898 0.950 . S
H1872 C1901 0.950 . S
H1873 C1902 0.950 . S
H1874 C1904 0.950 . S
H1875 C1905 0.950 . S
C1876 H1858 0.951 . S
C1876 C1877 1.366 . S
C1876 C1878 1.388 . S
C1877 C1876 1.366 . S
C1877 C1881 1.385 . S
C1878 H1859 0.951 . S
C1878 C1876 1.388 . S
C1878 C1879 1.366 . S
C1879 C1878 1.366 . S
C1879 C1880 1.414 . S
C1879 C1882 1.499 . S
C1880 H1860 0.950 . S
C1880 C1879 1.414 . S
C1880 C1881 1.374 . S
C1881 H1861 0.950 . S
C1881 C1877 1.385 . S
C1881 C1880 1.374 . S
C1882 C1879 1.499 . S
C1882 C1883 1.373 . S
C1882 C1884 1.389 . S
C1883 H1862 0.950 . S
C1883 C1882 1.373 . S
C1883 C1899 1.377 . S
C1884 C1882 1.389 . S
C1884 C1885 1.524 . S
C1884 C1898 1.377 . S
C1885 C1884 1.524 . S
C1885 C1886 1.397 . S
C1885 C1890 1.363 . S
C1886 H1863 0.950 . S
C1886 C1885 1.397 . S
C1886 C1887 1.334 . S
C1887 H1864 0.950 . S
C1887 C1886 1.334 . S
C1887 C1888 1.287 . S
C1888 C1887 1.287 . S
C1888 C1889 1.524 . S
C1888 H1907 0.913 . S
C1889 H1865 0.950 . S
C1889 C1888 1.524 . S
C1889 C1890 1.415 . S
C1890 H1866 0.950 . S
C1890 C1885 1.363 . S
C1890 C1889 1.415 . S
C1891 H1867 0.951 . S
C1891 C1892 1.366 . S
C1891 C1893 1.388 . S
C1892 C1891 1.366 . S
C1892 C1896 1.385 . S
C1893 H1868 0.951 . S
C1893 C1891 1.388 . S
C1893 C1894 1.366 . S
C1894 C1893 1.366 . S
C1894 C1895 1.414 . S
C1894 C1897 1.499 . S
C1895 H1869 0.950 . S
C1895 C1894 1.414 . S
C1895 C1896 1.374 . S
C1896 H1870 0.950 . S
C1896 C1892 1.385 . S
C1896 C1895 1.374 . S
C1897 C1894 1.499 . S
C1897 C1898 1.373 . S
C1897 C1899 1.389 . S
C1898 H1871 0.950 . S
C1898 C1884 1.377 . S
C1898 C1897 1.373 . S
C1899 C1883 1.377 . S
C1899 C1897 1.389 . S
C1899 C1900 1.524 . S
C1900 C1899 1.524 . S
C1900 C1901 1.397 . S
C1900 C1905 1.363 . S
C1901 H1872 0.950 . S
C1901 C1900 1.397 . S
C1901 C1902 1.334 . S
C1902 H1873 0.950 . S
C1902 C1901 1.334 . S
C1902 C1903 1.287 . S
C1903 C1902 1.287 . S
C1903 C1904 1.524 . S
C1903 H1906 0.999 . S
C1904 H1874 0.950 . S
C1904 C1903 1.524 . S
C1904 C1905 1.415 . S
C1905 H1875 0.950 . S
C1905 C1900 1.363 . S
C1905 C1904 1.415 . S
H1906 C1903 0.999 . S
H1907 C1888 0.913 . S
H1908 C1926 0.951 . S
H1909 C1928 0.951 . S
H1910 C1930 0.950 . S
H1911 C1931 0.950 . S
H1912 C1933 0.950 . S
H1913 C1936 0.950 . S
H1914 C1937 0.950 . S
H1915 C1939 0.950 . S
H1916 C1940 0.950 . S
H1917 C1941 0.951 . S
H1918 C1943 0.951 . S
H1919 C1945 0.950 . S
H1920 C1946 0.950 . S
H1921 C1948 0.950 . S
H1922 C1951 0.950 . S
H1923 C1952 0.950 . S
H1924 C1954 0.950 . S
H1925 C1955 0.950 . S
C1926 H1908 0.951 . S
C1926 C1927 1.366 . S
C1926 C1928 1.388 . S
C1927 C1926 1.366 . S
C1927 C1931 1.385 . S
C1928 H1909 0.951 . S
C1928 C1926 1.388 . S
C1928 C1929 1.366 . S
C1929 C1928 1.366 . S
C1929 C1930 1.414 . S
C1929 C1932 1.499 . S
C1930 H1910 0.950 . S
C1930 C1929 1.414 . S
C1930 C1931 1.374 . S
C1931 H1911 0.950 . S
C1931 C1927 1.385 . S
C1931 C1930 1.374 . S
C1932 C1929 1.499 . S
C1932 C1933 1.373 . S
C1932 C1934 1.389 . S
C1933 H1912 0.950 . S
C1933 C1932 1.373 . S
C1933 C1949 1.377 . S
C1934 C1932 1.389 . S
C1934 C1935 1.524 . S
C1934 C1948 1.377 . S
C1935 C1934 1.524 . S
C1935 C1936 1.397 . S
C1935 C1940 1.363 . S
C1936 H1913 0.950 . S
C1936 C1935 1.397 . S
C1936 C1937 1.334 . S
C1937 H1914 0.950 . S
C1937 C1936 1.334 . S
C1937 C1938 1.287 . S
C1938 C1937 1.287 . S
C1938 C1939 1.524 . S
C1938 H1957 0.913 . S
C1939 H1915 0.950 . S
C1939 C1938 1.524 . S
C1939 C1940 1.415 . S
C1940 H1916 0.950 . S
C1940 C1935 1.363 . S
C1940 C1939 1.415 . S
C1941 H1917 0.951 . S
C1941 C1942 1.366 . S
C1941 C1943 1.388 . S
C1942 C1941 1.366 . S
C1942 C1946 1.385 . S
C1943 H1918 0.951 . S
C1943 C1941 1.388 . S
C1943 C1944 1.366 . S
C1944 C1943 1.366 . S
C1944 C1945 1.414 . S
C1944 C1947 1.499 . S
C1945 H1919 0.950 . S
C1945 C1944 1.414 . S
C1945 C1946 1.374 . S
C1946 H1920 0.950 . S
C1946 C1942 1.385 . S
C1946 C1945 1.374 . S
C1947 C1944 1.499 . S
C1947 C1948 1.373 . S
C1947 C1949 1.389 . S
C1948 H1921 0.950 . S
C1948 C1934 1.377 . S
C1948 C1947 1.373 . S
C1949 C1933 1.377 . S
C1949 C1947 1.389 . S
C1949 C1950 1.524 . S
C1950 C1949 1.524 . S
C1950 C1951 1.397 . S
C1950 C1955 1.363 . S
C1951 H1922 0.950 . S
C1951 C1950 1.397 . S
C1951 C1952 1.334 . S
C1952 H1923 0.950 . S
C1952 C1951 1.334 . S
C1952 C1953 1.287 . S
C1953 C1952 1.287 . S
C1953 C1954 1.524 . S
C1953 H1956 0.999 . S
C1954 H1924 0.950 . S
C1954 C1953 1.524 . S
C1954 C1955 1.415 . S
C1955 H1925 0.950 . S
C1955 C1950 1.363 . S
C1955 C1954 1.415 . S
H1956 C1953 0.999 . S
H1957 C1938 0.913 . S
H1958 C1976 0.951 . S
H1959 C1978 0.951 . S
H1960 C1980 0.950 . S
H1961 C1981 0.950 . S
H1962 C1983 0.950 . S
H1963 C1986 0.950 . S
H1964 C1987 0.950 . S
H1965 C1989 0.950 . S
H1966 C1990 0.950 . S
H1967 C1991 0.951 . S
H1968 C1993 0.951 . S
H1969 C1995 0.950 . S
H1970 C1996 0.950 . S
H1971 C1998 0.950 . S
H1972 C2001 0.950 . S
H1973 C2002 0.950 . S
H1974 C2004 0.950 . S
H1975 C2005 0.950 . S
C1976 H1958 0.951 . S
C1976 C1977 1.366 . S
C1976 C1978 1.388 . S
C1977 C1976 1.366 . S
C1977 C1981 1.385 . S
C1978 H1959 0.951 . S
C1978 C1976 1.388 . S
C1978 C1979 1.366 . S
C1979 C1978 1.366 . S
C1979 C1980 1.414 . S
C1979 C1982 1.499 . S
C1980 H1960 0.950 . S
C1980 C1979 1.414 . S
C1980 C1981 1.374 . S
C1981 H1961 0.950 . S
C1981 C1977 1.385 . S
C1981 C1980 1.374 . S
C1982 C1979 1.499 . S
C1982 C1983 1.373 . S
C1982 C1984 1.389 . S
C1983 H1962 0.950 . S
C1983 C1982 1.373 . S
C1983 C1999 1.377 . S
C1984 C1982 1.389 . S
C1984 C1985 1.524 . S
C1984 C1998 1.377 . S
C1985 C1984 1.524 . S
C1985 C1986 1.397 . S
C1985 C1990 1.363 . S
C1986 H1963 0.950 . S
C1986 C1985 1.397 . S
C1986 C1987 1.334 . S
C1987 H1964 0.950 . S
C1987 C1986 1.334 . S
C1987 C1988 1.287 . S
C1988 C1987 1.287 . S
C1988 C1989 1.524 . S
C1988 H2007 0.913 . S
C1989 H1965 0.950 . S
C1989 C1988 1.524 . S
C1989 C1990 1.415 . S
C1990 H1966 0.950 . S
C1990 C1985 1.363 . S
C1990 C1989 1.415 . S
C1991 H1967 0.951 . S
C1991 C1992 1.366 . S
C1991 C1993 1.388 . S
C1992 C1991 1.366 . S
C1992 C1996 1.385 . S
C1993 H1968 0.951 . S
C1993 C1991 1.388 . S
C1993 C1994 1.366 . S
C1994 C1993 1.366 . S
C1994 C1995 1.414 . S
C1994 C1997 1.499 . S
C1995 H1969 0.950 . S
C1995 C1994 1.414 . S
C1995 C1996 1.374 . S
C1996 H1970 0.950 . S
C1996 C1992 1.385 . S
C1996 C1995 1.374 . S
C1997 C1994 1.499 . S
C1997 C1998 1.373 . S
C1997 C1999 1.389 . S
C1998 H1971 0.950 . S
C1998 C1984 1.377 . S
C1998 C1997 1.373 . S
C1999 C1983 1.377 . S
C1999 C1997 1.389 . S
C1999 C2000 1.524 . S
C2000 C1999 1.524 . S
C2000 C2001 1.397 . S
C2000 C2005 1.363 . S
C2001 H1972 0.950 . S
C2001 C2000 1.397 . S
C2001 C2002 1.334 . S
C2002 H1973 0.950 . S
C2002 C2001 1.334 . S
C2002 C2003 1.287 . S
C2003 C2002 1.287 . S
C2003 C2004 1.524 . S
C2003 H2006 0.999 . S
C2004 H1974 0.950 . S
C2004 C2003 1.524 . S
C2004 C2005 1.415 . S
C2005 H1975 0.950 . S
C2005 C2000 1.363 . S
C2005 C2004 1.415 . S
H2006 C2003 0.999 . S
H2007 C1988 0.913 . S
H2008 C2026 0.951 . S
H2009 C2028 0.951 . S
H2010 C2030 0.950 . S
H2011 C2031 0.950 . S
H2012 C2033 0.950 . S
H2013 C2036 0.950 . S
H2014 C2037 0.950 . S
H2015 C2039 0.950 . S
H2016 C2040 0.950 . S
H2017 C2041 0.951 . S
H2018 C2043 0.951 . S
H2019 C2045 0.950 . S
H2020 C2046 0.950 . S
H2021 C2048 0.950 . S
H2022 C2051 0.950 . S
H2023 C2052 0.950 . S
H2024 C2054 0.950 . S
H2025 C2055 0.950 . S
C2026 H2008 0.951 . S
C2026 C2027 1.366 . S
C2026 C2028 1.388 . S
C2027 C2026 1.366 . S
C2027 C2031 1.385 . S
C2028 H2009 0.951 . S
C2028 C2026 1.388 . S
C2028 C2029 1.366 . S
C2029 C2028 1.366 . S
C2029 C2030 1.414 . S
C2029 C2032 1.499 . S
C2030 H2010 0.950 . S
C2030 C2029 1.414 . S
C2030 C2031 1.374 . S
C2031 H2011 0.950 . S
C2031 C2027 1.385 . S
C2031 C2030 1.374 . S
C2032 C2029 1.499 . S
C2032 C2033 1.373 . S
C2032 C2034 1.389 . S
C2033 H2012 0.950 . S
C2033 C2032 1.373 . S
C2033 C2049 1.377 . S
C2034 C2032 1.389 . S
C2034 C2035 1.524 . S
C2034 C2048 1.377 . S
C2035 C2034 1.524 . S
C2035 C2036 1.397 . S
C2035 C2040 1.363 . S
C2036 H2013 0.950 . S
C2036 C2035 1.397 . S
C2036 C2037 1.334 . S
C2037 H2014 0.950 . S
C2037 C2036 1.334 . S
C2037 C2038 1.287 . S
C2038 C2037 1.287 . S
C2038 C2039 1.524 . S
C2038 H2057 0.913 . S
C2039 H2015 0.950 . S
C2039 C2038 1.524 . S
C2039 C2040 1.415 . S
C2040 H2016 0.950 . S
C2040 C2035 1.363 . S
C2040 C2039 1.415 . S
C2041 H2017 0.951 . S
C2041 C2042 1.366 . S
C2041 C2043 1.388 . S
C2042 C2041 1.366 . S
C2042 C2046 1.385 . S
C2043 H2018 0.951 . S
C2043 C2041 1.388 . S
C2043 C2044 1.366 . S
C2044 C2043 1.366 . S
C2044 C2045 1.414 . S
C2044 C2047 1.499 . S
C2045 H2019 0.950 . S
C2045 C2044 1.414 . S
C2045 C2046 1.374 . S
C2046 H2020 0.950 . S
C2046 C2042 1.385 . S
C2046 C2045 1.374 . S
C2047 C2044 1.499 . S
C2047 C2048 1.373 . S
C2047 C2049 1.389 . S
C2048 H2021 0.950 . S
C2048 C2034 1.377 . S
C2048 C2047 1.373 . S
C2049 C2033 1.377 . S
C2049 C2047 1.389 . S
C2049 C2050 1.524 . S
C2050 C2049 1.524 . S
C2050 C2051 1.397 . S
C2050 C2055 1.363 . S
C2051 H2022 0.950 . S
C2051 C2050 1.397 . S
C2051 C2052 1.334 . S
C2052 H2023 0.950 . S
C2052 C2051 1.334 . S
C2052 C2053 1.287 . S
C2053 C2052 1.287 . S
C2053 C2054 1.524 . S
C2053 H2056 0.999 . S
C2054 H2024 0.950 . S
C2054 C2053 1.524 . S
C2054 C2055 1.415 . S
C2055 H2025 0.950 . S
C2055 C2050 1.363 . S
C2055 C2054 1.415 . S
H2056 C2053 0.999 . S
H2057 C2038 0.913 . S
H2058 C2076 0.951 . S
H2059 C2078 0.951 . S
H2060 C2080 0.950 . S
H2061 C2081 0.950 . S
H2062 C2083 0.950 . S
H2063 C2086 0.950 . S
H2064 C2087 0.950 . S
H2065 C2089 0.950 . S
H2066 C2090 0.950 . S
H2067 C2091 0.951 . S
H2068 C2093 0.951 . S
H2069 C2095 0.950 . S
H2070 C2096 0.950 . S
H2071 C2098 0.950 . S
H2072 C2101 0.950 . S
H2073 C2102 0.950 . S
H2074 C2104 0.950 . S
H2075 C2105 0.950 . S
C2076 H2058 0.951 . S
C2076 C2077 1.366 . S
C2076 C2078 1.388 . S
C2077 C2076 1.366 . S
C2077 C2081 1.385 . S
C2078 H2059 0.951 . S
C2078 C2076 1.388 . S
C2078 C2079 1.366 . S
C2079 C2078 1.366 . S
C2079 C2080 1.414 . S
C2079 C2082 1.499 . S
C2080 H2060 0.950 . S
C2080 C2079 1.414 . S
C2080 C2081 1.374 . S
C2081 H2061 0.950 . S
C2081 C2077 1.385 . S
C2081 C2080 1.374 . S
C2082 C2079 1.499 . S
C2082 C2083 1.373 . S
C2082 C2084 1.389 . S
C2083 H2062 0.950 . S
C2083 C2082 1.373 . S
C2083 C2099 1.377 . S
C2084 C2082 1.389 . S
C2084 C2085 1.524 . S
C2084 C2098 1.377 . S
C2085 C2084 1.524 . S
C2085 C2086 1.397 . S
C2085 C2090 1.363 . S
C2086 H2063 0.950 . S
C2086 C2085 1.397 . S
C2086 C2087 1.334 . S
C2087 H2064 0.950 . S
C2087 C2086 1.334 . S
C2087 C2088 1.287 . S
C2088 C2087 1.287 . S
C2088 C2089 1.524 . S
C2088 H2107 0.913 . S
C2089 H2065 0.950 . S
C2089 C2088 1.524 . S
C2089 C2090 1.415 . S
C2090 H2066 0.950 . S
C2090 C2085 1.363 . S
C2090 C2089 1.415 . S
C2091 H2067 0.951 . S
C2091 C2092 1.366 . S
C2091 C2093 1.388 . S
C2092 C2091 1.366 . S
C2092 C2096 1.385 . S
C2093 H2068 0.951 . S
C2093 C2091 1.388 . S
C2093 C2094 1.366 . S
C2094 C2093 1.366 . S
C2094 C2095 1.414 . S
C2094 C2097 1.499 . S
C2095 H2069 0.950 . S
C2095 C2094 1.414 . S
C2095 C2096 1.374 . S
C2096 H2070 0.950 . S
C2096 C2092 1.385 . S
C2096 C2095 1.374 . S
C2097 C2094 1.499 . S
C2097 C2098 1.373 . S
C2097 C2099 1.389 . S
C2098 H2071 0.950 . S
C2098 C2084 1.377 . S
C2098 C2097 1.373 . S
C2099 C2083 1.377 . S
C2099 C2097 1.389 . S
C2099 C2100 1.524 . S
C2100 C2099 1.524 . S
C2100 C2101 1.397 . S
C2100 C2105 1.363 . S
C2101 H2072 0.950 . S
C2101 C2100 1.397 . S
C2101 C2102 1.334 . S
C2102 H2073 0.950 . S
C2102 C2101 1.334 . S
C2102 C2103 1.287 . S
C2103 C2102 1.287 . S
C2103 C2104 1.524 . S
C2103 H2106 0.999 . S
C2104 H2074 0.950 . S
C2104 C2103 1.524 . S
C2104 C2105 1.415 . S
C2105 H2075 0.950 . S
C2105 C2100 1.363 . S
C2105 C2104 1.415 . S
H2106 C2103 0.999 . S
H2107 C2088 0.913 . S
H2108 C2126 0.951 . S
H2109 C2128 0.951 . S
H2110 C2130 0.950 . S
H2111 C2131 0.950 . S
H2112 C2133 0.950 . S
H2113 C2136 0.950 . S
H2114 C2137 0.950 . S
H2115 C2139 0.950 . S
H2116 C2140 0.950 . S
H2117 C2141 0.951 . S
H2118 C2143 0.951 . S
H2119 C2145 0.950 . S
H2120 C2146 0.950 . S
H2121 C2148 0.950 . S
H2122 C2151 0.950 . S
H2123 C2152 0.950 . S
H2124 C2154 0.950 . S
H2125 C2155 0.950 . S
C2126 H2108 0.951 . S
C2126 C2127 1.366 . S
C2126 C2128 1.388 . S
C2127 C2126 1.366 . S
C2127 C2131 1.385 . S
C2128 H2109 0.951 . S
C2128 C2126 1.388 . S
C2128 C2129 1.366 . S
C2129 C2128 1.366 . S
C2129 C2130 1.414 . S
C2129 C2132 1.499 . S
C2130 H2110 0.950 . S
C2130 C2129 1.414 . S
C2130 C2131 1.374 . S
C2131 H2111 0.950 . S
C2131 C2127 1.385 . S
C2131 C2130 1.374 . S
C2132 C2129 1.499 . S
C2132 C2133 1.373 . S
C2132 C2134 1.389 . S
C2133 H2112 0.950 . S
C2133 C2132 1.373 . S
C2133 C2149 1.377 . S
C2134 C2132 1.389 . S
C2134 C2135 1.524 . S
C2134 C2148 1.377 . S
C2135 C2134 1.524 . S
C2135 C2136 1.397 . S
C2135 C2140 1.363 . S
C2136 H2113 0.950 . S
C2136 C2135 1.397 . S
C2136 C2137 1.334 . S
C2137 H2114 0.950 . S
C2137 C2136 1.334 . S
C2137 C2138 1.287 . S
C2138 C2137 1.287 . S
C2138 C2139 1.524 . S
C2138 H2157 0.913 . S
C2139 H2115 0.950 . S
C2139 C2138 1.524 . S
C2139 C2140 1.415 . S
C2140 H2116 0.950 . S
C2140 C2135 1.363 . S
C2140 C2139 1.415 . S
C2141 H2117 0.951 . S
C2141 C2142 1.366 . S
C2141 C2143 1.388 . S
C2142 C2141 1.366 . S
C2142 C2146 1.385 . S
C2143 H2118 0.951 . S
C2143 C2141 1.388 . S
C2143 C2144 1.366 . S
C2144 C2143 1.366 . S
C2144 C2145 1.414 . S
C2144 C2147 1.499 . S
C2145 H2119 0.950 . S
C2145 C2144 1.414 . S
C2145 C2146 1.374 . S
C2146 H2120 0.950 . S
C2146 C2142 1.385 . S
C2146 C2145 1.374 . S
C2147 C2144 1.499 . S
C2147 C2148 1.373 . S
C2147 C2149 1.389 . S
C2148 H2121 0.950 . S
C2148 C2134 1.377 . S
C2148 C2147 1.373 . S
C2149 C2133 1.377 . S
C2149 C2147 1.389 . S
C2149 C2150 1.524 . S
C2150 C2149 1.524 . S
C2150 C2151 1.397 . S
C2150 C2155 1.363 . S
C2151 H2122 0.950 . S
C2151 C2150 1.397 . S
C2151 C2152 1.334 . S
C2152 H2123 0.950 . S
C2152 C2151 1.334 . S
C2152 C2153 1.287 . S
C2153 C2152 1.287 . S
C2153 C2154 1.524 . S
C2153 H2156 0.999 . S
C2154 H2124 0.950 . S
C2154 C2153 1.524 . S
C2154 C2155 1.415 . S
C2155 H2125 0.950 . S
C2155 C2150 1.363 . S
C2155 C2154 1.415 . S
H2156 C2153 0.999 . S
H2157 C2138 0.913 . S
H2158 C2176 0.951 . S
H2159 C2178 0.951 . S
H2160 C2180 0.950 . S
H2161 C2181 0.950 . S
H2162 C2183 0.950 . S
H2163 C2186 0.950 . S
H2164 C2187 0.950 . S
H2165 C2189 0.950 . S
H2166 C2190 0.950 . S
H2167 C2191 0.951 . S
H2168 C2193 0.951 . S
H2169 C2195 0.950 . S
H2170 C2196 0.950 . S
H2171 C2198 0.950 . S
H2172 C2201 0.950 . S
H2173 C2202 0.950 . S
H2174 C2204 0.950 . S
H2175 C2205 0.950 . S
C2176 H2158 0.951 . S
C2176 C2177 1.366 . S
C2176 C2178 1.388 . S
C2177 C2176 1.366 . S
C2177 C2181 1.385 . S
C2178 H2159 0.951 . S
C2178 C2176 1.388 . S
C2178 C2179 1.366 . S
C2179 C2178 1.366 . S
C2179 C2180 1.414 . S
C2179 C2182 1.499 . S
C2180 H2160 0.950 . S
C2180 C2179 1.414 . S
C2180 C2181 1.374 . S
C2181 H2161 0.950 . S
C2181 C2177 1.385 . S
C2181 C2180 1.374 . S
C2182 C2179 1.499 . S
C2182 C2183 1.373 . S
C2182 C2184 1.389 . S
C2183 H2162 0.950 . S
C2183 C2182 1.373 . S
C2183 C2199 1.377 . S
C2184 C2182 1.389 . S
C2184 C2185 1.524 . S
C2184 C2198 1.377 . S
C2185 C2184 1.524 . S
C2185 C2186 1.397 . S
C2185 C2190 1.363 . S
C2186 H2163 0.950 . S
C2186 C2185 1.397 . S
C2186 C2187 1.334 . S
C2187 H2164 0.950 . S
C2187 C2186 1.334 . S
C2187 C2188 1.287 . S
C2188 C2187 1.287 . S
C2188 C2189 1.524 . S
C2188 H2207 0.913 . S
C2189 H2165 0.950 . S
C2189 C2188 1.524 . S
C2189 C2190 1.415 . S
C2190 H2166 0.950 . S
C2190 C2185 1.363 . S
C2190 C2189 1.415 . S
C2191 H2167 0.951 . S
C2191 C2192 1.366 . S
C2191 C2193 1.388 . S
C2192 C2191 1.366 . S
C2192 C2196 1.385 . S
C2193 H2168 0.951 . S
C2193 C2191 1.388 . S
C2193 C2194 1.366 . S
C2194 C2193 1.366 . S
C2194 C2195 1.414 . S
C2194 C2197 1.499 . S
C2195 H2169 0.950 . S
C2195 C2194 1.414 . S
C2195 C2196 1.374 . S
C2196 H2170 0.950 . S
C2196 C2192 1.385 . S
C2196 C2195 1.374 . S
C2197 C2194 1.499 . S
C2197 C2198 1.373 . S
C2197 C2199 1.389 . S
C2198 H2171 0.950 . S
C2198 C2184 1.377 . S
C2198 C2197 1.373 . S
C2199 C2183 1.377 . S
C2199 C2197 1.389 . S
C2199 C2200 1.524 . S
C2200 C2199 1.524 . S
C2200 C2201 1.397 . S
C2200 C2205 1.363 . S
C2201 H2172 0.950 . S
C2201 C2200 1.397 . S
C2201 C2202 1.334 . S
C2202 H2173 0.950 . S
C2202 C2201 1.334 . S
C2202 C2203 1.287 . S
C2203 C2202 1.287 . S
C2203 C2204 1.524 . S
C2203 H2206 0.999 . S
C2204 H2174 0.950 . S
C2204 C2203 1.524 . S
C2204 C2205 1.415 . S
C2205 H2175 0.950 . S
C2205 C2200 1.363 . S
C2205 C2204 1.415 . S
H2206 C2203 0.999 . S
H2207 C2188 0.913 . S
H2208 C2226 0.951 . S
H2209 C2228 0.951 . S
H2210 C2230 0.950 . S
H2211 C2231 0.950 . S
H2212 C2233 0.950 . S
H2213 C2236 0.950 . S
H2214 C2237 0.950 . S
H2215 C2239 0.950 . S
H2216 C2240 0.950 . S
H2217 C2241 0.951 . S
H2218 C2243 0.951 . S
H2219 C2245 0.950 . S
H2220 C2246 0.950 . S
H2221 C2248 0.950 . S
H2222 C2251 0.950 . S
H2223 C2252 0.950 . S
H2224 C2254 0.950 . S
H2225 C2255 0.950 . S
C2226 H2208 0.951 . S
C2226 C2227 1.366 . S
C2226 C2228 1.388 . S
C2227 C2226 1.366 . S
C2227 C2231 1.385 . S
C2228 H2209 0.951 . S
C2228 C2226 1.388 . S
C2228 C2229 1.366 . S
C2229 C2228 1.366 . S
C2229 C2230 1.414 . S
C2229 C2232 1.499 . S
C2230 H2210 0.950 . S
C2230 C2229 1.414 . S
C2230 C2231 1.374 . S
C2231 H2211 0.950 . S
C2231 C2227 1.385 . S
C2231 C2230 1.374 . S
C2232 C2229 1.499 . S
C2232 C2233 1.373 . S
C2232 C2234 1.389 . S
C2233 H2212 0.950 . S
C2233 C2232 1.373 . S
C2233 C2249 1.377 . S
C2234 C2232 1.389 . S
C2234 C2235 1.524 . S
C2234 C2248 1.377 . S
C2235 C2234 1.524 . S
C2235 C2236 1.397 . S
C2235 C2240 1.363 . S
C2236 H2213 0.950 . S
C2236 C2235 1.397 . S
C2236 C2237 1.334 . S
C2237 H2214 0.950 . S
C2237 C2236 1.334 . S
C2237 C2238 1.287 . S
C2238 C2237 1.287 . S
C2238 C2239 1.524 . S
C2238 H2257 0.913 . S
C2239 H2215 0.950 . S
C2239 C2238 1.524 . S
C2239 C2240 1.415 . S
C2240 H2216 0.950 . S
C2240 C2235 1.363 . S
C2240 C2239 1.415 . S
C2241 H2217 0.951 . S
C2241 C2242 1.366 . S
C2241 C2243 1.388 . S
C2242 C2241 1.366 . S
C2242 C2246 1.385 . S
C2243 H2218 0.951 . S
C2243 C2241 1.388 . S
C2243 C2244 1.366 . S
C2244 C2243 1.366 . S
C2244 C2245 1.414 . S
C2244 C2247 1.499 . S
C2245 H2219 0.950 . S
C2245 C2244 1.414 . S
C2245 C2246 1.374 . S
C2246 H2220 0.950 . S
C2246 C2242 1.385 . S
C2246 C2245 1.374 . S
C2247 C2244 1.499 . S
C2247 C2248 1.373 . S
C2247 C2249 1.389 . S
C2248 H2221 0.950 . S
C2248 C2234 1.377 . S
C2248 C2247 1.373 . S
C2249 C2233 1.377 . S
C2249 C2247 1.389 . S
C2249 C2250 1.524 . S
C2250 C2249 1.524 . S
C2250 C2251 1.397 . S
C2250 C2255 1.363 . S
C2251 H2222 0.950 . S
C2251 C2250 1.397 . S
C2251 C2252 1.334 . S
C2252 H2223 0.950 . S
C2252 C2251 1.334 . S
C2252 C2253 1.287 . S
C2253 C2252 1.287 . S
C2253 C2254 1.524 . S
C2253 H2256 0.999 . S
C2254 H2224 0.950 . S
C2254 C2253 1.524 . S
C2254 C2255 1.415 . S
C2255 H2225 0.950 . S
C2255 C2250 1.363 . S
C2255 C2254 1.415 . S
H2256 C2253 0.999 . S
H2257 C2238 0.913 . S
H2258 C2276 0.951 . S
H2259 C2278 0.951 . S
H2260 C2280 0.950 . S
H2261 C2281 0.950 . S
H2262 C2283 0.950 . S
H2263 C2286 0.950 . S
H2264 C2287 0.950 . S
H2265 C2289 0.950 . S
H2266 C2290 0.950 . S
H2267 C2291 0.951 . S
H2268 C2293 0.951 . S
H2269 C2295 0.950 . S
H2270 C2296 0.950 . S
H2271 C2298 0.950 . S
H2272 C2301 0.950 . S
H2273 C2302 0.950 . S
H2274 C2304 0.950 . S
H2275 C2305 0.950 . S
C2276 H2258 0.951 . S
C2276 C2277 1.366 . S
C2276 C2278 1.388 . S
C2277 C2276 1.366 . S
C2277 C2281 1.385 . S
C2278 H2259 0.951 . S
C2278 C2276 1.388 . S
C2278 C2279 1.366 . S
C2279 C2278 1.366 . S
C2279 C2280 1.414 . S
C2279 C2282 1.499 . S
C2280 H2260 0.950 . S
C2280 C2279 1.414 . S
C2280 C2281 1.374 . S
C2281 H2261 0.950 . S
C2281 C2277 1.385 . S
C2281 C2280 1.374 . S
C2282 C2279 1.499 . S
C2282 C2283 1.373 . S
C2282 C2284 1.389 . S
C2283 H2262 0.950 . S
C2283 C2282 1.373 . S
C2283 C2299 1.377 . S
C2284 C2282 1.389 . S
C2284 C2285 1.524 . S
C2284 C2298 1.377 . S
C2285 C2284 1.524 . S
C2285 C2286 1.397 . S
C2285 C2290 1.363 . S
C2286 H2263 0.950 . S
C2286 C2285 1.397 . S
C2286 C2287 1.334 . S
C2287 H2264 0.950 . S
C2287 C2286 1.334 . S
C2287 C2288 1.287 . S
C2288 C2287 1.287 . S
C2288 C2289 1.524 . S
C2288 H2307 0.913 . S
C2289 H2265 0.950 . S
C2289 C2288 1.524 . S
C2289 C2290 1.415 . S
C2290 H2266 0.950 . S
C2290 C2285 1.363 . S
C2290 C2289 1.415 . S
C2291 H2267 0.951 . S
C2291 C2292 1.366 . S
C2291 C2293 1.388 . S
C2292 C2291 1.366 . S
C2292 C2296 1.385 . S
C2293 H2268 0.951 . S
C2293 C2291 1.388 . S
C2293 C2294 1.366 . S
C2294 C2293 1.366 . S
C2294 C2295 1.414 . S
C2294 C2297 1.499 . S
C2295 H2269 0.950 . S
C2295 C2294 1.414 . S
C2295 C2296 1.374 . S
C2296 H2270 0.950 . S
C2296 C2292 1.385 . S
C2296 C2295 1.374 . S
C2297 C2294 1.499 . S
C2297 C2298 1.373 . S
C2297 C2299 1.389 . S
C2298 H2271 0.950 . S
C2298 C2284 1.377 . S
C2298 C2297 1.373 . S
C2299 C2283 1.377 . S
C2299 C2297 1.389 . S
C2299 C2300 1.524 . S
C2300 C2299 1.524 . S
C2300 C2301 1.397 . S
C2300 C2305 1.363 . S
C2301 H2272 0.950 . S
C2301 C2300 1.397 . S
C2301 C2302 1.334 . S
C2302 H2273 0.950 . S
C2302 C2301 1.334 . S
C2302 C2303 1.287 . S
C2303 C2302 1.287 . S
C2303 C2304 1.524 . S
C2303 H2306 0.999 . S
C2304 H2274 0.950 . S
C2304 C2303 1.524 . S
C2304 C2305 1.415 . S
C2305 H2275 0.950 . S
C2305 C2300 1.363 . S
C2305 C2304 1.415 . S
H2306 C2303 0.999 . S
H2307 C2288 0.913 . S
H2308 C2326 0.951 . S
H2309 C2328 0.951 . S
H2310 C2330 0.950 . S
H2311 C2331 0.950 . S
H2312 C2333 0.950 . S
H2313 C2336 0.950 . S
H2314 C2337 0.950 . S
H2315 C2339 0.950 . S
H2316 C2340 0.950 . S
H2317 C2341 0.951 . S
H2318 C2343 0.951 . S
H2319 C2345 0.950 . S
H2320 C2346 0.950 . S
H2321 C2348 0.950 . S
H2322 C2351 0.950 . S
H2323 C2352 0.950 . S
H2324 C2354 0.950 . S
H2325 C2355 0.950 . S
C2326 H2308 0.951 . S
C2326 C2327 1.366 . S
C2326 C2328 1.388 . S
C2327 C2326 1.366 . S
C2327 C2331 1.385 . S
C2328 H2309 0.951 . S
C2328 C2326 1.388 . S
C2328 C2329 1.366 . S
C2329 C2328 1.366 . S
C2329 C2330 1.414 . S
C2329 C2332 1.499 . S
C2330 H2310 0.950 . S
C2330 C2329 1.414 . S
C2330 C2331 1.374 . S
C2331 H2311 0.950 . S
C2331 C2327 1.385 . S
C2331 C2330 1.374 . S
C2332 C2329 1.499 . S
C2332 C2333 1.373 . S
C2332 C2334 1.389 . S
C2333 H2312 0.950 . S
C2333 C2332 1.373 . S
C2333 C2349 1.377 . S
C2334 C2332 1.389 . S
C2334 C2335 1.524 . S
C2334 C2348 1.377 . S
C2335 C2334 1.524 . S
C2335 C2336 1.397 . S
C2335 C2340 1.363 . S
C2336 H2313 0.950 . S
C2336 C2335 1.397 . S
C2336 C2337 1.334 . S
C2337 H2314 0.950 . S
C2337 C2336 1.334 . S
C2337 C2338 1.287 . S
C2338 C2337 1.287 . S
C2338 C2339 1.524 . S
C2338 H2357 0.913 . S
C2339 H2315 0.950 . S
C2339 C2338 1.524 . S
C2339 C2340 1.415 . S
C2340 H2316 0.950 . S
C2340 C2335 1.363 . S
C2340 C2339 1.415 . S
C2341 H2317 0.951 . S
C2341 C2342 1.366 . S
C2341 C2343 1.388 . S
C2342 C2341 1.366 . S
C2342 C2346 1.385 . S
C2343 H2318 0.951 . S
C2343 C2341 1.388 . S
C2343 C2344 1.366 . S
C2344 C2343 1.366 . S
C2344 C2345 1.414 . S
C2344 C2347 1.499 . S
C2345 H2319 0.950 . S
C2345 C2344 1.414 . S
C2345 C2346 1.374 . S
C2346 H2320 0.950 . S
C2346 C2342 1.385 . S
C2346 C2345 1.374 . S
C2347 C2344 1.499 . S
C2347 C2348 1.373 . S
C2347 C2349 1.389 . S
C2348 H2321 0.950 . S
C2348 C2334 1.377 . S
C2348 C2347 1.373 . S
C2349 C2333 1.377 . S
C2349 C2347 1.389 . S
C2349 C2350 1.524 . S
C2350 C2349 1.524 . S
C2350 C2351 1.397 . S
C2350 C2355 1.363 . S
C2351 H2322 0.950 . S
C2351 C2350 1.397 . S
C2351 C2352 1.334 . S
C2352 H2323 0.950 . S
C2352 C2351 1.334 . S
C2352 C2353 1.287 . S
C2353 C2352 1.287 . S
C2353 C2354 1.524 . S
C2353 H2356 0.999 . S
C2354 H2324 0.950 . S
C2354 C2353 1.524 . S
C2354 C2355 1.415 . S
C2355 H2325 0.950 . S
C2355 C2350 1.363 . S
C2355 C2354 1.415 . S
H2356 C2353 0.999 . S
H2357 C2338 0.913 . S
H2358 C2376 0.951 . S
H2359 C2378 0.951 . S
H2360 C2380 0.950 . S
H2361 C2381 0.950 . S
H2362 C2383 0.950 . S
H2363 C2386 0.950 . S
H2364 C2387 0.950 . S
H2365 C2389 0.950 . S
H2366 C2390 0.950 . S
H2367 C2391 0.951 . S
H2368 C2393 0.951 . S
H2369 C2395 0.950 . S
H2370 C2396 0.950 . S
H2371 C2398 0.950 . S
H2372 C2401 0.950 . S
H2373 C2402 0.950 . S
H2374 C2404 0.950 . S
H2375 C2405 0.950 . S
C2376 H2358 0.951 . S
C2376 C2377 1.366 . S
C2376 C2378 1.388 . S
C2377 C2376 1.366 . S
C2377 C2381 1.385 . S
C2378 H2359 0.951 . S
C2378 C2376 1.388 . S
C2378 C2379 1.366 . S
C2379 C2378 1.366 . S
C2379 C2380 1.414 . S
C2379 C2382 1.499 . S
C2380 H2360 0.950 . S
C2380 C2379 1.414 . S
C2380 C2381 1.374 . S
C2381 H2361 0.950 . S
C2381 C2377 1.385 . S
C2381 C2380 1.374 . S
C2382 C2379 1.499 . S
C2382 C2383 1.373 . S
C2382 C2384 1.389 . S
C2383 H2362 0.950 . S
C2383 C2382 1.373 . S
C2383 C2399 1.377 . S
C2384 C2382 1.389 . S
C2384 C2385 1.524 . S
C2384 C2398 1.377 . S
C2385 C2384 1.524 . S
C2385 C2386 1.397 . S
C2385 C2390 1.363 . S
C2386 H2363 0.950 . S
C2386 C2385 1.397 . S
C2386 C2387 1.334 . S
C2387 H2364 0.950 . S
C2387 C2386 1.334 . S
C2387 C2388 1.287 . S
C2388 C2387 1.287 . S
C2388 C2389 1.524 . S
C2388 H2407 0.913 . S
C2389 H2365 0.950 . S
C2389 C2388 1.524 . S
C2389 C2390 1.415 . S
C2390 H2366 0.950 . S
C2390 C2385 1.363 . S
C2390 C2389 1.415 . S
C2391 H2367 0.951 . S
C2391 C2392 1.366 . S
C2391 C2393 1.388 . S
C2392 C2391 1.366 . S
C2392 C2396 1.385 . S
C2393 H2368 0.951 . S
C2393 C2391 1.388 . S
C2393 C2394 1.366 . S
C2394 C2393 1.366 . S
C2394 C2395 1.414 . S
C2394 C2397 1.499 . S
C2395 H2369 0.950 . S
C2395 C2394 1.414 . S
C2395 C2396 1.374 . S
C2396 H2370 0.950 . S
C2396 C2392 1.385 . S
C2396 C2395 1.374 . S
C2397 C2394 1.499 . S
C2397 C2398 1.373 . S
C2397 C2399 1.389 . S
C2398 H2371 0.950 . S
C2398 C2384 1.377 . S
C2398 C2397 1.373 . S
C2399 C2383 1.377 . S
C2399 C2397 1.389 . S
C2399 C2400 1.524 . S
C2400 C2399 1.524 . S
C2400 C2401 1.397 . S
C2400 C2405 1.363 . S
C2401 H2372 0.950 . S
C2401 C2400 1.397 . S
C2401 C2402 1.334 . S
C2402 H2373 0.950 . S
C2402 C2401 1.334 . S
C2402 C2403 1.287 . S
C2403 C2402 1.287 . S
C2403 C2404 1.524 . S
C2403 H2406 0.999 . S
C2404 H2374 0.950 . S
C2404 C2403 1.524 . S
C2404 C2405 1.415 . S
C2405 H2375 0.950 . S
C2405 C2400 1.363 . S
C2405 C2404 1.415 . S
H2406 C2403 0.999 . S
H2407 C2388 0.913 . S
H2408 C2426 0.951 . S
H2409 C2428 0.951 . S
H2410 C2430 0.950 . S
H2411 C2431 0.950 . S
H2412 C2433 0.950 . S
H2413 C2436 0.950 . S
H2414 C2437 0.950 . S
H2415 C2439 0.950 . S
H2416 C2440 0.950 . S
H2417 C2441 0.951 . S
H2418 C2443 0.951 . S
H2419 C2445 0.950 . S
H2420 C2446 0.950 . S
H2421 C2448 0.950 . S
H2422 C2451 0.950 . S
H2423 C2452 0.950 . S
H2424 C2454 0.950 . S
H2425 C2455 0.950 . S
C2426 H2408 0.951 . S
C2426 C2427 1.366 . S
C2426 C2428 1.388 . S
C2427 C2426 1.366 . S
C2427 C2431 1.385 . S
C2428 H2409 0.951 . S
C2428 C2426 1.388 . S
C2428 C2429 1.366 . S
C2429 C2428 1.366 . S
C2429 C2430 1.414 . S
C2429 C2432 1.499 . S
C2430 H2410 0.950 . S
C2430 C2429 1.414 . S
C2430 C2431 1.374 . S
C2431 H2411 0.950 . S
C2431 C2427 1.385 . S
C2431 C2430 1.374 . S
C2432 C2429 1.499 . S
C2432 C2433 1.373 . S
C2432 C2434 1.389 . S
C2433 H2412 0.950 . S
C2433 C2432 1.373 . S
C2433 C2449 1.377 . S
C2434 C2432 1.389 . S
C2434 C2435 1.524 . S
C2434 C2448 1.377 . S
C2435 C2434 1.524 . S
C2435 C2436 1.397 . S
C2435 C2440 1.363 . S
C2436 H2413 0.950 . S
C2436 C2435 1.397 . S
C2436 C2437 1.334 . S
C2437 H2414 0.950 . S
C2437 C2436 1.334 . S
C2437 C2438 1.287 . S
C2438 C2437 1.287 . S
C2438 C2439 1.524 . S
C2438 H2457 0.913 . S
C2439 H2415 0.950 . S
C2439 C2438 1.524 . S
C2439 C2440 1.415 . S
C2440 H2416 0.950 . S
C2440 C2435 1.363 . S
C2440 C2439 1.415 . S
C2441 H2417 0.951 . S
C2441 C2442 1.366 . S
C2441 C2443 1.388 . S
C2442 C2441 1.366 . S
C2442 C2446 1.385 . S
C2443 H2418 0.951 . S
C2443 C2441 1.388 . S
C2443 C2444 1.366 . S
C2444 C2443 1.366 . S
C2444 C2445 1.414 . S
C2444 C2447 1.499 . S
C2445 H2419 0.950 . S
C2445 C2444 1.414 . S
C2445 C2446 1.374 . S
C2446 H2420 0.950 . S
C2446 C2442 1.385 . S
C2446 C2445 1.374 . S
C2447 C2444 1.499 . S
C2447 C2448 1.373 . S
C2447 C2449 1.389 . S
C2448 H2421 0.950 . S
C2448 C2434 1.377 . S
C2448 C2447 1.373 . S
C2449 C2433 1.377 . S
C2449 C2447 1.389 . S
C2449 C2450 1.524 . S
C2450 C2449 1.524 . S
C2450 C2451 1.397 . S
C2450 C2455 1.363 . S
C2451 H2422 0.950 . S
C2451 C2450 1.397 . S
C2451 C2452 1.334 . S
C2452 H2423 0.950 . S
C2452 C2451 1.334 . S
C2452 C2453 1.287 . S
C2453 C2452 1.287 . S
C2453 C2454 1.524 . S
C2453 H2456 0.999 . S
C2454 H2424 0.950 . S
C2454 C2453 1.524 . S
C2454 C2455 1.415 . S
C2455 H2425 0.950 . S
C2455 C2450 1.363 . S
C2455 C2454 1.415 . S
H2456 C2453 0.999 . S
H2457 C2438 0.913 . S
H2458 C2476 0.951 . S
H2459 C2478 0.951 . S
H2460 C2480 0.950 . S
H2461 C2481 0.950 . S
H2462 C2483 0.950 . S
H2463 C2486 0.950 . S
H2464 C2487 0.950 . S
H2465 C2489 0.950 . S
H2466 C2490 0.950 . S
H2467 C2491 0.951 . S
H2468 C2493 0.951 . S
H2469 C2495 0.950 . S
H2470 C2496 0.950 . S
H2471 C2498 0.950 . S
H2472 C2501 0.950 . S
H2473 C2502 0.950 . S
H2474 C2504 0.950 . S
H2475 C2505 0.950 . S
C2476 H2458 0.951 . S
C2476 C2477 1.366 . S
C2476 C2478 1.388 . S
C2477 C2476 1.366 . S
C2477 C2481 1.385 . S
C2478 H2459 0.951 . S
C2478 C2476 1.388 . S
C2478 C2479 1.366 . S
C2479 C2478 1.366 . S
C2479 C2480 1.414 . S
C2479 C2482 1.499 . S
C2480 H2460 0.950 . S
C2480 C2479 1.414 . S
C2480 C2481 1.374 . S
C2481 H2461 0.950 . S
C2481 C2477 1.385 . S
C2481 C2480 1.374 . S
C2482 C2479 1.499 . S
C2482 C2483 1.373 . S
C2482 C2484 1.389 . S
C2483 H2462 0.950 . S
C2483 C2482 1.373 . S
C2483 C2499 1.377 . S
C2484 C2482 1.389 . S
C2484 C2485 1.524 . S
C2484 C2498 1.377 . S
C2485 C2484 1.524 . S
C2485 C2486 1.397 . S
C2485 C2490 1.363 . S
C2486 H2463 0.950 . S
C2486 C2485 1.397 . S
C2486 C2487 1.334 . S
C2487 H2464 0.950 . S
C2487 C2486 1.334 . S
C2487 C2488 1.287 . S
C2488 C2487 1.287 . S
C2488 C2489 1.524 . S
C2488 H2507 0.913 . S
C2489 H2465 0.950 . S
C2489 C2488 1.524 . S
C2489 C2490 1.415 . S
C2490 H2466 0.950 . S
C2490 C2485 1.363 . S
C2490 C2489 1.415 . S
C2491 H2467 0.951 . S
C2491 C2492 1.366 . S
C2491 C2493 1.388 . S
C2492 C2491 1.366 . S
C2492 C2496 1.385 . S
C2493 H2468 0.951 . S
C2493 C2491 1.388 . S
C2493 C2494 1.366 . S
C2494 C2493 1.366 . S
C2494 C2495 1.414 . S
C2494 C2497 1.499 . S
C2495 H2469 0.950 . S
C2495 C2494 1.414 . S
C2495 C2496 1.374 . S
C2496 H2470 0.950 . S
C2496 C2492 1.385 . S
C2496 C2495 1.374 . S
C2497 C2494 1.499 . S
C2497 C2498 1.373 . S
C2497 C2499 1.389 . S
C2498 H2471 0.950 . S
C2498 C2484 1.377 . S
C2498 C2497 1.373 . S
C2499 C2483 1.377 . S
C2499 C2497 1.389 . S
C2499 C2500 1.524 . S
C2500 C2499 1.524 . S
C2500 C2501 1.397 . S
C2500 C2505 1.363 . S
C2501 H2472 0.950 . S
C2501 C2500 1.397 . S
C2501 C2502 1.334 . S
C2502 H2473 0.950 . S
C2502 C2501 1.334 . S
C2502 C2503 1.287 . S
C2503 C2502 1.287 . S
C2503 C2504 1.524 . S
C2503 H2506 0.999 . S
C2504 H2474 0.950 . S
C2504 C2503 1.524 . S
C2504 C2505 1.415 . S
C2505 H2475 0.950 . S
C2505 C2500 1.363 . S
C2505 C2504 1.415 . S
H2506 C2503 0.999 . S
H2507 C2488 0.913 . S
H2508 C2526 0.951 . S
H2509 C2528 0.951 . S
H2510 C2530 0.950 . S
H2511 C2531 0.950 . S
H2512 C2533 0.950 . S
H2513 C2536 0.950 . S
H2514 C2537 0.950 . S
H2515 C2539 0.950 . S
H2516 C2540 0.950 . S
H2517 C2541 0.951 . S
H2518 C2543 0.951 . S
H2519 C2545 0.950 . S
H2520 C2546 0.950 . S
H2521 C2548 0.950 . S
H2522 C2551 0.950 . S
H2523 C2552 0.950 . S
H2524 C2554 0.950 . S
H2525 C2555 0.950 . S
C2526 H2508 0.951 . S
C2526 C2527 1.366 . S
C2526 C2528 1.388 . S
C2527 C2526 1.366 . S
C2527 C2531 1.385 . S
C2528 H2509 0.951 . S
C2528 C2526 1.388 . S
C2528 C2529 1.366 . S
C2529 C2528 1.366 . S
C2529 C2530 1.414 . S
C2529 C2532 1.499 . S
C2530 H2510 0.950 . S
C2530 C2529 1.414 . S
C2530 C2531 1.374 . S
C2531 H2511 0.950 . S
C2531 C2527 1.385 . S
C2531 C2530 1.374 . S
C2532 C2529 1.499 . S
C2532 C2533 1.373 . S
C2532 C2534 1.389 . S
C2533 H2512 0.950 . S
C2533 C2532 1.373 . S
C2533 C2549 1.377 . S
C2534 C2532 1.389 . S
C2534 C2535 1.524 . S
C2534 C2548 1.377 . S
C2535 C2534 1.524 . S
C2535 C2536 1.397 . S
C2535 C2540 1.363 . S
C2536 H2513 0.950 . S
C2536 C2535 1.397 . S
C2536 C2537 1.334 . S
C2537 H2514 0.950 . S
C2537 C2536 1.334 . S
C2537 C2538 1.287 . S
C2538 C2537 1.287 . S
C2538 C2539 1.524 . S
C2538 H2557 0.913 . S
C2539 H2515 0.950 . S
C2539 C2538 1.524 . S
C2539 C2540 1.415 . S
C2540 H2516 0.950 . S
C2540 C2535 1.363 . S
C2540 C2539 1.415 . S
C2541 H2517 0.951 . S
C2541 C2542 1.366 . S
C2541 C2543 1.388 . S
C2542 C2541 1.366 . S
C2542 C2546 1.385 . S
C2543 H2518 0.951 . S
C2543 C2541 1.388 . S
C2543 C2544 1.366 . S
C2544 C2543 1.366 . S
C2544 C2545 1.414 . S
C2544 C2547 1.499 . S
C2545 H2519 0.950 . S
C2545 C2544 1.414 . S
C2545 C2546 1.374 . S
C2546 H2520 0.950 . S
C2546 C2542 1.385 . S
C2546 C2545 1.374 . S
C2547 C2544 1.499 . S
C2547 C2548 1.373 . S
C2547 C2549 1.389 . S
C2548 H2521 0.950 . S
C2548 C2534 1.377 . S
C2548 C2547 1.373 . S
C2549 C2533 1.377 . S
C2549 C2547 1.389 . S
C2549 C2550 1.524 . S
C2550 C2549 1.524 . S
C2550 C2551 1.397 . S
C2550 C2555 1.363 . S
C2551 H2522 0.950 . S
C2551 C2550 1.397 . S
C2551 C2552 1.334 . S
C2552 H2523 0.950 . S
C2552 C2551 1.334 . S
C2552 C2553 1.287 . S
C2553 C2552 1.287 . S
C2553 C2554 1.524 . S
C2553 H2556 0.999 . S
C2554 H2524 0.950 . S
C2554 C2553 1.524 . S
C2554 C2555 1.415 . S
C2555 H2525 0.950 . S
C2555 C2550 1.363 . S
C2555 C2554 1.415 . S
H2556 C2553 0.999 . S
H2557 C2538 0.913 . S
H2558 C2576 0.951 . S
H2559 C2578 0.951 . S
H2560 C2580 0.950 . S
H2561 C2581 0.950 . S
H2562 C2583 0.950 . S
H2563 C2586 0.950 . S
H2564 C2587 0.950 . S
H2565 C2589 0.950 . S
H2566 C2590 0.950 . S
H2567 C2591 0.951 . S
H2568 C2593 0.951 . S
H2569 C2595 0.950 . S
H2570 C2596 0.950 . S
H2571 C2598 0.950 . S
H2572 C2601 0.950 . S
H2573 C2602 0.950 . S
H2574 C2604 0.950 . S
H2575 C2605 0.950 . S
C2576 H2558 0.951 . S
C2576 C2577 1.366 . S
C2576 C2578 1.388 . S
C2577 C2576 1.366 . S
C2577 C2581 1.385 . S
C2578 H2559 0.951 . S
C2578 C2576 1.388 . S
C2578 C2579 1.366 . S
C2579 C2578 1.366 . S
C2579 C2580 1.414 . S
C2579 C2582 1.499 . S
C2580 H2560 0.950 . S
C2580 C2579 1.414 . S
C2580 C2581 1.374 . S
C2581 H2561 0.950 . S
C2581 C2577 1.385 . S
C2581 C2580 1.374 . S
C2582 C2579 1.499 . S
C2582 C2583 1.373 . S
C2582 C2584 1.389 . S
C2583 H2562 0.950 . S
C2583 C2582 1.373 . S
C2583 C2599 1.377 . S
C2584 C2582 1.389 . S
C2584 C2585 1.524 . S
C2584 C2598 1.377 . S
C2585 C2584 1.524 . S
C2585 C2586 1.397 . S
C2585 C2590 1.363 . S
C2586 H2563 0.950 . S
C2586 C2585 1.397 . S
C2586 C2587 1.334 . S
C2587 H2564 0.950 . S
C2587 C2586 1.334 . S
C2587 C2588 1.287 . S
C2588 C2587 1.287 . S
C2588 C2589 1.524 . S
C2588 H2607 0.913 . S
C2589 H2565 0.950 . S
C2589 C2588 1.524 . S
C2589 C2590 1.415 . S
C2590 H2566 0.950 . S
C2590 C2585 1.363 . S
C2590 C2589 1.415 . S
C2591 H2567 0.951 . S
C2591 C2592 1.366 . S
C2591 C2593 1.388 . S
C2592 C2591 1.366 . S
C2592 C2596 1.385 . S
C2593 H2568 0.951 . S
C2593 C2591 1.388 . S
C2593 C2594 1.366 . S
C2594 C2593 1.366 . S
C2594 C2595 1.414 . S
C2594 C2597 1.499 . S
C2595 H2569 0.950 . S
C2595 C2594 1.414 . S
C2595 C2596 1.374 . S
C2596 H2570 0.950 . S
C2596 C2592 1.385 . S
C2596 C2595 1.374 . S
C2597 C2594 1.499 . S
C2597 C2598 1.373 . S
C2597 C2599 1.389 . S
C2598 H2571 0.950 . S
C2598 C2584 1.377 . S
C2598 C2597 1.373 . S
C2599 C2583 1.377 . S
C2599 C2597 1.389 . S
C2599 C2600 1.524 . S
C2600 C2599 1.524 . S
C2600 C2601 1.397 . S
C2600 C2605 1.363 . S
C2601 H2572 0.950 . S
C2601 C2600 1.397 . S
C2601 C2602 1.334 . S
C2602 H2573 0.950 . S
C2602 C2601 1.334 . S
C2602 C2603 1.287 . S
C2603 C2602 1.287 . S
C2603 C2604 1.524 . S
C2603 H2606 0.999 . S
C2604 H2574 0.950 . S
C2604 C2603 1.524 . S
C2604 C2605 1.415 . S
C2605 H2575 0.950 . S
C2605 C2600 1.363 . S
C2605 C2604 1.415 . S
H2606 C2603 0.999 . S
H2607 C2588 0.913 . S
H2608 C2626 0.951 . S
H2609 C2628 0.951 . S
H2610 C2630 0.950 . S
H2611 C2631 0.950 . S
H2612 C2633 0.950 . S
H2613 C2636 0.950 . S
H2614 C2637 0.950 . S
H2615 C2639 0.950 . S
H2616 C2640 0.950 . S
H2617 C2641 0.951 . S
H2618 C2643 0.951 . S
H2619 C2645 0.950 . S
H2620 C2646 0.950 . S
H2621 C2648 0.950 . S
H2622 C2651 0.950 . S
H2623 C2652 0.950 . S
H2624 C2654 0.950 . S
H2625 C2655 0.950 . S
C2626 H2608 0.951 . S
C2626 C2627 1.366 . S
C2626 C2628 1.388 . S
C2627 C2626 1.366 . S
C2627 C2631 1.385 . S
C2628 H2609 0.951 . S
C2628 C2626 1.388 . S
C2628 C2629 1.366 . S
C2629 C2628 1.366 . S
C2629 C2630 1.414 . S
C2629 C2632 1.499 . S
C2630 H2610 0.950 . S
C2630 C2629 1.414 . S
C2630 C2631 1.374 . S
C2631 H2611 0.950 . S
C2631 C2627 1.385 . S
C2631 C2630 1.374 . S
C2632 C2629 1.499 . S
C2632 C2633 1.373 . S
C2632 C2634 1.389 . S
C2633 H2612 0.950 . S
C2633 C2632 1.373 . S
C2633 C2649 1.377 . S
C2634 C2632 1.389 . S
C2634 C2635 1.524 . S
C2634 C2648 1.377 . S
C2635 C2634 1.524 . S
C2635 C2636 1.397 . S
C2635 C2640 1.363 . S
C2636 H2613 0.950 . S
C2636 C2635 1.397 . S
C2636 C2637 1.334 . S
C2637 H2614 0.950 . S
C2637 C2636 1.334 . S
C2637 C2638 1.287 . S
C2638 C2637 1.287 . S
C2638 C2639 1.524 . S
C2638 H2657 0.913 . S
C2639 H2615 0.950 . S
C2639 C2638 1.524 . S
C2639 C2640 1.415 . S
C2640 H2616 0.950 . S
C2640 C2635 1.363 . S
C2640 C2639 1.415 . S
C2641 H2617 0.951 . S
C2641 C2642 1.366 . S
C2641 C2643 1.388 . S
C2642 C2641 1.366 . S
C2642 C2646 1.385 . S
C2643 H2618 0.951 . S
C2643 C2641 1.388 . S
C2643 C2644 1.366 . S
C2644 C2643 1.366 . S
C2644 C2645 1.414 . S
C2644 C2647 1.499 . S
C2645 H2619 0.950 . S
C2645 C2644 1.414 . S
C2645 C2646 1.374 . S
C2646 H2620 0.950 . S
C2646 C2642 1.385 . S
C2646 C2645 1.374 . S
C2647 C2644 1.499 . S
C2647 C2648 1.373 . S
C2647 C2649 1.389 . S
C2648 H2621 0.950 . S
C2648 C2634 1.377 . S
C2648 C2647 1.373 . S
C2649 C2633 1.377 . S
C2649 C2647 1.389 . S
C2649 C2650 1.524 . S
C2650 C2649 1.524 . S
C2650 C2651 1.397 . S
C2650 C2655 1.363 . S
C2651 H2622 0.950 . S
C2651 C2650 1.397 . S
C2651 C2652 1.334 . S
C2652 H2623 0.950 . S
C2652 C2651 1.334 . S
C2652 C2653 1.287 . S
C2653 C2652 1.287 . S
C2653 C2654 1.524 . S
C2653 H2656 0.999 . S
C2654 H2624 0.950 . S
C2654 C2653 1.524 . S
C2654 C2655 1.415 . S
C2655 H2625 0.950 . S
C2655 C2650 1.363 . S
C2655 C2654 1.415 . S
H2656 C2653 0.999 . S
H2657 C2638 0.913 . S
H2658 C2676 0.951 . S
H2659 C2678 0.951 . S
H2660 C2680 0.950 . S
H2661 C2681 0.950 . S
H2662 C2683 0.950 . S
H2663 C2686 0.950 . S
H2664 C2687 0.950 . S
H2665 C2689 0.950 . S
H2666 C2690 0.950 . S
H2667 C2691 0.951 . S
H2668 C2693 0.951 . S
H2669 C2695 0.950 . S
H2670 C2696 0.950 . S
H2671 C2698 0.950 . S
H2672 C2701 0.950 . S
H2673 C2702 0.950 . S
H2674 C2704 0.950 . S
H2675 C2705 0.950 . S
C2676 H2658 0.951 . S
C2676 C2677 1.366 . S
C2676 C2678 1.388 . S
C2677 C2676 1.366 . S
C2677 C2681 1.385 . S
C2678 H2659 0.951 . S
C2678 C2676 1.388 . S
C2678 C2679 1.366 . S
C2679 C2678 1.366 . S
C2679 C2680 1.414 . S
C2679 C2682 1.499 . S
C2680 H2660 0.950 . S
C2680 C2679 1.414 . S
C2680 C2681 1.374 . S
C2681 H2661 0.950 . S
C2681 C2677 1.385 . S
C2681 C2680 1.374 . S
C2682 C2679 1.499 . S
C2682 C2683 1.373 . S
C2682 C2684 1.389 . S
C2683 H2662 0.950 . S
C2683 C2682 1.373 . S
C2683 C2699 1.377 . S
C2684 C2682 1.389 . S
C2684 C2685 1.524 . S
C2684 C2698 1.377 . S
C2685 C2684 1.524 . S
C2685 C2686 1.397 . S
C2685 C2690 1.363 . S
C2686 H2663 0.950 . S
C2686 C2685 1.397 . S
C2686 C2687 1.334 . S
C2687 H2664 0.950 . S
C2687 C2686 1.334 . S
C2687 C2688 1.287 . S
C2688 C2687 1.287 . S
C2688 C2689 1.524 . S
C2688 H2707 0.913 . S
C2689 H2665 0.950 . S
C2689 C2688 1.524 . S
C2689 C2690 1.415 . S
C2690 H2666 0.950 . S
C2690 C2685 1.363 . S
C2690 C2689 1.415 . S
C2691 H2667 0.951 . S
C2691 C2692 1.366 . S
C2691 C2693 1.388 . S
C2692 C2691 1.366 . S
C2692 C2696 1.385 . S
C2693 H2668 0.951 . S
C2693 C2691 1.388 . S
C2693 C2694 1.366 . S
C2694 C2693 1.366 . S
C2694 C2695 1.414 . S
C2694 C2697 1.499 . S
C2695 H2669 0.950 . S
C2695 C2694 1.414 . S
C2695 C2696 1.374 . S
C2696 H2670 0.950 . S
C2696 C2692 1.385 . S
C2696 C2695 1.374 . S
C2697 C2694 1.499 . S
C2697 C2698 1.373 . S
C2697 C2699 1.389 . S
C2698 H2671 0.950 . S
C2698 C2684 1.377 . S
C2698 C2697 1.373 . S
C2699 C2683 1.377 . S
C2699 C2697 1.389 . S
C2699 C2700 1.524 . S
C2700 C2699 1.524 . S
C2700 C2701 1.397 . S
C2700 C2705 1.363 . S
C2701 H2672 0.950 . S
C2701 C2700 1.397 . S
C2701 C2702 1.334 . S
C2702 H2673 0.950 . S
C2702 C2701 1.334 . S
C2702 C2703 1.287 . S
C2703 C2702 1.287 . S
C2703 C2704 1.524 . S
C2703 H2706 0.999 . S
C2704 H2674 0.950 . S
C2704 C2703 1.524 . S
C2704 C2705 1.415 . S
C2705 H2675 0.950 . S
C2705 C2700 1.363 . S
C2705 C2704 1.415 . S
H2706 C2703 0.999 . S
H2707 C2688 0.913 . S
H2708 C2726 0.951 . S
H2709 C2728 0.951 . S
H2710 C2730 0.950 . S
H2711 C2731 0.950 . S
H2712 C2733 0.950 . S
H2713 C2736 0.950 . S
H2714 C2737 0.950 . S
H2715 C2739 0.950 . S
H2716 C2740 0.950 . S
H2717 C2741 0.951 . S
H2718 C2743 0.951 . S
H2719 C2745 0.950 . S
H2720 C2746 0.950 . S
H2721 C2748 0.950 . S
H2722 C2751 0.950 . S
H2723 C2752 0.950 . S
H2724 C2754 0.950 . S
H2725 C2755 0.950 . S
C2726 H2708 0.951 . S
C2726 C2727 1.366 . S
C2726 C2728 1.388 . S
C2727 C2726 1.366 . S
C2727 C2731 1.385 . S
C2728 H2709 0.951 . S
C2728 C2726 1.388 . S
C2728 C2729 1.366 . S
C2729 C2728 1.366 . S
C2729 C2730 1.414 . S
C2729 C2732 1.499 . S
C2730 H2710 0.950 . S
C2730 C2729 1.414 . S
C2730 C2731 1.374 . S
C2731 H2711 0.950 . S
C2731 C2727 1.385 . S
C2731 C2730 1.374 . S
C2732 C2729 1.499 . S
C2732 C2733 1.373 . S
C2732 C2734 1.389 . S
C2733 H2712 0.950 . S
C2733 C2732 1.373 . S
C2733 C2749 1.377 . S
C2734 C2732 1.389 . S
C2734 C2735 1.524 . S
C2734 C2748 1.377 . S
C2735 C2734 1.524 . S
C2735 C2736 1.397 . S
C2735 C2740 1.363 . S
C2736 H2713 0.950 . S
C2736 C2735 1.397 . S
C2736 C2737 1.334 . S
C2737 H2714 0.950 . S
C2737 C2736 1.334 . S
C2737 C2738 1.287 . S
C2738 C2737 1.287 . S
C2738 C2739 1.524 . S
C2738 H2757 0.913 . S
C2739 H2715 0.950 . S
C2739 C2738 1.524 . S
C2739 C2740 1.415 . S
C2740 H2716 0.950 . S
C2740 C2735 1.363 . S
C2740 C2739 1.415 . S
C2741 H2717 0.951 . S
C2741 C2742 1.366 . S
C2741 C2743 1.388 . S
C2742 C2741 1.366 . S
C2742 C2746 1.385 . S
C2743 H2718 0.951 . S
C2743 C2741 1.388 . S
C2743 C2744 1.366 . S
C2744 C2743 1.366 . S
C2744 C2745 1.414 . S
C2744 C2747 1.499 . S
C2745 H2719 0.950 . S
C2745 C2744 1.414 . S
C2745 C2746 1.374 . S
C2746 H2720 0.950 . S
C2746 C2742 1.385 . S
C2746 C2745 1.374 . S
C2747 C2744 1.499 . S
C2747 C2748 1.373 . S
C2747 C2749 1.389 . S
C2748 H2721 0.950 . S
C2748 C2734 1.377 . S
C2748 C2747 1.373 . S
C2749 C2733 1.377 . S
C2749 C2747 1.389 . S
C2749 C2750 1.524 . S
C2750 C2749 1.524 . S
C2750 C2751 1.397 . S
C2750 C2755 1.363 . S
C2751 H2722 0.950 . S
C2751 C2750 1.397 . S
C2751 C2752 1.334 . S
C2752 H2723 0.950 . S
C2752 C2751 1.334 . S
C2752 C2753 1.287 . S
C2753 C2752 1.287 . S
C2753 C2754 1.524 . S
C2753 H2756 0.999 . S
C2754 H2724 0.950 . S
C2754 C2753 1.524 . S
C2754 C2755 1.415 . S
C2755 H2725 0.950 . S
C2755 C2750 1.363 . S
C2755 C2754 1.415 . S
H2756 C2753 0.999 . S
H2757 C2738 0.913 . S
C392 C187 1.847 . S
C377 C19 1.932 . S
C442 C188 1.883 . S
C427 C24 1.881 . S
C492 C182 1.140 . S
C477 C59 1.146 . S
C527 C69 1.114 . S
C542 C181 1.142 . S
C577 C82 1.880 . S
C592 C184 1.883 . S
C642 C186 1.141 . S
C627 C118 1.144 . S
C677 C132 1.114 . S
C692 C185 1.142 . S
C727 C158 1.932 . S
C742 C183 1.847 . S
C792 C218 1.828 . S
C777 C4 1.646 . S
C827 C29 0.977 . S
C842 C249 0.959 . S
C892 C217 1.526 . S
C877 C44 1.442 . S
C942 C252 1.050 . S
C927 C79 1.029 . S
C977 C98 1.329 . S
C992 C215 1.310 . S
C1042 C247 1.535 . S
C1027 C112 1.464 . S
C1077 C122 1.000 . S
C1092 C220 1.022 . S
C1127 C152 1.255 . S
C1142 C254 1.276 . S
C1177 C9 1.255 . S
C1192 C250 1.276 . S
C1227 C92 0.975 . S
C1242 C253 0.960 . S
C1292 C221 1.526 . S
C1277 C102 1.446 . S
C1342 C248 1.050 . S
C1327 C138 1.035 . S
C1377 C142 1.648 . S
C1392 C214 1.830 . S
C1427 C49 1.462 . S
C1442 C251 1.534 . S
C1492 C216 1.022 . S
C1477 C64 0.996 . S
C1527 C39 1.329 . S
C1542 C219 1.307 . S
C1577 C159 1.924 . S
C1592 C286 1.845 . S
C1627 C84 1.394 . S
C1642 C287 1.414 . S
C1692 C281 1.158 . S
C1677 C119 1.168 . S
C1742 C280 1.638 . S
C1727 C129 1.612 . S
C1777 C22 1.393 . S
C1792 C283 1.412 . S
C1842 C285 1.158 . S
C1827 C58 1.166 . S
C1877 C72 1.612 . S
C1892 C284 1.637 . S
C1927 C18 1.924 . S
C1942 C282 1.842 . S
C1977 C144 1.787 . S
C1992 C320 1.873 . S
C2042 C352 0.742 . S
C2027 C89 0.739 . S
C2077 C104 1.377 . S
C2092 C313 1.501 . S
C2127 C139 1.349 . S
C2142 C347 1.381 . S
C2192 C318 1.059 . S
C2177 C38 1.061 . S
C2227 C52 1.600 . S
C2242 C349 1.632 . S
C2292 C315 1.277 . S
C2277 C62 1.273 . S
C2342 C350 1.291 . S
C2327 C12 1.201 . S
C2392 C346 1.291 . S
C2377 C149 1.201 . S
C2427 C32 0.739 . S
C2442 C348 0.742 . S
C2477 C42 1.376 . S
C2492 C317 1.501 . S
C2542 C351 1.381 . S
C2527 C78 1.349 . S
C2577 C2 1.788 . S
C2592 C316 1.873 . S
C2627 C109 1.598 . S
C2642 C353 1.632 . S
C2692 C319 1.278 . S
C2677 C124 1.273 . S
C2742 C314 1.059 . S
C2727 C99 1.061 . S
