# Generated by pormake.
# Topology fgl, (4,4)-cn, num edge types: 1
# Building blocks:
#     Node 0, Type 0, BuildingBlock: ESEHIV_clean_sbu_0, # of connection points: 4
#     Node 1, Type 0, BuildingBlock: ESEHIV_clean_sbu_0, # of connection points: 4
#     Node 2, Type 0, BuildingBlock: ESEHIV_clean_sbu_0, # of connection points: 4
#     Node 3, Type 0, BuildingBlock: ESEHIV_clean_sbu_0, # of connection points: 4
#     Node 4, Type 0, BuildingBlock: ESEHIV_clean_sbu_0, # of connection points: 4
#     Node 5, Type 0, BuildingBlock: ESEHIV_clean_sbu_0, # of connection points: 4
#     Node 6, Type 0, BuildingBlock: ESEHIV_clean_sbu_0, # of connection points: 4
#     Node 7, Type 0, BuildingBlock: ESEHIV_clean_sbu_0, # of connection points: 4
#     Node 8, Type 0, BuildingBlock: ESEHIV_clean_sbu_0, # of connection points: 4
#     Node 9, Type 0, BuildingBlock: ESEHIV_clean_sbu_0, # of connection points: 4
#     Node 10, Type 0, BuildingBlock: ESEHIV_clean_sbu_0, # of connection points: 4
#     Node 11, Type 0, BuildingBlock: ESEHIV_clean_sbu_0, # of connection points: 4
#     Node 12, Type 0, BuildingBlock: ESEHIV_clean_sbu_0, # of connection points: 4
#     Node 13, Type 0, BuildingBlock: ESEHIV_clean_sbu_0, # of connection points: 4
#     Node 14, Type 0, BuildingBlock: ESEHIV_clean_sbu_0, # of connection points: 4
#     Node 15, Type 0, BuildingBlock: ESEHIV_clean_sbu_0, # of connection points: 4
#     Node 16, Type 0, BuildingBlock: ESEHIV_clean_sbu_0, # of connection points: 4
#     Node 17, Type 0, BuildingBlock: ESEHIV_clean_sbu_0, # of connection points: 4
#     Node 18, Type 1, BuildingBlock: CEKHIL_clean_sbu_0, # of connection points: 4
#     Node 19, Type 1, BuildingBlock: CEKHIL_clean_sbu_0, # of connection points: 4
#     Node 20, Type 1, BuildingBlock: CEKHIL_clean_sbu_0, # of connection points: 4
#     Node 21, Type 1, BuildingBlock: CEKHIL_clean_sbu_0, # of connection points: 4
#     Node 22, Type 1, BuildingBlock: CEKHIL_clean_sbu_0, # of connection points: 4
#     Node 23, Type 1, BuildingBlock: CEKHIL_clean_sbu_0, # of connection points: 4
#     Node 24, Type 1, BuildingBlock: CEKHIL_clean_sbu_0, # of connection points: 4
#     Node 25, Type 1, BuildingBlock: CEKHIL_clean_sbu_0, # of connection points: 4
#     Node 26, Type 1, BuildingBlock: CEKHIL_clean_sbu_0, # of connection points: 4
#     Node 27, Type 1, BuildingBlock: CEKHIL_clean_sbu_0, # of connection points: 4
#     Node 28, Type 1, BuildingBlock: CEKHIL_clean_sbu_0, # of connection points: 4
#     Node 29, Type 1, BuildingBlock: CEKHIL_clean_sbu_0, # of connection points: 4
#     Node 30, Type 1, BuildingBlock: CEKHIL_clean_sbu_0, # of connection points: 4
#     Node 31, Type 1, BuildingBlock: CEKHIL_clean_sbu_0, # of connection points: 4
#     Node 32, Type 1, BuildingBlock: CEKHIL_clean_sbu_0, # of connection points: 4
#     Node 33, Type 1, BuildingBlock: CEKHIL_clean_sbu_0, # of connection points: 4
#     Node 34, Type 1, BuildingBlock: CEKHIL_clean_sbu_0, # of connection points: 4
#     Node 35, Type 1, BuildingBlock: CEKHIL_clean_sbu_0, # of connection points: 4
#     Edge 36, Type (0, 1), BuildingBlock: AJUNOK_clean_linker_0, # of connection points: 2
#     Edge 37, Type (0, 1), BuildingBlock: AJUNOK_clean_linker_0, # of connection points: 2
#     Edge 38, Type (0, 1), BuildingBlock: AJUNOK_clean_linker_0, # of connection points: 2
#     Edge 39, Type (0, 1), BuildingBlock: AJUNOK_clean_linker_0, # of connection points: 2
#     Edge 40, Type (0, 1), BuildingBlock: AJUNOK_clean_linker_0, # of connection points: 2
#     Edge 41, Type (0, 1), BuildingBlock: AJUNOK_clean_linker_0, # of connection points: 2
#     Edge 42, Type (0, 1), BuildingBlock: AJUNOK_clean_linker_0, # of connection points: 2
#     Edge 43, Type (0, 1), BuildingBlock: AJUNOK_clean_linker_0, # of connection points: 2
#     Edge 44, Type (0, 1), BuildingBlock: AJUNOK_clean_linker_0, # of connection points: 2
#     Edge 45, Type (0, 1), BuildingBlock: AJUNOK_clean_linker_0, # of connection points: 2
#     Edge 46, Type (0, 1), BuildingBlock: AJUNOK_clean_linker_0, # of connection points: 2
#     Edge 47, Type (0, 1), BuildingBlock: AJUNOK_clean_linker_0, # of connection points: 2
#     Edge 48, Type (0, 1), BuildingBlock: AJUNOK_clean_linker_0, # of connection points: 2
#     Edge 49, Type (0, 1), BuildingBlock: AJUNOK_clean_linker_0, # of connection points: 2
#     Edge 50, Type (0, 1), BuildingBlock: AJUNOK_clean_linker_0, # of connection points: 2
#     Edge 51, Type (0, 1), BuildingBlock: AJUNOK_clean_linker_0, # of connection points: 2
#     Edge 52, Type (0, 1), BuildingBlock: AJUNOK_clean_linker_0, # of connection points: 2
#     Edge 53, Type (0, 1), BuildingBlock: AJUNOK_clean_linker_0, # of connection points: 2
#     Edge 54, Type (0, 1), BuildingBlock: AJUNOK_clean_linker_0, # of connection points: 2
#     Edge 55, Type (0, 1), BuildingBlock: AJUNOK_clean_linker_0, # of connection points: 2
#     Edge 56, Type (0, 1), BuildingBlock: AJUNOK_clean_linker_0, # of connection points: 2
#     Edge 57, Type (0, 1), BuildingBlock: AJUNOK_clean_linker_0, # of connection points: 2
#     Edge 58, Type (0, 1), BuildingBlock: AJUNOK_clean_linker_0, # of connection points: 2
#     Edge 59, Type (0, 1), BuildingBlock: AJUNOK_clean_linker_0, # of connection points: 2
#     Edge 60, Type (0, 1), BuildingBlock: AJUNOK_clean_linker_0, # of connection points: 2
#     Edge 61, Type (0, 1), BuildingBlock: AJUNOK_clean_linker_0, # of connection points: 2
#     Edge 62, Type (0, 1), BuildingBlock: AJUNOK_clean_linker_0, # of connection points: 2
#     Edge 63, Type (0, 1), BuildingBlock: AJUNOK_clean_linker_0, # of connection points: 2
#     Edge 64, Type (0, 1), BuildingBlock: AJUNOK_clean_linker_0, # of connection points: 2
#     Edge 65, Type (0, 1), BuildingBlock: AJUNOK_clean_linker_0, # of connection points: 2
#     Edge 66, Type (0, 1), BuildingBlock: AJUNOK_clean_linker_0, # of connection points: 2
#     Edge 67, Type (0, 1), BuildingBlock: AJUNOK_clean_linker_0, # of connection points: 2
#     Edge 68, Type (0, 1), BuildingBlock: AJUNOK_clean_linker_0, # of connection points: 2
#     Edge 69, Type (0, 1), BuildingBlock: AJUNOK_clean_linker_0, # of connection points: 2
#     Edge 70, Type (0, 1), BuildingBlock: AJUNOK_clean_linker_0, # of connection points: 2
#     Edge 71, Type (0, 1), BuildingBlock: AJUNOK_clean_linker_0, # of connection points: 2
#     Edge 72, Type (0, 1), BuildingBlock: AJUNOK_clean_linker_0, # of connection points: 2
#     Edge 73, Type (0, 1), BuildingBlock: AJUNOK_clean_linker_0, # of connection points: 2
#     Edge 74, Type (0, 1), BuildingBlock: AJUNOK_clean_linker_0, # of connection points: 2
#     Edge 75, Type (0, 1), BuildingBlock: AJUNOK_clean_linker_0, # of connection points: 2
#     Edge 76, Type (0, 1), BuildingBlock: AJUNOK_clean_linker_0, # of connection points: 2
#     Edge 77, Type (0, 1), BuildingBlock: AJUNOK_clean_linker_0, # of connection points: 2
#     Edge 78, Type (0, 1), BuildingBlock: AJUNOK_clean_linker_0, # of connection points: 2
#     Edge 79, Type (0, 1), BuildingBlock: AJUNOK_clean_linker_0, # of connection points: 2
#     Edge 80, Type (0, 1), BuildingBlock: AJUNOK_clean_linker_0, # of connection points: 2
#     Edge 81, Type (0, 1), BuildingBlock: AJUNOK_clean_linker_0, # of connection points: 2
#     Edge 82, Type (0, 1), BuildingBlock: AJUNOK_clean_linker_0, # of connection points: 2
#     Edge 83, Type (0, 1), BuildingBlock: AJUNOK_clean_linker_0, # of connection points: 2
#     Edge 84, Type (0, 1), BuildingBlock: AJUNOK_clean_linker_0, # of connection points: 2
#     Edge 85, Type (0, 1), BuildingBlock: AJUNOK_clean_linker_0, # of connection points: 2
#     Edge 86, Type (0, 1), BuildingBlock: AJUNOK_clean_linker_0, # of connection points: 2
#     Edge 87, Type (0, 1), BuildingBlock: AJUNOK_clean_linker_0, # of connection points: 2
#     Edge 88, Type (0, 1), BuildingBlock: AJUNOK_clean_linker_0, # of connection points: 2
#     Edge 89, Type (0, 1), BuildingBlock: AJUNOK_clean_linker_0, # of connection points: 2
#     Edge 90, Type (0, 1), BuildingBlock: AJUNOK_clean_linker_0, # of connection points: 2
#     Edge 91, Type (0, 1), BuildingBlock: AJUNOK_clean_linker_0, # of connection points: 2
#     Edge 92, Type (0, 1), BuildingBlock: AJUNOK_clean_linker_0, # of connection points: 2
#     Edge 93, Type (0, 1), BuildingBlock: AJUNOK_clean_linker_0, # of connection points: 2
#     Edge 94, Type (0, 1), BuildingBlock: AJUNOK_clean_linker_0, # of connection points: 2
#     Edge 95, Type (0, 1), BuildingBlock: AJUNOK_clean_linker_0, # of connection points: 2
#     Edge 96, Type (0, 1), BuildingBlock: AJUNOK_clean_linker_0, # of connection points: 2
#     Edge 97, Type (0, 1), BuildingBlock: AJUNOK_clean_linker_0, # of connection points: 2
#     Edge 98, Type (0, 1), BuildingBlock: AJUNOK_clean_linker_0, # of connection points: 2
#     Edge 99, Type (0, 1), BuildingBlock: AJUNOK_clean_linker_0, # of connection points: 2
#     Edge 100, Type (0, 1), BuildingBlock: AJUNOK_clean_linker_0, # of connection points: 2
#     Edge 101, Type (0, 1), BuildingBlock: AJUNOK_clean_linker_0, # of connection points: 2
#     Edge 102, Type (0, 1), BuildingBlock: AJUNOK_clean_linker_0, # of connection points: 2
#     Edge 103, Type (0, 1), BuildingBlock: AJUNOK_clean_linker_0, # of connection points: 2
#     Edge 104, Type (0, 1), BuildingBlock: AJUNOK_clean_linker_0, # of connection points: 2
#     Edge 105, Type (0, 1), BuildingBlock: AJUNOK_clean_linker_0, # of connection points: 2
#     Edge 106, Type (0, 1), BuildingBlock: AJUNOK_clean_linker_0, # of connection points: 2
#     Edge 107, Type (0, 1), BuildingBlock: AJUNOK_clean_linker_0, # of connection points: 2
# Relax obj value: 0.021
# Max RMSD: 0.138
# Mean RMSD: 0.078
data_MOF--net-fgl--node1-ESEHIV_clean_sbu_0--node2-CEKHIL_clean_sbu_0--edge1-AJUNOK_clean_linker_0
_symmetry_space_group_name_H-M    P1
_symmetry_Int_Tables_number       1
_symmetry_cell_setting            triclinic
loop_
_symmetry_equiv_pos_as_xyz
'x, y, z'
_cell_length_a     55.959222
_cell_length_b     55.500511
_cell_length_c     37.6458
_cell_angle_alpha  90.782626
_cell_angle_beta   90.826819
_cell_angle_gamma 119.95666
loop_
_atom_site_label
_atom_site_type_symbol
_atom_site_fract_x
_atom_site_fract_y
_atom_site_fract_z
_atom_type_partial_charge
Cu0 Cu 0.0305 0.53709 0.03295 0.0
N1 N 1.01093 0.54164 0.07088 0.0
N2 N 1.00461 0.56368 0.11751 0.0
C3 C 0.02276 0.5635 0.09423 0.0
C4 C 0.98033 0.54076 0.10851 0.0
C5 C 0.98421 0.52738 0.07967 0.0
O6 O 0.0436 0.5716 1.00816 0.0
C7 C 0.05142 0.51353 0.07985 0.0
O8 O 0.03175 0.51178 0.1001 0.0
H9 H 0.04449 0.57885 0.09415 0.0
H10 H 0.96854 0.50888 0.06582 0.0
N11 N 1.01153 0.50804 0.99878 0.0
N12 N 1.00795 0.48016 0.95227 0.0
C13 C 0.02311 0.50548 0.96857 0.0
C14 C 0.98823 0.48351 1.0018 0.0
C15 C 0.98585 0.46649 0.9732 0.0
C16 C 0.02302 0.57346 0.99683 0.0
O17 O 0.99806 0.55218 1.00027 0.0
H18 H 0.04281 0.5217 0.9596 0.0
H19 H 0.97479 0.47772 0.02427 0.0
O20 O 0.05746 0.52811 0.05202 0.0
H21 H 0.96097 0.53439 0.1214 0.0
H22 H 0.96976 0.44503 0.96931 0.0
Cu23 Cu 0.54581 0.56761 0.03913 0.0
N24 N 0.54615 0.58654 0.99744 0.0
N25 N 0.56074 0.60567 0.94389 0.0
C26 C 0.55685 0.58496 0.96596 0.0
C27 C 0.55168 0.62057 0.96219 0.0
C28 C 0.5428 0.60883 0.99498 0.0
O29 O 0.58338 0.59221 0.06103 0.0
C30 C 0.52118 0.50574 0.04041 0.0
O31 O 0.52687 0.50768 0.07465 0.0
H32 H 0.56361 0.57013 0.96047 0.0
H33 H 0.53644 0.61727 1.01654 0.0
N34 N 0.52228 0.56823 0.07471 0.0
N35 N 0.49797 0.55598 0.12502 0.0
C36 C 0.5033 0.54696 0.0941 0.0
C37 C 0.52858 0.59133 0.09408 0.0
C38 C 0.51386 0.58388 0.125 0.0
C39 C 0.6048 0.60868 0.04361 0.0
O40 O 0.60517 0.60349 1.0096 0.0
H41 H 0.49509 0.52525 0.08731 0.0
H42 H 0.54483 0.612 0.08784 0.0
O43 O 0.53068 0.5281 0.02262 0.0
H44 H 0.55342 0.63994 0.95379 0.0
H45 H 0.51606 0.59774 0.14691 0.0
Cu46 Cu 0.50838 0.03639 0.02656 0.0
N47 N 0.49206 0.01331 0.98658 0.0
N48 N 0.46733 0.99845 0.93595 0.0
C49 C 0.47277 0.0141 0.96586 0.0
C50 C 0.48395 0.98739 0.93764 0.0
C51 C 0.49903 0.99635 0.96929 0.0
O52 O 0.48167 0.04666 0.04562 0.0
C53 C 0.55906 0.06678 0.98744 0.0
O54 O 0.54435 0.05335 0.95896 0.0
H55 H 0.46415 0.02736 0.97153 0.0
H56 H 0.51513 0.99224 0.97799 0.0
N57 N 0.51524 0.01798 0.06224 0.0
N58 N 0.54062 0.01628 0.10706 0.0
C59 C 0.53275 0.0321 0.08938 0.0
C60 C 0.5114 0.99205 0.06299 0.0
C61 C 0.52714 0.99094 0.09085 0.0
C62 C 0.45913 0.02696 0.05779 0.0
O63 O 0.45554 1.00168 0.05706 0.0
H64 H 0.5417 0.0543 0.0938 0.0
H65 H 0.49976 0.97585 0.04323 0.0
O66 O 0.54657 0.0658 1.01612 0.0
H67 H 0.4857 0.97461 0.91702 0.0
H68 H 0.52972 0.97342 0.09738 0.0
Cu69 Cu 0.54369 0.04567 0.53228 0.0
N70 N 0.54347 0.03157 0.48671 0.0
N71 N 0.56065 0.02929 0.43412 0.0
C72 C 0.5662 0.04129 0.46693 0.0
C73 C 0.53325 1.01087 0.43358 0.0
C74 C 0.52269 1.01236 0.46602 0.0
O75 O 0.57891 0.05109 0.55401 0.0
C76 C 0.52506 0.08102 0.50022 0.0
O77 O 0.52571 0.0692 0.4701 0.0
H78 H 0.58647 0.05686 0.47674 0.0
H79 H 0.50134 1.00084 0.47359 0.0
N80 N 0.51436 0.02128 0.56056 0.0
N81 N 0.48344 1.00963 0.60376 0.0
C82 C 0.50597 0.03031 0.58856 0.0
C83 C 0.49638 0.99381 0.55753 0.0
C84 C 0.4773 0.98658 0.58414 0.0
C85 C 0.57934 0.02906 0.56313 0.0
O86 O 0.55621 1.00515 0.5607 0.0
H87 H 0.51571 0.05201 0.59651 0.0
H88 H 0.49681 0.98012 0.53715 0.0
O89 O 0.53596 0.07705 0.52821 0.0
H90 H 0.52151 0.99778 0.41102 0.0
H91 H 0.4601 0.96597 0.58847 0.0
Cu92 Cu 0.05974 0.56955 0.55729 0.0
N93 N 0.07788 0.56039 0.59419 0.0
N94 N 0.08264 0.53403 0.63653 0.0
C95 C 0.0651 0.53716 0.61418 0.0
C96 C 0.10745 0.55687 0.63086 0.0
C97 C 0.10451 0.57279 0.60488 0.0
O98 O 0.03023 0.53283 0.54263 0.0
C99 C 0.07206 0.62287 0.57235 0.0
O100 O 0.09643 0.62547 0.56746 0.0
H101 H 0.04329 0.52225 0.61145 0.0
H102 H 0.12076 0.59191 0.5943 0.0
N103 N 0.07682 0.58502 0.51362 0.0
N104 N 0.08001 0.60618 0.46164 0.0
C105 C 0.06414 0.59317 0.48967 0.0
C106 C 0.10173 0.59289 0.50011 0.0
C107 C 0.10364 0.60572 0.46796 0.0
C108 C 0.04111 0.51865 0.53183 0.0
O109 O 0.06808 0.5308 0.53004 0.0
H110 H 0.0435 0.58968 0.49311 0.0
H111 H 0.1176 0.59019 0.51303 0.0
O112 O 0.05114 0.59825 0.57337 0.0
H113 H 0.12658 0.56215 0.64466 0.0
H114 H 0.1214 0.61473 0.45108 0.0
Cu115 Cu 0.54206 0.60232 0.5263 0.0
N116 N 0.56652 0.63882 0.5134 0.0
N117 N 0.60603 0.67566 0.4969 0.0
C118 C 0.59207 0.64788 0.50123 0.0
C119 C 0.5882 0.68432 0.50598 0.0
C120 C 0.56388 0.66156 0.51626 0.0
O121 O 0.55721 0.59602 0.57056 0.0
C122 C 0.51904 0.55262 0.48166 0.0
O123 O 0.5134 0.53895 0.51145 0.0
H124 H 0.60059 0.63443 0.49658 0.0
H125 H 0.54576 0.66164 0.52572 0.0
N126 N 0.50772 0.59744 0.53908 0.0
N127 N 0.46327 0.56935 0.55195 0.0
C128 C 0.48362 0.57488 0.52913 0.0
C129 C 0.5022 0.6074 0.56871 0.0
C130 C 0.47482 0.59016 0.57668 0.0
C131 C 0.58164 0.60046 0.576 0.0
O132 O 0.59716 0.60395 0.54856 0.0
H133 H 0.48185 0.56058 0.50837 0.0
H134 H 0.51768 0.62383 0.5857 0.0
O135 O 0.53456 0.57895 0.48324 0.0
H136 H 0.59233 0.70554 0.50531 0.0
H137 H 0.46507 0.59127 0.60079 0.0
Cu138 Cu 0.71444 0.89383 0.36324 0.0
N139 N 0.72966 0.92903 0.34472 0.0
N140 N 0.72918 0.96553 0.32248 0.0
C141 C 0.714 0.93875 0.33116 0.0
C142 C 0.75558 0.97318 0.3306 0.0
C143 C 0.75585 0.95036 0.34437 0.0
O144 O 0.69642 0.89645 0.40846 0.0
C145 C 0.70955 0.87158 0.29343 0.0
O146 O 0.7337 0.89442 0.29293 0.0
H147 H 0.69174 0.92652 0.32843 0.0
H148 H 0.77373 0.94956 0.35399 0.0
N149 N 0.74188 0.88589 0.37522 0.0
N150 N 0.76188 0.8599 0.37604 0.0
C151 C 0.73976 0.86157 0.36555 0.0
C152 C 0.76631 0.90037 0.3927 0.0
C153 C 0.77868 0.88421 0.39347 0.0
C154 C 0.71203 0.91766 0.42884 0.0
O155 O 0.73752 0.93387 0.41914 0.0
H156 H 0.72209 0.84523 0.35116 0.0
H157 H 0.7745 0.92097 0.40437 0.0
O158 O 0.69528 0.86694 0.32182 0.0
H159 H 0.77324 0.99356 0.32659 0.0
H160 H 0.79795 0.88956 0.407 0.0
Cu161 Cu 0.2214 0.90141 0.38055 0.0
N162 N 0.21597 0.86545 0.37198 0.0
N163 N 0.18842 0.8211 0.3529 0.0
C164 C 0.1986 0.84835 0.34595 0.0
C165 C 0.20033 0.8211 0.38435 0.0
C166 C 0.21716 0.84834 0.39606 0.0
O167 O 0.19169 0.89277 0.41564 0.0
C168 C 0.22572 0.93832 0.32114 0.0
O169 O 0.22311 0.95484 0.34412 0.0
H170 H 0.19061 0.85568 0.32493 0.0
H171 H 0.22691 0.85494 0.42211 0.0
N172 N 0.2558 0.92708 0.40356 0.0
N173 N 0.29293 0.96769 0.42242 0.0
C174 C 0.27235 0.95467 0.39747 0.0
C175 C 0.26648 0.92267 0.43338 0.0
C176 C 0.28913 0.94742 0.44497 0.0
C177 C 0.16745 0.87121 0.41333 0.0
O178 O 0.15859 0.85838 0.38234 0.0
H179 H 0.26857 0.96537 0.37631 0.0
H180 H 0.25766 0.90305 0.44678 0.0
O181 O 0.22277 0.91523 0.33166 0.0
H182 H 0.19561 0.80273 0.39916 0.0
H183 H 0.30147 0.95041 0.46879 0.0
Cu184 Cu 0.20144 0.40754 0.38585 0.0
N185 N 0.18752 0.3861 0.34429 0.0
N186 N 0.16219 0.37056 0.29426 0.0
C187 C 0.16896 0.38759 0.32298 0.0
C188 C 0.1772 0.35776 0.29739 0.0
C189 C 0.19283 0.36735 0.32862 0.0
O190 O 0.17242 0.41583 0.40119 0.0
C191 C 0.25312 0.44088 0.3505 0.0
O192 O 0.23916 0.42835 0.32119 0.0
H193 H 0.16085 0.40136 0.32818 0.0
H194 H 0.20715 0.3613 0.33899 0.0
N195 N 0.20595 0.38726 0.42129 0.0
N196 N 0.22624 0.38053 0.46835 0.0
C197 C 0.22408 0.39934 0.4485 0.0
C198 C 0.19598 0.35974 0.42401 0.0
C199 C 0.20848 0.35549 0.45326 0.0
C200 C 0.14928 0.39445 0.40865 0.0
O201 O 0.14742 0.36994 0.40643 0.0
H202 H 0.23665 0.42165 0.45245 0.0
H203 H 0.18145 0.34403 0.40541 0.0
O204 O 0.2399 0.43782 0.37913 0.0
H205 H 0.17669 0.34247 0.27877 0.0
H206 H 0.20522 0.33565 0.46223 0.0
Cu207 Cu 0.2194 0.38058 0.88806 0.0
N208 N 0.24625 0.40793 0.86082 0.0
N209 N 0.27401 0.42288 0.81454 0.0
C210 C 0.25594 0.40072 0.83269 0.0
C211 C 0.27582 0.44521 0.83197 0.0
C212 C 0.25848 0.43585 0.86067 0.0
O213 O 0.23655 0.3562 0.89371 0.0
C214 C 0.15949 0.35431 0.86563 0.0
O215 O 0.15365 0.33509 0.88929 0.0
H216 H 0.24936 0.37934 0.82534 0.0
H217 H 0.2545 0.44837 0.87929 0.0
N218 N 0.21644 0.39465 0.93232 0.0
N219 N 0.19725 0.39886 0.98212 0.0
C220 C 0.19353 0.38394 0.95185 0.0
C221 C 0.23536 0.41736 0.95071 0.0
C222 C 0.22359 0.42001 0.98141 0.0
C223 C 0.25354 0.36054 0.91983 0.0
O224 O 0.25411 0.37594 0.94693 0.0
H225 H 0.17419 0.36617 0.94335 0.0
H226 H 0.2562 0.43107 0.94233 0.0
O227 O 0.18488 0.3718 0.86013 0.0
H228 H 0.28785 0.46656 0.82381 0.0
H229 H 0.23359 0.43636 1.00152 0.0
Cu230 Cu 0.71826 0.89394 0.87374 0.0
N231 N 0.73637 0.87588 0.85491 0.0
N232 N 0.73734 0.83849 0.83326 0.0
C233 C 0.72211 0.85093 0.83792 0.0
C234 C 0.76232 0.85635 0.84798 0.0
C235 C 0.76174 0.87949 0.86113 0.0
O236 O 0.7015 0.87121 0.91807 0.0
C237 C 0.71656 0.9126 0.80581 0.0
O238 O 0.7425 0.91961 0.81122 0.0
H239 H 0.70023 0.84107 0.83172 0.0
H240 H 0.77804 0.89668 0.87626 0.0
N241 N 0.74007 0.93142 0.88924 0.0
N242 N 0.74894 0.97459 0.90393 0.0
C243 C 0.72976 0.9488 0.89235 0.0
C244 C 0.76686 0.94684 0.89905 0.0
C245 C 0.7723 0.97335 0.90846 0.0
C246 C 0.71957 0.87307 0.94146 0.0
O247 O 0.74557 0.89004 0.93454 0.0
H248 H 0.70829 0.94233 0.8871 0.0
H249 H 0.78138 0.93938 0.89975 0.0
O250 O 0.69944 0.89903 0.83051 0.0
H251 H 0.77935 0.85239 0.85046 0.0
H252 H 0.79191 0.99038 0.91809 0.0
Cu253 Cu 0.17977 0.89647 0.86722 0.0
N254 N 0.15665 0.89381 0.82888 0.0
N255 N 0.13455 0.87702 0.77638 0.0
C256 C 0.15237 0.87679 0.80075 0.0
C257 C 0.12771 0.8955 0.78946 0.0
C258 C 0.14129 0.90576 0.82198 0.0
O259 O 0.16226 0.85886 0.88528 0.0
C260 C 0.22461 0.9335 0.83159 0.0
O261 O 0.20817 0.94403 0.83026 0.0
H262 H 0.16267 0.86477 0.79817 0.0
H263 H 0.14 0.9208 0.83915 0.0
N264 N 0.18346 0.92051 0.90529 0.0
N265 N 0.19837 0.94234 0.9585 0.0
C266 C 0.20279 0.92871 0.9316 0.0
C267 C 0.1662 0.92936 0.91572 0.0
C268 C 0.17512 0.9425 0.94852 0.0
C269 C 0.13998 0.8517 0.90172 0.0
O270 O 0.13222 0.87018 0.90674 0.0
H271 H 0.21954 0.92426 0.93117 0.0
H272 H 0.14748 0.92507 0.90164 0.0
O273 O 0.21635 0.91073 0.84773 0.0
H274 H 0.11359 0.90088 0.77674 0.0
H275 H 0.16431 0.95026 0.9643 0.0
Cu276 Cu 0.38428 0.23235 0.71587 0.0
N277 N 0.36362 0.2473 0.69703 0.0
N278 N 0.35511 0.28072 0.68014 0.0
C279 C 0.37459 0.2744 0.6896 0.0
C280 C 0.33085 0.25674 0.68189 0.0
C281 C 0.33617 0.23605 0.69228 0.0
O282 O 0.39907 0.25364 0.76243 0.0
C283 C 0.40423 0.23253 0.64398 0.0
O284 O 0.39037 0.2448 0.63448 0.0
H285 H 0.39643 0.28935 0.69194 0.0
H286 H 0.32108 0.21456 0.69674 0.0
N287 N 0.36302 0.1945 0.72622 0.0
N288 N 0.3549 0.15116 0.73328 0.0
C289 C 0.37299 0.17695 0.72286 0.0
C290 C 0.33753 0.17907 0.73919 0.0
C291 C 0.3326 0.15229 0.74397 0.0
C292 C 0.38063 0.25163 0.78427 0.0
O293 O 0.35463 0.23547 0.77479 0.0
H294 H 0.39357 0.18321 0.71406 0.0
H295 H 0.32369 0.18672 0.74554 0.0
O296 O 0.40778 0.23019 0.67737 0.0
H297 H 0.3108 0.25438 0.6759 0.0
H298 H 0.31437 0.13517 0.75502 0.0
Cu299 Cu 0.86586 0.21082 0.68642 0.0
N300 N 0.86579 0.22608 0.64167 0.0
N301 N 0.87956 0.25004 0.59117 0.0
C302 C 0.88656 0.24781 0.62506 0.0
C303 C 0.85341 0.22903 0.58626 0.0
C304 C 0.84508 0.21431 0.61722 0.0
O305 O 0.90171 0.23712 0.71126 0.0
C306 C 0.83789 0.14973 0.69362 0.0
O307 O 0.83465 0.15364 0.72718 0.0
H308 H 0.90655 0.26161 0.63717 0.0
H309 H 0.8256 0.19556 0.6212 0.0
N310 N 0.8374 0.20934 0.71449 0.0
N311 N 0.80593 0.1941 0.75744 0.0
C312 C 0.83167 0.20037 0.74821 0.0
C313 C 0.81505 0.21025 0.70274 0.0
C314 C 0.79576 0.20106 0.7291 0.0
C315 C 0.92605 0.24853 0.69866 0.0
O316 O 0.92976 0.23859 0.66866 0.0
H317 H 0.84518 0.19614 0.76452 0.0
H318 H 0.81219 0.21551 0.67608 0.0
O319 O 0.85391 0.17085 0.67507 0.0
H320 H 0.84161 0.22386 0.56152 0.0
H321 H 0.77542 0.19875 0.72689 0.0
Cu322 Cu 0.8761 0.72531 0.70571 0.0
N323 N 0.86972 0.74908 0.6787 0.0
N324 N 0.85283 0.75997 0.63177 0.0
C325 C 0.8566 0.74041 0.64708 0.0
C326 C 0.86438 0.78213 0.65451 0.0
C327 C 0.87467 0.77522 0.68387 0.0
O328 O 0.83801 0.69494 0.71231 0.0
C329 C 0.9227 0.73976 0.66588 0.0
O330 O 0.92333 0.7637 0.66804 0.0
H331 H 0.85032 0.72012 0.63539 0.0
H332 H 0.88491 0.78819 0.70712 0.0
N333 N 0.89375 0.74075 0.74909 0.0
N334 N 0.91797 0.74351 0.79812 0.0
C335 C 0.91088 0.73343 0.76452 0.0
C336 C 0.89039 0.75685 0.7732 0.0
C337 C 0.90541 0.75862 0.8036 0.0
C338 C 0.82541 0.6913 0.74158 0.0
O339 O 0.84003 0.70083 0.77124 0.0
H340 H 0.91741 0.72035 0.7513 0.0
H341 H 0.8768 0.76529 0.76971 0.0
O342 O 0.90235 0.71839 0.67933 0.0
H343 H 0.86503 0.80171 0.65037 0.0
H344 H 0.90581 0.76894 0.82839 0.0
Cu345 Cu 0.86434 0.70419 0.1993 0.0
N346 N 0.86583 0.6871 0.15681 0.0
N347 N 0.88574 0.67862 0.11072 0.0
C348 C 0.8897 0.69367 0.14092 0.0
C349 C 0.85806 0.66197 0.10739 0.0
C350 C 0.84585 0.66711 0.13599 0.0
O351 O 0.90193 0.71704 0.221 0.0
C352 C 0.83575 0.7298 0.16255 0.0
O353 O 0.83783 0.71744 0.13375 0.0
H354 H 0.9097 0.70925 0.15151 0.0
H355 H 0.82401 0.65737 0.14087 0.0
N356 N 0.83958 0.67925 0.23155 0.0
N357 N 0.81709 0.66705 0.28268 0.0
C358 C 0.83718 0.68769 0.26424 0.0
C359 C 0.82031 0.65211 0.22893 0.0
C360 C 0.80631 0.64449 0.26059 0.0
C361 C 0.906 0.69775 0.23321 0.0
O362 O 0.88504 0.67223 0.23304 0.0
H363 H 0.84935 0.70904 0.27379 0.0
H364 H 0.8164 0.63895 0.20562 0.0
O365 O 0.8486 0.72955 0.19112 0.0
H366 H 0.84719 0.64774 0.08535 0.0
H367 H 0.7895 0.62407 0.26668 0.0
Cu368 Cu 0.38938 0.24822 0.23012 0.0
N369 N 0.36152 0.21321 0.21444 0.0
N370 N 0.3427 0.16892 0.19636 0.0
C371 C 0.3654 0.19131 0.20995 0.0
C372 C 0.32364 0.17684 0.19232 0.0
C373 C 0.33529 0.20424 0.20368 0.0
O374 O 0.40686 0.23874 0.27118 0.0
C375 C 0.39246 0.27206 0.16403 0.0
O376 O 0.36668 0.26235 0.17281 0.0
H377 H 0.38485 0.19211 0.21536 0.0
H378 H 0.32553 0.21683 0.2033 0.0
N379 N 0.37541 0.27036 0.24803 0.0
N380 N 0.37416 0.30936 0.26015 0.0
C381 C 0.38955 0.2984 0.24867 0.0
C382 C 0.35003 0.26325 0.25925 0.0
C383 C 0.34921 0.28727 0.26673 0.0
C384 C 0.38986 0.22475 0.29571 0.0
O385 O 0.36454 0.22019 0.29205 0.0
H386 H 0.41054 0.31047 0.23982 0.0
H387 H 0.33322 0.24214 0.2615 0.0
O388 O 0.40824 0.268 0.18549 0.0
H389 H 0.30294 0.16385 0.18149 0.0
H390 H 0.33175 0.28841 0.27673 0.0
Cu391 Cu 0.85577 0.24609 0.1843 0.0
N392 N 0.83645 0.24748 0.14407 0.0
N393 N 0.80892 0.22999 0.09551 0.0
C394 C 0.81896 0.2244 0.12516 0.0
C395 C 0.8206 0.25802 0.09599 0.0
C396 C 0.83747 0.26875 0.12612 0.0
O397 O 0.83124 0.20912 0.20234 0.0
C398 C 0.90502 0.26565 0.14363 0.0
O399 O 0.8901 0.26621 0.11677 0.0
H400 H 0.81419 0.20379 0.1328 0.0
H401 H 0.85043 0.29048 0.13354 0.0
N402 N 0.86175 0.27245 0.21989 0.0
N403 N 0.88158 0.30031 0.26767 0.0
C404 C 0.88123 0.2806 0.24593 0.0
C405 C 0.84912 0.28733 0.22536 0.0
C406 C 0.86118 0.30441 0.25497 0.0
C407 C 0.8085 0.20524 0.21483 0.0
O408 O 0.80509 0.22681 0.21942 0.0
H409 H 0.89536 0.2727 0.24834 0.0
H410 H 0.83237 0.28586 0.20901 0.0
O411 O 0.89308 0.25432 0.17237 0.0
H412 H 0.81839 0.27014 0.07529 0.0
H413 H 0.85525 0.31863 0.26626 0.0
Co414 Co 0.04243 0.66912 0.28795 0.0
O415 O 0.06389 0.65357 0.30838 0.0
O416 O 0.03501 0.66123 0.33855 0.0
C417 C 0.02858 0.64101 0.2376 0.0
O418 O 1.01497 0.68331 0.27596 0.0
Co419 Co 0.05761 0.7001 0.21819 0.0
O420 O 0.02285 0.70119 0.2214 0.0
C421 C 0.09289 0.72748 0.28157 0.0
C422 C 0.05254 0.65229 0.33859 0.0
C423 C 1.0087 0.6941 0.24945 0.0
O424 O 0.07412 0.70827 0.3005 0.0
O425 O 0.0911 0.7266 0.2476 0.0
O426 O 1.0157 0.63247 0.26729 0.0
O427 O 0.05032 0.66549 0.23977 0.0
Co428 Co 0.42059 0.48071 0.30516 0.0
O429 O 0.45341 0.49146 0.27708 0.0
O430 O 0.41702 0.49349 0.2585 0.0
C431 C 0.44511 0.50257 0.35647 0.0
O432 O 0.38315 0.47362 0.32435 0.0
Co433 Co 0.4044 0.4467 0.37357 0.0
O434 O 0.37386 0.45477 0.37811 0.0
C435 C 0.40171 0.41967 0.30405 0.0
C436 C 0.44153 0.49781 0.25188 0.0
C437 C 0.36762 0.46485 0.35177 0.0
O438 O 0.40365 0.44065 0.2871 0.0
O439 O 0.40432 0.41954 0.33786 0.0
O440 O 0.44095 0.51657 0.33203 0.0
O441 O 0.43476 0.47652 0.34902 0.0
Co442 Co 0.65415 0.05984 0.26108 0.0
O443 O 0.6225 0.03356 0.28708 0.0
O444 O 0.65531 0.07384 0.30912 0.0
C445 C 0.6286 0.05634 0.21198 0.0
O446 O 0.68984 0.09258 0.24256 0.0
Co447 Co 0.67005 0.04325 0.18961 0.0
O448 O 0.70052 0.08209 0.18935 0.0
C449 C 0.68117 0.0248 0.25811 0.0
C450 C 0.63188 0.05119 0.31367 0.0
C451 C 0.70589 0.09871 0.21576 0.0
O452 O 0.67525 0.04098 0.276 0.0
O453 O 0.67751 0.02083 0.22443 0.0
O454 O 0.63139 0.07318 0.23811 0.0
O455 O 0.64056 0.04194 0.21681 0.0
Co456 Co 0.04516 0.4043 0.7715 0.0
O457 O 0.03066 0.42356 0.74198 0.0
O458 O 0.07451 0.43737 0.74891 0.0
C459 C 1.01373 0.35963 0.75078 0.0
O460 O 0.06993 0.39067 0.79672 0.0
Co461 Co 1.01238 0.36029 0.82733 0.0
O462 O 0.04384 0.35332 0.82923 0.0
C463 C 0.02731 0.41886 0.8408 0.0
C464 C 0.05586 0.44154 0.73394 0.0
C465 C 0.06699 0.37009 0.81594 0.0
O466 O 0.04516 0.42686 0.81561 0.0
O467 O 1.01071 0.39318 0.8468 0.0
O468 O 0.03555 0.37577 0.73284 0.0
O469 O 1.01119 0.37131 0.7791 0.0
Co470 Co 0.66451 0.67475 0.78112 0.0
O471 O 0.63065 0.66849 0.80286 0.0
O472 O 0.64979 0.64291 0.81269 0.0
C473 C 0.68816 0.72164 0.79348 0.0
O474 O 0.70021 0.67551 0.76556 0.0
Co475 Co 0.68886 0.71319 0.71702 0.0
O476 O 0.72076 0.70738 0.72345 0.0
C477 C 0.6416 0.65646 0.7048 0.0
C478 C 0.63025 0.64828 0.82017 0.0
C479 C 0.72034 0.68929 0.74428 0.0
O480 O 0.64285 0.65041 0.73766 0.0
O481 O 0.6568 0.68068 0.69244 0.0
O482 O 0.6862 0.70395 0.81707 0.0
O483 O 0.67453 0.71054 0.76414 0.0
Co484 Co 0.39263 0.02957 0.75449 0.0
O485 O 0.42796 0.0462 0.73163 0.0
O486 O 0.39443 1.00296 0.72211 0.0
C487 C 0.38434 0.06542 0.74615 0.0
O488 O 0.35322 1.0051 0.77185 0.0
Co489 Co 0.38342 0.05654 0.82206 0.0
O490 O 0.34407 0.02995 0.81161 0.0
C491 C 0.41091 0.0232 0.82893 0.0
C492 C 0.41916 0.02258 0.71479 0.0
C493 C 0.33656 1.00844 0.79191 0.0
O494 O 0.40776 0.01718 0.79536 0.0
O495 O 0.40412 0.03968 0.84379 0.0
O496 O 0.37936 0.04728 0.7208 0.0
O497 O 0.39649 0.0629 0.77409 0.0
Co498 Co 0.70484 0.98519 0.62059 0.0
O499 O 0.72223 0.96723 0.64684 0.0
O500 O 0.68951 0.97338 0.66814 0.0
C501 C 0.69933 0.96166 0.56647 0.0
O502 O 0.67942 1.00056 0.6039 0.0
Co503 Co 0.7267 0.02061 0.55364 0.0
O504 O 0.69264 0.02326 0.5527 0.0
C505 C 0.75532 0.04435 0.62296 0.0
C506 C 0.706 0.96357 0.67316 0.0
C507 C 0.676 0.01406 0.57829 0.0
O508 O 0.73511 0.02408 0.63947 0.0
O509 O 0.75637 0.04484 0.58905 0.0
O510 O 0.68203 0.94993 0.59197 0.0
O511 O 0.71943 0.98606 0.57499 0.0
Co512 Co 0.08596 0.78723 0.59138 0.0
O513 O 0.12089 0.80629 0.56638 0.0
O514 O 0.08079 0.79527 0.54209 0.0
C515 C 0.10188 0.81481 0.64187 0.0
O516 O 0.04575 0.7695 0.60848 0.0
Co517 Co 0.08008 0.75826 0.66388 0.0
O518 O 0.04284 0.75369 0.66397 0.0
C519 C 0.07683 0.7279 0.59719 0.0
C520 C 0.10743 0.80765 0.53885 0.0
C521 C 0.03194 0.75798 0.63667 0.0
O522 O 0.0799 0.74842 0.57781 0.0
O523 O 0.07789 0.72884 0.63112 0.0
O524 O 0.09438 0.82307 0.61388 0.0
O525 O 0.10152 0.79158 0.6375 0.0
Co526 Co 0.33695 0.4168 0.62695 0.0
O527 O 0.3082 0.39525 0.66005 0.0
O528 O 0.34471 0.43657 0.67165 0.0
C529 C 0.30769 0.40953 0.58101 0.0
O530 O 0.36991 0.44747 0.60196 0.0
Co531 Co 0.34895 0.39742 0.55608 0.0
O532 O 0.36964 0.43741 0.54433 0.0
C533 C 0.3602 0.37845 0.62441 0.0
C534 C 0.32175 0.41606 0.6824 0.0
C535 C 0.37806 0.45491 0.57018 0.0
O536 O 0.35725 0.39691 0.64191 0.0
O537 O 0.35629 0.37457 0.59073 0.0
O538 O 0.313 0.4289 0.60485 0.0
O539 O 0.31983 0.39527 0.58591 0.0
Co540 Co 0.70699 0.77125 0.10743 0.0
O541 O 0.68494 0.78282 0.07792 0.0
O542 O 0.72995 0.80443 0.07947 0.0
C543 C 0.68133 0.7244 0.09184 0.0
O544 O 0.73835 0.76539 0.12972 0.0
Co545 Co 0.68538 0.73154 0.1693 0.0
O546 O 0.72088 0.73159 0.16975 0.0
C547 C 0.69604 0.7887 0.182 0.0
C548 C 0.70773 0.8027 0.06554 0.0
C549 C 0.74109 0.74899 0.15174 0.0
O550 O 0.70725 0.79516 0.15086 0.0
O551 O 0.68428 0.76367 0.19279 0.0
O552 O 0.70015 0.7423 0.07136 0.0
O553 O 0.67726 0.73544 0.11994 0.0
Co554 Co 0.30837 0.01519 0.1428 0.0
O555 O 0.27584 1.00573 0.1704 0.0
O556 O 0.29881 0.98339 0.1737 0.0
C557 C 0.32708 0.06135 0.15585 0.0
O558 O 0.34445 0.02013 0.12011 0.0
Co559 Co 0.32666 0.05609 0.08008 0.0
O560 O 0.36233 0.05728 0.08492 0.0
C561 C 0.27724 0.9996 0.07263 0.0
C562 C 0.27897 0.98677 0.18587 0.0
C563 C 0.36431 0.03831 0.10097 0.0
O564 O 0.28395 0.99111 0.101 0.0
O565 O 0.29043 0.02478 0.06243 0.0
O566 O 0.3304 0.04533 0.17784 0.0
O567 O 0.31285 0.04904 0.12757 0.0
Co568 Co 0.07892 0.38613 0.11253 0.0
O569 O 0.11627 0.40812 0.09723 0.0
O570 O 0.08859 0.36409 0.08158 0.0
C571 C 0.06851 0.4199 0.10131 0.0
O572 O 0.03851 0.3569 0.12225 0.0
Co573 Co 0.05827 0.40614 0.17623 0.0
O574 O 0.02223 0.37266 0.16578 0.0
C575 C 0.09426 0.38201 0.18877 0.0
C576 C 0.11258 0.38649 0.07909 0.0
C577 C 1.01912 0.35409 0.14301 0.0
O578 O 0.09236 0.3749 0.15574 0.0
O579 O 0.08389 0.39625 0.20132 0.0
O580 O 0.06684 0.40281 0.07619 0.0
O581 O 0.07728 0.41668 0.13176 0.0
Co582 Co 0.39405 0.33777 0.9707 0.0
O583 O 0.41641 0.32637 0.99974 0.0
O584 O 0.38026 0.32769 1.0187 0.0
C585 C 0.39174 0.31277 0.91947 0.0
O586 O 0.36293 0.34511 0.95181 0.0
Co587 Co 0.40969 0.37018 0.90229 0.0
O588 O 0.37044 0.36062 0.89636 0.0
C589 C 0.43723 0.4001 0.9697 0.0
C590 C 0.4 0.32259 0.0259 0.0
C591 C 0.35476 0.35165 0.92292 0.0
O592 O 0.41955 0.37857 0.98688 0.0
O593 O 0.43768 0.39998 0.93568 0.0
O594 O 0.37546 0.30094 0.94592 0.0
O595 O 0.40945 0.33877 0.92522 0.0
Co596 Co 0.72862 0.11799 0.93692 0.0
O597 O 0.76319 0.13574 0.91203 0.0
O598 O 0.72253 0.12227 0.88691 0.0
C599 C 0.74541 0.14892 0.98356 0.0
O600 O 0.68835 0.10135 0.95367 0.0
Co601 Co 0.72207 0.09308 1.0107 0.0
O602 O 0.68709 0.09395 1.01212 0.0
C603 C 0.7304 0.06478 0.94886 0.0
C604 C 0.74916 0.13462 0.8837 0.0
C605 C 0.67573 0.09591 0.98361 0.0
O606 O 0.72516 0.07985 0.92766 0.0
O607 O 0.73227 0.06862 0.98265 0.0
O608 O 0.73634 0.15466 0.95477 0.0
O609 O 0.74485 0.12539 0.98277 0.0
Co610 Co 0.99114 0.70566 0.95499 0.0
O611 O 0.95585 0.68118 0.97503 0.0
O612 O 0.99179 0.71359 1.00571 0.0
C613 C 0.97379 0.71745 0.90817 0.0
O614 O 0.03037 0.73527 0.94238 0.0
Co615 Co 1.00463 0.69136 0.88092 0.0
O616 O 0.03805 0.72839 0.8856 0.0
C617 C 1.00925 0.66249 0.94347 0.0
C618 C 0.96594 0.69411 1.00514 0.0
C619 C 0.04568 0.74232 0.91478 0.0
O620 O 1.00354 0.67771 0.96378 0.0
O621 O 1.00902 0.66359 0.90954 0.0
O622 O 0.9779 0.73011 0.93875 0.0
O623 O 0.97812 0.69662 0.9075 0.0
Co624 Co 0.40326 0.13314 0.4581 0.0
O625 O 0.38154 0.14674 0.43288 0.0
O626 O 0.42602 0.16478 0.4273 0.0
C627 C 0.37299 0.08644 0.44462 0.0
O628 O 0.43355 0.12445 0.47643 0.0
Co629 Co 0.38222 0.09318 0.52108 0.0
O630 O 0.41634 0.09111 0.51727 0.0
C631 C 0.3979 0.1523 0.53379 0.0
C632 C 0.40368 0.16465 0.41701 0.0
C633 C 0.43601 0.1076 0.49785 0.0
O634 O 0.40843 0.15862 0.50226 0.0
O635 O 0.38521 0.12721 0.54436 0.0
O636 O 0.39095 0.10257 0.42193 0.0
O637 O 0.3729 0.09913 0.47355 0.0
Co638 Co 0.98424 0.36398 0.45581 0.0
O639 O 0.94808 0.34772 0.47659 0.0
O640 O 0.97364 0.32779 0.47558 0.0
C641 C 0.99883 0.40595 0.48238 0.0
O642 O 0.02355 0.37457 0.43938 0.0
Co643 Co 1.0089 0.41498 0.40773 0.0
O644 O 0.04476 0.41666 0.41503 0.0
C645 C 0.96258 0.36048 0.38113 0.0
C646 C 0.95128 0.32712 0.48611 0.0
C647 C 0.04539 0.39563 0.42693 0.0
O648 O 0.96628 0.3477 0.4073 0.0
O649 O 0.9763 0.38697 0.3786 0.0
O650 O 1.00026 0.38644 0.49931 0.0
O651 O 0.98858 0.39949 0.45053 0.0
Co652 Co 0.76986 0.73206 0.42865 0.0
O653 O 0.80019 0.73113 0.40677 0.0
O654 O 0.76042 0.69385 0.41874 0.0
C655 C 0.77208 0.76507 0.39308 0.0
O656 O 0.73318 0.72474 0.44934 0.0
Co657 Co 0.77577 0.78618 0.4635 0.0
O658 O 0.73502 0.76476 0.46562 0.0
C659 C 0.79987 0.75528 0.49826 0.0
C660 C 0.7844 0.70437 0.40406 0.0
C661 C 0.72168 0.73845 0.46081 0.0
O662 O 0.78614 0.7337 0.47754 0.0
O663 O 0.80054 0.77844 0.49401 0.0
O664 O 0.75827 0.73919 0.38245 0.0
O665 O 0.7843 0.76996 0.42362 0.0
C666 C 0.06197 0.48387 0.11844 0.0
C667 C 0.05977 0.49232 0.08411 0.0
C668 C 0.06478 0.46045 0.12364 0.0
C669 C 0.06491 0.44418 0.09471 0.0
H670 H 0.06092 0.49515 0.14154 0.0
H671 H 0.06638 0.45481 0.15064 0.0
S672 S 0.05914 0.45709 0.99932 0.0
N673 N 0.05782 0.48259 0.02062 0.0
N674 N 0.06271 0.43831 0.03035 0.0
C675 C 0.06291 0.4525 0.06016 0.0
C676 C 0.06051 0.47667 0.05486 0.0
C677 C 0.62165 0.64833 0.08964 0.0
C678 C 0.62654 0.63659 0.059 0.0
C679 C 0.63982 0.67628 0.10076 0.0
C680 C 0.66374 0.69392 0.08177 0.0
H681 H 0.60304 0.63623 0.10439 0.0
H682 H 0.63452 0.68436 0.12382 0.0
S683 S 0.68782 0.6728 1.00201 0.0
N684 N 0.65867 0.64463 1.01166 0.0
N685 N 0.69225 0.69656 0.03228 0.0
C686 C 0.6695 0.68205 0.05211 0.0
C687 C 0.65112 0.65366 0.04086 0.0
C688 C 0.41198 1.00838 0.08432 0.0
C689 C 0.43632 0.03124 0.07148 0.0
C690 C 0.38935 1.01094 0.09546 0.0
C691 C 0.38982 0.03648 0.09414 0.0
H692 H 0.41005 0.98798 0.08519 0.0
H693 H 0.37098 0.9925 0.1039 0.0
S694 S 0.44937 0.10351 0.06615 0.0
N695 N 0.45992 0.08077 0.06063 0.0
N696 N 0.41783 0.08576 0.08143 0.0
C697 C 0.41445 0.05978 0.0827 0.0
C698 C 0.4375 0.05714 0.07144 0.0
C699 C 0.49877 0.10176 0.47053 0.0
C700 C 0.50652 0.09346 0.50203 0.0
C701 C 0.4773 0.10822 0.46967 0.0
C702 C 0.46215 0.10614 0.50015 0.0
H703 H 0.50867 0.10223 0.44584 0.0
H704 H 0.47149 0.11327 0.44448 0.0
S705 S 0.47558 0.08801 0.59024 0.0
N706 N 0.49849 0.08596 0.56517 0.0
N707 N 0.45811 0.09738 0.56356 0.0
C708 C 0.47064 0.0993 0.53221 0.0
C709 C 0.49278 0.09321 0.53318 0.0
C710 C 1.008 0.47814 0.49431 0.0
C711 C 0.02527 0.48857 0.52458 0.0
C712 C 0.99909 0.45107 0.48135 0.0
C713 C 1.00707 0.43358 0.49839 0.0
H714 H 1.00278 0.49148 0.47935 0.0
H715 H 0.98648 0.44413 0.45721 0.0
S716 S 0.05033 0.4509 0.58066 0.0
N717 N 0.04884 0.47929 0.57252 0.0
N718 N 0.03162 0.42823 0.54875 0.0
C719 C 0.0231 0.44339 0.52987 0.0
C720 C 0.03236 0.47099 0.54279 0.0
C721 C 0.64621 0.68127 0.46338 0.0
C722 C 0.63458 0.69223 0.48707 0.0
C723 C 0.67425 0.69631 0.45492 0.0
C724 C 0.69188 0.72303 0.46969 0.0
H725 H 0.63348 0.66085 0.4512 0.0
H726 H 0.68213 0.68691 0.43654 0.0
S727 S 0.67213 0.7605 0.535 0.0
N728 N 0.6433 0.73095 0.52649 0.0
N729 N 0.69569 0.75944 0.51022 0.0
C730 C 0.68049 0.73426 0.49344 0.0
C731 C 0.65198 0.71885 0.50219 0.0
C732 C 0.03383 0.61008 0.95254 0.0
C733 C 0.02548 0.59999 0.98668 0.0
C734 C 0.02932 0.63101 0.93925 0.0
C735 C 1.0163 0.6425 0.9597 0.0
H736 H 0.04242 0.60067 0.93531 0.0
H737 H 0.03534 0.6376 0.9123 0.0
S738 S 0.99253 0.62393 0.05213 0.0
N739 N 1.00508 0.60353 0.04149 0.0
N740 N 0.99686 0.64309 1.01702 0.0
C741 C 1.00925 0.63344 0.99473 0.0
C742 C 1.01372 0.61205 1.00804 0.0
C743 C 0.49548 0.4757 0.98629 0.0
C744 C 0.50062 0.47801 0.02328 0.0
C745 C 0.47511 0.4507 0.96971 0.0
C746 C 0.45841 0.42649 0.98912 0.0
H747 H 0.50721 0.49348 0.96977 0.0
H748 H 0.47238 0.45056 0.94116 0.0
S749 S 0.46314 0.42099 0.08694 0.0
N750 N 0.48697 0.45336 0.07901 0.0
N751 N 0.44885 0.40672 0.04792 0.0
C752 C 0.46332 0.42841 0.02619 0.0
C753 C 0.48428 0.45393 0.04315 0.0
C754 C 0.60325 0.08095 0.95503 0.0
C755 C 0.5897 0.07792 0.98745 0.0
C756 C 0.63102 0.08738 0.95396 0.0
C757 C 0.64663 0.0908 0.98527 0.0
H758 H 0.5921 0.07768 0.93004 0.0
H759 H 0.64006 0.08894 0.92824 0.0
S760 S 0.6215 0.08645 0.07743 0.0
N761 N 0.59469 0.08004 0.05183 0.0
N762 N 0.64642 0.09192 0.05007 0.0
C763 C 0.63355 0.08865 1.01797 0.0
C764 C 0.60534 0.08232 1.01901 0.0
C765 C 0.6297 0.04468 0.55303 0.0
C766 C 0.6054 0.02853 0.5718 0.0
C767 C 0.6524 0.04017 0.55588 0.0
C768 C 0.6521 0.01955 0.57799 0.0
H769 H 0.6307 0.05996 0.53459 0.0
H770 H 0.67022 0.05274 0.53998 0.0
S771 S 0.59417 0.97327 0.63524 0.0
N772 N 0.58304 0.99212 0.6149 0.0
N773 N 0.62555 0.9841 0.62072 0.0
C774 C 0.62837 1.00422 0.59818 0.0
C775 C 0.60515 1.00857 0.59492 0.0
C776 C 0.09192 0.67366 0.56027 0.0
C777 C 0.06994 0.64869 0.57326 0.0
C778 C 0.0927 0.69929 0.56423 0.0
C779 C 0.07152 0.70101 0.58134 0.0
H780 H 0.10935 0.67368 0.54807 0.0
H781 H 0.11094 0.71809 0.55624 0.0
S782 S 1.00784 0.64187 0.61642 0.0
N783 N 0.02519 0.6273 0.60076 0.0
N784 N 0.02682 0.67543 0.60871 0.0
C785 C 0.04856 0.67605 0.59224 0.0
C786 C 0.04768 0.6499 0.58802 0.0
C787 C 0.43167 0.53071 0.58971 0.0
C788 C 0.43927 0.5421 0.5558 0.0
C789 C 0.41175 0.50272 0.59389 0.0
C790 C 0.39858 0.48471 0.56436 0.0
H791 H 0.44207 0.54312 0.61332 0.0
H792 H 0.40723 0.49504 0.62066 0.0
S793 S 0.40884 0.50498 0.46973 0.0
N794 N 0.43022 0.53382 0.49214 0.0
N795 N 0.39322 0.48103 0.49986 0.0
C796 C 0.4052 0.49607 0.53025 0.0
C797 C 0.42536 0.52474 0.52603 0.0
C798 C 0.74101 0.80889 0.3734 0.0
C799 C 0.76467 0.8356 0.37275 0.0
C800 C 0.74332 0.785 0.37529 0.0
C801 C 0.76932 0.7872 0.37683 0.0
H802 H 0.72063 0.80643 0.37501 0.0
H803 H 0.72485 0.7651 0.379 0.0
S804 S 0.83714 0.85122 0.36911 0.0
N805 N 0.81456 0.86213 0.36795 0.0
N806 N 0.81887 0.81712 0.37308 0.0
C807 C 0.79293 0.81334 0.37317 0.0
C808 C 0.79062 0.83763 0.37084 0.0
C809 C 0.3199 1.00998 0.46114 0.0
C810 C 0.31296 0.99731 0.42693 0.0
C811 C 0.33924 0.03853 0.46643 0.0
C812 C 0.35313 0.05585 0.43786 0.0
H813 H 0.30991 0.9978 0.48413 0.0
H814 H 0.34338 0.04706 0.49331 0.0
S815 S 0.34315 0.03305 0.34287 0.0
N816 N 0.32194 1.00452 0.36395 0.0
N817 N 0.35849 0.05781 0.3738 0.0
C818 C 0.34665 0.0434 0.40349 0.0
C819 C 0.32655 0.01434 0.39805 0.0
C820 C 0.12079 0.41839 0.40602 0.0
C821 C 0.12376 0.39583 0.41667 0.0
C822 C 0.09564 0.41822 0.40991 0.0
C823 C 0.07223 0.39552 0.42479 0.0
H824 H 0.13772 0.43599 0.39354 0.0
H825 H 0.09453 0.436 0.40054 0.0
S826 S 0.06998 0.33226 0.46002 0.0
N827 N 0.10152 0.35084 0.44503 0.0
N828 N 0.05469 0.35058 0.45222 0.0
C829 C 0.07531 0.37326 0.43668 0.0
C830 C 0.10087 0.37341 0.43266 0.0
C831 C 0.14098 0.38309 0.83523 0.0
C832 C 0.13639 0.35745 0.84876 0.0
C833 C 0.11888 0.387 0.82346 0.0
C834 C 0.09105 0.36547 0.82462 0.0
H835 H 0.16178 0.40066 0.83489 0.0
H836 H 0.12363 0.40735 0.81453 0.0
S837 S 0.06792 0.29321 0.85321 0.0
N838 N 0.10171 0.30957 0.85939 0.0
N839 N 0.06084 0.31658 0.83741 0.0
C840 C 0.08645 0.3394 0.83649 0.0
C841 C 0.10881 0.3355 0.84847 0.0
C842 C 0.73278 0.79205 0.84065 0.0
C843 C 0.72717 0.81013 0.82099 0.0
C844 C 0.72058 0.76363 0.83112 0.0
C845 C 0.70266 0.75225 0.8012 0.0
H846 H 0.74586 0.79971 0.86434 0.0
H847 H 0.72491 0.7504 0.8477 0.0
S848 S 0.68313 0.79152 0.73937 0.0
N849 N 0.70368 0.81505 0.76938 0.0
N850 N 0.68118 0.762 0.75096 0.0
C851 C 0.6978 0.77045 0.78055 0.0
C852 C 0.7099 0.79925 0.79061 0.0
C853 C 0.25975 0.97463 0.79937 0.0
C854 C 0.25263 0.94959 0.81662 0.0
C855 C 0.28676 0.99265 0.78903 0.0
C856 C 0.30768 0.98616 0.79472 0.0
H857 H 0.24465 0.98114 0.79511 0.0
H858 H 0.29159 1.01243 0.77785 0.0
S859 S 0.30006 0.92255 0.83596 0.0
N860 N 0.26878 0.91858 0.8369 0.0
N861 N 0.31966 0.95257 0.81677 0.0
C862 C 0.30077 0.96056 0.80988 0.0
C863 C 0.27319 0.94222 0.82095 0.0
C864 C 0.69977 0.96985 0.27766 0.0
C865 C 0.7185 0.98148 0.30646 0.0
C866 C 0.68749 0.98394 0.26271 0.0
C867 C 0.6932 1.01002 0.27643 0.0
H868 H 0.69469 0.94969 0.26659 0.0
H869 H 0.67331 0.97425 0.24027 0.0
S870 S 0.74048 0.04897 0.3524 0.0
N871 N 0.74211 0.02012 0.34869 0.0
N872 N 0.71875 0.04692 0.3207 0.0
C873 C 0.71172 0.0218 0.30558 0.0
C874 C 0.72456 1.00749 0.3205 0.0
C875 C 0.14469 0.77546 0.35398 0.0
C876 C 0.16527 0.79754 0.33474 0.0
C877 C 0.12145 0.75309 0.33679 0.0
C878 C 0.11772 0.75167 0.29949 0.0
H879 H 0.14624 0.7757 0.38269 0.0
H880 H 0.10628 0.73683 0.35299 0.0
S881 S 0.1665 0.80386 0.23678 0.0
N882 N 0.18086 0.81611 0.27637 0.0
N883 N 0.13758 0.77466 0.24395 0.0
C884 C 0.13844 0.77362 0.27998 0.0
C885 C 0.16201 0.79634 0.29757 0.0
C886 C 0.29738 0.45205 0.38312 0.0
C887 C 0.28379 0.45251 0.35155 0.0
C888 C 0.3248 0.45738 0.38317 0.0
C889 C 0.34014 0.46369 0.35173 0.0
H890 H 0.28629 0.44599 0.40774 0.0
H891 H 0.3337 0.45553 0.40802 0.0
S892 S 0.31527 0.47103 0.26266 0.0
N893 N 0.28871 0.46233 0.28851 0.0
N894 N 0.34003 0.47255 0.28863 0.0
C895 C 0.32735 0.46602 0.32042 0.0
C896 C 0.29932 0.46035 0.32033 0.0
C897 C 0.28806 0.35058 0.95087 0.0
C898 C 0.27611 0.35303 0.91869 0.0
C899 C 0.31255 0.34899 0.95191 0.0
C900 C 0.32692 0.35033 0.92083 0.0
H901 H 0.27881 0.35074 0.97589 0.0
H902 H 0.32085 0.34781 0.97758 0.0
S903 S 0.30399 0.35544 0.82913 0.0
N904 N 0.28022 0.35541 0.85464 0.0
N905 N 0.32604 0.35286 0.85625 0.0
C906 C 0.31468 0.35184 0.88824 0.0
C907 C 0.28944 0.35303 0.88724 0.0
C908 C 0.75689 0.0134 0.94459 0.0
C909 C 0.74477 0.99767 0.91324 0.0
C910 C 0.75223 0.03502 0.95526 0.0
C911 C 0.73555 0.04238 0.93483 0.0
H912 H 0.76959 1.00849 0.96156 0.0
H913 H 0.76186 0.04608 0.97998 0.0
S914 S 0.70042 1.00879 0.84898 0.0
N915 N 0.71617 0.99158 0.8609 0.0
N916 N 0.70776 0.03258 0.88063 0.0
C917 C 0.72393 0.02735 0.90276 0.0
C918 C 0.72836 1.00489 0.89213 0.0
C919 C 0.10014 0.81703 0.93573 0.0
C920 C 0.12011 0.82246 0.90993 0.0
C921 C 0.07695 0.79054 0.93876 0.0
C922 C 0.07268 0.76853 0.91579 0.0
H923 H 0.10171 0.83376 0.9526 0.0
H924 H 0.06149 0.78782 0.95778 0.0
S925 S 0.121 0.77079 0.8474 0.0
N926 N 0.13576 0.8029 0.86383 0.0
N927 N 0.09221 0.753 0.86938 0.0
C928 C 0.0936 0.77314 0.89172 0.0
C929 C 0.11735 0.80012 0.88887 0.0
C930 C 0.36477 0.11627 0.70665 0.0
C931 C 0.36036 0.1286 0.73679 0.0
C932 C 0.37187 0.09538 0.70995 0.0
C933 C 0.37578 0.08683 0.74357 0.0
H934 H 0.36282 0.12293 0.68044 0.0
H935 H 0.37501 0.0864 0.68598 0.0
S936 S 0.36759 0.11408 0.83063 0.0
N937 N 0.36031 0.13122 0.80093 0.0
N938 N 0.37501 0.09321 0.80765 0.0
C939 C 0.3717 0.09947 0.77388 0.0
C940 C 0.36366 0.12005 0.77036 0.0
C941 C 0.9737 0.29146 0.69536 0.0
C942 C 0.94921 0.27557 0.71436 0.0
C943 C 0.99461 0.31815 0.70746 0.0
C944 C 0.99222 0.33035 0.7393 0.0
H945 H 0.97655 0.28358 0.67025 0.0
H946 H 1.01257 0.32949 0.6913 0.0
S947 S 0.93318 0.29716 0.80048 0.0
N948 N 0.92467 0.27402 0.76774 0.0
N949 N 0.96354 0.32357 0.79044 0.0
C950 C 0.96821 0.31436 0.75911 0.0
C951 C 0.94691 0.28726 0.74671 0.0
C952 C 0.78447 0.68964 0.71064 0.0
C953 C 0.79596 0.68466 0.74126 0.0
C954 C 0.75946 0.68982 0.7117 0.0
C955 C 0.74448 0.68464 0.74326 0.0
H956 H 0.79563 0.69511 0.68606 0.0
H957 H 0.75224 0.69497 0.68769 0.0
S958 S 0.76369 0.66702 0.82976 0.0
N959 N 0.78904 0.67197 0.80342 0.0
N960 N 0.74188 0.6719 0.80511 0.0
C961 C 0.75469 0.6777 0.77342 0.0
C962 C 0.78042 0.67785 0.7725 0.0
C963 C 0.80716 0.7469 0.12962 0.0
C964 C 0.81493 0.73974 0.16208 0.0
C965 C 0.78458 0.75173 0.12682 0.0
C966 C 0.76809 0.74899 0.15616 0.0
H967 H 0.81816 0.74796 0.10572 0.0
H968 H 0.77911 0.75615 0.10097 0.0
S969 S 0.78018 0.73231 0.24782 0.0
N970 N 0.80481 0.73186 0.2247 0.0
N971 N 0.76242 0.74014 0.21946 0.0
C972 C 0.77625 0.74285 0.18905 0.0
C973 C 0.79956 0.73848 0.19202 0.0
C974 C 0.34835 0.12837 0.20856 0.0
C975 C 0.34039 0.14293 0.18538 0.0
C976 C 0.34509 0.10237 0.19848 0.0
C977 C 0.33423 0.0904 0.16466 0.0
H978 H 0.35632 0.13679 0.23497 0.0
H979 H 0.3504 0.0913 0.21762 0.0
S980 S 0.31394 0.12256 0.09281 0.0
N981 N 0.3236 0.14502 0.12654 0.0
N982 N 0.31792 0.09674 0.10695 0.0
C983 C 0.32762 0.10569 0.1407 0.0
C984 C 0.33055 0.13179 0.15123 0.0
C985 C 0.94883 0.29558 0.11095 0.0
C986 C 0.93569 0.28382 0.1431 0.0
C987 C 0.97658 0.3171 0.11052 0.0
C988 C 0.99205 0.32794 0.14229 0.0
H989 H 0.93725 0.28899 0.08599 0.0
H990 H 0.98539 0.32642 0.08545 0.0
S991 S 0.96901 0.30252 0.23307 0.0
N992 N 0.94179 0.28301 0.20718 0.0
N993 N 0.99336 0.32366 0.20629 0.0
C994 C 0.97981 0.31528 0.17428 0.0
C995 C 0.95182 0.29315 0.17472 0.0
C996 C 0.34357 0.31819 0.6838 0.0
C997 C 0.35943 0.30737 0.66949 0.0
C998 C 0.346 0.34308 0.67146 0.0
C999 C 0.3639 0.35754 0.64381 0.0
H1000 H 0.32876 0.30695 0.70407 0.0
H1001 H 0.33242 0.34998 0.68193 0.0
S1002 S 0.4108 0.33846 0.59876 0.0
N1003 N 0.3947 0.31372 0.62782 0.0
N1004 N 0.39865 0.35996 0.60379 0.0
C1005 C 0.3806 0.34744 0.63031 0.0
C1006 C 0.37852 0.32248 0.64336 0.0
C1007 C 0.79527 0.10173 0.69439 0.0
C1008 C 0.81904 0.12155 0.67662 0.0
C1009 C 0.77532 0.07638 0.67778 0.0
C1010 C 0.77818 0.0695 0.64257 0.0
H1011 H 0.79138 0.10621 0.72108 0.0
H1012 H 0.75708 0.06259 0.69227 0.0
S1013 S 0.83841 0.11245 0.58574 0.0
N1014 N 0.84517 0.13121 0.62276 0.0
N1015 N 0.80863 0.08391 0.5918 0.0
C1016 C 0.80268 0.08856 0.62522 0.0
C1017 C 0.82277 0.11439 0.64207 0.0
C1018 C 0.96558 0.76106 0.63007 0.0
C1019 C 0.94777 0.73984 0.65287 0.0
C1020 C 0.99216 0.76575 0.62291 0.0
C1021 C 1.0022 0.74968 0.63876 0.0
H1022 H 0.95937 0.77501 0.61877 0.0
H1023 H 1.00547 0.7831 0.60657 0.0
S1024 S 0.96277 0.68941 0.69704 0.0
N1025 N 0.94128 0.70098 0.68847 0.0
N1026 N 0.99111 0.70973 0.67539 0.0
C1027 C 0.98396 0.72726 0.6598 0.0
C1028 C 0.95679 0.72231 0.66671 0.0
C1029 C 0.95692 0.71749 0.2217 0.0
C1030 C 0.93394 0.70166 0.24282 0.0
C1031 C 0.98119 0.71568 0.22514 0.0
C1032 C 0.98387 0.69816 0.25007 0.0
H1033 H 0.95557 0.73007 0.20087 0.0
H1034 H 0.99775 0.72757 0.20713 0.0
S1035 S 0.93055 0.65458 0.31438 0.0
N1036 N 0.91619 0.66941 0.29144 0.0
N1037 N 0.9616 0.66638 0.29813 0.0
C1038 C 0.96159 0.68355 0.27277 0.0
C1039 C 0.93679 0.68517 0.26902 0.0
C1040 C 0.36421 0.34825 0.25984 0.0
C1041 C 0.38278 0.33843 0.26594 0.0
C1042 C 0.37129 0.37576 0.26908 0.0
C1043 C 0.39712 0.39425 0.2849 0.0
H1044 H 0.34379 0.33431 0.2488 0.0
H1045 H 0.3559 0.38201 0.26588 0.0
S1046 S 0.45347 0.3795 0.30534 0.0
N1047 N 0.42852 0.35006 0.28771 0.0
N1048 N 0.44164 0.40143 0.30492 0.0
C1049 C 0.41622 0.38509 0.28967 0.0
C1050 C 0.40914 0.35729 0.28019 0.0
C1051 C 0.76172 0.1733 0.2385 0.0
C1052 C 0.78408 0.17699 0.21783 0.0
C1053 C 0.73667 0.14796 0.23807 0.0
C1054 C 0.73273 0.12536 0.2164 0.0
H1055 H 0.7634 0.19036 0.25476 0.0
H1056 H 0.72008 0.14631 0.25422 0.0
S1057 S 0.7853 0.12376 0.15844 0.0
N1058 N 0.80101 0.15545 0.17626 0.0
N1059 N 0.75409 0.108 0.17498 0.0
C1060 C 0.75522 0.12857 0.19622 0.0
C1061 C 0.78084 0.15427 0.1971 0.0
C1062 C 0.99244 0.44705 0.90074 0.0
C1063 C 1.01418 0.46852 0.92103 0.0
C1064 C 0.99729 0.43266 0.87339 0.0
C1065 C 0.02417 0.43903 0.86444 0.0
H1066 H 0.97126 0.44071 0.90662 0.0
H1067 H 0.9796 0.41559 0.85983 0.0
S1068 S 0.08884 0.49461 0.90704 0.0
N1069 N 0.06421 0.49648 0.92843 0.0
N1070 N 0.07305 0.46937 0.8768 0.0
C1071 C 0.0463 0.46143 0.88293 0.0
C1072 C 0.04139 0.47618 0.91118 0.0
C1073 C 0.59892 0.60974 0.90618 0.0
C1074 C 0.57603 0.61354 0.91104 0.0
C1075 C 0.61564 0.61988 0.87607 0.0
C1076 C 0.61027 0.63434 0.84947 0.0
H1077 H 0.60467 0.59982 0.92647 0.0
H1078 H 0.63353 0.61728 0.87436 0.0
S1079 S 0.55078 0.64662 0.84706 0.0
N1080 N 0.54743 0.63037 0.88466 0.0
N1081 N 0.57876 0.64967 0.82877 0.0
C1082 C 0.58672 0.63715 0.85328 0.0
C1083 C 0.5697 0.62675 0.8838 0.0
C1084 C 0.46136 1.00534 0.87242 0.0
C1085 C 0.45044 0.99797 0.9066 0.0
C1086 C 0.4474 1.01144 0.84576 0.0
C1087 C 0.42227 1.01034 0.8528 0.0
H1088 H 0.48162 1.00833 0.86715 0.0
H1089 H 0.45723 0.01895 0.82055 0.0
S1090 S 0.38294 0.98699 0.93586 0.0
N1091 N 0.41155 0.98614 0.94431 0.0
N1092 N 0.38528 0.99747 0.89456 0.0
C1093 C 0.41016 1.00061 0.88586 0.0
C1094 C 0.42428 0.99447 0.91271 0.0
C1095 C 0.43919 0.99447 0.6343 0.0
C1096 C 0.46799 1.01218 0.63285 0.0
C1097 C 0.42365 0.99755 0.66124 0.0
C1098 C 0.4362 0.01862 0.68774 0.0
H1099 H 0.42839 0.97851 0.61394 0.0
H1100 H 0.40151 0.98372 0.66074 0.0
S1101 S 0.51126 0.06848 0.69862 0.0
N1102 N 0.50863 0.04992 0.66262 0.0
N1103 N 0.47943 0.05626 0.71224 0.0
C1104 C 0.46503 0.036 0.68719 0.0
C1105 C 0.48089 0.03266 0.66005 0.0
C1106 C 0.04976 0.49507 0.67497 0.0
C1107 C 0.07625 0.5109 0.66045 0.0
C1108 C 0.04332 0.47286 0.69837 0.0
C1109 C 0.06301 0.46526 0.70871 0.0
H1110 H 0.03384 0.50006 0.6686 0.0
H1111 H 0.0227 0.46172 0.70872 0.0
S1112 S 0.13458 0.49771 0.67577 0.0
N1113 N 0.12162 0.51532 0.65643 0.0
N1114 N 0.10984 0.47467 0.70054 0.0
C1115 C 0.08938 0.48055 0.6939 0.0
C1116 C 0.09589 0.50298 0.66989 0.0
C1117 C 0.58197 0.61562 0.63978 0.0
C1118 C 0.59445 0.60812 0.61269 0.0
C1119 C 0.59635 0.62888 0.67174 0.0
C1120 C 0.62356 0.6347 0.67815 0.0
H1121 H 0.56166 0.61307 0.63534 0.0
H1122 H 0.58682 0.63635 0.6904 0.0
S1123 S 0.66444 0.61622 0.61865 0.0
N1124 N 0.63487 0.60507 0.59671 0.0
N1125 N 0.66155 0.62989 0.65645 0.0
C1126 C 0.63547 0.62548 0.65264 0.0
C1127 C 0.621 0.61215 0.6201 0.0
C1128 C 0.99568 0.57497 0.17841 0.0
C1129 C 1.01 0.58367 0.14636 0.0
C1130 C 1.00132 0.59371 0.20725 0.0
C1131 C 0.02149 0.62211 0.20543 0.0
H1132 H 0.98044 0.5533 0.18162 0.0
H1133 H 0.9901 0.58565 0.23146 0.0
S1134 S 0.06265 0.65634 0.12615 0.0
N1135 N 0.04372 0.62331 0.11369 0.0
N1136 N 0.05443 0.65828 0.16762 0.0
C1137 C 0.03531 0.63128 0.1731 0.0
C1138 C 0.02958 0.61218 0.14373 0.0
C1139 C 0.49831 0.54224 0.18733 0.0
C1140 C 0.48371 0.5396 0.15537 0.0
C1141 C 0.48466 0.52785 0.21794 0.0
C1142 C 0.45572 0.51082 0.21814 0.0
H1143 H 0.52049 0.55573 0.18866 0.0
H1144 H 0.49681 0.53084 0.24196 0.0
S1145 S 0.40816 0.49649 0.14075 0.0
N1146 N 0.43902 0.51792 0.12531 0.0
N1147 N 0.41311 0.49167 0.18285 0.0
C1148 C 0.44096 0.50783 0.18611 0.0
C1149 C 0.455 0.52198 0.15475 0.0
C1150 C 0.56455 0.04413 0.1609 0.0
C1151 C 0.56307 0.02663 0.13257 0.0
C1152 C 0.58665 0.055 0.18565 0.0
C1153 C 0.60812 0.04892 0.18261 0.0
H1154 H 0.54817 0.04892 0.16426 0.0
H1155 H 0.58638 0.06742 0.20793 0.0
S1156 S 0.61602 1.00805 0.10941 0.0
N1157 N 0.58629 1.00642 0.10037 0.0
N1158 N 0.62791 0.02678 0.14658 0.0
C1159 C 0.60752 0.03265 0.15319 0.0
C1160 C 0.58494 0.02146 0.12826 0.0
C1161 C 0.57541 0.01394 0.38084 0.0
C1162 C 0.57962 0.03516 0.40535 0.0
C1163 C 0.59286 0.01923 0.35199 0.0
C1164 C 0.61542 0.04598 0.34636 0.0
H1165 H 0.55842 0.993 0.38394 0.0
H1166 H 0.58842 1.00217 0.33373 0.0
S1167 S 0.63517 0.10916 0.40201 0.0
N1168 N 0.60781 0.08433 0.42133 0.0
N1169 N 0.6409 0.09404 0.36771 0.0
C1170 C 0.62016 0.06735 0.37089 0.0
C1171 C 0.60223 0.06202 0.40019 0.0
C1172 C 0.08263 0.61732 0.39737 0.0
C1173 C 0.07326 0.61827 0.43162 0.0
C1174 C 0.07585 0.62833 0.36781 0.0
C1175 C 0.05941 0.64096 0.37094 0.0
H1176 H 0.09499 0.60755 0.39323 0.0
H1177 H 0.08347 0.6267 0.34213 0.0
S1178 S 0.03172 0.65126 0.45535 0.0
N1179 N 0.04815 0.63476 0.46723 0.0
N1180 N 0.03517 0.65497 0.41195 0.0
C1181 C 0.05032 0.64253 0.40519 0.0
C1182 C 0.05727 0.63134 0.43535 0.0
C1183 C 0.50137 0.55558 0.42039 0.0
C1184 C 0.5012 0.53924 0.44899 0.0
C1185 C 0.4827 0.54392 0.39114 0.0
C1186 C 0.46313 0.51534 0.38901 0.0
H1187 H 0.51579 0.57775 0.42073 0.0
H1188 H 0.48393 0.55737 0.36981 0.0
S1189 S 0.45329 0.46332 0.45697 0.0
N1190 N 0.47908 0.49281 0.47315 0.0
N1191 N 0.44447 0.47106 0.41862 0.0
C1192 C 0.4627 0.49879 0.41741 0.0
C1193 C 0.48156 0.51064 0.44718 0.0
C1194 C 0.68679 0.82185 0.2682 0.0
C1195 C 0.70239 0.85068 0.26303 0.0
C1196 C 0.68436 0.80236 0.2416 0.0
C1197 C 0.69731 0.81051 0.2082 0.0
H1198 H 0.67739 0.81421 0.29359 0.0
H1199 H 0.67265 0.78054 0.24789 0.0
S1200 S 0.73827 0.88364 0.17968 0.0
N1201 N 0.72933 0.88636 0.22051 0.0
N1202 N 0.72473 0.85 0.17119 0.0
C1203 C 0.71189 0.83929 0.20216 0.0
C1204 C 0.71443 0.85916 0.22927 0.0
C1205 C 0.25209 0.93896 0.26639 0.0
C1206 C 0.23634 0.94848 0.2846 0.0
C1207 C 0.26517 0.95076 0.23416 0.0
C1208 C 0.26275 0.97233 0.21822 0.0
H1209 H 0.25529 0.92296 0.27782 0.0
H1210 H 0.27774 0.94326 0.22204 0.0
S1211 S 0.22203 1.00334 0.25353 0.0
N1212 N 0.21807 0.97997 0.28303 0.0
N1213 N 0.24183 1.00158 0.22272 0.0
C1214 C 0.24609 0.9812 0.23548 0.0
C1215 C 0.23316 0.96949 0.26848 0.0
C1216 C 0.11905 0.36842 0.2758 0.0
C1217 C 0.14302 0.3679 0.26659 0.0
C1218 C 0.10265 0.3715 0.25007 0.0
C1219 C 0.10952 0.37411 0.214 0.0
H1220 H 0.11358 0.36757 0.30342 0.0
H1221 H 0.08494 0.37281 0.25873 0.0
S1222 S 0.16896 0.37157 0.17567 0.0
N1223 N 0.17195 0.36835 0.21884 0.0
N1224 N 0.14083 0.37385 0.16997 0.0
C1225 C 0.13242 0.37174 0.20404 0.0
C1226 C 0.14927 0.36869 0.23048 0.0
C1227 C 0.17737 0.418 0.0245 0.0
C1228 C 0.17662 0.39484 1.00771 0.0
C1229 C 0.15682 0.41487 0.04788 0.0
C1230 C 0.13448 0.38844 0.05545 0.0
H1231 H 0.19359 0.43883 1.01882 0.0
H1232 H 0.15823 0.43351 0.0595 0.0
S1233 S 0.12418 0.32084 0.02125 0.0
N1234 N 0.15275 0.34431 1.00254 0.0
N1235 N 0.11373 0.33851 0.04588 0.0
C1236 C 0.13375 0.365 0.03958 0.0
C1237 C 0.15488 0.36818 1.01587 0.0
C1238 C 0.6903 0.82959 0.97927 0.0
C1239 C 0.71362 0.8563 0.97536 0.0
C1240 C 0.68783 0.81276 1.00897 0.0
C1241 C 0.70869 0.82164 0.03598 0.0
H1242 H 0.67436 0.82112 0.95861 0.0
H1243 H 0.66992 0.79214 1.00998 0.0
S1244 S 0.77205 0.89104 0.04137 0.0
N1245 N 0.7565 0.8916 1.00407 0.0
N1246 N 0.75211 0.8601 0.05797 0.0
C1247 C 0.73134 0.84865 0.03307 0.0
C1248 C 0.7337 0.86584 1.00344 0.0
C1249 C 0.23168 0.94363 1.00444 0.0
C1250 C 0.21513 0.95421 0.99073 0.0
C1251 C 0.25026 0.95675 0.03347 0.0
C1252 C 0.25284 0.98082 0.04993 0.0
H1253 H 0.23087 0.92554 0.99205 0.0
H1254 H 0.26379 0.94901 0.04158 0.0
S1255 S 0.21326 0.01595 0.02679 0.0
N1256 N 0.20223 0.98989 0.99767 0.0
N1257 N 0.23598 0.01347 0.05255 0.0
C1258 C 0.23528 0.99053 0.03801 0.0
C1259 C 0.21674 0.97754 1.00838 0.0
C1260 C 0.71655 0.95559 0.46999 0.0
C1261 C 0.70321 0.92678 0.46186 0.0
C1262 C 0.71396 0.96619 0.50296 0.0
C1263 C 0.69776 0.94873 0.53015 0.0
H1264 H 0.73009 0.97038 0.45092 0.0
H1265 H 0.72558 0.98851 0.50743 0.0
S1266 S 0.65667 0.87156 0.5225 0.0
N1267 N 0.67175 0.8808 0.48366 0.0
N1268 N 0.66662 0.9007 0.5457 0.0
C1269 C 0.68301 0.91982 0.522 0.0
C1270 C 0.68576 0.9089 0.48799 0.0
C1271 C 0.16485 0.86 0.47903 0.0
C1272 C 0.15134 0.8571 0.44597 0.0
C1273 C 0.15062 0.84385 0.5085 0.0
C1274 C 0.12207 0.8242 0.50666 0.0
H1275 H 0.18684 0.87422 0.48191 0.0
H1276 H 0.16222 0.84684 0.53304 0.0
S1277 S 0.07662 0.8091 0.42677 0.0
N1278 N 0.10733 0.83311 0.41367 0.0
N1279 N 0.08081 0.80352 0.46878 0.0
C1280 C 0.10821 0.82158 0.47402 0.0
C1281 C 0.12274 0.83773 0.44389 0.0
C1282 C 0.25168 0.40837 0.52163 0.0
C1283 C 0.24606 0.38691 0.49678 0.0
C1284 C 0.27194 0.41594 0.54852 0.0
C1285 C 0.28748 0.40245 0.55129 0.0
H1286 H 0.24013 0.41924 0.52033 0.0
H1287 H 0.27527 0.43231 0.56738 0.0
S1288 S 0.28203 0.34628 0.49077 0.0
N1289 N 0.25852 0.35334 0.47533 0.0
N1290 N 0.2965 0.36723 0.52568 0.0
C1291 C 0.28231 0.38122 0.5261 0.0
C1292 C 0.2616 0.37349 0.49893 0.0
C1293 C 0.27163 0.39977 0.75713 0.0
C1294 C 0.28656 0.42176 0.78188 0.0
C1295 C 0.28341 0.39769 0.72551 0.0
C1296 C 0.31061 0.41754 0.71734 0.0
H1297 H 0.25045 0.38423 0.76197 0.0
H1298 H 0.27086 0.38065 0.70708 0.0
S1299 S 0.35914 0.47806 0.77459 0.0
N1300 N 0.33035 0.4629 0.79709 0.0
N1301 N 0.35266 0.45934 0.73753 0.0
C1302 C 0.32598 0.43941 0.74221 0.0
C1303 C 0.31389 0.44148 0.77444 0.0
C1304 C 0.72581 0.92499 0.74138 0.0
C1305 C 0.70964 0.92193 0.77138 0.0
C1306 C 0.72411 0.9379 0.71011 0.0
C1307 C 0.70625 0.94883 0.70684 0.0
H1308 H 0.7406 0.91781 0.74228 0.0
H1309 H 0.73741 0.93973 0.68846 0.0
S1310 S 0.65896 0.94628 0.77719 0.0
N1311 N 0.67473 0.93085 0.79531 0.0
N1312 N 0.67135 0.95501 0.73688 0.0
C1313 C 0.6894 0.94541 0.73634 0.0
C1314 C 0.69109 0.93202 0.76834 0.0
C1315 C 0.11992 0.87187 0.7127 0.0
C1316 C 0.12503 0.8608 0.74347 0.0
C1317 C 0.11214 0.85683 0.68007 0.0
C1318 C 0.10924 0.83015 0.67688 0.0
H1319 H 0.12256 0.89257 0.71364 0.0
H1320 H 0.10881 0.8664 0.65707 0.0
S1321 S 0.11766 0.79076 0.75049 0.0
N1322 N 0.12417 0.82051 0.76927 0.0
N1323 N 0.11098 0.79295 0.70823 0.0
C1324 C 0.11374 0.81869 0.70774 0.0
C1325 C 0.12125 0.8338 0.74091 0.0
C1326 C 0.42418 0.22049 0.59015 0.0
C1327 C 0.40462 0.21229 0.61737 0.0
C1328 C 0.42194 0.2016 0.56251 0.0
C1329 C 0.39974 0.17389 0.56061 0.0
H1330 H 0.44125 0.24166 0.59012 0.0
H1331 H 0.43784 0.20867 0.54284 0.0
S1332 S 0.34078 0.14381 0.62243 0.0
N1333 N 0.36118 0.17559 0.63847 0.0
N1334 N 0.35638 0.14065 0.5873 0.0
C1335 C 0.3796 0.16609 0.58715 0.0
C1336 C 0.38215 0.18508 0.61516 0.0
C1337 C 0.92433 0.27457 0.56065 0.0
C1338 C 0.89706 0.26902 0.56455 0.0
C1339 C 0.94133 0.29241 0.53422 0.0
C1340 C 0.93194 0.30587 0.51111 0.0
H1341 H 0.93248 0.26483 0.57797 0.0
H1342 H 0.96226 0.29626 0.53257 0.0
S1343 S 0.8622 0.29845 0.51063 0.0
N1344 N 0.86143 0.27827 0.54296 0.0
N1345 N 0.89334 0.31212 0.49401 0.0
C1346 C 0.90467 0.30042 0.5148 0.0
C1347 C 0.88726 0.28192 0.54127 0.0
C1348 C 0.85132 0.78016 0.57478 0.0
C1349 C 0.83997 0.75761 0.59763 0.0
C1350 C 0.83903 0.77841 0.54157 0.0
C1351 C 0.81488 0.75404 0.53001 0.0
H1352 H 0.86978 0.79932 0.58273 0.0
H1353 H 0.84814 0.7966 0.52512 0.0
S1354 S 0.77673 0.6893 0.5804 0.0
N1355 N 0.80312 0.71018 0.60679 0.0
N1356 N 0.78007 0.70689 0.54399 0.0
C1357 C 0.80367 0.73105 0.5522 0.0
C1358 C 0.81617 0.73286 0.58619 0.0
C1359 C 0.82776 0.68934 0.34222 0.0
C1360 C 0.80816 0.67043 0.31727 0.0
C1361 C 0.81973 0.69822 0.37246 0.0
C1362 C 0.79174 0.6883 0.37921 0.0
H1363 H 0.84958 0.69858 0.33724 0.0
H1364 H 0.83563 0.71429 0.3895 0.0
S1365 S 0.73213 0.63609 0.32446 0.0
N1366 N 0.75941 0.64023 0.30299 0.0
N1367 N 0.74426 0.65648 0.36031 0.0
C1368 C 0.77184 0.6675 0.35625 0.0
C1369 C 0.78006 0.65864 0.32513 0.0
C1370 C 0.3752 0.19776 0.35244 0.0
C1371 C 0.39614 0.21185 0.32741 0.0
C1372 C 0.37826 0.18344 0.38121 0.0
C1373 C 0.40259 0.18236 0.38727 0.0
H1374 H 0.35567 0.19725 0.34966 0.0
H1375 H 0.36104 0.17277 0.39872 0.0
S1376 S 0.46456 0.21625 0.33102 0.0
N1377 N 0.44272 0.2241 0.31161 0.0
N1378 N 0.44867 0.19751 0.36579 0.0
C1379 C 0.42415 0.19689 0.36313 0.0
C1380 C 0.42091 0.21147 0.33337 0.0
C1381 C 0.91086 0.30155 0.31882 0.0
C1382 C 0.9011 0.31518 0.29652 0.0
C1383 C 0.93037 0.316 0.34652 0.0
C1384 C 0.94119 0.34474 0.3526 0.0
H1385 H 0.90322 0.27951 0.31495 0.0
H1386 H 0.93727 0.30464 0.36288 0.0
S1387 S 0.92258 0.39011 0.30094 0.0
N1388 N 0.90416 0.35904 0.28195 0.0
N1389 N 0.94004 0.38609 0.33373 0.0
C1390 C 0.93139 0.35848 0.33035 0.0
C1391 C 0.91159 0.34376 0.30244 0.0
C1392 C 0.36673 0.25548 0.84658 0.0
C1393 C 0.3865 0.26704 0.81965 0.0
C1394 C 0.36882 0.27012 0.87853 0.0
C1395 C 0.39061 0.29741 0.88532 0.0
H1396 H 0.34902 0.23483 0.84277 0.0
H1397 H 0.35281 0.26003 0.89783 0.0
S1398 S 0.44837 0.3375 0.82417 0.0
N1399 N 0.4291 0.30755 0.80265 0.0
N1400 N 0.43304 0.33523 0.86217 0.0
C1401 C 0.41088 0.30917 0.8589 0.0
C1402 C 0.40887 0.29401 0.82639 0.0
C1403 C 0.80533 0.18331 0.82132 0.0
C1404 C 0.79122 0.17902 0.78851 0.0
C1405 C 0.79168 0.16853 0.85161 0.0
C1406 C 0.76324 0.14877 0.85052 0.0
H1407 H 0.82711 0.19849 0.82371 0.0
H1408 H 0.80351 0.17301 0.87626 0.0
S1409 S 0.71719 0.12752 0.77042 0.0
N1410 N 0.74742 0.15172 0.75628 0.0
N1411 N 0.72179 0.12464 0.81323 0.0
C1412 C 0.74896 0.14387 0.81776 0.0
C1413 C 0.76289 0.15879 0.78682 0.0
C1414 C 0.94899 0.75666 0.85096 0.0
C1415 C 0.93326 0.73714 0.82391 0.0
C1416 C 0.9628 0.75042 0.87743 0.0
C1417 C 0.96161 0.72449 0.87773 0.0
H1418 H 0.95047 0.77686 0.85183 0.0
H1419 H 0.97422 0.76594 0.8981 0.0
S1420 S 0.92278 0.66571 0.81361 0.0
N1421 N 0.91672 0.69029 0.79985 0.0
N1422 N 0.94355 0.67913 0.84876 0.0
C1423 C 0.94651 0.70497 0.85047 0.0
C1424 C 0.9321 0.71114 0.82378 0.0
C1425 C 0.93127 0.70718 0.08309 0.0
C1426 C 0.90682 0.68135 0.08647 0.0
C1427 C 0.95127 0.71079 0.05826 0.0
C1428 C 0.94752 0.68879 0.03559 0.0
H1429 H 0.93457 0.72511 0.09879 0.0
H1430 H 0.96909 0.73132 0.05558 0.0
S1431 S 0.88956 0.61602 0.03719 0.0
N1432 N 0.88196 0.63259 0.06776 0.0
N1433 N 0.91901 0.63963 0.02044 0.0
C1434 C 0.92392 0.66257 0.0398 0.0
C1435 C 0.90371 0.65879 0.06533 0.0
C1436 C 0.41133 0.28197 0.10104 0.0
C1437 C 0.40166 0.28951 0.13131 0.0
C1438 C 0.41229 0.29373 0.0673 0.0
C1439 C 0.40312 0.31309 0.06231 0.0
H1440 H 0.41658 0.2657 0.10291 0.0
H1441 H 0.41877 0.28642 0.0446 0.0
S1442 S 0.37934 0.34228 0.13392 0.0
N1443 N 0.38546 0.31971 0.15433 0.0
N1444 N 0.38683 0.34114 0.09189 0.0
C1445 C 0.39494 0.32178 0.09285 0.0
C1446 C 0.3943 0.31018 0.12693 0.0
C1447 C 0.7931 0.1853 0.06303 0.0
C1448 C 0.792 0.20996 0.06784 0.0
C1449 C 0.77733 0.16554 0.0365 0.0
C1450 C 0.75992 0.16956 1.01303 0.0
H1451 H 0.80676 0.18133 0.07937 0.0
H1452 H 0.77945 0.14724 0.03385 0.0
S1453 S 0.74769 0.22938 1.01534 0.0
N1454 N 0.77043 0.23632 0.04796 0.0
N1455 N 0.74146 0.19948 0.99715 0.0
C1456 C 0.75819 0.19384 1.01761 0.0
C1457 C 0.77408 0.21396 0.04512 0.0
loop_
_geom_bond_atom_site_label_1
_geom_bond_atom_site_label_2
_geom_bond_distance
_geom_bond_site_symmetry_2
_ccdc_geom_bond_type
Cu0 N1 1.999 . S
Cu0 O6 1.974 1_554 S
Cu0 N11 1.985 1_554 S
Cu0 O20 1.959 . S
N1 Cu0 1.999 . S
N1 C3 1.263 . S
N1 C5 1.389 . S
N2 C3 1.358 . S
N2 C4 1.400 . S
C3 N1 1.263 . S
C3 N2 1.358 . S
C3 H9 0.930 . S
C4 N2 1.400 . S
C4 C5 1.351 . S
C4 H21 0.930 . S
C5 N1 1.389 . S
C5 C4 1.351 . S
C5 H10 0.930 . S
O6 Cu0 1.974 1_556 S
O6 C16 1.282 . S
C7 O8 1.261 . S
C7 O20 1.251 . S
O8 C7 1.261 . S
H9 C3 0.930 . S
H10 C5 0.930 . S
N11 Cu0 1.985 1_556 S
N11 C13 1.335 . S
N11 C14 1.390 . S
N12 C13 1.345 . S
N12 C15 1.336 . S
C13 N11 1.335 . S
C13 N12 1.345 . S
C13 H18 0.930 . S
C14 N11 1.390 . S
C14 C15 1.346 . S
C14 H19 0.930 . S
C15 N12 1.336 . S
C15 C14 1.346 . S
C15 H22 0.929 . S
C16 O6 1.282 . S
C16 O17 1.216 . S
O17 C16 1.216 . S
H18 C13 0.930 . S
H19 C14 0.930 . S
O20 Cu0 1.959 . S
O20 C7 1.251 . S
H21 C4 0.930 . S
H22 C15 0.929 . S
Cu23 N24 1.999 1_554 S
Cu23 O29 1.974 . S
Cu23 N34 1.985 . S
Cu23 O43 1.959 1_554 S
N24 Cu23 1.999 1_556 S
N24 C26 1.263 . S
N24 C28 1.389 . S
N25 C26 1.358 . S
N25 C27 1.400 . S
C26 N24 1.263 . S
C26 N25 1.358 . S
C26 H32 0.930 . S
C27 N25 1.400 . S
C27 C28 1.351 . S
C27 H44 0.930 . S
C28 N24 1.389 . S
C28 C27 1.351 . S
C28 H33 0.930 . S
O29 Cu23 1.974 . S
O29 C39 1.282 . S
C30 O31 1.261 . S
C30 O43 1.251 . S
O31 C30 1.261 . S
H32 C26 0.930 . S
H33 C28 0.930 . S
N34 Cu23 1.985 . S
N34 C36 1.335 . S
N34 C37 1.390 . S
N35 C36 1.345 . S
N35 C38 1.336 . S
C36 N34 1.335 . S
C36 N35 1.345 . S
C36 H41 0.930 . S
C37 N34 1.390 . S
C37 C38 1.346 . S
C37 H42 0.930 . S
C38 N35 1.336 . S
C38 C37 1.346 . S
C38 H45 0.929 . S
C39 O29 1.282 . S
C39 O40 1.216 . S
O40 C39 1.216 . S
H41 C36 0.930 . S
H42 C37 0.930 . S
O43 Cu23 1.959 1_556 S
O43 C30 1.251 . S
H44 C27 0.930 . S
H45 C38 0.929 . S
Cu46 N47 1.999 1_544 S
Cu46 O52 1.974 1_545 S
Cu46 N57 1.985 . S
Cu46 O66 1.959 . S
N47 Cu46 1.999 1_566 S
N47 C49 1.263 1_565 S
N47 C51 1.389 . S
N48 C49 1.358 1_565 S
N48 C50 1.400 . S
C49 N47 1.263 1_545 S
C49 N48 1.358 1_545 S
C49 H55 0.930 . S
C50 N48 1.400 . S
C50 C51 1.351 . S
C50 H67 0.930 . S
C51 N47 1.389 . S
C51 C50 1.351 . S
C51 H56 0.930 . S
O52 Cu46 1.974 1_565 S
O52 C62 1.282 1_565 S
C53 O54 1.259 1_556 S
C53 O66 1.251 1_556 S
O54 C53 1.259 1_554 S
H55 C49 0.930 . S
H56 C51 0.930 . S
N57 Cu46 1.985 . S
N57 C59 1.335 . S
N57 C60 1.390 . S
N58 C59 1.345 . S
N58 C61 1.336 . S
C59 N57 1.335 . S
C59 N58 1.345 . S
C59 H64 0.930 . S
C60 N57 1.390 . S
C60 C61 1.346 . S
C60 H65 0.930 . S
C61 N58 1.336 . S
C61 C60 1.346 . S
C61 H68 0.929 . S
C62 O52 1.282 1_545 S
C62 O63 1.216 . S
O63 C62 1.216 . S
H64 C59 0.930 . S
H65 C60 0.930 . S
O66 Cu46 1.959 . S
O66 C53 1.251 1_554 S
H67 C50 0.930 . S
H68 C61 0.929 . S
Cu69 N70 1.999 . S
Cu69 O75 1.974 . S
Cu69 N80 1.985 . S
Cu69 O89 1.959 . S
N70 Cu69 1.999 . S
N70 C72 1.263 . S
N70 C74 1.389 . S
N71 C72 1.358 . S
N71 C73 1.400 . S
C72 N70 1.263 . S
C72 N71 1.358 . S
C72 H78 0.930 . S
C73 N71 1.400 . S
C73 C74 1.351 . S
C73 H90 0.930 . S
C74 N70 1.389 . S
C74 C73 1.351 . S
C74 H79 0.930 . S
O75 Cu69 1.974 . S
O75 C85 1.282 1_545 S
C76 O77 1.261 . S
C76 O89 1.251 . S
O77 C76 1.261 . S
H78 C72 0.930 . S
H79 C74 0.930 . S
N80 Cu69 1.985 . S
N80 C82 1.335 . S
N80 C83 1.390 . S
N81 C82 1.345 . S
N81 C84 1.373 . S
C82 N80 1.335 . S
C82 N81 1.345 . S
C82 H87 0.930 . S
C83 N80 1.390 . S
C83 C84 1.337 . S
C83 H88 0.930 1_545 S
C84 N81 1.373 . S
C84 C83 1.337 . S
C84 H91 0.907 1_545 S
C85 O75 1.282 1_565 S
C85 O86 1.216 . S
O86 C85 1.216 . S
H87 C82 0.930 . S
H88 C83 0.930 1_565 S
O89 Cu69 1.959 . S
O89 C76 1.251 . S
H90 C73 0.930 . S
H91 C84 0.907 1_565 S
Cu92 N93 1.999 . S
Cu92 O98 1.974 . S
Cu92 N103 1.985 . S
Cu92 O112 1.959 . S
N93 Cu92 1.999 . S
N93 C95 1.263 . S
N93 C97 1.389 . S
N94 C95 1.358 . S
N94 C96 1.400 . S
C95 N93 1.263 . S
C95 N94 1.358 . S
C95 H101 0.930 . S
C96 N94 1.400 . S
C96 C97 1.351 . S
C96 H113 0.930 . S
C97 N93 1.389 . S
C97 C96 1.351 . S
C97 H102 0.930 . S
O98 Cu92 1.974 . S
O98 C108 1.282 . S
C99 O100 1.261 . S
C99 O112 1.251 . S
O100 C99 1.261 . S
H101 C95 0.930 . S
H102 C97 0.930 . S
N103 Cu92 1.985 . S
N103 C105 1.335 . S
N103 C106 1.390 . S
N104 C105 1.345 . S
N104 C107 1.336 . S
C105 N103 1.335 . S
C105 N104 1.345 . S
C105 H110 0.930 . S
C106 N103 1.390 . S
C106 C107 1.346 . S
C106 H111 0.930 . S
C107 N104 1.336 . S
C107 C106 1.346 . S
C107 H114 0.929 . S
C108 O98 1.282 . S
C108 O109 1.216 . S
O109 C108 1.216 . S
H110 C105 0.930 . S
H111 C106 0.930 . S
O112 Cu92 1.959 . S
O112 C99 1.251 . S
H113 C96 0.930 . S
H114 C107 0.929 . S
Cu115 N116 1.999 . S
Cu115 O121 1.974 . S
Cu115 N126 1.985 . S
Cu115 O135 1.959 . S
N116 Cu115 1.999 . S
N116 C118 1.263 . S
N116 C120 1.389 . S
N117 C118 1.358 . S
N117 C119 1.400 . S
C118 N116 1.263 . S
C118 N117 1.358 . S
C118 H124 0.930 . S
C119 N117 1.400 . S
C119 C120 1.351 . S
C119 H136 0.930 . S
C120 N116 1.389 . S
C120 C119 1.351 . S
C120 H125 0.930 . S
O121 Cu115 1.974 . S
O121 C131 1.282 . S
C122 O123 1.261 . S
C122 O135 1.251 . S
O123 C122 1.261 . S
H124 C118 0.930 . S
H125 C120 0.930 . S
N126 Cu115 1.985 . S
N126 C128 1.335 . S
N126 C129 1.390 . S
N127 C128 1.345 . S
N127 C130 1.336 . S
C128 N126 1.335 . S
C128 N127 1.345 . S
C128 H133 0.930 . S
C129 N126 1.390 . S
C129 C130 1.346 . S
C129 H134 0.930 . S
C130 N127 1.336 . S
C130 C129 1.346 . S
C130 H137 0.929 . S
C131 O121 1.282 . S
C131 O132 1.216 . S
O132 C131 1.216 . S
H133 C128 0.930 . S
H134 C129 0.930 . S
O135 Cu115 1.959 . S
O135 C122 1.251 . S
H136 C119 0.930 . S
H137 C130 0.929 . S
Cu138 N139 1.999 . S
Cu138 O144 1.974 . S
Cu138 N149 1.985 . S
Cu138 O158 1.959 . S
N139 Cu138 1.999 . S
N139 C141 1.263 . S
N139 C143 1.389 . S
N140 C141 1.358 . S
N140 C142 1.400 . S
C141 N139 1.263 . S
C141 N140 1.358 . S
C141 H147 0.930 . S
C142 N140 1.400 . S
C142 C143 1.351 . S
C142 H159 0.930 . S
C143 N139 1.389 . S
C143 C142 1.351 . S
C143 H148 0.930 . S
O144 Cu138 1.974 . S
O144 C154 1.282 . S
C145 O146 1.261 . S
C145 O158 1.251 . S
O146 C145 1.261 . S
H147 C141 0.930 . S
H148 C143 0.930 . S
N149 Cu138 1.985 . S
N149 C151 1.335 . S
N149 C152 1.390 . S
N150 C151 1.345 . S
N150 C153 1.336 . S
C151 N149 1.335 . S
C151 N150 1.345 . S
C151 H156 0.930 . S
C152 N149 1.390 . S
C152 C153 1.346 . S
C152 H157 0.930 . S
C153 N150 1.336 . S
C153 C152 1.346 . S
C153 H160 0.929 . S
C154 O144 1.282 . S
C154 O155 1.216 . S
O155 C154 1.216 . S
H156 C151 0.930 . S
H157 C152 0.930 . S
O158 Cu138 1.959 . S
O158 C145 1.251 . S
H159 C142 0.930 . S
H160 C153 0.929 . S
Cu161 N162 1.999 . S
Cu161 O167 1.974 . S
Cu161 N172 1.985 . S
Cu161 O181 1.959 . S
N162 Cu161 1.999 . S
N162 C164 1.263 . S
N162 C166 1.389 . S
N163 C164 1.358 . S
N163 C165 1.400 . S
C164 N162 1.263 . S
C164 N163 1.358 . S
C164 H170 0.930 . S
C165 N163 1.400 . S
C165 C166 1.351 . S
C165 H182 0.930 . S
C166 N162 1.389 . S
C166 C165 1.351 . S
C166 H171 0.930 . S
O167 Cu161 1.974 . S
O167 C177 1.282 . S
C168 O169 1.261 . S
C168 O181 1.251 . S
O169 C168 1.261 . S
H170 C164 0.930 . S
H171 C166 0.930 . S
N172 Cu161 1.985 . S
N172 C174 1.335 . S
N172 C175 1.390 . S
N173 C174 1.345 . S
N173 C176 1.336 . S
C174 N172 1.335 . S
C174 N173 1.345 . S
C174 H179 0.930 . S
C175 N172 1.390 . S
C175 C176 1.346 . S
C175 H180 0.930 . S
C176 N173 1.336 . S
C176 C175 1.346 . S
C176 H183 0.929 . S
C177 O167 1.282 . S
C177 O178 1.216 . S
O178 C177 1.216 . S
H179 C174 0.930 . S
H180 C175 0.930 . S
O181 Cu161 1.959 . S
O181 C168 1.251 . S
H182 C165 0.930 . S
H183 C176 0.929 . S
Cu184 N185 1.999 . S
Cu184 O190 1.974 . S
Cu184 N195 1.985 . S
Cu184 O204 1.959 . S
N185 Cu184 1.999 . S
N185 C187 1.263 . S
N185 C189 1.389 . S
N186 C187 1.358 . S
N186 C188 1.400 . S
C187 N185 1.263 . S
C187 N186 1.358 . S
C187 H193 0.930 . S
C188 N186 1.400 . S
C188 C189 1.351 . S
C188 H205 0.930 . S
C189 N185 1.389 . S
C189 C188 1.351 . S
C189 H194 0.930 . S
O190 Cu184 1.974 . S
O190 C200 1.282 . S
C191 O192 1.261 . S
C191 O204 1.251 . S
O192 C191 1.261 . S
H193 C187 0.930 . S
H194 C189 0.930 . S
N195 Cu184 1.985 . S
N195 C197 1.335 . S
N195 C198 1.390 . S
N196 C197 1.345 . S
N196 C199 1.336 . S
C197 N195 1.335 . S
C197 N196 1.345 . S
C197 H202 0.930 . S
C198 N195 1.390 . S
C198 C199 1.346 . S
C198 H203 0.930 . S
C199 N196 1.336 . S
C199 C198 1.346 . S
C199 H206 0.929 . S
C200 O190 1.282 . S
C200 O201 1.216 . S
O201 C200 1.216 . S
H202 C197 0.930 . S
H203 C198 0.930 . S
O204 Cu184 1.959 . S
O204 C191 1.251 . S
H205 C188 0.930 . S
H206 C199 0.929 . S
Cu207 N208 1.999 . S
Cu207 O213 1.974 . S
Cu207 N218 1.985 . S
Cu207 O227 1.959 . S
N208 Cu207 1.999 . S
N208 C210 1.263 . S
N208 C212 1.389 . S
N209 C210 1.358 . S
N209 C211 1.400 . S
C210 N208 1.263 . S
C210 N209 1.358 . S
C210 H216 0.930 . S
C211 N209 1.400 . S
C211 C212 1.351 . S
C211 H228 0.930 . S
C212 N208 1.389 . S
C212 C211 1.351 . S
C212 H217 0.930 . S
O213 Cu207 1.974 . S
O213 C223 1.282 . S
C214 O215 1.261 . S
C214 O227 1.251 . S
O215 C214 1.261 . S
H216 C210 0.930 . S
H217 C212 0.930 . S
N218 Cu207 1.985 . S
N218 C220 1.335 . S
N218 C221 1.390 . S
N219 C220 1.345 . S
N219 C222 1.336 . S
C220 N218 1.335 . S
C220 N219 1.345 . S
C220 H225 0.930 . S
C221 N218 1.390 . S
C221 C222 1.346 . S
C221 H226 0.930 . S
C222 N219 1.336 . S
C222 C221 1.346 . S
C222 H229 0.929 . S
C223 O213 1.282 . S
C223 O224 1.216 . S
O224 C223 1.216 . S
H225 C220 0.930 . S
H226 C221 0.930 . S
O227 Cu207 1.959 . S
O227 C214 1.251 . S
H228 C211 0.930 . S
H229 C222 0.929 . S
Cu230 N231 1.999 . S
Cu230 O236 1.974 . S
Cu230 N241 1.985 . S
Cu230 O250 1.959 . S
N231 Cu230 1.999 . S
N231 C233 1.263 . S
N231 C235 1.389 . S
N232 C233 1.358 . S
N232 C234 1.400 . S
C233 N231 1.263 . S
C233 N232 1.358 . S
C233 H239 0.930 . S
C234 N232 1.400 . S
C234 C235 1.351 . S
C234 H251 0.930 . S
C235 N231 1.389 . S
C235 C234 1.351 . S
C235 H240 0.930 . S
O236 Cu230 1.974 . S
O236 C246 1.282 . S
C237 O238 1.261 . S
C237 O250 1.251 . S
O238 C237 1.261 . S
H239 C233 0.930 . S
H240 C235 0.930 . S
N241 Cu230 1.985 . S
N241 C243 1.335 . S
N241 C244 1.390 . S
N242 C243 1.345 . S
N242 C245 1.336 . S
C243 N241 1.335 . S
C243 N242 1.345 . S
C243 H248 0.930 . S
C244 N241 1.390 . S
C244 C245 1.346 . S
C244 H249 0.930 . S
C245 N242 1.336 . S
C245 C244 1.346 . S
C245 H252 0.929 . S
C246 O236 1.282 . S
C246 O247 1.216 . S
O247 C246 1.216 . S
H248 C243 0.930 . S
H249 C244 0.930 . S
O250 Cu230 1.959 . S
O250 C237 1.251 . S
H251 C234 0.930 . S
H252 C245 0.929 . S
Cu253 N254 1.999 . S
Cu253 O259 1.974 . S
Cu253 N264 1.985 . S
Cu253 O273 1.959 . S
N254 Cu253 1.999 . S
N254 C256 1.263 . S
N254 C258 1.389 . S
N255 C256 1.358 . S
N255 C257 1.400 . S
C256 N254 1.263 . S
C256 N255 1.358 . S
C256 H262 0.930 . S
C257 N255 1.400 . S
C257 C258 1.351 . S
C257 H274 0.930 . S
C258 N254 1.389 . S
C258 C257 1.351 . S
C258 H263 0.930 . S
O259 Cu253 1.974 . S
O259 C269 1.282 . S
C260 O261 1.261 . S
C260 O273 1.251 . S
O261 C260 1.261 . S
H262 C256 0.930 . S
H263 C258 0.930 . S
N264 Cu253 1.985 . S
N264 C266 1.335 . S
N264 C267 1.390 . S
N265 C266 1.345 . S
N265 C268 1.336 . S
C266 N264 1.335 . S
C266 N265 1.345 . S
C266 H271 0.930 . S
C267 N264 1.390 . S
C267 C268 1.346 . S
C267 H272 0.930 . S
C268 N265 1.336 . S
C268 C267 1.346 . S
C268 H275 0.929 . S
C269 O259 1.282 . S
C269 O270 1.216 . S
O270 C269 1.216 . S
H271 C266 0.930 . S
H272 C267 0.930 . S
O273 Cu253 1.959 . S
O273 C260 1.251 . S
H274 C257 0.930 . S
H275 C268 0.929 . S
Cu276 N277 1.999 . S
Cu276 O282 1.974 . S
Cu276 N287 1.985 . S
Cu276 O296 1.959 . S
N277 Cu276 1.999 . S
N277 C279 1.263 . S
N277 C281 1.389 . S
N278 C279 1.358 . S
N278 C280 1.400 . S
C279 N277 1.263 . S
C279 N278 1.358 . S
C279 H285 0.930 . S
C280 N278 1.400 . S
C280 C281 1.351 . S
C280 H297 0.930 . S
C281 N277 1.389 . S
C281 C280 1.351 . S
C281 H286 0.930 . S
O282 Cu276 1.974 . S
O282 C292 1.282 . S
C283 O284 1.261 . S
C283 O296 1.251 . S
O284 C283 1.261 . S
H285 C279 0.930 . S
H286 C281 0.930 . S
N287 Cu276 1.985 . S
N287 C289 1.335 . S
N287 C290 1.390 . S
N288 C289 1.345 . S
N288 C291 1.336 . S
C289 N287 1.335 . S
C289 N288 1.345 . S
C289 H294 0.930 . S
C290 N287 1.390 . S
C290 C291 1.346 . S
C290 H295 0.930 . S
C291 N288 1.336 . S
C291 C290 1.346 . S
C291 H298 0.929 . S
C292 O282 1.282 . S
C292 O293 1.216 . S
O293 C292 1.216 . S
H294 C289 0.930 . S
H295 C290 0.930 . S
O296 Cu276 1.959 . S
O296 C283 1.251 . S
H297 C280 0.930 . S
H298 C291 0.929 . S
Cu299 N300 1.999 . S
Cu299 O305 1.974 . S
Cu299 N310 1.985 . S
Cu299 O319 1.959 . S
N300 Cu299 1.999 . S
N300 C302 1.263 . S
N300 C304 1.389 . S
N301 C302 1.358 . S
N301 C303 1.400 . S
C302 N300 1.263 . S
C302 N301 1.358 . S
C302 H308 0.930 . S
C303 N301 1.400 . S
C303 C304 1.351 . S
C303 H320 0.930 . S
C304 N300 1.389 . S
C304 C303 1.351 . S
C304 H309 0.930 . S
O305 Cu299 1.974 . S
O305 C315 1.282 . S
C306 O307 1.261 . S
C306 O319 1.251 . S
O307 C306 1.261 . S
H308 C302 0.930 . S
H309 C304 0.930 . S
N310 Cu299 1.985 . S
N310 C312 1.335 . S
N310 C313 1.390 . S
N311 C312 1.345 . S
N311 C314 1.336 . S
C312 N310 1.335 . S
C312 N311 1.345 . S
C312 H317 0.930 . S
C313 N310 1.390 . S
C313 C314 1.346 . S
C313 H318 0.930 . S
C314 N311 1.336 . S
C314 C313 1.346 . S
C314 H321 0.929 . S
C315 O305 1.282 . S
C315 O316 1.216 . S
O316 C315 1.216 . S
H317 C312 0.930 . S
H318 C313 0.930 . S
O319 Cu299 1.959 . S
O319 C306 1.251 . S
H320 C303 0.930 . S
H321 C314 0.929 . S
Cu322 N323 1.999 . S
Cu322 O328 1.974 . S
Cu322 N333 1.985 . S
Cu322 O342 1.959 . S
N323 Cu322 1.999 . S
N323 C325 1.263 . S
N323 C327 1.389 . S
N324 C325 1.358 . S
N324 C326 1.400 . S
C325 N323 1.263 . S
C325 N324 1.358 . S
C325 H331 0.930 . S
C326 N324 1.400 . S
C326 C327 1.351 . S
C326 H343 0.930 . S
C327 N323 1.389 . S
C327 C326 1.351 . S
C327 H332 0.930 . S
O328 Cu322 1.974 . S
O328 C338 1.282 . S
C329 O330 1.261 . S
C329 O342 1.251 . S
O330 C329 1.261 . S
H331 C325 0.930 . S
H332 C327 0.930 . S
N333 Cu322 1.985 . S
N333 C335 1.335 . S
N333 C336 1.390 . S
N334 C335 1.345 . S
N334 C337 1.336 . S
C335 N333 1.335 . S
C335 N334 1.345 . S
C335 H340 0.930 . S
C336 N333 1.390 . S
C336 C337 1.346 . S
C336 H341 0.930 . S
C337 N334 1.336 . S
C337 C336 1.346 . S
C337 H344 0.929 . S
C338 O328 1.282 . S
C338 O339 1.216 . S
O339 C338 1.216 . S
H340 C335 0.930 . S
H341 C336 0.930 . S
O342 Cu322 1.959 . S
O342 C329 1.251 . S
H343 C326 0.930 . S
H344 C337 0.929 . S
Cu345 N346 1.999 . S
Cu345 O351 1.974 . S
Cu345 N356 1.985 . S
Cu345 O365 1.959 . S
N346 Cu345 1.999 . S
N346 C348 1.263 . S
N346 C350 1.389 . S
N347 C348 1.358 . S
N347 C349 1.400 . S
C348 N346 1.263 . S
C348 N347 1.358 . S
C348 H354 0.930 . S
C349 N347 1.400 . S
C349 C350 1.351 . S
C349 H366 0.930 . S
C350 N346 1.389 . S
C350 C349 1.351 . S
C350 H355 0.930 . S
O351 Cu345 1.974 . S
O351 C361 1.282 . S
C352 O353 1.261 . S
C352 O365 1.251 . S
O353 C352 1.261 . S
H354 C348 0.930 . S
H355 C350 0.930 . S
N356 Cu345 1.985 . S
N356 C358 1.335 . S
N356 C359 1.390 . S
N357 C358 1.345 . S
N357 C360 1.336 . S
C358 N356 1.335 . S
C358 N357 1.345 . S
C358 H363 0.930 . S
C359 N356 1.390 . S
C359 C360 1.346 . S
C359 H364 0.930 . S
C360 N357 1.336 . S
C360 C359 1.346 . S
C360 H367 0.929 . S
C361 O351 1.282 . S
C361 O362 1.216 . S
O362 C361 1.216 . S
H363 C358 0.930 . S
H364 C359 0.930 . S
O365 Cu345 1.959 . S
O365 C352 1.251 . S
H366 C349 0.930 . S
H367 C360 0.929 . S
Cu368 N369 1.999 . S
Cu368 O374 1.974 . S
Cu368 N379 1.985 . S
Cu368 O388 1.959 . S
N369 Cu368 1.999 . S
N369 C371 1.263 . S
N369 C373 1.389 . S
N370 C371 1.358 . S
N370 C372 1.400 . S
C371 N369 1.263 . S
C371 N370 1.358 . S
C371 H377 0.930 . S
C372 N370 1.400 . S
C372 C373 1.351 . S
C372 H389 0.930 . S
C373 N369 1.389 . S
C373 C372 1.351 . S
C373 H378 0.930 . S
O374 Cu368 1.974 . S
O374 C384 1.282 . S
C375 O376 1.261 . S
C375 O388 1.251 . S
O376 C375 1.261 . S
H377 C371 0.930 . S
H378 C373 0.930 . S
N379 Cu368 1.985 . S
N379 C381 1.335 . S
N379 C382 1.390 . S
N380 C381 1.345 . S
N380 C383 1.336 . S
C381 N379 1.335 . S
C381 N380 1.345 . S
C381 H386 0.930 . S
C382 N379 1.390 . S
C382 C383 1.346 . S
C382 H387 0.930 . S
C383 N380 1.336 . S
C383 C382 1.346 . S
C383 H390 0.929 . S
C384 O374 1.282 . S
C384 O385 1.216 . S
O385 C384 1.216 . S
H386 C381 0.930 . S
H387 C382 0.930 . S
O388 Cu368 1.959 . S
O388 C375 1.251 . S
H389 C372 0.930 . S
H390 C383 0.929 . S
Cu391 N392 1.999 . S
Cu391 O397 1.974 . S
Cu391 N402 1.985 . S
Cu391 O411 1.959 . S
N392 Cu391 1.999 . S
N392 C394 1.263 . S
N392 C396 1.389 . S
N393 C394 1.358 . S
N393 C395 1.400 . S
C394 N392 1.263 . S
C394 N393 1.358 . S
C394 H400 0.930 . S
C395 N393 1.400 . S
C395 C396 1.351 . S
C395 H412 0.930 . S
C396 N392 1.389 . S
C396 C395 1.351 . S
C396 H401 0.930 . S
O397 Cu391 1.974 . S
O397 C407 1.282 . S
C398 O399 1.261 . S
C398 O411 1.251 . S
O399 C398 1.261 . S
H400 C394 0.930 . S
H401 C396 0.930 . S
N402 Cu391 1.985 . S
N402 C404 1.335 . S
N402 C405 1.390 . S
N403 C404 1.345 . S
N403 C406 1.336 . S
C404 N402 1.335 . S
C404 N403 1.345 . S
C404 H409 0.930 . S
C405 N402 1.390 . S
C405 C406 1.346 . S
C405 H410 0.930 . S
C406 N403 1.336 . S
C406 C405 1.346 . S
C406 H413 0.929 . S
C407 O397 1.282 . S
C407 O408 1.216 . S
O408 C407 1.216 . S
H409 C404 0.930 . S
H410 C405 0.930 . S
O411 Cu391 1.959 . S
O411 C398 1.251 . S
H412 C395 0.930 . S
H413 C406 0.929 . S
Co414 O415 2.216 . S
Co414 O416 2.091 1_455 S
Co414 O418 2.004 1_455 S
Co414 O424 2.021 . S
Co414 O426 2.139 . S
Co414 O427 2.244 . S
O415 Co414 2.216 . S
O415 C422 1.247 . S
O416 Co414 2.091 1_655 S
O416 C422 1.261 1_655 S
C417 O426 1.245 . S
C417 O427 1.272 . S
O418 Co414 2.004 1_655 S
O418 C423 1.259 . S
Co419 O420 2.061 1_455 S
Co419 O425 2.052 . S
Co419 O427 2.135 . S
O420 Co419 2.061 1_655 S
O420 C423 1.235 . S
C421 O424 1.238 . S
C421 O425 1.241 . S
C422 O415 1.247 . S
C422 O416 1.261 1_455 S
C423 O418 1.259 . S
C423 O420 1.235 . S
O424 Co414 2.021 . S
O424 C421 1.238 . S
O425 Co419 2.052 . S
O425 C421 1.241 . S
O426 Co414 2.139 . S
O426 C417 1.245 . S
O427 Co414 2.244 . S
O427 C417 1.272 . S
O427 Co419 2.135 . S
Co428 O429 2.216 . S
Co428 O430 2.091 . S
Co428 O432 2.004 . S
Co428 O438 2.021 . S
Co428 O440 2.137 . S
Co428 O441 2.244 . S
O429 Co428 2.216 . S
O429 C436 1.247 . S
O430 Co428 2.091 . S
O430 C436 1.261 . S
C431 O440 1.247 . S
C431 O441 1.272 . S
O432 Co428 2.004 . S
O432 C437 1.259 . S
Co433 O434 2.061 . S
Co433 O439 2.052 . S
Co433 O441 2.135 . S
O434 Co433 2.061 . S
O434 C437 1.235 . S
C435 O438 1.238 . S
C435 O439 1.241 . S
C436 O429 1.247 . S
C436 O430 1.261 . S
C437 O432 1.259 . S
C437 O434 1.235 . S
O438 Co428 2.021 . S
O438 C435 1.238 . S
O439 Co433 2.052 . S
O439 C435 1.241 . S
O440 Co428 2.137 . S
O440 C431 1.247 . S
O441 Co428 2.244 . S
O441 C431 1.272 . S
O441 Co433 2.135 . S
Co442 O443 2.216 . S
Co442 O444 2.091 . S
Co442 O446 2.004 . S
Co442 O452 2.021 . S
Co442 O454 2.137 . S
Co442 O455 2.244 . S
O443 Co442 2.216 . S
O443 C450 1.247 . S
O444 Co442 2.091 . S
O444 C450 1.261 . S
C445 O454 1.247 . S
C445 O455 1.272 . S
O446 Co442 2.004 . S
O446 C451 1.259 . S
Co447 O448 2.061 . S
Co447 O453 2.052 . S
Co447 O455 2.135 . S
O448 Co447 2.061 . S
O448 C451 1.235 . S
C449 O452 1.238 . S
C449 O453 1.241 . S
C450 O443 1.247 . S
C450 O444 1.261 . S
C451 O446 1.259 . S
C451 O448 1.235 . S
O452 Co442 2.021 . S
O452 C449 1.238 . S
O453 Co447 2.052 . S
O453 C449 1.241 . S
O454 Co442 2.137 . S
O454 C445 1.247 . S
O455 Co442 2.244 . S
O455 C445 1.272 . S
O455 Co447 2.135 . S
Co456 O457 2.216 . S
Co456 O458 2.091 . S
Co456 O460 2.004 . S
Co456 O466 2.021 . S
Co456 O468 2.137 1_455 S
Co456 O469 2.244 1_455 S
O457 Co456 2.216 . S
O457 C464 1.247 . S
O458 Co456 2.091 . S
O458 C464 1.261 . S
C459 O468 1.247 . S
C459 O469 1.272 . S
O460 Co456 2.004 . S
O460 C465 1.259 . S
Co461 O462 2.061 1_655 S
Co461 O467 2.052 1_655 S
Co461 O469 2.135 . S
O462 Co461 2.061 1_455 S
O462 C465 1.235 . S
C463 O466 1.238 . S
C463 O467 1.241 . S
C464 O457 1.247 . S
C464 O458 1.261 . S
C465 O460 1.259 . S
C465 O462 1.235 . S
O466 Co456 2.021 . S
O466 C463 1.238 . S
O467 Co461 2.052 1_455 S
O467 C463 1.241 . S
O468 Co456 2.137 1_655 S
O468 C459 1.247 . S
O469 Co456 2.244 1_655 S
O469 C459 1.272 . S
O469 Co461 2.135 . S
Co470 O471 2.216 . S
Co470 O472 2.091 . S
Co470 O474 2.004 . S
Co470 O480 2.021 . S
Co470 O482 2.137 . S
Co470 O483 2.244 . S
O471 Co470 2.216 . S
O471 C478 1.247 . S
O472 Co470 2.091 . S
O472 C478 1.261 . S
C473 O482 1.247 . S
C473 O483 1.272 . S
O474 Co470 2.004 . S
O474 C479 1.259 . S
Co475 O476 2.061 . S
Co475 O481 2.052 . S
Co475 O483 2.135 . S
O476 Co475 2.061 . S
O476 C479 1.235 . S
C477 O480 1.238 . S
C477 O481 1.241 . S
C478 O471 1.247 . S
C478 O472 1.261 . S
C479 O474 1.259 . S
C479 O476 1.235 . S
O480 Co470 2.021 . S
O480 C477 1.238 . S
O481 Co475 2.052 . S
O481 C477 1.241 . S
O482 Co470 2.137 . S
O482 C473 1.247 . S
O483 Co470 2.244 . S
O483 C473 1.272 . S
O483 Co475 2.135 . S
Co484 O485 2.216 . S
Co484 O486 2.088 . S
Co484 O488 2.004 1_545 S
Co484 O494 2.021 . S
Co484 O496 2.137 . S
Co484 O497 2.244 . S
O485 Co484 2.216 . S
O485 C492 1.247 . S
O486 Co484 2.088 . S
O486 C492 1.260 . S
C487 O496 1.247 . S
C487 O497 1.272 . S
O488 Co484 2.004 1_565 S
O488 C493 1.259 . S
Co489 O490 2.061 . S
Co489 O495 2.052 . S
Co489 O497 2.135 . S
O490 Co489 2.061 . S
O490 C493 1.235 1_545 S
C491 O494 1.238 . S
C491 O495 1.241 . S
C492 O485 1.247 . S
C492 O486 1.260 . S
C493 O488 1.259 . S
C493 O490 1.235 1_565 S
O494 Co484 2.021 . S
O494 C491 1.238 . S
O495 Co489 2.052 . S
O495 C491 1.241 . S
O496 Co484 2.137 . S
O496 C487 1.247 . S
O497 Co484 2.244 . S
O497 C487 1.272 . S
O497 Co489 2.135 . S
Co498 O499 2.216 . S
Co498 O500 2.091 . S
Co498 O502 2.004 . S
Co498 O508 2.021 1_565 S
Co498 O510 2.137 . S
Co498 O511 2.244 . S
O499 Co498 2.216 . S
O499 C506 1.247 . S
O500 Co498 2.091 . S
O500 C506 1.261 . S
C501 O510 1.247 . S
C501 O511 1.296 . S
O502 Co498 2.004 . S
O502 C507 1.259 1_565 S
Co503 O504 2.061 . S
Co503 O509 2.052 . S
Co503 O511 2.108 1_545 S
O504 Co503 2.061 . S
O504 C507 1.235 . S
C505 O508 1.238 . S
C505 O509 1.241 . S
C506 O499 1.247 . S
C506 O500 1.261 . S
C507 O502 1.259 1_545 S
C507 O504 1.235 . S
O508 Co498 2.021 1_545 S
O508 C505 1.238 . S
O509 Co503 2.052 . S
O509 C505 1.241 . S
O510 Co498 2.137 . S
O510 C501 1.247 . S
O511 Co498 2.244 . S
O511 C501 1.296 . S
O511 Co503 2.108 1_565 S
Co512 O513 2.216 . S
Co512 O514 2.091 . S
Co512 O516 2.004 . S
Co512 O522 2.021 . S
Co512 O524 2.137 . S
Co512 O525 2.244 . S
O513 Co512 2.216 . S
O513 C520 1.247 . S
O514 Co512 2.091 . S
O514 C520 1.261 . S
C515 O524 1.247 . S
C515 O525 1.272 . S
O516 Co512 2.004 . S
O516 C521 1.259 . S
Co517 O518 2.061 . S
Co517 O523 2.052 . S
Co517 O525 2.135 . S
O518 Co517 2.061 . S
O518 C521 1.235 . S
C519 O522 1.238 . S
C519 O523 1.241 . S
C520 O513 1.247 . S
C520 O514 1.261 . S
C521 O516 1.259 . S
C521 O518 1.235 . S
O522 Co512 2.021 . S
O522 C519 1.238 . S
O523 Co517 2.052 . S
O523 C519 1.241 . S
O524 Co512 2.137 . S
O524 C515 1.247 . S
O525 Co512 2.244 . S
O525 C515 1.272 . S
O525 Co517 2.135 . S
Co526 O527 2.216 . S
Co526 O528 2.091 . S
Co526 O530 2.004 . S
Co526 O536 2.021 . S
Co526 O538 2.137 . S
Co526 O539 2.244 . S
O527 Co526 2.216 . S
O527 C534 1.247 . S
O528 Co526 2.091 . S
O528 C534 1.261 . S
C529 O538 1.247 . S
C529 O539 1.272 . S
O530 Co526 2.004 . S
O530 C535 1.259 . S
Co531 O532 2.061 . S
Co531 O537 2.052 . S
Co531 O539 2.135 . S
O532 Co531 2.061 . S
O532 C535 1.235 . S
C533 O536 1.238 . S
C533 O537 1.241 . S
C534 O527 1.247 . S
C534 O528 1.261 . S
C535 O530 1.259 . S
C535 O532 1.235 . S
O536 Co526 2.021 . S
O536 C533 1.238 . S
O537 Co531 2.052 . S
O537 C533 1.241 . S
O538 Co526 2.137 . S
O538 C529 1.247 . S
O539 Co526 2.244 . S
O539 C529 1.272 . S
O539 Co531 2.135 . S
Co540 O541 2.216 . S
Co540 O542 2.091 . S
Co540 O544 2.004 . S
Co540 O550 2.021 . S
Co540 O552 2.137 . S
Co540 O553 2.244 . S
O541 Co540 2.216 . S
O541 C548 1.247 . S
O542 Co540 2.091 . S
O542 C548 1.261 . S
C543 O552 1.247 . S
C543 O553 1.272 . S
O544 Co540 2.004 . S
O544 C549 1.259 . S
Co545 O546 2.061 . S
Co545 O551 2.052 . S
Co545 O553 2.135 . S
O546 Co545 2.061 . S
O546 C549 1.235 . S
C547 O550 1.238 . S
C547 O551 1.241 . S
C548 O541 1.247 . S
C548 O542 1.261 . S
C549 O544 1.259 . S
C549 O546 1.235 . S
O550 Co540 2.021 . S
O550 C547 1.238 . S
O551 Co545 2.052 . S
O551 C547 1.241 . S
O552 Co540 2.137 . S
O552 C543 1.247 . S
O553 Co540 2.244 . S
O553 C543 1.272 . S
O553 Co545 2.135 . S
Co554 O555 2.216 . S
Co554 O556 2.091 . S
Co554 O558 2.004 . S
Co554 O564 2.021 . S
Co554 O566 2.137 1_565 S
Co554 O567 2.244 1_565 S
O555 Co554 2.216 . S
O555 C562 1.247 . S
O556 Co554 2.091 . S
O556 C562 1.261 . S
C557 O566 1.247 . S
C557 O567 1.272 . S
O558 Co554 2.004 . S
O558 C563 1.259 1_565 S
Co559 O560 2.061 . S
Co559 O565 2.052 1_545 S
Co559 O567 2.135 . S
O560 Co559 2.061 . S
O560 C563 1.235 . S
C561 O564 1.238 . S
C561 O565 1.241 . S
C562 O555 1.247 . S
C562 O556 1.261 . S
C563 O558 1.259 1_545 S
C563 O560 1.235 . S
O564 Co554 2.021 . S
O564 C561 1.238 . S
O565 Co559 2.052 1_565 S
O565 C561 1.241 . S
O566 Co554 2.137 1_545 S
O566 C557 1.247 . S
O567 Co554 2.244 1_545 S
O567 C557 1.272 . S
O567 Co559 2.135 . S
Co568 O569 2.216 . S
Co568 O570 2.091 . S
Co568 O572 2.004 . S
Co568 O578 2.021 . S
Co568 O580 2.137 . S
Co568 O581 2.244 . S
O569 Co568 2.216 . S
O569 C576 1.247 . S
O570 Co568 2.091 . S
O570 C576 1.261 . S
C571 O580 1.247 . S
C571 O581 1.272 . S
O572 Co568 2.004 . S
O572 C577 1.259 1_455 S
Co573 O574 2.061 . S
Co573 O579 2.052 . S
Co573 O581 2.135 . S
O574 Co573 2.061 . S
O574 C577 1.235 1_455 S
C575 O578 1.238 . S
C575 O579 1.241 . S
C576 O569 1.247 . S
C576 O570 1.261 . S
C577 O572 1.259 1_655 S
C577 O574 1.235 1_655 S
O578 Co568 2.021 . S
O578 C575 1.238 . S
O579 Co573 2.052 . S
O579 C575 1.241 . S
O580 Co568 2.137 . S
O580 C571 1.247 . S
O581 Co568 2.244 . S
O581 C571 1.272 . S
O581 Co573 2.135 . S
Co582 O583 2.216 . S
Co582 O584 2.091 . S
Co582 O586 2.004 . S
Co582 O592 2.021 . S
Co582 O594 2.137 . S
Co582 O595 2.244 . S
O583 Co582 2.216 . S
O583 C590 1.225 1_556 S
O584 Co582 2.091 . S
O584 C590 1.260 1_556 S
C585 O594 1.247 . S
C585 O595 1.272 . S
O586 Co582 2.004 . S
O586 C591 1.259 . S
Co587 O588 2.061 . S
Co587 O593 2.052 . S
Co587 O595 2.135 . S
O588 Co587 2.061 . S
O588 C591 1.235 . S
C589 O592 1.238 . S
C589 O593 1.241 . S
C590 O583 1.225 1_554 S
C590 O584 1.260 1_554 S
C591 O586 1.259 . S
C591 O588 1.235 . S
O592 Co582 2.021 . S
O592 C589 1.238 . S
O593 Co587 2.052 . S
O593 C589 1.241 . S
O594 Co582 2.137 . S
O594 C585 1.247 . S
O595 Co582 2.244 . S
O595 C585 1.272 . S
O595 Co587 2.135 . S
Co596 O597 2.216 . S
Co596 O598 2.091 . S
Co596 O600 2.004 . S
Co596 O606 2.021 . S
Co596 O608 2.137 . S
Co596 O609 2.244 . S
O597 Co596 2.216 . S
O597 C604 1.247 . S
O598 Co596 2.091 . S
O598 C604 1.261 . S
C599 O608 1.247 . S
C599 O609 1.272 . S
O600 Co596 2.004 . S
O600 C605 1.259 . S
Co601 O602 2.061 . S
Co601 O607 2.052 . S
Co601 O609 2.135 . S
O602 Co601 2.061 . S
O602 C605 1.235 . S
C603 O606 1.238 . S
C603 O607 1.241 . S
C604 O597 1.247 . S
C604 O598 1.261 . S
C605 O600 1.259 . S
C605 O602 1.235 . S
O606 Co596 2.021 . S
O606 C603 1.238 . S
O607 Co601 2.052 . S
O607 C603 1.241 . S
O608 Co596 2.137 . S
O608 C599 1.247 . S
O609 Co596 2.244 . S
O609 C599 1.272 . S
O609 Co601 2.135 . S
Co610 O611 2.216 . S
Co610 O612 2.091 . S
Co610 O614 2.004 1_655 S
Co610 O620 2.021 . S
Co610 O622 2.137 . S
Co610 O623 2.244 . S
O611 Co610 2.216 . S
O611 C618 1.247 . S
O612 Co610 2.091 . S
O612 C618 1.261 . S
C613 O622 1.247 . S
C613 O623 1.272 . S
O614 Co610 2.004 1_455 S
O614 C619 1.259 . S
Co615 O616 2.055 1_655 S
Co615 O621 2.045 . S
Co615 O623 2.175 . S
O616 Co615 2.055 1_455 S
O616 C619 1.235 . S
C617 O620 1.238 . S
C617 O621 1.241 . S
C618 O611 1.247 . S
C618 O612 1.261 . S
C619 O614 1.259 . S
C619 O616 1.235 . S
O620 Co610 2.021 . S
O620 C617 1.238 . S
O621 Co615 2.045 . S
O621 C617 1.241 . S
O622 Co610 2.137 . S
O622 C613 1.247 . S
O623 Co610 2.244 . S
O623 C613 1.272 . S
O623 Co615 2.175 . S
Co624 O625 2.216 . S
Co624 O626 2.091 . S
Co624 O628 2.004 . S
Co624 O634 2.021 . S
Co624 O636 2.137 . S
Co624 O637 2.244 . S
O625 Co624 2.216 . S
O625 C632 1.247 . S
O626 Co624 2.091 . S
O626 C632 1.261 . S
C627 O636 1.247 . S
C627 O637 1.272 . S
O628 Co624 2.004 . S
O628 C633 1.259 . S
Co629 O630 2.061 . S
Co629 O635 2.052 . S
Co629 O637 2.135 . S
O630 Co629 2.061 . S
O630 C633 1.235 . S
C631 O634 1.238 . S
C631 O635 1.241 . S
C632 O625 1.247 . S
C632 O626 1.261 . S
C633 O628 1.259 . S
C633 O630 1.235 . S
O634 Co624 2.021 . S
O634 C631 1.238 . S
O635 Co629 2.052 . S
O635 C631 1.241 . S
O636 Co624 2.137 . S
O636 C627 1.247 . S
O637 Co624 2.244 . S
O637 C627 1.272 . S
O637 Co629 2.135 . S
Co638 O639 2.216 . S
Co638 O640 2.091 . S
Co638 O642 2.004 1_655 S
Co638 O648 2.021 . S
Co638 O650 2.137 . S
Co638 O651 2.244 . S
O639 Co638 2.216 . S
O639 C646 1.247 . S
O640 Co638 2.091 . S
O640 C646 1.261 . S
C641 O650 1.247 . S
C641 O651 1.272 . S
O642 Co638 2.004 1_455 S
O642 C647 1.259 . S
Co643 O644 2.061 1_655 S
Co643 O649 2.052 . S
Co643 O651 2.135 . S
O644 Co643 2.061 1_455 S
O644 C647 1.235 . S
C645 O648 1.238 . S
C645 O649 1.241 . S
C646 O639 1.247 . S
C646 O640 1.261 . S
C647 O642 1.259 . S
C647 O644 1.235 . S
O648 Co638 2.021 . S
O648 C645 1.238 . S
O649 Co643 2.052 . S
O649 C645 1.241 . S
O650 Co638 2.137 . S
O650 C641 1.247 . S
O651 Co638 2.244 . S
O651 C641 1.272 . S
O651 Co643 2.135 . S
Co652 O653 2.216 . S
Co652 O654 2.091 . S
Co652 O656 2.004 . S
Co652 O662 2.021 . S
Co652 O664 2.137 . S
Co652 O665 2.244 . S
O653 Co652 2.216 . S
O653 C660 1.247 . S
O654 Co652 2.091 . S
O654 C660 1.261 . S
C655 O664 1.247 . S
C655 O665 1.272 . S
O656 Co652 2.004 . S
O656 C661 1.259 . S
Co657 O658 2.061 . S
Co657 O663 2.052 . S
Co657 O665 2.135 . S
O658 Co657 2.061 . S
O658 C661 1.235 . S
C659 O662 1.238 . S
C659 O663 1.241 . S
C660 O653 1.247 . S
C660 O654 1.261 . S
C661 O656 1.259 . S
C661 O658 1.235 . S
O662 Co652 2.021 . S
O662 C659 1.238 . S
O663 Co657 2.052 . S
O663 C659 1.241 . S
O664 Co652 2.137 . S
O664 C655 1.247 . S
O665 Co652 2.244 . S
O665 C655 1.272 . S
O665 Co657 2.135 . S
C666 C667 1.369 . S
C666 C668 1.419 . S
C666 H670 0.930 . S
C667 C666 1.369 . S
C667 C676 1.429 . S
C668 C666 1.419 . S
C668 C669 1.363 . S
C668 H671 0.929 . S
C669 C668 1.363 . S
C669 C675 1.428 . S
H670 C666 0.930 . S
H671 C668 0.929 . S
S672 N673 1.613 . S
S672 N674 1.610 1_556 S
N673 S672 1.613 . S
N673 C676 1.350 1_556 S
N674 S672 1.610 1_554 S
N674 C675 1.351 . S
C675 C669 1.428 . S
C675 N674 1.351 . S
C675 C676 1.434 . S
C676 C667 1.429 . S
C676 N673 1.350 1_554 S
C676 C675 1.434 . S
C677 C678 1.369 . S
C677 C679 1.419 . S
C677 H681 0.930 . S
C678 C677 1.369 . S
C678 C687 1.429 . S
C679 C677 1.419 . S
C679 C680 1.363 . S
C679 H682 0.929 . S
C680 C679 1.363 . S
C680 C686 1.428 . S
H681 C677 0.930 . S
H682 C679 0.929 . S
S683 N684 1.613 . S
S683 N685 1.610 . S
N684 S683 1.613 . S
N684 C687 1.350 . S
N685 S683 1.610 . S
N685 C686 1.351 . S
C686 C680 1.428 . S
C686 N685 1.351 . S
C686 C687 1.434 . S
C687 C678 1.429 . S
C687 N684 1.350 . S
C687 C686 1.434 . S
C688 C689 1.369 1_565 S
C688 C690 1.419 . S
C688 H692 0.930 . S
C689 C688 1.369 1_545 S
C689 C698 1.429 . S
C690 C688 1.419 . S
C690 C691 1.363 1_565 S
C690 H693 0.929 . S
C691 C690 1.363 1_545 S
C691 C697 1.428 . S
H692 C688 0.930 . S
H693 C690 0.929 . S
S694 N695 1.613 1_556 S
S694 N696 1.610 1_556 S
N695 S694 1.613 1_554 S
N695 C698 1.350 . S
N696 S694 1.610 1_554 S
N696 C697 1.351 . S
C697 C691 1.428 . S
C697 N696 1.351 . S
C697 C698 1.434 . S
C698 C689 1.429 . S
C698 N695 1.350 . S
C698 C697 1.434 . S
C699 C700 1.369 . S
C699 C701 1.419 . S
C699 H703 0.930 . S
C700 C699 1.369 . S
C700 C709 1.429 . S
C701 C699 1.419 . S
C701 C702 1.363 . S
C701 H704 0.929 . S
C702 C701 1.363 . S
C702 C708 1.428 . S
H703 C699 0.930 . S
H704 C701 0.929 . S
S705 N706 1.613 . S
S705 N707 1.610 . S
N706 S705 1.613 . S
N706 C709 1.350 . S
N707 S705 1.610 . S
N707 C708 1.351 . S
C708 C702 1.428 . S
C708 N707 1.351 . S
C708 C709 1.434 . S
C709 C700 1.429 . S
C709 N706 1.350 . S
C709 C708 1.434 . S
C710 C711 1.369 . S
C710 C712 1.419 . S
C710 H714 0.930 . S
C711 C710 1.369 . S
C711 C720 1.429 . S
C712 C710 1.419 . S
C712 C713 1.363 . S
C712 H715 0.929 . S
C713 C712 1.363 . S
C713 C719 1.428 . S
H714 C710 0.930 . S
H715 C712 0.929 . S
S716 N717 1.613 1_655 S
S716 N718 1.610 . S
N717 S716 1.613 1_455 S
N717 C720 1.350 . S
N718 S716 1.610 . S
N718 C719 1.351 1_655 S
C719 C713 1.428 . S
C719 N718 1.351 1_455 S
C719 C720 1.434 . S
C720 C711 1.429 . S
C720 N717 1.350 . S
C720 C719 1.434 . S
C721 C722 1.369 . S
C721 C723 1.419 . S
C721 H725 0.930 . S
C722 C721 1.369 . S
C722 C731 1.429 . S
C723 C721 1.419 . S
C723 C724 1.363 . S
C723 H726 0.929 . S
C724 C723 1.363 . S
C724 C730 1.428 . S
H725 C721 0.930 . S
H726 C723 0.929 . S
S727 N728 1.613 . S
S727 N729 1.610 . S
N728 S727 1.613 . S
N728 C731 1.350 . S
N729 S727 1.610 . S
N729 C730 1.351 . S
C730 C724 1.428 . S
C730 N729 1.351 . S
C730 C731 1.434 . S
C731 C722 1.429 . S
C731 N728 1.350 . S
C731 C730 1.434 . S
C732 C733 1.369 1_655 S
C732 C734 1.419 . S
C732 H736 0.930 . S
C733 C732 1.369 1_455 S
C733 C742 1.429 . S
C734 C732 1.419 . S
C734 C735 1.363 1_655 S
C734 H737 0.929 . S
C735 C734 1.363 1_455 S
C735 C741 1.428 . S
H736 C732 0.930 . S
H737 C734 0.929 . S
S738 N739 1.613 . S
S738 N740 1.610 . S
N739 S738 1.613 . S
N739 C742 1.350 . S
N740 S738 1.610 . S
N740 C741 1.351 . S
C741 C735 1.428 . S
C741 N740 1.351 . S
C741 C742 1.434 . S
C742 C733 1.429 . S
C742 N739 1.350 . S
C742 C741 1.434 . S
C743 C744 1.369 . S
C743 C745 1.419 . S
C743 H747 0.930 . S
C744 C743 1.369 . S
C744 C753 1.429 1_556 S
C745 C743 1.419 . S
C745 C746 1.363 . S
C745 H748 0.929 . S
C746 C745 1.363 . S
C746 C752 1.446 . S
H747 C743 0.930 . S
H748 C745 0.929 . S
S749 N750 1.613 . S
S749 N751 1.610 . S
N750 S749 1.613 . S
N750 C753 1.350 . S
N751 S749 1.610 . S
N751 C752 1.335 1_554 S
C752 C746 1.446 . S
C752 N751 1.335 1_556 S
C752 C753 1.431 1_556 S
C753 C744 1.429 1_554 S
C753 N750 1.350 . S
C753 C752 1.431 1_554 S
C754 C755 1.369 . S
C754 C756 1.419 . S
C754 H758 0.930 . S
C755 C754 1.369 . S
C755 C764 1.429 . S
C756 C754 1.419 . S
C756 C757 1.363 . S
C756 H759 0.929 . S
C757 C756 1.363 . S
C757 C763 1.428 . S
H758 C754 0.930 . S
H759 C756 0.929 . S
S760 N761 1.613 . S
S760 N762 1.610 1_565 S
N761 S760 1.613 . S
N761 C764 1.350 1_565 S
N762 S760 1.610 1_545 S
N762 C763 1.351 . S
C763 C757 1.428 . S
C763 N762 1.351 . S
C763 C764 1.434 . S
C764 C755 1.429 . S
C764 N761 1.350 1_545 S
C764 C763 1.434 . S
C765 C766 1.369 1_545 S
C765 C767 1.419 . S
C765 H769 0.930 . S
C766 C765 1.369 1_565 S
C766 C775 1.429 . S
C767 C765 1.419 . S
C767 C768 1.363 . S
C767 H770 0.929 . S
C768 C767 1.363 . S
C768 C774 1.428 1_545 S
H769 C765 0.930 . S
H770 C767 0.929 . S
S771 N772 1.613 . S
S771 N773 1.610 . S
N772 S771 1.613 . S
N772 C775 1.350 . S
N773 S771 1.610 . S
N773 C774 1.351 . S
C774 C768 1.428 1_565 S
C774 N773 1.351 . S
C774 C775 1.434 . S
C775 C766 1.429 . S
C775 N772 1.350 . S
C775 C774 1.434 . S
C776 C777 1.369 . S
C776 C778 1.419 . S
C776 H780 0.930 . S
C777 C776 1.369 . S
C777 C786 1.429 . S
C778 C776 1.419 . S
C778 C779 1.363 . S
C778 H781 0.929 . S
C779 C778 1.363 . S
C779 C785 1.428 . S
H780 C776 0.930 . S
H781 C778 0.929 . S
S782 N783 1.613 . S
S782 N784 1.610 . S
N783 S782 1.613 . S
N783 C786 1.350 . S
N784 S782 1.610 . S
N784 C785 1.351 . S
C785 C779 1.428 . S
C785 N784 1.351 . S
C785 C786 1.434 . S
C786 C777 1.429 . S
C786 N783 1.350 . S
C786 C785 1.434 . S
C787 C788 1.369 . S
C787 C789 1.419 . S
C787 H791 0.930 . S
C788 C787 1.369 . S
C788 C797 1.429 . S
C789 C787 1.419 . S
C789 C790 1.363 . S
C789 H792 0.929 . S
C790 C789 1.363 . S
C790 C796 1.428 . S
H791 C787 0.930 . S
H792 C789 0.929 . S
S793 N794 1.613 . S
S793 N795 1.610 . S
N794 S793 1.613 . S
N794 C797 1.350 . S
N795 S793 1.610 . S
N795 C796 1.351 . S
C796 C790 1.428 . S
C796 N795 1.351 . S
C796 C797 1.434 . S
C797 C788 1.429 . S
C797 N794 1.350 . S
C797 C796 1.434 . S
C798 C799 1.369 . S
C798 C800 1.419 . S
C798 H802 0.930 . S
C799 C798 1.369 . S
C799 C808 1.429 . S
C800 C798 1.419 . S
C800 C801 1.363 . S
C800 H803 0.929 . S
C801 C800 1.363 . S
C801 C807 1.428 . S
H802 C798 0.930 . S
H803 C800 0.929 . S
S804 N805 1.613 . S
S804 N806 1.610 . S
N805 S804 1.613 . S
N805 C808 1.350 . S
N806 S804 1.610 . S
N806 C807 1.351 . S
C807 C801 1.428 . S
C807 N806 1.351 . S
C807 C808 1.434 . S
C808 C799 1.429 . S
C808 N805 1.350 . S
C808 C807 1.434 . S
C809 C810 1.369 1_545 S
C809 C811 1.419 . S
C809 H813 0.930 . S
C810 C809 1.369 1_565 S
C810 C819 1.429 . S
C811 C809 1.419 . S
C811 C812 1.363 . S
C811 H814 0.929 . S
C812 C811 1.363 . S
C812 C818 1.428 . S
H813 C809 0.930 . S
H814 C811 0.929 . S
S815 N816 1.613 . S
S815 N817 1.610 1_565 S
N816 S815 1.613 . S
N816 C819 1.350 . S
N817 S815 1.610 1_545 S
N817 C818 1.351 . S
C818 C812 1.428 . S
C818 N817 1.351 . S
C818 C819 1.434 1_545 S
C819 C810 1.429 . S
C819 N816 1.350 . S
C819 C818 1.434 1_565 S
C820 C821 1.369 . S
C820 C822 1.419 . S
C820 H824 0.930 . S
C821 C820 1.369 . S
C821 C830 1.429 . S
C822 C820 1.419 . S
C822 C823 1.363 . S
C822 H825 0.929 . S
C823 C822 1.363 . S
C823 C829 1.428 . S
H824 C820 0.930 . S
H825 C822 0.929 . S
S826 N827 1.613 . S
S826 N828 1.610 . S
N827 S826 1.613 . S
N827 C830 1.350 . S
N828 S826 1.610 . S
N828 C829 1.351 . S
C829 C823 1.428 . S
C829 N828 1.351 . S
C829 C830 1.434 . S
C830 C821 1.429 . S
C830 N827 1.350 . S
C830 C829 1.434 . S
C831 C832 1.369 . S
C831 C833 1.419 . S
C831 H835 0.930 . S
C832 C831 1.369 . S
C832 C841 1.429 . S
C833 C831 1.419 . S
C833 C834 1.363 . S
C833 H836 0.929 . S
C834 C833 1.363 . S
C834 C840 1.428 . S
H835 C831 0.930 . S
H836 C833 0.929 . S
S837 N838 1.613 . S
S837 N839 1.610 . S
N838 S837 1.613 . S
N838 C841 1.350 . S
N839 S837 1.610 . S
N839 C840 1.351 . S
C840 C834 1.428 . S
C840 N839 1.351 . S
C840 C841 1.434 . S
C841 C832 1.429 . S
C841 N838 1.350 . S
C841 C840 1.434 . S
C842 C843 1.369 . S
C842 C844 1.419 . S
C842 H846 0.930 . S
C843 C842 1.369 . S
C843 C852 1.429 . S
C844 C842 1.419 . S
C844 C845 1.363 . S
C844 H847 0.929 . S
C845 C844 1.363 . S
C845 C851 1.428 . S
H846 C842 0.930 . S
H847 C844 0.929 . S
S848 N849 1.613 . S
S848 N850 1.610 . S
N849 S848 1.613 . S
N849 C852 1.350 . S
N850 S848 1.610 . S
N850 C851 1.351 . S
C851 C845 1.428 . S
C851 N850 1.351 . S
C851 C852 1.434 . S
C852 C843 1.429 . S
C852 N849 1.350 . S
C852 C851 1.434 . S
C853 C854 1.369 . S
C853 C855 1.419 . S
C853 H857 0.930 . S
C854 C853 1.369 . S
C854 C863 1.429 . S
C855 C853 1.419 . S
C855 C856 1.363 . S
C855 H858 0.929 1_565 S
C856 C855 1.363 . S
C856 C862 1.428 . S
H857 C853 0.930 . S
H858 C855 0.929 1_545 S
S859 N860 1.613 . S
S859 N861 1.610 . S
N860 S859 1.613 . S
N860 C863 1.350 . S
N861 S859 1.610 . S
N861 C862 1.351 . S
C862 C856 1.428 . S
C862 N861 1.351 . S
C862 C863 1.434 . S
C863 C854 1.429 . S
C863 N860 1.350 . S
C863 C862 1.434 . S
C864 C865 1.369 . S
C864 C866 1.419 . S
C864 H868 0.930 . S
C865 C864 1.369 . S
C865 C874 1.429 1_565 S
C866 C864 1.419 . S
C866 C867 1.363 1_565 S
C866 H869 0.929 . S
C867 C866 1.363 1_545 S
C867 C873 1.428 . S
H868 C864 0.930 . S
H869 C866 0.929 . S
S870 N871 1.613 . S
S870 N872 1.610 . S
N871 S870 1.613 . S
N871 C874 1.350 . S
N872 S870 1.610 . S
N872 C873 1.351 . S
C873 C867 1.428 . S
C873 N872 1.351 . S
C873 C874 1.434 . S
C874 C865 1.429 1_545 S
C874 N871 1.350 . S
C874 C873 1.434 . S
C875 C876 1.369 . S
C875 C877 1.419 . S
C875 H879 0.930 . S
C876 C875 1.369 . S
C876 C885 1.429 . S
C877 C875 1.419 . S
C877 C878 1.363 . S
C877 H880 0.929 . S
C878 C877 1.363 . S
C878 C884 1.428 . S
H879 C875 0.930 . S
H880 C877 0.929 . S
S881 N882 1.613 . S
S881 N883 1.610 . S
N882 S881 1.613 . S
N882 C885 1.350 . S
N883 S881 1.610 . S
N883 C884 1.351 . S
C884 C878 1.428 . S
C884 N883 1.351 . S
C884 C885 1.434 . S
C885 C876 1.429 . S
C885 N882 1.350 . S
C885 C884 1.434 . S
C886 C887 1.369 . S
C886 C888 1.419 . S
C886 H890 0.930 . S
C887 C886 1.369 . S
C887 C896 1.429 . S
C888 C886 1.419 . S
C888 C889 1.363 . S
C888 H891 0.929 . S
C889 C888 1.363 . S
C889 C895 1.428 . S
H890 C886 0.930 . S
H891 C888 0.929 . S
S892 N893 1.613 . S
S892 N894 1.610 . S
N893 S892 1.613 . S
N893 C896 1.350 . S
N894 S892 1.610 . S
N894 C895 1.351 . S
C895 C889 1.428 . S
C895 N894 1.351 . S
C895 C896 1.434 . S
C896 C887 1.429 . S
C896 N893 1.350 . S
C896 C895 1.434 . S
C897 C898 1.369 . S
C897 C899 1.419 . S
C897 H901 0.930 . S
C898 C897 1.369 . S
C898 C907 1.429 . S
C899 C897 1.419 . S
C899 C900 1.363 . S
C899 H902 0.929 . S
C900 C899 1.363 . S
C900 C906 1.428 . S
H901 C897 0.930 . S
H902 C899 0.929 . S
S903 N904 1.613 . S
S903 N905 1.610 . S
N904 S903 1.613 . S
N904 C907 1.350 . S
N905 S903 1.610 . S
N905 C906 1.351 . S
C906 C900 1.428 . S
C906 N905 1.351 . S
C906 C907 1.434 . S
C907 C898 1.429 . S
C907 N904 1.350 . S
C907 C906 1.434 . S
C908 C909 1.369 1_545 S
C908 C910 1.419 . S
C908 H912 0.930 . S
C909 C908 1.369 1_565 S
C909 C918 1.429 . S
C910 C908 1.419 . S
C910 C911 1.363 . S
C910 H913 0.929 . S
C911 C910 1.363 . S
C911 C917 1.428 . S
H912 C908 0.930 . S
H913 C910 0.929 . S
S914 N915 1.613 . S
S914 N916 1.610 . S
N915 S914 1.613 . S
N915 C918 1.350 . S
N916 S914 1.610 . S
N916 C917 1.351 1_565 S
C917 C911 1.428 . S
C917 N916 1.351 1_545 S
C917 C918 1.434 1_545 S
C918 C909 1.429 . S
C918 N915 1.350 . S
C918 C917 1.434 1_565 S
C919 C920 1.369 . S
C919 C921 1.419 . S
C919 H923 0.930 . S
C920 C919 1.369 . S
C920 C929 1.429 . S
C921 C919 1.419 . S
C921 C922 1.363 . S
C921 H924 0.929 . S
C922 C921 1.363 . S
C922 C928 1.428 . S
H923 C919 0.930 . S
H924 C921 0.929 . S
S925 N926 1.613 . S
S925 N927 1.610 . S
N926 S925 1.613 . S
N926 C929 1.350 . S
N927 S925 1.610 . S
N927 C928 1.351 . S
C928 C922 1.428 . S
C928 N927 1.351 . S
C928 C929 1.434 . S
C929 C920 1.429 . S
C929 N926 1.350 . S
C929 C928 1.434 . S
C930 C931 1.369 . S
C930 C932 1.419 . S
C930 H934 0.930 . S
C931 C930 1.369 . S
C931 C940 1.429 . S
C932 C930 1.419 . S
C932 C933 1.363 . S
C932 H935 0.929 . S
C933 C932 1.363 . S
C933 C939 1.428 . S
H934 C930 0.930 . S
H935 C932 0.929 . S
S936 N937 1.613 . S
S936 N938 1.610 . S
N937 S936 1.613 . S
N937 C940 1.350 . S
N938 S936 1.610 . S
N938 C939 1.351 . S
C939 C933 1.428 . S
C939 N938 1.351 . S
C939 C940 1.434 . S
C940 C931 1.429 . S
C940 N937 1.350 . S
C940 C939 1.434 . S
C941 C942 1.369 . S
C941 C943 1.419 . S
C941 H945 0.930 . S
C942 C941 1.369 . S
C942 C951 1.429 . S
C943 C941 1.419 . S
C943 C944 1.363 . S
C943 H946 0.929 . S
C944 C943 1.363 . S
C944 C950 1.428 . S
H945 C941 0.930 . S
H946 C943 0.929 . S
S947 N948 1.613 . S
S947 N949 1.610 . S
N948 S947 1.613 . S
N948 C951 1.350 . S
N949 S947 1.610 . S
N949 C950 1.351 . S
C950 C944 1.428 . S
C950 N949 1.351 . S
C950 C951 1.434 . S
C951 C942 1.429 . S
C951 N948 1.350 . S
C951 C950 1.434 . S
C952 C953 1.369 . S
C952 C954 1.419 . S
C952 H956 0.930 . S
C953 C952 1.369 . S
C953 C962 1.429 . S
C954 C952 1.419 . S
C954 C955 1.363 . S
C954 H957 0.929 . S
C955 C954 1.363 . S
C955 C961 1.428 . S
H956 C952 0.930 . S
H957 C954 0.929 . S
S958 N959 1.613 . S
S958 N960 1.610 . S
N959 S958 1.613 . S
N959 C962 1.350 . S
N960 S958 1.610 . S
N960 C961 1.351 . S
C961 C955 1.428 . S
C961 N960 1.351 . S
C961 C962 1.434 . S
C962 C953 1.429 . S
C962 N959 1.350 . S
C962 C961 1.434 . S
C963 C964 1.369 . S
C963 C965 1.419 . S
C963 H967 0.930 . S
C964 C963 1.369 . S
C964 C973 1.429 . S
C965 C963 1.419 . S
C965 C966 1.363 . S
C965 H968 0.929 . S
C966 C965 1.363 . S
C966 C972 1.428 . S
H967 C963 0.930 . S
H968 C965 0.929 . S
S969 N970 1.613 . S
S969 N971 1.610 . S
N970 S969 1.613 . S
N970 C973 1.350 . S
N971 S969 1.610 . S
N971 C972 1.351 . S
C972 C966 1.428 . S
C972 N971 1.351 . S
C972 C973 1.434 . S
C973 C964 1.429 . S
C973 N970 1.350 . S
C973 C972 1.434 . S
C974 C975 1.369 . S
C974 C976 1.419 . S
C974 H978 0.930 . S
C975 C974 1.369 . S
C975 C984 1.429 . S
C976 C974 1.419 . S
C976 C977 1.363 . S
C976 H979 0.929 . S
C977 C976 1.363 . S
C977 C983 1.428 . S
H978 C974 0.930 . S
H979 C976 0.929 . S
S980 N981 1.613 . S
S980 N982 1.610 . S
N981 S980 1.613 . S
N981 C984 1.350 . S
N982 S980 1.610 . S
N982 C983 1.351 . S
C983 C977 1.428 . S
C983 N982 1.351 . S
C983 C984 1.434 . S
C984 C975 1.429 . S
C984 N981 1.350 . S
C984 C983 1.434 . S
C985 C986 1.369 . S
C985 C987 1.419 . S
C985 H989 0.930 . S
C986 C985 1.369 . S
C986 C995 1.429 . S
C987 C985 1.419 . S
C987 C988 1.363 . S
C987 H990 0.929 . S
C988 C987 1.363 . S
C988 C994 1.428 . S
H989 C985 0.930 . S
H990 C987 0.929 . S
S991 N992 1.613 . S
S991 N993 1.610 . S
N992 S991 1.613 . S
N992 C995 1.350 . S
N993 S991 1.610 . S
N993 C994 1.351 . S
C994 C988 1.428 . S
C994 N993 1.351 . S
C994 C995 1.434 . S
C995 C986 1.429 . S
C995 N992 1.350 . S
C995 C994 1.434 . S
C996 C997 1.369 . S
C996 C998 1.419 . S
C996 H1000 0.930 . S
C997 C996 1.369 . S
C997 C1006 1.429 . S
C998 C996 1.419 . S
C998 C999 1.363 . S
C998 H1001 0.929 . S
C999 C998 1.363 . S
C999 C1005 1.428 . S
H1000 C996 0.930 . S
H1001 C998 0.929 . S
S1002 N1003 1.613 . S
S1002 N1004 1.610 . S
N1003 S1002 1.613 . S
N1003 C1006 1.350 . S
N1004 S1002 1.610 . S
N1004 C1005 1.351 . S
C1005 C999 1.428 . S
C1005 N1004 1.351 . S
C1005 C1006 1.434 . S
C1006 C997 1.429 . S
C1006 N1003 1.350 . S
C1006 C1005 1.434 . S
C1007 C1008 1.369 . S
C1007 C1009 1.419 . S
C1007 H1011 0.930 . S
C1008 C1007 1.369 . S
C1008 C1017 1.429 . S
C1009 C1007 1.419 . S
C1009 C1010 1.363 . S
C1009 H1012 0.929 . S
C1010 C1009 1.363 . S
C1010 C1016 1.428 . S
H1011 C1007 0.930 . S
H1012 C1009 0.929 . S
S1013 N1014 1.613 . S
S1013 N1015 1.610 . S
N1014 S1013 1.613 . S
N1014 C1017 1.350 . S
N1015 S1013 1.610 . S
N1015 C1016 1.351 . S
C1016 C1010 1.428 . S
C1016 N1015 1.351 . S
C1016 C1017 1.434 . S
C1017 C1008 1.429 . S
C1017 N1014 1.350 . S
C1017 C1016 1.434 . S
C1018 C1019 1.369 . S
C1018 C1020 1.419 . S
C1018 H1022 0.930 . S
C1019 C1018 1.369 . S
C1019 C1028 1.429 . S
C1020 C1018 1.419 . S
C1020 C1021 1.363 . S
C1020 H1023 0.929 . S
C1021 C1020 1.363 . S
C1021 C1027 1.428 . S
H1022 C1018 0.930 . S
H1023 C1020 0.929 . S
S1024 N1025 1.613 . S
S1024 N1026 1.610 . S
N1025 S1024 1.613 . S
N1025 C1028 1.350 . S
N1026 S1024 1.610 . S
N1026 C1027 1.351 . S
C1027 C1021 1.428 . S
C1027 N1026 1.351 . S
C1027 C1028 1.434 . S
C1028 C1019 1.429 . S
C1028 N1025 1.350 . S
C1028 C1027 1.434 . S
C1029 C1030 1.369 . S
C1029 C1031 1.419 . S
C1029 H1033 0.930 . S
C1030 C1029 1.369 . S
C1030 C1039 1.429 . S
C1031 C1029 1.419 . S
C1031 C1032 1.363 . S
C1031 H1034 0.929 . S
C1032 C1031 1.363 . S
C1032 C1038 1.428 . S
H1033 C1029 0.930 . S
H1034 C1031 0.929 . S
S1035 N1036 1.613 . S
S1035 N1037 1.610 . S
N1036 S1035 1.613 . S
N1036 C1039 1.350 . S
N1037 S1035 1.610 . S
N1037 C1038 1.351 . S
C1038 C1032 1.428 . S
C1038 N1037 1.351 . S
C1038 C1039 1.434 . S
C1039 C1030 1.429 . S
C1039 N1036 1.350 . S
C1039 C1038 1.434 . S
C1040 C1041 1.369 . S
C1040 C1042 1.419 . S
C1040 H1044 0.930 . S
C1041 C1040 1.369 . S
C1041 C1050 1.429 . S
C1042 C1040 1.419 . S
C1042 C1043 1.363 . S
C1042 H1045 0.929 . S
C1043 C1042 1.363 . S
C1043 C1049 1.428 . S
H1044 C1040 0.930 . S
H1045 C1042 0.929 . S
S1046 N1047 1.613 . S
S1046 N1048 1.610 . S
N1047 S1046 1.613 . S
N1047 C1050 1.350 . S
N1048 S1046 1.610 . S
N1048 C1049 1.351 . S
C1049 C1043 1.428 . S
C1049 N1048 1.351 . S
C1049 C1050 1.434 . S
C1050 C1041 1.429 . S
C1050 N1047 1.350 . S
C1050 C1049 1.434 . S
C1051 C1052 1.369 . S
C1051 C1053 1.419 . S
C1051 H1055 0.930 . S
C1052 C1051 1.369 . S
C1052 C1061 1.429 . S
C1053 C1051 1.419 . S
C1053 C1054 1.363 . S
C1053 H1056 0.929 . S
C1054 C1053 1.363 . S
C1054 C1060 1.428 . S
H1055 C1051 0.930 . S
H1056 C1053 0.929 . S
S1057 N1058 1.613 . S
S1057 N1059 1.610 . S
N1058 S1057 1.613 . S
N1058 C1061 1.350 . S
N1059 S1057 1.610 . S
N1059 C1060 1.351 . S
C1060 C1054 1.428 . S
C1060 N1059 1.351 . S
C1060 C1061 1.434 . S
C1061 C1052 1.429 . S
C1061 N1058 1.350 . S
C1061 C1060 1.434 . S
C1062 C1063 1.369 . S
C1062 C1064 1.419 . S
C1062 H1066 0.930 . S
C1063 C1062 1.369 . S
C1063 C1072 1.429 . S
C1064 C1062 1.419 . S
C1064 C1065 1.363 . S
C1064 H1067 0.929 . S
C1065 C1064 1.363 . S
C1065 C1071 1.428 . S
H1066 C1062 0.930 . S
H1067 C1064 0.929 . S
S1068 N1069 1.613 . S
S1068 N1070 1.610 . S
N1069 S1068 1.613 . S
N1069 C1072 1.350 . S
N1070 S1068 1.610 . S
N1070 C1071 1.351 . S
C1071 C1065 1.428 . S
C1071 N1070 1.351 . S
C1071 C1072 1.434 . S
C1072 C1063 1.429 . S
C1072 N1069 1.350 . S
C1072 C1071 1.434 . S
C1073 C1074 1.369 . S
C1073 C1075 1.419 . S
C1073 H1077 0.930 . S
C1074 C1073 1.369 . S
C1074 C1083 1.429 . S
C1075 C1073 1.419 . S
C1075 C1076 1.363 . S
C1075 H1078 0.929 . S
C1076 C1075 1.363 . S
C1076 C1082 1.428 . S
H1077 C1073 0.930 . S
H1078 C1075 0.929 . S
S1079 N1080 1.613 . S
S1079 N1081 1.610 . S
N1080 S1079 1.613 . S
N1080 C1083 1.350 . S
N1081 S1079 1.610 . S
N1081 C1082 1.351 . S
C1082 C1076 1.428 . S
C1082 N1081 1.351 . S
C1082 C1083 1.434 . S
C1083 C1074 1.429 . S
C1083 N1080 1.350 . S
C1083 C1082 1.434 . S
C1084 C1085 1.369 . S
C1084 C1086 1.419 . S
C1084 H1088 0.930 . S
C1085 C1084 1.369 . S
C1085 C1094 1.418 . S
C1086 C1084 1.419 . S
C1086 C1087 1.363 . S
C1086 H1089 0.929 . S
C1087 C1086 1.363 . S
C1087 C1093 1.428 . S
H1088 C1084 0.930 . S
H1089 C1086 0.929 . S
S1090 N1091 1.613 . S
S1090 N1092 1.610 1_565 S
N1091 S1090 1.613 . S
N1091 C1094 1.350 1_565 S
N1092 S1090 1.610 1_545 S
N1092 C1093 1.351 . S
C1093 C1087 1.428 . S
C1093 N1092 1.351 . S
C1093 C1094 1.446 . S
C1094 C1085 1.418 . S
C1094 N1091 1.350 1_545 S
C1094 C1093 1.446 . S
C1095 C1096 1.369 . S
C1095 C1097 1.419 . S
C1095 H1099 0.930 . S
C1096 C1095 1.369 . S
C1096 C1105 1.429 . S
C1097 C1095 1.419 . S
C1097 C1098 1.363 . S
C1097 H1100 0.929 . S
C1098 C1097 1.363 . S
C1098 C1104 1.428 . S
H1099 C1095 0.930 . S
H1100 C1097 0.929 . S
S1101 N1102 1.613 . S
S1101 N1103 1.610 . S
N1102 S1101 1.613 . S
N1102 C1105 1.350 . S
N1103 S1101 1.610 . S
N1103 C1104 1.351 . S
C1104 C1098 1.428 . S
C1104 N1103 1.351 . S
C1104 C1105 1.434 . S
C1105 C1096 1.429 . S
C1105 N1102 1.350 . S
C1105 C1104 1.434 . S
C1106 C1107 1.369 . S
C1106 C1108 1.419 . S
C1106 H1110 0.930 . S
C1107 C1106 1.369 . S
C1107 C1116 1.429 . S
C1108 C1106 1.419 . S
C1108 C1109 1.363 . S
C1108 H1111 0.929 . S
C1109 C1108 1.363 . S
C1109 C1115 1.428 . S
H1110 C1106 0.930 . S
H1111 C1108 0.929 . S
S1112 N1113 1.613 . S
S1112 N1114 1.610 . S
N1113 S1112 1.613 . S
N1113 C1116 1.350 . S
N1114 S1112 1.610 . S
N1114 C1115 1.351 . S
C1115 C1109 1.428 . S
C1115 N1114 1.351 . S
C1115 C1116 1.434 . S
C1116 C1107 1.429 . S
C1116 N1113 1.350 . S
C1116 C1115 1.434 . S
C1117 C1118 1.369 . S
C1117 C1119 1.419 . S
C1117 H1121 0.930 . S
C1118 C1117 1.369 . S
C1118 C1127 1.429 . S
C1119 C1117 1.419 . S
C1119 C1120 1.363 . S
C1119 H1122 0.929 . S
C1120 C1119 1.363 . S
C1120 C1126 1.428 . S
H1121 C1117 0.930 . S
H1122 C1119 0.929 . S
S1123 N1124 1.613 . S
S1123 N1125 1.610 . S
N1124 S1123 1.613 . S
N1124 C1127 1.350 . S
N1125 S1123 1.610 . S
N1125 C1126 1.351 . S
C1126 C1120 1.428 . S
C1126 N1125 1.351 . S
C1126 C1127 1.434 . S
C1127 C1118 1.429 . S
C1127 N1124 1.350 . S
C1127 C1126 1.434 . S
C1128 C1129 1.369 . S
C1128 C1130 1.419 . S
C1128 H1132 0.930 . S
C1129 C1128 1.369 . S
C1129 C1138 1.429 . S
C1130 C1128 1.419 . S
C1130 C1131 1.363 . S
C1130 H1133 0.929 1_455 S
C1131 C1130 1.363 . S
C1131 C1137 1.428 . S
H1132 C1128 0.930 . S
H1133 C1130 0.929 1_655 S
S1134 N1135 1.613 . S
S1134 N1136 1.610 . S
N1135 S1134 1.613 . S
N1135 C1138 1.350 . S
N1136 S1134 1.610 . S
N1136 C1137 1.351 . S
C1137 C1131 1.428 . S
C1137 N1136 1.351 . S
C1137 C1138 1.434 . S
C1138 C1129 1.429 . S
C1138 N1135 1.350 . S
C1138 C1137 1.434 . S
C1139 C1140 1.369 . S
C1139 C1141 1.419 . S
C1139 H1143 0.930 . S
C1140 C1139 1.369 . S
C1140 C1149 1.429 . S
C1141 C1139 1.419 . S
C1141 C1142 1.363 . S
C1141 H1144 0.929 . S
C1142 C1141 1.363 . S
C1142 C1148 1.428 . S
H1143 C1139 0.930 . S
H1144 C1141 0.929 . S
S1145 N1146 1.613 . S
S1145 N1147 1.610 . S
N1146 S1145 1.613 . S
N1146 C1149 1.350 . S
N1147 S1145 1.610 . S
N1147 C1148 1.351 . S
C1148 C1142 1.428 . S
C1148 N1147 1.351 . S
C1148 C1149 1.434 . S
C1149 C1140 1.429 . S
C1149 N1146 1.350 . S
C1149 C1148 1.434 . S
C1150 C1151 1.369 . S
C1150 C1152 1.419 . S
C1150 H1154 0.930 . S
C1151 C1150 1.369 . S
C1151 C1160 1.429 . S
C1152 C1150 1.419 . S
C1152 C1153 1.363 . S
C1152 H1155 0.929 . S
C1153 C1152 1.363 . S
C1153 C1159 1.428 . S
H1154 C1150 0.930 . S
H1155 C1152 0.929 . S
S1156 N1157 1.613 . S
S1156 N1158 1.610 1_565 S
N1157 S1156 1.613 . S
N1157 C1160 1.350 1_565 S
N1158 S1156 1.610 1_545 S
N1158 C1159 1.351 . S
C1159 C1153 1.428 . S
C1159 N1158 1.351 . S
C1159 C1160 1.434 . S
C1160 C1151 1.429 . S
C1160 N1157 1.350 1_545 S
C1160 C1159 1.434 . S
C1161 C1162 1.369 . S
C1161 C1163 1.419 . S
C1161 H1165 0.930 . S
C1162 C1161 1.369 . S
C1162 C1171 1.429 . S
C1163 C1161 1.419 . S
C1163 C1164 1.363 . S
C1163 H1166 0.929 . S
C1164 C1163 1.363 . S
C1164 C1170 1.428 . S
H1165 C1161 0.930 . S
H1166 C1163 0.929 . S
S1167 N1168 1.613 . S
S1167 N1169 1.610 . S
N1168 S1167 1.613 . S
N1168 C1171 1.350 . S
N1169 S1167 1.610 . S
N1169 C1170 1.351 . S
C1170 C1164 1.428 . S
C1170 N1169 1.351 . S
C1170 C1171 1.434 . S
C1171 C1162 1.429 . S
C1171 N1168 1.350 . S
C1171 C1170 1.434 . S
C1172 C1173 1.369 . S
C1172 C1174 1.419 . S
C1172 H1176 0.930 . S
C1173 C1172 1.369 . S
C1173 C1182 1.429 . S
C1174 C1172 1.419 . S
C1174 C1175 1.363 . S
C1174 H1177 0.929 . S
C1175 C1174 1.363 . S
C1175 C1181 1.428 . S
H1176 C1172 0.930 . S
H1177 C1174 0.929 . S
S1178 N1179 1.613 . S
S1178 N1180 1.610 . S
N1179 S1178 1.613 . S
N1179 C1182 1.350 . S
N1180 S1178 1.610 . S
N1180 C1181 1.351 . S
C1181 C1175 1.428 . S
C1181 N1180 1.351 . S
C1181 C1182 1.434 . S
C1182 C1173 1.429 . S
C1182 N1179 1.350 . S
C1182 C1181 1.434 . S
C1183 C1184 1.369 . S
C1183 C1185 1.419 . S
C1183 H1187 0.930 . S
C1184 C1183 1.369 . S
C1184 C1193 1.429 . S
C1185 C1183 1.419 . S
C1185 C1186 1.363 . S
C1185 H1188 0.929 . S
C1186 C1185 1.363 . S
C1186 C1192 1.428 . S
H1187 C1183 0.930 . S
H1188 C1185 0.929 . S
S1189 N1190 1.613 . S
S1189 N1191 1.610 . S
N1190 S1189 1.613 . S
N1190 C1193 1.350 . S
N1191 S1189 1.610 . S
N1191 C1192 1.351 . S
C1192 C1186 1.428 . S
C1192 N1191 1.351 . S
C1192 C1193 1.434 . S
C1193 C1184 1.429 . S
C1193 N1190 1.350 . S
C1193 C1192 1.434 . S
C1194 C1195 1.369 . S
C1194 C1196 1.419 . S
C1194 H1198 0.930 . S
C1195 C1194 1.369 . S
C1195 C1204 1.429 . S
C1196 C1194 1.419 . S
C1196 C1197 1.363 . S
C1196 H1199 0.929 . S
C1197 C1196 1.363 . S
C1197 C1203 1.428 . S
H1198 C1194 0.930 . S
H1199 C1196 0.929 . S
S1200 N1201 1.613 . S
S1200 N1202 1.610 . S
N1201 S1200 1.613 . S
N1201 C1204 1.350 . S
N1202 S1200 1.610 . S
N1202 C1203 1.351 . S
C1203 C1197 1.428 . S
C1203 N1202 1.351 . S
C1203 C1204 1.434 . S
C1204 C1195 1.429 . S
C1204 N1201 1.350 . S
C1204 C1203 1.434 . S
C1205 C1206 1.369 . S
C1205 C1207 1.419 . S
C1205 H1209 0.930 . S
C1206 C1205 1.369 . S
C1206 C1215 1.429 . S
C1207 C1205 1.419 . S
C1207 C1208 1.363 . S
C1207 H1210 0.929 . S
C1208 C1207 1.363 . S
C1208 C1214 1.428 . S
H1209 C1205 0.930 . S
H1210 C1207 0.929 . S
S1211 N1212 1.613 1_545 S
S1211 N1213 1.610 1_545 S
N1212 S1211 1.613 1_565 S
N1212 C1215 1.350 . S
N1213 S1211 1.610 1_565 S
N1213 C1214 1.351 . S
C1214 C1208 1.428 . S
C1214 N1213 1.351 . S
C1214 C1215 1.434 . S
C1215 C1206 1.429 . S
C1215 N1212 1.350 . S
C1215 C1214 1.434 . S
C1216 C1217 1.369 . S
C1216 C1218 1.419 . S
C1216 H1220 0.930 . S
C1217 C1216 1.369 . S
C1217 C1226 1.429 . S
C1218 C1216 1.419 . S
C1218 C1219 1.363 . S
C1218 H1221 0.929 . S
C1219 C1218 1.363 . S
C1219 C1225 1.428 . S
H1220 C1216 0.930 . S
H1221 C1218 0.929 . S
S1222 N1223 1.613 . S
S1222 N1224 1.610 . S
N1223 S1222 1.613 . S
N1223 C1226 1.350 . S
N1224 S1222 1.610 . S
N1224 C1225 1.351 . S
C1225 C1219 1.428 . S
C1225 N1224 1.351 . S
C1225 C1226 1.434 . S
C1226 C1217 1.429 . S
C1226 N1223 1.350 . S
C1226 C1225 1.434 . S
C1227 C1228 1.369 . S
C1227 C1229 1.419 . S
C1227 H1231 0.930 . S
C1228 C1227 1.369 . S
C1228 C1237 1.429 . S
C1229 C1227 1.419 . S
C1229 C1230 1.363 1_556 S
C1229 H1232 0.929 . S
C1230 C1229 1.363 1_554 S
C1230 C1236 1.428 . S
H1231 C1227 0.930 . S
H1232 C1229 0.929 . S
S1233 N1234 1.613 . S
S1233 N1235 1.610 . S
N1234 S1233 1.613 . S
N1234 C1237 1.350 1_554 S
N1235 S1233 1.610 . S
N1235 C1236 1.351 . S
C1236 C1230 1.428 . S
C1236 N1235 1.351 . S
C1236 C1237 1.434 1_554 S
C1237 C1228 1.429 . S
C1237 N1234 1.350 1_556 S
C1237 C1236 1.434 1_556 S
C1238 C1239 1.369 . S
C1238 C1240 1.419 . S
C1238 H1242 0.930 . S
C1239 C1238 1.369 . S
C1239 C1248 1.429 . S
C1240 C1238 1.419 . S
C1240 C1241 1.369 . S
C1240 H1243 0.929 . S
C1241 C1240 1.369 . S
C1241 C1247 1.428 . S
H1242 C1238 0.930 . S
H1243 C1240 0.929 . S
S1244 N1245 1.613 1_554 S
S1244 N1246 1.610 . S
N1245 S1244 1.613 1_556 S
N1245 C1248 1.350 . S
N1246 S1244 1.610 . S
N1246 C1247 1.332 1_554 S
C1247 C1241 1.428 . S
C1247 N1246 1.332 1_556 S
C1247 C1248 1.455 . S
C1248 C1239 1.429 . S
C1248 N1245 1.350 . S
C1248 C1247 1.455 . S
C1249 C1250 1.369 . S
C1249 C1251 1.419 1_556 S
C1249 H1253 0.930 . S
C1250 C1249 1.369 . S
C1250 C1259 1.429 . S
C1251 C1249 1.419 1_554 S
C1251 C1252 1.363 . S
C1251 H1254 0.929 . S
C1252 C1251 1.363 . S
C1252 C1258 1.428 . S
H1253 C1249 0.930 . S
H1254 C1251 0.929 . S
S1255 N1256 1.613 1_554 S
S1255 N1257 1.610 . S
N1256 S1255 1.613 1_556 S
N1256 C1259 1.350 . S
N1257 S1255 1.610 . S
N1257 C1258 1.351 . S
C1258 C1252 1.428 . S
C1258 N1257 1.351 . S
C1258 C1259 1.434 1_554 S
C1259 C1250 1.429 . S
C1259 N1256 1.350 . S
C1259 C1258 1.434 1_556 S
C1260 C1261 1.369 . S
C1260 C1262 1.419 . S
C1260 H1264 0.930 . S
C1261 C1260 1.369 . S
C1261 C1270 1.429 . S
C1262 C1260 1.419 . S
C1262 C1263 1.363 . S
C1262 H1265 0.956 . S
C1263 C1262 1.363 . S
C1263 C1269 1.428 . S
H1264 C1260 0.930 . S
H1265 C1262 0.956 . S
S1266 N1267 1.613 . S
S1266 N1268 1.610 . S
N1267 S1266 1.613 . S
N1267 C1270 1.350 . S
N1268 S1266 1.610 . S
N1268 C1269 1.351 . S
C1269 C1263 1.428 . S
C1269 N1268 1.351 . S
C1269 C1270 1.434 . S
C1270 C1261 1.429 . S
C1270 N1267 1.350 . S
C1270 C1269 1.434 . S
C1271 C1272 1.369 . S
C1271 C1273 1.419 . S
C1271 H1275 0.930 . S
C1272 C1271 1.369 . S
C1272 C1281 1.429 . S
C1273 C1271 1.419 . S
C1273 C1274 1.363 . S
C1273 H1276 0.929 . S
C1274 C1273 1.363 . S
C1274 C1280 1.428 . S
H1275 C1271 0.930 . S
H1276 C1273 0.929 . S
S1277 N1278 1.613 . S
S1277 N1279 1.610 . S
N1278 S1277 1.613 . S
N1278 C1281 1.350 . S
N1279 S1277 1.610 . S
N1279 C1280 1.351 . S
C1280 C1274 1.428 . S
C1280 N1279 1.351 . S
C1280 C1281 1.434 . S
C1281 C1272 1.429 . S
C1281 N1278 1.350 . S
C1281 C1280 1.434 . S
C1282 C1283 1.369 . S
C1282 C1284 1.419 . S
C1282 H1286 0.930 . S
C1283 C1282 1.369 . S
C1283 C1292 1.429 . S
C1284 C1282 1.419 . S
C1284 C1285 1.363 . S
C1284 H1287 0.929 . S
C1285 C1284 1.363 . S
C1285 C1291 1.428 . S
H1286 C1282 0.930 . S
H1287 C1284 0.929 . S
S1288 N1289 1.613 . S
S1288 N1290 1.610 . S
N1289 S1288 1.613 . S
N1289 C1292 1.350 . S
N1290 S1288 1.610 . S
N1290 C1291 1.351 . S
C1291 C1285 1.428 . S
C1291 N1290 1.351 . S
C1291 C1292 1.434 . S
C1292 C1283 1.429 . S
C1292 N1289 1.350 . S
C1292 C1291 1.434 . S
C1293 C1294 1.369 . S
C1293 C1295 1.419 . S
C1293 H1297 0.930 . S
C1294 C1293 1.369 . S
C1294 C1303 1.429 . S
C1295 C1293 1.419 . S
C1295 C1296 1.363 . S
C1295 H1298 0.929 . S
C1296 C1295 1.363 . S
C1296 C1302 1.428 . S
H1297 C1293 0.930 . S
H1298 C1295 0.929 . S
S1299 N1300 1.613 . S
S1299 N1301 1.610 . S
N1300 S1299 1.613 . S
N1300 C1303 1.350 . S
N1301 S1299 1.610 . S
N1301 C1302 1.351 . S
C1302 C1296 1.428 . S
C1302 N1301 1.351 . S
C1302 C1303 1.434 . S
C1303 C1294 1.429 . S
C1303 N1300 1.350 . S
C1303 C1302 1.434 . S
C1304 C1305 1.369 . S
C1304 C1306 1.419 . S
C1304 H1308 0.930 . S
C1305 C1304 1.369 . S
C1305 C1314 1.429 . S
C1306 C1304 1.419 . S
C1306 C1307 1.363 . S
C1306 H1309 0.929 . S
C1307 C1306 1.363 . S
C1307 C1313 1.428 . S
H1308 C1304 0.930 . S
H1309 C1306 0.929 . S
S1310 N1311 1.613 . S
S1310 N1312 1.610 . S
N1311 S1310 1.613 . S
N1311 C1314 1.350 . S
N1312 S1310 1.610 . S
N1312 C1313 1.351 . S
C1313 C1307 1.428 . S
C1313 N1312 1.351 . S
C1313 C1314 1.434 . S
C1314 C1305 1.429 . S
C1314 N1311 1.350 . S
C1314 C1313 1.434 . S
C1315 C1316 1.369 . S
C1315 C1317 1.419 . S
C1315 H1319 0.930 . S
C1316 C1315 1.369 . S
C1316 C1325 1.429 . S
C1317 C1315 1.419 . S
C1317 C1318 1.363 . S
C1317 H1320 0.929 . S
C1318 C1317 1.363 . S
C1318 C1324 1.428 . S
H1319 C1315 0.930 . S
H1320 C1317 0.929 . S
S1321 N1322 1.613 . S
S1321 N1323 1.610 . S
N1322 S1321 1.613 . S
N1322 C1325 1.350 . S
N1323 S1321 1.610 . S
N1323 C1324 1.351 . S
C1324 C1318 1.428 . S
C1324 N1323 1.351 . S
C1324 C1325 1.434 . S
C1325 C1316 1.429 . S
C1325 N1322 1.350 . S
C1325 C1324 1.434 . S
C1326 C1327 1.369 . S
C1326 C1328 1.419 . S
C1326 H1330 0.930 . S
C1327 C1326 1.369 . S
C1327 C1336 1.429 . S
C1328 C1326 1.419 . S
C1328 C1329 1.363 . S
C1328 H1331 0.929 . S
C1329 C1328 1.363 . S
C1329 C1335 1.428 . S
H1330 C1326 0.930 . S
H1331 C1328 0.929 . S
S1332 N1333 1.613 . S
S1332 N1334 1.610 . S
N1333 S1332 1.613 . S
N1333 C1336 1.350 . S
N1334 S1332 1.610 . S
N1334 C1335 1.351 . S
C1335 C1329 1.428 . S
C1335 N1334 1.351 . S
C1335 C1336 1.434 . S
C1336 C1327 1.429 . S
C1336 N1333 1.350 . S
C1336 C1335 1.434 . S
C1337 C1338 1.369 . S
C1337 C1339 1.419 . S
C1337 H1341 0.930 . S
C1338 C1337 1.369 . S
C1338 C1347 1.429 . S
C1339 C1337 1.419 . S
C1339 C1340 1.363 . S
C1339 H1342 0.929 . S
C1340 C1339 1.363 . S
C1340 C1346 1.428 . S
H1341 C1337 0.930 . S
H1342 C1339 0.929 . S
S1343 N1344 1.613 . S
S1343 N1345 1.610 . S
N1344 S1343 1.613 . S
N1344 C1347 1.350 . S
N1345 S1343 1.610 . S
N1345 C1346 1.351 . S
C1346 C1340 1.428 . S
C1346 N1345 1.351 . S
C1346 C1347 1.434 . S
C1347 C1338 1.429 . S
C1347 N1344 1.350 . S
C1347 C1346 1.434 . S
C1348 C1349 1.369 . S
C1348 C1350 1.419 . S
C1348 H1352 0.930 . S
C1349 C1348 1.369 . S
C1349 C1358 1.429 . S
C1350 C1348 1.419 . S
C1350 C1351 1.363 . S
C1350 H1353 0.929 . S
C1351 C1350 1.363 . S
C1351 C1357 1.428 . S
H1352 C1348 0.930 . S
H1353 C1350 0.929 . S
S1354 N1355 1.613 . S
S1354 N1356 1.610 . S
N1355 S1354 1.613 . S
N1355 C1358 1.350 . S
N1356 S1354 1.610 . S
N1356 C1357 1.351 . S
C1357 C1351 1.428 . S
C1357 N1356 1.351 . S
C1357 C1358 1.434 . S
C1358 C1349 1.429 . S
C1358 N1355 1.350 . S
C1358 C1357 1.434 . S
C1359 C1360 1.369 . S
C1359 C1361 1.419 . S
C1359 H1363 0.930 . S
C1360 C1359 1.369 . S
C1360 C1369 1.429 . S
C1361 C1359 1.419 . S
C1361 C1362 1.363 . S
C1361 H1364 0.929 . S
C1362 C1361 1.363 . S
C1362 C1368 1.428 . S
H1363 C1359 0.930 . S
H1364 C1361 0.929 . S
S1365 N1366 1.613 . S
S1365 N1367 1.610 . S
N1366 S1365 1.613 . S
N1366 C1369 1.350 . S
N1367 S1365 1.610 . S
N1367 C1368 1.351 . S
C1368 C1362 1.428 . S
C1368 N1367 1.351 . S
C1368 C1369 1.434 . S
C1369 C1360 1.429 . S
C1369 N1366 1.350 . S
C1369 C1368 1.434 . S
C1370 C1371 1.369 . S
C1370 C1372 1.419 . S
C1370 H1374 0.930 . S
C1371 C1370 1.369 . S
C1371 C1380 1.429 . S
C1372 C1370 1.419 . S
C1372 C1373 1.363 . S
C1372 H1375 0.929 . S
C1373 C1372 1.363 . S
C1373 C1379 1.428 . S
H1374 C1370 0.930 . S
H1375 C1372 0.929 . S
S1376 N1377 1.613 . S
S1376 N1378 1.610 . S
N1377 S1376 1.613 . S
N1377 C1380 1.350 . S
N1378 S1376 1.610 . S
N1378 C1379 1.351 . S
C1379 C1373 1.428 . S
C1379 N1378 1.351 . S
C1379 C1380 1.434 . S
C1380 C1371 1.429 . S
C1380 N1377 1.350 . S
C1380 C1379 1.434 . S
C1381 C1382 1.369 . S
C1381 C1383 1.419 . S
C1381 H1385 0.930 . S
C1382 C1381 1.369 . S
C1382 C1391 1.429 . S
C1383 C1381 1.419 . S
C1383 C1384 1.363 . S
C1383 H1386 0.929 . S
C1384 C1383 1.363 . S
C1384 C1390 1.428 . S
H1385 C1381 0.930 . S
H1386 C1383 0.929 . S
S1387 N1388 1.613 . S
S1387 N1389 1.610 . S
N1388 S1387 1.613 . S
N1388 C1391 1.350 . S
N1389 S1387 1.610 . S
N1389 C1390 1.351 . S
C1390 C1384 1.428 . S
C1390 N1389 1.351 . S
C1390 C1391 1.434 . S
C1391 C1382 1.429 . S
C1391 N1388 1.350 . S
C1391 C1390 1.434 . S
C1392 C1393 1.369 . S
C1392 C1394 1.419 . S
C1392 H1396 0.930 . S
C1393 C1392 1.369 . S
C1393 C1402 1.429 . S
C1394 C1392 1.419 . S
C1394 C1395 1.363 . S
C1394 H1397 0.929 . S
C1395 C1394 1.363 . S
C1395 C1401 1.428 . S
H1396 C1392 0.930 . S
H1397 C1394 0.929 . S
S1398 N1399 1.613 . S
S1398 N1400 1.610 . S
N1399 S1398 1.613 . S
N1399 C1402 1.350 . S
N1400 S1398 1.610 . S
N1400 C1401 1.351 . S
C1401 C1395 1.428 . S
C1401 N1400 1.351 . S
C1401 C1402 1.434 . S
C1402 C1393 1.429 . S
C1402 N1399 1.350 . S
C1402 C1401 1.434 . S
C1403 C1404 1.369 . S
C1403 C1405 1.419 . S
C1403 H1407 0.930 . S
C1404 C1403 1.369 . S
C1404 C1413 1.429 . S
C1405 C1403 1.419 . S
C1405 C1406 1.363 . S
C1405 H1408 0.929 . S
C1406 C1405 1.363 . S
C1406 C1412 1.428 . S
H1407 C1403 0.930 . S
H1408 C1405 0.929 . S
S1409 N1410 1.613 . S
S1409 N1411 1.610 . S
N1410 S1409 1.613 . S
N1410 C1413 1.350 . S
N1411 S1409 1.610 . S
N1411 C1412 1.351 . S
C1412 C1406 1.428 . S
C1412 N1411 1.351 . S
C1412 C1413 1.434 . S
C1413 C1404 1.429 . S
C1413 N1410 1.350 . S
C1413 C1412 1.434 . S
C1414 C1415 1.369 . S
C1414 C1416 1.419 . S
C1414 H1418 0.930 . S
C1415 C1414 1.369 . S
C1415 C1424 1.429 . S
C1416 C1414 1.419 . S
C1416 C1417 1.363 . S
C1416 H1419 0.929 . S
C1417 C1416 1.363 . S
C1417 C1423 1.428 . S
H1418 C1414 0.930 . S
H1419 C1416 0.929 . S
S1420 N1421 1.613 . S
S1420 N1422 1.610 . S
N1421 S1420 1.613 . S
N1421 C1424 1.350 . S
N1422 S1420 1.610 . S
N1422 C1423 1.351 . S
C1423 C1417 1.428 . S
C1423 N1422 1.351 . S
C1423 C1424 1.434 . S
C1424 C1415 1.429 . S
C1424 N1421 1.350 . S
C1424 C1423 1.434 . S
C1425 C1426 1.369 . S
C1425 C1427 1.419 . S
C1425 H1429 0.930 . S
C1426 C1425 1.369 . S
C1426 C1435 1.429 . S
C1427 C1425 1.419 . S
C1427 C1428 1.363 1_554 S
C1427 H1430 0.929 . S
C1428 C1427 1.363 1_556 S
C1428 C1434 1.428 . S
H1429 C1425 0.930 . S
H1430 C1427 0.929 . S
S1431 N1432 1.613 1_556 S
S1431 N1433 1.610 . S
N1432 S1431 1.613 1_554 S
N1432 C1435 1.350 . S
N1433 S1431 1.610 . S
N1433 C1434 1.351 . S
C1434 C1428 1.428 . S
C1434 N1433 1.351 . S
C1434 C1435 1.434 1_556 S
C1435 C1426 1.429 . S
C1435 N1432 1.350 . S
C1435 C1434 1.434 1_554 S
C1436 C1437 1.369 . S
C1436 C1438 1.419 . S
C1436 H1440 0.930 . S
C1437 C1436 1.369 . S
C1437 C1446 1.429 . S
C1438 C1436 1.419 . S
C1438 C1439 1.363 . S
C1438 H1441 0.929 . S
C1439 C1438 1.363 . S
C1439 C1445 1.428 . S
H1440 C1436 0.930 . S
H1441 C1438 0.929 . S
S1442 N1443 1.613 . S
S1442 N1444 1.610 . S
N1443 S1442 1.613 . S
N1443 C1446 1.350 . S
N1444 S1442 1.610 . S
N1444 C1445 1.351 . S
C1445 C1439 1.428 . S
C1445 N1444 1.351 . S
C1445 C1446 1.434 . S
C1446 C1437 1.429 . S
C1446 N1443 1.350 . S
C1446 C1445 1.434 . S
C1447 C1448 1.369 . S
C1447 C1449 1.419 . S
C1447 H1451 0.930 . S
C1448 C1447 1.369 . S
C1448 C1457 1.429 . S
C1449 C1447 1.419 . S
C1449 C1450 1.363 . S
C1449 H1452 0.929 . S
C1450 C1449 1.363 . S
C1450 C1456 1.428 . S
H1451 C1447 0.930 . S
H1452 C1449 0.929 . S
S1453 N1454 1.613 . S
S1453 N1455 1.611 1_554 S
N1454 S1453 1.613 . S
N1454 C1457 1.350 . S
N1455 S1453 1.611 1_556 S
N1455 C1456 1.352 1_556 S
C1456 C1450 1.428 . S
C1456 N1455 1.352 1_554 S
C1456 C1457 1.434 . S
C1457 C1448 1.429 . S
C1457 N1454 1.350 . S
C1457 C1456 1.434 . S
C667 C7 1.497 . S
C669 C571 1.498 . S
C680 C543 1.781 . S
C678 C39 1.760 . S
C691 C563 1.567 . S
C689 C62 1.561 . S
C700 C76 1.828 . S
C702 C633 1.819 . S
C711 C108 1.514 . S
C713 C641 1.513 1_455 S
C722 N117 1.426 . S
C724 C661 1.396 . S
C735 C617 1.467 1_455 S
C733 C16 1.480 . S
C744 C30 1.822 . S
C746 C589 1.781 . S
C757 C605 1.503 . S
C755 C53 1.515 . S
C766 C85 1.802 . S
C768 C507 1.803 . S
C779 C519 1.666 . S
C777 C99 1.689 . S
C788 N127 1.350 . S
C790 C535 1.416 . S
C799 N150 1.212 . S
C801 C655 1.232 . S
C812 C627 1.548 . S
C810 N173 1.531 . S
C823 C647 1.419 . S
C821 C200 1.402 . S
C832 C214 1.645 . S
C834 C465 1.642 . S
C843 N232 1.576 . S
C845 C473 1.586 . S
C854 C260 1.532 . S
C856 C493 1.529 . S
C867 C449 1.303 . S
C865 N140 1.300 . S
C876 N163 1.283 . S
C878 C421 1.294 . S
C889 C437 1.610 . S
C887 C191 1.608 . S
C900 C591 1.907 . S
C898 C223 1.908 . S
C911 C603 1.556 . S
C909 N242 1.481 . S
C922 C619 1.581 . S
C920 C269 1.583 . S
C931 N288 1.373 . S
C933 C487 1.393 . S
C942 C315 1.511 . S
C944 C459 1.542 . S
C953 C338 1.651 . S
C955 C479 1.656 . S
C964 C352 1.834 . S
C966 C549 1.839 . S
C977 C557 1.629 . S
C975 N370 1.626 . S
C988 C577 1.610 . S
C986 C398 1.602 . S
C999 C533 1.268 . S
C997 N278 1.217 . S
C1008 C306 1.720 . S
C1010 C505 1.679 . S
C1019 C329 1.619 . S
C1021 C521 1.611 1_655 S
C1032 C423 1.553 . S
C1030 C361 1.554 . S
C1041 N380 1.508 . S
C1043 C435 1.566 . S
C1054 C451 1.536 . S
C1052 C407 1.535 . S
C1065 C463 1.416 . S
C1063 N12 1.388 . S
C1074 N25 1.550 . S
C1076 C478 1.566 . S
C1087 C491 1.343 . S
C1085 N48 1.355 1_545 S
C1098 C492 1.375 . S
C1096 N81 1.356 . S
C1109 C464 1.536 . S
C1107 N94 1.484 . S
C1120 C477 1.571 . S
C1118 C131 1.589 . S
C1131 C417 1.438 . S
C1129 N2 1.435 . S
C1140 N35 1.469 . S
C1142 C436 1.513 . S
C1151 N58 1.350 . S
C1153 C445 1.399 . S
C1164 C450 1.338 . S
C1162 N71 1.287 . S
C1175 C422 1.386 . S
C1173 N104 1.355 . S
C1186 C431 1.618 . S
C1184 C122 1.615 . S
C1195 C145 2.014 . S
C1197 C547 1.991 . S
C1206 C168 1.712 . S
C1208 C562 1.719 . S
C1217 N186 1.455 . S
C1219 C575 1.456 . S
C1230 C576 1.401 . S
C1228 N219 1.394 . S
C1241 C548 1.759 1_556 S
C1239 C246 1.753 . S
C1252 C561 1.456 . S
C1250 N265 1.482 . S
C1263 C501 1.940 . S
C1261 C154 1.936 . S
C1272 C177 1.832 . S
C1274 C520 1.811 . S
C1283 N196 1.300 . S
C1285 C529 1.345 . S
C1294 N209 1.193 . S
C1296 C534 1.270 . S
C1305 C237 1.797 . S
C1307 C506 1.792 . S
C1318 C515 1.453 . S
C1316 N255 1.404 . S
C1327 C283 1.784 . S
C1329 C631 1.732 . S
C1338 N301 1.436 . S
C1340 C646 1.449 . S
C1349 N324 1.367 . S
C1351 C659 1.358 . S
C1362 C660 1.216 . S
C1360 N357 1.192 . S
C1373 C632 1.736 . S
C1371 C384 1.739 . S
C1382 N403 1.360 . S
C1384 C645 1.339 . S
C1393 C292 1.878 . S
C1395 C585 1.878 . S
C1406 C604 1.370 . S
C1404 N311 1.330 . S
C1415 N334 1.423 . S
C1417 C613 1.485 . S
C1426 N347 1.353 . S
C1428 C618 1.381 . S
C1439 C590 1.867 . S
C1437 C375 1.848 . S
C1448 N393 1.366 . S
C1450 C599 1.413 1_554 S
