# Generated by pormake.
# Topology zzz, (3,6)-cn, num edge types: 1
# Building blocks:
#     Node 0, Type 0, BuildingBlock: OLANEW_clean_sbu_2, # of connection points: 3
#     Node 1, Type 0, BuildingBlock: OLANEW_clean_sbu_2, # of connection points: 3
#     Node 2, Type 0, BuildingBlock: OLANEW_clean_sbu_2, # of connection points: 3
#     Node 3, Type 0, BuildingBlock: OLANEW_clean_sbu_2, # of connection points: 3
#     Node 4, Type 0, BuildingBlock: OLANEW_clean_sbu_2, # of connection points: 3
#     Node 5, Type 0, BuildingBlock: OLANEW_clean_sbu_2, # of connection points: 3
#     Node 6, Type 0, BuildingBlock: OLANEW_clean_sbu_2, # of connection points: 3
#     Node 7, Type 0, BuildingBlock: OLANEW_clean_sbu_2, # of connection points: 3
#     Node 8, Type 1, BuildingBlock: CUKXOW_clean_sbu_0, # of connection points: 6
#     Node 9, Type 1, BuildingBlock: CUKXOW_clean_sbu_0, # of connection points: 6
#     Node 10, Type 1, BuildingBlock: CUKXOW_clean_sbu_0, # of connection points: 6
#     Node 11, Type 1, BuildingBlock: CUKXOW_clean_sbu_0, # of connection points: 6
#     Edge 12, Type (0, 1), BuildingBlock: XUDNAN_clean_linker_2, # of connection points: 2
#     Edge 13, Type (0, 1), BuildingBlock: XUDNAN_clean_linker_2, # of connection points: 2
#     Edge 14, Type (0, 1), BuildingBlock: XUDNAN_clean_linker_2, # of connection points: 2
#     Edge 15, Type (0, 1), BuildingBlock: XUDNAN_clean_linker_2, # of connection points: 2
#     Edge 16, Type (0, 1), BuildingBlock: XUDNAN_clean_linker_2, # of connection points: 2
#     Edge 17, Type (0, 1), BuildingBlock: XUDNAN_clean_linker_2, # of connection points: 2
#     Edge 18, Type (0, 1), BuildingBlock: XUDNAN_clean_linker_2, # of connection points: 2
#     Edge 19, Type (0, 1), BuildingBlock: XUDNAN_clean_linker_2, # of connection points: 2
#     Edge 20, Type (0, 1), BuildingBlock: XUDNAN_clean_linker_2, # of connection points: 2
#     Edge 21, Type (0, 1), BuildingBlock: XUDNAN_clean_linker_2, # of connection points: 2
#     Edge 22, Type (0, 1), BuildingBlock: XUDNAN_clean_linker_2, # of connection points: 2
#     Edge 23, Type (0, 1), BuildingBlock: XUDNAN_clean_linker_2, # of connection points: 2
#     Edge 24, Type (0, 1), BuildingBlock: XUDNAN_clean_linker_2, # of connection points: 2
#     Edge 25, Type (0, 1), BuildingBlock: XUDNAN_clean_linker_2, # of connection points: 2
#     Edge 26, Type (0, 1), BuildingBlock: XUDNAN_clean_linker_2, # of connection points: 2
#     Edge 27, Type (0, 1), BuildingBlock: XUDNAN_clean_linker_2, # of connection points: 2
#     Edge 28, Type (0, 1), BuildingBlock: XUDNAN_clean_linker_2, # of connection points: 2
#     Edge 29, Type (0, 1), BuildingBlock: XUDNAN_clean_linker_2, # of connection points: 2
#     Edge 30, Type (0, 1), BuildingBlock: XUDNAN_clean_linker_2, # of connection points: 2
#     Edge 31, Type (0, 1), BuildingBlock: XUDNAN_clean_linker_2, # of connection points: 2
#     Edge 32, Type (0, 1), BuildingBlock: XUDNAN_clean_linker_2, # of connection points: 2
#     Edge 33, Type (0, 1), BuildingBlock: XUDNAN_clean_linker_2, # of connection points: 2
#     Edge 34, Type (0, 1), BuildingBlock: XUDNAN_clean_linker_2, # of connection points: 2
#     Edge 35, Type (0, 1), BuildingBlock: XUDNAN_clean_linker_2, # of connection points: 2
# Relax obj value: 0.076
# Max RMSD: 0.134
# Mean RMSD: 0.094
data_MOF--net-zzz--node1-OLANEW_clean_sbu_2--node2-CUKXOW_clean_sbu_0--edge1-XUDNAN_clean_linker_2
_symmetry_space_group_name_H-M    P1
_symmetry_Int_Tables_number       1
_symmetry_cell_setting            triclinic
loop_
_symmetry_equiv_pos_as_xyz
'x, y, z'
_cell_length_a     53.508812
_cell_length_b     55.087884
_cell_length_c     17.386933
_cell_angle_alpha  93.066328
_cell_angle_beta   86.887759
_cell_angle_gamma 94.276048
loop_
_atom_site_label
_atom_site_type_symbol
_atom_site_fract_x
_atom_site_fract_y
_atom_site_fract_z
_atom_type_partial_charge
O0 O 0.80452 0.60068 0.86478 0.0
Cd1 Cd 0.76311 0.61609 0.89189 0.0
O2 O 0.79663 0.57055 0.94229 0.0
Cd3 Cd 0.81 0.54395 0.01632 0.0
O4 O 0.8251 0.52985 0.11793 0.0
C5 C 0.84703 0.53792 0.13554 0.0
O6 O 0.8598 0.55322 0.09011 0.0
C7 C 0.81181 0.58255 0.89735 0.0
C8 C 0.7215 0.58278 0.88122 0.0
O9 O 0.73013 0.59466 0.82292 0.0
O10 O 0.73312 0.58603 0.94394 0.0
O11 O 0.93282 0.79825 0.90516 0.0
Cd12 Cd 0.91484 0.75627 0.91084 0.0
O13 O 0.95957 0.78948 0.98899 0.0
Cd14 Cd 0.98992 0.79985 0.06622 0.0
O15 O 0.00195 0.82256 0.16581 0.0
C16 C 0.98839 0.81904 0.22693 0.0
O17 O 0.97035 0.80149 0.22574 0.0
C18 C 0.95038 0.80512 0.94944 0.0
C19 C 0.94774 0.72041 0.86903 0.0
O20 O 0.93271 0.72718 0.8207 0.0
O21 O 0.94763 0.73098 0.9365 0.0
O22 O 0.7028 0.91472 0.78139 0.0
Cd23 Cd 0.74184 0.89551 0.79566 0.0
O24 O 0.70205 0.92056 0.90722 0.0
Cd25 Cd 0.68516 0.93633 0.01392 0.0
O26 O 0.66136 0.95534 0.09936 0.0
C27 C 0.65029 0.94422 0.15514 0.0
O28 O 0.65381 0.9211 0.16196 0.0
C29 C 0.69185 0.92242 0.84361 0.0
C30 C 0.78371 0.92867 0.80156 0.0
O31 O 0.77825 0.91686 0.73845 0.0
O32 O 0.76924 0.925 0.86161 0.0
O33 O 0.56903 0.71606 0.97685 0.0
Cd34 Cd 0.5815 0.75304 0.05262 0.0
O35 O 0.59644 0.69324 0.02132 0.0
Cd36 Cd 0.60535 0.71828 0.11866 0.0
O37 O 0.59389 0.70447 0.23158 0.0
C38 C 0.59387 0.68139 0.23211 0.0
O39 O 0.60197 0.66937 0.16946 0.0
C40 C 0.57916 0.69591 0.9759 0.0
C41 C 0.55971 0.79141 0.99035 0.0
O42 O 0.58253 0.78712 0.97175 0.0
O43 O 0.54756 0.77803 0.03984 0.0
O44 O 0.19985 0.42344 0.60884 0.0
Cd45 Cd 0.23819 0.4017 0.6005 0.0
O46 O 0.20797 0.42823 0.48554 0.0
Cd47 Cd 0.19934 0.44106 0.3737 0.0
O48 O 0.17982 0.4526 0.27653 0.0
C49 C 0.18985 0.468 0.23021 0.0
O50 O 0.21293 0.47705 0.24008 0.0
C51 C 0.1934 0.43079 0.54532 0.0
C52 C 0.28289 0.43088 0.60747 0.0
O53 O 0.27161 0.42743 0.5442 0.0
O54 O 0.27274 0.42099 0.6677 0.0
O55 O 0.98372 0.21017 0.52112 0.0
Cd56 Cd 0.98211 0.24622 0.44476 0.0
O57 O 0.02268 0.21985 0.55205 0.0
Cd58 Cd 0.02805 0.24064 0.44892 0.0
O59 O 0.02298 0.22283 0.33558 0.0
C60 C 0.02581 0.20014 0.33631 0.0
O61 O 0.03246 0.1913 0.40027 0.0
C62 C 0.00242 0.20641 0.56004 0.0
C63 C 0.98772 0.29007 0.53302 0.0
O64 O 0.96583 0.28111 0.51568 0.0
O65 O 0.00665 0.27839 0.50902 0.0
O66 O 0.30655 0.09139 0.61543 0.0
Cd67 Cd 0.26584 0.1082 0.60945 0.0
O68 O 0.31331 0.09705 0.49204 0.0
Cd69 Cd 0.33408 0.09238 0.38109 0.0
O70 O 0.36012 0.08057 0.28821 0.0
C71 C 0.37041 0.06099 0.29801 0.0
O72 O 0.36447 0.04935 0.36122 0.0
C73 C 0.32082 0.08997 0.5548 0.0
C74 C 0.22663 0.07857 0.67458 0.0
O75 O 0.23243 0.07664 0.60211 0.0
O76 O 0.23951 0.09431 0.71597 0.0
O77 O 0.44265 0.30378 0.45073 0.0
Cd78 Cd 0.4348 0.2659 0.37286 0.0
O79 O 0.48317 0.29921 0.43773 0.0
Cd80 Cd 0.47814 0.2821 0.32308 0.0
O81 O 0.47209 0.30019 0.21791 0.0
C82 C 0.45229 0.31162 0.21956 0.0
O83 O 0.43614 0.30928 0.27884 0.0
C84 C 0.46484 0.30964 0.47118 0.0
C85 C 0.45562 0.22831 0.44352 0.0
O86 O 0.43231 0.2319 0.45558 0.0
O87 O 0.46872 0.24197 0.39702 0.0
Tb88 Tb 0.00827 0.991 0.71855 0.0
C89 C 0.05885 0.01002 0.79761 0.0
Tb90 Tb 0.00565 0.02395 0.86596 0.0
O91 O 0.99837 0.02136 0.65119 0.0
O92 O 0.01828 0.02761 0.75074 0.0
O93 O 0.04796 0.9941 0.74722 0.0
C94 C 0.00042 0.06385 0.9573 0.0
O95 O 0.04607 0.02538 0.84307 0.0
C96 C 0.0057 0.97744 0.89059 0.0
C97 C 0.95487 0.00355 0.78971 0.0
O98 O 0.00846 0.04367 0.97826 0.0
O99 O 0.99492 0.06138 0.88552 0.0
O100 O 0.01324 0.99482 0.93935 0.0
O101 O 0.99588 0.98681 0.83585 0.0
O102 O 0.96589 0.01972 0.83902 0.0
O103 O 0.96782 0.98872 0.74272 0.0
C104 C 0.01165 0.95286 0.61782 0.0
O105 O 0.00911 0.97504 0.59961 0.0
O106 O 0.0128 0.95244 0.69193 0.0
C107 C 0.00767 0.03782 0.70011 0.0
Tb108 Tb 0.51176 0.03633 0.70135 0.0
C109 C 0.53476 0.00061 0.57433 0.0
Tb110 Tb 0.5026 0.98126 0.7213 0.0
O111 O 0.55136 0.03487 0.72676 0.0
O112 O 0.52375 0.0106 0.7743 0.0
O113 O 0.52645 0.02263 0.58927 0.0
C114 C 0.50838 0.93489 0.7487 0.0
O115 O 0.52889 0.9822 0.62007 0.0
C116 C 0.46759 0.00195 0.65415 0.0
C117 C 0.48124 0.01683 0.85131 0.0
O118 O 0.52633 0.95195 0.74301 0.0
O119 O 0.48719 0.94384 0.73761 0.0
O120 O 0.46312 0.98268 0.69393 0.0
O121 O 0.49083 0.00696 0.64761 0.0
O122 O 0.48962 0.99498 0.83473 0.0
O123 O 0.48609 0.03528 0.80495 0.0
C124 C 0.50552 0.08272 0.67555 0.0
O125 O 0.48797 0.0652 0.67601 0.0
O126 O 0.5266 0.07419 0.6905 0.0
C127 C 0.54698 0.01562 0.76673 0.0
Tb128 Tb 0.50799 0.52309 0.67811 0.0
C129 C 0.45402 0.49872 0.69916 0.0
Tb130 Tb 0.49657 0.48973 0.81559 0.0
O131 O 0.50181 0.49161 0.59705 0.0
O132 O 0.51525 0.4876 0.70599 0.0
O133 O 0.46763 0.51753 0.67003 0.0
C134 C 0.48129 0.45256 0.90245 0.0
O135 O 0.46282 0.48434 0.74889 0.0
C136 C 0.49713 0.5365 0.84933 0.0
C137 C 0.55107 0.51359 0.79276 0.0
O138 O 0.47165 0.47353 0.9054 0.0
O139 O 0.49999 0.45262 0.85154 0.0
O140 O 0.50222 0.52068 0.89809 0.0
O141 O 0.48973 0.52536 0.78867 0.0
O142 O 0.53689 0.49576 0.82567 0.0
O143 O 0.54291 0.52717 0.73951 0.0
C144 C 0.52141 0.56123 0.59279 0.0
O145 O 0.50714 0.56167 0.65542 0.0
O146 O 0.52785 0.53916 0.57727 0.0
C147 C 0.50773 0.47622 0.64612 0.0
Tb148 Tb 0.98476 0.51029 0.6687 0.0
C149 C -6e-05 0.46059 0.72173 0.0
Tb150 Tb 0.02455 0.51097 0.79023 0.0
O151 O 0.00865 0.49283 0.58046 0.0
O152 O 0.02475 0.51464 0.66928 0.0
O153 O 0.98146 0.47193 0.69447 0.0
C154 C 0.06459 0.50625 0.87192 0.0
O155 O 0.01978 0.47252 0.75261 0.0
C156 C 0.97937 0.52056 0.845 0.0
C157 C 0.00875 0.56069 0.7386 0.0
O158 O 0.04283 0.49451 0.88234 0.0
O159 O 0.06377 0.52073 0.81586 0.0
O160 O -0.00015 0.5279 0.87845 0.0
O161 O 0.98491 0.50623 0.78882 0.0
O162 O 0.0272 0.54944 0.76613 0.0
O163 O 0.98933 0.54872 0.70584 0.0
C164 C 0.94659 0.51643 0.58081 0.0
O165 O 0.96957 0.52511 0.56888 0.0
O166 O 0.94485 0.50434 0.64337 0.0
C167 C 0.02935 0.49988 0.61291 0.0
H168 H 0.19056 0.04979 0.59948 0.0
H169 H 0.21343 0.07484 0.82773 0.0
H170 H 0.17521 0.05383 0.88539 0.0
H171 H 0.1281 0.05982 0.63152 0.0
H172 H 0.11599 0.0335 0.57549 0.0
H173 H 0.14698 0.04693 0.55279 0.0
H174 H 0.16539 0.0053 0.56726 0.0
H175 H 0.13435 0.99173 0.59021 0.0
H176 H 0.15906 0.9897 0.65554 0.0
H177 H 0.13232 0.03582 0.91697 0.0
H178 H 0.0873 0.02215 0.92015 0.0
H179 H 0.09201 0.00765 0.6725 0.0
C180 C 0.18785 0.0503 0.6617 0.0
C181 C 0.20504 0.06386 0.70915 0.0
C182 C 0.20056 0.06453 0.79023 0.0
C183 C 0.17897 0.05253 0.82357 0.0
C184 C 0.1621 0.03979 0.77514 0.0
C185 C 0.16632 0.03846 0.69594 0.0
C186 C 0.14402 0.02568 0.65657 0.0
C187 C 0.13314 0.04249 0.60085 0.0
C188 C 0.15114 0.00167 0.61494 0.0
C189 C 0.1262 0.02098 0.72579 0.0
C190 C 0.13719 0.02895 0.7937 0.0
C191 C 0.12369 0.02896 0.86449 0.0
C192 C 0.09815 0.02122 0.86576 0.0
C193 C 0.08642 0.01348 0.79679 0.0
C194 C 0.10078 0.01273 0.72629 0.0
H195 H 0.43257 0.1876 0.50895 0.0
H196 H 0.50531 0.22623 0.46642 0.0
H197 H 0.52552 0.19471 0.5314 0.0
H198 H 0.44459 0.16525 0.69695 0.0
H199 H 0.42791 0.13605 0.67819 0.0
H200 H 0.41874 0.16265 0.63396 0.0
H201 H 0.42387 0.14055 0.49961 0.0
H202 H 0.43346 0.11406 0.54325 0.0
H203 H 0.45346 0.12844 0.46962 0.0
H204 H 0.53808 0.15866 0.59716 0.0
H205 H 0.54248 0.11856 0.65041 0.0
H206 H 0.46196 0.10241 0.64561 0.0
C207 C 0.45271 0.18953 0.51414 0.0
C208 C 0.46739 0.2094 0.4831 0.0
C209 C 0.49373 0.21112 0.48974 0.0
C210 C 0.50537 0.1934 0.52694 0.0
C211 C 0.49042 0.17399 0.55668 0.0
C212 C 0.4647 0.17179 0.55017 0.0
C213 C 0.45324 0.14826 0.58255 0.0
C214 C 0.43505 0.15337 0.65206 0.0
C215 C 0.44024 0.13188 0.51994 0.0
C216 C 0.47658 0.13746 0.60716 0.0
C217 C 0.49777 0.15278 0.59284 0.0
C218 C 0.52163 0.14653 0.60898 0.0
C219 C 0.52394 0.12378 0.63926 0.0
C220 C 0.50256 0.10755 0.65208 0.0
C221 C 0.47858 0.11461 0.63675 0.0
H222 H 0.31841 0.42857 0.71322 0.0
H223 H 0.30296 0.46454 0.50677 0.0
H224 H 0.34475 0.48705 0.50941 0.0
H225 H 0.3536 0.47885 0.80833 0.0
H226 H 0.37574 0.45973 0.84465 0.0
H227 H 0.34415 0.44763 0.82844 0.0
H228 H 0.36153 0.41277 0.74014 0.0
H229 H 0.39321 0.42485 0.7548 0.0
H230 H 0.38237 0.4201 0.65843 0.0
H231 H 0.38856 0.50551 0.53518 0.0
H232 H 0.4314 0.51681 0.57811 0.0
H233 H 0.41818 0.46702 0.76383 0.0
C234 C 0.32368 0.44141 0.66911 0.0
C235 C 0.30739 0.44505 0.61025 0.0
C236 C 0.31517 0.46159 0.55256 0.0
C237 C 0.33882 0.47446 0.55367 0.0
C238 C 0.35452 0.47032 0.6123 0.0
C239 C 0.34732 0.45406 0.66862 0.0
C240 C 0.36808 0.45192 0.723 0.0
C241 C 0.3599 0.46003 0.80601 0.0
C242 C 0.37681 0.42587 0.71881 0.0
C243 C 0.38802 0.46971 0.68904 0.0
C244 C 0.37987 0.48026 0.62548 0.0
C245 C 0.39514 0.49734 0.58487 0.0
C246 C 0.41941 0.50369 0.6098 0.0
C247 C 0.42818 0.49282 0.67431 0.0
C248 C 0.41214 0.47565 0.71418 0.0
H249 H 0.95746 0.32835 0.54301 0.0
H250 H 0.02682 0.30468 0.622 0.0
H251 H 0.03507 0.34471 0.68997 0.0
H252 H 0.98197 0.3873 0.50115 0.0
H253 H 0.95395 0.40225 0.53096 0.0
H254 H 0.95166 0.37078 0.49691 0.0
H255 H 0.92731 0.359 0.62401 0.0
H256 H 0.92952 0.3905 0.65844 0.0
H257 H 0.94089 0.36756 0.71506 0.0
H258 H 0.03745 0.38763 0.74127 0.0
H259 H 0.03507 0.43167 0.76796 0.0
H260 H 0.96487 0.42862 0.65198 0.0
C261 C 0.97407 0.33147 0.57612 0.0
C262 C 0.9914 0.3134 0.57806 0.0
C263 C 0.01329 0.31829 0.62009 0.0
C264 C 0.01807 0.3409 0.65914 0.0
C265 C 0.00086 0.35849 0.65512 0.0
C266 C 0.97935 0.35414 0.61449 0.0
C267 C 0.96517 0.37695 0.6137 0.0
C268 C 0.96308 0.38478 0.53076 0.0
C269 C 0.93918 0.37328 0.6553 0.0
C270 C 0.98234 0.39487 0.65897 0.0
C271 C 0.0026 0.38369 0.6832 0.0
C272 C 0.02157 0.39657 0.72325 0.0
C273 C 0.02002 0.42164 0.73805 0.0
C274 C -0.00026 0.4337 0.71226 0.0
C275 C 0.9805 0.41997 0.67311 0.0
H276 H 0.82585 0.92857 0.7055 0.0
H277 H 0.79336 0.96592 0.90861 0.0
H278 H 0.83254 0.99242 0.91966 0.0
H279 H 0.88569 0.92656 0.77802 0.0
H280 H 0.90258 0.93061 0.68658 0.0
H281 H 0.87108 0.91667 0.68955 0.0
H282 H 0.85778 0.94902 0.59966 0.0
H283 H 0.8893 0.9631 0.59668 0.0
H284 H 0.86327 0.98094 0.62674 0.0
H285 H 0.87614 0.01313 0.91285 0.0
H286 H 0.9215 0.02446 0.89436 0.0
H287 H 0.92563 0.97246 0.69807 0.0
C288 C 0.82681 0.94266 0.75136 0.0
C289 C 0.80652 0.94542 0.80572 0.0
C290 C 0.80869 0.96361 0.86618 0.0
C291 C 0.8308 0.97879 0.87269 0.0
C292 C 0.85059 0.97541 0.8186 0.0
C293 C 0.84885 0.95768 0.75938 0.0
C294 C 0.87351 0.95629 0.71298 0.0
C295 C 0.88381 0.93105 0.71708 0.0
C296 C 0.87079 0.96273 0.62904 0.0
C297 C 0.88948 0.97582 0.75584 0.0
C298 C 0.87587 0.98687 0.81593 0.0
C299 C 0.88695 0.00473 0.86559 0.0
C300 C 0.91274 0.01108 0.85452 0.0
C301 C 0.92719 0.99937 0.79475 0.0
C302 C 0.91516 0.98188 0.74407 0.0
H303 H 0.58214 0.83086 0.91688 0.0
H304 H 0.50948 0.79532 0.98162 0.0
H305 H 0.48858 0.82665 0.9177 0.0
H306 H 0.56376 0.89166 0.95186 0.0
H307 H 0.58249 0.90398 0.87193 0.0
H308 H 0.59228 0.87808 0.91837 0.0
H309 H 0.59377 0.85344 0.7875 0.0
H310 H 0.5843 0.87939 0.74047 0.0
H311 H 0.56643 0.85042 0.73054 0.0
H312 H 0.47551 0.86176 0.84776 0.0
H313 H 0.47105 0.90073 0.7874 0.0
H314 H 0.55203 0.91444 0.77296 0.0
C315 C 0.56184 0.82962 0.91718 0.0
C316 C 0.5474 0.81062 0.95379 0.0
C317 C 0.52088 0.80977 0.95401 0.0
C318 C 0.50885 0.82738 0.91746 0.0
C319 C 0.5236 0.84582 0.8816 0.0
C320 C 0.5495 0.84727 0.88195 0.0
C321 C 0.56087 0.86977 0.84305 0.0
C322 C 0.57573 0.88686 0.89977 0.0
C323 C 0.57731 0.86283 0.77111 0.0
C324 C 0.5373 0.88079 0.82134 0.0
C325 C 0.51603 0.8665 0.84311 0.0
C326 C 0.49202 0.87309 0.83031 0.0
C327 C 0.48967 0.89518 0.79585 0.0
C328 C 0.51119 0.91043 0.77556 0.0
C329 C 0.53528 0.90298 0.78752 0.0
H330 H 0.68925 0.5777 0.76364 0.0
H331 H 0.69982 0.55318 0.992 0.0
H332 H 0.65818 0.53052 0.99113 0.0
H333 H 0.6283 0.58966 0.79506 0.0
H334 H 0.61657 0.57894 0.70299 0.0
H335 H 0.64891 0.58998 0.70999 0.0
H336 H 0.66562 0.55033 0.65242 0.0
H337 H 0.63377 0.53885 0.63697 0.0
H338 H 0.65377 0.5216 0.68997 0.0
H339 H 0.61426 0.51238 0.9679 0.0
H340 H 0.57138 0.50106 0.92541 0.0
H341 H 0.58938 0.53913 0.71501 0.0
C342 C 0.68309 0.56714 0.81283 0.0
C343 C 0.69786 0.5671 0.87771 0.0
C344 C 0.68887 0.55339 0.94148 0.0
C345 C 0.66526 0.54043 0.94148 0.0
C346 C 0.65093 0.54133 0.87724 0.0
C347 C 0.65959 0.55422 0.8139 0.0
C348 C 0.63994 0.55367 0.75432 0.0
C349 C 0.63298 0.57958 0.73976 0.0
C350 C 0.64881 0.54031 0.67897 0.0
C351 C 0.61859 0.53905 0.795 0.0
C352 C 0.62542 0.53169 0.86514 0.0
C353 C 0.60876 0.51792 0.91286 0.0
C354 C 0.58448 0.51152 0.88817 0.0
C355 C 0.57704 0.51918 0.81692 0.0
C356 C 0.59444 0.53306 0.76993 0.0
H357 H 0.93971 0.68338 0.76067 0.0
H358 H 0.99098 0.71085 0.93512 0.0
H359 H 0.01559 0.67475 0.90896 0.0
H360 H 0.937 0.62337 0.81296 0.0
H361 H 0.93486 0.60957 0.717 0.0
H362 H 0.92343 0.63916 0.7392 0.0
H363 H 0.95216 0.65774 0.62989 0.0
H364 H 0.96347 0.62817 0.60519 0.0
H365 H 0.98536 0.65382 0.62651 0.0
H366 H 0.03266 0.63415 0.87044 0.0
H367 H 0.039 0.5913 0.82975 0.0
H368 H 0.97543 0.5901 0.68422 0.0
C369 C 0.9565 0.68211 0.79191 0.0
C370 C 0.9637 0.70003 0.84909 0.0
C371 C 0.98528 0.69736 0.89065 0.0
C372 C 0.99941 0.677 0.87596 0.0
C373 C 0.99157 0.65942 0.81998 0.0
C374 C 0.97052 0.66173 0.7789 0.0
C375 C 0.96449 0.63916 0.72789 0.0
C376 C 0.93842 0.6271 0.75063 0.0
C377 C 0.9665 0.64509 0.64229 0.0
C378 C 0.98524 0.62367 0.74734 0.0
C379 C 0.0009 0.63576 0.79966 0.0
C380 C 0.02068 0.6246 0.82881 0.0
C381 C 0.02419 0.60027 0.80512 0.0
C382 C 0.00781 0.58732 0.75345 0.0
C383 C 0.98845 0.59948 0.72322 0.0
H384 H 0.97591 0.16303 0.53073 0.0
H385 H 0.02996 0.19922 0.68361 0.0
H386 H 0.03474 0.16004 0.74251 0.0
H387 H 0.94736 0.11729 0.66484 0.0
H388 H 0.94492 0.09376 0.58894 0.0
H389 H 0.94289 0.12518 0.56746 0.0
H390 H 0.97919 0.12139 0.46362 0.0
H391 H 0.98162 0.09012 0.48542 0.0
H392 H 0.00873 0.11151 0.49047 0.0
H393 H 0.03669 0.11676 0.77571 0.0
H394 H 0.03554 0.07211 0.78248 0.0
H395 H 0.98124 0.06352 0.60479 0.0
C396 C 0.98807 0.16286 0.57847 0.0
C397 C 0.00222 0.18419 0.60384 0.0
C398 C 0.01874 0.1831 0.6642 0.0
C399 C 0.02157 0.16096 0.69785 0.0
C400 C 0.00792 0.1401 0.66985 0.0
C401 C 0.99145 0.14083 0.61166 0.0
C402 C 0.9809 0.11547 0.587 0.0
C403 C 0.95232 0.11277 0.60305 0.0
C404 C 0.98805 0.10927 0.5016 0.0
C405 C 0.99426 0.10031 0.63976 0.0
C406 C 0.00958 0.11493 0.68753 0.0
C407 C 0.02454 0.10516 0.73931 0.0
C408 C 0.02377 0.07978 0.74266 0.0
C409 C 0.00809 0.06446 0.69472 0.0
C410 C 0.99323 0.07487 0.64246 0.0
H411 H 0.33288 0.05432 0.64653 0.0
H412 H 0.36459 0.10294 0.47278 0.0
H413 H 0.4051 0.08438 0.47484 0.0
H414 H 0.38821 0.05708 0.75793 0.0
H415 H 0.38378 0.02562 0.78233 0.0
H416 H 0.35705 0.04222 0.765 0.0
H417 H 0.34345 0.00933 0.66016 0.0
H418 H 0.37019 0.99268 0.67694 0.0
H419 H 0.36526 0.00186 0.58127 0.0
H420 H 0.44272 0.06159 0.4998 0.0
H421 H 0.47421 0.03527 0.54316 0.0
H422 H 0.41821 0.00216 0.70247 0.0
C423 C 0.34839 0.06109 0.60908 0.0
C424 C 0.34537 0.0795 0.55753 0.0
C425 C 0.36615 0.08811 0.51015 0.0
C426 C 0.38938 0.07799 0.512 0.0
C427 C 0.39165 0.05964 0.56275 0.0
C428 C 0.37175 0.05133 0.6107 0.0
C429 C 0.37916 0.03156 0.66042 0.0
C430 C 0.37692 0.03961 0.7465 0.0
C431 C 0.36359 0.00743 0.64366 0.0
C432 C 0.4063 0.02993 0.63264 0.0
C433 C 0.41319 0.04637 0.57658 0.0
C434 C 0.4375 0.04857 0.54337 0.0
C435 C 0.45523 0.0336 0.56834 0.0
C436 C 0.44853 0.01676 0.62592 0.0
C437 C 0.42372 0.01478 0.65788 0.0
H438 H 0.4428 0.35245 0.47473 0.0
H439 H 0.49996 0.31551 0.57982 0.0
H440 H 0.51369 0.35401 0.65031 0.0
H441 H 0.48055 0.40262 0.43246 0.0
H442 H 0.45741 0.42473 0.44938 0.0
H443 H 0.44774 0.39363 0.42249 0.0
H444 H 0.41795 0.39101 0.54491 0.0
H445 H 0.42729 0.4223 0.57177 0.0
H446 H 0.43021 0.39882 0.63829 0.0
H447 H 0.52406 0.39709 0.69789 0.0
H448 H 0.53215 0.44192 0.71233 0.0
H449 H 0.47107 0.45116 0.56518 0.0
C450 C 0.45748 0.35231 0.51522 0.0
C451 C 0.46999 0.33103 0.52366 0.0
C452 C 0.48994 0.33163 0.57395 0.0
C453 C 0.49778 0.35336 0.61421 0.0
C454 C 0.48567 0.37432 0.6025 0.0
C455 C 0.46593 0.37399 0.55413 0.0
C456 C 0.45862 0.39953 0.54235 0.0
C457 C 0.46126 0.40546 0.4566 0.0
C458 C 0.43194 0.40311 0.57636 0.0
C459 C 0.47801 0.41429 0.58882 0.0
C460 C 0.4929 0.39941 0.62511 0.0
C461 C 0.51244 0.40891 0.67012 0.0
C462 C 0.51696 0.4343 0.67776 0.0
C463 C 0.5024 0.44971 0.63902 0.0
C464 C 0.48262 0.43962 0.59451 0.0
H465 H 0.16867 0.45977 0.65364 0.0
H466 H 0.16162 0.42291 0.42828 0.0
H467 H 0.12051 0.43937 0.41781 0.0
H468 H 0.10442 0.44759 0.71571 0.0
H469 H 0.10137 0.47632 0.76847 0.0
H470 H 0.13144 0.46357 0.75766 0.0
H471 H 0.15118 0.50283 0.69802 0.0
H472 H 0.12135 0.51613 0.70858 0.0
H473 H 0.1377 0.51414 0.61532 0.0
H474 H 0.07952 0.45765 0.43376 0.0
H475 H 0.0404 0.47643 0.47626 0.0
H476 H 0.07305 0.50166 0.69118 0.0
C477 C 0.15853 0.45545 0.60184 0.0
C478 C 0.1688 0.44094 0.54018 0.0
C479 C 0.15476 0.43509 0.4742 0.0
C480 C 0.13121 0.44407 0.46822 0.0
C481 C 0.12179 0.45866 0.52922 0.0
C482 C 0.13487 0.46426 0.59501 0.0
C483 C 0.11977 0.47943 0.65346 0.0
C484 C 0.11392 0.46591 0.72823 0.0
C485 C 0.13332 0.50463 0.66977 0.0
C486 C 0.09622 0.48139 0.61007 0.0
C487 C 0.09784 0.46921 0.53864 0.0
C488 C 0.0781 0.46743 0.4893 0.0
C489 C 0.05597 0.47817 0.51398 0.0
C490 C 0.05379 0.49068 0.58705 0.0
C491 C 0.07431 0.49254 0.63508 0.0
H492 H 0.9562 0.83748 0.83487 0.0
H493 H 0.96285 0.83188 0.08037 0.0
H494 H 0.98031 0.87465 0.09105 0.0
H495 H 0.01101 0.8743 0.8045 0.0
H496 H 0.00116 0.89539 0.73991 0.0
H497 H 0.98688 0.86464 0.73879 0.0
H498 H 0.94218 0.87546 0.76877 0.0
H499 H 0.95206 0.90719 0.76023 0.0
H500 H 0.93501 0.8973 0.84624 0.0
H501 H 0.9985 0.9178 0.07289 0.0
H502 H 0.0109 0.95938 0.0314 0.0
H503 H 0.98643 0.9383 0.80214 0.0
C504 C 0.96132 0.8453 0.89082 0.0
C505 C 0.95949 0.83107 0.9562 0.0
C506 C 0.9658 0.84203 0.02875 0.0
C507 C 0.97529 0.86643 0.03556 0.0
C508 C 0.97765 0.87978 0.96945 0.0
C509 C 0.97035 0.86975 0.89887 0.0
C510 C 0.9743 0.88816 0.83713 0.0
C511 C 0.99442 0.88013 0.77635 0.0
C512 C 0.94944 0.89226 0.80091 0.0
C513 C 0.98393 0.91041 0.88451 0.0
C514 C 0.98651 0.905 0.96019 0.0
C515 C 0.99631 0.92231 0.01391 0.0
C516 C 0.00333 0.94585 0.98972 0.0
C517 C -9e-05 0.95204 0.9131 0.0
C518 C 0.98989 0.93405 0.86027 0.0
H519 H 0.678 0.9545 0.74155 0.0
H520 H 0.65109 0.91486 0.94212 0.0
H521 H 0.61113 0.93466 0.94482 0.0
H522 H 0.65126 0.0103 0.80085 0.0
H523 H 0.64311 0.01716 0.70554 0.0
H524 H 0.6693 0.99923 0.71738 0.0
H525 H 0.6496 0.96468 0.62777 0.0
H526 H 0.62329 0.98248 0.61565 0.0
H527 H 0.61812 0.95215 0.65012 0.0
H528 H 0.57359 0.95752 0.9229 0.0
H529 H 0.54223 0.98478 0.88424 0.0
H530 H 0.59408 0.01097 0.70157 0.0
C531 C 0.66354 0.94986 0.78542 0.0
C532 C 0.66765 0.93348 0.84236 0.0
C533 C 0.64845 0.92783 0.89915 0.0
C534 C 0.62561 0.93876 0.90059 0.0
C535 C 0.6222 0.95508 0.84427 0.0
C536 C 0.64064 0.96071 0.78788 0.0
C537 C 0.63251 0.97957 0.73591 0.0
C538 C 0.65009 0.00295 0.74022 0.0
C539 C 0.63078 0.96909 0.65242 0.0
C540 C 0.60676 0.98381 0.77237 0.0
C541 C 0.60102 0.9692 0.83402 0.0
C542 C 0.57795 0.96925 0.87526 0.0
C543 C 0.56031 0.98474 0.85302 0.0
C544 C 0.56601 1.00009 0.79084 0.0
C545 C 0.58952 0.99968 0.75024 0.0
H546 H 0.58797 0.64819 0.9899 0.0
H547 H 0.54414 0.69503 0.86596 0.0
H548 H 0.51961 0.65875 0.81312 0.0
H549 H 0.58634 0.59533 0.84321 0.0
H550 H 0.58428 0.57398 0.91859 0.0
H551 H 0.60106 0.60335 0.93295 0.0
H552 H 0.57271 0.61079 0.05759 0.0
H553 H 0.55538 0.58193 0.0407 0.0
H554 H 0.53913 0.60952 0.05063 0.0
H555 H 0.4966 0.61773 0.78658 0.0
H556 H 0.47871 0.57482 0.78288 0.0
H557 H 0.53697 0.55572 0.92759 0.0
C558 C 0.57381 0.65084 0.94957 0.0
C559 C 0.56807 0.67445 0.93171 0.0
C560 C 0.54896 0.6771 0.8801 0.0
C561 C 0.5349 0.65661 0.84989 0.0
C562 C 0.54026 0.63366 0.87174 0.0
C563 C 0.5595 0.63065 0.91958 0.0
C564 C 0.56013 0.60432 0.93967 0.0
C565 C 0.58442 0.59362 0.9067 0.0
C566 C 0.55662 0.6015 0.02732 0.0
C567 C 0.53771 0.59316 0.89799 0.0
C568 C 0.52668 0.61024 0.85811 0.0
C569 C 0.50531 0.60415 0.81668 0.0
C570 C 0.49526 0.57986 0.81497 0.0
C571 C 0.50663 0.56218 0.85448 0.0
C572 C 0.52791 0.56899 0.89706 0.0
H573 H 0.83203 0.53882 0.86085 0.0
H574 H 0.85143 0.61527 0.91733 0.0
H575 H 0.89645 0.6075 0.90997 0.0
H576 H 0.87971 0.51377 0.96152 0.0
H577 H 0.88626 0.49039 0.88819 0.0
H578 H 0.85548 0.50173 0.89903 0.0
H579 H 0.85837 0.51264 0.75525 0.0
H580 H 0.8891 0.50117 0.74408 0.0
H581 H 0.88473 0.53189 0.71959 0.0
H582 H 0.9385 0.59094 0.90781 0.0
H583 H 0.97627 0.56783 0.89243 0.0
H584 H 0.9308 0.50285 0.82132 0.0
C585 C 0.84586 0.55383 0.87156 0.0
C586 C 0.83849 0.57759 0.89039 0.0
C587 C 0.85689 0.59696 0.90298 0.0
C588 C 0.88241 0.59271 0.89912 0.0
C589 C 0.88916 0.56908 0.88073 0.0
C590 C 0.87153 0.55003 0.86551 0.0
C591 C 0.88404 0.52661 0.84392 0.0
C592 C 0.87589 0.50697 0.90161 0.0
C593 C 0.87874 0.51756 0.76077 0.0
C594 C 0.9114 0.53541 0.85089 0.0
C595 C 0.9138 0.55991 0.87328 0.0
C596 C 0.93693 0.57191 0.88862 0.0
C597 C 0.95824 0.55859 0.88012 0.0
C598 C 0.95637 0.53371 0.85476 0.0
C599 C 0.93267 0.52198 0.83959 0.0
H600 H 0.02902 0.15092 0.32529 0.0
H601 H 0.0102 0.21161 0.19534 0.0
H602 H 4e-05 0.18299 0.08491 0.0
H603 H 0.05829 0.11747 0.16774 0.0
H604 H 0.04642 0.08821 0.2012 0.0
H605 H 0.05188 0.11356 0.26937 0.0
H606 H 0.00581 0.10767 0.32277 0.0
H607 H 6e-05 0.08242 0.25435 0.0
H608 H 0.98065 0.10788 0.25798 0.0
H609 H 0.99228 0.1475 0.98854 0.0
H610 H 0.98892 0.10821 0.91249 0.0
H611 H 0.01274 0.07128 0.10719 0.0
C612 C 0.02282 0.15829 0.27363 0.0
C613 C 0.02043 0.18351 0.26883 0.0
C614 C 0.01221 0.19234 0.20018 0.0
C615 C 0.00633 0.17623 0.13732 0.0
C616 C 0.00876 0.15143 0.14434 0.0
C617 C 0.0169 0.14254 0.21072 0.0
C618 C 0.01826 0.11519 0.20367 0.0
C619 C 0.04532 0.10821 0.21089 0.0
C620 C 0.00011 0.10255 0.26322 0.0
C621 C 0.00973 0.11 0.12261 0.0
C622 C 0.00423 0.1311 0.08936 0.0
C623 C 0.99643 0.13087 0.01411 0.0
C624 C 0.99451 0.1085 0.97152 0.0
C625 C 0.00043 0.08682 0.00441 0.0
C626 C 0.00792 0.0876 0.081 0.0
H627 H 0.38527 0.07906 0.15664 0.0
H628 H 0.39708 0.02104 0.3076 0.0
H629 H 0.42742 0.00439 0.21091 0.0
H630 H 0.38842 0.04261 0.97924 0.0
H631 H 0.40471 0.06633 0.92448 0.0
H632 H 0.38415 0.07416 0.00605 0.0
H633 H 0.4205 0.10101 0.06697 0.0
H634 H 0.44118 0.09323 0.98559 0.0
H635 H 0.44959 0.08781 0.08188 0.0
H636 H 0.4554 0.9933 0.09813 0.0
H637 H 0.47986 0.9884 0.97511 0.0
H638 H 0.45072 0.05376 0.89618 0.0
C639 C 0.39429 0.06289 0.16945 0.0
C640 C 0.38876 0.05133 0.23973 0.0
C641 C 0.40094 0.03019 0.25418 0.0
C642 C 0.41825 0.0206 0.19967 0.0
C643 C 0.42321 0.03236 0.13103 0.0
C644 C 0.41165 0.05303 0.11556 0.0
C645 C 0.42021 0.06188 0.03659 0.0
C646 C 0.39805 0.0612 0.98347 0.0
C647 C 0.43367 0.0875 0.04319 0.0
C648 C 0.43833 0.04289 0.01021 0.0
C649 C 0.4397 0.02606 0.0657 0.0
C650 C 0.45459 0.00641 0.05431 0.0
C651 C 0.46837 0.00378 0.98406 0.0
C652 C 0.46728 0.02075 0.92607 0.0
C653 C 0.45216 0.04066 0.93972 0.0
H654 H 0.48579 0.32648 0.10275 0.0
H655 H 0.41303 0.34022 0.21273 0.0
H656 H 0.4113 0.37615 0.13536 0.0
H657 H 0.5097 0.38622 0.10238 0.0
H658 H 0.52627 0.38425 0.00943 0.0
H659 H 0.52052 0.35751 0.06458 0.0
H660 H 0.49826 0.33462 0.95041 0.0
H661 H 0.50424 0.36123 0.89432 0.0
H662 H 0.47265 0.34792 0.90888 0.0
H663 H 0.41988 0.41341 0.06093 0.0
H664 H 0.43685 0.44812 0.98517 0.0
H665 H 0.5035 0.41007 0.91995 0.0
C666 C 0.46917 0.33663 0.10898 0.0
C667 C 0.44953 0.33051 0.16383 0.0
C668 C 0.42829 0.3445 0.17104 0.0
C669 C 0.42711 0.36496 0.1273 0.0
C670 C 0.44719 0.37104 0.07592 0.0
C671 C 0.46765 0.3571 0.06549 0.0
C672 C 0.48741 0.36855 0.01005 0.0
C673 C 0.51244 0.37449 0.04897 0.0
C674 C 0.49083 0.3521 0.93655 0.0
C675 C 0.47524 0.39154 0.99336 0.0
C676 C 0.45198 0.39251 0.03163 0.0
C677 C 0.43785 0.41267 0.02953 0.0
C678 C 0.4477 0.43234 0.98685 0.0
C679 C 0.47138 0.43164 0.94679 0.0
C680 C 0.48522 0.41091 0.94958 0.0
H681 H 0.14101 0.45422 0.19919 0.0
H682 H 0.20569 0.50021 0.11962 0.0
H683 H 0.18091 0.51444 0.01715 0.0
H684 H 0.11784 0.43676 0.01083 0.0
H685 H 0.08538 0.43738 0.04398 0.0
H686 H 0.10851 0.43031 0.10928 0.0
H687 H 0.09491 0.46537 0.20422 0.0
H688 H 0.07179 0.47258 0.13916 0.0
H689 H 0.09507 0.49579 0.17071 0.0
H690 H 0.14862 0.52437 0.92523 0.0
H691 H 0.11123 0.52922 0.85127 0.0
H692 H 0.06798 0.4767 0.99142 0.0
C693 C 0.15007 0.46717 0.15999 0.0
C694 C 0.17533 0.47608 0.16738 0.0
C695 C 0.18638 0.49311 0.11506 0.0
C696 C 0.17246 0.50129 0.05664 0.0
C697 C 0.14756 0.49223 0.05132 0.0
C698 C 0.13648 0.47552 0.10153 0.0
C699 C 0.1093 0.46896 0.08456 0.0
C700 C 0.10502 0.44174 0.06073 0.0
C701 C 0.09174 0.47611 0.15377 0.0
C702 C 0.10671 0.48476 0.01731 0.0
C703 C 0.12901 0.49798 0.99877 0.0
C704 C 0.13109 0.51406 0.93914 0.0
C705 C 0.10979 0.51672 0.89757 0.0
C706 C 0.08683 0.50335 0.9159 0.0
C707 C 0.08534 0.48714 0.97631 0.0
H708 H 0.01652 0.86293 0.24025 0.0
H709 H 0.96562 0.81303 0.36912 0.0
H710 H 0.96687 0.84192 0.48208 0.0
H711 H 0.05445 0.88513 0.40195 0.0
H712 H 0.05809 0.91596 0.37104 0.0
H713 H 0.0543 0.89086 0.30086 0.0
H714 H 0.01627 0.91014 0.24888 0.0
H715 H 0.01983 0.93522 0.31918 0.0
H716 H 0.99027 0.91736 0.31433 0.0
H717 H 0.9712 0.87649 0.5775 0.0
H718 H 0.98031 0.91477 0.65402 0.0
H719 H 0.02929 0.94263 0.46777 0.0
C720 C 0.00595 0.85795 0.29263 0.0
C721 C 0.99103 0.83567 0.29599 0.0
C722 C 0.97718 0.82995 0.36519 0.0
C723 C 0.97776 0.84624 0.42969 0.0
C724 C 0.99227 0.86817 0.4241 0.0
C725 C 0.00625 0.87408 0.35774 0.0
C726 C 0.01974 0.89923 0.36704 0.0
C727 C 0.04835 0.89769 0.35981 0.0
C728 C 0.011 0.9165 0.3089 0.0
C729 C 0.01098 0.90654 0.4489 0.0
C730 C 0.99515 0.88824 0.48037 0.0
C731 C 0.984 0.89071 0.55418 0.0
C732 C 0.98953 0.91229 0.59763 0.0
C733 C 0.00626 0.93094 0.56798 0.0
C734 C 0.01678 0.92833 0.49205 0.0
H735 H 0.62651 0.9269 0.28711 0.0
H736 H 0.63539 0.99053 0.1484 0.0
H737 H 0.60637 0.0117 0.23962 0.0
H738 H 0.56105 0.93041 0.3385 0.0
H739 H 0.56348 0.92091 0.43526 0.0
H740 H 0.58504 0.91075 0.35924 0.0
H741 H 0.62259 0.92826 0.43825 0.0
H742 H 0.60111 0.93838 0.51454 0.0
H743 H 0.62417 0.95984 0.47177 0.0
H744 H 0.57621 0.02586 0.34553 0.0
H745 H 0.54778 0.03234 0.46011 0.0
H746 H 0.55886 0.95948 0.52978 0.0
C747 C 0.62238 0.94528 0.27584 0.0
C748 C 0.63322 0.95704 0.21054 0.0
C749 C 0.62736 0.98115 0.1981 0.0
C750 C 0.61086 0.99332 0.24951 0.0
C751 C 0.60044 0.98117 0.31314 0.0
C752 C 0.60603 0.95773 0.32667 0.0
C753 C 0.59246 0.94884 0.3997 0.0
C754 C 0.57444 0.9264 0.38208 0.0
C755 C 0.61121 0.94353 0.4596 0.0
C756 C 0.57827 0.9709 0.42491 0.0
C757 C 0.58312 0.98935 0.37422 0.0
C758 C 0.57225 0.01154 0.38564 0.0
C759 C 0.5561 0.01503 0.45091 0.0
C760 C 0.55095 0.99639 0.50388 0.0
C761 C 0.5622 0.97404 0.49022 0.0
H762 H 0.59144 0.63219 0.24737 0.0
H763 H 0.57135 0.69979 0.36666 0.0
H764 H 0.55074 0.67635 0.47302 0.0
H765 H 0.53499 0.59729 0.29493 0.0
H766 H 0.55004 0.56961 0.30662 0.0
H767 H 0.56408 0.59178 0.24186 0.0
H768 H 0.60534 0.59401 0.31434 0.0
H769 H 0.59149 0.57171 0.37903 0.0
H770 H 0.60442 0.60077 0.41703 0.0
H771 H 0.53075 0.64514 0.56362 0.0
H772 H 0.51464 0.60883 0.63386 0.0
H773 H 0.54838 0.56204 0.4549 0.0
C774 C 0.58293 0.64216 0.29612 0.0
C775 C 0.58304 0.66785 0.29875 0.0
C776 C 0.57158 0.68012 0.36353 0.0
C777 C 0.55978 0.66696 0.42409 0.0
C778 C 0.55972 0.6416 0.41897 0.0
C779 C 0.57116 0.62936 0.35684 0.0
C780 C 0.56821 0.60204 0.3644 0.0
C781 C 0.55345 0.58945 0.29802 0.0
C782 C 0.59389 0.59152 0.369 0.0
C783 C 0.55318 0.60074 0.44046 0.0
C784 C 0.54841 0.62373 0.47101 0.0
C785 C 0.53447 0.62708 0.54036 0.0
C786 C 0.52534 0.60638 0.57966 0.0
C787 C 0.53029 0.58274 0.54956 0.0
C788 C 0.54437 0.57994 0.47914 0.0
H789 H 0.89343 0.55202 0.18795 0.0
H790 H 0.82424 0.50948 0.24823 0.0
H791 H 0.84138 0.50035 0.37195 0.0
H792 H 0.93498 0.51308 0.26752 0.0
H793 H 0.95613 0.53797 0.30067 0.0
H794 H 0.93811 0.54111 0.21775 0.0
H795 H 0.92002 0.57988 0.28328 0.0
H796 H 0.93783 0.57674 0.3667 0.0
H797 H 0.90429 0.57827 0.37742 0.0
H798 H 0.86656 0.49605 0.4904 0.0
H799 H 0.89834 0.49546 0.58902 0.0
H800 H 0.95031 0.5409 0.44905 0.0
C801 C 0.88184 0.54075 0.22698 0.0
C802 C 0.85747 0.5315 0.20837 0.0
C803 C 0.84299 0.51677 0.26117 0.0
C804 C 0.85253 0.51154 0.33171 0.0
C805 C 0.87656 0.52118 0.34852 0.0
C806 C 0.89103 0.53537 0.29734 0.0
C807 C 0.91639 0.54329 0.3282 0.0
C808 C 0.93765 0.53325 0.2754 0.0
C809 C 0.91982 0.5712 0.33958 0.0
C810 C 0.91403 0.53126 0.40465 0.0
C811 C 0.89091 0.51867 0.4158 0.0
C812 C 0.8847 0.50588 0.48223 0.0
C813 C 0.90278 0.50569 0.53797 0.0
C814 C 0.92667 0.51815 0.52649 0.0
C815 C 0.93214 0.53127 0.45943 0.0
loop_
_geom_bond_atom_site_label_1
_geom_bond_atom_site_label_2
_geom_bond_distance
_geom_bond_site_symmetry_2
_ccdc_geom_bond_type
O0 Cd1 2.300 1_556 S
O0 C7 1.275 . S
Cd1 O0 2.300 1_554 S
Cd1 O9 2.381 1_554 S
Cd1 O10 2.378 . S
O2 Cd3 2.385 . S
O2 C7 1.255 1_554 S
Cd3 O2 2.385 . S
Cd3 O4 2.317 . S
O4 Cd3 2.317 . S
O4 C5 1.232 . S
C5 O4 1.232 . S
C5 O6 1.218 . S
O6 C5 1.218 . S
C7 O0 1.275 . S
C7 O2 1.255 1_556 S
C8 O9 1.258 1_554 S
C8 O10 1.256 . S
O9 Cd1 2.381 1_556 S
O9 C8 1.258 1_556 S
O10 Cd1 2.378 . S
O10 C8 1.256 . S
O11 Cd12 2.300 . S
O11 C18 1.275 . S
Cd12 O11 2.300 . S
Cd12 O20 2.381 . S
Cd12 O21 2.378 1_556 S
O13 Cd14 2.389 . S
O13 C18 1.252 1_554 S
Cd14 O13 2.389 . S
Cd14 O15 2.317 . S
O15 Cd14 2.317 . S
O15 C16 1.232 . S
C16 O15 1.232 . S
C16 O17 1.218 . S
O17 C16 1.218 . S
C18 O11 1.275 . S
C18 O13 1.252 1_556 S
C19 O20 1.258 . S
C19 O21 1.256 1_556 S
O20 Cd12 2.381 . S
O20 C19 1.258 . S
O21 Cd12 2.378 1_554 S
O21 C19 1.256 1_554 S
O22 Cd23 2.300 1_556 S
O22 C29 1.276 . S
Cd23 O22 2.300 1_554 S
Cd23 O31 2.381 1_554 S
Cd23 O32 2.378 . S
O24 Cd25 2.385 1_565 S
O24 C29 1.254 1_554 S
Cd25 O24 2.385 1_545 S
Cd25 O26 2.317 1_545 S
O26 Cd25 2.317 1_565 S
O26 C27 1.232 . S
C27 O26 1.232 . S
C27 O28 1.218 . S
O28 C27 1.218 . S
C29 O22 1.276 . S
C29 O24 1.254 1_556 S
C30 O31 1.258 1_554 S
C30 O32 1.256 . S
O31 Cd23 2.381 1_556 S
O31 C30 1.258 1_556 S
O32 Cd23 2.378 . S
O32 C30 1.256 . S
O33 Cd34 2.300 1_556 S
O33 C40 1.275 1_556 S
Cd34 O33 2.300 1_554 S
Cd34 O42 2.381 1_554 S
Cd34 O43 2.378 . S
O35 Cd36 2.385 . S
O35 C40 1.255 . S
Cd36 O35 2.385 . S
Cd36 O37 2.317 . S
O37 Cd36 2.317 . S
O37 C38 1.232 . S
C38 O37 1.232 . S
C38 O39 1.218 . S
O39 C38 1.218 . S
C40 O33 1.275 1_554 S
C40 O35 1.255 . S
C41 O42 1.258 1_554 S
C41 O43 1.256 . S
O42 Cd34 2.381 1_556 S
O42 C41 1.258 1_556 S
O43 Cd34 2.378 . S
O43 C41 1.256 . S
O44 Cd45 2.300 . S
O44 C51 1.275 . S
Cd45 O44 2.300 . S
Cd45 O53 2.381 . S
Cd45 O54 2.378 . S
O46 Cd47 2.385 . S
O46 C51 1.255 . S
Cd47 O46 2.385 . S
Cd47 O48 2.317 . S
O48 Cd47 2.317 . S
O48 C49 1.232 . S
C49 O48 1.232 . S
C49 O50 1.218 . S
O50 C49 1.218 . S
C51 O44 1.275 . S
C51 O46 1.255 . S
C52 O53 1.258 . S
C52 O54 1.256 . S
O53 Cd45 2.381 . S
O53 C52 1.258 . S
O54 Cd45 2.378 . S
O54 C52 1.256 . S
O55 Cd56 2.300 . S
O55 C62 1.275 . S
Cd56 O55 2.300 . S
Cd56 O64 2.381 . S
Cd56 O65 2.378 . S
O57 Cd58 2.385 . S
O57 C62 1.255 . S
Cd58 O57 2.385 . S
Cd58 O59 2.317 . S
O59 Cd58 2.317 . S
O59 C60 1.232 . S
C60 O59 1.232 . S
C60 O61 1.218 . S
O61 C60 1.218 . S
C62 O55 1.275 . S
C62 O57 1.255 . S
C63 O64 1.258 . S
C63 O65 1.256 . S
O64 Cd56 2.381 . S
O64 C63 1.258 . S
O65 Cd56 2.378 . S
O65 C63 1.256 . S
O66 Cd67 2.300 . S
O66 C73 1.275 . S
Cd67 O66 2.300 . S
Cd67 O75 2.381 . S
Cd67 O76 2.378 . S
O68 Cd69 2.385 . S
O68 C73 1.255 . S
Cd69 O68 2.385 . S
Cd69 O70 2.317 . S
O70 Cd69 2.317 . S
O70 C71 1.232 . S
C71 O70 1.232 . S
C71 O72 1.218 . S
O72 C71 1.218 . S
C73 O66 1.275 . S
C73 O68 1.255 . S
C74 O75 1.258 . S
C74 O76 1.256 . S
O75 Cd67 2.381 . S
O75 C74 1.258 . S
O76 Cd67 2.378 . S
O76 C74 1.256 . S
O77 Cd78 2.300 . S
O77 C84 1.275 . S
Cd78 O77 2.300 . S
Cd78 O86 2.381 . S
Cd78 O87 2.378 . S
O79 Cd80 2.385 . S
O79 C84 1.255 . S
Cd80 O79 2.385 . S
Cd80 O81 2.317 . S
O81 Cd80 2.317 . S
O81 C82 1.232 . S
C82 O81 1.232 . S
C82 O83 1.218 . S
O83 C82 1.218 . S
C84 O77 1.275 . S
C84 O79 1.255 . S
C85 O86 1.258 . S
C85 O87 1.256 . S
O86 Cd78 2.381 . S
O86 C85 1.258 . S
O87 Cd78 2.378 . S
O87 C85 1.256 . S
Tb88 O91 2.407 1_565 S
Tb88 O92 2.565 1_665 S
Tb88 O93 2.379 1_665 S
Tb88 O101 2.367 1_655 S
Tb88 O103 2.346 1_565 S
Tb88 O105 2.463 . S
Tb88 O106 2.555 1_655 S
C89 O93 1.261 . S
C89 O95 1.263 . S
Tb90 O92 2.343 . S
Tb90 O95 2.353 . S
Tb90 O98 2.427 . S
Tb90 O99 2.513 . S
Tb90 O100 2.453 1_545 S
Tb90 O101 2.596 1_545 S
Tb90 O102 2.374 1_455 S
O91 Tb88 2.407 1_545 S
O91 C107 1.245 1_655 S
O92 Tb88 2.565 1_445 S
O92 Tb90 2.343 . S
O92 C107 1.259 . S
O93 Tb88 2.379 1_445 S
O93 C89 1.261 . S
C94 O98 1.275 . S
C94 O99 1.246 . S
O95 C89 1.263 . S
O95 Tb90 2.353 . S
C96 O100 1.245 . S
C96 O101 1.259 . S
C97 O102 1.250 . S
C97 O103 1.263 . S
O98 Tb90 2.427 . S
O98 C94 1.275 . S
O99 Tb90 2.513 . S
O99 C94 1.246 . S
O100 Tb90 2.453 1_565 S
O100 C96 1.245 . S
O101 Tb88 2.367 1_455 S
O101 Tb90 2.596 1_565 S
O101 C96 1.259 . S
O102 Tb90 2.374 1_655 S
O102 C97 1.250 . S
O103 Tb88 2.346 1_545 S
O103 C97 1.263 . S
C104 O105 1.275 . S
C104 O106 1.246 1_655 S
O105 Tb88 2.463 . S
O105 C104 1.275 . S
O106 Tb88 2.555 1_455 S
O106 C104 1.246 1_455 S
C107 O91 1.245 1_455 S
C107 O92 1.259 . S
Tb108 O111 2.453 . S
Tb108 O112 2.596 1_545 S
Tb108 O113 2.374 . S
Tb108 O121 2.343 . S
Tb108 O123 2.353 . S
Tb108 O125 2.427 . S
Tb108 O126 2.513 . S
C109 O113 1.216 1_565 S
C109 O115 1.290 . S
Tb110 O112 2.343 . S
Tb110 O115 2.353 . S
Tb110 O118 2.427 . S
Tb110 O119 2.513 . S
Tb110 O120 2.453 . S
Tb110 O121 2.596 1_565 S
Tb110 O122 2.374 . S
O111 Tb108 2.453 . S
O111 C127 1.245 . S
O112 Tb108 2.596 1_565 S
O112 Tb110 2.343 . S
O112 C127 1.259 1_565 S
O113 Tb108 2.374 . S
O113 C109 1.216 1_545 S
C114 O118 1.275 . S
C114 O119 1.246 . S
O115 C109 1.290 . S
O115 Tb110 2.353 . S
C116 O120 1.245 1_545 S
C116 O121 1.259 . S
C117 O122 1.250 1_545 S
C117 O123 1.263 . S
O118 Tb110 2.427 . S
O118 C114 1.275 . S
O119 Tb110 2.513 . S
O119 C114 1.246 . S
O120 Tb110 2.453 . S
O120 C116 1.245 1_565 S
O121 Tb108 2.343 . S
O121 Tb110 2.596 1_545 S
O121 C116 1.259 . S
O122 Tb110 2.374 . S
O122 C117 1.250 1_565 S
O123 Tb108 2.353 . S
O123 C117 1.263 . S
C124 O125 1.275 . S
C124 O126 1.246 . S
O125 Tb108 2.427 . S
O125 C124 1.275 . S
O126 Tb108 2.513 . S
O126 C124 1.246 . S
C127 O111 1.245 . S
C127 O112 1.259 1_545 S
Tb128 O131 2.453 . S
Tb128 O132 2.596 . S
Tb128 O133 2.374 . S
Tb128 O141 2.343 . S
Tb128 O143 2.353 . S
Tb128 O145 2.427 . S
Tb128 O146 2.513 . S
C129 O133 1.251 . S
C129 O135 1.263 . S
Tb130 O132 2.343 . S
Tb130 O135 2.353 . S
Tb130 O138 2.427 . S
Tb130 O139 2.513 . S
Tb130 O140 2.453 . S
Tb130 O141 2.596 . S
Tb130 O142 2.374 . S
O131 Tb128 2.453 . S
O131 C147 1.245 . S
O132 Tb128 2.596 . S
O132 Tb130 2.343 . S
O132 C147 1.259 . S
O133 Tb128 2.374 . S
O133 C129 1.251 . S
C134 O138 1.275 . S
C134 O139 1.246 . S
O135 C129 1.263 . S
O135 Tb130 2.353 . S
C136 O140 1.245 . S
C136 O141 1.259 . S
C137 O142 1.250 . S
C137 O143 1.263 . S
O138 Tb130 2.427 . S
O138 C134 1.275 . S
O139 Tb130 2.513 . S
O139 C134 1.246 . S
O140 Tb130 2.453 . S
O140 C136 1.245 . S
O141 Tb128 2.343 . S
O141 Tb130 2.596 . S
O141 C136 1.259 . S
O142 Tb130 2.374 . S
O142 C137 1.250 . S
O143 Tb128 2.353 . S
O143 C137 1.263 . S
C144 O145 1.275 . S
C144 O146 1.246 . S
O145 Tb128 2.427 . S
O145 C144 1.275 . S
O146 Tb128 2.513 . S
O146 C144 1.246 . S
C147 O131 1.245 . S
C147 O132 1.259 . S
Tb148 O151 2.453 1_655 S
Tb148 O152 2.596 1_655 S
Tb148 O153 2.374 1_655 S
Tb148 O161 2.343 . S
Tb148 O163 2.353 1_655 S
Tb148 O165 2.427 . S
Tb148 O166 2.513 . S
C149 O153 1.251 . S
C149 O155 1.263 . S
Tb150 O152 2.343 . S
Tb150 O155 2.353 . S
Tb150 O158 2.427 . S
Tb150 O159 2.513 . S
Tb150 O160 2.453 1_455 S
Tb150 O161 2.596 1_455 S
Tb150 O162 2.374 . S
O151 Tb148 2.453 1_455 S
O151 C167 1.245 . S
O152 Tb148 2.596 1_455 S
O152 Tb150 2.343 . S
O152 C167 1.259 . S
O153 Tb148 2.374 1_455 S
O153 C149 1.251 . S
C154 O158 1.275 . S
C154 O159 1.246 . S
O155 C149 1.263 . S
O155 Tb150 2.353 . S
C156 O160 1.245 . S
C156 O161 1.259 . S
C157 O162 1.250 . S
C157 O163 1.263 . S
O158 Tb150 2.427 . S
O158 C154 1.275 . S
O159 Tb150 2.513 . S
O159 C154 1.246 . S
O160 Tb150 2.453 1_655 S
O160 C156 1.245 . S
O161 Tb148 2.343 . S
O161 Tb150 2.596 1_655 S
O161 C156 1.259 . S
O162 Tb150 2.374 . S
O162 C157 1.250 . S
O163 Tb148 2.353 1_455 S
O163 C157 1.263 . S
C164 O165 1.275 . S
C164 O166 1.246 . S
O165 Tb148 2.427 . S
O165 C164 1.275 . S
O166 Tb148 2.513 . S
O166 C164 1.246 . S
C167 O151 1.245 . S
C167 O152 1.259 . S
H168 C180 0.930 . S
H169 C182 0.930 . S
H170 C183 0.930 . S
H171 C187 0.959 . S
H172 C187 0.959 1_565 S
H173 C187 0.952 1_565 S
H174 C188 0.960 . S
H175 C188 0.961 . S
H176 C188 0.959 . S
H177 C191 0.929 . S
H178 C192 0.931 . S
H179 C194 0.930 1_565 S
C180 H168 0.930 . S
C180 C181 1.399 . S
C180 C185 1.399 . S
C181 C180 1.399 . S
C181 C182 1.376 . S
C182 H169 0.930 . S
C182 C181 1.376 . S
C182 C183 1.388 . S
C183 H170 0.930 . S
C183 C182 1.388 . S
C183 C184 1.390 . S
C184 C183 1.390 . S
C184 C185 1.394 . S
C184 C190 1.465 . S
C185 C180 1.399 . S
C185 C184 1.394 . S
C185 C186 1.516 . S
C186 C185 1.516 . S
C186 C187 1.502 . S
C186 C188 1.561 1_545 S
C186 C189 1.526 . S
C187 H171 0.959 . S
C187 H172 0.959 1_545 S
C187 H173 0.952 1_545 S
C187 C186 1.502 . S
C188 H174 0.960 . S
C188 H175 0.961 . S
C188 H176 0.959 . S
C188 C186 1.561 1_565 S
C189 C186 1.526 . S
C189 C190 1.396 . S
C189 C194 1.390 . S
C190 C184 1.465 . S
C190 C189 1.396 . S
C190 C191 1.399 . S
C191 H177 0.929 . S
C191 C190 1.399 . S
C191 C192 1.385 . S
C192 H178 0.931 . S
C192 C191 1.385 . S
C192 C193 1.389 . S
C193 C192 1.389 . S
C193 C194 1.387 . S
C194 H179 0.930 1_545 S
C194 C189 1.390 . S
C194 C193 1.387 . S
H195 C207 0.930 . S
H196 C209 0.930 . S
H197 C210 0.930 . S
H198 C214 0.959 . S
H199 C214 0.959 . S
H200 C214 0.961 . S
H201 C215 0.960 . S
H202 C215 0.961 . S
H203 C215 0.959 . S
H204 C218 0.929 . S
H205 C219 0.931 . S
H206 C221 0.930 . S
C207 H195 0.930 . S
C207 C208 1.399 . S
C207 C212 1.399 . S
C208 C207 1.399 . S
C208 C209 1.376 . S
C209 H196 0.930 . S
C209 C208 1.376 . S
C209 C210 1.388 . S
C210 H197 0.930 . S
C210 C209 1.388 . S
C210 C211 1.390 . S
C211 C210 1.390 . S
C211 C212 1.394 . S
C211 C217 1.465 . S
C212 C207 1.399 . S
C212 C211 1.394 . S
C212 C213 1.516 . S
C213 C212 1.516 . S
C213 C214 1.502 . S
C213 C215 1.561 . S
C213 C216 1.526 . S
C214 H198 0.959 . S
C214 H199 0.959 . S
C214 H200 0.961 . S
C214 C213 1.502 . S
C215 H201 0.960 . S
C215 H202 0.961 . S
C215 H203 0.959 . S
C215 C213 1.561 . S
C216 C213 1.526 . S
C216 C217 1.396 . S
C216 C221 1.390 . S
C217 C211 1.465 . S
C217 C216 1.396 . S
C217 C218 1.399 . S
C218 H204 0.929 . S
C218 C217 1.399 . S
C218 C219 1.385 . S
C219 H205 0.931 . S
C219 C218 1.385 . S
C219 C220 1.389 . S
C220 C219 1.389 . S
C220 C221 1.387 . S
C221 H206 0.930 . S
C221 C216 1.390 . S
C221 C220 1.387 . S
H222 C234 0.930 . S
H223 C236 0.930 . S
H224 C237 0.930 . S
H225 C241 0.959 . S
H226 C241 0.959 . S
H227 C241 0.961 . S
H228 C242 0.960 . S
H229 C242 0.961 . S
H230 C242 0.959 . S
H231 C245 0.929 . S
H232 C246 0.931 . S
H233 C248 0.930 . S
C234 H222 0.930 . S
C234 C235 1.399 . S
C234 C239 1.399 . S
C235 C234 1.399 . S
C235 C236 1.376 . S
C236 H223 0.930 . S
C236 C235 1.376 . S
C236 C237 1.388 . S
C237 H224 0.930 . S
C237 C236 1.388 . S
C237 C238 1.390 . S
C238 C237 1.390 . S
C238 C239 1.394 . S
C238 C244 1.465 . S
C239 C234 1.399 . S
C239 C238 1.394 . S
C239 C240 1.516 . S
C240 C239 1.516 . S
C240 C241 1.502 . S
C240 C242 1.561 . S
C240 C243 1.526 . S
C241 H225 0.959 . S
C241 H226 0.959 . S
C241 H227 0.961 . S
C241 C240 1.502 . S
C242 H228 0.960 . S
C242 H229 0.961 . S
C242 H230 0.959 . S
C242 C240 1.561 . S
C243 C240 1.526 . S
C243 C244 1.396 . S
C243 C248 1.390 . S
C244 C238 1.465 . S
C244 C243 1.396 . S
C244 C245 1.399 . S
C245 H231 0.929 . S
C245 C244 1.399 . S
C245 C246 1.385 . S
C246 H232 0.931 . S
C246 C245 1.385 . S
C246 C247 1.389 . S
C247 C246 1.389 . S
C247 C248 1.387 . S
C248 H233 0.930 . S
C248 C243 1.390 . S
C248 C247 1.387 . S
H249 C261 0.930 . S
H250 C263 0.930 . S
H251 C264 0.930 . S
H252 C268 0.959 . S
H253 C268 0.959 . S
H254 C268 0.961 . S
H255 C269 0.960 . S
H256 C269 0.961 1_655 S
H257 C269 0.959 1_655 S
H258 C272 0.929 . S
H259 C273 0.931 . S
H260 C275 0.930 . S
C261 H249 0.930 . S
C261 C262 1.399 . S
C261 C266 1.399 . S
C262 C261 1.399 . S
C262 C263 1.376 . S
C263 H250 0.930 . S
C263 C262 1.376 . S
C263 C264 1.388 . S
C264 H251 0.930 . S
C264 C263 1.388 . S
C264 C265 1.390 . S
C265 C264 1.390 . S
C265 C266 1.394 . S
C265 C271 1.465 . S
C266 C261 1.399 . S
C266 C265 1.394 . S
C266 C267 1.516 . S
C267 C266 1.516 . S
C267 C268 1.502 . S
C267 C269 1.561 . S
C267 C270 1.526 . S
C268 H252 0.959 . S
C268 H253 0.959 . S
C268 H254 0.961 . S
C268 C267 1.502 . S
C269 H255 0.960 . S
C269 H256 0.961 1_455 S
C269 H257 0.959 1_455 S
C269 C267 1.561 . S
C270 C267 1.526 . S
C270 C271 1.396 . S
C270 C275 1.390 . S
C271 C265 1.465 . S
C271 C270 1.396 . S
C271 C272 1.399 . S
C272 H258 0.929 . S
C272 C271 1.399 . S
C272 C273 1.385 . S
C273 H259 0.931 . S
C273 C272 1.385 . S
C273 C274 1.389 . S
C274 C273 1.389 . S
C274 C275 1.387 . S
C275 H260 0.930 . S
C275 C270 1.390 . S
C275 C274 1.387 . S
H276 C288 0.930 . S
H277 C290 0.930 . S
H278 C291 0.930 1_545 S
H279 C295 0.959 . S
H280 C295 0.959 . S
H281 C295 0.961 . S
H282 C296 0.960 . S
H283 C296 0.961 . S
H284 C296 0.959 1_545 S
H285 C299 0.929 . S
H286 C300 0.931 . S
H287 C302 0.930 . S
C288 H276 0.930 . S
C288 C289 1.399 . S
C288 C293 1.399 . S
C289 C288 1.399 . S
C289 C290 1.376 1_556 S
C290 H277 0.930 . S
C290 C289 1.376 1_554 S
C290 C291 1.388 . S
C291 H278 0.930 1_565 S
C291 C290 1.388 . S
C291 C292 1.390 1_554 S
C292 C291 1.390 1_556 S
C292 C293 1.394 . S
C292 C298 1.465 . S
C293 C288 1.399 . S
C293 C292 1.394 . S
C293 C294 1.516 . S
C294 C293 1.516 . S
C294 C295 1.502 . S
C294 C296 1.561 . S
C294 C297 1.526 . S
C295 H279 0.959 . S
C295 H280 0.959 . S
C295 H281 0.961 . S
C295 C294 1.502 . S
C296 H282 0.960 . S
C296 H283 0.961 . S
C296 H284 0.959 1_565 S
C296 C294 1.561 . S
C297 C294 1.526 . S
C297 C298 1.396 . S
C297 C302 1.390 . S
C298 C292 1.465 . S
C298 C297 1.396 . S
C298 C299 1.399 1_565 S
C299 H285 0.929 . S
C299 C298 1.399 1_545 S
C299 C300 1.385 . S
C300 H286 0.931 . S
C300 C299 1.385 . S
C300 C301 1.389 1_545 S
C301 C300 1.389 1_565 S
C301 C302 1.387 . S
C302 H287 0.930 . S
C302 C297 1.390 . S
C302 C301 1.387 . S
H303 C315 0.930 . S
H304 C317 0.930 . S
H305 C318 0.930 . S
H306 C322 0.959 . S
H307 C322 0.959 . S
H308 C322 0.961 . S
H309 C323 0.960 . S
H310 C323 0.961 . S
H311 C323 0.959 . S
H312 C326 0.929 1_554 S
H313 C327 0.931 . S
H314 C329 0.930 . S
C315 H303 0.930 . S
C315 C316 1.399 1_556 S
C315 C320 1.399 . S
C316 C315 1.399 1_554 S
C316 C317 1.376 . S
C317 H304 0.930 . S
C317 C316 1.376 . S
C317 C318 1.388 . S
C318 H305 0.930 . S
C318 C317 1.388 . S
C318 C319 1.390 1_554 S
C319 C318 1.390 1_556 S
C319 C320 1.394 . S
C319 C325 1.465 . S
C320 C315 1.399 . S
C320 C319 1.394 . S
C320 C321 1.516 . S
C321 C320 1.516 . S
C321 C322 1.502 . S
C321 C323 1.561 . S
C321 C324 1.526 . S
C322 H306 0.959 . S
C322 H307 0.959 . S
C322 H308 0.961 . S
C322 C321 1.502 . S
C323 H309 0.960 . S
C323 H310 0.961 . S
C323 H311 0.959 . S
C323 C321 1.561 . S
C324 C321 1.526 . S
C324 C325 1.396 . S
C324 C329 1.390 . S
C325 C319 1.465 . S
C325 C324 1.396 . S
C325 C326 1.399 . S
C326 H312 0.929 1_556 S
C326 C325 1.399 . S
C326 C327 1.385 . S
C327 H313 0.931 . S
C327 C326 1.385 . S
C327 C328 1.389 . S
C328 C327 1.389 . S
C328 C329 1.387 . S
C329 H314 0.930 . S
C329 C324 1.390 . S
C329 C328 1.387 . S
H330 C342 0.930 . S
H331 C344 0.930 . S
H332 C345 0.930 . S
H333 C349 0.959 1_554 S
H334 C349 0.959 . S
H335 C349 0.961 1_554 S
H336 C350 0.960 . S
H337 C350 0.961 . S
H338 C350 0.959 . S
H339 C353 0.929 . S
H340 C354 0.931 . S
H341 C356 0.930 . S
C342 H330 0.930 . S
C342 C343 1.399 . S
C342 C347 1.399 . S
C343 C342 1.399 . S
C343 C344 1.376 . S
C344 H331 0.930 . S
C344 C343 1.376 . S
C344 C345 1.388 . S
C345 H332 0.930 . S
C345 C344 1.388 . S
C345 C346 1.390 . S
C346 C345 1.390 . S
C346 C347 1.394 . S
C346 C352 1.465 . S
C347 C342 1.399 . S
C347 C346 1.394 . S
C347 C348 1.516 . S
C348 C347 1.516 . S
C348 C349 1.502 . S
C348 C350 1.561 . S
C348 C351 1.526 . S
C349 H333 0.959 1_556 S
C349 H334 0.959 . S
C349 H335 0.961 1_556 S
C349 C348 1.502 . S
C350 H336 0.960 . S
C350 H337 0.961 . S
C350 H338 0.959 . S
C350 C348 1.561 . S
C351 C348 1.526 . S
C351 C352 1.396 . S
C351 C356 1.390 . S
C352 C346 1.465 . S
C352 C351 1.396 . S
C352 C353 1.399 . S
C353 H339 0.929 . S
C353 C352 1.399 . S
C353 C354 1.385 . S
C354 H340 0.931 . S
C354 C353 1.385 . S
C354 C355 1.389 . S
C355 C354 1.389 . S
C355 C356 1.387 . S
C356 H341 0.930 . S
C356 C351 1.390 . S
C356 C355 1.387 . S
H357 C369 0.930 . S
H358 C371 0.930 1_554 S
H359 C372 0.925 1_554 S
H360 C376 0.959 . S
H361 C376 0.959 . S
H362 C376 0.961 . S
H363 C377 0.960 . S
H364 C377 0.961 . S
H365 C377 0.959 . S
H366 C380 0.929 . S
H367 C381 0.931 . S
H368 C383 0.930 . S
C369 H357 0.930 . S
C369 C370 1.399 . S
C369 C374 1.399 . S
C370 C369 1.399 . S
C370 C371 1.376 . S
C371 H358 0.930 1_556 S
C371 C370 1.376 . S
C371 C372 1.388 . S
C372 H359 0.925 1_556 S
C372 C371 1.388 . S
C372 C373 1.390 . S
C373 C372 1.390 . S
C373 C374 1.394 . S
C373 C379 1.465 . S
C374 C369 1.399 . S
C374 C373 1.394 . S
C374 C375 1.516 . S
C375 C374 1.516 . S
C375 C376 1.502 . S
C375 C377 1.561 . S
C375 C378 1.526 . S
C376 H360 0.959 . S
C376 H361 0.959 . S
C376 H362 0.961 . S
C376 C375 1.502 . S
C377 H363 0.960 . S
C377 H364 0.961 . S
C377 H365 0.959 . S
C377 C375 1.561 . S
C378 C375 1.526 . S
C378 C379 1.396 . S
C378 C383 1.390 . S
C379 C373 1.465 . S
C379 C378 1.396 . S
C379 C380 1.399 1_655 S
C380 H366 0.929 . S
C380 C379 1.399 1_455 S
C380 C381 1.385 . S
C381 H367 0.931 . S
C381 C380 1.385 . S
C381 C382 1.389 1_455 S
C382 C381 1.389 1_655 S
C382 C383 1.387 . S
C383 H368 0.930 . S
C383 C378 1.390 . S
C383 C382 1.387 . S
H384 C396 0.930 . S
H385 C398 0.930 . S
H386 C399 0.930 . S
H387 C403 0.959 . S
H388 C403 0.959 . S
H389 C403 0.961 . S
H390 C404 0.960 . S
H391 C404 0.961 . S
H392 C404 0.959 . S
H393 C407 0.929 . S
H394 C408 0.931 . S
H395 C410 0.933 . S
C396 H384 0.930 . S
C396 C397 1.399 . S
C396 C401 1.399 . S
C397 C396 1.399 . S
C397 C398 1.376 . S
C398 H385 0.930 . S
C398 C397 1.376 . S
C398 C399 1.388 . S
C399 H386 0.930 . S
C399 C398 1.388 . S
C399 C400 1.390 . S
C400 C399 1.390 . S
C400 C401 1.394 . S
C400 C406 1.465 . S
C401 C396 1.399 . S
C401 C400 1.394 . S
C401 C402 1.516 . S
C402 C401 1.516 . S
C402 C403 1.502 . S
C402 C404 1.561 1_455 S
C402 C405 1.526 . S
C403 H387 0.959 . S
C403 H388 0.959 . S
C403 H389 0.961 . S
C403 C402 1.502 . S
C404 H390 0.960 . S
C404 H391 0.961 . S
C404 H392 0.959 . S
C404 C402 1.561 1_655 S
C405 C402 1.526 . S
C405 C406 1.396 . S
C405 C410 1.390 . S
C406 C400 1.465 . S
C406 C405 1.396 . S
C406 C407 1.399 . S
C407 H393 0.929 . S
C407 C406 1.399 . S
C407 C408 1.385 . S
C408 H394 0.931 . S
C408 C407 1.385 . S
C408 C409 1.389 . S
C409 C408 1.389 . S
C409 C410 1.387 . S
C410 H395 0.933 . S
C410 C405 1.390 . S
C410 C409 1.387 . S
H411 C423 0.930 . S
H412 C425 0.930 . S
H413 C426 0.930 . S
H414 C430 0.959 1_545 S
H415 C430 0.959 . S
H416 C430 0.961 . S
H417 C431 0.960 . S
H418 C431 0.961 . S
H419 C431 0.959 . S
H420 C434 0.929 . S
H421 C435 0.931 . S
H422 C437 0.930 1_565 S
C423 H411 0.930 . S
C423 C424 1.399 . S
C423 C428 1.399 . S
C424 C423 1.399 . S
C424 C425 1.376 . S
C425 H412 0.930 . S
C425 C424 1.376 . S
C425 C426 1.388 . S
C426 H413 0.930 . S
C426 C425 1.388 . S
C426 C427 1.390 . S
C427 C426 1.390 . S
C427 C428 1.394 . S
C427 C433 1.465 . S
C428 C423 1.399 . S
C428 C427 1.394 . S
C428 C429 1.516 . S
C429 C428 1.516 . S
C429 C430 1.502 1_545 S
C429 C431 1.561 1_545 S
C429 C432 1.526 . S
C430 H414 0.959 1_565 S
C430 H415 0.959 . S
C430 H416 0.961 . S
C430 C429 1.502 1_565 S
C431 H417 0.960 . S
C431 H418 0.961 . S
C431 H419 0.959 . S
C431 C429 1.561 1_565 S
C432 C429 1.526 . S
C432 C433 1.396 . S
C432 C437 1.390 . S
C433 C427 1.465 . S
C433 C432 1.396 . S
C433 C434 1.399 . S
C434 H420 0.929 . S
C434 C433 1.399 . S
C434 C435 1.385 . S
C435 H421 0.931 . S
C435 C434 1.385 . S
C435 C436 1.389 . S
C436 C435 1.389 . S
C436 C437 1.387 . S
C437 H422 0.930 1_545 S
C437 C432 1.390 . S
C437 C436 1.387 . S
H438 C450 0.930 . S
H439 C452 0.930 . S
H440 C453 0.930 . S
H441 C457 0.959 . S
H442 C457 0.959 . S
H443 C457 0.961 . S
H444 C458 0.960 . S
H445 C458 0.961 . S
H446 C458 0.959 . S
H447 C461 0.929 . S
H448 C462 0.931 . S
H449 C464 0.930 . S
C450 H438 0.930 . S
C450 C451 1.399 . S
C450 C455 1.399 . S
C451 C450 1.399 . S
C451 C452 1.376 . S
C452 H439 0.930 . S
C452 C451 1.376 . S
C452 C453 1.388 . S
C453 H440 0.930 . S
C453 C452 1.388 . S
C453 C454 1.390 . S
C454 C453 1.390 . S
C454 C455 1.394 . S
C454 C460 1.465 . S
C455 C450 1.399 . S
C455 C454 1.394 . S
C455 C456 1.516 . S
C456 C455 1.516 . S
C456 C457 1.502 . S
C456 C458 1.561 . S
C456 C459 1.526 . S
C457 H441 0.959 . S
C457 H442 0.959 . S
C457 H443 0.961 . S
C457 C456 1.502 . S
C458 H444 0.960 . S
C458 H445 0.961 . S
C458 H446 0.959 . S
C458 C456 1.561 . S
C459 C456 1.526 . S
C459 C460 1.396 . S
C459 C464 1.390 . S
C460 C454 1.465 . S
C460 C459 1.396 . S
C460 C461 1.399 . S
C461 H447 0.929 . S
C461 C460 1.399 . S
C461 C462 1.385 . S
C462 H448 0.931 . S
C462 C461 1.385 . S
C462 C463 1.389 . S
C463 C462 1.389 . S
C463 C464 1.387 . S
C464 H449 0.930 . S
C464 C459 1.390 . S
C464 C463 1.387 . S
H465 C477 0.930 . S
H466 C479 0.930 . S
H467 C480 0.930 . S
H468 C484 0.959 . S
H469 C484 0.959 . S
H470 C484 0.961 . S
H471 C485 0.960 . S
H472 C485 0.961 . S
H473 C485 0.959 . S
H474 C488 0.929 . S
H475 C489 0.931 . S
H476 C491 0.930 . S
C477 H465 0.930 . S
C477 C478 1.399 . S
C477 C482 1.399 . S
C478 C477 1.399 . S
C478 C479 1.376 . S
C479 H466 0.930 . S
C479 C478 1.376 . S
C479 C480 1.388 . S
C480 H467 0.930 . S
C480 C479 1.388 . S
C480 C481 1.390 . S
C481 C480 1.390 . S
C481 C482 1.394 . S
C481 C487 1.465 . S
C482 C477 1.399 . S
C482 C481 1.394 . S
C482 C483 1.516 . S
C483 C482 1.516 . S
C483 C484 1.502 . S
C483 C485 1.561 . S
C483 C486 1.526 . S
C484 H468 0.959 . S
C484 H469 0.959 . S
C484 H470 0.961 . S
C484 C483 1.502 . S
C485 H471 0.960 . S
C485 H472 0.961 . S
C485 H473 0.959 . S
C485 C483 1.561 . S
C486 C483 1.526 . S
C486 C487 1.396 . S
C486 C491 1.390 . S
C487 C481 1.465 . S
C487 C486 1.396 . S
C487 C488 1.399 . S
C488 H474 0.929 . S
C488 C487 1.399 . S
C488 C489 1.385 . S
C489 H475 0.931 . S
C489 C488 1.385 . S
C489 C490 1.389 . S
C490 C489 1.389 . S
C490 C491 1.387 . S
C491 H476 0.930 . S
C491 C486 1.390 . S
C491 C490 1.387 . S
H492 C504 0.930 . S
H493 C506 0.930 1_554 S
H494 C507 0.930 1_554 S
H495 C511 0.964 . S
H496 C511 0.959 . S
H497 C511 0.961 . S
H498 C512 0.960 . S
H499 C512 0.961 . S
H500 C512 0.959 . S
H501 C515 0.929 . S
H502 C516 0.931 . S
H503 C518 0.930 . S
C504 H492 0.930 . S
C504 C505 1.399 . S
C504 C509 1.399 . S
C505 C504 1.399 . S
C505 C506 1.376 . S
C506 H493 0.930 1_556 S
C506 C505 1.376 . S
C506 C507 1.388 . S
C507 H494 0.930 1_556 S
C507 C506 1.388 . S
C507 C508 1.390 . S
C508 C507 1.390 . S
C508 C509 1.394 . S
C508 C514 1.465 . S
C509 C504 1.399 . S
C509 C508 1.394 . S
C509 C510 1.516 . S
C510 C509 1.516 . S
C510 C511 1.502 . S
C510 C512 1.561 . S
C510 C513 1.526 . S
C511 H495 0.964 . S
C511 H496 0.959 . S
C511 H497 0.961 . S
C511 C510 1.502 . S
C512 H498 0.960 . S
C512 H499 0.961 . S
C512 H500 0.959 . S
C512 C510 1.561 . S
C513 C510 1.526 . S
C513 C514 1.396 . S
C513 C518 1.390 . S
C514 C508 1.465 . S
C514 C513 1.396 . S
C514 C515 1.399 . S
C515 H501 0.929 . S
C515 C514 1.399 . S
C515 C516 1.385 . S
C516 H502 0.931 . S
C516 C515 1.385 . S
C516 C517 1.389 . S
C517 C516 1.389 . S
C517 C518 1.387 . S
C518 H503 0.930 . S
C518 C513 1.390 . S
C518 C517 1.387 . S
H519 C531 0.929 1_554 S
H520 C533 0.930 . S
H521 C534 0.930 . S
H522 C538 0.933 1_565 S
H523 C538 0.981 . S
H524 C538 0.963 . S
H525 C539 0.960 1_554 S
H526 C539 0.961 . S
H527 C539 0.959 . S
H528 C542 0.929 . S
H529 C543 0.931 . S
H530 C545 0.930 . S
C531 H519 0.929 1_556 S
C531 C532 1.399 . S
C531 C536 1.399 . S
C532 C531 1.399 . S
C532 C533 1.376 . S
C533 H520 0.930 . S
C533 C532 1.376 . S
C533 C534 1.388 . S
C534 H521 0.930 . S
C534 C533 1.388 . S
C534 C535 1.390 . S
C535 C534 1.390 . S
C535 C536 1.394 . S
C535 C541 1.465 . S
C536 C531 1.399 . S
C536 C535 1.394 . S
C536 C537 1.516 1_565 S
C537 C536 1.516 1_545 S
C537 C538 1.505 1_556 S
C537 C539 1.561 . S
C537 C540 1.526 1_545 S
C538 H522 0.933 1_545 S
C538 H523 0.981 . S
C538 H524 0.963 . S
C538 C537 1.505 1_554 S
C539 H525 0.960 1_556 S
C539 H526 0.961 . S
C539 H527 0.959 . S
C539 C537 1.561 . S
C540 C537 1.526 1_565 S
C540 C541 1.396 . S
C540 C545 1.390 1_565 S
C541 C535 1.465 . S
C541 C540 1.396 . S
C541 C542 1.399 . S
C542 H528 0.929 . S
C542 C541 1.399 . S
C542 C543 1.385 . S
C543 H529 0.931 . S
C543 C542 1.385 . S
C543 C544 1.389 . S
C544 C543 1.389 . S
C544 C545 1.387 1_565 S
C545 H530 0.930 . S
C545 C540 1.390 1_545 S
C545 C544 1.387 1_545 S
H546 C558 0.930 . S
H547 C560 0.930 . S
H548 C561 0.930 . S
H549 C565 0.959 . S
H550 C565 0.959 . S
H551 C565 0.961 . S
H552 C566 0.960 . S
H553 C566 0.961 . S
H554 C566 0.959 1_556 S
H555 C569 0.929 . S
H556 C570 0.931 . S
H557 C572 0.930 . S
C558 H546 0.930 . S
C558 C559 1.399 1_554 S
C558 C563 1.399 1_554 S
C559 C558 1.399 1_556 S
C559 C560 1.376 . S
C560 H547 0.930 . S
C560 C559 1.376 . S
C560 C561 1.388 . S
C561 H548 0.930 . S
C561 C560 1.388 . S
C561 C562 1.390 . S
C562 C561 1.390 . S
C562 C563 1.394 . S
C562 C568 1.465 . S
C563 C558 1.399 1_556 S
C563 C562 1.394 . S
C563 C564 1.516 . S
C564 C563 1.516 . S
C564 C565 1.502 1_556 S
C564 C566 1.561 1_556 S
C564 C567 1.526 . S
C565 H549 0.959 . S
C565 H550 0.959 . S
C565 H551 0.961 . S
C565 C564 1.502 1_554 S
C566 H552 0.960 . S
C566 H553 0.961 . S
C566 H554 0.959 1_554 S
C566 C564 1.561 1_554 S
C567 C564 1.526 . S
C567 C568 1.396 . S
C567 C572 1.390 . S
C568 C562 1.465 . S
C568 C567 1.396 . S
C568 C569 1.399 . S
C569 H555 0.929 . S
C569 C568 1.399 . S
C569 C570 1.385 . S
C570 H556 0.931 . S
C570 C569 1.385 . S
C570 C571 1.389 . S
C571 C570 1.389 . S
C571 C572 1.387 . S
C572 H557 0.930 . S
C572 C567 1.390 . S
C572 C571 1.387 . S
H573 C585 0.930 . S
H574 C587 0.930 . S
H575 C588 0.930 . S
H576 C592 0.964 . S
H577 C592 0.959 . S
H578 C592 0.961 . S
H579 C593 0.960 . S
H580 C593 0.961 . S
H581 C593 0.959 . S
H582 C596 0.929 . S
H583 C597 0.931 . S
H584 C599 0.930 . S
C585 H573 0.930 . S
C585 C586 1.399 . S
C585 C590 1.399 . S
C586 C585 1.399 . S
C586 C587 1.376 . S
C587 H574 0.930 . S
C587 C586 1.376 . S
C587 C588 1.388 . S
C588 H575 0.930 . S
C588 C587 1.388 . S
C588 C589 1.390 . S
C589 C588 1.390 . S
C589 C590 1.394 . S
C589 C595 1.465 . S
C590 C585 1.399 . S
C590 C589 1.394 . S
C590 C591 1.516 . S
C591 C590 1.516 . S
C591 C592 1.502 . S
C591 C593 1.561 . S
C591 C594 1.526 . S
C592 H576 0.964 . S
C592 H577 0.959 . S
C592 H578 0.961 . S
C592 C591 1.502 . S
C593 H579 0.960 . S
C593 H580 0.961 . S
C593 H581 0.959 . S
C593 C591 1.561 . S
C594 C591 1.526 . S
C594 C595 1.396 . S
C594 C599 1.390 . S
C595 C589 1.465 . S
C595 C594 1.396 . S
C595 C596 1.399 . S
C596 H582 0.929 . S
C596 C595 1.399 . S
C596 C597 1.385 . S
C597 H583 0.931 . S
C597 C596 1.385 . S
C597 C598 1.389 . S
C598 C597 1.389 . S
C598 C599 1.387 . S
C599 H584 0.930 . S
C599 C594 1.390 . S
C599 C598 1.387 . S
H600 C612 0.930 . S
H601 C614 0.930 . S
H602 C615 0.930 . S
H603 C619 0.959 . S
H604 C619 0.959 . S
H605 C619 0.961 . S
H606 C620 0.960 . S
H607 C620 0.961 . S
H608 C620 0.959 . S
H609 C623 0.929 . S
H610 C624 0.939 . S
H611 C626 0.930 . S
C612 H600 0.930 . S
C612 C613 1.399 . S
C612 C617 1.399 . S
C613 C612 1.399 . S
C613 C614 1.376 . S
C614 H601 0.930 . S
C614 C613 1.376 . S
C614 C615 1.388 . S
C615 H602 0.930 . S
C615 C614 1.388 . S
C615 C616 1.390 . S
C616 C615 1.390 . S
C616 C617 1.394 . S
C616 C622 1.465 . S
C617 C612 1.399 . S
C617 C616 1.394 . S
C617 C618 1.516 . S
C618 C617 1.516 . S
C618 C619 1.502 . S
C618 C620 1.561 . S
C618 C621 1.526 . S
C619 H603 0.959 . S
C619 H604 0.959 . S
C619 H605 0.961 . S
C619 C618 1.502 . S
C620 H606 0.960 . S
C620 H607 0.961 . S
C620 H608 0.959 . S
C620 C618 1.561 . S
C621 C618 1.526 . S
C621 C622 1.396 . S
C621 C626 1.390 1_554 S
C622 C616 1.465 . S
C622 C621 1.396 . S
C622 C623 1.399 1_554 S
C623 H609 0.929 . S
C623 C622 1.399 1_556 S
C623 C624 1.385 . S
C624 H610 0.939 . S
C624 C623 1.385 . S
C624 C625 1.389 . S
C625 C624 1.389 . S
C625 C626 1.387 . S
C626 H611 0.930 . S
C626 C621 1.390 1_556 S
C626 C625 1.387 . S
H627 C639 0.930 . S
H628 C641 0.930 . S
H629 C642 0.930 1_565 S
H630 C646 0.959 . S
H631 C646 0.959 . S
H632 C646 0.961 . S
H633 C647 0.960 . S
H634 C647 0.961 1_556 S
H635 C647 0.959 . S
H636 C650 0.930 . S
H637 C651 0.931 . S
H638 C653 0.930 . S
C639 H627 0.930 . S
C639 C640 1.399 . S
C639 C644 1.399 . S
C640 C639 1.399 . S
C640 C641 1.376 . S
C641 H628 0.930 . S
C641 C640 1.376 . S
C641 C642 1.388 . S
C642 H629 0.930 1_545 S
C642 C641 1.388 . S
C642 C643 1.390 . S
C643 C642 1.390 . S
C643 C644 1.394 . S
C643 C649 1.465 . S
C644 C639 1.399 . S
C644 C643 1.394 . S
C644 C645 1.505 1_554 S
C645 C644 1.505 1_556 S
C645 C646 1.514 . S
C645 C647 1.556 1_556 S
C645 C648 1.528 . S
C646 H630 0.959 . S
C646 H631 0.959 . S
C646 H632 0.961 . S
C646 C645 1.514 . S
C647 H633 0.960 . S
C647 H634 0.961 1_554 S
C647 H635 0.959 . S
C647 C645 1.556 1_554 S
C648 C645 1.528 . S
C648 C649 1.396 1_556 S
C648 C653 1.390 . S
C649 C643 1.465 . S
C649 C648 1.396 1_554 S
C649 C650 1.398 1_545 S
C650 H636 0.930 . S
C650 C649 1.398 1_565 S
C650 C651 1.385 1_554 S
C651 H637 0.931 . S
C651 C650 1.385 1_556 S
C651 C652 1.389 1_565 S
C652 C651 1.389 1_545 S
C652 C653 1.387 . S
C653 H638 0.930 . S
C653 C648 1.390 . S
C653 C652 1.387 . S
H654 C666 0.930 . S
H655 C668 0.930 . S
H656 C669 0.930 . S
H657 C673 0.959 1_554 S
H658 C673 0.959 . S
H659 C673 0.961 . S
H660 C674 0.960 . S
H661 C674 0.961 . S
H662 C674 0.959 . S
H663 C677 0.929 . S
H664 C678 0.931 . S
H665 C680 0.930 . S
C666 H654 0.930 . S
C666 C667 1.399 . S
C666 C671 1.399 . S
C667 C666 1.399 . S
C667 C668 1.376 . S
C668 H655 0.930 . S
C668 C667 1.376 . S
C668 C669 1.388 . S
C669 H656 0.930 . S
C669 C668 1.388 . S
C669 C670 1.390 . S
C670 C669 1.390 . S
C670 C671 1.394 . S
C670 C676 1.465 . S
C671 C666 1.399 . S
C671 C670 1.394 . S
C671 C672 1.516 1_554 S
C672 C671 1.516 1_556 S
C672 C673 1.502 . S
C672 C674 1.561 . S
C672 C675 1.526 . S
C673 H657 0.959 1_556 S
C673 H658 0.959 . S
C673 H659 0.961 . S
C673 C672 1.502 . S
C674 H660 0.960 . S
C674 H661 0.961 . S
C674 H662 0.959 . S
C674 C672 1.561 . S
C675 C672 1.526 . S
C675 C676 1.396 1_556 S
C675 C680 1.390 . S
C676 C670 1.465 . S
C676 C675 1.396 1_554 S
C676 C677 1.399 . S
C677 H663 0.929 . S
C677 C676 1.399 . S
C677 C678 1.385 1_554 S
C678 H664 0.931 . S
C678 C677 1.385 1_556 S
C678 C679 1.389 . S
C679 C678 1.389 . S
C679 C680 1.387 . S
C680 H665 0.930 . S
C680 C675 1.390 . S
C680 C679 1.387 . S
H681 C693 0.930 . S
H682 C695 0.930 . S
H683 C696 0.930 . S
H684 C700 0.959 . S
H685 C700 0.959 . S
H686 C700 0.961 . S
H687 C701 0.960 . S
H688 C701 0.961 1_556 S
H689 C701 0.959 . S
H690 C704 0.929 . S
H691 C705 0.931 . S
H692 C707 0.930 . S
C693 H681 0.930 . S
C693 C694 1.399 . S
C693 C698 1.399 . S
C694 C693 1.399 . S
C694 C695 1.376 . S
C695 H682 0.930 . S
C695 C694 1.376 . S
C695 C696 1.388 . S
C696 H683 0.930 . S
C696 C695 1.388 . S
C696 C697 1.390 . S
C697 C696 1.390 . S
C697 C698 1.394 . S
C697 C703 1.465 . S
C698 C693 1.399 . S
C698 C697 1.394 . S
C698 C699 1.516 1_554 S
C699 C698 1.516 1_556 S
C699 C700 1.502 . S
C699 C701 1.561 1_556 S
C699 C702 1.526 . S
C700 H684 0.959 . S
C700 H685 0.959 . S
C700 H686 0.961 . S
C700 C699 1.502 . S
C701 H687 0.960 . S
C701 H688 0.961 1_554 S
C701 H689 0.959 . S
C701 C699 1.561 1_554 S
C702 C699 1.526 . S
C702 C703 1.396 1_556 S
C702 C707 1.390 . S
C703 C697 1.465 . S
C703 C702 1.396 1_554 S
C703 C704 1.399 . S
C704 H690 0.929 . S
C704 C703 1.399 . S
C704 C705 1.385 1_554 S
C705 H691 0.931 . S
C705 C704 1.385 1_556 S
C705 C706 1.389 . S
C706 C705 1.389 . S
C706 C707 1.387 . S
C707 H692 0.930 . S
C707 C702 1.390 . S
C707 C706 1.387 . S
H708 C720 0.930 . S
H709 C722 0.930 . S
H710 C723 0.930 . S
H711 C727 0.959 . S
H712 C727 0.959 . S
H713 C727 0.961 . S
H714 C728 0.960 . S
H715 C728 0.961 . S
H716 C728 0.959 . S
H717 C731 0.929 . S
H718 C732 0.931 . S
H719 C734 0.930 1_455 S
C720 H708 0.930 . S
C720 C721 1.399 . S
C720 C725 1.399 . S
C721 C720 1.399 . S
C721 C722 1.376 . S
C722 H709 0.930 . S
C722 C721 1.376 . S
C722 C723 1.388 . S
C723 H710 0.930 . S
C723 C722 1.388 . S
C723 C724 1.390 . S
C724 C723 1.390 . S
C724 C725 1.394 . S
C724 C730 1.465 . S
C725 C720 1.399 . S
C725 C724 1.394 . S
C725 C726 1.516 . S
C726 C725 1.516 . S
C726 C727 1.502 1_655 S
C726 C728 1.561 . S
C726 C729 1.526 . S
C727 H711 0.959 . S
C727 H712 0.959 . S
C727 H713 0.961 . S
C727 C726 1.502 1_455 S
C728 H714 0.960 . S
C728 H715 0.961 . S
C728 H716 0.959 . S
C728 C726 1.561 . S
C729 C726 1.526 . S
C729 C730 1.396 . S
C729 C734 1.390 . S
C730 C724 1.465 . S
C730 C729 1.396 . S
C730 C731 1.399 . S
C731 H717 0.929 . S
C731 C730 1.399 . S
C731 C732 1.385 . S
C732 H718 0.931 . S
C732 C731 1.385 . S
C732 C733 1.389 . S
C733 C732 1.389 . S
C733 C734 1.387 . S
C734 H719 0.930 1_655 S
C734 C729 1.390 . S
C734 C733 1.387 . S
H735 C747 0.930 . S
H736 C749 0.930 1_545 S
H737 C750 0.930 . S
H738 C754 0.959 . S
H739 C754 0.959 . S
H740 C754 0.961 . S
H741 C755 0.960 . S
H742 C755 0.961 . S
H743 C755 0.959 . S
H744 C758 0.929 . S
H745 C759 0.931 . S
H746 C761 0.930 . S
C747 H735 0.930 . S
C747 C748 1.399 . S
C747 C752 1.399 . S
C748 C747 1.399 . S
C748 C749 1.376 . S
C749 H736 0.930 1_565 S
C749 C748 1.376 . S
C749 C750 1.388 1_565 S
C750 H737 0.930 . S
C750 C749 1.388 1_545 S
C750 C751 1.390 1_545 S
C751 C750 1.390 1_565 S
C751 C752 1.394 . S
C751 C757 1.465 . S
C752 C747 1.399 . S
C752 C751 1.394 . S
C752 C753 1.516 . S
C753 C752 1.516 . S
C753 C754 1.502 . S
C753 C755 1.561 . S
C753 C756 1.526 . S
C754 H738 0.959 . S
C754 H739 0.959 . S
C754 H740 0.961 . S
C754 C753 1.502 . S
C755 H741 0.960 . S
C755 H742 0.961 . S
C755 H743 0.959 . S
C755 C753 1.561 . S
C756 C753 1.526 . S
C756 C757 1.396 . S
C756 C761 1.390 . S
C757 C751 1.465 . S
C757 C756 1.396 . S
C757 C758 1.399 1_565 S
C758 H744 0.929 . S
C758 C757 1.399 1_545 S
C758 C759 1.385 . S
C759 H745 0.931 . S
C759 C758 1.385 . S
C759 C760 1.389 1_545 S
C760 C759 1.389 1_565 S
C760 C761 1.387 . S
C761 H746 0.930 . S
C761 C756 1.390 . S
C761 C760 1.387 . S
H762 C774 0.930 . S
H763 C776 0.930 . S
H764 C777 0.930 . S
H765 C781 0.959 . S
H766 C781 0.959 . S
H767 C781 0.961 . S
H768 C782 0.960 . S
H769 C782 0.961 . S
H770 C782 0.959 . S
H771 C785 0.929 . S
H772 C786 0.931 . S
H773 C788 0.930 . S
C774 H762 0.930 . S
C774 C775 1.399 . S
C774 C779 1.399 . S
C775 C774 1.399 . S
C775 C776 1.376 . S
C776 H763 0.930 . S
C776 C775 1.376 . S
C776 C777 1.388 . S
C777 H764 0.930 . S
C777 C776 1.388 . S
C777 C778 1.390 . S
C778 C777 1.390 . S
C778 C779 1.394 . S
C778 C784 1.465 . S
C779 C774 1.399 . S
C779 C778 1.394 . S
C779 C780 1.516 . S
C780 C779 1.516 . S
C780 C781 1.502 . S
C780 C782 1.561 . S
C780 C783 1.526 . S
C781 H765 0.959 . S
C781 H766 0.959 . S
C781 H767 0.961 . S
C781 C780 1.502 . S
C782 H768 0.960 . S
C782 H769 0.961 . S
C782 H770 0.959 . S
C782 C780 1.561 . S
C783 C780 1.526 . S
C783 C784 1.396 . S
C783 C788 1.390 . S
C784 C778 1.465 . S
C784 C783 1.396 . S
C784 C785 1.399 . S
C785 H771 0.929 . S
C785 C784 1.399 . S
C785 C786 1.385 . S
C786 H772 0.931 . S
C786 C785 1.385 . S
C786 C787 1.389 . S
C787 C786 1.389 . S
C787 C788 1.387 . S
C788 H773 0.930 . S
C788 C783 1.390 . S
C788 C787 1.387 . S
H789 C801 0.930 . S
H790 C803 0.930 . S
H791 C804 0.930 . S
H792 C808 0.959 . S
H793 C808 0.959 . S
H794 C808 0.961 . S
H795 C809 0.960 . S
H796 C809 0.961 . S
H797 C809 0.959 . S
H798 C812 0.929 . S
H799 C813 0.931 . S
H800 C815 0.930 . S
C801 H789 0.930 . S
C801 C802 1.399 . S
C801 C806 1.399 . S
C802 C801 1.399 . S
C802 C803 1.376 . S
C803 H790 0.930 . S
C803 C802 1.376 . S
C803 C804 1.388 . S
C804 H791 0.930 . S
C804 C803 1.388 . S
C804 C805 1.390 . S
C805 C804 1.390 . S
C805 C806 1.394 . S
C805 C811 1.465 . S
C806 C801 1.399 . S
C806 C805 1.394 . S
C806 C807 1.516 . S
C807 C806 1.516 . S
C807 C808 1.502 . S
C807 C809 1.561 . S
C807 C810 1.526 . S
C808 H792 0.959 . S
C808 H793 0.959 . S
C808 H794 0.961 . S
C808 C807 1.502 . S
C809 H795 0.960 . S
C809 H796 0.961 . S
C809 H797 0.959 . S
C809 C807 1.561 . S
C810 C807 1.526 . S
C810 C811 1.396 . S
C810 C815 1.390 . S
C811 C805 1.465 . S
C811 C810 1.396 . S
C811 C812 1.399 . S
C812 H798 0.929 . S
C812 C811 1.399 . S
C812 C813 1.385 . S
C813 H799 0.931 . S
C813 C812 1.385 . S
C813 C814 1.389 . S
C814 C813 1.389 . S
C814 C815 1.387 . S
C815 H800 0.930 . S
C815 C810 1.390 . S
C815 C814 1.387 . S
C181 C74 1.558 . S
C193 C89 1.579 . S
C220 C124 1.650 . S
C208 C85 1.650 . S
C247 C129 1.247 . S
C235 C52 1.284 . S
C274 C149 1.487 . S
C262 C63 1.475 . S
C301 C97 1.562 1_565 S
C289 C30 1.512 1_556 S
C316 C41 1.538 . S
C328 C114 1.645 . S
C343 C8 1.216 1_556 S
C355 C137 1.259 . S
C370 C19 1.395 . S
C382 C157 1.480 1_655 S
C409 C107 1.310 . S
C397 C62 1.376 . S
C436 C116 1.071 . S
C424 C73 1.054 . S
C463 C147 1.406 . S
C451 C84 1.471 . S
C478 C51 1.033 . S
C490 C167 1.017 . S
C505 C18 1.320 . S
C517 C96 1.296 1_655 S
C544 C127 1.066 1_565 S
C532 C29 1.029 . S
C571 C136 1.473 . S
C559 C40 1.344 1_556 S
C586 C7 1.065 . S
C598 C156 1.057 . S
C613 C60 1.437 . S
C625 C94 1.524 . S
C640 C71 1.323 . S
C652 C117 1.496 . S
C679 C134 1.615 . S
C667 C82 1.431 . S
C706 C154 1.559 . S
C694 C49 1.348 . S
C721 C16 1.279 . S
C733 C104 1.524 . S
C760 C109 1.506 . S
C748 C27 1.094 . S
C787 C144 1.654 . S
C775 C38 1.306 . S
C802 C5 1.301 . S
C814 C164 1.593 . S
