# Generated by pormake.
# Topology pyr, (3,6)-cn, num edge types: 1
# Building blocks:
#     Node 0, Type 0, BuildingBlock: WUSLED_clean_sbu_0, # of connection points: 3
#     Node 1, Type 0, BuildingBlock: WUSLED_clean_sbu_0, # of connection points: 3
#     Node 2, Type 0, BuildingBlock: WUSLED_clean_sbu_0, # of connection points: 3
#     Node 3, Type 0, BuildingBlock: WUSLED_clean_sbu_0, # of connection points: 3
#     Node 4, Type 0, BuildingBlock: WUSLED_clean_sbu_0, # of connection points: 3
#     Node 5, Type 0, BuildingBlock: WUSLED_clean_sbu_0, # of connection points: 3
#     Node 6, Type 0, BuildingBlock: WUSLED_clean_sbu_0, # of connection points: 3
#     Node 7, Type 0, BuildingBlock: WUSLED_clean_sbu_0, # of connection points: 3
#     Node 8, Type 1, BuildingBlock: MIFKUJ_clean_sbu_0, # of connection points: 6
#     Node 9, Type 1, BuildingBlock: MIFKUJ_clean_sbu_0, # of connection points: 6
#     Node 10, Type 1, BuildingBlock: MIFKUJ_clean_sbu_0, # of connection points: 6
#     Node 11, Type 1, BuildingBlock: MIFKUJ_clean_sbu_0, # of connection points: 6
#     Edge 12, Type (0, 1), BuildingBlock: CIFDUS_clean_linker_0, # of connection points: 2
#     Edge 13, Type (0, 1), BuildingBlock: CIFDUS_clean_linker_0, # of connection points: 2
#     Edge 14, Type (0, 1), BuildingBlock: CIFDUS_clean_linker_0, # of connection points: 2
#     Edge 15, Type (0, 1), BuildingBlock: CIFDUS_clean_linker_0, # of connection points: 2
#     Edge 16, Type (0, 1), BuildingBlock: CIFDUS_clean_linker_0, # of connection points: 2
#     Edge 17, Type (0, 1), BuildingBlock: CIFDUS_clean_linker_0, # of connection points: 2
#     Edge 18, Type (0, 1), BuildingBlock: CIFDUS_clean_linker_0, # of connection points: 2
#     Edge 19, Type (0, 1), BuildingBlock: CIFDUS_clean_linker_0, # of connection points: 2
#     Edge 20, Type (0, 1), BuildingBlock: CIFDUS_clean_linker_0, # of connection points: 2
#     Edge 21, Type (0, 1), BuildingBlock: CIFDUS_clean_linker_0, # of connection points: 2
#     Edge 22, Type (0, 1), BuildingBlock: CIFDUS_clean_linker_0, # of connection points: 2
#     Edge 23, Type (0, 1), BuildingBlock: CIFDUS_clean_linker_0, # of connection points: 2
#     Edge 24, Type (0, 1), BuildingBlock: CIFDUS_clean_linker_0, # of connection points: 2
#     Edge 25, Type (0, 1), BuildingBlock: CIFDUS_clean_linker_0, # of connection points: 2
#     Edge 26, Type (0, 1), BuildingBlock: CIFDUS_clean_linker_0, # of connection points: 2
#     Edge 27, Type (0, 1), BuildingBlock: CIFDUS_clean_linker_0, # of connection points: 2
#     Edge 28, Type (0, 1), BuildingBlock: CIFDUS_clean_linker_0, # of connection points: 2
#     Edge 29, Type (0, 1), BuildingBlock: CIFDUS_clean_linker_0, # of connection points: 2
#     Edge 30, Type (0, 1), BuildingBlock: CIFDUS_clean_linker_0, # of connection points: 2
#     Edge 31, Type (0, 1), BuildingBlock: CIFDUS_clean_linker_0, # of connection points: 2
#     Edge 32, Type (0, 1), BuildingBlock: CIFDUS_clean_linker_0, # of connection points: 2
#     Edge 33, Type (0, 1), BuildingBlock: CIFDUS_clean_linker_0, # of connection points: 2
#     Edge 34, Type (0, 1), BuildingBlock: CIFDUS_clean_linker_0, # of connection points: 2
#     Edge 35, Type (0, 1), BuildingBlock: CIFDUS_clean_linker_0, # of connection points: 2
# Relax obj value: 0.026
# Max RMSD: 0.082
# Mean RMSD: 0.046
data_MOF--net-pyr--node1-WUSLED_clean_sbu_0--node2-MIFKUJ_clean_sbu_0--edge1-CIFDUS_clean_linker_0
_symmetry_space_group_name_H-M    P1
_symmetry_Int_Tables_number       1
_symmetry_cell_setting            triclinic
loop_
_symmetry_equiv_pos_as_xyz
'x, y, z'
_cell_length_a     45.839439
_cell_length_b     41.628261
_cell_length_c     44.719112
_cell_angle_alpha  85.698418
_cell_angle_beta   89.125436
_cell_angle_gamma 95.940448
loop_
_atom_site_label
_atom_site_type_symbol
_atom_site_fract_x
_atom_site_fract_y
_atom_site_fract_z
_atom_type_partial_charge
C0 C 0.18246 0.23871 0.13957 0.0
C1 C 0.16392 0.25279 0.15892 0.0
C2 C 0.14918 0.28829 0.11726 0.0
C3 C 0.1475 0.27743 0.14788 0.0
C4 C 0.16721 0.27337 0.09789 0.0
C5 C 0.18374 0.24888 0.10898 0.0
U6 U 0.19895 0.17349 0.19917 0.0
O7 O 0.21579 0.12636 0.1951 0.0
O8 O 0.24077 0.16343 0.21962 0.0
C9 C 0.24055 0.13525 0.20815 0.0
C10 C 0.20088 0.21385 0.15107 0.0
C11 C 0.26792 0.12979 0.19231 0.0
C12 C 0.29577 0.1236 0.14664 0.0
C13 C 0.26934 0.12832 0.16101 0.0
C14 C 0.31971 0.12211 0.19456 0.0
C15 C 0.3213 0.12067 0.16326 0.0
C16 C 0.29328 0.12653 0.20891 0.0
C17 C 0.14501 0.15636 0.26685 0.0
C18 C 0.15288 0.12248 0.31205 0.0
C19 C 0.10633 0.14446 0.30495 0.0
C20 C 0.1166 0.15961 0.27731 0.0
C21 C 0.12434 0.12575 0.32271 0.0
C22 C 0.16312 0.13762 0.28428 0.0
C23 C 0.15524 0.17315 0.23793 0.0
O24 O 0.21508 0.22027 0.1756 0.0
O25 O 0.18877 0.18378 0.15163 0.0
O26 O 0.15408 0.15534 0.21484 0.0
O27 O 0.17956 0.1928 0.23844 0.0
H28 H 0.16252 0.2451 0.18263 0.0
H29 H 0.13411 0.28854 0.1635 0.0
H30 H 0.16863 0.28066 0.07411 0.0
H31 H 0.19774 0.23808 0.09369 0.0
H32 H 0.29638 0.12287 0.12248 0.0
H33 H 0.25013 0.13104 0.14762 0.0
H34 H 0.3389 0.11956 0.20802 0.0
H35 H 0.29268 0.12756 0.23305 0.0
H36 H 0.16718 0.10797 0.32505 0.0
H37 H 0.08443 0.14788 0.31265 0.0
H38 H 0.10238 0.17409 0.26416 0.0
H39 H 0.18513 0.13479 0.27646 0.0
C40 C 0.28111 0.86042 0.63493 0.0
C41 C 0.27545 0.88568 0.65253 0.0
C42 C 0.23153 0.89421 0.62423 0.0
C43 C 0.25093 0.90246 0.6472 0.0
C44 C 0.23744 0.86893 0.60655 0.0
C45 C 0.26203 0.85217 0.61189 0.0
U46 U 0.34475 0.84332 0.6841 0.0
O47 O 0.36141 0.79752 0.70006 0.0
O48 O 0.39013 0.83477 0.67329 0.0
C49 C 0.38694 0.80514 0.6862 0.0
C50 C 0.30654 0.84233 0.64102 0.0
C51 C 0.39738 0.77985 0.66875 0.0
C52 C 0.40031 0.75278 0.62265 0.0
C53 C 0.39004 0.77721 0.63862 0.0
C54 C 0.42505 0.73336 0.66688 0.0
C55 C 0.41796 0.73053 0.63662 0.0
C56 C 0.41489 0.7578 0.68273 0.0
C57 C 0.35613 0.89001 0.75412 0.0
C58 C 0.40148 0.89839 0.78133 0.0
C59 C 0.35484 0.90187 0.80647 0.0
C60 C 0.34027 0.89526 0.78004 0.0
C61 C 0.3856 0.90357 0.80738 0.0
C62 C 0.38687 0.89147 0.75497 0.0
C63 C 0.34015 0.88267 0.7267 0.0
O64 O 0.33218 0.85979 0.63866 0.0
O65 O 0.30378 0.82212 0.66517 0.0
O66 O 0.32563 0.85369 0.72737 0.0
O67 O 0.35428 0.89141 0.70108 0.0
H68 H 0.28998 0.89237 0.67044 0.0
H69 H 0.24731 0.92208 0.66095 0.0
H70 H 0.22279 0.8617 0.58893 0.0
H71 H 0.26603 0.8326 0.5982 0.0
H72 H 0.39464 0.75152 0.59932 0.0
H73 H 0.37645 0.79402 0.62747 0.0
H74 H 0.4381 0.71634 0.67854 0.0
H75 H 0.42061 0.75938 0.70604 0.0
H76 H 0.42517 0.89917 0.78149 0.0
H77 H 0.34205 0.90601 0.82613 0.0
H78 H 0.31655 0.89418 0.77985 0.0
H79 H 0.39959 0.88716 0.73532 0.0
C80 C 0.62113 0.37262 0.75758 0.0
C81 C 0.64309 0.39065 0.73929 0.0
C82 C 0.60623 0.40756 0.70424 0.0
C83 C 0.63571 0.4079 0.71281 0.0
C84 C 0.58434 0.38991 0.72302 0.0
C85 C 0.59175 0.37262 0.74937 0.0
U86 U 0.67123 0.35125 0.82294 0.0
O87 O 0.65929 0.33432 0.86988 0.0
O88 O 0.68195 0.3036 0.84137 0.0
C89 C 0.66901 0.30599 0.86742 0.0
C90 C 0.62828 0.35285 0.78473 0.0
C91 C 0.64955 0.27741 0.87944 0.0
C92 C 0.61382 0.23125 0.8727 0.0
C93 C 0.63038 0.25974 0.86102 0.0
C94 C 0.63476 0.23838 0.92146 0.0
C95 C 0.61606 0.22003 0.90301 0.0
C96 C 0.65133 0.26673 0.90976 0.0
C97 C 0.74551 0.40106 0.83306 0.0
C98 C 0.79809 0.39725 0.83638 0.0
C99 C 0.77418 0.42892 0.87073 0.0
C100 C 0.74729 0.42092 0.85724 0.0
C101 C 0.79998 0.41751 0.86022 0.0
C102 C 0.77124 0.38923 0.82291 0.0
C103 C 0.71748 0.39431 0.81725 0.0
O104 O 0.65024 0.33524 0.78196 0.0
O105 O 0.62848 0.36718 0.80996 0.0
O106 O 0.69324 0.3991 0.83162 0.0
O107 O 0.7147 0.36792 0.80265 0.0
H108 H 0.66592 0.39112 0.74532 0.0
H109 H 0.65308 0.42151 0.69906 0.0
H110 H 0.56149 0.38873 0.71696 0.0
H111 H 0.57449 0.35879 0.76315 0.0
H112 H 0.59937 0.21791 0.85796 0.0
H113 H 0.62858 0.26767 0.83755 0.0
H114 H 0.63733 0.23028 0.94477 0.0
H115 H 0.66608 0.27999 0.9243 0.0
H116 H 0.81747 0.38777 0.8279 0.0
H117 H 0.77492 0.44497 0.88874 0.0
H118 H 0.72803 0.43085 0.86541 0.0
H119 H 0.77078 0.37412 0.8042 0.0
C120 C 0.79143 0.6042 0.32191 0.0
C121 C 0.77398 0.62964 0.32516 0.0
C122 C 0.73715 0.5928 0.35355 0.0
C123 C 0.747 0.62392 0.34065 0.0
C124 C 0.75481 0.56748 0.35062 0.0
C125 C 0.78165 0.57312 0.33481 0.0
U126 U 0.86443 0.65481 0.30667 0.0
O127 O 0.90898 0.64073 0.30041 0.0
O128 O 0.88935 0.67008 0.26476 0.0
C129 C 0.91143 0.65376 0.27267 0.0
C130 C 0.8201 0.60982 0.30587 0.0
C131 C 0.9215 0.63295 0.25031 0.0
C132 C 0.91191 0.5916 0.21504 0.0
C133 C 0.90181 0.61068 0.23672 0.0
C134 C 0.96146 0.61656 0.22076 0.0
C135 C 0.94189 0.59435 0.20681 0.0
C136 C 0.95133 0.63566 0.24228 0.0
C137 C 0.87894 0.73021 0.35122 0.0
C138 C 0.91541 0.77626 0.33935 0.0
C139 C 0.89086 0.76909 0.38813 0.0
C140 C 0.87493 0.74086 0.37982 0.0
C141 C 0.91112 0.78727 0.36793 0.0
C142 C 0.89952 0.74785 0.33109 0.0
C143 C 0.86089 0.7011 0.34289 0.0
O144 O 0.82372 0.6352 0.28629 0.0
O145 O 0.84305 0.60659 0.32266 0.0
O146 O 0.87067 0.67332 0.35123 0.0
O147 O 0.85071 0.7023 0.31553 0.0
H148 H 0.78117 0.65398 0.3158 0.0
H149 H 0.73396 0.64393 0.34282 0.0
H150 H 0.74762 0.5432 0.36012 0.0
H151 H 0.79481 0.55321 0.33269 0.0
H152 H 0.89634 0.57455 0.20489 0.0
H153 H 0.87866 0.60817 0.24279 0.0
H154 H 0.98458 0.61966 0.21463 0.0
H155 H 0.96681 0.65277 0.25251 0.0
H156 H 0.93104 0.78962 0.3234 0.0
H157 H 0.88671 0.77714 0.41013 0.0
H158 H 0.8591 0.72756 0.39562 0.0
H159 H 0.90306 0.73986 0.30894 0.0
C160 C 0.85444 0.78456 0.8894 0.0
C161 C 0.87187 0.76982 0.86947 0.0
C162 C 0.88592 0.73282 0.91034 0.0
C163 C 0.88741 0.74412 0.87983 0.0
C164 C 0.86893 0.74828 0.93028 0.0
C165 C 0.8533 0.77384 0.91987 0.0
U166 U 0.83999 0.85143 0.83063 0.0
O167 O 0.79859 0.86488 0.81141 0.0
O168 O 0.82679 0.90019 0.83504 0.0
C169 C 0.80158 0.89363 0.82195 0.0
C170 C 0.83719 0.81086 0.87865 0.0
C171 C 0.77523 0.90368 0.8365 0.0
C172 C 0.74879 0.91906 0.87997 0.0
C173 C 0.77343 0.90723 0.86747 0.0
C174 C 0.72722 0.92293 0.8309 0.0
C175 C 0.72559 0.92754 0.86171 0.0
C176 C 0.75178 0.91123 0.81848 0.0
C177 C 0.89074 0.86635 0.76059 0.0
C178 C 0.91034 0.91484 0.72991 0.0
C179 C 0.90028 0.864 0.70715 0.0
C180 C 0.89071 0.84875 0.73501 0.0
C181 C 0.91036 0.89717 0.70432 0.0
C182 C 0.90056 0.89963 0.75775 0.0
C183 C 0.88149 0.84925 0.78996 0.0
O184 O 0.85099 0.84022 0.87781 0.0
O185 O 0.82185 0.80553 0.85458 0.0
O186 O 0.85643 0.83071 0.79054 0.0
O187 O 0.88507 0.86592 0.81372 0.0
H188 H 0.87314 0.77789 0.84584 0.0
H189 H 0.9 0.73263 0.86378 0.0
H190 H 0.86769 0.74064 0.95399 0.0
H191 H 0.84016 0.78513 0.93561 0.0
H192 H 0.7483 0.92245 0.90374 0.0
H193 H 0.79123 0.90144 0.88189 0.0
H194 H 0.70952 0.92856 0.81628 0.0
H195 H 0.75265 0.90852 0.79457 0.0
H196 H 0.91774 0.94049 0.72836 0.0
H197 H 0.90037 0.84964 0.68794 0.0
H198 H 0.88353 0.82304 0.73662 0.0
H199 H 0.90088 0.91393 0.77702 0.0
C200 C 0.62699 0.1547 0.29624 0.0
C201 C 0.6438 0.13436 0.28116 0.0
C202 C 0.60342 0.12201 0.24763 0.0
C203 C 0.63213 0.1182 0.25698 0.0
C204 C 0.58669 0.14231 0.26302 0.0
C205 C 0.5984 0.1585 0.28708 0.0
U206 U 0.68561 0.17056 0.35456 0.0
O207 O 0.70546 0.21673 0.36992 0.0
O208 O 0.68116 0.1806 0.40185 0.0
C209 C 0.69453 0.21011 0.39729 0.0
C210 C 0.63896 0.17222 0.3214 0.0
C211 C 0.6797 0.23592 0.40988 0.0
C212 C 0.6357 0.26127 0.42098 0.0
C213 C 0.64927 0.23698 0.40783 0.0
C214 C 0.68294 0.28398 0.43765 0.0
C215 C 0.65238 0.2849 0.43631 0.0
C216 C 0.69642 0.25969 0.42464 0.0
C217 C 0.75149 0.12222 0.35943 0.0
C218 C 0.79276 0.13708 0.39086 0.0
C219 C 0.78881 0.08555 0.36858 0.0
C220 C 0.76273 0.09285 0.35509 0.0
C221 C 0.80415 0.10759 0.3866 0.0
C222 C 0.76658 0.14427 0.37749 0.0
C223 C 0.72385 0.12938 0.34541 0.0
O224 O 0.63908 0.15494 0.34723 0.0
O225 O 0.66346 0.19113 0.31546 0.0
O226 O 0.72447 0.15789 0.33048 0.0
O227 O 0.7002 0.12196 0.36253 0.0
H228 H 0.66591 0.13106 0.28806 0.0
H229 H 0.64545 0.1025 0.2458 0.0
H230 H 0.56468 0.14613 0.25614 0.0
H231 H 0.58517 0.17417 0.29846 0.0
H232 H 0.61212 0.26116 0.41966 0.0
H233 H 0.636 0.21886 0.39637 0.0
H234 H 0.69656 0.30215 0.44869 0.0
H235 H 0.71995 0.25939 0.42623 0.0
H236 H 0.80388 0.15438 0.40489 0.0
H237 H 0.79717 0.0628 0.3646 0.0
H238 H 0.75132 0.07554 0.34125 0.0
H239 H 0.75806 0.16699 0.3813 0.0
C240 C 0.29285 0.61038 0.18324 0.0
C241 C 0.29099 0.62522 0.15417 0.0
C242 C 0.24321 0.5949 0.14833 0.0
C243 C 0.26642 0.61744 0.1368 0.0
C244 C 0.24533 0.58011 0.17747 0.0
C245 C 0.2699 0.58779 0.19472 0.0
U246 U 0.36206 0.6646 0.20013 0.0
O247 O 0.37735 0.68248 0.24293 0.0
O248 O 0.40431 0.6524 0.21805 0.0
C249 C 0.40068 0.66657 0.24298 0.0
C250 C 0.31819 0.61856 0.2021 0.0
C251 C 0.40663 0.64826 0.27157 0.0
C252 C 0.41922 0.5995 0.30001 0.0
C253 C 0.41176 0.61543 0.27289 0.0
C254 C 0.41605 0.64867 0.32498 0.0
C255 C 0.42157 0.61598 0.32637 0.0
C256 C 0.40878 0.6646 0.29791 0.0
C257 C 0.38577 0.73882 0.14538 0.0
C258 C 0.41963 0.78525 0.1561 0.0
C259 C 0.40346 0.77909 0.10533 0.0
C260 C 0.38649 0.75027 0.11508 0.0
C261 C 0.42003 0.79712 0.12575 0.0
C262 C 0.4027 0.75628 0.16582 0.0
C263 C 0.3664 0.70936 0.15517 0.0
O264 O 0.34409 0.61555 0.19023 0.0
O265 O 0.31752 0.64528 0.21587 0.0
O266 O 0.35032 0.71094 0.17951 0.0
O267 O 0.37797 0.68183 0.15436 0.0
H268 H 0.30846 0.6429 0.145 0.0
H269 H 0.26537 0.62945 0.11456 0.0
H270 H 0.22811 0.56228 0.18687 0.0
H271 H 0.27096 0.5761 0.2171 0.0
H272 H 0.42305 0.57423 0.30037 0.0
H273 H 0.41031 0.60211 0.25299 0.0
H274 H 0.41807 0.66224 0.34472 0.0
H275 H 0.40526 0.68998 0.29745 0.0
H276 H 0.43237 0.79838 0.17233 0.0
H277 H 0.40294 0.78772 0.0819 0.0
H278 H 0.3735 0.73715 0.099 0.0
H279 H 0.40254 0.74772 0.18932 0.0
C280 C 0.10735 0.28189 0.70223 0.0
C281 C 0.12978 0.27129 0.68496 0.0
C282 C 0.09563 0.22821 0.66761 0.0
C283 C 0.12402 0.24467 0.66791 0.0
C284 C 0.07321 0.23894 0.68505 0.0
C285 C 0.07906 0.26558 0.70221 0.0
U286 U 0.15889 0.35436 0.71804 0.0
O287 O 0.15172 0.40463 0.72546 0.0
O288 O 0.17279 0.37522 0.75995 0.0
C289 C 0.16213 0.40281 0.7527 0.0
C290 C 0.11346 0.31047 0.71947 0.0
C291 C 0.14423 0.41495 0.77608 0.0
C292 C 0.09967 0.41199 0.80676 0.0
C293 C 0.1161 0.40001 0.7842 0.0
C294 C 0.13936 0.4539 0.81318 0.0
C295 C 0.11117 0.43904 0.8216 0.0
C296 C 0.1557 0.44195 0.79064 0.0
C297 C 0.23067 0.3668 0.67164 0.0
C298 C 0.26627 0.41397 0.67355 0.0
C299 C 0.27652 0.37045 0.64316 0.0
C300 C 0.24948 0.35358 0.65206 0.0
C301 C 0.28521 0.40092 0.65369 0.0
C302 C 0.23921 0.39702 0.68247 0.0
C303 C 0.20217 0.34885 0.68024 0.0
O304 O 0.13524 0.30904 0.73817 0.0
O305 O 0.11439 0.33842 0.70355 0.0
O306 O 0.1791 0.36378 0.67294 0.0
O307 O 0.20021 0.33455 0.70751 0.0
H308 H 0.15179 0.28369 0.68464 0.0
H309 H 0.1419 0.23683 0.65517 0.0
H310 H 0.05104 0.22709 0.68507 0.0
H311 H 0.06144 0.27359 0.71525 0.0
H312 H 0.07818 0.39976 0.81293 0.0
H313 H 0.10696 0.37904 0.77321 0.0
H314 H 0.14872 0.47501 0.82381 0.0
H315 H 0.17736 0.45383 0.78457 0.0
H316 H 0.27215 0.43752 0.68182 0.0
H317 H 0.29074 0.35949 0.62823 0.0
H318 H 0.24322 0.33018 0.64361 0.0
H319 H 0.22486 0.40756 0.69762 0.0
Zn320 Zn 0.05605 0.02688 0.53724 0.0
Zn321 Zn 0.98197 0.9908 0.48995 0.0
C322 C 0.08185 0.09101 0.55069 0.0
O323 O 0.09553 0.09053 0.52471 0.0
C324 C 0.97595 0.94454 0.44559 0.0
O325 O 0.97359 0.97089 0.42808 0.0
O326 O 0.08967 0.99969 0.54409 0.0
O327 O 0.01952 1.00243 0.55653 0.0
O328 O 0.97895 0.98286 0.5349 0.0
C329 C 0.0972 0.99126 0.57054 0.0
O330 O 0.08247 1.00014 0.59343 0.0
O331 O 0.06417 0.06672 0.56021 0.0
C332 C 0.94256 0.0367 0.46433 0.0
O333 O 0.96616 0.05758 0.46176 0.0
O334 O 0.94448 0.0082 0.476 0.0
O335 O 0.01627 0.0199 0.4711 0.0
O336 O 0.05619 0.04096 0.49299 0.0
O337 O 0.98098 0.94714 0.47323 0.0
C338 C 0.99385 0.98751 0.55821 0.0
C339 C 0.04083 0.03725 0.46982 0.0
Zn340 Zn 0.533 0.98808 0.97889 0.0
Zn341 Zn 0.50515 0.03099 0.05609 0.0
C342 C 0.48608 0.95814 0.9431 0.0
O343 O 0.4788 0.94009 0.96798 0.0
C344 C 0.55546 0.05198 0.09205 0.0
O345 O 0.57005 0.05483 0.06631 0.0
O346 O 0.57186 0.97181 0.9689 0.0
O347 O 0.53996 0.0365 0.98084 0.0
O348 O 0.52471 0.05912 0.02095 0.0
C349 C 0.58504 0.98305 0.94452 0.0
O350 O 0.57341 1.00537 0.92763 0.0
O351 O 0.50766 0.97997 0.94296 0.0
C352 C 0.46246 0.07001 0.07839 0.0
O353 O 0.48643 0.08745 0.08582 0.0
O354 O 0.46483 0.04505 0.0641 0.0
O355 O 0.49974 0.98224 0.05529 0.0
O356 O 0.51472 0.96044 0.01466 0.0
O357 O 0.5284 0.04142 0.09283 0.0
C358 C 0.537 0.06135 0.99505 0.0
C359 C 0.50316 0.95764 0.04088 0.0
Zn360 Zn 0.55 0.49386 0.4911 0.0
Zn361 Zn 0.47751 0.52365 0.53697 0.0
C362 C 0.5921 0.53332 0.45158 0.0
O363 O 0.56918 0.53453 0.43444 0.0
C364 C 0.43256 0.49144 0.57585 0.0
O365 O 0.4485 0.50749 0.59512 0.0
O366 O 0.55347 0.44953 0.47669 0.0
O367 O 0.54887 0.48895 0.53663 0.0
O368 O 0.51044 0.50522 0.55978 0.0
C369 C 0.57379 0.43454 0.48844 0.0
O370 O 0.58912 0.44774 0.50979 0.0
O371 O 0.58891 0.51864 0.4776 0.0
C372 C 0.44675 0.57802 0.54559 0.0
O373 O 0.42901 0.56231 0.52758 0.0
O374 O 0.47053 0.5665 0.55283 0.0
O375 O 0.47974 0.53074 0.49187 0.0
O376 O 0.51783 0.51436 0.46821 0.0
O377 O 0.44092 0.49387 0.54844 0.0
C378 C 0.53481 0.49314 0.56054 0.0
C379 C 0.49383 0.52724 0.46783 0.0
Zn380 Zn 0.97918 0.51939 0.98758 0.0
Zn381 Zn 0.05394 0.49955 0.03968 0.0
C382 C 0.94084 0.4859 0.94846 0.0
O383 O 0.95987 0.50212 0.9292 0.0
C384 C 0.08914 0.53136 0.08143 0.0
O385 O 0.06799 0.51519 0.09825 0.0
O386 O 0.96742 0.56315 0.97208 0.0
O387 O 0.98045 0.52067 0.03277 0.0
O388 O 0.0178 0.51005 0.06167 0.0
C389 C 0.94227 0.56861 0.98174 0.0
O390 O 0.92761 0.54656 1.00035 0.0
O391 O 0.94502 0.48784 0.97637 0.0
C392 C 0.08983 0.44986 0.04401 0.0
O393 O 0.1042 0.47203 0.0253 0.0
O394 O 0.06486 0.45524 0.05418 0.0
O395 O 0.05253 0.49996 0.99457 0.0
O396 O 0.01544 0.50943 0.96483 0.0
O397 O 0.08815 0.52995 0.05311 0.0
C398 C 0.99186 0.51784 0.05848 0.0
C399 C 0.04166 0.50268 0.96861 0.0
H400 H 0.07035 0.09393 0.33645 0.0
H401 H 0.15363 0.12241 0.37555 0.0
H402 H 0.13517 0.09787 0.42447 0.0
H403 H 0.09518 0.06884 0.45625 0.0
H404 H 1.01189 0.04042 0.41684 0.0
H405 H 0.03046 0.06489 0.36811 0.0
C406 C 0.08441 0.09498 0.35571 0.0
C407 C 0.11333 0.11006 0.35231 0.0
C408 C 0.07361 0.08097 0.38379 0.0
C409 C 0.1314 0.11067 0.37743 0.0
C410 C 0.12079 0.09683 0.40547 0.0
C411 C 0.08102 0.06807 0.43705 0.0
C412 C 0.05212 0.05282 0.44035 0.0
C413 C 0.09189 0.08199 0.40893 0.0
C414 C 0.03421 0.05194 0.41508 0.0
C415 C 0.04481 0.06593 0.38713 0.0
H416 H 0.43393 0.94596 0.8139 0.0
H417 H 0.3717 0.87667 0.86397 0.0
H418 H 0.39699 0.88776 0.9104 0.0
H419 H 0.43708 0.91664 0.93665 0.0
H420 H 0.49913 0.9864 0.88665 0.0
H421 H 0.47366 0.97555 0.84035 0.0
C422 C 0.42605 0.93317 0.83497 0.0
C423 C 0.40103 0.9105 0.8355 0.0
C424 C 0.44062 0.93976 0.86159 0.0
C425 C 0.39077 0.89444 0.86302 0.0
C426 C 0.40528 0.90067 0.88954 0.0
C427 C 0.44503 0.92953 0.91565 0.0
C428 C 0.47003 0.95225 0.91518 0.0
C429 C 0.43024 0.92326 0.88909 0.0
C430 C 0.47993 0.9688 0.88773 0.0
C431 C 0.46541 0.96258 0.86119 0.0
H432 H 0.56023 0.44335 0.69386 0.0
H433 H 0.6343 0.40973 0.64952 0.0
H434 H 0.61979 0.43465 0.60158 0.0
H435 H 0.58466 0.46363 0.57174 0.0
H436 H 0.51005 0.49633 0.61618 0.0
H437 H 0.52614 0.47403 0.66436 0.0
C438 C 0.57317 0.44139 0.6737 0.0
C439 C 0.59828 0.42452 0.67538 0.0
C440 C 0.56455 0.45554 0.64611 0.0
C441 C 0.61506 0.4228 0.64904 0.0
C442 C 0.60665 0.43688 0.62153 0.0
C443 C 0.57197 0.4661 0.59195 0.0
C444 C 0.54603 0.48156 0.5901 0.0
C445 C 0.58125 0.45301 0.61973 0.0
C446 C 0.53003 0.48453 0.61671 0.0
C447 C 0.53919 0.47171 0.64437 0.0
H448 H 0.91717 0.58167 0.15324 0.0
H449 H 0.99148 0.56321 0.20762 0.0
H450 H 1.01223 0.53551 0.1674 0.0
H451 H 1.01096 0.51982 0.11581 0.0
H452 H 0.93714 0.53891 0.06083 0.0
H453 H 0.91422 0.56228 0.10254 0.0
C454 C 0.93764 0.57109 0.15648 0.0
C455 C 0.95288 0.57482 0.18332 0.0
C456 C 0.94958 0.55531 0.13315 0.0
C457 C 0.97955 0.56121 0.18701 0.0
C458 C 0.99138 0.54522 0.16407 0.0
C459 C 0.98972 0.52875 0.11292 0.0
C460 C 0.97604 0.52786 0.08496 0.0
C461 C 0.97686 0.54267 0.13685 0.0
C462 C 0.94836 0.53941 0.08193 0.0
C463 C 0.93523 0.5529 0.1058 0.0
H464 H 0.33128 0.07985 0.12003 0.0
H465 H 0.37506 0.15222 0.17272 0.0
H466 H 0.42222 0.14408 0.14998 0.0
H467 H 0.45127 0.11515 0.11664 0.0
H468 H 0.40812 0.04162 0.06471 0.0
H469 H 0.36049 0.05178 0.08531 0.0
C470 C 0.35112 0.09406 0.12626 0.0
C471 C 0.34966 0.11649 0.14817 0.0
C472 C 0.37829 0.08905 0.11325 0.0
C473 C 0.37562 0.13449 0.15624 0.0
C474 C 0.40259 0.12996 0.14315 0.0
C475 C 0.43146 0.10149 0.10959 0.0
C476 C 0.43334 0.07763 0.08915 0.0
C477 C 0.40423 0.10708 0.12187 0.0
C478 C 0.40737 0.0601 0.08043 0.0
C479 C 0.3801 0.06587 0.09225 0.0
H480 H 0.2092 0.91443 0.57061 0.0
H481 H 0.19442 0.91343 0.66625 0.0
H482 H 0.15177 0.94324 0.65808 0.0
H483 H 0.11873 0.96979 0.62392 0.0
H484 H 0.13297 0.97025 0.52822 0.0
H485 H 0.17545 0.94006 0.53634 0.0
C486 C 0.19648 0.92042 0.58967 0.0
C487 C 0.20515 0.91178 0.619 0.0
C488 C 0.17182 0.93745 0.58483 0.0
C489 C 0.18858 0.92019 0.64343 0.0
C490 C 0.16405 0.93708 0.63879 0.0
C491 C 0.13106 0.96326 0.6048 0.0
C492 C 0.12263 0.97235 0.57551 0.0
C493 C 0.15552 0.94593 0.60961 0.0
C494 C 0.13892 0.96361 0.55103 0.0
C495 C 0.16326 0.94634 0.55564 0.0
H496 H 0.81384 0.42301 0.91914 0.0
H497 H 0.85143 0.43648 0.82942 0.0
H498 H 0.89859 0.45656 0.84904 0.0
H499 H 0.92856 0.47309 0.89115 0.0
H500 H 0.89146 0.46061 0.98105 0.0
H501 H 0.84483 0.43738 0.9619 0.0
C502 C 0.83236 0.43038 0.9039 0.0
C503 C 0.829 0.42823 0.87281 0.0
C504 C 0.85953 0.44216 0.91535 0.0
C505 C 0.85338 0.43746 0.85344 0.0
C506 C 0.88037 0.44917 0.86463 0.0
C507 C 0.91036 0.4651 0.90664 0.0
C508 C 0.91351 0.46878 0.93749 0.0
C509 C 0.88361 0.45196 0.89547 0.0
C510 C 0.88971 0.45804 0.95721 0.0
C511 C 0.86297 0.44487 0.94625 0.0
H512 H 0.72462 0.56035 0.40807 0.0
H513 H 0.68492 0.61155 0.33455 0.0
H514 H 0.63673 0.59942 0.35933 0.0
H515 H 0.60558 0.57187 0.40056 0.0
H516 H 0.64518 0.52109 0.47452 0.0
H517 H 0.69369 0.53563 0.45103 0.0
C518 C 0.70537 0.5688 0.39753 0.0
C519 C 0.70825 0.5866 0.36944 0.0
C520 C 0.67775 0.56185 0.41197 0.0
C521 C 0.68325 0.59791 0.35622 0.0
C522 C 0.6557 0.59089 0.37032 0.0
C523 C 0.62484 0.5642 0.41168 0.0
C524 C 0.62171 0.54523 0.43915 0.0
C525 C 0.65265 0.57257 0.39803 0.0
C526 C 0.64693 0.53574 0.45338 0.0
C527 C 0.67469 0.5439 0.43988 0.0
H528 H 0.16883 0.33758 0.07628 0.0
H529 H 0.09354 0.30135 0.13263 0.0
H530 H 0.06825 0.34783 0.1149 0.0
H531 H 0.06784 0.39937 0.08364 0.0
H532 H 0.14324 0.43406 0.0267 0.0
H533 H 0.16776 0.38728 0.04399 0.0
C534 C 0.14669 0.33947 0.08437 0.0
C535 C 0.13316 0.31589 0.10575 0.0
C536 C 0.13221 0.36606 0.07393 0.0
C537 C 0.10469 0.3193 0.11644 0.0
C538 C 0.09012 0.34581 0.10618 0.0
C539 C 0.08956 0.39658 0.07492 0.0
C540 C 0.10363 0.42031 0.05394 0.0
C541 C 0.10373 0.36945 0.085 0.0
C542 C 0.13181 0.41628 0.04288 0.0
C543 C 0.14595 0.3895 0.05277 0.0
H544 H 0.58759 0.20622 0.95726 0.0
H545 H 0.60898 0.16301 0.87605 0.0
H546 H 0.58561 0.11057 0.89687 0.0
H547 H 0.561 0.07643 0.93886 0.0
H548 H 0.54014 0.11945 0.02045 0.0
H549 H 0.56162 0.17233 0.9988 0.0
C550 C 0.5872 0.18531 0.94414 0.0
C551 C 0.60011 0.18862 0.91513 0.0
C552 C 0.57395 0.1551 0.95636 0.0
C553 C 0.59894 0.16133 0.89827 0.0
C554 C 0.58576 0.13124 0.91026 0.0
C555 C 0.56104 0.09735 0.95195 0.0
C556 C 0.54902 0.09377 0.98136 0.0
C557 C 0.57346 0.12776 0.93939 0.0
C558 C 0.5492 0.12133 0.9978 0.0
C559 C 0.56154 0.15164 0.98544 0.0
H560 H 0.93666 0.79945 0.42102 0.0
H561 H 0.92011 0.8449 0.3339 0.0
H562 H 0.94114 0.89722 0.34944 0.0
H563 H 0.96045 0.93074 0.38906 0.0
H564 H 0.97573 0.8854 0.47665 0.0
H565 H 0.95897 0.83243 0.45962 0.0
C566 C 0.93772 0.82081 0.40542 0.0
C567 C 0.92661 0.8183 0.37643 0.0
C568 C 0.94946 0.85088 0.41463 0.0
C569 C 0.92867 0.84608 0.35628 0.0
C570 C 0.94051 0.87607 0.36522 0.0
C571 C 0.96043 0.90926 0.40436 0.0
C572 C 0.96909 0.91215 0.43418 0.0
C573 C 0.95045 0.87886 0.39452 0.0
C574 C 0.96905 0.88397 0.45362 0.0
C575 C 0.95939 0.85363 0.44393 0.0
H576 H 0.38805 0.69376 0.59678 0.0
H577 H 0.47189 0.70772 0.6392 0.0
H578 H 0.48839 0.66225 0.61454 0.0
H579 H 0.47858 0.61749 0.58197 0.0
H580 H 0.39508 0.60453 0.5387 0.0
H581 H 0.37921 0.65095 0.5622 0.0
C582 C 0.4101 0.68723 0.6003 0.0
C583 C 0.42857 0.70408 0.62004 0.0
C584 C 0.41956 0.66116 0.58588 0.0
C585 C 0.45696 0.69486 0.62458 0.0
C586 C 0.46651 0.66895 0.61035 0.0
C587 C 0.45697 0.62491 0.57756 0.0
C588 C 0.43805 0.6074 0.55868 0.0
C589 C 0.4479 0.65171 0.59118 0.0
C590 C 0.41014 0.61748 0.55314 0.0
C591 C 0.40098 0.64404 0.56662 0.0
H592 H 0.95979 0.93869 0.69278 0.0
H593 H 0.88561 0.891 0.64961 0.0
H594 H 0.90446 0.91534 0.60078 0.0
H595 H 0.94249 0.94917 0.57026 0.0
H596 H 0.01713 0.99634 0.61339 0.0
H597 H 0.99743 0.97346 0.66228 0.0
C598 C 0.94759 0.93394 0.67271 0.0
C599 C 0.92135 0.91304 0.67483 0.0
C600 C 0.95865 0.94787 0.64468 0.0
C601 C 0.90602 0.90672 0.64856 0.0
C602 C 0.91673 0.92073 0.62064 0.0
C603 C 0.95443 0.95462 0.59033 0.0
C604 C 0.9813 0.97447 0.58802 0.0
C605 C 0.94312 0.94116 0.61841 0.0
C606 C 0.99644 0.98111 0.61437 0.0
C607 C 0.98519 0.96802 0.6424 0.0
H608 H 0.63041 0.11512 0.19405 0.0
H609 H 0.54823 0.09131 0.24305 0.0
H610 H 0.52656 0.06648 0.19972 0.0
H611 H 0.53034 0.05325 0.14742 0.0
H612 H 0.61241 0.07713 0.09814 0.0
H613 H 0.63481 0.09969 0.14224 0.0
C614 C 0.60788 0.1041 0.19538 0.0
C615 C 0.59093 0.10527 0.22173 0.0
C616 C 0.59551 0.08988 0.17033 0.0
C617 C 0.56165 0.09121 0.22292 0.0
C618 C 0.54927 0.07686 0.19819 0.0
C619 C 0.5532 0.06315 0.14634 0.0
C620 C 0.56962 0.06355 0.11942 0.0
C621 C 0.56589 0.07636 0.17168 0.0
C622 C 0.59921 0.07652 0.11851 0.0
C623 C 0.61205 0.0895 0.14372 0.0
H624 H 0.4646 0.57572 0.33505 0.0
H625 H 0.39822 0.61952 0.38249 0.0
H626 H 0.41415 0.59537 0.43014 0.0
H627 H 0.44782 0.56322 0.45853 0.0
H628 H 0.51427 0.51925 0.41119 0.0
H629 H 0.49723 0.5418 0.36343 0.0
C630 C 0.45337 0.57963 0.35577 0.0
C631 C 0.4303 0.59955 0.35513 0.0
C632 C 0.46273 0.56574 0.38318 0.0
C633 C 0.41628 0.60468 0.38231 0.0
C634 C 0.4253 0.59076 0.40958 0.0
C635 C 0.45852 0.55836 0.4378 0.0
C636 C 0.4825 0.53969 0.43864 0.0
C637 C 0.44868 0.57151 0.41033 0.0
C638 C 0.49599 0.53376 0.4114 0.0
C639 C 0.48621 0.54661 0.38399 0.0
H640 H 0.13121 0.45935 0.87476 0.0
H641 H 0.05257 0.44689 0.82324 0.0
H642 H 0.02442 0.46703 0.86342 0.0
H643 H 0.02194 0.48713 0.91368 0.0
H644 H 0.10072 0.49896 0.96519 0.0
H645 H 0.12904 0.48077 0.92426 0.0
C646 C 0.10798 0.46139 0.87213 0.0
C647 C 0.09406 0.45159 0.84597 0.0
C648 C 0.09193 0.47302 0.8953 0.0
C649 C 0.0638 0.45387 0.84326 0.0
C650 C 0.04771 0.4656 0.86615 0.0
C651 C 0.04537 0.48611 0.91584 0.0
C652 C 0.05913 0.49443 0.94256 0.0
C653 C 0.06152 0.47513 0.89234 0.0
C654 C 0.08949 0.4926 0.94499 0.0
C655 C 0.10573 0.48215 0.92159 0.0
H656 H 0.69548 0.91028 0.9149 0.0
H657 H 0.69864 0.97811 0.83671 0.0
H658 H 0.65603 1.00134 0.85562 0.0
H659 H 0.61733 1.00202 0.89369 0.0
H660 H 0.61379 0.93487 0.97235 0.0
H661 H 0.65729 0.9122 0.95415 0.0
C662 C 0.68702 0.93035 0.90216 0.0
C663 C 0.70015 0.94215 0.87425 0.0
C664 C 0.66244 0.94381 0.91325 0.0
C665 C 0.68869 0.96805 0.85795 0.0
C666 C 0.6644 0.98154 0.86884 0.0
C667 C 0.62608 0.9825 0.90698 0.0
C668 C 0.6122 0.97015 0.93433 0.0
C669 C 0.65097 0.96948 0.89633 0.0
C670 C 0.62398 0.94487 0.9512 0.0
C671 C 0.64886 0.93184 0.94078 0.0
H672 H 0.81557 0.05044 0.41526 0.0
H673 H 0.85511 0.14744 0.38995 0.0
H674 H 0.90112 0.13447 0.41251 0.0
H675 H 0.93052 0.0951 0.43829 0.0
H676 H 0.89077 0.99799 0.46332 0.0
H677 H 0.84459 0.01147 0.44187 0.0
C678 C 0.83432 0.06868 0.41452 0.0
C679 C 0.83193 0.09982 0.40084 0.0
C680 C 0.86071 0.06104 0.42747 0.0
C681 C 0.85628 0.12336 0.40056 0.0
C682 C 0.88265 0.11592 0.41332 0.0
C683 C 0.91175 0.0769 0.43916 0.0
C684 C 0.91422 0.04555 0.45236 0.0
C685 C 0.88516 0.08478 0.42673 0.0
C686 C 0.88958 0.02232 0.45331 0.0
C687 C 0.86311 0.02997 0.441 0.0
H688 H 0.1861 0.58742 0.1672 0.0
H689 H 0.24103 0.58378 0.08862 0.0
H690 H 0.19789 0.56667 0.0599 0.0
H691 H 0.14471 0.54885 0.05822 0.0
H692 H 0.09076 0.55091 0.13787 0.0
H693 H 0.13324 0.57242 0.16493 0.0
C694 C 0.18868 0.5828 0.1438 0.0
C695 C 0.21683 0.58657 0.13021 0.0
C696 C 0.16388 0.57259 0.12757 0.0
C697 C 0.21963 0.58121 0.09965 0.0
C698 C 0.19496 0.57125 0.08324 0.0
C699 C 0.14223 0.55448 0.08135 0.0
C700 C 0.1146 0.54811 0.09602 0.0
C701 C 0.16699 0.56638 0.09708 0.0
C702 C 0.11178 0.55534 0.12608 0.0
C703 C 0.13609 0.56762 0.14163 0.0
H704 H 0.31017 0.40753 0.59758 0.0
H705 H 0.32463 0.43504 0.68776 0.0
H706 H 0.37146 0.46517 0.67165 0.0
H707 H 0.40823 0.48375 0.63204 0.0
H708 H 0.39409 0.45585 0.54191 0.0
H709 H 0.34742 0.42533 0.5581 0.0
C710 C 0.3237 0.41982 0.6138 0.0
C711 C 0.31384 0.41902 0.64385 0.0
C712 C 0.3507 0.43694 0.60443 0.0
C713 C 0.33146 0.43559 0.66443 0.0
C714 C 0.35835 0.45266 0.65527 0.0
C715 C 0.39502 0.47092 0.61591 0.0
C716 C 0.40469 0.47211 0.58579 0.0
C717 C 0.36816 0.45354 0.62533 0.0
C718 C 0.38721 0.45535 0.56523 0.0
C719 C 0.36049 0.43792 0.57446 0.0
H720 H 0.86559 0.6835 0.95107 0.0
H721 H 0.94067 0.71796 0.8938 0.0
H722 H 0.96494 0.67045 0.91074 0.0
H723 H 0.96463 0.61866 0.94177 0.0
H724 H 0.88943 0.5856 0.99951 0.0
H725 H 0.86582 0.63325 0.98283 0.0
C726 C 0.88745 0.68095 0.94258 0.0
C727 C 0.90123 0.7044 0.9212 0.0
C728 C 0.90135 0.65375 0.95254 0.0
C729 C 0.92933 0.70016 0.91001 0.0
C730 C 0.94332 0.67306 0.91981 0.0
C731 C 0.94314 0.62196 0.95076 0.0
C732 C 0.92887 0.59845 0.97183 0.0
C733 C 0.9295 0.6496 0.94103 0.0
C734 C 0.90099 0.60317 0.98324 0.0
C735 C 0.88738 0.63046 0.97371 0.0
H736 H 0.45365 0.8118 0.07479 0.0
H737 H 0.42358 0.85368 0.15355 0.0
H738 H 0.44799 0.90657 0.13514 0.0
H739 H 0.47549 0.94158 0.09536 0.0
H740 H 0.50486 0.89963 0.01618 0.0
H741 H 0.48295 0.84632 0.03603 0.0
C742 C 0.4524 0.83251 0.08791 0.0
C743 C 0.43667 0.82875 0.11545 0.0
C744 C 0.46624 0.86295 0.07705 0.0
C745 C 0.43575 0.85576 0.13242 0.0
C746 C 0.44953 0.8861 0.1218 0.0
C747 C 0.47731 0.92079 0.08248 0.0
C748 C 0.49168 0.92485 0.05416 0.0
C749 C 0.46453 0.89007 0.09396 0.0
C750 C 0.49384 0.89744 0.03795 0.0
C751 C 0.48128 0.86685 0.04927 0.0
H752 H 0.11646 0.22155 0.6112 0.0
H753 H 0.06102 0.17138 0.68247 0.0
H754 H 0.05141 0.12497 0.65244 0.0
H755 H 0.05945 0.09817 0.60633 0.0
H756 H 0.11595 0.14788 0.53564 0.0
H757 H 0.12477 0.19467 0.5653 0.0
C758 C 0.10249 0.20036 0.62032 0.0
C759 C 0.08953 0.20005 0.64913 0.0
C760 C 0.09731 0.17358 0.60307 0.0
C761 C 0.07102 0.17254 0.66026 0.0
C762 C 0.06566 0.14586 0.64317 0.0
C763 C 0.07367 0.11924 0.59736 0.0
C764 C 0.08701 0.11943 0.56876 0.0
C765 C 0.07874 0.14608 0.61458 0.0
C766 C 0.10541 0.14698 0.55757 0.0
C767 C 0.11047 0.1738 0.57452 0.0
H768 H 0.60786 0.31905 0.41559 0.0
H769 H 0.66489 0.30776 0.49077 0.0
H770 H 0.64458 0.35188 0.514 0.0
H771 H 0.61244 0.39523 0.51205 0.0
H772 H 0.55466 0.40668 0.43758 0.0
H773 H 0.57294 0.36042 0.4154 0.0
C774 C 0.61554 0.32592 0.43725 0.0
C775 C 0.63821 0.31034 0.45116 0.0
C776 C 0.60361 0.35132 0.45066 0.0
C777 C 0.64799 0.31978 0.47917 0.0
C778 C 0.63624 0.34489 0.49261 0.0
C779 C 0.60364 0.38751 0.49106 0.0
C780 C 0.58237 0.40457 0.47641 0.0
C781 C 0.61438 0.36113 0.47837 0.0
C782 C 0.57107 0.39401 0.44935 0.0
C783 C 0.5816 0.36763 0.43658 0.0
loop_
_geom_bond_atom_site_label_1
_geom_bond_atom_site_label_2
_geom_bond_distance
_geom_bond_site_symmetry_2
_ccdc_geom_bond_type
C0 C1 1.264 . S
C0 C5 1.479 . S
C0 C10 1.465 . S
C1 C0 1.264 . S
C1 C3 1.339 . S
C1 H28 0.931 . S
C2 C3 1.395 . S
C2 C4 1.320 . S
C3 C1 1.339 . S
C3 C2 1.395 . S
C3 H29 0.929 . S
C4 C2 1.320 . S
C4 C5 1.405 . S
C4 H30 0.930 . S
C5 C0 1.479 . S
C5 C4 1.405 . S
C5 H31 0.931 . S
U6 O7 2.454 . S
U6 O8 2.458 . S
U6 C9 2.984 . S
U6 C10 2.847 . S
U6 C23 2.882 . S
U6 O24 2.441 . S
U6 O25 2.420 . S
U6 O26 2.455 . S
U6 O27 2.449 . S
O7 U6 2.454 . S
O7 C9 1.353 . S
O8 U6 2.458 . S
O8 C9 1.286 . S
C9 U6 2.984 . S
C9 O7 1.353 . S
C9 O8 1.286 . S
C9 C11 1.363 . S
C10 C0 1.465 . S
C10 U6 2.847 . S
C10 O24 1.249 . S
C10 O25 1.202 . S
C11 C9 1.363 . S
C11 C13 1.408 . S
C11 C16 1.342 . S
C12 C13 1.310 . S
C12 C15 1.461 . S
C12 H32 0.932 . S
C13 C11 1.408 . S
C13 C12 1.310 . S
C13 H33 0.930 . S
C14 C15 1.474 . S
C14 C16 1.285 . S
C14 H34 0.929 . S
C15 C12 1.461 . S
C15 C14 1.474 . S
C16 C11 1.342 . S
C16 C14 1.285 . S
C16 H35 0.930 . S
C17 C20 1.424 . S
C17 C22 1.245 . S
C17 C23 1.428 . S
C18 C21 1.260 . S
C18 C22 1.477 . S
C18 H36 0.932 . S
C19 C20 1.384 . S
C19 C21 1.479 . S
C19 H37 0.929 . S
C20 C17 1.424 . S
C20 C19 1.384 . S
C20 H38 0.928 . S
C21 C18 1.260 . S
C21 C19 1.479 . S
C22 C17 1.245 . S
C22 C18 1.477 . S
C22 H39 0.932 . S
C23 U6 2.882 . S
C23 C17 1.428 . S
C23 O26 1.301 . S
C23 O27 1.282 . S
O24 U6 2.441 . S
O24 C10 1.249 . S
O25 U6 2.420 . S
O25 C10 1.202 . S
O26 U6 2.455 . S
O26 C23 1.301 . S
O27 U6 2.449 . S
O27 C23 1.282 . S
H28 C1 0.931 . S
H29 C3 0.929 . S
H30 C4 0.930 . S
H31 C5 0.931 . S
H32 C12 0.932 . S
H33 C13 0.930 . S
H34 C14 0.929 . S
H35 C16 0.930 . S
H36 C18 0.932 . S
H37 C19 0.929 . S
H38 C20 0.928 . S
H39 C22 0.932 . S
C40 C41 1.264 . S
C40 C45 1.479 . S
C40 C50 1.465 . S
C41 C40 1.264 . S
C41 C43 1.339 . S
C41 H68 0.931 . S
C42 C43 1.395 . S
C42 C44 1.320 . S
C43 C41 1.339 . S
C43 C42 1.395 . S
C43 H69 0.929 . S
C44 C42 1.320 . S
C44 C45 1.405 . S
C44 H70 0.930 . S
C45 C40 1.479 . S
C45 C44 1.405 . S
C45 H71 0.931 . S
U46 O47 2.454 . S
U46 O48 2.458 . S
U46 C49 2.984 . S
U46 C50 2.847 . S
U46 C63 2.882 . S
U46 O64 2.441 . S
U46 O65 2.420 . S
U46 O66 2.455 . S
U46 O67 2.449 . S
O47 U46 2.454 . S
O47 C49 1.353 . S
O48 U46 2.458 . S
O48 C49 1.286 . S
C49 U46 2.984 . S
C49 O47 1.353 . S
C49 O48 1.286 . S
C49 C51 1.363 . S
C50 C40 1.465 . S
C50 U46 2.847 . S
C50 O64 1.249 . S
C50 O65 1.202 . S
C51 C49 1.363 . S
C51 C53 1.408 . S
C51 C56 1.342 . S
C52 C53 1.310 . S
C52 C55 1.461 . S
C52 H72 0.932 . S
C53 C51 1.408 . S
C53 C52 1.310 . S
C53 H73 0.930 . S
C54 C55 1.474 . S
C54 C56 1.285 . S
C54 H74 0.929 . S
C55 C52 1.461 . S
C55 C54 1.474 . S
C56 C51 1.342 . S
C56 C54 1.285 . S
C56 H75 0.930 . S
C57 C60 1.424 . S
C57 C62 1.245 . S
C57 C63 1.428 . S
C58 C61 1.260 . S
C58 C62 1.477 . S
C58 H76 0.932 . S
C59 C60 1.384 . S
C59 C61 1.479 . S
C59 H77 0.929 . S
C60 C57 1.424 . S
C60 C59 1.384 . S
C60 H78 0.928 . S
C61 C58 1.260 . S
C61 C59 1.479 . S
C62 C57 1.245 . S
C62 C58 1.477 . S
C62 H79 0.932 . S
C63 U46 2.882 . S
C63 C57 1.428 . S
C63 O66 1.301 . S
C63 O67 1.282 . S
O64 U46 2.441 . S
O64 C50 1.249 . S
O65 U46 2.420 . S
O65 C50 1.202 . S
O66 U46 2.455 . S
O66 C63 1.301 . S
O67 U46 2.449 . S
O67 C63 1.282 . S
H68 C41 0.931 . S
H69 C43 0.929 . S
H70 C44 0.930 . S
H71 C45 0.931 . S
H72 C52 0.932 . S
H73 C53 0.930 . S
H74 C54 0.929 . S
H75 C56 0.930 . S
H76 C58 0.932 . S
H77 C59 0.929 . S
H78 C60 0.928 . S
H79 C62 0.932 . S
C80 C81 1.264 . S
C80 C85 1.479 . S
C80 C90 1.465 . S
C81 C80 1.264 . S
C81 C83 1.339 . S
C81 H108 0.931 . S
C82 C83 1.395 . S
C82 C84 1.320 . S
C83 C81 1.339 . S
C83 C82 1.395 . S
C83 H109 0.929 . S
C84 C82 1.320 . S
C84 C85 1.405 . S
C84 H110 0.930 . S
C85 C80 1.479 . S
C85 C84 1.405 . S
C85 H111 0.931 . S
U86 O87 2.454 . S
U86 O88 2.458 . S
U86 C89 2.984 . S
U86 C90 2.847 . S
U86 C103 2.882 . S
U86 O104 2.441 . S
U86 O105 2.420 . S
U86 O106 2.455 . S
U86 O107 2.449 . S
O87 U86 2.454 . S
O87 C89 1.353 . S
O88 U86 2.458 . S
O88 C89 1.286 . S
C89 U86 2.984 . S
C89 O87 1.353 . S
C89 O88 1.286 . S
C89 C91 1.363 . S
C90 C80 1.465 . S
C90 U86 2.847 . S
C90 O104 1.249 . S
C90 O105 1.202 . S
C91 C89 1.363 . S
C91 C93 1.408 . S
C91 C96 1.342 . S
C92 C93 1.310 . S
C92 C95 1.461 . S
C92 H112 0.932 . S
C93 C91 1.408 . S
C93 C92 1.310 . S
C93 H113 0.930 . S
C94 C95 1.474 . S
C94 C96 1.285 . S
C94 H114 0.929 . S
C95 C92 1.461 . S
C95 C94 1.474 . S
C96 C91 1.342 . S
C96 C94 1.285 . S
C96 H115 0.930 . S
C97 C100 1.424 . S
C97 C102 1.245 . S
C97 C103 1.428 . S
C98 C101 1.260 . S
C98 C102 1.477 . S
C98 H116 0.932 . S
C99 C100 1.384 . S
C99 C101 1.479 . S
C99 H117 0.929 . S
C100 C97 1.424 . S
C100 C99 1.384 . S
C100 H118 0.928 . S
C101 C98 1.260 . S
C101 C99 1.479 . S
C102 C97 1.245 . S
C102 C98 1.477 . S
C102 H119 0.932 . S
C103 U86 2.882 . S
C103 C97 1.428 . S
C103 O106 1.301 . S
C103 O107 1.282 . S
O104 U86 2.441 . S
O104 C90 1.249 . S
O105 U86 2.420 . S
O105 C90 1.202 . S
O106 U86 2.455 . S
O106 C103 1.301 . S
O107 U86 2.449 . S
O107 C103 1.282 . S
H108 C81 0.931 . S
H109 C83 0.929 . S
H110 C84 0.930 . S
H111 C85 0.931 . S
H112 C92 0.932 . S
H113 C93 0.930 . S
H114 C94 0.929 . S
H115 C96 0.930 . S
H116 C98 0.932 . S
H117 C99 0.929 . S
H118 C100 0.928 . S
H119 C102 0.932 . S
C120 C121 1.264 . S
C120 C125 1.479 . S
C120 C130 1.465 . S
C121 C120 1.264 . S
C121 C123 1.339 . S
C121 H148 0.931 . S
C122 C123 1.395 . S
C122 C124 1.320 . S
C123 C121 1.339 . S
C123 C122 1.395 . S
C123 H149 0.929 . S
C124 C122 1.320 . S
C124 C125 1.405 . S
C124 H150 0.930 . S
C125 C120 1.479 . S
C125 C124 1.405 . S
C125 H151 0.931 . S
U126 O127 2.454 . S
U126 O128 2.458 . S
U126 C129 2.984 . S
U126 C130 2.847 . S
U126 C143 2.882 . S
U126 O144 2.441 . S
U126 O145 2.420 . S
U126 O146 2.455 . S
U126 O147 2.449 . S
O127 U126 2.454 . S
O127 C129 1.353 . S
O128 U126 2.458 . S
O128 C129 1.286 . S
C129 U126 2.984 . S
C129 O127 1.353 . S
C129 O128 1.286 . S
C129 C131 1.363 . S
C130 C120 1.465 . S
C130 U126 2.847 . S
C130 O144 1.249 . S
C130 O145 1.202 . S
C131 C129 1.363 . S
C131 C133 1.408 . S
C131 C136 1.342 . S
C132 C133 1.310 . S
C132 C135 1.461 . S
C132 H152 0.932 . S
C133 C131 1.408 . S
C133 C132 1.310 . S
C133 H153 0.930 . S
C134 C135 1.474 . S
C134 C136 1.285 . S
C134 H154 0.929 . S
C135 C132 1.461 . S
C135 C134 1.474 . S
C136 C131 1.342 . S
C136 C134 1.285 . S
C136 H155 0.930 . S
C137 C140 1.424 . S
C137 C142 1.245 . S
C137 C143 1.428 . S
C138 C141 1.260 . S
C138 C142 1.477 . S
C138 H156 0.932 . S
C139 C140 1.384 . S
C139 C141 1.479 . S
C139 H157 0.929 . S
C140 C137 1.424 . S
C140 C139 1.384 . S
C140 H158 0.928 . S
C141 C138 1.260 . S
C141 C139 1.479 . S
C142 C137 1.245 . S
C142 C138 1.477 . S
C142 H159 0.932 . S
C143 U126 2.882 . S
C143 C137 1.428 . S
C143 O146 1.301 . S
C143 O147 1.282 . S
O144 U126 2.441 . S
O144 C130 1.249 . S
O145 U126 2.420 . S
O145 C130 1.202 . S
O146 U126 2.455 . S
O146 C143 1.301 . S
O147 U126 2.449 . S
O147 C143 1.282 . S
H148 C121 0.931 . S
H149 C123 0.929 . S
H150 C124 0.930 . S
H151 C125 0.931 . S
H152 C132 0.932 . S
H153 C133 0.930 . S
H154 C134 0.929 . S
H155 C136 0.930 . S
H156 C138 0.932 . S
H157 C139 0.929 . S
H158 C140 0.928 . S
H159 C142 0.932 . S
C160 C161 1.264 . S
C160 C165 1.479 . S
C160 C170 1.465 . S
C161 C160 1.264 . S
C161 C163 1.339 . S
C161 H188 0.931 . S
C162 C163 1.395 . S
C162 C164 1.320 . S
C163 C161 1.339 . S
C163 C162 1.395 . S
C163 H189 0.929 . S
C164 C162 1.320 . S
C164 C165 1.405 . S
C164 H190 0.930 . S
C165 C160 1.479 . S
C165 C164 1.405 . S
C165 H191 0.931 . S
U166 O167 2.454 . S
U166 O168 2.458 . S
U166 C169 2.984 . S
U166 C170 2.847 . S
U166 C183 2.882 . S
U166 O184 2.441 . S
U166 O185 2.420 . S
U166 O186 2.455 . S
U166 O187 2.449 . S
O167 U166 2.454 . S
O167 C169 1.353 . S
O168 U166 2.458 . S
O168 C169 1.286 . S
C169 U166 2.984 . S
C169 O167 1.353 . S
C169 O168 1.286 . S
C169 C171 1.363 . S
C170 C160 1.465 . S
C170 U166 2.847 . S
C170 O184 1.249 . S
C170 O185 1.202 . S
C171 C169 1.363 . S
C171 C173 1.408 . S
C171 C176 1.342 . S
C172 C173 1.310 . S
C172 C175 1.461 . S
C172 H192 0.932 . S
C173 C171 1.408 . S
C173 C172 1.310 . S
C173 H193 0.930 . S
C174 C175 1.474 . S
C174 C176 1.285 . S
C174 H194 0.929 . S
C175 C172 1.461 . S
C175 C174 1.474 . S
C176 C171 1.342 . S
C176 C174 1.285 . S
C176 H195 0.930 . S
C177 C180 1.424 . S
C177 C182 1.245 . S
C177 C183 1.428 . S
C178 C181 1.260 . S
C178 C182 1.477 . S
C178 H196 0.932 . S
C179 C180 1.384 . S
C179 C181 1.479 . S
C179 H197 0.929 . S
C180 C177 1.424 . S
C180 C179 1.384 . S
C180 H198 0.928 . S
C181 C178 1.260 . S
C181 C179 1.479 . S
C182 C177 1.245 . S
C182 C178 1.477 . S
C182 H199 0.932 . S
C183 U166 2.882 . S
C183 C177 1.428 . S
C183 O186 1.301 . S
C183 O187 1.282 . S
O184 U166 2.441 . S
O184 C170 1.249 . S
O185 U166 2.420 . S
O185 C170 1.202 . S
O186 U166 2.455 . S
O186 C183 1.301 . S
O187 U166 2.449 . S
O187 C183 1.282 . S
H188 C161 0.931 . S
H189 C163 0.929 . S
H190 C164 0.930 . S
H191 C165 0.931 . S
H192 C172 0.932 . S
H193 C173 0.930 . S
H194 C174 0.929 . S
H195 C176 0.930 . S
H196 C178 0.932 . S
H197 C179 0.929 . S
H198 C180 0.928 . S
H199 C182 0.932 . S
C200 C201 1.264 . S
C200 C205 1.479 . S
C200 C210 1.465 . S
C201 C200 1.264 . S
C201 C203 1.339 . S
C201 H228 0.931 . S
C202 C203 1.395 . S
C202 C204 1.320 . S
C203 C201 1.339 . S
C203 C202 1.395 . S
C203 H229 0.929 . S
C204 C202 1.320 . S
C204 C205 1.405 . S
C204 H230 0.930 . S
C205 C200 1.479 . S
C205 C204 1.405 . S
C205 H231 0.931 . S
U206 O207 2.454 . S
U206 O208 2.458 . S
U206 C209 2.984 . S
U206 C210 2.847 . S
U206 C223 2.882 . S
U206 O224 2.441 . S
U206 O225 2.420 . S
U206 O226 2.455 . S
U206 O227 2.449 . S
O207 U206 2.454 . S
O207 C209 1.353 . S
O208 U206 2.458 . S
O208 C209 1.286 . S
C209 U206 2.984 . S
C209 O207 1.353 . S
C209 O208 1.286 . S
C209 C211 1.363 . S
C210 C200 1.465 . S
C210 U206 2.847 . S
C210 O224 1.249 . S
C210 O225 1.202 . S
C211 C209 1.363 . S
C211 C213 1.408 . S
C211 C216 1.342 . S
C212 C213 1.310 . S
C212 C215 1.461 . S
C212 H232 0.932 . S
C213 C211 1.408 . S
C213 C212 1.310 . S
C213 H233 0.930 . S
C214 C215 1.474 . S
C214 C216 1.285 . S
C214 H234 0.929 . S
C215 C212 1.461 . S
C215 C214 1.474 . S
C216 C211 1.342 . S
C216 C214 1.285 . S
C216 H235 0.930 . S
C217 C220 1.424 . S
C217 C222 1.245 . S
C217 C223 1.428 . S
C218 C221 1.260 . S
C218 C222 1.477 . S
C218 H236 0.932 . S
C219 C220 1.384 . S
C219 C221 1.479 . S
C219 H237 0.929 . S
C220 C217 1.424 . S
C220 C219 1.384 . S
C220 H238 0.928 . S
C221 C218 1.260 . S
C221 C219 1.479 . S
C222 C217 1.245 . S
C222 C218 1.477 . S
C222 H239 0.932 . S
C223 U206 2.882 . S
C223 C217 1.428 . S
C223 O226 1.301 . S
C223 O227 1.282 . S
O224 U206 2.441 . S
O224 C210 1.249 . S
O225 U206 2.420 . S
O225 C210 1.202 . S
O226 U206 2.455 . S
O226 C223 1.301 . S
O227 U206 2.449 . S
O227 C223 1.282 . S
H228 C201 0.931 . S
H229 C203 0.929 . S
H230 C204 0.930 . S
H231 C205 0.931 . S
H232 C212 0.932 . S
H233 C213 0.930 . S
H234 C214 0.929 . S
H235 C216 0.930 . S
H236 C218 0.932 . S
H237 C219 0.929 . S
H238 C220 0.928 . S
H239 C222 0.932 . S
C240 C241 1.264 . S
C240 C245 1.479 . S
C240 C250 1.465 . S
C241 C240 1.264 . S
C241 C243 1.339 . S
C241 H268 0.931 . S
C242 C243 1.395 . S
C242 C244 1.320 . S
C243 C241 1.339 . S
C243 C242 1.395 . S
C243 H269 0.929 . S
C244 C242 1.320 . S
C244 C245 1.405 . S
C244 H270 0.930 . S
C245 C240 1.479 . S
C245 C244 1.405 . S
C245 H271 0.931 . S
U246 O247 2.454 . S
U246 O248 2.458 . S
U246 C249 2.984 . S
U246 C250 2.847 . S
U246 C263 2.882 . S
U246 O264 2.441 . S
U246 O265 2.420 . S
U246 O266 2.455 . S
U246 O267 2.449 . S
O247 U246 2.454 . S
O247 C249 1.353 . S
O248 U246 2.458 . S
O248 C249 1.286 . S
C249 U246 2.984 . S
C249 O247 1.353 . S
C249 O248 1.286 . S
C249 C251 1.363 . S
C250 C240 1.465 . S
C250 U246 2.847 . S
C250 O264 1.249 . S
C250 O265 1.202 . S
C251 C249 1.363 . S
C251 C253 1.408 . S
C251 C256 1.342 . S
C252 C253 1.310 . S
C252 C255 1.461 . S
C252 H272 0.932 . S
C253 C251 1.408 . S
C253 C252 1.310 . S
C253 H273 0.930 . S
C254 C255 1.474 . S
C254 C256 1.285 . S
C254 H274 0.929 . S
C255 C252 1.461 . S
C255 C254 1.474 . S
C256 C251 1.342 . S
C256 C254 1.285 . S
C256 H275 0.930 . S
C257 C260 1.424 . S
C257 C262 1.245 . S
C257 C263 1.428 . S
C258 C261 1.260 . S
C258 C262 1.477 . S
C258 H276 0.932 . S
C259 C260 1.384 . S
C259 C261 1.479 . S
C259 H277 0.929 . S
C260 C257 1.424 . S
C260 C259 1.384 . S
C260 H278 0.928 . S
C261 C258 1.260 . S
C261 C259 1.479 . S
C262 C257 1.245 . S
C262 C258 1.477 . S
C262 H279 0.932 . S
C263 U246 2.882 . S
C263 C257 1.428 . S
C263 O266 1.301 . S
C263 O267 1.282 . S
O264 U246 2.441 . S
O264 C250 1.249 . S
O265 U246 2.420 . S
O265 C250 1.202 . S
O266 U246 2.455 . S
O266 C263 1.301 . S
O267 U246 2.449 . S
O267 C263 1.282 . S
H268 C241 0.931 . S
H269 C243 0.929 . S
H270 C244 0.930 . S
H271 C245 0.931 . S
H272 C252 0.932 . S
H273 C253 0.930 . S
H274 C254 0.929 . S
H275 C256 0.930 . S
H276 C258 0.932 . S
H277 C259 0.929 . S
H278 C260 0.928 . S
H279 C262 0.932 . S
C280 C281 1.264 . S
C280 C285 1.479 . S
C280 C290 1.465 . S
C281 C280 1.264 . S
C281 C283 1.339 . S
C281 H308 0.931 . S
C282 C283 1.395 . S
C282 C284 1.320 . S
C283 C281 1.339 . S
C283 C282 1.395 . S
C283 H309 0.929 . S
C284 C282 1.320 . S
C284 C285 1.405 . S
C284 H310 0.930 . S
C285 C280 1.479 . S
C285 C284 1.405 . S
C285 H311 0.931 . S
U286 O287 2.454 . S
U286 O288 2.458 . S
U286 C289 2.984 . S
U286 C290 2.847 . S
U286 C303 2.882 . S
U286 O304 2.441 . S
U286 O305 2.420 . S
U286 O306 2.455 . S
U286 O307 2.449 . S
O287 U286 2.454 . S
O287 C289 1.353 . S
O288 U286 2.458 . S
O288 C289 1.286 . S
C289 U286 2.984 . S
C289 O287 1.353 . S
C289 O288 1.286 . S
C289 C291 1.363 . S
C290 C280 1.465 . S
C290 U286 2.847 . S
C290 O304 1.249 . S
C290 O305 1.202 . S
C291 C289 1.363 . S
C291 C293 1.408 . S
C291 C296 1.342 . S
C292 C293 1.310 . S
C292 C295 1.461 . S
C292 H312 0.932 . S
C293 C291 1.408 . S
C293 C292 1.310 . S
C293 H313 0.930 . S
C294 C295 1.474 . S
C294 C296 1.285 . S
C294 H314 0.929 . S
C295 C292 1.461 . S
C295 C294 1.474 . S
C296 C291 1.342 . S
C296 C294 1.285 . S
C296 H315 0.930 . S
C297 C300 1.424 . S
C297 C302 1.245 . S
C297 C303 1.428 . S
C298 C301 1.260 . S
C298 C302 1.477 . S
C298 H316 0.932 . S
C299 C300 1.384 . S
C299 C301 1.479 . S
C299 H317 0.929 . S
C300 C297 1.424 . S
C300 C299 1.384 . S
C300 H318 0.928 . S
C301 C298 1.260 . S
C301 C299 1.479 . S
C302 C297 1.245 . S
C302 C298 1.477 . S
C302 H319 0.932 . S
C303 U286 2.882 . S
C303 C297 1.428 . S
C303 O306 1.301 . S
C303 O307 1.282 . S
O304 U286 2.441 . S
O304 C290 1.249 . S
O305 U286 2.420 . S
O305 C290 1.202 . S
O306 U286 2.455 . S
O306 C303 1.301 . S
O307 U286 2.449 . S
O307 C303 1.282 . S
H308 C281 0.931 . S
H309 C283 0.929 . S
H310 C284 0.930 . S
H311 C285 0.931 . S
H312 C292 0.932 . S
H313 C293 0.930 . S
H314 C294 0.929 . S
H315 C296 0.930 . S
H316 C298 0.932 . S
H317 C299 0.929 . S
H318 C300 0.928 . S
H319 C302 0.932 . S
Zn320 O326 1.969 1_545 S
Zn320 O327 1.965 1_545 S
Zn320 O331 2.024 . S
Zn320 O336 1.969 . S
Zn321 O328 1.969 . S
Zn321 O334 1.969 1_565 S
Zn321 O335 1.965 1_665 S
Zn321 O337 2.024 . S
C322 O323 1.229 . S
C322 O331 1.058 . S
O323 C322 1.229 . S
C324 O325 1.229 . S
C324 O337 1.058 . S
O325 C324 1.229 . S
O326 Zn320 1.969 1_565 S
O326 C329 1.267 . S
O327 Zn320 1.965 1_565 S
O327 C338 1.260 1_455 S
O328 Zn321 1.969 . S
O328 C338 1.258 . S
C329 O326 1.267 . S
C329 O330 1.228 . S
O330 C329 1.228 . S
O331 Zn320 2.024 . S
O331 C322 1.058 . S
C332 O333 1.228 . S
C332 O334 1.267 . S
O333 C332 1.228 . S
O334 Zn321 1.969 1_545 S
O334 C332 1.267 . S
O335 Zn321 1.965 1_445 S
O335 C339 1.260 . S
O336 Zn320 1.969 . S
O336 C339 1.258 . S
O337 Zn321 2.024 . S
O337 C324 1.058 . S
C338 O327 1.260 1_655 S
C338 O328 1.258 . S
C339 O335 1.260 . S
C339 O336 1.258 . S
Zn340 O346 1.969 . S
Zn340 O347 1.965 1_565 S
Zn340 O351 2.024 . S
Zn340 O356 1.969 1_556 S
Zn341 O348 1.969 . S
Zn341 O354 1.969 . S
Zn341 O355 1.965 1_545 S
Zn341 O357 2.024 . S
C342 O343 1.229 . S
C342 O351 1.058 . S
O343 C342 1.229 . S
C344 O345 1.229 . S
C344 O357 1.058 . S
O345 C344 1.229 . S
O346 Zn340 1.969 . S
O346 C349 1.267 . S
O347 Zn340 1.965 1_545 S
O347 C358 1.260 . S
O348 Zn341 1.969 . S
O348 C358 1.258 1_554 S
C349 O346 1.267 . S
C349 O350 1.228 . S
O350 C349 1.228 . S
O351 Zn340 2.024 . S
O351 C342 1.058 . S
C352 O353 1.228 . S
C352 O354 1.267 . S
O353 C352 1.228 . S
O354 Zn341 1.969 . S
O354 C352 1.267 . S
O355 Zn341 1.965 1_565 S
O355 C359 1.260 . S
O356 Zn340 1.969 1_554 S
O356 C359 1.258 . S
O357 Zn341 2.024 . S
O357 C344 1.058 . S
C358 O347 1.260 . S
C358 O348 1.258 1_556 S
C359 O355 1.260 . S
C359 O356 1.258 . S
Zn360 O366 1.969 . S
Zn360 O367 1.965 . S
Zn360 O371 2.024 . S
Zn360 O376 1.969 . S
Zn361 O368 1.969 . S
Zn361 O374 1.969 . S
Zn361 O375 1.965 . S
Zn361 O377 2.024 . S
C362 O363 1.229 . S
C362 O371 1.058 . S
O363 C362 1.229 . S
C364 O365 1.229 . S
C364 O377 1.058 . S
O365 C364 1.229 . S
O366 Zn360 1.969 . S
O366 C369 1.267 . S
O367 Zn360 1.965 . S
O367 C378 1.260 . S
O368 Zn361 1.969 . S
O368 C378 1.258 . S
C369 O366 1.267 . S
C369 O370 1.228 . S
O370 C369 1.228 . S
O371 Zn360 2.024 . S
O371 C362 1.058 . S
C372 O373 1.228 . S
C372 O374 1.267 . S
O373 C372 1.228 . S
O374 Zn361 1.969 . S
O374 C372 1.267 . S
O375 Zn361 1.965 . S
O375 C379 1.260 . S
O376 Zn360 1.969 . S
O376 C379 1.258 . S
O377 Zn361 2.024 . S
O377 C364 1.058 . S
C378 O367 1.260 . S
C378 O368 1.258 . S
C379 O375 1.260 . S
C379 O376 1.258 . S
Zn380 O386 1.969 . S
Zn380 O387 1.965 1_556 S
Zn380 O391 2.024 . S
Zn380 O396 1.969 1_655 S
Zn381 O388 1.969 . S
Zn381 O394 1.969 . S
Zn381 O395 1.965 1_554 S
Zn381 O397 2.024 . S
C382 O383 1.229 . S
C382 O391 1.058 . S
O383 C382 1.229 . S
C384 O385 1.229 . S
C384 O397 1.058 . S
O385 C384 1.229 . S
O386 Zn380 1.969 . S
O386 C389 1.267 . S
O387 Zn380 1.965 1_554 S
O387 C398 1.260 . S
O388 Zn381 1.969 . S
O388 C398 1.258 1_455 S
C389 O386 1.267 . S
C389 O390 1.228 . S
O390 C389 1.228 . S
O391 Zn380 2.024 . S
O391 C382 1.058 . S
C392 O393 1.228 . S
C392 O394 1.267 . S
O393 C392 1.228 . S
O394 Zn381 1.969 . S
O394 C392 1.267 . S
O395 Zn381 1.965 1_556 S
O395 C399 1.260 . S
O396 Zn380 1.969 1_455 S
O396 C399 1.258 . S
O397 Zn381 2.024 . S
O397 C384 1.058 . S
C398 O387 1.260 . S
C398 O388 1.258 1_655 S
C399 O395 1.260 . S
C399 O396 1.258 . S
H400 C406 0.930 . S
H401 C409 0.930 . S
H402 C410 0.930 . S
H403 C411 0.930 . S
H404 C414 0.930 . S
H405 C415 0.930 . S
C406 H400 0.930 . S
C406 C407 1.355 . S
C406 C408 1.415 . S
C407 C406 1.355 . S
C407 C409 1.419 . S
C408 C406 1.415 . S
C408 C413 1.425 . S
C408 C415 1.409 . S
C409 H401 0.930 . S
C409 C407 1.419 . S
C409 C410 1.362 . S
C410 H402 0.930 . S
C410 C409 1.362 . S
C410 C413 1.409 . S
C411 H403 0.930 . S
C411 C412 1.355 . S
C411 C413 1.415 . S
C412 C411 1.355 . S
C412 C414 1.419 . S
C413 C408 1.425 . S
C413 C410 1.409 . S
C413 C411 1.415 . S
C414 H404 0.930 . S
C414 C412 1.419 . S
C414 C415 1.362 . S
C415 H405 0.930 . S
C415 C408 1.409 . S
C415 C414 1.362 . S
H416 C422 0.930 . S
H417 C425 0.930 . S
H418 C426 0.930 . S
H419 C427 0.930 . S
H420 C430 0.930 . S
H421 C431 0.930 . S
C422 H416 0.930 . S
C422 C423 1.355 . S
C422 C424 1.415 . S
C423 C422 1.355 . S
C423 C425 1.419 . S
C424 C422 1.415 . S
C424 C429 1.425 . S
C424 C431 1.409 . S
C425 H417 0.930 . S
C425 C423 1.419 . S
C425 C426 1.362 . S
C426 H418 0.930 . S
C426 C425 1.362 . S
C426 C429 1.409 . S
C427 H419 0.930 . S
C427 C428 1.355 . S
C427 C429 1.415 . S
C428 C427 1.355 . S
C428 C430 1.419 . S
C429 C424 1.425 . S
C429 C426 1.409 . S
C429 C427 1.415 . S
C430 H420 0.930 . S
C430 C428 1.419 . S
C430 C431 1.362 . S
C431 H421 0.930 . S
C431 C424 1.409 . S
C431 C430 1.362 . S
H432 C438 0.930 . S
H433 C441 0.930 . S
H434 C442 0.930 . S
H435 C443 0.930 . S
H436 C446 0.930 . S
H437 C447 0.930 . S
C438 H432 0.930 . S
C438 C439 1.355 . S
C438 C440 1.415 . S
C439 C438 1.355 . S
C439 C441 1.419 . S
C440 C438 1.415 . S
C440 C445 1.425 . S
C440 C447 1.409 . S
C441 H433 0.930 . S
C441 C439 1.419 . S
C441 C442 1.362 . S
C442 H434 0.930 . S
C442 C441 1.362 . S
C442 C445 1.409 . S
C443 H435 0.930 . S
C443 C444 1.355 . S
C443 C445 1.415 . S
C444 C443 1.355 . S
C444 C446 1.419 . S
C445 C440 1.425 . S
C445 C442 1.409 . S
C445 C443 1.415 . S
C446 H436 0.930 . S
C446 C444 1.419 . S
C446 C447 1.362 . S
C447 H437 0.930 . S
C447 C440 1.409 . S
C447 C446 1.362 . S
H448 C454 0.930 . S
H449 C457 0.930 . S
H450 C458 0.930 . S
H451 C459 0.930 . S
H452 C462 0.930 . S
H453 C463 0.930 . S
C454 H448 0.930 . S
C454 C455 1.355 . S
C454 C456 1.415 . S
C455 C454 1.355 . S
C455 C457 1.419 . S
C456 C454 1.415 . S
C456 C461 1.425 . S
C456 C463 1.409 . S
C457 H449 0.930 . S
C457 C455 1.419 . S
C457 C458 1.362 . S
C458 H450 0.930 . S
C458 C457 1.362 . S
C458 C461 1.409 . S
C459 H451 0.930 . S
C459 C460 1.355 . S
C459 C461 1.415 . S
C460 C459 1.355 . S
C460 C462 1.419 . S
C461 C456 1.425 . S
C461 C458 1.409 . S
C461 C459 1.415 . S
C462 H452 0.930 . S
C462 C460 1.419 . S
C462 C463 1.362 . S
C463 H453 0.930 . S
C463 C456 1.409 . S
C463 C462 1.362 . S
H464 C470 0.930 . S
H465 C473 0.930 . S
H466 C474 0.930 . S
H467 C475 0.930 . S
H468 C478 0.930 . S
H469 C479 0.930 . S
C470 H464 0.930 . S
C470 C471 1.355 . S
C470 C472 1.415 . S
C471 C470 1.355 . S
C471 C473 1.419 . S
C472 C470 1.415 . S
C472 C477 1.425 . S
C472 C479 1.409 . S
C473 H465 0.930 . S
C473 C471 1.419 . S
C473 C474 1.362 . S
C474 H466 0.930 . S
C474 C473 1.362 . S
C474 C477 1.409 . S
C475 H467 0.930 . S
C475 C476 1.355 . S
C475 C477 1.415 . S
C476 C475 1.355 . S
C476 C478 1.419 . S
C477 C472 1.425 . S
C477 C474 1.409 . S
C477 C475 1.415 . S
C478 H468 0.930 . S
C478 C476 1.419 . S
C478 C479 1.362 . S
C479 H469 0.930 . S
C479 C472 1.409 . S
C479 C478 1.362 . S
H480 C486 0.930 . S
H481 C489 0.930 . S
H482 C490 0.930 . S
H483 C491 0.930 . S
H484 C494 0.930 . S
H485 C495 0.930 . S
C486 H480 0.930 . S
C486 C487 1.355 . S
C486 C488 1.415 . S
C487 C486 1.355 . S
C487 C489 1.419 . S
C488 C486 1.415 . S
C488 C493 1.425 . S
C488 C495 1.409 . S
C489 H481 0.930 . S
C489 C487 1.419 . S
C489 C490 1.362 . S
C490 H482 0.930 . S
C490 C489 1.362 . S
C490 C493 1.409 . S
C491 H483 0.930 . S
C491 C492 1.355 . S
C491 C493 1.415 . S
C492 C491 1.355 . S
C492 C494 1.419 . S
C493 C488 1.425 . S
C493 C490 1.409 . S
C493 C491 1.415 . S
C494 H484 0.930 . S
C494 C492 1.419 . S
C494 C495 1.362 . S
C495 H485 0.930 . S
C495 C488 1.409 . S
C495 C494 1.362 . S
H496 C502 0.930 . S
H497 C505 0.930 . S
H498 C506 0.930 . S
H499 C507 0.930 . S
H500 C510 0.930 . S
H501 C511 0.930 . S
C502 H496 0.930 . S
C502 C503 1.355 . S
C502 C504 1.415 . S
C503 C502 1.355 . S
C503 C505 1.419 . S
C504 C502 1.415 . S
C504 C509 1.425 . S
C504 C511 1.409 . S
C505 H497 0.930 . S
C505 C503 1.419 . S
C505 C506 1.362 . S
C506 H498 0.930 . S
C506 C505 1.362 . S
C506 C509 1.409 . S
C507 H499 0.930 . S
C507 C508 1.355 . S
C507 C509 1.415 . S
C508 C507 1.355 . S
C508 C510 1.419 . S
C509 C504 1.425 . S
C509 C506 1.409 . S
C509 C507 1.415 . S
C510 H500 0.930 . S
C510 C508 1.419 . S
C510 C511 1.362 . S
C511 H501 0.930 . S
C511 C504 1.409 . S
C511 C510 1.362 . S
H512 C518 0.930 . S
H513 C521 0.930 . S
H514 C522 0.930 . S
H515 C523 0.930 . S
H516 C526 0.930 . S
H517 C527 0.930 . S
C518 H512 0.930 . S
C518 C519 1.355 . S
C518 C520 1.415 . S
C519 C518 1.355 . S
C519 C521 1.419 . S
C520 C518 1.415 . S
C520 C525 1.425 . S
C520 C527 1.409 . S
C521 H513 0.930 . S
C521 C519 1.419 . S
C521 C522 1.362 . S
C522 H514 0.930 . S
C522 C521 1.362 . S
C522 C525 1.409 . S
C523 H515 0.930 . S
C523 C524 1.355 . S
C523 C525 1.415 . S
C524 C523 1.355 . S
C524 C526 1.419 . S
C525 C520 1.425 . S
C525 C522 1.409 . S
C525 C523 1.415 . S
C526 H516 0.930 . S
C526 C524 1.419 . S
C526 C527 1.362 . S
C527 H517 0.930 . S
C527 C520 1.409 . S
C527 C526 1.362 . S
H528 C534 0.930 . S
H529 C537 0.930 . S
H530 C538 0.930 . S
H531 C539 0.930 . S
H532 C542 0.930 . S
H533 C543 0.930 . S
C534 H528 0.930 . S
C534 C535 1.355 . S
C534 C536 1.415 . S
C535 C534 1.355 . S
C535 C537 1.419 . S
C536 C534 1.415 . S
C536 C541 1.425 . S
C536 C543 1.409 . S
C537 H529 0.930 . S
C537 C535 1.419 . S
C537 C538 1.362 . S
C538 H530 0.930 . S
C538 C537 1.362 . S
C538 C541 1.409 . S
C539 H531 0.930 . S
C539 C540 1.355 . S
C539 C541 1.415 . S
C540 C539 1.355 . S
C540 C542 1.419 . S
C541 C536 1.425 . S
C541 C538 1.409 . S
C541 C539 1.415 . S
C542 H532 0.930 . S
C542 C540 1.419 . S
C542 C543 1.362 . S
C543 H533 0.930 . S
C543 C536 1.409 . S
C543 C542 1.362 . S
H544 C550 0.930 . S
H545 C553 0.930 . S
H546 C554 0.930 . S
H547 C555 0.930 . S
H548 C558 0.930 . S
H549 C559 0.930 . S
C550 H544 0.930 . S
C550 C551 1.355 . S
C550 C552 1.415 . S
C551 C550 1.355 . S
C551 C553 1.419 . S
C552 C550 1.415 . S
C552 C557 1.425 . S
C552 C559 1.409 . S
C553 H545 0.930 . S
C553 C551 1.419 . S
C553 C554 1.362 . S
C554 H546 0.930 . S
C554 C553 1.362 . S
C554 C557 1.409 . S
C555 H547 0.930 . S
C555 C556 1.355 . S
C555 C557 1.415 . S
C556 C555 1.355 . S
C556 C558 1.419 . S
C557 C552 1.425 . S
C557 C554 1.409 . S
C557 C555 1.415 . S
C558 H548 0.930 . S
C558 C556 1.419 . S
C558 C559 1.362 . S
C559 H549 0.930 . S
C559 C552 1.409 . S
C559 C558 1.362 . S
H560 C566 0.930 . S
H561 C569 0.930 . S
H562 C570 0.930 . S
H563 C571 0.930 . S
H564 C574 0.930 . S
H565 C575 0.930 . S
C566 H560 0.930 . S
C566 C567 1.355 . S
C566 C568 1.415 . S
C567 C566 1.355 . S
C567 C569 1.419 . S
C568 C566 1.415 . S
C568 C573 1.425 . S
C568 C575 1.409 . S
C569 H561 0.930 . S
C569 C567 1.419 . S
C569 C570 1.362 . S
C570 H562 0.930 . S
C570 C569 1.362 . S
C570 C573 1.409 . S
C571 H563 0.930 . S
C571 C572 1.355 . S
C571 C573 1.415 . S
C572 C571 1.355 . S
C572 C574 1.419 . S
C573 C568 1.425 . S
C573 C570 1.409 . S
C573 C571 1.415 . S
C574 H564 0.930 . S
C574 C572 1.419 . S
C574 C575 1.362 . S
C575 H565 0.930 . S
C575 C568 1.409 . S
C575 C574 1.362 . S
H576 C582 0.930 . S
H577 C585 0.930 . S
H578 C586 0.930 . S
H579 C587 0.930 . S
H580 C590 0.930 . S
H581 C591 0.930 . S
C582 H576 0.930 . S
C582 C583 1.355 . S
C582 C584 1.415 . S
C583 C582 1.355 . S
C583 C585 1.419 . S
C584 C582 1.415 . S
C584 C589 1.425 . S
C584 C591 1.409 . S
C585 H577 0.930 . S
C585 C583 1.419 . S
C585 C586 1.362 . S
C586 H578 0.930 . S
C586 C585 1.362 . S
C586 C589 1.409 . S
C587 H579 0.930 . S
C587 C588 1.355 . S
C587 C589 1.415 . S
C588 C587 1.355 . S
C588 C590 1.419 . S
C589 C584 1.425 . S
C589 C586 1.409 . S
C589 C587 1.415 . S
C590 H580 0.930 . S
C590 C588 1.419 . S
C590 C591 1.362 . S
C591 H581 0.930 . S
C591 C584 1.409 . S
C591 C590 1.362 . S
H592 C598 0.930 . S
H593 C601 0.930 . S
H594 C602 0.930 . S
H595 C603 0.930 . S
H596 C606 0.930 1_545 S
H597 C607 0.930 . S
C598 H592 0.930 . S
C598 C599 1.355 . S
C598 C600 1.415 . S
C599 C598 1.355 . S
C599 C601 1.419 . S
C600 C598 1.415 . S
C600 C605 1.425 . S
C600 C607 1.409 . S
C601 H593 0.930 . S
C601 C599 1.419 . S
C601 C602 1.362 . S
C602 H594 0.930 . S
C602 C601 1.362 . S
C602 C605 1.409 . S
C603 H595 0.930 . S
C603 C604 1.355 . S
C603 C605 1.415 . S
C604 C603 1.355 . S
C604 C606 1.419 . S
C605 C600 1.425 . S
C605 C602 1.409 . S
C605 C603 1.415 . S
C606 H596 0.930 1_565 S
C606 C604 1.419 . S
C606 C607 1.362 . S
C607 H597 0.930 . S
C607 C600 1.409 . S
C607 C606 1.362 . S
H608 C614 0.930 . S
H609 C617 0.930 . S
H610 C618 0.930 . S
H611 C619 0.930 . S
H612 C622 0.930 . S
H613 C623 0.930 . S
C614 H608 0.930 . S
C614 C615 1.355 . S
C614 C616 1.415 . S
C615 C614 1.355 . S
C615 C617 1.419 . S
C616 C614 1.415 . S
C616 C621 1.425 . S
C616 C623 1.409 . S
C617 H609 0.930 . S
C617 C615 1.419 . S
C617 C618 1.362 . S
C618 H610 0.930 . S
C618 C617 1.362 . S
C618 C621 1.409 . S
C619 H611 0.930 . S
C619 C620 1.355 . S
C619 C621 1.415 . S
C620 C619 1.355 . S
C620 C622 1.419 . S
C621 C616 1.425 . S
C621 C618 1.409 . S
C621 C619 1.415 . S
C622 H612 0.930 . S
C622 C620 1.419 . S
C622 C623 1.362 . S
C623 H613 0.930 . S
C623 C616 1.409 . S
C623 C622 1.362 . S
H624 C630 0.930 . S
H625 C633 0.930 . S
H626 C634 0.930 . S
H627 C635 0.930 . S
H628 C638 0.930 . S
H629 C639 0.930 . S
C630 H624 0.930 . S
C630 C631 1.355 . S
C630 C632 1.415 . S
C631 C630 1.355 . S
C631 C633 1.419 . S
C632 C630 1.415 . S
C632 C637 1.425 . S
C632 C639 1.409 . S
C633 H625 0.930 . S
C633 C631 1.419 . S
C633 C634 1.362 . S
C634 H626 0.930 . S
C634 C633 1.362 . S
C634 C637 1.409 . S
C635 H627 0.930 . S
C635 C636 1.355 . S
C635 C637 1.415 . S
C636 C635 1.355 . S
C636 C638 1.419 . S
C637 C632 1.425 . S
C637 C634 1.409 . S
C637 C635 1.415 . S
C638 H628 0.930 . S
C638 C636 1.419 . S
C638 C639 1.362 . S
C639 H629 0.930 . S
C639 C632 1.409 . S
C639 C638 1.362 . S
H640 C646 0.930 . S
H641 C649 0.930 . S
H642 C650 0.930 . S
H643 C651 0.930 . S
H644 C654 0.930 . S
H645 C655 0.930 . S
C646 H640 0.930 . S
C646 C647 1.355 . S
C646 C648 1.415 . S
C647 C646 1.355 . S
C647 C649 1.419 . S
C648 C646 1.415 . S
C648 C653 1.425 . S
C648 C655 1.409 . S
C649 H641 0.930 . S
C649 C647 1.419 . S
C649 C650 1.362 . S
C650 H642 0.930 . S
C650 C649 1.362 . S
C650 C653 1.409 . S
C651 H643 0.930 . S
C651 C652 1.355 . S
C651 C653 1.415 . S
C652 C651 1.355 . S
C652 C654 1.419 . S
C653 C648 1.425 . S
C653 C650 1.409 . S
C653 C651 1.415 . S
C654 H644 0.930 . S
C654 C652 1.419 . S
C654 C655 1.362 . S
C655 H645 0.930 . S
C655 C648 1.409 . S
C655 C654 1.362 . S
H656 C662 0.930 . S
H657 C665 0.930 . S
H658 C666 0.930 . S
H659 C667 0.930 . S
H660 C670 0.930 . S
H661 C671 0.930 . S
C662 H656 0.930 . S
C662 C663 1.355 . S
C662 C664 1.415 . S
C663 C662 1.355 . S
C663 C665 1.419 . S
C664 C662 1.415 . S
C664 C669 1.425 . S
C664 C671 1.409 . S
C665 H657 0.930 . S
C665 C663 1.419 . S
C665 C666 1.362 . S
C666 H658 0.930 . S
C666 C665 1.362 . S
C666 C669 1.409 . S
C667 H659 0.930 . S
C667 C668 1.355 . S
C667 C669 1.415 . S
C668 C667 1.355 . S
C668 C670 1.419 . S
C669 C664 1.425 . S
C669 C666 1.409 . S
C669 C667 1.415 . S
C670 H660 0.930 . S
C670 C668 1.419 . S
C670 C671 1.362 . S
C671 H661 0.930 . S
C671 C664 1.409 . S
C671 C670 1.362 . S
H672 C678 0.930 . S
H673 C681 0.930 . S
H674 C682 0.930 . S
H675 C683 0.930 . S
H676 C686 0.930 . S
H677 C687 0.930 . S
C678 H672 0.930 . S
C678 C679 1.355 . S
C678 C680 1.415 . S
C679 C678 1.355 . S
C679 C681 1.419 . S
C680 C678 1.415 . S
C680 C685 1.425 . S
C680 C687 1.409 . S
C681 H673 0.930 . S
C681 C679 1.419 . S
C681 C682 1.362 . S
C682 H674 0.930 . S
C682 C681 1.362 . S
C682 C685 1.409 . S
C683 H675 0.930 . S
C683 C684 1.355 . S
C683 C685 1.415 . S
C684 C683 1.355 . S
C684 C686 1.419 . S
C685 C680 1.425 . S
C685 C682 1.409 . S
C685 C683 1.415 . S
C686 H676 0.930 . S
C686 C684 1.419 . S
C686 C687 1.362 . S
C687 H677 0.930 . S
C687 C680 1.409 . S
C687 C686 1.362 . S
H688 C694 0.930 . S
H689 C697 0.930 . S
H690 C698 0.930 . S
H691 C699 0.930 . S
H692 C702 0.930 . S
H693 C703 0.930 . S
C694 H688 0.930 . S
C694 C695 1.355 . S
C694 C696 1.415 . S
C695 C694 1.355 . S
C695 C697 1.419 . S
C696 C694 1.415 . S
C696 C701 1.425 . S
C696 C703 1.409 . S
C697 H689 0.930 . S
C697 C695 1.419 . S
C697 C698 1.362 . S
C698 H690 0.930 . S
C698 C697 1.362 . S
C698 C701 1.409 . S
C699 H691 0.930 . S
C699 C700 1.355 . S
C699 C701 1.415 . S
C700 C699 1.355 . S
C700 C702 1.419 . S
C701 C696 1.425 . S
C701 C698 1.409 . S
C701 C699 1.415 . S
C702 H692 0.930 . S
C702 C700 1.419 . S
C702 C703 1.362 . S
C703 H693 0.930 . S
C703 C696 1.409 . S
C703 C702 1.362 . S
H704 C710 0.930 . S
H705 C713 0.930 . S
H706 C714 0.930 . S
H707 C715 0.930 . S
H708 C718 0.930 . S
H709 C719 0.930 . S
C710 H704 0.930 . S
C710 C711 1.355 . S
C710 C712 1.415 . S
C711 C710 1.355 . S
C711 C713 1.419 . S
C712 C710 1.415 . S
C712 C717 1.425 . S
C712 C719 1.409 . S
C713 H705 0.930 . S
C713 C711 1.419 . S
C713 C714 1.362 . S
C714 H706 0.930 . S
C714 C713 1.362 . S
C714 C717 1.409 . S
C715 H707 0.930 . S
C715 C716 1.355 . S
C715 C717 1.415 . S
C716 C715 1.355 . S
C716 C718 1.419 . S
C717 C712 1.425 . S
C717 C714 1.409 . S
C717 C715 1.415 . S
C718 H708 0.930 . S
C718 C716 1.419 . S
C718 C719 1.362 . S
C719 H709 0.930 . S
C719 C712 1.409 . S
C719 C718 1.362 . S
H720 C726 0.930 . S
H721 C729 0.930 . S
H722 C730 0.930 . S
H723 C731 0.930 . S
H724 C734 0.930 . S
H725 C735 0.930 . S
C726 H720 0.930 . S
C726 C727 1.355 . S
C726 C728 1.415 . S
C727 C726 1.355 . S
C727 C729 1.419 . S
C728 C726 1.415 . S
C728 C733 1.425 . S
C728 C735 1.409 . S
C729 H721 0.930 . S
C729 C727 1.419 . S
C729 C730 1.362 . S
C730 H722 0.930 . S
C730 C729 1.362 . S
C730 C733 1.409 . S
C731 H723 0.930 . S
C731 C732 1.355 . S
C731 C733 1.415 . S
C732 C731 1.355 . S
C732 C734 1.419 . S
C733 C728 1.425 . S
C733 C730 1.409 . S
C733 C731 1.415 . S
C734 H724 0.930 . S
C734 C732 1.419 . S
C734 C735 1.362 . S
C735 H725 0.930 . S
C735 C728 1.409 . S
C735 C734 1.362 . S
H736 C742 0.930 . S
H737 C745 0.930 . S
H738 C746 0.930 . S
H739 C747 0.930 . S
H740 C750 0.930 . S
H741 C751 0.930 . S
C742 H736 0.930 . S
C742 C743 1.355 . S
C742 C744 1.415 . S
C743 C742 1.355 . S
C743 C745 1.419 . S
C744 C742 1.415 . S
C744 C749 1.425 . S
C744 C751 1.409 . S
C745 H737 0.930 . S
C745 C743 1.419 . S
C745 C746 1.362 . S
C746 H738 0.930 . S
C746 C745 1.362 . S
C746 C749 1.409 . S
C747 H739 0.930 . S
C747 C748 1.355 . S
C747 C749 1.415 . S
C748 C747 1.355 . S
C748 C750 1.419 . S
C749 C744 1.425 . S
C749 C746 1.409 . S
C749 C747 1.415 . S
C750 H740 0.930 . S
C750 C748 1.419 . S
C750 C751 1.362 . S
C751 H741 0.930 . S
C751 C744 1.409 . S
C751 C750 1.362 . S
H752 C758 0.930 . S
H753 C761 0.930 . S
H754 C762 0.930 . S
H755 C763 0.930 . S
H756 C766 0.930 . S
H757 C767 0.930 . S
C758 H752 0.930 . S
C758 C759 1.355 . S
C758 C760 1.415 . S
C759 C758 1.355 . S
C759 C761 1.419 . S
C760 C758 1.415 . S
C760 C765 1.425 . S
C760 C767 1.409 . S
C761 H753 0.930 . S
C761 C759 1.419 . S
C761 C762 1.362 . S
C762 H754 0.930 . S
C762 C761 1.362 . S
C762 C765 1.409 . S
C763 H755 0.930 . S
C763 C764 1.355 . S
C763 C765 1.415 . S
C764 C763 1.355 . S
C764 C766 1.419 . S
C765 C760 1.425 . S
C765 C762 1.409 . S
C765 C763 1.415 . S
C766 H756 0.930 . S
C766 C764 1.419 . S
C766 C767 1.362 . S
C767 H757 0.930 . S
C767 C760 1.409 . S
C767 C766 1.362 . S
H768 C774 0.930 . S
H769 C777 0.930 . S
H770 C778 0.930 . S
H771 C779 0.930 . S
H772 C782 0.930 . S
H773 C783 0.930 . S
C774 H768 0.930 . S
C774 C775 1.355 . S
C774 C776 1.415 . S
C775 C774 1.355 . S
C775 C777 1.419 . S
C776 C774 1.415 . S
C776 C781 1.425 . S
C776 C783 1.409 . S
C777 H769 0.930 . S
C777 C775 1.419 . S
C777 C778 1.362 . S
C778 H770 0.930 . S
C778 C777 1.362 . S
C778 C781 1.409 . S
C779 H771 0.930 . S
C779 C780 1.355 . S
C779 C781 1.415 . S
C780 C779 1.355 . S
C780 C782 1.419 . S
C781 C776 1.425 . S
C781 C778 1.409 . S
C781 C779 1.415 . S
C782 H772 0.930 . S
C782 C780 1.419 . S
C782 C783 1.362 . S
C783 H773 0.930 . S
C783 C776 1.409 . S
C783 C782 1.362 . S
C407 C21 1.553 . S
C412 C339 1.563 . S
C423 C61 1.316 . S
C428 C342 1.269 . S
C444 C378 1.699 . S
C439 C82 1.718 . S
C455 C135 1.670 . S
C460 C398 1.679 . S
C476 C352 1.717 . S
C471 C15 1.743 . S
C492 C329 1.553 . S
C487 C42 1.554 . S
C508 C382 1.516 . S
C503 C101 1.667 . S
C524 C362 1.355 . S
C519 C122 1.474 . S
C535 C2 1.342 . S
C540 C392 1.304 . S
C556 C358 1.554 . S
C551 C95 1.586 . S
C567 C141 1.678 . S
C572 C324 1.667 . S
C583 C55 1.330 . S
C588 C372 1.263 . S
C604 C338 1.558 . S
C599 C181 1.599 . S
C615 C202 1.286 . S
C620 C344 1.295 . S
C631 C255 1.732 . S
C636 C379 1.724 . S
C647 C295 1.650 . S
C652 C399 1.653 . S
C663 C175 1.722 . S
C668 C349 1.687 . S
C684 C332 1.518 . S
C679 C221 1.556 . S
C700 C384 1.470 . S
C695 C242 1.647 . S
C716 C364 1.470 . S
C711 C301 1.518 . S
C727 C162 1.399 . S
C732 C389 1.274 . S
C748 C359 1.589 . S
C743 C261 1.612 . S
C764 C322 1.584 . S
C759 C282 1.648 . S
C775 C215 1.361 . S
C780 C369 1.329 . S
