# Generated by pormake.
# Topology gar, (4,6)-cn, num edge types: 1
# Building blocks:
#     Node 0, Type 0, BuildingBlock: GALJAG_clean_sbu_0, # of connection points: 4
#     Node 1, Type 0, BuildingBlock: GALJAG_clean_sbu_0, # of connection points: 4
#     Node 2, Type 0, BuildingBlock: GALJAG_clean_sbu_0, # of connection points: 4
#     Node 3, Type 0, BuildingBlock: GALJAG_clean_sbu_0, # of connection points: 4
#     Node 4, Type 0, BuildingBlock: GALJAG_clean_sbu_0, # of connection points: 4
#     Node 5, Type 0, BuildingBlock: GALJAG_clean_sbu_0, # of connection points: 4
#     Node 6, Type 0, BuildingBlock: GALJAG_clean_sbu_0, # of connection points: 4
#     Node 7, Type 0, BuildingBlock: GALJAG_clean_sbu_0, # of connection points: 4
#     Node 8, Type 0, BuildingBlock: GALJAG_clean_sbu_0, # of connection points: 4
#     Node 9, Type 0, BuildingBlock: GALJAG_clean_sbu_0, # of connection points: 4
#     Node 10, Type 0, BuildingBlock: GALJAG_clean_sbu_0, # of connection points: 4
#     Node 11, Type 0, BuildingBlock: GALJAG_clean_sbu_0, # of connection points: 4
#     Node 12, Type 0, BuildingBlock: GALJAG_clean_sbu_0, # of connection points: 4
#     Node 13, Type 0, BuildingBlock: GALJAG_clean_sbu_0, # of connection points: 4
#     Node 14, Type 0, BuildingBlock: GALJAG_clean_sbu_0, # of connection points: 4
#     Node 15, Type 0, BuildingBlock: GALJAG_clean_sbu_0, # of connection points: 4
#     Node 16, Type 0, BuildingBlock: GALJAG_clean_sbu_0, # of connection points: 4
#     Node 17, Type 0, BuildingBlock: GALJAG_clean_sbu_0, # of connection points: 4
#     Node 18, Type 0, BuildingBlock: GALJAG_clean_sbu_0, # of connection points: 4
#     Node 19, Type 0, BuildingBlock: GALJAG_clean_sbu_0, # of connection points: 4
#     Node 20, Type 0, BuildingBlock: GALJAG_clean_sbu_0, # of connection points: 4
#     Node 21, Type 0, BuildingBlock: GALJAG_clean_sbu_0, # of connection points: 4
#     Node 22, Type 0, BuildingBlock: GALJAG_clean_sbu_0, # of connection points: 4
#     Node 23, Type 0, BuildingBlock: GALJAG_clean_sbu_0, # of connection points: 4
#     Node 24, Type 1, BuildingBlock: KUMBUR_clean_sbu_1, # of connection points: 6
#     Node 25, Type 1, BuildingBlock: KUMBUR_clean_sbu_1, # of connection points: 6
#     Node 26, Type 1, BuildingBlock: KUMBUR_clean_sbu_1, # of connection points: 6
#     Node 27, Type 1, BuildingBlock: KUMBUR_clean_sbu_1, # of connection points: 6
#     Node 28, Type 1, BuildingBlock: KUMBUR_clean_sbu_1, # of connection points: 6
#     Node 29, Type 1, BuildingBlock: KUMBUR_clean_sbu_1, # of connection points: 6
#     Node 30, Type 1, BuildingBlock: KUMBUR_clean_sbu_1, # of connection points: 6
#     Node 31, Type 1, BuildingBlock: KUMBUR_clean_sbu_1, # of connection points: 6
#     Node 32, Type 1, BuildingBlock: KUMBUR_clean_sbu_1, # of connection points: 6
#     Node 33, Type 1, BuildingBlock: KUMBUR_clean_sbu_1, # of connection points: 6
#     Node 34, Type 1, BuildingBlock: KUMBUR_clean_sbu_1, # of connection points: 6
#     Node 35, Type 1, BuildingBlock: KUMBUR_clean_sbu_1, # of connection points: 6
#     Node 36, Type 1, BuildingBlock: KUMBUR_clean_sbu_1, # of connection points: 6
#     Node 37, Type 1, BuildingBlock: KUMBUR_clean_sbu_1, # of connection points: 6
#     Node 38, Type 1, BuildingBlock: KUMBUR_clean_sbu_1, # of connection points: 6
#     Node 39, Type 1, BuildingBlock: KUMBUR_clean_sbu_1, # of connection points: 6
#     Edge 40, Type (0, 1), BuildingBlock: EZIPEK_clean_linker_0, # of connection points: 2
#     Edge 41, Type (0, 1), BuildingBlock: EZIPEK_clean_linker_0, # of connection points: 2
#     Edge 42, Type (0, 1), BuildingBlock: EZIPEK_clean_linker_0, # of connection points: 2
#     Edge 43, Type (0, 1), BuildingBlock: EZIPEK_clean_linker_0, # of connection points: 2
#     Edge 44, Type (0, 1), BuildingBlock: EZIPEK_clean_linker_0, # of connection points: 2
#     Edge 45, Type (0, 1), BuildingBlock: EZIPEK_clean_linker_0, # of connection points: 2
#     Edge 46, Type (0, 1), BuildingBlock: EZIPEK_clean_linker_0, # of connection points: 2
#     Edge 47, Type (0, 1), BuildingBlock: EZIPEK_clean_linker_0, # of connection points: 2
#     Edge 48, Type (0, 1), BuildingBlock: EZIPEK_clean_linker_0, # of connection points: 2
#     Edge 49, Type (0, 1), BuildingBlock: EZIPEK_clean_linker_0, # of connection points: 2
#     Edge 50, Type (0, 1), BuildingBlock: EZIPEK_clean_linker_0, # of connection points: 2
#     Edge 51, Type (0, 1), BuildingBlock: EZIPEK_clean_linker_0, # of connection points: 2
#     Edge 52, Type (0, 1), BuildingBlock: EZIPEK_clean_linker_0, # of connection points: 2
#     Edge 53, Type (0, 1), BuildingBlock: EZIPEK_clean_linker_0, # of connection points: 2
#     Edge 54, Type (0, 1), BuildingBlock: EZIPEK_clean_linker_0, # of connection points: 2
#     Edge 55, Type (0, 1), BuildingBlock: EZIPEK_clean_linker_0, # of connection points: 2
#     Edge 56, Type (0, 1), BuildingBlock: EZIPEK_clean_linker_0, # of connection points: 2
#     Edge 57, Type (0, 1), BuildingBlock: EZIPEK_clean_linker_0, # of connection points: 2
#     Edge 58, Type (0, 1), BuildingBlock: EZIPEK_clean_linker_0, # of connection points: 2
#     Edge 59, Type (0, 1), BuildingBlock: EZIPEK_clean_linker_0, # of connection points: 2
#     Edge 60, Type (0, 1), BuildingBlock: EZIPEK_clean_linker_0, # of connection points: 2
#     Edge 61, Type (0, 1), BuildingBlock: EZIPEK_clean_linker_0, # of connection points: 2
#     Edge 62, Type (0, 1), BuildingBlock: EZIPEK_clean_linker_0, # of connection points: 2
#     Edge 63, Type (0, 1), BuildingBlock: EZIPEK_clean_linker_0, # of connection points: 2
#     Edge 64, Type (0, 1), BuildingBlock: EZIPEK_clean_linker_0, # of connection points: 2
#     Edge 65, Type (0, 1), BuildingBlock: EZIPEK_clean_linker_0, # of connection points: 2
#     Edge 66, Type (0, 1), BuildingBlock: EZIPEK_clean_linker_0, # of connection points: 2
#     Edge 67, Type (0, 1), BuildingBlock: EZIPEK_clean_linker_0, # of connection points: 2
#     Edge 68, Type (0, 1), BuildingBlock: EZIPEK_clean_linker_0, # of connection points: 2
#     Edge 69, Type (0, 1), BuildingBlock: EZIPEK_clean_linker_0, # of connection points: 2
#     Edge 70, Type (0, 1), BuildingBlock: EZIPEK_clean_linker_0, # of connection points: 2
#     Edge 71, Type (0, 1), BuildingBlock: EZIPEK_clean_linker_0, # of connection points: 2
#     Edge 72, Type (0, 1), BuildingBlock: EZIPEK_clean_linker_0, # of connection points: 2
#     Edge 73, Type (0, 1), BuildingBlock: EZIPEK_clean_linker_0, # of connection points: 2
#     Edge 74, Type (0, 1), BuildingBlock: EZIPEK_clean_linker_0, # of connection points: 2
#     Edge 75, Type (0, 1), BuildingBlock: EZIPEK_clean_linker_0, # of connection points: 2
#     Edge 76, Type (0, 1), BuildingBlock: EZIPEK_clean_linker_0, # of connection points: 2
#     Edge 77, Type (0, 1), BuildingBlock: EZIPEK_clean_linker_0, # of connection points: 2
#     Edge 78, Type (0, 1), BuildingBlock: EZIPEK_clean_linker_0, # of connection points: 2
#     Edge 79, Type (0, 1), BuildingBlock: EZIPEK_clean_linker_0, # of connection points: 2
#     Edge 80, Type (0, 1), BuildingBlock: EZIPEK_clean_linker_0, # of connection points: 2
#     Edge 81, Type (0, 1), BuildingBlock: EZIPEK_clean_linker_0, # of connection points: 2
#     Edge 82, Type (0, 1), BuildingBlock: EZIPEK_clean_linker_0, # of connection points: 2
#     Edge 83, Type (0, 1), BuildingBlock: EZIPEK_clean_linker_0, # of connection points: 2
#     Edge 84, Type (0, 1), BuildingBlock: EZIPEK_clean_linker_0, # of connection points: 2
#     Edge 85, Type (0, 1), BuildingBlock: EZIPEK_clean_linker_0, # of connection points: 2
#     Edge 86, Type (0, 1), BuildingBlock: EZIPEK_clean_linker_0, # of connection points: 2
#     Edge 87, Type (0, 1), BuildingBlock: EZIPEK_clean_linker_0, # of connection points: 2
#     Edge 88, Type (0, 1), BuildingBlock: EZIPEK_clean_linker_0, # of connection points: 2
#     Edge 89, Type (0, 1), BuildingBlock: EZIPEK_clean_linker_0, # of connection points: 2
#     Edge 90, Type (0, 1), BuildingBlock: EZIPEK_clean_linker_0, # of connection points: 2
#     Edge 91, Type (0, 1), BuildingBlock: EZIPEK_clean_linker_0, # of connection points: 2
#     Edge 92, Type (0, 1), BuildingBlock: EZIPEK_clean_linker_0, # of connection points: 2
#     Edge 93, Type (0, 1), BuildingBlock: EZIPEK_clean_linker_0, # of connection points: 2
#     Edge 94, Type (0, 1), BuildingBlock: EZIPEK_clean_linker_0, # of connection points: 2
#     Edge 95, Type (0, 1), BuildingBlock: EZIPEK_clean_linker_0, # of connection points: 2
#     Edge 96, Type (0, 1), BuildingBlock: EZIPEK_clean_linker_0, # of connection points: 2
#     Edge 97, Type (0, 1), BuildingBlock: EZIPEK_clean_linker_0, # of connection points: 2
#     Edge 98, Type (0, 1), BuildingBlock: EZIPEK_clean_linker_0, # of connection points: 2
#     Edge 99, Type (0, 1), BuildingBlock: EZIPEK_clean_linker_0, # of connection points: 2
#     Edge 100, Type (0, 1), BuildingBlock: EZIPEK_clean_linker_0, # of connection points: 2
#     Edge 101, Type (0, 1), BuildingBlock: EZIPEK_clean_linker_0, # of connection points: 2
#     Edge 102, Type (0, 1), BuildingBlock: EZIPEK_clean_linker_0, # of connection points: 2
#     Edge 103, Type (0, 1), BuildingBlock: EZIPEK_clean_linker_0, # of connection points: 2
#     Edge 104, Type (0, 1), BuildingBlock: EZIPEK_clean_linker_0, # of connection points: 2
#     Edge 105, Type (0, 1), BuildingBlock: EZIPEK_clean_linker_0, # of connection points: 2
#     Edge 106, Type (0, 1), BuildingBlock: EZIPEK_clean_linker_0, # of connection points: 2
#     Edge 107, Type (0, 1), BuildingBlock: EZIPEK_clean_linker_0, # of connection points: 2
#     Edge 108, Type (0, 1), BuildingBlock: EZIPEK_clean_linker_0, # of connection points: 2
#     Edge 109, Type (0, 1), BuildingBlock: EZIPEK_clean_linker_0, # of connection points: 2
#     Edge 110, Type (0, 1), BuildingBlock: EZIPEK_clean_linker_0, # of connection points: 2
#     Edge 111, Type (0, 1), BuildingBlock: EZIPEK_clean_linker_0, # of connection points: 2
#     Edge 112, Type (0, 1), BuildingBlock: EZIPEK_clean_linker_0, # of connection points: 2
#     Edge 113, Type (0, 1), BuildingBlock: EZIPEK_clean_linker_0, # of connection points: 2
#     Edge 114, Type (0, 1), BuildingBlock: EZIPEK_clean_linker_0, # of connection points: 2
#     Edge 115, Type (0, 1), BuildingBlock: EZIPEK_clean_linker_0, # of connection points: 2
#     Edge 116, Type (0, 1), BuildingBlock: EZIPEK_clean_linker_0, # of connection points: 2
#     Edge 117, Type (0, 1), BuildingBlock: EZIPEK_clean_linker_0, # of connection points: 2
#     Edge 118, Type (0, 1), BuildingBlock: EZIPEK_clean_linker_0, # of connection points: 2
#     Edge 119, Type (0, 1), BuildingBlock: EZIPEK_clean_linker_0, # of connection points: 2
#     Edge 120, Type (0, 1), BuildingBlock: EZIPEK_clean_linker_0, # of connection points: 2
#     Edge 121, Type (0, 1), BuildingBlock: EZIPEK_clean_linker_0, # of connection points: 2
#     Edge 122, Type (0, 1), BuildingBlock: EZIPEK_clean_linker_0, # of connection points: 2
#     Edge 123, Type (0, 1), BuildingBlock: EZIPEK_clean_linker_0, # of connection points: 2
#     Edge 124, Type (0, 1), BuildingBlock: EZIPEK_clean_linker_0, # of connection points: 2
#     Edge 125, Type (0, 1), BuildingBlock: EZIPEK_clean_linker_0, # of connection points: 2
#     Edge 126, Type (0, 1), BuildingBlock: EZIPEK_clean_linker_0, # of connection points: 2
#     Edge 127, Type (0, 1), BuildingBlock: EZIPEK_clean_linker_0, # of connection points: 2
#     Edge 128, Type (0, 1), BuildingBlock: EZIPEK_clean_linker_0, # of connection points: 2
#     Edge 129, Type (0, 1), BuildingBlock: EZIPEK_clean_linker_0, # of connection points: 2
#     Edge 130, Type (0, 1), BuildingBlock: EZIPEK_clean_linker_0, # of connection points: 2
#     Edge 131, Type (0, 1), BuildingBlock: EZIPEK_clean_linker_0, # of connection points: 2
#     Edge 132, Type (0, 1), BuildingBlock: EZIPEK_clean_linker_0, # of connection points: 2
#     Edge 133, Type (0, 1), BuildingBlock: EZIPEK_clean_linker_0, # of connection points: 2
#     Edge 134, Type (0, 1), BuildingBlock: EZIPEK_clean_linker_0, # of connection points: 2
#     Edge 135, Type (0, 1), BuildingBlock: EZIPEK_clean_linker_0, # of connection points: 2
# Relax obj value: 0.109
# Max RMSD: 0.190
# Mean RMSD: 0.134
data_MOF--net-gar--node1-GALJAG_clean_sbu_0--node2-KUMBUR_clean_sbu_1--edge1-EZIPEK_clean_linker_0
_symmetry_space_group_name_H-M    P1
_symmetry_Int_Tables_number       1
_symmetry_cell_setting            triclinic
loop_
_symmetry_equiv_pos_as_xyz
'x, y, z'
_cell_length_a     45.780786
_cell_length_b     45.847121
_cell_length_c     42.046623
_cell_angle_alpha  97.237268
_cell_angle_beta   97.147297
_cell_angle_gamma 102.20617
loop_
_atom_site_label
_atom_site_type_symbol
_atom_site_fract_x
_atom_site_fract_y
_atom_site_fract_z
_atom_type_partial_charge
In0 In 0.06802 0.34585 0.36938 0.0
O1 O 0.10226 0.34225 0.32766 0.0
O2 O 0.12 0.33953 0.3742 0.0
C3 C 1.00463 0.33474 0.34057 0.0
C4 C 0.06215 0.2943 0.39735 0.0
C5 C 0.07095 0.40318 0.40889 0.0
O6 O 0.02659 0.34381 0.32555 0.0
O7 O 1.01451 0.3304 0.36856 0.0
O8 O 0.07364 0.37915 0.41965 0.0
O9 O 0.06951 0.39938 0.37822 0.0
C10 C 0.1254 0.33793 0.34525 0.0
O11 O 0.06863 0.32062 0.41365 0.0
O12 O 0.05835 0.29401 0.36698 0.0
In13 In 0.04026 0.76606 0.7187 0.0
O14 O 0.0313 0.78848 0.67463 0.0
O15 O 0.05747 0.81656 0.71737 0.0
C16 C 0.03391 0.71203 0.67532 0.0
C17 C 0.10595 0.77817 0.74293 0.0
C18 C 0.98252 0.77124 0.74385 0.0
O19 O 0.0319 0.73702 0.66698 0.0
O20 O 0.03702 0.71319 0.70589 0.0
O21 O 1.00269 0.7594 0.75764 0.0
O22 O 0.99174 0.78041 0.71894 0.0
C23 C 0.04676 0.81441 0.68763 0.0
O24 O 0.08535 0.77173 0.76064 0.0
O25 O 0.09354 0.77875 0.71454 0.0
In26 In 0.57059 0.84618 0.87041 0.0
O27 O 0.60511 0.84083 0.82946 0.0
O28 O 0.6236 0.84213 0.87714 0.0
C29 C 0.50712 0.83587 0.84001 0.0
C30 C 0.5661 0.79453 0.89825 0.0
C31 C 0.57435 0.90323 0.91041 0.0
O32 O 0.52958 0.84792 0.82709 0.0
O33 O 0.51657 0.82798 0.86634 0.0
O34 O 0.57052 0.87789 0.92014 0.0
O35 O 0.57887 0.90043 0.88107 0.0
C36 C 0.62863 0.83854 0.84805 0.0
O37 O 0.56889 0.82051 0.91436 0.0
O38 O 0.56527 0.79472 0.8681 0.0
In39 In 0.54082 0.26361 0.219 0.0
O40 O 0.53516 0.23523 0.16763 0.0
O41 O 0.5356 0.2103 0.20612 0.0
C42 C 0.54621 0.31229 0.18809 0.0
C43 C 0.48324 0.26829 0.24434 0.0
C44 C 0.6066 0.2749 0.2425 0.0
O45 O 0.53219 0.28602 0.1748 0.0
O46 O 0.55601 0.31473 0.21807 0.0
O47 O 0.58608 0.26678 0.25984 0.0
O48 O 0.59391 0.27742 0.21487 0.0
C49 C 0.53461 0.20964 0.17568 0.0
O50 O 0.50758 0.26665 0.26198 0.0
O51 O 0.48792 0.26678 0.21521 0.0
In52 In 0.09316 0.81586 0.12694 0.0
O53 O 0.09007 0.77114 0.0852 0.0
O54 O 0.08057 0.76257 0.13046 0.0
C55 C 0.08941 0.87453 0.10312 0.0
C56 C 0.0417 0.80891 0.1535 0.0
C57 C 0.14656 0.82269 0.17168 0.0
O58 O 0.09385 0.85127 0.08574 0.0
O59 O 0.08803 0.86845 0.13156 0.0
O60 O 0.12082 0.82287 0.17922 0.0
O61 O 0.14646 0.82112 0.14126 0.0
C62 C 0.08285 0.75043 0.10251 0.0
O63 O 0.06786 0.81692 0.16994 0.0
O64 O 0.0412 0.80548 0.12305 0.0
In65 In 0.5139 0.78808 0.47547 0.0
O66 O 0.53515 0.78157 0.42875 0.0
O67 O 0.5653 0.80089 0.47229 0.0
C68 C 0.45632 0.78565 0.43787 0.0
C69 C 0.52238 0.73123 0.5001 0.0
C70 C 0.52392 0.85174 0.5044 0.0
O71 O 0.48124 0.78852 0.42731 0.0
O72 O 0.45954 0.78147 0.46735 0.0
O73 O 0.51844 0.82978 0.52039 0.0
O74 O 0.52493 0.84136 0.47539 0.0
C75 C 0.56226 0.79225 0.44204 0.0
O76 O 0.52395 0.75642 0.51796 0.0
O77 O 0.51477 0.73436 0.47087 0.0
In78 In 0.59285 0.31622 0.62526 0.0
O79 O 0.59345 0.27131 0.58579 0.0
O80 O 0.57514 0.26321 0.62749 0.0
C81 C 0.58905 0.37496 0.60188 0.0
C82 C 0.54208 0.31101 0.65225 0.0
C83 C 0.646 0.32119 0.66923 0.0
O84 O 0.58467 0.34943 0.5835 0.0
O85 O 0.59733 0.37104 0.63068 0.0
O86 O 0.62062 0.32258 0.67723 0.0
O87 O 0.64568 0.31942 0.63873 0.0
C88 C 0.5816 0.25087 0.60156 0.0
O89 O 0.56824 0.31754 0.66866 0.0
O90 O 0.54141 0.30833 0.62184 0.0
In91 In 1.01327 0.2878 0.97373 0.0
O92 O 0.02399 0.25701 0.01698 0.0
O93 O 1.01522 0.23446 0.97019 0.0
C94 C 0.02328 0.35008 0.00607 0.0
C95 C 0.06109 0.2925 0.93967 0.0
C96 C 0.95619 0.28523 0.93336 0.0
O97 O 1.00397 0.32801 0.01241 0.0
O98 O 0.03856 0.34056 0.98574 0.0
O99 O 0.98209 0.2922 0.92509 0.0
O100 O 0.95857 0.27797 0.96163 0.0
C101 C 0.02292 0.23177 0.99953 0.0
O102 O 0.0338 0.28309 0.92618 0.0
O103 O 0.06433 0.29957 0.97017 0.0
In104 In 0.41177 0.03568 0.33934 0.0
O105 O 0.45272 0.05507 0.31663 0.0
O106 O 0.41252 0.02843 0.2861 0.0
C107 C 0.44241 0.03946 0.39806 0.0
C108 C 0.37583 0.07269 0.33358 0.0
C109 C 0.38117 0.97911 0.32461 0.0
O110 O 0.44816 0.02469 0.37335 0.0
O111 O 0.42161 0.05317 0.39341 0.0
O112 O 0.3697 0.99951 0.3372 0.0
O113 O 0.40815 0.98713 0.3201 0.0
C114 C 0.43963 0.04256 0.28842 0.0
O115 O 0.3672 0.04714 0.34175 0.0
O116 O 0.40349 0.08067 0.33095 0.0
In117 In 0.27599 0.20549 0.53142 0.0
O118 O 0.27063 0.24335 0.5737 0.0
O119 O 0.2969 0.21312 0.58665 0.0
C120 C 0.28218 0.23102 0.47318 0.0
C121 C 0.3231 0.17831 0.53741 0.0
C122 C 0.22097 0.16411 0.52591 0.0
O123 O 0.28434 0.24664 0.5009 0.0
O124 O 0.27568 0.2031 0.47456 0.0
O125 O 0.24428 0.15752 0.5169 0.0
O126 O 0.22442 0.19197 0.53603 0.0
C127 C 0.28601 0.23494 0.59663 0.0
O128 O 0.29663 0.16595 0.54099 0.0
O129 O 0.32586 0.20446 0.52981 0.0
In130 In 0.1524 0.08031 0.81241 0.0
O131 O 0.11032 0.07304 0.76993 0.0
O132 O 0.15279 0.07344 0.75626 0.0
C133 C 0.12719 0.07327 0.87045 0.0
C134 C 0.18089 0.03381 0.80716 0.0
C135 C 0.19123 0.13669 0.82197 0.0
O136 O 0.11359 0.08101 0.8458 0.0
O137 O 0.15301 0.0697 0.86605 0.0
O138 O 0.19895 0.11335 0.8292 0.0
O139 O 0.16331 0.13242 0.81148 0.0
C140 C 0.12515 0.07103 0.74645 0.0
O141 O 0.19385 0.06117 0.80848 0.0
O142 O 0.1527 0.02981 0.80722 0.0
In143 In 0.32295 0.95267 0.00639 0.0
O144 O 0.32226 0.91453 0.03542 0.0
O145 O 0.31789 0.95713 0.05906 0.0
C146 C 0.32242 0.92313 0.94911 0.0
C147 C 0.27646 0.97689 1.0043 0.0
C148 C 0.37897 0.98291 0.01995 0.0
O149 O 0.31187 0.91023 0.97135 0.0
O150 O 0.33216 0.95138 0.95519 0.0
O151 O 0.35807 0.99549 0.01106 0.0
O152 O 0.37164 0.95512 0.02146 0.0
C153 C 0.32001 0.93054 0.06128 0.0
O154 O 0.30324 0.99226 0.0121 0.0
O155 O 0.27319 0.9493 0.99334 0.0
In156 In 0.33643 0.40133 0.06524 0.0
O157 O 0.32024 0.35872 0.09024 0.0
O158 O 0.34098 0.39935 0.12133 0.0
C159 C 0.33112 0.37319 1.00143 0.0
C160 C 0.28695 0.42615 0.06663 0.0
C161 C 0.3931 0.43895 0.06857 0.0
O162 O 0.33473 0.35969 0.02564 0.0
O163 O 0.33032 0.40042 0.00955 0.0
O164 O 0.36894 0.44807 0.0676 0.0
O165 O 0.38925 0.41089 0.06951 0.0
C166 C 0.32745 0.372 0.11927 0.0
O167 O 0.3135 0.4402 0.07888 0.0
O168 O 0.28595 0.40026 0.05165 0.0
In169 In 0.77806 0.14735 0.08991 0.0
O170 O 0.80062 0.10855 0.09418 0.0
O171 O 0.82711 0.15294 0.09327 0.0
C172 C 0.72222 0.11608 0.07501 0.0
C173 C 0.78418 0.1828 0.14537 0.0
C174 C 0.78071 0.17579 0.03866 0.0
O175 O 0.74321 0.10629 0.06371 0.0
O176 O 0.72998 0.13933 0.0964 0.0
O177 O 0.79578 0.18743 0.0659 0.0
O178 O 0.76641 0.14902 0.03667 0.0
C179 C 0.82627 0.12542 0.09371 0.0
O180 O 0.76938 0.18708 0.11976 0.0
O181 O 0.79255 0.15817 0.14391 0.0
In182 In 0.20954 0.57819 0.254 0.0
O183 O 0.24732 0.5548 0.26214 0.0
O184 O 0.20453 0.5294 0.23563 0.0
C185 C 0.23044 0.63651 0.26553 0.0
C186 C 0.18017 0.57302 0.19683 0.0
C187 C 0.18474 0.57522 0.30737 0.0
O188 O 0.24811 0.61871 0.26321 0.0
O189 O 0.20256 0.62475 0.26037 0.0
O190 O 0.16984 0.57495 0.28002 0.0
O191 O 0.21223 0.57509 0.30752 0.0
C192 C 0.23064 0.52939 0.24903 0.0
O193 O 0.16829 0.56281 0.21988 0.0
O194 O 0.20815 0.58547 0.20205 0.0
In195 In 0.83728 0.90007 0.56457 0.0
O196 O 0.81481 0.85992 0.59035 0.0
O197 O 0.84814 0.89429 0.61994 0.0
C198 C 0.83212 0.87216 0.50005 0.0
C199 C 0.79081 0.92874 0.5638 0.0
C200 C 0.89365 0.93801 0.56807 0.0
O201 O 0.83424 0.85818 0.52411 0.0
O202 O 0.833 0.8997 0.50869 0.0
O203 O 0.86953 0.9471 0.56863 0.0
O204 O 0.88987 0.9097 0.56737 0.0
C205 C 0.82876 0.86988 0.6188 0.0
O206 O 0.81691 0.94086 0.57906 0.0
O207 O 0.78789 0.90225 0.54942 0.0
In208 In 0.95687 0.02324 0.27958 0.0
O209 O 1.0006 0.03263 0.2541 0.0
O210 O 0.95886 0.0262 0.22412 0.0
C211 C 0.98839 0.03138 0.34243 0.0
C212 C 0.92786 0.06919 0.28041 0.0
C213 C 0.91721 0.96719 0.27825 0.0
O214 O 0.99097 0.01152 0.31984 0.0
O215 O 0.97075 0.04743 0.33335 0.0
O216 O 0.91158 0.99217 0.28832 0.0
O217 O 0.94243 0.97028 0.26815 0.0
C218 C 0.98724 0.03214 0.22578 0.0
O219 O 0.91497 0.0423 0.26777 0.0
O220 O 0.95558 0.07315 0.29154 0.0
In221 In 0.27903 0.64396 0.59602 0.0
O222 O 0.301 0.60598 0.60636 0.0
O223 O 0.3245 0.64243 0.58523 0.0
C224 C 0.22071 0.61873 0.58499 0.0
C225 C 0.28908 0.67865 0.65197 0.0
C226 C 0.27749 0.67054 0.54376 0.0
O227 O 0.24003 0.60276 0.58476 0.0
O228 O 0.2313 0.64656 0.59358 0.0
O229 O 0.28917 0.68462 0.57167 0.0
O230 O 0.26797 0.64226 0.54157 0.0
C231 C 0.32413 0.61759 0.59496 0.0
O232 O 0.29195 0.68865 0.62584 0.0
O233 O 0.28167 0.65039 0.65051 0.0
In234 In 0.45613 0.52007 0.78052 0.0
O235 O 0.41484 0.54037 0.76897 0.0
O236 O 0.45597 0.57021 0.79282 0.0
C237 C 0.41612 0.46486 0.78154 0.0
C238 C 0.48532 0.52924 0.72589 0.0
C239 C 0.48823 0.52809 0.84297 0.0
O240 O 0.40956 0.49023 0.78642 0.0
O241 O 0.44257 0.46677 0.77475 0.0
O242 O 0.49205 0.50955 0.81975 0.0
O243 O 0.469 0.54283 0.83472 0.0
C244 C 0.42844 0.56708 0.78149 0.0
O245 O 0.49901 0.53335 0.75468 0.0
O246 O 0.45727 0.51868 0.72415 0.0
In247 In 0.70938 0.07795 0.75602 0.0
O248 O 0.74982 0.06185 0.74304 0.0
O249 O 0.71216 0.03084 0.7552 0.0
C250 C 0.73271 0.13575 0.77332 0.0
C251 C 0.6772 0.07002 0.69877 0.0
C252 C 0.68748 0.07343 0.81067 0.0
O253 O 0.74877 0.11668 0.77583 0.0
O254 O 0.70532 0.12572 0.76117 0.0
O255 O 0.67126 0.07466 0.78451 0.0
O256 O 0.71449 0.07246 0.80872 0.0
C257 C 0.73864 0.03567 0.74842 0.0
O258 O 0.66689 0.05898 0.72219 0.0
O259 O 0.7043 0.08485 0.70389 0.0
In260 In 0.77666 0.70448 0.03499 0.0
O261 O 0.79794 0.66489 0.02319 0.0
O262 O 0.82656 0.70478 0.05131 0.0
C263 C 0.72212 0.66375 0.03163 0.0
C264 C 0.78511 0.73168 0.10087 0.0
C265 C 0.78091 0.72865 0.97559 0.0
O266 O 0.74687 0.65652 0.02987 0.0
O267 O 0.72405 0.69191 0.03411 0.0
O268 O 0.78338 0.74473 1.00313 0.0
O269 O 0.77716 0.70129 0.97876 0.0
C270 C 0.82353 0.67734 0.03945 0.0
O271 O 0.77617 0.74438 0.07746 0.0
O272 O 0.79012 0.70633 0.09103 0.0
In273 In 0.90773 0.53699 0.84187 0.0
O274 O 0.86658 0.55551 0.83493 0.0
O275 O 0.90957 0.58654 0.84183 0.0
C276 C 0.87999 0.47987 0.83285 0.0
C277 C 0.93094 0.53552 0.7871 0.0
C278 C 0.93753 0.54085 0.89997 0.0
O279 O 0.86568 0.50035 0.83814 0.0
O280 O 0.908 0.48843 0.83262 0.0
O281 O 0.95 0.53982 0.87497 0.0
O282 O 0.90987 0.54096 0.89607 0.0
C283 C 0.88122 0.58226 0.8357 0.0
O284 O 0.94296 0.55528 0.81159 0.0
O285 O 0.90727 0.51728 0.7904 0.0
In286 In 0.82519 0.44897 0.50295 0.0
O287 O 0.83014 0.41254 0.53398 0.0
O288 O 0.80948 0.44737 0.55178 0.0
C289 C 0.81951 0.42147 0.44279 0.0
C290 C 0.78203 0.47823 0.5031 0.0
C291 C 0.88241 0.47751 0.51628 0.0
O292 O 0.81017 0.40773 0.4651 0.0
O293 O 0.83126 0.44929 0.45059 0.0
O294 O 0.86182 0.49115 0.50959 0.0
O295 O 0.87427 0.4495 0.51602 0.0
C296 C 0.8193 0.42458 0.55704 0.0
O297 O 0.80916 0.4905 0.51525 0.0
O298 O 0.77719 0.45169 0.4878 0.0
In299 In 0.65061 0.58009 0.31337 0.0
O300 O 0.6903 0.55796 0.31011 0.0
O301 O 0.64704 0.52871 0.30612 0.0
C302 C 0.69036 0.63559 0.32201 0.0
C303 C 0.62598 0.57312 0.24693 0.0
C304 C 0.62479 0.5752 0.37123 0.0
O305 O 0.69724 0.6124 0.33099 0.0
O306 O 0.66255 0.63175 0.31092 0.0
O307 O 0.60948 0.57546 0.34397 0.0
O308 O 0.65255 0.57827 0.36954 0.0
C309 C 0.67489 0.53117 0.30516 0.0
O310 O 0.60998 0.57326 0.2696 0.0
O311 O 0.65367 0.57721 0.25787 0.0
Tb312 Tb 0.10289 0.07436 0.07375 0.0
C313 C 0.99809 0.97279 0.99841 0.0
N314 N 0.01572 0.99865 0.99197 0.0
C315 C 1.01544 0.97445 0.93785 0.0
C316 C 0.98982 0.94635 0.97521 0.0
C317 C 0.02327 1.0001 0.96163 0.0
C318 C 0.99923 0.94732 0.9449 0.0
C319 C 0.96739 0.94736 0.0345 0.0
C320 C 0.98702 0.97322 0.02786 0.0
C321 C 0.96029 0.92063 0.01198 0.0
C322 C 0.97179 0.92006 0.98262 0.0
Tb323 Tb 0.02428 0.03893 0.03252 0.0
N324 N 0.99473 0.99928 0.04948 0.0
C325 C 0.95505 0.94928 0.06333 0.0
C326 C 0.98141 1.00174 0.07678 0.0
C327 C 0.96183 0.97671 0.08437 0.0
H328 H 0.03422 0.02102 0.95482 0.0
H329 H 0.95182 0.97866 0.10632 0.0
H330 H 0.08781 0.09867 0.14773 0.0
H331 H 0.17148 0.13137 0.99376 0.0
H332 H 0.98529 0.02298 0.09267 0.0
H333 H 0.93983 0.9299 0.06925 0.0
H334 H 0.14245 0.08745 0.01253 0.0
H335 H 0.02157 0.97574 0.91393 0.0
H336 H 0.94564 0.90037 0.01686 0.0
H337 H 0.96635 0.89921 0.96566 0.0
H338 H 0.09639 0.1471 0.1835 0.0
H339 H 0.99338 0.9275 0.92648 0.0
H340 H 0.17965 0.18228 0.0257 0.0
N341 N 0.10885 0.11752 0.11005 0.0
C342 C 0.12585 0.1428 0.10164 0.0
C343 C 0.10447 0.14621 0.16036 0.0
C344 C 0.13172 0.17099 0.12185 0.0
C345 C 0.09911 0.11872 0.13954 0.0
C346 C 0.12035 0.1725 0.1512 0.0
N347 N 0.13046 0.1131 0.0529 0.0
C348 C 0.14403 0.1095 0.02589 0.0
C349 C 0.15423 0.16631 0.0627 0.0
C350 C 0.13676 0.14054 0.07214 0.0
C351 C 0.1661 0.16302 0.03373 0.0
C352 C 0.16138 0.13439 0.01554 0.0
H353 H 0.12372 0.19384 0.16691 0.0
H354 H 0.15239 0.21877 0.12667 0.0
H355 H 0.17273 0.21454 0.07556 0.0
O356 O 0.14257 0.06306 0.06509 0.0
O357 O 0.07619 0.11019 0.05989 0.0
O358 O 0.03383 0.08659 0.02354 0.0
O359 O 0.1383 0.08198 0.11431 0.0
O360 O 0.09844 0.05292 0.02229 0.0
O361 O 0.05354 0.05948 0.99906 0.0
O362 O 0.98804 0.05506 0.04612 0.0
O363 O 0.04736 1.00181 0.04768 0.0
O364 O 0.09321 0.02451 0.07942 0.0
O365 O 0.98643 0.0327 0.99612 0.0
O366 O 0.02992 0.05913 0.08435 0.0
O367 O 0.07517 0.054 0.10806 0.0
C368 C 0.05218 0.1121 0.03882 0.0
C369 C 0.18594 0.06862 0.10504 0.0
C370 C 0.22699 0.04719 0.0904 0.0
C371 C 0.24317 0.05742 0.12179 0.0
C372 C 0.20182 0.07912 0.13658 0.0
C373 C 0.23057 0.0736 0.14484 0.0
C374 C 0.19883 0.05298 0.08221 0.0
C375 C 0.08173 0.05865 0.99706 0.0
C376 C 0.1553 0.07178 0.09518 0.0
C377 C 0.14826 0.1968 0.11193 0.0
C378 C 0.15964 0.19445 0.08259 0.0
C379 C 0.07226 0.99933 0.06654 0.0
C380 C 0.9425 0.04977 0.00929 0.0
C381 C 0.90209 0.06888 0.02827 0.0
C382 C 0.88217 0.05257 1.00051 0.0
C383 C 0.92308 0.03366 0.98127 0.0
C384 C 0.93226 0.06832 0.03196 0.0
C385 C 0.89284 0.03534 0.9768 0.0
C386 C 0.04654 0.05298 0.10936 0.0
C387 C 0.97253 0.04531 0.01714 0.0
H388 H 0.26499 0.0524 0.12846 0.0
H389 H 0.19195 0.0911 0.15471 0.0
H390 H 0.24281 0.08138 0.16921 0.0
H391 H 0.18657 0.04407 0.05792 0.0
H392 H 0.85862 0.05374 0.99698 0.0
H393 H 0.93104 0.01931 0.96344 0.0
H394 H 0.94749 0.08186 0.05302 0.0
H395 H 0.87764 0.02301 0.95528 0.0
Tb396 Tb 0.27386 0.81743 0.35244 0.0
C397 C 0.34642 0.76373 0.23175 0.0
N398 N 0.35732 0.78678 0.25669 0.0
C399 C 0.40538 0.7732 0.26239 0.0
C400 C 0.36454 0.74415 0.22132 0.0
C401 C 0.38649 0.79181 0.27203 0.0
C402 C 0.39432 0.74915 0.23702 0.0
C403 C 0.30501 0.73612 0.19026 0.0
C404 C 0.31714 0.75992 0.21649 0.0
C405 C 0.3227 0.71622 0.18018 0.0
C406 C 0.35244 0.72026 0.19564 0.0
Tb407 Tb 0.32425 0.81402 0.27374 0.0
N408 N 0.30095 0.78001 0.22666 0.0
C409 C 0.27564 0.73317 0.17453 0.0
C410 C 0.27307 0.77841 0.20894 0.0
C411 C 0.25982 0.75473 0.1836 0.0
H412 H 0.39523 0.80988 0.29225 0.0
H413 H 0.23752 0.75354 0.17062 0.0
H414 H 0.20448 0.82551 0.32011 0.0
H415 H 0.33992 0.86823 0.46883 0.0
H416 H 0.26036 0.79523 0.21253 0.0
H417 H 0.26542 0.71503 0.15461 0.0
H418 H 0.31988 0.82764 0.42168 0.0
H419 H 0.42836 0.77722 0.27482 0.0
H420 H 0.31367 0.69781 0.16023 0.0
H421 H 0.36594 0.70489 0.18744 0.0
H422 H 0.17479 0.86389 0.32586 0.0
H423 H 0.40894 0.73462 0.22973 0.0
H424 H 0.31791 0.91319 0.4747 0.0
N425 N 0.24144 0.84982 0.35664 0.0
C426 C 0.25032 0.87332 0.38166 0.0
C427 C 0.19636 0.86719 0.34127 0.0
C428 C 0.2336 0.89564 0.38621 0.0
C429 C 0.21382 0.84571 0.33764 0.0
C430 C 0.2066 0.89262 0.36519 0.0
N431 N 0.29003 0.85131 0.39931 0.0
C432 C 0.31126 0.84784 0.42337 0.0
C433 C 0.28508 0.89717 0.43089 0.0
C434 C 0.27533 0.87394 0.40399 0.0
C435 C 0.30951 0.89569 0.45376 0.0
C436 C 0.3221 0.87044 0.45044 0.0
H437 H 0.19294 0.90912 0.36802 0.0
H438 H 0.23158 0.9373 0.41577 0.0
H439 H 0.27703 0.93886 0.45467 0.0
O440 O 0.27388 0.78247 0.3802 0.0
O441 O 0.30268 0.8619 0.35436 0.0
O442 O 0.31023 0.83358 0.31435 0.0
O443 O 0.23366 0.80057 0.37017 0.0
O444 O 0.32071 0.80694 0.36452 0.0
O445 O 0.35 0.80899 0.32148 0.0
O446 O 0.32258 0.85175 0.25145 0.0
O447 O 0.30854 0.77142 0.2889 0.0
O448 O 0.26878 0.78388 0.30827 0.0
O449 O 0.36529 0.84486 0.27238 0.0
O450 O 0.27868 0.82248 0.2608 0.0
O451 O 0.24858 0.81742 0.30216 0.0
C452 C 0.31632 0.86083 0.32996 0.0
C453 C 0.23007 0.76132 0.40332 0.0
C454 C 0.23225 0.7282 0.44306 0.0
C455 C 0.20077 0.71697 0.43543 0.0
C456 C 0.19855 0.75061 0.39594 0.0
C457 C 0.18394 0.72841 0.4121 0.0
C458 C 0.2467 0.75085 0.42757 0.0
C459 C 0.34627 0.80481 0.3521 0.0
C460 C 0.24615 0.78194 0.38461 0.0
C461 C 0.24386 0.91968 0.41219 0.0
C462 C 0.26969 0.92054 0.4344 0.0
C463 C 0.28472 0.76359 0.30278 0.0
C464 C 0.36185 0.86319 0.22218 0.0
C465 C 0.35263 0.87841 0.16959 0.0
C466 C 0.3758 0.86553 0.15955 0.0
C467 C 0.38506 0.85023 0.2121 0.0
C468 C 0.34577 0.87737 0.20077 0.0
C469 C 0.39198 0.8515 0.18082 0.0
C470 C 0.25248 0.82163 0.27169 0.0
C471 C 0.35173 0.85978 0.25338 0.0
H472 H 0.18928 0.69979 0.44796 0.0
H473 H 0.18543 0.75881 0.37723 0.0
H474 H 0.15967 0.71989 0.4064 0.0
H475 H 0.27094 0.75989 0.43409 0.0
H476 H 0.3815 0.86667 0.13542 0.0
H477 H 0.39754 0.83882 0.22808 0.0
H478 H 0.32781 0.8875 0.20824 0.0
H479 H 0.40984 0.84155 0.17304 0.0
Tb480 Tb 0.51005 0.04603 0.58359 0.0
C481 C 0.61417 0.10607 0.50243 0.0
N482 N 0.59434 0.07844 0.49593 0.0
C483 C 0.58518 0.08358 0.43964 0.0
C484 C 0.61921 0.12391 0.47778 0.0
C485 C 0.58144 0.06632 0.46459 0.0
C486 C 0.60372 0.11266 0.44634 0.0
C487 C 0.65407 0.1427 0.53984 0.0
C488 C 0.63151 0.11561 0.53327 0.0
C489 C 0.65794 0.16107 0.51571 0.0
C490 C 0.64054 0.15174 0.48483 0.0
Tb491 Tb 0.59162 0.05429 0.54019 0.0
N492 N 0.62724 0.09759 0.55642 0.0
C493 C 0.67296 0.14984 0.56999 0.0
C494 C 0.64735 0.10287 0.58444 0.0
C495 C 0.67008 0.12942 0.59205 0.0
H496 H 0.56861 0.04322 0.4582 0.0
H497 H 0.68539 0.13404 0.61483 0.0
H498 H 0.52518 0.05238 0.66706 0.0
H499 H 0.41741 0.97018 0.50212 0.0
H500 H 0.64591 0.08668 0.60087 0.0
H501 H 0.69062 0.17041 0.57592 0.0
H502 H 0.4571 0.01718 0.5205 0.0
H503 H 0.5743 0.07414 0.41506 0.0
H504 H 0.67502 0.18208 0.52038 0.0
H505 H 0.64454 0.16574 0.46617 0.0
H506 H 0.51697 0.01847 0.70704 0.0
H507 H 0.60701 0.12569 0.42677 0.0
H508 H 0.40954 0.93113 0.53771 0.0
N509 N 0.50271 0.01878 0.626 0.0
C510 C 0.48292 0.99136 0.61713 0.0
C511 C 0.50778 1.01028 0.68173 0.0
C512 C 0.47635 0.9717 0.63997 0.0
C513 C 0.513 0.02924 0.6585 0.0
C514 C 0.48997 0.9811 0.67231 0.0
N515 N 0.47302 1.00368 0.56448 0.0
C516 C 0.45464 0.99967 0.53544 0.0
C517 C 0.44477 0.95673 0.57637 0.0
C518 C 0.46732 0.98378 0.5856 0.0
C519 C 0.42734 0.95144 0.54555 0.0
C520 C 0.43182 0.97335 0.5253 0.0
H521 H 0.48555 0.96663 0.6905 0.0
H522 H 0.45031 0.92846 0.64737 0.0
H523 H 0.42248 0.91546 0.59177 0.0
O524 O 0.47127 0.06152 0.56538 0.0
O525 O 0.52055 1.00112 0.56064 0.0
O526 O 0.56642 1.00586 0.53813 0.0
O527 O 0.4885 0.06743 0.61714 0.0
O528 O 0.52367 0.05936 0.53852 0.0
O529 O 0.55037 0.03617 0.50618 0.0
O530 O 0.62494 0.03519 0.5639 0.0
O531 O 0.58287 0.09946 0.56243 0.0
O532 O 0.5369 0.09475 0.5842 0.0
O533 O 0.62405 0.04199 0.51405 0.0
O534 O 0.56679 0.04879 0.57833 0.0
O535 O 0.54825 0.0553 0.62151 0.0
C536 C 0.54123 0.98898 0.54602 0.0
C537 C 0.44385 0.08598 0.60375 0.0
C538 C 0.40613 0.11489 0.59139 0.0
C539 C 0.40048 0.11635 0.62351 0.0
C540 C 0.43776 0.08763 0.63582 0.0
C541 C 0.41616 0.10268 0.64555 0.0
C542 C 0.42777 0.09951 0.58137 0.0
C543 C 0.52425 0.0411 0.51207 0.0
C544 C 0.46812 0.0715 0.59486 0.0
C545 C 0.45533 0.94389 0.63023 0.0
C546 C 0.43948 0.93649 0.59856 0.0
C547 C 0.56212 0.11176 0.5761 0.0
C548 C 0.64632 1.00299 0.52861 0.0
C549 C 0.68524 0.97386 0.53128 0.0
C550 C 0.66901 0.95406 0.50355 0.0
C551 C 0.63025 0.98258 0.50112 0.0
C552 C 0.67381 0.99838 0.54387 0.0
C553 C 0.64164 0.95837 0.48867 0.0
C554 C 0.57222 0.0545 0.60954 0.0
C555 C 0.63741 0.03161 0.53788 0.0
H556 H 0.38396 0.12824 0.63154 0.0
H557 H 0.44986 0.07743 0.65352 0.0
H558 H 0.41175 0.10397 0.67033 0.0
H559 H 0.43245 0.09876 0.55667 0.0
H560 H 0.67778 0.93543 0.49322 0.0
H561 H 0.60956 0.98612 0.48839 0.0
H562 H 0.68681 0.01434 0.56459 0.0
H563 H 0.62963 0.94332 0.46691 0.0
Tb564 Tb 0.34592 0.28403 0.80492 0.0
C565 C 0.24028 0.32607 0.7319 0.0
N566 N 0.26127 0.34023 0.75815 0.0
C567 C 0.26758 0.38672 0.7365 0.0
C568 C 0.23279 0.34171 0.70643 0.0
C569 C 0.27412 0.37042 0.7613 0.0
C570 C 0.24702 0.37228 0.70883 0.0
C571 C 0.20349 0.28082 0.70432 0.0
C572 C 0.22591 0.29578 0.73075 0.0
C573 C 0.1964 0.29626 0.67867 0.0
C574 C 0.21101 0.32657 0.67971 0.0
Tb575 Tb 0.26785 0.31111 0.79719 0.0
N576 N 0.23355 0.28126 0.75582 0.0
C577 C 0.18828 0.25103 0.70487 0.0
C578 C 0.21744 0.25291 0.75741 0.0
C579 C 0.19491 0.23723 0.73179 0.0
H580 H 0.28877 0.38243 0.78319 0.0
H581 H 0.18261 0.21455 0.73289 0.0
H582 H 0.32528 0.21109 0.81655 0.0
H583 H 0.43386 0.37718 0.87 0.0
H584 H 0.22145 0.24243 0.77852 0.0
H585 H 0.17084 0.23879 0.68505 0.0
H586 H 0.39377 0.35039 0.82459 0.0
H587 H 0.27802 0.41056 0.739 0.0
H588 H 0.17928 0.28509 0.65811 0.0
H589 H 0.20496 0.33825 0.65991 0.0
H590 H 0.33746 0.18101 0.85817 0.0
H591 H 0.2418 0.3851 0.68979 0.0
H592 H 0.44734 0.35094 0.91574 0.0
N593 N 0.35374 0.25271 0.84224 0.0
C594 C 0.37615 0.26534 0.86777 0.0
C595 C 0.34812 0.20485 0.86148 0.0
C596 C 0.38463 0.24841 0.8917 0.0
C597 C 0.34062 0.22242 0.83822 0.0
C598 C 0.36998 0.21794 0.8885 0.0
N599 N 0.38245 0.31089 0.84615 0.0
C600 C 0.39858 0.33934 0.8451 0.0
C601 C 0.41428 0.30934 0.89577 0.0
C602 C 0.39091 0.29538 0.86983 0.0
C603 C 0.42929 0.33939 0.89621 0.0
C604 C 0.42167 0.35432 0.87051 0.0
H605 H 0.37587 0.20416 0.90632 0.0
H606 H 0.41421 0.2497 0.93659 0.0
H607 H 0.44009 0.30309 0.94019 0.0
O608 O 0.38033 0.29707 0.77581 0.0
O609 O 0.33856 0.3126 0.84927 0.0
O610 O 0.28717 0.30978 0.84742 0.0
O611 O 0.37355 0.25457 0.79487 0.0
O612 O 0.34374 0.32514 0.7835 0.0
O613 O 0.31033 0.3472 0.80912 0.0
O614 O 0.22349 0.30086 0.80913 0.0
O615 O 0.28585 0.29814 0.75079 0.0
O616 O 0.31425 0.26311 0.75979 0.0
O617 O 0.24892 0.34653 0.81573 0.0
O618 O 0.26743 0.26941 0.81769 0.0
O619 O 0.30385 0.24834 0.79674 0.0
C620 C 0.31501 0.31672 0.86326 0.0
C621 C 0.41509 0.26362 0.76503 0.0
C622 C 0.45504 0.27138 0.73169 0.0
C623 C 0.46466 0.2464 0.74162 0.0
C624 C 0.42518 0.23865 0.77467 0.0
C625 C 0.44976 0.23013 0.76298 0.0
C626 C 0.43012 0.28003 0.74335 0.0
C627 C 0.3353 0.34935 0.79579 0.0
C628 C 0.38948 0.27236 0.77867 0.0
C629 C 0.40755 0.26233 0.91792 0.0
C630 C 0.42228 0.29274 0.91999 0.0
C631 C 0.29909 0.27655 0.73971 0.0
C632 C 0.21073 0.33561 0.84994 0.0
C633 C 0.17012 0.3262 0.88372 0.0
C634 C 0.18395 0.35365 0.90388 0.0
C635 C 0.223 0.36341 0.87031 0.0
C636 C 0.1838 0.31691 0.85674 0.0
C637 C 0.20999 0.37207 0.89714 0.0
C638 C 0.27884 0.24602 0.8097 0.0
C639 C 0.22377 0.32875 0.81959 0.0
H640 H 0.48371 0.23941 0.73265 0.0
H641 H 0.41417 0.2257 0.79148 0.0
H642 H 0.4573 0.21087 0.77051 0.0
H643 H 0.4226 0.29926 0.73558 0.0
H644 H 0.17385 0.3614 0.92438 0.0
H645 H 0.24219 0.37916 0.86492 0.0
H646 H 0.17294 0.29607 0.84057 0.0
H647 H 0.21967 0.3937 0.91231 0.0
Tb648 Tb 0.07509 1.00798 0.53681 0.0
C649 C 0.02861 0.12317 0.60404 0.0
N650 N 1.01524 0.10238 0.5775 0.0
C651 C 0.96677 0.10072 0.59441 0.0
C652 C 1.0118 0.13259 0.62764 0.0
C653 C 0.98444 0.09223 0.5716 0.0
C654 C 0.98055 0.12065 0.62279 0.0
C655 C 0.07439 0.15672 0.63454 0.0
C656 C 0.05935 0.13494 0.60757 0.0
C657 C 0.058 0.16555 0.65867 0.0
C658 C 0.02674 0.15349 0.65524 0.0
Tb659 Tb 0.04727 0.08688 0.54457 0.0
N660 N 0.0745 0.12515 0.58425 0.0
C661 C 0.10533 0.16918 0.63612 0.0
C662 C 0.10397 0.13906 0.58426 0.0
C663 C 0.12004 0.16075 0.61047 0.0
H664 H 0.97346 0.07703 0.54957 0.0
H665 H 0.14365 0.17108 0.61075 0.0
H666 H 0.14659 0.03489 0.5236 0.0
H667 H 0.99169 0.90747 0.47708 0.0
H668 H 0.11499 0.13364 0.56399 0.0
H669 H 0.11778 0.18595 0.65645 0.0
H670 H 1.0141 0.94963 0.52113 0.0
H671 H 0.94252 0.09185 0.59009 0.0
H672 H 0.06918 0.18194 0.67984 0.0
H673 H 1.01429 0.1607 0.67388 0.0
H674 H 0.17592 0.02874 0.47963 0.0
H675 H 0.96683 0.12707 0.64048 0.0
H676 H 0.01671 0.90033 0.42882 0.0
N677 N 0.10601 1.00436 0.49824 0.0
C678 C 0.09433 0.98209 0.47236 0.0
C679 C 0.15276 0.01594 0.47692 0.0
C680 C 0.11102 0.97699 0.44699 0.0
C681 C 0.13552 0.02001 0.50159 0.0
C682 C 0.1403 0.99472 0.44923 0.0
N683 N 0.05098 0.96807 0.49742 0.0
C684 C 0.0252 0.94749 0.50005 0.0
C685 C 0.05402 0.93907 0.44639 0.0
C686 C 0.06606 0.96333 0.47202 0.0
C687 C 0.02666 0.91921 0.44802 0.0
C688 C 1.01245 0.92317 0.4752 0.0
H689 H 0.1539 0.99137 0.43035 0.0
H690 H 0.1109 0.94965 0.40099 0.0
H691 H 0.061 0.9165 0.40044 0.0
O692 O 0.06541 0.96853 0.55795 0.0
O693 O 0.06041 0.0237 0.49009 0.0
O694 O 0.02552 0.05083 0.50312 0.0
O695 O 0.11084 0.98761 0.55115 0.0
O696 O 0.02721 1.00236 0.54241 0.0
O697 O 1.01274 0.04816 0.55402 0.0
O698 O 0.06458 0.1231 0.51977 0.0
O699 O 0.0747 0.07969 0.59011 0.0
O700 O 0.07221 0.02802 0.58706 0.0
O701 O 0.01691 0.10502 0.51605 0.0
O702 O 0.08642 0.07913 0.52276 0.0
O703 O 0.11026 0.05046 0.55202 0.0
C704 C 0.03871 0.03751 0.48117 0.0
C705 C 0.10442 0.95007 0.58653 0.0
C706 C 0.09544 0.91052 0.62054 0.0
C707 C 0.12668 0.91261 0.62674 0.0
C708 C 0.13562 0.95175 0.59325 0.0
C709 C 0.14661 0.93319 0.61329 0.0
C710 C 0.08426 0.92932 0.60043 0.0
C711 C 1.0078 0.01827 0.55114 0.0
C712 C 0.09296 0.96523 0.56026 0.0
C713 C 0.09845 0.95373 0.42076 0.0
C714 C 0.07004 0.93483 0.42046 0.0
C715 C 0.07807 0.05565 0.60387 0.0
C716 C 0.03121 0.15441 0.50188 0.0
C717 C 0.03618 0.19745 0.47155 0.0
C718 C 1.01114 0.20485 0.48388 0.0
C719 C 1.00658 0.16303 0.51415 0.0
C720 C 0.04622 0.17195 0.48054 0.0
C721 C 0.99661 0.18791 0.50504 0.0
C722 C 0.11134 0.07492 0.53834 0.0
C723 C 0.03777 0.1247 0.50687 0.0
H724 H 0.13559 0.89791 0.64167 0.0
H725 H 0.15151 0.9666 0.58203 0.0
H726 H 0.17063 0.93425 0.61779 0.0
H727 H 0.06003 0.92676 0.59458 0.0
H728 H 1.00268 0.22387 0.47692 0.0
H729 H 0.99428 0.14992 0.52999 0.0
H730 H 0.06482 0.16531 0.47023 0.0
H731 H 0.97715 0.19383 0.51406 0.0
Tb732 Tb 0.31215 0.84688 0.75995 0.0
C733 C 0.25605 0.74286 0.84679 0.0
N734 N 0.28194 0.76524 0.85217 0.0
C735 C 0.27663 0.77532 0.90845 0.0
C736 C 0.23913 0.73663 0.87203 0.0
C737 C 0.29327 0.78002 0.8831 0.0
C738 C 0.24919 0.75395 0.90278 0.0
C739 C 0.22415 0.69789 0.81224 0.0
C740 C 0.24807 0.72389 0.81684 0.0
C741 C 0.20644 0.69276 0.83675 0.0
C742 C 0.21375 0.71221 0.86646 0.0
Tb743 Tb 0.30526 0.76931 0.80708 0.0
N744 N 0.26546 0.72924 0.7933 0.0
C745 C 0.21974 0.67695 0.78378 0.0
C746 C 0.26319 0.70747 0.76728 0.0
C747 C 0.23984 0.68143 0.76157 0.0
H748 H 0.31546 0.79495 0.88906 0.0
H749 H 0.23794 0.66444 0.74059 0.0
H750 H 0.30963 0.82397 0.67844 0.0
H751 H 0.38693 0.94081 0.84069 0.0
H752 H 0.2803 0.70934 0.75192 0.0
H753 H 0.20185 0.65656 0.77953 0.0
H754 H 0.34084 0.90017 0.82323 0.0
H755 H 0.28544 0.78762 0.93263 0.0
H756 H 0.18773 0.67315 0.83343 0.0
H757 H 0.20048 0.70729 0.88557 0.0
H758 H 0.34338 0.83261 0.63868 0.0
H759 H 0.23678 0.74987 0.92273 0.0
H760 H 0.42566 0.94947 0.80467 0.0
N761 N 0.34099 0.85184 0.71866 0.0
C762 C 0.36757 0.8731 0.72683 0.0
C763 C 0.35077 0.84366 0.66357 0.0
C764 C 0.38725 0.87947 0.70394 0.0
C765 C 0.33188 0.83824 0.68688 0.0
C766 C 0.37877 0.86399 0.67221 0.0
N767 N 0.35405 0.88471 0.77852 0.0
C768 C 0.35776 0.90328 0.8075 0.0
C769 C 0.40069 0.91348 0.76644 0.0
C770 C 0.37419 0.89017 0.75762 0.0
C771 C 0.40558 0.93137 0.79699 0.0
C772 C 0.38376 0.92657 0.81737 0.0
H773 H 0.39313 0.86844 0.6539 0.0
H774 H 0.42957 0.90694 0.69578 0.0
H775 H 0.44144 0.93656 0.75057 0.0
O776 O 0.29234 0.88305 0.77591 0.0
O777 O 0.35728 0.83571 0.78134 0.0
O778 O 0.35348 0.79667 0.81421 0.0
O779 O 0.29623 0.87121 0.72514 0.0
O780 O 0.30819 0.84809 0.81081 0.0
O781 O 0.32101 0.8108 0.84 0.0
O782 O 0.32889 0.73992 0.78289 0.0
O783 O 0.25865 0.77773 0.78831 0.0
O784 O 0.26387 0.82063 0.76192 0.0
O785 O 0.3184 0.73645 0.83129 0.0
O786 O 0.30913 0.79193 0.76734 0.0
O787 O 0.29518 0.8072 0.72389 0.0
C788 C 0.36991 0.81865 0.80092 0.0
C789 C 0.272 0.91268 0.73749 0.0
C790 C 0.24338 0.95079 0.75041 0.0
C791 C 0.23948 0.95454 0.7177 0.0
C792 C 0.26785 0.91696 0.70485 0.0
C793 C 0.25176 0.93779 0.69511 0.0
C794 C 0.25988 0.92996 0.76043 0.0
C795 C 0.31631 0.83779 0.83763 0.0
C796 C 0.28678 0.88852 0.74646 0.0
C797 C 0.41418 0.90193 0.713 0.0
C798 C 0.42092 0.91884 0.7442 0.0
C799 C 0.24628 0.7976 0.77288 0.0
C800 C 0.35808 0.71459 0.81806 0.0
C801 C 0.38393 0.67297 0.81537 0.0
C802 C 0.4009 0.68564 0.84595 0.0
C803 C 0.37599 0.72722 0.84833 0.0
C804 C 0.36245 0.68752 0.80137 0.0
C805 C 0.39707 0.71268 0.86219 0.0
C806 C 0.29799 0.78432 0.73705 0.0
C807 C 0.3307 0.72534 0.80767 0.0
H808 H 0.22681 0.97044 0.70967 0.0
H809 H 0.27665 0.90385 0.68663 0.0
H810 H 0.24852 0.94072 0.66987 0.0
H811 H 0.26253 0.92676 0.78564 0.0
H812 H 0.41713 0.67448 0.85727 0.0
H813 H 0.37264 0.74758 0.86204 0.0
H814 H 0.3484 0.67715 0.77838 0.0
H815 H 0.41007 0.72207 0.88594 0.0
Tb816 Tb 0.54048 0.08548 0.9932 0.0
C817 C 0.59644 0.01215 0.11283 0.0
N818 N 0.5743 1.00174 0.08704 0.0
C819 C 0.59254 0.95663 0.07659 0.0
C820 C 0.6186 0.99603 0.12079 0.0
C821 C 0.57129 0.97374 0.06961 0.0
C822 C 0.61676 0.96815 0.10183 0.0
C823 C 0.61615 0.04861 0.16137 0.0
C824 C 0.59518 0.03781 0.13264 0.0
C825 C 0.63984 0.03413 0.16832 0.0
C826 C 0.64104 1.00779 0.14803 0.0
Tb827 Tb 0.54487 0.03411 0.07321 0.0
N828 N 0.57193 0.05088 0.12477 0.0
C829 C 0.61206 0.07298 0.18255 0.0
C830 C 0.56606 0.07255 0.14705 0.0
C831 C 0.58644 0.08449 0.17573 0.0
H832 H 0.55279 0.9646 0.0499 0.0
H833 H 0.58231 0.10247 0.19261 0.0
H834 H 0.5352 0.15583 0.02369 0.0
H835 H 0.48484 0.01685 0.87956 0.0
H836 H 0.54594 0.08116 0.14284 0.0
H837 H 0.62778 0.0822 0.20476 0.0
H838 H 0.52668 0.03719 0.92526 0.0
H839 H 0.59035 0.9347 0.06232 0.0
H840 H 0.65665 0.04248 0.18986 0.0
H841 H 0.65871 0.99613 0.15423 0.0
H842 H 0.49839 0.18738 0.01747 0.0
H843 H 0.63325 0.95492 0.10715 0.0
H844 H 0.4407 0.04016 0.87429 0.0
N845 N 0.50873 0.11844 0.98912 0.0
C846 C 0.48437 0.10938 0.96509 0.0
C847 C 0.49387 0.16522 1.00295 0.0
C848 C 0.46292 0.12703 0.9603 0.0
C849 C 0.51451 0.14687 0.00675 0.0
C850 C 0.46763 0.15499 0.98012 0.0
N851 N 0.50421 0.06788 0.9483 0.0
C852 C 0.50658 0.04594 0.92433 0.0
C853 C 0.45833 0.0736 0.91736 0.0
C854 C 0.48216 0.08329 0.94371 0.0
C855 C 0.4586 0.04843 0.89488 0.0
C856 C 0.48334 0.03508 0.89788 0.0
H857 H 0.4518 0.16934 0.97711 0.0
H858 H 0.42124 0.12984 0.93133 0.0
H859 H 0.41709 0.08279 0.89386 0.0
O860 O 0.56776 0.08358 0.95706 0.0
O861 O 0.49621 0.0586 0.99502 0.0
O862 O 0.52548 0.05125 0.03477 0.0
O863 O 0.55988 0.1266 0.97825 0.0
O864 O 0.55111 0.03873 0.98213 0.0
O865 O 0.54995 1.00918 0.02499 0.0
O866 O 0.50642 0.03511 0.09391 0.0
O867 O 0.58634 0.04801 0.05432 0.0
O868 O 0.5774 0.09024 0.03404 0.0
O869 O 0.51293 0.99267 0.07171 0.0
O870 O 0.5453 0.08328 0.08732 0.0
O871 O 0.54134 0.11093 0.04341 0.0
C872 C 0.49795 0.04574 0.01995 0.0
C873 C 0.58921 0.12744 0.93446 0.0
C874 C 0.62014 0.12227 0.89286 0.0
C875 C 0.61552 0.14933 0.88313 0.0
C876 C 0.58445 0.15462 0.92508 0.0
C877 C 0.59778 0.1656 0.89947 0.0
C878 C 0.60757 0.11182 0.91877 0.0
C879 C 0.55346 0.01319 0.99434 0.0
C880 C 0.57114 0.11228 0.95613 0.0
C881 C 0.43817 0.11677 0.9351 0.0
C882 C 0.43581 0.09001 0.91373 0.0
C883 C 0.59499 0.07157 0.03999 0.0
C884 C 0.48426 0.99275 0.11555 0.0
C885 C 0.46884 0.9995 0.16877 0.0
C886 C 0.45245 0.96929 0.16289 0.0
C887 C 0.46774 0.96266 0.10995 0.0
C888 C 0.48528 1.01098 0.14544 0.0
C889 C 0.45212 0.95093 0.13369 0.0
C890 C 0.54247 0.10835 0.07504 0.0
C891 C 0.49623 1.00608 0.08856 0.0
H892 H 0.62562 0.15773 0.86312 0.0
H893 H 0.56958 0.16662 0.93659 0.0
H894 H 0.59391 0.18635 0.8919 0.0
H895 H 0.6112 0.0907 0.92569 0.0
H896 H 0.43985 0.96001 0.18091 0.0
H897 H 0.46627 0.94849 0.08688 0.0
H898 H 0.49778 0.03438 0.15029 0.0
H899 H 0.43923 0.92773 0.12921 0.0
Tb900 Tb 0.28428 0.25832 0.2725 0.0
C901 C 0.38545 0.36125 0.34966 0.0
N902 N 0.35893 0.34364 0.35478 0.0
C903 C 0.38152 0.34163 0.40893 0.0
C904 C 0.4113 0.36844 0.37367 0.0
C905 C 0.3564 0.33519 0.38461 0.0
C906 C 0.40922 0.35777 0.40322 0.0
C907 C 0.41311 0.39272 0.31558 0.0
C908 C 0.38647 0.37317 0.32067 0.0
C909 C 0.43905 0.39908 0.33916 0.0
C910 C 0.43821 0.38664 0.36787 0.0
Tb911 Tb 0.31978 0.3382 0.31356 0.0
N912 N 0.36125 0.36596 0.29775 0.0
C913 C 0.41286 0.40557 0.28707 0.0
C914 C 0.36065 0.37919 0.27025 0.0
C915 C 0.38644 0.39893 0.26442 0.0
H916 H 0.33504 0.32491 0.39093 0.0
H917 H 0.38588 0.40906 0.24252 0.0
H918 H 0.26001 0.2716 0.19776 0.0
H919 H 0.22754 0.18987 0.35255 0.0
H920 H 0.34021 0.37513 0.25299 0.0
H921 H 0.43286 0.42082 0.28242 0.0
H922 H 0.2715 0.21869 0.33333 0.0
H923 H 0.37933 0.3347 0.43236 0.0
H924 H 0.45985 0.41374 0.33552 0.0
H925 H 0.45844 0.39139 0.38564 0.0
H926 H 0.21122 0.26423 0.16273 0.0
H927 H 0.42858 0.36266 0.42218 0.0
H928 H 0.17638 0.18208 0.32115 0.0
N929 N 0.24101 0.25202 0.23615 0.0
C930 C 0.21562 0.2355 0.24487 0.0
C931 C 0.21212 0.25643 0.18601 0.0
C932 C 0.18722 0.23031 0.22517 0.0
C933 C 0.23981 0.26117 0.2064 0.0
C934 C 0.18565 0.24164 0.19582 0.0
N935 N 0.24563 0.23019 0.29294 0.0
C936 C 0.24934 0.21696 0.3201 0.0
C937 C 0.1922 0.20724 0.28392 0.0
C938 C 0.21802 0.22425 0.27409 0.0
C939 C 0.19566 0.19534 0.31283 0.0
C940 C 0.22444 0.19985 0.33073 0.0
H941 H 0.16416 0.23891 0.18056 0.0
H942 H 0.13918 0.21084 0.22125 0.0
H943 H 0.14369 0.18992 0.27199 0.0
O944 O 0.29652 0.21826 0.28107 0.0
O945 O 0.2484 0.28351 0.28986 0.0
O946 O 0.2705 0.33184 0.31595 0.0
O947 O 0.27839 0.22417 0.23206 0.0
O948 O 0.30615 0.26356 0.32357 0.0
O949 O 0.29775 0.30796 0.34588 0.0
O950 O 0.31319 0.37886 0.30193 0.0
O951 O 0.35663 0.31415 0.29878 0.0
O952 O 0.33428 0.26796 0.26773 0.0
O953 O 0.32425 0.37412 0.3522 0.0
O954 O 0.29923 0.333 0.26179 0.0
O955 O 0.30396 0.28712 0.23852 0.0
C956 C 0.24579 0.31009 0.30581 0.0
C957 C 0.29212 0.17688 0.23804 0.0
C958 C 0.31277 0.13639 0.25536 0.0
C959 C 0.32322 0.13181 0.22543 0.0
C960 C 0.3016 0.17174 0.20776 0.0
C961 C 0.31666 0.14873 0.2013 0.0
C962 C 0.29501 0.15719 0.26036 0.0
C963 C 0.29951 0.27996 0.34841 0.0
C964 C 0.28925 0.20697 0.25041 0.0
C965 C 0.16132 0.21432 0.23551 0.0
C966 C 0.16384 0.20258 0.26462 0.0
C967 C 0.35938 0.28889 0.28069 0.0
C968 C 0.3033 0.41569 0.34021 0.0
C969 C 0.27942 0.45342 0.32057 0.0
C970 C 0.287 0.47091 0.35158 0.0
C971 C 0.31079 0.43304 0.37126 0.0
C972 C 0.28631 0.42536 0.31531 0.0
C973 C 0.30222 0.46044 0.377 0.0
C974 C 0.30434 0.31556 0.23672 0.0
C975 C 0.3193 0.3923 0.33184 0.0
H976 H 0.33684 0.11549 0.22099 0.0
H977 H 0.29973 0.18701 0.19034 0.0
H978 H 0.32497 0.14533 0.17844 0.0
H979 H 0.28711 0.16077 0.28352 0.0
H980 H 0.28113 0.4926 0.35601 0.0
H981 H 0.32445 0.42613 0.39058 0.0
H982 H 0.28015 0.41226 0.29112 0.0
H983 H 0.30828 0.47401 0.40085 0.0
Tb984 Tb 0.57413 0.50879 0.03874 0.0
C985 C 0.52946 0.6226 0.10729 0.0
N986 N 0.51577 0.60116 0.08135 0.0
C987 C 0.46766 0.59958 0.09922 0.0
C988 C 0.51293 0.63241 0.13101 0.0
C989 C 0.48496 0.59064 0.07629 0.0
C990 C 0.48175 0.62025 0.12692 0.0
C991 C 0.57532 0.65716 0.13656 0.0
C992 C 0.56021 0.63478 0.11014 0.0
C993 C 0.55915 0.66633 0.16075 0.0
C994 C 0.52803 0.65401 0.15796 0.0
Tb995 Tb 0.54728 0.58753 0.04672 0.0
N996 N 0.57527 0.62494 0.08667 0.0
C997 C 0.60607 0.67006 0.13748 0.0
C998 C 0.60442 0.63947 0.08587 0.0
C999 C 0.62053 0.66159 0.11164 0.0
H1000 H 0.47362 0.57523 0.05452 0.0
H1001 H 0.64392 0.67235 0.11133 0.0
H1002 H 0.64616 0.5347 0.0263 0.0
H1003 H 0.49254 0.40617 0.98119 0.0
H1004 H 0.61509 0.63424 0.06526 0.0
H1005 H 0.61853 0.68729 0.15738 0.0
H1006 H 0.51531 0.44841 0.02527 0.0
H1007 H 0.44343 0.59063 0.09541 0.0
H1008 H 0.57041 0.68327 0.18143 0.0
H1009 H 0.51577 0.66156 0.17662 0.0
H1010 H 0.67576 0.52819 0.98254 0.0
H1011 H 0.46828 0.6271 0.14468 0.0
H1012 H 0.51692 0.3993 0.93237 0.0
N1013 N 0.60587 0.50361 1.00116 0.0
C1014 C 0.59436 0.48127 0.97537 0.0
C1015 C 0.65264 0.51529 0.97986 0.0
C1016 C 0.61099 0.47625 0.94993 0.0
C1017 C 0.63529 0.51947 1.00444 0.0
C1018 C 0.64025 0.49402 0.95218 0.0
N1019 N 0.55171 0.46688 1.00103 0.0
C1020 C 0.5262 0.44616 1.00402 0.0
C1021 C 0.55426 0.43807 0.94971 0.0
C1022 C 0.56639 0.46232 0.97532 0.0
C1023 C 0.52706 0.41809 0.95162 0.0
C1024 C 0.51324 0.42189 0.97914 0.0
H1025 H 0.65385 0.4907 0.93329 0.0
H1026 H 0.61066 0.44912 0.90371 0.0
H1027 H 0.56083 0.41583 0.90339 0.0
O1028 O 0.56446 0.47279 0.06558 0.0
O1029 O 0.56006 0.52421 0.99178 0.0
O1030 O 0.52601 0.55365 1.00304 0.0
O1031 O 0.61015 0.49011 0.05608 0.0
O1032 O 0.52513 0.50271 0.03701 0.0
O1033 O 0.51387 0.54818 0.05715 0.0
O1034 O 0.56352 0.62461 0.02161 0.0
O1035 O 0.5763 0.58098 0.09106 0.0
O1036 O 0.5678 0.52914 0.08777 0.0
O1037 O 0.51623 0.60963 0.02607 0.0
O1038 O 0.58585 0.58083 0.02333 0.0
O1039 O 0.60892 0.55139 0.05253 0.0
C1040 C 0.53859 0.53813 0.98211 0.0
C1041 C 0.60347 0.44839 0.08723 0.0
C1042 C 0.59502 0.40721 0.11915 0.0
C1043 C 0.6262 0.40848 0.12346 0.0
C1044 C 0.63451 0.44897 0.0917 0.0
C1045 C 0.64573 0.42911 0.10969 0.0
C1046 C 0.58358 0.42713 0.10075 0.0
C1047 C 0.50727 0.51823 0.05007 0.0
C1048 C 0.59248 0.47066 0.06933 0.0
C1049 C 0.59834 0.45306 0.92364 0.0
C1050 C 0.56999 0.43407 0.92348 0.0
C1051 C 0.5777 0.55663 0.10469 0.0
C1052 C 0.52712 0.65299 0.99846 0.0
C1053 C 0.53586 0.69498 0.9669 0.0
C1054 C 0.50624 0.69802 0.96871 0.0
C1055 C 0.49761 0.65701 0.99954 0.0
C1056 C 0.54651 0.67223 0.9819 0.0
C1057 C 0.48736 0.67922 0.98482 0.0
C1058 C 0.61055 0.57538 0.03807 0.0
C1059 C 0.53634 0.62896 0.01557 0.0
H1060 H 0.63538 0.39316 0.13728 0.0
H1061 H 0.65024 0.46497 0.08149 0.0
H1062 H 0.66969 0.42974 0.11301 0.0
H1063 H 0.55949 0.42606 0.09716 0.0
H1064 H 0.49761 0.71513 0.95742 0.0
H1065 H 0.4822 0.64299 0.01206 0.0
H1066 H 0.56931 0.66957 0.98062 0.0
H1067 H 0.46457 0.68191 0.98595 0.0
Tb1068 Tb 0.81164 0.34858 0.26582 0.0
C1069 C 0.75463 0.2367 0.35028 0.0
N1070 N 0.78146 0.25758 0.35749 0.0
C1071 C 0.77947 0.25912 0.41445 0.0
C1072 C 0.73819 0.2279 0.37507 0.0
C1073 C 0.79512 0.26683 0.38913 0.0
C1074 C 0.75059 0.24007 0.40737 0.0
C1075 C 0.71643 0.20122 0.31006 0.0
C1076 C 0.74406 0.22299 0.31807 0.0
C1077 C 0.69956 0.19331 0.33465 0.0
C1078 C 0.71042 0.20656 0.36702 0.0
Tb1079 Tb 0.80346 0.26733 0.31309 0.0
N1080 N 0.76067 0.23116 0.29459 0.0
C1081 C 0.70648 0.18814 0.2775 0.0
C1082 C 0.7512 0.21852 0.26282 0.0
C1083 C 0.72394 0.19682 0.2538 0.0
H1084 H 0.81795 0.28068 0.39491 0.0
H1085 H 0.71626 0.18703 0.22856 0.0
H1086 H 0.79554 0.33848 0.18419 0.0
H1087 H 0.89226 0.44059 0.34494 0.0
H1088 H 0.76408 0.22615 0.24448 0.0
H1089 H 0.6853 0.17139 0.2704 0.0
H1090 H 0.84485 0.40141 0.32999 0.0
H1091 H 0.78984 0.26756 0.43939 0.0
H1092 H 0.6782 0.17673 0.32893 0.0
H1093 H 0.69738 0.19976 0.38575 0.0
H1094 H 0.82378 0.35036 0.13911 0.0
H1095 H 0.73859 0.23395 0.42708 0.0
H1096 H 0.92768 0.44899 0.30532 0.0
N1097 N 0.83285 0.36005 0.22106 0.0
C1098 C 0.86075 0.37904 0.22787 0.0
C1099 C 0.83457 0.35828 0.164 0.0
C1100 C 0.8777 0.38637 0.203 0.0
C1101 C 0.81866 0.3516 0.18957 0.0
C1102 C 0.86458 0.37486 0.17078 0.0
N1103 N 0.85303 0.3877 0.28234 0.0
C1104 C 0.85978 0.40509 0.31233 0.0
C1105 C 0.89874 0.41534 0.26715 0.0
C1106 C 0.87109 0.39353 0.25951 0.0
C1107 C 0.9067 0.43192 0.29851 0.0
C1108 C 0.88672 0.42734 0.3209 0.0
H1109 H 0.87686 0.37991 0.15096 0.0
H1110 H 0.92006 0.41159 0.19226 0.0
H1111 H 0.93852 0.43694 0.24852 0.0
O1112 O 0.7978 0.38623 0.28774 0.0
O1113 O 0.85633 0.34218 0.29126 0.0
O1114 O 0.85091 0.29431 0.3091 0.0
O1115 O 0.7778 0.36354 0.23906 0.0
O1116 O 0.80473 0.32563 0.30594 0.0
O1117 O 0.80497 0.30558 0.34929 0.0
O1118 O 0.83951 0.25699 0.34064 0.0
O1119 O 0.75853 0.27689 0.29127 0.0
O1120 O 0.76417 0.31923 0.26379 0.0
O1121 O 0.8097 0.22213 0.30329 0.0
O1122 O 0.81039 0.28415 0.26854 0.0
O1123 O 0.81363 0.3109 0.22938 0.0
C1124 C 0.86807 0.32037 0.30315 0.0
C1125 C 0.77452 0.41403 0.25223 0.0
C1126 C 0.74809 0.45465 0.25667 0.0
C1127 C 0.75969 0.46476 0.22961 0.0
C1128 C 0.78628 0.42433 0.22531 0.0
C1129 C 0.77883 0.44968 0.21409 0.0
C1130 C 0.75558 0.4293 0.26786 0.0
C1131 C 0.807 0.33021 0.33729 0.0
C1132 C 0.77816 0.38545 0.2622 0.0
C1133 C 0.90641 0.40623 0.21093 0.0
C1134 C 0.9169 0.42072 0.24297 0.0
C1135 C 0.74658 0.29568 0.27392 0.0
C1136 C 0.85238 0.20875 0.33621 0.0
C1137 C 0.87857 0.16824 0.32531 0.0
C1138 C 0.89374 0.1754 0.35739 0.0
C1139 C 0.86768 0.21515 0.36832 0.0
C1140 C 0.85764 0.18492 0.3146 0.0
C1141 C 0.8882 0.1986 0.37876 0.0
C1142 C 0.81574 0.2854 0.23906 0.0
C1143 C 0.83374 0.22935 0.32552 0.0
H1144 H 0.75372 0.48411 0.22042 0.0
H1145 H 0.80053 0.41242 0.21258 0.0
H1146 H 0.78751 0.45738 0.19306 0.0
H1147 H 0.74593 0.421 0.28823 0.0
H1148 H 0.90979 0.16273 0.36599 0.0
H1149 H 0.86409 0.23335 0.38538 0.0
H1150 H 0.84615 0.17975 0.28973 0.0
H1151 H 0.89997 0.20388 0.40348 0.0
Tb1152 Tb 0.04587 0.58822 0.49625 0.0
C1153 C 0.10327 0.51737 0.61153 0.0
N1154 N 0.0794 0.50512 0.58786 0.0
C1155 C 0.09901 0.46091 0.57714 0.0
C1156 C 0.12675 0.50252 0.61823 0.0
C1157 C 0.07656 0.47688 0.57113 0.0
C1158 C 0.12452 0.47401 0.60041 0.0
C1159 C 0.12647 0.55728 0.65625 0.0
C1160 C 0.10313 0.54422 0.63003 0.0
C1161 C 0.15114 0.54382 0.66181 0.0
C1162 C 0.15122 0.51635 0.64287 0.0
Tb1163 Tb 0.04781 0.53575 0.57475 0.0
N1164 N 0.07868 0.55607 0.6238 0.0
C1165 C 0.12352 0.58252 0.6769 0.0
C1166 C 0.07395 0.57818 0.64639 0.0
C1167 C 0.09665 0.59235 0.67259 0.0
H1168 H 0.05716 0.46663 0.55287 0.0
H1169 H 0.09332 0.61078 0.68949 0.0
H1170 H 0.03414 0.65618 0.52416 0.0
H1171 H 0.99826 0.51241 0.38314 0.0
H1172 H 0.05294 0.58543 0.64447 0.0
H1173 H 0.14101 0.59344 0.69722 0.0
H1174 H 0.03749 0.53489 0.4298 0.0
H1175 H 0.09674 0.43864 0.56361 0.0
H1176 H 0.16962 0.55379 0.68144 0.0
H1177 H 0.16981 0.5056 0.64807 0.0
H1178 H 0.99555 0.68498 0.51274 0.0
H1179 H 0.14197 0.46168 0.6049 0.0
H1180 H 0.95454 0.53521 0.37137 0.0
N1181 N 1.01374 0.6194 0.48606 0.0
C1182 C 0.99197 0.60933 0.45954 0.0
C1183 C 0.99403 0.66351 0.49783 0.0
C1184 C 0.96925 0.62505 0.45228 0.0
C1185 C 0.01572 0.64681 0.50444 0.0
C1186 C 0.97037 0.65233 0.47201 0.0
N1187 N 1.01518 0.56895 0.44715 0.0
C1188 C 0.01827 0.54482 0.42614 0.0
C1189 C 0.97003 0.57147 0.41217 0.0
C1190 C 0.99265 0.58322 0.43941 0.0
C1191 C 0.97166 0.54517 0.39232 0.0
C1192 C 0.99622 0.53217 0.39899 0.0
H1193 H 0.95345 0.66519 0.46714 0.0
H1194 H 0.92841 0.62469 0.41986 0.0
H1195 H 0.9288 0.57744 0.38505 0.0
O1196 O 0.08432 0.59028 0.47386 0.0
O1197 O 1.00049 0.56237 0.49548 0.0
O1198 O 0.02716 0.55194 0.53558 0.0
O1199 O 0.06718 0.62996 0.48503 0.0
O1200 O 0.05388 0.5406 0.48465 0.0
O1201 O 0.05008 0.51015 0.52617 0.0
O1202 O 1.0107 0.53545 0.5983 0.0
O1203 O 0.09136 0.55117 0.56035 0.0
O1204 O 0.07514 0.58841 0.54072 0.0
O1205 O 0.01798 0.49374 0.57523 0.0
O1206 O 0.04311 0.58335 0.58869 0.0
O1207 O 0.04227 0.61247 0.54581 0.0
C1208 C 1.00039 0.54739 0.51901 0.0
C1209 C 0.0897 0.62577 0.43804 0.0
C1210 C 0.11236 0.61778 0.38999 0.0
C1211 C 0.10302 0.64234 0.37874 0.0
C1212 C 0.08012 0.65045 0.42694 0.0
C1213 C 0.08658 0.65848 0.39715 0.0
C1214 C 0.10521 0.60919 0.41905 0.0
C1215 C 0.05403 0.51418 0.49575 0.0
C1216 C 0.08627 0.61841 0.47034 0.0
C1217 C 0.94633 0.61317 0.42552 0.0
C1218 C 0.94659 0.58631 0.40565 0.0
C1219 C 0.09594 0.57319 0.54343 0.0
C1220 C 0.99418 0.49307 0.62236 0.0
C1221 C 0.97681 0.49844 0.67442 0.0
C1222 C 0.97436 0.46756 0.67517 0.0
C1223 C 0.99152 0.46211 0.62311 0.0
C1224 C 0.98704 0.51123 0.64838 0.0
C1225 C 0.98183 0.44949 0.6496 0.0
C1226 C 0.0407 0.60873 0.57689 0.0
C1227 C 1.00187 0.50627 0.59369 0.0
H1228 H 0.10899 0.64927 0.35625 0.0
H1229 H 0.06824 0.66383 0.44144 0.0
H1230 H 0.07955 0.67766 0.38876 0.0
H1231 H 0.11336 0.59053 0.42759 0.0
H1232 H 0.96635 0.45746 0.69535 0.0
H1233 H 0.99652 0.44763 0.60309 0.0
H1234 H 0.98836 0.53511 0.64813 0.0
H1235 H 0.97966 0.4256 0.65011 0.0
Tb1236 Tb 0.84801 0.78064 0.30856 0.0
C1237 C 0.73826 0.82993 0.23578 0.0
N1238 N 0.75647 0.84293 0.2642 0.0
C1239 C 0.75609 0.89212 0.2506 0.0
C1240 C 0.72969 0.84755 0.21268 0.0
C1241 C 0.76452 0.87364 0.27247 0.0
C1242 C 0.73931 0.87901 0.22021 0.0
C1243 C 0.70544 0.78502 0.20284 0.0
C1244 C 0.72614 0.79915 0.23109 0.0
C1245 C 0.69874 0.80205 0.17858 0.0
C1246 C 0.71073 0.83332 0.18355 0.0
Tb1247 Tb 0.77052 0.81068 0.29693 0.0
N1248 N 0.73249 0.78371 0.25557 0.0
C1249 C 0.69083 0.75464 0.20061 0.0
C1250 C 0.71535 0.75504 0.2549 0.0
C1251 C 0.69517 0.73987 0.22717 0.0
H1252 H 0.77823 0.88404 0.29555 0.0
H1253 H 0.68263 0.71691 0.22655 0.0
H1254 H 0.83145 0.70695 0.31536 0.0
H1255 H 0.93474 0.87378 0.37996 0.0
H1256 H 0.71657 0.74338 0.2756 0.0
H1257 H 0.67485 0.74295 0.17931 0.0
H1258 H 0.89366 0.84941 0.33567 0.0
H1259 H 0.76311 0.91645 0.25694 0.0
H1260 H 0.6832 0.79152 0.15656 0.0
H1261 H 0.70428 0.84642 0.16528 0.0
H1262 H 0.84444 0.67452 0.3546 0.0
H1263 H 0.73308 0.89337 0.2032 0.0
H1264 H 0.9505 0.84456 0.42185 0.0
N1265 N 0.86021 0.74746 0.34236 0.0
C1266 C 0.88215 0.75933 0.36834 0.0
C1267 C 0.85502 0.69842 0.359 0.0
C1268 C 0.8905 0.74147 0.39139 0.0
C1269 C 0.84743 0.71702 0.33694 0.0
C1270 C 0.87638 0.71077 0.38659 0.0
N1271 N 0.88762 0.80582 0.34913 0.0
C1272 C 0.90183 0.83571 0.35173 0.0
C1273 C 0.9191 0.80285 0.39869 0.0
C1274 C 0.89636 0.78948 0.37181 0.0
C1275 C 0.93315 0.83344 0.40146 0.0
C1276 C 0.92451 0.84991 0.37778 0.0
H1277 H 0.88218 0.69632 0.40371 0.0
H1278 H 0.9192 0.74143 0.43647 0.0
H1279 H 0.94415 0.79533 0.44297 0.0
O1280 O 0.87538 0.78962 0.27243 0.0
O1281 O 0.84365 0.81559 0.34812 0.0
O1282 O 0.7925 0.80565 0.34514 0.0
O1283 O 0.86929 0.74736 0.28981 0.0
O1284 O 0.85299 0.8239 0.28999 0.0
O1285 O 0.81317 0.8471 0.29849 0.0
O1286 O 0.72868 0.79854 0.31536 0.0
O1287 O 0.7906 0.80174 0.25227 0.0
O1288 O 0.81203 0.76304 0.26538 0.0
O1289 O 0.7579 0.84358 0.32798 0.0
O1290 O 0.76656 0.7624 0.29569 0.0
O1291 O 0.80847 0.7518 0.32373 0.0
C1292 C 0.81956 0.81915 0.36081 0.0
C1293 C 0.91422 0.76253 0.26724 0.0
C1294 C 0.95637 0.77211 0.23659 0.0
C1295 C 0.96986 0.75227 0.25286 0.0
C1296 C 0.92842 0.743 0.28349 0.0
C1297 C 0.95603 0.73796 0.27627 0.0
C1298 C 0.92855 0.77735 0.24391 0.0
C1299 C 0.84085 0.84761 0.29054 0.0
C1300 C 0.8827 0.76375 0.27062 0.0
C1301 C 0.91273 0.75473 0.41839 0.0
C1302 C 0.92697 0.78539 0.42207 0.0
C1303 C 0.80224 0.77851 0.24327 0.0
C1304 C 0.71244 0.83561 0.35355 0.0
C1305 C 0.66866 0.82727 0.38295 0.0
C1306 C 0.67803 0.85751 0.39813 0.0
C1307 C 0.72049 0.86581 0.36906 0.0
C1308 C 0.68607 0.81614 0.36044 0.0
C1309 C 0.70353 0.87654 0.39113 0.0
C1310 C 0.77906 0.74611 0.31411 0.0
C1311 C 0.73326 0.82532 0.33222 0.0
H1312 H 0.99108 0.74771 0.24721 0.0
H1313 H 0.91779 0.73084 0.30109 0.0
H1314 H 0.9665 0.72246 0.28846 0.0
H1315 H 0.91766 0.79198 0.23066 0.0
H1316 H 0.66514 0.86661 0.41526 0.0
H1317 H 0.7403 0.88135 0.36445 0.0
H1318 H 0.67926 0.7928 0.34866 0.0
H1319 H 0.71021 0.89984 0.40291 0.0
Tb1320 Tb 0.77304 0.31773 0.84856 0.0
C1321 C 0.84738 0.26468 0.72646 0.0
N1322 N 0.85772 0.28523 0.7537 0.0
C1323 C 0.9043 0.26893 0.7597 0.0
C1324 C 0.86432 0.24417 0.71558 0.0
C1325 C 0.88627 0.28838 0.76979 0.0
C1326 C 0.89298 0.24622 0.73293 0.0
C1327 C 0.81024 0.24689 0.67809 0.0
C1328 C 0.82112 0.26629 0.70798 0.0
C1329 C 0.82544 0.22449 0.66842 0.0
C1330 C 0.85265 0.22328 0.68705 0.0
Tb1331 Tb 0.82535 0.31331 0.77098 0.0
N1332 N 0.80767 0.28865 0.7181 0.0
C1333 C 0.78515 0.25136 0.65838 0.0
C1334 C 0.78603 0.29562 0.69659 0.0
C1335 C 0.77355 0.27642 0.66728 0.0
H1336 H 0.8951 0.30557 0.79083 0.0
H1337 H 0.75534 0.28131 0.65134 0.0
H1338 H 0.70363 0.32519 0.8199 0.0
H1339 H 0.85939 0.3859 0.94514 0.0
H1340 H 0.77798 0.31582 0.70164 0.0
H1341 H 0.77574 0.23669 0.63551 0.0
H1342 H 0.83938 0.3462 0.89804 0.0
H1343 H 0.92677 0.27127 0.77282 0.0
H1344 H 0.81711 0.20895 0.64591 0.0
H1345 H 0.86499 0.20687 0.67861 0.0
H1346 H 0.67072 0.35943 0.83274 0.0
H1347 H 0.90691 0.23109 0.72524 0.0
H1348 H 0.82763 0.41995 0.96398 0.0
N1349 N 0.74023 0.34842 0.85716 0.0
C1350 C 0.74942 0.37075 0.88333 0.0
C1351 C 0.69293 0.36307 0.84696 0.0
C1352 C 0.73096 0.39063 0.89176 0.0
C1353 C 0.71202 0.34397 0.83943 0.0
C1354 C 0.70248 0.3866 0.8731 0.0
N1355 N 0.79585 0.35598 0.89082 0.0
C1356 C 0.82478 0.35991 0.9065 0.0
C1357 C 0.78889 0.39809 0.92746 0.0
C1358 C 0.77793 0.37433 0.90118 0.0
C1359 C 0.81838 0.40195 0.94367 0.0
C1360 C 0.83639 0.38282 0.93307 0.0
H1361 H 0.68764 0.4014 0.87879 0.0
H1362 H 0.7277 0.42953 0.92507 0.0
H1363 H 0.77845 0.43613 0.95623 0.0
O1364 O 0.77277 0.29744 0.89003 0.0
O1365 O 0.79581 0.36267 0.84506 0.0
O1366 O 0.81029 0.33272 0.81121 0.0
O1367 O 0.73075 0.29296 0.85698 0.0
O1368 O 0.8171 0.30177 0.85872 0.0
O1369 O 0.84933 0.30527 0.81858 0.0
O1370 O 0.82444 0.35396 0.75407 0.0
O1371 O 0.80856 0.27026 0.78585 0.0
O1372 O 0.76751 0.2816 0.80675 0.0
O1373 O 0.86676 0.34456 0.77222 0.0
O1374 O 0.77656 0.31304 0.75598 0.0
O1375 O 0.7489 0.32065 0.79905 0.0
C1376 C 0.81327 0.36053 0.82435 0.0
C1377 C 0.72767 0.26976 0.90554 0.0
C1378 C 0.72994 0.2378 0.9464 0.0
C1379 C 0.69846 0.23232 0.94496 0.0
C1380 C 0.69613 0.26443 0.90375 0.0
C1381 C 0.68159 0.24581 0.92369 0.0
C1382 C 0.74449 0.25691 0.92736 0.0
C1383 C 0.84332 0.29927 0.84812 0.0
C1384 C 0.74356 0.28759 0.88416 0.0
C1385 C 0.74155 0.414 0.91831 0.0
C1386 C 0.77043 0.41772 0.93612 0.0
C1387 C 0.78445 0.2625 0.79977 0.0
C1388 C 0.86429 0.36842 0.72537 0.0
C1389 C 0.85483 0.3826 0.67191 0.0
C1390 C 0.88355 0.37914 0.66633 0.0
C1391 C 0.89308 0.36517 0.71953 0.0
C1392 C 0.84517 0.37721 0.70131 0.0
C1393 C 0.90256 0.37044 0.69007 0.0
C1394 C 0.75185 0.31812 0.76747 0.0
C1395 C 0.85359 0.36168 0.75579 0.0
H1396 H 0.68714 0.21776 0.96027 0.0
H1397 H 0.68286 0.27453 0.88702 0.0
H1398 H 0.65729 0.24167 0.92252 0.0
H1399 H 0.76893 0.26097 0.92909 0.0
H1400 H 0.8913 0.38344 0.64368 0.0
H1401 H 0.90818 0.35835 0.73759 0.0
H1402 H 0.82294 0.38011 0.70535 0.0
H1403 H 0.92472 0.36786 0.68565 0.0
Tb1404 Tb 0.7818 0.75862 0.77441 0.0
C1405 C 0.88725 0.86563 0.84974 0.0
N1406 N 0.85905 0.85588 0.85692 0.0
C1407 C 0.87807 0.87237 0.91355 0.0
C1408 C 0.91236 0.87711 0.87436 0.0
C1409 C 0.85391 0.86204 0.88803 0.0
C1410 C 0.90757 0.87889 0.90667 0.0
C1411 C 0.91723 0.88465 0.81004 0.0
C1412 C 0.88981 0.86907 0.81805 0.0
C1413 C 0.9431 0.89325 0.83384 0.0
C1414 C 0.94071 0.88914 0.86597 0.0
Tb1415 Tb 0.82114 0.83765 0.81362 0.0
N1416 N 0.86418 0.86063 0.79592 0.0
C1417 C 0.9171 0.89333 0.7793 0.0
C1418 C 0.86331 0.87186 0.76733 0.0
C1419 C 0.88973 0.8879 0.7583 0.0
H1420 H 0.83094 0.85946 0.89287 0.0
H1421 H 0.88889 0.89617 0.73528 0.0
H1422 H 0.76044 0.77401 0.69926 0.0
H1423 H 0.71791 0.69416 0.85261 0.0
H1424 H 0.84226 0.86915 0.7517 0.0
H1425 H 0.93754 0.90587 0.77237 0.0
H1426 H 0.76327 0.72267 0.8362 0.0
H1427 H 0.87386 0.87607 0.93833 0.0
H1428 H 0.96459 0.90469 0.8281 0.0
H1429 H 0.96042 0.89727 0.88441 0.0
H1430 H 0.71327 0.76889 0.6629 0.0
H1431 H 0.92612 0.88775 0.92627 0.0
H1432 H 0.66823 0.68751 0.81856 0.0
N1433 N 0.73946 0.75675 0.73779 0.0
C1434 C 0.71293 0.74176 0.74578 0.0
C1435 C 0.7128 0.76171 0.68643 0.0
C1436 C 0.68529 0.73713 0.72472 0.0
C1437 C 0.73972 0.76548 0.70783 0.0
C1438 C 0.68543 0.74796 0.69515 0.0
N1439 N 0.7404 0.7356 0.79518 0.0
C1440 C 0.742 0.72201 0.82229 0.0
C1441 C 0.68666 0.71373 0.78328 0.0
C1442 C 0.71349 0.73066 0.77515 0.0
C1443 C 0.68825 0.701 0.81177 0.0
C1444 C 0.71615 0.70488 0.83116 0.0
H1445 H 0.66461 0.74519 0.6786 0.0
H1446 H 0.63697 0.71819 0.71801 0.0
H1447 H 0.63839 0.69662 0.76842 0.0
O1448 O 0.78419 0.71532 0.78231 0.0
O1449 O 0.74996 0.78964 0.78697 0.0
O1450 O 0.77558 0.82498 0.83026 0.0
O1451 O 0.77252 0.72416 0.7339 0.0
O1452 O 0.80327 0.76105 0.82565 0.0
O1453 O 0.80817 0.8092 0.85198 0.0
O1454 O 0.79966 0.86677 0.79045 0.0
O1455 O 0.85589 0.81296 0.79552 0.0
O1456 O 0.83191 0.76465 0.77017 0.0
O1457 O 0.82759 0.88185 0.8376 0.0
O1458 O 0.79897 0.8298 0.76218 0.0
O1459 O 0.8044 0.78474 0.74013 0.0
C1460 C 0.74928 0.81 0.81248 0.0
C1461 C 0.79477 0.68261 0.74006 0.0
C1462 C 0.81582 0.63957 0.75093 0.0
C1463 C 0.81987 0.63526 0.71783 0.0
C1464 C 0.79652 0.67614 0.70704 0.0
C1465 C 0.81003 0.65315 0.69624 0.0
C1466 C 0.80607 0.6655 0.76186 0.0
C1467 C 0.80576 0.77987 0.85301 0.0
C1468 C 0.77752 0.70405 0.75171 0.0
C1469 C 0.65845 0.72143 0.73352 0.0
C1470 C 0.6592 0.70939 0.76245 0.0
C1471 C 0.85737 0.78624 0.77969 0.0
C1472 C 0.7889 0.90604 0.824 0.0
C1473 C 0.76515 0.9457 0.81147 0.0
C1474 C 0.75303 0.94582 0.84053 0.0
C1475 C 0.7768 0.90533 0.85306 0.0
C1476 C 0.78266 0.92571 0.80325 0.0
C1477 C 0.75864 0.92529 0.8612 0.0
C1478 C 0.80419 0.81271 0.73694 0.0
C1479 C 0.81004 0.88873 0.81464 0.0
H1480 H 0.83121 0.61873 0.7079 0.0
H1481 H 0.78762 0.68887 0.68968 0.0
H1482 H 0.81255 0.64885 0.67093 0.0
H1483 H 0.80698 0.67282 0.78741 0.0
H1484 H 0.73991 0.96203 0.84735 0.0
H1485 H 0.78181 0.88999 0.86945 0.0
H1486 H 0.7926 0.92647 0.78108 0.0
H1487 H 0.74957 0.92534 0.88376 0.0
Tb1488 Tb 0.60076 0.5731 0.57318 0.0
C1489 C 0.49757 0.47136 0.4952 0.0
N1490 N 0.51264 0.49874 0.48947 0.0
C1491 C 0.50773 0.47897 0.43291 0.0
C1492 C 0.48744 0.44666 0.46987 0.0
C1493 C 0.51687 0.50298 0.45854 0.0
C1494 C 0.49322 0.45067 0.43865 0.0
C1495 C 0.47381 0.44084 0.53244 0.0
C1496 C 0.49086 0.46842 0.52627 0.0
C1497 C 0.46412 0.41616 0.50728 0.0
C1498 C 0.47104 0.41905 0.47617 0.0
Tb1499 Tb 0.52146 0.53653 0.53279 0.0
N1500 N 0.50011 0.4929 0.55009 0.0
C1501 C 0.46613 0.43913 0.56345 0.0
C1502 C 0.49096 0.49172 0.57974 0.0
C1503 C 0.47454 0.46479 0.58711 0.0
H1504 H 0.52587 0.52502 0.45285 0.0
H1505 H 0.46769 0.4641 0.61079 0.0
H1506 H 0.58556 0.59853 0.64724 0.0
H1507 H 0.67533 0.6272 0.49701 0.0
H1508 H 0.49498 0.5116 0.59749 0.0
H1509 H 0.45291 0.4184 0.56906 0.0
H1510 H 0.64279 0.58428 0.51433 0.0
H1511 H 0.51121 0.4825 0.40855 0.0
H1512 H 0.45088 0.39485 0.51152 0.0
H1513 H 0.46324 0.39991 0.45698 0.0
H1514 H 0.5942 0.64717 0.68229 0.0
H1515 H 0.48594 0.43233 0.41861 0.0
H1516 H 0.68385 0.67854 0.52811 0.0
N1517 N 0.60727 0.61655 0.60949 0.0
C1518 C 0.62493 0.64153 0.60123 0.0
C1519 C 0.60261 0.64593 0.65933 0.0
C1520 C 0.6311 0.66986 0.62127 0.0
C1521 C 0.59714 0.61826 0.63879 0.0
C1522 C 0.61921 0.6719 0.65027 0.0
N1523 N 0.63062 0.61108 0.55364 0.0
C1524 C 0.64526 0.60658 0.52765 0.0
C1525 C 0.65577 0.6639 0.56356 0.0
C1526 C 0.6369 0.63869 0.57246 0.0
C1527 C 0.66911 0.65976 0.53566 0.0
C1528 C 0.66428 0.63086 0.51799 0.0
H1529 H 0.623 0.69335 0.6659 0.0
H1530 H 0.65324 0.71728 0.62642 0.0
H1531 H 0.67534 0.71196 0.57639 0.0
O1532 O 0.63765 0.55582 0.5636 0.0
O1533 O 0.5757 0.60899 0.55673 0.0
O1534 O 0.52847 0.58573 0.52827 0.0
O1535 O 0.63808 0.5818 0.6113 0.0
O1536 O 0.59533 0.55251 0.52132 0.0
O1537 O 0.54982 0.55888 0.49943 0.0
O1538 O 0.4807 0.54088 0.54791 0.0
O1539 O 0.54952 0.50152 0.54227 0.0
O1540 O 0.58717 0.52512 0.58437 0.0
O1541 O 0.48382 0.53202 0.49705 0.0
O1542 O 0.52626 0.55766 0.58446 0.0
O1543 O 0.57249 0.5542 0.60749 0.0
C1544 C 0.54948 0.61096 0.53956 0.0
C1545 C 0.68301 0.56338 0.60206 0.0
C1546 C 0.72447 0.54299 0.58664 0.0
C1547 C 0.73902 0.54956 0.61891 0.0
C1548 C 0.69747 0.57041 0.63445 0.0
C1549 C 0.72562 0.56366 0.64276 0.0
C1550 C 0.69705 0.55047 0.57825 0.0
C1551 C 0.57809 0.55863 0.49675 0.0
C1552 C 0.65259 0.56737 0.59247 0.0
C1553 C 0.64879 0.69525 0.61171 0.0
C1554 C 0.66123 0.69225 0.58306 0.0
C1555 C 0.57058 0.4995 0.56645 0.0
C1556 C 0.44999 0.56113 0.51256 0.0
C1557 C 0.41329 0.58748 0.53008 0.0
C1558 C 0.41203 0.60037 0.50158 0.0
C1559 C 0.44918 0.57411 0.48396 0.0
C1560 C 0.43245 0.56841 0.53572 0.0
C1561 C 0.43029 0.59387 0.47866 0.0
C1562 C 0.54447 0.55477 0.61021 0.0
C1563 C 0.46702 0.53836 0.51832 0.0
H1564 H 0.76026 0.54338 0.62558 0.0
H1565 H 0.68684 0.58043 0.65326 0.0
H1566 H 0.73667 0.56869 0.66776 0.0
H1567 H 0.68608 0.54476 0.55313 0.0
H1568 H 0.3965 0.61471 0.49684 0.0
H1569 H 0.46257 0.56861 0.46556 0.0
H1570 H 0.43237 0.55796 0.55753 0.0
H1571 H 0.42919 0.60348 0.45645 0.0
Tb1572 Tb 1.01137 0.54747 0.08182 0.0
C1573 C 0.11306 0.60274 1.00193 0.0
N1574 N 0.09168 0.57615 0.9953 0.0
C1575 C 0.08256 0.58255 0.93936 0.0
C1576 C 0.11903 0.62077 0.97764 0.0
C1577 C 0.07764 0.56521 0.96405 0.0
C1578 C 0.103 0.61062 0.94625 0.0
C1579 C 0.15353 0.6378 0.04002 0.0
C1580 C 0.13041 0.61117 0.03274 0.0
C1581 C 0.15863 0.65633 0.01619 0.0
C1582 C 0.1415 0.6478 0.98509 0.0
Tb1583 Tb 0.08782 0.55051 0.03847 0.0
N1584 N 0.12485 0.59292 0.05548 0.0
C1585 C 0.17141 0.64453 0.07075 0.0
C1586 C 0.14378 0.59794 0.08424 0.0
C1587 C 0.1669 0.62416 0.09273 0.0
H1588 H 0.06308 0.54286 0.95754 0.0
H1589 H 0.18134 0.6285 0.11605 0.0
H1590 H 0.04237 0.54656 0.16028 0.0
H1591 H 0.90918 0.48056 0.00755 0.0
H1592 H 0.14124 0.58159 0.10034 0.0
H1593 H 0.18938 0.66482 0.07732 0.0
H1594 H 0.95451 0.52288 0.02135 0.0
H1595 H 0.071 0.57396 0.91484 0.0
H1596 H 0.17626 0.67694 0.02133 0.0
H1597 H 0.14628 0.66196 0.96672 0.0
H1598 H 0.03443 0.5126 0.19985 0.0
H1599 H 0.10705 0.62377 0.9269 0.0
H1600 H 0.89939 0.44303 0.04467 0.0
N1601 N 1.00839 0.51852 0.12257 0.0
C1602 C 0.9846 0.4939 0.11587 0.0
C1603 C 0.02064 0.50675 0.1761 0.0
C1604 C 0.97877 0.47422 0.13878 0.0
C1605 C 0.0255 0.52578 0.15287 0.0
C1606 C 0.99748 0.48066 0.16891 0.0
N1607 N 0.97074 0.50844 0.06481 0.0
C1608 C 0.95071 0.50622 0.03725 0.0
C1609 C 0.9394 0.46461 0.07963 0.0
C1610 C 0.96502 0.48901 0.08646 0.0
C1611 C 0.91935 0.46145 0.05073 0.0
C1612 C 0.92486 0.48253 0.02963 0.0
H1613 H 0.9936 0.46619 0.18718 0.0
H1614 H 0.94934 0.43383 0.14866 0.0
H1615 H 0.91493 0.42543 0.09698 0.0
O1616 O 0.9746 0.56668 0.06708 0.0
O1617 O 0.02005 0.5005 0.06281 0.0
O1618 O 0.05969 0.50294 0.03169 0.0
O1619 O 0.99 0.56534 0.11826 0.0
O1620 O 0.02046 0.55972 0.03569 0.0
O1621 O 0.04594 0.53306 0.00581 0.0
O1622 O 0.12459 0.53134 0.05695 0.0
O1623 O 0.07979 0.59718 0.0579 0.0
O1624 O 0.03731 0.59572 0.08428 0.0
O1625 O 0.11283 0.53447 0.00579 0.0
O1626 O 0.07523 0.53751 0.08306 0.0
O1627 O 0.05273 0.5656 0.11406 0.0
C1628 C 0.03744 0.48687 0.04461 0.0
C1629 C 0.94779 0.58871 0.10737 0.0
C1630 C 0.9092 0.61679 0.09567 0.0
C1631 C 0.90664 0.62123 0.12875 0.0
C1632 C 0.94478 0.59331 0.14038 0.0
C1633 C 0.92429 0.60947 0.15093 0.0
C1634 C 0.92968 0.60032 0.08488 0.0
C1635 C 0.02082 0.54074 0.01018 0.0
C1636 C 0.97114 0.5735 0.09723 0.0
C1637 C 0.95394 0.44924 0.13141 0.0
C1638 C 0.93431 0.44448 0.10198 0.0
C1639 C 0.0613 0.61126 0.07348 0.0
C1640 C 0.15372 0.51035 0.01662 0.0
C1641 C 0.19333 0.48263 0.02578 0.0
C1642 C 0.19473 0.47879 0.99244 0.0
C1643 C 0.15569 0.50602 0.98322 0.0
C1644 C 0.17272 0.49848 0.03805 0.0
C1645 C 0.17601 0.49041 0.97134 0.0
C1646 C 0.07679 0.55651 0.10912 0.0
C1647 C 0.13023 0.52549 0.02738 0.0
H1648 H 0.89077 0.63371 0.13734 0.0
H1649 H 0.9585 0.5847 0.15819 0.0
H1650 H 0.92218 0.61299 0.17641 0.0
H1651 H 0.93164 0.59693 0.05932 0.0
H1652 H 0.21031 0.46655 0.98271 0.0
H1653 H 0.14124 0.51442 0.96593 0.0
H1654 H 0.17124 0.50105 0.06374 0.0
H1655 H 0.17709 0.48715 0.9456 0.0
C1656 C 0.05165 0.20104 0.03943 0.0
C1657 C 0.03024 0.20153 0.01129 0.0
C1658 C 0.02766 0.14523 0.999 0.0
C1659 C 0.04565 0.14367 0.0294 0.0
N1660 N 0.06704 0.17313 0.08199 0.0
N1661 N 0.99124 0.16876 0.97082 0.0
C1662 C 0.05555 0.17256 0.0504 0.0
C1663 C 0.01646 0.17205 0.99319 0.0
N1664 N 0.06935 0.22776 0.05573 0.0
N1665 N 0.02206 0.12171 0.97403 0.0
H1666 H 0.98088 0.18646 0.96709 0.0
H1667 H 0.97835 0.14766 0.9593 0.0
H1668 H 0.03146 0.10304 0.97454 0.0
H1669 H 1.01163 0.12282 0.95085 0.0
H1670 H 0.08739 0.22892 0.07398 0.0
H1671 H 0.06809 0.24851 0.04875 0.0
H1672 H 0.07247 0.1927 0.09918 0.0
H1673 H 0.06713 0.15347 0.09189 0.0
C1674 C 0.17278 0.79847 0.21583 0.0
C1675 C 0.17384 0.82229 0.19682 0.0
C1676 C 0.2265 0.84464 0.225 0.0
C1677 C 0.22482 0.82235 0.24637 0.0
N1678 N 0.19495 0.77705 0.26041 0.0
N1679 N 0.20046 0.8706 0.18737 0.0
C1680 C 0.19738 0.79922 0.24139 0.0
C1681 C 0.20045 0.84587 0.20246 0.0
N1682 N 0.14883 0.77392 0.20808 0.0
N1683 N 0.25329 0.86461 0.2253 0.0
H1684 H 0.18228 0.87232 0.17067 0.0
H1685 H 0.21724 0.8905 0.19346 0.0
H1686 H 0.27236 0.86671 0.24221 0.0
H1687 H 0.25733 0.87781 0.20718 0.0
H1688 H 0.14784 0.75393 0.2176 0.0
H1689 H 0.13061 0.77243 0.18995 0.0
H1690 H 0.17457 0.76268 0.26228 0.0
H1691 H 0.21335 0.77323 0.275 0.0
C1692 C 0.51621 0.89927 0.5439 0.0
C1693 C 0.52889 0.88682 0.51709 0.0
C1694 C 0.54438 0.94046 0.50656 0.0
C1695 C 0.53571 0.95342 0.53587 0.0
N1696 N 0.52029 0.94197 0.58654 0.0
N1697 N 0.56439 0.90036 0.48037 0.0
C1698 C 0.52344 0.93182 0.55556 0.0
C1699 C 0.5456 0.90887 0.50069 0.0
N1700 N 0.49632 0.88044 0.55801 0.0
N1701 N 0.55037 0.95773 0.48295 0.0
H1702 H 0.56907 0.87899 0.47788 0.0
H1703 H 0.57863 0.91576 0.46966 0.0
H1704 H 0.54835 0.98 0.48456 0.0
H1705 H 0.55378 0.94871 0.46005 0.0
H1706 H 0.48411 0.8884 0.57519 0.0
H1707 H 0.48957 0.85725 0.55019 0.0
H1708 H 0.51398 0.92754 0.60302 0.0
H1709 H 0.5277 0.96463 0.59687 0.0
C1710 C 0.49173 0.27798 0.65773 0.0
C1711 C 0.51469 0.30498 0.66815 0.0
C1712 C 0.49377 0.31402 0.71847 0.0
C1713 C 0.47107 0.2871 0.70792 0.0
N1714 N 0.44236 0.24937 0.66396 0.0
N1715 N 0.5317 0.35308 0.70333 0.0
C1716 C 0.46789 0.27132 0.67612 0.0
C1717 C 0.51371 0.32449 0.69688 0.0
N1718 N 0.49388 0.25725 0.63225 0.0
N1719 N 0.49734 0.32863 0.74958 0.0
H1720 H 0.54585 0.3617 0.68743 0.0
H1721 H 0.53023 0.36915 0.72254 0.0
H1722 H 0.48264 0.32202 0.76576 0.0
H1723 H 0.51586 0.34617 0.75987 0.0
H1724 H 0.47965 0.23573 0.62654 0.0
H1725 H 0.51138 0.26001 0.61854 0.0
H1726 H 0.43763 0.23869 0.63993 0.0
H1727 H 0.42455 0.24417 0.67712 0.0
C1728 C 0.05407 0.86947 0.68101 0.0
C1729 C 0.05458 0.83933 0.66835 0.0
C1730 C 0.06971 0.85665 0.61867 0.0
C1731 C 0.0751 0.88694 0.63397 0.0
N1732 N 0.07256 0.92301 0.6797 0.0
N1733 N 0.06897 0.80553 0.62695 0.0
C1734 C 0.06701 0.89363 0.66506 0.0
C1735 C 0.06351 0.83308 0.63739 0.0
N1736 N 0.0406 0.87493 0.70768 0.0
N1737 N 0.07122 0.85049 0.58637 0.0
H1738 H 0.06817 0.78831 0.64099 0.0
H1739 H 0.07811 0.80101 0.60588 0.0
H1740 H 0.07589 0.86751 0.57217 0.0
H1741 H 0.06465 0.8287 0.57321 0.0
H1742 H 0.03731 0.89609 0.71642 0.0
H1743 H 0.03 0.85773 0.71924 0.0
H1744 H 0.07066 0.92935 0.70388 0.0
H1745 H 0.08055 0.94113 0.66791 0.0
C1746 C 0.45446 0.80673 0.80584 0.0
C1747 C 0.47242 0.83285 0.82737 0.0
C1748 C 0.42383 0.85049 0.83078 0.0
C1749 C 0.40571 0.8243 0.80926 0.0
N1750 N 0.40526 0.77759 0.776 0.0
N1751 N 0.47335 0.87978 0.86032 0.0
C1752 C 0.42168 0.80255 0.79687 0.0
C1753 C 0.45665 0.85474 0.83962 0.0
N1754 N 0.46886 0.78516 0.79466 0.0
N1755 N 0.40925 0.8711 0.8437 0.0
H1756 H 0.49667 0.88333 0.8672 0.0
H1757 H 0.46486 0.8974 0.87061 0.0
H1758 H 0.38591 0.86811 0.83857 0.0
H1759 H 0.41945 0.89068 0.8599 0.0
H1760 H 0.45813 0.76428 0.78106 0.0
H1761 H 0.49226 0.7879 0.79987 0.0
H1762 H 0.41438 0.76196 0.76284 0.0
H1763 H 0.38177 0.77269 0.77118 0.0
C1764 C 0.51312 0.17343 0.12186 0.0
C1765 C 0.53494 0.18221 0.15085 0.0
C1766 C 0.56431 0.14845 0.12568 0.0
C1767 C 0.54057 0.13593 0.09925 0.0
N1768 N 0.49081 0.13686 0.07327 0.0
N1769 N 0.57985 0.17359 0.18134 0.0
C1770 C 0.51461 0.1487 0.09759 0.0
C1771 C 0.55973 0.16791 0.15324 0.0
N1772 N 0.49083 0.18882 0.11722 0.0
N1773 N 0.59264 0.14495 0.12258 0.0
H1774 H 0.57864 0.18868 0.20155 0.0
H1775 H 0.59637 0.16133 0.1853 0.0
H1776 H 0.59753 0.1369 0.10001 0.0
H1777 H 0.61163 0.1548 0.13994 0.0
H1778 H 0.47714 0.18689 0.09498 0.0
H1779 H 0.48698 0.20478 0.13521 0.0
H1780 H 0.46979 0.14224 0.0728 0.0
H1781 H 0.49148 0.12033 0.05422 0.0
C1782 C 0.15751 0.3138 0.30327 0.0
C1783 C 0.15629 0.33136 0.33399 0.0
C1784 C 0.21268 0.33218 0.3472 0.0
C1785 C 0.2142 0.31598 0.31577 0.0
N1786 N 0.18694 0.29857 0.26178 0.0
N1787 N 0.18546 0.35683 0.38524 0.0
C1788 C 0.18613 0.30863 0.29352 0.0
C1789 C 0.18483 0.34039 0.35561 0.0
N1790 N 0.13088 0.30028 0.28346 0.0
N1791 N 0.23857 0.34096 0.36941 0.0
H1792 H 0.1691 0.3687 0.39011 0.0
H1793 H 0.20202 0.35893 0.40523 0.0
H1794 H 0.25744 0.33207 0.36757 0.0
H1795 H 0.24193 0.35731 0.38983 0.0
H1796 H 0.12926 0.28426 0.26303 0.0
H1797 H 0.10992 0.30265 0.2891 0.0
H1798 H 0.16879 0.29586 0.24324 0.0
H1799 H 0.20691 0.29624 0.25338 0.0
C1800 C 1.00508 0.06616 0.18429 0.0
C1801 C 1.00353 0.03845 0.19687 0.0
C1802 C 0.03579 0.02388 0.1573 0.0
C1803 C 0.03401 0.04947 0.14146 0.0
N1804 N 0.02013 0.09741 0.14328 0.0
N1805 N 1.01326 0.98874 0.191 0.0
C1806 C 0.01929 0.07121 0.15589 0.0
C1807 C 0.01782 0.01685 0.18218 0.0
N1808 N 0.99355 0.08797 0.20019 0.0
N1809 N 0.05572 1.00673 0.14996 0.0
H1810 H 1.00061 0.9827 0.20913 0.0
H1811 H 0.01955 0.97066 0.1782 0.0
H1812 H 0.06989 1.01085 0.13281 0.0
H1813 H 0.06031 0.99001 0.16315 0.0
H1814 H 0.99443 0.10934 0.19401 0.0
H1815 H 0.98405 0.08509 0.22116 0.0
H1816 H 1.00867 0.11374 0.15061 0.0
H1817 H 0.03276 0.10321 0.1251 0.0
C1818 C 0.24734 0.70478 0.52313 0.0
C1819 C 0.26871 0.68702 0.51804 0.0
C1820 C 0.27041 0.69995 0.46368 0.0
C1821 C 0.24936 0.718 0.4696 0.0
N1822 N 0.22804 0.74697 0.50855 0.0
N1823 N 0.30541 0.67224 0.48688 0.0
C1824 C 0.2413 0.72355 0.5006 0.0
C1825 C 0.28194 0.68608 0.48934 0.0
N1826 N 0.23136 0.70253 0.5484 0.0
N1827 N 0.27837 0.69518 0.43351 0.0
H1828 H 0.31368 0.66131 0.50516 0.0
H1829 H 0.31808 0.67345 0.46797 0.0
H1830 H 0.27048 0.70508 0.4142 0.0
H1831 H 0.29152 0.68012 0.42701 0.0
H1832 H 0.21276 0.71206 0.55024 0.0
H1833 H 0.23479 0.68904 0.56588 0.0
H1834 H 0.22416 0.75345 0.53204 0.0
H1835 H 0.22414 0.76189 0.49255 0.0
C1836 C 0.64098 0.09317 0.6704 0.0
C1837 C 0.65672 0.06988 0.66979 0.0
C1838 C 0.61716 0.03657 0.62987 0.0
C1839 C 0.6014 0.06009 0.62994 0.0
N1840 N 0.59327 0.10654 0.65835 0.0
N1841 N 0.66446 0.02255 0.6454 0.0
C1842 C 0.61178 0.08727 0.65245 0.0
C1843 C 0.64629 0.04255 0.64822 0.0
N1844 N 0.65432 0.1211 0.6878 0.0
N1845 N 0.60313 1.00789 0.61494 0.0
H1846 H 0.68611 0.02693 0.6589 0.0
H1847 H 0.65941 1.0034 0.62771 0.0
H1848 H 0.58085 1.00217 0.60313 0.0
H1849 H 0.61248 0.98923 0.61674 0.0
H1850 H 0.64514 0.13994 0.68652 0.0
H1851 H 0.67616 0.12616 0.7008 0.0
H1852 H 0.59824 0.1239 0.67811 0.0
H1853 H 0.5724 0.1049 0.64441 0.0
C1854 C 0.34311 0.33617 0.95621 0.0
C1855 C 0.32723 0.35845 0.96617 0.0
C1856 C 0.308 0.35694 0.90823 0.0
C1857 C 0.31981 0.33135 0.89882 0.0
N1858 N 0.34033 0.29141 0.91787 0.0
N1859 N 0.28717 0.38314 0.95019 0.0
C1860 C 0.33526 0.31959 0.92393 0.0
C1861 C 0.30763 0.36694 0.94176 0.0
N1862 N 0.36643 0.3313 0.97684 0.0
N1863 N 0.29797 0.3727 0.88548 0.0
H1864 H 0.28365 0.38845 0.97403 0.0
H1865 H 0.27105 0.38791 0.93309 0.0
H1866 H 0.29779 0.3666 0.86083 0.0
H1867 H 0.29306 0.39369 0.89167 0.0
H1868 H 0.38012 0.31704 0.96944 0.0
H1869 H 0.37427 0.34406 0.99981 0.0
H1870 H 0.34948 0.28087 0.93597 0.0
H1871 H 0.33141 0.27737 0.89584 0.0
C1872 C 0.02288 0.05974 0.39479 0.0
C1873 C 1.00182 0.03333 0.37765 0.0
C1874 C 1.00691 1.00908 0.42662 0.0
C1875 C 0.02684 0.0358 0.44487 0.0
N1876 N 0.05387 0.08695 0.44548 0.0
N1877 N 0.96847 0.9858 0.38005 0.0
C1878 C 0.03466 0.06129 0.42861 0.0
C1879 C 0.99258 1.00878 0.39432 0.0
N1880 N 0.0323 0.08302 0.37832 0.0
N1881 N 1.00187 0.98342 0.43999 0.0
H1882 H 0.9565 0.98533 0.35715 0.0
H1883 H 0.95816 0.9689 0.39211 0.0
H1884 H 1.01045 0.98352 0.46382 0.0
H1885 H 0.99116 0.96216 0.42706 0.0
H1886 H 0.04911 0.10227 0.38791 0.0
H1887 H 0.02414 0.08255 0.35392 0.0
H1888 H 0.05823 0.10767 0.43728 0.0
H1889 H 0.06525 0.0876 0.46858 0.0
C1890 C 0.32042 0.71858 0.69297 0.0
C1891 C 0.29158 0.69973 0.68106 0.0
C1892 C 0.26659 0.73729 0.70368 0.0
C1893 C 0.29544 0.7553 0.71779 0.0
N1894 N 0.34908 0.76885 0.71621 0.0
N1895 N 0.23758 0.68739 0.67914 0.0
C1896 C 0.32236 0.7475 0.71016 0.0
C1897 C 0.26471 0.7079 0.6878 0.0
N1898 N 0.34575 0.70866 0.68733 0.0
N1899 N 0.24141 0.74879 0.70381 0.0
H1900 H 0.2359 0.66533 0.668 0.0
H1901 H 0.21745 0.69108 0.6861 0.0
H1902 H 0.24237 0.77116 0.71304 0.0
H1903 H 0.22005 0.7373 0.69171 0.0
H1904 H 0.36767 0.72029 0.69748 0.0
H1905 H 0.34456 0.68731 0.67446 0.0
H1906 H 0.36864 0.76579 0.70736 0.0
H1907 H 0.35128 0.79083 0.7279 0.0
C1908 C 0.68956 0.10405 0.8643 0.0
C1909 C 0.67604 0.07768 0.84146 0.0
C1910 C 0.62678 0.07679 0.85749 0.0
C1911 C 0.63954 0.10521 0.87731 0.0
N1912 N 0.68354 0.1397 0.90928 0.0
N1913 N 0.63658 0.03285 0.82556 0.0
C1914 C 0.67118 0.11682 0.88396 0.0
C1915 C 0.64619 0.06179 0.84166 0.0
N1916 N 0.7192 0.11812 0.8656 0.0
N1917 N 0.59621 0.06513 0.85239 0.0
H1918 H 0.65114 0.02204 0.81384 0.0
H1919 H 0.61565 0.01889 0.8264 0.0
H1920 H 0.58116 0.07578 0.86326 0.0
H1921 H 0.58549 0.04582 0.83587 0.0
H1922 H 0.72853 0.14004 0.8775 0.0
H1923 H 0.7344 0.10833 0.8541 0.0
H1924 H 0.70667 0.14675 0.91751 0.0
H1925 H 0.67059 0.14969 0.92419 0.0
C1926 C 0.3442 0.34982 0.16933 0.0
C1927 C 0.32061 0.35675 0.1486 0.0
C1928 C 0.28518 0.33674 0.18545 0.0
C1929 C 0.30872 0.3277 0.20466 0.0
N1930 N 0.35679 0.31438 0.20324 0.0
N1931 N 0.26687 0.35077 0.1337 0.0
C1932 C 0.33711 0.331 0.19328 0.0
C1933 C 0.29049 0.3482 0.15561 0.0
N1934 N 0.37366 0.3609 0.16633 0.0
N1935 N 0.25765 0.33427 0.19548 0.0
H1936 H 0.26994 0.36002 0.11259 0.0
H1937 H 0.24432 0.34168 0.13522 0.0
H1938 H 0.25279 0.32535 0.21635 0.0
H1939 H 0.24027 0.34262 0.18422 0.0
H1940 H 0.39161 0.35908 0.18331 0.0
H1941 H 0.38003 0.37401 0.14871 0.0
H1942 H 0.37645 0.31389 0.19323 0.0
H1943 H 0.35166 0.29841 0.21837 0.0
C1944 C 0.25117 0.01796 0.01232 0.0
C1945 C 0.253 0.98873 0.01811 0.0
C1946 C 0.23244 0.99631 0.06841 0.0
C1947 C 0.23696 0.0274 0.06603 0.0
N1948 N 0.24922 0.06847 0.03558 0.0
N1949 N 0.24615 0.94957 0.05227 0.0
C1950 C 0.24556 0.03842 0.03766 0.0
C1951 C 0.24312 0.97739 0.04585 0.0
N1952 N 0.2561 0.02608 0.98291 0.0
N1953 N 0.21714 0.98463 0.09162 0.0
H1954 H 0.25086 0.9332 0.03552 0.0
H1955 H 0.24481 0.94302 0.075 0.0
H1956 H 0.20894 0.99774 0.10896 0.0
H1957 H 0.21019 0.96149 0.0918 0.0
H1958 H 0.25346 0.04648 0.97595 0.0
H1959 H 0.26043 1.01091 0.96435 0.0
H1960 H 0.25775 0.07835 0.01668 0.0
H1961 H 0.24553 0.08415 0.054 0.0
C1962 C 0.69171 0.62571 0.06069 0.0
C1963 C 0.69386 0.6407 0.03315 0.0
C1964 C 0.64548 0.6069 0.00638 0.0
C1965 C 0.64078 0.59558 0.03585 0.0
N1966 N 0.65856 0.59878 0.09317 0.0
N1967 N 0.67116 0.64726 0.98048 0.0
C1968 C 0.66385 0.60587 0.06349 0.0
C1969 C 0.67012 0.63193 0.0063 0.0
N1970 N 0.7162 0.63046 0.08448 0.0
N1971 N 0.62752 0.59252 0.97794 0.0
H1972 H 0.68936 0.6648 0.97894 0.0
H1973 H 0.65297 0.64407 0.96186 0.0
H1974 H 0.61119 0.57253 0.9765 0.0
H1975 H 0.6313 0.59814 0.95532 0.0
H1976 H 0.7171 0.61743 0.10302 0.0
H1977 H 0.73658 0.64569 0.08434 0.0
H1978 H 0.67329 0.6083 0.11464 0.0
H1979 H 0.63806 0.5862 0.09717 0.0
C1980 C 0.71699 0.50537 0.31605 0.0
C1981 C 0.68909 0.50541 0.2971 0.0
C1982 C 0.69665 0.46517 0.25675 0.0
C1983 C 0.72688 0.46984 0.27242 0.0
N1984 N 0.76627 0.49346 0.31745 0.0
N1985 N 0.65126 0.48415 0.2496 0.0
C1986 C 0.73707 0.48933 0.30252 0.0
C1987 C 0.67825 0.48451 0.26783 0.0
N1988 N 0.72389 0.52033 0.34724 0.0
N1989 N 0.68549 0.44192 0.23152 0.0
H1990 H 0.63606 0.49645 0.25716 0.0
H1991 H 0.64442 0.47274 0.22594 0.0
H1992 H 0.69846 0.4274 0.22282 0.0
H1993 H 0.66279 0.43522 0.2211 0.0
H1994 H 0.74254 0.51908 0.36347 0.0
H1995 H 0.7091 0.53154 0.35794 0.0
H1996 H 0.77608 0.50982 0.33757 0.0
H1997 H 0.7815 0.48174 0.30856 0.0
C1998 C 0.92945 0.48769 0.4929 0.0
C1999 C 0.91398 0.49256 0.51939 0.0
C2000 C 0.95587 0.53302 0.54693 0.0
C2001 C 0.97301 0.52583 0.52239 0.0
N2002 N 0.97665 0.49524 0.47231 0.0
N2003 N 0.91303 0.51617 0.57364 0.0
C2004 C 0.96009 0.50245 0.49575 0.0
C2005 C 0.92748 0.51391 0.5472 0.0
N2006 N 0.91418 0.4711 0.46402 0.0
N2007 N 0.96548 0.55929 0.56835 0.0
H2008 H 0.89185 0.50254 0.57441 0.0
H2009 H 0.92313 0.52984 0.59559 0.0
H2010 H 0.98625 0.57384 0.56895 0.0
H2011 H 0.95208 0.56754 0.58395 0.0
H2012 H 0.9234 0.4697 0.44261 0.0
H2013 H 0.89114 0.46121 0.46038 0.0
H2014 H 0.96975 0.47589 0.45487 0.0
H2015 H 0.99834 0.50732 0.47163 0.0
C2016 C 0.35404 0.11747 0.33142 0.0
C2017 C 0.35397 0.08754 0.31857 0.0
C2018 C 0.31587 0.08808 0.27328 0.0
C2019 C 0.32161 0.11975 0.28138 0.0
N2020 N 0.34685 0.16564 0.31898 0.0
N2021 N 0.33831 0.04542 0.27415 0.0
C2022 C 0.34028 0.13487 0.31116 0.0
C2023 C 0.33545 0.07278 0.28895 0.0
N2024 N 0.36779 0.12923 0.3625 0.0
N2025 N 0.29234 0.07291 0.24979 0.0
H2026 H 0.35328 0.0334 0.28375 0.0
H2027 H 0.32779 0.03596 0.25057 0.0
H2028 H 0.27729 0.08387 0.23816 0.0
H2029 H 0.28607 0.04939 0.24455 0.0
H2030 H 0.36613 0.15004 0.37437 0.0
H2031 H 0.37847 0.11678 0.37743 0.0
H2032 H 0.36254 0.17758 0.33888 0.0
H2033 H 0.33855 0.17977 0.30453 0.0
C2034 C 0.34307 0.13143 0.53401 0.0
C2035 C 0.34861 0.16322 0.54378 0.0
C2036 C 0.39842 0.16244 0.57258 0.0
C2037 C 0.3895 0.13061 0.56917 0.0
N2038 N 0.35323 0.0841 0.54686 0.0
N2039 N 0.38178 0.20907 0.57502 0.0
C2040 C 0.36197 0.11482 0.54951 0.0
C2041 C 0.37667 0.17898 0.56314 0.0
N2042 N 0.32 0.11725 0.50954 0.0
N2043 N 0.42754 0.17681 0.58554 0.0
H2044 H 0.36646 0.22238 0.57042 0.0
H2045 H 0.40047 0.22054 0.59203 0.0
H2046 H 0.44375 0.16507 0.59294 0.0
H2047 H 0.4363 0.19973 0.58569 0.0
H2048 H 0.31633 0.09453 0.49969 0.0
H2049 H 0.30666 0.12904 0.49666 0.0
H2050 H 0.33166 0.07172 0.53626 0.0
H2051 H 0.36706 0.07116 0.55697 0.0
C2052 C 0.71254 0.6921 0.33842 0.0
C2053 C 0.71393 0.66381 0.32118 0.0
C2054 C 0.75914 0.68925 0.30007 0.0
C2055 C 0.75895 0.7171 0.31908 0.0
N2056 N 0.73824 0.74416 0.36019 0.0
N2057 N 0.74086 0.63488 0.28812 0.0
C2058 C 0.73635 0.71822 0.33929 0.0
C2059 C 0.73811 0.66222 0.30309 0.0
N2060 N 0.68836 0.6941 0.35397 0.0
N2061 N 0.77804 0.68885 0.27737 0.0
H2062 H 0.72436 0.61494 0.28594 0.0
H2063 H 0.76031 0.63168 0.27908 0.0
H2064 H 0.7938 0.7079 0.27438 0.0
H2065 H 0.77663 0.67028 0.25974 0.0
H2066 H 0.68379 0.7145 0.3633 0.0
H2067 H 0.67167 0.67532 0.35592 0.0
H2068 H 0.72435 0.74598 0.37779 0.0
H2069 H 0.75565 0.76331 0.362 0.0
C2070 C 0.8391 0.43753 0.80285 0.0
C2071 C 0.86518 0.44797 0.82664 0.0
C2072 C 0.86229 0.39719 0.83865 0.0
C2073 C 0.83353 0.3878 0.81887 0.0
N2074 N 0.79115 0.4017 0.78909 0.0
N2075 N 0.8993 0.43888 0.87111 0.0
C2076 C 0.82096 0.40861 0.80261 0.0
C2077 C 0.87652 0.42809 0.84532 0.0
N2078 N 0.83177 0.455 0.78046 0.0
N2079 N 0.87547 0.37688 0.8524 0.0
H2080 H 0.91053 0.4615 0.87724 0.0
H2081 H 0.90529 0.42586 0.88834 0.0
H2082 H 0.86453 0.35453 0.85034 0.0
H2083 H 0.89788 0.38184 0.86381 0.0
H2084 H 0.81428 0.44691 0.76092 0.0
H2085 H 0.84514 0.47623 0.77944 0.0
H2086 H 0.78046 0.41745 0.77979 0.0
H2087 H 0.77651 0.38112 0.7898 0.0
C2088 C 0.0592 0.9182 0.09893 0.0
C2089 C 0.08453 0.90584 0.09174 0.0
C2090 C 0.10185 0.95433 0.06773 0.0
C2091 C 0.0765 0.9667 0.07508 0.0
N2092 N 0.0293 0.9564 0.09536 0.0
N2093 N 0.13162 0.9154 0.07114 0.0
C2094 C 0.0549 0.94726 0.08998 0.0
C2095 C 0.10602 0.92489 0.07632 0.0
N2096 N 0.03899 0.90228 0.11537 0.0
N2097 N 0.12166 0.97035 0.05096 0.0
H2098 H 0.13525 0.89478 0.0766 0.0
H2099 H 0.15006 0.92827 0.06325 0.0
H2100 H 0.1194 0.99101 0.04429 0.0
H2101 H 0.13922 0.96276 0.04176 0.0
H2102 H 0.02314 0.91115 0.12672 0.0
H2103 H 0.03881 0.8802 0.11908 0.0
H2104 H 1.01026 0.94269 0.10134 0.0
H2105 H 0.02696 0.97802 0.09291 0.0
C2106 C 0.91951 0.27582 0.87768 0.0
C2107 C 0.92589 0.28649 0.91199 0.0
C2108 C 0.87417 0.29792 0.90637 0.0
C2109 C 0.86956 0.29128 0.87147 0.0
N2110 N 0.88193 0.25834 0.82895 0.0
N2111 N 0.90944 0.31345 0.95692 0.0
C2112 C 0.89095 0.27633 0.85846 0.0
C2113 C 0.90313 0.29892 0.9256 0.0
N2114 N 0.94075 0.26495 0.86279 0.0
N2115 N 0.85016 0.29976 0.92212 0.0
H2116 H 0.92986 0.31542 0.97191 0.0
H2117 H 0.89564 0.32637 0.96687 0.0
H2118 H 0.82796 0.29416 0.91047 0.0
H2119 H 0.85157 0.30172 0.94726 0.0
H2120 H 0.93991 0.26171 0.83768 0.0
H2121 H 0.95991 0.2604 0.87539 0.0
H2122 H 0.89421 0.24362 0.81931 0.0
H2123 H 0.86014 0.2549 0.81616 0.0
C2124 C 0.59682 0.19991 0.61047 0.0
C2125 C 0.5776 0.21538 0.59296 0.0
C2126 C 0.54688 0.16327 0.56608 0.0
C2127 C 0.56731 0.1478 0.58218 0.0
N2128 N 0.61475 0.1543 0.61697 0.0
N2129 N 0.53516 0.2104 0.55149 0.0
C2130 C 0.59306 0.16716 0.60346 0.0
C2131 C 0.55295 0.19646 0.56999 0.0
N2132 N 0.61884 0.21666 0.63474 0.0
N2133 N 0.52111 0.14613 0.54704 0.0
H2134 H 0.53837 0.23385 0.55436 0.0
H2135 H 0.51865 0.19922 0.53201 0.0
H2136 H 0.51616 0.12261 0.5431 0.0
H2137 H 0.50364 0.15481 0.53665 0.0
H2138 H 0.63075 0.20735 0.652 0.0
H2139 H 0.62397 0.24021 0.63892 0.0
H2140 H 0.6357 0.16637 0.6296 0.0
H2141 H 0.6125 0.13115 0.61336 0.0
C2142 C 0.61245 0.78213 0.4291 0.0
C2143 C 0.58816 0.79666 0.42305 0.0
C2144 C 0.61269 0.81922 0.38021 0.0
C2145 C 0.6393 0.80958 0.39038 0.0
N2146 N 0.66458 0.78063 0.42368 0.0
N2147 N 0.56705 0.83211 0.39502 0.0
C2148 C 0.63903 0.79024 0.4143 0.0
C2149 C 0.58855 0.81564 0.39879 0.0
N2150 N 0.60984 0.76027 0.44854 0.0
N2151 N 0.61085 0.83231 0.35282 0.0
H2152 H 0.54947 0.83105 0.4087 0.0
H2153 H 0.56827 0.84899 0.38049 0.0
H2154 H 0.62824 0.83494 0.33879 0.0
H2155 H 0.59114 0.83752 0.34233 0.0
H2156 H 0.62528 0.74675 0.45163 0.0
H2157 H 0.5908 0.75395 0.45963 0.0
H2158 H 0.66733 0.76927 0.44338 0.0
H2159 H 0.68362 0.78509 0.41221 0.0
C2160 C 0.03585 0.23987 0.40091 0.0
C2161 C 0.05956 0.2661 0.41293 0.0
C2162 C 0.07415 0.2423 0.46019 0.0
C2163 C 0.05003 0.21672 0.44843 0.0
N2164 N 0.01591 0.18659 0.40251 0.0
N2165 N 0.10745 0.28679 0.44794 0.0
C2166 C 0.03377 0.21398 0.41689 0.0
C2167 C 0.08068 0.26562 0.44074 0.0
N2168 N 1.01374 0.24022 0.37601 0.0
N2169 N 0.09016 0.24482 0.49044 0.0
H2170 H 0.11377 0.30308 0.43333 0.0
H2171 H 0.12478 0.2861 0.4662 0.0
H2172 H 0.08691 0.22747 0.50441 0.0
H2173 H 0.10553 0.2645 0.50214 0.0
H2174 H 0.99453 0.22271 0.36859 0.0
H2175 H 1.01266 0.25906 0.36486 0.0
H2176 H 1.00564 0.18222 0.37831 0.0
H2177 H 1.01426 0.16749 0.41393 0.0
C2178 C 0.65741 0.26597 0.27495 0.0
C2179 C 0.64248 0.28115 0.25231 0.0
C2180 C 0.69511 0.30256 0.24048 0.0
C2181 C 0.71042 0.29067 0.26627 0.0
N2182 N 0.70144 0.27019 0.31545 0.0
N2183 N 0.65191 0.32285 0.22221 0.0
C2184 C 0.69016 0.27482 0.28544 0.0
C2185 C 0.66283 0.30206 0.23775 0.0
N2186 N 0.64077 0.24233 0.28632 0.0
N2187 N 0.71056 0.31317 0.21701 0.0
H2188 H 0.62966 0.32508 0.2215 0.0
H2189 H 0.66598 0.34041 0.21401 0.0
H2190 H 0.73231 0.31063 0.21488 0.0
H2191 H 0.70015 0.32033 0.19688 0.0
H2192 H 0.65078 0.2287 0.30021 0.0
H2193 H 0.61755 0.2344 0.27898 0.0
H2194 H 0.68766 0.26053 0.33113 0.0
H2195 H 0.72351 0.28018 0.32658 0.0
C2196 C 0.55074 0.95032 0.91909 0.0
C2197 C 0.57097 0.93286 0.93107 0.0
C2198 C 0.5833 0.97103 0.98224 0.0
C2199 C 0.56008 0.98594 0.97188 0.0
N2200 N 0.51603 0.98149 0.93228 0.0
N2201 N 0.60353 0.92583 0.97788 0.0
C2202 C 0.54256 0.97348 0.94063 0.0
C2203 C 0.58607 0.94291 0.96387 0.0
N2204 N 0.53837 0.94471 0.88704 0.0
N2205 N 0.6042 0.98458 0.00886 0.0
H2206 H 0.60852 0.90696 0.96512 0.0
H2207 H 0.61153 0.92946 1.0027 0.0
H2208 H 0.60417 1.00553 0.02169 0.0
H2209 H 0.62331 0.97667 0.01612 0.0
H2210 H 0.52677 0.95917 0.87637 0.0
H2211 H 0.5415 0.92721 0.87052 0.0
H2212 H 0.50043 0.97092 0.91172 0.0
H2213 H 0.50813 0.99633 0.9479 0.0
C2214 C 0.93003 0.75103 0.76577 0.0
C2215 C 0.95071 0.77467 0.75474 0.0
C2216 C 0.90804 0.80227 0.75452 0.0
C2217 C 0.88924 0.78119 0.77023 0.0
N2218 N 0.88566 0.7349 0.79234 0.0
N2219 N 0.95859 0.82658 0.74599 0.0
C2220 C 0.90133 0.7554 0.77612 0.0
C2221 C 0.93931 0.80126 0.75137 0.0
N2222 N 0.93686 0.72342 0.76483 0.0
N2223 N 0.89512 0.82192 0.73926 0.0
H2224 H 0.98141 0.82768 0.74486 0.0
H2225 H 0.95264 0.84736 0.74646 0.0
H2226 H 0.87201 0.82085 0.7375 0.0
H2227 H 0.90624 0.83582 0.72456 0.0
H2228 H 0.92172 0.70414 0.76838 0.0
H2229 H 0.95666 0.71917 0.75744 0.0
H2230 H 0.894 0.71728 0.80052 0.0
H2231 H 0.86528 0.73698 0.79996 0.0
C2232 C 0.11179 0.04116 0.91477 0.0
C2233 C 0.11458 0.06919 0.90241 0.0
C2234 C 0.09746 0.09059 0.95257 0.0
C2235 C 0.09403 0.06243 0.96473 0.0
N2236 N 0.09585 1.01009 0.95559 0.0
N2237 N 0.11474 0.12198 0.91262 0.0
C2238 C 0.10101 0.03764 0.94539 0.0
C2239 C 0.10824 0.09412 0.92204 0.0
N2240 N 0.11994 0.01777 0.89726 0.0
N2241 N 0.09071 0.11444 0.97064 0.0
H2242 H 0.12279 0.1256 0.89099 0.0
H2243 H 0.11432 0.14206 0.92692 0.0
H2244 H 0.08684 0.11405 0.99439 0.0
H2245 H 0.08815 0.13426 0.9622 0.0
H2246 H 0.12253 0.99809 0.90598 0.0
H2247 H 0.12542 0.01843 0.87398 0.0
H2248 H 0.09667 0.99 0.94158 0.0
H2249 H 0.08876 1.00679 0.97776 0.0
C2250 C 0.80997 0.38367 0.59086 0.0
C2251 C 0.82101 0.41461 0.58901 0.0
C2252 C 0.84029 0.4246 0.64713 0.0
C2253 C 0.83585 0.39319 0.64689 0.0
N2254 N 0.81315 0.34224 0.621 0.0
N2255 N 0.84869 0.46484 0.61531 0.0
C2256 C 0.81917 0.37249 0.61958 0.0
C2257 C 0.836 0.43543 0.61727 0.0
N2258 N 0.79068 0.36528 0.56526 0.0
N2259 N 0.84934 0.44397 0.67582 0.0
H2260 H 0.84761 0.47399 0.59391 0.0
H2261 H 0.86279 0.47972 0.6346 0.0
H2262 H 0.85292 0.43645 0.69807 0.0
H2263 H 0.85002 0.467 0.67785 0.0
H2264 H 0.78009 0.34295 0.56577 0.0
H2265 H 0.78318 0.37323 0.54425 0.0
H2266 H 0.80396 0.32555 0.60101 0.0
H2267 H 0.81824 0.33388 0.64248 0.0
C2268 C 0.45837 0.01527 0.44392 0.0
C2269 C 0.46033 0.04169 0.42967 0.0
C2270 C 0.50335 0.06844 0.47038 0.0
C2271 C 0.50279 0.04106 0.48314 0.0
N2272 N 0.48475 0.9868 0.47678 0.0
N2273 N 0.48594 0.09242 0.42581 0.0
C2274 C 0.482 0.01388 0.4681 0.0
C2275 C 0.48296 0.06818 0.44209 0.0
N2276 N 0.43332 0.99199 0.43508 0.0
N2277 N 0.5238 0.09446 0.48476 0.0
H2278 H 0.47076 0.09341 0.40553 0.0
H2279 H 0.50436 0.1109 0.43103 0.0
H2280 H 0.54133 0.09522 0.50338 0.0
H2281 H 0.52286 0.11573 0.47914 0.0
H2282 H 0.42957 0.97292 0.44646 0.0
H2283 H 0.41477 0.9934 0.41869 0.0
H2284 H 0.47212 0.96605 0.46413 0.0
H2285 H 0.50085 0.98507 0.49563 0.0
C2286 C 0.80894 0.77273 0.1508 0.0
C2287 C 0.78872 0.74444 0.13722 0.0
C2288 C 0.77831 0.73772 0.19324 0.0
C2289 C 0.79826 0.7662 0.20678 0.0
N2290 N 0.83022 0.81222 0.19749 0.0
N2291 N 0.75567 0.69895 0.14633 0.0
C2292 C 0.81278 0.78403 0.18515 0.0
C2293 C 0.77402 0.72669 0.15883 0.0
N2294 N 0.82626 0.78792 0.13117 0.0
N2295 N 0.76161 0.72207 0.21301 0.0
H2296 H 0.74853 0.69186 0.12154 0.0
H2297 H 0.74806 0.68248 0.16019 0.0
H2298 H 0.76332 0.72961 0.23768 0.0
H2299 H 0.74437 0.7028 0.20506 0.0
H2300 H 0.84407 0.80663 0.13957 0.0
H2301 H 0.82444 0.78046 0.10639 0.0
H2302 H 0.83815 0.8283 0.18332 0.0
H2303 H 0.83561 0.82029 0.2223 0.0
C2304 C 0.12135 0.04597 0.68706 0.0
C2305 C 0.11197 0.06632 0.71016 0.0
C2306 C 0.07745 0.07626 0.66435 0.0
C2307 C 0.09003 0.05962 0.64068 0.0
N2308 N 0.12945 0.03319 0.63154 0.0
N2309 N 0.08518 0.10605 0.71793 0.0
C2310 C 0.11351 0.04573 0.65269 0.0
C2311 C 0.09119 0.08292 0.69795 0.0
N2312 N 0.13668 0.02563 0.69772 0.0
N2313 N 0.05091 0.08402 0.65539 0.0
H2314 H 0.09524 0.11248 0.74214 0.0
H2315 H 0.07266 0.1208 0.70942 0.0
H2316 H 0.03921 0.07767 0.6319 0.0
H2317 H 0.03896 0.09328 0.67201 0.0
H2318 H 0.14132 1.00821 0.68214 0.0
H2319 H 0.14159 0.02385 0.72219 0.0
H2320 H 0.14866 0.02554 0.63907 0.0
H2321 H 0.1256 0.03339 0.60668 0.0
C2322 C 0.84368 0.38788 0.41035 0.0
C2323 C 0.8214 0.40483 0.41159 0.0
C2324 C 0.7937 0.37779 0.35954 0.0
C2325 C 0.81486 0.35916 0.35897 0.0
N2326 N 0.85855 0.34433 0.38522 0.0
N2327 N 0.78159 0.42354 0.38432 0.0
C2328 C 0.83996 0.36411 0.38436 0.0
C2329 C 0.79863 0.40244 0.38497 0.0
N2330 N 0.86845 0.39468 0.43414 0.0
N2331 N 0.76719 0.36986 0.33825 0.0
H2332 H 0.78467 0.44162 0.40313 0.0
H2333 H 0.76668 0.42479 0.36396 0.0
H2334 H 0.76201 0.35116 0.32 0.0
H2335 H 0.74941 0.38057 0.33997 0.0
H2336 H 0.88767 0.38619 0.43249 0.0
H2337 H 0.87083 0.41074 0.45471 0.0
H2338 H 0.87404 0.34378 0.40533 0.0
H2339 H 0.85813 0.32753 0.36598 0.0
C2340 C 0.44603 0.05252 0.23305 0.0
C2341 C 0.45547 0.03988 0.26044 0.0
C2342 C 0.48359 1.01086 0.22849 0.0
C2343 C 0.46911 0.01845 0.20006 0.0
N2344 N 0.43823 0.04817 0.17431 0.0
N2345 N 0.48116 1.00507 0.28439 0.0
C2346 C 0.45131 0.04035 0.20203 0.0
C2347 C 0.47431 0.01905 0.25849 0.0
N2348 N 0.43139 0.07553 0.2369 0.0
N2349 N 0.50601 0.99551 0.22658 0.0
H2350 H 0.47506 1.01045 0.30709 0.0
H2351 H 0.49114 0.98662 0.28269 0.0
H2352 H 0.51344 0.98956 0.2047 0.0
H2353 H 0.51919 0.99155 0.24691 0.0
H2354 H 0.42548 0.08734 0.21849 0.0
H2355 H 0.42723 0.08444 0.25957 0.0
H2356 H 0.42266 0.06173 0.17379 0.0
H2357 H 0.44209 0.04006 0.15131 0.0
C2358 C 0.78698 0.7718 0.94059 0.0
C2359 C 0.78483 0.74072 0.94296 0.0
C2360 C 0.80185 0.73562 0.88836 0.0
C2361 C 0.80283 0.76658 0.88569 0.0
N2362 N 0.81693 0.81322 0.92161 0.0
N2363 N 0.77921 0.69152 0.91048 0.0
C2364 C 0.80008 0.78464 0.91482 0.0
C2365 C 0.7893 0.72218 0.9145 0.0
N2366 N 0.77584 0.78953 0.96232 0.0
N2367 N 0.81542 0.71936 0.86769 0.0
H2368 H 0.76601 0.68047 0.92569 0.0
H2369 H 0.77944 0.67746 0.88906 0.0
H2370 H 0.82821 0.7291 0.85129 0.0
H2371 H 0.81793 0.69766 0.87021 0.0
H2372 H 0.77544 0.81185 0.96006 0.0
H2373 H 0.76317 0.78093 0.97938 0.0
H2374 H 0.81744 0.82797 0.9428 0.0
H2375 H 0.83629 0.81722 0.91093 0.0
C2376 C 0.85472 0.11874 0.04919 0.0
C2377 C 0.84969 0.1133 0.08067 0.0
C2378 C 0.88742 0.08342 0.08275 0.0
C2379 C 0.89186 0.08958 0.05117 0.0
N2380 N 0.89128 0.12425 0.01283 0.0
N2381 N 0.86625 0.09765 0.13112 0.0
C2382 C 0.87998 0.11179 0.03786 0.0
C2383 C 0.86788 0.09811 0.09897 0.0
N2384 N 0.83381 0.12729 0.02864 0.0
N2385 N 0.90041 0.06278 0.09627 0.0
H2386 H 0.85147 0.10795 0.143 0.0
H2387 H 0.88107 0.08918 0.14632 0.0
H2388 H 0.91511 0.05189 0.08506 0.0
H2389 H 0.89562 0.05557 0.11797 0.0
H2390 H 0.83595 0.12852 1.00441 0.0
H2391 H 0.81262 0.12847 0.03427 0.0
H2392 H 0.88378 0.14192 1.00358 0.0
H2393 H 0.91018 0.11895 1.00402 0.0
C2394 C 0.43407 0.45588 0.03491 0.0
C2395 C 0.42273 0.4592 0.06482 0.0
C2396 C 0.46671 0.50207 0.08582 0.0
C2397 C 0.47666 0.50015 0.055 0.0
N2398 N 0.46279 0.48169 0.99798 0.0
N2399 N 0.42563 0.48932 0.11691 0.0
C2400 C 0.45845 0.47866 0.02897 0.0
C2401 C 0.43814 0.48367 0.0896 0.0
N2402 N 0.42131 0.43129 0.01171 0.0
N2403 N 0.48521 0.52019 0.112 0.0
H2404 H 0.40583 0.47548 0.12134 0.0
H2405 H 0.43376 0.50881 0.13401 0.0
H2406 H 0.50663 0.53255 0.11036 0.0
H2407 H 0.48064 0.52073 0.13568 0.0
H2408 H 0.43094 0.4261 0.99114 0.0
H2409 H 0.40253 0.41482 0.01415 0.0
H2410 H 0.44911 0.46808 0.97754 0.0
H2411 H 0.47732 0.50075 0.99297 0.0
C2412 C 0.42327 0.61886 0.77098 0.0
C2413 C 0.41297 0.5926 0.78494 0.0
C2414 C 0.3757 0.6166 0.80853 0.0
C2415 C 0.38927 0.6442 0.79898 0.0
N2416 N 0.42475 0.67212 0.76996 0.0
N2417 N 0.38096 0.56716 0.81942 0.0
C2418 C 0.4124 0.64532 0.77938 0.0
C2419 C 0.38917 0.5914 0.80387 0.0
N2420 N 0.44325 0.61831 0.74944 0.0
N2421 N 0.34993 0.61466 0.82221 0.0
H2422 H 0.39058 0.54847 0.81736 0.0
H2423 H 0.36637 0.56656 0.83656 0.0
H2424 H 0.33977 0.6329 0.82593 0.0
H2425 H 0.33712 0.59447 0.82688 0.0
H2426 H 0.44942 0.63536 0.73576 0.0
H2427 H 0.4522 0.59962 0.74352 0.0
H2428 H 0.44407 0.6758 0.75899 0.0
H2429 H 0.41613 0.69134 0.77425 0.0
C2430 C 0.16738 0.62376 0.58055 0.0
C2431 C 0.18866 0.60716 0.57132 0.0
C2432 C 0.14815 0.56975 0.53646 0.0
C2433 C 0.12764 0.5879 0.54376 0.0
N2434 N 0.123 0.63937 0.55939 0.0
N2435 N 0.19948 0.57167 0.52858 0.0
C2436 C 0.13888 0.61745 0.56117 0.0
C2437 C 0.17935 0.58229 0.54562 0.0
N2438 N 0.17349 0.64444 0.60827 0.0
N2439 N 0.13814 0.54043 0.52173 0.0
H2440 H 0.22228 0.58237 0.53127 0.0
H2441 H 0.19253 0.55476 0.50835 0.0
H2442 H 0.11532 0.53026 0.51455 0.0
H2443 H 0.1526 0.52581 0.51898 0.0
H2444 H 0.15753 0.6558 0.61596 0.0
H2445 H 0.19263 0.64713 0.62556 0.0
H2446 H 0.13177 0.6615 0.57123 0.0
H2447 H 0.1035 0.63673 0.54269 0.0
C2448 C 0.7777 0.02122 0.78405 0.0
C2449 C 0.75664 0.01408 0.75492 0.0
C2450 C 0.7447 0.96095 0.76003 0.0
C2451 C 0.76333 0.9687 0.79084 0.0
N2452 N 0.8066 1.00233 0.82539 0.0
N2453 N 0.72737 0.97806 0.7101 0.0
C2454 C 0.7829 0.99759 0.80062 0.0
C2455 C 0.74314 0.98392 0.74089 0.0
N2456 N 0.79034 0.05058 0.79768 0.0
N2457 N 0.72778 0.93215 0.74996 0.0
H2458 H 0.72594 0.99537 0.69642 0.0
H2459 H 0.71778 0.95648 0.69738 0.0
H2460 H 0.72871 0.91485 0.76358 0.0
H2461 H 0.71192 0.92552 0.72892 0.0
H2462 H 0.80134 0.05684 0.82159 0.0
H2463 H 0.78912 0.06886 0.78564 0.0
H2464 H 0.82336 0.0223 0.83103 0.0
H2465 H 0.81118 0.98538 0.83829 0.0
C2466 C 0.74315 0.94118 0.57961 0.0
C2467 C 0.7663 0.94527 0.55997 0.0
C2468 C 0.74027 0.97724 0.52967 0.0
C2469 C 0.71492 0.96895 0.54556 0.0
N2470 N 0.6918 0.94421 0.58639 0.0
N2471 N 0.78715 0.96644 0.51574 0.0
C2472 C 0.71643 0.95165 0.57117 0.0
C2473 C 0.76517 0.96349 0.53513 0.0
N2474 N 0.74691 0.92742 0.60636 0.0
N2475 N 0.74045 0.99844 0.50952 0.0
H2476 H 0.80614 0.95738 0.51949 0.0
H2477 H 0.78574 0.97626 0.49475 0.0
H2478 H 0.72249 1.00889 0.50528 0.0
H2479 H 0.7593 1.0077 0.49948 0.0
H2480 H 0.73232 0.92608 0.62349 0.0
H2481 H 0.76611 0.91929 0.61279 0.0
H2482 H 0.68988 0.92889 0.6027 0.0
H2483 H 0.67248 0.95258 0.58166 0.0
C2484 C 0.38269 0.41242 0.75797 0.0
C2485 C 0.39479 0.43554 0.78518 0.0
C2486 C 0.36752 0.40248 0.81982 0.0
C2487 C 0.35398 0.38017 0.79221 0.0
N2488 N 0.34299 0.36813 0.73401 0.0
N2489 N 0.39456 0.45416 0.84146 0.0
C2490 C 0.36015 0.38631 0.76103 0.0
C2491 C 0.38574 0.43106 0.81585 0.0
N2492 N 0.39255 0.41538 0.72893 0.0
N2493 N 0.36449 0.39581 0.85018 0.0
H2494 H 0.40907 0.47472 0.8404 0.0
H2495 H 0.38586 0.45378 0.86317 0.0
H2496 H 0.3518 0.37531 0.8542 0.0
H2497 H 0.37675 0.4093 0.87141 0.0
H2498 H 0.38749 0.39787 0.70933 0.0
H2499 H 0.40753 0.43469 0.72509 0.0
H2500 H 0.34411 0.37274 0.71051 0.0
H2501 H 0.32512 0.35018 0.7353 0.0
C2502 C 0.26502 0.68313 0.2592 0.0
C2503 C 0.24161 0.66896 0.27419 0.0
C2504 C 0.24201 0.71724 0.30596 0.0
C2505 C 0.26996 0.73033 0.29572 0.0
N2506 N 0.31323 0.71576 0.27445 0.0
N2507 N 0.21255 0.67109 0.31844 0.0
C2508 C 0.28303 0.71066 0.27537 0.0
C2509 C 0.23142 0.68545 0.2996 0.0
N2510 N 0.27131 0.66977 0.23075 0.0
N2511 N 0.22464 0.73397 0.32054 0.0
H2512 H 0.20448 0.64774 0.31505 0.0
H2513 H 0.20751 0.68227 0.33953 0.0
H2514 H 0.22909 0.7572 0.32451 0.0
H2515 H 0.20318 0.72435 0.3253 0.0
H2516 H 0.28809 0.68062 0.21883 0.0
H2517 H 0.25778 0.64954 0.21769 0.0
H2518 H 0.32295 0.70117 0.26032 0.0
H2519 H 0.3285 0.73022 0.29267 0.0
C2520 C 0.51481 0.67115 0.49352 0.0
C2521 C 0.52924 0.70065 0.51146 0.0
C2522 C 0.55443 0.67146 0.55034 0.0
C2523 C 0.54341 0.64248 0.52984 0.0
N2524 N 0.51886 0.61981 0.47536 0.0
N2525 N 0.56963 0.72648 0.5548 0.0
C2526 C 0.52521 0.64394 0.49969 0.0
C2527 C 0.55099 0.69995 0.5392 0.0
N2528 N 0.48981 0.66831 0.471 0.0
N2529 N 0.56666 0.6721 0.58169 0.0
H2530 H 0.56892 0.74722 0.54747 0.0
H2531 H 0.58789 0.72736 0.57266 0.0
H2532 H 0.56667 0.65239 0.59156 0.0
H2533 H 0.57288 0.69178 0.59872 0.0
H2534 H 0.47655 0.64738 0.4595 0.0
H2535 H 0.48008 0.68636 0.46695 0.0
H2536 H 0.50811 0.62035 0.45216 0.0
H2537 H 0.52792 0.60096 0.47674 0.0
C2538 C 0.70074 0.34262 0.69824 0.0
C2539 C 0.67327 0.32023 0.69404 0.0
C2540 C 0.69603 0.29783 0.73963 0.0
C2541 C 0.72443 0.31905 0.74238 0.0
N2542 N 0.75396 0.35994 0.72066 0.0
N2543 N 0.64622 0.27395 0.70842 0.0
C2544 C 0.72671 0.34082 0.72052 0.0
C2545 C 0.67131 0.29734 0.71437 0.0
N2546 N 0.70164 0.36678 0.68206 0.0
N2547 N 0.69255 0.27773 0.76104 0.0
H2548 H 0.62783 0.27263 0.69057 0.0
H2549 H 0.64445 0.25455 0.71918 0.0
H2550 H 0.71037 0.2749 0.7774 0.0
H2551 H 0.67169 0.2648 0.76381 0.0
H2552 H 0.71927 0.38601 0.68685 0.0
H2553 H 0.68346 0.36893 0.66566 0.0
H2554 H 0.75849 0.37331 0.70281 0.0
H2555 H 0.77303 0.3606 0.73705 0.0
C2556 C 1.00134 0.3985 0.01334 0.0
C2557 C 0.0263 0.38459 0.01861 0.0
C2558 C 0.05816 0.43692 0.04165 0.0
C2559 C 0.03279 0.45097 0.0376 0.0
N2560 N 0.97874 0.44145 0.0231 0.0
N2561 N 0.07814 0.3913 0.04239 0.0
C2562 C 1.00407 0.43048 0.02481 0.0
C2563 C 0.0546 0.40421 0.03382 0.0
N2564 N 0.97506 0.38158 0.99496 0.0
N2565 N 0.08619 0.45491 0.05344 0.0
H2566 H 0.07643 0.36808 0.03746 0.0
H2567 H 0.09848 0.40293 0.05665 0.0
H2568 H 0.08958 0.47742 0.0638 0.0
H2569 H 0.10626 0.44792 0.05214 0.0
H2570 H 0.95716 0.39055 0.98615 0.0
H2571 H 0.97213 0.35881 0.9857 0.0
H2572 H 0.95688 0.42793 0.01903 0.0
H2573 H 0.97994 0.46432 0.02741 0.0
C2574 C 0.99177 0.77554 0.16072 0.0
C2575 C 1.01428 0.80307 0.16969 0.0
C2576 C 0.99352 0.81395 0.2199 0.0
C2577 C 0.97169 0.78622 0.21122 0.0
N2578 N 0.94356 0.74597 0.16938 0.0
N2579 N 0.03014 0.85255 0.20219 0.0
C2580 C 0.96855 0.76896 0.1801 0.0
C2581 C 1.01301 0.82363 0.19751 0.0
N2582 N 0.99378 0.75442 0.13555 0.0
N2583 N 0.99646 0.8304 0.25004 0.0
H2584 H 0.04369 0.86062 0.18552 0.0
H2585 H 0.02849 0.86932 0.22059 0.0
H2586 H 0.98163 0.82462 0.26639 0.0
H2587 H 1.01441 0.84879 0.25942 0.0
H2588 H 0.97996 0.73269 0.13058 0.0
H2589 H 1.01071 0.75737 0.12111 0.0
H2590 H 0.93843 0.73439 0.14568 0.0
H2591 H 0.92639 0.74067 0.18332 0.0
C2592 C 0.55059 0.36631 0.17809 0.0
C2593 C 0.55479 0.3368 0.16856 0.0
C2594 C 0.57362 0.35293 0.12004 0.0
C2595 C 0.57508 0.38332 0.1327 0.0
N2596 N 0.56524 0.41974 0.17414 0.0
N2597 N 0.5767 0.30407 0.13342 0.0
C2598 C 0.56326 0.39028 0.16167 0.0
C2599 C 0.56764 0.33047 0.14007 0.0
N2600 N 0.53406 0.37129 0.2023 0.0
N2601 N 0.57856 0.34566 0.08896 0.0
H2602 H 0.57557 0.28784 0.14876 0.0
H2603 H 0.58884 0.29992 0.11462 0.0
H2604 H 0.58281 0.36183 0.07368 0.0
H2605 H 0.57516 0.32343 0.07748 0.0
H2606 H 0.52777 0.39158 0.20828 0.0
H2607 H 0.52433 0.35419 0.21452 0.0
H2608 H 0.56017 0.42652 0.19699 0.0
H2609 H 0.57355 0.43765 0.16227 0.0
C2610 C 0.95192 0.308 0.30518 0.0
C2611 C 0.97016 0.33246 0.32866 0.0
C2612 C 0.92223 0.35033 0.33456 0.0
C2613 C 0.90379 0.32558 0.31124 0.0
N2614 N 0.90491 0.28713 0.26734 0.0
N2615 N 0.97159 0.37674 0.36643 0.0
C2616 C 0.91982 0.30605 0.29489 0.0
C2617 C 0.95483 0.3536 0.34326 0.0
N2618 N 0.96506 0.2857 0.29328 0.0
N2619 N 0.90861 0.37148 0.34801 0.0
H2620 H 0.99511 0.38095 0.37183 0.0
H2621 H 0.96268 0.39139 0.38123 0.0
H2622 H 0.88544 0.36928 0.34331 0.0
H2623 H 0.91981 0.39178 0.3625 0.0
H2624 H 0.95282 0.26531 0.27949 0.0
H2625 H 0.98808 0.28667 0.29939 0.0
H2626 H 0.91516 0.27385 0.25239 0.0
H2627 H 0.88315 0.2878 0.2572 0.0
C2628 C 1.01059 0.67223 0.62473 0.0
C2629 C 0.03501 0.68473 0.65075 0.0
C2630 C 0.06376 0.64934 0.62671 0.0
C2631 C 0.03896 0.63591 0.60142 0.0
N2632 N 0.99047 0.63814 0.57354 0.0
N2633 N 0.08412 0.68313 0.67778 0.0
C2634 C 1.01288 0.64846 0.59969 0.0
C2635 C 0.0613 0.67258 0.65204 0.0
N2636 N 0.9844 0.68206 0.62499 0.0
N2637 N 0.09074 0.6414 0.62516 0.0
H2638 H 0.08469 0.70155 0.69528 0.0
H2639 H 0.10177 0.67258 0.68303 0.0
H2640 H 0.09352 0.62459 0.60745 0.0
H2641 H 0.11094 0.6527 0.63991 0.0
H2642 H 0.96447 0.67249 0.60903 0.0
H2643 H 0.98173 0.69873 0.64297 0.0
H2644 H 0.97228 0.64792 0.56835 0.0
H2645 H 0.99103 0.62074 0.55532 0.0
C2646 C 0.66993 0.80509 0.84708 0.0
C2647 C 0.65894 0.83042 0.83732 0.0
C2648 C 0.70509 0.84003 0.80837 0.0
C2649 C 0.71773 0.81681 0.82089 0.0
N2650 N 0.71082 0.77796 0.85421 0.0
N2651 N 0.67006 0.87381 0.81052 0.0
C2652 C 0.69948 0.79959 0.84071 0.0
C2653 C 0.67764 0.84805 0.81823 0.0
N2654 N 0.65141 0.78531 0.86175 0.0
N2655 N 0.71875 0.85403 0.78558 0.0
H2656 H 0.65067 0.88021 0.81661 0.0
H2657 H 0.68413 0.88996 0.80051 0.0
H2658 H 0.7387 0.84978 0.77856 0.0
H2659 H 0.70858 0.86719 0.77133 0.0
H2660 H 0.65562 0.76492 0.86713 0.0
H2661 H 0.6302 0.78807 0.86627 0.0
H2662 H 0.70059 0.76508 0.87017 0.0
H2663 H 0.7321 0.77441 0.85116 0.0
C2664 C 0.49238 0.55748 0.67679 0.0
C2665 C 0.50109 0.53681 0.69684 0.0
C2666 C 0.5437 0.53446 0.66602 0.0
C2667 C 0.53279 0.55201 0.64311 0.0
N2668 N 0.50481 0.59022 0.63656 0.0
N2669 N 0.53173 0.50109 0.70548 0.0
C2670 C 0.50912 0.56611 0.65116 0.0
C2671 C 0.52593 0.52429 0.6901 0.0
N2672 N 0.46771 0.56872 0.68187 0.0
N2673 N 0.57201 0.52904 0.66697 0.0
H2674 H 0.51917 0.49252 0.72267 0.0
H2675 H 0.54674 0.48816 0.69858 0.0
H2676 H 0.58767 0.53773 0.65282 0.0
H2677 H 0.5818 0.51909 0.6852 0.0
H2678 H 0.45768 0.5808 0.66609 0.0
H2679 H 0.45577 0.56422 0.70086 0.0
H2680 H 0.49021 0.60374 0.64298 0.0
H2681 H 0.51886 0.59937 0.62085 0.0
C2682 C 0.7603 0.21904 0.02499 0.0
C2683 C 0.77273 0.19421 0.01475 0.0
C2684 C 0.76024 0.19991 0.95818 0.0
C2685 C 0.74815 0.22473 0.96916 0.0
N2686 N 0.74826 0.26508 0.01187 0.0
N2687 N 0.78691 0.16173 0.97254 0.0
C2688 C 0.7523 0.2368 1.00222 0.0
C2689 C 0.77395 0.18514 0.98151 0.0
N2690 N 0.75268 0.22374 0.05533 0.0
N2691 N 0.75812 0.19046 0.92568 0.0
H2692 H 0.79685 0.15061 0.98938 0.0
H2693 H 0.78866 0.15347 0.94887 0.0
H2694 H 0.74586 0.19927 0.90834 0.0
H2695 H 0.76769 0.17361 0.91551 0.0
H2696 H 0.74095 0.24002 0.06237 0.0
H2697 H 0.75394 0.20899 0.07196 0.0
H2698 H 0.75401 0.27581 0.03593 0.0
H2699 H 0.74239 0.27894 0.99545 0.0
C2700 C 0.14367 0.59555 0.16995 0.0
C2701 C 0.16047 0.57314 0.1676 0.0
C2702 C 0.11772 0.53675 0.13572 0.0
C2703 C 0.10133 0.55969 0.13605 0.0
N2704 N 0.09392 0.60575 0.16584 0.0
N2705 N 0.16696 0.52509 0.14405 0.0
C2706 C 0.11272 0.58776 0.15676 0.0
C2707 C 0.14857 0.54459 0.14878 0.0
N2708 N 0.15755 0.62407 0.18539 0.0
N2709 N 0.10298 0.50726 0.12546 0.0
H2710 H 0.18994 0.53109 0.15381 0.0
H2711 H 0.16018 0.50465 0.12823 0.0
H2712 H 0.07945 0.50077 0.11925 0.0
H2713 H 0.11337 0.48923 0.12685 0.0
H2714 H 0.14727 0.64229 0.1859 0.0
H2715 H 0.18055 0.62992 0.19495 0.0
H2716 H 0.10104 0.62525 0.18303 0.0
H2717 H 0.07053 0.59968 0.15961 0.0
C2718 C 0.8109 0.8682 0.43958 0.0
C2719 C 0.8286 0.8579 0.46443 0.0
C2720 C 0.8367 0.81931 0.42159 0.0
C2721 C 0.82313 0.83267 0.39659 0.0
N2722 N 0.80466 0.87571 0.3833 0.0
N2723 N 0.865 0.82777 0.47589 0.0
C2724 C 0.81233 0.85881 0.40606 0.0
C2725 C 0.8434 0.83459 0.45454 0.0
N2726 N 0.79146 0.8858 0.44754 0.0
N2727 N 0.84188 0.79122 0.41436 0.0
H2728 H 0.8722 0.83947 0.49941 0.0
H2729 H 0.87828 0.81294 0.46887 0.0
H2730 H 0.83498 0.77854 0.39124 0.0
H2731 H 0.84958 0.77938 0.432 0.0
H2732 H 0.77631 0.8916 0.43014 0.0
H2733 H 0.78762 0.89132 0.47122 0.0
H2734 H 0.79886 0.89631 0.38917 0.0
H2735 H 0.80788 0.87096 0.35926 0.0
C2736 C 0.52269 0.55748 0.89468 0.0
C2737 C 0.50257 0.53032 0.87793 0.0
C2738 C 0.50823 0.50751 0.92797 0.0
C2739 C 0.5269 0.53516 0.9457 0.0
N2740 N 0.55071 0.58726 0.94558 0.0
N2741 N 0.47251 0.48102 0.88016 0.0
C2742 C 0.53368 0.56037 0.92884 0.0
C2743 C 0.49457 0.50572 0.89498 0.0
N2744 N 0.53219 0.5802 0.87752 0.0
N2745 N 0.50357 0.48254 0.94264 0.0
H2746 H 0.46257 0.47831 0.85597 0.0
H2747 H 0.46223 0.4642 0.89232 0.0
H2748 H 0.51137 0.48361 0.96698 0.0
H2749 H 0.49355 0.46082 0.93053 0.0
H2750 H 0.54906 0.59949 0.88687 0.0
H2751 H 0.52459 0.57882 0.85281 0.0
H2752 H 0.55355 0.60763 0.93658 0.0
H2753 H 0.5612 0.58944 0.96939 0.0
C2754 C 0.80293 0.20569 0.20341 0.0
C2755 C 0.79899 0.20859 0.1703 0.0
C2756 C 0.82242 0.26257 0.18381 0.0
C2757 C 0.82037 0.25984 0.21647 0.0
N2758 N 0.83507 0.22754 0.25282 0.0
N2759 N 0.82027 0.2361 0.12991 0.0
C2760 C 0.81832 0.23122 0.22558 0.0
C2761 C 0.81302 0.23615 0.16041 0.0
N2762 N 0.79264 0.17908 0.21405 0.0
N2763 N 0.83616 0.28952 0.17602 0.0
H2764 H 0.82067 0.2161 0.11559 0.0
H2765 H 0.82987 0.2552 0.12058 0.0
H2766 H 0.84985 0.30655 0.19377 0.0
H2767 H 0.83532 0.2944 0.15247 0.0
H2768 H 0.79565 0.17737 0.23874 0.0
H2769 H 0.77984 0.15974 0.19872 0.0
H2770 H 0.85002 0.24562 0.26811 0.0
H2771 H 0.85002 0.24562 0.26811 0.0
C2772 C 0.18342 0.60296 0.36213 0.0
C2773 C 0.17061 0.57842 0.33662 0.0
C2774 C 0.12016 0.57619 0.35039 0.0
C2775 C 0.13248 0.60255 0.37341 0.0
N2776 N 0.17567 0.6346 0.40949 0.0
N2777 N 0.1303 0.53517 0.31434 0.0
C2778 C 0.16414 0.61376 0.38212 0.0
C2779 C 0.14005 0.5627 0.33369 0.0
N2780 N 0.21328 0.6174 0.36591 0.0
N2781 N 0.08954 0.56487 0.34373 0.0
H2782 H 0.14497 0.52496 0.30222 0.0
H2783 H 0.1088 0.52135 0.31265 0.0
H2784 H 0.07439 0.57381 0.35638 0.0
H2785 H 0.07895 0.54765 0.32466 0.0
H2786 H 0.22232 0.63839 0.38027 0.0
H2787 H 0.22916 0.60904 0.35416 0.0
H2788 H 0.19858 0.64097 0.41912 0.0
H2789 H 0.16214 0.6438 0.42426 0.0
C2790 C 0.8108 0.86915 0.67455 0.0
C2791 C 0.82209 0.85447 0.64841 0.0
C2792 C 0.81848 0.80969 0.6774 0.0
C2793 C 0.80682 0.82453 0.70376 0.0
N2794 N 0.7785 0.86241 0.71571 0.0
N2795 N 0.83145 0.80821 0.62268 0.0
C2796 C 0.79925 0.85262 0.699 0.0
C2797 C 0.82426 0.82401 0.64926 0.0
N2798 N 0.8102 0.89893 0.67594 0.0
N2799 N 0.82433 0.78181 0.67855 0.0
H2800 H 0.83855 0.81817 0.60315 0.0
H2801 H 0.82875 0.78485 0.61899 0.0
H2802 H 0.8146 0.76658 0.69259 0.0
H2803 H 0.83857 0.77314 0.66439 0.0
H2804 H 0.80575 0.91164 0.69639 0.0
H2805 H 0.81635 0.91153 0.65786 0.0
H2806 H 0.77068 0.88166 0.71199 0.0
H2807 H 0.76534 0.84872 0.72906 0.0
C2808 C 0.73958 0.47639 0.5347 0.0
C2809 C 0.75813 0.49157 0.51431 0.0
C2810 C 0.75275 0.54049 0.53985 0.0
C2811 C 0.73573 0.52543 0.56134 0.0
N2812 N 0.70453 0.47958 0.5727 0.0
N2813 N 0.77507 0.53578 0.49051 0.0
C2814 C 0.72636 0.49352 0.55659 0.0
C2815 C 0.76193 0.52298 0.51443 0.0
N2816 N 0.73649 0.44614 0.53534 0.0
N2817 N 0.76086 0.57137 0.5445 0.0
H2818 H 0.78173 0.52282 0.47166 0.0
H2819 H 0.77694 0.55829 0.48767 0.0
H2820 H 0.75404 0.58484 0.56273 0.0
H2821 H 0.77575 0.5837 0.53162 0.0
H2822 H 0.72813 0.43553 0.55394 0.0
H2823 H 0.74286 0.43144 0.51808 0.0
H2824 H 0.69417 0.45664 0.567 0.0
H2825 H 0.69488 0.49124 0.58993 0.0
C2826 C 0.19174 0.12767 0.55784 0.0
C2827 C 0.1935 0.14027 0.52869 0.0
C2828 C 0.14573 0.10403 0.50395 0.0
C2829 C 0.14136 0.09498 0.53462 0.0
N2830 N 0.15966 0.10162 0.59212 0.0
N2831 N 0.17059 0.14203 0.47452 0.0
C2832 C 0.16442 0.10745 0.56188 0.0
C2833 C 0.16998 0.1289 0.50192 0.0
N2834 N 0.21647 0.13452 0.58158 0.0
N2835 N 0.12779 0.08771 0.47633 0.0
H2836 H 0.18831 0.15963 0.47192 0.0
H2837 H 0.15247 0.13708 0.45556 0.0
H2838 H 0.11155 0.06801 0.47644 0.0
H2839 H 0.1314 0.09149 0.45308 0.0
H2840 H 0.21777 0.12371 0.60189 0.0
H2841 H 0.23682 0.14894 0.57947 0.0
H2842 H 0.174 0.11286 0.61329 0.0
H2843 H 0.13994 0.08776 0.59653 0.0
C2844 C 0.22985 0.01731 0.8056 0.0
C2845 C 0.19773 1.00901 0.80268 0.0
C2846 C 0.19929 0.95775 0.77811 0.0
C2847 C 0.2295 0.96893 0.77348 0.0
N2848 N 0.27427 1.00938 0.78314 0.0
N2849 N 0.15252 0.96832 0.79206 0.0
C2850 C 0.24511 0.99864 0.78762 0.0
C2851 C 0.18264 0.9782 0.79114 0.0
N2852 N 0.24588 0.04225 0.82679 0.0
N2853 N 0.18675 0.92745 0.77053 0.0
H2854 H 0.14087 0.9794 0.80748 0.0
H2855 H 0.13925 0.94839 0.77827 0.0
H2856 H 0.19841 0.91218 0.76075 0.0
H2857 H 0.16604 0.91712 0.77644 0.0
H2858 H 0.26944 0.04829 0.83136 0.0
H2859 H 0.23573 0.05433 0.84316 0.0
H2860 H 0.28542 0.03208 0.78936 0.0
H2861 H 0.28666 0.99587 0.77143 0.0
C2862 C 0.42714 0.98832 0.9998 0.0
C2863 C 0.41021 0.99819 0.02294 0.0
C2864 C 0.45316 0.03808 0.04891 0.0
C2865 C 0.47101 0.02612 0.02759 0.0
N2866 N 0.47643 0.9833 0.99144 0.0
N2867 N 0.40786 0.02803 0.07367 0.0
C2868 C 0.45843 0.9992 0.00569 0.0
C2869 C 0.42342 0.02168 0.04897 0.0
N2870 N 0.41344 0.96941 0.9717 0.0
N2871 N 0.46431 0.06515 0.06853 0.0
H2872 H 0.38558 0.01677 0.07385 0.0
H2873 H 0.41785 0.04284 0.09497 0.0
H2874 H 0.48683 0.07628 0.07086 0.0
H2875 H 0.45116 0.0765 0.08178 0.0
H2876 H 0.42512 0.96457 0.95266 0.0
H2877 H 0.39011 0.96119 0.96599 0.0
H2878 H 0.46827 0.96243 0.97653 0.0
H2879 H 0.49951 0.98901 0.99876 0.0
C2880 C 0.84638 0.61674 0.83032 0.0
C2881 C 0.86719 0.60178 0.81722 0.0
C2882 C 0.84039 0.59781 0.76352 0.0
C2883 C 0.82501 0.61949 0.77438 0.0
N2884 N 0.79936 0.63257 0.81917 0.0
N2885 N 0.88889 0.58668 0.77001 0.0
C2886 C 0.82403 0.62481 0.80849 0.0
C2887 C 0.86591 0.59525 0.78343 0.0
N2888 N 0.84851 0.62349 0.86322 0.0
N2889 N 0.82832 0.57677 0.73671 0.0
H2890 H 0.9094 0.5868 0.78384 0.0
H2891 H 0.88847 0.58373 0.7449 0.0
H2892 H 0.8068 0.57561 0.72419 0.0
H2893 H 0.83844 0.55909 0.72969 0.0
H2894 H 0.8358 0.63676 0.8746 0.0
H2895 H 0.86504 0.61767 0.87907 0.0
H2896 H 0.79636 0.63526 0.84341 0.0
H2897 H 0.7802 0.63271 0.80293 0.0
C2898 C 0.8364 0.63153 0.05967 0.0
C2899 C 0.84608 0.65962 0.04858 0.0
C2900 C 0.89899 0.65689 0.06282 0.0
C2901 C 0.88888 0.62859 0.0729 0.0
N2902 N 0.84887 0.58465 0.07058 0.0
N2903 N 0.88611 0.69512 0.03217 0.0
C2904 C 0.85783 0.61437 0.06739 0.0
C2905 C 0.8773 0.6711 0.04777 0.0
N2906 N 0.80756 0.62247 0.06603 0.0
N2907 N 0.92908 0.67068 0.0688 0.0
H2908 H 0.87072 0.70553 0.0203 0.0
H2909 H 0.90829 0.70286 0.02836 0.0
H2910 H 0.94555 0.66033 0.07864 0.0
H2911 H 0.93751 0.69288 0.06558 0.0
H2912 H 0.80056 0.60354 0.07695 0.0
H2913 H 0.7916 0.63557 0.06449 0.0
H2914 H 0.82653 0.57234 0.06403 0.0
H2915 H 0.86433 0.57162 0.07641 0.0
C2916 C 0.22451 0.16821 0.78964 0.0
C2917 C 0.21433 0.16467 0.81977 0.0
C2918 C 0.25097 0.21208 0.84508 0.0
C2919 C 0.26109 0.21551 0.81471 0.0
N2920 N 0.26574 0.18916 0.7626 0.0
N2921 N 0.22192 0.17985 0.87762 0.0
C2922 C 0.25042 0.19132 0.78832 0.0
C2923 C 0.2289 0.18558 0.848 0.0
N2924 N 0.2093 0.1496 0.76191 0.0
N2925 N 0.26284 0.23409 0.87128 0.0
H2926 H 0.20519 0.16137 0.88031 0.0
H2927 H 0.23374 0.19221 0.89961 0.0
H2928 H 0.28121 0.25184 0.87092 0.0
H2929 H 0.25429 0.23521 0.89308 0.0
H2930 H 0.21338 0.15358 0.73881 0.0
H2931 H 0.19083 0.13177 0.76168 0.0
H2932 H 0.26038 0.17046 0.74429 0.0
H2933 H 0.28592 0.204 0.76124 0.0
C2934 C 0.37905 0.92945 0.34114 0.0
C2935 C 0.36621 0.94754 0.32139 0.0
C2936 C 0.32033 0.90803 0.30541 0.0
C2937 C 0.33476 0.88832 0.32177 0.0
N2938 N 0.38051 0.87965 0.35032 0.0
N2939 N 0.32759 0.95261 0.27931 0.0
C2940 C 0.365 0.89878 0.3378 0.0
C2941 C 0.33783 0.93629 0.30151 0.0
N2942 N 0.40353 0.94177 0.36474 0.0
N2943 N 0.28972 0.90105 0.29607 0.0
H2944 H 0.34019 0.97352 0.27602 0.0
H2945 H 0.30806 0.94399 0.2623 0.0
H2946 H 0.27578 0.88107 0.29982 0.0
H2947 H 0.27805 0.91621 0.28698 0.0
H2948 H 0.41063 0.93017 0.38293 0.0
H2949 H 0.41507 0.96434 0.36833 0.0
H2950 H 0.40358 0.88555 0.35933 0.0
H2951 H 0.37095 0.85714 0.3485 0.0
C2952 C 0.56931 0.42605 0.61122 0.0
C2953 C 0.58349 0.40652 0.59166 0.0
C2954 C 0.58838 0.4474 0.55485 0.0
C2955 C 0.57496 0.46709 0.57492 0.0
N2956 N 0.54751 0.47042 0.61952 0.0
N2957 N 0.60984 0.40262 0.54589 0.0
C2958 C 0.56448 0.45502 0.60252 0.0
C2959 C 0.59347 0.41834 0.56355 0.0
N2960 N 0.5602 0.41705 0.63888 0.0
N2961 N 0.59591 0.45628 0.52657 0.0
H2962 H 0.61436 0.38232 0.55131 0.0
H2963 H 0.62099 0.41054 0.52751 0.0
H2964 H 0.59388 0.47715 0.52032 0.0
H2965 H 0.60228 0.44255 0.50833 0.0
H2966 H 0.55502 0.43143 0.65744 0.0
H2967 H 0.55864 0.39518 0.64395 0.0
H2968 H 0.53506 0.46204 0.63681 0.0
H2969 H 0.54383 0.49099 0.61419 0.0
C2970 C 0.41788 0.77394 0.38417 0.0
C2971 C 0.42664 0.78866 0.41711 0.0
C2972 C 0.38554 0.81652 0.40643 0.0
C2973 C 0.37432 0.79937 0.37471 0.0
N2974 N 0.38074 0.75928 0.3353 0.0
N2975 N 0.41437 0.82168 0.46035 0.0
C2976 C 0.39104 0.77763 0.36427 0.0
C2977 C 0.40884 0.80885 0.42845 0.0
N2978 N 0.43531 0.75612 0.37131 0.0
N2979 N 0.37647 0.84253 0.41463 0.0
H2980 H 0.43219 0.81912 0.47687 0.0
H2981 H 0.39976 0.83317 0.47092 0.0
H2982 H 0.36176 0.85029 0.39867 0.0
H2983 H 0.38618 0.85809 0.43546 0.0
H2984 H 0.43387 0.74922 0.34648 0.0
H2985 H 0.45219 0.74913 0.3853 0.0
H2986 H 0.38824 0.73997 0.32791 0.0
H2987 H 0.36337 0.76273 0.31926 0.0
C2988 C 0.09698 0.69853 0.11045 0.0
C2989 C 0.07869 0.7149 0.09275 0.0
C2990 C 0.0483 0.66354 0.06336 0.0
C2991 C 0.06771 0.64729 0.07971 0.0
N2992 N 0.11227 0.65147 0.11801 0.0
N2993 N 0.0382 0.71133 0.04928 0.0
C2994 C 0.0925 0.66564 0.10292 0.0
C2995 C 0.05489 0.69675 0.06821 0.0
N2996 N 0.11896 0.7146 0.13512 0.0
N2997 N 0.02256 0.6471 0.04372 0.0
H2998 H 0.04128 0.73477 0.05298 0.0
H2999 H 0.02285 0.70064 0.02865 0.0
H3000 H 0.01686 0.62357 0.03993 0.0
H3001 H 1.00563 0.65641 0.03318 0.0
H3002 H 0.13034 0.70492 0.15241 0.0
H3003 H 0.12513 0.73814 0.13918 0.0
H3004 H 0.13272 0.66249 0.13243 0.0
H3005 H 0.10882 0.6281 0.11439 0.0
C3006 C 0.11097 0.28149 0.92712 0.0
C3007 C 0.08732 0.29683 0.9211 0.0
C3008 C 0.11422 0.32141 0.88076 0.0
C3009 C 0.13985 0.31002 0.89052 0.0
N3010 N 0.16294 0.27869 0.92252 0.0
N3011 N 0.06825 0.33434 0.89473 0.0
C3012 C 0.13814 0.28956 0.91332 0.0
C3013 C 0.08919 0.31721 0.89818 0.0
N3014 N 0.10718 0.25886 0.94557 0.0
N3015 N 0.11403 0.3366 0.85483 0.0
H3016 H 0.04998 0.33267 0.90747 0.0
H3017 H 0.07043 0.35217 0.88145 0.0
H3018 H 0.13206 0.33999 0.84173 0.0
H3019 H 0.09503 0.34306 0.84437 0.0
H3020 H 0.12216 0.24488 0.94867 0.0
H3021 H 0.08765 0.25242 0.95583 0.0
H3022 H 0.16484 0.26647 0.94162 0.0
H3023 H 0.1823 0.28298 0.91151 0.0
C3024 C 0.58022 0.76815 0.94571 0.0
C3025 C 0.56425 0.7663 0.91384 0.0
C3026 C 0.54464 0.71188 0.91414 0.0
C3027 C 0.55381 0.71604 0.94807 0.0
N3028 N 0.58101 0.74851 0.99677 0.0
N3029 N 0.52812 0.73491 0.86874 0.0
C3030 C 0.57218 0.74421 0.96399 0.0
C3031 C 0.54612 0.73758 0.89793 0.0
N3032 N 0.60382 0.79218 0.95815 0.0
N3033 N 0.5334 0.68324 0.89771 0.0
H3034 H 0.5258 0.75301 0.85685 0.0
H3035 H 0.51262 0.71498 0.85794 0.0
H3036 H 0.53205 0.66433 0.90944 0.0
H3037 H 0.52874 0.67828 0.87246 0.0
H3038 H 0.6176 0.79354 0.98021 0.0
H3039 H 0.61201 0.80885 0.94466 0.0
H3040 H 0.59124 0.76962 0.01039 0.0
H3041 H 0.57666 0.73103 0.01044 0.0
C3042 C 0.162 0.81124 0.74738 0.0
C3043 C 0.14173 0.78449 0.75316 0.0
C3044 C 0.18874 0.76522 0.76693 0.0
C3045 C 0.2098 0.79328 0.76588 0.0
N3046 N 0.21238 0.84531 0.7587 0.0
N3047 N 0.13906 0.73854 0.77577 0.0
C3048 C 0.19508 0.81679 0.7568 0.0
C3049 C 0.15627 0.76274 0.76577 0.0
N3050 N 0.1495 0.83243 0.73422 0.0
N3051 N 0.19873 0.7393 0.76458 0.0
H3052 H 0.11561 0.73475 0.77388 0.0
H3053 H 0.14857 0.72383 0.78851 0.0
H3054 H 0.21972 0.73874 0.75813 0.0
H3055 H 0.18441 0.71799 0.76252 0.0
H3056 H 0.16171 0.85078 0.72559 0.0
H3057 H 0.12626 0.83094 0.73047 0.0
H3058 H 0.20463 0.86311 0.75045 0.0
H3059 H 0.2337 0.85256 0.7726 0.0
C3060 C 0.08245 0.46193 0.4281 0.0
C3061 C 0.06647 0.43202 0.43034 0.0
C3062 C 0.0407 0.45579 0.47294 0.0
C3063 C 0.05751 0.48597 0.47183 0.0
N3064 N 0.09759 0.51588 0.44899 0.0
N3065 N 0.02439 0.40232 0.44965 0.0
C3066 C 0.07882 0.48841 0.44911 0.0
C3067 C 0.04437 0.42958 0.45175 0.0
N3068 N 0.10116 0.46529 0.40524 0.0
N3069 N 0.02061 0.45158 0.49433 0.0
H3070 H 0.02489 0.38309 0.43385 0.0
H3071 H 1.00518 0.39917 0.46083 0.0
H3072 H 1.01209 0.46873 0.50563 0.0
H3073 H 1.0129 0.43091 0.50183 0.0
H3074 H 0.10956 0.48578 0.39774 0.0
H3075 H 0.10702 0.44713 0.39211 0.0
H3076 H 0.11624 0.519 0.43693 0.0
H3077 H 0.09653 0.53577 0.46306 0.0
C3078 C 0.4405 0.29919 0.24809 0.0
C3079 C 0.45241 0.27398 0.25588 0.0
C3080 C 0.40343 0.25775 0.27935 0.0
C3081 C 0.39225 0.28403 0.27306 0.0
N3082 N 0.40664 0.33256 0.25636 0.0
N3083 N 0.4449 0.23102 0.28364 0.0
C3084 C 0.41291 0.30533 0.25902 0.0
C3085 C 0.43366 0.25394 0.27296 0.0
N3086 N 0.45537 0.31777 0.22934 0.0
N3087 N 0.38507 0.23594 0.29172 0.0
H3088 H 0.46552 0.22694 0.27853 0.0
H3089 H 0.43508 0.21747 0.29933 0.0
H3090 H 0.36478 0.23867 0.29911 0.0
H3091 H 0.38909 0.21462 0.29324 0.0
H3092 H 0.44586 0.33324 0.21797 0.0
H3093 H 0.47653 0.31654 0.22336 0.0
H3094 H 0.42212 0.35109 0.25168 0.0
H3095 H 0.38587 0.3364 0.25989 0.0
C3096 C 0.59846 0.54171 0.40932 0.0
C3097 C 0.61167 0.57104 0.40281 0.0
C3098 C 0.60024 0.5923 0.45614 0.0
C3099 C 0.58982 0.56286 0.46424 0.0
N3100 N 0.58467 0.50937 0.44953 0.0
N3101 N 0.63047 0.62386 0.42407 0.0
C3102 C 0.59059 0.53755 0.44102 0.0
C3103 C 0.61411 0.59614 0.42747 0.0
N3104 N 0.59312 0.51759 0.38504 0.0
N3105 N 0.59653 0.61694 0.47561 0.0
H3106 H 0.64015 0.62782 0.40337 0.0
H3107 H 0.6365 0.64221 0.44281 0.0
H3108 H 0.58776 0.61534 0.4971 0.0
H3109 H 0.60041 0.63858 0.46944 0.0
H3110 H 0.58043 0.49627 0.38668 0.0
H3111 H 0.59926 0.51955 0.36218 0.0
H3112 H 0.58751 0.49023 0.4352 0.0
H3113 H 0.5792 0.50551 0.47222 0.0
C3114 C 0.34783 0.93611 0.11711 0.0
C3115 C 0.32355 0.92008 0.09258 0.0
C3116 C 0.31216 0.87925 0.12431 0.0
C3117 C 0.33727 0.89494 0.1478 0.0
N3118 N 0.3706 0.94221 0.17325 0.0
N3119 N 0.27821 0.88061 0.0755 0.0
C3120 C 0.35201 0.9249 0.14655 0.0
C3121 C 0.30409 0.89297 0.09713 0.0
N3122 N 0.36866 0.96023 0.1113 0.0
N3123 N 0.29691 0.85106 0.12768 0.0
H3124 H 0.27185 0.89041 0.05543 0.0
H3125 H 0.2619 0.86203 0.07857 0.0
H3126 H 0.3016 0.84145 0.1484 0.0
H3127 H 0.2803 0.83699 0.1099 0.0
H3128 H 0.38847 0.97044 0.12735 0.0
H3129 H 0.36797 0.96822 0.0892 0.0
H3130 H 0.37982 0.96522 0.17449 0.0
H3131 H 0.3741 0.93426 0.19527 0.0
C3132 C 0.95377 0.51658 0.94535 0.0
C3133 C 0.95518 0.54316 0.93149 0.0
C3134 C 1.00078 0.56877 0.96895 0.0
C3135 C 1.00054 0.54111 0.98087 0.0
N3136 N 0.98339 0.4869 0.97256 0.0
N3137 N 0.98039 0.59386 0.92698 0.0
C3138 C 0.97906 0.51436 0.96666 0.0
C3139 C 0.97877 0.56919 0.94249 0.0
N3140 N 0.92839 0.49363 0.93821 0.0
N3141 N 0.02221 0.59434 0.98252 0.0
H3142 H 0.96318 0.5957 0.9091 0.0
H3143 H 0.99917 0.61194 0.93072 0.0
H3144 H 0.04036 0.59446 1.00014 0.0
H3145 H 0.02161 0.61578 0.97722 0.0
H3146 H 0.92561 0.47457 0.94966 0.0
H3147 H 0.90892 0.49533 0.92349 0.0
H3148 H 0.96919 0.46648 0.96094 0.0
H3149 H 1.00322 0.48463 0.98604 0.0
C3150 C 0.31104 0.2726 0.64858 0.0
C3151 C 0.2884 0.24671 0.63291 0.0
C3152 C 0.27295 0.24005 0.6869 0.0
C3153 C 0.29572 0.26589 0.70275 0.0
N3154 N 0.34144 0.30146 0.69885 0.0
N3155 N 0.24998 0.20363 0.638 0.0
C3156 C 0.31604 0.28076 0.68351 0.0
C3157 C 0.27002 0.22989 0.65245 0.0
N3158 N 0.32787 0.28961 0.62995 0.0
N3159 N 0.25397 0.22503 0.70501 0.0
H3160 H 0.24572 0.19676 0.61295 0.0
H3161 H 0.23843 0.18788 0.65051 0.0
H3162 H 0.25697 0.23068 0.73007 0.0
H3163 H 0.23488 0.20794 0.69561 0.0
H3164 H 0.34249 0.3105 0.63894 0.0
H3165 H 0.32553 0.28379 0.6048 0.0
H3166 H 0.35902 0.31094 0.68716 0.0
H3167 H 0.34632 0.30701 0.724 0.0
C3168 C 0.59138 0.58364 0.19845 0.0
C3169 C 0.61375 0.56868 0.21038 0.0
C3170 C 0.61476 0.54787 0.15265 0.0
C3171 C 0.59 0.56025 0.14126 0.0
N3172 N 0.5498 0.58258 0.15652 0.0
N3173 N 0.64335 0.53215 0.19743 0.0
C3174 C 0.57711 0.5762 0.1651 0.0
C3175 C 0.62454 0.54965 0.18701 0.0
N3176 N 0.58448 0.60621 0.21846 0.0
N3177 N 0.62987 0.53516 0.1307 0.0
H3178 H 0.65141 0.5327 0.22175 0.0
H3179 H 0.64882 0.51504 0.18218 0.0
H3180 H 0.62363 0.53331 0.10578 0.0
H3181 H 0.65016 0.52897 0.13708 0.0
H3182 H 0.57075 0.62 0.21011 0.0
H3183 H 0.5951 0.61342 0.24242 0.0
H3184 H 0.53762 0.59121 0.1733 0.0
H3185 H 0.5379 0.57576 0.13315 0.0
C3186 C 0.30442 0.90407 0.89159 0.0
C3187 C 0.3255 0.90546 0.91927 0.0
C3188 C 0.34335 0.86351 0.89325 0.0
C3189 C 0.31861 0.85894 0.86754 0.0
N3190 N 0.27084 0.8704 0.84748 0.0
N3191 N 0.36493 0.88715 0.94834 0.0
C3192 C 0.29781 0.87805 0.86809 0.0
C3193 C 0.34499 0.88536 0.92068 0.0
N3194 N 0.29024 0.92713 0.8881 0.0
N3195 N 0.3659 0.84828 0.89123 0.0
H3196 H 0.36857 0.90464 0.96788 0.0
H3197 H 0.37675 0.87059 0.95257 0.0
H3198 H 0.36646 0.83215 0.87181 0.0
H3199 H 0.38593 0.85364 0.90768 0.0
H3200 H 0.27683 0.92829 0.86657 0.0
H3201 H 0.29452 0.94656 0.90539 0.0
H3202 H 0.25439 0.88297 0.84833 0.0
H3203 H 0.26321 0.84957 0.83238 0.0
C3204 C 0.97529 0.53115 0.75946 0.0
C3205 C 0.9443 0.53235 0.75726 0.0
C3206 C 0.9378 0.5208 0.69799 0.0
C3207 C 0.96772 0.51692 0.7009 0.0
N3208 N 0.01793 0.52981 0.73094 0.0
N3209 N 0.89512 0.52647 0.72451 0.0
C3210 C 0.98748 0.52604 0.73059 0.0
C3211 C 0.92538 0.52731 0.7265 0.0
N3212 N 0.99217 0.53119 0.78874 0.0
N3213 N 0.92158 0.51874 0.66789 0.0
H3214 H 0.88462 0.53166 0.74431 0.0
H3215 H 0.87963 0.51901 0.70325 0.0
H3216 H 0.92984 0.5129 0.64659 0.0
H3217 H 0.9013 0.52552 0.66385 0.0
H3218 H 1.0137 0.52684 0.791 0.0
H3219 H 0.98386 0.53213 0.8107 0.0
H3220 H 0.0339 0.53952 0.75146 0.0
H3221 H 0.02723 0.5263 0.70973 0.0
C3222 C 0.3116 0.23948 0.42477 0.0
C3223 C 0.28712 0.244 0.44151 0.0
C3224 C 0.26882 0.26795 0.39519 0.0
C3225 C 0.29531 0.26724 0.38058 0.0
N3226 N 0.34409 0.25483 0.38507 0.0
N3227 N 0.24412 0.26629 0.44318 0.0
C3228 C 0.31716 0.25346 0.39633 0.0
C3229 C 0.26653 0.25966 0.42697 0.0
N3230 N 0.32974 0.22164 0.43593 0.0
N3231 N 0.24434 0.27384 0.37743 0.0
H3232 H 0.24046 0.25926 0.46529 0.0
H3233 H 0.23065 0.28066 0.43582 0.0
H3234 H 0.24408 0.27701 0.35337 0.0
H3235 H 0.22327 0.27175 0.38496 0.0
H3236 H 0.34528 0.21407 0.42282 0.0
H3237 H 0.32778 0.21261 0.45733 0.0
H3238 H 0.36225 0.24813 0.3971 0.0
H3239 H 0.34945 0.26534 0.36529 0.0
C3240 C 0.33938 0.57803 0.56069 0.0
C3241 C 0.34703 0.60162 0.58755 0.0
C3242 C 0.39993 0.61247 0.58057 0.0
C3243 C 0.3917 0.59036 0.55232 0.0
N3244 N 0.35746 0.54492 0.52255 0.0
N3245 N 0.38387 0.63595 0.62849 0.0
C3246 C 0.3627 0.57059 0.54486 0.0
C3247 C 0.37735 0.61675 0.59959 0.0
N3248 N 0.30978 0.56489 0.54818 0.0
N3249 N 0.42878 0.62991 0.58821 0.0
H3250 H 0.3671 0.63914 0.64243 0.0
H3251 H 0.40567 0.64682 0.6398 0.0
H3252 H 0.44594 0.62663 0.57496 0.0
H3253 H 0.43559 0.64827 0.60685 0.0
H3254 H 0.30311 0.55113 0.52564 0.0
H3255 H 0.29162 0.56897 0.55927 0.0
H3256 H 0.33748 0.5282 0.51887 0.0
H3257 H 0.37404 0.53891 0.50989 0.0
C3258 C 0.93733 0.98423 0.58887 0.0
C3259 C 0.92312 0.95879 0.56462 0.0
C3260 C 0.95982 0.97788 0.52961 0.0
C3261 C 0.977 1.00019 0.55544 0.0
N3262 N 0.98281 0.02318 0.6112 0.0
N3263 N 0.92355 0.93002 0.5124 0.0
C3264 C 0.96576 1.00317 0.58546 0.0
C3265 C 0.93545 0.95501 0.53535 0.0
N3266 N 0.92376 0.99034 0.61529 0.0
N3267 N 0.96501 0.9803 0.49876 0.0
H3268 H 0.90444 0.91367 0.51415 0.0
H3269 H 0.93407 0.92452 0.4926 0.0
H3270 H 0.9794 0.99947 0.49381 0.0
H3271 H 0.95205 0.96615 0.47825 0.0
H3272 H 0.9308 1.01044 0.63163 0.0
H3273 H 0.90423 0.97612 0.6198 0.0
H3274 H 0.97758 0.02455 0.63466 0.0
H3275 H 1.00358 0.03689 0.60949 0.0
C3276 C 0.88709 0.08929 0.30462 0.0
C3277 C 0.91103 0.09342 0.28589 0.0
C3278 C 0.90811 0.14642 0.28554 0.0
C3279 C 0.8845 0.14203 0.30453 0.0
N3280 N 0.8455 0.10798 0.32353 0.0
N3281 N 0.94006 0.12368 0.25273 0.0
C3282 C 0.87186 0.11286 0.31085 0.0
C3283 C 0.92017 0.12136 0.27444 0.0
N3284 N 0.88052 0.06398 0.3189 0.0
N3285 N 0.91961 0.17476 0.27922 0.0
H3286 H 0.9487 0.10552 0.24395 0.0
H3287 H 0.94606 0.14251 0.24142 0.0
H3288 H 0.9101 0.193 0.2857 0.0
H3289 H 0.93899 0.1805 0.26865 0.0
H3290 H 0.86583 0.06153 0.33591 0.0
H3291 H 0.89178 0.04652 0.31636 0.0
H3292 H 0.83355 0.0866 0.32604 0.0
H3293 H 0.83403 0.12505 0.32837 0.0
C3294 C 0.67666 0.10161 0.03178 0.0
C3295 C 0.69045 0.10203 0.06413 0.0
C3296 C 0.64149 0.08984 0.08068 0.0
C3297 C 0.62763 0.08428 0.04777 0.0
N3298 N 0.63289 0.07948 0.99115 0.0
N3299 N 0.68596 0.09025 0.11786 0.0
C3300 C 0.6454 0.08868 0.02294 0.0
C3301 C 0.67284 0.094 0.08807 0.0
N3302 N 0.69276 0.11465 0.01 0.0
N3303 N 0.62495 0.09287 0.10501 0.0
H3304 H 0.70922 0.09246 0.12395 0.0
H3305 H 0.67336 0.08196 0.13516 0.0
H3306 H 0.60182 0.09086 0.10025 0.0
H3307 H 0.63475 0.10102 0.12909 0.0
H3308 H 0.68259 0.11819 0.98764 0.0
H3309 H 0.71578 0.12416 0.01532 0.0
H3310 H 0.64562 0.0803 0.97225 0.0
H3311 H 0.61042 0.06786 0.98422 0.0
C3312 C 0.26247 0.49235 0.24875 0.0
C3313 C 0.23725 0.50188 0.2586 0.0
C3314 C 0.23333 0.46714 0.29773 0.0
C3315 C 0.26268 0.46404 0.2941 0.0
N3316 N 0.30487 0.47053 0.26414 0.0
N3317 N 0.19859 0.49935 0.2936 0.0
C3318 C 0.27696 0.47502 0.2684 0.0
C3319 C 0.22203 0.48898 0.28275 0.0
N3320 N 0.27262 0.50051 0.22119 0.0
N3321 N 0.21672 0.44965 0.31616 0.0
H3322 H 0.18848 0.51475 0.28302 0.0
H3323 H 0.19029 0.49393 0.31462 0.0
H3324 H 0.22472 0.43312 0.32727 0.0
H3325 H 0.19407 0.44933 0.31748 0.0
H3326 H 0.28956 0.49238 0.21112 0.0
H3327 H 0.26195 0.51337 0.20678 0.0
H3328 H 0.31752 0.4805 0.24777 0.0
H3329 H 0.31612 0.45784 0.27807 0.0
C3330 C 0.23002 0.42215 0.05395 0.0
C3331 C 0.25968 0.43985 0.06692 0.0
C3332 C 0.2416 0.48626 0.06341 0.0
C3333 C 0.21341 0.46872 0.04665 0.0
N3334 N 0.17717 0.42111 0.03497 0.0
N3335 N 0.28674 0.48703 0.10034 0.0
C3336 C 0.20646 0.43691 0.04489 0.0
C3337 C 0.26345 0.47146 0.07681 0.0
N3338 N 0.22427 0.39138 0.05076 0.0
N3339 N 0.24799 0.51699 0.06552 0.0
H3340 H 0.30044 0.47628 0.11412 0.0
H3341 H 0.28937 0.50973 0.10975 0.0
H3342 H 0.23208 0.52866 0.05719 0.0
H3343 H 0.26954 0.53064 0.07386 0.0
H3344 H 0.20513 0.37699 0.03666 0.0
H3345 H 0.23841 0.38018 0.06333 0.0
H3346 H 0.16963 0.39807 0.03505 0.0
H3347 H 0.15966 0.43176 0.02897 0.0
C3348 C 0.91007 0.91463 0.29372 0.0
C3349 C 0.8971 0.93664 0.28022 0.0
C3350 C 0.84821 0.89799 0.26666 0.0
C3351 C 0.86085 0.87714 0.283 0.0
N3352 N 0.90883 0.86209 0.28518 0.0
N3353 N 0.85226 0.94893 0.25394 0.0
C3354 C 0.89328 0.88416 0.28942 0.0
C3355 C 0.86566 0.92824 0.26682 0.0
N3356 N 0.93867 0.92238 0.31086 0.0
N3357 N 0.82182 0.88706 0.24577 0.0
H3358 H 0.86433 0.97018 0.25115 0.0
H3359 H 0.82891 0.94548 0.24765 0.0
H3360 H 0.81112 0.86415 0.24166 0.0
H3361 H 0.81316 0.89938 0.22924 0.0
H3362 H 0.94769 0.9073 0.32352 0.0
H3363 H 0.95204 0.94431 0.31507 0.0
H3364 H 0.9324 0.8666 0.28792 0.0
H3365 H 0.89851 0.84063 0.27306 0.0
C3366 C 0.73861 0.18532 0.80778 0.0
C3367 C 0.74559 0.16787 0.78076 0.0
C3368 C 0.76935 0.21327 0.76246 0.0
C3369 C 0.76953 0.23009 0.79304 0.0
N3370 N 0.75765 0.23048 0.84709 0.0
N3371 N 0.77175 0.16524 0.73416 0.0
C3372 C 0.75476 0.21575 0.81639 0.0
C3373 C 0.76286 0.18174 0.759 0.0
N3374 N 0.71701 0.17307 0.82501 0.0
N3375 N 0.77094 0.227 0.73574 0.0
H3376 H 0.76635 0.14168 0.72972 0.0
H3377 H 0.78644 0.17544 0.71956 0.0
H3378 H 0.7692 0.24935 0.73669 0.0
H3379 H 0.76825 0.21486 0.71244 0.0
H3380 H 0.70944 0.18592 0.84313 0.0
H3381 H 0.70473 0.15069 0.81909 0.0
H3382 H 0.74722 0.22093 0.86506 0.0
H3383 H 0.77349 0.25076 0.8551 0.0
loop_
_geom_bond_atom_site_label_1
_geom_bond_atom_site_label_2
_geom_bond_distance
_geom_bond_site_symmetry_2
_ccdc_geom_bond_type
In0 O1 2.294 . S
In0 O2 2.326 . S
In0 O6 2.266 . S
In0 O7 2.326 . S
In0 O8 2.266 . S
In0 O9 2.326 . S
In0 O11 2.294 . S
In0 O12 2.326 . S
O1 In0 2.294 . S
O1 C10 1.240 . S
O2 In0 2.326 . S
O2 C10 1.252 . S
C3 O6 1.252 1_655 S
C3 O7 1.260 1_655 S
C4 O11 1.240 . S
C4 O12 1.252 . S
C5 O8 1.252 . S
C5 O9 1.260 . S
O6 In0 2.266 . S
O6 C3 1.252 1_455 S
O7 In0 2.326 . S
O7 C3 1.260 1_455 S
O8 In0 2.266 . S
O8 C5 1.252 . S
O9 In0 2.326 . S
O9 C5 1.260 . S
C10 O1 1.240 . S
C10 O2 1.252 . S
O11 In0 2.294 . S
O11 C4 1.240 . S
O12 In0 2.326 . S
O12 C4 1.252 . S
In13 O14 2.294 . S
In13 O15 2.326 . S
In13 O19 2.266 . S
In13 O20 2.326 . S
In13 O21 2.277 . S
In13 O22 2.326 1_455 S
In13 O24 2.294 . S
In13 O25 2.326 . S
O14 In13 2.294 . S
O14 C23 1.240 . S
O15 In13 2.326 . S
O15 C23 1.252 . S
C16 O19 1.252 . S
C16 O20 1.260 . S
C17 O24 1.240 . S
C17 O25 1.252 . S
C18 O21 1.239 1_655 S
C18 O22 1.260 . S
O19 In13 2.266 . S
O19 C16 1.252 . S
O20 In13 2.326 . S
O20 C16 1.260 . S
O21 In13 2.277 . S
O21 C18 1.239 1_455 S
O22 In13 2.326 1_655 S
O22 C18 1.260 . S
C23 O14 1.240 . S
C23 O15 1.252 . S
O24 In13 2.294 . S
O24 C17 1.240 . S
O25 In13 2.326 . S
O25 C17 1.252 . S
In26 O27 2.294 . S
In26 O28 2.326 . S
In26 O32 2.266 . S
In26 O33 2.326 . S
In26 O34 2.266 . S
In26 O35 2.326 . S
In26 O37 2.294 . S
In26 O38 2.326 . S
O27 In26 2.294 . S
O27 C36 1.240 . S
O28 In26 2.326 . S
O28 C36 1.252 . S
C29 O32 1.252 . S
C29 O33 1.260 . S
C30 O37 1.240 . S
C30 O38 1.252 . S
C31 O34 1.252 . S
C31 O35 1.260 . S
O32 In26 2.266 . S
O32 C29 1.252 . S
O33 In26 2.326 . S
O33 C29 1.260 . S
O34 In26 2.266 . S
O34 C31 1.252 . S
O35 In26 2.326 . S
O35 C31 1.260 . S
C36 O27 1.240 . S
C36 O28 1.252 . S
O37 In26 2.294 . S
O37 C30 1.240 . S
O38 In26 2.326 . S
O38 C30 1.252 . S
In39 O40 2.294 . S
In39 O41 2.326 . S
In39 O45 2.266 . S
In39 O46 2.326 . S
In39 O47 2.266 . S
In39 O48 2.326 . S
In39 O50 2.294 . S
In39 O51 2.326 . S
O40 In39 2.294 . S
O40 C49 1.240 . S
O41 In39 2.326 . S
O41 C49 1.252 . S
C42 O45 1.252 . S
C42 O46 1.260 . S
C43 O50 1.240 . S
C43 O51 1.252 . S
C44 O47 1.252 . S
C44 O48 1.260 . S
O45 In39 2.266 . S
O45 C42 1.252 . S
O46 In39 2.326 . S
O46 C42 1.260 . S
O47 In39 2.266 . S
O47 C44 1.252 . S
O48 In39 2.326 . S
O48 C44 1.260 . S
C49 O40 1.240 . S
C49 O41 1.252 . S
O50 In39 2.294 . S
O50 C43 1.240 . S
O51 In39 2.326 . S
O51 C43 1.252 . S
In52 O53 2.294 . S
In52 O54 2.326 . S
In52 O58 2.266 . S
In52 O59 2.326 . S
In52 O60 2.266 . S
In52 O61 2.326 . S
In52 O63 2.294 . S
In52 O64 2.326 . S
O53 In52 2.294 . S
O53 C62 1.240 . S
O54 In52 2.326 . S
O54 C62 1.252 . S
C55 O58 1.252 . S
C55 O59 1.260 . S
C56 O63 1.240 . S
C56 O64 1.252 . S
C57 O60 1.252 . S
C57 O61 1.260 . S
O58 In52 2.266 . S
O58 C55 1.252 . S
O59 In52 2.326 . S
O59 C55 1.260 . S
O60 In52 2.266 . S
O60 C57 1.252 . S
O61 In52 2.326 . S
O61 C57 1.260 . S
C62 O53 1.240 . S
C62 O54 1.252 . S
O63 In52 2.294 . S
O63 C56 1.240 . S
O64 In52 2.326 . S
O64 C56 1.252 . S
In65 O66 2.294 . S
In65 O67 2.326 . S
In65 O71 2.266 . S
In65 O72 2.326 . S
In65 O73 2.266 . S
In65 O74 2.326 . S
In65 O76 2.294 . S
In65 O77 2.326 . S
O66 In65 2.294 . S
O66 C75 1.240 . S
O67 In65 2.326 . S
O67 C75 1.252 . S
C68 O71 1.252 . S
C68 O72 1.260 . S
C69 O76 1.240 . S
C69 O77 1.252 . S
C70 O73 1.252 . S
C70 O74 1.260 . S
O71 In65 2.266 . S
O71 C68 1.252 . S
O72 In65 2.326 . S
O72 C68 1.260 . S
O73 In65 2.266 . S
O73 C70 1.252 . S
O74 In65 2.326 . S
O74 C70 1.260 . S
C75 O66 1.240 . S
C75 O67 1.252 . S
O76 In65 2.294 . S
O76 C69 1.240 . S
O77 In65 2.326 . S
O77 C69 1.252 . S
In78 O79 2.294 . S
In78 O80 2.326 . S
In78 O84 2.266 . S
In78 O85 2.326 . S
In78 O86 2.266 . S
In78 O87 2.326 . S
In78 O89 2.294 . S
In78 O90 2.326 . S
O79 In78 2.294 . S
O79 C88 1.240 . S
O80 In78 2.326 . S
O80 C88 1.252 . S
C81 O84 1.252 . S
C81 O85 1.260 . S
C82 O89 1.240 . S
C82 O90 1.252 . S
C83 O86 1.252 . S
C83 O87 1.260 . S
O84 In78 2.266 . S
O84 C81 1.252 . S
O85 In78 2.326 . S
O85 C81 1.260 . S
O86 In78 2.266 . S
O86 C83 1.252 . S
O87 In78 2.326 . S
O87 C83 1.260 . S
C88 O79 1.240 . S
C88 O80 1.252 . S
O89 In78 2.294 . S
O89 C82 1.240 . S
O90 In78 2.326 . S
O90 C82 1.252 . S
In91 O92 2.294 1_556 S
In91 O93 2.327 . S
In91 O97 2.266 1_556 S
In91 O98 2.326 . S
In91 O99 2.266 1_455 S
In91 O100 2.326 1_455 S
In91 O102 2.294 . S
In91 O103 2.326 . S
O92 In91 2.294 1_554 S
O92 C101 1.240 1_554 S
O93 In91 2.327 . S
O93 C101 1.252 . S
C94 O97 1.252 1_556 S
C94 O98 1.260 . S
C95 O102 1.240 . S
C95 O103 1.252 . S
C96 O99 1.252 . S
C96 O100 1.260 . S
O97 In91 2.266 1_554 S
O97 C94 1.252 1_554 S
O98 In91 2.326 . S
O98 C94 1.260 . S
O99 In91 2.266 1_655 S
O99 C96 1.252 . S
O100 In91 2.326 1_655 S
O100 C96 1.260 . S
C101 O92 1.240 1_556 S
C101 O93 1.252 . S
O102 In91 2.294 . S
O102 C95 1.240 . S
O103 In91 2.326 . S
O103 C95 1.252 . S
In104 O105 2.294 . S
In104 O106 2.326 . S
In104 O110 2.266 . S
In104 O111 2.326 . S
In104 O112 2.266 1_545 S
In104 O113 2.326 1_545 S
In104 O115 2.294 . S
In104 O116 2.326 . S
O105 In104 2.294 . S
O105 C114 1.240 . S
O106 In104 2.326 . S
O106 C114 1.252 . S
C107 O110 1.252 . S
C107 O111 1.260 . S
C108 O115 1.240 . S
C108 O116 1.252 . S
C109 O112 1.252 . S
C109 O113 1.260 . S
O110 In104 2.266 . S
O110 C107 1.252 . S
O111 In104 2.326 . S
O111 C107 1.260 . S
O112 In104 2.266 1_565 S
O112 C109 1.252 . S
O113 In104 2.326 1_565 S
O113 C109 1.260 . S
C114 O105 1.240 . S
C114 O106 1.252 . S
O115 In104 2.294 . S
O115 C108 1.240 . S
O116 In104 2.326 . S
O116 C108 1.252 . S
In117 O118 2.294 . S
In117 O119 2.326 . S
In117 O123 2.266 . S
In117 O124 2.326 . S
In117 O125 2.266 . S
In117 O126 2.326 . S
In117 O128 2.294 . S
In117 O129 2.326 . S
O118 In117 2.294 . S
O118 C127 1.240 . S
O119 In117 2.326 . S
O119 C127 1.252 . S
C120 O123 1.252 . S
C120 O124 1.260 . S
C121 O128 1.240 . S
C121 O129 1.252 . S
C122 O125 1.252 . S
C122 O126 1.260 . S
O123 In117 2.266 . S
O123 C120 1.252 . S
O124 In117 2.326 . S
O124 C120 1.260 . S
O125 In117 2.266 . S
O125 C122 1.252 . S
O126 In117 2.326 . S
O126 C122 1.260 . S
C127 O118 1.240 . S
C127 O119 1.252 . S
O128 In117 2.294 . S
O128 C121 1.240 . S
O129 In117 2.326 . S
O129 C121 1.252 . S
In130 O131 2.294 . S
In130 O132 2.326 . S
In130 O136 2.266 . S
In130 O137 2.326 . S
In130 O138 2.266 . S
In130 O139 2.326 . S
In130 O141 2.294 . S
In130 O142 2.326 . S
O131 In130 2.294 . S
O131 C140 1.240 . S
O132 In130 2.326 . S
O132 C140 1.252 . S
C133 O136 1.252 . S
C133 O137 1.260 . S
C134 O141 1.240 . S
C134 O142 1.252 . S
C135 O138 1.252 . S
C135 O139 1.260 . S
O136 In130 2.266 . S
O136 C133 1.252 . S
O137 In130 2.326 . S
O137 C133 1.260 . S
O138 In130 2.266 . S
O138 C135 1.252 . S
O139 In130 2.326 . S
O139 C135 1.260 . S
C140 O131 1.240 . S
C140 O132 1.252 . S
O141 In130 2.294 . S
O141 C134 1.240 . S
O142 In130 2.326 . S
O142 C134 1.252 . S
In143 O144 2.303 . S
In143 O145 2.339 . S
In143 O149 2.258 1_554 S
In143 O150 2.312 1_554 S
In143 O151 2.262 1_554 S
In143 O152 2.325 . S
In143 O154 2.296 . S
In143 O155 2.324 . S
O144 In143 2.303 . S
O144 C153 1.240 . S
O145 In143 2.339 . S
O145 C153 1.252 . S
C146 O149 1.252 . S
C146 O150 1.260 . S
C147 O154 1.240 . S
C147 O155 1.253 . S
C148 O151 1.252 1_554 S
C148 O152 1.260 . S
O149 In143 2.258 1_556 S
O149 C146 1.252 . S
O150 In143 2.312 1_556 S
O150 C146 1.260 . S
O151 In143 2.262 1_556 S
O151 C148 1.252 1_556 S
O152 In143 2.325 . S
O152 C148 1.260 . S
C153 O144 1.240 . S
C153 O145 1.252 . S
O154 In143 2.296 . S
O154 C147 1.240 . S
O155 In143 2.324 . S
O155 C147 1.253 . S
In156 O157 2.294 . S
In156 O158 2.326 . S
In156 O162 2.266 . S
In156 O163 2.326 . S
In156 O164 2.266 . S
In156 O165 2.326 . S
In156 O167 2.294 . S
In156 O168 2.326 . S
O157 In156 2.294 . S
O157 C166 1.240 . S
O158 In156 2.326 . S
O158 C166 1.252 . S
C159 O162 1.252 1_556 S
C159 O163 1.260 1_556 S
C160 O167 1.240 . S
C160 O168 1.252 . S
C161 O164 1.252 . S
C161 O165 1.260 . S
O162 In156 2.266 . S
O162 C159 1.252 1_554 S
O163 In156 2.326 . S
O163 C159 1.260 1_554 S
O164 In156 2.266 . S
O164 C161 1.252 . S
O165 In156 2.326 . S
O165 C161 1.260 . S
C166 O157 1.240 . S
C166 O158 1.252 . S
O167 In156 2.294 . S
O167 C160 1.240 . S
O168 In156 2.326 . S
O168 C160 1.252 . S
In169 O170 2.294 . S
In169 O171 2.326 . S
In169 O175 2.266 . S
In169 O176 2.326 . S
In169 O177 2.266 . S
In169 O178 2.326 . S
In169 O180 2.294 . S
In169 O181 2.326 . S
O170 In169 2.294 . S
O170 C179 1.240 . S
O171 In169 2.326 . S
O171 C179 1.252 . S
C172 O175 1.252 . S
C172 O176 1.260 . S
C173 O180 1.240 . S
C173 O181 1.252 . S
C174 O177 1.252 . S
C174 O178 1.260 . S
O175 In169 2.266 . S
O175 C172 1.252 . S
O176 In169 2.326 . S
O176 C172 1.260 . S
O177 In169 2.266 . S
O177 C174 1.252 . S
O178 In169 2.326 . S
O178 C174 1.260 . S
C179 O170 1.240 . S
C179 O171 1.252 . S
O180 In169 2.294 . S
O180 C173 1.240 . S
O181 In169 2.326 . S
O181 C173 1.252 . S
In182 O183 2.294 . S
In182 O184 2.326 . S
In182 O188 2.266 . S
In182 O189 2.326 . S
In182 O190 2.266 . S
In182 O191 2.326 . S
In182 O193 2.294 . S
In182 O194 2.326 . S
O183 In182 2.294 . S
O183 C192 1.240 . S
O184 In182 2.326 . S
O184 C192 1.252 . S
C185 O188 1.252 . S
C185 O189 1.260 . S
C186 O193 1.240 . S
C186 O194 1.252 . S
C187 O190 1.252 . S
C187 O191 1.260 . S
O188 In182 2.266 . S
O188 C185 1.252 . S
O189 In182 2.326 . S
O189 C185 1.260 . S
O190 In182 2.266 . S
O190 C187 1.252 . S
O191 In182 2.326 . S
O191 C187 1.260 . S
C192 O183 1.240 . S
C192 O184 1.252 . S
O193 In182 2.294 . S
O193 C186 1.240 . S
O194 In182 2.326 . S
O194 C186 1.252 . S
In195 O196 2.294 . S
In195 O197 2.326 . S
In195 O201 2.266 . S
In195 O202 2.326 . S
In195 O203 2.266 . S
In195 O204 2.326 . S
In195 O206 2.294 . S
In195 O207 2.326 . S
O196 In195 2.294 . S
O196 C205 1.240 . S
O197 In195 2.326 . S
O197 C205 1.252 . S
C198 O201 1.252 . S
C198 O202 1.260 . S
C199 O206 1.240 . S
C199 O207 1.252 . S
C200 O203 1.252 . S
C200 O204 1.260 . S
O201 In195 2.266 . S
O201 C198 1.252 . S
O202 In195 2.326 . S
O202 C198 1.260 . S
O203 In195 2.266 . S
O203 C200 1.252 . S
O204 In195 2.326 . S
O204 C200 1.260 . S
C205 O196 1.240 . S
C205 O197 1.252 . S
O206 In195 2.294 . S
O206 C199 1.240 . S
O207 In195 2.326 . S
O207 C199 1.252 . S
In208 O209 2.294 . S
In208 O210 2.326 . S
In208 O214 2.266 . S
In208 O215 2.326 . S
In208 O216 2.266 1_545 S
In208 O217 2.326 1_545 S
In208 O219 2.294 . S
In208 O220 2.326 . S
O209 In208 2.294 . S
O209 C218 1.240 . S
O210 In208 2.326 . S
O210 C218 1.252 . S
C211 O214 1.252 . S
C211 O215 1.260 . S
C212 O219 1.240 . S
C212 O220 1.252 . S
C213 O216 1.252 . S
C213 O217 1.260 . S
O214 In208 2.266 . S
O214 C211 1.252 . S
O215 In208 2.326 . S
O215 C211 1.260 . S
O216 In208 2.266 1_565 S
O216 C213 1.252 . S
O217 In208 2.326 1_565 S
O217 C213 1.260 . S
C218 O209 1.240 . S
C218 O210 1.252 . S
O219 In208 2.294 . S
O219 C212 1.240 . S
O220 In208 2.326 . S
O220 C212 1.252 . S
In221 O222 2.294 . S
In221 O223 2.326 . S
In221 O227 2.266 . S
In221 O228 2.326 . S
In221 O229 2.266 . S
In221 O230 2.326 . S
In221 O232 2.294 . S
In221 O233 2.326 . S
O222 In221 2.294 . S
O222 C231 1.240 . S
O223 In221 2.326 . S
O223 C231 1.252 . S
C224 O227 1.252 . S
C224 O228 1.260 . S
C225 O232 1.240 . S
C225 O233 1.252 . S
C226 O229 1.252 . S
C226 O230 1.260 . S
O227 In221 2.266 . S
O227 C224 1.252 . S
O228 In221 2.326 . S
O228 C224 1.260 . S
O229 In221 2.266 . S
O229 C226 1.252 . S
O230 In221 2.326 . S
O230 C226 1.260 . S
C231 O222 1.240 . S
C231 O223 1.252 . S
O232 In221 2.294 . S
O232 C225 1.240 . S
O233 In221 2.326 . S
O233 C225 1.252 . S
In234 O235 2.294 . S
In234 O236 2.326 . S
In234 O240 2.266 . S
In234 O241 2.326 . S
In234 O242 2.266 . S
In234 O243 2.326 . S
In234 O245 2.294 . S
In234 O246 2.326 . S
O235 In234 2.294 . S
O235 C244 1.240 . S
O236 In234 2.326 . S
O236 C244 1.252 . S
C237 O240 1.252 . S
C237 O241 1.260 . S
C238 O245 1.240 . S
C238 O246 1.252 . S
C239 O242 1.252 . S
C239 O243 1.260 . S
O240 In234 2.266 . S
O240 C237 1.252 . S
O241 In234 2.326 . S
O241 C237 1.260 . S
O242 In234 2.266 . S
O242 C239 1.252 . S
O243 In234 2.326 . S
O243 C239 1.260 . S
C244 O235 1.240 . S
C244 O236 1.252 . S
O245 In234 2.294 . S
O245 C238 1.240 . S
O246 In234 2.326 . S
O246 C238 1.252 . S
In247 O248 2.294 . S
In247 O249 2.326 . S
In247 O253 2.266 . S
In247 O254 2.326 . S
In247 O255 2.266 . S
In247 O256 2.326 . S
In247 O258 2.294 . S
In247 O259 2.326 . S
O248 In247 2.294 . S
O248 C257 1.240 . S
O249 In247 2.326 . S
O249 C257 1.252 . S
C250 O253 1.252 . S
C250 O254 1.260 . S
C251 O258 1.240 . S
C251 O259 1.252 . S
C252 O255 1.252 . S
C252 O256 1.260 . S
O253 In247 2.266 . S
O253 C250 1.252 . S
O254 In247 2.326 . S
O254 C250 1.260 . S
O255 In247 2.266 . S
O255 C252 1.252 . S
O256 In247 2.326 . S
O256 C252 1.260 . S
C257 O248 1.240 . S
C257 O249 1.252 . S
O258 In247 2.294 . S
O258 C251 1.240 . S
O259 In247 2.326 . S
O259 C251 1.252 . S
In260 O261 2.294 . S
In260 O262 2.326 . S
In260 O266 2.266 . S
In260 O267 2.326 . S
In260 O268 2.266 1_554 S
In260 O269 2.326 1_554 S
In260 O271 2.294 . S
In260 O272 2.326 . S
O261 In260 2.294 . S
O261 C270 1.240 . S
O262 In260 2.326 . S
O262 C270 1.252 . S
C263 O266 1.252 . S
C263 O267 1.260 . S
C264 O271 1.240 . S
C264 O272 1.252 . S
C265 O268 1.252 . S
C265 O269 1.260 . S
O266 In260 2.266 . S
O266 C263 1.252 . S
O267 In260 2.326 . S
O267 C263 1.260 . S
O268 In260 2.266 1_556 S
O268 C265 1.252 . S
O269 In260 2.326 1_556 S
O269 C265 1.260 . S
C270 O261 1.240 . S
C270 O262 1.252 . S
O271 In260 2.294 . S
O271 C264 1.240 . S
O272 In260 2.326 . S
O272 C264 1.252 . S
In273 O274 2.294 . S
In273 O275 2.326 . S
In273 O279 2.266 . S
In273 O280 2.326 . S
In273 O281 2.266 . S
In273 O282 2.326 . S
In273 O284 2.294 . S
In273 O285 2.326 . S
O274 In273 2.294 . S
O274 C283 1.240 . S
O275 In273 2.326 . S
O275 C283 1.252 . S
C276 O279 1.252 . S
C276 O280 1.260 . S
C277 O284 1.240 . S
C277 O285 1.252 . S
C278 O281 1.252 . S
C278 O282 1.260 . S
O279 In273 2.266 . S
O279 C276 1.252 . S
O280 In273 2.326 . S
O280 C276 1.260 . S
O281 In273 2.266 . S
O281 C278 1.252 . S
O282 In273 2.326 . S
O282 C278 1.260 . S
C283 O274 1.240 . S
C283 O275 1.252 . S
O284 In273 2.294 . S
O284 C277 1.240 . S
O285 In273 2.326 . S
O285 C277 1.252 . S
In286 O287 2.294 . S
In286 O288 2.326 . S
In286 O292 2.266 . S
In286 O293 2.326 . S
In286 O294 2.266 . S
In286 O295 2.326 . S
In286 O297 2.294 . S
In286 O298 2.326 . S
O287 In286 2.294 . S
O287 C296 1.240 . S
O288 In286 2.326 . S
O288 C296 1.252 . S
C289 O292 1.252 . S
C289 O293 1.260 . S
C290 O297 1.240 . S
C290 O298 1.252 . S
C291 O294 1.252 . S
C291 O295 1.260 . S
O292 In286 2.266 . S
O292 C289 1.252 . S
O293 In286 2.326 . S
O293 C289 1.260 . S
O294 In286 2.266 . S
O294 C291 1.252 . S
O295 In286 2.326 . S
O295 C291 1.260 . S
C296 O287 1.240 . S
C296 O288 1.252 . S
O297 In286 2.294 . S
O297 C290 1.240 . S
O298 In286 2.326 . S
O298 C290 1.252 . S
In299 O300 2.294 . S
In299 O301 2.326 . S
In299 O305 2.266 . S
In299 O306 2.326 . S
In299 O307 2.266 . S
In299 O308 2.326 . S
In299 O310 2.294 . S
In299 O311 2.326 . S
O300 In299 2.294 . S
O300 C309 1.240 . S
O301 In299 2.326 . S
O301 C309 1.252 . S
C302 O305 1.252 . S
C302 O306 1.260 . S
C303 O310 1.240 . S
C303 O311 1.252 . S
C304 O307 1.252 . S
C304 O308 1.260 . S
O305 In299 2.266 . S
O305 C302 1.252 . S
O306 In299 2.326 . S
O306 C302 1.260 . S
O307 In299 2.266 . S
O307 C304 1.252 . S
O308 In299 2.326 . S
O308 C304 1.260 . S
C309 O300 1.240 . S
C309 O301 1.252 . S
O310 In299 2.294 . S
O310 C303 1.240 . S
O311 In299 2.326 . S
O311 C303 1.252 . S
Tb312 N341 2.617 . S
Tb312 N347 2.572 . S
Tb312 O356 2.465 . S
Tb312 O357 2.387 . S
Tb312 O359 2.428 . S
Tb312 O360 2.308 . S
Tb312 O364 2.349 . S
Tb312 O367 2.393 . S
Tb312 C376 2.802 . S
C313 N314 1.379 . S
C313 C316 1.416 . S
C313 C320 1.424 1_556 S
N314 C313 1.379 . S
N314 C317 1.334 . S
N314 Tb323 2.617 1_666 S
C315 C317 1.390 . S
C315 C318 1.339 . S
C315 H335 0.930 . S
C316 C313 1.416 . S
C316 C318 1.416 . S
C316 C322 1.448 . S
C317 N314 1.334 . S
C317 C315 1.390 . S
C317 H328 0.930 1_565 S
C318 C315 1.339 . S
C318 C316 1.416 . S
C318 H339 0.930 . S
C319 C320 1.413 . S
C319 C321 1.427 . S
C319 C325 1.416 . S
C320 C313 1.424 1_554 S
C320 C319 1.413 . S
C320 N324 1.361 . S
C321 C319 1.427 . S
C321 C322 1.328 1_554 S
C321 H336 0.929 . S
C322 C316 1.448 . S
C322 C321 1.328 1_556 S
C322 H337 0.930 . S
Tb323 N314 2.617 1_444 S
Tb323 N324 2.572 1_445 S
Tb323 O358 2.349 . S
Tb323 O361 2.393 1_554 S
Tb323 O362 2.465 1_455 S
Tb323 O363 2.387 1_545 S
Tb323 O365 2.433 1_455 S
Tb323 O366 2.308 . S
Tb323 C387 2.802 1_455 S
N324 C320 1.361 . S
N324 Tb323 2.572 1_665 S
N324 C326 1.340 . S
C325 C319 1.416 . S
C325 C327 1.332 . S
C325 H333 0.931 . S
C326 N324 1.340 . S
C326 C327 1.407 . S
C326 H332 0.930 1_565 S
C327 C325 1.332 . S
C327 C326 1.407 . S
C327 H329 0.929 . S
H328 C317 0.930 1_545 S
H329 C327 0.929 . S
H330 C345 0.930 . S
H331 C352 0.929 . S
H332 C326 0.930 1_545 S
H333 C325 0.931 . S
H334 C348 0.930 . S
H335 C315 0.930 . S
H336 C321 0.929 . S
H337 C322 0.930 . S
H338 C343 0.930 . S
H339 C318 0.930 . S
H340 C351 0.931 . S
N341 Tb312 2.617 . S
N341 C342 1.379 . S
N341 C345 1.334 . S
C342 N341 1.379 . S
C342 C344 1.416 . S
C342 C350 1.424 . S
C343 H338 0.930 . S
C343 C345 1.390 . S
C343 C346 1.339 . S
C344 C342 1.416 . S
C344 C346 1.416 . S
C344 C377 1.448 . S
C345 H330 0.930 . S
C345 N341 1.334 . S
C345 C343 1.390 . S
C346 C343 1.339 . S
C346 C344 1.416 . S
C346 H353 0.930 . S
N347 Tb312 2.572 . S
N347 C348 1.340 . S
N347 C350 1.361 . S
C348 H334 0.930 . S
C348 N347 1.340 . S
C348 C352 1.407 . S
C349 C350 1.413 . S
C349 C351 1.416 . S
C349 C378 1.427 . S
C350 C342 1.424 . S
C350 N347 1.361 . S
C350 C349 1.413 . S
C351 H340 0.931 . S
C351 C349 1.416 . S
C351 C352 1.332 . S
C352 H331 0.929 . S
C352 C348 1.407 . S
C352 C351 1.332 . S
H353 C346 0.930 . S
H354 C377 0.930 . S
H355 C378 0.929 . S
O356 Tb312 2.465 . S
O356 C376 1.264 . S
O357 Tb312 2.387 . S
O357 C368 1.264 . S
O358 Tb323 2.349 . S
O358 C368 1.243 . S
O359 Tb312 2.428 . S
O359 C376 1.256 . S
O360 Tb312 2.308 . S
O360 C375 1.266 1_554 S
O361 Tb323 2.393 1_556 S
O361 C375 1.248 . S
O362 Tb323 2.465 1_655 S
O362 C387 1.264 . S
O363 Tb323 2.387 1_565 S
O363 C379 1.264 . S
O364 Tb312 2.349 . S
O364 C379 1.243 1_545 S
O365 Tb323 2.433 1_655 S
O365 C387 1.266 . S
O366 Tb323 2.308 . S
O366 C386 1.266 . S
O367 Tb312 2.393 . S
O367 C386 1.248 . S
C368 O357 1.264 . S
C368 O358 1.243 . S
C369 C372 1.399 . S
C369 C374 1.383 . S
C369 C376 1.496 . S
C370 C371 1.399 . S
C370 C374 1.389 . S
C371 C370 1.399 . S
C371 C373 1.380 . S
C371 H388 0.929 . S
C372 C369 1.399 . S
C372 C373 1.392 . S
C372 H389 0.929 . S
C373 C371 1.380 . S
C373 C372 1.392 . S
C373 H390 0.929 . S
C374 C369 1.383 . S
C374 C370 1.389 . S
C374 H391 0.931 . S
C375 O360 1.266 1_556 S
C375 O361 1.248 . S
C376 Tb312 2.802 . S
C376 O356 1.264 . S
C376 O359 1.256 . S
C376 C369 1.496 . S
C377 C344 1.448 . S
C377 H354 0.930 . S
C377 C378 1.328 . S
C378 C349 1.427 . S
C378 H355 0.929 . S
C378 C377 1.328 . S
C379 O363 1.264 . S
C379 O364 1.243 1_565 S
C380 C383 1.399 1_554 S
C380 C384 1.383 . S
C380 C387 1.496 . S
C381 C382 1.399 . S
C381 C384 1.389 . S
C382 C381 1.399 . S
C382 C385 1.380 1_554 S
C382 H392 0.929 . S
C383 C380 1.399 1_556 S
C383 C385 1.392 . S
C383 H393 0.929 . S
C384 C380 1.383 . S
C384 C381 1.389 . S
C384 H394 0.931 . S
C385 C382 1.380 1_556 S
C385 C383 1.392 . S
C385 H395 0.929 . S
C386 O366 1.266 . S
C386 O367 1.248 . S
C387 Tb323 2.802 1_655 S
C387 O362 1.264 . S
C387 O365 1.266 . S
C387 C380 1.496 . S
H388 C371 0.929 . S
H389 C372 0.929 . S
H390 C373 0.929 . S
H391 C374 0.931 . S
H392 C382 0.929 . S
H393 C383 0.929 . S
H394 C384 0.931 . S
H395 C385 0.929 . S
Tb396 N425 2.617 . S
Tb396 N431 2.572 . S
Tb396 O440 2.465 . S
Tb396 O441 2.387 . S
Tb396 O443 2.428 . S
Tb396 O444 2.308 . S
Tb396 O448 2.349 . S
Tb396 O451 2.393 . S
Tb396 C460 2.802 . S
C397 N398 1.379 . S
C397 C400 1.416 . S
C397 C404 1.424 . S
N398 C397 1.379 . S
N398 C401 1.334 . S
N398 Tb407 2.617 . S
C399 C401 1.390 . S
C399 C402 1.339 . S
C399 H419 0.930 . S
C400 C397 1.416 . S
C400 C402 1.416 . S
C400 C406 1.448 . S
C401 N398 1.334 . S
C401 C399 1.390 . S
C401 H412 0.930 . S
C402 C399 1.339 . S
C402 C400 1.416 . S
C402 H423 0.930 . S
C403 C404 1.413 . S
C403 C405 1.427 . S
C403 C409 1.416 . S
C404 C397 1.424 . S
C404 C403 1.413 . S
C404 N408 1.361 . S
C405 C403 1.427 . S
C405 C406 1.328 . S
C405 H420 0.929 . S
C406 C400 1.448 . S
C406 C405 1.328 . S
C406 H421 0.930 . S
Tb407 N398 2.617 . S
Tb407 N408 2.572 . S
Tb407 O442 2.349 . S
Tb407 O445 2.393 . S
Tb407 O446 2.465 . S
Tb407 O447 2.387 . S
Tb407 O449 2.428 . S
Tb407 O450 2.308 . S
Tb407 C471 2.802 . S
N408 C404 1.361 . S
N408 Tb407 2.572 . S
N408 C410 1.340 . S
C409 C403 1.416 . S
C409 C411 1.332 . S
C409 H417 0.931 . S
C410 N408 1.340 . S
C410 C411 1.407 . S
C410 H416 0.930 . S
C411 C409 1.332 . S
C411 C410 1.407 . S
C411 H413 0.929 . S
H412 C401 0.930 . S
H413 C411 0.929 . S
H414 C429 0.930 . S
H415 C436 0.929 . S
H416 C410 0.930 . S
H417 C409 0.931 . S
H418 C432 0.930 . S
H419 C399 0.930 . S
H420 C405 0.929 . S
H421 C406 0.930 . S
H422 C427 0.930 . S
H423 C402 0.930 . S
H424 C435 0.931 . S
N425 Tb396 2.617 . S
N425 C426 1.379 . S
N425 C429 1.334 . S
C426 N425 1.379 . S
C426 C428 1.416 . S
C426 C434 1.424 . S
C427 H422 0.930 . S
C427 C429 1.390 . S
C427 C430 1.339 . S
C428 C426 1.416 . S
C428 C430 1.416 . S
C428 C461 1.448 . S
C429 H414 0.930 . S
C429 N425 1.334 . S
C429 C427 1.390 . S
C430 C427 1.339 . S
C430 C428 1.416 . S
C430 H437 0.930 . S
N431 Tb396 2.572 . S
N431 C432 1.340 . S
N431 C434 1.361 . S
C432 H418 0.930 . S
C432 N431 1.340 . S
C432 C436 1.407 . S
C433 C434 1.413 . S
C433 C435 1.416 . S
C433 C462 1.427 . S
C434 C426 1.424 . S
C434 N431 1.361 . S
C434 C433 1.413 . S
C435 H424 0.931 . S
C435 C433 1.416 . S
C435 C436 1.332 . S
C436 H415 0.929 . S
C436 C432 1.407 . S
C436 C435 1.332 . S
H437 C430 0.930 . S
H438 C461 0.930 . S
H439 C462 0.929 . S
O440 Tb396 2.465 . S
O440 C460 1.264 . S
O441 Tb396 2.387 . S
O441 C452 1.264 . S
O442 Tb407 2.349 . S
O442 C452 1.243 . S
O443 Tb396 2.428 . S
O443 C460 1.256 . S
O444 Tb396 2.308 . S
O444 C459 1.266 . S
O445 Tb407 2.393 . S
O445 C459 1.248 . S
O446 Tb407 2.465 . S
O446 C471 1.264 . S
O447 Tb407 2.387 . S
O447 C463 1.264 . S
O448 Tb396 2.349 . S
O448 C463 1.243 . S
O449 Tb407 2.428 . S
O449 C471 1.256 . S
O450 Tb407 2.308 . S
O450 C470 1.266 . S
O451 Tb396 2.393 . S
O451 C470 1.248 . S
C452 O441 1.264 . S
C452 O442 1.243 . S
C453 C456 1.399 . S
C453 C458 1.383 . S
C453 C460 1.496 . S
C454 C455 1.399 . S
C454 C458 1.389 . S
C455 C454 1.399 . S
C455 C457 1.380 . S
C455 H472 0.929 . S
C456 C453 1.399 . S
C456 C457 1.392 . S
C456 H473 0.929 . S
C457 C455 1.380 . S
C457 C456 1.392 . S
C457 H474 0.929 . S
C458 C453 1.383 . S
C458 C454 1.389 . S
C458 H475 0.931 . S
C459 O444 1.266 . S
C459 O445 1.248 . S
C460 Tb396 2.802 . S
C460 O440 1.264 . S
C460 O443 1.256 . S
C460 C453 1.496 . S
C461 C428 1.448 . S
C461 H438 0.930 . S
C461 C462 1.328 . S
C462 C433 1.427 . S
C462 H439 0.929 . S
C462 C461 1.328 . S
C463 O447 1.264 . S
C463 O448 1.243 . S
C464 C467 1.399 . S
C464 C468 1.383 . S
C464 C471 1.496 . S
C465 C466 1.399 . S
C465 C468 1.389 . S
C466 C465 1.399 . S
C466 C469 1.380 . S
C466 H476 0.929 . S
C467 C464 1.399 . S
C467 C469 1.392 . S
C467 H477 0.929 . S
C468 C464 1.383 . S
C468 C465 1.389 . S
C468 H478 0.931 . S
C469 C466 1.380 . S
C469 C467 1.392 . S
C469 H479 0.929 . S
C470 O450 1.266 . S
C470 O451 1.248 . S
C471 Tb407 2.802 . S
C471 O446 1.264 . S
C471 O449 1.256 . S
C471 C464 1.496 . S
H472 C455 0.929 . S
H473 C456 0.929 . S
H474 C457 0.929 . S
H475 C458 0.931 . S
H476 C466 0.929 . S
H477 C467 0.929 . S
H478 C468 0.931 . S
H479 C469 0.929 . S
Tb480 N509 2.622 . S
Tb480 N515 2.572 1_545 S
Tb480 O524 2.465 . S
Tb480 O525 2.387 1_545 S
Tb480 O527 2.428 . S
Tb480 O528 2.308 . S
Tb480 O532 2.349 . S
Tb480 O535 2.393 . S
Tb480 C544 2.802 . S
C481 N482 1.379 . S
C481 C484 1.416 . S
C481 C488 1.424 . S
N482 C481 1.379 . S
N482 C485 1.334 . S
N482 Tb491 2.617 . S
C483 C485 1.390 . S
C483 C486 1.339 . S
C483 H503 0.930 . S
C484 C481 1.416 . S
C484 C486 1.416 . S
C484 C490 1.448 . S
C485 N482 1.334 . S
C485 C483 1.390 . S
C485 H496 0.930 . S
C486 C483 1.339 . S
C486 C484 1.416 . S
C486 H507 0.930 . S
C487 C488 1.413 . S
C487 C489 1.427 . S
C487 C493 1.416 . S
C488 C481 1.424 . S
C488 C487 1.413 . S
C488 N492 1.361 . S
C489 C487 1.427 . S
C489 C490 1.328 . S
C489 H504 0.929 . S
C490 C484 1.448 . S
C490 C489 1.328 . S
C490 H505 0.930 . S
Tb491 N482 2.617 . S
Tb491 N492 2.572 . S
Tb491 O526 2.349 1_545 S
Tb491 O529 2.393 . S
Tb491 O530 2.465 . S
Tb491 O531 2.387 . S
Tb491 O533 2.428 . S
Tb491 O534 2.308 . S
Tb491 C555 2.802 . S
N492 C488 1.361 . S
N492 Tb491 2.572 . S
N492 C494 1.340 . S
C493 C487 1.416 . S
C493 C495 1.332 . S
C493 H501 0.931 . S
C494 N492 1.340 . S
C494 C495 1.407 . S
C494 H500 0.930 . S
C495 C493 1.332 . S
C495 C494 1.407 . S
C495 H497 0.929 . S
H496 C485 0.930 . S
H497 C495 0.929 . S
H498 C513 0.930 . S
H499 C520 0.929 . S
H500 C494 0.930 . S
H501 C493 0.931 . S
H502 C516 0.930 . S
H503 C483 0.930 . S
H504 C489 0.929 . S
H505 C490 0.930 . S
H506 C511 0.930 . S
H507 C486 0.930 . S
H508 C519 0.931 . S
N509 Tb480 2.622 . S
N509 C510 1.373 1_545 S
N509 C513 1.334 . S
C510 N509 1.373 1_565 S
C510 C512 1.416 . S
C510 C518 1.424 . S
C511 H506 0.930 . S
C511 C513 1.390 1_565 S
C511 C514 1.339 . S
C512 C510 1.416 . S
C512 C514 1.416 . S
C512 C545 1.448 . S
C513 H498 0.930 . S
C513 N509 1.334 . S
C513 C511 1.390 1_545 S
C514 C511 1.339 . S
C514 C512 1.416 . S
C514 H521 0.930 . S
N515 Tb480 2.572 1_565 S
N515 C516 1.340 . S
N515 C518 1.361 . S
C516 H502 0.930 . S
C516 N515 1.340 . S
C516 C520 1.407 . S
C517 C518 1.413 . S
C517 C519 1.416 . S
C517 C546 1.427 . S
C518 C510 1.424 . S
C518 N515 1.361 . S
C518 C517 1.413 . S
C519 H508 0.931 . S
C519 C517 1.416 . S
C519 C520 1.332 . S
C520 H499 0.929 . S
C520 C516 1.407 . S
C520 C519 1.332 . S
H521 C514 0.930 . S
H522 C545 0.930 . S
H523 C546 0.929 . S
O524 Tb480 2.465 . S
O524 C544 1.264 . S
O525 Tb480 2.387 1_565 S
O525 C536 1.264 . S
O526 Tb491 2.349 1_565 S
O526 C536 1.243 . S
O527 Tb480 2.428 . S
O527 C544 1.256 . S
O528 Tb480 2.308 . S
O528 C543 1.266 . S
O529 Tb491 2.393 . S
O529 C543 1.248 . S
O530 Tb491 2.465 . S
O530 C555 1.264 . S
O531 Tb491 2.387 . S
O531 C547 1.264 . S
O532 Tb480 2.349 . S
O532 C547 1.243 . S
O533 Tb491 2.428 . S
O533 C555 1.256 . S
O534 Tb491 2.308 . S
O534 C554 1.266 . S
O535 Tb480 2.393 . S
O535 C554 1.248 . S
C536 O525 1.264 . S
C536 O526 1.243 . S
C537 C540 1.399 . S
C537 C542 1.383 . S
C537 C544 1.496 . S
C538 C539 1.399 . S
C538 C542 1.389 . S
C539 C538 1.399 . S
C539 C541 1.380 . S
C539 H556 0.929 . S
C540 C537 1.399 . S
C540 C541 1.392 . S
C540 H557 0.929 . S
C541 C539 1.380 . S
C541 C540 1.392 . S
C541 H558 0.929 . S
C542 C537 1.383 . S
C542 C538 1.389 . S
C542 H559 0.931 . S
C543 O528 1.266 . S
C543 O529 1.248 . S
C544 Tb480 2.802 . S
C544 O524 1.264 . S
C544 O527 1.256 . S
C544 C537 1.496 . S
C545 C512 1.448 . S
C545 H522 0.930 . S
C545 C546 1.328 . S
C546 C517 1.427 . S
C546 H523 0.929 . S
C546 C545 1.328 . S
C547 O531 1.264 . S
C547 O532 1.243 . S
C548 C551 1.399 . S
C548 C552 1.383 . S
C548 C555 1.496 1_565 S
C549 C550 1.399 . S
C549 C552 1.389 . S
C550 C549 1.399 . S
C550 C553 1.380 . S
C550 H560 0.929 . S
C551 C548 1.399 . S
C551 C553 1.392 . S
C551 H561 0.929 . S
C552 C548 1.383 . S
C552 C549 1.389 . S
C552 H562 0.931 . S
C553 C550 1.380 . S
C553 C551 1.392 . S
C553 H563 0.929 . S
C554 O534 1.266 . S
C554 O535 1.248 . S
C555 Tb491 2.802 . S
C555 O530 1.264 . S
C555 O533 1.256 . S
C555 C548 1.496 1_545 S
H556 C539 0.929 . S
H557 C540 0.929 . S
H558 C541 0.929 . S
H559 C542 0.931 . S
H560 C550 0.929 . S
H561 C551 0.929 . S
H562 C552 0.931 . S
H563 C553 0.929 . S
Tb564 N593 2.617 . S
Tb564 N599 2.572 . S
Tb564 O608 2.465 . S
Tb564 O609 2.387 . S
Tb564 O611 2.428 . S
Tb564 O612 2.308 . S
Tb564 O616 2.349 . S
Tb564 O619 2.393 . S
Tb564 C628 2.802 . S
C565 N566 1.379 . S
C565 C568 1.416 . S
C565 C572 1.424 . S
N566 C565 1.379 . S
N566 C569 1.334 . S
N566 Tb575 2.617 . S
C567 C569 1.390 . S
C567 C570 1.339 . S
C567 H587 0.930 . S
C568 C565 1.416 . S
C568 C570 1.416 . S
C568 C574 1.448 . S
C569 N566 1.334 . S
C569 C567 1.390 . S
C569 H580 0.930 . S
C570 C567 1.339 . S
C570 C568 1.416 . S
C570 H591 0.930 . S
C571 C572 1.413 . S
C571 C573 1.427 . S
C571 C577 1.416 . S
C572 C565 1.424 . S
C572 C571 1.413 . S
C572 N576 1.361 . S
C573 C571 1.427 . S
C573 C574 1.328 . S
C573 H588 0.929 . S
C574 C568 1.448 . S
C574 C573 1.328 . S
C574 H589 0.930 . S
Tb575 N566 2.617 . S
Tb575 N576 2.572 . S
Tb575 O610 2.349 . S
Tb575 O613 2.393 . S
Tb575 O614 2.465 . S
Tb575 O615 2.387 . S
Tb575 O617 2.428 . S
Tb575 O618 2.308 . S
Tb575 C639 2.802 . S
N576 C572 1.361 . S
N576 Tb575 2.572 . S
N576 C578 1.340 . S
C577 C571 1.416 . S
C577 C579 1.332 . S
C577 H585 0.931 . S
C578 N576 1.340 . S
C578 C579 1.407 . S
C578 H584 0.930 . S
C579 C577 1.332 . S
C579 C578 1.407 . S
C579 H581 0.929 . S
H580 C569 0.930 . S
H581 C579 0.929 . S
H582 C597 0.930 . S
H583 C604 0.929 . S
H584 C578 0.930 . S
H585 C577 0.931 . S
H586 C600 0.930 . S
H587 C567 0.930 . S
H588 C573 0.929 . S
H589 C574 0.930 . S
H590 C595 0.930 . S
H591 C570 0.930 . S
H592 C603 0.931 . S
N593 Tb564 2.617 . S
N593 C594 1.379 . S
N593 C597 1.334 . S
C594 N593 1.379 . S
C594 C596 1.416 . S
C594 C602 1.424 . S
C595 H590 0.930 . S
C595 C597 1.390 . S
C595 C598 1.339 . S
C596 C594 1.416 . S
C596 C598 1.416 . S
C596 C629 1.448 . S
C597 H582 0.930 . S
C597 N593 1.334 . S
C597 C595 1.390 . S
C598 C595 1.339 . S
C598 C596 1.416 . S
C598 H605 0.930 . S
N599 Tb564 2.572 . S
N599 C600 1.340 . S
N599 C602 1.361 . S
C600 H586 0.930 . S
C600 N599 1.340 . S
C600 C604 1.407 . S
C601 C602 1.413 . S
C601 C603 1.416 . S
C601 C630 1.427 . S
C602 C594 1.424 . S
C602 N599 1.361 . S
C602 C601 1.413 . S
C603 H592 0.931 . S
C603 C601 1.416 . S
C603 C604 1.332 . S
C604 H583 0.929 . S
C604 C600 1.407 . S
C604 C603 1.332 . S
H605 C598 0.930 . S
H606 C629 0.930 . S
H607 C630 0.929 . S
O608 Tb564 2.465 . S
O608 C628 1.264 . S
O609 Tb564 2.387 . S
O609 C620 1.264 . S
O610 Tb575 2.349 . S
O610 C620 1.243 . S
O611 Tb564 2.428 . S
O611 C628 1.256 . S
O612 Tb564 2.308 . S
O612 C627 1.266 . S
O613 Tb575 2.393 . S
O613 C627 1.248 . S
O614 Tb575 2.465 . S
O614 C639 1.264 . S
O615 Tb575 2.387 . S
O615 C631 1.264 . S
O616 Tb564 2.349 . S
O616 C631 1.243 . S
O617 Tb575 2.428 . S
O617 C639 1.256 . S
O618 Tb575 2.308 . S
O618 C638 1.266 . S
O619 Tb564 2.393 . S
O619 C638 1.248 . S
C620 O609 1.264 . S
C620 O610 1.243 . S
C621 C624 1.399 . S
C621 C626 1.383 . S
C621 C628 1.496 . S
C622 C623 1.399 . S
C622 C626 1.389 . S
C623 C622 1.399 . S
C623 C625 1.380 . S
C623 H640 0.929 . S
C624 C621 1.399 . S
C624 C625 1.392 . S
C624 H641 0.929 . S
C625 C623 1.380 . S
C625 C624 1.392 . S
C625 H642 0.929 . S
C626 C621 1.383 . S
C626 C622 1.389 . S
C626 H643 0.931 . S
C627 O612 1.266 . S
C627 O613 1.248 . S
C628 Tb564 2.802 . S
C628 O608 1.264 . S
C628 O611 1.256 . S
C628 C621 1.496 . S
C629 C596 1.448 . S
C629 H606 0.930 . S
C629 C630 1.328 . S
C630 C601 1.427 . S
C630 H607 0.929 . S
C630 C629 1.328 . S
C631 O615 1.264 . S
C631 O616 1.243 . S
C632 C635 1.399 . S
C632 C636 1.383 . S
C632 C639 1.496 . S
C633 C634 1.399 . S
C633 C636 1.389 . S
C634 C633 1.399 . S
C634 C637 1.380 . S
C634 H644 0.929 . S
C635 C632 1.399 . S
C635 C637 1.392 . S
C635 H645 0.929 . S
C636 C632 1.383 . S
C636 C633 1.389 . S
C636 H646 0.931 . S
C637 C634 1.380 . S
C637 C635 1.392 . S
C637 H647 0.929 . S
C638 O618 1.266 . S
C638 O619 1.248 . S
C639 Tb575 2.802 . S
C639 O614 1.264 . S
C639 O617 1.256 . S
C639 C632 1.496 . S
H640 C623 0.929 . S
H641 C624 0.929 . S
H642 C625 0.929 . S
H643 C626 0.931 . S
H644 C634 0.929 . S
H645 C635 0.929 . S
H646 C636 0.931 . S
H647 C637 0.929 . S
Tb648 N677 2.617 . S
Tb648 N683 2.572 . S
Tb648 O692 2.465 . S
Tb648 O693 2.387 1_565 S
Tb648 O695 2.428 . S
Tb648 O696 2.305 1_565 S
Tb648 O700 2.349 1_565 S
Tb648 O703 2.393 1_565 S
Tb648 C712 2.802 . S
C649 N650 1.378 1_455 S
C649 C652 1.416 1_455 S
C649 C656 1.424 . S
N650 C649 1.378 1_655 S
N650 C653 1.338 . S
N650 Tb659 2.615 1_655 S
C651 C653 1.390 . S
C651 C654 1.339 . S
C651 H671 0.930 . S
C652 C649 1.416 1_655 S
C652 C654 1.416 . S
C652 C658 1.448 1_655 S
C653 N650 1.338 . S
C653 C651 1.390 . S
C653 H664 0.930 . S
C654 C651 1.339 . S
C654 C652 1.416 . S
C654 H675 0.930 . S
C655 C656 1.413 . S
C655 C657 1.427 . S
C655 C661 1.416 . S
C656 C649 1.424 . S
C656 C655 1.413 . S
C656 N660 1.361 . S
C657 C655 1.427 . S
C657 C658 1.328 . S
C657 H672 0.929 . S
C658 C652 1.448 1_455 S
C658 C657 1.328 . S
C658 H673 0.930 . S
Tb659 N650 2.615 1_455 S
Tb659 N660 2.572 . S
Tb659 O694 2.349 . S
Tb659 O697 2.393 1_455 S
Tb659 O698 2.465 . S
Tb659 O699 2.387 . S
Tb659 O701 2.431 . S
Tb659 O702 2.308 . S
Tb659 C723 2.802 . S
N660 C656 1.361 . S
N660 Tb659 2.572 . S
N660 C662 1.340 . S
C661 C655 1.416 . S
C661 C663 1.332 . S
C661 H669 0.931 . S
C662 N660 1.340 . S
C662 C663 1.407 . S
C662 H668 0.930 . S
C663 C661 1.332 . S
C663 C662 1.407 . S
C663 H665 0.929 . S
H664 C653 0.930 . S
H665 C663 0.929 . S
H666 C681 0.930 1_545 S
H667 C688 0.929 . S
H668 C662 0.930 . S
H669 C661 0.931 . S
H670 C684 0.930 1_655 S
H671 C651 0.930 . S
H672 C657 0.929 . S
H673 C658 0.930 . S
H674 C679 0.930 . S
H675 C654 0.930 . S
H676 C687 0.931 1_655 S
N677 Tb648 2.617 . S
N677 C678 1.379 . S
N677 C681 1.334 . S
C678 N677 1.379 . S
C678 C680 1.416 . S
C678 C686 1.424 . S
C679 H674 0.930 . S
C679 C681 1.390 . S
C679 C682 1.339 . S
C680 C678 1.416 . S
C680 C682 1.416 . S
C680 C713 1.448 . S
C681 H666 0.930 1_565 S
C681 N677 1.334 . S
C681 C679 1.390 . S
C682 C679 1.339 . S
C682 C680 1.416 . S
C682 H689 0.930 . S
N683 Tb648 2.572 . S
N683 C684 1.340 . S
N683 C686 1.361 . S
C684 H670 0.930 1_455 S
C684 N683 1.340 . S
C684 C688 1.407 1_455 S
C685 C686 1.413 . S
C685 C687 1.416 . S
C685 C714 1.427 . S
C686 C678 1.424 . S
C686 N683 1.361 . S
C686 C685 1.413 . S
C687 H676 0.931 1_455 S
C687 C685 1.416 . S
C687 C688 1.332 1_455 S
C688 H667 0.929 . S
C688 C684 1.407 1_655 S
C688 C687 1.332 1_655 S
H689 C682 0.930 . S
H690 C713 0.930 . S
H691 C714 0.929 . S
O692 Tb648 2.465 . S
O692 C712 1.264 . S
O693 Tb648 2.387 1_545 S
O693 C704 1.264 . S
O694 Tb659 2.349 . S
O694 C704 1.243 . S
O695 Tb648 2.428 . S
O695 C712 1.256 . S
O696 Tb648 2.305 1_545 S
O696 C711 1.270 1_455 S
O697 Tb659 2.393 1_655 S
O697 C711 1.248 . S
O698 Tb659 2.465 . S
O698 C723 1.264 . S
O699 Tb659 2.387 . S
O699 C715 1.264 . S
O700 Tb648 2.349 1_545 S
O700 C715 1.243 . S
O701 Tb659 2.431 . S
O701 C723 1.260 . S
O702 Tb659 2.308 . S
O702 C722 1.266 . S
O703 Tb648 2.393 1_545 S
O703 C722 1.248 . S
C704 O693 1.264 . S
C704 O694 1.243 . S
C705 C708 1.399 . S
C705 C710 1.383 . S
C705 C712 1.496 . S
C706 C707 1.399 . S
C706 C710 1.389 . S
C707 C706 1.399 . S
C707 C709 1.380 . S
C707 H724 0.929 . S
C708 C705 1.399 . S
C708 C709 1.392 . S
C708 H725 0.929 . S
C709 C707 1.380 . S
C709 C708 1.392 . S
C709 H726 0.929 . S
C710 C705 1.383 . S
C710 C706 1.389 . S
C710 H727 0.931 . S
C711 O696 1.270 1_655 S
C711 O697 1.248 . S
C712 Tb648 2.802 . S
C712 O692 1.264 . S
C712 O695 1.256 . S
C712 C705 1.496 . S
C713 C680 1.448 . S
C713 H690 0.930 . S
C713 C714 1.328 . S
C714 C685 1.427 . S
C714 H691 0.929 . S
C714 C713 1.328 . S
C715 O699 1.264 . S
C715 O700 1.243 . S
C716 C719 1.399 1_455 S
C716 C720 1.383 . S
C716 C723 1.496 . S
C717 C718 1.399 . S
C717 C720 1.389 . S
C718 C717 1.399 . S
C718 C721 1.380 1_455 S
C718 H728 0.925 1_455 S
C719 C716 1.399 1_655 S
C719 C721 1.392 . S
C719 H729 0.929 . S
C720 C716 1.383 . S
C720 C717 1.389 . S
C720 H730 0.931 . S
C721 C718 1.380 1_655 S
C721 C719 1.392 . S
C721 H731 0.929 . S
C722 O702 1.266 . S
C722 O703 1.248 . S
C723 Tb659 2.802 . S
C723 O698 1.264 . S
C723 O701 1.260 . S
C723 C716 1.496 . S
H724 C707 0.929 . S
H725 C708 0.929 . S
H726 C709 0.929 . S
H727 C710 0.931 . S
H728 C718 0.925 1_655 S
H729 C719 0.929 . S
H730 C720 0.931 . S
H731 C721 0.929 . S
Tb732 N761 2.617 . S
Tb732 N767 2.572 . S
Tb732 O776 2.465 . S
Tb732 O777 2.387 . S
Tb732 O779 2.428 . S
Tb732 O780 2.308 . S
Tb732 O784 2.349 . S
Tb732 O787 2.393 . S
Tb732 C796 2.802 . S
C733 N734 1.379 . S
C733 C736 1.416 . S
C733 C740 1.424 . S
N734 C733 1.379 . S
N734 C737 1.334 . S
N734 Tb743 2.617 . S
C735 C737 1.390 . S
C735 C738 1.339 . S
C735 H755 0.930 . S
C736 C733 1.416 . S
C736 C738 1.416 . S
C736 C742 1.448 . S
C737 N734 1.334 . S
C737 C735 1.390 . S
C737 H748 0.930 . S
C738 C735 1.339 . S
C738 C736 1.416 . S
C738 H759 0.930 . S
C739 C740 1.413 . S
C739 C741 1.427 . S
C739 C745 1.416 . S
C740 C733 1.424 . S
C740 C739 1.413 . S
C740 N744 1.361 . S
C741 C739 1.427 . S
C741 C742 1.328 . S
C741 H756 0.929 . S
C742 C736 1.448 . S
C742 C741 1.328 . S
C742 H757 0.930 . S
Tb743 N734 2.617 . S
Tb743 N744 2.572 . S
Tb743 O778 2.349 . S
Tb743 O781 2.393 . S
Tb743 O782 2.465 . S
Tb743 O783 2.387 . S
Tb743 O785 2.428 . S
Tb743 O786 2.308 . S
Tb743 C807 2.802 . S
N744 C740 1.361 . S
N744 Tb743 2.572 . S
N744 C746 1.340 . S
C745 C739 1.416 . S
C745 C747 1.332 . S
C745 H753 0.931 . S
C746 N744 1.340 . S
C746 C747 1.407 . S
C746 H752 0.930 . S
C747 C745 1.332 . S
C747 C746 1.407 . S
C747 H749 0.929 . S
H748 C737 0.930 . S
H749 C747 0.929 . S
H750 C765 0.930 . S
H751 C772 0.929 . S
H752 C746 0.930 . S
H753 C745 0.931 . S
H754 C768 0.930 . S
H755 C735 0.930 . S
H756 C741 0.929 . S
H757 C742 0.930 . S
H758 C763 0.930 . S
H759 C738 0.930 . S
H760 C771 0.931 . S
N761 Tb732 2.617 . S
N761 C762 1.379 . S
N761 C765 1.334 . S
C762 N761 1.379 . S
C762 C764 1.416 . S
C762 C770 1.424 . S
C763 H758 0.930 . S
C763 C765 1.390 . S
C763 C766 1.339 . S
C764 C762 1.416 . S
C764 C766 1.416 . S
C764 C797 1.448 . S
C765 H750 0.930 . S
C765 N761 1.334 . S
C765 C763 1.390 . S
C766 C763 1.339 . S
C766 C764 1.416 . S
C766 H773 0.930 . S
N767 Tb732 2.572 . S
N767 C768 1.340 . S
N767 C770 1.361 . S
C768 H754 0.930 . S
C768 N767 1.340 . S
C768 C772 1.407 . S
C769 C770 1.413 . S
C769 C771 1.416 . S
C769 C798 1.427 . S
C770 C762 1.424 . S
C770 N767 1.361 . S
C770 C769 1.413 . S
C771 H760 0.931 . S
C771 C769 1.416 . S
C771 C772 1.332 . S
C772 H751 0.929 . S
C772 C768 1.407 . S
C772 C771 1.332 . S
H773 C766 0.930 . S
H774 C797 0.930 . S
H775 C798 0.929 . S
O776 Tb732 2.465 . S
O776 C796 1.264 . S
O777 Tb732 2.387 . S
O777 C788 1.264 . S
O778 Tb743 2.349 . S
O778 C788 1.243 . S
O779 Tb732 2.428 . S
O779 C796 1.256 . S
O780 Tb732 2.308 . S
O780 C795 1.266 . S
O781 Tb743 2.393 . S
O781 C795 1.248 . S
O782 Tb743 2.465 . S
O782 C807 1.264 . S
O783 Tb743 2.387 . S
O783 C799 1.264 . S
O784 Tb732 2.349 . S
O784 C799 1.243 . S
O785 Tb743 2.428 . S
O785 C807 1.256 . S
O786 Tb743 2.308 . S
O786 C806 1.266 . S
O787 Tb732 2.393 . S
O787 C806 1.248 . S
C788 O777 1.264 . S
C788 O778 1.243 . S
C789 C792 1.399 . S
C789 C794 1.383 . S
C789 C796 1.496 . S
C790 C791 1.399 . S
C790 C794 1.389 . S
C791 C790 1.399 . S
C791 C793 1.380 . S
C791 H808 0.929 . S
C792 C789 1.399 . S
C792 C793 1.392 . S
C792 H809 0.929 . S
C793 C791 1.380 . S
C793 C792 1.392 . S
C793 H810 0.929 . S
C794 C789 1.383 . S
C794 C790 1.389 . S
C794 H811 0.931 . S
C795 O780 1.266 . S
C795 O781 1.248 . S
C796 Tb732 2.802 . S
C796 O776 1.264 . S
C796 O779 1.256 . S
C796 C789 1.496 . S
C797 C764 1.448 . S
C797 H774 0.930 . S
C797 C798 1.328 . S
C798 C769 1.427 . S
C798 H775 0.929 . S
C798 C797 1.328 . S
C799 O783 1.264 . S
C799 O784 1.243 . S
C800 C803 1.399 . S
C800 C804 1.383 . S
C800 C807 1.496 . S
C801 C802 1.399 . S
C801 C804 1.389 . S
C802 C801 1.399 . S
C802 C805 1.380 . S
C802 H812 0.929 . S
C803 C800 1.399 . S
C803 C805 1.392 . S
C803 H813 0.929 . S
C804 C800 1.383 . S
C804 C801 1.389 . S
C804 H814 0.931 . S
C805 C802 1.380 . S
C805 C803 1.392 . S
C805 H815 0.929 . S
C806 O786 1.266 . S
C806 O787 1.248 . S
C807 Tb743 2.802 . S
C807 O782 1.264 . S
C807 O785 1.256 . S
C807 C800 1.496 . S
H808 C791 0.929 . S
H809 C792 0.929 . S
H810 C793 0.929 . S
H811 C794 0.931 . S
H812 C802 0.929 . S
H813 C803 0.929 . S
H814 C804 0.931 . S
H815 C805 0.929 . S
Tb816 N845 2.617 . S
Tb816 N851 2.572 . S
Tb816 O860 2.465 . S
Tb816 O861 2.387 1_556 S
Tb816 O863 2.428 . S
Tb816 O864 2.308 . S
Tb816 O868 2.349 1_556 S
Tb816 O871 2.393 1_556 S
Tb816 C880 2.802 . S
C817 N818 1.379 1_545 S
C817 C820 1.416 1_545 S
C817 C824 1.424 . S
N818 C817 1.379 1_565 S
N818 C821 1.334 . S
N818 Tb827 2.617 1_565 S
C819 C821 1.390 . S
C819 C822 1.339 . S
C819 H839 0.930 . S
C820 C817 1.416 1_565 S
C820 C822 1.416 . S
C820 C826 1.448 1_565 S
C821 N818 1.334 . S
C821 C819 1.390 . S
C821 H832 0.930 . S
C822 C819 1.339 . S
C822 C820 1.416 . S
C822 H843 0.930 . S
C823 C824 1.413 . S
C823 C825 1.427 . S
C823 C829 1.416 . S
C824 C817 1.424 . S
C824 C823 1.413 . S
C824 N828 1.361 . S
C825 C823 1.427 . S
C825 C826 1.328 . S
C825 H840 0.929 . S
C826 C820 1.448 1_545 S
C826 C825 1.328 . S
C826 H841 0.941 . S
Tb827 N818 2.617 1_545 S
Tb827 N828 2.572 . S
Tb827 O862 2.349 . S
Tb827 O865 2.393 1_545 S
Tb827 O866 2.465 . S
Tb827 O867 2.387 . S
Tb827 O869 2.428 1_545 S
Tb827 O870 2.308 . S
Tb827 C891 2.802 . S
N828 C824 1.361 . S
N828 Tb827 2.572 . S
N828 C830 1.340 . S
C829 C823 1.416 . S
C829 C831 1.332 . S
C829 H837 0.931 . S
C830 N828 1.340 . S
C830 C831 1.407 . S
C830 H836 0.930 . S
C831 C829 1.332 . S
C831 C830 1.407 . S
C831 H833 0.929 . S
H832 C821 0.930 . S
H833 C831 0.929 . S
H834 C849 0.930 1_554 S
H835 C856 0.929 1_565 S
H836 C830 0.930 . S
H837 C829 0.931 . S
H838 C852 0.930 . S
H839 C819 0.930 . S
H840 C825 0.929 . S
H841 C826 0.941 . S
H842 C847 0.930 . S
H843 C822 0.930 . S
H844 C855 0.931 . S
N845 Tb816 2.617 . S
N845 C846 1.379 . S
N845 C849 1.334 . S
C846 N845 1.379 . S
C846 C848 1.416 . S
C846 C854 1.424 . S
C847 H842 0.930 . S
C847 C849 1.390 . S
C847 C850 1.339 . S
C848 C846 1.416 . S
C848 C850 1.416 . S
C848 C881 1.448 . S
C849 H834 0.930 1_556 S
C849 N845 1.334 . S
C849 C847 1.390 . S
C850 C847 1.339 . S
C850 C848 1.416 . S
C850 H857 0.930 . S
N851 Tb816 2.572 . S
N851 C852 1.340 . S
N851 C854 1.361 . S
C852 H838 0.930 . S
C852 N851 1.340 . S
C852 C856 1.407 . S
C853 C854 1.413 . S
C853 C855 1.416 . S
C853 C882 1.427 . S
C854 C846 1.424 . S
C854 N851 1.361 . S
C854 C853 1.413 . S
C855 H844 0.931 . S
C855 C853 1.416 . S
C855 C856 1.332 . S
C856 H835 0.929 1_545 S
C856 C852 1.407 . S
C856 C855 1.332 . S
H857 C850 0.930 . S
H858 C881 0.930 . S
H859 C882 0.929 . S
O860 Tb816 2.465 . S
O860 C880 1.264 . S
O861 Tb816 2.387 1_554 S
O861 C872 1.264 . S
O862 Tb827 2.349 . S
O862 C872 1.243 . S
O863 Tb816 2.428 . S
O863 C880 1.256 . S
O864 Tb816 2.308 . S
O864 C879 1.266 . S
O865 Tb827 2.393 1_565 S
O865 C879 1.248 1_564 S
O866 Tb827 2.465 . S
O866 C891 1.264 . S
O867 Tb827 2.387 . S
O867 C883 1.264 . S
O868 Tb816 2.349 1_554 S
O868 C883 1.243 . S
O869 Tb827 2.428 1_565 S
O869 C891 1.256 1_565 S
O870 Tb827 2.308 . S
O870 C890 1.266 . S
O871 Tb816 2.393 1_554 S
O871 C890 1.248 . S
C872 O861 1.264 . S
C872 O862 1.243 . S
C873 C876 1.399 . S
C873 C878 1.383 . S
C873 C880 1.496 . S
C874 C875 1.399 . S
C874 C878 1.389 . S
C875 C874 1.399 . S
C875 C877 1.380 . S
C875 H892 0.929 . S
C876 C873 1.399 . S
C876 C877 1.392 . S
C876 H893 0.929 . S
C877 C875 1.380 . S
C877 C876 1.392 . S
C877 H894 0.929 . S
C878 C873 1.383 . S
C878 C874 1.389 . S
C878 H895 0.931 . S
C879 O864 1.266 . S
C879 O865 1.248 1_546 S
C880 Tb816 2.802 . S
C880 O860 1.264 . S
C880 O863 1.256 . S
C880 C873 1.496 . S
C881 C848 1.448 . S
C881 H858 0.930 . S
C881 C882 1.328 . S
C882 C853 1.427 . S
C882 H859 0.929 . S
C882 C881 1.328 . S
C883 O867 1.264 . S
C883 O868 1.243 . S
C884 C887 1.399 1_545 S
C884 C888 1.383 . S
C884 C891 1.496 . S
C885 C886 1.399 1_545 S
C885 C888 1.389 . S
C886 C885 1.399 1_565 S
C886 C889 1.380 . S
C886 H896 0.929 . S
C887 C884 1.399 1_565 S
C887 C889 1.392 . S
C887 H897 0.929 . S
C888 C884 1.383 . S
C888 C885 1.389 . S
C888 H898 0.931 . S
C889 C886 1.380 . S
C889 C887 1.392 . S
C889 H899 0.929 . S
C890 O870 1.266 . S
C890 O871 1.248 . S
C891 Tb827 2.802 . S
C891 O866 1.264 . S
C891 O869 1.256 1_545 S
C891 C884 1.496 . S
H892 C875 0.929 . S
H893 C876 0.929 . S
H894 C877 0.929 . S
H895 C878 0.931 . S
H896 C886 0.929 . S
H897 C887 0.929 . S
H898 C888 0.931 . S
H899 C889 0.929 . S
Tb900 N929 2.617 . S
Tb900 N935 2.572 . S
Tb900 O944 2.465 . S
Tb900 O945 2.387 . S
Tb900 O947 2.428 . S
Tb900 O948 2.308 . S
Tb900 O952 2.349 . S
Tb900 O955 2.393 . S
Tb900 C964 2.802 . S
C901 N902 1.379 . S
C901 C904 1.416 . S
C901 C908 1.424 . S
N902 C901 1.379 . S
N902 C905 1.334 . S
N902 Tb911 2.617 . S
C903 C905 1.390 . S
C903 C906 1.339 . S
C903 H923 0.930 . S
C904 C901 1.416 . S
C904 C906 1.416 . S
C904 C910 1.448 . S
C905 N902 1.334 . S
C905 C903 1.390 . S
C905 H916 0.930 . S
C906 C903 1.339 . S
C906 C904 1.416 . S
C906 H927 0.930 . S
C907 C908 1.413 . S
C907 C909 1.427 . S
C907 C913 1.416 . S
C908 C901 1.424 . S
C908 C907 1.413 . S
C908 N912 1.361 . S
C909 C907 1.427 . S
C909 C910 1.328 . S
C909 H924 0.929 . S
C910 C904 1.448 . S
C910 C909 1.328 . S
C910 H925 0.930 . S
Tb911 N902 2.617 . S
Tb911 N912 2.572 . S
Tb911 O946 2.349 . S
Tb911 O949 2.393 . S
Tb911 O950 2.465 . S
Tb911 O951 2.387 . S
Tb911 O953 2.428 . S
Tb911 O954 2.308 . S
Tb911 C975 2.802 . S
N912 C908 1.361 . S
N912 Tb911 2.572 . S
N912 C914 1.340 . S
C913 C907 1.416 . S
C913 C915 1.332 . S
C913 H921 0.931 . S
C914 N912 1.340 . S
C914 C915 1.407 . S
C914 H920 0.930 . S
C915 C913 1.332 . S
C915 C914 1.407 . S
C915 H917 0.929 . S
H916 C905 0.930 . S
H917 C915 0.929 . S
H918 C933 0.930 . S
H919 C940 0.929 . S
H920 C914 0.930 . S
H921 C913 0.931 . S
H922 C936 0.930 . S
H923 C903 0.930 . S
H924 C909 0.929 . S
H925 C910 0.930 . S
H926 C931 0.930 . S
H927 C906 0.930 . S
H928 C939 0.931 . S
N929 Tb900 2.617 . S
N929 C930 1.379 . S
N929 C933 1.334 . S
C930 N929 1.379 . S
C930 C932 1.416 . S
C930 C938 1.424 . S
C931 H926 0.930 . S
C931 C933 1.390 . S
C931 C934 1.339 . S
C932 C930 1.416 . S
C932 C934 1.416 . S
C932 C965 1.448 . S
C933 H918 0.930 . S
C933 N929 1.334 . S
C933 C931 1.390 . S
C934 C931 1.339 . S
C934 C932 1.416 . S
C934 H941 0.930 . S
N935 Tb900 2.572 . S
N935 C936 1.340 . S
N935 C938 1.361 . S
C936 H922 0.930 . S
C936 N935 1.340 . S
C936 C940 1.407 . S
C937 C938 1.413 . S
C937 C939 1.416 . S
C937 C966 1.427 . S
C938 C930 1.424 . S
C938 N935 1.361 . S
C938 C937 1.413 . S
C939 H928 0.931 . S
C939 C937 1.416 . S
C939 C940 1.332 . S
C940 H919 0.929 . S
C940 C936 1.407 . S
C940 C939 1.332 . S
H941 C934 0.930 . S
H942 C965 0.930 . S
H943 C966 0.929 . S
O944 Tb900 2.465 . S
O944 C964 1.264 . S
O945 Tb900 2.387 . S
O945 C956 1.264 . S
O946 Tb911 2.349 . S
O946 C956 1.243 . S
O947 Tb900 2.428 . S
O947 C964 1.256 . S
O948 Tb900 2.308 . S
O948 C963 1.266 . S
O949 Tb911 2.393 . S
O949 C963 1.248 . S
O950 Tb911 2.465 . S
O950 C975 1.264 . S
O951 Tb911 2.387 . S
O951 C967 1.264 . S
O952 Tb900 2.349 . S
O952 C967 1.243 . S
O953 Tb911 2.428 . S
O953 C975 1.256 . S
O954 Tb911 2.308 . S
O954 C974 1.266 . S
O955 Tb900 2.393 . S
O955 C974 1.248 . S
C956 O945 1.264 . S
C956 O946 1.243 . S
C957 C960 1.399 . S
C957 C962 1.383 . S
C957 C964 1.496 . S
C958 C959 1.399 . S
C958 C962 1.389 . S
C959 C958 1.399 . S
C959 C961 1.380 . S
C959 H976 0.929 . S
C960 C957 1.399 . S
C960 C961 1.392 . S
C960 H977 0.929 . S
C961 C959 1.380 . S
C961 C960 1.392 . S
C961 H978 0.929 . S
C962 C957 1.383 . S
C962 C958 1.389 . S
C962 H979 0.931 . S
C963 O948 1.266 . S
C963 O949 1.248 . S
C964 Tb900 2.802 . S
C964 O944 1.264 . S
C964 O947 1.256 . S
C964 C957 1.496 . S
C965 C932 1.448 . S
C965 H942 0.930 . S
C965 C966 1.328 . S
C966 C937 1.427 . S
C966 H943 0.929 . S
C966 C965 1.328 . S
C967 O951 1.264 . S
C967 O952 1.243 . S
C968 C971 1.399 . S
C968 C972 1.383 . S
C968 C975 1.496 . S
C969 C970 1.399 . S
C969 C972 1.389 . S
C970 C969 1.399 . S
C970 C973 1.380 . S
C970 H980 0.929 . S
C971 C968 1.399 . S
C971 C973 1.392 . S
C971 H981 0.929 . S
C972 C968 1.383 . S
C972 C969 1.389 . S
C972 H982 0.931 . S
C973 C970 1.380 . S
C973 C971 1.392 . S
C973 H983 0.929 . S
C974 O954 1.266 . S
C974 O955 1.248 . S
C975 Tb911 2.802 . S
C975 O950 1.264 . S
C975 O953 1.256 . S
C975 C968 1.496 . S
H976 C959 0.929 . S
H977 C960 0.929 . S
H978 C961 0.929 . S
H979 C962 0.931 . S
H980 C970 0.929 . S
H981 C971 0.929 . S
H982 C972 0.931 . S
H983 C973 0.929 . S
Tb984 N1013 2.617 1_554 S
Tb984 N1019 2.572 1_554 S
Tb984 O1028 2.465 . S
Tb984 O1029 2.387 1_554 S
Tb984 O1031 2.428 . S
Tb984 O1032 2.308 . S
Tb984 O1036 2.349 . S
Tb984 O1039 2.393 . S
Tb984 C1048 2.802 . S
C985 N986 1.379 . S
C985 C988 1.416 . S
C985 C992 1.424 . S
N986 C985 1.379 . S
N986 C989 1.334 . S
N986 Tb995 2.617 . S
C987 C989 1.390 . S
C987 C990 1.339 . S
C987 H1007 0.930 . S
C988 C985 1.416 . S
C988 C990 1.416 . S
C988 C994 1.448 . S
C989 N986 1.334 . S
C989 C987 1.390 . S
C989 H1000 0.930 . S
C990 C987 1.339 . S
C990 C988 1.416 . S
C990 H1011 0.930 . S
C991 C992 1.413 . S
C991 C993 1.427 . S
C991 C997 1.416 . S
C992 C985 1.424 . S
C992 C991 1.413 . S
C992 N996 1.361 . S
C993 C991 1.427 . S
C993 C994 1.328 . S
C993 H1008 0.929 . S
C994 C988 1.448 . S
C994 C993 1.328 . S
C994 H1009 0.930 . S
Tb995 N986 2.617 . S
Tb995 N996 2.572 . S
Tb995 O1030 2.349 1_554 S
Tb995 O1033 2.393 . S
Tb995 O1034 2.465 . S
Tb995 O1035 2.387 . S
Tb995 O1037 2.428 . S
Tb995 O1038 2.308 . S
Tb995 C1059 2.802 . S
N996 C992 1.361 . S
N996 Tb995 2.572 . S
N996 C998 1.340 . S
C997 C991 1.416 . S
C997 C999 1.332 . S
C997 H1005 0.931 . S
C998 N996 1.340 . S
C998 C999 1.407 . S
C998 H1004 0.930 . S
C999 C997 1.332 . S
C999 C998 1.407 . S
C999 H1001 0.929 . S
H1000 C989 0.930 . S
H1001 C999 0.929 . S
H1002 C1017 0.930 1_554 S
H1003 C1024 0.929 . S
H1004 C998 0.930 . S
H1005 C997 0.931 . S
H1006 C1020 0.930 . S
H1007 C987 0.930 . S
H1008 C993 0.929 . S
H1009 C994 0.930 . S
H1010 C1015 0.930 . S
H1011 C990 0.930 . S
H1012 C1023 0.931 . S
N1013 Tb984 2.617 1_556 S
N1013 C1014 1.379 . S
N1013 C1017 1.334 . S
C1014 N1013 1.379 . S
C1014 C1016 1.416 . S
C1014 C1022 1.424 . S
C1015 H1010 0.930 . S
C1015 C1017 1.390 . S
C1015 C1018 1.339 . S
C1016 C1014 1.416 . S
C1016 C1018 1.416 . S
C1016 C1049 1.448 . S
C1017 H1002 0.930 1_556 S
C1017 N1013 1.334 . S
C1017 C1015 1.390 . S
C1018 C1015 1.339 . S
C1018 C1016 1.416 . S
C1018 H1025 0.930 . S
N1019 Tb984 2.572 1_556 S
N1019 C1020 1.340 . S
N1019 C1022 1.361 . S
C1020 H1006 0.930 . S
C1020 N1019 1.340 . S
C1020 C1024 1.407 . S
C1021 C1022 1.413 . S
C1021 C1023 1.416 . S
C1021 C1050 1.427 . S
C1022 C1014 1.424 . S
C1022 N1019 1.361 . S
C1022 C1021 1.413 . S
C1023 H1012 0.931 . S
C1023 C1021 1.416 . S
C1023 C1024 1.332 . S
C1024 H1003 0.929 . S
C1024 C1020 1.407 . S
C1024 C1023 1.332 . S
H1025 C1018 0.930 . S
H1026 C1049 0.930 . S
H1027 C1050 0.929 . S
O1028 Tb984 2.465 . S
O1028 C1048 1.264 . S
O1029 Tb984 2.387 1_556 S
O1029 C1040 1.264 . S
O1030 Tb995 2.349 1_556 S
O1030 C1040 1.243 . S
O1031 Tb984 2.428 . S
O1031 C1048 1.256 . S
O1032 Tb984 2.308 . S
O1032 C1047 1.266 . S
O1033 Tb995 2.393 . S
O1033 C1047 1.248 . S
O1034 Tb995 2.465 . S
O1034 C1059 1.264 . S
O1035 Tb995 2.387 . S
O1035 C1051 1.264 . S
O1036 Tb984 2.349 . S
O1036 C1051 1.243 . S
O1037 Tb995 2.428 . S
O1037 C1059 1.256 . S
O1038 Tb995 2.308 . S
O1038 C1058 1.266 . S
O1039 Tb984 2.393 . S
O1039 C1058 1.248 . S
C1040 O1029 1.264 . S
C1040 O1030 1.243 . S
C1041 C1044 1.399 . S
C1041 C1046 1.383 . S
C1041 C1048 1.496 . S
C1042 C1043 1.399 . S
C1042 C1046 1.389 . S
C1043 C1042 1.399 . S
C1043 C1045 1.380 . S
C1043 H1060 0.929 . S
C1044 C1041 1.399 . S
C1044 C1045 1.392 . S
C1044 H1061 0.929 . S
C1045 C1043 1.380 . S
C1045 C1044 1.392 . S
C1045 H1062 0.929 . S
C1046 C1041 1.383 . S
C1046 C1042 1.389 . S
C1046 H1063 0.931 . S
C1047 O1032 1.266 . S
C1047 O1033 1.248 . S
C1048 Tb984 2.802 . S
C1048 O1028 1.264 . S
C1048 O1031 1.256 . S
C1048 C1041 1.496 . S
C1049 C1016 1.448 . S
C1049 H1026 0.930 . S
C1049 C1050 1.328 . S
C1050 C1021 1.427 . S
C1050 H1027 0.929 . S
C1050 C1049 1.328 . S
C1051 O1035 1.264 . S
C1051 O1036 1.243 . S
C1052 C1055 1.399 . S
C1052 C1056 1.383 . S
C1052 C1059 1.496 1_556 S
C1053 C1054 1.399 . S
C1053 C1056 1.389 . S
C1054 C1053 1.399 . S
C1054 C1057 1.380 . S
C1054 H1064 0.929 . S
C1055 C1052 1.399 . S
C1055 C1057 1.392 . S
C1055 H1065 0.929 . S
C1056 C1052 1.383 . S
C1056 C1053 1.389 . S
C1056 H1066 0.931 . S
C1057 C1054 1.380 . S
C1057 C1055 1.392 . S
C1057 H1067 0.929 . S
C1058 O1038 1.266 . S
C1058 O1039 1.248 . S
C1059 Tb995 2.802 . S
C1059 O1034 1.264 . S
C1059 O1037 1.256 . S
C1059 C1052 1.496 1_554 S
H1060 C1043 0.929 . S
H1061 C1044 0.929 . S
H1062 C1045 0.929 . S
H1063 C1046 0.931 . S
H1064 C1054 0.929 . S
H1065 C1055 0.929 . S
H1066 C1056 0.931 . S
H1067 C1057 0.929 . S
Tb1068 N1097 2.617 . S
Tb1068 N1103 2.572 . S
Tb1068 O1112 2.465 . S
Tb1068 O1113 2.387 . S
Tb1068 O1115 2.428 . S
Tb1068 O1116 2.308 . S
Tb1068 O1120 2.349 . S
Tb1068 O1123 2.393 . S
Tb1068 C1132 2.802 . S
C1069 N1070 1.379 . S
C1069 C1072 1.416 . S
C1069 C1076 1.424 . S
N1070 C1069 1.379 . S
N1070 C1073 1.334 . S
N1070 Tb1079 2.617 . S
C1071 C1073 1.390 . S
C1071 C1074 1.339 . S
C1071 H1091 0.930 . S
C1072 C1069 1.416 . S
C1072 C1074 1.416 . S
C1072 C1078 1.448 . S
C1073 N1070 1.334 . S
C1073 C1071 1.390 . S
C1073 H1084 0.930 . S
C1074 C1071 1.339 . S
C1074 C1072 1.416 . S
C1074 H1095 0.930 . S
C1075 C1076 1.413 . S
C1075 C1077 1.427 . S
C1075 C1081 1.416 . S
C1076 C1069 1.424 . S
C1076 C1075 1.413 . S
C1076 N1080 1.361 . S
C1077 C1075 1.427 . S
C1077 C1078 1.328 . S
C1077 H1092 0.929 . S
C1078 C1072 1.448 . S
C1078 C1077 1.328 . S
C1078 H1093 0.930 . S
Tb1079 N1070 2.617 . S
Tb1079 N1080 2.572 . S
Tb1079 O1114 2.349 . S
Tb1079 O1117 2.393 . S
Tb1079 O1118 2.465 . S
Tb1079 O1119 2.387 . S
Tb1079 O1121 2.428 . S
Tb1079 O1122 2.308 . S
Tb1079 C1143 2.802 . S
N1080 C1076 1.361 . S
N1080 Tb1079 2.572 . S
N1080 C1082 1.340 . S
C1081 C1075 1.416 . S
C1081 C1083 1.332 . S
C1081 H1089 0.931 . S
C1082 N1080 1.340 . S
C1082 C1083 1.407 . S
C1082 H1088 0.930 . S
C1083 C1081 1.332 . S
C1083 C1082 1.407 . S
C1083 H1085 0.929 . S
H1084 C1073 0.930 . S
H1085 C1083 0.929 . S
H1086 C1101 0.930 . S
H1087 C1108 0.929 . S
H1088 C1082 0.930 . S
H1089 C1081 0.931 . S
H1090 C1104 0.930 . S
H1091 C1071 0.930 . S
H1092 C1077 0.929 . S
H1093 C1078 0.930 . S
H1094 C1099 0.930 . S
H1095 C1074 0.930 . S
H1096 C1107 0.931 . S
N1097 Tb1068 2.617 . S
N1097 C1098 1.379 . S
N1097 C1101 1.334 . S
C1098 N1097 1.379 . S
C1098 C1100 1.416 . S
C1098 C1106 1.424 . S
C1099 H1094 0.930 . S
C1099 C1101 1.390 . S
C1099 C1102 1.339 . S
C1100 C1098 1.416 . S
C1100 C1102 1.416 . S
C1100 C1133 1.448 . S
C1101 H1086 0.930 . S
C1101 N1097 1.334 . S
C1101 C1099 1.390 . S
C1102 C1099 1.339 . S
C1102 C1100 1.416 . S
C1102 H1109 0.930 . S
N1103 Tb1068 2.572 . S
N1103 C1104 1.340 . S
N1103 C1106 1.361 . S
C1104 H1090 0.930 . S
C1104 N1103 1.340 . S
C1104 C1108 1.407 . S
C1105 C1106 1.413 . S
C1105 C1107 1.416 . S
C1105 C1134 1.427 . S
C1106 C1098 1.424 . S
C1106 N1103 1.361 . S
C1106 C1105 1.413 . S
C1107 H1096 0.931 . S
C1107 C1105 1.416 . S
C1107 C1108 1.332 . S
C1108 H1087 0.929 . S
C1108 C1104 1.407 . S
C1108 C1107 1.332 . S
H1109 C1102 0.930 . S
H1110 C1133 0.930 . S
H1111 C1134 0.929 . S
O1112 Tb1068 2.465 . S
O1112 C1132 1.264 . S
O1113 Tb1068 2.387 . S
O1113 C1124 1.264 . S
O1114 Tb1079 2.349 . S
O1114 C1124 1.243 . S
O1115 Tb1068 2.428 . S
O1115 C1132 1.256 . S
O1116 Tb1068 2.308 . S
O1116 C1131 1.266 . S
O1117 Tb1079 2.393 . S
O1117 C1131 1.248 . S
O1118 Tb1079 2.465 . S
O1118 C1143 1.264 . S
O1119 Tb1079 2.387 . S
O1119 C1135 1.264 . S
O1120 Tb1068 2.349 . S
O1120 C1135 1.243 . S
O1121 Tb1079 2.428 . S
O1121 C1143 1.256 . S
O1122 Tb1079 2.308 . S
O1122 C1142 1.266 . S
O1123 Tb1068 2.393 . S
O1123 C1142 1.248 . S
C1124 O1113 1.264 . S
C1124 O1114 1.243 . S
C1125 C1128 1.399 . S
C1125 C1130 1.383 . S
C1125 C1132 1.496 . S
C1126 C1127 1.399 . S
C1126 C1130 1.389 . S
C1127 C1126 1.399 . S
C1127 C1129 1.380 . S
C1127 H1144 0.929 . S
C1128 C1125 1.399 . S
C1128 C1129 1.392 . S
C1128 H1145 0.929 . S
C1129 C1127 1.380 . S
C1129 C1128 1.392 . S
C1129 H1146 0.929 . S
C1130 C1125 1.383 . S
C1130 C1126 1.389 . S
C1130 H1147 0.931 . S
C1131 O1116 1.266 . S
C1131 O1117 1.248 . S
C1132 Tb1068 2.802 . S
C1132 O1112 1.264 . S
C1132 O1115 1.256 . S
C1132 C1125 1.496 . S
C1133 C1100 1.448 . S
C1133 H1110 0.930 . S
C1133 C1134 1.328 . S
C1134 C1105 1.427 . S
C1134 H1111 0.929 . S
C1134 C1133 1.328 . S
C1135 O1119 1.264 . S
C1135 O1120 1.243 . S
C1136 C1139 1.399 . S
C1136 C1140 1.383 . S
C1136 C1143 1.496 . S
C1137 C1138 1.399 . S
C1137 C1140 1.389 . S
C1138 C1137 1.399 . S
C1138 C1141 1.380 . S
C1138 H1148 0.929 . S
C1139 C1136 1.399 . S
C1139 C1141 1.392 . S
C1139 H1149 0.929 . S
C1140 C1136 1.383 . S
C1140 C1137 1.389 . S
C1140 H1150 0.931 . S
C1141 C1138 1.380 . S
C1141 C1139 1.392 . S
C1141 H1151 0.929 . S
C1142 O1122 1.266 . S
C1142 O1123 1.248 . S
C1143 Tb1079 2.802 . S
C1143 O1118 1.264 . S
C1143 O1121 1.256 . S
C1143 C1136 1.496 . S
H1144 C1127 0.929 . S
H1145 C1128 0.929 . S
H1146 C1129 0.929 . S
H1147 C1130 0.931 . S
H1148 C1138 0.929 . S
H1149 C1139 0.929 . S
H1150 C1140 0.931 . S
H1151 C1141 0.929 . S
Tb1152 N1181 2.617 1_455 S
Tb1152 N1187 2.572 1_455 S
Tb1152 O1196 2.465 . S
Tb1152 O1197 2.387 1_455 S
Tb1152 O1199 2.428 . S
Tb1152 O1200 2.308 . S
Tb1152 O1204 2.349 . S
Tb1152 O1207 2.393 . S
Tb1152 C1216 2.802 . S
C1153 N1154 1.379 . S
C1153 C1156 1.416 . S
C1153 C1160 1.424 . S
N1154 C1153 1.379 . S
N1154 C1157 1.334 . S
N1154 Tb1163 2.617 . S
C1155 C1157 1.390 . S
C1155 C1158 1.339 . S
C1155 H1175 0.930 . S
C1156 C1153 1.416 . S
C1156 C1158 1.416 . S
C1156 C1162 1.448 . S
C1157 N1154 1.334 . S
C1157 C1155 1.390 . S
C1157 H1168 0.930 . S
C1158 C1155 1.339 . S
C1158 C1156 1.416 . S
C1158 H1179 0.930 . S
C1159 C1160 1.413 . S
C1159 C1161 1.427 . S
C1159 C1165 1.416 . S
C1160 C1153 1.424 . S
C1160 C1159 1.413 . S
C1160 N1164 1.361 . S
C1161 C1159 1.427 . S
C1161 C1162 1.328 . S
C1161 H1176 0.929 . S
C1162 C1156 1.448 . S
C1162 C1161 1.328 . S
C1162 H1177 0.930 . S
Tb1163 N1154 2.617 . S
Tb1163 N1164 2.572 . S
Tb1163 O1198 2.349 1_455 S
Tb1163 O1201 2.393 . S
Tb1163 O1202 2.465 . S
Tb1163 O1203 2.387 . S
Tb1163 O1205 2.428 . S
Tb1163 O1206 2.308 . S
Tb1163 C1227 2.802 1_455 S
N1164 C1160 1.361 . S
N1164 Tb1163 2.572 . S
N1164 C1166 1.340 . S
C1165 C1159 1.416 . S
C1165 C1167 1.332 . S
C1165 H1173 0.931 . S
C1166 N1164 1.340 . S
C1166 C1167 1.407 . S
C1166 H1172 0.930 . S
C1167 C1165 1.332 . S
C1167 C1166 1.407 . S
C1167 H1169 0.929 . S
H1168 C1157 0.930 . S
H1169 C1167 0.929 . S
H1170 C1185 0.930 1_455 S
H1171 C1192 0.929 . S
H1172 C1166 0.930 . S
H1173 C1165 0.931 . S
H1174 C1188 0.930 . S
H1175 C1155 0.930 . S
H1176 C1161 0.929 . S
H1177 C1162 0.930 . S
H1178 C1183 0.930 . S
H1179 C1158 0.930 . S
H1180 C1191 0.931 . S
N1181 Tb1152 2.617 1_655 S
N1181 C1182 1.379 . S
N1181 C1185 1.334 . S
C1182 N1181 1.379 . S
C1182 C1184 1.416 . S
C1182 C1190 1.424 . S
C1183 H1178 0.930 . S
C1183 C1185 1.390 . S
C1183 C1186 1.339 . S
C1184 C1182 1.416 . S
C1184 C1186 1.416 . S
C1184 C1217 1.448 . S
C1185 H1170 0.930 1_655 S
C1185 N1181 1.334 . S
C1185 C1183 1.390 . S
C1186 C1183 1.339 . S
C1186 C1184 1.416 . S
C1186 H1193 0.930 . S
N1187 Tb1152 2.572 1_655 S
N1187 C1188 1.340 . S
N1187 C1190 1.361 . S
C1188 H1174 0.930 . S
C1188 N1187 1.340 . S
C1188 C1192 1.407 . S
C1189 C1190 1.413 . S
C1189 C1191 1.416 . S
C1189 C1218 1.427 . S
C1190 C1182 1.424 . S
C1190 N1187 1.361 . S
C1190 C1189 1.413 . S
C1191 H1180 0.931 . S
C1191 C1189 1.416 . S
C1191 C1192 1.332 . S
C1192 H1171 0.929 . S
C1192 C1188 1.407 . S
C1192 C1191 1.332 . S
H1193 C1186 0.930 . S
H1194 C1217 0.930 . S
H1195 C1218 0.929 . S
O1196 Tb1152 2.465 . S
O1196 C1216 1.264 . S
O1197 Tb1152 2.387 1_655 S
O1197 C1208 1.264 . S
O1198 Tb1163 2.349 1_655 S
O1198 C1208 1.243 . S
O1199 Tb1152 2.428 . S
O1199 C1216 1.256 . S
O1200 Tb1152 2.308 . S
O1200 C1215 1.266 . S
O1201 Tb1163 2.393 . S
O1201 C1215 1.248 . S
O1202 Tb1163 2.465 . S
O1202 C1227 1.264 1_455 S
O1203 Tb1163 2.387 . S
O1203 C1219 1.264 . S
O1204 Tb1152 2.349 . S
O1204 C1219 1.243 . S
O1205 Tb1163 2.428 . S
O1205 C1227 1.256 1_455 S
O1206 Tb1163 2.308 . S
O1206 C1226 1.266 . S
O1207 Tb1152 2.393 . S
O1207 C1226 1.248 . S
C1208 O1197 1.264 . S
C1208 O1198 1.243 . S
C1209 C1212 1.399 . S
C1209 C1214 1.383 . S
C1209 C1216 1.496 . S
C1210 C1211 1.399 . S
C1210 C1214 1.389 . S
C1211 C1210 1.399 . S
C1211 C1213 1.380 . S
C1211 H1228 0.929 . S
C1212 C1209 1.399 . S
C1212 C1213 1.392 . S
C1212 H1229 0.929 . S
C1213 C1211 1.380 . S
C1213 C1212 1.392 . S
C1213 H1230 0.929 . S
C1214 C1209 1.383 . S
C1214 C1210 1.389 . S
C1214 H1231 0.931 . S
C1215 O1200 1.266 . S
C1215 O1201 1.248 . S
C1216 Tb1152 2.802 . S
C1216 O1196 1.264 . S
C1216 O1199 1.256 . S
C1216 C1209 1.496 . S
C1217 C1184 1.448 . S
C1217 H1194 0.930 . S
C1217 C1218 1.328 . S
C1218 C1189 1.427 . S
C1218 H1195 0.929 . S
C1218 C1217 1.328 . S
C1219 O1203 1.264 . S
C1219 O1204 1.243 . S
C1220 C1223 1.399 . S
C1220 C1224 1.383 . S
C1220 C1227 1.496 . S
C1221 C1222 1.399 . S
C1221 C1224 1.389 . S
C1222 C1221 1.399 . S
C1222 C1225 1.380 . S
C1222 H1232 0.929 . S
C1223 C1220 1.399 . S
C1223 C1225 1.392 . S
C1223 H1233 0.929 . S
C1224 C1220 1.383 . S
C1224 C1221 1.389 . S
C1224 H1234 0.931 . S
C1225 C1222 1.380 . S
C1225 C1223 1.392 . S
C1225 H1235 0.929 . S
C1226 O1206 1.266 . S
C1226 O1207 1.248 . S
C1227 Tb1163 2.802 1_655 S
C1227 O1202 1.264 1_655 S
C1227 O1205 1.256 1_655 S
C1227 C1220 1.496 . S
H1228 C1211 0.929 . S
H1229 C1212 0.929 . S
H1230 C1213 0.929 . S
H1231 C1214 0.931 . S
H1232 C1222 0.929 . S
H1233 C1223 0.929 . S
H1234 C1224 0.931 . S
H1235 C1225 0.929 . S
Tb1236 N1265 2.617 . S
Tb1236 N1271 2.572 . S
Tb1236 O1280 2.465 . S
Tb1236 O1281 2.387 . S
Tb1236 O1283 2.428 . S
Tb1236 O1284 2.308 . S
Tb1236 O1288 2.349 . S
Tb1236 O1291 2.393 . S
Tb1236 C1300 2.802 . S
C1237 N1238 1.379 . S
C1237 C1240 1.416 . S
C1237 C1244 1.424 . S
N1238 C1237 1.379 . S
N1238 C1241 1.334 . S
N1238 Tb1247 2.617 . S
C1239 C1241 1.390 . S
C1239 C1242 1.339 . S
C1239 H1259 0.930 . S
C1240 C1237 1.416 . S
C1240 C1242 1.416 . S
C1240 C1246 1.448 . S
C1241 N1238 1.334 . S
C1241 C1239 1.390 . S
C1241 H1252 0.930 . S
C1242 C1239 1.339 . S
C1242 C1240 1.416 . S
C1242 H1263 0.930 . S
C1243 C1244 1.413 . S
C1243 C1245 1.427 . S
C1243 C1249 1.416 . S
C1244 C1237 1.424 . S
C1244 C1243 1.413 . S
C1244 N1248 1.361 . S
C1245 C1243 1.427 . S
C1245 C1246 1.328 . S
C1245 H1260 0.929 . S
C1246 C1240 1.448 . S
C1246 C1245 1.328 . S
C1246 H1261 0.930 . S
Tb1247 N1238 2.617 . S
Tb1247 N1248 2.572 . S
Tb1247 O1282 2.349 . S
Tb1247 O1285 2.393 . S
Tb1247 O1286 2.465 . S
Tb1247 O1287 2.387 . S
Tb1247 O1289 2.428 . S
Tb1247 O1290 2.308 . S
Tb1247 C1311 2.802 . S
N1248 C1244 1.361 . S
N1248 Tb1247 2.572 . S
N1248 C1250 1.340 . S
C1249 C1243 1.416 . S
C1249 C1251 1.332 . S
C1249 H1257 0.931 . S
C1250 N1248 1.340 . S
C1250 C1251 1.407 . S
C1250 H1256 0.930 . S
C1251 C1249 1.332 . S
C1251 C1250 1.407 . S
C1251 H1253 0.929 . S
H1252 C1241 0.930 . S
H1253 C1251 0.929 . S
H1254 C1269 0.930 . S
H1255 C1276 0.929 . S
H1256 C1250 0.930 . S
H1257 C1249 0.931 . S
H1258 C1272 0.930 . S
H1259 C1239 0.930 . S
H1260 C1245 0.929 . S
H1261 C1246 0.930 . S
H1262 C1267 0.930 . S
H1263 C1242 0.930 . S
H1264 C1275 0.931 . S
N1265 Tb1236 2.617 . S
N1265 C1266 1.379 . S
N1265 C1269 1.334 . S
C1266 N1265 1.379 . S
C1266 C1268 1.416 . S
C1266 C1274 1.424 . S
C1267 H1262 0.930 . S
C1267 C1269 1.390 . S
C1267 C1270 1.339 . S
C1268 C1266 1.416 . S
C1268 C1270 1.416 . S
C1268 C1301 1.448 . S
C1269 H1254 0.930 . S
C1269 N1265 1.334 . S
C1269 C1267 1.390 . S
C1270 C1267 1.339 . S
C1270 C1268 1.416 . S
C1270 H1277 0.930 . S
N1271 Tb1236 2.572 . S
N1271 C1272 1.340 . S
N1271 C1274 1.361 . S
C1272 H1258 0.930 . S
C1272 N1271 1.340 . S
C1272 C1276 1.407 . S
C1273 C1274 1.413 . S
C1273 C1275 1.416 . S
C1273 C1302 1.427 . S
C1274 C1266 1.424 . S
C1274 N1271 1.361 . S
C1274 C1273 1.413 . S
C1275 H1264 0.931 . S
C1275 C1273 1.416 . S
C1275 C1276 1.332 . S
C1276 H1255 0.929 . S
C1276 C1272 1.407 . S
C1276 C1275 1.332 . S
H1277 C1270 0.930 . S
H1278 C1301 0.930 . S
H1279 C1302 0.929 . S
O1280 Tb1236 2.465 . S
O1280 C1300 1.264 . S
O1281 Tb1236 2.387 . S
O1281 C1292 1.264 . S
O1282 Tb1247 2.349 . S
O1282 C1292 1.243 . S
O1283 Tb1236 2.428 . S
O1283 C1300 1.256 . S
O1284 Tb1236 2.308 . S
O1284 C1299 1.266 . S
O1285 Tb1247 2.393 . S
O1285 C1299 1.248 . S
O1286 Tb1247 2.465 . S
O1286 C1311 1.264 . S
O1287 Tb1247 2.387 . S
O1287 C1303 1.264 . S
O1288 Tb1236 2.349 . S
O1288 C1303 1.243 . S
O1289 Tb1247 2.428 . S
O1289 C1311 1.256 . S
O1290 Tb1247 2.308 . S
O1290 C1310 1.266 . S
O1291 Tb1236 2.393 . S
O1291 C1310 1.248 . S
C1292 O1281 1.264 . S
C1292 O1282 1.243 . S
C1293 C1296 1.399 . S
C1293 C1298 1.383 . S
C1293 C1300 1.496 . S
C1294 C1295 1.399 . S
C1294 C1298 1.389 . S
C1295 C1294 1.399 . S
C1295 C1297 1.380 . S
C1295 H1312 0.929 . S
C1296 C1293 1.399 . S
C1296 C1297 1.392 . S
C1296 H1313 0.929 . S
C1297 C1295 1.380 . S
C1297 C1296 1.392 . S
C1297 H1314 0.929 . S
C1298 C1293 1.383 . S
C1298 C1294 1.389 . S
C1298 H1315 0.931 . S
C1299 O1284 1.266 . S
C1299 O1285 1.248 . S
C1300 Tb1236 2.802 . S
C1300 O1280 1.264 . S
C1300 O1283 1.256 . S
C1300 C1293 1.496 . S
C1301 C1268 1.448 . S
C1301 H1278 0.930 . S
C1301 C1302 1.328 . S
C1302 C1273 1.427 . S
C1302 H1279 0.929 . S
C1302 C1301 1.328 . S
C1303 O1287 1.264 . S
C1303 O1288 1.243 . S
C1304 C1307 1.399 . S
C1304 C1308 1.383 . S
C1304 C1311 1.496 . S
C1305 C1306 1.399 . S
C1305 C1308 1.389 . S
C1306 C1305 1.399 . S
C1306 C1309 1.380 . S
C1306 H1316 0.929 . S
C1307 C1304 1.399 . S
C1307 C1309 1.392 . S
C1307 H1317 0.929 . S
C1308 C1304 1.383 . S
C1308 C1305 1.389 . S
C1308 H1318 0.931 . S
C1309 C1306 1.380 . S
C1309 C1307 1.392 . S
C1309 H1319 0.929 . S
C1310 O1290 1.266 . S
C1310 O1291 1.248 . S
C1311 Tb1247 2.802 . S
C1311 O1286 1.264 . S
C1311 O1289 1.256 . S
C1311 C1304 1.496 . S
H1312 C1295 0.929 . S
H1313 C1296 0.929 . S
H1314 C1297 0.929 . S
H1315 C1298 0.931 . S
H1316 C1306 0.929 . S
H1317 C1307 0.929 . S
H1318 C1308 0.931 . S
H1319 C1309 0.929 . S
Tb1320 N1349 2.617 . S
Tb1320 N1355 2.572 . S
Tb1320 O1364 2.465 . S
Tb1320 O1365 2.387 . S
Tb1320 O1367 2.428 . S
Tb1320 O1368 2.308 . S
Tb1320 O1372 2.349 . S
Tb1320 O1375 2.393 . S
Tb1320 C1384 2.802 . S
C1321 N1322 1.379 . S
C1321 C1324 1.416 . S
C1321 C1328 1.424 . S
N1322 C1321 1.379 . S
N1322 C1325 1.334 . S
N1322 Tb1331 2.617 . S
C1323 C1325 1.390 . S
C1323 C1326 1.339 . S
C1323 H1343 0.930 . S
C1324 C1321 1.416 . S
C1324 C1326 1.416 . S
C1324 C1330 1.448 . S
C1325 N1322 1.334 . S
C1325 C1323 1.390 . S
C1325 H1336 0.930 . S
C1326 C1323 1.339 . S
C1326 C1324 1.416 . S
C1326 H1347 0.930 . S
C1327 C1328 1.413 . S
C1327 C1329 1.427 . S
C1327 C1333 1.416 . S
C1328 C1321 1.424 . S
C1328 C1327 1.413 . S
C1328 N1332 1.361 . S
C1329 C1327 1.427 . S
C1329 C1330 1.328 . S
C1329 H1344 0.929 . S
C1330 C1324 1.448 . S
C1330 C1329 1.328 . S
C1330 H1345 0.930 . S
Tb1331 N1322 2.617 . S
Tb1331 N1332 2.572 . S
Tb1331 O1366 2.349 . S
Tb1331 O1369 2.393 . S
Tb1331 O1370 2.465 . S
Tb1331 O1371 2.387 . S
Tb1331 O1373 2.428 . S
Tb1331 O1374 2.308 . S
Tb1331 C1395 2.802 . S
N1332 C1328 1.361 . S
N1332 Tb1331 2.572 . S
N1332 C1334 1.340 . S
C1333 C1327 1.416 . S
C1333 C1335 1.332 . S
C1333 H1341 0.931 . S
C1334 N1332 1.340 . S
C1334 C1335 1.407 . S
C1334 H1340 0.930 . S
C1335 C1333 1.332 . S
C1335 C1334 1.407 . S
C1335 H1337 0.929 . S
H1336 C1325 0.930 . S
H1337 C1335 0.929 . S
H1338 C1353 0.930 . S
H1339 C1360 0.929 . S
H1340 C1334 0.930 . S
H1341 C1333 0.931 . S
H1342 C1356 0.930 . S
H1343 C1323 0.930 . S
H1344 C1329 0.929 . S
H1345 C1330 0.930 . S
H1346 C1351 0.930 . S
H1347 C1326 0.930 . S
H1348 C1359 0.931 . S
N1349 Tb1320 2.617 . S
N1349 C1350 1.379 . S
N1349 C1353 1.334 . S
C1350 N1349 1.379 . S
C1350 C1352 1.416 . S
C1350 C1358 1.424 . S
C1351 H1346 0.930 . S
C1351 C1353 1.390 . S
C1351 C1354 1.339 . S
C1352 C1350 1.416 . S
C1352 C1354 1.416 . S
C1352 C1385 1.448 . S
C1353 H1338 0.930 . S
C1353 N1349 1.334 . S
C1353 C1351 1.390 . S
C1354 C1351 1.339 . S
C1354 C1352 1.416 . S
C1354 H1361 0.930 . S
N1355 Tb1320 2.572 . S
N1355 C1356 1.340 . S
N1355 C1358 1.361 . S
C1356 H1342 0.930 . S
C1356 N1355 1.340 . S
C1356 C1360 1.407 . S
C1357 C1358 1.413 . S
C1357 C1359 1.416 . S
C1357 C1386 1.427 . S
C1358 C1350 1.424 . S
C1358 N1355 1.361 . S
C1358 C1357 1.413 . S
C1359 H1348 0.931 . S
C1359 C1357 1.416 . S
C1359 C1360 1.332 . S
C1360 H1339 0.929 . S
C1360 C1356 1.407 . S
C1360 C1359 1.332 . S
H1361 C1354 0.930 . S
H1362 C1385 0.930 . S
H1363 C1386 0.929 . S
O1364 Tb1320 2.465 . S
O1364 C1384 1.264 . S
O1365 Tb1320 2.387 . S
O1365 C1376 1.264 . S
O1366 Tb1331 2.349 . S
O1366 C1376 1.243 . S
O1367 Tb1320 2.428 . S
O1367 C1384 1.256 . S
O1368 Tb1320 2.308 . S
O1368 C1383 1.266 . S
O1369 Tb1331 2.393 . S
O1369 C1383 1.248 . S
O1370 Tb1331 2.465 . S
O1370 C1395 1.264 . S
O1371 Tb1331 2.387 . S
O1371 C1387 1.264 . S
O1372 Tb1320 2.349 . S
O1372 C1387 1.243 . S
O1373 Tb1331 2.428 . S
O1373 C1395 1.256 . S
O1374 Tb1331 2.308 . S
O1374 C1394 1.266 . S
O1375 Tb1320 2.393 . S
O1375 C1394 1.248 . S
C1376 O1365 1.264 . S
C1376 O1366 1.243 . S
C1377 C1380 1.399 . S
C1377 C1382 1.383 . S
C1377 C1384 1.496 . S
C1378 C1379 1.399 . S
C1378 C1382 1.389 . S
C1379 C1378 1.399 . S
C1379 C1381 1.380 . S
C1379 H1396 0.929 . S
C1380 C1377 1.399 . S
C1380 C1381 1.392 . S
C1380 H1397 0.929 . S
C1381 C1379 1.380 . S
C1381 C1380 1.392 . S
C1381 H1398 0.929 . S
C1382 C1377 1.383 . S
C1382 C1378 1.389 . S
C1382 H1399 0.931 . S
C1383 O1368 1.266 . S
C1383 O1369 1.248 . S
C1384 Tb1320 2.802 . S
C1384 O1364 1.264 . S
C1384 O1367 1.256 . S
C1384 C1377 1.496 . S
C1385 C1352 1.448 . S
C1385 H1362 0.930 . S
C1385 C1386 1.328 . S
C1386 C1357 1.427 . S
C1386 H1363 0.929 . S
C1386 C1385 1.328 . S
C1387 O1371 1.264 . S
C1387 O1372 1.243 . S
C1388 C1391 1.399 . S
C1388 C1392 1.383 . S
C1388 C1395 1.496 . S
C1389 C1390 1.399 . S
C1389 C1392 1.389 . S
C1390 C1389 1.399 . S
C1390 C1393 1.380 . S
C1390 H1400 0.929 . S
C1391 C1388 1.399 . S
C1391 C1393 1.392 . S
C1391 H1401 0.929 . S
C1392 C1388 1.383 . S
C1392 C1389 1.389 . S
C1392 H1402 0.931 . S
C1393 C1390 1.380 . S
C1393 C1391 1.392 . S
C1393 H1403 0.929 . S
C1394 O1374 1.266 . S
C1394 O1375 1.248 . S
C1395 Tb1331 2.802 . S
C1395 O1370 1.264 . S
C1395 O1373 1.256 . S
C1395 C1388 1.496 . S
H1396 C1379 0.929 . S
H1397 C1380 0.929 . S
H1398 C1381 0.929 . S
H1399 C1382 0.931 . S
H1400 C1390 0.929 . S
H1401 C1391 0.929 . S
H1402 C1392 0.931 . S
H1403 C1393 0.929 . S
Tb1404 N1433 2.617 . S
Tb1404 N1439 2.572 . S
Tb1404 O1448 2.465 . S
Tb1404 O1449 2.387 . S
Tb1404 O1451 2.428 . S
Tb1404 O1452 2.308 . S
Tb1404 O1456 2.349 . S
Tb1404 O1459 2.393 . S
Tb1404 C1468 2.802 . S
C1405 N1406 1.379 . S
C1405 C1408 1.416 . S
C1405 C1412 1.424 . S
N1406 C1405 1.379 . S
N1406 C1409 1.334 . S
N1406 Tb1415 2.617 . S
C1407 C1409 1.390 . S
C1407 C1410 1.339 . S
C1407 H1427 0.930 . S
C1408 C1405 1.416 . S
C1408 C1410 1.416 . S
C1408 C1414 1.448 . S
C1409 N1406 1.334 . S
C1409 C1407 1.390 . S
C1409 H1420 0.930 . S
C1410 C1407 1.339 . S
C1410 C1408 1.416 . S
C1410 H1431 0.930 . S
C1411 C1412 1.413 . S
C1411 C1413 1.427 . S
C1411 C1417 1.416 . S
C1412 C1405 1.424 . S
C1412 C1411 1.413 . S
C1412 N1416 1.361 . S
C1413 C1411 1.427 . S
C1413 C1414 1.328 . S
C1413 H1428 0.929 . S
C1414 C1408 1.448 . S
C1414 C1413 1.328 . S
C1414 H1429 0.930 . S
Tb1415 N1406 2.617 . S
Tb1415 N1416 2.572 . S
Tb1415 O1450 2.349 . S
Tb1415 O1453 2.393 . S
Tb1415 O1454 2.465 . S
Tb1415 O1455 2.387 . S
Tb1415 O1457 2.428 . S
Tb1415 O1458 2.308 . S
Tb1415 C1479 2.802 . S
N1416 C1412 1.361 . S
N1416 Tb1415 2.572 . S
N1416 C1418 1.340 . S
C1417 C1411 1.416 . S
C1417 C1419 1.332 . S
C1417 H1425 0.931 . S
C1418 N1416 1.340 . S
C1418 C1419 1.407 . S
C1418 H1424 0.930 . S
C1419 C1417 1.332 . S
C1419 C1418 1.407 . S
C1419 H1421 0.929 . S
H1420 C1409 0.930 . S
H1421 C1419 0.929 . S
H1422 C1437 0.930 . S
H1423 C1444 0.929 . S
H1424 C1418 0.930 . S
H1425 C1417 0.931 . S
H1426 C1440 0.930 . S
H1427 C1407 0.930 . S
H1428 C1413 0.929 . S
H1429 C1414 0.930 . S
H1430 C1435 0.930 . S
H1431 C1410 0.930 . S
H1432 C1443 0.931 . S
N1433 Tb1404 2.617 . S
N1433 C1434 1.379 . S
N1433 C1437 1.334 . S
C1434 N1433 1.379 . S
C1434 C1436 1.416 . S
C1434 C1442 1.424 . S
C1435 H1430 0.930 . S
C1435 C1437 1.390 . S
C1435 C1438 1.339 . S
C1436 C1434 1.416 . S
C1436 C1438 1.416 . S
C1436 C1469 1.448 . S
C1437 H1422 0.930 . S
C1437 N1433 1.334 . S
C1437 C1435 1.390 . S
C1438 C1435 1.339 . S
C1438 C1436 1.416 . S
C1438 H1445 0.930 . S
N1439 Tb1404 2.572 . S
N1439 C1440 1.340 . S
N1439 C1442 1.361 . S
C1440 H1426 0.930 . S
C1440 N1439 1.340 . S
C1440 C1444 1.407 . S
C1441 C1442 1.413 . S
C1441 C1443 1.416 . S
C1441 C1470 1.427 . S
C1442 C1434 1.424 . S
C1442 N1439 1.361 . S
C1442 C1441 1.413 . S
C1443 H1432 0.931 . S
C1443 C1441 1.416 . S
C1443 C1444 1.332 . S
C1444 H1423 0.929 . S
C1444 C1440 1.407 . S
C1444 C1443 1.332 . S
H1445 C1438 0.930 . S
H1446 C1469 0.930 . S
H1447 C1470 0.929 . S
O1448 Tb1404 2.465 . S
O1448 C1468 1.264 . S
O1449 Tb1404 2.387 . S
O1449 C1460 1.264 . S
O1450 Tb1415 2.349 . S
O1450 C1460 1.243 . S
O1451 Tb1404 2.428 . S
O1451 C1468 1.256 . S
O1452 Tb1404 2.308 . S
O1452 C1467 1.266 . S
O1453 Tb1415 2.393 . S
O1453 C1467 1.248 . S
O1454 Tb1415 2.465 . S
O1454 C1479 1.264 . S
O1455 Tb1415 2.387 . S
O1455 C1471 1.264 . S
O1456 Tb1404 2.349 . S
O1456 C1471 1.243 . S
O1457 Tb1415 2.428 . S
O1457 C1479 1.256 . S
O1458 Tb1415 2.308 . S
O1458 C1478 1.266 . S
O1459 Tb1404 2.393 . S
O1459 C1478 1.248 . S
C1460 O1449 1.264 . S
C1460 O1450 1.243 . S
C1461 C1464 1.399 . S
C1461 C1466 1.383 . S
C1461 C1468 1.496 . S
C1462 C1463 1.399 . S
C1462 C1466 1.389 . S
C1463 C1462 1.399 . S
C1463 C1465 1.380 . S
C1463 H1480 0.929 . S
C1464 C1461 1.399 . S
C1464 C1465 1.392 . S
C1464 H1481 0.929 . S
C1465 C1463 1.380 . S
C1465 C1464 1.392 . S
C1465 H1482 0.929 . S
C1466 C1461 1.383 . S
C1466 C1462 1.389 . S
C1466 H1483 0.931 . S
C1467 O1452 1.266 . S
C1467 O1453 1.248 . S
C1468 Tb1404 2.802 . S
C1468 O1448 1.264 . S
C1468 O1451 1.256 . S
C1468 C1461 1.496 . S
C1469 C1436 1.448 . S
C1469 H1446 0.930 . S
C1469 C1470 1.328 . S
C1470 C1441 1.427 . S
C1470 H1447 0.929 . S
C1470 C1469 1.328 . S
C1471 O1455 1.264 . S
C1471 O1456 1.243 . S
C1472 C1475 1.399 . S
C1472 C1476 1.383 . S
C1472 C1479 1.496 . S
C1473 C1474 1.399 . S
C1473 C1476 1.389 . S
C1474 C1473 1.399 . S
C1474 C1477 1.380 . S
C1474 H1484 0.929 . S
C1475 C1472 1.399 . S
C1475 C1477 1.392 . S
C1475 H1485 0.929 . S
C1476 C1472 1.383 . S
C1476 C1473 1.389 . S
C1476 H1486 0.931 . S
C1477 C1474 1.380 . S
C1477 C1475 1.392 . S
C1477 H1487 0.929 . S
C1478 O1458 1.266 . S
C1478 O1459 1.248 . S
C1479 Tb1415 2.802 . S
C1479 O1454 1.264 . S
C1479 O1457 1.256 . S
C1479 C1472 1.496 . S
H1480 C1463 0.929 . S
H1481 C1464 0.929 . S
H1482 C1465 0.929 . S
H1483 C1466 0.931 . S
H1484 C1474 0.929 . S
H1485 C1475 0.929 . S
H1486 C1476 0.931 . S
H1487 C1477 0.929 . S
Tb1488 N1517 2.617 . S
Tb1488 N1523 2.572 . S
Tb1488 O1532 2.465 . S
Tb1488 O1533 2.387 . S
Tb1488 O1535 2.428 . S
Tb1488 O1536 2.308 . S
Tb1488 O1540 2.349 . S
Tb1488 O1543 2.393 . S
Tb1488 C1552 2.802 . S
C1489 N1490 1.379 . S
C1489 C1492 1.416 . S
C1489 C1496 1.424 . S
N1490 C1489 1.379 . S
N1490 C1493 1.334 . S
N1490 Tb1499 2.617 . S
C1491 C1493 1.390 . S
C1491 C1494 1.339 . S
C1491 H1511 0.930 . S
C1492 C1489 1.416 . S
C1492 C1494 1.416 . S
C1492 C1498 1.448 . S
C1493 N1490 1.334 . S
C1493 C1491 1.390 . S
C1493 H1504 0.930 . S
C1494 C1491 1.339 . S
C1494 C1492 1.416 . S
C1494 H1515 0.930 . S
C1495 C1496 1.413 . S
C1495 C1497 1.427 . S
C1495 C1501 1.416 . S
C1496 C1489 1.424 . S
C1496 C1495 1.413 . S
C1496 N1500 1.361 . S
C1497 C1495 1.427 . S
C1497 C1498 1.328 . S
C1497 H1512 0.929 . S
C1498 C1492 1.448 . S
C1498 C1497 1.328 . S
C1498 H1513 0.930 . S
Tb1499 N1490 2.617 . S
Tb1499 N1500 2.572 . S
Tb1499 O1534 2.349 . S
Tb1499 O1537 2.393 . S
Tb1499 O1538 2.465 . S
Tb1499 O1539 2.387 . S
Tb1499 O1541 2.428 . S
Tb1499 O1542 2.308 . S
Tb1499 C1563 2.802 . S
N1500 C1496 1.361 . S
N1500 Tb1499 2.572 . S
N1500 C1502 1.340 . S
C1501 C1495 1.416 . S
C1501 C1503 1.332 . S
C1501 H1509 0.931 . S
C1502 N1500 1.340 . S
C1502 C1503 1.407 . S
C1502 H1508 0.930 . S
C1503 C1501 1.332 . S
C1503 C1502 1.407 . S
C1503 H1505 0.929 . S
H1504 C1493 0.930 . S
H1505 C1503 0.929 . S
H1506 C1521 0.930 . S
H1507 C1528 0.929 . S
H1508 C1502 0.930 . S
H1509 C1501 0.931 . S
H1510 C1524 0.930 . S
H1511 C1491 0.930 . S
H1512 C1497 0.929 . S
H1513 C1498 0.930 . S
H1514 C1519 0.930 . S
H1515 C1494 0.930 . S
H1516 C1527 0.931 . S
N1517 Tb1488 2.617 . S
N1517 C1518 1.379 . S
N1517 C1521 1.334 . S
C1518 N1517 1.379 . S
C1518 C1520 1.416 . S
C1518 C1526 1.424 . S
C1519 H1514 0.930 . S
C1519 C1521 1.390 . S
C1519 C1522 1.339 . S
C1520 C1518 1.416 . S
C1520 C1522 1.416 . S
C1520 C1553 1.448 . S
C1521 H1506 0.930 . S
C1521 N1517 1.334 . S
C1521 C1519 1.390 . S
C1522 C1519 1.339 . S
C1522 C1520 1.416 . S
C1522 H1529 0.930 . S
N1523 Tb1488 2.572 . S
N1523 C1524 1.340 . S
N1523 C1526 1.361 . S
C1524 H1510 0.930 . S
C1524 N1523 1.340 . S
C1524 C1528 1.407 . S
C1525 C1526 1.413 . S
C1525 C1527 1.416 . S
C1525 C1554 1.427 . S
C1526 C1518 1.424 . S
C1526 N1523 1.361 . S
C1526 C1525 1.413 . S
C1527 H1516 0.931 . S
C1527 C1525 1.416 . S
C1527 C1528 1.332 . S
C1528 H1507 0.929 . S
C1528 C1524 1.407 . S
C1528 C1527 1.332 . S
H1529 C1522 0.930 . S
H1530 C1553 0.930 . S
H1531 C1554 0.929 . S
O1532 Tb1488 2.465 . S
O1532 C1552 1.264 . S
O1533 Tb1488 2.387 . S
O1533 C1544 1.264 . S
O1534 Tb1499 2.349 . S
O1534 C1544 1.243 . S
O1535 Tb1488 2.428 . S
O1535 C1552 1.256 . S
O1536 Tb1488 2.308 . S
O1536 C1551 1.266 . S
O1537 Tb1499 2.393 . S
O1537 C1551 1.248 . S
O1538 Tb1499 2.465 . S
O1538 C1563 1.264 . S
O1539 Tb1499 2.387 . S
O1539 C1555 1.264 . S
O1540 Tb1488 2.349 . S
O1540 C1555 1.243 . S
O1541 Tb1499 2.428 . S
O1541 C1563 1.256 . S
O1542 Tb1499 2.308 . S
O1542 C1562 1.266 . S
O1543 Tb1488 2.393 . S
O1543 C1562 1.248 . S
C1544 O1533 1.264 . S
C1544 O1534 1.243 . S
C1545 C1548 1.399 . S
C1545 C1550 1.383 . S
C1545 C1552 1.496 . S
C1546 C1547 1.399 . S
C1546 C1550 1.389 . S
C1547 C1546 1.399 . S
C1547 C1549 1.380 . S
C1547 H1564 0.929 . S
C1548 C1545 1.399 . S
C1548 C1549 1.392 . S
C1548 H1565 0.929 . S
C1549 C1547 1.380 . S
C1549 C1548 1.392 . S
C1549 H1566 0.929 . S
C1550 C1545 1.383 . S
C1550 C1546 1.389 . S
C1550 H1567 0.931 . S
C1551 O1536 1.266 . S
C1551 O1537 1.248 . S
C1552 Tb1488 2.802 . S
C1552 O1532 1.264 . S
C1552 O1535 1.256 . S
C1552 C1545 1.496 . S
C1553 C1520 1.448 . S
C1553 H1530 0.930 . S
C1553 C1554 1.328 . S
C1554 C1525 1.427 . S
C1554 H1531 0.929 . S
C1554 C1553 1.328 . S
C1555 O1539 1.264 . S
C1555 O1540 1.243 . S
C1556 C1559 1.399 . S
C1556 C1560 1.383 . S
C1556 C1563 1.496 . S
C1557 C1558 1.399 . S
C1557 C1560 1.389 . S
C1558 C1557 1.399 . S
C1558 C1561 1.380 . S
C1558 H1568 0.929 . S
C1559 C1556 1.399 . S
C1559 C1561 1.392 . S
C1559 H1569 0.929 . S
C1560 C1556 1.383 . S
C1560 C1557 1.389 . S
C1560 H1570 0.931 . S
C1561 C1558 1.380 . S
C1561 C1559 1.392 . S
C1561 H1571 0.929 . S
C1562 O1542 1.266 . S
C1562 O1543 1.248 . S
C1563 Tb1499 2.802 . S
C1563 O1538 1.264 . S
C1563 O1541 1.256 . S
C1563 C1556 1.496 . S
H1564 C1547 0.929 . S
H1565 C1548 0.929 . S
H1566 C1549 0.929 . S
H1567 C1550 0.931 . S
H1568 C1558 0.929 . S
H1569 C1559 0.929 . S
H1570 C1560 0.931 . S
H1571 C1561 0.929 . S
Tb1572 N1601 2.617 . S
Tb1572 N1607 2.572 . S
Tb1572 O1616 2.465 . S
Tb1572 O1617 2.387 1_655 S
Tb1572 O1619 2.428 . S
Tb1572 O1620 2.308 . S
Tb1572 O1624 2.349 1_655 S
Tb1572 O1627 2.393 1_655 S
Tb1572 C1636 2.802 . S
C1573 N1574 1.379 . S
C1573 C1576 1.416 . S
C1573 C1580 1.424 1_556 S
N1574 C1573 1.379 . S
N1574 C1577 1.334 . S
N1574 Tb1583 2.617 1_556 S
C1575 C1577 1.390 . S
C1575 C1578 1.339 . S
C1575 H1595 0.930 . S
C1576 C1573 1.416 . S
C1576 C1578 1.416 . S
C1576 C1582 1.448 . S
C1577 N1574 1.334 . S
C1577 C1575 1.390 . S
C1577 H1588 0.930 . S
C1578 C1575 1.339 . S
C1578 C1576 1.416 . S
C1578 H1599 0.930 . S
C1579 C1580 1.413 . S
C1579 C1581 1.427 . S
C1579 C1585 1.416 . S
C1580 C1573 1.424 1_554 S
C1580 C1579 1.413 . S
C1580 N1584 1.361 . S
C1581 C1579 1.427 . S
C1581 C1582 1.328 1_554 S
C1581 H1596 0.929 . S
C1582 C1576 1.448 . S
C1582 C1581 1.328 1_556 S
C1582 H1597 0.930 . S
Tb1583 N1574 2.617 1_554 S
Tb1583 N1584 2.572 . S
Tb1583 O1618 2.349 . S
Tb1583 O1621 2.393 1_554 S
Tb1583 O1622 2.465 . S
Tb1583 O1623 2.387 . S
Tb1583 O1625 2.428 1_554 S
Tb1583 O1626 2.308 . S
Tb1583 C1647 2.802 . S
N1584 C1580 1.361 . S
N1584 Tb1583 2.572 . S
N1584 C1586 1.340 . S
C1585 C1579 1.416 . S
C1585 C1587 1.332 . S
C1585 H1593 0.931 . S
C1586 N1584 1.340 . S
C1586 C1587 1.407 . S
C1586 H1592 0.930 . S
C1587 C1585 1.332 . S
C1587 C1586 1.407 . S
C1587 H1589 0.929 . S
H1588 C1577 0.930 . S
H1589 C1587 0.929 . S
H1590 C1605 0.930 1_455 S
H1591 C1612 0.929 . S
H1592 C1586 0.930 . S
H1593 C1585 0.931 . S
H1594 C1608 0.930 . S
H1595 C1575 0.930 . S
H1596 C1581 0.929 . S
H1597 C1582 0.930 . S
H1598 C1603 0.930 1_455 S
H1599 C1578 0.930 . S
H1600 C1611 0.931 . S
N1601 Tb1572 2.617 . S
N1601 C1602 1.379 . S
N1601 C1605 1.334 . S
C1602 N1601 1.379 . S
C1602 C1604 1.416 . S
C1602 C1610 1.424 . S
C1603 H1598 0.930 1_655 S
C1603 C1605 1.390 . S
C1603 C1606 1.339 . S
C1604 C1602 1.416 . S
C1604 C1606 1.416 . S
C1604 C1637 1.448 . S
C1605 H1590 0.930 1_655 S
C1605 N1601 1.334 . S
C1605 C1603 1.390 . S
C1606 C1603 1.339 . S
C1606 C1604 1.416 . S
C1606 H1613 0.930 . S
N1607 Tb1572 2.572 . S
N1607 C1608 1.340 . S
N1607 C1610 1.361 . S
C1608 H1594 0.930 . S
C1608 N1607 1.340 . S
C1608 C1612 1.407 . S
C1609 C1610 1.413 . S
C1609 C1611 1.416 . S
C1609 C1638 1.427 . S
C1610 C1602 1.424 . S
C1610 N1607 1.361 . S
C1610 C1609 1.413 . S
C1611 H1600 0.931 . S
C1611 C1609 1.416 . S
C1611 C1612 1.332 . S
C1612 H1591 0.929 . S
C1612 C1608 1.407 . S
C1612 C1611 1.332 . S
H1613 C1606 0.930 . S
H1614 C1637 0.930 . S
H1615 C1638 0.929 . S
O1616 Tb1572 2.465 . S
O1616 C1636 1.264 . S
O1617 Tb1572 2.387 1_455 S
O1617 C1628 1.264 . S
O1618 Tb1583 2.349 . S
O1618 C1628 1.243 . S
O1619 Tb1572 2.428 . S
O1619 C1636 1.256 . S
O1620 Tb1572 2.308 . S
O1620 C1635 1.260 1_654 S
O1621 Tb1583 2.393 1_556 S
O1621 C1635 1.250 . S
O1622 Tb1583 2.465 . S
O1622 C1647 1.264 . S
O1623 Tb1583 2.387 . S
O1623 C1639 1.264 . S
O1624 Tb1572 2.349 1_455 S
O1624 C1639 1.243 . S
O1625 Tb1583 2.428 1_556 S
O1625 C1647 1.256 1_556 S
O1626 Tb1583 2.308 . S
O1626 C1646 1.266 . S
O1627 Tb1572 2.393 1_455 S
O1627 C1646 1.248 . S
C1628 O1617 1.264 . S
C1628 O1618 1.243 . S
C1629 C1632 1.399 . S
C1629 C1634 1.383 . S
C1629 C1636 1.496 . S
C1630 C1631 1.399 . S
C1630 C1634 1.389 . S
C1631 C1630 1.399 . S
C1631 C1633 1.380 . S
C1631 H1648 0.929 . S
C1632 C1629 1.399 . S
C1632 C1633 1.392 . S
C1632 H1649 0.929 . S
C1633 C1631 1.380 . S
C1633 C1632 1.392 . S
C1633 H1650 0.929 . S
C1634 C1629 1.383 . S
C1634 C1630 1.389 . S
C1634 H1651 0.931 . S
C1635 O1620 1.260 1_456 S
C1635 O1621 1.250 . S
C1636 Tb1572 2.802 . S
C1636 O1616 1.264 . S
C1636 O1619 1.256 . S
C1636 C1629 1.496 . S
C1637 C1604 1.448 . S
C1637 H1614 0.930 . S
C1637 C1638 1.328 . S
C1638 C1609 1.427 . S
C1638 H1615 0.929 . S
C1638 C1637 1.328 . S
C1639 O1623 1.264 . S
C1639 O1624 1.243 . S
C1640 C1643 1.399 1_554 S
C1640 C1644 1.383 . S
C1640 C1647 1.496 . S
C1641 C1642 1.399 1_554 S
C1641 C1644 1.389 . S
C1642 C1641 1.399 1_556 S
C1642 C1645 1.380 . S
C1642 H1652 0.929 . S
C1643 C1640 1.399 1_556 S
C1643 C1645 1.392 . S
C1643 H1653 0.929 . S
C1644 C1640 1.383 . S
C1644 C1641 1.389 . S
C1644 H1654 0.931 . S
C1645 C1642 1.380 . S
C1645 C1643 1.392 . S
C1645 H1655 0.929 . S
C1646 O1626 1.266 . S
C1646 O1627 1.248 . S
C1647 Tb1583 2.802 . S
C1647 O1622 1.264 . S
C1647 O1625 1.256 1_554 S
C1647 C1640 1.496 . S
H1648 C1631 0.929 . S
H1649 C1632 0.929 . S
H1650 C1633 0.929 . S
H1651 C1634 0.931 . S
H1652 C1642 0.929 . S
H1653 C1643 0.929 . S
H1654 C1644 0.931 . S
H1655 C1645 0.929 . S
C1656 C1657 1.363 . S
C1656 C1662 1.379 . S
C1656 N1664 1.356 . S
C1657 C1656 1.363 . S
C1657 C1663 1.363 1_554 S
C1658 C1659 1.363 . S
C1658 C1663 1.379 1_554 S
C1658 N1665 1.356 . S
C1659 C1658 1.363 . S
C1659 C1662 1.363 . S
N1660 C1662 1.356 . S
N1660 H1672 0.984 . S
N1660 H1673 0.985 . S
N1661 C1663 1.356 1_655 S
N1661 H1666 0.984 . S
N1661 H1667 0.985 . S
C1662 C1656 1.379 . S
C1662 C1659 1.363 . S
C1662 N1660 1.356 . S
C1663 C1657 1.363 1_556 S
C1663 C1658 1.379 1_556 S
C1663 N1661 1.356 1_455 S
N1664 C1656 1.356 . S
N1664 H1670 0.984 . S
N1664 H1671 0.984 . S
N1665 C1658 1.356 . S
N1665 H1668 0.984 . S
N1665 H1669 0.985 1_454 S
H1666 N1661 0.984 . S
H1667 N1661 0.985 . S
H1668 N1665 0.984 . S
H1669 N1665 0.985 1_656 S
H1670 N1664 0.984 . S
H1671 N1664 0.984 . S
H1672 N1660 0.984 . S
H1673 N1660 0.985 . S
C1674 C1675 1.363 . S
C1674 C1680 1.379 . S
C1674 N1682 1.356 . S
C1675 C1674 1.363 . S
C1675 C1681 1.363 . S
C1676 C1677 1.363 . S
C1676 C1681 1.379 . S
C1676 N1683 1.356 . S
C1677 C1676 1.363 . S
C1677 C1680 1.363 . S
N1678 C1680 1.356 . S
N1678 H1690 0.984 . S
N1678 H1691 0.985 . S
N1679 C1681 1.356 . S
N1679 H1684 0.984 . S
N1679 H1685 0.985 . S
C1680 C1674 1.379 . S
C1680 C1677 1.363 . S
C1680 N1678 1.356 . S
C1681 C1675 1.363 . S
C1681 C1676 1.379 . S
C1681 N1679 1.356 . S
N1682 C1674 1.356 . S
N1682 H1688 0.984 . S
N1682 H1689 0.984 . S
N1683 C1676 1.356 . S
N1683 H1686 0.984 . S
N1683 H1687 0.985 . S
H1684 N1679 0.984 . S
H1685 N1679 0.985 . S
H1686 N1683 0.984 . S
H1687 N1683 0.985 . S
H1688 N1682 0.984 . S
H1689 N1682 0.984 . S
H1690 N1678 0.984 . S
H1691 N1678 0.985 . S
C1692 C1693 1.363 . S
C1692 C1698 1.379 . S
C1692 N1700 1.356 . S
C1693 C1692 1.363 . S
C1693 C1699 1.363 . S
C1694 C1695 1.363 . S
C1694 C1699 1.379 . S
C1694 N1701 1.356 . S
C1695 C1694 1.363 . S
C1695 C1698 1.363 . S
N1696 C1698 1.356 . S
N1696 H1708 0.984 . S
N1696 H1709 0.985 . S
N1697 C1699 1.356 . S
N1697 H1702 0.984 . S
N1697 H1703 0.985 . S
C1698 C1692 1.379 . S
C1698 C1695 1.363 . S
C1698 N1696 1.356 . S
C1699 C1693 1.363 . S
C1699 C1694 1.379 . S
C1699 N1697 1.356 . S
N1700 C1692 1.356 . S
N1700 H1706 0.984 . S
N1700 H1707 0.984 . S
N1701 C1694 1.356 . S
N1701 H1704 0.984 . S
N1701 H1705 0.985 . S
H1702 N1697 0.984 . S
H1703 N1697 0.985 . S
H1704 N1701 0.984 . S
H1705 N1701 0.985 . S
H1706 N1700 0.984 . S
H1707 N1700 0.984 . S
H1708 N1696 0.984 . S
H1709 N1696 0.985 . S
C1710 C1711 1.363 . S
C1710 C1716 1.379 . S
C1710 N1718 1.356 . S
C1711 C1710 1.363 . S
C1711 C1717 1.363 . S
C1712 C1713 1.363 . S
C1712 C1717 1.379 . S
C1712 N1719 1.356 . S
C1713 C1712 1.363 . S
C1713 C1716 1.363 . S
N1714 C1716 1.356 . S
N1714 H1726 0.984 . S
N1714 H1727 0.985 . S
N1715 C1717 1.356 . S
N1715 H1720 0.984 . S
N1715 H1721 0.985 . S
C1716 C1710 1.379 . S
C1716 C1713 1.363 . S
C1716 N1714 1.356 . S
C1717 C1711 1.363 . S
C1717 C1712 1.379 . S
C1717 N1715 1.356 . S
N1718 C1710 1.356 . S
N1718 H1724 0.984 . S
N1718 H1725 0.984 . S
N1719 C1712 1.356 . S
N1719 H1722 0.984 . S
N1719 H1723 0.985 . S
H1720 N1715 0.984 . S
H1721 N1715 0.985 . S
H1722 N1719 0.984 . S
H1723 N1719 0.985 . S
H1724 N1718 0.984 . S
H1725 N1718 0.984 . S
H1726 N1714 0.984 . S
H1727 N1714 0.985 . S
C1728 C1729 1.363 . S
C1728 C1734 1.379 . S
C1728 N1736 1.356 . S
C1729 C1728 1.363 . S
C1729 C1735 1.363 . S
C1730 C1731 1.363 . S
C1730 C1735 1.379 . S
C1730 N1737 1.356 . S
C1731 C1730 1.363 . S
C1731 C1734 1.363 . S
N1732 C1734 1.356 . S
N1732 H1744 0.984 . S
N1732 H1745 0.985 . S
N1733 C1735 1.356 . S
N1733 H1738 0.984 . S
N1733 H1739 0.985 . S
C1734 C1728 1.379 . S
C1734 C1731 1.363 . S
C1734 N1732 1.356 . S
C1735 C1729 1.363 . S
C1735 C1730 1.379 . S
C1735 N1733 1.356 . S
N1736 C1728 1.356 . S
N1736 H1742 0.984 . S
N1736 H1743 0.984 . S
N1737 C1730 1.356 . S
N1737 H1740 0.984 . S
N1737 H1741 0.985 . S
H1738 N1733 0.984 . S
H1739 N1733 0.985 . S
H1740 N1737 0.984 . S
H1741 N1737 0.985 . S
H1742 N1736 0.984 . S
H1743 N1736 0.984 . S
H1744 N1732 0.984 . S
H1745 N1732 0.985 . S
C1746 C1747 1.363 . S
C1746 C1752 1.379 . S
C1746 N1754 1.356 . S
C1747 C1746 1.363 . S
C1747 C1753 1.363 . S
C1748 C1749 1.363 . S
C1748 C1753 1.379 . S
C1748 N1755 1.356 . S
C1749 C1748 1.363 . S
C1749 C1752 1.363 . S
N1750 C1752 1.356 . S
N1750 H1762 0.984 . S
N1750 H1763 0.985 . S
N1751 C1753 1.356 . S
N1751 H1756 0.984 . S
N1751 H1757 0.985 . S
C1752 C1746 1.379 . S
C1752 C1749 1.363 . S
C1752 N1750 1.356 . S
C1753 C1747 1.363 . S
C1753 C1748 1.379 . S
C1753 N1751 1.356 . S
N1754 C1746 1.356 . S
N1754 H1760 0.984 . S
N1754 H1761 0.984 . S
N1755 C1748 1.356 . S
N1755 H1758 0.984 . S
N1755 H1759 0.985 . S
H1756 N1751 0.984 . S
H1757 N1751 0.985 . S
H1758 N1755 0.984 . S
H1759 N1755 0.985 . S
H1760 N1754 0.984 . S
H1761 N1754 0.984 . S
H1762 N1750 0.984 . S
H1763 N1750 0.985 . S
C1764 C1765 1.363 . S
C1764 C1770 1.379 . S
C1764 N1772 1.356 . S
C1765 C1764 1.363 . S
C1765 C1771 1.363 . S
C1766 C1767 1.363 . S
C1766 C1771 1.379 . S
C1766 N1773 1.356 . S
C1767 C1766 1.363 . S
C1767 C1770 1.363 . S
N1768 C1770 1.356 . S
N1768 H1780 0.984 . S
N1768 H1781 0.985 . S
N1769 C1771 1.356 . S
N1769 H1774 0.984 . S
N1769 H1775 0.985 . S
C1770 C1764 1.379 . S
C1770 C1767 1.363 . S
C1770 N1768 1.356 . S
C1771 C1765 1.363 . S
C1771 C1766 1.379 . S
C1771 N1769 1.356 . S
N1772 C1764 1.356 . S
N1772 H1778 0.984 . S
N1772 H1779 0.984 . S
N1773 C1766 1.356 . S
N1773 H1776 0.984 . S
N1773 H1777 0.985 . S
H1774 N1769 0.984 . S
H1775 N1769 0.985 . S
H1776 N1773 0.984 . S
H1777 N1773 0.985 . S
H1778 N1772 0.984 . S
H1779 N1772 0.984 . S
H1780 N1768 0.984 . S
H1781 N1768 0.985 . S
C1782 C1783 1.363 . S
C1782 C1788 1.379 . S
C1782 N1790 1.356 . S
C1783 C1782 1.363 . S
C1783 C1789 1.363 . S
C1784 C1785 1.363 . S
C1784 C1789 1.379 . S
C1784 N1791 1.356 . S
C1785 C1784 1.363 . S
C1785 C1788 1.363 . S
N1786 C1788 1.356 . S
N1786 H1798 0.984 . S
N1786 H1799 0.985 . S
N1787 C1789 1.356 . S
N1787 H1792 0.984 . S
N1787 H1793 0.985 . S
C1788 C1782 1.379 . S
C1788 C1785 1.363 . S
C1788 N1786 1.356 . S
C1789 C1783 1.363 . S
C1789 C1784 1.379 . S
C1789 N1787 1.356 . S
N1790 C1782 1.356 . S
N1790 H1796 0.984 . S
N1790 H1797 0.984 . S
N1791 C1784 1.356 . S
N1791 H1794 0.984 . S
N1791 H1795 0.985 . S
H1792 N1787 0.984 . S
H1793 N1787 0.985 . S
H1794 N1791 0.984 . S
H1795 N1791 0.985 . S
H1796 N1790 0.984 . S
H1797 N1790 0.984 . S
H1798 N1786 0.984 . S
H1799 N1786 0.985 . S
C1800 C1801 1.363 . S
C1800 C1806 1.369 1_655 S
C1800 N1808 1.356 . S
C1801 C1800 1.363 . S
C1801 C1807 1.363 . S
C1802 C1803 1.363 . S
C1802 C1807 1.379 1_455 S
C1802 N1809 1.356 . S
C1803 C1802 1.363 . S
C1803 C1806 1.373 . S
N1804 C1806 1.359 . S
N1804 H1816 0.984 . S
N1804 H1817 0.985 . S
N1805 C1807 1.356 1_565 S
N1805 H1810 0.984 . S
N1805 H1811 0.985 . S
C1806 C1800 1.369 1_455 S
C1806 C1803 1.373 . S
C1806 N1804 1.359 . S
C1807 C1801 1.363 . S
C1807 C1802 1.379 1_655 S
C1807 N1805 1.356 1_545 S
N1808 C1800 1.356 . S
N1808 H1814 0.984 . S
N1808 H1815 0.984 . S
N1809 C1802 1.356 . S
N1809 H1812 0.984 . S
N1809 H1813 0.985 1_545 S
H1810 N1805 0.984 . S
H1811 N1805 0.985 . S
H1812 N1809 0.984 . S
H1813 N1809 0.985 1_565 S
H1814 N1808 0.984 . S
H1815 N1808 0.984 . S
H1816 N1804 0.984 . S
H1817 N1804 0.985 . S
C1818 C1819 1.363 . S
C1818 C1824 1.379 . S
C1818 N1826 1.356 . S
C1819 C1818 1.363 . S
C1819 C1825 1.363 . S
C1820 C1821 1.363 . S
C1820 C1825 1.379 . S
C1820 N1827 1.356 . S
C1821 C1820 1.363 . S
C1821 C1824 1.363 . S
N1822 C1824 1.356 . S
N1822 H1834 0.984 . S
N1822 H1835 0.985 . S
N1823 C1825 1.356 . S
N1823 H1828 0.984 . S
N1823 H1829 0.985 . S
C1824 C1818 1.379 . S
C1824 C1821 1.363 . S
C1824 N1822 1.356 . S
C1825 C1819 1.363 . S
C1825 C1820 1.379 . S
C1825 N1823 1.356 . S
N1826 C1818 1.356 . S
N1826 H1832 0.984 . S
N1826 H1833 0.984 . S
N1827 C1820 1.356 . S
N1827 H1830 0.984 . S
N1827 H1831 0.985 . S
H1828 N1823 0.984 . S
H1829 N1823 0.985 . S
H1830 N1827 0.984 . S
H1831 N1827 0.985 . S
H1832 N1826 0.984 . S
H1833 N1826 0.984 . S
H1834 N1822 0.984 . S
H1835 N1822 0.985 . S
C1836 C1837 1.363 . S
C1836 C1842 1.379 . S
C1836 N1844 1.356 . S
C1837 C1836 1.363 . S
C1837 C1843 1.363 . S
C1838 C1839 1.363 . S
C1838 C1843 1.379 . S
C1838 N1845 1.357 1_545 S
C1839 C1838 1.363 . S
C1839 C1842 1.363 . S
N1840 C1842 1.356 . S
N1840 H1852 0.984 . S
N1840 H1853 0.985 . S
N1841 C1843 1.356 . S
N1841 H1846 0.984 . S
N1841 H1847 0.963 1_545 S
C1842 C1836 1.379 . S
C1842 C1839 1.363 . S
C1842 N1840 1.356 . S
C1843 C1837 1.363 . S
C1843 C1838 1.379 . S
C1843 N1841 1.356 . S
N1844 C1836 1.356 . S
N1844 H1850 0.984 . S
N1844 H1851 0.984 . S
N1845 C1838 1.357 1_565 S
N1845 H1848 0.982 1_565 S
N1845 H1849 0.983 . S
H1846 N1841 0.984 . S
H1847 N1841 0.963 1_565 S
H1848 N1845 0.982 1_545 S
H1849 N1845 0.983 . S
H1850 N1844 0.984 . S
H1851 N1844 0.984 . S
H1852 N1840 0.984 . S
H1853 N1840 0.985 . S
C1854 C1855 1.363 . S
C1854 C1860 1.379 . S
C1854 N1862 1.356 . S
C1855 C1854 1.363 . S
C1855 C1861 1.363 . S
C1856 C1857 1.363 . S
C1856 C1861 1.379 . S
C1856 N1863 1.356 . S
C1857 C1856 1.363 . S
C1857 C1860 1.363 . S
N1858 C1860 1.356 . S
N1858 H1870 0.984 . S
N1858 H1871 0.985 . S
N1859 C1861 1.356 . S
N1859 H1864 0.984 . S
N1859 H1865 0.985 . S
C1860 C1854 1.379 . S
C1860 C1857 1.363 . S
C1860 N1858 1.356 . S
C1861 C1855 1.363 . S
C1861 C1856 1.379 . S
C1861 N1859 1.356 . S
N1862 C1854 1.356 . S
N1862 H1868 0.984 . S
N1862 H1869 0.984 1_556 S
N1863 C1856 1.356 . S
N1863 H1866 0.984 . S
N1863 H1867 0.985 . S
H1864 N1859 0.984 . S
H1865 N1859 0.985 . S
H1866 N1863 0.984 . S
H1867 N1863 0.985 . S
H1868 N1862 0.984 . S
H1869 N1862 0.984 1_554 S
H1870 N1858 0.984 . S
H1871 N1858 0.985 . S
C1872 C1873 1.363 1_455 S
C1872 C1878 1.379 . S
C1872 N1880 1.356 1_455 S
C1873 C1872 1.363 1_655 S
C1873 C1879 1.363 1_545 S
C1874 C1875 1.375 1_655 S
C1874 C1879 1.382 1_545 S
C1874 N1881 1.344 1_545 S
C1875 C1874 1.375 1_455 S
C1875 C1878 1.363 . S
N1876 C1878 1.356 . S
N1876 H1888 0.984 . S
N1876 H1889 0.985 . S
N1877 C1879 1.356 . S
N1877 H1882 0.984 . S
N1877 H1883 0.985 . S
C1878 C1872 1.379 . S
C1878 C1875 1.363 . S
C1878 N1876 1.356 . S
C1879 C1873 1.363 1_565 S
C1879 C1874 1.382 1_565 S
C1879 N1877 1.356 . S
N1880 C1872 1.356 1_655 S
N1880 H1886 0.984 1_655 S
N1880 H1887 0.985 . S
N1881 C1874 1.344 1_565 S
N1881 H1884 0.984 1_655 S
N1881 H1885 0.985 . S
H1882 N1877 0.984 . S
H1883 N1877 0.985 . S
H1884 N1881 0.984 1_455 S
H1885 N1881 0.985 . S
H1886 N1880 0.984 1_455 S
H1887 N1880 0.985 . S
H1888 N1876 0.984 . S
H1889 N1876 0.985 . S
C1890 C1891 1.363 . S
C1890 C1896 1.379 . S
C1890 N1898 1.356 . S
C1891 C1890 1.363 . S
C1891 C1897 1.363 . S
C1892 C1893 1.363 . S
C1892 C1897 1.379 . S
C1892 N1899 1.356 . S
C1893 C1892 1.363 . S
C1893 C1896 1.363 . S
N1894 C1896 1.356 . S
N1894 H1906 0.984 . S
N1894 H1907 0.985 . S
N1895 C1897 1.356 . S
N1895 H1900 0.984 . S
N1895 H1901 0.985 . S
C1896 C1890 1.379 . S
C1896 C1893 1.363 . S
C1896 N1894 1.356 . S
C1897 C1891 1.363 . S
C1897 C1892 1.379 . S
C1897 N1895 1.356 . S
N1898 C1890 1.356 . S
N1898 H1904 0.984 . S
N1898 H1905 0.984 . S
N1899 C1892 1.356 . S
N1899 H1902 0.984 . S
N1899 H1903 0.985 . S
H1900 N1895 0.984 . S
H1901 N1895 0.985 . S
H1902 N1899 0.984 . S
H1903 N1899 0.985 . S
H1904 N1898 0.984 . S
H1905 N1898 0.984 . S
H1906 N1894 0.984 . S
H1907 N1894 0.985 . S
C1908 C1909 1.363 . S
C1908 C1914 1.379 . S
C1908 N1916 1.356 . S
C1909 C1908 1.363 . S
C1909 C1915 1.363 . S
C1910 C1911 1.363 . S
C1910 C1915 1.379 . S
C1910 N1917 1.356 . S
C1911 C1910 1.363 . S
C1911 C1914 1.363 . S
N1912 C1914 1.356 . S
N1912 H1924 0.984 . S
N1912 H1925 0.985 . S
N1913 C1915 1.356 . S
N1913 H1918 0.984 . S
N1913 H1919 0.985 . S
C1914 C1908 1.379 . S
C1914 C1911 1.363 . S
C1914 N1912 1.356 . S
C1915 C1909 1.363 . S
C1915 C1910 1.379 . S
C1915 N1913 1.356 . S
N1916 C1908 1.356 . S
N1916 H1922 0.984 . S
N1916 H1923 0.984 . S
N1917 C1910 1.356 . S
N1917 H1920 0.984 . S
N1917 H1921 0.985 . S
H1918 N1913 0.984 . S
H1919 N1913 0.985 . S
H1920 N1917 0.984 . S
H1921 N1917 0.985 . S
H1922 N1916 0.984 . S
H1923 N1916 0.984 . S
H1924 N1912 0.984 . S
H1925 N1912 0.985 . S
C1926 C1927 1.363 . S
C1926 C1932 1.379 . S
C1926 N1934 1.356 . S
C1927 C1926 1.363 . S
C1927 C1933 1.363 . S
C1928 C1929 1.363 . S
C1928 C1933 1.379 . S
C1928 N1935 1.356 . S
C1929 C1928 1.363 . S
C1929 C1932 1.363 . S
N1930 C1932 1.356 . S
N1930 H1942 0.984 . S
N1930 H1943 0.985 . S
N1931 C1933 1.356 . S
N1931 H1936 0.984 . S
N1931 H1937 0.985 . S
C1932 C1926 1.379 . S
C1932 C1929 1.363 . S
C1932 N1930 1.356 . S
C1933 C1927 1.363 . S
C1933 C1928 1.379 . S
C1933 N1931 1.356 . S
N1934 C1926 1.356 . S
N1934 H1940 0.984 . S
N1934 H1941 0.984 . S
N1935 C1928 1.356 . S
N1935 H1938 0.984 . S
N1935 H1939 0.985 . S
H1936 N1931 0.984 . S
H1937 N1931 0.985 . S
H1938 N1935 0.984 . S
H1939 N1935 0.985 . S
H1940 N1934 0.984 . S
H1941 N1934 0.984 . S
H1942 N1930 0.984 . S
H1943 N1930 0.985 . S
C1944 C1945 1.363 1_545 S
C1944 C1950 1.379 . S
C1944 N1952 1.356 1_554 S
C1945 C1944 1.363 1_565 S
C1945 C1951 1.363 . S
C1946 C1947 1.363 1_565 S
C1946 C1951 1.379 . S
C1946 N1953 1.356 . S
C1947 C1946 1.363 1_545 S
C1947 C1950 1.363 . S
N1948 C1950 1.356 . S
N1948 H1960 0.984 . S
N1948 H1961 0.985 . S
N1949 C1951 1.356 . S
N1949 H1954 0.984 . S
N1949 H1955 0.985 . S
C1950 C1944 1.379 . S
C1950 C1947 1.363 . S
C1950 N1948 1.356 . S
C1951 C1945 1.363 . S
C1951 C1946 1.379 . S
C1951 N1949 1.356 . S
N1952 C1944 1.356 1_556 S
N1952 H1958 0.984 . S
N1952 H1959 0.984 1_545 S
N1953 C1946 1.356 . S
N1953 H1956 0.984 1_565 S
N1953 H1957 0.985 . S
H1954 N1949 0.984 . S
H1955 N1949 0.985 . S
H1956 N1953 0.984 1_545 S
H1957 N1953 0.985 . S
H1958 N1952 0.984 . S
H1959 N1952 0.984 1_565 S
H1960 N1948 0.984 . S
H1961 N1948 0.985 . S
C1962 C1963 1.363 . S
C1962 C1968 1.379 . S
C1962 N1970 1.356 . S
C1963 C1962 1.363 . S
C1963 C1969 1.363 1_554 S
C1964 C1965 1.363 1_556 S
C1964 C1969 1.379 . S
C1964 N1971 1.356 . S
C1965 C1964 1.363 1_554 S
C1965 C1968 1.363 . S
N1966 C1968 1.356 . S
N1966 H1978 0.984 . S
N1966 H1979 0.985 . S
N1967 C1969 1.356 . S
N1967 H1972 0.984 . S
N1967 H1973 0.985 . S
C1968 C1962 1.379 . S
C1968 C1965 1.363 . S
C1968 N1966 1.356 . S
C1969 C1963 1.363 1_556 S
C1969 C1964 1.379 . S
C1969 N1967 1.356 . S
N1970 C1962 1.356 . S
N1970 H1976 0.984 . S
N1970 H1977 0.984 . S
N1971 C1964 1.356 . S
N1971 H1974 0.984 . S
N1971 H1975 0.985 . S
H1972 N1967 0.984 . S
H1973 N1967 0.985 . S
H1974 N1971 0.984 . S
H1975 N1971 0.985 . S
H1976 N1970 0.984 . S
H1977 N1970 0.984 . S
H1978 N1966 0.984 . S
H1979 N1966 0.985 . S
C1980 C1981 1.363 . S
C1980 C1986 1.379 . S
C1980 N1988 1.356 . S
C1981 C1980 1.363 . S
C1981 C1987 1.363 . S
C1982 C1983 1.363 . S
C1982 C1987 1.379 . S
C1982 N1989 1.356 . S
C1983 C1982 1.363 . S
C1983 C1986 1.363 . S
N1984 C1986 1.356 . S
N1984 H1996 0.984 . S
N1984 H1997 0.985 . S
N1985 C1987 1.356 . S
N1985 H1990 0.984 . S
N1985 H1991 0.985 . S
C1986 C1980 1.379 . S
C1986 C1983 1.363 . S
C1986 N1984 1.356 . S
C1987 C1981 1.363 . S
C1987 C1982 1.379 . S
C1987 N1985 1.356 . S
N1988 C1980 1.356 . S
N1988 H1994 0.984 . S
N1988 H1995 0.984 . S
N1989 C1982 1.356 . S
N1989 H1992 0.984 . S
N1989 H1993 0.985 . S
H1990 N1985 0.984 . S
H1991 N1985 0.985 . S
H1992 N1989 0.984 . S
H1993 N1989 0.985 . S
H1994 N1988 0.984 . S
H1995 N1988 0.984 . S
H1996 N1984 0.984 . S
H1997 N1984 0.985 . S
C1998 C1999 1.363 . S
C1998 C2004 1.379 . S
C1998 N2006 1.356 . S
C1999 C1998 1.363 . S
C1999 C2005 1.363 . S
C2000 C2001 1.363 . S
C2000 C2005 1.379 . S
C2000 N2007 1.356 . S
C2001 C2000 1.363 . S
C2001 C2004 1.363 . S
N2002 C2004 1.356 . S
N2002 H2014 0.984 . S
N2002 H2015 0.985 . S
N2003 C2005 1.356 . S
N2003 H2008 0.984 . S
N2003 H2009 0.985 . S
C2004 C1998 1.379 . S
C2004 C2001 1.363 . S
C2004 N2002 1.356 . S
C2005 C1999 1.363 . S
C2005 C2000 1.379 . S
C2005 N2003 1.356 . S
N2006 C1998 1.356 . S
N2006 H2012 0.984 . S
N2006 H2013 0.984 . S
N2007 C2000 1.356 . S
N2007 H2010 0.984 . S
N2007 H2011 0.985 . S
H2008 N2003 0.984 . S
H2009 N2003 0.985 . S
H2010 N2007 0.984 . S
H2011 N2007 0.985 . S
H2012 N2006 0.984 . S
H2013 N2006 0.984 . S
H2014 N2002 0.984 . S
H2015 N2002 0.985 . S
C2016 C2017 1.363 . S
C2016 C2022 1.379 . S
C2016 N2024 1.356 . S
C2017 C2016 1.363 . S
C2017 C2023 1.363 . S
C2018 C2019 1.363 . S
C2018 C2023 1.379 . S
C2018 N2025 1.356 . S
C2019 C2018 1.363 . S
C2019 C2022 1.363 . S
N2020 C2022 1.356 . S
N2020 H2032 0.984 . S
N2020 H2033 0.985 . S
N2021 C2023 1.356 . S
N2021 H2026 0.984 . S
N2021 H2027 0.985 . S
C2022 C2016 1.379 . S
C2022 C2019 1.363 . S
C2022 N2020 1.356 . S
C2023 C2017 1.363 . S
C2023 C2018 1.379 . S
C2023 N2021 1.356 . S
N2024 C2016 1.356 . S
N2024 H2030 0.984 . S
N2024 H2031 0.984 . S
N2025 C2018 1.356 . S
N2025 H2028 0.984 . S
N2025 H2029 0.985 . S
H2026 N2021 0.984 . S
H2027 N2021 0.985 . S
H2028 N2025 0.984 . S
H2029 N2025 0.985 . S
H2030 N2024 0.984 . S
H2031 N2024 0.984 . S
H2032 N2020 0.984 . S
H2033 N2020 0.985 . S
C2034 C2035 1.363 . S
C2034 C2040 1.379 . S
C2034 N2042 1.356 . S
C2035 C2034 1.363 . S
C2035 C2041 1.363 . S
C2036 C2037 1.363 . S
C2036 C2041 1.379 . S
C2036 N2043 1.356 . S
C2037 C2036 1.363 . S
C2037 C2040 1.363 . S
N2038 C2040 1.356 . S
N2038 H2050 0.984 . S
N2038 H2051 0.985 . S
N2039 C2041 1.356 . S
N2039 H2044 0.984 . S
N2039 H2045 0.985 . S
C2040 C2034 1.379 . S
C2040 C2037 1.363 . S
C2040 N2038 1.356 . S
C2041 C2035 1.363 . S
C2041 C2036 1.379 . S
C2041 N2039 1.356 . S
N2042 C2034 1.356 . S
N2042 H2048 0.984 . S
N2042 H2049 0.984 . S
N2043 C2036 1.356 . S
N2043 H2046 0.984 . S
N2043 H2047 0.985 . S
H2044 N2039 0.984 . S
H2045 N2039 0.985 . S
H2046 N2043 0.984 . S
H2047 N2043 0.985 . S
H2048 N2042 0.984 . S
H2049 N2042 0.984 . S
H2050 N2038 0.984 . S
H2051 N2038 0.985 . S
C2052 C2053 1.363 . S
C2052 C2058 1.379 . S
C2052 N2060 1.356 . S
C2053 C2052 1.363 . S
C2053 C2059 1.363 . S
C2054 C2055 1.363 . S
C2054 C2059 1.379 . S
C2054 N2061 1.356 . S
C2055 C2054 1.363 . S
C2055 C2058 1.363 . S
N2056 C2058 1.356 . S
N2056 H2068 0.984 . S
N2056 H2069 0.985 . S
N2057 C2059 1.356 . S
N2057 H2062 0.984 . S
N2057 H2063 0.985 . S
C2058 C2052 1.379 . S
C2058 C2055 1.363 . S
C2058 N2056 1.356 . S
C2059 C2053 1.363 . S
C2059 C2054 1.379 . S
C2059 N2057 1.356 . S
N2060 C2052 1.356 . S
N2060 H2066 0.984 . S
N2060 H2067 0.984 . S
N2061 C2054 1.356 . S
N2061 H2064 0.984 . S
N2061 H2065 0.985 . S
H2062 N2057 0.984 . S
H2063 N2057 0.985 . S
H2064 N2061 0.984 . S
H2065 N2061 0.985 . S
H2066 N2060 0.984 . S
H2067 N2060 0.984 . S
H2068 N2056 0.984 . S
H2069 N2056 0.985 . S
C2070 C2071 1.363 . S
C2070 C2076 1.379 . S
C2070 N2078 1.356 . S
C2071 C2070 1.363 . S
C2071 C2077 1.363 . S
C2072 C2073 1.363 . S
C2072 C2077 1.379 . S
C2072 N2079 1.356 . S
C2073 C2072 1.363 . S
C2073 C2076 1.363 . S
N2074 C2076 1.356 . S
N2074 H2086 0.984 . S
N2074 H2087 0.985 . S
N2075 C2077 1.356 . S
N2075 H2080 0.984 . S
N2075 H2081 0.985 . S
C2076 C2070 1.379 . S
C2076 C2073 1.363 . S
C2076 N2074 1.356 . S
C2077 C2071 1.363 . S
C2077 C2072 1.379 . S
C2077 N2075 1.356 . S
N2078 C2070 1.356 . S
N2078 H2084 0.984 . S
N2078 H2085 0.984 . S
N2079 C2072 1.356 . S
N2079 H2082 0.984 . S
N2079 H2083 0.985 . S
H2080 N2075 0.984 . S
H2081 N2075 0.985 . S
H2082 N2079 0.984 . S
H2083 N2079 0.985 . S
H2084 N2078 0.984 . S
H2085 N2078 0.984 . S
H2086 N2074 0.984 . S
H2087 N2074 0.985 . S
C2088 C2089 1.363 . S
C2088 C2094 1.379 . S
C2088 N2096 1.356 . S
C2089 C2088 1.363 . S
C2089 C2095 1.363 . S
C2090 C2091 1.363 . S
C2090 C2095 1.379 . S
C2090 N2097 1.356 . S
C2091 C2090 1.363 . S
C2091 C2094 1.363 . S
N2092 C2094 1.356 . S
N2092 H2104 0.984 . S
N2092 H2105 0.985 . S
N2093 C2095 1.356 . S
N2093 H2098 0.984 . S
N2093 H2099 0.985 . S
C2094 C2088 1.379 . S
C2094 C2091 1.363 . S
C2094 N2092 1.356 . S
C2095 C2089 1.363 . S
C2095 C2090 1.379 . S
C2095 N2093 1.356 . S
N2096 C2088 1.356 . S
N2096 H2102 0.984 . S
N2096 H2103 0.984 . S
N2097 C2090 1.356 . S
N2097 H2100 0.984 . S
N2097 H2101 0.985 . S
H2098 N2093 0.984 . S
H2099 N2093 0.985 . S
H2100 N2097 0.984 . S
H2101 N2097 0.985 . S
H2102 N2096 0.984 . S
H2103 N2096 0.984 . S
H2104 N2092 0.984 . S
H2105 N2092 0.985 . S
C2106 C2107 1.363 . S
C2106 C2112 1.379 . S
C2106 N2114 1.356 . S
C2107 C2106 1.363 . S
C2107 C2113 1.363 . S
C2108 C2109 1.363 . S
C2108 C2113 1.379 . S
C2108 N2115 1.356 . S
C2109 C2108 1.363 . S
C2109 C2112 1.363 . S
N2110 C2112 1.356 . S
N2110 H2122 0.984 . S
N2110 H2123 0.985 . S
N2111 C2113 1.356 . S
N2111 H2116 0.984 . S
N2111 H2117 0.985 . S
C2112 C2106 1.379 . S
C2112 C2109 1.363 . S
C2112 N2110 1.356 . S
C2113 C2107 1.363 . S
C2113 C2108 1.379 . S
C2113 N2111 1.356 . S
N2114 C2106 1.356 . S
N2114 H2120 0.984 . S
N2114 H2121 0.984 . S
N2115 C2108 1.356 . S
N2115 H2118 0.984 . S
N2115 H2119 0.985 . S
H2116 N2111 0.984 . S
H2117 N2111 0.985 . S
H2118 N2115 0.984 . S
H2119 N2115 0.985 . S
H2120 N2114 0.984 . S
H2121 N2114 0.984 . S
H2122 N2110 0.984 . S
H2123 N2110 0.985 . S
C2124 C2125 1.363 . S
C2124 C2130 1.379 . S
C2124 N2132 1.356 . S
C2125 C2124 1.363 . S
C2125 C2131 1.363 . S
C2126 C2127 1.363 . S
C2126 C2131 1.379 . S
C2126 N2133 1.356 . S
C2127 C2126 1.363 . S
C2127 C2130 1.363 . S
N2128 C2130 1.356 . S
N2128 H2140 0.984 . S
N2128 H2141 0.985 . S
N2129 C2131 1.356 . S
N2129 H2134 0.984 . S
N2129 H2135 0.985 . S
C2130 C2124 1.379 . S
C2130 C2127 1.363 . S
C2130 N2128 1.356 . S
C2131 C2125 1.363 . S
C2131 C2126 1.379 . S
C2131 N2129 1.356 . S
N2132 C2124 1.356 . S
N2132 H2138 0.984 . S
N2132 H2139 0.984 . S
N2133 C2126 1.356 . S
N2133 H2136 0.984 . S
N2133 H2137 0.985 . S
H2134 N2129 0.984 . S
H2135 N2129 0.985 . S
H2136 N2133 0.984 . S
H2137 N2133 0.985 . S
H2138 N2132 0.984 . S
H2139 N2132 0.984 . S
H2140 N2128 0.984 . S
H2141 N2128 0.985 . S
C2142 C2143 1.363 . S
C2142 C2148 1.379 . S
C2142 N2150 1.356 . S
C2143 C2142 1.363 . S
C2143 C2149 1.363 . S
C2144 C2145 1.363 . S
C2144 C2149 1.379 . S
C2144 N2151 1.356 . S
C2145 C2144 1.363 . S
C2145 C2148 1.363 . S
N2146 C2148 1.356 . S
N2146 H2158 0.984 . S
N2146 H2159 0.985 . S
N2147 C2149 1.356 . S
N2147 H2152 0.984 . S
N2147 H2153 0.985 . S
C2148 C2142 1.379 . S
C2148 C2145 1.363 . S
C2148 N2146 1.356 . S
C2149 C2143 1.363 . S
C2149 C2144 1.379 . S
C2149 N2147 1.356 . S
N2150 C2142 1.356 . S
N2150 H2156 0.984 . S
N2150 H2157 0.984 . S
N2151 C2144 1.356 . S
N2151 H2154 0.984 . S
N2151 H2155 0.985 . S
H2152 N2147 0.984 . S
H2153 N2147 0.985 . S
H2154 N2151 0.984 . S
H2155 N2151 0.985 . S
H2156 N2150 0.984 . S
H2157 N2150 0.984 . S
H2158 N2146 0.984 . S
H2159 N2146 0.985 . S
C2160 C2161 1.363 . S
C2160 C2166 1.379 . S
C2160 N2168 1.356 . S
C2161 C2160 1.363 . S
C2161 C2167 1.363 . S
C2162 C2163 1.363 . S
C2162 C2167 1.379 . S
C2162 N2169 1.356 . S
C2163 C2162 1.363 . S
C2163 C2166 1.363 . S
N2164 C2166 1.356 . S
N2164 H2176 0.984 1_455 S
N2164 H2177 0.985 . S
N2165 C2167 1.356 . S
N2165 H2170 0.984 . S
N2165 H2171 0.985 . S
C2166 C2160 1.379 . S
C2166 C2163 1.363 . S
C2166 N2164 1.356 . S
C2167 C2161 1.363 . S
C2167 C2162 1.379 . S
C2167 N2165 1.356 . S
N2168 C2160 1.356 . S
N2168 H2174 0.984 1_455 S
N2168 H2175 0.984 . S
N2169 C2162 1.356 . S
N2169 H2172 0.984 . S
N2169 H2173 0.985 . S
H2170 N2165 0.984 . S
H2171 N2165 0.985 . S
H2172 N2169 0.984 . S
H2173 N2169 0.985 . S
H2174 N2168 0.984 1_655 S
H2175 N2168 0.984 . S
H2176 N2164 0.984 1_655 S
H2177 N2164 0.985 . S
C2178 C2179 1.363 . S
C2178 C2184 1.379 . S
C2178 N2186 1.356 . S
C2179 C2178 1.363 . S
C2179 C2185 1.363 . S
C2180 C2181 1.363 . S
C2180 C2185 1.379 . S
C2180 N2187 1.356 . S
C2181 C2180 1.363 . S
C2181 C2184 1.363 . S
N2182 C2184 1.356 . S
N2182 H2194 0.984 . S
N2182 H2195 0.985 . S
N2183 C2185 1.356 . S
N2183 H2188 0.984 . S
N2183 H2189 0.985 . S
C2184 C2178 1.379 . S
C2184 C2181 1.363 . S
C2184 N2182 1.356 . S
C2185 C2179 1.363 . S
C2185 C2180 1.379 . S
C2185 N2183 1.356 . S
N2186 C2178 1.356 . S
N2186 H2192 0.984 . S
N2186 H2193 0.984 . S
N2187 C2180 1.356 . S
N2187 H2190 0.984 . S
N2187 H2191 0.985 . S
H2188 N2183 0.984 . S
H2189 N2183 0.985 . S
H2190 N2187 0.984 . S
H2191 N2187 0.985 . S
H2192 N2186 0.984 . S
H2193 N2186 0.984 . S
H2194 N2182 0.984 . S
H2195 N2182 0.985 . S
C2196 C2197 1.363 . S
C2196 C2202 1.379 . S
C2196 N2204 1.356 . S
C2197 C2196 1.363 . S
C2197 C2203 1.363 . S
C2198 C2199 1.363 . S
C2198 C2203 1.379 . S
C2198 N2205 1.356 1_556 S
C2199 C2198 1.363 . S
C2199 C2202 1.363 . S
N2200 C2202 1.356 . S
N2200 H2212 0.984 . S
N2200 H2213 0.985 1_565 S
N2201 C2203 1.356 . S
N2201 H2206 0.984 . S
N2201 H2207 0.985 . S
C2202 C2196 1.379 . S
C2202 C2199 1.363 . S
C2202 N2200 1.356 . S
C2203 C2197 1.363 . S
C2203 C2198 1.379 . S
C2203 N2201 1.356 . S
N2204 C2196 1.356 . S
N2204 H2210 0.984 . S
N2204 H2211 0.984 . S
N2205 C2198 1.356 1_554 S
N2205 H2208 0.984 . S
N2205 H2209 0.985 . S
H2206 N2201 0.984 . S
H2207 N2201 0.985 . S
H2208 N2205 0.984 . S
H2209 N2205 0.985 . S
H2210 N2204 0.984 . S
H2211 N2204 0.984 . S
H2212 N2200 0.984 . S
H2213 N2200 0.985 1_545 S
C2214 C2215 1.363 . S
C2214 C2220 1.379 . S
C2214 N2222 1.356 . S
C2215 C2214 1.363 . S
C2215 C2221 1.363 . S
C2216 C2217 1.363 . S
C2216 C2221 1.379 . S
C2216 N2223 1.356 . S
C2217 C2216 1.363 . S
C2217 C2220 1.363 . S
N2218 C2220 1.356 . S
N2218 H2230 0.984 . S
N2218 H2231 0.985 . S
N2219 C2221 1.356 . S
N2219 H2224 0.984 . S
N2219 H2225 0.985 . S
C2220 C2214 1.379 . S
C2220 C2217 1.363 . S
C2220 N2218 1.356 . S
C2221 C2215 1.363 . S
C2221 C2216 1.379 . S
C2221 N2219 1.356 . S
N2222 C2214 1.356 . S
N2222 H2228 0.984 . S
N2222 H2229 0.984 . S
N2223 C2216 1.356 . S
N2223 H2226 0.984 . S
N2223 H2227 0.985 . S
H2224 N2219 0.984 . S
H2225 N2219 0.985 . S
H2226 N2223 0.984 . S
H2227 N2223 0.985 . S
H2228 N2222 0.984 . S
H2229 N2222 0.984 . S
H2230 N2218 0.984 . S
H2231 N2218 0.985 . S
C2232 C2233 1.363 . S
C2232 C2238 1.379 . S
C2232 N2240 1.356 . S
C2233 C2232 1.363 . S
C2233 C2239 1.363 . S
C2234 C2235 1.363 . S
C2234 C2239 1.379 . S
C2234 N2241 1.356 . S
C2235 C2234 1.363 . S
C2235 C2238 1.363 . S
N2236 C2238 1.356 . S
N2236 H2248 0.984 1_545 S
N2236 H2249 0.985 . S
N2237 C2239 1.356 . S
N2237 H2242 0.984 . S
N2237 H2243 0.985 . S
C2238 C2232 1.379 . S
C2238 C2235 1.363 . S
C2238 N2236 1.356 . S
C2239 C2233 1.363 . S
C2239 C2234 1.379 . S
C2239 N2237 1.356 . S
N2240 C2232 1.356 . S
N2240 H2246 0.984 . S
N2240 H2247 0.984 . S
N2241 C2234 1.356 . S
N2241 H2244 0.984 . S
N2241 H2245 0.985 . S
H2242 N2237 0.984 . S
H2243 N2237 0.985 . S
H2244 N2241 0.984 . S
H2245 N2241 0.985 . S
H2246 N2240 0.984 . S
H2247 N2240 0.984 . S
H2248 N2236 0.984 1_565 S
H2249 N2236 0.985 . S
C2250 C2251 1.363 . S
C2250 C2256 1.379 . S
C2250 N2258 1.356 . S
C2251 C2250 1.363 . S
C2251 C2257 1.363 . S
C2252 C2253 1.363 . S
C2252 C2257 1.379 . S
C2252 N2259 1.356 . S
C2253 C2252 1.363 . S
C2253 C2256 1.363 . S
N2254 C2256 1.356 . S
N2254 H2266 0.984 . S
N2254 H2267 0.985 . S
N2255 C2257 1.356 . S
N2255 H2260 0.984 . S
N2255 H2261 0.985 . S
C2256 C2250 1.379 . S
C2256 C2253 1.363 . S
C2256 N2254 1.356 . S
C2257 C2251 1.363 . S
C2257 C2252 1.379 . S
C2257 N2255 1.356 . S
N2258 C2250 1.356 . S
N2258 H2264 0.984 . S
N2258 H2265 0.984 . S
N2259 C2252 1.356 . S
N2259 H2262 0.984 . S
N2259 H2263 0.985 . S
H2260 N2255 0.984 . S
H2261 N2255 0.985 . S
H2262 N2259 0.984 . S
H2263 N2259 0.985 . S
H2264 N2258 0.984 . S
H2265 N2258 0.984 . S
H2266 N2254 0.984 . S
H2267 N2254 0.985 . S
C2268 C2269 1.363 1_565 S
C2268 C2274 1.379 1_565 S
C2268 N2276 1.356 . S
C2269 C2268 1.363 1_545 S
C2269 C2275 1.363 . S
C2270 C2271 1.363 . S
C2270 C2275 1.379 . S
C2270 N2277 1.356 . S
C2271 C2270 1.363 . S
C2271 C2274 1.363 . S
N2272 C2274 1.356 1_565 S
N2272 H2284 0.984 . S
N2272 H2285 0.985 1_565 S
N2273 C2275 1.356 . S
N2273 H2278 0.984 . S
N2273 H2279 0.985 . S
C2274 C2268 1.379 1_545 S
C2274 C2271 1.363 . S
C2274 N2272 1.356 1_545 S
C2275 C2269 1.363 . S
C2275 C2270 1.379 . S
C2275 N2273 1.356 . S
N2276 C2268 1.356 . S
N2276 H2282 0.984 . S
N2276 H2283 0.984 . S
N2277 C2270 1.356 . S
N2277 H2280 0.984 . S
N2277 H2281 0.985 . S
H2278 N2273 0.984 . S
H2279 N2273 0.985 . S
H2280 N2277 0.984 . S
H2281 N2277 0.985 . S
H2282 N2276 0.984 . S
H2283 N2276 0.984 . S
H2284 N2272 0.984 . S
H2285 N2272 0.985 1_545 S
C2286 C2287 1.363 . S
C2286 C2292 1.379 . S
C2286 N2294 1.356 . S
C2287 C2286 1.363 . S
C2287 C2293 1.363 . S
C2288 C2289 1.363 . S
C2288 C2293 1.379 . S
C2288 N2295 1.356 . S
C2289 C2288 1.363 . S
C2289 C2292 1.363 . S
N2290 C2292 1.356 . S
N2290 H2302 0.984 . S
N2290 H2303 0.985 . S
N2291 C2293 1.356 . S
N2291 H2296 0.984 . S
N2291 H2297 0.985 . S
C2292 C2286 1.379 . S
C2292 C2289 1.363 . S
C2292 N2290 1.356 . S
C2293 C2287 1.363 . S
C2293 C2288 1.379 . S
C2293 N2291 1.356 . S
N2294 C2286 1.356 . S
N2294 H2300 0.984 . S
N2294 H2301 0.984 . S
N2295 C2288 1.356 . S
N2295 H2298 0.984 . S
N2295 H2299 0.985 . S
H2296 N2291 0.984 . S
H2297 N2291 0.985 . S
H2298 N2295 0.984 . S
H2299 N2295 0.985 . S
H2300 N2294 0.984 . S
H2301 N2294 0.984 . S
H2302 N2290 0.984 . S
H2303 N2290 0.985 . S
C2304 C2305 1.363 . S
C2304 C2310 1.379 . S
C2304 N2312 1.356 . S
C2305 C2304 1.363 . S
C2305 C2311 1.363 . S
C2306 C2307 1.363 . S
C2306 C2311 1.379 . S
C2306 N2313 1.356 . S
C2307 C2306 1.363 . S
C2307 C2310 1.363 . S
N2308 C2310 1.356 . S
N2308 H2320 0.984 1_545 S
N2308 H2321 0.985 . S
N2309 C2311 1.356 . S
N2309 H2314 0.984 . S
N2309 H2315 0.985 . S
C2310 C2304 1.379 . S
C2310 C2307 1.363 . S
C2310 N2308 1.356 . S
C2311 C2305 1.363 . S
C2311 C2306 1.379 . S
C2311 N2309 1.356 . S
N2312 C2304 1.356 . S
N2312 H2318 0.993 . S
N2312 H2319 0.984 . S
N2313 C2306 1.356 . S
N2313 H2316 0.984 . S
N2313 H2317 0.985 . S
H2314 N2309 0.984 . S
H2315 N2309 0.985 . S
H2316 N2313 0.984 . S
H2317 N2313 0.985 . S
H2318 N2312 0.993 . S
H2319 N2312 0.984 . S
H2320 N2308 0.984 1_565 S
H2321 N2308 0.985 . S
C2322 C2323 1.363 . S
C2322 C2328 1.379 . S
C2322 N2330 1.356 . S
C2323 C2322 1.363 . S
C2323 C2329 1.363 . S
C2324 C2325 1.363 . S
C2324 C2329 1.379 . S
C2324 N2331 1.356 . S
C2325 C2324 1.363 . S
C2325 C2328 1.363 . S
N2326 C2328 1.356 . S
N2326 H2338 0.984 . S
N2326 H2339 0.985 . S
N2327 C2329 1.356 . S
N2327 H2332 0.984 . S
N2327 H2333 0.985 . S
C2328 C2322 1.379 . S
C2328 C2325 1.363 . S
C2328 N2326 1.356 . S
C2329 C2323 1.363 . S
C2329 C2324 1.379 . S
C2329 N2327 1.356 . S
N2330 C2322 1.356 . S
N2330 H2336 0.984 . S
N2330 H2337 0.984 . S
N2331 C2324 1.356 . S
N2331 H2334 0.984 . S
N2331 H2335 0.985 . S
H2332 N2327 0.984 . S
H2333 N2327 0.985 . S
H2334 N2331 0.984 . S
H2335 N2331 0.985 . S
H2336 N2330 0.984 . S
H2337 N2330 0.984 . S
H2338 N2326 0.984 . S
H2339 N2326 0.985 . S
C2340 C2341 1.363 . S
C2340 C2346 1.379 . S
C2340 N2348 1.356 . S
C2341 C2340 1.363 . S
C2341 C2347 1.363 1_545 S
C2342 C2343 1.328 1_565 S
C2342 C2347 1.385 . S
C2342 N2349 1.379 . S
C2343 C2342 1.328 1_545 S
C2343 C2346 1.363 . S
N2344 C2346 1.356 . S
N2344 H2356 0.984 . S
N2344 H2357 0.985 . S
N2345 C2347 1.356 . S
N2345 H2350 0.984 . S
N2345 H2351 0.985 . S
C2346 C2340 1.379 . S
C2346 C2343 1.363 . S
C2346 N2344 1.356 . S
C2347 C2341 1.363 1_565 S
C2347 C2342 1.385 . S
C2347 N2345 1.356 . S
N2348 C2340 1.356 . S
N2348 H2354 0.984 . S
N2348 H2355 0.984 . S
N2349 C2342 1.379 . S
N2349 H2352 0.984 . S
N2349 H2353 0.985 . S
H2350 N2345 0.984 . S
H2351 N2345 0.985 . S
H2352 N2349 0.984 . S
H2353 N2349 0.985 . S
H2354 N2348 0.984 . S
H2355 N2348 0.984 . S
H2356 N2344 0.984 . S
H2357 N2344 0.985 . S
C2358 C2359 1.363 . S
C2358 C2364 1.379 . S
C2358 N2366 1.356 . S
C2359 C2358 1.363 . S
C2359 C2365 1.363 . S
C2360 C2361 1.363 . S
C2360 C2365 1.379 . S
C2360 N2367 1.356 . S
C2361 C2360 1.363 . S
C2361 C2364 1.363 . S
N2362 C2364 1.356 . S
N2362 H2374 0.984 . S
N2362 H2375 0.985 . S
N2363 C2365 1.356 . S
N2363 H2368 0.984 . S
N2363 H2369 0.985 . S
C2364 C2358 1.379 . S
C2364 C2361 1.363 . S
C2364 N2362 1.356 . S
C2365 C2359 1.363 . S
C2365 C2360 1.379 . S
C2365 N2363 1.356 . S
N2366 C2358 1.356 . S
N2366 H2372 0.984 . S
N2366 H2373 0.984 . S
N2367 C2360 1.356 . S
N2367 H2370 0.984 . S
N2367 H2371 0.985 . S
H2368 N2363 0.984 . S
H2369 N2363 0.985 . S
H2370 N2367 0.984 . S
H2371 N2367 0.985 . S
H2372 N2366 0.984 . S
H2373 N2366 0.984 . S
H2374 N2362 0.984 . S
H2375 N2362 0.985 . S
C2376 C2377 1.363 . S
C2376 C2382 1.379 . S
C2376 N2384 1.356 . S
C2377 C2376 1.363 . S
C2377 C2383 1.363 . S
C2378 C2379 1.363 . S
C2378 C2383 1.379 . S
C2378 N2385 1.356 . S
C2379 C2378 1.363 . S
C2379 C2382 1.363 . S
N2380 C2382 1.356 . S
N2380 H2392 0.984 1_554 S
N2380 H2393 0.985 . S
N2381 C2383 1.356 . S
N2381 H2386 0.984 . S
N2381 H2387 0.985 . S
C2382 C2376 1.379 . S
C2382 C2379 1.363 . S
C2382 N2380 1.356 . S
C2383 C2377 1.363 . S
C2383 C2378 1.379 . S
C2383 N2381 1.356 . S
N2384 C2376 1.356 . S
N2384 H2390 0.984 . S
N2384 H2391 0.984 . S
N2385 C2378 1.356 . S
N2385 H2388 0.984 . S
N2385 H2389 0.985 . S
H2386 N2381 0.984 . S
H2387 N2381 0.985 . S
H2388 N2385 0.984 . S
H2389 N2385 0.985 . S
H2390 N2384 0.984 . S
H2391 N2384 0.984 . S
H2392 N2380 0.984 1_556 S
H2393 N2380 0.985 . S
C2394 C2395 1.363 . S
C2394 C2400 1.379 . S
C2394 N2402 1.356 . S
C2395 C2394 1.363 . S
C2395 C2401 1.363 . S
C2396 C2397 1.363 . S
C2396 C2401 1.379 . S
C2396 N2403 1.356 . S
C2397 C2396 1.363 . S
C2397 C2400 1.363 . S
N2398 C2400 1.356 . S
N2398 H2410 0.984 1_554 S
N2398 H2411 0.985 . S
N2399 C2401 1.356 . S
N2399 H2404 0.984 . S
N2399 H2405 0.985 . S
C2400 C2394 1.379 . S
C2400 C2397 1.363 . S
C2400 N2398 1.356 . S
C2401 C2395 1.363 . S
C2401 C2396 1.379 . S
C2401 N2399 1.356 . S
N2402 C2394 1.356 . S
N2402 H2408 0.984 1_554 S
N2402 H2409 0.984 . S
N2403 C2396 1.356 . S
N2403 H2406 0.984 . S
N2403 H2407 0.985 . S
H2404 N2399 0.984 . S
H2405 N2399 0.985 . S
H2406 N2403 0.984 . S
H2407 N2403 0.985 . S
H2408 N2402 0.984 1_556 S
H2409 N2402 0.984 . S
H2410 N2398 0.984 1_556 S
H2411 N2398 0.985 . S
C2412 C2413 1.363 . S
C2412 C2418 1.379 . S
C2412 N2420 1.356 . S
C2413 C2412 1.363 . S
C2413 C2419 1.363 . S
C2414 C2415 1.363 . S
C2414 C2419 1.379 . S
C2414 N2421 1.356 . S
C2415 C2414 1.363 . S
C2415 C2418 1.363 . S
N2416 C2418 1.356 . S
N2416 H2428 0.984 . S
N2416 H2429 0.985 . S
N2417 C2419 1.356 . S
N2417 H2422 0.984 . S
N2417 H2423 0.985 . S
C2418 C2412 1.379 . S
C2418 C2415 1.363 . S
C2418 N2416 1.356 . S
C2419 C2413 1.363 . S
C2419 C2414 1.379 . S
C2419 N2417 1.356 . S
N2420 C2412 1.356 . S
N2420 H2426 0.984 . S
N2420 H2427 0.984 . S
N2421 C2414 1.356 . S
N2421 H2424 0.984 . S
N2421 H2425 0.985 . S
H2422 N2417 0.984 . S
H2423 N2417 0.985 . S
H2424 N2421 0.984 . S
H2425 N2421 0.985 . S
H2426 N2420 0.984 . S
H2427 N2420 0.984 . S
H2428 N2416 0.984 . S
H2429 N2416 0.985 . S
C2430 C2431 1.363 . S
C2430 C2436 1.379 . S
C2430 N2438 1.356 . S
C2431 C2430 1.363 . S
C2431 C2437 1.363 . S
C2432 C2433 1.363 . S
C2432 C2437 1.379 . S
C2432 N2439 1.356 . S
C2433 C2432 1.363 . S
C2433 C2436 1.363 . S
N2434 C2436 1.356 . S
N2434 H2446 0.984 . S
N2434 H2447 0.985 . S
N2435 C2437 1.356 . S
N2435 H2440 0.984 . S
N2435 H2441 0.985 . S
C2436 C2430 1.379 . S
C2436 C2433 1.363 . S
C2436 N2434 1.356 . S
C2437 C2431 1.363 . S
C2437 C2432 1.379 . S
C2437 N2435 1.356 . S
N2438 C2430 1.356 . S
N2438 H2444 0.984 . S
N2438 H2445 0.984 . S
N2439 C2432 1.356 . S
N2439 H2442 0.984 . S
N2439 H2443 0.985 . S
H2440 N2435 0.984 . S
H2441 N2435 0.985 . S
H2442 N2439 0.984 . S
H2443 N2439 0.985 . S
H2444 N2438 0.984 . S
H2445 N2438 0.984 . S
H2446 N2434 0.984 . S
H2447 N2434 0.985 . S
C2448 C2449 1.363 . S
C2448 C2454 1.379 1_545 S
C2448 N2456 1.356 . S
C2449 C2448 1.363 . S
C2449 C2455 1.363 1_545 S
C2450 C2451 1.363 . S
C2450 C2455 1.379 . S
C2450 N2457 1.356 . S
C2451 C2450 1.363 . S
C2451 C2454 1.363 . S
N2452 C2454 1.356 . S
N2452 H2464 0.984 1_565 S
N2452 H2465 0.985 . S
N2453 C2455 1.356 . S
N2453 H2458 0.984 . S
N2453 H2459 0.985 . S
C2454 C2448 1.379 1_565 S
C2454 C2451 1.363 . S
C2454 N2452 1.356 . S
C2455 C2449 1.363 1_565 S
C2455 C2450 1.379 . S
C2455 N2453 1.356 . S
N2456 C2448 1.356 . S
N2456 H2462 0.984 . S
N2456 H2463 0.984 . S
N2457 C2450 1.356 . S
N2457 H2460 0.984 . S
N2457 H2461 0.985 . S
H2458 N2453 0.984 . S
H2459 N2453 0.985 . S
H2460 N2457 0.984 . S
H2461 N2457 0.985 . S
H2462 N2456 0.984 . S
H2463 N2456 0.984 . S
H2464 N2452 0.984 1_545 S
H2465 N2452 0.985 . S
C2466 C2467 1.363 . S
C2466 C2472 1.379 . S
C2466 N2474 1.356 . S
C2467 C2466 1.363 . S
C2467 C2473 1.363 . S
C2468 C2469 1.363 . S
C2468 C2473 1.379 . S
C2468 N2475 1.356 . S
C2469 C2468 1.363 . S
C2469 C2472 1.363 . S
N2470 C2472 1.356 . S
N2470 H2482 0.984 . S
N2470 H2483 0.985 . S
N2471 C2473 1.356 . S
N2471 H2476 0.984 . S
N2471 H2477 0.985 . S
C2472 C2466 1.379 . S
C2472 C2469 1.363 . S
C2472 N2470 1.356 . S
C2473 C2467 1.363 . S
C2473 C2468 1.379 . S
C2473 N2471 1.356 . S
N2474 C2466 1.356 . S
N2474 H2480 0.984 . S
N2474 H2481 0.984 . S
N2475 C2468 1.356 . S
N2475 H2478 0.984 . S
N2475 H2479 0.985 . S
H2476 N2471 0.984 . S
H2477 N2471 0.985 . S
H2478 N2475 0.984 . S
H2479 N2475 0.985 . S
H2480 N2474 0.984 . S
H2481 N2474 0.984 . S
H2482 N2470 0.984 . S
H2483 N2470 0.985 . S
C2484 C2485 1.363 . S
C2484 C2490 1.379 . S
C2484 N2492 1.356 . S
C2485 C2484 1.363 . S
C2485 C2491 1.363 . S
C2486 C2487 1.363 . S
C2486 C2491 1.379 . S
C2486 N2493 1.356 . S
C2487 C2486 1.363 . S
C2487 C2490 1.363 . S
N2488 C2490 1.356 . S
N2488 H2500 0.984 . S
N2488 H2501 0.985 . S
N2489 C2491 1.356 . S
N2489 H2494 0.984 . S
N2489 H2495 0.985 . S
C2490 C2484 1.379 . S
C2490 C2487 1.363 . S
C2490 N2488 1.356 . S
C2491 C2485 1.363 . S
C2491 C2486 1.379 . S
C2491 N2489 1.356 . S
N2492 C2484 1.356 . S
N2492 H2498 0.984 . S
N2492 H2499 0.984 . S
N2493 C2486 1.356 . S
N2493 H2496 0.984 . S
N2493 H2497 0.985 . S
H2494 N2489 0.984 . S
H2495 N2489 0.985 . S
H2496 N2493 0.984 . S
H2497 N2493 0.985 . S
H2498 N2492 0.984 . S
H2499 N2492 0.984 . S
H2500 N2488 0.984 . S
H2501 N2488 0.985 . S
C2502 C2503 1.363 . S
C2502 C2508 1.379 . S
C2502 N2510 1.356 . S
C2503 C2502 1.363 . S
C2503 C2509 1.363 . S
C2504 C2505 1.363 . S
C2504 C2509 1.379 . S
C2504 N2511 1.356 . S
C2505 C2504 1.363 . S
C2505 C2508 1.363 . S
N2506 C2508 1.356 . S
N2506 H2518 0.984 . S
N2506 H2519 0.985 . S
N2507 C2509 1.356 . S
N2507 H2512 0.984 . S
N2507 H2513 0.985 . S
C2508 C2502 1.379 . S
C2508 C2505 1.363 . S
C2508 N2506 1.356 . S
C2509 C2503 1.363 . S
C2509 C2504 1.379 . S
C2509 N2507 1.356 . S
N2510 C2502 1.356 . S
N2510 H2516 0.984 . S
N2510 H2517 0.984 . S
N2511 C2504 1.356 . S
N2511 H2514 0.984 . S
N2511 H2515 0.985 . S
H2512 N2507 0.984 . S
H2513 N2507 0.985 . S
H2514 N2511 0.984 . S
H2515 N2511 0.985 . S
H2516 N2510 0.984 . S
H2517 N2510 0.984 . S
H2518 N2506 0.984 . S
H2519 N2506 0.985 . S
C2520 C2521 1.363 . S
C2520 C2526 1.379 . S
C2520 N2528 1.356 . S
C2521 C2520 1.363 . S
C2521 C2527 1.363 . S
C2522 C2523 1.363 . S
C2522 C2527 1.379 . S
C2522 N2529 1.356 . S
C2523 C2522 1.363 . S
C2523 C2526 1.363 . S
N2524 C2526 1.356 . S
N2524 H2536 0.984 . S
N2524 H2537 0.985 . S
N2525 C2527 1.356 . S
N2525 H2530 0.984 . S
N2525 H2531 0.985 . S
C2526 C2520 1.379 . S
C2526 C2523 1.363 . S
C2526 N2524 1.356 . S
C2527 C2521 1.363 . S
C2527 C2522 1.379 . S
C2527 N2525 1.356 . S
N2528 C2520 1.356 . S
N2528 H2534 0.984 . S
N2528 H2535 0.984 . S
N2529 C2522 1.356 . S
N2529 H2532 0.984 . S
N2529 H2533 0.985 . S
H2530 N2525 0.984 . S
H2531 N2525 0.985 . S
H2532 N2529 0.984 . S
H2533 N2529 0.985 . S
H2534 N2528 0.984 . S
H2535 N2528 0.984 . S
H2536 N2524 0.984 . S
H2537 N2524 0.985 . S
C2538 C2539 1.363 . S
C2538 C2544 1.379 . S
C2538 N2546 1.356 . S
C2539 C2538 1.363 . S
C2539 C2545 1.363 . S
C2540 C2541 1.363 . S
C2540 C2545 1.379 . S
C2540 N2547 1.356 . S
C2541 C2540 1.363 . S
C2541 C2544 1.363 . S
N2542 C2544 1.356 . S
N2542 H2554 0.984 . S
N2542 H2555 0.985 . S
N2543 C2545 1.356 . S
N2543 H2548 0.984 . S
N2543 H2549 0.985 . S
C2544 C2538 1.379 . S
C2544 C2541 1.363 . S
C2544 N2542 1.356 . S
C2545 C2539 1.363 . S
C2545 C2540 1.379 . S
C2545 N2543 1.356 . S
N2546 C2538 1.356 . S
N2546 H2552 0.984 . S
N2546 H2553 0.984 . S
N2547 C2540 1.356 . S
N2547 H2550 0.984 . S
N2547 H2551 0.985 . S
H2548 N2543 0.984 . S
H2549 N2543 0.985 . S
H2550 N2547 0.984 . S
H2551 N2547 0.985 . S
H2552 N2546 0.984 . S
H2553 N2546 0.984 . S
H2554 N2542 0.984 . S
H2555 N2542 0.985 . S
C2556 C2557 1.363 1_655 S
C2556 C2562 1.379 . S
C2556 N2564 1.356 1_554 S
C2557 C2556 1.363 1_455 S
C2557 C2563 1.363 . S
C2558 C2559 1.363 . S
C2558 C2563 1.379 . S
C2558 N2565 1.356 . S
C2559 C2558 1.363 . S
C2559 C2562 1.363 1_455 S
N2560 C2562 1.356 . S
N2560 H2572 0.984 . S
N2560 H2573 0.985 . S
N2561 C2563 1.356 . S
N2561 H2566 0.984 . S
N2561 H2567 0.985 . S
C2562 C2556 1.379 . S
C2562 C2559 1.363 1_655 S
C2562 N2560 1.356 . S
C2563 C2557 1.363 . S
C2563 C2558 1.379 . S
C2563 N2561 1.356 . S
N2564 C2556 1.356 1_556 S
N2564 H2570 0.984 . S
N2564 H2571 0.984 . S
N2565 C2558 1.356 . S
N2565 H2568 0.984 . S
N2565 H2569 0.985 . S
H2566 N2561 0.984 . S
H2567 N2561 0.985 . S
H2568 N2565 0.984 . S
H2569 N2565 0.985 . S
H2570 N2564 0.984 . S
H2571 N2564 0.984 . S
H2572 N2560 0.984 . S
H2573 N2560 0.985 . S
C2574 C2575 1.376 . S
C2574 C2580 1.379 . S
C2574 N2582 1.356 . S
C2575 C2574 1.376 . S
C2575 C2581 1.367 1_655 S
C2576 C2577 1.363 . S
C2576 C2581 1.379 1_655 S
C2576 N2583 1.356 . S
C2577 C2576 1.363 . S
C2577 C2580 1.363 . S
N2578 C2580 1.356 . S
N2578 H2590 0.984 . S
N2578 H2591 0.985 . S
N2579 C2581 1.356 . S
N2579 H2584 0.984 . S
N2579 H2585 0.985 . S
C2580 C2574 1.379 . S
C2580 C2577 1.363 . S
C2580 N2578 1.356 . S
C2581 C2575 1.367 1_455 S
C2581 C2576 1.379 1_455 S
C2581 N2579 1.356 . S
N2582 C2574 1.356 . S
N2582 H2588 0.984 . S
N2582 H2589 0.984 . S
N2583 C2576 1.356 . S
N2583 H2586 0.984 . S
N2583 H2587 0.985 . S
H2584 N2579 0.984 . S
H2585 N2579 0.985 . S
H2586 N2583 0.984 . S
H2587 N2583 0.985 . S
H2588 N2582 0.984 . S
H2589 N2582 0.984 . S
H2590 N2578 0.984 . S
H2591 N2578 0.985 . S
C2592 C2593 1.363 . S
C2592 C2598 1.379 . S
C2592 N2600 1.356 . S
C2593 C2592 1.363 . S
C2593 C2599 1.363 . S
C2594 C2595 1.363 . S
C2594 C2599 1.379 . S
C2594 N2601 1.356 . S
C2595 C2594 1.363 . S
C2595 C2598 1.363 . S
N2596 C2598 1.356 . S
N2596 H2608 0.984 . S
N2596 H2609 0.985 . S
N2597 C2599 1.356 . S
N2597 H2602 0.984 . S
N2597 H2603 0.985 . S
C2598 C2592 1.379 . S
C2598 C2595 1.363 . S
C2598 N2596 1.356 . S
C2599 C2593 1.363 . S
C2599 C2594 1.379 . S
C2599 N2597 1.356 . S
N2600 C2592 1.356 . S
N2600 H2606 0.984 . S
N2600 H2607 0.984 . S
N2601 C2594 1.356 . S
N2601 H2604 0.984 . S
N2601 H2605 0.985 . S
H2602 N2597 0.984 . S
H2603 N2597 0.985 . S
H2604 N2601 0.984 . S
H2605 N2601 0.985 . S
H2606 N2600 0.984 . S
H2607 N2600 0.984 . S
H2608 N2596 0.984 . S
H2609 N2596 0.985 . S
C2610 C2611 1.363 . S
C2610 C2616 1.379 . S
C2610 N2618 1.356 . S
C2611 C2610 1.363 . S
C2611 C2617 1.363 . S
C2612 C2613 1.363 . S
C2612 C2617 1.379 . S
C2612 N2619 1.356 . S
C2613 C2612 1.363 . S
C2613 C2616 1.363 . S
N2614 C2616 1.356 . S
N2614 H2626 0.984 . S
N2614 H2627 0.985 . S
N2615 C2617 1.356 . S
N2615 H2620 0.984 . S
N2615 H2621 0.985 . S
C2616 C2610 1.379 . S
C2616 C2613 1.363 . S
C2616 N2614 1.356 . S
C2617 C2611 1.363 . S
C2617 C2612 1.379 . S
C2617 N2615 1.356 . S
N2618 C2610 1.356 . S
N2618 H2624 0.984 . S
N2618 H2625 0.984 . S
N2619 C2612 1.356 . S
N2619 H2622 0.984 . S
N2619 H2623 0.985 . S
H2620 N2615 0.984 . S
H2621 N2615 0.985 . S
H2622 N2619 0.984 . S
H2623 N2619 0.985 . S
H2624 N2618 0.984 . S
H2625 N2618 0.984 . S
H2626 N2614 0.984 . S
H2627 N2614 0.985 . S
C2628 C2629 1.363 1_655 S
C2628 C2634 1.379 . S
C2628 N2636 1.356 . S
C2629 C2628 1.363 1_455 S
C2629 C2635 1.363 . S
C2630 C2631 1.363 . S
C2630 C2635 1.379 . S
C2630 N2637 1.356 . S
C2631 C2630 1.363 . S
C2631 C2634 1.363 1_455 S
N2632 C2634 1.356 . S
N2632 H2644 0.984 . S
N2632 H2645 0.985 . S
N2633 C2635 1.356 . S
N2633 H2638 0.984 . S
N2633 H2639 0.985 . S
C2634 C2628 1.379 . S
C2634 C2631 1.363 1_655 S
C2634 N2632 1.356 . S
C2635 C2629 1.363 . S
C2635 C2630 1.379 . S
C2635 N2633 1.356 . S
N2636 C2628 1.356 . S
N2636 H2642 0.984 . S
N2636 H2643 0.984 . S
N2637 C2630 1.356 . S
N2637 H2640 0.984 . S
N2637 H2641 0.985 . S
H2638 N2633 0.984 . S
H2639 N2633 0.985 . S
H2640 N2637 0.984 . S
H2641 N2637 0.985 . S
H2642 N2636 0.984 . S
H2643 N2636 0.984 . S
H2644 N2632 0.984 . S
H2645 N2632 0.985 . S
C2646 C2647 1.363 . S
C2646 C2652 1.379 . S
C2646 N2654 1.356 . S
C2647 C2646 1.363 . S
C2647 C2653 1.363 . S
C2648 C2649 1.363 . S
C2648 C2653 1.379 . S
C2648 N2655 1.356 . S
C2649 C2648 1.363 . S
C2649 C2652 1.363 . S
N2650 C2652 1.356 . S
N2650 H2662 0.984 . S
N2650 H2663 0.985 . S
N2651 C2653 1.356 . S
N2651 H2656 0.984 . S
N2651 H2657 0.985 . S
C2652 C2646 1.379 . S
C2652 C2649 1.363 . S
C2652 N2650 1.356 . S
C2653 C2647 1.363 . S
C2653 C2648 1.379 . S
C2653 N2651 1.356 . S
N2654 C2646 1.356 . S
N2654 H2660 0.984 . S
N2654 H2661 0.984 . S
N2655 C2648 1.356 . S
N2655 H2658 0.984 . S
N2655 H2659 0.985 . S
H2656 N2651 0.984 . S
H2657 N2651 0.985 . S
H2658 N2655 0.984 . S
H2659 N2655 0.985 . S
H2660 N2654 0.984 . S
H2661 N2654 0.984 . S
H2662 N2650 0.984 . S
H2663 N2650 0.985 . S
C2664 C2665 1.363 . S
C2664 C2670 1.379 . S
C2664 N2672 1.356 . S
C2665 C2664 1.363 . S
C2665 C2671 1.363 . S
C2666 C2667 1.363 . S
C2666 C2671 1.379 . S
C2666 N2673 1.356 . S
C2667 C2666 1.363 . S
C2667 C2670 1.363 . S
N2668 C2670 1.356 . S
N2668 H2680 0.984 . S
N2668 H2681 0.985 . S
N2669 C2671 1.356 . S
N2669 H2674 0.984 . S
N2669 H2675 0.985 . S
C2670 C2664 1.379 . S
C2670 C2667 1.363 . S
C2670 N2668 1.356 . S
C2671 C2665 1.363 . S
C2671 C2666 1.379 . S
C2671 N2669 1.356 . S
N2672 C2664 1.356 . S
N2672 H2678 0.984 . S
N2672 H2679 0.984 . S
N2673 C2666 1.356 . S
N2673 H2676 0.984 . S
N2673 H2677 0.985 . S
H2674 N2669 0.984 . S
H2675 N2669 0.985 . S
H2676 N2673 0.984 . S
H2677 N2673 0.985 . S
H2678 N2672 0.984 . S
H2679 N2672 0.984 . S
H2680 N2668 0.984 . S
H2681 N2668 0.985 . S
C2682 C2683 1.363 . S
C2682 C2688 1.379 . S
C2682 N2690 1.356 . S
C2683 C2682 1.363 . S
C2683 C2689 1.363 1_554 S
C2684 C2685 1.363 . S
C2684 C2689 1.379 . S
C2684 N2691 1.356 . S
C2685 C2684 1.363 . S
C2685 C2688 1.363 1_556 S
N2686 C2688 1.356 . S
N2686 H2698 0.984 . S
N2686 H2699 0.985 1_554 S
N2687 C2689 1.356 . S
N2687 H2692 0.984 . S
N2687 H2693 0.985 . S
C2688 C2682 1.379 . S
C2688 C2685 1.363 1_554 S
C2688 N2686 1.356 . S
C2689 C2683 1.363 1_556 S
C2689 C2684 1.379 . S
C2689 N2687 1.356 . S
N2690 C2682 1.356 . S
N2690 H2696 0.984 . S
N2690 H2697 0.984 . S
N2691 C2684 1.356 . S
N2691 H2694 0.984 . S
N2691 H2695 0.985 . S
H2692 N2687 0.984 . S
H2693 N2687 0.985 . S
H2694 N2691 0.984 . S
H2695 N2691 0.985 . S
H2696 N2690 0.984 . S
H2697 N2690 0.984 . S
H2698 N2686 0.984 . S
H2699 N2686 0.985 1_556 S
C2700 C2701 1.363 . S
C2700 C2706 1.379 . S
C2700 N2708 1.356 . S
C2701 C2700 1.363 . S
C2701 C2707 1.363 . S
C2702 C2703 1.363 . S
C2702 C2707 1.379 . S
C2702 N2709 1.356 . S
C2703 C2702 1.363 . S
C2703 C2706 1.363 . S
N2704 C2706 1.356 . S
N2704 H2716 0.984 . S
N2704 H2717 0.985 . S
N2705 C2707 1.356 . S
N2705 H2710 0.984 . S
N2705 H2711 0.985 . S
C2706 C2700 1.379 . S
C2706 C2703 1.363 . S
C2706 N2704 1.356 . S
C2707 C2701 1.363 . S
C2707 C2702 1.379 . S
C2707 N2705 1.356 . S
N2708 C2700 1.356 . S
N2708 H2714 0.984 . S
N2708 H2715 0.984 . S
N2709 C2702 1.356 . S
N2709 H2712 0.984 . S
N2709 H2713 0.985 . S
H2710 N2705 0.984 . S
H2711 N2705 0.985 . S
H2712 N2709 0.984 . S
H2713 N2709 0.985 . S
H2714 N2708 0.984 . S
H2715 N2708 0.984 . S
H2716 N2704 0.984 . S
H2717 N2704 0.985 . S
C2718 C2719 1.363 . S
C2718 C2724 1.379 . S
C2718 N2726 1.356 . S
C2719 C2718 1.363 . S
C2719 C2725 1.363 . S
C2720 C2721 1.363 . S
C2720 C2725 1.379 . S
C2720 N2727 1.356 . S
C2721 C2720 1.363 . S
C2721 C2724 1.363 . S
N2722 C2724 1.356 . S
N2722 H2734 0.984 . S
N2722 H2735 0.985 . S
N2723 C2725 1.356 . S
N2723 H2728 0.984 . S
N2723 H2729 0.985 . S
C2724 C2718 1.379 . S
C2724 C2721 1.363 . S
C2724 N2722 1.356 . S
C2725 C2719 1.363 . S
C2725 C2720 1.379 . S
C2725 N2723 1.356 . S
N2726 C2718 1.356 . S
N2726 H2732 0.984 . S
N2726 H2733 0.984 . S
N2727 C2720 1.356 . S
N2727 H2730 0.984 . S
N2727 H2731 0.985 . S
H2728 N2723 0.984 . S
H2729 N2723 0.985 . S
H2730 N2727 0.984 . S
H2731 N2727 0.985 . S
H2732 N2726 0.984 . S
H2733 N2726 0.984 . S
H2734 N2722 0.984 . S
H2735 N2722 0.985 . S
C2736 C2737 1.363 . S
C2736 C2742 1.379 . S
C2736 N2744 1.356 . S
C2737 C2736 1.363 . S
C2737 C2743 1.363 . S
C2738 C2739 1.363 . S
C2738 C2743 1.379 . S
C2738 N2745 1.356 . S
C2739 C2738 1.363 . S
C2739 C2742 1.363 . S
N2740 C2742 1.356 . S
N2740 H2752 0.984 . S
N2740 H2753 0.985 . S
N2741 C2743 1.356 . S
N2741 H2746 0.984 . S
N2741 H2747 0.985 . S
C2742 C2736 1.379 . S
C2742 C2739 1.363 . S
C2742 N2740 1.356 . S
C2743 C2737 1.363 . S
C2743 C2738 1.379 . S
C2743 N2741 1.356 . S
N2744 C2736 1.356 . S
N2744 H2750 0.984 . S
N2744 H2751 0.984 . S
N2745 C2738 1.356 . S
N2745 H2748 0.984 . S
N2745 H2749 0.985 . S
H2746 N2741 0.984 . S
H2747 N2741 0.985 . S
H2748 N2745 0.984 . S
H2749 N2745 0.985 . S
H2750 N2744 0.984 . S
H2751 N2744 0.984 . S
H2752 N2740 0.984 . S
H2753 N2740 0.985 . S
C2754 C2755 1.363 . S
C2754 C2760 1.379 . S
C2754 N2762 1.356 . S
C2755 C2754 1.363 . S
C2755 C2761 1.363 . S
C2756 C2757 1.363 . S
C2756 C2761 1.379 . S
C2756 N2763 1.356 . S
C2757 C2756 1.363 . S
C2757 C2760 1.363 . S
N2758 C2760 1.356 . S
N2758 H2770 0.984 . S
N2758 H2771 0.985 . S
N2759 C2761 1.356 . S
N2759 H2764 0.984 . S
N2759 H2765 0.985 . S
C2760 C2754 1.379 . S
C2760 C2757 1.363 . S
C2760 N2758 1.356 . S
C2761 C2755 1.363 . S
C2761 C2756 1.379 . S
C2761 N2759 1.356 . S
N2762 C2754 1.356 . S
N2762 H2768 0.984 . S
N2762 H2769 0.984 . S
N2763 C2756 1.356 . S
N2763 H2766 0.984 . S
N2763 H2767 0.985 . S
H2764 N2759 0.984 . S
H2765 N2759 0.985 . S
H2766 N2763 0.984 . S
H2767 N2763 0.985 . S
H2768 N2762 0.984 . S
H2769 N2762 0.984 . S
H2770 N2758 0.984 . S
H2771 N2758 0.985 . S
C2772 C2773 1.363 . S
C2772 C2778 1.379 . S
C2772 N2780 1.356 . S
C2773 C2772 1.363 . S
C2773 C2779 1.363 . S
C2774 C2775 1.363 . S
C2774 C2779 1.379 . S
C2774 N2781 1.356 . S
C2775 C2774 1.363 . S
C2775 C2778 1.363 . S
N2776 C2778 1.356 . S
N2776 H2788 0.984 . S
N2776 H2789 0.985 . S
N2777 C2779 1.356 . S
N2777 H2782 0.984 . S
N2777 H2783 0.985 . S
C2778 C2772 1.379 . S
C2778 C2775 1.363 . S
C2778 N2776 1.356 . S
C2779 C2773 1.363 . S
C2779 C2774 1.379 . S
C2779 N2777 1.356 . S
N2780 C2772 1.356 . S
N2780 H2786 0.984 . S
N2780 H2787 0.984 . S
N2781 C2774 1.356 . S
N2781 H2784 0.984 . S
N2781 H2785 0.985 . S
H2782 N2777 0.984 . S
H2783 N2777 0.985 . S
H2784 N2781 0.984 . S
H2785 N2781 0.985 . S
H2786 N2780 0.984 . S
H2787 N2780 0.984 . S
H2788 N2776 0.984 . S
H2789 N2776 0.985 . S
C2790 C2791 1.363 . S
C2790 C2796 1.379 . S
C2790 N2798 1.356 . S
C2791 C2790 1.363 . S
C2791 C2797 1.363 . S
C2792 C2793 1.363 . S
C2792 C2797 1.379 . S
C2792 N2799 1.356 . S
C2793 C2792 1.363 . S
C2793 C2796 1.363 . S
N2794 C2796 1.356 . S
N2794 H2806 0.984 . S
N2794 H2807 0.985 . S
N2795 C2797 1.356 . S
N2795 H2800 0.984 . S
N2795 H2801 0.985 . S
C2796 C2790 1.379 . S
C2796 C2793 1.363 . S
C2796 N2794 1.356 . S
C2797 C2791 1.363 . S
C2797 C2792 1.379 . S
C2797 N2795 1.356 . S
N2798 C2790 1.356 . S
N2798 H2804 0.984 . S
N2798 H2805 0.984 . S
N2799 C2792 1.356 . S
N2799 H2802 0.984 . S
N2799 H2803 0.985 . S
H2800 N2795 0.984 . S
H2801 N2795 0.985 . S
H2802 N2799 0.984 . S
H2803 N2799 0.985 . S
H2804 N2798 0.984 . S
H2805 N2798 0.984 . S
H2806 N2794 0.984 . S
H2807 N2794 0.985 . S
C2808 C2809 1.363 . S
C2808 C2814 1.379 . S
C2808 N2816 1.356 . S
C2809 C2808 1.363 . S
C2809 C2815 1.363 . S
C2810 C2811 1.363 . S
C2810 C2815 1.379 . S
C2810 N2817 1.356 . S
C2811 C2810 1.363 . S
C2811 C2814 1.363 . S
N2812 C2814 1.356 . S
N2812 H2824 0.984 . S
N2812 H2825 0.985 . S
N2813 C2815 1.356 . S
N2813 H2818 0.984 . S
N2813 H2819 0.985 . S
C2814 C2808 1.379 . S
C2814 C2811 1.363 . S
C2814 N2812 1.356 . S
C2815 C2809 1.363 . S
C2815 C2810 1.379 . S
C2815 N2813 1.356 . S
N2816 C2808 1.356 . S
N2816 H2822 0.984 . S
N2816 H2823 0.984 . S
N2817 C2810 1.356 . S
N2817 H2820 0.984 . S
N2817 H2821 0.985 . S
H2818 N2813 0.984 . S
H2819 N2813 0.985 . S
H2820 N2817 0.984 . S
H2821 N2817 0.985 . S
H2822 N2816 0.984 . S
H2823 N2816 0.984 . S
H2824 N2812 0.984 . S
H2825 N2812 0.985 . S
C2826 C2827 1.363 . S
C2826 C2832 1.379 . S
C2826 N2834 1.356 . S
C2827 C2826 1.363 . S
C2827 C2833 1.363 . S
C2828 C2829 1.363 . S
C2828 C2833 1.379 . S
C2828 N2835 1.356 . S
C2829 C2828 1.363 . S
C2829 C2832 1.363 . S
N2830 C2832 1.356 . S
N2830 H2842 0.984 . S
N2830 H2843 0.985 . S
N2831 C2833 1.356 . S
N2831 H2836 0.984 . S
N2831 H2837 0.985 . S
C2832 C2826 1.379 . S
C2832 C2829 1.363 . S
C2832 N2830 1.356 . S
C2833 C2827 1.363 . S
C2833 C2828 1.379 . S
C2833 N2831 1.356 . S
N2834 C2826 1.356 . S
N2834 H2840 0.984 . S
N2834 H2841 0.984 . S
N2835 C2828 1.356 . S
N2835 H2838 0.984 . S
N2835 H2839 0.985 . S
H2836 N2831 0.984 . S
H2837 N2831 0.985 . S
H2838 N2835 0.984 . S
H2839 N2835 0.985 . S
H2840 N2834 0.984 . S
H2841 N2834 0.984 . S
H2842 N2830 0.984 . S
H2843 N2830 0.985 . S
C2844 C2845 1.363 1_545 S
C2844 C2850 1.379 1_545 S
C2844 N2852 1.356 . S
C2845 C2844 1.363 1_565 S
C2845 C2851 1.363 . S
C2846 C2847 1.363 . S
C2846 C2851 1.379 . S
C2846 N2853 1.356 . S
C2847 C2846 1.363 . S
C2847 C2850 1.363 . S
N2848 C2850 1.357 . S
N2848 H2860 0.954 1_565 S
N2848 H2861 1.015 . S
N2849 C2851 1.356 . S
N2849 H2854 0.984 . S
N2849 H2855 0.985 . S
C2850 C2844 1.379 1_565 S
C2850 C2847 1.363 . S
C2850 N2848 1.357 . S
C2851 C2845 1.363 . S
C2851 C2846 1.379 . S
C2851 N2849 1.356 . S
N2852 C2844 1.356 . S
N2852 H2858 0.984 . S
N2852 H2859 0.984 . S
N2853 C2846 1.356 . S
N2853 H2856 0.984 . S
N2853 H2857 0.985 . S
H2854 N2849 0.984 . S
H2855 N2849 0.985 . S
H2856 N2853 0.984 . S
H2857 N2853 0.985 . S
H2858 N2852 0.984 . S
H2859 N2852 0.984 . S
H2860 N2848 0.954 1_545 S
H2861 N2848 1.015 . S
C2862 C2863 1.363 1_556 S
C2862 C2868 1.379 1_565 S
C2862 N2870 1.356 . S
C2863 C2862 1.363 1_554 S
C2863 C2869 1.381 . S
C2864 C2865 1.363 . S
C2864 C2869 1.359 1_545 S
C2864 N2871 1.356 . S
C2865 C2864 1.363 . S
C2865 C2868 1.363 1_554 S
N2866 C2868 1.356 . S
N2866 H2878 0.984 . S
N2866 H2879 0.985 . S
N2867 C2869 1.366 . S
N2867 H2872 0.984 . S
N2867 H2873 0.985 . S
C2868 C2862 1.379 1_545 S
C2868 C2865 1.363 1_556 S
C2868 N2866 1.356 . S
C2869 C2863 1.381 . S
C2869 C2864 1.359 1_565 S
C2869 N2867 1.366 . S
N2870 C2862 1.356 . S
N2870 H2876 0.984 . S
N2870 H2877 0.984 . S
N2871 C2864 1.356 . S
N2871 H2874 0.984 . S
N2871 H2875 0.985 . S
H2872 N2867 0.984 . S
H2873 N2867 0.985 . S
H2874 N2871 0.984 . S
H2875 N2871 0.985 . S
H2876 N2870 0.984 . S
H2877 N2870 0.984 . S
H2878 N2866 0.984 . S
H2879 N2866 0.985 . S
C2880 C2881 1.363 . S
C2880 C2886 1.379 . S
C2880 N2888 1.356 . S
C2881 C2880 1.363 . S
C2881 C2887 1.363 . S
C2882 C2883 1.363 . S
C2882 C2887 1.379 . S
C2882 N2889 1.356 . S
C2883 C2882 1.363 . S
C2883 C2886 1.363 . S
N2884 C2886 1.356 . S
N2884 H2896 0.984 . S
N2884 H2897 0.985 . S
N2885 C2887 1.356 . S
N2885 H2890 0.984 . S
N2885 H2891 0.985 . S
C2886 C2880 1.379 . S
C2886 C2883 1.363 . S
C2886 N2884 1.356 . S
C2887 C2881 1.363 . S
C2887 C2882 1.379 . S
C2887 N2885 1.356 . S
N2888 C2880 1.356 . S
N2888 H2894 0.984 . S
N2888 H2895 0.984 . S
N2889 C2882 1.356 . S
N2889 H2892 0.984 . S
N2889 H2893 0.985 . S
H2890 N2885 0.984 . S
H2891 N2885 0.985 . S
H2892 N2889 0.984 . S
H2893 N2889 0.985 . S
H2894 N2888 0.984 . S
H2895 N2888 0.984 . S
H2896 N2884 0.984 . S
H2897 N2884 0.985 . S
C2898 C2899 1.363 . S
C2898 C2904 1.379 . S
C2898 N2906 1.356 . S
C2899 C2898 1.363 . S
C2899 C2905 1.363 . S
C2900 C2901 1.363 . S
C2900 C2905 1.379 . S
C2900 N2907 1.356 . S
C2901 C2900 1.363 . S
C2901 C2904 1.363 . S
N2902 C2904 1.356 . S
N2902 H2914 0.984 . S
N2902 H2915 0.985 . S
N2903 C2905 1.356 . S
N2903 H2908 0.984 . S
N2903 H2909 0.985 . S
C2904 C2898 1.379 . S
C2904 C2901 1.363 . S
C2904 N2902 1.356 . S
C2905 C2899 1.363 . S
C2905 C2900 1.379 . S
C2905 N2903 1.356 . S
N2906 C2898 1.356 . S
N2906 H2912 0.984 . S
N2906 H2913 0.984 . S
N2907 C2900 1.356 . S
N2907 H2910 0.984 . S
N2907 H2911 0.985 . S
H2908 N2903 0.984 . S
H2909 N2903 0.985 . S
H2910 N2907 0.984 . S
H2911 N2907 0.985 . S
H2912 N2906 0.984 . S
H2913 N2906 0.984 . S
H2914 N2902 0.984 . S
H2915 N2902 0.985 . S
C2916 C2917 1.363 . S
C2916 C2922 1.379 . S
C2916 N2924 1.356 . S
C2917 C2916 1.363 . S
C2917 C2923 1.363 . S
C2918 C2919 1.363 . S
C2918 C2923 1.379 . S
C2918 N2925 1.356 . S
C2919 C2918 1.363 . S
C2919 C2922 1.363 . S
N2920 C2922 1.356 . S
N2920 H2932 0.984 . S
N2920 H2933 0.985 . S
N2921 C2923 1.356 . S
N2921 H2926 0.984 . S
N2921 H2927 0.985 . S
C2922 C2916 1.379 . S
C2922 C2919 1.363 . S
C2922 N2920 1.356 . S
C2923 C2917 1.363 . S
C2923 C2918 1.379 . S
C2923 N2921 1.356 . S
N2924 C2916 1.356 . S
N2924 H2930 0.984 . S
N2924 H2931 0.984 . S
N2925 C2918 1.356 . S
N2925 H2928 0.984 . S
N2925 H2929 0.985 . S
H2926 N2921 0.984 . S
H2927 N2921 0.985 . S
H2928 N2925 0.984 . S
H2929 N2925 0.985 . S
H2930 N2924 0.984 . S
H2931 N2924 0.984 . S
H2932 N2920 0.984 . S
H2933 N2920 0.985 . S
C2934 C2935 1.363 . S
C2934 C2940 1.379 . S
C2934 N2942 1.356 . S
C2935 C2934 1.363 . S
C2935 C2941 1.363 . S
C2936 C2937 1.363 . S
C2936 C2941 1.379 . S
C2936 N2943 1.356 . S
C2937 C2936 1.363 . S
C2937 C2940 1.363 . S
N2938 C2940 1.356 . S
N2938 H2950 0.984 . S
N2938 H2951 0.985 . S
N2939 C2941 1.356 . S
N2939 H2944 0.984 . S
N2939 H2945 0.985 . S
C2940 C2934 1.379 . S
C2940 C2937 1.363 . S
C2940 N2938 1.356 . S
C2941 C2935 1.363 . S
C2941 C2936 1.379 . S
C2941 N2939 1.356 . S
N2942 C2934 1.356 . S
N2942 H2948 0.984 . S
N2942 H2949 0.984 . S
N2943 C2936 1.356 . S
N2943 H2946 0.984 . S
N2943 H2947 0.985 . S
H2944 N2939 0.984 . S
H2945 N2939 0.985 . S
H2946 N2943 0.984 . S
H2947 N2943 0.985 . S
H2948 N2942 0.984 . S
H2949 N2942 0.984 . S
H2950 N2938 0.984 . S
H2951 N2938 0.985 . S
C2952 C2953 1.363 . S
C2952 C2958 1.379 . S
C2952 N2960 1.356 . S
C2953 C2952 1.363 . S
C2953 C2959 1.363 . S
C2954 C2955 1.363 . S
C2954 C2959 1.379 . S
C2954 N2961 1.356 . S
C2955 C2954 1.363 . S
C2955 C2958 1.363 . S
N2956 C2958 1.356 . S
N2956 H2968 0.984 . S
N2956 H2969 0.985 . S
N2957 C2959 1.356 . S
N2957 H2962 0.984 . S
N2957 H2963 0.985 . S
C2958 C2952 1.379 . S
C2958 C2955 1.363 . S
C2958 N2956 1.356 . S
C2959 C2953 1.363 . S
C2959 C2954 1.379 . S
C2959 N2957 1.356 . S
N2960 C2952 1.356 . S
N2960 H2966 0.984 . S
N2960 H2967 0.984 . S
N2961 C2954 1.356 . S
N2961 H2964 0.984 . S
N2961 H2965 0.985 . S
H2962 N2957 0.984 . S
H2963 N2957 0.985 . S
H2964 N2961 0.984 . S
H2965 N2961 0.985 . S
H2966 N2960 0.984 . S
H2967 N2960 0.984 . S
H2968 N2956 0.984 . S
H2969 N2956 0.985 . S
C2970 C2971 1.363 . S
C2970 C2976 1.379 . S
C2970 N2978 1.356 . S
C2971 C2970 1.363 . S
C2971 C2977 1.363 . S
C2972 C2973 1.363 . S
C2972 C2977 1.379 . S
C2972 N2979 1.356 . S
C2973 C2972 1.363 . S
C2973 C2976 1.363 . S
N2974 C2976 1.356 . S
N2974 H2986 0.984 . S
N2974 H2987 0.985 . S
N2975 C2977 1.356 . S
N2975 H2980 0.984 . S
N2975 H2981 0.985 . S
C2976 C2970 1.379 . S
C2976 C2973 1.363 . S
C2976 N2974 1.356 . S
C2977 C2971 1.363 . S
C2977 C2972 1.379 . S
C2977 N2975 1.356 . S
N2978 C2970 1.356 . S
N2978 H2984 0.984 . S
N2978 H2985 0.984 . S
N2979 C2972 1.356 . S
N2979 H2982 0.984 . S
N2979 H2983 0.985 . S
H2980 N2975 0.984 . S
H2981 N2975 0.985 . S
H2982 N2979 0.984 . S
H2983 N2979 0.985 . S
H2984 N2978 0.984 . S
H2985 N2978 0.984 . S
H2986 N2974 0.984 . S
H2987 N2974 0.985 . S
C2988 C2989 1.363 . S
C2988 C2994 1.379 . S
C2988 N2996 1.356 . S
C2989 C2988 1.363 . S
C2989 C2995 1.363 . S
C2990 C2991 1.363 . S
C2990 C2995 1.379 . S
C2990 N2997 1.356 . S
C2991 C2990 1.363 . S
C2991 C2994 1.363 . S
N2992 C2994 1.356 . S
N2992 H3004 0.984 . S
N2992 H3005 0.985 . S
N2993 C2995 1.356 . S
N2993 H2998 0.984 . S
N2993 H2999 0.985 . S
C2994 C2988 1.379 . S
C2994 C2991 1.363 . S
C2994 N2992 1.356 . S
C2995 C2989 1.363 . S
C2995 C2990 1.379 . S
C2995 N2993 1.356 . S
N2996 C2988 1.356 . S
N2996 H3002 0.984 . S
N2996 H3003 0.984 . S
N2997 C2990 1.356 . S
N2997 H3000 0.984 . S
N2997 H3001 0.985 1_455 S
H2998 N2993 0.984 . S
H2999 N2993 0.985 . S
H3000 N2997 0.984 . S
H3001 N2997 0.985 1_655 S
H3002 N2996 0.984 . S
H3003 N2996 0.984 . S
H3004 N2992 0.984 . S
H3005 N2992 0.985 . S
C3006 C3007 1.363 . S
C3006 C3012 1.379 . S
C3006 N3014 1.356 . S
C3007 C3006 1.363 . S
C3007 C3013 1.363 . S
C3008 C3009 1.363 . S
C3008 C3013 1.379 . S
C3008 N3015 1.356 . S
C3009 C3008 1.363 . S
C3009 C3012 1.363 . S
N3010 C3012 1.356 . S
N3010 H3022 0.984 . S
N3010 H3023 0.985 . S
N3011 C3013 1.356 . S
N3011 H3016 0.984 . S
N3011 H3017 0.985 . S
C3012 C3006 1.379 . S
C3012 C3009 1.363 . S
C3012 N3010 1.356 . S
C3013 C3007 1.363 . S
C3013 C3008 1.379 . S
C3013 N3011 1.356 . S
N3014 C3006 1.356 . S
N3014 H3020 0.984 . S
N3014 H3021 0.984 . S
N3015 C3008 1.356 . S
N3015 H3018 0.984 . S
N3015 H3019 0.985 . S
H3016 N3011 0.984 . S
H3017 N3011 0.985 . S
H3018 N3015 0.984 . S
H3019 N3015 0.985 . S
H3020 N3014 0.984 . S
H3021 N3014 0.984 . S
H3022 N3010 0.984 . S
H3023 N3010 0.985 . S
C3024 C3025 1.363 . S
C3024 C3030 1.379 . S
C3024 N3032 1.356 . S
C3025 C3024 1.363 . S
C3025 C3031 1.363 . S
C3026 C3027 1.363 . S
C3026 C3031 1.379 . S
C3026 N3033 1.356 . S
C3027 C3026 1.363 . S
C3027 C3030 1.363 . S
N3028 C3030 1.356 . S
N3028 H3040 0.984 1_556 S
N3028 H3041 0.985 . S
N3029 C3031 1.356 . S
N3029 H3034 0.984 . S
N3029 H3035 0.985 . S
C3030 C3024 1.379 . S
C3030 C3027 1.363 . S
C3030 N3028 1.356 . S
C3031 C3025 1.363 . S
C3031 C3026 1.379 . S
C3031 N3029 1.356 . S
N3032 C3024 1.356 . S
N3032 H3038 0.984 . S
N3032 H3039 0.984 . S
N3033 C3026 1.356 . S
N3033 H3036 0.984 . S
N3033 H3037 0.985 . S
H3034 N3029 0.984 . S
H3035 N3029 0.985 . S
H3036 N3033 0.984 . S
H3037 N3033 0.985 . S
H3038 N3032 0.984 . S
H3039 N3032 0.984 . S
H3040 N3028 0.984 1_554 S
H3041 N3028 0.985 . S
C3042 C3043 1.363 . S
C3042 C3048 1.379 . S
C3042 N3050 1.356 . S
C3043 C3042 1.363 . S
C3043 C3049 1.363 . S
C3044 C3045 1.363 . S
C3044 C3049 1.379 . S
C3044 N3051 1.356 . S
C3045 C3044 1.363 . S
C3045 C3048 1.363 . S
N3046 C3048 1.356 . S
N3046 H3058 0.984 . S
N3046 H3059 0.985 . S
N3047 C3049 1.356 . S
N3047 H3052 0.984 . S
N3047 H3053 0.985 . S
C3048 C3042 1.379 . S
C3048 C3045 1.363 . S
C3048 N3046 1.356 . S
C3049 C3043 1.363 . S
C3049 C3044 1.379 . S
C3049 N3047 1.356 . S
N3050 C3042 1.356 . S
N3050 H3056 0.984 . S
N3050 H3057 0.984 . S
N3051 C3044 1.356 . S
N3051 H3054 0.984 . S
N3051 H3055 0.985 . S
H3052 N3047 0.984 . S
H3053 N3047 0.985 . S
H3054 N3051 0.984 . S
H3055 N3051 0.985 . S
H3056 N3050 0.984 . S
H3057 N3050 0.984 . S
H3058 N3046 0.984 . S
H3059 N3046 0.985 . S
C3060 C3061 1.363 . S
C3060 C3066 1.379 . S
C3060 N3068 1.356 . S
C3061 C3060 1.363 . S
C3061 C3067 1.363 . S
C3062 C3063 1.363 . S
C3062 C3067 1.379 . S
C3062 N3069 1.356 . S
C3063 C3062 1.363 . S
C3063 C3066 1.363 . S
N3064 C3066 1.356 . S
N3064 H3076 0.984 . S
N3064 H3077 0.985 . S
N3065 C3067 1.356 . S
N3065 H3070 0.984 . S
N3065 H3071 0.985 . S
C3066 C3060 1.379 . S
C3066 C3063 1.363 . S
C3066 N3064 1.356 . S
C3067 C3061 1.363 . S
C3067 C3062 1.379 . S
C3067 N3065 1.356 . S
N3068 C3060 1.356 . S
N3068 H3074 0.984 . S
N3068 H3075 0.984 . S
N3069 C3062 1.356 . S
N3069 H3072 0.984 . S
N3069 H3073 0.985 1_455 S
H3070 N3065 0.984 . S
H3071 N3065 0.985 . S
H3072 N3069 0.984 . S
H3073 N3069 0.985 1_655 S
H3074 N3068 0.984 . S
H3075 N3068 0.984 . S
H3076 N3064 0.984 . S
H3077 N3064 0.985 . S
C3078 C3079 1.363 . S
C3078 C3084 1.379 . S
C3078 N3086 1.356 . S
C3079 C3078 1.363 . S
C3079 C3085 1.363 . S
C3080 C3081 1.363 . S
C3080 C3085 1.379 . S
C3080 N3087 1.356 . S
C3081 C3080 1.363 . S
C3081 C3084 1.363 . S
N3082 C3084 1.356 . S
N3082 H3094 0.984 . S
N3082 H3095 0.985 . S
N3083 C3085 1.356 . S
N3083 H3088 0.984 . S
N3083 H3089 0.985 . S
C3084 C3078 1.379 . S
C3084 C3081 1.363 . S
C3084 N3082 1.356 . S
C3085 C3079 1.363 . S
C3085 C3080 1.379 . S
C3085 N3083 1.356 . S
N3086 C3078 1.356 . S
N3086 H3092 0.984 . S
N3086 H3093 0.984 . S
N3087 C3080 1.356 . S
N3087 H3090 0.984 . S
N3087 H3091 0.985 . S
H3088 N3083 0.984 . S
H3089 N3083 0.985 . S
H3090 N3087 0.984 . S
H3091 N3087 0.985 . S
H3092 N3086 0.984 . S
H3093 N3086 0.984 . S
H3094 N3082 0.984 . S
H3095 N3082 0.985 . S
C3096 C3097 1.363 . S
C3096 C3102 1.379 . S
C3096 N3104 1.356 . S
C3097 C3096 1.363 . S
C3097 C3103 1.363 . S
C3098 C3099 1.363 . S
C3098 C3103 1.379 . S
C3098 N3105 1.356 . S
C3099 C3098 1.363 . S
C3099 C3102 1.363 . S
N3100 C3102 1.356 . S
N3100 H3112 0.984 . S
N3100 H3113 0.985 . S
N3101 C3103 1.356 . S
N3101 H3106 0.984 . S
N3101 H3107 0.985 . S
C3102 C3096 1.379 . S
C3102 C3099 1.363 . S
C3102 N3100 1.356 . S
C3103 C3097 1.363 . S
C3103 C3098 1.379 . S
C3103 N3101 1.356 . S
N3104 C3096 1.356 . S
N3104 H3110 0.984 . S
N3104 H3111 0.984 . S
N3105 C3098 1.356 . S
N3105 H3108 0.984 . S
N3105 H3109 0.985 . S
H3106 N3101 0.984 . S
H3107 N3101 0.985 . S
H3108 N3105 0.984 . S
H3109 N3105 0.985 . S
H3110 N3104 0.984 . S
H3111 N3104 0.984 . S
H3112 N3100 0.984 . S
H3113 N3100 0.985 . S
C3114 C3115 1.363 . S
C3114 C3120 1.379 . S
C3114 N3122 1.356 . S
C3115 C3114 1.363 . S
C3115 C3121 1.363 . S
C3116 C3117 1.363 . S
C3116 C3121 1.379 . S
C3116 N3123 1.356 . S
C3117 C3116 1.363 . S
C3117 C3120 1.363 . S
N3118 C3120 1.356 . S
N3118 H3130 0.984 . S
N3118 H3131 0.985 . S
N3119 C3121 1.356 . S
N3119 H3124 0.984 . S
N3119 H3125 0.985 . S
C3120 C3114 1.379 . S
C3120 C3117 1.363 . S
C3120 N3118 1.356 . S
C3121 C3115 1.363 . S
C3121 C3116 1.379 . S
C3121 N3119 1.356 . S
N3122 C3114 1.356 . S
N3122 H3128 0.984 . S
N3122 H3129 0.984 . S
N3123 C3116 1.356 . S
N3123 H3126 0.984 . S
N3123 H3127 0.985 . S
H3124 N3119 0.984 . S
H3125 N3119 0.985 . S
H3126 N3123 0.984 . S
H3127 N3123 0.985 . S
H3128 N3122 0.984 . S
H3129 N3122 0.984 . S
H3130 N3118 0.984 . S
H3131 N3118 0.985 . S
C3132 C3133 1.363 . S
C3132 C3138 1.379 . S
C3132 N3140 1.356 . S
C3133 C3132 1.363 . S
C3133 C3139 1.363 . S
C3134 C3135 1.363 . S
C3134 C3139 1.379 . S
C3134 N3141 1.338 1_655 S
C3135 C3134 1.363 . S
C3135 C3138 1.363 . S
N3136 C3138 1.356 . S
N3136 H3148 0.984 1_556 S
N3136 H3149 0.985 1_556 S
N3137 C3139 1.356 . S
N3137 H3142 0.984 . S
N3137 H3143 0.985 . S
C3138 C3132 1.379 . S
C3138 C3135 1.363 . S
C3138 N3136 1.356 . S
C3139 C3133 1.363 . S
C3139 C3134 1.379 . S
C3139 N3137 1.356 . S
N3140 C3132 1.356 . S
N3140 H3146 0.984 . S
N3140 H3147 0.984 . S
N3141 C3134 1.338 1_455 S
N3141 H3144 1.000 . S
N3141 H3145 0.988 . S
H3142 N3137 0.984 . S
H3143 N3137 0.985 . S
H3144 N3141 1.000 . S
H3145 N3141 0.988 . S
H3146 N3140 0.984 . S
H3147 N3140 0.984 . S
H3148 N3136 0.984 1_554 S
H3149 N3136 0.985 1_554 S
C3150 C3151 1.363 . S
C3150 C3156 1.379 . S
C3150 N3158 1.356 . S
C3151 C3150 1.363 . S
C3151 C3157 1.363 . S
C3152 C3153 1.363 . S
C3152 C3157 1.379 . S
C3152 N3159 1.356 . S
C3153 C3152 1.363 . S
C3153 C3156 1.363 . S
N3154 C3156 1.356 . S
N3154 H3166 0.984 . S
N3154 H3167 0.985 . S
N3155 C3157 1.356 . S
N3155 H3160 0.984 . S
N3155 H3161 0.985 . S
C3156 C3150 1.379 . S
C3156 C3153 1.363 . S
C3156 N3154 1.356 . S
C3157 C3151 1.363 . S
C3157 C3152 1.379 . S
C3157 N3155 1.356 . S
N3158 C3150 1.356 . S
N3158 H3164 0.984 . S
N3158 H3165 0.984 . S
N3159 C3152 1.356 . S
N3159 H3162 0.984 . S
N3159 H3163 0.985 . S
H3160 N3155 0.984 . S
H3161 N3155 0.985 . S
H3162 N3159 0.984 . S
H3163 N3159 0.985 . S
H3164 N3158 0.984 . S
H3165 N3158 0.984 . S
H3166 N3154 0.984 . S
H3167 N3154 0.985 . S
C3168 C3169 1.363 . S
C3168 C3174 1.379 . S
C3168 N3176 1.356 . S
C3169 C3168 1.363 . S
C3169 C3175 1.363 . S
C3170 C3171 1.363 . S
C3170 C3175 1.379 . S
C3170 N3177 1.356 . S
C3171 C3170 1.363 . S
C3171 C3174 1.363 . S
N3172 C3174 1.356 . S
N3172 H3184 0.984 . S
N3172 H3185 0.985 . S
N3173 C3175 1.356 . S
N3173 H3178 0.984 . S
N3173 H3179 0.985 . S
C3174 C3168 1.379 . S
C3174 C3171 1.363 . S
C3174 N3172 1.356 . S
C3175 C3169 1.363 . S
C3175 C3170 1.379 . S
C3175 N3173 1.356 . S
N3176 C3168 1.356 . S
N3176 H3182 0.984 . S
N3176 H3183 0.984 . S
N3177 C3170 1.356 . S
N3177 H3180 0.984 . S
N3177 H3181 0.985 . S
H3178 N3173 0.984 . S
H3179 N3173 0.985 . S
H3180 N3177 0.984 . S
H3181 N3177 0.985 . S
H3182 N3176 0.984 . S
H3183 N3176 0.984 . S
H3184 N3172 0.984 . S
H3185 N3172 0.985 . S
C3186 C3187 1.363 . S
C3186 C3192 1.379 . S
C3186 N3194 1.356 . S
C3187 C3186 1.363 . S
C3187 C3193 1.363 . S
C3188 C3189 1.363 . S
C3188 C3193 1.379 . S
C3188 N3195 1.356 . S
C3189 C3188 1.363 . S
C3189 C3192 1.363 . S
N3190 C3192 1.356 . S
N3190 H3202 0.984 . S
N3190 H3203 0.985 . S
N3191 C3193 1.356 . S
N3191 H3196 0.984 . S
N3191 H3197 0.985 . S
C3192 C3186 1.379 . S
C3192 C3189 1.363 . S
C3192 N3190 1.356 . S
C3193 C3187 1.363 . S
C3193 C3188 1.379 . S
C3193 N3191 1.356 . S
N3194 C3186 1.356 . S
N3194 H3200 0.984 . S
N3194 H3201 0.984 . S
N3195 C3188 1.356 . S
N3195 H3198 0.984 . S
N3195 H3199 0.985 . S
H3196 N3191 0.984 . S
H3197 N3191 0.985 . S
H3198 N3195 0.984 . S
H3199 N3195 0.985 . S
H3200 N3194 0.984 . S
H3201 N3194 0.984 . S
H3202 N3190 0.984 . S
H3203 N3190 0.985 . S
C3204 C3205 1.363 . S
C3204 C3210 1.379 . S
C3204 N3212 1.356 . S
C3205 C3204 1.363 . S
C3205 C3211 1.363 . S
C3206 C3207 1.363 . S
C3206 C3211 1.379 . S
C3206 N3213 1.356 . S
C3207 C3206 1.363 . S
C3207 C3210 1.363 . S
N3208 C3210 1.356 . S
N3208 H3220 0.984 1_655 S
N3208 H3221 0.985 . S
N3209 C3211 1.356 . S
N3209 H3214 0.984 . S
N3209 H3215 0.985 . S
C3210 C3204 1.379 . S
C3210 C3207 1.363 . S
C3210 N3208 1.356 . S
C3211 C3205 1.363 . S
C3211 C3206 1.379 . S
C3211 N3209 1.356 . S
N3212 C3204 1.356 . S
N3212 H3218 0.984 . S
N3212 H3219 0.984 . S
N3213 C3206 1.356 . S
N3213 H3216 0.984 . S
N3213 H3217 0.985 . S
H3214 N3209 0.984 . S
H3215 N3209 0.985 . S
H3216 N3213 0.984 . S
H3217 N3213 0.985 . S
H3218 N3212 0.984 . S
H3219 N3212 0.984 . S
H3220 N3208 0.984 1_455 S
H3221 N3208 0.985 . S
C3222 C3223 1.363 . S
C3222 C3228 1.379 . S
C3222 N3230 1.356 . S
C3223 C3222 1.363 . S
C3223 C3229 1.363 . S
C3224 C3225 1.363 . S
C3224 C3229 1.379 . S
C3224 N3231 1.356 . S
C3225 C3224 1.363 . S
C3225 C3228 1.363 . S
N3226 C3228 1.356 . S
N3226 H3238 0.984 . S
N3226 H3239 0.985 . S
N3227 C3229 1.356 . S
N3227 H3232 0.984 . S
N3227 H3233 0.985 . S
C3228 C3222 1.379 . S
C3228 C3225 1.363 . S
C3228 N3226 1.356 . S
C3229 C3223 1.363 . S
C3229 C3224 1.379 . S
C3229 N3227 1.356 . S
N3230 C3222 1.356 . S
N3230 H3236 0.984 . S
N3230 H3237 0.984 . S
N3231 C3224 1.356 . S
N3231 H3234 0.984 . S
N3231 H3235 0.985 . S
H3232 N3227 0.984 . S
H3233 N3227 0.985 . S
H3234 N3231 0.984 . S
H3235 N3231 0.985 . S
H3236 N3230 0.984 . S
H3237 N3230 0.984 . S
H3238 N3226 0.984 . S
H3239 N3226 0.985 . S
C3240 C3241 1.363 . S
C3240 C3246 1.379 . S
C3240 N3248 1.356 . S
C3241 C3240 1.363 . S
C3241 C3247 1.363 . S
C3242 C3243 1.363 . S
C3242 C3247 1.379 . S
C3242 N3249 1.356 . S
C3243 C3242 1.363 . S
C3243 C3246 1.363 . S
N3244 C3246 1.356 . S
N3244 H3256 0.984 . S
N3244 H3257 0.985 . S
N3245 C3247 1.356 . S
N3245 H3250 0.984 . S
N3245 H3251 0.985 . S
C3246 C3240 1.379 . S
C3246 C3243 1.363 . S
C3246 N3244 1.356 . S
C3247 C3241 1.363 . S
C3247 C3242 1.379 . S
C3247 N3245 1.356 . S
N3248 C3240 1.356 . S
N3248 H3254 0.984 . S
N3248 H3255 0.984 . S
N3249 C3242 1.356 . S
N3249 H3252 0.984 . S
N3249 H3253 0.985 . S
H3250 N3245 0.984 . S
H3251 N3245 0.985 . S
H3252 N3249 0.984 . S
H3253 N3249 0.985 . S
H3254 N3248 0.984 . S
H3255 N3248 0.984 . S
H3256 N3244 0.984 . S
H3257 N3244 0.985 . S
C3258 C3259 1.363 . S
C3258 C3264 1.379 . S
C3258 N3266 1.356 . S
C3259 C3258 1.363 . S
C3259 C3265 1.363 . S
C3260 C3261 1.363 . S
C3260 C3265 1.379 . S
C3260 N3267 1.356 . S
C3261 C3260 1.363 . S
C3261 C3264 1.363 . S
N3262 C3264 1.356 1_545 S
N3262 H3274 0.984 . S
N3262 H3275 0.985 . S
N3263 C3265 1.356 . S
N3263 H3268 0.984 . S
N3263 H3269 0.985 . S
C3264 C3258 1.379 . S
C3264 C3261 1.363 . S
C3264 N3262 1.356 1_565 S
C3265 C3259 1.363 . S
C3265 C3260 1.379 . S
C3265 N3263 1.356 . S
N3266 C3258 1.356 . S
N3266 H3272 0.984 . S
N3266 H3273 0.984 . S
N3267 C3260 1.356 . S
N3267 H3270 0.984 . S
N3267 H3271 0.985 . S
H3268 N3263 0.984 . S
H3269 N3263 0.985 . S
H3270 N3267 0.984 . S
H3271 N3267 0.985 . S
H3272 N3266 0.984 . S
H3273 N3266 0.984 . S
H3274 N3262 0.984 . S
H3275 N3262 0.985 . S
C3276 C3277 1.363 . S
C3276 C3282 1.379 . S
C3276 N3284 1.356 . S
C3277 C3276 1.363 . S
C3277 C3283 1.363 . S
C3278 C3279 1.363 . S
C3278 C3283 1.379 . S
C3278 N3285 1.356 . S
C3279 C3278 1.363 . S
C3279 C3282 1.363 . S
N3280 C3282 1.356 . S
N3280 H3292 0.984 . S
N3280 H3293 0.985 . S
N3281 C3283 1.356 . S
N3281 H3286 0.984 . S
N3281 H3287 0.985 . S
C3282 C3276 1.379 . S
C3282 C3279 1.363 . S
C3282 N3280 1.356 . S
C3283 C3277 1.363 . S
C3283 C3278 1.379 . S
C3283 N3281 1.356 . S
N3284 C3276 1.356 . S
N3284 H3290 0.984 . S
N3284 H3291 0.984 . S
N3285 C3278 1.356 . S
N3285 H3288 0.984 . S
N3285 H3289 0.985 . S
H3286 N3281 0.984 . S
H3287 N3281 0.985 . S
H3288 N3285 0.984 . S
H3289 N3285 0.985 . S
H3290 N3284 0.984 . S
H3291 N3284 0.984 . S
H3292 N3280 0.984 . S
H3293 N3280 0.985 . S
C3294 C3295 1.363 . S
C3294 C3300 1.379 . S
C3294 N3302 1.356 . S
C3295 C3294 1.363 . S
C3295 C3301 1.363 . S
C3296 C3297 1.363 . S
C3296 C3301 1.379 . S
C3296 N3303 1.356 . S
C3297 C3296 1.363 . S
C3297 C3300 1.363 . S
N3298 C3300 1.358 . S
N3298 H3310 0.982 1_554 S
N3298 H3311 0.984 . S
N3299 C3301 1.356 . S
N3299 H3304 0.984 . S
N3299 H3305 0.985 . S
C3300 C3294 1.379 . S
C3300 C3297 1.363 . S
C3300 N3298 1.358 . S
C3301 C3295 1.363 . S
C3301 C3296 1.379 . S
C3301 N3299 1.356 . S
N3302 C3294 1.356 . S
N3302 H3308 1.012 . S
N3302 H3309 0.984 . S
N3303 C3296 1.356 . S
N3303 H3306 0.984 . S
N3303 H3307 0.985 . S
H3304 N3299 0.984 . S
H3305 N3299 0.985 . S
H3306 N3303 0.984 . S
H3307 N3303 0.985 . S
H3308 N3302 1.012 . S
H3309 N3302 0.984 . S
H3310 N3298 0.982 1_556 S
H3311 N3298 0.984 . S
C3312 C3313 1.363 . S
C3312 C3318 1.379 . S
C3312 N3320 1.356 . S
C3313 C3312 1.363 . S
C3313 C3319 1.363 . S
C3314 C3315 1.363 . S
C3314 C3319 1.379 . S
C3314 N3321 1.356 . S
C3315 C3314 1.363 . S
C3315 C3318 1.363 . S
N3316 C3318 1.356 . S
N3316 H3328 0.984 . S
N3316 H3329 0.985 . S
N3317 C3319 1.356 . S
N3317 H3322 0.984 . S
N3317 H3323 0.985 . S
C3318 C3312 1.379 . S
C3318 C3315 1.363 . S
C3318 N3316 1.356 . S
C3319 C3313 1.363 . S
C3319 C3314 1.379 . S
C3319 N3317 1.356 . S
N3320 C3312 1.356 . S
N3320 H3326 0.984 . S
N3320 H3327 0.984 . S
N3321 C3314 1.356 . S
N3321 H3324 0.984 . S
N3321 H3325 0.985 . S
H3322 N3317 0.984 . S
H3323 N3317 0.985 . S
H3324 N3321 0.984 . S
H3325 N3321 0.985 . S
H3326 N3320 0.984 . S
H3327 N3320 0.984 . S
H3328 N3316 0.984 . S
H3329 N3316 0.985 . S
C3330 C3331 1.363 . S
C3330 C3336 1.379 . S
C3330 N3338 1.356 . S
C3331 C3330 1.363 . S
C3331 C3337 1.363 . S
C3332 C3333 1.363 . S
C3332 C3337 1.379 . S
C3332 N3339 1.356 . S
C3333 C3332 1.363 . S
C3333 C3336 1.363 . S
N3334 C3336 1.356 . S
N3334 H3346 0.984 . S
N3334 H3347 0.985 . S
N3335 C3337 1.356 . S
N3335 H3340 0.984 . S
N3335 H3341 0.985 . S
C3336 C3330 1.379 . S
C3336 C3333 1.363 . S
C3336 N3334 1.356 . S
C3337 C3331 1.363 . S
C3337 C3332 1.379 . S
C3337 N3335 1.356 . S
N3338 C3330 1.356 . S
N3338 H3344 0.984 . S
N3338 H3345 0.984 . S
N3339 C3332 1.356 . S
N3339 H3342 0.984 . S
N3339 H3343 0.985 . S
H3340 N3335 0.984 . S
H3341 N3335 0.985 . S
H3342 N3339 0.984 . S
H3343 N3339 0.985 . S
H3344 N3338 0.984 . S
H3345 N3338 0.984 . S
H3346 N3334 0.984 . S
H3347 N3334 0.985 . S
C3348 C3349 1.363 . S
C3348 C3354 1.379 . S
C3348 N3356 1.356 . S
C3349 C3348 1.363 . S
C3349 C3355 1.363 . S
C3350 C3351 1.363 . S
C3350 C3355 1.379 . S
C3350 N3357 1.356 . S
C3351 C3350 1.363 . S
C3351 C3354 1.363 . S
N3352 C3354 1.356 . S
N3352 H3364 0.984 . S
N3352 H3365 0.985 . S
N3353 C3355 1.356 . S
N3353 H3358 0.984 . S
N3353 H3359 0.985 . S
C3354 C3348 1.379 . S
C3354 C3351 1.363 . S
C3354 N3352 1.356 . S
C3355 C3349 1.363 . S
C3355 C3350 1.379 . S
C3355 N3353 1.356 . S
N3356 C3348 1.356 . S
N3356 H3362 0.984 . S
N3356 H3363 0.984 . S
N3357 C3350 1.356 . S
N3357 H3360 0.984 . S
N3357 H3361 0.985 . S
H3358 N3353 0.984 . S
H3359 N3353 0.985 . S
H3360 N3357 0.984 . S
H3361 N3357 0.985 . S
H3362 N3356 0.984 . S
H3363 N3356 0.984 . S
H3364 N3352 0.984 . S
H3365 N3352 0.985 . S
C3366 C3367 1.363 . S
C3366 C3372 1.379 . S
C3366 N3374 1.356 . S
C3367 C3366 1.363 . S
C3367 C3373 1.363 . S
C3368 C3369 1.363 . S
C3368 C3373 1.379 . S
C3368 N3375 1.356 . S
C3369 C3368 1.363 . S
C3369 C3372 1.363 . S
N3370 C3372 1.356 . S
N3370 H3382 0.984 . S
N3370 H3383 0.985 . S
N3371 C3373 1.356 . S
N3371 H3376 0.984 . S
N3371 H3377 0.985 . S
C3372 C3366 1.379 . S
C3372 C3369 1.363 . S
C3372 N3370 1.356 . S
C3373 C3367 1.363 . S
C3373 C3368 1.379 . S
C3373 N3371 1.356 . S
N3374 C3366 1.356 . S
N3374 H3380 0.984 . S
N3374 H3381 0.984 . S
N3375 C3368 1.356 . S
N3375 H3378 0.984 . S
N3375 H3379 0.985 . S
H3376 N3371 0.984 . S
H3377 N3371 0.985 . S
H3378 N3375 0.984 . S
H3379 N3375 0.985 . S
H3380 N3374 0.984 . S
H3381 N3374 0.984 . S
H3382 N3370 0.984 . S
H3383 N3370 0.985 . S
C1657 C101 2.215 1_554 S
C1659 C368 2.215 . S
C1675 C57 1.878 . S
C1677 C470 1.957 . S
C1693 C70 1.821 . S
C1695 C536 1.819 . S
C1713 C622 1.387 . S
C1711 C82 1.433 . S
C1729 C23 1.433 . S
C1731 C706 1.386 . S
C1749 C788 1.819 . S
C1747 C29 1.821 . S
C1767 C890 1.949 . S
C1765 C49 1.872 . S
C1783 C10 2.215 . S
C1785 C956 2.215 . S
C1803 C386 1.796 . S
C1801 C218 1.834 . S
C1819 C226 1.042 . S
C1821 C454 1.017 . S
C1839 C554 1.353 . S
C1837 C251 1.297 . S
C1857 C620 1.599 . S
C1855 C159 1.603 . S
C1873 C211 1.602 . S
C1875 C704 1.599 . S
C1893 C806 1.353 . S
C1891 C225 1.297 . S
C1911 C874 1.015 . S
C1909 C252 1.041 . S
C1929 C974 1.796 . S
C1927 C166 1.834 . S
C1947 C370 1.324 . S
C1945 C147 1.280 . S
C1963 C263 1.664 . S
C1965 C1058 1.716 . S
C1983 C1126 1.500 . S
C1981 C309 1.505 . S
C2001 C1208 0.825 . S
C1999 C291 0.824 . S
C2017 C108 1.279 . S
C2019 C958 1.322 . S
C2035 C121 1.506 . S
C2037 C538 1.499 . S
C2053 C302 1.666 . S
C2055 C1310 1.717 . S
C2073 C1376 0.825 . S
C2071 C276 0.824 . S
C2091 C379 2.378 . S
C2089 C55 2.344 . S
C2109 C1383 2.134 . S
C2107 C96 2.114 . S
C2125 C88 2.073 . S
C2127 C547 2.087 . S
C2143 C75 1.544 . S
C2145 C1305 1.457 . S
C2163 C717 1.456 . S
C2161 C4 1.544 . S
C2179 C44 2.076 . S
C2181 C1135 2.094 . S
C2199 C879 2.133 1_565 S
C2197 C31 2.113 . S
C2217 C1471 2.378 . S
C2215 C18 2.344 . S
C2235 C375 1.996 . S
C2233 C133 2.040 . S
C2253 C1389 1.045 . S
C2251 C296 1.128 . S
C2269 C107 1.415 . S
C2271 C543 1.421 . S
C2287 C264 1.829 . S
C2289 C1303 1.826 . S
C2305 C140 1.828 . S
C2307 C715 1.826 . S
C2325 C1131 1.421 . S
C2323 C289 1.416 . S
C2341 C114 1.130 . S
C2343 C885 1.047 . S
C2359 C265 2.041 . S
C2361 C1467 1.997 . S
C2377 C179 1.222 . S
C2379 C381 1.230 . S
C2395 C161 1.832 . S
C2397 C1047 1.833 . S
C2413 C244 1.490 . S
C2415 C801 1.433 . S
C2431 C224 1.068 . S
C2433 C1219 1.069 . S
C2451 C1473 1.230 . S
C2449 C257 1.222 . S
C2467 C199 1.490 . S
C2469 C549 1.432 . S
C2487 C627 1.833 . S
C2485 C237 1.831 . S
C2505 C463 1.068 . S
C2503 C185 1.067 . S
C2521 C69 2.216 . S
C2523 C1544 2.215 . S
C2541 C1394 1.957 . S
C2539 C83 1.879 . S
C2557 C94 1.821 1_554 S
C2559 C1628 1.820 . S
C2575 C56 1.414 1_655 S
C2577 C1294 1.386 . S
C2593 C42 1.443 . S
C2595 C1042 1.391 . S
C2613 C1124 1.819 . S
C2611 C3 1.821 . S
C2631 C1226 1.957 . S
C2629 C16 1.879 . S
C2649 C1460 2.214 . S
C2647 C36 2.215 . S
C2667 C1562 1.796 . S
C2665 C238 1.834 . S
C2683 C174 1.041 . S
C2685 C1378 1.015 . S
C2703 C1646 1.353 . S
C2701 C186 1.296 . S
C2721 C1292 1.598 . S
C2719 C198 1.602 . S
C2739 C1040 1.600 . S
C2737 C239 1.604 . S
C2755 C173 1.298 . S
C2757 C1142 1.354 . S
C2775 C1210 1.016 . S
C2773 C187 1.042 . S
C2791 C205 1.834 . S
C2793 C1478 1.796 . S
C2811 C1546 1.323 . S
C2809 C290 1.278 . S
C2827 C122 1.665 . S
C2829 C722 1.716 . S
C2847 C790 1.500 . S
C2845 C134 1.507 1_565 S
C2865 C872 0.825 . S
C2863 C148 0.823 . S
C2883 C1462 1.322 . S
C2881 C283 1.278 . S
C2899 C270 1.505 . S
C2901 C1630 1.498 . S
C2919 C638 1.716 . S
C2917 C135 1.665 . S
C2937 C452 0.824 . S
C2935 C109 0.823 . S
C2953 C81 2.344 . S
C2955 C1555 2.378 . S
C2973 C459 2.134 . S
C2971 C68 2.113 . S
C2989 C62 2.073 . S
C2991 C1639 2.087 . S
C3007 C95 1.543 . S
C3009 C633 1.456 . S
C3025 C30 1.544 . S
C3027 C1053 1.456 . S
C3045 C799 2.087 . S
C3043 C17 2.073 . S
C3061 C5 2.113 . S
C3063 C1215 2.134 . S
C3079 C43 2.345 . S
C3081 C967 2.369 . S
C3099 C1551 1.996 . S
C3097 C304 2.040 . S
C3115 C153 1.128 . S
C3117 C465 1.045 . S
C3135 C1635 1.426 1_655 S
C3133 C278 1.416 . S
C3151 C127 1.828 . S
C3153 C631 1.826 . S
C3169 C303 1.826 . S
C3171 C1051 1.823 . S
C3189 C795 1.421 . S
C3187 C146 1.415 . S
C3205 C277 1.128 . S
C3207 C1221 1.045 . S
C3225 C963 1.996 . S
C3223 C120 2.039 . S
C3243 C1557 1.230 . S
C3241 C231 1.223 . S
C3261 C711 1.833 1_565 S
C3259 C200 1.831 . S
C3277 C212 1.491 . S
C3279 C1137 1.433 . S
C3297 C883 1.067 . S
C3295 C172 1.066 . S
C3313 C192 1.222 . S
C3315 C969 1.229 . S
C3331 C160 1.490 . S
C3333 C1641 1.432 . S
C3351 C1299 1.834 . S
C3349 C213 1.833 . S
C3369 C1387 1.069 . S
C3367 C250 1.068 . S
