# Generated by pormake.
# Topology pyr, (3,6)-cn, num edge types: 1
# Building blocks:
#     Node 0, Type 0, BuildingBlock: OLANEW_clean_sbu_2, # of connection points: 3
#     Node 1, Type 0, BuildingBlock: OLANEW_clean_sbu_2, # of connection points: 3
#     Node 2, Type 0, BuildingBlock: OLANEW_clean_sbu_2, # of connection points: 3
#     Node 3, Type 0, BuildingBlock: OLANEW_clean_sbu_2, # of connection points: 3
#     Node 4, Type 0, BuildingBlock: OLANEW_clean_sbu_2, # of connection points: 3
#     Node 5, Type 0, BuildingBlock: OLANEW_clean_sbu_2, # of connection points: 3
#     Node 6, Type 0, BuildingBlock: OLANEW_clean_sbu_2, # of connection points: 3
#     Node 7, Type 0, BuildingBlock: OLANEW_clean_sbu_2, # of connection points: 3
#     Node 8, Type 1, BuildingBlock: BETFEN_clean_sbu_0, # of connection points: 6
#     Node 9, Type 1, BuildingBlock: BETFEN_clean_sbu_0, # of connection points: 6
#     Node 10, Type 1, BuildingBlock: BETFEN_clean_sbu_0, # of connection points: 6
#     Node 11, Type 1, BuildingBlock: BETFEN_clean_sbu_0, # of connection points: 6
#     Edge 12, Type (0, 1), BuildingBlock: EZIPEK_clean_linker_0, # of connection points: 2
#     Edge 13, Type (0, 1), BuildingBlock: EZIPEK_clean_linker_0, # of connection points: 2
#     Edge 14, Type (0, 1), BuildingBlock: EZIPEK_clean_linker_0, # of connection points: 2
#     Edge 15, Type (0, 1), BuildingBlock: EZIPEK_clean_linker_0, # of connection points: 2
#     Edge 16, Type (0, 1), BuildingBlock: EZIPEK_clean_linker_0, # of connection points: 2
#     Edge 17, Type (0, 1), BuildingBlock: EZIPEK_clean_linker_0, # of connection points: 2
#     Edge 18, Type (0, 1), BuildingBlock: EZIPEK_clean_linker_0, # of connection points: 2
#     Edge 19, Type (0, 1), BuildingBlock: EZIPEK_clean_linker_0, # of connection points: 2
#     Edge 20, Type (0, 1), BuildingBlock: EZIPEK_clean_linker_0, # of connection points: 2
#     Edge 21, Type (0, 1), BuildingBlock: EZIPEK_clean_linker_0, # of connection points: 2
#     Edge 22, Type (0, 1), BuildingBlock: EZIPEK_clean_linker_0, # of connection points: 2
#     Edge 23, Type (0, 1), BuildingBlock: EZIPEK_clean_linker_0, # of connection points: 2
#     Edge 24, Type (0, 1), BuildingBlock: EZIPEK_clean_linker_0, # of connection points: 2
#     Edge 25, Type (0, 1), BuildingBlock: EZIPEK_clean_linker_0, # of connection points: 2
#     Edge 26, Type (0, 1), BuildingBlock: EZIPEK_clean_linker_0, # of connection points: 2
#     Edge 27, Type (0, 1), BuildingBlock: EZIPEK_clean_linker_0, # of connection points: 2
#     Edge 28, Type (0, 1), BuildingBlock: EZIPEK_clean_linker_0, # of connection points: 2
#     Edge 29, Type (0, 1), BuildingBlock: EZIPEK_clean_linker_0, # of connection points: 2
#     Edge 30, Type (0, 1), BuildingBlock: EZIPEK_clean_linker_0, # of connection points: 2
#     Edge 31, Type (0, 1), BuildingBlock: EZIPEK_clean_linker_0, # of connection points: 2
#     Edge 32, Type (0, 1), BuildingBlock: EZIPEK_clean_linker_0, # of connection points: 2
#     Edge 33, Type (0, 1), BuildingBlock: EZIPEK_clean_linker_0, # of connection points: 2
#     Edge 34, Type (0, 1), BuildingBlock: EZIPEK_clean_linker_0, # of connection points: 2
#     Edge 35, Type (0, 1), BuildingBlock: EZIPEK_clean_linker_0, # of connection points: 2
# Relax obj value: 0.222
# Max RMSD: 0.321
# Mean RMSD: 0.151
data_MOF--net-pyr--node1-OLANEW_clean_sbu_2--node2-BETFEN_clean_sbu_0--edge1-EZIPEK_clean_linker_0
_symmetry_space_group_name_H-M    P1
_symmetry_Int_Tables_number       1
_symmetry_cell_setting            triclinic
loop_
_symmetry_equiv_pos_as_xyz
'x, y, z'
_cell_length_a     29.947455
_cell_length_b     34.967115
_cell_length_c     31.277864
_cell_angle_alpha  95.34122
_cell_angle_beta   103.44406
_cell_angle_gamma 118.86504
loop_
_atom_site_label
_atom_site_type_symbol
_atom_site_fract_x
_atom_site_fract_y
_atom_site_fract_z
_atom_type_partial_charge
O0 O 0.48258 0.37827 0.27393 0.0
Cd1 Cd 0.47713 0.44346 0.30094 0.0
O2 O 0.41716 0.33105 0.2973 0.0
Cd3 Cd 0.40238 0.37851 0.33216 0.0
O4 O 0.3477 0.36357 0.37164 0.0
C5 C 0.3533 0.33922 0.39748 0.0
O6 O 0.39313 0.33216 0.40093 0.0
C7 C 0.45185 0.33865 0.27724 0.0
C8 C 0.38955 0.44212 0.24367 0.0
O9 O 0.43435 0.4589 0.23538 0.0
O10 O 0.38608 0.4263 0.27881 0.0
O11 O 0.25308 0.77226 0.85249 0.0
Cd12 Cd 0.20402 0.7059 0.78973 0.0
O13 O 0.22564 0.80982 0.81285 0.0
Cd14 Cd 0.21983 0.86689 0.79466 0.0
O15 O 0.1984 0.90464 0.74997 0.0
C16 C 0.14961 0.89391 0.73426 0.0
O17 O 0.11266 0.86181 0.74685 0.0
C18 C 0.25417 0.80861 0.84928 0.0
C19 C 0.27801 0.69849 0.75552 0.0
O20 O 0.25502 0.71881 0.73825 0.0
O21 O 0.26548 0.68098 0.7883 0.0
O22 O 0.7022 0.39093 0.81238 0.0
Cd23 Cd 0.61142 0.3667 0.76174 0.0
O24 O 0.67268 0.34497 0.85621 0.0
Cd25 Cd 0.67331 0.31001 0.91196 0.0
O26 O 0.64814 0.26259 0.95632 0.0
C27 C 0.61855 0.22054 0.93813 0.0
O28 O 0.60414 0.20671 0.89396 0.0
C29 C 0.71196 0.37582 0.84679 0.0
C30 C 0.60096 0.42572 0.71014 0.0
O31 O 0.59964 0.42928 0.75093 0.0
O32 O 0.60872 0.39522 0.69386 0.0
O33 O 0.95746 0.75716 0.29634 0.0
Cd34 Cd 0.91999 0.68002 0.24695 0.0
O35 O 0.90418 0.72161 0.33476 0.0
Cd36 Cd 0.86411 0.712 0.38679 0.0
O37 O 0.81391 0.68182 0.43297 0.0
C38 C 0.77016 0.68143 0.42863 0.0
O39 O 0.81447 0.68089 0.43463 0.0
C40 C 0.93861 0.75868 0.32884 0.0
C41 C 0.95975 0.64937 0.18594 0.0
O42 O 0.9323 0.66772 0.17341 0.0
O43 O 0.97191 0.64831 0.22778 0.0
O44 O 0.66279 0.6589 0.68246 0.0
Cd45 Cd 0.6109 0.60414 0.72051 0.0
O46 O 0.67814 0.70397 0.74413 0.0
Cd47 Cd 0.70727 0.76899 0.78565 0.0
O48 O 0.67393 0.79998 0.8197 0.0
C49 C 0.62313 0.78165 0.80586 0.0
O50 O 0.59359 0.74576 0.77199 0.0
C51 C 0.685 0.69856 0.7061 0.0
C52 C 0.69085 0.5992 0.77976 0.0
O53 O 0.65646 0.56635 0.74553 0.0
O54 O 0.68394 0.63216 0.78807 0.0
O55 O 0.79716 0.19352 0.35153 0.0
Cd56 Cd 0.86387 0.22098 0.4263 0.0
O57 O 0.75633 0.2327 0.34253 0.0
Cd58 Cd 0.78683 0.28363 0.40494 0.0
O59 O 0.7552 0.32248 0.43162 0.0
C60 C 0.72027 0.32547 0.40236 0.0
O61 O 0.7071 0.30713 0.35936 0.0
C62 C 0.76337 0.20155 0.32773 0.0
C63 C 0.90454 0.16376 0.43667 0.0
O64 O 0.86178 0.15518 0.44615 0.0
O65 O 0.92863 0.19939 0.42274 0.0
O66 O 0.47815 0.81074 0.2521 0.0
Cd67 Cd 0.46415 0.77828 0.3203 0.0
O68 O 0.41293 0.82296 0.25306 0.0
Cd69 Cd 0.37569 0.76219 0.27719 0.0
O70 O 0.3298 0.70073 0.22347 0.0
C71 C 0.29291 0.70085 0.19378 0.0
O72 O 0.28456 0.73417 0.20079 0.0
C73 C 0.45253 0.83041 0.23942 0.0
C74 C 0.46323 0.70574 0.35456 0.0
O75 O 0.5074 0.74043 0.35537 0.0
O76 O 0.41915 0.70312 0.33371 0.0
O77 O 0.16926 0.42842 0.76955 0.0
Cd78 Cd 0.18727 0.39143 0.70837 0.0
O79 O 0.11486 0.36342 0.78295 0.0
Cd80 Cd 0.12037 0.31565 0.73551 0.0
O81 O 0.10498 0.254 0.69137 0.0
C82 C 0.09174 0.21789 0.70496 0.0
O83 O 0.08893 0.21761 0.74622 0.0
C84 C 0.13776 0.4062 0.79119 0.0
C85 C 0.25866 0.43679 0.65972 0.0
O86 O 0.20988 0.42745 0.64675 0.0
O87 O 0.27472 0.42725 0.69666 0.0
Pr88 Pr 0.96936 0.96416 0.52578 0.0
Pr89 Pr 0.07116 0.01322 0.51174 0.0
C90 C 0.87215 0.89698 0.52252 0.0
C91 C 0.8464 0.87918 0.55634 0.0
C92 C 0.87768 0.88956 0.60162 0.0
C93 C 0.85408 0.86718 0.63224 0.0
C94 C 0.79914 0.83412 0.61766 0.0
C95 C 0.76723 0.82661 0.57345 0.0
C96 C 0.79085 0.84887 0.54281 0.0
C97 C 0.02139 0.04411 0.59256 0.0
C98 C 0.07179 0.96373 0.59318 0.0
C99 C 0.16132 0.06739 0.49294 0.0
C100 C 0.18724 0.1133 0.487 0.0
C101 C 0.22768 0.1274 0.46665 0.0
C102 C 0.24924 0.16955 0.45685 0.0
C103 C 0.23052 0.19793 0.46726 0.0
C104 C 0.1909 0.18436 0.48866 0.0
C105 C 0.1693 0.14207 0.4985 0.0
C106 C 0.0104 0.92365 0.4604 0.0
C107 C 0.98202 0.04313 0.47456 0.0
O108 O 0.91219 0.89138 0.52205 0.0
O109 O 0.8815 0.9368 0.51841 0.0
O110 O 0.04268 0.03701 0.56459 0.0
O111 O 0.97597 0.009 0.58952 0.0
O112 O 0.10291 0.99869 0.57967 0.0
O113 O 0.01933 0.94078 0.5737 0.0
O114 O 0.16069 0.06321 0.5339 0.0
O115 O 0.1156 0.03869 0.46174 0.0
O116 O 0.99296 0.95016 0.46286 0.0
O117 O 0.05797 0.9418 0.4894 0.0
O118 O 0.94605 0.00522 0.48091 0.0
O119 O 0.03249 0.05412 0.48386 0.0
H120 H 0.92067 0.91336 0.61266 0.0
H121 H 0.87907 0.87367 0.66643 0.0
H122 H 0.72456 0.80173 0.56198 0.0
H123 H 0.7662 0.84091 0.50809 0.0
H124 H 0.2416 0.1054 0.45738 0.0
H125 H 0.27973 0.1797 0.44017 0.0
H126 H 0.17598 0.20593 0.49664 0.0
H127 H 0.13786 0.13141 0.51409 0.0
Pr128 Pr 0.47726 0.03001 0.09474 0.0
Pr129 Pr 0.54903 0.00864 0.06461 0.0
C130 C 0.42306 0.05395 0.13785 0.0
C131 C 0.43113 0.09686 0.15963 0.0
C132 C 0.38636 0.10062 0.15844 0.0
C133 C 0.39342 0.14167 0.17759 0.0
C134 C 0.44535 0.17934 0.1982 0.0
C135 C 0.49023 0.17572 0.1994 0.0
C136 C 0.48318 0.13473 0.18 0.0
C137 C 0.52298 0.08188 0.03501 0.0
C138 C 0.60514 0.08315 0.15793 0.0
C139 C 0.60414 0.9928 0.01608 0.0
C140 C 0.59515 0.95569 0.98273 0.0
C141 C 0.63582 0.96201 0.96432 0.0
C142 C 0.62808 0.92699 0.93248 0.0
C143 C 0.57959 0.88535 0.9188 0.0
C144 C 0.53843 0.87903 0.93677 0.0
C145 C 0.54621 0.91422 0.96872 0.0
C146 C 0.50993 0.95846 0.12611 0.0
C147 C 0.41894 0.94977 0.00491 0.0
O148 O 0.4571 0.04296 0.15785 0.0
O149 O 0.41208 0.04579 0.09396 0.0
O150 O 0.54759 0.07375 0.06794 0.0
O151 O 0.47384 0.06529 0.03473 0.0
O152 O 0.61543 0.07136 0.12207 0.0
O153 O 0.55542 0.06738 0.15798 0.0
O154 O 0.57546 0.01066 1.00253 0.0
O155 O 0.60764 0.98738 0.05725 0.0
O156 O 0.48101 0.96515 0.09459 0.0
O157 O 0.5585 0.97548 0.12444 0.0
O158 O 0.41006 0.96481 0.04019 0.0
O159 O 0.46834 0.96457 1.0043 0.0
H160 H 0.34599 0.07187 0.1425 0.0
H161 H 0.35845 0.14407 0.1765 0.0
H162 H 0.53053 0.2046 0.21522 0.0
H163 H 0.51828 0.13264 0.18074 0.0
H164 H 0.67363 0.99394 0.97478 0.0
H165 H 0.66018 0.93209 0.91892 0.0
H166 H 0.50092 0.84691 0.9265 0.0
H167 H 0.5144 0.9091 0.9827 0.0
Pr168 Pr 0.53486 0.60252 0.57568 0.0
Pr169 Pr 0.49026 0.51424 0.50087 0.0
C170 C 0.5431 0.67317 0.62717 0.0
C171 C 0.50814 0.67831 0.65018 0.0
C172 C 0.46987 0.64131 0.66191 0.0
C173 C 0.4339 0.64526 0.68067 0.0
C174 C 0.43579 0.68625 0.68794 0.0
C175 C 0.47475 0.72354 0.6772 0.0
C176 C 0.5107 0.71954 0.65828 0.0
C177 C 0.56453 0.5427 0.60458 0.0
C178 C 0.41136 0.51207 0.56027 0.0
C179 C 0.48294 0.43859 0.46204 0.0
C180 C 0.522 0.42611 0.45513 0.0
C181 C 0.5246 0.41666 0.41141 0.0
C182 C 0.56025 0.4036 0.40444 0.0
C183 C 0.59356 0.39935 0.441 0.0
C184 C 0.59231 0.41006 0.48488 0.0
C185 C 0.55685 0.42329 0.49192 0.0
C186 C 0.47169 0.57611 0.45846 0.0
C187 C 0.61702 0.60147 0.52341 0.0
O188 O 0.52512 0.66299 0.5829 0.0
O189 O 0.56406 0.65019 0.6432 0.0
O190 O 0.5187 0.53203 0.57898 0.0
O191 O 0.59685 0.58611 0.61666 0.0
O192 O 0.41423 0.48957 0.52541 0.0
O193 O 0.45018 0.55358 0.58252 0.0
O194 O 0.48313 0.4474 0.50366 0.0
O195 O 0.47613 0.46556 0.43864 0.0
O196 O 0.49343 0.5809 0.49992 0.0
O197 O 0.45581 0.5357 0.43718 0.0
O198 O 0.60486 0.62749 0.545 0.0
O199 O 0.58245 0.55763 0.50857 0.0
H200 H 0.46725 0.60918 0.65598 0.0
H201 H 0.40403 0.61621 0.68882 0.0
H202 H 0.47657 0.75539 0.68267 0.0
H203 H 0.53981 0.74833 0.64925 0.0
H204 H 0.49878 0.41905 0.38256 0.0
H205 H 0.56118 0.39595 0.3704 0.0
H206 H 0.61801 0.40726 0.51353 0.0
H207 H 0.55645 0.43078 0.52617 0.0
Pr208 Pr 0.04283 0.55109 0.96353 0.0
Pr209 Pr 0.03788 0.48524 0.01573 0.0
C210 C 0.03172 0.61164 0.92193 0.0
C211 C 0.99003 0.62315 0.9117 0.0
C212 C 0.98181 0.63953 0.87331 0.0
C213 C 0.93512 0.64083 0.85739 0.0
C214 C 0.89538 0.6242 0.87883 0.0
C215 C 0.90586 0.61139 0.9194 0.0
C216 C 0.95353 0.61183 0.93627 0.0
C217 C 0.14298 0.5791 0.02582 0.0
C218 C 0.00848 0.55576 0.05566 0.0
C219 C 0.05709 0.43168 0.06415 0.0
C220 C 0.10438 0.42928 0.0866 0.0
C221 C 0.11168 0.42231 0.13051 0.0
C222 C 0.15842 0.42369 0.15403 0.0
C223 C 0.19855 0.43228 0.13397 0.0
C224 C 0.1911 0.43859 0.08982 0.0
C225 C 0.14417 0.43691 0.06615 0.0
C226 C 0.93503 0.45816 0.95915 0.0
C227 C 0.07771 0.48528 0.92415 0.0
O228 O 0.01754 0.57178 0.90006 0.0
O229 O 0.05865 0.62134 0.96463 0.0
O230 O 0.09875 0.56073 0.03328 0.0
O231 O 0.1363 0.58105 0.98383 0.0
O232 O 0.03241 0.53366 0.0687 0.0
O233 O 0.9976 0.55883 0.01324 0.0
O234 O 0.05611 0.46633 0.08217 0.0
O235 O 0.04059 0.42201 0.01992 0.0
O236 O 0.97708 0.4755 0.94751 0.0
O237 O 0.94508 0.45254 0.99984 0.0
O238 O 0.055 0.5082 0.91123 0.0
O239 O 0.08443 0.47882 0.96565 0.0
H240 H 0.00988 0.64882 0.85423 0.0
H241 H 0.928 0.65141 0.82631 0.0
H242 H 0.87585 0.59852 0.9365 0.0
H243 H 0.95953 0.59967 0.96637 0.0
H244 H 0.08162 0.41661 0.14692 0.0
H245 H 0.16371 0.41875 0.18811 0.0
H246 H 0.22184 0.44528 0.07397 0.0
H247 H 0.1397 0.44279 0.03244 0.0
C248 C 0.26219 0.27325 0.38754 0.0
C249 C 0.31081 0.31163 0.41649 0.0
C250 C 0.29708 0.28035 0.48225 0.0
C251 C 0.25099 0.24062 0.45278 0.0
N252 N 0.17974 0.20432 0.38149 0.0
N253 N 0.36461 0.35856 0.49123 0.0
C254 C 0.22997 0.23905 0.40676 0.0
C255 C 0.32476 0.31744 0.46402 0.0
N256 N 0.24898 0.2678 0.34161 0.0
N257 N 0.31553 0.28166 0.52696 0.0
H258 H 0.38254 0.38635 0.47778 0.0
H259 H 0.37581 0.36611 0.5264 0.0
H260 H 0.29474 0.25543 0.54138 0.0
H261 H 0.35218 0.30773 0.54931 0.0
H262 H 0.21797 0.23793 0.31861 0.0
H263 H 0.27067 0.29248 0.32611 0.0
H264 H 0.16003 0.20313 0.34879 0.0
H265 H 0.15568 0.17865 0.39497 0.0
C266 C 0.28673 0.84483 0.9316 0.0
C267 C 0.29052 0.84873 0.88768 0.0
C268 C 0.37225 0.92313 0.9207 0.0
C269 C 0.37311 0.91586 0.96484 0.0
N270 N 0.33513 0.86545 0.01154 0.0
N271 N 0.34118 0.88934 0.84055 0.0
C272 C 0.33111 0.87574 0.97023 0.0
C273 C 0.33408 0.8875 0.8821 0.0
N274 N 0.2404 0.81159 0.93631 0.0
N275 N 0.40721 0.96435 0.91548 0.0
H276 H 0.31456 0.86411 0.81124 0.0
H277 H 0.3759 0.91427 0.83576 0.0
H278 H 0.43602 0.99137 0.94267 0.0
H279 H 0.4043 0.97297 0.88438 0.0
H280 H 0.23338 0.80957 0.96736 0.0
H281 H 0.20681 0.78889 0.90857 0.0
H282 H 0.3083 0.83442 0.01618 0.0
H283 H 0.3682 0.88579 0.04039 0.0
C284 C 0.62932 0.48085 0.6606 0.0
C285 C 0.59157 0.45505 0.68206 0.0
C286 C 0.53997 0.49067 0.65693 0.0
C287 C 0.57409 0.51267 0.63131 0.0
N288 N 0.64941 0.5266 0.60593 0.0
N289 N 0.50419 0.42782 0.69132 0.0
C290 C 0.61825 0.50707 0.63231 0.0
C291 C 0.54497 0.45782 0.67757 0.0
N292 N 0.67695 0.48208 0.66899 0.0
N293 N 0.50487 0.503 0.66406 0.0
H294 H 0.50512 0.40211 0.70516 0.0
H295 H 0.46704 0.42543 0.68447 0.0
H296 H 0.50193 0.52872 0.6519 0.0
H297 H 0.48298 0.49118 0.68625 0.0
H298 H 0.70816 0.50312 0.65757 0.0
H299 H 0.68751 0.4649 0.6908 0.0
H300 H 0.6778 0.51939 0.60042 0.0
H301 H 0.64448 0.54813 0.58712 0.0
C302 C 0.93024 0.58907 0.11644 0.0
C303 C 0.97285 0.62631 0.1521 0.0
C304 C 0.03897 0.61639 0.12533 0.0
C305 C 0.99617 0.57957 0.08933 0.0
N306 N 0.90177 0.53463 0.04668 0.0
N307 N 0.06747 0.6743 0.19255 0.0
C308 C 0.94208 0.5672 0.08371 0.0
C309 C 0.02718 0.63954 0.15713 0.0
N310 N 0.87819 0.57234 0.11576 0.0
N311 N 0.09102 0.63089 0.12733 0.0
H312 H 0.06073 0.69414 0.21408 0.0
H313 H 0.10748 0.68313 0.2019 0.0
H314 H 0.10126 0.61568 0.10428 0.0
H315 H 0.12464 0.65945 0.15 0.0
H316 H 0.84566 0.54225 0.09425 0.0
H317 H 0.86742 0.58629 0.13944 0.0
H318 H 0.86278 0.52849 0.03672 0.0
H319 H 0.90777 0.51513 0.02402 0.0
C320 C 0.4644 0.27357 0.28585 0.0
C321 C 0.45562 0.30047 0.25757 0.0
C322 C 0.45008 0.25205 0.19203 0.0
C323 C 0.45236 0.22245 0.21928 0.0
N324 N 0.45666 0.20196 0.29095 0.0
N325 N 0.43209 0.31175 0.18248 0.0
C326 C 0.4584 0.23246 0.26596 0.0
C327 C 0.44686 0.28908 0.21034 0.0
N328 N 0.47993 0.28794 0.33187 0.0
N329 N 0.45134 0.24489 0.14872 0.0
H330 H 0.42797 0.3384 0.19418 0.0
H331 H 0.41924 0.30167 0.14728 0.0
H332 H 0.45265 0.21758 0.13397 0.0
H333 H 0.45571 0.26793 0.12878 0.0
H334 H 0.49277 0.27248 0.35441 0.0
H335 H 0.48437 0.31763 0.34783 0.0
H336 H 0.4541 0.20465 0.32362 0.0
H337 H 0.45398 0.17209 0.27796 0.0
C338 C 0.14142 0.90942 0.65674 0.0
C339 C 0.13351 0.91496 0.69941 0.0
C340 C 0.08533 0.9529 0.67247 0.0
C341 C 0.09571 0.94938 0.63065 0.0
N342 N 0.1415 0.93142 0.58555 0.0
N343 N 0.1069 0.94883 0.75108 0.0
C344 C 0.12657 0.93016 0.62375 0.0
C345 C 0.10784 0.93857 0.70814 0.0
N346 N 0.15994 0.88195 0.64656 0.0
N347 N 0.05373 0.96977 0.67803 0.0
H348 H 0.12361 0.93939 0.77809 0.0
H349 H 0.0939 0.96994 0.76097 0.0
H350 H 0.03973 0.98361 0.6541 0.0
H351 H 0.03891 0.96795 0.70524 0.0
H352 H 0.16045 0.8722 0.61427 0.0
H353 H 0.17042 0.8654 0.66927 0.0
H354 H 0.16934 0.92296 0.58119 0.0
H355 H 0.12938 0.94418 0.55945 0.0
C356 C 0.78975 0.36797 0.88843 0.0
C357 C 0.76892 0.39568 0.87577 0.0
C358 C 0.85986 0.46219 0.9083 0.0
C359 C 0.87918 0.43568 0.927 0.0
N360 N 0.86195 0.3625 0.93621 0.0
N361 N 0.78335 0.47064 0.8834 0.0
C362 C 0.84378 0.3883 0.91778 0.0
C363 C 0.80381 0.44318 0.88816 0.0
N364 N 0.75934 0.32256 0.87023 0.0
N365 N 0.89489 0.50564 0.90911 0.0
H366 H 0.74223 0.45853 0.87198 0.0
H367 H 0.80691 0.50548 0.8958 0.0
H368 H 0.9361 0.52158 0.92516 0.0
H369 H 0.88311 0.52355 0.88929 0.0
H370 H 0.77416 0.30121 0.87451 0.0
H371 H 0.72068 0.30659 0.84713 0.0
H372 H 0.83656 0.32896 0.93577 0.0
H373 H 0.90232 0.37514 0.95367 0.0
C374 C 0.71087 0.61394 0.45484 0.0
C375 C 0.7358 0.66077 0.45709 0.0
C376 C 0.69846 0.66997 0.51643 0.0
C377 C 0.66732 0.62252 0.50971 0.0
N378 N 0.66616 0.55351 0.49003 0.0
N379 N 0.74856 0.73285 0.48601 0.0
C380 C 0.67989 0.59549 0.48394 0.0
C381 C 0.72821 0.68861 0.48674 0.0
N382 N 0.71367 0.58651 0.42278 0.0
N383 N 0.70403 0.6974 0.55381 0.0
H384 H 0.77252 0.74846 0.46619 0.0
H385 H 0.73754 0.75286 0.50197 0.0
H386 H 0.69198 0.68528 0.58087 0.0
H387 H 0.72811 0.73223 0.5614 0.0
H388 H 0.69096 0.55152 0.41574 0.0
H389 H 0.73477 0.59845 0.40007 0.0
H390 H 0.6783 0.53376 0.47528 0.0
H391 H 0.64963 0.54105 0.51502 0.0
C392 C 0.34167 0.48029 0.21137 0.0
C393 C 0.34228 0.44011 0.21304 0.0
C394 C 0.25126 0.39568 0.15818 0.0
C395 C 0.24888 0.4353 0.15977 0.0
N396 N 0.28877 0.51467 0.19012 0.0
N397 N 0.29794 0.35927 0.1904 0.0
C398 C 0.29342 0.47753 0.18676 0.0
C399 C 0.29711 0.39768 0.18705 0.0
N400 N 0.38726 0.52109 0.2333 0.0
N401 N 0.21005 0.35638 0.12829 0.0
H402 H 0.33202 0.35948 0.20862 0.0
H403 H 0.26428 0.32699 0.17698 0.0
H404 H 0.17538 0.35352 0.10736 0.0
H405 H 0.21147 0.32733 0.12171 0.0
H406 H 0.39165 0.5517 0.22885 0.0
H407 H 0.42238 0.52451 0.25398 0.0
H408 H 0.31714 0.54531 0.21319 0.0
H409 H 0.2546 0.51419 0.17168 0.0
C410 C 0.62915 0.17773 0.99683 0.0
C411 C 0.59566 0.18703 0.96507 0.0
C412 C 0.51556 0.12244 0.97245 0.0
C413 C 0.54852 0.11458 0.00706 0.0
N414 N 0.63664 0.1245 0.03756 0.0
N415 N 0.50785 0.1749 0.93043 0.0
C416 C 0.60551 0.13966 0.01568 0.0
C417 C 0.53919 0.16123 0.95514 0.0
N418 N 0.68377 0.20546 0.0092 0.0
N419 N 0.46218 0.09078 0.95255 0.0
H420 H 0.5236 0.20353 0.9177 0.0
H421 H 0.46718 0.16085 0.92683 0.0
H422 H 0.44379 0.05913 0.95913 0.0
H423 H 0.43773 0.09289 0.92432 0.0
H424 H 0.71054 0.2047 0.0366 0.0
H425 H 0.70251 0.2319 0.99433 0.0
H426 H 0.67752 0.13917 0.04208 0.0
H427 H 0.62083 0.0933 0.04521 0.0
C428 C 0.01136 0.83605 0.37907 0.0
C429 C 0.95598 0.80271 0.35925 0.0
C430 C 0.9338 0.85032 0.40277 0.0
C431 C 0.98931 0.88432 0.42109 0.0
N432 N 0.07636 0.91532 0.41017 0.0
N433 N 0.86409 0.78445 0.34304 0.0
C434 C 0.02674 0.8789 0.4043 0.0
C435 C 0.91702 0.81164 0.36851 0.0
N436 N 0.04981 0.82653 0.3758 0.0
N437 N 0.89692 0.85419 0.41839 0.0
H438 H 0.85042 0.75715 0.31646 0.0
H439 H 0.83459 0.79163 0.34506 0.0
H440 H 0.90631 0.88321 0.44015 0.0
H441 H 0.85745 0.82775 0.41127 0.0
H442 H 0.09055 0.84841 0.39359 0.0
H443 H 0.04083 0.79511 0.35949 0.0
H444 H 0.10343 0.91377 0.39537 0.0
H445 H 0.08736 0.94808 0.42417 0.0
C446 C 0.30261 0.67068 0.69332 0.0
C447 C 0.31843 0.69552 0.73816 0.0
C448 C 0.41013 0.7109 0.75129 0.0
C449 C 0.39546 0.68954 0.7053 0.0
N450 N 0.3304 0.65475 0.63042 0.0
N451 N 0.38887 0.74594 0.80748 0.0
C452 C 0.3424 0.67101 0.67566 0.0
C453 C 0.37267 0.71745 0.76659 0.0
N454 N 0.24932 0.64534 0.66824 0.0
N455 N 0.45924 0.72364 0.78065 0.0
H456 H 0.36268 0.75183 0.81979 0.0
H457 H 0.42902 0.76674 0.82737 0.0
H458 H 0.48771 0.71938 0.77056 0.0
H459 H 0.47007 0.73491 0.81556 0.0
H460 H 0.23473 0.62255 0.63734 0.0
H461 H 0.21893 0.6441 0.68006 0.0
H462 H 0.29413 0.64535 0.60633 0.0
H463 H 0.35831 0.65396 0.61625 0.0
C464 C 0.70449 0.77001 0.6814 0.0
C465 C 0.7187 0.73741 0.68958 0.0
C466 C 0.78897 0.77069 0.65412 0.0
C467 C 0.7756 0.80391 0.6467 0.0
N468 N 0.73008 0.84188 0.66229 0.0
N469 N 0.78334 0.71423 0.6955 0.0
C470 C 0.73633 0.80571 0.66333 0.0
C471 C 0.76384 0.74019 0.67968 0.0
N472 N 0.65924 0.76571 0.68878 0.0
N473 N 0.8229 0.76621 0.63425 0.0
H474 H 0.76635 0.69186 0.71496 0.0
H475 H 0.81944 0.71816 0.69333 0.0
H476 H 0.84146 0.78703 0.61427 0.0
H477 H 0.82868 0.73913 0.63396 0.0
H478 H 0.64346 0.78541 0.67861 0.0
H479 H 0.63507 0.74033 0.70234 0.0
H480 H 0.70588 0.84745 0.67787 0.0
H481 H 0.75309 0.8686 0.64937 0.0
C482 C 0.68874 0.12529 0.28147 0.0
C483 C 0.72656 0.17053 0.28332 0.0
C484 C 0.68549 0.15859 0.20199 0.0
C485 C 0.64967 0.11276 0.19992 0.0
N486 N 0.62587 0.04997 0.23481 0.0
N487 N 0.76793 0.22849 0.2449 0.0
C488 C 0.65396 0.09535 0.23882 0.0
C489 C 0.72708 0.18669 0.24336 0.0
N490 N 0.68399 0.1114 0.32052 0.0
N491 N 0.67833 0.17566 0.16511 0.0
H492 H 0.799 0.2498 0.27473 0.0
H493 H 0.77361 0.24052 0.2162 0.0
H494 H 0.64845 0.15601 0.1342 0.0
H495 H 0.69935 0.20982 0.16598 0.0
H496 H 0.65281 0.08033 0.32112 0.0
H497 H 0.70815 0.13226 0.35276 0.0
H498 H 0.63157 0.03497 0.26117 0.0
H499 H 0.60083 0.02693 0.20388 0.0
C500 C 0.49711 0.68863 0.42777 0.0
C501 C 0.46354 0.67264 0.38193 0.0
C502 C 0.42499 0.5956 0.39295 0.0
C503 C 0.46628 0.61076 0.43531 0.0
N504 N 0.54693 0.67497 0.48991 0.0
N505 N 0.39966 0.60896 0.31895 0.0
C506 C 0.5037 0.65815 0.45193 0.0
C507 C 0.42855 0.62554 0.36396 0.0
N508 N 0.52067 0.73274 0.44957 0.0
N509 N 0.38056 0.55327 0.38123 0.0
H510 H 0.40236 0.62949 0.29633 0.0
H511 H 0.37724 0.5747 0.30342 0.0
H512 H 0.3734 0.53194 0.40326 0.0
H513 H 0.34748 0.54184 0.35249 0.0
H514 H 0.54083 0.74496 0.48431 0.0
H515 H 0.51457 0.75592 0.43451 0.0
H516 H 0.57902 0.7082 0.49903 0.0
H517 H 0.55276 0.6557 0.5109 0.0
C518 C 0.07077 0.41993 0.81494 0.0
C519 C 0.12431 0.42926 0.82463 0.0
C520 C 0.14884 0.47809 0.8989 0.0
C521 C 0.09414 0.46533 0.89072 0.0
N522 N 1.00137 0.41736 0.84416 0.0
N523 N 0.21305 0.4627 0.87818 0.0
C524 C 0.0547 0.4345 0.84952 0.0
C525 C 0.16309 0.45727 0.86725 0.0
N526 N 0.03548 0.39821 0.77205 0.0
N527 N 0.18752 0.5113 0.93612 0.0
H528 H 0.22511 0.44869 0.85573 0.0
H529 H 0.24117 0.47825 0.91044 0.0
H530 H 0.17874 0.52711 0.95999 0.0
H531 H 0.22859 0.52571 0.94157 0.0
H532 H 0.99781 0.39476 0.76141 0.0
H533 H 0.04577 0.38736 0.74574 0.0
H534 H 0.97046 0.39112 0.81716 0.0
H535 H 0.98768 0.4262 0.86891 0.0
C536 C 0.57565 0.82328 0.81222 0.0
C537 C 0.59764 0.79832 0.83091 0.0
C538 C 0.59251 0.82057 0.90507 0.0
C539 C 0.57433 0.84821 0.8873 0.0
N540 N 0.53389 0.86664 0.82311 0.0
N541 N 0.61103 0.76133 0.88948 0.0
C542 C 0.56064 0.8462 0.84033 0.0
C543 C 0.60068 0.79299 0.8756 0.0
N544 N 0.57187 0.8269 0.76855 0.0
N545 N 0.60469 0.82264 0.95048 0.0
H546 H 0.61671 0.74041 0.86818 0.0
H547 H 0.60911 0.75289 0.92032 0.0
H548 H 0.59709 0.84117 0.97273 0.0
H549 H 0.62449 0.80774 0.96651 0.0
H550 H 0.5616 0.84842 0.75426 0.0
H551 H 0.58139 0.80959 0.74685 0.0
H552 H 0.5187 0.86353 0.78865 0.0
H553 H 0.52278 0.88371 0.84342 0.0
C554 C 0.97241 0.14864 0.48213 0.0
C555 C 0.92704 0.13434 0.44387 0.0
C556 C 0.92053 0.06176 0.42305 0.0
C557 C 0.96624 0.07602 0.4614 0.0
N558 N 0.041 0.13627 0.52382 0.0
N559 N 0.86253 0.0812 0.37393 0.0
C560 C 0.99411 0.12057 0.48949 0.0
C561 C 0.90232 0.09191 0.41321 0.0
N562 N 0.99283 0.18805 0.51315 0.0
N563 N 0.89466 0.01933 0.39594 0.0
H564 H 0.84825 0.10244 0.36595 0.0
H565 H 0.84598 0.05293 0.34773 0.0
H566 H 0.91008 0.99824 0.39888 0.0
H567 H 0.85726 1.00432 0.37121 0.0
H568 H 0.02126 0.19792 0.54476 0.0
H569 H 0.97858 0.20986 0.5089 0.0
H570 H 0.06738 0.17016 0.54004 0.0
H571 H 0.05542 0.11628 0.53564 0.0
C572 C 0.26351 0.68523 0.1096 0.0
C573 C 0.26477 0.66827 0.149 0.0
C574 C 0.20421 0.59182 0.10129 0.0
C575 C 0.19326 0.60959 0.06392 0.0
N576 N 0.21034 0.67564 0.03435 0.0
N577 N 0.23481 0.60465 0.18294 0.0
C578 C 0.22296 0.65688 0.06807 0.0
C579 C 0.23555 0.62122 0.14506 0.0
N580 N 0.30145 0.72849 0.11179 0.0
N581 N 0.18402 0.54664 0.09474 0.0
H582 H 0.25668 0.62498 0.21566 0.0
H583 H 0.20934 0.57101 0.18212 0.0
H584 H 0.16169 0.52468 0.06272 0.0
H585 H 0.19393 0.53187 0.11978 0.0
H586 H 0.30562 0.74124 0.08319 0.0
H587 H 0.33246 0.74995 0.14158 0.0
H588 H 0.22638 0.71019 0.03889 0.0
H589 H 0.18124 0.65747 1.003 0.0
C590 C 0.31608 0.42973 0.61566 0.0
C591 C 0.29437 0.45459 0.63096 0.0
C592 C 0.33914 0.511 0.58971 0.0
C593 C 0.36655 0.48925 0.57978 0.0
N594 N 0.38874 0.43232 0.59235 0.0
N595 N 0.29077 0.52223 0.63723 0.0
C596 C 0.35682 0.4496 0.59487 0.0
C597 C 0.30711 0.49606 0.619 0.0
N598 N 0.29671 0.38641 0.61971 0.0
N599 N 0.34295 0.5455 0.57041 0.0
H600 H 0.26787 0.5127 0.65906 0.0
H601 H 0.30371 0.55498 0.63391 0.0
H602 H 0.36497 0.55653 0.5481 0.0
H603 H 0.32031 0.56021 0.57293 0.0
H604 H 0.30695 0.36517 0.60475 0.0
H605 H 0.26617 0.37012 0.63383 0.0
H606 H 0.38744 0.40686 0.60788 0.0
H607 H 0.42017 0.44603 0.57879 0.0
C608 C 0.76828 0.58756 0.78441 0.0
C609 C 0.74027 0.60144 0.80655 0.0
C610 C 0.81618 0.63349 0.87668 0.0
C611 C 0.84067 0.61478 0.85553 0.0
N612 N 0.82859 0.55979 0.79389 0.0
N613 N 0.73205 0.62655 0.87747 0.0
C614 C 0.81296 0.58708 0.81092 0.0
C615 C 0.76246 0.62102 0.85393 0.0
N616 N 0.75572 0.57838 0.73833 0.0
N617 N 0.84452 0.66442 0.91737 0.0
H618 H 0.69151 0.61526 0.86248 0.0
H619 H 0.74533 0.6374 0.91266 0.0
H620 H 0.88465 0.67576 0.9343 0.0
H621 H 0.8297 0.68198 0.93193 0.0
H622 H 0.77894 0.57208 0.72194 0.0
H623 H 0.72729 0.58293 0.71691 0.0
H624 H 0.80651 0.53663 0.76253 0.0
H625 H 0.85951 0.55652 0.81315 0.0
C626 C 0.48413 0.90813 0.22689 0.0
C627 C 0.46857 0.86288 0.20998 0.0
C628 C 0.47674 0.87936 0.13621 0.0
C629 C 0.48895 0.92377 0.15246 0.0
N630 N 0.49517 0.97801 0.21041 0.0
N631 N 0.44276 0.80335 0.14676 0.0
C632 C 0.48975 0.9373 0.19694 0.0
C633 C 0.46302 0.84792 0.16413 0.0
N634 N 0.49605 0.92391 0.27222 0.0
N635 N 0.47926 0.8675 0.09432 0.0
H636 H 0.43329 0.77963 0.16625 0.0
H637 H 0.43168 0.78917 0.11247 0.0
H638 H 0.48604 0.88863 0.07205 0.0
H639 H 0.4774 0.83778 0.08245 0.0
H640 H 0.51326 0.9577 0.28761 0.0
H641 H 0.49361 0.90394 0.2954 0.0
H642 H 0.49033 0.98815 0.24051 0.0
H643 H 0.50004 1.00018 0.18947 0.0
C644 C 0.10886 0.15619 0.68238 0.0
C645 C 0.07607 0.17525 0.6739 0.0
C646 C 0.00793 0.10866 0.6121 0.0
C647 C 0.04108 0.08975 0.62013 0.0
N648 N 0.12523 0.09697 0.65912 0.0
N649 N 0.99759 0.17283 0.62804 0.0
C650 C 0.09234 0.11412 0.65403 0.0
C651 C 0.02659 0.15241 0.63787 0.0
N652 N 0.15543 0.17808 0.71826 0.0
N653 N 0.95839 0.0847 0.57966 0.0
H654 H 0.00811 0.20355 0.6475 0.0
H655 H 0.96462 0.16098 0.59921 0.0
H656 H 0.94531 0.05513 0.55654 0.0
H657 H 0.92909 0.09316 0.57597 0.0
H658 H 0.17832 0.16415 0.73008 0.0
H659 H 0.17041 0.21005 0.73789 0.0
H660 H 0.16536 0.11484 0.67928 0.0
H661 H 0.11318 0.06509 0.64133 0.0
C662 C 0.70371 0.38934 0.40903 0.0
C663 C 0.69125 0.34628 0.41618 0.0
C664 C 0.61343 0.33723 0.43742 0.0
C665 C 0.62784 0.38146 0.43307 0.0
N666 N 0.69105 0.4525 0.42186 0.0
N667 N 0.63957 0.28172 0.4434 0.0
C668 C 0.67426 0.40836 0.42084 0.0
C669 C 0.64788 0.32111 0.43255 0.0
N670 N 0.74315 0.41171 0.39023 0.0
N671 N 0.56541 0.3098 0.44398 0.0
H672 H 0.66259 0.26789 0.43865 0.0
H673 H 0.61263 0.26443 0.46032 0.0
H674 H 0.5386 0.32001 0.44705 0.0
H675 H 0.54966 0.27566 0.44229 0.0
H676 H 0.74991 0.44058 0.37905 0.0
H677 H 0.76733 0.39987 0.38327 0.0
H678 H 0.72757 0.47531 0.41803 0.0
H679 H 0.67031 0.46742 0.43013 0.0
loop_
_geom_bond_atom_site_label_1
_geom_bond_atom_site_label_2
_geom_bond_distance
_geom_bond_site_symmetry_2
_ccdc_geom_bond_type
O0 Cd1 2.300 . S
O0 C7 1.275 . S
Cd1 O0 2.300 . S
Cd1 O9 2.381 . S
Cd1 O10 2.378 . S
O2 Cd3 2.385 . S
O2 C7 1.255 . S
Cd3 O2 2.385 . S
Cd3 O4 2.317 . S
O4 Cd3 2.317 . S
O4 C5 1.232 . S
C5 O4 1.232 . S
C5 O6 1.218 . S
O6 C5 1.218 . S
C7 O0 1.275 . S
C7 O2 1.255 . S
C8 O9 1.258 . S
C8 O10 1.256 . S
O9 Cd1 2.381 . S
O9 C8 1.258 . S
O10 Cd1 2.378 . S
O10 C8 1.256 . S
O11 Cd12 2.300 . S
O11 C18 1.275 . S
Cd12 O11 2.300 . S
Cd12 O20 2.381 . S
Cd12 O21 2.378 . S
O13 Cd14 2.385 . S
O13 C18 1.255 . S
Cd14 O13 2.385 . S
Cd14 O15 2.317 . S
O15 Cd14 2.317 . S
O15 C16 1.232 . S
C16 O15 1.232 . S
C16 O17 1.218 . S
O17 C16 1.218 . S
C18 O11 1.275 . S
C18 O13 1.255 . S
C19 O20 1.258 . S
C19 O21 1.256 . S
O20 Cd12 2.381 . S
O20 C19 1.258 . S
O21 Cd12 2.378 . S
O21 C19 1.256 . S
O22 Cd23 2.300 . S
O22 C29 1.275 . S
Cd23 O22 2.300 . S
Cd23 O31 2.381 . S
Cd23 O32 2.378 . S
O24 Cd25 2.385 . S
O24 C29 1.255 . S
Cd25 O24 2.385 . S
Cd25 O26 2.317 . S
O26 Cd25 2.317 . S
O26 C27 1.232 . S
C27 O26 1.232 . S
C27 O28 1.218 . S
O28 C27 1.218 . S
C29 O22 1.275 . S
C29 O24 1.255 . S
C30 O31 1.258 . S
C30 O32 1.256 . S
O31 Cd23 2.381 . S
O31 C30 1.258 . S
O32 Cd23 2.378 . S
O32 C30 1.256 . S
O33 Cd34 2.300 . S
O33 C40 1.275 . S
Cd34 O33 2.300 . S
Cd34 O42 2.381 . S
Cd34 O43 2.378 . S
O35 Cd36 2.385 . S
O35 C40 1.255 . S
Cd36 O35 2.385 . S
Cd36 O37 2.317 . S
O37 Cd36 2.317 . S
O37 C38 1.232 . S
C38 O37 1.232 . S
C38 O39 1.218 . S
O39 C38 1.218 . S
C40 O33 1.275 . S
C40 O35 1.255 . S
C41 O42 1.258 . S
C41 O43 1.256 . S
O42 Cd34 2.381 . S
O42 C41 1.258 . S
O43 Cd34 2.378 . S
O43 C41 1.256 . S
O44 Cd45 2.300 . S
O44 C51 1.275 . S
Cd45 O44 2.300 . S
Cd45 O53 2.381 . S
Cd45 O54 2.378 . S
O46 Cd47 2.385 . S
O46 C51 1.255 . S
Cd47 O46 2.385 . S
Cd47 O48 2.317 . S
O48 Cd47 2.317 . S
O48 C49 1.232 . S
C49 O48 1.232 . S
C49 O50 1.218 . S
O50 C49 1.218 . S
C51 O44 1.275 . S
C51 O46 1.255 . S
C52 O53 1.258 . S
C52 O54 1.256 . S
O53 Cd45 2.381 . S
O53 C52 1.258 . S
O54 Cd45 2.378 . S
O54 C52 1.256 . S
O55 Cd56 2.300 . S
O55 C62 1.275 . S
Cd56 O55 2.300 . S
Cd56 O64 2.381 . S
Cd56 O65 2.378 . S
O57 Cd58 2.385 . S
O57 C62 1.255 . S
Cd58 O57 2.385 . S
Cd58 O59 2.317 . S
O59 Cd58 2.317 . S
O59 C60 1.232 . S
C60 O59 1.232 . S
C60 O61 1.218 . S
O61 C60 1.218 . S
C62 O55 1.275 . S
C62 O57 1.255 . S
C63 O64 1.258 . S
C63 O65 1.256 . S
O64 Cd56 2.381 . S
O64 C63 1.258 . S
O65 Cd56 2.378 . S
O65 C63 1.256 . S
O66 Cd67 2.300 . S
O66 C73 1.275 . S
Cd67 O66 2.300 . S
Cd67 O75 2.381 . S
Cd67 O76 2.378 . S
O68 Cd69 2.385 . S
O68 C73 1.255 . S
Cd69 O68 2.385 . S
Cd69 O70 2.317 . S
O70 Cd69 2.317 . S
O70 C71 1.232 . S
C71 O70 1.232 . S
C71 O72 1.218 . S
O72 C71 1.218 . S
C73 O66 1.275 . S
C73 O68 1.255 . S
C74 O75 1.258 . S
C74 O76 1.256 . S
O75 Cd67 2.381 . S
O75 C74 1.258 . S
O76 Cd67 2.378 . S
O76 C74 1.256 . S
O77 Cd78 2.300 . S
O77 C84 1.275 . S
Cd78 O77 2.300 . S
Cd78 O86 2.381 . S
Cd78 O87 2.378 . S
O79 Cd80 2.385 . S
O79 C84 1.255 . S
Cd80 O79 2.385 . S
Cd80 O81 2.317 . S
O81 Cd80 2.317 . S
O81 C82 1.232 . S
C82 O81 1.232 . S
C82 O83 1.218 . S
O83 C82 1.218 . S
C84 O77 1.275 . S
C84 O79 1.255 . S
C85 O86 1.258 . S
C85 O87 1.256 . S
O86 Cd78 2.381 . S
O86 C85 1.258 . S
O87 Cd78 2.378 . S
O87 C85 1.256 . S
Pr88 C90 2.880 . S
Pr88 O108 2.562 . S
Pr88 O109 2.490 . S
Pr88 O110 2.695 1_665 S
Pr88 O111 2.513 1_565 S
Pr88 O113 2.437 1_655 S
Pr88 O116 2.436 . S
Pr88 O118 2.438 1_565 S
Pr89 C99 2.880 . S
Pr89 O110 2.436 . S
Pr89 O112 2.438 1_545 S
Pr89 O114 2.562 . S
Pr89 O115 2.490 . S
Pr89 O116 2.695 1_445 S
Pr89 O117 2.512 1_545 S
Pr89 O119 2.437 1_455 S
C90 Pr88 2.880 . S
C90 C91 1.491 . S
C90 O108 1.254 . S
C90 O109 1.225 . S
C91 C90 1.491 . S
C91 C92 1.392 . S
C91 C96 1.356 . S
C92 C91 1.392 . S
C92 C93 1.368 . S
C92 H120 0.929 . S
C93 C92 1.368 . S
C93 C94 1.386 . S
C93 H121 0.929 . S
C94 C93 1.386 . S
C94 C95 1.373 . S
C95 C94 1.373 . S
C95 C96 1.409 . S
C95 H122 0.931 . S
C96 C91 1.356 . S
C96 C95 1.409 . S
C96 H123 0.930 . S
C97 O110 1.270 . S
C97 O111 1.238 1_455 S
C98 O112 1.267 . S
C98 O113 1.278 . S
C99 Pr89 2.880 . S
C99 C100 1.491 . S
C99 O114 1.254 . S
C99 O115 1.225 . S
C100 C99 1.491 . S
C100 C101 1.392 . S
C100 C105 1.356 . S
C101 C100 1.392 . S
C101 C102 1.368 . S
C101 H124 0.929 . S
C102 C101 1.368 . S
C102 C103 1.386 . S
C102 H125 0.929 . S
C103 C102 1.386 . S
C103 C104 1.373 . S
C104 C103 1.373 . S
C104 C105 1.409 . S
C104 H126 0.931 . S
C105 C100 1.356 . S
C105 C104 1.409 . S
C105 H127 0.930 . S
C106 O116 1.270 . S
C106 O117 1.248 1_655 S
C107 O118 1.267 . S
C107 O119 1.278 . S
O108 Pr88 2.562 . S
O108 C90 1.254 . S
O109 Pr88 2.490 . S
O109 C90 1.225 . S
O110 Pr88 2.695 1_445 S
O110 Pr89 2.436 . S
O110 C97 1.270 . S
O111 Pr88 2.513 1_545 S
O111 C97 1.238 1_655 S
O112 Pr89 2.438 1_565 S
O112 C98 1.267 . S
O113 Pr88 2.437 1_455 S
O113 C98 1.278 . S
O114 Pr89 2.562 . S
O114 C99 1.254 . S
O115 Pr89 2.490 . S
O115 C99 1.225 . S
O116 Pr88 2.436 . S
O116 Pr89 2.695 1_665 S
O116 C106 1.270 . S
O117 Pr89 2.512 1_565 S
O117 C106 1.248 1_455 S
O118 Pr88 2.438 1_545 S
O118 C107 1.267 . S
O119 Pr89 2.437 1_655 S
O119 C107 1.278 . S
H120 C92 0.929 . S
H121 C93 0.929 . S
H122 C95 0.931 . S
H123 C96 0.930 . S
H124 C101 0.929 . S
H125 C102 0.929 . S
H126 C104 0.931 . S
H127 C105 0.930 . S
Pr128 C130 2.880 . S
Pr128 O148 2.562 . S
Pr128 O149 2.490 . S
Pr128 O150 2.695 . S
Pr128 O151 2.512 . S
Pr128 O153 2.437 . S
Pr128 O156 2.436 . S
Pr128 O158 2.438 1_544 S
Pr129 C139 2.880 1_544 S
Pr129 O150 2.436 . S
Pr129 O152 2.438 . S
Pr129 O154 2.562 1_544 S
Pr129 O155 2.490 1_545 S
Pr129 O156 2.695 . S
Pr129 O157 2.512 1_545 S
Pr129 O159 2.437 1_544 S
C130 Pr128 2.880 . S
C130 C131 1.491 . S
C130 O148 1.254 . S
C130 O149 1.225 . S
C131 C130 1.491 . S
C131 C132 1.392 . S
C131 C136 1.356 . S
C132 C131 1.392 . S
C132 C133 1.368 . S
C132 H160 0.929 . S
C133 C132 1.368 . S
C133 C134 1.386 . S
C133 H161 0.929 . S
C134 C133 1.386 . S
C134 C135 1.373 . S
C135 C134 1.373 . S
C135 C136 1.409 . S
C135 H162 0.931 . S
C136 C131 1.356 . S
C136 C135 1.409 . S
C136 H163 0.930 . S
C137 O150 1.270 1_556 S
C137 O151 1.248 1_556 S
C138 O152 1.267 . S
C138 O153 1.278 . S
C139 Pr129 2.880 1_566 S
C139 C140 1.491 . S
C139 O154 1.254 . S
C139 O155 1.225 1_556 S
C140 C139 1.491 . S
C140 C141 1.392 . S
C140 C145 1.356 . S
C141 C140 1.392 . S
C141 C142 1.368 . S
C141 H164 0.929 . S
C142 C141 1.368 . S
C142 C143 1.386 . S
C142 H165 0.929 . S
C143 C142 1.386 . S
C143 C144 1.373 . S
C144 C143 1.373 . S
C144 C145 1.409 . S
C144 H166 0.931 . S
C145 C140 1.356 . S
C145 C144 1.409 . S
C145 H167 0.930 . S
C146 O156 1.270 1_565 S
C146 O157 1.248 . S
C147 O158 1.267 . S
C147 O159 1.278 . S
O148 Pr128 2.562 . S
O148 C130 1.254 . S
O149 Pr128 2.490 . S
O149 C130 1.225 . S
O150 Pr128 2.695 . S
O150 Pr129 2.436 . S
O150 C137 1.270 1_554 S
O151 Pr128 2.512 . S
O151 C137 1.248 1_554 S
O152 Pr129 2.438 . S
O152 C138 1.267 . S
O153 Pr128 2.437 . S
O153 C138 1.278 . S
O154 Pr129 2.562 1_566 S
O154 C139 1.254 . S
O155 Pr129 2.490 1_565 S
O155 C139 1.225 1_554 S
O156 Pr128 2.436 . S
O156 Pr129 2.695 . S
O156 C146 1.270 1_545 S
O157 Pr129 2.512 1_565 S
O157 C146 1.248 . S
O158 Pr128 2.438 1_566 S
O158 C147 1.267 . S
O159 Pr129 2.437 1_566 S
O159 C147 1.278 . S
H160 C132 0.929 . S
H161 C133 0.929 . S
H162 C135 0.931 . S
H163 C136 0.930 . S
H164 C141 0.929 . S
H165 C142 0.929 . S
H166 C144 0.931 . S
H167 C145 0.930 . S
Pr168 C170 2.880 . S
Pr168 O188 2.562 . S
Pr168 O189 2.490 . S
Pr168 O190 2.695 . S
Pr168 O191 2.512 . S
Pr168 O193 2.437 . S
Pr168 O196 2.436 . S
Pr168 O198 2.438 . S
Pr169 C179 2.880 . S
Pr169 O190 2.436 . S
Pr169 O192 2.438 . S
Pr169 O194 2.562 . S
Pr169 O195 2.490 . S
Pr169 O196 2.695 . S
Pr169 O197 2.512 . S
Pr169 O199 2.437 . S
C170 Pr168 2.880 . S
C170 C171 1.491 . S
C170 O188 1.254 . S
C170 O189 1.225 . S
C171 C170 1.491 . S
C171 C172 1.392 . S
C171 C176 1.356 . S
C172 C171 1.392 . S
C172 C173 1.368 . S
C172 H200 0.929 . S
C173 C172 1.368 . S
C173 C174 1.386 . S
C173 H201 0.929 . S
C174 C173 1.386 . S
C174 C175 1.373 . S
C175 C174 1.373 . S
C175 C176 1.409 . S
C175 H202 0.931 . S
C176 C171 1.356 . S
C176 C175 1.409 . S
C176 H203 0.930 . S
C177 O190 1.270 . S
C177 O191 1.248 . S
C178 O192 1.267 . S
C178 O193 1.278 . S
C179 Pr169 2.880 . S
C179 C180 1.491 . S
C179 O194 1.254 . S
C179 O195 1.225 . S
C180 C179 1.491 . S
C180 C181 1.392 . S
C180 C185 1.356 . S
C181 C180 1.392 . S
C181 C182 1.368 . S
C181 H204 0.929 . S
C182 C181 1.368 . S
C182 C183 1.386 . S
C182 H205 0.929 . S
C183 C182 1.386 . S
C183 C184 1.373 . S
C184 C183 1.373 . S
C184 C185 1.409 . S
C184 H206 0.931 . S
C185 C180 1.356 . S
C185 C184 1.409 . S
C185 H207 0.930 . S
C186 O196 1.270 . S
C186 O197 1.248 . S
C187 O198 1.267 . S
C187 O199 1.278 . S
O188 Pr168 2.562 . S
O188 C170 1.254 . S
O189 Pr168 2.490 . S
O189 C170 1.225 . S
O190 Pr168 2.695 . S
O190 Pr169 2.436 . S
O190 C177 1.270 . S
O191 Pr168 2.512 . S
O191 C177 1.248 . S
O192 Pr169 2.438 . S
O192 C178 1.267 . S
O193 Pr168 2.437 . S
O193 C178 1.278 . S
O194 Pr169 2.562 . S
O194 C179 1.254 . S
O195 Pr169 2.490 . S
O195 C179 1.225 . S
O196 Pr168 2.436 . S
O196 Pr169 2.695 . S
O196 C186 1.270 . S
O197 Pr169 2.512 . S
O197 C186 1.248 . S
O198 Pr168 2.438 . S
O198 C187 1.267 . S
O199 Pr169 2.437 . S
O199 C187 1.278 . S
H200 C172 0.929 . S
H201 C173 0.929 . S
H202 C175 0.931 . S
H203 C176 0.930 . S
H204 C181 0.929 . S
H205 C182 0.929 . S
H206 C184 0.931 . S
H207 C185 0.930 . S
Pr208 C210 2.880 1_455 S
Pr208 O228 2.562 1_455 S
Pr208 O229 2.490 . S
Pr208 O230 2.695 1_556 S
Pr208 O231 2.512 1_556 S
Pr208 O233 2.437 1_556 S
Pr208 O236 2.436 1_455 S
Pr208 O238 2.438 . S
Pr209 C219 2.880 . S
Pr209 O230 2.436 . S
Pr209 O232 2.438 1_455 S
Pr209 O234 2.562 . S
Pr209 O235 2.490 . S
Pr209 O236 2.695 1_454 S
Pr209 O237 2.512 1_454 S
Pr209 O239 2.437 1_554 S
C210 Pr208 2.880 1_655 S
C210 C211 1.491 . S
C210 O228 1.254 . S
C210 O229 1.225 1_655 S
C211 C210 1.491 . S
C211 C212 1.392 . S
C211 C216 1.356 . S
C212 C211 1.392 . S
C212 C213 1.368 . S
C212 H240 0.929 1_655 S
C213 C212 1.368 . S
C213 C214 1.386 . S
C213 H241 0.929 . S
C214 C213 1.386 . S
C214 C215 1.373 . S
C215 C214 1.373 . S
C215 C216 1.409 . S
C215 H242 0.931 . S
C216 C211 1.356 . S
C216 C215 1.409 . S
C216 H243 0.930 . S
C217 O230 1.270 . S
C217 O231 1.248 . S
C218 O232 1.267 . S
C218 O233 1.278 1_655 S
C219 Pr209 2.880 . S
C219 C220 1.491 . S
C219 O234 1.254 . S
C219 O235 1.225 . S
C220 C219 1.491 . S
C220 C221 1.392 . S
C220 C225 1.356 . S
C221 C220 1.392 . S
C221 C222 1.368 . S
C221 H244 0.929 . S
C222 C221 1.368 . S
C222 C223 1.386 . S
C222 H245 0.929 . S
C223 C222 1.386 . S
C223 C224 1.373 . S
C224 C223 1.373 . S
C224 C225 1.409 . S
C224 H246 0.931 . S
C225 C220 1.356 . S
C225 C224 1.409 . S
C225 H247 0.930 . S
C226 O236 1.270 . S
C226 O237 1.248 . S
C227 O238 1.267 . S
C227 O239 1.278 . S
O228 Pr208 2.562 1_655 S
O228 C210 1.254 . S
O229 Pr208 2.490 . S
O229 C210 1.225 1_455 S
O230 Pr208 2.695 1_554 S
O230 Pr209 2.436 . S
O230 C217 1.270 . S
O231 Pr208 2.512 1_554 S
O231 C217 1.248 . S
O232 Pr209 2.438 1_655 S
O232 C218 1.267 . S
O233 Pr208 2.437 1_554 S
O233 C218 1.278 1_455 S
O234 Pr209 2.562 . S
O234 C219 1.254 . S
O235 Pr209 2.490 . S
O235 C219 1.225 . S
O236 Pr208 2.436 1_655 S
O236 Pr209 2.695 1_656 S
O236 C226 1.270 . S
O237 Pr209 2.512 1_656 S
O237 C226 1.248 . S
O238 Pr208 2.438 . S
O238 C227 1.267 . S
O239 Pr209 2.437 1_556 S
O239 C227 1.278 . S
H240 C212 0.929 1_455 S
H241 C213 0.929 . S
H242 C215 0.931 . S
H243 C216 0.930 . S
H244 C221 0.929 . S
H245 C222 0.929 . S
H246 C224 0.931 . S
H247 C225 0.930 . S
C248 C249 1.363 . S
C248 C254 1.379 . S
C248 N256 1.356 . S
C249 C248 1.363 . S
C249 C255 1.363 . S
C250 C251 1.363 . S
C250 C255 1.379 . S
C250 N257 1.356 . S
C251 C250 1.363 . S
C251 C254 1.363 . S
N252 C254 1.356 . S
N252 H264 0.984 . S
N252 H265 0.985 . S
N253 C255 1.356 . S
N253 H258 0.984 . S
N253 H259 0.985 . S
C254 C248 1.379 . S
C254 C251 1.363 . S
C254 N252 1.356 . S
C255 C249 1.363 . S
C255 C250 1.379 . S
C255 N253 1.356 . S
N256 C248 1.356 . S
N256 H262 0.984 . S
N256 H263 0.984 . S
N257 C250 1.356 . S
N257 H260 0.984 . S
N257 H261 0.985 . S
H258 N253 0.984 . S
H259 N253 0.985 . S
H260 N257 0.984 . S
H261 N257 0.985 . S
H262 N256 0.984 . S
H263 N256 0.984 . S
H264 N252 0.984 . S
H265 N252 0.985 . S
C266 C267 1.363 . S
C266 C272 1.379 . S
C266 N274 1.356 . S
C267 C266 1.363 . S
C267 C273 1.363 . S
C268 C269 1.363 . S
C268 C273 1.379 . S
C268 N275 1.356 . S
C269 C268 1.363 . S
C269 C272 1.363 . S
N270 C272 1.356 . S
N270 H282 0.984 1_556 S
N270 H283 0.985 1_556 S
N271 C273 1.356 . S
N271 H276 0.984 . S
N271 H277 0.985 . S
C272 C266 1.379 . S
C272 C269 1.363 . S
C272 N270 1.356 . S
C273 C267 1.363 . S
C273 C268 1.379 . S
C273 N271 1.356 . S
N274 C266 1.356 . S
N274 H280 0.984 . S
N274 H281 0.984 . S
N275 C268 1.356 . S
N275 H278 0.984 . S
N275 H279 0.985 . S
H276 N271 0.984 . S
H277 N271 0.985 . S
H278 N275 0.984 . S
H279 N275 0.985 . S
H280 N274 0.984 . S
H281 N274 0.984 . S
H282 N270 0.984 1_554 S
H283 N270 0.985 1_554 S
C284 C285 1.363 . S
C284 C290 1.379 . S
C284 N292 1.356 . S
C285 C284 1.363 . S
C285 C291 1.363 . S
C286 C287 1.363 . S
C286 C291 1.379 . S
C286 N293 1.356 . S
C287 C286 1.363 . S
C287 C290 1.363 . S
N288 C290 1.356 . S
N288 H300 0.984 . S
N288 H301 0.985 . S
N289 C291 1.356 . S
N289 H294 0.984 . S
N289 H295 0.985 . S
C290 C284 1.379 . S
C290 C287 1.363 . S
C290 N288 1.356 . S
C291 C285 1.363 . S
C291 C286 1.379 . S
C291 N289 1.356 . S
N292 C284 1.356 . S
N292 H298 0.984 . S
N292 H299 0.984 . S
N293 C286 1.356 . S
N293 H296 0.984 . S
N293 H297 0.985 . S
H294 N289 0.984 . S
H295 N289 0.985 . S
H296 N293 0.984 . S
H297 N293 0.985 . S
H298 N292 0.984 . S
H299 N292 0.984 . S
H300 N288 0.984 . S
H301 N288 0.985 . S
C302 C303 1.363 . S
C302 C308 1.379 . S
C302 N310 1.356 . S
C303 C302 1.363 . S
C303 C309 1.363 . S
C304 C305 1.363 . S
C304 C309 1.379 . S
C304 N311 1.356 1_655 S
C305 C304 1.363 . S
C305 C308 1.363 . S
N306 C308 1.356 . S
N306 H318 0.984 . S
N306 H319 0.985 . S
N307 C309 1.356 . S
N307 H312 0.984 . S
N307 H313 0.985 1_655 S
C308 C302 1.379 . S
C308 C305 1.363 . S
C308 N306 1.356 . S
C309 C303 1.363 . S
C309 C304 1.379 . S
C309 N307 1.356 . S
N310 C302 1.356 . S
N310 H316 0.984 . S
N310 H317 0.984 . S
N311 C304 1.356 1_455 S
N311 H314 0.984 . S
N311 H315 0.985 . S
H312 N307 0.984 . S
H313 N307 0.985 1_455 S
H314 N311 0.984 . S
H315 N311 0.985 . S
H316 N310 0.984 . S
H317 N310 0.984 . S
H318 N306 0.984 . S
H319 N306 0.985 . S
C320 C321 1.363 . S
C320 C326 1.379 . S
C320 N328 1.356 . S
C321 C320 1.363 . S
C321 C327 1.363 . S
C322 C323 1.363 . S
C322 C327 1.379 . S
C322 N329 1.356 . S
C323 C322 1.363 . S
C323 C326 1.363 . S
N324 C326 1.356 . S
N324 H336 0.984 . S
N324 H337 0.985 . S
N325 C327 1.356 . S
N325 H330 0.984 . S
N325 H331 0.985 . S
C326 C320 1.379 . S
C326 C323 1.363 . S
C326 N324 1.356 . S
C327 C321 1.363 . S
C327 C322 1.379 . S
C327 N325 1.356 . S
N328 C320 1.356 . S
N328 H334 0.984 . S
N328 H335 0.984 . S
N329 C322 1.356 . S
N329 H332 0.984 . S
N329 H333 0.985 . S
H330 N325 0.984 . S
H331 N325 0.985 . S
H332 N329 0.984 . S
H333 N329 0.985 . S
H334 N328 0.984 . S
H335 N328 0.984 . S
H336 N324 0.984 . S
H337 N324 0.985 . S
C338 C339 1.363 . S
C338 C344 1.379 . S
C338 N346 1.356 . S
C339 C338 1.363 . S
C339 C345 1.363 . S
C340 C341 1.363 . S
C340 C345 1.379 . S
C340 N347 1.356 . S
C341 C340 1.363 . S
C341 C344 1.363 . S
N342 C344 1.356 . S
N342 H354 0.984 . S
N342 H355 0.985 . S
N343 C345 1.356 . S
N343 H348 0.984 . S
N343 H349 0.985 . S
C344 C338 1.379 . S
C344 C341 1.363 . S
C344 N342 1.356 . S
C345 C339 1.363 . S
C345 C340 1.379 . S
C345 N343 1.356 . S
N346 C338 1.356 . S
N346 H352 0.984 . S
N346 H353 0.984 . S
N347 C340 1.356 . S
N347 H350 0.984 . S
N347 H351 0.985 . S
H348 N343 0.984 . S
H349 N343 0.985 . S
H350 N347 0.984 . S
H351 N347 0.985 . S
H352 N346 0.984 . S
H353 N346 0.984 . S
H354 N342 0.984 . S
H355 N342 0.985 . S
C356 C357 1.363 . S
C356 C362 1.379 . S
C356 N364 1.356 . S
C357 C356 1.363 . S
C357 C363 1.363 . S
C358 C359 1.363 . S
C358 C363 1.379 . S
C358 N365 1.356 . S
C359 C358 1.363 . S
C359 C362 1.363 . S
N360 C362 1.356 . S
N360 H372 0.984 . S
N360 H373 0.985 . S
N361 C363 1.356 . S
N361 H366 0.984 . S
N361 H367 0.985 . S
C362 C356 1.379 . S
C362 C359 1.363 . S
C362 N360 1.356 . S
C363 C357 1.363 . S
C363 C358 1.379 . S
C363 N361 1.356 . S
N364 C356 1.356 . S
N364 H370 0.984 . S
N364 H371 0.984 . S
N365 C358 1.356 . S
N365 H368 0.984 . S
N365 H369 0.985 . S
H366 N361 0.984 . S
H367 N361 0.985 . S
H368 N365 0.984 . S
H369 N365 0.985 . S
H370 N364 0.984 . S
H371 N364 0.984 . S
H372 N360 0.984 . S
H373 N360 0.985 . S
C374 C375 1.363 . S
C374 C380 1.379 . S
C374 N382 1.356 . S
C375 C374 1.363 . S
C375 C381 1.363 . S
C376 C377 1.363 . S
C376 C381 1.379 . S
C376 N383 1.356 . S
C377 C376 1.363 . S
C377 C380 1.363 . S
N378 C380 1.356 . S
N378 H390 0.984 . S
N378 H391 0.985 . S
N379 C381 1.356 . S
N379 H384 0.984 . S
N379 H385 0.985 . S
C380 C374 1.379 . S
C380 C377 1.363 . S
C380 N378 1.356 . S
C381 C375 1.363 . S
C381 C376 1.379 . S
C381 N379 1.356 . S
N382 C374 1.356 . S
N382 H388 0.984 . S
N382 H389 0.984 . S
N383 C376 1.356 . S
N383 H386 0.984 . S
N383 H387 0.985 . S
H384 N379 0.984 . S
H385 N379 0.985 . S
H386 N383 0.984 . S
H387 N383 0.985 . S
H388 N382 0.984 . S
H389 N382 0.984 . S
H390 N378 0.984 . S
H391 N378 0.985 . S
C392 C393 1.363 . S
C392 C398 1.379 . S
C392 N400 1.356 . S
C393 C392 1.363 . S
C393 C399 1.363 . S
C394 C395 1.363 . S
C394 C399 1.379 . S
C394 N401 1.356 . S
C395 C394 1.363 . S
C395 C398 1.363 . S
N396 C398 1.356 . S
N396 H408 0.984 . S
N396 H409 0.985 . S
N397 C399 1.356 . S
N397 H402 0.984 . S
N397 H403 0.985 . S
C398 C392 1.379 . S
C398 C395 1.363 . S
C398 N396 1.356 . S
C399 C393 1.363 . S
C399 C394 1.379 . S
C399 N397 1.356 . S
N400 C392 1.356 . S
N400 H406 0.984 . S
N400 H407 0.984 . S
N401 C394 1.356 . S
N401 H404 0.984 . S
N401 H405 0.985 . S
H402 N397 0.984 . S
H403 N397 0.985 . S
H404 N401 0.984 . S
H405 N401 0.985 . S
H406 N400 0.984 . S
H407 N400 0.984 . S
H408 N396 0.984 . S
H409 N396 0.985 . S
C410 C411 1.363 . S
C410 C416 1.379 . S
C410 N418 1.356 . S
C411 C410 1.363 . S
C411 C417 1.363 . S
C412 C413 1.363 . S
C412 C417 1.379 . S
C412 N419 1.356 . S
C413 C412 1.363 . S
C413 C416 1.363 . S
N414 C416 1.356 . S
N414 H426 0.984 . S
N414 H427 0.985 . S
N415 C417 1.356 . S
N415 H420 0.984 . S
N415 H421 0.985 . S
C416 C410 1.379 . S
C416 C413 1.363 . S
C416 N414 1.356 . S
C417 C411 1.363 . S
C417 C412 1.379 . S
C417 N415 1.356 . S
N418 C410 1.356 . S
N418 H424 0.984 . S
N418 H425 0.984 . S
N419 C412 1.356 . S
N419 H422 0.984 . S
N419 H423 0.985 . S
H420 N415 0.984 . S
H421 N415 0.985 . S
H422 N419 0.984 . S
H423 N419 0.985 . S
H424 N418 0.984 . S
H425 N418 0.984 . S
H426 N414 0.984 . S
H427 N414 0.985 . S
C428 C429 1.363 . S
C428 C434 1.379 . S
C428 N436 1.356 . S
C429 C428 1.363 . S
C429 C435 1.363 . S
C430 C431 1.363 . S
C430 C435 1.379 . S
C430 N437 1.356 . S
C431 C430 1.363 . S
C431 C434 1.363 . S
N432 C434 1.356 . S
N432 H444 0.984 . S
N432 H445 0.985 . S
N433 C435 1.356 . S
N433 H438 0.984 . S
N433 H439 0.985 . S
C434 C428 1.379 . S
C434 C431 1.363 . S
C434 N432 1.356 . S
C435 C429 1.363 . S
C435 C430 1.379 . S
C435 N433 1.356 . S
N436 C428 1.356 . S
N436 H442 0.984 . S
N436 H443 0.984 . S
N437 C430 1.356 . S
N437 H440 0.984 . S
N437 H441 0.985 . S
H438 N433 0.984 . S
H439 N433 0.985 . S
H440 N437 0.984 . S
H441 N437 0.985 . S
H442 N436 0.984 . S
H443 N436 0.984 . S
H444 N432 0.984 . S
H445 N432 0.985 . S
C446 C447 1.363 . S
C446 C452 1.379 . S
C446 N454 1.356 . S
C447 C446 1.363 . S
C447 C453 1.363 . S
C448 C449 1.363 . S
C448 C453 1.379 . S
C448 N455 1.356 . S
C449 C448 1.363 . S
C449 C452 1.363 . S
N450 C452 1.356 . S
N450 H462 0.984 . S
N450 H463 0.985 . S
N451 C453 1.356 . S
N451 H456 0.984 . S
N451 H457 0.985 . S
C452 C446 1.379 . S
C452 C449 1.363 . S
C452 N450 1.356 . S
C453 C447 1.363 . S
C453 C448 1.379 . S
C453 N451 1.356 . S
N454 C446 1.356 . S
N454 H460 0.984 . S
N454 H461 0.984 . S
N455 C448 1.356 . S
N455 H458 0.984 . S
N455 H459 0.985 . S
H456 N451 0.984 . S
H457 N451 0.985 . S
H458 N455 0.984 . S
H459 N455 0.985 . S
H460 N454 0.984 . S
H461 N454 0.984 . S
H462 N450 0.984 . S
H463 N450 0.985 . S
C464 C465 1.363 . S
C464 C470 1.379 . S
C464 N472 1.356 . S
C465 C464 1.363 . S
C465 C471 1.363 . S
C466 C467 1.363 . S
C466 C471 1.379 . S
C466 N473 1.356 . S
C467 C466 1.363 . S
C467 C470 1.363 . S
N468 C470 1.356 . S
N468 H480 0.984 . S
N468 H481 0.985 . S
N469 C471 1.356 . S
N469 H474 0.984 . S
N469 H475 0.985 . S
C470 C464 1.379 . S
C470 C467 1.363 . S
C470 N468 1.356 . S
C471 C465 1.363 . S
C471 C466 1.379 . S
C471 N469 1.356 . S
N472 C464 1.356 . S
N472 H478 0.984 . S
N472 H479 0.984 . S
N473 C466 1.356 . S
N473 H476 0.984 . S
N473 H477 0.985 . S
H474 N469 0.984 . S
H475 N469 0.985 . S
H476 N473 0.984 . S
H477 N473 0.985 . S
H478 N472 0.984 . S
H479 N472 0.984 . S
H480 N468 0.984 . S
H481 N468 0.985 . S
C482 C483 1.363 . S
C482 C488 1.379 . S
C482 N490 1.356 . S
C483 C482 1.363 . S
C483 C489 1.363 . S
C484 C485 1.363 . S
C484 C489 1.379 . S
C484 N491 1.356 . S
C485 C484 1.363 . S
C485 C488 1.363 . S
N486 C488 1.356 . S
N486 H498 0.984 . S
N486 H499 0.985 . S
N487 C489 1.356 . S
N487 H492 0.984 . S
N487 H493 0.985 . S
C488 C482 1.379 . S
C488 C485 1.363 . S
C488 N486 1.356 . S
C489 C483 1.363 . S
C489 C484 1.379 . S
C489 N487 1.356 . S
N490 C482 1.356 . S
N490 H496 0.984 . S
N490 H497 0.984 . S
N491 C484 1.356 . S
N491 H494 0.984 . S
N491 H495 0.985 . S
H492 N487 0.984 . S
H493 N487 0.985 . S
H494 N491 0.984 . S
H495 N491 0.985 . S
H496 N490 0.984 . S
H497 N490 0.984 . S
H498 N486 0.984 . S
H499 N486 0.985 . S
C500 C501 1.363 . S
C500 C506 1.379 . S
C500 N508 1.356 . S
C501 C500 1.363 . S
C501 C507 1.363 . S
C502 C503 1.363 . S
C502 C507 1.379 . S
C502 N509 1.356 . S
C503 C502 1.363 . S
C503 C506 1.363 . S
N504 C506 1.356 . S
N504 H516 0.984 . S
N504 H517 0.985 . S
N505 C507 1.356 . S
N505 H510 0.984 . S
N505 H511 0.985 . S
C506 C500 1.379 . S
C506 C503 1.363 . S
C506 N504 1.356 . S
C507 C501 1.363 . S
C507 C502 1.379 . S
C507 N505 1.356 . S
N508 C500 1.356 . S
N508 H514 0.984 . S
N508 H515 0.984 . S
N509 C502 1.356 . S
N509 H512 0.984 . S
N509 H513 0.985 . S
H510 N505 0.984 . S
H511 N505 0.985 . S
H512 N509 0.984 . S
H513 N509 0.985 . S
H514 N508 0.984 . S
H515 N508 0.984 . S
H516 N504 0.984 . S
H517 N504 0.985 . S
C518 C519 1.363 . S
C518 C524 1.379 . S
C518 N526 1.356 . S
C519 C518 1.363 . S
C519 C525 1.363 . S
C520 C521 1.363 . S
C520 C525 1.379 . S
C520 N527 1.356 . S
C521 C520 1.363 . S
C521 C524 1.363 . S
N522 C524 1.356 . S
N522 H534 0.984 . S
N522 H535 0.985 . S
N523 C525 1.356 . S
N523 H528 0.984 . S
N523 H529 0.985 . S
C524 C518 1.379 . S
C524 C521 1.363 . S
C524 N522 1.356 . S
C525 C519 1.363 . S
C525 C520 1.379 . S
C525 N523 1.356 . S
N526 C518 1.356 . S
N526 H532 0.984 . S
N526 H533 0.984 . S
N527 C520 1.356 . S
N527 H530 0.984 . S
N527 H531 0.985 . S
H528 N523 0.984 . S
H529 N523 0.985 . S
H530 N527 0.984 . S
H531 N527 0.985 . S
H532 N526 0.984 . S
H533 N526 0.984 . S
H534 N522 0.984 . S
H535 N522 0.985 . S
C536 C537 1.363 . S
C536 C542 1.379 . S
C536 N544 1.356 . S
C537 C536 1.363 . S
C537 C543 1.363 . S
C538 C539 1.363 . S
C538 C543 1.379 . S
C538 N545 1.356 . S
C539 C538 1.363 . S
C539 C542 1.363 . S
N540 C542 1.356 . S
N540 H552 0.984 . S
N540 H553 0.985 . S
N541 C543 1.356 . S
N541 H546 0.984 . S
N541 H547 0.985 . S
C542 C536 1.379 . S
C542 C539 1.363 . S
C542 N540 1.356 . S
C543 C537 1.363 . S
C543 C538 1.379 . S
C543 N541 1.356 . S
N544 C536 1.356 . S
N544 H550 0.984 . S
N544 H551 0.984 . S
N545 C538 1.356 . S
N545 H548 0.984 . S
N545 H549 0.985 . S
H546 N541 0.984 . S
H547 N541 0.985 . S
H548 N545 0.984 . S
H549 N545 0.985 . S
H550 N544 0.984 . S
H551 N544 0.984 . S
H552 N540 0.984 . S
H553 N540 0.985 . S
C554 C555 1.363 . S
C554 C560 1.379 . S
C554 N562 1.356 1_655 S
C555 C554 1.363 . S
C555 C561 1.363 . S
C556 C557 1.363 . S
C556 C561 1.379 . S
C556 N563 1.356 . S
C557 C556 1.363 . S
C557 C560 1.363 . S
N558 C560 1.356 1_455 S
N558 H570 0.984 . S
N558 H571 0.985 . S
N559 C561 1.356 . S
N559 H564 0.984 . S
N559 H565 0.985 . S
C560 C554 1.379 . S
C560 C557 1.363 . S
C560 N558 1.356 1_655 S
C561 C555 1.363 . S
C561 C556 1.379 . S
C561 N559 1.356 . S
N562 C554 1.356 1_455 S
N562 H568 0.984 . S
N562 H569 0.984 1_455 S
N563 C556 1.356 . S
N563 H566 0.984 . S
N563 H567 0.985 . S
H564 N559 0.984 . S
H565 N559 0.985 . S
H566 N563 0.984 . S
H567 N563 0.985 . S
H568 N562 0.984 . S
H569 N562 0.984 1_655 S
H570 N558 0.984 . S
H571 N558 0.985 . S
C572 C573 1.363 . S
C572 C578 1.379 . S
C572 N580 1.356 . S
C573 C572 1.363 . S
C573 C579 1.363 . S
C574 C575 1.363 . S
C574 C579 1.379 . S
C574 N581 1.356 . S
C575 C574 1.363 . S
C575 C578 1.363 . S
N576 C578 1.356 . S
N576 H588 0.984 . S
N576 H589 0.985 . S
N577 C579 1.356 . S
N577 H582 0.984 . S
N577 H583 0.985 . S
C578 C572 1.379 . S
C578 C575 1.363 . S
C578 N576 1.356 . S
C579 C573 1.363 . S
C579 C574 1.379 . S
C579 N577 1.356 . S
N580 C572 1.356 . S
N580 H586 0.984 . S
N580 H587 0.984 . S
N581 C574 1.356 . S
N581 H584 0.984 . S
N581 H585 0.985 . S
H582 N577 0.984 . S
H583 N577 0.985 . S
H584 N581 0.984 . S
H585 N581 0.985 . S
H586 N580 0.984 . S
H587 N580 0.984 . S
H588 N576 0.984 . S
H589 N576 0.985 . S
C590 C591 1.363 . S
C590 C596 1.379 . S
C590 N598 1.356 . S
C591 C590 1.363 . S
C591 C597 1.363 . S
C592 C593 1.363 . S
C592 C597 1.379 . S
C592 N599 1.356 . S
C593 C592 1.363 . S
C593 C596 1.363 . S
N594 C596 1.356 . S
N594 H606 0.984 . S
N594 H607 0.985 . S
N595 C597 1.356 . S
N595 H600 0.984 . S
N595 H601 0.985 . S
C596 C590 1.379 . S
C596 C593 1.363 . S
C596 N594 1.356 . S
C597 C591 1.363 . S
C597 C592 1.379 . S
C597 N595 1.356 . S
N598 C590 1.356 . S
N598 H604 0.984 . S
N598 H605 0.984 . S
N599 C592 1.356 . S
N599 H602 0.984 . S
N599 H603 0.985 . S
H600 N595 0.984 . S
H601 N595 0.985 . S
H602 N599 0.984 . S
H603 N599 0.985 . S
H604 N598 0.984 . S
H605 N598 0.984 . S
H606 N594 0.984 . S
H607 N594 0.985 . S
C608 C609 1.363 . S
C608 C614 1.379 . S
C608 N616 1.356 . S
C609 C608 1.363 . S
C609 C615 1.363 . S
C610 C611 1.363 . S
C610 C615 1.379 . S
C610 N617 1.356 . S
C611 C610 1.363 . S
C611 C614 1.363 . S
N612 C614 1.356 . S
N612 H624 0.984 . S
N612 H625 0.985 . S
N613 C615 1.356 . S
N613 H618 0.984 . S
N613 H619 0.985 . S
C614 C608 1.379 . S
C614 C611 1.363 . S
C614 N612 1.356 . S
C615 C609 1.363 . S
C615 C610 1.379 . S
C615 N613 1.356 . S
N616 C608 1.356 . S
N616 H622 0.984 . S
N616 H623 0.984 . S
N617 C610 1.356 . S
N617 H620 0.984 . S
N617 H621 0.985 . S
H618 N613 0.984 . S
H619 N613 0.985 . S
H620 N617 0.984 . S
H621 N617 0.985 . S
H622 N616 0.984 . S
H623 N616 0.984 . S
H624 N612 0.984 . S
H625 N612 0.985 . S
C626 C627 1.363 . S
C626 C632 1.379 . S
C626 N634 1.356 . S
C627 C626 1.363 . S
C627 C633 1.363 . S
C628 C629 1.363 . S
C628 C633 1.379 . S
C628 N635 1.356 . S
C629 C628 1.363 . S
C629 C632 1.363 . S
N630 C632 1.356 . S
N630 H642 0.984 . S
N630 H643 0.985 . S
N631 C633 1.356 . S
N631 H636 0.984 . S
N631 H637 0.985 . S
C632 C626 1.379 . S
C632 C629 1.363 . S
C632 N630 1.356 . S
C633 C627 1.363 . S
C633 C628 1.379 . S
C633 N631 1.356 . S
N634 C626 1.356 . S
N634 H640 0.984 . S
N634 H641 0.984 . S
N635 C628 1.356 . S
N635 H638 0.984 . S
N635 H639 0.985 . S
H636 N631 0.984 . S
H637 N631 0.985 . S
H638 N635 0.984 . S
H639 N635 0.985 . S
H640 N634 0.984 . S
H641 N634 0.984 . S
H642 N630 0.984 . S
H643 N630 0.985 . S
C644 C645 1.363 . S
C644 C650 1.379 . S
C644 N652 1.356 . S
C645 C644 1.363 . S
C645 C651 1.363 . S
C646 C647 1.363 . S
C646 C651 1.379 . S
C646 N653 1.356 . S
C647 C646 1.363 . S
C647 C650 1.363 . S
N648 C650 1.356 . S
N648 H660 0.984 . S
N648 H661 0.985 . S
N649 C651 1.356 . S
N649 H654 0.984 . S
N649 H655 0.985 . S
C650 C644 1.379 . S
C650 C647 1.363 . S
C650 N648 1.356 . S
C651 C645 1.363 . S
C651 C646 1.379 . S
C651 N649 1.356 . S
N652 C644 1.356 . S
N652 H658 0.984 . S
N652 H659 0.984 . S
N653 C646 1.356 . S
N653 H656 0.984 . S
N653 H657 0.985 . S
H654 N649 0.984 . S
H655 N649 0.985 . S
H656 N653 0.984 . S
H657 N653 0.985 . S
H658 N652 0.984 . S
H659 N652 0.984 . S
H660 N648 0.984 . S
H661 N648 0.985 . S
C662 C663 1.363 . S
C662 C668 1.379 . S
C662 N670 1.356 . S
C663 C662 1.363 . S
C663 C669 1.363 . S
C664 C665 1.363 . S
C664 C669 1.379 . S
C664 N671 1.356 . S
C665 C664 1.363 . S
C665 C668 1.363 . S
N666 C668 1.356 . S
N666 H678 0.984 . S
N666 H679 0.985 . S
N667 C669 1.356 . S
N667 H672 0.984 . S
N667 H673 0.985 . S
C668 C662 1.379 . S
C668 C665 1.363 . S
C668 N666 1.356 . S
C669 C663 1.363 . S
C669 C664 1.379 . S
C669 N667 1.356 . S
N670 C662 1.356 . S
N670 H676 0.984 . S
N670 H677 0.984 . S
N671 C664 1.356 . S
N671 H674 0.984 . S
N671 H675 0.985 . S
H672 N667 0.984 . S
H673 N667 0.985 . S
H674 N671 0.984 . S
H675 N671 0.985 . S
H676 N670 0.984 . S
H677 N670 0.984 . S
H678 N666 0.984 . S
H679 N666 0.985 . S
C249 C5 0.879 . S
C251 C103 1.310 . S
C267 C18 1.462 . S
C269 C147 1.486 . S
C287 C177 2.284 . S
C285 C30 2.248 . S
C303 C41 2.465 . S
C305 C218 2.455 . S
C323 C134 1.100 . S
C321 C7 1.025 . S
C341 C98 2.446 . S
C339 C16 2.356 . S
C359 C226 1.219 . S
C357 C29 1.210 . S
C377 C187 1.976 . S
C375 C38 1.578 . S
C393 C8 1.537 . S
C395 C223 1.701 . S
C413 C137 2.227 . S
C411 C27 2.098 . S
C429 C40 2.104 . S
C431 C106 2.071 . S
C447 C19 2.163 . S
C449 C174 2.097 . S
C467 C94 1.291 . S
C465 C51 1.016 . S
C483 C62 1.704 . S
C485 C138 1.666 . S
C501 C74 2.441 . S
C503 C186 2.520 . S
C519 C84 2.398 . S
C521 C227 2.430 . S
C537 C49 0.888 . S
C539 C143 1.244 . S
C557 C107 2.455 . S
C555 C63 2.422 . S
C575 C217 1.104 . S
C573 C71 1.062 . S
C593 C178 2.133 . S
C591 C85 2.216 . S
C609 C52 1.501 . S
C611 C214 1.713 . S
C629 C146 2.254 . S
C627 C73 2.388 . S
C647 C97 1.818 . S
C645 C82 1.764 . S
C663 C60 1.968 . S
C665 C183 2.050 . S
