# Generated by pormake.
# Topology myd, (4,6)-cn, num edge types: 1
# Building blocks:
#     Node 0, Type 0, BuildingBlock: KOZSID_clean_sbu_0, # of connection points: 4
#     Node 1, Type 0, BuildingBlock: KOZSID_clean_sbu_0, # of connection points: 4
#     Node 2, Type 0, BuildingBlock: KOZSID_clean_sbu_0, # of connection points: 4
#     Node 3, Type 0, BuildingBlock: KOZSID_clean_sbu_0, # of connection points: 4
#     Node 4, Type 0, BuildingBlock: KOZSID_clean_sbu_0, # of connection points: 4
#     Node 5, Type 0, BuildingBlock: KOZSID_clean_sbu_0, # of connection points: 4
#     Node 6, Type 0, BuildingBlock: KOZSID_clean_sbu_0, # of connection points: 4
#     Node 7, Type 0, BuildingBlock: KOZSID_clean_sbu_0, # of connection points: 4
#     Node 8, Type 0, BuildingBlock: KOZSID_clean_sbu_0, # of connection points: 4
#     Node 9, Type 0, BuildingBlock: KOZSID_clean_sbu_0, # of connection points: 4
#     Node 10, Type 0, BuildingBlock: KOZSID_clean_sbu_0, # of connection points: 4
#     Node 11, Type 0, BuildingBlock: KOZSID_clean_sbu_0, # of connection points: 4
#     Node 12, Type 1, BuildingBlock: FUNLAD_clean_sbu_0, # of connection points: 6
#     Node 13, Type 1, BuildingBlock: FUNLAD_clean_sbu_0, # of connection points: 6
#     Node 14, Type 1, BuildingBlock: FUNLAD_clean_sbu_0, # of connection points: 6
#     Node 15, Type 1, BuildingBlock: FUNLAD_clean_sbu_0, # of connection points: 6
#     Node 16, Type 1, BuildingBlock: FUNLAD_clean_sbu_0, # of connection points: 6
#     Node 17, Type 1, BuildingBlock: FUNLAD_clean_sbu_0, # of connection points: 6
#     Node 18, Type 1, BuildingBlock: FUNLAD_clean_sbu_0, # of connection points: 6
#     Node 19, Type 1, BuildingBlock: FUNLAD_clean_sbu_0, # of connection points: 6
#     Edge 20, Type (0, 1), BuildingBlock: XIVTED_clean_linker_0, # of connection points: 2
#     Edge 21, Type (0, 1), BuildingBlock: XIVTED_clean_linker_0, # of connection points: 2
#     Edge 22, Type (0, 1), BuildingBlock: XIVTED_clean_linker_0, # of connection points: 2
#     Edge 23, Type (0, 1), BuildingBlock: XIVTED_clean_linker_0, # of connection points: 2
#     Edge 24, Type (0, 1), BuildingBlock: XIVTED_clean_linker_0, # of connection points: 2
#     Edge 25, Type (0, 1), BuildingBlock: XIVTED_clean_linker_0, # of connection points: 2
#     Edge 26, Type (0, 1), BuildingBlock: XIVTED_clean_linker_0, # of connection points: 2
#     Edge 27, Type (0, 1), BuildingBlock: XIVTED_clean_linker_0, # of connection points: 2
#     Edge 28, Type (0, 1), BuildingBlock: XIVTED_clean_linker_0, # of connection points: 2
#     Edge 29, Type (0, 1), BuildingBlock: XIVTED_clean_linker_0, # of connection points: 2
#     Edge 30, Type (0, 1), BuildingBlock: XIVTED_clean_linker_0, # of connection points: 2
#     Edge 31, Type (0, 1), BuildingBlock: XIVTED_clean_linker_0, # of connection points: 2
#     Edge 32, Type (0, 1), BuildingBlock: XIVTED_clean_linker_0, # of connection points: 2
#     Edge 33, Type (0, 1), BuildingBlock: XIVTED_clean_linker_0, # of connection points: 2
#     Edge 34, Type (0, 1), BuildingBlock: XIVTED_clean_linker_0, # of connection points: 2
#     Edge 35, Type (0, 1), BuildingBlock: XIVTED_clean_linker_0, # of connection points: 2
#     Edge 36, Type (0, 1), BuildingBlock: XIVTED_clean_linker_0, # of connection points: 2
#     Edge 37, Type (0, 1), BuildingBlock: XIVTED_clean_linker_0, # of connection points: 2
#     Edge 38, Type (0, 1), BuildingBlock: XIVTED_clean_linker_0, # of connection points: 2
#     Edge 39, Type (0, 1), BuildingBlock: XIVTED_clean_linker_0, # of connection points: 2
#     Edge 40, Type (0, 1), BuildingBlock: XIVTED_clean_linker_0, # of connection points: 2
#     Edge 41, Type (0, 1), BuildingBlock: XIVTED_clean_linker_0, # of connection points: 2
#     Edge 42, Type (0, 1), BuildingBlock: XIVTED_clean_linker_0, # of connection points: 2
#     Edge 43, Type (0, 1), BuildingBlock: XIVTED_clean_linker_0, # of connection points: 2
#     Edge 44, Type (0, 1), BuildingBlock: XIVTED_clean_linker_0, # of connection points: 2
#     Edge 45, Type (0, 1), BuildingBlock: XIVTED_clean_linker_0, # of connection points: 2
#     Edge 46, Type (0, 1), BuildingBlock: XIVTED_clean_linker_0, # of connection points: 2
#     Edge 47, Type (0, 1), BuildingBlock: XIVTED_clean_linker_0, # of connection points: 2
#     Edge 48, Type (0, 1), BuildingBlock: XIVTED_clean_linker_0, # of connection points: 2
#     Edge 49, Type (0, 1), BuildingBlock: XIVTED_clean_linker_0, # of connection points: 2
#     Edge 50, Type (0, 1), BuildingBlock: XIVTED_clean_linker_0, # of connection points: 2
#     Edge 51, Type (0, 1), BuildingBlock: XIVTED_clean_linker_0, # of connection points: 2
#     Edge 52, Type (0, 1), BuildingBlock: XIVTED_clean_linker_0, # of connection points: 2
#     Edge 53, Type (0, 1), BuildingBlock: XIVTED_clean_linker_0, # of connection points: 2
#     Edge 54, Type (0, 1), BuildingBlock: XIVTED_clean_linker_0, # of connection points: 2
#     Edge 55, Type (0, 1), BuildingBlock: XIVTED_clean_linker_0, # of connection points: 2
#     Edge 56, Type (0, 1), BuildingBlock: XIVTED_clean_linker_0, # of connection points: 2
#     Edge 57, Type (0, 1), BuildingBlock: XIVTED_clean_linker_0, # of connection points: 2
#     Edge 58, Type (0, 1), BuildingBlock: XIVTED_clean_linker_0, # of connection points: 2
#     Edge 59, Type (0, 1), BuildingBlock: XIVTED_clean_linker_0, # of connection points: 2
#     Edge 60, Type (0, 1), BuildingBlock: XIVTED_clean_linker_0, # of connection points: 2
#     Edge 61, Type (0, 1), BuildingBlock: XIVTED_clean_linker_0, # of connection points: 2
#     Edge 62, Type (0, 1), BuildingBlock: XIVTED_clean_linker_0, # of connection points: 2
#     Edge 63, Type (0, 1), BuildingBlock: XIVTED_clean_linker_0, # of connection points: 2
#     Edge 64, Type (0, 1), BuildingBlock: XIVTED_clean_linker_0, # of connection points: 2
#     Edge 65, Type (0, 1), BuildingBlock: XIVTED_clean_linker_0, # of connection points: 2
#     Edge 66, Type (0, 1), BuildingBlock: XIVTED_clean_linker_0, # of connection points: 2
#     Edge 67, Type (0, 1), BuildingBlock: XIVTED_clean_linker_0, # of connection points: 2
# Relax obj value: 0.245
# Max RMSD: 0.228
# Mean RMSD: 0.151
data_MOF--net-myd--node1-KOZSID_clean_sbu_0--node2-FUNLAD_clean_sbu_0--edge1-XIVTED_clean_linker_0
_symmetry_space_group_name_H-M    P1
_symmetry_Int_Tables_number       1
_symmetry_cell_setting            triclinic
loop_
_symmetry_equiv_pos_as_xyz
'x, y, z'
_cell_length_a     51.003848
_cell_length_b     51.042418
_cell_length_c     55.809504
_cell_angle_alpha  86.494934
_cell_angle_beta   84.140218
_cell_angle_gamma 90.717386
loop_
_atom_site_label
_atom_site_type_symbol
_atom_site_fract_x
_atom_site_fract_y
_atom_site_fract_z
_atom_type_partial_charge
C0 C 0.98567 0.29769 0.37634 0.0
C1 C 0.9605 0.30493 0.38489 0.0
C2 C 0.94339 0.28916 0.37476 0.0
C3 C 0.95906 0.27317 0.36074 0.0
N4 N 0.98512 0.27729 0.36193 0.0
Co5 Co 0.01506 0.26021 0.34313 0.0
N6 N 0.99056 0.24281 0.32276 0.0
C7 C 0.96395 0.24425 0.32475 0.0
C8 C 0.95248 0.23095 0.30782 0.0
C9 C 0.97297 0.22041 0.29415 0.0
C10 C 0.99587 0.22773 0.3037 0.0
N11 N 0.04512 0.24303 0.32455 0.0
C12 C 0.04528 0.22735 0.30578 0.0
C13 C 0.07048 0.21859 0.29898 0.0
C14 C 0.0868 0.22936 0.31377 0.0
C15 C 0.07075 0.24386 0.32883 0.0
N16 N 0.03947 0.27846 0.36306 0.0
C17 C 0.06584 0.27568 0.3625 0.0
C18 C 0.07768 0.29303 0.376 0.0
C19 C 0.05782 0.30838 0.38513 0.0
C20 C 0.03485 0.29932 0.3768 0.0
N21 N 0.01169 0.22873 0.36651 0.0
C22 C 0.00962 0.17691 0.38749 0.0
C23 C 0.03281 0.19206 0.38591 0.0
C24 C 0.03333 0.21784 0.37566 0.0
C25 C 0.98687 0.18913 0.38099 0.0
C26 C 0.98826 0.21497 0.37109 0.0
N27 N 0.01839 0.29081 0.31956 0.0
C28 C 0.0452 0.32113 0.29215 0.0
C29 C 0.02269 0.3319 0.28339 0.0
C30 C 0.99805 0.32229 0.29367 0.0
C31 C 0.99637 0.30198 0.31159 0.0
C32 C 0.04262 0.30079 0.31024 0.0
H33 H 0.97703 0.29521 0.31843 0.0
H34 H 0.0604 0.2931 0.31623 0.0
H35 H 0.0517 0.22809 0.37457 0.0
H36 H 0.97019 0.22288 0.36651 0.0
C37 C 0.95029 0.25818 0.34282 0.0
C38 C 0.00945 0.31222 0.38058 0.0
C39 C 0.02217 0.21992 0.29405 0.0
C40 C 0.07929 0.25937 0.34639 0.0
H41 H 0.95515 0.32091 0.39621 0.0
H42 H 0.92215 0.29058 0.37599 0.0
H43 H 0.93171 0.2292 0.30561 0.0
H44 H 0.9712 0.20868 0.27888 0.0
H45 H 0.0765 0.20569 0.28483 0.0
H46 H 0.1079 0.22703 0.31347 0.0
H47 H 0.09852 0.29541 0.37766 0.0
H48 H 0.06036 0.32506 0.39574 0.0
H49 H 0.05086 0.18369 0.39136 0.0
H50 H 0.96813 0.17859 0.38296 0.0
H51 H 0.06472 0.32819 0.28497 0.0
H52 H 0.98001 0.3297 0.28734 0.0
C53 C 0.98816 0.70626 0.12442 0.0
C54 C 0.96517 0.6997 0.11461 0.0
C55 C 0.94543 0.71341 0.12611 0.0
C56 C 0.95736 0.72736 0.14229 0.0
N57 N 0.98365 0.72381 0.14159 0.0
Co58 Co 0.00823 0.73867 0.16337 0.0
N59 N 0.97888 0.75806 0.18079 0.0
C60 C 0.95331 0.75844 0.17634 0.0
C61 C 0.93827 0.77528 0.18986 0.0
C62 C 0.95537 0.78682 0.20344 0.0
C63 C 0.97989 0.77608 0.19747 0.0
N64 N 0.03268 0.7527 0.18555 0.0
C65 C 0.02823 0.77037 0.20249 0.0
C66 C 0.05051 0.77478 0.21416 0.0
C67 C 0.06994 0.7598 0.20371 0.0
C68 C 0.05841 0.74704 0.18647 0.0
N69 N 0.03774 0.72015 0.14526 0.0
C70 C 0.06356 0.72087 0.1489 0.0
C71 C 0.07912 0.70619 0.13355 0.0
C72 C 0.0622 0.69517 0.11945 0.0
C73 C 0.0372 0.70369 0.12717 0.0
N74 N 0.01549 0.77051 0.14106 0.0
C75 C 0.02314 0.82237 0.12074 0.0
C76 C 0.04401 0.80829 0.12912 0.0
C77 C 0.03993 0.78244 0.13867 0.0
C78 C 0.99896 0.80918 0.12056 0.0
C79 C 0.99558 0.78336 0.13074 0.0
N80 N 1.00103 0.70744 0.18662 0.0
C81 C 0.01756 0.67475 0.21434 0.0
C82 C 0.99253 0.67061 0.22688 0.0
C83 C 0.97145 0.68361 0.21747 0.0
C84 C 0.97606 0.70153 0.19733 0.0
C85 C 0.02131 0.69291 0.19442 0.0
H86 H 0.95921 0.71096 0.19123 0.0
H87 H 0.04098 0.69534 0.18609 0.0
H88 H 0.05658 0.77294 0.14506 0.0
H89 H 0.97641 0.7746 0.13106 0.0
C90 C 0.94434 0.74367 0.15855 0.0
C91 C 0.01342 0.6941 0.11795 0.0
C92 C 1.00387 0.78462 0.20698 0.0
C93 C 0.072 0.73284 0.16869 0.0
H94 H 0.9627 0.68599 0.10096 0.0
H95 H 0.92473 0.71285 0.12335 0.0
H96 H 0.91755 0.77935 0.18931 0.0
H97 H 0.95042 0.80196 0.21578 0.0
H98 H 0.05272 0.78814 0.22818 0.0
H99 H 0.09035 0.75929 0.20741 0.0
H100 H 0.10008 0.70297 0.13334 0.0
H101 H 0.06746 0.68167 0.10559 0.0
H102 H 0.06334 0.81743 0.12886 0.0
H103 H 0.98234 0.81918 0.1138 0.0
H104 H 0.03445 0.66437 0.22009 0.0
H105 H 0.95154 0.68091 0.22613 0.0
C106 C 0.36241 0.98241 0.26269 0.0
C107 C 0.37327 0.95879 0.26992 0.0
C108 C 0.36311 0.94002 0.25692 0.0
C109 C 0.34684 0.95322 0.24245 0.0
N110 N 0.3464 0.97938 0.24505 0.0
Co111 Co 0.32495 0.00591 0.22805 0.0
N112 N 0.30663 0.97783 0.21191 0.0
C113 C 0.31042 0.95164 0.2144 0.0
C114 C 0.29548 0.93726 0.20072 0.0
C115 C 0.28136 0.95529 0.18864 0.0
C116 C 0.28848 0.97977 0.19574 0.0
N117 N 0.30378 0.03253 0.21077 0.0
C118 C 0.28617 0.02936 0.19447 0.0
C119 C 0.2763 0.05326 0.18657 0.0
C120 C 0.28847 0.0722 0.19788 0.0
C121 C 0.30491 0.0589 0.21207 0.0
N122 N 0.34294 0.0339 0.24463 0.0
C123 C 0.33945 0.0601 0.24198 0.0
C124 C 0.35273 0.07426 0.25711 0.0
C125 C 0.36506 0.05602 0.27065 0.0
C126 C 0.35872 0.03165 0.26282 0.0
N127 N 0.35282 0.00917 0.20008 0.0
C128 C 0.38572 0.01385 0.15594 0.0
C129 C 0.37789 0.03604 0.16813 0.0
C130 C 0.36168 0.03327 0.19001 0.0
C131 C 0.3782 0.98927 0.16707 0.0
C132 C 0.36213 0.9874 0.18898 0.0
N133 N 0.29698 1.00262 0.25573 0.0
C134 C 0.2647 0.02241 0.28364 0.0
C135 C 0.25688 0.99786 0.29479 0.0
C136 C 0.26982 0.97578 0.28621 0.0
C137 C 0.28956 0.97857 0.26681 0.0
C138 C 0.28464 0.02434 0.2644 0.0
H139 H 0.29842 0.96095 0.26096 0.0
H140 H 0.28973 0.04361 0.25678 0.0
H141 H 0.35599 0.05098 0.19802 0.0
H142 H 0.35701 0.96807 0.19621 0.0
C143 C 0.32946 0.94131 0.22845 0.0
C144 C 0.36657 0.00682 0.27422 0.0
C145 C 0.27825 1.00429 0.18584 0.0
C146 C 0.32165 0.0706 0.22674 0.0
H147 H 0.38644 0.95539 0.28377 0.0
H148 H 0.36625 0.91908 0.25863 0.0
H149 H 0.29539 0.91622 0.19921 0.0
H150 H 0.26779 0.95093 0.17567 0.0
H151 H 0.26188 0.05671 0.17385 0.0
H152 H 0.28576 0.0932 0.1959 0.0
H153 H 0.35249 0.09526 0.25888 0.0
H154 H 0.3766 0.06029 0.28518 0.0
H155 H 0.38328 0.05557 0.16038 0.0
H156 H 0.38439 0.97142 0.15875 0.0
H157 H 0.25555 0.04017 0.28979 0.0
H158 H 0.26432 0.95629 0.29399 0.0
C159 C 0.65392 0.48712 0.21301 0.0
C160 C 0.63856 0.46562 0.20862 0.0
C161 C 0.64995 0.44396 0.21833 0.0
C162 C 0.67149 0.45341 0.22807 0.0
N163 N 0.67429 0.47986 0.22551 0.0
Co164 Co 0.70274 0.5019 0.23688 0.0
N165 N 0.72095 0.46988 0.24899 0.0
C166 C 0.7144 0.4445 0.24653 0.0
C167 C 0.73 0.42696 0.25775 0.0
C168 C 0.74717 0.44203 0.26845 0.0
C169 C 0.74104 0.46799 0.26302 0.0
N170 N 0.73069 0.52395 0.24897 0.0
C171 C 0.74954 0.51668 0.26325 0.0
C172 C 0.76422 0.53808 0.26895 0.0
C173 C 0.75366 0.55982 0.25847 0.0
C174 C 0.73328 0.55043 0.24701 0.0
N175 N 0.68491 0.53387 0.22421 0.0
C176 C 0.69255 0.55925 0.22508 0.0
C177 C 0.67702 0.5767 0.21363 0.0
C178 C 0.65871 0.56153 0.20444 0.0
C179 C 0.66419 0.53567 0.21092 0.0
N180 N 0.68176 0.50321 0.26879 0.0
C181 C 0.65823 0.50441 0.31665 0.0
C182 C 0.66555 0.52763 0.30291 0.0
C183 C 0.67725 0.52659 0.27922 0.0
C184 C 0.66177 0.48068 0.30568 0.0
C185 C 0.67319 0.48055 0.28185 0.0
N186 N 0.72418 0.50052 0.20508 0.0
C187 C 0.75657 0.52042 0.17432 0.0
C188 C 0.76015 0.49657 0.16351 0.0
C189 C 0.74395 0.47527 0.17285 0.0
C190 C 0.72618 0.4777 0.19336 0.0
C191 C 0.73851 0.52198 0.19479 0.0
H192 H 0.7147 0.46064 0.19967 0.0
H193 H 0.73703 0.54063 0.20228 0.0
H194 H 0.68315 0.5449 0.26995 0.0
H195 H 0.67546 0.4618 0.27458 0.0
C196 C 0.69094 0.43787 0.23728 0.0
C197 C 0.65047 0.51349 0.20244 0.0
C198 C 0.75267 0.49016 0.27353 0.0
C199 C 0.71507 0.56595 0.23586 0.0
H200 H 0.62154 0.46538 0.19857 0.0
H201 H 0.64395 0.42366 0.21739 0.0
H202 H 0.72797 0.40577 0.25935 0.0
H203 H 0.76163 0.43463 0.27991 0.0
H204 H 0.78021 0.53798 0.28031 0.0
H205 H 0.75942 0.5801 0.25991 0.0
H206 H 0.67925 0.59786 0.21157 0.0
H207 H 0.64349 0.56852 0.1936 0.0
H208 H 0.66318 0.5465 0.31067 0.0
H209 H 0.6559 0.46222 0.3155 0.0
H210 H 0.76846 0.5376 0.16776 0.0
H211 H 0.7453 0.45657 0.16468 0.0
C212 C 0.31493 0.35671 0.9679 0.0
C213 C 0.32307 0.3653 0.94416 0.0
C214 C 0.30319 0.3587 0.93059 0.0
C215 C 0.28417 0.34614 0.9466 0.0
N216 N 0.29109 0.34438 0.96923 0.0
Co217 Co 0.27042 0.32633 0.99741 0.0
N218 N 0.25091 0.30454 0.9768 0.0
C219 C 0.24657 0.31186 0.954 0.0
C220 C 0.22747 0.29674 0.94568 0.0
C221 C 0.21945 0.27884 0.96448 0.0
C222 C 0.23505 0.28312 0.98299 0.0
N223 N 0.24957 0.30889 0.02584 0.0
C224 C 0.23348 0.28742 0.02729 0.0
C225 C 0.2164 0.28691 0.04845 0.0
C226 C 0.22358 0.30748 0.06125 0.0
C227 C 0.24373 0.32022 0.04683 0.0
N228 N 0.28984 0.34808 0.01791 0.0
C229 C 0.28141 0.3542 0.04044 0.0
C230 C 0.29911 0.37001 0.05007 0.0
C231 C 0.31981 0.37406 0.03234 0.0
C232 C 0.31356 0.3604 0.01285 0.0
N233 N 0.24312 0.3531 0.99581 0.0
C234 C 0.2034 0.38965 0.98954 0.0
C235 C 0.19728 0.36299 0.99426 0.0
C236 C 0.21721 0.34523 0.99757 0.0
C237 C 0.22982 0.39793 0.9888 0.0
C238 C 0.24947 0.37926 0.99177 0.0
N239 N 0.29731 0.29961 0.99851 0.0
C240 C 0.32631 0.27238 0.02018 0.0
C241 C 0.33741 0.26281 0.99846 0.0
C242 C 0.32773 0.27172 0.97694 0.0
C243 C 0.30755 0.28981 0.97738 0.0
C244 C 0.30637 0.29103 0.01979 0.0
H245 H 0.30028 0.29599 0.96052 0.0
H246 H 0.29832 0.29862 0.03658 0.0
H247 H 0.21143 0.32495 1.00112 0.0
H248 H 0.26978 0.38589 0.99045 0.0
C249 C 0.26235 0.33162 0.9407 0.0
C250 C 0.3291 0.36151 0.9891 0.0
C251 C 0.23186 0.26962 0.00748 0.0
C252 C 0.25889 0.34161 0.0528 0.0
H253 H 0.34142 0.37511 0.93718 0.0
H254 H 0.30327 0.36153 0.91121 0.0
H255 H 0.21988 0.29877 0.92827 0.0
H256 H 0.20285 0.26541 0.96479 0.0
H257 H 0.19975 0.27376 0.05379 0.0
H258 H 0.21485 0.31271 0.07877 0.0
H259 H 0.29756 0.37712 0.06802 0.0
H260 H 0.33726 0.38602 0.03347 0.0
H261 H 0.17706 0.35584 0.9956 0.0
H262 H 0.23528 0.4185 0.98545 0.0
H263 H 0.3332 0.26575 0.03721 0.0
H264 H 0.33537 0.26435 0.95985 0.0
C265 C 0.25937 0.66306 0.47173 0.0
C266 C 0.25988 0.65109 0.45003 0.0
C267 C 0.27963 0.66323 0.43486 0.0
C268 C 0.29001 0.68175 0.44817 0.0
N269 N 0.27857 0.68171 0.47112 0.0
Co270 Co 0.2862 0.70632 0.49631 0.0
N271 N 0.31209 0.72718 0.47294 0.0
C272 C 0.31942 0.72223 0.44968 0.0
C273 C 0.33843 0.73922 0.43842 0.0
C274 C 0.34376 0.75594 0.45551 0.0
C275 C 0.32748 0.74824 0.47631 0.0
N276 N 0.2935 0.73111 0.52149 0.0
C277 C 0.31019 0.75214 0.52014 0.0
C278 C 0.30882 0.76431 0.54182 0.0
C279 C 0.29113 0.7501 0.5576 0.0
C280 C 0.28256 0.7303 0.54468 0.0
N281 N 0.26035 0.68532 0.51965 0.0
C282 C 0.2545 0.68883 0.5434 0.0
C283 C 0.23471 0.67249 0.55433 0.0
C284 C 0.22705 0.65805 0.53639 0.0
C285 C 0.24278 0.66639 0.51547 0.0
N286 N 0.3156 0.68358 0.50603 0.0
C287 C 0.35958 0.65453 0.51972 0.0
C288 C 0.34159 0.66529 0.53692 0.0
C289 C 0.31993 0.6793 0.52981 0.0
C290 C 0.35461 0.65814 0.49553 0.0
C291 C 0.3329 0.67262 0.48918 0.0
N292 N 0.257 0.72899 0.48661 0.0
C293 C 0.21771 0.75371 0.49729 0.0
C294 C 0.21402 0.75938 0.47297 0.0
C295 C 0.23268 0.74971 0.45565 0.0
C296 C 0.25388 0.7349 0.46278 0.0
C297 C 0.23892 0.73853 0.50361 0.0
H298 H 0.26739 0.72816 0.4487 0.0
H299 H 0.24022 0.73464 0.52243 0.0
H300 H 0.3072 0.68678 0.54396 0.0
H301 H 0.33077 0.67482 0.47043 0.0
C302 C 0.30869 0.70102 0.43909 0.0
C303 C 0.23896 0.65756 0.49168 0.0
C304 C 0.32812 0.76091 0.49902 0.0
C305 C 0.26497 0.71015 0.554 0.0
H306 H 0.24663 0.63588 0.44543 0.0
H307 H 0.28497 0.6598 0.41605 0.0
H308 H 0.34768 0.73916 0.42008 0.0
H309 H 0.35835 0.7717 0.45302 0.0
H310 H 0.3197 0.78152 0.54595 0.0
H311 H 0.28545 0.75359 0.57634 0.0
H312 H 0.22579 0.67225 0.57279 0.0
H313 H 0.21093 0.64389 0.53841 0.0
H314 H 0.34437 0.66353 0.55592 0.0
H315 H 0.36734 0.6498 0.48136 0.0
H316 H 0.20443 0.76109 0.5116 0.0
H317 H 0.23085 0.75311 0.43656 0.0
C318 C 0.79459 0.83547 0.46646 0.0
C319 C 0.79915 0.84228 0.4419 0.0
C320 C 0.77774 0.83325 0.43154 0.0
C321 C 0.76142 0.82114 0.45015 0.0
N322 N 0.77132 0.82205 0.47152 0.0
Co323 Co 0.7557 0.80468 0.50258 0.0
N324 N 0.73381 0.7803 0.48622 0.0
C325 C 0.72781 0.7839 0.46332 0.0
C326 C 0.71125 0.76463 0.45706 0.0
C327 C 0.70625 0.7481 0.47739 0.0
C328 C 0.72016 0.75817 0.49502 0.0
N329 N 0.74025 0.78766 0.53388 0.0
C330 C 0.72667 0.76462 0.53879 0.0
C331 C 0.72025 0.76002 0.56351 0.0
C332 C 0.72917 0.78139 0.57422 0.0
C333 C 0.74086 0.79767 0.55561 0.0
N334 N 0.77759 0.82904 0.51877 0.0
C335 C 0.77343 0.83538 0.54185 0.0
C336 C 0.79215 0.85269 0.54791 0.0
C337 C 0.80916 0.85737 0.52735 0.0
C338 C 0.7999 0.84246 0.50991 0.0
N339 N 0.72674 0.82985 0.50362 0.0
C340 C 0.68418 0.86387 0.49986 0.0
C341 C 0.67996 0.83737 0.50737 0.0
C342 C 0.70134 0.82087 0.50935 0.0
C343 C 0.71031 0.87328 0.49521 0.0
C344 C 0.7313 0.85593 0.49706 0.0
N345 N 0.7843 0.77943 0.50106 0.0
C346 C 0.81748 0.75441 0.51956 0.0
C347 C 0.8255 0.74365 0.49753 0.0
C348 C 0.81246 0.75111 0.47743 0.0
C349 C 0.79181 0.76868 0.47963 0.0
C350 C 0.79701 0.77254 0.52088 0.0
H351 H 0.78188 0.77352 0.46388 0.0
H352 H 0.79143 0.78095 0.53788 0.0
H353 H 0.69711 0.8006 0.51499 0.0
H354 H 0.7512 0.86345 0.49265 0.0
C355 C 0.74061 0.80364 0.44759 0.0
C356 C 0.81195 0.84234 0.48487 0.0
C357 C 0.71727 0.74813 0.52052 0.0
C358 C 0.75569 0.82045 0.55814 0.0
H359 H 0.81629 0.85209 0.43221 0.0
H360 H 0.77534 0.83381 0.41247 0.0
H361 H 0.70396 0.7626 0.43971 0.0
H362 H 0.69326 0.73102 0.47919 0.0
H363 H 0.70987 0.7432 0.57291 0.0
H364 H 0.72793 0.78432 0.59334 0.0
H365 H 0.79409 0.85989 0.5655 0.0
H366 H 0.8265 0.87006 0.52547 0.0
H367 H 0.66017 0.82934 0.51174 0.0
H368 H 0.7145 0.8937 0.48951 0.0
H369 H 0.82707 0.74901 0.53554 0.0
H370 H 0.81773 0.74287 0.46019 0.0
C371 C 0.49936 0.8156 0.89063 0.0
C372 C 0.47516 0.82289 0.90163 0.0
C373 C 0.45705 0.80479 0.89621 0.0
C374 C 0.47122 0.78761 0.88226 0.0
N375 N 0.49738 0.79309 0.87916 0.0
Co376 Co 0.52481 0.77555 0.85771 0.0
N377 N 0.49763 0.75315 0.84472 0.0
C378 C 0.47172 0.75115 0.85282 0.0
C379 C 0.45807 0.73312 0.84149 0.0
C380 C 0.47636 0.72286 0.82526 0.0
C381 C 0.50023 0.73542 0.82748 0.0
N382 N 0.55223 0.75915 0.83525 0.0
C383 C 0.54964 0.74188 0.81805 0.0
C384 C 0.57385 0.7369 0.80552 0.0
C385 C 0.59236 0.75109 0.81546 0.0
C386 C 0.57851 0.76414 0.83322 0.0
N387 N 0.55193 0.79745 0.87132 0.0
C388 C 0.5784 0.79562 0.86719 0.0
C389 C 0.59185 0.81458 0.87764 0.0
C390 C 0.57285 0.8298 0.88851 0.0
C391 C 0.54876 0.81915 0.88414 0.0
N392 N 0.52863 0.74685 0.88299 0.0
C393 C 0.53036 0.69665 0.90631 0.0
C394 C 0.55317 0.70877 0.89456 0.0
C395 C 0.55199 0.73396 0.88362 0.0
C396 C 0.50756 0.71141 0.90914 0.0
C397 C 0.50722 0.7365 0.89759 0.0
N398 N 0.52095 0.80341 0.8324 0.0
C399 C 0.54049 0.83541 0.80205 0.0
C400 C 0.516 0.83992 0.79357 0.0
C401 C 0.49382 0.82678 0.80569 0.0
C402 C 0.49671 0.80883 0.82504 0.0
C403 C 0.54252 0.81716 0.82133 0.0
H404 H 0.47921 0.79906 0.83349 0.0
H405 H 0.56179 0.81409 0.82673 0.0
H406 H 0.57002 0.74192 0.8748 0.0
H407 H 0.48907 0.74649 0.89992 0.0
C408 C 0.46046 0.76769 0.86996 0.0
C409 C 0.52343 0.83147 0.89026 0.0
C410 C 0.52488 0.72936 0.81324 0.0
C411 C 0.58961 0.78047 0.8489 0.0
H412 H 0.47099 0.84005 0.91174 0.0
H413 H 0.43592 0.80493 0.90084 0.0
H414 H 0.43725 0.72818 0.84451 0.0
H415 H 0.47253 0.70773 0.81324 0.0
H416 H 0.5778 0.72422 0.79079 0.0
H417 H 0.61344 0.7517 0.81041 0.0
H418 H 0.61291 0.81834 0.87573 0.0
H419 H 0.57651 0.84753 0.89736 0.0
H420 H 0.57162 0.6984 0.89293 0.0
H421 H 0.48961 0.70304 0.91883 0.0
H422 H 0.55814 0.84557 0.79361 0.0
H423 H 0.47443 0.82949 0.79974 0.0
C424 C 0.5359 0.29016 0.64983 0.0
C425 C 0.56069 0.2979 0.63906 0.0
C426 C 0.57748 0.27805 0.64469 0.0
C427 C 0.56203 0.25935 0.65854 0.0
N428 N 0.53665 0.26626 0.66164 0.0
Co429 Co 0.50786 0.24679 0.6819 0.0
N430 N 0.53289 0.22751 0.70113 0.0
C431 C 0.55891 0.22533 0.69458 0.0
C432 C 0.57159 0.2119 0.71192 0.0
C433 C 0.5523 0.20486 0.73025 0.0
C434 C 0.52863 0.21399 0.72295 0.0
N435 N 0.47875 0.22736 0.70185 0.0
C436 C 0.47879 0.21278 0.72303 0.0
C437 C 0.4542 0.20093 0.72958 0.0
C438 C 0.43847 0.20839 0.7119 0.0
C439 C 0.45419 0.22422 0.69543 0.0
N440 N 0.48319 0.2665 0.66276 0.0
C441 C 0.45816 0.2596 0.66041 0.0
C442 C 0.44567 0.27852 0.6473 0.0
C443 C 0.46409 0.29846 0.64129 0.0
C444 C 0.48678 0.29056 0.65113 0.0
N445 N 0.50937 0.21887 0.65929 0.0
C446 C 0.50551 0.17794 0.6285 0.0
C447 C 0.50717 0.20418 0.61926 0.0
C448 C 0.50927 0.22439 0.63498 0.0
C449 C 0.50746 0.17277 0.65318 0.0
C450 C 0.50907 0.19333 0.66818 0.0
N451 N 0.50612 0.27447 0.70423 0.0
C452 C 0.48098 0.30814 0.72343 0.0
C453 C 0.50425 0.32041 0.72856 0.0
C454 C 0.52834 0.30834 0.72258 0.0
C455 C 0.52883 0.28532 0.71049 0.0
C456 C 0.48234 0.28503 0.71142 0.0
H457 H 0.54767 0.2769 0.70534 0.0
H458 H 0.46423 0.27639 0.70692 0.0
H459 H 0.51001 0.24449 0.62763 0.0
H460 H 0.50932 0.18837 0.68716 0.0
C461 C 0.57123 0.23968 0.67409 0.0
C462 C 0.51183 0.3055 0.64877 0.0
C463 C 0.50231 0.20742 0.73587 0.0
C464 C 0.44583 0.23909 0.67559 0.0
H465 H 0.56615 0.3162 0.62885 0.0
H466 H 0.59871 0.27827 0.64078 0.0
H467 H 0.59251 0.20848 0.71172 0.0
H468 H 0.55549 0.1941 0.74696 0.0
H469 H 0.44834 0.18773 0.74516 0.0
H470 H 0.4179 0.20322 0.71137 0.0
H471 H 0.42515 0.27868 0.64393 0.0
H472 H 0.4611 0.31681 0.63125 0.0
H473 H 0.50596 0.20915 0.60027 0.0
H474 H 0.50724 0.15286 0.66113 0.0
H475 H 0.46193 0.31673 0.72792 0.0
H476 H 0.54673 0.31672 0.72698 0.0
C477 C 0.86526 0.4845 0.76664 0.0
C478 C 0.875 0.46081 0.7751 0.0
C479 C 0.86248 0.44155 0.76442 0.0
C480 C 0.84583 0.4545 0.75014 0.0
N481 N 0.84736 0.48093 0.75068 0.0
Co482 Co 0.82538 0.50733 0.73408 0.0
N483 N 0.80318 0.47896 0.72237 0.0
C484 C 0.80581 0.45273 0.72623 0.0
C485 C 0.78784 0.4381 0.71585 0.0
C486 C 0.77281 0.45602 0.70464 0.0
C487 C 0.78253 0.48067 0.70886 0.0
N488 N 0.80366 0.53381 0.71728 0.0
C489 C 0.78326 0.53034 0.7039 0.0
C490 C 0.774 0.55417 0.69516 0.0
C491 C 0.78927 0.57334 0.70301 0.0
C492 C 0.80686 0.56024 0.71611 0.0
N493 N 0.84722 0.53565 0.74626 0.0
C494 C 0.84545 0.56187 0.7417 0.0
C495 C 0.86194 0.5764 0.75386 0.0
C496 C 0.87453 0.55842 0.76749 0.0
C497 C 0.86489 0.53392 0.76282 0.0
N498 N 0.85002 0.50671 0.70387 0.0
C499 C 0.87867 0.506 0.65777 0.0
C500 C 0.87372 0.52959 0.66868 0.0
C501 C 0.85953 0.52949 0.69153 0.0
C502 C 0.87034 0.48271 0.6709 0.0
C503 C 0.85646 0.4835 0.69378 0.0
N504 N 0.80071 0.50791 0.76396 0.0
C505 C 0.77377 0.53184 0.79312 0.0
C506 C 0.76544 0.50854 0.80637 0.0
C507 C 0.77541 0.48496 0.79812 0.0
C508 C 0.79283 0.48509 0.77708 0.0
C509 C 0.79128 0.53109 0.77218 0.0
H510 H 0.79953 0.46645 0.77165 0.0
H511 H 0.79689 0.5495 0.76286 0.0
H512 H 0.85601 0.54818 0.69847 0.0
H513 H 0.85074 0.46502 0.70264 0.0
C514 C 0.82601 0.44244 0.73893 0.0
C515 C 0.87188 0.50972 0.77567 0.0
C516 C 0.77195 0.50502 0.69904 0.0
C517 C 0.8264 0.57223 0.72771 0.0
H518 H 0.88888 0.45768 0.78835 0.0
H519 H 0.86418 0.42056 0.76775 0.0
H520 H 0.78611 0.41693 0.71611 0.0
H521 H 0.75675 0.45147 0.69422 0.0
H522 H 0.75788 0.55739 0.6842 0.0
H523 H 0.78772 0.59434 0.69958 0.0
H524 H 0.86372 0.59757 0.75366 0.0
H525 H 0.88854 0.56281 0.78007 0.0
H526 H 0.87986 0.54821 0.65929 0.0
H527 H 0.87432 0.46387 0.66349 0.0
H528 H 0.76687 0.55067 0.79887 0.0
H529 H 0.76931 0.46632 0.80747 0.0
C530 C 0.17667 0.04231 0.76576 0.0
C531 C 0.17224 0.06744 0.77321 0.0
C532 C 0.18459 0.08434 0.75556 0.0
C533 C 0.19586 0.06863 0.7384 0.0
N534 N 0.19092 0.04276 0.74384 0.0
Co535 Co 0.20483 0.0129 0.7249 0.0
N536 N 0.22918 0.03693 0.70276 0.0
C537 C 0.23168 0.06328 0.7036 0.0
C538 C 0.25081 0.07441 0.68693 0.0
C539 C 0.2613 0.05395 0.67477 0.0
C540 C 0.24773 0.03141 0.68461 0.0
N541 N 0.21809 0.98308 0.70559 0.0
C542 C 0.23685 0.98275 0.68652 0.0
C543 C 0.23894 0.95795 0.67764 0.0
C544 C 0.22116 0.94202 0.69178 0.0
C545 C 0.20909 0.95792 0.70832 0.0
N546 N 0.18158 0.98874 0.74789 0.0
C547 C 0.17824 0.96252 0.74682 0.0
C548 C 0.16334 0.95085 0.76653 0.0
C549 C 0.15751 0.97068 0.78145 0.0
C550 C 0.1692 0.99333 0.76986 0.0
N551 N 0.17632 0.0181 0.7033 0.0
C552 C 0.13963 0.02328 0.66898 0.0
C553 C 0.14058 1.00029 0.68365 0.0
C554 C 0.15882 0.99818 0.70055 0.0
C555 C 0.15612 0.04427 0.67279 0.0
C556 C 0.17402 0.04134 0.69003 0.0
N557 N 0.23264 0.00768 0.74652 0.0
C558 C 0.25126 0.97919 0.77608 0.0
C559 C 0.25944 1.00098 0.78751 0.0
C560 C 0.2568 0.02596 0.77646 0.0
C561 C 0.24369 0.02884 0.75585 0.0
C562 C 0.23815 0.98299 0.75545 0.0
H563 H 0.24134 0.04839 0.74853 0.0
H564 H 0.23126 0.96582 0.74781 0.0
H565 H 0.15868 0.97988 0.71058 0.0
H566 H 0.18608 0.05806 0.69175 0.0
C567 C 0.21533 0.07702 0.71997 0.0
C568 C 0.16921 0.01851 0.78087 0.0
C569 C 0.25326 1.00524 0.67627 0.0
C570 C 0.19102 0.94932 0.72786 0.0
H571 H 0.16229 0.07296 0.79016 0.0
H572 H 0.18679 0.10541 0.75607 0.0
H573 H 0.2565 0.09494 0.68399 0.0
H574 H 0.27719 0.05553 0.66034 0.0
H575 H 0.25212 0.95195 0.6626 0.0
H576 H 0.21783 0.9212 0.69046 0.0
H577 H 0.1583 0.93022 0.7701 0.0
H578 H 0.14661 0.96863 0.79917 0.0
H579 H 0.12829 0.98336 0.68129 0.0
H580 H 0.15572 0.06267 0.66209 0.0
H581 H 0.25361 0.95944 0.78372 0.0
H582 H 0.26404 0.0433 0.78415 0.0
C583 C 0.77663 0.17766 0.96106 0.0
C584 C 0.77595 0.16814 0.93838 0.0
C585 C 0.79428 0.18239 0.92326 0.0
C586 C 0.80507 0.19962 0.93758 0.0
N587 N 0.79522 0.19683 0.96103 0.0
Co588 Co 0.80417 0.21848 0.98792 0.0
N589 N 0.82829 0.24205 0.96518 0.0
C590 C 0.83391 0.24002 0.94113 0.0
C591 C 0.85226 0.25805 0.93051 0.0
C592 C 0.85901 0.27235 0.94886 0.0
C593 C 0.84413 0.2623 0.96973 0.0
N594 N 0.81293 0.24023 0.01487 0.0
C595 C 0.82973 0.26105 0.01462 0.0
C596 C 0.8297 0.27069 0.03738 0.0
C597 C 0.81283 0.25499 0.05264 0.0
C598 C 0.80337 0.23689 0.0384 0.0
N599 N 0.78011 0.19477 0.01065 0.0
C600 C 0.7755 0.1958 0.03489 0.0
C601 C 0.75681 0.17801 0.04537 0.0
C602 C 0.74853 0.1652 0.02669 0.0
C603 C 0.76284 0.17589 0.00579 0.0
N604 N 0.8346 0.19544 0.99366 0.0
C605 C 0.88062 0.16734 1.00243 0.0
C606 C 0.86192 0.17329 0.02135 0.0
C607 C 0.83937 0.18718 0.01662 0.0
C608 C 0.8752 0.17473 0.97893 0.0
C609 C 0.85226 0.1885 0.97499 0.0
N610 N 0.77389 0.24157 0.98219 0.0
C611 C 0.73439 0.26358 0.99741 0.0
C612 C 0.73047 0.27404 0.97428 0.0
C613 C 0.74869 0.26758 0.95513 0.0
C614 C 0.76998 0.2514 0.95943 0.0
C615 C 0.75602 0.24775 1.00092 0.0
H616 H 0.78307 0.24713 0.94406 0.0
H617 H 0.7578 0.24064 0.01901 0.0
H618 H 0.82633 0.19134 0.03194 0.0
H619 H 0.8496 0.19374 0.95669 0.0
C620 C 0.8227 0.22007 0.92924 0.0
C621 C 0.7578 0.16938 0.98158 0.0
C622 C 0.84654 0.27193 0.99354 0.0
C623 C 0.78642 0.21589 0.0468 0.0
H624 H 0.76284 0.15312 0.9332 0.0
H625 H 0.79843 0.18111 0.90396 0.0
H626 H 0.86034 0.26008 0.91177 0.0
H627 H 0.87371 0.28799 0.94708 0.0
H628 H 0.84097 0.28716 0.04252 0.0
H629 H 0.80833 0.25635 0.0719 0.0
H630 H 0.74903 0.17567 0.06418 0.0
H631 H 0.73293 0.15048 0.02834 0.0
H632 H 0.86466 0.16741 0.03989 0.0
H633 H 0.88895 0.17068 0.96356 0.0
H634 H 0.7207 0.26733 0.0129 0.0
H635 H 0.7469 0.27527 0.93687 0.0
C636 C 0.13684 0.03643 0.0788 0.0
N637 N 0.11032 0.03978 0.0083 0.0
C638 C 0.13552 0.04393 0.998 0.0
C639 C 0.14233 0.03908 0.97376 0.0
C640 C 0.12305 0.02988 0.95986 0.0
C641 C 0.09745 0.02479 0.97128 0.0
C642 C 0.0915 0.02992 0.99556 0.0
Zn643 Zn 0.09964 0.0523 0.04235 0.0
C644 C 0.06579 0.01227 0.07374 0.0
N645 N 0.07692 0.0806 0.11229 0.0
C646 C 0.0961 0.0929 0.12293 0.0
C647 C 0.05133 0.08043 0.12207 0.0
C648 C 0.04411 0.0939 0.1428 0.0
C649 C 0.06338 0.10784 0.15342 0.0
C650 C 0.08974 0.10669 0.14351 0.0
Zn651 Zn 0.08728 0.06606 0.07907 0.0
O652 O 0.13457 0.03526 0.05631 0.0
C653 C 0.12317 0.10482 0.04781 0.0
O654 O 0.11958 0.04811 0.09198 0.0
H655 H 0.03634 0.07068 0.11327 0.0
H656 H 0.15018 0.05196 0.00834 0.0
H657 H 0.11633 0.09285 0.11496 0.0
O658 O 0.12124 0.08772 0.03247 0.0
O659 O 0.1107 0.10103 0.0687 0.0
H660 H 0.07157 0.02677 0.00402 0.0
O661 O 0.05444 0.08388 0.06598 0.0
O662 O 0.06436 0.06994 0.02985 0.0
O663 O 0.06522 0.03021 0.08873 0.0
O664 O 0.07827 0.01656 0.05288 0.0
C665 C 0.04899 0.0824 0.04443 0.0
H666 H 0.16224 0.04357 0.96577 0.0
H667 H 0.08202 0.01728 0.96146 0.0
H668 H 0.02352 0.09436 0.14979 0.0
H669 H 0.1053 0.11678 0.15133 0.0
C670 C 0.9269 0.47938 0.05457 0.0
N671 N 0.96004 0.49665 0.98248 0.0
C672 C 0.93548 0.48887 0.97798 0.0
C673 C 0.92662 0.4944 0.95545 0.0
C674 C 0.94318 0.50788 0.93701 0.0
C675 C 0.96834 0.51611 0.94214 0.0
C676 C 0.97639 0.51034 0.96516 0.0
Zn677 Zn 0.97193 0.48287 0.01513 0.0
C678 C 0.99148 0.52249 0.04474 0.0
N679 N 0.99336 0.44847 0.08187 0.0
C680 C 0.97641 0.43135 0.09544 0.0
C681 C 0.01643 0.45616 0.08986 0.0
C682 C 0.02311 0.44667 0.11242 0.0
C683 C 0.00564 0.42948 0.12696 0.0
C684 C 0.98211 0.42171 0.11819 0.0
Zn685 Zn 0.98289 0.46356 0.04954 0.0
O686 O 0.93258 0.48904 0.03305 0.0
C687 C 0.96219 0.42417 0.02022 0.0
O688 O 0.94455 0.46768 0.06527 0.0
H689 H 0.02956 0.46991 0.07884 0.0
H690 H 0.92294 0.47741 0.99162 0.0
H691 H 0.95828 0.42532 0.08871 0.0
O692 O 0.96015 0.44503 0.00703 0.0
O693 O 0.9725 0.4254 0.03992 0.0
H694 H 0.99593 0.51614 0.96896 0.0
O695 O 0.02125 0.45968 0.03391 0.0
O696 O 0.01177 0.47624 0.9986 0.0
O697 O 0.99259 0.50188 0.05862 0.0
O698 O 0.98362 0.52072 0.02396 0.0
C699 C 0.02851 0.46656 0.01201 0.0
H700 H 0.90731 0.48717 0.95224 0.0
H701 H 0.98172 0.52664 0.92845 0.0
H702 H 0.04139 0.45314 0.11866 0.0
H703 H 0.96833 0.40818 0.12878 0.0
C704 C 0.02668 0.98301 0.42109 0.0
N705 N 0.03684 0.9212 0.37599 0.0
C706 C 0.01275 0.92653 0.36864 0.0
C707 C 0.0069 0.92005 0.34589 0.0
C708 C 0.02607 0.90803 0.33064 0.0
C709 C 0.05105 0.90351 0.3384 0.0
C710 C 0.05603 0.91027 0.36131 0.0
Zn711 Zn 0.04407 0.92984 0.40948 0.0
C712 C 0.09635 0.95523 0.40848 0.0
N713 N 0.05883 0.94783 0.47969 0.0
C714 C 0.03932 0.95953 0.49347 0.0
C715 C 0.0835 0.94552 0.48666 0.0
C716 C 0.08967 0.95636 0.50774 0.0
C717 C 0.0702 0.96949 0.52176 0.0
C718 C 0.04458 0.97044 0.5148 0.0
Zn719 Zn 0.05191 0.93764 0.44641 0.0
O720 O 0.02597 0.96724 0.4044 0.0
C721 C 0.99842 0.91239 0.44539 0.0
O722 O 0.0362 0.97527 0.44035 0.0
H723 H 0.09865 0.93609 0.47542 0.0
H724 H 0.99788 0.93543 0.3806 0.0
H725 H 0.01992 0.96137 0.4874 0.0
O726 O 0.00727 0.9127 0.42329 0.0
O727 O 0.01289 0.92167 0.46031 0.0
H728 H 0.07506 0.90632 0.36757 0.0
O729 O 0.06835 0.90073 0.45261 0.0
O730 O 0.06421 0.89259 0.41501 0.0
O731 O 0.09094 0.9532 0.43134 0.0
O732 O 0.07965 0.94723 0.39521 0.0
C733 C 0.07241 0.88579 0.43531 0.0
H734 H 0.98745 0.92393 0.34046 0.0
H735 H 0.06621 0.89385 0.32732 0.0
H736 H 0.10958 0.95491 0.5128 0.0
H737 H 0.02911 0.98051 0.52515 0.0
C738 C 0.93724 0.59302 0.45225 0.0
N739 N 0.01522 0.56545 0.44639 0.0
C740 C 0.0227 0.59081 0.44008 0.0
C741 C 0.04731 0.60024 0.44482 0.0
C742 C 0.06473 0.58337 0.45588 0.0
C743 C 0.05655 0.55716 0.46196 0.0
C744 C 0.03156 0.54863 0.45716 0.0
Zn745 Zn 0.97848 0.55311 0.43969 0.0
C746 C 0.94887 0.52578 0.4833 0.0
N747 N 0.90218 0.52829 0.42579 0.0
C748 C 0.88667 0.54563 0.41465 0.0
C749 C 0.89487 0.50258 0.43029 0.0
C750 C 0.87199 0.49304 0.42188 0.0
C751 C 0.85647 0.51024 0.40904 0.0
C752 C 0.86351 0.537 0.40621 0.0
Zn753 Zn 0.9385 0.54041 0.43268 0.0
O754 O 0.96212 0.59018 0.45049 0.0
C755 C 0.96749 0.5695 0.38927 0.0
O756 O 0.92265 0.57485 0.4461 0.0
H757 H 0.90746 0.48919 0.43934 0.0
H758 H 0.00946 0.60387 0.43148 0.0
H759 H 0.89296 0.56594 0.41117 0.0
O760 O 0.98575 0.56903 0.40321 0.0
O761 O 0.94518 0.55911 0.39701 0.0
H762 H 0.02522 0.52855 0.46206 0.0
O763 O 0.95423 0.50566 0.41948 0.0
O764 O 0.99369 0.51522 0.42907 0.0
O765 O 0.9321 0.52256 0.4683 0.0
O766 O 0.97049 0.53786 0.47613 0.0
C767 C 0.97804 0.49932 0.4206 0.0
H768 H 0.05238 0.62071 0.44018 0.0
H769 H 0.06934 0.54326 0.47017 0.0
H770 H 0.8671 0.47227 0.42444 0.0
H771 H 0.85226 0.55081 0.39607 0.0
C772 C 0.41269 0.97319 0.56025 0.0
N773 N 0.44447 0.98624 0.4866 0.0
C774 C 0.41877 0.98187 0.48319 0.0
C775 C 0.41001 0.98641 0.46047 0.0
C776 C 0.42788 0.99491 0.44059 0.0
C777 C 0.45414 1.00026 0.44475 0.0
C778 C 0.46202 0.99584 0.46801 0.0
Zn779 Zn 0.45625 0.97265 0.51944 0.0
C780 C 0.47913 0.01169 0.54751 0.0
N781 N 0.47758 0.93857 0.58585 0.0
C782 C 0.46041 0.92213 0.59995 0.0
C783 C 0.50061 0.94666 0.59361 0.0
C784 C 0.50693 0.9385 0.6166 0.0
C785 C 0.48925 0.92205 0.63171 0.0
C786 C 0.46586 0.91365 0.62309 0.0
Zn787 Zn 0.46734 0.95306 0.5535 0.0
O788 O 0.41783 0.98235 0.53846 0.0
C789 C 0.44291 0.91437 0.52615 0.0
O790 O 0.43 0.95989 0.56993 0.0
H791 H 0.51388 0.95986 0.58214 0.0
H792 H 0.4051 0.97372 0.49789 0.0
H793 H 0.44223 0.91594 0.5934 0.0
O794 O 0.4411 0.93524 0.51286 0.0
O795 O 0.45454 0.9153 0.54516 0.0
H796 H 0.48242 0.99902 0.47092 0.0
O797 O 0.505 0.94632 0.53771 0.0
O798 O 0.49534 0.96218 0.50228 0.0
O799 O 0.47927 0.99098 0.56137 0.0
O800 O 0.47112 0.01033 0.52673 0.0
C801 C 0.51188 0.95172 0.51551 0.0
H802 H 0.38944 0.98262 0.45849 0.0
H803 H 0.46878 0.00666 0.43007 0.0
H804 H 0.5251 0.9455 0.62269 0.0
H805 H 0.45193 0.90062 0.63409 0.0
C806 C 0.6131 0.52889 0.6098 0.0
N807 N 0.58553 0.52688 0.54065 0.0
C808 C 0.61122 0.52958 0.53135 0.0
C809 C 0.6189 0.52364 0.50759 0.0
C810 C 0.59992 0.51516 0.49309 0.0
C811 C 0.57367 0.51186 0.50331 0.0
C812 C 0.5669 0.5177 0.52729 0.0
Zn813 Zn 0.57453 0.54042 0.57404 0.0
C814 C 0.54321 0.49933 0.60679 0.0
N815 N 0.55126 0.57147 0.64299 0.0
C816 C 0.57148 0.58255 0.65324 0.0
C817 C 0.52587 0.5736 0.65288 0.0
C818 C 0.52013 0.58783 0.67348 0.0
C819 C 0.54073 0.5996 0.68419 0.0
C820 C 0.56668 0.59645 0.67395 0.0
Zn821 Zn 0.56101 0.5554 0.61004 0.0
O822 O 0.61012 0.52549 0.58781 0.0
C823 C 0.59485 0.59468 0.57642 0.0
O824 O 0.59551 0.5407 0.62249 0.0
H825 H 0.50997 0.56494 0.64443 0.0
H826 H 0.62569 0.53725 0.54209 0.0
H827 H 0.59147 0.58149 0.64488 0.0
O828 O 0.59467 0.57573 0.56279 0.0
O829 O 0.58177 0.59229 0.5972 0.0
H830 H 0.5466 0.51564 0.535 0.0
O831 O 0.52597 0.5697 0.5972 0.0
O832 O 0.53868 0.55636 0.5613 0.0
O833 O 0.54174 0.51746 0.62173 0.0
O834 O 0.55485 0.50438 0.58569 0.0
C835 C 0.52167 0.56761 0.57537 0.0
H836 H 0.6393 0.52672 0.50032 0.0
H837 H 0.5585 0.50514 0.49278 0.0
H838 H 0.49981 0.58977 0.68085 0.0
H839 H 0.58313 0.60558 0.68131 0.0
C840 C 0.54353 0.50382 0.94254 0.0
N841 N 0.55151 0.44377 0.89585 0.0
C842 C 0.52764 0.45238 0.89018 0.0
C843 C 0.51979 0.44919 0.86744 0.0
C844 C 0.53642 0.43652 0.85045 0.0
C845 C 0.5612 0.4282 0.85658 0.0
C846 C 0.56845 0.43214 0.87955 0.0
Zn847 Zn 0.56084 0.45009 0.92932 0.0
C848 C 0.61265 0.47543 0.92827 0.0
N849 N 0.57614 0.4666 0.99995 0.0
C850 C 0.55761 0.47856 0.01457 0.0
C851 C 0.60053 0.46166 0.00674 0.0
C852 C 0.60729 0.46944 0.02884 0.0
C853 C 0.58881 0.48253 0.04402 0.0
C854 C 0.56356 0.48675 0.0368 0.0
Zn855 Zn 0.568 0.4585 0.96639 0.0
O856 O 0.54443 0.48811 0.92573 0.0
C857 C 0.51494 0.43346 0.96527 0.0
O858 O 0.55185 0.49632 0.9624 0.0
H859 H 0.61493 0.45212 0.99479 0.0
H860 H 0.51443 0.46159 0.9034 0.0
H861 H 0.53837 0.48237 0.00872 0.0
O862 O 0.52399 0.43414 0.94325 0.0
O863 O 0.52928 0.4421 0.98058 0.0
H864 H 0.58738 0.42562 0.88447 0.0
O865 O 0.58479 0.42127 0.97033 0.0
O866 O 0.57922 0.4121 0.93327 0.0
O867 O 0.60659 0.47463 0.95105 0.0
O868 O 0.59663 0.46629 0.9149 0.0
C869 C 0.5881 0.40578 0.95336 0.0
H870 H 0.50066 0.45615 0.86338 0.0
H871 H 0.57446 0.41791 0.84414 0.0
H872 H 0.62683 0.46534 0.03393 0.0
H873 H 0.54879 0.49694 0.04786 0.0
C874 C 0.44938 0.11277 0.95511 0.0
N875 N 0.52758 0.08631 0.94662 0.0
C876 C 0.53495 0.11174 0.94058 0.0
C877 C 0.56014 0.12072 0.94406 0.0
C878 C 0.5782 0.10328 0.95346 0.0
C879 C 0.56998 0.07709 0.95952 0.0
C880 C 0.54443 0.06905 0.9561 0.0
Zn881 Zn 0.49076 0.07399 0.94067 0.0
C882 C 0.46263 0.04482 0.98383 0.0
N883 N 0.41473 0.0483 0.92799 0.0
C884 C 0.39783 0.06475 0.91758 0.0
C885 C 0.40836 0.02255 0.93372 0.0
C886 C 0.38473 0.01205 0.92779 0.0
C887 C 0.36754 0.02825 0.91588 0.0
C888 C 0.37394 0.05508 0.91137 0.0
Zn889 Zn 0.45103 0.0613 0.93371 0.0
O890 O 0.47433 0.11054 0.95233 0.0
C891 C 0.47802 0.09272 0.89094 0.0
O892 O 0.43483 0.09447 0.9491 0.0
H893 H 0.42206 0.00987 0.94214 0.0
H894 H 0.52129 0.12513 0.93299 0.0
H895 H 0.40335 0.08515 0.91326 0.0
O896 O 0.49707 0.09077 0.90399 0.0
O897 O 0.45578 0.08236 0.89899 0.0
H898 H 0.53814 0.04892 0.96083 0.0
O899 O 0.46711 0.02747 0.9185 0.0
O900 O 0.50605 0.03657 0.9294 0.0
O901 O 0.44631 0.04156 0.96849 0.0
O902 O 0.48372 0.05807 0.97731 0.0
C903 C 0.4908 0.02099 0.92013 0.0
H904 H 0.56525 0.1412 0.93956 0.0
H905 H 0.58321 0.06277 0.96647 0.0
H906 H 0.38038 0.99131 0.93166 0.0
H907 H 0.36139 0.06815 0.90187 0.0
H908 H 0.03262 0.15134 0.42457 0.0
H909 H 0.00582 0.00772 0.38222 0.0
H910 H 0.98648 0.13729 0.36585 0.0
H911 H 0.03163 0.02219 0.45162 0.0
H912 H 0.9992 0.05498 0.37519 0.0
H913 H 0.03377 0.10388 0.43397 0.0
C914 C 0.02267 0.13827 0.41372 0.0
C915 C 0.00938 0.1483 0.39445 0.0
C916 C 0.00606 0.04773 0.39205 0.0
C917 C 0.01073 0.09395 0.40498 0.0
C918 C 0.00979 0.02075 0.39609 0.0
C919 C 0.01939 0.01092 0.4175 0.0
C920 C 0.01228 0.06502 0.40941 0.0
C921 C 0.02426 0.0288 0.4348 0.0
C922 C 0.02321 0.11119 0.41915 0.0
C923 C 0.99669 0.13043 0.38106 0.0
N924 N 0.02091 0.05493 0.43028 0.0
N925 N 0.99785 0.10415 0.38644 0.0
H926 H 0.02138 0.33566 0.42152 0.0
H927 H 0.95848 0.47218 0.38587 0.0
H928 H 0.99237 0.35265 0.35253 0.0
H929 H 0.01592 0.46672 0.43745 0.0
H930 H 0.96824 0.42738 0.37534 0.0
H931 H 0.01718 0.3823 0.42991 0.0
C932 C 0.01451 0.34931 0.40802 0.0
C933 C 0.00769 0.34046 0.3861 0.0
C934 C 0.97893 0.436 0.3888 0.0
C935 C 1.00201 0.39351 0.39586 0.0
C936 C 0.97337 0.4616 0.39485 0.0
C937 C 0.98646 0.47325 0.41254 0.0
C938 C 0.99734 0.42151 0.40089 0.0
C939 C 0.00554 0.45855 0.42358 0.0
C940 C 0.01203 0.37586 0.41283 0.0
C941 C 0.99801 0.35875 0.36956 0.0
N942 N 0.01017 0.43328 0.41781 0.0
N943 N 0.99532 0.38432 0.37482 0.0
H944 H 0.01055 0.84913 0.0792 0.0
H945 H 0.05308 0.99025 0.11959 0.0
H946 H 0.04297 0.86052 0.14626 0.0
H947 H 0.0536 0.97325 0.04476 0.0
H948 H 0.04019 0.94445 0.13128 0.0
H949 H 0.01765 0.89629 0.06784 0.0
C950 C 0.01901 0.86159 0.09155 0.0
C951 C 0.02643 0.8509 0.11358 0.0
C952 C 0.04289 0.95084 0.11231 0.0
C953 C 0.03418 0.90474 0.10095 0.0
C954 C 0.05005 0.97703 0.10562 0.0
C955 C 0.05452 0.98564 0.08114 0.0
C956 C 0.03976 0.93314 0.09444 0.0
C957 C 0.05048 0.96747 0.06384 0.0
C958 C 0.02312 0.88842 0.08506 0.0
C959 C 0.03731 0.86791 0.12896 0.0
N960 N 0.04335 0.94211 0.07081 0.0
N961 N 0.04076 0.89394 0.1224 0.0
H962 H 0.02132 0.64548 0.13779 0.0
H963 H 0.98883 0.57147 0.02171 0.0
H964 H 0.0071 0.68637 0.07068 0.0
H965 H 0.00973 0.53221 0.08766 0.0
H966 H 0.99749 0.6138 0.03814 0.0
H967 H 0.01941 0.60372 0.11865 0.0
C968 C 0.01798 0.64552 0.11892 0.0
C969 C 0.01409 0.6691 0.10575 0.0
C970 C 1.00035 0.59589 0.04891 0.0
C971 C 0.01165 0.62165 0.08373 0.0
C972 C 0.99541 0.57173 0.03955 0.0
C973 C 0.99834 0.54826 0.0534 0.0
C974 C 0.00819 0.59653 0.0723 0.0
C975 C 0.00699 0.54978 0.07638 0.0
C976 C 0.01685 0.62177 0.10799 0.0
C977 C 0.00993 0.66839 0.08137 0.0
N978 N 0.01144 0.57347 0.08512 0.0
N979 N 0.00857 0.64497 0.07114 0.0
H980 H 0.42645 0.04808 0.13832 0.0
H981 H 0.42422 0.00916 1.0021 0.0
H982 H 0.37794 0.98537 0.11716 0.0
H983 H 0.48362 0.06091 0.02409 0.0
H984 H 0.40789 0.99955 0.0444 0.0
H985 H 0.44807 0.05302 0.09694 0.0
C986 C 0.42039 0.0353 0.12502 0.0
C987 C 0.40031 0.01627 0.13131 0.0
C988 C 0.42469 0.01278 0.04006 0.0
C989 C 0.42501 0.02182 0.08386 0.0
C990 C 0.43408 0.01825 0.01586 0.0
C991 C 0.45532 0.03592 0.00949 0.0
C992 C 0.43633 0.02534 0.05815 0.0
C993 C 0.46727 0.04709 0.02815 0.0
C994 C 0.43286 0.03802 0.10143 0.0
C995 C 0.39351 1.0001 0.11331 0.0
N996 N 0.45741 0.04186 0.05162 0.0
N997 N 0.40566 1.00337 0.09046 0.0
H998 H 0.67837 0.52234 0.15883 0.0
H999 H 0.55861 0.48139 0.08769 0.0
H1000 H 0.59905 0.51057 0.19275 0.0
H1001 H 0.63533 0.5055 0.0528 0.0
H1002 H 0.57187 0.49522 0.12587 0.0
H1003 H 0.66203 0.52008 0.11929 0.0
C1004 C 0.6574 0.51974 0.15778 0.0
C1005 C 0.63994 0.51632 0.17878 0.0
C1006 C 0.58572 0.49769 0.10981 0.0
C1007 C 0.62115 0.51319 0.13398 0.0
C1008 C 0.57815 0.48984 0.088 0.0
C1009 C 0.59602 0.49197 0.06708 0.0
C1010 C 0.61138 0.50759 0.11073 0.0
C1011 C 0.62113 0.50289 0.0686 0.0
C1012 C 0.64807 0.51835 0.13531 0.0
C1013 C 0.61301 0.513 0.17677 0.0
N1014 N 0.62814 0.51009 0.09009 0.0
N1015 N 0.60441 0.51111 0.15469 0.0
H1016 H 0.41301 0.02708 0.28706 0.0
H1017 H 0.39171 0.96363 0.42192 0.0
H1018 H 0.34282 0.98357 0.31613 0.0
H1019 H 0.4447 0.02985 0.40189 0.0
H1020 H 0.37705 0.96708 0.38178 0.0
H1021 H 0.42848 0.02476 0.3275 0.0
C1022 C 0.40083 0.01721 0.30204 0.0
C1023 C 0.37646 0.00584 0.29848 0.0
C1024 C 0.39181 0.98093 0.38619 0.0
C1025 C 0.3942 1.00251 0.3444 0.0
C1026 C 0.40012 0.97914 0.40926 0.0
C1027 C 0.41927 0.99676 0.41569 0.0
C1028 C 0.40294 1.0002 0.36904 0.0
C1029 C 0.43003 0.01572 0.39789 0.0
C1030 C 0.40964 0.01585 0.32503 0.0
C1031 C 0.36164 0.99274 0.31825 0.0
N1032 N 0.42174 0.01692 0.37539 0.0
N1033 N 0.37076 0.99136 0.34034 0.0
H1034 H 0.6205 0.53623 0.3373 0.0
H1035 H 0.64243 0.48916 0.47268 0.0
H1036 H 0.67293 0.47386 0.35477 0.0
H1037 H 0.5745 0.53267 0.45447 0.0
H1038 H 0.6557 0.4854 0.4296 0.0
H1039 H 0.60512 0.53751 0.38029 0.0
C1040 C 0.62874 0.5228 0.3502 0.0
C1041 C 0.64796 0.50488 0.34248 0.0
C1042 C 0.63779 0.49561 0.43504 0.0
C1043 C 0.63061 0.50631 0.39162 0.0
C1044 C 0.63028 0.49784 0.4596 0.0
C1045 C 0.60732 0.51122 0.46715 0.0
C1046 C 0.62247 0.50719 0.41787 0.0
C1047 C 0.5922 0.52196 0.44944 0.0
C1048 C 0.61987 0.52344 0.37469 0.0
C1049 C 0.65787 0.48779 0.35993 0.0
N1050 N 0.60015 0.51991 0.42563 0.0
N1051 N 0.64923 0.48905 0.38369 0.0
H1052 H 0.16515 0.3865 0.95899 0.0
H1053 H 0.07047 0.47697 0.03584 0.0
H1054 H 0.19174 0.43422 0.01317 0.0
H1055 H 0.05011 0.44836 0.96894 0.0
H1056 H 0.11608 0.46471 0.02555 0.0
H1057 H 0.12456 0.41166 0.9596 0.0
C1058 C 0.16261 0.40266 0.97068 0.0
C1059 C 0.18168 0.40818 0.98623 0.0
C1060 C 0.10186 0.4615 0.01284 0.0
C1061 C 0.13511 0.43676 0.98732 0.0
C1062 C 0.07579 0.46848 0.01872 0.0
C1063 C 0.05654 0.46351 0.00325 0.0
C1064 C 0.10873 0.44878 0.99157 0.0
C1065 C 0.06443 0.45255 0.9813 0.0
C1066 C 0.13946 0.41703 0.971 0.0
C1067 C 0.17754 0.42936 1.00091 0.0
N1068 N 0.08989 0.44504 0.97631 0.0
N1069 N 0.15448 0.44257 1.00142 0.0
H1070 H 0.20415 0.67966 0.46323 0.0
H1071 H 0.09236 0.56918 0.49452 0.0
H1072 H 0.21599 0.61001 0.50815 0.0
H1073 H 0.09752 0.62013 0.42938 0.0
H1074 H 0.13512 0.58639 0.50305 0.0
H1075 H 0.16203 0.66103 0.45403 0.0
C1076 C 0.1977 0.66047 0.47122 0.0
C1077 C 0.21318 0.64642 0.4867 0.0
C1078 C 0.12684 0.5937 0.48688 0.0
C1079 C 0.16525 0.62507 0.4764 0.0
C1080 C 0.10247 0.58378 0.48187 0.0
C1081 C 0.09108 0.59319 0.46117 0.0
C1082 C 0.13981 0.61344 0.4713 0.0
C1083 C 0.10508 0.61259 0.44581 0.0
C1084 C 0.1738 0.64983 0.46594 0.0
C1085 C 0.20425 0.62158 0.4965 0.0
N1086 N 0.12858 0.62216 0.45127 0.0
N1087 N 0.18072 0.61172 0.49133 0.0
H1088 H 0.82931 0.88584 0.45538 0.0
H1089 H 0.97707 0.88907 0.48932 0.0
H1090 H 0.85708 0.8242 0.50207 0.0
H1091 H 0.95724 0.9132 0.41809 0.0
H1092 H 0.93158 0.8717 0.49948 0.0
H1093 H 0.8747 0.90273 0.44631 0.0
C1094 C 0.84504 0.87548 0.46327 0.0
C1095 C 0.83956 0.85283 0.47861 0.0
C1096 C 0.93731 0.88085 0.48167 0.0
C1097 C 0.89137 0.87315 0.46961 0.0
C1098 C 0.96316 0.89086 0.47592 0.0
C1099 C 0.97102 0.90248 0.45279 0.0
C1100 C 0.91907 0.88321 0.4644 0.0
C1101 C 0.95216 0.90422 0.43608 0.0
C1102 C 0.87088 0.88535 0.45837 0.0
C1103 C 0.86058 0.84134 0.48967 0.0
N1104 N 0.92711 0.89494 0.44225 0.0
N1105 N 0.88553 0.85163 0.48503 0.0
H1106 H 0.40891 0.65149 0.49423 0.0
H1107 H 0.47666 0.5808 0.60247 0.0
H1108 H 0.36517 0.62438 0.56179 0.0
H1109 H 0.51081 0.57973 0.52856 0.0
H1110 H 0.43708 0.60045 0.58846 0.0
H1111 H 0.44752 0.62867 0.5068 0.0
C1112 C 0.40717 0.6406 0.51159 0.0
C1113 C 0.38339 0.6401 0.5269 0.0
C1114 C 0.45315 0.59582 0.57528 0.0
C1115 C 0.42819 0.61437 0.54166 0.0
C1116 C 0.47584 0.58465 0.58326 0.0
C1117 C 0.49718 0.57858 0.56668 0.0
C1118 C 0.4518 0.60147 0.5505 0.0
C1119 C 0.49484 0.58399 0.54199 0.0
C1120 C 0.42941 0.62767 0.51879 0.0
C1121 C 0.38297 0.62599 0.54945 0.0
N1122 N 0.47268 0.59534 0.53466 0.0
N1123 N 0.40499 0.61393 0.55615 0.0
H1124 H 0.51205 0.6709 0.94975 0.0
H1125 H 0.53523 0.5289 0.89942 0.0
H1126 H 0.54678 0.65775 0.87785 0.0
H1127 H 0.53496 0.5417 0.97522 0.0
H1128 H 0.52912 0.57583 0.89126 0.0
H1129 H 0.51122 0.62308 0.95943 0.0
C1130 C 0.51947 0.65793 0.93607 0.0
C1131 C 0.52984 0.66816 0.91311 0.0
C1132 C 0.53016 0.56831 0.90971 0.0
C1133 C 0.52836 0.61393 0.92375 0.0
C1134 C 0.53348 0.5415 0.91442 0.0
C1135 C 0.53588 0.53139 0.93802 0.0
C1136 C 0.52895 0.58515 0.92873 0.0
C1137 C 0.53343 0.54872 0.95672 0.0
C1138 C 0.519 0.63078 0.94157 0.0
C1139 C 0.53906 0.65063 0.89591 0.0
N1140 N 0.53021 0.57483 0.95167 0.0
N1141 N 0.53802 0.6244 0.90155 0.0
H1142 H 0.54045 0.85928 0.92677 0.0
H1143 H 0.46964 0.99101 0.88798 0.0
H1144 H 0.50124 0.86856 0.86208 0.0
H1145 H 0.53054 0.99054 0.93623 0.0
H1146 H 0.47966 0.94565 0.87956 0.0
H1147 H 0.53572 0.90653 0.93218 0.0
C1148 C 0.5312 0.87139 0.91354 0.0
C1149 C 0.52163 0.8602 0.89372 0.0
C1150 C 0.49106 0.95549 0.8918 0.0
C1151 C 0.51544 0.91395 0.90013 0.0
C1152 C 0.48536 0.98143 0.89663 0.0
C1153 C 0.49931 0.99465 0.91282 0.0
C1154 C 0.51055 0.94229 0.90359 0.0
C1155 C 0.51943 0.98117 0.9235 0.0
C1156 C 0.52842 0.89828 0.91666 0.0
C1157 C 0.50904 0.87653 0.8775 0.0
N1158 N 0.52424 0.95561 0.91893 0.0
N1159 N 0.50619 0.90251 0.88112 0.0
H1160 H 0.51865 0.33092 0.60389 0.0
H1161 H 0.52751 0.47606 0.65237 0.0
H1162 H 0.50859 0.3455 0.67935 0.0
H1163 H 0.53828 0.45916 0.57724 0.0
H1164 H 0.51757 0.42919 0.66293 0.0
H1165 H 0.52329 0.37841 0.59396 0.0
C1166 C 0.51724 0.34424 0.61833 0.0
C1167 C 0.5132 0.33439 0.64243 0.0
C1168 C 0.5219 0.43582 0.64412 0.0
C1169 C 0.51864 0.38887 0.63137 0.0
C1170 C 0.52743 0.46265 0.63808 0.0
C1171 C 0.53383 0.47175 0.61386 0.0
C1172 C 0.52272 0.41789 0.62584 0.0
C1173 C 0.5336 0.45323 0.59617 0.0
C1174 C 0.51992 0.37135 0.61273 0.0
C1175 C 0.51164 0.3524 0.66054 0.0
N1176 N 0.5283 0.42738 0.6025 0.0
N1177 N 0.51444 0.37873 0.65468 0.0
H1178 H 0.52538 0.17076 0.58117 0.0
H1179 H 0.48827 0.02049 0.5934 0.0
H1180 H 0.47422 0.13453 0.64081 0.0
H1181 H 0.48517 0.06096 0.52347 0.0
H1182 H 0.4947 0.06235 0.61057 0.0
H1183 H 0.51989 0.13122 0.55868 0.0
C1184 C 0.51288 0.15472 0.58947 0.0
C1185 C 0.50081 0.15575 0.61322 0.0
C1186 C 0.49276 0.06206 0.59143 0.0
C1187 C 0.49503 0.11071 0.5879 0.0
C1188 C 0.48921 0.03815 0.58152 0.0
C1189 C 0.4859 0.03716 0.55693 0.0
C1190 C 0.49342 0.08533 0.57672 0.0
C1191 C 0.48745 0.06087 0.54255 0.0
C1192 C 0.50985 0.13223 0.57665 0.0
C1193 C 0.48477 0.13435 0.62298 0.0
N1194 N 0.49112 0.08415 0.55267 0.0
N1195 N 0.48271 0.11265 0.61047 0.0
H1196 H 0.86451 0.47642 0.62169 0.0
H1197 H 0.97504 0.53905 0.52149 0.0
H1198 H 0.92136 0.53517 0.63619 0.0
H1199 H 0.90645 0.49628 0.50454 0.0
H1200 H 0.95993 0.53184 0.56445 0.0
H1201 H 0.88386 0.47782 0.57968 0.0
C1202 C 0.88128 0.4894 0.61612 0.0
C1203 C 0.8913 0.50574 0.63252 0.0
C1204 C 0.94831 0.52384 0.55133 0.0
C1205 C 0.91347 0.50754 0.58432 0.0
C1206 C 0.95701 0.52779 0.52678 0.0
C1207 C 0.94193 0.51837 0.50932 0.0
C1208 C 0.92446 0.51019 0.55854 0.0
C1209 C 0.91867 0.50401 0.51732 0.0
C1210 C 0.8922 0.49031 0.59208 0.0
C1211 C 0.91282 0.52244 0.62413 0.0
N1212 N 0.91061 0.50046 0.54132 0.0
N1213 N 0.92318 0.52291 0.60063 0.0
H1214 H 0.08936 1.0042 0.66707 0.0
H1215 H 0.11227 1.00201 0.52451 0.0
H1216 H 0.15472 0.04303 0.62311 0.0
H1217 H 0.04325 0.9682 0.56686 0.0
H1218 H 0.12494 0.02229 0.56014 0.0
H1219 H 0.0685 0.99657 0.63051 0.0
C1220 C 0.09908 0.01152 0.64975 0.0
C1221 C 0.124 0.02386 0.64806 0.0
C1222 C 0.10689 0.01064 0.56167 0.0
C1223 C 0.10044 0.01507 0.60627 0.0
C1224 C 0.0998 0.99889 0.54138 0.0
C1225 C 0.07698 0.98305 0.54295 0.0
C1226 C 0.09121 0.00625 0.58378 0.0
C1227 C 0.0611 0.98016 0.56501 0.0
C1228 C 0.08717 0.0072 0.6289 0.0
C1229 C 0.13551 0.03341 0.62526 0.0
N1230 N 0.06872 0.99137 0.58471 0.0
N1231 N 0.12384 0.02842 0.60522 0.0
H1232 H 0.84655 0.52315 0.81817 0.0
H1233 H 0.97162 0.50182 0.89316 0.0
H1234 H 0.92233 0.49971 0.78613 0.0
H1235 H 0.89454 0.52263 0.92478 0.0
H1236 H 0.95516 0.50399 0.85335 0.0
H1237 H 0.86468 0.52549 0.85703 0.0
C1238 C 0.86705 0.51847 0.81945 0.0
C1239 C 0.88297 0.51095 0.79919 0.0
C1240 C 0.9419 0.50823 0.86899 0.0
C1241 C 0.90399 0.51369 0.84337 0.0
C1242 C 0.95135 0.50722 0.89171 0.0
C1243 C 0.93441 0.51189 0.91241 0.0
C1244 C 0.91532 0.51404 0.86692 0.0
C1245 C 0.90822 0.51848 0.90941 0.0
C1246 C 0.87743 0.51982 0.84155 0.0
C1247 C 0.90944 0.50529 0.80153 0.0
N1248 N 0.89949 0.51924 0.88718 0.0
N1249 N 0.91914 0.50669 0.82328 0.0
H1250 H 0.19968 1.00401 0.81656 0.0
H1251 H 0.09196 0.04181 0.92344 0.0
H1252 H 0.12362 0.03511 0.80493 0.0
H1253 H 0.16844 0.01157 0.93572 0.0
H1254 H 0.10283 0.03828 0.88018 0.0
H1255 H 0.18853 0.00579 0.86033 0.0
C1256 C 0.18063 0.01123 0.82335 0.0
C1257 C 0.16257 0.01964 0.80734 0.0
C1258 C 0.11724 0.03234 0.89232 0.0
C1259 C 0.14953 0.02159 0.85716 0.0
C1260 C 0.11096 0.03415 0.91712 0.0
C1261 C 0.12925 0.02691 0.93342 0.0
C1262 C 0.14205 0.02322 0.88355 0.0
C1263 C 0.15378 0.01766 0.92392 0.0
C1264 C 0.17425 0.01224 0.84826 0.0
C1265 C 0.13809 0.02868 0.81682 0.0
N1266 N 0.15945 0.0161 0.89967 0.0
N1267 N 0.13229 0.02945 0.84111 0.0
H1268 H 0.67588 0.91314 0.51616 0.0
H1269 H 0.52894 0.92352 0.47652 0.0
H1270 H 0.64003 0.85401 0.47744 0.0
H1271 H 0.55645 0.96435 0.53474 0.0
H1272 H 0.57325 0.90512 0.46843 0.0
H1273 H 0.63579 0.93912 0.515 0.0
C1274 C 0.65975 0.90581 0.5071 0.0
C1275 C 0.66121 0.88123 0.49713 0.0
C1276 C 0.56967 0.91856 0.48264 0.0
C1277 C 0.61528 0.91087 0.49565 0.0
C1278 C 0.54452 0.92926 0.48704 0.0
C1279 C 0.53916 0.94553 0.50623 0.0
C1280 C 0.58954 0.92449 0.49736 0.0
C1281 C 0.55986 0.95191 0.51973 0.0
C1282 C 0.63682 0.92057 0.50654 0.0
C1283 C 0.63959 0.87266 0.4857 0.0
N1284 N 0.58404 0.94134 0.51512 0.0
N1285 N 0.61752 0.88738 0.48535 0.0
H1286 H 0.73688 0.12029 0.9951 0.0
H1287 H 0.60952 0.13996 0.92535 0.0
H1288 H 0.72045 0.19346 0.95735 0.0
H1289 H 0.60928 0.08731 0.98907 0.0
H1290 H 0.65343 0.15558 0.9319 0.0
H1291 H 0.69315 0.10336 0.98799 0.0
C1292 C 0.72393 0.13276 0.98543 0.0
C1293 C 0.73182 0.15839 0.97717 0.0
C1294 C 0.64369 0.1406 0.9444 0.0
C1295 C 0.68257 0.1391 0.96837 0.0
C1296 C 0.61851 0.13175 0.94081 0.0
C1297 C 0.60537 0.11237 0.9568 0.0
C1298 C 0.65611 0.12973 0.96386 0.0
C1299 C 0.61861 0.10199 0.97606 0.0
C1300 C 0.69914 0.12314 0.98134 0.0
C1301 C 0.71482 0.17364 0.96415 0.0
N1302 N 0.64328 0.11076 0.97902 0.0
N1303 N 0.69096 0.16375 0.96008 0.0
H1304 H 0.34705 0.40816 0.96568 0.0
H1305 H 0.49265 0.40532 0.00666 0.0
H1306 H 0.3725 0.34214 0.00866 0.0
H1307 H 0.47427 0.44065 0.93834 0.0
H1308 H 0.44681 0.38799 0.01411 0.0
H1309 H 0.39199 0.42654 0.96179 0.0
C1310 C 0.36225 0.39731 0.97393 0.0
C1311 C 0.35639 0.37302 0.98657 0.0
C1312 C 0.45293 0.39967 0.99758 0.0
C1313 C 0.40754 0.39464 0.98336 0.0
C1314 C 0.47894 0.40967 0.99342 0.0
C1315 C 0.48726 0.42432 0.97181 0.0
C1316 C 0.43514 0.40504 0.98029 0.0
C1317 C 0.46876 0.42927 0.95516 0.0
C1318 C 0.3878 0.40794 0.97196 0.0
C1319 C 0.37648 0.36059 0.99821 0.0
N1320 N 0.44365 0.41981 0.9598 0.0
N1321 N 0.40123 0.37149 0.99631 0.0
H1322 H 0.90887 0.13065 0.97631 0.0
H1323 H 0.01693 0.11492 0.07035 0.0
H1324 H 0.91045 0.17483 0.03972 0.0
H1325 H 0.02557 0.07913 1.00194 0.0
H1326 H 0.97674 0.13529 0.05946 0.0
H1327 H 0.95041 0.11029 0.98522 0.0
C1328 C 0.91791 0.13618 0.99204 0.0
C1329 C 0.90585 0.15443 0.00737 0.0
C1330 C 0.98736 0.12307 0.04671 0.0
C1331 C 0.95334 0.13093 0.01775 0.0
C1332 C 0.01041 0.11133 0.05294 0.0
C1333 C 0.02478 0.09521 0.03704 0.0
C1334 C 0.97821 0.11869 0.02439 0.0
C1335 C 0.01519 0.09144 0.01473 0.0
C1336 C 0.9416 0.12444 0.99714 0.0
C1337 C 0.9185 0.16051 0.02761 0.0
N1338 N 0.99242 0.10303 0.00909 0.0
N1339 N 0.94138 0.14879 0.03218 0.0
H1340 H 0.00631 0.16888 0.29109 0.0
H1341 H 0.08123 0.15754 0.15909 0.0
H1342 H 0.04635 0.23383 0.24917 0.0
H1343 H 0.02869 0.09673 0.19409 0.0
H1344 H 0.06977 0.18502 0.19271 0.0
H1345 H 0.01485 0.14149 0.25648 0.0
C1346 C 0.01667 0.17736 0.27446 0.0
C1347 C 0.02558 0.20356 0.27279 0.0
C1348 C 0.06067 0.16569 0.19308 0.0
C1349 C 0.03579 0.17247 0.23341 0.0
C1350 C 0.06737 0.14989 0.17395 0.0
C1351 C 0.05608 0.12467 0.17384 0.0
C1352 C 0.04264 0.15625 0.21247 0.0
C1353 C 0.03781 0.11606 0.19338 0.0
C1354 C 0.0216 0.16178 0.25477 0.0
C1355 C 0.03916 0.21369 0.25104 0.0
N1356 N 0.03178 0.13175 0.21199 0.0
N1357 N 0.04398 0.1981 0.23225 0.0
H1358 H 0.99177 0.37479 0.27682 0.0
H1359 H 0.05147 0.40802 0.13997 0.0
H1360 H 0.05764 0.33401 0.24247 0.0
H1361 H 0.97336 0.42865 0.16903 0.0
H1362 H 0.05934 0.38856 0.17989 0.0
H1363 H 0.99046 0.40265 0.23983 0.0
C1364 C 0.0061 0.37182 0.26157 0.0
C1365 C 0.02454 0.35169 0.26262 0.0
C1366 C 0.04058 0.39756 0.17753 0.0
C1367 C 0.02326 0.3837 0.22031 0.0
C1368 C 0.03614 0.40872 0.15485 0.0
C1369 C 0.01164 0.41964 0.15124 0.0
C1370 C 0.02048 0.39767 0.19671 0.0
C1371 C 0.99237 0.42003 0.17102 0.0
C1372 C 0.00537 0.38778 0.24049 0.0
C1373 C 0.04309 0.34926 0.2425 0.0
N1374 N 0.99718 0.40912 0.19289 0.0
N1375 N 0.0418 0.36489 0.22206 0.0
H1376 H 0.02709 0.83235 0.19437 0.0
H1377 H 0.05572 0.91014 0.28674 0.0
H1378 H 0.98031 0.78862 0.25237 0.0
H1379 H 0.98141 0.88124 0.32338 0.0
H1380 H 0.04785 0.88485 0.25239 0.0
H1381 H 0.02946 0.86939 0.2202 0.0
C1382 C 0.01726 0.83077 0.21257 0.0
C1383 C 1.00362 0.80769 0.22155 0.0
C1384 C 0.03281 0.88474 0.26754 0.0
C1385 C 0.0066 0.84918 0.25112 0.0
C1386 C 0.03746 0.89896 0.28726 0.0
C1387 C 0.01932 0.89753 0.30797 0.0
C1388 C 0.00992 0.86892 0.26873 0.0
C1389 C 0.99587 0.88297 0.30773 0.0
C1390 C 0.01873 0.85171 0.22731 0.0
C1391 C 0.99099 0.80625 0.24501 0.0
N1392 N 0.99209 0.86881 0.28858 0.0
N1393 N 0.99285 0.82676 0.25907 0.0
H1394 H 0.95042 0.63777 0.24471 0.0
H1395 H 0.01188 0.59594 0.36804 0.0
H1396 H 0.02596 0.66548 0.26248 0.0
H1397 H 0.93314 0.57371 0.35428 0.0
H1398 H 0.01822 0.61921 0.32825 0.0
H1399 H 0.94445 0.61231 0.28359 0.0
C1400 C 0.96577 0.63858 0.25671 0.0
C1401 C 0.98879 0.6539 0.25007 0.0
C1402 C 0.99956 0.6092 0.33387 0.0
C1403 C 0.98211 0.62445 0.29472 0.0
C1404 C 0.99593 0.59582 0.35663 0.0
C1405 C 0.97191 0.58281 0.36464 0.0
C1406 C 0.97906 0.60964 0.31882 0.0
C1407 C 0.95199 0.58346 0.34894 0.0
C1408 C 0.96237 0.6239 0.27891 0.0
C1409 C 0.00808 0.65371 0.26642 0.0
N1410 N 0.95599 0.59666 0.32685 0.0
N1411 N 1.00428 0.63932 0.28787 0.0
H1412 H 0.22732 0.98689 0.19365 0.0
H1413 H 0.18977 0.03603 0.06223 0.0
H1414 H 0.28449 0.02076 0.13788 0.0
H1415 H 0.13382 0.01092 0.12268 0.0
H1416 H 0.22592 0.02381 0.08671 0.0
H1417 H 0.1939 0.98901 0.16513 0.0
C1418 C 0.23279 0.99455 0.17526 0.0
C1419 C 0.25849 1.00375 0.16801 0.0
C1420 C 0.2057 0.0206 0.09442 0.0
C1421 C 0.22045 0.00658 0.13527 0.0
C1422 C 0.18515 0.02734 0.08039 0.0
C1423 C 0.15888 0.02458 0.09056 0.0
C1424 C 0.19974 0.01089 0.11857 0.0
C1425 C 0.15385 0.01355 0.11425 0.0
C1426 C 0.21377 0.99583 0.15897 0.0
C1427 C 0.26474 0.01357 0.14404 0.0
N1428 N 0.17402 0.00729 0.12744 0.0
N1429 N 0.24578 0.01493 0.12851 0.0
H1430 H 0.7783 0.53129 0.12515 0.0
H1431 H 0.90564 0.44676 0.09165 0.0
H1432 H 0.79239 0.45458 0.15781 0.0
H1433 H 0.88739 0.51498 0.04728 0.0
H1434 H 0.86346 0.44994 0.11548 0.0
H1435 H 0.81719 0.52647 0.09605 0.0
C1436 C 0.78941 0.51339 0.12614 0.0
C1437 C 0.78199 0.49332 0.14407 0.0
C1438 C 0.86843 0.4642 0.10048 0.0
C1439 C 0.82645 0.48774 0.11083 0.0
C1440 C 0.89265 0.46245 0.08685 0.0
C1441 C 0.90017 0.48077 0.06753 0.0
C1442 C 0.85146 0.48467 0.0951 0.0
C1443 C 0.88234 0.50046 0.06205 0.0
C1444 C 0.81151 0.51062 0.10943 0.0
C1445 C 0.79701 0.47046 0.14423 0.0
N1446 N 0.85886 0.5021 0.07598 0.0
N1447 N 0.81852 0.46843 0.12806 0.0
H1448 H 0.21025 0.02407 0.29772 0.0
H1449 H 0.14704 0.94732 0.42038 0.0
H1450 H 0.25259 0.96549 0.33655 0.0
H1451 H 0.10251 0.98816 0.3686 0.0
H1452 H 0.18806 0.96053 0.39482 0.0
H1453 H 0.17286 0.01781 0.32856 0.0
C1454 C 0.21185 0.01011 0.31289 0.0
C1455 C 0.23463 0.9952 0.31441 0.0
C1456 C 0.16928 0.96689 0.38931 0.0
C1457 C 0.19155 0.98773 0.34986 0.0
C1458 C 0.14597 0.95959 0.40398 0.0
C1459 C 0.12145 0.96668 0.39652 0.0
C1460 C 0.16788 0.98164 0.36732 0.0
C1461 C 0.12105 0.98222 0.37494 0.0
C1462 C 0.19038 0.00642 0.33045 0.0
C1463 C 0.23529 0.97714 0.33443 0.0
N1464 N 0.14382 0.9891 0.36113 0.0
N1465 N 0.21405 0.97384 0.35133 0.0
H1466 H 0.79924 0.4671 0.28134 0.0
H1467 H 0.80694 0.52932 0.40556 0.0
H1468 H 0.73309 0.50574 0.31726 0.0
H1469 H 0.85937 0.46876 0.38062 0.0
H1470 H 0.77757 0.51856 0.37538 0.0
H1471 H 0.82034 0.46519 0.31889 0.0
C1472 C 0.78904 0.47471 0.29736 0.0
C1473 C 0.76452 0.48645 0.29651 0.0
C1474 C 0.7952 0.50722 0.37689 0.0
C1475 C 0.78852 0.48502 0.33912 0.0
C1476 C 0.81192 0.51337 0.39407 0.0
C1477 C 0.83567 0.50008 0.39535 0.0
C1478 C 0.80264 0.48804 0.36063 0.0
C1479 C 0.8412 0.47946 0.38023 0.0
C1480 C 0.80099 0.47365 0.31874 0.0
C1481 C 0.75211 0.49655 0.31743 0.0
N1482 N 0.82505 0.4744 0.36315 0.0
N1483 N 0.76441 0.49591 0.3379 0.0
H1484 H 0.2235 0.22985 0.97532 0.0
H1485 H 0.13908 0.14058 0.07836 0.0
H1486 H 0.22664 0.23834 0.0511 0.0
H1487 H 0.14873 0.12148 0.00373 0.0
H1488 H 0.1703 0.17733 0.06845 0.0
H1489 H 0.19744 0.18987 0.98488 0.0
C1490 C 0.21716 0.22475 0.99404 0.0
C1491 C 0.22271 0.24107 0.01249 0.0
C1492 C 0.16566 0.16506 0.05424 0.0
C1493 C 0.19539 0.19287 0.02365 0.0
C1494 C 0.14764 0.14418 0.05986 0.0
C1495 C 0.14111 0.12796 0.04184 0.0
C1496 C 0.17714 0.16999 0.03037 0.0
C1497 C 0.15308 0.13349 0.01821 0.0
C1498 C 0.20295 0.20112 0.99949 0.0
C1499 C 0.21892 0.22939 0.03622 0.0
N1500 N 0.17037 0.1541 0.01314 0.0
N1501 N 0.20475 0.20662 0.04118 0.0
H1502 H 0.16397 0.76163 0.49695 0.0
H1503 H 0.10663 0.86348 0.40138 0.0
H1504 H 0.21091 0.79346 0.43268 0.0
H1505 H 0.07771 0.8562 0.47686 0.0
H1506 H 0.14002 0.83043 0.40913 0.0
H1507 H 0.12775 0.7894 0.48652 0.0
C1508 C 0.16688 0.77447 0.4807 0.0
C1509 C 0.19103 0.77526 0.46595 0.0
C1510 C 0.1261 0.83585 0.42389 0.0
C1511 C 0.1488 0.80669 0.45348 0.0
C1512 C 0.10687 0.85447 0.41944 0.0
C1513 C 0.08931 0.86258 0.4385 0.0
C1514 C 0.12745 0.82493 0.44748 0.0
C1515 C 0.09084 0.85056 0.46164 0.0
C1516 C 0.14597 0.79019 0.47467 0.0
C1517 C 0.19282 0.79181 0.44464 0.0
N1518 N 0.10953 0.8324 0.46547 0.0
N1519 N 0.17208 0.80684 0.43909 0.0
H1520 H 0.82859 0.69788 0.52499 0.0
H1521 H 0.95544 0.64436 0.44759 0.0
H1522 H 0.86918 0.74373 0.46468 0.0
H1523 H 0.89039 0.59489 0.47957 0.0
H1524 H 0.93136 0.68304 0.46191 0.0
H1525 H 0.85923 0.66195 0.51704 0.0
C1526 C 0.84432 0.70057 0.51042 0.0
C1527 C 0.84632 0.72366 0.49537 0.0
C1528 C 0.9226 0.66363 0.46595 0.0
C1529 C 0.88132 0.68284 0.48622 0.0
C1530 C 0.93631 0.64165 0.45788 0.0
C1531 C 0.92471 0.61652 0.46222 0.0
C1532 C 0.89756 0.66021 0.47896 0.0
C1533 C 0.89987 0.61399 0.4756 0.0
C1534 C 0.86164 0.68005 0.5058 0.0
C1535 C 0.86691 0.72609 0.47656 0.0
N1536 N 0.88716 0.63552 0.48352 0.0
N1537 N 0.8836 0.70588 0.47245 0.0
H1538 H 0.329 0.81006 0.47691 0.0
H1539 H 0.4418 0.86562 0.55022 0.0
H1540 H 0.37012 0.76096 0.52567 0.0
H1541 H 0.41319 0.90772 0.48892 0.0
H1542 H 0.41578 0.82706 0.5421 0.0
H1543 H 0.35947 0.84644 0.48168 0.0
C1544 C 0.34465 0.807 0.48847 0.0
C1545 C 0.34726 0.78267 0.50088 0.0
C1546 C 0.41543 0.84468 0.53032 0.0
C1547 C 0.38188 0.82403 0.50676 0.0
C1548 C 0.43029 0.86669 0.53494 0.0
C1549 C 0.4296 0.88999 0.52031 0.0
C1550 C 0.3996 0.84612 0.51111 0.0
C1551 C 0.4143 0.89024 0.50075 0.0
C1552 C 0.36201 0.82767 0.49122 0.0
C1553 C 0.36762 0.77956 0.51583 0.0
N1554 N 0.39976 0.86875 0.49686 0.0
N1555 N 0.3841 0.80008 0.5185 0.0
H1556 H 0.50185 0.73163 0.77095 0.0
H1557 H 0.56593 0.59911 0.72525 0.0
H1558 H 0.54813 0.68135 0.81421 0.0
H1559 H 0.50426 0.63839 0.69055 0.0
H1560 H 0.56046 0.62958 0.75749 0.0
H1561 H 0.50321 0.69853 0.74065 0.0
C1562 C 0.51222 0.71354 0.77402 0.0
C1563 C 0.52503 0.70918 0.79494 0.0
C1564 C 0.54794 0.63143 0.74296 0.0
C1565 C 0.52688 0.67137 0.76045 0.0
C1566 C 0.5511 0.61406 0.72451 0.0
C1567 C 0.53557 0.61623 0.70513 0.0
C1568 C 0.52935 0.65144 0.74194 0.0
C1569 C 0.51652 0.63588 0.70522 0.0
C1570 C 0.51298 0.69466 0.75681 0.0
C1571 C 0.5382 0.68547 0.79818 0.0
N1572 N 0.51413 0.65289 0.72318 0.0
N1573 N 0.53895 0.66755 0.78106 0.0
H1574 H 0.47672 0.87408 0.78359 0.0
H1575 H 0.53594 0.90465 0.64627 0.0
H1576 H 0.55025 0.8436 0.75242 0.0
H1577 H 0.45576 0.92059 0.67324 0.0
H1578 H 0.54435 0.88873 0.68695 0.0
H1579 H 0.47152 0.89758 0.74492 0.0
C1580 C 0.49182 0.87242 0.76868 0.0
C1581 C 0.51384 0.85665 0.77122 0.0
C1582 C 0.52496 0.89583 0.68398 0.0
C1583 C 0.50813 0.88365 0.72707 0.0
C1584 C 0.52019 0.90502 0.66082 0.0
C1585 C 0.49505 0.91367 0.6564 0.0
C1586 C 0.50446 0.89544 0.70283 0.0
C1587 C 0.47529 0.91361 0.67584 0.0
C1588 C 0.48889 0.88591 0.74666 0.0
C1589 C 0.53308 0.85569 0.75142 0.0
N1590 N 0.48039 0.90453 0.69822 0.0
N1591 N 0.52968 0.86886 0.73014 0.0
H1592 H 0.5376 0.36298 0.71868 0.0
H1593 H 0.48688 0.41989 0.8433 0.0
H1594 H 0.46917 0.33477 0.76554 0.0
H1595 H 0.56397 0.43689 0.80546 0.0
H1596 H 0.4735 0.40059 0.80768 0.0
H1597 H 0.54065 0.40066 0.74335 0.0
C1598 C 0.52308 0.36487 0.73402 0.0
C1599 C 0.5036 0.34535 0.74059 0.0
C1600 C 0.49319 0.40898 0.807 0.0
C1601 C 0.50672 0.3884 0.76846 0.0
C1602 C 0.50085 0.4202 0.8273 0.0
C1603 C 0.52683 0.42949 0.82754 0.0
C1604 C 0.51175 0.40667 0.78695 0.0
C1605 C 0.54401 0.42918 0.80627 0.0
C1606 C 0.5247 0.38645 0.74792 0.0
C1607 C 0.48467 0.3492 0.76 0.0
N1608 N 0.53632 0.41743 0.78692 0.0
N1609 N 0.48697 0.3701 0.77352 0.0
H1610 H 0.52274 0.15831 0.74442 0.0
H1611 H 0.44075 0.12154 0.86981 0.0
H1612 H 0.47384 0.21617 0.77902 0.0
H1613 H 0.52247 0.1004 0.85881 0.0
H1614 H 0.44678 0.14978 0.83227 0.0
H1615 H 0.51756 0.13038 0.78212 0.0
C1616 C 0.51126 0.16534 0.76006 0.0
C1617 C 0.49948 0.19009 0.75881 0.0
C1618 C 0.46332 0.13885 0.83807 0.0
C1619 C 0.49218 0.15743 0.80152 0.0
C1620 C 0.45988 0.12259 0.85936 0.0
C1621 C 0.48114 0.10853 0.86746 0.0
C1622 C 0.48798 0.14048 0.82433 0.0
C1623 C 0.50557 0.1109 0.85327 0.0
C1624 C 0.50815 0.14928 0.78146 0.0
C1625 C 0.48367 0.19749 0.77933 0.0
N1626 N 0.50826 0.12632 0.83227 0.0
N1627 N 0.4803 0.18118 0.79976 0.0
H1628 H 0.72089 0.4947 0.71625 0.0
H1629 H 0.66332 0.52051 0.58828 0.0
H1630 H 0.77064 0.5137 0.65026 0.0
H1631 H 0.61665 0.51766 0.6574 0.0
H1632 H 0.70277 0.51115 0.60922 0.0
H1633 H 0.68224 0.49615 0.69352 0.0
C1634 C 0.72356 0.49898 0.69689 0.0
C1635 C 0.74873 0.5042 0.68502 0.0
C1636 C 0.6838 0.51235 0.6197 0.0
C1637 C 0.70483 0.50605 0.65884 0.0
C1638 C 0.66132 0.51752 0.60777 0.0
C1639 C 0.63674 0.52006 0.62114 0.0
C1640 C 0.68149 0.50941 0.64509 0.0
C1641 C 0.63524 0.51615 0.64636 0.0
C1642 C 0.70159 0.49987 0.6839 0.0
C1643 C 0.75138 0.50965 0.65994 0.0
N1644 N 0.65724 0.51112 0.65746 0.0
N1645 N 0.72965 0.51057 0.64763 0.0
H1646 H 0.29756 0.97843 0.68392 0.0
H1647 H 0.37059 1.00479 0.54977 0.0
H1648 H 0.26118 0.02216 0.62816 0.0
H1649 H 0.39749 0.95239 0.60549 0.0
H1650 H 0.33089 0.01304 0.57731 0.0
H1651 H 0.33531 0.97058 0.6548 0.0
C1652 C 0.29765 0.98641 0.66546 0.0
C1653 C 0.27642 1.00102 0.6584 0.0
C1654 C 0.34554 0.99969 0.58334 0.0
C1655 C 0.31956 0.99217 0.62474 0.0
C1656 C 0.36814 0.99495 0.56763 0.0
C1657 C 0.38756 0.97797 0.57527 0.0
C1658 C 0.3425 0.98742 0.60681 0.0
C1659 C 0.3833 0.96578 0.59867 0.0
C1660 C 0.31915 0.98192 0.64878 0.0
C1661 C 0.27737 0.01092 0.63426 0.0
N1662 N 0.36145 0.97081 0.61348 0.0
N1663 N 0.29865 0.00639 0.61825 0.0
H1664 H 0.72165 0.53896 0.81258 0.0
H1665 H 0.66335 0.4639 0.93743 0.0
H1666 H 0.76349 0.47815 0.84915 0.0
H1667 H 0.6182 0.51194 0.89118 0.0
H1668 H 0.70354 0.476 0.91036 0.0
H1669 H 0.68711 0.53628 0.84625 0.0
C1670 C 0.72382 0.5253 0.82785 0.0
C1671 C 0.74548 0.5086 0.82785 0.0
C1672 C 0.6849 0.48431 0.90647 0.0
C1673 C 0.70559 0.50515 0.86651 0.0
C1674 C 0.66209 0.47765 0.92203 0.0
C1675 C 0.6376 0.48705 0.91645 0.0
C1676 C 0.68299 0.50059 0.88543 0.0
C1677 C 0.6368 0.50433 0.89605 0.0
C1678 C 0.70395 0.52365 0.84704 0.0
C1679 C 0.74692 0.49107 0.84813 0.0
N1680 N 0.65908 0.51041 0.88124 0.0
N1681 N 0.72716 0.48966 0.86655 0.0
H1682 H 0.29563 0.96593 0.80243 0.0
H1683 H 0.31756 0.04716 0.91515 0.0
H1684 H 0.24608 0.02899 0.82668 0.0
H1685 H 0.36686 0.98363 0.89151 0.0
H1686 H 0.28497 0.03375 0.88892 0.0
H1687 H 0.31579 0.96521 0.8404 0.0
C1688 C 0.28878 0.97936 0.8159 0.0
C1689 C 0.26979 0.99806 0.81122 0.0
C1690 C 0.30267 0.0224 0.88984 0.0
C1691 C 0.29267 0.99748 0.85447 0.0
C1692 C 0.32125 0.03008 0.90478 0.0
C1693 C 0.34512 0.01682 0.90508 0.0
C1694 C 0.30827 1.0016 0.87485 0.0
C1695 C 0.34875 0.9945 0.89172 0.0
C1696 C 0.30025 0.97897 0.83755 0.0
C1697 C 0.26136 0.01487 0.82931 0.0
N1698 N 0.33076 0.98791 0.87674 0.0
N1699 N 0.27314 0.01444 0.85001 0.0
H1700 H 0.72348 0.69642 0.51116 0.0
H1701 H 0.59524 0.64333 0.5958 0.0
H1702 H 0.66882 0.74863 0.54688 0.0
H1703 H 0.63317 0.59972 0.53853 0.0
H1704 H 0.62455 0.68111 0.58187 0.0
H1705 H 0.6931 0.65938 0.52455 0.0
C1706 C 0.70512 0.7 0.52191 0.0
C1707 C 0.69883 0.72545 0.5283 0.0
C1708 C 0.62631 0.66325 0.57235 0.0
C1709 C 0.66405 0.68334 0.54381 0.0
C1710 C 0.60963 0.64169 0.58032 0.0
C1711 C 0.6116 0.6183 0.56829 0.0
C1712 C 0.64543 0.66123 0.55253 0.0
C1713 C 0.63073 0.61734 0.54833 0.0
C1714 C 0.68778 0.67894 0.52952 0.0
C1715 C 0.67461 0.72917 0.542 0.0
N1716 N 0.64694 0.63834 0.54122 0.0
N1717 N 0.65823 0.70834 0.54951 0.0
H1718 H 0.70098 0.27909 0.93517 0.0
H1719 H 0.60569 0.38598 0.99512 0.0
H1720 H 0.70817 0.31009 0.00456 0.0
H1721 H 0.60973 0.37287 0.91916 0.0
H1722 H 0.63866 0.35263 0.99993 0.0
H1723 H 0.66428 0.30876 0.92976 0.0
C1724 C 0.69501 0.2921 0.94926 0.0
C1725 C 0.70787 0.29183 0.97045 0.0
C1726 C 0.63228 0.35684 0.98221 0.0
C1727 C 0.66535 0.32551 0.96447 0.0
C1728 C 0.61326 0.37585 0.97943 0.0
C1729 C 0.60493 0.38246 0.95663 0.0
C1730 C 0.64328 0.3441 0.96208 0.0
C1731 C 0.61551 0.36844 0.93708 0.0
C1732 C 0.6739 0.30892 0.94617 0.0
C1733 C 0.69874 0.30897 0.98814 0.0
N1734 N 0.63429 0.35003 0.94021 0.0
N1735 N 0.67815 0.32495 0.98475 0.0
H1736 H 0.33691 0.21582 0.0247 0.0
H1737 H 0.46817 0.16377 0.95277 0.0
H1738 H 0.38449 0.26392 0.97024 0.0
H1739 H 0.40189 0.11413 0.98157 0.0
H1740 H 0.44412 0.20208 0.96777 0.0
H1741 H 0.36772 0.17978 0.01818 0.0
C1742 C 0.35417 0.21895 0.01178 0.0
C1743 C 0.35811 0.2427 0.99783 0.0
C1744 C 0.43507 0.18271 0.97099 0.0
C1745 C 0.39325 0.20175 0.99022 0.0
C1746 C 0.44877 0.16093 0.96251 0.0
C1747 C 0.43682 0.13589 0.9657 0.0
C1748 C 0.40962 0.17918 0.98315 0.0
C1749 C 0.41165 0.13318 0.97844 0.0
C1750 C 0.37161 0.19838 0.00794 0.0
C1751 C 0.38068 0.24574 0.98116 0.0
N1752 N 0.39889 0.15454 0.98667 0.0
N1753 N 0.39735 0.22543 0.9777 0.0
H1754 H 0.88998 0.26888 0.01839 0.0
H1755 H 0.936 0.41703 0.9809 0.0
H1756 H 0.84692 0.32269 0.97533 0.0
H1757 H 0.95944 0.37557 0.04487 0.0
H1758 H 0.90997 0.37878 0.97316 0.0
H1759 H 0.92146 0.30457 0.02355 0.0
C1760 C 0.88733 0.28823 0.00997 0.0
C1761 C 0.86605 0.29304 0.99637 0.0
C1762 C 0.92096 0.37797 0.98879 0.0
C1763 C 0.90182 0.33348 1.00185 0.0
C1764 C 0.93598 0.39975 0.99319 0.0
C1765 C 0.94976 0.39962 0.01373 0.0
C1766 C 0.91977 0.35573 0.00491 0.0
C1767 C 0.94902 0.37656 0.02889 0.0
C1768 C 0.90519 0.30847 0.0129 0.0
C1769 C 0.86324 0.31829 0.9858 0.0
N1770 N 0.9341 0.35552 0.02425 0.0
N1771 N 0.881 0.33757 0.98868 0.0
loop_
_geom_bond_atom_site_label_1
_geom_bond_atom_site_label_2
_geom_bond_distance
_geom_bond_site_symmetry_2
_ccdc_geom_bond_type
C0 C1 1.443 . S
C0 N4 1.376 . S
C0 C38 1.389 . S
C1 C0 1.443 . S
C1 C2 1.340 . S
C1 H41 0.951 . S
C2 C1 1.340 . S
C2 C3 1.439 . S
C2 H42 0.950 . S
C3 C2 1.439 . S
C3 N4 1.374 . S
C3 C37 1.395 . S
N4 C0 1.376 . S
N4 C3 1.374 . S
N4 Co5 2.008 1_655 S
Co5 N4 2.008 1_455 S
Co5 N6 1.995 1_455 S
Co5 N11 2.008 . S
Co5 N16 1.995 . S
Co5 N21 2.282 . S
Co5 N27 2.282 . S
N6 Co5 1.995 1_655 S
N6 C7 1.376 . S
N6 C10 1.383 . S
C7 N6 1.376 . S
C7 C8 1.446 . S
C7 C37 1.391 . S
C8 C7 1.446 . S
C8 C9 1.339 . S
C8 H43 0.949 . S
C9 C8 1.339 . S
C9 C10 1.439 . S
C9 H44 0.950 . S
C10 N6 1.383 . S
C10 C9 1.439 . S
C10 C39 1.392 1_655 S
N11 Co5 2.008 . S
N11 C12 1.376 . S
N11 C15 1.374 . S
C12 N11 1.376 . S
C12 C13 1.443 . S
C12 C39 1.389 . S
C13 C12 1.443 . S
C13 C14 1.340 . S
C13 H45 0.951 . S
C14 C13 1.340 . S
C14 C15 1.439 . S
C14 H46 0.950 . S
C15 N11 1.374 . S
C15 C14 1.439 . S
C15 C40 1.395 . S
N16 Co5 1.995 . S
N16 C17 1.376 . S
N16 C20 1.383 . S
C17 N16 1.376 . S
C17 C18 1.446 . S
C17 C40 1.391 . S
C18 C17 1.446 . S
C18 C19 1.339 . S
C18 H47 0.949 . S
C19 C18 1.339 . S
C19 C20 1.439 . S
C19 H48 0.950 . S
C20 N16 1.383 . S
C20 C19 1.439 . S
C20 C38 1.392 1_455 S
N21 Co5 2.282 . S
N21 C24 1.332 . S
N21 C26 1.332 1_455 S
C22 C23 1.386 . S
C22 C25 1.388 1_455 S
C23 C22 1.386 . S
C23 C24 1.382 . S
C23 H49 0.950 . S
C24 N21 1.332 . S
C24 C23 1.382 . S
C24 H35 0.952 . S
C25 C22 1.388 1_655 S
C25 C26 1.382 . S
C25 H50 0.950 . S
C26 N21 1.332 1_655 S
C26 C25 1.382 . S
C26 H36 0.948 . S
N27 Co5 2.282 . S
N27 C31 1.332 1_455 S
N27 C32 1.332 . S
C28 C29 1.388 1_455 S
C28 C32 1.382 . S
C28 H51 0.950 . S
C29 C28 1.388 1_655 S
C29 C30 1.386 . S
C30 C29 1.386 . S
C30 C31 1.382 . S
C30 H52 0.950 . S
C31 N27 1.332 1_655 S
C31 C30 1.382 . S
C31 H33 0.952 . S
C32 N27 1.332 . S
C32 C28 1.382 . S
C32 H34 0.948 . S
H33 C31 0.952 . S
H34 C32 0.948 . S
H35 C24 0.952 . S
H36 C26 0.948 . S
C37 C3 1.395 . S
C37 C7 1.391 . S
C38 C0 1.389 . S
C38 C20 1.392 1_655 S
C39 C10 1.392 1_455 S
C39 C12 1.389 . S
C40 C15 1.395 . S
C40 C17 1.391 . S
H41 C1 0.951 . S
H42 C2 0.950 . S
H43 C8 0.949 . S
H44 C9 0.950 . S
H45 C13 0.951 . S
H46 C14 0.950 . S
H47 C18 0.949 . S
H48 C19 0.950 . S
H49 C23 0.950 . S
H50 C25 0.950 . S
H51 C28 0.950 . S
H52 C30 0.950 . S
C53 C54 1.443 . S
C53 N57 1.376 . S
C53 C91 1.394 . S
C54 C53 1.443 . S
C54 C55 1.340 . S
C54 H94 0.951 . S
C55 C54 1.340 . S
C55 C56 1.439 . S
C55 H95 0.950 . S
C56 C55 1.439 . S
C56 N57 1.374 . S
C56 C90 1.395 . S
N57 C53 1.376 . S
N57 C56 1.374 . S
N57 Co58 2.008 1_655 S
Co58 N57 2.008 1_455 S
Co58 N59 1.995 1_455 S
Co58 N64 2.008 . S
Co58 N69 1.995 . S
Co58 N74 2.282 . S
Co58 N80 2.282 . S
N59 Co58 1.995 1_655 S
N59 C60 1.376 . S
N59 C63 1.383 . S
C60 N59 1.376 . S
C60 C61 1.446 . S
C60 C90 1.391 . S
C61 C60 1.446 . S
C61 C62 1.339 . S
C61 H96 0.949 . S
C62 C61 1.339 . S
C62 C63 1.439 . S
C62 H97 0.950 . S
C63 N59 1.383 . S
C63 C62 1.439 . S
C63 C92 1.392 1_655 S
N64 Co58 2.008 . S
N64 C65 1.376 . S
N64 C68 1.374 . S
C65 N64 1.376 . S
C65 C66 1.443 . S
C65 C92 1.389 . S
C66 C65 1.443 . S
C66 C67 1.340 . S
C66 H98 0.951 . S
C67 C66 1.340 . S
C67 C68 1.439 . S
C67 H99 0.950 . S
C68 N64 1.374 . S
C68 C67 1.439 . S
C68 C93 1.395 . S
N69 Co58 1.995 . S
N69 C70 1.376 . S
N69 C73 1.383 . S
C70 N69 1.376 . S
C70 C71 1.446 . S
C70 C93 1.391 . S
C71 C70 1.446 . S
C71 C72 1.339 . S
C71 H100 0.949 . S
C72 C71 1.339 . S
C72 C73 1.439 . S
C72 H101 0.950 . S
C73 N69 1.383 . S
C73 C72 1.439 . S
C73 C91 1.386 1_455 S
N74 Co58 2.282 . S
N74 C77 1.332 . S
N74 C79 1.303 1_455 S
C75 C76 1.386 . S
C75 C78 1.388 . S
C76 C75 1.386 . S
C76 C77 1.382 . S
C76 H102 0.950 . S
C77 N74 1.332 . S
C77 C76 1.382 . S
C77 H88 0.952 . S
C78 C75 1.388 . S
C78 C79 1.377 1_455 S
C78 H103 0.950 1_455 S
C79 N74 1.303 1_655 S
C79 C78 1.377 1_655 S
C79 H89 0.986 . S
N80 Co58 2.282 . S
N80 C84 1.332 1_455 S
N80 C85 1.332 . S
C81 C82 1.388 1_455 S
C81 C85 1.382 . S
C81 H104 0.950 . S
C82 C81 1.388 1_655 S
C82 C83 1.386 . S
C83 C82 1.386 . S
C83 C84 1.382 . S
C83 H105 0.950 . S
C84 N80 1.332 1_655 S
C84 C83 1.382 . S
C84 H86 0.952 . S
C85 N80 1.332 . S
C85 C81 1.382 . S
C85 H87 0.948 . S
H86 C84 0.952 . S
H87 C85 0.948 . S
H88 C77 0.952 . S
H89 C79 0.986 . S
C90 C56 1.395 . S
C90 C60 1.391 . S
C91 C53 1.394 . S
C91 C73 1.386 1_655 S
C92 C63 1.392 1_455 S
C92 C65 1.389 . S
C93 C68 1.395 . S
C93 C70 1.391 . S
H94 C54 0.951 . S
H95 C55 0.950 . S
H96 C61 0.949 . S
H97 C62 0.950 . S
H98 C66 0.951 . S
H99 C67 0.950 . S
H100 C71 0.949 . S
H101 C72 0.950 . S
H102 C76 0.950 . S
H103 C78 0.950 1_655 S
H104 C81 0.950 . S
H105 C83 0.950 . S
C106 C107 1.443 . S
C106 N110 1.376 . S
C106 C144 1.405 . S
C107 C106 1.443 . S
C107 C108 1.340 . S
C107 H147 0.951 . S
C108 C107 1.340 . S
C108 C109 1.439 . S
C108 H148 0.950 . S
C109 C108 1.439 . S
C109 N110 1.374 . S
C109 C143 1.395 . S
N110 C106 1.376 . S
N110 C109 1.374 . S
N110 Co111 2.008 1_565 S
Co111 N110 2.008 1_545 S
Co111 N112 1.995 1_545 S
Co111 N117 2.008 . S
Co111 N122 1.995 . S
Co111 N127 2.282 . S
Co111 N133 2.282 . S
N112 Co111 1.995 1_565 S
N112 C113 1.376 . S
N112 C116 1.383 . S
C113 N112 1.376 . S
C113 C114 1.446 . S
C113 C143 1.391 . S
C114 C113 1.446 . S
C114 C115 1.339 . S
C114 H149 0.949 . S
C115 C114 1.339 . S
C115 C116 1.439 . S
C115 H150 0.950 . S
C116 N112 1.383 . S
C116 C115 1.439 . S
C116 C145 1.392 1_565 S
N117 Co111 2.008 . S
N117 C118 1.376 . S
N117 C121 1.374 . S
C118 N117 1.376 . S
C118 C119 1.443 . S
C118 C145 1.389 . S
C119 C118 1.443 . S
C119 C120 1.340 . S
C119 H151 0.951 . S
C120 C119 1.340 . S
C120 C121 1.439 . S
C120 H152 0.950 . S
C121 N117 1.374 . S
C121 C120 1.439 . S
C121 C146 1.395 . S
N122 Co111 1.995 . S
N122 C123 1.376 . S
N122 C126 1.383 . S
C123 N122 1.376 . S
C123 C124 1.446 . S
C123 C146 1.391 . S
C124 C123 1.446 . S
C124 C125 1.339 . S
C124 H153 0.949 . S
C125 C124 1.339 . S
C125 C126 1.439 . S
C125 H154 0.950 . S
C126 N122 1.383 . S
C126 C125 1.439 . S
C126 C144 1.373 1_545 S
N127 Co111 2.282 . S
N127 C130 1.332 . S
N127 C132 1.363 . S
C128 C129 1.386 . S
C128 C131 1.388 . S
C129 C128 1.386 . S
C129 C130 1.382 . S
C129 H155 0.950 . S
C130 N127 1.332 . S
C130 C129 1.382 . S
C130 H141 0.952 . S
C131 C128 1.388 . S
C131 C132 1.390 . S
C131 H156 0.950 1_545 S
C132 N127 1.363 . S
C132 C131 1.390 . S
C132 H142 0.908 1_545 S
N133 Co111 2.282 . S
N133 C137 1.332 1_545 S
N133 C138 1.332 . S
C134 C135 1.388 1_545 S
C134 C138 1.382 . S
C134 H157 0.950 . S
C135 C134 1.388 1_565 S
C135 C136 1.386 . S
C136 C135 1.386 . S
C136 C137 1.382 . S
C136 H158 0.950 . S
C137 N133 1.332 1_565 S
C137 C136 1.382 . S
C137 H139 0.952 . S
C138 N133 1.332 . S
C138 C134 1.382 . S
C138 H140 0.948 . S
H139 C137 0.952 . S
H140 C138 0.948 . S
H141 C130 0.952 . S
H142 C132 0.908 1_565 S
C143 C109 1.395 . S
C143 C113 1.391 . S
C144 C106 1.405 . S
C144 C126 1.373 1_565 S
C145 C116 1.392 1_545 S
C145 C118 1.389 . S
C146 C121 1.395 . S
C146 C123 1.391 . S
H147 C107 0.951 . S
H148 C108 0.950 . S
H149 C114 0.949 . S
H150 C115 0.950 . S
H151 C119 0.951 . S
H152 C120 0.950 . S
H153 C124 0.949 . S
H154 C125 0.950 . S
H155 C129 0.950 . S
H156 C131 0.950 1_565 S
H157 C134 0.950 . S
H158 C136 0.950 . S
C159 C160 1.443 . S
C159 N163 1.376 . S
C159 C197 1.389 . S
C160 C159 1.443 . S
C160 C161 1.340 . S
C160 H200 0.951 . S
C161 C160 1.340 . S
C161 C162 1.439 . S
C161 H201 0.950 . S
C162 C161 1.439 . S
C162 N163 1.374 . S
C162 C196 1.395 . S
N163 C159 1.376 . S
N163 C162 1.374 . S
N163 Co164 2.008 . S
Co164 N163 2.008 . S
Co164 N165 1.995 . S
Co164 N170 2.008 . S
Co164 N175 1.995 . S
Co164 N180 2.282 . S
Co164 N186 2.282 . S
N165 Co164 1.995 . S
N165 C166 1.376 . S
N165 C169 1.383 . S
C166 N165 1.376 . S
C166 C167 1.446 . S
C166 C196 1.391 . S
C167 C166 1.446 . S
C167 C168 1.339 . S
C167 H202 0.949 . S
C168 C167 1.339 . S
C168 C169 1.439 . S
C168 H203 0.950 . S
C169 N165 1.383 . S
C169 C168 1.439 . S
C169 C198 1.392 . S
N170 Co164 2.008 . S
N170 C171 1.376 . S
N170 C174 1.374 . S
C171 N170 1.376 . S
C171 C172 1.443 . S
C171 C198 1.389 . S
C172 C171 1.443 . S
C172 C173 1.340 . S
C172 H204 0.951 . S
C173 C172 1.340 . S
C173 C174 1.439 . S
C173 H205 0.950 . S
C174 N170 1.374 . S
C174 C173 1.439 . S
C174 C199 1.395 . S
N175 Co164 1.995 . S
N175 C176 1.376 . S
N175 C179 1.383 . S
C176 N175 1.376 . S
C176 C177 1.446 . S
C176 C199 1.391 . S
C177 C176 1.446 . S
C177 C178 1.339 . S
C177 H206 0.949 . S
C178 C177 1.339 . S
C178 C179 1.439 . S
C178 H207 0.950 . S
C179 N175 1.383 . S
C179 C178 1.439 . S
C179 C197 1.392 . S
N180 Co164 2.282 . S
N180 C183 1.332 . S
N180 C185 1.332 . S
C181 C182 1.386 . S
C181 C184 1.388 . S
C182 C181 1.386 . S
C182 C183 1.382 . S
C182 H208 0.950 . S
C183 N180 1.332 . S
C183 C182 1.382 . S
C183 H194 0.952 . S
C184 C181 1.388 . S
C184 C185 1.382 . S
C184 H209 0.950 . S
C185 N180 1.332 . S
C185 C184 1.382 . S
C185 H195 0.948 . S
N186 Co164 2.282 . S
N186 C190 1.332 . S
N186 C191 1.332 . S
C187 C188 1.388 . S
C187 C191 1.382 . S
C187 H210 0.950 . S
C188 C187 1.388 . S
C188 C189 1.386 . S
C189 C188 1.386 . S
C189 C190 1.382 . S
C189 H211 0.950 . S
C190 N186 1.332 . S
C190 C189 1.382 . S
C190 H192 0.952 . S
C191 N186 1.332 . S
C191 C187 1.382 . S
C191 H193 0.948 . S
H192 C190 0.952 . S
H193 C191 0.948 . S
H194 C183 0.952 . S
H195 C185 0.948 . S
C196 C162 1.395 . S
C196 C166 1.391 . S
C197 C159 1.389 . S
C197 C179 1.392 . S
C198 C169 1.392 . S
C198 C171 1.389 . S
C199 C174 1.395 . S
C199 C176 1.391 . S
H200 C160 0.951 . S
H201 C161 0.950 . S
H202 C167 0.949 . S
H203 C168 0.950 . S
H204 C172 0.951 . S
H205 C173 0.950 . S
H206 C177 0.949 . S
H207 C178 0.950 . S
H208 C182 0.950 . S
H209 C184 0.950 . S
H210 C187 0.950 . S
H211 C189 0.950 . S
C212 C213 1.443 . S
C212 N216 1.376 . S
C212 C250 1.389 . S
C213 C212 1.443 . S
C213 C214 1.340 . S
C213 H253 0.951 . S
C214 C213 1.340 . S
C214 C215 1.439 . S
C214 H254 0.950 . S
C215 C214 1.439 . S
C215 N216 1.374 . S
C215 C249 1.395 . S
N216 C212 1.376 . S
N216 C215 1.374 . S
N216 Co217 2.008 1_556 S
Co217 N216 2.008 1_554 S
Co217 N218 1.995 1_554 S
Co217 N223 2.008 . S
Co217 N228 1.995 . S
Co217 N233 2.282 . S
Co217 N239 2.282 1_554 S
N218 Co217 1.995 1_556 S
N218 C219 1.376 . S
N218 C222 1.383 . S
C219 N218 1.376 . S
C219 C220 1.446 . S
C219 C249 1.391 . S
C220 C219 1.446 . S
C220 C221 1.339 . S
C220 H255 0.949 . S
C221 C220 1.339 . S
C221 C222 1.439 . S
C221 H256 0.950 . S
C222 N218 1.383 . S
C222 C221 1.439 . S
C222 C251 1.392 1_556 S
N223 Co217 2.008 . S
N223 C224 1.376 . S
N223 C227 1.374 . S
C224 N223 1.376 . S
C224 C225 1.443 . S
C224 C251 1.389 . S
C225 C224 1.443 . S
C225 C226 1.340 . S
C225 H257 0.951 . S
C226 C225 1.340 . S
C226 C227 1.439 . S
C226 H258 0.950 . S
C227 N223 1.374 . S
C227 C226 1.439 . S
C227 C252 1.395 . S
N228 Co217 1.995 . S
N228 C229 1.376 . S
N228 C232 1.383 . S
C229 N228 1.376 . S
C229 C230 1.446 . S
C229 C252 1.391 . S
C230 C229 1.446 . S
C230 C231 1.339 . S
C230 H259 0.949 . S
C231 C230 1.339 . S
C231 C232 1.439 . S
C231 H260 0.950 . S
C232 N228 1.383 . S
C232 C231 1.439 . S
C232 C250 1.392 1_554 S
N233 Co217 2.282 . S
N233 C236 1.332 . S
N233 C238 1.332 1_554 S
C234 C235 1.386 . S
C234 C237 1.388 1_554 S
C235 C234 1.386 . S
C235 C236 1.382 . S
C235 H261 0.950 . S
C236 N233 1.332 . S
C236 C235 1.382 . S
C236 H247 0.952 . S
C237 C234 1.388 1_556 S
C237 C238 1.382 . S
C237 H262 0.950 . S
C238 N233 1.332 1_556 S
C238 C237 1.382 . S
C238 H248 0.948 . S
N239 Co217 2.282 1_556 S
N239 C243 1.332 . S
N239 C244 1.332 1_556 S
C240 C241 1.388 1_554 S
C240 C244 1.382 . S
C240 H263 0.950 . S
C241 C240 1.388 1_556 S
C241 C242 1.386 . S
C242 C241 1.386 . S
C242 C243 1.382 . S
C242 H264 0.950 . S
C243 N239 1.332 . S
C243 C242 1.382 . S
C243 H245 0.952 . S
C244 N239 1.332 1_554 S
C244 C240 1.382 . S
C244 H246 0.948 . S
H245 C243 0.952 . S
H246 C244 0.948 . S
H247 C236 0.952 . S
H248 C238 0.948 . S
C249 C215 1.395 . S
C249 C219 1.391 . S
C250 C212 1.389 . S
C250 C232 1.392 1_556 S
C251 C222 1.392 1_554 S
C251 C224 1.389 . S
C252 C227 1.395 . S
C252 C229 1.391 . S
H253 C213 0.951 . S
H254 C214 0.950 . S
H255 C220 0.949 . S
H256 C221 0.950 . S
H257 C225 0.951 . S
H258 C226 0.950 . S
H259 C230 0.949 . S
H260 C231 0.950 . S
H261 C235 0.950 . S
H262 C237 0.950 . S
H263 C240 0.950 . S
H264 C242 0.950 . S
C265 C266 1.443 . S
C265 N269 1.376 . S
C265 C303 1.389 . S
C266 C265 1.443 . S
C266 C267 1.340 . S
C266 H306 0.951 . S
C267 C266 1.340 . S
C267 C268 1.439 . S
C267 H307 0.950 . S
C268 C267 1.439 . S
C268 N269 1.374 . S
C268 C302 1.395 . S
N269 C265 1.376 . S
N269 C268 1.374 . S
N269 Co270 2.008 . S
Co270 N269 2.008 . S
Co270 N271 1.995 . S
Co270 N276 2.008 . S
Co270 N281 1.995 . S
Co270 N286 2.282 . S
Co270 N292 2.282 . S
N271 Co270 1.995 . S
N271 C272 1.376 . S
N271 C275 1.383 . S
C272 N271 1.376 . S
C272 C273 1.446 . S
C272 C302 1.391 . S
C273 C272 1.446 . S
C273 C274 1.339 . S
C273 H308 0.949 . S
C274 C273 1.339 . S
C274 C275 1.439 . S
C274 H309 0.950 . S
C275 N271 1.383 . S
C275 C274 1.439 . S
C275 C304 1.392 . S
N276 Co270 2.008 . S
N276 C277 1.376 . S
N276 C280 1.374 . S
C277 N276 1.376 . S
C277 C278 1.443 . S
C277 C304 1.389 . S
C278 C277 1.443 . S
C278 C279 1.340 . S
C278 H310 0.951 . S
C279 C278 1.340 . S
C279 C280 1.439 . S
C279 H311 0.950 . S
C280 N276 1.374 . S
C280 C279 1.439 . S
C280 C305 1.395 . S
N281 Co270 1.995 . S
N281 C282 1.376 . S
N281 C285 1.383 . S
C282 N281 1.376 . S
C282 C283 1.446 . S
C282 C305 1.391 . S
C283 C282 1.446 . S
C283 C284 1.339 . S
C283 H312 0.949 . S
C284 C283 1.339 . S
C284 C285 1.439 . S
C284 H313 0.950 . S
C285 N281 1.383 . S
C285 C284 1.439 . S
C285 C303 1.392 . S
N286 Co270 2.282 . S
N286 C289 1.332 . S
N286 C291 1.332 . S
C287 C288 1.386 . S
C287 C290 1.388 . S
C288 C287 1.386 . S
C288 C289 1.382 . S
C288 H314 0.950 . S
C289 N286 1.332 . S
C289 C288 1.382 . S
C289 H300 0.952 . S
C290 C287 1.388 . S
C290 C291 1.382 . S
C290 H315 0.950 . S
C291 N286 1.332 . S
C291 C290 1.382 . S
C291 H301 0.948 . S
N292 Co270 2.282 . S
N292 C296 1.332 . S
N292 C297 1.332 . S
C293 C294 1.388 . S
C293 C297 1.382 . S
C293 H316 0.950 . S
C294 C293 1.388 . S
C294 C295 1.386 . S
C295 C294 1.386 . S
C295 C296 1.382 . S
C295 H317 0.950 . S
C296 N292 1.332 . S
C296 C295 1.382 . S
C296 H298 0.952 . S
C297 N292 1.332 . S
C297 C293 1.382 . S
C297 H299 0.948 . S
H298 C296 0.952 . S
H299 C297 0.948 . S
H300 C289 0.952 . S
H301 C291 0.948 . S
C302 C268 1.395 . S
C302 C272 1.391 . S
C303 C265 1.389 . S
C303 C285 1.392 . S
C304 C275 1.392 . S
C304 C277 1.389 . S
C305 C280 1.395 . S
C305 C282 1.391 . S
H306 C266 0.951 . S
H307 C267 0.950 . S
H308 C273 0.949 . S
H309 C274 0.950 . S
H310 C278 0.951 . S
H311 C279 0.950 . S
H312 C283 0.949 . S
H313 C284 0.950 . S
H314 C288 0.950 . S
H315 C290 0.950 . S
H316 C293 0.950 . S
H317 C295 0.950 . S
C318 C319 1.443 . S
C318 N322 1.376 . S
C318 C356 1.389 . S
C319 C318 1.443 . S
C319 C320 1.340 . S
C319 H359 0.951 . S
C320 C319 1.340 . S
C320 C321 1.439 . S
C320 H360 0.950 . S
C321 C320 1.439 . S
C321 N322 1.374 . S
C321 C355 1.395 . S
N322 C318 1.376 . S
N322 C321 1.374 . S
N322 Co323 2.008 . S
Co323 N322 2.008 . S
Co323 N324 1.995 . S
Co323 N329 2.008 . S
Co323 N334 1.995 . S
Co323 N339 2.282 . S
Co323 N345 2.282 . S
N324 Co323 1.995 . S
N324 C325 1.376 . S
N324 C328 1.383 . S
C325 N324 1.376 . S
C325 C326 1.446 . S
C325 C355 1.391 . S
C326 C325 1.446 . S
C326 C327 1.339 . S
C326 H361 0.949 . S
C327 C326 1.339 . S
C327 C328 1.439 . S
C327 H362 0.950 . S
C328 N324 1.383 . S
C328 C327 1.439 . S
C328 C357 1.392 . S
N329 Co323 2.008 . S
N329 C330 1.376 . S
N329 C333 1.374 . S
C330 N329 1.376 . S
C330 C331 1.443 . S
C330 C357 1.389 . S
C331 C330 1.443 . S
C331 C332 1.340 . S
C331 H363 0.951 . S
C332 C331 1.340 . S
C332 C333 1.439 . S
C332 H364 0.950 . S
C333 N329 1.374 . S
C333 C332 1.439 . S
C333 C358 1.395 . S
N334 Co323 1.995 . S
N334 C335 1.376 . S
N334 C338 1.383 . S
C335 N334 1.376 . S
C335 C336 1.446 . S
C335 C358 1.391 . S
C336 C335 1.446 . S
C336 C337 1.339 . S
C336 H365 0.949 . S
C337 C336 1.339 . S
C337 C338 1.439 . S
C337 H366 0.950 . S
C338 N334 1.383 . S
C338 C337 1.439 . S
C338 C356 1.392 . S
N339 Co323 2.282 . S
N339 C342 1.332 . S
N339 C344 1.332 . S
C340 C341 1.386 . S
C340 C343 1.388 . S
C341 C340 1.386 . S
C341 C342 1.382 . S
C341 H367 0.950 . S
C342 N339 1.332 . S
C342 C341 1.382 . S
C342 H353 0.952 . S
C343 C340 1.388 . S
C343 C344 1.382 . S
C343 H368 0.950 . S
C344 N339 1.332 . S
C344 C343 1.382 . S
C344 H354 0.948 . S
N345 Co323 2.282 . S
N345 C349 1.332 . S
N345 C350 1.332 . S
C346 C347 1.388 . S
C346 C350 1.382 . S
C346 H369 0.950 . S
C347 C346 1.388 . S
C347 C348 1.386 . S
C348 C347 1.386 . S
C348 C349 1.382 . S
C348 H370 0.950 . S
C349 N345 1.332 . S
C349 C348 1.382 . S
C349 H351 0.952 . S
C350 N345 1.332 . S
C350 C346 1.382 . S
C350 H352 0.948 . S
H351 C349 0.952 . S
H352 C350 0.948 . S
H353 C342 0.952 . S
H354 C344 0.948 . S
C355 C321 1.395 . S
C355 C325 1.391 . S
C356 C318 1.389 . S
C356 C338 1.392 . S
C357 C328 1.392 . S
C357 C330 1.389 . S
C358 C333 1.395 . S
C358 C335 1.391 . S
H359 C319 0.951 . S
H360 C320 0.950 . S
H361 C326 0.949 . S
H362 C327 0.950 . S
H363 C331 0.951 . S
H364 C332 0.950 . S
H365 C336 0.949 . S
H366 C337 0.950 . S
H367 C341 0.950 . S
H368 C343 0.950 . S
H369 C346 0.950 . S
H370 C348 0.950 . S
C371 C372 1.443 . S
C371 N375 1.376 . S
C371 C409 1.389 . S
C372 C371 1.443 . S
C372 C373 1.340 . S
C372 H412 0.951 . S
C373 C372 1.340 . S
C373 C374 1.439 . S
C373 H413 0.950 . S
C374 C373 1.439 . S
C374 N375 1.374 . S
C374 C408 1.395 . S
N375 C371 1.376 . S
N375 C374 1.374 . S
N375 Co376 2.008 . S
Co376 N375 2.008 . S
Co376 N377 1.995 . S
Co376 N382 2.008 . S
Co376 N387 1.995 . S
Co376 N392 2.282 . S
Co376 N398 2.282 . S
N377 Co376 1.995 . S
N377 C378 1.376 . S
N377 C381 1.383 . S
C378 N377 1.376 . S
C378 C379 1.446 . S
C378 C408 1.391 . S
C379 C378 1.446 . S
C379 C380 1.339 . S
C379 H414 0.949 . S
C380 C379 1.339 . S
C380 C381 1.439 . S
C380 H415 0.950 . S
C381 N377 1.383 . S
C381 C380 1.439 . S
C381 C410 1.392 . S
N382 Co376 2.008 . S
N382 C383 1.376 . S
N382 C386 1.374 . S
C383 N382 1.376 . S
C383 C384 1.443 . S
C383 C410 1.389 . S
C384 C383 1.443 . S
C384 C385 1.340 . S
C384 H416 0.951 . S
C385 C384 1.340 . S
C385 C386 1.439 . S
C385 H417 0.950 . S
C386 N382 1.374 . S
C386 C385 1.439 . S
C386 C411 1.395 . S
N387 Co376 1.995 . S
N387 C388 1.376 . S
N387 C391 1.383 . S
C388 N387 1.376 . S
C388 C389 1.446 . S
C388 C411 1.391 . S
C389 C388 1.446 . S
C389 C390 1.339 . S
C389 H418 0.949 . S
C390 C389 1.339 . S
C390 C391 1.439 . S
C390 H419 0.950 . S
C391 N387 1.383 . S
C391 C390 1.439 . S
C391 C409 1.392 . S
N392 Co376 2.282 . S
N392 C395 1.332 . S
N392 C397 1.332 . S
C393 C394 1.386 . S
C393 C396 1.388 . S
C394 C393 1.386 . S
C394 C395 1.382 . S
C394 H420 0.950 . S
C395 N392 1.332 . S
C395 C394 1.382 . S
C395 H406 0.952 . S
C396 C393 1.388 . S
C396 C397 1.382 . S
C396 H421 0.950 . S
C397 N392 1.332 . S
C397 C396 1.382 . S
C397 H407 0.948 . S
N398 Co376 2.282 . S
N398 C402 1.332 . S
N398 C403 1.332 . S
C399 C400 1.388 . S
C399 C403 1.382 . S
C399 H422 0.950 . S
C400 C399 1.388 . S
C400 C401 1.386 . S
C401 C400 1.386 . S
C401 C402 1.382 . S
C401 H423 0.950 . S
C402 N398 1.332 . S
C402 C401 1.382 . S
C402 H404 0.952 . S
C403 N398 1.332 . S
C403 C399 1.382 . S
C403 H405 0.948 . S
H404 C402 0.952 . S
H405 C403 0.948 . S
H406 C395 0.952 . S
H407 C397 0.948 . S
C408 C374 1.395 . S
C408 C378 1.391 . S
C409 C371 1.389 . S
C409 C391 1.392 . S
C410 C381 1.392 . S
C410 C383 1.389 . S
C411 C386 1.395 . S
C411 C388 1.391 . S
H412 C372 0.951 . S
H413 C373 0.950 . S
H414 C379 0.949 . S
H415 C380 0.950 . S
H416 C384 0.951 . S
H417 C385 0.950 . S
H418 C389 0.949 . S
H419 C390 0.950 . S
H420 C394 0.950 . S
H421 C396 0.950 . S
H422 C399 0.950 . S
H423 C401 0.950 . S
C424 C425 1.443 . S
C424 N428 1.376 . S
C424 C462 1.389 . S
C425 C424 1.443 . S
C425 C426 1.340 . S
C425 H465 0.951 . S
C426 C425 1.340 . S
C426 C427 1.439 . S
C426 H466 0.950 . S
C427 C426 1.439 . S
C427 N428 1.374 . S
C427 C461 1.395 . S
N428 C424 1.376 . S
N428 C427 1.374 . S
N428 Co429 2.008 . S
Co429 N428 2.008 . S
Co429 N430 1.995 . S
Co429 N435 2.008 . S
Co429 N440 1.995 . S
Co429 N445 2.282 . S
Co429 N451 2.282 . S
N430 Co429 1.995 . S
N430 C431 1.376 . S
N430 C434 1.383 . S
C431 N430 1.376 . S
C431 C432 1.446 . S
C431 C461 1.391 . S
C432 C431 1.446 . S
C432 C433 1.339 . S
C432 H467 0.949 . S
C433 C432 1.339 . S
C433 C434 1.439 . S
C433 H468 0.950 . S
C434 N430 1.383 . S
C434 C433 1.439 . S
C434 C463 1.392 . S
N435 Co429 2.008 . S
N435 C436 1.376 . S
N435 C439 1.374 . S
C436 N435 1.376 . S
C436 C437 1.443 . S
C436 C463 1.389 . S
C437 C436 1.443 . S
C437 C438 1.340 . S
C437 H469 0.951 . S
C438 C437 1.340 . S
C438 C439 1.439 . S
C438 H470 0.950 . S
C439 N435 1.374 . S
C439 C438 1.439 . S
C439 C464 1.395 . S
N440 Co429 1.995 . S
N440 C441 1.376 . S
N440 C444 1.383 . S
C441 N440 1.376 . S
C441 C442 1.446 . S
C441 C464 1.391 . S
C442 C441 1.446 . S
C442 C443 1.339 . S
C442 H471 0.949 . S
C443 C442 1.339 . S
C443 C444 1.439 . S
C443 H472 0.950 . S
C444 N440 1.383 . S
C444 C443 1.439 . S
C444 C462 1.392 . S
N445 Co429 2.282 . S
N445 C448 1.332 . S
N445 C450 1.332 . S
C446 C447 1.386 . S
C446 C449 1.388 . S
C447 C446 1.386 . S
C447 C448 1.382 . S
C447 H473 0.950 . S
C448 N445 1.332 . S
C448 C447 1.382 . S
C448 H459 0.952 . S
C449 C446 1.388 . S
C449 C450 1.382 . S
C449 H474 0.950 . S
C450 N445 1.332 . S
C450 C449 1.382 . S
C450 H460 0.948 . S
N451 Co429 2.282 . S
N451 C455 1.332 . S
N451 C456 1.332 . S
C452 C453 1.388 . S
C452 C456 1.382 . S
C452 H475 0.950 . S
C453 C452 1.388 . S
C453 C454 1.386 . S
C454 C453 1.386 . S
C454 C455 1.382 . S
C454 H476 0.950 . S
C455 N451 1.332 . S
C455 C454 1.382 . S
C455 H457 0.952 . S
C456 N451 1.332 . S
C456 C452 1.382 . S
C456 H458 0.948 . S
H457 C455 0.952 . S
H458 C456 0.948 . S
H459 C448 0.952 . S
H460 C450 0.948 . S
C461 C427 1.395 . S
C461 C431 1.391 . S
C462 C424 1.389 . S
C462 C444 1.392 . S
C463 C434 1.392 . S
C463 C436 1.389 . S
C464 C439 1.395 . S
C464 C441 1.391 . S
H465 C425 0.951 . S
H466 C426 0.950 . S
H467 C432 0.949 . S
H468 C433 0.950 . S
H469 C437 0.951 . S
H470 C438 0.950 . S
H471 C442 0.949 . S
H472 C443 0.950 . S
H473 C447 0.950 . S
H474 C449 0.950 . S
H475 C452 0.950 . S
H476 C454 0.950 . S
C477 C478 1.443 . S
C477 N481 1.376 . S
C477 C515 1.389 . S
C478 C477 1.443 . S
C478 C479 1.340 . S
C478 H518 0.951 . S
C479 C478 1.340 . S
C479 C480 1.439 . S
C479 H519 0.950 . S
C480 C479 1.439 . S
C480 N481 1.374 . S
C480 C514 1.395 . S
N481 C477 1.376 . S
N481 C480 1.374 . S
N481 Co482 2.008 . S
Co482 N481 2.008 . S
Co482 N483 1.995 . S
Co482 N488 2.008 . S
Co482 N493 1.995 . S
Co482 N498 2.282 . S
Co482 N504 2.282 . S
N483 Co482 1.995 . S
N483 C484 1.376 . S
N483 C487 1.383 . S
C484 N483 1.376 . S
C484 C485 1.446 . S
C484 C514 1.391 . S
C485 C484 1.446 . S
C485 C486 1.339 . S
C485 H520 0.949 . S
C486 C485 1.339 . S
C486 C487 1.439 . S
C486 H521 0.950 . S
C487 N483 1.383 . S
C487 C486 1.439 . S
C487 C516 1.392 . S
N488 Co482 2.008 . S
N488 C489 1.376 . S
N488 C492 1.374 . S
C489 N488 1.376 . S
C489 C490 1.443 . S
C489 C516 1.389 . S
C490 C489 1.443 . S
C490 C491 1.340 . S
C490 H522 0.951 . S
C491 C490 1.340 . S
C491 C492 1.439 . S
C491 H523 0.950 . S
C492 N488 1.374 . S
C492 C491 1.439 . S
C492 C517 1.395 . S
N493 Co482 1.995 . S
N493 C494 1.376 . S
N493 C497 1.383 . S
C494 N493 1.376 . S
C494 C495 1.446 . S
C494 C517 1.391 . S
C495 C494 1.446 . S
C495 C496 1.339 . S
C495 H524 0.949 . S
C496 C495 1.339 . S
C496 C497 1.439 . S
C496 H525 0.950 . S
C497 N493 1.383 . S
C497 C496 1.439 . S
C497 C515 1.392 . S
N498 Co482 2.282 . S
N498 C501 1.332 . S
N498 C503 1.332 . S
C499 C500 1.386 . S
C499 C502 1.388 . S
C500 C499 1.386 . S
C500 C501 1.382 . S
C500 H526 0.950 . S
C501 N498 1.332 . S
C501 C500 1.382 . S
C501 H512 0.952 . S
C502 C499 1.388 . S
C502 C503 1.382 . S
C502 H527 0.950 . S
C503 N498 1.332 . S
C503 C502 1.382 . S
C503 H513 0.948 . S
N504 Co482 2.282 . S
N504 C508 1.332 . S
N504 C509 1.332 . S
C505 C506 1.388 . S
C505 C509 1.382 . S
C505 H528 0.950 . S
C506 C505 1.388 . S
C506 C507 1.386 . S
C507 C506 1.386 . S
C507 C508 1.382 . S
C507 H529 0.950 . S
C508 N504 1.332 . S
C508 C507 1.382 . S
C508 H510 0.952 . S
C509 N504 1.332 . S
C509 C505 1.382 . S
C509 H511 0.948 . S
H510 C508 0.952 . S
H511 C509 0.948 . S
H512 C501 0.952 . S
H513 C503 0.948 . S
C514 C480 1.395 . S
C514 C484 1.391 . S
C515 C477 1.389 . S
C515 C497 1.392 . S
C516 C487 1.392 . S
C516 C489 1.389 . S
C517 C492 1.395 . S
C517 C494 1.391 . S
H518 C478 0.951 . S
H519 C479 0.950 . S
H520 C485 0.949 . S
H521 C486 0.950 . S
H522 C490 0.951 . S
H523 C491 0.950 . S
H524 C495 0.949 . S
H525 C496 0.950 . S
H526 C500 0.950 . S
H527 C502 0.950 . S
H528 C505 0.950 . S
H529 C507 0.950 . S
C530 C531 1.443 . S
C530 N534 1.376 . S
C530 C568 1.389 . S
C531 C530 1.443 . S
C531 C532 1.340 . S
C531 H571 0.951 . S
C532 C531 1.340 . S
C532 C533 1.439 . S
C532 H572 0.950 . S
C533 C532 1.439 . S
C533 N534 1.374 . S
C533 C567 1.395 . S
N534 C530 1.376 . S
N534 C533 1.374 . S
N534 Co535 2.008 . S
Co535 N534 2.008 . S
Co535 N536 1.995 . S
Co535 N541 2.008 1_545 S
Co535 N546 1.995 1_545 S
Co535 N551 2.282 1_545 S
Co535 N557 2.282 . S
N536 Co535 1.995 . S
N536 C537 1.376 . S
N536 C540 1.383 . S
C537 N536 1.376 . S
C537 C538 1.446 . S
C537 C567 1.391 . S
C538 C537 1.446 . S
C538 C539 1.339 . S
C538 H573 0.949 . S
C539 C538 1.339 . S
C539 C540 1.439 . S
C539 H574 0.950 . S
C540 N536 1.383 . S
C540 C539 1.439 . S
C540 C569 1.392 1_545 S
N541 Co535 2.008 1_565 S
N541 C542 1.376 . S
N541 C545 1.374 . S
C542 N541 1.376 . S
C542 C543 1.443 . S
C542 C569 1.389 . S
C543 C542 1.443 . S
C543 C544 1.340 . S
C543 H575 0.951 . S
C544 C543 1.340 . S
C544 C545 1.439 . S
C544 H576 0.950 . S
C545 N541 1.374 . S
C545 C544 1.439 . S
C545 C570 1.395 . S
N546 Co535 1.995 1_565 S
N546 C547 1.376 . S
N546 C550 1.383 . S
C547 N546 1.376 . S
C547 C548 1.446 . S
C547 C570 1.391 . S
C548 C547 1.446 . S
C548 C549 1.339 . S
C548 H577 0.949 . S
C549 C548 1.339 . S
C549 C550 1.439 . S
C549 H578 0.950 . S
C550 N546 1.383 . S
C550 C549 1.439 . S
C550 C568 1.392 1_565 S
N551 Co535 2.282 1_565 S
N551 C554 1.332 . S
N551 C556 1.332 1_565 S
C552 C553 1.386 . S
C552 C555 1.388 1_565 S
C553 C552 1.386 . S
C553 C554 1.382 . S
C553 H579 0.950 . S
C554 N551 1.332 . S
C554 C553 1.382 . S
C554 H565 0.952 . S
C555 C552 1.388 1_545 S
C555 C556 1.382 . S
C555 H580 0.950 . S
C556 N551 1.332 1_545 S
C556 C555 1.382 . S
C556 H566 0.948 . S
N557 Co535 2.282 . S
N557 C561 1.332 . S
N557 C562 1.332 1_545 S
C558 C559 1.388 1_565 S
C558 C562 1.382 . S
C558 H581 0.950 . S
C559 C558 1.388 1_545 S
C559 C560 1.386 . S
C560 C559 1.386 . S
C560 C561 1.382 . S
C560 H582 0.950 . S
C561 N557 1.332 . S
C561 C560 1.382 . S
C561 H563 0.952 . S
C562 N557 1.332 1_565 S
C562 C558 1.382 . S
C562 H564 0.948 . S
H563 C561 0.952 . S
H564 C562 0.948 . S
H565 C554 0.952 . S
H566 C556 0.948 . S
C567 C533 1.395 . S
C567 C537 1.391 . S
C568 C530 1.389 . S
C568 C550 1.392 1_545 S
C569 C540 1.392 1_565 S
C569 C542 1.389 . S
C570 C545 1.395 . S
C570 C547 1.391 . S
H571 C531 0.951 . S
H572 C532 0.950 . S
H573 C538 0.949 . S
H574 C539 0.950 . S
H575 C543 0.951 . S
H576 C544 0.950 . S
H577 C548 0.949 . S
H578 C549 0.950 . S
H579 C553 0.950 . S
H580 C555 0.950 . S
H581 C558 0.950 . S
H582 C560 0.950 . S
C583 C584 1.443 . S
C583 N587 1.376 . S
C583 C621 1.389 . S
C584 C583 1.443 . S
C584 C585 1.340 . S
C584 H624 0.951 . S
C585 C584 1.340 . S
C585 C586 1.439 . S
C585 H625 0.950 . S
C586 C585 1.439 . S
C586 N587 1.374 . S
C586 C620 1.395 . S
N587 C583 1.376 . S
N587 C586 1.374 . S
N587 Co588 2.008 1_556 S
Co588 N587 2.008 1_554 S
Co588 N589 1.995 1_554 S
Co588 N594 2.008 . S
Co588 N599 1.995 . S
Co588 N604 2.282 . S
Co588 N610 2.282 . S
N589 Co588 1.995 1_556 S
N589 C590 1.376 . S
N589 C593 1.383 . S
C590 N589 1.376 . S
C590 C591 1.446 . S
C590 C620 1.391 . S
C591 C590 1.446 . S
C591 C592 1.339 . S
C591 H626 0.949 . S
C592 C591 1.339 . S
C592 C593 1.439 . S
C592 H627 0.950 . S
C593 N589 1.383 . S
C593 C592 1.439 . S
C593 C622 1.392 1_556 S
N594 Co588 2.008 . S
N594 C595 1.376 . S
N594 C598 1.374 . S
C595 N594 1.376 . S
C595 C596 1.443 . S
C595 C622 1.389 . S
C596 C595 1.443 . S
C596 C597 1.340 . S
C596 H628 0.951 . S
C597 C596 1.340 . S
C597 C598 1.439 . S
C597 H629 0.950 . S
C598 N594 1.374 . S
C598 C597 1.439 . S
C598 C623 1.395 . S
N599 Co588 1.995 . S
N599 C600 1.376 . S
N599 C603 1.383 . S
C600 N599 1.376 . S
C600 C601 1.446 . S
C600 C623 1.391 . S
C601 C600 1.446 . S
C601 C602 1.339 . S
C601 H630 0.949 . S
C602 C601 1.339 . S
C602 C603 1.439 . S
C602 H631 0.950 . S
C603 N599 1.383 . S
C603 C602 1.439 . S
C603 C621 1.392 1_554 S
N604 Co588 2.282 . S
N604 C607 1.332 . S
N604 C609 1.332 1_554 S
C605 C606 1.386 . S
C605 C608 1.388 . S
C606 C605 1.386 . S
C606 C607 1.382 . S
C606 H632 0.950 . S
C607 N604 1.332 . S
C607 C606 1.382 . S
C607 H618 0.952 . S
C608 C605 1.388 . S
C608 C609 1.382 1_554 S
C608 H633 0.950 1_554 S
C609 N604 1.332 1_556 S
C609 C608 1.382 1_556 S
C609 H619 0.948 . S
N610 Co588 2.282 . S
N610 C614 1.332 1_554 S
N610 C615 1.332 . S
C611 C612 1.388 1_554 S
C611 C615 1.382 . S
C611 H634 0.950 . S
C612 C611 1.388 1_556 S
C612 C613 1.386 . S
C613 C612 1.386 . S
C613 C614 1.382 . S
C613 H635 0.950 . S
C614 N610 1.332 1_556 S
C614 C613 1.382 . S
C614 H616 0.952 . S
C615 N610 1.332 . S
C615 C611 1.382 . S
C615 H617 0.948 . S
H616 C614 0.952 . S
H617 C615 0.948 . S
H618 C607 0.952 . S
H619 C609 0.948 . S
C620 C586 1.395 . S
C620 C590 1.391 . S
C621 C583 1.389 . S
C621 C603 1.392 1_556 S
C622 C593 1.392 1_554 S
C622 C595 1.389 . S
C623 C598 1.395 . S
C623 C600 1.391 . S
H624 C584 0.951 . S
H625 C585 0.950 . S
H626 C591 0.949 . S
H627 C592 0.950 . S
H628 C596 0.951 . S
H629 C597 0.950 . S
H630 C601 0.949 . S
H631 C602 0.950 . S
H632 C606 0.950 . S
H633 C608 0.950 1_556 S
H634 C611 0.950 . S
H635 C613 0.950 . S
C636 O652 1.251 . S
C636 O654 1.254 . S
N637 C638 1.332 . S
N637 C642 1.305 . S
N637 Zn643 2.022 1_556 S
C638 N637 1.332 . S
C638 C639 1.379 . S
C638 H656 0.952 1_556 S
C639 C638 1.379 . S
C639 C640 1.390 . S
C639 H666 0.949 . S
C640 C639 1.390 . S
C640 C641 1.357 . S
C641 C640 1.357 . S
C641 C642 1.370 . S
C641 H667 0.950 . S
C642 N637 1.305 . S
C642 C641 1.370 . S
C642 H660 0.948 . S
Zn643 N637 2.022 1_554 S
Zn643 O652 2.039 . S
Zn643 O658 2.034 . S
Zn643 O662 2.025 . S
Zn643 O664 2.024 . S
C644 O663 1.246 . S
C644 O664 1.249 . S
N645 C646 1.307 . S
N645 C647 1.333 . S
N645 Zn651 2.020 . S
C646 N645 1.307 . S
C646 C650 1.370 . S
C646 H657 0.948 . S
C647 N645 1.333 . S
C647 C648 1.379 . S
C647 H655 0.952 . S
C648 C647 1.379 . S
C648 C649 1.390 . S
C648 H668 0.949 . S
C649 C648 1.390 . S
C649 C650 1.357 . S
C650 C646 1.370 . S
C650 C649 1.357 . S
C650 H669 0.950 . S
Zn651 N645 2.020 . S
Zn651 O654 2.025 . S
Zn651 O659 2.024 . S
Zn651 O661 2.039 . S
Zn651 O663 2.034 . S
O652 C636 1.251 . S
O652 Zn643 2.039 . S
C653 O658 1.246 . S
C653 O659 1.249 . S
O654 C636 1.254 . S
O654 Zn651 2.025 . S
H655 C647 0.952 . S
H656 C638 0.952 1_554 S
H657 C646 0.948 . S
O658 Zn643 2.034 . S
O658 C653 1.246 . S
O659 Zn651 2.024 . S
O659 C653 1.249 . S
H660 C642 0.948 . S
O661 Zn651 2.039 . S
O661 C665 1.251 . S
O662 Zn643 2.025 . S
O662 C665 1.254 . S
O663 C644 1.246 . S
O663 Zn651 2.034 . S
O664 Zn643 2.024 . S
O664 C644 1.249 . S
C665 O661 1.251 . S
C665 O662 1.254 . S
H666 C639 0.949 . S
H667 C641 0.950 . S
H668 C648 0.949 . S
H669 C650 0.950 . S
C670 O686 1.251 . S
C670 O688 1.254 . S
N671 C672 1.333 . S
N671 C676 1.307 . S
N671 Zn677 2.020 1_556 S
C672 N671 1.333 . S
C672 C673 1.379 . S
C672 H690 0.952 . S
C673 C672 1.379 . S
C673 C674 1.390 . S
C673 H700 0.949 . S
C674 C673 1.390 . S
C674 C675 1.357 . S
C675 C674 1.357 . S
C675 C676 1.370 . S
C675 H701 0.950 . S
C676 N671 1.307 . S
C676 C675 1.370 . S
C676 H694 0.948 . S
Zn677 N671 2.020 1_554 S
Zn677 O686 2.039 . S
Zn677 O692 2.034 . S
Zn677 O696 2.025 . S
Zn677 O698 2.024 . S
C678 O697 1.246 . S
C678 O698 1.249 . S
N679 C680 1.307 . S
N679 C681 1.333 1_655 S
N679 Zn685 2.020 . S
C680 N679 1.307 . S
C680 C684 1.370 . S
C680 H691 0.948 . S
C681 N679 1.333 1_455 S
C681 C682 1.379 . S
C681 H689 0.952 . S
C682 C681 1.379 . S
C682 C683 1.390 1_455 S
C682 H702 0.949 . S
C683 C682 1.390 1_655 S
C683 C684 1.357 . S
C684 C680 1.370 . S
C684 C683 1.357 . S
C684 H703 0.950 . S
Zn685 N679 2.020 . S
Zn685 O688 2.025 . S
Zn685 O693 2.024 . S
Zn685 O695 2.039 1_655 S
Zn685 O697 2.034 . S
O686 C670 1.251 . S
O686 Zn677 2.039 . S
C687 O692 1.246 . S
C687 O693 1.249 . S
O688 C670 1.254 . S
O688 Zn685 2.025 . S
H689 C681 0.952 . S
H690 C672 0.952 . S
H691 C680 0.948 . S
O692 Zn677 2.034 . S
O692 C687 1.246 . S
O693 Zn685 2.024 . S
O693 C687 1.249 . S
H694 C676 0.948 . S
O695 Zn685 2.039 1_455 S
O695 C699 1.251 . S
O696 Zn677 2.025 . S
O696 C699 1.254 1_655 S
O697 C678 1.246 . S
O697 Zn685 2.034 . S
O698 Zn677 2.024 . S
O698 C678 1.249 . S
C699 O695 1.251 . S
C699 O696 1.254 1_455 S
H700 C673 0.949 . S
H701 C675 0.950 . S
H702 C682 0.949 . S
H703 C684 0.950 . S
C704 O720 1.251 . S
C704 O722 1.254 . S
N705 C706 1.333 . S
N705 C710 1.307 . S
N705 Zn711 2.020 . S
C706 N705 1.333 . S
C706 C707 1.379 . S
C706 H724 0.952 . S
C707 C706 1.379 . S
C707 C708 1.390 . S
C707 H734 0.949 1_455 S
C708 C707 1.390 . S
C708 C709 1.357 . S
C709 C708 1.357 . S
C709 C710 1.370 . S
C709 H735 0.950 . S
C710 N705 1.307 . S
C710 C709 1.370 . S
C710 H728 0.948 . S
Zn711 N705 2.020 . S
Zn711 O720 2.039 . S
Zn711 O726 2.034 . S
Zn711 O730 2.025 . S
Zn711 O732 2.024 . S
C712 O731 1.246 . S
C712 O732 1.249 . S
N713 C714 1.307 . S
N713 C715 1.333 . S
N713 Zn719 2.020 . S
C714 N713 1.307 . S
C714 C718 1.370 . S
C714 H725 0.948 . S
C715 N713 1.333 . S
C715 C716 1.379 . S
C715 H723 0.952 . S
C716 C715 1.379 . S
C716 C717 1.390 . S
C716 H736 0.949 . S
C717 C716 1.390 . S
C717 C718 1.357 . S
C718 C714 1.370 . S
C718 C717 1.357 . S
C718 H737 0.950 1_565 S
Zn719 N713 2.020 . S
Zn719 O722 2.025 . S
Zn719 O727 2.024 . S
Zn719 O729 2.039 . S
Zn719 O731 2.034 . S
O720 C704 1.251 . S
O720 Zn711 2.039 . S
C721 O726 1.246 . S
C721 O727 1.249 . S
O722 C704 1.254 . S
O722 Zn719 2.025 . S
H723 C715 0.952 . S
H724 C706 0.952 . S
H725 C714 0.948 . S
O726 Zn711 2.034 . S
O726 C721 1.246 . S
O727 Zn719 2.024 . S
O727 C721 1.249 . S
H728 C710 0.948 . S
O729 Zn719 2.039 . S
O729 C733 1.251 . S
O730 Zn711 2.025 . S
O730 C733 1.254 . S
O731 C712 1.246 . S
O731 Zn719 2.034 . S
O732 Zn711 2.024 . S
O732 C712 1.249 . S
C733 O729 1.251 . S
C733 O730 1.254 . S
H734 C707 0.949 1_655 S
H735 C709 0.950 . S
H736 C716 0.949 . S
H737 C718 0.950 1_545 S
C738 O754 1.251 . S
C738 O756 1.254 . S
N739 C740 1.333 . S
N739 C744 1.307 . S
N739 Zn745 2.020 1_455 S
C740 N739 1.333 . S
C740 C741 1.379 . S
C740 H758 0.952 . S
C741 C740 1.379 . S
C741 C742 1.390 . S
C741 H768 0.949 . S
C742 C741 1.390 . S
C742 C743 1.357 . S
C743 C742 1.357 . S
C743 C744 1.370 . S
C743 H769 0.950 . S
C744 N739 1.307 . S
C744 C743 1.370 . S
C744 H762 0.948 . S
Zn745 N739 2.020 1_655 S
Zn745 O754 2.039 . S
Zn745 O760 2.034 . S
Zn745 O764 2.025 . S
Zn745 O766 2.024 . S
C746 O765 1.246 . S
C746 O766 1.249 . S
N747 C748 1.307 . S
N747 C749 1.333 . S
N747 Zn753 2.020 . S
C748 N747 1.307 . S
C748 C752 1.370 . S
C748 H759 0.948 . S
C749 N747 1.333 . S
C749 C750 1.379 . S
C749 H757 0.952 . S
C750 C749 1.379 . S
C750 C751 1.390 . S
C750 H770 0.949 . S
C751 C750 1.390 . S
C751 C752 1.357 . S
C752 C748 1.370 . S
C752 C751 1.357 . S
C752 H771 0.950 . S
Zn753 N747 2.020 . S
Zn753 O756 2.025 . S
Zn753 O761 2.024 . S
Zn753 O763 2.039 . S
Zn753 O765 2.034 . S
O754 C738 1.251 . S
O754 Zn745 2.039 . S
C755 O760 1.246 . S
C755 O761 1.249 . S
O756 C738 1.254 . S
O756 Zn753 2.025 . S
H757 C749 0.952 . S
H758 C740 0.952 . S
H759 C748 0.948 . S
O760 Zn745 2.034 . S
O760 C755 1.246 . S
O761 Zn753 2.024 . S
O761 C755 1.249 . S
H762 C744 0.948 . S
O763 Zn753 2.039 . S
O763 C767 1.251 . S
O764 Zn745 2.025 . S
O764 C767 1.254 . S
O765 C746 1.246 . S
O765 Zn753 2.034 . S
O766 Zn745 2.024 . S
O766 C746 1.249 . S
C767 O763 1.251 . S
C767 O764 1.254 . S
H768 C741 0.949 . S
H769 C743 0.950 . S
H770 C750 0.949 . S
H771 C752 0.950 . S
C772 O788 1.251 . S
C772 O790 1.254 . S
N773 C774 1.333 . S
N773 C778 1.307 . S
N773 Zn779 2.020 . S
C774 N773 1.333 . S
C774 C775 1.379 . S
C774 H792 0.952 . S
C775 C774 1.379 . S
C775 C776 1.390 1_565 S
C775 H802 0.949 . S
C776 C775 1.390 1_545 S
C776 C777 1.357 . S
C777 C776 1.357 . S
C777 C778 1.370 1_545 S
C777 H803 0.950 . S
C778 N773 1.307 . S
C778 C777 1.370 1_565 S
C778 H796 0.948 . S
Zn779 N773 2.020 . S
Zn779 O788 2.039 . S
Zn779 O794 2.034 . S
Zn779 O798 2.025 . S
Zn779 O800 2.024 . S
C780 O799 1.246 . S
C780 O800 1.249 . S
N781 C782 1.307 . S
N781 C783 1.333 . S
N781 Zn787 2.020 . S
C782 N781 1.307 . S
C782 C786 1.370 . S
C782 H793 0.948 . S
C783 N781 1.333 . S
C783 C784 1.379 . S
C783 H791 0.952 . S
C784 C783 1.379 . S
C784 C785 1.390 . S
C784 H804 0.949 . S
C785 C784 1.390 . S
C785 C786 1.357 . S
C786 C782 1.370 . S
C786 C785 1.357 . S
C786 H805 0.950 . S
Zn787 N781 2.020 . S
Zn787 O790 2.025 . S
Zn787 O795 2.024 . S
Zn787 O797 2.039 . S
Zn787 O799 2.034 . S
O788 C772 1.251 . S
O788 Zn779 2.039 . S
C789 O794 1.246 . S
C789 O795 1.249 . S
O790 C772 1.254 . S
O790 Zn787 2.025 . S
H791 C783 0.952 . S
H792 C774 0.952 . S
H793 C782 0.948 . S
O794 Zn779 2.034 . S
O794 C789 1.246 . S
O795 Zn787 2.024 . S
O795 C789 1.249 . S
H796 C778 0.948 . S
O797 Zn787 2.039 . S
O797 C801 1.251 . S
O798 Zn779 2.025 . S
O798 C801 1.254 . S
O799 C780 1.246 . S
O799 Zn787 2.034 . S
O800 Zn779 2.024 . S
O800 C780 1.249 . S
C801 O797 1.251 . S
C801 O798 1.254 . S
H802 C775 0.949 . S
H803 C777 0.950 . S
H804 C784 0.949 . S
H805 C786 0.950 . S
C806 O822 1.251 . S
C806 O824 1.254 . S
N807 C808 1.333 . S
N807 C812 1.307 . S
N807 Zn813 2.020 . S
C808 N807 1.333 . S
C808 C809 1.379 . S
C808 H826 0.952 . S
C809 C808 1.379 . S
C809 C810 1.390 . S
C809 H836 0.949 . S
C810 C809 1.390 . S
C810 C811 1.357 . S
C811 C810 1.357 . S
C811 C812 1.370 . S
C811 H837 0.950 . S
C812 N807 1.307 . S
C812 C811 1.370 . S
C812 H830 0.948 . S
Zn813 N807 2.020 . S
Zn813 O822 2.039 . S
Zn813 O828 2.034 . S
Zn813 O832 2.025 . S
Zn813 O834 2.024 . S
C814 O833 1.246 . S
C814 O834 1.249 . S
N815 C816 1.307 . S
N815 C817 1.333 . S
N815 Zn821 2.020 . S
C816 N815 1.307 . S
C816 C820 1.370 . S
C816 H827 0.948 . S
C817 N815 1.333 . S
C817 C818 1.379 . S
C817 H825 0.952 . S
C818 C817 1.379 . S
C818 C819 1.390 . S
C818 H838 0.949 . S
C819 C818 1.390 . S
C819 C820 1.357 . S
C820 C816 1.370 . S
C820 C819 1.357 . S
C820 H839 0.950 . S
Zn821 N815 2.020 . S
Zn821 O824 2.025 . S
Zn821 O829 2.024 . S
Zn821 O831 2.039 . S
Zn821 O833 2.034 . S
O822 C806 1.251 . S
O822 Zn813 2.039 . S
C823 O828 1.246 . S
C823 O829 1.249 . S
O824 C806 1.254 . S
O824 Zn821 2.025 . S
H825 C817 0.952 . S
H826 C808 0.952 . S
H827 C816 0.948 . S
O828 Zn813 2.034 . S
O828 C823 1.246 . S
O829 Zn821 2.024 . S
O829 C823 1.249 . S
H830 C812 0.948 . S
O831 Zn821 2.039 . S
O831 C835 1.251 . S
O832 Zn813 2.025 . S
O832 C835 1.254 . S
O833 C814 1.246 . S
O833 Zn821 2.034 . S
O834 Zn813 2.024 . S
O834 C814 1.249 . S
C835 O831 1.251 . S
C835 O832 1.254 . S
H836 C809 0.949 . S
H837 C811 0.950 . S
H838 C818 0.949 . S
H839 C820 0.950 . S
C840 O856 1.251 . S
C840 O858 1.254 . S
N841 C842 1.333 . S
N841 C846 1.307 . S
N841 Zn847 2.020 . S
C842 N841 1.333 . S
C842 C843 1.379 . S
C842 H860 0.952 . S
C843 C842 1.379 . S
C843 C844 1.390 . S
C843 H870 0.949 . S
C844 C843 1.390 . S
C844 C845 1.357 . S
C845 C844 1.357 . S
C845 C846 1.370 . S
C845 H871 0.950 . S
C846 N841 1.307 . S
C846 C845 1.370 . S
C846 H864 0.948 . S
Zn847 N841 2.020 . S
Zn847 O856 2.039 . S
Zn847 O862 2.034 . S
Zn847 O866 2.025 . S
Zn847 O868 2.024 . S
C848 O867 1.246 . S
C848 O868 1.249 . S
N849 C850 1.307 1_556 S
N849 C851 1.333 1_556 S
N849 Zn855 2.020 . S
C850 N849 1.307 1_554 S
C850 C854 1.370 . S
C850 H861 0.948 . S
C851 N849 1.333 1_554 S
C851 C852 1.379 . S
C851 H859 0.952 . S
C852 C851 1.379 . S
C852 C853 1.390 . S
C852 H872 0.949 . S
C853 C852 1.390 . S
C853 C854 1.357 . S
C854 C850 1.370 . S
C854 C853 1.357 . S
C854 H873 0.950 . S
Zn855 N849 2.020 . S
Zn855 O858 2.025 . S
Zn855 O863 2.024 . S
Zn855 O865 2.039 . S
Zn855 O867 2.034 . S
O856 C840 1.251 . S
O856 Zn847 2.039 . S
C857 O862 1.246 . S
C857 O863 1.249 . S
O858 C840 1.254 . S
O858 Zn855 2.025 . S
H859 C851 0.952 . S
H860 C842 0.952 . S
H861 C850 0.948 . S
O862 Zn847 2.034 . S
O862 C857 1.246 . S
O863 Zn855 2.024 . S
O863 C857 1.249 . S
H864 C846 0.948 . S
O865 Zn855 2.039 . S
O865 C869 1.251 . S
O866 Zn847 2.025 . S
O866 C869 1.254 . S
O867 C848 1.246 . S
O867 Zn855 2.034 . S
O868 Zn847 2.024 . S
O868 C848 1.249 . S
C869 O865 1.251 . S
C869 O866 1.254 . S
H870 C843 0.949 . S
H871 C845 0.950 . S
H872 C852 0.949 . S
H873 C854 0.950 . S
C874 O890 1.251 . S
C874 O892 1.254 . S
N875 C876 1.333 . S
N875 C880 1.307 . S
N875 Zn881 2.020 . S
C876 N875 1.333 . S
C876 C877 1.379 . S
C876 H894 0.952 . S
C877 C876 1.379 . S
C877 C878 1.390 . S
C877 H904 0.949 . S
C878 C877 1.390 . S
C878 C879 1.357 . S
C879 C878 1.357 . S
C879 C880 1.370 . S
C879 H905 0.950 . S
C880 N875 1.307 . S
C880 C879 1.370 . S
C880 H898 0.948 . S
Zn881 N875 2.020 . S
Zn881 O890 2.039 . S
Zn881 O896 2.034 . S
Zn881 O900 2.025 . S
Zn881 O902 2.024 . S
C882 O901 1.246 . S
C882 O902 1.249 . S
N883 C884 1.307 . S
N883 C885 1.333 . S
N883 Zn889 2.020 . S
C884 N883 1.307 . S
C884 C888 1.370 . S
C884 H895 0.948 . S
C885 N883 1.333 . S
C885 C886 1.379 . S
C885 H893 0.952 . S
C886 C885 1.379 . S
C886 C887 1.390 . S
C886 H906 0.949 1_545 S
C887 C886 1.390 . S
C887 C888 1.357 . S
C888 C884 1.370 . S
C888 C887 1.357 . S
C888 H907 0.950 . S
Zn889 N883 2.020 . S
Zn889 O892 2.025 . S
Zn889 O897 2.024 . S
Zn889 O899 2.039 . S
Zn889 O901 2.034 . S
O890 C874 1.251 . S
O890 Zn881 2.039 . S
C891 O896 1.246 . S
C891 O897 1.249 . S
O892 C874 1.254 . S
O892 Zn889 2.025 . S
H893 C885 0.952 . S
H894 C876 0.952 . S
H895 C884 0.948 . S
O896 Zn881 2.034 . S
O896 C891 1.246 . S
O897 Zn889 2.024 . S
O897 C891 1.249 . S
H898 C880 0.948 . S
O899 Zn889 2.039 . S
O899 C903 1.251 . S
O900 Zn881 2.025 . S
O900 C903 1.254 . S
O901 C882 1.246 . S
O901 Zn889 2.034 . S
O902 Zn881 2.024 . S
O902 C882 1.249 . S
C903 O899 1.251 . S
C903 O900 1.254 . S
H904 C877 0.949 . S
H905 C879 0.950 . S
H906 C886 0.949 1_565 S
H907 C888 0.950 . S
H908 C914 0.930 . S
H909 C918 0.930 . S
H910 C923 0.929 . S
H911 C921 0.929 . S
H912 C916 0.929 . S
H913 C922 0.929 . S
C914 H908 0.930 . S
C914 C915 1.367 . S
C914 C922 1.378 . S
C915 C914 1.367 . S
C915 C923 1.433 . S
C916 H912 0.929 . S
C916 C918 1.378 . S
C916 C920 1.350 . S
C917 C920 1.463 . S
C917 C922 1.350 . S
C917 N925 1.427 . S
C918 H909 0.930 . S
C918 C916 1.378 . S
C918 C919 1.367 . S
C919 C918 1.367 . S
C919 C921 1.433 . S
C920 C916 1.350 . S
C920 C917 1.463 . S
C920 N924 1.427 . S
C921 H911 0.929 . S
C921 C919 1.433 . S
C921 N924 1.384 . S
C922 H913 0.929 . S
C922 C914 1.378 . S
C922 C917 1.350 . S
C923 H910 0.929 . S
C923 C915 1.433 . S
C923 N925 1.384 . S
N924 C920 1.427 . S
N924 C921 1.384 . S
N925 C917 1.427 . S
N925 C923 1.384 . S
H926 C932 0.945 . S
H927 C936 0.930 . S
H928 C941 0.929 . S
H929 C939 0.929 . S
H930 C934 0.929 . S
H931 C940 0.929 . S
C932 H926 0.945 . S
C932 C933 1.367 . S
C932 C940 1.378 . S
C933 C932 1.367 . S
C933 C941 1.433 . S
C934 H930 0.929 . S
C934 C936 1.378 . S
C934 C938 1.350 . S
C935 C938 1.463 . S
C935 C940 1.350 . S
C935 N943 1.427 . S
C936 H927 0.930 . S
C936 C934 1.378 . S
C936 C937 1.367 . S
C937 C936 1.367 . S
C937 C939 1.433 . S
C938 C934 1.350 . S
C938 C935 1.463 . S
C938 N942 1.427 . S
C939 H929 0.929 . S
C939 C937 1.433 . S
C939 N942 1.384 . S
C940 H931 0.929 . S
C940 C932 1.378 . S
C940 C935 1.350 . S
C941 H928 0.929 . S
C941 C933 1.433 . S
C941 N943 1.384 . S
N942 C938 1.427 . S
N942 C939 1.384 . S
N943 C935 1.427 . S
N943 C941 1.384 . S
H944 C950 0.930 . S
H945 C954 0.930 . S
H946 C959 0.929 . S
H947 C957 0.929 . S
H948 C952 0.929 . S
H949 C958 0.929 . S
C950 H944 0.930 . S
C950 C951 1.367 . S
C950 C958 1.378 . S
C951 C950 1.367 . S
C951 C959 1.433 . S
C952 H948 0.929 . S
C952 C954 1.378 . S
C952 C956 1.350 . S
C953 C956 1.463 . S
C953 C958 1.350 . S
C953 N961 1.427 . S
C954 H945 0.930 . S
C954 C952 1.378 . S
C954 C955 1.367 . S
C955 C954 1.367 . S
C955 C957 1.433 . S
C956 C952 1.350 . S
C956 C953 1.463 . S
C956 N960 1.427 . S
C957 H947 0.929 . S
C957 C955 1.433 . S
C957 N960 1.384 . S
C958 H949 0.929 . S
C958 C950 1.378 . S
C958 C953 1.350 . S
C959 H946 0.929 . S
C959 C951 1.433 . S
C959 N961 1.384 . S
N960 C956 1.427 . S
N960 C957 1.384 . S
N961 C953 1.427 . S
N961 C959 1.384 . S
H962 C968 0.930 . S
H963 C972 0.932 . S
H964 C977 0.929 . S
H965 C975 0.929 . S
H966 C970 0.929 . S
H967 C976 0.929 . S
C968 H962 0.930 . S
C968 C969 1.367 . S
C968 C976 1.378 . S
C969 C968 1.367 . S
C969 C977 1.433 1_655 S
C970 H966 0.929 . S
C970 C972 1.378 . S
C970 C974 1.350 1_455 S
C971 C974 1.463 . S
C971 C976 1.350 . S
C971 N979 1.427 1_655 S
C972 H963 0.932 . S
C972 C970 1.378 . S
C972 C973 1.365 1_455 S
C973 C972 1.365 1_655 S
C973 C975 1.433 . S
C974 C970 1.350 1_655 S
C974 C971 1.463 . S
C974 N978 1.427 . S
C975 H965 0.929 . S
C975 C973 1.433 . S
C975 N978 1.384 . S
C976 H967 0.929 . S
C976 C968 1.378 . S
C976 C971 1.350 . S
C977 H964 0.929 . S
C977 C969 1.433 1_455 S
C977 N979 1.384 . S
N978 C974 1.427 . S
N978 C975 1.384 . S
N979 C971 1.427 1_455 S
N979 C977 1.384 . S
H980 C986 0.930 . S
H981 C990 0.930 1_556 S
H982 C995 0.929 . S
H983 C993 0.929 . S
H984 C988 0.929 . S
H985 C994 0.929 . S
C986 H980 0.930 . S
C986 C987 1.367 . S
C986 C994 1.378 . S
C987 C986 1.367 . S
C987 C995 1.433 . S
C988 H984 0.929 . S
C988 C990 1.378 . S
C988 C992 1.350 . S
C989 C992 1.463 . S
C989 C994 1.350 . S
C989 N997 1.427 . S
C990 H981 0.930 1_554 S
C990 C988 1.378 . S
C990 C991 1.367 1_554 S
C991 C990 1.367 1_556 S
C991 C993 1.433 1_556 S
C992 C988 1.350 . S
C992 C989 1.463 . S
C992 N996 1.427 . S
C993 H983 0.929 . S
C993 C991 1.433 1_554 S
C993 N996 1.384 . S
C994 H985 0.929 . S
C994 C986 1.378 . S
C994 C989 1.350 . S
C995 H982 0.929 . S
C995 C987 1.433 . S
C995 N997 1.384 . S
N996 C992 1.427 . S
N996 C993 1.384 . S
N997 C989 1.427 . S
N997 C995 1.384 . S
H998 C1004 0.930 . S
H999 C1008 0.930 . S
H1000 C1013 0.929 . S
H1001 C1011 0.929 . S
H1002 C1006 0.929 . S
H1003 C1012 0.929 . S
C1004 H998 0.930 . S
C1004 C1005 1.367 . S
C1004 C1012 1.378 . S
C1005 C1004 1.367 . S
C1005 C1013 1.433 . S
C1006 H1002 0.929 . S
C1006 C1008 1.378 . S
C1006 C1010 1.350 . S
C1007 C1010 1.463 . S
C1007 C1012 1.350 . S
C1007 N1015 1.427 . S
C1008 H999 0.930 . S
C1008 C1006 1.378 . S
C1008 C1009 1.367 . S
C1009 C1008 1.367 . S
C1009 C1011 1.433 . S
C1010 C1006 1.350 . S
C1010 C1007 1.463 . S
C1010 N1014 1.427 . S
C1011 H1001 0.929 . S
C1011 C1009 1.433 . S
C1011 N1014 1.384 . S
C1012 H1003 0.929 . S
C1012 C1004 1.378 . S
C1012 C1007 1.350 . S
C1013 H1000 0.929 . S
C1013 C1005 1.433 . S
C1013 N1015 1.384 . S
N1014 C1010 1.427 . S
N1014 C1011 1.384 . S
N1015 C1007 1.427 . S
N1015 C1013 1.384 . S
H1016 C1022 0.930 . S
H1017 C1026 0.930 . S
H1018 C1031 0.929 . S
H1019 C1029 0.929 . S
H1020 C1024 0.929 . S
H1021 C1030 0.929 . S
C1022 H1016 0.930 . S
C1022 C1023 1.351 1_545 S
C1022 C1030 1.378 . S
C1023 C1022 1.351 1_565 S
C1023 C1031 1.446 . S
C1024 H1020 0.929 . S
C1024 C1026 1.378 . S
C1024 C1028 1.350 1_565 S
C1025 C1028 1.463 . S
C1025 C1030 1.350 . S
C1025 N1033 1.427 1_545 S
C1026 H1017 0.930 . S
C1026 C1024 1.378 . S
C1026 C1027 1.367 1_565 S
C1027 C1026 1.367 1_545 S
C1027 C1029 1.433 . S
C1028 C1024 1.350 1_545 S
C1028 C1025 1.463 . S
C1028 N1032 1.427 . S
C1029 H1019 0.929 . S
C1029 C1027 1.433 . S
C1029 N1032 1.384 . S
C1030 H1021 0.929 . S
C1030 C1022 1.378 . S
C1030 C1025 1.350 . S
C1031 H1018 0.929 . S
C1031 C1023 1.446 . S
C1031 N1033 1.384 . S
N1032 C1028 1.427 . S
N1032 C1029 1.384 . S
N1033 C1025 1.427 1_565 S
N1033 C1031 1.384 . S
H1034 C1040 0.930 . S
H1035 C1044 0.930 . S
H1036 C1049 0.929 . S
H1037 C1047 0.929 . S
H1038 C1042 0.929 . S
H1039 C1048 0.929 . S
C1040 H1034 0.930 . S
C1040 C1041 1.367 . S
C1040 C1048 1.378 . S
C1041 C1040 1.367 . S
C1041 C1049 1.433 . S
C1042 H1038 0.929 . S
C1042 C1044 1.378 . S
C1042 C1046 1.350 . S
C1043 C1046 1.463 . S
C1043 C1048 1.350 . S
C1043 N1051 1.427 . S
C1044 H1035 0.930 . S
C1044 C1042 1.378 . S
C1044 C1045 1.367 . S
C1045 C1044 1.367 . S
C1045 C1047 1.433 . S
C1046 C1042 1.350 . S
C1046 C1043 1.463 . S
C1046 N1050 1.427 . S
C1047 H1037 0.929 . S
C1047 C1045 1.433 . S
C1047 N1050 1.384 . S
C1048 H1039 0.929 . S
C1048 C1040 1.378 . S
C1048 C1043 1.350 . S
C1049 H1036 0.929 . S
C1049 C1041 1.433 . S
C1049 N1051 1.384 . S
N1050 C1046 1.427 . S
N1050 C1047 1.384 . S
N1051 C1043 1.427 . S
N1051 C1049 1.384 . S
H1052 C1058 0.930 . S
H1053 C1062 0.930 . S
H1054 C1067 0.929 . S
H1055 C1065 0.929 1_556 S
H1056 C1060 0.929 . S
H1057 C1066 0.917 1_556 S
C1058 H1052 0.930 . S
C1058 C1059 1.367 . S
C1058 C1066 1.378 . S
C1059 C1058 1.367 . S
C1059 C1067 1.433 . S
C1060 H1056 0.929 . S
C1060 C1062 1.378 . S
C1060 C1064 1.350 . S
C1061 C1064 1.463 . S
C1061 C1066 1.350 . S
C1061 N1069 1.427 . S
C1062 H1053 0.930 . S
C1062 C1060 1.378 . S
C1062 C1063 1.367 . S
C1063 C1062 1.367 . S
C1063 C1065 1.433 . S
C1064 C1060 1.350 . S
C1064 C1061 1.463 . S
C1064 N1068 1.427 . S
C1065 H1055 0.929 1_554 S
C1065 C1063 1.433 . S
C1065 N1068 1.384 . S
C1066 H1057 0.917 1_554 S
C1066 C1058 1.378 . S
C1066 C1061 1.350 . S
C1067 H1054 0.929 . S
C1067 C1059 1.433 . S
C1067 N1069 1.384 . S
N1068 C1064 1.427 . S
N1068 C1065 1.384 . S
N1069 C1061 1.427 . S
N1069 C1067 1.384 . S
H1070 C1076 0.930 . S
H1071 C1080 0.930 . S
H1072 C1085 0.929 . S
H1073 C1083 0.929 . S
H1074 C1078 0.929 . S
H1075 C1084 0.929 . S
C1076 H1070 0.930 . S
C1076 C1077 1.367 . S
C1076 C1084 1.378 . S
C1077 C1076 1.367 . S
C1077 C1085 1.433 . S
C1078 H1074 0.929 . S
C1078 C1080 1.378 . S
C1078 C1082 1.350 . S
C1079 C1082 1.463 . S
C1079 C1084 1.350 . S
C1079 N1087 1.427 . S
C1080 H1071 0.930 . S
C1080 C1078 1.378 . S
C1080 C1081 1.367 . S
C1081 C1080 1.367 . S
C1081 C1083 1.433 . S
C1082 C1078 1.350 . S
C1082 C1079 1.463 . S
C1082 N1086 1.427 . S
C1083 H1073 0.929 . S
C1083 C1081 1.433 . S
C1083 N1086 1.384 . S
C1084 H1075 0.929 . S
C1084 C1076 1.378 . S
C1084 C1079 1.350 . S
C1085 H1072 0.929 . S
C1085 C1077 1.433 . S
C1085 N1087 1.384 . S
N1086 C1082 1.427 . S
N1086 C1083 1.384 . S
N1087 C1079 1.427 . S
N1087 C1085 1.384 . S
H1088 C1094 0.930 . S
H1089 C1098 0.930 . S
H1090 C1103 0.929 . S
H1091 C1101 0.929 . S
H1092 C1096 0.929 . S
H1093 C1102 0.929 . S
C1094 H1088 0.930 . S
C1094 C1095 1.367 . S
C1094 C1102 1.378 . S
C1095 C1094 1.367 . S
C1095 C1103 1.433 . S
C1096 H1092 0.929 . S
C1096 C1098 1.378 . S
C1096 C1100 1.350 . S
C1097 C1100 1.463 . S
C1097 C1102 1.350 . S
C1097 N1105 1.427 . S
C1098 H1089 0.930 . S
C1098 C1096 1.378 . S
C1098 C1099 1.367 . S
C1099 C1098 1.367 . S
C1099 C1101 1.433 . S
C1100 C1096 1.350 . S
C1100 C1097 1.463 . S
C1100 N1104 1.427 . S
C1101 H1091 0.929 . S
C1101 C1099 1.433 . S
C1101 N1104 1.384 . S
C1102 H1093 0.929 . S
C1102 C1094 1.378 . S
C1102 C1097 1.350 . S
C1103 H1090 0.929 . S
C1103 C1095 1.433 . S
C1103 N1105 1.384 . S
N1104 C1100 1.427 . S
N1104 C1101 1.384 . S
N1105 C1097 1.427 . S
N1105 C1103 1.384 . S
H1106 C1112 0.930 . S
H1107 C1116 0.930 . S
H1108 C1121 0.929 . S
H1109 C1119 0.929 . S
H1110 C1114 0.929 . S
H1111 C1120 0.929 . S
C1112 H1106 0.930 . S
C1112 C1113 1.367 . S
C1112 C1120 1.378 . S
C1113 C1112 1.367 . S
C1113 C1121 1.433 . S
C1114 H1110 0.929 . S
C1114 C1116 1.378 . S
C1114 C1118 1.350 . S
C1115 C1118 1.463 . S
C1115 C1120 1.350 . S
C1115 N1123 1.427 . S
C1116 H1107 0.930 . S
C1116 C1114 1.378 . S
C1116 C1117 1.367 . S
C1117 C1116 1.367 . S
C1117 C1119 1.433 . S
C1118 C1114 1.350 . S
C1118 C1115 1.463 . S
C1118 N1122 1.427 . S
C1119 H1109 0.929 . S
C1119 C1117 1.433 . S
C1119 N1122 1.384 . S
C1120 H1111 0.929 . S
C1120 C1112 1.378 . S
C1120 C1115 1.350 . S
C1121 H1108 0.929 . S
C1121 C1113 1.433 . S
C1121 N1123 1.384 . S
N1122 C1118 1.427 . S
N1122 C1119 1.384 . S
N1123 C1115 1.427 . S
N1123 C1121 1.384 . S
H1124 C1130 0.930 . S
H1125 C1134 0.930 . S
H1126 C1139 0.929 . S
H1127 C1137 0.929 . S
H1128 C1132 0.929 . S
H1129 C1138 0.929 . S
C1130 H1124 0.930 . S
C1130 C1131 1.367 . S
C1130 C1138 1.378 . S
C1131 C1130 1.367 . S
C1131 C1139 1.433 . S
C1132 H1128 0.929 . S
C1132 C1134 1.378 . S
C1132 C1136 1.350 . S
C1133 C1136 1.463 . S
C1133 C1138 1.350 . S
C1133 N1141 1.427 . S
C1134 H1125 0.930 . S
C1134 C1132 1.378 . S
C1134 C1135 1.367 . S
C1135 C1134 1.367 . S
C1135 C1137 1.433 . S
C1136 C1132 1.350 . S
C1136 C1133 1.463 . S
C1136 N1140 1.427 . S
C1137 H1127 0.929 . S
C1137 C1135 1.433 . S
C1137 N1140 1.384 . S
C1138 H1129 0.929 . S
C1138 C1130 1.378 . S
C1138 C1133 1.350 . S
C1139 H1126 0.929 . S
C1139 C1131 1.433 . S
C1139 N1141 1.384 . S
N1140 C1136 1.427 . S
N1140 C1137 1.384 . S
N1141 C1133 1.427 . S
N1141 C1139 1.384 . S
H1142 C1148 0.930 . S
H1143 C1152 0.930 . S
H1144 C1157 0.929 . S
H1145 C1155 0.929 . S
H1146 C1150 0.929 . S
H1147 C1156 0.929 . S
C1148 H1142 0.930 . S
C1148 C1149 1.367 . S
C1148 C1156 1.378 . S
C1149 C1148 1.367 . S
C1149 C1157 1.433 . S
C1150 H1146 0.929 . S
C1150 C1152 1.378 . S
C1150 C1154 1.350 . S
C1151 C1154 1.463 . S
C1151 C1156 1.350 . S
C1151 N1159 1.427 . S
C1152 H1143 0.930 . S
C1152 C1150 1.378 . S
C1152 C1153 1.367 . S
C1153 C1152 1.367 . S
C1153 C1155 1.433 . S
C1154 C1150 1.350 . S
C1154 C1151 1.463 . S
C1154 N1158 1.427 . S
C1155 H1145 0.929 . S
C1155 C1153 1.433 . S
C1155 N1158 1.384 . S
C1156 H1147 0.929 . S
C1156 C1148 1.378 . S
C1156 C1151 1.350 . S
C1157 H1144 0.929 . S
C1157 C1149 1.433 . S
C1157 N1159 1.384 . S
N1158 C1154 1.427 . S
N1158 C1155 1.384 . S
N1159 C1151 1.427 . S
N1159 C1157 1.384 . S
H1160 C1166 0.930 . S
H1161 C1170 0.930 . S
H1162 C1175 0.929 . S
H1163 C1173 0.929 . S
H1164 C1168 0.929 . S
H1165 C1174 0.929 . S
C1166 H1160 0.930 . S
C1166 C1167 1.367 . S
C1166 C1174 1.378 . S
C1167 C1166 1.367 . S
C1167 C1175 1.433 . S
C1168 H1164 0.929 . S
C1168 C1170 1.378 . S
C1168 C1172 1.350 . S
C1169 C1172 1.463 . S
C1169 C1174 1.350 . S
C1169 N1177 1.427 . S
C1170 H1161 0.930 . S
C1170 C1168 1.378 . S
C1170 C1171 1.367 . S
C1171 C1170 1.367 . S
C1171 C1173 1.433 . S
C1172 C1168 1.350 . S
C1172 C1169 1.463 . S
C1172 N1176 1.427 . S
C1173 H1163 0.929 . S
C1173 C1171 1.433 . S
C1173 N1176 1.384 . S
C1174 H1165 0.929 . S
C1174 C1166 1.378 . S
C1174 C1169 1.350 . S
C1175 H1162 0.929 . S
C1175 C1167 1.433 . S
C1175 N1177 1.384 . S
N1176 C1172 1.427 . S
N1176 C1173 1.384 . S
N1177 C1169 1.427 . S
N1177 C1175 1.384 . S
H1178 C1184 0.930 . S
H1179 C1188 0.930 . S
H1180 C1193 0.929 . S
H1181 C1191 0.929 . S
H1182 C1186 0.929 . S
H1183 C1192 0.929 . S
C1184 H1178 0.930 . S
C1184 C1185 1.367 . S
C1184 C1192 1.378 . S
C1185 C1184 1.367 . S
C1185 C1193 1.433 . S
C1186 H1182 0.929 . S
C1186 C1188 1.378 . S
C1186 C1190 1.350 . S
C1187 C1190 1.463 . S
C1187 C1192 1.350 . S
C1187 N1195 1.427 . S
C1188 H1179 0.930 . S
C1188 C1186 1.378 . S
C1188 C1189 1.367 . S
C1189 C1188 1.367 . S
C1189 C1191 1.433 . S
C1190 C1186 1.350 . S
C1190 C1187 1.463 . S
C1190 N1194 1.427 . S
C1191 H1181 0.929 . S
C1191 C1189 1.433 . S
C1191 N1194 1.384 . S
C1192 H1183 0.929 . S
C1192 C1184 1.378 . S
C1192 C1187 1.350 . S
C1193 H1180 0.929 . S
C1193 C1185 1.433 . S
C1193 N1195 1.384 . S
N1194 C1190 1.427 . S
N1194 C1191 1.384 . S
N1195 C1187 1.427 . S
N1195 C1193 1.384 . S
H1196 C1202 0.930 . S
H1197 C1206 0.930 . S
H1198 C1211 0.929 . S
H1199 C1209 0.929 . S
H1200 C1204 0.929 . S
H1201 C1210 0.929 . S
C1202 H1196 0.930 . S
C1202 C1203 1.367 . S
C1202 C1210 1.378 . S
C1203 C1202 1.367 . S
C1203 C1211 1.433 . S
C1204 H1200 0.929 . S
C1204 C1206 1.378 . S
C1204 C1208 1.350 . S
C1205 C1208 1.463 . S
C1205 C1210 1.350 . S
C1205 N1213 1.427 . S
C1206 H1197 0.930 . S
C1206 C1204 1.378 . S
C1206 C1207 1.367 . S
C1207 C1206 1.367 . S
C1207 C1209 1.433 . S
C1208 C1204 1.350 . S
C1208 C1205 1.463 . S
C1208 N1212 1.427 . S
C1209 H1199 0.929 . S
C1209 C1207 1.433 . S
C1209 N1212 1.384 . S
C1210 H1201 0.929 . S
C1210 C1202 1.378 . S
C1210 C1205 1.350 . S
C1211 H1198 0.929 . S
C1211 C1203 1.433 . S
C1211 N1213 1.384 . S
N1212 C1208 1.427 . S
N1212 C1209 1.384 . S
N1213 C1205 1.427 . S
N1213 C1211 1.384 . S
H1214 C1220 0.930 . S
H1215 C1224 0.930 1_545 S
H1216 C1229 0.929 1_545 S
H1217 C1227 0.929 . S
H1218 C1222 0.929 1_545 S
H1219 C1228 0.929 . S
C1220 H1214 0.930 . S
C1220 C1221 1.367 . S
C1220 C1228 1.378 . S
C1221 C1220 1.367 . S
C1221 C1229 1.433 . S
C1222 H1218 0.929 1_565 S
C1222 C1224 1.378 . S
C1222 C1226 1.350 . S
C1223 C1226 1.463 . S
C1223 C1228 1.350 . S
C1223 N1231 1.427 . S
C1224 H1215 0.930 1_565 S
C1224 C1222 1.378 . S
C1224 C1225 1.367 . S
C1225 C1224 1.367 . S
C1225 C1227 1.433 . S
C1226 C1222 1.350 . S
C1226 C1223 1.463 . S
C1226 N1230 1.427 . S
C1227 H1217 0.929 . S
C1227 C1225 1.433 . S
C1227 N1230 1.384 . S
C1228 H1219 0.929 . S
C1228 C1220 1.378 . S
C1228 C1223 1.350 . S
C1229 H1216 0.929 1_565 S
C1229 C1221 1.433 . S
C1229 N1231 1.384 . S
N1230 C1226 1.427 . S
N1230 C1227 1.384 . S
N1231 C1223 1.427 . S
N1231 C1229 1.384 . S
H1232 C1238 0.930 . S
H1233 C1242 0.930 . S
H1234 C1247 0.929 . S
H1235 C1245 0.929 . S
H1236 C1240 0.929 . S
H1237 C1246 0.929 . S
C1238 H1232 0.930 . S
C1238 C1239 1.367 . S
C1238 C1246 1.378 . S
C1239 C1238 1.367 . S
C1239 C1247 1.433 . S
C1240 H1236 0.929 . S
C1240 C1242 1.378 . S
C1240 C1244 1.350 . S
C1241 C1244 1.463 . S
C1241 C1246 1.350 . S
C1241 N1249 1.427 . S
C1242 H1233 0.930 . S
C1242 C1240 1.378 . S
C1242 C1243 1.367 . S
C1243 C1242 1.367 . S
C1243 C1245 1.433 . S
C1244 C1240 1.350 . S
C1244 C1241 1.463 . S
C1244 N1248 1.427 . S
C1245 H1235 0.929 . S
C1245 C1243 1.433 . S
C1245 N1248 1.384 . S
C1246 H1237 0.929 . S
C1246 C1238 1.378 . S
C1246 C1241 1.350 . S
C1247 H1234 0.929 . S
C1247 C1239 1.433 . S
C1247 N1249 1.384 . S
N1248 C1244 1.427 . S
N1248 C1245 1.384 . S
N1249 C1241 1.427 . S
N1249 C1247 1.384 . S
H1250 C1256 0.930 . S
H1251 C1260 0.930 . S
H1252 C1265 0.929 . S
H1253 C1263 0.929 . S
H1254 C1258 0.929 . S
H1255 C1264 0.929 . S
C1256 H1250 0.930 . S
C1256 C1257 1.367 1_565 S
C1256 C1264 1.378 . S
C1257 C1256 1.367 1_545 S
C1257 C1265 1.433 . S
C1258 H1254 0.929 . S
C1258 C1260 1.378 . S
C1258 C1262 1.350 . S
C1259 C1262 1.463 . S
C1259 C1264 1.350 1_545 S
C1259 N1267 1.427 . S
C1260 H1251 0.930 . S
C1260 C1258 1.378 . S
C1260 C1261 1.367 . S
C1261 C1260 1.367 . S
C1261 C1263 1.433 1_545 S
C1262 C1258 1.350 . S
C1262 C1259 1.463 . S
C1262 N1266 1.427 1_545 S
C1263 H1253 0.929 . S
C1263 C1261 1.433 1_565 S
C1263 N1266 1.384 . S
C1264 H1255 0.929 . S
C1264 C1256 1.378 . S
C1264 C1259 1.350 1_565 S
C1265 H1252 0.929 . S
C1265 C1257 1.433 . S
C1265 N1267 1.384 . S
N1266 C1262 1.427 1_565 S
N1266 C1263 1.384 . S
N1267 C1259 1.427 . S
N1267 C1265 1.384 . S
H1268 C1274 0.930 . S
H1269 C1278 0.930 . S
H1270 C1283 0.929 . S
H1271 C1281 0.929 . S
H1272 C1276 0.929 . S
H1273 C1282 0.929 . S
C1274 H1268 0.930 . S
C1274 C1275 1.367 . S
C1274 C1282 1.378 . S
C1275 C1274 1.367 . S
C1275 C1283 1.433 . S
C1276 H1272 0.929 . S
C1276 C1278 1.378 . S
C1276 C1280 1.350 . S
C1277 C1280 1.463 . S
C1277 C1282 1.350 . S
C1277 N1285 1.427 . S
C1278 H1269 0.930 . S
C1278 C1276 1.378 . S
C1278 C1279 1.367 . S
C1279 C1278 1.367 . S
C1279 C1281 1.433 . S
C1280 C1276 1.350 . S
C1280 C1277 1.463 . S
C1280 N1284 1.427 . S
C1281 H1271 0.929 . S
C1281 C1279 1.433 . S
C1281 N1284 1.384 . S
C1282 H1273 0.929 . S
C1282 C1274 1.378 . S
C1282 C1277 1.350 . S
C1283 H1270 0.929 . S
C1283 C1275 1.433 . S
C1283 N1285 1.384 . S
N1284 C1280 1.427 . S
N1284 C1281 1.384 . S
N1285 C1277 1.427 . S
N1285 C1283 1.384 . S
H1286 C1292 0.930 . S
H1287 C1296 0.930 . S
H1288 C1301 0.929 . S
H1289 C1299 0.929 1_554 S
H1290 C1294 0.929 . S
H1291 C1300 0.929 . S
C1292 H1286 0.930 . S
C1292 C1293 1.367 1_554 S
C1292 C1300 1.378 . S
C1293 C1292 1.367 1_556 S
C1293 C1301 1.433 . S
C1294 H1290 0.929 . S
C1294 C1296 1.378 . S
C1294 C1298 1.350 . S
C1295 C1298 1.463 . S
C1295 C1300 1.350 1_556 S
C1295 N1303 1.427 . S
C1296 H1287 0.930 . S
C1296 C1294 1.378 . S
C1296 C1297 1.367 . S
C1297 C1296 1.367 . S
C1297 C1299 1.433 . S
C1298 C1294 1.350 . S
C1298 C1295 1.463 . S
C1298 N1302 1.427 1_556 S
C1299 H1289 0.929 1_556 S
C1299 C1297 1.433 . S
C1299 N1302 1.384 1_556 S
C1300 H1291 0.929 . S
C1300 C1292 1.378 . S
C1300 C1295 1.350 1_554 S
C1301 H1288 0.929 . S
C1301 C1293 1.433 . S
C1301 N1303 1.384 . S
N1302 C1298 1.427 1_554 S
N1302 C1299 1.384 1_554 S
N1303 C1295 1.427 . S
N1303 C1301 1.384 . S
H1304 C1310 0.930 . S
H1305 C1314 0.923 1_554 S
H1306 C1319 0.929 1_554 S
H1307 C1317 0.929 . S
H1308 C1312 0.929 1_554 S
H1309 C1318 0.929 . S
C1310 H1304 0.930 . S
C1310 C1311 1.367 . S
C1310 C1318 1.378 . S
C1311 C1310 1.367 . S
C1311 C1319 1.433 . S
C1312 H1308 0.929 1_556 S
C1312 C1314 1.378 . S
C1312 C1316 1.350 . S
C1313 C1316 1.463 . S
C1313 C1318 1.350 . S
C1313 N1321 1.427 . S
C1314 H1305 0.923 1_556 S
C1314 C1312 1.378 . S
C1314 C1315 1.367 . S
C1315 C1314 1.367 . S
C1315 C1317 1.433 . S
C1316 C1312 1.350 . S
C1316 C1313 1.463 . S
C1316 N1320 1.427 . S
C1317 H1307 0.929 . S
C1317 C1315 1.433 . S
C1317 N1320 1.384 . S
C1318 H1309 0.929 . S
C1318 C1310 1.378 . S
C1318 C1313 1.350 . S
C1319 H1306 0.929 1_556 S
C1319 C1311 1.433 . S
C1319 N1321 1.384 . S
N1320 C1316 1.427 . S
N1320 C1317 1.384 . S
N1321 C1313 1.427 . S
N1321 C1319 1.384 . S
H1322 C1328 0.930 1_556 S
H1323 C1332 0.930 . S
H1324 C1337 0.929 . S
H1325 C1335 0.929 . S
H1326 C1330 0.929 . S
H1327 C1336 0.904 1_556 S
C1328 H1322 0.930 1_554 S
C1328 C1329 1.367 . S
C1328 C1336 1.378 . S
C1329 C1328 1.367 . S
C1329 C1337 1.433 . S
C1330 H1326 0.929 . S
C1330 C1332 1.378 1_655 S
C1330 C1334 1.350 . S
C1331 C1334 1.463 . S
C1331 C1336 1.350 . S
C1331 N1339 1.427 . S
C1332 H1323 0.930 . S
C1332 C1330 1.378 1_455 S
C1332 C1333 1.367 . S
C1333 C1332 1.367 . S
C1333 C1335 1.433 . S
C1334 C1330 1.350 . S
C1334 C1331 1.463 . S
C1334 N1338 1.427 . S
C1335 H1325 0.929 . S
C1335 C1333 1.433 . S
C1335 N1338 1.384 1_455 S
C1336 H1327 0.904 1_554 S
C1336 C1328 1.378 . S
C1336 C1331 1.350 . S
C1337 H1324 0.929 . S
C1337 C1329 1.433 . S
C1337 N1339 1.384 . S
N1338 C1334 1.427 . S
N1338 C1335 1.384 1_655 S
N1339 C1331 1.427 . S
N1339 C1337 1.384 . S
H1340 C1346 0.930 . S
H1341 C1350 0.930 . S
H1342 C1355 0.929 . S
H1343 C1353 0.929 . S
H1344 C1348 0.929 . S
H1345 C1354 0.929 . S
C1346 H1340 0.930 . S
C1346 C1347 1.367 . S
C1346 C1354 1.378 . S
C1347 C1346 1.367 . S
C1347 C1355 1.433 . S
C1348 H1344 0.929 . S
C1348 C1350 1.378 . S
C1348 C1352 1.350 . S
C1349 C1352 1.463 . S
C1349 C1354 1.350 . S
C1349 N1357 1.427 . S
C1350 H1341 0.930 . S
C1350 C1348 1.378 . S
C1350 C1351 1.367 . S
C1351 C1350 1.367 . S
C1351 C1353 1.433 . S
C1352 C1348 1.350 . S
C1352 C1349 1.463 . S
C1352 N1356 1.427 . S
C1353 H1343 0.929 . S
C1353 C1351 1.433 . S
C1353 N1356 1.384 . S
C1354 H1345 0.929 . S
C1354 C1346 1.378 . S
C1354 C1349 1.350 . S
C1355 H1342 0.929 . S
C1355 C1347 1.433 . S
C1355 N1357 1.384 . S
N1356 C1352 1.427 . S
N1356 C1353 1.384 . S
N1357 C1349 1.427 . S
N1357 C1355 1.384 . S
H1358 C1364 0.930 . S
H1359 C1368 0.930 . S
H1360 C1373 0.923 1_455 S
H1361 C1371 0.929 . S
H1362 C1366 0.929 . S
H1363 C1372 0.929 . S
C1364 H1358 0.930 . S
C1364 C1365 1.367 . S
C1364 C1372 1.378 . S
C1365 C1364 1.367 . S
C1365 C1373 1.439 . S
C1366 H1362 0.929 . S
C1366 C1368 1.378 . S
C1366 C1370 1.350 1_455 S
C1367 C1370 1.463 . S
C1367 C1372 1.350 . S
C1367 N1375 1.422 1_655 S
C1368 H1359 0.930 . S
C1368 C1366 1.378 . S
C1368 C1369 1.367 . S
C1369 C1368 1.367 . S
C1369 C1371 1.433 1_455 S
C1370 C1366 1.350 1_655 S
C1370 C1367 1.463 . S
C1370 N1374 1.427 . S
C1371 H1361 0.929 . S
C1371 C1369 1.433 1_655 S
C1371 N1374 1.384 . S
C1372 H1363 0.929 . S
C1372 C1364 1.378 . S
C1372 C1367 1.350 . S
C1373 H1360 0.923 1_655 S
C1373 C1365 1.439 . S
C1373 N1375 1.388 1_655 S
N1374 C1370 1.427 . S
N1374 C1371 1.384 . S
N1375 C1367 1.422 1_455 S
N1375 C1373 1.388 1_455 S
H1376 C1382 0.964 . S
H1377 C1386 0.930 . S
H1378 C1391 0.929 . S
H1379 C1389 0.929 . S
H1380 C1384 0.929 . S
H1381 C1390 0.929 . S
C1382 H1376 0.964 . S
C1382 C1383 1.334 1_655 S
C1382 C1390 1.378 . S
C1383 C1382 1.334 1_455 S
C1383 C1391 1.433 . S
C1384 H1380 0.929 . S
C1384 C1386 1.378 . S
C1384 C1388 1.350 . S
C1385 C1388 1.463 . S
C1385 C1390 1.350 1_455 S
C1385 N1393 1.427 . S
C1386 H1377 0.930 . S
C1386 C1384 1.378 . S
C1386 C1387 1.367 . S
C1387 C1386 1.367 . S
C1387 C1389 1.433 1_455 S
C1388 C1384 1.350 . S
C1388 C1385 1.463 . S
C1388 N1392 1.427 1_455 S
C1389 H1379 0.929 . S
C1389 C1387 1.433 1_655 S
C1389 N1392 1.384 . S
C1390 H1381 0.929 . S
C1390 C1382 1.378 . S
C1390 C1385 1.350 1_655 S
C1391 H1378 0.929 . S
C1391 C1383 1.433 . S
C1391 N1393 1.384 . S
N1392 C1388 1.427 1_655 S
N1392 C1389 1.384 . S
N1393 C1385 1.427 . S
N1393 C1391 1.384 . S
H1394 C1400 0.930 . S
H1395 C1404 0.930 . S
H1396 C1409 0.929 . S
H1397 C1407 0.929 . S
H1398 C1402 0.929 . S
H1399 C1408 0.929 . S
C1400 H1394 0.930 . S
C1400 C1401 1.367 . S
C1400 C1408 1.378 . S
C1401 C1400 1.367 . S
C1401 C1409 1.433 1_655 S
C1402 H1398 0.929 . S
C1402 C1404 1.378 . S
C1402 C1406 1.350 1_455 S
C1403 C1406 1.463 . S
C1403 C1408 1.350 . S
C1403 N1411 1.427 1_655 S
C1404 H1395 0.930 . S
C1404 C1402 1.378 . S
C1404 C1405 1.367 1_455 S
C1405 C1404 1.367 1_655 S
C1405 C1407 1.433 . S
C1406 C1402 1.350 1_655 S
C1406 C1403 1.463 . S
C1406 N1410 1.427 . S
C1407 H1397 0.929 . S
C1407 C1405 1.433 . S
C1407 N1410 1.384 . S
C1408 H1399 0.929 . S
C1408 C1400 1.378 . S
C1408 C1403 1.350 . S
C1409 H1396 0.929 . S
C1409 C1401 1.433 1_455 S
C1409 N1411 1.384 . S
N1410 C1406 1.427 . S
N1410 C1407 1.384 . S
N1411 C1403 1.427 1_455 S
N1411 C1409 1.384 . S
H1412 C1418 0.930 1_565 S
H1413 C1422 0.930 . S
H1414 C1427 0.929 . S
H1415 C1425 0.951 . S
H1416 C1420 0.929 . S
H1417 C1426 0.929 1_565 S
C1418 H1412 0.930 1_545 S
C1418 C1419 1.367 . S
C1418 C1426 1.378 . S
C1419 C1418 1.367 . S
C1419 C1427 1.433 . S
C1420 H1416 0.929 . S
C1420 C1422 1.378 . S
C1420 C1424 1.350 . S
C1421 C1424 1.463 . S
C1421 C1426 1.350 . S
C1421 N1429 1.427 . S
C1422 H1413 0.930 . S
C1422 C1420 1.378 . S
C1422 C1423 1.367 . S
C1423 C1422 1.367 . S
C1423 C1425 1.433 . S
C1424 C1420 1.350 . S
C1424 C1421 1.463 . S
C1424 N1428 1.427 . S
C1425 H1415 0.951 . S
C1425 C1423 1.433 . S
C1425 N1428 1.384 . S
C1426 H1417 0.929 1_545 S
C1426 C1418 1.378 . S
C1426 C1421 1.350 . S
C1427 H1414 0.929 . S
C1427 C1419 1.433 . S
C1427 N1429 1.384 . S
N1428 C1424 1.427 . S
N1428 C1425 1.384 . S
N1429 C1421 1.427 . S
N1429 C1427 1.384 . S
H1430 C1436 0.930 . S
H1431 C1440 0.930 . S
H1432 C1445 0.929 . S
H1433 C1443 0.929 . S
H1434 C1438 0.929 . S
H1435 C1444 0.929 . S
C1436 H1430 0.930 . S
C1436 C1437 1.367 . S
C1436 C1444 1.378 . S
C1437 C1436 1.367 . S
C1437 C1445 1.433 . S
C1438 H1434 0.929 . S
C1438 C1440 1.378 . S
C1438 C1442 1.350 . S
C1439 C1442 1.463 . S
C1439 C1444 1.350 . S
C1439 N1447 1.427 . S
C1440 H1431 0.930 . S
C1440 C1438 1.378 . S
C1440 C1441 1.367 . S
C1441 C1440 1.367 . S
C1441 C1443 1.433 . S
C1442 C1438 1.350 . S
C1442 C1439 1.463 . S
C1442 N1446 1.427 . S
C1443 H1433 0.929 . S
C1443 C1441 1.433 . S
C1443 N1446 1.384 . S
C1444 H1435 0.929 . S
C1444 C1436 1.378 . S
C1444 C1439 1.350 . S
C1445 H1432 0.929 . S
C1445 C1437 1.433 . S
C1445 N1447 1.384 . S
N1446 C1442 1.427 . S
N1446 C1443 1.384 . S
N1447 C1439 1.427 . S
N1447 C1445 1.384 . S
H1448 C1454 0.930 . S
H1449 C1458 0.930 . S
H1450 C1463 0.929 . S
H1451 C1461 0.929 . S
H1452 C1456 0.929 . S
H1453 C1462 0.927 1_545 S
C1454 H1448 0.930 . S
C1454 C1455 1.367 1_545 S
C1454 C1462 1.377 1_545 S
C1455 C1454 1.367 1_565 S
C1455 C1463 1.433 . S
C1456 H1452 0.929 . S
C1456 C1458 1.378 . S
C1456 C1460 1.350 . S
C1457 C1460 1.463 . S
C1457 C1462 1.352 . S
C1457 N1465 1.427 . S
C1458 H1449 0.930 . S
C1458 C1456 1.378 . S
C1458 C1459 1.367 . S
C1459 C1458 1.367 . S
C1459 C1461 1.433 . S
C1460 C1456 1.350 . S
C1460 C1457 1.463 . S
C1460 N1464 1.427 . S
C1461 H1451 0.929 . S
C1461 C1459 1.433 . S
C1461 N1464 1.384 . S
C1462 H1453 0.927 1_565 S
C1462 C1454 1.377 1_565 S
C1462 C1457 1.352 . S
C1463 H1450 0.929 . S
C1463 C1455 1.433 . S
C1463 N1465 1.384 . S
N1464 C1460 1.427 . S
N1464 C1461 1.384 . S
N1465 C1457 1.427 . S
N1465 C1463 1.384 . S
H1466 C1472 0.930 . S
H1467 C1476 0.930 . S
H1468 C1481 0.929 . S
H1469 C1479 0.929 . S
H1470 C1474 0.929 . S
H1471 C1480 0.929 . S
C1472 H1466 0.930 . S
C1472 C1473 1.367 . S
C1472 C1480 1.378 . S
C1473 C1472 1.367 . S
C1473 C1481 1.433 . S
C1474 H1470 0.929 . S
C1474 C1476 1.378 . S
C1474 C1478 1.350 . S
C1475 C1478 1.463 . S
C1475 C1480 1.350 . S
C1475 N1483 1.427 . S
C1476 H1467 0.930 . S
C1476 C1474 1.378 . S
C1476 C1477 1.367 . S
C1477 C1476 1.367 . S
C1477 C1479 1.433 . S
C1478 C1474 1.350 . S
C1478 C1475 1.463 . S
C1478 N1482 1.427 . S
C1479 H1469 0.929 . S
C1479 C1477 1.433 . S
C1479 N1482 1.384 . S
C1480 H1471 0.929 . S
C1480 C1472 1.378 . S
C1480 C1475 1.350 . S
C1481 H1468 0.929 . S
C1481 C1473 1.433 . S
C1481 N1483 1.384 . S
N1482 C1478 1.427 . S
N1482 C1479 1.384 . S
N1483 C1475 1.427 . S
N1483 C1481 1.384 . S
H1484 C1490 0.930 . S
H1485 C1494 0.930 . S
H1486 C1499 0.929 . S
H1487 C1497 0.929 1_556 S
H1488 C1492 0.929 . S
H1489 C1498 0.929 1_556 S
C1490 H1484 0.930 . S
C1490 C1491 1.367 1_556 S
C1490 C1498 1.378 1_556 S
C1491 C1490 1.367 1_554 S
C1491 C1499 1.433 . S
C1492 H1488 0.929 . S
C1492 C1494 1.378 . S
C1492 C1496 1.350 . S
C1493 C1496 1.463 . S
C1493 C1498 1.350 . S
C1493 N1501 1.427 . S
C1494 H1485 0.930 . S
C1494 C1492 1.378 . S
C1494 C1495 1.367 . S
C1495 C1494 1.367 . S
C1495 C1497 1.433 . S
C1496 C1492 1.350 . S
C1496 C1493 1.463 . S
C1496 N1500 1.427 . S
C1497 H1487 0.929 1_554 S
C1497 C1495 1.433 . S
C1497 N1500 1.384 . S
C1498 H1489 0.929 1_554 S
C1498 C1490 1.378 1_554 S
C1498 C1493 1.350 . S
C1499 H1486 0.929 . S
C1499 C1491 1.433 . S
C1499 N1501 1.384 . S
N1500 C1496 1.427 . S
N1500 C1497 1.384 . S
N1501 C1493 1.427 . S
N1501 C1499 1.384 . S
H1502 C1508 0.930 . S
H1503 C1512 0.930 . S
H1504 C1517 0.929 . S
H1505 C1515 0.929 . S
H1506 C1510 0.929 . S
H1507 C1516 0.929 . S
C1508 H1502 0.930 . S
C1508 C1509 1.367 . S
C1508 C1516 1.378 . S
C1509 C1508 1.367 . S
C1509 C1517 1.433 . S
C1510 H1506 0.929 . S
C1510 C1512 1.378 . S
C1510 C1514 1.350 . S
C1511 C1514 1.463 . S
C1511 C1516 1.350 . S
C1511 N1519 1.427 . S
C1512 H1503 0.930 . S
C1512 C1510 1.378 . S
C1512 C1513 1.367 . S
C1513 C1512 1.367 . S
C1513 C1515 1.433 . S
C1514 C1510 1.350 . S
C1514 C1511 1.463 . S
C1514 N1518 1.427 . S
C1515 H1505 0.929 . S
C1515 C1513 1.433 . S
C1515 N1518 1.384 . S
C1516 H1507 0.929 . S
C1516 C1508 1.378 . S
C1516 C1511 1.350 . S
C1517 H1504 0.929 . S
C1517 C1509 1.433 . S
C1517 N1519 1.384 . S
N1518 C1514 1.427 . S
N1518 C1515 1.384 . S
N1519 C1511 1.427 . S
N1519 C1517 1.384 . S
H1520 C1526 0.930 . S
H1521 C1530 0.930 . S
H1522 C1535 0.929 . S
H1523 C1533 0.929 . S
H1524 C1528 0.929 . S
H1525 C1534 0.929 . S
C1526 H1520 0.930 . S
C1526 C1527 1.367 . S
C1526 C1534 1.378 . S
C1527 C1526 1.367 . S
C1527 C1535 1.433 . S
C1528 H1524 0.929 . S
C1528 C1530 1.378 . S
C1528 C1532 1.350 . S
C1529 C1532 1.463 . S
C1529 C1534 1.350 . S
C1529 N1537 1.427 . S
C1530 H1521 0.930 . S
C1530 C1528 1.378 . S
C1530 C1531 1.367 . S
C1531 C1530 1.367 . S
C1531 C1533 1.433 . S
C1532 C1528 1.350 . S
C1532 C1529 1.463 . S
C1532 N1536 1.427 . S
C1533 H1523 0.929 . S
C1533 C1531 1.433 . S
C1533 N1536 1.384 . S
C1534 H1525 0.929 . S
C1534 C1526 1.378 . S
C1534 C1529 1.350 . S
C1535 H1522 0.929 . S
C1535 C1527 1.433 . S
C1535 N1537 1.384 . S
N1536 C1532 1.427 . S
N1536 C1533 1.384 . S
N1537 C1529 1.427 . S
N1537 C1535 1.384 . S
H1538 C1544 0.930 . S
H1539 C1548 0.930 . S
H1540 C1553 0.929 . S
H1541 C1551 0.929 . S
H1542 C1546 0.929 . S
H1543 C1552 0.929 . S
C1544 H1538 0.930 . S
C1544 C1545 1.367 . S
C1544 C1552 1.378 . S
C1545 C1544 1.367 . S
C1545 C1553 1.433 . S
C1546 H1542 0.929 . S
C1546 C1548 1.378 . S
C1546 C1550 1.350 . S
C1547 C1550 1.463 . S
C1547 C1552 1.350 . S
C1547 N1555 1.427 . S
C1548 H1539 0.930 . S
C1548 C1546 1.378 . S
C1548 C1549 1.367 . S
C1549 C1548 1.367 . S
C1549 C1551 1.433 . S
C1550 C1546 1.350 . S
C1550 C1547 1.463 . S
C1550 N1554 1.427 . S
C1551 H1541 0.929 . S
C1551 C1549 1.433 . S
C1551 N1554 1.384 . S
C1552 H1543 0.929 . S
C1552 C1544 1.378 . S
C1552 C1547 1.350 . S
C1553 H1540 0.929 . S
C1553 C1545 1.433 . S
C1553 N1555 1.384 . S
N1554 C1550 1.427 . S
N1554 C1551 1.384 . S
N1555 C1547 1.427 . S
N1555 C1553 1.384 . S
H1556 C1562 0.930 . S
H1557 C1566 0.930 . S
H1558 C1571 0.929 . S
H1559 C1569 0.929 . S
H1560 C1564 0.929 . S
H1561 C1570 0.929 . S
C1562 H1556 0.930 . S
C1562 C1563 1.367 . S
C1562 C1570 1.378 . S
C1563 C1562 1.367 . S
C1563 C1571 1.433 . S
C1564 H1560 0.929 . S
C1564 C1566 1.378 . S
C1564 C1568 1.350 . S
C1565 C1568 1.463 . S
C1565 C1570 1.350 . S
C1565 N1573 1.427 . S
C1566 H1557 0.930 . S
C1566 C1564 1.378 . S
C1566 C1567 1.367 . S
C1567 C1566 1.367 . S
C1567 C1569 1.433 . S
C1568 C1564 1.350 . S
C1568 C1565 1.463 . S
C1568 N1572 1.427 . S
C1569 H1559 0.929 . S
C1569 C1567 1.433 . S
C1569 N1572 1.384 . S
C1570 H1561 0.929 . S
C1570 C1562 1.378 . S
C1570 C1565 1.350 . S
C1571 H1558 0.929 . S
C1571 C1563 1.433 . S
C1571 N1573 1.384 . S
N1572 C1568 1.427 . S
N1572 C1569 1.384 . S
N1573 C1565 1.427 . S
N1573 C1571 1.384 . S
H1574 C1580 0.930 . S
H1575 C1584 0.930 . S
H1576 C1589 0.929 . S
H1577 C1587 0.929 . S
H1578 C1582 0.929 . S
H1579 C1588 0.929 . S
C1580 H1574 0.930 . S
C1580 C1581 1.367 . S
C1580 C1588 1.378 . S
C1581 C1580 1.367 . S
C1581 C1589 1.433 . S
C1582 H1578 0.929 . S
C1582 C1584 1.378 . S
C1582 C1586 1.350 . S
C1583 C1586 1.463 . S
C1583 C1588 1.350 . S
C1583 N1591 1.427 . S
C1584 H1575 0.930 . S
C1584 C1582 1.378 . S
C1584 C1585 1.367 . S
C1585 C1584 1.367 . S
C1585 C1587 1.433 . S
C1586 C1582 1.350 . S
C1586 C1583 1.463 . S
C1586 N1590 1.427 . S
C1587 H1577 0.929 . S
C1587 C1585 1.433 . S
C1587 N1590 1.384 . S
C1588 H1579 0.929 . S
C1588 C1580 1.378 . S
C1588 C1583 1.350 . S
C1589 H1576 0.929 . S
C1589 C1581 1.433 . S
C1589 N1591 1.384 . S
N1590 C1586 1.427 . S
N1590 C1587 1.384 . S
N1591 C1583 1.427 . S
N1591 C1589 1.384 . S
H1592 C1598 0.930 . S
H1593 C1602 0.930 . S
H1594 C1607 0.929 . S
H1595 C1605 0.929 . S
H1596 C1600 0.929 . S
H1597 C1606 0.929 . S
C1598 H1592 0.930 . S
C1598 C1599 1.367 . S
C1598 C1606 1.378 . S
C1599 C1598 1.367 . S
C1599 C1607 1.433 . S
C1600 H1596 0.929 . S
C1600 C1602 1.378 . S
C1600 C1604 1.350 . S
C1601 C1604 1.463 . S
C1601 C1606 1.350 . S
C1601 N1609 1.427 . S
C1602 H1593 0.930 . S
C1602 C1600 1.378 . S
C1602 C1603 1.367 . S
C1603 C1602 1.367 . S
C1603 C1605 1.433 . S
C1604 C1600 1.350 . S
C1604 C1601 1.463 . S
C1604 N1608 1.427 . S
C1605 H1595 0.929 . S
C1605 C1603 1.433 . S
C1605 N1608 1.384 . S
C1606 H1597 0.929 . S
C1606 C1598 1.378 . S
C1606 C1601 1.350 . S
C1607 H1594 0.929 . S
C1607 C1599 1.433 . S
C1607 N1609 1.384 . S
N1608 C1604 1.427 . S
N1608 C1605 1.384 . S
N1609 C1601 1.427 . S
N1609 C1607 1.384 . S
H1610 C1616 0.930 . S
H1611 C1620 0.930 . S
H1612 C1625 0.929 . S
H1613 C1623 0.929 . S
H1614 C1618 0.929 . S
H1615 C1624 0.929 . S
C1616 H1610 0.930 . S
C1616 C1617 1.367 . S
C1616 C1624 1.378 . S
C1617 C1616 1.367 . S
C1617 C1625 1.433 . S
C1618 H1614 0.929 . S
C1618 C1620 1.378 . S
C1618 C1622 1.350 . S
C1619 C1622 1.463 . S
C1619 C1624 1.350 . S
C1619 N1627 1.427 . S
C1620 H1611 0.930 . S
C1620 C1618 1.378 . S
C1620 C1621 1.367 . S
C1621 C1620 1.367 . S
C1621 C1623 1.433 . S
C1622 C1618 1.350 . S
C1622 C1619 1.463 . S
C1622 N1626 1.427 . S
C1623 H1613 0.929 . S
C1623 C1621 1.433 . S
C1623 N1626 1.384 . S
C1624 H1615 0.929 . S
C1624 C1616 1.378 . S
C1624 C1619 1.350 . S
C1625 H1612 0.929 . S
C1625 C1617 1.433 . S
C1625 N1627 1.384 . S
N1626 C1622 1.427 . S
N1626 C1623 1.384 . S
N1627 C1619 1.427 . S
N1627 C1625 1.384 . S
H1628 C1634 0.930 . S
H1629 C1638 0.930 . S
H1630 C1643 0.929 . S
H1631 C1641 0.929 . S
H1632 C1636 0.929 . S
H1633 C1642 0.929 . S
C1634 H1628 0.930 . S
C1634 C1635 1.367 . S
C1634 C1642 1.378 . S
C1635 C1634 1.367 . S
C1635 C1643 1.433 . S
C1636 H1632 0.929 . S
C1636 C1638 1.378 . S
C1636 C1640 1.350 . S
C1637 C1640 1.463 . S
C1637 C1642 1.350 . S
C1637 N1645 1.427 . S
C1638 H1629 0.930 . S
C1638 C1636 1.378 . S
C1638 C1639 1.367 . S
C1639 C1638 1.367 . S
C1639 C1641 1.433 . S
C1640 C1636 1.350 . S
C1640 C1637 1.463 . S
C1640 N1644 1.427 . S
C1641 H1631 0.929 . S
C1641 C1639 1.433 . S
C1641 N1644 1.384 . S
C1642 H1633 0.929 . S
C1642 C1634 1.378 . S
C1642 C1637 1.350 . S
C1643 H1630 0.929 . S
C1643 C1635 1.433 . S
C1643 N1645 1.384 . S
N1644 C1640 1.427 . S
N1644 C1641 1.384 . S
N1645 C1637 1.427 . S
N1645 C1643 1.384 . S
H1646 C1652 0.930 . S
H1647 C1656 0.928 . S
H1648 C1661 0.929 . S
H1649 C1659 0.929 . S
H1650 C1654 0.929 . S
H1651 C1660 0.929 . S
C1652 H1646 0.930 . S
C1652 C1653 1.367 . S
C1652 C1660 1.378 . S
C1653 C1652 1.367 . S
C1653 C1661 1.433 1_565 S
C1654 H1650 0.929 . S
C1654 C1656 1.377 . S
C1654 C1658 1.350 1_545 S
C1655 C1658 1.463 . S
C1655 C1660 1.350 . S
C1655 N1663 1.427 1_565 S
C1656 H1647 0.928 . S
C1656 C1654 1.377 . S
C1656 C1657 1.370 1_545 S
C1657 C1656 1.370 1_565 S
C1657 C1659 1.433 . S
C1658 C1654 1.350 1_565 S
C1658 C1655 1.463 . S
C1658 N1662 1.427 . S
C1659 H1649 0.929 . S
C1659 C1657 1.433 . S
C1659 N1662 1.384 . S
C1660 H1651 0.929 . S
C1660 C1652 1.378 . S
C1660 C1655 1.350 . S
C1661 H1648 0.929 . S
C1661 C1653 1.433 1_545 S
C1661 N1663 1.384 . S
N1662 C1658 1.427 . S
N1662 C1659 1.384 . S
N1663 C1655 1.427 1_545 S
N1663 C1661 1.384 . S
H1664 C1670 0.930 . S
H1665 C1674 0.930 . S
H1666 C1679 0.929 . S
H1667 C1677 0.929 . S
H1668 C1672 0.929 . S
H1669 C1678 0.929 . S
C1670 H1664 0.930 . S
C1670 C1671 1.367 . S
C1670 C1678 1.378 . S
C1671 C1670 1.367 . S
C1671 C1679 1.433 . S
C1672 H1668 0.929 . S
C1672 C1674 1.378 . S
C1672 C1676 1.350 . S
C1673 C1676 1.463 . S
C1673 C1678 1.350 . S
C1673 N1681 1.427 . S
C1674 H1665 0.930 . S
C1674 C1672 1.378 . S
C1674 C1675 1.367 . S
C1675 C1674 1.367 . S
C1675 C1677 1.433 . S
C1676 C1672 1.350 . S
C1676 C1673 1.463 . S
C1676 N1680 1.427 . S
C1677 H1667 0.929 . S
C1677 C1675 1.433 . S
C1677 N1680 1.384 . S
C1678 H1669 0.929 . S
C1678 C1670 1.378 . S
C1678 C1673 1.350 . S
C1679 H1666 0.929 . S
C1679 C1671 1.433 . S
C1679 N1681 1.384 . S
N1680 C1676 1.427 . S
N1680 C1677 1.384 . S
N1681 C1673 1.427 . S
N1681 C1679 1.384 . S
H1682 C1688 0.941 . S
H1683 C1692 0.930 . S
H1684 C1697 0.929 . S
H1685 C1695 0.929 . S
H1686 C1690 0.929 . S
H1687 C1696 0.929 . S
C1688 H1682 0.941 . S
C1688 C1689 1.355 1_565 S
C1688 C1696 1.378 . S
C1689 C1688 1.355 1_545 S
C1689 C1697 1.433 . S
C1690 H1686 0.929 . S
C1690 C1692 1.378 . S
C1690 C1694 1.350 . S
C1691 C1694 1.463 . S
C1691 C1696 1.350 1_545 S
C1691 N1699 1.427 . S
C1692 H1683 0.930 . S
C1692 C1690 1.378 . S
C1692 C1693 1.367 . S
C1693 C1692 1.367 . S
C1693 C1695 1.433 1_545 S
C1694 C1690 1.350 . S
C1694 C1691 1.463 . S
C1694 N1698 1.427 1_545 S
C1695 H1685 0.929 . S
C1695 C1693 1.433 1_565 S
C1695 N1698 1.384 . S
C1696 H1687 0.929 . S
C1696 C1688 1.378 . S
C1696 C1691 1.350 1_565 S
C1697 H1684 0.929 . S
C1697 C1689 1.433 . S
C1697 N1699 1.384 . S
N1698 C1694 1.427 1_565 S
N1698 C1695 1.384 . S
N1699 C1691 1.427 . S
N1699 C1697 1.384 . S
H1700 C1706 0.930 . S
H1701 C1710 0.930 . S
H1702 C1715 0.929 . S
H1703 C1713 0.929 . S
H1704 C1708 0.929 . S
H1705 C1714 0.929 . S
C1706 H1700 0.930 . S
C1706 C1707 1.367 . S
C1706 C1714 1.378 . S
C1707 C1706 1.367 . S
C1707 C1715 1.433 . S
C1708 H1704 0.929 . S
C1708 C1710 1.378 . S
C1708 C1712 1.350 . S
C1709 C1712 1.463 . S
C1709 C1714 1.350 . S
C1709 N1717 1.427 . S
C1710 H1701 0.930 . S
C1710 C1708 1.378 . S
C1710 C1711 1.367 . S
C1711 C1710 1.367 . S
C1711 C1713 1.433 . S
C1712 C1708 1.350 . S
C1712 C1709 1.463 . S
C1712 N1716 1.427 . S
C1713 H1703 0.929 . S
C1713 C1711 1.433 . S
C1713 N1716 1.384 . S
C1714 H1705 0.929 . S
C1714 C1706 1.378 . S
C1714 C1709 1.350 . S
C1715 H1702 0.929 . S
C1715 C1707 1.433 . S
C1715 N1717 1.384 . S
N1716 C1712 1.427 . S
N1716 C1713 1.384 . S
N1717 C1709 1.427 . S
N1717 C1715 1.384 . S
H1718 C1724 0.930 . S
H1719 C1728 0.930 1_554 S
H1720 C1733 0.929 . S
H1721 C1731 0.929 . S
H1722 C1726 0.929 1_554 S
H1723 C1732 0.929 . S
C1724 H1718 0.930 . S
C1724 C1725 1.367 . S
C1724 C1732 1.378 . S
C1725 C1724 1.367 . S
C1725 C1733 1.433 1_556 S
C1726 H1722 0.929 1_556 S
C1726 C1728 1.378 . S
C1726 C1730 1.350 . S
C1727 C1730 1.463 . S
C1727 C1732 1.350 . S
C1727 N1735 1.427 1_556 S
C1728 H1719 0.930 1_556 S
C1728 C1726 1.378 . S
C1728 C1729 1.367 . S
C1729 C1728 1.367 . S
C1729 C1731 1.433 . S
C1730 C1726 1.350 . S
C1730 C1727 1.463 . S
C1730 N1734 1.427 . S
C1731 H1721 0.929 . S
C1731 C1729 1.433 . S
C1731 N1734 1.384 . S
C1732 H1723 0.929 . S
C1732 C1724 1.378 . S
C1732 C1727 1.350 . S
C1733 H1720 0.929 . S
C1733 C1725 1.433 1_554 S
C1733 N1735 1.384 . S
N1734 C1730 1.427 . S
N1734 C1731 1.384 . S
N1735 C1727 1.427 1_554 S
N1735 C1733 1.384 . S
H1736 C1742 0.930 1_554 S
H1737 C1746 0.930 . S
H1738 C1751 0.929 . S
H1739 C1749 0.929 . S
H1740 C1744 0.929 . S
H1741 C1750 0.929 . S
C1742 H1736 0.930 1_556 S
C1742 C1743 1.367 . S
C1742 C1750 1.378 . S
C1743 C1742 1.367 . S
C1743 C1751 1.433 . S
C1744 H1740 0.929 . S
C1744 C1746 1.378 . S
C1744 C1748 1.350 . S
C1745 C1748 1.463 . S
C1745 C1750 1.350 . S
C1745 N1753 1.427 . S
C1746 H1737 0.930 . S
C1746 C1744 1.378 . S
C1746 C1747 1.367 . S
C1747 C1746 1.367 . S
C1747 C1749 1.433 . S
C1748 C1744 1.350 . S
C1748 C1745 1.463 . S
C1748 N1752 1.427 . S
C1749 H1739 0.929 . S
C1749 C1747 1.433 . S
C1749 N1752 1.384 . S
C1750 H1741 0.929 . S
C1750 C1742 1.378 . S
C1750 C1745 1.350 . S
C1751 H1738 0.929 . S
C1751 C1743 1.433 . S
C1751 N1753 1.384 . S
N1752 C1748 1.427 . S
N1752 C1749 1.384 . S
N1753 C1745 1.427 . S
N1753 C1751 1.384 . S
H1754 C1760 0.930 . S
H1755 C1764 0.930 1_556 S
H1756 C1769 0.929 1_556 S
H1757 C1767 0.929 . S
H1758 C1762 0.929 1_556 S
H1759 C1768 0.929 . S
C1760 H1754 0.930 . S
C1760 C1761 1.367 . S
C1760 C1768 1.378 . S
C1761 C1760 1.367 . S
C1761 C1769 1.433 . S
C1762 H1758 0.929 1_554 S
C1762 C1764 1.378 . S
C1762 C1766 1.350 . S
C1763 C1766 1.463 . S
C1763 C1768 1.350 . S
C1763 N1771 1.427 . S
C1764 H1755 0.930 1_554 S
C1764 C1762 1.378 . S
C1764 C1765 1.367 . S
C1765 C1764 1.367 . S
C1765 C1767 1.433 . S
C1766 C1762 1.350 . S
C1766 C1763 1.463 . S
C1766 N1770 1.427 . S
C1767 H1757 0.929 . S
C1767 C1765 1.433 . S
C1767 N1770 1.384 . S
C1768 H1759 0.929 . S
C1768 C1760 1.378 . S
C1768 C1763 1.350 . S
C1769 H1756 0.929 1_554 S
C1769 C1761 1.433 . S
C1769 N1771 1.384 . S
N1770 C1766 1.427 . S
N1770 C1767 1.384 . S
N1771 C1763 1.427 . S
N1771 C1769 1.384 . S
C915 C22 1.715 . S
C919 C704 1.721 1_545 S
C937 C767 2.015 . S
C933 C38 2.022 . S
C955 C644 1.932 1_565 S
C951 C75 1.916 . S
C969 C91 1.806 . S
C973 C678 1.806 . S
C987 C128 1.840 . S
C991 C882 1.846 . S
C1005 C197 1.177 . S
C1009 C853 1.170 . S
C1027 C776 2.001 . S
C1023 C144 2.048 . S
C1041 C181 1.511 . S
C1045 C810 1.496 . S
C1063 C699 2.014 . S
C1059 C234 2.037 . S
C1081 C742 1.469 . S
C1077 C303 1.474 . S
C1095 C356 2.041 . S
C1099 C721 2.023 1_655 S
C1113 C287 1.721 . S
C1117 C835 1.724 . S
C1135 C840 1.634 . S
C1131 C393 1.617 . S
C1153 C903 2.062 1_565 S
C1149 C409 2.084 . S
C1167 C462 2.069 . S
C1171 C814 2.075 . S
C1189 C780 1.664 1_545 S
C1185 C446 1.661 . S
C1203 C499 1.821 . S
C1207 C746 1.813 . S
C1221 C552 1.118 . S
C1225 C717 1.119 . S
C1243 C674 1.973 . S
C1239 C515 2.034 . S
C1257 C568 1.646 . S
C1261 C640 1.632 . S
C1279 C801 2.079 . S
C1275 C340 2.094 . S
C1297 C878 1.445 . S
C1293 C621 1.458 . S
C1311 C250 1.955 . S
C1315 C857 1.916 . S
C1329 C605 1.614 . S
C1333 C665 1.604 . S
C1351 C649 1.058 . S
C1347 C39 1.063 . S
C1365 C29 0.890 . S
C1369 C683 0.886 1_455 S
C1387 C708 1.046 . S
C1383 C92 1.064 . S
C1405 C755 1.780 . S
C1401 C82 1.742 . S
C1419 C145 1.537 . S
C1423 C636 1.532 . S
C1437 C188 1.268 . S
C1441 C670 1.271 . S
C1459 C712 1.352 . S
C1455 C135 1.354 . S
C1473 C198 0.936 . S
C1477 C751 0.914 . S
C1491 C251 1.691 . S
C1495 C653 1.683 . S
C1513 C733 1.449 . S
C1509 C294 1.469 . S
C1527 C347 1.438 . S
C1531 C738 1.462 . S
C1545 C304 1.662 . S
C1549 C789 1.670 . S
C1567 C819 1.135 . S
C1563 C410 1.142 . S
C1581 C400 0.880 . S
C1585 C785 0.895 . S
C1599 C453 0.800 . S
C1603 C844 0.795 . S
C1617 C463 2.051 . S
C1621 C891 2.050 . S
C1635 C516 1.576 . S
C1639 C806 1.581 . S
C1657 C772 1.582 . S
C1653 C569 1.574 . S
C1671 C506 1.271 . S
C1675 C848 1.255 . S
C1693 C887 0.642 . S
C1689 C559 0.635 . S
C1711 C823 1.657 . S
C1707 C357 1.656 . S
C1729 C869 1.396 . S
C1725 C612 1.406 . S
C1747 C874 1.415 . S
C1743 C241 1.390 . S
C1761 C622 1.563 . S
C1765 C687 1.560 . S
