# Generated by pormake.
# Topology anh, (6,3)-cn, num edge types: 1
# Building blocks:
#     Node 0, Type 0, BuildingBlock: VOLQOD_clean_sbu_1, # of connection points: 6
#     Node 1, Type 0, BuildingBlock: VOLQOD_clean_sbu_1, # of connection points: 6
#     Node 2, Type 0, BuildingBlock: VOLQOD_clean_sbu_1, # of connection points: 6
#     Node 3, Type 1, BuildingBlock: WUSLED_clean_sbu_0, # of connection points: 3
#     Node 4, Type 1, BuildingBlock: WUSLED_clean_sbu_0, # of connection points: 3
#     Node 5, Type 1, BuildingBlock: WUSLED_clean_sbu_0, # of connection points: 3
#     Node 6, Type 1, BuildingBlock: WUSLED_clean_sbu_0, # of connection points: 3
#     Node 7, Type 1, BuildingBlock: WUSLED_clean_sbu_0, # of connection points: 3
#     Node 8, Type 1, BuildingBlock: WUSLED_clean_sbu_0, # of connection points: 3
#     Edge 9, Type (0, 1), BuildingBlock: XIVTED_clean_linker_0, # of connection points: 2
#     Edge 10, Type (0, 1), BuildingBlock: XIVTED_clean_linker_0, # of connection points: 2
#     Edge 11, Type (0, 1), BuildingBlock: XIVTED_clean_linker_0, # of connection points: 2
#     Edge 12, Type (0, 1), BuildingBlock: XIVTED_clean_linker_0, # of connection points: 2
#     Edge 13, Type (0, 1), BuildingBlock: XIVTED_clean_linker_0, # of connection points: 2
#     Edge 14, Type (0, 1), BuildingBlock: XIVTED_clean_linker_0, # of connection points: 2
#     Edge 15, Type (0, 1), BuildingBlock: XIVTED_clean_linker_0, # of connection points: 2
#     Edge 16, Type (0, 1), BuildingBlock: XIVTED_clean_linker_0, # of connection points: 2
#     Edge 17, Type (0, 1), BuildingBlock: XIVTED_clean_linker_0, # of connection points: 2
#     Edge 18, Type (0, 1), BuildingBlock: XIVTED_clean_linker_0, # of connection points: 2
#     Edge 19, Type (0, 1), BuildingBlock: XIVTED_clean_linker_0, # of connection points: 2
#     Edge 20, Type (0, 1), BuildingBlock: XIVTED_clean_linker_0, # of connection points: 2
#     Edge 21, Type (0, 1), BuildingBlock: XIVTED_clean_linker_0, # of connection points: 2
#     Edge 22, Type (0, 1), BuildingBlock: XIVTED_clean_linker_0, # of connection points: 2
#     Edge 23, Type (0, 1), BuildingBlock: XIVTED_clean_linker_0, # of connection points: 2
#     Edge 24, Type (0, 1), BuildingBlock: XIVTED_clean_linker_0, # of connection points: 2
#     Edge 25, Type (0, 1), BuildingBlock: XIVTED_clean_linker_0, # of connection points: 2
#     Edge 26, Type (0, 1), BuildingBlock: XIVTED_clean_linker_0, # of connection points: 2
# Relax obj value: 0.164
# Max RMSD: 0.228
# Mean RMSD: 0.110
data_MOF--net-anh--node1-VOLQOD_clean_sbu_1--node2-WUSLED_clean_sbu_0--edge1-XIVTED_clean_linker_0
_symmetry_space_group_name_H-M    P1
_symmetry_Int_Tables_number       1
_symmetry_cell_setting            triclinic
loop_
_symmetry_equiv_pos_as_xyz
'x, y, z'
_cell_length_a     37.090243
_cell_length_b     36.987644
_cell_length_c     79.101286
_cell_angle_alpha  89.7263
_cell_angle_beta   90.097326
_cell_angle_gamma 120.24652
loop_
_atom_site_label
_atom_site_type_symbol
_atom_site_fract_x
_atom_site_fract_y
_atom_site_fract_z
_atom_type_partial_charge
O0 O 0.98242 0.5226 0.20715 0.0
Zn1 Zn 0.98544 0.54211 0.18304 0.0
O2 O 0.99626 0.50727 0.16765 0.0
Zn3 Zn 0.94927 0.47699 0.15273 0.0
Zn4 Zn 0.0049 0.4668 0.18055 0.0
Zn5 Zn 0.04435 0.5427 0.1535 0.0
O6 O 0.96622 0.48304 0.12845 0.0
O7 O 0.03001 0.5385 0.12847 0.0
O8 O 0.93231 0.54256 0.17668 0.0
O9 O 0.91155 0.50046 0.15437 0.0
O10 O 0.916 0.41615 0.15888 0.0
O11 O 0.95512 0.40814 0.17811 0.0
O12 O 0.05851 0.46846 0.17321 0.0
O13 O 0.03412 0.60153 0.18255 0.0
O14 O 0.08549 0.52345 0.15586 0.0
O15 O 0.07387 0.60258 0.16138 0.0
C16 C 0.99473 0.49966 0.21422 0.0
C17 C 0.99816 0.51071 0.12053 0.0
C18 C 0.92207 0.3932 0.16918 0.0
C19 C 0.90739 0.52499 0.16434 0.0
C20 C 0.08775 0.49432 0.16352 0.0
C21 C 0.06666 0.62097 0.17336 0.0
O22 O 0.00724 0.47908 0.20554 0.0
O23 O 0.48592 0.02407 0.46275 0.0
Zn24 Zn 0.47001 0.01802 0.48755 0.0
O25 O 0.50857 0.00749 0.50084 0.0
Zn26 Zn 0.54122 0.05335 0.51615 0.0
Zn27 Zn 0.54639 1.00031 0.48579 0.0
Zn28 Zn 0.4768 0.95776 0.51453 0.0
O29 O 0.53309 0.03512 0.54064 0.0
O30 O 0.47867 0.97068 0.53934 0.0
O31 O 0.47044 0.07073 0.49551 0.0
O32 O 0.52255 0.09496 0.51404 0.0
O33 O 0.60204 0.08437 0.51 0.0
O34 O 0.60496 0.05059 0.4874 0.0
O35 O 0.54823 0.94752 0.49162 0.0
O36 O 0.41142 0.96762 0.48862 0.0
O37 O 0.50222 0.92164 0.51268 0.0
O38 O 0.41736 0.92441 0.50649 0.0
C39 C 0.50729 0.01216 0.45427 0.0
C40 C 0.50499 0.00203 0.5479 0.0
C41 C 0.62244 0.08078 0.49783 0.0
C42 C 0.49485 0.09857 0.50596 0.0
C43 C 0.52916 0.92029 0.50318 0.0
C44 C 0.39568 0.93245 0.49628 0.0
O45 O 0.52907 0.99879 0.46154 0.0
O46 O 0.47905 0.49375 0.79565 0.0
Zn47 Zn 0.46808 0.47702 0.82031 0.0
O48 O 0.51723 0.51486 0.83378 0.0
Zn49 Zn 0.50455 0.54722 0.84945 0.0
Zn50 Zn 0.56313 0.55326 0.81897 0.0
Zn51 Zn 0.53387 0.48184 0.84715 0.0
O52 O 0.51208 0.53637 0.87399 0.0
O53 O 0.52145 0.48189 0.87184 0.0
O54 O 0.41625 0.47846 0.82806 0.0
O55 O 0.44485 0.53023 0.84674 0.0
O56 O 0.53622 0.60874 0.84395 0.0
O57 O 0.57282 0.61205 0.82125 0.0
O58 O 0.61717 0.55403 0.82476 0.0
O59 O 0.45822 0.41788 0.82108 0.0
O60 O 0.59552 0.5071 0.84561 0.0
O61 O 0.5069 0.42261 0.8388 0.0
C62 C 0.51237 0.5163 0.7872 0.0
C63 C 0.51602 0.50724 0.88081 0.0
C64 C 0.56066 0.6295 0.83186 0.0
C65 C 0.41343 0.50325 0.83843 0.0
C66 C 0.62448 0.53433 0.83629 0.0
C67 C 0.47699 0.40148 0.8286 0.0
O68 O 0.54749 0.53823 0.79452 0.0
C69 C 0.57822 0.07056 0.21103 0.0
C70 C 0.6139 0.07474 0.2191 0.0
C71 C 0.65881 0.13248 0.20027 0.0
C72 C 0.65376 0.1052 0.21371 0.0
C73 C 0.62289 0.12793 0.19219 0.0
C74 C 0.58307 0.09721 0.19749 0.0
U75 U 0.50055 0.01521 0.24665 0.0
O76 O 0.45212 0.9494 0.25023 0.0
O77 O 0.43457 0.99791 0.24905 0.0
C78 C 0.42154 0.95764 0.24954 0.0
C79 C 0.53585 0.03975 0.21689 0.0
C80 C 0.38588 0.93078 0.23847 0.0
C81 C 0.35281 0.87655 0.21714 0.0
C82 C 0.38823 0.90438 0.22635 0.0
C83 C 0.3126 0.90222 0.23151 0.0
C84 C 0.31435 0.87464 0.2198 0.0
C85 C 0.34793 0.92983 0.24078 0.0
C86 C 0.53692 0.04353 0.29234 0.0
C87 C 0.50576 0.99904 0.31701 0.0
C88 C 0.54921 0.07408 0.32038 0.0
C89 C 0.5554 0.07866 0.30289 0.0
C90 C 0.52467 0.03417 0.32764 0.0
C91 C 0.51161 0.00369 0.29951 0.0
C92 C 0.54478 0.04901 0.27399 0.0
O93 O 0.5319 0.00656 0.2248 0.0
O94 O 0.51519 0.05569 0.22419 0.0
O95 O 0.52548 0.06526 0.26574 0.0
O96 O 0.54406 0.0175 0.26605 0.0
H97 H 0.61105 0.0547 0.22966 0.0
H98 H 0.6806 0.10733 0.2201 0.0
H99 H 0.62538 0.14878 0.18203 0.0
H100 H 0.55596 0.09471 0.19117 0.0
H101 H 0.35529 0.8555 0.20838 0.0
H102 H 0.41711 0.90445 0.22426 0.0
H103 H 0.28377 0.9022 0.23368 0.0
H104 H 0.34539 0.94996 0.25003 0.0
H105 H 0.48627 0.96797 0.32223 0.0
H106 H 0.56444 0.10166 0.32826 0.0
H107 H 0.57496 0.10965 0.2976 0.0
H108 H 0.4966 0.97611 0.2916 0.0
C109 C 0.51195 0.58031 0.54443 0.0
C110 C 0.50492 0.60639 0.55503 0.0
C111 C 0.53052 0.66036 0.5332 0.0
C112 C 0.51387 0.64588 0.54944 0.0
C113 C 0.53738 0.63398 0.52257 0.0
C114 C 0.52819 0.59423 0.52817 0.0
U115 U 0.49358 0.5081 0.58122 0.0
O116 O 0.45081 0.44052 0.58465 0.0
O117 O 0.51854 0.46666 0.58692 0.0
C118 C 0.48158 0.4327 0.58614 0.0
C119 C 0.50377 0.53939 0.55063 0.0
C120 C 0.47941 0.39906 0.57554 0.0
C121 C 0.45761 0.3565 0.55009 0.0
C122 C 0.45755 0.38757 0.56013 0.0
C123 C 0.50137 0.34831 0.57074 0.0
C124 C 0.48004 0.33704 0.55522 0.0
C125 C 0.50092 0.37891 0.58081 0.0
C126 C 0.4968 0.5489 0.62562 0.0
C127 C 0.48245 0.50498 0.65052 0.0
C128 C 0.51356 0.58004 0.65353 0.0
C129 C 0.51252 0.58419 0.636 0.0
C130 C 0.4988 0.54042 0.66099 0.0
C131 C 0.48165 0.50921 0.63295 0.0
C132 C 0.49844 0.55425 0.60717 0.0
O133 O 0.53431 0.54047 0.55947 0.0
O134 O 0.46688 0.51583 0.55757 0.0
O135 O 0.46347 0.53034 0.599 0.0
O136 O 0.53125 0.55636 0.59991 0.0
H137 H 0.49257 0.59622 0.56766 0.0
H138 H 0.50734 0.6649 0.55785 0.0
H139 H 0.55047 0.64427 0.51006 0.0
H140 H 0.5341 0.57455 0.51989 0.0
H141 H 0.4411 0.34847 0.53815 0.0
H142 H 0.44091 0.40291 0.55574 0.0
H143 H 0.51845 0.33341 0.5751 0.0
H144 H 0.51788 0.38726 0.59266 0.0
H145 H 0.47128 0.47411 0.65586 0.0
H146 H 0.52587 0.60786 0.66126 0.0
H147 H 0.52447 0.61507 0.63052 0.0
H148 H 0.46979 0.48164 0.62508 0.0
C149 C 0.95306 0.52825 0.87697 0.0
C150 C 0.91948 0.52011 0.88753 0.0
C151 C 0.88981 0.5434 0.86547 0.0
C152 C 0.88807 0.52734 0.88182 0.0
C153 C 0.92365 0.55157 0.85491 0.0
C154 C 0.95504 0.54405 0.86064 0.0
U155 U 0.00937 0.51349 0.91371 0.0
O156 O 0.03349 0.47059 0.91747 0.0
O157 O 0.07621 0.53859 0.91856 0.0
C158 C 0.07245 0.50132 0.91833 0.0
C159 C 0.98637 0.5212 0.88317 0.0
C160 C 0.1028 0.49767 0.9076 0.0
C161 C 0.12141 0.47452 0.88201 0.0
C162 C 0.09133 0.47626 0.89211 0.0
C163 C 0.17446 0.51565 0.90276 0.0
C164 C 0.16335 0.49469 0.88717 0.0
C165 C 0.14444 0.51701 0.91288 0.0
C166 C 0.97435 0.51822 0.95836 0.0
C167 C 0.01474 0.52028 0.98294 0.0
C168 C 0.94681 0.51371 0.98657 0.0
C169 C 0.94261 0.51457 0.96904 0.0
C170 C 0.98294 0.51659 0.99373 0.0
C171 C 0.01041 0.52094 0.96538 0.0
C172 C 0.96968 0.51956 0.93997 0.0
O173 O 0.01626 0.55267 0.89153 0.0
O174 O 0.97353 0.4848 0.89058 0.0
O175 O 0.95768 0.48415 0.93202 0.0
O176 O 0.00026 0.55212 0.93227 0.0
H177 H 0.91751 0.50805 0.90022 0.0
H178 H 0.86212 0.51982 0.89018 0.0
H179 H 0.92617 0.56428 0.84232 0.0
H180 H 0.98097 0.55078 0.85237 0.0
H181 H 0.11212 0.45837 0.87002 0.0
H182 H 0.05933 0.46131 0.88773 0.0
H183 H 0.20647 0.531 0.90714 0.0
H184 H 0.15385 0.53358 0.9248 0.0
H185 H 0.0427 0.52207 0.98805 0.0
H186 H 0.92198 0.51135 0.99454 0.0
H187 H 0.91464 0.51255 0.96381 0.0
H188 H 0.03518 0.52361 0.95728 0.0
C189 C 0.94611 0.42709 0.45729 0.0
C190 C 0.94012 0.39151 0.44855 0.0
C191 C 0.88305 0.34625 0.4675 0.0
C192 C 0.90913 0.35153 0.45367 0.0
C193 C 0.88948 0.38206 0.4763 0.0
C194 C 0.92075 0.42202 0.47125 0.0
U195 U 0.00149 0.50344 0.42145 0.0
O196 O 0.01904 0.56945 0.41808 0.0
O197 O 0.06721 0.55158 0.41762 0.0
C198 C 0.05914 0.58234 0.41737 0.0
C199 C 0.97712 0.46958 0.45149 0.0
C200 C 0.08646 0.61861 0.4279 0.0
C201 C 0.11472 0.65016 0.4552 0.0
C202 C 0.08679 0.6155 0.44557 0.0
C203 C 0.14157 0.69129 0.42955 0.0
C204 C 0.14271 0.68842 0.44728 0.0
C205 C 0.11371 0.65673 0.41999 0.0
C206 C 0.97178 0.46306 0.37633 0.0
C207 C 0.99761 0.50889 0.35177 0.0
C208 C 0.95829 0.43364 0.34811 0.0
C209 C 0.95421 0.42826 0.36564 0.0
C210 C 0.97998 0.47402 0.34096 0.0
C211 C 0.99366 0.50345 0.36933 0.0
C212 C 0.96717 0.4567 0.39471 0.0
O213 O 0.01029 0.47328 0.44383 0.0
O214 O 0.96145 0.49023 0.44385 0.0
O215 O 0.95117 0.47659 0.40259 0.0
O216 O 0.99947 0.45894 0.40257 0.0
H217 H 0.95908 0.39457 0.43763 0.0
H218 H 0.90559 0.32477 0.44673 0.0
H219 H 0.86964 0.37941 0.48681 0.0
H220 H 0.9246 0.44909 0.47807 0.0
H221 H 0.11446 0.64696 0.46882 0.0
H222 H 0.06584 0.58622 0.45188 0.0
H223 H 0.16308 0.7199 0.42298 0.0
H224 H 0.11397 0.65958 0.40634 0.0
H225 H 0.0149 0.54036 0.34668 0.0
H226 H 0.94391 0.40618 0.34014 0.0
H227 H 0.93721 0.39688 0.37085 0.0
H228 H 0.00766 0.53069 0.37744 0.0
C229 C 0.53164 0.94797 0.79156 0.0
C230 C 0.56216 0.94317 0.78304 0.0
C231 C 0.55153 0.88711 0.80242 0.0
C232 C 0.57217 0.91323 0.78847 0.0
C233 C 0.5211 0.89226 0.81093 0.0
C234 C 0.5114 0.92245 0.80558 0.0
U235 U 0.50731 0.0022 0.75604 0.0
O236 O 0.45813 0.01889 0.75402 0.0
O237 O 0.52422 0.06774 0.75237 0.0
C238 C 0.4853 0.05922 0.7533 0.0
C239 C 0.51955 0.97834 0.78573 0.0
C240 C 0.47702 0.08642 0.76431 0.0
C241 C 0.50004 0.14266 0.7848 0.0
C242 C 0.50687 0.11408 0.77589 0.0
C243 C 0.43268 0.11523 0.77129 0.0
C244 C 0.46315 0.1441 0.78241 0.0
C245 C 0.43966 0.08686 0.7623 0.0
C246 C 0.51455 0.97405 0.71002 0.0
C247 C 0.54882 0.00232 0.68298 0.0
C248 C 0.47365 0.95835 0.68415 0.0
C249 C 0.47582 0.95409 0.70165 0.0
C250 C 0.51013 0.98253 0.67461 0.0
C251 C 0.551 0.99797 0.70046 0.0
C252 C 0.51747 0.96901 0.7285 0.0
O253 O 0.5484 0.01154 0.77766 0.0
O254 O 0.48257 0.96189 0.77861 0.0
O255 O 0.48233 0.95198 0.73711 0.0
O256 O 0.54836 1.00089 0.73633 0.0
H257 H 0.57812 0.96234 0.77211 0.0
H258 H 0.59613 0.91063 0.78173 0.0
H259 H 0.50396 0.87229 0.82151 0.0
H260 H 0.48754 0.92544 0.81225 0.0
H261 H 0.52445 0.16468 0.79308 0.0
H262 H 0.53602 0.11451 0.77773 0.0
H263 H 0.40361 0.11488 0.76935 0.0
H264 H 0.41616 0.06582 0.75345 0.0
H265 H 0.57758 0.02056 0.67599 0.0
H266 H 0.44332 0.94294 0.67812 0.0
H267 H 0.4471 0.93506 0.70857 0.0
H268 H 0.58137 0.01317 0.70647 0.0
C269 C 0.56402 0.50166 0.12427 0.0
C270 C 0.58947 0.49336 0.11383 0.0
C271 C 0.64313 0.51859 0.13561 0.0
C272 C 0.62851 0.50151 0.11947 0.0
C273 C 0.61732 0.5266 0.14609 0.0
C274 C 0.57805 0.51821 0.14043 0.0
U275 U 0.4925 0.48555 0.08752 0.0
O276 O 0.42478 0.4444 0.08438 0.0
O277 O 0.45279 0.51259 0.08207 0.0
C278 C 0.41822 0.47609 0.083 0.0
C279 C 0.52373 0.49468 0.11801 0.0
C280 C 0.38539 0.47501 0.0938 0.0
C281 C 0.34217 0.45264 0.11913 0.0
C282 C 0.37268 0.45188 0.10897 0.0
C283 C 0.33704 0.49969 0.09914 0.0
C284 C 0.32447 0.47698 0.11439 0.0
C285 C 0.36709 0.49858 0.08894 0.0
C286 C 0.53128 0.48695 0.0429 0.0
C287 C 0.49359 0.48968 0.01824 0.0
C288 C 0.55596 0.48489 0.01473 0.0
C289 C 0.56016 0.48455 0.03229 0.0
C290 C 0.52279 0.48778 0.00749 0.0
C291 C 0.49776 0.48918 0.0358 0.0
C292 C 0.5372 0.48856 0.0613 0.0
O293 O 0.52591 0.52585 0.10914 0.0
O294 O 0.49946 0.45792 0.11109 0.0
O295 O 0.51261 0.45377 0.06958 0.0
O296 O 0.54078 0.52203 0.06862 0.0
H297 H 0.57921 0.48074 0.10127 0.0
H298 H 0.64712 0.49414 0.11119 0.0
H299 H 0.62774 0.54005 0.15851 0.0
H300 H 0.55886 0.5251 0.14859 0.0
H301 H 0.33314 0.43502 0.13086 0.0
H302 H 0.38655 0.43362 0.11306 0.0
H303 H 0.32349 0.51825 0.09505 0.0
H304 H 0.37636 0.51652 0.07728 0.0
H305 H 0.46743 0.49139 0.01307 0.0
H306 H 0.57924 0.48387 0.00683 0.0
H307 H 0.58631 0.48297 0.03758 0.0
H308 H 0.47509 0.49094 0.04385 0.0
H309 H 0.09645 0.42456 0.16589 0.0
H310 H 0.32365 0.54715 0.12381 0.0
H311 H 0.16441 0.55655 0.15409 0.0
H312 H 0.2549 0.41292 0.12974 0.0
H313 H 0.26916 0.55137 0.13924 0.0
H314 H 0.15753 0.41983 0.157 0.0
C315 C 0.12436 0.45258 0.16169 0.0
C316 C 0.12521 0.49088 0.16049 0.0
C317 C 0.26592 0.52091 0.13729 0.0
C318 C 0.19475 0.48576 0.15038 0.0
C319 C 0.29701 0.51853 0.12843 0.0
C320 C 0.29339 0.4796 0.12527 0.0
C321 C 0.23057 0.48404 0.14295 0.0
C322 C 0.25872 0.44354 0.13188 0.0
C323 C 0.15908 0.44984 0.15656 0.0
C324 C 0.1621 0.52623 0.15496 0.0
N325 N 0.22828 0.44655 0.14025 0.0
N326 N 0.19516 0.52273 0.15004 0.0
H327 H 0.67386 0.14364 0.51939 0.0
H328 H 0.83258 0.28054 0.44667 0.0
H329 H 0.6695 0.09698 0.46905 0.0
H330 H 0.85384 0.31486 0.49939 0.0
H331 H 0.77384 0.21261 0.45473 0.0
H332 H 0.74074 0.20563 0.51258 0.0
C333 C 0.6872 0.14613 0.50697 0.0
C334 C 0.6658 0.11511 0.49474 0.0
C335 C 0.79157 0.23487 0.46455 0.0
C336 C 0.74222 0.18646 0.48678 0.0
C337 C 0.82536 0.27372 0.45997 0.0
C338 C 0.84836 0.30382 0.47235 0.0
C339 C 0.78021 0.22598 0.48164 0.0
C340 C 0.83668 0.29314 0.48935 0.0
C341 C 0.72543 0.1816 0.50309 0.0
C342 C 0.68479 0.12005 0.47888 0.0
N343 N 0.80329 0.25529 0.49347 0.0
N344 N 0.72163 0.15531 0.47529 0.0
H345 H 0.59559 0.67826 0.80364 0.0
H346 H 0.55399 0.85981 0.83465 0.0
H347 H 0.54686 0.67993 0.85299 0.0
H348 H 0.56967 0.83782 0.78231 0.0
H349 H 0.56379 0.8015 0.84277 0.0
H350 H 0.60019 0.74513 0.79712 0.0
C351 C 0.58654 0.69298 0.81323 0.0
C352 C 0.5704 0.67314 0.82885 0.0
C353 C 0.56536 0.80969 0.82952 0.0
C354 C 0.57534 0.74962 0.82137 0.0
C355 C 0.5595 0.84283 0.82484 0.0
C356 C 0.56056 0.8537 0.80771 0.0
C357 C 0.57265 0.78729 0.81703 0.0
C358 C 0.56894 0.83105 0.79566 0.0
C359 C 0.58893 0.73105 0.80944 0.0
C360 C 0.55914 0.69383 0.84074 0.0
N361 N 0.57446 0.79887 0.80054 0.0
N362 N 0.56154 0.73076 0.83671 0.0
H363 H 0.87817 0.53064 0.13375 0.0
H364 H 0.66738 0.50738 0.16727 0.0
H365 H 0.85828 0.53709 0.18709 0.0
H366 H 0.71501 0.55125 0.11699 0.0
H367 H 0.73558 0.51714 0.17535 0.0
H368 H 0.81703 0.53658 0.12764 0.0
C369 C 0.86098 0.53364 0.14419 0.0
C370 C 0.87305 0.53315 0.16094 0.0
C371 C 0.7311 0.52504 0.16262 0.0
C372 C 0.80251 0.53935 0.15405 0.0
C373 C 0.69224 0.51957 0.15799 0.0
C374 C 0.68515 0.5278 0.14132 0.0
C375 C 0.76285 0.53843 0.15045 0.0
C376 C 0.71854 0.5433 0.12983 0.0
C377 C 0.82616 0.53719 0.14069 0.0
C378 C 0.84992 0.53744 0.17399 0.0
N379 N 0.75567 0.54762 0.13456 0.0
N380 N 0.81519 0.53969 0.17029 0.0
H381 H 0.34018 0.9357 0.47411 0.0
H382 H 0.18839 0.68776 0.47454 0.0
H383 H 0.35364 0.85173 0.50822 0.0
H384 H 0.1698 0.77203 0.44266 0.0
H385 H 0.24493 0.74797 0.48889 0.0
H386 H 0.27405 0.87707 0.46432 0.0
C387 C 0.32904 0.90509 0.47971 0.0
C388 C 0.35287 0.89868 0.49191 0.0
C389 C 0.22826 0.75332 0.47885 0.0
C390 C 0.2772 0.8312 0.48059 0.0
C391 C 0.19572 0.71888 0.4707 0.0
C392 C 0.17443 0.72471 0.45723 0.0
C393 C 0.23986 0.79403 0.47347 0.0
C394 C 0.18585 0.76594 0.45273 0.0
C395 C 0.29126 0.87156 0.47407 0.0
C396 C 0.33661 0.85824 0.49872 0.0
N397 N 0.21795 0.79895 0.46072 0.0
N398 N 0.30008 0.82603 0.49284 0.0
H399 H 0.50422 0.35309 0.84408 0.0
H400 H 0.42756 0.18764 0.7692 0.0
H401 H 0.4273 0.3519 0.80281 0.0
H402 H 0.4867 0.17665 0.81446 0.0
H403 H 0.4237 0.24532 0.78205 0.0
H404 H 0.49483 0.28639 0.8343 0.0
C405 C 0.48495 0.33861 0.83307 0.0
C406 C 0.46683 0.35842 0.82418 0.0
C407 C 0.43718 0.23006 0.78925 0.0
C408 C 0.45633 0.28208 0.81279 0.0
C409 C 0.43918 0.19684 0.78194 0.0
C410 C 0.45769 0.17717 0.79069 0.0
C411 C 0.45413 0.24416 0.80539 0.0
C412 C 0.47288 0.19126 0.80707 0.0
C413 C 0.47961 0.30046 0.82749 0.0
C414 C 0.44199 0.33793 0.81005 0.0
N415 N 0.47107 0.22406 0.81382 0.0
N416 N 0.43789 0.30116 0.80468 0.0
H417 H 0.54664 0.87571 0.48008 0.0
H418 H 0.56462 0.73248 0.55171 0.0
H419 H 0.53282 0.88843 0.5335 0.0
H420 H 0.51884 0.68512 0.50169 0.0
H421 H 0.57222 0.7995 0.5434 0.0
H422 H 0.55482 0.81474 0.48627 0.0
C423 C 0.546 0.86605 0.49308 0.0
C424 C 0.5387 0.88669 0.50631 0.0
C425 C 0.56082 0.77451 0.53421 0.0
C426 C 0.54857 0.81815 0.51342 0.0
C427 C 0.55622 0.73613 0.53896 0.0
C428 C 0.5401 0.70268 0.52752 0.0
C429 C 0.54962 0.77982 0.51784 0.0
C430 C 0.53124 0.70993 0.51096 0.0
C431 C 0.55044 0.83132 0.49658 0.0
C432 C 0.53792 0.87301 0.52293 0.0
N433 N 0.53575 0.74767 0.50664 0.0
N434 N 0.54281 0.83967 0.52601 0.0
H435 H 0.65795 0.5367 0.86686 0.0
H436 H 0.85394 0.52989 0.83382 0.0
H437 H 0.6882 0.55308 0.81372 0.0
H438 H 0.84842 0.57418 0.88364 0.0
H439 H 0.79324 0.53565 0.8256 0.0
H440 H 0.72669 0.54659 0.87302 0.0
C441 C 0.67929 0.54262 0.85648 0.0
C442 C 0.66745 0.5439 0.83976 0.0
C443 C 0.80577 0.54456 0.83824 0.0
C444 C 0.74608 0.5547 0.84669 0.0
C445 C 0.84045 0.54139 0.84296 0.0
C446 C 0.85594 0.55082 0.85957 0.0
C447 C 0.78623 0.55672 0.85028 0.0
C448 C 0.83689 0.56531 0.87086 0.0
C449 C 0.7186 0.54848 0.86001 0.0
C450 C 0.69634 0.55199 0.82679 0.0
N451 N 0.80277 0.56724 0.86609 0.0
N452 N 0.73429 0.55643 0.8305 0.0
H453 H 0.06656 0.66813 0.20002 0.0
H454 H 0.30549 0.84599 0.18708 0.0
H455 H 0.14144 0.67215 0.15751 0.0
H456 H 0.23512 0.82927 0.23278 0.0
H457 H 0.24289 0.78883 0.1741 0.0
H458 H 0.12478 0.73431 0.2099 0.0
C459 C 0.09499 0.68316 0.19261 0.0
C460 C 0.09916 0.66416 0.17799 0.0
C461 C 0.24112 0.79795 0.18692 0.0
C462 C 0.16623 0.73996 0.18937 0.0
C463 C 0.27692 0.83045 0.19439 0.0
C464 C 0.27582 0.84242 0.21113 0.0
C465 C 0.20383 0.7772 0.19624 0.0
C466 C 0.23755 0.8216 0.21981 0.0
C467 C 0.12834 0.72093 0.19832 0.0
C468 C 0.13683 0.68536 0.16892 0.0
N469 N 0.20325 0.78992 0.21231 0.0
N470 N 0.16901 0.7219 0.17484 0.0
H471 H 0.42638 0.10906 0.50295 0.0
H472 H 0.54954 0.33449 0.54655 0.0
H473 H 0.55688 0.17404 0.5164 0.0
H474 H 0.41618 0.26875 0.53926 0.0
H475 H 0.55328 0.27964 0.53119 0.0
H476 H 0.4224 0.17065 0.51196 0.0
C477 C 0.45423 0.13643 0.50755 0.0
C478 C 0.49186 0.13629 0.50916 0.0
C479 C 0.52311 0.27712 0.53283 0.0
C480 C 0.48763 0.20637 0.51939 0.0
C481 C 0.52101 0.30842 0.54165 0.0
C482 C 0.48244 0.30573 0.54441 0.0
C483 C 0.48632 0.24246 0.5268 0.0
C484 C 0.44652 0.2718 0.53744 0.0
C485 C 0.45193 0.17142 0.51274 0.0
C486 C 0.52704 0.17248 0.5152 0.0
N487 N 0.44922 0.24109 0.52912 0.0
N488 N 0.52398 0.20582 0.52015 0.0
H489 H 0.40311 0.56855 0.84591 0.0
H490 H 0.16259 0.42874 0.87085 0.0
H491 H 0.33322 0.43536 0.83737 0.0
H492 H 0.23839 0.56179 0.87878 0.0
H493 H 0.22073 0.43033 0.85526 0.0
H494 H 0.33935 0.56669 0.85433 0.0
C495 C 0.3741 0.53884 0.84571 0.0
C496 C 0.37347 0.50195 0.84117 0.0
C497 C 0.22439 0.45918 0.86028 0.0
C498 C 0.29998 0.49937 0.85111 0.0
C499 C 0.19126 0.45831 0.86911 0.0
C500 C 0.19604 0.49511 0.87632 0.0
C501 C 0.26226 0.49717 0.85861 0.0
C502 C 0.23372 0.53257 0.87373 0.0
C503 C 0.3376 0.53776 0.85052 0.0
C504 C 0.33494 0.46446 0.84085 0.0
N505 N 0.26535 0.53255 0.86521 0.0
N506 N 0.29965 0.46397 0.84604 0.0
H507 H 0.85573 0.34528 0.14854 0.0
H508 H 0.72703 0.18022 0.22044 0.0
H509 H 0.90995 0.34226 0.19647 0.0
H510 H 0.68752 0.16282 0.16825 0.0
H511 H 0.79458 0.23871 0.21188 0.0
H512 H 0.79443 0.27776 0.15529 0.0
C513 C 0.85498 0.33016 0.1604 0.0
C514 C 0.88793 0.34963 0.17201 0.0
C515 C 0.77125 0.22182 0.20229 0.0
C516 C 0.81746 0.27255 0.17994 0.0
C517 C 0.73262 0.1882 0.20715 0.0
C518 C 0.70115 0.1665 0.19509 0.0
C519 C 0.77848 0.23431 0.18526 0.0
C520 C 0.71031 0.17906 0.17808 0.0
C521 C 0.81996 0.29157 0.16424 0.0
C522 C 0.8853 0.32843 0.18715 0.0
N523 N 0.74792 0.21232 0.17371 0.0
N524 N 0.85039 0.29131 0.19078 0.0
H525 H 0.93452 0.45717 0.09992 0.0
H526 H 0.05195 0.56495 0.01335 0.0
H527 H 0.05951 0.56395 0.09829 0.0
H528 H 0.92351 0.46561 0.01662 0.0
H529 H 0.05734 0.56302 0.04419 0.0
H530 H 0.93202 0.45793 0.06923 0.0
C531 C 0.96157 0.48081 0.09312 0.0
C532 C 0.99728 0.51066 0.10178 0.0
C533 C 0.02801 0.54166 0.03814 0.0
C534 C 0.99449 0.51167 0.06639 0.0
C535 C 0.02497 0.54257 0.02054 0.0
C536 C 0.98715 0.51549 0.01239 0.0
C537 C 0.99305 0.51331 0.04765 0.0
C538 C 0.95309 0.48748 0.02236 0.0
C539 C 0.96006 0.48122 0.07554 0.0
C540 C 0.0313 0.5404 0.09218 0.0
N541 N 0.95687 0.48712 0.03943 0.0
N542 N 0.02905 0.54019 0.07499 0.0
H543 H 0.47871 0.05286 0.43397 0.0
H544 H 0.53072 0.97689 0.34758 0.0
H545 H 0.53608 0.9763 0.43186 0.0
H546 H 0.50765 0.08001 0.35005 0.0
H547 H 0.52435 0.97004 0.37836 0.0
H548 H 0.48099 0.05716 0.40305 0.0
C549 C 0.49163 0.03682 0.42703 0.0
C550 C 0.50736 0.01429 0.43555 0.0
C551 C 0.52063 0.99414 0.37217 0.0
C552 C 0.50985 0.01896 0.40019 0.0
C553 C 0.52399 0.99788 0.3546 0.0
C554 C 0.51974 0.02909 0.34626 0.0
C555 C 0.51257 0.02154 0.38148 0.0
C556 C 0.51154 0.05578 0.35601 0.0
C557 C 0.49304 0.03942 0.40939 0.0
C558 C 0.5238 0.99422 0.42587 0.0
N559 N 0.50811 0.05133 0.37311 0.0
N560 N 0.52452 0.99696 0.40872 0.0
H561 H 0.44495 0.46955 0.76664 0.0
H562 H 0.56377 0.58978 0.68203 0.0
H563 H 0.57456 0.56693 0.76509 0.0
H564 H 0.43974 0.48165 0.68229 0.0
H565 H 0.56731 0.58314 0.71263 0.0
H566 H 0.44162 0.47442 0.73591 0.0
C567 C 0.47275 0.4919 0.75986 0.0
C568 C 0.5101 0.51791 0.76852 0.0
C569 C 0.53932 0.56079 0.70601 0.0
C570 C 0.50639 0.52372 0.73329 0.0
C571 C 0.53717 0.56474 0.68854 0.0
C572 C 0.50132 0.53633 0.67959 0.0
C573 C 0.50529 0.52831 0.71466 0.0
C574 C 0.4681 0.50406 0.68867 0.0
C575 C 0.47081 0.49461 0.7423 0.0
C576 C 0.5451 0.5462 0.759 0.0
N577 N 0.47082 0.50103 0.70572 0.0
N578 N 0.54232 0.54844 0.74194 0.0
H579 H 0.45319 0.9349 0.5679 0.0
H580 H 0.55461 0.05265 0.65491 0.0
H581 H 0.55352 0.06329 0.57069 0.0
H582 H 0.46083 0.9218 0.65178 0.0
H583 H 0.55223 0.05813 0.62418 0.0
H584 H 0.45288 0.93066 0.59871 0.0
C585 C 0.47508 0.96229 0.57497 0.0
C586 C 0.50353 0.9995 0.56663 0.0
C587 C 0.53212 0.02822 0.63022 0.0
C588 C 0.50332 0.99477 0.60201 0.0
C589 C 0.53361 0.02502 0.64777 0.0
C590 C 0.508 0.98665 0.65597 0.0
C591 C 0.50484 0.99281 0.62074 0.0
C592 C 0.48083 0.95211 0.64605 0.0
C593 C 0.4749 0.95979 0.59259 0.0
C594 C 0.53112 0.03391 0.57653 0.0
N595 N 0.48007 0.95599 0.62897 0.0
N596 N 0.53036 0.03067 0.59367 0.0
H597 H 0.52669 0.45105 0.89967 0.0
H598 H 0.50254 0.53796 0.98895 0.0
H599 H 0.50308 0.55356 0.90462 0.0
H600 H 0.53508 0.44184 0.98346 0.0
H601 H 0.49876 0.5417 0.95817 0.0
H602 H 0.5264 0.44513 0.93037 0.0
C603 C 0.52135 0.47231 0.90719 0.0
C604 C 0.515 0.50296 0.89949 0.0
C605 C 0.50666 0.51974 0.9637 0.0
C606 C 0.51466 0.49627 0.9348 0.0
C607 C 0.50856 0.51739 0.98128 0.0
C608 C 0.51922 0.48958 0.98882 0.0
C609 C 0.51534 0.494 0.95354 0.0
C610 C 0.52729 0.46413 0.97821 0.0
C611 C 0.52123 0.46891 0.92476 0.0
C612 C 0.50822 0.52953 0.90997 0.0
N613 N 0.52519 0.46696 0.96115 0.0
N614 N 0.50826 0.52559 0.92708 0.0
H615 H 0.01282 0.44964 0.23397 0.0
H616 H 0.97197 0.53123 0.32153 0.0
H617 H 0.97545 0.54271 0.23722 0.0
H618 H 0.99689 0.42946 0.31787 0.0
H619 H 0.97717 0.5388 0.29076 0.0
H620 H 0.01079 0.44447 0.26478 0.0
C621 C 0.00426 0.46907 0.24114 0.0
C622 C 0.9942 0.4966 0.23294 0.0
C623 C 0.98153 0.51483 0.29669 0.0
C624 C 0.99185 0.49081 0.2683 0.0
C625 C 0.97882 0.51066 0.31427 0.0
C626 C 0.98391 0.47959 0.3223 0.0
C627 C 0.98957 0.48786 0.28704 0.0
C628 C 0.99219 0.45347 0.31221 0.0
C629 C 0.00305 0.46604 0.25875 0.0
C630 C 0.98333 0.52095 0.24295 0.0
N631 N 0.99478 0.45821 0.29513 0.0
N632 N 0.98245 0.51747 0.26009 0.0
loop_
_geom_bond_atom_site_label_1
_geom_bond_atom_site_label_2
_geom_bond_distance
_geom_bond_site_symmetry_2
_ccdc_geom_bond_type
O0 Zn1 1.953 . S
O0 C16 1.225 1_655 S
Zn1 O0 1.953 . S
Zn1 O2 1.949 1_655 S
Zn1 O8 1.919 . S
Zn1 O13 1.924 1_655 S
O2 Zn1 1.949 1_455 S
O2 Zn3 1.923 1_455 S
O2 Zn4 1.950 . S
O2 Zn5 1.945 . S
Zn3 O2 1.923 1_655 S
Zn3 O6 1.933 . S
Zn3 O9 1.941 . S
Zn3 O10 1.965 . S
Zn4 O2 1.950 . S
Zn4 O11 1.938 1_455 S
Zn4 O12 1.906 . S
Zn4 O22 1.953 . S
Zn5 O2 1.945 . S
Zn5 O7 1.932 . S
Zn5 O14 1.977 . S
Zn5 O15 1.910 . S
O6 Zn3 1.933 . S
O6 C17 1.226 1_655 S
O7 Zn5 1.932 . S
O7 C17 1.307 . S
O8 Zn1 1.919 . S
O8 C19 1.253 . S
O9 Zn3 1.941 . S
O9 C19 1.283 . S
O10 Zn3 1.965 . S
O10 C18 1.303 . S
O11 Zn4 1.938 1_655 S
O11 C18 1.247 . S
O12 Zn4 1.906 . S
O12 C20 1.304 . S
O13 Zn1 1.924 1_455 S
O13 C21 1.311 . S
O14 Zn5 1.977 . S
O14 C20 1.272 . S
O15 Zn5 1.910 . S
O15 C21 1.231 . S
C16 O0 1.225 1_455 S
C16 O22 1.298 . S
C17 O6 1.226 1_455 S
C17 O7 1.307 . S
C18 O10 1.303 . S
C18 O11 1.247 . S
C19 O8 1.253 . S
C19 O9 1.283 . S
C20 O12 1.304 . S
C20 O14 1.272 . S
C21 O13 1.311 . S
C21 O15 1.231 . S
O22 Zn4 1.953 . S
O22 C16 1.298 . S
O23 Zn24 1.953 . S
O23 C39 1.225 . S
Zn24 O23 1.953 . S
Zn24 O25 1.949 . S
Zn24 O31 1.919 . S
Zn24 O36 1.924 1_545 S
O25 Zn24 1.949 . S
O25 Zn26 1.923 . S
O25 Zn27 1.950 1_545 S
O25 Zn28 1.945 1_545 S
Zn26 O25 1.923 . S
Zn26 O29 1.933 . S
Zn26 O32 1.941 . S
Zn26 O33 1.965 . S
Zn27 O25 1.950 1_565 S
Zn27 O34 1.938 1_565 S
Zn27 O35 1.906 . S
Zn27 O45 1.953 . S
Zn28 O25 1.945 1_565 S
Zn28 O30 1.932 . S
Zn28 O37 1.977 . S
Zn28 O38 1.910 . S
O29 Zn26 1.933 . S
O29 C40 1.226 . S
O30 Zn28 1.932 . S
O30 C40 1.307 1_565 S
O31 Zn24 1.919 . S
O31 C42 1.253 . S
O32 Zn26 1.941 . S
O32 C42 1.283 . S
O33 Zn26 1.965 . S
O33 C41 1.303 . S
O34 Zn27 1.938 1_545 S
O34 C41 1.247 . S
O35 Zn27 1.906 . S
O35 C43 1.304 . S
O36 Zn24 1.924 1_565 S
O36 C44 1.311 . S
O37 Zn28 1.977 . S
O37 C43 1.272 . S
O38 Zn28 1.910 . S
O38 C44 1.231 . S
C39 O23 1.225 . S
C39 O45 1.298 1_545 S
C40 O29 1.226 . S
C40 O30 1.307 1_545 S
C41 O33 1.303 . S
C41 O34 1.247 . S
C42 O31 1.253 . S
C42 O32 1.283 . S
C43 O35 1.304 . S
C43 O37 1.272 . S
C44 O36 1.311 . S
C44 O38 1.231 . S
O45 Zn27 1.953 . S
O45 C39 1.298 1_565 S
O46 Zn47 1.953 . S
O46 C62 1.225 . S
Zn47 O46 1.953 . S
Zn47 O48 1.949 . S
Zn47 O54 1.919 . S
Zn47 O59 1.924 . S
O48 Zn47 1.949 . S
O48 Zn49 1.923 . S
O48 Zn50 1.950 . S
O48 Zn51 1.945 . S
Zn49 O48 1.923 . S
Zn49 O52 1.933 . S
Zn49 O55 1.941 . S
Zn49 O56 1.965 . S
Zn50 O48 1.950 . S
Zn50 O57 1.938 . S
Zn50 O58 1.906 . S
Zn50 O68 1.953 . S
Zn51 O48 1.945 . S
Zn51 O53 1.932 . S
Zn51 O60 1.977 . S
Zn51 O61 1.910 . S
O52 Zn49 1.933 . S
O52 C63 1.226 . S
O53 Zn51 1.932 . S
O53 C63 1.307 . S
O54 Zn47 1.919 . S
O54 C65 1.253 . S
O55 Zn49 1.941 . S
O55 C65 1.283 . S
O56 Zn49 1.965 . S
O56 C64 1.303 . S
O57 Zn50 1.938 . S
O57 C64 1.247 . S
O58 Zn50 1.906 . S
O58 C66 1.304 . S
O59 Zn47 1.924 . S
O59 C67 1.311 . S
O60 Zn51 1.977 . S
O60 C66 1.272 . S
O61 Zn51 1.910 . S
O61 C67 1.231 . S
C62 O46 1.225 . S
C62 O68 1.298 . S
C63 O52 1.226 . S
C63 O53 1.307 . S
C64 O56 1.303 . S
C64 O57 1.247 . S
C65 O54 1.253 . S
C65 O55 1.283 . S
C66 O58 1.304 . S
C66 O60 1.272 . S
C67 O59 1.311 . S
C67 O61 1.231 . S
O68 Zn50 1.953 . S
O68 C62 1.298 . S
C69 C70 1.264 . S
C69 C74 1.479 . S
C69 C79 1.465 . S
C70 C69 1.264 . S
C70 C72 1.339 . S
C70 H97 0.931 . S
C71 C72 1.395 . S
C71 C73 1.320 . S
C72 C70 1.339 . S
C72 C71 1.395 . S
C72 H98 0.929 . S
C73 C71 1.320 . S
C73 C74 1.405 . S
C73 H99 0.930 . S
C74 C69 1.479 . S
C74 C73 1.405 . S
C74 H100 0.931 . S
U75 O76 2.454 1_545 S
U75 O77 2.458 1_545 S
U75 C78 2.984 1_545 S
U75 C79 2.847 . S
U75 C92 2.882 . S
U75 O93 2.441 . S
U75 O94 2.420 . S
U75 O95 2.455 1_545 S
U75 O96 2.449 . S
O76 U75 2.454 1_565 S
O76 C78 1.353 . S
O77 U75 2.458 1_565 S
O77 C78 1.286 . S
C78 U75 2.984 1_565 S
C78 O76 1.353 . S
C78 O77 1.286 . S
C78 C80 1.363 . S
C79 C69 1.465 . S
C79 U75 2.847 . S
C79 O93 1.249 . S
C79 O94 1.202 . S
C80 C78 1.363 . S
C80 C82 1.408 . S
C80 C85 1.342 . S
C81 C82 1.310 . S
C81 C84 1.461 . S
C81 H101 0.932 . S
C82 C80 1.408 . S
C82 C81 1.310 . S
C82 H102 0.930 . S
C83 C84 1.474 . S
C83 C85 1.285 . S
C83 H103 0.929 . S
C84 C81 1.461 . S
C84 C83 1.474 . S
C85 C80 1.342 . S
C85 C83 1.285 . S
C85 H104 0.930 . S
C86 C89 1.424 . S
C86 C91 1.245 1_545 S
C86 C92 1.428 . S
C87 C90 1.260 1_565 S
C87 C91 1.477 . S
C87 H105 0.932 . S
C88 C89 1.384 . S
C88 C90 1.479 . S
C88 H106 0.929 . S
C89 C86 1.424 . S
C89 C88 1.384 . S
C89 H107 0.928 . S
C90 C87 1.260 1_545 S
C90 C88 1.479 . S
C91 C86 1.245 1_565 S
C91 C87 1.477 . S
C91 H108 0.932 . S
C92 U75 2.882 . S
C92 C86 1.428 . S
C92 O95 1.301 1_545 S
C92 O96 1.282 . S
O93 U75 2.441 . S
O93 C79 1.249 . S
O94 U75 2.420 . S
O94 C79 1.202 . S
O95 U75 2.455 1_565 S
O95 C92 1.301 1_565 S
O96 U75 2.449 . S
O96 C92 1.282 . S
H97 C70 0.931 . S
H98 C72 0.929 . S
H99 C73 0.930 . S
H100 C74 0.931 . S
H101 C81 0.932 . S
H102 C82 0.930 . S
H103 C83 0.929 . S
H104 C85 0.930 . S
H105 C87 0.932 . S
H106 C88 0.929 . S
H107 C89 0.928 . S
H108 C91 0.932 . S
C109 C110 1.264 . S
C109 C114 1.479 . S
C109 C119 1.465 . S
C110 C109 1.264 . S
C110 C112 1.339 . S
C110 H137 0.931 . S
C111 C112 1.395 . S
C111 C113 1.320 . S
C112 C110 1.339 . S
C112 C111 1.395 . S
C112 H138 0.929 . S
C113 C111 1.320 . S
C113 C114 1.405 . S
C113 H139 0.930 . S
C114 C109 1.479 . S
C114 C113 1.405 . S
C114 H140 0.931 . S
U115 O116 2.454 . S
U115 O117 2.458 . S
U115 C118 2.984 . S
U115 C119 2.847 . S
U115 C132 2.882 . S
U115 O133 2.441 . S
U115 O134 2.420 . S
U115 O135 2.455 . S
U115 O136 2.449 . S
O116 U115 2.454 . S
O116 C118 1.353 . S
O117 U115 2.458 . S
O117 C118 1.286 . S
C118 U115 2.984 . S
C118 O116 1.353 . S
C118 O117 1.286 . S
C118 C120 1.363 . S
C119 C109 1.465 . S
C119 U115 2.847 . S
C119 O133 1.249 . S
C119 O134 1.202 . S
C120 C118 1.363 . S
C120 C122 1.408 . S
C120 C125 1.342 . S
C121 C122 1.310 . S
C121 C124 1.461 . S
C121 H141 0.932 . S
C122 C120 1.408 . S
C122 C121 1.310 . S
C122 H142 0.930 . S
C123 C124 1.474 . S
C123 C125 1.285 . S
C123 H143 0.929 . S
C124 C121 1.461 . S
C124 C123 1.474 . S
C125 C120 1.342 . S
C125 C123 1.285 . S
C125 H144 0.930 . S
C126 C129 1.424 . S
C126 C131 1.245 . S
C126 C132 1.428 . S
C127 C130 1.260 . S
C127 C131 1.477 . S
C127 H145 0.932 . S
C128 C129 1.384 . S
C128 C130 1.479 . S
C128 H146 0.929 . S
C129 C126 1.424 . S
C129 C128 1.384 . S
C129 H147 0.928 . S
C130 C127 1.260 . S
C130 C128 1.479 . S
C131 C126 1.245 . S
C131 C127 1.477 . S
C131 H148 0.932 . S
C132 U115 2.882 . S
C132 C126 1.428 . S
C132 O135 1.301 . S
C132 O136 1.282 . S
O133 U115 2.441 . S
O133 C119 1.249 . S
O134 U115 2.420 . S
O134 C119 1.202 . S
O135 U115 2.455 . S
O135 C132 1.301 . S
O136 U115 2.449 . S
O136 C132 1.282 . S
H137 C110 0.931 . S
H138 C112 0.929 . S
H139 C113 0.930 . S
H140 C114 0.931 . S
H141 C121 0.932 . S
H142 C122 0.930 . S
H143 C123 0.929 . S
H144 C125 0.930 . S
H145 C127 0.932 . S
H146 C128 0.929 . S
H147 C129 0.928 . S
H148 C131 0.932 . S
C149 C150 1.264 . S
C149 C154 1.479 . S
C149 C159 1.465 . S
C150 C149 1.264 . S
C150 C152 1.339 . S
C150 H177 0.931 . S
C151 C152 1.395 . S
C151 C153 1.320 . S
C152 C150 1.339 . S
C152 C151 1.395 . S
C152 H178 0.929 . S
C153 C151 1.320 . S
C153 C154 1.405 . S
C153 H179 0.930 . S
C154 C149 1.479 . S
C154 C153 1.405 . S
C154 H180 0.931 . S
U155 O156 2.454 . S
U155 O157 2.458 . S
U155 C158 2.984 . S
U155 C159 2.847 1_455 S
U155 C172 2.882 . S
U155 O173 2.441 1_455 S
U155 O174 2.420 1_455 S
U155 O175 2.455 . S
U155 O176 2.449 1_455 S
O156 U155 2.454 . S
O156 C158 1.353 . S
O157 U155 2.458 . S
O157 C158 1.286 . S
C158 U155 2.984 . S
C158 O156 1.353 . S
C158 O157 1.286 . S
C158 C160 1.363 . S
C159 C149 1.465 . S
C159 U155 2.847 1_655 S
C159 O173 1.249 . S
C159 O174 1.202 . S
C160 C158 1.363 . S
C160 C162 1.408 . S
C160 C165 1.342 . S
C161 C162 1.310 . S
C161 C164 1.461 . S
C161 H181 0.932 . S
C162 C160 1.408 . S
C162 C161 1.310 . S
C162 H182 0.930 . S
C163 C164 1.474 . S
C163 C165 1.285 . S
C163 H183 0.929 . S
C164 C161 1.461 . S
C164 C163 1.474 . S
C165 C160 1.342 . S
C165 C163 1.285 . S
C165 H184 0.930 . S
C166 C169 1.424 1_455 S
C166 C171 1.245 . S
C166 C172 1.428 . S
C167 C170 1.260 . S
C167 C171 1.477 . S
C167 H185 0.932 . S
C168 C169 1.384 . S
C168 C170 1.479 1_655 S
C168 H186 0.929 . S
C169 C166 1.424 1_655 S
C169 C168 1.384 . S
C169 H187 0.928 . S
C170 C167 1.260 . S
C170 C168 1.479 1_455 S
C171 C166 1.245 . S
C171 C167 1.477 . S
C171 H188 0.932 . S
C172 U155 2.882 . S
C172 C166 1.428 . S
C172 O175 1.301 . S
C172 O176 1.282 1_455 S
O173 U155 2.441 1_655 S
O173 C159 1.249 . S
O174 U155 2.420 1_655 S
O174 C159 1.202 . S
O175 U155 2.455 . S
O175 C172 1.301 . S
O176 U155 2.449 1_655 S
O176 C172 1.282 1_655 S
H177 C150 0.931 . S
H178 C152 0.929 . S
H179 C153 0.930 . S
H180 C154 0.931 . S
H181 C161 0.932 . S
H182 C162 0.930 . S
H183 C163 0.929 . S
H184 C165 0.930 . S
H185 C167 0.932 . S
H186 C168 0.929 . S
H187 C169 0.928 . S
H188 C171 0.932 . S
C189 C190 1.264 . S
C189 C194 1.479 . S
C189 C199 1.465 . S
C190 C189 1.264 . S
C190 C192 1.339 . S
C190 H217 0.931 . S
C191 C192 1.395 . S
C191 C193 1.320 . S
C192 C190 1.339 . S
C192 C191 1.395 . S
C192 H218 0.929 . S
C193 C191 1.320 . S
C193 C194 1.405 . S
C193 H219 0.930 . S
C194 C189 1.479 . S
C194 C193 1.405 . S
C194 H220 0.931 . S
U195 O196 2.454 1_655 S
U195 O197 2.458 1_655 S
U195 C198 2.984 1_655 S
U195 C199 2.847 . S
U195 C212 2.882 . S
U195 O213 2.441 . S
U195 O214 2.420 . S
U195 O215 2.455 1_655 S
U195 O216 2.449 . S
O196 U195 2.454 1_455 S
O196 C198 1.353 . S
O197 U195 2.458 1_455 S
O197 C198 1.286 . S
C198 U195 2.984 1_455 S
C198 O196 1.353 . S
C198 O197 1.286 . S
C198 C200 1.363 . S
C199 C189 1.465 . S
C199 U195 2.847 . S
C199 O213 1.249 . S
C199 O214 1.202 . S
C200 C198 1.363 . S
C200 C202 1.408 . S
C200 C205 1.342 . S
C201 C202 1.310 . S
C201 C204 1.461 . S
C201 H221 0.932 . S
C202 C200 1.408 . S
C202 C201 1.310 . S
C202 H222 0.930 . S
C203 C204 1.474 . S
C203 C205 1.285 . S
C203 H223 0.929 . S
C204 C201 1.461 . S
C204 C203 1.474 . S
C205 C200 1.342 . S
C205 C203 1.285 . S
C205 H224 0.930 . S
C206 C209 1.424 . S
C206 C211 1.245 1_655 S
C206 C212 1.428 . S
C207 C210 1.260 1_455 S
C207 C211 1.477 . S
C207 H225 0.932 . S
C208 C209 1.384 . S
C208 C210 1.479 . S
C208 H226 0.929 . S
C209 C206 1.424 . S
C209 C208 1.384 . S
C209 H227 0.928 . S
C210 C207 1.260 1_655 S
C210 C208 1.479 . S
C211 C206 1.245 1_455 S
C211 C207 1.477 . S
C211 H228 0.932 . S
C212 U195 2.882 . S
C212 C206 1.428 . S
C212 O215 1.301 1_655 S
C212 O216 1.282 . S
O213 U195 2.441 . S
O213 C199 1.249 . S
O214 U195 2.420 . S
O214 C199 1.202 . S
O215 U195 2.455 1_455 S
O215 C212 1.301 1_455 S
O216 U195 2.449 . S
O216 C212 1.282 . S
H217 C190 0.931 . S
H218 C192 0.929 . S
H219 C193 0.930 . S
H220 C194 0.931 . S
H221 C201 0.932 . S
H222 C202 0.930 . S
H223 C203 0.929 . S
H224 C205 0.930 . S
H225 C207 0.932 . S
H226 C208 0.929 . S
H227 C209 0.928 . S
H228 C211 0.932 . S
C229 C230 1.264 . S
C229 C234 1.479 . S
C229 C239 1.465 . S
C230 C229 1.264 . S
C230 C232 1.339 . S
C230 H257 0.931 . S
C231 C232 1.395 . S
C231 C233 1.320 . S
C232 C230 1.339 . S
C232 C231 1.395 . S
C232 H258 0.929 . S
C233 C231 1.320 . S
C233 C234 1.405 . S
C233 H259 0.930 . S
C234 C229 1.479 . S
C234 C233 1.405 . S
C234 H260 0.931 . S
U235 O236 2.454 1_565 S
U235 O237 2.458 1_565 S
U235 C238 2.984 1_565 S
U235 C239 2.847 . S
U235 C252 2.882 . S
U235 O253 2.441 . S
U235 O254 2.420 . S
U235 O255 2.455 1_565 S
U235 O256 2.449 . S
O236 U235 2.454 1_545 S
O236 C238 1.353 . S
O237 U235 2.458 1_545 S
O237 C238 1.286 . S
C238 U235 2.984 1_545 S
C238 O236 1.353 . S
C238 O237 1.286 . S
C238 C240 1.363 . S
C239 C229 1.465 . S
C239 U235 2.847 . S
C239 O253 1.249 . S
C239 O254 1.202 . S
C240 C238 1.363 . S
C240 C242 1.408 . S
C240 C245 1.342 . S
C241 C242 1.310 . S
C241 C244 1.461 . S
C241 H261 0.932 . S
C242 C240 1.408 . S
C242 C241 1.310 . S
C242 H262 0.930 . S
C243 C244 1.474 . S
C243 C245 1.285 . S
C243 H263 0.929 . S
C244 C241 1.461 . S
C244 C243 1.474 . S
C245 C240 1.342 . S
C245 C243 1.285 . S
C245 H264 0.930 . S
C246 C249 1.424 . S
C246 C251 1.245 1_565 S
C246 C252 1.428 . S
C247 C250 1.260 1_545 S
C247 C251 1.477 . S
C247 H265 0.932 . S
C248 C249 1.384 . S
C248 C250 1.479 . S
C248 H266 0.929 . S
C249 C246 1.424 . S
C249 C248 1.384 . S
C249 H267 0.928 . S
C250 C247 1.260 1_565 S
C250 C248 1.479 . S
C251 C246 1.245 1_545 S
C251 C247 1.477 . S
C251 H268 0.932 . S
C252 U235 2.882 . S
C252 C246 1.428 . S
C252 O255 1.301 1_565 S
C252 O256 1.282 . S
O253 U235 2.441 . S
O253 C239 1.249 . S
O254 U235 2.420 . S
O254 C239 1.202 . S
O255 U235 2.455 1_545 S
O255 C252 1.301 1_545 S
O256 U235 2.449 . S
O256 C252 1.282 . S
H257 C230 0.931 . S
H258 C232 0.929 . S
H259 C233 0.930 . S
H260 C234 0.931 . S
H261 C241 0.932 . S
H262 C242 0.930 . S
H263 C243 0.929 . S
H264 C245 0.930 . S
H265 C247 0.932 . S
H266 C248 0.929 . S
H267 C249 0.928 . S
H268 C251 0.932 . S
C269 C270 1.264 . S
C269 C274 1.479 . S
C269 C279 1.465 . S
C270 C269 1.264 . S
C270 C272 1.339 . S
C270 H297 0.931 . S
C271 C272 1.395 . S
C271 C273 1.320 . S
C272 C270 1.339 . S
C272 C271 1.395 . S
C272 H298 0.929 . S
C273 C271 1.320 . S
C273 C274 1.405 . S
C273 H299 0.930 . S
C274 C269 1.479 . S
C274 C273 1.405 . S
C274 H300 0.931 . S
U275 O276 2.454 . S
U275 O277 2.458 . S
U275 C278 2.984 . S
U275 C279 2.847 . S
U275 C292 2.882 . S
U275 O293 2.441 . S
U275 O294 2.420 . S
U275 O295 2.455 . S
U275 O296 2.449 . S
O276 U275 2.454 . S
O276 C278 1.353 . S
O277 U275 2.458 . S
O277 C278 1.286 . S
C278 U275 2.984 . S
C278 O276 1.353 . S
C278 O277 1.286 . S
C278 C280 1.363 . S
C279 C269 1.465 . S
C279 U275 2.847 . S
C279 O293 1.249 . S
C279 O294 1.202 . S
C280 C278 1.363 . S
C280 C282 1.408 . S
C280 C285 1.342 . S
C281 C282 1.310 . S
C281 C284 1.461 . S
C281 H301 0.932 . S
C282 C280 1.408 . S
C282 C281 1.310 . S
C282 H302 0.930 . S
C283 C284 1.474 . S
C283 C285 1.285 . S
C283 H303 0.929 . S
C284 C281 1.461 . S
C284 C283 1.474 . S
C285 C280 1.342 . S
C285 C283 1.285 . S
C285 H304 0.930 . S
C286 C289 1.424 . S
C286 C291 1.245 . S
C286 C292 1.428 . S
C287 C290 1.260 . S
C287 C291 1.477 . S
C287 H305 0.932 . S
C288 C289 1.384 . S
C288 C290 1.479 . S
C288 H306 0.929 . S
C289 C286 1.424 . S
C289 C288 1.384 . S
C289 H307 0.928 . S
C290 C287 1.260 . S
C290 C288 1.479 . S
C291 C286 1.245 . S
C291 C287 1.477 . S
C291 H308 0.932 . S
C292 U275 2.882 . S
C292 C286 1.428 . S
C292 O295 1.301 . S
C292 O296 1.282 . S
O293 U275 2.441 . S
O293 C279 1.249 . S
O294 U275 2.420 . S
O294 C279 1.202 . S
O295 U275 2.455 . S
O295 C292 1.301 . S
O296 U275 2.449 . S
O296 C292 1.282 . S
H297 C270 0.931 . S
H298 C272 0.929 . S
H299 C273 0.930 . S
H300 C274 0.931 . S
H301 C281 0.932 . S
H302 C282 0.930 . S
H303 C283 0.929 . S
H304 C285 0.930 . S
H305 C287 0.932 . S
H306 C288 0.929 . S
H307 C289 0.928 . S
H308 C291 0.932 . S
H309 C315 0.930 . S
H310 C319 0.930 . S
H311 C324 0.929 . S
H312 C322 0.929 . S
H313 C317 0.929 . S
H314 C323 0.929 . S
C315 H309 0.930 . S
C315 C316 1.367 . S
C315 C323 1.378 . S
C316 C315 1.367 . S
C316 C324 1.433 . S
C317 H313 0.929 . S
C317 C319 1.378 . S
C317 C321 1.350 . S
C318 C321 1.463 . S
C318 C323 1.350 . S
C318 N326 1.427 . S
C319 H310 0.930 . S
C319 C317 1.378 . S
C319 C320 1.367 . S
C320 C319 1.367 . S
C320 C322 1.433 . S
C321 C317 1.350 . S
C321 C318 1.463 . S
C321 N325 1.427 . S
C322 H312 0.929 . S
C322 C320 1.433 . S
C322 N325 1.384 . S
C323 H314 0.929 . S
C323 C315 1.378 . S
C323 C318 1.350 . S
C324 H311 0.929 . S
C324 C316 1.433 . S
C324 N326 1.384 . S
N325 C321 1.427 . S
N325 C322 1.384 . S
N326 C318 1.427 . S
N326 C324 1.384 . S
H327 C333 0.930 . S
H328 C337 0.930 . S
H329 C342 0.929 . S
H330 C340 0.929 . S
H331 C335 0.929 . S
H332 C341 0.929 . S
C333 H327 0.930 . S
C333 C334 1.367 . S
C333 C341 1.378 . S
C334 C333 1.367 . S
C334 C342 1.433 . S
C335 H331 0.929 . S
C335 C337 1.378 . S
C335 C339 1.350 . S
C336 C339 1.463 . S
C336 C341 1.350 . S
C336 N344 1.427 . S
C337 H328 0.930 . S
C337 C335 1.378 . S
C337 C338 1.367 . S
C338 C337 1.367 . S
C338 C340 1.433 . S
C339 C335 1.350 . S
C339 C336 1.463 . S
C339 N343 1.427 . S
C340 H330 0.929 . S
C340 C338 1.433 . S
C340 N343 1.384 . S
C341 H332 0.929 . S
C341 C333 1.378 . S
C341 C336 1.350 . S
C342 H329 0.929 . S
C342 C334 1.433 . S
C342 N344 1.384 . S
N343 C339 1.427 . S
N343 C340 1.384 . S
N344 C336 1.427 . S
N344 C342 1.384 . S
H345 C351 0.930 . S
H346 C355 0.930 . S
H347 C360 0.929 . S
H348 C358 0.929 . S
H349 C353 0.929 . S
H350 C359 0.929 . S
C351 H345 0.930 . S
C351 C352 1.367 . S
C351 C359 1.378 . S
C352 C351 1.367 . S
C352 C360 1.433 . S
C353 H349 0.929 . S
C353 C355 1.378 . S
C353 C357 1.350 . S
C354 C357 1.463 . S
C354 C359 1.350 . S
C354 N362 1.427 . S
C355 H346 0.930 . S
C355 C353 1.378 . S
C355 C356 1.367 . S
C356 C355 1.367 . S
C356 C358 1.433 . S
C357 C353 1.350 . S
C357 C354 1.463 . S
C357 N361 1.427 . S
C358 H348 0.929 . S
C358 C356 1.433 . S
C358 N361 1.384 . S
C359 H350 0.929 . S
C359 C351 1.378 . S
C359 C354 1.350 . S
C360 H347 0.929 . S
C360 C352 1.433 . S
C360 N362 1.384 . S
N361 C357 1.427 . S
N361 C358 1.384 . S
N362 C354 1.427 . S
N362 C360 1.384 . S
H363 C369 0.930 . S
H364 C373 0.930 . S
H365 C378 0.929 . S
H366 C376 0.929 . S
H367 C371 0.929 . S
H368 C377 0.929 . S
C369 H363 0.930 . S
C369 C370 1.367 . S
C369 C377 1.378 . S
C370 C369 1.367 . S
C370 C378 1.433 . S
C371 H367 0.929 . S
C371 C373 1.378 . S
C371 C375 1.350 . S
C372 C375 1.463 . S
C372 C377 1.350 . S
C372 N380 1.427 . S
C373 H364 0.930 . S
C373 C371 1.378 . S
C373 C374 1.367 . S
C374 C373 1.367 . S
C374 C376 1.433 . S
C375 C371 1.350 . S
C375 C372 1.463 . S
C375 N379 1.427 . S
C376 H366 0.929 . S
C376 C374 1.433 . S
C376 N379 1.384 . S
C377 H368 0.929 . S
C377 C369 1.378 . S
C377 C372 1.350 . S
C378 H365 0.929 . S
C378 C370 1.433 . S
C378 N380 1.384 . S
N379 C375 1.427 . S
N379 C376 1.384 . S
N380 C372 1.427 . S
N380 C378 1.384 . S
H381 C387 0.930 . S
H382 C391 0.930 . S
H383 C396 0.929 . S
H384 C394 0.929 . S
H385 C389 0.929 . S
H386 C395 0.929 . S
C387 H381 0.930 . S
C387 C388 1.367 . S
C387 C395 1.378 . S
C388 C387 1.367 . S
C388 C396 1.433 . S
C389 H385 0.929 . S
C389 C391 1.378 . S
C389 C393 1.350 . S
C390 C393 1.463 . S
C390 C395 1.350 . S
C390 N398 1.427 . S
C391 H382 0.930 . S
C391 C389 1.378 . S
C391 C392 1.367 . S
C392 C391 1.367 . S
C392 C394 1.433 . S
C393 C389 1.350 . S
C393 C390 1.463 . S
C393 N397 1.427 . S
C394 H384 0.929 . S
C394 C392 1.433 . S
C394 N397 1.384 . S
C395 H386 0.929 . S
C395 C387 1.378 . S
C395 C390 1.350 . S
C396 H383 0.929 . S
C396 C388 1.433 . S
C396 N398 1.384 . S
N397 C393 1.427 . S
N397 C394 1.384 . S
N398 C390 1.427 . S
N398 C396 1.384 . S
H399 C405 0.930 . S
H400 C409 0.930 . S
H401 C414 0.929 . S
H402 C412 0.929 . S
H403 C407 0.929 . S
H404 C413 0.929 . S
C405 H399 0.930 . S
C405 C406 1.367 . S
C405 C413 1.378 . S
C406 C405 1.367 . S
C406 C414 1.433 . S
C407 H403 0.929 . S
C407 C409 1.378 . S
C407 C411 1.350 . S
C408 C411 1.463 . S
C408 C413 1.350 . S
C408 N416 1.427 . S
C409 H400 0.930 . S
C409 C407 1.378 . S
C409 C410 1.367 . S
C410 C409 1.367 . S
C410 C412 1.433 . S
C411 C407 1.350 . S
C411 C408 1.463 . S
C411 N415 1.427 . S
C412 H402 0.929 . S
C412 C410 1.433 . S
C412 N415 1.384 . S
C413 H404 0.929 . S
C413 C405 1.378 . S
C413 C408 1.350 . S
C414 H401 0.929 . S
C414 C406 1.433 . S
C414 N416 1.384 . S
N415 C411 1.427 . S
N415 C412 1.384 . S
N416 C408 1.427 . S
N416 C414 1.384 . S
H417 C423 0.930 . S
H418 C427 0.930 . S
H419 C432 0.929 . S
H420 C430 0.929 . S
H421 C425 0.929 . S
H422 C431 0.929 . S
C423 H417 0.930 . S
C423 C424 1.367 . S
C423 C431 1.378 . S
C424 C423 1.367 . S
C424 C432 1.433 . S
C425 H421 0.929 . S
C425 C427 1.378 . S
C425 C429 1.350 . S
C426 C429 1.463 . S
C426 C431 1.350 . S
C426 N434 1.427 . S
C427 H418 0.930 . S
C427 C425 1.378 . S
C427 C428 1.367 . S
C428 C427 1.367 . S
C428 C430 1.433 . S
C429 C425 1.350 . S
C429 C426 1.463 . S
C429 N433 1.427 . S
C430 H420 0.929 . S
C430 C428 1.433 . S
C430 N433 1.384 . S
C431 H422 0.929 . S
C431 C423 1.378 . S
C431 C426 1.350 . S
C432 H419 0.929 . S
C432 C424 1.433 . S
C432 N434 1.384 . S
N433 C429 1.427 . S
N433 C430 1.384 . S
N434 C426 1.427 . S
N434 C432 1.384 . S
H435 C441 0.930 . S
H436 C445 0.930 . S
H437 C450 0.929 . S
H438 C448 0.929 . S
H439 C443 0.929 . S
H440 C449 0.929 . S
C441 H435 0.930 . S
C441 C442 1.367 . S
C441 C449 1.378 . S
C442 C441 1.367 . S
C442 C450 1.433 . S
C443 H439 0.929 . S
C443 C445 1.378 . S
C443 C447 1.350 . S
C444 C447 1.463 . S
C444 C449 1.350 . S
C444 N452 1.427 . S
C445 H436 0.930 . S
C445 C443 1.378 . S
C445 C446 1.367 . S
C446 C445 1.367 . S
C446 C448 1.433 . S
C447 C443 1.350 . S
C447 C444 1.463 . S
C447 N451 1.427 . S
C448 H438 0.929 . S
C448 C446 1.433 . S
C448 N451 1.384 . S
C449 H440 0.929 . S
C449 C441 1.378 . S
C449 C444 1.350 . S
C450 H437 0.929 . S
C450 C442 1.433 . S
C450 N452 1.384 . S
N451 C447 1.427 . S
N451 C448 1.384 . S
N452 C444 1.427 . S
N452 C450 1.384 . S
H453 C459 0.930 . S
H454 C463 0.930 . S
H455 C468 0.929 . S
H456 C466 0.929 . S
H457 C461 0.929 . S
H458 C467 0.929 . S
C459 H453 0.930 . S
C459 C460 1.367 . S
C459 C467 1.378 . S
C460 C459 1.367 . S
C460 C468 1.433 . S
C461 H457 0.929 . S
C461 C463 1.378 . S
C461 C465 1.350 . S
C462 C465 1.463 . S
C462 C467 1.350 . S
C462 N470 1.427 . S
C463 H454 0.930 . S
C463 C461 1.378 . S
C463 C464 1.367 . S
C464 C463 1.367 . S
C464 C466 1.433 . S
C465 C461 1.350 . S
C465 C462 1.463 . S
C465 N469 1.427 . S
C466 H456 0.929 . S
C466 C464 1.433 . S
C466 N469 1.384 . S
C467 H458 0.929 . S
C467 C459 1.378 . S
C467 C462 1.350 . S
C468 H455 0.929 . S
C468 C460 1.433 . S
C468 N470 1.384 . S
N469 C465 1.427 . S
N469 C466 1.384 . S
N470 C462 1.427 . S
N470 C468 1.384 . S
H471 C477 0.930 . S
H472 C481 0.930 . S
H473 C486 0.929 . S
H474 C484 0.929 . S
H475 C479 0.929 . S
H476 C485 0.929 . S
C477 H471 0.930 . S
C477 C478 1.367 . S
C477 C485 1.378 . S
C478 C477 1.367 . S
C478 C486 1.433 . S
C479 H475 0.929 . S
C479 C481 1.378 . S
C479 C483 1.350 . S
C480 C483 1.463 . S
C480 C485 1.350 . S
C480 N488 1.427 . S
C481 H472 0.930 . S
C481 C479 1.378 . S
C481 C482 1.367 . S
C482 C481 1.367 . S
C482 C484 1.433 . S
C483 C479 1.350 . S
C483 C480 1.463 . S
C483 N487 1.427 . S
C484 H474 0.929 . S
C484 C482 1.433 . S
C484 N487 1.384 . S
C485 H476 0.929 . S
C485 C477 1.378 . S
C485 C480 1.350 . S
C486 H473 0.929 . S
C486 C478 1.433 . S
C486 N488 1.384 . S
N487 C483 1.427 . S
N487 C484 1.384 . S
N488 C480 1.427 . S
N488 C486 1.384 . S
H489 C495 0.930 . S
H490 C499 0.930 . S
H491 C504 0.929 . S
H492 C502 0.929 . S
H493 C497 0.929 . S
H494 C503 0.929 . S
C495 H489 0.930 . S
C495 C496 1.367 . S
C495 C503 1.378 . S
C496 C495 1.367 . S
C496 C504 1.433 . S
C497 H493 0.929 . S
C497 C499 1.378 . S
C497 C501 1.350 . S
C498 C501 1.463 . S
C498 C503 1.350 . S
C498 N506 1.427 . S
C499 H490 0.930 . S
C499 C497 1.378 . S
C499 C500 1.367 . S
C500 C499 1.367 . S
C500 C502 1.433 . S
C501 C497 1.350 . S
C501 C498 1.463 . S
C501 N505 1.427 . S
C502 H492 0.929 . S
C502 C500 1.433 . S
C502 N505 1.384 . S
C503 H494 0.929 . S
C503 C495 1.378 . S
C503 C498 1.350 . S
C504 H491 0.929 . S
C504 C496 1.433 . S
C504 N506 1.384 . S
N505 C501 1.427 . S
N505 C502 1.384 . S
N506 C498 1.427 . S
N506 C504 1.384 . S
H507 C513 0.930 . S
H508 C517 0.930 . S
H509 C522 0.929 . S
H510 C520 0.929 . S
H511 C515 0.929 . S
H512 C521 0.929 . S
C513 H507 0.930 . S
C513 C514 1.367 . S
C513 C521 1.378 . S
C514 C513 1.367 . S
C514 C522 1.433 . S
C515 H511 0.929 . S
C515 C517 1.378 . S
C515 C519 1.350 . S
C516 C519 1.463 . S
C516 C521 1.350 . S
C516 N524 1.427 . S
C517 H508 0.930 . S
C517 C515 1.378 . S
C517 C518 1.367 . S
C518 C517 1.367 . S
C518 C520 1.433 . S
C519 C515 1.350 . S
C519 C516 1.463 . S
C519 N523 1.427 . S
C520 H510 0.929 . S
C520 C518 1.433 . S
C520 N523 1.384 . S
C521 H512 0.929 . S
C521 C513 1.378 . S
C521 C516 1.350 . S
C522 H509 0.929 . S
C522 C514 1.433 . S
C522 N524 1.384 . S
N523 C519 1.427 . S
N523 C520 1.384 . S
N524 C516 1.427 . S
N524 C522 1.384 . S
H525 C531 0.930 . S
H526 C535 0.930 . S
H527 C540 0.929 . S
H528 C538 0.929 . S
H529 C533 0.929 . S
H530 C539 0.929 . S
C531 H525 0.930 . S
C531 C532 1.367 1_655 S
C531 C539 1.378 . S
C532 C531 1.367 1_455 S
C532 C540 1.433 . S
C533 H529 0.929 . S
C533 C535 1.378 . S
C533 C537 1.350 . S
C534 C537 1.463 . S
C534 C539 1.350 1_455 S
C534 N542 1.427 . S
C535 H526 0.930 . S
C535 C533 1.378 . S
C535 C536 1.367 . S
C536 C535 1.367 . S
C536 C538 1.433 1_455 S
C537 C533 1.350 . S
C537 C534 1.463 . S
C537 N541 1.427 1_455 S
C538 H528 0.929 . S
C538 C536 1.433 1_655 S
C538 N541 1.384 . S
C539 H530 0.929 . S
C539 C531 1.378 . S
C539 C534 1.350 1_655 S
C540 H527 0.929 . S
C540 C532 1.433 . S
C540 N542 1.384 . S
N541 C537 1.427 1_655 S
N541 C538 1.384 . S
N542 C534 1.427 . S
N542 C540 1.384 . S
H543 C549 0.930 . S
H544 C553 0.930 . S
H545 C558 0.929 . S
H546 C556 0.929 . S
H547 C551 0.929 . S
H548 C557 0.929 . S
C549 H543 0.930 . S
C549 C550 1.367 . S
C549 C557 1.378 . S
C550 C549 1.367 . S
C550 C558 1.433 1_545 S
C551 H547 0.929 . S
C551 C553 1.378 . S
C551 C555 1.350 1_565 S
C552 C555 1.463 . S
C552 C557 1.350 . S
C552 N560 1.427 1_545 S
C553 H544 0.930 . S
C553 C551 1.378 . S
C553 C554 1.367 1_565 S
C554 C553 1.367 1_545 S
C554 C556 1.433 . S
C555 C551 1.350 1_545 S
C555 C552 1.463 . S
C555 N559 1.427 . S
C556 H546 0.929 . S
C556 C554 1.433 . S
C556 N559 1.384 . S
C557 H548 0.929 . S
C557 C549 1.378 . S
C557 C552 1.350 . S
C558 H545 0.929 . S
C558 C550 1.433 1_565 S
C558 N560 1.384 . S
N559 C555 1.427 . S
N559 C556 1.384 . S
N560 C552 1.427 1_565 S
N560 C558 1.384 . S
H561 C567 0.930 . S
H562 C571 0.930 . S
H563 C576 0.929 . S
H564 C574 0.929 . S
H565 C569 0.929 . S
H566 C575 0.929 . S
C567 H561 0.930 . S
C567 C568 1.367 . S
C567 C575 1.378 . S
C568 C567 1.367 . S
C568 C576 1.433 . S
C569 H565 0.929 . S
C569 C571 1.378 . S
C569 C573 1.350 . S
C570 C573 1.463 . S
C570 C575 1.350 . S
C570 N578 1.427 . S
C571 H562 0.930 . S
C571 C569 1.378 . S
C571 C572 1.367 . S
C572 C571 1.367 . S
C572 C574 1.433 . S
C573 C569 1.350 . S
C573 C570 1.463 . S
C573 N577 1.427 . S
C574 H564 0.929 . S
C574 C572 1.433 . S
C574 N577 1.384 . S
C575 H566 0.929 . S
C575 C567 1.378 . S
C575 C570 1.350 . S
C576 H563 0.929 . S
C576 C568 1.433 . S
C576 N578 1.384 . S
N577 C573 1.427 . S
N577 C574 1.384 . S
N578 C570 1.427 . S
N578 C576 1.384 . S
H579 C585 0.930 . S
H580 C589 0.930 . S
H581 C594 0.929 . S
H582 C592 0.929 . S
H583 C587 0.929 . S
H584 C593 0.929 . S
C585 H579 0.930 . S
C585 C586 1.367 1_565 S
C585 C593 1.378 . S
C586 C585 1.367 1_545 S
C586 C594 1.433 . S
C587 H583 0.929 . S
C587 C589 1.378 . S
C587 C591 1.350 . S
C588 C591 1.463 . S
C588 C593 1.350 1_545 S
C588 N596 1.427 . S
C589 H580 0.930 . S
C589 C587 1.378 . S
C589 C590 1.367 . S
C590 C589 1.367 . S
C590 C592 1.433 1_545 S
C591 C587 1.350 . S
C591 C588 1.463 . S
C591 N595 1.427 1_545 S
C592 H582 0.929 . S
C592 C590 1.433 1_565 S
C592 N595 1.384 . S
C593 H584 0.929 . S
C593 C585 1.378 . S
C593 C588 1.350 1_565 S
C594 H581 0.929 . S
C594 C586 1.433 . S
C594 N596 1.384 . S
N595 C591 1.427 1_565 S
N595 C592 1.384 . S
N596 C588 1.427 . S
N596 C594 1.384 . S
H597 C603 0.930 . S
H598 C607 0.930 . S
H599 C612 0.929 . S
H600 C610 0.929 . S
H601 C605 0.929 . S
H602 C611 0.929 . S
C603 H597 0.930 . S
C603 C604 1.367 . S
C603 C611 1.378 . S
C604 C603 1.367 . S
C604 C612 1.433 . S
C605 H601 0.929 . S
C605 C607 1.378 . S
C605 C609 1.350 . S
C606 C609 1.463 . S
C606 C611 1.350 . S
C606 N614 1.427 . S
C607 H598 0.930 . S
C607 C605 1.378 . S
C607 C608 1.367 . S
C608 C607 1.367 . S
C608 C610 1.433 . S
C609 C605 1.350 . S
C609 C606 1.463 . S
C609 N613 1.427 . S
C610 H600 0.929 . S
C610 C608 1.433 . S
C610 N613 1.384 . S
C611 H602 0.929 . S
C611 C603 1.378 . S
C611 C606 1.350 . S
C612 H599 0.929 . S
C612 C604 1.433 . S
C612 N614 1.384 . S
N613 C609 1.427 . S
N613 C610 1.384 . S
N614 C606 1.427 . S
N614 C612 1.384 . S
H615 C621 0.930 . S
H616 C625 0.930 . S
H617 C630 0.929 . S
H618 C628 0.929 . S
H619 C623 0.929 . S
H620 C629 0.929 . S
C621 H615 0.930 . S
C621 C622 1.367 . S
C621 C629 1.378 . S
C622 C621 1.367 . S
C622 C630 1.433 1_455 S
C623 H619 0.929 . S
C623 C625 1.378 . S
C623 C627 1.350 1_655 S
C624 C627 1.463 . S
C624 C629 1.350 . S
C624 N632 1.427 1_455 S
C625 H616 0.930 . S
C625 C623 1.378 . S
C625 C626 1.367 1_655 S
C626 C625 1.367 1_455 S
C626 C628 1.433 . S
C627 C623 1.350 1_455 S
C627 C624 1.463 . S
C627 N631 1.427 . S
C628 H618 0.929 . S
C628 C626 1.433 . S
C628 N631 1.384 . S
C629 H620 0.929 . S
C629 C621 1.378 . S
C629 C624 1.350 . S
C630 H617 0.929 . S
C630 C622 1.433 1_655 S
C630 N632 1.384 . S
N631 C627 1.427 . S
N631 C628 1.384 . S
N632 C624 1.427 1_655 S
N632 C630 1.384 . S
C316 C20 1.174 . S
C320 C284 1.192 . S
C334 C41 1.222 . S
C338 C191 1.221 . S
C352 C64 1.253 . S
C356 C231 1.256 . S
C370 C19 1.214 . S
C374 C271 1.262 . S
C392 C204 1.225 . S
C388 C44 1.226 . S
C410 C244 1.207 . S
C406 C67 1.212 . S
C424 C43 1.145 . S
C428 C111 1.185 . S
C442 C66 1.160 . S
C446 C151 1.185 . S
C460 C21 1.225 . S
C464 C84 1.224 . S
C482 C124 1.237 . S
C478 C42 1.206 . S
C500 C164 1.255 . S
C496 C65 1.215 . S
C514 C18 1.224 . S
C518 C71 1.222 . S
C536 C170 1.448 1_554 S
C532 C17 1.460 . S
C550 C39 1.455 . S
C554 C90 1.450 . S
C568 C62 1.473 . S
C572 C130 1.463 . S
C590 C250 1.434 1_545 S
C586 C40 1.441 . S
C608 C290 1.457 1_556 S
C604 C63 1.462 . S
C622 C16 1.456 . S
C626 C210 1.444 1_455 S
